*************************************************
   ChampSim Multicore Out-of-Order Simulator
   Last compiled: Apr  3 2025 20:54:34
*************************************************
parsing config file: /home/zir/Pythia/config/spp_dev2.ini

trace_0 /home/zir/ChampSim/ML-DPC/ChampSimTraces/gap/cc-6.trace.gz
adding L2C_PREFETCHER: SPP_dev2
Initialize SIGNATURE TABLE
ST_SET: 1
ST_WAY: 256
ST_TAG_BIT: 16
ST_TAG_MASK: ffff

Initialize PATTERN TABLE
PT_SET: 512
PT_WAY: 4
SIG_DELTA_BIT: 7
C_SIG_BIT: 4
C_DELTA_BIT: 4

Initialize PREFETCH FILTER
FILTER_SET: 1024
fill_threshold: 90
pf_threshold: 40

Initialize SHIP state
warmup_instructions 10000000
simulation_instructions 50000000
champsim_seed 54
measure_ipc 0
measure_ipc_epoch 1000
measure_dram_bw 1
measure_dram_bw_epoch 256
measure_cache_acc 1
measure_cache_acc_epoch 1024
l1d_perfect 0
l2c_perfect 0
llc_perfect 0
l1d_semi_perfect 0
l2c_semi_perfect 0
llc_semi_perfect 0
semi_perfect_cache_page_buffer_size 64

num_cpus 1
cpu_freq 4000
dram_io_freq 2400
page_size 4096
block_size 64
max_read_per_cycle 8
max_fill_per_cycle 1
dram_channels 1
log2_dram_channels 0
dram_ranks 1
dram_banks 8
dram_rows 65536
dram_columns 128
dram_row_size 8
dram_size 4096
dram_pages 1048576

fetch_width 6
decode_width 6
exec_width 4
lq_width 2
sq_width 2
retire_width 4
scheduler_size 128
branch_mispredict_penalty 20
rob_size 256
lq_size 72
sq_size 56
num_instr_destinations_sparc 4
num_instr_destinations 2
num_instr_sources 4

itlb_set 16
itlb_way 8
itlb_rq_size 16
itlb_wq_size 16
itlb_pq_size 0
itlb_mshr_size 8
itlb_latency 1

dtlb_set 16
dtlb_way 4
dtlb_rq_size 16
dtlb_wq_size 16
dtlb_pq_size 0
dtlb_mshr_size 8
dtlb_latency 1

stlb_set 128
stlb_way 12
stlb_rq_size 32
stlb_wq_size 32
stlb_pq_size 0
stlb_mshr_size 16
stlb_latency 8

l1i_size 32
l1i_set 64
l1i_way 8
l1i_rq_size 64
l1i_wq_size 64
l1i_pq_size 8
l1i_mshr_size 8
l1i_latency 1

l1d_size 32
l1d_set 64
l1d_way 8
l1d_rq_size 64
l1d_wq_size 64
l1d_pq_size 8
l1d_mshr_size 16
l1d_latency 4

l2c_size 256
l2c_set 512
l2c_way 8
l2c_rq_size 32
l2c_wq_size 32
l2c_pq_size 32
l2c_mshr_size 32
l2c_latency 10

llc_size 2048
llc_set 2048
llc_way 16
llc_rq_size 32
llc_wq_size 32
llc_pq_size 32
llc_mshr_size 64
llc_latency 20

dram_channel_width 8
dram_wq_size 64
dram_rq_size 64
tRP 15
tRCD 15
tCAS 12.5
dram_dbus_turn_around_time 30
dram_write_high_wm 56
dram_write_low_wm 48
min_dram_writes_per_switch 16
dram_mtps 2400
dram_dbus_return_time 13


Heartbeat CPU  0 instructions:    1000001 cycles:     262103 heartbeat IPC: 3.81530 cumulative IPC: 3.81530 (Simulation time: 0 hr 0 min 1 sec) 
Heartbeat CPU  0 instructions:    2000000 cycles:     741932 heartbeat IPC: 2.08407 cumulative IPC: 2.69566 (Simulation time: 0 hr 0 min 3 sec) 
Heartbeat CPU  0 instructions:    3000002 cycles:    2167724 heartbeat IPC: 0.70137 cumulative IPC: 1.38394 (Simulation time: 0 hr 0 min 4 sec) 
Heartbeat CPU  0 instructions:    4000000 cycles:    3591911 heartbeat IPC: 0.70215 cumulative IPC: 1.11361 (Simulation time: 0 hr 0 min 5 sec) 
Heartbeat CPU  0 instructions:    5000000 cycles:    5074219 heartbeat IPC: 0.67462 cumulative IPC: 0.98537 (Simulation time: 0 hr 0 min 6 sec) 
Heartbeat CPU  0 instructions:    6000002 cycles:    6340052 heartbeat IPC: 0.79000 cumulative IPC: 0.94636 (Simulation time: 0 hr 0 min 7 sec) 
Heartbeat CPU  0 instructions:    7000002 cycles:    7593918 heartbeat IPC: 0.79753 cumulative IPC: 0.92179 (Simulation time: 0 hr 0 min 8 sec) 
Heartbeat CPU  0 instructions:    8000000 cycles:    8949837 heartbeat IPC: 0.73751 cumulative IPC: 0.89387 (Simulation time: 0 hr 0 min 9 sec) 
Heartbeat CPU  0 instructions:    9000003 cycles:   10185573 heartbeat IPC: 0.80924 cumulative IPC: 0.88360 (Simulation time: 0 hr 0 min 10 sec) 
Heartbeat CPU  0 instructions:   10000002 cycles:   11523505 heartbeat IPC: 0.74742 cumulative IPC: 0.86779 (Simulation time: 0 hr 0 min 11 sec) 

Warmup complete CPU  0 instructions:   10000002 cycles:   11523505 (Simulation time: 0 hr 0 min 11 sec) 

Heartbeat CPU  0 instructions:   11000000 cycles:   18015254 heartbeat IPC: 0.15404 cumulative IPC: 0.15404 (Simulation time: 0 hr 0 min 14 sec) 
Heartbeat CPU  0 instructions:   12000000 cycles:   24832877 heartbeat IPC: 0.14668 cumulative IPC: 0.15027 (Simulation time: 0 hr 0 min 16 sec) 
Heartbeat CPU  0 instructions:   13000000 cycles:   31348864 heartbeat IPC: 0.15347 cumulative IPC: 0.15132 (Simulation time: 0 hr 0 min 18 sec) 
Heartbeat CPU  0 instructions:   14000002 cycles:   37455005 heartbeat IPC: 0.16377 cumulative IPC: 0.15425 (Simulation time: 0 hr 0 min 20 sec) 
Heartbeat CPU  0 instructions:   15000000 cycles:   45099925 heartbeat IPC: 0.13081 cumulative IPC: 0.14891 (Simulation time: 0 hr 0 min 23 sec) 
Heartbeat CPU  0 instructions:   16000000 cycles:   51937859 heartbeat IPC: 0.14624 cumulative IPC: 0.14846 (Simulation time: 0 hr 0 min 25 sec) 
Heartbeat CPU  0 instructions:   17000002 cycles:   58054587 heartbeat IPC: 0.16349 cumulative IPC: 0.15044 (Simulation time: 0 hr 0 min 27 sec) 
Heartbeat CPU  0 instructions:   18000002 cycles:   63966804 heartbeat IPC: 0.16914 cumulative IPC: 0.15255 (Simulation time: 0 hr 0 min 29 sec) 
Heartbeat CPU  0 instructions:   19000002 cycles:   69657576 heartbeat IPC: 0.17572 cumulative IPC: 0.15481 (Simulation time: 0 hr 0 min 32 sec) 
Heartbeat CPU  0 instructions:   20000000 cycles:   76070084 heartbeat IPC: 0.15594 cumulative IPC: 0.15493 (Simulation time: 0 hr 0 min 34 sec) 
Heartbeat CPU  0 instructions:   21000001 cycles:   83015469 heartbeat IPC: 0.14398 cumulative IPC: 0.15386 (Simulation time: 0 hr 0 min 36 sec) 
Heartbeat CPU  0 instructions:   22000000 cycles:   89753627 heartbeat IPC: 0.14841 cumulative IPC: 0.15339 (Simulation time: 0 hr 0 min 38 sec) 
Heartbeat CPU  0 instructions:   23000001 cycles:   95858070 heartbeat IPC: 0.16382 cumulative IPC: 0.15415 (Simulation time: 0 hr 0 min 41 sec) 
Heartbeat CPU  0 instructions:   24000000 cycles:  101557537 heartbeat IPC: 0.17545 cumulative IPC: 0.15550 (Simulation time: 0 hr 0 min 43 sec) 
Heartbeat CPU  0 instructions:   25000000 cycles:  107823019 heartbeat IPC: 0.15960 cumulative IPC: 0.15576 (Simulation time: 0 hr 0 min 45 sec) 
Heartbeat CPU  0 instructions:   26000000 cycles:  114141660 heartbeat IPC: 0.15826 cumulative IPC: 0.15592 (Simulation time: 0 hr 0 min 48 sec) 
Heartbeat CPU  0 instructions:   27000000 cycles:  120314659 heartbeat IPC: 0.16200 cumulative IPC: 0.15626 (Simulation time: 0 hr 0 min 50 sec) 
Heartbeat CPU  0 instructions:   28000000 cycles:  126366861 heartbeat IPC: 0.16523 cumulative IPC: 0.15674 (Simulation time: 0 hr 0 min 52 sec) 
Heartbeat CPU  0 instructions:   29000000 cycles:  133271872 heartbeat IPC: 0.14482 cumulative IPC: 0.15606 (Simulation time: 0 hr 0 min 54 sec) 
Heartbeat CPU  0 instructions:   30000000 cycles:  139708730 heartbeat IPC: 0.15536 cumulative IPC: 0.15602 (Simulation time: 0 hr 0 min 57 sec) 
Heartbeat CPU  0 instructions:   31000001 cycles:  145618512 heartbeat IPC: 0.16921 cumulative IPC: 0.15661 (Simulation time: 0 hr 0 min 59 sec) 
Heartbeat CPU  0 instructions:   32000000 cycles:  151604185 heartbeat IPC: 0.16707 cumulative IPC: 0.15705 (Simulation time: 0 hr 1 min 1 sec) 
Heartbeat CPU  0 instructions:   33000000 cycles:  158439169 heartbeat IPC: 0.14631 cumulative IPC: 0.15655 (Simulation time: 0 hr 1 min 4 sec) 
Heartbeat CPU  0 instructions:   34000000 cycles:  164441043 heartbeat IPC: 0.16661 cumulative IPC: 0.15695 (Simulation time: 0 hr 1 min 6 sec) 
Heartbeat CPU  0 instructions:   35000001 cycles:  170160206 heartbeat IPC: 0.17485 cumulative IPC: 0.15759 (Simulation time: 0 hr 1 min 8 sec) 
Heartbeat CPU  0 instructions:   36000000 cycles:  175756548 heartbeat IPC: 0.17869 cumulative IPC: 0.15831 (Simulation time: 0 hr 1 min 10 sec) 
Heartbeat CPU  0 instructions:   37000000 cycles:  182487817 heartbeat IPC: 0.14856 cumulative IPC: 0.15793 (Simulation time: 0 hr 1 min 13 sec) 
Heartbeat CPU  0 instructions:   38000001 cycles:  188558021 heartbeat IPC: 0.16474 cumulative IPC: 0.15816 (Simulation time: 0 hr 1 min 15 sec) 
Heartbeat CPU  0 instructions:   39000000 cycles:  194454215 heartbeat IPC: 0.16960 cumulative IPC: 0.15853 (Simulation time: 0 hr 1 min 17 sec) 
Heartbeat CPU  0 instructions:   40000000 cycles:  201053161 heartbeat IPC: 0.15154 cumulative IPC: 0.15829 (Simulation time: 0 hr 1 min 20 sec) 
Heartbeat CPU  0 instructions:   41000002 cycles:  207575219 heartbeat IPC: 0.15333 cumulative IPC: 0.15812 (Simulation time: 0 hr 1 min 22 sec) 
Heartbeat CPU  0 instructions:   42000000 cycles:  214007250 heartbeat IPC: 0.15547 cumulative IPC: 0.15804 (Simulation time: 0 hr 1 min 24 sec) 
Heartbeat CPU  0 instructions:   43000002 cycles:  220300030 heartbeat IPC: 0.15891 cumulative IPC: 0.15806 (Simulation time: 0 hr 1 min 26 sec) 
Heartbeat CPU  0 instructions:   44000000 cycles:  226766429 heartbeat IPC: 0.15465 cumulative IPC: 0.15796 (Simulation time: 0 hr 1 min 29 sec) 
Heartbeat CPU  0 instructions:   45000000 cycles:  232582704 heartbeat IPC: 0.17193 cumulative IPC: 0.15833 (Simulation time: 0 hr 1 min 31 sec) 
Heartbeat CPU  0 instructions:   46000000 cycles:  238324718 heartbeat IPC: 0.17415 cumulative IPC: 0.15873 (Simulation time: 0 hr 1 min 33 sec) 
Heartbeat CPU  0 instructions:   47000000 cycles:  244126334 heartbeat IPC: 0.17237 cumulative IPC: 0.15907 (Simulation time: 0 hr 1 min 36 sec) 
Heartbeat CPU  0 instructions:   48000000 cycles:  250464804 heartbeat IPC: 0.15777 cumulative IPC: 0.15903 (Simulation time: 0 hr 1 min 38 sec) 
Heartbeat CPU  0 instructions:   49000000 cycles:  256405302 heartbeat IPC: 0.16834 cumulative IPC: 0.15926 (Simulation time: 0 hr 1 min 41 sec) 
Heartbeat CPU  0 instructions:   50000000 cycles:  262633394 heartbeat IPC: 0.16056 cumulative IPC: 0.15929 (Simulation time: 0 hr 1 min 43 sec) 
Heartbeat CPU  0 instructions:   51000001 cycles:  269265573 heartbeat IPC: 0.15078 cumulative IPC: 0.15907 (Simulation time: 0 hr 1 min 45 sec) 
Heartbeat CPU  0 instructions:   52000000 cycles:  274883311 heartbeat IPC: 0.17801 cumulative IPC: 0.15948 (Simulation time: 0 hr 1 min 48 sec) 
Heartbeat CPU  0 instructions:   53000000 cycles:  280355487 heartbeat IPC: 0.18274 cumulative IPC: 0.15995 (Simulation time: 0 hr 1 min 50 sec) 
Heartbeat CPU  0 instructions:   54000002 cycles:  286573593 heartbeat IPC: 0.16082 cumulative IPC: 0.15997 (Simulation time: 0 hr 1 min 52 sec) 
Heartbeat CPU  0 instructions:   55000002 cycles:  292258347 heartbeat IPC: 0.17591 cumulative IPC: 0.16029 (Simulation time: 0 hr 1 min 54 sec) 
Heartbeat CPU  0 instructions:   56000000 cycles:  298201100 heartbeat IPC: 0.16827 cumulative IPC: 0.16046 (Simulation time: 0 hr 1 min 57 sec) 
Heartbeat CPU  0 instructions:   57000001 cycles:  304477558 heartbeat IPC: 0.15933 cumulative IPC: 0.16043 (Simulation time: 0 hr 1 min 59 sec) 
Heartbeat CPU  0 instructions:   58000002 cycles:  310123324 heartbeat IPC: 0.17712 cumulative IPC: 0.16075 (Simulation time: 0 hr 2 min 1 sec) 
Heartbeat CPU  0 instructions:   59000002 cycles:  316744665 heartbeat IPC: 0.15103 cumulative IPC: 0.16054 (Simulation time: 0 hr 2 min 4 sec) 
Heartbeat CPU  0 instructions:   60000000 cycles:  322112492 heartbeat IPC: 0.18629 cumulative IPC: 0.16098 (Simulation time: 0 hr 2 min 6 sec) 
Finished CPU 0 instructions: 50000000 cycles: 310589025 cumulative IPC: 0.16098 (Simulation time: 0 hr 2 min 6 sec) 

ChampSim completed all CPUs

[ROI Statistics]
Core_0_instructions 50000000
Core_0_cycles 310589025
Core_0_IPC 0.16098

Core_0_branch_prediction_accuracy 86.47559
Core_0_branch_MPKI 27.55800
Core_0_average_ROB_occupancy_at_mispredict 31.72221

Core_0_L1D_total_access 11075259
Core_0_L1D_total_hit 7051529
Core_0_L1D_total_miss 4023730
Core_0_L1D_loads 10827518
Core_0_L1D_load_hit 6803788
Core_0_L1D_load_miss 4023730
Core_0_L1D_RFOs 247741
Core_0_L1D_RFO_hit 247741
Core_0_L1D_RFO_miss 0
Core_0_L1D_prefetches 0
Core_0_L1D_prefetch_hit 0
Core_0_L1D_prefetch_miss 0
Core_0_L1D_writebacks 0
Core_0_L1D_writeback_hit 0
Core_0_L1D_writeback_miss 0
Core_0_L1D_prefetch_requested 0
Core_0_L1D_prefetch_dropped 0
Core_0_L1D_prefetch_issued 0
Core_0_L1D_prefetch_filled 0
Core_0_L1D_prefetch_useful 0
Core_0_L1D_prefetch_useless 0
Core_0_L1D_prefetch_late 0
Core_0_L1D_average_miss_latency 80.85417

Core_0_L1D_rq_access 13966330
Core_0_L1D_rq_forward 0
Core_0_L1D_rq_merged 2963393
Core_0_L1D_rq_to_cache 11002937
Core_0_L1D_rq_full 0

Core_0_L1D_wq_access 247741
Core_0_L1D_wq_forward 0
Core_0_L1D_wq_merged 0
Core_0_L1D_wq_to_cache 247741
Core_0_L1D_wq_full 0

Core_0_L1D_pq_access 0
Core_0_L1D_pq_forward 0
Core_0_L1D_pq_merged 0
Core_0_L1D_pq_to_cache 0
Core_0_L1D_pq_full 0

Core_0_L1D_acc_epochs 314191
Core_0_L1D_acc_level_0 314191
Core_0_L1D_acc_level_1 0
Core_0_L1D_acc_level_2 0
Core_0_L1D_acc_level_3 0
Core_0_L1D_acc_level_4 0
Core_0_L1D_acc_level_5 0
Core_0_L1D_acc_level_6 0
Core_0_L1D_acc_level_7 0
Core_0_L1D_acc_level_8 0
Core_0_L1D_acc_level_9 0

Core_0_L1I_total_access 10463986
Core_0_L1I_total_hit 10463986
Core_0_L1I_total_miss 0
Core_0_L1I_loads 10463986
Core_0_L1I_load_hit 10463986
Core_0_L1I_load_miss 0
Core_0_L1I_RFOs 0
Core_0_L1I_RFO_hit 0
Core_0_L1I_RFO_miss 0
Core_0_L1I_prefetches 0
Core_0_L1I_prefetch_hit 0
Core_0_L1I_prefetch_miss 0
Core_0_L1I_writebacks 0
Core_0_L1I_writeback_hit 0
Core_0_L1I_writeback_miss 0
Core_0_L1I_prefetch_requested 0
Core_0_L1I_prefetch_dropped 0
Core_0_L1I_prefetch_issued 0
Core_0_L1I_prefetch_filled 0
Core_0_L1I_prefetch_useful 0
Core_0_L1I_prefetch_useless 0
Core_0_L1I_prefetch_late 0
Core_0_L1I_average_miss_latency -nan

Core_0_L1I_rq_access 50000133
Core_0_L1I_rq_forward 0
Core_0_L1I_rq_merged 39536147
Core_0_L1I_rq_to_cache 10463986
Core_0_L1I_rq_full 0

Core_0_L1I_wq_access 0
Core_0_L1I_wq_forward 0
Core_0_L1I_wq_merged 0
Core_0_L1I_wq_to_cache 0
Core_0_L1I_wq_full 0

Core_0_L1I_pq_access 0
Core_0_L1I_pq_forward 0
Core_0_L1I_pq_merged 0
Core_0_L1I_pq_to_cache 0
Core_0_L1I_pq_full 0

Core_0_L1I_acc_epochs 314191
Core_0_L1I_acc_level_0 314191
Core_0_L1I_acc_level_1 0
Core_0_L1I_acc_level_2 0
Core_0_L1I_acc_level_3 0
Core_0_L1I_acc_level_4 0
Core_0_L1I_acc_level_5 0
Core_0_L1I_acc_level_6 0
Core_0_L1I_acc_level_7 0
Core_0_L1I_acc_level_8 0
Core_0_L1I_acc_level_9 0

Core_0_L2C_total_access 4264900
Core_0_L2C_total_hit 991491
Core_0_L2C_total_miss 3273409
Core_0_L2C_loads 4023730
Core_0_L2C_load_hit 764953
Core_0_L2C_load_miss 3258777
Core_0_L2C_RFOs 0
Core_0_L2C_RFO_hit 0
Core_0_L2C_RFO_miss 0
Core_0_L2C_prefetches 28838
Core_0_L2C_prefetch_hit 14359
Core_0_L2C_prefetch_miss 14479
Core_0_L2C_writebacks 212332
Core_0_L2C_writeback_hit 212179
Core_0_L2C_writeback_miss 153
Core_0_L2C_prefetch_requested 737655
Core_0_L2C_prefetch_dropped 0
Core_0_L2C_prefetch_issued 737655
Core_0_L2C_prefetch_filled 19184
Core_0_L2C_prefetch_useful 13654
Core_0_L2C_prefetch_useless 5529
Core_0_L2C_prefetch_late 1
Core_0_L2C_average_miss_latency 82.22092

Core_0_L2C_rq_access 4023730
Core_0_L2C_rq_forward 0
Core_0_L2C_rq_merged 0
Core_0_L2C_rq_to_cache 4023730
Core_0_L2C_rq_full 0

Core_0_L2C_wq_access 212332
Core_0_L2C_wq_forward 0
Core_0_L2C_wq_merged 0
Core_0_L2C_wq_to_cache 212332
Core_0_L2C_wq_full 0

Core_0_L2C_pq_access 737655
Core_0_L2C_pq_forward 0
Core_0_L2C_pq_merged 277
Core_0_L2C_pq_to_cache 737378
Core_0_L2C_pq_full 0

Core_0_L2C_acc_epochs 314191
Core_0_L2C_acc_level_0 299620
Core_0_L2C_acc_level_1 3165
Core_0_L2C_acc_level_2 2775
Core_0_L2C_acc_level_3 2108
Core_0_L2C_acc_level_4 904
Core_0_L2C_acc_level_5 2292
Core_0_L2C_acc_level_6 1485
Core_0_L2C_acc_level_7 806
Core_0_L2C_acc_level_8 530
Core_0_L2C_acc_level_9 506

Core_0_LLC_total_access 4097612
Core_0_LLC_total_hit 2817281
Core_0_LLC_total_miss 1280331
Core_0_LLC_loads 3258776
Core_0_LLC_load_hit 2306975
Core_0_LLC_load_miss 951801
Core_0_LLC_RFOs 0
Core_0_LLC_RFO_hit 0
Core_0_LLC_RFO_miss 0
Core_0_LLC_prefetches 626786
Core_0_LLC_prefetch_hit 298762
Core_0_LLC_prefetch_miss 328024
Core_0_LLC_writebacks 212050
Core_0_LLC_writeback_hit 211544
Core_0_LLC_writeback_miss 506
Core_0_LLC_prefetch_requested 0
Core_0_LLC_prefetch_dropped 0
Core_0_LLC_prefetch_issued 0
Core_0_LLC_prefetch_filled 376209
Core_0_LLC_prefetch_useful 276431
Core_0_LLC_prefetch_useless 98931
Core_0_LLC_prefetch_late 267
Core_0_LLC_average_miss_latency 182.87010

Core_0_LLC_rq_access 3258776
Core_0_LLC_rq_forward 0
Core_0_LLC_rq_merged 0
Core_0_LLC_rq_to_cache 3258776
Core_0_LLC_rq_full 0

Core_0_LLC_wq_access 212050
Core_0_LLC_wq_forward 0
Core_0_LLC_wq_merged 0
Core_0_LLC_wq_to_cache 212050
Core_0_LLC_wq_full 0

Core_0_LLC_pq_access 718917
Core_0_LLC_pq_forward 0
Core_0_LLC_pq_merged 9
Core_0_LLC_pq_to_cache 718908
Core_0_LLC_pq_full 0

Core_0_LLC_acc_epochs 314564
Core_0_LLC_acc_level_0 29524
Core_0_LLC_acc_level_1 28054
Core_0_LLC_acc_level_2 30398
Core_0_LLC_acc_level_3 40853
Core_0_LLC_acc_level_4 24885
Core_0_LLC_acc_level_5 31764
Core_0_LLC_acc_level_6 39996
Core_0_LLC_acc_level_7 26530
Core_0_LLC_acc_level_8 24793
Core_0_LLC_acc_level_9 37767

Core_0_major_page_fault 0
Core_0_minor_page_fault 5512

spp.pref.total 737655
spp.pref.at_L2 19583
spp.pref.at_LLC 718072

spp.depth.max 8
spp.depth.min 0
spp.depth.avg 0

spp.breadth.max 1
spp.breadth.min 0
spp.breadth.avg 0

delta_1 787871
delta_2 46
delta_3 10
delta_4 6
delta_5 6
delta_8 2
delta_6 1
delta_10 1

depth_1_delta_1 498187
depth_1_delta_2 46
depth_1_delta_3 10
depth_1_delta_4 6
depth_1_delta_5 6
depth_1_delta_8 2
depth_1_delta_6 1
depth_1_delta_10 1
depth_2_delta_1 236129
depth_3_delta_1 50289
depth_4_delta_1 3185
depth_5_delta_1 44
depth_6_delta_1 23
depth_7_delta_1 10
depth_8_delta_1 4

Channel_0_RQ_row_buffer_hit 205224
Channel_0_RQ_row_buffer_miss 1074595
Channel_0_WQ_row_buffer_hit 73739
Channel_0_WQ_row_buffer_miss 117883
Channel_0_WQ_full 0
Channel_0_dbus_congested 265845

avg_congested_cycle 8

DRAM_bw_pochs 1258253
DRAM_bw_level_0 1204970
DRAM_bw_level_1 52915
DRAM_bw_level_2 368
DRAM_bw_level_3 0
