*************************************************
   ChampSim Multicore Out-of-Order Simulator
   Last compiled: Apr  3 2025 20:54:34
*************************************************
parsing config file: /home/zir/Pythia/config/nopref.ini
unable to parse section: , name: , value: 

trace_0 /home/zir/ChampSim/ML-DPC/ChampSimTraces/gap/bfs-14.trace.gz
adding L2C_PREFETCHER: NONE
Initialize SHIP state
warmup_instructions 10000000
simulation_instructions 50000000
champsim_seed 101
measure_ipc 0
measure_ipc_epoch 1000
measure_dram_bw 1
measure_dram_bw_epoch 256
measure_cache_acc 1
measure_cache_acc_epoch 1024
l1d_perfect 0
l2c_perfect 0
llc_perfect 0
l1d_semi_perfect 0
l2c_semi_perfect 0
llc_semi_perfect 0
semi_perfect_cache_page_buffer_size 64

num_cpus 1
cpu_freq 4000
dram_io_freq 2400
page_size 4096
block_size 64
max_read_per_cycle 8
max_fill_per_cycle 1
dram_channels 1
log2_dram_channels 0
dram_ranks 1
dram_banks 8
dram_rows 65536
dram_columns 128
dram_row_size 8
dram_size 4096
dram_pages 1048576

fetch_width 6
decode_width 6
exec_width 4
lq_width 2
sq_width 2
retire_width 4
scheduler_size 128
branch_mispredict_penalty 20
rob_size 256
lq_size 72
sq_size 56
num_instr_destinations_sparc 4
num_instr_destinations 2
num_instr_sources 4

itlb_set 16
itlb_way 8
itlb_rq_size 16
itlb_wq_size 16
itlb_pq_size 0
itlb_mshr_size 8
itlb_latency 1

dtlb_set 16
dtlb_way 4
dtlb_rq_size 16
dtlb_wq_size 16
dtlb_pq_size 0
dtlb_mshr_size 8
dtlb_latency 1

stlb_set 128
stlb_way 12
stlb_rq_size 32
stlb_wq_size 32
stlb_pq_size 0
stlb_mshr_size 16
stlb_latency 8

l1i_size 32
l1i_set 64
l1i_way 8
l1i_rq_size 64
l1i_wq_size 64
l1i_pq_size 8
l1i_mshr_size 8
l1i_latency 1

l1d_size 32
l1d_set 64
l1d_way 8
l1d_rq_size 64
l1d_wq_size 64
l1d_pq_size 8
l1d_mshr_size 16
l1d_latency 4

l2c_size 256
l2c_set 512
l2c_way 8
l2c_rq_size 32
l2c_wq_size 32
l2c_pq_size 32
l2c_mshr_size 32
l2c_latency 10

llc_size 2048
llc_set 2048
llc_way 16
llc_rq_size 32
llc_wq_size 32
llc_pq_size 32
llc_mshr_size 64
llc_latency 20

dram_channel_width 8
dram_wq_size 64
dram_rq_size 64
tRP 15
tRCD 15
tCAS 12.5
dram_dbus_turn_around_time 30
dram_write_high_wm 56
dram_write_low_wm 48
min_dram_writes_per_switch 16
dram_mtps 2400
dram_dbus_return_time 13


Heartbeat CPU  0 instructions:    1000001 cycles:    1391405 heartbeat IPC: 0.71870 cumulative IPC: 0.71870 (Simulation time: 0 hr 0 min 1 sec) 
Heartbeat CPU  0 instructions:    2000002 cycles:    2784117 heartbeat IPC: 0.71802 cumulative IPC: 0.71836 (Simulation time: 0 hr 0 min 2 sec) 
Heartbeat CPU  0 instructions:    3000000 cycles:    4182362 heartbeat IPC: 0.71518 cumulative IPC: 0.71730 (Simulation time: 0 hr 0 min 2 sec) 
Heartbeat CPU  0 instructions:    4000000 cycles:    5577576 heartbeat IPC: 0.71674 cumulative IPC: 0.71716 (Simulation time: 0 hr 0 min 3 sec) 
Heartbeat CPU  0 instructions:    5000001 cycles:    6969660 heartbeat IPC: 0.71835 cumulative IPC: 0.71740 (Simulation time: 0 hr 0 min 4 sec) 
Heartbeat CPU  0 instructions:    6000000 cycles:    8370514 heartbeat IPC: 0.71385 cumulative IPC: 0.71680 (Simulation time: 0 hr 0 min 5 sec) 
Heartbeat CPU  0 instructions:    7000000 cycles:    9768282 heartbeat IPC: 0.71543 cumulative IPC: 0.71661 (Simulation time: 0 hr 0 min 6 sec) 
Heartbeat CPU  0 instructions:    8000000 cycles:   11166539 heartbeat IPC: 0.71518 cumulative IPC: 0.71643 (Simulation time: 0 hr 0 min 7 sec) 
Heartbeat CPU  0 instructions:    9000003 cycles:   12565595 heartbeat IPC: 0.71477 cumulative IPC: 0.71624 (Simulation time: 0 hr 0 min 7 sec) 
Heartbeat CPU  0 instructions:   10000002 cycles:   13962750 heartbeat IPC: 0.71574 cumulative IPC: 0.71619 (Simulation time: 0 hr 0 min 8 sec) 

Warmup complete CPU  0 instructions:   10000002 cycles:   13962750 (Simulation time: 0 hr 0 min 8 sec) 

Heartbeat CPU  0 instructions:   11000002 cycles:   18134824 heartbeat IPC: 0.23969 cumulative IPC: 0.23969 (Simulation time: 0 hr 0 min 11 sec) 
Heartbeat CPU  0 instructions:   12000000 cycles:   25145283 heartbeat IPC: 0.14264 cumulative IPC: 0.17885 (Simulation time: 0 hr 0 min 13 sec) 
Heartbeat CPU  0 instructions:   13000000 cycles:   31692926 heartbeat IPC: 0.15273 cumulative IPC: 0.16920 (Simulation time: 0 hr 0 min 15 sec) 
Heartbeat CPU  0 instructions:   14000001 cycles:   38190880 heartbeat IPC: 0.15389 cumulative IPC: 0.16510 (Simulation time: 0 hr 0 min 17 sec) 
Heartbeat CPU  0 instructions:   15000001 cycles:   44681710 heartbeat IPC: 0.15406 cumulative IPC: 0.16277 (Simulation time: 0 hr 0 min 19 sec) 
Heartbeat CPU  0 instructions:   16000000 cycles:   51189348 heartbeat IPC: 0.15367 cumulative IPC: 0.16118 (Simulation time: 0 hr 0 min 21 sec) 
Heartbeat CPU  0 instructions:   17000002 cycles:   57699645 heartbeat IPC: 0.15360 cumulative IPC: 0.16005 (Simulation time: 0 hr 0 min 23 sec) 
Heartbeat CPU  0 instructions:   18000001 cycles:   64183781 heartbeat IPC: 0.15422 cumulative IPC: 0.15930 (Simulation time: 0 hr 0 min 25 sec) 
Heartbeat CPU  0 instructions:   19000000 cycles:   70681119 heartbeat IPC: 0.15391 cumulative IPC: 0.15868 (Simulation time: 0 hr 0 min 27 sec) 
Heartbeat CPU  0 instructions:   20000000 cycles:   77158599 heartbeat IPC: 0.15438 cumulative IPC: 0.15824 (Simulation time: 0 hr 0 min 29 sec) 
Heartbeat CPU  0 instructions:   21000002 cycles:   83664151 heartbeat IPC: 0.15372 cumulative IPC: 0.15782 (Simulation time: 0 hr 0 min 31 sec) 
Heartbeat CPU  0 instructions:   22000001 cycles:   90179608 heartbeat IPC: 0.15348 cumulative IPC: 0.15745 (Simulation time: 0 hr 0 min 33 sec) 
Heartbeat CPU  0 instructions:   23000000 cycles:   96702555 heartbeat IPC: 0.15330 cumulative IPC: 0.15712 (Simulation time: 0 hr 0 min 35 sec) 
Heartbeat CPU  0 instructions:   24000000 cycles:  103228532 heartbeat IPC: 0.15323 cumulative IPC: 0.15683 (Simulation time: 0 hr 0 min 37 sec) 
Heartbeat CPU  0 instructions:   25000003 cycles:  109748647 heartbeat IPC: 0.15337 cumulative IPC: 0.15660 (Simulation time: 0 hr 0 min 39 sec) 
Heartbeat CPU  0 instructions:   26000000 cycles:  116252982 heartbeat IPC: 0.15374 cumulative IPC: 0.15642 (Simulation time: 0 hr 0 min 41 sec) 
Heartbeat CPU  0 instructions:   27000001 cycles:  122759781 heartbeat IPC: 0.15369 cumulative IPC: 0.15625 (Simulation time: 0 hr 0 min 43 sec) 
Heartbeat CPU  0 instructions:   28000000 cycles:  129269710 heartbeat IPC: 0.15361 cumulative IPC: 0.15611 (Simulation time: 0 hr 0 min 45 sec) 
Heartbeat CPU  0 instructions:   29000003 cycles:  135805240 heartbeat IPC: 0.15301 cumulative IPC: 0.15594 (Simulation time: 0 hr 0 min 47 sec) 
Heartbeat CPU  0 instructions:   30000003 cycles:  142329670 heartbeat IPC: 0.15327 cumulative IPC: 0.15580 (Simulation time: 0 hr 0 min 49 sec) 
Heartbeat CPU  0 instructions:   31000001 cycles:  148861779 heartbeat IPC: 0.15309 cumulative IPC: 0.15567 (Simulation time: 0 hr 0 min 51 sec) 
Heartbeat CPU  0 instructions:   32000000 cycles:  155366345 heartbeat IPC: 0.15374 cumulative IPC: 0.15558 (Simulation time: 0 hr 0 min 53 sec) 
Heartbeat CPU  0 instructions:   33000001 cycles:  161897999 heartbeat IPC: 0.15310 cumulative IPC: 0.15547 (Simulation time: 0 hr 0 min 55 sec) 
Heartbeat CPU  0 instructions:   34000000 cycles:  168439406 heartbeat IPC: 0.15287 cumulative IPC: 0.15536 (Simulation time: 0 hr 0 min 57 sec) 
Heartbeat CPU  0 instructions:   35000003 cycles:  174954767 heartbeat IPC: 0.15348 cumulative IPC: 0.15529 (Simulation time: 0 hr 0 min 59 sec) 
Heartbeat CPU  0 instructions:   36000000 cycles:  181469916 heartbeat IPC: 0.15349 cumulative IPC: 0.15522 (Simulation time: 0 hr 1 min 1 sec) 
Heartbeat CPU  0 instructions:   37000000 cycles:  187948475 heartbeat IPC: 0.15436 cumulative IPC: 0.15519 (Simulation time: 0 hr 1 min 2 sec) 
Heartbeat CPU  0 instructions:   38000002 cycles:  194467749 heartbeat IPC: 0.15339 cumulative IPC: 0.15512 (Simulation time: 0 hr 1 min 4 sec) 
Heartbeat CPU  0 instructions:   39000001 cycles:  202210188 heartbeat IPC: 0.12916 cumulative IPC: 0.15405 (Simulation time: 0 hr 1 min 7 sec) 
Heartbeat CPU  0 instructions:   40000000 cycles:  210131401 heartbeat IPC: 0.12624 cumulative IPC: 0.15293 (Simulation time: 0 hr 1 min 9 sec) 
Heartbeat CPU  0 instructions:   41000000 cycles:  218106693 heartbeat IPC: 0.12539 cumulative IPC: 0.15185 (Simulation time: 0 hr 1 min 11 sec) 
Heartbeat CPU  0 instructions:   42000001 cycles:  226006615 heartbeat IPC: 0.12658 cumulative IPC: 0.15091 (Simulation time: 0 hr 1 min 13 sec) 
Heartbeat CPU  0 instructions:   43000003 cycles:  233957956 heartbeat IPC: 0.12577 cumulative IPC: 0.15000 (Simulation time: 0 hr 1 min 15 sec) 
Heartbeat CPU  0 instructions:   44000000 cycles:  241838701 heartbeat IPC: 0.12689 cumulative IPC: 0.14920 (Simulation time: 0 hr 1 min 17 sec) 
Heartbeat CPU  0 instructions:   45000002 cycles:  249742151 heartbeat IPC: 0.12653 cumulative IPC: 0.14844 (Simulation time: 0 hr 1 min 19 sec) 
Heartbeat CPU  0 instructions:   46000001 cycles:  257641934 heartbeat IPC: 0.12659 cumulative IPC: 0.14774 (Simulation time: 0 hr 1 min 21 sec) 
Heartbeat CPU  0 instructions:   47000000 cycles:  265549745 heartbeat IPC: 0.12646 cumulative IPC: 0.14707 (Simulation time: 0 hr 1 min 23 sec) 
Heartbeat CPU  0 instructions:   48000000 cycles:  273418905 heartbeat IPC: 0.12708 cumulative IPC: 0.14646 (Simulation time: 0 hr 1 min 26 sec) 
Heartbeat CPU  0 instructions:   49000000 cycles:  281325260 heartbeat IPC: 0.12648 cumulative IPC: 0.14587 (Simulation time: 0 hr 1 min 28 sec) 
Heartbeat CPU  0 instructions:   50000001 cycles:  288636806 heartbeat IPC: 0.13677 cumulative IPC: 0.14563 (Simulation time: 0 hr 1 min 30 sec) 
Heartbeat CPU  0 instructions:   51000000 cycles:  294011657 heartbeat IPC: 0.18605 cumulative IPC: 0.14640 (Simulation time: 0 hr 1 min 32 sec) 
Heartbeat CPU  0 instructions:   52000000 cycles:  299464337 heartbeat IPC: 0.18340 cumulative IPC: 0.14711 (Simulation time: 0 hr 1 min 33 sec) 
Heartbeat CPU  0 instructions:   53000000 cycles:  304844714 heartbeat IPC: 0.18586 cumulative IPC: 0.14783 (Simulation time: 0 hr 1 min 35 sec) 
Heartbeat CPU  0 instructions:   54000000 cycles:  310187315 heartbeat IPC: 0.18717 cumulative IPC: 0.14854 (Simulation time: 0 hr 1 min 36 sec) 
Heartbeat CPU  0 instructions:   55000002 cycles:  315367775 heartbeat IPC: 0.19303 cumulative IPC: 0.14930 (Simulation time: 0 hr 1 min 38 sec) 
Heartbeat CPU  0 instructions:   56000000 cycles:  320422265 heartbeat IPC: 0.19784 cumulative IPC: 0.15010 (Simulation time: 0 hr 1 min 40 sec) 
Heartbeat CPU  0 instructions:   57000002 cycles:  325442530 heartbeat IPC: 0.19919 cumulative IPC: 0.15089 (Simulation time: 0 hr 1 min 41 sec) 
Heartbeat CPU  0 instructions:   58000002 cycles:  330427993 heartbeat IPC: 0.20058 cumulative IPC: 0.15168 (Simulation time: 0 hr 1 min 43 sec) 
Heartbeat CPU  0 instructions:   59000000 cycles:  335439968 heartbeat IPC: 0.19952 cumulative IPC: 0.15242 (Simulation time: 0 hr 1 min 44 sec) 
Heartbeat CPU  0 instructions:   60000000 cycles:  336713400 heartbeat IPC: 0.78528 cumulative IPC: 0.15492 (Simulation time: 0 hr 1 min 46 sec) 
Finished CPU 0 instructions: 50000002 cycles: 322750660 cumulative IPC: 0.15492 (Simulation time: 0 hr 1 min 46 sec) 

ChampSim completed all CPUs

[ROI Statistics]
Core_0_instructions 50000002
Core_0_cycles 322750660
Core_0_IPC 0.15492

Core_0_branch_prediction_accuracy 78.84127
Core_0_branch_MPKI 43.90428
Core_0_average_ROB_occupancy_at_mispredict 22.16417

Core_0_L1D_total_access 11923628
Core_0_L1D_total_hit 10089287
Core_0_L1D_total_miss 1834341
Core_0_L1D_loads 10562247
Core_0_L1D_load_hit 8742075
Core_0_L1D_load_miss 1820172
Core_0_L1D_RFOs 1361381
Core_0_L1D_RFO_hit 1347212
Core_0_L1D_RFO_miss 14169
Core_0_L1D_prefetches 0
Core_0_L1D_prefetch_hit 0
Core_0_L1D_prefetch_miss 0
Core_0_L1D_writebacks 0
Core_0_L1D_writeback_hit 0
Core_0_L1D_writeback_miss 0
Core_0_L1D_prefetch_requested 0
Core_0_L1D_prefetch_dropped 0
Core_0_L1D_prefetch_issued 0
Core_0_L1D_prefetch_filled 0
Core_0_L1D_prefetch_useful 0
Core_0_L1D_prefetch_useless 0
Core_0_L1D_prefetch_late 0
Core_0_L1D_average_miss_latency 109.28998

Core_0_L1D_rq_access 13665324
Core_0_L1D_rq_forward 0
Core_0_L1D_rq_merged 2970598
Core_0_L1D_rq_to_cache 10694726
Core_0_L1D_rq_full 0

Core_0_L1D_wq_access 1400936
Core_0_L1D_wq_forward 0
Core_0_L1D_wq_merged 2044
Core_0_L1D_wq_to_cache 1398892
Core_0_L1D_wq_full 200791

Core_0_L1D_pq_access 0
Core_0_L1D_pq_forward 0
Core_0_L1D_pq_merged 0
Core_0_L1D_pq_to_cache 0
Core_0_L1D_pq_full 0

Core_0_L1D_acc_epochs 323380
Core_0_L1D_acc_level_0 323380
Core_0_L1D_acc_level_1 0
Core_0_L1D_acc_level_2 0
Core_0_L1D_acc_level_3 0
Core_0_L1D_acc_level_4 0
Core_0_L1D_acc_level_5 0
Core_0_L1D_acc_level_6 0
Core_0_L1D_acc_level_7 0
Core_0_L1D_acc_level_8 0
Core_0_L1D_acc_level_9 0

Core_0_L1I_total_access 10546338
Core_0_L1I_total_hit 10546296
Core_0_L1I_total_miss 42
Core_0_L1I_loads 10546338
Core_0_L1I_load_hit 10546296
Core_0_L1I_load_miss 42
Core_0_L1I_RFOs 0
Core_0_L1I_RFO_hit 0
Core_0_L1I_RFO_miss 0
Core_0_L1I_prefetches 0
Core_0_L1I_prefetch_hit 0
Core_0_L1I_prefetch_miss 0
Core_0_L1I_writebacks 0
Core_0_L1I_writeback_hit 0
Core_0_L1I_writeback_miss 0
Core_0_L1I_prefetch_requested 0
Core_0_L1I_prefetch_dropped 0
Core_0_L1I_prefetch_issued 0
Core_0_L1I_prefetch_filled 0
Core_0_L1I_prefetch_useful 0
Core_0_L1I_prefetch_useless 0
Core_0_L1I_prefetch_late 0
Core_0_L1I_average_miss_latency 307.57143

Core_0_L1I_rq_access 50000224
Core_0_L1I_rq_forward 0
Core_0_L1I_rq_merged 39453876
Core_0_L1I_rq_to_cache 10546348
Core_0_L1I_rq_full 0

Core_0_L1I_wq_access 0
Core_0_L1I_wq_forward 0
Core_0_L1I_wq_merged 0
Core_0_L1I_wq_to_cache 0
Core_0_L1I_wq_full 0

Core_0_L1I_pq_access 0
Core_0_L1I_pq_forward 0
Core_0_L1I_pq_merged 0
Core_0_L1I_pq_to_cache 0
Core_0_L1I_pq_full 0

Core_0_L1I_acc_epochs 323380
Core_0_L1I_acc_level_0 323380
Core_0_L1I_acc_level_1 0
Core_0_L1I_acc_level_2 0
Core_0_L1I_acc_level_3 0
Core_0_L1I_acc_level_4 0
Core_0_L1I_acc_level_5 0
Core_0_L1I_acc_level_6 0
Core_0_L1I_acc_level_7 0
Core_0_L1I_acc_level_8 0
Core_0_L1I_acc_level_9 0

Core_0_L2C_total_access 1994806
Core_0_L2C_total_hit 798428
Core_0_L2C_total_miss 1196378
Core_0_L2C_loads 1820214
Core_0_L2C_load_hit 635896
Core_0_L2C_load_miss 1184318
Core_0_L2C_RFOs 14169
Core_0_L2C_RFO_hit 2115
Core_0_L2C_RFO_miss 12054
Core_0_L2C_prefetches 0
Core_0_L2C_prefetch_hit 0
Core_0_L2C_prefetch_miss 0
Core_0_L2C_writebacks 160423
Core_0_L2C_writeback_hit 160417
Core_0_L2C_writeback_miss 6
Core_0_L2C_prefetch_requested 0
Core_0_L2C_prefetch_dropped 0
Core_0_L2C_prefetch_issued 0
Core_0_L2C_prefetch_filled 0
Core_0_L2C_prefetch_useful 0
Core_0_L2C_prefetch_useless 0
Core_0_L2C_prefetch_late 0
Core_0_L2C_average_miss_latency 145.90455

Core_0_L2C_rq_access 1834383
Core_0_L2C_rq_forward 0
Core_0_L2C_rq_merged 0
Core_0_L2C_rq_to_cache 1834383
Core_0_L2C_rq_full 0

Core_0_L2C_wq_access 160423
Core_0_L2C_wq_forward 0
Core_0_L2C_wq_merged 0
Core_0_L2C_wq_to_cache 160423
Core_0_L2C_wq_full 0

Core_0_L2C_pq_access 0
Core_0_L2C_pq_forward 0
Core_0_L2C_pq_merged 0
Core_0_L2C_pq_to_cache 0
Core_0_L2C_pq_full 0

Core_0_L2C_acc_epochs 323380
Core_0_L2C_acc_level_0 323380
Core_0_L2C_acc_level_1 0
Core_0_L2C_acc_level_2 0
Core_0_L2C_acc_level_3 0
Core_0_L2C_acc_level_4 0
Core_0_L2C_acc_level_5 0
Core_0_L2C_acc_level_6 0
Core_0_L2C_acc_level_7 0
Core_0_L2C_acc_level_8 0
Core_0_L2C_acc_level_9 0

Core_0_LLC_total_access 1353516
Core_0_LLC_total_hit 294207
Core_0_LLC_total_miss 1059309
Core_0_LLC_loads 1184318
Core_0_LLC_load_hit 218988
Core_0_LLC_load_miss 965330
Core_0_LLC_RFOs 12054
Core_0_LLC_RFO_hit 3787
Core_0_LLC_RFO_miss 8267
Core_0_LLC_prefetches 0
Core_0_LLC_prefetch_hit 0
Core_0_LLC_prefetch_miss 0
Core_0_LLC_writebacks 157144
Core_0_LLC_writeback_hit 71432
Core_0_LLC_writeback_miss 85712
Core_0_LLC_prefetch_requested 0
Core_0_LLC_prefetch_dropped 0
Core_0_LLC_prefetch_issued 0
Core_0_LLC_prefetch_filled 0
Core_0_LLC_prefetch_useful 0
Core_0_LLC_prefetch_useless 0
Core_0_LLC_prefetch_late 0
Core_0_LLC_average_miss_latency 130.83398

Core_0_LLC_rq_access 1196372
Core_0_LLC_rq_forward 0
Core_0_LLC_rq_merged 0
Core_0_LLC_rq_to_cache 1196372
Core_0_LLC_rq_full 0

Core_0_LLC_wq_access 157144
Core_0_LLC_wq_forward 0
Core_0_LLC_wq_merged 0
Core_0_LLC_wq_to_cache 157144
Core_0_LLC_wq_full 0

Core_0_LLC_pq_access 0
Core_0_LLC_pq_forward 0
Core_0_LLC_pq_merged 0
Core_0_LLC_pq_to_cache 0
Core_0_LLC_pq_full 0

Core_0_LLC_acc_epochs 328822
Core_0_LLC_acc_level_0 328822
Core_0_LLC_acc_level_1 0
Core_0_LLC_acc_level_2 0
Core_0_LLC_acc_level_3 0
Core_0_LLC_acc_level_4 0
Core_0_LLC_acc_level_5 0
Core_0_LLC_acc_level_6 0
Core_0_LLC_acc_level_7 0
Core_0_LLC_acc_level_8 0
Core_0_LLC_acc_level_9 0

Core_0_major_page_fault 0
Core_0_minor_page_fault 26846

Channel_0_RQ_row_buffer_hit 434309
Channel_0_RQ_row_buffer_miss 539285
Channel_0_WQ_row_buffer_hit 29716
Channel_0_WQ_row_buffer_miss 102930
Channel_0_WQ_full 0
Channel_0_dbus_congested 51511

avg_congested_cycle 9

DRAM_bw_pochs 1315287
DRAM_bw_level_0 1312373
DRAM_bw_level_1 2509
DRAM_bw_level_2 336
DRAM_bw_level_3 69
