*************************************************
   ChampSim Multicore Out-of-Order Simulator
   Last compiled: Apr  3 2025 20:54:34
*************************************************
parsing config file: /home/zir/Pythia/config/mlop.ini

trace_0 /home/zir/ChampSim/ML-DPC/ChampSimTraces/gap/bfs-8.trace.gz
adding L2C_PREFETCHER: MLOP
Initialize SHIP state
warmup_instructions 10000000
simulation_instructions 50000000
champsim_seed 56
measure_ipc 0
measure_ipc_epoch 1000
measure_dram_bw 1
measure_dram_bw_epoch 256
measure_cache_acc 1
measure_cache_acc_epoch 1024
l1d_perfect 0
l2c_perfect 0
llc_perfect 0
l1d_semi_perfect 0
l2c_semi_perfect 0
llc_semi_perfect 0
semi_perfect_cache_page_buffer_size 64

num_cpus 1
cpu_freq 4000
dram_io_freq 2400
page_size 4096
block_size 64
max_read_per_cycle 8
max_fill_per_cycle 1
dram_channels 1
log2_dram_channels 0
dram_ranks 1
dram_banks 8
dram_rows 65536
dram_columns 128
dram_row_size 8
dram_size 4096
dram_pages 1048576

fetch_width 6
decode_width 6
exec_width 4
lq_width 2
sq_width 2
retire_width 4
scheduler_size 128
branch_mispredict_penalty 20
rob_size 256
lq_size 72
sq_size 56
num_instr_destinations_sparc 4
num_instr_destinations 2
num_instr_sources 4

itlb_set 16
itlb_way 8
itlb_rq_size 16
itlb_wq_size 16
itlb_pq_size 0
itlb_mshr_size 8
itlb_latency 1

dtlb_set 16
dtlb_way 4
dtlb_rq_size 16
dtlb_wq_size 16
dtlb_pq_size 0
dtlb_mshr_size 8
dtlb_latency 1

stlb_set 128
stlb_way 12
stlb_rq_size 32
stlb_wq_size 32
stlb_pq_size 0
stlb_mshr_size 16
stlb_latency 8

l1i_size 32
l1i_set 64
l1i_way 8
l1i_rq_size 64
l1i_wq_size 64
l1i_pq_size 8
l1i_mshr_size 8
l1i_latency 1

l1d_size 32
l1d_set 64
l1d_way 8
l1d_rq_size 64
l1d_wq_size 64
l1d_pq_size 8
l1d_mshr_size 16
l1d_latency 4

l2c_size 256
l2c_set 512
l2c_way 8
l2c_rq_size 32
l2c_wq_size 32
l2c_pq_size 32
l2c_mshr_size 32
l2c_latency 10

llc_size 2048
llc_set 2048
llc_way 16
llc_rq_size 32
llc_wq_size 32
llc_pq_size 32
llc_mshr_size 64
llc_latency 20

dram_channel_width 8
dram_wq_size 64
dram_rq_size 64
tRP 15
tRCD 15
tCAS 12.5
dram_dbus_turn_around_time 30
dram_write_high_wm 56
dram_write_low_wm 48
min_dram_writes_per_switch 16
dram_mtps 2400
dram_dbus_return_time 13

mlop_pref_degree 16
mlop_num_updates 500
mlop_l1d_thresh 2
mlop_l2c_thresh 0.75
mlop_llc_thresh 0.3
mlop_debug_level 0
mlop_blocks_in_cache 4096
mlop_blocks_in_zone 64
mlop_amt_size 2048
mlop_PF_DEGREE 16
mlop_NUM_UPDATES 500
mlop_L1D_THRESH 1000
mlop_L2C_THRESH 375
mlop_LLC_THRESH 150
mlop_ORIGIN 63
mlop_MAX_OFFSET 63
mlop_MIN_OFFSET -63
mlop_ORIGIN 63
mlop_NUM_OFFSETS 127


Heartbeat CPU  0 instructions:    1000000 cycles:    1373453 heartbeat IPC: 0.72809 cumulative IPC: 0.72809 (Simulation time: 0 hr 0 min 1 sec) 
Heartbeat CPU  0 instructions:    2000002 cycles:    2744840 heartbeat IPC: 0.72919 cumulative IPC: 0.72864 (Simulation time: 0 hr 0 min 2 sec) 
Heartbeat CPU  0 instructions:    3000000 cycles:    4113344 heartbeat IPC: 0.73072 cumulative IPC: 0.72933 (Simulation time: 0 hr 0 min 3 sec) 
Heartbeat CPU  0 instructions:    4000000 cycles:    5492528 heartbeat IPC: 0.72507 cumulative IPC: 0.72826 (Simulation time: 0 hr 0 min 4 sec) 
Heartbeat CPU  0 instructions:    5000000 cycles:    6866210 heartbeat IPC: 0.72797 cumulative IPC: 0.72820 (Simulation time: 0 hr 0 min 4 sec) 
Heartbeat CPU  0 instructions:    6000001 cycles:    8239862 heartbeat IPC: 0.72799 cumulative IPC: 0.72817 (Simulation time: 0 hr 0 min 5 sec) 
Heartbeat CPU  0 instructions:    7000000 cycles:    9608580 heartbeat IPC: 0.73061 cumulative IPC: 0.72852 (Simulation time: 0 hr 0 min 6 sec) 
Heartbeat CPU  0 instructions:    8000000 cycles:   10980333 heartbeat IPC: 0.72899 cumulative IPC: 0.72858 (Simulation time: 0 hr 0 min 7 sec) 
Heartbeat CPU  0 instructions:    9000001 cycles:   12361546 heartbeat IPC: 0.72400 cumulative IPC: 0.72806 (Simulation time: 0 hr 0 min 8 sec) 
Heartbeat CPU  0 instructions:   10000001 cycles:   13740066 heartbeat IPC: 0.72542 cumulative IPC: 0.72780 (Simulation time: 0 hr 0 min 8 sec) 

Warmup complete CPU  0 instructions:   10000001 cycles:   13740066 (Simulation time: 0 hr 0 min 8 sec) 

Heartbeat CPU  0 instructions:   11000002 cycles:   18522581 heartbeat IPC: 0.20910 cumulative IPC: 0.20910 (Simulation time: 0 hr 0 min 11 sec) 
Heartbeat CPU  0 instructions:   12000000 cycles:   25275971 heartbeat IPC: 0.14807 cumulative IPC: 0.17337 (Simulation time: 0 hr 0 min 13 sec) 
Heartbeat CPU  0 instructions:   13000000 cycles:   27961315 heartbeat IPC: 0.37239 cumulative IPC: 0.21095 (Simulation time: 0 hr 0 min 15 sec) 
Heartbeat CPU  0 instructions:   14000001 cycles:   31927510 heartbeat IPC: 0.25213 cumulative IPC: 0.21993 (Simulation time: 0 hr 0 min 17 sec) 
Heartbeat CPU  0 instructions:   15000000 cycles:   35503072 heartbeat IPC: 0.27968 cumulative IPC: 0.22975 (Simulation time: 0 hr 0 min 19 sec) 
Heartbeat CPU  0 instructions:   16000000 cycles:   39032114 heartbeat IPC: 0.28336 cumulative IPC: 0.23723 (Simulation time: 0 hr 0 min 21 sec) 
Heartbeat CPU  0 instructions:   17000001 cycles:   42554951 heartbeat IPC: 0.28386 cumulative IPC: 0.24293 (Simulation time: 0 hr 0 min 23 sec) 
Heartbeat CPU  0 instructions:   18000003 cycles:   46122176 heartbeat IPC: 0.28033 cumulative IPC: 0.24705 (Simulation time: 0 hr 0 min 25 sec) 
Heartbeat CPU  0 instructions:   19000001 cycles:   49688377 heartbeat IPC: 0.28041 cumulative IPC: 0.25036 (Simulation time: 0 hr 0 min 27 sec) 
Heartbeat CPU  0 instructions:   20000000 cycles:   53228782 heartbeat IPC: 0.28245 cumulative IPC: 0.25324 (Simulation time: 0 hr 0 min 28 sec) 
Heartbeat CPU  0 instructions:   21000001 cycles:   56748402 heartbeat IPC: 0.28412 cumulative IPC: 0.25576 (Simulation time: 0 hr 0 min 30 sec) 
Heartbeat CPU  0 instructions:   22000001 cycles:   60292692 heartbeat IPC: 0.28214 cumulative IPC: 0.25777 (Simulation time: 0 hr 0 min 32 sec) 
Heartbeat CPU  0 instructions:   23000001 cycles:   63853506 heartbeat IPC: 0.28083 cumulative IPC: 0.25941 (Simulation time: 0 hr 0 min 34 sec) 
Heartbeat CPU  0 instructions:   24000000 cycles:   67367964 heartbeat IPC: 0.28454 cumulative IPC: 0.26106 (Simulation time: 0 hr 0 min 36 sec) 
Heartbeat CPU  0 instructions:   25000003 cycles:   70912962 heartbeat IPC: 0.28209 cumulative IPC: 0.26236 (Simulation time: 0 hr 0 min 38 sec) 
Heartbeat CPU  0 instructions:   26000000 cycles:   74468234 heartbeat IPC: 0.28127 cumulative IPC: 0.26347 (Simulation time: 0 hr 0 min 40 sec) 
Heartbeat CPU  0 instructions:   27000001 cycles:   78040748 heartbeat IPC: 0.27992 cumulative IPC: 0.26438 (Simulation time: 0 hr 0 min 42 sec) 
Heartbeat CPU  0 instructions:   28000000 cycles:   81577782 heartbeat IPC: 0.28272 cumulative IPC: 0.26534 (Simulation time: 0 hr 0 min 43 sec) 
Heartbeat CPU  0 instructions:   29000000 cycles:   85145777 heartbeat IPC: 0.28027 cumulative IPC: 0.26609 (Simulation time: 0 hr 0 min 45 sec) 
Heartbeat CPU  0 instructions:   30000001 cycles:   88651696 heartbeat IPC: 0.28523 cumulative IPC: 0.26698 (Simulation time: 0 hr 0 min 47 sec) 
Heartbeat CPU  0 instructions:   31000002 cycles:   92208956 heartbeat IPC: 0.28112 cumulative IPC: 0.26762 (Simulation time: 0 hr 0 min 49 sec) 
Heartbeat CPU  0 instructions:   32000000 cycles:   95734427 heartbeat IPC: 0.28365 cumulative IPC: 0.26831 (Simulation time: 0 hr 0 min 51 sec) 
Heartbeat CPU  0 instructions:   33000000 cycles:   99316968 heartbeat IPC: 0.27913 cumulative IPC: 0.26876 (Simulation time: 0 hr 0 min 53 sec) 
Heartbeat CPU  0 instructions:   34000000 cycles:  102857134 heartbeat IPC: 0.28247 cumulative IPC: 0.26931 (Simulation time: 0 hr 0 min 55 sec) 
Heartbeat CPU  0 instructions:   35000000 cycles:  106429197 heartbeat IPC: 0.27995 cumulative IPC: 0.26972 (Simulation time: 0 hr 0 min 56 sec) 
Heartbeat CPU  0 instructions:   36000000 cycles:  109939545 heartbeat IPC: 0.28487 cumulative IPC: 0.27027 (Simulation time: 0 hr 0 min 58 sec) 
Heartbeat CPU  0 instructions:   37000000 cycles:  113991872 heartbeat IPC: 0.24677 cumulative IPC: 0.26932 (Simulation time: 0 hr 1 min 0 sec) 
Heartbeat CPU  0 instructions:   38000002 cycles:  118299514 heartbeat IPC: 0.23215 cumulative IPC: 0.26779 (Simulation time: 0 hr 1 min 2 sec) 
Heartbeat CPU  0 instructions:   39000000 cycles:  122596316 heartbeat IPC: 0.23273 cumulative IPC: 0.26641 (Simulation time: 0 hr 1 min 4 sec) 
Heartbeat CPU  0 instructions:   40000000 cycles:  126884848 heartbeat IPC: 0.23318 cumulative IPC: 0.26515 (Simulation time: 0 hr 1 min 5 sec) 
Heartbeat CPU  0 instructions:   41000000 cycles:  131174248 heartbeat IPC: 0.23313 cumulative IPC: 0.26398 (Simulation time: 0 hr 1 min 7 sec) 
Heartbeat CPU  0 instructions:   42000000 cycles:  135453951 heartbeat IPC: 0.23366 cumulative IPC: 0.26291 (Simulation time: 0 hr 1 min 9 sec) 
Heartbeat CPU  0 instructions:   43000001 cycles:  139740658 heartbeat IPC: 0.23328 cumulative IPC: 0.26190 (Simulation time: 0 hr 1 min 10 sec) 
Heartbeat CPU  0 instructions:   44000000 cycles:  144029083 heartbeat IPC: 0.23319 cumulative IPC: 0.26096 (Simulation time: 0 hr 1 min 12 sec) 
Heartbeat CPU  0 instructions:   45000002 cycles:  148316916 heartbeat IPC: 0.23322 cumulative IPC: 0.26007 (Simulation time: 0 hr 1 min 14 sec) 
Heartbeat CPU  0 instructions:   46000000 cycles:  152579194 heartbeat IPC: 0.23462 cumulative IPC: 0.25929 (Simulation time: 0 hr 1 min 16 sec) 
Heartbeat CPU  0 instructions:   47000000 cycles:  155151525 heartbeat IPC: 0.38875 cumulative IPC: 0.26165 (Simulation time: 0 hr 1 min 17 sec) 
Heartbeat CPU  0 instructions:   48000000 cycles:  155854266 heartbeat IPC: 1.42300 cumulative IPC: 0.26739 (Simulation time: 0 hr 1 min 18 sec) 
Heartbeat CPU  0 instructions:   49000001 cycles:  156557029 heartbeat IPC: 1.42296 cumulative IPC: 0.27308 (Simulation time: 0 hr 1 min 19 sec) 
Heartbeat CPU  0 instructions:   50000000 cycles:  157259207 heartbeat IPC: 1.42414 cumulative IPC: 0.27871 (Simulation time: 0 hr 1 min 21 sec) 
Heartbeat CPU  0 instructions:   51000000 cycles:  157960303 heartbeat IPC: 1.42634 cumulative IPC: 0.28429 (Simulation time: 0 hr 1 min 22 sec) 
Heartbeat CPU  0 instructions:   52000000 cycles:  158666597 heartbeat IPC: 1.41584 cumulative IPC: 0.28980 (Simulation time: 0 hr 1 min 23 sec) 
Heartbeat CPU  0 instructions:   53000001 cycles:  159365258 heartbeat IPC: 1.43131 cumulative IPC: 0.29528 (Simulation time: 0 hr 1 min 24 sec) 
Heartbeat CPU  0 instructions:   54000002 cycles:  160066417 heartbeat IPC: 1.42621 cumulative IPC: 0.30070 (Simulation time: 0 hr 1 min 25 sec) 
Heartbeat CPU  0 instructions:   55000002 cycles:  160769894 heartbeat IPC: 1.42151 cumulative IPC: 0.30606 (Simulation time: 0 hr 1 min 26 sec) 
Heartbeat CPU  0 instructions:   56000000 cycles:  161469998 heartbeat IPC: 1.42836 cumulative IPC: 0.31138 (Simulation time: 0 hr 1 min 28 sec) 
Heartbeat CPU  0 instructions:   57000002 cycles:  162179836 heartbeat IPC: 1.40877 cumulative IPC: 0.31663 (Simulation time: 0 hr 1 min 29 sec) 
Heartbeat CPU  0 instructions:   58000003 cycles:  162876605 heartbeat IPC: 1.43520 cumulative IPC: 0.32185 (Simulation time: 0 hr 1 min 30 sec) 
Heartbeat CPU  0 instructions:   59000002 cycles:  169978191 heartbeat IPC: 0.14081 cumulative IPC: 0.31362 (Simulation time: 0 hr 1 min 33 sec) 
Heartbeat CPU  0 instructions:   60000000 cycles:  175307833 heartbeat IPC: 0.18763 cumulative IPC: 0.30947 (Simulation time: 0 hr 1 min 36 sec) 
Finished CPU 0 instructions: 50000000 cycles: 161567780 cumulative IPC: 0.30947 (Simulation time: 0 hr 1 min 36 sec) 

ChampSim completed all CPUs

[ROI Statistics]
Core_0_instructions 50000000
Core_0_cycles 161567780
Core_0_IPC 0.30947

Core_0_branch_prediction_accuracy 85.89728
Core_0_branch_MPKI 27.02096
Core_0_average_ROB_occupancy_at_mispredict 31.63228

Core_0_L1D_total_access 10310770
Core_0_L1D_total_hit 8774357
Core_0_L1D_total_miss 1536413
Core_0_L1D_loads 8785796
Core_0_L1D_load_hit 7272677
Core_0_L1D_load_miss 1513119
Core_0_L1D_RFOs 1524974
Core_0_L1D_RFO_hit 1501680
Core_0_L1D_RFO_miss 23294
Core_0_L1D_prefetches 0
Core_0_L1D_prefetch_hit 0
Core_0_L1D_prefetch_miss 0
Core_0_L1D_writebacks 0
Core_0_L1D_writeback_hit 0
Core_0_L1D_writeback_miss 0
Core_0_L1D_prefetch_requested 0
Core_0_L1D_prefetch_dropped 0
Core_0_L1D_prefetch_issued 0
Core_0_L1D_prefetch_filled 0
Core_0_L1D_prefetch_useful 0
Core_0_L1D_prefetch_useless 0
Core_0_L1D_prefetch_late 0
Core_0_L1D_average_miss_latency 60.62339

Core_0_L1D_rq_access 12862593
Core_0_L1D_rq_forward 0
Core_0_L1D_rq_merged 3899550
Core_0_L1D_rq_to_cache 8963043
Core_0_L1D_rq_full 0

Core_0_L1D_wq_access 1593513
Core_0_L1D_wq_forward 0
Core_0_L1D_wq_merged 7669
Core_0_L1D_wq_to_cache 1585844
Core_0_L1D_wq_full 235192

Core_0_L1D_pq_access 0
Core_0_L1D_pq_forward 0
Core_0_L1D_pq_merged 0
Core_0_L1D_pq_to_cache 0
Core_0_L1D_pq_full 0

Core_0_L1D_acc_epochs 163905
Core_0_L1D_acc_level_0 163905
Core_0_L1D_acc_level_1 0
Core_0_L1D_acc_level_2 0
Core_0_L1D_acc_level_3 0
Core_0_L1D_acc_level_4 0
Core_0_L1D_acc_level_5 0
Core_0_L1D_acc_level_6 0
Core_0_L1D_acc_level_7 0
Core_0_L1D_acc_level_8 0
Core_0_L1D_acc_level_9 0

Core_0_L1I_total_access 10589830
Core_0_L1I_total_hit 10589783
Core_0_L1I_total_miss 47
Core_0_L1I_loads 10589830
Core_0_L1I_load_hit 10589783
Core_0_L1I_load_miss 47
Core_0_L1I_RFOs 0
Core_0_L1I_RFO_hit 0
Core_0_L1I_RFO_miss 0
Core_0_L1I_prefetches 0
Core_0_L1I_prefetch_hit 0
Core_0_L1I_prefetch_miss 0
Core_0_L1I_writebacks 0
Core_0_L1I_writeback_hit 0
Core_0_L1I_writeback_miss 0
Core_0_L1I_prefetch_requested 0
Core_0_L1I_prefetch_dropped 0
Core_0_L1I_prefetch_issued 0
Core_0_L1I_prefetch_filled 0
Core_0_L1I_prefetch_useful 0
Core_0_L1I_prefetch_useless 0
Core_0_L1I_prefetch_late 0
Core_0_L1I_average_miss_latency 271.95745

Core_0_L1I_rq_access 50000243
Core_0_L1I_rq_forward 0
Core_0_L1I_rq_merged 39410398
Core_0_L1I_rq_to_cache 10589845
Core_0_L1I_rq_full 0

Core_0_L1I_wq_access 0
Core_0_L1I_wq_forward 0
Core_0_L1I_wq_merged 0
Core_0_L1I_wq_to_cache 0
Core_0_L1I_wq_full 0

Core_0_L1I_pq_access 0
Core_0_L1I_pq_forward 0
Core_0_L1I_pq_merged 0
Core_0_L1I_pq_to_cache 0
Core_0_L1I_pq_full 0

Core_0_L1I_acc_epochs 163905
Core_0_L1I_acc_level_0 163905
Core_0_L1I_acc_level_1 0
Core_0_L1I_acc_level_2 0
Core_0_L1I_acc_level_3 0
Core_0_L1I_acc_level_4 0
Core_0_L1I_acc_level_5 0
Core_0_L1I_acc_level_6 0
Core_0_L1I_acc_level_7 0
Core_0_L1I_acc_level_8 0
Core_0_L1I_acc_level_9 0

Core_0_L2C_total_access 2530817
Core_0_L2C_total_hit 1082879
Core_0_L2C_total_miss 1447938
Core_0_L2C_loads 1513163
Core_0_L2C_load_hit 863816
Core_0_L2C_load_miss 649347
Core_0_L2C_RFOs 23294
Core_0_L2C_RFO_hit 2720
Core_0_L2C_RFO_miss 20574
Core_0_L2C_prefetches 779652
Core_0_L2C_prefetch_hit 1804
Core_0_L2C_prefetch_miss 777848
Core_0_L2C_writebacks 214708
Core_0_L2C_writeback_hit 214539
Core_0_L2C_writeback_miss 169
Core_0_L2C_prefetch_requested 2518996
Core_0_L2C_prefetch_dropped 0
Core_0_L2C_prefetch_issued 2518996
Core_0_L2C_prefetch_filled 902443
Core_0_L2C_prefetch_useful 591372
Core_0_L2C_prefetch_useless 311055
Core_0_L2C_prefetch_late 9475
Core_0_L2C_average_miss_latency 91.28416

Core_0_L2C_rq_access 1536460
Core_0_L2C_rq_forward 0
Core_0_L2C_rq_merged 0
Core_0_L2C_rq_to_cache 1536457
Core_0_L2C_rq_full 0

Core_0_L2C_wq_access 214708
Core_0_L2C_wq_forward 3
Core_0_L2C_wq_merged 0
Core_0_L2C_wq_to_cache 214708
Core_0_L2C_wq_full 0

Core_0_L2C_pq_access 2518996
Core_0_L2C_pq_forward 0
Core_0_L2C_pq_merged 2313
Core_0_L2C_pq_to_cache 2516683
Core_0_L2C_pq_full 0

Core_0_L2C_acc_epochs 163905
Core_0_L2C_acc_level_0 48771
Core_0_L2C_acc_level_1 1859
Core_0_L2C_acc_level_2 2196
Core_0_L2C_acc_level_3 3643
Core_0_L2C_acc_level_4 10556
Core_0_L2C_acc_level_5 20699
Core_0_L2C_acc_level_6 25610
Core_0_L2C_acc_level_7 22006
Core_0_L2C_acc_level_8 12703
Core_0_L2C_acc_level_9 15862

Core_0_LLC_total_access 3216873
Core_0_LLC_total_hit 1261167
Core_0_LLC_total_miss 1955706
Core_0_LLC_loads 639883
Core_0_LLC_load_hit 402183
Core_0_LLC_load_miss 237700
Core_0_LLC_RFOs 20563
Core_0_LLC_RFO_hit 3639
Core_0_LLC_RFO_miss 16924
Core_0_LLC_prefetches 2369329
Core_0_LLC_prefetch_hit 681680
Core_0_LLC_prefetch_miss 1687649
Core_0_LLC_writebacks 187098
Core_0_LLC_writeback_hit 173665
Core_0_LLC_writeback_miss 13433
Core_0_LLC_prefetch_requested 0
Core_0_LLC_prefetch_dropped 0
Core_0_LLC_prefetch_issued 0
Core_0_LLC_prefetch_filled 1812244
Core_0_LLC_prefetch_useful 213014
Core_0_LLC_prefetch_useless 1588594
Core_0_LLC_prefetch_late 3645
Core_0_LLC_average_miss_latency 179.67519

Core_0_LLC_rq_access 660446
Core_0_LLC_rq_forward 0
Core_0_LLC_rq_merged 0
Core_0_LLC_rq_to_cache 660446
Core_0_LLC_rq_full 0

Core_0_LLC_wq_access 187098
Core_0_LLC_wq_forward 0
Core_0_LLC_wq_merged 0
Core_0_LLC_wq_to_cache 187098
Core_0_LLC_wq_full 0

Core_0_LLC_pq_access 2501640
Core_0_LLC_pq_forward 0
Core_0_LLC_pq_merged 430
Core_0_LLC_pq_to_cache 2501210
Core_0_LLC_pq_full 0

Core_0_LLC_acc_epochs 171200
Core_0_LLC_acc_level_0 107811
Core_0_LLC_acc_level_1 23915
Core_0_LLC_acc_level_2 9544
Core_0_LLC_acc_level_3 7074
Core_0_LLC_acc_level_4 5194
Core_0_LLC_acc_level_5 5013
Core_0_LLC_acc_level_6 3432
Core_0_LLC_acc_level_7 2288
Core_0_LLC_acc_level_8 1595
Core_0_LLC_acc_level_9 5334

Core_0_major_page_fault 0
Core_0_minor_page_fault 26900

[MLOP] History of tracked zone:
IIIIIIIIIIIIIIIIIIIIIIIIIIIIIIIIIIIIIIIIIIIIIIIIIIIIIIIIIIIIIIII
A2222222222222222IIIIIIIIIIIIIIIIIIIIIIIIIIIIIIIIIIIIIIIIIIIIIII
AA2222222222222222IIIIIIIIIIIIIIIIIIIIIIIIIIIIIIIIIIIIIIIIIIIIII
AAA2222222222222222IIIIIIIIIIIIIIIIIIIIIIIIIIIIIIIIIIIIIIIIIIIII
AAAA2222222222222222IIIIIIIIIIIIIIIIIIIIIIIIIIIIIIIIIIIIIIIIIIII
AAAAA2222222222222222IIIIIIIIIIIIIIIIIIIIIIIIIIIIIIIIIIIIIIIIIII
AAAAAA2222222222222222IIIIIIIIIIIIIIIIIIIIIIIIIIIIIIIIIIIIIIIIII
AAAAAAA2222222222222222IIIIIIIIIIIIIIIIIIIIIIIIIIIIIIIIIIIIIIIII
AAAAAAAA2222222222222222IIIIIIIIIIIIIIIIIIIIIIIIIIIIIIIIIIIIIIII
AAAAAAAAA2222222222222222IIIIIIIIIIIIIIIIIIIIIIIIIIIIIIIIIIIIIII
AAAAAAAAAA2222222222222222IIIIIIIIIIIIIIIIIIIIIIIIIIIIIIIIIIIIII
AAAAAAAAAAA2222222222222222IIIIIIIIIIIIIIIIIIIIIIIIIIIIIIIIIIIII
AAAAAAAAAAAA2222222222222222IIIIIIIIIIIIIIIIIIIIIIIIIIIIIIIIIIII
AAAAAAAAAAAAA2222222222222222IIIIIIIIIIIIIIIIIIIIIIIIIIIIIIIIIII
AAAAAAAAAAAAAA2222222222222222IIIIIIIIIIIIIIIIIIIIIIIIIIIIIIIIII
AAAAAAAAAAAAAAA2222222222222222IIIIIIIIIIIIIIIIIIIIIIIIIIIIIIIII
AAAAAAAAAAAAAAAA2222222222222222IIIIIIIIIIIIIIIIIIIIIIIIIIIIIIII
AAAAAAAAAAAAAAAAA2222222222222222IIIIIIIIIIIIIIIIIIIIIIIIIIIIIII
AAAAAAAAAAAAAAAAAA2222222222222222IIIIIIIIIIIIIIIIIIIIIIIIIIIIII
AAAAAAAAAAAAAAAAAAA2222222222222222IIIIIIIIIIIIIIIIIIIIIIIIIIIII
AAAAAAAAAAAAAAAAAAAA2222222222222222IIIIIIIIIIIIIIIIIIIIIIIIIIII
AAAAAAAAAAAAAAAAAAAAA2222222222222222IIIIIIIIIIIIIIIIIIIIIIIIIII
AAAAAAAAAAAAAAAAAAAAAA2222222222222222IIIIIIIIIIIIIIIIIIIIIIIIII
AAAAAAAAAAAAAAAAAAAAAAA2222222222222222IIIIIIIIIIIIIIIIIIIIIIIII
AAAAAAAAAAAAAAAAAAAAAAAA2222222222222222IIIIIIIIIIIIIIIIIIIIIIII
AAAAAAAAAAAAAAAAAAAAAAAAA2222222222222222IIIIIIIIIIIIIIIIIIIIIII
AAAAAAAAAAAAAAAAAAAAAAAAAA2222222222222222IIIIIIIIIIIIIIIIIIIIII
AAAAAAAAAAAAAAAAAAAAAAAAAAA2222222222222222IIIIIIIIIIIIIIIIIIIII
AAAAAAAAAAAAAAAAAAAAAAAAAAAA2222222222222222IIIIIIIIIIIIIIIIIIII
AAAAAAAAAAAAAAAAAAAAAAAAAAAAA2222222222222222IIIIIIIIIIIIIIIIIII
AAAAAAAAAAAAAAAAAAAAAAAAAAAAAA2222222222222222IIIIIIIIIIIIIIIIII
AAAAAAAAAAAAAAAAAAAAAAAAAAAAAAA2222222222222222IIIIIIIIIIIIIIIII
AAAAAAAAAAAAAAAAAAAAAAAAAAAAAAAA2222222222222222IIIIIIIIIIIIIIII
AAAAAAAAAAAAAAAAAAAAAAAAAAAAAAAAA2222222222222222IIIIIIIIIIIIIII
AAAAAAAAAAAAAAAAAAAAAAAAAAAAAAAAAA2222222222222222IIIIIIIIIIIIII
AAAAAAAAAAAAAAAAAAAAAAAAAAAAAAAAAAA2222222222222222IIIIIIIIIIIII
AAAAAAAAAAAAAAAAAAAAAAAAAAAAAAAAAAAA2222222222222222IIIIIIIIIIII
AAAAAAAAAAAAAAAAAAAAAAAAAAAAAAAAAAAAA2222222222222222IIIIIIIIIII
AAAAAAAAAAAAAAAAAAAAAAAAAAAAAAAAAAAAAA2222222222222222IIIIIIIIII
AAAAAAAAAAAAAAAAAAAAAAAAAAAAAAAAAAAAAAA2222222222222222IIIIIIIII
AAAAAAAAAAAAAAAAAAAAAAAAAAAAAAAAAAAAAAAA2222222222222222IIIIIIII
AAAAAAAAAAAAAAAAAAAAAAAAAAAAAAAAAAAAAAAAA2222222222222222IIIIIII
AAAAAAAAAAAAAAAAAAAAAAAAAAAAAAAAAAAAAAAAAA2222222222222222IIIIII
AAAAAAAAAAAAAAAAAAAAAAAAAAAAAAAAAAAAAAAAAAA2222222222222222IIIII
AAAAAAAAAAAAAAAAAAAAAAAAAAAAAAAAAAAAAAAAAAAA2222222222222222IIII
AAAAAAAAAAAAAAAAAAAAAAAAAAAAAAAAAAAAAAAAAAAAA2222222222222222III
AAAAAAAAAAAAAAAAAAAAAAAAAAAAAAAAAAAAAAAAAAAAAA2222222222222222II
AAAAAAAAAAAAAAAAAAAAAAAAAAAAAAAAAAAAAAAAAAAAAAA2222222222222222I
AAAAAAAAAAAAAAAAAAAAAAAAAAAAAAAAAAAAAAAAAAAAAAAA2222222222222222
AAAAAAAAAAAAAAAAAAAAAAAAAAAAAAAAAAAAAAAAAAAAAAAAA222222222222222
AAAAAAAAAAAAAAAAAAAAAAAAAAAAAAAAAAAAAAAAAAAAAAAAAA22222222222222
AAAAAAAAAAAAAAAAAAAAAAAAAAAAAAAAAAAAAAAAAAAAAAAAAAA2222222222222
AAAAAAAAAAAAAAAAAAAAAAAAAAAAAAAAAAAAAAAAAAAAAAAAAAAA222222222222
AAAAAAAAAAAAAAAAAAAAAAAAAAAAAAAAAAAAAAAAAAAAAAAAAAAAA22222222222
AAAAAAAAAAAAAAAAAAAAAAAAAAAAAAAAAAAAAAAAAAAAAAAAAAAAAA2222222222
AAAAAAAAAAAAAAAAAAAAAAAAAAAAAAAAAAAAAAAAAAAAAAAAAAAAAAA222222222
AAAAAAAAAAAAAAAAAAAAAAAAAAAAAAAAAAAAAAAAAAAAAAAAAAAAAAAA22222222
AAAAAAAAAAAAAAAAAAAAAAAAAAAAAAAAAAAAAAAAAAAAAAAAAAAAAAAAA2222222
AAAAAAAAAAAAAAAAAAAAAAAAAAAAAAAAAAAAAAAAAAAAAAAAAAAAAAAAAA222222
AAAAAAAAAAAAAAAAAAAAAAAAAAAAAAAAAAAAAAAAAAAAAAAAAAAAAAAAAAA22222
AAAAAAAAAAAAAAAAAAAAAAAAAAAAAAAAAAAAAAAAAAAAAAAAAAAAAAAAAAAA2222
AAAAAAAAAAAAAAAAAAAAAAAAAAAAAAAAAAAAAAAAAAAAAAAAAAAAAAAAAAAAA222
AAAAAAAAAAAAAAAAAAAAAAAAAAAAAAAAAAAAAAAAAAAAAAAAAAAAAAAAAAAAAA22
AAAAAAAAAAAAAAAAAAAAAAAAAAAAAAAAAAAAAAAAAAAAAAAAAAAAAAAAAAAAAAA2
AAAAAAAAAAAAAAAAAAAAAAAAAAAAAAAAAAAAAAAAAAAAAAAAAAAAAAAAAAAAAAAA
AIAAAAAAAAAAAAAAAAAAAAAAAAAAAAAAAAAAAAAAAAAAAAAAAAAAAAAAAAAAAAAA
AIIAAAAAAAAAAAAAAAAAAAAAAAAAAAAAAAAAAAAAAAAAAAAAAAAAAAAAAAAAAAAA
AIIIAAAAAAAAAAAAAAAAAAAAAAAAAAAAAAAAAAAAAAAAAAAAAAAAAAAAAAAAAAAA
AIIIIAAAAAAAAAAAAAAAAAAAAAAAAAAAAAAAAAAAAAAAAAAAAAAAAAAAAAAAAAAA
AIIIIIAAAAAAAAAAAAAAAAAAAAAAAAAAAAAAAAAAAAAAAAAAAAAAAAAAAAAAAAAA
AIIIIIIAAAAAAAAAAAAAAAAAAAAAAAAAAAAAAAAAAAAAAAAAAAAAAAAAAAAAAAAA
AIIIIIIIAAAAAAAAAAAAAAAAAAAAAAAAAAAAAAAAAAAAAAAAAAAAAAAAAAAAAAAA
AIIIIIIIIAAAAAAAAAAAAAAAAAAAAAAAAAAAAAAAAAAAAAAAAAAAAAAAAAAAAAAA
AIIIIIIIIIAAAAAAAAAAAAAAAAAAAAAAAAAAAAAAAAAAAAAAAAAAAAAAAAAAAAAA
AIIIIIIIIIIAAAAAAAAAAAAAAAAAAAAAAAAAAAAAAAAAAAAAAAAAAAAAAAAAAAAA
AIIIIIIIIIIIAAAAAAAAAAAAAAAAAAAAAAAAAAAAAAAAAAAAAAAAAAAAAAAAAAAA
AIIIIIIIIIIIIAAAAAAAAAAAAAAAAAAAAAAAAAAAAAAAAAAAAAAAAAAAAAAAAAAA
AIIIIIIIIIIIIIAAAAAAAAAAAAAAAAAAAAAAAAAAAAAAAAAAAAAAAAAAAAAAAAAA
AIIIIIIIIIIIIIIAAAAAAAAAAAAAAAAAAAAAAAAAAAAAAAAAAAAAAAAAAAAAAAAA
AIIIIIIIIIIIIIIIAAAAAAAAAAAAAAAAAAAAAAAAAAAAAAAAAAAAAAAAAAAAAAAA
AIIIIIIIIIIIIIIIIAAAAAAAAAAAAAAAAAAAAAAAAAAAAAAAAAAAAAAAAAAAAAAA
AIIIIIIIIIIIIIIIIIAAAAAAAAAAAAAAAAAAAAAAAAAAAAAAAAAAAAAAAAAAAAAA
AIIIIIIIIIIIIIIIIIIAAAAAAAAAAAAAAAAAAAAAAAAAAAAAAAAAAAAAAAAAAAAA
AIIIIIIIIIIIIIIIIIIIAAAAAAAAAAAAAAAAAAAAAAAAAAAAAAAAAAAAAAAAAAAA
AIIIIIIIIIIIIIIIIIIIIAAAAAAAAAAAAAAAAAAAAAAAAAAAAAAAAAAAAAAAAAAA
AIIIIIIIIIIIIIIIIIIIIIAAAAAAAAAAAAAAAAAAAAAAAAAAAAAAAAAAAAAAAAAA
AIIIIIIIIIIIIIIIIIIIIIIAAAAAAAAAAAAAAAAAAAAAAAAAAAAAAAAAAAAAAAAA
AIIIIIIIIIIIIIIIIIIIIIIIAAAAAAAAAAAAAAAAAAAAAAAAAAAAAAAAAAAAAAAA
AIIIIIIIIIIIIIIIIIIIIIIIIAAAAAAAAAAAAAAAAAAAAAAAAAAAAAAAAAAAAAAA
AIIIIIIIIIIIIIIIIIIIIIIIIIAAAAAAAAAAAAAAAAAAAAAAAAAAAAAAAAAAAAAA
AIIIIIIIIIIIIIIIIIIIIIIIIIIAAAAAAAAAAAAAAAAAAAAAAAAAAAAAAAAAAAAA
AIIIIIIIIIIIIIIIIIIIIIIIIIIIAAAAAAAAAAAAAAAAAAAAAAAAAAAAAAAAAAAA
AIIIIIIIIIIIIIIIIIIIIIIIIIIIIAAAAAAAAAAAAAAAAAAAAAAAAAAAAAAAAAAA
AIIIIIIIIIIIIIIIIIIIIIIIIIIIIIAAAAAAAAAAAAAAAAAAAAAAAAAAAAAAAAAA
AIIIIIIIIIIIIIIIIIIIIIIIIIIIIIIAAAAAAAAAAAAAAAAAAAAAAAAAAAAAAAAA
AIIIIIIIIIIIIIIIIIIIIIIIIIIIIIIIAAAAAAAAAAAAAAAAAAAAAAAAAAAAAAAA
AIIIIIIIIIIIIIIIIIIIIIIIIIIIIIIIIAAAAAAAAAAAAAAAAAAAAAAAAAAAAAAA
AIIIIIIIIIIIIIIIIIIIIIIIIIIIIIIIIIAAAAAAAAAAAAAAAAAAAAAAAAAAAAAA
AIIIIIIIIIIIIIIIIIIIIIIIIIIIIIIIIIIAAAAAAAAAAAAAAAAAAAAAAAAAAAAA
AIIIIIIIIIIIIIIIIIIIIIIIIIIIIIIIIIIIAAAAAAAAAAAAAAAAAAAAAAAAAAAA
AIIIIIIIIIIIIIIIIIIIIIIIIIIIIIIIIIIIIAAAAAAAAAAAAAAAAAAAAAAAAAAA
AIIIIIIIIIIIIIIIIIIIIIIIIIIIIIIIIIIIIIAAAAAAAAAAAAAAAAAAAAAAAAAA
AIIIIIIIIIIIIIIIIIIIIIIIIIIIIIIIIIIIIIIAAAAAAAAAAAAAAAAAAAAAAAAA
AIIIIIIIIIIIIIIIIIIIIIIIIIIIIIIIIIIIIIIIAAAAAAAAAAAAAAAAAAAAAAAA
AIIIIIIIIIIIIIIIIIIIIIIIIIIIIIIIIIIIIIIIIAAAAAAAAAAAAAAAAAAAAAAA
AIIIIIIIIIIIIIIIIIIIIIIIIIIIIIIIIIIIIIIIIIAAAAAAAAAAAAAAAAAAAAAA
AIIIIIIIIIIIIIIIIIIIIIIIIIIIIIIIIIIIIIIIIIIAAAAAAAAAAAAAAAAAAAAA
AIIIIIIIIIIIIIIIIIIIIIIIIIIIIIIIIIIIIIIIIIIIAAAAAAAAAAAAAAAAAAAA
AIIIIIIIIIIIIIIIIIIIIIIIIIIIIIIIIIIIIIIIIIIIIAAAAAAAAAAAAAAAAAAA
AIIIIIIIIIIIIIIIIIIIIIIIIIIIIIIIIIIIIIIIIIIIIIAAAAAAAAAAAAAAAAAA
AIIIIIIIIIIIIIIIIIIIIIIIIIIIIIIIIIIIIIIIIIIIIIIAAAAAAAAAAAAAAAAA
AIIIIIIIIIIIIIIIIIIIIIIIIIIIIIIIIIIIIIIIIIIIIIIIAAAAAAAAAAAAAAAA
AIIIIIIIIIIIIIIIIIIIIIIIIIIIIIIIIIIIIIIIIIIIIIIIIAAAAAAAAAAAAAAA
AIIIIIIIIIIIIIIIIIIIIIIIIIIIIIIIIIIIIIIIIIIIIIIIIIAAAAAAAAAAAAAA
AIIIIIIIIIIIIIIIIIIIIIIIIIIIIIIIIIIIIIIIIIIIIIIIIIIAAAAAAAAAAAAA
AIIIIIIIIIIIIIIIIIIIIIIIIIIIIIIIIIIIIIIIIIIIIIIIIIIIAAAAAAAAAAAA
AIIIIIIIIIIIIIIIIIIIIIIIIIIIIIIIIIIIIIIIIIIIIIIIIIIIIAAAAAAAAAAA
AIIIIIIIIIIIIIIIIIIIIIIIIIIIIIIIIIIIIIIIIIIIIIIIIIIIIIAAAAAAAAAA
AIIIIIIIIIIIIIIIIIIIIIIIIIIIIIIIIIIIIIIIIIIIIIIIIIIIIIIAAAAAAAAA
AIIIIIIIIIIIIIIIIIIIIIIIIIIIIIIIIIIIIIIIIIIIIIIIIIIIIIIIAAAAAAAA
AIIIIIIIIIIIIIIIIIIIIIIIIIIIIIIIIIIIIIIIIIIIIIIIIIIIIIIIIAAAAAAA
AIIIIIIIIIIIIIIIIIIIIIIIIIIIIIIIIIIIIIIIIIIIIIIIIIIIIIIIIIAAAAAA
AIIIIIIIIIIIIIIIIIIIIIIIIIIIIIIIIIIIIIIIIIIIIIIIIIIIIIIIIIIAAAAA
AIIIIIIIIIIIIIIIIIIIIIIIIIIIIIIIIIIIIIIIIIIIIIIIIIIIIIIIIIIIAAAA
AIIIIIIIIIIIIIIIIIIIIIIIIIIIIIIIIIIIIIIIIIIIIIIIIIIIIIIIIIIIIAAA
AIIIIIIIIIIIIIIIIIIIIIIIIIIIIIIIIIIIIIIIIIIIIIIIIIIIIIIIIIIIIIAA
AIIIIIIIIIIIIIIIIIIIIIIIIIIIIIIIIIIIIIIIIIIIIIIIIIIIIIIIIIIIIIIA
AIIIIIIIIIIIIIIIIIIIIIIIIIIIIIIIIIIIIIIIIIIIIIIIIIIIIIIIIIIIIIII
A24II444I4444I4444IIIIIIIIIIIIIIIIIIIIIIIIIIIIIIIIIIIIIIIIIIIIII
AA24I44444444444444IIIIIIIIIIIIIIIIIIIIIIIIIIIIIIIIIIIIIIIIIIIII
AAA24444444444444444IIIIIIIIIIIIIIIIIIIIIIIIIIIIIIIIIIIIIIIIIIII
AAAA24444444444444444IIIIIIIIIIIIIIIIIIIIIIIIIIIIIIIIIIIIIIIIIII
AAAAA24444444444444444IIIIIIIIIIIIIIIIIIIIIIIIIIIIIIIIIIIIIIIIII
AAAAAA24444444444444444IIIIIIIIIIIIIIIIIIIIIIIIIIIIIIIIIIIIIIIII
AAAAAAA24444444444444444IIIIIIIIIIIIIIIIIIIIIIIIIIIIIIIIIIIIIIII
AAAAAAAA24444444444444444IIIIIIIIIIIIIIIIIIIIIIIIIIIIIIIIIIIIIII
AAAAAAAAA24444444444444444IIIIIIIIIIIIIIIIIIIIIIIIIIIIIIIIIIIIII
AAAAAAAAAA24444444444444444IIIIIIIIIIIIIIIIIIIIIIIIIIIIIIIIIIIII
AAAAAAAAAAA24444444444444444IIIIIIIIIIIIIIIIIIIIIIIIIIIIIIIIIIII
AAAAAAAAAAAA24444444444444444IIIIIIIIIIIIIIIIIIIIIIIIIIIIIIIIIII
AAAAAAAAAAAAA24444444444444444IIIIIIIIIIIIIIIIIIIIIIIIIIIIIIIIII
AAAAAAAAAAAAAA24444444444444444IIIIIIIIIIIIIIIIIIIIIIIIIIIIIIIII
AAAAAAAAAAAAAAA24444444444444444IIIIIIIIIIIIIIIIIIIIIIIIIIIIIIII
AAAAAAAAAAAAAAAA24444444444444444IIIIIIIIIIIIIIIIIIIIIIIIIIIIIII
AAAAAAAAAAAAAAAAA24444444444444444IIIIIIIIIIIIIIIIIIIIIIIIIIIIII
AAAAAAAAAAAAAAAAAA24444444444444444IIIIIIIIIIIIIIIIIIIIIIIIIIIII
AAAAAAAAAAAAAAAAAAA24444444444444444IIIIIIIIIIIIIIIIIIIIIIIIIIII
AAAAAAAAAAAAAAAAAAAA2444444444444444IIIIIIIIIIIIIIIIIIIIIIIIIIII
AAAAAAAAAAAAAAAAAAAAA2444444444444444IIIIIIIIIIIIIIIIIIIIIIIIIII
AAAAAAAAAAAAAAAAAAAAAA2444444444444444IIIIIIIIIIIIIIIIIIIIIIIIII
AAAAAAAAAAAAAAAAAAAAAAA2444444444444444IIIIIIIIIIIIIIIIIIIIIIIII
AAAAAAAAAAAAAAAAAAAAAAAA2444444444444444IIIIIIIIIIIIIIIIIIIIIIII
AAAAAAAAAAAAAAAAAAAAAAAAA2444444444444444IIIIIIIIIIIIIIIIIIIIIII
AAAAAAAAAAAAAAAAAAAAAAAAAA2444444444444444IIIIIIIIIIIIIIIIIIIIII
AAAAAAAAAAAAAAAAAAAAAAAAAAA2444444444444444IIIIIIIIIIIIIIIIIIIII
AAAAAAAAAAAAAAAAAAAAAAAAAAAA2444444444444444IIIIIIIIIIIIIIIIIIII
AAAAAAAAAAAAAAAAAAAAAAAAAAAAA2444444444444444IIIIIIIIIIIIIIIIIII
AAAAAAAAAAAAAAAAAAAAAAAAAAAAAA2444444444444444IIIIIIIIIIIIIIIIII
AAAAAAAAAAAAAAAAAAAAAAAAAAAAAAA2444444444444444IIIIIIIIIIIIIIIII
AAAAAAAAAAAAAAAAAAAAAAAAAAAAAAAA2444444444444444IIIIIIIIIIIIIIII
AAAAAAAAAAAAAAAAAAAAAAAAAAAAAAAAA2444444444444444IIIIIIIIIIIIIII
AAAAAAAAAAAAAAAAAAAAAAAAAAAAAAAAAA2444444444444444IIIIIIIIIIIIII
AAAAAAAAAAAAAAAAAAAAAAAAAAAAAAAAAAA2444444444444444IIIIIIIIIIIII
AAAAAAAAAAAAAAAAAAAAAAAAAAAAAAAAAAAA2444444444444444IIIIIIIIIIII
AAAAAAAAAAAAAAAAAAAAAAAAAAAAAAAAAAAAA2444444444444444IIIIIIIIIII
AAAAAAAAAAAAAAAAAAAAAAAAAAAAAAAAAAAAAA2444444444444444IIIIIIIIII
AAAAAAAAAAAAAAAAAAAAAAAAAAAAAAAAAAAAAAA2444444444444444IIIIIIIII
AAAAAAAAAAAAAAAAAAAAAAAAAAAAAAAAAAAAAAAA2444444444444444IIIIIIII
AAAAAAAAAAAAAAAAAAAAAAAAAAAAAAAAAAAAAAAAA2444444444444444IIIIIII
AAAAAAAAAAAAAAAAAAAAAAAAAAAAAAAAAAAAAAAAAA2444444444444444IIIIII
AAAAAAAAAAAAAAAAAAAAAAAAAAAAAAAAAAAAAAAAAAA2444444444444444IIIII
AAAAAAAAAAAAAAAAAAAAAAAAAAAAAAAAAAAAAAAAAAAA2444444444444444IIII
AAAAAAAAAAAAAAAAAAAAAAAAAAAAAAAAAAAAAAAAAAAAA2444444444444444III
AAAAAAAAAAAAAAAAAAAAAAAAAAAAAAAAAAAAAAAAAAAAAA2444444444444444II
AAAAAAAAAAAAAAAAAAAAAAAAAAAAAAAAAAAAAAAAAAAAAAA2444444444444444I
AAAAAAAAAAAAAAAAAAAAAAAAAAAAAAAAAAAAAAAAAAAAAAAA2444444444444444
AAAAAAAAAAAAAAAAAAAAAAAAAAAAAAAAAAAAAAAAAAAAAAAAA244444444444444
AAAAAAAAAAAAAAAAAAAAAAAAAAAAAAAAAAAAAAAAAAAAAAAAAA24444444444444
AAAAAAAAAAAAAAAAAAAAAAAAAAAAAAAAAAAAAAAAAAAAAAAAAAA2444444444444
AAAAAAAAAAAAAAAAAAAAAAAAAAAAAAAAAAAAAAAAAAAAAAAAAAAA244444444444
AAAAAAAAAAAAAAAAAAAAAAAAAAAAAAAAAAAAAAAAAAAAAAAAAAAAA24444444444
AAAAAAAAAAAAAAAAAAAAAAAAAAAAAAAAAAAAAAAAAAAAAAAAAAAAAA2444444444
AAAAAAAAAAAAAAAAAAAAAAAAAAAAAAAAAAAAAAAAAAAAAAAAAAAAAAA244444444
AAAAAAAAAAAAAAAAAAAAAAAAAAAAAAAAAAAAAAAAAAAAAAAAAAAAAAAA24444444
AAAAAAAAAAAAAAAAAAAAAAAAAAAAAAAAAAAAAAAAAAAAAAAAAAAAAAAAA2444444
AAAAAAAAAAAAAAAAAAAAAAAAAAAAAAAAAAAAAAAAAAAAAAAAAAAAAAAAAA244444
AAAAAAAAAAAAAAAAAAAAAAAAAAAAAAAAAAAAAAAAAAAAAAAAAAAAAAAAAAA24444
AAAAAAAAAAAAAAAAAAAAAAAAAAAAAAAAAAAAAAAAAAAAAAAAAAAAAAAAAAAA2444
AAAAAAAAAAAAAAAAAAAAAAAAAAAAAAAAAAAAAAAAAAAAAAAAAAAAAAAAAAAAA244
AAAAAAAAAAAAAAAAAAAAAAAAAAAAAAAAAAAAAAAAAAAAAAAAAAAAAAAAAAAAAA24
AAAAAAAAAAAAAAAAAAAAAAAAAAAAAAAAAAAAAAAAAAAAAAAAAAAAAAAAAAAAAAA2
AAAAAAAAAAAAAAAAAAAAAAAAAAAAAAAAAAAAAAAAAAAAAAAAAAAAAAAAAAAAAAAA
AAAAAAAAAAAAAAAAAAAAAAAAAAAAAAAAAAAAAAAAAAAAAAAAAAAAAIAAAAAAAAAA
AAAAAAAAAAAAAAAAAAAAAAAAAAAAAAAAAAAAAAAAAAAAAAAAAAAAAIAIAAAAAAAA
AAAAAAAAAAAAAAAAAAAAAAAAAAAAAAAAAAAAAAAAAAAAAAAAAAAAAIAIIAAAAAAA
AAAAAAAAAAAAAAAAAAAAAAAAAAAAAAAAAAAAAAAAAAAAAAAAAAAIAIAIIAAAAAAA
AAAAAAAAAAAAAAAAAAAAAAAAAAAAAAAAAAAAAAAAAAIAAAAAAAAIAIAIIAAAAAAA
AAAAAAAAAAAAAAAAAAAAAAAAAAAAAAAAAAAAAAAAAAIAAIAAAAAIAIAIIAAAAAAA
AAAAAAAAAAAAAAAAAAAAAAAAAAAAAAAAAAAAAAAAAAIAAIIAAAAIAIAIIAAAAAAA
AAAAAAAAAAAAAAAAAAAAAIAAAAAAAAAAAAAAAAAAAAIAAIIAAAAIAIAIIAAAAAAA
AAAAAAAAAIAAAAAAAAAAAIAAAAAAAAAAAAAAAAAAAAIAAIIAAAAIAIAIIAAAAAAA
AAAAAAAAAIIAAAAAAAAAAIAAAAAAAAAAAAAAAAAAAAIAAIIAAAAIAIAIIAAAAAAA
AAIAAAAAAIIAAAAAAAAAAIAAAAAAAAAAAAAAAAAAAAIAAIIAAAAIAIAIIAAAAAAA
AAIAAAAAAIIAAAAAAAAAAIAAIAAAAAAAAAAAAAAAAAIAAIIAAAAIAIAIIAAAAAAA
AAIAAAAAAIIAAAAAAAAAAIAAIAIAAAAAAAAAAAAAAAIAAIIAAAAIAIAIIAAAAAAA
AAIAIAAAAIIAAAAAAAAAAIAAIAIAAAAAAAAAAAAAAAIAAIIAAAAIAIAIIAAAAAAA
AAIAIAAAAIIAAAAAAAAAAIAAIAIAAAAAAAAAIAAAAAIAAIIAAAAIAIAIIAAAAAAA
AAIAIAAAAIIAAAIAAAAAAIAAIAIAAAAAAAAAIAAAAAIAAIIAAAAIAIAIIAAAAAAA
AAIAIAAAAIIAAAIIAAAAAIAAIAIAAAAAAAAAIAAAAAIAAIIAAAAIAIAIIAAAAAAA
AAIAIAAAAIIAAAIIIAAAAIAAIAIAAAAAAAAAIAAAAAIAAIIAAAAIAIAIIAAAAAAA
AAIAIAAAAIIAAAIIIAAAIIAAIAIAAAAAAAAAIAAAAAIAAIIAAAAIAIAIIAAAAAAA
AAIAIAAAAIIAAAIIIAAAIIAIIAIAAAAAAAAAIAAAAAIAAIIAAAAIAIAIIAAAAAAA
AAIAIAAAAIIAAAIIIAAAIIAIIIIAAAAAAAAAIAAAAAIAAIIAAAAIAIAIIAAAAAAA
AAIAIAAAAIIAAAIIIAAAIIAIIIIAAAAIAAAAIAAAAAIAAIIAAAAIAIAIIAAAAAAA
AAIAIAAAAIIAAAIIIAAAIIAIIIIAAAAIAAIAIAAAAAIAAIIAAAAIAIAIIAAAAAAA
AAIAIAAAAIIAAAIIIAAAIIAIIIIAAAAIAAIAIAAAAAIAIIIAAAAIAIAIIAAAAAAA
AAIAIAAAAIIAAAIIIAAAIIAIIIIAAAAIAAIAIAAAAAIAIIIIAAAIAIAIIAAAAAAA
AAIAIAAAAIIAAAIIIAAAIIAIIIIAAAAIAAIAIAAAAAIAIIIIAAIIAIAIIAAAAAAA
AAIAIAAAAIIAAAIIIAAAIIAIIIIAAAAIAAIAIAAAAAIAIIIIAAIIAIAIIAIAAAAA
AAIAIAAAAIIAAAIIIAAAIIAIIIIAAAAIAAIAIAAAAAIAIIIIAAIIAIAIIAIAIAAA
AAIAIAAAAIIAAAIIIAAAIIAIIIIAAAAIAAIAIAAAAAIAIIIIAAIIAIAIIAIAIIAA
AAIAIAAAAIIAAAIIIAAAIIAIIIIAAIAIAAIAIAAAAAIAIIIIAAIIAIAIIAIAIIAA
AAIAIAAAAIIAAAIIIAAIIIAIIIIAAIAIAAIAIAAAAAIAIIIIAAIIAIAIIAIAIIAA
AAIAIAAAAIIAIAIIIAAIIIAIIIIAAIAIAAIAIAAAAAIAIIIIAAIIAIAIIAIAIIAA
A2224I444444444444IIIIIIIIIIIIIIIIIIIIIIIIIIIIIIIIIIIIIIIIIIIIII
AA22244444444444444IIIIIIIIIIIIIIIIIIIIIIIIIIIIIIIIIIIIIIIIIIIII
AAA22244444444444444IIIIIIIIIIIIIIIIIIIIIIIIIIIIIIIIIIIIIIIIIIII
AAAA22244444444444444IIIIIIIIIIIIIIIIIIIIIIIIIIIIIIIIIIIIIIIIIII
AAAAA22244444444444444IIIIIIIIIIIIIIIIIIIIIIIIIIIIIIIIIIIIIIIIII
AAAAAA22244444444444444IIIIIIIIIIIIIIIIIIIIIIIIIIIIIIIIIIIIIIIII
AAAAAAA22244444444444444IIIIIIIIIIIIIIIIIIIIIIIIIIIIIIIIIIIIIIII
AAAAAAAA22244444444444444IIIIIIIIIIIIIIIIIIIIIIIIIIIIIIIIIIIIIII
AAAAAAAAA22244444444444444IIIIIIIIIIIIIIIIIIIIIIIIIIIIIIIIIIIIII
AAAAAAAAAA22244444444444444IIIIIIIIIIIIIIIIIIIIIIIIIIIIIIIIIIIII
AAAAAAAAAAA22244444444444444IIIIIIIIIIIIIIIIIIIIIIIIIIIIIIIIIIII
AAAAAAAAAAAA22244444444444444IIIIIIIIIIIIIIIIIIIIIIIIIIIIIIIIIII
AAAAAAAAAAAAA22244444444444444IIIIIIIIIIIIIIIIIIIIIIIIIIIIIIIIII
AAAAAAAAAAAAAA22244444444444444IIIIIIIIIIIIIIIIIIIIIIIIIIIIIIIII
AAAAAAAAAAAAAAA22244444444444444IIIIIIIIIIIIIIIIIIIIIIIIIIIIIIII
AAAAAAAAAAAAAAAA22244444444444444IIIIIIIIIIIIIIIIIIIIIIIIIIIIIII
AAAAAAAAAAAAAAAAA22244444444444444IIIIIIIIIIIIIIIIIIIIIIIIIIIIII
AAAAAAAAAAAAAAAAAA22244444444444444IIIIIIIIIIIIIIIIIIIIIIIIIIIII
AAAAAAAAAAAAAAAAAAA22244444444444444IIIIIIIIIIIIIIIIIIIIIIIIIIII
AAAAAAAAAAAAAAAAAAAA22244444444444444IIIIIIIIIIIIIIIIIIIIIIIIIII
AAAAAAAAAAAAAAAAAAAAA22244444444444444IIIIIIIIIIIIIIIIIIIIIIIIII
AAAAAAAAAAAAAAAAAAAAAA22244444444444444IIIIIIIIIIIIIIIIIIIIIIIII
AAAAAAAAAAAAAAAAAAAAAAA22244444444444444IIIIIIIIIIIIIIIIIIIIIIII
AAAAAAAAAAAAAAAAAAAAAAAA22244444444444444IIIIIIIIIIIIIIIIIIIIIII
AAAAAAAAAAAAAAAAAAAAAAAAA22244444444444444IIIIIIIIIIIIIIIIIIIIII
AAAAAAAAAAAAAAAAAAAAAAAAAA22244444444444444IIIIIIIIIIIIIIIIIIIII
AAAAAAAAAAAAAAAAAAAAAAAAAAA22244444444444444IIIIIIIIIIIIIIIIIIII
AAAAAAAAAAAAAAAAAAAAAAAAAAAA22244444444444444IIIIIIIIIIIIIIIIIII
AAAAAAAAAAAAAAAAAAAAAAAAAAAAA22244444444444444IIIIIIIIIIIIIIIIII
AAAAAAAAAAAAAAAAAAAAAAAAAAAAAA22244444444444444IIIIIIIIIIIIIIIII
AAAAAAAAAAAAAAAAAAAAAAAAAAAAAAA22244444444444444IIIIIIIIIIIIIIII
AAAAAAAAAAAAAAAAAAAAAAAAAAAAAAAA22244444444444444IIIIIIIIIIIIIII
AAAAAAAAAAAAAAAAAAAAAAAAAAAAAAAAA22244444444444444IIIIIIIIIIIIII
AAAAAAAAAAAAAAAAAAAAAAAAAAAAAAAAAA22244444444444444IIIIIIIIIIIII
AAAAAAAAAAAAAAAAAAAAAAAAAAAAAAAAAAA22244444444444444IIIIIIIIIIII
AAAAAAAAAAAAAAAAAAAAAAAAAAAAAAAAAAAA22244444444444444IIIIIIIIIII
AAAAAAAAAAAAAAAAAAAAAAAAAAAAAAAAAAAAA22244444444444444IIIIIIIIII
AAAAAAAAAAAAAAAAAAAAAAAAAAAAAAAAAAAAAA22244444444444444IIIIIIIII
AAAAAAAAAAAAAAAAAAAAAAAAAAAAAAAAAAAAAAA22244444444444444IIIIIIII
AAAAAAAAAAAAAAAAAAAAAAAAAAAAAAAAAAAAAAAA22244444444444444IIIIIII
AAAAAAAAAAAAAAAAAAAAAAAAAAAAAAAAAAAAAAAAA22244444444444444IIIIII
AAAAAAAAAAAAAAAAAAAAAAAAAAAAAAAAAAAAAAAAAA22244444444444444IIIII
AAAAAAAAAAAAAAAAAAAAAAAAAAAAAAAAAAAAAAAAAAA22244444444444444IIII
AAAAAAAAAAAAAAAAAAAAAAAAAAAAAAAAAAAAAAAAAAAA22244444444444444III
AAAAAAAAAAAAAAAAAAAAAAAAAAAAAAAAAAAAAAAAAAAAA22244444444444444II
AAAAAAAAAAAAAAAAAAAAAAAAAAAAAAAAAAAAAAAAAAAAAA22244444444444444I
AAAAAAAAAAAAAAAAAAAAAAAAAAAAAAAAAAAAAAAAAAAAAAA22244444444444444
AAAAAAAAAAAAAAAAAAAAAAAAAAAAAAAAAAAAAAAAAAAAAAAA2224444444444444
AAAAAAAAAAAAAAAAAAAAAAAAAAAAAAAAAAAAAAAAAAAAAAAAA222444444444444
AAAAAAAAAAAAAAAAAAAAAAAAAAAAAAAAAAAAAAAAAAAAAAAAAA22244444444444
AAAAAAAAAAAAAAAAAAAAAAAAAAAAAAAAAAAAAAAAAAAAAAAAAAA2224444444444
AAAAAAAAAAAAAAAAAAAAAAAAAAAAAAAAAAAAAAAAAAAAAAAAAAAA222444444444
AAAAAAAAAAAAAAAAAAAAAAAAAAAAAAAAAAAAAAAAAAAAAAAAAAAAA22244444444
AAAAAAAAAAAAAAAAAAAAAAAAAAAAAAAAAAAAAAAAAAAAAAAAAAAAAA2224444444
AAAAAAAAAAAAAAAAAAAAAAAAAAAAAAAAAAAAAAAAAAAAAAAAAAAAAAA222444444
AAAAAAAAAAAAAAAAAAAAAAAAAAAAAAAAAAAAAAAAAAAAAAAAAAAAAAAA22244444
AAAAAAAAAAAAAAAAAAAAAAAAAAAAAAAAAAAAAAAAAAAAAAAAAAAAAAAAA2224444
AAAAAAAAAAAAAAAAAAAAAAAAAAAAAAAAAAAAAAAAAAAAAAAAAAAAAAAAAA222444
AAAAAAAAAAAAAAAAAAAAAAAAAAAAAAAAAAAAAAAAAAAAAAAAAAAAAAAAAAA22244
AAAAAAAAAAAAAAAAAAAAAAAAAAAAAAAAAAAAAAAAAAAAAAAAAAAAAAAAAAAA2224
AAAAAAAAAAAAAAAAAAAAAAAAAAAAAAAAAAAAAAAAAAAAAAAAAAAAAAAAAAAAA222
AAAAAAAAAAAAAAAAAAAAAAAAAAAAAAAAAAAAAAAAAAAAAAAAAAAAAAAAAAAAAA22
AAAAAAAAAAAAAAAAAAAAAAAAAAAAAAAAAAAAAAAAAAAAAAAAAAAAAAAAAAAAAAA2
AAAAAAAAAAAAAAAAAAAAAAAAAAAAAAAAAAAAAAAAAAAAAAAAAAAAAAAAAAAAAAAA
AAAAAAAAAAAAAAAAAAAAAAAAAAAAAAAAAAAAAAAAAAAAAAAAAAAAAAIAAAAAAAAA
AAAAAAAAAAAAAAAAAAAAAAAAAAAAAAAAAAAAAAAAAAAAAAAAAAAAAAIAIAAAAAAA
AAAAAAAAAAAAAAAAAAAAAAAAAAAAAAAAAAAAAAAAAAAAAAAAAAAAAAIIIAAAAAAA
AAAAAAAAAAAAAAAAAAAAAAAAAAAAAAAAAAAAAAAAAAAAAAAAAAAAAAIIIIAAAAAA
AAAAAAAAAAAAAAAAAAAAAAAAAAAAAAAAAAAAAAAAAAAAAAIAAAAAAAIIIIAAAAAA
AAAAAAAAAAAAAAAAIAAAAAAAAAAAAAAAAAAAAAAAAAAAAAIAAAAAAAIIIIAAAAAA
AAAAAAAAAAAAAAAAIAAAAAAAAAAAAAAAAAAAAAAAAAAAAAIAAAAAAAIIIIIAAAAA
AAAAAAAAAAAAAAAAIAAAAAAAAAAAAAAAAAAAAAAAAAAAAIIAAAAAAAIIIIIAAAAA
AAAAAAAAAAAAAAAAIAAAAAAAAAAAAAAAAAAAAAAAAAAAAIIAAAAAAAIIIIIIAAAA
AAAAAAAAAAAAAAAAIAAAAAAAAAAAAAAAAAAAAAAAAAAAAIIAAAAAAIIIIIIIAAAA
AAAAAAAAIAAAAAAAIAAAAAAAAAAAAAAAAAAAAAAAAAAAAIIAAAAAAIIIIIIIAAAA
AAAAAAAAIAAAAAAAIIAAAAAAAAAAAAAAAAAAAAAAAAAAAIIAAAAAAIIIIIIIAAAA
AAAAAAAAIAAAAAAAIIAAAAAAAAAAAAAAAIAAAAAAAAAAAIIAAAAAAIIIIIIIAAAA
AAAAAAAAIAAAAAAAIIAAAAAAAAAAAAAAAIIAAAAAAAAAAIIAAAAAAIIIIIIIAAAA
AAAAAAAAIAAAAAAAIIAAAAAAAAAAAAAAAIIAAAIAAAAAAIIAAAAAAIIIIIIIAAAA
AAAAAAAAIAAAAAAAIIAAAAAAAAAAAAAAAIIAAAIIAAAAAIIAAAAAAIIIIIIIAAAA
AAAAAAAAIAAAAAAAIIAAAAAAAAAAAAAAAIIAAAIIAAAIAIIAAAAAAIIIIIIIAAAA
AAAAAAAAIAAAAAAAIIAAAAAAAAAAAAAAAIIAAAIIAAAIAIIAAAAAIIIIIIIIAAAA
AAAAAIAAIAAAAAAAIIAAAAAAAAAAAAAAAIIAAAIIAAAIAIIAAAAAIIIIIIIIAAAA
AAAAAIAAIAAAAAAAIIAAAAAAAAAAAAAAIIIAAAIIAAAIAIIAAAAAIIIIIIIIAAAA
AAAAAIAAIAAAAAAIIIAAAAAAAAAAAAAAIIIAAAIIAAAIAIIAAAAAIIIIIIIIAAAA
AAAAAIAAIAAAAAAIIIAAAAAAAIAAAAAAIIIAAAIIAAAIAIIAAAAAIIIIIIIIAAAA
AAAAAIAAIAAAAAAIIIAAAAAAAIAAAAAAIIIIAAIIAAAIAIIAAAAAIIIIIIIIAAAA
AAAAAIAAIAAAAAAIIIAAAAAAAIAAAAAAIIIIAIIIAAAIAIIAAAAAIIIIIIIIAAAA
AAAAAIAAIAIAAAAIIIAAAAAAAIAAAAAAIIIIAIIIAAAIAIIAAAAAIIIIIIIIAAAA
AAAAAIAAIAIAAIAIIIAAAAAAAIAAAAAAIIIIAIIIAAAIAIIAAAAAIIIIIIIIAAAA
AAAAAIAAIAIAAIAIIIAIAAAAAIAAAAAAIIIIAIIIAAAIAIIAAAAAIIIIIIIIAAAA
AAAAAIAAIAIAAIAIIIAIAIAAAIAAAAAAIIIIAIIIAAAIAIIAAAAAIIIIIIIIAAAA
AAAAAIAAIAIAAIAIIIAIAIAAAIAIAAAAIIIIAIIIAAAIAIIAAAAAIIIIIIIIAAAA
AAAAAIAAIAIAAIAIIIAIAIAAAIAIIAAAIIIIAIIIAAAIAIIAAAAAIIIIIIIIAAAA
AAAAAIAAIAIAAIAIIIAIAIAAAIAIIAAIIIIIAIIIAAAIAIIAAAAAIIIIIIIIAAAA
AAIAAIAAIAIAAIAIIIAIAIAAAIAIIAAIIIIIAIIIAAAIAIIAAAAAIIIIIIIIAAAA
AAIIAIAAIAIAAIAIIIAIAIAAAIAIIAAIIIIIAIIIAAAIAIIAAAAAIIIIIIIIAAAA
AAIIIIAAIAIAAIAIIIAIAIAAAIAIIAAIIIIIAIIIAAAIAIIAAAAAIIIIIIIIAAAA
AAIIIIAAIAIAAIAIIIAIAIAAAIAIIIAIIIIIAIIIAAAIAIIAAAAAIIIIIIIIAAAA
AAIIIIAAIAIAAIIIIIAIAIAAAIAIIIAIIIIIAIIIAAAIAIIAAAAAIIIIIIIIAAAA
AIIIIIAAIAIAAIIIIIAIAIAAAIAIIIAIIIIIAIIIAAAIAIIAAAAAIIIIIIIIAAAA
AIIIIIAAIAIAAIIIIIIIAIAAAIAIIIAIIIIIAIIIAAAIAIIAAAAAIIIIIIIIAAAA
AIIIIIAAIIIAAIIIIIIIAIAAAIAIIIAIIIIIAIIIAAAIAIIAAAAAIIIIIIIIAAAA
AIIIIIAAIIIIAIIIIIIIAIAAAIAIIIAIIIIIAIIIAAAIAIIAAAAAIIIIIIIIAAAA
AIIIIIAAIIIIAIIIIIIIAIIAAIAIIIAIIIIIAIIIAAAIAIIAAAAAIIIIIIIIAAAA
AIIIIIAAIIIIAIIIIIIIAIIIAIAIIIAIIIIIAIIIAAAIAIIAAAAAIIIIIIIIAAAA
AIIIIIAAIIIIAIIIIIIIAIIIAIAIIIIIIIIIAIIIAAAIAIIAAAAAIIIIIIIIAAAA
AIIIIIAAIIIIAIIIIIIIAIIIAIAIIIIIIIIIAIIIAIAIAIIAAAAAIIIIIIIIAAAA
AIIIIIAAIIIIAIIIIIIIAIIIAIAIIIIIIIIIAIIIAIAIAIIIAAAAIIIIIIIIAAAA
AIIIIIAAIIIIAIIIIIIIAIIIAIAIIIIIIIIIAIIIAIAIAIIIAAAIIIIIIIIIAAAA
AIIIIIAAIIIIAIIIIIIIAIIIAIAIIIIIIIIIAIIIAIAIAIIIAAAIIIIIIIIIIAAA
AIIIIIAAIIIIAIIIIIIIAIIIIIAIIIIIIIIIAIIIAIAIAIIIAAAIIIIIIIIIIAAA
AIIIIIAAIIIIAIIIIIIIAIIIIIIIIIIIIIIIAIIIAIAIAIIIAAAIIIIIIIIIIAAA
AIIIIIAIIIIIAIIIIIIIAIIIIIIIIIIIIIIIAIIIAIAIAIIIAAAIIIIIIIIIIAAA
AIIIIIAIIIIIAIIIIIIIIIIIIIIIIIIIIIIIAIIIAIAIAIIIAAAIIIIIIIIIIAAA
AIIIIIAIIIIIAIIIIIIIIIIIIIIIIIIIIIIIIIIIAIAIAIIIAAAIIIIIIIIIIAAA
AIIIIIAIIIIIAIIIIIIIIIIIIIIIIIIIIIIIIIIIAIAIAIIIAAAIIIIIIIIIIIAA
AIIIIIAIIIIIAIIIIIIIIIIIIIIIIIIIIIIIIIIIAIAIAIIIAAAIIIIIIIIIIIIA
AIIIIIAIIIIIAIIIIIIIIIIIIIIIIIIIIIIIIIIIAIAIAIIIIAAIIIIIIIIIIIIA
AIIIIIAIIIIIAIIIIIIIIIIIIIIIIIIIIIIIIIIIAIAIAIIIIIAIIIIIIIIIIIIA
AIIIIIAIIIIIAIIIIIIIIIIIIIIIIIIIIIIIIIIIAIAIAIIIIIIIIIIIIIIIIIIA
AIIIIIAIIIIIAIIIIIIIIIIIIIIIIIIIIIIIIIIIAIIIAIIIIIIIIIIIIIIIIIIA
AIIIIIAIIIIIAIIIIIIIIIIIIIIIIIIIIIIIIIIIAIIIAIIIIIIIIIIIIIIIIIII
IIIIAIIIIIIIIIIIIIIIIIIIIIIIIIIIIIIIIIIIIIIIIIIIIIIIIIIIIIIIIIII
IIIIAIIIIAIIIIIIIIIIIIIIIIIIIIIIIIIIIIIIIIIIIIIIIIIIIIIIIIIIIIII
IIIIAIIIIAIIIIIIAIIIIIIIIIIIIIIIIIIIIIIIIIIIIIIIIIIIIIIIIIIIIIII
IIIIAIIIIAIIIIIIAAIIIIIIIIIIIIIIIIIIIIIIIIIIIIIIIIIIIIIIIIIIIIII
IIIIAIIIIAIIIIIIAAIIIIIAIIIIIIIIIIIIIIIIIIIIIIIIIIIIIIIIIIIIIIII
IIIIAIIIIAIIIIIIAAIIIIIAIIIIIIIAIIIIIIIIIIIIIIIIIIIIIIIIIIIIIIII
IIIIAIIIIAIIIIIIAAIIIIIAIIIIIIIAIIAIIIIIIIIIIIIIIIIIIIIIIIIIIIII
IIIIAIIIIAIIIIIIAAIIIIIAIIIIIIIAIIAAIIIIIIIIIIIIIIIIIIIIIIIIIIII
IIIIAIIIIAIIIIIIAAIIIIIAIIIIIIIAIIAAAIIIIIIIIIIIIIIIIIIIIIIIIIII
IIIIAIIIIAIIIIIIAAIIIIIAIIIIIIIAIIAAAIIIIAIIIIIIIIIIIIIIIIIIIIII
IIIIAIIIIAIIIIIIAAIIIIIAIIIIIIIAIIAAAIIIIAIAIIIIIIIIIIIIIIIIIIII
IIIIAIIIIAIIIIIIAAIIIIIAIIIIIIIAIIAAAIIIIAIAIIIIAIIIIIIIIIIIIIII
IIIIAIIIIAIIIIIIAAIIIIIAIIIIIIIAIIAAAIIIIAIAIIIIAIAIIIIIIIIIIIII
IIIIAIIIIAIIIIIIAAIIIIIAIIIIIIIAIIAAAIIIIAIAIIIIAIAAIIIIIIIIIIII
IIIIAIIIIAIIIIIIAAIIIIIAIIIIIIIAIIAAAIIIIAIAIIIIAIAAAIIIIIIIIIII
IIIIAIIIIAIIIIIIAAIIIIIAIIIIIIIAIIAAAIIIIAIAIIIIAIAAAAIIIIIIIIII
IIIIAIIIIAIIIIIIAAIIIIIAIIIIIIIAIIAAAIIIIAIAIIIIAIAAAAIIIIIIAIII
[MLOP] Prefetch Degree Mean: 11.44455
[MLOP] Prefetch Degree SD: 4.60986
[MLOP] Max Score Left Mean (%): 42.54899
[MLOP] Max Score Left SD (%): 20.68094
[MLOP] Max Score Right Mean (%): 75.13443
[MLOP] Max Score Right SD (%): 19.59709

Channel_0_RQ_row_buffer_hit 1074751
Channel_0_RQ_row_buffer_miss 867505
Channel_0_WQ_row_buffer_hit 58757
Channel_0_WQ_row_buffer_miss 131906
Channel_0_WQ_full 130
Channel_0_dbus_congested 1150816

avg_congested_cycle 10

DRAM_bw_pochs 684797
DRAM_bw_level_0 380747
DRAM_bw_level_1 188088
DRAM_bw_level_2 70471
DRAM_bw_level_3 45491
