*************************************************
   ChampSim Multicore Out-of-Order Simulator
   Last compiled: Apr  3 2025 20:54:34
*************************************************
parsing config file: /home/zir/Pythia/config/nopref.ini

trace_0 /home/zir/ChampSim/ML-DPC/ChampSimTraces/gap/bc-12.trace.gz
adding L2C_PREFETCHER: NONE
Initialize SHIP state
warmup_instructions 10000000
simulation_instructions 50000000
champsim_seed 99
measure_ipc 0
measure_ipc_epoch 1000
measure_dram_bw 1
measure_dram_bw_epoch 256
measure_cache_acc 1
measure_cache_acc_epoch 1024
l1d_perfect 0
l2c_perfect 0
llc_perfect 0
l1d_semi_perfect 0
l2c_semi_perfect 0
llc_semi_perfect 0
semi_perfect_cache_page_buffer_size 64

num_cpus 1
cpu_freq 4000
dram_io_freq 2400
page_size 4096
block_size 64
max_read_per_cycle 8
max_fill_per_cycle 1
dram_channels 1
log2_dram_channels 0
dram_ranks 1
dram_banks 8
dram_rows 65536
dram_columns 128
dram_row_size 8
dram_size 4096
dram_pages 1048576

fetch_width 6
decode_width 6
exec_width 4
lq_width 2
sq_width 2
retire_width 4
scheduler_size 128
branch_mispredict_penalty 20
rob_size 256
lq_size 72
sq_size 56
num_instr_destinations_sparc 4
num_instr_destinations 2
num_instr_sources 4

itlb_set 16
itlb_way 8
itlb_rq_size 16
itlb_wq_size 16
itlb_pq_size 0
itlb_mshr_size 8
itlb_latency 1

dtlb_set 16
dtlb_way 4
dtlb_rq_size 16
dtlb_wq_size 16
dtlb_pq_size 0
dtlb_mshr_size 8
dtlb_latency 1

stlb_set 128
stlb_way 12
stlb_rq_size 32
stlb_wq_size 32
stlb_pq_size 0
stlb_mshr_size 16
stlb_latency 8

l1i_size 32
l1i_set 64
l1i_way 8
l1i_rq_size 64
l1i_wq_size 64
l1i_pq_size 8
l1i_mshr_size 8
l1i_latency 1

l1d_size 32
l1d_set 64
l1d_way 8
l1d_rq_size 64
l1d_wq_size 64
l1d_pq_size 8
l1d_mshr_size 16
l1d_latency 4

l2c_size 256
l2c_set 512
l2c_way 8
l2c_rq_size 32
l2c_wq_size 32
l2c_pq_size 32
l2c_mshr_size 32
l2c_latency 10

llc_size 2048
llc_set 2048
llc_way 16
llc_rq_size 32
llc_wq_size 32
llc_pq_size 32
llc_mshr_size 64
llc_latency 20

dram_channel_width 8
dram_wq_size 64
dram_rq_size 64
tRP 15
tRCD 15
tCAS 12.5
dram_dbus_turn_around_time 30
dram_write_high_wm 56
dram_write_low_wm 48
min_dram_writes_per_switch 16
dram_mtps 2400
dram_dbus_return_time 13


Heartbeat CPU  0 instructions:    1000000 cycles:     577393 heartbeat IPC: 1.73192 cumulative IPC: 1.73192 (Simulation time: 0 hr 0 min 2 sec) 
Heartbeat CPU  0 instructions:    2000002 cycles:    1121489 heartbeat IPC: 1.83791 cumulative IPC: 1.78335 (Simulation time: 0 hr 0 min 5 sec) 
Heartbeat CPU  0 instructions:    3000003 cycles:    1773434 heartbeat IPC: 1.53387 cumulative IPC: 1.69164 (Simulation time: 0 hr 0 min 6 sec) 
Heartbeat CPU  0 instructions:    4000000 cycles:    2703339 heartbeat IPC: 1.07538 cumulative IPC: 1.47965 (Simulation time: 0 hr 0 min 8 sec) 
Heartbeat CPU  0 instructions:    5000000 cycles:    3747338 heartbeat IPC: 0.95786 cumulative IPC: 1.33428 (Simulation time: 0 hr 0 min 9 sec) 
Heartbeat CPU  0 instructions:    6000002 cycles:    4797077 heartbeat IPC: 0.95262 cumulative IPC: 1.25076 (Simulation time: 0 hr 0 min 10 sec) 
Heartbeat CPU  0 instructions:    7000000 cycles:    5854342 heartbeat IPC: 0.94583 cumulative IPC: 1.19569 (Simulation time: 0 hr 0 min 11 sec) 
Heartbeat CPU  0 instructions:    8000000 cycles:    6956111 heartbeat IPC: 0.90763 cumulative IPC: 1.15007 (Simulation time: 0 hr 0 min 12 sec) 
Heartbeat CPU  0 instructions:    9000000 cycles:    8057301 heartbeat IPC: 0.90811 cumulative IPC: 1.11700 (Simulation time: 0 hr 0 min 13 sec) 
Heartbeat CPU  0 instructions:   10000000 cycles:    9180270 heartbeat IPC: 0.89050 cumulative IPC: 1.08929 (Simulation time: 0 hr 0 min 14 sec) 

Warmup complete CPU  0 instructions:   10000001 cycles:    9180271 (Simulation time: 0 hr 0 min 14 sec) 

Heartbeat CPU  0 instructions:   11000001 cycles:   17659971 heartbeat IPC: 0.11793 cumulative IPC: 0.11793 (Simulation time: 0 hr 0 min 17 sec) 
Heartbeat CPU  0 instructions:   12000000 cycles:   26472978 heartbeat IPC: 0.11347 cumulative IPC: 0.11566 (Simulation time: 0 hr 0 min 19 sec) 
Heartbeat CPU  0 instructions:   13000001 cycles:   35373324 heartbeat IPC: 0.11236 cumulative IPC: 0.11453 (Simulation time: 0 hr 0 min 22 sec) 
Heartbeat CPU  0 instructions:   14000001 cycles:   44334968 heartbeat IPC: 0.11159 cumulative IPC: 0.11378 (Simulation time: 0 hr 0 min 24 sec) 
Heartbeat CPU  0 instructions:   15000000 cycles:   53012614 heartbeat IPC: 0.11524 cumulative IPC: 0.11407 (Simulation time: 0 hr 0 min 27 sec) 
Heartbeat CPU  0 instructions:   16000000 cycles:   61803789 heartbeat IPC: 0.11375 cumulative IPC: 0.11402 (Simulation time: 0 hr 0 min 29 sec) 
Heartbeat CPU  0 instructions:   17000000 cycles:   70449751 heartbeat IPC: 0.11566 cumulative IPC: 0.11425 (Simulation time: 0 hr 0 min 32 sec) 
Heartbeat CPU  0 instructions:   18000001 cycles:   79532778 heartbeat IPC: 0.11010 cumulative IPC: 0.11371 (Simulation time: 0 hr 0 min 34 sec) 
Heartbeat CPU  0 instructions:   19000002 cycles:   88415826 heartbeat IPC: 0.11257 cumulative IPC: 0.11359 (Simulation time: 0 hr 0 min 37 sec) 
Heartbeat CPU  0 instructions:   20000000 cycles:   97483356 heartbeat IPC: 0.11028 cumulative IPC: 0.11325 (Simulation time: 0 hr 0 min 40 sec) 
Heartbeat CPU  0 instructions:   21000000 cycles:  106475250 heartbeat IPC: 0.11121 cumulative IPC: 0.11306 (Simulation time: 0 hr 0 min 42 sec) 
Heartbeat CPU  0 instructions:   22000003 cycles:  115345092 heartbeat IPC: 0.11274 cumulative IPC: 0.11303 (Simulation time: 0 hr 0 min 45 sec) 
Heartbeat CPU  0 instructions:   23000001 cycles:  124397761 heartbeat IPC: 0.11046 cumulative IPC: 0.11283 (Simulation time: 0 hr 0 min 47 sec) 
Heartbeat CPU  0 instructions:   24000000 cycles:  133534820 heartbeat IPC: 0.10944 cumulative IPC: 0.11258 (Simulation time: 0 hr 0 min 50 sec) 
Heartbeat CPU  0 instructions:   25000001 cycles:  142520228 heartbeat IPC: 0.11129 cumulative IPC: 0.11249 (Simulation time: 0 hr 0 min 52 sec) 
Heartbeat CPU  0 instructions:   26000000 cycles:  151189455 heartbeat IPC: 0.11535 cumulative IPC: 0.11267 (Simulation time: 0 hr 0 min 55 sec) 
Heartbeat CPU  0 instructions:   27000003 cycles:  160055785 heartbeat IPC: 0.11279 cumulative IPC: 0.11268 (Simulation time: 0 hr 0 min 57 sec) 
Heartbeat CPU  0 instructions:   28000000 cycles:  169289781 heartbeat IPC: 0.10830 cumulative IPC: 0.11242 (Simulation time: 0 hr 1 min 0 sec) 
Heartbeat CPU  0 instructions:   29000001 cycles:  178426941 heartbeat IPC: 0.10944 cumulative IPC: 0.11226 (Simulation time: 0 hr 1 min 3 sec) 
Heartbeat CPU  0 instructions:   30000000 cycles:  187677483 heartbeat IPC: 0.10810 cumulative IPC: 0.11205 (Simulation time: 0 hr 1 min 5 sec) 
Heartbeat CPU  0 instructions:   31000002 cycles:  196585929 heartbeat IPC: 0.11225 cumulative IPC: 0.11206 (Simulation time: 0 hr 1 min 8 sec) 
Heartbeat CPU  0 instructions:   32000000 cycles:  205594522 heartbeat IPC: 0.11100 cumulative IPC: 0.11201 (Simulation time: 0 hr 1 min 10 sec) 
Heartbeat CPU  0 instructions:   33000000 cycles:  214217069 heartbeat IPC: 0.11598 cumulative IPC: 0.11217 (Simulation time: 0 hr 1 min 13 sec) 
Heartbeat CPU  0 instructions:   34000000 cycles:  223299265 heartbeat IPC: 0.11011 cumulative IPC: 0.11209 (Simulation time: 0 hr 1 min 15 sec) 
Heartbeat CPU  0 instructions:   35000000 cycles:  232220233 heartbeat IPC: 0.11210 cumulative IPC: 0.11209 (Simulation time: 0 hr 1 min 18 sec) 
Heartbeat CPU  0 instructions:   36000000 cycles:  241397864 heartbeat IPC: 0.10896 cumulative IPC: 0.11196 (Simulation time: 0 hr 1 min 20 sec) 
Heartbeat CPU  0 instructions:   37000001 cycles:  250528770 heartbeat IPC: 0.10952 cumulative IPC: 0.11187 (Simulation time: 0 hr 1 min 23 sec) 
Heartbeat CPU  0 instructions:   38000000 cycles:  259439746 heartbeat IPC: 0.11222 cumulative IPC: 0.11188 (Simulation time: 0 hr 1 min 26 sec) 
Heartbeat CPU  0 instructions:   39000000 cycles:  268297046 heartbeat IPC: 0.11290 cumulative IPC: 0.11192 (Simulation time: 0 hr 1 min 28 sec) 
Heartbeat CPU  0 instructions:   40000000 cycles:  277196019 heartbeat IPC: 0.11237 cumulative IPC: 0.11193 (Simulation time: 0 hr 1 min 31 sec) 
Heartbeat CPU  0 instructions:   41000000 cycles:  285590566 heartbeat IPC: 0.11912 cumulative IPC: 0.11215 (Simulation time: 0 hr 1 min 33 sec) 
Heartbeat CPU  0 instructions:   42000001 cycles:  293738782 heartbeat IPC: 0.12273 cumulative IPC: 0.11245 (Simulation time: 0 hr 1 min 36 sec) 
Heartbeat CPU  0 instructions:   43000001 cycles:  302818172 heartbeat IPC: 0.11014 cumulative IPC: 0.11238 (Simulation time: 0 hr 1 min 38 sec) 
Heartbeat CPU  0 instructions:   44000000 cycles:  311973111 heartbeat IPC: 0.10923 cumulative IPC: 0.11229 (Simulation time: 0 hr 1 min 41 sec) 
Heartbeat CPU  0 instructions:   45000003 cycles:  320905442 heartbeat IPC: 0.11195 cumulative IPC: 0.11228 (Simulation time: 0 hr 1 min 44 sec) 
Heartbeat CPU  0 instructions:   46000003 cycles:  329829372 heartbeat IPC: 0.11206 cumulative IPC: 0.11227 (Simulation time: 0 hr 1 min 46 sec) 
Heartbeat CPU  0 instructions:   47000003 cycles:  338174203 heartbeat IPC: 0.11983 cumulative IPC: 0.11246 (Simulation time: 0 hr 1 min 49 sec) 
Heartbeat CPU  0 instructions:   48000000 cycles:  347078536 heartbeat IPC: 0.11230 cumulative IPC: 0.11246 (Simulation time: 0 hr 1 min 51 sec) 
Heartbeat CPU  0 instructions:   49000003 cycles:  355772930 heartbeat IPC: 0.11502 cumulative IPC: 0.11252 (Simulation time: 0 hr 1 min 54 sec) 
Heartbeat CPU  0 instructions:   50000002 cycles:  364670215 heartbeat IPC: 0.11239 cumulative IPC: 0.11252 (Simulation time: 0 hr 1 min 56 sec) 
Heartbeat CPU  0 instructions:   51000002 cycles:  373000560 heartbeat IPC: 0.12004 cumulative IPC: 0.11269 (Simulation time: 0 hr 1 min 59 sec) 
Heartbeat CPU  0 instructions:   52000000 cycles:  381879121 heartbeat IPC: 0.11263 cumulative IPC: 0.11269 (Simulation time: 0 hr 2 min 2 sec) 
Heartbeat CPU  0 instructions:   53000000 cycles:  390015166 heartbeat IPC: 0.12291 cumulative IPC: 0.11291 (Simulation time: 0 hr 2 min 4 sec) 
Heartbeat CPU  0 instructions:   54000000 cycles:  399400106 heartbeat IPC: 0.10655 cumulative IPC: 0.11276 (Simulation time: 0 hr 2 min 7 sec) 
Heartbeat CPU  0 instructions:   55000001 cycles:  408308494 heartbeat IPC: 0.11225 cumulative IPC: 0.11275 (Simulation time: 0 hr 2 min 9 sec) 
Heartbeat CPU  0 instructions:   56000000 cycles:  417374885 heartbeat IPC: 0.11030 cumulative IPC: 0.11269 (Simulation time: 0 hr 2 min 12 sec) 
Heartbeat CPU  0 instructions:   57000003 cycles:  426493996 heartbeat IPC: 0.10966 cumulative IPC: 0.11263 (Simulation time: 0 hr 2 min 14 sec) 
Heartbeat CPU  0 instructions:   58000000 cycles:  434420800 heartbeat IPC: 0.12615 cumulative IPC: 0.11288 (Simulation time: 0 hr 2 min 17 sec) 
Heartbeat CPU  0 instructions:   59000001 cycles:  443623774 heartbeat IPC: 0.10866 cumulative IPC: 0.11279 (Simulation time: 0 hr 2 min 20 sec) 
Heartbeat CPU  0 instructions:   60000000 cycles:  452940599 heartbeat IPC: 0.10733 cumulative IPC: 0.11267 (Simulation time: 0 hr 2 min 22 sec) 
Finished CPU 0 instructions: 50000000 cycles: 443760336 cumulative IPC: 0.11267 (Simulation time: 0 hr 2 min 22 sec) 

ChampSim completed all CPUs

[ROI Statistics]
Core_0_instructions 50000000
Core_0_cycles 443760336
Core_0_IPC 0.11267

Core_0_branch_prediction_accuracy 84.44426
Core_0_branch_MPKI 27.01916
Core_0_average_ROB_occupancy_at_mispredict 43.11694

Core_0_L1D_total_access 15912678
Core_0_L1D_total_hit 11773592
Core_0_L1D_total_miss 4139086
Core_0_L1D_loads 12843715
Core_0_L1D_load_hit 8731660
Core_0_L1D_load_miss 4112055
Core_0_L1D_RFOs 3068963
Core_0_L1D_RFO_hit 3041932
Core_0_L1D_RFO_miss 27031
Core_0_L1D_prefetches 0
Core_0_L1D_prefetch_hit 0
Core_0_L1D_prefetch_miss 0
Core_0_L1D_writebacks 0
Core_0_L1D_writeback_hit 0
Core_0_L1D_writeback_miss 0
Core_0_L1D_prefetch_requested 0
Core_0_L1D_prefetch_dropped 0
Core_0_L1D_prefetch_issued 0
Core_0_L1D_prefetch_filled 0
Core_0_L1D_prefetch_useful 0
Core_0_L1D_prefetch_useless 0
Core_0_L1D_prefetch_late 0
Core_0_L1D_average_miss_latency 153.44649

Core_0_L1D_rq_access 14022282
Core_0_L1D_rq_forward 0
Core_0_L1D_rq_merged 1081844
Core_0_L1D_rq_to_cache 12940438
Core_0_L1D_rq_full 0

Core_0_L1D_wq_access 3108363
Core_0_L1D_wq_forward 0
Core_0_L1D_wq_merged 10
Core_0_L1D_wq_to_cache 3108353
Core_0_L1D_wq_full 0

Core_0_L1D_pq_access 0
Core_0_L1D_pq_forward 0
Core_0_L1D_pq_merged 0
Core_0_L1D_pq_to_cache 0
Core_0_L1D_pq_full 0

Core_0_L1D_acc_epochs 367987
Core_0_L1D_acc_level_0 367987
Core_0_L1D_acc_level_1 0
Core_0_L1D_acc_level_2 0
Core_0_L1D_acc_level_3 0
Core_0_L1D_acc_level_4 0
Core_0_L1D_acc_level_5 0
Core_0_L1D_acc_level_6 0
Core_0_L1D_acc_level_7 0
Core_0_L1D_acc_level_8 0
Core_0_L1D_acc_level_9 0

Core_0_L1I_total_access 7892231
Core_0_L1I_total_hit 7892231
Core_0_L1I_total_miss 0
Core_0_L1I_loads 7892231
Core_0_L1I_load_hit 7892231
Core_0_L1I_load_miss 0
Core_0_L1I_RFOs 0
Core_0_L1I_RFO_hit 0
Core_0_L1I_RFO_miss 0
Core_0_L1I_prefetches 0
Core_0_L1I_prefetch_hit 0
Core_0_L1I_prefetch_miss 0
Core_0_L1I_writebacks 0
Core_0_L1I_writeback_hit 0
Core_0_L1I_writeback_miss 0
Core_0_L1I_prefetch_requested 0
Core_0_L1I_prefetch_dropped 0
Core_0_L1I_prefetch_issued 0
Core_0_L1I_prefetch_filled 0
Core_0_L1I_prefetch_useful 0
Core_0_L1I_prefetch_useless 0
Core_0_L1I_prefetch_late 0
Core_0_L1I_average_miss_latency -nan

Core_0_L1I_rq_access 49999953
Core_0_L1I_rq_forward 0
Core_0_L1I_rq_merged 42107722
Core_0_L1I_rq_to_cache 7892231
Core_0_L1I_rq_full 0

Core_0_L1I_wq_access 0
Core_0_L1I_wq_forward 0
Core_0_L1I_wq_merged 0
Core_0_L1I_wq_to_cache 0
Core_0_L1I_wq_full 0

Core_0_L1I_pq_access 0
Core_0_L1I_pq_forward 0
Core_0_L1I_pq_merged 0
Core_0_L1I_pq_to_cache 0
Core_0_L1I_pq_full 0

Core_0_L1I_acc_epochs 367987
Core_0_L1I_acc_level_0 367987
Core_0_L1I_acc_level_1 0
Core_0_L1I_acc_level_2 0
Core_0_L1I_acc_level_3 0
Core_0_L1I_acc_level_4 0
Core_0_L1I_acc_level_5 0
Core_0_L1I_acc_level_6 0
Core_0_L1I_acc_level_7 0
Core_0_L1I_acc_level_8 0
Core_0_L1I_acc_level_9 0

Core_0_L2C_total_access 5667600
Core_0_L2C_total_hit 1732439
Core_0_L2C_total_miss 3935161
Core_0_L2C_loads 4112055
Core_0_L2C_load_hit 203826
Core_0_L2C_load_miss 3908229
Core_0_L2C_RFOs 27031
Core_0_L2C_RFO_hit 135
Core_0_L2C_RFO_miss 26896
Core_0_L2C_prefetches 0
Core_0_L2C_prefetch_hit 0
Core_0_L2C_prefetch_miss 0
Core_0_L2C_writebacks 1528514
Core_0_L2C_writeback_hit 1528478
Core_0_L2C_writeback_miss 36
Core_0_L2C_prefetch_requested 0
Core_0_L2C_prefetch_dropped 0
Core_0_L2C_prefetch_issued 0
Core_0_L2C_prefetch_filled 0
Core_0_L2C_prefetch_useful 0
Core_0_L2C_prefetch_useless 0
Core_0_L2C_prefetch_late 0
Core_0_L2C_average_miss_latency 132.53878

Core_0_L2C_rq_access 4139086
Core_0_L2C_rq_forward 0
Core_0_L2C_rq_merged 0
Core_0_L2C_rq_to_cache 4139086
Core_0_L2C_rq_full 0

Core_0_L2C_wq_access 1528514
Core_0_L2C_wq_forward 0
Core_0_L2C_wq_merged 0
Core_0_L2C_wq_to_cache 1528514
Core_0_L2C_wq_full 0

Core_0_L2C_pq_access 0
Core_0_L2C_pq_forward 0
Core_0_L2C_pq_merged 0
Core_0_L2C_pq_to_cache 0
Core_0_L2C_pq_full 0

Core_0_L2C_acc_epochs 367987
Core_0_L2C_acc_level_0 367987
Core_0_L2C_acc_level_1 0
Core_0_L2C_acc_level_2 0
Core_0_L2C_acc_level_3 0
Core_0_L2C_acc_level_4 0
Core_0_L2C_acc_level_5 0
Core_0_L2C_acc_level_6 0
Core_0_L2C_acc_level_7 0
Core_0_L2C_acc_level_8 0
Core_0_L2C_acc_level_9 0

Core_0_LLC_total_access 5446135
Core_0_LLC_total_hit 2922806
Core_0_LLC_total_miss 2523329
Core_0_LLC_loads 3908228
Core_0_LLC_load_hit 1830152
Core_0_LLC_load_miss 2078076
Core_0_LLC_RFOs 26896
Core_0_LLC_RFO_hit 1113
Core_0_LLC_RFO_miss 25783
Core_0_LLC_prefetches 0
Core_0_LLC_prefetch_hit 0
Core_0_LLC_prefetch_miss 0
Core_0_LLC_writebacks 1511011
Core_0_LLC_writeback_hit 1091541
Core_0_LLC_writeback_miss 419470
Core_0_LLC_prefetch_requested 0
Core_0_LLC_prefetch_dropped 0
Core_0_LLC_prefetch_issued 0
Core_0_LLC_prefetch_filled 0
Core_0_LLC_prefetch_useful 0
Core_0_LLC_prefetch_useless 0
Core_0_LLC_prefetch_late 0
Core_0_LLC_average_miss_latency 156.42405

Core_0_LLC_rq_access 3935125
Core_0_LLC_rq_forward 0
Core_0_LLC_rq_merged 0
Core_0_LLC_rq_to_cache 3935124
Core_0_LLC_rq_full 0

Core_0_LLC_wq_access 1511011
Core_0_LLC_wq_forward 1
Core_0_LLC_wq_merged 0
Core_0_LLC_wq_to_cache 1511011
Core_0_LLC_wq_full 0

Core_0_LLC_pq_access 0
Core_0_LLC_pq_forward 0
Core_0_LLC_pq_merged 0
Core_0_LLC_pq_to_cache 0
Core_0_LLC_pq_full 0

Core_0_LLC_acc_epochs 442325
Core_0_LLC_acc_level_0 442325
Core_0_LLC_acc_level_1 0
Core_0_LLC_acc_level_2 0
Core_0_LLC_acc_level_3 0
Core_0_LLC_acc_level_4 0
Core_0_LLC_acc_level_5 0
Core_0_LLC_acc_level_6 0
Core_0_LLC_acc_level_7 0
Core_0_LLC_acc_level_8 0
Core_0_LLC_acc_level_9 0

Core_0_major_page_fault 0
Core_0_minor_page_fault 10294

Channel_0_RQ_row_buffer_hit 279279
Channel_0_RQ_row_buffer_miss 1824556
Channel_0_WQ_row_buffer_hit 375772
Channel_0_WQ_row_buffer_miss 748794
Channel_0_WQ_full 0
Channel_0_dbus_congested 783847

avg_congested_cycle 10

DRAM_bw_pochs 1769300
DRAM_bw_level_0 1717970
DRAM_bw_level_1 48210
DRAM_bw_level_2 1923
DRAM_bw_level_3 1197
