*************************************************
   ChampSim Multicore Out-of-Order Simulator
   Last compiled: Apr  3 2025 20:54:34
*************************************************
parsing config file: /home/zir/Pythia/config/pythia.ini

trace_0 /home/zir/ChampSim/ML-DPC/ChampSimTraces/gap/sssp-10.trace.gz
adding L2C_PREFETCHER: Scooby
Initialize SHIP state
warmup_instructions 10000000
simulation_instructions 50000000
champsim_seed 97
measure_ipc 0
measure_ipc_epoch 1000
measure_dram_bw 1
measure_dram_bw_epoch 256
measure_cache_acc 1
measure_cache_acc_epoch 1024
l1d_perfect 0
l2c_perfect 0
llc_perfect 0
l1d_semi_perfect 0
l2c_semi_perfect 0
llc_semi_perfect 0
semi_perfect_cache_page_buffer_size 64

num_cpus 1
cpu_freq 4000
dram_io_freq 2400
page_size 4096
block_size 64
max_read_per_cycle 8
max_fill_per_cycle 1
dram_channels 1
log2_dram_channels 0
dram_ranks 1
dram_banks 8
dram_rows 65536
dram_columns 128
dram_row_size 8
dram_size 4096
dram_pages 1048576

fetch_width 6
decode_width 6
exec_width 4
lq_width 2
sq_width 2
retire_width 4
scheduler_size 128
branch_mispredict_penalty 20
rob_size 256
lq_size 72
sq_size 56
num_instr_destinations_sparc 4
num_instr_destinations 2
num_instr_sources 4

itlb_set 16
itlb_way 8
itlb_rq_size 16
itlb_wq_size 16
itlb_pq_size 0
itlb_mshr_size 8
itlb_latency 1

dtlb_set 16
dtlb_way 4
dtlb_rq_size 16
dtlb_wq_size 16
dtlb_pq_size 0
dtlb_mshr_size 8
dtlb_latency 1

stlb_set 128
stlb_way 12
stlb_rq_size 32
stlb_wq_size 32
stlb_pq_size 0
stlb_mshr_size 16
stlb_latency 8

l1i_size 32
l1i_set 64
l1i_way 8
l1i_rq_size 64
l1i_wq_size 64
l1i_pq_size 8
l1i_mshr_size 8
l1i_latency 1

l1d_size 32
l1d_set 64
l1d_way 8
l1d_rq_size 64
l1d_wq_size 64
l1d_pq_size 8
l1d_mshr_size 16
l1d_latency 4

l2c_size 256
l2c_set 512
l2c_way 8
l2c_rq_size 32
l2c_wq_size 32
l2c_pq_size 32
l2c_mshr_size 32
l2c_latency 10

llc_size 2048
llc_set 2048
llc_way 16
llc_rq_size 32
llc_wq_size 32
llc_pq_size 32
llc_mshr_size 64
llc_latency 20

dram_channel_width 8
dram_wq_size 64
dram_rq_size 64
tRP 15
tRCD 15
tCAS 12.5
dram_dbus_turn_around_time 30
dram_write_high_wm 56
dram_write_low_wm 48
min_dram_writes_per_switch 16
dram_mtps 2400
dram_dbus_return_time 13

scooby_alpha 0.0065088
scooby_gamma 0.556301
scooby_epsilon 0.00182284
scooby_state_num_bits 10
scooby_max_states 1024
scooby_seed 200
scooby_policy EGreedy
scooby_learning_type SARSA
scooby_actions 1,3,4,5,10,11,12,22,23,30,32,-1,-3,-6,0,
scooby_max_actions 15
scooby_pt_size 256
scooby_st_size 64
scooby_max_pcs 5
scooby_max_offsets 5
scooby_max_deltas 5
scooby_reward_none -4
scooby_reward_incorrect -8
scooby_reward_correct_untimely 12
scooby_reward_correct_timely 20
scooby_brain_zero_init 0
scooby_enable_reward_all 0
scooby_enable_track_multiple 0
scooby_enable_reward_out_of_bounds 1
scooby_reward_out_of_bounds -12
scooby_state_type 1
scooby_state_hash_type 11
scooby_access_debug 0
scooby_print_access_debug 0
scooby_print_access_debug_pc deadbeef
scooby_print_access_debug_pc_count 0
scooby_print_trace 0
scooby_enable_state_action_stats 1
scooby_enable_reward_tracker_hit 0
scooby_reward_tracker_hit -2
scooby_enable_featurewise_engine 1
scooby_pref_degree 1
scooby_enable_dyn_degree 1
scooby_max_to_avg_q_thresholds 0.5,1,2,
scooby_dyn_degrees 1,2,4,4,
scooby_multi_deg_select_type 2
scooby_last_pref_offset_conf_thresholds 1,3,8,
scooby_dyn_degrees_type2 1,2,4,6,
scooby_action_tracker_size 2
scooby_high_bw_thresh 4
scooby_enable_hbw_reward 1
scooby_reward_hbw_correct_timely 20
scooby_reward_hbw_correct_untimely 12
scooby_reward_hbw_incorrect -14
scooby_reward_hbw_none -2
scooby_reward_hbw_out_of_bounds -12
scooby_reward_hbw_tracker_hit -2
scooby_last_pref_offset_conf_thresholds_hbw 1,3,8,
scooby_dyn_degrees_type2_hbw 1,2,4,6,

le_enable_trace 0
le_trace_interval 0
le_trace_file_name 
le_trace_state 0
le_enable_score_plot 0
le_plot_file_name 
le_plot_actions 
le_enable_action_trace 0
le_action_trace_interval 0
le_action_trace_name 
le_enable_action_plot 0

le_featurewise_active_features PC, PC_Delta
le_featurewise_num_tilings 3,3,
le_featurewise_num_tiles 128,128,
le_featurewise_hash_types 2,2,
le_featurewise_enable_tiling_offset 1,1,
le_featurewise_max_q_thresh 0.5
le_featurewise_enable_action_fallback 1
le_featurewise_feature_weights 1,1,
le_featurewise_enable_dynamic_weight 0
le_featurewise_weight_gradient 0.001
le_featurewise_disable_adjust_weight_all_features_align 1
le_featurewise_selective_update 0
le_featurewise_pooling_type 2
le_featurewise_enable_dyn_action_fallback 1
le_featurewise_bw_acc_check_level 1
le_featurewise_acc_thresh 2
le_featurewise_enable_trace 0
le_featurewise_trace_feature_type 0
le_featurewise_trace_feature 
le_featurewise_trace_interval 0
le_featurewise_trace_record_count 0
le_featurewise_trace_file_name 
le_featurewise_enable_score_plot 0
le_featurewise_plot_actions 
le_featurewise_plot_file_name 


Heartbeat CPU  0 instructions:    1000003 cycles:     266095 heartbeat IPC: 3.75807 cumulative IPC: 3.75807 (Simulation time: 0 hr 0 min 1 sec) 
Heartbeat CPU  0 instructions:    2000000 cycles:     767722 heartbeat IPC: 1.99351 cumulative IPC: 2.60511 (Simulation time: 0 hr 0 min 2 sec) 
Heartbeat CPU  0 instructions:    3000000 cycles:    1366300 heartbeat IPC: 1.67063 cumulative IPC: 2.19571 (Simulation time: 0 hr 0 min 4 sec) 
Heartbeat CPU  0 instructions:    4000000 cycles:    2039934 heartbeat IPC: 1.48449 cumulative IPC: 1.96085 (Simulation time: 0 hr 0 min 6 sec) 
Heartbeat CPU  0 instructions:    5000003 cycles:    2801326 heartbeat IPC: 1.31339 cumulative IPC: 1.78487 (Simulation time: 0 hr 0 min 7 sec) 
Heartbeat CPU  0 instructions:    6000000 cycles:    3660651 heartbeat IPC: 1.16370 cumulative IPC: 1.63905 (Simulation time: 0 hr 0 min 9 sec) 
Heartbeat CPU  0 instructions:    7000002 cycles:    4517665 heartbeat IPC: 1.16684 cumulative IPC: 1.54947 (Simulation time: 0 hr 0 min 11 sec) 
Heartbeat CPU  0 instructions:    8000000 cycles:    5390954 heartbeat IPC: 1.14509 cumulative IPC: 1.48397 (Simulation time: 0 hr 0 min 12 sec) 
Heartbeat CPU  0 instructions:    9000002 cycles:    6258999 heartbeat IPC: 1.15202 cumulative IPC: 1.43793 (Simulation time: 0 hr 0 min 14 sec) 
Heartbeat CPU  0 instructions:   10000000 cycles:    7117923 heartbeat IPC: 1.16425 cumulative IPC: 1.40490 (Simulation time: 0 hr 0 min 16 sec) 

Warmup complete CPU  0 instructions:   10000001 cycles:    7117924 (Simulation time: 0 hr 0 min 16 sec) 

Heartbeat CPU  0 instructions:   11000002 cycles:   10862207 heartbeat IPC: 0.26707 cumulative IPC: 0.26707 (Simulation time: 0 hr 0 min 18 sec) 
Heartbeat CPU  0 instructions:   12000000 cycles:   14371161 heartbeat IPC: 0.28498 cumulative IPC: 0.27574 (Simulation time: 0 hr 0 min 20 sec) 
Heartbeat CPU  0 instructions:   13000001 cycles:   18254163 heartbeat IPC: 0.25753 cumulative IPC: 0.26939 (Simulation time: 0 hr 0 min 23 sec) 
Heartbeat CPU  0 instructions:   14000002 cycles:   21568162 heartbeat IPC: 0.30175 cumulative IPC: 0.27681 (Simulation time: 0 hr 0 min 25 sec) 
Heartbeat CPU  0 instructions:   15000001 cycles:   24982315 heartbeat IPC: 0.29290 cumulative IPC: 0.27989 (Simulation time: 0 hr 0 min 28 sec) 
Heartbeat CPU  0 instructions:   16000000 cycles:   28591339 heartbeat IPC: 0.27708 cumulative IPC: 0.27942 (Simulation time: 0 hr 0 min 30 sec) 
Heartbeat CPU  0 instructions:   17000001 cycles:   32216414 heartbeat IPC: 0.27586 cumulative IPC: 0.27890 (Simulation time: 0 hr 0 min 33 sec) 
Heartbeat CPU  0 instructions:   18000001 cycles:   35731981 heartbeat IPC: 0.28445 cumulative IPC: 0.27958 (Simulation time: 0 hr 0 min 35 sec) 
Heartbeat CPU  0 instructions:   19000002 cycles:   39211808 heartbeat IPC: 0.28737 cumulative IPC: 0.28043 (Simulation time: 0 hr 0 min 38 sec) 
Heartbeat CPU  0 instructions:   20000000 cycles:   42723766 heartbeat IPC: 0.28474 cumulative IPC: 0.28085 (Simulation time: 0 hr 0 min 40 sec) 
Heartbeat CPU  0 instructions:   21000000 cycles:   46191029 heartbeat IPC: 0.28841 cumulative IPC: 0.28152 (Simulation time: 0 hr 0 min 43 sec) 
Heartbeat CPU  0 instructions:   22000003 cycles:   49589161 heartbeat IPC: 0.29428 cumulative IPC: 0.28254 (Simulation time: 0 hr 0 min 45 sec) 
Heartbeat CPU  0 instructions:   23000000 cycles:   52982615 heartbeat IPC: 0.29468 cumulative IPC: 0.28344 (Simulation time: 0 hr 0 min 48 sec) 
Heartbeat CPU  0 instructions:   24000000 cycles:   56298001 heartbeat IPC: 0.30162 cumulative IPC: 0.28467 (Simulation time: 0 hr 0 min 50 sec) 
Heartbeat CPU  0 instructions:   25000002 cycles:   59524353 heartbeat IPC: 0.30995 cumulative IPC: 0.28622 (Simulation time: 0 hr 0 min 53 sec) 
Heartbeat CPU  0 instructions:   26000000 cycles:   62663934 heartbeat IPC: 0.31851 cumulative IPC: 0.28805 (Simulation time: 0 hr 0 min 55 sec) 
Heartbeat CPU  0 instructions:   27000002 cycles:   66062142 heartbeat IPC: 0.29427 cumulative IPC: 0.28841 (Simulation time: 0 hr 0 min 58 sec) 
Heartbeat CPU  0 instructions:   28000000 cycles:   69159767 heartbeat IPC: 0.32283 cumulative IPC: 0.29013 (Simulation time: 0 hr 1 min 0 sec) 
Heartbeat CPU  0 instructions:   29000000 cycles:   72365295 heartbeat IPC: 0.31196 cumulative IPC: 0.29120 (Simulation time: 0 hr 1 min 3 sec) 
Heartbeat CPU  0 instructions:   30000002 cycles:   75639572 heartbeat IPC: 0.30541 cumulative IPC: 0.29188 (Simulation time: 0 hr 1 min 6 sec) 
Heartbeat CPU  0 instructions:   31000000 cycles:   78727118 heartbeat IPC: 0.32388 cumulative IPC: 0.29326 (Simulation time: 0 hr 1 min 8 sec) 
Heartbeat CPU  0 instructions:   32000000 cycles:   81822531 heartbeat IPC: 0.32306 cumulative IPC: 0.29449 (Simulation time: 0 hr 1 min 11 sec) 
Heartbeat CPU  0 instructions:   33000001 cycles:   84969255 heartbeat IPC: 0.31779 cumulative IPC: 0.29543 (Simulation time: 0 hr 1 min 13 sec) 
Heartbeat CPU  0 instructions:   34000003 cycles:   88093056 heartbeat IPC: 0.32012 cumulative IPC: 0.29639 (Simulation time: 0 hr 1 min 16 sec) 
Heartbeat CPU  0 instructions:   35000000 cycles:   91238862 heartbeat IPC: 0.31788 cumulative IPC: 0.29719 (Simulation time: 0 hr 1 min 18 sec) 
Heartbeat CPU  0 instructions:   36000000 cycles:   94284310 heartbeat IPC: 0.32836 cumulative IPC: 0.29828 (Simulation time: 0 hr 1 min 21 sec) 
Heartbeat CPU  0 instructions:   37000000 cycles:   97386058 heartbeat IPC: 0.32240 cumulative IPC: 0.29911 (Simulation time: 0 hr 1 min 23 sec) 
Heartbeat CPU  0 instructions:   38000003 cycles:  100286037 heartbeat IPC: 0.34483 cumulative IPC: 0.30053 (Simulation time: 0 hr 1 min 26 sec) 
Heartbeat CPU  0 instructions:   39000001 cycles:  103389387 heartbeat IPC: 0.32223 cumulative IPC: 0.30123 (Simulation time: 0 hr 1 min 29 sec) 
Heartbeat CPU  0 instructions:   40000000 cycles:  106442521 heartbeat IPC: 0.32753 cumulative IPC: 0.30204 (Simulation time: 0 hr 1 min 31 sec) 
Heartbeat CPU  0 instructions:   41000000 cycles:  109475218 heartbeat IPC: 0.32974 cumulative IPC: 0.30286 (Simulation time: 0 hr 1 min 34 sec) 
Heartbeat CPU  0 instructions:   42000002 cycles:  112450340 heartbeat IPC: 0.33612 cumulative IPC: 0.30380 (Simulation time: 0 hr 1 min 36 sec) 
Heartbeat CPU  0 instructions:   43000001 cycles:  115359796 heartbeat IPC: 0.34371 cumulative IPC: 0.30487 (Simulation time: 0 hr 1 min 39 sec) 
Heartbeat CPU  0 instructions:   44000000 cycles:  118384213 heartbeat IPC: 0.33064 cumulative IPC: 0.30557 (Simulation time: 0 hr 1 min 41 sec) 
Heartbeat CPU  0 instructions:   45000000 cycles:  121402969 heartbeat IPC: 0.33126 cumulative IPC: 0.30625 (Simulation time: 0 hr 1 min 44 sec) 
Heartbeat CPU  0 instructions:   46000000 cycles:  124210182 heartbeat IPC: 0.35623 cumulative IPC: 0.30745 (Simulation time: 0 hr 1 min 47 sec) 
Heartbeat CPU  0 instructions:   47000002 cycles:  127243223 heartbeat IPC: 0.32970 cumulative IPC: 0.30801 (Simulation time: 0 hr 1 min 49 sec) 
Heartbeat CPU  0 instructions:   48000000 cycles:  130233665 heartbeat IPC: 0.33440 cumulative IPC: 0.30865 (Simulation time: 0 hr 1 min 52 sec) 
Heartbeat CPU  0 instructions:   49000003 cycles:  133199201 heartbeat IPC: 0.33721 cumulative IPC: 0.30932 (Simulation time: 0 hr 1 min 54 sec) 
Heartbeat CPU  0 instructions:   50000001 cycles:  136137849 heartbeat IPC: 0.34029 cumulative IPC: 0.31003 (Simulation time: 0 hr 1 min 57 sec) 
Heartbeat CPU  0 instructions:   51000001 cycles:  139058715 heartbeat IPC: 0.34236 cumulative IPC: 0.31075 (Simulation time: 0 hr 2 min 0 sec) 
Heartbeat CPU  0 instructions:   52000000 cycles:  141914725 heartbeat IPC: 0.35014 cumulative IPC: 0.31158 (Simulation time: 0 hr 2 min 2 sec) 
Heartbeat CPU  0 instructions:   53000003 cycles:  144873043 heartbeat IPC: 0.33803 cumulative IPC: 0.31215 (Simulation time: 0 hr 2 min 5 sec) 
Heartbeat CPU  0 instructions:   54000001 cycles:  147770954 heartbeat IPC: 0.34508 cumulative IPC: 0.31283 (Simulation time: 0 hr 2 min 7 sec) 
Heartbeat CPU  0 instructions:   55000000 cycles:  150672837 heartbeat IPC: 0.34460 cumulative IPC: 0.31347 (Simulation time: 0 hr 2 min 10 sec) 
Heartbeat CPU  0 instructions:   56000000 cycles:  153530498 heartbeat IPC: 0.34994 cumulative IPC: 0.31418 (Simulation time: 0 hr 2 min 13 sec) 
Heartbeat CPU  0 instructions:   57000000 cycles:  156379487 heartbeat IPC: 0.35100 cumulative IPC: 0.31488 (Simulation time: 0 hr 2 min 15 sec) 
Heartbeat CPU  0 instructions:   58000000 cycles:  159218194 heartbeat IPC: 0.35227 cumulative IPC: 0.31558 (Simulation time: 0 hr 2 min 18 sec) 
Heartbeat CPU  0 instructions:   59000001 cycles:  162076174 heartbeat IPC: 0.34990 cumulative IPC: 0.31621 (Simulation time: 0 hr 2 min 20 sec) 
Heartbeat CPU  0 instructions:   60000000 cycles:  164864623 heartbeat IPC: 0.35862 cumulative IPC: 0.31696 (Simulation time: 0 hr 2 min 23 sec) 
Finished CPU 0 instructions: 50000001 cycles: 157746707 cumulative IPC: 0.31696 (Simulation time: 0 hr 2 min 23 sec) 

ChampSim completed all CPUs

[ROI Statistics]
Core_0_instructions 50000001
Core_0_cycles 157746707
Core_0_IPC 0.31696

Core_0_branch_prediction_accuracy 94.12279
Core_0_branch_MPKI 8.64524
Core_0_average_ROB_occupancy_at_mispredict 103.65811

Core_0_L1D_total_access 12168172
Core_0_L1D_total_hit 9568931
Core_0_L1D_total_miss 2599241
Core_0_L1D_loads 10838223
Core_0_L1D_load_hit 8524139
Core_0_L1D_load_miss 2314084
Core_0_L1D_RFOs 1329949
Core_0_L1D_RFO_hit 1044792
Core_0_L1D_RFO_miss 285157
Core_0_L1D_prefetches 0
Core_0_L1D_prefetch_hit 0
Core_0_L1D_prefetch_miss 0
Core_0_L1D_writebacks 0
Core_0_L1D_writeback_hit 0
Core_0_L1D_writeback_miss 0
Core_0_L1D_prefetch_requested 0
Core_0_L1D_prefetch_dropped 0
Core_0_L1D_prefetch_issued 0
Core_0_L1D_prefetch_filled 0
Core_0_L1D_prefetch_useful 0
Core_0_L1D_prefetch_useless 0
Core_0_L1D_prefetch_late 0
Core_0_L1D_average_miss_latency 82.64587

Core_0_L1D_rq_access 17886482
Core_0_L1D_rq_forward 0
Core_0_L1D_rq_merged 6903337
Core_0_L1D_rq_to_cache 10983143
Core_0_L1D_rq_full 0

Core_0_L1D_wq_access 1447494
Core_0_L1D_wq_forward 2
Core_0_L1D_wq_merged 951
Core_0_L1D_wq_to_cache 1446543
Core_0_L1D_wq_full 0

Core_0_L1D_pq_access 0
Core_0_L1D_pq_forward 0
Core_0_L1D_pq_merged 0
Core_0_L1D_pq_to_cache 0
Core_0_L1D_pq_full 0

Core_0_L1D_acc_epochs 159958
Core_0_L1D_acc_level_0 159958
Core_0_L1D_acc_level_1 0
Core_0_L1D_acc_level_2 0
Core_0_L1D_acc_level_3 0
Core_0_L1D_acc_level_4 0
Core_0_L1D_acc_level_5 0
Core_0_L1D_acc_level_6 0
Core_0_L1D_acc_level_7 0
Core_0_L1D_acc_level_8 0
Core_0_L1D_acc_level_9 0

Core_0_L1I_total_access 7353339
Core_0_L1I_total_hit 7353339
Core_0_L1I_total_miss 0
Core_0_L1I_loads 7353339
Core_0_L1I_load_hit 7353339
Core_0_L1I_load_miss 0
Core_0_L1I_RFOs 0
Core_0_L1I_RFO_hit 0
Core_0_L1I_RFO_miss 0
Core_0_L1I_prefetches 0
Core_0_L1I_prefetch_hit 0
Core_0_L1I_prefetch_miss 0
Core_0_L1I_writebacks 0
Core_0_L1I_writeback_hit 0
Core_0_L1I_writeback_miss 0
Core_0_L1I_prefetch_requested 0
Core_0_L1I_prefetch_dropped 0
Core_0_L1I_prefetch_issued 0
Core_0_L1I_prefetch_filled 0
Core_0_L1I_prefetch_useful 0
Core_0_L1I_prefetch_useless 0
Core_0_L1I_prefetch_late 0
Core_0_L1I_average_miss_latency -nan

Core_0_L1I_rq_access 50000129
Core_0_L1I_rq_forward 0
Core_0_L1I_rq_merged 42646790
Core_0_L1I_rq_to_cache 7353339
Core_0_L1I_rq_full 0

Core_0_L1I_wq_access 0
Core_0_L1I_wq_forward 0
Core_0_L1I_wq_merged 0
Core_0_L1I_wq_to_cache 0
Core_0_L1I_wq_full 0

Core_0_L1I_pq_access 0
Core_0_L1I_pq_forward 0
Core_0_L1I_pq_merged 0
Core_0_L1I_pq_to_cache 0
Core_0_L1I_pq_full 0

Core_0_L1I_acc_epochs 159958
Core_0_L1I_acc_level_0 159958
Core_0_L1I_acc_level_1 0
Core_0_L1I_acc_level_2 0
Core_0_L1I_acc_level_3 0
Core_0_L1I_acc_level_4 0
Core_0_L1I_acc_level_5 0
Core_0_L1I_acc_level_6 0
Core_0_L1I_acc_level_7 0
Core_0_L1I_acc_level_8 0
Core_0_L1I_acc_level_9 0

Core_0_L2C_total_access 6964303
Core_0_L2C_total_hit 2979240
Core_0_L2C_total_miss 3985063
Core_0_L2C_loads 2314058
Core_0_L2C_load_hit 588272
Core_0_L2C_load_miss 1725786
Core_0_L2C_RFOs 285130
Core_0_L2C_RFO_hit 153865
Core_0_L2C_RFO_miss 131265
Core_0_L2C_prefetches 3550178
Core_0_L2C_prefetch_hit 1427469
Core_0_L2C_prefetch_miss 2122709
Core_0_L2C_writebacks 814937
Core_0_L2C_writeback_hit 809634
Core_0_L2C_writeback_miss 5303
Core_0_L2C_prefetch_requested 4837928
Core_0_L2C_prefetch_dropped 0
Core_0_L2C_prefetch_issued 4837928
Core_0_L2C_prefetch_filled 2478005
Core_0_L2C_prefetch_useful 475489
Core_0_L2C_prefetch_useless 2000477
Core_0_L2C_prefetch_late 65935
Core_0_L2C_average_miss_latency 113.25396

Core_0_L2C_rq_access 2599241
Core_0_L2C_rq_forward 0
Core_0_L2C_rq_merged 0
Core_0_L2C_rq_to_cache 2599188
Core_0_L2C_rq_full 0

Core_0_L2C_wq_access 814937
Core_0_L2C_wq_forward 69
Core_0_L2C_wq_merged 0
Core_0_L2C_wq_to_cache 814937
Core_0_L2C_wq_full 0

Core_0_L2C_pq_access 4837928
Core_0_L2C_pq_forward 0
Core_0_L2C_pq_merged 381030
Core_0_L2C_pq_to_cache 4456882
Core_0_L2C_pq_full 0

Core_0_L2C_acc_epochs 159958
Core_0_L2C_acc_level_0 6236
Core_0_L2C_acc_level_1 92028
Core_0_L2C_acc_level_2 44036
Core_0_L2C_acc_level_3 12138
Core_0_L2C_acc_level_4 3102
Core_0_L2C_acc_level_5 856
Core_0_L2C_acc_level_6 354
Core_0_L2C_acc_level_7 279
Core_0_L2C_acc_level_8 259
Core_0_L2C_acc_level_9 670

Core_0_LLC_total_access 4543181
Core_0_LLC_total_hit 2604663
Core_0_LLC_total_miss 1938518
Core_0_LLC_loads 1661450
Core_0_LLC_load_hit 1072373
Core_0_LLC_load_miss 589077
Core_0_LLC_RFOs 131259
Core_0_LLC_RFO_hit 69823
Core_0_LLC_RFO_miss 61436
Core_0_LLC_prefetches 2187047
Core_0_LLC_prefetch_hit 967216
Core_0_LLC_prefetch_miss 1219831
Core_0_LLC_writebacks 563425
Core_0_LLC_writeback_hit 495251
Core_0_LLC_writeback_miss 68174
Core_0_LLC_prefetch_requested 0
Core_0_LLC_prefetch_dropped 0
Core_0_LLC_prefetch_issued 0
Core_0_LLC_prefetch_filled 1411927
Core_0_LLC_prefetch_useful 103235
Core_0_LLC_prefetch_useless 1297837
Core_0_LLC_prefetch_late 0
Core_0_LLC_average_miss_latency 174.40200

Core_0_LLC_rq_access 1792713
Core_0_LLC_rq_forward 0
Core_0_LLC_rq_merged 0
Core_0_LLC_rq_to_cache 1792709
Core_0_LLC_rq_full 0

Core_0_LLC_wq_access 563425
Core_0_LLC_wq_forward 4
Core_0_LLC_wq_merged 0
Core_0_LLC_wq_to_cache 563425
Core_0_LLC_wq_full 0

Core_0_LLC_pq_access 2543940
Core_0_LLC_pq_forward 0
Core_0_LLC_pq_merged 0
Core_0_LLC_pq_to_cache 2543940
Core_0_LLC_pq_full 0

Core_0_LLC_acc_epochs 161001
Core_0_LLC_acc_level_0 97715
Core_0_LLC_acc_level_1 39464
Core_0_LLC_acc_level_2 15398
Core_0_LLC_acc_level_3 5107
Core_0_LLC_acc_level_4 1315
Core_0_LLC_acc_level_5 1274
Core_0_LLC_acc_level_6 306
Core_0_LLC_acc_level_7 147
Core_0_LLC_acc_level_8 70
Core_0_LLC_acc_level_9 205

Core_0_major_page_fault 0
Core_0_minor_page_fault 8928

scooby_st_lookup 2620705
scooby_st_hit 1935201
scooby_st_evict 685440
scooby_st_insert 685504
scooby_st_streaming 0

scooby_predict_called 2620705
scooby_predict_out_of_bounds 66083
scooby_predict_action_1 1882018
scooby_predict_issue_action_1 1874964
scooby_predict_hit_action_1 7054
scooby_predict_out_of_bounds_action_1 28800
scooby_predict_action_3 16582
scooby_predict_issue_action_3 15603
scooby_predict_hit_action_3 979
scooby_predict_out_of_bounds_action_3 1190
scooby_predict_action_4 14767
scooby_predict_issue_action_4 13992
scooby_predict_hit_action_4 775
scooby_predict_out_of_bounds_action_4 1452
scooby_predict_action_5 15228
scooby_predict_issue_action_5 14361
scooby_predict_hit_action_5 867
scooby_predict_out_of_bounds_action_5 1859
scooby_predict_action_10 11845
scooby_predict_issue_action_10 11206
scooby_predict_hit_action_10 639
scooby_predict_out_of_bounds_action_10 2970
scooby_predict_action_11 10990
scooby_predict_issue_action_11 10425
scooby_predict_hit_action_11 565
scooby_predict_out_of_bounds_action_11 3315
scooby_predict_action_12 10111
scooby_predict_issue_action_12 9567
scooby_predict_hit_action_12 544
scooby_predict_out_of_bounds_action_12 3441
scooby_predict_action_22 6127
scooby_predict_issue_action_22 5753
scooby_predict_hit_action_22 374
scooby_predict_out_of_bounds_action_22 4811
scooby_predict_action_23 6174
scooby_predict_issue_action_23 5873
scooby_predict_hit_action_23 301
scooby_predict_out_of_bounds_action_23 4827
scooby_predict_action_30 4268
scooby_predict_issue_action_30 4015
scooby_predict_hit_action_30 253
scooby_predict_out_of_bounds_action_30 5550
scooby_predict_action_32 4055
scooby_predict_issue_action_32 3805
scooby_predict_hit_action_32 250
scooby_predict_out_of_bounds_action_32 5676
scooby_predict_action_-1 90938
scooby_predict_issue_action_-1 82867
scooby_predict_hit_action_-1 8071
scooby_predict_out_of_bounds_action_-1 1139
scooby_predict_action_-3 14441
scooby_predict_issue_action_-3 12808
scooby_predict_hit_action_-3 1633
scooby_predict_out_of_bounds_action_-3 352
scooby_predict_action_-6 14480
scooby_predict_issue_action_-6 13455
scooby_predict_hit_action_-6 1025
scooby_predict_out_of_bounds_action_-6 701
scooby_predict_action_0 452598
scooby_predict_issue_action_0 0
scooby_predict_hit_action_0 0
scooby_predict_out_of_bounds_action_0 0
scooby_predict_multi_deg_called 856971
scooby_predict_predicted 4837928
scooby_predict_multi_deg 2759234
scooby_predict_multi_deg_2 838195
scooby_predict_multi_deg_3 604602
scooby_predict_multi_deg_4 590505
scooby_predict_multi_deg_5 367637
scooby_predict_multi_deg_6 358295
scooby_predict_multi_deg_7 0
scooby_predict_multi_deg_8 0
scooby_predict_multi_deg_9 0
scooby_predict_multi_deg_10 0
scooby_predict_multi_deg_11 0
scooby_predict_multi_deg_12 0
scooby_predict_multi_deg_13 0
scooby_predict_multi_deg_14 0
scooby_predict_multi_deg_15 0
scooby_predict_multi_deg_16 0

scooby_selected_deg_1 1221723
scooby_selected_deg_2 223712
scooby_selected_deg_3 0
scooby_selected_deg_4 227228
scooby_selected_deg_5 0
scooby_selected_deg_6 406031
scooby_selected_deg_7 0
scooby_selected_deg_8 0
scooby_selected_deg_9 0
scooby_selected_deg_10 0
scooby_selected_deg_11 0
scooby_selected_deg_12 0
scooby_selected_deg_13 0
scooby_selected_deg_14 0
scooby_selected_deg_15 0
scooby_selected_deg_16 0

scooby_state_56546d1c2226|0|0 22186,65,31,24,39,96,23,10,51,34,24,21,13,15,8382,31014,
scooby_state_56546d1c2226|2|0 20032,59,23,14,30,92,28,12,42,22,22,16,17,12,7865,28286,
scooby_state_56546d1c2226|1|0 20190,54,23,22,29,87,14,14,31,32,30,20,15,9,7706,28276,
scooby_state_56546d1c2226|3|0 16233,56,15,21,40,52,11,13,32,18,22,11,17,15,6608,23164,
scooby_state_56546d1c2226|4|0 15742,47,21,17,22,59,15,15,35,20,13,21,8,13,6151,22199,
scooby_state_56546d1c2226|5|0 14490,44,21,15,21,41,14,5,26,16,24,12,14,18,5877,20638,
scooby_state_56546d1c2226|7|0 14145,23,16,9,21,41,11,11,14,17,11,8,7,6,5503,19843,
scooby_state_56546d1c2226|6|0 13830,36,9,24,21,38,14,10,21,19,10,6,3,9,5461,19511,
scooby_state_56546d1c2226|9|0 12325,33,11,18,11,25,10,6,21,11,10,3,4,7,4708,17203,
scooby_state_56546d1c2226|8|0 11627,21,5,8,11,19,10,8,19,9,12,8,10,6,4515,16288,
scooby_state_56546d1c2226|10|0 11415,21,8,8,12,24,9,5,18,7,1,6,6,5,4232,15777,
scooby_state_56546d1c2226|11|0 10528,17,7,7,13,22,9,7,18,6,5,7,4,5,3809,14464,
scooby_state_56546d1c2226|12|0 10042,16,11,7,11,13,3,6,15,5,10,6,3,6,3664,13818,
scooby_state_56546d1c2226|13|0 9619,16,6,9,8,11,6,6,9,8,7,8,3,5,3559,13280,
scooby_state_56546d1c2226|16|0 9586,16,3,9,13,12,7,7,5,10,10,7,2,5,3354,13046,
scooby_state_56546d1c2226|14|0 9058,22,4,3,7,12,1,6,16,6,8,10,3,4,3301,12461,
scooby_state_56546d1c2226|15|0 8752,11,3,8,6,14,5,5,13,7,9,6,4,8,3065,11916,
scooby_state_56546d1c2226|19|0 8649,7,6,11,10,8,8,5,9,7,3,5,1,8,2942,11679,
scooby_state_56546d1c2226|23|0 8694,6,3,5,4,5,4,4,10,6,9,4,5,4,2705,11468,
scooby_state_56546d1c2226|17|0 8370,10,5,5,4,12,3,3,11,11,6,4,7,4,2970,11425,
scooby_state_56546d1c2226|18|0 8326,9,8,5,5,10,7,5,8,6,8,5,6,7,2877,11292,
scooby_state_56546d1c2226|21|0 8313,4,2,2,3,8,7,7,7,5,8,4,8,4,2711,11093,
scooby_state_56546d1c2226|22|0 7792,3,8,9,6,2,6,4,4,5,5,4,6,3,2486,10343,
scooby_state_56546d1c2226|20|0 7320,3,7,2,10,3,4,6,8,3,5,3,3,3,2447,9827,
scooby_state_56546d1c2226|24|0 7259,8,1,6,6,7,6,7,5,5,7,2,7,2,2270,9598,
scooby_state_56546d1c2226|26|0 7149,3,3,4,4,3,3,5,3,5,2,1,8,3,2257,9453,
scooby_state_56546d1c2226|25|0 6873,5,3,3,7,6,4,5,4,9,6,5,3,1,2184,9118,
scooby_state_56546d1c2226|29|0 6845,6,3,4,2,4,4,0,6,4,2,4,7,2,2215,9108,
scooby_state_56546d1c2226|27|0 6918,4,4,3,7,2,3,3,4,4,4,4,4,5,2091,9060,
scooby_state_56546d1c2226|30|0 6399,3,4,4,8,3,5,7,4,4,4,4,1,3,1943,8396,
scooby_state_56546d1c2226|28|0 6265,5,2,5,5,5,2,4,8,4,3,5,7,4,1920,8244,
scooby_state_56546d1c2226|36|0 5984,6,9,3,2,3,5,4,2,6,0,7,4,0,1751,7786,
scooby_state_56546d1c2226|33|0 5575,6,3,4,8,2,4,5,2,1,5,2,4,3,1730,7354,
scooby_state_56546d1c2226|32|0 5555,4,8,2,8,3,5,4,3,2,5,8,4,4,1693,7308,
scooby_state_56546d1c2226|31|0 5468,7,3,3,6,3,2,3,7,2,1,7,4,3,1636,7155,
scooby_state_56546d1c2226|38|0 5516,4,4,2,4,3,2,6,4,4,5,2,3,2,1539,7100,
scooby_state_56546d1c2226|35|0 5416,4,4,1,3,1,2,1,2,3,3,2,3,2,1650,7097,
scooby_state_56546d1c2226|39|0 5277,0,1,4,5,2,2,1,3,3,5,4,2,4,1460,6773,
scooby_state_56546d1c2226|41|0 5145,2,3,5,5,5,2,3,0,5,3,4,3,2,1568,6755,
scooby_state_56546d1c2226|37|0 4998,2,5,6,4,1,3,7,3,7,2,4,1,2,1498,6543,
scooby_state_56546d1c2226|34|0 4970,0,4,4,4,1,3,2,2,4,2,1,4,3,1444,6448,
scooby_state_56546d1c2226|48|0 4973,2,2,4,5,3,3,3,2,4,1,2,2,2,1408,6416,
scooby_state_56546d1c2226|50|0 4886,7,4,6,2,3,1,4,5,4,8,1,6,2,1402,6341,
scooby_state_56546d1c2226|47|0 4943,3,3,4,4,2,3,2,2,1,3,5,1,2,1358,6336,
scooby_state_56546d1c2226|40|0 4811,6,3,2,8,3,5,3,1,3,1,1,3,2,1454,6306,
scooby_state_56546d1c2226|43|0 4861,4,2,3,4,3,3,5,2,4,5,2,0,0,1395,6293,
scooby_state_56546d1c2226|44|0 4754,1,3,2,9,2,2,2,4,3,5,2,1,1,1394,6185,
scooby_state_56546d1c2226|42|0 4608,3,5,2,2,2,5,3,3,1,2,3,4,3,1374,6020,
scooby_state_56546d1c2226|49|0 4328,0,6,2,5,3,3,0,4,2,6,3,4,2,1207,5575,
scooby_state_56546d1c2226|45|0 4289,1,1,1,4,4,5,4,2,3,2,6,4,2,1237,5565,
scooby_state_56546d1c2226|46|0 4184,2,3,2,3,3,0,4,2,2,5,1,5,2,1222,5440,
scooby_state_56546d1c2226|53|0 4136,2,3,0,2,1,0,4,1,3,2,3,1,2,1119,5279,
scooby_state_56546d1c2226|52|0 4039,4,2,4,1,1,2,5,6,5,4,1,1,4,1090,5169,
scooby_state_56546d1c2226|54|0 4033,4,3,3,3,1,5,3,4,3,3,0,4,0,1098,5167,
scooby_state_56546d1c2226|55|0 4025,1,2,2,3,3,2,6,1,3,2,1,1,2,1065,5119,
scooby_state_56546d1c2226|51|0 3854,1,1,3,4,0,2,10,1,4,1,3,3,2,1089,4978,
scooby_state_56546d1c2226|57|0 3893,1,2,3,4,2,1,1,2,0,1,2,3,4,1046,4965,
scooby_state_56546d1c2226|58|0 3913,1,1,2,3,2,0,3,5,1,3,2,0,0,981,4917,
scooby_state_56546d1c2226|56|0 3865,1,5,3,5,3,4,1,3,2,1,2,7,0,1014,4916,
scooby_state_56546d1c2226|61|0 3845,2,4,3,1,3,2,1,2,2,1,1,0,0,981,4848,
scooby_state_56546d1c2226|59|0 3768,0,3,1,2,2,3,3,2,1,2,2,4,1,1025,4819,
scooby_state_56546d1c2226|62|0 3600,0,2,4,1,3,0,2,2,3,1,1,1,2,965,4587,
scooby_state_56546d1c2200|0|0 4386,1,1,2,0,0,0,1,0,0,0,3,0,0,0,4394,
scooby_state_56546d1c2200|23|1 4374,2,0,2,1,1,1,1,0,0,0,5,1,2,1,4391,
scooby_state_56546d1c2200|24|1 4383,1,1,0,1,1,1,0,1,0,0,1,0,1,0,4391,
scooby_state_56546d1c2200|30|1 4378,2,1,1,0,1,0,2,0,1,0,1,1,0,1,4389,
scooby_state_56546d1c2200|31|1 4382,1,0,0,0,0,1,0,2,0,1,0,0,1,0,4388,
scooby_state_56546d1c2200|8|1 4375,0,2,0,1,1,0,0,1,3,1,1,0,0,1,4386,
scooby_state_56546d1c2200|25|1 4377,2,2,0,1,1,1,0,0,0,0,2,0,0,0,4386,
scooby_state_56546d1c2200|29|1 4379,2,0,1,1,0,0,0,0,1,1,1,0,0,0,4386,
scooby_state_56546d1c2200|9|1 4379,1,1,0,1,0,1,0,0,0,0,2,0,0,1,4386,
scooby_state_56546d1c2200|7|1 4377,0,0,0,1,0,0,1,1,1,1,2,0,0,1,4385,
scooby_state_56546d1c2200|20|1 4375,2,2,1,0,1,0,0,1,0,0,3,0,0,0,4385,
scooby_state_56546d1c2200|26|1 4372,1,0,0,0,2,1,0,1,2,0,3,2,0,1,4385,
scooby_state_56546d1c2200|28|1 4376,0,0,1,1,1,2,0,0,1,0,2,1,0,0,4385,
scooby_state_56546d1c2200|21|1 4376,0,0,0,0,0,1,0,0,0,3,2,0,1,1,4384,
scooby_state_56546d1c2200|15|1 4376,1,0,0,0,0,0,0,0,0,1,3,0,1,0,4382,
scooby_state_56546d1c2200|50|1 4370,0,1,1,1,1,1,1,1,1,1,2,0,0,1,4382,
scooby_state_56546d1c2200|5|1 4372,0,1,1,0,1,1,0,0,1,0,2,1,0,1,4381,
scooby_state_56546d1c2200|22|1 4369,1,0,1,0,1,0,1,1,2,1,4,0,0,0,4381,
scooby_state_56546d1c2200|27|1 4369,0,1,0,2,0,1,2,0,1,0,2,1,1,1,4381,
scooby_state_56546d1c2200|32|1 4366,1,0,2,1,2,2,0,2,0,0,3,0,0,2,4381,
scooby_state_56546d1c2200|16|1 4368,2,1,0,2,0,2,0,0,0,0,4,0,1,0,4380,
scooby_state_56546d1c2200|17|1 4369,0,1,2,0,0,1,0,0,0,3,2,0,0,0,4378,
scooby_state_56546d1c2200|11|1 4371,0,1,0,0,0,1,1,0,0,1,2,0,0,1,4378,
scooby_state_56546d1c2200|10|1 4363,2,1,3,1,0,1,0,2,0,0,2,1,1,0,4377,
scooby_state_56546d1c2200|19|1 4369,0,0,0,1,0,0,1,0,0,1,2,0,1,2,4377,
scooby_state_56546d1c2200|18|1 4367,0,1,1,1,1,0,0,1,0,0,2,1,1,1,4377,
scooby_state_56546d1c2200|6|1 4371,0,0,0,1,1,0,0,0,1,0,2,0,1,0,4377,
scooby_state_56546d1c2200|51|1 4371,0,0,0,0,0,0,0,0,0,1,1,0,1,2,4376,
scooby_state_56546d1c2200|13|1 4365,1,1,0,1,0,0,1,0,0,1,2,0,2,1,4375,
scooby_state_56546d1c2200|14|1 4369,0,0,1,1,0,0,0,1,0,0,3,0,0,0,4375,
scooby_state_56546d1c2200|12|1 4367,0,0,0,2,0,0,0,1,1,0,2,1,0,0,4374,
scooby_state_56546d1c2200|4|1 4365,1,2,0,1,1,0,2,1,0,0,1,0,0,0,4374,
scooby_state_56546d1c2200|3|1 4368,0,0,1,0,0,0,0,2,1,0,1,0,0,0,4373,
scooby_state_56546d1c2200|49|1 4365,0,2,0,2,0,0,0,2,0,0,1,0,1,0,4373,
scooby_state_56546d1c2200|36|1 4370,1,0,0,0,0,0,0,0,0,0,0,0,0,1,4372,
scooby_state_56546d1c2200|40|1 4365,1,0,0,0,0,3,1,0,0,1,0,0,0,0,4371,
scooby_state_56546d1c2200|55|1 4364,1,1,1,1,0,1,0,0,0,0,1,0,0,0,4370,
scooby_state_56546d1c2200|58|1 4360,1,0,0,2,0,0,0,0,0,2,3,0,0,1,4369,
scooby_state_56546d1c2200|37|1 4360,0,0,1,1,0,0,1,1,0,1,2,0,2,0,4369,
scooby_state_56546d1c2200|56|1 4363,1,0,0,0,0,2,0,0,0,0,1,0,1,1,4369,
scooby_state_56546d1c2200|35|1 4359,1,0,0,1,0,0,1,1,1,0,0,1,1,1,4367,
scooby_state_56546d1c2200|53|1 4353,0,1,0,2,1,2,0,0,1,0,1,2,3,1,4367,
scooby_state_56546d1c2200|33|1 4359,0,1,0,1,0,0,2,0,1,1,0,0,0,1,4366,
scooby_state_56546d1c2200|1|1 4354,1,1,0,3,1,1,0,0,0,0,3,1,1,0,4366,
scooby_state_56546d1c2200|45|1 4360,0,0,2,0,1,0,0,0,0,1,0,0,1,0,4365,
scooby_state_56546d1c2200|2|1 4356,0,0,0,1,0,1,0,0,0,1,3,2,1,0,4365,
scooby_state_56546d1c2200|46|1 4356,1,0,0,2,1,1,1,0,0,1,2,0,0,0,4365,
scooby_state_56546d1c2200|54|1 4361,0,0,1,0,1,1,1,0,0,0,0,0,0,0,4365,
scooby_state_56546d1c2200|39|1 4357,0,1,2,0,1,1,1,0,0,0,0,0,1,0,4364,
scooby_state_56546d1c2200|38|1 4363,0,0,0,0,0,0,0,0,0,0,1,0,0,0,4364,
scooby_state_56546d1c2200|41|1 4357,0,1,2,2,0,0,0,0,0,0,1,0,1,0,4364,
scooby_state_56546d1c2200|57|1 4353,0,2,0,1,1,1,1,0,0,1,3,0,0,0,4363,
scooby_state_56546d1c2200|44|1 4357,0,0,0,2,0,0,0,0,3,1,0,0,0,0,4363,
scooby_state_56546d1c2200|48|1 4357,3,1,0,0,0,1,0,0,0,0,0,1,0,0,4363,
scooby_state_56546d1c2200|52|1 4356,0,0,0,0,1,1,1,0,2,0,1,1,0,0,4363,
scooby_state_56546d1c2200|34|1 4353,1,0,0,0,1,0,2,0,1,1,1,1,1,0,4362,
scooby_state_56546d1c2200|62|1 4356,1,0,1,0,0,0,0,2,0,0,1,0,0,1,4362,
scooby_state_56546d1c2200|42|1 4349,1,2,1,0,1,0,1,0,0,2,1,2,1,1,4362,
scooby_state_56546d1c2200|59|1 4352,0,0,0,2,1,1,0,0,2,0,2,0,0,0,4360,
scooby_state_56546d1c2200|61|1 4349,0,0,0,1,1,0,1,1,0,0,1,2,1,2,4359,
scooby_state_56546d1c2200|47|1 4350,0,0,0,0,3,3,2,0,0,0,0,1,0,0,4359,
scooby_state_56546d1c2200|63|1 4349,0,0,1,0,1,1,1,0,1,0,2,1,0,0,4357,
scooby_state_56546d1c2200|43|1 4351,1,0,1,1,0,0,0,0,0,0,2,0,0,1,4357,
scooby_state_56546d1c2200|60|1 4351,0,0,1,0,0,0,0,0,1,0,0,0,0,2,4355,
scooby_state_56546d1c2226|63|0 3377,1,0,5,3,4,3,2,0,2,0,1,2,0,920,4320,
scooby_state_56546d1c2226|60|0 3285,3,3,3,2,3,1,6,2,2,5,2,3,2,890,4212,
scooby_state_56546d1c2226|23|1 3010,11,6,13,10,8,5,6,8,7,2,2,4,2,752,3846,
scooby_state_56546d1c2226|50|1 2912,19,13,20,12,12,8,8,8,6,5,6,5,4,725,3763,
scooby_state_56546d1c2226|48|1 2898,16,14,18,6,4,7,10,9,5,6,9,6,2,739,3749,
scooby_state_56546d1c2226|39|1 2947,21,13,14,11,5,9,5,6,3,8,4,6,8,687,3747,
scooby_state_56546d1c2226|24|1 2937,11,8,9,8,6,5,7,7,5,4,5,6,5,668,3691,
scooby_state_56546d1c2226|45|1 2873,10,8,15,8,7,6,6,3,6,9,3,8,4,725,3691,
scooby_state_56546d1c2226|56|1 2804,15,17,15,6,8,7,10,4,3,9,6,4,8,766,3682,
scooby_state_56546d1c2226|53|1 2805,9,9,17,8,10,10,7,7,6,5,4,7,13,753,3670,
scooby_state_56546d1c2226|51|1 2875,11,11,17,2,9,6,6,7,7,7,6,3,6,694,3667,
scooby_state_56546d1c2226|62|1 2798,15,18,17,7,9,4,5,6,3,4,9,6,4,762,3667,
scooby_state_56546d1c2226|41|1 2893,16,5,15,14,9,8,3,5,6,4,5,2,3,645,3633,
scooby_state_56546d1c2226|55|1 2760,16,20,16,8,14,10,12,4,3,1,7,5,8,745,3629,
scooby_state_56546d1c2226|21|1 2893,14,6,13,6,11,7,4,7,4,5,6,3,4,632,3615,
scooby_state_56546d1c2226|38|1 2850,7,12,14,10,7,12,1,7,4,5,3,4,6,668,3610,
scooby_state_56546d1c2226|47|1 2816,23,13,14,3,11,10,1,11,7,5,1,9,3,663,3590,
scooby_state_56546d1c2226|60|1 2733,16,19,24,6,10,9,1,6,6,5,3,8,1,736,3583,
scooby_state_56546d1c2226|58|1 2801,15,16,22,11,4,15,3,8,7,5,6,5,4,655,3577,
scooby_state_56546d1c2226|10|1 2776,13,4,10,8,5,9,5,6,4,5,1,6,5,710,3567,
scooby_state_56546d1c2226|40|1 2831,16,11,22,7,6,4,2,5,2,4,0,1,5,649,3565,
scooby_state_56546d1c2226|44|1 2764,13,8,10,11,6,7,7,5,2,3,9,4,5,676,3530,
scooby_state_56546d1c2226|49|1 2707,9,11,15,11,8,12,5,10,9,4,6,6,5,703,3521,
scooby_state_56546d1c2226|30|1 2771,13,13,14,7,9,10,3,4,2,3,5,0,6,635,3495,
scooby_state_56546d1c2226|57|1 2679,7,11,18,5,7,9,3,4,5,4,4,3,8,723,3490,
scooby_state_56546d1c2226|42|1 2756,8,8,11,9,8,4,9,5,2,3,2,4,5,655,3489,
scooby_state_56546d1c2226|29|1 2779,8,10,11,12,6,3,5,4,7,5,7,1,6,612,3476,
scooby_state_56546d1c2226|4|1 2665,22,19,9,8,3,13,5,5,4,2,7,4,3,706,3475,
scooby_state_56546d1c2226|14|1 2719,10,11,15,7,8,7,2,4,5,4,5,4,5,663,3469,
scooby_state_56546d1c2226|26|1 2741,12,10,9,6,8,8,10,7,4,7,4,2,12,625,3465,
scooby_state_56546d1c2226|17|1 2708,12,11,13,3,7,8,6,5,5,3,6,0,8,666,3461,
scooby_state_56546d1c2226|11|1 2734,10,8,15,14,9,6,3,7,2,6,7,5,3,630,3459,
scooby_state_56546d1c2226|33|1 2703,10,9,12,8,6,8,2,4,2,4,6,1,3,678,3456,
scooby_state_56546d1c2226|22|1 2736,9,11,10,10,6,7,4,2,4,2,5,5,3,632,3446,
scooby_state_56546d1c2226|20|1 2749,8,12,14,5,8,6,3,5,4,4,4,4,4,610,3440,
scooby_state_56546d1c2226|16|1 2771,8,6,16,6,9,5,3,5,3,6,5,0,6,590,3439,
scooby_state_56546d1c2226|36|1 2717,12,15,9,7,4,6,7,5,2,5,4,7,1,638,3439,
scooby_state_56546d1c2226|25|1 2726,11,8,9,5,9,5,6,4,9,3,2,5,4,629,3435,
scooby_state_56546d1c2226|7|1 2699,10,16,15,7,5,5,1,2,3,7,6,3,0,655,3434,
scooby_state_56546d1c2226|19|1 2729,11,9,7,4,8,5,4,5,3,6,7,3,3,628,3432,
scooby_state_56546d1c2226|43|1 2684,7,8,9,11,8,5,9,1,3,0,3,8,5,647,3408,
scooby_state_56546d1c2226|9|1 2665,10,4,9,10,6,5,7,3,5,3,10,9,7,654,3407,
scooby_state_56546d1c2226|63|1 2676,9,12,11,6,7,8,8,7,3,7,6,3,5,639,3407,
scooby_state_56546d1c2226|6|1 2679,16,9,8,3,3,7,4,4,4,5,4,5,5,646,3402,
scooby_state_56546d1c2226|52|1 2646,13,6,14,6,9,12,7,5,5,2,3,4,3,665,3400,
scooby_state_56546d1c2226|61|1 2627,17,13,17,13,6,11,4,5,7,6,9,7,4,643,3389,
scooby_state_56546d1c2226|46|1 2652,17,10,15,5,6,7,5,5,11,4,10,5,8,615,3375,
scooby_state_56546d1c2226|3|1 2585,17,12,16,10,7,6,4,9,4,7,7,5,1,671,3361,
scooby_state_56546d1c2226|28|1 2707,14,12,11,5,6,5,3,1,6,2,9,8,1,570,3360,
scooby_state_56546d1c2226|18|1 2665,14,9,15,7,2,8,2,3,2,6,5,5,2,608,3353,
scooby_state_56546d1c2226|13|1 2643,9,9,9,5,7,8,3,5,4,2,8,6,4,622,3344,
scooby_state_56546d1c2226|27|1 2680,11,13,10,6,6,3,3,2,5,1,6,3,6,586,3341,
scooby_state_56546d1c2226|54|1 2574,8,15,12,5,10,6,6,6,6,5,7,5,8,660,3333,
scooby_state_56546d1c2226|2|1 2529,13,13,13,8,8,7,7,5,3,7,7,6,3,691,3320,
scooby_state_56546d1c2226|49|2 2390,10,8,10,2,6,6,2,3,5,4,160,5,7,692,3310,
scooby_state_56546d1c2226|32|1 2615,10,12,10,10,10,6,4,4,5,2,8,5,4,605,3310,
scooby_state_56546d1c2226|31|1 2608,10,11,9,12,11,6,3,5,6,6,5,4,5,604,3305,
scooby_state_56546d1c2226|59|1 2585,10,12,12,10,6,5,2,7,3,5,4,7,1,628,3297,
scooby_state_56546d1c2226|55|2 2417,8,6,8,7,6,5,8,2,3,5,132,6,4,678,3295,
scooby_state_56546d1c2226|5|1 2575,12,7,8,6,9,10,0,1,4,9,5,6,7,627,3286,
scooby_state_56546d1c2226|37|1 2604,6,8,13,5,7,8,8,3,3,5,3,4,1,592,3270,
scooby_state_56546d1c2226|61|2 2299,8,8,8,5,10,3,3,6,7,3,178,9,6,693,3246,
scooby_state_56546d1c2226|12|1 2602,13,8,12,8,5,5,4,8,2,9,2,4,6,554,3242,
scooby_state_56546d1c2226|8|1 2541,16,3,10,12,7,7,3,4,1,2,6,3,5,609,3229,
scooby_state_56546d1c2226|35|1 2562,4,9,14,9,8,8,4,7,3,4,4,4,2,573,3215,
scooby_state_56546d1c2226|1|1 2485,9,9,15,10,7,6,7,2,5,3,9,5,6,623,3201,
scooby_state_56546d1c2226|44|2 2358,10,5,8,4,5,5,6,12,9,4,130,2,4,623,3185,
scooby_state_56546d1c2226|50|2 2308,6,13,3,5,8,5,3,5,4,6,161,6,4,606,3143,
scooby_state_56546d1c2226|16|2 2294,6,13,8,9,4,4,5,8,5,4,144,3,5,590,3102,
scooby_state_56546d1c2226|23|2 2288,5,5,9,5,6,7,6,3,1,3,134,6,5,606,3089,
scooby_state_56546d1c2226|34|1 2445,8,7,14,10,7,8,4,7,5,3,5,1,7,537,3068,
scooby_state_56546d1c2226|15|1 2410,13,6,11,5,7,10,6,4,6,2,5,3,3,570,3061,
scooby_state_56546d1c2226|21|2 2279,3,8,6,1,9,4,3,4,3,10,117,3,3,593,3046,
scooby_state_56546d1c2226|38|2 2224,8,10,8,5,6,5,3,6,4,6,142,2,6,608,3043,
scooby_state_56546d1c2226|51|2 2222,10,10,5,9,6,7,4,3,4,4,127,6,7,590,3014,
scooby_state_56546d1c2226|59|2 2174,10,7,4,8,10,4,9,4,6,4,143,3,2,621,3009,
scooby_state_56546d1c2226|52|2 2159,6,12,7,8,3,7,6,4,3,2,158,3,4,619,3001,
scooby_state_56546d1c2226|26|2 2232,5,1,6,7,4,4,5,3,3,4,132,9,2,579,2996,
scooby_state_56546d1c2226|27|2 2241,2,8,6,9,7,4,2,6,5,3,148,1,2,538,2982,
scooby_state_56546d1c2226|57|2 2157,5,9,5,7,8,7,5,11,4,0,150,2,7,579,2956,
scooby_state_56546d1c2226|41|2 2172,5,9,4,3,5,1,7,2,5,3,135,6,8,582,2947,
scooby_state_56546d1c2226|25|2 2207,7,7,8,7,7,7,4,4,3,2,130,6,4,540,2943,
scooby_state_56546d1c2226|46|2 2162,8,7,12,3,6,8,4,3,2,2,127,6,2,569,2921,
scooby_state_56546d1c2226|28|2 2137,8,3,6,3,4,1,3,1,2,6,126,1,4,572,2877,
scooby_state_56546d1c2226|30|2 2101,7,5,12,5,3,3,6,11,1,4,137,5,3,564,2867,
scooby_state_56546d1c2226|4|2 2097,5,5,8,4,7,11,4,3,2,7,134,6,3,571,2867,
scooby_state_56546d1c2226|13|2 2131,5,8,6,4,8,4,5,6,1,4,132,2,6,537,2859,
scooby_state_56546d1c2226|48|2 2124,5,17,11,5,8,8,3,8,3,2,122,3,6,534,2859,
scooby_state_56546d1c2226|60|2 2102,10,9,3,6,6,3,3,7,2,3,123,4,4,573,2858,
scooby_state_56546d1c2226|3|2 2116,8,5,6,6,6,3,4,3,2,5,120,1,2,548,2835,
scooby_state_56546d1c2226|53|2 2068,6,7,4,4,9,7,5,2,2,4,121,5,4,578,2826,
scooby_state_56546d1c2226|17|2 2078,12,8,7,7,8,2,5,0,3,3,129,6,5,546,2819,
scooby_state_56546d1c2226|56|2 2031,5,5,17,5,9,5,6,8,2,2,124,4,4,578,2805,
scooby_state_56546d1c2226|2|2 2018,3,16,4,2,5,5,4,6,5,1,130,2,7,582,2790,
scooby_state_56546d1c2226|58|2 1984,9,8,9,6,6,5,4,3,5,1,122,7,3,600,2772,
scooby_state_56546d1c2226|19|2 2084,7,6,5,2,5,5,8,4,4,4,111,2,2,516,2765,
scooby_state_56546d1c2226|9|2 2040,6,4,6,8,7,4,4,3,4,5,119,2,2,550,2764,
scooby_state_56546d1c2226|43|2 2094,4,5,5,5,7,4,2,6,4,2,121,1,3,495,2758,
scooby_state_56546d1c2226|24|2 2046,2,4,1,4,6,6,8,8,2,0,120,3,7,540,2757,
scooby_state_56546d1c2226|11|2 2048,6,5,7,7,5,7,3,7,1,1,138,5,4,496,2740,
scooby_state_56546d1c2226|35|2 2053,4,7,2,4,5,2,3,2,7,4,116,4,5,496,2714,
scooby_state_56546d1c2226|18|2 2033,3,6,1,7,4,4,2,4,3,1,128,1,2,498,2697,
scooby_state_56546d1c2226|62|2 1924,14,7,6,9,8,4,2,4,2,3,125,6,0,580,2694,
scooby_state_56546d1c2226|20|2 2024,3,3,4,4,7,3,3,1,1,2,97,2,4,527,2685,
scooby_state_56546d1c2226|40|2 1987,3,9,5,3,3,5,3,6,1,3,119,2,4,530,2683,
scooby_state_56546d1c2226|32|2 1979,8,9,6,4,5,4,3,5,3,2,112,6,3,512,2661,
scooby_state_56546d1c2226|12|2 1967,5,7,6,7,9,2,2,6,3,6,102,6,3,514,2645,
scooby_state_56546d1c2226|8|2 1972,5,4,4,4,4,0,2,6,5,5,106,8,4,510,2639,
scooby_state_56546d1c2226|29|2 1994,8,4,0,6,3,4,2,5,1,3,114,5,5,458,2612,
scooby_state_56546d1c2226|42|2 1967,3,6,5,4,4,3,5,1,1,3,120,1,3,485,2611,
scooby_state_56546d1c2226|7|2 1965,7,4,6,1,5,6,5,2,4,3,104,2,6,489,2609,
scooby_state_56546d1c2226|41|3 1935,14,12,9,12,9,9,6,9,3,7,3,3,9,569,2609,
scooby_state_56546d1c2226|15|2 1902,6,8,5,8,5,5,2,5,1,2,135,3,7,512,2606,
scooby_state_56546d1c2226|37|2 1965,6,3,4,6,5,2,0,1,1,3,117,6,5,481,2605,
scooby_state_56546d1c2226|63|2 1862,8,7,7,4,5,7,2,4,1,4,128,7,1,558,2605,
scooby_state_56546d1c2226|47|2 1932,5,12,5,3,5,4,5,6,3,10,115,3,5,492,2605,
scooby_state_56546d1c2226|45|2 1907,10,6,3,4,6,6,3,7,0,6,126,3,4,513,2604,
scooby_state_56546d1c2226|54|2 1886,8,4,2,7,4,4,3,5,5,2,115,5,1,551,2602,
scooby_state_56546d1c2226|22|2 1954,4,4,4,3,9,5,3,1,3,2,109,4,6,469,2580,
scooby_state_56546d1c2226|36|2 1854,5,6,4,3,5,6,2,2,4,2,121,1,3,555,2573,
scooby_state_56546d1c2226|6|2 1900,2,7,9,5,6,2,7,5,4,7,110,3,1,500,2568,
scooby_state_56546d1c2226|5|2 1892,8,6,8,4,8,3,3,6,2,3,114,3,4,492,2556,
scooby_state_56546d1c2226|39|2 1949,4,8,5,3,7,5,2,3,1,1,119,4,2,435,2548,
scooby_state_56546d1c2226|31|2 1934,3,7,2,4,4,0,4,2,0,4,110,4,5,461,2544,
scooby_state_56546d1c2226|10|2 1901,6,6,4,5,9,2,4,3,3,5,100,3,2,455,2508,
scooby_state_56546d1c2226|57|3 1842,11,13,13,8,9,10,5,8,7,6,6,5,6,558,2507,
scooby_state_56546d1c2226|19|3 1865,22,9,13,8,6,8,7,5,2,5,7,4,2,541,2504,
scooby_state_56546d1c2226|24|3 1843,14,12,9,8,11,9,6,3,2,2,3,3,6,571,2502,
scooby_state_56546d1c2226|48|3 1844,10,17,6,5,12,14,6,9,7,8,5,10,3,545,2501,
scooby_state_56546d1c2226|50|3 1836,14,7,7,9,9,8,4,3,4,3,7,7,4,539,2461,
scooby_state_56546d1c2226|53|3 1785,18,12,8,12,9,13,7,6,7,2,7,4,7,553,2450,
scooby_state_56546d1c2226|14|2 1810,3,7,5,0,5,4,3,3,4,4,111,6,4,431,2400,
scooby_state_56546d1c2226|13|3 1763,7,10,11,5,6,9,2,5,1,3,4,3,7,555,2391,
scooby_state_56546d1c2226|56|3 1695,17,6,15,13,5,7,4,4,7,1,6,1,8,592,2381,
scooby_state_56546d1c2226|55|3 1743,6,4,12,9,9,11,3,6,3,3,6,6,10,549,2380,
scooby_state_56546d1c2226|34|2 1796,4,7,0,4,3,2,0,2,2,2,85,3,2,467,2379,
scooby_state_56546d1c2226|33|2 1792,5,8,4,6,4,6,5,3,2,6,93,1,3,438,2376,
scooby_state_56546d1c2226|39|3 1733,14,10,6,13,7,13,8,4,0,5,4,4,1,531,2353,
scooby_state_56546d1c2226|26|3 1756,12,7,9,8,6,9,5,6,2,3,3,2,5,518,2351,
scooby_state_56546d1c2226|60|3 1694,14,9,5,10,9,18,4,3,1,5,7,5,5,553,2342,
scooby_state_56546d1c2226|61|3 1652,15,16,15,9,11,7,7,6,8,10,7,4,4,565,2336,
scooby_state_56546d1c2226|54|3 1738,7,8,7,7,4,9,5,3,10,9,3,4,8,494,2316,
scooby_state_56546d1c2226|16|3 1715,11,14,15,7,9,5,4,5,3,3,6,5,8,488,2298,
scooby_state_56546d1c2226|33|3 1714,14,9,7,6,9,6,5,7,2,4,2,5,4,486,2280,
scooby_state_56546d1c2226|44|3 1673,13,15,14,11,13,9,7,3,2,6,1,4,7,499,2277,
scooby_state_56546d1c2226|59|3 1623,15,14,8,15,6,10,9,7,4,7,1,2,6,542,2269,
scooby_state_56546d1c2226|12|3 1674,14,14,6,9,7,10,7,5,2,4,2,4,3,507,2268,
scooby_state_56546d1c2226|5|3 1691,12,13,6,7,11,8,3,3,2,5,6,9,2,489,2267,
scooby_state_56546d1c2226|42|3 1634,8,13,8,7,6,12,7,8,1,8,7,6,2,536,2263,
scooby_state_56546d1c2226|47|3 1642,17,12,12,7,10,9,4,9,5,3,3,5,3,514,2255,
scooby_state_56546d1c2226|36|3 1701,11,3,6,10,5,9,4,3,2,3,5,4,6,483,2255,
scooby_state_56546d1c2226|54|4 1581,15,7,4,5,5,1,9,2,5,7,6,8,19,579,2253,
scooby_state_56546d1c2226|25|3 1712,12,8,4,6,8,5,3,4,4,4,7,7,4,464,2252,
scooby_state_56546d1c2226|31|3 1694,12,3,10,3,7,8,7,2,1,6,5,2,5,467,2232,
scooby_state_56546d1c2226|27|3 1665,10,7,3,9,7,7,3,5,1,3,5,2,5,495,2227,
scooby_state_56546d1c2226|21|3 1650,18,15,6,10,6,10,6,4,6,4,4,3,8,470,2220,
scooby_state_56546d1c2226|35|3 1670,12,12,14,7,8,8,7,4,2,3,2,5,1,461,2216,
scooby_state_56546d1c2226|9|3 1660,12,11,3,8,8,14,5,2,0,3,3,2,1,480,2212,
scooby_state_56546d1c2226|62|3 1591,13,13,11,6,6,10,5,1,7,3,3,2,5,532,2208,
scooby_state_56546d1c2226|52|3 1637,8,8,5,11,7,5,6,6,4,3,5,5,3,495,2208,
scooby_state_56546d1c2226|7|3 1621,8,3,8,9,2,12,5,5,3,5,1,7,5,505,2199,
scooby_state_56546d1c2226|38|3 1606,7,9,10,7,5,7,6,11,4,7,4,5,6,504,2198,
scooby_state_56546d1c2226|6|3 1625,16,7,7,7,4,11,6,5,3,6,7,9,3,481,2197,
scooby_state_56546d1c2226|22|3 1657,12,6,5,8,5,7,5,3,4,8,5,3,5,447,2180,
scooby_state_56546d1c2226|28|3 1646,12,6,6,5,4,10,2,2,4,7,8,6,3,450,2171,
scooby_state_56546d1c2226|51|3 1576,14,11,5,13,8,13,7,5,3,4,5,5,3,485,2157,
scooby_state_56546d1c2226|23|3 1623,6,8,6,4,5,9,6,0,2,3,9,4,3,468,2156,
scooby_state_56546d1c2226|23|4 1574,13,8,6,4,7,6,8,6,5,6,6,5,13,484,2151,
scooby_state_56546d1c2226|37|3 1634,12,5,3,7,6,11,7,3,2,3,2,6,3,437,2141,
scooby_state_56546d1c2226|34|3 1585,14,7,10,2,9,14,5,6,4,6,4,6,5,461,2138,
scooby_state_56546d1c2226|30|3 1619,10,6,7,3,4,11,1,1,1,2,5,8,9,450,2137,
scooby_state_56546d1c2226|15|3 1615,7,7,12,5,4,12,5,4,3,5,1,8,8,438,2134,
scooby_state_56546d1c2226|29|3 1606,13,7,1,6,4,1,4,5,10,5,3,0,7,453,2125,
scooby_state_56546d1c2226|8|3 1542,13,12,10,6,5,8,10,2,4,3,5,6,4,490,2120,
scooby_state_56546d1c2226|58|3 1511,10,5,9,11,6,13,3,7,5,8,3,4,5,518,2118,
scooby_state_56546d1c2226|17|3 1616,10,8,6,5,8,10,3,1,6,2,1,1,5,436,2118,
scooby_state_56546d1c2226|20|3 1587,7,6,7,6,8,8,2,1,3,2,11,4,7,458,2117,
scooby_state_56546d1c2226|63|3 1524,14,9,4,5,4,12,8,7,6,5,3,3,1,509,2114,
scooby_state_56546d1c2226|14|3 1590,12,6,9,6,6,11,5,5,4,2,7,9,2,429,2103,
scooby_state_56546d1c2226|3|3 1538,14,9,6,2,5,8,4,0,2,4,5,3,4,488,2092,
scooby_state_56546d1c2226|10|3 1569,11,13,4,3,9,4,4,5,5,4,4,3,1,444,2083,
scooby_state_56546d1c2226|53|4 1475,6,4,15,8,5,5,8,6,2,6,5,12,18,506,2081,
scooby_state_56546d1c2226|57|4 1442,12,7,7,4,11,7,9,7,8,1,8,7,14,523,2067,
scooby_state_56546d1c2226|49|3 1508,14,2,10,12,9,6,7,5,0,4,5,5,3,472,2062,
scooby_state_56546d1c2226|43|3 1543,10,8,8,8,11,10,3,2,1,4,3,6,4,440,2061,
scooby_state_56546d1c2226|47|4 1486,12,7,11,7,8,4,7,7,4,2,7,5,11,477,2055,
scooby_state_56546d1c2226|40|3 1528,9,9,4,1,7,9,2,4,4,3,1,6,4,450,2041,
scooby_state_56546d1c2226|11|3 1529,10,6,2,1,9,6,5,3,2,0,2,3,5,443,2026,
scooby_state_56546d1c2226|32|3 1462,17,7,5,3,6,9,9,1,5,5,6,2,6,477,2020,
scooby_state_56546d1c2226|45|3 1473,13,5,8,9,7,6,4,3,2,5,7,2,5,464,2013,
scooby_state_56546d1c2226|18|3 1500,10,10,6,3,9,12,3,4,1,3,1,1,11,432,2006,
scooby_state_56546d1c2226|50|4 1439,7,3,4,4,3,8,4,6,3,3,6,1,22,474,1987,
scooby_state_56546d1c2226|55|4 1435,12,2,5,8,5,3,9,4,4,5,8,5,13,451,1969,
scooby_state_56546d1c2226|5|4 1410,9,4,5,9,8,3,6,1,1,7,5,5,16,476,1965,
scooby_state_56546d1c2226|42|4 1406,12,8,6,2,3,6,2,2,2,3,5,2,11,482,1952,
scooby_state_56546d1c2226|9|4 1381,12,8,11,5,11,4,3,6,1,8,8,7,16,470,1951,
scooby_state_56546d1c2226|52|4 1351,7,4,10,6,9,9,1,4,3,3,9,4,14,508,1942,
scooby_state_56546d1c2226|59|4 1382,9,2,7,5,8,6,6,5,5,7,7,6,11,474,1940,
scooby_state_56546d1c2226|4|3 1422,9,5,5,4,4,10,5,3,6,5,4,3,3,452,1940,
scooby_state_56546d1c2226|48|4 1363,7,6,9,5,6,4,8,6,3,5,10,5,17,484,1938,
scooby_state_56546d1c2226|46|3 1427,11,4,12,7,6,5,2,1,0,9,2,3,3,435,1927,
scooby_state_56546d1c2226|30|4 1373,12,3,6,5,1,5,3,5,6,2,4,10,16,467,1918,
scooby_state_56546d1c2226|33|4 1430,10,4,5,2,5,4,3,7,2,2,8,7,12,414,1915,
scooby_state_56546d1c2226|29|4 1404,6,2,6,5,10,5,10,5,4,5,8,4,14,418,1906,
scooby_state_56546d1c2226|44|4 1373,4,7,3,3,3,5,6,5,0,5,5,1,19,464,1903,
scooby_state_56546d1c2226|22|4 1372,17,2,7,5,5,4,6,7,2,4,7,4,15,444,1901,
scooby_state_56546d1c2226|21|4 1364,8,6,11,3,4,6,5,3,3,4,4,6,8,461,1896,
scooby_state_56546d1c2226|56|4 1356,13,7,9,6,3,6,7,7,4,1,6,5,11,446,1887,
scooby_state_56546d1c2226|37|4 1396,12,3,9,2,3,6,6,1,2,8,7,6,10,415,1886,
scooby_state_56546d1c2226|27|4 1393,9,5,4,3,3,6,4,5,2,0,8,3,12,423,1880,
scooby_state_56546d1c2226|20|4 1353,9,3,7,9,6,6,6,4,4,4,14,12,13,421,1871,
scooby_state_56546d1c2226|31|4 1364,7,3,9,4,9,5,5,8,4,7,3,2,8,431,1869,
scooby_state_56546d1c2226|11|4 1354,8,2,2,6,11,4,9,2,3,6,10,8,10,430,1865,
scooby_state_56546d1c2226|28|4 1365,8,6,9,1,7,4,6,2,4,0,6,4,12,427,1861,
scooby_state_56546d1c2226|40|4 1340,5,3,4,7,3,7,5,6,2,3,3,5,7,459,1859,
scooby_state_56546d1c2226|16|4 1334,5,1,4,5,6,5,3,6,6,3,6,7,9,453,1853,
scooby_state_56546d1c2226|63|4 1317,6,5,5,5,7,7,5,4,3,4,4,5,8,467,1852,
scooby_state_56546d1c2226|8|4 1321,15,7,12,4,4,5,2,7,4,2,4,5,14,445,1851,
scooby_state_56546d1c2226|41|4 1347,11,2,5,6,4,8,7,3,4,3,5,9,7,426,1847,
scooby_state_56546d1c2226|55|5 1303,9,8,9,8,7,1,7,3,6,4,9,2,4,464,1844,
scooby_state_56546d1c2226|6|4 1350,13,1,8,4,5,6,3,2,1,4,5,6,11,425,1844,
scooby_state_56546d1c2226|58|4 1318,13,5,4,1,4,2,4,3,4,1,8,4,11,460,1842,
scooby_state_56546d1c2226|7|5 1277,11,10,8,10,10,5,3,4,6,5,7,9,6,465,1836,
scooby_state_56546d1c2226|35|4 1342,14,7,9,5,6,6,3,3,8,5,8,5,7,404,1832,
scooby_state_56546d1c2226|41|5 1253,9,8,4,8,5,6,4,9,2,4,8,5,4,502,1831,
scooby_state_56546d1c2226|25|4 1312,6,7,11,1,2,7,6,6,4,1,8,4,13,432,1820,
scooby_state_56546d1c2226|49|4 1278,5,6,5,5,6,9,5,1,5,3,4,5,10,471,1818,
scooby_state_56546d1c2226|39|4 1317,11,5,11,3,3,3,10,5,4,1,6,4,13,417,1813,
scooby_state_56546d1c2226|60|4 1264,12,2,8,8,7,5,3,6,8,1,10,4,13,461,1812,
scooby_state_56546d1c2226|51|4 1285,6,7,8,3,8,2,3,5,3,3,7,4,14,446,1804,
scooby_state_56546d1c2226|7|4 1282,12,5,8,1,5,9,4,3,3,2,9,5,17,434,1799,
scooby_state_56546d1c2226|17|4 1251,6,3,10,4,2,6,5,5,3,4,6,5,7,457,1774,
scooby_state_56546d1c2226|10|4 1285,15,4,9,5,5,6,6,3,1,2,6,7,8,409,1771,
scooby_state_56546d1c2226|61|4 1220,12,8,10,3,3,6,2,7,4,6,7,8,7,467,1770,
scooby_state_56546d1c2226|43|4 1271,12,5,10,3,2,4,4,2,5,6,4,3,15,424,1770,
scooby_state_56546d1c2226|36|4 1295,13,4,4,3,5,5,3,4,5,2,10,3,7,400,1763,
scooby_state_56546d1c2226|45|4 1270,13,4,8,4,3,14,4,3,3,1,3,4,16,399,1749,
scooby_state_56546d1c2226|15|4 1297,12,5,7,2,8,9,5,4,3,1,10,2,10,374,1749,
scooby_state_56546d1c2226|21|5 1257,9,11,6,8,9,2,8,5,2,3,5,10,3,410,1748,
scooby_state_56546d1c2226|13|4 1264,5,2,5,3,7,5,2,2,4,3,4,6,8,415,1735,
scooby_state_56546d1c2226|62|4 1173,8,5,7,4,3,11,5,5,2,2,7,6,14,476,1728,
scooby_state_56546d1c2226|38|4 1240,13,4,8,3,4,3,5,3,1,7,7,3,10,417,1728,
scooby_state_56546d1c2226|28|5 1220,7,11,2,11,8,4,3,6,2,4,6,5,1,435,1725,
scooby_state_56546d1c2226|12|4 1234,7,5,8,7,5,3,2,5,4,2,6,7,17,412,1724,
scooby_state_56546d1c2226|46|4 1203,10,7,6,6,7,3,5,2,1,0,3,3,14,451,1721,
scooby_state_56546d1c2226|10|5 1176,11,11,5,7,5,6,5,4,3,8,12,6,6,447,1712,
scooby_state_56546d1c2226|19|4 1236,7,2,6,4,3,4,2,2,1,2,6,6,15,413,1709,
scooby_state_56546d1c2226|32|4 1224,9,4,10,4,4,9,7,1,2,4,6,6,11,399,1700,
scooby_state_56546d1c2226|49|5 1170,5,9,7,4,3,5,8,3,3,5,12,6,3,453,1696,
scooby_state_56546d1c2226|24|4 1219,5,5,10,3,4,5,2,1,4,1,2,7,23,395,1686,
scooby_state_56546d1c2226|26|4 1242,10,4,2,4,4,3,6,5,1,3,7,6,6,382,1685,
scooby_state_56546d1c2226|46|5 1169,7,5,7,8,7,8,2,6,6,1,4,6,5,436,1677,
scooby_state_56546d1c2226|58|5 1171,7,9,4,5,3,6,5,3,7,3,8,3,5,435,1674,
scooby_state_56546d1c2226|47|5 1166,11,8,8,12,3,10,4,8,3,3,10,5,5,415,1671,
scooby_state_56546d1c2226|4|4 1177,11,7,10,3,4,2,4,5,7,2,7,3,9,406,1657,
scooby_state_56546d1c2226|19|5 1204,4,6,5,4,2,5,8,5,1,3,7,2,3,396,1655,
scooby_state_56546d1c2226|18|4 1199,4,5,4,3,8,5,6,2,4,3,9,6,8,384,1650,
scooby_state_56546d1c2226|53|5 1131,15,12,6,9,6,9,5,5,1,4,6,2,4,430,1645,
scooby_state_56546d1c2226|35|5 1174,8,6,8,0,11,6,11,3,1,4,7,4,3,398,1644,
scooby_state_56546d1c2226|43|5 1158,7,10,8,8,5,8,3,4,5,3,4,4,4,412,1643,
scooby_state_56546d1c2226|14|4 1212,4,4,8,5,5,4,1,5,2,2,11,5,15,356,1639,
scooby_state_56546d1c2226|24|5 1151,3,4,6,5,4,11,1,6,2,4,7,3,4,426,1637,
scooby_state_56546d1c2226|38|5 1173,3,16,13,10,3,4,4,3,1,5,6,8,4,384,1637,
scooby_state_56546d1c2226|34|4 1220,5,2,2,6,3,8,4,2,3,1,3,4,10,364,1637,
scooby_state_56546d1c2226|40|5 1160,7,5,7,3,6,3,2,5,4,5,5,6,7,401,1626,
scooby_state_56546d1c2226|61|5 1125,8,6,5,4,7,10,6,1,5,4,4,6,6,426,1623,
scooby_state_56546d1c2226|57|5 1173,5,9,4,5,10,5,4,5,2,4,10,6,7,371,1620,
scooby_state_56546d1c2226|12|5 1113,14,8,4,1,3,5,6,6,6,2,4,2,4,437,1615,
scooby_state_56546d1c2226|54|5 1099,13,5,10,8,9,7,7,10,2,2,10,6,4,422,1614,
scooby_state_56546d1c2226|26|5 1168,11,8,5,5,6,8,3,4,4,4,4,4,5,373,1612,
scooby_state_56546d1c2226|59|5 1143,7,9,4,7,8,6,2,1,2,4,5,1,2,410,1611,
scooby_state_56546d1c2226|27|5 1140,9,7,5,5,8,5,2,4,3,4,7,4,4,397,1604,
scooby_state_56546d1c2226|29|5 1138,6,7,6,5,4,7,4,9,2,4,8,3,5,381,1589,
scooby_state_56546d1c2226|62|5 1115,11,7,8,8,5,8,5,6,2,6,8,3,3,390,1585,
scooby_state_56546d1c2226|63|5 1126,9,11,5,0,3,7,1,3,2,3,1,5,4,396,1576,
scooby_state_56546d1c2226|42|5 1116,6,3,6,8,6,9,7,3,4,4,2,4,5,392,1575,
scooby_state_56546d1c2226|5|5 1124,11,6,3,6,6,4,5,6,5,1,7,1,6,374,1565,
scooby_state_56546d1c2226|50|5 1118,10,7,10,6,12,4,5,7,4,2,7,6,3,359,1560,
scooby_state_56546d1c2226|47|6 1118,10,16,6,5,8,8,4,5,5,7,12,3,8,341,1556,
scooby_state_56546d1c2226|52|5 1056,9,7,8,10,10,8,4,4,6,6,3,5,5,414,1555,
scooby_state_56546d1c2226|17|5 1094,6,8,7,2,7,6,5,6,5,2,3,7,3,391,1552,
scooby_state_56546d1c2226|60|5 1097,15,11,5,7,8,3,4,3,2,4,3,5,2,383,1552,
scooby_state_56546d1c2226|61|6 1057,7,10,7,4,11,6,9,4,8,2,10,5,6,404,1550,
scooby_state_56546d1c2226|14|5 1068,2,7,3,6,5,5,2,5,3,2,4,6,4,424,1546,
scooby_state_56546d1c2226|22|5 1094,14,8,3,3,2,5,4,5,1,2,5,5,9,385,1545,
scooby_state_56546d1c2226|36|5 1096,13,6,6,7,3,8,3,2,7,0,7,7,5,374,1544,
scooby_state_56546d1c2226|44|5 1098,5,8,4,3,6,5,3,4,5,2,8,2,3,385,1541,
scooby_state_56546d1c2226|11|5 1111,7,5,5,4,3,9,4,7,1,8,3,5,5,363,1540,
scooby_state_56546d1c2226|50|6 1084,9,8,10,5,3,7,5,2,6,2,20,5,5,367,1538,
scooby_state_56546d1c2226|37|5 1110,9,8,7,4,1,5,2,2,5,4,6,5,6,356,1530,
scooby_state_56546d1c2226|23|5 1093,8,3,7,6,11,4,10,1,3,2,5,3,3,366,1525,
scooby_state_56546d1c2226|16|5 1095,10,7,4,6,1,9,4,5,1,0,7,2,2,366,1519,
scooby_state_56546d1c2226|9|5 1071,12,10,7,4,5,3,5,4,3,5,7,6,3,373,1518,
scooby_state_56546d1c2226|41|6 1093,7,12,9,4,12,8,5,4,5,4,12,6,6,330,1517,
scooby_state_56546d1c2226|31|5 1078,11,10,7,5,4,1,5,6,5,5,5,5,5,364,1516,
scooby_state_56546d1c2226|8|5 1064,6,6,7,2,4,6,6,2,5,1,10,2,5,382,1508,
scooby_state_56546d1c2226|45|5 1056,8,7,7,8,1,5,7,4,3,1,10,4,6,374,1501,
scooby_state_56546d1c2226|51|5 1086,13,9,10,6,2,3,2,2,6,6,3,3,3,346,1500,
scooby_state_56546d1c2226|30|5 1081,5,5,3,7,9,5,6,4,3,2,8,1,4,355,1498,
scooby_state_56546d1c2226|34|5 1057,10,5,11,5,1,5,3,4,2,3,7,1,4,373,1491,
scooby_state_56546d1c2226|33|5 1108,8,9,4,4,4,3,4,4,0,6,4,1,5,327,1491,
scooby_state_56546d1c2226|49|6 1030,1,8,10,8,7,10,8,5,2,3,15,7,7,370,1491,
scooby_state_56546d1c2226|29|6 1058,6,8,7,10,2,6,4,3,7,5,11,5,2,353,1487,
scooby_state_56546d1c2226|23|6 1051,8,7,5,8,3,9,4,6,3,2,17,4,3,354,1484,
scooby_state_56546d1c2226|18|5 1048,8,2,4,4,7,9,7,6,3,1,4,2,5,370,1480,
scooby_state_56546d1c2226|32|5 1109,4,10,7,4,1,8,3,4,2,6,6,6,3,307,1480,
scooby_state_56546d1c2226|44|6 1010,7,15,16,7,6,10,5,5,3,6,10,6,5,363,1474,
scooby_state_56546d1c2226|48|5 1023,9,7,4,3,6,7,4,5,4,7,6,2,4,380,1471,
scooby_state_56546d1c2226|36|6 1040,4,11,7,5,5,2,9,5,5,2,14,3,1,348,1461,
scooby_state_56546d1c2226|53|6 1016,8,10,7,4,6,4,6,8,5,2,14,3,9,356,1458,
scooby_state_56546d1c2226|30|6 1055,7,3,16,8,8,4,5,3,8,5,12,5,1,314,1454,
scooby_state_56546d1c2226|56|5 1027,6,6,6,2,5,8,2,3,5,3,5,5,3,366,1452,
scooby_state_56546d1c2226|39|5 1055,6,6,9,4,4,4,2,1,6,3,4,6,4,331,1445,
scooby_state_56546d1c2226|30|7 1349,10,8,12,9,5,2,5,1,2,5,5,4,6,18,1441,
scooby_state_56546d1c2226|33|6 1032,10,6,6,3,2,9,2,3,9,3,12,2,5,331,1435,
scooby_state_56546d1c2226|29|7 1345,5,3,8,4,2,7,4,10,3,3,2,5,3,23,1427,
scooby_state_56546d1c2226|58|6 996,4,7,9,9,4,6,5,2,3,4,8,7,4,352,1420,
scooby_state_56546d1c2226|57|6 963,9,9,9,8,9,5,6,3,4,5,12,8,3,362,1415,
scooby_state_56546d1c2226|45|6 972,5,14,7,5,10,6,3,8,4,6,11,3,4,350,1408,
scooby_state_56546d1c2226|20|5 1031,5,5,5,8,2,2,6,4,3,1,10,6,4,310,1402,
scooby_state_56546d1c2226|23|7 1314,11,4,8,6,7,5,3,1,1,3,7,4,7,18,1399,
scooby_state_56546d1c2226|6|5 990,7,3,4,5,6,6,1,5,6,5,3,4,5,345,1395,
scooby_state_56546d1c2226|56|6 949,9,15,9,11,7,11,3,4,6,5,12,8,3,338,1390,
scooby_state_56546d1c2226|10|6 971,5,11,8,8,6,5,4,8,4,5,17,5,1,328,1386,
scooby_state_56546d1c2226|25|5 996,8,5,5,6,6,2,4,6,7,2,9,5,4,320,1385,
scooby_state_56546d1c2226|15|6 1001,4,10,8,6,7,4,5,6,4,6,12,6,3,302,1384,
scooby_state_56546d1c2226|63|6 955,7,14,5,6,6,3,5,3,7,3,15,9,2,342,1382,
scooby_state_56546d1c2226|17|6 969,7,6,7,5,6,4,5,4,1,4,14,5,6,338,1381,
scooby_state_56546d1c2226|25|6 957,3,10,5,7,3,6,5,9,4,2,11,6,3,343,1374,
scooby_state_56546d1c2226|39|6 971,11,5,9,5,1,4,4,4,6,2,11,1,7,333,1374,
scooby_state_56546d1c2226|38|6 971,6,14,4,4,6,11,3,7,5,3,16,4,3,310,1367,
scooby_state_56546d1c2226|27|6 964,12,4,4,3,6,2,3,8,8,2,14,3,5,318,1356,
scooby_state_56546d1c2226|48|7 1281,13,10,3,4,8,3,3,4,3,3,2,2,1,16,1356,
scooby_state_56546d1c2226|46|6 933,7,7,6,6,3,7,4,5,4,4,10,5,6,342,1349,
scooby_state_56546d1c2226|13|5 954,6,3,7,5,6,2,1,5,4,1,7,5,4,338,1348,
scooby_state_56546d1c2226|54|6 924,6,13,5,10,5,5,5,2,1,5,7,7,5,338,1338,
scooby_state_56546d1c2226|15|5 968,6,5,1,6,6,2,7,4,0,0,2,6,2,318,1333,
scooby_state_56546d1c2226|16|6 957,5,8,11,2,8,9,2,2,4,3,11,5,4,301,1332,
scooby_state_56546d1c2226|7|6 919,11,5,4,6,4,4,4,2,6,8,13,7,3,330,1326,
scooby_state_56546d1c2226|26|6 942,3,6,3,7,7,7,1,4,4,3,8,4,5,321,1325,
scooby_state_56546d1c2226|35|6 959,3,4,7,4,6,7,5,3,3,1,13,5,3,296,1319,
scooby_state_56546d1c2226|59|6 916,8,9,12,2,13,6,4,2,4,1,9,5,6,321,1318,
scooby_state_56546d1c2226|37|6 946,2,9,14,7,5,8,2,3,4,2,14,3,6,291,1316,
scooby_state_56546d1c2226|48|6 906,7,4,7,4,7,9,5,6,4,4,7,5,4,337,1316,
scooby_state_56546d1c2226|9|6 930,4,10,6,6,8,6,1,7,0,3,9,6,4,316,1316,
scooby_state_56546d1c2226|8|6 899,3,8,7,8,6,7,4,8,5,3,13,2,4,336,1313,
scooby_state_56546d1c2226|19|6 958,7,4,5,6,1,7,4,4,5,2,13,4,2,290,1312,
scooby_state_56546d1c2226|24|6 918,4,10,5,6,2,5,3,4,2,4,16,2,5,323,1309,
scooby_state_56546d1c2226|60|6 922,6,9,8,4,10,5,7,4,3,4,8,7,5,301,1303,
scooby_state_56546d1c2226|18|6 921,1,12,5,6,4,8,7,2,5,6,14,3,5,297,1296,
scooby_state_56546d1c2226|42|6 918,8,7,6,7,8,7,4,1,0,7,10,6,2,303,1294,
scooby_state_56546d1c2226|13|6 921,7,5,6,5,6,6,2,4,6,4,13,5,2,300,1292,
scooby_state_56546d1c2226|28|7 1232,6,4,7,1,2,3,3,1,1,1,2,2,7,16,1288,
scooby_state_56546d1c2226|52|6 888,6,8,13,5,2,7,6,5,1,2,16,3,8,311,1281,
scooby_state_56546d1c2226|54|7 1202,6,8,3,7,3,4,6,2,3,0,3,5,7,22,1281,
scooby_state_56546d1c2226|32|6 899,2,3,7,6,4,1,4,3,7,4,11,8,2,316,1277,
scooby_state_56546d1c2226|14|6 881,8,10,4,2,4,5,1,4,2,9,17,5,4,321,1277,
scooby_state_56546d1c2226|36|7 1195,8,6,9,3,4,8,4,5,3,3,5,2,8,13,1276,
scooby_state_56546d1c2226|50|7 1186,13,6,6,6,3,3,2,2,4,2,6,7,8,19,1273,
scooby_state_56546d1c2226|55|6 836,5,8,6,6,12,7,6,4,4,5,17,5,8,339,1268,
scooby_state_56546d1c2226|12|6 876,8,6,9,5,7,5,3,2,4,2,14,3,9,313,1266,
scooby_state_56546d1c2226|11|6 886,5,6,11,9,5,5,3,2,5,2,15,3,3,305,1265,
scooby_state_56546d1c2226|6|6 872,6,9,6,8,5,4,1,4,2,2,9,5,6,325,1264,
scooby_state_56546d1c2226|57|7 1173,14,4,7,4,5,5,2,3,4,2,4,12,2,17,1258,
scooby_state_56546d1c2226|61|7 1165,6,7,6,6,2,7,2,5,6,4,7,6,10,15,1254,
scooby_state_56546d1c2226|49|7 1189,8,8,2,3,4,3,3,4,4,0,2,4,2,13,1249,
scooby_state_56546d1c2226|22|6 854,1,8,10,4,8,10,8,4,3,3,11,4,3,317,1248,
scooby_state_56546d1c2226|43|6 861,7,4,4,7,10,7,8,2,1,6,12,1,1,310,1241,
scooby_state_56546d1c2226|49|8 845,5,9,11,10,6,3,6,5,4,7,4,3,5,316,1239,
scooby_state_56546d1c2226|62|6 838,7,10,6,7,4,7,8,4,2,2,10,3,2,329,1239,
scooby_state_56546d1c2226|51|6 836,6,7,9,6,2,9,4,5,6,2,10,4,2,329,1237,
scooby_state_56546d1c2226|62|7 1163,6,4,8,10,4,6,3,3,3,3,2,1,7,14,1237,
scooby_state_56546d1c2226|38|7 1162,9,2,4,6,5,4,1,4,5,5,2,3,4,12,1228,
scooby_state_56546d1c2226|44|8 863,9,8,10,6,8,3,5,2,10,0,6,4,3,286,1223,
scooby_state_56546d1c2226|45|7 1147,10,2,7,6,9,3,5,3,4,6,2,3,4,9,1220,
scooby_state_56546d1c2226|55|7 1144,13,3,4,7,7,8,2,1,1,1,5,4,9,7,1216,
scooby_state_56546d1c2226|21|7 1141,11,7,2,9,1,3,1,2,0,4,4,5,5,21,1216,
scooby_state_56546d1c2226|9|7 1143,12,3,2,7,6,6,3,1,1,2,4,4,3,15,1212,
scooby_state_56546d1c2226|56|7 1128,14,6,6,4,5,5,8,2,1,4,6,3,3,9,1204,
scooby_state_56546d1c2226|31|6 847,7,10,5,4,2,5,3,2,5,5,5,4,6,288,1198,
scooby_state_56546d1c2226|12|7 1107,7,4,9,11,5,6,6,3,4,3,2,9,5,12,1193,
scooby_state_56546d1c2226|11|7 1115,14,8,4,5,0,3,4,5,3,3,2,4,4,19,1193,
scooby_state_56546d1c2226|31|8 816,9,8,11,4,2,5,3,5,4,6,6,5,1,306,1191,
scooby_state_56546d1c2226|34|6 859,5,4,4,3,2,3,2,5,6,2,13,4,5,272,1189,
scooby_state_56546d1c2226|21|6 817,7,6,5,8,6,2,2,5,4,5,9,4,2,305,1187,
scooby_state_56546d1c2226|29|8 834,9,6,7,8,3,5,4,3,3,2,6,2,3,290,1185,
scooby_state_56546d1c2226|16|7 1104,12,8,3,2,3,2,4,4,7,1,3,5,5,15,1178,
scooby_state_56546d1c2226|42|7 1103,12,5,6,5,3,6,3,3,3,2,4,2,6,13,1176,
scooby_state_56546d1c2226|61|8 798,13,5,5,12,6,9,4,5,1,5,4,6,2,301,1176,
scooby_state_56546d1c2226|38|9 805,5,5,9,5,6,4,4,4,3,5,3,3,5,310,1176,
scooby_state_56546d1c2226|63|7 1086,14,4,2,1,8,6,5,4,3,4,5,5,8,18,1173,
scooby_state_56546d1c2226|34|7 1099,6,4,11,6,3,3,4,3,4,1,4,3,8,13,1172,
scooby_state_56546d1c2226|17|7 1089,12,3,6,4,4,4,3,5,5,1,4,0,4,16,1160,
scooby_state_56546d1c2226|14|7 1078,6,7,7,9,4,2,3,4,4,2,4,1,4,22,1157,
scooby_state_56546d1c2226|20|6 804,3,7,4,4,4,8,3,2,2,1,13,5,6,290,1156,
scooby_state_56546d1c2226|59|7 1064,13,4,6,9,8,5,2,4,3,4,5,3,6,16,1152,
scooby_state_56546d1c2226|40|7 1069,9,8,6,6,5,5,8,6,4,3,2,1,6,14,1152,
scooby_state_56546d1c2226|51|7 1096,7,9,7,4,4,3,1,2,0,2,1,4,7,3,1150,
scooby_state_56546d1c2226|43|7 1085,8,3,6,1,2,3,4,2,6,4,1,9,6,8,1148,
scooby_state_56546d1c2226|58|8 773,16,11,4,7,8,4,3,5,6,4,2,5,8,288,1144,
scooby_state_56546d1c2226|7|7 1066,10,5,7,7,3,1,5,2,3,4,3,4,7,12,1139,
scooby_state_56546d1c2226|38|8 774,9,8,12,8,5,3,3,7,2,3,6,3,5,290,1138,
scooby_state_56546d1c2226|37|7 1067,7,2,4,4,11,3,1,2,3,6,5,0,7,16,1138,
scooby_state_56546d1c2226|27|8 799,13,9,11,8,6,1,2,1,5,7,2,5,3,265,1137,
scooby_state_56546d1c2226|46|7 1061,13,5,7,2,5,3,2,3,0,5,3,3,9,11,1132,
scooby_state_56546d1c2226|28|6 821,4,13,8,6,9,7,1,3,2,2,12,4,3,236,1131,
scooby_state_56546d1c2226|25|9 796,2,2,2,2,5,6,2,6,2,2,6,5,5,284,1127,
scooby_state_56546d1c2226|53|7 1060,5,3,4,5,8,2,3,2,1,2,8,4,6,11,1124,
scooby_state_56546d1c2226|24|7 1071,6,4,3,6,2,6,2,5,1,3,3,1,1,9,1123,
scooby_state_56546d1c2226|62|8 754,10,8,11,9,10,7,4,2,3,3,8,6,7,281,1123,
scooby_state_56546d1c2226|19|7 1046,13,2,7,2,3,4,1,1,3,6,7,4,10,11,1120,
scooby_state_56546d1c2226|33|7 1064,4,4,6,4,3,3,4,3,0,4,4,5,1,10,1119,
scooby_state_56546d1c2226|31|7 1041,10,11,2,9,8,4,3,3,1,1,4,2,4,16,1119,
scooby_state_56546d1c2226|26|7 1065,6,4,4,2,3,6,3,4,0,2,2,2,3,13,1119,
scooby_state_56546d1c2226|20|7 1053,9,4,7,5,6,2,4,1,1,0,4,2,1,12,1111,
scooby_state_56546d1c2226|18|7 1047,7,4,3,6,4,2,2,3,4,2,5,3,4,14,1110,
scooby_state_56546d1c2226|50|9 786,5,5,9,4,5,7,0,5,7,2,6,2,3,263,1109,
scooby_state_56546d1c2226|37|8 746,9,8,4,4,7,5,5,6,1,4,4,4,6,291,1104,
scooby_state_56546d1c2226|22|7 1024,7,4,4,3,2,3,8,2,1,5,4,7,9,17,1100,
scooby_state_56546d1c2226|48|8 743,8,5,4,12,4,5,7,4,2,5,4,5,4,288,1100,
scooby_state_56546d1c2226|25|7 1039,3,6,2,4,1,2,7,5,1,3,6,3,2,11,1095,
scooby_state_56546d1c2226|13|7 1025,11,7,2,4,7,2,4,4,2,1,3,3,5,13,1093,
scooby_state_56546d1c2226|39|8 748,12,5,7,5,9,3,6,5,3,4,4,6,2,274,1093,
scooby_state_56546d1c2226|15|7 1034,11,0,4,5,5,2,1,2,2,3,1,5,6,12,1093,
scooby_state_56546d1c2226|50|8 729,10,9,10,10,6,5,4,12,3,5,6,7,5,271,1092,
scooby_state_56546d1c2226|35|7 1011,7,7,2,5,4,5,7,3,5,3,2,6,4,15,1086,
scooby_state_56546d1c2226|40|6 779,7,8,4,5,5,4,2,3,4,4,13,4,1,242,1085,
scooby_state_56546d1c2226|44|7 1031,6,5,3,5,3,5,0,3,0,1,1,3,5,13,1084,
scooby_state_56546d1c2226|21|8 767,10,2,3,3,4,5,2,2,5,0,6,4,3,267,1083,
scooby_state_56546d1c2226|52|7 1004,11,6,5,6,1,3,6,2,2,3,6,5,6,15,1081,
scooby_state_56546d1c2226|43|8 744,12,9,11,5,7,3,1,4,5,3,5,6,4,262,1081,
scooby_state_56546d1c2226|27|7 1005,8,6,10,1,4,13,3,0,3,1,0,2,4,15,1075,
scooby_state_56546d1c2226|60|7 1008,6,3,1,2,4,6,4,8,4,2,4,0,6,13,1071,
scooby_state_56546d1c2226|10|7 997,4,6,5,4,5,4,1,1,3,1,4,4,7,24,1070,
scooby_state_56546d1c2226|47|8 695,9,10,4,10,8,10,7,3,7,3,5,4,4,291,1070,
scooby_state_56546d1c2226|35|9 741,7,5,5,1,5,5,1,2,3,4,0,3,8,275,1065,
scooby_state_56546d1c2226|15|8 718,7,9,7,10,3,6,4,7,2,4,2,2,5,279,1065,
scooby_state_56546d1c2226|47|7 984,5,5,5,8,4,8,6,3,3,4,5,6,5,11,1062,
scooby_state_56546d1c2226|45|8 756,7,7,7,5,4,5,1,3,4,5,5,7,8,234,1058,
scooby_state_56546d1c2226|58|7 986,16,3,5,4,2,2,7,6,2,3,2,4,2,12,1056,
scooby_state_56546d1c2226|47|9 732,4,5,4,7,1,1,5,4,1,4,6,2,5,274,1055,
scooby_state_56546d1c2226|59|8 679,13,11,7,2,14,7,3,3,3,3,2,6,5,293,1051,
scooby_state_56546d1c2226|57|8 700,7,4,14,8,5,5,6,2,6,1,6,3,6,277,1050,
scooby_state_56546d1c2226|55|8 719,9,13,3,7,5,8,4,5,1,6,3,7,4,253,1047,
scooby_state_56546d1c2226|39|7 985,8,4,4,3,5,3,4,1,1,4,3,2,6,14,1047,
scooby_state_56546d1c2226|16|9 699,2,5,4,3,9,2,4,7,3,7,7,5,1,287,1045,
scooby_state_56546d1c2226|63|8 699,7,10,6,2,8,9,3,9,2,2,5,5,4,274,1045,
scooby_state_56546d1c2226|32|7 994,6,4,2,4,5,1,4,1,1,2,3,2,3,12,1044,
scooby_state_56546d1c2226|26|10 717,9,4,7,3,8,5,4,4,4,1,1,7,4,262,1040,
scooby_state_56546d1c2226|46|8 703,10,11,8,6,4,5,5,4,9,5,3,4,2,258,1037,
scooby_state_56546d1c2226|41|8 741,7,8,6,3,7,5,3,2,2,2,5,1,4,240,1036,
scooby_state_56546d1c2226|34|8 726,6,7,11,6,7,5,1,1,3,0,5,10,2,242,1032,
scooby_state_56546d1c2226|10|8 711,13,7,10,8,3,4,5,2,4,4,7,3,3,243,1027,
scooby_state_56546d1c2226|14|8 712,11,6,6,2,4,4,4,4,3,1,5,4,5,255,1026,
scooby_state_56546d1c2226|24|8 703,12,13,8,8,10,2,5,4,5,3,2,3,2,246,1026,
scooby_state_56546d1c2226|56|8 691,8,4,9,5,2,4,4,2,3,4,3,3,7,276,1025,
scooby_state_56546d1c2226|36|9 702,3,7,8,2,7,4,5,2,3,4,6,1,2,268,1024,
scooby_state_56546d1c2226|19|8 721,4,6,9,7,7,4,5,6,4,3,2,3,6,231,1018,
scooby_state_56546d1c2226|18|8 718,12,10,6,6,4,3,2,5,4,0,3,5,4,232,1014,
scooby_state_56546d1c2226|51|8 668,13,9,10,6,6,3,3,5,1,4,5,5,5,268,1011,
scooby_state_56546d1c2226|19|9 667,4,1,5,3,8,6,3,2,4,3,2,2,2,292,1004,
scooby_state_56546d1c2226|11|8 693,6,8,2,8,6,6,4,5,4,0,8,7,3,244,1004,
scooby_state_56546d1c2226|53|9 692,7,4,1,3,5,4,5,4,3,6,5,2,2,259,1002,
scooby_state_56546d1c2226|33|8 685,9,5,11,8,5,2,6,4,5,4,5,4,3,244,1000,
scooby_state_56546d1c2226|60|8 669,12,10,10,8,5,4,4,3,5,3,5,3,6,251,998,
scooby_state_56546d1c2226|36|8 682,7,7,8,6,6,5,2,5,4,3,3,3,3,251,995,
scooby_state_56546d1c2226|23|8 661,11,7,8,7,2,5,2,3,3,3,10,4,4,264,994,
scooby_state_56546d1c2226|48|10 673,9,12,7,7,5,4,3,6,2,3,0,5,3,251,990,
scooby_state_56546d1c2226|13|8 709,5,3,3,7,5,5,8,7,2,2,2,1,4,224,987,
scooby_state_56546d1c2226|30|8 688,7,6,9,8,8,6,3,3,1,5,1,4,3,232,984,
scooby_state_56546d1c2226|41|7 917,8,4,2,6,4,3,2,4,3,2,4,3,1,20,983,
scooby_state_56546d1c2226|52|8 642,12,10,9,7,5,7,2,4,2,3,5,6,3,265,982,
scooby_state_56546d1c2226|22|8 682,4,12,7,8,2,8,4,5,2,3,2,4,1,238,982,
scooby_state_56546d1c2226|32|9 687,3,4,5,7,4,3,2,2,1,2,7,1,2,252,982,
scooby_state_56546d1c2226|30|9 676,7,7,5,6,9,2,1,4,3,5,6,4,6,239,980,
scooby_state_56546d1c2226|54|10 659,10,7,7,5,4,4,8,7,4,4,5,7,2,245,978,
scooby_state_56546d1c2226|58|9 646,9,5,5,6,7,2,3,2,4,3,5,6,3,271,977,
scooby_state_56546d1c2226|63|9 642,5,2,6,7,5,4,4,5,3,3,10,1,4,276,977,
scooby_state_56546d1c2226|28|8 675,5,11,4,7,7,1,4,4,3,4,5,3,4,238,975,
scooby_state_56546d1c2226|59|9 655,3,3,9,5,6,7,3,2,6,2,7,6,2,258,974,
scooby_state_56546d1c2226|26|8 670,5,5,6,6,4,3,2,3,3,7,1,3,7,247,972,
scooby_state_56546d1c2226|45|9 664,3,1,7,2,3,6,0,3,3,3,5,1,2,269,972,
scooby_state_56546d1c2226|48|9 664,6,4,4,3,4,1,2,4,4,6,6,5,5,251,969,
scooby_state_56546d1c2226|50|10 645,4,3,3,4,5,8,4,6,6,2,2,6,7,263,968,
scooby_state_56546d1c2226|29|9 669,3,6,6,2,7,3,3,2,1,4,2,4,0,255,967,
scooby_state_56546d1c2226|54|9 658,6,7,4,3,7,7,4,0,2,5,3,2,2,255,965,
scooby_state_56546d1c2226|17|8 669,7,11,9,4,4,4,4,4,1,5,6,2,5,228,963,
scooby_state_56546d1c2226|53|8 666,4,5,8,6,8,2,4,3,4,4,3,4,2,237,960,
scooby_state_56546d1c2226|56|10 673,2,6,12,6,8,6,5,2,4,2,3,1,4,221,955,
scooby_state_56546d1c2226|9|8 680,5,9,6,7,3,4,3,3,1,2,3,2,1,220,949,
scooby_state_56546d1c2226|20|8 635,6,12,6,12,2,9,1,1,4,3,3,5,9,241,949,
scooby_state_56546d1c2226|21|9 647,4,4,6,4,4,2,1,3,2,1,7,4,1,259,949,
scooby_state_56546d1c2226|16|8 655,7,6,5,3,6,6,2,7,2,2,3,3,4,233,944,
scooby_state_56546d1c2226|35|8 649,8,8,7,8,6,2,6,2,6,4,1,4,4,227,942,
scooby_state_56546d1c2226|12|8 650,8,9,7,6,9,4,2,0,1,5,5,3,2,231,942,
scooby_state_56546d1c2226|26|9 653,3,7,5,4,3,6,2,2,2,1,6,3,3,238,938,
scooby_state_56546d1c2226|8|8 638,9,9,9,8,5,6,6,1,3,3,3,3,4,226,933,
scooby_state_56546d1c2226|17|10 629,8,8,7,3,3,1,6,4,3,5,6,3,4,238,928,
scooby_state_56546d1c2226|51|10 637,5,8,10,6,3,3,5,5,7,3,4,3,4,224,927,
scooby_state_56546d1c2226|32|8 627,4,6,2,5,6,2,6,4,5,2,2,3,4,249,927,
scooby_state_56546d1c2226|8|7 867,14,4,4,2,2,2,2,1,1,4,3,3,5,11,925,
scooby_state_56546d1c2226|57|9 610,4,6,6,4,8,4,2,2,1,3,5,1,4,263,923,
scooby_state_56546d1c2226|46|10 640,5,10,10,6,4,4,3,5,5,4,5,4,9,209,923,
scooby_state_56546d1c2226|11|9 651,4,4,4,6,6,1,3,2,4,0,0,1,2,232,920,
scooby_state_56546d1c2226|62|11 845,6,3,3,4,6,5,9,4,3,4,10,1,3,13,919,
scooby_state_56546d1c2226|43|9 648,6,4,7,3,4,0,5,2,4,2,8,1,3,218,915,
scooby_state_56546d1c2226|25|8 630,8,6,5,9,5,2,7,3,2,3,5,4,6,216,911,
scooby_state_56546d1c2226|47|10 611,6,3,8,8,6,3,2,0,5,4,2,6,10,229,903,
scooby_state_56546d1c2226|21|10 619,3,6,10,7,4,6,3,5,1,7,6,2,3,221,903,
scooby_state_56546d1c2226|49|9 614,6,2,3,1,4,3,4,2,1,3,11,5,4,236,899,
scooby_state_56546d1c2226|13|9 602,4,8,2,1,9,4,4,9,1,3,4,3,5,240,899,
scooby_state_56546d1c2226|23|9 608,6,2,2,3,2,9,2,2,1,1,6,1,2,249,896,
scooby_state_56546d1c2226|49|10 620,8,7,3,1,3,5,4,2,3,7,4,1,6,222,896,
scooby_state_56546d1c2226|59|10 569,5,10,10,7,8,5,3,7,1,2,5,3,6,253,894,
scooby_state_56546d1c2226|52|9 602,5,5,7,1,10,3,3,1,1,2,3,3,5,242,893,
scooby_state_56546d1c2226|61|9 588,5,4,1,4,8,3,2,4,3,2,7,4,3,254,892,
scooby_state_56546d1c2226|9|9 579,5,5,2,5,4,4,5,3,3,1,6,4,3,261,890,
scooby_state_56546d1c2226|29|10 606,11,5,6,4,5,3,5,6,3,3,4,4,3,218,886,
scooby_state_56546d1c2226|35|10 603,9,4,4,3,4,2,2,8,3,3,4,5,5,225,884,
scooby_state_56546d1c2226|28|9 628,2,7,5,3,6,3,2,1,1,0,3,5,4,211,881,
scooby_state_56546d1c2226|55|9 591,6,4,5,4,4,2,3,5,1,3,8,0,3,238,877,
scooby_state_56546d1c2226|37|9 616,8,4,2,0,9,3,3,3,1,0,6,7,7,208,877,
scooby_state_56546d1c2226|44|9 616,8,3,1,3,1,1,3,1,0,2,2,1,5,229,876,
scooby_state_56546d1c2226|59|11 806,6,6,0,4,4,5,3,10,4,1,12,0,3,12,876,
scooby_state_56546d1c2226|41|9 609,2,5,6,7,4,4,3,3,2,2,5,4,3,217,876,
scooby_state_56546d1c2226|42|8 577,6,6,7,6,8,3,4,1,4,3,6,5,3,236,875,
scooby_state_56546d1c2226|18|9 570,6,6,5,5,8,3,2,3,5,3,6,7,4,242,875,
scooby_state_56546d1c2226|27|9 605,6,4,3,1,7,3,3,2,3,1,6,5,0,223,872,
scooby_state_56546d1c2226|39|9 588,4,3,10,2,4,8,5,4,0,2,3,4,2,233,872,
scooby_state_56546d1c2226|54|8 582,3,8,7,3,7,5,3,1,4,4,5,6,7,226,871,
scooby_state_56546d1c2226|40|9 590,3,2,2,2,6,5,3,3,4,1,4,3,1,242,871,
scooby_state_56546d1c2226|62|9 576,4,4,5,3,5,6,1,4,4,1,8,5,3,241,870,
scooby_state_56546d1c2226|18|10 593,7,4,5,2,1,6,1,1,1,2,3,4,3,237,870,
scooby_state_56546d1c2226|31|9 587,4,3,6,6,2,1,6,6,1,2,5,5,4,226,864,
scooby_state_56546d1c2226|40|8 600,8,3,5,5,3,2,2,7,3,0,6,5,4,210,863,
scooby_state_56546d1c2226|61|10 569,18,8,5,6,7,6,3,5,3,2,4,5,4,214,859,
scooby_state_56546d1c2226|56|9 593,4,6,5,3,6,3,4,2,3,2,5,8,3,210,857,
scooby_state_56546d1c2226|22|10 568,7,8,6,4,3,6,3,2,5,6,5,5,3,224,855,
scooby_state_56546d1c2226|53|10 596,8,7,3,2,1,2,5,6,3,3,5,2,4,208,855,
scooby_state_56546d1c2226|62|10 567,7,6,6,4,4,5,5,4,1,5,5,4,6,225,854,
scooby_state_56546d1c2226|12|9 571,6,2,4,1,5,5,3,5,0,0,6,0,4,242,854,
scooby_state_56546d1c2226|41|10 603,5,4,5,11,6,2,3,3,1,2,4,5,1,197,852,
scooby_state_56546d1c2226|16|10 554,6,10,3,2,3,3,3,3,2,3,7,4,3,245,851,
scooby_state_56546d1c2226|21|11 796,3,1,3,9,2,3,2,7,1,3,8,2,1,10,851,
scooby_state_56546d1c2226|33|9 595,6,5,3,7,2,3,2,4,1,1,7,1,3,209,849,
scooby_state_56546d1c2226|42|10 608,6,7,7,5,4,4,4,0,1,3,1,3,4,192,849,
scooby_state_56546d1c2226|20|9 584,4,4,5,5,6,5,4,2,2,1,4,2,6,212,846,
scooby_state_56546d1c2226|14|9 563,7,3,5,2,2,4,2,3,0,3,7,0,6,234,841,
scooby_state_56546d1c2226|42|9 564,4,5,4,5,8,3,4,2,1,2,4,2,4,228,840,
scooby_state_56546d1c2226|13|11 767,6,5,5,4,1,7,10,0,1,2,10,5,1,9,833,
scooby_state_56546d1c2226|54|11 772,3,3,3,6,3,2,4,3,2,2,7,4,4,14,832,
scooby_state_56546d1c2226|13|10 561,3,6,4,6,1,9,3,3,5,2,6,3,5,213,830,
scooby_state_56546d1c2226|61|11 764,4,1,6,10,4,1,0,3,4,4,13,3,5,7,829,
scooby_state_56546d1c2226|19|10 558,3,8,6,4,4,5,2,2,1,2,4,7,5,217,828,
scooby_state_56546d1c2226|46|9 568,5,4,6,4,7,4,1,0,3,1,5,2,0,217,827,
scooby_state_56546d1c2226|51|9 553,5,3,2,5,6,4,2,2,2,1,5,6,3,224,823,
scooby_state_56546d1c2226|57|10 552,5,7,8,7,4,2,5,3,3,4,1,7,5,206,819,
scooby_state_56546d1c2226|12|10 543,10,4,11,3,6,4,2,1,5,2,3,3,6,208,811,
scooby_state_56546d1c2226|38|10 551,6,7,7,1,7,2,1,4,1,3,3,2,2,208,805,
scooby_state_56546d1c2226|33|10 551,7,4,8,5,7,3,3,2,2,2,2,6,3,199,804,
scooby_state_56546d1c2226|24|11 732,2,3,5,8,1,7,4,4,5,5,12,2,2,12,804,
scooby_state_56546d1c2226|23|10 547,5,6,6,5,7,6,2,4,2,4,1,4,5,199,803,
scooby_state_56546d1c2226|22|9 565,2,3,3,4,1,1,2,0,0,5,3,1,4,207,801,
scooby_state_56546d1c2226|37|10 543,3,7,7,3,1,6,2,2,5,2,0,4,3,213,801,
scooby_state_56546d1c2226|60|10 524,7,9,10,6,0,4,8,4,4,3,1,2,3,215,800,
scooby_state_56546d1c2226|29|11 736,6,4,4,3,1,3,1,5,5,5,6,2,3,11,795,
scooby_state_56546d1c2226|23|11 730,4,5,8,3,7,2,2,4,0,1,10,2,1,12,791,
scooby_state_56546d1c2226|50|11 720,6,8,5,8,2,1,2,3,3,2,9,5,3,13,790,
scooby_state_56546d1c2226|36|10 538,5,4,6,2,0,1,4,4,1,5,4,5,0,210,789,
scooby_state_56546d1c2226|31|10 563,3,3,3,2,3,6,0,7,2,3,4,3,3,183,788,
scooby_state_56546d1c2226|45|10 545,7,5,10,4,7,5,1,1,5,1,1,4,6,185,787,
scooby_state_56546d1c2226|17|9 542,5,2,3,0,4,4,4,2,1,0,1,1,5,212,786,
scooby_state_56546d1c2226|53|11 719,5,2,4,10,1,3,3,1,4,2,9,7,5,10,785,
scooby_state_56546d1c2226|58|10 537,4,2,7,3,7,5,2,1,2,6,5,4,4,194,783,
scooby_state_56546d1c2226|40|10 556,3,7,3,5,6,0,4,2,1,2,2,4,6,180,781,
scooby_state_56546d1c2226|52|11 717,3,3,3,3,3,2,8,2,4,2,16,2,0,12,780,
scooby_state_56546d1c2226|60|12 503,9,6,14,4,2,2,4,3,2,2,5,6,6,210,778,
scooby_state_56546d1c2226|60|9 514,6,6,5,4,7,2,1,4,2,4,10,3,5,203,776,
scooby_state_56546d1c2226|25|11 718,4,0,1,3,3,3,3,6,3,1,11,4,2,13,775,
scooby_state_56546d1c2226|11|10 542,5,5,8,1,5,3,2,4,2,3,7,1,2,184,774,
scooby_state_56546d1c2226|39|10 521,5,6,8,6,4,3,2,2,6,3,2,3,4,199,774,
scooby_state_56546d1c2226|22|11 708,1,5,2,4,6,6,4,5,5,6,8,3,4,6,773,
scooby_state_56546d1c2226|43|10 543,5,1,6,3,3,1,1,2,3,2,2,5,3,193,773,
scooby_state_56546d1c2226|10|9 502,3,9,2,2,3,2,0,1,2,2,1,4,7,229,769,
scooby_state_56546d1c2226|34|9 521,3,6,1,2,4,3,3,4,1,2,2,1,4,210,767,
scooby_state_56546d1c2226|36|12 532,8,8,7,1,2,3,1,5,4,0,3,4,3,185,766,
scooby_state_56546d1c2226|55|11 691,9,2,8,4,6,2,5,5,1,1,12,6,3,11,766,
scooby_state_56546d1c2226|55|10 518,7,6,11,4,5,1,2,1,1,1,3,2,4,198,764,
scooby_state_56546d1c2226|16|11 706,1,8,3,1,4,7,4,3,2,1,9,3,4,6,762,
scooby_state_56546d1c2226|34|11 694,6,4,1,6,6,7,5,3,2,2,7,5,4,9,761,
scooby_state_56546d1c2226|20|10 508,11,6,7,1,5,5,1,2,2,2,3,2,6,200,761,
scooby_state_56546d1c21e3|34|0 226,37,40,38,39,38,39,39,38,26,26,30,37,34,72,759,
scooby_state_56546d1c2226|60|11 695,4,3,5,5,2,3,6,3,3,3,4,5,4,13,758,
scooby_state_56546d1c2226|52|10 510,12,7,6,5,5,4,2,1,5,5,5,4,6,181,758,
scooby_state_56546d1c2226|48|11 701,4,5,5,2,5,6,3,1,3,2,4,0,6,9,756,
scooby_state_56546d1c2226|19|12 492,10,9,3,2,4,4,1,3,1,3,6,2,5,206,751,
scooby_state_56546d1c2226|18|11 705,3,1,2,6,3,3,4,2,0,0,7,1,2,11,750,
scooby_state_56546d1c2226|27|10 518,1,9,1,4,2,4,1,3,2,3,0,0,4,197,749,
scooby_state_56546d1c2226|39|12 487,5,6,8,1,7,5,6,3,2,4,5,6,4,198,747,
scooby_state_56546d1c2226|61|13 492,5,7,7,2,3,5,5,3,5,5,4,3,5,194,745,
scooby_state_56546d1c2226|15|9 508,6,4,2,3,8,1,3,3,2,4,5,3,0,192,744,
scooby_state_56546d1c2226|63|10 476,4,5,5,5,5,4,5,2,4,4,2,4,3,215,743,
scooby_state_56546d1c2226|39|11 688,3,3,3,1,4,4,4,2,3,1,12,3,2,10,743,
scooby_state_56546d1c2226|24|10 491,6,4,3,6,4,2,2,6,1,5,3,3,4,200,740,
scooby_state_56546d1c2226|50|12 463,6,8,6,5,4,2,2,7,1,1,2,4,5,223,739,
scooby_state_56546d1c2226|19|11 681,8,2,4,1,3,5,6,5,1,0,13,2,3,5,739,
scooby_state_56546d1c2226|10|10 473,12,4,12,1,5,4,0,8,2,4,2,6,1,201,735,
scooby_state_56546d1c2226|35|11 682,2,6,4,7,4,3,1,4,1,3,6,4,2,6,735,
scooby_state_56546d1c2226|56|11 674,3,2,4,8,7,4,2,5,4,1,8,5,3,4,734,
scooby_state_56546d1c2226|49|11 673,5,2,1,4,5,7,4,2,6,0,6,4,6,7,732,
scooby_state_56546d1c2226|21|12 482,5,6,7,5,3,3,1,4,8,0,7,4,4,191,730,
scooby_state_56546d1c2226|32|10 498,8,5,3,7,7,6,4,0,2,4,4,6,1,172,727,
scooby_state_56546d1c2226|62|12 479,9,4,8,9,4,4,3,3,2,3,6,5,6,181,726,
scooby_state_56546d1c2226|20|11 678,4,4,3,5,3,3,1,3,2,1,4,4,1,8,724,
scooby_state_56546d1c2226|14|10 493,5,5,5,6,4,5,2,4,0,5,4,4,4,178,724,
scooby_state_56546d1c2226|44|11 645,2,7,3,3,7,2,9,3,2,1,17,3,5,11,720,
scooby_state_56546d1c2226|25|10 496,6,2,6,1,0,5,3,2,3,3,5,2,2,182,718,
scooby_state_56546d1c2226|47|11 657,4,3,3,7,3,3,5,8,3,1,12,1,2,6,718,
scooby_state_56546d1c2226|58|11 659,1,4,2,7,5,4,2,5,2,6,9,3,3,6,718,
scooby_state_56546d1c2226|36|11 671,1,3,3,4,6,3,2,1,3,0,4,5,4,5,715,
scooby_state_56546d1c2226|34|10 486,1,3,7,2,7,3,2,1,2,3,2,1,6,188,714,
scooby_state_56546d1c2226|63|13 455,9,7,8,5,4,6,4,2,7,3,3,4,1,195,713,
scooby_state_56546d1c2226|26|12 477,4,8,7,4,7,7,4,2,1,1,5,3,3,180,713,
scooby_state_56546d1c2226|29|13 483,8,8,6,2,4,5,4,6,1,2,6,8,6,164,713,
scooby_state_56546d1c2226|17|12 485,4,11,6,1,3,3,3,1,3,0,5,3,5,179,712,
scooby_state_56546d1c2226|38|12 473,5,2,5,3,4,1,3,3,1,3,5,5,6,191,710,
scooby_state_56546d1c2226|42|11 655,1,2,3,6,2,8,3,6,1,1,7,4,4,6,709,
scooby_state_56546d1c2226|24|9 489,2,3,4,2,1,2,3,3,0,3,3,4,2,186,707,
scooby_state_56546d1c2226|41|11 656,4,2,6,5,2,6,4,0,3,1,7,1,2,8,707,
scooby_state_56546d1c2226|36|13 463,9,7,8,2,3,4,7,3,4,3,7,6,9,171,706,
scooby_state_56546d1c2226|38|14 457,8,7,8,6,5,3,5,8,3,4,5,6,5,175,705,
scooby_state_56546d1c2226|51|11 644,6,4,3,3,3,5,2,5,0,1,10,4,0,12,702,
scooby_state_56546d1c2226|27|13 479,11,5,3,4,5,2,3,0,2,6,4,3,5,167,699,
scooby_state_56546d1c2226|18|12 456,2,4,8,3,4,4,2,5,0,1,4,2,2,201,698,
scooby_state_56546d1c2226|44|10 471,5,7,8,3,4,9,1,5,1,1,2,5,4,170,696,
scooby_state_56546d1c2226|14|11 643,4,1,3,6,3,4,5,3,1,5,9,3,0,6,696,
scooby_state_56546d1c2226|38|11 644,3,4,5,5,1,3,3,1,0,3,9,4,3,7,695,
scooby_state_56546d1c2226|26|11 640,3,6,4,5,4,1,3,2,2,5,6,5,2,6,694,
scooby_state_56546d1c2226|49|12 436,10,10,7,5,4,5,6,6,4,4,5,5,1,186,694,
scooby_state_56546d1c2226|48|13 449,9,7,12,3,4,6,6,5,1,2,3,9,1,176,693,
scooby_state_56546d1c2226|27|11 634,4,3,2,0,4,8,4,4,1,2,8,3,5,10,692,
scooby_state_56546d1c2226|33|12 442,6,6,10,10,6,5,2,5,5,4,2,4,3,182,692,
scooby_state_56546d1c2226|30|10 462,8,3,5,2,2,10,2,1,2,1,1,4,4,184,691,
scooby_state_56546d1c2226|28|10 467,5,8,12,1,1,4,1,1,1,1,4,11,1,172,690,
scooby_state_56546d1c2226|28|12 470,7,4,6,7,4,4,2,4,3,1,1,2,0,175,690,
scooby_state_56546d1c2226|56|12 450,7,7,4,2,5,5,5,2,1,4,5,1,2,188,688,
scooby_state_56546d1c2226|40|11 633,7,3,3,2,5,3,1,3,2,5,2,3,4,11,687,
scooby_state_56546d1c2226|43|11 625,5,6,6,7,2,7,1,1,3,2,2,2,6,12,687,
scooby_state_56546d1c2226|62|14 447,2,6,8,10,8,10,7,4,6,4,5,8,8,153,686,
scooby_state_56546d1c2226|23|13 460,12,5,5,5,3,4,4,5,5,3,5,4,4,162,686,
scooby_state_56546d1c2226|43|14 461,6,4,4,2,3,11,3,5,4,4,7,7,4,159,684,
scooby_state_56546d1c2226|32|11 629,5,3,3,4,3,2,3,2,2,2,8,5,5,7,683,
scooby_state_56546d1c2226|47|12 461,7,9,8,1,4,3,3,1,3,3,7,1,5,167,683,
scooby_state_56546d1c2226|23|12 445,7,5,3,4,6,2,2,2,0,3,4,4,3,191,681,
scooby_state_56546d1c2226|61|12 418,3,4,7,2,4,6,4,4,3,3,4,5,7,206,680,
scooby_state_56546d1c2226|57|11 621,3,2,4,5,2,5,2,0,0,3,14,6,3,10,680,
scooby_state_56546d1c2226|54|12 446,3,3,5,5,5,8,2,3,2,4,4,2,0,183,675,
scooby_state_56546d1c2226|46|11 626,3,3,6,4,1,5,2,5,1,1,9,1,3,4,674,
scooby_state_56546d1c2226|55|12 441,6,4,8,3,3,6,4,4,1,2,3,5,5,177,672,
scooby_state_56546d1c2226|12|11 628,4,2,3,4,3,2,2,0,1,2,6,1,7,6,671,
scooby_state_56546d1c2226|33|11 617,4,5,3,2,5,3,1,2,1,1,8,3,4,9,668,
[...]
scooby_state_14aace283cde|56|25 0,0,0,0,0,0,0,0,0,0,0,1,0,0,0,1,
scooby_state_14aace27c9de|40|1 1,0,0,0,0,0,0,0,0,0,0,0,0,0,0,1,
scooby_state_14aace2808f4|43|0 1,0,0,0,0,0,0,0,0,0,0,0,0,0,0,1,
scooby_state_14aace28398d|30|-3 0,0,0,0,0,0,0,0,1,0,0,0,0,0,0,1,
scooby_state_14aace28115a|17|1 0,0,0,0,0,0,0,0,0,0,0,0,0,1,0,1,
scooby_state_56546d1c232f|35|0 0,0,0,0,0,0,0,0,0,0,0,1,0,0,0,1,
scooby_state_14aace2a7477|35|-11 1,0,0,0,0,0,0,0,0,0,0,0,0,0,0,1,
scooby_state_14aace27c9fc|51|48 1,0,0,0,0,0,0,0,0,0,0,0,0,0,0,1,
scooby_state_14aace27c9fc|56|-7 0,0,1,0,0,0,0,0,0,0,0,0,0,0,0,1,
scooby_state_14aace27c99b|62|-1 1,0,0,0,0,0,0,0,0,0,0,0,0,0,0,1,
scooby_state_14aace2803c1|54|4 0,0,0,0,0,0,0,0,1,0,0,0,0,0,0,1,
scooby_state_14aace2a7477|33|-5 1,0,0,0,0,0,0,0,0,0,0,0,0,0,0,1,
scooby_state_14aace27c9fc|53|-2 0,1,0,0,0,0,0,0,0,0,0,0,0,0,0,1,
scooby_state_14aace280f10|41|12 1,0,0,0,0,0,0,0,0,0,0,0,0,0,0,1,
scooby_state_14aace2a770e|63|13 0,0,0,0,0,0,0,0,0,0,0,1,0,0,0,1,
scooby_state_14aace28112d|63|1 0,0,0,0,0,0,0,0,0,0,0,0,0,1,0,1,
scooby_state_14aace283207|52|20 1,0,0,0,0,0,0,0,0,0,0,0,0,0,0,1,
scooby_state_14aace280f10|44|6 1,0,0,0,0,0,0,0,0,0,0,0,0,0,0,1,
scooby_state_14aace2a7641|44|3 0,0,0,0,0,0,0,0,0,1,0,0,0,0,0,1,
scooby_state_14aace2805f4|11|7 1,0,0,0,0,0,0,0,0,0,0,0,0,0,0,1,
scooby_state_14aace27c93c|0|-17 1,0,0,0,0,0,0,0,0,0,0,0,0,0,0,1,
scooby_state_14aace280780|30|4 1,0,0,0,0,0,0,0,0,0,0,0,0,0,0,1,
scooby_state_14aace2479c0|39|1 1,0,0,0,0,0,0,0,0,0,0,0,0,0,0,1,
scooby_state_14aace27c959|26|1 1,0,0,0,0,0,0,0,0,0,0,0,0,0,0,1,
scooby_state_14aace2a7703|31|14 0,0,0,0,0,0,0,0,0,0,0,1,0,0,0,1,
scooby_state_14aace2a75c5|1|-58 0,0,0,0,0,0,0,1,0,0,0,0,0,0,0,1,
scooby_state_14aace280795|55|4 1,0,0,0,0,0,0,0,0,0,0,0,0,0,0,1,
scooby_state_14aace283080|2|1 1,0,0,0,0,0,0,0,0,0,0,0,0,0,0,1,
scooby_state_14aace283d4d|18|-42 1,0,0,0,0,0,0,0,0,0,0,0,0,0,0,1,
scooby_state_14aace2a7706|37|5 0,0,1,0,0,0,0,0,0,0,0,0,0,0,0,1,
scooby_state_14aace2a7583|46|-12 0,0,0,1,0,0,0,0,0,0,0,0,0,0,0,1,
scooby_state_14aace280ef2|57|35 1,0,0,0,0,0,0,0,0,0,0,0,0,0,0,1,
scooby_state_14aace2a7703|51|2 0,0,0,0,0,0,0,1,0,0,0,0,0,0,0,1,
scooby_state_14aace28062d|52|0 0,0,0,0,0,0,0,0,0,1,0,0,0,0,0,1,
scooby_state_14aace27c9de|39|0 1,0,0,0,0,0,0,0,0,0,0,0,0,0,0,1,
scooby_state_56546d1c2226|22|-24 1,0,0,0,0,0,0,0,0,0,0,0,0,0,0,1,
scooby_state_14aace27ca06|52|-2 1,0,0,0,0,0,0,0,0,0,0,0,0,0,0,1,
scooby_state_14aace2a76c4|55|16 1,0,0,0,0,0,0,0,0,0,0,0,0,0,0,1,
scooby_state_14aace283207|17|17 0,0,0,0,0,0,0,0,1,0,0,0,0,0,0,1,
scooby_state_14aace27c9c0|47|1 1,0,0,0,0,0,0,0,0,0,0,0,0,0,0,1,
scooby_state_56546d1c2226|30|-27 1,0,0,0,0,0,0,0,0,0,0,0,0,0,0,1,
scooby_state_14aace2a770e|6|0 0,0,0,0,0,0,0,0,0,0,0,1,0,0,0,1,
scooby_state_14aace283d1a|0|-32 0,1,0,0,0,0,0,0,0,0,0,0,0,0,0,1,
scooby_state_14aace27c9fc|51|0 0,1,0,0,0,0,0,0,0,0,0,0,0,0,0,1,
scooby_state_14aace2a757e|51|33 0,0,0,0,0,0,1,0,0,0,0,0,0,0,0,1,
scooby_state_14aace27c97e|39|-8 1,0,0,0,0,0,0,0,0,0,0,0,0,0,0,1,
scooby_state_14aace2447c0|31|1 1,0,0,0,0,0,0,0,0,0,0,0,0,0,0,1,
scooby_state_14aace2805a7|29|1 0,0,0,0,0,0,0,0,0,0,0,1,0,0,0,1,
scooby_state_14aace27c93c|45|-2 1,0,0,0,0,0,0,0,0,0,0,0,0,0,0,1,
scooby_state_56546d1c24d3|45|20 1,0,0,0,0,0,0,0,0,0,0,0,0,0,0,1,
scooby_state_14aace2a7477|30|-21 1,0,0,0,0,0,0,0,0,0,0,0,0,0,0,1,
scooby_state_14aace280795|51|-2 1,0,0,0,0,0,0,0,0,0,0,0,0,0,0,1,
scooby_state_14aace280e6c|54|1 1,0,0,0,0,0,0,0,0,0,0,0,0,0,0,1,
scooby_state_14aace280c15|4|0 1,0,0,0,0,0,0,0,0,0,0,0,0,0,0,1,
scooby_state_14aace28121e|6|4 1,0,0,0,0,0,0,0,0,0,0,0,0,0,0,1,
scooby_state_14aace26a182|6|1 1,0,0,0,0,0,0,0,0,0,0,0,0,0,0,1,
scooby_state_14aace280d30|52|1 1,0,0,0,0,0,0,0,0,0,0,0,0,0,0,1,
scooby_state_14aace2a75d4|9|1 0,0,0,0,0,0,0,0,0,0,0,1,0,0,0,1,
scooby_state_14aace27ca06|27|0 1,0,0,0,0,0,0,0,0,0,0,0,0,0,0,1,
scooby_state_14aace27a4a0|18|1 1,0,0,0,0,0,0,0,0,0,0,0,0,0,0,1,
scooby_state_14aace27c99b|57|1 1,0,0,0,0,0,0,0,0,0,0,0,0,0,0,1,
scooby_state_14aace31e1d0|7|0 1,0,0,0,0,0,0,0,0,0,0,0,0,0,0,1,
scooby_state_14aace27c9de|36|8 1,0,0,0,0,0,0,0,0,0,0,0,0,0,0,1,
scooby_state_14aace280881|34|-8 1,0,0,0,0,0,0,0,0,0,0,0,0,0,0,1,
scooby_state_14aace27c9de|12|-11 1,0,0,0,0,0,0,0,0,0,0,0,0,0,0,1,
scooby_state_14aace2a75c5|54|41 1,0,0,0,0,0,0,0,0,0,0,0,0,0,0,1,
scooby_state_56546d1c3802|32|1 1,0,0,0,0,0,0,0,0,0,0,0,0,0,0,1,
scooby_state_14aace280c74|21|2 1,0,0,0,0,0,0,0,0,0,0,0,0,0,0,1,
scooby_state_14aace2a7601|24|1 1,0,0,0,0,0,0,0,0,0,0,0,0,0,0,1,
scooby_state_14aace2a757e|35|-11 0,0,0,0,0,0,0,0,1,0,0,0,0,0,0,1,
scooby_state_14aace2843a4|4|1 0,0,0,0,0,0,0,0,0,0,0,1,0,0,0,1,
scooby_state_14aace2a770a|51|2 1,0,0,0,0,0,0,0,0,0,0,0,0,0,0,1,
scooby_state_14aacec26240|9|-2 1,0,0,0,0,0,0,0,0,0,0,0,0,0,0,1,
scooby_state_14aace27c9de|36|1 1,0,0,0,0,0,0,0,0,0,0,0,0,0,0,1,
scooby_state_14aace247400|16|1 1,0,0,0,0,0,0,0,0,0,0,0,0,0,0,1,
scooby_state_14aace283d1a|62|34 1,0,0,0,0,0,0,0,0,0,0,0,0,0,0,1,
scooby_state_14aace31e247|33|0 1,0,0,0,0,0,0,0,0,0,0,0,0,0,0,1,
scooby_state_14aace280e6c|6|-1 1,0,0,0,0,0,0,0,0,0,0,0,0,0,0,1,
scooby_state_14aace2a7706|42|1 0,0,0,0,0,0,0,0,0,1,0,0,0,0,0,1,
scooby_state_14aace283d4d|25|-31 0,0,1,0,0,0,0,0,0,0,0,0,0,0,0,1,
scooby_state_14aace2a76cb|33|-17 1,0,0,0,0,0,0,0,0,0,0,0,0,0,0,1,
scooby_state_14aace280480|18|1 1,0,0,0,0,0,0,0,0,0,0,0,0,0,0,1,
scooby_state_56546d1c24d3|51|-2 1,0,0,0,0,0,0,0,0,0,0,0,0,0,0,1,
scooby_state_14aace28398d|17|-40 0,0,0,0,0,0,1,0,0,0,0,0,0,0,0,1,
scooby_state_14aace27c93c|7|-5 1,0,0,0,0,0,0,0,0,0,0,0,0,0,0,1,
scooby_state_14aace2779c2|39|1 1,0,0,0,0,0,0,0,0,0,0,0,0,0,0,1,
scooby_state_14aace2a7703|45|0 0,0,0,0,0,0,0,0,0,0,0,1,0,0,0,1,
scooby_state_14aace280f8a|62|0 0,0,1,0,0,0,0,0,0,0,0,0,0,0,0,1,
scooby_state_14aace280f10|45|21 1,0,0,0,0,0,0,0,0,0,0,0,0,0,0,1,
scooby_state_14aace28398d|5|-1 0,0,0,0,0,0,1,0,0,0,0,0,0,0,0,1,
scooby_state_14aace28431c|10|5 1,0,0,0,0,0,0,0,0,0,0,0,0,0,0,1,
scooby_state_14aace280c03|48|1 1,0,0,0,0,0,0,0,0,0,0,0,0,0,0,1,
scooby_state_14aace2a76c4|15|-13 1,0,0,0,0,0,0,0,0,0,0,0,0,0,0,1,
scooby_state_14aace280ef2|59|2 1,0,0,0,0,0,0,0,0,0,0,0,0,0,0,1,
scooby_state_14aace283207|57|-2 0,0,0,0,0,0,0,0,0,0,0,1,0,0,0,1,
scooby_state_14aace249902|36|1 1,0,0,0,0,0,0,0,0,0,0,0,0,0,0,1,
scooby_state_14aace2a7583|40|-1 0,0,0,1,0,0,0,0,0,0,0,0,0,0,0,1,
scooby_state_14aace283c6b|1|0 0,0,0,0,0,0,0,0,0,0,0,1,0,0,0,1,
scooby_state_56546d1c2226|14|-48 0,0,0,0,0,0,0,0,0,0,0,0,0,1,0,1,
scooby_state_14aace2a764b|14|3 0,0,1,0,0,0,0,0,0,0,0,0,0,0,0,1,
scooby_state_14aace283c6b|34|9 0,0,0,0,0,0,0,0,0,0,0,0,0,1,0,1,
scooby_state_14aace2a7477|33|4 1,0,0,0,0,0,0,0,0,0,0,0,0,0,0,1,
scooby_state_14aace283cde|48|0 0,0,0,0,0,0,0,0,0,0,0,1,0,0,0,1,
scooby_state_14aace28438c|24|0 0,0,0,0,0,0,0,0,0,0,0,0,0,0,1,1,
scooby_state_14aace283c6b|11|9 0,0,0,0,0,0,0,0,0,0,0,1,0,0,0,1,
scooby_state_14aace280b40|45|21 1,0,0,0,0,0,0,0,0,0,0,0,0,0,0,1,
scooby_state_14aace27c965|54|1 1,0,0,0,0,0,0,0,0,0,0,0,0,0,0,1,
scooby_state_56546d1c2600|24|12 1,0,0,0,0,0,0,0,0,0,0,0,0,0,0,1,
scooby_state_14aace283d1a|5|3 0,0,0,0,0,0,0,0,0,0,0,1,0,0,0,1,
scooby_state_14aace27c93c|20|-36 1,0,0,0,0,0,0,0,0,0,0,0,0,0,0,1,
scooby_state_14aace2a7477|41|6 1,0,0,0,0,0,0,0,0,0,0,0,0,0,0,1,
scooby_state_14aace280795|60|3 1,0,0,0,0,0,0,0,0,0,0,0,0,0,0,1,
scooby_state_14aace2a758f|22|0 1,0,0,0,0,0,0,0,0,0,0,0,0,0,0,1,
scooby_state_14aace2a75c5|21|12 1,0,0,0,0,0,0,0,0,0,0,0,0,0,0,1,
scooby_state_14aace280c74|15|-5 1,0,0,0,0,0,0,0,0,0,0,0,0,0,0,1,
scooby_state_14aace283d1a|43|15 0,0,0,0,0,0,0,0,0,0,0,1,0,0,0,1,
scooby_state_14aace28110a|8|0 1,0,0,0,0,0,0,0,0,0,0,0,0,0,0,1,
scooby_state_56546d1c20a7|2|1 1,0,0,0,0,0,0,0,0,0,0,0,0,0,0,1,
scooby_state_14aace2a7706|52|0 0,0,0,0,0,0,0,0,0,0,0,1,0,0,0,1,
scooby_state_56546d1c24d3|60|51 0,0,0,0,0,0,0,0,0,0,1,0,0,0,0,1,
scooby_state_14aace27c93c|53|44 1,0,0,0,0,0,0,0,0,0,0,0,0,0,0,1,
scooby_state_14aace31e230|60|0 1,0,0,0,0,0,0,0,0,0,0,0,0,0,0,1,
scooby_state_14aace280ef2|9|1 1,0,0,0,0,0,0,0,0,0,0,0,0,0,0,1,
scooby_state_14aace280704|28|1 1,0,0,0,0,0,0,0,0,0,0,0,0,0,0,1,
scooby_state_14aace2a75c5|52|47 1,0,0,0,0,0,0,0,0,0,0,0,0,0,0,1,
scooby_state_14aace2a75c5|9|-17 0,0,0,0,1,0,0,0,0,0,0,0,0,0,0,1,
scooby_state_56546d1c9a80|42|0 1,0,0,0,0,0,0,0,0,0,0,0,0,0,0,1,
scooby_state_14aace2a7477|39|-24 1,0,0,0,0,0,0,0,0,0,0,0,0,0,0,1,
scooby_state_56546d1c2226|13|-20 0,0,0,0,0,0,0,0,1,0,0,0,0,0,0,1,
scooby_state_14aace27a300|12|0 1,0,0,0,0,0,0,0,0,0,0,0,0,0,0,1,
scooby_state_14aace283d1a|52|2 0,0,0,0,0,0,0,0,1,0,0,0,0,0,0,1,
scooby_state_14aace2805f4|3|-2 1,0,0,0,0,0,0,0,0,0,0,0,0,0,0,1,
scooby_state_14aace280f2b|61|0 1,0,0,0,0,0,0,0,0,0,0,0,0,0,0,1,
scooby_state_14aace2a770a|58|-3 0,0,0,0,0,0,0,0,0,0,0,1,0,0,0,1,
scooby_state_14aace2a757e|46|40 0,1,0,0,0,0,0,0,0,0,0,0,0,0,0,1,
scooby_state_14aace283cf9|33|1 0,0,0,0,0,0,0,0,0,0,0,1,0,0,0,1,
scooby_state_14aace2a7477|18|11 1,0,0,0,0,0,0,0,0,0,0,0,0,0,0,1,
scooby_state_14aace26a141|5|1 1,0,0,0,0,0,0,0,0,0,0,0,0,0,0,1,
scooby_state_14aace2a7477|35|-5 0,0,0,0,0,0,0,0,0,0,0,1,0,0,0,1,
scooby_state_14aace2a75c5|19|3 1,0,0,0,0,0,0,0,0,0,0,0,0,0,0,1,
scooby_state_14aace27c93c|18|0 1,0,0,0,0,0,0,0,0,0,0,0,0,0,0,1,
scooby_state_14aace28398d|38|-7 0,0,0,0,1,0,0,0,0,0,0,0,0,0,0,1,
scooby_state_56546d1c2226|23|-39 0,0,0,0,0,0,0,0,0,0,0,1,0,0,0,1,
scooby_state_14aace283a39|46|1 0,0,0,1,0,0,0,0,0,0,0,0,0,0,0,1,
scooby_state_56546d1c0d5a|38|5 1,0,0,0,0,0,0,0,0,0,0,0,0,0,0,1,
scooby_state_14aace28398d|12|-1 0,0,0,0,0,0,0,0,0,0,1,0,0,0,0,1,
scooby_state_14aace27c9d0|39|2 1,0,0,0,0,0,0,0,0,0,0,0,0,0,0,1,
scooby_state_14aace28448c|18|0 1,0,0,0,0,0,0,0,0,0,0,0,0,0,0,1,
scooby_state_14aace280f10|45|-16 1,0,0,0,0,0,0,0,0,0,0,0,0,0,0,1,
scooby_state_14aace27c9de|23|19 1,0,0,0,0,0,0,0,0,0,0,0,0,0,0,1,
scooby_state_14aace2a75cc|25|-30 1,0,0,0,0,0,0,0,0,0,0,0,0,0,0,1,
scooby_state_14aace2473c3|15|1 1,0,0,0,0,0,0,0,0,0,0,0,0,0,0,1,
scooby_state_14aace283d4d|23|-10 0,0,0,0,1,0,0,0,0,0,0,0,0,0,0,1,
scooby_state_14aace283cb6|10|-5 0,0,1,0,0,0,0,0,0,0,0,0,0,0,0,1,
scooby_state_14aace283d10|52|2 1,0,0,0,0,0,0,0,0,0,0,0,0,0,0,1,
scooby_state_14aace27c99b|56|-2 1,0,0,0,0,0,0,0,0,0,0,0,0,0,0,1,
scooby_state_14aace27f9bb|29|0 1,0,0,0,0,0,0,0,0,0,0,0,0,0,0,1,
scooby_state_14aace283c6b|37|9 0,0,0,0,0,0,0,0,0,0,0,1,0,0,0,1,
scooby_state_14aace27c9de|20|3 1,0,0,0,0,0,0,0,0,0,0,0,0,0,0,1,
scooby_state_56546d1c2226|18|-42 1,0,0,0,0,0,0,0,0,0,0,0,0,0,0,1,
scooby_state_14aace283cde|50|0 0,0,0,0,0,0,0,0,0,0,0,1,0,0,0,1,
scooby_state_14aace283c6b|5|2 0,0,0,0,0,0,0,1,0,0,0,0,0,0,0,1,
scooby_state_14aace283207|5|-35 1,0,0,0,0,0,0,0,0,0,0,0,0,0,0,1,
scooby_state_7ffd9c71b970|37|-20 1,0,0,0,0,0,0,0,0,0,0,0,0,0,0,1,
scooby_state_14aace28307d|48|47 1,0,0,0,0,0,0,0,0,0,0,0,0,0,0,1,
scooby_state_14aace2a7641|56|4 0,0,0,0,0,0,0,0,0,0,0,1,0,0,0,1,
scooby_state_14aace27c93c|60|55 1,0,0,0,0,0,0,0,0,0,0,0,0,0,0,1,
scooby_state_14aace280f10|15|15 0,0,1,0,0,0,0,0,0,0,0,0,0,0,0,1,
scooby_state_14aace2793c3|15|1 1,0,0,0,0,0,0,0,0,0,0,0,0,0,0,1,
scooby_state_56546d1c232f|56|0 0,0,0,0,0,0,0,0,0,0,0,0,0,0,1,1,
scooby_state_14aace28398d|12|5 0,0,0,0,0,0,1,0,0,0,0,0,0,0,0,1,
scooby_state_14aace27c9f4|56|8 1,0,0,0,0,0,0,0,0,0,0,0,0,0,0,1,
scooby_state_14aace283207|42|13 1,0,0,0,0,0,0,0,0,0,0,0,0,0,0,1,
scooby_state_14aace280d8b|54|8 1,0,0,0,0,0,0,0,0,0,0,0,0,0,0,1,
scooby_state_14aace27c9de|28|3 1,0,0,0,0,0,0,0,0,0,0,0,0,0,0,1,
scooby_state_14aace27c93c|32|0 1,0,0,0,0,0,0,0,0,0,0,0,0,0,0,1,
scooby_state_56546d1c22dc|51|-5 0,0,0,0,0,0,0,0,0,0,0,1,0,0,0,1,
scooby_state_14aace27c93c|55|37 1,0,0,0,0,0,0,0,0,0,0,0,0,0,0,1,
scooby_state_56546d1c2386|52|-6 0,0,0,0,0,0,0,0,0,0,0,0,0,0,1,1,
scooby_state_56546d1c0710|61|6 1,0,0,0,0,0,0,0,0,0,0,0,0,0,0,1,
scooby_state_14aace27a350|13|1 1,0,0,0,0,0,0,0,0,0,0,0,0,0,0,1,
scooby_state_14aace2805f4|13|-3 1,0,0,0,0,0,0,0,0,0,0,0,0,0,0,1,
scooby_state_56546d1c2226|21|-31 1,0,0,0,0,0,0,0,0,0,0,0,0,0,0,1,
scooby_state_14aace2a7650|20|3 0,0,0,0,0,0,0,0,0,0,0,0,0,1,0,1,
scooby_state_14aace27c9de|21|1 1,0,0,0,0,0,0,0,0,0,0,0,0,0,0,1,
scooby_state_14aace280795|63|3 1,0,0,0,0,0,0,0,0,0,0,0,0,0,0,1,
scooby_state_14aace2810e6|39|1 0,0,0,0,0,0,0,0,0,0,0,1,0,0,0,1,
scooby_state_56546d1c21d5|22|-6 0,0,0,0,0,0,0,0,0,0,0,0,0,0,1,1,
scooby_state_14aace2a75c5|29|-4 1,0,0,0,0,0,0,0,0,0,0,0,0,0,0,1,
scooby_state_14aace283cb6|19|-7 0,0,0,0,1,0,0,0,0,0,0,0,0,0,0,1,
scooby_state_14aace2a770e|63|51 0,0,0,0,0,0,0,0,0,0,0,1,0,0,0,1,
scooby_state_14aace2a76c4|43|25 1,0,0,0,0,0,0,0,0,0,0,0,0,0,0,1,
scooby_state_14aace280c74|33|-22 1,0,0,0,0,0,0,0,0,0,0,0,0,0,0,1,
scooby_state_14aace2a7477|41|-15 1,0,0,0,0,0,0,0,0,0,0,0,0,0,0,1,
scooby_state_14aace279490|18|5 1,0,0,0,0,0,0,0,0,0,0,0,0,0,0,1,

scooby_action_0_deg_dist 0,452598,0,0,0,0,0,0,0,0,0,0,0,0,0,0,
scooby_action_-6_deg_dist 0,15130,37,0,13,0,1,0,0,0,0,0,0,0,0,0,
scooby_action_4_deg_dist 0,16140,73,0,6,0,0,0,0,0,0,0,0,0,0,0,
scooby_action_1_deg_dist 0,1072955,224225,0,227023,0,386615,0,0,0,0,0,0,0,0,0,
scooby_action_30_deg_dist 0,9790,26,0,2,0,0,0,0,0,0,0,0,0,0,0,
scooby_action_5_deg_dist 0,16981,90,0,16,0,0,0,0,0,0,0,0,0,0,0,
scooby_action_3_deg_dist 0,17678,82,0,12,0,0,0,0,0,0,0,0,0,0,0,
scooby_action_32_deg_dist 0,9707,18,0,6,0,0,0,0,0,0,0,0,0,0,0,
scooby_action_10_deg_dist 0,14733,60,0,19,0,3,0,0,0,0,0,0,0,0,0,
scooby_action_11_deg_dist 0,14218,68,0,19,0,0,0,0,0,0,0,0,0,0,0,
scooby_action_12_deg_dist 0,13488,52,0,12,0,0,0,0,0,0,0,0,0,0,0,
scooby_action_22_deg_dist 0,10874,41,0,22,0,1,0,0,0,0,0,0,0,0,0,
scooby_action_23_deg_dist 0,10971,27,0,3,0,0,0,0,0,0,0,0,0,0,0,
scooby_action_-1_deg_dist 0,51145,4182,0,6072,0,30678,0,0,0,0,0,0,0,0,0,
scooby_action_-3_deg_dist 0,14572,209,0,12,0,0,0,0,0,0,0,0,0,0,0,

scooby_track_called 2620705
scooby_track_same_address 23330
scooby_track_evict 2597119

scooby_reward_demand_called 2620705
scooby_reward_demand_pt_not_found 2092266
scooby_reward_demand_pt_found 528439
scooby_reward_demand_pt_found_total 528439
scooby_reward_demand_has_reward 89
scooby_reward_train_called 2002787
scooby_reward_assign_reward_called 2597220
scooby_reward_no_pref 452598
scooby_reward_incorrect 1550189
scooby_reward_correct_untimely 436142
scooby_reward_correct_timely 92208
scooby_reward_out_of_bounds 66083
scooby_reward_tracker_hit 0

scooby_reward_none_low_bw 452598
scooby_reward_none_high_bw 0
scooby_reward_incorrect_low_bw 1550189
scooby_reward_incorrect_high_bw 0
scooby_reward_correct_untimely_low_bw 436142
scooby_reward_correct_untimely_high_bw 0
scooby_reward_correct_timely_low_bw 92208
scooby_reward_correct_timely_high_bw 0
scooby_reward_out_of_bounds_low_bw 66083
scooby_reward_out_of_bounds_high_bw 0
scooby_reward_tracker_hit_low_bw 0
scooby_reward_tracker_hit_high_bw 0

scooby_reward_1 0,1406083,387117,81611,28800,0,
scooby_reward_3 0,13781,1313,509,1190,0,
scooby_reward_4 0,12449,1072,471,1452,0,
scooby_reward_5 0,12487,1142,731,1859,0,
scooby_reward_10 0,9944,816,446,2970,0,
scooby_reward_11 0,9143,768,514,3315,0,
scooby_reward_12 0,8439,673,455,3441,0,
scooby_reward_22 0,5096,391,266,4811,0,
scooby_reward_23 0,5244,313,316,4827,0,
scooby_reward_30 0,3551,257,207,5550,0,
scooby_reward_32 0,3376,227,202,5676,0,
scooby_reward_-1 0,36521,40275,6070,1139,0,
scooby_reward_-3 0,11993,741,74,352,0,
scooby_reward_-6 0,12082,1037,336,701,0,
scooby_reward_0 452598,0,0,0,0,0,

scooby_train_called 2597118
scooby_train_compute_reward 2002787

scooby_register_fill_called 2478005
scooby_register_fill_set 1435098
scooby_register_fill_set_total 1435098

scooby_register_prefetch_hit_called 1612443
scooby_register_prefetch_hit_set 549825
scooby_register_prefetch_hit_set_total 549825

scooby_pref_issue_scooby 4837928

learning_engine_featurewise.action.called 2620705
learning_engine_featurewise.action.explore 4805
learning_engine_featurewise.action.exploit 2615900
learning_engine_featurewise.action.fallback 1343278
learning_engine_featurewise.action.dyn_fallback_saved_bw 0
learning_engine_featurewise.action.dyn_fallback_saved_bw_acc 866252
learning_engine_featurewise.action.index_1_explored 311
learning_engine_featurewise.action.index_1_exploited 1910507
learning_engine_featurewise.action.index_3_explored 332
learning_engine_featurewise.action.index_3_exploited 17440
learning_engine_featurewise.action.index_4_explored 333
learning_engine_featurewise.action.index_4_exploited 15886
learning_engine_featurewise.action.index_5_explored 286
learning_engine_featurewise.action.index_5_exploited 16801
learning_engine_featurewise.action.index_10_explored 366
learning_engine_featurewise.action.index_10_exploited 14449
learning_engine_featurewise.action.index_11_explored 327
learning_engine_featurewise.action.index_11_exploited 13978
learning_engine_featurewise.action.index_12_explored 323
learning_engine_featurewise.action.index_12_exploited 13229
learning_engine_featurewise.action.index_22_explored 330
learning_engine_featurewise.action.index_22_exploited 10608
learning_engine_featurewise.action.index_23_explored 322
learning_engine_featurewise.action.index_23_exploited 10679
learning_engine_featurewise.action.index_30_explored 314
learning_engine_featurewise.action.index_30_exploited 9504
learning_engine_featurewise.action.index_32_explored 277
learning_engine_featurewise.action.index_32_exploited 9454
learning_engine_featurewise.action.index_-1_explored 321
learning_engine_featurewise.action.index_-1_exploited 91756
learning_engine_featurewise.action.index_-3_explored 326
learning_engine_featurewise.action.index_-3_exploited 14467
learning_engine_featurewise.action.index_-6_explored 303
learning_engine_featurewise.action.index_-6_exploited 14878
learning_engine_featurewise.action.index_0_explored 334
learning_engine_featurewise.action.index_0_exploited 452264
learning_engine_featurewise.learn.called 2597118
learning_engine_featurewise.learn.su_skip_PC 0
learning_engine_featurewise.learn.su_skip_PC_Delta 0

learning_engine_featurewise.q_value_histogram.bucket_0 605996
learning_engine_featurewise.q_value_histogram.bucket_1 42905
learning_engine_featurewise.q_value_histogram.bucket_2 1503116
learning_engine_featurewise.q_value_histogram.bucket_3 98498
learning_engine_featurewise.q_value_histogram.bucket_4 27840
learning_engine_featurewise.q_value_histogram.bucket_5 247172
learning_engine_featurewise.q_value_histogram.bucket_6 90373
learning_engine_featurewise.q_value_histogram.bucket_7 0

learning_engine_featurewise.consensus.total 2615900
learning_engine_featurewise.consensus.feature_align_PC 1972249
learning_engine_featurewise.consensus.feature_align_PC_ratio 0.75
learning_engine_featurewise.consensus.feature_align_PC_Delta 2021184
learning_engine_featurewise.consensus.feature_align_PC_Delta_ratio 0.77
learning_engine_featurewise.consensus.feature_align_all 1952615
learning_engine_featurewise.consensus.feature_align_all_ratio 0.75

learning_engine_featurewise.feature_PC_min_weight 1000000.00000000
learning_engine_featurewise.feature_PC_max_weight 0.00000000
learning_engine_featurewise.feature_PC_Delta_min_weight 1000000.00000000
learning_engine_featurewise.feature_PC_Delta_max_weight 0.00000000
unique_pcs 463
unique_pages 8663
unique_trigger_pcs 186
total_bitmaps_seen 0
unique_bitmaps_seen 0

scooby_bw_epochs 644003
scooby_bw_level_0 325923
scooby_bw_level_1 248096
scooby_bw_level_2 50656
scooby_bw_level_3 19328

scooby_ipc_epochs 0
scooby_ipc_level_0 0
scooby_ipc_level_1 0
scooby_ipc_level_2 0
scooby_ipc_level_3 0

scooby_cache_acc_epochs 159958
scooby_cache_acc_level_0 6236
scooby_cache_acc_level_1 92028
scooby_cache_acc_level_2 44036
scooby_cache_acc_level_3 12138
scooby_cache_acc_level_4 3102
scooby_cache_acc_level_5 856
scooby_cache_acc_level_6 354
scooby_cache_acc_level_7 279
scooby_cache_acc_level_8 259
scooby_cache_acc_level_9 670

Channel_0_RQ_row_buffer_hit 703591
Channel_0_RQ_row_buffer_miss 1166720
Channel_0_WQ_row_buffer_hit 196285
Channel_0_WQ_row_buffer_miss 191935
Channel_0_WQ_full 0
Channel_0_dbus_congested 914992

avg_congested_cycle 9

DRAM_bw_pochs 644003
DRAM_bw_level_0 325923
DRAM_bw_level_1 248096
DRAM_bw_level_2 50656
DRAM_bw_level_3 19328
