*************************************************
   ChampSim Multicore Out-of-Order Simulator
   Last compiled: Apr  3 2025 20:54:34
*************************************************
parsing config file: /home/zir/Pythia/config/pythia.ini

trace_0 /home/zir/ChampSim/ML-DPC/ChampSimTraces/gap/bfs-10.trace.gz
adding L2C_PREFETCHER: Scooby
Initialize SHIP state
warmup_instructions 10000000
simulation_instructions 50000000
champsim_seed 97
measure_ipc 0
measure_ipc_epoch 1000
measure_dram_bw 1
measure_dram_bw_epoch 256
measure_cache_acc 1
measure_cache_acc_epoch 1024
l1d_perfect 0
l2c_perfect 0
llc_perfect 0
l1d_semi_perfect 0
l2c_semi_perfect 0
llc_semi_perfect 0
semi_perfect_cache_page_buffer_size 64

num_cpus 1
cpu_freq 4000
dram_io_freq 2400
page_size 4096
block_size 64
max_read_per_cycle 8
max_fill_per_cycle 1
dram_channels 1
log2_dram_channels 0
dram_ranks 1
dram_banks 8
dram_rows 65536
dram_columns 128
dram_row_size 8
dram_size 4096
dram_pages 1048576

fetch_width 6
decode_width 6
exec_width 4
lq_width 2
sq_width 2
retire_width 4
scheduler_size 128
branch_mispredict_penalty 20
rob_size 256
lq_size 72
sq_size 56
num_instr_destinations_sparc 4
num_instr_destinations 2
num_instr_sources 4

itlb_set 16
itlb_way 8
itlb_rq_size 16
itlb_wq_size 16
itlb_pq_size 0
itlb_mshr_size 8
itlb_latency 1

dtlb_set 16
dtlb_way 4
dtlb_rq_size 16
dtlb_wq_size 16
dtlb_pq_size 0
dtlb_mshr_size 8
dtlb_latency 1

stlb_set 128
stlb_way 12
stlb_rq_size 32
stlb_wq_size 32
stlb_pq_size 0
stlb_mshr_size 16
stlb_latency 8

l1i_size 32
l1i_set 64
l1i_way 8
l1i_rq_size 64
l1i_wq_size 64
l1i_pq_size 8
l1i_mshr_size 8
l1i_latency 1

l1d_size 32
l1d_set 64
l1d_way 8
l1d_rq_size 64
l1d_wq_size 64
l1d_pq_size 8
l1d_mshr_size 16
l1d_latency 4

l2c_size 256
l2c_set 512
l2c_way 8
l2c_rq_size 32
l2c_wq_size 32
l2c_pq_size 32
l2c_mshr_size 32
l2c_latency 10

llc_size 2048
llc_set 2048
llc_way 16
llc_rq_size 32
llc_wq_size 32
llc_pq_size 32
llc_mshr_size 64
llc_latency 20

dram_channel_width 8
dram_wq_size 64
dram_rq_size 64
tRP 15
tRCD 15
tCAS 12.5
dram_dbus_turn_around_time 30
dram_write_high_wm 56
dram_write_low_wm 48
min_dram_writes_per_switch 16
dram_mtps 2400
dram_dbus_return_time 13

scooby_alpha 0.0065088
scooby_gamma 0.556301
scooby_epsilon 0.00182284
scooby_state_num_bits 10
scooby_max_states 1024
scooby_seed 200
scooby_policy EGreedy
scooby_learning_type SARSA
scooby_actions 1,3,4,5,10,11,12,22,23,30,32,-1,-3,-6,0,
scooby_max_actions 15
scooby_pt_size 256
scooby_st_size 64
scooby_max_pcs 5
scooby_max_offsets 5
scooby_max_deltas 5
scooby_reward_none -4
scooby_reward_incorrect -8
scooby_reward_correct_untimely 12
scooby_reward_correct_timely 20
scooby_brain_zero_init 0
scooby_enable_reward_all 0
scooby_enable_track_multiple 0
scooby_enable_reward_out_of_bounds 1
scooby_reward_out_of_bounds -12
scooby_state_type 1
scooby_state_hash_type 11
scooby_access_debug 0
scooby_print_access_debug 0
scooby_print_access_debug_pc deadbeef
scooby_print_access_debug_pc_count 0
scooby_print_trace 0
scooby_enable_state_action_stats 1
scooby_enable_reward_tracker_hit 0
scooby_reward_tracker_hit -2
scooby_enable_featurewise_engine 1
scooby_pref_degree 1
scooby_enable_dyn_degree 1
scooby_max_to_avg_q_thresholds 0.5,1,2,
scooby_dyn_degrees 1,2,4,4,
scooby_multi_deg_select_type 2
scooby_last_pref_offset_conf_thresholds 1,3,8,
scooby_dyn_degrees_type2 1,2,4,6,
scooby_action_tracker_size 2
scooby_high_bw_thresh 4
scooby_enable_hbw_reward 1
scooby_reward_hbw_correct_timely 20
scooby_reward_hbw_correct_untimely 12
scooby_reward_hbw_incorrect -14
scooby_reward_hbw_none -2
scooby_reward_hbw_out_of_bounds -12
scooby_reward_hbw_tracker_hit -2
scooby_last_pref_offset_conf_thresholds_hbw 1,3,8,
scooby_dyn_degrees_type2_hbw 1,2,4,6,

le_enable_trace 0
le_trace_interval 0
le_trace_file_name 
le_trace_state 0
le_enable_score_plot 0
le_plot_file_name 
le_plot_actions 
le_enable_action_trace 0
le_action_trace_interval 0
le_action_trace_name 
le_enable_action_plot 0

le_featurewise_active_features PC, PC_Delta
le_featurewise_num_tilings 3,3,
le_featurewise_num_tiles 128,128,
le_featurewise_hash_types 2,2,
le_featurewise_enable_tiling_offset 1,1,
le_featurewise_max_q_thresh 0.5
le_featurewise_enable_action_fallback 1
le_featurewise_feature_weights 1,1,
le_featurewise_enable_dynamic_weight 0
le_featurewise_weight_gradient 0.001
le_featurewise_disable_adjust_weight_all_features_align 1
le_featurewise_selective_update 0
le_featurewise_pooling_type 2
le_featurewise_enable_dyn_action_fallback 1
le_featurewise_bw_acc_check_level 1
le_featurewise_acc_thresh 2
le_featurewise_enable_trace 0
le_featurewise_trace_feature_type 0
le_featurewise_trace_feature 
le_featurewise_trace_interval 0
le_featurewise_trace_record_count 0
le_featurewise_trace_file_name 
le_featurewise_enable_score_plot 0
le_featurewise_plot_actions 
le_featurewise_plot_file_name 


Heartbeat CPU  0 instructions:    1000001 cycles:    1375421 heartbeat IPC: 0.72705 cumulative IPC: 0.72705 (Simulation time: 0 hr 0 min 1 sec) 
Heartbeat CPU  0 instructions:    2000000 cycles:    2748887 heartbeat IPC: 0.72808 cumulative IPC: 0.72757 (Simulation time: 0 hr 0 min 2 sec) 
Heartbeat CPU  0 instructions:    3000003 cycles:    4126881 heartbeat IPC: 0.72569 cumulative IPC: 0.72694 (Simulation time: 0 hr 0 min 3 sec) 
Heartbeat CPU  0 instructions:    4000000 cycles:    5501053 heartbeat IPC: 0.72771 cumulative IPC: 0.72713 (Simulation time: 0 hr 0 min 4 sec) 
Heartbeat CPU  0 instructions:    5000000 cycles:    6872448 heartbeat IPC: 0.72918 cumulative IPC: 0.72754 (Simulation time: 0 hr 0 min 5 sec) 
Heartbeat CPU  0 instructions:    6000000 cycles:    8248405 heartbeat IPC: 0.72677 cumulative IPC: 0.72741 (Simulation time: 0 hr 0 min 6 sec) 
Heartbeat CPU  0 instructions:    7000002 cycles:    9624893 heartbeat IPC: 0.72649 cumulative IPC: 0.72728 (Simulation time: 0 hr 0 min 7 sec) 
Heartbeat CPU  0 instructions:    8000000 cycles:   11005167 heartbeat IPC: 0.72449 cumulative IPC: 0.72693 (Simulation time: 0 hr 0 min 8 sec) 
Heartbeat CPU  0 instructions:    9000000 cycles:   12374612 heartbeat IPC: 0.73022 cumulative IPC: 0.72730 (Simulation time: 0 hr 0 min 9 sec) 
Heartbeat CPU  0 instructions:   10000001 cycles:   13758662 heartbeat IPC: 0.72252 cumulative IPC: 0.72681 (Simulation time: 0 hr 0 min 10 sec) 

Warmup complete CPU  0 instructions:   10000001 cycles:   13758662 (Simulation time: 0 hr 0 min 10 sec) 

Heartbeat CPU  0 instructions:   11000000 cycles:   16763303 heartbeat IPC: 0.33282 cumulative IPC: 0.33282 (Simulation time: 0 hr 0 min 13 sec) 
Heartbeat CPU  0 instructions:   12000000 cycles:   19713553 heartbeat IPC: 0.33895 cumulative IPC: 0.33586 (Simulation time: 0 hr 0 min 15 sec) 
Heartbeat CPU  0 instructions:   13000002 cycles:   22557596 heartbeat IPC: 0.35161 cumulative IPC: 0.34095 (Simulation time: 0 hr 0 min 17 sec) 
Heartbeat CPU  0 instructions:   14000000 cycles:   25397937 heartbeat IPC: 0.35207 cumulative IPC: 0.34366 (Simulation time: 0 hr 0 min 19 sec) 
Heartbeat CPU  0 instructions:   15000003 cycles:   28237968 heartbeat IPC: 0.35211 cumulative IPC: 0.34532 (Simulation time: 0 hr 0 min 21 sec) 
Heartbeat CPU  0 instructions:   16000000 cycles:   31033759 heartbeat IPC: 0.35768 cumulative IPC: 0.34732 (Simulation time: 0 hr 0 min 24 sec) 
Heartbeat CPU  0 instructions:   17000000 cycles:   33865343 heartbeat IPC: 0.35316 cumulative IPC: 0.34814 (Simulation time: 0 hr 0 min 26 sec) 
Heartbeat CPU  0 instructions:   18000001 cycles:   36683058 heartbeat IPC: 0.35490 cumulative IPC: 0.34897 (Simulation time: 0 hr 0 min 28 sec) 
Heartbeat CPU  0 instructions:   19000000 cycles:   39532604 heartbeat IPC: 0.35093 cumulative IPC: 0.34919 (Simulation time: 0 hr 0 min 30 sec) 
Heartbeat CPU  0 instructions:   20000000 cycles:   42377744 heartbeat IPC: 0.35148 cumulative IPC: 0.34942 (Simulation time: 0 hr 0 min 32 sec) 
Heartbeat CPU  0 instructions:   21000001 cycles:   45203215 heartbeat IPC: 0.35392 cumulative IPC: 0.34982 (Simulation time: 0 hr 0 min 34 sec) 
Heartbeat CPU  0 instructions:   22000000 cycles:   48035445 heartbeat IPC: 0.35308 cumulative IPC: 0.35009 (Simulation time: 0 hr 0 min 37 sec) 
Heartbeat CPU  0 instructions:   23000000 cycles:   50864718 heartbeat IPC: 0.35345 cumulative IPC: 0.35035 (Simulation time: 0 hr 0 min 39 sec) 
Heartbeat CPU  0 instructions:   24000000 cycles:   53720673 heartbeat IPC: 0.35015 cumulative IPC: 0.35033 (Simulation time: 0 hr 0 min 41 sec) 
Heartbeat CPU  0 instructions:   25000001 cycles:   56550135 heartbeat IPC: 0.35342 cumulative IPC: 0.35054 (Simulation time: 0 hr 0 min 43 sec) 
Heartbeat CPU  0 instructions:   26000000 cycles:   59397727 heartbeat IPC: 0.35117 cumulative IPC: 0.35058 (Simulation time: 0 hr 0 min 45 sec) 
Heartbeat CPU  0 instructions:   27000001 cycles:   62219380 heartbeat IPC: 0.35440 cumulative IPC: 0.35080 (Simulation time: 0 hr 0 min 47 sec) 
Heartbeat CPU  0 instructions:   28000000 cycles:   65031333 heartbeat IPC: 0.35562 cumulative IPC: 0.35106 (Simulation time: 0 hr 0 min 49 sec) 
Heartbeat CPU  0 instructions:   29000000 cycles:   67817481 heartbeat IPC: 0.35892 cumulative IPC: 0.35147 (Simulation time: 0 hr 0 min 51 sec) 
Heartbeat CPU  0 instructions:   30000002 cycles:   70633190 heartbeat IPC: 0.35515 cumulative IPC: 0.35165 (Simulation time: 0 hr 0 min 54 sec) 
Heartbeat CPU  0 instructions:   31000000 cycles:   73466792 heartbeat IPC: 0.35291 cumulative IPC: 0.35171 (Simulation time: 0 hr 0 min 56 sec) 
Heartbeat CPU  0 instructions:   32000000 cycles:   76287462 heartbeat IPC: 0.35453 cumulative IPC: 0.35184 (Simulation time: 0 hr 0 min 58 sec) 
Heartbeat CPU  0 instructions:   33000001 cycles:   79091591 heartbeat IPC: 0.35662 cumulative IPC: 0.35204 (Simulation time: 0 hr 1 min 0 sec) 
Heartbeat CPU  0 instructions:   34000002 cycles:   81909358 heartbeat IPC: 0.35489 cumulative IPC: 0.35216 (Simulation time: 0 hr 1 min 2 sec) 
Heartbeat CPU  0 instructions:   35000000 cycles:   84738936 heartbeat IPC: 0.35341 cumulative IPC: 0.35221 (Simulation time: 0 hr 1 min 5 sec) 
Heartbeat CPU  0 instructions:   36000000 cycles:   87573951 heartbeat IPC: 0.35273 cumulative IPC: 0.35223 (Simulation time: 0 hr 1 min 7 sec) 
Heartbeat CPU  0 instructions:   37000000 cycles:   90382217 heartbeat IPC: 0.35609 cumulative IPC: 0.35237 (Simulation time: 0 hr 1 min 9 sec) 
Heartbeat CPU  0 instructions:   38000000 cycles:   93196631 heartbeat IPC: 0.35531 cumulative IPC: 0.35248 (Simulation time: 0 hr 1 min 11 sec) 
Heartbeat CPU  0 instructions:   39000000 cycles:   96023513 heartbeat IPC: 0.35375 cumulative IPC: 0.35252 (Simulation time: 0 hr 1 min 14 sec) 
Heartbeat CPU  0 instructions:   40000000 cycles:   98840313 heartbeat IPC: 0.35501 cumulative IPC: 0.35260 (Simulation time: 0 hr 1 min 16 sec) 
Heartbeat CPU  0 instructions:   41000000 cycles:  101668367 heartbeat IPC: 0.35360 cumulative IPC: 0.35263 (Simulation time: 0 hr 1 min 18 sec) 
Heartbeat CPU  0 instructions:   42000000 cycles:  104500464 heartbeat IPC: 0.35310 cumulative IPC: 0.35265 (Simulation time: 0 hr 1 min 20 sec) 
Heartbeat CPU  0 instructions:   43000000 cycles:  107302603 heartbeat IPC: 0.35687 cumulative IPC: 0.35278 (Simulation time: 0 hr 1 min 22 sec) 
Heartbeat CPU  0 instructions:   44000000 cycles:  110113828 heartbeat IPC: 0.35572 cumulative IPC: 0.35286 (Simulation time: 0 hr 1 min 24 sec) 
Heartbeat CPU  0 instructions:   45000000 cycles:  112941585 heartbeat IPC: 0.35364 cumulative IPC: 0.35288 (Simulation time: 0 hr 1 min 26 sec) 
Heartbeat CPU  0 instructions:   46000001 cycles:  115755441 heartbeat IPC: 0.35538 cumulative IPC: 0.35295 (Simulation time: 0 hr 1 min 28 sec) 
Heartbeat CPU  0 instructions:   47000000 cycles:  118581273 heartbeat IPC: 0.35388 cumulative IPC: 0.35298 (Simulation time: 0 hr 1 min 31 sec) 
Heartbeat CPU  0 instructions:   48000000 cycles:  121418858 heartbeat IPC: 0.35241 cumulative IPC: 0.35296 (Simulation time: 0 hr 1 min 33 sec) 
Heartbeat CPU  0 instructions:   49000000 cycles:  124227669 heartbeat IPC: 0.35602 cumulative IPC: 0.35304 (Simulation time: 0 hr 1 min 35 sec) 
Heartbeat CPU  0 instructions:   50000001 cycles:  127050095 heartbeat IPC: 0.35431 cumulative IPC: 0.35307 (Simulation time: 0 hr 1 min 37 sec) 
Heartbeat CPU  0 instructions:   51000003 cycles:  129881516 heartbeat IPC: 0.35318 cumulative IPC: 0.35307 (Simulation time: 0 hr 1 min 39 sec) 
Heartbeat CPU  0 instructions:   52000000 cycles:  132717949 heartbeat IPC: 0.35255 cumulative IPC: 0.35306 (Simulation time: 0 hr 1 min 41 sec) 
Heartbeat CPU  0 instructions:   53000000 cycles:  135572316 heartbeat IPC: 0.35034 cumulative IPC: 0.35300 (Simulation time: 0 hr 1 min 43 sec) 
Heartbeat CPU  0 instructions:   54000000 cycles:  138399008 heartbeat IPC: 0.35377 cumulative IPC: 0.35302 (Simulation time: 0 hr 1 min 45 sec) 
Heartbeat CPU  0 instructions:   55000000 cycles:  141564740 heartbeat IPC: 0.31588 cumulative IPC: 0.35210 (Simulation time: 0 hr 1 min 47 sec) 
Heartbeat CPU  0 instructions:   56000000 cycles:  146196570 heartbeat IPC: 0.21590 cumulative IPC: 0.34733 (Simulation time: 0 hr 1 min 50 sec) 
Heartbeat CPU  0 instructions:   57000003 cycles:  150733677 heartbeat IPC: 0.22041 cumulative IPC: 0.34313 (Simulation time: 0 hr 1 min 52 sec) 
Heartbeat CPU  0 instructions:   58000002 cycles:  155276415 heartbeat IPC: 0.22013 cumulative IPC: 0.33918 (Simulation time: 0 hr 1 min 54 sec) 
Heartbeat CPU  0 instructions:   59000000 cycles:  159793712 heartbeat IPC: 0.22137 cumulative IPC: 0.33554 (Simulation time: 0 hr 1 min 57 sec) 
Heartbeat CPU  0 instructions:   60000000 cycles:  164295535 heartbeat IPC: 0.22213 cumulative IPC: 0.33214 (Simulation time: 0 hr 1 min 59 sec) 
Finished CPU 0 instructions: 50000001 cycles: 150536887 cumulative IPC: 0.33214 (Simulation time: 0 hr 1 min 59 sec) 

ChampSim completed all CPUs

[ROI Statistics]
Core_0_instructions 50000001
Core_0_cycles 150536887
Core_0_IPC 0.33214

Core_0_branch_prediction_accuracy 87.16968
Core_0_branch_MPKI 26.28968
Core_0_average_ROB_occupancy_at_mispredict 36.69203

Core_0_L1D_total_access 10712618
Core_0_L1D_total_hit 7909863
Core_0_L1D_total_miss 2802755
Core_0_L1D_loads 9818290
Core_0_L1D_load_hit 7025887
Core_0_L1D_load_miss 2792403
Core_0_L1D_RFOs 894328
Core_0_L1D_RFO_hit 883976
Core_0_L1D_RFO_miss 10352
Core_0_L1D_prefetches 0
Core_0_L1D_prefetch_hit 0
Core_0_L1D_prefetch_miss 0
Core_0_L1D_writebacks 0
Core_0_L1D_writeback_hit 0
Core_0_L1D_writeback_miss 0
Core_0_L1D_prefetch_requested 0
Core_0_L1D_prefetch_dropped 0
Core_0_L1D_prefetch_issued 0
Core_0_L1D_prefetch_filled 0
Core_0_L1D_prefetch_useful 0
Core_0_L1D_prefetch_useless 0
Core_0_L1D_prefetch_late 0
Core_0_L1D_average_miss_latency 24.06463

Core_0_L1D_rq_access 13123016
Core_0_L1D_rq_forward 0
Core_0_L1D_rq_merged 3027472
Core_0_L1D_rq_to_cache 10095544
Core_0_L1D_rq_full 0

Core_0_L1D_wq_access 932376
Core_0_L1D_wq_forward 0
Core_0_L1D_wq_merged 57
Core_0_L1D_wq_to_cache 932319
Core_0_L1D_wq_full 194019

Core_0_L1D_pq_access 0
Core_0_L1D_pq_forward 0
Core_0_L1D_pq_merged 0
Core_0_L1D_pq_to_cache 0
Core_0_L1D_pq_full 0

Core_0_L1D_acc_epochs 156950
Core_0_L1D_acc_level_0 156950
Core_0_L1D_acc_level_1 0
Core_0_L1D_acc_level_2 0
Core_0_L1D_acc_level_3 0
Core_0_L1D_acc_level_4 0
Core_0_L1D_acc_level_5 0
Core_0_L1D_acc_level_6 0
Core_0_L1D_acc_level_7 0
Core_0_L1D_acc_level_8 0
Core_0_L1D_acc_level_9 0

Core_0_L1I_total_access 9735983
Core_0_L1I_total_hit 9735945
Core_0_L1I_total_miss 38
Core_0_L1I_loads 9735983
Core_0_L1I_load_hit 9735945
Core_0_L1I_load_miss 38
Core_0_L1I_RFOs 0
Core_0_L1I_RFO_hit 0
Core_0_L1I_RFO_miss 0
Core_0_L1I_prefetches 0
Core_0_L1I_prefetch_hit 0
Core_0_L1I_prefetch_miss 0
Core_0_L1I_writebacks 0
Core_0_L1I_writeback_hit 0
Core_0_L1I_writeback_miss 0
Core_0_L1I_prefetch_requested 0
Core_0_L1I_prefetch_dropped 0
Core_0_L1I_prefetch_issued 0
Core_0_L1I_prefetch_filled 0
Core_0_L1I_prefetch_useful 0
Core_0_L1I_prefetch_useless 0
Core_0_L1I_prefetch_late 0
Core_0_L1I_average_miss_latency 185.23684

Core_0_L1I_rq_access 50000017
Core_0_L1I_rq_forward 0
Core_0_L1I_rq_merged 40264021
Core_0_L1I_rq_to_cache 9735996
Core_0_L1I_rq_full 0

Core_0_L1I_wq_access 0
Core_0_L1I_wq_forward 0
Core_0_L1I_wq_merged 0
Core_0_L1I_wq_to_cache 0
Core_0_L1I_wq_full 0

Core_0_L1I_pq_access 0
Core_0_L1I_pq_forward 0
Core_0_L1I_pq_merged 0
Core_0_L1I_pq_to_cache 0
Core_0_L1I_pq_full 0

Core_0_L1I_acc_epochs 156950
Core_0_L1I_acc_level_0 156950
Core_0_L1I_acc_level_1 0
Core_0_L1I_acc_level_2 0
Core_0_L1I_acc_level_3 0
Core_0_L1I_acc_level_4 0
Core_0_L1I_acc_level_5 0
Core_0_L1I_acc_level_6 0
Core_0_L1I_acc_level_7 0
Core_0_L1I_acc_level_8 0
Core_0_L1I_acc_level_9 0

Core_0_L2C_total_access 8080916
Core_0_L2C_total_hit 6863069
Core_0_L2C_total_miss 1217847
Core_0_L2C_loads 2792441
Core_0_L2C_load_hit 2593152
Core_0_L2C_load_miss 199289
Core_0_L2C_RFOs 10352
Core_0_L2C_RFO_hit 1908
Core_0_L2C_RFO_miss 8444
Core_0_L2C_prefetches 5176446
Core_0_L2C_prefetch_hit 4166340
Core_0_L2C_prefetch_miss 1010106
Core_0_L2C_writebacks 101677
Core_0_L2C_writeback_hit 101669
Core_0_L2C_writeback_miss 8
Core_0_L2C_prefetch_requested 5997297
Core_0_L2C_prefetch_dropped 66
Core_0_L2C_prefetch_issued 5997231
Core_0_L2C_prefetch_filled 1135315
Core_0_L2C_prefetch_useful 727166
Core_0_L2C_prefetch_useless 406805
Core_0_L2C_prefetch_late 19584
Core_0_L2C_average_miss_latency 156.77712

Core_0_L2C_rq_access 2802793
Core_0_L2C_rq_forward 0
Core_0_L2C_rq_merged 0
Core_0_L2C_rq_to_cache 2802793
Core_0_L2C_rq_full 0

Core_0_L2C_wq_access 101677
Core_0_L2C_wq_forward 0
Core_0_L2C_wq_merged 0
Core_0_L2C_wq_to_cache 101677
Core_0_L2C_wq_full 0

Core_0_L2C_pq_access 5997231
Core_0_L2C_pq_forward 0
Core_0_L2C_pq_merged 55333
Core_0_L2C_pq_to_cache 5941898
Core_0_L2C_pq_full 0

Core_0_L2C_acc_epochs 156950
Core_0_L2C_acc_level_0 305
Core_0_L2C_acc_level_1 74
Core_0_L2C_acc_level_2 812
Core_0_L2C_acc_level_3 5972
Core_0_L2C_acc_level_4 17473
Core_0_L2C_acc_level_5 26814
Core_0_L2C_acc_level_6 26801
Core_0_L2C_acc_level_7 21534
Core_0_L2C_acc_level_8 14882
Core_0_L2C_acc_level_9 42283

Core_0_LLC_total_access 1319933
Core_0_LLC_total_hit 157012
Core_0_LLC_total_miss 1162921
Core_0_LLC_loads 179707
Core_0_LLC_load_hit 46760
Core_0_LLC_load_miss 132947
Core_0_LLC_RFOs 8444
Core_0_LLC_RFO_hit 2095
Core_0_LLC_RFO_miss 6349
Core_0_LLC_prefetches 1029687
Core_0_LLC_prefetch_hit 68886
Core_0_LLC_prefetch_miss 960801
Core_0_LLC_writebacks 102095
Core_0_LLC_writeback_hit 39271
Core_0_LLC_writeback_miss 62824
Core_0_LLC_prefetch_requested 0
Core_0_LLC_prefetch_dropped 0
Core_0_LLC_prefetch_issued 0
Core_0_LLC_prefetch_filled 1086012
Core_0_LLC_prefetch_useful 16
Core_0_LLC_prefetch_useless 1081833
Core_0_LLC_prefetch_late 0
Core_0_LLC_average_miss_latency 133.93204

Core_0_LLC_rq_access 188151
Core_0_LLC_rq_forward 0
Core_0_LLC_rq_merged 0
Core_0_LLC_rq_to_cache 188151
Core_0_LLC_rq_full 0

Core_0_LLC_wq_access 102094
Core_0_LLC_wq_forward 1
Core_0_LLC_wq_merged 0
Core_0_LLC_wq_to_cache 102094
Core_0_LLC_wq_full 0

Core_0_LLC_pq_access 1154899
Core_0_LLC_pq_forward 0
Core_0_LLC_pq_merged 0
Core_0_LLC_pq_to_cache 1154898
Core_0_LLC_pq_full 0

Core_0_LLC_acc_epochs 160445
Core_0_LLC_acc_level_0 160436
Core_0_LLC_acc_level_1 9
Core_0_LLC_acc_level_2 0
Core_0_LLC_acc_level_3 0
Core_0_LLC_acc_level_4 0
Core_0_LLC_acc_level_5 0
Core_0_LLC_acc_level_6 0
Core_0_LLC_acc_level_7 0
Core_0_LLC_acc_level_8 0
Core_0_LLC_acc_level_9 0

Core_0_major_page_fault 0
Core_0_minor_page_fault 27074

scooby_st_lookup 2919566
scooby_st_hit 2881008
scooby_st_evict 38494
scooby_st_insert 38558
scooby_st_streaming 0

scooby_predict_called 2919566
scooby_predict_out_of_bounds 67665
scooby_predict_action_1 2664050
scooby_predict_issue_action_1 2644284
scooby_predict_hit_action_1 19766
scooby_predict_out_of_bounds_action_1 46686
scooby_predict_action_3 8930
scooby_predict_issue_action_3 8213
scooby_predict_hit_action_3 717
scooby_predict_out_of_bounds_action_3 487
scooby_predict_action_4 107725
scooby_predict_issue_action_4 105255
scooby_predict_hit_action_4 2470
scooby_predict_out_of_bounds_action_4 7140
scooby_predict_action_5 6867
scooby_predict_issue_action_5 6245
scooby_predict_hit_action_5 622
scooby_predict_out_of_bounds_action_5 636
scooby_predict_action_10 6028
scooby_predict_issue_action_10 5522
scooby_predict_hit_action_10 506
scooby_predict_out_of_bounds_action_10 1091
scooby_predict_action_11 5847
scooby_predict_issue_action_11 5313
scooby_predict_hit_action_11 534
scooby_predict_out_of_bounds_action_11 1157
scooby_predict_action_12 5727
scooby_predict_issue_action_12 5246
scooby_predict_hit_action_12 481
scooby_predict_out_of_bounds_action_12 1179
scooby_predict_action_22 4351
scooby_predict_issue_action_22 3938
scooby_predict_hit_action_22 413
scooby_predict_out_of_bounds_action_22 1845
scooby_predict_action_23 4110
scooby_predict_issue_action_23 3622
scooby_predict_hit_action_23 488
scooby_predict_out_of_bounds_action_23 1830
scooby_predict_action_30 3434
scooby_predict_issue_action_30 3030
scooby_predict_hit_action_30 404
scooby_predict_out_of_bounds_action_30 2139
scooby_predict_action_32 3267
scooby_predict_issue_action_32 2732
scooby_predict_hit_action_32 535
scooby_predict_out_of_bounds_action_32 2265
scooby_predict_action_-1 7662
scooby_predict_issue_action_-1 6860
scooby_predict_hit_action_-1 802
scooby_predict_out_of_bounds_action_-1 161
scooby_predict_action_-3 7107
scooby_predict_issue_action_-3 6266
scooby_predict_hit_action_-3 841
scooby_predict_out_of_bounds_action_-3 408
scooby_predict_action_-6 6699
scooby_predict_issue_action_-6 5636
scooby_predict_hit_action_-6 1063
scooby_predict_out_of_bounds_action_-6 641
scooby_predict_action_0 10097
scooby_predict_issue_action_0 0
scooby_predict_hit_action_0 0
scooby_predict_out_of_bounds_action_0 0
scooby_predict_multi_deg_called 934291
scooby_predict_predicted 5997297
scooby_predict_multi_deg 3185135
scooby_predict_multi_deg_2 913339
scooby_predict_multi_deg_3 666345
scooby_predict_multi_deg_4 648490
scooby_predict_multi_deg_5 486854
scooby_predict_multi_deg_6 470107
scooby_predict_multi_deg_7 0
scooby_predict_multi_deg_8 0
scooby_predict_multi_deg_9 0
scooby_predict_multi_deg_10 0
scooby_predict_multi_deg_11 0
scooby_predict_multi_deg_12 0
scooby_predict_multi_deg_13 0
scooby_predict_multi_deg_14 0
scooby_predict_multi_deg_15 0
scooby_predict_multi_deg_16 0

scooby_selected_deg_1 1877871
scooby_selected_deg_2 231882
scooby_selected_deg_3 0
scooby_selected_deg_4 148055
scooby_selected_deg_5 0
scooby_selected_deg_6 554354
scooby_selected_deg_7 0
scooby_selected_deg_8 0
scooby_selected_deg_9 0
scooby_selected_deg_10 0
scooby_selected_deg_11 0
scooby_selected_deg_12 0
scooby_selected_deg_13 0
scooby_selected_deg_14 0
scooby_selected_deg_15 0
scooby_selected_deg_16 0

scooby_state_55b5b85b47d9|0|0 4368,4,1,0,0,0,3,0,2,0,0,2,0,1,0,4381,
scooby_state_55b5b85b47fd|22|1 2579,12,1,2,0,2,0,0,0,2,0,2,0,4,1,2605,
scooby_state_55b5b85b47fd|25|1 2526,12,3,2,1,1,1,2,1,0,2,1,1,1,0,2554,
scooby_state_55b5b85b47fd|60|1 2520,17,2,1,0,1,3,2,0,1,0,0,1,1,2,2551,
scooby_state_55b5b85b47fd|14|1 2532,12,0,1,0,0,2,0,0,1,0,1,0,1,0,2550,
scooby_state_55b5b85b47fd|26|1 2506,20,2,3,0,4,0,1,1,0,0,1,0,2,2,2542,
scooby_state_55b5b85b47d9|1|0 2532,2,0,0,0,0,2,1,0,0,1,1,0,0,0,2539,
scooby_state_55b5b85b47fd|59|1 2510,16,1,0,2,1,1,0,0,1,1,3,1,0,1,2538,
scooby_state_55b5b85b47fd|13|1 2505,18,0,0,0,1,3,0,0,0,0,3,0,0,1,2531,
scooby_state_55b5b85b47fd|8|1 2507,12,1,1,0,3,1,3,0,0,2,0,0,1,0,2531,
scooby_state_55b5b85b47fd|10|1 2504,11,0,1,3,1,3,0,0,0,3,1,1,2,0,2530,
scooby_state_55b5b85b47fd|4|1 2497,16,1,2,1,4,0,0,0,1,3,0,0,0,1,2526,
scooby_state_55b5b85b47cf|37|1 2519,1,0,0,0,0,1,0,1,1,0,0,0,0,0,2523,
scooby_state_55b5b85b47fd|41|1 2495,16,1,3,1,1,1,0,1,1,0,0,1,0,1,2522,
scooby_state_55b5b85b47fd|11|1 2491,13,2,0,1,3,0,0,1,2,1,1,1,1,2,2519,
scooby_state_55b5b85b47cf|14|1 2508,0,0,0,0,2,0,0,0,1,1,0,1,0,1,2514,
scooby_state_55b5b85b47cf|11|1 2507,1,0,0,2,0,0,0,1,0,0,0,1,0,1,2513,
scooby_state_55b5b85b47fd|42|1 2486,15,3,3,0,1,0,0,0,1,0,1,3,0,0,2513,
scooby_state_55b5b85b47fd|33|1 2487,13,1,3,0,0,1,0,1,1,0,1,2,1,2,2513,
scooby_state_55b5b85b47fd|3|1 2484,11,1,3,1,1,0,2,1,2,1,2,1,1,0,2511,
scooby_state_55b5b85b47cf|55|1 2506,0,0,0,0,0,0,3,1,0,0,0,0,0,0,2510,
scooby_state_55b5b85b47fd|16|1 2485,16,0,2,0,0,3,1,0,0,2,0,0,0,1,2510,
scooby_state_55b5b85b47cf|22|1 2502,0,2,1,1,0,0,0,1,0,1,0,0,0,0,2508,
scooby_state_55b5b85b47cf|21|1 2502,0,1,0,0,1,0,0,1,0,0,0,1,1,0,2507,
scooby_state_55b5b85b47cf|39|1 2500,0,1,1,0,0,0,0,0,0,0,2,0,0,3,2507,
scooby_state_55b5b85b47cf|48|1 2499,1,1,1,0,0,1,1,0,0,0,0,0,1,0,2505,
scooby_state_55b5b85b47fd|39|1 2480,14,1,1,0,1,1,0,0,1,0,1,1,0,2,2503,
scooby_state_55b5b85b47cf|59|1 2498,1,0,0,0,0,0,1,0,0,0,1,0,2,0,2503,
scooby_state_55b5b85b47cf|50|1 2498,0,0,2,0,0,0,0,0,0,0,1,0,1,0,2502,
scooby_state_55b5b85b47fd|2|1 2473,17,2,1,0,1,1,2,0,0,1,1,2,0,1,2502,
scooby_state_55b5b85b47fd|58|1 2473,13,1,0,3,1,2,1,0,3,0,2,1,0,1,2501,
scooby_state_55b5b85b47cf|8|1 2496,0,0,0,0,0,0,0,0,1,0,2,0,1,0,2500,
scooby_state_55b5b85b47fd|30|1 2487,7,1,2,1,0,1,1,0,0,0,0,0,0,0,2500,
scooby_state_55b5b85b47cf|24|1 2498,0,0,1,0,0,0,0,0,0,0,1,0,0,0,2500,
scooby_state_55b5b85b47cf|53|1 2499,0,0,0,0,0,0,0,0,0,1,0,0,0,0,2500,
scooby_state_55b5b85b47cf|17|1 2498,0,0,0,0,0,0,0,0,0,0,0,1,0,0,2499,
scooby_state_55b5b85b47cf|10|1 2496,0,0,0,0,1,0,0,0,0,1,0,0,1,0,2499,
scooby_state_55b5b85b47cf|3|1 2495,0,1,1,0,0,0,0,0,0,0,0,1,1,0,2499,
scooby_state_55b5b85b47cf|13|1 2498,0,0,0,0,0,0,0,0,1,0,0,0,0,0,2499,
scooby_state_55b5b85b47cf|61|1 2491,0,0,0,1,1,1,1,1,0,1,0,0,0,1,2498,
scooby_state_55b5b85b47cf|25|1 2496,0,0,0,0,0,0,0,1,0,0,0,0,0,0,2497,
scooby_state_55b5b85b47cf|44|1 2497,0,0,0,0,0,0,0,0,0,0,0,0,0,0,2497,
scooby_state_55b5b85b47cf|7|1 2492,0,0,0,1,0,0,0,1,0,2,0,1,0,0,2497,
scooby_state_55b5b85b47cf|46|1 2495,0,0,0,0,0,0,0,0,0,0,0,0,0,1,2496,
scooby_state_55b5b85b47cf|56|1 2490,0,1,1,0,0,0,0,0,2,0,0,0,0,1,2495,
scooby_state_55b5b85b47cf|12|1 2488,0,2,0,1,1,0,0,0,0,0,0,1,0,1,2494,
scooby_state_55b5b85b47cf|63|1 2492,0,1,0,0,1,0,0,0,0,0,0,0,0,0,2494,
scooby_state_55b5b85b47cf|26|1 2492,0,0,1,0,0,0,0,0,0,0,0,0,1,0,2494,
scooby_state_55b5b85b47cf|41|1 2490,0,1,0,0,1,0,0,1,0,0,0,0,0,0,2493,
scooby_state_55b5b85b47cf|43|1 2488,0,0,0,0,1,0,0,0,0,2,1,1,0,0,2493,
scooby_state_55b5b85b47cf|31|1 2488,0,0,1,0,0,0,0,0,0,0,1,1,0,1,2492,
scooby_state_55b5b85b47cf|19|1 2485,0,0,0,2,1,0,2,0,0,0,1,0,0,0,2491,
scooby_state_55b5b85b47cf|60|1 2488,1,0,0,0,1,0,0,0,0,0,1,0,0,0,2491,
scooby_state_55b5b85b47cf|27|1 2487,1,0,0,1,0,1,0,1,0,0,0,0,0,0,2491,
scooby_state_55b5b85b47cf|36|1 2489,0,1,1,0,0,0,0,0,0,0,0,0,0,0,2491,
scooby_state_55b5b85b47fd|44|1 2470,10,0,1,1,1,1,0,1,2,2,0,1,0,1,2491,
scooby_state_55b5b85b47cf|51|1 2486,1,0,0,0,0,1,0,0,1,1,0,0,1,0,2491,
scooby_state_55b5b85b47cf|33|1 2487,0,0,0,0,0,0,0,0,0,0,2,0,0,1,2490,
scooby_state_55b5b85b47cf|4|1 2486,1,0,1,1,0,0,0,1,0,0,0,0,0,0,2490,
scooby_state_55b5b85b47cf|9|1 2484,1,1,1,1,1,0,0,0,0,0,0,1,0,0,2490,
scooby_state_55b5b85b47cf|45|1 2487,0,0,0,0,1,0,1,0,0,0,0,0,0,0,2489,
scooby_state_55b5b85b47cf|32|1 2486,0,0,0,0,0,1,0,0,0,1,0,0,0,0,2488,
scooby_state_55b5b85b47cf|38|1 2484,2,0,0,1,0,0,0,0,1,0,0,0,0,0,2488,
scooby_state_55b5b85b47cf|23|1 2483,0,0,0,0,1,1,1,0,2,0,0,0,0,0,2488,
scooby_state_55b5b85b47cf|28|1 2485,0,0,0,0,0,0,0,0,0,2,0,0,1,0,2488,
scooby_state_55b5b85b47cf|1|1 2480,0,0,0,0,0,1,0,2,1,1,1,0,1,0,2487,
scooby_state_55b5b85b47cf|40|1 2481,1,0,0,0,0,0,0,1,0,1,0,1,0,1,2486,
scooby_state_55b5b85b47cf|2|1 2480,0,0,1,1,0,0,0,2,0,0,1,0,1,0,2486,
scooby_state_55b5b85b47cf|5|1 2479,1,0,1,1,0,0,0,0,1,0,1,0,1,0,2485,
scooby_state_55b5b85b47cf|52|1 2481,0,1,1,1,0,0,0,0,0,1,0,0,0,0,2485,
scooby_state_55b5b85b47cf|35|1 2479,1,0,0,0,0,1,0,0,0,0,1,0,1,0,2483,
scooby_state_55b5b85b47cf|34|1 2478,1,0,0,0,0,1,1,0,1,0,0,0,0,1,2483,
scooby_state_55b5b85b47fd|29|1 2455,8,3,2,1,2,1,0,1,2,2,0,2,3,1,2483,
scooby_state_55b5b85b47fd|53|1 2442,19,2,3,2,1,1,2,1,2,3,1,3,0,1,2483,
scooby_state_55b5b85b47fd|28|1 2453,13,1,2,0,2,1,2,0,0,1,1,2,0,3,2481,
scooby_state_55b5b85b47fd|0|0 1701,533,2,12,50,27,15,21,17,26,42,8,7,8,12,2481,
scooby_state_55b5b85b47cf|49|1 2479,0,0,0,0,0,1,0,0,0,0,0,0,0,0,2480,
scooby_state_55b5b85b47fd|47|1 2458,11,2,2,1,3,0,1,1,0,1,0,0,0,0,2480,
scooby_state_55b5b85b47fd|36|1 2454,10,3,3,3,1,1,1,1,1,1,0,0,0,0,2479,
scooby_state_55b5b85b47fd|12|1 2461,11,0,0,0,1,0,1,0,1,0,0,1,0,2,2478,
scooby_state_55b5b85b47cf|6|1 2477,0,0,0,0,0,0,0,0,0,0,0,0,1,0,2478,
scooby_state_55b5b85b47cf|20|1 2476,0,0,1,0,0,0,0,0,1,0,0,0,0,0,2478,
scooby_state_55b5b85b47cf|16|1 2473,0,1,0,0,1,1,0,0,1,0,1,0,0,0,2478,
scooby_state_55b5b85b47cf|62|1 2474,0,1,0,0,0,0,0,0,1,0,0,0,0,1,2477,
scooby_state_55b5b85b47cf|47|1 2474,0,0,0,0,1,0,1,0,0,0,0,0,0,1,2477,
scooby_state_55b5b85b47cf|54|1 2472,0,1,0,1,0,0,0,2,0,0,0,0,0,0,2476,
scooby_state_55b5b85b47fd|63|1 2455,11,1,0,2,0,0,1,1,0,2,1,2,0,0,2476,
scooby_state_55b5b85b47cf|57|1 2470,1,0,2,0,0,0,0,0,0,0,1,0,1,0,2475,
scooby_state_55b5b85b47fd|17|1 2449,12,1,1,0,2,1,1,0,3,1,0,1,1,1,2474,
scooby_state_55b5b85b47cf|0|0 2470,0,0,0,0,1,0,0,0,0,0,1,0,1,1,2474,
scooby_state_55b5b85b47cf|18|1 2472,0,1,0,0,0,0,0,1,0,0,0,0,0,0,2474,
scooby_state_55b5b85b47fd|40|1 2456,11,0,0,1,1,2,1,0,1,0,0,0,0,0,2473,
scooby_state_55b5b85b47cf|29|1 2467,1,0,2,0,1,0,0,1,0,0,1,0,0,0,2473,
scooby_state_55b5b85b47fd|45|1 2447,8,1,3,2,1,0,1,2,0,1,1,0,1,3,2471,
scooby_state_55b5b85b47fd|55|1 2444,9,3,3,2,0,0,1,3,1,0,2,1,1,0,2470,
scooby_state_55b5b85b47cf|15|1 2467,0,0,0,0,0,0,0,1,0,0,0,1,0,0,2469,
scooby_state_55b5b85b47fd|50|1 2435,16,2,2,1,3,1,1,1,1,1,2,1,1,1,2469,
scooby_state_55b5b85b47fd|35|1 2439,8,3,3,2,1,1,0,0,2,3,2,3,0,1,2468,
scooby_state_55b5b85b47cf|30|1 2466,0,0,0,0,1,0,0,0,0,0,0,0,0,1,2468,
scooby_state_55b5b85b47cf|42|1 2465,0,0,0,0,0,0,0,0,1,0,0,0,0,0,2466,
scooby_state_55b5b85b47fd|15|1 2446,14,2,1,0,0,2,0,1,0,0,0,0,0,0,2466,
scooby_state_55b5b85b47fd|18|1 2442,10,3,2,0,0,3,0,0,0,0,0,2,1,1,2464,
scooby_state_55b5b85b47fd|32|1 2445,11,1,1,0,0,0,1,0,0,1,2,0,0,1,2463,
scooby_state_55b5b85b47fd|21|1 2434,11,3,3,1,1,0,2,1,3,1,2,0,1,0,2463,
scooby_state_55b5b85b47fd|20|1 2444,4,1,2,0,2,1,1,1,1,1,1,1,1,2,2463,
scooby_state_55b5b85b47fd|48|1 2432,20,1,2,1,1,2,0,0,0,0,1,0,1,2,2463,
scooby_state_55b5b85b47fd|52|1 2431,16,3,4,1,1,0,1,2,1,1,0,0,0,0,2461,
scooby_state_55b5b85b47fd|31|1 2439,13,0,3,0,2,1,1,0,0,0,1,0,0,0,2460,
scooby_state_55b5b85b47fd|1|1 2434,13,1,2,0,1,1,1,0,1,1,1,2,1,1,2460,
scooby_state_55b5b85b47fd|43|1 2435,13,2,1,0,0,0,1,1,0,2,2,2,0,1,2460,
scooby_state_55b5b85b47cf|58|1 2450,0,1,1,0,1,0,0,1,0,0,0,1,0,3,2458,
scooby_state_55b5b85b47fd|9|1 2424,13,3,1,1,1,2,3,0,0,3,2,1,3,0,2457,
scooby_state_55b5b85b47fd|49|1 2422,13,1,5,1,0,4,0,1,0,0,1,0,0,1,2449,
scooby_state_55b5b85b47fd|46|1 2422,10,1,4,0,2,0,1,2,0,3,0,0,0,1,2446,
scooby_state_55b5b85b47fd|19|1 2427,9,3,2,1,1,0,0,0,1,0,1,0,1,0,2446,
scooby_state_55b5b85b47fd|57|1 2409,14,3,2,2,2,3,1,0,1,0,1,0,2,1,2441,
scooby_state_55b5b85b47fd|38|1 2412,8,1,3,2,3,1,2,0,0,2,1,1,0,0,2436,
scooby_state_55b5b85b47fd|23|1 2408,14,3,3,0,0,1,0,0,0,1,2,2,0,1,2435,
scooby_state_55b5b85b47fd|27|1 2400,12,2,4,0,4,3,1,1,1,1,1,1,0,2,2433,
scooby_state_55b5b85b47fd|62|1 2396,12,1,1,2,3,1,0,3,1,3,3,1,1,0,2428,
scooby_state_55b5b85b47fd|7|1 2396,15,1,4,2,1,2,2,0,0,1,1,1,0,1,2427,
scooby_state_55b5b85b47fd|51|1 2392,13,3,3,0,2,0,2,0,1,0,1,1,1,2,2421,
scooby_state_55b5b85b47fd|5|1 2397,10,1,5,1,2,1,0,0,0,0,1,0,1,0,2419,
scooby_state_55b5b85b47fd|34|1 2387,17,0,2,0,1,1,0,2,1,0,0,0,0,2,2413,
scooby_state_55b5b85b47fd|56|1 2376,13,4,4,3,0,1,0,0,0,1,2,0,0,1,2405,
scooby_state_55b5b85b47fd|61|1 2366,15,3,0,2,0,0,1,1,1,1,3,2,1,1,2397,
scooby_state_55b5b85b47fd|37|1 2369,13,2,4,0,1,1,2,0,2,0,1,0,0,0,2395,
scooby_state_55b5b85b47fd|54|1 2351,13,3,3,3,2,0,1,2,1,0,0,0,2,1,2382,
scooby_state_55b5b85b47fd|6|1 2353,14,1,2,1,0,2,0,1,1,0,2,2,0,1,2380,
scooby_state_55b5b85b47fd|24|1 2348,11,0,1,2,1,0,0,0,0,0,0,1,2,0,2366,
scooby_state_55b5b85b44a0|61|1 2044,0,0,0,0,2,0,0,0,0,0,1,1,0,0,2048,
scooby_state_55b5b85b44a0|14|1 2044,1,0,0,1,0,1,0,0,0,0,1,0,0,0,2048,
scooby_state_55b5b85b44a0|4|1 2042,1,0,1,1,1,1,1,0,0,0,0,0,0,0,2048,
scooby_state_55b5b85b44a0|3|1 2046,0,1,1,0,0,0,0,0,0,0,0,0,0,0,2048,
scooby_state_55b5b85b44a0|5|1 2043,0,0,1,2,0,0,0,0,1,0,0,0,1,0,2048,
scooby_state_55b5b85b44a0|9|1 2042,1,1,0,0,2,0,2,0,0,0,0,0,0,0,2048,
scooby_state_55b5b85b44a0|31|1 2046,0,0,0,0,0,1,0,0,1,0,0,0,0,0,2048,
scooby_state_55b5b85b44a0|42|1 2043,1,0,0,1,0,1,1,1,0,0,0,0,0,0,2048,
scooby_state_55b5b85b44a0|44|1 2045,0,0,1,0,1,0,0,0,0,0,1,0,0,0,2048,
scooby_state_55b5b85b44a0|46|1 2046,0,0,0,0,0,0,0,0,0,0,0,0,0,2,2048,
scooby_state_55b5b85b44a0|10|1 2043,1,1,0,0,1,1,0,0,0,0,1,0,0,0,2048,
scooby_state_55b5b85b44a0|58|1 2046,0,0,1,0,0,0,0,1,0,0,0,0,0,0,2048,
scooby_state_55b5b85b44a0|45|1 2045,0,0,0,1,0,1,0,0,0,1,0,0,0,0,2048,
scooby_state_55b5b85b44a0|12|1 2044,0,0,0,0,1,0,1,0,0,0,1,0,1,0,2048,
scooby_state_55b5b85b44a0|26|1 2043,1,0,0,1,0,0,1,0,0,0,1,0,0,1,2048,
scooby_state_55b5b85b44a0|20|1 2044,1,1,0,0,0,0,0,0,0,0,1,0,0,1,2048,
scooby_state_55b5b85b44a0|19|1 2042,0,0,1,1,1,1,0,1,0,0,1,0,0,0,2048,
scooby_state_55b5b85b44a0|48|1 2044,0,1,0,1,0,1,0,0,0,0,0,0,0,1,2048,
scooby_state_55b5b85b44a0|1|1 2046,0,1,0,0,0,0,0,0,0,0,0,0,1,0,2048,
scooby_state_55b5b85b44a0|29|1 2045,1,0,0,0,0,0,0,0,1,0,1,0,0,0,2048,
scooby_state_55b5b85b44a0|52|1 2044,0,1,0,0,1,0,0,0,0,0,1,0,0,1,2048,
scooby_state_55b5b85b44a0|27|1 2043,0,0,0,1,2,0,0,0,0,0,1,1,0,0,2048,
scooby_state_55b5b85b44a0|39|1 2046,0,0,0,1,0,0,0,0,0,0,0,1,0,0,2048,
scooby_state_55b5b85b44a0|11|1 2041,0,1,1,0,0,0,0,0,1,3,0,0,0,1,2048,
scooby_state_55b5b85b44a0|38|1 2044,0,0,0,1,0,0,0,1,0,0,1,1,0,0,2048,
scooby_state_55b5b85b44a0|63|1 2043,1,2,0,0,0,0,0,1,0,0,0,0,0,1,2048,
scooby_state_55b5b85b44a0|30|1 2045,0,0,0,1,0,0,0,0,2,0,0,0,0,0,2048,
scooby_state_55b5b85b44a0|41|1 2045,0,0,1,0,0,0,2,0,0,0,0,0,0,0,2048,
scooby_state_55b5b85b44a0|36|1 2045,1,0,0,0,1,0,0,0,0,0,0,1,0,0,2048,
scooby_state_55b5b85b44a0|24|1 2044,1,0,0,0,0,0,1,1,0,1,0,0,0,0,2048,
scooby_state_55b5b85b44a0|28|1 2042,2,0,0,0,1,0,0,1,2,0,0,0,0,0,2048,
scooby_state_55b5b85b44a0|53|1 2047,0,0,0,0,0,0,0,0,1,0,0,0,0,0,2048,
scooby_state_55b5b85b44a0|6|1 2043,0,0,2,1,0,0,0,0,0,1,0,0,0,1,2048,
scooby_state_55b5b85b44a0|17|1 2045,0,0,0,0,0,0,0,1,1,0,0,0,1,0,2048,
scooby_state_55b5b85b44a0|56|1 2046,0,1,0,0,0,0,0,1,0,0,0,0,0,0,2048,
scooby_state_55b5b85b44a0|62|1 2046,0,0,0,0,0,0,0,0,0,0,0,1,1,0,2048,
scooby_state_55b5b85b44a0|32|1 2046,0,0,0,0,0,1,1,0,0,0,0,0,0,0,2048,
scooby_state_55b5b85b44a0|43|1 2044,0,0,1,0,0,0,0,0,1,1,0,0,1,0,2048,
scooby_state_55b5b85b44a0|60|1 2044,1,0,0,0,0,1,0,0,0,1,0,0,1,0,2048,
scooby_state_55b5b85b44a0|22|1 2041,0,0,1,1,0,1,1,0,0,0,0,2,0,1,2048,
scooby_state_55b5b85b44a0|54|1 2046,0,0,0,0,1,1,0,0,0,0,0,0,0,0,2048,
scooby_state_55b5b85b44a0|7|1 2042,1,0,0,1,0,2,0,0,0,0,1,0,0,1,2048,
scooby_state_55b5b85b44a0|37|1 2044,1,0,0,0,0,1,1,0,0,0,1,0,0,0,2048,
scooby_state_55b5b85b44a0|13|1 2045,0,0,0,2,0,0,1,0,0,0,0,0,0,0,2048,
scooby_state_55b5b85b44a0|18|1 2046,0,0,0,1,0,0,1,0,0,0,0,0,0,0,2048,
scooby_state_55b5b85b44a0|55|1 2046,0,0,0,0,0,0,0,1,1,0,0,0,0,0,2048,
scooby_state_55b5b85b44a0|47|1 2045,0,0,1,0,0,0,1,0,0,0,0,0,1,0,2048,
scooby_state_55b5b85b44a0|51|1 2042,0,0,1,0,0,1,0,0,0,1,1,1,1,0,2048,
scooby_state_55b5b85b44a0|8|1 2046,0,0,0,0,0,0,0,2,0,0,0,0,0,0,2048,
scooby_state_55b5b85b44a0|40|1 2043,0,0,0,1,1,1,1,0,1,0,0,0,0,0,2048,
scooby_state_55b5b85b44a0|23|1 2041,1,1,0,0,0,0,1,0,1,1,0,1,1,0,2048,
scooby_state_55b5b85b44a0|35|1 2046,0,0,0,1,0,0,0,0,0,0,0,1,0,0,2048,
scooby_state_55b5b85b44a0|50|1 2043,1,1,0,0,0,1,0,0,0,1,1,0,0,0,2048,
scooby_state_55b5b85b44a0|59|1 2044,0,0,0,0,0,0,0,2,0,1,1,0,0,0,2048,
scooby_state_55b5b85b44a0|49|1 2045,0,0,0,0,0,0,0,0,2,0,0,0,1,0,2048,
scooby_state_55b5b85b44a0|16|1 2040,1,0,0,1,2,1,1,0,1,1,0,0,0,0,2048,
scooby_state_55b5b85b44a0|57|1 2044,1,1,1,0,0,0,0,0,0,0,0,0,0,1,2048,
scooby_state_55b5b85b44a0|21|1 2045,1,0,0,0,0,0,1,0,0,1,0,0,0,0,2048,
scooby_state_55b5b85b44a0|25|1 2044,0,0,0,1,1,0,0,0,0,0,0,0,1,1,2048,
scooby_state_55b5b85b44a0|33|1 2046,0,0,0,0,0,0,1,0,0,1,0,0,0,0,2048,
scooby_state_55b5b85b44a0|34|1 2048,0,0,0,0,0,0,0,0,0,0,0,0,0,0,2048,
scooby_state_55b5b85b44a0|0|0 2043,0,0,0,1,0,0,0,1,0,0,1,1,0,1,2048,
scooby_state_55b5b85b44a0|15|1 2043,1,1,1,1,0,0,0,0,1,0,0,0,0,0,2048,
scooby_state_55b5b85b44a0|2|1 2046,0,0,0,0,0,0,0,0,0,0,0,0,0,2,2048,
scooby_state_55b5b85b47d9|6|1 2006,0,0,0,0,0,1,0,0,0,1,0,1,0,1,2010,
scooby_state_55b5b85b47d9|37|1 1988,0,1,0,0,3,0,0,0,1,1,0,1,0,1,1996,
scooby_state_55b5b85b47d9|50|1 1987,1,0,1,0,0,1,0,0,0,0,1,2,1,1,1995,
scooby_state_55b5b85b47d9|9|1 1984,1,2,0,0,0,1,0,0,0,0,0,0,1,1,1990,
scooby_state_55b5b85b47d9|58|1 1969,1,3,0,1,0,0,3,0,0,0,0,1,0,2,1980,
scooby_state_55b5b85b47d9|24|1 1969,0,0,4,0,2,0,3,0,0,0,0,0,1,0,1979,
scooby_state_55b5b85b47d9|45|1 1969,1,0,0,0,1,2,2,1,0,0,1,1,0,1,1979,
scooby_state_55b5b85b47d9|13|1 1966,1,2,0,1,0,0,3,0,0,0,4,1,1,0,1979,
scooby_state_55b5b85b47d9|29|1 1968,0,1,0,0,0,0,0,2,0,2,2,0,0,1,1976,
scooby_state_55b5b85b47d9|49|1 1957,2,1,0,2,1,0,0,1,0,0,0,3,0,0,1967,
scooby_state_55b5b85b47d9|28|1 1951,1,2,1,0,1,0,1,0,0,3,1,0,0,1,1962,
scooby_state_55b5b85b47d9|7|1 1953,1,0,0,1,1,1,0,1,1,0,1,0,0,1,1961,
scooby_state_55b5b85b47d9|23|1 1952,0,1,1,0,1,1,1,0,0,0,2,1,1,0,1961,
scooby_state_55b5b85b47d9|15|1 1953,1,1,1,0,0,0,1,0,0,0,2,0,0,0,1959,
scooby_state_55b5b85b47d9|12|1 1947,0,0,1,0,0,1,3,0,1,0,1,1,0,0,1955,
scooby_state_55b5b85b47d9|27|1 1951,0,0,0,1,0,1,1,0,0,0,0,0,0,1,1955,
scooby_state_55b5b85b47d9|16|1 1943,1,1,1,0,0,0,0,2,0,0,1,0,1,1,1951,
scooby_state_55b5b85b47d9|10|1 1943,2,1,0,0,0,0,1,1,0,1,1,0,0,0,1950,
scooby_state_55b5b85b47d9|61|1 1938,3,1,1,1,2,0,0,0,0,0,1,1,0,1,1949,
scooby_state_55b5b85b47d9|19|1 1942,0,0,1,1,0,0,0,0,0,3,0,2,0,0,1949,
scooby_state_55b5b85b47d9|41|1 1942,0,0,1,0,1,0,1,2,0,0,0,1,1,0,1949,
scooby_state_55b5b85b47d9|32|1 1935,0,0,1,0,0,1,0,0,0,1,2,1,0,1,1942,
scooby_state_55b5b85b47d9|1|1 1930,1,0,1,0,0,1,0,1,0,0,0,0,0,1,1935,
scooby_state_55b5b85b47d9|5|1 1929,1,1,0,0,1,0,1,0,0,0,0,1,0,0,1934,
scooby_state_55b5b85b47d9|21|1 1926,0,0,0,0,1,1,0,0,0,1,0,1,1,1,1932,
scooby_state_55b5b85b47d9|42|1 1920,0,3,1,0,2,1,1,0,2,0,0,0,0,0,1930,
scooby_state_55b5b85b47d9|34|1 1920,0,1,1,0,0,1,0,0,0,1,1,0,0,1,1926,
scooby_state_55b5b85b47d9|31|1 1914,2,1,1,3,0,0,0,0,0,1,1,1,1,0,1925,
scooby_state_55b5b85b47d9|62|1 1915,1,0,1,1,1,0,1,0,0,0,2,0,0,2,1924,
scooby_state_55b5b85b47d9|46|1 1914,1,1,1,1,1,0,2,0,0,0,1,1,0,0,1923,
scooby_state_55b5b85b47d9|14|1 1905,3,0,3,1,2,0,1,0,0,1,0,0,1,2,1919,
scooby_state_55b5b85b47d9|63|1 1913,0,0,0,0,1,1,0,0,1,0,2,0,0,1,1919,
scooby_state_55b5b85b47d9|4|1 1906,2,1,1,2,0,2,1,0,0,0,1,1,0,0,1917,
scooby_state_55b5b85b47d9|57|1 1905,0,5,0,1,1,1,1,0,0,1,0,0,0,1,1916,
scooby_state_55b5b85b47d9|3|1 1906,1,1,0,0,0,2,1,0,0,1,0,0,0,3,1915,
scooby_state_55b5b85b47d9|2|1 1900,3,2,0,0,1,2,1,0,0,3,0,0,0,0,1912,
scooby_state_55b5b85b47d9|18|1 1901,0,1,2,0,0,1,0,0,0,1,0,1,0,2,1909,
scooby_state_55b5b85b47d9|35|1 1903,0,1,0,0,0,1,1,2,0,0,0,0,0,1,1909,
scooby_state_55b5b85b47d9|54|1 1896,0,1,1,3,0,2,0,0,0,1,2,0,0,0,1906,
scooby_state_55b5b85b47d9|20|1 1900,0,0,1,0,2,0,0,0,1,1,1,0,0,0,1906,
scooby_state_55b5b85b47d9|59|1 1898,1,2,0,1,0,0,0,0,0,0,0,1,0,2,1905,
scooby_state_55b5b85b47d9|36|1 1894,0,1,2,0,2,1,1,0,0,0,0,1,0,0,1902,
scooby_state_55b5b85b47d9|38|1 1890,2,1,2,1,0,1,1,0,0,0,2,0,0,0,1900,
scooby_state_55b5b85b47d9|11|1 1892,1,0,1,0,1,0,2,1,0,0,1,0,0,0,1899,
scooby_state_55b5b85b47d9|48|1 1887,2,2,1,0,1,1,0,0,0,0,1,0,0,2,1897,
scooby_state_55b5b85b47d9|26|1 1888,1,1,0,0,0,1,1,0,0,1,1,2,0,0,1896,
scooby_state_55b5b85b47d9|44|1 1886,1,0,0,0,0,0,1,1,0,1,2,2,0,0,1894,
scooby_state_55b5b85b47d9|30|1 1885,0,0,2,0,2,0,0,0,1,0,0,1,1,0,1892,
scooby_state_55b5b85b47d9|43|1 1882,0,1,0,1,0,2,2,0,0,0,0,1,0,1,1890,
scooby_state_55b5b85b47d9|56|1 1878,1,1,0,0,4,2,0,0,1,0,0,1,0,1,1889,
scooby_state_55b5b85b47d9|17|1 1879,1,1,3,1,0,0,0,0,0,1,0,0,0,2,1888,
scooby_state_55b5b85b47d9|55|1 1876,0,1,2,0,2,0,0,0,0,0,1,0,1,1,1884,
scooby_state_55b5b85b47d9|51|1 1874,1,0,0,0,1,0,1,0,1,0,0,1,0,1,1880,
scooby_state_55b5b85b47d9|39|1 1870,2,2,1,0,0,0,1,0,0,0,0,0,0,2,1878,
scooby_state_55b5b85b47d9|52|1 1869,1,0,0,1,1,1,1,0,0,0,0,1,0,1,1876,
scooby_state_55b5b85b47d9|22|1 1870,1,0,0,0,0,2,1,0,0,0,0,1,1,0,1876,
scooby_state_55b5b85b47d9|25|1 1861,0,1,1,0,2,0,0,0,0,0,1,1,0,0,1867,
scooby_state_55b5b85b47d9|60|1 1855,2,1,0,0,1,0,0,1,0,0,1,1,0,3,1865,
scooby_state_55b5b85b47d9|40|1 1854,1,0,2,0,0,0,1,0,0,0,1,0,0,1,1860,
scooby_state_55b5b85b47d9|8|1 1853,1,1,0,0,0,0,0,1,0,0,0,0,1,1,1858,
scooby_state_55b5b85b47d9|33|1 1851,0,0,2,0,0,1,2,0,0,0,0,0,1,0,1857,
scooby_state_55b5b85b47d9|53|1 1819,1,0,0,1,0,1,0,0,0,0,1,1,0,0,1824,
scooby_state_55b5b85b47d9|2|0 1820,0,0,0,0,0,2,1,0,0,0,0,0,0,0,1823,
scooby_state_55b5b85b47d9|47|1 1786,1,1,1,0,0,0,0,0,2,0,0,0,0,0,1791,
scooby_state_55b5b85b47d9|3|0 1396,0,0,0,1,0,0,0,0,0,1,0,1,1,0,1400,
scooby_state_55b5b85b47bd|40|1 0,0,1347,1,0,2,0,0,0,0,0,0,0,0,0,1350,
scooby_state_55b5b85b47bd|46|1 0,0,1347,0,0,0,0,0,1,0,1,0,0,1,0,1350,
scooby_state_55b5b85b47bd|45|1 1,1,1344,0,0,1,2,1,0,0,0,0,0,0,0,1350,
scooby_state_55b5b85b47bd|26|1 0,0,1349,0,0,0,0,0,0,0,0,1,0,0,0,1350,
scooby_state_55b5b85b47bd|52|1 1,0,1349,0,0,0,0,0,0,0,0,0,0,0,0,1350,
scooby_state_55b5b85b47bd|41|1 1,0,1348,0,0,0,0,1,0,0,0,0,0,0,0,1350,
scooby_state_55b5b85b47bd|43|1 1,0,1348,0,0,0,0,0,0,0,0,0,1,0,0,1350,
scooby_state_55b5b85b47bd|50|1 0,1,1346,0,1,0,0,0,0,1,0,1,0,0,0,1350,
scooby_state_55b5b85b47bd|21|1 0,0,1348,1,0,0,0,0,1,0,0,0,0,0,0,1350,
scooby_state_55b5b85b47bd|39|1 0,0,1347,0,1,0,0,0,0,1,1,0,0,0,0,1350,
scooby_state_55b5b85b47bd|9|1 0,0,1350,0,0,0,0,0,0,0,0,0,0,0,0,1350,
scooby_state_55b5b85b47bd|38|1 0,0,1350,0,0,0,0,0,0,0,0,0,0,0,0,1350,
scooby_state_55b5b85b47bd|42|1 0,0,1348,0,2,0,0,0,0,0,0,0,0,0,0,1350,
scooby_state_55b5b85b47bd|11|1 0,0,1348,0,0,0,0,0,0,0,0,1,1,0,0,1350,
scooby_state_55b5b85b47bd|30|1 0,1,1349,0,0,0,0,0,0,0,0,0,0,0,0,1350,
scooby_state_55b5b85b47bd|31|1 0,0,1348,0,0,0,0,2,0,0,0,0,0,0,0,1350,
scooby_state_55b5b85b47bd|20|1 1,0,1346,2,0,0,0,0,0,0,0,0,0,1,0,1350,
scooby_state_55b5b85b47bd|32|1 0,0,1349,0,0,1,0,0,0,0,0,0,0,0,0,1350,
scooby_state_55b5b85b47bd|12|1 0,0,1347,0,0,0,0,1,1,0,0,1,0,0,0,1350,
scooby_state_55b5b85b47bd|54|1 0,0,1349,0,0,0,0,0,0,0,0,1,0,0,0,1350,
scooby_state_55b5b85b47bd|17|1 0,1,1349,0,0,0,0,0,0,0,0,0,0,0,0,1350,
scooby_state_55b5b85b47bd|16|1 0,0,1348,1,0,0,0,0,0,1,0,0,0,0,0,1350,
scooby_state_55b5b85b47bd|47|1 0,0,1349,0,1,0,0,0,0,0,0,0,0,0,0,1350,
scooby_state_55b5b85b47bd|35|1 0,1,1348,0,0,0,0,0,0,0,0,1,0,0,0,1350,
scooby_state_55b5b85b47bd|55|1 0,0,1347,0,0,0,0,1,0,1,1,0,0,0,0,1350,
scooby_state_55b5b85b47bd|51|1 0,0,1350,0,0,0,0,0,0,0,0,0,0,0,0,1350,
scooby_state_55b5b85b47bd|28|1 0,0,1349,0,0,1,0,0,0,0,0,0,0,0,0,1350,
scooby_state_55b5b85b47bd|29|1 0,0,1347,0,1,0,0,0,0,1,0,0,1,0,0,1350,
scooby_state_55b5b85b47bd|34|1 1,1,1348,0,0,0,0,0,0,0,0,0,0,0,0,1350,
scooby_state_55b5b85b47bd|48|1 0,1,1346,0,0,0,0,2,0,0,0,0,0,1,0,1350,
scooby_state_55b5b85b47bd|33|1 1,0,1347,0,0,0,1,0,0,0,0,0,0,0,1,1350,
scooby_state_55b5b85b47bd|25|1 0,0,1349,0,0,0,0,0,0,0,0,0,0,0,1,1350,
scooby_state_55b5b85b47bd|23|1 0,0,1346,1,1,1,0,0,0,0,0,0,1,0,0,1350,
scooby_state_55b5b85b47bd|15|1 0,0,1349,0,0,0,0,0,0,0,0,0,0,1,0,1350,
scooby_state_55b5b85b47bd|13|1 0,0,1348,0,0,0,0,1,0,0,0,0,0,0,1,1350,
scooby_state_55b5b85b47bd|44|1 0,0,1350,0,0,0,0,0,0,0,0,0,0,0,0,1350,
scooby_state_55b5b85b47bd|27|1 0,0,1346,0,0,0,0,0,0,0,0,1,1,0,2,1350,
scooby_state_55b5b85b47bd|19|1 0,0,1345,1,0,0,1,0,0,1,1,0,0,1,0,1350,
scooby_state_55b5b85b47bd|18|1 0,0,1347,0,0,0,1,0,0,0,0,1,0,0,1,1350,
scooby_state_55b5b85b47bd|36|1 0,0,1349,0,0,1,0,0,0,0,0,0,0,0,0,1350,
scooby_state_55b5b85b47bd|14|1 0,0,1350,0,0,0,0,0,0,0,0,0,0,0,0,1350,
scooby_state_55b5b85b47bd|49|1 0,0,1349,0,0,1,0,0,0,0,0,0,0,0,0,1350,
scooby_state_55b5b85b47bd|22|1 1,0,1348,0,0,0,0,0,0,0,0,0,0,1,0,1350,
scooby_state_55b5b85b47bd|37|1 0,0,1350,0,0,0,0,0,0,0,0,0,0,0,0,1350,
scooby_state_55b5b85b47bd|53|1 1,0,1346,1,0,0,0,0,0,0,0,0,1,0,1,1350,
scooby_state_55b5b85b47bd|10|1 0,0,1348,0,1,0,0,0,0,0,0,0,1,0,0,1350,
scooby_state_55b5b85b47bd|24|1 1,0,1347,1,0,1,0,0,0,0,0,0,0,0,0,1350,
scooby_state_55b5b85b47bd|60|1 0,0,1346,0,0,0,1,0,0,0,0,0,1,0,1,1349,
scooby_state_55b5b85b47bd|61|1 0,0,1346,0,0,0,0,1,0,0,0,0,0,2,0,1349,
scooby_state_55b5b85b47bd|58|1 0,0,1348,0,1,0,0,0,0,0,0,0,0,0,0,1349,
scooby_state_55b5b85b47bd|1|1 0,0,1349,0,0,0,0,0,0,0,0,0,0,0,0,1349,
scooby_state_55b5b85b47bd|59|1 1,0,1345,0,0,0,1,0,1,0,0,0,1,0,0,1349,
scooby_state_55b5b85b47bd|5|1 0,0,1348,0,0,0,0,0,0,1,0,0,0,0,0,1349,
scooby_state_55b5b85b47bd|62|1 0,0,1348,0,1,0,0,0,0,0,0,0,0,0,0,1349,
scooby_state_55b5b85b47bd|2|1 0,0,1347,0,0,1,0,0,1,0,0,0,0,0,0,1349,
scooby_state_55b5b85b47bd|0|0 0,0,1348,0,0,1,0,0,0,0,0,0,0,0,0,1349,
scooby_state_55b5b85b47bd|3|1 1,0,1343,1,1,1,0,1,0,0,0,0,0,1,0,1349,
scooby_state_55b5b85b47bd|7|1 0,0,1349,0,0,0,0,0,0,0,0,0,0,0,0,1349,
scooby_state_55b5b85b47bd|4|1 0,0,1347,1,0,0,0,0,0,0,1,0,0,0,0,1349,
scooby_state_55b5b85b47bd|63|1 0,0,1344,0,1,1,0,0,1,0,1,0,1,0,0,1349,
scooby_state_55b5b85b47bd|6|1 0,0,1349,0,0,0,0,0,0,0,0,0,0,0,0,1349,
scooby_state_55b5b85b47bd|57|1 0,0,1345,1,0,0,0,0,0,0,1,0,1,0,1,1349,
scooby_state_55b5b85b47bd|56|1 0,0,1347,1,0,0,0,0,1,0,0,0,0,0,0,1349,
scooby_state_55b5b85b47bd|8|1 0,0,1346,0,0,0,0,1,0,0,1,0,0,0,0,1348,
scooby_state_55b5b85b47d9|5|0 1234,0,0,1,1,1,0,0,0,1,0,0,0,0,0,1238,
scooby_state_55b5b85b47d9|4|0 1224,3,0,0,0,1,2,0,0,1,1,0,1,0,0,1233,
scooby_state_55b5b85b47d9|6|0 1172,2,0,1,1,0,0,1,1,0,0,0,1,0,0,1179,
scooby_state_55b5b85b47d9|7|0 1032,0,0,0,0,0,0,0,0,0,0,1,0,1,0,1034,
scooby_state_55b5b85b480b|1|1 793,2,2,4,1,1,1,0,1,2,1,0,0,1,3,812,
scooby_state_55b5b85b480b|12|1 756,1,0,2,1,4,3,2,1,1,0,0,4,1,1,777,
scooby_state_55b5b85b47d9|12|2 751,1,0,0,0,1,1,1,0,0,0,0,1,1,1,758,
scooby_state_55b5b85b480b|11|2 741,0,4,0,0,1,1,1,0,2,3,1,1,1,1,757,
scooby_state_55b5b85b480b|4|4 739,0,2,2,2,2,1,1,0,1,0,2,1,0,3,756,
scooby_state_55b5b85b47d9|8|0 745,0,0,0,0,0,1,1,0,0,0,0,0,0,0,747,
scooby_state_55b5b85b480b|5|5 723,0,1,3,1,0,1,1,3,0,0,3,2,0,0,738,
scooby_state_55b5b85b47d9|9|2 724,1,0,0,0,0,0,0,0,0,0,1,0,0,0,726,
scooby_state_55b5b85b480b|13|1 706,1,0,1,3,2,3,1,0,0,0,2,1,0,3,723,
scooby_state_55b5b85b47d9|47|2 718,1,0,0,0,0,0,0,0,0,0,1,0,0,0,720,
scooby_state_55b5b85b480b|31|2 707,0,4,0,0,2,1,1,0,0,2,1,0,0,2,720,
scooby_state_55b5b85b47d9|15|2 715,3,0,0,0,0,0,0,0,0,0,0,0,1,0,719,
scooby_state_55b5b85b47d9|27|2 711,0,0,0,0,2,1,1,0,0,0,1,0,0,0,716,
scooby_state_55b5b85b47d9|40|2 711,2,0,0,0,0,0,1,0,0,0,0,0,1,0,715,
scooby_state_55b5b85b480b|22|1 697,2,4,1,1,2,1,0,1,2,1,1,0,1,0,714,
scooby_state_55b5b85b480b|12|3 696,2,0,1,1,3,1,1,1,0,1,0,2,2,3,714,
scooby_state_55b5b85b480b|7|3 701,0,2,2,1,1,0,2,1,1,2,0,0,0,1,714,
scooby_state_55b5b85b47d9|18|2 707,3,0,0,0,0,1,0,1,0,0,0,0,1,0,713,
scooby_state_55b5b85b480b|39|1 693,1,0,5,0,2,1,0,0,1,0,3,3,0,3,712,
scooby_state_55b5b85b480b|4|3 699,2,1,2,0,0,0,0,0,0,1,1,0,1,3,710,
scooby_state_55b5b85b480b|9|1 693,2,1,1,2,1,3,2,1,1,0,0,1,0,1,709,
scooby_state_55b5b85b47d9|46|2 706,2,0,0,0,0,0,0,0,0,0,0,0,0,0,708,
scooby_state_55b5b85b47d9|5|2 700,4,0,0,0,0,0,1,0,0,1,1,0,1,0,708,
scooby_state_55b5b85b480b|13|2 682,0,8,0,0,1,1,0,0,4,1,2,3,2,3,707,
scooby_state_55b5b85b47d9|49|2 699,0,0,1,1,0,1,0,0,0,1,1,0,0,0,704,
scooby_state_55b5b85b47d9|8|2 701,0,0,0,0,1,0,0,1,1,0,0,0,0,0,704,
scooby_state_55b5b85b47d9|3|2 703,0,0,0,0,0,1,0,0,0,0,0,0,0,0,704,
scooby_state_55b5b85b47d9|6|2 697,1,1,0,0,1,0,0,0,1,0,1,1,0,0,703,
scooby_state_55b5b85b47d9|32|2 699,0,0,2,0,0,0,0,1,0,0,0,0,0,0,702,
scooby_state_55b5b85b47d9|11|2 699,0,0,0,0,0,2,0,0,0,0,0,0,0,0,701,
scooby_state_55b5b85b47d9|61|2 698,0,1,0,0,0,0,1,0,0,0,1,0,0,0,701,
scooby_state_55b5b85b480b|33|4 689,2,0,2,1,3,1,0,0,0,0,0,0,2,1,701,
scooby_state_55b5b85b47d9|41|2 694,1,0,0,0,0,1,0,0,1,0,0,1,0,0,698,
scooby_state_55b5b85b47d9|28|2 692,0,0,0,0,1,0,0,1,0,1,0,2,0,0,697,
scooby_state_55b5b85b480b|63|4 685,2,0,1,1,0,2,0,1,1,0,0,0,1,2,696,
scooby_state_55b5b85b480b|6|2 684,0,5,0,1,1,0,0,0,1,1,1,0,0,1,695,
scooby_state_55b5b85b480b|4|1 680,1,0,0,1,1,2,0,1,1,2,0,1,2,2,694,
scooby_state_55b5b85b47d9|54|2 686,0,1,0,0,4,0,0,0,0,1,1,0,0,1,694,
scooby_state_55b5b85b47d9|44|2 686,2,0,1,0,0,1,0,0,1,1,0,1,0,0,693,
scooby_state_55b5b85b480b|5|1 677,1,1,2,2,1,0,1,3,1,1,1,1,0,1,693,
scooby_state_55b5b85b480b|10|1 678,2,0,0,1,2,1,1,0,0,0,1,1,4,1,692,
scooby_state_55b5b85b480b|30|3 677,2,0,0,0,1,0,3,0,0,0,1,2,3,3,692,
scooby_state_55b5b85b480b|63|2 676,0,5,1,0,1,2,0,1,0,0,2,2,1,1,692,
scooby_state_55b5b85b47d9|63|2 688,1,0,1,0,0,0,0,0,0,0,1,0,0,0,691,
scooby_state_55b5b85b47d9|58|2 687,0,0,1,0,1,0,0,0,1,0,0,0,0,1,691,
scooby_state_55b5b85b480b|63|6 668,2,4,3,3,1,2,2,1,0,1,2,0,1,1,691,
scooby_state_55b5b85b47d9|34|2 689,0,0,0,0,0,0,0,0,0,0,0,0,0,1,690,
scooby_state_55b5b85b47d9|56|2 686,0,1,0,0,0,0,0,0,1,0,2,0,0,0,690,
scooby_state_55b5b85b480b|63|1 677,1,0,0,4,0,0,1,0,0,0,0,1,2,2,688,
scooby_state_55b5b85b47d9|45|2 678,2,1,0,0,4,2,0,0,0,0,0,0,0,0,687,
scooby_state_55b5b85b47d9|62|2 682,0,1,0,0,1,0,0,0,0,0,2,0,0,0,686,
scooby_state_55b5b85b480b|11|1 669,0,1,0,1,2,0,2,2,0,2,1,1,1,2,684,
scooby_state_55b5b85b480b|38|1 665,2,1,2,0,2,1,4,1,0,0,1,2,1,2,684,
scooby_state_55b5b85b47d9|57|2 679,0,0,0,1,2,1,0,0,0,0,0,1,0,0,684,
scooby_state_55b5b85b47d9|24|2 680,1,0,0,0,0,1,0,0,0,0,0,0,1,1,684,
scooby_state_55b5b85b480b|3|3 677,1,1,1,0,1,0,0,0,1,0,1,1,0,0,684,
scooby_state_55b5b85b47d9|60|2 675,1,2,0,1,0,1,0,0,1,1,0,1,0,1,684,
scooby_state_55b5b85b47d9|17|2 675,2,0,2,0,0,1,0,0,0,1,2,0,0,1,684,
scooby_state_55b5b85b480b|2|2 668,0,6,0,0,1,0,2,1,0,1,1,0,1,2,683,
scooby_state_55b5b85b480b|5|4 671,2,0,1,1,0,1,2,1,2,0,1,0,0,0,682,
scooby_state_55b5b85b47d9|43|2 679,0,0,0,0,0,2,0,0,0,0,0,0,1,0,682,
scooby_state_55b5b85b47d9|25|2 676,1,0,0,0,0,1,0,0,1,0,1,1,0,0,681,
scooby_state_55b5b85b480b|21|1 662,4,2,1,0,1,0,1,0,3,2,1,1,1,2,681,
scooby_state_55b5b85b480b|2|1 665,2,1,1,2,2,0,1,0,1,0,1,2,1,2,681,
scooby_state_55b5b85b480b|29|2 667,0,1,0,0,2,1,3,0,2,0,1,1,1,1,680,
scooby_state_55b5b85b480b|44|2 664,0,2,0,0,2,1,0,0,0,0,2,3,1,3,678,
scooby_state_55b5b85b480b|41|4 667,1,3,1,0,0,0,1,1,0,0,0,3,0,1,678,
scooby_state_55b5b85b47d9|23|2 671,4,0,1,0,0,0,0,0,0,0,0,0,0,1,677,
scooby_state_55b5b85b480b|41|3 661,0,1,0,1,1,0,2,2,1,0,0,1,3,4,677,
scooby_state_55b5b85b480b|24|3 661,0,0,1,0,0,1,3,1,0,1,3,0,3,2,676,
scooby_state_55b5b85b47d9|16|2 670,4,0,0,0,1,0,0,0,0,0,0,0,1,0,676,
scooby_state_55b5b85b47d9|51|2 667,3,0,1,0,1,0,0,1,0,1,0,0,1,0,675,
scooby_state_55b5b85b480b|33|2 662,0,2,0,1,1,3,2,1,1,1,0,0,0,0,674,
scooby_state_55b5b85b47d9|7|2 670,1,0,0,0,1,0,0,0,1,0,0,0,0,0,673,
scooby_state_55b5b85b480b|42|4 662,0,1,0,1,0,1,1,0,1,1,1,3,0,0,672,
scooby_state_55b5b85b480b|63|7 652,1,0,1,4,0,1,2,2,1,0,2,2,1,3,672,
scooby_state_55b5b85b47d9|39|2 667,1,0,1,0,0,1,0,0,0,1,0,0,0,0,671,
scooby_state_55b5b85b47d9|31|2 661,1,0,0,1,0,1,0,1,0,1,3,0,0,1,670,
scooby_state_55b5b85b47d9|35|2 667,0,0,0,0,0,1,0,0,1,0,0,1,0,0,670,
scooby_state_55b5b85b480b|44|3 648,2,0,4,2,0,1,2,1,1,1,2,2,0,1,667,
scooby_state_55b5b85b47d9|4|2 663,0,0,0,0,1,0,0,0,1,0,0,1,0,0,666,
scooby_state_55b5b85b47d9|29|2 660,0,0,0,0,1,1,0,0,2,0,1,0,0,0,665,
scooby_state_55b5b85b480b|38|7 647,1,1,1,2,1,2,1,2,2,1,0,1,2,1,665,
scooby_state_55b5b85b480b|15|4 650,2,1,1,1,1,0,1,0,0,0,1,0,2,4,664,
scooby_state_55b5b85b47d9|59|2 658,1,0,0,1,0,2,0,0,0,1,0,0,0,1,664,
scooby_state_55b5b85b480b|56|1 647,2,1,1,3,0,1,2,0,1,2,1,2,0,1,664,
scooby_state_55b5b85b47d9|13|2 658,0,0,1,0,1,0,0,1,0,0,1,0,0,1,663,
scooby_state_55b5b85b47d9|2|2 654,2,0,1,0,1,2,0,0,0,1,1,0,0,0,662,
scooby_state_55b5b85b47d9|48|2 654,2,0,0,1,1,2,0,0,0,0,0,1,1,0,662,
scooby_state_55b5b85b47d9|30|2 659,0,0,0,0,1,0,0,0,1,0,0,0,1,0,662,
scooby_state_55b5b85b47d9|22|2 659,0,0,0,0,0,0,0,0,0,1,0,1,0,0,661,
scooby_state_55b5b85b47d9|38|2 657,0,0,1,0,1,1,1,0,0,0,0,0,0,0,661,
scooby_state_55b5b85b480b|7|6 644,2,0,2,2,2,0,1,1,0,0,2,1,1,2,660,
scooby_state_55b5b85b480b|38|5 651,1,0,0,0,0,1,0,0,0,0,3,1,1,2,660,
scooby_state_55b5b85b47d9|14|2 655,1,0,0,0,0,1,0,0,0,0,0,0,1,1,659,
scooby_state_55b5b85b47d9|26|2 654,2,1,0,0,0,0,0,0,0,1,0,0,0,1,659,
scooby_state_55b5b85b480b|4|2 631,0,7,0,1,1,2,1,3,0,1,1,0,4,6,658,
scooby_state_55b5b85b480b|44|5 646,1,0,1,0,0,0,0,3,1,2,2,1,0,1,658,
scooby_state_55b5b85b480b|42|3 645,0,0,2,2,0,2,0,0,0,0,2,1,2,1,657,
scooby_state_55b5b85b480b|31|1 641,1,1,2,2,1,2,0,2,0,1,1,1,0,1,656,
scooby_state_55b5b85b480b|44|1 639,1,1,1,1,1,1,1,1,0,5,0,0,1,3,656,
scooby_state_55b5b85b480b|15|3 639,1,0,0,2,3,1,2,1,0,0,2,2,1,2,656,
scooby_state_55b5b85b47d9|52|2 649,2,1,0,0,2,0,0,0,0,0,1,0,0,1,656,
scooby_state_55b5b85b480b|18|6 637,5,2,1,0,0,0,0,1,1,2,4,1,1,1,656,
scooby_state_55b5b85b480b|13|4 646,0,1,1,3,2,0,1,0,1,0,0,0,0,1,656,
scooby_state_55b5b85b480b|62|1 642,0,3,0,2,1,0,2,1,1,0,1,0,3,0,656,
scooby_state_55b5b85b47d9|53|2 651,0,0,0,0,0,0,0,0,0,0,2,1,0,1,655,
scooby_state_55b5b85b47d9|19|2 648,1,0,1,1,0,0,1,1,1,0,0,0,0,0,654,
scooby_state_55b5b85b47d9|33|2 647,2,1,0,0,1,0,0,0,0,1,0,2,0,0,654,
scooby_state_55b5b85b480b|15|2 638,0,9,1,0,1,0,0,0,1,0,1,1,0,2,654,
scooby_state_55b5b85b480b|34|1 627,1,3,1,4,1,1,1,4,2,0,2,3,3,1,654,
scooby_state_55b5b85b47d9|20|2 651,0,0,0,0,0,0,0,0,0,0,0,0,0,2,653,
scooby_state_55b5b85b47d9|50|2 652,0,0,0,0,0,0,0,0,0,0,0,0,1,0,653,
scooby_state_55b5b85b47d9|36|2 646,0,0,0,0,0,0,0,1,0,1,1,1,0,0,650,
scooby_state_55b5b85b480b|27|6 637,2,0,2,0,1,0,0,1,1,0,0,1,2,2,649,
scooby_state_55b5b85b480b|61|5 632,3,1,1,1,0,0,0,1,2,0,2,4,1,1,649,
scooby_state_55b5b85b480b|7|2 633,0,3,0,3,0,0,0,0,0,1,3,1,1,4,649,
scooby_state_55b5b85b480b|63|3 636,1,0,0,0,0,2,0,0,0,3,1,1,1,2,647,
scooby_state_55b5b85b47d9|37|2 643,2,0,0,0,0,1,0,0,0,0,1,0,0,0,647,
scooby_state_55b5b85b480b|16|4 634,0,0,0,1,3,1,1,1,0,1,1,2,0,2,647,
scooby_state_55b5b85b480b|61|4 633,1,2,3,1,1,1,0,0,1,0,0,1,2,0,646,
scooby_state_55b5b85b480b|34|2 628,0,3,0,0,4,1,1,0,1,0,1,2,1,3,645,
scooby_state_55b5b85b480b|18|3 631,1,1,1,0,1,3,0,2,0,3,0,0,1,1,645,
scooby_state_55b5b85b480b|16|1 627,1,2,0,0,2,0,1,0,0,1,1,2,3,4,644,
scooby_state_55b5b85b47d9|55|2 640,0,0,0,0,0,0,0,1,0,0,1,1,0,0,643,
scooby_state_55b5b85b480b|39|2 629,1,2,0,0,2,2,0,0,0,1,4,1,1,0,643,
scooby_state_55b5b85b480b|18|2 628,0,6,0,0,0,2,4,1,0,0,1,1,0,0,643,
scooby_state_55b5b85b480b|30|2 626,0,5,0,0,2,1,0,0,2,2,1,2,1,1,643,
scooby_state_55b5b85b47d9|10|2 639,1,0,0,0,0,0,0,0,0,0,0,0,0,2,642,
scooby_state_55b5b85b480b|33|6 610,1,4,2,2,1,2,3,2,2,2,4,1,2,3,641,
scooby_state_55b5b85b480b|33|1 623,1,2,2,2,2,0,1,1,2,2,0,0,0,2,640,
scooby_state_55b5b85b480b|42|1 633,0,2,1,1,0,0,0,0,0,0,1,1,0,1,640,
scooby_state_55b5b85b480b|38|4 627,1,0,2,0,0,2,2,1,0,1,0,1,2,0,639,
scooby_state_55b5b85b480b|7|7 616,2,1,0,1,2,2,2,2,1,1,0,2,5,1,638,
scooby_state_55b5b85b480b|27|5 624,0,1,0,2,2,2,1,0,0,0,1,1,1,3,638,
scooby_state_55b5b85b480b|11|7 617,2,1,1,0,4,1,1,0,2,2,1,1,3,2,638,
scooby_state_55b5b85b480b|12|2 623,0,7,0,0,3,0,1,0,1,1,2,0,0,0,638,
scooby_state_55b5b85b480b|6|5 621,1,1,0,1,2,1,0,1,0,2,0,3,2,2,637,
scooby_state_55b5b85b480b|44|7 622,3,1,0,1,0,1,1,1,1,2,0,1,2,1,637,
scooby_state_55b5b85b480b|30|1 611,2,1,2,1,2,1,0,0,1,1,2,8,3,1,636,
scooby_state_55b5b85b480b|10|2 617,0,6,0,0,3,2,1,3,0,0,1,0,0,3,636,
scooby_state_55b5b85b480b|18|7 617,3,2,1,1,0,1,2,1,2,0,3,1,0,1,635,
scooby_state_55b5b85b480b|12|4 628,0,1,0,1,0,0,0,0,0,1,2,1,0,1,635,
scooby_state_55b5b85b480b|24|2 618,0,6,0,0,2,1,0,0,1,1,2,2,0,1,634,
scooby_state_55b5b85b480b|27|3 624,0,2,0,0,1,0,3,0,0,0,1,2,0,1,634,
scooby_state_55b5b85b480b|59|4 626,1,2,1,0,1,0,1,0,1,0,0,0,1,0,634,
scooby_state_55b5b85b480b|25|1 624,2,0,0,2,0,1,1,0,1,0,0,0,2,1,634,
scooby_state_55b5b85b480b|31|4 624,1,2,2,1,1,0,1,0,1,0,0,0,0,1,634,
scooby_state_55b5b85b480b|63|8 614,1,2,2,0,4,1,1,2,1,0,0,2,0,4,634,
scooby_state_55b5b85b480b|33|3 623,0,0,1,2,0,0,1,1,1,0,1,1,2,1,634,
scooby_state_55b5b85b480b|11|3 623,2,2,1,0,0,0,1,1,0,0,0,2,0,1,633,
scooby_state_55b5b85b480b|14|2 617,0,6,0,0,1,0,4,1,1,1,0,0,0,1,632,
scooby_state_55b5b85b47d9|21|2 629,1,0,1,0,0,0,0,0,0,0,0,1,0,0,632,
scooby_state_55b5b85b480b|9|5 622,0,3,1,0,0,0,0,1,0,1,1,1,0,0,630,
scooby_state_55b5b85b480b|5|2 612,0,4,0,1,1,1,3,1,1,1,0,1,1,3,630,
scooby_state_55b5b85b480b|3|2 615,0,3,0,0,2,3,1,0,0,3,1,0,1,1,630,
scooby_state_55b5b85b480b|56|2 616,0,6,0,0,0,2,1,1,0,1,0,2,0,0,629,
scooby_state_55b5b85b480b|27|7 616,3,1,2,2,0,2,1,0,0,1,0,0,0,1,629,
scooby_state_55b5b85b480b|32|1 617,0,1,1,1,1,0,1,0,0,1,1,2,0,2,628,
scooby_state_55b5b85b480b|11|10 602,2,3,4,4,1,1,1,1,0,0,4,1,2,2,628,
scooby_state_55b5b85b480b|21|3 616,0,3,1,0,1,1,0,1,1,1,1,0,1,0,627,
scooby_state_55b5b85b480b|14|1 613,3,1,1,1,2,0,1,1,0,0,0,1,0,3,627,
scooby_state_55b5b85b480b|18|1 615,2,1,0,2,1,0,2,1,0,1,0,1,0,1,627,
scooby_state_55b5b85b480b|43|2 608,0,4,0,0,2,1,3,2,0,1,0,2,0,2,625,
scooby_state_55b5b85b480b|59|1 614,2,0,1,1,1,1,1,0,1,1,0,0,1,1,625,
scooby_state_55b5b85b480b|51|2 607,0,6,0,0,2,2,2,1,0,1,3,0,1,0,625,
scooby_state_55b5b85b480b|62|2 607,0,7,0,0,0,0,1,2,0,2,1,0,0,3,623,
scooby_state_55b5b85b480b|15|1 609,1,2,1,2,0,2,1,2,0,0,0,1,1,1,623,
scooby_state_55b5b85b480b|58|2 607,0,7,0,0,1,0,0,0,0,2,4,2,0,0,623,
scooby_state_55b5b85b480b|31|11 605,0,0,1,1,0,2,2,2,1,1,3,0,2,3,623,
scooby_state_55b5b85b480b|61|2 611,1,3,0,0,2,0,0,1,0,1,3,0,0,1,623,
scooby_state_55b5b85b480b|20|2 605,1,7,0,0,0,1,2,1,0,0,0,0,1,4,622,
scooby_state_55b5b85b480b|27|1 605,2,1,1,3,1,1,1,2,0,0,2,1,0,2,622,
scooby_state_55b5b85b480b|6|6 613,2,2,1,0,1,0,0,1,0,0,1,1,0,0,622,
scooby_state_55b5b85b480b|41|2 608,0,1,0,0,2,1,2,3,0,1,1,0,1,1,621,
scooby_state_55b5b85b480b|37|2 610,0,2,0,0,1,0,0,0,2,0,4,0,1,1,621,
scooby_state_55b5b85b480b|21|6 610,2,0,1,2,0,0,0,1,2,0,2,0,1,0,621,
scooby_state_55b5b85b480b|18|5 597,1,3,1,3,1,3,2,1,0,0,0,4,4,1,621,
scooby_state_55b5b85b480b|34|4 605,1,2,3,0,1,1,1,0,1,0,2,1,0,2,620,
scooby_state_55b5b85b47d9|42|2 620,0,0,0,0,0,0,0,0,0,0,0,0,0,0,620,
scooby_state_55b5b85b480b|51|7 607,0,1,0,1,2,0,0,2,0,0,1,1,2,1,618,
scooby_state_55b5b85b480b|57|1 608,0,1,1,2,1,2,0,0,0,0,1,0,1,1,618,
scooby_state_55b5b85b480b|4|-59 518,10,9,8,11,13,6,10,7,4,5,4,6,3,4,618,
scooby_state_55b5b85b480b|37|6 604,1,0,0,1,1,1,0,0,1,0,2,4,1,1,617,
scooby_state_55b5b85b480b|56|5 601,1,0,0,1,2,1,1,1,1,2,0,1,3,1,616,
scooby_state_55b5b85b480b|16|2 599,0,6,0,0,2,3,0,1,0,0,0,0,2,3,616,
scooby_state_55b5b85b480b|22|2 605,0,3,0,0,2,0,1,2,0,0,2,0,1,0,616,
scooby_state_55b5b85b480b|8|3 607,0,0,0,2,0,0,1,0,1,0,2,0,0,3,616,
scooby_state_55b5b85b480b|39|8 599,2,0,0,1,0,2,0,1,0,1,4,2,1,1,614,
scooby_state_55b5b85b480b|7|1 607,2,0,0,0,0,1,1,0,2,0,0,0,0,0,613,
scooby_state_55b5b85b480b|11|4 602,1,1,0,2,1,0,3,0,0,0,1,0,1,1,613,
scooby_state_55b5b85b480b|23|2 607,0,1,0,0,0,1,0,0,0,1,0,0,1,2,613,
scooby_state_55b5b85b480b|16|3 606,0,1,1,1,1,1,0,0,0,0,1,0,0,0,612,
scooby_state_55b5b85b480b|27|14 602,2,0,2,2,0,0,1,1,0,0,1,0,1,0,612,
scooby_state_55b5b85b480b|11|-52 583,0,6,1,2,2,1,2,2,4,0,1,1,2,4,611,
scooby_state_55b5b85b480b|34|3 598,1,0,1,1,1,0,0,1,1,2,0,1,0,3,610,
scooby_state_55b5b85b480b|56|12 590,3,2,0,1,2,0,2,1,1,0,1,0,3,4,610,
scooby_state_55b5b85b480b|8|8 592,2,1,1,1,0,0,1,4,0,1,2,1,3,1,610,
scooby_state_55b5b85b480b|32|4 595,0,0,1,0,1,0,2,0,0,1,2,3,3,1,609,
scooby_state_55b5b85b480b|25|4 596,0,0,2,0,0,4,0,0,4,1,0,0,1,1,609,
scooby_state_55b5b85b480b|43|1 598,0,0,2,1,0,1,0,0,1,0,1,1,1,3,609,
scooby_state_55b5b85b480b|13|9 592,0,0,0,1,2,0,0,0,1,2,2,3,4,1,608,
scooby_state_55b5b85b480b|24|4 600,0,0,1,0,1,0,2,0,0,0,2,0,0,1,607,
scooby_state_55b5b85b480b|17|1 594,1,0,1,0,1,0,3,2,0,0,1,1,1,2,607,
scooby_state_55b5b85b480b|23|1 599,0,0,2,1,2,1,0,0,0,0,0,1,1,0,607,
scooby_state_55b5b85b480b|59|3 598,0,0,0,1,0,0,2,0,0,1,2,1,1,0,606,
scooby_state_55b5b85b480b|51|5 594,1,1,3,1,1,1,1,2,0,0,0,0,1,0,606,
scooby_state_55b5b85b480b|60|1 603,0,0,0,1,0,0,0,0,0,1,0,0,0,1,606,
scooby_state_55b5b85b480b|46|2 591,0,7,0,0,0,1,3,0,1,0,1,0,0,1,605,
scooby_state_55b5b85b480b|28|1 596,0,2,0,0,1,0,0,1,0,1,0,1,2,1,605,
scooby_state_55b5b85b480b|59|2 587,0,3,0,2,1,3,0,3,1,0,3,0,1,1,605,
scooby_state_55b5b85b480b|34|7 588,2,2,2,1,1,0,2,3,1,0,1,0,1,1,605,
scooby_state_55b5b85b480b|57|2 589,0,5,0,0,2,1,0,1,0,0,3,1,1,2,605,
scooby_state_55b5b85b480b|39|6 589,3,2,2,0,0,0,1,1,2,1,1,1,2,0,605,
scooby_state_55b5b85b480b|34|6 589,0,1,2,2,1,0,1,3,0,0,1,0,2,3,605,
scooby_state_55b5b85b480b|10|6 586,0,4,0,2,2,2,0,0,0,1,2,3,0,2,604,
scooby_state_55b5b85b480b|44|11 585,3,1,2,1,1,0,1,3,0,2,0,0,2,2,603,
scooby_state_55b5b85b480b|27|2 584,0,7,0,0,1,1,0,1,1,1,2,0,3,2,603,
scooby_state_55b5b85b480b|5|3 583,3,0,2,0,1,0,0,1,1,3,1,6,1,1,603,
scooby_state_55b5b85b480b|44|13 581,1,2,2,1,0,1,2,1,1,0,2,4,2,3,603,
scooby_state_55b5b85b480b|41|8 584,1,2,1,1,1,1,1,3,0,1,2,2,2,1,603,
scooby_state_55b5b85b480b|17|4 596,0,0,0,0,1,1,0,1,0,0,1,2,0,1,603,
scooby_state_55b5b85b480b|37|10 583,1,3,2,0,3,5,0,1,1,1,1,0,0,1,602,
scooby_state_55b5b85b480b|45|1 591,1,1,0,1,1,0,2,0,2,0,0,2,0,0,601,
scooby_state_55b5b85b480b|34|5 587,0,2,1,1,1,0,3,0,0,2,1,1,0,2,601,
scooby_state_55b5b85b480b|11|11 590,0,0,3,0,0,3,1,0,0,2,0,0,1,1,601,
scooby_state_55b5b85b480b|8|4 593,0,0,0,1,0,1,0,1,0,0,1,0,0,4,601,
scooby_state_55b5b85b480b|17|2 586,0,5,0,0,0,4,0,0,2,1,2,0,1,0,601,
scooby_state_55b5b85b480b|13|3 588,2,3,1,2,0,1,0,0,1,0,1,0,1,1,601,
scooby_state_55b5b85b480b|21|5 583,1,1,2,1,1,2,0,1,1,0,1,1,1,5,601,
scooby_state_55b5b85b480b|8|7 586,1,2,2,1,3,0,1,1,1,1,1,0,1,0,601,
scooby_state_55b5b85b480b|21|10 587,0,1,3,0,1,0,2,2,2,1,1,0,1,0,601,
scooby_state_55b5b85b480b|16|5 584,4,2,2,0,1,0,0,0,0,2,2,0,3,1,601,
scooby_state_55b5b85b480b|33|5 586,2,3,0,1,0,0,1,0,1,0,3,1,1,1,600,
scooby_state_55b5b85b480b|21|4 591,0,0,0,1,1,1,0,0,0,2,0,3,0,0,599,
scooby_state_55b5b85b480b|56|3 591,0,2,1,0,1,0,0,1,1,0,1,0,1,0,599,
scooby_state_55b5b85b480b|0|-63 543,7,2,0,0,4,2,8,6,3,5,4,3,3,9,599,
scooby_state_55b5b85b480b|38|8 575,1,2,0,1,3,1,1,1,2,2,4,2,2,1,598,
scooby_state_55b5b85b480b|25|2 584,0,1,0,0,4,2,0,1,0,1,1,1,0,2,597,
scooby_state_55b5b85b480b|41|1 578,0,3,0,2,0,2,1,0,3,0,1,0,3,4,597,
scooby_state_55b5b85b480b|56|4 587,1,1,0,1,1,0,0,0,1,1,1,0,0,2,596,
scooby_state_55b5b85b480b|46|3 581,0,1,1,0,1,0,2,1,3,1,3,1,1,0,596,
scooby_state_55b5b85b480b|9|8 587,0,2,0,0,1,0,1,0,1,0,1,3,0,0,596,
scooby_state_55b5b85b480b|61|1 577,1,2,1,1,0,3,0,3,1,1,1,2,3,0,596,
scooby_state_55b5b85b480b|63|12 580,3,1,1,3,1,0,0,0,2,0,0,1,1,3,596,
scooby_state_55b5b85b480b|24|1 585,1,1,0,0,1,0,1,1,2,0,0,0,0,3,595,
scooby_state_55b5b85b480b|39|5 584,0,1,0,0,1,2,0,1,0,1,1,2,1,1,595,
scooby_state_55b5b85b480b|39|7 581,1,2,1,1,0,0,3,0,0,1,0,2,2,0,594,
scooby_state_55b5b85b480b|1|-58 524,2,1,4,3,6,7,4,9,6,7,4,4,5,8,594,
scooby_state_55b5b85b480b|20|5 578,0,4,1,3,1,2,0,1,0,0,0,1,1,1,593,
scooby_state_55b5b85b480b|44|6 575,2,2,0,0,1,0,1,1,0,0,2,2,1,5,592,
scooby_state_55b5b85b480b|15|6 577,2,0,0,1,1,3,0,2,1,0,1,1,1,1,591,
scooby_state_55b5b85b480b|43|4 585,0,0,1,0,0,0,1,1,0,1,0,1,1,0,591,
scooby_state_55b5b85b480b|45|7 577,1,0,2,1,0,2,0,0,0,1,2,1,0,3,590,
scooby_state_55b5b85b480b|52|1 580,1,0,1,1,1,0,0,2,1,0,1,1,1,0,590,
scooby_state_55b5b85b480b|20|4 579,0,0,0,2,0,2,0,1,1,0,0,1,2,2,590,
scooby_state_55b5b85b480b|62|3 587,0,0,0,0,0,0,0,0,0,1,0,0,0,1,589,
scooby_state_55b5b85b480b|35|6 574,3,3,1,1,0,1,1,0,1,1,2,0,0,1,589,
scooby_state_55b5b85b480b|22|5 572,3,0,0,2,3,1,0,2,0,1,1,2,2,0,589,
scooby_state_55b5b85b480b|12|8 572,3,1,1,0,2,2,1,1,1,2,0,0,0,3,589,
scooby_state_55b5b85b480b|11|6 569,2,1,1,0,1,1,1,0,3,1,1,2,1,3,587,
scooby_state_55b5b85b480b|27|18 570,0,5,2,2,1,2,0,0,0,0,1,1,0,3,587,
scooby_state_55b5b85b480b|44|4 577,0,1,0,1,0,1,1,1,0,0,2,0,2,1,587,
scooby_state_55b5b85b480b|31|7 569,0,1,3,0,4,3,4,0,1,0,0,1,1,0,587,
scooby_state_55b5b85b480b|3|1 578,0,1,3,0,0,0,0,0,0,0,2,1,0,1,586,
scooby_state_55b5b85b480b|35|1 569,3,0,0,1,2,1,2,0,0,4,1,1,1,1,586,
scooby_state_55b5b85b480b|27|4 578,2,0,1,0,0,0,0,1,0,1,1,0,0,1,585,
scooby_state_55b5b85b480b|20|9 575,0,1,2,0,0,0,0,0,0,4,1,1,0,1,585,
scooby_state_55b5b85b480b|38|6 574,1,1,0,0,1,1,2,0,0,1,1,0,1,2,585,
scooby_state_55b5b85b480b|18|8 567,2,2,2,0,0,1,1,0,2,0,1,3,1,3,585,
scooby_state_55b5b85b480b|14|3 572,1,1,2,1,1,0,1,0,1,0,0,0,2,2,584,
scooby_state_55b5b85b480b|35|4 579,1,0,0,0,0,2,0,0,0,0,0,0,1,1,584,
scooby_state_55b5b85b480b|29|9 574,0,0,1,2,2,0,0,0,0,0,0,1,0,4,584,
scooby_state_55b5b85b480b|37|4 575,2,0,0,0,0,1,0,0,0,1,1,2,1,1,584,
scooby_state_55b5b85b480b|15|5 572,2,0,0,0,1,0,0,1,0,0,4,2,1,1,584,
scooby_state_55b5b85b480b|46|5 571,2,0,0,1,0,0,0,3,0,1,2,0,0,2,582,
scooby_state_55b5b85b480b|21|8 575,1,0,0,0,0,0,1,2,1,1,1,0,0,0,582,
scooby_state_55b5b85b480b|59|8 562,0,3,1,5,0,2,0,1,0,1,2,1,2,2,582,
scooby_state_55b5b85b480b|31|9 571,0,0,2,1,0,0,1,1,0,1,1,1,1,2,582,
scooby_state_55b5b85b480b|21|12 567,0,2,2,2,2,0,0,1,0,0,1,2,0,2,581,
scooby_state_55b5b85b480b|32|3 567,1,1,1,0,1,3,0,1,1,2,1,1,0,1,581,
scooby_state_55b5b85b480b|56|17 568,0,1,1,0,0,0,0,0,1,1,1,2,4,2,581,
scooby_state_55b5b85b480b|49|5 566,0,2,1,2,2,3,0,1,0,1,0,2,0,1,581,
scooby_state_55b5b85b480b|20|6 561,0,3,1,1,3,3,2,1,0,3,0,1,1,1,581,
scooby_state_55b5b85b480b|40|1 569,0,1,0,0,1,0,2,1,0,0,1,2,2,1,580,
scooby_state_55b5b85b480b|38|10 561,1,2,1,3,2,2,2,0,0,1,1,3,0,1,580,
scooby_state_55b5b85b480b|12|11 562,0,1,3,1,1,1,1,2,3,0,1,1,2,0,579,
scooby_state_55b5b85b480b|20|16 563,4,1,2,1,2,1,0,1,0,2,1,1,0,0,579,
scooby_state_55b5b85b480b|21|9 562,2,0,1,2,1,1,0,0,0,1,2,3,0,4,579,
scooby_state_55b5b85b480b|38|9 566,0,0,0,1,0,2,3,0,1,0,1,1,2,2,579,
scooby_state_55b5b85b480b|33|9 572,1,0,2,0,0,0,0,0,0,0,2,0,0,2,579,
scooby_state_55b5b85b480b|31|8 567,1,1,0,2,1,2,1,0,0,0,1,1,1,1,579,
scooby_state_55b5b85b480b|42|8 568,0,1,2,0,1,0,1,0,1,2,1,0,0,1,578,
scooby_state_55b5b85b480b|40|2 568,0,6,0,0,0,0,0,2,0,1,0,1,0,0,578,
scooby_state_55b5b85b480b|27|12 568,0,0,0,0,0,0,0,2,1,1,2,1,0,3,578,
scooby_state_55b5b85b480b|56|15 554,2,0,2,1,4,1,2,1,1,1,1,1,3,4,578,
scooby_state_55b5b85b480b|14|5 570,0,2,0,0,0,0,3,0,0,0,0,1,0,2,578,
scooby_state_55b5b85b480b|47|6 560,2,0,1,1,3,1,0,3,0,1,0,1,2,3,578,
scooby_state_55b5b85b480b|15|11 554,4,3,2,1,0,1,1,2,2,0,2,0,1,4,577,
scooby_state_55b5b85b480b|63|5 560,2,2,3,2,1,1,1,1,1,1,0,1,0,1,577,
scooby_state_55b5b85b480b|45|6 562,1,4,1,0,0,1,0,1,0,1,3,1,1,1,577,
scooby_state_55b5b85b480b|19|1 562,1,0,2,0,1,1,2,2,0,1,2,0,1,1,576,
scooby_state_55b5b85b480b|37|7 560,0,2,2,2,1,1,0,1,3,1,0,1,1,1,576,
scooby_state_55b5b85b480b|56|7 561,0,1,4,0,1,1,2,1,0,0,1,0,2,2,576,
scooby_state_55b5b85b480b|19|3 566,0,1,0,1,0,2,1,0,0,1,0,0,2,2,576,
scooby_state_55b5b85b480b|47|3 564,1,1,0,1,0,1,1,0,0,1,1,1,1,3,576,
scooby_state_55b5b85b480b|63|19 562,0,2,0,1,0,1,0,0,1,1,3,1,2,2,576,
scooby_state_55b5b85b480b|44|10 559,0,2,2,1,1,1,3,0,1,1,0,2,2,0,575,
scooby_state_55b5b85b480b|51|4 566,0,0,0,1,1,0,0,0,0,0,4,0,2,1,575,
scooby_state_55b5b85b480b|52|8 561,2,0,0,1,2,0,1,1,0,1,1,2,1,2,575,
scooby_state_55b5b85b480b|31|3 558,3,1,2,1,2,0,0,0,1,2,2,2,0,1,575,
scooby_state_55b5b85b480b|39|3 561,1,0,1,1,1,2,0,2,0,1,2,0,1,2,575,
scooby_state_55b5b85b480b|59|5 558,2,2,1,4,0,0,1,1,2,0,0,3,0,0,574,
scooby_state_55b5b85b480b|53|2 566,0,2,0,0,0,0,1,0,0,0,4,1,0,0,574,
scooby_state_55b5b85b480b|39|9 568,0,0,1,0,0,0,0,0,0,0,1,0,3,1,574,
scooby_state_55b5b85b480b|38|2 559,0,6,0,0,2,1,1,0,0,0,1,1,2,1,574,
scooby_state_55b5b85b480b|6|1 559,0,0,0,2,2,2,1,1,1,0,2,2,0,1,573,
scooby_state_55b5b85b480b|60|3 562,1,1,1,0,2,1,0,4,0,1,0,0,0,0,573,
scooby_state_55b5b85b480b|17|5 554,0,2,1,2,0,0,2,1,0,1,4,5,1,0,573,
scooby_state_55b5b85b480b|36|5 558,1,0,2,1,1,0,1,1,3,1,0,1,0,2,572,
scooby_state_55b5b85b480b|39|4 561,1,2,1,0,0,1,0,1,0,2,0,1,1,1,572,
scooby_state_55b5b85b480b|29|1 556,3,2,0,0,2,0,0,3,1,0,1,3,0,1,572,
scooby_state_55b5b85b480b|8|1 555,0,2,2,0,3,2,1,1,0,0,0,3,0,2,571,
scooby_state_55b5b85b480b|39|10 556,1,0,0,0,0,1,1,1,0,1,3,1,2,3,570,
scooby_state_55b5b85b480b|29|6 556,1,0,1,2,1,1,2,0,1,1,1,0,2,1,570,
scooby_state_55b5b85b480b|8|5 562,1,1,0,0,1,0,0,0,2,1,0,0,1,1,570,
scooby_state_55b5b85b480b|15|7 559,2,1,0,1,2,0,0,1,1,2,0,0,0,1,570,
scooby_state_55b5b85b480b|32|5 547,1,1,0,1,1,4,1,2,2,2,2,2,1,3,570,
scooby_state_55b5b85b480b|24|12 558,2,1,1,0,1,0,0,0,1,1,0,1,0,4,570,
scooby_state_55b5b85b480b|32|2 554,1,7,0,0,2,2,0,2,0,1,1,0,0,0,570,
scooby_state_55b5b85b480b|44|14 554,1,1,0,2,3,0,1,1,0,1,2,1,1,1,569,
scooby_state_55b5b85b480b|38|3 554,1,2,1,0,1,0,0,1,2,0,1,0,3,3,569,
scooby_state_55b5b85b480b|37|8 558,0,3,1,1,2,1,0,1,0,0,1,0,1,0,569,
scooby_state_55b5b85b480b|46|8 555,2,0,0,0,1,2,2,0,0,0,1,2,1,3,569,
scooby_state_55b5b85b480b|46|1 557,1,1,1,2,0,0,1,1,0,1,1,1,1,1,569,
scooby_state_55b5b85b480b|56|8 553,4,3,1,1,0,1,0,0,0,0,0,1,1,3,568,
scooby_state_55b5b85b480b|1|-62 512,5,7,5,4,2,5,3,3,5,7,4,1,1,4,568,
scooby_state_55b5b85b480b|25|5 550,1,1,0,2,3,0,1,1,0,2,3,0,2,2,568,
scooby_state_55b5b85b480b|41|7 550,0,1,3,0,0,1,1,1,0,1,1,4,4,1,568,
scooby_state_55b5b85b480b|55|4 553,1,1,0,1,1,2,0,2,0,1,0,1,2,3,568,
scooby_state_55b5b85b480b|29|5 549,3,1,2,0,1,1,0,0,1,2,2,2,1,3,568,
scooby_state_55b5b85b480b|30|9 558,1,1,1,1,0,2,1,0,1,1,0,0,1,0,568,
scooby_state_55b5b85b480b|38|11 547,1,2,2,3,1,2,1,0,1,2,0,3,0,2,567,
scooby_state_55b5b85b480b|20|7 551,2,1,0,1,4,1,0,0,0,1,0,2,1,3,567,
scooby_state_55b5b85b480b|46|7 542,2,1,0,1,2,2,0,1,3,1,2,2,6,2,567,
scooby_state_55b5b85b480b|13|5 551,0,0,2,0,1,2,4,2,1,2,1,0,0,1,567,
scooby_state_55b5b85b480b|16|7 553,1,3,1,2,0,0,1,0,1,2,0,1,1,1,567,
scooby_state_55b5b85b480b|39|12 555,0,2,2,0,0,1,0,1,0,1,1,1,2,0,566,
scooby_state_55b5b85b480b|20|8 548,0,3,1,0,1,1,2,1,1,1,3,2,0,2,566,
scooby_state_55b5b85b480b|37|5 550,2,3,1,0,0,0,0,0,0,2,0,3,3,2,566,
scooby_state_55b5b85b480b|49|1 555,1,1,2,0,1,3,2,0,0,0,0,0,1,0,566,
scooby_state_55b5b85b480b|42|11 541,3,1,5,1,1,0,1,1,4,1,1,2,3,1,566,
scooby_state_55b5b85b480b|9|2 557,0,1,1,0,1,0,0,1,1,0,0,0,1,2,565,
scooby_state_55b5b85b480b|42|5 555,0,1,1,1,0,0,1,0,0,0,1,2,1,2,565,
scooby_state_55b5b85b480b|44|17 555,2,0,2,0,0,1,0,1,0,0,2,1,1,0,565,
scooby_state_55b5b85b480b|61|9 552,2,0,0,0,1,1,0,0,1,0,2,1,2,3,565,
scooby_state_55b5b85b480b|28|4 558,1,1,0,0,1,0,1,0,1,0,0,1,1,0,565,
scooby_state_55b5b85b480b|4|-55 499,7,6,4,7,2,7,9,2,1,4,4,4,2,7,565,
scooby_state_55b5b85b480b|20|3 552,4,0,1,1,1,2,1,0,1,0,0,0,0,1,564,
scooby_state_55b5b85b480b|59|13 542,2,2,2,2,3,0,0,4,1,1,1,1,1,2,564,
scooby_state_55b5b85b480b|49|2 555,0,3,0,0,0,0,0,0,0,0,1,2,1,2,564,
scooby_state_55b5b85b480b|13|12 552,3,0,0,1,4,0,0,0,1,0,1,1,0,1,564,
scooby_state_55b5b85b480b|31|10 551,1,0,0,1,1,1,0,1,1,0,4,1,0,2,564,
scooby_state_55b5b85b480b|13|13 547,1,3,2,0,2,3,0,0,0,1,1,1,1,1,563,
scooby_state_55b5b85b480b|18|9 558,0,0,0,1,0,0,1,0,0,0,1,0,1,1,563,
scooby_state_55b5b85b480b|35|2 557,0,2,0,0,1,0,0,0,0,0,0,2,0,1,563,
scooby_state_55b5b85b480b|25|3 542,2,1,3,0,2,2,1,2,1,1,1,0,0,4,562,
scooby_state_55b5b85b480b|48|4 554,0,1,0,1,2,0,0,1,0,0,0,1,1,1,562,
scooby_state_55b5b85b480b|59|15 543,0,0,2,2,2,0,1,0,2,0,4,5,0,1,562,
scooby_state_55b5b85b480b|24|13 549,1,0,0,0,1,1,1,0,1,0,2,3,2,1,562,
scooby_state_55b5b85b480b|14|10 546,2,0,0,1,1,1,0,1,1,1,2,1,2,3,562,
scooby_state_55b5b85b480b|26|5 546,1,1,0,2,0,1,1,0,0,0,4,2,2,2,562,
scooby_state_55b5b85b480b|0|-61 493,8,3,2,7,2,4,3,7,7,5,7,3,8,3,562,
scooby_state_55b5b85b480b|25|14 546,2,0,1,3,2,1,3,1,0,0,1,2,0,0,562,
scooby_state_55b5b85b480b|27|8 548,3,0,0,0,1,2,0,1,1,1,1,2,0,1,561,
scooby_state_55b5b85b480b|13|6 549,1,3,1,0,0,1,0,0,2,0,3,0,0,1,561,
scooby_state_55b5b85b480b|40|3 544,0,3,2,4,1,1,1,1,1,0,0,0,1,2,561,
scooby_state_55b5b85b480b|62|5 545,1,0,1,1,2,1,0,0,1,2,3,1,0,3,561,
scooby_state_55b5b85b480b|39|11 546,2,1,1,2,1,0,1,0,1,0,3,2,0,1,561,
scooby_state_55b5b85b480b|4|-58 495,5,0,7,4,4,7,5,4,3,8,6,1,4,8,561,
scooby_state_55b5b85b480b|51|3 557,0,1,0,0,0,0,1,0,0,0,0,0,0,2,561,
scooby_state_55b5b85b480b|51|1 552,1,0,0,2,1,1,0,0,0,0,2,1,1,0,561,
scooby_state_55b5b85b480b|45|3 543,2,1,2,1,1,2,2,1,0,0,2,0,2,1,560,
scooby_state_55b5b85b480b|17|6 546,0,2,0,1,1,2,1,1,0,0,0,1,2,3,560,
scooby_state_55b5b85b480b|58|7 545,2,1,1,1,0,1,0,0,1,1,1,1,2,2,559,
scooby_state_55b5b85b480b|63|26 544,2,0,3,1,1,1,0,1,0,1,3,1,0,1,559,
scooby_state_55b5b85b480b|28|7 550,0,0,0,1,0,0,1,1,1,0,2,0,1,2,559,
scooby_state_55b5b85b480b|59|7 551,2,1,1,0,0,0,0,1,0,2,0,0,1,0,559,
scooby_state_55b5b85b480b|57|13 545,1,2,0,1,1,1,0,1,0,0,1,4,1,1,559,
scooby_state_55b5b85b480b|38|16 541,1,4,1,2,0,0,1,0,3,1,0,4,0,1,559,
scooby_state_55b5b85b480b|29|7 549,4,0,0,0,0,1,1,1,0,0,1,0,0,1,558,
scooby_state_55b5b85b480b|39|15 539,3,2,3,2,3,1,0,0,0,0,1,1,1,2,558,
scooby_state_55b5b85b480b|62|6 545,1,0,0,2,1,1,1,1,1,0,2,1,1,1,558,
scooby_state_55b5b85b480b|41|10 534,2,0,1,3,1,1,1,1,1,2,3,5,2,1,558,
scooby_state_55b5b85b480b|51|12 538,1,2,2,0,4,0,2,0,1,0,3,2,1,2,558,
scooby_state_55b5b85b480b|28|10 545,2,2,2,0,0,1,3,0,1,0,0,0,1,0,557,
scooby_state_55b5b85b480b|31|5 545,0,0,0,0,0,1,0,2,4,0,1,1,1,2,557,
scooby_state_55b5b85b480b|29|14 540,2,1,5,0,3,0,1,0,0,0,2,0,2,1,557,
scooby_state_55b5b85b480b|52|3 545,2,0,0,0,1,1,0,0,1,1,5,0,1,0,557,
scooby_state_55b5b85b480b|20|10 545,2,1,2,0,1,1,1,0,1,0,2,0,0,0,556,
scooby_state_55b5b85b480b|45|4 541,2,0,2,0,1,1,3,0,0,2,0,1,1,2,556,
scooby_state_55b5b85b480b|32|11 538,0,1,2,1,2,2,1,0,3,1,0,2,2,1,556,
scooby_state_55b5b85b480b|7|5 542,1,2,2,0,0,1,1,3,0,0,3,0,0,0,555,
scooby_state_55b5b85b480b|37|3 541,0,1,1,3,2,2,0,0,0,0,1,0,2,2,555,
scooby_state_55b5b85b480b|21|7 543,1,0,1,0,1,0,1,0,1,0,0,1,3,3,555,
scooby_state_55b5b85b480b|33|10 541,0,1,2,1,3,1,0,0,1,0,0,1,1,3,555,
scooby_state_55b5b85b480b|50|4 541,0,0,1,1,2,0,1,1,1,1,3,1,2,0,555,
scooby_state_55b5b85b480b|33|11 541,1,0,1,1,0,2,2,1,1,0,0,2,2,1,555,
scooby_state_55b5b85b480b|63|10 541,2,3,0,2,1,2,0,1,1,1,0,0,0,1,555,
scooby_state_55b5b85b480b|36|1 545,1,2,1,0,3,0,0,0,0,2,1,0,0,0,555,
scooby_state_55b5b85b480b|28|8 542,1,1,0,0,0,1,1,0,1,1,0,2,2,2,554,
scooby_state_55b5b85b480b|25|7 546,1,0,0,2,0,1,1,0,0,0,0,2,0,1,554,
scooby_state_55b5b85b480b|41|12 542,1,0,0,0,0,0,1,1,2,1,2,1,1,2,554,
scooby_state_55b5b85b480b|56|9 543,0,2,1,0,0,4,2,0,0,0,1,0,1,0,554,
scooby_state_55b5b85b480b|61|6 544,1,0,0,1,0,2,0,0,0,2,0,2,1,1,554,
scooby_state_55b5b85b480b|58|1 536,0,4,3,1,3,0,2,1,0,1,1,1,0,1,554,
scooby_state_55b5b85b480b|51|6 539,2,4,0,0,2,0,1,1,0,0,2,0,0,3,554,
scooby_state_55b5b85b480b|29|17 538,0,0,1,1,1,1,1,0,1,1,2,3,0,3,553,
scooby_state_55b5b85b480b|51|10 530,2,0,1,1,3,4,0,1,1,1,0,2,4,3,553,
scooby_state_55b5b85b480b|43|10 534,1,1,2,0,1,3,2,0,2,1,1,1,0,4,553,
scooby_state_55b5b85b480b|54|10 536,0,0,1,0,3,2,1,0,1,0,1,2,0,5,552,
scooby_state_55b5b85b480b|42|9 544,0,0,0,1,0,1,1,1,0,1,0,1,1,1,552,
scooby_state_55b5b85b480b|12|5 536,0,3,1,1,2,0,0,1,1,3,0,2,0,2,552,
scooby_state_55b5b85b480b|57|6 541,0,0,0,0,0,2,0,2,0,0,1,0,2,4,552,
scooby_state_55b5b85b480b|29|8 544,1,1,1,0,0,1,0,0,0,1,0,1,1,1,552,
scooby_state_55b5b85b480b|38|14 539,0,4,1,4,1,2,0,0,0,0,0,0,0,0,551,
scooby_state_55b5b85b47d9|9|0 550,0,0,0,0,0,0,0,0,0,0,1,0,0,0,551,
scooby_state_55b5b85b480b|27|11 545,1,0,0,1,2,0,0,0,0,0,0,0,2,0,551,
scooby_state_55b5b85b480b|1|-43 527,1,1,3,0,0,0,1,2,5,0,4,2,1,3,550,
scooby_state_55b5b85b480b|1|-56 521,1,4,1,1,4,3,1,6,0,2,2,1,0,3,550,
scooby_state_55b5b85b480b|43|5 536,1,2,1,2,2,0,0,0,0,0,2,1,0,2,549,
scooby_state_55b5b85b480b|33|8 537,0,0,1,1,0,2,1,0,1,1,1,2,2,0,549,
scooby_state_55b5b85b480b|48|9 540,1,0,2,1,0,0,0,2,0,1,1,0,1,0,549,
scooby_state_55b5b85b480b|0|-56 516,1,6,1,3,4,1,0,1,0,3,4,0,3,5,548,
scooby_state_55b5b85b480b|10|9 539,1,0,1,1,0,2,2,1,0,1,0,0,0,0,548,
scooby_state_55b5b85b480b|8|2 536,0,3,0,0,1,1,1,1,2,0,2,1,0,0,548,
scooby_state_55b5b85b480b|18|14 539,0,1,1,2,0,1,2,0,0,0,2,0,0,0,548,
scooby_state_55b5b85b480b|43|6 537,1,2,0,1,2,0,0,0,0,0,1,1,0,3,548,
scooby_state_55b5b85b480b|28|3 534,1,1,0,1,1,0,1,0,1,1,3,0,2,1,547,
scooby_state_55b5b85b480b|1|-55 487,5,6,3,3,3,5,3,4,3,8,4,4,2,7,547,
scooby_state_55b5b85b480b|23|12 542,0,0,1,1,1,0,0,0,0,0,0,2,0,0,547,
scooby_state_55b5b85b480b|51|13 532,2,1,1,3,2,1,2,0,0,0,0,2,0,1,547,
scooby_state_55b5b85b480b|46|4 537,0,2,0,1,1,1,0,1,0,1,0,0,1,2,547,
scooby_state_55b5b85b480b|1|-59 451,5,7,6,9,10,5,8,7,4,8,5,7,7,8,547,
scooby_state_55b5b85b480b|57|4 543,0,2,0,0,0,1,0,1,0,0,0,0,0,0,547,
scooby_state_55b5b85b480b|22|9 537,0,0,0,2,0,2,0,1,0,0,0,1,1,3,547,
scooby_state_55b5b85b480b|16|8 533,1,2,1,0,1,0,1,1,1,3,0,1,1,1,547,
scooby_state_55b5b85b480b|27|23 524,3,3,0,0,3,0,2,1,1,0,4,1,2,2,546,
scooby_state_55b5b85b480b|28|6 537,1,1,1,0,0,0,2,1,2,0,0,1,0,0,546,
scooby_state_55b5b85b47d9|56|3 542,1,0,0,0,0,0,1,0,0,0,1,0,0,1,546,
scooby_state_55b5b85b480b|17|8 532,3,3,1,1,1,1,1,0,0,0,1,1,0,1,546,
scooby_state_55b5b85b480b|62|11 517,2,3,0,1,2,1,1,2,1,1,1,1,6,6,545,
scooby_state_55b5b85b480b|37|9 540,0,0,0,0,1,0,0,2,0,0,1,0,0,1,545,
scooby_state_55b5b85b480b|16|6 535,2,1,0,2,1,0,0,0,1,0,3,0,0,0,545,
scooby_state_55b5b85b480b|55|3 536,0,0,1,0,0,2,1,0,0,0,1,1,2,1,545,
scooby_state_55b5b85b480b|61|3 536,1,0,1,0,1,1,1,0,0,0,0,0,3,1,545,
scooby_state_55b5b85b480b|29|4 535,1,1,1,0,1,0,0,0,0,2,1,2,0,1,545,
scooby_state_55b5b85b480b|63|9 537,0,0,1,0,3,2,0,0,0,0,0,1,0,0,544,
scooby_state_55b5b85b480b|48|2 536,0,2,0,0,0,1,2,0,1,1,0,0,1,0,544,
scooby_state_55b5b85b480b|45|2 538,0,3,0,0,1,0,0,0,1,0,1,0,0,0,544,
scooby_state_55b5b85b480b|45|12 534,2,0,0,1,1,0,1,0,1,0,2,0,1,1,544,
scooby_state_55b5b85b480b|60|2 529,0,7,1,0,2,0,0,0,0,0,1,1,1,2,544,
scooby_state_55b5b85b480b|32|8 533,0,1,1,0,1,0,0,1,0,1,2,0,2,2,544,
scooby_state_55b5b85b480b|49|6 534,1,1,0,0,0,2,2,0,0,0,4,0,0,0,544,
scooby_state_55b5b85b480b|22|11 522,2,1,1,1,3,3,0,2,5,1,1,0,2,0,544,
scooby_state_55b5b85b47d9|61|3 540,0,0,0,1,0,0,1,0,0,0,0,0,1,1,544,
scooby_state_55b5b85b480b|51|18 532,1,3,1,3,0,1,0,0,0,0,1,1,0,1,544,
scooby_state_55b5b85b480b|23|5 531,1,3,0,1,1,0,0,3,0,0,1,2,0,1,544,
scooby_state_55b5b85b480b|63|11 528,2,0,2,2,0,1,0,1,1,0,2,1,0,3,543,
scooby_state_55b5b85b480b|30|6 530,2,3,0,1,1,0,1,0,1,0,2,0,1,1,543,
scooby_state_55b5b85b480b|17|3 535,1,0,0,1,0,2,0,0,1,0,0,1,0,2,543,
scooby_state_55b5b85b480b|47|1 528,1,0,1,1,5,0,1,0,0,1,1,2,1,1,543,
scooby_state_55b5b85b480b|28|5 527,1,0,0,0,5,1,1,1,1,1,1,2,1,1,543,
scooby_state_55b5b85b480b|27|16 518,1,2,2,4,2,1,1,0,0,1,3,3,2,3,543,
scooby_state_55b5b85b480b|62|4 526,0,2,1,4,0,2,1,1,0,1,0,3,1,1,543,
scooby_state_55b5b85b480b|52|14 532,0,2,3,3,0,0,0,1,0,0,0,0,1,0,542,
scooby_state_55b5b85b480b|41|6 521,2,4,2,2,1,3,0,1,1,3,0,0,0,2,542,
scooby_state_55b5b85b480b|4|-34 514,1,2,5,4,1,2,1,1,1,5,1,2,0,2,542,
scooby_state_55b5b85b480b|21|20 525,3,1,2,5,0,0,0,0,2,0,0,0,1,2,541,
scooby_state_55b5b85b480b|58|6 524,1,1,1,0,0,2,2,1,1,2,3,1,1,1,541,
scooby_state_55b5b85b480b|16|15 523,4,1,1,0,0,1,0,2,1,2,2,2,1,1,541,
scooby_state_55b5b85b480b|58|13 531,0,1,0,1,1,0,0,1,1,1,1,2,0,1,541,
scooby_state_55b5b85b480b|62|10 528,0,3,1,1,0,1,0,0,1,0,2,0,3,1,541,
scooby_state_55b5b85b480b|12|6 525,4,2,0,0,0,3,0,0,0,1,3,2,0,1,541,
scooby_state_55b5b85b480b|44|16 520,3,3,1,0,1,3,1,1,0,0,2,2,2,2,541,
scooby_state_55b5b85b480b|21|2 530,0,5,0,1,1,1,0,0,1,0,1,1,0,0,541,
scooby_state_55b5b85b480b|21|17 528,3,0,0,1,0,0,0,0,1,0,1,2,2,3,541,
scooby_state_55b5b85b480b|27|15 523,0,2,1,0,2,3,0,0,2,3,1,2,2,0,541,
scooby_state_55b5b85b480b|19|8 522,4,2,1,0,1,2,1,3,0,0,1,1,0,2,540,
scooby_state_55b5b85b480b|1|-61 463,7,3,2,6,9,9,4,7,9,4,2,4,3,8,540,
scooby_state_55b5b85b480b|22|6 525,1,2,0,1,0,0,1,2,2,1,1,2,0,2,540,
scooby_state_55b5b85b480b|56|11 523,1,2,2,3,2,0,0,1,0,0,3,1,2,0,540,
scooby_state_55b5b85b480b|27|19 526,0,2,4,1,0,1,0,1,0,0,1,1,2,1,540,
scooby_state_55b5b85b480b|49|8 521,0,2,3,2,0,1,3,0,0,3,2,0,1,2,540,
scooby_state_55b5b85b480b|53|1 529,0,0,0,0,0,4,0,0,2,1,1,1,2,0,540,
scooby_state_55b5b85b480b|16|12 527,0,1,0,0,1,2,3,1,0,0,2,1,0,2,540,
scooby_state_55b5b85b480b|63|24 517,1,3,4,1,0,1,2,1,1,2,3,0,3,0,539,
scooby_state_55b5b85b480b|61|22 524,2,2,0,0,0,1,1,0,0,0,1,3,4,1,539,
scooby_state_55b5b85b480b|24|11 524,1,3,1,0,1,3,0,1,0,1,0,3,1,0,539,
scooby_state_55b5b85b480b|30|8 526,0,0,4,0,1,0,1,1,0,1,0,1,3,1,539,
scooby_state_55b5b85b480b|37|1 525,1,0,0,2,2,1,1,1,1,1,1,0,1,2,539,
scooby_state_55b5b85b480b|11|5 523,2,2,0,0,2,0,1,2,1,2,2,1,0,1,539,
scooby_state_55b5b85b480b|24|8 522,0,3,0,2,2,0,2,1,1,0,0,1,2,2,538,
[...]
scooby_state_14f989ea5682|26|1 1,0,0,0,0,0,0,0,0,0,0,0,0,0,0,1,
scooby_state_55b5b85b47d9|42|41 1,0,0,0,0,0,0,0,0,0,0,0,0,0,0,1,
scooby_state_55b5b85b4838|0|-19 0,0,0,0,0,0,0,0,0,0,1,0,0,0,0,1,
scooby_state_55b5b85b4051|59|1 1,0,0,0,0,0,0,0,0,0,0,0,0,0,0,1,
scooby_state_55b5b85b4063|44|9 0,1,0,0,0,0,0,0,0,0,0,0,0,0,0,1,
scooby_state_55b5b85b47d9|58|31 1,0,0,0,0,0,0,0,0,0,0,0,0,0,0,1,
scooby_state_55b5b85b4051|58|1 1,0,0,0,0,0,0,0,0,0,0,0,0,0,0,1,
scooby_state_55b5b85b4063|56|45 1,0,0,0,0,0,0,0,0,0,0,0,0,0,0,1,
scooby_state_55b5b85b4063|4|-20 0,1,0,0,0,0,0,0,0,0,0,0,0,0,0,1,
scooby_state_55b5b85b47d9|63|16 1,0,0,0,0,0,0,0,0,0,0,0,0,0,0,1,
scooby_state_14f989ede504|20|1 1,0,0,0,0,0,0,0,0,0,0,0,0,0,0,1,
scooby_state_55b5b85b25d0|60|-1 1,0,0,0,0,0,0,0,0,0,0,0,0,0,0,1,
scooby_state_55b5b85b480b|20|0 1,0,0,0,0,0,0,0,0,0,0,0,0,0,0,1,
scooby_state_55b5b85b46d7|7|0 1,0,0,0,0,0,0,0,0,0,0,0,0,0,0,1,
scooby_state_55b5b85b46c0|21|1 1,0,0,0,0,0,0,0,0,0,0,0,0,0,0,1,
scooby_state_55b5b85b4063|58|26 0,1,0,0,0,0,0,0,0,0,0,0,0,0,0,1,
scooby_state_55b5b85b47d9|55|42 0,1,0,0,0,0,0,0,0,0,0,0,0,0,0,1,
scooby_state_55b5b85b4063|48|47 0,1,0,0,0,0,0,0,0,0,0,0,0,0,0,1,
scooby_state_14f989ede8e8|16|-3 1,0,0,0,0,0,0,0,0,0,0,0,0,0,0,1,
scooby_state_14f989ed5930|36|0 1,0,0,0,0,0,0,0,0,0,0,0,0,0,0,1,
scooby_state_55b5b85b4063|18|13 1,0,0,0,0,0,0,0,0,0,0,0,0,0,0,1,
scooby_state_55b5b85b4838|10|9 0,0,1,0,0,0,0,0,0,0,0,0,0,0,0,1,
scooby_state_55b5b85b46d7|30|-1 0,0,0,0,0,0,0,1,0,0,0,0,0,0,0,1,
scooby_state_55b5b85b4063|51|39 0,0,1,0,0,0,0,0,0,0,0,0,0,0,0,1,
scooby_state_55b5b85b4063|37|3 0,1,0,0,0,0,0,0,0,0,0,0,0,0,0,1,
scooby_state_14f989edef00|60|1 1,0,0,0,0,0,0,0,0,0,0,0,0,0,0,1,
scooby_state_55b5b85b4063|10|10 0,0,0,1,0,0,0,0,0,0,0,0,0,0,0,1,
scooby_state_55b5b85b46c0|40|1 1,0,0,0,0,0,0,0,0,0,0,0,0,0,0,1,
scooby_state_55b5b85b46d7|12|12 1,0,0,0,0,0,0,0,0,0,0,0,0,0,0,1,
scooby_state_55b5b85b4051|49|1 1,0,0,0,0,0,0,0,0,0,0,0,0,0,0,1,
scooby_state_55b5b85b47d9|39|37 1,0,0,0,0,0,0,0,0,0,0,0,0,0,0,1,
scooby_state_55b5b85b47d9|62|19 1,0,0,0,0,0,0,0,0,0,0,0,0,0,0,1,
scooby_state_55b5b85b4063|56|9 0,0,1,0,0,0,0,0,0,0,0,0,0,0,0,1,
scooby_state_14f989f0567f|52|1 1,0,0,0,0,0,0,0,0,0,0,0,0,0,0,1,
scooby_state_55b5b85b47d9|60|38 1,0,0,0,0,0,0,0,0,0,0,0,0,0,0,1,
scooby_state_14f989ec81d8|7|1 1,0,0,0,0,0,0,0,0,0,0,0,0,0,0,1,
scooby_state_55b5b85b4063|52|30 1,0,0,0,0,0,0,0,0,0,0,0,0,0,0,1,
scooby_state_55b5b85b4063|53|12 0,0,0,1,0,0,0,0,0,0,0,0,0,0,0,1,
scooby_state_55b5b85b480b|59|0 1,0,0,0,0,0,0,0,0,0,0,0,0,0,0,1,
scooby_state_55b5b85b47d9|40|33 1,0,0,0,0,0,0,0,0,0,0,0,0,0,0,1,
scooby_state_55b5b85b47d9|59|33 1,0,0,0,0,0,0,0,0,0,0,0,0,0,0,1,
scooby_state_55b5b85b47d9|49|14 1,0,0,0,0,0,0,0,0,0,0,0,0,0,0,1,
scooby_state_55b5b85b480b|56|0 1,0,0,0,0,0,0,0,0,0,0,0,0,0,0,1,
scooby_state_14f989f0567f|47|1 1,0,0,0,0,0,0,0,0,0,0,0,0,0,0,1,
scooby_state_55b5b85b46d7|26|3 1,0,0,0,0,0,0,0,0,0,0,0,0,0,0,1,
scooby_state_55b5b85b4063|62|47 0,0,0,1,0,0,0,0,0,0,0,0,0,0,0,1,
scooby_state_55b5b85b46d7|41|5 1,0,0,0,0,0,0,0,0,0,0,0,0,0,0,1,
scooby_state_55b5b85b4063|45|41 0,0,1,0,0,0,0,0,0,0,0,0,0,0,0,1,
scooby_state_14f989ee19a6|58|-2 0,1,0,0,0,0,0,0,0,0,0,0,0,0,0,1,
scooby_state_55b5b85b4063|62|53 1,0,0,0,0,0,0,0,0,0,0,0,0,0,0,1,
scooby_state_55b5b85b4063|32|26 1,0,0,0,0,0,0,0,0,0,0,0,0,0,0,1,
scooby_state_55b5b85b4051|2|1 1,0,0,0,0,0,0,0,0,0,0,0,0,0,0,1,
scooby_state_55b5b85b4063|47|4 1,0,0,0,0,0,0,0,0,0,0,0,0,0,0,1,
scooby_state_55b5b85b4063|52|-2 1,0,0,0,0,0,0,0,0,0,0,0,0,0,0,1,
scooby_state_14f989ed8540|21|1 1,0,0,0,0,0,0,0,0,0,0,0,0,0,0,1,
scooby_state_55b5b85b4063|42|1 0,0,0,1,0,0,0,0,0,0,0,0,0,0,0,1,
scooby_state_14f989f0567f|26|1 1,0,0,0,0,0,0,0,0,0,0,0,0,0,0,1,
scooby_state_55b5b85b4063|62|15 0,0,0,1,0,0,0,0,0,0,0,0,0,0,0,1,
scooby_state_14f989ea5f8e|62|2 1,0,0,0,0,0,0,0,0,0,0,0,0,0,0,1,
scooby_state_55b5b85b3fa0|62|0 1,0,0,0,0,0,0,0,0,0,0,0,0,0,0,1,
scooby_state_14f989ea6c02|48|1 1,0,0,0,0,0,0,0,0,0,0,0,0,0,0,1,
scooby_state_55b5b85b46d7|2|-10 1,0,0,0,0,0,0,0,0,0,0,0,0,0,0,1,
scooby_state_14f989f0567f|35|1 1,0,0,0,0,0,0,0,0,0,0,0,0,0,0,1,
scooby_state_14f989edf20e|8|0 1,0,0,0,0,0,0,0,0,0,0,0,0,0,0,1,
scooby_state_55b5b85b46d7|38|3 1,0,0,0,0,0,0,0,0,0,0,0,0,0,0,1,
scooby_state_55b5b85b47d9|52|44 1,0,0,0,0,0,0,0,0,0,0,0,0,0,0,1,
scooby_state_14f989f0567f|21|1 1,0,0,0,0,0,0,0,0,0,0,0,0,0,0,1,
scooby_state_55b5b85b4063|35|13 0,1,0,0,0,0,0,0,0,0,0,0,0,0,0,1,
scooby_state_14f989f0562f|24|0 1,0,0,0,0,0,0,0,0,0,0,0,0,0,0,1,
scooby_state_55b5b85b4063|43|37 0,0,1,0,0,0,0,0,0,0,0,0,0,0,0,1,
scooby_state_55b5b85b46c0|6|1 0,0,1,0,0,0,0,0,0,0,0,0,0,0,0,1,
scooby_state_14f989ee1076|59|3 1,0,0,0,0,0,0,0,0,0,0,0,0,0,0,1,
scooby_state_55b5b85b4063|56|35 0,0,1,0,0,0,0,0,0,0,0,0,0,0,0,1,
scooby_state_55b5b85b4063|57|12 0,0,0,1,0,0,0,0,0,0,0,0,0,0,0,1,
scooby_state_55b5b85b4063|55|5 0,0,0,1,0,0,0,0,0,0,0,0,0,0,0,1,
scooby_state_55b5b85b47d9|49|38 0,0,0,0,0,0,0,0,0,0,0,0,0,1,0,1,
scooby_state_55b5b85b46d7|41|3 1,0,0,0,0,0,0,0,0,0,0,0,0,0,0,1,
scooby_state_55b5b85b47d9|30|22 1,0,0,0,0,0,0,0,0,0,0,0,0,0,0,1,
scooby_state_55b5b85b4063|38|22 0,0,0,1,0,0,0,0,0,0,0,0,0,0,0,1,
scooby_state_55b5b85b4051|53|1 1,0,0,0,0,0,0,0,0,0,0,0,0,0,0,1,
scooby_state_14f989f0567f|42|1 1,0,0,0,0,0,0,0,0,0,0,0,0,0,0,1,
scooby_state_55b5b85b46d7|34|6 1,0,0,0,0,0,0,0,0,0,0,0,0,0,0,1,
scooby_state_55b5b85b47d9|54|41 0,0,0,0,0,0,0,0,0,0,0,0,1,0,0,1,
scooby_state_55b5b85b480b|46|0 1,0,0,0,0,0,0,0,0,0,0,0,0,0,0,1,
scooby_state_55b5b85b47d9|31|21 0,0,1,0,0,0,0,0,0,0,0,0,0,0,0,1,
scooby_state_55b5b85b4063|27|20 0,1,0,0,0,0,0,0,0,0,0,0,0,0,0,1,
scooby_state_14f989f0567f|54|2 0,0,1,0,0,0,0,0,0,0,0,0,0,0,0,1,
scooby_state_55b5b85b4063|38|32 0,0,0,1,0,0,0,0,0,0,0,0,0,0,0,1,
scooby_state_55b5b85b4063|61|50 0,1,0,0,0,0,0,0,0,0,0,0,0,0,0,1,
scooby_state_55b5b85b4063|6|3 0,1,0,0,0,0,0,0,0,0,0,0,0,0,0,1,
scooby_state_55b5b85b46d7|1|-11 1,0,0,0,0,0,0,0,0,0,0,0,0,0,0,1,
scooby_state_55b5b85b4063|14|14 0,0,0,0,1,0,0,0,0,0,0,0,0,0,0,1,
scooby_state_14f989ea6d24|52|52 1,0,0,0,0,0,0,0,0,0,0,0,0,0,0,1,
scooby_state_55b5b85b4051|32|1 1,0,0,0,0,0,0,0,0,0,0,0,0,0,0,1,
scooby_state_55b5b85b4063|28|28 0,0,1,0,0,0,0,0,0,0,0,0,0,0,0,1,
scooby_state_55b5b85b47d9|44|40 1,0,0,0,0,0,0,0,0,0,0,0,0,0,0,1,
scooby_state_55b5b85b4838|48|42 0,0,1,0,0,0,0,0,0,0,0,0,0,0,0,1,
scooby_state_55b5b85b4063|58|33 1,0,0,0,0,0,0,0,0,0,0,0,0,0,0,1,
scooby_state_55b5b85b46d7|40|2 0,0,0,0,0,0,0,1,0,0,0,0,0,0,0,1,
scooby_state_55b5b85b4063|51|35 1,0,0,0,0,0,0,0,0,0,0,0,0,0,0,1,
scooby_state_55b5b85b4063|54|22 0,1,0,0,0,0,0,0,0,0,0,0,0,0,0,1,
scooby_state_55b5b85b4063|52|4 1,0,0,0,0,0,0,0,0,0,0,0,0,0,0,1,
scooby_state_55b5b85b4063|37|28 1,0,0,0,0,0,0,0,0,0,0,0,0,0,0,1,
scooby_state_55b5b85b46d7|1|-2 1,0,0,0,0,0,0,0,0,0,0,0,0,0,0,1,
scooby_state_55b5b85b4063|5|1 1,0,0,0,0,0,0,0,0,0,0,0,0,0,0,1,
scooby_state_55b5b85b4063|54|5 0,0,0,0,1,0,0,0,0,0,0,0,0,0,0,1,
scooby_state_55b5b85b4063|26|11 1,0,0,0,0,0,0,0,0,0,0,0,0,0,0,1,
scooby_state_55b5b85b4838|44|39 0,0,1,0,0,0,0,0,0,0,0,0,0,0,0,1,
scooby_state_55b5b85b4051|28|1 1,0,0,0,0,0,0,0,0,0,0,0,0,0,0,1,
scooby_state_55b5b85b4063|53|5 0,0,0,1,0,0,0,0,0,0,0,0,0,0,0,1,
scooby_state_14f989ed7370|13|1 1,0,0,0,0,0,0,0,0,0,0,0,0,0,0,1,
scooby_state_55b5b85b4063|35|32 0,1,0,0,0,0,0,0,0,0,0,0,0,0,0,1,
scooby_state_55b5b85b47d9|57|31 1,0,0,0,0,0,0,0,0,0,0,0,0,0,0,1,
scooby_state_55b5b85b46c0|2|1 0,0,1,0,0,0,0,0,0,0,0,0,0,0,0,1,
scooby_state_14f989ede603|24|-29 1,0,0,0,0,0,0,0,0,0,0,0,0,0,0,1,
scooby_state_14f989ede323|37|2 1,0,0,0,0,0,0,0,0,0,0,0,0,0,0,1,
scooby_state_55b5b85b4063|48|34 0,0,1,0,0,0,0,0,0,0,0,0,0,0,0,1,
scooby_state_14f989ea56c4|27|1 1,0,0,0,0,0,0,0,0,0,0,0,0,0,0,1,
scooby_state_55b5b85b46d7|0|-5 1,0,0,0,0,0,0,0,0,0,0,0,0,0,0,1,
scooby_state_55b5b85b47d9|27|20 0,0,0,0,0,0,0,0,0,0,0,0,0,1,0,1,
scooby_state_55b5b85b46d7|1|-7 0,0,0,0,0,0,1,0,0,0,0,0,0,0,0,1,
scooby_state_55b5b85b4063|23|-19 0,0,0,1,0,0,0,0,0,0,0,0,0,0,0,1,
scooby_state_55b5b85b47d9|50|42 1,0,0,0,0,0,0,0,0,0,0,0,0,0,0,1,
scooby_state_55b5b85b4063|48|2 0,0,1,0,0,0,0,0,0,0,0,0,0,0,0,1,
scooby_state_55b5b85b47d9|48|43 0,0,0,0,1,0,0,0,0,0,0,0,0,0,0,1,
scooby_state_55b5b85b4051|21|1 1,0,0,0,0,0,0,0,0,0,0,0,0,0,0,1,
scooby_state_55b5b85b46c0|3|1 0,0,1,0,0,0,0,0,0,0,0,0,0,0,0,1,
scooby_state_55b5b85b4063|58|8 0,1,0,0,0,0,0,0,0,0,0,0,0,0,0,1,
scooby_state_55b5b85b4051|52|1 1,0,0,0,0,0,0,0,0,0,0,0,0,0,0,1,
scooby_state_55b5b85b4063|61|11 1,0,0,0,0,0,0,0,0,0,0,0,0,0,0,1,
scooby_state_55b5b85b47d9|23|16 1,0,0,0,0,0,0,0,0,0,0,0,0,0,0,1,
scooby_state_55b5b85b4063|26|24 1,0,0,0,0,0,0,0,0,0,0,0,0,0,0,1,
scooby_state_55b5b85b4063|17|11 0,0,1,0,0,0,0,0,0,0,0,0,0,0,0,1,
scooby_state_14f989edeb40|45|21 1,0,0,0,0,0,0,0,0,0,0,0,0,0,0,1,
scooby_state_55b5b85b46d7|16|5 0,0,0,0,0,0,0,1,0,0,0,0,0,0,0,1,
scooby_state_55b5b85b46d7|4|3 1,0,0,0,0,0,0,0,0,0,0,0,0,0,0,1,
scooby_state_55b5b85b4063|34|27 1,0,0,0,0,0,0,0,0,0,0,0,0,0,0,1,
scooby_state_55b5b85b46c0|61|1 0,0,1,0,0,0,0,0,0,0,0,0,0,0,0,1,
scooby_state_55b5b85b47d9|39|21 0,0,1,0,0,0,0,0,0,0,0,0,0,0,0,1,
scooby_state_14f989ea2840|33|2 1,0,0,0,0,0,0,0,0,0,0,0,0,0,0,1,
scooby_state_14f989ee1978|35|-1 1,0,0,0,0,0,0,0,0,0,0,0,0,0,0,1,
scooby_state_14f989f0567f|31|1 1,0,0,0,0,0,0,0,0,0,0,0,0,0,0,1,
scooby_state_55b5b85b4838|50|48 0,0,1,0,0,0,0,0,0,0,0,0,0,0,0,1,
scooby_state_14f989ea27c0|31|1 1,0,0,0,0,0,0,0,0,0,0,0,0,0,0,1,
scooby_state_55b5b85b4063|19|16 1,0,0,0,0,0,0,0,0,0,0,0,0,0,0,1,
scooby_state_55b5b85b4063|37|11 1,0,0,0,0,0,0,0,0,0,0,0,0,0,0,1,
scooby_state_14f989f7c230|60|0 1,0,0,0,0,0,0,0,0,0,0,0,0,0,0,1,
scooby_state_14f989ea5643|25|1 1,0,0,0,0,0,0,0,0,0,0,0,0,0,0,1,
scooby_state_55b5b85b4063|61|16 0,1,0,0,0,0,0,0,0,0,0,0,0,0,0,1,
scooby_state_55b5b85b4063|53|6 1,0,0,0,0,0,0,0,0,0,0,0,0,0,0,1,
scooby_state_14f989efb143|5|1 1,0,0,0,0,0,0,0,0,0,0,0,0,0,0,1,
scooby_state_14f989f05908|36|2 1,0,0,0,0,0,0,0,0,0,0,0,0,0,0,1,
scooby_state_55b5b85bbcc1|51|1 1,0,0,0,0,0,0,0,0,0,0,0,0,0,0,1,
scooby_state_55b5b85b4838|21|19 0,0,1,0,0,0,0,0,0,0,0,0,0,0,0,1,
scooby_state_55b5b85b4063|35|27 0,0,1,0,0,0,0,0,0,0,0,0,0,0,0,1,
scooby_state_55b5b85b4838|20|19 0,0,1,0,0,0,0,0,0,0,0,0,0,0,0,1,
scooby_state_55b5b85b47d9|19|19 0,0,0,0,0,1,0,0,0,0,0,0,0,0,0,1,
scooby_state_14f989ee2310|12|11 1,0,0,0,0,0,0,0,0,0,0,0,0,0,0,1,
scooby_state_55b5b85b456f|41|7 1,0,0,0,0,0,0,0,0,0,0,0,0,0,0,1,
scooby_state_55b5b85b4051|56|1 1,0,0,0,0,0,0,0,0,0,0,0,0,0,0,1,
scooby_state_55b5b85b4063|18|1 0,0,0,0,1,0,0,0,0,0,0,0,0,0,0,1,
scooby_state_55b5b85b4063|54|19 1,0,0,0,0,0,0,0,0,0,0,0,0,0,0,1,
scooby_state_14f989ee231c|10|-1 0,1,0,0,0,0,0,0,0,0,0,0,0,0,0,1,
scooby_state_55b5b85b2d13|40|32 1,0,0,0,0,0,0,0,0,0,0,0,0,0,0,1,
scooby_state_55b5b85b4051|63|1 1,0,0,0,0,0,0,0,0,0,0,0,0,0,0,1,
scooby_state_55b5b85b25d0|23|-29 1,0,0,0,0,0,0,0,0,0,0,0,0,0,0,1,
scooby_state_55b5b85b4838|13|9 0,0,1,0,0,0,0,0,0,0,0,0,0,0,0,1,
scooby_state_55b5b85b4063|59|9 0,1,0,0,0,0,0,0,0,0,0,0,0,0,0,1,
scooby_state_14f989f0597f|34|-7 0,1,0,0,0,0,0,0,0,0,0,0,0,0,0,1,
scooby_state_14f989ed59b8|38|1 1,0,0,0,0,0,0,0,0,0,0,0,0,0,0,1,
scooby_state_55b5b85b2e73|17|0 1,0,0,0,0,0,0,0,0,0,0,0,0,0,0,1,
scooby_state_14f989ee1aa0|42|-13 1,0,0,0,0,0,0,0,0,0,0,0,0,0,0,1,
scooby_state_14f989f0567f|12|1 1,0,0,0,0,0,0,0,0,0,0,0,0,0,0,1,
scooby_state_55b5b85b4063|42|37 1,0,0,0,0,0,0,0,0,0,0,0,0,0,0,1,
scooby_state_55b5b85b4063|55|24 1,0,0,0,0,0,0,0,0,0,0,0,0,0,0,1,
scooby_state_55b5b85b4063|52|49 1,0,0,0,0,0,0,0,0,0,0,0,0,0,0,1,
scooby_state_7ffea19e3e3d|56|2 1,0,0,0,0,0,0,0,0,0,0,0,0,0,0,1,
scooby_state_14f989edef73|61|35 1,0,0,0,0,0,0,0,0,0,0,0,0,0,0,1,
scooby_state_55b5b85b47d9|54|34 1,0,0,0,0,0,0,0,0,0,0,0,0,0,0,1,
scooby_state_7ffea19e3dc3|55|17 1,0,0,0,0,0,0,0,0,0,0,0,0,0,0,1,
scooby_state_55b5b85b4063|40|20 0,0,1,0,0,0,0,0,0,0,0,0,0,0,0,1,
scooby_state_55b5b85b4063|32|6 1,0,0,0,0,0,0,0,0,0,0,0,0,0,0,1,
scooby_state_55b5b85b4838|32|25 0,0,1,0,0,0,0,0,0,0,0,0,0,0,0,1,
scooby_state_55b5b85b4063|32|32 0,0,1,0,0,0,0,0,0,0,0,0,0,0,0,1,
scooby_state_14f989ede8e8|13|-5 1,0,0,0,0,0,0,0,0,0,0,0,0,0,0,1,
scooby_state_55b5b85b4063|44|2 1,0,0,0,0,0,0,0,0,0,0,0,0,0,0,1,
scooby_state_55b5b85b4838|30|27 0,0,1,0,0,0,0,0,0,0,0,0,0,0,0,1,
scooby_state_14f98a87a6d0|27|-25 1,0,0,0,0,0,0,0,0,0,0,0,0,0,0,1,
scooby_state_55b5b85b4063|57|18 0,1,0,0,0,0,0,0,0,0,0,0,0,0,0,1,
scooby_state_14f989ea54e8|19|1 1,0,0,0,0,0,0,0,0,0,0,0,0,0,0,1,
scooby_state_55b5b85b46d7|59|3 0,0,0,0,0,0,0,1,0,0,0,0,0,0,0,1,
scooby_state_14f98a87ab30|44|17 1,0,0,0,0,0,0,0,0,0,0,0,0,0,0,1,
scooby_state_55b5b85b4838|25|20 0,0,1,0,0,0,0,0,0,0,0,0,0,0,0,1,
scooby_state_55b5b85b4063|4|2 0,0,1,0,0,0,0,0,0,0,0,0,0,0,0,1,
scooby_state_55b5b85b46d7|25|4 1,0,0,0,0,0,0,0,0,0,0,0,0,0,0,1,
scooby_state_55b5b85b47d9|62|38 1,0,0,0,0,0,0,0,0,0,0,0,0,0,0,1,

scooby_action_0_deg_dist 0,10097,0,0,0,0,0,0,0,0,0,0,0,0,0,0,
scooby_action_4_deg_dist 0,21043,4113,0,10147,0,79562,0,0,0,0,0,0,0,0,0,
scooby_action_32_deg_dist 0,5511,15,0,6,0,0,0,0,0,0,0,0,0,0,0,
scooby_action_3_deg_dist 0,8951,194,0,212,0,60,0,0,0,0,0,0,0,0,0,
scooby_action_5_deg_dist 0,7399,50,0,51,0,3,0,0,0,0,0,0,0,0,0,
scooby_action_1_deg_dist 0,1838273,233649,0,140435,0,498379,0,0,0,0,0,0,0,0,0,
scooby_action_30_deg_dist 0,5558,2,0,5,0,8,0,0,0,0,0,0,0,0,0,
scooby_action_-3_deg_dist 0,7481,16,0,15,0,3,0,0,0,0,0,0,0,0,0,
scooby_action_10_deg_dist 0,7080,26,0,13,0,0,0,0,0,0,0,0,0,0,0,
scooby_action_-1_deg_dist 0,7789,20,0,14,0,0,0,0,0,0,0,0,0,0,0,
scooby_action_23_deg_dist 0,5931,9,0,0,0,0,0,0,0,0,0,0,0,0,0,
scooby_action_-6_deg_dist 0,6687,650,0,3,0,0,0,0,0,0,0,0,0,0,0,
scooby_action_11_deg_dist 0,6709,265,0,23,0,7,0,0,0,0,0,0,0,0,0,
scooby_action_22_deg_dist 0,5948,38,0,84,0,126,0,0,0,0,0,0,0,0,0,
scooby_action_12_deg_dist 0,6830,29,0,27,0,20,0,0,0,0,0,0,0,0,0,

scooby_track_called 2919566
scooby_track_same_address 29642
scooby_track_evict 2889668

scooby_reward_demand_called 2919566
scooby_reward_demand_pt_not_found 2033261
scooby_reward_demand_pt_found 886305
scooby_reward_demand_pt_found_total 886305
scooby_reward_demand_has_reward 177
scooby_reward_train_called 1935977
scooby_reward_assign_reward_called 2889770
scooby_reward_no_pref 10097
scooby_reward_incorrect 1925880
scooby_reward_correct_untimely 751279
scooby_reward_correct_timely 134849
scooby_reward_out_of_bounds 67665
scooby_reward_tracker_hit 0

scooby_reward_none_low_bw 10097
scooby_reward_none_high_bw 0
scooby_reward_incorrect_low_bw 1925880
scooby_reward_incorrect_high_bw 0
scooby_reward_correct_untimely_low_bw 751279
scooby_reward_correct_untimely_high_bw 0
scooby_reward_correct_timely_low_bw 134849
scooby_reward_correct_timely_high_bw 0
scooby_reward_out_of_bounds_low_bw 67665
scooby_reward_out_of_bounds_high_bw 0
scooby_reward_tracker_hit_low_bw 0
scooby_reward_tracker_hit_high_bw 0

scooby_reward_1 0,1861224,663283,119632,46686,0,
scooby_reward_3 0,6641,964,608,487,0,
scooby_reward_4 0,10491,80825,13930,7140,0,
scooby_reward_5 0,5432,706,107,636,0,
scooby_reward_10 0,4760,647,115,1091,0,
scooby_reward_11 0,4575,627,111,1157,0,
scooby_reward_12 0,4533,616,97,1179,0,
scooby_reward_22 0,3375,479,84,1845,0,
scooby_reward_23 0,3166,421,35,1830,0,
scooby_reward_30 0,2622,361,47,2139,0,
scooby_reward_32 0,2382,305,45,2265,0,
scooby_reward_-1 0,6078,767,15,161,0,
scooby_reward_-3 0,5565,689,12,408,0,
scooby_reward_-6 0,5036,589,11,641,0,
scooby_reward_0 10097,0,0,0,0,0,

scooby_train_called 2889667
scooby_train_compute_reward 1935977

scooby_register_fill_called 1135315
scooby_register_fill_set 250053
scooby_register_fill_set_total 250053

scooby_register_prefetch_hit_called 4693957
scooby_register_prefetch_hit_set 2599268
scooby_register_prefetch_hit_set_total 2599268

scooby_pref_issue_scooby 5997297

learning_engine_featurewise.action.called 2919566
learning_engine_featurewise.action.explore 5312
learning_engine_featurewise.action.exploit 2914254
learning_engine_featurewise.action.fallback 2082215
learning_engine_featurewise.action.dyn_fallback_saved_bw 0
learning_engine_featurewise.action.dyn_fallback_saved_bw_acc 3738
learning_engine_featurewise.action.index_1_explored 344
learning_engine_featurewise.action.index_1_exploited 2710392
learning_engine_featurewise.action.index_3_explored 377
learning_engine_featurewise.action.index_3_exploited 9040
learning_engine_featurewise.action.index_4_explored 372
learning_engine_featurewise.action.index_4_exploited 114493
learning_engine_featurewise.action.index_5_explored 324
learning_engine_featurewise.action.index_5_exploited 7179
learning_engine_featurewise.action.index_10_explored 395
learning_engine_featurewise.action.index_10_exploited 6724
learning_engine_featurewise.action.index_11_explored 364
learning_engine_featurewise.action.index_11_exploited 6640
learning_engine_featurewise.action.index_12_explored 358
learning_engine_featurewise.action.index_12_exploited 6548
learning_engine_featurewise.action.index_22_explored 353
learning_engine_featurewise.action.index_22_exploited 5843
learning_engine_featurewise.action.index_23_explored 358
learning_engine_featurewise.action.index_23_exploited 5582
learning_engine_featurewise.action.index_30_explored 349
learning_engine_featurewise.action.index_30_exploited 5224
learning_engine_featurewise.action.index_32_explored 310
learning_engine_featurewise.action.index_32_exploited 5222
learning_engine_featurewise.action.index_-1_explored 358
learning_engine_featurewise.action.index_-1_exploited 7465
learning_engine_featurewise.action.index_-3_explored 355
learning_engine_featurewise.action.index_-3_exploited 7160
learning_engine_featurewise.action.index_-6_explored 334
learning_engine_featurewise.action.index_-6_exploited 7006
learning_engine_featurewise.action.index_0_explored 361
learning_engine_featurewise.action.index_0_exploited 9736
learning_engine_featurewise.learn.called 2889667
learning_engine_featurewise.learn.su_skip_PC 0
learning_engine_featurewise.learn.su_skip_PC_Delta 0

learning_engine_featurewise.q_value_histogram.bucket_0 150
learning_engine_featurewise.q_value_histogram.bucket_1 2031
learning_engine_featurewise.q_value_histogram.bucket_2 2211878
learning_engine_featurewise.q_value_histogram.bucket_3 61102
learning_engine_featurewise.q_value_histogram.bucket_4 21458
learning_engine_featurewise.q_value_histogram.bucket_5 227792
learning_engine_featurewise.q_value_histogram.bucket_6 389843
learning_engine_featurewise.q_value_histogram.bucket_7 0

learning_engine_featurewise.consensus.total 2914254
learning_engine_featurewise.consensus.feature_align_PC 2803089
learning_engine_featurewise.consensus.feature_align_PC_ratio 0.96
learning_engine_featurewise.consensus.feature_align_PC_Delta 2887069
learning_engine_featurewise.consensus.feature_align_PC_Delta_ratio 0.99
learning_engine_featurewise.consensus.feature_align_all 2778027
learning_engine_featurewise.consensus.feature_align_all_ratio 0.95

learning_engine_featurewise.feature_PC_min_weight 1000000.00000000
learning_engine_featurewise.feature_PC_max_weight 0.00000000
learning_engine_featurewise.feature_PC_Delta_min_weight 1000000.00000000
learning_engine_featurewise.feature_PC_Delta_max_weight 0.00000000
unique_pcs 297
unique_pages 27074
unique_trigger_pcs 88
total_bitmaps_seen 0
unique_bitmaps_seen 0

scooby_bw_epochs 641780
scooby_bw_level_0 511294
scooby_bw_level_1 121532
scooby_bw_level_2 8744
scooby_bw_level_3 210

scooby_ipc_epochs 0
scooby_ipc_level_0 0
scooby_ipc_level_1 0
scooby_ipc_level_2 0
scooby_ipc_level_3 0

scooby_cache_acc_epochs 156950
scooby_cache_acc_level_0 305
scooby_cache_acc_level_1 74
scooby_cache_acc_level_2 812
scooby_cache_acc_level_3 5972
scooby_cache_acc_level_4 17473
scooby_cache_acc_level_5 26814
scooby_cache_acc_level_6 26801
scooby_cache_acc_level_7 21534
scooby_cache_acc_level_8 14882
scooby_cache_acc_level_9 42283

Channel_0_RQ_row_buffer_hit 593442
Channel_0_RQ_row_buffer_miss 506651
Channel_0_WQ_row_buffer_hit 25929
Channel_0_WQ_row_buffer_miss 70542
Channel_0_WQ_full 0
Channel_0_dbus_congested 463215

avg_congested_cycle 9

DRAM_bw_pochs 641780
DRAM_bw_level_0 511294
DRAM_bw_level_1 121532
DRAM_bw_level_2 8744
DRAM_bw_level_3 210
