*************************************************
   ChampSim Multicore Out-of-Order Simulator
   Last compiled: Apr  3 2025 20:54:34
*************************************************
parsing config file: /home/zir/Pythia/config/pythia.ini
unable to parse section: , name: , value: 

trace_0 /home/zir/ChampSim/ML-DPC/ChampSimTraces/gap/bfs-14.trace.gz
adding L2C_PREFETCHER: Scooby
Initialize SHIP state
warmup_instructions 10000000
simulation_instructions 50000000
champsim_seed 101
measure_ipc 0
measure_ipc_epoch 1000
measure_dram_bw 1
measure_dram_bw_epoch 256
measure_cache_acc 1
measure_cache_acc_epoch 1024
l1d_perfect 0
l2c_perfect 0
llc_perfect 0
l1d_semi_perfect 0
l2c_semi_perfect 0
llc_semi_perfect 0
semi_perfect_cache_page_buffer_size 64

num_cpus 1
cpu_freq 4000
dram_io_freq 2400
page_size 4096
block_size 64
max_read_per_cycle 8
max_fill_per_cycle 1
dram_channels 1
log2_dram_channels 0
dram_ranks 1
dram_banks 8
dram_rows 65536
dram_columns 128
dram_row_size 8
dram_size 4096
dram_pages 1048576

fetch_width 6
decode_width 6
exec_width 4
lq_width 2
sq_width 2
retire_width 4
scheduler_size 128
branch_mispredict_penalty 20
rob_size 256
lq_size 72
sq_size 56
num_instr_destinations_sparc 4
num_instr_destinations 2
num_instr_sources 4

itlb_set 16
itlb_way 8
itlb_rq_size 16
itlb_wq_size 16
itlb_pq_size 0
itlb_mshr_size 8
itlb_latency 1

dtlb_set 16
dtlb_way 4
dtlb_rq_size 16
dtlb_wq_size 16
dtlb_pq_size 0
dtlb_mshr_size 8
dtlb_latency 1

stlb_set 128
stlb_way 12
stlb_rq_size 32
stlb_wq_size 32
stlb_pq_size 0
stlb_mshr_size 16
stlb_latency 8

l1i_size 32
l1i_set 64
l1i_way 8
l1i_rq_size 64
l1i_wq_size 64
l1i_pq_size 8
l1i_mshr_size 8
l1i_latency 1

l1d_size 32
l1d_set 64
l1d_way 8
l1d_rq_size 64
l1d_wq_size 64
l1d_pq_size 8
l1d_mshr_size 16
l1d_latency 4

l2c_size 256
l2c_set 512
l2c_way 8
l2c_rq_size 32
l2c_wq_size 32
l2c_pq_size 32
l2c_mshr_size 32
l2c_latency 10

llc_size 2048
llc_set 2048
llc_way 16
llc_rq_size 32
llc_wq_size 32
llc_pq_size 32
llc_mshr_size 64
llc_latency 20

dram_channel_width 8
dram_wq_size 64
dram_rq_size 64
tRP 15
tRCD 15
tCAS 12.5
dram_dbus_turn_around_time 30
dram_write_high_wm 56
dram_write_low_wm 48
min_dram_writes_per_switch 16
dram_mtps 2400
dram_dbus_return_time 13

scooby_alpha 0.0065088
scooby_gamma 0.556301
scooby_epsilon 0.00182284
scooby_state_num_bits 10
scooby_max_states 1024
scooby_seed 200
scooby_policy EGreedy
scooby_learning_type SARSA
scooby_actions 1,3,4,5,10,11,12,22,23,30,32,-1,-3,-6,0,
scooby_max_actions 15
scooby_pt_size 256
scooby_st_size 64
scooby_max_pcs 5
scooby_max_offsets 5
scooby_max_deltas 5
scooby_reward_none -4
scooby_reward_incorrect -8
scooby_reward_correct_untimely 12
scooby_reward_correct_timely 20
scooby_brain_zero_init 0
scooby_enable_reward_all 0
scooby_enable_track_multiple 0
scooby_enable_reward_out_of_bounds 1
scooby_reward_out_of_bounds -12
scooby_state_type 1
scooby_state_hash_type 11
scooby_access_debug 0
scooby_print_access_debug 0
scooby_print_access_debug_pc deadbeef
scooby_print_access_debug_pc_count 0
scooby_print_trace 0
scooby_enable_state_action_stats 1
scooby_enable_reward_tracker_hit 0
scooby_reward_tracker_hit -2
scooby_enable_featurewise_engine 1
scooby_pref_degree 1
scooby_enable_dyn_degree 1
scooby_max_to_avg_q_thresholds 0.5,1,2,
scooby_dyn_degrees 1,2,4,4,
scooby_multi_deg_select_type 2
scooby_last_pref_offset_conf_thresholds 1,3,8,
scooby_dyn_degrees_type2 1,2,4,6,
scooby_action_tracker_size 2
scooby_high_bw_thresh 4
scooby_enable_hbw_reward 1
scooby_reward_hbw_correct_timely 20
scooby_reward_hbw_correct_untimely 12
scooby_reward_hbw_incorrect -14
scooby_reward_hbw_none -2
scooby_reward_hbw_out_of_bounds -12
scooby_reward_hbw_tracker_hit -2
scooby_last_pref_offset_conf_thresholds_hbw 1,3,8,
scooby_dyn_degrees_type2_hbw 1,2,4,6,

le_enable_trace 0
le_trace_interval 0
le_trace_file_name 
le_trace_state 0
le_enable_score_plot 0
le_plot_file_name 
le_plot_actions 
le_enable_action_trace 0
le_action_trace_interval 0
le_action_trace_name 
le_enable_action_plot 0

le_featurewise_active_features PC, PC_Delta
le_featurewise_num_tilings 3,3,
le_featurewise_num_tiles 128,128,
le_featurewise_hash_types 2,2,
le_featurewise_enable_tiling_offset 1,1,
le_featurewise_max_q_thresh 0.5
le_featurewise_enable_action_fallback 1
le_featurewise_feature_weights 1,1,
le_featurewise_enable_dynamic_weight 0
le_featurewise_weight_gradient 0.001
le_featurewise_disable_adjust_weight_all_features_align 1
le_featurewise_selective_update 0
le_featurewise_pooling_type 2
le_featurewise_enable_dyn_action_fallback 1
le_featurewise_bw_acc_check_level 1
le_featurewise_acc_thresh 2
le_featurewise_enable_trace 0
le_featurewise_trace_feature_type 0
le_featurewise_trace_feature 
le_featurewise_trace_interval 0
le_featurewise_trace_record_count 0
le_featurewise_trace_file_name 
le_featurewise_enable_score_plot 0
le_featurewise_plot_actions 
le_featurewise_plot_file_name 


Heartbeat CPU  0 instructions:    1000001 cycles:    1372051 heartbeat IPC: 0.72884 cumulative IPC: 0.72884 (Simulation time: 0 hr 0 min 1 sec) 
Heartbeat CPU  0 instructions:    2000002 cycles:    2745399 heartbeat IPC: 0.72815 cumulative IPC: 0.72849 (Simulation time: 0 hr 0 min 2 sec) 
Heartbeat CPU  0 instructions:    3000000 cycles:    4124253 heartbeat IPC: 0.72524 cumulative IPC: 0.72740 (Simulation time: 0 hr 0 min 3 sec) 
Heartbeat CPU  0 instructions:    4000000 cycles:    5500114 heartbeat IPC: 0.72682 cumulative IPC: 0.72726 (Simulation time: 0 hr 0 min 4 sec) 
Heartbeat CPU  0 instructions:    5000001 cycles:    6872702 heartbeat IPC: 0.72855 cumulative IPC: 0.72752 (Simulation time: 0 hr 0 min 5 sec) 
Heartbeat CPU  0 instructions:    6000000 cycles:    8254035 heartbeat IPC: 0.72394 cumulative IPC: 0.72692 (Simulation time: 0 hr 0 min 6 sec) 
Heartbeat CPU  0 instructions:    7000000 cycles:    9632336 heartbeat IPC: 0.72553 cumulative IPC: 0.72672 (Simulation time: 0 hr 0 min 7 sec) 
Heartbeat CPU  0 instructions:    8000000 cycles:   11011181 heartbeat IPC: 0.72524 cumulative IPC: 0.72653 (Simulation time: 0 hr 0 min 8 sec) 
Heartbeat CPU  0 instructions:    9000003 cycles:   12390741 heartbeat IPC: 0.72487 cumulative IPC: 0.72635 (Simulation time: 0 hr 0 min 9 sec) 
Heartbeat CPU  0 instructions:   10000002 cycles:   13768405 heartbeat IPC: 0.72587 cumulative IPC: 0.72630 (Simulation time: 0 hr 0 min 10 sec) 

Warmup complete CPU  0 instructions:   10000002 cycles:   13768405 (Simulation time: 0 hr 0 min 10 sec) 

Heartbeat CPU  0 instructions:   11000002 cycles:   17353372 heartbeat IPC: 0.27894 cumulative IPC: 0.27894 (Simulation time: 0 hr 0 min 13 sec) 
Heartbeat CPU  0 instructions:   12000000 cycles:   21742070 heartbeat IPC: 0.22786 cumulative IPC: 0.25083 (Simulation time: 0 hr 0 min 15 sec) 
Heartbeat CPU  0 instructions:   13000000 cycles:   25964166 heartbeat IPC: 0.23685 cumulative IPC: 0.24599 (Simulation time: 0 hr 0 min 18 sec) 
Heartbeat CPU  0 instructions:   14000001 cycles:   30201636 heartbeat IPC: 0.23599 cumulative IPC: 0.24341 (Simulation time: 0 hr 0 min 20 sec) 
Heartbeat CPU  0 instructions:   15000001 cycles:   34438865 heartbeat IPC: 0.23600 cumulative IPC: 0.24189 (Simulation time: 0 hr 0 min 22 sec) 
Heartbeat CPU  0 instructions:   16000000 cycles:   38685173 heartbeat IPC: 0.23550 cumulative IPC: 0.24080 (Simulation time: 0 hr 0 min 24 sec) 
Heartbeat CPU  0 instructions:   17000002 cycles:   42940102 heartbeat IPC: 0.23502 cumulative IPC: 0.23996 (Simulation time: 0 hr 0 min 27 sec) 
Heartbeat CPU  0 instructions:   18000001 cycles:   47146287 heartbeat IPC: 0.23774 cumulative IPC: 0.23968 (Simulation time: 0 hr 0 min 29 sec) 
Heartbeat CPU  0 instructions:   19000000 cycles:   51355609 heartbeat IPC: 0.23757 cumulative IPC: 0.23944 (Simulation time: 0 hr 0 min 31 sec) 
Heartbeat CPU  0 instructions:   20000000 cycles:   55566098 heartbeat IPC: 0.23750 cumulative IPC: 0.23925 (Simulation time: 0 hr 0 min 33 sec) 
Heartbeat CPU  0 instructions:   21000002 cycles:   59797862 heartbeat IPC: 0.23631 cumulative IPC: 0.23898 (Simulation time: 0 hr 0 min 35 sec) 
Heartbeat CPU  0 instructions:   22000001 cycles:   64024520 heartbeat IPC: 0.23659 cumulative IPC: 0.23878 (Simulation time: 0 hr 0 min 37 sec) 
Heartbeat CPU  0 instructions:   23000000 cycles:   68252530 heartbeat IPC: 0.23652 cumulative IPC: 0.23860 (Simulation time: 0 hr 0 min 40 sec) 
Heartbeat CPU  0 instructions:   24000000 cycles:   72482494 heartbeat IPC: 0.23641 cumulative IPC: 0.23844 (Simulation time: 0 hr 0 min 42 sec) 
Heartbeat CPU  0 instructions:   25000003 cycles:   76707880 heartbeat IPC: 0.23667 cumulative IPC: 0.23832 (Simulation time: 0 hr 0 min 44 sec) 
Heartbeat CPU  0 instructions:   26000000 cycles:   80927606 heartbeat IPC: 0.23698 cumulative IPC: 0.23824 (Simulation time: 0 hr 0 min 46 sec) 
Heartbeat CPU  0 instructions:   27000001 cycles:   85138304 heartbeat IPC: 0.23749 cumulative IPC: 0.23820 (Simulation time: 0 hr 0 min 48 sec) 
Heartbeat CPU  0 instructions:   28000000 cycles:   89382394 heartbeat IPC: 0.23562 cumulative IPC: 0.23805 (Simulation time: 0 hr 0 min 50 sec) 
Heartbeat CPU  0 instructions:   29000003 cycles:   93589271 heartbeat IPC: 0.23771 cumulative IPC: 0.23803 (Simulation time: 0 hr 0 min 53 sec) 
Heartbeat CPU  0 instructions:   30000003 cycles:   97798670 heartbeat IPC: 0.23756 cumulative IPC: 0.23801 (Simulation time: 0 hr 0 min 55 sec) 
Heartbeat CPU  0 instructions:   31000000 cycles:  102039772 heartbeat IPC: 0.23579 cumulative IPC: 0.23790 (Simulation time: 0 hr 0 min 57 sec) 
Heartbeat CPU  0 instructions:   32000000 cycles:  106244669 heartbeat IPC: 0.23782 cumulative IPC: 0.23790 (Simulation time: 0 hr 0 min 59 sec) 
Heartbeat CPU  0 instructions:   33000001 cycles:  110474027 heartbeat IPC: 0.23644 cumulative IPC: 0.23784 (Simulation time: 0 hr 1 min 1 sec) 
Heartbeat CPU  0 instructions:   34000000 cycles:  114709636 heartbeat IPC: 0.23609 cumulative IPC: 0.23776 (Simulation time: 0 hr 1 min 4 sec) 
Heartbeat CPU  0 instructions:   35000003 cycles:  118912131 heartbeat IPC: 0.23795 cumulative IPC: 0.23777 (Simulation time: 0 hr 1 min 6 sec) 
Heartbeat CPU  0 instructions:   36000000 cycles:  123128069 heartbeat IPC: 0.23719 cumulative IPC: 0.23775 (Simulation time: 0 hr 1 min 8 sec) 
Heartbeat CPU  0 instructions:   37000000 cycles:  127325974 heartbeat IPC: 0.23821 cumulative IPC: 0.23776 (Simulation time: 0 hr 1 min 10 sec) 
Heartbeat CPU  0 instructions:   38000002 cycles:  131543898 heartbeat IPC: 0.23708 cumulative IPC: 0.23774 (Simulation time: 0 hr 1 min 12 sec) 
Heartbeat CPU  0 instructions:   39000001 cycles:  136792813 heartbeat IPC: 0.19052 cumulative IPC: 0.23573 (Simulation time: 0 hr 1 min 15 sec) 
Heartbeat CPU  0 instructions:   40000000 cycles:  142055688 heartbeat IPC: 0.19001 cumulative IPC: 0.23385 (Simulation time: 0 hr 1 min 17 sec) 
Heartbeat CPU  0 instructions:   41000000 cycles:  147321275 heartbeat IPC: 0.18991 cumulative IPC: 0.23212 (Simulation time: 0 hr 1 min 19 sec) 
Heartbeat CPU  0 instructions:   42000001 cycles:  152568605 heartbeat IPC: 0.19057 cumulative IPC: 0.23055 (Simulation time: 0 hr 1 min 21 sec) 
Heartbeat CPU  0 instructions:   43000003 cycles:  157822969 heartbeat IPC: 0.19032 cumulative IPC: 0.22908 (Simulation time: 0 hr 1 min 23 sec) 
Heartbeat CPU  0 instructions:   44000000 cycles:  163038846 heartbeat IPC: 0.19172 cumulative IPC: 0.22777 (Simulation time: 0 hr 1 min 25 sec) 
Heartbeat CPU  0 instructions:   45000002 cycles:  168262176 heartbeat IPC: 0.19145 cumulative IPC: 0.22655 (Simulation time: 0 hr 1 min 28 sec) 
Heartbeat CPU  0 instructions:   46000001 cycles:  173567072 heartbeat IPC: 0.18850 cumulative IPC: 0.22528 (Simulation time: 0 hr 1 min 30 sec) 
Heartbeat CPU  0 instructions:   47000000 cycles:  178954552 heartbeat IPC: 0.18562 cumulative IPC: 0.22399 (Simulation time: 0 hr 1 min 32 sec) 
Heartbeat CPU  0 instructions:   48000000 cycles:  184322074 heartbeat IPC: 0.18631 cumulative IPC: 0.22280 (Simulation time: 0 hr 1 min 34 sec) 
Heartbeat CPU  0 instructions:   49000000 cycles:  189706321 heartbeat IPC: 0.18573 cumulative IPC: 0.22167 (Simulation time: 0 hr 1 min 36 sec) 
Heartbeat CPU  0 instructions:   50000001 cycles:  194612388 heartbeat IPC: 0.20383 cumulative IPC: 0.22119 (Simulation time: 0 hr 1 min 38 sec) 
Heartbeat CPU  0 instructions:   51000000 cycles:  198065600 heartbeat IPC: 0.28959 cumulative IPC: 0.22247 (Simulation time: 0 hr 1 min 40 sec) 
Heartbeat CPU  0 instructions:   52000000 cycles:  201523850 heartbeat IPC: 0.28916 cumulative IPC: 0.22370 (Simulation time: 0 hr 1 min 41 sec) 
Heartbeat CPU  0 instructions:   53000000 cycles:  204990950 heartbeat IPC: 0.28843 cumulative IPC: 0.22487 (Simulation time: 0 hr 1 min 43 sec) 
Heartbeat CPU  0 instructions:   54000000 cycles:  208432333 heartbeat IPC: 0.29058 cumulative IPC: 0.22603 (Simulation time: 0 hr 1 min 45 sec) 
Heartbeat CPU  0 instructions:   55000002 cycles:  211869496 heartbeat IPC: 0.29094 cumulative IPC: 0.22716 (Simulation time: 0 hr 1 min 46 sec) 
Heartbeat CPU  0 instructions:   56000000 cycles:  215304471 heartbeat IPC: 0.29112 cumulative IPC: 0.22825 (Simulation time: 0 hr 1 min 48 sec) 
Heartbeat CPU  0 instructions:   57000002 cycles:  218738985 heartbeat IPC: 0.29116 cumulative IPC: 0.22930 (Simulation time: 0 hr 1 min 49 sec) 
Heartbeat CPU  0 instructions:   58000002 cycles:  222162514 heartbeat IPC: 0.29210 cumulative IPC: 0.23033 (Simulation time: 0 hr 1 min 51 sec) 
Heartbeat CPU  0 instructions:   59000000 cycles:  225595146 heartbeat IPC: 0.29132 cumulative IPC: 0.23132 (Simulation time: 0 hr 1 min 53 sec) 
Heartbeat CPU  0 instructions:   60000000 cycles:  226603172 heartbeat IPC: 0.99204 cumulative IPC: 0.23492 (Simulation time: 0 hr 1 min 54 sec) 
Finished CPU 0 instructions: 50000002 cycles: 212834777 cumulative IPC: 0.23492 (Simulation time: 0 hr 1 min 54 sec) 

ChampSim completed all CPUs

[ROI Statistics]
Core_0_instructions 50000002
Core_0_cycles 212834777
Core_0_IPC 0.23492

Core_0_branch_prediction_accuracy 78.84127
Core_0_branch_MPKI 43.90428
Core_0_average_ROB_occupancy_at_mispredict 22.16709

Core_0_L1D_total_access 11922299
Core_0_L1D_total_hit 10087909
Core_0_L1D_total_miss 1834390
Core_0_L1D_loads 10571303
Core_0_L1D_load_hit 8751082
Core_0_L1D_load_miss 1820221
Core_0_L1D_RFOs 1350996
Core_0_L1D_RFO_hit 1336827
Core_0_L1D_RFO_miss 14169
Core_0_L1D_prefetches 0
Core_0_L1D_prefetch_hit 0
Core_0_L1D_prefetch_miss 0
Core_0_L1D_writebacks 0
Core_0_L1D_writeback_hit 0
Core_0_L1D_writeback_miss 0
Core_0_L1D_prefetch_requested 0
Core_0_L1D_prefetch_dropped 0
Core_0_L1D_prefetch_issued 0
Core_0_L1D_prefetch_filled 0
Core_0_L1D_prefetch_useful 0
Core_0_L1D_prefetch_useless 0
Core_0_L1D_prefetch_late 0
Core_0_L1D_average_miss_latency 40.04757

Core_0_L1D_rq_access 13662431
Core_0_L1D_rq_forward 0
Core_0_L1D_rq_merged 2970669
Core_0_L1D_rq_to_cache 10691762
Core_0_L1D_rq_full 0

Core_0_L1D_wq_access 1400936
Core_0_L1D_wq_forward 0
Core_0_L1D_wq_merged 2043
Core_0_L1D_wq_to_cache 1398893
Core_0_L1D_wq_full 237328

Core_0_L1D_pq_access 0
Core_0_L1D_pq_forward 0
Core_0_L1D_pq_merged 0
Core_0_L1D_pq_to_cache 0
Core_0_L1D_pq_full 0

Core_0_L1D_acc_epochs 215851
Core_0_L1D_acc_level_0 215851
Core_0_L1D_acc_level_1 0
Core_0_L1D_acc_level_2 0
Core_0_L1D_acc_level_3 0
Core_0_L1D_acc_level_4 0
Core_0_L1D_acc_level_5 0
Core_0_L1D_acc_level_6 0
Core_0_L1D_acc_level_7 0
Core_0_L1D_acc_level_8 0
Core_0_L1D_acc_level_9 0

Core_0_L1I_total_access 10546770
Core_0_L1I_total_hit 10546728
Core_0_L1I_total_miss 42
Core_0_L1I_loads 10546770
Core_0_L1I_load_hit 10546728
Core_0_L1I_load_miss 42
Core_0_L1I_RFOs 0
Core_0_L1I_RFO_hit 0
Core_0_L1I_RFO_miss 0
Core_0_L1I_prefetches 0
Core_0_L1I_prefetch_hit 0
Core_0_L1I_prefetch_miss 0
Core_0_L1I_writebacks 0
Core_0_L1I_writeback_hit 0
Core_0_L1I_writeback_miss 0
Core_0_L1I_prefetch_requested 0
Core_0_L1I_prefetch_dropped 0
Core_0_L1I_prefetch_issued 0
Core_0_L1I_prefetch_filled 0
Core_0_L1I_prefetch_useful 0
Core_0_L1I_prefetch_useless 0
Core_0_L1I_prefetch_late 0
Core_0_L1I_average_miss_latency 192.61905

Core_0_L1I_rq_access 50000224
Core_0_L1I_rq_forward 0
Core_0_L1I_rq_merged 39453444
Core_0_L1I_rq_to_cache 10546780
Core_0_L1I_rq_full 0

Core_0_L1I_wq_access 0
Core_0_L1I_wq_forward 0
Core_0_L1I_wq_merged 0
Core_0_L1I_wq_to_cache 0
Core_0_L1I_wq_full 0

Core_0_L1I_pq_access 0
Core_0_L1I_pq_forward 0
Core_0_L1I_pq_merged 0
Core_0_L1I_pq_to_cache 0
Core_0_L1I_pq_full 0

Core_0_L1I_acc_epochs 215851
Core_0_L1I_acc_level_0 215851
Core_0_L1I_acc_level_1 0
Core_0_L1I_acc_level_2 0
Core_0_L1I_acc_level_3 0
Core_0_L1I_acc_level_4 0
Core_0_L1I_acc_level_5 0
Core_0_L1I_acc_level_6 0
Core_0_L1I_acc_level_7 0
Core_0_L1I_acc_level_8 0
Core_0_L1I_acc_level_9 0

Core_0_L2C_total_access 6362875
Core_0_L2C_total_hit 4639878
Core_0_L2C_total_miss 1722997
Core_0_L2C_loads 1820263
Core_0_L2C_load_hit 1459931
Core_0_L2C_load_miss 360332
Core_0_L2C_RFOs 14169
Core_0_L2C_RFO_hit 2307
Core_0_L2C_RFO_miss 11862
Core_0_L2C_prefetches 4368020
Core_0_L2C_prefetch_hit 3017240
Core_0_L2C_prefetch_miss 1350780
Core_0_L2C_writebacks 160423
Core_0_L2C_writeback_hit 160400
Core_0_L2C_writeback_miss 23
Core_0_L2C_prefetch_requested 5123396
Core_0_L2C_prefetch_dropped 95
Core_0_L2C_prefetch_issued 5123301
Core_0_L2C_prefetch_filled 1475998
Core_0_L2C_prefetch_useful 981579
Core_0_L2C_prefetch_useless 494311
Core_0_L2C_prefetch_late 14042
Core_0_L2C_average_miss_latency 146.07312

Core_0_L2C_rq_access 1834432
Core_0_L2C_rq_forward 0
Core_0_L2C_rq_merged 0
Core_0_L2C_rq_to_cache 1834432
Core_0_L2C_rq_full 0

Core_0_L2C_wq_access 160423
Core_0_L2C_wq_forward 0
Core_0_L2C_wq_merged 0
Core_0_L2C_wq_to_cache 160423
Core_0_L2C_wq_full 0

Core_0_L2C_pq_access 5123301
Core_0_L2C_pq_forward 0
Core_0_L2C_pq_merged 30683
Core_0_L2C_pq_to_cache 5092618
Core_0_L2C_pq_full 0

Core_0_L2C_acc_epochs 215851
Core_0_L2C_acc_level_0 1177
Core_0_L2C_acc_level_1 982
Core_0_L2C_acc_level_2 2385
Core_0_L2C_acc_level_3 12233
Core_0_L2C_acc_level_4 26302
Core_0_L2C_acc_level_5 31919
Core_0_L2C_acc_level_6 28364
Core_0_L2C_acc_level_7 21687
Core_0_L2C_acc_level_8 15940
Core_0_L2C_acc_level_9 74862

Core_0_LLC_total_access 1880221
Core_0_LLC_total_hit 399598
Core_0_LLC_total_miss 1480623
Core_0_LLC_loads 346291
Core_0_LLC_load_hit 136358
Core_0_LLC_load_miss 209933
Core_0_LLC_RFOs 11862
Core_0_LLC_RFO_hit 2603
Core_0_LLC_RFO_miss 9259
Core_0_LLC_prefetches 1364821
Core_0_LLC_prefetch_hit 186318
Core_0_LLC_prefetch_miss 1178503
Core_0_LLC_writebacks 157247
Core_0_LLC_writeback_hit 74319
Core_0_LLC_writeback_miss 82928
Core_0_LLC_prefetch_requested 0
Core_0_LLC_prefetch_dropped 0
Core_0_LLC_prefetch_issued 0
Core_0_LLC_prefetch_filled 1303722
Core_0_LLC_prefetch_useful 1604
Core_0_LLC_prefetch_useless 1299743
Core_0_LLC_prefetch_late 0
Core_0_LLC_average_miss_latency 135.53223

Core_0_LLC_rq_access 358153
Core_0_LLC_rq_forward 0
Core_0_LLC_rq_merged 0
Core_0_LLC_rq_to_cache 358153
Core_0_LLC_rq_full 0

Core_0_LLC_wq_access 157247
Core_0_LLC_wq_forward 0
Core_0_LLC_wq_merged 0
Core_0_LLC_wq_to_cache 157247
Core_0_LLC_wq_full 0

Core_0_LLC_pq_access 1490040
Core_0_LLC_pq_forward 0
Core_0_LLC_pq_merged 0
Core_0_LLC_pq_to_cache 1490040
Core_0_LLC_pq_full 0

Core_0_LLC_acc_epochs 221293
Core_0_LLC_acc_level_0 219935
Core_0_LLC_acc_level_1 928
Core_0_LLC_acc_level_2 294
Core_0_LLC_acc_level_3 55
Core_0_LLC_acc_level_4 10
Core_0_LLC_acc_level_5 63
Core_0_LLC_acc_level_6 3
Core_0_LLC_acc_level_7 3
Core_0_LLC_acc_level_8 0
Core_0_LLC_acc_level_9 2

Core_0_major_page_fault 0
Core_0_minor_page_fault 26846

scooby_st_lookup 1947404
scooby_st_hit 1881446
scooby_st_evict 65894
scooby_st_insert 65958
scooby_st_streaming 0

scooby_predict_called 1947404
scooby_predict_out_of_bounds 62638
scooby_predict_action_1 1378952
scooby_predict_issue_action_1 1308839
scooby_predict_hit_action_1 70113
scooby_predict_out_of_bounds_action_1 20767
scooby_predict_action_3 167854
scooby_predict_issue_action_3 166796
scooby_predict_hit_action_3 1058
scooby_predict_out_of_bounds_action_3 8482
scooby_predict_action_4 9233
scooby_predict_issue_action_4 8552
scooby_predict_hit_action_4 681
scooby_predict_out_of_bounds_action_4 628
scooby_predict_action_5 213740
scooby_predict_issue_action_5 208002
scooby_predict_hit_action_5 5738
scooby_predict_out_of_bounds_action_5 17475
scooby_predict_action_10 7325
scooby_predict_issue_action_10 6831
scooby_predict_hit_action_10 494
scooby_predict_out_of_bounds_action_10 1286
scooby_predict_action_11 6735
scooby_predict_issue_action_11 6220
scooby_predict_hit_action_11 515
scooby_predict_out_of_bounds_action_11 1303
scooby_predict_action_12 6814
scooby_predict_issue_action_12 6275
scooby_predict_hit_action_12 539
scooby_predict_out_of_bounds_action_12 1353
scooby_predict_action_22 4832
scooby_predict_issue_action_22 4468
scooby_predict_hit_action_22 364
scooby_predict_out_of_bounds_action_22 2122
scooby_predict_action_23 4526
scooby_predict_issue_action_23 4200
scooby_predict_hit_action_23 326
scooby_predict_out_of_bounds_action_23 2081
scooby_predict_action_30 4723
scooby_predict_issue_action_30 4410
scooby_predict_hit_action_30 313
scooby_predict_out_of_bounds_action_30 3334
scooby_predict_action_32 3626
scooby_predict_issue_action_32 3294
scooby_predict_hit_action_32 332
scooby_predict_out_of_bounds_action_32 2602
scooby_predict_action_-1 8845
scooby_predict_issue_action_-1 7984
scooby_predict_hit_action_-1 861
scooby_predict_out_of_bounds_action_-1 135
scooby_predict_action_-3 8085
scooby_predict_issue_action_-3 7432
scooby_predict_hit_action_-3 653
scooby_predict_out_of_bounds_action_-3 377
scooby_predict_action_-6 7786
scooby_predict_issue_action_-6 7071
scooby_predict_hit_action_-6 715
scooby_predict_out_of_bounds_action_-6 693
scooby_predict_action_0 51690
scooby_predict_issue_action_0 0
scooby_predict_hit_action_0 0
scooby_predict_out_of_bounds_action_0 0
scooby_predict_multi_deg_called 936748
scooby_predict_predicted 5123396
scooby_predict_multi_deg 3373022
scooby_predict_multi_deg_2 902734
scooby_predict_multi_deg_3 751631
scooby_predict_multi_deg_4 718924
scooby_predict_multi_deg_5 515576
scooby_predict_multi_deg_6 484157
scooby_predict_multi_deg_7 0
scooby_predict_multi_deg_8 0
scooby_predict_multi_deg_9 0
scooby_predict_multi_deg_10 0
scooby_predict_multi_deg_11 0
scooby_predict_multi_deg_12 0
scooby_predict_multi_deg_13 0
scooby_predict_multi_deg_14 0
scooby_predict_multi_deg_15 0
scooby_predict_multi_deg_16 0

scooby_selected_deg_1 813626
scooby_selected_deg_2 119489
scooby_selected_deg_3 0
scooby_selected_deg_4 176115
scooby_selected_deg_5 0
scooby_selected_deg_6 641144
scooby_selected_deg_7 0
scooby_selected_deg_8 0
scooby_selected_deg_9 0
scooby_selected_deg_10 0
scooby_selected_deg_11 0
scooby_selected_deg_12 0
scooby_selected_deg_13 0
scooby_selected_deg_14 0
scooby_selected_deg_15 0
scooby_selected_deg_16 0

scooby_state_55ab23ccd7d9|0|0 5857,1,0,1,1,0,1,1,1,3,0,0,0,0,16,5882,
scooby_state_55ab23ccd7cf|43|1 3883,0,0,0,1,1,1,1,0,0,0,1,1,0,0,3889,
scooby_state_55ab23ccd7cf|21|1 3875,0,2,2,0,0,0,1,2,0,0,2,1,1,0,3886,
scooby_state_55ab23ccd7cf|1|1 3870,1,0,2,0,1,0,2,1,1,0,0,0,1,2,3881,
scooby_state_55ab23ccd7cf|8|1 3862,0,1,0,2,1,1,1,0,0,0,0,1,1,0,3870,
scooby_state_55ab23ccd7cf|12|1 3851,0,1,0,1,2,0,2,0,1,0,0,3,2,1,3864,
scooby_state_55ab23ccd7cf|31|1 3847,0,0,0,0,2,0,3,0,1,1,1,1,1,1,3858,
scooby_state_55ab23ccd7cf|36|1 3845,0,0,1,0,0,1,2,1,0,3,0,1,1,1,3856,
scooby_state_55ab23ccd7cf|50|1 3844,0,0,1,0,1,0,1,0,1,1,1,0,1,0,3851,
scooby_state_55ab23ccd7cf|7|1 3839,0,2,2,0,0,0,3,1,0,0,0,0,2,1,3850,
scooby_state_55ab23ccd7cf|32|1 3837,0,0,0,1,0,2,0,2,0,1,0,0,0,1,3844,
scooby_state_55ab23ccd7cf|62|1 3829,1,1,0,1,2,2,0,1,0,1,0,1,0,1,3840,
scooby_state_55ab23ccd7cf|59|1 3834,0,1,0,1,0,1,0,1,1,0,0,0,1,0,3840,
scooby_state_55ab23ccd7cf|10|1 3828,0,0,0,0,2,1,1,1,2,0,0,2,0,0,3837,
scooby_state_55ab23ccd7cf|35|1 3823,0,0,0,1,0,1,0,0,2,0,1,0,1,1,3830,
scooby_state_55ab23ccd7cf|25|1 3823,1,1,0,1,0,0,0,1,0,0,0,0,2,1,3830,
scooby_state_55ab23ccd7cf|29|1 3817,2,0,1,1,0,1,2,0,0,0,0,0,0,1,3825,
scooby_state_55ab23ccd7cf|40|1 3816,0,0,1,0,1,0,1,0,1,1,1,0,1,1,3824,
scooby_state_55ab23ccd7cf|3|1 3817,0,0,1,0,0,0,1,1,0,0,1,1,0,1,3823,
scooby_state_55ab23ccd7cf|39|1 3814,1,1,1,2,0,1,0,0,0,0,1,0,1,1,3823,
scooby_state_55ab23ccd7cf|56|1 3812,2,1,1,0,0,0,3,0,1,1,0,0,0,0,3821,
scooby_state_55ab23ccd7cf|41|1 3816,0,1,0,0,1,0,0,1,0,0,0,0,0,0,3819,
scooby_state_55ab23ccd7cf|11|1 3810,2,0,1,0,0,0,0,0,1,2,1,0,1,0,3818,
scooby_state_55ab23ccd7cf|15|1 3816,0,0,0,1,0,0,0,0,1,0,0,0,0,0,3818,
scooby_state_55ab23ccd7cf|4|1 3812,0,0,1,0,0,1,0,1,0,0,0,0,0,1,3816,
scooby_state_55ab23ccd7cf|14|1 3808,0,2,0,1,0,1,0,1,0,0,1,0,1,0,3815,
scooby_state_55ab23ccd7cf|53|1 3805,0,0,0,0,0,1,0,0,1,1,2,1,0,0,3811,
scooby_state_55ab23ccd7cf|22|1 3801,0,2,0,1,1,0,0,1,1,0,1,1,1,0,3810,
scooby_state_55ab23ccd7cf|42|1 3797,0,0,0,1,1,0,0,0,1,1,1,0,1,0,3803,
scooby_state_55ab23ccd7cf|38|1 3793,0,1,0,0,1,0,0,0,1,1,1,2,0,0,3800,
scooby_state_55ab23ccd7cf|13|1 3789,1,0,1,1,1,2,2,0,0,1,1,1,0,0,3800,
scooby_state_55ab23ccd7cf|0|0 3785,1,0,1,0,0,0,0,1,0,0,2,1,2,1,3794,
scooby_state_55ab23ccd7cf|17|1 3789,0,0,0,0,1,0,0,1,1,1,0,0,0,0,3793,
scooby_state_55ab23ccd7cf|58|1 3783,0,0,3,1,0,0,0,0,0,1,2,0,0,0,3790,
scooby_state_55ab23ccd7cf|16|1 3784,0,0,2,0,3,0,0,0,0,1,0,0,0,0,3790,
scooby_state_55ab23ccd7cf|45|1 3781,3,0,1,1,0,0,1,0,0,0,0,0,1,0,3788,
scooby_state_55ab23ccd7cf|57|1 3784,0,0,2,1,0,0,0,1,0,0,0,0,0,0,3788,
scooby_state_55ab23ccd7cf|2|1 3779,2,1,0,1,0,0,1,0,1,0,1,0,2,0,3788,
scooby_state_55ab23ccd7cf|52|1 3780,1,0,1,1,0,1,2,0,0,0,1,0,0,0,3787,
scooby_state_55ab23ccd7cf|33|1 3781,0,1,0,1,1,1,0,0,0,0,0,0,0,0,3785,
scooby_state_55ab23ccd7cf|30|1 3779,0,0,0,1,1,0,0,0,1,0,1,0,1,1,3785,
scooby_state_55ab23ccd7cf|51|1 3778,0,0,0,0,1,1,1,0,1,0,0,0,2,0,3784,
scooby_state_55ab23ccd7cf|34|1 3768,2,4,0,1,0,3,2,0,0,0,1,0,2,0,3783,
scooby_state_55ab23ccd7cf|61|1 3775,1,0,0,0,0,0,0,0,1,0,0,0,2,0,3779,
scooby_state_55ab23ccd7cf|37|1 3774,1,0,0,1,0,0,0,0,0,1,0,1,1,0,3779,
scooby_state_55ab23ccd7cf|48|1 3770,0,0,1,0,2,0,1,0,0,0,0,0,2,1,3777,
scooby_state_55ab23ccd7cf|54|1 3772,1,0,1,0,0,0,0,1,0,0,1,0,0,1,3777,
scooby_state_55ab23ccd7cf|28|1 3769,0,0,0,0,0,0,0,0,0,0,1,0,1,0,3771,
scooby_state_55ab23ccd7cf|23|1 3760,1,1,1,0,0,0,0,0,2,0,2,1,0,0,3768,
scooby_state_55ab23ccd7cf|55|1 3760,1,0,0,1,0,0,0,0,0,0,0,0,1,0,3763,
scooby_state_55ab23ccd7cf|5|1 3754,1,1,1,0,2,1,0,1,0,0,1,0,1,0,3763,
scooby_state_55ab23ccd7cf|20|1 3756,0,0,1,0,0,2,0,0,0,0,0,1,0,1,3761,
scooby_state_55ab23ccd7cf|46|1 3755,1,1,1,0,0,1,0,0,1,0,0,0,0,1,3761,
scooby_state_55ab23ccd7cf|47|1 3749,0,1,0,1,0,2,1,0,0,1,2,0,2,0,3759,
scooby_state_55ab23ccd7cf|63|1 3755,1,0,0,0,0,0,0,0,0,0,0,1,0,1,3758,
scooby_state_55ab23ccd7cf|27|1 3750,0,1,0,0,0,1,2,0,0,0,0,0,3,0,3757,
scooby_state_55ab23ccd7cf|6|1 3749,0,1,0,0,0,1,0,0,0,0,2,1,1,1,3756,
scooby_state_55ab23ccd7cf|9|1 3743,1,0,1,0,0,1,1,3,0,0,0,0,0,1,3751,
scooby_state_55ab23ccd7cf|18|1 3740,1,0,1,0,0,0,0,0,2,0,0,1,0,2,3747,
scooby_state_55ab23ccd7cf|60|1 3736,0,0,1,1,1,1,0,2,0,0,0,0,1,0,3743,
scooby_state_55ab23ccd7cf|24|1 3725,0,1,0,0,0,1,0,1,1,1,0,1,2,1,3734,
scooby_state_55ab23ccd7cf|44|1 3724,0,0,0,0,0,0,0,0,0,0,0,1,0,1,3726,
scooby_state_55ab23ccd7cf|19|1 3715,0,0,0,1,0,0,1,1,0,1,0,0,0,0,3719,
scooby_state_55ab23ccd7cf|49|1 3715,0,1,0,0,0,0,0,1,1,1,0,0,0,0,3719,
scooby_state_55ab23ccd7cf|26|1 3699,0,2,0,1,0,0,0,1,0,1,0,0,0,0,3704,
scooby_state_55ab23ccd7d9|1|0 3234,2,0,0,1,2,0,1,0,1,2,1,0,1,9,3254,
scooby_state_55ab23ccd7bd|59|1 1,0,0,3066,1,2,1,0,1,0,0,0,0,0,0,3072,
scooby_state_55ab23ccd7bd|28|1 0,1,0,3067,0,0,1,0,1,0,0,1,1,0,0,3072,
scooby_state_55ab23ccd7bd|47|1 1,0,0,3066,0,0,1,0,1,1,1,0,0,0,1,3072,
scooby_state_55ab23ccd7bd|55|1 0,0,0,3067,1,0,1,1,1,0,0,0,0,0,1,3072,
scooby_state_55ab23ccd7bd|12|1 2,0,0,3067,0,0,2,0,0,1,0,0,0,0,0,3072,
scooby_state_55ab23ccd7bd|17|1 0,1,0,3067,0,0,0,0,0,1,1,0,2,0,0,3072,
scooby_state_55ab23ccd7bd|37|1 1,0,0,3065,3,1,0,0,1,0,0,0,0,0,1,3072,
scooby_state_55ab23ccd7bd|10|1 0,2,0,3065,1,0,0,0,0,2,0,0,1,0,1,3072,
scooby_state_55ab23ccd7bd|3|1 0,0,0,3068,1,1,0,1,0,0,1,0,0,0,0,3072,
scooby_state_55ab23ccd7bd|18|1 1,0,0,3065,0,0,0,3,1,0,0,0,1,0,1,3072,
scooby_state_55ab23ccd7bd|32|1 0,0,0,3064,3,1,0,1,0,0,0,2,0,0,1,3072,
scooby_state_55ab23ccd7bd|29|1 0,0,2,3065,0,0,1,1,0,1,0,1,1,0,0,3072,
scooby_state_55ab23ccd7bd|44|1 0,1,0,3064,1,1,0,1,1,0,1,0,1,0,1,3072,
scooby_state_55ab23ccd7bd|20|1 1,2,0,3062,2,0,0,3,0,0,0,0,1,0,1,3072,
scooby_state_55ab23ccd7bd|61|1 0,0,0,3067,1,0,0,1,0,0,0,0,2,0,1,3072,
scooby_state_55ab23ccd7bd|60|1 0,1,0,3065,1,1,3,1,0,0,0,0,0,0,0,3072,
scooby_state_55ab23ccd7bd|15|1 1,0,0,3067,1,1,0,0,0,1,0,0,0,1,0,3072,
scooby_state_55ab23ccd7bd|43|1 0,0,0,3069,1,0,0,0,1,0,0,1,0,0,0,3072,
scooby_state_55ab23ccd7bd|31|1 0,0,0,3068,0,0,1,0,0,0,1,0,2,0,0,3072,
scooby_state_55ab23ccd7bd|36|1 0,1,0,3066,2,1,0,0,0,1,0,1,0,0,0,3072,
scooby_state_55ab23ccd7bd|24|1 0,1,0,3064,1,0,0,2,1,0,0,1,1,1,0,3072,
scooby_state_55ab23ccd7bd|7|1 1,1,1,3063,1,1,0,0,1,0,1,1,0,0,1,3072,
scooby_state_55ab23ccd7bd|62|1 0,1,0,3069,1,0,0,0,0,0,1,0,0,0,0,3072,
scooby_state_55ab23ccd7bd|54|1 0,1,0,3068,0,1,0,0,0,0,1,0,1,0,0,3072,
scooby_state_55ab23ccd7bd|25|1 1,0,1,3065,1,1,0,0,0,0,0,0,2,1,0,3072,
scooby_state_55ab23ccd7bd|30|1 0,0,0,3066,0,0,1,1,0,0,0,0,3,0,1,3072,
scooby_state_55ab23ccd7bd|4|1 0,2,0,3067,1,0,1,0,0,0,0,0,1,0,0,3072,
scooby_state_55ab23ccd7bd|21|1 1,3,1,3063,1,1,0,0,0,0,0,0,1,1,0,3072,
scooby_state_55ab23ccd7bd|26|1 1,0,0,3067,0,0,1,0,1,1,0,0,1,0,0,3072,
scooby_state_55ab23ccd7bd|33|1 0,0,0,3067,1,0,0,1,1,0,0,0,0,1,1,3072,
scooby_state_55ab23ccd7bd|34|1 0,0,1,3068,0,0,0,0,0,0,0,1,0,0,2,3072,
scooby_state_55ab23ccd7bd|51|1 2,0,0,3065,2,1,1,0,0,0,0,0,0,0,1,3072,
scooby_state_55ab23ccd7bd|49|1 0,0,1,3070,0,1,0,0,0,0,0,0,0,0,0,3072,
scooby_state_55ab23ccd7bd|46|1 0,1,1,3068,0,0,1,0,1,0,0,0,0,0,0,3072,
scooby_state_55ab23ccd7bd|53|1 1,0,1,3064,0,1,1,0,1,2,0,1,0,0,0,3072,
scooby_state_55ab23ccd7bd|56|1 1,0,0,3067,1,0,1,0,0,1,0,1,0,0,0,3072,
scooby_state_55ab23ccd7bd|45|1 0,1,0,3065,1,0,0,1,0,1,0,2,1,0,0,3072,
scooby_state_55ab23ccd7bd|39|1 0,1,0,3065,2,0,0,1,0,0,1,0,0,1,1,3072,
scooby_state_55ab23ccd7bd|6|1 0,0,0,3068,1,0,0,0,0,1,0,0,1,0,1,3072,
scooby_state_55ab23ccd7bd|11|1 0,0,0,3068,1,0,1,1,0,1,0,0,0,0,0,3072,
scooby_state_55ab23ccd7bd|5|1 1,0,0,3067,1,1,1,0,0,0,1,0,0,0,0,3072,
scooby_state_55ab23ccd7bd|13|1 2,0,2,3062,1,0,1,0,0,1,0,1,1,1,0,3072,
scooby_state_55ab23ccd7bd|16|1 0,0,0,3068,0,0,0,1,0,2,0,0,1,0,0,3072,
scooby_state_55ab23ccd7bd|14|1 0,0,0,3063,0,0,1,1,0,2,2,1,0,1,1,3072,
scooby_state_55ab23ccd7bd|27|1 1,0,1,3067,0,0,1,0,0,1,0,0,1,0,0,3072,
scooby_state_55ab23ccd7bd|1|1 0,1,0,3065,1,0,0,0,1,1,0,1,1,0,1,3072,
scooby_state_55ab23ccd7bd|57|1 0,0,1,3069,1,1,0,0,0,0,0,0,0,0,0,3072,
scooby_state_55ab23ccd7bd|0|0 0,0,0,3068,1,0,1,0,1,0,0,1,0,0,0,3072,
scooby_state_55ab23ccd7bd|63|1 0,1,0,3066,2,0,0,1,0,0,0,2,0,0,0,3072,
scooby_state_55ab23ccd7bd|19|1 1,0,2,3065,0,1,0,1,0,0,0,1,1,0,0,3072,
scooby_state_55ab23ccd7bd|38|1 0,0,0,3069,1,0,0,0,0,2,0,0,0,0,0,3072,
scooby_state_55ab23ccd7bd|48|1 2,0,0,3067,0,0,0,1,0,0,0,0,1,1,0,3072,
scooby_state_55ab23ccd7bd|58|1 0,0,0,3069,1,0,0,0,1,0,0,0,1,0,0,3072,
scooby_state_55ab23ccd7bd|23|1 0,0,0,3063,2,0,0,0,1,1,0,1,4,0,0,3072,
scooby_state_55ab23ccd7bd|22|1 0,0,1,3066,2,0,0,0,0,0,0,0,2,1,0,3072,
scooby_state_55ab23ccd7bd|52|1 1,0,2,3065,0,0,2,0,0,0,0,0,0,1,1,3072,
scooby_state_55ab23ccd7bd|41|1 0,0,0,3069,1,0,1,0,0,0,0,0,1,0,0,3072,
scooby_state_55ab23ccd7bd|9|1 0,0,0,3069,0,0,0,0,0,1,1,0,0,0,1,3072,
scooby_state_55ab23ccd7bd|2|1 0,0,0,3069,1,0,0,0,0,0,0,0,0,2,0,3072,
scooby_state_55ab23ccd7bd|40|1 0,0,1,3065,1,1,1,0,0,0,0,1,0,1,1,3072,
scooby_state_55ab23ccd7bd|42|1 0,0,1,3070,1,0,0,0,0,0,0,0,0,0,0,3072,
scooby_state_55ab23ccd7bd|50|1 1,0,2,3068,0,0,0,0,0,0,0,0,1,0,0,3072,
scooby_state_55ab23ccd7bd|35|1 0,1,0,3065,0,0,0,0,2,1,0,0,1,1,1,3072,
scooby_state_55ab23ccd7bd|8|1 0,0,1,3059,2,3,1,1,0,1,0,0,0,0,1,3069,
scooby_state_55ab23ccd7d9|2|0 2596,1,2,1,0,1,3,1,0,0,0,0,2,0,8,2615,
scooby_state_55ab23ccd7d9|24|1 2601,1,0,0,1,1,0,1,1,2,0,0,1,1,1,2611,
scooby_state_55ab23ccd7d9|2|1 2550,2,1,0,1,1,0,1,1,2,0,2,2,0,3,2566,
scooby_state_55ab23ccd7d9|1|1 2539,0,2,0,1,2,0,0,1,0,0,1,0,1,3,2550,
scooby_state_55ab23ccd7d9|59|1 2538,1,1,1,1,0,0,0,0,0,0,0,1,0,2,2545,
scooby_state_55ab23ccd7d9|50|1 2528,0,2,1,0,0,0,1,0,2,1,0,0,1,5,2541,
scooby_state_55ab23ccd7d9|14|1 2522,0,1,0,2,2,4,0,3,0,0,1,1,0,4,2540,
scooby_state_55ab23ccd7d9|34|1 2527,0,1,0,1,0,0,0,0,0,0,0,0,0,1,2530,
scooby_state_55ab23ccd7d9|56|1 2516,0,1,0,0,0,0,1,1,1,0,0,1,0,5,2526,
scooby_state_55ab23ccd7d9|16|1 2506,2,1,0,1,0,1,0,2,2,1,0,0,0,7,2523,
scooby_state_55ab23ccd7d9|5|1 2512,1,0,1,2,2,0,1,1,0,0,0,0,1,2,2523,
scooby_state_55ab23ccd7d9|42|1 2512,0,0,0,0,0,0,2,1,0,0,0,1,1,2,2519,
scooby_state_55ab23ccd7d9|15|1 2504,2,0,1,2,0,1,1,0,0,0,1,3,0,2,2517,
scooby_state_55ab23ccd7d9|25|1 2497,0,0,0,1,1,0,2,3,1,0,1,0,1,6,2513,
scooby_state_55ab23ccd7d9|60|1 2507,0,3,0,1,1,0,0,0,0,0,1,0,0,0,2513,
scooby_state_55ab23ccd7d9|9|1 2494,2,2,1,1,2,0,2,0,2,0,0,0,0,4,2510,
scooby_state_55ab23ccd7d9|47|1 2491,0,2,0,0,1,4,2,3,1,1,0,0,0,3,2508,
scooby_state_55ab23ccd7d9|57|1 2490,1,2,1,0,0,1,1,1,1,0,0,0,0,3,2501,
scooby_state_55ab23ccd7d9|23|1 2486,0,1,0,1,0,1,2,1,1,0,0,1,0,4,2498,
scooby_state_55ab23ccd7d9|51|1 2485,1,1,0,2,0,1,0,1,0,1,1,1,1,1,2496,
scooby_state_55ab23ccd7d9|13|1 2488,1,0,0,2,0,0,0,0,0,0,0,0,1,3,2495,
scooby_state_55ab23ccd7d9|3|1 2481,0,0,0,0,1,1,0,0,0,1,1,1,0,3,2489,
scooby_state_55ab23ccd7d9|20|1 2482,0,1,0,1,0,0,0,0,1,0,0,1,0,2,2488,
scooby_state_55ab23ccd7d9|8|1 2473,0,2,0,1,1,0,0,1,0,0,0,2,0,7,2487,
scooby_state_55ab23ccd7d9|17|1 2478,0,0,0,0,1,0,0,0,0,1,3,0,1,2,2486,
scooby_state_55ab23ccd7d9|12|1 2471,1,0,1,0,1,1,3,0,0,1,1,1,1,2,2484,
scooby_state_55ab23ccd7d9|33|1 2474,2,0,1,0,0,1,0,1,1,0,0,0,2,1,2483,
scooby_state_55ab23ccd7d9|36|1 2478,0,0,0,1,0,0,0,0,1,0,0,0,0,1,2481,
scooby_state_55ab23ccd7d9|44|1 2474,1,1,1,0,1,0,0,0,0,0,0,1,0,2,2481,
scooby_state_55ab23ccd7d9|4|1 2461,2,1,1,1,1,1,1,1,1,0,1,0,2,4,2478,
scooby_state_55ab23ccd7d9|55|1 2467,1,0,0,0,1,0,0,0,1,0,0,0,0,3,2473,
scooby_state_55ab23ccd7d9|19|1 2463,1,0,0,0,1,0,0,1,1,0,0,1,0,4,2472,
scooby_state_55ab23ccd7d9|49|1 2457,0,1,0,1,1,1,1,0,2,1,1,0,1,3,2470,
scooby_state_55ab23ccd7d9|58|1 2450,2,1,1,0,1,0,1,0,0,2,3,1,2,2,2466,
scooby_state_55ab23ccd7d9|35|1 2458,1,0,0,0,0,0,0,1,0,0,0,0,2,2,2464,
scooby_state_55ab23ccd7d9|21|1 2451,1,1,0,0,0,0,0,1,2,0,0,0,1,4,2461,
scooby_state_55ab23ccd7d9|30|1 2445,2,0,0,0,1,0,1,0,2,0,0,1,1,4,2457,
scooby_state_55ab23ccd7d9|7|1 2450,0,0,0,0,0,0,0,0,0,0,1,0,0,5,2456,
scooby_state_55ab23ccd7d9|22|1 2442,0,0,2,0,3,0,1,0,1,1,1,1,0,2,2454,
scooby_state_55ab23ccd7d9|32|1 2443,1,1,0,1,0,0,1,1,3,0,0,0,0,1,2452,
scooby_state_55ab23ccd7d9|41|1 2431,1,2,1,1,3,1,2,0,1,1,0,0,1,2,2447,
scooby_state_55ab23ccd7d9|29|1 2433,0,0,0,1,1,1,0,0,0,1,1,2,0,7,2447,
scooby_state_55ab23ccd7d9|10|1 2437,1,0,1,2,1,0,0,0,1,0,0,0,0,3,2446,
scooby_state_55ab23ccd7d9|43|1 2429,0,1,0,0,4,0,0,0,2,0,0,1,1,1,2439,
scooby_state_55ab23ccd7d9|31|1 2426,1,1,0,0,2,0,1,1,0,1,1,0,1,1,2436,
scooby_state_55ab23ccd7d9|45|1 2425,0,2,1,2,0,1,0,1,1,0,0,0,0,2,2435,
scooby_state_55ab23ccd7d9|26|1 2425,0,1,0,2,0,1,0,1,0,0,0,0,2,1,2433,
scooby_state_55ab23ccd7d9|37|1 2422,0,2,0,0,0,0,0,0,0,0,0,1,1,3,2429,
scooby_state_55ab23ccd7d9|39|1 2419,0,1,0,0,1,0,0,1,0,0,0,1,2,3,2428,
scooby_state_55ab23ccd7d9|18|1 2417,1,1,2,0,2,0,0,0,0,1,0,0,0,4,2428,
scooby_state_55ab23ccd7d9|61|1 2416,1,0,2,1,3,3,0,0,0,0,0,1,0,0,2427,
scooby_state_55ab23ccd7d9|52|1 2415,1,0,0,0,3,0,1,0,0,0,0,1,0,2,2423,
scooby_state_55ab23ccd7d9|40|1 2408,1,1,0,0,0,0,2,1,0,2,0,1,2,3,2421,
scooby_state_55ab23ccd7d9|48|1 2409,2,0,0,0,1,0,1,0,0,0,0,0,0,2,2415,
scooby_state_55ab23ccd7d9|38|1 2405,0,1,0,0,0,1,0,1,0,1,1,1,2,1,2414,
scooby_state_55ab23ccd7d9|28|1 2398,2,2,0,2,0,1,0,0,1,0,1,0,1,3,2411,
scooby_state_55ab23ccd7d9|46|1 2394,0,5,1,1,1,2,0,1,0,1,0,1,1,3,2411,
scooby_state_55ab23ccd7d9|63|1 2397,0,1,0,0,0,1,3,0,1,0,0,0,0,6,2409,
scooby_state_55ab23ccd7d9|11|1 2389,0,1,1,2,0,0,0,1,1,0,1,1,0,0,2397,
scooby_state_55ab23ccd7d9|53|1 2383,0,0,1,0,1,1,0,1,1,0,1,0,1,6,2396,
scooby_state_55ab23ccd7d9|62|1 2385,0,1,1,1,0,2,0,0,0,0,0,1,0,5,2396,
scooby_state_55ab23ccd7d9|6|1 2382,0,3,1,0,2,0,0,0,1,0,0,0,0,3,2392,
scooby_state_55ab23ccd7d9|27|1 2376,0,0,0,3,3,0,0,0,0,0,1,0,0,2,2385,
scooby_state_55ab23ccd7cb|49|1 0,2369,1,0,0,0,1,0,0,0,0,0,0,0,0,2371,
scooby_state_55ab23ccd7cb|26|1 0,2359,2,0,0,0,0,1,2,0,2,1,2,0,0,2369,
scooby_state_55ab23ccd7d9|54|1 2360,0,0,0,0,1,0,1,0,0,0,0,1,0,1,2364,
scooby_state_55ab23ccd7cb|19|1 0,2362,1,0,1,0,0,0,0,0,0,0,0,0,0,2364,
scooby_state_55ab23ccd7cb|44|1 1,2343,0,1,0,0,1,0,0,0,1,0,1,0,0,2348,
scooby_state_55ab23ccd7cb|60|1 0,2344,0,0,0,1,0,1,1,0,0,0,0,0,0,2347,
scooby_state_55ab23ccd7cb|9|1 0,2339,1,0,0,0,1,0,0,0,0,0,0,1,0,2342,
scooby_state_55ab23ccd7cb|18|1 0,2339,0,0,1,0,0,0,1,0,0,0,1,0,0,2342,
scooby_state_55ab23ccd7cb|24|1 1,2335,1,0,0,0,0,0,1,0,0,0,1,0,0,2339,
scooby_state_55ab23ccd7cb|6|1 0,2330,1,2,0,1,0,0,0,0,1,2,1,0,0,2338,
scooby_state_55ab23ccd7cb|46|1 0,2327,0,0,0,1,1,0,0,0,0,1,0,0,0,2330,
scooby_state_55ab23ccd7cb|47|1 0,2325,0,0,1,0,0,0,0,0,1,1,1,0,0,2329,
scooby_state_55ab23ccd7cb|5|1 0,2322,0,1,0,0,0,0,1,0,0,2,0,0,0,2326,
scooby_state_55ab23ccd7cb|23|1 0,2318,1,0,0,1,0,0,1,0,0,0,0,1,0,2322,
scooby_state_55ab23ccd7cb|63|1 0,2321,0,0,1,0,0,0,0,0,0,0,0,0,0,2322,
scooby_state_55ab23ccd7cb|27|1 0,2320,0,0,0,1,0,0,0,0,0,1,0,0,0,2322,
scooby_state_55ab23ccd7cb|55|1 0,2317,0,0,0,0,1,0,0,0,0,0,2,1,0,2321,
scooby_state_55ab23ccd7cb|0|0 0,2317,0,0,1,0,0,0,0,0,0,0,0,1,0,2319,
scooby_state_55ab23ccd7cb|48|1 1,2309,0,0,2,1,1,0,0,0,0,2,0,1,1,2318,
scooby_state_55ab23ccd7cb|54|1 0,2311,0,1,0,1,0,1,0,0,0,0,1,0,1,2316,
scooby_state_55ab23ccd7cb|20|1 1,2306,0,0,1,1,0,1,3,0,0,0,0,1,0,2314,
scooby_state_55ab23ccd7cb|61|1 0,2309,1,1,0,0,1,0,1,0,0,0,0,0,0,2313,
scooby_state_55ab23ccd7cb|28|1 0,2303,0,1,2,1,1,0,1,0,0,0,2,0,0,2311,
scooby_state_55ab23ccd7cb|16|1 0,2307,0,0,0,0,0,0,1,0,0,0,2,0,0,2310,
scooby_state_55ab23ccd7cb|51|1 0,2304,0,1,1,0,0,1,0,0,0,1,0,2,0,2310,
scooby_state_55ab23ccd7cb|30|1 0,2305,1,0,0,0,0,0,0,0,0,1,0,0,1,2308,
scooby_state_55ab23ccd7cb|37|1 0,2302,0,0,0,1,0,0,0,0,1,0,1,0,0,2305,
scooby_state_55ab23ccd7cb|17|1 0,2300,1,0,0,0,1,1,0,0,1,0,0,1,0,2305,
scooby_state_55ab23ccd7cb|58|1 1,2291,0,2,0,0,0,1,1,0,0,0,0,0,0,2296,
scooby_state_55ab23ccd7cb|57|1 1,2288,0,1,2,0,0,0,2,1,0,1,0,0,0,2296,
scooby_state_55ab23ccd7cb|34|1 1,2292,0,0,0,0,0,0,0,0,0,1,0,0,0,2294,
scooby_state_55ab23ccd7cb|52|1 0,2289,0,0,0,0,0,1,0,0,0,1,1,0,1,2293,
scooby_state_55ab23ccd7cb|2|1 0,2287,0,0,0,0,0,0,0,1,1,1,1,0,0,2291,
scooby_state_55ab23ccd7cb|42|1 0,2286,0,1,1,0,0,0,0,0,1,1,0,0,0,2290,
scooby_state_55ab23ccd7cb|45|1 0,2286,0,0,1,0,1,0,0,0,0,0,0,0,1,2289,
scooby_state_55ab23ccd7cb|33|1 1,2281,0,0,1,1,0,0,0,0,0,0,0,0,1,2285,
scooby_state_55ab23ccd7cb|22|1 0,2280,0,1,1,0,0,0,2,0,0,0,0,0,0,2284,
scooby_state_55ab23ccd7cb|13|1 0,2276,0,0,0,1,0,0,0,0,0,0,1,0,0,2278,
scooby_state_55ab23ccd7cb|41|1 0,2271,1,0,0,0,0,1,2,0,0,0,0,0,0,2275,
scooby_state_55ab23ccd7cb|53|1 0,2274,0,0,0,0,0,0,0,0,0,1,0,0,0,2275,
scooby_state_55ab23ccd7cb|29|1 0,2272,0,0,0,0,0,0,0,0,0,1,0,0,0,2273,
scooby_state_55ab23ccd7cb|4|1 0,2263,0,1,1,1,1,1,0,0,0,2,0,0,0,2270,
scooby_state_55ab23ccd7cb|15|1 0,2265,1,1,0,0,0,0,0,0,0,0,2,1,0,2270,
scooby_state_55ab23ccd7cb|38|1 0,2263,0,0,1,0,0,0,0,0,0,2,0,1,0,2267,
scooby_state_55ab23ccd7cb|40|1 0,2264,0,0,1,1,0,0,0,0,1,0,0,0,0,2267,
scooby_state_55ab23ccd7cb|11|1 0,2263,1,0,0,0,0,1,0,0,0,1,1,0,0,2267,
scooby_state_55ab23ccd7cb|10|1 1,2261,0,0,0,0,0,0,1,0,0,0,0,0,0,2263,
scooby_state_55ab23ccd7cb|14|1 0,2260,0,0,0,1,0,0,0,0,0,0,0,0,0,2261,
scooby_state_55ab23ccd7cb|3|1 1,2253,0,0,0,0,1,1,0,0,0,0,1,0,0,2257,
scooby_state_55ab23ccd7cb|56|1 1,2254,0,0,0,0,1,0,0,0,0,0,0,1,0,2257,
scooby_state_55ab23ccd7cb|39|1 0,2255,1,0,0,0,0,0,0,0,0,0,0,0,0,2256,
scooby_state_55ab23ccd7cb|35|1 0,2251,0,0,0,0,0,1,0,0,0,1,0,0,0,2253,
scooby_state_55ab23ccd7cb|62|1 0,2248,0,0,0,1,0,0,0,0,0,0,0,1,1,2251,
scooby_state_55ab23ccd7cb|7|1 0,2244,0,1,0,0,1,1,0,0,0,0,1,1,0,2249,
scooby_state_55ab23ccd7cb|59|1 0,2242,0,0,0,0,1,0,0,0,1,0,0,0,0,2244,
scooby_state_55ab23ccd7cb|32|1 0,2241,0,0,0,1,0,0,0,0,1,0,0,1,0,2244,
scooby_state_55ab23ccd7cb|50|1 0,2237,1,0,0,0,0,0,0,0,0,0,1,0,0,2239,
scooby_state_55ab23ccd7cb|31|1 0,2229,1,0,0,0,0,0,0,0,0,0,0,1,2,2233,
scooby_state_55ab23ccd7cb|25|1 0,2229,0,0,0,1,1,0,0,0,0,0,0,0,0,2231,
scooby_state_55ab23ccd7cb|36|1 0,2224,0,0,0,1,1,0,1,0,0,0,0,0,0,2227,
scooby_state_55ab23ccd7cb|12|1 1,2214,1,0,0,0,0,0,0,0,1,0,0,1,0,2218,
scooby_state_55ab23ccd7cb|8|1 0,2215,0,0,0,0,0,0,0,0,0,1,0,0,0,2216,
scooby_state_55ab23ccd7cb|43|1 0,2197,2,0,1,1,0,0,0,0,0,0,0,0,0,2201,
scooby_state_55ab23ccd7cb|1|1 2,2190,0,0,0,1,2,0,0,2,0,0,0,0,0,2197,
scooby_state_55ab23ccd7cb|21|1 0,2188,0,0,1,1,1,2,0,0,0,1,0,1,0,2195,
scooby_state_55ab23ccd4a0|63|1 2044,1,0,0,0,0,1,0,0,0,1,0,0,1,0,2048,
scooby_state_55ab23ccd4a0|7|1 2042,1,0,1,1,1,1,1,0,0,0,0,0,0,0,2048,
scooby_state_55ab23ccd4a0|9|1 2043,0,0,2,1,0,0,0,0,0,1,0,0,0,1,2048,
scooby_state_55ab23ccd4a0|43|1 2043,0,0,0,1,1,1,1,0,1,0,0,0,0,0,2048,
scooby_state_55ab23ccd4a0|28|1 2044,0,0,0,1,1,0,0,0,0,0,0,0,1,1,2048,
scooby_state_55ab23ccd4a0|26|1 2041,1,1,0,0,0,0,1,0,1,1,0,1,1,0,2048,
scooby_state_55ab23ccd4a0|32|1 2045,1,0,0,0,0,0,0,0,1,0,1,0,0,0,2048,
scooby_state_55ab23ccd4a0|44|1 2045,0,0,1,0,0,0,2,0,0,0,0,0,0,0,2048,
scooby_state_55ab23ccd4a0|42|1 2046,0,0,0,1,0,0,0,0,0,0,0,1,0,0,2048,
scooby_state_55ab23ccd4a0|20|1 2045,0,0,0,0,0,0,0,1,1,0,0,0,1,0,2048,
scooby_state_55ab23ccd4a0|48|1 2045,0,0,0,1,0,1,0,0,0,1,0,0,0,0,2048,
scooby_state_55ab23ccd4a0|29|1 2043,1,0,0,1,0,0,1,0,0,0,1,0,0,1,2048,
scooby_state_55ab23ccd4a0|34|1 2046,0,0,0,0,0,1,0,0,1,0,0,0,0,0,2048,
scooby_state_55ab23ccd4a0|45|1 2043,1,0,0,1,0,1,1,1,0,0,0,0,0,0,2048,
scooby_state_55ab23ccd4a0|47|1 2045,0,0,1,0,1,0,0,0,0,0,1,0,0,0,2048,
scooby_state_55ab23ccd4a0|10|1 2042,1,0,0,1,0,2,0,0,0,0,1,0,0,1,2048,
scooby_state_55ab23ccd4a0|55|1 2044,0,1,0,0,1,0,0,0,0,0,1,0,0,1,2048,
scooby_state_55ab23ccd4a0|22|1 2042,0,0,1,1,1,1,0,1,0,0,1,0,0,0,2048,
scooby_state_55ab23ccd4a0|16|1 2045,0,0,0,2,0,0,1,0,0,0,0,0,0,0,2048,
scooby_state_55ab23ccd4a0|59|1 2046,0,1,0,0,0,0,0,1,0,0,0,0,0,0,2048,
scooby_state_55ab23ccd4a0|33|1 2045,0,0,0,1,0,0,0,0,2,0,0,0,0,0,2048,
scooby_state_55ab23ccd4a0|13|1 2043,1,1,0,0,1,1,0,0,0,0,1,0,0,0,2048,
scooby_state_55ab23ccd4a0|50|1 2045,0,0,1,0,0,0,1,0,0,0,0,0,1,0,2048,
scooby_state_55ab23ccd4a0|49|1 2046,0,0,0,0,0,0,0,0,0,0,0,0,0,2,2048,
scooby_state_55ab23ccd4a0|60|1 2044,1,1,1,0,0,0,0,0,0,0,0,0,0,1,2048,
scooby_state_55ab23ccd4a0|6|1 2046,0,1,1,0,0,0,0,0,0,0,0,0,0,0,2048,
scooby_state_55ab23ccd4a0|18|1 2043,1,1,1,1,0,0,0,0,1,0,0,0,0,0,2048,
scooby_state_55ab23ccd4a0|4|1 2046,0,1,0,0,0,0,0,0,0,0,0,0,1,0,2048,
scooby_state_55ab23ccd4a0|15|1 2044,0,0,0,0,1,0,1,0,0,0,1,0,1,0,2048,
scooby_state_55ab23ccd4a0|14|1 2041,0,1,1,0,0,0,0,0,1,3,0,0,0,1,2048,
scooby_state_55ab23ccd4a0|56|1 2047,0,0,0,0,0,0,0,0,1,0,0,0,0,0,2048,
scooby_state_55ab23ccd4a0|24|1 2045,1,0,0,0,0,0,1,0,0,1,0,0,0,0,2048,
scooby_state_55ab23ccd4a0|30|1 2043,0,0,0,1,2,0,0,0,0,0,1,1,0,0,2048,
scooby_state_55ab23ccd4a0|38|1 2046,0,0,0,1,0,0,0,0,0,0,0,1,0,0,2048,
scooby_state_55ab23ccd4a0|40|1 2044,1,0,0,0,0,1,1,0,0,0,1,0,0,0,2048,
scooby_state_55ab23ccd4a0|31|1 2042,2,0,0,0,1,0,0,1,2,0,0,0,0,0,2048,
scooby_state_55ab23ccd4a0|62|1 2044,0,0,0,0,0,0,0,2,0,1,1,0,0,0,2048,
scooby_state_55ab23ccd4a0|51|1 2044,0,1,0,1,0,1,0,0,0,0,0,0,0,1,2048,
scooby_state_55ab23ccd4a0|3|1 2043,0,0,0,1,0,0,0,1,0,0,1,1,0,1,2048,
scooby_state_55ab23ccd4a0|37|1 2048,0,0,0,0,0,0,0,0,0,0,0,0,0,0,2048,
scooby_state_55ab23ccd4a0|23|1 2044,1,1,0,0,0,0,0,0,0,0,1,0,0,1,2048,
scooby_state_55ab23ccd4a0|0|0 2043,1,0,0,0,2,0,0,0,0,0,1,1,0,0,2048,
scooby_state_55ab23ccd4a0|35|1 2046,0,0,0,0,0,1,1,0,0,0,0,0,0,0,2048,
scooby_state_55ab23ccd4a0|46|1 2044,0,0,1,0,0,0,0,0,1,1,0,0,1,0,2048,
scooby_state_55ab23ccd4a0|8|1 2043,0,0,1,2,0,0,0,0,1,0,0,0,1,0,2048,
scooby_state_55ab23ccd4a0|58|1 2046,0,0,0,0,0,0,0,1,1,0,0,0,0,0,2048,
scooby_state_55ab23ccd4a0|36|1 2046,0,0,0,0,0,0,1,0,0,1,0,0,0,0,2048,
scooby_state_55ab23ccd4a0|1|1 2046,0,0,0,0,0,0,0,0,0,0,0,1,1,0,2048,
scooby_state_55ab23ccd4a0|25|1 2041,0,0,1,1,0,1,1,0,0,0,0,2,0,1,2048,
scooby_state_55ab23ccd4a0|41|1 2044,0,0,0,1,0,0,0,1,0,0,1,1,0,0,2048,
scooby_state_55ab23ccd4a0|12|1 2042,1,1,0,0,2,0,2,0,0,0,0,0,0,0,2048,
scooby_state_55ab23ccd4a0|39|1 2045,1,0,0,0,1,0,0,0,0,0,0,1,0,0,2048,
scooby_state_55ab23ccd4a0|5|1 2046,0,0,0,0,0,0,0,0,0,0,0,0,0,2,2048,
scooby_state_55ab23ccd4a0|53|1 2043,1,1,0,0,0,1,0,0,0,1,1,0,0,0,2048,
scooby_state_55ab23ccd4a0|61|1 2046,0,0,1,0,0,0,0,1,0,0,0,0,0,0,2048,
scooby_state_55ab23ccd4a0|57|1 2046,0,0,0,0,1,1,0,0,0,0,0,0,0,0,2048,
scooby_state_55ab23ccd4a0|54|1 2042,0,0,1,0,0,1,0,0,0,1,1,1,1,0,2048,
scooby_state_55ab23ccd4a0|19|1 2040,1,0,0,1,2,1,1,0,1,1,0,0,0,0,2048,
scooby_state_55ab23ccd4a0|21|1 2046,0,0,0,1,0,0,1,0,0,0,0,0,0,0,2048,
scooby_state_55ab23ccd4a0|27|1 2044,1,0,0,0,0,0,1,1,0,1,0,0,0,0,2048,
scooby_state_55ab23ccd4a0|17|1 2044,1,0,0,1,0,1,0,0,0,0,1,0,0,0,2048,
scooby_state_55ab23ccd4a0|52|1 2045,0,0,0,0,0,0,0,0,2,0,0,0,1,0,2048,
scooby_state_55ab23ccd4a0|2|1 2043,1,2,0,0,0,0,0,1,0,0,0,0,0,1,2048,
scooby_state_55ab23ccd4a0|11|1 2046,0,0,0,0,0,0,0,2,0,0,0,0,0,0,2048,
scooby_state_55ab23ccd7d9|3|0 1819,1,1,0,2,1,0,0,0,1,0,0,0,1,7,1833,
scooby_state_55ab23ccd7d9|4|0 1738,0,1,0,1,1,1,2,0,1,2,2,0,0,3,1752,
scooby_state_55ab23ccd7d9|5|0 1609,1,0,0,1,0,0,1,1,1,0,0,2,1,8,1625,
scooby_state_55ab23ccd7d9|6|0 1599,0,2,1,0,0,0,0,1,0,0,2,0,0,8,1613,
scooby_state_55ab23ccd7d9|7|0 1535,0,1,0,0,0,1,0,0,3,1,0,0,0,7,1548,
scooby_state_55ab23ccd7d9|8|0 1221,0,0,1,0,0,0,0,2,2,0,0,0,0,5,1231,
scooby_state_55ab23ccd7d9|9|0 1012,2,0,0,0,0,0,1,1,0,0,1,0,0,5,1022,
scooby_state_55ab23ccd7d9|10|0 931,0,0,1,2,0,0,0,1,1,0,0,0,0,7,943,
scooby_state_55ab23ccd7d9|11|0 910,1,1,0,0,0,0,0,0,2,0,1,0,0,7,922,
scooby_state_55ab23ccd7d9|12|0 861,1,0,0,0,0,0,0,0,1,0,1,0,0,10,874,
scooby_state_55ab23ccd7d9|13|0 829,1,0,1,1,0,0,0,0,1,0,0,0,0,5,838,
scooby_state_55ab23ccd7d9|53|3 823,1,1,0,0,1,0,0,0,0,1,0,0,0,10,837,
scooby_state_55ab23ccd7d9|50|3 824,1,0,0,0,0,0,0,0,1,0,0,0,0,6,832,
scooby_state_55ab23ccd7d9|23|3 799,0,1,0,0,0,0,0,0,0,0,0,0,0,5,805,
scooby_state_55ab23ccd7d9|14|0 782,1,0,0,0,0,0,1,0,0,0,1,0,1,8,794,
scooby_state_55ab23ccd7d9|35|3 788,0,0,0,0,0,0,0,0,0,0,0,0,0,6,794,
scooby_state_55ab23ccd7d9|28|3 788,0,0,0,0,0,0,1,0,0,0,0,0,0,4,793,
scooby_state_55ab23ccd7d9|5|3 786,0,1,0,0,0,0,0,0,0,0,0,0,0,6,793,
scooby_state_55ab23ccd7d9|56|3 782,1,0,1,1,1,0,0,0,0,0,0,0,0,7,793,
scooby_state_55ab23ccd7d9|48|3 784,0,1,0,0,0,0,0,0,1,0,0,0,0,5,791,
scooby_state_55ab23ccd7d9|45|3 783,0,1,0,0,0,0,0,0,0,0,0,0,0,7,791,
scooby_state_55ab23ccd7d9|3|3 782,0,0,0,0,0,0,0,0,0,0,0,0,0,6,788,
scooby_state_55ab23ccd7d9|8|3 777,0,2,0,0,0,1,1,0,0,0,0,0,0,6,787,
scooby_state_55ab23ccd7d9|12|3 774,1,3,1,0,0,0,0,0,0,0,0,0,0,8,787,
scooby_state_55ab23ccd7d9|6|3 779,0,0,0,1,0,0,0,0,0,0,0,0,0,5,785,
scooby_state_55ab23ccd7d9|13|3 780,0,1,0,0,0,0,0,0,0,0,1,0,0,3,785,
scooby_state_55ab23ccd7d9|19|3 775,0,0,1,0,0,0,0,1,0,0,0,0,0,4,781,
scooby_state_55ab23ccd7d9|47|3 772,1,0,0,0,0,0,0,0,0,0,0,1,0,6,780,
scooby_state_55ab23ccd7d9|40|3 770,0,1,0,0,0,0,0,1,0,0,0,1,0,5,778,
scooby_state_55ab23ccd7d9|17|3 770,1,0,0,0,0,0,0,0,0,1,0,0,1,5,778,
scooby_state_55ab23ccd7d9|27|3 769,0,0,0,0,0,2,0,0,0,0,0,0,0,2,773,
scooby_state_55ab23ccd7d9|7|3 769,0,1,0,0,0,0,0,0,0,0,0,0,0,1,771,
scooby_state_55ab23ccd7d9|39|3 769,0,0,0,0,0,0,0,0,0,0,0,0,0,2,771,
scooby_state_55ab23ccd7d9|15|0 756,1,1,0,1,1,0,1,0,0,1,0,0,0,8,770,
scooby_state_55ab23ccd7d9|16|3 759,0,0,0,1,0,1,0,0,0,0,0,0,0,8,769,
scooby_state_55ab23ccd7d9|46|3 761,0,1,0,2,0,0,0,0,0,0,0,0,0,4,768,
scooby_state_55ab23ccd7d9|38|3 761,0,0,0,0,0,0,1,0,0,0,0,0,0,6,768,
scooby_state_55ab23ccd7d9|37|3 762,0,1,0,0,0,0,0,0,0,0,0,0,0,3,766,
scooby_state_55ab23ccd7d9|14|3 762,0,0,0,2,0,0,0,0,0,0,0,0,0,2,766,
scooby_state_55ab23ccd7d9|18|3 758,0,0,0,1,0,0,1,0,0,0,0,0,0,5,765,
scooby_state_55ab23ccd7d9|22|3 755,0,0,0,0,0,0,0,0,0,0,1,0,0,2,758,
scooby_state_55ab23ccd7d9|33|3 754,0,0,0,0,0,0,0,0,0,0,0,0,0,4,758,
scooby_state_55ab23ccd7d9|25|3 753,0,2,0,0,0,0,0,0,1,0,0,0,0,2,758,
scooby_state_55ab23ccd7d9|16|0 749,0,0,0,0,0,0,0,0,0,1,0,0,0,5,755,
scooby_state_55ab23ccd7d9|4|3 749,0,0,0,1,1,0,1,0,0,0,0,0,1,1,754,
scooby_state_55ab23ccd7d9|29|3 745,1,0,1,0,0,0,0,0,0,0,0,0,0,6,753,
scooby_state_55ab23ccd7d9|11|3 746,0,0,1,1,0,0,0,0,0,0,0,0,0,4,752,
scooby_state_55ab23ccd7d9|59|3 739,0,1,0,0,0,0,0,0,2,0,0,0,0,10,752,
scooby_state_55ab23ccd7d9|62|3 743,1,0,0,0,0,0,0,0,0,0,0,1,0,7,752,
scooby_state_55ab23ccd7d9|61|3 749,0,0,0,0,0,0,0,0,0,0,0,0,0,2,751,
scooby_state_55ab23ccd7d9|31|3 744,0,0,0,0,0,0,0,0,0,0,0,0,0,6,750,
scooby_state_55ab23ccd7d9|42|3 745,0,1,0,0,0,0,0,0,0,0,0,0,0,4,750,
scooby_state_55ab23ccd7d9|43|3 741,0,0,0,0,0,0,1,0,0,0,0,0,0,7,749,
scooby_state_55ab23ccd7d9|51|3 738,0,1,0,0,1,0,0,0,0,0,0,0,0,7,747,
scooby_state_55ab23ccd7d9|34|3 740,0,1,0,1,0,0,0,0,0,0,0,0,0,4,746,
scooby_state_55ab23ccd7d9|52|3 741,0,0,0,0,0,0,0,0,0,0,0,1,0,4,746,
scooby_state_55ab23ccd7d9|36|3 739,1,0,0,1,0,0,0,0,0,0,1,0,0,3,745,
scooby_state_55ab23ccd7d9|15|3 737,0,0,0,0,0,0,0,0,0,0,0,0,0,5,742,
scooby_state_55ab23ccd7d9|20|3 735,0,0,0,0,0,0,0,0,0,0,0,0,1,4,740,
scooby_state_55ab23ccd7d9|41|3 733,0,0,0,2,1,0,0,0,0,0,0,0,0,3,739,
scooby_state_55ab23ccd7d9|63|3 732,0,0,0,0,0,0,0,0,0,0,0,0,1,6,739,
scooby_state_55ab23ccd7d9|20|0 724,0,0,0,1,0,0,0,0,0,0,0,0,1,9,735,
scooby_state_55ab23ccd7d9|57|3 725,0,1,0,0,0,1,0,0,0,0,0,0,0,5,732,
scooby_state_55ab23ccd7d9|32|3 724,0,0,0,0,0,0,0,0,0,0,0,0,0,7,731,
scooby_state_55ab23ccd7d9|55|3 726,1,0,0,0,0,0,0,0,0,0,0,0,1,2,730,
scooby_state_55ab23ccd7d9|49|3 722,0,0,0,0,0,1,0,0,0,0,0,0,0,4,727,
scooby_state_55ab23ccd7d9|30|3 723,0,0,0,0,0,0,0,0,0,1,0,0,0,3,727,
scooby_state_55ab23ccd7d9|9|3 717,0,1,0,0,1,0,1,0,0,0,0,0,1,4,725,
scooby_state_55ab23ccd7d9|60|3 718,0,0,0,0,0,0,0,0,0,0,0,0,0,4,722,
scooby_state_55ab23ccd7d9|54|3 718,0,1,0,0,0,0,0,0,1,0,0,0,0,2,722,
scooby_state_55ab23ccd7d9|26|3 711,0,0,0,1,1,0,0,0,0,0,0,0,0,8,721,
scooby_state_55ab23ccd7d9|19|0 712,0,2,0,0,1,0,0,0,0,0,0,0,0,5,720,
scooby_state_55ab23ccd7d9|23|0 709,1,1,0,0,0,0,0,0,0,0,0,1,1,4,717,
scooby_state_55ab23ccd7d9|10|3 710,0,0,0,0,0,0,0,0,0,0,0,0,0,4,714,
scooby_state_55ab23ccd7d9|44|3 702,0,0,0,0,0,0,0,0,0,0,0,0,0,6,708,
scooby_state_55ab23ccd7d9|24|3 702,0,1,0,0,0,0,0,0,0,0,0,1,0,4,708,
scooby_state_55ab23ccd7d9|58|3 699,0,1,1,2,0,0,0,0,0,0,1,0,0,3,707,
scooby_state_55ab23ccd7d9|21|0 695,0,0,0,0,0,0,1,0,0,0,0,0,0,5,701,
scooby_state_55ab23ccd7d9|58|2 685,0,0,0,1,0,0,0,0,0,0,0,0,0,0,686,
scooby_state_55ab23ccd7d9|21|3 684,0,0,0,0,0,0,0,0,0,0,0,1,0,1,686,
scooby_state_55ab23ccd7d9|24|0 668,0,1,1,0,0,0,1,0,0,0,0,1,0,5,677,
scooby_state_55ab23ccd7d9|22|0 665,0,1,0,1,0,0,0,0,1,0,0,0,0,6,674,
scooby_state_55ab23ccd7d9|18|0 663,0,1,0,0,0,0,1,0,0,0,0,0,0,5,670,
scooby_state_55ab23ccd7d9|19|2 647,1,0,0,2,0,0,1,0,0,0,0,2,0,5,658,
scooby_state_55ab23ccd7d9|14|2 652,0,1,0,1,1,0,0,1,0,0,1,0,0,0,657,
scooby_state_55ab23ccd7d9|21|2 652,2,0,0,0,0,0,0,0,0,0,0,0,0,1,655,
scooby_state_55ab23ccd7d9|17|0 651,0,0,0,0,0,0,0,0,0,0,1,0,0,1,653,
scooby_state_55ab23ccd7d9|23|2 642,0,0,0,1,0,0,2,0,0,1,1,0,0,3,650,
scooby_state_55ab23ccd7d9|16|2 646,0,0,0,0,0,0,0,0,1,1,0,0,0,2,650,
scooby_state_55ab23ccd7d9|55|2 643,0,1,0,0,0,0,1,0,0,0,1,0,0,2,648,
scooby_state_55ab23ccd7d9|50|2 636,0,1,0,0,0,0,0,1,0,0,2,0,0,0,640,
scooby_state_55ab23ccd7d9|22|2 632,0,1,0,1,0,0,0,0,0,0,2,1,0,3,640,
scooby_state_55ab23ccd7d9|12|2 635,0,0,0,0,0,0,0,0,1,0,1,0,0,1,638,
scooby_state_55ab23ccd7d9|49|2 631,0,1,0,0,0,0,0,0,0,1,1,0,1,1,636,
scooby_state_55ab23ccd7d9|3|2 628,0,0,0,0,0,0,0,1,0,0,3,0,0,4,636,
scooby_state_55ab23ccd7d9|45|2 626,0,0,0,0,0,0,0,0,1,0,1,0,0,5,633,
scooby_state_55ab23ccd7d9|44|2 627,0,0,0,0,1,0,0,0,0,0,1,1,0,1,631,
scooby_state_55ab23ccd7d9|61|2 620,0,1,1,0,0,1,0,0,0,0,1,2,1,4,631,
scooby_state_55ab23ccd7d9|20|2 622,0,0,0,1,1,0,0,0,0,0,2,1,1,0,628,
scooby_state_55ab23ccd7d9|59|2 623,0,1,0,0,1,1,0,0,0,0,0,0,0,1,627,
scooby_state_55ab23ccd7d9|46|2 619,0,0,0,0,2,0,0,0,0,0,3,0,0,2,626,
scooby_state_55ab23ccd7d9|18|2 618,0,1,0,0,0,0,0,0,2,0,0,0,0,4,625,
scooby_state_55ab23ccd7d9|17|2 621,0,0,0,0,0,0,0,0,1,0,1,0,0,1,624,
scooby_state_55ab23ccd7d9|10|2 622,1,0,0,0,0,0,0,0,0,0,0,1,0,0,624,
scooby_state_55ab23ccd7d9|43|2 617,0,0,0,1,0,0,0,0,1,0,0,0,1,2,622,
scooby_state_55ab23ccd7d9|4|2 610,0,1,0,0,0,0,0,1,2,2,1,0,1,3,621,
scooby_state_55ab23ccd7d9|48|2 616,0,0,0,1,0,0,2,0,0,0,0,0,0,2,621,
scooby_state_55ab23ccd7d9|63|2 614,0,0,0,0,0,0,1,0,0,0,0,1,1,3,620,
scooby_state_55ab23ccd7d9|33|2 610,0,1,0,0,0,1,0,0,0,2,1,0,0,1,616,
scooby_state_55ab23ccd7d9|8|2 610,0,0,1,0,1,0,0,1,0,0,2,0,1,0,616,
scooby_state_55ab23ccd7d9|25|2 607,0,0,0,0,0,0,3,1,0,0,0,0,0,3,614,
scooby_state_55ab23ccd7d9|54|2 607,0,0,0,0,0,0,1,0,1,0,1,0,0,4,614,
scooby_state_55ab23ccd7d9|28|2 609,0,0,0,0,0,0,1,0,0,0,0,0,0,3,613,
scooby_state_55ab23ccd7d9|53|2 607,1,0,0,0,0,2,0,0,0,0,1,1,0,1,613,
scooby_state_55ab23ccd7d9|5|2 609,0,0,0,0,0,0,0,1,0,0,0,1,0,2,613,
scooby_state_55ab23ccd7d9|32|2 609,0,1,0,0,0,0,0,0,0,0,0,0,0,2,612,
scooby_state_55ab23ccd7d9|11|2 606,0,0,0,0,1,1,1,0,0,0,1,0,0,1,611,
scooby_state_55ab23ccd7d9|31|2 604,0,0,0,0,0,0,0,0,0,1,0,0,0,5,610,
scooby_state_55ab23ccd7d9|39|2 599,0,0,1,1,0,0,1,0,0,0,3,0,0,4,609,
scooby_state_55ab23ccd7d9|36|2 606,0,0,0,0,0,0,0,0,1,0,0,0,0,1,608,
scooby_state_55ab23ccd7d9|37|2 601,0,1,0,0,1,0,0,1,0,0,0,0,2,0,606,
scooby_state_55ab23ccd7d9|57|2 601,0,0,0,0,0,1,1,0,0,0,0,0,0,2,605,
scooby_state_55ab23ccd7d9|47|2 597,0,0,0,0,0,0,1,2,0,1,0,0,0,0,601,
scooby_state_55ab23ccd7d9|42|2 593,1,0,1,0,0,1,1,0,0,0,1,0,0,3,601,
scooby_state_55ab23ccd7d9|15|2 596,0,0,0,0,0,0,0,0,0,0,0,0,1,3,600,
scooby_state_55ab23ccd7d9|26|2 590,0,1,1,0,1,0,0,1,1,0,0,0,1,3,599,
scooby_state_55ab23ccd7d9|62|2 594,0,0,0,1,0,0,0,0,1,0,0,1,0,2,599,
scooby_state_55ab23ccd7d9|25|0 584,0,1,0,3,0,0,1,0,0,2,0,0,0,6,597,
scooby_state_55ab23ccd7d9|29|2 595,0,0,0,0,0,0,0,0,0,0,0,0,0,2,597,
scooby_state_55ab23ccd7d9|7|2 589,0,0,0,0,0,0,1,0,0,0,1,1,0,0,592,
scooby_state_55ab23ccd7d9|52|2 584,0,0,0,1,1,0,1,0,0,0,1,1,0,1,590,
scooby_state_55ab23ccd7d9|41|2 580,0,1,0,0,1,0,0,0,0,0,2,0,1,3,588,
scooby_state_55ab23ccd7d9|56|2 583,0,1,0,0,0,0,0,0,0,0,0,0,0,2,586,
scooby_state_55ab23ccd7d9|9|2 582,1,0,0,0,1,0,0,0,0,0,1,0,0,1,586,
scooby_state_55ab23ccd7d9|6|2 577,2,1,0,0,2,0,0,0,0,0,3,0,0,1,586,
scooby_state_55ab23ccd7d9|35|2 577,0,1,0,0,0,1,0,1,0,0,0,1,0,2,583,
scooby_state_55ab23ccd7d9|60|2 577,0,0,1,0,0,0,0,0,0,1,0,0,1,2,582,
scooby_state_55ab23ccd7d9|13|2 573,0,0,0,0,2,0,0,1,0,0,1,1,0,3,581,
scooby_state_55ab23ccd7d9|38|2 577,0,0,0,1,0,0,0,0,0,1,0,0,0,2,581,
scooby_state_55ab23ccd7d9|2|2 574,0,0,0,0,0,0,0,1,1,0,1,1,0,2,580,
scooby_state_55ab23ccd7d9|34|2 574,0,0,0,0,0,0,0,0,0,0,1,0,0,0,575,
scooby_state_55ab23ccd7d9|30|2 569,0,0,0,1,1,0,0,0,0,0,0,1,0,2,574,
scooby_state_55ab23ccd7d9|51|2 561,0,0,0,0,1,1,0,0,0,0,2,1,0,5,571,
scooby_state_55ab23ccd7d9|24|2 560,0,0,0,1,0,0,0,1,0,0,1,1,0,1,565,
scooby_state_55ab23ccd7d9|27|2 554,1,0,1,0,0,0,0,1,0,0,1,1,0,4,563,
scooby_state_55ab23ccd7d9|40|2 541,1,0,0,1,1,0,0,0,0,0,0,0,0,2,546,
scooby_state_55ab23ccd7fd|1|1 467,54,3,0,4,0,0,1,0,0,1,1,1,0,0,532,
scooby_state_55ab23ccd7fd|57|1 441,75,4,1,2,0,1,0,1,1,0,0,1,0,2,529,
scooby_state_55ab23ccd7d9|26|0 518,0,1,0,0,0,0,0,0,0,0,0,0,0,6,525,
scooby_state_55ab23ccd7fd|31|1 442,57,3,2,4,0,0,0,1,1,0,2,0,3,0,515,
scooby_state_55ab23ccd7fd|54|1 449,49,4,0,3,1,1,3,1,1,0,0,1,1,0,514,
scooby_state_55ab23ccd7fd|34|1 446,53,4,1,4,2,0,0,2,0,1,0,1,0,0,514,
scooby_state_55ab23ccd7fd|35|1 445,54,6,1,2,0,0,0,0,2,0,0,2,0,1,513,
scooby_state_55ab23ccd7fd|3|1 446,48,5,3,2,1,0,0,1,0,0,2,1,1,1,511,
scooby_state_55ab23ccd7fd|12|1 436,58,5,1,2,0,2,0,1,2,0,2,0,1,1,511,
scooby_state_55ab23ccd7fd|48|1 449,41,7,1,3,1,1,1,1,1,0,0,1,1,1,509,
scooby_state_55ab23ccd7fd|46|1 437,54,4,0,4,1,0,2,0,0,0,3,0,0,0,505,
scooby_state_55ab23ccd7fd|56|1 435,50,5,3,4,2,0,1,0,0,0,1,2,0,1,504,
scooby_state_55ab23ccd7fd|21|1 423,62,3,3,2,0,2,1,0,0,0,0,1,0,2,499,
scooby_state_55ab23ccd7fd|22|1 420,61,10,1,1,0,0,0,0,0,0,0,2,2,1,498,
scooby_state_55ab23ccd7fd|8|1 432,56,2,0,1,1,1,0,1,1,0,0,0,0,0,495,
scooby_state_55ab23ccd7fd|26|1 416,65,3,2,0,1,1,0,0,0,0,0,1,0,3,492,
scooby_state_55ab23ccd7fd|60|1 432,42,3,1,2,2,0,0,0,0,2,2,3,1,2,492,
scooby_state_55ab23ccd7fd|13|1 419,59,3,1,4,0,0,0,0,1,0,2,1,0,1,491,
scooby_state_55ab23ccd7fd|39|1 427,50,2,3,5,0,1,0,0,0,0,1,1,1,0,491,
scooby_state_55ab23ccd7fd|17|1 425,51,2,4,2,3,1,2,0,0,1,0,0,0,0,491,
scooby_state_55ab23ccd7fd|40|1 426,46,6,2,3,0,1,0,2,1,0,1,1,0,1,490,
scooby_state_55ab23ccd7fd|20|1 413,59,6,2,1,2,1,0,0,1,2,2,0,1,0,490,
scooby_state_55ab23ccd7fd|33|1 440,35,6,0,1,1,0,0,1,0,1,0,0,2,1,488,
scooby_state_55ab23ccd7fd|11|1 423,55,1,1,0,1,0,1,2,0,0,2,0,0,0,486,
scooby_state_55ab23ccd7fd|18|1 409,63,1,2,5,1,0,0,0,0,1,2,1,0,0,485,
scooby_state_55ab23ccd7fd|55|1 411,54,7,1,1,1,3,1,0,1,0,1,1,3,0,485,
scooby_state_55ab23ccd7fd|10|1 418,57,3,0,3,0,1,0,0,0,1,0,0,1,0,484,
scooby_state_55ab23ccd7fd|58|1 420,51,1,0,1,1,3,0,0,0,1,2,1,1,0,482,
scooby_state_55ab23ccd7fd|43|1 407,62,3,0,3,0,2,0,1,0,1,2,1,0,0,482,
scooby_state_55ab23ccd7fd|15|1 409,54,4,2,3,0,3,1,0,0,1,2,0,0,2,481,
scooby_state_55ab23ccd7fd|45|1 415,49,4,2,6,0,0,1,1,0,0,0,2,1,0,481,
scooby_state_55ab23ccd7fd|5|1 415,51,2,1,6,0,2,0,2,0,0,0,0,0,0,479,
scooby_state_55ab23ccd7fd|2|1 411,51,9,1,2,1,0,1,1,0,0,0,0,1,1,479,
scooby_state_55ab23ccd7fd|32|1 403,50,8,4,3,1,0,1,2,0,1,2,0,1,2,478,
scooby_state_55ab23ccd7fd|14|1 403,56,5,0,1,3,0,1,1,2,2,1,0,1,1,477,
scooby_state_55ab23ccd7fd|24|1 409,47,6,1,5,1,2,2,1,0,0,2,0,0,1,477,
scooby_state_55ab23ccd7fd|47|1 417,46,5,1,4,0,0,1,0,0,0,1,0,0,0,475,
scooby_state_55ab23ccd7fd|0|0 11,34,269,5,22,24,18,9,30,16,10,5,6,5,10,474,
scooby_state_55ab23ccd7fd|59|1 404,54,7,0,4,0,0,1,0,0,1,1,0,0,1,473,
scooby_state_55ab23ccd7fd|44|1 407,55,1,1,3,0,1,0,2,0,0,1,1,0,1,473,
scooby_state_55ab23ccd7fd|6|1 402,56,8,0,2,0,1,0,1,0,0,0,1,0,1,472,
scooby_state_55ab23ccd7fd|16|1 386,62,6,5,1,2,1,2,0,2,1,1,0,0,2,471,
scooby_state_55ab23ccd7fd|53|1 408,49,5,2,2,0,2,1,0,0,0,1,0,1,0,471,
scooby_state_55ab23ccd7fd|9|1 385,63,6,2,3,1,2,0,1,2,1,1,1,0,1,469,
scooby_state_55ab23ccd7fd|42|1 405,45,4,2,5,2,1,0,0,0,3,1,0,0,1,469,
scooby_state_55ab23ccd7fd|30|1 396,53,6,1,4,0,2,0,1,0,2,1,1,0,1,468,
scooby_state_55ab23ccd7fd|49|1 393,55,0,3,5,2,2,3,0,1,0,1,2,0,0,467,
scooby_state_55ab23ccd7fd|37|1 404,42,5,3,0,4,4,1,0,0,1,1,0,0,1,466,
scooby_state_55ab23ccd7fd|36|1 411,39,4,0,3,0,0,2,1,2,1,0,1,1,0,465,
scooby_state_55ab23ccd7fd|4|1 401,50,4,1,2,1,0,0,1,1,0,0,0,1,0,462,
scooby_state_55ab23ccd7fd|63|1 395,48,7,2,5,0,2,0,0,0,0,1,1,1,0,462,
scooby_state_55ab23ccd7fd|50|1 406,40,3,0,4,2,0,0,0,1,1,2,1,0,1,461,
scooby_state_55ab23ccd7fd|61|1 401,51,3,1,0,0,0,1,0,0,0,3,0,0,0,460,
scooby_state_55ab23ccd7fd|27|1 389,47,10,1,3,0,1,0,0,1,0,1,2,1,2,458,
scooby_state_55ab23ccd7fd|38|1 398,43,5,2,3,0,0,0,2,1,0,0,0,2,1,457,
scooby_state_55ab23ccd7fd|51|1 379,64,8,0,1,0,1,2,0,0,0,1,0,1,0,457,
scooby_state_55ab23ccd7fd|29|1 395,42,8,2,1,0,1,3,1,0,0,0,1,1,2,457,
scooby_state_55ab23ccd7fd|23|1 387,51,4,0,3,1,0,1,0,0,1,2,2,2,0,454,
scooby_state_55ab23ccd7fd|41|1 392,46,5,1,3,0,0,2,2,1,0,0,1,1,0,454,
scooby_state_55ab23ccd7fd|52|1 390,50,4,1,2,1,1,0,0,0,0,0,2,0,1,452,
scooby_state_55ab23ccd7fd|25|1 397,39,3,1,2,0,0,0,0,1,1,0,0,0,1,445,
scooby_state_55ab23ccd7fd|19|1 378,46,4,2,4,0,0,0,0,1,0,3,1,0,1,440,
scooby_state_55ab23ccd7d9|27|0 432,1,2,0,0,1,0,0,0,0,1,1,0,0,0,438,
scooby_state_55ab23ccd7fd|7|1 388,37,4,0,4,0,1,0,1,0,0,0,1,0,0,436,
scooby_state_55ab23ccd7fd|62|1 383,31,4,0,4,0,2,2,1,1,3,1,1,0,0,433,
scooby_state_55ab23ccd7fd|28|1 352,60,2,6,2,1,0,0,1,0,2,1,0,1,2,430,
scooby_state_55ab23ccd7d9|28|0 385,0,0,0,0,0,0,1,0,1,0,0,0,0,9,396,
scooby_state_55ab23ccd7d9|30|0 368,0,0,0,0,0,0,0,1,0,0,0,0,0,2,371,
scooby_state_55ab23ccd7d9|29|0 358,0,1,0,1,0,0,0,0,0,1,0,0,0,8,369,
scooby_state_55ab23ccd7d9|31|0 359,0,0,0,0,0,1,1,0,0,0,0,0,0,1,362,
scooby_state_55ab23ccd7d9|32|0 352,0,0,0,0,0,0,0,0,0,0,1,0,0,5,358,
scooby_state_55ab23ccd7d9|33|0 341,0,1,1,0,0,0,0,0,0,0,0,0,0,2,345,
scooby_state_55ab23ccd7d9|34|0 337,0,0,0,0,0,0,0,0,0,0,0,0,0,4,341,
scooby_state_55ab23ccd7d9|37|0 329,0,0,1,0,0,0,0,0,0,1,0,0,0,2,333,
scooby_state_55ab23ccd7d9|38|0 327,0,1,1,0,0,0,0,0,0,0,0,0,0,3,332,
scooby_state_55ab23ccd7d9|36|0 313,0,0,0,0,0,0,0,0,1,0,0,1,0,2,317,
scooby_state_55ab23ccd7d9|13|8 311,0,1,0,1,0,0,0,1,0,0,0,0,0,0,314,
scooby_state_55ab23ccd7d9|35|0 309,0,0,0,0,0,0,0,0,0,0,0,0,1,2,312,
scooby_state_55ab23ccd7d9|20|8 308,0,0,0,0,0,0,0,1,0,0,0,1,0,1,311,
scooby_state_55ab23ccd7d9|30|8 307,0,0,0,0,0,0,0,1,0,0,1,0,0,1,310,
scooby_state_55ab23ccd7d9|58|8 306,0,0,0,0,0,0,0,0,0,0,0,0,1,1,308,
scooby_state_55ab23ccd7d9|40|0 303,0,1,0,0,0,1,0,0,0,0,1,0,0,1,307,
scooby_state_55ab23ccd7d9|43|9 274,1,0,24,0,0,0,0,0,1,1,0,1,0,2,304,
scooby_state_55ab23ccd7d9|45|9 272,0,0,25,0,0,1,0,0,1,1,1,0,0,1,302,
scooby_state_55ab23ccd7d9|55|8 301,0,0,0,0,0,0,0,1,0,0,0,0,0,0,302,
scooby_state_55ab23ccd7d9|48|9 269,2,0,25,0,1,0,0,1,0,0,0,0,0,2,300,
scooby_state_55ab23ccd7d9|23|9 267,1,0,23,0,0,2,0,2,0,0,1,0,0,1,297,
scooby_state_55ab23ccd7d9|19|8 291,0,0,0,1,0,0,1,0,0,1,0,0,0,2,296,
scooby_state_55ab23ccd7d9|33|8 295,0,0,0,0,0,0,0,1,0,0,0,0,0,0,296,
scooby_state_55ab23ccd7d9|59|8 293,0,0,0,0,1,0,0,0,0,0,0,0,0,1,295,
scooby_state_55ab23ccd7d9|44|8 291,0,0,0,0,0,1,0,0,0,1,0,0,0,0,293,
scooby_state_55ab23ccd7d9|54|8 291,0,0,0,1,0,0,0,0,0,0,0,0,0,0,292,
scooby_state_55ab23ccd7d9|44|9 263,0,1,25,0,0,0,0,0,0,0,0,0,0,3,292,
scooby_state_55ab23ccd7d9|36|8 287,1,0,0,1,0,0,0,0,0,0,0,0,0,1,290,
scooby_state_55ab23ccd7d9|55|9 264,0,0,25,0,0,0,0,0,0,0,0,0,0,1,290,
scooby_state_55ab23ccd7d9|50|9 261,0,0,27,0,0,0,0,0,0,1,0,0,0,0,289,
scooby_state_55ab23ccd7d9|35|8 286,0,0,0,0,0,0,1,0,0,0,0,0,0,2,289,
scooby_state_55ab23ccd7d9|46|8 285,0,0,1,1,0,0,0,0,0,0,1,0,0,1,289,
scooby_state_55ab23ccd7d9|26|8 286,0,0,0,0,0,0,0,0,0,0,0,0,0,1,287,
scooby_state_55ab23ccd7d9|31|8 284,1,0,0,0,1,0,0,0,0,0,0,0,1,0,287,
scooby_state_55ab23ccd7d9|41|0 281,0,1,0,0,1,0,1,0,0,1,0,0,0,2,287,
scooby_state_55ab23ccd7d9|11|8 283,0,0,0,0,0,0,0,0,0,0,2,0,0,1,286,
scooby_state_55ab23ccd7d9|31|9 259,1,0,22,0,0,0,1,2,0,0,0,0,0,1,286,
scooby_state_55ab23ccd7d9|29|8 283,0,0,0,0,0,0,0,0,1,0,0,0,0,2,286,
scooby_state_55ab23ccd7d9|27|9 255,0,0,24,0,2,0,0,0,2,0,0,0,0,2,285,
scooby_state_55ab23ccd7d9|21|9 254,0,2,24,0,2,0,0,0,0,0,2,1,0,0,285,
scooby_state_55ab23ccd7d9|41|8 283,0,0,0,0,0,0,0,1,0,0,0,0,0,0,284,
scooby_state_55ab23ccd7d9|10|9 261,0,0,18,0,1,0,0,0,0,0,0,0,1,0,281,
scooby_state_55ab23ccd7d9|63|8 280,0,0,0,0,0,0,0,0,0,0,0,0,0,0,280,
scooby_state_55ab23ccd7d9|39|8 279,0,1,0,0,0,0,0,0,0,0,0,0,0,0,280,
scooby_state_55ab23ccd7d9|8|8 277,0,0,0,0,1,1,0,0,0,0,0,0,0,1,280,
scooby_state_55ab23ccd7d9|14|9 254,1,0,23,0,0,0,1,1,0,0,0,0,0,0,280,
scooby_state_55ab23ccd7d9|41|9 254,2,0,17,1,0,1,0,1,0,0,2,0,0,1,279,
scooby_state_55ab23ccd7d9|35|9 253,0,0,22,0,0,0,0,0,0,0,1,0,1,2,279,
scooby_state_55ab23ccd7d9|43|8 278,0,0,0,0,0,0,0,0,1,0,0,0,0,0,279,
scooby_state_55ab23ccd7d9|62|8 275,0,2,0,0,0,0,0,0,0,0,0,0,0,1,278,
scooby_state_55ab23ccd7d9|49|8 273,0,0,0,0,0,0,0,0,0,0,2,0,1,2,278,
scooby_state_55ab23ccd7d9|17|8 276,0,1,0,0,0,1,0,0,0,0,0,0,0,0,278,
scooby_state_55ab23ccd7d9|32|8 276,0,0,0,0,0,0,0,1,0,0,0,0,1,0,278,
scooby_state_55ab23ccd7d9|42|9 258,0,0,15,1,0,0,1,0,0,0,0,1,0,1,277,
scooby_state_55ab23ccd7d9|50|8 276,0,0,0,0,0,0,0,0,0,0,0,0,0,1,277,
scooby_state_55ab23ccd7d9|40|9 246,0,2,21,0,0,0,0,0,0,1,2,1,1,3,277,
scooby_state_55ab23ccd7d9|21|8 274,0,0,0,0,0,0,0,1,0,0,0,0,0,1,276,
scooby_state_55ab23ccd7d9|9|9 248,0,0,24,0,0,2,0,0,0,0,0,0,0,2,276,
scooby_state_55ab23ccd7d9|47|9 251,0,0,21,0,1,0,0,1,0,0,0,0,0,1,275,
scooby_state_55ab23ccd7d9|19|9 248,0,1,21,1,1,0,0,1,0,0,1,0,0,1,275,
scooby_state_55ab23ccd7d9|32|9 247,1,0,18,0,1,3,0,0,0,0,1,0,1,2,274,
scooby_state_55ab23ccd7d9|37|8 272,0,1,0,0,0,0,0,0,0,1,0,0,0,0,274,
scooby_state_55ab23ccd7d9|51|9 239,0,2,29,1,0,0,0,0,0,0,1,0,0,2,274,
scooby_state_55ab23ccd7d9|20|9 251,0,1,19,0,0,0,0,0,0,0,0,1,0,2,274,
scooby_state_55ab23ccd7d9|27|8 272,0,0,0,0,0,0,1,0,0,0,0,0,0,0,273,
scooby_state_55ab23ccd7d9|40|8 272,0,0,0,0,0,0,0,0,1,0,0,0,0,0,273,
scooby_state_55ab23ccd7d9|50|0 270,2,0,0,0,0,0,0,0,0,0,0,0,0,1,273,
scooby_state_55ab23ccd7d9|56|8 271,0,0,1,0,0,0,0,0,0,0,0,0,0,1,273,
scooby_state_55ab23ccd7d9|47|0 269,0,0,0,0,0,0,0,0,0,0,0,0,0,4,273,
scooby_state_55ab23ccd7d9|36|9 244,0,1,18,0,0,0,0,0,0,0,1,3,2,3,272,
scooby_state_55ab23ccd7d9|38|8 271,0,0,0,0,0,0,0,0,1,0,0,0,0,0,272,
scooby_state_55ab23ccd7d9|54|9 251,0,0,18,0,0,0,0,1,0,1,0,0,0,1,272,
scooby_state_55ab23ccd7d9|30|9 242,2,0,22,0,0,2,0,0,0,0,0,0,0,3,271,
scooby_state_55ab23ccd7d9|53|8 267,0,1,0,1,0,1,0,0,0,0,0,0,0,0,270,
scooby_state_55ab23ccd7d9|53|9 239,1,0,22,1,0,0,0,0,0,0,1,1,0,5,270,
scooby_state_55ab23ccd7d9|46|9 247,0,1,17,1,0,0,1,1,0,0,2,0,0,0,270,
scooby_state_55ab23ccd7d9|45|8 268,0,0,0,0,0,0,0,0,0,0,0,0,0,2,270,
scooby_state_55ab23ccd7d9|24|8 268,0,0,0,0,0,0,0,0,0,1,0,0,0,0,269,
scooby_state_55ab23ccd7d9|14|8 266,1,0,0,0,0,0,0,0,0,0,0,1,0,1,269,
scooby_state_55ab23ccd7d9|17|9 251,1,0,13,0,0,0,0,1,0,0,0,1,0,2,269,
scooby_state_55ab23ccd7d9|48|0 264,0,1,0,1,0,0,0,1,0,0,0,0,1,1,269,
scooby_state_55ab23ccd7d9|63|9 241,0,0,25,0,0,0,1,0,0,0,1,0,0,1,269,
scooby_state_55ab23ccd7d9|57|9 245,0,0,19,0,0,0,0,0,2,1,0,1,0,0,268,
scooby_state_55ab23ccd7d9|13|9 236,1,0,25,0,0,0,1,0,1,0,0,0,0,4,268,
scooby_state_55ab23ccd7d9|25|9 244,0,0,21,0,0,0,0,0,1,0,0,0,1,0,267,
scooby_state_55ab23ccd7d9|11|9 238,0,1,23,0,0,0,0,1,1,0,0,0,1,1,266,
scooby_state_55ab23ccd7d9|16|8 265,0,0,0,0,0,0,0,0,0,0,0,0,0,1,266,
scooby_state_55ab23ccd7d9|10|8 265,0,0,0,0,0,1,0,0,0,0,0,0,0,0,266,
scooby_state_55ab23ccd7d9|58|9 238,0,0,24,0,0,0,0,0,0,0,1,1,0,2,266,
scooby_state_55ab23ccd7d9|42|8 265,0,0,0,0,0,0,0,0,0,0,0,0,0,0,265,
scooby_state_55ab23ccd7d9|59|9 241,0,0,21,1,0,0,0,0,1,0,0,0,0,1,265,
scooby_state_55ab23ccd7d9|15|9 235,3,0,19,0,0,1,0,1,1,0,0,0,1,4,265,
scooby_state_55ab23ccd7d9|29|9 241,0,1,18,3,0,0,0,0,0,0,0,0,0,2,265,
scooby_state_55ab23ccd7d9|51|0 260,1,1,0,1,0,1,0,0,0,0,0,0,0,0,264,
scooby_state_55ab23ccd7d9|34|8 264,0,0,0,0,0,0,0,0,0,0,0,0,0,0,264,
scooby_state_55ab23ccd7d9|34|9 245,0,0,17,0,0,0,0,0,0,1,0,0,0,1,264,
scooby_state_55ab23ccd7d9|60|9 241,0,0,17,0,0,0,1,0,0,1,0,0,0,4,264,
scooby_state_55ab23ccd7d9|39|0 255,0,2,0,0,0,0,0,1,1,0,0,0,0,4,263,
scooby_state_55ab23ccd7d9|16|9 243,1,0,14,0,0,0,0,0,1,0,0,0,0,4,263,
scooby_state_55ab23ccd7d9|18|8 261,0,0,0,0,0,1,0,0,0,0,0,0,1,0,263,
scooby_state_55ab23ccd7d9|60|8 261,0,0,0,0,0,0,1,0,0,0,0,0,1,0,263,
scooby_state_55ab23ccd7d9|48|8 263,0,0,0,0,0,0,0,0,0,0,0,0,0,0,263,
scooby_state_55ab23ccd7d9|49|9 229,0,0,28,1,1,0,0,0,0,2,1,0,0,0,262,
scooby_state_55ab23ccd7d9|61|9 237,0,0,23,0,0,0,0,0,0,0,0,0,0,2,262,
scooby_state_55ab23ccd7d9|18|9 231,1,0,25,0,0,0,0,1,1,1,0,0,0,1,261,
scooby_state_55ab23ccd7d9|43|0 260,0,0,0,0,0,0,0,0,0,0,0,0,0,0,260,
scooby_state_55ab23ccd7d9|12|8 254,0,0,0,1,0,1,1,0,0,0,0,1,0,1,259,
scooby_state_55ab23ccd7d9|51|8 256,0,0,0,0,0,1,0,0,0,0,0,1,0,1,259,
scooby_state_55ab23ccd7d9|47|8 258,1,0,0,0,0,0,0,0,0,0,0,0,0,0,259,
scooby_state_55ab23ccd7d9|52|9 228,0,2,22,1,0,0,0,0,0,1,0,1,0,2,257,
scooby_state_55ab23ccd7d9|9|8 255,0,0,0,0,1,0,0,0,0,0,0,0,0,0,256,
scooby_state_55ab23ccd7d9|22|9 223,0,0,28,1,1,1,1,0,0,0,0,0,0,1,256,
scooby_state_55ab23ccd7d9|23|8 255,0,0,0,0,0,0,0,0,0,0,0,0,0,0,255,
scooby_state_55ab23ccd7d9|28|8 250,0,0,0,0,1,1,0,0,0,0,0,0,1,0,253,
scooby_state_55ab23ccd7d9|56|9 222,0,1,26,0,1,0,0,0,0,0,0,0,0,2,252,
scooby_state_55ab23ccd7d9|12|9 225,0,0,20,0,1,1,1,1,0,0,0,2,0,0,251,
scooby_state_55ab23ccd7d9|42|0 246,1,0,0,0,0,0,0,0,0,0,0,0,0,3,250,
scooby_state_55ab23ccd7d9|57|8 247,0,0,0,1,0,1,0,0,0,0,0,0,1,0,250,
scooby_state_55ab23ccd7d9|37|9 220,0,2,23,0,0,0,0,0,1,0,0,0,0,3,249,
scooby_state_55ab23ccd7d9|44|0 247,0,0,0,0,0,0,0,0,0,0,0,0,0,2,249,
scooby_state_55ab23ccd7d9|39|9 231,0,1,15,0,0,0,0,1,1,0,0,0,0,0,249,
scooby_state_55ab23ccd7d9|61|8 248,0,0,0,0,0,0,0,0,0,0,0,0,0,1,249,
scooby_state_55ab23ccd7d9|52|0 245,0,0,1,0,0,0,0,0,0,0,0,0,0,2,248,
scooby_state_55ab23ccd7d9|62|9 227,1,0,15,0,0,0,0,0,0,0,0,1,0,3,247,
scooby_state_55ab23ccd7d9|25|8 246,0,0,0,0,0,0,0,1,0,0,0,0,0,0,247,
scooby_state_55ab23ccd7d9|54|0 242,1,0,0,0,0,0,0,0,0,0,0,0,0,3,246,
scooby_state_55ab23ccd7d9|38|9 222,0,0,21,0,0,1,0,0,0,0,0,0,0,2,246,
scooby_state_55ab23ccd7d9|45|0 241,0,1,0,0,0,0,0,0,0,0,0,0,0,3,245,
scooby_state_55ab23ccd7d9|15|8 241,0,0,0,0,0,0,0,0,0,0,1,0,0,0,242,
scooby_state_55ab23ccd063|0|0 124,3,14,7,10,15,36,5,3,8,4,2,5,4,2,242,
scooby_state_55ab23ccd7d9|24|9 221,0,0,13,0,1,0,0,0,2,0,0,0,0,3,240,
scooby_state_55ab23ccd7d9|26|9 228,0,0,10,0,0,0,0,0,0,1,1,0,0,0,240,
scooby_state_55ab23ccd7d9|33|9 216,1,0,19,0,1,0,0,0,0,1,0,0,1,0,239,
scooby_state_55ab23ccd7d9|52|8 236,0,0,0,0,0,0,1,0,0,0,0,0,0,1,238,
scooby_state_55ab23ccd063|1|0 127,10,5,11,18,10,23,1,3,1,5,5,5,5,7,236,
scooby_state_55ab23ccd7d9|59|0 230,0,0,0,0,0,0,0,0,0,0,0,0,0,3,233,
scooby_state_55ab23ccd7d9|22|8 229,0,0,0,0,0,0,0,0,0,0,1,0,0,2,232,
scooby_state_55ab23ccd7d9|60|0 225,0,0,0,0,0,0,0,0,0,1,0,0,0,4,230,
scooby_state_55ab23ccd7d9|56|0 226,0,0,0,0,0,0,0,0,0,0,0,0,0,4,230,
scooby_state_55ab23ccd7d9|61|0 225,0,0,0,0,0,0,0,0,0,0,0,1,0,1,227,
scooby_state_55ab23ccd7d9|28|9 207,1,0,15,0,0,1,0,0,0,0,0,0,0,2,226,
scooby_state_55ab23ccd7d9|57|0 217,1,0,0,0,0,0,0,0,1,0,0,0,0,5,224,
scooby_state_55ab23ccd7d9|55|0 220,0,0,0,0,0,0,0,0,0,0,0,0,0,3,223,
scooby_state_55ab23ccd7d9|63|0 221,0,0,0,0,0,0,0,0,0,0,0,0,0,1,222,
scooby_state_55ab23ccd7d9|62|0 217,1,0,0,0,0,0,0,0,0,0,1,0,0,0,219,
scooby_state_55ab23ccd7d9|49|0 218,0,0,0,0,0,0,0,0,0,0,1,0,0,0,219,
scooby_state_55ab23ccd7d9|53|0 212,0,0,0,0,0,0,1,0,0,0,0,0,0,4,217,
scooby_state_55ab23ccd7d9|46|0 214,0,0,0,0,0,0,0,1,0,0,0,0,0,2,217,
scooby_state_55ab23ccd063|2|0 88,5,8,8,27,13,15,6,9,6,6,5,5,1,8,210,
scooby_state_55ab23ccd7d9|58|0 200,0,0,0,0,0,0,0,0,0,0,1,1,0,2,204,
scooby_state_55ab23ccd063|3|0 100,5,3,8,15,5,18,2,7,3,3,4,3,3,9,188,
scooby_state_55ab23ccd7e7|6|0 58,5,4,3,8,9,9,5,5,6,3,4,6,9,48,182,
scooby_state_55ab23ccd7e7|18|-39 142,0,0,3,0,4,3,0,4,2,1,3,0,0,14,176,
scooby_state_55ab23ccd063|5|0 84,5,4,4,12,9,12,3,8,2,7,6,3,5,9,173,
scooby_state_55ab23ccd063|4|0 95,4,1,4,12,8,22,2,4,3,3,3,3,2,6,172,
scooby_state_55ab23ccd7e7|17|-7 152,2,1,0,0,0,0,1,1,3,3,1,1,2,5,172,
scooby_state_55ab23ccd7d9|28|4 171,0,0,0,0,0,0,0,0,0,0,0,0,0,0,171,
scooby_state_55ab23ccd7e7|17|-18 135,2,1,2,1,0,2,5,2,0,2,0,2,3,13,170,
scooby_state_55ab23ccd063|7|0 94,8,6,7,6,9,9,3,2,2,7,8,5,1,3,170,
scooby_state_55ab23ccd7e7|17|-6 136,1,1,1,4,0,0,3,1,0,1,1,2,3,14,168,
scooby_state_55ab23ccd7e7|11|-6 147,0,1,0,1,2,1,2,0,0,0,0,0,0,12,166,
scooby_state_55ab23ccd7e7|17|9 143,0,2,0,1,0,2,0,0,1,1,1,2,1,12,166,
scooby_state_55ab23ccd7e7|8|-9 142,0,0,0,2,5,0,0,1,0,2,0,1,2,11,166,
scooby_state_55ab23ccd7e7|17|-46 116,0,2,37,0,0,0,0,0,0,0,0,1,0,9,165,
scooby_state_55ab23ccd7e7|18|1 133,1,1,1,0,2,1,1,2,0,1,3,2,1,16,165,
scooby_state_55ab23ccd7e7|18|-21 140,1,0,0,2,0,3,1,0,0,0,0,0,0,18,165,
scooby_state_55ab23ccd7e7|27|-15 135,0,1,2,2,2,1,1,1,2,0,0,1,1,16,165,
scooby_state_55ab23ccd7e7|17|7 136,0,2,2,2,0,0,0,0,1,0,0,4,2,15,164,
scooby_state_55ab23ccd7e7|18|-5 138,1,0,2,4,0,1,0,0,1,1,1,2,0,13,164,
scooby_state_55ab23ccd7e7|42|-2 132,3,1,2,1,1,1,2,0,1,0,3,4,2,11,164,
scooby_state_55ab23ccd83c|7|6 0,164,0,0,0,0,0,0,0,0,0,0,0,0,0,164,
scooby_state_55ab23ccd7e7|61|44 131,2,0,3,0,0,0,1,0,0,1,1,5,1,17,162,
scooby_state_55ab23ccd7d9|20|4 160,1,0,1,0,0,0,0,0,0,0,0,0,0,0,162,
scooby_state_55ab23ccd7e7|14|-20 123,25,2,0,0,0,2,0,1,0,3,0,1,1,4,162,
scooby_state_55ab23ccd7e7|44|26 88,3,0,58,2,3,0,1,0,0,1,1,3,0,1,161,
scooby_state_55ab23ccd7e7|17|-45 143,0,1,0,2,0,1,1,0,4,2,1,0,1,5,161,
scooby_state_55ab23ccd7d9|32|4 156,1,0,0,0,0,0,0,0,0,0,2,1,0,1,161,
scooby_state_55ab23ccd7e7|41|23 136,0,1,1,0,0,0,1,1,1,0,1,1,5,13,161,
scooby_state_55ab23ccd7e7|17|-21 144,1,0,1,0,0,1,0,1,0,0,1,0,0,12,161,
scooby_state_55ab23ccd7e7|8|-30 133,1,0,0,0,1,2,0,2,1,0,0,1,2,17,160,
scooby_state_55ab23ccd7e7|17|3 132,1,4,0,1,1,2,2,0,0,0,0,0,0,17,160,
scooby_state_55ab23ccd7e7|18|-12 159,0,1,0,0,0,0,0,0,0,0,0,0,0,0,160,
scooby_state_55ab23ccd7e7|18|-17 53,0,0,104,0,1,0,0,0,0,1,1,0,0,0,160,
scooby_state_55ab23ccd7e7|42|25 137,1,0,3,2,1,0,1,2,1,0,1,4,0,6,159,
scooby_state_55ab23ccd7e7|42|6 137,0,1,0,0,0,1,1,0,0,0,2,2,0,15,159,
scooby_state_55ab23ccd7e7|17|-27 135,0,2,0,3,0,0,0,0,0,1,0,0,0,18,159,
scooby_state_55ab23ccd7e7|17|-17 60,0,1,93,0,2,0,0,0,0,0,1,0,0,1,158,
scooby_state_55ab23ccd7e7|17|-41 101,2,4,1,4,5,4,1,5,4,1,2,1,2,21,158,
scooby_state_55ab23ccd7e7|16|-7 126,0,2,1,2,1,2,0,1,1,1,1,0,3,17,158,
scooby_state_55ab23ccd82f|1|-6 6,81,6,6,6,6,5,5,5,6,5,6,3,4,8,158,
scooby_state_55ab23ccd7e7|18|-16 120,2,5,2,1,2,2,5,1,3,0,2,1,3,8,157,
scooby_state_55ab23ccd7e7|17|-34 133,0,3,0,1,1,0,2,0,0,1,1,1,2,11,156,
scooby_state_55ab23ccd7d9|54|4 155,0,0,0,0,0,0,0,0,1,0,0,0,0,0,156,
scooby_state_55ab23ccd7e7|57|6 135,1,0,0,0,1,0,1,0,1,0,0,3,0,14,156,
scooby_state_55ab23ccd7e7|8|-47 102,5,1,0,4,5,3,1,2,7,4,4,2,0,16,156,
scooby_state_55ab23ccd7e7|57|3 134,1,1,0,1,2,0,0,0,1,1,3,0,2,10,156,
scooby_state_55ab23ccd7e7|30|6 141,0,0,0,0,2,1,0,0,0,0,1,0,0,10,155,
scooby_state_55ab23ccd7e7|42|-19 132,2,0,2,0,0,4,0,0,0,0,0,0,0,15,155,
scooby_state_55ab23ccd7e7|17|5 132,1,1,4,0,1,0,0,1,2,0,3,1,1,8,155,
scooby_state_55ab23ccd063|6|0 80,3,3,7,10,4,13,5,3,6,6,5,3,5,2,155,
scooby_state_55ab23ccd7e7|12|-47 99,0,2,3,6,3,3,4,3,5,4,0,3,5,14,154,
scooby_state_55ab23ccd7e7|27|-14 133,3,1,0,0,1,0,0,1,1,0,0,0,0,14,154,
scooby_state_55ab23ccd7e7|41|11 126,2,1,2,2,1,0,1,0,1,0,3,2,0,13,154,
scooby_state_55ab23ccd7e7|57|29 127,0,3,1,1,0,1,1,1,0,0,2,1,3,13,154,
scooby_state_55ab23ccd7e7|23|-7 133,0,3,0,0,1,1,0,0,2,1,3,1,2,7,154,
scooby_state_55ab23ccd7d9|13|4 153,0,0,0,0,0,0,0,0,0,0,0,0,0,1,154,
scooby_state_55ab23ccd7e7|41|-1 121,1,2,3,0,0,3,1,2,2,0,0,1,2,16,154,
scooby_state_55ab23ccd7e7|30|-32 127,2,0,2,1,3,0,4,0,1,3,3,0,2,6,154,
scooby_state_55ab23ccd7e7|18|-34 127,0,5,0,0,1,1,0,0,0,0,2,0,2,16,154,
scooby_state_55ab23ccd7e7|18|-27 131,1,1,2,0,0,1,1,0,2,1,0,1,0,13,154,
scooby_state_55ab23ccd7e7|17|-44 118,0,1,5,2,4,2,3,1,0,3,0,0,1,14,154,
scooby_state_55ab23ccd7e7|23|6 138,0,1,1,0,0,2,0,0,0,0,2,2,0,8,154,
scooby_state_55ab23ccd7e7|18|-45 125,0,0,0,4,0,1,0,1,2,1,1,3,0,15,153,
scooby_state_55ab23ccd7e7|57|25 129,0,2,1,2,1,2,0,0,2,2,1,0,0,11,153,
scooby_state_55ab23ccd7e7|23|5 121,3,3,2,0,0,1,1,1,0,0,2,4,1,14,153,
scooby_state_55ab23ccd7e7|57|40 121,3,1,1,2,0,0,0,0,1,0,4,1,2,17,153,
scooby_state_55ab23ccd7e7|17|-11 116,0,0,1,2,2,3,1,3,3,3,1,5,1,12,153,
scooby_state_55ab23ccd7e7|24|-32 122,3,3,3,0,3,0,1,0,0,1,1,0,0,16,153,
scooby_state_55ab23ccd7e7|17|11 123,1,1,1,0,1,0,0,0,1,1,3,2,0,19,153,
scooby_state_55ab23ccd7e7|18|-10 129,0,1,0,0,3,0,0,2,0,1,2,0,3,12,153,
scooby_state_55ab23ccd7d9|21|4 152,0,0,0,0,0,0,0,0,0,0,0,0,0,0,152,
scooby_state_55ab23ccd7e7|17|-10 118,3,1,1,2,2,1,1,0,2,2,0,2,0,17,152,
scooby_state_55ab23ccd7e7|23|-18 121,4,1,7,1,0,2,0,0,1,2,1,1,1,10,152,
scooby_state_55ab23ccd7e7|10|-7 124,0,4,0,2,1,2,0,0,2,0,2,0,0,15,152,
scooby_state_55ab23ccd7e7|8|-49 118,0,4,1,2,0,3,5,1,1,1,1,2,0,13,152,
scooby_state_55ab23ccd7e7|42|-14 125,1,0,1,1,0,0,0,0,4,0,1,0,2,17,152,
scooby_state_55ab23ccd7e7|51|34 124,1,2,0,1,2,0,2,1,0,2,2,3,3,9,152,
scooby_state_55ab23ccd7e7|17|-19 134,1,1,0,0,2,0,0,0,2,2,1,0,0,9,152,
scooby_state_55ab23ccd7e7|10|-25 124,0,1,0,2,3,4,0,3,2,2,0,2,0,9,152,
scooby_state_55ab23ccd7e7|35|-22 130,1,2,1,0,2,1,0,3,0,0,0,1,2,9,152,
scooby_state_55ab23ccd7e7|58|41 135,1,1,0,0,0,1,3,0,1,0,0,0,1,9,152,
scooby_state_55ab23ccd7e7|8|-36 112,3,1,0,2,2,1,0,2,2,4,2,1,4,16,152,
scooby_state_55ab23ccd7e7|11|-51 77,3,9,5,10,5,8,1,4,4,5,4,8,4,5,152,
scooby_state_55ab23ccd7d9|9|4 151,0,0,0,0,0,0,1,0,0,0,0,0,0,0,152,
scooby_state_55ab23ccd7e7|41|24 104,33,2,2,2,0,1,2,1,0,0,0,1,0,3,151,
scooby_state_55ab23ccd7e7|17|-35 136,0,0,3,0,3,0,0,1,1,1,2,0,1,3,151,
scooby_state_55ab23ccd7d9|14|4 149,0,0,0,1,0,0,0,1,0,0,0,0,0,0,151,
scooby_state_55ab23ccd7e7|37|20 116,4,1,3,1,1,1,1,1,1,0,1,1,3,16,151,
scooby_state_55ab23ccd7e7|34|1 131,2,2,0,2,0,0,1,1,0,0,0,4,0,8,151,
scooby_state_55ab23ccd7e7|41|-17 47,0,2,100,0,0,0,0,0,0,0,0,0,1,1,151,
scooby_state_55ab23ccd7e7|5|-13 111,2,0,5,2,2,1,0,0,3,0,3,5,1,16,151,
scooby_state_55ab23ccd7e7|18|-30 114,3,2,1,0,2,2,0,1,1,3,3,1,1,16,150,
scooby_state_55ab23ccd7e7|18|-43 99,1,0,40,0,0,0,0,0,0,0,0,0,0,10,150,
scooby_state_55ab23ccd7e7|41|-3 124,2,4,2,2,1,1,0,0,1,0,2,1,4,6,150,
scooby_state_55ab23ccd7e7|24|16 119,2,0,0,1,0,1,0,0,0,1,4,1,3,18,150,
scooby_state_55ab23ccd7d9|46|4 148,0,0,0,0,0,0,1,0,0,0,1,0,0,0,150,
scooby_state_55ab23ccd7e7|24|6 133,0,1,1,1,1,0,0,0,0,0,0,0,0,13,150,
scooby_state_55ab23ccd7e7|39|12 121,2,0,2,0,2,0,0,1,1,1,1,0,1,17,149,
scooby_state_55ab23ccd7e7|17|-16 109,6,2,3,1,0,4,3,3,3,1,4,2,1,7,149,
scooby_state_55ab23ccd7e7|34|16 126,5,0,1,0,0,1,0,1,1,0,2,2,0,10,149,
scooby_state_55ab23ccd7e7|17|6 132,0,0,0,0,0,0,0,0,0,0,2,2,1,12,149,
scooby_state_55ab23ccd7e7|59|42 105,4,4,0,2,2,2,2,3,2,1,2,3,5,12,149,
scooby_state_55ab23ccd7d9|18|4 147,0,0,0,0,0,0,0,1,0,0,1,0,0,0,149,
scooby_state_55ab23ccd7e7|18|-6 126,2,0,0,1,0,1,1,0,1,0,2,0,3,12,149,
scooby_state_55ab23ccd7e7|42|8 117,2,3,0,2,3,0,0,0,1,1,2,0,2,16,149,
scooby_state_55ab23ccd7d9|43|4 149,0,0,0,0,0,0,0,0,0,0,0,0,0,0,149,
scooby_state_55ab23ccd7e7|33|16 127,1,3,1,0,0,3,0,0,0,0,0,2,4,8,149,
scooby_state_55ab23ccd7e7|28|-30 115,3,0,0,1,4,1,0,2,2,0,2,3,0,16,149,
scooby_state_55ab23ccd7e7|31|14 75,1,1,54,1,0,1,1,2,0,1,3,4,0,5,149,
scooby_state_55ab23ccd7e7|18|-15 113,4,3,5,1,1,1,1,3,3,2,1,0,1,10,149,
scooby_state_55ab23ccd7e7|51|-6 125,0,1,2,1,0,0,1,0,1,1,1,1,3,11,148,
scooby_state_55ab23ccd7e7|62|50 115,0,1,0,1,0,1,3,0,0,2,2,2,4,17,148,
scooby_state_55ab23ccd7e7|28|-15 119,2,2,2,1,3,0,2,1,1,0,1,1,0,13,148,
scooby_state_55ab23ccd7e7|9|-40 109,5,0,3,1,3,0,1,2,2,2,2,2,3,13,148,
scooby_state_55ab23ccd7e7|23|-39 130,0,0,1,0,1,1,0,3,0,0,2,0,0,10,148,
scooby_state_55ab23ccd7e7|35|-27 127,0,1,4,1,0,0,1,0,1,2,1,1,1,8,148,
scooby_state_55ab23ccd7e7|44|36 113,1,3,2,0,1,2,1,1,1,0,5,3,1,14,148,
scooby_state_55ab23ccd7e7|11|-7 127,1,1,2,0,1,1,1,2,0,1,0,3,0,8,148,
scooby_state_55ab23ccd7e7|24|-15 119,2,1,0,1,3,1,1,0,2,1,0,1,1,15,148,
scooby_state_55ab23ccd7d9|24|4 146,1,0,0,0,0,0,0,0,0,0,1,0,0,0,148,
scooby_state_55ab23ccd7e7|37|-20 104,33,1,0,0,3,0,0,0,1,0,2,0,1,2,147,
scooby_state_55ab23ccd7e7|35|-26 110,1,4,2,0,3,0,3,4,2,0,3,1,1,13,147,
scooby_state_55ab23ccd7d9|7|4 147,0,0,0,0,0,0,0,0,0,0,0,0,0,0,147,
scooby_state_55ab23ccd7e7|17|-24 125,0,0,1,1,0,0,2,1,2,3,0,2,1,9,147,
scooby_state_55ab23ccd7e7|38|21 129,3,1,1,0,1,2,0,2,0,2,2,0,0,4,147,
scooby_state_55ab23ccd7e7|33|-29 147,0,0,0,0,0,0,0,0,0,0,0,0,0,0,147,
scooby_state_55ab23ccd7e7|17|-13 116,2,2,4,0,0,3,1,2,1,0,1,0,0,15,147,
scooby_state_55ab23ccd7e7|18|-1 116,4,0,2,0,1,2,3,2,2,0,3,2,2,8,147,
scooby_state_55ab23ccd7e7|57|33 122,0,1,2,2,1,1,0,1,1,0,0,0,1,15,147,
scooby_state_55ab23ccd7e7|5|-28 123,2,0,0,0,0,0,2,0,0,0,2,1,1,16,147,
scooby_state_55ab23ccd7e7|32|-29 147,0,0,0,0,0,0,0,0,0,0,0,0,0,0,147,
scooby_state_55ab23ccd7e7|10|-1 112,3,1,2,2,1,1,2,3,0,1,0,1,4,14,147,
scooby_state_55ab23ccd7e7|17|-25 104,3,0,0,3,2,2,1,1,3,2,1,5,1,19,147,
scooby_state_55ab23ccd7e7|17|-36 112,1,2,0,2,3,2,4,1,5,0,0,3,1,11,147,
scooby_state_55ab23ccd7e7|8|2 128,1,1,0,0,0,1,1,0,1,1,2,1,0,9,146,
scooby_state_55ab23ccd7e7|30|-9 118,1,1,1,0,1,0,0,1,1,1,2,0,3,16,146,
scooby_state_55ab23ccd7e7|10|-28 115,2,0,0,2,1,2,4,0,0,0,4,0,3,13,146,
scooby_state_55ab23ccd7e7|14|-27 116,0,1,4,2,1,0,3,0,0,2,0,2,0,15,146,
scooby_state_55ab23ccd7e7|28|10 120,2,0,1,2,0,2,0,0,0,1,2,2,0,14,146,
scooby_state_55ab23ccd7d9|59|4 146,0,0,0,0,0,0,0,0,0,0,0,0,0,0,146,
scooby_state_55ab23ccd7e7|17|-40 117,4,1,1,5,1,1,1,3,2,3,1,0,0,6,146,
scooby_state_55ab23ccd7e7|28|20 111,2,0,1,1,1,2,1,5,1,2,4,0,3,12,146,
[...]
scooby_state_153e14e391a0|6|4 1,0,0,0,0,0,0,0,0,0,0,0,0,0,0,1,
scooby_state_55ab23ccd6d7|49|0 0,1,0,0,0,0,0,0,0,0,0,0,0,0,0,1,
scooby_state_55ab23ccd063|23|-4 0,0,0,0,0,0,0,0,0,1,0,0,0,0,0,1,
scooby_state_55ab23ccd6d7|29|4 0,0,1,0,0,0,0,0,0,0,0,0,0,0,0,1,
scooby_state_153e14dfd5c8|23|3 1,0,0,0,0,0,0,0,0,0,0,0,0,0,0,1,
scooby_state_55ab23ccd063|61|-2 0,0,0,0,0,0,1,0,0,0,0,0,0,0,0,1,
scooby_state_55ab23ccd063|33|29 1,0,0,0,0,0,0,0,0,0,0,0,0,0,0,1,
scooby_state_55ab23ccd063|54|52 0,0,0,0,0,0,0,0,0,0,0,0,0,0,1,1,
scooby_state_55ab23ccd063|31|20 1,0,0,0,0,0,0,0,0,0,0,0,0,0,0,1,
scooby_state_55ab23ccd063|49|20 1,0,0,0,0,0,0,0,0,0,0,0,0,0,0,1,
scooby_state_55ab23ccd063|6|-21 0,0,1,0,0,0,0,0,0,0,0,0,0,0,0,1,
scooby_state_55ab23ccd063|37|27 0,0,0,0,0,0,0,0,0,0,0,0,0,0,1,1,
scooby_state_55ab23ccd838|57|3 1,0,0,0,0,0,0,0,0,0,0,0,0,0,0,1,
scooby_state_55ab23ccd063|41|-19 0,0,0,0,0,1,0,0,0,0,0,0,0,0,0,1,
scooby_state_55ab23ccd063|60|46 0,0,1,0,0,0,0,0,0,0,0,0,0,0,0,1,
scooby_state_55ab23ccd063|42|22 0,0,0,0,1,0,0,0,0,0,0,0,0,0,0,1,
scooby_state_55ab23ccd6d7|11|5 0,1,0,0,0,0,0,0,0,0,0,0,0,0,0,1,
scooby_state_55ab23ccd063|2|-28 0,0,0,0,0,0,0,1,0,0,0,0,0,0,0,1,
scooby_state_55ab23ccd6d7|25|11 0,1,0,0,0,0,0,0,0,0,0,0,0,0,0,1,
scooby_state_153e14dfd3bc|57|-4 1,0,0,0,0,0,0,0,0,0,0,0,0,0,0,1,
scooby_state_55ab23ccd063|11|-18 0,0,0,0,0,0,0,1,0,0,0,0,0,0,0,1,
scooby_state_55ab23ccd7d9|48|48 0,1,0,0,0,0,0,0,0,0,0,0,0,0,0,1,
scooby_state_153e14e36902|36|0 0,1,0,0,0,0,0,0,0,0,0,0,0,0,0,1,
scooby_state_55ab23ccd6d7|17|11 0,1,0,0,0,0,0,0,0,0,0,0,0,0,0,1,
scooby_state_55ab23ccd6d7|44|13 0,1,0,0,0,0,0,0,0,0,0,0,0,0,0,1,
scooby_state_55ab23ccd838|11|11 1,0,0,0,0,0,0,0,0,0,0,0,0,0,0,1,
scooby_state_55ab23ccd063|46|20 1,0,0,0,0,0,0,0,0,0,0,0,0,0,0,1,
scooby_state_55ab23ccd838|10|2 1,0,0,0,0,0,0,0,0,0,0,0,0,0,0,1,
scooby_state_55ab23ccd063|35|-23 1,0,0,0,0,0,0,0,0,0,0,0,0,0,0,1,
scooby_state_153e14e3998d|7|0 1,0,0,0,0,0,0,0,0,0,0,0,0,0,0,1,
scooby_state_55ab23ccd838|26|8 1,0,0,0,0,0,0,0,0,0,0,0,0,0,0,1,
scooby_state_55ab23ccd6d7|49|9 0,1,0,0,0,0,0,0,0,0,0,0,0,0,0,1,
scooby_state_55ab23ccd6d7|19|-42 0,1,0,0,0,0,0,0,0,0,0,0,0,0,0,1,
scooby_state_55ab23ccd063|44|43 1,0,0,0,0,0,0,0,0,0,0,0,0,0,0,1,
scooby_state_55ab23ccd063|28|27 0,0,0,0,0,0,0,0,0,0,0,1,0,0,0,1,
scooby_state_55ab23ccd6d7|37|13 0,1,0,0,0,0,0,0,0,0,0,0,0,0,0,1,
scooby_state_55ab23ccd6d7|46|22 0,1,0,0,0,0,0,0,0,0,0,0,0,0,0,1,
scooby_state_153e14e39080|2|1 1,0,0,0,0,0,0,0,0,0,0,0,0,0,0,1,
scooby_state_55ab23ccd063|8|-27 1,0,0,0,0,0,0,0,0,0,0,0,0,0,0,1,
scooby_state_55ab23ccd063|48|-6 0,0,1,0,0,0,0,0,0,0,0,0,0,0,0,1,
scooby_state_55ab23ccd063|47|22 0,1,0,0,0,0,0,0,0,0,0,0,0,0,0,1,
scooby_state_55ab23ccd838|38|3 1,0,0,0,0,0,0,0,0,0,0,0,0,0,0,1,
scooby_state_55ab23ccd063|29|-31 0,0,0,0,1,0,0,0,0,0,0,0,0,0,0,1,
scooby_state_55ab23ccd6d7|63|23 1,0,0,0,0,0,0,0,0,0,0,0,0,0,0,1,
scooby_state_55ab23ccd063|55|52 0,0,0,0,0,0,0,0,1,0,0,0,0,0,0,1,
scooby_state_55ab23ccd838|37|8 1,0,0,0,0,0,0,0,0,0,0,0,0,0,0,1,
scooby_state_153e14e5d908|36|2 1,0,0,0,0,0,0,0,0,0,0,0,0,0,0,1,
scooby_state_55ab23ccd6d7|30|14 0,0,0,0,0,0,0,0,0,1,0,0,0,0,0,1,
scooby_state_55ab23ccd063|3|-3 0,0,0,0,0,0,1,0,0,0,0,0,0,0,0,1,
scooby_state_55ab23ccd6d7|58|-3 0,0,0,0,0,0,0,0,0,0,1,0,0,0,0,1,
scooby_state_55ab23ccd6d7|13|8 1,0,0,0,0,0,0,0,0,0,0,0,0,0,0,1,
scooby_state_55ab23ccd063|30|24 0,0,0,0,0,0,0,0,0,0,0,0,0,1,0,1,
scooby_state_55ab23ccd838|38|7 1,0,0,0,0,0,0,0,0,0,0,0,0,0,0,1,
scooby_state_153e14e39d10|52|2 1,0,0,0,0,0,0,0,0,0,0,0,0,0,0,1,
scooby_state_153e14dff090|2|-34 1,0,0,0,0,0,0,0,0,0,0,0,0,0,0,1,
scooby_state_153e14e39978|35|-1 1,0,0,0,0,0,0,0,0,0,0,0,0,0,0,1,
scooby_state_55ab23ccd063|55|-5 0,0,1,0,0,0,0,0,0,0,0,0,0,0,0,1,
scooby_state_55ab23ccd6d7|24|-39 0,0,0,0,0,0,0,0,0,1,0,0,0,0,0,1,
scooby_state_55ab23ccd063|56|29 0,0,0,0,0,0,0,0,0,0,0,0,0,0,1,1,
scooby_state_55ab23ccd838|15|2 1,0,0,0,0,0,0,0,0,0,0,0,0,0,0,1,
scooby_state_55ab23ccd063|17|-3 0,0,0,0,0,0,0,0,0,0,1,0,0,0,0,1,
scooby_state_55ab23ccd063|61|53 0,0,0,0,1,0,0,0,0,0,0,0,0,0,0,1,
scooby_state_55ab23ccd6d7|22|9 0,0,0,0,0,0,0,1,0,0,0,0,0,0,0,1,
scooby_state_153e14e5d870|33|0 1,0,0,0,0,0,0,0,0,0,0,0,0,0,0,1,
scooby_state_55ab23ccd063|53|27 0,0,0,0,0,0,0,0,0,0,1,0,0,0,0,1,
scooby_state_55ab23ccd063|54|53 0,0,0,0,0,0,0,0,0,1,0,0,0,0,0,1,
scooby_state_55ab23ccd7d9|57|55 1,0,0,0,0,0,0,0,0,0,0,0,0,0,0,1,
scooby_state_55ab23ccd063|60|53 0,0,0,0,0,0,1,0,0,0,0,0,0,0,0,1,
scooby_state_55ab23ccd838|47|18 1,0,0,0,0,0,0,0,0,0,0,0,0,0,0,1,
scooby_state_55ab23ccd704|28|1 0,1,0,0,0,0,0,0,0,0,0,0,0,0,0,1,
scooby_state_55ab23ccd838|54|5 0,0,0,1,0,0,0,0,0,0,0,0,0,0,0,1,
scooby_state_55ab23ccd063|48|-10 0,0,0,0,0,0,0,0,1,0,0,0,0,0,0,1,
scooby_state_55ab23ccd063|51|44 1,0,0,0,0,0,0,0,0,0,0,0,0,0,0,1,
scooby_state_55ab23ccd6d7|26|-2 0,0,0,0,0,1,0,0,0,0,0,0,0,0,0,1,
scooby_state_55ab23ccd063|51|15 0,0,0,0,0,0,0,0,0,1,0,0,0,0,0,1,
scooby_state_55ab23ccd6d7|15|-48 0,1,0,0,0,0,0,0,0,0,0,0,0,0,0,1,
scooby_state_153e14e3907d|48|47 1,0,0,0,0,0,0,0,0,0,0,0,0,0,0,1,
scooby_state_55ab23ccd063|22|-26 1,0,0,0,0,0,0,0,0,0,0,0,0,0,0,1,
scooby_state_153e14e36f00|60|1 1,0,0,0,0,0,0,0,0,0,0,0,0,0,0,1,
scooby_state_55ab23ccd582|22|1 1,0,0,0,0,0,0,0,0,0,0,0,0,0,0,1,
scooby_state_55ab23ccd063|27|-22 1,0,0,0,0,0,0,0,0,0,0,0,0,0,0,1,
scooby_state_55ab23ccd063|22|-16 1,0,0,0,0,0,0,0,0,0,0,0,0,0,0,1,
scooby_state_55ab23ccd063|57|35 0,1,0,0,0,0,0,0,0,0,0,0,0,0,0,1,
scooby_state_153e14e5d97f|1|-2 1,0,0,0,0,0,0,0,0,0,0,0,0,0,0,1,
scooby_state_153e14e2da01|40|34 1,0,0,0,0,0,0,0,0,0,0,0,0,0,0,1,
scooby_state_55ab23ccba80|42|19 1,0,0,0,0,0,0,0,0,0,0,0,0,0,0,1,
scooby_state_55ab23ccd063|46|24 0,0,0,0,0,1,0,0,0,0,0,0,0,0,0,1,
scooby_state_153e14ed4230|8|1 1,0,0,0,0,0,0,0,0,0,0,0,0,0,0,1,
scooby_state_55ab23ccd063|51|29 0,0,0,0,0,1,0,0,0,0,0,0,0,0,0,1,
scooby_state_55ab23ccd063|32|-10 0,0,1,0,0,0,0,0,0,0,0,0,0,0,0,1,
scooby_state_55ab23ccd7fd|6|-28 0,1,0,0,0,0,0,0,0,0,0,0,0,0,0,1,
scooby_state_55ab23ccd6d7|42|-3 1,0,0,0,0,0,0,0,0,0,0,0,0,0,0,1,
scooby_state_55ab23ccd063|52|40 1,0,0,0,0,0,0,0,0,0,0,0,0,0,0,1,
scooby_state_55ab23ccd063|51|35 0,0,0,1,0,0,0,0,0,0,0,0,0,0,0,1,
scooby_state_55ab23ccd063|37|29 0,0,0,0,1,0,0,0,0,0,0,0,0,0,0,1,
scooby_state_55ab23ccd063|26|-37 0,0,0,1,0,0,0,0,0,0,0,0,0,0,0,1,
scooby_state_55ab23ccd063|45|44 1,0,0,0,0,0,0,0,0,0,0,0,0,0,0,1,
scooby_state_55ab23ccd063|47|37 1,0,0,0,0,0,0,0,0,0,0,0,0,0,0,1,
scooby_state_55ab23ccd063|57|55 0,0,0,0,0,0,0,0,0,0,0,0,0,0,1,1,
scooby_state_153e14e39c40|49|1 1,0,0,0,0,0,0,0,0,0,0,0,0,0,0,1,
scooby_state_55ab23ccd6d7|19|11 0,0,0,0,0,0,0,0,0,1,0,0,0,0,0,1,
scooby_state_55ab23ccd838|5|5 0,0,0,1,0,0,0,0,0,0,0,0,0,0,0,1,
scooby_state_55ab23ccd6d7|16|-39 0,1,0,0,0,0,0,0,0,0,0,0,0,0,0,1,
scooby_state_55ab23ccd063|53|31 0,0,0,0,0,0,0,0,0,0,1,0,0,0,0,1,
scooby_state_55ab23ccd063|31|13 0,0,0,0,0,0,0,0,0,0,0,0,1,0,0,1,
scooby_state_55ab23ccd063|61|52 0,0,0,0,0,0,0,0,0,0,0,1,0,0,0,1,
scooby_state_55ab23ccd480|18|1 1,0,0,0,0,0,0,0,0,0,0,0,0,0,0,1,
scooby_state_55ab23ccd063|26|21 0,0,0,0,0,0,1,0,0,0,0,0,0,0,0,1,
scooby_state_55ab23ccd6d7|32|14 1,0,0,0,0,0,0,0,0,0,0,0,0,0,0,1,
scooby_state_55ab23ccd063|21|-33 0,0,0,0,0,1,0,0,0,0,0,0,0,0,0,1,
scooby_state_55ab23ccd051|37|0 0,1,0,0,0,0,0,0,0,0,0,0,0,0,0,1,
scooby_state_153e157d26d0|27|-25 1,0,0,0,0,0,0,0,0,0,0,0,0,0,0,1,
scooby_state_55ab23ccd6d7|15|-3 0,0,1,0,0,0,0,0,0,0,0,0,0,0,0,1,
scooby_state_55ab23ccd063|62|31 0,0,0,0,0,0,0,0,0,1,0,0,0,0,0,1,
scooby_state_55ab23ccd063|61|41 0,0,1,0,0,0,0,0,0,0,0,0,0,0,0,1,
scooby_state_55ab23ccd063|26|-4 0,0,0,0,0,0,0,0,0,1,0,0,0,0,0,1,
scooby_state_55ab23ccd6d7|15|4 1,0,0,0,0,0,0,0,0,0,0,0,0,0,0,1,
scooby_state_55ab23ccd063|60|52 0,0,0,0,0,0,1,0,0,0,0,0,0,0,0,1,
scooby_state_55ab23ccd063|13|-12 0,0,0,0,0,0,1,0,0,0,0,0,0,0,0,1,
scooby_state_55ab23ccd6d7|1|-4 1,0,0,0,0,0,0,0,0,0,0,0,0,0,0,1,
scooby_state_55ab23ccd7d9|61|51 0,0,0,0,0,0,0,0,0,0,0,0,0,0,1,1,
scooby_state_55ab23ccd6d7|41|16 0,1,0,0,0,0,0,0,0,0,0,0,0,0,0,1,
scooby_state_55ab23ccd063|47|23 0,1,0,0,0,0,0,0,0,0,0,0,0,0,0,1,
scooby_state_55ab23ccd6d7|9|-50 0,0,0,0,0,1,0,0,0,0,0,0,0,0,0,1,
scooby_state_55ab23ccd063|7|-21 0,0,0,1,0,0,0,0,0,0,0,0,0,0,0,1,
scooby_state_55ab23ccd7fd|51|-8 1,0,0,0,0,0,0,0,0,0,0,0,0,0,0,1,
scooby_state_55ab23ccd063|26|-23 0,0,0,0,1,0,0,0,0,0,0,0,0,0,0,1,
scooby_state_55ab23ccd063|20|-23 0,0,0,1,0,0,0,0,0,0,0,0,0,0,0,1,
scooby_state_55ab23ccd6d7|0|-15 0,1,0,0,0,0,0,0,0,0,0,0,0,0,0,1,
scooby_state_55ab23ccd063|49|27 0,0,0,1,0,0,0,0,0,0,0,0,0,0,0,1,
scooby_state_55ab23ccd063|58|49 0,0,0,0,0,0,0,0,1,0,0,0,0,0,0,1,
scooby_state_55ab23ccd6d7|29|-33 1,0,0,0,0,0,0,0,0,0,0,0,0,0,0,1,
scooby_state_153e14dff167|5|5 1,0,0,0,0,0,0,0,0,0,0,0,0,0,0,1,
scooby_state_55ab23ccd6d7|53|-2 1,0,0,0,0,0,0,0,0,0,0,0,0,0,0,1,
scooby_state_55ab23ccd838|61|15 1,0,0,0,0,0,0,0,0,0,0,0,0,0,0,1,
scooby_state_55ab23ccd80b|53|0 1,0,0,0,0,0,0,0,0,0,0,0,0,0,0,1,
scooby_state_153e14dfd440|17|1 1,0,0,0,0,0,0,0,0,0,0,0,0,0,0,1,
scooby_state_55ab23ccd051|27|0 0,1,0,0,0,0,0,0,0,0,0,0,0,0,0,1,
scooby_state_55ab23ccd6d7|47|5 1,0,0,0,0,0,0,0,0,0,0,0,0,0,0,1,
scooby_state_55ab23ccd838|20|3 1,0,0,0,0,0,0,0,0,0,0,0,0,0,0,1,
scooby_state_55ab23ccd838|15|7 1,0,0,0,0,0,0,0,0,0,0,0,0,0,0,1,
scooby_state_153e14e39d43|53|1 1,0,0,0,0,0,0,0,0,0,0,0,0,0,0,1,
scooby_state_55ab23ccd6d7|22|0 0,1,0,0,0,0,0,0,0,0,0,0,0,0,0,1,
scooby_state_55ab23ccbd13|6|0 1,0,0,0,0,0,0,0,0,0,0,0,0,0,0,1,
scooby_state_55ab23ccd6d7|26|16 0,1,0,0,0,0,0,0,0,0,0,0,0,0,0,1,
scooby_state_55ab23ccd063|16|-46 1,0,0,0,0,0,0,0,0,0,0,0,0,0,0,1,
scooby_state_55ab23ccd6d7|3|-59 0,1,0,0,0,0,0,0,0,0,0,0,0,0,0,1,
scooby_state_55ab23ccd6d7|46|11 0,1,0,0,0,0,0,0,0,0,0,0,0,0,0,1,
scooby_state_55ab23ccd063|53|49 0,0,0,1,0,0,0,0,0,0,0,0,0,0,0,1,
scooby_state_55ab23ccd6d7|50|14 0,0,0,0,0,0,0,1,0,0,0,0,0,0,0,1,
scooby_state_55ab23ccd6d7|60|29 0,1,0,0,0,0,0,0,0,0,0,0,0,0,0,1,
scooby_state_55ab23ccd063|19|-27 0,0,0,1,0,0,0,0,0,0,0,0,0,0,0,1,
scooby_state_55ab23ccd063|5|-41 1,0,0,0,0,0,0,0,0,0,0,0,0,0,0,1,
scooby_state_55ab23ccd6d7|44|-15 1,0,0,0,0,0,0,0,0,0,0,0,0,0,0,1,
scooby_state_153e14e39a01|40|1 1,0,0,0,0,0,0,0,0,0,0,0,0,0,0,1,
scooby_state_55ab23ccd063|48|26 0,0,0,0,0,0,0,0,0,0,0,0,1,0,0,1,
scooby_state_55ab23ccd063|40|26 0,0,0,0,0,0,0,0,0,0,0,0,0,0,1,1,
scooby_state_55ab23ccd063|10|-11 1,0,0,0,0,0,0,0,0,0,0,0,0,0,0,1,
scooby_state_55ab23ccd063|31|21 0,1,0,0,0,0,0,0,0,0,0,0,0,0,0,1,
scooby_state_55ab23ccd063|55|32 0,1,0,0,0,0,0,0,0,0,0,0,0,0,0,1,
scooby_state_55ab23ccd7fd|21|-1 0,0,0,1,0,0,0,0,0,0,0,0,0,0,0,1,
scooby_state_55ab23ccd6d7|33|4 0,0,0,0,1,0,0,0,0,0,0,0,0,0,0,1,
scooby_state_55ab23ccd6d7|27|11 1,0,0,0,0,0,0,0,0,0,0,0,0,0,0,1,
scooby_state_7fffabbf5dc3|55|17 1,0,0,0,0,0,0,0,0,0,0,0,0,0,0,1,
scooby_state_55ab23ccd6d7|10|6 0,0,0,0,0,0,0,0,0,0,1,0,0,0,0,1,
scooby_state_55ab23ccd020|58|0 1,0,0,0,0,0,0,0,0,0,0,0,0,0,0,1,
scooby_state_55ab23ccd063|60|54 0,0,0,1,0,0,0,0,0,0,0,0,0,0,0,1,
scooby_state_55ab23ccd063|61|39 1,0,0,0,0,0,0,0,0,0,0,0,0,0,0,1,
scooby_state_55ab23ccd7d9|61|43 0,0,0,0,0,1,0,0,0,0,0,0,0,0,0,1,
scooby_state_55ab23ccd063|12|-14 1,0,0,0,0,0,0,0,0,0,0,0,0,0,0,1,
scooby_state_55ab23ccd063|38|25 1,0,0,0,0,0,0,0,0,0,0,0,0,0,0,1,
scooby_state_153e14e36581|22|1 1,0,0,0,0,0,0,0,0,0,0,0,0,0,0,1,
scooby_state_55ab23ccd063|16|-38 1,0,0,0,0,0,0,0,0,0,0,0,0,0,0,1,
scooby_state_153e14e36e6c|57|20 1,0,0,0,0,0,0,0,0,0,0,0,0,0,0,1,
scooby_state_55ab23ccd838|6|-36 0,0,0,0,0,0,0,0,1,0,0,0,0,0,0,1,
scooby_state_55ab23ccd063|53|26 0,0,0,0,0,1,0,0,0,0,0,0,0,0,0,1,
scooby_state_55ab23ccd063|23|-16 0,0,0,1,0,0,0,0,0,0,0,0,0,0,0,1,
scooby_state_55ab23ccd6d7|18|9 0,0,0,0,0,1,0,0,0,0,0,0,0,0,0,1,
scooby_state_55ab23ccd063|5|-50 0,0,1,0,0,0,0,0,0,0,0,0,0,0,0,1,
scooby_state_55ab23ccd063|57|54 0,0,0,0,0,0,0,0,0,1,0,0,0,0,0,1,
scooby_state_55ab23ccd6d7|14|-36 1,0,0,0,0,0,0,0,0,0,0,0,0,0,0,1,
scooby_state_55ab23ccd063|57|27 0,0,0,0,0,0,0,0,1,0,0,0,0,0,0,1,
scooby_state_153e14e368e8|16|-2 0,1,0,0,0,0,0,0,0,0,0,0,0,0,0,1,
scooby_state_55ab23ccd063|44|-9 0,0,0,1,0,0,0,0,0,0,0,0,0,0,0,1,
scooby_state_55ab23ccd6d7|39|18 1,0,0,0,0,0,0,0,0,0,0,0,0,0,0,1,
scooby_state_55ab23ccd6d7|11|-46 0,1,0,0,0,0,0,0,0,0,0,0,0,0,0,1,
scooby_state_55ab23ccd6d7|50|7 0,0,0,1,0,0,0,0,0,0,0,0,0,0,0,1,
scooby_state_7fffabbf5970|37|-20 1,0,0,0,0,0,0,0,0,0,0,0,0,0,0,1,
scooby_state_55ab23cccfc3|63|1 1,0,0,0,0,0,0,0,0,0,0,0,0,0,0,1,
scooby_state_55ab23ccd063|45|36 0,0,0,0,0,0,1,0,0,0,0,0,0,0,0,1,
scooby_state_55ab23ccd6d7|0|-46 0,1,0,0,0,0,0,0,0,0,0,0,0,0,0,1,
scooby_state_55ab23ccd051|56|0 0,1,0,0,0,0,0,0,0,0,0,0,0,0,0,1,
scooby_state_55ab23ccd442|17|1 1,0,0,0,0,0,0,0,0,0,0,0,0,0,0,1,
scooby_state_55ab23ccd6d7|55|-1 0,0,0,1,0,0,0,0,0,0,0,0,0,0,0,1,
scooby_state_55ab23ccd063|36|-8 1,0,0,0,0,0,0,0,0,0,0,0,0,0,0,1,

scooby_action_0_deg_dist 0,51690,0,0,0,0,0,0,0,0,0,0,0,0,0,0,
scooby_action_4_deg_dist 0,9710,100,0,32,0,19,0,0,0,0,0,0,0,0,0,
scooby_action_3_deg_dist 0,36386,9496,0,21470,0,108984,0,0,0,0,0,0,0,0,0,
scooby_action_32_deg_dist 0,6225,3,0,0,0,0,0,0,0,0,0,0,0,0,0,
scooby_action_5_deg_dist 0,43474,6690,0,15539,0,165512,0,0,0,0,0,0,0,0,0,
scooby_action_1_deg_dist 0,706587,114115,0,162746,0,416271,0,0,0,0,0,0,0,0,0,
scooby_action_30_deg_dist 0,7807,162,0,88,0,0,0,0,0,0,0,0,0,0,0,
scooby_action_-3_deg_dist 0,8041,412,0,6,0,3,0,0,0,0,0,0,0,0,0,
scooby_action_10_deg_dist 0,8529,49,0,30,0,3,0,0,0,0,0,0,0,0,0,
scooby_action_-1_deg_dist 0,8337,643,0,0,0,0,0,0,0,0,0,0,0,0,0,
scooby_action_23_deg_dist 0,6582,22,0,3,0,0,0,0,0,0,0,0,0,0,0,
scooby_action_-6_deg_dist 0,8150,327,0,2,0,0,0,0,0,0,0,0,0,0,0,
scooby_action_11_deg_dist 0,7997,35,0,6,0,0,0,0,0,0,0,0,0,0,0,
scooby_action_22_deg_dist 0,6921,26,0,7,0,0,0,0,0,0,0,0,0,0,0,
scooby_action_12_deg_dist 0,8130,37,0,0,0,0,0,0,0,0,0,0,0,0,0,

scooby_track_called 1947404
scooby_track_same_address 82702
scooby_track_evict 1864446

scooby_reward_demand_called 1947404
scooby_reward_demand_pt_not_found 1060272
scooby_reward_demand_pt_found 887132
scooby_reward_demand_pt_found_total 887132
scooby_reward_demand_has_reward 28
scooby_reward_train_called 914931
scooby_reward_assign_reward_called 1864673
scooby_reward_no_pref 51687
scooby_reward_incorrect 863244
scooby_reward_correct_untimely 713222
scooby_reward_correct_timely 173882
scooby_reward_out_of_bounds 62638
scooby_reward_tracker_hit 0

scooby_reward_none_low_bw 51687
scooby_reward_none_high_bw 0
scooby_reward_incorrect_low_bw 863244
scooby_reward_incorrect_high_bw 0
scooby_reward_correct_untimely_low_bw 713222
scooby_reward_correct_untimely_high_bw 0
scooby_reward_correct_timely_low_bw 173882
scooby_reward_correct_timely_high_bw 0
scooby_reward_out_of_bounds_low_bw 62638
scooby_reward_out_of_bounds_high_bw 0
scooby_reward_tracker_hit_low_bw 0
scooby_reward_tracker_hit_high_bw 0

scooby_reward_1 0,759546,432016,117268,20767,0,
scooby_reward_3 0,20432,116375,29981,8482,0,
scooby_reward_4 0,7367,862,321,628,0,
scooby_reward_5 0,24589,158320,25086,17475,0,
scooby_reward_10 0,5934,650,247,1286,0,
scooby_reward_11 0,5498,537,185,1303,0,
scooby_reward_12 0,5534,548,193,1353,0,
scooby_reward_22 0,3933,398,137,2122,0,
scooby_reward_23 0,3754,318,128,2081,0,
scooby_reward_30 0,3159,1150,101,3334,0,
scooby_reward_32 0,2915,300,79,2602,0,
scooby_reward_-1 0,7331,595,58,135,0,
scooby_reward_-3 0,6821,570,41,377,0,
scooby_reward_-6 0,6431,583,57,693,0,
scooby_reward_0 51687,0,0,0,0,0,

scooby_train_called 1864445
scooby_train_compute_reward 914931

scooby_register_fill_called 1475998
scooby_register_fill_set 408015
scooby_register_fill_set_total 408015

scooby_register_prefetch_hit_called 3544890
scooby_register_prefetch_hit_set 1366983
scooby_register_prefetch_hit_set_total 1366983

scooby_pref_issue_scooby 5123396

learning_engine_featurewise.action.called 1947404
learning_engine_featurewise.action.explore 3556
learning_engine_featurewise.action.exploit 1943848
learning_engine_featurewise.action.fallback 699832
learning_engine_featurewise.action.dyn_fallback_saved_bw 0
learning_engine_featurewise.action.dyn_fallback_saved_bw_acc 11569
learning_engine_featurewise.action.index_1_explored 227
learning_engine_featurewise.action.index_1_exploited 1399492
learning_engine_featurewise.action.index_3_explored 252
learning_engine_featurewise.action.index_3_exploited 176084
learning_engine_featurewise.action.index_4_explored 242
learning_engine_featurewise.action.index_4_exploited 9619
learning_engine_featurewise.action.index_5_explored 230
learning_engine_featurewise.action.index_5_exploited 230985
learning_engine_featurewise.action.index_10_explored 268
learning_engine_featurewise.action.index_10_exploited 8343
learning_engine_featurewise.action.index_11_explored 233
learning_engine_featurewise.action.index_11_exploited 7805
learning_engine_featurewise.action.index_12_explored 240
learning_engine_featurewise.action.index_12_exploited 7927
learning_engine_featurewise.action.index_22_explored 248
learning_engine_featurewise.action.index_22_exploited 6706
learning_engine_featurewise.action.index_23_explored 242
learning_engine_featurewise.action.index_23_exploited 6365
learning_engine_featurewise.action.index_30_explored 227
learning_engine_featurewise.action.index_30_exploited 7830
learning_engine_featurewise.action.index_32_explored 202
learning_engine_featurewise.action.index_32_exploited 6026
learning_engine_featurewise.action.index_-1_explored 240
learning_engine_featurewise.action.index_-1_exploited 8740
learning_engine_featurewise.action.index_-3_explored 240
learning_engine_featurewise.action.index_-3_exploited 8222
learning_engine_featurewise.action.index_-6_explored 228
learning_engine_featurewise.action.index_-6_exploited 8251
learning_engine_featurewise.action.index_0_explored 237
learning_engine_featurewise.action.index_0_exploited 51453
learning_engine_featurewise.learn.called 1864445
learning_engine_featurewise.learn.su_skip_PC 0
learning_engine_featurewise.learn.su_skip_PC_Delta 0

learning_engine_featurewise.q_value_histogram.bucket_0 665
learning_engine_featurewise.q_value_histogram.bucket_1 3615
learning_engine_featurewise.q_value_histogram.bucket_2 806737
learning_engine_featurewise.q_value_histogram.bucket_3 78191
learning_engine_featurewise.q_value_histogram.bucket_4 244184
learning_engine_featurewise.q_value_histogram.bucket_5 87231
learning_engine_featurewise.q_value_histogram.bucket_6 723225
learning_engine_featurewise.q_value_histogram.bucket_7 0

learning_engine_featurewise.consensus.total 1943848
learning_engine_featurewise.consensus.feature_align_PC 1780470
learning_engine_featurewise.consensus.feature_align_PC_ratio 0.92
learning_engine_featurewise.consensus.feature_align_PC_Delta 1921552
learning_engine_featurewise.consensus.feature_align_PC_Delta_ratio 0.99
learning_engine_featurewise.consensus.feature_align_all 1762423
learning_engine_featurewise.consensus.feature_align_all_ratio 0.91

learning_engine_featurewise.feature_PC_min_weight 1000000.00000000
learning_engine_featurewise.feature_PC_max_weight 0.00000000
learning_engine_featurewise.feature_PC_Delta_min_weight 1000000.00000000
learning_engine_featurewise.feature_PC_Delta_max_weight 0.00000000
unique_pcs 307
unique_pages 26846
unique_trigger_pcs 98
total_bitmaps_seen 0
unique_bitmaps_seen 0

scooby_bw_epochs 885169
scooby_bw_level_0 729164
scooby_bw_level_1 145050
scooby_bw_level_2 10339
scooby_bw_level_3 616

scooby_ipc_epochs 0
scooby_ipc_level_0 0
scooby_ipc_level_1 0
scooby_ipc_level_2 0
scooby_ipc_level_3 0

scooby_cache_acc_epochs 215851
scooby_cache_acc_level_0 1177
scooby_cache_acc_level_1 982
scooby_cache_acc_level_2 2385
scooby_cache_acc_level_3 12233
scooby_cache_acc_level_4 26302
scooby_cache_acc_level_5 31919
scooby_cache_acc_level_6 28364
scooby_cache_acc_level_7 21687
scooby_cache_acc_level_8 15940
scooby_cache_acc_level_9 74862

Channel_0_RQ_row_buffer_hit 732202
Channel_0_RQ_row_buffer_miss 665475
Channel_0_WQ_row_buffer_hit 28387
Channel_0_WQ_row_buffer_miss 109151
Channel_0_WQ_full 0
Channel_0_dbus_congested 628281

avg_congested_cycle 9

DRAM_bw_pochs 885169
DRAM_bw_level_0 729164
DRAM_bw_level_1 145050
DRAM_bw_level_2 10339
DRAM_bw_level_3 616
