*************************************************
   ChampSim Multicore Out-of-Order Simulator
   Last compiled: Apr  3 2025 20:54:34
*************************************************
parsing config file: /home/zir/Pythia/config/mlop.ini

trace_0 /home/zir/ChampSim/ML-DPC/ChampSimTraces/gap/bfs-10.trace.gz
adding L2C_PREFETCHER: MLOP
Initialize SHIP state
warmup_instructions 10000000
simulation_instructions 50000000
champsim_seed 97
measure_ipc 0
measure_ipc_epoch 1000
measure_dram_bw 1
measure_dram_bw_epoch 256
measure_cache_acc 1
measure_cache_acc_epoch 1024
l1d_perfect 0
l2c_perfect 0
llc_perfect 0
l1d_semi_perfect 0
l2c_semi_perfect 0
llc_semi_perfect 0
semi_perfect_cache_page_buffer_size 64

num_cpus 1
cpu_freq 4000
dram_io_freq 2400
page_size 4096
block_size 64
max_read_per_cycle 8
max_fill_per_cycle 1
dram_channels 1
log2_dram_channels 0
dram_ranks 1
dram_banks 8
dram_rows 65536
dram_columns 128
dram_row_size 8
dram_size 4096
dram_pages 1048576

fetch_width 6
decode_width 6
exec_width 4
lq_width 2
sq_width 2
retire_width 4
scheduler_size 128
branch_mispredict_penalty 20
rob_size 256
lq_size 72
sq_size 56
num_instr_destinations_sparc 4
num_instr_destinations 2
num_instr_sources 4

itlb_set 16
itlb_way 8
itlb_rq_size 16
itlb_wq_size 16
itlb_pq_size 0
itlb_mshr_size 8
itlb_latency 1

dtlb_set 16
dtlb_way 4
dtlb_rq_size 16
dtlb_wq_size 16
dtlb_pq_size 0
dtlb_mshr_size 8
dtlb_latency 1

stlb_set 128
stlb_way 12
stlb_rq_size 32
stlb_wq_size 32
stlb_pq_size 0
stlb_mshr_size 16
stlb_latency 8

l1i_size 32
l1i_set 64
l1i_way 8
l1i_rq_size 64
l1i_wq_size 64
l1i_pq_size 8
l1i_mshr_size 8
l1i_latency 1

l1d_size 32
l1d_set 64
l1d_way 8
l1d_rq_size 64
l1d_wq_size 64
l1d_pq_size 8
l1d_mshr_size 16
l1d_latency 4

l2c_size 256
l2c_set 512
l2c_way 8
l2c_rq_size 32
l2c_wq_size 32
l2c_pq_size 32
l2c_mshr_size 32
l2c_latency 10

llc_size 2048
llc_set 2048
llc_way 16
llc_rq_size 32
llc_wq_size 32
llc_pq_size 32
llc_mshr_size 64
llc_latency 20

dram_channel_width 8
dram_wq_size 64
dram_rq_size 64
tRP 15
tRCD 15
tCAS 12.5
dram_dbus_turn_around_time 30
dram_write_high_wm 56
dram_write_low_wm 48
min_dram_writes_per_switch 16
dram_mtps 2400
dram_dbus_return_time 13

mlop_pref_degree 16
mlop_num_updates 500
mlop_l1d_thresh 2
mlop_l2c_thresh 0.75
mlop_llc_thresh 0.3
mlop_debug_level 0
mlop_blocks_in_cache 4096
mlop_blocks_in_zone 64
mlop_amt_size 2048
mlop_PF_DEGREE 16
mlop_NUM_UPDATES 500
mlop_L1D_THRESH 1000
mlop_L2C_THRESH 375
mlop_LLC_THRESH 150
mlop_ORIGIN 63
mlop_MAX_OFFSET 63
mlop_MIN_OFFSET -63
mlop_ORIGIN 63
mlop_NUM_OFFSETS 127


Heartbeat CPU  0 instructions:    1000001 cycles:    1375974 heartbeat IPC: 0.72676 cumulative IPC: 0.72676 (Simulation time: 0 hr 0 min 1 sec) 
Heartbeat CPU  0 instructions:    2000000 cycles:    2749438 heartbeat IPC: 0.72809 cumulative IPC: 0.72742 (Simulation time: 0 hr 0 min 2 sec) 
Heartbeat CPU  0 instructions:    3000003 cycles:    4127432 heartbeat IPC: 0.72569 cumulative IPC: 0.72684 (Simulation time: 0 hr 0 min 3 sec) 
Heartbeat CPU  0 instructions:    4000000 cycles:    5501602 heartbeat IPC: 0.72771 cumulative IPC: 0.72706 (Simulation time: 0 hr 0 min 4 sec) 
Heartbeat CPU  0 instructions:    5000000 cycles:    6872995 heartbeat IPC: 0.72919 cumulative IPC: 0.72748 (Simulation time: 0 hr 0 min 4 sec) 
Heartbeat CPU  0 instructions:    6000000 cycles:    8248950 heartbeat IPC: 0.72677 cumulative IPC: 0.72737 (Simulation time: 0 hr 0 min 5 sec) 
Heartbeat CPU  0 instructions:    7000002 cycles:    9625436 heartbeat IPC: 0.72649 cumulative IPC: 0.72724 (Simulation time: 0 hr 0 min 6 sec) 
Heartbeat CPU  0 instructions:    8000000 cycles:   11005708 heartbeat IPC: 0.72449 cumulative IPC: 0.72690 (Simulation time: 0 hr 0 min 7 sec) 
Heartbeat CPU  0 instructions:    9000000 cycles:   12375151 heartbeat IPC: 0.73022 cumulative IPC: 0.72726 (Simulation time: 0 hr 0 min 8 sec) 
Heartbeat CPU  0 instructions:   10000001 cycles:   13759202 heartbeat IPC: 0.72252 cumulative IPC: 0.72679 (Simulation time: 0 hr 0 min 9 sec) 

Warmup complete CPU  0 instructions:   10000001 cycles:   13759202 (Simulation time: 0 hr 0 min 9 sec) 

Heartbeat CPU  0 instructions:   11000000 cycles:   16759678 heartbeat IPC: 0.33328 cumulative IPC: 0.33328 (Simulation time: 0 hr 0 min 10 sec) 
Heartbeat CPU  0 instructions:   12000000 cycles:   19606023 heartbeat IPC: 0.35133 cumulative IPC: 0.34207 (Simulation time: 0 hr 0 min 12 sec) 
Heartbeat CPU  0 instructions:   13000002 cycles:   22406559 heartbeat IPC: 0.35708 cumulative IPC: 0.34693 (Simulation time: 0 hr 0 min 14 sec) 
Heartbeat CPU  0 instructions:   14000000 cycles:   25167650 heartbeat IPC: 0.36217 cumulative IPC: 0.35062 (Simulation time: 0 hr 0 min 15 sec) 
Heartbeat CPU  0 instructions:   15000003 cycles:   27941201 heartbeat IPC: 0.36055 cumulative IPC: 0.35256 (Simulation time: 0 hr 0 min 17 sec) 
Heartbeat CPU  0 instructions:   16000000 cycles:   30678844 heartbeat IPC: 0.36528 cumulative IPC: 0.35462 (Simulation time: 0 hr 0 min 18 sec) 
Heartbeat CPU  0 instructions:   17000000 cycles:   33436295 heartbeat IPC: 0.36265 cumulative IPC: 0.35574 (Simulation time: 0 hr 0 min 20 sec) 
Heartbeat CPU  0 instructions:   18000001 cycles:   36189825 heartbeat IPC: 0.36317 cumulative IPC: 0.35666 (Simulation time: 0 hr 0 min 22 sec) 
Heartbeat CPU  0 instructions:   19000000 cycles:   38978811 heartbeat IPC: 0.35855 cumulative IPC: 0.35687 (Simulation time: 0 hr 0 min 23 sec) 
Heartbeat CPU  0 instructions:   20000000 cycles:   41761865 heartbeat IPC: 0.35932 cumulative IPC: 0.35711 (Simulation time: 0 hr 0 min 25 sec) 
Heartbeat CPU  0 instructions:   21000001 cycles:   44515505 heartbeat IPC: 0.36316 cumulative IPC: 0.35765 (Simulation time: 0 hr 0 min 26 sec) 
Heartbeat CPU  0 instructions:   22000000 cycles:   47286538 heartbeat IPC: 0.36088 cumulative IPC: 0.35792 (Simulation time: 0 hr 0 min 28 sec) 
Heartbeat CPU  0 instructions:   23000000 cycles:   50052721 heartbeat IPC: 0.36151 cumulative IPC: 0.35819 (Simulation time: 0 hr 0 min 29 sec) 
Heartbeat CPU  0 instructions:   24000000 cycles:   52841551 heartbeat IPC: 0.35857 cumulative IPC: 0.35822 (Simulation time: 0 hr 0 min 31 sec) 
Heartbeat CPU  0 instructions:   25000001 cycles:   55609546 heartbeat IPC: 0.36127 cumulative IPC: 0.35842 (Simulation time: 0 hr 0 min 33 sec) 
Heartbeat CPU  0 instructions:   26000000 cycles:   58401565 heartbeat IPC: 0.35816 cumulative IPC: 0.35840 (Simulation time: 0 hr 0 min 34 sec) 
Heartbeat CPU  0 instructions:   27000001 cycles:   61160794 heartbeat IPC: 0.36242 cumulative IPC: 0.35864 (Simulation time: 0 hr 0 min 36 sec) 
Heartbeat CPU  0 instructions:   28000000 cycles:   63910646 heartbeat IPC: 0.36366 cumulative IPC: 0.35891 (Simulation time: 0 hr 0 min 37 sec) 
Heartbeat CPU  0 instructions:   29000000 cycles:   66643462 heartbeat IPC: 0.36592 cumulative IPC: 0.35928 (Simulation time: 0 hr 0 min 39 sec) 
Heartbeat CPU  0 instructions:   30000002 cycles:   69399573 heartbeat IPC: 0.36283 cumulative IPC: 0.35945 (Simulation time: 0 hr 0 min 40 sec) 
Heartbeat CPU  0 instructions:   31000000 cycles:   72180852 heartbeat IPC: 0.35955 cumulative IPC: 0.35946 (Simulation time: 0 hr 0 min 42 sec) 
Heartbeat CPU  0 instructions:   32000000 cycles:   74946016 heartbeat IPC: 0.36164 cumulative IPC: 0.35955 (Simulation time: 0 hr 0 min 44 sec) 
Heartbeat CPU  0 instructions:   33000001 cycles:   77685470 heartbeat IPC: 0.36504 cumulative IPC: 0.35979 (Simulation time: 0 hr 0 min 45 sec) 
Heartbeat CPU  0 instructions:   34000002 cycles:   80454499 heartbeat IPC: 0.36114 cumulative IPC: 0.35985 (Simulation time: 0 hr 0 min 47 sec) 
Heartbeat CPU  0 instructions:   35000000 cycles:   83222572 heartbeat IPC: 0.36126 cumulative IPC: 0.35990 (Simulation time: 0 hr 0 min 48 sec) 
Heartbeat CPU  0 instructions:   36000000 cycles:   85994960 heartbeat IPC: 0.36070 cumulative IPC: 0.35993 (Simulation time: 0 hr 0 min 50 sec) 
Heartbeat CPU  0 instructions:   37000000 cycles:   88733571 heartbeat IPC: 0.36515 cumulative IPC: 0.36012 (Simulation time: 0 hr 0 min 51 sec) 
Heartbeat CPU  0 instructions:   38000000 cycles:   91494198 heartbeat IPC: 0.36224 cumulative IPC: 0.36020 (Simulation time: 0 hr 0 min 53 sec) 
Heartbeat CPU  0 instructions:   39000000 cycles:   94259073 heartbeat IPC: 0.36168 cumulative IPC: 0.36025 (Simulation time: 0 hr 0 min 55 sec) 
Heartbeat CPU  0 instructions:   40000000 cycles:   97011107 heartbeat IPC: 0.36337 cumulative IPC: 0.36035 (Simulation time: 0 hr 0 min 56 sec) 
Heartbeat CPU  0 instructions:   41000000 cycles:   99773548 heartbeat IPC: 0.36200 cumulative IPC: 0.36040 (Simulation time: 0 hr 0 min 58 sec) 
Heartbeat CPU  0 instructions:   42000000 cycles:  102542555 heartbeat IPC: 0.36114 cumulative IPC: 0.36043 (Simulation time: 0 hr 0 min 59 sec) 
Heartbeat CPU  0 instructions:   43000000 cycles:  105290103 heartbeat IPC: 0.36396 cumulative IPC: 0.36053 (Simulation time: 0 hr 1 min 1 sec) 
Heartbeat CPU  0 instructions:   44000000 cycles:  108037426 heartbeat IPC: 0.36399 cumulative IPC: 0.36063 (Simulation time: 0 hr 1 min 2 sec) 
Heartbeat CPU  0 instructions:   45000000 cycles:  110799325 heartbeat IPC: 0.36207 cumulative IPC: 0.36068 (Simulation time: 0 hr 1 min 4 sec) 
Heartbeat CPU  0 instructions:   46000001 cycles:  113549161 heartbeat IPC: 0.36366 cumulative IPC: 0.36076 (Simulation time: 0 hr 1 min 6 sec) 
Heartbeat CPU  0 instructions:   47000000 cycles:  116298872 heartbeat IPC: 0.36367 cumulative IPC: 0.36084 (Simulation time: 0 hr 1 min 7 sec) 
Heartbeat CPU  0 instructions:   48000000 cycles:  119077104 heartbeat IPC: 0.35994 cumulative IPC: 0.36081 (Simulation time: 0 hr 1 min 9 sec) 
Heartbeat CPU  0 instructions:   49000000 cycles:  121828966 heartbeat IPC: 0.36339 cumulative IPC: 0.36088 (Simulation time: 0 hr 1 min 10 sec) 
Heartbeat CPU  0 instructions:   50000001 cycles:  124591287 heartbeat IPC: 0.36201 cumulative IPC: 0.36091 (Simulation time: 0 hr 1 min 12 sec) 
Heartbeat CPU  0 instructions:   51000003 cycles:  127356328 heartbeat IPC: 0.36166 cumulative IPC: 0.36092 (Simulation time: 0 hr 1 min 14 sec) 
Heartbeat CPU  0 instructions:   52000000 cycles:  130121597 heartbeat IPC: 0.36163 cumulative IPC: 0.36094 (Simulation time: 0 hr 1 min 15 sec) 
Heartbeat CPU  0 instructions:   53000000 cycles:  132904958 heartbeat IPC: 0.35928 cumulative IPC: 0.36090 (Simulation time: 0 hr 1 min 17 sec) 
Heartbeat CPU  0 instructions:   54000000 cycles:  135678770 heartbeat IPC: 0.36051 cumulative IPC: 0.36089 (Simulation time: 0 hr 1 min 18 sec) 
Heartbeat CPU  0 instructions:   55000000 cycles:  138842777 heartbeat IPC: 0.31605 cumulative IPC: 0.35976 (Simulation time: 0 hr 1 min 20 sec) 
Heartbeat CPU  0 instructions:   56000000 cycles:  143261261 heartbeat IPC: 0.22632 cumulative IPC: 0.35521 (Simulation time: 0 hr 1 min 23 sec) 
Heartbeat CPU  0 instructions:   57000003 cycles:  147593424 heartbeat IPC: 0.23083 cumulative IPC: 0.35118 (Simulation time: 0 hr 1 min 26 sec) 
Heartbeat CPU  0 instructions:   58000002 cycles:  151885090 heartbeat IPC: 0.23301 cumulative IPC: 0.34751 (Simulation time: 0 hr 1 min 28 sec) 
Heartbeat CPU  0 instructions:   59000000 cycles:  156178743 heartbeat IPC: 0.23290 cumulative IPC: 0.34405 (Simulation time: 0 hr 1 min 30 sec) 
Heartbeat CPU  0 instructions:   60000000 cycles:  160455952 heartbeat IPC: 0.23380 cumulative IPC: 0.34084 (Simulation time: 0 hr 1 min 32 sec) 
Finished CPU 0 instructions: 50000001 cycles: 146696764 cumulative IPC: 0.34084 (Simulation time: 0 hr 1 min 32 sec) 

ChampSim completed all CPUs

[ROI Statistics]
Core_0_instructions 50000001
Core_0_cycles 146696764
Core_0_IPC 0.34084

Core_0_branch_prediction_accuracy 87.16968
Core_0_branch_MPKI 26.28968
Core_0_average_ROB_occupancy_at_mispredict 36.70389

Core_0_L1D_total_access 10708506
Core_0_L1D_total_hit 7905743
Core_0_L1D_total_miss 2802763
Core_0_L1D_loads 9814238
Core_0_L1D_load_hit 7021827
Core_0_L1D_load_miss 2792411
Core_0_L1D_RFOs 894268
Core_0_L1D_RFO_hit 883916
Core_0_L1D_RFO_miss 10352
Core_0_L1D_prefetches 0
Core_0_L1D_prefetch_hit 0
Core_0_L1D_prefetch_miss 0
Core_0_L1D_writebacks 0
Core_0_L1D_writeback_hit 0
Core_0_L1D_writeback_miss 0
Core_0_L1D_prefetch_requested 0
Core_0_L1D_prefetch_dropped 0
Core_0_L1D_prefetch_issued 0
Core_0_L1D_prefetch_filled 0
Core_0_L1D_prefetch_useful 0
Core_0_L1D_prefetch_useless 0
Core_0_L1D_prefetch_late 0
Core_0_L1D_average_miss_latency 22.73243

Core_0_L1D_rq_access 13122254
Core_0_L1D_rq_forward 0
Core_0_L1D_rq_merged 3028053
Core_0_L1D_rq_to_cache 10094201
Core_0_L1D_rq_full 0

Core_0_L1D_wq_access 932376
Core_0_L1D_wq_forward 0
Core_0_L1D_wq_merged 57
Core_0_L1D_wq_to_cache 932319
Core_0_L1D_wq_full 185493

Core_0_L1D_pq_access 0
Core_0_L1D_pq_forward 0
Core_0_L1D_pq_merged 0
Core_0_L1D_pq_to_cache 0
Core_0_L1D_pq_full 0

Core_0_L1D_acc_epochs 153201
Core_0_L1D_acc_level_0 153201
Core_0_L1D_acc_level_1 0
Core_0_L1D_acc_level_2 0
Core_0_L1D_acc_level_3 0
Core_0_L1D_acc_level_4 0
Core_0_L1D_acc_level_5 0
Core_0_L1D_acc_level_6 0
Core_0_L1D_acc_level_7 0
Core_0_L1D_acc_level_8 0
Core_0_L1D_acc_level_9 0

Core_0_L1I_total_access 9736353
Core_0_L1I_total_hit 9736315
Core_0_L1I_total_miss 38
Core_0_L1I_loads 9736353
Core_0_L1I_load_hit 9736315
Core_0_L1I_load_miss 38
Core_0_L1I_RFOs 0
Core_0_L1I_RFO_hit 0
Core_0_L1I_RFO_miss 0
Core_0_L1I_prefetches 0
Core_0_L1I_prefetch_hit 0
Core_0_L1I_prefetch_miss 0
Core_0_L1I_writebacks 0
Core_0_L1I_writeback_hit 0
Core_0_L1I_writeback_miss 0
Core_0_L1I_prefetch_requested 0
Core_0_L1I_prefetch_dropped 0
Core_0_L1I_prefetch_issued 0
Core_0_L1I_prefetch_filled 0
Core_0_L1I_prefetch_useful 0
Core_0_L1I_prefetch_useless 0
Core_0_L1I_prefetch_late 0
Core_0_L1I_average_miss_latency 237.86842

Core_0_L1I_rq_access 50000017
Core_0_L1I_rq_forward 0
Core_0_L1I_rq_merged 40263651
Core_0_L1I_rq_to_cache 9736366
Core_0_L1I_rq_full 0

Core_0_L1I_wq_access 0
Core_0_L1I_wq_forward 0
Core_0_L1I_wq_merged 0
Core_0_L1I_wq_to_cache 0
Core_0_L1I_wq_full 0

Core_0_L1I_pq_access 0
Core_0_L1I_pq_forward 0
Core_0_L1I_pq_merged 0
Core_0_L1I_pq_to_cache 0
Core_0_L1I_pq_full 0

Core_0_L1I_acc_epochs 153201
Core_0_L1I_acc_level_0 153201
Core_0_L1I_acc_level_1 0
Core_0_L1I_acc_level_2 0
Core_0_L1I_acc_level_3 0
Core_0_L1I_acc_level_4 0
Core_0_L1I_acc_level_5 0
Core_0_L1I_acc_level_6 0
Core_0_L1I_acc_level_7 0
Core_0_L1I_acc_level_8 0
Core_0_L1I_acc_level_9 0

Core_0_L2C_total_access 3571062
Core_0_L2C_total_hit 2559767
Core_0_L2C_total_miss 1011295
Core_0_L2C_loads 2792449
Core_0_L2C_load_hit 2456067
Core_0_L2C_load_miss 336382
Core_0_L2C_RFOs 10352
Core_0_L2C_RFO_hit 1869
Core_0_L2C_RFO_miss 8483
Core_0_L2C_prefetches 666584
Core_0_L2C_prefetch_hit 182
Core_0_L2C_prefetch_miss 666402
Core_0_L2C_writebacks 101677
Core_0_L2C_writeback_hit 101649
Core_0_L2C_writeback_miss 28
Core_0_L2C_prefetch_requested 2345136
Core_0_L2C_prefetch_dropped 0
Core_0_L2C_prefetch_issued 2345136
Core_0_L2C_prefetch_filled 791004
Core_0_L2C_prefetch_useful 635708
Core_0_L2C_prefetch_useless 154923
Core_0_L2C_prefetch_late 13947
Core_0_L2C_average_miss_latency 54.19510

Core_0_L2C_rq_access 2802801
Core_0_L2C_rq_forward 0
Core_0_L2C_rq_merged 0
Core_0_L2C_rq_to_cache 2802801
Core_0_L2C_rq_full 0

Core_0_L2C_wq_access 101677
Core_0_L2C_wq_forward 0
Core_0_L2C_wq_merged 0
Core_0_L2C_wq_to_cache 101677
Core_0_L2C_wq_full 0

Core_0_L2C_pq_access 2345136
Core_0_L2C_pq_forward 0
Core_0_L2C_pq_merged 3692
Core_0_L2C_pq_to_cache 2341444
Core_0_L2C_pq_full 0

Core_0_L2C_acc_epochs 153201
Core_0_L2C_acc_level_0 9669
Core_0_L2C_acc_level_1 132
Core_0_L2C_acc_level_2 153
Core_0_L2C_acc_level_3 356
Core_0_L2C_acc_level_4 2493
Core_0_L2C_acc_level_5 10868
Core_0_L2C_acc_level_6 27267
Core_0_L2C_acc_level_7 37652
Core_0_L2C_acc_level_8 31443
Core_0_L2C_acc_level_9 33168

Core_0_LLC_total_access 2625514
Core_0_LLC_total_hit 1027533
Core_0_LLC_total_miss 1597981
Core_0_LLC_loads 322443
Core_0_LLC_load_hit 252486
Core_0_LLC_load_miss 69957
Core_0_LLC_RFOs 8474
Core_0_LLC_RFO_hit 2148
Core_0_LLC_RFO_miss 6326
Core_0_LLC_prefetches 2192522
Core_0_LLC_prefetch_hit 676578
Core_0_LLC_prefetch_miss 1515944
Core_0_LLC_writebacks 102075
Core_0_LLC_writeback_hit 96321
Core_0_LLC_writeback_miss 5754
Core_0_LLC_prefetch_requested 0
Core_0_LLC_prefetch_dropped 0
Core_0_LLC_prefetch_issued 0
Core_0_LLC_prefetch_filled 1640546
Core_0_LLC_prefetch_useful 164086
Core_0_LLC_prefetch_useless 1456306
Core_0_LLC_prefetch_late 1143
Core_0_LLC_average_miss_latency 155.98437

Core_0_LLC_rq_access 330918
Core_0_LLC_rq_forward 0
Core_0_LLC_rq_merged 0
Core_0_LLC_rq_to_cache 330917
Core_0_LLC_rq_full 0

Core_0_LLC_wq_access 102075
Core_0_LLC_wq_forward 2
Core_0_LLC_wq_merged 0
Core_0_LLC_wq_to_cache 102075
Core_0_LLC_wq_full 0

Core_0_LLC_pq_access 2322146
Core_0_LLC_pq_forward 0
Core_0_LLC_pq_merged 784
Core_0_LLC_pq_to_cache 2321361
Core_0_LLC_pq_full 0

Core_0_LLC_acc_epochs 156696
Core_0_LLC_acc_level_0 80233
Core_0_LLC_acc_level_1 41323
Core_0_LLC_acc_level_2 14926
Core_0_LLC_acc_level_3 6867
Core_0_LLC_acc_level_4 2950
Core_0_LLC_acc_level_5 4515
Core_0_LLC_acc_level_6 1680
Core_0_LLC_acc_level_7 1107
Core_0_LLC_acc_level_8 588
Core_0_LLC_acc_level_9 2507

Core_0_major_page_fault 0
Core_0_minor_page_fault 27074

[MLOP] History of tracked zone:
IIIIIIIIIIIIIIIIIIIIIIIIIIIIIIIIIIIIIIIIIIIIIIIIIIIIIIIIIIIIIIII
A2222222222222222IIIIIIIIIIIIIIIIIIIIIIIIIIIIIIIIIIIIIIIIIIIIIII
AA2222222222222222IIIIIIIIIIIIIIIIIIIIIIIIIIIIIIIIIIIIIIIIIIIIII
AAA2222222222222222IIIIIIIIIIIIIIIIIIIIIIIIIIIIIIIIIIIIIIIIIIIII
AAAA2222222222222222IIIIIIIIIIIIIIIIIIIIIIIIIIIIIIIIIIIIIIIIIIII
AAAAA2222222222222222IIIIIIIIIIIIIIIIIIIIIIIIIIIIIIIIIIIIIIIIIII
AAAAAA2222222222222222IIIIIIIIIIIIIIIIIIIIIIIIIIIIIIIIIIIIIIIIII
AAAAAAA2222222222222222IIIIIIIIIIIIIIIIIIIIIIIIIIIIIIIIIIIIIIIII
AAAAAAAA2222222222222222IIIIIIIIIIIIIIIIIIIIIIIIIIIIIIIIIIIIIIII
AAAAAAAAA2222222222222222IIIIIIIIIIIIIIIIIIIIIIIIIIIIIIIIIIIIIII
AAAAAAAAAA2222222222222222IIIIIIIIIIIIIIIIIIIIIIIIIIIIIIIIIIIIII
AAAAAAAAAAA2222222222222222IIIIIIIIIIIIIIIIIIIIIIIIIIIIIIIIIIIII
AAAAAAAAAAAA2222222222222222IIIIIIIIIIIIIIIIIIIIIIIIIIIIIIIIIIII
AAAAAAAAAAAAA2222222222222222IIIIIIIIIIIIIIIIIIIIIIIIIIIIIIIIIII
AAAAAAAAAAAAAA2222222222222222IIIIIIIIIIIIIIIIIIIIIIIIIIIIIIIIII
AAAAAAAAAAAAAAA2222222222222222IIIIIIIIIIIIIIIIIIIIIIIIIIIIIIIII
AAAAAAAAAAAAAAAA2222222222222222IIIIIIIIIIIIIIIIIIIIIIIIIIIIIIII
AAAAAAAAAAAAAAAAA2222222222222222IIIIIIIIIIIIIIIIIIIIIIIIIIIIIII
AAAAAAAAAAAAAAAAAA2222222222222222IIIIIIIIIIIIIIIIIIIIIIIIIIIIII
AAAAAAAAAAAAAAAAAAA2222222222222222IIIIIIIIIIIIIIIIIIIIIIIIIIIII
AAAAAAAAAAAAAAAAAAAA2222222222222222IIIIIIIIIIIIIIIIIIIIIIIIIIII
AAAAAAAAAAAAAAAAAAAAA2222222222222222IIIIIIIIIIIIIIIIIIIIIIIIIII
AAAAAAAAAAAAAAAAAAAAAA2222222222222222IIIIIIIIIIIIIIIIIIIIIIIIII
AAAAAAAAAAAAAAAAAAAAAAA2222222222222222IIIIIIIIIIIIIIIIIIIIIIIII
AAAAAAAAAAAAAAAAAAAAAAAA2222222222222222IIIIIIIIIIIIIIIIIIIIIIII
AAAAAAAAAAAAAAAAAAAAAAAAA2222222222222222IIIIIIIIIIIIIIIIIIIIIII
AAAAAAAAAAAAAAAAAAAAAAAAAA2222222222222222IIIIIIIIIIIIIIIIIIIIII
AAAAAAAAAAAAAAAAAAAAAAAAAAA2222222222222222IIIIIIIIIIIIIIIIIIIII
AAAAAAAAAAAAAAAAAAAAAAAAAAAA2222222222222222IIIIIIIIIIIIIIIIIIII
AAAAAAAAAAAAAAAAAAAAAAAAAAAAA2222222222222222IIIIIIIIIIIIIIIIIII
AAAAAAAAAAAAAAAAAAAAAAAAAAAAAA2222222222222222IIIIIIIIIIIIIIIIII
AAAAAAAAAAAAAAAAAAAAAAAAAAAAAAA2222222222222222IIIIIIIIIIIIIIIII
AAAAAAAAAAAAAAAAAAAAAAAAAAAAAAAA2222222222222222IIIIIIIIIIIIIIII
AAAAAAAAAAAAAAAAAAAAAAAAAAAAAAAAA2222222222222222IIIIIIIIIIIIIII
AAAAAAAAAAAAAAAAAAAAAAAAAAAAAAAAAA2222222222222222IIIIIIIIIIIIII
AAAAAAAAAAAAAAAAAAAAAAAAAAAAAAAAAAA2222222222222222IIIIIIIIIIIII
AAAAAAAAAAAAAAAAAAAAAAAAAAAAAAAAAAAA2222222222222222IIIIIIIIIIII
AAAAAAAAAAAAAAAAAAAAAAAAAAAAAAAAAAAAA2222222222222222IIIIIIIIIII
AAAAAAAAAAAAAAAAAAAAAAAAAAAAAAAAAAAAAA2222222222222222IIIIIIIIII
AAAAAAAAAAAAAAAAAAAAAAAAAAAAAAAAAAAAAAA2222222222222222IIIIIIIII
AAAAAAAAAAAAAAAAAAAAAAAAAAAAAAAAAAAAAAAA2222222222222222IIIIIIII
AAAAAAAAAAAAAAAAAAAAAAAAAAAAAAAAAAAAAAAAA2222222222222222IIIIIII
AAAAAAAAAAAAAAAAAAAAAAAAAAAAAAAAAAAAAAAAAA2222222222222222IIIIII
AAAAAAAAAAAAAAAAAAAAAAAAAAAAAAAAAAAAAAAAAAA2222222222222222IIIII
AAAAAAAAAAAAAAAAAAAAAAAAAAAAAAAAAAAAAAAAAAAA2222222222222222IIII
AAAAAAAAAAAAAAAAAAAAAAAAAAAAAAAAAAAAAAAAAAAAA2222222222222222III
AAAAAAAAAAAAAAAAAAAAAAAAAAAAAAAAAAAAAAAAAAAAAA2222222222222222II
AAAAAAAAAAAAAAAAAAAAAAAAAAAAAAAAAAAAAAAAAAAAAAA2222222222222222I
AAAAAAAAAAAAAAAAAAAAAAAAAAAAAAAAAAAAAAAAAAAAAAAA2222222222222222
AAAAAAAAAAAAAAAAAAAAAAAAAAAAAAAAAAAAAAAAAAAAAAAAA222222222222222
AAAAAAAAAAAAAAAAAAAAAAAAAAAAAAAAAAAAAAAAAAAAAAAAAA22222222222222
AAAAAAAAAAAAAAAAAAAAAAAAAAAAAAAAAAAAAAAAAAAAAAAAAAA2222222222222
AAAAAAAAAAAAAAAAAAAAAAAAAAAAAAAAAAAAAAAAAAAAAAAAAAAA222222222222
AAAAAAAAAAAAAAAAAAAAAAAAAAAAAAAAAAAAAAAAAAAAAAAAAAAAA22222222222
AAAAAAAAAAAAAAAAAAAAAAAAAAAAAAAAAAAAAAAAAAAAAAAAAAAAAA2222222222
AAAAAAAAAAAAAAAAAAAAAAAAAAAAAAAAAAAAAAAAAAAAAAAAAAAAAAA222222222
AAAAAAAAAAAAAAAAAAAAAAAAAAAAAAAAAAAAAAAAAAAAAAAAAAAAAAAA22222222
AAAAAAAAAAAAAAAAAAAAAAAAAAAAAAAAAAAAAAAAAAAAAAAAAAAAAAAAA2222222
AAAAAAAAAAAAAAAAAAAAAAAAAAAAAAAAAAAAAAAAAAAAAAAAAAAAAAAAAA222222
AAAAAAAAAAAAAAAAAAAAAAAAAAAAAAAAAAAAAAAAAAAAAAAAAAAAAAAAAAA22222
AAAAAAAAAAAAAAAAAAAAAAAAAAAAAAAAAAAAAAAAAAAAAAAAAAAAAAAAAAAA2222
AAAAAAAAAAAAAAAAAAAAAAAAAAAAAAAAAAAAAAAAAAAAAAAAAAAAAAAAAAAAA222
AAAAAAAAAAAAAAAAAAAAAAAAAAAAAAAAAAAAAAAAAAAAAAAAAAAAAAAAAAAAAA22
AAAAAAAAAAAAAAAAAAAAAAAAAAAAAAAAAAAAAAAAAAAAAAAAAAAAAAAAAAAAAAA2
AAAAAAAAAAAAAAAAAAAAAAAAAAAAAAAAAAAAAAAAAAAAAAAAAAAAAAAAAAAAAAAA
AIAAAAAAAAAAAAAAAAAAAAAAAAAAAAAAAAAAAAAAAAAAAAAAAAAAAAAAAAAAAAAA
AIIAAAAAAAAAAAAAAAAAAAAAAAAAAAAAAAAAAAAAAAAAAAAAAAAAAAAAAAAAAAAA
AIIIAAAAAAAAAAAAAAAAAAAAAAAAAAAAAAAAAAAAAAAAAAAAAAAAAAAAAAAAAAAA
AIIIIAAAAAAAAAAAAAAAAAAAAAAAAAAAAAAAAAAAAAAAAAAAAAAAAAAAAAAAAAAA
AIIIIIAAAAAAAAAAAAAAAAAAAAAAAAAAAAAAAAAAAAAAAAAAAAAAAAAAAAAAAAAA
AIIIIIIAAAAAAAAAAAAAAAAAAAAAAAAAAAAAAAAAAAAAAAAAAAAAAAAAAAAAAAAA
AIIIIIIIAAAAAAAAAAAAAAAAAAAAAAAAAAAAAAAAAAAAAAAAAAAAAAAAAAAAAAAA
AIIIIIIIIAAAAAAAAAAAAAAAAAAAAAAAAAAAAAAAAAAAAAAAAAAAAAAAAAAAAAAA
AIIIIIIIIIAAAAAAAAAAAAAAAAAAAAAAAAAAAAAAAAAAAAAAAAAAAAAAAAAAAAAA
AIIIIIIIIIIAAAAAAAAAAAAAAAAAAAAAAAAAAAAAAAAAAAAAAAAAAAAAAAAAAAAA
AIIIIIIIIIIIAAAAAAAAAAAAAAAAAAAAAAAAAAAAAAAAAAAAAAAAAAAAAAAAAAAA
AIIIIIIIIIIIIAAAAAAAAAAAAAAAAAAAAAAAAAAAAAAAAAAAAAAAAAAAAAAAAAAA
AIIIIIIIIIIIIIAAAAAAAAAAAAAAAAAAAAAAAAAAAAAAAAAAAAAAAAAAAAAAAAAA
AIIIIIIIIIIIIIIAAAAAAAAAAAAAAAAAAAAAAAAAAAAAAAAAAAAAAAAAAAAAAAAA
AIIIIIIIIIIIIIIIAAAAAAAAAAAAAAAAAAAAAAAAAAAAAAAAAAAAAAAAAAAAAAAA
AIIIIIIIIIIIIIIIIAAAAAAAAAAAAAAAAAAAAAAAAAAAAAAAAAAAAAAAAAAAAAAA
AIIIIIIIIIIIIIIIIIAAAAAAAAAAAAAAAAAAAAAAAAAAAAAAAAAAAAAAAAAAAAAA
AIIIIIIIIIIIIIIIIIIAAAAAAAAAAAAAAAAAAAAAAAAAAAAAAAAAAAAAAAAAAAAA
AIIIIIIIIIIIIIIIIIIIAAAAAAAAAAAAAAAAAAAAAAAAAAAAAAAAAAAAAAAAAAAA
AIIIIIIIIIIIIIIIIIIIIAAAAAAAAAAAAAAAAAAAAAAAAAAAAAAAAAAAAAAAAAAA
AIIIIIIIIIIIIIIIIIIIIIAAAAAAAAAAAAAAAAAAAAAAAAAAAAAAAAAAAAAAAAAA
AIIIIIIIIIIIIIIIIIIIIIIAAAAAAAAAAAAAAAAAAAAAAAAAAAAAAAAAAAAAAAAA
AIIIIIIIIIIIIIIIIIIIIIIIAAAAAAAAAAAAAAAAAAAAAAAAAAAAAAAAAAAAAAAA
AIIIIIIIIIIIIIIIIIIIIIIIIAAAAAAAAAAAAAAAAAAAAAAAAAAAAAAAAAAAAAAA
AIIIIIIIIIIIIIIIIIIIIIIIIIAAAAAAAAAAAAAAAAAAAAAAAAAAAAAAAAAAAAAA
AIIIIIIIIIIIIIIIIIIIIIIIIIIAAAAAAAAAAAAAAAAAAAAAAAAAAAAAAAAAAAAA
AIIIIIIIIIIIIIIIIIIIIIIIIIIIAAAAAAAAAAAAAAAAAAAAAAAAAAAAAAAAAAAA
AIIIIIIIIIIIIIIIIIIIIIIIIIIIIAAAAAAAAAAAAAAAAAAAAAAAAAAAAAAAAAAA
AIIIIIIIIIIIIIIIIIIIIIIIIIIIIIAAAAAAAAAAAAAAAAAAAAAAAAAAAAAAAAAA
AIIIIIIIIIIIIIIIIIIIIIIIIIIIIIIAAAAAAAAAAAAAAAAAAAAAAAAAAAAAAAAA
AIIIIIIIIIIIIIIIIIIIIIIIIIIIIIIIAAAAAAAAAAAAAAAAAAAAAAAAAAAAAAAA
AIIIIIIIIIIIIIIIIIIIIIIIIIIIIIIIIAAAAAAAAAAAAAAAAAAAAAAAAAAAAAAA
AIIIIIIIIIIIIIIIIIIIIIIIIIIIIIIIIIAAAAAAAAAAAAAAAAAAAAAAAAAAAAAA
AIIIIIIIIIIIIIIIIIIIIIIIIIIIIIIIIIIAAAAAAAAAAAAAAAAAAAAAAAAAAAAA
AIIIIIIIIIIIIIIIIIIIIIIIIIIIIIIIIIIIAAAAAAAAAAAAAAAAAAAAAAAAAAAA
AIIIIIIIIIIIIIIIIIIIIIIIIIIIIIIIIIIIIAAAAAAAAAAAAAAAAAAAAAAAAAAA
AIIIIIIIIIIIIIIIIIIIIIIIIIIIIIIIIIIIIIAAAAAAAAAAAAAAAAAAAAAAAAAA
AIIIIIIIIIIIIIIIIIIIIIIIIIIIIIIIIIIIIIIAAAAAAAAAAAAAAAAAAAAAAAAA
AIIIIIIIIIIIIIIIIIIIIIIIIIIIIIIIIIIIIIIIAAAAAAAAAAAAAAAAAAAAAAAA
AIIIIIIIIIIIIIIIIIIIIIIIIIIIIIIIIIIIIIIIIAAAAAAAAAAAAAAAAAAAAAAA
AIIIIIIIIIIIIIIIIIIIIIIIIIIIIIIIIIIIIIIIIIAAAAAAAAAAAAAAAAAAAAAA
AIIIIIIIIIIIIIIIIIIIIIIIIIIIIIIIIIIIIIIIIIIAAAAAAAAAAAAAAAAAAAAA
AIIIIIIIIIIIIIIIIIIIIIIIIIIIIIIIIIIIIIIIIIIIAAAAAAAAAAAAAAAAAAAA
AIIIIIIIIIIIIIIIIIIIIIIIIIIIIIIIIIIIIIIIIIIIIAAAAAAAAAAAAAAAAAAA
AIIIIIIIIIIIIIIIIIIIIIIIIIIIIIIIIIIIIIIIIIIIIIAAAAAAAAAAAAAAAAAA
AIIIIIIIIIIIIIIIIIIIIIIIIIIIIIIIIIIIIIIIIIIIIIIAAAAAAAAAAAAAAAAA
AIIIIIIIIIIIIIIIIIIIIIIIIIIIIIIIIIIIIIIIIIIIIIIIAAAAAAAAAAAAAAAA
AIIIIIIIIIIIIIIIIIIIIIIIIIIIIIIIIIIIIIIIIIIIIIIIIAAAAAAAAAAAAAAA
AIIIIIIIIIIIIIIIIIIIIIIIIIIIIIIIIIIIIIIIIIIIIIIIIIAAAAAAAAAAAAAA
AIIIIIIIIIIIIIIIIIIIIIIIIIIIIIIIIIIIIIIIIIIIIIIIIIIAAAAAAAAAAAAA
AIIIIIIIIIIIIIIIIIIIIIIIIIIIIIIIIIIIIIIIIIIIIIIIIIIIAAAAAAAAAAAA
AIIIIIIIIIIIIIIIIIIIIIIIIIIIIIIIIIIIIIIIIIIIIIIIIIIIIAAAAAAAAAAA
AIIIIIIIIIIIIIIIIIIIIIIIIIIIIIIIIIIIIIIIIIIIIIIIIIIIIIAAAAAAAAAA
AIIIIIIIIIIIIIIIIIIIIIIIIIIIIIIIIIIIIIIIIIIIIIIIIIIIIIIAAAAAAAAA
AIIIIIIIIIIIIIIIIIIIIIIIIIIIIIIIIIIIIIIIIIIIIIIIIIIIIIIIAAAAAAAA
AIIIIIIIIIIIIIIIIIIIIIIIIIIIIIIIIIIIIIIIIIIIIIIIIIIIIIIIIAAAAAAA
AIIIIIIIIIIIIIIIIIIIIIIIIIIIIIIIIIIIIIIIIIIIIIIIIIIIIIIIIIAAAAAA
AIIIIIIIIIIIIIIIIIIIIIIIIIIIIIIIIIIIIIIIIIIIIIIIIIIIIIIIIIIAAAAA
AIIIIIIIIIIIIIIIIIIIIIIIIIIIIIIIIIIIIIIIIIIIIIIIIIIIIIIIIIIIAAAA
AIIIIIIIIIIIIIIIIIIIIIIIIIIIIIIIIIIIIIIIIIIIIIIIIIIIIIIIIIIIIAAA
AIIIIIIIIIIIIIIIIIIIIIIIIIIIIIIIIIIIIIIIIIIIIIIIIIIIIIIIIIIIIIAA
AIIIIIIIIIIIIIIIIIIIIIIIIIIIIIIIIIIIIIIIIIIIIIIIIIIIIIIIIIIIIIIA
AIIIIIIIIIIIIIIIIIIIIIIIIIIIIIIIIIIIIIIIIIIIIIIIIIIIIIIIIIIIIIII
A2I4I4444I4III4I4IIII4444IIIIIIIIIIIIIIIIIIIIIIIIIIIIIIIIIIIIIII
AA2444444444II4444III44444IIIIIIIIIIIIIIIIIIIIIIIIIIIIIIIIIIIIII
AAA2444444444I44444II444444IIIIIIIIIIIIIIIIIIIIIIIIIIIIIIIIIIIII
AAAA2444444444444444I4444444IIIIIIIIIIIIIIIIIIIIIIIIIIIIIIIIIIII
AAAAA244444444444444444444444IIIIIIIIIIIIIIIIIIIIIIIIIIIIIIIIIII
AAAAAA244444444444444444444444IIIIIIIIIIIIIIIIIIIIIIIIIIIIIIIIII
AAAAAAA244444444444444444444444IIIIIIIIIIIIIIIIIIIIIIIIIIIIIIIII
AAAAAAAA244444444444444444444444IIIIIIIIIIIIIIIIIIIIIIIIIIIIIIII
AAAAAAAAA244444444444444444444444IIIIIIIIIIIIIIIIIIIIIIIIIIIIIII
AAAAAAAAAA244444444444444444444444IIIIIIIIIIIIIIIIIIIIIIIIIIIIII
AAAAAAAAAAA244444444444444444444444IIIIIIIIIIIIIIIIIIIIIIIIIIIII
AAAAAAAAAAAA244444444444444444444444IIIIIIIIIIIIIIIIIIIIIIIIIIII
AAAAAAAAAAAAA244444444444444444444444IIIIIIIIIIIIIIIIIIIIIIIIIII
AAAAAAAAAAAAAA244444444444444444444444IIIIIIIIIIIIIIIIIIIIIIIIII
AAAAAAAAAAAAAAA244444444444444444444444IIIIIIIIIIIIIIIIIIIIIIIII
AAAAAAAAAAAAAAAA244444444444444444444444IIIIIIIIIIIIIIIIIIIIIIII
AAAAAAAAAAAAAAAAA244444444444444444444444IIIIIIIIIIIIIIIIIIIIIII
AAAAAAAAAAAAAAAAAA244444444444444444444444IIIIIIIIIIIIIIIIIIIIII
AAAAAAAAAAAAAAAAAAA244444444444444444444444IIIIIIIIIIIIIIIIIIIII
AAAAAAAAAAAAAAAAAAAA244444444444444444444444IIIIIIIIIIIIIIIIIIII
AAAAAAAAAAAAAAAAAAAAA244444444444444444444444IIIIIIIIIIIIIIIIIII
AAAAAAAAAAAAAAAAAAAAAA244444444444444444444444IIIIIIIIIIIIIIIIII
AAAAAAAAAAAAAAAAAAAAAAA244444444444444444444444IIIIIIIIIIIIIIIII
AAAAAAAAAAAAAAAAAAAAAAAA244444444444444444444444IIIIIIIIIIIIIIII
AAAAAAAAAAAAAAAAAAAAAAAAA244444444444444444444444IIIIIIIIIIIIIII
AAAAAAAAAAAAAAAAAAAAAAAAAA244444444444444444444444IIIIIIIIIIIIII
AAAAAAAAAAAAAAAAAAAAAAAAAAA244444444444444444444444IIIIIIIIIIIII
AAAAAAAAAAAAAAAAAAAAAAAAAAAA244444444444444444444444IIIIIIIIIIII
AAAAAAAAAAAAAAAAAAAAAAAAAAAAA244444444444444444444444IIIIIIIIIII
AAAAAAAAAAAAAAAAAAAAAAAAAAAAAA244444444444444444444444IIIIIIIIII
AAAAAAAAAAAAAAAAAAAAAAAAAAAAAAA244444444444444444444444IIIIIIIII
AAAAAAAAAAAAAAAAAAAAAAAAAAAAAAAA244444444444444444444444IIIIIIII
AAAAAAAAAAAAAAAAAAAAAAAAAAAAAAAAA244444444444444444444444IIIIIII
AAAAAAAAAAAAAAAAAAAAAAAAAAAAAAAAAA244444444444444444444444IIIIII
AAAAAAAAAAAAAAAAAAAAAAAAAAAAAAAAAAA244444444444444444444444IIIII
AAAAAAAAAAAAAAAAAAAAAAAAAAAAAAAAAAAA244444444444444444444444IIII
AAAAAAAAAAAAAAAAAAAAAAAAAAAAAAAAAAAAA244444444444444444444444III
AAAAAAAAAAAAAAAAAAAAAAAAAAAAAAAAAAAAAA244444444444444444444444II
AAAAAAAAAAAAAAAAAAAAAAAAAAAAAAAAAAAAAAA244444444444444444444444I
AAAAAAAAAAAAAAAAAAAAAAAAAAAAAAAAAAAAAAAA244444444444444444444444
AAAAAAAAAAAAAAAAAAAAAAAAAAAAAAAAAAAAAAAAA24444444444444444444444
AAAAAAAAAAAAAAAAAAAAAAAAAAAAAAAAAAAAAAAAAA2444444444444444444444
AAAAAAAAAAAAAAAAAAAAAAAAAAAAAAAAAAAAAAAAAAA244444444444444444444
AAAAAAAAAAAAAAAAAAAAAAAAAAAAAAAAAAAAAAAAAAAA24444444444444444444
AAAAAAAAAAAAAAAAAAAAAAAAAAAAAAAAAAAAAAAAAAAAA2444444444444444444
AAAAAAAAAAAAAAAAAAAAAAAAAAAAAAAAAAAAAAAAAAAAAA244444444444444444
AAAAAAAAAAAAAAAAAAAAAAAAAAAAAAAAAAAAAAAAAAAAAAA24444444444444444
AAAAAAAAAAAAAAAAAAAAAAAAAAAAAAAAAAAAAAAAAAAAAAAA2444444444444444
AAAAAAAAAAAAAAAAAAAAAAAAAAAAAAAAAAAAAAAAAAAAAAAAA244444444444444
AAAAAAAAAAAAAAAAAAAAAAAAAAAAAAAAAAAAAAAAAAAAAAAAAA24444444444444
AAAAAAAAAAAAAAAAAAAAAAAAAAAAAAAAAAAAAAAAAAAAAAAAAAA2444444444444
AAAAAAAAAAAAAAAAAAAAAAAAAAAAAAAAAAAAAAAAAAAAAAAAAAAA244444444444
AAAAAAAAAAAAAAAAAAAAAAAAAAAAAAAAAAAAAAAAAAAAAAAAAAAAA24444444444
AAAAAAAAAAAAAAAAAAAAAAAAAAAAAAAAAAAAAAAAAAAAAAAAAAAAAA2444444444
AAAAAAAAAAAAAAAAAAAAAAAAAAAAAAAAAAAAAAAAAAAAAAAAAAAAAAA244444444
AAAAAAAAAAAAAAAAAAAAAAAAAAAAAAAAAAAAAAAAAAAAAAAAAAAAAAAA24444444
AAAAAAAAAAAAAAAAAAAAAAAAAAAAAAAAAAAAAAAAAAAAAAAAAAAAAAAAA2444444
AAAAAAAAAAAAAAAAAAAAAAAAAAAAAAAAAAAAAAAAAAAAAAAAAAAAAAAAAA244444
AAAAAAAAAAAAAAAAAAAAAAAAAAAAAAAAAAAAAAAAAAAAAAAAAAAAAAAAAAA24444
AAAAAAAAAAAAAAAAAAAAAAAAAAAAAAAAAAAAAAAAAAAAAAAAAAAAAAAAAAAA2444
AAAAAAAAAAAAAAAAAAAAAAAAAAAAAAAAAAAAAAAAAAAAAAAAAAAAAAAAAAAAA244
AAAAAAAAAAAAAAAAAAAAAAAAAAAAAAAAAAAAAAAAAAAAAAAAAAAAAAAAAAAAAA24
AAAAAAAAAAAAAAAAAAAAAAAAAAAAAAAAAAAAAAAAAAAAAAAAAAAAAAAAAAAAAAA2
AAAAAAAAAAAAAAAAAAAAAAAAAAAAAAAAAAAAAAAAAAAAAAAAAAAAAAAAAAAAAAAA
AAAAAAAIAAAAAAAAAAAAAAAAAAAAAAAAAAAAAAAAAAAAAAAAAAAAAAAAAAAAAAAA
AAAAAAAIAAAAAAAAAAAAAAAAAAAAAAAAAAAAAAAAAAAAIAAAAAAAAAAAAAAAAAAA
AAAAIAAIAAAAAAAAAAAAAAAAAAAAAAAAAAAAAAAAAAAAIAAAAAAAAAAAAAAAAAAA
AAAAIAAIIAAAAAAAAAAAAAAAAAAAAAAAAAAAAAAAAAAAIAAAAAAAAAAAAAAAAAAA
AIAAIAAIIAAAAAAAAAAAAAAAAAAAAAAAAAAAAAAAAAAAIAAAAAAAAAAAAAAAAAAA
AIIAIAAIIAAAAAAAAAAAAAAAAAAAAAAAAAAAAAAAAAAAIAAAAAAAAAAAAAAAAAAA
AIIIIAAIIAAAAAAAAAAAAAAAAAAAAAAAAAAAAAAAAAAAIAAAAAAAAAAAAAAAAAAA
AIIIIAAIIAAAIAAAAAAAAAAAAAAAAAAAAAAAAAAAAAAAIAAAAAAAAAAAAAAAAAAA
AIIIIAAIIAAAIIAAAAAAAAAAAAAAAAAAAAAAAAAAAAAAIAAAAAAAAAAAAAAAAAAA
AIIIIAAIIAAAIIAIAAAAAAAAAAAAAAAAAAAAAAAAAAAAIAAAAAAAAAAAAAAAAAAA
AIIIIAAIIAAAIIAIIAAAAAAAAAAAAAAAAAAAAAAAAAAAIAAAAAAAAAAAAAAAAAAA
AIIIIAAIIAAAIIAIIAAAAAAAAIAAAAAAAAAAAAAAAAAAIAAAAAAAAAAAAAAAAAAA
AIIIIAAIIAAAIIAIIAAAAAAAAIAAAAAAIAAAAAAAAAAAIAAAAAAAAAAAAAAAAAAA
AIIIIAAIIIAAIIAIIAAAAAAAAIAAAAAAIAAAAAAAAAAAIAAAAAAAAAAAAAAAAAAA
AIIIIAAIIIIAIIAIIAAAAAAAAIAAAAAAIAAAAAAAAAAAIAAAAAAAAAAAAAAAAAAA
AIIIIAAIIIIAIIIIIAAAAAAAAIAAAAAAIAAAAAAAAAAAIAAAAAAAAAAAAAAAAAAA
AIIIIAAIIIIAIIIIIAAAAAAAIIAAAAAAIAAAAAAAAAAAIAAAAAAAAAAAAAAAAAAA
AIIIIAAIIIIAIIIIIAAAAAAAIIIAAAAAIAAAAAAAAAAAIAAAAAAAAAAAAAAAAAAA
AIIIIAAIIIIAIIIIIAAAAAAAIIIAAAAAIAIAAAAAAAAAIAAAAAAAAAAAAAAAAAAA
AIIIIAAIIIIAIIIIIAAAAAAAIIIAAAAAIAIAIAAAAAAAIAAAAAAAAAAAAAAAAAAA
AIIIIAAIIIIAIIIIIAAAAAAAIIIAAAAAIAIAIIAAAAAAIAAAAAAAAAAAAAAAAAAA
AIIIIAAIIIIAIIIIIAAAAAIAIIIAAAAAIAIAIIAAAAAAIAAAAAAAAAAAAAAAAAAA
AIIIIAAIIIIAIIIIIAAAAAIIIIIAAAAAIAIAIIAAAAAAIAAAAAAAAAAAAAAAAAAA
AIIIIAAIIIIAIIIIIAAAAAIIIIIAAAAAIAIAIIAAAIAAIAAAAAAAAAAAAAAAAAAA
AIIIIAAIIIIAIIIIIAAAAAIIIIIAAAAAIAIAIIAAAIAAIIAAAAAAAAAAAAAAAAAA
AIIIIAAIIIIAIIIIIAAAAAIIIIIAAAAAIAIAIIAAAIAAIIAAAAAAAAAAAAAAAIAA
AIIIIAAIIIIAIIIIIAAAAAIIIIIAAAAAIAIAIIAAAIAAIIAAAAAAAAAAAAAAAIAI
AIIIIAAIIIIAIIIIIAAAIAIIIIIAAAAAIAIAIIAAAIAAIIAAAAAAAAAAAAAAAIAI
AIIIIAAIIIIAIIIIIAAAIIIIIIIAAAAAIAIAIIAAAIAAIIAAAAAAAAAAAAAAAIAI
AIIIIAAIIIIAIIIIIAAAIIIIIIIAAAIAIAIAIIAAAIAAIIAAAAAAAAAAAAAAAIAI
AIIIIAAIIIIAIIIIIAAAIIIIIIIAAAIAIAIAIIIAAIAAIIAAAAAAAAAAAAAAAIAI
AIIIIAAIIIIAIIIIIAAAIIIIIIIAAAIAIAIAIIIIAIAAIIAAAAAAAAAAAAAAAIAI
AIIIIAAIIIIAIIIIIAAAIIIIIIIAAAIAIAIAIIIIIIAAIIAAAAAAAAAAAAAAAIAI
AIIIIIAIIIIAIIIIIAAAIIIIIIIAAAIAIAIAIIIIIIAAIIAAAAAAAAAAAAAAAIAI
AIIIIIAIIIIAIIIIIAAIIIIIIIIAAAIAIAIAIIIIIIAAIIAAAAAAAAAAAAAAAIAI
AIIIIIAIIIIAIIIIIAAIIIIIIIIAIAIAIAIAIIIIIIAAIIAAAAAAAAAAAAAAAIAI
AIIIIIAIIIIAIIIIIAAIIIIIIIIAIAIAIAIAIIIIIIAAIIAAAAAAAAAAAIAAAIAI
AIIIIIAIIIIAIIIIIAAIIIIIIIIAIAIIIAIAIIIIIIAAIIAAAAAAAAAAAIAAAIAI
AIIIIIAIIIIAIIIIIAAIIIIIIIIAIAIIIAIAIIIIIIAAIIAAAAAAAIAAAIAAAIAI
AIIIIIAIIIIAIIIIIAAIIIIIIIIAIAIIIAIAIIIIIIAAIIAAAIAAAIAAAIAAAIAI
AIIIIIAIIIIAIIIIIAAIIIIIIIIAIAIIIAIAIIIIIIAAIIAAAIIAAIAAAIAAAIAI
AIIIIIAIIIIAIIIIIAAIIIIIIIIAIAIIIAIAIIIIIIAAIIAAAIIAIIAAAIAAAIAI
AIIIIIAIIIIAIIIIIAAIIIIIIIIAIAIIIAIAIIIIIIAAIIAAAIIAIIIAAIAAAIAI
A44I444444444I444IIIIIIIIIIIIIIIIIIIIIIIIIIIIIIIIIIIIIIIIIIIIIII
AA4444444444444444IIIIIIIIIIIIIIIIIIIIIIIIIIIIIIIIIIIIIIIIIIIIII
AAA4444444444444444IIIIIIIIIIIIIIIIIIIIIIIIIIIIIIIIIIIIIIIIIIIII
AAAA4444444444444444IIIIIIIIIIIIIIIIIIIIIIIIIIIIIIIIIIIIIIIIIIII
AAAAA4444444444444444IIIIIIIIIIIIIIIIIIIIIIIIIIIIIIIIIIIIIIIIIII
AAAAAA4444444444444444IIIIIIIIIIIIIIIIIIIIIIIIIIIIIIIIIIIIIIIIII
AAAAAAA4444444444444444IIIIIIIIIIIIIIIIIIIIIIIIIIIIIIIIIIIIIIIII
AAAAAAAA4444444444444444IIIIIIIIIIIIIIIIIIIIIIIIIIIIIIIIIIIIIIII
AAAAAAAAA4444444444444444IIIIIIIIIIIIIIIIIIIIIIIIIIIIIIIIIIIIIII
AAAAAAAAAA4444444444444444IIIIIIIIIIIIIIIIIIIIIIIIIIIIIIIIIIIIII
AAAAAAAAAAA4444444444444444IIIIIIIIIIIIIIIIIIIIIIIIIIIIIIIIIIIII
AAAAAAAAAAAA4444444444444444IIIIIIIIIIIIIIIIIIIIIIIIIIIIIIIIIIII
AAAAAAAAAAAAA4444444444444444IIIIIIIIIIIIIIIIIIIIIIIIIIIIIIIIIII
AAAAAAAAAAAAAA4444444444444444IIIIIIIIIIIIIIIIIIIIIIIIIIIIIIIIII
AAAAAAAAAAAAAAA4444444444444444IIIIIIIIIIIIIIIIIIIIIIIIIIIIIIIII
AAAAAAAAAAAAAAAA4444444444444444IIIIIIIIIIIIIIIIIIIIIIIIIIIIIIII
AAAAAAAAAAAAAAAAA4444444444444444IIIIIIIIIIIIIIIIIIIIIIIIIIIIIII
AAAAAAAAAAAAAAAAAA4444444444444444IIIIIIIIIIIIIIIIIIIIIIIIIIIIII
AAAAAAAAAAAAAAAAAAA4444444444444444IIIIIIIIIIIIIIIIIIIIIIIIIIIII
AAAAAAAAAAAAAAAAAAAA4444444444444444IIIIIIIIIIIIIIIIIIIIIIIIIIII
AAAAAAAAAAAAAAAAAAAAA4444444444444444IIIIIIIIIIIIIIIIIIIIIIIIIII
AAAAAAAAAAAAAAAAAAAAAA4444444444444444IIIIIIIIIIIIIIIIIIIIIIIIII
AAAAAAAAAAAAAAAAAAAAAAA4444444444444444IIIIIIIIIIIIIIIIIIIIIIIII
AAAAAAAAAAAAAAAAAAAAAAAA4444444444444444IIIIIIIIIIIIIIIIIIIIIIII
AAAAAAAAAAAAAAAAAAAAAAAAA4444444444444444IIIIIIIIIIIIIIIIIIIIIII
AAAAAAAAAAAAAAAAAAAAAAAAAA4444444444444444IIIIIIIIIIIIIIIIIIIIII
AAAAAAAAAAAAAAAAAAAAAAAAAAA4444444444444444IIIIIIIIIIIIIIIIIIIII
AAAAAAAAAAAAAAAAAAAAAAAAAAAA4444444444444444IIIIIIIIIIIIIIIIIIII
AAAAAAAAAAAAAAAAAAAAAAAAAAAAA4444444444444444IIIIIIIIIIIIIIIIIII
AAAAAAAAAAAAAAAAAAAAAAAAAAAAAA4444444444444444IIIIIIIIIIIIIIIIII
AAAAAAAAAAAAAAAAAAAAAAAAAAAAAAA4444444444444444IIIIIIIIIIIIIIIII
AAAAAAAAAAAAAAAAAAAAAAAAAAAAAAAA4444444444444444IIIIIIIIIIIIIIII
AAAAAAAAAAAAAAAAAAAAAAAAAAAAAAAAA4444444444444444IIIIIIIIIIIIIII
AAAAAAAAAAAAAAAAAAAAAAAAAAAAAAAAAA4444444444444444IIIIIIIIIIIIII
AAAAAAAAAAAAAAAAAAAAAAAAAAAAAAAAAAA4444444444444444IIIIIIIIIIIII
AAAAAAAAAAAAAAAAAAAAAAAAAAAAAAAAAAAA4444444444444444IIIIIIIIIIII
AAAAAAAAAAAAAAAAAAAAAAAAAAAAAAAAAAAAA4444444444444444IIIIIIIIIII
AAAAAAAAAAAAAAAAAAAAAAAAAAAAAAAAAAAAAA4444444444444444IIIIIIIIII
AAAAAAAAAAAAAAAAAAAAAAAAAAAAAAAAAAAAAAA4444444444444444IIIIIIIII
AAAAAAAAAAAAAAAAAAAAAAAAAAAAAAAAAAAAAAAA4444444444444444IIIIIIII
AAAAAAAAAAAAAAAAAAAAAAAAAAAAAAAAAAAAAAAAA4444444444444444IIIIIII
AAAAAAAAAAAAAAAAAAAAAAAAAAAAAAAAAAAAAAAAAA4444444444444444IIIIII
AAAAAAAAAAAAAAAAAAAAAAAAAAAAAAAAAAAAAAAAAAA4444444444444444IIIII
AAAAAAAAAAAAAAAAAAAAAAAAAAAAAAAAAAAAAAAAAAAA4444444444444444IIII
AAAAAAAAAAAAAAAAAAAAAAAAAAAAAAAAAAAAAAAAAAAAA4444444444444444III
AAAAAAAAAAAAAAAAAAAAAAAAAAAAAAAAAAAAAAAAAAAAAA4444444444444444II
AAAAAAAAAAAAAAAAAAAAAAAAAAAAAAAAAAAAAAAAAAAAAAA4444444444444444I
AAAAAAAAAAAAAAAAAAAAAAAAAAAAAAAAAAAAAAAAAAAAAAAA4444444444444444
AAAAAAAAAAAAAAAAAAAAAAAAAAAAAAAAAAAAAAAAAAAAAAAAA444444444444444
AAAAAAAAAAAAAAAAAAAAAAAAAAAAAAAAAAAAAAAAAAAAAAAAAA44444444444444
AAAAAAAAAAAAAAAAAAAAAAAAAAAAAAAAAAAAAAAAAAAAAAAAAAA4444444444444
AAAAAAAAAAAAAAAAAAAAAAAAAAAAAAAAAAAAAAAAAAAAAAAAAAAA444444444444
AAAAAAAAAAAAAAAAAAAAAAAAAAAAAAAAAAAAAAAAAAAAAAAAAAAAA44444444444
AAAAAAAAAAAAAAAAAAAAAAAAAAAAAAAAAAAAAAAAAAAAAAAAAAAAAA4444444444
AAAAAAAAAAAAAAAAAAAAAAAAAAAAAAAAAAAAAAAAAAAAAAAAAAAAAAA444444444
AAAAAAAAAAAAAAAAAAAAAAAAAAAAAAAAAAAAAAAAAAAAAAAAAAAAAAAA44444444
AAAAAAAAAAAAAAAAAAAAAAAAAAAAAAAAAAAAAAAAAAAAAAAAAAAAAAAAA4444444
AAAAAAAAAAAAAAAAAAAAAAAAAAAAAAAAAAAAAAAAAAAAAAAAAAAAAAAAAA444444
AAAAAAAAAAAAAAAAAAAAAAAAAAAAAAAAAAAAAAAAAAAAAAAAAAAAAAAAAAA44444
AAAAAAAAAAAAAAAAAAAAAAAAAAAAAAAAAAAAAAAAAAAAAAAAAAAAAAAAAAAA4444
AAAAAAAAAAAAAAAAAAAAAAAAAAAAAAAAAAAAAAAAAAAAAAAAAAAAAAAAAAAAA444
AAAAAAAAAAAAAAAAAAAAAAAAAAAAAAAAAAAAAAAAAAAAAAAAAAAAAAAAAAAAAA44
AAAAAAAAAAAAAAAAAAAAAAAAAAAAAAAAAAAAAAAAAAAAAAAAAAAAAAAAAAAAAAA4
AAAAAAAAAAAAAAAAAAAAAAAAAAAAAAAAAAAAAAAAAAAAAAAAAAAAAAAAAAAAAAAA
AAAAAAAAAAAAAAAAAAAAAAAAAAAAAAAAAAAAAAAAAAAAAAAAAAAAAAAAAAAIAAAA
AAAAAAAAAAAAAAAAAAAAAAAAAAAAAAAAAAAAAAAAAAAAAAAAAAAAAAAAAAAIAIAA
AAAAAAAAAAAAAAAAAAAAAAAAAAAAAAAAAAAAAAAAAAAAAAAAAAAAAAAAAAAIAIAI
AAAAAAAAAAAAAAAIAAAAAAAAAAAAAAAAAAAAAAAAAAAAAAAAAAAAAAAAAAAIAIAI
AAAAAAAAAAAAAAAIAAAIAAAAAAAAAAAAAAAAAAAAAAAAAAAAAAAAAAAAAAAIAIAI
AAAAAAAAAAAAAAAIAAAIAAAAAAAAAAAAAAAIAAAAAAAAAAAAAAAAAAAAAAAIAIAI
AAAAAAAAAAAAAAAIAAAIAAAAAAAAAAAAAAAIIAAAAAAAAAAAAAAAAAAAAAAIAIAI
AAAAAAAAAAAAAAAIAAAIIAAAAAAAAAAAAAAIIAAAAAAAAAAAAAAAAAAAAAAIAIAI
AAAAAAAAAAAAAAAIAAAIIAAAAAAAAAAAAAAIIAAAAAIAAAAAAAAAAAAAAAAIAIAI
AAAAAAAAAAAAAAAIAAAIIAAAAAAAAAAIAAAIIAAAAAIAAAAAAAAAAAAAAAAIAIAI
AAAAAAAAAAAAAAAIAAAIIAAAAAAAAAAIAAIIIAAAAAIAAAAAAAAAAAAAAAAIAIAI
AAAAAAAAAAAAAAAIAAAIIAAAAAAAAAAIAAIIIAAAAAIAAIAAAAAAAAAAAAAIAIAI
AAAAAAAAAAAAAAAIAAAIIAAAAAAAAAAIAAIIIAAAAAIAAIAIAAAAAAAAAAAIAIAI
AIAAAAAAAAAAAAAIAAAIIAAAAAAAAAAIAAIIIAAAAAIAAIAIAAAAAAAAAAAIAIAI
AIAIAAAAAAAAAAAIAAAIIAAAAAAAAAAIAAIIIAAAAAIAAIAIAAAAAAAAAAAIAIAI
AIAIAAAAAAAAAAAIAAAIIAAAAAAAAAAIIAIIIAAAAAIAAIAIAAAAAAAAAAAIAIAI
AIAIAAAAAAAAAAAIAAAIIAAAAAAAAAAIIAIIIAAAAAIAAIIIAAAAAAAAAAAIAIAI
AIAIAAAAAAAAIAAIAAAIIAAAAAAAAAAIIAIIIAAAAAIAAIIIAAAAAAAAAAAIAIAI
AIAIAAAAAAAAIAAIAAAIIAIAAAAAAAAIIAIIIAAAAAIAAIIIAAAAAAAAAAAIAIAI
AIAIAAAAAAAAIAAIAAAIIAIAAAAAAAAIIAIIIAIAAAIAAIIIAAAAAAAAAAAIAIAI
AIAIAAAAAAAAIAAIAAAIIAIAAAAAAAAIIAIIIAIAAAIIAIIIAAAAAAAAAAAIAIAI
AIAIAIAAAAAAIAAIAAAIIAIAAAAAAAAIIAIIIAIAAAIIAIIIAAAAAAAAAAAIAIAI
AIAIAIAIAAAAIAAIAAAIIAIAAAAAAAAIIAIIIAIAAAIIAIIIAAAAAAAAAAAIAIAI
AIAIAIAIAAIAIAAIAAAIIAIAAAAAAAAIIAIIIAIAAAIIAIIIAAAAAAAAAAAIAIAI
AIAIAIAIAAIAIAAIAAAIIIIAAAAAAAAIIAIIIAIAAAIIAIIIAAAAAAAAAAAIAIAI
AIAIAIAIAAIAIAAIAAAIIIIIAAAAAAAIIAIIIAIAAAIIAIIIAAAAAAAAAAAIAIAI
AIAIAIAIAAIAIAAIAAAIIIIIAAIAAAAIIAIIIAIAAAIIAIIIAAAAAAAAAAAIAIAI
AIAIAIAIAAIAIAAIAAAIIIIIAAIIAAAIIAIIIAIAAAIIAIIIAAAAAAAAAAAIAIAI
AIAIAIAIAAIAIAAIAAAIIIIIAAIIIAAIIAIIIAIAAAIIAIIIAAAAAAAAAAAIAIAI
AIAIAIAIAAIAIAAIAAAIIIIIAAIIIAAIIAIIIAIAAIIIAIIIAAAAAAAAAAAIAIAI
AIAIAIAIAAIAIAAIAAAIIIIIAAIIIAAIIAIIIAIAAIIIAIIIAAAAAAAIAAAIAIAI
AIAIAIAIAAIAIAAIAAAIIIIIAAIIIAAIIAIIIAIAAIIIAIIIAAAAAAAIIAAIAIAI
AIAIAIAIAAIAIAAIAAAIIIIIAAIIIAAIIAIIIAIAAIIIAIIIAAAAAAAIIIAIAIAI
AIAIAIAIAAIAIAAIAAAIIIIIAAIIIAAIIAIIIAIAAIIIAIIIAAAAAAAIIIIIAIAI
AIAIAIAIAAIAIAAIAAAIIIIIAAIIIAIIIAIIIAIAAIIIAIIIAAAAAAAIIIIIAIAI
AIAIAIAIAAIAIAAIAAAIIIIIAAIIIAIIIAIIIAIAAIIIAIIIAIAAAAAIIIIIAIAI
AIAIAIAIIAIAIAAIAAAIIIIIAAIIIAIIIAIIIAIAAIIIAIIIAIAAAAAIIIIIAIAI
[MLOP] Prefetch Degree Mean: 12.09433
[MLOP] Prefetch Degree SD: 2.39667
[MLOP] Max Score Left Mean (%): 38.36328
[MLOP] Max Score Left SD (%): 16.25205
[MLOP] Max Score Right Mean (%): 83.51173
[MLOP] Max Score Right SD (%): 7.60497

Channel_0_RQ_row_buffer_hit 1028682
Channel_0_RQ_row_buffer_miss 563532
Channel_0_WQ_row_buffer_hit 30024
Channel_0_WQ_row_buffer_miss 95267
Channel_0_WQ_full 0
Channel_0_dbus_congested 907127

avg_congested_cycle 10

DRAM_bw_pochs 626782
DRAM_bw_level_0 377710
DRAM_bw_level_1 158772
DRAM_bw_level_2 63880
DRAM_bw_level_3 26420
