*************************************************
   ChampSim Multicore Out-of-Order Simulator
   Last compiled: Apr  3 2025 20:54:34
*************************************************
parsing config file: /home/zir/Pythia/config/mlop.ini

trace_0 /home/zir/ChampSim/ML-DPC/ChampSimTraces/gap/sssp-10.trace.gz
adding L2C_PREFETCHER: MLOP
Initialize SHIP state
warmup_instructions 10000000
simulation_instructions 50000000
champsim_seed 97
measure_ipc 0
measure_ipc_epoch 1000
measure_dram_bw 1
measure_dram_bw_epoch 256
measure_cache_acc 1
measure_cache_acc_epoch 1024
l1d_perfect 0
l2c_perfect 0
llc_perfect 0
l1d_semi_perfect 0
l2c_semi_perfect 0
llc_semi_perfect 0
semi_perfect_cache_page_buffer_size 64

num_cpus 1
cpu_freq 4000
dram_io_freq 2400
page_size 4096
block_size 64
max_read_per_cycle 8
max_fill_per_cycle 1
dram_channels 1
log2_dram_channels 0
dram_ranks 1
dram_banks 8
dram_rows 65536
dram_columns 128
dram_row_size 8
dram_size 4096
dram_pages 1048576

fetch_width 6
decode_width 6
exec_width 4
lq_width 2
sq_width 2
retire_width 4
scheduler_size 128
branch_mispredict_penalty 20
rob_size 256
lq_size 72
sq_size 56
num_instr_destinations_sparc 4
num_instr_destinations 2
num_instr_sources 4

itlb_set 16
itlb_way 8
itlb_rq_size 16
itlb_wq_size 16
itlb_pq_size 0
itlb_mshr_size 8
itlb_latency 1

dtlb_set 16
dtlb_way 4
dtlb_rq_size 16
dtlb_wq_size 16
dtlb_pq_size 0
dtlb_mshr_size 8
dtlb_latency 1

stlb_set 128
stlb_way 12
stlb_rq_size 32
stlb_wq_size 32
stlb_pq_size 0
stlb_mshr_size 16
stlb_latency 8

l1i_size 32
l1i_set 64
l1i_way 8
l1i_rq_size 64
l1i_wq_size 64
l1i_pq_size 8
l1i_mshr_size 8
l1i_latency 1

l1d_size 32
l1d_set 64
l1d_way 8
l1d_rq_size 64
l1d_wq_size 64
l1d_pq_size 8
l1d_mshr_size 16
l1d_latency 4

l2c_size 256
l2c_set 512
l2c_way 8
l2c_rq_size 32
l2c_wq_size 32
l2c_pq_size 32
l2c_mshr_size 32
l2c_latency 10

llc_size 2048
llc_set 2048
llc_way 16
llc_rq_size 32
llc_wq_size 32
llc_pq_size 32
llc_mshr_size 64
llc_latency 20

dram_channel_width 8
dram_wq_size 64
dram_rq_size 64
tRP 15
tRCD 15
tCAS 12.5
dram_dbus_turn_around_time 30
dram_write_high_wm 56
dram_write_low_wm 48
min_dram_writes_per_switch 16
dram_mtps 2400
dram_dbus_return_time 13

mlop_pref_degree 16
mlop_num_updates 500
mlop_l1d_thresh 2
mlop_l2c_thresh 0.75
mlop_llc_thresh 0.3
mlop_debug_level 0
mlop_blocks_in_cache 4096
mlop_blocks_in_zone 64
mlop_amt_size 2048
mlop_PF_DEGREE 16
mlop_NUM_UPDATES 500
mlop_L1D_THRESH 1000
mlop_L2C_THRESH 375
mlop_LLC_THRESH 150
mlop_ORIGIN 63
mlop_MAX_OFFSET 63
mlop_MIN_OFFSET -63
mlop_ORIGIN 63
mlop_NUM_OFFSETS 127


Heartbeat CPU  0 instructions:    1000003 cycles:     266239 heartbeat IPC: 3.75604 cumulative IPC: 3.75604 (Simulation time: 0 hr 0 min 1 sec) 
Heartbeat CPU  0 instructions:    2000000 cycles:     767526 heartbeat IPC: 1.99486 cumulative IPC: 2.60577 (Simulation time: 0 hr 0 min 2 sec) 
Heartbeat CPU  0 instructions:    3000000 cycles:    1365732 heartbeat IPC: 1.67166 cumulative IPC: 2.19662 (Simulation time: 0 hr 0 min 4 sec) 
Heartbeat CPU  0 instructions:    4000000 cycles:    2039530 heartbeat IPC: 1.48412 cumulative IPC: 1.96124 (Simulation time: 0 hr 0 min 5 sec) 
Heartbeat CPU  0 instructions:    5000003 cycles:    2802031 heartbeat IPC: 1.31148 cumulative IPC: 1.78442 (Simulation time: 0 hr 0 min 6 sec) 
Heartbeat CPU  0 instructions:    6000000 cycles:    3661964 heartbeat IPC: 1.16288 cumulative IPC: 1.63847 (Simulation time: 0 hr 0 min 7 sec) 
Heartbeat CPU  0 instructions:    7000002 cycles:    4520775 heartbeat IPC: 1.16440 cumulative IPC: 1.54841 (Simulation time: 0 hr 0 min 9 sec) 
Heartbeat CPU  0 instructions:    8000000 cycles:    5395162 heartbeat IPC: 1.14366 cumulative IPC: 1.48281 (Simulation time: 0 hr 0 min 10 sec) 
Heartbeat CPU  0 instructions:    9000002 cycles:    6266211 heartbeat IPC: 1.14804 cumulative IPC: 1.43628 (Simulation time: 0 hr 0 min 11 sec) 
Heartbeat CPU  0 instructions:   10000000 cycles:    7128380 heartbeat IPC: 1.15986 cumulative IPC: 1.40284 (Simulation time: 0 hr 0 min 12 sec) 

Warmup complete CPU  0 instructions:   10000001 cycles:    7128381 (Simulation time: 0 hr 0 min 12 sec) 

Heartbeat CPU  0 instructions:   11000002 cycles:   11373864 heartbeat IPC: 0.23554 cumulative IPC: 0.23554 (Simulation time: 0 hr 0 min 14 sec) 
Heartbeat CPU  0 instructions:   12000000 cycles:   15808405 heartbeat IPC: 0.22550 cumulative IPC: 0.23041 (Simulation time: 0 hr 0 min 16 sec) 
Heartbeat CPU  0 instructions:   13000001 cycles:   19996479 heartbeat IPC: 0.23877 cumulative IPC: 0.23313 (Simulation time: 0 hr 0 min 18 sec) 
Heartbeat CPU  0 instructions:   14000002 cycles:   24419791 heartbeat IPC: 0.22608 cumulative IPC: 0.23133 (Simulation time: 0 hr 0 min 20 sec) 
Heartbeat CPU  0 instructions:   15000001 cycles:   28658895 heartbeat IPC: 0.23590 cumulative IPC: 0.23223 (Simulation time: 0 hr 0 min 23 sec) 
Heartbeat CPU  0 instructions:   16000000 cycles:   32695974 heartbeat IPC: 0.24770 cumulative IPC: 0.23467 (Simulation time: 0 hr 0 min 25 sec) 
Heartbeat CPU  0 instructions:   17000001 cycles:   36481939 heartbeat IPC: 0.26413 cumulative IPC: 0.23847 (Simulation time: 0 hr 0 min 27 sec) 
Heartbeat CPU  0 instructions:   18000001 cycles:   40195664 heartbeat IPC: 0.26927 cumulative IPC: 0.24193 (Simulation time: 0 hr 0 min 29 sec) 
Heartbeat CPU  0 instructions:   19000002 cycles:   43894159 heartbeat IPC: 0.27038 cumulative IPC: 0.24479 (Simulation time: 0 hr 0 min 31 sec) 
Heartbeat CPU  0 instructions:   20000000 cycles:   47679743 heartbeat IPC: 0.26416 cumulative IPC: 0.24660 (Simulation time: 0 hr 0 min 33 sec) 
Heartbeat CPU  0 instructions:   21000000 cycles:   51418639 heartbeat IPC: 0.26746 cumulative IPC: 0.24836 (Simulation time: 0 hr 0 min 35 sec) 
Heartbeat CPU  0 instructions:   22000003 cycles:   55072478 heartbeat IPC: 0.27369 cumulative IPC: 0.25029 (Simulation time: 0 hr 0 min 37 sec) 
Heartbeat CPU  0 instructions:   23000000 cycles:   58690151 heartbeat IPC: 0.27642 cumulative IPC: 0.25212 (Simulation time: 0 hr 0 min 39 sec) 
Heartbeat CPU  0 instructions:   24000000 cycles:   62235896 heartbeat IPC: 0.28203 cumulative IPC: 0.25405 (Simulation time: 0 hr 0 min 41 sec) 
Heartbeat CPU  0 instructions:   25000002 cycles:   65807618 heartbeat IPC: 0.27998 cumulative IPC: 0.25563 (Simulation time: 0 hr 0 min 43 sec) 
Heartbeat CPU  0 instructions:   26000000 cycles:   69572040 heartbeat IPC: 0.26564 cumulative IPC: 0.25623 (Simulation time: 0 hr 0 min 45 sec) 
Heartbeat CPU  0 instructions:   27000002 cycles:   73179739 heartbeat IPC: 0.27719 cumulative IPC: 0.25738 (Simulation time: 0 hr 0 min 48 sec) 
Heartbeat CPU  0 instructions:   28000000 cycles:   76869714 heartbeat IPC: 0.27100 cumulative IPC: 0.25810 (Simulation time: 0 hr 0 min 50 sec) 
Heartbeat CPU  0 instructions:   29000000 cycles:   80316174 heartbeat IPC: 0.29015 cumulative IPC: 0.25961 (Simulation time: 0 hr 0 min 52 sec) 
Heartbeat CPU  0 instructions:   30000002 cycles:   83765103 heartbeat IPC: 0.28995 cumulative IPC: 0.26097 (Simulation time: 0 hr 0 min 54 sec) 
Heartbeat CPU  0 instructions:   31000000 cycles:   87236640 heartbeat IPC: 0.28806 cumulative IPC: 0.26215 (Simulation time: 0 hr 0 min 56 sec) 
Heartbeat CPU  0 instructions:   32000000 cycles:   90712386 heartbeat IPC: 0.28771 cumulative IPC: 0.26321 (Simulation time: 0 hr 0 min 58 sec) 
Heartbeat CPU  0 instructions:   33000001 cycles:   94083011 heartbeat IPC: 0.29668 cumulative IPC: 0.26451 (Simulation time: 0 hr 1 min 0 sec) 
Heartbeat CPU  0 instructions:   34000003 cycles:   97357940 heartbeat IPC: 0.30535 cumulative IPC: 0.26599 (Simulation time: 0 hr 1 min 2 sec) 
Heartbeat CPU  0 instructions:   35000000 cycles:  100748175 heartbeat IPC: 0.29496 cumulative IPC: 0.26704 (Simulation time: 0 hr 1 min 4 sec) 
Heartbeat CPU  0 instructions:   36000000 cycles:  103937472 heartbeat IPC: 0.31355 cumulative IPC: 0.26857 (Simulation time: 0 hr 1 min 6 sec) 
Heartbeat CPU  0 instructions:   37000000 cycles:  107264777 heartbeat IPC: 0.30054 cumulative IPC: 0.26963 (Simulation time: 0 hr 1 min 9 sec) 
Heartbeat CPU  0 instructions:   38000003 cycles:  110785007 heartbeat IPC: 0.28407 cumulative IPC: 0.27012 (Simulation time: 0 hr 1 min 11 sec) 
Heartbeat CPU  0 instructions:   39000001 cycles:  114006035 heartbeat IPC: 0.31046 cumulative IPC: 0.27134 (Simulation time: 0 hr 1 min 13 sec) 
Heartbeat CPU  0 instructions:   40000000 cycles:  117228828 heartbeat IPC: 0.31029 cumulative IPC: 0.27248 (Simulation time: 0 hr 1 min 15 sec) 
Heartbeat CPU  0 instructions:   41000000 cycles:  120406200 heartbeat IPC: 0.31473 cumulative IPC: 0.27366 (Simulation time: 0 hr 1 min 17 sec) 
Heartbeat CPU  0 instructions:   42000002 cycles:  123752352 heartbeat IPC: 0.29885 cumulative IPC: 0.27439 (Simulation time: 0 hr 1 min 19 sec) 
Heartbeat CPU  0 instructions:   43000001 cycles:  126991677 heartbeat IPC: 0.30871 cumulative IPC: 0.27531 (Simulation time: 0 hr 1 min 21 sec) 
Heartbeat CPU  0 instructions:   44000000 cycles:  130125144 heartbeat IPC: 0.31914 cumulative IPC: 0.27643 (Simulation time: 0 hr 1 min 23 sec) 
Heartbeat CPU  0 instructions:   45000000 cycles:  133323511 heartbeat IPC: 0.31266 cumulative IPC: 0.27735 (Simulation time: 0 hr 1 min 25 sec) 
Heartbeat CPU  0 instructions:   46000000 cycles:  136684376 heartbeat IPC: 0.29754 cumulative IPC: 0.27787 (Simulation time: 0 hr 1 min 28 sec) 
Heartbeat CPU  0 instructions:   47000002 cycles:  139892309 heartbeat IPC: 0.31173 cumulative IPC: 0.27869 (Simulation time: 0 hr 1 min 30 sec) 
Heartbeat CPU  0 instructions:   48000000 cycles:  143014720 heartbeat IPC: 0.32026 cumulative IPC: 0.27965 (Simulation time: 0 hr 1 min 32 sec) 
Heartbeat CPU  0 instructions:   49000003 cycles:  146118991 heartbeat IPC: 0.32214 cumulative IPC: 0.28059 (Simulation time: 0 hr 1 min 34 sec) 
Heartbeat CPU  0 instructions:   50000001 cycles:  149213448 heartbeat IPC: 0.32316 cumulative IPC: 0.28152 (Simulation time: 0 hr 1 min 36 sec) 
Heartbeat CPU  0 instructions:   51000001 cycles:  152395811 heartbeat IPC: 0.31423 cumulative IPC: 0.28224 (Simulation time: 0 hr 1 min 38 sec) 
Heartbeat CPU  0 instructions:   52000000 cycles:  155626385 heartbeat IPC: 0.30954 cumulative IPC: 0.28283 (Simulation time: 0 hr 1 min 40 sec) 
Heartbeat CPU  0 instructions:   53000003 cycles:  158703837 heartbeat IPC: 0.32495 cumulative IPC: 0.28369 (Simulation time: 0 hr 1 min 43 sec) 
Heartbeat CPU  0 instructions:   54000001 cycles:  161760643 heartbeat IPC: 0.32714 cumulative IPC: 0.28455 (Simulation time: 0 hr 1 min 45 sec) 
Heartbeat CPU  0 instructions:   55000000 cycles:  164792559 heartbeat IPC: 0.32982 cumulative IPC: 0.28542 (Simulation time: 0 hr 1 min 47 sec) 
Heartbeat CPU  0 instructions:   56000000 cycles:  167797769 heartbeat IPC: 0.33276 cumulative IPC: 0.28630 (Simulation time: 0 hr 1 min 49 sec) 
Heartbeat CPU  0 instructions:   57000000 cycles:  170862997 heartbeat IPC: 0.32624 cumulative IPC: 0.28705 (Simulation time: 0 hr 1 min 51 sec) 
Heartbeat CPU  0 instructions:   58000000 cycles:  173852648 heartbeat IPC: 0.33449 cumulative IPC: 0.28790 (Simulation time: 0 hr 1 min 53 sec) 
Heartbeat CPU  0 instructions:   59000001 cycles:  176878347 heartbeat IPC: 0.33050 cumulative IPC: 0.28866 (Simulation time: 0 hr 1 min 56 sec) 
Heartbeat CPU  0 instructions:   60000000 cycles:  180005759 heartbeat IPC: 0.31975 cumulative IPC: 0.28922 (Simulation time: 0 hr 1 min 58 sec) 
Finished CPU 0 instructions: 50000001 cycles: 172877386 cumulative IPC: 0.28922 (Simulation time: 0 hr 1 min 58 sec) 

ChampSim completed all CPUs

[ROI Statistics]
Core_0_instructions 50000001
Core_0_cycles 172877386
Core_0_IPC 0.28922

Core_0_branch_prediction_accuracy 94.12279
Core_0_branch_MPKI 8.64524
Core_0_average_ROB_occupancy_at_mispredict 103.65378

Core_0_L1D_total_access 12119163
Core_0_L1D_total_hit 9519916
Core_0_L1D_total_miss 2599247
Core_0_L1D_loads 10786397
Core_0_L1D_load_hit 8472325
Core_0_L1D_load_miss 2314072
Core_0_L1D_RFOs 1332766
Core_0_L1D_RFO_hit 1047591
Core_0_L1D_RFO_miss 285175
Core_0_L1D_prefetches 0
Core_0_L1D_prefetch_hit 0
Core_0_L1D_prefetch_miss 0
Core_0_L1D_writebacks 0
Core_0_L1D_writeback_hit 0
Core_0_L1D_writeback_miss 0
Core_0_L1D_prefetch_requested 0
Core_0_L1D_prefetch_dropped 0
Core_0_L1D_prefetch_issued 0
Core_0_L1D_prefetch_filled 0
Core_0_L1D_prefetch_useful 0
Core_0_L1D_prefetch_useless 0
Core_0_L1D_prefetch_late 0
Core_0_L1D_average_miss_latency 93.08639

Core_0_L1D_rq_access 17886557
Core_0_L1D_rq_forward 0
Core_0_L1D_rq_merged 6898935
Core_0_L1D_rq_to_cache 10987622
Core_0_L1D_rq_full 0

Core_0_L1D_wq_access 1447494
Core_0_L1D_wq_forward 0
Core_0_L1D_wq_merged 965
Core_0_L1D_wq_to_cache 1446529
Core_0_L1D_wq_full 0

Core_0_L1D_pq_access 0
Core_0_L1D_pq_forward 0
Core_0_L1D_pq_merged 0
Core_0_L1D_pq_to_cache 0
Core_0_L1D_pq_full 0

Core_0_L1D_acc_epochs 174744
Core_0_L1D_acc_level_0 174744
Core_0_L1D_acc_level_1 0
Core_0_L1D_acc_level_2 0
Core_0_L1D_acc_level_3 0
Core_0_L1D_acc_level_4 0
Core_0_L1D_acc_level_5 0
Core_0_L1D_acc_level_6 0
Core_0_L1D_acc_level_7 0
Core_0_L1D_acc_level_8 0
Core_0_L1D_acc_level_9 0

Core_0_L1I_total_access 7356037
Core_0_L1I_total_hit 7356037
Core_0_L1I_total_miss 0
Core_0_L1I_loads 7356037
Core_0_L1I_load_hit 7356037
Core_0_L1I_load_miss 0
Core_0_L1I_RFOs 0
Core_0_L1I_RFO_hit 0
Core_0_L1I_RFO_miss 0
Core_0_L1I_prefetches 0
Core_0_L1I_prefetch_hit 0
Core_0_L1I_prefetch_miss 0
Core_0_L1I_writebacks 0
Core_0_L1I_writeback_hit 0
Core_0_L1I_writeback_miss 0
Core_0_L1I_prefetch_requested 0
Core_0_L1I_prefetch_dropped 0
Core_0_L1I_prefetch_issued 0
Core_0_L1I_prefetch_filled 0
Core_0_L1I_prefetch_useful 0
Core_0_L1I_prefetch_useless 0
Core_0_L1I_prefetch_late 0
Core_0_L1I_average_miss_latency -nan

Core_0_L1I_rq_access 50000129
Core_0_L1I_rq_forward 0
Core_0_L1I_rq_merged 42644092
Core_0_L1I_rq_to_cache 7356037
Core_0_L1I_rq_full 0

Core_0_L1I_wq_access 0
Core_0_L1I_wq_forward 0
Core_0_L1I_wq_merged 0
Core_0_L1I_wq_to_cache 0
Core_0_L1I_wq_full 0

Core_0_L1I_pq_access 0
Core_0_L1I_pq_forward 0
Core_0_L1I_pq_merged 0
Core_0_L1I_pq_to_cache 0
Core_0_L1I_pq_full 0

Core_0_L1I_acc_epochs 174744
Core_0_L1I_acc_level_0 174744
Core_0_L1I_acc_level_1 0
Core_0_L1I_acc_level_2 0
Core_0_L1I_acc_level_3 0
Core_0_L1I_acc_level_4 0
Core_0_L1I_acc_level_5 0
Core_0_L1I_acc_level_6 0
Core_0_L1I_acc_level_7 0
Core_0_L1I_acc_level_8 0
Core_0_L1I_acc_level_9 0

Core_0_L2C_total_access 3889201
Core_0_L2C_total_hit 1468247
Core_0_L2C_total_miss 2420954
Core_0_L2C_loads 2314052
Core_0_L2C_load_hit 471158
Core_0_L2C_load_miss 1842894
Core_0_L2C_RFOs 285150
Core_0_L2C_RFO_hit 184589
Core_0_L2C_RFO_miss 100561
Core_0_L2C_prefetches 475049
Core_0_L2C_prefetch_hit 271
Core_0_L2C_prefetch_miss 474778
Core_0_L2C_writebacks 814950
Core_0_L2C_writeback_hit 812229
Core_0_L2C_writeback_miss 2721
Core_0_L2C_prefetch_requested 1101664
Core_0_L2C_prefetch_dropped 0
Core_0_L2C_prefetch_issued 1101664
Core_0_L2C_prefetch_filled 498541
Core_0_L2C_prefetch_useful 251038
Core_0_L2C_prefetch_useless 247451
Core_0_L2C_prefetch_late 3690
Core_0_L2C_average_miss_latency 95.39426

Core_0_L2C_rq_access 2599247
Core_0_L2C_rq_forward 0
Core_0_L2C_rq_merged 0
Core_0_L2C_rq_to_cache 2599202
Core_0_L2C_rq_full 0

Core_0_L2C_wq_access 814950
Core_0_L2C_wq_forward 45
Core_0_L2C_wq_merged 0
Core_0_L2C_wq_to_cache 814950
Core_0_L2C_wq_full 0

Core_0_L2C_pq_access 1101664
Core_0_L2C_pq_forward 0
Core_0_L2C_pq_merged 18420
Core_0_L2C_pq_to_cache 1083244
Core_0_L2C_pq_full 0

Core_0_L2C_acc_epochs 174744
Core_0_L2C_acc_level_0 30305
Core_0_L2C_acc_level_1 2790
Core_0_L2C_acc_level_2 8074
Core_0_L2C_acc_level_3 17931
Core_0_L2C_acc_level_4 24372
Core_0_L2C_acc_level_5 22739
Core_0_L2C_acc_level_6 18783
Core_0_L2C_acc_level_7 17055
Core_0_L2C_acc_level_8 12941
Core_0_L2C_acc_level_9 19754

Core_0_LLC_total_access 3400386
Core_0_LLC_total_hit 2235952
Core_0_LLC_total_miss 1164434
Core_0_LLC_loads 1839233
Core_0_LLC_load_hit 1089615
Core_0_LLC_load_miss 749618
Core_0_LLC_RFOs 100558
Core_0_LLC_RFO_hit 43365
Core_0_LLC_RFO_miss 57193
Core_0_LLC_prefetches 931061
Core_0_LLC_prefetch_hit 600828
Core_0_LLC_prefetch_miss 330233
Core_0_LLC_writebacks 529534
Core_0_LLC_writeback_hit 502144
Core_0_LLC_writeback_miss 27390
Core_0_LLC_prefetch_requested 0
Core_0_LLC_prefetch_dropped 0
Core_0_LLC_prefetch_issued 0
Core_0_LLC_prefetch_filled 422735
Core_0_LLC_prefetch_useful 66154
Core_0_LLC_prefetch_useless 349678
Core_0_LLC_prefetch_late 1292
Core_0_LLC_average_miss_latency 183.21910

Core_0_LLC_rq_access 1939794
Core_0_LLC_rq_forward 0
Core_0_LLC_rq_merged 0
Core_0_LLC_rq_to_cache 1939791
Core_0_LLC_rq_full 0

Core_0_LLC_wq_access 529534
Core_0_LLC_wq_forward 6
Core_0_LLC_wq_merged 0
Core_0_LLC_wq_to_cache 529534
Core_0_LLC_wq_full 0

Core_0_LLC_pq_access 1054857
Core_0_LLC_pq_forward 0
Core_0_LLC_pq_merged 1219
Core_0_LLC_pq_to_cache 1053635
Core_0_LLC_pq_full 0

Core_0_LLC_acc_epochs 175787
Core_0_LLC_acc_level_0 139951
Core_0_LLC_acc_level_1 9254
Core_0_LLC_acc_level_2 6950
Core_0_LLC_acc_level_3 1754
Core_0_LLC_acc_level_4 1186
Core_0_LLC_acc_level_5 3966
Core_0_LLC_acc_level_6 1263
Core_0_LLC_acc_level_7 1527
Core_0_LLC_acc_level_8 1803
Core_0_LLC_acc_level_9 8133

Core_0_major_page_fault 0
Core_0_minor_page_fault 8928

[MLOP] History of tracked zone:
IIIIIIIIIIIIIIIIIIIIIIIIIIIIIIIIIIIIIIIIIIIIIIIIIIIIIIIIIIIIIIII
IIIIIIIIIIIIIIIIIIIIIAIIIIIIIIIIIIIIIIIIIIIIIIIIIIIIIIIIIIIIIIII
IIIAIIIIIIIIIIIIIIIIIAIIIIIIIIIIIIIIIIIIIIIIIIIIIIIIIIIIIIIIIIII
IIIAIIIIIIIIIIIIIIIIAAIIIIIIIIIIIIIIIIIIIIIIIIIIIIIIIIIIIIIIIIII
IIIAIIIIIIIIIIIIIIIIAAIIIIIIIIIIIIIIIIIAIIIIIIIIIIIIIIIIIIIIIIII
IIIAIIIIIIIIIIIIIIIIAAIIIIIIIIIIIIIIIIIAIIAIIIIIIIIIIIIIIIIIIIII
IIIAIIIIIIIIIIIIIIIIAAIIIIIIIIIIIIIIIIIAIIAIIIIIAIIIIIIIIIIIIIII
IIIAIIIIIIIIIIIIIIIIAAIIIIIIIIIIIIIIIIIAIIAIIIIIAIIIAIIIIIIIIIII
IIIAIIIIIIIIIIIIIIIIAAIIIIIIIIIIIIIIIIIAIIAIIIIIAIIIAIIIIIIAIIII
IIIAIIIIIIIIIIIIIIIIAAIIIIIIIIIIIIIIIIIAIIAIIIIIAIIIAIIIIIIAIIAI
IIIAIIIIIIIIIIIIIIIIAAIIIIIIIIIIIIIIIIIAIIAIIIIIAIIIAIIIIIIAIIAA
IIIAIII44IIIIIIIIIIIAAIIIIIIIIIIIIIIIIIAIIAIIIIIAIIIAIIIIIIAIIAA
IIIAIII44IIIIIIAIII4AAIIIIIIIIIIIIIIIIIAIIAIIIIIAIIIAIIIIIIAIIAA
IIIAIII44IIIIIIAIII4AAIIIIIIIIIIIIIIIIIAIIAIIIIIAIIIAIIIIIAAIIAA
IIIAIII44IIIIIIAIII4AA44IIIIIIIIIIIIIIIAIIAIIIIIAIIIAIIIIIAAIIAA
IIIAIII44IIIIIIAIII4AA44I4I4IIIIIIIIIIIAIIAIIIIIAIIIAIIIIIAAIIAA
IIIAIII44IIIIIIAIII4AA44I444IIIIIIIIIIIAIIAIIIIIAIIIAIIIIIAAIIAA
IIIAIII44IIIIIIAIII4AA44I444IIIIIIIIIIIAIIA4II44AIIIAIIIIIAAIIAA
IIIAIII44IIIIIIAIII4AA44I444IIIIIIIIIIIAIIA4A444AI4IAIIIIIAAIIAA
IIIAIII4AI4I4IIAII44AA44I444IIIIIIIIIIIAIIA4A444AI4IAIIIIIAAIIAA
IIIAIIA4A4444I4AII44AA44I444IIIIIIIIIIIAIIA4A444AI4IAIIIIIAAIIAA
IIIAIIAAA444444A4I44AA44I444IIIIIIIIIIIAIIA4A444AI4IAIIIIIAAIIAA
IIIAIIAAA444444A4A44AA44I444IIIIIIIIIIIAIIA4A444AI4IAIIIIIAAIIAA
IIIAIIAAA444444A4A4AAA4444444IIIIIIIIIIAIIA4A444AI4IAIIIIIAAIIAA
IIIAIIAAA444444A4A4AAA444444444IIIIIIIIAIIA4A444AI4IAIIIIIAAIIAA
IIIAIIAAA444444A4A4AAA444444444IIIIIIIIAIIA4A444AI44AIIIIIAAIIAA
IIIAIIAAA444444A4A4AAA444444444II44IIIIAIIA4A444AI44AIIIIIAAIIAA
IIIAIIAAA44444AA4A4AAA444444444II44IIIIAIIA4A444AI44AIIIIIAAIIAA
IIIAIIAAA44444AA4A4AAA44444444444444IIIAIIA4A444AI44AIIIIIAAIIAA
IIIAIIAAA44444AA4A4AAA44444444444444IIIAA4A4A444A444AI4IIIAAIIAA
IIIAIIAAA44444AA4A4AAA44444444444444IIIAA4A4A444A444A44I4IAAIIAA
IIIAIIAAA44444AA4A4AAA44444444444444IIIAA4A4A444A444A44I4IAA4IAA
IIIAIIAAA44444AA4A4AAA4444A444444444I44AA4A4A444A444A44I4IAA4IAA
IIIAIIAAA44444AA4A4AAA4444A444444444I44AA4A4A444A44AA44I44AA4IAA
IIIAIIAAA44444AA4A4AAA4444A444444444444AA4A4A444A44AA44I44AA4IAA
IIIAIIAAA44444AA4A4AAA4444A444444444444AA4A4A444A44AA44444AA44AA
IIIAIIAAA444A4AA4A4AAA4444A444444444444AA4A4A444A44AA44444AA44AA
IIIAIIAAA444A4AA4A4AAA4444A44A444444444AA4A4A444A44AA44444AA44AA
IIIAIIAAA444A4AA4A4AAA4444A44A4444444A4AA4A4A444A44AA44444AA44AA
IIIAIIAAA444A4AA4A4AAA4444A44A4444444A4AA4A4A444A44AA44444AAA4AA
IIIAIIAAA444A4AA4A4AAA4444A44A44A4444A4AA4A4A444A44AA44444AAA4AA
IIIAIIAAA444A4AA4A4AAA4444A44A44A4444A4AA4A4A444A44AA444A4AAA4AA
IIIAIIAAA444A4AA4A4AAA4A44A44A44A4444A4AA4A4A444A44AA444A4AAA4AA
IIIA44AAA444A4AA4A4AAA4A44A44A44A4444A4AA4A4A444A44AA444A4AAA4AA
IIIA4AAAA444A4AA4A4AAA4A44A44A44A4444A4AA4A4A444A44AA444A4AAA4AA
IIIA4AAAA444A4AA4A4AAA4AA4A44A44A4444A4AA4A4A444A44AA444A4AAA4AA
IIIA4AAAAA44A4AA4A4AAA4AA4A44A44A4444A4AA4A4A444A44AA444A4AAA4AA
IIIA4AAAAA44A4AA4A4AAA4AA4A44A44AA444A4AA4A4A444A44AA444A4AAA4AA
IIIA4AAAAA44A4AA4A4AAA4AA4A44A44AA444A4AA4A4AA44A44AA444A4AAA4AA
IIIA4AAAAA44A4AA4A4AAA4AA4A44A44AA444A4AA4A4AA44A44AA44AA4AAA4AA
IIIA4AAAAA44A4AA4A4AAA4AA4A44A4AAA444A4AA4A4AA44A44AA44AA4AAA4AA
IIIA4AAAAA44A4AA4A4AAA4AA4A44A4AAAA44A4AA4A4AA44A44AA44AA4AAA4AA
IIIA4AAAAA44A4AA4A4AAA4AA4A44A4AAAA44A4AA4A2AA44A44AA44AA4AAA4AA
IIIA4AAAAA44I4AA4A4AAA4AA4A44A4AAAA44A4AA4A2AA44A44AA44AA4AAA4AA
A24A4AAAAA4444AA4A4AAA4AA4A44A4AAAA44A4AA4A2AA44A44AA44AA4AAA4AA
A24A2AAAAA4444AA4A4AAA4AA4A44A4AAAA44A4AA4A2AA44A44AA44AA4AAA4AA
A24A2AAAAA4444AA2A4AAA4AA4A44A4AAAA44A4AA4A2AA44A44AA44AA4AAA4AA
A24A2AAAAA4444AA2A4AAA2AA4A44A4AAAA44A4AA4A2AA44A44AA44AA4AAA4AA
A24A2AAAAA4444AA2A4AAA2AA2A44A4AAAA44A4AA4A2AA44A44AA44AA4AAA4AA
A24A2AAAAA4444AAAA4AAA2AA2A44A4AAAA44A4AA4A2AA44A44AA44AA4AAA4AA
A24A2AAAAA4444AAAA4AAA2AA2A44A4AAAA44A4IA4A2AA44A44AA44AA4AAA4AA
A24A2AAAAA4444AAAA4AAA2AA2A44A4AAAA44A4IA4A2AA44A44AAA4AA4AAA4AA
A24A2AAAAA4444AAAA4AAA2AA2A44A4AAAA44A4IA4A2AA44A44AAA4AA4AAA2AA
A24A2AAAAA44A4AAAA4AAA2AA2A44A4AAAA44A4IA4A2AA44A44AAA4AA4AAA2AA
A24A2AAAAA44A4AAAA4AAA2AA2A44A4AAAAA4A4IA4A2AA44A44AAA4AA4AAA2AA
A24A2AAAAA44A4AIAA4AAA2AA2A44A4AAAAA4A4IA4A2AA44A44AAA4AA4AAA2AA
A24A2AAAAA44A4AIAA4AAA2AA2A44A4AAAAA4A4IA4A2AA44A44IAA4AA4AAA2AA
A24A2AAAAA44A2A4AA4AAA2AA2A44A4AAAAA4A4IA4A2AA44A44IAA4AA4AAA2AA
A24A2AAAAA44A2A4AA4AAA2AA2A44A4AAAAA4A4IA4A2AA44A444AA4AA4AAA2AA
A24A2AAAAA44A2A4AA4AAA2AA2A44A4AAAAA4A4IA4A2AA44A44AAA4AA4AAA2AA
A24A2AAAAA44A2A4AA4AAA2AA2A44A4AAAAA4A44A4A2AA44A44AAA4AA4AAA2AA
A24A2AAAAA44A2A4AA2AAA2AA2A44A4AAAAA4A44A4A2AA44A44AAA4AA4AAA2AA
A24A2AAAAA44A2A4AA2AAA2AA2A44A4AAAAA4A44A4A2AA44A44AAAAAA2AAA2AA
A24A2AAAAA44A2A2AA2AAA2AA2A44A4AAAAA4A44A4A2AA44A44AAAAAA2AAA2AA
A24A2AAAAA44A2A2AA2AAA2AA2A44A4AAAAAAA44A4A2AA44A44AAAAAA2AAA2AA
A24A2AAAAA44A2A2AA2AAA2AA2A44A4AAAAAAA4AA4A2AA44A44AAAAAA2AAA2AA
A24A2AAAAA44A2A2AA2AAA2AA2A44A4AAAAAAA4AA2A2AA44A44AAAAAA2AAA2AA
A24A2AAAAA44A2A2AA2AAA2AA2A44A4AAAAAAA4AA2AAAA44A44AAAAAA2AAA2AA
A24A2AAAAA44A2A2AA2AAA2AA2A44A4AAAAAAA4AA2IAAA44A44AAAAAA2AAA2AA
A24A2AAAAA44A2AAAA2AAA2AA2A44A4AAAAAAA4AA2IAAA44A44AAAAAA2AAA2AA
A24A2AAAAA44A2AAAA2AAA2AA2A44A4AAAAAAA4AA2AAAA44A44AAAAAA2AAA2AA
A24A2AAAAA44A2AAAA2AAA2AA2A44A4AAAAAAA4AA2IAAA44A44AAAAAA2AAA2AA
AA2A2AAAAA44A2AAAA2AAA2AA2A44A4AAAAAAA4AA2IAAA44A44AAAAAA2AAA2AA
AA2A2AAAAAA2A2AAAA2AAA2AA2A44A4AAAAAAA4AA2IAAA44A44AAAAAA2AAA2AA
AA2A2AAAAAAAA2AAAA2AAA2AA2A44A4AAAAAAA4AA2IAAA44A44AAAAAA2AAA2AA
AA2A2AAAAAAAA2AAAA2AAA2AA2A44A4AAAAAAA4AA2AAAA44A44AAAAAA2AAA2AA
AA2A2AAAAAAAA2AAAA2AAA2AA2A44A4AAAAAAA4AA2AAAA44A44AAAAAA2AAAAAA
AA2A2AAAAAAAA2AAAA2AAA2AA2A44A4AAAAAAA4AA2AAAA44A44AAIAAA2AAAAAA
AA2A2AAAAAAAA2AAAA2AAA2AA2A44A4AAAAAAA4AA2AAAA44A44AA4AAA2AAAAAA
AA2A2AAAAAAAA2AAAA2AAA2AA2A44A4AAAAAAA4AA2AAAA42A44AA4AAA2AAAAAA
AA2A2AAAAAAAA2AAAA2AAA2AA2A44A4AAAAAAA4AA2AAIA42A44AA4AAA2AAAAAA
AA2A2AAAAAAAA2AAAA2AAA2AA2A44A4AAAAAAA4AA2AIIA42A44AA4AAA2AAAAAA
AA2A2AAAAAAAA2AAAA2AAI2AA2A44A4AAAAAAA4AA2AIIA42A44AA4AAA2AAAAAA
AA2A2AAAAAAAA2AAAA2AA42AA2A44A4AAAAAAA4AA2AIIA42A44AA4AAA2AAAAAA
AA2A2AAAAAAAA2AAAA2AA22AA2A44A4AAAAAAA4AA2AIIA42A44AA4AAA2AAAAAA
AA2A2AAAAAAAA2AAAA2AAA2AA2A44A4AAAAAAA4AA2AIIA42A44AA4AAA2AAAAAA
AA2A2AAAAAAAA2AAAA2AAA2AA2A44A4AAAAAAA4AA2AI4A42A44AA4AAA2AAAAAA
AA2A2AAAAAAAA2AAIA2AAA2AA2A44A4AAAAAAA4AA2AI4A42A44AA4AAA2AAAAAA
AA2A2AAAAAAAA2AAIA2AAA2AA2A44A4AAIAAAA4AA2AI4A42A44AA4AAA2AAAAAA
AA2A2AAAAAAAA2AAIA2AAA2AA2A44A4AAIAAAA4AA2AIAA42A44AA4AAA2AAAAAA
AA2A2AAAAAAAA2AAIA2AAA2AA2A44A4AAIAAAA4AA2A4AA42A44AA4AAA2AAAAAA
AA2A2AAAAAAAA2AAIA2AAA2AA2A44A4AAIAAAA4AA2A4AA42A22AA4AAA2AAAAAA
AA2A2AAAAAAAA2AAIA2AAA2AA2A44A4AAIAAAA4AA2A4AA42A2IAA4AAA2AAAAAA
AA2A2AAAAAAAA2AAIA2AAA2AA2A44A4AAIAAAA4AA2A4AA42I2IAA4AAA2AAAAAA
AA2A2AAAAAAAAAAAIA2AAA2AA2A44A4AAIAAAA4AA2A4AA42I2IAA4AAA2AAAAAA
AA2A2AAAAAAAAAAA4A2AAA2AA2A44A4AAIAAAA4AA2A4AA42I2IAA4AAA2AAAAAA
AA2A2AAAAAAAAAAA4A2AAA2AA2A44A4AAIAAAA4AA2A4AA42I24AA4AAA2AAAAAA
AA2A2AAAAAAAAAAA4A2AAA2AA2A44A4AAIAAAI4AA2A4AA42I24AA4AAA2AAAAAA
AA2A2AAAAAAAAAIA4A2AAA2AA2A44A4AAIAAAI4AA2A4AA42I24AA4AAA2AAAAAA
AA2A2AAAAAAAAAIA4A2AAA2AA2A44A4AAIAAAI4AA2A2AA42424AA4AAA2AAAAAA
AA2A2AAAAAAAAA4A4A2AAA2AA2A44A4AAIAAAI4AA2A2AA42424AA4AAA2AAAAAA
AA2A2AAAAAAAAAAA4A2AAA2AA2A44A4AAIAAAI4AA2A2AA42424AA4AAA2AAAAAA
AA2A2AAAAAAAAAAA4A2AAA2AA2A44A4AA4AAAI4AA2A2AA42424AA4AAA2AAAAAA
AA2A2AAAAAAAAAAA4A2AAA2AA2A44A4AA4AAAA2AA2A2AA42424AA4AAA2AAAAAA
AA2A2AAAAAAAAAAA4A2AAA2AA2A44A4AA4AAAA2AA2A2IA42424AA4AAA2AAAAAA
AA2A2AAAAAAAAAAA4A2AAA2AA2A44A4AA4AAAA2AA2A2AA42424AA4AAA2AAAAAA
AA2A2AAAAAAAAAAA4A2AAA2AA2A44A4AA4AAAA2AA2A2AA42424AA4AAA2AAAAIA
AA2A2AAAAAAAAAAA4A2AAA2AA2A44A4AA4AAAA2AA2A2IA42424AA4AAA2AAAAIA
AA2A2AAAAAAAAAAA4A2AAA2AA2A44A4IA4AAAA2AA2A2IA42424AA4AAA2AAAAIA
AA2A2AAAAAAAAAAA4A2AAA2AA2A44A4IA4AAAA2AA2A2IA22424AA4AAA2AAAAIA
AI2A2AAAAAAAAAAA4A2AAA2AA2A44A4IA4AAAA2AA2A2IA22424AA4AAA2AAAAIA
AI2A2AAAAAAAAAAA2A2AAA2AA2A44A44A4AAAA2AA2A2IA22424AA4AAA2AAAAIA
AI2A2AAAAAAAAAAA2A2AAA2AA2A44A44A4AAAA2AA2A2IAI2424AA4AAA2AAAAIA
AI2A2AAAAAAAAAAA2A2AAA2AA2A44A44A4AAAA2AA2A2AAI2224AA4AAA2AAAAIA
AI2A2AAAAAAAAAAA2A2AAA2AA2A44A44A4AAAA2AA2A2AAI2224AA4AAA2AAAA4A
AI2A2AAAAAAAAAAA2A2AAAAAA2A44A44A4AAAA2AA2A2AAI2224AA4AAA2AAAA4A
AI2A2AAAAAAAAAAA2A2AAAIAA2A44A44A4AAAA2AA2A2AAI2224AA4AAA2AAAA4A
A22A2AAAAAAAAAAA2A2AAAIAA2A44A44A4AAAA2AA2A2AAI2224AA4AAA2AAAA4A
AA2A2AAAAAAAAAAA2A2AAAIAA2A44A44A4AAAA2AA2A2AAI2224AA4AAA2AAAA4A
AA2AAAAAAAAAAAAA2A2AAAIAA2A44A44A4AAAA2AA2A2AAI2224AA4AAA2AAAA4A
AA2AAAAAAAAAAAAA2A2AAA4AA2A44A44A4AAAA2AA2A2AAI2224AA4AAA2AAAA4A
AA2AAAAAAAAAAAAAAA2AAA4AA2A44A44A4AAAA2AA2A2AAI2224AA4AAA2AAAA4A
AA2AAAAAAAAAAAAAAA2AAA2AA2A44A44A4AAAA2AA2A2AAI2224AA4AAA2AAAA4A
AA2AAAAAAAAAAAAAAA2AAA2AA2A22A44A4AAAA2AA2A2AAI2224AA4AAA2AAAA4A
AA2AAAAAAAAAAAAAAA2AAA2AA2A22A22A4AAAA2AA2A2AAI2224AA4AAA2AAAA4A
AA2AAAAAAAAAAAAAAA2AAA2AA2A22A22A2AAAA2AA2A2AAI2224AA4AAA2AAAA4A
AA2AAAAAAAAAAAAAAA2AAA2AA2A22AA2A2AAAA2AA2A2AA42224AA4AAA2AAAA4A
AA2AAAAAAAAAAAAAAA2AAA2AA2A22AA2A2AAAA2AAAA2AA22224AA4AAA2AAAA4A
AA2AAAAAAAAAAAAAAA2AAA2AA2A22AA2A2AAAA2AAAA2AAA2222AA4AAA2AAAA4A
AA2AAAAAAAAAAAAAAA2AAA2AA2A22AA2A2AAAA2AAAA2AAA2222AA4AAA2AAAAAA
AA2AAAAAAAAAAAAAAA2AAA2AA2A22AAIA2AAAA2AAAA2AAA2222AA4AAA2AAAAAA
AA2AAAAAAAAAAAAAAA2AAA2AA2I22AAIA2AAAA2AAAA2AAA2222AA4AAA2AAAAAA
AA2AAAAAAAAAAAAAAA2AAA2AA2I2IAAIA2AAAA2AAAA2AAA2222AA4AAA2AAAAAA
AA2AAAAAAAAAAAAAAA2AAA2AA2I2IAAIA2AAAA2AAAA2AAA2222AA4AAA2AAAAIA
AA2AAAAAAAAAAAAAAA2AAA2AA2424AAIA2AAAA2AAAA2AAA2222AA4AAA2AAAAIA
AA2AAAAAAAAAAIAAAA2AAA2AA2424AAIA2AAAA2AAAA2AAA2222AA4AAA2AAAAIA
AA2AAAAAAAAAAIAAAA2AAA2AA2424AAIA2AAAA2AAAA2AAA2222AA4AAAAAAAA4A
AA2AAAAAAAAAAIAAAA2AAA2AA2424AA4A2AAAA2AAAA2AAA2222AA4AAAAAAAA4A
AA2AAAAAAAAAAIAAAA2AAA2AA2424AA4A2AAAA2AAAA2AAA2222AA4AAAAAAAA4I
AA2AAAAAAAAAAIAAAA2AAA2AA2424AA4A2AAAA2AAAAAAAA2222AA4AAAAAAAA4I
AA2AAAAAAAAAA2AAAA2AAA2AA2424AA4A2AAAA2AAAAAAAA2222AA4AAAAAAAA4I
AA2AAAAAAAAAA2AAAA2AAA2AA2424AA2A2AAAA2AAAAAAAA2222AA4AAAAAAAA4I
AA2AAAAAAAAAA2AAAA2AAA2AA2424AAAA2AAAA2AAAAAAAA2222AA4AAAAAAAA4I
AA2AAAAAAAAAA2AAAA2AAA2AA2424AAAA2AAAA2AAAAAAAA2222AAAAAAAAAAA44
AA2AAAAAAAAAA2AAAA2AAA2AA2424AAAA2AAAA2AAAAAAAA2A22AAAAAAAAAAA44
AA2AAAAAAAAAA2AAAA2AAA2AA2424AAAA2AAAA2AAAIAAAA2A22AAAAAAAAAAA44
AA2AAAAAAAAAA2AAAA2AAI2AA2424AAAA2AAAA2AAAIAAAA2A22AAAAAAAAAAA44
AA2AAAAAAAAAA2AAAA2AAI2AA2424AAAA2AAAA2AAAIAAAA2A22AAAAAAAAAAAA2
AA2AAAAAAAAAA2AAAA2AAI2AA2424AAAA2AAAA2AAAIAAAA2A22AAAAAAAAAAAAI
AA2AAAAAAAAAA2AAAA2AA42AA2424AAAA2AAAA2AAAIAAAA2A22AAAAAAAAAAAAI
AA2AAAAAAAAAA2AAAA2AAA2AA2424AAAA2AAAA2AAAIAAAA2A22AAAAAAAAAAAAI
AA2AAAAAAAAAA2AAAA2AAAAAA2424AAAA2AAAA2AAAIAAAA2A22AAAAAAAAAAAAI
AA2AAAAAAAAAA2AAAA2AAAAAA2424AAAAAAAAA2AAA4AAAA2A22AAAAAAAAAAAAI
AA2AAAAAAAAAA2AAAA2AAAAAA2424AAAAAAAAA2AAAAAAAA2A22AAAAAAAAAAAAI
AA2AAAAAAAAAA2AAAA2AAAAAA2424AAAAAAAAA2AAAAAAAA2A22AAAAAAAAAAAA4
AA2AAAAAAAAAA2AAAA2AAAAAA2424AAAAAAAAA2AAAAAAAA2A22AAAAAAAAAAAA2
AA2AAAAAAAAAA2AAAA2AAAAAA2424AAAAAAAAA2AAAAAAAA2A22AAAAAAAAAAAAA
AA2AAIAAAAAAA2AAAA2AAAAAA2424AAAAAAAAA2AAAAAAAA2A22AAAAAAAAAAAAA
AA2AAIAAAAAAA2AAAA2AAAAAA2424AAAAIAAAA2AAAAAAAA2A22AAAAAAAAAAAAA
AA2AAIAAAAAAA2AAAA2AAAAAA2424AAAAIAAAA2AAAAAAAA2A22AAAAAAAIAAAAA
AA2AAIAAAAAAAAAAAA2AAAAAA2424AAAAIAAAA2AAAAAAAA2A22AAAAAAAIAAAAA
AA2AAIAAAAAAAAAAAA2AAAAAA2224AAAA4AAAA2AAAAAAAA2A22AAAAAAAIAAAAA
AA2AAIAAAAAAAAAAAA2AAAAAAA222AAAA4AAAA2AAAAAAAA2A22AAAAAAAIAAAAA
AA2AAIAAAAAAAAAAAA2AAAAAAA222AAAA4AAAA2AAAAAAAA2A22AAAAAAA4AAAAA
AA2AAIAAAAAAAAAAAA2AAAAAAA222AAAA4AAAA2AAAAAAAAAA22AAAAAAA4AAAAA
AA2AAIAAAAAAAAAAAA2AAAAAAA222AAAA4AAAA2AAAAAAAAAA22AAAAAAA4AAAAI
AA2AAIAAAAAAIAAAAA2AAAAAAA222AAAA4AAAA2AAAAAAAAAA22AAAAAAA4AAAAI
AA2AA4AAAAAAIAAAAA2AAAAAAA222AAAA4AAAA2AAAAAAAAAA22AAAAAAA4AAAAI
AA2AA4AAAAAAIAAAAA2AAAAAAA222AAAA4AAAA2AAAAAAAAAA22AAAAAAAAAAAAI
AA2AA4AAAAAAIAAAAA2AAAAAAA222AAAA4AAAA2AAAAAAAAAA22AAAAAAAAAAAAA
AA2AA4AAAAAAIAAAAA2AAAAAAA222AAAA4AAAA2AAAAAAAAAA22AAAAAAAAAAAAI
AA2AA4AAAAAAIAAAAA2AAAAAAA222AAAA2AAAA2AAAAAAAAAA22AAAAAAAAAAAAI
AA2AA4AAAAAAIAAAAA2AAAAAAA222AAAA2AAAA2AAAAAAAAAA22AAAAAAAAAAAA4
AA2AA4AAAAAAAAAAAA2AAAAAAA222AAAA2AAAA2AAAAAAAAAA22AAAAAAAAAAAA4
AA2AA4AAAAAAAAAAAA2AAAAAAAA22AAAA2AAAA2AAAAAAAAAA22AAAAAAAAAAAA4
AI2AA4AAAAAAAAAAAA2AAAAAAAA22AAAA2AAAA2AAAAAAAAAA22AAAAAAAAAAAA4
AI2AA4AAAAAAAAAAAA2AAAAAAAA22AAAA2AAAA2AAAAAAAAAA22AAAAAAAAIAAA4
AI2AA4AAIAAAAAAAAA2AAAAAAAA22AAAA2AAAA2AAAAAAAAAA22AAAAAAAAIAAA4
AI2AA4AAIAAAAAAAAA2AAAAAAAA22AAAA2AAAA2AAAAAAAIAA22AAAAAAAAIAAA4
AI2AA4AAIAAAAAAAAA2AAAAAAAA22AAAA2AAAA2AAAAAAA4AA22AAAAAAAAIAAA4
AI2AA4AAIAAAAAAAAA2AAAAAAAA22AAAA2AAAA2AAAAAAA4AA22AAAAAAAA4AAA4
AI2AA4AAIAAAAAAAAA2AAAAAAAA22AAAA2AAAA2AAAAAAA2AA22AAAAAAAA4AAA4
AI2AA4AAIAAAAAAAAA2AAAAAAAA22AAAA2AAAA2AAAAAAA2AA2AAAAAAAAA4AAA4
AI2AA4AAIAAAAAAAAA2AAAAAAAA22IAAA2AAAA2AAAAAAA2AA2AAAAAAAAA4AAA4
AI2AA4AAAAAAAAAAAA2AAAAAAAA22IAAA2AAAA2AAAAAAA2AA2AAAAAAAAA4AAA4
AI2AA4AAAAAAAAAAAA2AAAAAAAA224AAA2AAAA2AAAAAAA2AA2AAAAAAAAA4AAA4
AI2AA4AAAAAAAAAAAA2AAAAAAAA224AAA2AAAA2AAAAAAA2AA2AAAAAAAAA2AAA4
AI2AA4AAAAAAAAAAAA2AAAAAAAA224AAA2AAAA2AAAAAAA2AA2AAAAAAAAA2AAA2
AI2AA4AAAAAAAAAAAA2AAAAAAAA224AAA2AAAA2AAAAAAA2AA2AAAAAAAAA2AAAA
AI2AA4AAAAAAAAAIAA2AAAAAAAA224AAA2AAAA2AAAAAAA2AA2AAAAAAAAA2AAAA
AI2AA4AAAAAAAAAIAA2AIAAAAAA224AAA2AAAA2AAAAAAA2AA2AAAAAAAAA2AAAA
A22AA2AAAAAAAAAIAA2AIAAAAAA224AAA2AAAA2AAAAAAA2AA2AAAAAAAAA2AAAA
A22AA2AAAAAAAAA4AA2A4AAAAAA224AAA2AAAA2AAAAAAA2AA2AAAAAAAAA2AAAA
A22AAAAAAAAAAAA4AA2A4AAAAAA224AAA2AAAA2AAAAAAA2AA2AAAAAAAAA2AAAA
A22AAAAAAAAAAAA4AA2A4AAAAAAA22AAA2AAAA2AAAAAAA2AA2AAAAAAAAA2AAAA
A22AAAAAAAAIAAA4AA2A4AAAAAAA22AAA2AAAA2AAAAAAA2AA2AAAAAAAAA2AAAA
A22AAAAAAAAIAAA4AA2A4IAAAAAA22AAA2AAAA2AAAAAAA2AA2AAAAAAAAA2AAAA
AA2AAAAAAAA4AAA4AA2A4IAAAAAA22AAA2AAAA2AAAAAAA2AA2AAAAAAAAA2AAAA
AA2AAAAAAAA4AAA4AA2A44AAAAAA22AAA2AAAA2AAAAAAA2AA2AAAAAAAAA2AAAA
AA2AAAAAAAA4AAA4AA2A4AAAAAAA22AAA2AAAA2AAAAAAA2AA2AAAAAAAAA2AAAA
AA2AAAAAAAA4AAA4AA2A4IAAAAAA22AAA2AAAA2AAAAAAA2AA2AAAAAAAAA2AAAA
AA2AAAAAAAA4AAA4AA2A4IAAAAAA22AAA2AAAA2AAAAAAA2AA2AIAAAAAAA2AAAA
AA2AAAAAAAA4AAAAAA2A4IAAAAAA22AAA2AAAA2AAAAAAA2AA2AIAAAAAAA2AAAA
AA2AAAAAAAA4AAAAAA2A44AAAAAA22AAA2AAAA2AAAAAAA2AA2AIAAAAAAA2AAAA
AA2AAAAAAAA4AAAAAA2A4AAAAAAA22AAA2AAAA2AAAAAAA2AA2AIAAAAAAA2AAAA
AA2AAAAAAAA4AAAAAA2A4AAAAAAA22AAA2AAAA2AAAAAAA2AA2A4AAAAAAA2AAAA
AA2AAAAAAAA4AAAAAA2A4AAAAAAA22AAA2AAAA2AAAAAAAAAA2A4AAAAAAA2AAAA
AA2IAAAAAAA4AAAAAA2A4AAAAAAA22AAA2AAAA2AAAAAAAAAA2A4AAAAAAA2AAAA
AA2IAAAAAAA4AAIAAA2A4AAAAAAA22AAA2AAAA2AAAAAAAAAA2A4AAAAAAA2AAAA
AA2IAAAAAAA2AA2AAA2A4AAAAAAA22AAA2AAAA2AAAAAAAAAA2A4AAAAAAA2AAAA
AA22AAAAAAA2AA2AAA2A4AAAAAAA22AAA2AAAA2AAAAAAAAAA2A4AAAAAAA2AAAA
AA22AAAAAAA2AAAAAA2A4AAAAAAA22AAA2AAAA2AAAAAAAAAA2A4AAAAAAA2AAAA
AA22AAAAAAA2AAAAAA2A2AAAAAAA22AAA2AAAA2AAAAAAAAAA2A4AAAAAAA2AAAA
AA22AAAAAAA2AAAAAA2A2AAAAAAA22AAAAAAAA2AAAAAAAAAA2A4AAAAAAA2AAAA
AA2IAAAAAAA2AAAAAA2A2AAAAAAA22AAAAAAAA2AAAAAAAAAA2A4AAAAAAA2AAAA
AA2IAAAAAAA2AAAIAA2A2AAAAAAA22AAAAAAAA2AAAAAAAAAA2A4AAAAAAA2AAAA
AA2IAAAAAAA2AAAIAI2A2AAAAAAA22AAAAAAAA2AAAAAAAAAA2A4AAAAAAA2AAAA
AA2IAAAAAAA2AAA2A22A2AAAAAAA22AAAAAAAA2AAAAAAAAAA2A4AAAAAAA2AAAA
AA2IAAAAAAA2AAA2A22A2AAAAAAA22AAAAAAAA2AAAAAAAAAA2A4AAAAAAAAAAAA
AA2IAAAAAAA2AAA2AA2A2AAAAAAA22AAAAAAAA2AAAAAAAAAA2A4AAAAAAAAAAAA
AA2IAAAAAAA2AAA2AA2A2AAAAAAA22AAAAAAIA2AAAAAAAAAA2A4AAAAAAAAAAAA
AA2IAAAAAAA2AAA2AA2A2AAAAAAA22AAAAAA4A2AAAAAAAAAA2A4AAAAAAAAAAAA
AA22AAAAAAA2AAA2AA2A2AAAAAAA22AAAAAA4A2AAAAAAAAAA2A4AAAAAAAAAAAA
AA22AAAAAAA2AAA2AA2A2AAAAAAA22AAAAAA4AAAAAAAAAAAA2A4AAAAAAAAAAAA
AA2IAAAAAAA2AAA2AA2A2AAAAAAA22AAAAAA4AAAAAAAAAAAA2A4AAAAAAAAAAAA
AA2IAAAIAAA2AAA2AA2A2AAAAAAA22AAAAAA4AAAAAAAAAAAA2A4AAAAAAAAAAAA
AA2IAAAIAAA2AAA2AA2A2AAAAAAA22AAAAAA4AAAAAAAAAAAA2A2AAAAAAAAAAAA
AA2IAAAIAAA2AAA2AA2A2AAAAAAA2AAAAAAA4AAAAAAAAAAAA2A2AAAAAAAAAAAA
AA2IAAAIAAA2AAA2AA2A2IAAAAAA2AAAAAAA4AAAAAAAAAAAA2A2AAAAAAAAAAAA
AA2IAAAIAAA2AAA2AA2A22AAAAAA2AAAAAAA4AAAAAAAAAAAA2A2AAAAAAAAAAAA
AA2IAAAIAAA2AAA2AA2A2AAAAAAA2AAAAAAA4AAAAAAAAAAAA2A2AAAAAAAAAAAA
AA2IAAAIAAA2AAA2AI2A2AAAAAAA2AAAAAAA4AAAAAAAAAAAA2A2AAAAAAAAAAAA
AA2IAAAIAAA2AAA2A42A2AAAAAAA2AAAAAAA4AAAAAAAAAAAA2A2AAAAAAAAAAAA
AA2IAAAIAAA2AAA2A42A2IAAAAAA2AAAAAAA4AAAAAAAAAAAA2A2AAAAAAAAAAAA
AA2IAAAIAAA2AAAAA22A24AAAAAA2AAAAAAA4AAAAAAAAAAAA2A2AAAAAAAAAAAA
AA2IAAAIAAA2AAAAA22AA2AAAAAA2AAAAAAA4AAAAAAAAAAAA2A2AAAAAAAAAAAA
AA2IAAAIAAA2AAAAA22AA2AAAAAA2AAAAAAA4AAAAAAAAAAAA2AAAAAAAAAAAAAA
AA2IAAAIAAA2AAAAAI2AA2AAAAAA2AAAAAAA4AAAAAAAAAAAA2AAAAAAAAAAAAAA
AA2IAAAIAAA2AAAIAI2AA2AAAAAA2AAAAAAA4AAAAAAAAAAAA2AAAAAAAAAAAAAA
AA2IAAAIAAA2AAAIAI2AAIAAAAAA2AAAAAAA4AAAAAAAAAAAA2AAAAAAAAAAAAAA
AA2IAAAIAAA2AAAIAA2AAIAAAAAA2AAAAAAA4AAAAAAAAAAAA2AAAAAAAAAAAAAA
AA2IAAAIAAA2AAAIAA2AAAAAAAAA2AAAAAAA4AAAAAAAAAAAA2AAAAAAAAAAAAAA
AA2IAAAIAAA2AAAIAA2AAAAAAAAA2AAAAAAA4AAAAAAAAAAAA2AAAAAAAAAAAAAI
AA2IAAAIAAA2AAAIAA2AAAAAAAAA2AAAAAAA4AAAAAAAAAAAA2AAAAAAAAAAAAAA
AA2IAAAIAAA2AAAIAA2AAAAAAAAA2AAAAAAA2AAAAAAAAAAAA2AAAAAAAAAAAAAA
AA2IAAAIAAA2AAAIAA2AAAAAAAAA2AAAAAAAIAAAAAAAAAAAA2AAAAAAAAAAAAAA
AA2IAAAIAAA2AAAIAA2AAAAAAAAA2AAAAAAAAAAAAAAAAAAAA2AAAAAAAAAAAAAA
AA2IAAAIAAA2AAAIAA2AAAAAAAAA2AAAAAAAIAAAAAAAAAAAA2AAAAAAAAAAAAAA
AA2IAAAIAAA2AAAIAA2AAAAAAAAA2AAAAAAAIAAAAAIAAAAAA2AAAAAAAAAAAAAA
AAA2AAAIAAA2AAA4AA2AAAAAAAAA2AAAAAAAIAAAAAIAAAAAA2AAAAAAAAAAAAAA
AAA2AAAIAAA2AAA4AA2AAAAAAAAA2AAAAAAA4AAAAAIAAAAAA2AAAAAAAAAAAAAA
AAA2AAAIAAA2AAA2AA2AAAAAAAAA2AAAAAAA4AAAAAIAAAAAA2AAAAAAAAAAAAAA
AAA2AAAIAAA2AAAAAA2AAAAAAAAA2AAAAAAA4AAAAAIAAAAAA2AAAAAAAAAAAAAA
AAA2AAAIAAA2AAAAAA2AAAAAAAAA2AAAAAAA4AAAAA4AAAAAA2AAAAAAAAAAAAAA
AAA2AAAIAAA2AAAAAA2AAAAAAAAA2AAAAAAA4AAAAAAAAAAAA2AAAAAAAAAAAAAA
AAA2AAAIAAA2AAAAAA2AAAAAAAIA2AAAAAAA4AAAAAAAAAAAA2AAAAAAAAAAAAAA
AAA2AAA4AAA2AAAAAA2AAAAAAAIA2AAAAAAA4AAAAAAAAAAAA2AAAAAAAAAAAAAA
AAA2AAA4AAA2AAAAAA2AAAAAAA4A2AAAAAAA4AAAAAAAAAAAA2AAAAAAAAAAAAAA
AAA2AAA4AAA2AAAAAA2AAAAAAA4A2AAIAAAA4AAAAAAAAAAAA2AAAAAAAAAAAAAA
AAA2AAA4AAA2AAAAAA2AAAAAAA2A2AA4AAAA4AAAAAAAAAAAA2AAAAAAAAAAAAAA
AAA2AAA4AAA2AAAAAA2AAAAAAAIA2AA4AAAA4AAAAAAAAAAAA2AAAAAAAAAAAAAA
AAA2AAA4AAA2AAAAAA2AAAAAAA2A2AA4AAAA4AAAAAAAAAAAA2AAAAAAAAAAAAAA
AAA2AAA4AAA2AAAAAA2AAIAAAA2A2AA4AAAA4AAAAAAAAAAAA2AAAAAAAAAAAAAA
AAA2AAA4AAA2AAAAAA2AAIAAAA2A2AA2AAAA4AAAAAAAAAAAA2AAAAAAAAAAAAAA
AAA2AAA4AAA2AAAAAA2AAIAAAA2AAAA2AAAA4AAAAAAAAAAAA2AAAAAAAAAAAAAA
AAAAAAA2AAA2AAAAAA2AAIAAAA2AAAA2AAAA4AAAAAAAAAAAA2AAAAAAAAAAAAAA
AAAAAAA2AAA2AAAAAA2AA2AAAA2AAAA2AAAA4AAAAAAAAAAAA2AAAAAAAAAAAAAA
AAAAAAA2AAA2AAAAAA2AAAAAAA2AAAA2AAAA4AAAAAAAAAAAA2AAAAAAAAAAAAAA
AAAAAAA2AAA2AAAAAA2AAAAAAA2AAAA2AAAA4AAIAAAAAAAAA2AAAAAAAAAAAAAA
AAAAAAA2AAA2AAAAAA2AAAAAAA2AAAA2AAAA4AAIAAAAAAAAA2AAAAAAAAAAAAAI
AAAAAAA2AAA2AAAAAA2AAAAAAA2AAAA2AAAA4AAAAAAAAAAAA2AAAAAAAAAAAAAI
AAAAAAA2AAA2AAAAAA2AAAAAAA2AAAA2AAAA4AAAAAAAAAAAA2AAAAAAAAAAAAA4
AAAAAAA2AAA2AAAAAA2AAAAAAA2AAAA2AAAA4AAIAAAAAAAAA2AAAAAAAAAAAAA4
AAAAAAA2AAA2AAAAAA2AAAAAAA2AAAA2AAAA4AA4AAAAAAAAA2AAAAAAAAAAAAA4
AAAAAAA2AAA2AAAAAA2AAAAAAA2AAAA2AAAA4AAAAAAAAAAAA2AAAAAAAAAAAAA4
AAAAAAA2AAA2AAAAAA2AAAAAAA2AAAA2AAAA4AAAAAAAAAAAA2AAAAAAAAAAAAA2
AAAAAAA2AAA2AAAAAA2AAAAAAA2AAAA2AAAA4AAAAAAAAAAAA2AAAAAAAAAAAAAA
AAAAAAA2AAA2AAAAAA2AAAAAAA2AAAA2AAAA4AAAIAAAAAAAA2AAAAAAAAAAAAAA
AAAAAAA2AIA2AAAAAA2AAAAAAA2AAAA2AAAA4AAAIAAAAAAAA2AAAAAAAAAAAAAA
AAAAAAA2AIA2AAAAAA2AIAAAAA2AAAA2AAAA4AAAIAAAAAAAA2AAAAAAAAAAAAAA
AAAAAAA2AIA2AAAAAA2A4AAAAA2AAAA2AAAA4AAAIAAAAAAAA2AAAAAAAAAAAAAA
AAAAAAA2AIA2AAAAAA2A4AAAAA2AAAA2AAAA4AAA4AAAAAAAA2AAAAAAAAAAAAAA
AAAAAAA2AIA2AAAAAA2A4AAAAA2AAAA2AAAA4AAA2AAAAAAAA2AAAAAAAAAAAAAA
AAAAAAA2A4A2AAAAAA2A4AAAAA2AAAA2AAAA4AAA2AAAAAAAA2AAAAAAAAAAAAAA
AAAAAAA2A4A2AAAAAA2A4AAAAA2AAAA2AAAA4AAAAAAAAAAAA2AAAAAAAAAAAAAA
AAAAAAA2A4A2AAAAAA2A4IAAAA2AAAA2AAAA4AAAAAAAAAAAA2AAAAAAAAAAAAAA
AAAAAAA2A4A2AAAAAA2A4IAAAA2AAAA2AAAA2AAAAAAAAAAAA2AAAAAAAAAAAAAA
AAAAAAA2A4A2AAAAAA2A4IAAAA2AAAA2AAAAIAAAAAAAAAAAA2AAAAAAAAAAAAAA
AAAAAAA2A4A2AAAAAA2A4IAAAA2AAAA2AAAIIAAAAAAAAAAAA2AAAAAAAAAAAAAA
AAAAAAA2A4A2AAAAAA2A24AAAA2AAAA2AAAIIAAAAAAAAAAAA2AAAAAAAAAAAAAA
AAAAAAA2A4A2AAAAAA2A22AAAA2AAAA2AAAIIAAAAAAAAAAAA2AAAAAAAAAAAAAA
AAAAAAA2A4A2AAAAAA2A2AAAAA2AAAA2AAA4IAAAAAAAAAAAA2AAAAAAAAAAAAAA
AAAAAAA2A4A2AAAAAA2A2AAAAA2AAAA2AAA4IAAAIAAAAAAAA2AAAAAAAAAAAAAA
AAAAAAA2A4A2AAAAAA2A2IAAAA2AAAA2AAA4IAAAIAAAAAAAA2AAAAAAAAAAAAAA
AAAAAAA2A4A2AAAAAA2A2IAAAA2AAAA2AAA4IAAAIAAAAAAAA2AAAAIAAAAAAAAA
AAAAAAA2AAA2AAAAAA2A24AAAA2AAAA2AAA4IAAAIAAAAAAAA2AAAAIAAAAAAAAA
AAAAAAA2AAA2AAAAAA2A2AAAAA2AAAA2AAA4IAAAIAAAAAAAA2AAAAIAAAAAAAAA
AAAAAAA2AAA2AAAAAA2A2AAAAA2AAAA2AAA44AAAIAAAAAAAA2AAAAIAAAAAAAAA
AAAAAAA2AAA2AAAAAA2A2AAAAA2AAAA2AAA22AAA4AAAAAAAA2AAAAIAAAAAAAAA
AAAAAAA2AAA2AAAAAA2A2AAAAA2AAAA2AAA22AAA4AAAAAAAA2AAAA2AAAAAAAAA
AAAAAAA2AAA2AAAAIA2A2AAAAA2AAAA2AAA22AAA4AAAAAAAA2AAAA2AAAAAAAAA
AAAAAAA2AAA2AAAAIA2A2AAAAA2AAAA2AAA22AAA4AAAAAAAA2AAIA2AAAAAAAAA
AAAAAAA2AAA2AAAAIA2A2AAAAA2AAAA2AAA22AAA4AAAAAAAA2AAIA2AAAAAAAIA
AAAAAAA2AAA2AAAA4A2A2AAAAA2AAAA2AAA22AAA4AAAAAAAA2AAIA2AAAAAAAIA
AAAAAAA2AAAAAAAA2A2A2AAAAA2AAAA2AAA22AAA4AAAAAAAA2AAIA2AAAAAAAIA
AAAAAAA2AAAAAAAA2A2AAAAAAA2AAAA2AAA22AAA4AAAAAAAA2AAIA2AAAAAAAIA
AAAAAAA2AAAAAAAA2A2AAAAAAA2AAAA2AAA22AAA2AAAAAAAA2AA4A2AAAAAAAIA
AAAAAAA2AAAAAAAA2A2AAAAAAA2AAAA2AAA22AAA2AAAAAAAA2AA2A2AAAAAAA4A
AAAAAAA2AAAAAAAA2A2AAAAAAA2AAAA2AAA22AAA2AAAAAAAAAAA2A2AAAAAAA4A
AAAAAAA2AAAAAAAA2A2AAAAAAA2AAAA2AAA22AAA2AAAAAAAIAAA2A2AAAAAAA4A
AAAAAAA2AAAAAAAA2A2AAAAAAA2AAAA2AAA2AAAA2AAAAAAA4AAA2A2AAAAAAA4A
AAAAAAA2AAAAAAAA2I2AAAAAAA2AAAA2AAA2AAAA2AAAAAAA4AAA2A2AAAAAAA4A
AAAAAAA2AAAAAAAA2I2AAAAAAA2AAAA2AAA2AAAA2AAAAAAI4AAA2A2AAAAAAA4A
AAAAAAA2AAAAAAAA242AAAAAAA2AAAA2AAA2AAAA2AAAAAAI4AAA2A2AAAAAAA4A
AAAAAAA2AAAAAAAA2A2AAAAAAA2AAAA2AAA2AAAA2AAAAAAI4AAA2A2AAAAAAA4A
AAAAAAA2AAAAAAAA2A2AAAAAAAAAAAA2AAA2AAAA2AAAAAAI4AAA2A2AAAAAAA4A
AAAAAAA2AAAAAAAA2A2AAAAAAAAAAAA2AAAAAAAA2AAAAAAI4AAA2A2AAAAAAA4A
AAAAAAA2AAAAAAAA2A2AAAAAAAAAAAA2AAAAAAAA2AAAAAA44AAA2A2AAAAAAA4A
AAAAAAA2AAAAAAAA2A2AAAAAAAAAAAA2AAAAAAAA2AAAAAA44AAA2A2AAAAAAAAA
AAAAAAA2AAAAAAAA2A2AAAAAAAIAAAA2AAAAAAAA2AAAAAA44AAA2A2AAAAAAAAA
AAAAAAA2AAAAAAAA2A2AAIAAAAIAAAA2AAAAAAAA2AAAAAA44AAA2A2AAAAAAAAA
AAAAAAA2AAAAAAAA2A2AAIAAAAIAAAA2AAAAAAAA2AAAAAA44AAA2A2AAAAAAAIA
AAAAAAA2AAAAAAAA2A2AA4AAAAIAAAA2AAAAAAAA2AAAAAA44AAA2A2AAAAAAAIA
AAAAAAA2AAAAAAAA2A2AA4AAAA4AAAA2AAAAAAAA2AAAAAA44AAA2A2AAAAAAAIA
AAAAAAA2AAAAAAAA2A2AAAAAAA4AAAA2AAAAAAAA2AAAAAA44AAA2A2AAAAAAAIA
AAAIAAA2AAAAAAAA2A2AAAAAAA4AAAA2AAAAAAAA2AAAAAA44AAA2A2AAAAAAAIA
AAAIAAA2AAAAAAAA2A2AAAAAAA4AAAA2AAAAAAAA2AAAAAA24AAA2A2AAAAAAAIA
AAAIAAA2AAAAAAAA2A2AAIAAAA4AAAA2AAAAAAAA2AAAAAA24AAA2A2AAAAAAAIA
AAAIAAA2AAAAAAAA2A2AAAAAAA4AAAA2AAAAAAAA2AAAAAA24AAA2A2AAAAAAAIA
AAAIAAA2AAAAAAAA2A2AAAAAAA4AAAA2AAAAAAAA2AAAAAA24AAAAA2AAAAAAA4A
AAAIAAA2AAAAAAAA2A2AAIAAAA4AAAA2AAAAAAAA2AAAAAA24AAAAA2AAAAAAA4A
AAAIAAA2AAAAAAAA2A2AAIAAAA4AAAA2AAAAAAAA2AAAAAAI4AAAAA2AAAAAAA4A
AAAIAAA2AAAAAAAA2A2AA2AAAA4AAAA2AAAAAAAA2AAAAAAI4AAAAA2AAAAAAA4A
AAAIAAA2AAAAAAAA2A2AA2AAAA4AAAA2AAAAAAAA2AAAAAA22AAAAA2AAAAAAA4A
AAAIAAA2AAAAAAAA2A2AA2AAAA4AAAA2AAAAAAAA2AAAAAA22AAAAA2AAAAAAA2A
AAAIAAA2AAAAAAAA2A2AA2AAAA4AAAA2AAAAAAAA2AAAAAA22AAAAA2AAAAAAAAA
AAAIAAA2AAAAAAAA2A2AA2AAAA2AAAA2AAAAAAAA2AAAAAA22AAAAA2AAAAAAAAA
AAAIAAA2AAAAAAAA2A2AA2AAAA2AAAA2AAAAAAAA2AAAAAA22AAAAA2AAAIAAAAA
AAAIAAA2AAAAAAAA2A2AAAAAAA2AAAA2AAAAAAAA2AAAAAA22AAAAA2AAAIAAAAA
AAAIAAA2AAAAAAAA2A2AAAAAAA2AAAA2AAAAAAAA2AAAAAA22AAAAA2AAA4AAAAA
AAAIAAA2AAAAAAAA2A2AAAAAAA2AAAA2AAAAAAAA2AAAAAA22AAAAAAAAA2AAAAA
AAAIAAA2AAAAIAAA2A2AAAAAAA2AAAA2AAAAAAAA2AAAAAA22AAAAAAAAA2AAAAA
AAAIAAA2AAAAIAAA2A2AAAAAAA2AAAA2AAAAAAAA2AAAAAA22AAAAAAAAA2AAAIA
AAAIAAA2AAAA4AAA2A2AAAAAAA2AAAA2AAAAAAAA2AAAAAA22AAAAAAAAA2AAAIA
AAAIAAA2AAAA4AAAAA2AAAAAAA2AAAA2AAAAAAAA2AAAAAA22AAAAAAAAA2AAAIA
AAAIAAA2AAAA2AAAAA2AAAAAAA2AAAA2AAAAAAAA2AAAAAA22AAAAAAAAA2AAAIA
AAAIAAA2AAAA2AAAAA2AAAAAAA2AAAA2AAAAAAAA2AAAAAA22AAAAAAAAA2AAAAA
AAAIAAA2AAAA2AAAAA2AAAAAAA2AAAA2AAAAAAAA2AIAAAA22AAAAAAAAA2AAAAA
AAAIAAA2AAAA2AAAAA2AAAAAAA2AAAA2AAAAAAAA2AIAAAA22AAAAAAAAA2AAAIA
AAAIAAA2AAAA2AAAAA2AAAAAAA2AAAA2AAAAAAAA2AIAAAA22AAAAAAAAA2AAA4A
AAAIAAA2AAAA2AAAAA2AAAAAAA2AAAA2AAAAAAAA2AIAAAA22AAAAAIAAA2AAA4A
AAAIAAA2AAAA2AAAAA2AAAAAAA2AAAA2AAAAAAAA2A2AAAA22AAAAA4AAA2AAA4A
AAAIAAA2AAAA2AAAAA2AAAAAAA2AAAA2AAAAAAAA2AAAAAA22AAAAA4AAA2AAA4A
AAAIAAA2IAAA2AAAAA2AAAAAAA2AAAA2AAAAAAAA2AAAAAA22AAAAA4AAA2AAA4A
AAAIAAA2IAAA2AAAAA2AAAAAAA2AAAA2AAAAAAAA2AAAAAA22AAAAA4AAA2AAA4I
AAAIAAA2IAAA2AAAAA2AAAAAAA2AAAAAAAAAAAAA2AAAAAA22AAAAA4AAA2AAA4I
AAAIAAA2IAAA2AAAAA2AIAAAAA2AAAAAAAAAAAAA2AAAAAA22AAAAA4AAA2AAA4I
AAAIAAA2IAAAAAAAAA2A4AAAAA2AAAAAAAAAAAAA2AAAAAA22AAAAA4AAA2AAA4I
AAAIAAA2IAAAAAAAAA2AAAAAAA2AAAAAAAAAAAAA2AAAAAA22AAAAA4AAA2AAA4I
AAAIAAA2IAAAAAAAAA2AAAAAAA2AAAAAAAAAAAAAAAAAAAA22AAAAA4AAA2AAA4I
AAAIAAA2IAAAAAAAAA2AAAAAAA2AAAAAAAAAAAAAAAAAAAA22AAAAA4AAA2AAA44
AAAIAAA2IAAAAAAAAA2AAAAAAA2AAAAAAAAAAAAAAAAAAAA22AAAAA2AAA2AAA24
AAAIAAA2IAAAAAAAAA2AAAAAAA2AAAAAAAAAAAAAAAAAAAA22AAAAAAAAA2AAA22
AAAIAAA2IAAAAAAAAA2AAAAAAA2AAAAAAAAAAAAAAAAAAAA22AAAAAAAAA2AAAA2
AIAIAAA2IAAAAAAAAA2AAAAAAA2AAAAAAAAAAAAAAAAAAAA22AAAAAAAAA2AAAA2
AIAIAAA2IAAAAAAAAA2AAAAAAA2AAAAAAAAAIAAAAAAAAAA22AAAAAAAAA2AAAA2
AIAIAAA2IAAAAAAAAA2AAAAAAA2AAAAAAAAAIAIAAAAAAAA22AAAAAAAAA2AAAA2
AIAIAAA2IAAAAAAAAA2AAAAAAA2AAAAAAAAAIAIAAAAAAAA22AAAAAIAAA2AAAA2
AIAIAAA2IAAAAAAAAA2AAAAAAA2AAAAAAAAAIAIAAAAAAAA22AAAAAIAAA2AAAI2
AIAIAAA2IAAAAAAAAA2AAAAAAA2AAAAAAAAA2AIAAAAAAAA22AAAAAIAAA2AAAI2
AIAIAAA2IAAAAAAAAA2AAAAAAA2AAAAAAAAA2AIAAAAAAAA22AAAAA4AAA2AAAI2
AIAIAAA2IAAAAAAAAA2AAAAAAA2AAAAAAAAA2AIAAAAAAAA22AAAAA4AAA2AAAA2
AIAIAAA2IAAAAAAAAA2AAAAAAA2AAAAAAAAA2AIAAAAAAAA22AAAAA4AAA2AAAI2
AIAIAAA2IAAAAAIAAA2AAAAAAA2AAAAAAAAA2AIAAAAAAAA22AAAAA4AAA2AAAI2
AIAIAAA2IAAAAAAAAA2AAAAAAA2AAAAAAAAA2AIAAAAAAAA22AAAAA4AAA2AAAI2
AIAIAAA2IAAAAAAAAA2AAAAAAA2AAAAAAAAA2AAAAAAAAAA22AAAAA4AAA2AAAI2
AIAIAAA24AAAAAAAAA2AAAAAAA2AAAAAAAAA2AAAAAAAAAA22AAAAA4AAA2AAAI2
AIAIAAA24AAAAAAAAA2AAAAAAA2AAAAAAAAA2AAAAAAAAAA22AAAAA4AAA2AAA42
AIAIAAA24AAAAAAAAA2AAAAAAA2AAAAAAAAA2AAAAAIAAAA22AAAAA4AAA2AAA42
AIAIAAA24AAAAAAAAA2AAIAAAA2AAAAAAAAA2AAAAAIAAAA22AAAAA4AAA2AAA42
AIAIAAA24AAAAAAAAA2AA4AAAA2AAAAAAAAA2AAAAAIAAAA22AAAAA4AAA2AAA42
AIAIAAA24AAAAAAAAA2AA2AAAA2AAAAAAAAA2AAAAAIAAAA22AAAAA4AAA2AAA42
AIAIAAA24AAAAAAAAA2AA2AAAA2AAAAAAAAA2AAAAAIAAAA22AAAAA4AAA2AAAA2
AIAIAAA24AAAAAAAAA2AA2AAAA2AAAAAAAAA2AAAAAIAAAA22AAAAA4AAA2AAAI2
AIAIAAA24AAAAAAAAA2AA2AAAA2AAAAAAAAA2AAAAAAAAAA22AAAAA4AAA2AAAI2
AIAIAAA24AAAAAAAAA2AA2AAAA2AAAAAAAAA2AAAAAAAAAA22AAAAA4AAA2IAAI2
AIAIAAA24AAAAAAAAA2AA2AAAA2AAAAAAAAA2AAIAAAAAAA22AAAAA4AAA2IAAI2
AIAIAAA24AAAAAAAAA2AAAAAAA2AAAAAAAAA2AAIAAAAAAA22AAAAA4AAA2IAAI2
AIAIAAA24AAAAAAAAA2AAAAAAAAAAAAAAAAA2AA4AAAAAAA22AAAAA4AAA2IAAI2
AIAIAAA24AAAAAAAAA2AAAAAAAAAAAAAAAAA2AA4AAAAAAA22AAAAA2AAA24AA42
AIAIAAA24AAAAAAAAA2AAAAAAAAAAAAAAAAA2AA4AAAAAAA22AAAAA2AAA24AAA2
AIAIAAA24AAAAAAAAA2AAAAAAAAAAAAAAAAA2AA4AAAAAAA22AAIAA2AAA24AAA2
AAAIAAA24AAAAAAAAA2AAAAAAAAAAAAAAAAA2AA4AAAAAAA22AAIAA2AAA24AAA2
AAAAAAA22AAAAAAAAA2AAAAAAAAAAAAAAAAA2AA4AAAAAAA22AAIAA2AAA24AAA2
AAAAAAA22AAAAAAAAA2AAAAAAAAAAAAAAAAA2AA4AAAAAAA22AA4AA2AAA24AAA2
AAAAAAA22AAAAAAAAA2AAAAAAAAAAAAAAAAA2AA4AAIAAAA22AA4AA2AAA24AAA2
AIAAAAA22AAAAAAAAA2AAAAAAAAAAAAAAAAA2AA4AAIAAAA22AA4AA2AAA24AAA2
AIAAAAA22AAAAAAAAA2AAAAAAAAAAAAAAAAA2AA4AAAAAAA22AA4AA2AAA24AAA2
A4AAAAA22AAAAAAAAA2AAAAAAAAAAAAAAAAA2AA4AAAAAAA22AA4AA2AAA24AAA2
A4AAAAA22AAAAAAAAA2AAAAAAAAAAAAAAAAA2AA4AAAAAAA22AAAAA2AAA24AAA2
AAAAAAA22AAAAAAAAA2AAAAAAAAAAAAAAAAA2AA4AAAAAAA22AAAAA2AAA24AAA2
AAAAAAA22AAAAAAAAA2AAAAAAAAAAAAAAAAA2AA4AAAAAAA22AAAIA2AAA24AAA2
AAAAAAA22IAAAAAAAA2AAAAAAAAAAAAAAAAA2AA4AAAAAAA22AAAIA2AAA24AAA2
AAAAAAA22IAAAAAAAA2AAAAAAAAAAAAAAAAA2AA4AAAAAAA22AAAIA2AAA24AAAA
AAAAAAA22IAAAAAAAA2AAAAAAAAAAAAAAAAA2AA4AAAAAAA22AAA4A2AAA24AAAA
AAAAAAA22IAAAAAAAAAAAAAAAAAAAAAAAAAA2AA4AAAAAAA22AAA4A2AAA24AAAA
AAAAAAA22IAAAAAAAAAAAAAAAAAAAAAAAAAA2AA2AAAAAAA22AAA4A2AAA24AAAA
AAAAAAA22IAAAAAAAAAAAAAAAAAAAAAAAAAAAAA2AAAAAAA22AAA4A2AAA24AAAA
AAAAAAA22IAAAAAAAAAAAAAAAAAAAAAAAAAAAAA2AAAAAAAA2AAA2A2AAA24AAAA
AAAAAAA22IAAAAAAAAAAAAAAAAAAAAAAAAAAAAA2AAAAAAIA2AAA2A2AAA24AAAA
AAAAAAA22IAAAAIAAAAAAAAAAAAAAAAAAAAAAAA2AAAAAAIA2AAA2A2AAA24AAAA
AAAAAAA22IAAAAIAAAAAAIAAAAAAAAAAAAAAAAA2AAAAAAIA2AAA2A2AAA24AAAA
AAAAAAA22IAAAAIAAAAAAIAAAAIAAAAAAAAAAAA2AAAAAAIA2AAA2A2AAA24AAAA
AAAAAAA22IAAAAIAAAAAAAAAAA2AAAAAAAAAAAA2AAAAAAIA2AAA2A2AAA24AAAA
AAAAAAA22IAAAAIAAAAAAAAAAA2AAAAAAAAAAAA2AAAAAA2A2AAA2A2AAA24AAAA
AAAAAAA224AAAA4AAAAAAAAAAA2AAAAAAAAAAAA2AAAAAA2A2AAA2A2AAA24AAAA
AAAAAAA22AAAAA2AAAAAAAAAAA2AAAAAAAAAAAA2AAAAAA2A2AAA2A2AAA24AAAA
AAAAAAA22AAAAAAAAAAAAAAAAA2AAAAAAAAAAAA2AAAAAA2A2AAA2A2AAA24AAAA
AAAAAAA22AAAAAAAAAAAAAAAAA2AAAAAAAAAAAAAAAAAAA2A2AAA2A2AAA24AAAA
AAAAAAA22AAAAAAAAAAAAAAAAA2AAAAIAAAAAAAAAAAAAA2A2AAA2A2AAA24AAAA
AAAAAAA22AAAAAAAAAAAAAAAAA2AAAAIAAAAAAAAAAIAAA2A2AAA2A2AAA24AAAA
AAAAAAA22AAAAAAAAAAAAAAAAA2AAAAIAAAAAAAAAAIAAA2A2AAA2A2AAA24AAAI
AAAAAAA22IAAAAAAAAAAAAAAAA2AAAAIAAAAAAAAAAIAAA2A2AAA2A2AAA24AAAI
AAAAAAA22IAAAAAAAAAAAAAAAA2AAAAIAAAAAAAAAAAAAA2A2AAA2A2AAA24AAAI
AAAAAAA22IAAAAAAAAAAAAAAAA2AAAA4AAAAAAAAAAAAAA2A2AAA2A2AAA24AAAI
AAAAAAA22IAAAAAAAAAAAAAAAA2AAAA2AAAAAAAAAAAAAA2A2AAA2A2AAA24AAAI
AAAAAAA22IAAAAAAAAAAAAAAAA2AAAA2AAAAAAAAAAAAAA2A2AAA2A2AAA24AAA2
AAAAAAA22IAAAAAAAAAAAAAAAA2AAAA2AAAAAAAAAAAAAA2A2AAA2A2AAA24AAAA
AAAAAAA22IAAAAAAAAAAAAAAAA2AAAI2AAAAAAAAAAAAAA2A2AAA2A2AAA24AAAA
AAAAAAA22IAAAAAAAAAAAAAAAA2AAA42AAAAAAAAAAAAAA2A2AAA2A2AAA24AAAA
AAAAAAA22IAAAAAAAAAAAAAAAA2AAA4AAAAAAAAAAAAAAA2A2AAA2A2AAA24AAAA
AAAAAAA22AAAAAAAAAAAAAAAAA2AAA4AAAAAAAAAAAAAAA2A2AAA2A2AAA24AAAA
AAAAAAA22AAAAAAAAAAAAAAAAA2AAA4AAAAAAAAAAAAAAA2A2AAA2A2AAA22AAAA
AAAAAAA22AAAAAAAAAAAAAAAAA2AAA4AAAAAAAAAAAAAAA2A2AAA2AAAAA22AAAA
AAAAAAA22AAAAAAAAAAAAAAAAA2AAA4AAAAAAAAAAAAAAA2A2AAA2AAAAA2AAAAA
AAAAAAA22AAAAAAAAAAAIAAAAA2AAA4AAAAAAAAAAAAAAA2A2AAA2AAAAA2AAAAA
AAAAAAAA2AAAAAAAAAAAIAAAAA2AAA4AAAAAAAAAAAAAAA2A2AAA2AAAAA2AAAAA
AAAAAAAA2AAAAAAAAAAA4AAAAA2AAA4AAAAAAAAAAAAAAA2A2AAA2AAAAA2AAAAA
AAAAAAAA2AAAAAAAAAAAAAAAAA2AAA4AAAAAAAAAAAAAAA2A2AAA2AAAAA2AAAAA
AAAAAAAI2AAAAAAAAAAAAAAAAA2AAA4AAAAAAAAAAAAAAA2A2AAA2AAAAA2AAAAA
AAAAAAAI2AAAAAAAAAAAIAAAAA2AAA4AAAAAAAAAAAAAAA2A2AAA2AAAAA2AAAAA
AAAAAAAI2AAAAAAAAAAAIAAAAA2AAA4AAAAAAAAAAAAAAA2A2AAA2AIAAA2AAAAA
AAAAAAAI2AAAAAIAAAAAIAAAAA2AAA4AAAAAAAAAAAAAAA2A2AAA2AIAAA2AAAAA
AAAAAAAI2AAAAAIAAAAA2AAAAA2AAA4AAAAAAAAAAAAAAA2A2AAA2AIAAA2AAAAA
AAAAAAAI2AAAAAIAAAAA2AAAAA2AAA4AAAAAAAAAAAAAAA2A2AAA2A4AAA2AAAAA
AAAAAAAI2AAAAA2AAAAA2AAAAA2AAA4AAAAAAAAAAAAAAA2A2AAA2A4AAA2AAAAA
AAAAAAAI2AAAAA2AAIAA2AAAAA2AAA4AAAAAAAAAAAAAAA2A2AAA2A4AAA2AAAAA
AAAAAAAI2AAAAA2AAIAA2IAAAA2AAA4AAAAAAAAAAAAAAA2A2AAA2A4AAA2AAAAA
AAAAAAAI2AAAAA2AAIAA2IAAAA2AAA4IAAAAAAAAAAAAAA2A2AAA2A4AAA2AAAAA
AAAAAAAI2AAAAA2AAIAA2IAAAA2AAA4IAAAAAAAAAAIAAA2A2AAA2A4AAA2AAAAA
AAAAAAAI2AAAAA2AAIAA2IAAAA2AAA4IAAAAAAAAAAIAIA2A2AAA2A4AAA2AAAAA
AAAAAAAI2AAAAA2AAIAA2AAAAA2AAA44AAAAAAAAAAIAIA2A2AAA2A4AAA2AAAAA
AAAAAAAI2AAAAA2AAIAA2AAAAA2AAA44AAAAAAAAAAIAIA2A2AAA2A4AAAAAAAAA
AAAAAAAI2AAAAA2AAIAA2AAAAA2AAA44AAAAAAAAAAAA2A2A2AAA2A4AAAAAAAAA
AAAAAAAI2AAAAA2AAIAA2AAAAA2AAA44AAAAAAAAAAAA2A2A2AAA2A4AAAIAAAAA
AAAAAAAI2AAAAA2AAIAA2AAAAA2AAA44AAAAAAAAAAIA2A2A2AAA2A4AAAIAAAAA
AAAAAAAI2AAAAA2AAIAA2AAAAA2AAA44AAAAAAAAAAIAAA2A2AAA2A4AAA4AAAAA
AAAAAAAI2AAAAA2AAIAA2AAAAA2AAA44AAAAAAAAAAIAIA2A2AAA2A4AAA4AAAAA
AAAAAAAI2AAAAA2AAIAAAAAAAA2AAA44AAAAAAAAAAIAIA2A2AAA2A4AAA4AAAAA
AAAAAAAI2AAAAA2AAIAAAAAAAA2AAA44AAAAAAAAAAIAIA2A2AAA2A4AAA4AAAIA
AAAAAAAI2AAAAA2AAIAAAAAAAA2AAA44AAAAAAAAAAAA2A2A2AAA2A4AAA4AAAIA
AAAAAAAI2AAAAA2AAIAAAAAAAA2AAA44AAAAAAAAAAAA2A2A2AAA2A4AAA4AAA2A
AAAAAAA22AAAAA2AAIAAAAAAAA2AAA44AAAAAAAAAAAA2A2A2AAA2A4AAA4AAA2A
AAAAAAA22AAAAA2AA4AAAAAAAA2AAA44AAAAAAAAAAAA2A2A2AAA2A4AAA4AAA2A
AAAAAAA22AAAAA2AAAAAAAAAAA2AAA44AAAAAAAAAAAA2A2A2AAA2A4AAA4AAA2A
AAAAAAA22AAAAA2AAAAAAAAAAA2AAA44AAAAAAAAAAAA2A2A2AAA2A4AAA4AAAAA
AAAAAAA22AAAAA2AAAAAAAIAAA2AAA44AAAAAAAAAAAA2A2A2AAA2A4AAA4AAAAA
AAAAAAA22AAAAA2AAAAAAA4AAA2AAA44AAAAAAAAAAAA2A2A2AAA2A4AAA4AAAAA
AAAAAAA22AAAAAAAAAAAAA4AAA2AAA44AAAAAAAAAAAA2A2A2AAA2A4AAA4AAAAA
AAAAAAA22AAAAAAAAAAAAA2AAA2AAA44AAAAAAAAAAAA2A2A2AAA2A4AAA4AAAAA
AAAAAAA22AAAAAAAAAAAAA2AAA2AAA24AAAAAAAAAAAA2A2A2AAA2A4AAA4AAAAA
AAAAAAA22AAAAAAAAAAAAA2AAA2AAA2AAAAAAAAAAAAA2A2A2AAA2A4AAA4AAAAA
AAAAAAA22AAAAAAAAAAAAA2AAA2AAA2AAAAAAIAAAAAA2A2A2AAA2A4AAA4AAAAA
AAAAAAA22AAAAAAAAAAAAA2AAA2AAA2AAAAAAIAAAAIA2A2A2AAA2A4AAA4AAAAA
AAAAAAA22AAAAAAAAAAAAA2AAA2AAA2AAAAAAIAAAAIA2A2I2AAA2A4AAA4AAAAA
AAAAAAA22AAAAAAAAAAAAA2AAA2AAA2AAAAAAIAAAAIA2A2I2AAA2A4AAA4AAAAI
AAAAAAA22AAAAAAIAAAAAA2AAA2AAA2AAAAAAIAAAAIA2A2I2AAA2A4AAA4AAAAI
AAAAAAA22AAAAAAIAAAAAA2AAA2AAA2AAAAAA4AAAAIA2A2I2AAA2A4AAA4AAAAI
AAAAAAA22AAAAAAIAAAAAA2AAA2AAA2AAAAAAAAAAA2A2A242AAA2A4AAA4AAAAI
AAAAAAA22AAAAAAIAAAAAA2AAA2AAA2AAAAAAAAAAAAA2A222AAA2A4AAA4AAAAI
AAAAAAA22AAAAAAIAAAAAA2AAA2AAA2AAAAAAAAAAAAA2A2I2AAA2A4AAA4AAAAI
AAAAAAA22AAAAAA2AAAAAA2AAA2AAA2AAAAAAAAAAAAA2A2I2AAA2A4AAA4AAAAI
AAAAAAA22AAAAAA2AAAAAA2AAA2AAAAAAAAAAAAAAAAA2A2I2AAA2A4AAA4AAAAI
AAAAAAA22AAAAAA2AAAAAA2AAA2AAAAAAAAAAAAAAAAA2A222AAA2A4AAA4AAAAI
AAAAAAA22AAAAAA2AAAAAA2AAA2AAAAAAAAAAAAAAAAAAA222AAA2A4AAA4AAAAI
AAAAAAA22AAAAAA2AAAAAA2AAA2AAAIAAAAAAAAAAAAAAA222AAA2A4AAA4AAAAI
AAAAAAA22AAAAAA2AAAAAA2AAA2AAAIAAAAAAAAAAAAAIA222AAA2A4AAA4AAAAI
AAAAAAA22AAAAAA2AAAAAA2AAA2AAAIAAAAAAAAAAAAAAA222AAA2A4AAA4AAAAI
AAAAAAA22AAAAAAIAAAAAA2AAA2AAAIAAAAAAAAAAAAAAA222AAA2A4AAA4AAAAI
AAAAAAA22AAAAAAAAAAAAA2AAA2AAA4AAAAAAAAAAAAAAA222AAA2A4AAA4AAAAI
AAAAAAA22AAAAAAAAAAAAA2AAA2AAA4AAAAAAAAAAAAAIA222AAA2A4AAA4AAAAI
AAAAAAA22AAAAAAAAAAAAA2AAA2AAA4AAAAAAAAAAAAAIA222AAA2A4AAA4AAAAA
AAAAAAA22AAAAAAAAAAAAA2AAA2AAA4AAAAAAAAAAAAA2A222AAA2A4AAA4AAAAA
AAAAAAA22AAAAAAAAAAAAA2AAA2AAA4AAAAAAAAAAAAI2A222AAA2A4AAA4AAAAA
AAAAAAA22AAAAAAAAAAAAA2AAA2AAA4AAAAAAAAAAAAI2A222AAA2A4AAA4IAAAA
AAAAAAA22AAAAAAAAAAAAA2AAA2AAA4AAAAAAAAAIAAI2A222AAA2A4AAA4IAAAA
AAAAAAA22AAAAAAAAAAAAI2AAA2AAA4AAAAAAAAAIAAI2A222AAA2A4AAA4IAAAA
AAAAAAA22AAAAAAAAIAAAI2AAA2AAA4AAAAAAAAAIAAI2A222AAA2A4AAA4IAAAA
AAAAAAA22AAAAAAAAAAAA22AAA2AAA4AAAAAAAAAIAAI2A222AAA2A4AAA4IAAAA
AAAAAAA22AAAAAAAAAAAA22AAA2AAA4AAAAAAAAAIAAI2A222AAA2A4AAA44AAAA
AAAAAAA22AAAAAAAAAAAA22AAA2AAA4AAAAAAAAAIAAI2A222AAA2AAAAA24AAAA
AAAAAAA22AAAAAAAAAAAA22AAA2AAA4AAAAAAAAAIAAI2A222AAA2AAAAAI4AAAA
AAAAAAA22AAAAAAAAAAAA22AAA2AAA4AAAAAAAAAIAAI2A222AAA2AAAAAI4AAAI
AAAAAAA22AAAAAAAAIAAA22AAA2AAA4AAAAAAAAAIAAI2A222AAA2AAAAAI4AAAI
AAAAAAA22AAAAAAAA4AAA22AAA2AAA4AAAAAAAAAIAAI2A222AAA2AAAAAI4AAAI
AAAAAAA22AAAAAAAA4AAA22AAA2AAA4AAAAAAAAAIAA42A222AAA2AAAAAI4AAAI
AAAAAAA22AAAAAAAA4AAA22AAA2AAA4AAAAAAAAAIAA42A222AAA2AAAAAI4AAAA
AAAAAAA22AAAAAAAA4AAA22AAA2AAA4IAAAAAAAAIAA42A222AAA2AAAAAI4AAAA
AAAAAAA22AAAAAAAA4AAAA2AAA2AAA44AAAAAAAAIAA42A222AAA2AAAAAI4AAAA
AAAAAAA22AAAAAAAA4AAAA2AAA2AAA4AAAAAAAAA4AA42A222AAA2AAAAAI4AAAA
AAAAAAA22AAAAAAAA4AAAA2AAA2AAA4AAAAAAAAA4AA42A222AAA2AAAAA44AAAA
AAAAAAA22AAAAAAAAAAAAA2AAA2AAA4AAAAAAAAA4AA42A222AAA2AAAAA44AAAA
AAAAAAA22AAAAAAAAAAAAA2AAA2AAA4AAAAAAAAA4AA42AA22AAA2AAAAA44AAAA
AAAAAAA22AAAAAAAAIAAAA2AAA2AAA4AAAAAAAAA4AA42AA22AAA2AAAAA44AAAA
AAAAAAA22AAAAAAAAIAAAA2AAA2AAA4IAAAAAAAA4AA42AA22AAA2AAAAA44AAAA
AAAAAAA22AAAAAAAAAAAAA2AAA2AAA44AAAAAAAA4AA42AA22AAA2AAAAA44AAAA
AAAAAAA22AAAAAAAAAAAAA2AAA2AAA44AAAAAAAA4AA42AA22AAAAAAAAA44AAAA
AAAAAAA22AAAAAAAAAAAAAAAAA2AAA44AAAAAAAA4AA42AA22AAAAAAAAA44AAAA
AAAAAAA22AAAAAAAAAAAAAAAAA2AAA44AAAAAAAA2AA42AA22AAAAAAAAA44AAAA
AAAAAAA22AAAAAAAAAAAAAAAAA2AAA44AAAAAAAA2AA22AA22AAAAAAAAA44AAAA
AAAIAAA22AAAAAAAAAAAAAAAAA2AAA44AAAAAAAA2AA22AA22AAAAAAAAA44AAAA
AAAIAAA22AAAAAAAAAAAAAAAAA2AAA44AAAAAAAA2AA22AA22AAAAAAAAA24AAAA
AAAIAAA22AAAAAAAAAAAAAAAAA2AAA44AIAAAAAA2AA22AA22AAAAAAAAA24AAAA
AAA2AAA22AAAAAAAAAAAAAAAAA2AAA44AIAAAAAA2AA22AA22AAAAAAAAA24AAAA
AAA2AAA22AAAAAAAAAAAAAAAAA2AAA44AIAAAAAA2AA2AAA22AAAAAAAAA24AAAA
AAA2AAA22AAAAAAAAAAAAAAAAA2AAA44AIAAAAAAAAA2AAA22AAAAAAAAA24AAAA
AAA2AAA22AAAAAAAAAAAAAAAAA2AAA44A4AAAAAAAAA2AAA22AAAAAAAAA24AAAA
AAA2AAA22AAAAAAAAAAAAAAAAAAAAA24A2AAAAAAAAA2AAA22AAAAAAAAA24AAAA
AAA2AAA22AAAAAAAAAAAAAAAAAAAAA24A2AAAAAAAAI2AAA22AAAAAAAAA24AAAA
AAA2AAA22AAAAAAAAAAAAAAAAAAAAA24A2AAAAAAAA22AAA22AAAAAAAAA24AAAA
AAA2AAA22AAAAAAAAAAAAAAAAAAAAA24A2AAAAAAAA22AAA22AAAAAAAAA24AIAA
AAA2AAA22AAAAAAAAAAAAAAAAAAAAA24A2AAAAAAAA22AAA22AAAAAAAAA22A4AA
AAA2AAA22AAAAAAAAAAAAAAAAAAAAA24A2AAAAAAAA22AAA22AAAAIAAAA22A4AA
AAA2AAA22AAAAAAAAAAAAAAAAAAAAA24A2AAAAAAAA22AAA22AAAAIAAAA2IA4AA
AAA2AAA22AAAAAAAAAAAAAAAAAAAAA24A2AAAAAAAAA2AAA22AAAAIAAAA2IA4AA
AAA2AAA22AAAAAAAAAAAAAAAAAAAAA24A2AAAAAAAAA2AAA22AAAA4AAAA2IA4AA
AAA2AAA22AAAAAAAAAAAAIAAAAAAAA24A2AAAAAAAAA2AAA22AAAA4AAAA2IA4AA
AAA2AAA22AAAAAAAAAAAA2AAAAAAAA24A2AAAAAAAAA2AAA22AAAA4AAAA2IA4AA
AAA2AAA22AAAAAAAAAAAAAAAAAAAAA24A2AAAAAAAAA2AAA22AAAA4AAAA2IA4AA
AAAAAAA22AAAAAAAAAAAAAAAAAAAAA24A2AAAAAAAAA2AAA22AAAA4AAAA2IA4AA
AAAAAAA22AAAAAAAAAAAAAAAAAAAAA24A2AIAAAAAAA2AAA22AAAA4AAAA2IA4AA
AAAAAAA22AAAAAAAAAAAAAAAAAAAAA24A2A4AAAAAAA2AAA22AAAA4AAAA2IA4AA
AAAAAAA22AAAAAAAAAAAAAAAAAAAAA24A2A4AAAAAAA2AAA22AAAA4AAAA24A4AA
AAAAAAA22AAAAAAAAAAAAAAAAAAAAA24A2A4AAAAAAA2AAA22AAAA4AAAA22A4AA
AAAAAAA22AAAAAAAAAAAIAAAAAAAAA24A2A4AAAAAAA2AAA22AAAA4AAAA22A4AA
AAAAAAA22AAAAAAAAAAAIAAAAAAAAA24A2A4AAAAAAA2AAA22AAAA4AAAA2IA4AA
AAAAAAA22AAAAAAAAAAAIAAAAAAAAA24A2A4AAAAAAA2AAA22AAAA4AAAA2IA4IA
AAAAAAA22AAAAAAAAAAAIAAAAAAAAA24A2A4AAAAAAI2AAA22AAAA4AAAA2IA4IA
AAAAAAA22AAAAAIAAAAAIAAAAAAAAA24A2A4AAAAAAI2AAA22AAAA4AAAA2IA4IA
AAAAAAA22AAAAAIAAAAAIAAAAAAAAA24A2A4AAAAAAI2AAA22AAAA4AAAA2IA4II
AAAAAAA22AAAAAIAAAAAIAAAAAAAAA24A2A4AAAAAAA2AAA22AAAA4AAAA2IA4II
AAAAAAA22AAAAA2AAAAA4AAAAAAAAA24A2A4AAAAAAA2AAA22AAAA4AAAA2IA4II
AAAAAAA22AAAAAAAAAAA2AAAAAAAAA24A2A4AAAAAAA2AAA22AAAA4AAAA2IA4II
AAAAAAA22AAAAAAAAAAA2AAAAAAAAA24A2A4AAAAAAA2AAA22AAAA4AAAA2IA4A2
AAAAAAA22AAAAAAAAAAA2IAAAAAAAA24A2A4AAAAAAA2AAA22AAAA4AAAA2IA4A2
AAAAAAA22AAAAAAAAAAAIIAAAAAAAA24A2A4AAAAAAA2AAA22AAAA4AAAA2IA4A2
AAAAAAA22AAAAAAIAAAAIIAAAAAAAA24A2A4AAAAAAA2AAA22AAAA4AAAA2IA4A2
AAAAAAA22AAAAAAIAAAAIIAAAAAAAA24A2A4AAAAAAI2AAA22AAAA4AAAA2IA4A2
AAAAAAA22AAAAAA4AAAA44AAAAAAAA24A2A4AAAAAAI2AAA22AAAA4AAAA2IA4A2
AAAAAAA22AAAAAA4AAAA4AAAAAAAAA24A2A4AAAAAAI2AAA22AAAA4AAAA2IA4A2
AAAAAAA22AAAAAA4AAAA4AAAAAAAAA24A2A4AAAAAAI2AAA22AAAA4AAAA2IA4AA
AAAAAAA22AAAAAA4AAAA4AAAAAAAAA2AA2A4AAAAAA42AAA22AAAA4AAAA2IA4AA
AAAAAAA22AAAAAA4AAAA4AAAAAAAAA2AA2A4AAAAAA4AAAA22AAAA4AAAA24A4AA
AAAAAAA22AAAAAA4AAAA4AAAAAAAAA2AA2A4AAAAAA4AAAA22AAAA2AAAA24A4AA
AAAAAAA22AAAAAA4AAAA4AAAAAAAAA2IA2A4AAAAAA4AAAA22AAAA2AAAA24A4AA
AAAAAAA22AAAAAA4AAAA4AAAAAAAAA2IA2A4AAAAAA4AAAA22AAAAIAAAA24A4AA
AAAAAAA22AAAAAA4AAAA2AAAAAAAAA24A2A4AAAAAA4AAAA22AAAAIAAAA24A4AA
AAAAAAA22AAAAAA4AAAA2AAAAAAAAA24A2A4AAAAAA4AAAA22AAAAAAAAA22A4AA
AAAAAAA22AAAAAA4AAAA2AAAAAAAAA24A2A4AAAAAA4AAAA22AAAAAAAAA2IA4AA
AAAAAAA22AAAAAA4AAAA2AAAAAAAAA24A2A4AAAAAA4AAAA22AAAAAAAAA22A4AA
AAAAAAA22AAAAAA4AAAA2AAAAAAAAA22A2A2AAAAAA4AAAA22AAAAAAAAA22A4AA
AAAAAAA22AAAAAA4IAAA2AAAAAAAAA22A2A2AAAAAA4AAAA22AAAAAAAAA22A4AA
AAAAAAA22AAAAAA4IAAA2AAAAAAAAA22A2A2AAAAAAAAAAA22AAAAAAAAA22A4AA
AAAAAAA22AAAAAA4IAAA2AAAAAAAAA22A2A2AAAAAAAAAAA22AAAAAAAAA22A2AA
AAAAAAA22AAAAAA4IAAA2AAAAAAAAA2IA2A2AAAAAAAAAAA22AAAAAAAAA22A2AA
AAAAAAA22AAAAAA4IAAA2AAAAAAAAA2IA2AIAAAAAAAAAAA22AAAAAAAAA22A2AA
AAAAAAA22AAAAAA4IAAA2AAAAAAAAA2IA2AIAAAAAAAAAAA22AAAIAAAAA22A2AA
AAAAAAA22AAAAAA44AAA2AAAAAAAAA2IA2AIAAAAAAAAAAA22AAAIAAAAA22A2AA
AAAAAAA22AAAAAA44AAAAAAAAAAAAA2IA2A4AAAAAAAAAAA22AAAIAAAAA22A2AA
AAAAAAA22AAAAAA44AAAAAAAAAAAAA24A2A4AAAAAAAAAAA22AAAIAAAAA22A2AA
AAAAAAA22AAAAAA44AAAAAAAAAAAAA24A2A4AAAAAAAAAAA22AAA4AAAAA22A2AA
AAAAAAA22AAAAAA44AAAAAAAAAAAAA24A2A4AAAAAAAAAAA22AAA4AAAAA2AA2AA
AAAAAAA22AAAAAA44AAAAAAAAAAAAA24A2A4AAAAAAAAAAA22AAA4AAAAA2IA2AA
AAAAAAA22AAAAAA44AAAAAAAAAAAAA24A2A4AAAAAAAAAAA2AAAA2AAAAA2IA2AA
AAAAAAA22AAAAAA44AAAAAAAAAAAAA24A2A4AAAAAAAAAAA2IAAA2AAAAA2IA2AA
AAAAAAA22AAAAAA44AAAAAAAAAAAAA24A2A4AAAAAAAAAAA22AAA2AAAAA2IA2AA
AAAAAAA22AAAAAA44AAAAAAIAAAAAA24A2A4AAAAAAAAAAA22AAA2AAAAA2IA2AA
AAAAAAA22AAAAAA44AAAAIAIAAAAAA24A2A4AAAAAAAAAAA22AAA2AAAAA2IA2AA
AAAAAAA22AAAAAA44AAAAAA2AAAAAA24A2A4AAAAAAAAAAA22AAA2AAAAA2IA2AA
AAAAAAA22AAAAAA22AAAAAA2AAAAAA24A2A4AAAAAAAAAAA22AAA2AAAAA2IA2AA
AAAAAAA22AAAAAA2AAAAAAA2AAAAAA24A2A4AAAAAAAAAAA22AAA2AAAAA2IA2AA
AAAAAAA22AAAAAA2AAAAAAA2AAAAAA24A2A4AAAAAAAAAAAA2AAA2AAAAA24A2AA
AAAAAAA22AAAAAA2AAAAAAA2AAAAAA24A2A4AAAAAAAAAAAA2AAA2AAAAA22A2AA
AAAAAAA22AAAAAA2AAAAAAA2AAAAAA24A2A4AAAAAAAAAAAA2AAA2AAAAI22A2AA
AAAAAAA22AAAIAA2AAAAAAA2AAAAAA24A2A4AAAAAAAAAAAA2AAA2AAAAI22A2AA
AAAAAAA22AAAIAA2AAAAAIA2AAAAAA24A2A4AAAAAAAAAAAA2AAA2AAAAI22A2AA
AAAAAAA22AAA4AA2AAAAA4A2AAAAAA24A2A4AAAAAAAAAAAA2AAA2AAAAI22A2AA
AAAAAAA22AAA4AAAAAAAA4A2AAAAAA24A2A4AAAAAAAAAAAA2AAA2AAAAI22A2AA
AAAAAAA22AAA4AAAAAAAAAA2AAAAAA24A2A4AAAAAAAAAAAA2AAA2AAAAI22A2AA
AAAAAAA22AAA4AAAAAAAAAAAAAAAAA24A2A4AAAAAAAAAAAA2AAA2AAAAI22A2AA
AAAAAAA22AAA4AAAAAAAAAAAAAAAAA2AA2A2AAAAAAAAAAAA2AAA2AAAAI22A2AA
AAAAAAA22AAA4AAAAAAAAAAAAAAAAA2AA2A2AAAAAAAAAAAA2AAA2AAAA422A2AA
AAAAAAA22AAA4AAIAAAAAAAAAAAAAA2AA2A2AAAAAAAAAAAA2AAA2AAAA422A2AA
AAAAAAA22AAA4AAIAAAAAAAAAAAAAA2IA2A2AAAAAAAAAAAA2AAA2AAAA422A2AA
AAAAAAA22AAA4AAIAAAAAAAAAAAAAA24A2A2AAAAAAAAAAAA2AAA2AAAA422A2AA
AAAAAAA22AAA4AAIAAAAAIAAAAAAAA24A2A2AAAAAAAAAAAA2AAA2AAAA422A2AA
AAAAAAA22AAA4AA4AAAAAIAAAAAAAA24A2A2AAAAAAAAAAAA2AAA2AAAA422A2AA
AAAAAAA22AAA2AA4AAAAA4AAAAAAAA24A2A2AAAAAAAAAAAA2AAA2AAAA422A2AA
AAAAAAA22AAAAAA2AAAAA4AAAAAAAA24A2A2AAAAAAAAAAAA2AAA2AAAA422A2AA
AAAAAAA22AAAAAA2AAAAAAAAAAAAAA24A2A2AAAAAAAAAAAA2AAA2AAAA422A2AA
AAAAAAA22AAAAAA2AAAAAAAAAAAAAA2AA2A2AAAAAAAAAAAA2AAA2AAAA422A2AA
AAAAAAA22AAAAAA2AAAAAAAAAAAAAA2AAAA2AAAAAAAAAAAA2AAA2AAAA422A2AA
AAAAAAA22AAAAAA2AAAAAAAAAAAAAA2AAAAAAAAAAAAAAAAA2AAA2AAAA422A2AA
AAAAAAA22AAAAAA2AAAAAAAAAAAAAA2AAAAAAAAAAAAAAAAA2AAAAAAAA222A2AA
AAAAAAA22AAAAAA2AAAAAAAAAAAAAA2AAAAAAAAAAAAAAAAA2AAAAAAAA22AA2AA
AAAIAAA22AAAAAA2AAAAAAAAAAAAAA2AAAAAAAAAAAAAAAAA2AAAAAAAA22AA2AA
AAAIAAA22AAAAAAIAAAAAAAAAAAAAA2AAAAAAAAAAAAAAAAA2AAAAAAAA22AA2AA
AAAIAAA22AAAAAAIAAAAAAAAIAAAAA2AAAAAAAAAAAAAAAAA2AAAAAAAA22AA2AA
AAAIAAA22AAAAAAIAAAAAAAAIAAAAA2AAIAAAAAAAAAAAAAA2AAAAAAAA22AA2AA
AAAIAAA22AAAAAAIAAAAAAAAIAAAAA2AAIAIAAAAAAAAAAAA2AAAAAAAA22AA2AA
AAAIAAA22AAAAAAIAAAAAAAAIAAAAA2AAIAIAAAAAAAAAAAA2AAAAAAAAI2AA2AA
AAAIAAA22AAAAAAIAAAAAAAAIAAAAA2AAIAIAAAAAAAAAAAA2AAAAAAAAI2AA2AI
AAAIAAA22AAIAAAIAAAAAAAAIAAAAA2AAIAIAAAAAAAAAAAA2AAAAAAAAI2AA2AI
AAAIAAA22AAIAAAIAAAAAAAAIAAAAA2AAIAIAAAAAAAAAAAA2AAAAAAAA42AA2AI
AAAIAAA22AAIAAAIAAAAAAAAIAAAAA2AAIAIAAAAAAAAAAAA2AAAAAAAA42AA2A2
AAAIAAA22AAIAAAIAAAAAAAAIAAAAA2AAIAIAAAAAAAAAAAA2AAAAAAAA42AA2AA
AAAIAAA22AAIAAAIAAAAAAAAIAAAAA2AAIAIAAAAAAAAAAAA2AAAAAAAA42AA2AI
AAAIAAAA2AA2AAA4AAAAAAAAIAAAAA2AAIAIAAAAAAAAAAAA2AAAAAAAA42AA2AI
AAAIAAAA2AA2AAA4AAAAAAAA4AAAAA2AAIAIAAAAAAAAAAAA2AAAAAAAA42AA2AI
AAAIAAAA2AA2AAA4AAAAAAAA2AAAAA2AA4AIAAAAAAAAAAAA2AAAAAAAA42AA2AI
AAAIAAAA2AA2AAA4AAAAAAAAAAAAAA2AA4A4AAAAAAAAAAAA2AAAAAAAA42AA2AI
AAAIAAAA2AA2AAA4AAAAAAAAAAAAAA2AA4A4AAAAAAAAAIAA2AAAAAAAA42AA2AI
AAAIAAAA2AA2AAI4AAAAAAAAAAAAAA2AA4A4AAAAAAAAAIAA2AAAAAAAA42AA2AI
AAAIAAAA2AA2AAI2AAAAAAAAAAAAAA2AA4A4AAAAAAAAAIAA2AAAAAAAA42AA2AI
AAAIAAAA2AA2AAA2AAAAAAAAAAAAAA2AA4A4AAAAAAAAAIAA2AAAAAAAA42AA2AI
AAAIAAAA2AA2AAA2AAAAAAAAAAAAAA2AA4A4AAAAAAAAA2AA2AAAAAAAA42AA2AI
AAAIAAAA2AA2AAA2AAAAAAAAAAAAAA2AA4A4AAAAAAAAA2AA2AAAAAAAA22AA2A4
AAAIAAAA2AA2AAA2AAAAAAAAAAAAAA2AA4A4AAAAAAAAA2AA2AAAAAAAA22AA2A2
AAAIAAAA2AA2AAA2AAAAAIAAAAAAAA2AA4A4AAAAAAAAA2AA2AAAAAAAA22AA2A2
AAAIAAAA2AA2AAA2AAAAAIAAAAAAAA2AA4A4AAAAAAAAA2AA2AAAIAAAA22AA2A2
AAAIAAAA2AI2AAA2AAAAAIAAAAAAAA2AA4A4AAAAAAAAA2AA2AAAIAAAA22AA2A2
AAAIAAAA2AI2AAA2AIAAAIAAAAAAAA2AA4A4AAAAAAAAA2AA2AAAIAAAA22AA2A2
AAAIAAAA2AI2AAA2AIAAAIAAAAAAAA2AA4A4AAAAAAAAA2AA2AAA4AAAA22AA2A2
AAAIAAAA2AI2AAAAAIAAA2AAAAAAAA2AA4A4AAAAAAAAA2AA2AAA4AAAA22AA2A2
AAAIAAAA2AI2AAAAAIAAA2AAAAAAAA2AA4A2AAAAAAAAA2AA2AAA4AAAA22AA2A2
AAAIAAAA2AI2AAAAAIAAA2AAAAAAAA2AA2A2AAAAAAAAA2AA2AAA4AAAA22AA2A2
AAAIAAAA2AI2AAAAAIAAA2AAAAAAAA2AA2A2AAAAAAIAA2AA2AAA4AAAA22AA2A2
AAAIAAAAAA22AAAAA4AAA2AAAAAAAA2AA2A2AAAAAAIAA2AA2AAA4AAAA22AA2A2
AAAIAAAAAA22AAAAA4AAAAAAAAAAAA2AA2A2AAAAAAIAA2AA2AAA4AAAA22AA2A2
AAAIAAAAAA22AAAAA4AAAAAAAAAAAA2AA2A2AAAAAA2AA2AA2AAA4AAAA22AA2A2
AAAIAAAAAA22AAAAA4AAAAAAAAAAAA2AA2A2AAAAAA2AA2AA2AAA4AAAA22AA2AA
AAAIAAAAAA22AAAAA4AAAAAAAAAAAA2AA2A2AAAAAA2AA2AA2AAA4AAAA22AA2AI
AAAIAAAAAA22AAAAA4AAAIAAAAAAAA2AA2A2AAAAAA2AA2AA2AAA4AAAA22AA2AI
AAAIAAAAAA22AAAAA2AAAIAAAAAAAA2AA2A2AAAAAA2AA2AA2AAA4AAAA22AA2AI
AAAIAAAAAA22AAAAA2AAA2AAAAAAAA2AA2A2AAAAAA2AA2AA2AAA4AAAA22AA2AI
AAAIAAAAAA22AAAAAAAAA2AAAAAAAA2AA2A2AAAAAA2AA2AA2AAA4AAAA22AA2AI
AAAIAAAAAA22AAAAAAAAAAAAAAAAAA2AA2A2AAAAAA2AA2AA2AAA4AAAA22AA2AI
AAAIAAAAAA22AAAAAAAAAAAAAAAAAAAAA2A2AAAAAA2AA2AA2AAA4AAAA22AA2AI
AAAIAAAAAA22AAAAAAAAAAAAAAAAAAAAA2A2AAAAAAAAA2AA2AAA4AAAA22AA2AI
AAAIAAAAAA22AAAAAAAAAAAAAAAAAAAAA2A2AAAAAAAAA2AA2AAA4AAAA22AA2AA
AAAIAAAAAA22AAAAAAAAAAAAAAAAAAAAA2A2AAAAAAAAA2AA2AAA4AAAA22AA2AI
AAAIAAAAAA22AAIAAAAAAAAAAAAAAAAAA2A2AAAAAAAAA2AA2AAA4AAAA22AA2AI
AAAIAAAAAA22AAIAAAAAAAAAAAAAAAAAA2A2AAAAAAAAA2AA2AAA4AAAA22AA2AA
AAAIAAAAAA22AAIAAAAAAAAAAAAAAAAAA2A2AAAAAAIAA2AA2AAA4AAAA22AA2AA
AAAIAAAAAA22AAIAAAAAAAAAAAAAAAAAA2A2AAAAAAAAA2AA2AAA4AAAA22AA2AA
AAAIAAAAAA22AAIAAAAAAAAAAAAAAAAAA2A2AAAAAAAAA2AA2AAA4AAAA22AA2AI
AAAIAAAAAA22AAIAAAAAAAAAAAAAAAAAA2A2AAAAAAIAA2AA2AAA4AAAA22AA2AI
AAAIAAAAAA22AAIAAAAAAAAAAAAAAAAAA2A2AAAAAAIAA2AA2AAA4AAAA22AA2A4
AAAAAAAAAA22AA4AAAAAAAAAAAAAAAAAA2A2AAAAAAIAA2AA2AAA4AAAA22AA2A4
AAAAAAAAAA2AAA2AAAAAAAAAAAAAAAAAA2A2AAAAAAIAA2AA2AAA4AAAA22AA2A4
AAAAAAAAAA2AAA2AAAAAAAAAAAAAAAAAA2A2AAAAAAAAA2AA2AAA4AAAA22AA2A4
AAAAAAAAAA2AAA2AAAAAAAAAAAAAAAAAA2A2AAAAAAAAA2AA2AAA4AAAA22AA2A2
AAAAAAAAAA2AAA2AAAAAAAAAAAAAAAAAA2A2AAAAAAAAA2AA2AAA4AAAA22AA2AA
AAAIAAAAAA2AAA2AAAAAAAAAAAAAAAAAA2A2AAAAAAAAA2AA2AAA4AAAA22AA2AA
AAAIAAAAAA2AAA2AAAAAAAAAAAAAAAAAA2A2AAAAAAAAA2AA2AAA4AAAA22IA2AA
AAAIAAAAAA2AAA2AAAAAAAAAAAAAAAAAA2A2AAAAAAAAA2AA2AAA4AAAA22IA2AI
AAAIAAAAAA2AAA2AAAAIAAAAAAAAAAAAA2A2AAAAAAAAA2AA2AAA4AAAA22IA2AI
AAAIAAAAAA2AAA2AAAA4AAAAAAAAAAAAA2A2AAAAAAAAA2AA2AAA4AAAA22IA2AI
AAAIAAAAAA2AAAAAAAA4AAAAAAAAAAAAA2A2AAAAAAAAA2AA2AAA4AAAA22IA2AI
AAAIAAAAAA2AAAAAAAA4AAAAAAAAAAAAA2A2AAAAAAAAA2AA2AAA4AAAA224A2AI
AAAIAAAAAA2AAAAAAAA4AAAAAAAAAAAAA2A2AAAAAAAAA2AA2AAA4AAAA224AAA2
AAAIAAAAAA2AAAAAAAA4AAAAAAAAAAAAA2A2AAAAAAAAA2AA2AAA4AAAA224AAAA
AAAIAAAAAA2AAAAAAAA2AAAAAAAAAAAAA2A2AAAAAAAAA2AA2AAA4AAAA224AAAA
AAAIAAAAAA2AAAAAAAAIAAAAAAAAAAAAA2A2AAAAAAAAA2AA2AAA4AAAA224AAAA
AAAIAAAAAA2AAAAAAAAIAAAAAAAAAAAAAAA2AAAAAAAAA2AA2AAA4AAAA224AAAA
AAAIAAAAAA2AAAAAAIAIAAAAAAAAAAAAAAA2AAAAAAAAA2AA2AAA4AAAA224AAAA
AAAIAAAAAA2AAAAAAIAIAAAAAAAAAAAAAAA2AAAAAAIAA2AA2AAA4AAAA224AAAA
AAAIAAAAAA2AAAAAA4AIAAAAAAAAAAAAAAA2AAAAAAIAA2AA2AAA4AAAA224AAAA
AAAIAAAAAA2AAAAAAAAIAAAAAAAAAAAAAAA2AAAAAAIAA2AA2AAA4AAAA224AAAA
AAAIAAAAAA2AAAAAAAAIAAAAAAAAAAAAAAA2AAAAAAAAA2AA2AAA4AAAA224AAAA
AAAIAAAAAA2AAAAAAAAIAAAAAAAAAAAAAAA2AAAAAAAAA2AA2AAA4AAAA224AAIA
AAAIAAAAAA2AAAAAAAAIAIAAAAAAAAAAAAA2AAAAAAAAA2AA2AAA4AAAA224AAIA
AAAIAAAAAA2AAAAAAAAIAIAAAAAAAAAAAAA2AAAAAAAAA2AA2AAA4AAAA224AAII
AAAIAAAAAA2AAAAAAAA4A4AAAAAAAAAAAAA2AAAAAAAAA2AA2AAA4AAAA224AAII
AAAIAAAAAA2AAAAAAAA2A4AAAAAAAAAAAAA2AAAAAAAAA2AA2AAA4AAAA224AAII
AAA2AAAAAA2AAAAAAAA2A4AAAAAAAAAAAAA2AAAAAAAAA2AA2AAA4AAAA224AAII
AAAAAAAAAA2AAAAAAAA2A4AAAAAAAAAAAAA2AAAAAAAAA2AA2AAA4AAAA224AAII
AAAAAAAAAA2AAAAAAAA2AAAAAAAAAAAAAAA2AAAAAAAAA2AA2AAA4AAAA224AAII
AAAAAAAAAA2AAAAAAAA2AAAAAAAAAAAAAAA2AAAAAAAAA2AA2AAA4AAAA2A2AA44
AAAAAAAAAA2AAAAAAAA2AAAAAAAAAAAAAAA2AAAAAAAAA2AA2AAA4AAAA2AIAA44
AAAAAAAAAA2AAAAAAAA2AAAAAAAAAAAAAAA2AAAAAAAAI2AA2AAA4AAAA2AIAA44
AAAIAAAAAA2AAAAAAAA2AAAAAAAAAAAAAAA2AAAAAAAAI2AA2AAA4AAAA2AIAA44
AAAIAAAAAA2AAAAAAAA2AAAAAAAAAAAAAAA2AAAAAAAA22AA2AAA2AAAA2AIAA44
AAAIAAAAAA2AAAAAAAA2AAAAAAAAAAAAAAA2AAAAAAAA22AA2AAA2AAAA2A4AA44
AAAIAAAAAA2AAAAAAAA2AAAAAAAAAAAAAAA2AAAAAAAA22AA2AAA2AAAA2AAAA42
AAAIAAAAAA2AAAAAAAA2AAAAAAAAAAAAAAA2AIAAAAAA22AA2AAA2AAAA2AAAA42
AAAIAAAAAA2AAAAAAAA2AAAAAAAAAAAAAAA2AIAAAAIA22AA2AAA2AAAA2AAAA42
AAAIAAAAAA2AAAAAAAA2AAAAAAAAAAAAAAA2A4AAAAIA22AA2AAA2AAAA2AAAA42
AAAIAAAAAA2AAAAAAAA2AAAAAAAAAAAAAAA2AAAAAA2A22AA2AAA2AAAA2AAAA42
AAAIAAAAAA2AAAAAAAA2AAAAAAAAAAAAAAA2AAAAAAAA22AA2AAA2AAAA2AAAA42
AAAIAAAAAA2AAAAAAAA2AAAAAAAAAAAAAAA2AAAAAAAA22AA2AAI2AAAA2AAAA42
AAAIAAAAAA2AAAAAAAA2AAAAAAAAAAAAAAA2AAAAAAAA22AA2AAI2AAAA2AIAA42
AAAIAAAAAA2AAAAAAAA2AAAAAAAAAAAAAAA2AAAAIAAA22AA2AAI2AAAA2AIAA42
AAAIAAAAAA2AAAAAAAA2AAAAAAAAAAAAAAA2AAAAIAAA22AA2AA42AAAA2AIAA42
AAAIAAAAAA2AAAAAAAA2AAAAAAAAAAAAAAA2AAAAIAAA22AA2AA42AAAA2AIAA4A
AAAIAAAAAA2AAAAAAAA2AIAAAAAAAAAAAAA2AAAAIAAA22AA2AA42AAAA2AIAA4A
AAAIAAAAAA2AAAAAAAA2A4AAAAAAAAAAAAA2AAAAIAAA22AA2AA42AAAA2AIAA4A
AAAIAAAAAA2AAAAAAAAAA4AAAAAAAAAAAAA2AAAAIAAA22AA2AA42AAAA2AIAA4A
AAAIAAAAAA2AAAAAAAAAAAAAAAAAAAAAAAA2AAAAIAAA22AA2AA42AAAA2AIAA4A
AAAIAAAAAA2AAAAAAAAAAAAAAAAAAAAAAAA2AAAA4AAA22AA2AA42AAAA2AIAA4A
AAAIAAAAAA2AAAAAAAAAAAAAAAAAAAAAAAA2AAAA4AAA22AA2AA42AAAA2A4AA4A
AAAIAAAAAA2AAAAAAAAAAAAAAAAAAAAAAAA2AAAA4AAAA2AA2AA42AAAA2A4AA4A
AAAIAAAAAA2AAAAAAAAAAAAAAAAAAAAAAAA2AAAA4AAAA2AA2AAA2AAAA2A4AA4A
AAAIAAAAAA2AAAAAAAAAAAAAAAAAAAAAAAA2AAAA4AAAA2AA2AAA2AAAA2A2AA4A
AAAIAAAAAA2AAAAAAAAAAAAAAAAAAAAAAAA2AAAA4AAAA2AA2AAA2AAAA2A2AAAA
AAAIAAAAAA2AAAAAAAAAAAAAAAAAAAAAAAA2AAAA4AAAA2AA2AAA2IAAA2A2AAAA
AAAIAAAAAA2AAAIAAAAAAAAAAAAAAAAAAAA2AAAA4AAAA2AA2AAA2IAAA2A2AAAA
AAAIAAAAAA2AAAIAAAAAAAAAAIAAAAAAAAA2AAAA4AAAA2AA2AAA2IAAA2A2AAAA
AAAIAAAAAA2AAAIAAAAAAAAAAIAAAAAAAAA2AAAA4AIAA2AA2AAA2IAAA2A2AAAA
AAAIAAAAAA2AAAIAAAAAAAAAAIAAAAAAAAA2AAAA4AIAA2AA2AAA2IAAA2A2AAAI
AAAIAAAAAA2AAAIAAAAAAAAAA4AAAAAAAAA2AAAA4AIAA2AA2AAA2IAAA2A2AAAI
AAAIAAAAAA2AAAIAAAAAAAAAA4AAAAAAAAA2AAAA4AAAA2AA2AAA24AAA2A2AAAI
AAAIAAAAAA2AAAIAAAAAAAAAA4AAAAAAAAA2AAAA4AAAA2AA2AAA24AAA2AAAAA4
AAAIAAAAAA2AAAIAAAAAAAAAA4AAAAAAAAA2AAAA4AAAA2AA2AAA24AAA2AAAAA2
AAAIAAAAAA2AAAIAAAAAAAAAA4AAAAAAAAA2AAAA4AAAA2AA2AAA24AAA2AAAAI2
AAAIAAAAAA2AAAIAAAAAAIAAA4AAAAAAAAA2AAAA4AAAA2AA2AAA24AAA2AAAAI2
AAAIAAAAAA2AAAIAIAAAAIAAA4AAAAAAAAA2AAAA4AAAA2AA2AAA24AAA2AAAAI2
AAAIAAAAAA2AAAIAIAAAAIAAA4AAAAAAAAA2AAAA4AAAA2AA2AAA24AAA2AAAAII
AAAIAAAAAA2AAAIAIAAAAAAAA4AAAAAAAAA2AAAA4AAAA2AA2AAA24AAA2AAAAII
AAAIAAAAAA2AAAIAIAAAAAAAA2AAAAAAAAA2AAAA4AAAA2AA2AAA24AAA2AAAAII
AAAIAAAAAA2AAAIAIAAAAAAAA2AAAAAAAAA2AAAA2AAAA2AA2AAA24AAA2AAAAII
AAAIAAAAAA2AAAIAIAAAAAAAA2AAAAAAAAA2AAAA2AAAA2AA2AAA24AAA2AAAAA2
AAAIAAAAAA2AAAIAIAAAAAAIA2AAAAAAAAA2AAAA2AAAA2AA2AAA24AAA2AAAAA2
AAAIAAAAAA2AAAIAIAAAAAAIA2AAAAAAAAA2AAAA2AIAA2AA2AAA24AAA2AAAAA2
AAAIAAAAAA2AAAIA2AAAAAA4A2AAAAAAAAA2AAAA2AIAA2AA2AAA24AAA2AAAAA2
AAAIAAAAAA2AAAIA2AAAAAA4A2AAAAAAAAA2AAAA2A4AA2AA2AAA24AAA2AAAAA2
AAAIAAAAAA2AAAIA2AAAAAA4A2AAAAAAAAA2AAAAAA4AA2AA2AAA24AAA2AAAAA2
AAAIAAAAAA2AAAIA2AAAAAA4A2AAAAAAAAA2AAAAAA4AA2AA2AAA24AAA2AAAAAA
AAAIAAAAAA2AAAIA2AAAAAA4A2AAAAAIAAA2AAAAAA4AA2AA2AAA24AAA2AAAAAA
AAAIAAAAAA2AAAIA2AAAAAA4I2AAAAAIAAA2AAAAAA4AA2AA2AAA24AAA2AAAAAA
AAAIAAAAAA2AAAIA2AAAAAA222AAAAAIAAA2AAAAAA4AA2AA2AAA24AAA2AAAAAA
AAAIAAAAAA2AAAIA2AAAAAAI22AAAAAIAAA2AAAAAA4AA2AA2AAA24AAA2AAAAAA
AAAIAAAAAA2AAAAA2AAAAAA422AAAAAIAAA2AAAAAA4AA2AA2AAA24AAA2AAAAAA
AAAIAAAAAA2AAAAA2AAAAAA222AAAAA4AAA2AAAAAA4AA2AA2AAA24AAA2AAAAAA
AAAIAAAAAA2AAAAA2AAAAAAA22AAAAA4AAA2AAAAAA4AA2AA2AAA24AAA2AAAAAA
AAAIAAAAAA2AAAAA2AAAAAAA22AAAAA2AAA2AAAAAA4AA2AA2AAA24AAA2AAAAAA
AAAIAAAAAA2AAAAA2AAAAAAA22AAAAAAAAA2AAAAAA4AA2AA2AAA24AAA2AAAAAA
AAAIAAAAAA2AAAAA2AAAAAAA22AAAAAAAAA2AAAAAAAAA2AA2AAA24AAA2AAAAAA
AAAIAAAAAA2AAAAA2AAAAAAA22AAAIAAAAA2AAAAAAAAA2AA2AAA24AAA2AAAAAA
AAAIAAAAAA2AAAAA2AAAAAAA22AAAIAIAAA2AAAAAAAAA2AA2AAA24AAA2AAAAAA
AAAIAAAAAA2AAAAA2AAAAAAA22AAA4A4AAA2AAAAAAAAA2AA2AAA24AAA2AAAAAA
AAAIAAAAAA2AAAAA2AAAAAAA22AAA4A4AAA2AAAIAAAAA2AA2AAA24AAA2AAAAAA
AAAIAAAAAA2AAAAA2AAAAAAA22AAA4A4AAA2AAAIAAIAA2AA2AAA24AAA2AAAAAA
AAAIAAAAAA2AAAAA2AAAAIAA22AAA4A4AAA2AAAIAAIAA2AA2AAA24AAA2AAAAAA
AAAIAAAAAA2AAAAA2AAAAIAA22AAA4A4AAA2AAA4AA4AA2AA2AAA24AAA2AAAAAA
AAAIAAAAAA2AAAAA2AAAAIAA22AAA4A4AAA2AAA4AAAAA2AA2AAA24AAA2AAAAAA
AAAIAAAAAA2AAAAA2AAAAIAA22AAA4A4AAA2AAA4AAAAA2AA2AAI24AAA2AAAAAA
AAAIAAAAAA2AAAAA2AAAAIAA22AAA4A4AAA2AAA4AAAAA2AA2AA224AAA2AAAAAA
AAAIAAAAAA2AAAAA2AAAAIAA22AAA4A4AAA2AAA4AAAAA2AA2AAA24AAA2AAAAAA
AAAIAAAAAA2AAAAA2AAAAIAA22AAA4A4AAA2AAA4AAAAA2AA2AAI24AAA2AAAAAA
AAAIAAAAAA2AAAAA2AAAA4AA22AAA4A4AAA2AAA4AAAAA2AA2AAI24AAA2AAAAAA
AAAIAAAAAA2AAAAA2AAAA4AA22AAA4A4AAA2AAA4AAAAA2AA2AAI24AAI2AAAAAA
AAAIAAAAAA2AIAAA2AAAA4AA22AAA4A4AAA2AAA4AAAAA2AA2AAI24AAI2AAAAAA
AAAIAAAAAA2AIAAA2AAAA4AA22AAA4A4AAA2AAA4AAAAA2AA2AAI24AAI2AAAAIA
AAAAAAAAAA2AIAAA2AAAA4AA22AAA4A4AAA2AAA4AAAAA2AA2AAI24AAI2AAAAIA
AAAAAAAAAA2A2AAA2AAAA4AA22AAA4A4AAA2AAA4AAAAA2AA2AAI24AAI2AAAAIA
AAAAAAAAAA2A2AAA2AAAAAAA22AAA4A4AAA2AAA4AAAAA2AA2AAI24AAI2AAAAIA
AAAAAAAAAA2A2AAA2AAAAAAA22AAA4A2AAA2AAA4AAAAA2AA2AAI24AAI2AAAAIA
AAAAAAAAAA2A2AAA2AAAAAAA22AAA4A2AAA2AAA2AAAAA2AA2AAI24AAI2AAAAIA
AAAAAAAAAA2A2AAA2AAAAAAA22AAA4A2AAA2AAA2AAAAA2AA2AAA24AAI2AAAAIA
AAAAAAAAAA2A2AAA2AAAAAAAA2AAA2A2AAA2AAA2AAAAA2AA2AAA24AAI2AAAAIA
AAAAAAAAAA2A2AAA2AAAAAAAI2AAA2A2AAA2AAA2AAAAA2AA2AAA24AAI2AAAAIA
AAAAAAAAAA2A2AIA2AAAAAAAI2AAA2A2AAA2AAA2AAAAA2AA2AAA24AAI2AAAAIA
AAAAAAAAAA2A2AIA2AAAAAAA22AAA2A2AAA2AAA2AAAAA2AA2AAA24AAI2AAAAIA
AAAAAAAAAA2A2AIA2AAAAAAA22AAA2A2AAA2AAA2AAAAA2AA2AAA24AA42AAAAIA
AAAAAAAAAA2A2AIA2AAAAAAA22AAA2A2AAA2AAA2AAIAA2AA2AAA24AA42AAAAIA
AAAAAAAAAA2A2AIA2AAAAAAA22AAA2A2AAA2AAA2AAIAA2AA2AAA24AA42AAAAAA
AAAAAAAAAA2A2AIA2AAAAAAA22AAA2A2AAA2AAA2AAIAA2AA2AAA2AAA22AAAAAA
AAAAAAAAAA2A2AIA2AAAAAAA22AAA2A2AIA2AAA2AAIAA2AA2AAA2AAA22AAAAAA
AAAAAAAAAA2A2AIA2AAAAAAA22AAA2A2AIA2AAA2AAIAA2AA2AAA2AAA22AAAAIA
AAAAAAAAAA2A2AIA2AAAAAAA22AAA2A2AIA2AAA2AAIAA2AA2AAA2AAA22AAAAII
AAAAAAAAAA2A2AAA2AAAAAAA22AAA2A2AIA2AAA2AAIAA2AA2AAA2AAA22AAAAII
AAAAAAAAAA2A2AAA2AAAAAAA22AAA2A2A4A2AAA2AAIAA2AA2AAA2AAA22AAAAII
AAAAAAAAAA2A2AAA2AAAAAAAA2AAA2A2A4A2AAA2AAIAA2AA2AAA2AAA22AAAAII
AAAAAAAAAA2A2AAA2AAAAAAAA2AAA2A2A4A2AAAAAA2AA2AA2AAA2AAA22AAAAII
AAAAAAAAAA2A2AAA2AAAAAAAA2AAA2A2A4A2AAAAAAAAA2AA2AAA2AAA22AAAAII
AAAAAAAAAA2A2AAA2AAAAAAAA2AAA2A2A4A2AAAAAAAAA2AA2AAA2AAA22AAAA4I
AAAAAAAAAA2A2AAA2AAAAAAAA2AAA2A2A4A2AAAAAAAAA2AA2AAAAAAA22AAAA44
AAAAAAAAAA2A2AAA2AAAAAAAA2AAA2A2A4A2AAAAAAAAI2AA2AAAAAAA22AAAA44
AAAAAAAAAA2A2AAA2AAAAAAAA2AAA2AAA2A2AAAAAAAA42AA2AAAAAAA22AAAA44
AAAAAAAAAA2A2AAA2AAAAAAAA2AAA2AAA2A2AAAAAAAA22AA2AAAAAAA22AAAA44
AAAAAAAAAA2A2AAA2AAAAAAAA2AAA2AAA2A2AAAAAAAA22AAAAAAAAAA22AAAA44
AAAAAAAAAA2A2AAA2AAAAAAAA2AAA2AAA2A2AAAAAAAA22AAAAAAAAAA22AAAAA4
AAAAAAAAAA2A2AAA2AAAAAAAA2AAA2AAA2A2AAAAAAAA22AAAAAAAAAA22AAAAAA
AAAAAAAAAA2A2AAI2AAAAAAAA2AAA2AAA2A2AAAAAAAA22AAAAAAAAAA22AAAAAA
AAAAAAAAAA2A2AAI2AAAAAAAA2AAA2AAA2A2AAAAAAIA22AAAAAAAAAA22AAAAAA
AAAAAAAAAA2A2AA42AAAAAAAA2AAA2AAA2A2AAAAAAIA22AAAAAAAAAA22AAAAAA
AAAAAAAAAA2A2AA4AAAAAAAAA2AAA2AAA2A2AAAAAAIA22AAAAAAAAAA22AAAAAA
AAAAAAAAAA2A2AA4AAAAAAAAA2AAA2AAA2AAAAAAAAIA22AAAAAAAAAA22AAAAAA
AAAAAAAAAA2A2AA4AAAAAAAAA2AAA2AAA2AAAAAAAAAA22AAAAAAAAAA22AAAAAA
AAAAAAAAAA2A2AA4AAAAAAAAA2AAA2AAA2AAAAAAAAAAA2AAAAAAAAAA22AAAAAA
AAAAAAAAAA2A2AA4AAAAAAAAA2AAA2AAA2AAAAAAAAAAA2AAAAAAAAAA2AAAAAAA
AAAAAAAAAA2A2AA4IAAAAAAAA2AAA2AAA2AAAAAAAAAAA2AAAAAAAAAA2AAAAAAA
AAAAAAAAAA2A2AA2IAAAAAAAA2AAA2AAA2AAAAAAAAAAA2AAAAAAAAAA2AAAAAAA
AAAAAAAAAA2A2AA2IAAAAIAAA2AAA2AAA2AAAAAAAAAAA2AAAAAAAAAA2AAAAAAA
AAAAAAAAAA2A2AA24AAAA4AAA2AAA2AAA2AAAAAAAAAAA2AAAAAAAAAA2AAAAAAA
AAAAAAAAAA2A2AAA4AAAA2AAA2AAA2AAA2AAAAAAAAAAA2AAAAAAAAAA2AAAAAAA
AAAAAAAAAA2A2AAA4AAAAAAAA2AAA2AAA2AAAAAAAAAAA2AAAAAAAAAA2AAAAAAA
AAAAAAAAAI2A2AAA4AAAAAAAA2AAA2AAA2AAAAAAAAAAA2AAAAAAAAAA2AAAAAAA
AAAAAAAAAA2A2AAA4AAAAAAAA2AAA2AAA2AAAAAAAAAAA2AAAAAAAAAA2AAAAAAA
AAAAAAAAAA2A2AAA4AAAAAAAA2AAAAAAA2AAAAAAAAAAA2AAAAAAAAAA2AAAAAAA
AAAAAAAAAA2A2AAA4AAAAAAAA2AAAAAAAAAAAAAAAAAAA2AAAAAAAAAA2AAAAAAA
AAAAAAAAAA2A2AAA4AAAAAAAA2AAAAAAAAAAAAAAAAAAA2AAAAAAAAAA2AAAAAIA
AAAAAAAAAA2A2AAA4IAAAAAAA2AAAAAAAAAAAAAAAAAAA2AAAAAAAAAA2AAAAAIA
AAAAAAAAAA2A2AAA42AAAAAAA2AAAAAAAAAAAAAAAAAAA2AAAAAAAAAA2AAAAAIA
AAAAAAAAAA2AAAAA42AAAAAAA2AAAAAAAAAAAAAAAAAAA2AAAAAAAAAA2AAAAAIA
AAAAAAAAAA2AAAAA4AAAAAAAA2AAAAAAAAAAAAAAAAAAA2AAAAAAAAAA2AAAAAIA
AAAAAAAAAA2AAAAA4AAAAAAAA2AAAAAAAAAAAAAAAAAAA2AAAAAAAAAA2AAAAA4A
AAAAAAAAAA2AAAAA4AAAAAAAA2AAAAAAAAAAAAAAAAAAA2AAAAAAAAAA2AAAAAAA
AAAAAAAAAA2AAAAA4AAAAAAAA2AAAAAAAAAAAAAAAAAAA2AAAAAAAAAA2AAAAAIA
AAAAAAAAAA2AAAAA4AAAAAAAA2AAAAAAAIAAAAAAAAAAA2AAAAAAAAAA2AAAAAIA
AAAAAAAAAA2AAAAA4AAIAAAAA2AAAAAAAIAAAAAAAAAAA2AAAAAAAAAA2AAAAAIA
AAAAAAAAAA2AAAAA4AAIAAAAA2AAAAAAAIAAAAAAAAAAA2IAAAAAAAAA2AAAAAIA
AAAAAAAAAA2AAAAA4AAIAAAAA2AAAAAAAIAAAAAAAAAAA22AAAAAAAAA2AAAAAIA
AAAAAAAAAA2AAAAA4AAIAAAAA2AAAAAAAIAAAAAAAAAAA22AAAAAAAAA2AAAAA2A
AAAAAAIAAA2AAAAA4AAIAAAAA2AAAAAAAIAAAAAAAAAAA22AAAAAAAAA2AAAAA2A
AAAAAAIAAA2AAAAA4AAIAAAAA2AAAAAAAIAAAAAAAAIAA22AAAAAAAAA2AAAAA2A
AAAAAAIAAA2AAAAA4AAIAAAAA2AAAAAAAIAAAAAAAAIAA22AAAAAAAAA2AAAAAIA
AAAAAAIAAA2AAAAA4AAIAAAAA2AAAAAAA2AAAAAAAAIAA22AAAAAAAAA2AAAAAIA
AAAAAAIAAA2AAAAA4AAIAAAAA2AAAAAAA2AAAAAAAA2AA22AAAAAAAAA2AAAAAIA
AAAAAAIAAA2AAAAA4AAIAAAAA2AAAAAAA2AAAAAAAA2AA22AAAAAAAAA2AAAAAAA
AAAAAAIAAA2AAAAA4AAIAAAAA2IAAAAAA2AAAAAAAA2AA22AAAAAAAAA2AAAAAAA
AAAAAAIAAA2AAAAA4AAIAAAAA2IAAAAAA2AAAAAAAAAAA22AAAAAAAAA2AAAAAAA
AAAAAAIAAA2AAAAA4AAIAAAAA2IAAAAAA2AAAAAAAAAAA22AAAAAAAAA2AAAAAAI
AAAAAAIAAA2AAAAA4AAIAAAAA2IAAAAAA2AAAAAAAAIAA22AAAAAAAAA2AAAAAAI
AAAAAAIAAA2AAAAA4AAIAAAAA2IAAAAAA2AAAAAIAAIAA22AAAAAAAAA2AAAAAAI
AAAAAAIAAA2AAAAA4AAIAAAAA2IAAAAAA2AAAAAIAAAAA22AAAAAAAAA2AAAAAAI
AAAAAA2AAA2AAAAA4AAIAAAAA2IAAAAAA2AAAAAIAAAAA22AAAAAAAAA2AAAAAAI
AAAAAA2AAA2AAAAA2AA2AAAAA24AAAAAA2AAAAAIAAAAA22AAAAAAAAA2AAAAAAI
AAAAAA2AAA2AAAAA2AA2AAAAA22AAAAAA2AAAAAIAAAAA22AAAAAAAAA2AAAAAAI
AAAAAA2AAA2AAAAA2AA2AAAAA22AAAAAA2AAAAAIAAAAA22AAAAAAAAA2AAAAAAA
AAAAAA2AAA2AAAAA2AAIAAAAA22AAAAAA2AAAAAIAAAAA22AAAAAAAAA2AAAAAAA
AAAAAA2AAA2AAAAAIAAIAAAAA22AAAAAA2AAAAAIAAAAA22AAAAAAAAA2AAAAAAA
AAAAAA2AAA2AAAAAIAAIAAAAA22AAAAAA2AAAAAIAAAAA22AAAAAAAAA2AAAAAAI
AAAAAA2AAA2AAAAA4AAIAAAAA22AAAAAA2AAAAAIAAAAA22AAAAAAAAA2AAAAAAI
AAAAAA2AAA2AAAAA4AA2AAAAA22AAAAAA2AAAAAIAAAAA22AAAAAAAAA2AAAAAAI
AAAAAA2AAA2AAAAA2AA2AAAAA22AAAAAA2AAAAAIAAAAA22AAAAAAAAA2AAAAAAI
AAAAAA2AAA2AAAAA2AA2AAAAA22AAAAAA2AAAAAIAAAAA22AAAAAAAAA2AAAAAA4
AAAAAA2AAA2AAAAA2AA2AAAAA22AAAAAA2AAAAAIAAAAA22AAAAAAAAA2AAAAAAA
AAAAAA2AAI2AAAAA2AA2AAAAA22AAAAAA2AAAAAIAAAAA22AAAAAAAAA2AAAAAAA
AAAAAA2AAI2AAAAA2AA2AAIAA22AAAAAA2AAAAAIAAAAA22AAAAAAAAA2AAAAAAA
AAAAAA2AAI2AAAAA2AA2AAIAA22AAAAAA2AAAAAIAAAAA22AAAAIAAAA2AAAAAAA
AAAAAA2AAI2AAAIA2AA2AAIAA22AAAAAA2AAAAAIAAAAA22AAAAIAAAA2AAAAAAA
AAAAAA2AAI2AAAAA2AA2AA4AA22AAAAAA2AAAAAIAAAAA22AAAAIAAAA2AAAAAAA
AAAAAA2AAI2AAAAA2AA2AA2AA22AAAAAA2AAAAAIAAAAA22AAAAIAAAA2AAAAAAA
AAAAAA2AAI2AAAIA2AA2AA2AA22AAAAAA2AAAAAIAAAAA22AAAAIAAAA2AAAAAAA
AAAAAA2AAI2AAAIA2AAAAA2AA22AAAAAA2AAAAAIAAAAA22AAAAIAAAA2AAAAAAA
AAAAAA2AAI2AAAIA2AAAAA2AA22AAAAAA2AAAAA2AAAAA22AAAAIAAAA2AAAAAAA
AAAAAA2AAI2AAAIA2AAAAA2AA22AAAAAA2AAAAA2AAAAA22AAAA4AAAA2AAAAAAA
AAAAAA2AAI2AAAIA2AAAAA2AA22AAAAAA2AAAAA2AAAAA22AAAA4AAAA2AAAAAAI
AAAAAA2AAI2AAAIA2AAAAA2AA22AAAAAA2AAAAA2AAAAA22AAAA4AAAA2AAAAAAA
AAAAAA2AAI2AAAIA2AAAAA2AA22AAAAAA2AAAAA2AAIAA22AAAA4AAAA2AAAAAAA
AAAAAA2AAI2AAA4A2AAAAA2AA22AAAAAA2AAAAA2AAIAA22AAAA4AAAA2AAAAAAA
AAAAAA2AAI2AAAAA2AAAAA2AA22AAAAAA2AAAAA2AAIAA22AAAA4AAAA2AAAAAAA
AAAAAA2AAI2AAAAA2AAAAI2AA22AAAAAA2AAAAA2AAIAA22AAAA4AAAA2AAAAAAA
AAAAAA2AAI2AAAAA2AAAAI2AA22AAAAAA2AAAAA2AAAAA22AAAA4AAAA2AAAAAAA
AAAAAA2AAI2AAAAA2AAAAA2AA22AAAAAA2AAAAA2AAAAA22AAAA4AAAA2AAAAAAA
AAAAAA2AAI2AAAAA2AAAAA2AA22AAAAAA2AAAAA2AAAAA22AAAA4AAAA2AAAAAIA
AAAAAA2AAI2AAAAA2AAAAA2AA22AAAAAA2AAAAA2AAAAA22AAAA2AAAA2AAAAA4A
AAAAAA2AAI2AAAAAAAAAAA2AA22AAAAAA2AAAAA2AAAAA22AAAA2AAAA2AAAAA4A
AAAAAA2AAI2AAAAAAAAAAA2IA22AAAAAA2AAAAA2AAAAA22AAAA2AAAA2AAAAA4A
AAAAAA2AAI2AAAAAAAAAAA24A22AAAAAA2AAAAA2AAAAA22AAAA2AAAA2AAAAA4A
AAAAAA2AAI2AAAAAAAAAAA24A22AAAAAA2AAAAA2AAAAA22AAAAAAAAA2AAAAA4A
AAAAAA2AAI2AAAAAAAAAAA24A22AAAAAA2AAAAA2AAAAA22AAAAAAAAA2AAAAAAA
AAAAAA2AAI2AAAAAAAAAAA24A22IAAAAA2AAAAA2AAAAA22AAAAAAAAA2AAAAAAA
AAAAAA2AAI2AAAAAAAAAAA24A22IIAAAA2AAAAA2AAAAA22AAAAAAAAA2AAAAAAA
AAAAAA2AAI2AAAAAAAAAAA24A22IIAAAA2AAAAA2AAAAA22AAAAAAAAA2AAAAAIA
AAAAAA2AAI2AAAAAAAAAAA24A22IIAAIA2AAAAA2AAAAA22AAAAAAAAA2AAAAAIA
AAAAAA2AAA2AAAAAAAAAAA24A22IIAAIA2AAAAA2AAAAA22AAAAAAAAA2AAAAAIA
AAAAAA2AAA2AAAAAAAAAAAA2A2222AA4A2AAAAA2AAAAA22AAAAAAAAA2AAAAAIA
AAAAAA2AAA2AAAAAAAAAAAA2A2222AA4A2AAAAA2AAAAA22AAAAAAAAA2AAAAA4A
AAAAAA2AAA2AAAAAAAAAAAAAA2222AA4A2AAAAA2AAAAA22AAAAAAAAA2AAAAA4A
AAAAAA2AAA2AAAAAAAAAAAAAA2222AA4A2AAAAAAAAAAA22AAAAAAAAA2AAAAA4A
AAAAAA2AAA2AAAAAAAAAAAAIA2222AA4A2AAAAAAAAAAA22AAAAAAAAA2AAAAA4A
AAAAAA2AAA2AAAAAAAAAAAA2A2222AA4A2AAAAAAAAAAA22AAAAAAAAA2AAAAA4A
AAAAAA2AAA2AAAIAAAAAAAA2A2222AA4A2AAAAAAAAAAA22AAAAAAAAA2AAAAA4A
AAAAAA2AAA2AAA2AAAAAAAA2A2222AA4A2AAAAAAAAAAA22AAAAAAAAA2AAAAA4A
AAAAAA2AAA2AAA2AAAAAAAA2A2222AA4A2AAAAAAAAAAAA2AAAAAAAAA2AAAAA4A
AAAAAA2AAA2AAA2AAAAAAAA2A2222AA4A2AAAAAAAAAAAA2AAAAAAAAA2AAAAA4I
AAAAAA2AAA2AAA2AAAAAAAA2A2222AA4A2AAAAAAAAAAAI2AAAAAAAAA2AAAAA4I
AAAAAAAAAA2AAA2AAAAAAAA2A2222AA4A2AAAAAAAAAAAI2AAAAAAAAA2AAAAA4I
AAAAAAAAAA2AAA2AAAAAAAA2A2222AA4A2AAAAAAAAAAA42AAAAAAAAA2AAAAA4I
AAAAAAAAAA2AAA2AAAAAAAA2A2222AA4A2AAAAAAAAAAA42AAAAAAAAA2AAAAA44
AAAAAAAAAA2AAA2AAAAAAAA2A2222AA4A2AAAAAAAAAAA42AAAAAAAAA2AAAAA42
AAAAAAAAAA2AAA2AAAAAAAA2A2222AA4A2AAAAAAAAAAA42AAAAAAAAA2AAAAAA2
AAAAAAAAAA2AAA2AAAAAAAA2A2222IA4A2AAAAAAAAAAA42AAAAAAAAA2AAAAAA2
AAAAAAAAAA2AAA2AAAAAAAA2A2222IA4A2AAAAAAAAAAA42AAAAAAAIA2AAAAAA2
AAAAAAAAAA2AAA2AAAAAAAA2A2222IA4A2AAAAAAAAAAA42AAAAAAA4A2AAAAAA2
AAAAAAAAAA2AAA2AAAAAAAA2A2222IA4A2AAAAAAAAAAA22AAAAAAA4A2AAAAAA2
AAAAAAAAAA2AAA2AAAAAAAA2A22224A4A2AAAAAAAAAAA22AAAAAAA4A2AAAAAA2
AAAAAAAAAA2AAA2AAAAAAAAAA22224A4A2AAAAAAAAAAA22AAAAAAA4A2AAAAAA2
AAAAAAAAAA2AAA2AAAAAAAAAA22224A4A2AAAAAAAAAAA22AAAAAAA4AAAAAAAA2
AAAAAAAAAA2AAA2AAAAIAAAAA22224A4A2AAAAAAAAAAA22AAAAAAA4AAAAAAAA2
AAAAAAAAAA2AAA2AAAA4AAAAA22224A4A2AAAAAAAAAAA22AAAAAAA4AAAAAAAA2
AAAAAAAAAA2AAA2AAAA4AAAAA22224A4A2IAAAAAAAAAA22AAAAAAA4AAAAAAAA2
AAAAAAAAAAAAAA2AAAA4AAAAA22224A4A2IAAAAAAAAAA22AAAAAAA4AAAAAAAA2
AAAAAAAAAAAAAAAAAAA2AAAAA22224A4A2IAAAAAAAAAA22AAAAAAA4AAAAAAAA2
AAAAAAAAAAAAAAAAAAAAAAAAA22224A4A24AAAAAAAAAA22AAAAAAA4AAAAAAAA2
AAAAAAAAAAAAAAAAAAAAAAAAA2A224A2A24AAAAAAAAAA22AAAAAAA4AAAAAAAA2
AAAAAAAAAAAAAAAAAAAAAAAAA2A224A2AA4AAAAAAAAAA22AAAAAAA4AAAAAAAA2
AAAAAAAAAAAAAAAAAAAAAAAAA2A224A2AA4AAAAAAAAAAA2AAAAAAA4AAAAAAAA2
AAAIAAAAAAAAAAAAAAAAAAAAA2A224A2AA4AAAAAAAAAAA2AAAAAAA4AAAAAAAA2
AAAIAAAAAAAAAAAAAAAIAAAAA2A224A2AA4AAAAAAAAAAA2AAAAAAA4AAAAAAAA2
AAAIAAAAAAAAAAAAAAAIAAAAA2A224A2AA4AAAAAAAIAAA2AAAAAAA4AAAAAAAA2
AAAIAAAAAAAAAIAAAAAIAAAAA2A224A2AA4AAAAAAAIAAA2AAAAAAA4AAAAAAAA2
AAAIAAAAAAAAAIAAAAAIAIAAA2A224A2AA4AAAAAAAIAAA2AAAAAAA4AAAAAAAA2
AAAIAAAAAAAAAIAAAAA4AIAAA2A224A2AA4AAAAAAAIAAA2AAAAAAA4AAAAAAAA2
AAAIAAAAAAAAAIAAAAA4AIAAA2A224A2AA4AAAAAAAIAAA2AAAAAAA4AAAAAAAI2
AAAIAAAAAAAAAIAAAAA4AIAAA2A224A2AA4AAAAAAAIAAA2AAAAAAA2AAAAAAA42
AAAIAAAAAIAAAIAAAAA4AIAAA2A224A2AA4AAAAAAAIAAA2AAAAAAA2AAAAAAA42
AAAIAAAAA2AAAIAAAAA4A4AAA2A224A2AA4AAAAAAAIAAA2AAAAAAA2AAAAAAA42
AAAIAAAAA2AAAIAAAAA4A4AAA2A224A2AA4AAAAAAAAAAA2AAAAAAA2AAAAAAA42
AAAIAAAAA2AAAIAAAAA4A4AAA2A222A2AA4AAAAAAAAAAA2AAAAAAA2AAAAAAA42
AAAIAAAAA2AAAIAAAAA2A2AAA2A222A2AA4AAAAAAAAAAA2AAAAAAA2AAAAAAA42
AAAIAAAAA2AAAIAAAAA2AAAAA2A222A2AA4AAAAAAAAAAA2AAAAAAA2AAAAAAA42
AAAIAAAAA2AAAIAAAAA2AAAAA2A222A2AA4AAAAAAAAAAA2AAAAAAA2AAAAAAA4A
AAAIAAAAA2AAAIAAAAAIAAAAA2A222A2AA4AAAAAAAAAAA2AAAAAAA2AAAAAAA4A
AAAIAAAAA2AAAIAAAAAIAAAAA2A222A2AA4AAAAAAAAAAA2AAAAAAA2IAAAAAA4A
AAAIAAAAA2AAAIAAAAAIAAAAA2A222A2AA4AAAAAAAIAAA2AAAAAAA2IAAAAAA4A
AAA2AAAAA2AAA4AAAAAIAAAAA2A222A2AA4AAAAAAAIAAA2AAAAAAA2IAAAAAA4A
AAA2AAAAA2AAA4AAAAAIAAAAA2A222A2AA4AAAAAAAIAAA2AAAAAAA24AAAAAA4A
AAA2AAAAA2AAA4AIAAAIAAAAA2A222A2AA4AAAAAAAIAAA2AAAAAAA24AAAAAA4A
AAA2AAAAA2AAA2AIAAAIAAAAA2A222A2AA4AAAAAAAIAAA2AAAAAAA24AAAAAA4A
AAA2AAAAA2AAA2AIAAAIAAAAA2A222A2AA4AAAAAAA4AAA2AAAAAAA22AAAAAA4A
AAA2AAAAA2AAA2AIAAAIAAAAA2A222A2AA4AAAAAAA4AIA2AAAAAAA22AAAAAA4A
AAA2AAAAA2AAA2AIAAAIAAAAA2A222A2AA4AAAAAAA4AIA2AAAAAAA22AAAAAA2A
AAA2AAAAA2AAA2AIAAA2AAAAA2A222A2AA4AAAAAAA4AIA2AAAAAAA22AAAAAA2A
AAA2AAAAA2AAA2IIAAA2AAAAA2A222A2AA4AAAAAAA4AIA2AAAAAAA22AAAAAA2A
AAA2AAAAA2AAA2IIAAAIAAAAA2A222A2AA4AAAAAAA4AIA2AAAAAAA22AAAAAA2A
AAA2AAAAA2AAA2IIAAAIAAAAA2A222A2AA4AAAAAAAAAIA2AAAAAAA22AAAAAA2A
AAA2AAAAA2AAA2IIAAAIAAAAA2A222A2AA4AAAAAAAAAIA2AAAAAAA22AAIAAA2A
AAA2AAAAA2AAA2A2AAA2AAAAA2A222A2AA4AAAAAAAAAIA2AAAAAAA22AAIAAA2A
AAA2AAAAA2AAA2A2AAA2AAAAA2A222A2AA4AAAAAAAAA4A2AAAAAAA22AAIAAA2A
AAA2AAAAA2AAA2A2AAA2AAAAA2A222A2AA4AAAAAAAAA4A2AAAAAAA22AA4AAA2A
AAA2AAAAA2AAA2A2AAA2IAAAA2A222A2AA4AAAAAAAAA4A2AAAAAAA22AA4AAA2A
AAA2AAAAA2AAA2A2AAA2IAAAA2A222A2AA4AAIAAAAAA4A2AAAAAAA22AA4AAA2A
AAA2AAAAA2AAA2AIAAA2IAAAA2A222A2AA4AAIAAAAAA4A2AAAAAAA22AA4AAA2A
AAA2AAAAA2AAA2A4AAA2IAAAA2A222A2AA4AAIAAAAAA4A2AAAAAAA22AA4AAA2A
AAA2AAAAAAAAA2A2AAA24AAAA2A222A2AA4AAIAAAAAA4A2AAAAAAA22AA4AAA2A
AAA2AAAAAAAAA2A2AAA2AAAAA2A222A2AA4AAIAAAAAA4A2AAAAAAA22AA4AAA2A
AAA2AAAAAAAAA2A2AAA2AAAAA2A222A2AA4AA4AAAAAA4A2AAAAAAA22AA4AAA2A
AAA2AAAAAAAAA2A2AAA2AAAAA2A222A2AA4AA4AAAAAAAA2AAAAAAA22AA4AAA2A
AAA2AAAAAAAAA2A2AAA2AAIAA2A222A2AA4AA4AAAAAAAA2AAAAAAA22AA4AAA2A
AAA2AAAAAIAAA2A2AAA2AAIAA2A222A2AA4AA4AAAAAAAA2AAAAAAA22AA4AAA2A
AAAAAAAAA2AAA2A2AAA2AAIAA2A222A2AA4AA4AAAAAAAA2AAAAAAA22AA4AAA2A
AAAAAAAAA2AAA2A2AAA2AA2AA2A222A2AA4AA4AAAAAAAA2AAAAAAA22AA4AAA2A
AAAAAAAAA2AAA2A2AAA2AA2AA2A222A2AA4AA4AAAAAAAA2AAAAAAA22AAAAAA2A
AAAAAAAAA2AAA2A2IAA2AA2AA2A222A2AA4AA4AAAAAAAA2AAAAAAA22AAAAAA2A
AAAAAAAAA2AAA2A2IAA2IA2AA2A222A2AA4AA4AAAAAAAA2AAAAAAA22AAAAAA2A
AAAAAAAAA2AAA2A2IAA22A2AA2A222A2AA4AA4AAAAAAAA2AAAAAAA22AAAAAA2A
AAAAAAAAA2AAA2A2IAA22A2AA2A22AA2AA2AA4AAAAAAAA2AAAAAAA22AAAAAA2A
AAAAAAAAA2AAA2A2IAA22A2AA2A22IA2AA2AA4AAAAAAAA2AAAAAAA22AAAAAA2A
AAAAAAAAA2AAA2A2IAA22A2AA2A224A2AA2AA4AAAAAAAA2AAAAAAA22AAAAAA2A
AAAAAAAAA2AIA2A2IAA22A2AA2A224A2AA2AA4AAAAAAAA2AAAAAAA22AAAAAA2A
AAAAAAAAA2AIA2A2IAA22A2AA2A224A2AA2AAAAAAAAAAA2AAAAAAA22AAAAAA2A
AAAAAAAAA2AIA2A2IAA2IA2AA2A224A2AA2AAAAAAAAAAA2AAAAAAA22AAAAAA2A
AAAAAAAAA2AIA2A2IAA2IA2AA2A224A2AAIAAAAAAAAAAA2AAAAAAA22AAAAAA2A
AAAAAAAAA2A4A2A2IAA2IA2AA2A224A2AAIAAAAAAAAAAA2AAAAAAA22AAAAAA2A
AAAAAAAAAAA2A2A24AA24A2AA2A224A2AAIAAAAAAAAAAA2AAAAAAA22AAAAAA2A
AAAAAAAAAAA2A2A22AA22A2AA2A224A2AAIAAAAAAAAAAA2AAAAAAA22AAAAAA2A
AAAAAAAAAAA2A2A22AAA2A2AA2A224A2AA4AAAAAAAAAAA2AAAAAAA22AAAAAA2A
AAAAAAAAAAA2A2A22AAA2A2AA2A224A2AA4AAAAAAAAAAA2AAAAAAI22AAAAAA2A
AAAAAAAAAAA2AAA22AAA2A2AA2A224A2AA4AAAAAAAAAAA2AAAAAAI22AAAAAA2A
AAAAAAAAAAA2AAA22AAA2A2AA2A224A2AAAAAAAAAAAAAA2AAAAAAI22AAAAAA2A
AAAAAAAAAAA2AAA22AAA2A2AA2A224A2AAAAAAAAAAAAAA2AAAAAA422AAAAAA2A
AAAAAAAAAAA2AAA22AAA2A2AA2A224A2AAAAAAAAAAAAAA2AAAAAA222AAAAAA2A
AAAAAAAAAAA2AAA22AAA2A2AA2A224A2AAAAAAAAAAAAIA2AAAAAA222AAAAAA2A
AAAAAAAAAAA2AAA22AAA2A2AA2A224A2AAAAAAAAAAAAIA2AAAAAI222AAAAAA2A
AAAAAAAAAAA2AAA22AAA2A2AA2A224A2AAAAAAAAAAAA2A2AAAAA4222AAAAAA2A
AAAAAAAAAAA2AAA22AAA2A2AA2A224A2AAAAAAAAAAAAAA2AAAAA4222AAAAAA2A
AAAAAAAAAAA2AAA2AAAA2A2AA2A224A2AAAAAAAAAAAAAA2AAAAA4222AAAAAA2A
AAAAAAAAAAA2AAA2AAAA2A2AA2A224A2AAAAAAAAAAIAAA2AAAAA4222AAAAAA2A
AAAAAAAAAAA2AAAAAAAA2A2AA2A224A2AAAAAAAAAAIAAA2AAAAA4222AAAAAA2A
AAAAAAAAAAA2AAAAAAAA2A2AA2A224A2AAAAAAAAAAIAAA2AAAAA4222AAAAAAAA
AAAIAAAAAAA2AAAAAAAA2A2AA2A224A2AAAAAAAAAAIAAA2AAAAA4222AAAAAAAA
AAAIAAAAAAA2AAAAAIAA2A2AA2A224A2AAAAAAAAAAIAAA2AAAAA4222AAAAAAAA
AAAIAAAAAAA2AAAAAIAA2A2AA2A224A2AAAAAAAAAAIAAA2AAAAA4222AAAAAAIA
AAAIAAAAAAA2AAAAAIAA2A2AA2A224A2AAAAAAAAAAAAAA2AAAAA4222AAAAAAIA
AAAIAAAAAAA2AAAAAAAA2A2AA2A224A2AAAAAAAAAAAAAA2AAAAA4222AAAAAAIA
AAAIAAAAAAA2AAAAAIAA2A2AA2A224A2AAAAAAAAAAAAAA2AAAAA4222AAAAAAIA
AAAIAAAAAAA2AAAAAIAI2A2AA2A224A2AAAAAAAAAAAAAA2AAAAA4222AAAAAAIA
AAAIAAAAAAA2AAAAAIAI2A2AA2A224A2AAAAAAAAAAAAAA2AAAAA2222AAAAAA4A
AAAIAAAAAAA2AAAAAIAI2A2AA2A224A2AAAAAAAAAAAAAA2AAAAA2222AAAAAA4I
AAAIAAAAAAA2AAAAA4A42A2AA2A224A2AAAAAAAAAAAAAA2AAAAA2222AAAAAA4I
AAAIAAAAAAA2AAAAA2A22A2AA2A224A2AAAAAAAAAAAAAA2AAAAA2222AAAAAA4I
AAAIAAAAAAA2AAAAAAA22A2AA2A224A2AAAAAAAAAAAAAA2AAAAA2222AAAAAA4I
AAAIAAAAAAA2AAAAAAAA2A2AA2A224A2AAAAAAAAAAAAAA2AAAAA2222AAAAAA4I
AAAIAAAAAAA2AAAAAAAA2A2AA2A224A2AAAAAAAAAAAAAA2AAAAA2222AAAAAA44
AAAIAAAAAAA2AAAAAAAA2A2AA2A224A2AAAAAAAAAAAAAA2AAAAA22A2AAAAAA44
AAAIAAAAAAA2AAAAAAAA2A2AA2A224A2AAAAAAAAAAAAIA2AAAAA22A2AAAAAA44
AAAIAAAAAAA2AAAAAIAA2A2AA2A224A2AAAAAAAAAAAAIA2AAAAA22A2AAAAAA44
AAAIAAAAAAA2AAAAAIAA2A2AA2A224A2AAAAAAAAAAAAIA2AIAAA22A2AAAAAA44
AAAIAAAAAAA2AAAAAAAA2A2AA2A224A2AAAAAAAAAAAAIA2AIAAA22A2AAAAAA44
AAAIAAAAAAA2AAAAAAAA2A2AA2A222A2AAAAAAAAAAAAIA2AIAAA22A2AAAAAA44
AAAIAAAAAAA2AAAAAAAA2A2AA2A222AAAAAAAAAAAAAA4A2AIAAA22A2AAAAAA44
AAA4AAAAAAA2AAAAAAAA2A2AA2A222AAAAAAAAAAAAAA4A2AIAAA22A2AAAAAA44
AAA4AAAAAAA2IAAAAAAA2A2AA2A222AAAAAAAAAAAAAA4A2AIAAA22A2AAAAAA44
AAA4AAAAAAA2IAIAAAAA2A2AA2A222AAAAAAAAAAAAAA4A2AIAAA22A2AAAAAA44
AAA4AAAAAAA2IAIAAAAA2A2AA2A222AAAAAAAAAAAAAA2A2A2AAA22A2AAAAAA44
AAA4AAAAAAA2IAIAIAAA2A2AA2A222AAAAAAAAAAAAAA2A2A2AAA22A2AAAAAA44
AAA4AAAAAAA2IAIAIAAA2A2AA2A222AAAAAAAAAAAAAAAA2A2AAA22A2AAAAAA44
AAA4AAAAAAA2IAIAIAAA2A2AA2A222AAAAAAAAAAAAIAAA2A2AAA22A2AAAAAA44
AAA4AAAAAAA2IAAA2AAA2A2AA2A222AAAAAAAAAAAAIAAA2A2AAA22A2AAAAAA44
AAA4AAAAAAA2IAAA2AAA2A2AA2A222AAAAAAAAAAAAAAAA2A2AAA22A2AAAAAA44
AAA4AAAAAAA2IAAA2AAA2A2AA2A222AAAAAAAAAIAAAAAA2A2AAA22A2AAAAAA44
AAA4AAAAAAA2IAAA2AAA2A2AA2A222AAAAAAAAAIAAAAAA2A2AAA22A2AAAAAAA2
AAA4AAAAAAA2IAAA2AAA2A2AA2A222AAAAAAAAAIAAAAAA2A2AAA22A2AAAAAAI2
AAA4AAAAAAA2IAAA2AAA2A2AA2A222AAAAAAAAAIAAAAAA2A2AAA22A2AAAAAAII
AAA4AAAAAAA2IAAA2AAA2A2AA2A222AAAAAAAAAIAAIAAA2A2AAA22A2AAAAAAII
AAA4AAAAAAA2IAAA2AAA2A2AA2A222AAAAAAAAAIAAAAAA2A2AAA22A2AAAAAAII
AAA4AAAAAAA2IAAA2AAA2A2AA2A222AAAAAAAAAIAAAAAA2A2AAA22A2AAAAAA4I
AAA4AAAAAAA2IAAA2AAA2A2AA2A222AAAAAAAAAIAAAAAA2A2AAA22A2AAAAAAA2
AAA4AAAAAAA2IAAA2AAA2A2AA2A222AAAAAAAAAIAAAAAA2A2AAA22A2AAAAAAI2
AAA4AAAAAAA2IAAA2AAA2A2AA2A222AAAAAAAAAIAAAAAA2A2AAA22A2AAAAAA22
AAA4AAAAAAA22AAA2AAA2A2AA2A222AAAAAAAAAIAAAAAA2A2AAA22A2AAAAAA22
AAA4AAAAAAA22AIA2AAA2A2AA2A222AAAAAAAAAIAAAAAA2A2AAA22A2AAAAAA22
AAA4AAAAAAA2IAIA2AAA2A2AA2A222AAAAAAAAAIAAAAAA2A2AAA22A2AAAAAA22
AAA4AAAAAAA24A4A2AAA2A2AA2A222AAAAAAAAAIAAAAAA2A2AAA22A2AAAAAA22
AAAAAAAAAAA24A4A2AAA2A2AA2A222AAAAAAAAAIAAAAAA2A2AAA22A2AAAAAA22
AAAAAAAAAAA22A2A2AAA2A2AA2A222AAAAAAAAAIAAAAAA2A2AAA22A2AAAAAA22
AAAAAAAAAAA22A2AAAAA2A2AA2A222AAAAAAAAAIAAAAAA2A2AAA22A2AAAAAA22
AAAAAAAAAAA22A2AAAAA2A2AA2A222AAAAAAAAAAAAAAAA2A2AAA22A2AAAAAA22
AAAAAAAAAAA22A2AAAAA2A2AA2A222AAAAAAAAAAAAAAAA2A2AAA22A2AAAAAAA2
AAAAAAAAAAA22A2AAAAA2A2AA2A222AAAAAAAAAAAAAAIA2A2AAA22A2AAAAAAA2
AAAAAAAAAAA22AIAAAAA2A2AA2A222AAAAAAAAAAAAAAIA2A2AAA22A2AAAAAAA2
AAAAAAAIAAA22AIAAAAA2A2AA2A222AAAAAAAAAAAAAAIA2A2AAA22A2AAAAAAA2
AAAAAAAIAAA22AIAAAAA2A2AA2A222AAAAAAAAAAAAAA4A2A2AAA22A2AAAAAAA2
AAAAAAAIAAA22AIAAAAA2A2AA2A222AAAAAAAAAAAAAA2A2A2AAA22A2AAAAAAA2
AAAAAAAIAAA22A4AAAAA2A2AA2A222AAAAAAAAAAAAAA2A2A2AAA22A2AAAAAAA2
AAAAAAAIAAA22A4AAAAA2A2AA2A222AAAAAAAAAAAAIA2A2A2AAA22A2AAAAAAA2
AAAAAAAIAAA22A4AAAAI2A2AA2A222AAAAAAAAAAAAIA2A2A2AAA22A2AAAAAAA2
AAAAAAAIAAA22A4AAAAI2A2AA2A222AAAAAAAAAAAAIAAA2A2AAA22A2AAAAAAA2
AAAAAAAIAAA22A4AAAAI2A2AA2A222AAAAAAAAAAAAIAAA2A2AAA22A2AAAAAAI2
AAAAAAAIAAA22A4AAAA22A2AA2A222AAAAAAAAAAAAIAAA2A2AAA22A2AAAAAAI2
AAAAAAAIAAA22A4AAAA22A2AA2A222AAAAAAAAAAAAIAAA2A2AAA22A2AAAAAAA2
AAAAAAAIAAA2AA2AAAA22A2AA2A222AAAAAAAAAAAAIAAA2A2AAA22A2AAAAAAA2
AAAAAAAIAAA2AA2AAAA22I2AA2A222AAAAAAAAAAAAIAAA2A2AAA22A2AAAAAAA2
AAAAAAAIAAA2AA2AAAA22I2AA2A222AAAAAAAAAAAAAAAA2A2AAA22A2AAAAAAA2
AAAAAAAIAAA2AA2AAAA22I2AA2A222AAAAAAAAAAAAAAAA2A2AAAA2A2AAAAAAA2
AAAAAAAIAAA2AA2AAAA22I2AA2A222AAAAAAAAAAAAAAAA2A2AAAA2A2AAAAAAAA
AAAAAAAIAAA2AA2AAAA22I2AA2A222AAAAAAAAAAAAAAAA2A2AAAA2A2AAAAAAIA
AAAAAAAIAAA2AA2AAAA22I2AA2A222AAAAAAAAAAAAAAAA2A2AIAA2A2AAAAAAIA
AAAAAAAIAAA2AA2AAAA22I2AA2A222AIAAAAAAAAAAAAAA2A2AIAA2A2AAAAAAIA
AAAAAAAIAAA2AA2AAAA22A2AA2A222A4AAAAAAAAAAAAAA2A2AIAA2A2AAAAAAIA
AAAAAAA2AAA2AA2AAAA22A2AA2A222A4AAAAAAAAAAAAAA2A2AIAA2A2AAAAAAIA
AAAAAAA2AAA2AA2AAAA22A2AA2A222A4AAAAAAAAAAAAAA2A2AIAA2A2AAAAAA4A
AAAAAAA2AAA2AA2AAAA22A2AA2A222A4AAAAAAAAAAAAAA2A2A4AA2A2AAAAAA4A
AAAAAAA2AAA2AA2AAAA22A2AA2A222A4AAAAAAAAAAAAAA2A2A4AA2A2AAAAAA2A
AAAAAAA2AIA2AA2AAAA22A2AA2A222A4AAAAAAAAAAAAAA2A2A4AA2A2AAAAAA2A
AAAAAAA2A4A2AA2AAAA22A2AA2A222A4AAAAAAAAAAAAAA2A2A4AA2A2AAAAAA2A
AAAAAAA2A4A2AA2AAAA22A2AA2A222A4AAAAAAAAAAAAAA2A2A2AA2A2AAAAAA2A
AAAAAAA2A4A2AA2AAAA22A2AA2A222A4AIAAAAAAAAAAAA2A2A2AA2A2AAAAAA2A
AAAAAAA2A4A2AA2AAAA22A2AA2A222A4AIAAAAAAAAAAAA2A2A2AA2A2AAAAIA2A
AAAAAAA2A4A2AA2AAAA22A2AA2A222A4AIAAAAAAAAAAAA2A2A2AA2A2AAAAIAAA
AAAAAAA2A4A2AA2AAAA22A2AA2A222A4AIAAAAAIAAAAAA2A2A2AA2A2AAAAIAAA
AAAAAAA2A4A2AA2AAAA22A2AA2A222A4AIAAAAA4AAAAAA2A2A2AA2A2AAAAIAAA
AAAAAAA2A4A2AA2AAAA22A2AA2A222A4AIAAAAA4AAAAAA2A2A2AA2A2AAAA4AAA
AAAAAAA2A4A2AA2AAAA22A2AA2A222A4AIAAAAA4AAIAAA2A2A2AA2A2AAAA4AAA
AAAAAAA2A4A2AA2AAAA22A2AA2A222A4AAAAAAA4AA4AAA2A2A2AA2A2AAAA4AAA
AAAAAAA2A4A2AA2AAAA22A2AA2A222A4AAAAAAA4AAAAAA2A2A2AA2A2AAAA4AAA
AAAAAAA2A4A2AA2AAAA22A2AA2A222A4AAAAAAA4AAAAAA2A2A2AA2A2AAAA4AAI
AAAAAAA2A4A2AA2AAIA22A2AA2A222A4AAAAAAA4AAAAAA2A2A2AA2A2AAAA4AAI
AAAAAAA2A4A2AA2AA2A22A2AA2A222A4AAAAAAA4AAAAAA2A2A2AA2A2AAAA4AAI
AAAAAAA2A4A2AA2AA2A22A2AA2A222A4AAAAAAAAAAAAAA2A2A2AA2A2AAAA4AAI
AAAAAAA2A4A2AA2AA2A22A2AA2A222A4AAAAAAAAAAAAAA2A2A2AA2AAAAAA2AA4
AAAAAAA2A4A2AI2AA2A22A2AA2A222A4AAAAAAAAAAAAAA2A2A2AA2AAAAAA2AA4
AAAAAAA2A4A2AI2AA2A22A2AA2A222A4AAAAAAAAAAAAAA2AAA2AA2AAAAAA2AA4
AAAAAAA2A4A2AI2AA2A22A2AA2A222A4AAAAAAAAAAAAAA2AAA2AA2AAAAAA2AAA
AAAAAAA2A4A2AI2AA2A2AA2AA2A222A4AAAAAAAAAAAAAA2AAA2AA2AAAAAA2AAA
AAAAAAA2A4A2AI2AA2A2AA2AA2A222A4AAAAAAAAAAIAAA2AAA2AA2AAAAAA2AAA
AAAAAAA2A4A2AI2AA2A2AA2AA2A222A4AAAAAAAAAAIIAA2AAA2AA2AAAAAA2AAA
AAAAAAA2A4A2AI2AA2A2IA2AA2A222A4AAAAAAAAAAIIAA2AAA2AA2AAAAAA2AAA
AAAAAAA2A4A2AI2AAAA22A2AA2A222A4AAAAAAAAAAIIAA2AAA2AA2AAAAAA2AAA
AAAAAAA2A2A2AI2AAAA22A2AA2A222A4AAAAAAAAAAIIAA2AAA2AA2AAAAAA2AAA
AAAAAAA2A2A2AI2AAAA2IA2AA2A222A4AAAAAAAAAAIIAA2AAA2AA2AAAAAA2AAA
AAAAAAA2A2A2A22AAAA2IA2AA2A222A4AAAAAAAAAAIIAA2AAA2AA2AAAAAA2AAA
AAAAAAA2A2A2A22AAAA2IA2AA2A222A4AAAAAAAAAAA2AA2AAA2AA2AAAAAA2AAA
AAAAAAA2A2A2A22AAIA2IA2AA2A222A4AAAAAAAAAAA2AA2AAA2AA2AAAAAA2AAA
AAAAAAA2I2A2A22AAIA2IA2AA2A222A4AAAAAAAAAAA2AA2AAA2AA2AAAAAA2AAA
AAAAAAA2I2A2A22AA2A24A2AA2A222A4AAAAAAAAAAA2AA2AAA2AA2AAAAAA2AAA
AAAAAAA2I2A2A2AAA2A22A2AA2A222A4AAAAAAAAAAA2AA2AAA2AA2AAAAAA2AAA
AAAAAAA2I2A2A2AAA2A22A2AA2A222A4AAAAAAAAAAA2AA2AAAAAA2AAAAAA2AAA
AAAAAAA2I2A2A2IAA2A22A2AA2A222A4AAAAAAAAAAA2AA2AAAAAA2AAAAAA2AAA
AAAAAAA2I2A2A2IAA2A2IA2AA2A222A4AAAAAAAAAAA2AA2AAAAAA2AAAAAA2AAA
AAAAAAA2I2A2A2IAA2A2IA2AA2A222A4AAAAAAAAAAA2AA2AAAAAA2AAAAAAAAAA
AAAAAAA2I2A2A2IAA2A2II2AA2A222A4AAAAAAAAAAA2AA2AAAAAA2AAAAAAAAAA
AAAAAAA2I2A2A2IAA2A2II2AA2A222A4AAAAAAAAAAA2AA2AAAAAA2AAAAAAAAIA
AAAAAAA2I2A2A2IAA2A2IA2AA2A222A4AAAAAAAAAAA2AA2AAAAAA2AAAAAAAAIA
AAAAAAA2I2A2A2IAA2A2IA2AA2A222A4AAAAAAAAAAAAAA2AAAAAA2AAAAAAAAIA
AAAAAAA2I2A2A2IAA2A2IA2AA2A222A4AAAAAAAAAAAAAA2AAAAAA2AAAAAAAA2A
AAAAAAA2I2A2A2IAA2A2II2AA2A222A4AAAAAAAAAAAAAA2AAAAAA2AAAAAAAA2A
AAAAAAA2I2A2A2IAA2A2II2AA2A222A4AAAAAAAAAAAAAAAAAAAAA2AAAAAAAA2A
AAAAAAA2I2A2A2IAA2A2II2AA2A222A4AAAAAAAAAAAIAAAAAAAAA2AAAAAAAA2A
AAAAAAA2I2A2A2IAA2A2II2AA2A222A4AAAAAAAAAAAIAAAAAAAAA2AAAAAAIA2A
AAAAAAA2I2A2A2AAA2A2442AA2A222A4AAAAAAAAAAAIAAAAAAAAA2AAAAAAIA2A
AAAAAAA2I2A2A2AAA2A2442AA2A222A4AAAAAAAAAAA2AAAAAAAAA2AAAAAAIA2A
AAAAAAA2I2A2A2AAA2A2222AA2A222A4AAAAAAAAAAA2AAAAAAAAA2AAAAAAIA2A
AAAAAAA2A2A2A2AAA2A2222AA2A222A4AAAAAAAAAAA2AAAAAAAAA2AAAAAAIA2A
AAAAAAAAA2A2A2AAA2A2222AA2A222A4AAAAAAAAAAA2AAAAAAAAA2AAAAAAIA2A
AAAAAAAAA2A2A2AAAAA2222AA2A222A4AAAAAAAAAAA2AAAAAAAAA2AAAAAAIA2A
AAAAAAAAA2A2A2AAAAA2A22AA2A222A4AAAAAAAAAAA2AAAAAAAAA2AAAAAAIA2A
AAAAAAAAA2A2A2AIAAA2A22AA2A222A4AAAAAAAAAAA2AAAAAAAAA2AAAAAAIA2A
AAAAAAAAA2A2A2AIAAA2AA2AA2A222A4AAAAAAAAAAA2AAAAAAAAA2AAAAAAIA2A
AAAAAAAAA2A2A2AIAIA2AA2AA2A222A4AAAAAAAAAAA2AAAAAAAAA2AAAAAAIA2A
AAAAAAAAA2A2A2AIAIA2AI2AA2A222A4AAAAAAAAAAA2AAAAAAAAA2AAAAAAIA2A
AAAAAAAAA2A2A2A4AIA2AI2AA2A222A4AAAAAAAAAAA2AAAAAAAAA2AAAAAAIA2A
AAAAAAAAA2A2A2A4AIA2AA2AA2A222A4AAAAAAAAAAA2AAAAAAAAA2AAAAAAIA2A
AAAAAAAAA2A2A2A4AIA2AA2AA2A222A4AAAAAAAAAAI2AAAAAAAAA2AAAAAAIA2A
AAAAAAAAA2A2A2A4AIA2AA2AA2A222A2AAAAAAAAAA42AAAAAAAAA2AAAAAAIA2A
AAAAAAAAA2A2A2A4AAA2AA2AA2A222A2AAAAAAAAAA42AAAAAAAAA2AAAAAAIA2A
AAAAAAAAA2A2A2A4AAA2AA2AA2A222A2AAAAAAAAAAA2AAAAAAAAA2AAAAAAIA2A
AAAAAAAAA2A2A2A4AAA2AA2AA2A222A2AAAAAAAAAAA2AAAAAAAAA2AAAAAAIAAA
AAAAAAAAA2A2A2A4AAA2AA2AA2A222A2AAAAAAAAAAA2AAAAAAAAA2AAAAAIIAAA
AAAAAAAAA2A2A2A4AAA2AA2AA2A222A2AAAAAAAAAAA2AAAAAAAAA2AAAAA44AAA
AAAAAAAAA2A2A2A4AAA2AI2AA2A222A2AAAAAAAAAAA2AAAAAAAAA2AAAAA44AAA
AAAAAAAAA2A2A2I4AAA2AI2AA2A222A2AAAAAAAAAAA2AAAAAAAAA2AAAAA44AAA
AAAAAAAAAAA2A224AAA2A42AA2A222A2AAAAAAAAAAA2AAAAAAAAA2AAAAA44AAA
AAAAAAAAAAA2A224AAA2A22AA2A222A2AAAAAAAAAAA2AAAAAAAAA2AAAAA44AAA
AAAAAAAAAAA2A224AAA2A22AA2A222AAAAAAAAAAAAA2AAAAAAAAA2AAAAA44AAA
AAAAAAAAAAA2A224AAA2A22AA2A222AAAAAAAAAAAAA2AAAAAAAAA2AAAAA22AAA
AAAAAAAAAAA2A224AAA2A22AA2A222AAAAAAAAAAAAA2AAAAAAAAA2IAAAA22AAA
AAAAAAAAAAA2A224AIA2A22AA2A222AAAAAAAAAAAAA2AAAAAAAAA2IAAAA22AAA
AAAAAAAAAAA2A224AAA2A22AA2A222AAAAAAAAAAAAA2AAAAAAAAA2IAAAA22AAA
AAAAAAAAAAAAA224AAA2A22AA2A222AAAAAAAAAAAAA2AAAAAAAAA2IAAAA22AAA
AAAAAAAAAAAAA222AAA2A22AA2A222AAAAAAAAAAAAA2AAAAAAAAA2IAAAA22AAA
AAAAAAAAAAAAA2A2AAA2A22AA2A222AAAAAAAAAAAAA2AAAAAAAAA2IAAAA22AAA
AAAAAAAAAAAAA2AAAAA2A22AA2A222AAAAAAAAAAAAA2AAAAAAAAA2IAAAA22AAA
AAAAAAAAAAAAA2AAAAA2AA2AA2A222AAAAAAAAAAAAA2AAAAAAAAA2IAAAA22AAA
AAAAAAAAAAAAA2AAAAA2AAAAA2A222AAAAAAAAAAAAA2AAAAAAAAA2IAAAA22AAA
AAAAAAAAAAAAA2AAAAA2AAAAA2A22AAAAAAAAAAAAAA2AAAAAAAAA2IAAAA22AAA
AAAAAAAAAAAAA2AAAAA2AAAAA2A22AAAAAAAAAAAAAA2AAAAAAAAA24AAAA22AAA
AAAAAAAAAAAAA2AAAAA2AAAAA2A22AAAAAAAAAAAAAAAAAAAAAAAA24AAAA22AAA
AAAAAAAAAAAAA2AAAAA2AAAAA2A22AAAAAAAAAAAAAAAAAAAAAAAA24AAAAA2AAA
AAAAAAAAAAAAA2AIAAA2AAAAA2A22AAAAAAAAAAAAAAAAAAAAAAAA24AAAAA2AAA
AAAAAAAAAAAAA2AIAAA2AAAAA2A22IAAAAAAAAAAAAAAAAAAAAAAA24AAAAA2AAA
AAAAAAAAAAAAA2AIAAA2AAAAA2A22IAAAAAAAAAAAAAIAAAAAAAAA24AAAAA2AAA
[MLOP] Prefetch Degree Mean: 10.98363
[MLOP] Prefetch Degree SD: 2.59835
[MLOP] Max Score Left Mean (%): 52.83342
[MLOP] Max Score Left SD (%): 10.14069
[MLOP] Max Score Right Mean (%): 82.39059
[MLOP] Max Score Right SD (%): 12.41283

Channel_0_RQ_row_buffer_hit 316599
Channel_0_RQ_row_buffer_miss 820434
Channel_0_WQ_row_buffer_hit 196655
Channel_0_WQ_row_buffer_miss 197037
Channel_0_WQ_full 0
Channel_0_dbus_congested 409149

avg_congested_cycle 10

DRAM_bw_pochs 703148
DRAM_bw_level_0 616685
DRAM_bw_level_1 70845
DRAM_bw_level_2 8271
DRAM_bw_level_3 7347
