*************************************************
   ChampSim Multicore Out-of-Order Simulator
   Last compiled: Apr  3 2025 20:54:34
*************************************************
parsing config file: /home/zir/Pythia/config/mlop.ini

trace_0 /home/zir/ChampSim/ML-DPC/ChampSimTraces/gap/cc-5.trace.gz
adding L2C_PREFETCHER: MLOP
Initialize SHIP state
warmup_instructions 10000000
simulation_instructions 50000000
champsim_seed 53
measure_ipc 0
measure_ipc_epoch 1000
measure_dram_bw 1
measure_dram_bw_epoch 256
measure_cache_acc 1
measure_cache_acc_epoch 1024
l1d_perfect 0
l2c_perfect 0
llc_perfect 0
l1d_semi_perfect 0
l2c_semi_perfect 0
llc_semi_perfect 0
semi_perfect_cache_page_buffer_size 64

num_cpus 1
cpu_freq 4000
dram_io_freq 2400
page_size 4096
block_size 64
max_read_per_cycle 8
max_fill_per_cycle 1
dram_channels 1
log2_dram_channels 0
dram_ranks 1
dram_banks 8
dram_rows 65536
dram_columns 128
dram_row_size 8
dram_size 4096
dram_pages 1048576

fetch_width 6
decode_width 6
exec_width 4
lq_width 2
sq_width 2
retire_width 4
scheduler_size 128
branch_mispredict_penalty 20
rob_size 256
lq_size 72
sq_size 56
num_instr_destinations_sparc 4
num_instr_destinations 2
num_instr_sources 4

itlb_set 16
itlb_way 8
itlb_rq_size 16
itlb_wq_size 16
itlb_pq_size 0
itlb_mshr_size 8
itlb_latency 1

dtlb_set 16
dtlb_way 4
dtlb_rq_size 16
dtlb_wq_size 16
dtlb_pq_size 0
dtlb_mshr_size 8
dtlb_latency 1

stlb_set 128
stlb_way 12
stlb_rq_size 32
stlb_wq_size 32
stlb_pq_size 0
stlb_mshr_size 16
stlb_latency 8

l1i_size 32
l1i_set 64
l1i_way 8
l1i_rq_size 64
l1i_wq_size 64
l1i_pq_size 8
l1i_mshr_size 8
l1i_latency 1

l1d_size 32
l1d_set 64
l1d_way 8
l1d_rq_size 64
l1d_wq_size 64
l1d_pq_size 8
l1d_mshr_size 16
l1d_latency 4

l2c_size 256
l2c_set 512
l2c_way 8
l2c_rq_size 32
l2c_wq_size 32
l2c_pq_size 32
l2c_mshr_size 32
l2c_latency 10

llc_size 2048
llc_set 2048
llc_way 16
llc_rq_size 32
llc_wq_size 32
llc_pq_size 32
llc_mshr_size 64
llc_latency 20

dram_channel_width 8
dram_wq_size 64
dram_rq_size 64
tRP 15
tRCD 15
tCAS 12.5
dram_dbus_turn_around_time 30
dram_write_high_wm 56
dram_write_low_wm 48
min_dram_writes_per_switch 16
dram_mtps 2400
dram_dbus_return_time 13

mlop_pref_degree 16
mlop_num_updates 500
mlop_l1d_thresh 2
mlop_l2c_thresh 0.75
mlop_llc_thresh 0.3
mlop_debug_level 0
mlop_blocks_in_cache 4096
mlop_blocks_in_zone 64
mlop_amt_size 2048
mlop_PF_DEGREE 16
mlop_NUM_UPDATES 500
mlop_L1D_THRESH 1000
mlop_L2C_THRESH 375
mlop_LLC_THRESH 150
mlop_ORIGIN 63
mlop_MAX_OFFSET 63
mlop_MIN_OFFSET -63
mlop_ORIGIN 63
mlop_NUM_OFFSETS 127


Heartbeat CPU  0 instructions:    1000001 cycles:     262077 heartbeat IPC: 3.81568 cumulative IPC: 3.81568 (Simulation time: 0 hr 0 min 2 sec) 
Heartbeat CPU  0 instructions:    2000001 cycles:     810987 heartbeat IPC: 1.82179 cumulative IPC: 2.46613 (Simulation time: 0 hr 0 min 3 sec) 
Heartbeat CPU  0 instructions:    3000000 cycles:    2160094 heartbeat IPC: 0.74123 cumulative IPC: 1.38883 (Simulation time: 0 hr 0 min 4 sec) 
Heartbeat CPU  0 instructions:    4000000 cycles:    3379106 heartbeat IPC: 0.82034 cumulative IPC: 1.18375 (Simulation time: 0 hr 0 min 5 sec) 
Heartbeat CPU  0 instructions:    5000000 cycles:    4502288 heartbeat IPC: 0.89033 cumulative IPC: 1.11055 (Simulation time: 0 hr 0 min 6 sec) 
Heartbeat CPU  0 instructions:    6000001 cycles:    5554350 heartbeat IPC: 0.95052 cumulative IPC: 1.08023 (Simulation time: 0 hr 0 min 7 sec) 
Heartbeat CPU  0 instructions:    7000003 cycles:    6581089 heartbeat IPC: 0.97396 cumulative IPC: 1.06365 (Simulation time: 0 hr 0 min 8 sec) 
Heartbeat CPU  0 instructions:    8000000 cycles:    7601184 heartbeat IPC: 0.98030 cumulative IPC: 1.05247 (Simulation time: 0 hr 0 min 10 sec) 
Heartbeat CPU  0 instructions:    9000000 cycles:    8563029 heartbeat IPC: 1.03967 cumulative IPC: 1.05103 (Simulation time: 0 hr 0 min 11 sec) 
Heartbeat CPU  0 instructions:   10000002 cycles:    9489045 heartbeat IPC: 1.07990 cumulative IPC: 1.05385 (Simulation time: 0 hr 0 min 12 sec) 

Warmup complete CPU  0 instructions:   10000002 cycles:    9489045 (Simulation time: 0 hr 0 min 12 sec) 

Heartbeat CPU  0 instructions:   11000002 cycles:   14746346 heartbeat IPC: 0.19021 cumulative IPC: 0.19021 (Simulation time: 0 hr 0 min 14 sec) 
Heartbeat CPU  0 instructions:   12000000 cycles:   19832065 heartbeat IPC: 0.19663 cumulative IPC: 0.19337 (Simulation time: 0 hr 0 min 16 sec) 
Heartbeat CPU  0 instructions:   13000001 cycles:   24705120 heartbeat IPC: 0.20521 cumulative IPC: 0.19716 (Simulation time: 0 hr 0 min 19 sec) 
Heartbeat CPU  0 instructions:   14000002 cycles:   29018334 heartbeat IPC: 0.23185 cumulative IPC: 0.20482 (Simulation time: 0 hr 0 min 21 sec) 
Heartbeat CPU  0 instructions:   15000002 cycles:   33243153 heartbeat IPC: 0.23670 cumulative IPC: 0.21049 (Simulation time: 0 hr 0 min 23 sec) 
Heartbeat CPU  0 instructions:   16000000 cycles:   37635728 heartbeat IPC: 0.22766 cumulative IPC: 0.21317 (Simulation time: 0 hr 0 min 25 sec) 
Heartbeat CPU  0 instructions:   17000002 cycles:   42275061 heartbeat IPC: 0.21555 cumulative IPC: 0.21351 (Simulation time: 0 hr 0 min 27 sec) 
Heartbeat CPU  0 instructions:   18000001 cycles:   46556704 heartbeat IPC: 0.23355 cumulative IPC: 0.21582 (Simulation time: 0 hr 0 min 30 sec) 
Heartbeat CPU  0 instructions:   19000000 cycles:   50943431 heartbeat IPC: 0.22796 cumulative IPC: 0.21711 (Simulation time: 0 hr 0 min 32 sec) 
Heartbeat CPU  0 instructions:   20000000 cycles:   55362987 heartbeat IPC: 0.22627 cumulative IPC: 0.21799 (Simulation time: 0 hr 0 min 34 sec) 
Heartbeat CPU  0 instructions:   21000001 cycles:   59854231 heartbeat IPC: 0.22266 cumulative IPC: 0.21840 (Simulation time: 0 hr 0 min 36 sec) 
Heartbeat CPU  0 instructions:   22000002 cycles:   64382654 heartbeat IPC: 0.22083 cumulative IPC: 0.21860 (Simulation time: 0 hr 0 min 38 sec) 
Heartbeat CPU  0 instructions:   23000001 cycles:   68844809 heartbeat IPC: 0.22411 cumulative IPC: 0.21902 (Simulation time: 0 hr 0 min 41 sec) 
Heartbeat CPU  0 instructions:   24000000 cycles:   73279913 heartbeat IPC: 0.22547 cumulative IPC: 0.21947 (Simulation time: 0 hr 0 min 43 sec) 
Heartbeat CPU  0 instructions:   25000001 cycles:   77467921 heartbeat IPC: 0.23878 cumulative IPC: 0.22066 (Simulation time: 0 hr 0 min 45 sec) 
Heartbeat CPU  0 instructions:   26000001 cycles:   81824891 heartbeat IPC: 0.22952 cumulative IPC: 0.22119 (Simulation time: 0 hr 0 min 47 sec) 
Heartbeat CPU  0 instructions:   27000002 cycles:   86043114 heartbeat IPC: 0.23707 cumulative IPC: 0.22207 (Simulation time: 0 hr 0 min 50 sec) 
Heartbeat CPU  0 instructions:   28000000 cycles:   90279345 heartbeat IPC: 0.23606 cumulative IPC: 0.22280 (Simulation time: 0 hr 0 min 52 sec) 
Heartbeat CPU  0 instructions:   29000000 cycles:   94530784 heartbeat IPC: 0.23521 cumulative IPC: 0.22342 (Simulation time: 0 hr 0 min 54 sec) 
Heartbeat CPU  0 instructions:   30000001 cycles:   98660973 heartbeat IPC: 0.24212 cumulative IPC: 0.22429 (Simulation time: 0 hr 0 min 56 sec) 
Heartbeat CPU  0 instructions:   31000000 cycles:  102900290 heartbeat IPC: 0.23589 cumulative IPC: 0.22481 (Simulation time: 0 hr 0 min 59 sec) 
Heartbeat CPU  0 instructions:   32000000 cycles:  107221300 heartbeat IPC: 0.23143 cumulative IPC: 0.22510 (Simulation time: 0 hr 1 min 1 sec) 
Heartbeat CPU  0 instructions:   33000003 cycles:  111385945 heartbeat IPC: 0.24012 cumulative IPC: 0.22572 (Simulation time: 0 hr 1 min 3 sec) 
Heartbeat CPU  0 instructions:   34000001 cycles:  115488428 heartbeat IPC: 0.24375 cumulative IPC: 0.22642 (Simulation time: 0 hr 1 min 5 sec) 
Heartbeat CPU  0 instructions:   35000003 cycles:  119694521 heartbeat IPC: 0.23775 cumulative IPC: 0.22685 (Simulation time: 0 hr 1 min 7 sec) 
Heartbeat CPU  0 instructions:   36000000 cycles:  123753672 heartbeat IPC: 0.24636 cumulative IPC: 0.22754 (Simulation time: 0 hr 1 min 10 sec) 
Heartbeat CPU  0 instructions:   37000002 cycles:  128248311 heartbeat IPC: 0.22249 cumulative IPC: 0.22735 (Simulation time: 0 hr 1 min 12 sec) 
Heartbeat CPU  0 instructions:   38000001 cycles:  132404978 heartbeat IPC: 0.24058 cumulative IPC: 0.22780 (Simulation time: 0 hr 1 min 14 sec) 
Heartbeat CPU  0 instructions:   39000002 cycles:  136610760 heartbeat IPC: 0.23777 cumulative IPC: 0.22813 (Simulation time: 0 hr 1 min 16 sec) 
Heartbeat CPU  0 instructions:   40000000 cycles:  140743182 heartbeat IPC: 0.24199 cumulative IPC: 0.22856 (Simulation time: 0 hr 1 min 19 sec) 
Heartbeat CPU  0 instructions:   41000003 cycles:  145244518 heartbeat IPC: 0.22216 cumulative IPC: 0.22835 (Simulation time: 0 hr 1 min 21 sec) 
Heartbeat CPU  0 instructions:   42000000 cycles:  149358800 heartbeat IPC: 0.24306 cumulative IPC: 0.22878 (Simulation time: 0 hr 1 min 23 sec) 
Heartbeat CPU  0 instructions:   43000001 cycles:  153401873 heartbeat IPC: 0.24734 cumulative IPC: 0.22931 (Simulation time: 0 hr 1 min 25 sec) 
Heartbeat CPU  0 instructions:   44000000 cycles:  157325171 heartbeat IPC: 0.25489 cumulative IPC: 0.22998 (Simulation time: 0 hr 1 min 28 sec) 
Heartbeat CPU  0 instructions:   45000002 cycles:  161234087 heartbeat IPC: 0.25583 cumulative IPC: 0.23065 (Simulation time: 0 hr 1 min 30 sec) 
Heartbeat CPU  0 instructions:   46000000 cycles:  164950413 heartbeat IPC: 0.26908 cumulative IPC: 0.23157 (Simulation time: 0 hr 1 min 32 sec) 
Heartbeat CPU  0 instructions:   47000002 cycles:  169093054 heartbeat IPC: 0.24139 cumulative IPC: 0.23182 (Simulation time: 0 hr 1 min 34 sec) 
Heartbeat CPU  0 instructions:   48000000 cycles:  173173951 heartbeat IPC: 0.24504 cumulative IPC: 0.23215 (Simulation time: 0 hr 1 min 37 sec) 
Heartbeat CPU  0 instructions:   49000002 cycles:  177328060 heartbeat IPC: 0.24073 cumulative IPC: 0.23237 (Simulation time: 0 hr 1 min 39 sec) 
Heartbeat CPU  0 instructions:   50000001 cycles:  181344197 heartbeat IPC: 0.24900 cumulative IPC: 0.23275 (Simulation time: 0 hr 1 min 41 sec) 
Heartbeat CPU  0 instructions:   51000002 cycles:  185538778 heartbeat IPC: 0.23840 cumulative IPC: 0.23289 (Simulation time: 0 hr 1 min 43 sec) 
Heartbeat CPU  0 instructions:   52000000 cycles:  189636990 heartbeat IPC: 0.24401 cumulative IPC: 0.23314 (Simulation time: 0 hr 1 min 46 sec) 
Heartbeat CPU  0 instructions:   53000003 cycles:  194081231 heartbeat IPC: 0.22501 cumulative IPC: 0.23295 (Simulation time: 0 hr 1 min 48 sec) 
Heartbeat CPU  0 instructions:   54000000 cycles:  198371072 heartbeat IPC: 0.23311 cumulative IPC: 0.23295 (Simulation time: 0 hr 1 min 51 sec) 
Heartbeat CPU  0 instructions:   55000003 cycles:  202942043 heartbeat IPC: 0.21877 cumulative IPC: 0.23261 (Simulation time: 0 hr 1 min 53 sec) 
Heartbeat CPU  0 instructions:   56000000 cycles:  207114862 heartbeat IPC: 0.23965 cumulative IPC: 0.23276 (Simulation time: 0 hr 1 min 55 sec) 
Heartbeat CPU  0 instructions:   57000000 cycles:  211338555 heartbeat IPC: 0.23676 cumulative IPC: 0.23285 (Simulation time: 0 hr 1 min 58 sec) 
Heartbeat CPU  0 instructions:   58000001 cycles:  215521046 heartbeat IPC: 0.23909 cumulative IPC: 0.23297 (Simulation time: 0 hr 2 min 0 sec) 
Heartbeat CPU  0 instructions:   59000002 cycles:  219751239 heartbeat IPC: 0.23640 cumulative IPC: 0.23304 (Simulation time: 0 hr 2 min 2 sec) 
Heartbeat CPU  0 instructions:   60000000 cycles:  223808213 heartbeat IPC: 0.24649 cumulative IPC: 0.23330 (Simulation time: 0 hr 2 min 4 sec) 
Finished CPU 0 instructions: 50000000 cycles: 214319178 cumulative IPC: 0.23330 (Simulation time: 0 hr 2 min 4 sec) 

ChampSim completed all CPUs

[ROI Statistics]
Core_0_instructions 50000000
Core_0_cycles 214319178
Core_0_IPC 0.23330

Core_0_branch_prediction_accuracy 93.17130
Core_0_branch_MPKI 13.49384
Core_0_average_ROB_occupancy_at_mispredict 63.08096

Core_0_L1D_total_access 10353192
Core_0_L1D_total_hit 6698601
Core_0_L1D_total_miss 3654591
Core_0_L1D_loads 10114942
Core_0_L1D_load_hit 6460351
Core_0_L1D_load_miss 3654591
Core_0_L1D_RFOs 238250
Core_0_L1D_RFO_hit 238250
Core_0_L1D_RFO_miss 0
Core_0_L1D_prefetches 0
Core_0_L1D_prefetch_hit 0
Core_0_L1D_prefetch_miss 0
Core_0_L1D_writebacks 0
Core_0_L1D_writeback_hit 0
Core_0_L1D_writeback_miss 0
Core_0_L1D_prefetch_requested 0
Core_0_L1D_prefetch_dropped 0
Core_0_L1D_prefetch_issued 0
Core_0_L1D_prefetch_filled 0
Core_0_L1D_prefetch_useful 0
Core_0_L1D_prefetch_useless 0
Core_0_L1D_prefetch_late 0
Core_0_L1D_average_miss_latency 78.61860

Core_0_L1D_rq_access 13265238
Core_0_L1D_rq_forward 0
Core_0_L1D_rq_merged 2968797
Core_0_L1D_rq_to_cache 10296441
Core_0_L1D_rq_full 0

Core_0_L1D_wq_access 238250
Core_0_L1D_wq_forward 0
Core_0_L1D_wq_merged 0
Core_0_L1D_wq_to_cache 238250
Core_0_L1D_wq_full 0

Core_0_L1D_pq_access 0
Core_0_L1D_pq_forward 0
Core_0_L1D_pq_merged 0
Core_0_L1D_pq_to_cache 0
Core_0_L1D_pq_full 0

Core_0_L1D_acc_epochs 218227
Core_0_L1D_acc_level_0 218227
Core_0_L1D_acc_level_1 0
Core_0_L1D_acc_level_2 0
Core_0_L1D_acc_level_3 0
Core_0_L1D_acc_level_4 0
Core_0_L1D_acc_level_5 0
Core_0_L1D_acc_level_6 0
Core_0_L1D_acc_level_7 0
Core_0_L1D_acc_level_8 0
Core_0_L1D_acc_level_9 0

Core_0_L1I_total_access 9738720
Core_0_L1I_total_hit 9738720
Core_0_L1I_total_miss 0
Core_0_L1I_loads 9738720
Core_0_L1I_load_hit 9738720
Core_0_L1I_load_miss 0
Core_0_L1I_RFOs 0
Core_0_L1I_RFO_hit 0
Core_0_L1I_RFO_miss 0
Core_0_L1I_prefetches 0
Core_0_L1I_prefetch_hit 0
Core_0_L1I_prefetch_miss 0
Core_0_L1I_writebacks 0
Core_0_L1I_writeback_hit 0
Core_0_L1I_writeback_miss 0
Core_0_L1I_prefetch_requested 0
Core_0_L1I_prefetch_dropped 0
Core_0_L1I_prefetch_issued 0
Core_0_L1I_prefetch_filled 0
Core_0_L1I_prefetch_useful 0
Core_0_L1I_prefetch_useless 0
Core_0_L1I_prefetch_late 0
Core_0_L1I_average_miss_latency -nan

Core_0_L1I_rq_access 50000225
Core_0_L1I_rq_forward 0
Core_0_L1I_rq_merged 40261505
Core_0_L1I_rq_to_cache 9738720
Core_0_L1I_rq_full 0

Core_0_L1I_wq_access 0
Core_0_L1I_wq_forward 0
Core_0_L1I_wq_merged 0
Core_0_L1I_wq_to_cache 0
Core_0_L1I_wq_full 0

Core_0_L1I_pq_access 0
Core_0_L1I_pq_forward 0
Core_0_L1I_pq_merged 0
Core_0_L1I_pq_to_cache 0
Core_0_L1I_pq_full 0

Core_0_L1I_acc_epochs 218227
Core_0_L1I_acc_level_0 218227
Core_0_L1I_acc_level_1 0
Core_0_L1I_acc_level_2 0
Core_0_L1I_acc_level_3 0
Core_0_L1I_acc_level_4 0
Core_0_L1I_acc_level_5 0
Core_0_L1I_acc_level_6 0
Core_0_L1I_acc_level_7 0
Core_0_L1I_acc_level_8 0
Core_0_L1I_acc_level_9 0

Core_0_L2C_total_access 4441357
Core_0_L2C_total_hit 1105658
Core_0_L2C_total_miss 3335699
Core_0_L2C_loads 3654591
Core_0_L2C_load_hit 900582
Core_0_L2C_load_miss 2754009
Core_0_L2C_RFOs 0
Core_0_L2C_RFO_hit 0
Core_0_L2C_RFO_miss 0
Core_0_L2C_prefetches 581525
Core_0_L2C_prefetch_hit 7
Core_0_L2C_prefetch_miss 581518
Core_0_L2C_writebacks 205241
Core_0_L2C_writeback_hit 205069
Core_0_L2C_writeback_miss 172
Core_0_L2C_prefetch_requested 1202414
Core_0_L2C_prefetch_dropped 0
Core_0_L2C_prefetch_issued 1202414
Core_0_L2C_prefetch_filled 646607
Core_0_L2C_prefetch_useful 274790
Core_0_L2C_prefetch_useless 371495
Core_0_L2C_prefetch_late 1561
Core_0_L2C_average_miss_latency 77.98288

Core_0_L2C_rq_access 3654591
Core_0_L2C_rq_forward 0
Core_0_L2C_rq_merged 0
Core_0_L2C_rq_to_cache 3654591
Core_0_L2C_rq_full 0

Core_0_L2C_wq_access 205241
Core_0_L2C_wq_forward 0
Core_0_L2C_wq_merged 0
Core_0_L2C_wq_to_cache 205241
Core_0_L2C_wq_full 0

Core_0_L2C_pq_access 1202414
Core_0_L2C_pq_forward 0
Core_0_L2C_pq_merged 11264
Core_0_L2C_pq_to_cache 1191150
Core_0_L2C_pq_full 0

Core_0_L2C_acc_epochs 218227
Core_0_L2C_acc_level_0 6867
Core_0_L2C_acc_level_1 12186
Core_0_L2C_acc_level_2 28241
Core_0_L2C_acc_level_3 42853
Core_0_L2C_acc_level_4 38830
Core_0_L2C_acc_level_5 26509
Core_0_L2C_acc_level_6 23947
Core_0_L2C_acc_level_7 15930
Core_0_L2C_acc_level_8 9953
Core_0_L2C_acc_level_9 12911

Core_0_LLC_total_access 3955285
Core_0_LLC_total_hit 2884386
Core_0_LLC_total_miss 1070899
Core_0_LLC_loads 2752484
Core_0_LLC_load_hit 1917580
Core_0_LLC_load_miss 834904
Core_0_LLC_RFOs 0
Core_0_LLC_RFO_hit 0
Core_0_LLC_RFO_miss 0
Core_0_LLC_prefetches 997793
Core_0_LLC_prefetch_hit 762407
Core_0_LLC_prefetch_miss 235386
Core_0_LLC_writebacks 205008
Core_0_LLC_writeback_hit 204399
Core_0_LLC_writeback_miss 609
Core_0_LLC_prefetch_requested 0
Core_0_LLC_prefetch_dropped 0
Core_0_LLC_prefetch_issued 0
Core_0_LLC_prefetch_filled 327829
Core_0_LLC_prefetch_useful 26133
Core_0_LLC_prefetch_useless 295993
Core_0_LLC_prefetch_late 41
Core_0_LLC_average_miss_latency 186.83128

Core_0_LLC_rq_access 2752484
Core_0_LLC_rq_forward 0
Core_0_LLC_rq_merged 0
Core_0_LLC_rq_to_cache 2752484
Core_0_LLC_rq_full 0

Core_0_LLC_wq_access 205008
Core_0_LLC_wq_forward 0
Core_0_LLC_wq_merged 0
Core_0_LLC_wq_to_cache 205008
Core_0_LLC_wq_full 0

Core_0_LLC_pq_access 1176420
Core_0_LLC_pq_forward 0
Core_0_LLC_pq_merged 1121
Core_0_LLC_pq_to_cache 1175299
Core_0_LLC_pq_full 0

Core_0_LLC_acc_epochs 218563
Core_0_LLC_acc_level_0 200748
Core_0_LLC_acc_level_1 6519
Core_0_LLC_acc_level_2 4960
Core_0_LLC_acc_level_3 513
Core_0_LLC_acc_level_4 161
Core_0_LLC_acc_level_5 3310
Core_0_LLC_acc_level_6 313
Core_0_LLC_acc_level_7 271
Core_0_LLC_acc_level_8 273
Core_0_LLC_acc_level_9 1495

Core_0_major_page_fault 0
Core_0_minor_page_fault 5096

[MLOP] History of tracked zone:
IIIIIIIIIIIIIIIIIIIIIIIIIIIIIIIIIIIIIIIIIIIIIIIIIIIIIIIIIIIIIIII
IIIAIIIIIIIIIIIIIIIIIIIIIIIIIIIIIIIIIIIIIIIIIIIIIIIIIIIIIIIIIIII
IIIAIIIIIIIIIIIAIIIIIIIIIIIIIIIIIIIIIIIIIIIIIIIIIIIIIIIIIIIIIIII
IIIAIIIIIIIIIIIAIIIIIIIIIIIIIIIIIIIIIIIIIIIIIIIAIIIIIIIIIIIIIIII
IIIAIIIIIIIIAIIAIIIIIIIIIIIIIIIIIIIIIIIIIIIIIIIAIIIIIIIIIIIIIIII
IIIAIIIIIIIIAIIAIIIIIIIIIIIIIIIIIIIIIIIIIIIIIIIAIIIIIIIIIIAIIIII
IIIAIIIIIIIIAIIAIIIIIIIAIIIIIIIIIIIIIIIIIIIIIIIAIIIIIIIIIIAIIIII
IIIAIIIIIIIIAIIAIIIIIIIAAIIIIIIIIIIIIIIIIIIIIIIAIIIIIIIIIIAIIIII
IIIAIIIIIIIIAIIAIIIIIIIAAIIIIIIIIAIIIIIIIIIIIIIAIIIIIIIIIIAIIIII
AIIAIIIIIIIIAIIAIIIIIIIAAIIIIIIIIAIIIIIIIIIIIIIAIIIIIIIIIIAIIIII
AIIAIIIIIIIIAIIAIIIIIIIAAIIIIIIIIAIIIIIIIIIAIIIAIIIIIIIIIIAIIIII
AIIAIIIIIIIIAIIAIIIIIIIAAIIIIIIIIAIIIIIIIIIAIIIAIIIIAIIIIIAIIIII
AIIAIIIIIIIIAIIAIAIIIIIAAIIIIIIIIAIIIIIIIIIAIIIAIIIIAIIIIIAIIIII
AIIAIIIIIAIIAIIAIAIIIIIAAIIIIIIIIAIIIIIIIIIAIIIAIIIIAIIIIIAIIIII
AIIAIIIIIAIIAIIAIAIIIIIAAIIIIIIIIAIIIIIIIIAAIIIAIIIIAIIIIIAIIIII
AIIAIIIIIAIIAIIAIAIIIIIAAI4IIIIIIAIIIIIIIIAAIIIAIIIIAIIIIIAIIIII
AIIAI4IIIAIIAIIAIAIIIIIAAI4IIIIIIAIIIIIIIIAAIIIAIIIIAIIIIIAIIIII
AIIAI4IIIAIIAIIAIAIIIIIAAI4IIIIIIAIIIIIIIIAA4IIAIIIIAIIIIIAIIIII
AIIAI4IIIAIIAIIAIAIIIIIAAI4IIIIIIAIIIIIIIIAA4IIAIIIIAIIIIAA4IIII
AIIAI4IIIAIIAIIAIAIIIIIAAI4IIIIIIAIIIIIIIIAA4IIAIIIIAIIIIAA4IAI4
A4IAI44IIAIIAIIAIAIIIIIAAI4IIIIIIAIIIIIIIIAA4IIAIIIIAIIIIAA4IAI4
A4IAI44IIAIIAIIAIAIIIIIAAI4IIA4IIAI4IIIIIIAA4IIAIIIIAIIIIAA4IAI4
A4IAI44IIAIIAIIAIAIIIIIAAI4IIA4IIAI4IIA4IIAA4IIAIIIIAIIIIAA4IAI4
A4IAI44IIAIIAIIAIAIIIIIAAI4IIA4IIAI4IIA4IIAA4IIA4IIIAIIIIAA4IAI4
A4IAI44IIAIIAIIAIAIIIIIAAI4IIA4IIAI4IIA4IIAA4IAA4IIIAIIIIAA4IAI4
A4IAI44A4AIIAIIAIA4IIIIAAI4IIA4IIAI4IIA4IIAA4IAA4IIIAIIIIAA4IAI4
A44AI44A4AIIAIIAIA4IIIIAAI4IIA4IIAI4IIA4IIAA4IAA4IIIAIIIIAA4IAI4
A4AA444A4AIIAIIAIA4IIIIAAI4IIA4IIAI4IIA4IIAA4IAA4IIIAIIIIAA4IAI4
A4AA444A4A4IAIIAIA4IIIIAAI4IIA4IIAI4IIA4IIAA4IAA4IIIAIIIIAA4IAI4
A4AA444A4A4IAIIAIA4IIIIAAI4IIA444AI4IIA4IIAA4IAA4IIIAIIIIAA4IAI4
A4AA444A4A4IAIIAIA4IIIIAAI4IIA444AI4IIA4IIAA4IAA4IAIAIII4AA4IAI4
A4AA444A4A4IAIIAIA44II4AAI4IIA444AI4IIA4IIAA4IAA4IAIAIII4AA4IAI4
A4AA444A4A4IAIIAIA44I44AA44IIA444AI4IIA4IIAA4IAA4IAIAIII4AA4IAI4
A4AA444A4A4IAI4AIA44I44AA44IIA444AI4IIA4IIAA4IAA4IAIAIII4AA4IAI4
A4AA444A4A4IAI4AIA44I44AA44IIA444AA4IIA444AA44AA4IAIAIII4AA4IAI4
A4AA444A4A4IAI4AIA44I44AA44IIA444AA4IIA444AA44AA44AIAIII4AA4IAI4
A4AA444A4A4IAI4AIA44I44AA44IIA444AA4IIA444AA44AA44AIAIIA4AA44AI4
A4AA444A4A4IAI4AIA44I44AA44IIA444AA4I4A444AA44AA44AIAIIA4AA44AI4
A4AA444A4A4IAI4A4A44I44AA44IIA444AA4I4A444AA44AA44AIAIIA4AA44AI4
A4AAA44A4A44AI4A4A44I44AA44IIA444AA4I4A444AA44AA44AIAIIA4AA44AI4
AAAAA44A4A44A44A4A44I44AA44IIA444AA4I4A444AA44AA44AIAIIA4AA44AI4
AAAAA44A4A44A44A4A44I44AA44IIA444AA4I4A444AA44AA44AIAIIA4AAA4A44
AAAAA44A4A44A44A4A44I44AA44IIA444AA4I4A444AA44AA44AIA4IA4AAA4A44
AAAAA44A4A44A44A4A44I44AA44I4A444AA4I4A444AA44AA44AIA4IA4AAA4A44
AAAAA44A4A44AA4A4A44444AA4444A444AA4I4A444AA44AA44AIA4IA4AAA4A44
AAAAA44A4A44AA4A4A44444AA4444A444AA4I4A444AA44AA44AIA44A4AAA4A44
AAAAA44AAA44AA4A4A44444AA4444A444AA4I4A444AA44AA44AIA44A4AAA4A44
AAAAA44AAA44AA4A4A44444AA4444A444AA4I4AA44AA44AA44AIA44A4AAA4A44
AAAAA44AAA44AA4A4A44444AA4444A444AA4A4AA44AA44AA44AIA44A4AAA4A44
AAAAA44AAA44AA4A4A44444AA4444A444AA4A4AA44AA44AA44A4A44A4AAA4A44
AAAAA44AAA44AA4A4A44444AA4444A444AA4A4AA44AA44AA44A4AA4A4AAA4A44
AAAAA44AAA44AA4A4A44444AA4444A444AA4A4AA44AA4AAA44A4AA4A4AAA4A44
AAAAA44AAA44AA4A4A44444AA4444A444AA4A4AA44AA4AAAA4A4AA4A4AAA4A44
AAAAA44AAA44AA4A4A44444AA4444A444AA4A4AA44AA4AAAA4A4AA4A4AAAAA44
AAAAA44AAA44AA4A4A44444AA4444A444AA4A4AA4AAA4AAAA4A4AA4A4AAAAA44
AAAAAA4AAA44AA4A4A44444AA4444A444AA4A4AA4AAA4AAAA4A4AA4A4AAAAA44
AAAAAA4AAA44AA4A4A44444AA4444A44AAA4A4AA4AAA4AAAA4A4AA4A4AAAAA44
AAAAAA4AAA44AA4A4A44444AA4A44A44AAA4A4AA4AAA4AAAA4A4AA4A4AAAAA44
AAAAAA4AAA44AA4A4A44444AA4A44A44AAA4A4AAAAAA4AAAA4A4AA4A4AAAAA44
AAAAAA4AAA44AA4A4A444A4AA4A44A44AAA4A4AAAAAA4AAAA4A4AA4A4AAAAA44
AAAAAA4AAA44AA4A4A444A4AA4A44A44AAA4A4AAAAAAAAAAA4A4AA4A4AAAAA44
AAAAAA4AAAA4AA4A4A444A4AA4A44A44AAA4A4AAAAAAAAAAA4A4AA4A4AAAAA44
AAAAAA4AAAA4AAAA4A444A4AA4A44A44AAA4A4AAAAAAAAAAA4A4AA4A4AAAAA44
AAAAAA4AAAA4AAAA4A444A4AA4A44A44AAA4A4AAAAAAAAAAA4A4AA4I4AAAAA44
AAAAAA4AAAA4AAAA4A444A4AA4A44A44AAA4A4AAAAAAAAAAA4A4AA4IAAAAAA44
AAAAAA4AAAA4AAAA4A244A4AA4A44A44AAA4A4AAAAAAAAAAA4A4AA4IAAAAAA44
AAAAAA4AAAA4AAAA4A244A4AA4A44A44AAA4A4AAAAAAAAAAA4A4AA44AAAAAA44
AAAAAA4AAAA4AAAA4A244A4AA4A44A24AAA4A4AAAAAAAAAAA4A4AA44AAAAAA44
AAAAAA4AAAA4AAAA4I244A4AA4A44A24AAA4A4AAAAAAAAAAA4A4AA44AAAAAA44
AAAAAA4AAAA4AAAA44244A4AA4A44A24AAA4A4AAAAAAAAAAA4A4AA44AAAAAA44
AAAAAA4AAAA4AAAA44244A4AA4A44A24AAAAA4AAAAAAAAAAA4A4AA44AAAAAA44
AAAIAA4AAAA4AAAA44244A4AA4A44A24AAAAA4AAAAAAAAAAA4A4AA44AAAAAA44
AAAIAA4AAAA4AAAA44244AAAA4A44A24AAAAA4AAAAAAAAAAA4A4AA44AAAAAA44
AAAIAA4AAAA4AAAA44244AAAA4A44A24AAAAA4AAAAAAAAAAA4A4AA4AAAAAAA44
AAAIAA4AAAA4AAAA44244AAAA4A44A24AAAAA4AAAAAAAAAAA4A4AA4IAAAAAA44
AAA4AA4AAAA4AAAA44244AAAA4A44A24AAAAA4AAAAAAAAAAA4A4AA4IAAAAAA44
AAA4AA4AAAA4AAAA44244AAAA4A44A24AAAAA4AAAAAAAAAAA4A4AA44AAAAAA44
AAA4AA4AAAA4AAAA4A224AAAA4A44A24AAAAA4AAAAAAAAAAA4A4AA44AAAAAA44
AAA4AA4AAAA4AAAA4A224AAAA4A44A24AAAAA4AAAAAAAAAAA2A4AA44AAAAAA44
AAA4AA4AAAA4AAAA4A224AAAA4A44A24AAAAA4AAAAAAAAIAA2A4AA44AAAAAA44
AAAAAA4AAAA4AAAA4A224AAAA4A44A24AAAAA4AAAAAAAAIAA2A4AA44AAAAAA44
AAAAAA4AAAA4AAAA4A224AAAA4A44A24AAAAA4AAAAAAAA4AA2A4AA44AAAAAA44
AAAAAA4AAAA4AAAA4A224AAAA4A44A24AAAAA4AAAAAAAA4AA2A4AA4AAAAAAA44
AAAAAA4AAAAAAAAA4A224AAAA4A44A24AAAAA4AAAAAAAA4AA2A4AA4AAAAAAA44
AAAAAA4AAAAIAAAA4A224AAAA4A44A24AAAAA4AAAAAAAA4AA2A4AA4AAAAAAA44
AAAAAA4AAAAAAAAA4A224AAAA4A44A24AAAAA4AAAAAAAA4AA2A4AA4AAAAAAA44
AAAAAA4AAAAAAAAA4A224AAAA4A44A22AAAAA4AAAAAAAA4AA2A4AA4AAAAAAA44
AAAAAA4AAAAAAAAA4A224AAAA4A44A22AAAAA4AAAAAAAA4AA2A2AA4AAAAAAA44
AAAAAA4AAAAIAAAA4A224AAAA4A44A22AAAAA4AAAAAAAA4AA2A2AA4AAAAAAA44
AAAAAA4AAAAIAAAA4A224AAAA4A44I22AAAAA4AAAAAAAA4AA2A2AA4AAAAAAA44
AAAAAA4AAAAIAAAA4A224AAAA4A44I22AAAAA4AAAAAAAA4AA2AIAA4AAAAAAA44
AAAAAA4AAAA4AAAA4A224AAAA4A44I22AAAAA4AAAAAAAA4AA2AIAA4AAAAAAA44
AAAAAA4AAAA4AAAA4A224AAAAAA44I22AAAAA4AAAAAAAA4AA2AIAA4AAAAAAA44
AAAAAA4AAAA4AAAA4A224AAAAAA44I22AAAAA4AAAAAAAA4AA2AIAA4AAAAAAA24
AAAAAA4AAAA4AAAA4A224AAAAAA44I22AAAAA4AAAAAAAA4AA2A4AA4AAAAAAA24
AAAAAA4AAAA4AAAA4A224AAAAIA44I22AAAAA4AAAAAAAA4AA2A4AA4AAAAAAA24
AAAAAA4AAAA4AAAA4A224AAAAIA44I22AAAAA4AAIAAAAA4AA2A4AA4AAAAAAA24
AAAAAA4AAAA4AAAA4A224AAAAIA44422AAAAA4AAIAAAAA4AA2A4AA4AAAAAAA24
AAAAAA4AAAA4AAAA4A224AAAA4A44422AAAAA4AAIAAAAA4AA2A4AA4AAAAAAA24
AAAAAA4AAAA4AAAA4A224AAAA4A44A22AAAAA4AAIAAAAA4AA2A4AA4AAAAAAA24
AAAAAA4AAAA4AAAA4A224AAAA4A44I22AAAAA4AAIAAAAA4AA2A4AA4AAAAAAA24
AAAAAA4AAAA4AAAA4A224AAAA4A44I22AAAAA4AAIAAAAA2AA2A4AA4AAAAAAA24
AAAAAA4AAAA4AAAA4A224AAAA4A44I22AAAAA4AAIAAAAA2AA2A2AA4AAAAAAA24
AAAAAA4AAAAAAAAA4A224AAAA4A44I22AAAAA4AAIAAAAA2AA2A2AA4AAAAAAA24
AAAAAA4AAAAAAAAA4A224AAAA4A44I22AAAAA4AAIAAAAAIAA2A2AA4AAAAAAA24
AAAAAA4AAAAAAAAA4A224AAAA4A44I22AAAAA4AA2AAAAA4AA2A2AA4AAAAAAA24
AAAAAA4AAAAAAAAA4A224AAAA4A44I22AAAAA4AAIAAAAA4AA2A2AA4AAAAAAA24
AAAAAA4AAAAAAAAA4A224AAAA4A44I22AAAAA4AAIAAAAA4IA2A2AA4AAAAAAA24
AAAAAA4AAAAAAAAA4A224AAAA4A44I22AAAAA4AAIAAAAA4IA2A2AA4AAAAAAI24
AAAAAA2AAAAAAAAA4A224AAAA4A44I22AAAAA4AAIAAAAA4IA2A2AA4AAAAAAI24
AAAAAA2AAAAAAAAA4A224AAAA4A44I22AAAAA4AA4AAAAA44A2A2AA4AAAAAAI24
AAAAAAAAAAAAAAAA4A224AAAA4A44I22AAAAA4AA4AAAAA44A2A2AA4AAAAAAI24
AAAAAAAAAAAAAAAA4A224AAAA4A44I22AAAAA4AA2AAAAA44A2A2AA4AAAAAAI24
AAAAAAAAAAAAAAAA4A224AAAA4A44I22AAAAA4AA2AAAAAA2A2A2AA4AAAAAA424
AAAAAAAAAAAAAAAA4A224AAAA4A44A22AAAAA4AA2AAAAAA2A2A2AA4AAAAAA424
AAAAAAAAAAAAAAAA4A224AAAA4A44A22AAAAA4AA2AAAAAAAA2A2AA4AAAAAA424
AAAAAAAAAAAAAAAA4A224AAAA4A4AA22AAAAA4AA2AAAAAAAA2A2AA4AAAAAA424
AAAAAAAAAAAAAAAA4A222AAAA4A4AA22AAAAA4AA2AAAAAAAA2A2AA4AAAAAA424
AAAAAAAAAAAAAAAA4A222AAAA4A4IA22AAAAA4AA2AAAAAAAA2A2AA4AAAAAA424
AAAAAAAAAAAIAAAA4A222AAAA4A4IA22AAAAA4AA2AAAAAAAA2A2AA4AAAAAA424
AAAAAAAAAAAIAAAA4A222AAAA2A2IA22AAAAA4AA2AAAAAAAA2A2AA4AAAAAA424
AAAAAAAAAAAIAAAA4A222AAAAIA2IA22AAAAA4AA2AAAAAAAA2A2AA4AAAAAA424
AAAAAAAAAAAIAAAA4A222AAAAIA2II22AAAAA4AA2AAAAAAAA2A2AA4AAAAAA424
AAAAAAAAAAA4AAAA4A222AAAAIA2II22AAAAA4AA2AAAAAAAA2A2AA4AAAAAA424
AAAAAAAAAAA4AAAA4A222AAAA4A24I22AAAAA4AA2AAAAAAAA2A2AA4AAAAAA424
AAAAAAAAAAA4AAAA4A222AAAA4A24I22AAAAA2AA2AAAAAAAA2A2AA4AAAAAA424
AAAAAAAAAAA4AAAA4A222AAAA4A24I22AAAAA2AA2AAAAAAAA2A2AA4AAAAAAA24
AAAAAAAAAAA4AAAA4A222AAAA4A24A22AAAAA2AA2AAAAAAAA2A2AA4AAAAAAA24
AAAAAAAAAAA4AAAA4A222AAAA4A24A22AAAAA2AA2AAAAAAAA2A2AA4AAAAAAI24
AAAAAAAAAAA4AAAA4A222AAAA4A24A22AAAAA2AA2AAAAAIAA2A2AA4AAAAAAI24
AAAAAAAAAAA4AAAA4A222AAAA4A24A22AAAAA2AA2AAAAA4AA2A2AA4AAAAAAI24
AAAAAAAAAAA4AAAA4A222AAAA4A24A22AAAAA2AA2AAAAA4AA2A2AA4AAAAAA424
AAAAAAAAAAA4AAAA4A222AAAA4A24A22AAIAA2AA2AAAAA4AA2A2AA4AAAAAA424
AAAAAAAAAAA4AAAA4A222AAAA4A24A22AAIAA2AA2AAAAA4IA2A2AA4AAAAAA424
AAAAAAAAAAA4AAAA4A222AAAA4A24A22AAIAAAAA2AAAAA44A2A2AA4AAAAAA424
AAAAAAAAAAA4AAAA4A222AAAA4A24A22AAIAAAAA2AAAAA44A2A2IA4AAAAAA424
AAAAAAAAAAA4AAAA4A222AAAA4A24A22AAIAAAAA2AAAAA44A2A24A4AAAAAA424
AAAAAAAAAAA4AAAA4A222AAAA4A24A22AA4AAAAA2AAAAA44A2A24A4AAAAAA424
AAAAAAAAAAA4AAAA4A222AAAA4A24A22AA4AAAAA2AAAAA44A2A22A4AAAAAA424
AAAAAAAAAAA4AAAA4A222AAAA4A24A22AA4AAAAA2AAAAA44A2A22A4AAAAAA42A
AAAAAAAAAAA4AAAA4A222AAAA4A24A22AAAAAAAA2AAAAA44A2A22A4AAAAAA42A
AAAAAAAAAAA4AAAA4A222AAAA4A24A22AAAAAAAA2AAAAA44A2A22A4AAAAAA42I
AAAAAAAAAAA4AAAA4A222AAAA4A24A22AAAAAAAA2AAAAA44I2A22A4AAAAAA42I
AAAAAAAAAAAAAAAA4A222AAAA4A24A22AAAAAAAA2AAAAA44I2A22A4AAAAAA42I
AAAAAAAAAAAAAAAA4A222AAAA4A24A22AAAAAAAA2AAAAA44I2A22A4AAAAAA424
AAAAAAAAAAAAAAAA4A222AAAA4A24A22AAAAAAAA2AAAAAA422A22A4AAAAAA424
AAAAAAAAAAAAAAAA4A222AAAA4A24A22AAAAAAAA2AAAAAA422A22A4AAAIAA424
AAAAAAAAAAAAAAAA4A222AAAA4A24A22AAAAAAAA2AAAAAA4I2A22A4AAAIAA424
AAAAAAAAAAAAAAAA4AA22AAAA4A24A22AAAAAAAA2AAAAAA4I2A22A4AAAIAA424
AIAAAAAAAAAAAAAA4AA22AAAA4A24A22AAAAAAAA2AAAAAA4I2A22A4AAAIAA424
AIAAAAAAAAAAAAAA4AA22AAAA4A24A22AAAAAAAA2AAAAAA4I2A22A4AAA2AA424
AIAAAAAAAAAAAAAA4AA22AAAA4A24I22AAAAAAAA2AAAAAA4I2A22A4AAA2AA424
AIAAAAAAAAAAAAAA4AA22AAAA4A24I22AAAAAAAA2AAAAAA222A22A4AAA2AA424
AIAAAAAAAAAAAAAA4AA22AAAA4A24422AAAAAAAA2AAAAAA222A22A4AAA2AA424
AIAAAAAAAAAAAAAA4AA22AAAA4A2442AAAAAAAAA2AAAAAA222A22A4AAA2AA424
AIAAAAAAAAAAAAAA4AA22AAAA4A2A42AAAAAAAAA2AAAAAA222A22A4AAA2AA424
AIAAAAAAAAAAAAAA4AA22AAAA4A2AA2AAAAAAAAA2AAAAAA222A22A4AAA2AA424
AIAAAAAAAAAAAAAA4AA22AAAA4A2AA2AAAAAAAAA2AAAAAI222A22A4AAA2AA424
A2AAAAAAAAAAAAAA4AA22AAAA4A2AA2AAAAAAAAA2AAAAAI222A22A4AAA2AA424
A2AAAAAAAAAAAAAA4AA22AAAA4A2AA2AAAAAAAAA2AAAAA4222A22A4AAA2AA424
A2AAAAAAAAAAAAAA4AA22AAAA4A2AA2AAAAAAAAA2AAAAA2222A22A4AAA2AA424
A2AAAAAAAAAAAAAA4AA22AAAA4A2AA2AAAAAAAAA2AAAAA2A22A22A4AAA2AA424
A2AAAAAAAAAAAAAA4AA22AAAA4A2AA2AAAAAAAAA2AAAAA2AA2A22A4AAA2AA424
A2AAAAAAAAAAAAAA4AA22AAAA4A2AA2AAAAAAAAA2AAAAA2AI2A22A4AAA2AA424
A2AAAAAAAAAAAAAA4AA22AAAA4A2AA2AAAAAAAAA2AAAAA2AI2A22A4AAA2AAA22
A2AAAAAAAAAAAAAA2AA22AAAA4A2AA2AAAAAAAAA2AAAAA2AI2A22A4AAA2AAA22
A2AAAAAAAAAAAAAA2AA22AAAA4A2AA2AAAAAAAAA2AAAAA2AIAA22A4AAA2AAA22
A2AAAAAAAAAAAAAA2AA22AAAA4A2AA2AAAAAAAAA2AAAAA2AIAA22A4AAA2AAA2I
A2AAAAAAAAAAIAAA2AA22AAAA4A2AA2AAAAAAAAA2AAAAA2AIAA22A4AAA2AAA2I
A2AAAAAAAAAAIAAA2AA22AAAA4A2AA2AAAAAIAAA2AAAAA2AIAA22A4AAA2AAA2I
A2AAAAAAAAAA2AAA2AA22AAAA4A2AA2AAAAAIAAA2AAAAA2AIAA22A4AAA2AAA2I
A2AAAAAAAAAA2AAA2AA22AAAA4A2AA2AAAAAIAAA2AAAAA2A4AA22A4AAA2AAA2I
A2AAAAAAAIAA2AAA2AA22AAAA4A2AA2AAAAAIAAA2AAAAA2A4AA22A4AAA2AAA2I
A2AAAAAAAIAA2AAA2AA22AAAA4A2AA2AAAAAIAAA2AAAAA2A4AA22A4AAAAAAA24
A2AAAAAAAAAA2AAA2AA22AAAA4A2AA2AAAAAIAAA2AAAAA2A4AA22A4AAAAAAA24
A2AAAAAAAIAA2AAA2AA22AAAA4A2AA2AAAAAIAAA2AAAAA2A4AA22A4AAAAAAA24
A2AIAAAAAIAA2AAA2AA22AAAA4A2AA2AAAAAIAAA2AAAAA2A4AA22A4AAAAAAA24
A2AIAAAAA2AA2AAA2AA22AAAA4A2AA2AAAAAIAAA2AAAAA2A4AA22A4AAAAAAA24
A2AIAAAAA2AA2AAA2AA22AAAA4A2AA2AAAAA4AAA2AAAAA2A4AA22A4AAAAAAA24
A2AIAAAAA2AA2AAA2AA22AAAA4A2AA2AAAAA4AAA2AAAAAAA2AA22A4AAAAAAA24
A2AIAAAAA2AA2AAA2AA22AAAA4A2AA2AAAAAAAAA2AAAAAAA2AA22A4AAAAAAA24
AAAIAAAAA2AA2AAA2AA22AAAA4A2AA2AAAAAAAAA2AAAAAAA2AA22A4AAAAAAA24
AAAIAAAAA2AA2AAA2AA22AAAA4A2AA2AAAAAAAAA2AIAAAAA2AA22A4AAAAAAA24
AAAIAAAAA2AA2AAA2AA22AAAA4A2AA2AAAAAAAAA2A4AAAAA2AA22A4AAAAAAA24
AAAIAAAAA2AA2AAA2AA22AAAA4A2AA2AAAAAAAAA2A4AAAAA2AA22A4AAAAAAA22
AAAAAAAAA2AA2AAA2AA22AAAA4A2AA2AAAAAAAAA2A4AAAAA2AA22A4AAAAAAA22
AAAIAAAAA2AA2AAA2AA22AAAA4A2AA2AAAAAAAAA2A4AAAAA2AA22A4AAAAAAA22
AAAIAAAIA2AA2AAA2AA22AAAA4A2AA2AAAAAAAAA2A4AAAAA2AA22A4AAAAAAA22
AAAIAAAIA2AA2AAA2AA22AAAA4A2AA2AAAAAAAIA2A4AAAAA2AA22A4AAAAAAA22
AAAIAAAIAAAA2AAA2AA22AAAA4A2AA2AAAAAAAIA2A4AAAAA2AA22A4AAAAAAA22
AAAIAAAIAAAA2AAAAAA22AAAA4A2AA2AAAAAAAIA2A4AAAAA2AA22A4AAAAAAA22
AAAAAAA2AAAA2AAAAAA22AAAA4A2AA2AAAAAAAIA2A4AAAAA2AA22A4AAAAAAA22
AAAAAAA2AAAA2AAAAAA22AAAA4A2AA2AAAAAAA2A2A4AAAAA2AA22A4AAAAAAA22
AAAAAAA2AAAA2AAAAAA22AAAA4A2AA2AAAAAAA2A2AAAAAAA2AA22A4AAAAAAA22
AAAAAAAIAAAA2AAAAAA22AAAA4A2AA2AAAAAAA2A2AAAAAAA2AA22A4AAAAAAA22
AAAAAAAIAAAA2AAAAAA22AAAA4A2AA2AAAIAAA2A2AAAAAAA2AA22A4AAAAAAA22
AAAAAAAIAAAA2AAAAAA22AAAA4A2AA2AAAIAAA2A2AAAAAAA2AA22A2AAAAAAA22
AAAAAAAIAAAA2AAAAAA22AAAA4A2AA2AAAIAAAAA2AAAAAAA2AA22A2AAAAAAA22
AAAAAAA2AAAA2AAAAAA22AAAA4A2AA2AAAIAAAAA2AAAAAAA2AA22A2AAAAAAA22
AAAAAAA2AAAAAAAAAAA22AAAA4A2AA2AAAIAAAAA2AAAAAAA2AA22A2AAAAAAA22
AAAAAAA2AAAAAAAAAAA22AAAA4A2AA2AAAIAAAAA2AAAAAAAAAA22A2AAAAAAA22
AAAAAAA2AAAAAAAAAAA22AAAA4A2AA2AAAAAAAAA2AAAAAAAAAA22A2AAAAAAA22
AAAAAAA2AAAAAAAAAAA22AAAA4A2AA2AAAAAIAAA2AAAAAAAAAA22A2AAAAAAA22
AAAAAAA2AAAAAAAAAAA22AAAA2A2AA2AAAAAIAAA2AAAAAAAAAA22A2AAAAAAA22
AAAAAAA2AAAAAAAAAAA22AAIA2A2AA2AAAAAIAAA2AAAAAAAAAA22A2AAAAAAA22
AAAAAAA2AAAAAAAAAAA22AA4A2A2AA2AAAAAIAAA2AAAAAAAAAA22A2AAAAAAA22
AAAAAAA2AAAAAAAAAAA22AA4A2A2AA2AAAAAIAAA2AAAAAAAIAA22A2AAAAAAA22
AAAAAAA2AAAAAAAAAAA22AA2A2A2AA2AAAAAIAAA2AAAAAAAIAA22A2AAAAAAA22
AAAAAAA2AAAAAAAAAAA22AA2A2A2AA2AAAAAIAAA2AAAAAAA4AA22A2AAAAAAA22
AAAAAAA2AAAAAAAAAAA22AA2A2A2AA2AAAAAIAAA2AAAAAAAAAA22A2AAAAAAA22
AAAAAAA2AAAAAAAAAAA22AA2A2A2AA2AAAAAIAAA2AAAAAAAAAA22A2AAAAAAA2A
AAAAAAA2AAAAAAAAAAA2AAA2A2A2AA2AAAAAIAAA2AAAAAAAAAA22A2AAAAAAA2A
AAAAAAA2AAAAAAAAAAA2AAA2A2A2AA2AAAAA2AAA2AAAAAAAAAA22A2AAAAAAA2A
AAAAAAA2AAAAAAAAAAA2IAA2A2A2AA2AAAAA2AAA2AAAAAAAAAA22A2AAAAAAA2A
AAAAAAA2AAAAAAAAAAA24AA2A2A2AA2AAAAA2AAA2AAAAAAAAAA22A2AAAAAAA2A
AAAAAAA2AAAAAAAAAAA24AA2A2A2AA2AAAAA2AIA2AAAAAAAAAA22A2AAAAAAA2A
AAAAAAA2AAAAAAAAAAA24AA2A2A2AA2AAAAA2A4A2AAAAAAAAAA22A2AAAAAAA2A
AAAAAAA2AAAAAAAAAAA24AA2A2A2AA2AAAAA2A4A2AAIAAAAAAA22A2AAAAAAA2A
AAAAAAA2AAAAAAAAAAA24AA2A2A2AI2AAAAA2A4A2AAIAAAAAAA22A2AAAAAAA2A
AAAAAAA2AAAAAAAAAAA24AA2A2A2A22AAAAA2A4A2AAIAAAAAAA22A2AAAAAAA2A
AAAAAAA2AAAAAAAAAAA24AA2A2A2A22AAAAAAA2A2AAIAAAAAAA22A2AAAAAAA2A
AAAAAAA2AAAAAAAAAAA24AA2A2A2A22AAAAAIA2A2AAIAAAAAAA22A2AAAAAAA2A
AAAAAAA2AAAAAAAAAAA22AA2A2A2A22AAAAAIA2A2AAIAAAAAAA22A2AAAAAAA2A
AAAAAAA2AAAAAAAAAIA22AA2A2A2A22AAAAAIA2A2AAIAAAAAAA22A2AAAAAAA2A
AAAAAAA2AAAAAAAAAIA22AA2A2A2A22AAAAAIA2A2AA2AAAAAAA22A2AAAAAAA2A
AAAAAAA2AAAAAAAAAIA2IAA2A2A2A22AAAAAIA2A2AA2AAAAAAA22A2AAAAAAA2A
AAAAAAA2AAAAAAAAA4A2IAA2A2A2A22AAAAAIA2A2AA2AAAAAAA22A2AAAAAAA2A
AAAAAAA2AAAAAAAAA4AA2AA2A2A2A22AAAAA4A2A2AA2AAAAAAA22A2AAAAAAA2A
AAAAAAA2AAAAAAAAA4AAIAA2A2A2A22AAAAA4A2A2AA2AAAAAAA22A2AAAAAAA2A
AAAAAAA2AAAAAAAAAAAAIAA2A2A2A22AAAAA4A2A2AA2AAAAAAA22A2AAAAAAA2A
AAAAAAA2AAAAAAAAAAAAIAA2A2A2AA2AAAAA2A2A2AA2AAAAAAA22A2AAAAAAA2A
AAAAAAA2AAAAAAAAAAAAIAA2AAA2AA2AAAAA2A2A2AA2AAAAAAA22A2AAAAAAA2A
AAAAAAA2AAAAAAAAAAAAIAA2AAA2AA2AAAAA2AAA2AA2AAAAAAA22A2AAAAAAA2A
AAAAAAA2AAAAAAAAAAAAIAA2AAA2AA2AAAAA2AAA2AAAAAAAAAA22A2AAAAAAA2A
AAAAAAA2AIAAAAAAAAAAIAA2AAA2AA2AAAAA2AAA2AAAAAAAAAA22A2AAAAAAA2A
AAAAAAA2AAAAAAAAAAAA4AA2AAA2AA2AAAAA2AAA2AAAAAAAAAA22A2AAAAAAA2A
AAAAAAA2AAAAAAAAAAAA4AA2AAA2IA2AAAAA2AAA2AAAAAAAAAA22A2AAAAAAA2A
AAAAAAA2AAAAAAAAAAAA4AA2AAA2IA2AAAAAAAAA2AAAAAAAAAA22A2AAAAAAA2A
AAAAAAA2AIAAAAAAAAAA4AA2AAA2IA2AAAAAAAAA2AAAAAAAAAA22A2AAAAAAA2A
AAAAAAA2AIAAAAAAAAAA4AA2AAA2IA2AAAAAAAAA2AAAAAAAIAA22A2AAAAAAA2A
AAAAAAA2A4AAAAAAAAAA4AA2AAA2IA2AAAAAAAAA2AAAAAAAIAA22A2AAAAAAA2A
AAAAAAA2A4AAAAAAAAAA4AA2AAA2IA2AAAAAAAAA2AAAAAAAAAA22A2AAAAAAA2A
AAAAAAAAA2AAAAAAAAAA4AA2AAA2IA2AAAAAAAAA2AAAAAAAAAA22A2AAAAAAA2A
AAAAAAAIA2AAAAAAAAAA4AA2AAA2IA2AAAAAAAAA2AAAAAAAAAA22A2AAAAAAA2A
AAAAAAAIA2AAAAIAAAAA4AA2AAA2IA2AAAAAAAAA2AAAAAAAAAA22A2AAAAAAA2A
AAAAAAAIAAAAAAIAAAAA4AA2AAA24A2AAAAAAAAA2AAAAAAAAAA22A2AAAAAAA2A
AAAAAAAIAAAAAAIAAAAA4AA2AAA22A2AAAAAAAAA2AAAAAAAAAA22A2AAAAAAA2A
AAAAAAAIAIAAAAIAAAAA4AA2AAA22A2AAAAAAAAA2AAAAAAAAAA22A2AAAAAAA2A
AAAAAAAAAIAAAA2AAAAA4AA2AAA22A2AAAAAAAAA2AAAAAAAAAA22A2AAAAAAA2A
AAAAAAAAAIAAAA2AAAAA2AA2AAA22A2AAAAAAAAA2AAAAAAAAAA22A2AAAAAAA2A
AAAAAAAAAIAAAAAAAAAA2AA2AAA22A2AAAAAAAAA2AAAAAAAAAA22A2AAAAAAA2A
AAAAAAAAAIAAAAAAAAAAIAA2AAA22A2AAAAAAAAA2AAAAAAAAAA22A2AAAAAAA2A
AAAAAAAAA4AAAAAAAAAA4AA2AAA22A2AAAAAAAAA2AAAAAAAAAA22A2AAAAAAA2A
AAAAAAAAA4AAAAAAAAAA2AA2AAA22A2AAAAAAAAA2AAAAAAAAAA22A2AAAAAAA2A
AAAAAAAAA4AIAAAAAAAA2AA2AAA22A2AAAAAAAAA2AAAAAAAAAA22A2AAAAAAA2A
AAAAAAAAA4AIAAIAAAAA2AA2AAA22A2AAAAAAAAA2AAAAAAAAAA22A2AAAAAAA2A
AAAAAAAAA4AIAAIAAIAA2AA2AAA22A2AAAAAAAAA2AAAAAAAAAA22A2AAAAAAA2A
AAAAAAAAA2A2AA4AA4AA2AA2AAA22A2AAAAAAAAA2AAAAAAAAAA22A2AAAAAAA2A
AAAAAAAAAAA2AA2AA4AA2AA2AAA22A2AAAAAAAAA2AAAAAAAAAA22A2AAAAAAA2A
AAAAAAAAAAA2AAIAA4AA2AA2AAA22A2AAAAAAAAA2AAAAAAAAAA22A2AAAAAAA2A
AAAAAAAAAAA2AA4AA4AA2AA2AAA22A2AAAAAAAAA2AAAAAAAAAA22A2AAAAAAA2A
AAAAAAAAAAAAAA4AA4AA2AA2AAA22A2AAAAAAAAA2AAAAAAAAAA22A2AAAAAAA2A
AAAAAAAAAAAAAA4AA4AA2AA2AAA22A2AAAAAAAAI2AAAAAAAAAA22A2AAAAAAA2A
AAAAAAAAAAAAAA2AA4AA2AA2AAA22A2AAAAAAAAI2AAAAAAAAAA22A2AAAAAAA2A
AAAAAAAAAAAAAAIAA4AA2AA2AAA22A2AAAAAAAAI2AAAAAAAAAA22A2AAAAAAA2A
AAAAAAAAAAAAAAIAA4AA2AA2AAA22A2AAAAAAAAA2AAAAAAAAAA22A2AAAAAAA2A
AAAAAAAAAAAAAA2AA4AA2AA2AAA22A2AAAAAAAAA2AAAAAAAAAA22A2AAAAAAA2A
AAAAAAAAAAAAAA2AAAAA2AA2AAA22A2AAAAAAAAA2AAAAAAAAAA22A2AAAAAAA2A
AAAAAAAAAAAAAA2AAAAAAAA2AAA22A2AAAAAAAAA2AAAAAAAAAA22A2AAAAAAA2A
AAAAAAAAAAAAAA2AAAAAAAA2AAA22A2AAAAAAAAA2AAAAAAAIAA22A2AAAAAAA2A
AAAAAAAAAAAAAA2AAAAAAAA2AAA22A2AAAAAAAAA2AAAAAAAAAA22A2AAAAAAA2A
AAAAAAAAAAIAAA2AAAAAAAA2AAA22A2AAAAAAAAA2AAAAAAAAAA22A2AAAAAAA2A
AAAAAAAAAA4AAA2AAAAAAAA2AAA22A2AAAAAAAAA2AAAAAAAAAA22A2AAAAAAA2A
AAAAAAAAAA2AAA2AAAAAAAA2AAA22A2AAAAAAAAA2AAAAAAAAAA22A2AAAAAAA2A
AAAAAAAAAA2AAA2AAAAAAAA2AAA22A2AAAAAAAAA2AAAAAAAAAA22A2AAAIAAA2A
AAAAAAAAAA2AAA2AAAAAAAA2AAA22A2AAAAAAAAA2AAAAAAAAAA22A2AAA4AAA2A
AAAAAAAAAA2AAA2AAAAAAAA2AAA22A2AAAAAAAAA2AAAAAAAAAA22A2AAA2AAA2A
AAAAAAAAAA2AAA2AAAAAAAA2AAA22A2AAAAAAAAA2AAAAAAAAAA2AA2AAA2AAA2A
AAAAAAAAAA2AAA2AAAAAAAA2AAA22A2AAAIAAAAA2AAAAAAAAAA2AA2AAA2AAA2A
AAAIAAAAAA2AAA2AAAAAAAA2AAA22A2AAAIAAAAA2AAAAAAAAAA2AA2AAA2AAA2A
AAAAAAAAAA2AAA2AAAAAAAA2AAA22A2AAAIAAAAA2AAAAAAAAAA2AA2AAA2AAA2A
AAAAAAAAAA2AAA2AAAAAAAA2AAA22A2AAA4AAAAA2AAAAAAAAAA2AA2AAA2AAA2A
AAAAAAAAAA2AAA2AAAAAAAA2AAA22A2AAAAAAAAA2AAAAAAAAAA2AA2AAA2AAA2A
AAAAAAAAAA2AAA2AAAAAAAA2AAA22A2AAAAAIAAA2AAAAAAAAAA2AA2AAA2AAA2A
AAAAAAAAAA2AAA2AAAAAAAA2AAA22A2AAAAA4AAA2AAAAAAAAAA2AA2AAA2AAA2A
AAAAAAAAAA2AAA2AAAAAAAA2AAA2AA2AAAAA4AAA2AAAAAAAAAA2AA2AAA2AAA2A
AAAAAAAAAA2AAA2AAAAAAAA2AAA2AA2AAAAA4AAA2AAAAAAAIAA2AA2AAA2AAA2A
AAAAAAAAAA2AAA2AAIAAAAA2AAA2AA2AAAAA4AAA2AAAAAAAIAA2AA2AAA2AAA2A
AAAAAAAAAA2AAA2AA2AAAAA2AAA2AA2AAAAA4AAA2AAAAAAAIAA2AA2AAA2AAA2A
AAAAAAAAAA2AAA2AAAAAAAA2AAA2AA2AAAAA4AAA2AAAAAAAIAA2AA2AAA2AAA2A
AAAAAAAAAA2AAA2AAAAAAAA2AAA2AA2AAAAAAAAA2AAAAAAA4AA2AA2AAA2AAA2A
AAAAAAAAAA2AAA2AAAAAAAA2AAA2AA2AAAAAAAAAAAAAAAAA4AA2AA2AAA2AAA2A
AAAAAAAAAA2AAA2AAAAAAAA2AAA2AA2AAAAAAAAAAAAAAAAA2AA2AA2AAA2AAA2A
AAAAAAAAAA2AAA2AAAAAAAA2AAA2AA2AAAAAAAAAAAAAAAAA2AI2AA2AAA2AAA2A
AAAAAAAAAA2AAA2AAAAAAAAAAAA2AA2AAAAAAAAAAAAAAAAA2AI2AA2AAA2AAA2A
AAAAAAAAAA2IAA2AAAAAAAAAAAA2AA2AAAAAAAAAAAAAAAAA2AI2AA2AAA2AAA2A
AAAAAAAAAA24AA2AAAAAAAAAAAA2AA2AAAAAAAAAAAAAAAAA2AI2AA2AAA2AAA2A
AAAAAAAAAA24AA2AAAAAAAAAAAA2AA2AAAAAAAAAAAAAAAAA2A22AA2AAA2AAA2A
AAAAAAAAAI24AA2AAAAAAAAAAAA2AA2AAAAAAAAAAAAAAAAA2A22AA2AAA2AAA2A
AAAAAAAAAI24AA2AAAAAAAAAAAA2AA2AAAAAAAAAAAAAAAAI2A22AA2AAA2AAA2A
AAAAAAAAAA22AA2AAAAAAAAAAAA2AA2AAAAAAAAAAAAAAAAI2A22AA2AAA2AAA2A
AAAAAAAAAA22AA2AAAAAAAAAAAA2AA2AAAAAAAAAAAAAAAA42A22AA2AAA2AAA2A
AAAAAAAAAA22AA2AAAAAAAAAAAA2AA2AAAAAAAAAAAAAAAA22A22AA2AAA2AAA2A
AAAAAAAAAA22AA2AAAAAAAAAAAA2AA2AAAIAAAAAAAAAAAA22A22AA2AAA2AAA2A
AAAAAAAAAA22AA2AAAAAAAAAAAA2AA2IAAIAAAAAAAAAAAA22A22AA2AAA2AAA2A
AAAAAAAAAA22AA2AAAAAAAAAAAA2AA2IAAAAAAAAAAAAAAA22A22AA2AAA2AAA2A
AAAAAAAAAA22AA2AAAAAAAAAAAA2AA2IAAAAAAAAAAAAAAA22A22AA2IAA2AAA2A
AAAAAAAAAA22AA2AAAAAAAAAAAA2AA2IAAAAAAAAAAAAAAA22A22AA24AA2AAA2A
AAAAAAAAAA22AA2AAAAAAAAAAAA2AA2IAAAAAAAAAAAAAAA22A22AA2AAA2AAA2A
AAAAAAAAAA22AA2AAAAAAAAAAAA2AA24AAAAAAAAAAAAAAA22A22AA2AAA2AAA2A
AAAAAAAAAA22AA2AAAAAAAAAAAA2AA22AAAAAAAAAAAAAAA22A22AA2AAA2AAA2A
AAAAAAAAAA22AA2AAAAAAAAAAAA2AA22AAAAAAAAAAIAAAA22A22AA2AAA2AAA2A
AAAAAAAAAA22AA2AAAAAAAAAAAA2AA22AAAAAAAAAA4AAAA22A22AA2AAA2AAA2A
AAAAAAAAAA22AA2AAAAAAAAAAAA2AA22AAAAAAIAAA4AAAA22A22AA2AAA2AAA2A
AAAAAAAAAA22AA2AAAAAAAAAAAA2AA22AAAAAAIAAA4AAIA22A22AA2AAA2AAA2A
AAAAAAAAAA22AA2AAAAAAAAAAAA2AA22AAAAAAIAAA4AAIA22AA2AA2AAA2AAA2A
AAAAAAAAAA22AA2AAAAAAAAAAAA2AA22AAAAAA2AAA4AAIA22AA2AA2AAA2AAA2A
AAAAAAAAAA22AA2AAAAAAAAAAAA2AA22AAAAAA2AAA4AAIA22AAAAA2AAA2AAA2A
AAAAAAAAAA22AA2AAAAAAAAAAAA2AA22AAAAAA2AAA4AAAA22AAAAA2AAA2AAA2A
AAAAAAAAAAA2AA2AAAAAAAAAAAA2AA22AAAAAA2AAA4AAAA22AAAAA2AAA2AAA2A
AAAAAIAAAAA2AA2AAAAAAAAAAAA2AA22AAAAAA2AAA4AAAA22AAAAA2AAA2AAA2A
AAAAAIAAAAA2AA2AAAAAAAAAAAA2AA22AAAAAA2AAA4AAAA2AAAAAA2AAA2AAA2A
AAAAAIAAAIA2AA2AAAAAAAAAAAA2AA22AAAAAA2AAA4AAAA2AAAAAA2AAA2AAA2A
AAAAAIAIAIA2AA2AAAAAAAAAAAA2AA22AAAAAA2AAA4AAAA2AAAAAA2AAA2AAA2A
AAAAAIAIAIA2AA2AAAAAAAAAAAA2AA22AAAAAA2AAA4AAAA2AIAAAA2AAA2AAA2A
AAAAAIAIAIA2AA2AAAAAAAAAAAA2AA22AAAAAA2AAA4AAAA2IIAAAA2AAA2AAA2A
AAAAA2A4A4A2AA2AAAAAAAAAAAA2AA22AAAAAA2AAA4AAAA2IIAAAA2AAA2AAA2A
AAAAA2A2A4A2AA2AAAAAAAAAAAA2AA22AAAAAA2AAA4AAAA2IIAAAA2AAA2AAA2A
AAAAA2A2A2A2AA2AAAAAAAAAAAA2AA22AAAAAA2AAA4AAAA2IIAAAA2AAA2AAA2A
AAAAA2A2A2A2AA2AAAAAAAAAAAA2AA22AAAAAAAAAA4AAAA24IAAAA2AAA2AAA2A
AAAAA2A2A2A2AA2AAAAAAAAAAAA2AA22AAAAAAAAAA2AAAA244AAAA2AAA2AAA2A
AAAAA2A2A2A2AA2AAAAAAAAAAAA2AA22AAAAAAAAAA2AAAA242AAAA2AAA2AAA2A
AAAAA2A2A2A2AA2AAAAAAAAAAAA2AA22AAAAAAAAAA2AAAA222AAAA2AAA2AAA2A
AAAAA2A2A2A2AA2AAAAAAAAAAAA2AA22AAAAAAAAAA2AAAA222AAAA2AAAAAAA2A
AAAAA2A2A2A2AA2AAAAAAAAAAAA2AA22AAAAIAAAAA2AAAA222AAAA2AAAAAAA2A
AAAAA2A2A2A2AA2AAAAAAAAAAAA2AA22AAAA4AAAAA2AAAA222AAAA2AAAAAAA2A
AAAAA2AAA2A2AA2AAAAAAAAAAAA2AA22AAAA4AAAAA2AAAA222AAAA2AAAAAAA2A
AAAAA2AAA2A2AA2AAAAAAAAAAAA2AA22AAAA4AAAAA2AAAA222AAAA2AAAAIAA2A
AAAAA2AAA2A2AA2AAAAAAAAAAAA2AA22AAAA4AAAAA2AAAA222AAIA2AAAAIAA2A
AAAAA2AAA2A2AA2AAAAAAAAAAAA2AA22AAAA4AAAAAAAAAA222AA4A2AAAAIAA2A
AAAAA2AAAAA2AA2AAAAAAAAAAAA2AA22AAAA4AAAAAAAAAA222AA4A2AAAAIAA2A
AAAAA2AAAAA2AA2AAAAAAAAAAAA2AA22AAAAAAAAAAAAAAA222AA4A2AAAAIAA2A
AAAAA2AAAAA2AA2AAAAAAAAAAAA2AA22AAAAIAAAAAAAAAA222AA4A2AAAAIAA2A
AAAAA2AAAAA2AA2AAAAAAAAAAAA2AA22AAAAIAAAAAAIAAA222AA4A2AAAAIAA2A
AAAAA2AAAAA2AA2AAAAAAAAAAAA2AA22AAAAIAAAAAA2AAA222AA4A2AAAA4AA2A
AAAAA2AAAAA2AA2AAAAAAAAAAAA2AA22AAAAIAAAAAA2AAA2A2AA2A2AAAA4AA2A
AAAAA2AAAAA2AA2AAAAAAAAAAAA2AA22AAAAIAAAAAA2AAAAA2AA2A2AAAA4AA2A
AAAAA2AAAAA2AA2AAAAAAAAAAAA2AA22AAAAIAAAAAA2AAAAI2AA2A2AAAA4AA2A
AAAAA2AAAAA2AA2AAAAAAAAAAAA2AA22AAAAIAAAAAA2AAAAI2AAIA2AAAA4AA2A
AAAAA2AAAAA2AA2AAAAAAAAAAAA2AA22AAAAIAAAAAA2AAAA42AAIA2AAAA4AA2A
AAAAA2AAAAA2AA2AAAAAAAAAAAA2AA22AAAAIAAAAAA2AAAA42AAIA2AAAA2AA2A
AAAAA2AAAAA2AA2AAAAAAAAAAAA2AA22AAAAIAAAAAA2AAAA42AAIA2AAAAIAA2A
AAAAA2AAAAA2AA2AAAAAAAAAAAA2AA22AAAAIAAAAAA2AAAA42AA4A2AAAAIAA2A
AAAAA2AAAAA2AA2AAAAAAAAAAAA2AA22AAAAIAAAAAAAAAAA22AA4A2AAAAIAA2A
AAAAA2AAAAA2AA2AAAAAAAAAAAA2AA22AAAAIAAAAAAAAAAA22AA4A2AAAA4AA2A
AAAAA2AAAAA2AA2AAAAAAAAAAAA2AA22AAAAIAAAAAAAAAAA22AA4A2AAAAAAA2A
AAAAAAAAAAA2AA2AAAAAAAAAAAA2AA22AAAAIAAAAAAAAAAA22AA4A2AAAAAAA2A
AAAAAAAAAAA2AA2AAAAAAAAAAAA2AA22AAAA2AAAAAAAAAAA22AA4A2AAAAAAA2A
AAAAAAAAAAA2AA2AAAAAAAAAAAA2AA2AAAAA2AAAAAAAAAAA22AA4A2AAAAAAA2A
AAAIAAAAAAA2AA2AAAAAAAAAAAA2AA2AAAAA2AAAAAAAAAAA22AA4A2AAAAAAA2A
AAAIAAAAAAA2AAAAAAAAAAAAAAA2AA2AAAAA2AAAAAAAAAAA22AA4A2AAAAAAA2A
AAAIAAAAAAA2AAAAAAAAAAAAAAA2AI2AAAAA2AAAAAAAAAAA22AA4A2AAAAAAA2A
AAAIAAAAAAA2AAAAAAAAAAAAAAA2A22AAAAA2AAAAAAAAAAA22AA4A2AAAAAAA2A
AAAIAAAAAAA2AAAAAAAAAAAAAAA2A22AAAAAAAAAAAAAAAAA22AA4A2AAAAAAA2A
AAAIAAAAAAA2AAAAAAAAAAAAAAA2A22AAAAAIAAAAAAAAAAA22AA4A2AAAAAAA2A
AAAIAAAAAAA2AAAAAAAAAAAAAAA2A22AAAAAIAAAAAAAIAAA22AA4A2AAAAAAA2A
AAAIAAAAAAA2AAAAAAAAAAAAAAA2A22AAAAAAAAAAAAAIAAA22AA4A2AAAAAAA2A
AAAIAAAAAAA2AAAAAAAAAAAAAAA2A22AAAAAAAAAAAAAIAAAA2AA2A2AAAAAAA2A
AAAIAAAAAAA2AAAAAAAAAAAAAAA2A22AAAAAAAAAAAAA4AAAA2AA2A2AAAAAAA2A
AAAAAAAAAAA2AAAAAAAAAAAAAAA2A22AAAAAAAAAAAAA4AAAA2AA2A2AAAAAAA2A
AAAAAAAAAAA2AAAAAAAAAAAAAAA2A22AAAAAAAAAAAAA2AAAA2AA2A2AAAAAAA2A
AAAAAAAAAAA2AAAAAAAAAAAAAAA2A22AAAAAAAAAAAAA2AAAI2AA2A2AAAAAAA2A
AAAAAAAAAAA2AAAAAAAAAAAAAAA2A22AAAAAAAAAAAAA2AAA42AA2A2AAAAAAA2A
AAAAAAAAAAA2AAAAAAAAAAAAAAA2A22AAAIAAAAAAAAA2AAA42AA2A2AAAAAAA2A
AAAIAAAAAAA2AAAAAAAAAAAAAAA2A22AAAIAAAAAAAAA2AAA42AA2A2AAAAAAA2A
AAAIAAAAAAA2AAAAAAAAAAAAAAA2A22AAAAAAAAAAAAA2AAA42AA2A2AAAAAAA2A
AAAIAAAAAAA2AAAAAAAAAAAAAAA2A22AAAAAAAAAAAAA2AAAA2AA2A2AAAAAAA2A
AAAIAAAAAAA2AAAAAAAAAAAAAAA2A22AAAAAAAAAAAAI2AAAA2AA2A2AAAAAAA2A
AAAIAAAAAAA2AAAAAAAAAAAAAAA2A22AAAAAAAAAAAA22AAAA2AA2A2AAAAAAA2A
AAAIAAAAAAA2AAAAAAAAAAAAAAA2A22AAAAAAAAAAAA22AAAA2AAAA2AAAAAAA2A
AAAIAAAAAAA2AAAAAAAAAAAAAAA2A22AAAAAAAAAAAA22AAIA2AAAA2AAAAAAA2A
AAAIAAAAAAA2AAAAAAAAAAAAAAA2A22AAAAAAAAAAAA22AA2A2AAAA2AAAAAAA2A
AAAAAAAAAAA2AAAAAAAAAAAAAAA2A22AAAAAAAAAAAA22AA2A2AAAA2AAAAAAA2A
AAAAAAAAAAA2AAAAAAAAAAAAAAA2A22AAAAAAAAAAAAA2AA2A2AAAA2AAAAAAA2A
AAAAAAAAAAA2AAAAAAAAAAAAAAA2A22AAAAAAAAAAAAA2AA2A2AAAAAAAAAAAA2A
AAAAAAAAAAA2AAAIAAAAAAAAAAA2A22AAAAAAAAAAAAA2AA2A2AAAAAAAAAAAA2A
AAAAAAAAAAA2AAA4AAAAAAAAAAA2A22AAAAAAAAAAAAA2AA2A2AAAAAAAAAAAA2A
AAAAAAAAAAA2AAA4AAAAAAAAAAA2A22AAAAAAAIAAAAA2AA2A2AAAAAAAAAAAA2A
AAAAAAAAAAA2AAA4AAAAAAAAAAA2A22AAAAAAAIAAIAA2AA2A2AAAAAAAAAAAA2A
AAAAAAAAAAA2AAA4AAAAAAAAAAA2A22AAAAAAAIAA2AA2AA2A2AAAAAAAAAAAA2A
AAAAAAAAAAA2AAA4AAAAAAAAAAA2A22AAAAAAAIAAIAA2AA2A2AAAAAAAAAAAA2A
AAAAAAAAAAA2AAA4AAAAAAAAAAA2A22AAAAAAAIAA2AA2AA2A2AAAAAAAAAAAA2A
AAAAAAAAAAA2AAA4AAAAAAAAAAA2AA2AAAAAAAIAA2AA2AA2A2AAAAAAAAAAAA2A
AAAAAAAAAAA2AAA4AAAAAAAAAAA2AA2AAAAAAAAAA2AA2AA2A2AAAAAAAAAAAA2A
AAAAAAAAAAA2AAA4AAAAAAAAAAA2AA2AAAIAAAAAA2AA2AA2A2AAAAAAAAAAAA2A
AAAAAAAAAAA2AAA4AAAAAAAAAAA2AA2AAA4AAAAAA2AA2AA2A2AAAAAAAAAAAA2A
AAAAAAAAAAA2AAA4AAAAAAAAAAA2IA2AAA4AAAAAA2AA2AA2A2AAAAAAAAAAAA2A
AAAAAAAIAAA2AAA4AAAAAAAAAAA2IA2AAA4AAAAAA2AA2AA2A2AAAAAAAAAAAA2A
AAAAAAAIAAA2AAA4AAAAAAAAIAA2IA2AAA4AAAAAA2AA2AA2A2AAAAAAAAAAAA2A
AAAAAAAIAAA2AAA4AAAAAAAAIAA2IA2AAA4AAAAAA2AA2AAAA2AAAAAAAAAAAA2A
AAAAAAAIAAA2AAA4AAAAAAAAIAA2IA2AAA4AAAAAA2AAAAAAA2AAAAAAAAAAAA2A
AAAAAAAIAAA2AAA4AAAAAAAA4AA2IA2AAA4AAAAAA2AAAAAAA2AAAAAAAAAAAA2A
AAAAAAAIAAA2AAA2AAAAAAAA4AA2IA2AAA4AAAAAA2AAAAAAA2AAAAAAAAAAAA2A
AAAAAAAIAAA2AAA2AAAAAAAA2AA22A2AAA4AAAAAA2AAAAAAA2AAAAAAAAAAAA2A
AAAAAAAIAAA2AAA2AAAAAAAA2AA22A2AAA4AAAAAAAAAAAAAA2AAAAAAAAAAAA2A
AAAAAAA2AAA2AAA2AAAAAAAA2AA22A2AAA4AAAAAAAAAAAAAA2AAAAAAAAAAAA2A
AAAAAAA2AAA2AAA2AAAAAAAA2AA22A2AAAAAAAAAAAAAAAAAA2AAAAAAAAAAAA2A
AAAAAAA2AAA2AAA2AAAAAAAA2AA22A2AAAIAAAAAAAAAAAAAA2AAAAAAAAAAAA2A
AAAAAAA2AAA2AAA2AAAAAAAA2AA2AA2AAA2AAAAAAAAAAAAAA2AAAAAAAAAAAA2A
AAAAAAA2AAA2AAA2AAAAAAAA2AA2IA2AAA2AAAAAAAAAAAAAA2AAAAAAAAAAAA2A
AAAAAAA2AAA2AAA2AAAAAAAA2AA2IA2AAAIAAAAAAAAAAAAAA2AAAAAAAAAAAA2A
AAAAAAA2AAAAAAA2AAAAAAAA2AA2IA2AAAIAAAAAAAAAAAAAA2AAAAAAAAAAAA2A
AAAAAAA2AAAAAAA2AAAAAAAA2AA2IA2AAAIAAAAAAAIAAAAAA2AAAAAAAAAAAA2A
AAAAAAA2AAAAAAA2AAAAAAAA2AA2IA2AAAAAAAAAAAIAAAAAA2AAAAAAAAAAAA2A
AAAAAAA2AAAAAAA2AAAAAAAA2AA24A2AAAAAAAAAAAIAAAAAA2AAAAAAAAAAAA2A
AAAAAAA2AAAIAAA2AAAAAAAA2AA24A2AAAAAAAAAAAIAAAAAA2AAAAAAAAAAAA2A
AAAAAAA2AAAIAAA2AAAAAAAA2AA24A2AAAAAAAAAAA2AAAAAA2AAAAAAAAAAAA2A
AAAAAAA2AAAIAAA2AAAAAAAA2AA24A2AAAAAAAAAAA2AAAAAA2AAAAAAAIAAAA2A
AAAAAAA2AAA4AAA2AAAAAAAA2AA24A2AAAAAAAAAAA2AAAAAA2AAAAAAAIAAAA2A
AAAAAAA2AAA4AAA2AAAAAAAA2AA24A2AAAAAAAAAAA2AAAAAA2AAAAAAA2AAAA2A
AAAAAAA2AAA4AAA2AAAAAAAA2AA24A2AAAAAAAAAAA2AAAAAA2AAAAAIA2AAAA2A
AAAAAAA2AAA4AAA2AAAAAAAA2AA22A2AAAAAAAAAAA2AAAAAA2AAAAAIA2AAAA2A
AAAAAAA2AAAAAAA2AAAAAAAA2AA22A2AAAAAAAAAAA2AAAAAA2AAAAAIA2AAAA2A
AAAAAAAAAAAAAAA2AAAAAAAA2AA22A2AAAAAAAAAAA2AAAAAA2AAAAAIA2AAAA2A
AAAAAAAAAAAAAAA2AAAAAAAA2AA22A2AAAAAAAAAAAAAAAAAA2AAAAA4A2AAAA2A
AAAAAAAAAAIAAAA2AAAAAAAA2AA22A2AAAAAAAAAAAAAAAAAA2AAAAA4A2AAAA2A
AAAAAAAAAA2AAAA2AAAAAAAA2AA22A2AAAAAAAAAAAAAAAAAA2AAAAA4A2AAAA2A
AAAAAAAAAA2AAAA2AAAAAAAA2AA22A2AAAAAAAAAAAAAAAAAA2AAAAAAA2AAAA2A
AAAAAAAAAA2AAAA2AAAAAAAA2AA22A2AIAAAAAAAAAAAAAAAA2AAAAAAA2AAAA2A
AAAAAAAAAA2AAAA2AAAAAAAA2AA22A2A4AAAAAAAAAAAAAAAA2AAAAAAA2AAAA2A
AAAAAAAAAA2AAAA2AAAAAAAA2AA22A2A4AAAAAAAAAIAAAAAA2AAAAAAA2AAAA2A
AAAAAAAAAA2AAAA2AAAAAAAA2AA22A2A4AAAAAAAAAAAAAAAA2AAAAAAA2AAAA2A
AAAAAAAAAA2AAAA2AAAAAAAA2AA22A2A2AAAAAAAAAAAAAAAA2AAAAAAA2AAAA2A
AAAAAAAAAA2AAAA2AAAAAAAA2AA22A2A2AAAAAAIAAAAAAAAA2AAAAAAA2AAAA2A
AAAAAAAAAA2AAAA2AAAAAAAA2AA2AA2A2AAAAAA4AAAAAAAAA2AAAAAAA2AAAA2A
AAAAAAAAAA2AAAA2AAAAAAAAAAA2AA2A2AAAAAA4AAAAAAAAA2AAAAAAA2AAAA2A
AAAAAAAAAAAAAAA2AAAAAAAAAAA2AA2A2AAAAAA4AAAAAAAAA2AAAAAAA2AAAA2A
AAAAAAAAAAAAAAA2AAAAAAAAAAA2AA2I2AAAAAA4AAAAAAAAA2AAAAAAA2AAAA2A
AAAAAAAAAAAAAAA2AAAAAAAAAAA2AA2A2AAAAAA4AAAAAAAAA2AAAAAAA2AAAA2A
AAAAAAAAAAAAAAA2AAAAAAAAAAA2AA2A2AAIAAA4AAAAAAAAA2AAAAAAA2AAAA2A
AAAAAAAAAAAAAAA2AAAAAAAAAAA2AA2A2AAIAAA2AAAAAAAAA2AAAAAAA2AAAA2A
AAAAAAAAAAAAAAA2AAAAAAAAAAA2AA2A2AA2AAA2AAAAAAAAA2AAAAAAA2AAAA2A
AAAAAAAAAAAAAAA2AAAAAAAAAAA2AA2A2AA2AAA2AAAAIAAAA2AAAAAAA2AAAA2A
AAAAAAAAAAAAAAA2AAAAAAAAAAA2AA2A2AI2AAA2AAAAIAAAA2AAAAAAA2AAAA2A
AAAAAAAAAAAAAAA2AAAAAAAAAAA2AA2A2A42AAA2AAAAIAAAA2AAAAAAA2AAAA2A
AAAAAAAAAAAAAAA2AAAAAAAAAAA2AA2A2A4AAAA2AAAA4AAAA2AAAAAAA2AAAA2A
AAAAAAAAAAAAAAA2AAAAAAAAAAA2AA2A2A4AAAA2AAAA2AAAA2AAAAAAA2AAAA2A
AAAAAAAAAAAAAAA2AAAAAAAAAAA2AA2A2AAAAAA2AAAA2AAAA2AAAAAAA2AAAA2A
AAAIAAAAAAAAAAA2AAAAAAAAAAA2AA2A2AAAAAA2AAAA2AAAA2AAAAAAA2AAAA2A
AAAIAAAAAAAAAAAAAAAAAAAAAAA2AA2A2AAAAAA2AAAA2AAAA2AAAAAAA2AAAA2A
AAAAAAAAAAAAAAAAAAAAAAAAAAA2AA2A2AAAAAA2AAAA2AAAA2AAAAAAA2AAAA2A
AAAAAAAAAAAAAAAAAAAAAAAAAAA2IA2A2AAAAAA2AAAA2AAAA2AAAAAAA2AAAA2A
AAAAAAAAAAAAAAAAAAAAAAAAAAA24A2A2AAAAAA2AAAA2AAAA2AAAAAAA2AAAA2A
AAAAAAAAAAAAAAAAAAAAAAAAAAA24A2A2AAAAAA2AAAA2AAAA2AAAAAIA2AAAA2A
AAAAAAAAAAAAAAAAAAAAAAAAAAA24A2AAAAAAAA2AAAA2AAAA2AAAAAIA2AAAA2A
AAAAAAAAAAAAAAAAAAAAAAAAAAA24A2AAAAAAAA2AAAA2AAAA2AAAAA2A2AAAA2A
AAAAAAIAAAAAAAAAAAAAAAAAAAA24A2AAAAAAAA2AAAA2AAAA2AAAAA2A2AAAA2A
AAAAAAIAAAAAAAAAAAAAAAAAAAA24A2AAAAAAAA2AAAA2AAAA2IAAAA2A2AAAA2A
AAAAAAIAAAAAAAAAAAAAAAAAAAA22A2AAAAAAAA2AAAA2AAAA2IAAAA2A2AAAA2A
AAAAAAIAAAAAAAAAAAAAAAAAAAA22A2AAAAAAAA2AAIA2AAAA2IAAAA2A2AAAA2A
AAAAAAIAAAAAAAAAAAAAAAAAAAA22A2AAAAAAAA2AAAA2AAAA24AAAA2A2AAAA2A
AAAAAAIAAAAAAAAAAAAAAAAAAAA22A2AAAAAAAA2AAAA2AAAA22AAAA2A2AAAA2A
AAAAAA2AAAAAAAAAAAAAAAAAAAA22A2AAAAAAAA2AAAA2AAAA22AAAA2A2AAAA2A
AAAAAA2AAAAAAAAIAAAAAAAAAAA22A2AAAAAAAA2AAAA2AAAA22AAAA2A2AAAA2A
AAAAAA2AAAAAAAAIAAAAAAAAAAA22A2AAAAAAAA2AAAA2AAAA22AAAAAA2AAAA2A
AAAAAA2AAAAAAAA4AAAAAAAAAAA22A2AAAAAAAA2AAAA2AAAA22AAAAAA2AAAA2A
AAAAAA2AAAAAAAA4AAAAAAAAAAA22A2AAAAAAAA2AAAA2AAAA22AAAAIA2AAAA2A
AAAIAA2AAAAAAAA4AAAAAAAAAAA22A2AAAAAAAA2AAAA2AAAA22AAAAIA2AAAA2A
AAAIAA2AAAAAAAA4AAAAAAAAAAA22A2AAAAAAAA2AAAA2AAAA22AAAA2A2AAAA2A
AAAIAA2AAAAAAAA4AAAAAAAAAAA22A2AAAAAAAAAAAAA2AAAA22AAAA2A2AAAA2A
AAAIAA2AAAAAAAA2AAAAAAAAAAA22A2AAAAAAAAAAAAA2AAAA22AAAA2A2AAAA2A
AAAIAA2AAAAAAAA2AAAAAAAAAAA22A2AAAAAAAAAAAAA2AAAA22AAAAAA2AAAA2A
AAAIAA2AAAAAAAA2AIAAAAAAAAA22A2AAAAAAAAAAAAA2AAAA22AAAAAA2AAAA2A
AAAIAA2AAAAAAAA2AIAAAAAAAAA22A2AAAAAAAAAAAIA2AAAA22AAAAAA2AAAA2A
AAAAAA2AAAAAAAA2A4AAAAAAAAA22A2AAAAAAAAAAAIA2AAAA22AAAAAA2AAAA2A
AAAAAA2AAAAAAAAAA2AAAAAAAAA22A2AAAAAAAAAAAIA2AAAA22AAAAAA2AAAA2A
AAAAAA2AAAAAAAAAA2AAAAAAAAA2AA2AAAAAAAAAAA4A2AAAA22AAAAAA2AAAA2A
AAAAAA2AAAAAAAAAA2AAAAAAAAA2IA2AAAAAAAAAAA4A2AAAA22AAAAAA2AAAA2A
AAAAAA2AAIAAAAAAA2AAAAAAAAA2IA2AAAAAAAAAAA4A2AAAA22AAAAAA2AAAA2A
AAAAAA2AAIAAAAAAAAAAAAAAAAA24A2AAAAAAAAAAA4A2AAAA22AAAAAA2AAAA2A
AAAAAA2AAIAAAAAAAAAAAAAAAAA24A2AAAAAAAAAAA2A2AAAA22AAAAAA2AAAA2A
AAAAAA2AA4AAAAAAAAAAAAAAAAA24A2AAAAAAAAAAA2A2AAAA22AAAAAA2AAAA2A
AAAAAA2AA4AAAAAAAAAAAAAAAAA24A2AAAAAAAAAAAAA2AAAA22AAAAAA2AAAA2A
AAAAAA2AA4AAAAAAAAAAAAAAAAA24A2AAAAAAAAAAAAA2AAAA22IAAAAA2AAAA2A
AAAAAA2AA4AAAAAAAAAAAAAAAAA24A2AAAAAAAAAAAAA2AAAA224AAAAA2AAAA2A
AAAAAA2AA4AAAAAAAAAAAAAAAAA24A2AAAAAAAIAAAAA2AAAA224AAAAA2AAAA2A
AAAAAA2AA4AAAAAAAAAAAAAAAAA2AA2AAAAAAA4AAAAA2AAAA224AAAAA2AAAA2A
AAAAAA2AA4AAAAAAAAAAAAAAAAA2AA2AAAAAAAAAAAAA2AAAA224AAAAA2AAAA2A
AAAAAA2AA2AAAAAAAAAAAAAAAAA2AA2AAAAAAAAAAAAA2AAAA224AAAAA2AAAA2A
AAAAAA2AA2AAAAAAAAAAAAAAAAA2AA2AAAAAAAAAAAAA2AAAA224AAAIA2AAAA2A
AAAAAA2AA2AAAAAAAAAAAAAAAAA2AA2AAAAAAAAAAAAA2AIAA224AAAIA2AAAA2A
AAAAAA2AA2AAAAAAAAAAAAAAAAA2AA2AAAAAAAAAAAAA2A4AA224AAAIA2AAAA2A
AAAAAA2AA2AAAAAAAAAAAAAAAAA2AA2AAAAAAAAAAAAA2A4AA22AAAA2A2AAAA2A
AAAAAA2AA2AAAAAAAAAAAAAAAAA2AA2AAAAAAAAAAAAA2A4AA22AAAAAA2AAAA2A
AAAAAA2AA2AAAAAAAAAAAAAAAAA2AA2AAAAAAAAAAAAA2A2AA22AAAAAA2AAAA2A
AAAAAA2AA2AAAAAAAAAAAAAAAAA2AA2AAAAAAAAAAAAA2A2AA22IAAAAA2AAAA2A
AAAAAA2AA2AAAAAAAAAAAAAAAAA2AA2AAAAAAAAAAAAA2A2AA224AAAAA2AAAA2A
AAAAAA2AA2AAAAAAAAAAAAAAAAA2AA2AAAAAAAAAAAAA2AAAA222AAAAA2AAAA2A
AAAAAA2AA2AAAAAAAAAAAAAAAAA2AA2AAAAAAAIAAAAA2AAAA222AAAAA2AAAA2A
AAAAAA2AA2AAAAAAAAAAAAAAAAA2AA2AAAAAAAAAAAAA2AAAA222AAAAA2AAAA2A
AAAAAA2AA2AAAAAAAAAAAAAAAAA2AA2AAAAAAAAAAAIA2AAAA222AAAAA2AAAA2A
AAAAAA2AA2AAAAAAAAAAAAAAAAA2AA2AAAAAAAAAAAIA2AAAI222AAAAA2AAAA2A
AAAAAA2AA2AAAAAAAAAAAAAAAAA2AA2AAAAAAAAAAAIAAAAAI222AAAAA2AAAA2A
AAAAAA2AA2AAAAAAAAAAAAAAAAA2AA2AAAAAAAAAAA4AAAAAI222AAAAA2AAAA2A
AAAAAA2AA2AAAAAAAAAAAAAAAAA2AA2AAAAAAAAAAA2AAAAA4222AAAAA2AAAA2A
AAAAAA2AA2AAAIAAAAAAAAAAAAA2AA2AAAAAAAAAAA2AAAAA4222AAAAA2AAAA2A
AAAAAA2AA2AAAIAAAIAAAAAAAAA2AA2AAAAAAAAAAA2AAAAA4222AAAAA2AAAA2A
AAAAAAAAA2AAA2AAAIAAAAAAAAA2AA2AAAAAAAAAAA2AAAAA4222AAAAA2AAAA2A
AAAAAAAAA2AAA2AAAAAAAAAAAAA2AA2AAAAAAAAAAA2AAAAA4222AAAAA2AAAA2A
AAAAAAAAA2AAA2AAAAAAAAAAAAA2AA2AAAAAAAAAAA2AAAAA2222AAAAA2AAAA2A
AAAAAAAAA2AAA2AAAAAAAAAAAAA2AA2AAAAAAAAAAA2IAAAA2222AAAAA2AAAA2A
AAAAAAAAA2AAA2AAAAAAAAAAAAA2AA2AAAAAAAAAAA2AAAAA2222AAAAA2AAAA2A
AAAAAAAAA2AAA2AAAAAAAAAAAAA2AA2AAAAAAAAAAA2AAAAAA222AAAAA2AAAA2A
AAAAAAAAA2AAA2AAAAAAAAAAAAA2AA2AAAAAAAAAAA2AAAAAA2A2AAAAA2AAAA2A
AAAAAAAAA2AAA2AAAAAAAAAAAAA2AA2AAAAAIAAAAA2AAAAAA2A2AAAAA2AAAA2A
AAAAAAAAA2AAA2AAAAAAAAAAAAA2AA2AAAAA2AAAAA2AAAAAA2A2AAAAA2AAAA2A
AAAAAAAAA2AAA2AAAAAAAAAAAAA2AA2AAAAA2AAAAAAAAAAAA2A2AAAAA2AAAA2A
AAAAAAAAA2AAA2AAAAAAAAAAAAA2AA2AAAAA2AIAAAAAAAAAA2A2AAAAA2AAAA2A
AAAAAAAAA2AAA2AAAAAAAAAAAAA2AA2AAAAA2AIAAAIAAAAAA2A2AAAAA2AAAA2A
AAAAAAAAA2AAA2AAAAAAAAAAAAA2AA2AAAAA2AIAAAIAAAAAAAA2AAAAA2AAAA2A
AAAAAAAAA2AAA2AAAAAAAAAAAAA2AA2AAAAA2AIAAAAAAAAAAAA2AAAAA2AAAA2A
AAAAAAAAA2AAA2AAAAAAAAAAAAA2AA2AAAAA2AIAAAAAAAAAAIA2AAAAA2AAAA2A
AAAAAAAAA2AAA2AAAAAAAAAAAAA2AA2AAAAA2A4AAAAAAAAAAIA2AAAAA2AAAA2A
AAAAAAAAA2AAA2AAAAAAAAAAAAA2AA2AAAAA2A4AAAAAAAAAAIA2AAAIA2AAAA2A
AAAAAAAAA2AAA2AAAAAAAAAAAAA2AA2AAAAA2AAAAAAAAAAAA4A2AAAIA2AAAA2A
AAAAAAAAA2AAA2AAAAAAAAAAAAA2AA2AAAAA2AAAAAAAAAAAA2A2AAA4A2AAAA2A
AAAAAAAAA2AAA2AAAAAAAAAAAAA2AA2AAAAAAAAAAAAAAAAAA2A2AAA4A2AAAA2A
AAAAAAAAA2AAA2AAAAAAAAAAAAA2AA2AAAAAAAAAAAAAAAAAA2A2AAA2A2AAAA2A
AAAAAAAAA2AAA2AAAAAAAAAAAAA2AA2AAAAAAAAAAAAAAAAAAIA2AAA2A2AAAA2A
AAAAAAAAA2AAA2AAAAAAAAAAAAA2AA2AAAAAAAAAAAAAAAAAA4A2AAA2A2AAAA2A
AAAAAAAAA2AAA2AAAAAAAAAAAAA2AA2AAAAAAAAAAAAAAAAAA4A2AIA2A2AAAA2A
AAAAAAAAA2AAA2AAAAAAAAAAAAA2AA2AAAAAAAAAAAAAAAAAA2A2A2A2A2AAAA2A
AAAAAAAAA2AAA2AAAAAAAAAAAAA2AA2AAAAAAAAAAAAAAAAIA2A2A2A2A2AAAA2A
AAAAAAAAA2AAA2AAAAAAAAAAAAA2AA2AAAAAAAAAAAAAAAA2A2A2A2A2A2AAAA2A
AAAAAAAAA2AAA2AAAAAAAAAAAAA2AA2AAAAAAAAAAAAAAAA2A2A2A2AAA2AAAA2A
AAAAAAAAA2AAA2AAAAAAAAAAAAA2AA2AAAAAAAAAAAAAAAAAA2A2A2AAA2AAAA2A
AAAAAAAAA2AAA2AAAAAAAAAAAAI2AA2AAAAAAAAAAAAAAAAAA2A2A2AAA2AAAA2A
AAAAAAAAA2AAA2AAAAAAAAAAAA42AA2AAAAAAAAAAAAAAAAAA2A2A2AAA2AAAA2A
AAAAAAAAA2AAA2AAAAAAAAAAAA22AA2AAAAAAAAAAAAAAAAAA2A2A2AAA2AAAA2A
AAAAAAAAA2AAA2AAAAAAAAAAAA22AA2AAAAAAAAAAAAAAAAAA2A2A2AAA2AAIA2A
AAAAAAAAAAAAA2AAAAAAAAAAAA22AA2AAAAAAAAAAAAAAAAAA2A2A2AAA2AAIA2A
AAAAAAAAAAAAAAAAAAAAAAAAAA22AA2AAAAAAAAAAAAAAAAAA2A2A2AAA2AAIA2A
AAAAAAAAAAAAAAAAAAAAAAAAAA22AA2AAAAAAAIAAAAAAAAAA2A2A2AAA2AAIA2A
AAAAAAAAAAAAAAAAAAAAAAAAAA22AA2AAAAAAAAAAAAAAAAAA2A2A2AAA2AAIA2A
AAAAAAAAAAAAAAAAAAAAAAAAAA22AA2AAAAAAAAAAAAAAAAAA2A2A2AIA2AAIA2A
AAAAAAAAAAAAAAAAAAAAAAAAAA22AA2AAAAAAAAAAAAAAAAAA2A2A2A4A2AAIA2A
AAAAAAAAAAAAAAAAAAAAAAIAAA22AA2AAAAAAAAAAAAAAAAAA2A2A2A4A2AAIA2A
AAAAAAAAAAAAAAAAAAAAAAIAAA22AAAAAAAAAAAAAAAAAAAAA2A2A2A4A2AAIA2A
AAAAAAAAAAAAAAAAAAAAAAIAAA22AAAAAAAAAAAAAAAAAAAAA2A2A2AAA2AAIA2A
AAAAAAAAAAAAAAAAAAAAAA4AAA22AAAAAAAAAAAAAAAAAAAAA2A2A2AAA2AAIA2A
AAAAAAAAAAAAAAAAAAAAAA4AAAA2AAAAAAAAAAAAAAAAAAAAA2A2A2AAA2AAIA2A
AAAAAAAAAAAAAAAAAAAAAA4AAAA2AAAAAAAAAAAAAAAAAAAAA2A2A2AAA2AA4A2A
AAAAAAAAAAAAAAAAAAAAAA4AAAA2AAAAAAAAAAAAAAAIAAAAA2A2A2AAA2AA4A2A
AAAAAAAAAAAAAAAAAAAAAA4AAAA2AAAAAAAAAAAAAAAIAAAAA2A2A2AAA2AA2A2A
AAAAAAAAAAAAAAAAAAAAAA4AAAA2AAAAAAAAAAAAAAAIAAIAA2A2A2AAA2AA2A2A
AAAAAAAAAAAAAAAAAAAAAA4AAAA2AAAAAAAAAAAAAAA2AA2AA2A2A2AAA2AA2A2A
AAAAAAAAAAAAAAAAAAAAAA4AAAA2AAAAAAAAAAAAAAAAAA2AA2A2A2AAA2AA2A2A
AAAAAAAAAAAAAAAAAAAAAA4AAAA2AAAAAAAAAAAAAAAAAAIAA2A2A2AAA2AA2A2A
AAAAAAAAAAAAAAAAAAAAAA4AAAA2AAAAAAAAAAAAAAAAAAIAI2A2A2AAA2AA2A2A
AAAAAAAAAAAAAAAAAAAAAA4AAAAAAAAAAAAAAAAAAAAAAAIAI2A2A2AAA2AA2A2A
AAAAAAAAAAAAAAAAAAAAAA4AAAAAAAAAAAAAAAAAAAAAAAIAA2A2A2AAA2AA2A2A
AAAAAAAAAAAAAAAAAAAAAA2AAAAAAAAAAAAAAAAAAAAAAAIAA2A2A2AAA2AA2A2A
AAAAAAAAAAAAAAAAAAAAAA2AAAAIAAAAAAAAAAAAAAAAAAIAA2A2A2AAA2AA2A2A
AAAAAAAAAAAAAAAAAAAAAA2AAAAIAAAAAAAAAAAAAAAAAA4AA2A2A2AAA2AA2A2A
AAAAAAAAAAAAAAAAAAAAAA2AAAAIAAAAAAAAAAAAAAAAAA4AI2A2A2AAA2AA2A2A
AAAAAAAAAAAAAAAAAAAAAA2AAAAIAAAAAAAAAAAAAAAAAA4A42A2A2AAA2AA2A2A
AAAAAAAAAAAAAAAAAAAAAA2AAAAIAAAAAAAAAAAAAAAAAA2A42A2A2AAA2AA2A2A
AAAAAAAAAAAAAAAAAAAAAA2AAAA4AAAAAAAAAAAAAAAAAA2A42A2A2AAA2AA2A2A
AAAAAAAAAAAAAAAAAAAAAAAAAAA2AAAAAAAAAAAAAAAAAA2A42A2A2AAA2AA2A2A
AAAAAAAAAAAAAAAAAAAAAAAAAAA2AAAAAAAAAAAAAAIAAA2A42A2A2AAA2AA2A2A
AAAAAAAAAAAAAAAAAAAAAAAAAAA2AAAAAAAAAAAAAA2AAA2A42A2A2AAA2AA2A2A
AAAAAAAAAAAAAAAAAAAAAAAAAAA2AAAAAAAAAAAAAAAAAA2A42A2A2AAA2AA2A2A
AAAAAAAAAAAAAAAAAAAAAAAAAAA2AAAAAAAAAAAAAAAAAAAA22A2A2AAA2AA2A2A
AAAAAAAAAAAAAAAAAAAAAAAAAAA2AAAAAAAAAAAAAAAAAAAA22A2AAAAA2AA2A2A
AAAAAAAAAAAAAAAAAAAAAAAAAAA2AAAAAAAAAAAAAAAAAAAA22A2AAAAA2AA2AAA
AAAAAAAAAAAAAAAAAAAAAAAAAAA2AAAAAAAAAAAAAAAAAAAA22A2AIAAA2AA2AAA
AAAAAAAAAAAAAAAAAAAAAAAAAAA2AAAAAAAAAAAAAAAAAAAA22A2AIAAA2AAAAAA
AAAAAAAAAAAAAAAAAAAAAAAAAAA2AAAAAAAAAAAAAAAAAAAA22A2A2AAA2AAAAAA
AAAAAAAIAAAAAAAAAAAAAAAAAAA2AAAAAAAAAAAAAAAAAAAA22A2A2AAA2AAAAAA
AAAAAAA2AAAAAAAAAAAAAAAAAAA2AAAAAAAAAAAAAAAAAAAA22A2A2AAA2AAAAAA
AAAAAAA2AAAAAAAAAAAAAAAAAAA2AAAAAAAAAAAAAAAAAAAAA2A2A2AAA2AAAAAA
AAAAAAA2AAAAAAAAAAAAAAAAAAA2AAAAAAAAAAAAAAAAIAAAA2A2A2AAA2AAAAAA
AAAAAAA2AAAAAAAAAAAAAAAAAAA2AAAAAAAAAAAAAAAA4AAAA2A2A2AAA2AAAAAA
AAAAAAA2AAAAAAAAAAAAAAAAAAA2AAAAAAAAAAAAAAAA2AAAA2A2A2AAA2AAAAAA
AAAAAAA2AAAAAAAAAAAAAAAAAAA2IAAAAAAAAAAAAAAA2AAAA2A2A2AAA2AAAAAA
AAAAAAA2AAAAAAAAAAAAAAAAAAA2IAAIAAAAAAAAAAAA2AAAA2A2A2AAA2AAAAAA
AAAAAAA2AAAAAAAAAAAAAAAAAAA2IAAIAAAAAAAAAAAA2IAAA2A2A2AAA2AAAAAA
AAAAAAA2AAAAAAAAAAAAAAAAAAA2IAAIAAAAAAAAAAAA2AAAA2A2A2AAA2AAAAAA
AAAAAAA2AAAAAAAAAAAAAAAAAAA2IAA2AAAAAAAAAAAA2AAAA2A2A2AAA2AAAAAA
AAAAAAA2AAAAAAAAAAAAAAAAAAA2IAA2AAAAAAAAAAAA2AAIA2A2A2AAA2AAAAAA
AAAAAAA2AAAAAAAAAAAAAAAAAAA24AA2AAAAAAAAAAAA2AAIA2A2A2AAA2AAAAAA
AAAAAAA2AAAAAAIAAAAAAAAAAAA24AA2AAAAAAAAAAAA2AAIA2A2A2AAA2AAAAAA
AAAAAAA2AAAAAAIAAAAAAAAAAAA24AA2AAAAAAAAAAAA2AA4A2A2A2AAA2AAAAAA
AAAAAAA2AAAAAA4AAAAAAAAAAAA24AA2AAAAAAAAAAAA2AA4A2A2A2AAA2AAAAAA
AAAAAAA2AAAAAA4AAAAAAAAAAAA24AA2AAAAAAAAAAAA2AA2A2A2A2AAA2AAAAAA
AAAAAAA2AAAAAA4AAAAAAAAAAAA24AA2AAAAAAAAAAAA2AA2AAA2A2AAA2AAAAAA
AAAAAAA2AAAAAAAAAAAAAAAAAAA24AA2AAAAAAAAAAAA2AA2AAA2A2AAA2AAAAAA
AAAAAAA2AAAAAAAAAAAAAAAAAAA24AA2AAAAAAAAAAAA2AA2AAA2AAAAA2AAAAAA
AAAAAAA2AAAAAAAAAAAAAAAAAAA24AA2AAAAAAAAAAAA2AA2AAA2AIAAA2AAAAAA
AAAAAAA2AAAAAAAAAAAAAAAAAAA24AA2AAAAAAAAAAAA2AA2AAA2AIAAA2AAIAAA
AAAAAAA2AAAAAAAAAAAAAAAAAAA24AA2AAAAAAAAAAAA2AA2AAA2AIAAA2AA2AAA
AAAAAAA2AIAAAAAAAAAAAAAAAAA24AA2AAAAAAAAAAAA2AA2AAA2AIAAA2AA2AAA
AAAAAAA2AIAIAAAAAAAAAAAAAAA24AA2AAAAAAAAAAAA2AA2AAA2AIAAA2AA2AAA
AAAAAAA2AIAIAAAAAAAAAAAAAAA24AA2AAAAAAAAAAAA2AA2AAA2A4AAA2AA2AAA
AAAAAAA2AIAIAAAAAAAAAAAAAAA24AA2AAAAAAAAAAAA2AA2AAA2A4AIA2AA2AAA
AAAAAAA2AIAIAAAAAAAAAAAAAAA22AA2AAAAAAAAAAAA2AA2AAA2A4AIA2AA2AAA
AAAAAAA2AIAIAAAAAAAAAAAAAAA22AA2AAAAAAAAAAAA2AA2AAA2A2AIA2AA2AAA
AAAAAAA2A4A4AAAAAAAAAAAAAAA22AA2AAAAAAAAAAAA2AA2AAA2A2AIA2AA2AAA
AAAAAAA2A2A2AAAAAAAAAAAAAAA22AA2AAAAAAAAAAAA2AA2AAA2A2AIA2AA2AAA
AAAAAAA2A2A2AAAAAAAAAAAAAAA22AA2AAAAAAIAAAAA2AA2AAA2A2AIA2AA2AAA
AAAAAAA2A2AIAAAAAAAAAAAAAAA22AA2AAAAAAIAAAAA2AA2AAA2A2AIA2AA2AAA
AAAAAAA2A2AIAAAAAAAAAAAAAAA22AA2AAAAAAIAAAAA2AA2AAA2AAAIA2AA2AAA
AAAAAAA2A2AIAAAAAAAAAAAAAAA22AA2AAAAAAIAAAIA2AA2AAA2AAAIA2AA2AAA
AAAAAAA2A2A4AAAAAAAAAAAAAAA22AA2AAAAAAIAAAIA2AA2AAA2AAAIA2AA2AAA
AAAAAAA2A2A4AAAAAAAAAAAAAAA22AA2AAAAAA4AAA4A2AA2AAA2AAAIA2AA2AAA
AAAAAAA2A2A4AAAAAAAAAAAAAAA22AA2AAAAAA4AAAAA2AA2AAA2AAA4A2AA2AAA
AAAAAAA2A2A4AAAAAAAAAAAAAAA22AA2AAAAAA4AAAAA2AA2AAA2AAA2A2AA2AAA
AAAAAAA2A2A4AAAAAAAAAAAAAAA22AA2AAAAAA4AAAAA2AA2AAI2AAA2A2AA2AAA
AAAAAAA2A2A4AAAAAAAAAAAAAAA22AAAAAAAAA2AAAAA2AA2AAI2AAA2A2AA2AAA
AAAAAAA2A2A4AAAAAAAAAAAAAAA22AAAAAAAAA2AAAIA2AA2AAI2AAA2A2AA2AAA
AAAAAAA2A2AAAAAAAAAAAAAAAAA22AAAAAAAAA2AAAIA2AA2AAI2AAA2A2AA2AAA
AAAAAAA2A2AAAAAAAAAAAAAAAAA22AAAAAAAAA2AAA2A2AA2AA42AAA2A2AA2AAA
AAAAAAA2A2AAAAAAAAAAAAAAAAA22AAAAAAAAA2AAA2A2AA2AA42AAAAA2AA2AAA
AAAAAAA2AAAAAAAAAAAAAAAAAAA22AAAAAAAAA2AAA2A2AA2AA42AAAAA2AA2AAA
AAAAAAA2AAAAAAAAAAAAAAAAAAA22AAAAAAAAA2AAA2A2AAAAA42AAAAA2AA2AAA
AAAAAAAAAAAAAAAAAAAAAAAAAAA22AAAAAAAAA2AAA2A2AAAAA42AAAAA2AA2AAA
AAAAAAAAAAAAAAAAAAAAAAAAAAA22AAAAAAAAAAAAA2A2AAAAA42AAAAA2AA2AAA
AAAAAAAAAAAAIAAAAAAAAAAAAAA22AAAAAAAAAAAAA2A2AAAAA42AAAAA2AA2AAA
AAAAAAAAAAAAIAAAAAAAAAAAAAA22AAAAAAAAAAAAA2A2AAIAA42AAAAA2AA2AAA
AAAAAAAAAAAAIAAAAAAAAAAAAAA22AAAAAAAAAAAAA2A2AA2AA22AAAAA2AA2AAA
AAAAAAAAAAAA2AAAAAAAAAAAAAA22AAAAAAAAAAAAA2A2AA2AA22AAAAA2AA2AAA
AAAAAAAAAAAA2AAAAAAAAAAAAAA22AAAAAAAAAAAAA2A2AI2AA22AAAAA2AA2AAA
AAAAAAAAAAAA2AAAAAAAAAAAAAA22AAAAAAAAAAAAA2A2AIAAA22AAAAA2AA2AAA
AAAAAAAAAAAA2AAAAAAAAAAAAAA22AAAAAIAAAAAAA2A2AIAAA22AAAAA2AA2AAA
AAAAAAAAAAAA2AAAAAAAAAAAAAA22AAAAAIAAAAAAA2A2AIAAAI2AAAAA2AA2AAA
AAAAAAAAAAAA2AAAAAAAAAAAAAA22AAAAAIAAAAAAAAA2A2AAA22AAAAA2AA2AAA
AAAIAAAAAAAA2AAAAAAAAAAAAAA22AAAAAIAAAAAAAAA2A2AAA22AAAAA2AA2AAA
AAAIAAAAAAAA2AAAAAAAAAAAAAA22AAAAA2AAAAAAAAA2A2AAA22AAAAA2AA2AAA
AAA2AAAAAAAA2AAAAAAAAAAAAAA22AAAAA2AAAAAAAAA2A2AAA22AAAAA2AA2AAA
AAAAAAAAAAAA2AAAAAAAAAAAAAA22AAAAA2AAAAAAAAA2A2AAA22AAAAA2AA2AAA
AAAAAAAAAAAA2AAAAAAAAAAAAAA22AAAAA2AAAAAAAAA2A2AAAA2AAAAA2AA2AAA
AAAAAAAAAAAA2AAAAAAAAAAAAAA22AAAAA2AAAAAAAAA2A2AAAA2AAAIA2AA2AAA
AAAAAAAAAAAA2AAAAAAAAAAAAAA22AAAAA2AAAAAAAAA2A2AAAA2AAA4A2AA2AAA
AAAAAAAAAAAA2AAAAAAAAAAAAAA22AAAAA2AAAAAAAAI2A2AAAA2AAA4A2AA2AAA
AAAAAAAAAAAA2AAAAAAAAAAAAAA22AAAAA2AAAAAAAAI2A2IAAA2AAA4A2AA2AAA
AAAAAAAAAAAA2AAAAAAAAAAAAAA22AAAAA2AAAAAAAA22A24AAA2AAA4A2AA2AAA
AAAAAAAAAAAA2AAAAAAAAAAAAAA2AAAAAA2AAAAAAAA22A24AAA2AAA4A2AA2AAA
AAAAAAAAAAAA2AAAAAAAAAAAAAA2AAAAAAAAAAAAAAA22A24AAA2AAA4A2AA2AAA
AAAAAAAAAAAA2AAAAAAAAAAAAAA2AAAAAAAAAAAAAAA22A24AAA2AAAAA2AA2AAA
AAAAAAAAAAIA2AAAAAAAAAAAAAA2AAAAAAAAAAAAAAA22A24AAA2AAAAA2AA2AAA
AAAAAAAAAAIA2AAAAAAAAAAAAAA2AAAAAAAAAAAAAAA22A22AAA2AAAAA2AA2AAA
AAAAAAAAAAIA2AAAAIAAAAAAAAA2AAAAAAAAAAAAAAA22A22AAA2AAAAA2AA2AAA
AAAAAAAAAAIA2AAAA4AAAAAAAAA2AAAAAAAAAAAAAAA22A22AAA2AAAAA2AA2AAA
AAAAAAAAAAIA2AAAA2AAAAAAAAA2AAAAAAAAAAAAAAA22A22AAA2AAAAA2AA2AAA
AAAAAAAAAA2A2AAAA2AAAAAAAAA2AAAAAAAAAAAAAAA22A22AAA2AAAAA2AA2AAA
AAAAAAAAAA2A2AAAA2AAAAAAAAA2AAAAAAAAAAAAAAA22A22IAA2AAAAA2AA2AAA
AAAAAAAAAA2A2AAAA2AAAAAAAAA2AAAAAAAAAAAAAAA22A224AA2AAAAA2AA2AAA
AAAAAAAAAA2A2AAAA2AAAAAAAAA2AAAAAAAAAAAAAAAA2A224AA2AAAAA2AA2AAA
AAAAAAAAAA2A2AAAA2AAAAAAAAA2AAAAAAAAAAAAAAAA2A222AA2AAAAA2AA2AAA
AAAAAAAAAA2A2AAAA2AAAAAAAAA2IAAAAAAAAAAAAAAA2A222AA2AAAAA2AA2AAA
AAAAAIAAAA2A2AAAA2AAAAAAAAA2IAAAAAAAAAAAAAAA2A222AA2AAAAA2AA2AAA
AAAAA2AAAA2A2AAAA2AAAAAAAAA2IAAAAAAAAAAAAAAA2A222AA2AAAAA2AA2AAA
AAAAA2AAAA2A2AAAA2AAAAAAAAA2IAAAAAAAAAAAAAAA2A222AA2AAAAA2AI2AAA
AAAAA2AAAA2A2AAAAAAAAAAAAAA24AAAAAAAAAAAAAAA2A222AA2AAAAA2AI2AAA
AAAAA2AAAA2A2AAAAAAAAAAAAAA24AAAAAAAAAAAAAAA2A222AA2AAAAA2A42AAA
AAAAA2AAAA2A2AAAAAAAAAAAAAA24AAAAAAAAAAAAAAA2A2A2AA2AAAAA2A42AAA
AAAAA2AAAA2A2AAAAAAAAAAAAAA24AAAAAAAAAAAAAAA2AAA2AA2AAAAA2A42AAA
AAAIA2AAAA2A2AAAAAAAAAAAAAA24AAAAAAAAAAAAAAA2AAA2AA2AAAAA2A42AAA
AAAIA2AAAA2A2AAAAAAAAAAAAAA24AAAAAAAAAAAAAAA2AAA2AA2AIAAA2A42AAA
AAAIA2AAAA2A2AAAAAAAAAAAAAA24AAAAAAAAAAAAAAA2AAA2AA2A4AAA2A42AAA
AAAIA2AAAA2A2AAAAAAAAAAAAAA24AAAAAAAAIAAAAAA2AAA2AA2A4AAA2A42AAA
AAAIA2AAAA2A2AAAAAAAAAAAAAA24AAAAAAAAIAAAAAA2AAA2AA2A4AAA2A22AAA
AAAIA2AAAA2A2AAAAAAAAAAAAAA24AAAAAAAAIAAAAIA2AAA2AA2A4AAA2A22AAA
AAA2A2AAAA2A2AAAAAAAAAAAAAA24AAAAAAAAIAAAAIA2AAA2AA2A4AAA2A22AAA
AAA2A2AAAA2A2AAAAAAAAAAAAAA24AAAAAAAAIAAAA2A2AAA2AA2A4AAA2A22AAA
AAA2A2AAAA2A2AAAAAAAAAAAAAA24AAAAAAAAAAAAA2A2AAA2AA2A4AAA2A22AAA
AAA2AAAAAA2A2AAAAAAAAAAAAAA24AAAAAAAAAAAAA2A2AAA2AA2A4AAA2A22AAA
AAA2AAAAAA2A2AAAAAAAAAAAAAA24AAAAAAAAAAAAA2AAAAA2AA2A4AAA2A22AAA
AAA2AAAAAA2A2AAAAAAAAAAAAAA24AAAAAAAAAAAAA2AAAAA2AA2AAAAA2A22AAA
AAAAAAAAAA2A2AAAAAAAAAAAAAA24AAAAAAAAAAAAA2AAAAA2AA2AAAAA2A22AAA
AAAAAAAAAA2A2AAAAAAAAAAAAAA24AAAAAAAAAAAAA2AAAAA2AA2AAAAA2AA2AAA
AAAAAAAAAA2A2AAAAAAAAAAAAAA22AAAAAAAAAAAAA2AAAAA2AA2AAAAA2AA2AAA
AAAAAAAAAA2A2AAAAAAAAAAAAAA2AAAAAAAAAAAAAA2AAAAA2AA2AAAAA2AA2AAA
AAAAAAAAAA2A2AAAAAAAAAAAAAA2AAAAAAAAAAAAAA2AAAAA2AA2AIAAA2AA2AAA
AAAAAAAAAA2A2AAAAAAAAAAAAAA2AAAAAAAAAAAAAA2AAAAI2AA2AIAAA2AA2AAA
AAAAAAAAAA2A2AAAAAAAAAAAAAA2AAAAAAAAAAAAAA2AAAA42AA2AIAAA2AA2AAA
AAAAAAAAAA2A2AAAAAAAAAAAAAA2AAAAAAAAAAAAAAAAAAA42AA2A4AAA2AA2AAA
AAAAAAAAAA2AAAAAAAAAAAAAAAA2AAAAAAAAAAAAAAAAAAA42AA2A4AAA2AA2AAA
AAAAAAAAAA2AAAAAAAAAAAAAAAA2AAAAAAAAAAAAAAAAAAA42AA2A2AAA2AA2AAA
AAAAAAAAAA2AAAAAAAAAAAAAAAA2AAAAAAAAAAIAAAAAAAA42AA2A2AAA2AA2AAA
AAAAAAAAAA2AAAAAAIAAAAAAAAA2AAAAAAAAAAIAAAAAAAA42AA2A2AAA2AA2AAA
AAAAAAAAAA2AAAAAAIAAAAAAAAA2AAAAAAAAAA2AAAAAAAA42AA2A2AAA2AA2AAA
AAAAAAAAAA2AAAAAA4AAAAAAAAA2AAAAAAAAAA2AAAAAAAA42AA2A2AAA2AA2AAA
AAAAAAAAAAAAAAAAA4AAAAAAAAA2AAAAAAAAAA2AAAAAAAA42AA2A2AAA2AA2AAA
AAAAAAAAAAAAAAAAAAAAAAAAAAA2AAAAAAAAAA2AAAAAAAA42AA2A2AAA2AA2AAA
AAAAAAAAAAAAAAAAAAAAAAAAAAA2AAAAAAAAAAAAAAAAAAA42AA2A2AAA2AA2AAA
AAAAAAAAAAIAAAAAAAAAAAAAAAA2AAAAAAAAAAAAAAAAAAA42AA2A2AAA2AA2AAA
AAAAAAAAAAIAAAIAAAAAAAAAAAA2AAAAAAAAAAAAAAAAAAA42AA2A2AAA2AA2AAA
AAAAAAAAAAIAAAIAAAAAAAAAAAA2AAAAAAAAAAAAAAAAAAA22AA2A2AAA2AA2AAA
AAAAAAAAAAIAAAIAAAAAAAAAAAA2AAAAAAAAAAAAAAAAAAAA2AA2A2AAA2AA2AAA
AAAAAAAAAA2AAA2AAAAAAAAAAAA2AAAAAAAAAAAAAAAAAAAA2AA2A2AAA2AA2AAA
AAAAAAAAAA2AAA2AAAAAAAAAAAA2AAAIAAAAAAAAAAAAAAAA2AA2A2AAA2AA2AAA
AAAAAAAAAA2AAA2AAAAAAAAAAAA2AAAIAAAAAAAAAAAAAAAAAAA2A2AAA2AA2AAA
AAAAAIAAAA2AAA2AAAAAAAAAAAA2AAAIAAAAAAAAAAAAAAAAAAA2A2AAA2AA2AAA
AAAAAIAAAA2AAA2AAAAAAAAAAAA2AAAIAAAAAAAAAAAAAAAAIAA2A2AAA2AA2AAA
AAAAAIAAAA2AAA2AAAAAAAAAAAA2AAAIAAAAAAAAAAAAAIAAIAA2A2AAA2AA2AAA
AAAAAIAAAA2AAA2AAAAAAAAAAAA2AAAIAAAAAAAAAAAAAIIAIAA2A2AAA2AA2AAA
AAAAAIAAAA2AAA2AAAAAAAAAAAA2AAAIAAAAAAAAAAAAA22A4AA2A2AAA2AA2AAA
AAAAAIAAAA2AAA2AAAAAAAAAAAA2AAAIAAAAAAAAAAAAAI2A4AA2A2AAA2AA2AAA
AAAAAIAAAA2AAA2AAAAAAAAAAAA2AAAIAAAAAAAAAAAAA42A4AA2A2AAA2AA2AAA
AAAAAIAAAA2AAAAAAAAAAAAAAAA2AAA4AAAAAAAAAAAAA42A4AA2A2AAA2AA2AAA
AAAAAIAAAA2AAAAAAAAAAAAAAAA2AAA2AAAAAAAAAAAAA42A4AA2A2AAA2AA2AAA
AAAAAIAAAA2AAAAAAAAAAAAAAAA2AAA2AAIAAAAAAAAAA42A4AA2A2AAA2AA2AAA
AAAAAIAIAA2AAAAAAAAAAAAAAAA2AAA2AAIAAAAAAAAAA42A4AA2A2AAA2AA2AAA
AAAAAIAIAA2AAAAAAAAAAAAAAAA2IAA2AAIAAAAAAAAAA42A4AA2A2AAA2AA2AAA
AAAAAIAIAA2AAAAAAAAAAAAAAAA24AA2AAIAAAAAAAAAA42A4AA2A2AAA2AA2AAA
AAAAAIAIAA2AAAAAAAAAAAAAAAA24AA2AA2AAAAAAAAAA42A4AA2A2AAA2AA2AAA
AAAAAIAIAA2AAAAAAAAAAAAAAAA24AA2AA2AAAAAAAAAA22A2AA2A2AAA2AA2AAA
AAAAAIAIAA2AAAAAAAAAAAAAAAA22AA2AA2AAAAAAAAAA22A2AA2A2AAA2AA2AAA
AAAAAIAIAA2AAAAAAAAAAAAAAAA22AA2AA2AAAAIAAAAA22A2AA2A2AAA2AA2AAA
AAAAAIAIAA2AAAAAAAAAAAAAAAA22AAAAA2AAAA2AAAAA22A2AA2A2AAA2AA2AAA
AAAAAIAIAA2AAAAAAAAAAAAAAAA22AAAAA2AAAA2AAAAAI2A2AA2A2AAA2AA2AAA
AAAAAIAIAA2AAAAAAAAAAAAAAAA22AAIAA2AAAA2AAAAAI2A2AA2A2AAA2AA2AAA
AAAAAIAIAA2AAAAAAAAAAAAAAAA22AA4AA2AAAA2AAAAAI2A2AA2A2AAA2AA2AAA
AAAAAIAIAA2AAAAAAAAAAAAAAAA22AA4AA2AAAA2AAAAA22A2AA2A2AAA2AA2AAA
AAAAAIAIAA2AAAAAAAAAAAAAAAA22AAAAA2AAAA2AAAAA22A2AA2A2AAA2AA2AAA
AAAAAIAIAA2AAAAAAAAAAAAAAAA22AAAAA2AAAA2AAAAA22A2AAAA2AAA2AA2AAA
AAAAAIA2AA2AAAAAAAAAAAAAAAA22AAAAA2AAAA2AAAAA22A2AAAA2AAA2AA2AAA
AAAAAIA2AA2AAAAAAAAAAAAAAAA22AAAAA2AAAA2AAAAA22I2AAAA2AAA2AA2AAA
AAAAAIA2AA2AAAAAAAAAAAAAAAA2AAAAAA2AAAA2AAAAA22I2AAAA2AAA2AA2AAA
AAAAAIA2AA2AAAAAAAAAAAAAAAA2AAAAAA2AAAA2AAAAA2222AAAA2AAA2AA2AAA
AAAAAIA2AA2AAAAAAAAAAAAAAAA2AAAAAA2AAAA2AAIAA2222AAAA2AAA2AA2AAA
AAAAAIA2AA2AAAAAAAAAAAAAAAA2AAAAAA2AAAA2AA2AA2222AAAA2AAA2AA2AAA
AAAAAIA2AA2AAAAAAAAAAAAAAAA2AAAAAA2AAAA2AAAAA2222AAAA2AAA2AA2AAA
AAAAAIA2AA2AAAAAAAAAAAAAAAA2AAAAAA2AAAA2AAAAA2A22AAAA2AAA2AA2AAA
AAAAA2A2AA2AAAAAAAAAAAAAAAA2AAAAAA2AAAA2AAAAA2A22AAAA2AAA2AA2AAA
AAAAA2A2AA2AAAAAAAAAAAAAAAA2AAAAAA2AAAA2AAIAA2A22AAAA2AAA2AA2AAA
AAAAA2A2AA2AAAAAAAAAAAAAAAA2AAAAAA2AAAA2AAIAA2A22AAAA2AAA2AI2AAA
AAAIA2A2AA2AAAAAAAAAAAAAAAA2AAAAAA2AAAA2AAIAA2A22AAAA2AAA2AI2AAA
AAA2A2A2AA2AAAAAAAAAAAAAAAA2AAAAAA2AAAA2AAIAA2A22AAAA2AAA2AI2AAA
AAAAA2A2AA2AAAAAAAAAAAAAAAA2AAAAAA2AAAA2AAIAA2A22AAAA2AAA2AI2AAA
AAAAA2A2AA2AAAAAAAAAAAAAAAA2AAAAAA2AAAA2AAIAA2AA2AAAA2AAA2A42AAA
AAAAA2A2AA2AAAAAAAAAAAAAAAA2AAAAAAAAAAA2AAIAA2AA2AAAA2AAA2A42AAA
AAAAA2A2AA2IAAAAAAAAAAAAAAA2AAAAAAAAAAA2AAIAA2AA2AAAA2AAA2A42AAA
AAAAA2A2AA2IAAAAAAAAAAAAAAA2AAAAAAIAAAA2AAIAA2AA2AAAA2AAA2A42AAA
AAAAA2A2AA2IAAAAAAAAAAAAAAA2AAAAAAIAAAA2AAAAA2AA2AAAA2AAA2A42AAA
AAAAA2A2AA24AAAAAAAAAAAAAAA2AAAAAAIAAAA2AAAAA2AA2AAAA2AAA2A42AAA
AAAAA2A2AA24AAAAAAAAAAAAAAA2AAAAAAIAAAA2AAAAAAAA2AAAA2AAA2A42AAA
AAAAA2A2AA24AAAAAAAAAAAAAAA2AAAAAA2AAAA2AAAAAAAA2AAAA2AAA2A42AAA
AAAAA2A2AAA2AAAAAAAAAAAAAAA2AAAAAA2AAAA2AAAAAAAA2AAAA2AAA2A42AAA
AAAAAAA2AAA2AAAAAAAAAAAAAAA2AAAAAA2AAAA2AAAAAAAA2AAAA2AAA2A42AAA
AAAAAAA2AAA2AAAAAAAAAAAAAAA2AAAAAA2AAAA2AAIAAAAA2AAAA2AAA2A42AAA
AAAAAAA2AIA2AAAAAAAAAAAAAAA2AAAAAA2AAAA2AAIAAAAA2AAAA2AAA2A42AAA
AAAAAAA2AIA2AAAAAAAAAAAAAAA2AAAAAA2AAAA2AAIAAAAAAAAAA2AAA2A42AAA
AAAAAAAAA2A2AAAAAAAAAAAAAAA2AAAAAA2AAAA2AAIAAAAAAAAAA2AAA2A42AAA
AAAAAAAAA2A2AAAAAAAAAAAAAAA2AAAAAA2AAAA2AA4AAAAAAAAAA2AAA2A42AAA
AAAAAAAAA2A2AAAAAAAAAAAAAAA2AAAAAAAAAAA2AA4AAAAAAAAAA2AAA2A42AAA
AAAAAAAAA2AAAAAAAAAAAAAAAAA2AAAAAAAAAAA2AA4AAAAAAAAAA2AAA2A42AAA
AAAAAAAAA2AAAAAAAAAAAAAAAAA2AAAAAAAAAAA2AAAAAAAAAAAAA2AAA2A42AAA
AAAAAAAAA2AAAAAAAAAAAAAAAAA2AAAAAAAAAAA2AAAAAAAAAAAAAAAAA2A22AAA
AAAAAAAAA2AAAAAAAAAAAAAAAAA2AAAAAAAAAAA2AAAAAAAAAAAAAAAAA2AA2AAA
AAAAAAAAA2AAAAAAAAAAAAAAAAA2IAAAAAAAAAA2AAAAAAAAAAAAAAAAA2AA2AAA
AAAAAAAAA2AAAAAAAAAAAAAAAAA24AAAAAAAAAA2AAAAAAAAAAAAAAAAA2AA2AAA
AAAAAAAAA2AAAAAAAAAAAAAAAAA24AAAAAAAAAA2AAAIAAAAAAAAAAAAA2AA2AAA
AAAAAAAAA2AAAAAAAAAAAAAAAAA24AAAAAAAAAA2AAA4AAAAAAAAAAAAA2AA2AAA
AAAAAAAAA2AAAAAAAAAAAAAAAAA24AAAAAIAAAA2AAA4AAAAAAAAAAAAA2AA2AAA
AAAAAAAAA2AAAAAAAAAAAAAAAAA24AAAAAIAAAA2AAA4AAAAAAAAAAAIA2AA2AAA
AAAAAAAAA2AAAAAAAAAAAAAAAAA24AAAAAIAAAA2AAA2AAAAAAAAAAA4A2AA2AAA
AAAAAAAAA2AAAAAAAAAAAAAAAAA24AAAAAIAAAA2AAA2AAAAAAAAAAA2A2AA2AAA
AAAAAAAAA2AAAAAAAAAAAAAAAAA24AAAAAIAAAA2AAAIAAAAAAAAAAA2A2AA2AAA
AAAAAIAAA2AAAAAAAAAAAAAAAAA24AAAAAIAAAA2AAAIAAAAAAAAAAA2A2AA2AAA
AAAAAIAAA2AAAAAAAAAAAAAAAAA24AAAAAIAAAA2AAA2AAAAAAAAAAA2A2AA2AAA
AAAAAIAAA2AAAAAAAAAAAAAAAAA24AAAAAIAAAA2AAA2AAAAIAAAAAA2A2AA2AAA
AAAAAIAAA2AAAAAAAAAAAAAAAAA24AAAAAIAAAA2AAI2AAAAIAAAAAA2A2AA2AAA
AAAAA2AAA2AAAAAAAAAAAAAAAAA24AAAAAIAAAA2AAI2AAAAIAAAAAA2A2AA2AAA
AAAAA2AAA2AAAAAAAAAAAAAAAAAA4AAAAA2AAAA2AA42AAAAIAAAAAA2A2AA2AAA
AAAAA2AAA2AAAAAAAAAAAAAAAAAA4AAAAA2AAAA2AA42AAAA4AAAAAA2A2AA2AAA
AAAAA2AAA2AAAAAAAAAAAAAAAAAA4AAAAA2AAAAAAA22AAAA4AAAAAA2A2AA2AAA
AAAAA2AAA2AAAAAAAAAAAAAAAAAA4AAAAA2AAAAAAA2AAAAA2AAAAAA2A2AA2AAA
AAAAA2AAA2AAAAAAAAAAAAAAAAAA4AAAAA2AAAAAAA2AAAAAAAAAAAA2A2AA2AAA
AAAAA2AAA2AAAAAAAAAAAAAAAAAA4AAAAA2AAAAAAAIAAAAAAAAAAAA2A2AA2AAA
AAAAA2AAA2AAAAAAAAAAAAAAAAAA4AAAAA2AAAAAAAIIAAAAAAAAAAA2A2AA2AAA
AAAAA2AAA2AAAAAAAAAAAAAAAAAA4AAAAA2AAAAAAA22AAAAAAAAAAA2A2AA2AAA
AAAAA2AAA2AAAAAIAAAAAAAAAAAA4AAAAA2AAAAAAA22AAAAAAAAAAA2A2AA2AAA
AAAAA2AAA2AAAAAIAAAAAAAAAAAA4AAAAA2AAAAAAAA2AAAAAAAAAAA2A2AA2AAA
AAAAA2AAA2AAAAAIAAAAAAAAAAAA4AAAAA2AAAAAAAA2AAAAAAAAAAAAA2AA2AAA
AAAAA2AAA2AAAAA2AAAAAAAAAAAA4AAAAA2AAAAAAAA2AAAAAAAAAAAAA2AA2AAA
AAAIA2AAA2AAAAA2AAAAAAAAAAAA4AAAAA2AAAAAAAA2AAAAAAAAAAAAA2AA2AAA
AAAIA2AAA2AAAAA2AIAAAAAAAAAA4AAAAA2AAAAAAAA2AAAAAAAAAAAAA2AA2AAA
AAA2A2AAA2AAAAA2A4AAAAAAAAAA4AAAAA2AAAAAAAA2AAAAAAAAAAAAA2AA2AAA
AAA2A2AAA2AAAAA2AAAAAAAAAAAA4AAAAA2AAAAAAAA2AAAAAAAAAAAAA2AA2AAA
AAA2A2AAA2AAAAA2AAAAAAAAAAAA4AAAAAAAAAAAAAA2AAAAAAAAAAAAA2AA2AAA
AAAAA2AAA2AAAAA2AAAAAAAAAAAA4AAAAAAAAAAAAAA2AAAAAAAAAAAAA2AA2AAA
AAAAA2AAA2AAAAA2AIAAAAAAAAAA4AAAAAAAAAAAAAA2AAAAAAAAAAAAA2AA2AAA
AAAAA2AAA2AAAAA2AIAAAAAAAAAA4AAAAAAAAAAAAAA2AAIAAAAAAAAAA2AA2AAA
AAAAA2AAA2AAAAA2AIAAAAAAAAAA4AAAAAAAAAAAAAI2AAIAAAAAAAAAA2AA2AAA
AAAAA2AAA2AAAAAAAIAAAAAAAAAA4AAAAAAAAAAAAAI2AAIAAAAAAAAAA2AA2AAA
AAAAA2AAA2AAAAAAAIAAAAAAAAAA4AAAAAAAAAAAAAI2AAIAAAIAAAAAA2AA2AAA
AAAAA2AAA2AAAAAAAIAAAAAAAAAA4AAAAAAAAAAAAA22AAIAAA4AAAAAA2AA2AAA
AAAAA2AAA2AAAAAAAIAAAAAAAAAA4AAAAAAAAAAAAA22AAAAAA2AAAAAA2AA2AAA
AAAAA2AAA2AAAAAAA2AAAAAAAAAA4AAAAAAAAAAAAA22AAAAAA2AAAAAA2AA2AAA
AAAAA2AAA2AAAAAAA2AAAAAAAAAA4AAAAAAAAAAAAAA2AAAAAA2AAAAAA2AA2AAA
AAAAA2AAA2AAAAAAA2AAAAAAAAAAAAAAAAAAAAAAAAA2AAAAAA2AAAAAA2AA2AAA
AAAAA2AAA2AAAAAAA2AAAAAAAAAAAAAAAAAAAAAAAAA2AAIAAA2AAAAAA2AA2AAA
AAAAA2AAA2AAAAAAA2AAAAAAAAAAAAAAAAAAAAAAAAA2AA4AAA2AAAAAA2AA2AAA
AAAAA2AAA2AAAAAAA2AAAAAAAAAAAAAAAAAAAAAAAAA2AA2AAA2AAAAAA2AA2AAA
AAAAA2AAA2AAAAAAA2AAAAAAAAAAAAAAAAAAAAIAAAA2AA2AAA2AAAAAA2AA2AAA
AAAAA2AAAAAAAAAAA2AAAAAAAAAAAAAAAAAAAAIAAAA2AA2AAA2AAAAAA2AA2AAA
AAAAA2AAAAAAAAAAA2AAAAAAAAAAAAAAAAAAAA2AAAA2AA2AAA2AAAAAA2AA2AAA
AAAAA2AAAAAIAAAAA2AAAAAAAAAAAAAAAAAAAA2AAAA2AA2AAA2AAAAAA2AA2AAA
AAAAA2AAAAAAAAAAA2AAAAAAAAAAAAAAAAAAAA2AAAA2AA2AAA2AAAAAA2AA2AAA
AAAAA2AAAAAAAAAAAAAAAAAAAAAAAAAAAAAAAA2AAAA2AA2AAA2AAAAAA2AA2AAA
AAAAA2AAAAAAAAAAAAAAAAAAAAAAAAAAAAIAAA2AAAA2AA2AAA2AAAAAA2AA2AAA
AAAAA2AAAAAAAAAAAAAAAAAAAAAAAAAAAAIAAA2AAAI2AA2AAA2AAAAAA2AA2AAA
AAAAA2AAAAAAAAAAAAAAAAAAAAAAAAAAAAIAAAAAAA22AA2AAA2AAAAAA2AA2AAA
AAAAA2AAAAAAAAAAAAAAAAAAAAAAAAAAAAIAAAAAAA22AA2AAAAAAAAAA2AA2AAA
AAAAA2AAAAAAAAAAAAAAAAAAAAAAAAAAAA2AAAAAAA22AA2AAAAAAAAAA2AA2AAA
AAAAA2AAAAAAAAAAAAAAAAAAAAAAAAAAAA2AAAAAAA22AA2AAAAAAAAAA2AAAAAA
AAAAA2AAAAAAAAAAAAAAAAAAAAAAAAAAAA2AAAAAAA22AA2AAAAAAAAIA2AAAAAA
AAAAA2AAAAAAAAAAAAAAAAAAAAAAAAAAAA2AAAAAAA22AA2AAAAAAAA4A2AAAAAA
AAAAA2AAAAAAAAAAAAAAAAAAAAAAAAAAAA2AAAAAAA22AA2AAAAAAAA4A2AAAIAA
AAAAA2AAAAAAAAAAAAAAAAAAAAAAAAAAAA2AAAAAAA22AA2AAAAAAAA4A2AAAAAA
AAAAA2AAAAAAAAAAAAAAAAAAAAAAAAAAAA2AAAAAAA22AA2AAAAAAAA4A2IAAAAA
AAAAA2AAAAAAAAAAAAAAAAAAAAAAAAAAAA2AAAAAAA22AA2AAAAAAAA4A24AAAAA
AAAAA2AAAAAAAAAAAAAAAAAAAAAAAAAAAA2AAAAAAA2AAA2AAAAAAAA4A24AAAAA
AAAAA2AAAAAAAAAAAAAAAAAAAAAAAAAAAA2AAAAAAA2AAAAAAAAAAAA4A24AAAAA
AAAAA2AAAAAAAAAAAAAAAAAAAAAAAAAAAA2AAAAAAA2AAAAAAAAAAAA4AA2AAAAA
AAAAA2AAAAAAAAAAAAAAAAAAAAAAAAAAAA2AAAAAAA2AAAAAAAAAAAA2AA2AAAAA
AAAAA2AAAAAAAAAAAAAAAAAAAAAAAAAAAAAAAAAAAA2AAAAAAAAAAAA2AA2AAAAA
AAAAA2AAAAAAAAAAAAAAAAAAAAAAAAAAAAAAAAAAAAAAAAAAAAAAAAA2AA2AAAAA
AAAAA2AAAAAAAAAAAAAAAAAAAAAAAAAAAAAAAIAAAAAAAAAAAAAAAAA2AA2AAAAA
AAAAA2AAAAAAAAAAAAAAAAAAAAAAAAAAAAAAA2AAAAAAAAAAAAAAAAA2AA2AAAAA
AAAAAAAAAAAAAAAAAAAAAAAAAAAAAAAAAAAAA2AAAAAAAAAAAAAAAAA2AA2AAAAA
AAAAAAAAAAAAAAAAAAAAAAAAAAAAAAAAAAAAA2AIAAAAAAAAAAAAAAA2AA2AAAAA
AAAAAAAAAAAAAAAAAAAAAAAAAAAAAAAAAAAAA2A4AAAAAAAAAAAAAAA2AA2AAAAA
AAAAAAAAAAAAAAAAAAAAAAAAAAAAAAAAAAAAA2AAAAAAAAAAAAAAAAA2AA2AAAAA
AAAAAAAAAAAAAAAAAAAAAAAAAAAAAAAAAAAAI2AAAAAAAAAAAAAAAAA2AA2AAAAA
AAAAAAAAAAAAAAAAAAAAAAAAAIAAAAAAAAAAI2AAAAAAAAAAAAAAAAA2AA2AAAAA
AAAAAIAAAAAAAAAAAAAAAAAAAIAAAAAAAAAAI2AAAAAAAAAAAAAAAAA2AA2AAAAA
AAAAAIAAAAAAAAAAAAAAAAAAA4AAAAAAAAAAI2AAAAAAAAAAAAAAAAA2AA2AAAAA
AAAAAIAAAAAAAAAAAAAAAAAAA4AAAAAAAAAA22AAAAAAAAAAAAAAAAA2AA2AAAAA
AAAAAIAAAAIAAAAAAAAAAAAAA4AAAAAAAAAA22AAAAAAAAAAAAAAAAA2AA2AAAAA
AAAAAIAAAA2AAAAAAAAAAAAAA4AAAAAAAAAA22AAAAAAAAAAAAAAAAA2AA2AAAAA
AAAAAIAAAA2AAAAAAAAAAAAAAAAAAAAAAAAA22AAAAAAAAAAAAAAAAA2AA2AAAAA
AAAAAIAAAAIAAAAAAAAAAAAAAAAAAAAAAAAA22AAAAAAAAAAAAAAAAA2AA2AAAAA
AAAAAIAAAAIAAAAAAAAAAAAAAAAAAIAAAAAA22AAAAAAAAAAAAAAAAA2AA2AAAAA
AAAAAIAAAA4AAAAAAAAAAAAAAAAAAIAAAAAA22AAAAAAAAAAAAAAAAA2AA2AAAAA
AAAAAIAAAA4AAAAAAAAAAAAAAAAAAIAAAAAA22AAAAAAAAIAAAAAAAA2AA2AAAAA
AAAAAIAIAA4AAAAAAAAAAAAAAAAAAIAAAAAA22AAAAAAAAIAAAAAAAA2AA2AAAAA
AAAAAIAIAA4IAAAAAAAAAAAAAAAAAIAAAAAA22AAAAAAAAIAAAAAAAA2AA2AAAAA
AAAAAIAIAA4IAAAAAAAAAAAAAAAAAIAAAAAA22AAAAAAAAIAAAAAAIA2AA2AAAAA
AAAAAIAIAA4IAAAAAAAAAAAAAAAAAIAAAAAA22AAAAAAAAIAAAAAAIA2AA2AAAIA
AAAAAIAAAA42AAAAAAAAAAAAAAAAAIAAAAAA22AAAAAAAAIAAAAAAIA2AA2AAAIA
AAAAAIAAAA42AAAAAAAAAAAAAAAAAAAAAAAA22AAAAAAAAIAAAAAAIA2AA2AAAIA
AAAAAIAAAA42AAAAAAAAAAAAAAAAAAAAAAAA22AAAAAAAA2AAAAAA4A2AA2AAAIA
AAAAAIAAAA42AAAAAAAAAAAAAAAAAAAAAAAA22AAAAAAAA2AAAAAA2A2AA2AAA4A
AAAAAIAAAA4IAAAAAAAAAAAAAAAAAAAAAAAA22AAAAAAAA2AAAAAA2A2AA2AAA4A
AAAAAIAAAA4IAAAAAAAAAAAAAAAAAAAAAAAAA2AAAAAAAA2AAAAAA2A2AA2AAA4A
AAAAA2AAAA42AAAAAAAAAAAAAAAAAAAAAAAAA2AAAAAAAA2AAAAAA2A2AA2AAA4A
AAAAA2AAAA42AAAAAAAAAAAAAAAAAAAAAAAAI2AAAAAAAA2AAAAAA2A2AA2AAA4A
AAAAA2AAAA42AAAAIAAAAAAAAAAAAAAAAAAAI2AAAAAAAA2AAAAAA2A2AA2AAA4A
AAAAA2AAAA42AAAA2AAAAAAAAAAAAAAAAAAAI2AAAAAAAA2AAAAAA2A2AA2AAA4A
AAAAA2AAAA42AAAA2AAAAAAAAAAAAAAAAAAA22AAAAAAAA2AAAAAA2A2AA2AAA4A
AAAAA2AAAA42AAAAAAAAAAAAAAAAAAAAAAAA22AAAAAAAA2AAAAAA2A2AA2AAA4A
AAAAA2AAAA22AAAAAAAAAAAAAAAAAAAAAAAA22AAAAAAAA2AAAAAA2A2AA2AAA4A
AAAAA2AAAA22AAAAAAAAAAAAAAAAAAAAAAAAA2AAAAAAAA2AAAAAA2A2AA2AAA4A
AAAAA2AAAAI2AAAAAAAAAAAAAAAAAAAAAAAAA2AAAAAAAA2AAAAAA2A2AA2AAA4A
AAAAA2AAAAI2AAAAAAAAAAAAAAAAAAAAAAAAA2AAAAAAAA2AAAAAAAA2AA2AAA2A
AAAAA2AAAAI2AAAAAAAAAAAAAAAAAAAAAAAAA2AAAAAAAA2AAAAAAAA2AA2AAAAA
AAAAA2AAAAI2AAAAAAAAAAAAAAAAAAAAAAAAA2AAAAAAAA2AAAAAAAAAAA2AAAAA
AAAAAAAAAA22AAAAAAAAAAAAAAAAAAAAAAAAA2AAAAAAAA2AAAAAAAAAAA2AAAAA
AAAAAAAAAA22AAAAAAAAAAAIAAAAAAAAAAAAA2AAAAAAAA2AAAAAAAAAAA2AAAAA
AAAAAAAAAA22AAAAAAAAAAA4AAAAAAAAAAAAA2AAAAAAAA2AAAAAAAAAAA2AAAAA
AAAAAAAAAA22AAIAAAAAAAA4AAAAAAAAAAAAA2AAAAAAAA2AAAAAAAAAAA2AAAAA
AAAAAAAAAA22AAIAAAAAAAA2AAAAAAAAAAAAA2AAAAAAAA2AAAAAAAAAAA2AAAAA
AAAAAAAAAA22AAIAAAAAAAA2AAAAAAAAAAAAA2AAAAIAAA2AAAAAAAAAAA2AAAAA
AAAAAAAAAA22AAIAAAAAAAA2AAAAAAAAAAAAA2AAAAIAAA2AAAIAAAAAAA2AAAAA
AAAAAAAAAA22AAIAAAAAAAA2AAAAAAAAAAAAA2AAAAAAAA2AAA4AAAAAAA2AAAAA
AAAAAAAAAA22AA2AAAAAAAA2AAAAAAAAAAAAA2AAAAAAAA2AAA4AAAAAAA2AAAAA
AAAAAAAAAA22AA2AAAAAAAA2AAAAAAAAAAAAA2AAAAAAAAAAAA2AAAAAAA2AAAAA
AAAAAAAIAA22AA2AAAAAAAA2AAAAAAAAAAAAA2AAAAAAAAAAAA2AAAAAAA2AAAAA
AAAAAAAAAA22AA2AAAAAAAA2AAAAAAAAAAAAA2AAAAAAAAAAAA2AAAAAAA2AAAAA
AAAAAAAAAA22AA2AAAAIAAA2AAAAAAAAAAAAA2AAAAAAAAAAAA2AAAAAAA2AAAAA
AAAAAAAAAA22AA2AAAAIAAA2AAAAAAAAAAAAA2AAAAAAAAAAAAIAAAAAAA2AAAAA
AAAAAAAAAA22AA2AAAAIAAA2AAAAAAAAAAAAA2AAAAAAAAIAAAIAAAAAAA2AAAAA
AAAAAAAAAA22AA2AAAAIAAA2AAAAAAAAAAAAA2AAAAAAAA2AAA2AAAAAAA2AAAAA
AAAAAAAAAA22AA2AAAA4AAA2AAAAAAAAAAAAA2AAAAAAAA2AAA2AAAAAAA2AAAAA
AAAAAAAAAA22AA2AAAA2AAA2AAAAAAAAAAAAA2AAAAAAAA2AAA2AAAAAAA2AAAAA
AAAAAAAIAA22AA2AAAA2AAA2AAAAAAAAAAAAA2AAAAAAAA2AAA2AAAAAAA2AAAAA
AAAAAAA2AA22AA2AAAA2AAA2AAAAAAAAAAAAA2AAAAAAAA2AAA2AAAAAAA2AAAAA
AAAAAAA2AA22AAAAAAA2AAA2AAAAAAAAAAAAA2AAAAAAAA2AAA2AAAAAAA2AAAAA
AAAAAAAIAA22AAAAAAA2AAA2AAAAAAAAAAAAA2AAAAAAAA2AAA2AAAAAAA2AAAAA
AAAAAAA4AA22AAAAAAA2AAA2AAAAAAAAAAAAA2AAAAAAAA2AAA2AAAAAAA2AAAAA
AAAAAAAAAA22AAAAAAA2AAA2AAAAAAAAAAAAA2AAAAAAAA2AAA2AAAAAAA2AAAAA
AAAAAAAAAA2AAAAAAAA2AAA2AAAAAAAAAAAAA2AAAAAAAA2AAA2AAAAAAA2AAAAA
AAAAAAAAAA2AAAAAAAA2AAA2AAAAAAAAAAAAA2AAAAAAAAAAAA2AAAAAAA2AAAAA
AAAAAAAAAA2AAAAAAAA2AAA2AAAAAAAAAAAAA2AAAAAAAAAAAAAAAAAAAA2AAAAA
AAAAAAAAAA2AAAAAAAA2AAA2AAAAAAAAAAAAA2IAAAAAAAAAAAAAAAAAAA2AAAAA
AAAAAAAAAA2AAAAAAAA2AAA2AAAAAAAAAAAAAA2AAAAAAAAAAAAAAAAAAA2AAAAA
AAAAAAAAAA2AAAAAAAA2AAA2AAAAAAAAAAAAAAAAAAAAAAAAAAAAAAAAAA2AAAAA
AAAAAAAAAA2AAAAAAAA2AAA2AAAAAAAAAAAAAAAIAAAAAAAAAAAAAAAAAA2AAAAA
AAAAAAAAAA2AAAAAAAA2AAA2AAAAAAAAAAAAAAA4AAAAAAAAAAAAAAAAAA2AAAAA
AAAAAAAAAA2AAAAAAAA2AAA2AAAAAAAAAAAAAAA2AAAAAAAAAAAAAAAAAA2AAAAA
AAAAAAAAAA2AAAAAAAA2AAA2AAAAAAAAAAAAAAAIAAAAAAAAAAAAAAAAAA2AAAAA
AAAAAAAAAA2AAAAAAAA2AAA2AAAAAAAAAAAAAAAIAAAAAIAAAAAAAAAAAA2AAAAA
AAAAAAAAAA2AAAAAAAA2AAA2AAAAAAAAAAAAAAA2AAAAA4AAAAAAAAAAAA2AAAAA
AAAAAAAAAA2AAAAAAAA2AAA2AAAAAAAAAAAAAAA2AAAAA2AAAAAAAAAAAA2AAAAA
AAAAAAAAAA2AAIAAAAA2AAA2AAAAAAAAAAAAAAA2AAAAA2AAAAAAAAAAAA2AAAAA
AAAAAAAAAA2AAIAAAAA2AAA2AAAAAAAAAAAAAAAIAAAAA2AAAAAAAAAAAA2AAAAA
AAAAAAAAAA2AAIAAAAA2AAA2AAAAAAAAAAAAAAAIAAAAA2AAAAAAAAAAAA2IAAAA
AAAAAAAAAA2AA4AAAAA2AAA2AAAAAAAAAAAAAAAIAAAAA2AAAAAAAAAAAA2IAAAA
AAAAAAAAAA2AAAAAAAA2AAA2AAAAAAAAAAAAAAAIAAAAA2AAAAAAAAAAAA2IAAAA
AAAAAAAAAA2AAAAAAAA2AAA2AAAAAAAAAAAAAAA2AAAAA2AAAAAAAAAAAA2IAAAA
AAAAAAAAAA2AAAAAAAA2AAA2AAAAAAAAAAAAAAAIAAAAA2AAAAAAAAAAAA2IAAAA
AAAAAAAAAA2AAAAAAAA2AAA2AAAAAAAAAAAAAAAIAAAAAAAAAAAAAAAAAA24AAAA
AAAAAAAAAA2AAAAAAAA2AAA2AAAAAAAAAAAAAAA2AAAAAAAAAAAAAAAAAA24AAAA
AAAAAAAAAA2AAAAAAAA2AAA2AAAAAAAAAAAAAAA2AAAAAAAAAAAAAAAAAA22AAAA
AAAAAAAAAA2AAAAAAAA2AAA2AAAAAAAAAAAAAAA2AAAAAAAAAAAAIAAAAA22AAAA
AAAIAAAAAA2AAAAAAAA2AAA2AAAAAAAAAAAAAAA2AAAAAAAAAAAAIAAAAA22AAAA
AAAIAAAAAA2AAAAAAAA2AAA2AAAAAAAAAAAAAAA2AAAAAAAIAAAAIAAAAA22AAAA
AAAIAAAAAA2AAAAAAAA2AAA2AAAAAAAAAAAAAAA2AAAAAAAIAAAAAAAAAA22AAAA
AAA2AAAAAA2AAAAAAAA2AAA2AAAAAAAAAAAAAAA2AAAAAAAIAAAAAAAAAA22AAAA
AAA2AAAAAA2AAAAAAAA2AAA2AAAAAAAAAAAAAAAAAAAAAAA4AAAAAAAAAA22AAAA
AAA2AAAAAA2AAAAAAAA2AAA2AAAAAAAAAAAAAAAAAAAAAAA2AAAAAAAAAA22AAAA
AAA2AAAAAA2AAAAAAAA2AAA2AAAAAAAAAAAAAAAIAAAAAAA2AAAAAAAAAA22AAAA
AAA2AAAAAA2AAAAAAAA2AAA2AAAAAAAAAAAAAAAIAAAAAIA2AAAAAAAAAA22AAAA
AAAAAAAAAA2AAAAAAAA2AAA2AAAAAAAAAAAAAAAIAAAAAIA2AAAAAAAAAA22AAAA
AAAAAAAAAA2AAAAAAAA2AAA2AAAAAAAAAAAAAAA4AAAAA4A2AAAAAAAAAA22AAAA
AAAAAAAAAA2AAAAAAAA2AAA2AAAAAAAAAAAAAAA2AAAAA4A2AAAAAAAAAA22AAAA
AAAAAAAAAA2AAAAAAAA2AAA2AAAAAAAAAAAAAAA2AAAAA2A2AAAAAAAAAA22AAAA
AAAAAAAAAA2AAAAAAAA2AAA2AAAAAAAAAAAAAAA2AAAAA2A2AAAAAAAIAA22AAAA
AAAAAAAAAA2AAAAAAAA2AAA2AAAAAAAAAAAAAAA2AAAAA2A2AAAAAAA4AA22AAAA
AAAAAAAAAA2AAAAAAAA2AAA2AAAAAAAAAAAAAAA2AAAAAAA2AAAAAAA4AA22AAAA
AAAIAAAAAA2AAAAAAAA2AAA2AAAAAAAAAAAAAAA2AAAAAAA2AAAAAAA4AA22AAAA
AAAIAAAAAA2AAAAAAAA2AAA2AAAAAAAAAAAAAAAAAAAAAAA2AAAAAAA4AA22AAAA
AAAIAAAAAA2AAAAAAAA2AAA2AAAAAAAAAAAAAAAAAAAAAAA2AAAAAAA2AA22AAAA
AAAAAAAAAA2AAAAAAAA2AAA2AAAAAAAAAAAAAAAAAAAAAAA2AAAAAAA2AA22AAAA
AAAAAAAAAA2AAAAAAAA2AAA2AAAAAAAAAAAAAAAAAAAAAAA2AAAAAAA2AAA2AAAA
AAAAAAAAAA2AAAAAAAA2AAA2AAAAAAAAAAAAAAAAAAAAAAA2AAIAAAA2AAA2AAAA
AAAAAAAAAA2AAAAAAAA2AAA2AAAAAAAAAAAAAAAIAAAAAAA2AAIAAAA2AAA2AAAA
AAAAAAAAAA2AAAAAAAA2AAA2AAAAAAAAAAAAAAA4AAAAAAA2AAIAAAA2AAA2AAAA
AAAAAAAAAA2AAAAAAAA2AAA2AAAAAAAAAAAAAAA4AAAAAAA2AA2AAAA2AAA2AAAA
AAAAAAAAAA2AAAAAAAA2AAA2AAAAAAAAAAAAAAA4AAAAAAA2AAIAAAA2AAA2AAAA
AAAAAAAAAA2AAAAAAAA2AAA2AAAAAAAAAAAAAAA2AAAAAAA2AA4AAAA2AAA2AAAA
AAAAAAAAAA2AAAAAAAA2AAA2AAAAAAAAAAAAAAA2AAAAAAA2AA2AAAA2AAA2AAAA
AAAAAAAAAA2AAAAAAAA2AAA2AAAAAAAAAAAAAAA2AAAAAAA2AA2AAAAAAAA2AAAA
AAAAAAAAAA2AAAAAAAA2AAA2AAAAAAAAAAAAAAA2AIAAAAA2AA2AAAAAAAA2AAAA
AAAAAAAAAA2AAAAAAAA2AAA2AAAAAAAAAAAAAAA2AIAAAAA2AA2AAAAIAAA2AAAA
AAAAAAAAAA2AAAAAAAA2AAA2AAAAAAAAAAAAAAA2AIAAAAA2AA2AAAA4AAA2AAAA
AAAAAAAAAA2AAAAAAAA2AAA2AAAAAAAAAAAAAAA2A4AAAAA2AA2AAAA4AAA2AAAA
AAAIAAAAAA2AAAAAAAA2AAA2AAAAAAAAAAAAAAA2A4AAAAA2AA2AAAA4AAA2AAAA
AAAIAAAAAA2AAAAAAAA2AAA2AAAAAAAAAAAAAAA2A4AAAAAAAA2AAAA4AAA2AAAA
AAAIAAAAAA2AAAAAAAA2AAA2AAAAAAAAAAAAAAA2A2AAAAAAAA2AAAA4AAA2AAAA
AAAIAAAAAA2AAAAAAAA2AAA2AAAAAAAAAAAAAAA2A2AAAAAAAA2AAAA2AAA2AAAA
AAAIAAAAAA2AAAAAAAA2AAA2AAAAAAAAAAAAAAA2AIAAAAAAAA2AAAA2AAA2AAAA
AAAIAAAAAA2AAAAAAAA2AAA2AAAAAAAAAAAAAAA2A4AAAAAAAA2AAAA2AAA2AAAA
AAAIAAAAAA2AAAAAAAA2AAA2AAAAAAAAAAAAAAA2A4AAAAAAAA2AAAAAAAA2AAAA
AAAIIAAAAA2AAAAAAAA2AAA2AAAAAAAAAAAAAAA2A4AAAAAAAA2AAAAAAAA2AAAA
AAAIIAAAAA2AAAAAAAA2AAA2AAAAAAAAAAAAAAA2A2AAAAAAAA2AAAAAAAA2AAAA
AAAIIAAAAA2AAAAAAAA2AAA2AAAIAAAAAAAAAAA2A2AAAAAAAA2AAAAAAAA2AAAA
AAAA2AAAAA2AAAAAAAA2AAA2AAAIAAAAAAAAAAA2A2AAAAAAAA2AAAAAAAA2AAAA
AAAA2AAAAA2AAAAAAAA2AAA2AAA2AAAAAAAAAAA2A2AAAAAAAA2AAAAAAAA2AAAA
AAAA2AAAAA2AAAAAAAA2AAA2AAA2AIAAAAAAAAA2A2AAAAAAAA2AAAAAAAA2AAAA
AAAA2AAAAA2AAAAAAAI2AAA2AAA2AIAAAAAAAAA2A2AAAAAAAA2AAAAAAAA2AAAA
AAAA2AAAAA2AAAAAAA42AAA2AAA2AIAAAAAAAAA2A2AAAAAAAA2AAAAAAAA2AAAA
AAAA2AAAAA2AAAAAAA42AAA2AAA2A2AAAAAAAAA2A2AAAAAAAA2AAAAAAAA2AAAA
AAAA2AAAAAAAAAAAAA42AAA2AAA2A2AAAAAAAAA2A2AAAAAAAA2AAAAAAAA2AAAA
AAAA2AAAAAAAAAAAAA42AAA2AAA2A2AAAAAAAAA2A2AAAAAAAA2AAAAIAAA2AAAA
AAAA2AAAAAAAAAAAAA22AAA2AAA2A2AAAAAAAAA2A2AAAAAAAA2AAAAIAAA2AAAA
AAAA2AAAAAAAAAAAAI22AAA2AAA2A2AAAAAAAAA2A2AAAAAAAA2AAAAIAAA2AAAA
AAAA2AAAAAAAAAAAAI22AAA2AAA2AAAAAAAAAAA2A2AAAAAAAA2AAAAIAAA2AAAA
AAAA2AAAAAAAAAAAA422AAA2AAA2AAAAAAAAAAA2A2AAAAAAAA2AAAAIAAA2AAAA
AAAA2AAAAAAAAAAAA4A2AAA2AAA2AAAAAAAAAAA2A2AAAAAAAA2AAAAIAAA2AAAA
AAAA2AAAAAAAAAAAA4A2AAA2AAA2AAAAAAAAAAA2A2AAAAAAAA2AAAA2AAA2AAAA
AAAA2AAAAAAAAAAAA4A2AAA2AAA2AAAAAAAAAAA2A2AAAAAAAA2AIAA2AAA2AAAA
AAAA2AAAAAAAAAAAA2A2AAA2AAA2AAAAAAAAAAA2A2AAAAAAAA2AIAA2AAA2AAAA
AAAA2AAAAAAAAAAAA2A2AAA2AAA2AAAAAAAAAAAAA2AAAAAAAA2A4AA2AAA2AAAA
AAAA2AAAAAAAAAAAA2A2AAA2AAA2AAAAAAAAAAAAA2AAAAAAAA2A2AA2AAA2AAAA
AAAA2AAAAAAAAAAAA2A2AAA2AAA2AAAAAAAAAAAAA2AAAAIAAA2A2AA2AAA2AAAA
AAAA2AAAAAAAAAAAA2A2AAA2AAA2AAAAIAAAAAAAA2AAAAIAAA2A2AA2AAA2AAAA
AAAA2AAAAAAAAAAAA2A2AAA2AAA2AAAA2AAAAAAAA2AAAAIAAA2A2AA2AAA2AAAA
AAAA2AAAAAAAAAAAA2A2AAA2AAA2IAAA2AAAAAAAA2AAAAIAAA2A2AA2AAA2AAAA
AAAA2AAAAAAAAAAAA2A2AAA2AAA2IAAA2AAAAAAAA2AAAAAAAA2A2AA2AAA2AAAA
AAAA2AAAAAAAAAAAAAA2AAA2AAA2IAAA2AAAAAAAA2AAAAAAAA2A2AA2AAA2AAAA
AAAA2AAAAAAAAAAAAAA2AAA2AAA22AAA2AAAAAAAA2AAAAAAAA2A2AA2AAA2AAAA
AAAA2AAAAAAAAAAAAAA2AAA2AAA22AAA2AAAAAAAA2AAAIAAAA2A2AA2AAA2AAAA
AAAA2AAAAAAAAAAAAAA2AAA2AAA22AAA2AAAAAAAA2AAA2AAAA2A2AA2AAA2AAAA
AAAI2AAAAAAAAAAAAAA2AAA2AAA22AAA2AAAAAAAA2AAA2AAAA2A2AA2AAA2AAAA
AAAA2AAAAAAAAAAAAAA2AAA2AAA22AAA2AAAAAAAA2AAA2AAAA2A2AA2AAA2AAAA
AAAA2AAAAAAAAAAAAAA2AAA2AAA2AAAA2AAAAAAAA2AAA2AAAA2A2AA2AAA2AAAA
AAAA2AAAAAAAAAAAAAA2AAA2AAA2AAAA2AAAIAAAA2AAA2AAAA2A2AA2AAA2AAAA
AAAA2AAAAAAAAAAAAAA2AAA2AAA2AAAA2AAAIAAAA2AAA2AAAAAA2AA2AAA2AAAA
AAAAAAAAAAAAAAAAAAA2AAA2AAA2AAAA2AAAIAAAA2AAA2AAAAAA2AA2AAA2AAAA
AAAAAAAAAAAAAAAAAAA2AAA2AAA2AAAA2AAAIAAAA2AAA2AAAAAA2AA2AAA2IAAA
AAAAAAAAAAAAAAAAAAA2AAA2AAA2AAAA2AAA4AAAA2AAA2AAAAAA2AA2AAA2IAAA
AAAAAAAAAAAAAAAAAAA2AAA2AAAAAAAA2AAA4AAAA2AAA2AAAAAA2AA2AAA2IAAA
AAAAAAAAAAAAAAAAAIA2AAA2AAAAAAAA2AAA4AAAA2AAA2AAAAAA2AA2AAA2IAAA
AAAAAAAAAAAAAAAAAIA2AAA2AAAAAAAA2AAA4AAAA2AAA2AAAAAA2AA2AAA24AAA
AAAAAAAAAAAAAAAAA4A2AAA2AAAAAAAA2AAA4AAAA2AAA2AAAAAA2AA2AAA24AAA
AAAAAAAAAAAAAAAAAAA2AAA2AAAAAAAA2AAA4AAAA2AAA2AAAAAA2AA2AAA24AAA
AAAAAAAAAAAAAAAAAAA2AAA2AAAAAAAA2AAA4AAAA2AAA2AAAAAA2AA2AAA22AAA
AAAAAAAAAIAAAAAAAAA2AAA2AAAAAAAA2AAA4AAAA2AAA2AAAAAA2AA2AAA22AAA
AAAAAAAAAIAAAAAAAAA2AAA2AAAAAAAA2AAA2AAAA2AAA2AAAAAA2AA2AAA22AAA
AAAAAAAAAAAAAAAAAAA2AAA2AAAAAAAA2AAA2AAAA2AAA2AAAAAA2AA2AAA22AAA
AAAAAAAAAIAAAAAAAAA2AAA2AAAAAAAA2AAA2AAAA2AAA2AAAAAA2AA2AAA22AAA
AAAIAAAAAIAAAAAAAAA2AAA2AAAAAAAA2AAA2AAAA2AAA2AAAAAA2AA2AAA22AAA
AAAIAAAAAIAAAAAAAAA2AAA2AAAAAAAA2AAA2AAAA2AAAAAAAAAA2AA2AAA22AAA
AAAIAAAAAIAAAAAAAIA2AAA2AAAAAAAA2AAA2AAAA2AAAAAAAAAA2AA2AAA22AAA
AAAIAAAAAIAAAAAAAIAAAAA2AAAAAAAA2AAA2AAAA2AAAAAAAAAA2AA2AAA22AAA
AAAIAAAAAIAAAAAAAIAAAAA2AAAAAAAA2AAA2AAAA2AAAAAAAAAA2AAAAAA22AAA
AAAIAAAAAIAAAAAAAIAAAAA2AAAAAAAAAAAA2AAAA2AAAAAAAAAA2AAAAAA22AAA
AAAIAAAAAIAAAAAAAIAAAAA2AAAAAAAAAAAA2AIAA2AAAAAAAAAA2AAAAAA22AAA
AAAIAAAAA2AAAAAAA4AAAAA2AAAAAAAAAAAA2AIAA2AAAAAAAAAA2AAAAAA22AAA
AAAIAAAAA2AAAAAAA4AAAAA2AAAAAAAAAAAAAAIAA2AAAAAAAAAA2AAAAAA22AAA
AAAIAAAAA2AAAAAAA4AAAAA2AAAAAAAAAAAAIAIAA2AAAAAAAAAA2AAAAAA22AAA
AAAIAAAAA2AAAAAAAAAAAAA2AAAAAAAAAAAAIAIAA2AAAAAAAAAA2AAAAAA22AAA
AAAIAAAAA2AAAAAAAAAAAAA2AAAAAAAAAAAA2AIAA2AAAAAAAAAA2AAAAAA22AAA
AAAIAAAAA2AAAAAAAAAAAAA2AAAAAAAAAAAA2AIAA2AAAAAAIAAA2AAAAAA22AAA
AAA2AAAAA2AAAAAAAAAAAAA2AAAAAAAAAAAA2AIAA2AAAAAAIAAA2AAAAAA22AAA
AAA2IAAAA2AAAAAAAAAAAAA2AAAAAAAAAAAA2AIAA2AAAAAAIAAA2AAAAAA22AAA
AAA2IAAAA2AAAAAAAAAAAAA2AAAAAAAAAAAA2A4AA2AAAAAAIAAA2AAAAAA22AAA
AAA2IAAAA2AAAAAAAAAAAAA2AAAAAAAAAAAA2AAAA2AAAAAA4AAA2AAAAAA22AAA
AAAIIAAAA2AAAAAAAAAAAAA2AAAAAAAAAAAA2AAAA2AAAAAA4AAA2AAAAAA22AAA
AAAAIAAAA2AAAAAAAAAAAAA2AAAAAAAAAAAA2AAAA2AAAAAA4AAA2AAAAAA22AAA
AAAA2AAAA2AAAAAAAAAAAAA2AAAAAAAAAAAA2AAAA2AAAAAA4AAA2AAAAAA22AAA
AAAAIAAAA2AAAAAAAAAAAAA2AAAAAAAAAAAA2AAAA2AAAAAA4AAA2AAAAAA22AAA
AAAA2AAAA2AAAAAAAAAAAAA2AAAAAAAAAAAA2AAAA2AAAAAA4AAA2AAAAAA22AAA
AAAA2AAAA2AAAAAAAAAAAAA2AAAAAAAAAAAA2AAAA2AAAAAA2AAA2AAAAAA22AAA
AAAA2AAAA2AAAAAAAAAAAAA2AAAAAAAAAAAA2AAAA2AAAAAAAAAA2AAAAAA22AAA
AAAA2AAAA2AAAAAAAAAAAAA2AAAAAAAAAAAAAAAAA2AAAAAAAAAA2AAAAAA22AAA
AAAA2AAAA2AAAAAAAAAAAAA2AAAAAAAAAAAAAAAAA2AAAAAAAAAA2AAAAAA22IAA
AAAAAAAAA2AAAAAAAAAAAAA2AAAAAAAAAAAAAAAAA2AAAAAAAAAA2AAAAAA22IAA
AAAAAAAAA2AAAAAAAAAAAAA2AAAAAAAAAAAAAAAAA2AAAAAAAAAA2AAAAAA222AA
AAAAAAAAAAAAAAAAAAAAAAA2AAAAAAAAAAAAAAAAA2AAAAAAAAAA2AAAAAA222AA
AAAAAAAAAIAAAAAAAAAAAAA2AAAAAAAAAAAAAAAAA2AAAAAAAAAA2AAAAAA222AA
AAAAAAAAAIAAAAAAAAAAAAA2IAAAAAAAAAAAAAAAA2AAAAAAAAAA2AAAAAA222AA
AAAAAAAAAIAAAAAAAAAAAAA22AAAAAAAAAAAAAAAA2AAAAAAAAAA2AAAAAA222AA
AAAAAAAAAIAAAAAAAAAAAAA2AAAAAAAAAAAAAAAAA2AAAAAAAAAA2AAAAAA222AA
AAAAAAAAA2AAAAAAAAAAAAA2AAAAAAAAAAAAAAAAA2AAAAAAAAAA2AAAAAA222AA
AAAAAAAAA2AAAAAAAAAAAAA2AAAAAAAAAAAAAAAAA2AAAAAAAAAA2AAAAAA22AAA
AAAAAAAAA2AAAAAAAAAAAAA2AAAAAAAAAAAAAAAAA2AAAAAAAAAA2AAAAIA22AAA
AAAAAAAAA2AAAAAAAAAAAAA2AAIAAAAAAAAAAAAAA2AAAAAAAAAA2AAAAIA22AAA
AAAAAAAAA2AAAAAAAAAAAAA2AAIAAAAAAAAAAAAAA2AAAAAAAAAA2AAAAIA2AAAA
AAAAAAAAA2AAAAAAAAAAAAA2AAIAAAAAAAAAAAIAA2AAAAAAAAAA2AAAAIA2AAAA
AAAAAAAAA2AAAAAAAAAAAAAAAA2AAAAAAAAAAA4AA2AAAAAAAAAA2AAAAIA2AAAA
AAAAAAAAA2AAAAAAAAAAAAAAAA2AAAAAAAAAAA4AA2AAAAAAAAAA2AAAA2A2AAAA
AAAAAAAAA2AAAAAAAAAAAAAAAA2AAAAAAAAAAA2AA2AAAAAAAAAA2AAAA2A2AAAA
AAAAAAAAA2AAAAAAAAAAAAAAAA2AAAAAAAAAAA2AA2AAAAAAAAAA2AAAAIA2AAAA
AAAAAAAAA2AAAAAAAAAAAAAAAA2AAAAAAAAAAA2AA2AAAAAAAAAA2AAAA4A2AAAA
AAAIAAAAA2AAAAAAAAAAAAAAAA2AAAAAAAAAAA2AA2AAAAAAAAAA2AAAA4A2AAAA
AAAIAAAAA2AAAAAAAAAAAAAAAA2AAAIAAAAAAA2AA2AAAAAAAAAA2AAAA4A2AAAA
AAAIAAAAA2AAAAAAAAAAAAAAAA2AAAIAAAAAAAIAA2AAAAAAAAAA2AAAA4A2AAAA
AAAIAAAAA2AAAAAAAAAAAAAAAA2AAAIAAAAAAAIAA2AIAAAAAAAA2AAAA4A2AAAA
AAAIAAAAA2AAAAAAAAAAAAAAAA2AAAIAAAAAAA2AA2A4AAAAAAAA2AAAA4A2AAAA
AAAIAAAAA2AAAAAAAAAAAAAAAA2AAAIAAAAAAAAAA2A4AAAAAAAA2AAAA4A2AAAA
AAAIAAAAA2AAAAAAAAAAAAAAAA2AAAIAAAAAAAAAA2AAAAAAAAAA2AAAA4A2AAAA
AAAIAAAAA2AAAAAAAAAAAAAAAA2AAAIAAAIAAAAAA2AAAAAAAAAA2AAAA4A2AAAA
AAAAAAAAA2AAAAAAAAAAAAAAAA2AAAIAAAIAAAAAA2AAAAAAAAAA2AAAA4A2AAAA
AAAAAAAAA2AAAAAAAAAAAAAAAA2AAA4AAAIAAAAAA2AAAAAAAAAA2AAAA4A2AAAA
AAAAAAAAA2AAAAAAAAAAAAAAAA2AAA4AAA4AAAAAA2AAAAAAAAAA2AAAA4A2AAAA
AAAAAAAAA2AAAAAAAAAAAAAAAA2AAA2AAA4AAAAAA2AAAAAAAAAA2AAAA4A2AAAA
AAAAAAAAA2AAAAAAAAAAAAAAAA2AAA2AAA4AAAAAA2AAAAAAAAAA2AAAA2A2AAAA
AAAAAAAAA2AAAAAAAAAAAAAAAA2AAA2AAAAAAAAAA2AAAAAAAAAA2AAAA2A2AAAA
AAAAAAAAAAAAAAAAAAAAAAAAAA2AAA2AAAAAAAAAA2AAAAAAAAAA2AAAA2A2AAAA
AAAAAAAAAIAAAAAAAAAAAAAAAA2AAA2AAAAAAAAAA2AAAAAAAAAA2AAAA2A2AAAA
AAAAAAAAA2AAAAAAAAAAAAAAAA2AAA2AAAAAAAAAA2AAAAAAAAAA2AAAA2A2AAAA
AAAAAAAAA2AAAAAAAAAAAAAAAA2AAA2AAAAAAAAAA2AAIAAAAAAA2AAAA2A2AAAA
AAAAAAAAA2AAAAAAAAAAAAAAAA2AAA2AAAAAAAAAA2AAIIAAAAAA2AAAA2A2AAAA
AAAAAAAAA2AAAAAAAAAAAAAAAA2AAA2AAAAAAAAAA2AAI4AAAAAA2AAAA2A2AAAA
AAAAAAAAA2AAAAAAAAAAAAAAAA2AAA2AAAAAAAAAA2AA22AAAAAA2AAAA2A2AAAA
AAAAAAAAA2AAAAAAAAAAAAAAAAAAAA2AAAAAAAAAA2AA22AAAAAA2AAAA2A2AAAA
AAAAAAAAA2AAAAAAAAAAAAAAAAIAAA2AAAAAAAAAA2AA22AAAAAA2AAAA2A2AAAA
AAAAAAAAA2AAAAAAAAAAAAAAAAIAAA2AAAAAAAAAA2AA2AAAAAAA2AAAA2A2AAAA
AAAAAAAAAAAAAAAAAAAAAAAAAAIAAA2AAAAAAAAAA2AA2AAAAAAA2AAAA2A2AAAA
AAAAAAAAAAAAAAAAAAAAAAAAAAIAAA2AAAAAAAAAA2AA2AAAAAIA2AAAA2A2AAAA
AAAAAAAAAAAAAAAAAAAAAAAAAAIAAA2AAAAAAAAAA2AA2AAAAA2A2AAAA2A2AAAA
AAAAAAAAAIAAAAAAAAAAAAAAAAIAAA2AAAAAAAAAA2AA2AAAAA2A2AAAA2A2AAAA
AAAAAAAAA4AAAAAAAAAAAAAAAAIAAA2AAAAAAAAAA2AA2AAAAA2A2AAAA2A2AAAA
AAAAAAAAA4AAAAAAAAAAAAAAAA4AAA2AAAAAAAAAA2AA2AAAAA2A2AAAA2A2AAAA
AAAAAAAAA4AAAAAAAAAAAAAAAA4AAA2AAAAAAAAAA2AA2AAAAAIA2AAAA2A2AAAA
AAAAAAAAA4AAAAAAAAAAAAAAAA4AAA2AAAAAAAAAA2AA2AAAIAIA2AAAA2A2AAAA
AAAAAAAAA4AAAAAAAAAAAAAAAA4AAA2AAAAAAAAAA2AA2AAA4A4A2AAAA2A2AAAA
AAAAAAAAA4AAAAAAAAAAAAAAAA4AAA2AAAAAAAAAA2AA2AAA2A2A2AAAA2A2AAAA
AAAAAAAAA4AAAAAAAAAAAAAAAA4AAA2AAAAAAAAAA2AA2AIA2A2A2AAAA2A2AAAA
AAAAAAAAA4AAAAAAAAAAAAAAAA4AAA2AAAAAAAAAA2AA2AAA2A2A2AAAA2A2AAAA
AAAAAAAAA2AAAAAAAAAAAAAAAA4AAA2AAAAAAAAAA2AA2AAA2A2A2AAAA2A2AAAA
AAAAAAAAA2AAAAAAAAAAAAAAAA4AAA2IAAAAAAAAA2AA2AAA2A2A2AAAA2A2AAAA
AAAAAAAAA2AAAAAAAAAAAAAAAA4AAA22AAAAAAAAA2AA2AAA2A2A2AAAA2A2AAAA
AAAAAAAAA2AAAAAAAAAAAAAAAAAAAA22AAAAAAAAA2AA2AAA2A2A2AAAA2A2AAAA
AAAAAAAAAAAAAAAAAAAAAAAAAAAAAA22AAAAAAAAA2AA2AAA2A2A2AAAA2A2AAAA
AAAAAAAAAAAAAAAAAAAAAAAAAAAAAA2AAAAAAAAAA2AA2AAA2A2A2AAAA2A2AAAA
AAAAAAAAAAAAAAAAAAAAAAAAAAAAAA2IAAAAAAAAA2AA2AAA2A2A2AAAA2A2AAAA
AAAAAAAAAAAAAAAAAAAAAAAAAAAAAA2IAAAAAAAAA2AA2AAA2A2A2AAAA2AAAAAA
AAAAAAAIAAAAAAAAAAAAAAAAAAAAAA2IAAAAAAAAA2AA2AAA2A2A2AAAA2AAAAAA
AAAAAAAIAAAAAAAAAAAAAAAAAAAAAA2IAAAAAAAAA2AA2AIA2A2A2AAAA2AAAAAA
AAAAAAAIAAAAAAAAAAAAAAAAAAAAAA2IAAAAAAAAA2AA2A2A2A2A2AAAA2AAAAAA
AAAAAAAIAAAAAAAAAAAAAAAAAAAAAA2IAAAAAAAAA2IA2A2A2A2A2AAAA2AAAAAA
AAAAAAAIAAAAAAAAAAAAAAAAAAAAAA2IAAAAAAAAA22A2A2A2A2A2AAAA2AAAAAA
AAAAAAAIAAAAAAAAAAAAAAAAAAAAAA2IAAAAAAAAA22A2A2A2AAA2AAAA2AAAAAA
AAAAAAAIAAAAAAAAAAAAAAAAAAAAAA24AAAAAAAAA22A2A2A2AAA2AAAA2AAAAAA
AAAAAAAIAAAAAAAAAAAAAAAAAAAAAA24AAAAAAAAA2IA2A2A2AAA2AAAA2AAAAAA
AAAAAAAIAAAAAAAAAAAAAAAAAAAAAA24AAAAAAAAA22A2A2A2AAA2AAAA2AAAAAA
AAAAAAA2AAAAAAAAAAAAAAAAAAAAAA24AAAAAAAAA22A2A2A2AAA2AAAA2AAAAAA
AAAAAAA2AAAAAAAAAAAAAAAAAAAAAA24AAAAAAAAA22A2A2A2AAA2AIAA2AAAAAA
AAAAAAA2AAAAAAAAAAAAAAAAAAAAAA24AAAAAAAAA22A2A2A2AAA2A4AA2AAAAAA
AAAAAAA2AAAAAAAAAAAAAAAAAAAAAA24AAAAAAAAA22A2AAA2AAA2A4AA2AAAAAA
AAAAAAA2AAAAAAAAAAAAAAAAAAAAAA24AAIAAAAAA22A2AAA2AAA2A4AA2AAAAAA
AAAAAAA2AAAAAAAAAAAAAAAAAAAAAA24AAIAAAAAA22A2AIA2AAA2A4AA2AAAAAA
AAAAAAA2AAAAAAAAAAAAAAAAAAAAAA24AAAAAAAAA22A2A4A2AAA2A4AA2AAAAAA
AAAAAAA2AAAAAAAAAAAAAAAAAAAAAA24AAAAAAAAA22A2A2A2AAA2A4AA2AAAAAA
AAAAAAA2AAAAAAAAAAAAAAAAAAAAAA24AAAAAAAAA22A2A2AAAAA2A2AA2AAAAAA
AAAAAAA2AAAAAAAAAAAAAAAAAAAAAA24AAAAAAAAA2AA2A2AAAAA2A2AA2AAAAAA
AAAAAAA2AAAAAAAAAAAAAAAAAAAAAA24AAAAAAAAA2IA2A2AAAAA2A2AA2AAAAAA
AAAAAAA2AAAAAAAAAAAAAAAAAAAAAA24AAAAAAAAAA2A2A2AAAAA2A2AA2AAAAAA
AAAAAAA2AAAAAAAAAAAAAAAAAAAAAI24AAAAAAAAAA2A2A2AAAAA2A2AA2AAAAAA
AAAAAAA2AAAIAAAAAAAAAAAAAAAAAI24AAAAAAAAAA2A2A2AAAAA2A2AA2AAAAAA
AAAAAAA2AAA4AAAAAAAAAAAAAAAAAI24AAAAAAAAAA2A2A2AAAAA2A2AA2AAAAAA
AAAAAAA2AAA2AAAAAAAAAAAAAAAAAI24AAAAAAAAAA2A2A2AAAAA2A2AA2AAAAAA
AAAAAAA2AAA2AAAAAAAAAAAAAAAAA424AAAAAAAAAA2A2A2AAAAA2A2AA2AAAAAA
AAAAAAA2AAA2AAAAAAAAAAAAAAAAA424AAAAIAAAAA2A2A2AAAAA2A2AA2AAAAAA
AAAAAAA2AAA2AAAAAAAAAAAAAAAAA424AAAAIAAAAA2A2A2AIAAA2A2AA2AAAAAA
AAAAAAA2AAAIAAAAAAAAAAAAAAAAA424AAAAIAAAAA2A2A2AIAAA2A2AA2AAAAAA
AAAAAAA2AAAIAAAAAAAAAAAAAAAAA424AAAAIAAAAA2A2A2A4AAA2A2AA2AAAAAA
AAAAAAA2AAA2AAAAAAAAAAAAAAAAA424AAAAIAAAAA2A2A2A4AAA2A2AA2AAAAAA
AAAAAAAAAAA2AAAAAAAAAAAAAAAAA424AAAAIAAAAA2A2A2A4AAA2A2AA2AAAAAA
AAAAAAAAAAA2AAAAAAAAAAAAAAAAA424AAAAIAAAAAAA2A2A2AAA2A2AA2AAAAAA
AAAAAAAAAAA2AAAAAAAAAAAAAAAAA424AAAAIAAAAAAA2AAA2AAA2A2AA2AAAAAA
AAAAAAAAAAA2AAAAAAAAAAAAAAAAA224AAAA4AAAAAAA2AAA2AAA2A2AA2AAAAAA
AAAAAAAAAAA2AAAAAAAAAAAAAAAAAI24AAAA4AAAAAAA2AAA2AAA2A2AA2AAAAAA
AAAAAAAAAAA2AAAAAAAAAAAAAAAAAI24AAAA2AAAAAAA2AAA2AAA2A2AA2AAAAAA
AAAAAAAAAAA2AAAAAAAAAAAAAAAAAI24AAAA2AAAAAAA2AIA2AAA2A2AA2AAAAAA
AAAAAAAAAAA2AAAAAAAAAAAAAAAAAI24AAAA2AAAAAAA2AIAAAAA2A2AA2AAAAAA
AAAAAAAAAAA2AAAAAAAAAAAAAAAAA424AAAA2AAAAAAA2AIAAAAA2A2AA2AAAAAA
AAAAAAAAAAA2AAAAAAAAAAAAAAAAA424AAAA2AAAAAAA2A4AAAAA2A2AA2AAAAAA
AAAAAAAAAAA2AAAAAAAAAAAAAAAAA424AAAAIAAAAAAA2A4AAAAA2A2AA2AAAAAA
AAAAAAAAAAA2AAAAAAAAAAAAAAAAA424AAAAAAAAAAAA2A4AAAAA2A2AA2AAAAAA
AAAAAAAAAAA2AAAAAAAAAAAAAAAAAA24AAAAAAAAAAAA2A4AAAAA2A2AA2AAAAAA
AAAAAAAAAAA2AAAAAAAAAAAAAAAAAA24AAAAAAAAAAAA2A2AAAAA2A2AA2AAAAAA
AAAAAAAAAAA2AAAAAAAAAAAAAAAAAA24AAIAAAAAAAAA2A2AAAAA2A2AA2AAAAAA
AAAAAAAAAAA2AAAAAAAAAAAAAAAAAA24AAIAAAAAAAAA2AAAAAAA2A2AA2AAAAAA
AAAAAAAAAAA2AAAAAAAAAAAAAAAAAA24AAIAAAAAAAAAAAAAAAAA2A2AA2AAAAAA
AAAAAAAAAAA2AAAAAAAAAAAAAAAAAA24AAIAAAAAAAAAIAAAAAAA2A2AA2AAAAAA
AAAAAAAIAAA2AAAAAAAAAAAAAAAAAA24AAIAAAAAAAAAIAAAAAAA2A2AA2AAAAAA
AAAAAAA2AAA2AAAAAAAAAAAAAAAAAA24AAIAAAAAAAAAIAAAAAAA2A2AA2AAAAAA
AAAAAAA2AAA2AAAAAAAAAAAAAAAAAA24AAAAAAAAAAAA4AAAAAAA2A2AA2AAAAAA
AAAAAAA2AAA2AAAAAAAAAAAAAAAAAA24AAAAAAAAAAAA4AAAAAAA2A2IA2AAAAAA
AAAAAAAAAAA2AAAAAAAAAAAAAAAAAA24AAAAAAAAAAAA4AAAAAAA2A2IA2AAAAAA
AAAAAAAAAAA2AAAAAAAAAAAAAAAAAA24AAAAAAAAAAAA4AAAAAAA2A24A2AAAAAA
AAAAAAAAAAA2AAAAIAAAAAAAAAAAAA24AAAAAAAAAAAA4AAAAAAA2A24A2AAAAAA
AAAAAAAAAAAAAAAAIAAAAAAAAAAAAA24AAAAAAAAAAAA4AAAAAAA2A24A2AAAAAA
AAAAAAAAAAAAAAAA4AAAAAAAAAAAAA24AAAAAAAAAAAA4AAAAAAA2A24A2AAAAAA
AAAAAAAAAAAIAAAA4AAAAAAAAAAAAA24AAAAAAAAAAAA4AAAAAAA2A24A2AAAAAA
AAAAAAAAAAAIAAAA4AAAAAAAAAAAAA24AAAAAAIAAAAA4AAAAAAA2A24A2AAAAAA
AAAAAAAAAAA4AAAA4AAAAAAAAAAAAA24AAAAAAIAAAAA4AAAAAAA2A24A2AAAAAA
AAAAAAAAAAA4AAAA4AAAAAAAAAAAAA24AAAAAAIAAAAA4AAAAAAA2A22A2AAAAAA
AAAAAAAAAAA4AAAA4AAAAAAAAAAAAA24AAAAAAIAAAAA2AAAAAAA2A22A2AAAAAA
AAAAAAAAAAA2AAAA4AAAAAAAAAAAAA24AAAAAAIAAAAA2AAAAAAA2A22A2AAAAAA
AAAAAAAAAAA2AAAA2AAAAAAAAAAAAA24AAAAAAIAAAAA2AAAAAAA2A22A2AAAAAA
AAAAAAAAAAA2AAAA2AAAAAAAAAAAAA24AAAAAAAAAAAA2AAAAAAA2A22A2AAAAAA
AAAIAAAAAAA2AAAA2AAAAAAAAAAAAA24AAAAAAAAAAAA2AAAAAAA2A22A2AAAAAA
AAAIAAAIAAA2AAAA2AAAAAAAAAAAAA24AAAAAAAAAAAA2AAAAAAA2A22A2AAAAAA
AAAIAAAIAAA2AAAA2AAAAAAAAAAAAA24AAAAAAAAAAAI2AAAAAAA2A22A2AAAAAA
AAA2AAA4AAA2AAAA2AAAAAAAAAAAAA24AAAAAAAAAAAI2AAAAAAA2A22A2AAAAAA
AAA2AAA4AAA2AAAA2AAAAAAAAAAAAA24AAAAAAAAAAAA2AAAAAAA2A22A2AAAAAA
AAA2AAA4AAA2AAAA2IAAAAAAAAAAAA24AAAAAAAAAAAA2AAAAAAA2A22A2AAAAAA
AAA2AAA2AAA2AAAA2IAAAAAAAAAAAA24AAAAAAAAAAAA2AAAAAAA2A22A2AAAAAA
AAA2AAA2AAA2AAAA2IAAAAAAAAAAAA22AAAAAAAAAAAA2AAAAAAA2A22A2AAAAAA
AAA2AAA2AAA2AAAA2IAAAAAAAAAAAA22AAAAIAAAAAAA2AAAAAAA2A22A2AAAAAA
AAA2AAAIAAA2AAAA2IAAAAAAAAAAAA22AAAAIAAAAAAA2AAAAAAA2A22A2AAAAAA
AAA2AAAIAAA2AAAA22AAAAAAAAAAAA22AAAAIAAAAAAA2AAAAAAA2A22A2AAAAAA
AAA2AAA2AAA2AAAA22AAAAAAAAAAAA22AAAAIAAAAAAA2AAAAAAA2A22A2AAAAAA
AAA2AAA2AAA2AAAA22AAAAAAAAAAAA22AAAA2AAAAAAA2AAAAAAA2A22A2AAAAAA
AAAAAAA2AAA2AAAA22AAAAAAAAAAAA22AAAA2AAAAAAA2AAAAAAA2A22A2AAAAAA
AAAAAAA2AAA2AAAA22AAAAAAAAAAAA22AAIA2AAAAAAA2AAAAAAA2A22A2AAAAAA
AAAAAAA2AAA2AAAI22AAAAAAAAAAAA22AAIA2AAAAAAA2AAAAAAA2A22A2AAAAAA
AAAAAAA2AAA2AAAI22AAAAAAAAAAAA22AA2A2AAAAAAA2AAAAAAA2A22A2AAAAAA
AAAAAAA2AAA2AAA422AAAAAAAAAAAA22AA2A2AAAAAAA2AAAAAAA2A22A2AAAAAA
AAAAAAA2AAA2AAA422AAAAAAAAAAAA22AA2A2AAAAAAA2AAAAAAA2AA2A2AAAAAA
AAAAAAA2AAA2AAA422AAAAAAAAAAAA22AAAA2AAAAAAA2AAAAAAA2AA2A2AAAAAA
AAAAAAA2AAA2AAA42AAAAAAAAAAAAA22AAAA2AAAAAAA2AAAAAAA2AA2A2AAAAAA
AAAAAAA2AAA2AAA42AAAAAAAAAAAAA22IAAA2AAAAAAA2AAAAAAA2AA2A2AAAAAA
AAAAAAA2AAA2AAA42AAAAAAAAAAAAA22IAAAAAAAAAAA2AAAAAAA2AA2A2AAAAAA
AAAIAAA2AAA2AAA42AAAAAAAAAAAAA22IAAAAAAAAAAA2AAAAAAA2AA2A2AAAAAA
AAAIAAA2AAAAAAA22AAAAAAAAAAAAA22IAAAAAAAAAAA2AAAAAAA2AA2A2AAAAAA
AAAIAAA2AAAAAAA22AAAAAAAAAAAAA224AAAAAAAAAAA2AAAAAAA2AA2A2AAAAAA
AAAIAAA2AAAAAAA22AAAAAAAAAAAAA22AAAAAAAAAAAA2AAAAAAA2AA2A2AAAAAA
AAAIAAA2AAAAAAA22AAAAAAAAAAAAA2AAAAAAAAAAAAA2AAAAAAA2AA2A2AAAAAA
AAAIAAA2AAAAAAA22AAAAAAAAAAAAA2AAAAAAAAAAAIA2AAAAAAA2AA2A2AAAAAA
AAAIAAA2AAAAAAA22AAAAAAAAAAAAA2AAAAAAAAAAAIA2IAAAAAA2AA2A2AAAAAA
AAAIAAA2AAAAAAA22AAAAAAAAAAAAI2AAAAAAAAAAAIA2IAAAAAA2AA2A2AAAAAA
AAAIAAA2AAAAAAA22AAAAAAAAAAAA22AAAAAAAAAAAIA2IAAAAAA2AA2A2AAAAAA
AAAIAAA2AAAAAAA22AAAAAAAAAAAA22AAAAAAAAAAA2A24AAAAAA2AA2A2AAAAAA
AAAIAAA2AAAAAAA22AAAAAAAAAAAA22AAAAAIAAAAA2A24AAAAAA2AA2A2AAAAAA
AAAIAAA2AAAAAAA22AAAAAAAAAAAA22AAAAAIAAAAAIA24AAAAAA2AA2A2AAAAAA
AAAIAAA2AAAAAAA22AAAAAAAAAAAA22IAAAAIAAAAAIA24AAAAAA2AA2A2AAAAAA
AAAAAAA2AAAAAAA22AAAAAAAAAAAA22IAAAAIAAAAAIA24AAAAAA2AA2A2AAAAAA
AAAAAAAAAAAAAAA22AAAAAAAAAAAA22IAAAAIAAAAAIA24AAAAAA2AA2A2AAAAAA
AAAAAAAAAAAAAAA22AAAAAAAAAAAA22IAAAAIAAAAAIA24IAAAAA2AA2A2AAAAAA
AAAAAAAAAAAAAAA22AAAAAAAAAAAA22IAAAAIAAAAAAA242AAAAA2AA2A2AAAAAA
AAAAAAAAAAAAAAA22AAAAAAAAAAAAA22AAAA2AAAAAAA242AAAAA2AA2A2AAAAAA
AAAAAAAAAAAAAAA22AAAAAAAAAAAAA22AAAA2AAAAAAA222AAAAA2AA2A2AAAAAA
AAAAAAAAAAAAAAA22AAAAAAAAAAAAA22AAAA2AAAAAAA22AAAAAA2AA2A2AAAAAA
AAAAAAAAAAAAAAA22AAAAAAAAAAAAA22AAAA2AAAAAAA2IAAAAAA2AA2A2AAAAAA
AAAAAAAAAAAAAAA22AAAAAAAAAAAAA22AAAA2AAAAAAA2AAAAAAA2AA2A2AAAAAA
AAAAAAAAAAAAAAA22AAAAAAAAAAAAA22AAAA2AAAAAAA2AAAIAAA2AA2A2AAAAAA
AAAAAAAAAAAAAAA22AAAAAAAAAAAAA22AAAAAAAAAAAA2AAA4AAA2AA2A2AAAAAA
AAAAAAAAAAAAAAA22AAAAAAAAAAAAA22AAIAAAAAAAAA2AAA4AAA2AA2A2AAAAAA
AAAAAAAAAAAAAAA22AAAAAAAAAAAAA22AAIAAAAAAAAA2AAA2AAA2AA2A2AAAAAA
AAAAAAAAAAAAAAI22AAAAAAAAAAAAA22AAIAAAAAAAAA2AAA2AAA2AA2A2AAAAAA
AAAAAAAAAAAAAAI22AAAAAAAAAAAAA22AAIAAAIAAAAA2AAA2AAA2AA2A2AAAAAA
AAAAAAAAAAAAAA222AAAAAAAAAAAAA22AAIAAAIAAAAA2AAA2AAA2AA2A2AAAAAA
AAAAAAAAAAAAAA222AAAAAAAAAAAAA22AAIAAAIAAAAA2AAA2AAAAAA2A2AAAAAA
AAAAAAAAAAAAAA222AAAAAAAAAAAAA22AAIAAAIIAAAA2AAA2AAAAAA2A2AAAAAA
AAIAAAAAAAAAAA222AAAAAAAAAAAAA22AAIAAAIIAAAA2AAA2AAAAAA2A2AAAAAA
AAIAAAAAAAAAAA222AAAAAAAAAAAAA22AAIAAAIIAAAA2AAA2AAAIAA2A2AAAAAA
AAIAAAAAAAAAAA222AAAAAAAAAAAAA22AAIAAA22AAAA2AAA2AAA4AA2A2AAAAAA
AAIAAAAAAAAAAA222AAAAAAAAAAAAA22AAIAAA22AAAA2AAA2AAA4AA2AAAAAAAA
[MLOP] Prefetch Degree Mean: 10.57761
[MLOP] Prefetch Degree SD: 2.33912
[MLOP] Max Score Left Mean (%): 57.24609
[MLOP] Max Score Left SD (%): 9.39544
[MLOP] Max Score Right Mean (%): 84.97405
[MLOP] Max Score Right SD (%): 11.22350

Channel_0_RQ_row_buffer_hit 197825
Channel_0_RQ_row_buffer_miss 872460
Channel_0_WQ_row_buffer_hit 82913
Channel_0_WQ_row_buffer_miss 101709
Channel_0_WQ_full 0
Channel_0_dbus_congested 271726

avg_congested_cycle 9

DRAM_bw_pochs 874251
DRAM_bw_level_0 811734
DRAM_bw_level_1 58096
DRAM_bw_level_2 3826
DRAM_bw_level_3 595
