*************************************************
   ChampSim Multicore Out-of-Order Simulator
   Last compiled: Apr  3 2025 20:54:34
*************************************************
parsing config file: /home/zir/Pythia/config/mlop.ini

trace_0 /home/zir/ChampSim/ML-DPC/ChampSimTraces/gap/bfs-3.trace.gz
adding L2C_PREFETCHER: MLOP
Initialize SHIP state
warmup_instructions 10000000
simulation_instructions 50000000
champsim_seed 51
measure_ipc 0
measure_ipc_epoch 1000
measure_dram_bw 1
measure_dram_bw_epoch 256
measure_cache_acc 1
measure_cache_acc_epoch 1024
l1d_perfect 0
l2c_perfect 0
llc_perfect 0
l1d_semi_perfect 0
l2c_semi_perfect 0
llc_semi_perfect 0
semi_perfect_cache_page_buffer_size 64

num_cpus 1
cpu_freq 4000
dram_io_freq 2400
page_size 4096
block_size 64
max_read_per_cycle 8
max_fill_per_cycle 1
dram_channels 1
log2_dram_channels 0
dram_ranks 1
dram_banks 8
dram_rows 65536
dram_columns 128
dram_row_size 8
dram_size 4096
dram_pages 1048576

fetch_width 6
decode_width 6
exec_width 4
lq_width 2
sq_width 2
retire_width 4
scheduler_size 128
branch_mispredict_penalty 20
rob_size 256
lq_size 72
sq_size 56
num_instr_destinations_sparc 4
num_instr_destinations 2
num_instr_sources 4

itlb_set 16
itlb_way 8
itlb_rq_size 16
itlb_wq_size 16
itlb_pq_size 0
itlb_mshr_size 8
itlb_latency 1

dtlb_set 16
dtlb_way 4
dtlb_rq_size 16
dtlb_wq_size 16
dtlb_pq_size 0
dtlb_mshr_size 8
dtlb_latency 1

stlb_set 128
stlb_way 12
stlb_rq_size 32
stlb_wq_size 32
stlb_pq_size 0
stlb_mshr_size 16
stlb_latency 8

l1i_size 32
l1i_set 64
l1i_way 8
l1i_rq_size 64
l1i_wq_size 64
l1i_pq_size 8
l1i_mshr_size 8
l1i_latency 1

l1d_size 32
l1d_set 64
l1d_way 8
l1d_rq_size 64
l1d_wq_size 64
l1d_pq_size 8
l1d_mshr_size 16
l1d_latency 4

l2c_size 256
l2c_set 512
l2c_way 8
l2c_rq_size 32
l2c_wq_size 32
l2c_pq_size 32
l2c_mshr_size 32
l2c_latency 10

llc_size 2048
llc_set 2048
llc_way 16
llc_rq_size 32
llc_wq_size 32
llc_pq_size 32
llc_mshr_size 64
llc_latency 20

dram_channel_width 8
dram_wq_size 64
dram_rq_size 64
tRP 15
tRCD 15
tCAS 12.5
dram_dbus_turn_around_time 30
dram_write_high_wm 56
dram_write_low_wm 48
min_dram_writes_per_switch 16
dram_mtps 2400
dram_dbus_return_time 13

mlop_pref_degree 16
mlop_num_updates 500
mlop_l1d_thresh 2
mlop_l2c_thresh 0.75
mlop_llc_thresh 0.3
mlop_debug_level 0
mlop_blocks_in_cache 4096
mlop_blocks_in_zone 64
mlop_amt_size 2048
mlop_PF_DEGREE 16
mlop_NUM_UPDATES 500
mlop_L1D_THRESH 1000
mlop_L2C_THRESH 375
mlop_LLC_THRESH 150
mlop_ORIGIN 63
mlop_MAX_OFFSET 63
mlop_MIN_OFFSET -63
mlop_ORIGIN 63
mlop_NUM_OFFSETS 127


Heartbeat CPU  0 instructions:    1000000 cycles:    1372260 heartbeat IPC: 0.72872 cumulative IPC: 0.72872 (Simulation time: 0 hr 0 min 1 sec) 
Heartbeat CPU  0 instructions:    2000001 cycles:    2749493 heartbeat IPC: 0.72609 cumulative IPC: 0.72741 (Simulation time: 0 hr 0 min 2 sec) 
Heartbeat CPU  0 instructions:    3000000 cycles:    4131557 heartbeat IPC: 0.72355 cumulative IPC: 0.72612 (Simulation time: 0 hr 0 min 3 sec) 
Heartbeat CPU  0 instructions:    4000000 cycles:    5513399 heartbeat IPC: 0.72367 cumulative IPC: 0.72551 (Simulation time: 0 hr 0 min 3 sec) 
Heartbeat CPU  0 instructions:    5000000 cycles:    6884238 heartbeat IPC: 0.72948 cumulative IPC: 0.72630 (Simulation time: 0 hr 0 min 4 sec) 
Heartbeat CPU  0 instructions:    6000002 cycles:    8266631 heartbeat IPC: 0.72338 cumulative IPC: 0.72581 (Simulation time: 0 hr 0 min 5 sec) 
Heartbeat CPU  0 instructions:    7000001 cycles:    9636702 heartbeat IPC: 0.72989 cumulative IPC: 0.72639 (Simulation time: 0 hr 0 min 6 sec) 
Heartbeat CPU  0 instructions:    8000000 cycles:   11004262 heartbeat IPC: 0.73123 cumulative IPC: 0.72699 (Simulation time: 0 hr 0 min 7 sec) 
Heartbeat CPU  0 instructions:    9000001 cycles:   12376000 heartbeat IPC: 0.72900 cumulative IPC: 0.72721 (Simulation time: 0 hr 0 min 8 sec) 
Heartbeat CPU  0 instructions:   10000003 cycles:   13738019 heartbeat IPC: 0.73421 cumulative IPC: 0.72791 (Simulation time: 0 hr 0 min 8 sec) 

Warmup complete CPU  0 instructions:   10000003 cycles:   13738019 (Simulation time: 0 hr 0 min 8 sec) 

Heartbeat CPU  0 instructions:   11000001 cycles:   17125868 heartbeat IPC: 0.29517 cumulative IPC: 0.29517 (Simulation time: 0 hr 0 min 10 sec) 
Heartbeat CPU  0 instructions:   12000000 cycles:   20581325 heartbeat IPC: 0.28940 cumulative IPC: 0.29226 (Simulation time: 0 hr 0 min 12 sec) 
Heartbeat CPU  0 instructions:   13000002 cycles:   24009848 heartbeat IPC: 0.29167 cumulative IPC: 0.29206 (Simulation time: 0 hr 0 min 14 sec) 
Heartbeat CPU  0 instructions:   14000000 cycles:   27400241 heartbeat IPC: 0.29495 cumulative IPC: 0.29278 (Simulation time: 0 hr 0 min 15 sec) 
Heartbeat CPU  0 instructions:   15000000 cycles:   30781599 heartbeat IPC: 0.29574 cumulative IPC: 0.29337 (Simulation time: 0 hr 0 min 17 sec) 
Heartbeat CPU  0 instructions:   16000000 cycles:   34190645 heartbeat IPC: 0.29334 cumulative IPC: 0.29336 (Simulation time: 0 hr 0 min 19 sec) 
Heartbeat CPU  0 instructions:   17000002 cycles:   37582579 heartbeat IPC: 0.29482 cumulative IPC: 0.29357 (Simulation time: 0 hr 0 min 20 sec) 
Heartbeat CPU  0 instructions:   18000000 cycles:   40980381 heartbeat IPC: 0.29431 cumulative IPC: 0.29366 (Simulation time: 0 hr 0 min 22 sec) 
Heartbeat CPU  0 instructions:   19000000 cycles:   44388083 heartbeat IPC: 0.29345 cumulative IPC: 0.29364 (Simulation time: 0 hr 0 min 24 sec) 
Heartbeat CPU  0 instructions:   20000000 cycles:   47787197 heartbeat IPC: 0.29419 cumulative IPC: 0.29369 (Simulation time: 0 hr 0 min 25 sec) 
Heartbeat CPU  0 instructions:   21000001 cycles:   51143241 heartbeat IPC: 0.29797 cumulative IPC: 0.29408 (Simulation time: 0 hr 0 min 27 sec) 
Heartbeat CPU  0 instructions:   22000000 cycles:   54540085 heartbeat IPC: 0.29439 cumulative IPC: 0.29410 (Simulation time: 0 hr 0 min 28 sec) 
Heartbeat CPU  0 instructions:   23000002 cycles:   57920746 heartbeat IPC: 0.29580 cumulative IPC: 0.29423 (Simulation time: 0 hr 0 min 30 sec) 
Heartbeat CPU  0 instructions:   24000000 cycles:   61319449 heartbeat IPC: 0.29423 cumulative IPC: 0.29423 (Simulation time: 0 hr 0 min 32 sec) 
Heartbeat CPU  0 instructions:   25000001 cycles:   64689109 heartbeat IPC: 0.29677 cumulative IPC: 0.29440 (Simulation time: 0 hr 0 min 33 sec) 
Heartbeat CPU  0 instructions:   26000001 cycles:   68075546 heartbeat IPC: 0.29530 cumulative IPC: 0.29446 (Simulation time: 0 hr 0 min 35 sec) 
Heartbeat CPU  0 instructions:   27000003 cycles:   71456963 heartbeat IPC: 0.29573 cumulative IPC: 0.29453 (Simulation time: 0 hr 0 min 37 sec) 
Heartbeat CPU  0 instructions:   28000000 cycles:   74883019 heartbeat IPC: 0.29188 cumulative IPC: 0.29438 (Simulation time: 0 hr 0 min 38 sec) 
Heartbeat CPU  0 instructions:   29000000 cycles:   78285911 heartbeat IPC: 0.29387 cumulative IPC: 0.29436 (Simulation time: 0 hr 0 min 40 sec) 
Heartbeat CPU  0 instructions:   30000000 cycles:   81690323 heartbeat IPC: 0.29374 cumulative IPC: 0.29432 (Simulation time: 0 hr 0 min 42 sec) 
Heartbeat CPU  0 instructions:   31000000 cycles:   85079820 heartbeat IPC: 0.29503 cumulative IPC: 0.29436 (Simulation time: 0 hr 0 min 43 sec) 
Heartbeat CPU  0 instructions:   32000000 cycles:   88465747 heartbeat IPC: 0.29534 cumulative IPC: 0.29440 (Simulation time: 0 hr 0 min 45 sec) 
Heartbeat CPU  0 instructions:   33000000 cycles:   91884705 heartbeat IPC: 0.29249 cumulative IPC: 0.29432 (Simulation time: 0 hr 0 min 46 sec) 
Heartbeat CPU  0 instructions:   34000002 cycles:   95256016 heartbeat IPC: 0.29662 cumulative IPC: 0.29441 (Simulation time: 0 hr 0 min 48 sec) 
Heartbeat CPU  0 instructions:   35000001 cycles:   98651016 heartbeat IPC: 0.29455 cumulative IPC: 0.29442 (Simulation time: 0 hr 0 min 50 sec) 
Heartbeat CPU  0 instructions:   36000000 cycles:  102038545 heartbeat IPC: 0.29520 cumulative IPC: 0.29445 (Simulation time: 0 hr 0 min 51 sec) 
Heartbeat CPU  0 instructions:   37000000 cycles:  105439314 heartbeat IPC: 0.29405 cumulative IPC: 0.29443 (Simulation time: 0 hr 0 min 53 sec) 
Heartbeat CPU  0 instructions:   38000000 cycles:  108828465 heartbeat IPC: 0.29506 cumulative IPC: 0.29446 (Simulation time: 0 hr 0 min 55 sec) 
Heartbeat CPU  0 instructions:   39000003 cycles:  112210084 heartbeat IPC: 0.29572 cumulative IPC: 0.29450 (Simulation time: 0 hr 0 min 56 sec) 
Heartbeat CPU  0 instructions:   40000000 cycles:  115601401 heartbeat IPC: 0.29487 cumulative IPC: 0.29451 (Simulation time: 0 hr 0 min 58 sec) 
Heartbeat CPU  0 instructions:   41000000 cycles:  118979729 heartbeat IPC: 0.29600 cumulative IPC: 0.29456 (Simulation time: 0 hr 1 min 0 sec) 
Heartbeat CPU  0 instructions:   42000000 cycles:  122393283 heartbeat IPC: 0.29295 cumulative IPC: 0.29451 (Simulation time: 0 hr 1 min 1 sec) 
Heartbeat CPU  0 instructions:   43000000 cycles:  125783473 heartbeat IPC: 0.29497 cumulative IPC: 0.29452 (Simulation time: 0 hr 1 min 3 sec) 
Heartbeat CPU  0 instructions:   44000000 cycles:  129207390 heartbeat IPC: 0.29206 cumulative IPC: 0.29445 (Simulation time: 0 hr 1 min 4 sec) 
Heartbeat CPU  0 instructions:   45000002 cycles:  132872169 heartbeat IPC: 0.27287 cumulative IPC: 0.29379 (Simulation time: 0 hr 1 min 6 sec) 
Heartbeat CPU  0 instructions:   46000001 cycles:  137762796 heartbeat IPC: 0.20447 cumulative IPC: 0.29026 (Simulation time: 0 hr 1 min 8 sec) 
Heartbeat CPU  0 instructions:   47000000 cycles:  142458304 heartbeat IPC: 0.21297 cumulative IPC: 0.28744 (Simulation time: 0 hr 1 min 10 sec) 
Heartbeat CPU  0 instructions:   48000000 cycles:  147134892 heartbeat IPC: 0.21383 cumulative IPC: 0.28486 (Simulation time: 0 hr 1 min 12 sec) 
Heartbeat CPU  0 instructions:   49000001 cycles:  151759856 heartbeat IPC: 0.21622 cumulative IPC: 0.28256 (Simulation time: 0 hr 1 min 14 sec) 
Heartbeat CPU  0 instructions:   50000003 cycles:  156345348 heartbeat IPC: 0.21808 cumulative IPC: 0.28049 (Simulation time: 0 hr 1 min 16 sec) 
Heartbeat CPU  0 instructions:   51000000 cycles:  161009120 heartbeat IPC: 0.21442 cumulative IPC: 0.27840 (Simulation time: 0 hr 1 min 18 sec) 
Heartbeat CPU  0 instructions:   52000000 cycles:  165733843 heartbeat IPC: 0.21165 cumulative IPC: 0.27632 (Simulation time: 0 hr 1 min 20 sec) 
Heartbeat CPU  0 instructions:   53000001 cycles:  170353777 heartbeat IPC: 0.21645 cumulative IPC: 0.27456 (Simulation time: 0 hr 1 min 22 sec) 
Heartbeat CPU  0 instructions:   54000000 cycles:  175008778 heartbeat IPC: 0.21482 cumulative IPC: 0.27283 (Simulation time: 0 hr 1 min 24 sec) 
Heartbeat CPU  0 instructions:   55000003 cycles:  179664289 heartbeat IPC: 0.21480 cumulative IPC: 0.27120 (Simulation time: 0 hr 1 min 26 sec) 
Heartbeat CPU  0 instructions:   56000000 cycles:  184307691 heartbeat IPC: 0.21536 cumulative IPC: 0.26968 (Simulation time: 0 hr 1 min 28 sec) 
Heartbeat CPU  0 instructions:   57000000 cycles:  188974243 heartbeat IPC: 0.21429 cumulative IPC: 0.26821 (Simulation time: 0 hr 1 min 30 sec) 
Heartbeat CPU  0 instructions:   58000000 cycles:  193628427 heartbeat IPC: 0.21486 cumulative IPC: 0.26683 (Simulation time: 0 hr 1 min 32 sec) 
Heartbeat CPU  0 instructions:   59000000 cycles:  198175517 heartbeat IPC: 0.21992 cumulative IPC: 0.26567 (Simulation time: 0 hr 1 min 34 sec) 
Heartbeat CPU  0 instructions:   60000000 cycles:  201583719 heartbeat IPC: 0.29341 cumulative IPC: 0.26618 (Simulation time: 0 hr 1 min 35 sec) 
Finished CPU 0 instructions: 50000000 cycles: 187845715 cumulative IPC: 0.26618 (Simulation time: 0 hr 1 min 35 sec) 

ChampSim completed all CPUs

[ROI Statistics]
Core_0_instructions 50000000
Core_0_cycles 187845715
Core_0_IPC 0.26618

Core_0_branch_prediction_accuracy 81.55113
Core_0_branch_MPKI 36.85764
Core_0_average_ROB_occupancy_at_mispredict 26.75124

Core_0_L1D_total_access 11827910
Core_0_L1D_total_hit 9505217
Core_0_L1D_total_miss 2322693
Core_0_L1D_loads 10498897
Core_0_L1D_load_hit 8188856
Core_0_L1D_load_miss 2310041
Core_0_L1D_RFOs 1329013
Core_0_L1D_RFO_hit 1316361
Core_0_L1D_RFO_miss 12652
Core_0_L1D_prefetches 0
Core_0_L1D_prefetch_hit 0
Core_0_L1D_prefetch_miss 0
Core_0_L1D_writebacks 0
Core_0_L1D_writeback_hit 0
Core_0_L1D_writeback_miss 0
Core_0_L1D_prefetch_requested 0
Core_0_L1D_prefetch_dropped 0
Core_0_L1D_prefetch_issued 0
Core_0_L1D_prefetch_filled 0
Core_0_L1D_prefetch_useful 0
Core_0_L1D_prefetch_useless 0
Core_0_L1D_prefetch_late 0
Core_0_L1D_average_miss_latency 29.21345

Core_0_L1D_rq_access 13745383
Core_0_L1D_rq_forward 0
Core_0_L1D_rq_merged 3072085
Core_0_L1D_rq_to_cache 10673298
Core_0_L1D_rq_full 0

Core_0_L1D_wq_access 1372974
Core_0_L1D_wq_forward 0
Core_0_L1D_wq_merged 400
Core_0_L1D_wq_to_cache 1372574
Core_0_L1D_wq_full 206043

Core_0_L1D_pq_access 0
Core_0_L1D_pq_forward 0
Core_0_L1D_pq_merged 0
Core_0_L1D_pq_to_cache 0
Core_0_L1D_pq_full 0

Core_0_L1D_acc_epochs 191597
Core_0_L1D_acc_level_0 191597
Core_0_L1D_acc_level_1 0
Core_0_L1D_acc_level_2 0
Core_0_L1D_acc_level_3 0
Core_0_L1D_acc_level_4 0
Core_0_L1D_acc_level_5 0
Core_0_L1D_acc_level_6 0
Core_0_L1D_acc_level_7 0
Core_0_L1D_acc_level_8 0
Core_0_L1D_acc_level_9 0

Core_0_L1I_total_access 9726506
Core_0_L1I_total_hit 9726468
Core_0_L1I_total_miss 38
Core_0_L1I_loads 9726506
Core_0_L1I_load_hit 9726468
Core_0_L1I_load_miss 38
Core_0_L1I_RFOs 0
Core_0_L1I_RFO_hit 0
Core_0_L1I_RFO_miss 0
Core_0_L1I_prefetches 0
Core_0_L1I_prefetch_hit 0
Core_0_L1I_prefetch_miss 0
Core_0_L1I_writebacks 0
Core_0_L1I_writeback_hit 0
Core_0_L1I_writeback_miss 0
Core_0_L1I_prefetch_requested 0
Core_0_L1I_prefetch_dropped 0
Core_0_L1I_prefetch_issued 0
Core_0_L1I_prefetch_filled 0
Core_0_L1I_prefetch_useful 0
Core_0_L1I_prefetch_useless 0
Core_0_L1I_prefetch_late 0
Core_0_L1I_average_miss_latency 244.44737

Core_0_L1I_rq_access 49999989
Core_0_L1I_rq_forward 0
Core_0_L1I_rq_merged 40273472
Core_0_L1I_rq_to_cache 9726517
Core_0_L1I_rq_full 0

Core_0_L1I_wq_access 0
Core_0_L1I_wq_forward 0
Core_0_L1I_wq_merged 0
Core_0_L1I_wq_to_cache 0
Core_0_L1I_wq_full 0

Core_0_L1I_pq_access 0
Core_0_L1I_pq_forward 0
Core_0_L1I_pq_merged 0
Core_0_L1I_pq_to_cache 0
Core_0_L1I_pq_full 0

Core_0_L1I_acc_epochs 191597
Core_0_L1I_acc_level_0 191597
Core_0_L1I_acc_level_1 0
Core_0_L1I_acc_level_2 0
Core_0_L1I_acc_level_3 0
Core_0_L1I_acc_level_4 0
Core_0_L1I_acc_level_5 0
Core_0_L1I_acc_level_6 0
Core_0_L1I_acc_level_7 0
Core_0_L1I_acc_level_8 0
Core_0_L1I_acc_level_9 0

Core_0_L2C_total_access 3302560
Core_0_L2C_total_hit 1930789
Core_0_L2C_total_miss 1371771
Core_0_L2C_loads 2310079
Core_0_L2C_load_hit 1775463
Core_0_L2C_load_miss 534616
Core_0_L2C_RFOs 12652
Core_0_L2C_RFO_hit 2667
Core_0_L2C_RFO_miss 9985
Core_0_L2C_prefetches 827547
Core_0_L2C_prefetch_hit 385
Core_0_L2C_prefetch_miss 827162
Core_0_L2C_writebacks 152282
Core_0_L2C_writeback_hit 152274
Core_0_L2C_writeback_miss 8
Core_0_L2C_prefetch_requested 3106908
Core_0_L2C_prefetch_dropped 0
Core_0_L2C_prefetch_issued 3106908
Core_0_L2C_prefetch_filled 951763
Core_0_L2C_prefetch_useful 725323
Core_0_L2C_prefetch_useless 225720
Core_0_L2C_prefetch_late 8018
Core_0_L2C_average_miss_latency 56.07979

Core_0_L2C_rq_access 2322731
Core_0_L2C_rq_forward 0
Core_0_L2C_rq_merged 0
Core_0_L2C_rq_to_cache 2322731
Core_0_L2C_rq_full 0

Core_0_L2C_wq_access 152282
Core_0_L2C_wq_forward 0
Core_0_L2C_wq_merged 0
Core_0_L2C_wq_to_cache 152282
Core_0_L2C_wq_full 0

Core_0_L2C_pq_access 3106908
Core_0_L2C_pq_forward 0
Core_0_L2C_pq_merged 1441
Core_0_L2C_pq_to_cache 3105467
Core_0_L2C_pq_full 0

Core_0_L2C_acc_epochs 191597
Core_0_L2C_acc_level_0 24632
Core_0_L2C_acc_level_1 311
Core_0_L2C_acc_level_2 349
Core_0_L2C_acc_level_3 812
Core_0_L2C_acc_level_4 4764
Core_0_L2C_acc_level_5 20513
Core_0_L2C_acc_level_6 42187
Core_0_L2C_acc_level_7 42772
Core_0_L2C_acc_level_8 27530
Core_0_L2C_acc_level_9 27727

Core_0_LLC_total_access 3651567
Core_0_LLC_total_hit 1407088
Core_0_LLC_total_miss 2244479
Core_0_LLC_loads 526611
Core_0_LLC_load_hit 423579
Core_0_LLC_load_miss 103032
Core_0_LLC_RFOs 9971
Core_0_LLC_RFO_hit 3286
Core_0_LLC_RFO_miss 6685
Core_0_LLC_prefetches 2961630
Core_0_LLC_prefetch_hit 833881
Core_0_LLC_prefetch_miss 2127749
Core_0_LLC_writebacks 153355
Core_0_LLC_writeback_hit 146342
Core_0_LLC_writeback_miss 7013
Core_0_LLC_prefetch_requested 0
Core_0_LLC_prefetch_dropped 0
Core_0_LLC_prefetch_issued 0
Core_0_LLC_prefetch_filled 2252350
Core_0_LLC_prefetch_useful 253783
Core_0_LLC_prefetch_useless 1972394
Core_0_LLC_prefetch_late 1286
Core_0_LLC_average_miss_latency 161.77515

Core_0_LLC_rq_access 536583
Core_0_LLC_rq_forward 0
Core_0_LLC_rq_merged 0
Core_0_LLC_rq_to_cache 536582
Core_0_LLC_rq_full 0

Core_0_LLC_wq_access 153355
Core_0_LLC_wq_forward 3
Core_0_LLC_wq_merged 0
Core_0_LLC_wq_to_cache 153355
Core_0_LLC_wq_full 0

Core_0_LLC_pq_access 3090194
Core_0_LLC_pq_forward 0
Core_0_LLC_pq_merged 215
Core_0_LLC_pq_to_cache 3089977
Core_0_LLC_pq_full 0

Core_0_LLC_acc_epochs 196860
Core_0_LLC_acc_level_0 96295
Core_0_LLC_acc_level_1 49357
Core_0_LLC_acc_level_2 19232
Core_0_LLC_acc_level_3 10671
Core_0_LLC_acc_level_4 5613
Core_0_LLC_acc_level_5 6024
Core_0_LLC_acc_level_6 2747
Core_0_LLC_acc_level_7 1649
Core_0_LLC_acc_level_8 1172
Core_0_LLC_acc_level_9 4100

Core_0_major_page_fault 0
Core_0_minor_page_fault 27001

[MLOP] History of tracked zone:
IIIIIIIIIIIIIIIIIIIIIIIIIIIIIIIIIIIIIIIIIIIIIIIIIIIIIIIIIIIIIIII
A2222222222222222IIIIIIIIIIIIIIIIIIIIIIIIIIIIIIIIIIIIIIIIIIIIIII
AA2222222222222222IIIIIIIIIIIIIIIIIIIIIIIIIIIIIIIIIIIIIIIIIIIIII
AAA2222222222222222IIIIIIIIIIIIIIIIIIIIIIIIIIIIIIIIIIIIIIIIIIIII
AAAA2222222222222222IIIIIIIIIIIIIIIIIIIIIIIIIIIIIIIIIIIIIIIIIIII
AAAAA2222222222222222IIIIIIIIIIIIIIIIIIIIIIIIIIIIIIIIIIIIIIIIIII
AAAAAA2222222222222222IIIIIIIIIIIIIIIIIIIIIIIIIIIIIIIIIIIIIIIIII
AAAAAAA2222222222222222IIIIIIIIIIIIIIIIIIIIIIIIIIIIIIIIIIIIIIIII
AAAAAAAA2222222222222222IIIIIIIIIIIIIIIIIIIIIIIIIIIIIIIIIIIIIIII
AAAAAAAAA2222222222222222IIIIIIIIIIIIIIIIIIIIIIIIIIIIIIIIIIIIIII
AAAAAAAAAA2222222222222222IIIIIIIIIIIIIIIIIIIIIIIIIIIIIIIIIIIIII
AAAAAAAAAAA2222222222222222IIIIIIIIIIIIIIIIIIIIIIIIIIIIIIIIIIIII
AAAAAAAAAAAA2222222222222222IIIIIIIIIIIIIIIIIIIIIIIIIIIIIIIIIIII
AAAAAAAAAAAAA2222222222222222IIIIIIIIIIIIIIIIIIIIIIIIIIIIIIIIIII
AAAAAAAAAAAAAA2222222222222222IIIIIIIIIIIIIIIIIIIIIIIIIIIIIIIIII
AAAAAAAAAAAAAAA2222222222222222IIIIIIIIIIIIIIIIIIIIIIIIIIIIIIIII
AAAAAAAAAAAAAAAA2222222222222222IIIIIIIIIIIIIIIIIIIIIIIIIIIIIIII
AAAAAAAAAAAAAAAAA2222222222222222IIIIIIIIIIIIIIIIIIIIIIIIIIIIIII
AAAAAAAAAAAAAAAAAA2222222222222222IIIIIIIIIIIIIIIIIIIIIIIIIIIIII
AAAAAAAAAAAAAAAAAAA2222222222222222IIIIIIIIIIIIIIIIIIIIIIIIIIIII
AAAAAAAAAAAAAAAAAAAA2222222222222222IIIIIIIIIIIIIIIIIIIIIIIIIIII
AAAAAAAAAAAAAAAAAAAAA2222222222222222IIIIIIIIIIIIIIIIIIIIIIIIIII
AAAAAAAAAAAAAAAAAAAAAA2222222222222222IIIIIIIIIIIIIIIIIIIIIIIIII
AAAAAAAAAAAAAAAAAAAAAAA2222222222222222IIIIIIIIIIIIIIIIIIIIIIIII
AAAAAAAAAAAAAAAAAAAAAAAA2222222222222222IIIIIIIIIIIIIIIIIIIIIIII
AAAAAAAAAAAAAAAAAAAAAAAAA2222222222222222IIIIIIIIIIIIIIIIIIIIIII
AAAAAAAAAAAAAAAAAAAAAAAAAA2222222222222222IIIIIIIIIIIIIIIIIIIIII
AAAAAAAAAAAAAAAAAAAAAAAAAAA2222222222222222IIIIIIIIIIIIIIIIIIIII
AAAAAAAAAAAAAAAAAAAAAAAAAAAA2222222222222222IIIIIIIIIIIIIIIIIIII
AAAAAAAAAAAAAAAAAAAAAAAAAAAAA2222222222222222IIIIIIIIIIIIIIIIIII
AAAAAAAAAAAAAAAAAAAAAAAAAAAAAA2222222222222222IIIIIIIIIIIIIIIIII
AAAAAAAAAAAAAAAAAAAAAAAAAAAAAAA2222222222222222IIIIIIIIIIIIIIIII
AAAAAAAAAAAAAAAAAAAAAAAAAAAAAAAA2222222222222222IIIIIIIIIIIIIIII
AAAAAAAAAAAAAAAAAAAAAAAAAAAAAAAAA2222222222222222IIIIIIIIIIIIIII
AAAAAAAAAAAAAAAAAAAAAAAAAAAAAAAAAA2222222222222222IIIIIIIIIIIIII
AAAAAAAAAAAAAAAAAAAAAAAAAAAAAAAAAAA2222222222222222IIIIIIIIIIIII
AAAAAAAAAAAAAAAAAAAAAAAAAAAAAAAAAAAA2222222222222222IIIIIIIIIIII
AAAAAAAAAAAAAAAAAAAAAAAAAAAAAAAAAAAAA2222222222222222IIIIIIIIIII
AAAAAAAAAAAAAAAAAAAAAAAAAAAAAAAAAAAAAA2222222222222222IIIIIIIIII
AAAAAAAAAAAAAAAAAAAAAAAAAAAAAAAAAAAAAAA2222222222222222IIIIIIIII
AAAAAAAAAAAAAAAAAAAAAAAAAAAAAAAAAAAAAAAA2222222222222222IIIIIIII
AAAAAAAAAAAAAAAAAAAAAAAAAAAAAAAAAAAAAAAAA2222222222222222IIIIIII
AAAAAAAAAAAAAAAAAAAAAAAAAAAAAAAAAAAAAAAAAA2222222222222222IIIIII
AAAAAAAAAAAAAAAAAAAAAAAAAAAAAAAAAAAAAAAAAAA2222222222222222IIIII
AAAAAAAAAAAAAAAAAAAAAAAAAAAAAAAAAAAAAAAAAAAA2222222222222222IIII
AAAAAAAAAAAAAAAAAAAAAAAAAAAAAAAAAAAAAAAAAAAAA2222222222222222III
AAAAAAAAAAAAAAAAAAAAAAAAAAAAAAAAAAAAAAAAAAAAAA2222222222222222II
AAAAAAAAAAAAAAAAAAAAAAAAAAAAAAAAAAAAAAAAAAAAAAA2222222222222222I
AAAAAAAAAAAAAAAAAAAAAAAAAAAAAAAAAAAAAAAAAAAAAAAA2222222222222222
AAAAAAAAAAAAAAAAAAAAAAAAAAAAAAAAAAAAAAAAAAAAAAAAA222222222222222
AAAAAAAAAAAAAAAAAAAAAAAAAAAAAAAAAAAAAAAAAAAAAAAAAA22222222222222
AAAAAAAAAAAAAAAAAAAAAAAAAAAAAAAAAAAAAAAAAAAAAAAAAAA2222222222222
AAAAAAAAAAAAAAAAAAAAAAAAAAAAAAAAAAAAAAAAAAAAAAAAAAAA222222222222
AAAAAAAAAAAAAAAAAAAAAAAAAAAAAAAAAAAAAAAAAAAAAAAAAAAAA22222222222
AAAAAAAAAAAAAAAAAAAAAAAAAAAAAAAAAAAAAAAAAAAAAAAAAAAAAA2222222222
AAAAAAAAAAAAAAAAAAAAAAAAAAAAAAAAAAAAAAAAAAAAAAAAAAAAAAA222222222
AAAAAAAAAAAAAAAAAAAAAAAAAAAAAAAAAAAAAAAAAAAAAAAAAAAAAAAA22222222
AAAAAAAAAAAAAAAAAAAAAAAAAAAAAAAAAAAAAAAAAAAAAAAAAAAAAAAAA2222222
AAAAAAAAAAAAAAAAAAAAAAAAAAAAAAAAAAAAAAAAAAAAAAAAAAAAAAAAAA222222
AAAAAAAAAAAAAAAAAAAAAAAAAAAAAAAAAAAAAAAAAAAAAAAAAAAAAAAAAAA22222
AAAAAAAAAAAAAAAAAAAAAAAAAAAAAAAAAAAAAAAAAAAAAAAAAAAAAAAAAAAA2222
AAAAAAAAAAAAAAAAAAAAAAAAAAAAAAAAAAAAAAAAAAAAAAAAAAAAAAAAAAAAA222
AAAAAAAAAAAAAAAAAAAAAAAAAAAAAAAAAAAAAAAAAAAAAAAAAAAAAAAAAAAAAA22
AAAAAAAAAAAAAAAAAAAAAAAAAAAAAAAAAAAAAAAAAAAAAAAAAAAAAAAAAAAAAAA2
AAAAAAAAAAAAAAAAAAAAAAAAAAAAAAAAAAAAAAAAAAAAAAAAAAAAAAAAAAAAAAAA
A2I4I44III44444I4I4IIIIIIIIIIIIIIIIIIIIIIIIIIIIIIIIIIIIIIIIIIIII
AA244444II4444444444IIIIIIIIIIIIIIIIIIIIIIIIIIIIIIIIIIIIIIIIIIII
AAA244444I44444444444IIIIIIIIIIIIIIIIIIIIIIIIIIIIIIIIIIIIIIIIIII
AAAA244444444444444444IIIIIIIIIIIIIIIIIIIIIIIIIIIIIIIIIIIIIIIIII
AAAAA244444444444444444IIIIIIIIIIIIIIIIIIIIIIIIIIIIIIIIIIIIIIIII
AAAAAA244444444444444444IIIIIIIIIIIIIIIIIIIIIIIIIIIIIIIIIIIIIIII
AAAAAAA244444444444444444IIIIIIIIIIIIIIIIIIIIIIIIIIIIIIIIIIIIIII
AAAAAAAA244444444444444444IIIIIIIIIIIIIIIIIIIIIIIIIIIIIIIIIIIIII
AAAAAAAAA244444444444444444IIIIIIIIIIIIIIIIIIIIIIIIIIIIIIIIIIIII
AAAAAAAAAA244444444444444444IIIIIIIIIIIIIIIIIIIIIIIIIIIIIIIIIIII
AAAAAAAAAAA244444444444444444IIIIIIIIIIIIIIIIIIIIIIIIIIIIIIIIIII
AAAAAAAAAAAA244444444444444444IIIIIIIIIIIIIIIIIIIIIIIIIIIIIIIIII
AAAAAAAAAAAAA244444444444444444IIIIIIIIIIIIIIIIIIIIIIIIIIIIIIIII
AAAAAAAAAAAAAA244444444444444444IIIIIIIIIIIIIIIIIIIIIIIIIIIIIIII
AAAAAAAAAAAAAAA244444444444444444IIIIIIIIIIIIIIIIIIIIIIIIIIIIIII
AAAAAAAAAAAAAAAA244444444444444444IIIIIIIIIIIIIIIIIIIIIIIIIIIIII
AAAAAAAAAAAAAAAAA244444444444444444IIIIIIIIIIIIIIIIIIIIIIIIIIIII
AAAAAAAAAAAAAAAAAA244444444444444444IIIIIIIIIIIIIIIIIIIIIIIIIIII
AAAAAAAAAAAAAAAAAAA244444444444444444IIIIIIIIIIIIIIIIIIIIIIIIIII
AAAAAAAAAAAAAAAAAAAA244444444444444444IIIIIIIIIIIIIIIIIIIIIIIIII
AAAAAAAAAAAAAAAAAAAAA244444444444444444IIIIIIIIIIIIIIIIIIIIIIIII
AAAAAAAAAAAAAAAAAAAAAA244444444444444444IIIIIIIIIIIIIIIIIIIIIIII
AAAAAAAAAAAAAAAAAAAAAAA244444444444444444IIIIIIIIIIIIIIIIIIIIIII
AAAAAAAAAAAAAAAAAAAAAAAA244444444444444444IIIIIIIIIIIIIIIIIIIIII
AAAAAAAAAAAAAAAAAAAAAAAAA244444444444444444IIIIIIIIIIIIIIIIIIIII
AAAAAAAAAAAAAAAAAAAAAAAAAA244444444444444444IIIIIIIIIIIIIIIIIIII
AAAAAAAAAAAAAAAAAAAAAAAAAAA244444444444444444IIIIIIIIIIIIIIIIIII
AAAAAAAAAAAAAAAAAAAAAAAAAAAA244444444444444444IIIIIIIIIIIIIIIIII
AAAAAAAAAAAAAAAAAAAAAAAAAAAAA244444444444444444IIIIIIIIIIIIIIIII
AAAAAAAAAAAAAAAAAAAAAAAAAAAAAA244444444444444444IIIIIIIIIIIIIIII
AAAAAAAAAAAAAAAAAAAAAAAAAAAAAAA244444444444444444IIIIIIIIIIIIIII
AAAAAAAAAAAAAAAAAAAAAAAAAAAAAAAA244444444444444444IIIIIIIIIIIIII
AAAAAAAAAAAAAAAAAAAAAAAAAAAAAAAAA244444444444444444IIIIIIIIIIIII
AAAAAAAAAAAAAAAAAAAAAAAAAAAAAAAAAA244444444444444444IIIIIIIIIIII
AAAAAAAAAAAAAAAAAAAAAAAAAAAAAAAAAAA244444444444444444IIIIIIIIIII
AAAAAAAAAAAAAAAAAAAAAAAAAAAAAAAAAAAA244444444444444444IIIIIIIIII
AAAAAAAAAAAAAAAAAAAAAAAAAAAAAAAAAAAAA244444444444444444IIIIIIIII
AAAAAAAAAAAAAAAAAAAAAAAAAAAAAAAAAAAAAA244444444444444444IIIIIIII
AAAAAAAAAAAAAAAAAAAAAAAAAAAAAAAAAAAAAAA244444444444444444IIIIIII
AAAAAAAAAAAAAAAAAAAAAAAAAAAAAAAAAAAAAAAA244444444444444444IIIIII
AAAAAAAAAAAAAAAAAAAAAAAAAAAAAAAAAAAAAAAAA244444444444444444IIIII
AAAAAAAAAAAAAAAAAAAAAAAAAAAAAAAAAAAAAAAAAA244444444444444444IIII
AAAAAAAAAAAAAAAAAAAAAAAAAAAAAAAAAAAAAAAAAAA244444444444444444III
AAAAAAAAAAAAAAAAAAAAAAAAAAAAAAAAAAAAAAAAAAAA244444444444444444II
AAAAAAAAAAAAAAAAAAAAAAAAAAAAAAAAAAAAAAAAAAAAA244444444444444444I
AAAAAAAAAAAAAAAAAAAAAAAAAAAAAAAAAAAAAAAAAAAAAA244444444444444444
AAAAAAAAAAAAAAAAAAAAAAAAAAAAAAAAAAAAAAAAAAAAAAA24444444444444444
AAAAAAAAAAAAAAAAAAAAAAAAAAAAAAAAAAAAAAAAAAAAAAAA2444444444444444
AAAAAAAAAAAAAAAAAAAAAAAAAAAAAAAAAAAAAAAAAAAAAAAAA244444444444444
AAAAAAAAAAAAAAAAAAAAAAAAAAAAAAAAAAAAAAAAAAAAAAAAAA24444444444444
AAAAAAAAAAAAAAAAAAAAAAAAAAAAAAAAAAAAAAAAAAAAAAAAAAA2444444444444
AAAAAAAAAAAAAAAAAAAAAAAAAAAAAAAAAAAAAAAAAAAAAAAAAAAA244444444444
AAAAAAAAAAAAAAAAAAAAAAAAAAAAAAAAAAAAAAAAAAAAAAAAAAAAA24444444444
AAAAAAAAAAAAAAAAAAAAAAAAAAAAAAAAAAAAAAAAAAAAAAAAAAAAAA2444444444
AAAAAAAAAAAAAAAAAAAAAAAAAAAAAAAAAAAAAAAAAAAAAAAAAAAAAAA244444444
AAAAAAAAAAAAAAAAAAAAAAAAAAAAAAAAAAAAAAAAAAAAAAAAAAAAAAAA24444444
AAAAAAAAAAAAAAAAAAAAAAAAAAAAAAAAAAAAAAAAAAAAAAAAAAAAAAAAA2444444
AAAAAAAAAAAAAAAAAAAAAAAAAAAAAAAAAAAAAAAAAAAAAAAAAAAAAAAAAA244444
AAAAAAAAAAAAAAAAAAAAAAAAAAAAAAAAAAAAAAAAAAAAAAAAAAAAAAAAAAA24444
AAAAAAAAAAAAAAAAAAAAAAAAAAAAAAAAAAAAAAAAAAAAAAAAAAAAAAAAAAAA2444
AAAAAAAAAAAAAAAAAAAAAAAAAAAAAAAAAAAAAAAAAAAAAAAAAAAAAAAAAAAAA244
AAAAAAAAAAAAAAAAAAAAAAAAAAAAAAAAAAAAAAAAAAAAAAAAAAAAAAAAAAAAAA24
AAAAAAAAAAAAAAAAAAAAAAAAAAAAAAAAAAAAAAAAAAAAAAAAAAAAAAAAAAAAAAA2
AAAAAAAAAAAAAAAAAAAAAAAAAAAAAAAAAAAAAAAAAAAAAAAAAAAAAAAAAAAAAAAA
AAAAAAAAAAAAAAAAAIAAAAAAAAAAAAAAAAAAAAAAAAAAAAAAAAAAAAAAAAAAAAAA
AAAAAAAAAAAAAAAAAIIAAAAAAAAAAAAAAAAAAAAAAAAAAAAAAAAAAAAAAAAAAAAA
AAAIAAAAAAAAAAAAAIIAAAAAAAAAAAAAAAAAAAAAAAAAAAAAAAAAAAAAAAAAAAAA
AAAIAAAAAAAAAAAAAIIAAAAAAAAAAAIAAAAAAAAAAAAAAAAAAAAAAAAAAAAAAAAA
AAAIAAAAAAAAAAAIAIIAAAAAAAAAAAIAAAAAAAAAAAAAAAAAAAAAAAAAAAAAAAAA
AAIIAAAAAAAAAAAIAIIAAAAAAAAAAAIAAAAAAAAAAAAAAAAAAAAAAAAAAAAAAAAA
AAIIAIAAAAAAAAAIAIIAAAAAAAAAAAIAAAAAAAAAAAAAAAAAAAAAAAAAAAAAAAAA
AAIIAIIAAAAAAAAIAIIAAAAAAAAAAAIAAAAAAAAAAAAAAAAAAAAAAAAAAAAAAAAA
AAIIAIIIAAAAAAAIAIIAAAAAAAAAAAIAAAAAAAAAAAAAAAAAAAAAAAAAAAAAAAAA
AAIIAIIIAIAAAAAIAIIAAAAAAAAAAAIAAAAAAAAAAAAAAAAAAAAAAAAAAAAAAAAA
AAIIAIIIAIAIAAAIAIIAAAAAAAAAAAIAAAAAAAAAAAAAAAAAAAAAAAAAAAAAAAAA
AAIIAIIIAIAIAAIIAIIAAAAAAAAAAAIAAAAAAAAAAAAAAAAAAAAAAAAAAAAAAAAA
AAIIAIIIAIAIAAIIAIIAAAAAAAAAAAIAAIAAAAAAAAAAAAAAAAAAAAAAAAAAAAAA
AAIIAIIIAIAIAAIIAIIAAAAAAAAAAAIAAIAAAAAAAIAAAAAAAAAAAAAAAAAAAAAA
AAIIAIIIAIAIAAIIAIIAAAAAAAAAAAIAAIAAAAAAAIAAAAAAAAAAIAAAAAAAAAAA
AAIIAIIIAIAIAAIIAIIAAAAAAAAAAAIAAIAAAAAAAIAAAAAAAAAAIAAAAAAIAAAA
AAIIAIIIAIAIAAIIAIIAAAAAAAAAAAIAAIAAAAAAAIAAAAAAAAAAIAAAAAAIIAAA
AAIIAIIIAIAIAAIIAIIAAAAAAAAAAAIIAIAAAAAAAIAAAAAAAAAAIAAAAAAIIAAA
AAIIAIIIAIAIAAIIAIIAAIAAAAAAAAIIAIAAAAAAAIAAAAAAAAAAIAAAAAAIIAAA
AAIIAIIIAIAIAAIIAIIAAIAAAAAIAAIIAIAAAAAAAIAAAAAAAAAAIAAAAAAIIAAA
AAIIAIIIAIAIAAIIAIIAAIAAAAAIIAIIAIAAAAAAAIAAAAAAAAAAIAAAAAAIIAAA
AAIIAIIIAIAIAAIIAIIAAIAAAAAIIAIIAIIAAAAAAIAAAAAAAAAAIAAAAAAIIAAA
AAIIAIIIAIAIAAIIAIIAAIAAAAAIIAIIAIIAAAAAIIAAAAAAAAAAIAAAAAAIIAAA
AIIIAIIIAIAIAAIIAIIAAIAAAAAIIAIIAIIAAAAAIIAAAAAAAAAAIAAAAAAIIAAA
AIIIAIIIAIAIAAIIAIIAAIAAAAAIIAIIAIIAAAIAIIAAAAAAAAAAIAAAAAAIIAAA
AIIIAIIIAIAIAAIIAIIAAIAAAAAIIAIIAIIAAAIAIIAAIAAAAAAAIAAAAAAIIAAA
AIIIAIIIAIAIAAIIAIIAAIAAAAAIIAIIAIIAAAIIIIAAIAAAAAAAIAAAAAAIIAAA
AIIIAIIIAIAIAAIIAIIAAIAAAAAIIAIIAIIAAAIIIIAAIAAAAAIAIAAAAAAIIAAA
AIIIAIIIAIAIAAIIAIIAAIAAAAAIIAIIAIIAAAIIIIAAIAAAAAIAIAIAAAAIIAAA
AIIIAIIIAIAIAAIIAIIAAIAAAAAIIAIIAIIAAAIIIIAAIAAAAAIAIAIIAAAIIAAA
AIIIAIIIAIAIAAIIAIIAAIAAAAAIIAIIAIIAAAIIIIAIIAAAAAIAIAIIAAAIIAAA
AIIIAIIIAIAIAAIIAIIAAIAAAAAIIAIIAIIAAAIIIIAIIAIAAAIAIAIIAAAIIAAA
AIIIAIIIAIAIAAIIAIIAAIIAAAAIIAIIAIIAAAIIIIAIIAIAAAIAIAIIAAAIIAAA
AIIIAIIIAIAIAAIIAIIAAIIAAAIIIAIIAIIAAAIIIIAIIAIAAAIAIAIIAAAIIAAA
AIIIAIIIAIAIAAIIAIIAAIIAAAIIIAIIAIIIAAIIIIAIIAIAAAIAIAIIAAAIIAAA
AIIIAIIIAIAIAAIIAIIAAIIAAAIIIAIIAIIIAAIIIIAIIAIAAAIAIIIIAAAIIAAA
AIIIAIIIAIAIAAIIAIIAAIIAAAIIIAIIAIIIAAIIIIAIIAIAAAIAIIIIAAIIIAAA
AIIIAIIIAIAIAAIIAIIAAIIAAIIIIAIIAIIIAAIIIIAIIAIAAAIAIIIIAAIIIAAA
AIIIAIIIAIAIAAIIAIIAAIIAAIIIIAIIAIIIAAIIIIAIIAIAAAIAIIIIAAIIIIAA
AIIIAIIIIIAIAAIIAIIAAIIAAIIIIAIIAIIIAAIIIIAIIAIAAAIAIIIIAAIIIIAA
AIIIAIIIIIAIAAIIAIIAAIIAAIIIIAIIAIIIAAIIIIAIIAIAIAIAIIIIAAIIIIAA
AIIIAIIIIIAIAAIIAIIAAIIAAIIIIAIIAIIIAAIIIIAIIAIAIIIAIIIIAAIIIIAA
A24I4II4444I4444I4IIIIIIIIIIIIIIIIIIIIIIIIIIIIIIIIIIIIIIIIIIIIII
AA2444I444444444444IIIIIIIIIIIIIIIIIIIIIIIIIIIIIIIIIIIIIIIIIIIII
AAA24444444444444444IIIIIIIIIIIIIIIIIIIIIIIIIIIIIIIIIIIIIIIIIIII
AAAA24444444444444444IIIIIIIIIIIIIIIIIIIIIIIIIIIIIIIIIIIIIIIIIII
AAAAA24444444444444444IIIIIIIIIIIIIIIIIIIIIIIIIIIIIIIIIIIIIIIIII
AAAAAA24444444444444444IIIIIIIIIIIIIIIIIIIIIIIIIIIIIIIIIIIIIIIII
AAAAAAA24444444444444444IIIIIIIIIIIIIIIIIIIIIIIIIIIIIIIIIIIIIIII
AAAAAAAA24444444444444444IIIIIIIIIIIIIIIIIIIIIIIIIIIIIIIIIIIIIII
AAAAAAAAA24444444444444444IIIIIIIIIIIIIIIIIIIIIIIIIIIIIIIIIIIIII
AAAAAAAAAA24444444444444444IIIIIIIIIIIIIIIIIIIIIIIIIIIIIIIIIIIII
AAAAAAAAAAA24444444444444444IIIIIIIIIIIIIIIIIIIIIIIIIIIIIIIIIIII
AAAAAAAAAAAA24444444444444444IIIIIIIIIIIIIIIIIIIIIIIIIIIIIIIIIII
AAAAAAAAAAAAA24444444444444444IIIIIIIIIIIIIIIIIIIIIIIIIIIIIIIIII
AAAAAAAAAAAAAA24444444444444444IIIIIIIIIIIIIIIIIIIIIIIIIIIIIIIII
AAAAAAAAAAAAAAA24444444444444444IIIIIIIIIIIIIIIIIIIIIIIIIIIIIIII
AAAAAAAAAAAAAAAA24444444444444444IIIIIIIIIIIIIIIIIIIIIIIIIIIIIII
AAAAAAAAAAAAAAAAA24444444444444444IIIIIIIIIIIIIIIIIIIIIIIIIIIIII
AAAAAAAAAAAAAAAAAA24444444444444444IIIIIIIIIIIIIIIIIIIIIIIIIIIII
AAAAAAAAAAAAAAAAAAA24444444444444444IIIIIIIIIIIIIIIIIIIIIIIIIIII
AAAAAAAAAAAAAAAAAAAA24444444444444444IIIIIIIIIIIIIIIIIIIIIIIIIII
AAAAAAAAAAAAAAAAAAAAA24444444444444444IIIIIIIIIIIIIIIIIIIIIIIIII
AAAAAAAAAAAAAAAAAAAAAA24444444444444444IIIIIIIIIIIIIIIIIIIIIIIII
AAAAAAAAAAAAAAAAAAAAAAA24444444444444444IIIIIIIIIIIIIIIIIIIIIIII
AAAAAAAAAAAAAAAAAAAAAAAA24444444444444444IIIIIIIIIIIIIIIIIIIIIII
AAAAAAAAAAAAAAAAAAAAAAAAA24444444444444444IIIIIIIIIIIIIIIIIIIIII
AAAAAAAAAAAAAAAAAAAAAAAAAA24444444444444444IIIIIIIIIIIIIIIIIIIII
AAAAAAAAAAAAAAAAAAAAAAAAAAA24444444444444444IIIIIIIIIIIIIIIIIIII
AAAAAAAAAAAAAAAAAAAAAAAAAAAA24444444444444444IIIIIIIIIIIIIIIIIII
AAAAAAAAAAAAAAAAAAAAAAAAAAAAA24444444444444444IIIIIIIIIIIIIIIIII
AAAAAAAAAAAAAAAAAAAAAAAAAAAAAA24444444444444444IIIIIIIIIIIIIIIII
AAAAAAAAAAAAAAAAAAAAAAAAAAAAAAA24444444444444444IIIIIIIIIIIIIIII
AAAAAAAAAAAAAAAAAAAAAAAAAAAAAAAA24444444444444444IIIIIIIIIIIIIII
AAAAAAAAAAAAAAAAAAAAAAAAAAAAAAAAA24444444444444444IIIIIIIIIIIIII
AAAAAAAAAAAAAAAAAAAAAAAAAAAAAAAAAA24444444444444444IIIIIIIIIIIII
AAAAAAAAAAAAAAAAAAAAAAAAAAAAAAAAAAA24444444444444444IIIIIIIIIIII
AAAAAAAAAAAAAAAAAAAAAAAAAAAAAAAAAAAA2444444444444444IIIIIIIIIIII
AAAAAAAAAAAAAAAAAAAAAAAAAAAAAAAAAAAAA2444444444444444IIIIIIIIIII
AAAAAAAAAAAAAAAAAAAAAAAAAAAAAAAAAAAAAA2444444444444444IIIIIIIIII
AAAAAAAAAAAAAAAAAAAAAAAAAAAAAAAAAAAAAAA2444444444444444IIIIIIIII
AAAAAAAAAAAAAAAAAAAAAAAAAAAAAAAAAAAAAAAA2444444444444444IIIIIIII
AAAAAAAAAAAAAAAAAAAAAAAAAAAAAAAAAAAAAAAAA2444444444444444IIIIIII
AAAAAAAAAAAAAAAAAAAAAAAAAAAAAAAAAAAAAAAAAA2444444444444444IIIIII
AAAAAAAAAAAAAAAAAAAAAAAAAAAAAAAAAAAAAAAAAAA2444444444444444IIIII
AAAAAAAAAAAAAAAAAAAAAAAAAAAAAAAAAAAAAAAAAAAA2444444444444444IIII
AAAAAAAAAAAAAAAAAAAAAAAAAAAAAAAAAAAAAAAAAAAAA2444444444444444III
AAAAAAAAAAAAAAAAAAAAAAAAAAAAAAAAAAAAAAAAAAAAAA2444444444444444II
AAAAAAAAAAAAAAAAAAAAAAAAAAAAAAAAAAAAAAAAAAAAAAA2444444444444444I
AAAAAAAAAAAAAAAAAAAAAAAAAAAAAAAAAAAAAAAAAAAAAAAA2444444444444444
AAAAAAAAAAAAAAAAAAAAAAAAAAAAAAAAAAAAAAAAAAAAAAAAA244444444444444
AAAAAAAAAAAAAAAAAAAAAAAAAAAAAAAAAAAAAAAAAAAAAAAAAA24444444444444
AAAAAAAAAAAAAAAAAAAAAAAAAAAAAAAAAAAAAAAAAAAAAAAAAAA2444444444444
AAAAAAAAAAAAAAAAAAAAAAAAAAAAAAAAAAAAAAAAAAAAAAAAAAAA244444444444
AAAAAAAAAAAAAAAAAAAAAAAAAAAAAAAAAAAAAAAAAAAAAAAAAAAAA24444444444
AAAAAAAAAAAAAAAAAAAAAAAAAAAAAAAAAAAAAAAAAAAAAAAAAAAAAA2444444444
AAAAAAAAAAAAAAAAAAAAAAAAAAAAAAAAAAAAAAAAAAAAAAAAAAAAAAA244444444
AAAAAAAAAAAAAAAAAAAAAAAAAAAAAAAAAAAAAAAAAAAAAAAAAAAAAAAA24444444
AAAAAAAAAAAAAAAAAAAAAAAAAAAAAAAAAAAAAAAAAAAAAAAAAAAAAAAAA2444444
AAAAAAAAAAAAAAAAAAAAAAAAAAAAAAAAAAAAAAAAAAAAAAAAAAAAAAAAAA244444
AAAAAAAAAAAAAAAAAAAAAAAAAAAAAAAAAAAAAAAAAAAAAAAAAAAAAAAAAAA24444
AAAAAAAAAAAAAAAAAAAAAAAAAAAAAAAAAAAAAAAAAAAAAAAAAAAAAAAAAAAA2444
AAAAAAAAAAAAAAAAAAAAAAAAAAAAAAAAAAAAAAAAAAAAAAAAAAAAAAAAAAAAA244
AAAAAAAAAAAAAAAAAAAAAAAAAAAAAAAAAAAAAAAAAAAAAAAAAAAAAAAAAAAAAA24
AAAAAAAAAAAAAAAAAAAAAAAAAAAAAAAAAAAAAAAAAAAAAAAAAAAAAAAAAAAAAAA2
AAAAAAAAAAAAAAAAAAAAAAAAAAAAAAAAAAAAAAAAAAAAAAAAAAAAAAAAAAAAAAAA
AAAAAAAAAAAAAAAIAAAAAAAAAAAAAAAAAAAAAAAAAAAAAAAAAAAAAAAAAAAAAAAA
AAAAAAAAAAAAAAAIAIAAAAAAAAAAAAAAAAAAAAAAAAAAAAAAAAAAAAAAAAAAAAAA
AAAAAAAAAAAAAAAIAIAAAIAAAAAAAAAAAAAAAAAAAAAAAAAAAAAAAAAAAAAAAAAA
AAAAAAAAAAAAAAAIAIAAAIIAAAAAAAAAAAAAAAAAAAAAAAAAAAAAAAAAAAAAAAAA
AAAAAAAAAAAAAAAIAIAAAIIAAAAAAAAAAAAAAAAAAAIAAAAAAAAAAAAAAAAAAAAA
AAAAAAAAAAAAAAAIAIAAAIIAAAAAAAAAAAAAAAAAAAIAAAAAAAAAAAAAIAAAAAAA
AAAIAAAAAAAAAAAIAIAAAIIAAAAAAAAAAAAAAAAAAAIAAAAAAAAAAAAAIAAAAAAA
AAAIAAAAAAAAAAAIAIAAAIIAAAAAAAAAAAAAIAAAAAIAAAAAAAAAAAAAIAAAAAAA
AAAIAAAAAAAAAAAIAIAAAIIAAAAAAAAAAAAAIAIAAAIAAAAAAAAAAAAAIAAAAAAA
AAAIAAAAAAAAAAAIAIAAAIIAAAAAAAAAAAAAIAIIAAIAAAAAAAAAAAAAIAAAAAAA
AAAIAAAAAAAAAAAIAIAAAIIAAAAAAAAAAAAAIAIIIAIAAAAAAAAAAAAAIAAAAAAA
AAAIAAAAAAAAAAAIAIAAAIIAAAAAAAAAAAAAIAIIIAIIAAAAAAAAAAAAIAAAAAAA
AAAIAAAAAAAAAAAIAIAAAIIAAAAAAAAAAAAAIAIIIAIIAAAAAAAAAIAAIAAAAAAA
AAAIAAAAAAAAAAAIAIAAAIIAAAAAAAAAAAAAIAIIIAIIAAAAAAAAAIAIIAAAAAAA
AAAIAAAAAAAAAAAIAIAAAIIAAAAIAAAAAAAAIAIIIAIIAAAAAAAAAIAIIAAAAAAA
AAAIAAAAAAAAAIAIAIAAAIIAAAAIAAAAAAAAIAIIIAIIAAAAAAAAAIAIIAAAAAAA
AAAIAAAAAAAAAIAIAIAAAIIAAAIIAAAAAAAAIAIIIAIIAAAAAAAAAIAIIAAAAAAA
AAAIAAAAAAAAAIAIAIAAAIIAAAIIAAAAAAAAIAIIIIIIAAAAAAAAAIAIIAAAAAAA
AAAIAAAAAAAAAIAIAIAAAIIAAAIIAAAAAAAAIAIIIIIIIAAAAAAAAIAIIAAAAAAA
AAIIAAAAAAAAAIAIAIAAAIIAAAIIAAAAAAAAIAIIIIIIIAAAAAAAAIAIIAAAAAAA
AAIIAAAIAAAAAIAIAIAAAIIAAAIIAAAAAAAAIAIIIIIIIAAAAAAAAIAIIAAAAAAA
AAIIAAAIAAAAAIAIAIAAAIIAAAIIAAAAAAAAIAIIIIIIIAAIAAAAAIAIIAAAAAAA
AAIIAAAIAAAAAIAIAIAAAIIAAAIIAAAAAAAAIAIIIIIIIAAIAAAAAIAIIIAAAAAA
AAIIAAIIAAAAAIAIAIAAAIIAAAIIAAAAAAAAIAIIIIIIIAAIAAAAAIAIIIAAAAAA
AAIIAAIIAAAAAIAIAIAAIIIAAAIIAAAAAAAAIAIIIIIIIAAIAAAAAIAIIIAAAAAA
AAIIAAIIAAAAAIAIAIAAIIIAAAIIAIAAAAAAIAIIIIIIIAAIAAAAAIAIIIAAAAAA
AAIIAAIIAAAIAIAIAIAAIIIAAAIIAIAAAAAAIAIIIIIIIAAIAAAAAIAIIIAAAAAA
AAIIAAIIAAAIIIAIAIAAIIIAAAIIAIAAAAAAIAIIIIIIIAAIAAAAAIAIIIAAAAAA
AAIIAAIIAAAIIIAIAIAAIIIAAIIIAIAAAAAAIAIIIIIIIAAIAAAAAIAIIIAAAAAA
AAIIAAIIAAAIIIAIAIAAIIIAAIIIAIAAIAAAIAIIIIIIIAAIAAAAAIAIIIAAAAAA
AAIIAAIIAAAIIIAIAIAAIIIAAIIIAIAAIIAAIAIIIIIIIAAIAAAAAIAIIIAAAAAA
AIIIAAIIAAAIIIAIAIAAIIIAAIIIAIAAIIAAIAIIIIIIIAAIAAAAAIAIIIAAAAAA
AIIIAAIIAAIIIIAIAIAAIIIAAIIIAIAAIIAAIAIIIIIIIAAIAAAAAIAIIIAAAAAA
AIIIAAIIAAIIIIAIAIAAIIIAAIIIAIIAIIAAIAIIIIIIIAAIAAAAAIAIIIAAAAAA
AIIIAAIIAAIIIIAIAIAAIIIAAIIIAIIAIIAAIAIIIIIIIAAIIAAAAIAIIIAAAAAA
A22I22222222222224IIIIIIIIIIIIIIIIIIIIIIIIIIIIIIIIIIIIIIIIIIIIII
A2A22222222222222224IIIIIIIIIIIIIIIIIIIIIIIIIIIIIIIIIIIIIIIIIIII
A2AA22222222222222224IIIIIIIIIIIIIIIIIIIIIIIIIIIIIIIIIIIIIIIIIII
A2AAA22222222222222224IIIIIIIIIIIIIIIIIIIIIIIIIIIIIIIIIIIIIIIIII
A2AAAA22222222222222224IIIIIIIIIIIIIIIIIIIIIIIIIIIIIIIIIIIIIIIII
A2AAAAA22222222222222224IIIIIIIIIIIIIIIIIIIIIIIIIIIIIIIIIIIIIIII
A2AAAAAA22222222222222224IIIIIIIIIIIIIIIIIIIIIIIIIIIIIIIIIIIIIII
A2AAAAAAA22222222222222224IIIIIIIIIIIIIIIIIIIIIIIIIIIIIIIIIIIIII
A2AAAAAAAA22222222222222224IIIIIIIIIIIIIIIIIIIIIIIIIIIIIIIIIIIII
A2AAAAAAAAA22222222222222224IIIIIIIIIIIIIIIIIIIIIIIIIIIIIIIIIIII
A2AAAAAAAAAA22222222222222224IIIIIIIIIIIIIIIIIIIIIIIIIIIIIIIIIII
A2AAAAAAAAAAA22222222222222224IIIIIIIIIIIIIIIIIIIIIIIIIIIIIIIIII
A2AAAAAAAAAAAA22222222222222224IIIIIIIIIIIIIIIIIIIIIIIIIIIIIIIII
A2AAAAAAAAAAAAA22222222222222224IIIIIIIIIIIIIIIIIIIIIIIIIIIIIIII
A2AAAAAAAAAAAAAA22222222222222224IIIIIIIIIIIIIIIIIIIIIIIIIIIIIII
A2AAAAAAAAAAAAAAA22222222222222224IIIIIIIIIIIIIIIIIIIIIIIIIIIIII
A2AAAAAAAAAAAAAAAA22222222222222224IIIIIIIIIIIIIIIIIIIIIIIIIIIII
A2AAAAAAAAAAAAAAAAA22222222222222224IIIIIIIIIIIIIIIIIIIIIIIIIIII
A2AAAAAAAAAAAAAAAAAA22222222222222224IIIIIIIIIIIIIIIIIIIIIIIIIII
A2AAAAAAAAAAAAAAAAAAA22222222222222224IIIIIIIIIIIIIIIIIIIIIIIIII
A2AAAAAAAAAAAAAAAAAAAA22222222222222224IIIIIIIIIIIIIIIIIIIIIIIII
A2AAAAAAAAAAAAAAAAAAAAA22222222222222224IIIIIIIIIIIIIIIIIIIIIIII
A2AAAAAAAAAAAAAAAAAAAAAA22222222222222224IIIIIIIIIIIIIIIIIIIIIII
A2AAAAAAAAAAAAAAAAAAAAAAA22222222222222224IIIIIIIIIIIIIIIIIIIIII
A2AAAAAAAAAAAAAAAAAAAAAAAA22222222222222224IIIIIIIIIIIIIIIIIIIII
A2AAAAAAAAAAAAAAAAAAAAAAAAA22222222222222224IIIIIIIIIIIIIIIIIIII
A2AAAAAAAAAAAAAAAAAAAAAAAAAA22222222222222224IIIIIIIIIIIIIIIIIII
A2AAAAAAAAAAAAAAAAAAAAAAAAAAA22222222222222224IIIIIIIIIIIIIIIIII
A2AAAAAAAAAAAAAAAAAAAAAAAAAAAA22222222222222224IIIIIIIIIIIIIIIII
A2AAAAAAAAAAAAAAAAAAAAAAAAAAAAA22222222222222224IIIIIIIIIIIIIIII
A2AAAAAAAAAAAAAAAAAAAAAAAAAAAAAA22222222222222224IIIIIIIIIIIIIII
A2AAAAAAAAAAAAAAAAAAAAAAAAAAAAAA2A22222222222222224IIIIIIIIIIIII
A2AAAAAAAAAAAAAAAAAAAAAAAAAAAAAA2AA22222222222222224IIIIIIIIIIII
A2AAAAAAAAAAAAAAAAAAAAAAAAAAAAAA2AAA22222222222222224IIIIIIIIIII
A2AAAAAAAAAAAAAAAAAAAAAAAAAAAAAA2AAAA22222222222222224IIIIIIIIII
A2AAAAAAAAAAAAAAAAAAAAAAAAAAAAAA2AAAAA22222222222222224IIIIIIIII
A2AAAAAAAAAAAAAAAAAAAAAAAAAAAAAA2AAAAAA22222222222222224IIIIIIII
A2AAAAAAAAAAAAAAAAAAAAAAAAAAAAAA2AAAAAAA22222222222222224IIIIIII
A2AAAAAAAAAAAAAAAAAAAAAAAAAAAAAA2AAAAAAAA22222222222222224IIIIII
A2AAAAAAAAAAAAAAAAAAAAAAAAAAAAAA2AAAAAAAAA22222222222222224IIIII
A2AAAAAAAAAAAAAAAAAAAAAAAAAAAAAA2AAAAAAAAAA22222222222222224IIII
A2AAAAAAAAAAAAAAAAAAAAAAAAAAAAAA2AAAAAAAAAAA22222222222222224III
A2AAAAAAAAAAAAAAAAAAAAAAAAAAAAAA2AAAAAAAAAAAA22222222222222224II
A2AAAAAAAAAAAAAAAAAAAAAAAAAAAAAA2AAAAAAAAAAAAA22222222222222224I
A2AAAAAAAAAAAAAAAAAAAAAAAAAAAAAA2AAAAAAAAAAAAAA22222222222222224
A2AAAAAAAAAAAAAAAAAAAAAAAAAAAAAA2AAAAAAAAAAAAAAA2222222222222222
A2AAAAAAAAAAAAAAAAAAAAAAAAAAAAAA2AAAAAAAAAAAAAAAA222222222222222
A2AAAAAAAAAAAAAAAAAAAAAAAAAAAAAA2AAAAAAAAAAAAAAAAA22222222222222
A2AAAAAAAAAAAAAAAAAAAAAAAAAAAAAA2AAAAAAAAAAAAAAAAAA2222222222222
A2AAAAAAAAAAAAAAAAAAAAAAAAAAAAAA2AAAAAAAAAAAAAAAAAAA222222222222
A2AAAAAAAAAAAAAAAAAAAAAAAAAAAAAA2AAAAAAAAAAAAAAAAAAAA22222222222
A2AAAAAAAAAAAAAAAAAAAAAAAAAAAAAA2AAAAAAAAAAAAAAAAAAAAA2222222222
A2AAAAAAAAAAAAAAAAAAAAAAAAAAAAAA2AAAAAAAAAAAAAAAAAAAAAA222222222
A2AAAAAAAAAAAAAAAAAAAAAAAAAAAAAA2AAAAAAAAAAAAAAAAAAAAAAA22222222
A2AAAAAAAAAAAAAAAAAAAAAAAAAAAAAA2AAAAAAAAAAAAAAAAAAAAAAAA2222222
A2AAAAAAAAAAAAAAAAAAAAAAAAAAAAAA2AAAAAAAAAAAAAAAAAAAAAAAAA222222
A2AAAAAAAAAAAAAAAAAAAAAAAAAAAAAA2AAAAAAAAAAAAAAAAAAAAAAAAAA22222
A2AAAAAAAAAAAAAAAAAAAAAAAAAAAAAA2AAAAAAAAAAAAAAAAAAAAAAAAAAA2222
A2AAAAAAAAAAAAAAAAAAAAAAAAAAAAAA2AAAAAAAAAAAAAAAAAAAAAAAAAAAA222
A2AAAAAAAAAAAAAAAAAAAAAAAAAAAAAA2AAAAAAAAAAAAAAAAAAAAAAAAAAAAA22
A2AAAAAAAAAAAAAAAAAAAAAAAAAAAAAA2AAAAAAAAAAAAAAAAAAAAAAAAAAAAAA2
A2AAAAAAAAAAAAAAAAAAAAAAAAAAAAAA2AAAAAAAAAAAAAAAAAAAAAAAAAAAAAAA
A2AAAAIAAAAAAAAAAAAAAAAAAAAAAAAA2AAAAAAAAAAAAAAAAAAAAAAAAAAAAAAA
A2AAAAIIAAAAAAAAAAAAAAAAAAAAAAAA2AAAAAAAAAAAAAAAAAAAAAAAAAAAAAAA
A2AAAAIIAAAAIAAAAAAAAAAAAAAAAAAA2AAAAAAAAAAAAAAAAAAAAAAAAAAAAAAA
A2AAAAIIAAAAIAAIAAAAAAAAAAAAAAAA2AAAAAAAAAAAAAAAAAAAAAAAAAAAAAAA
A2AAAAIIAAAAIAAIIAAAAAAAAAAAAAAA2AAAAAAAAAAAAAAAAAAAAAAAAAAAAAAA
A2AAAAIIAAAAIAAIIAAIAAAAAAAAAAAA2AAAAAAAAAAAAAAAAAAAAAAAAAAAAAAA
A2AAAAIIAAAAIAAIIAAIIAAAAAAAAAAA2AAAAAAAAAAAAAAAAAAAAAAAAAAAAAAA
A2AAAAIIAAAAIAAIIAAIIIAAAAAAAAAA2AAAAAAAAAAAAAAAAAAAAAAAAAAAAAAA
A2AAAAIIAAAAIAAIIAAIIIAIAAAAAAAA2AAAAAAAAAAAAAAAAAAAAAAAAAAAAAAA
A2AAAAIIAAAAIAAIIAAIIIAIIAAAAAAA2AAAAAAAAAAAAAAAAAAAAAAAAAAAAAAA
A2AAAAIIAAAAIAAIIAAIIIAIIIAAAAAA2AAAAAAAAAAAAAAAAAAAAAAAAAAAAAAA
A2AAAAIIAAAAIAAIIAAIIIAIIIIAAAAA2AAAAAAAAAAAAAAAAAAAAAAAAAAAAAAA
A2AAAAIIAAAAIAAIIAAIIIAIIIIAIAAA2AAAAAAAAAAAAAAAAAAAAAAAAAAAAAAA
A2AAAAIIAAAAIAAIIAAIIIAIIIIAIAAI2AAAAAAAAAAAAAAAAAAAAAAAAAAAAAAA
A2AAAAIIAIAAIAAIIAAIIIAIIIIAIAAI2AAAAAAAAAAAAAAAAAAAAAAAAAAAAAAA
A2AAAAIIAIIAIAAIIAAIIIAIIIIAIAAI2AAAAAAAAAAAAAAAAAAAAAAAAAAAAAAA
A2AAAAIIAIIIIAAIIAAIIIAIIIIAIAAI2AAAAAAAAAAAAAAAAAAAAAAAAAAAAAAA
A2AAAAIIAIIIIIAIIAAIIIAIIIIAIAAI2AAAAAAAAAAAAAAAAAAAAAAAAAAAAAAA
A2AAAAIIAIIIIIIIIAAIIIAIIIIAIAAI2AAAAAAAAAAAAAAAAAAAAAAAAAAAAAAA
A2AAAAIIAIIIIIIIIIAIIIAIIIIAIAAI2AAAAAAAAAAAAAAAAAAAAAAAAAAAAAAA
A2AAAAIIAIIIIIIIIIIIIIAIIIIAIAAI2AAAAAAAAAAAAAAAAAAAAAAAAAAAAAAA
A2AAAAIIIIIIIIIIIIIIIIAIIIIAIAAI2AAAAAAAAAAAAAAAAAAAAAAAAAAAAAAA
A2AAAAIIIIIIIIIIIIIIIIAIIIIIIAAI2AAAAAAAAAAAAAAAAAAAAAAAAAAAAAAA
A2AAAAIIIIIIIIIIIIIIIIAIIIIIIIAI2AAAAAAAAAAAAAAAAAAAAAAAAAAAAAAA
A2AAAAIIIIIIIIIIIIIIIIAIIIIIIIII2AAAAAAAAAAAAAAAAAAAAAAAAAAAAAAA
A2AAAAIIIIIIIIIIIIIIIIAIIIIIIIIIIAAAAAAAAAAAAAAAAAAAAAAAAAAAAAAA
A2AAAAIIIIIIIIIIIIIIIIAIIIIIIIIIIIAAAAAAAAAAAAAAAAAAAAAAAAAAAAAA
A2AAAAIIIIIIIIIIIIIIIIAIIIIIIIIIIIAAAAAAAAAAAAAAAAAAAAAAAAAAAAIA
A2AAAAIIIIIIIIIIIIIIIIAIIIIIIIIIIIAAAAAAAAAAAAAAAAAAAAAAAAAAAAII
A2AAAIIIIIIIIIIIIIIIIIAIIIIIIIIIIIAAAAAAAAAAAAAAAAAAAAAAAAAAAAII
A2IAAIIIIIIIIIIIIIIIIIAIIIIIIIIIIIAAAAAAAAAAAAAAAAAAAAAAAAAAAAII
A2IIAIIIIIIIIIIIIIIIIIAIIIIIIIIIIIAAAAAAAAAAAAAAAAAAAAAAAAAAAAII
A2IIAIIIIIIIIIIIIIIIIIIIIIIIIIIIIIAAAAAAAAAAAAAAAAAAAAAAAAAAAAII
A2IIAIIIIIIIIIIIIIIIIIIIIIIIIIIIIIIAAAAAAAAAAAAAAAAAAAAAAAAAAAII
A2IIAIIIIIIIIIIIIIIIIIIIIIIIIIIIIIIIAAAAAAAAAAAAAAAAAAAAAAAAAAII
A2IIAIIIIIIIIIIIIIIIIIIIIIIIIIIIIIIIIAAAAAAAAAAAAAAAAAAAAAAAAAII
A2IIAIIIIIIIIIIIIIIIIIIIIIIIIIIIIIIIIIAAAAAAAAAAAAAAAAAAAAAAAAII
A2IIAIIIIIIIIIIIIIIIIIIIIIIIIIIIIIIIIIIAAAAAAAAAAAAAAAAAAAAAAAII
A2IIAIIIIIIIIIIIIIIIIIIIIIIIIIIIIIIIIIIIAAAAAAAAAAAAAAAAAAAAAAII
A2IIAIIIIIIIIIIIIIIIIIIIIIIIIIIIIIIIIIIIIAAAAAAAAAAAAAAAAAAAAAII
A2IIAIIIIIIIIIIIIIIIIIIIIIIIIIIIIIIIIIIIIIAAAAAAAAAAAAAAAAAAAAII
A2IIAIIIIIIIIIIIIIIIIIIIIIIIIIIIIIIIIIIIIIAIAAAAAAAAAAAAAAAAAAII
A2IIAIIIIIIIIIIIIIIIIIIIIIIIIIIIIIIIIIIIIIAIIAAAAAAAAAAAAAAAAAII
A2IIAIIIIIIIIIIIIIIIIIIIIIIIIIIIIIIIIIIIIIAIIIAAAAAAAAAAAAAAAAII
A2IIAIIIIIIIIIIIIIIIIIIIIIIIIIIIIIIIIIIIIIAIIIAIAAAAAAAAAAAAAAII
A2IIAIIIIIIIIIIIIIIIIIIIIIIIIIIIIIIIIIIIIIAIIIAIIAAAAAAAAAAAAAII
A2IIAIIIIIIIIIIIIIIIIIIIIIIIIIIIIIIIIIIIIIAIIIAIIIAAAAAAAAAAAAII
A2IIAIIIIIIIIIIIIIIIIIIIIIIIIIIIIIIIIIIIIIAIIIAIIIIAAAAAAAAAAAII
A2IIAIIIIIIIIIIIIIIIIIIIIIIIIIIIIIIIIIIIIIAIIIAIIIIIAAAAAAAAAAII
A2IIAIIIIIIIIIIIIIIIIIIIIIIIIIIIIIIIIIIIIIAIIIAIIIIIIAAAAAAAAAII
A2IIAIIIIIIIIIIIIIIIIIIIIIIIIIIIIIIIIIIIIIAIIIAIIIIIIIAAAAAAAAII
A2IIAIIIIIIIIIIIIIIIIIIIIIIIIIIIIIIIIIIIIIAIIIAIIIIIIIIAAAAAAAII
A2IIAIIIIIIIIIIIIIIIIIIIIIIIIIIIIIIIIIIIIIAIIIAIIIIIIIIIAAAAAAII
A2IIAIIIIIIIIIIIIIIIIIIIIIIIIIIIIIIIIIIIIIAIIIAIIIIIIIIIIAAAAAII
A2IIAIIIIIIIIIIIIIIIIIIIIIIIIIIIIIIIIIIIIIAIIIAIIIIIIIIIIAAAIAII
AIIIAIIIIIIIIIIIIIIIIIIIIIIIIIIIIIIIIIIIIIAIIIAIIIIIIIIIIAAAIAII
AIIIAIIIIIIIIIIIIIIIIIIIIIIIIIIIIIIIIIIIIIIIIIAIIIIIIIIIIAAAIAII
AIIIAIIIIIIIIIIIIIIIIIIIIIIIIIIIIIIIIIIIIIIIIIIIIIIIIIIIIAAAIAII
AIIIAIIIIIIIIIIIIIIIIIIIIIIIIIIIIIIIIIIIIIIIIIIIIIIIIIIIIIAAIAII
AIIIAIIIIIIIIIIIIIIIIIIIIIIIIIIIIIIIIIIIIIIIIIIIIIIIIIIIIIIAIAII
AIIIAIIIIIIIIIIIIIIIIIIIIIIIIIIIIIIIIIIIIIIIIIIIIIIIIIIIIIIIIAII
[MLOP] Prefetch Degree Mean: 12.35880
[MLOP] Prefetch Degree SD: 2.54266
[MLOP] Max Score Left Mean (%): 42.34441
[MLOP] Max Score Left SD (%): 14.96783
[MLOP] Max Score Right Mean (%): 80.11323
[MLOP] Max Score Right SD (%): 8.55213

Channel_0_RQ_row_buffer_hit 1402733
Channel_0_RQ_row_buffer_miss 834730
Channel_0_WQ_row_buffer_hit 40559
Channel_0_WQ_row_buffer_miss 132154
Channel_0_WQ_full 0
Channel_0_dbus_congested 1314536

avg_congested_cycle 10

DRAM_bw_pochs 787437
DRAM_bw_level_0 430893
DRAM_bw_level_1 222948
DRAM_bw_level_2 88240
DRAM_bw_level_3 45356
