*************************************************
   ChampSim Multicore Out-of-Order Simulator
   Last compiled: Apr  3 2025 20:54:34
*************************************************
parsing config file: /home/zir/Pythia/config/mlop.ini

trace_0 /home/zir/ChampSim/ML-DPC/ChampSimTraces/gap/bc-0.trace.gz
adding L2C_PREFETCHER: MLOP
Initialize SHIP state
warmup_instructions 10000000
simulation_instructions 50000000
champsim_seed 48
measure_ipc 0
measure_ipc_epoch 1000
measure_dram_bw 1
measure_dram_bw_epoch 256
measure_cache_acc 1
measure_cache_acc_epoch 1024
l1d_perfect 0
l2c_perfect 0
llc_perfect 0
l1d_semi_perfect 0
l2c_semi_perfect 0
llc_semi_perfect 0
semi_perfect_cache_page_buffer_size 64

num_cpus 1
cpu_freq 4000
dram_io_freq 2400
page_size 4096
block_size 64
max_read_per_cycle 8
max_fill_per_cycle 1
dram_channels 1
log2_dram_channels 0
dram_ranks 1
dram_banks 8
dram_rows 65536
dram_columns 128
dram_row_size 8
dram_size 4096
dram_pages 1048576

fetch_width 6
decode_width 6
exec_width 4
lq_width 2
sq_width 2
retire_width 4
scheduler_size 128
branch_mispredict_penalty 20
rob_size 256
lq_size 72
sq_size 56
num_instr_destinations_sparc 4
num_instr_destinations 2
num_instr_sources 4

itlb_set 16
itlb_way 8
itlb_rq_size 16
itlb_wq_size 16
itlb_pq_size 0
itlb_mshr_size 8
itlb_latency 1

dtlb_set 16
dtlb_way 4
dtlb_rq_size 16
dtlb_wq_size 16
dtlb_pq_size 0
dtlb_mshr_size 8
dtlb_latency 1

stlb_set 128
stlb_way 12
stlb_rq_size 32
stlb_wq_size 32
stlb_pq_size 0
stlb_mshr_size 16
stlb_latency 8

l1i_size 32
l1i_set 64
l1i_way 8
l1i_rq_size 64
l1i_wq_size 64
l1i_pq_size 8
l1i_mshr_size 8
l1i_latency 1

l1d_size 32
l1d_set 64
l1d_way 8
l1d_rq_size 64
l1d_wq_size 64
l1d_pq_size 8
l1d_mshr_size 16
l1d_latency 4

l2c_size 256
l2c_set 512
l2c_way 8
l2c_rq_size 32
l2c_wq_size 32
l2c_pq_size 32
l2c_mshr_size 32
l2c_latency 10

llc_size 2048
llc_set 2048
llc_way 16
llc_rq_size 32
llc_wq_size 32
llc_pq_size 32
llc_mshr_size 64
llc_latency 20

dram_channel_width 8
dram_wq_size 64
dram_rq_size 64
tRP 15
tRCD 15
tCAS 12.5
dram_dbus_turn_around_time 30
dram_write_high_wm 56
dram_write_low_wm 48
min_dram_writes_per_switch 16
dram_mtps 2400
dram_dbus_return_time 13

mlop_pref_degree 16
mlop_num_updates 500
mlop_l1d_thresh 2
mlop_l2c_thresh 0.75
mlop_llc_thresh 0.3
mlop_debug_level 0
mlop_blocks_in_cache 4096
mlop_blocks_in_zone 64
mlop_amt_size 2048
mlop_PF_DEGREE 16
mlop_NUM_UPDATES 500
mlop_L1D_THRESH 1000
mlop_L2C_THRESH 375
mlop_LLC_THRESH 150
mlop_ORIGIN 63
mlop_MAX_OFFSET 63
mlop_MIN_OFFSET -63
mlop_ORIGIN 63
mlop_NUM_OFFSETS 127


Heartbeat CPU  0 instructions:    1000000 cycles:     577351 heartbeat IPC: 1.73205 cumulative IPC: 1.73205 (Simulation time: 0 hr 0 min 1 sec) 
Heartbeat CPU  0 instructions:    2000003 cycles:    1127723 heartbeat IPC: 1.81696 cumulative IPC: 1.77349 (Simulation time: 0 hr 0 min 3 sec) 
Heartbeat CPU  0 instructions:    3000001 cycles:    1811530 heartbeat IPC: 1.46240 cumulative IPC: 1.65606 (Simulation time: 0 hr 0 min 5 sec) 
Heartbeat CPU  0 instructions:    4000000 cycles:    2518905 heartbeat IPC: 1.41368 cumulative IPC: 1.58799 (Simulation time: 0 hr 0 min 6 sec) 
Heartbeat CPU  0 instructions:    5000001 cycles:    3338544 heartbeat IPC: 1.22005 cumulative IPC: 1.49766 (Simulation time: 0 hr 0 min 7 sec) 
Heartbeat CPU  0 instructions:    6000000 cycles:    4248080 heartbeat IPC: 1.09946 cumulative IPC: 1.41240 (Simulation time: 0 hr 0 min 9 sec) 
Heartbeat CPU  0 instructions:    7000002 cycles:    5214823 heartbeat IPC: 1.03440 cumulative IPC: 1.34233 (Simulation time: 0 hr 0 min 10 sec) 
Heartbeat CPU  0 instructions:    8000000 cycles:    6283674 heartbeat IPC: 0.93558 cumulative IPC: 1.27314 (Simulation time: 0 hr 0 min 11 sec) 
Heartbeat CPU  0 instructions:    9000001 cycles:    7262977 heartbeat IPC: 1.02114 cumulative IPC: 1.23916 (Simulation time: 0 hr 0 min 12 sec) 
Heartbeat CPU  0 instructions:   10000002 cycles:    8236483 heartbeat IPC: 1.02722 cumulative IPC: 1.21411 (Simulation time: 0 hr 0 min 13 sec) 

Warmup complete CPU  0 instructions:   10000002 cycles:    8236483 (Simulation time: 0 hr 0 min 13 sec) 

Heartbeat CPU  0 instructions:   11000000 cycles:   15963043 heartbeat IPC: 0.12942 cumulative IPC: 0.12942 (Simulation time: 0 hr 0 min 16 sec) 
Heartbeat CPU  0 instructions:   12000000 cycles:   23462642 heartbeat IPC: 0.13334 cumulative IPC: 0.13135 (Simulation time: 0 hr 0 min 19 sec) 
Heartbeat CPU  0 instructions:   13000001 cycles:   31401581 heartbeat IPC: 0.12596 cumulative IPC: 0.12951 (Simulation time: 0 hr 0 min 22 sec) 
Heartbeat CPU  0 instructions:   14000002 cycles:   39164415 heartbeat IPC: 0.12882 cumulative IPC: 0.12933 (Simulation time: 0 hr 0 min 25 sec) 
Heartbeat CPU  0 instructions:   15000002 cycles:   47165493 heartbeat IPC: 0.12498 cumulative IPC: 0.12844 (Simulation time: 0 hr 0 min 28 sec) 
Heartbeat CPU  0 instructions:   16000000 cycles:   54968653 heartbeat IPC: 0.12815 cumulative IPC: 0.12839 (Simulation time: 0 hr 0 min 31 sec) 
Heartbeat CPU  0 instructions:   17000002 cycles:   62981498 heartbeat IPC: 0.12480 cumulative IPC: 0.12787 (Simulation time: 0 hr 0 min 33 sec) 
Heartbeat CPU  0 instructions:   18000000 cycles:   70618646 heartbeat IPC: 0.13094 cumulative IPC: 0.12824 (Simulation time: 0 hr 0 min 36 sec) 
Heartbeat CPU  0 instructions:   19000003 cycles:   78875997 heartbeat IPC: 0.12110 cumulative IPC: 0.12741 (Simulation time: 0 hr 0 min 39 sec) 
Heartbeat CPU  0 instructions:   20000000 cycles:   87036400 heartbeat IPC: 0.12254 cumulative IPC: 0.12690 (Simulation time: 0 hr 0 min 42 sec) 
Heartbeat CPU  0 instructions:   21000000 cycles:   95204063 heartbeat IPC: 0.12243 cumulative IPC: 0.12648 (Simulation time: 0 hr 0 min 45 sec) 
Heartbeat CPU  0 instructions:   22000003 cycles:  103211900 heartbeat IPC: 0.12488 cumulative IPC: 0.12635 (Simulation time: 0 hr 0 min 48 sec) 
Heartbeat CPU  0 instructions:   23000002 cycles:  111446228 heartbeat IPC: 0.12144 cumulative IPC: 0.12596 (Simulation time: 0 hr 0 min 50 sec) 
Heartbeat CPU  0 instructions:   24000000 cycles:  119606006 heartbeat IPC: 0.12255 cumulative IPC: 0.12571 (Simulation time: 0 hr 0 min 53 sec) 
Heartbeat CPU  0 instructions:   25000000 cycles:  127644103 heartbeat IPC: 0.12441 cumulative IPC: 0.12562 (Simulation time: 0 hr 0 min 56 sec) 
Heartbeat CPU  0 instructions:   26000001 cycles:  135713923 heartbeat IPC: 0.12392 cumulative IPC: 0.12551 (Simulation time: 0 hr 0 min 59 sec) 
Heartbeat CPU  0 instructions:   27000000 cycles:  143767186 heartbeat IPC: 0.12417 cumulative IPC: 0.12543 (Simulation time: 0 hr 1 min 2 sec) 
Heartbeat CPU  0 instructions:   28000000 cycles:  151923248 heartbeat IPC: 0.12261 cumulative IPC: 0.12527 (Simulation time: 0 hr 1 min 4 sec) 
Heartbeat CPU  0 instructions:   29000002 cycles:  160155522 heartbeat IPC: 0.12147 cumulative IPC: 0.12507 (Simulation time: 0 hr 1 min 7 sec) 
Heartbeat CPU  0 instructions:   30000000 cycles:  168299845 heartbeat IPC: 0.12278 cumulative IPC: 0.12495 (Simulation time: 0 hr 1 min 10 sec) 
Heartbeat CPU  0 instructions:   31000002 cycles:  176528187 heartbeat IPC: 0.12153 cumulative IPC: 0.12478 (Simulation time: 0 hr 1 min 13 sec) 
Heartbeat CPU  0 instructions:   32000000 cycles:  184656682 heartbeat IPC: 0.12302 cumulative IPC: 0.12470 (Simulation time: 0 hr 1 min 16 sec) 
Heartbeat CPU  0 instructions:   33000000 cycles:  192660591 heartbeat IPC: 0.12494 cumulative IPC: 0.12471 (Simulation time: 0 hr 1 min 18 sec) 
Heartbeat CPU  0 instructions:   34000001 cycles:  200973223 heartbeat IPC: 0.12030 cumulative IPC: 0.12452 (Simulation time: 0 hr 1 min 21 sec) 
Heartbeat CPU  0 instructions:   35000000 cycles:  209074677 heartbeat IPC: 0.12343 cumulative IPC: 0.12448 (Simulation time: 0 hr 1 min 24 sec) 
Heartbeat CPU  0 instructions:   36000000 cycles:  217085916 heartbeat IPC: 0.12482 cumulative IPC: 0.12449 (Simulation time: 0 hr 1 min 27 sec) 
Heartbeat CPU  0 instructions:   37000000 cycles:  225323652 heartbeat IPC: 0.12139 cumulative IPC: 0.12437 (Simulation time: 0 hr 1 min 30 sec) 
Heartbeat CPU  0 instructions:   38000002 cycles:  233661673 heartbeat IPC: 0.11993 cumulative IPC: 0.12421 (Simulation time: 0 hr 1 min 33 sec) 
Heartbeat CPU  0 instructions:   39000000 cycles:  241807603 heartbeat IPC: 0.12276 cumulative IPC: 0.12416 (Simulation time: 0 hr 1 min 36 sec) 
Heartbeat CPU  0 instructions:   40000000 cycles:  249885010 heartbeat IPC: 0.12380 cumulative IPC: 0.12415 (Simulation time: 0 hr 1 min 38 sec) 
Heartbeat CPU  0 instructions:   41000003 cycles:  258173246 heartbeat IPC: 0.12065 cumulative IPC: 0.12403 (Simulation time: 0 hr 1 min 41 sec) 
Heartbeat CPU  0 instructions:   42000001 cycles:  266393847 heartbeat IPC: 0.12165 cumulative IPC: 0.12396 (Simulation time: 0 hr 1 min 44 sec) 
Heartbeat CPU  0 instructions:   43000002 cycles:  274426653 heartbeat IPC: 0.12449 cumulative IPC: 0.12397 (Simulation time: 0 hr 1 min 47 sec) 
Heartbeat CPU  0 instructions:   44000000 cycles:  282743533 heartbeat IPC: 0.12024 cumulative IPC: 0.12386 (Simulation time: 0 hr 1 min 50 sec) 
Heartbeat CPU  0 instructions:   45000000 cycles:  290944330 heartbeat IPC: 0.12194 cumulative IPC: 0.12380 (Simulation time: 0 hr 1 min 53 sec) 
Heartbeat CPU  0 instructions:   46000002 cycles:  299168522 heartbeat IPC: 0.12159 cumulative IPC: 0.12374 (Simulation time: 0 hr 1 min 56 sec) 
Heartbeat CPU  0 instructions:   47000000 cycles:  307562651 heartbeat IPC: 0.11913 cumulative IPC: 0.12361 (Simulation time: 0 hr 1 min 58 sec) 
Heartbeat CPU  0 instructions:   48000000 cycles:  315978535 heartbeat IPC: 0.11882 cumulative IPC: 0.12348 (Simulation time: 0 hr 2 min 1 sec) 
Heartbeat CPU  0 instructions:   49000002 cycles:  324137067 heartbeat IPC: 0.12257 cumulative IPC: 0.12346 (Simulation time: 0 hr 2 min 4 sec) 
Heartbeat CPU  0 instructions:   50000003 cycles:  332611647 heartbeat IPC: 0.11800 cumulative IPC: 0.12331 (Simulation time: 0 hr 2 min 7 sec) 
Heartbeat CPU  0 instructions:   51000000 cycles:  341054911 heartbeat IPC: 0.11844 cumulative IPC: 0.12319 (Simulation time: 0 hr 2 min 9 sec) 
Heartbeat CPU  0 instructions:   52000000 cycles:  349400673 heartbeat IPC: 0.11982 cumulative IPC: 0.12311 (Simulation time: 0 hr 2 min 12 sec) 
Heartbeat CPU  0 instructions:   53000000 cycles:  357466365 heartbeat IPC: 0.12398 cumulative IPC: 0.12313 (Simulation time: 0 hr 2 min 15 sec) 
Heartbeat CPU  0 instructions:   54000003 cycles:  365827079 heartbeat IPC: 0.11961 cumulative IPC: 0.12305 (Simulation time: 0 hr 2 min 18 sec) 
Heartbeat CPU  0 instructions:   55000001 cycles:  374218193 heartbeat IPC: 0.11917 cumulative IPC: 0.12296 (Simulation time: 0 hr 2 min 21 sec) 
Heartbeat CPU  0 instructions:   56000000 cycles:  382521653 heartbeat IPC: 0.12043 cumulative IPC: 0.12290 (Simulation time: 0 hr 2 min 23 sec) 
Heartbeat CPU  0 instructions:   57000002 cycles:  390760130 heartbeat IPC: 0.12138 cumulative IPC: 0.12287 (Simulation time: 0 hr 2 min 26 sec) 
Heartbeat CPU  0 instructions:   58000002 cycles:  399155701 heartbeat IPC: 0.11911 cumulative IPC: 0.12279 (Simulation time: 0 hr 2 min 29 sec) 
Heartbeat CPU  0 instructions:   59000000 cycles:  407269734 heartbeat IPC: 0.12324 cumulative IPC: 0.12280 (Simulation time: 0 hr 2 min 32 sec) 
Heartbeat CPU  0 instructions:   60000000 cycles:  415407709 heartbeat IPC: 0.12288 cumulative IPC: 0.12280 (Simulation time: 0 hr 2 min 35 sec) 
Finished CPU 0 instructions: 50000000 cycles: 407171283 cumulative IPC: 0.12280 (Simulation time: 0 hr 2 min 35 sec) 

ChampSim completed all CPUs

[ROI Statistics]
Core_0_instructions 50000000
Core_0_cycles 407171283
Core_0_IPC 0.12280

Core_0_branch_prediction_accuracy 87.98641
Core_0_branch_MPKI 22.64718
Core_0_average_ROB_occupancy_at_mispredict 50.52002

Core_0_L1D_total_access 14524399
Core_0_L1D_total_hit 10376230
Core_0_L1D_total_miss 4148169
Core_0_L1D_loads 11865869
Core_0_L1D_load_hit 7746163
Core_0_L1D_load_miss 4119706
Core_0_L1D_RFOs 2658530
Core_0_L1D_RFO_hit 2630067
Core_0_L1D_RFO_miss 28463
Core_0_L1D_prefetches 0
Core_0_L1D_prefetch_hit 0
Core_0_L1D_prefetch_miss 0
Core_0_L1D_writebacks 0
Core_0_L1D_writeback_hit 0
Core_0_L1D_writeback_miss 0
Core_0_L1D_prefetch_requested 0
Core_0_L1D_prefetch_dropped 0
Core_0_L1D_prefetch_issued 0
Core_0_L1D_prefetch_filled 0
Core_0_L1D_prefetch_useful 0
Core_0_L1D_prefetch_useless 0
Core_0_L1D_prefetch_late 0
Core_0_L1D_average_miss_latency 156.89629

Core_0_L1D_rq_access 13408488
Core_0_L1D_rq_forward 0
Core_0_L1D_rq_merged 1405474
Core_0_L1D_rq_to_cache 12003014
Core_0_L1D_rq_full 0

Core_0_L1D_wq_access 2701708
Core_0_L1D_wq_forward 0
Core_0_L1D_wq_merged 0
Core_0_L1D_wq_to_cache 2701708
Core_0_L1D_wq_full 0

Core_0_L1D_pq_access 0
Core_0_L1D_pq_forward 0
Core_0_L1D_pq_merged 0
Core_0_L1D_pq_to_cache 0
Core_0_L1D_pq_full 0

Core_0_L1D_acc_epochs 340487
Core_0_L1D_acc_level_0 340487
Core_0_L1D_acc_level_1 0
Core_0_L1D_acc_level_2 0
Core_0_L1D_acc_level_3 0
Core_0_L1D_acc_level_4 0
Core_0_L1D_acc_level_5 0
Core_0_L1D_acc_level_6 0
Core_0_L1D_acc_level_7 0
Core_0_L1D_acc_level_8 0
Core_0_L1D_acc_level_9 0

Core_0_L1I_total_access 8721196
Core_0_L1I_total_hit 8721196
Core_0_L1I_total_miss 0
Core_0_L1I_loads 8721196
Core_0_L1I_load_hit 8721196
Core_0_L1I_load_miss 0
Core_0_L1I_RFOs 0
Core_0_L1I_RFO_hit 0
Core_0_L1I_RFO_miss 0
Core_0_L1I_prefetches 0
Core_0_L1I_prefetch_hit 0
Core_0_L1I_prefetch_miss 0
Core_0_L1I_writebacks 0
Core_0_L1I_writeback_hit 0
Core_0_L1I_writeback_miss 0
Core_0_L1I_prefetch_requested 0
Core_0_L1I_prefetch_dropped 0
Core_0_L1I_prefetch_issued 0
Core_0_L1I_prefetch_filled 0
Core_0_L1I_prefetch_useful 0
Core_0_L1I_prefetch_useless 0
Core_0_L1I_prefetch_late 0
Core_0_L1I_average_miss_latency -nan

Core_0_L1I_rq_access 49999989
Core_0_L1I_rq_forward 0
Core_0_L1I_rq_merged 41278793
Core_0_L1I_rq_to_cache 8721196
Core_0_L1I_rq_full 0

Core_0_L1I_wq_access 0
Core_0_L1I_wq_forward 0
Core_0_L1I_wq_merged 0
Core_0_L1I_wq_to_cache 0
Core_0_L1I_wq_full 0

Core_0_L1I_pq_access 0
Core_0_L1I_pq_forward 0
Core_0_L1I_pq_merged 0
Core_0_L1I_pq_to_cache 0
Core_0_L1I_pq_full 0

Core_0_L1I_acc_epochs 340487
Core_0_L1I_acc_level_0 340487
Core_0_L1I_acc_level_1 0
Core_0_L1I_acc_level_2 0
Core_0_L1I_acc_level_3 0
Core_0_L1I_acc_level_4 0
Core_0_L1I_acc_level_5 0
Core_0_L1I_acc_level_6 0
Core_0_L1I_acc_level_7 0
Core_0_L1I_acc_level_8 0
Core_0_L1I_acc_level_9 0

Core_0_L2C_total_access 5523612
Core_0_L2C_total_hit 1518959
Core_0_L2C_total_miss 4004653
Core_0_L2C_loads 4119706
Core_0_L2C_load_hit 189025
Core_0_L2C_load_miss 3930681
Core_0_L2C_RFOs 28463
Core_0_L2C_RFO_hit 54
Core_0_L2C_RFO_miss 28409
Core_0_L2C_prefetches 46310
Core_0_L2C_prefetch_hit 967
Core_0_L2C_prefetch_miss 45343
Core_0_L2C_writebacks 1329133
Core_0_L2C_writeback_hit 1328913
Core_0_L2C_writeback_miss 220
Core_0_L2C_prefetch_requested 2157913
Core_0_L2C_prefetch_dropped 0
Core_0_L2C_prefetch_issued 2157913
Core_0_L2C_prefetch_filled 71015
Core_0_L2C_prefetch_useful 11200
Core_0_L2C_prefetch_useless 59815
Core_0_L2C_prefetch_late 1743
Core_0_L2C_average_miss_latency 137.58112

Core_0_L2C_rq_access 4148168
Core_0_L2C_rq_forward 0
Core_0_L2C_rq_merged 0
Core_0_L2C_rq_to_cache 4148168
Core_0_L2C_rq_full 0

Core_0_L2C_wq_access 1329133
Core_0_L2C_wq_forward 0
Core_0_L2C_wq_merged 0
Core_0_L2C_wq_to_cache 1329133
Core_0_L2C_wq_full 0

Core_0_L2C_pq_access 2157913
Core_0_L2C_pq_forward 0
Core_0_L2C_pq_merged 1344
Core_0_L2C_pq_to_cache 2156569
Core_0_L2C_pq_full 0

Core_0_L2C_acc_epochs 340487
Core_0_L2C_acc_level_0 339281
Core_0_L2C_acc_level_1 377
Core_0_L2C_acc_level_2 172
Core_0_L2C_acc_level_3 94
Core_0_L2C_acc_level_4 88
Core_0_L2C_acc_level_5 139
Core_0_L2C_acc_level_6 61
Core_0_L2C_acc_level_7 45
Core_0_L2C_acc_level_8 37
Core_0_L2C_acc_level_9 193

Core_0_LLC_total_access 7053958
Core_0_LLC_total_hit 2794289
Core_0_LLC_total_miss 4259669
Core_0_LLC_loads 3928964
Core_0_LLC_load_hit 1809989
Core_0_LLC_load_miss 2118975
Core_0_LLC_RFOs 28409
Core_0_LLC_RFO_hit 1254
Core_0_LLC_RFO_miss 27155
Core_0_LLC_prefetches 1775884
Core_0_LLC_prefetch_hit 291953
Core_0_LLC_prefetch_miss 1483931
Core_0_LLC_writebacks 1320701
Core_0_LLC_writeback_hit 691093
Core_0_LLC_writeback_miss 629608
Core_0_LLC_prefetch_requested 0
Core_0_LLC_prefetch_dropped 0
Core_0_LLC_prefetch_issued 0
Core_0_LLC_prefetch_filled 1774161
Core_0_LLC_prefetch_useful 359078
Core_0_LLC_prefetch_useless 1409973
Core_0_LLC_prefetch_late 16887
Core_0_LLC_average_miss_latency 168.85166

Core_0_LLC_rq_access 3957372
Core_0_LLC_rq_forward 0
Core_0_LLC_rq_merged 0
Core_0_LLC_rq_to_cache 3957372
Core_0_LLC_rq_full 0

Core_0_LLC_wq_access 1320701
Core_0_LLC_wq_forward 0
Core_0_LLC_wq_merged 0
Core_0_LLC_wq_to_cache 1320701
Core_0_LLC_wq_full 0

Core_0_LLC_pq_access 2127241
Core_0_LLC_pq_forward 0
Core_0_LLC_pq_merged 292
Core_0_LLC_pq_to_cache 2126949
Core_0_LLC_pq_full 0

Core_0_LLC_acc_epochs 405672
Core_0_LLC_acc_level_0 132844
Core_0_LLC_acc_level_1 100627
Core_0_LLC_acc_level_2 70571
Core_0_LLC_acc_level_3 41093
Core_0_LLC_acc_level_4 13016
Core_0_LLC_acc_level_5 24654
Core_0_LLC_acc_level_6 13161
Core_0_LLC_acc_level_7 3791
Core_0_LLC_acc_level_8 1941
Core_0_LLC_acc_level_9 3974

Core_0_major_page_fault 0
Core_0_minor_page_fault 10833

[MLOP] History of tracked zone:
IIIIIIIIIIIIIIIIIIIIIIIIIIIIIIIIIIIIIIIIIIIIIIIIIIIIIIIIIIIIIIII
IIIIIIIIIIIIIIIIIIIIIIIIIIIIIIIIIIIIIIIIIIIIIAIIIIIIIIIIIIIIIIII
IIIIIIIIIIIAIIIIIIIIIIIIIIIIIIIIIIIIIIIIIIIIIAIIIIIIIIIIIIIIIIII
IIIIIIIIIIIAAIIIIIIIIIIIIIIIIIIIIIIIIIIIIIIIIAIIIIIIIIIIIIIIIIII
IIIIIIIIIIIAAIIIAIIIIIIIIIIIIIIIIIIIIIIIIIIIIAIIIIIIIIIIIIIIIIII
IIIIIIIIIIIAAIIIAAIIIIIIIIIIIIIIIIIIIIIIIIIIIAIIIIIIIIIIIIIIIIII
IIIIIIIIIIIAAIIIAAIIIIIIIIIIIIIIIIIAIIIIIIIIIAIIIIIIIIIIIIIIIIII
IIIIIIIIIIIAAIIIAAIIIIIIIIIIIIIIIIIAIIIIIIIIAAIIIIIIIIIIIIIIIIII
IIIIIIIIIIIAAIIIAAIIIIIIIIIIIIIIIIIAIIIIIIIIAAIIIIIIIIIIAIIIIIII
IIIIIIIIIIIAAIIIAAIIIIIIIIIIIAIIIIIAIIIIIIIIAAIIIIIIIIIIAIIIIIII
IIIAIIIIIIIAAIIIAAIIIIIIIIIIIAIIIIIAIIIIIIIIAAIIIIIIIIIIAIIIIIII
IIIAIIAIIIIAAIIIAAIIIIIIIIIIIAIIIIIAIIIIIIIIAAIIIIIIIIIIAIIIIIII
IIIAIIAIIIAAAIIIAAIIIIIIIIIIIAIIIIIAIIIIIIIIAAIIIIIIIIIIAIIIIIII
IIIAIIAIIIAAAIIIAAIIAIIIIIIIIAIIIIIAIIIIIIIIAAIIIIIIIIIIAIIIIIII
IIIAIIAIIIAAAIIIAAIIAIIIIIIIIAIIIIIAIIIIIIIIAAIIIIIAIIIIAIIIIIII
IIIAIIIIIIIIIIIIIIIIIIIIIIIIIIIIIIIIIIIIIIIIIIIIIIIIIIIIIIIIIIII
IIIAIIAIIIIIIIIIIIIIIIIIIIIIIIIIIIIIIIIIIIIIIIIIIIIIIIIIIIIIIIII
IIIAIIAIIIIIAIIIIIIIIIIIIIIIIIIIIIIIIIIIIIIIIIIIIIIIIIIIIIIIIIII
IIIAIIAIIIIIAIIIIIIIIAIIIIIIIIIIIIIIIIIIIIIIIIIIIIIIIIIIIIIIIIII
IIIAIIAIIIIIAIIIIIIIIAIIIIIIIAIIIIIIIIIIIIIIIIIIIIIIIIIIIIIIIIII
IIIAIIAIIIIIAIIIIIIIIAIIIIIIIAAIIIIIIIIIIIIIIIIIIIIIIIIIIIIIIIII
IIIAIIAIIIIIAIIIIIIIIAIIIIIIIAAIIIAIIIIIIIIIIIIIIIIIIIIIIIIIIIII
IIIAIIAIIIIIAIIIIIIIIAIIIIIIIAAIIIAAIIIIIIIIIIIIIIIIIIIIIIIIIIII
IIIAIIAIIIIIAIIIIIIIIAIIIIIIIAAIIIAAIIIIIIIIAIIIIIIIIIIIIIIIIIII
IIIAIIAIIIIIAIIIIIIIIAIIIIIIIAAIIIAAIIIIIIIIAIIIIIIIAIIIIIIIIIII
IIIAIIAIIIIIAIIIIIIIIAIIIIIIIAAIIIAAIIIIIIIIAIIIIIIIAAIIIIIIIIII
IIIAIIAIIIIIAIIIIIIIIAIIIIIIIAAIIIAAIIIIIIIIAIIIIIIIAAAIIIIIIIII
IIIIIIIIIIIIIIIIIIIIIIIIIIIIIIAIIIIIIIIIIIIIIIIIIIIIIIIIIIIIIIII
IIIIIIIIIIIIIIIIIIIIIIIIIIIIIIAIIIIIIIIIIIIIIIIIIIIIIAIIIIIIIIII
IIIIIIIIIIIIIIIIIIIIIIIIIIIIIIAIIIIIIIIIIIIIIIIIIIIIIAIIAIIIIIII
IIAIIIIIIIIIIIIIIIIIIIIIIIIIIIIIIIIIIIIIIIIIIIIIIIIIIIIIIIIIIIII
IIAIIIIIIIIIIIIIIIIIIIIIIIIIIIIIIIIIIIIIIIIIIIIIIIIIIIIIAIIIIIII
IIAIIIIIIIIIIIIIIIIIIIIIIIIIIIAIIIIIIIIIIIIIIIIIIIIIIIIIAIIIIIII
IIAIIIIIIIIIIIIIIIIIIIIIIIIIIIAIIIIAIIIIIIIIIIIIIIIIIIIIAIIIIIII
IIAIIIIIIIIIIIIIIIIIIIIIIIIIIIAIIIIAIIIIIIIIIIIIIIIIIIAIAIIIIIII
IIAIIIIIIIIIIIIIIIIIIIIIIIIIIIAIIIAAIIIIIIIIIIIIIIIIIIAIAIIIIIII
IIIIIIAIIIIIIIIIIIIIIIIIIIIIIIIIIIIIIIIIIIIIIIIIIIIIIIIIIIIIIIII
IIIIIIAIIIIIIIIIIIIIIAIIIIIIIIIIIIIIIIIIIIIIIIIIIIIIIIIIIIIIIIII
IIIIIIAIIIIIIIIIIIIIIAIIIIIIIIIIIIIIIIIIIIIIIIIIIIIIIAIIIIIIIIII
IIAIIIIIIIIIIIIIIIIIIIIIIIIIIIIIIIIIIIIIIIIIIIIIIIIIIIIIIIIIIIII
IIAAIIIIIIIIIIIIIIIIIIIIIIIIIIIIIIIIIIIIIIIIIIIIIIIIIIIIIIIIIIII
IIAAIIAIIIIIIIIIIIIIIIIIIIIIIIIIIIIIIIIIIIIIIIIIIIIIIIIIIIIIIIII
IIAAIIAIIIIIIIIIIIIIIIIIIIIIIIIIIIIIIIIIIIIIIIIIIIIIIIAIIIIIIIII
AIII4IIII4IIIII4IIIIIIIIIIIIIIIIIIIIIIIIIIIIIIIIIIIIIIIIIIIIIIII
AAII44III44IIII44IIIIIIIIIIIIIIIIIIIIIIIIIIIIIIIIIIIIIIIIIIIIIII
AAAI444II444III444IIIIIIIIIIIIIIIIIIIIIIIIIIIIIIIIIIIIIIIIIIIIII
AAAI44AII444III444III4IIIIIIIIIIIIIIIIIIIIIIIIIIIIIIIIIIIIIIIIII
AAAI44AAI444III444III44IIIIIIIIIIIIIIIIIIIIIIIIIIIIIIIIIIIIIIIII
AAAI44AAIA44I4I4444II44I4IIIIIIIIIIIIIIIIIIIIIIIIIIIIIIIIIIIIIII
AAAI44AAIAA4I4444444I44I44IIIIIIIIIIIIIIIIIIIIIIIIIIIIIIIIIIIIII
AAAI44AAIAAAI4444444444I444IIIIIIIIIIIIIIIIIIIIIIIIIIIIIIIIIIIII
AAAI44AAIAAAA4444444444I4444IIIIIIIIIIIIIIIIIIIIIIIIIIIIIIIIIIII
AAAI44AAIAAAA4A4444444444444I4IIIIIIIIIIIIIIIIIIIIIIIIIIIIIIIIII
AAAI44AAIAAAA4A44444A4444444I4IIIII4IIIIIIIIIIIIIIIIIIIIIIIIIIII
AAAI44AAIAAAA4A44444AA444444I44IIII44IIIIIIIIIIIIIIIIIIIIIIIIIII
AAAI44AAIAAAA4A44444AAA44444I444III444IIIIIIIIIIIIIIIIIIIIIIIIII
AAAI44AAIAAAA4A44444AAA444A4I444III444III4IIIIIIIIIIIIIIIIIIIIII
AAAI44AAIAAAA4A44444AAA444A4IA44I4I4444II4II4IIIIIIIIIIIIIIIIIII
AAAI44AAIAAAA4A44444AAA444A4IAA4I4444444I4II44IIIIIIIIIIIIIIIIII
AAAI44AAIAAAA4A44444AAA444A4IAAAI444444444II444IIIIIIIIIIIIIIIII
AAAI44AAIAAAA4A44444AAA444A4IAAAI4A4444444I4444II4IIIIIIIIIIIIII
AAAI44AAIAAAA4A44444AAA444A4IAAAI4AA444444I4444II44IIIIIIIIIIIII
AAAI44AAIAAAA4A44444AAA444A4IAAAI4AA4A4444I4444II44I4IIIIIIIIIII
AAAI44AAIAAAA4A44444AAA444A4IAAAI4AA4AA444444444I44I44IIIIIIIIII
AAAI44AAIAAAA4A44444AAA444A4IAAAI4AA4AA4A4444444I44I44I4IIIIIIII
AAAI44AAIAAAA4A44444AAA444A4IAAAI4AA4AA4A44A4444I44I44I4II4IIIII
AAAI44AAIAAAA4A44444AAA444A4IAAAI4AA4AA4A44A4A44I44I4444II4I4III
AAAI44AAIAAAA4A44444AAA444A4IAAAI4AA4AA4A44A4A44A44I4444I44I4II4
AAAI44AAIAAAA4A44444AAA444A4IAAAI4AA4AA4A44A4A44A4AI4444I4444II4
AAAI44AAIAAAA4A44444AAA444A4IAAAI4AA4AA4A44A4A44A4AI44A4I4444II4
AAAI44AAIAAAA4A44444AAA444A4IAAAI4AA4AA4A44A4A44A4AI44A4A4444II4
AAAI44AAIAAAA4A44444AAA444A4IAAAI4AA4AA4A44A4A44A4AI44A4A444AII4
AAAI44AA4AAAA4A44444AAA444A4IAAAI4AA4AA4A44A4A44A4AI44A4A444AII4
AAAI44AAAAAAA4A44444AAA444A4IAAAI4AA4AA4A44A4A44A4AI44A4A444AII4
AAAI44AAAAAAA4A44444AAA444A4IAAA44AA4AA4A44A4A44A4AI44A4A444AII4
AAAI44AAAAAAA4A44444AAA444A4IAAA44AA4AA4A44A4A44A4AI4AA4A444AII4
AAAI4AAAAAAAA4A44444AAA444A4IAAA44AA4AA4A44A4A44A4AI4AA4A444AII4
AAAI4AAAAAAAA4A44444AAA444A4IAAA44AA4AI4A44A4A44A4AI4AA4A444AII4
AAAI4AAAAAAAA4A44444AAA444A4IIAA44AA4AI4A44A4A44A4AI4AA4A444AII4
AAAI4AAAAAAAA4A44444AAA444A4AIAA44AA4AI4A44A4A44A4AI4AA4A444AII4
AAAI4AAAAAAAA4AA4444AAA444A4AIAA44AA4AI4A44A4A44A4AI4AA4A444AII4
AAAI4AAAAAAAA4AA4444AAAA44A4AIAA44AA4AI4A44A4A44A4AI4AA4A444AII4
AAAI4AAAAAAAA4AA4444AAAA44A4AIAA4AAA4AI4A44A4A44A4AI4AA4A444AII4
AAAI4AAAAAAAA4AA4444AAAA44A4AIAA4AAA4A44A44A4A44A4AI4AA4A444AII4
AAAI4AAAAAAAA4AA4444AAAA44A4AAAA4AAA4A44A44A4A44A4AI4AA4A444AII4
AAAI4AAAAAAAA4AA444AAAAA44A4AAAA4AAA4A44A44A4A44A4AI4AA4A444AII4
AAAA4AAAAAAAA4AA444AAAAA44A4AAAA4AAA4A44A44A4A44A4AI4AA4A444AII4
AAAA4AAAAAAAA4AA444AAAAA44A4AAAA4AAA4AA4A44A4A44A4AI4AA4A444AII4
IIIIIIAI4IIIIIIIIIIIIIIIIIIIIIIIIIIIIIIIIIIIIIIIIIIIIIIIIIIIIIII
IIIIIIAI4IIIIIIIIIIIIIIIIIIIIAI4IIIIIIIIIIIIIIIIIIIIIIIIIIIIIIII
IIIIIIAI4IIIIIIIIIIIIIIIIIIIIAI4IIIAI4IIIIIIIIIIIIIIIIIIIIIIIIII
IIIIIIAI4IIIIIIIIIIIIIIIIIIIIAI4IIIAI4IIIIIIIIAI4IIIIIIIIIIIIIII
IIIIIIAI4IIIIIIIIIIIIIIIIIIIIAI4IIIAI4IIIIIIIIAI4IIIIIIIAI4IIIII
IIIIIIAI4IIIIIIIIIIA4IIIIIIIIAI4IIIAI4IIIIIIIIAI4IIIIIIIAI4IIIII
IIIIIIAI4IIIIIIIIIIA4IIIIIIIIAI4IIIAI4IIIIIIIIAI4IIIIIA4AI4IIIII
IIIIIIAI4IIIIIIIIIIA4IIIIIIIIAI4IIIA44IIIIIIIIAI4IIIIIA4AI4IIIII
IIAIIIAI4I44IIIIIIIA4IIIIIIIIAI4IIIA44IIIIIIIIAI4IIIIIA4AI4IIIII
IIAIIAAI4I44I44IIIIA4IIIIIIIIAI4IIIA44IIIIIIIIAI4IIIIIA4AI4IIIII
IIAIIAAI4I444444IIIA4IIIIIIIIAI4IIIA44IIIIIIIIAI4IIIIIA4AI4IIIII
IIAIIAAI4I44A444II4A44IIIIIIIAI4IIIA44IIIIIIIIAI4IIIIIA4AI4IIIII
IIAIIAAI4I44A444II4A4AIIIII4IA44IIIA44IIIIIIIIAI4IIIIIA4AI4IIIII
IIAIIAAI4I44A444II4A4AIIAII4IA4444IA44IIIIIIIIAI4IIIIIA4AI4IIIII
IIAIIAAI4I44A444II4A4AIIAIA4IA44444A44IIIIIIIIAI4IIIIIA4AI4IIIII
IIAIIAAI4I44A444II4A4AIIAIA4IAA4444A4444IIIIIIAI4IIIIIA4AI4IIIII
IIAIIAAI4I44A444II4A4AIIAIA4IAA4444A4A44III4I4AI4IIIIIA4AI4IIIII
IIAIIAAI4I44A444II4A4AIIAIA4IAA4444A4A44IIIAI4AI44I44IA4AI4IIIII
IIAIIAAI4I44A444II4A4AIIAIA4IAA4444A4A44IIIAA4AI444444A4AI4IIIII
IIAIIAAI4I44A444II4A4AIIAIA4IAA4444A4A44IIIAA4AIA44444A4A44IIIII
IIAIIAAI4I44A444II4A4AIIAIA4IAA4444A4A44IIIAA4AIA44444A4A44III4I
IIAAIAA44I44A444II4A4AIIAIA4IAA4444A4A44IIIAA4AIA44444A4A44III4I
IIAAIAA44444A444II4A4AIIAIA4IAA4444A4A44IIIAA4AIA44444A4A44III4I
IIAAIAA44444A444II4A4AIIAIA4IAA444AA4A44IIIAA4AIA44444A4A44III4I
IIAAIAA44444A444II4A4AIIAIA4IAA444AA4A44IIIAA4AIA4A444A4A44III4I
IIAAIAA44444A444II4A4AIIAIA4IAA444AA4A44IIIAAAA4A4A444A4A44III4I
IIAAIAA44444A444AI4A4AIIAIA4IAA444AA4A44IIIAAAA4A4A444A4A44III4I
IIAAIAA44444A444AI4A4AIIAIA4IAA444AA4A44IIIAAAA4A4A444A4A44I4I4I
IIAAIAA44444A444AI4A4AIIAIA4IAA444AA4A44IIIAAAA4A4A444A4A444444I
IIAAIAA44444A444AI4A4AIIAIA4IAA444AA4A44IIIAAAA4A4A444A4A4444444
IIAAIAA44444A444AI4A4AIIAIA4IAA444AA4A44IIIAAAA4A4A44AA4A4444444
IIAAIAA44444A444AI4A4AI4AIA4IAA444AA4A44IIIAAAA4A4A44AA4A4444444
IIAAIAAA4444A444AI4A4AI4AIA4IAA444AA4A44IIIAAAA4A4A44AA4A4444444
IIAAIAAA4444A444AI4A4AI4AIA4IAA444AAAA4444IAAAA4A4A44AA4A4444444
IIAAIAAA4444A444AI4A4AI4AIA4IAA444AAAA44A4IAAAA4A4A44AA4A4444444
IIAAIAAA4444A444AI4A4AI4AIA4IAA444AAAA44A4IAAAA4A4A44AA4A444A444
IIAAIAAA4444A444AI4A4A44AIA44AA444AAAA44A4IAAAA4A4A44AA4A444A444
IIAAIAAA4444A444AI4A4A44AIA44AA4A4AAAA44A4IAAAA4A4A44AA4A444A444
IIAAIAAA4444A444AI4A4A44AIA44AA4A4AAAA44A44AAAA4A4A44AA4A444A444
IIAAIAAA4444A444AI4A4I44AIA44AA4A4AAAA44A44AAAA4A4A44AA4A444A444
IIAAIAAA4444A444AI4A4I44AIA44AA4A4AIAA44A44AAAA4A4A44AA4A444A444
IIAAIAAA4444A444AI4A4I44AIA44AA4A4AIAA44A44IAAA4A4A44AA4A444A444
IIAAIAAA4444A444AI4A4I44AIA44AA4A4AIAA44A44IAAA4I4A44AA4A444A444
IIAAIAAA4444A444AI4A4I44AIA44AA4I4AIAA44A44IAAA4I4A44AA4A444A444
IIAA2AAA2444A444AI4A4I44AIA44AA4I4AIAA44A44IAAA4I4A44AA4A444A444
IIAA2AAA2444A244AI4A4I44AIA44AA4I4AIAA44A44IAAA4I4A44AA4A444A444
IIAA2AAA2444A244AI4A4I44AIA44AA4I4AIAA44A44IAAA4I4A44AA4A222A222
IIAA2AAA2444A244AI4A4I44AIA44AA4I4AIAA44A44IAAA4I4A44AA4A22IA222
IIAA2AAA2444A244AI4A4I44AIA44AA4I4AIAA44A44IAAA4I4A44AA4A22IA2I2
IIAA2AAA2444I244AI4A4I44AIA44AA4I4AIAA44A44IAAA4I4A44AA4A22IA2I2
IIAA2AAA2444I244AI4A4I44AIA44AA4I4AIAA44A44IAAA4I4A44AA4A2IIA2I2
IIAA2AAA2444I244AI4A4I44AIA44AA4I4AIAA44A44IAAA4I4A44AA4A24IA2I2
IIAA2AAA2444I244AI4A4I44AIA44AA4I4AIAA44A44IAAA4I4A44AA4A24IAAI2
IIAA2AAA2444I244AI4A4I44AIA44AA444AIAA44A44IAAA4I4A44AA4A24IAAI2
AIAA2AAA2444I244AI4A4I44AIA44AA444AIAA44A44IAAA4I4A44AA4A24IAAI2
AIAA2AAA2444I244AI4A4I44AIA44AA444AAAA44A44IAAA4I4A44AA4A24IAAI2
AIAA2AAA2444I244AI4A4I44AIA44AA444AAAAA4A444AAA4I4A44AA4A24IAAI2
AIAA2AAA2444I244AI4A4I44AIA44AA444AAAAA4A444AAA444A44AA4A24IAAI2
AIAA2AAA2444I244AI4A4I44AIA44AA444AAAAA4A444AAA444A44AA4A244AAI2
AIAA2AAA24444244AI4A4I44AIA44AA444AAAAA4A444AAA444A44AA4A244AAI2
AIAA2AAA24444244AI4A4444A4A44AA444AAAAA4A444AAA444A44AA4A244AAI2
AIAA2AAA24444244AI4A4444A4A44AA444AAAAA4A444AAA444A44AA4A244AA42
AIAAAAAA24444244AI4A4444A4A44AA444AAAAA4A444AAA444A44AA4A244AA42
AIAAAAAA244A4244AI4A4444A4A44AA444AAAAA4A444AAA444A44AA4A244AA42
AIAAAAAA244A4244AI4AA444A4A44AA444AAAAA4A444AAA444A44AA4A244AA42
AIAAAAAA244A4244AI4AA444A4A44AA444AAAAA4A44AAAA444A44AA4A244AA42
AIAAAAAA244A4244AI4AA444A4A44AA444AAAAA4A4AAAAA444A44AA4A244AA42
AIAAAAAA244A4244AI4AAA44A4A44AA444AAAAA4A4AAAAA444A44AA4A244AA42
AIAAAAAA244A42A4A44AAA44A4A44AA444AAAAA4A4AAAAA444A44AA4A244AA42
AIAAAAAA244A42A4A44AAA44A4A44AA444AAAAA4A4AAAAA4A4A44AA4A244AA42
AIAAAAAA244AA2A4A44AAA44A4A44AA444AAAAA4A4AAAAA4A4A44AA4A244AA42
AIAAAAAA244AAAA4A44AAA44A4A44AA444AAAAA4A4AAAAA4A4A44AA4A244AA42
AIAAAAAA244AAAA4AA4AAA44A4A44AA444AAAAA4A4AAAAA4A4A44AA4A244AA42
AIAAAAAA244AAAA4AA4AAAA4A4A44AA444AAAAA4A4AAAAA4A4A44AA4A244AA42
AIAAAAAA244AAAA4AA4AAAAAA4A44AA444AAAAA4A4AAAAA4A4A44AA4A244AA42
AIAAAAAA244AAAA4AA4AAAAAAAA44AA444AAAAA4A4AAAAA4A4A44AA4A244AA42
AIAAAAAA244AAAA4AA4AAAAAAAAA4AA444AAAAA4A4AAAAA4A4A44AA4A244AA42
AIAAAAAA244AAAA4AA4AAAAAAAAA4AA4A4AAAAA4A4AAAAA4A4A44AA4A244AA42
AIAAAAAA244AAAA4AA4AAAAAAAAA4AA4AAAAAAA4A4AAAAA4A4A44AA4A244AA42
AIAAAAAA244AAAA4AA4AAAAAAAAA4AA4AAAAAAAAA4AAAAA4A4A44AA4A244AA42
AIAAAAAA244AAAA4AA4AAAAAAAAA4AA4AAAAAAAAA4AAAAAAA4A44AA4A244AA42
AIAAAAAA244AAAA4AA4AAAAAAAAA4AA4AAAAAAAAA4AAAAAAAAA44AA4A244AA42
AIAAAAAA244AAAA4AA4AAAAAAAAA4AA4AAAAAAAAA4AAAAAAAAA4AAA4A244AA42
AIAAAAAA244AAAA4AA4AAAAAAAAA4AA4AAAAAAAAA4AAAAAAAAA4AAAAA244AA42
AIAAAAAA244AAAA4AA4AAAAAAAAA4AA4AAAAAAAAA4AAAAAAAAA4AAAAAA44AA42
AIAAAAAA244AAAA4AA4AAAAAAAAA4AA4AAAAAAAAA4AAAAAAAAA4AAAAAAA4AA42
AIAAAAAA244AAAA4AA4AAAAAAAAAAAA4AAAAAAAAA4AAAAAAAAA4AAAAAAA4AA42
AIAAAAAA244AAAAAAA4AAAAAAAAAAAA4AAAAAAAAA4AAAAAAAAA4AAAAAAA4AA42
AIAAAAAA244AAAAAAAAAAAAAAAAAAAA4AAAAAAAAA4AAAAAAAAA4AAAAAAA4AA42
AIAAAAAAA44AAAAAAAAAAAAAAAAAAAA4AAAAAAAAA4AAAAAAAAA4AAAAAAA4AA42
AIAAAAAAA4AAAAAAAAAAAAAAAAAAAAA4AAAAAAAAA4AAAAAAAAA4AAAAAAA4AA42
AAAAAAAAA4AAAAAAAAAAAAAAAAAAAAA4AAAAAAAAA4AAAAAAAAA4AAAAAAA4AA42
AAAAAAAAA4AAAAAAAAAAAAAAAAAAAAA4AAAAAAAAA4AAAAAAAAAAAAAAAAA4AA42
IIAI4IIII4IIIIIIIIIIIIIIIIIIIIIIIIIIIIIIIIIIIIIIIIIIIIIIIIIIIIII
IIAI4IIII4IIIIIIIAI4IIII4IIIIIIIIIIIIIIIIIIIIIIIIIIIIIIIIIIIIIII
IIAI4IIII4IIIIIIIAI4IAI44III4IIIIIIIIIIIIIIIIIIIIIIIIIIIIIIIIIII
IIAI4IIII4IIIIIIIAI4IAI44III4IAI4IIII4IIIIIIIIIIIIIIIIIIIIIIIIII
IIAI4IIII4IIIIIIIAI4IAI44III4IAIAI4II4I4IIIIIIIIIIIIIIIIIIIIIIII
IIAI4IIII4IIIIIIIAI4IAI44III4IAIAA44I4I44IIIIIIIIIIIIIIIIIIIIIII
IIAI4IIII4IIIIIIIAI4IAI44III4IAIAA4AI4I44I4IIIIIIIIIIIIIIIIIIIII
IIAI4IIII4IIIIIIIAI4IAI44III4IAIAA4AI4A44I4II4IIIIIIIIIIIIIIIIII
IIAI4IIII4IIIIIIIAI4IAI44III4IAIAA4AI4A44I4II4IIAI4IIII4IIIIIIII
IIAI4IIII4IIIIIIIAI4IAI44III4IAIAA4AI4A44I4II4IIAI4IIAI4IIII4III
IIAI4IIII4IIIIIIIAI4IAI44III4IAIAA4AI4A44I4II4IIAI4IIAI4AI4I4II4
IIAI4IIII4IIIIIIIAI4IAI44III4IAIAA4AI4A44I4II4IIAI4IIAI4AI4IAI44
IIAI4IIII4IIIIIIIAI4IAI44III4IAIAA4AI4A44I4II4IIAIAIIAI4AI4IAI44
IIAI4IIII4IIIIIIIAI4IAI44I4I4IAIAA4AI4A44I4II4IIAIAIIAI4AI4IAI44
IIAA4III44IIIIIIIAI4IAI44I4I4IAIAA4AI4A44I4II4IIAIAIIAI4AI4IAI44
IIAA4IA4444IIIIIIAI4IAI44I4I4IAIAA4AI4A44I4II4IIAIAIIAI4AI4IAI44
IIAA4IA4444IIIIIIAI4IAI44I4I4IAIAA4AI4A4A44I44IIAIAIIAI4AI4IAI44
IIAA4IA4444IIIIIIAI4IAI44I4I4IAIAA4AI4A4A44I44IIAIAIIAI4A44IAI44
IIAA4IA4444IIIIIIAIAIA444I4I4IAIAA4AI4A4A44I44IIAIAIIAI4A44IAI44
IIAA4IA4444IIIIIIAIAIA444IAI44AIAA4AI4A4A44I44IIAIAIIAI4A44IAI44
IIAA4IA4444IIIIIIAIAIA444IAI44AIAA4A44A4A44I44IIAIAIIAI4A44IAI44
IIAA4IA4444IIIIIIAIAIA444IAI44AIAA4A44A4A44A444IAIAIIAI4A44IAI44
IIAA4IA4444IIIIIIAIAIA444IAI44AIAA4A44A4A44A444IAIA4IAI4A44IAI44
IIAA4IA4444IIIIIIAIAIA444IAI44AIAA4A44A4A44A444IAIA4IAI4A444AI44
IIAA4IA4444IIIIIIAIAIA444IAI44A4AA4A44A4A44A444IAIA4IAI4A444AI44
IIAA4IA4444IIIIIIAIAIA444IAI44A4AA4A44A4A44A444IAIA4IAI4A444A444
IIAA4IA444A4IIIIIAIAIA444IAI44A4AA4A44A4A44A444IAIA4IAI4A444A444
IIAA4IA444A4IIA4IAIAIA444IAI44A4AA4A44A4A44A444IAIA4IAI4A444A444
IIAA4IA444A4IIA4IAIAIA444IAI4AA4AA4A44A4A44A444IAIA4IAI4A444A444
AIAA4IA444A4IIA4IAIAIA444IAI4AA4AA4A44A4A44A444IAIA4IAI4A444A444
AIAA4AA444A4IIA4IAIAIA444IAI4AA4AA4A44A4A44A444IAIA4IAI4A444A444
AIAA4AA444A4IIA4IAIAIA444IAI4AA4AAAA44A4A44A444IAIA4IAI4A444A444
AIAA4AA444A4IIA4IAIAIA444IAI4AA4AAAA44A4A44A4A44AIA4IA44A444A444
AIAA4AA444A4IIA4IAIAAA444IAI4AA4AAAA44A4A44A4A44AIA4IA44A444A444
IIIIIIIIIIIIIIIIIIIIIIIIIIIIIIIIIIIIIIIIIIIIIIIIIIIIIIIIA22I4I4I
IIIIIIIIA4I4I4IIIIIIIIIIIIIIIIIIIIIIIIIIIIIIIIIIIIIIIIIIA22I4I4I
IIIIIIIIA4A4I4I4IIIIIIIIIIIIIIIIIIIIIIIIIIIIIIIIIIIIIIIIA22I4I4I
IIIIIIIIA4A4I4I4IIIIIIIIIIIIIAI444I4IIIIIIIIIIIIIIIIIIIIA22I4I4I
IIIIIIIIA4A4I4I4IIIIIIIIIIIIIAA444444IIIIIIIIIIIIIIIIIIIA22I4I4I
IIIA4I44A4A4I4I4IIIIIIIIIIIIIAA444444IIIIIIIIIIIIIIIIIIIA22I4I4I
IIIA4I44A4A4I4I4IIIIIA4I44I44AA444444IIIIIIIIIIIIIIIIIIIA22I4I4I
IIIA4I44A4A4I4I4IIIIIA4I44I44AA4444444II4IIIIIIIIIIIIIIIA22I4I4I
IIIA4I44A4A4I4I4IIIIIA4I44I44AA4444A4444444II4IIIIIIIIIIA22I4I4I
IIIA4I44A4A4I4I4IIIIIA4I44I44AA4444A4A44444444I4IIIIIIIIA22I4I4I
IIIA4I44A4A4I4I4IIIIIA4I44I44AA4444A4A44444444I4IIIIIIIIA2244I44
IIIA4IA4A4A4I4I4IIIIIA4I44I44AA4444A4A44444444I4IIIIIIIIA2244I44
IIIA4IA4A4A4I4I4IIIIIA4I44I44AA4444A4A4444444A44444II4IIA2244I44
IIIA4IA4A4A4I4I4IIIIIA4I44I44AA4444A4AA444444A44444II4IIA2244I44
IIIA4IA4A4AA4444IIIIIA4I44I44AA4444A4AA444444A44444II4IIA2244I44
IIIA4IA4A4AA4444IIIIIA4444I44AA4444A4AA444444A44444II4IIA2244I44
IIIA4IA4A4AA4444IIIIIA4444I44AA4444A4AA4A4444A44444II4IIA2244I44
IIIA4IA4A4AA4444IIIIIA4444I44AA4444A4AA4A4444A44A444I4IIA2244I44
IIAA4IA4A4AA4444IIIIIA4444I44AA4444A4AA4A4444A44A444I4IIA2244I44
IIAA44A4A4AA4444IIIIIA4444I44AA4444A4AA4A4444A44A444I4IIA2244I44
IIAA44A4A4AA4444II4IIA4444I44AA4444A4AA4A4444A44A444I4IIA2244I44
IIAA44A4A4AA4444II4IIA4444I44AA44A4A4AA4A4444A44A444I4IIA2244I44
IIAA44A4A4AA4444II4IIA4444I44AA44AAA4AA4A4444A44A444I4IIA2244I44
IIAA44A4A4AA4444II4IIA4444I44AA44AAA4AA4A4444A44A444I4I4A2244I44
IIAA44A4A4AA4444II4IIA4444I44AA44AAA4AA4A4444A44A444IAI4A2244I44
IIAA44A4A4AA4444II4IIA4444I44AA44AAA4AA4A4444A44A444IAI4A224AI44
IIAA44A4A4AA4444II4IIA4444444AA44AAA4AA4A4444A44A444IAI4A224AI44
IIAA44A4A4AA4444II4IIA4444444AA44AAA4AA4AA444A44A444IAI4A224AI44
IIAA44A4A4AA4444II4IIA4444444AA44AAA4AA4AA4A4A44A444IAI4A224AI44
IIAA44A4A4AA4444II4IIA4444444AA44AAA4AA4AA4A4A44A444IAI4A224A444
IIAA44A4A4AA4444II4IAA4444444AA44AAA4AA4AA4A4A44A444IAI4A224A444
IIAA44A4A4AA4444II4IAA444444AAA44AAA4AA4AA4A4A44A444IAI4A224A444
IIAA44A4A4AA4444II4IAA444444AAA44AAAAAA4AA4A4A44A444IAI4A224A444
IIAA44A4A4AA4444II4IAA444444AAA44AAAAAA4AA4A4AA4A444IAI4A224A444
IIAA44A4A4AA4444444IAA444444AAA44AAAAAA4AA4A4AA4A444IAI4A224A444
IIAA44A4A4AA4444444IAA44444AAAA44AAAAAA4AA4A4AA4A444IAI4A224A444
IIAA44A4A4AA4444444IAAA4444AAAA44AAAAAA4AA4A4AA4A444IAI4A224A444
IIAA44A4A4AA4444444IAAA4444AAAA44AAAAAA4AA4AAAA4A444IAI4A224A444
IIAA44A4A4AA4444444IAAA444AAAAA44AAAAAA4AA4AAAA4A444IAI4A224A444
IIAA44A4A4AA4444444IAAA444AAAAA44AAAAAA4AA4AAAA4A4A44AI4A224A444
IIAA44A4A4AA44444444AAA444AAAAA44AAAAAA4AA4AAAA4A4A44AI4A224A444
IIAA44A4A4AA4A444444AAA444AAAAA44AAAAAA4AA4AAAA4A4A44AI4A224A444
IIAA44A4A4AA4A44A444AAA444AAAAA44AAAAAA4AA4AAAA4A4A44AI4A224A444
IIAA44A4A4AA4A44AA44AAA444AAAAA44AAAAAA4AA4AAAA4A4A44AI4A224A444
IIAA44A4A4AA4A44AA44AAA444AAAAA44AAAAAA4AA4AAAA4A4A44A44A224A444
IIAA44A4A4AA4A44AA44AAA444AAAAA44AAAAAA4AAAAAAA4A4A44A44A224A444
IIAA44A4A4AA4A44AA44AAA444AAAAA44AAAAAA4AAAAAAA4A4A44AA4A224A444
IIIIIIIIIIIIIIIIIIIIIIIIIIIIAIIIIII4IIIIIIIIIIIIIIIIIIIIIIIIIIII
IIIIIIIIIIIIIIIIIIIIIIIIIIIIAIIIIIIAIIIIII4IIIIIIIIIIIIIIIIIIIII
IIIIIIIIIIIIIIIIIIIIIIIIIIIIAIIIIIIAIIIIII4AIIIIII4IIIIIIIIIIIII
IIIIIIIIIIIIIIIIIIIIIIIIIIIIAIIIIIIAIIIIII4AIAIIII4I4IIIIIIIIIII
IIIIIIIIIIIIIIIIIIIIIIIIIIIIAIIIIIIAIIIIII4AIAAIII4I44IIIIIIIIII
IIIIIIIIIIIIIIIIIIIIIIIIIIIIAIIIIIIAIAIIII4AIAAIII4I44IIIIIIIIII
IIIIIIIIIIIIIIIIIIIIIIIIIIIIAIIIIIIAIAIIII4AIAAIII4I44AIIIIIIIII
IIIIIIIIIIIIIIIIIIIIIIIIIIIIAIIIIIIAIAIIII4AIAAIII4I44AIAIIIIIII
IIAIIIIIIIIIIIIIIIIIIIIIIIIIAIIIIIIAIAIIII4AIAAIII4I44AIAIIIIIII
IIAIIIIIIIIIIIIIIIIIIIIIIIIIAIIIIIIIIAIIII4AIAAIII4I44AIAIIIIIII
IIAIIIIIIIIIIIIIIIIIIIIIIIIIAIIIIIIIIAIIII4AIIAIII4I44AIAIIIIIII
IIAIIIIIIIIIIIIIIIIIIIIIIIIIAIIIIIIIIAIIII4A4IAI4I4I44AIAIIIIIII
IIAIIIIIIIIIIIIIIIIIIIIIIIIIAIIIIIIIIAIIII4A4IAI4I4I44AIA4III4I4
IIAIIIIIIIIIIIIIIIIIIIIIIIIIAIIIIIA44AIIII4A4IAI4I4I44AIA4III4I4
IIAIIIIIIIIIIIIIIIIIIIIIIIIIAIIIIIA44AIIII4A4IAA444I44AIA4III4I4
IIAIIIIIIIIIIIIIIIIIIIIIIIIIAIIIIIA44AIIII4A4IAA444I44A4A4III4I4
IIAIIIIIIIIIIIIIIIIIIIIIIIIIAIIIIIA44AIIII4A4IAA444I44A4A4IIA444
IIAIIIIIIIIIIIIIIIIIIIIIIIIIA444IIA44AIIII4A4IAA444I44A4A4IIA444
IIAIIIIIIIIIIIIIIIIIIIIIIIIIA4A444A44AIIII4A4IAA444I44A4A4IIA444
IIAIIIIIIIIIIIA44II4IIIIIIIIA4A444A44AIIII4A4IAA444I44A4A4IIA444
IIAIIIIIIIIIIIA44II4IIIA44IIA4A444A44AIIII4A4IAA444I44A4A4IIA444
IIAIIIIIIIIIIIA44II4IIIA44IIA4A444A44AIIII4A4IAA444I44A4A4I4A444
IIAA4III4IIIIIA44II4IIIA44IIA4A444A44AIIII4A4IAA444I44A4A4I4A444
IIAAA4II44IIIIA44II4IIIA44IIA4A444A44AIIII4A4IAA444I44A4A4I4A444
IIAAA4A444I4IIA44II4IIIA44IIA4A444A44AIIII4A4IAA444I44A4A4I4A444
IIAAA4A444I4IAA44I44IIIA44IIA4A444A44AIIII4A4IAA444I44A4A4I4A444
IIAAA4A444I4IAA44IA4IIIA44IIA4A444A44AIIII4A4IAA444I44A4A4I4A444
IIAAA4A444I4IAA44IA4A4IA44IIA4A444A44AIIII4A4IAA444I44A4A4I4A444
IIAAA4A444I4IAA44IA4AA4A444IA4A444A44AIIII4A4IAA444I44A4A4I4A444
IIAAA4A444I4IAA44IA4AA4A44A4A4A444A44AIIII4A4IAA444I44A4A4I4A444
IIAAA4A444I4IAA44IA4AA4A44A4A4A444AA4AII4I4A4IAA444I44A4A4I4A444
IIAAA4A444I4IAA44IA4AA4A44A4A4A444AA4AA44I4A4IAA444I44A4A4I4A444
IIAAA4A444I4IAA44IA4AA4A44A4A4A444AA4AA44I4A4AAA444I44A4A4I4A444
IIAAA4A444I4IAA44IA4AA4A44A4A4A444AA4AA44I4A4AAA444I4AA4A444A444
IIAAA4A444I4IAA44IA4AA4A44A4A4A444AAAAA44I4A4AAA444I4AA4A444A444
IIAAA4A444I4IAA44IA4AA4A44A4A4A444AAAAA44I4AAAAA444I4AA4A444A444
IIAAA4A444I4IAA44IA4AA4A44A4A4A444AAAAA44I4AAAAA444A4AA4A444A444
IIAAA4A44444IAA44IA4AA4A44A4A4A444AAAAA44I4AAAAA444A4AA4A444A444
IIAAA4A44444IAA44IA4AA4A44A4A4A444AAAAA44I4AAAAA444A4AAAA444A444
IIAAA4A44444IAA44IA4AAAA44A4A4A444AAAAA44I4AAAAA444A4AAAA444A444
IIAAA4A444444AA44IA4AAAA44A4A4A444AAAAA44I4AAAAA444A4AAAA444A444
IIAAA4A444444AA44IA4AAAA44A4A4A44AAAAAA44I4AAAAA444A4AAAA444A444
IIAAA4A444444AA44IA4AAAA44A4A4A44AAAAAAA444AAAAA444A4AAAA444A444
IIAAA4A444444AA44IA4AAAA44A4A4A44AAAAAAA444AAAAA444A4AAAA444AA44
IIAAA4A444444AA4AIA4AAAA44A4A4A44AAAAAAA444AAAAA444A4AAAA444AA44
IIAAA4A444444AA4AIA4AAAA44A4A4A4AAAAAAAA444AAAAA444A4AAAA444AA44
IIAAA4A444444AA4AIA4AAAA44A4A4A4AAAAAAAA444AAAAAA44A4AAAA444AA44
IIAAA4A444444AA4A4A4AAAA44A4A4A4AAAAAAAA444AAAAAA44A4AAAA444AA44
IIAAA4A444444AA4AAA4AAAA44A4A4A4AAAAAAAA444AAAAAA44A4AAAA444AA44
IIAAA4A444444AA4AAA4AAAA44A4AAA4AAAAAAAA444AAAAAA44A4AAAA444AA44
IIAAA4A444444AA4AAA4AAAA44A4AAA4AAAAAAAAA44AAAAAA44A4AAAA444AA44
IIAAA4A444444AA4AAAAAAAA44A4AAA4AAAAAAAAA44AAAAAA44A4AAAA444AA44
IIAAA4A4444A4AA4AAAAAAAA44A4AAA4AAAAAAAAA44AAAAAA44A4AAAA444AA44
IIAAA4A4444A4AA4AAAAAAAA44A4AAA4AAAAAAAAA44AAAAAA44A4AAAA444AA4A
IIAAA4A4444A4AA4AAAAAAAA44A4AAA4AAAAAAAAAA4AAAAAA44A4AAAA444AA4A
IIAII4IIIII4IIIIIIIIIIIIIIIIIIIIIIIIIIIIIIIIIIIIIIIIIIIIIIIIIIII
IIAAI44IIII44IIIIIIIIIIIIIIIIIIIIIIIIIIIIIIIIIIIIIIIIIIIIIIIIIII
IIAAI4AII4I44II4IIIIIIIIIIIIIIIIIIIIIIIIIIIIIIIIIIIIIIIIIIIIIIII
IIAAI4AII4I44AI44IIIII4IIIIIIIIIIIIIIIIIIIIIIIIIIIIIIIIIIIIIIIII
IIAAI4AII4I44AI44IIIIA4I4IIIII4IIIIIIIIIIIIIIIIIIIIIIIIIIIIIIIII
IIAAI4AII4I44AI44IIIIA4I4IIIIA4I4IIIII4IIIIIIIIIIIIIIIIIIIIIIIII
IIAAI4AII4I44AI44IIIIA4I4IIIIA4I4IAII44IIII4IIIIIIIIIIIIIIIIIIII
IIAAI4AII4I44AI44IIIIA4I4IIIIA4I4IAAI44IIII44IIIIIIIIIIIIIIIIIII
IIAAI4AII4I44AI44IIIIA4I4IIIIA4I4IAAIA4I4II44I4IIIIIIIIIIIIIIIII
IIAAI4AII4I44AI44IIIIA4I4IIIIA4I4IAAIAAI44I44I44IIIIIIIIIIIIIIII
IIAAI4AII4I44AI44IIIIA4I4IIIIA4I4IAAIAAI44I4AI44IIIII4IIIIIIIIII
IIAAI4AII4I44AI44IIIIA4I4IIIIA4I4IAAIAAI44I4AA444IIII44IIIIIIIII
IIAAI4AII4I44AI44IIIIA4I4IIIIA4I4IAAIAAI44I4AA4A4I4II44I4IIIIIII
IIAAI4AII4I44AI44IIIIA4I4IIIIA4I4IAAIAAI44I4AA4A4IAII44I4II4IIII
IIAAI4AII4I44AI44IIIIA4I4IIIIA4I4IAAIAAI44I4AA4A4IAII4AI44I4III4
IIAAI4AII4I44AI44IIIIA4I4IIIIA4I4IAAIAAI44I4AA4A4IAII4AIA4I4III4
IIAAI4A4I4I44AI44IIIIA4I4IIIIA4I4IAAIAAI44I4AA4A4IAII4AIA4I4III4
IIAAI4A4I4I44AIA4IIIIA4I4IIIIA4I4IAAIAAI44I4AA4A4IAII4AIA4I4III4
IIAAI4A4I4I44AIA4IIIIA4I4IIIIA4I4IAAIAAI44I4AA4A4IAII4A4A4I4III4
IIAA44A4I4I44AIA4IIIIA4I4IIIIA4I4IAAIAAI44I4AA4A4IAII4A4A4I4III4
IIAA44A4I4I44AIA4IIIIA4I4IIA4A4I4IAAIAAI44I4AA4A4IAII4A4A4I4III4
IIAA44A4I4I44AIA4IIIIA4I4IIA4A4I4IAA4AAI44I4AA4A4IAII4A4A4I4III4
IIAA44A4I4I44AIA4IIIIA4I4III4A4I4IAA4AAI44I4AA4A4IAII4A4A4I4III4
IIAA44A4I4I44A4A4IIIIA4I4III4A4I4IAA4AAI44I4AA4A4IAII4A4A4I4III4
IIAA44A4I4444A4A4IIIIA4I4III4A4I4IAA4AAI44I4AA4A4IAII4A4A4I4III4
IIAA44A4I4444A4A4IIIIA4I4III4A4I4IAA4AAI44I4AA4A44A4I4A4A4I4III4
IIAA44A4I4444A4A4IIIIA4I4III4A4I4IAA4AAI44I4AA4A44A4I4A4A4444I44
IIAA44A444444A4A4IIIIA4I4III4A4I4IAA4AAI44I4AA4A44A4I4A4A4444I44
IIAA44A444444A4A4IIIIA4I4IIIAA444IAA4AAI44I4AA4A44A4I4A4A4444I44
IIAA44A444444A4A4IIIIA4I4IIIAAA44IAA4AAI44I4AA4A44A4I4A4A4444I44
IIAA44A444444AAA44IIIA4I4IIIAAA44IAA4AAI44I4AA4A44A4I4A4A4444I44
IIAA44A444444AAA44IIIA4I4IIIAAA44IAA4AAI44I4AA4AA4A4I4A4A4444I44
IIAA44A444444AAA44IIIA4I4IIIAAA444AA4AAI44I4AA4AA4A4I4A4A4444I44
IIAA44A444444AAA44IIIA4I4IIIAAA444AA4AAIA444AA4AA4A4I4A4A4444I44
IIAA44A444444AAA44IA4A4I4I4IAAA444AA4AAIA444AA4AA4A4I4A4A4444I44
IIAA44A444444AAA44IAAA444I44AAA444AA4AAIA444AA4AA4A4I4A4A4444I44
IIAA44A444444AAA44IAAA444I44AAA444AA4AA4A444AA4AA4A4I4A4A4444I44
IIAA44A444444AAA44AAAA444I44AAA444AA4AA4A444AA4AA4A4I4A4A4444I44
IIAA44A444444AAA44AAAA444I44AAA444AA4AA4A444AA4AA4A4I4A4A4444444
IIAA44A444A44AAA44AAAA444I44AAA444AA4AA4A444AA4AA4A4I4A4A4444444
IIAA44A444A44AAA44AAAA4A4I44AAA444AA4AA4A444AA4AA4A4I4A4A4444444
IIAA44A444A44AAA44AAAA4A4I44AAA444AA4AA4A444AA4AA4A444A4A4444444
IIAA44A444A44AAA44AAAA4A4I44AAA444AA4AA4A444AA4AA4A44AA4A4444444
IIAAA4A444A44AAA44AAAA4A4I44AAA444AA4AA4A444AA4AA4A44AA4A4444444
IIAAA4A4A4A44AAA44AAAA4A4I44AAA444AA4AA4A444AA4AA4A44AA4A4444444
IIAAA4A4A4AA4AAA44AAAA4A4I44AAA444AA4AA4A444AA4AA4A44AA4A4444444
IAAAA4A4A4AA4AAA44AAAA4A4I44AAA444AA4AA4A444AA4AA4A44AA4A4444444
AAAAA4A4A4AA4AAA44AAAA4A4I44AAA444AA4AA4A444AA4AA4A44AA4A4444444
AAAAA4A4A4AA4AAA44AAAA4A4444AAA444AA4AA4A444AA4AA4A44AA4A4444444
AAAAA4A4A4AA4AAA44AAAAAA4444AAA444AA4AA4A444AA4AA4A44AA4A4444444
AAAAA4A4AAAA4AAA44AAAAAA4444AAA444AA4AA4A444AA4AA4A44AA4A4444444
AAAAA4A4AAAAAAAA44AAAAAA4444AAA444AA4AA4A444AA4AA4A44AA4A4444444
AAAAA4A4AAAAAAAA4AAAAAAA4444AAA444AA4AA4A444AA4AA4A44AA4A4444444
AAAAA4A4AAAAAAAA4AAAAAAA44A4AAA444AA4AA4A444AA4AA4A44AA4A4444444
AAAAA4A4AAAAAAAA4AAAAAAA44A4AAA444AA4AA4A44AAA4AA4A44AA4A4444444
AAAAA4A4AAAAAAAA4AAAAAAA44A4AAA444AA4AA4A44AAA4AA4A44AA4A444A444
AAAAA4A4AAAAAAAA4AAAAAAA44A4AAA444AA4AA4A44AAA4AA4A44AA4A444AA44
AAAAA4A4AAAAAAAA4AAAAAAA44A4AAA444AA4AA4A44AAA4AA4A4AAA4A444AA44
AAAAA4A4AAAAAAAA4AAAAAAA44A4AAA4A4AA4AA4A44AAA4AA4A4AAA4A444AA44
AAAAA4A4AAAAAAAA4AAAAAAA44A4AAA4AAAA4AA4A44AAA4AA4A4AAA4A444AA44
AAAAA4AAAAAAAAAA4AAAAAAA44A4AAA4AAAA4AA4A44AAA4AA4A4AAA4A444AA44
AAAAA4AAAAAAAAAA4AAAAAAA44A4AAA4AAAA4AA4A44AAAAAA4A4AAA4A444AA44
AAAAA4AAAAAAAAAA4AAAAAAA44A4AAA4AAAA4AA4A44AAAAAA4A4AAA4A4A4AA44
AAAAA4AAAAAAAAAAAAAAAAAA44A4AAA4AAAA4AA4A44AAAAAA4A4AAA4A4A4AA44
AAAAA4AAAAAAAAAAAAAAAAAA44A4AAA4AAAA4AA4A4AAAAAAA4A4AAA4A4A4AA44
AAAAA4AAAAAAAAAAAAAAAAAA44A4AAA4AAAA4AAAA4AAAAAAA4A4AAA4A4A4AA44
AAAAA4AAAAAAAAAAAAAAAAAA44A4AAA4AAAAAAAAA4AAAAAAA4A4AAA4A4A4AA44
AAAAA4AAAAAAAAAAAAAAAAAA44A4AAA4AAAAAAAAA4AAAAAAA4AAAAA4A4A4AA44
AAAAA4AAAAAAAAAAAAAAAAAA44A4AAAAAAAAAAAAA4AAAAAAA4AAAAA4A4A4AA44
AAAAA4AAAAAAAAAAAAAAAAAA44A4AAAAAAAAAAAAA4AAAAAAA4AAAAAAA4A4AA44
AAAAA4AAAAAAAAAAAAAAAAAA44A4AAAAAAAAAAAAA4AAAAAAA4AAAAAAAAA4AA44
AAAAA4AAAAAAAAAAAAAAAAAA44A4AAAAAAAAAAAAAAAAAAAAA4AAAAAAAAA4AA44
IIIAIII4IIIIIIIIIIIIIIIIIIIIIIIIIIIIIIIIIIIIIIIIIIIIIIIIIIIIIIII
IIIAIIA4II4IIIIIIIIIIIIIIIIIIIIIIIIIIIIIIIIIIIIIIIIIIIIIIIIIIIII
IIIAIIA4II4AIII4IIIIIIIIIIIIIIIIIIIIIIIIIIIIIIIIIIIIIIIIIIIIIIII
IIIAIIA4II4AIII4IIIIIIIIIIIIIIIAIII4IIIIIIIIIIIIIIIIIIIIIIIIIIII
IIIAIIA4II4AIII4IIIIIIIIIIIIIIIAIII4IIIIIIIAIII4IIIIIIIIIIIIIIII
IIIAIIA4II4AIII4IIIIIIIIIIIIIIIAIII4IIIIIIIAIII4IIIIIIAIII4IIIII
IIIAIIA4II4AIII4IIIIIIIIIIIIIIIAIII4IIIIIIIAIII4IIIIIIAIAI4I4III
IIIAIIA4II4AIII4IIIIIIIIIIIIIIIAIII4IIIIIIIAIII4IIIIIIAIAI4I4IIA
IIAA4IA4II4AIII4IIIIIIIIIIIIIIIAIII4IIIIIIIAIII4IIIIIIAIAI4I4IIA
IIAA4IA44I4AIII4IIIIIIIIIIIIIIIAIII4IIIIIIIAIII4IIIIIIAIAI4I4IIA
IIAA4IA44I4AAI44IIIIIIIIIIIIIIIAIII4IIIIIIIAIII4IIIIIIAIAI4I4IIA
IIAA4IA44I4AAI44IAI4IIIIIIIIIIIAIII4IIIIIIIAIII4IIIIIIAIAI4I4IIA
IIAA4IA44I4AAI44IAI4IAI4IIIIIIIAIII4IIIIIIIAIII4IIIIIIAIAI4I4IIA
IIAA4IA44I4AAI44IAI4IAIAI4IIIIIAIII4IIIIIIIAIII4IIIIIIAIAI4I4IIA
IIAA4IA44I4AAI44IAI4IAIAI4IIIIAA4II4IIIIIIIAIII4IIIIIIAIAI4I4IIA
IIAA4IA44I4AAI44IAI4IAIAI4IIIIAA4IA44IIIIIIAIII4IIIIIIAIAI4I4IIA
IIAA4IA44I4AAI44IAI4IAIAI4IIIIAA4IAA44IIIIIAIII4IIIIIIAIAI4I4IIA
IIAA4IA44I4AAI44IAI4IAIAI4IIIIAA4IAA44IIIIIAAI44IIIIIIAIAI4I4IIA
IIAA4IA44I4AAI44IAI4IAIAI4IIIIAA4IAA44IIIIIAAI44IIIIAIAIAI4I4IIA
IIAA4IA44I4AAI44IAI4IAIAI4IIIIAA4IAA44IIIIIAAI44IIIIAIAIAI4IAI4A
IIAA4IA44I4AAI44IAI4IAIAI4IIIIAA4IAA44IIIIIAAI44IIIIAIAIAI4IAA4A
IIAA4IA44I4AAIA4IAI4IAIAI4IIIIAA4IAA44IIIIIAAI44IIIIAIAIAI4IAA4A
IIAA4AA44I4AAIA4IAI4IAIAI4IIIIAA4IAA44IIIIIAAI44IIIIAIAIAI4IAA4A
IIAA4AA4AI4AAIA4IAI4IAIAI4IIIIAA4IAA44IIIIIAAI44IIIIAIAIAI4IAA4A
IIAA4AA4AIAAAIA4IAI4IAIAI4IIIIAA4IAA44IIIIIAAI44IIIIAIAIAI4IAA4A
IIAA4AA4AIAAA4A4IAI4IAIAI4IIIIAA4IAA44IIIIIAAI44IIIIAIAIAI4IAA4A
IIAA4AA4AIAAAAA4IAI4IAIAI4IIIIAA4IAA44IIIIIAAI44IIIIAIAIAI4IAA4A
IIAA4AA4AIAAAAAAIAI4IAIAI4IIIIAA4IAA44IIIIIAAI44IIIIAIAIAI4IAA4A
IIAA4AA4AIAAAAAAIAI4IAIAI4IIIAAA4IAA44IIIIIAAI44IIIIAIAIAI4IAA4A
IIAA4AA4AIAAAAAAIAI4IAIAI4IIIAAA4IAA44IIAI4AAI44IIIIAIAIAI4IAA4A
IIAA4AA4AIAAAAAAIAI4IAIAI4IIIAAA4IAA44IIAI4AA444IIIIAIAIAI4IAA4A
IIAA4AA4AIAAAAAAIAI4IAIAI4IIIAAA4IAA44IIAI4AAA44IIIIAIAIAI4IAA4A
IIAA4AA4AIAAAAAAIAI4IAIAI4IIIAAA4IAA44IIAI4AAA44IIIIAAA4AI4IAA4A
IIAA4AA4AIAAAAAAIAI4IAIAI4IIIAAA4IAA44IIAI4AAA44IIIIAAA4AIAIAA4A
IIAA4AA4AIAAAAAAIAI4AAIAI4IIIAAA4IAA44IIAI4AAA44IIIIAAA4AIAIAA4A
IIAA4AA4AIAAAAAAIAI4AAIAI4AIIAAA4IAA44IIAI4AAA44IIIIAAA4AIAIAA4A
IIAA4AA4AIAAAAAAAAI4AAIAI4AIIAAA4IAA44IIAI4AAA44IIIIAAA4AIAIAA4A
IIAA4AA4AIAAAAAAAAI4AAIAI4AIIAAA4IAA4A4IAI4AAA44IIIIAAA4AIAIAA4A
IIAA4AA4AIAAAAAAAAI4AAIAI4AIIAAA4IAA4A4IAI4AAA44IIIIAAA4A4AIAA4A
IIIIIIAI4IIIIIIIIIIIIIIIIIIIIIIIIIIIIIIIIIIIIIIIIIIIIIIIIIIIIIII
IIIIIIAI4IIAI4IIIIIIIIIIIIIIIIIIIIIIIIIIIIIIIIIIIIIIIIIIIIIIIIII
IIIIIIAI4IIAI4AI4IIIIIIIIIIIIIIIIIIIIIIIIIIIIIIIIIIIIIIIIIIIIIII
IIIIIIAI4IIAI4AI4IIIIAI4IIIIIIIIIIIIIIIIIIIIIIIIIIIIIIIIIIIIIIII
IIIIIIAI4IIAI4AI4IIIIAA44IIIIIIIIIIIIIIIIIIIIIIIIIIIIIIIIIIIIIII
IIIIIIAI4IIAI4AI4IIIIAA44IIIIIAI4IIIIIIIIIIIIIIIIIIIIIIIIIIIIIII
IIIIIIAI4IIAI4AI4IIIIAA44IIIIIAI4IIAI4IIIIIIIIIIIIIIIIIIIIIIIIII
IIIIIIAI4IIAI4AI4IIIIAA44IIIIIAI4IIAI4IIIIIIAI4IIIIIIIIIIIIIIIII
IIIIIIAI4IIAI4AI4IIIIAA44IIIIIAI4IIAI4IIIIIIAA44IIIIIIIIIIIIIIII
IIIIIIAI4IIAI4AI4IIIIAA44IIIIIAI4IIAI4IIIIIIAA44IIIIIIIIAI4IIIII
IIIIIIAI4IIAI4AI4IIIIAA44IIIIIAI4IIAI4IIIIIIAA44IIIIIIIIAIAI4III
IIIAIIAI4IIAI4AI4IIIIAA44IIIIIAI4IIAI4IIIIIIAA44IIIIIIIIAIAI4III
IIIAIIAI44IAI4AI4IIIIAA44IIIIIAI4IIAI4IIIIIIAA44IIIIIIIIAIAI4III
IIIAIIAI44IAI4AI4IIIIAA44IIIIIAI44IAI4IIIIIIAA44IIIIIIIIAIAI4III
IIIAIIAI44IAI4AI4IIIIAA44IIIIIAI44AAI4IIIIIIAA44IIIIIIIIAIAI4III
IIIA4IAI44IAI4AI4IIIIAA44IIIIIAI44AAI4IIIIIIAA44IIIIIIIIAIAI4III
IIIA4IA444IAI4AI4IIIIAA44IIIIIAI44AAI4IIIIIIAA44IIIIIIIIAIAI4III
IIIA4IA444IAI4AI4IIA4AA44IIIIIAI44AAI4IIIIIIAA44IIIIIIIIAIAI4III
IIIA4IA444IAI4AI4IIA4AA44IIIIIAI44AAI4IIIIIIAA44IIIIIA4IA4AI4III
IIIA4IA444IAI4AI4IIA4AA44IIIIIAI44AAI4IIIIIIAA44IIIIIAA4A4AI4III
IIIA4IA444IAI4AI4IIA4AA44IIIIIAI44AAI4IIAI4IAA44IIIIIAA4A4AI4III
IIIA4IA444IA44AI4IIA4AA44IIIIIAI44AAI4IIAI4IAA44IIIIIAA4A4AI4III
IIIA4IA4A4IA44AI4IIA4AA44IIIIIAI44AAI4IIAI4IAA44IIIIIAA4A4AI4III
IIIA4IA4A4IA44AI4IIA4AA44II4IIAI44AAI4IIAI4IAA44IIIIIAA4A4AI4III
IIIA4IA4A4IA44AI4IIA4AA44II4IIAI44AAI4IIAI4IAA44III4IAA4A4AI4III
IIIA4IA4A4IA44AI4IIA4AA44II4IIAI44AAI4IIAI4IAA44III4IAA4A4AI4I4I
IIIA4IA4A4IA44AIAIIA4AA44II4IIAI44AAI4IIAI4IAA44III4IAA4A4AI4I4I
IIIA4IA4A4IA44AIAIIA4AA44IA4IIAI44AAI4IIAI4IAA44III4IAA4A4AI4I4I
IIIA4IA4A4IA44AIAIIA4AA44IA4IAAI44AAI4IIAI4IAA44III4IAA4A4AI4I4I
IIIA4IA4A4IA44AIAIIA4AA44IA4IAAI44AAIAIIAI4IAA44III4IAA4A4AI4I4I
IIIA4IA4A4IA44AIAIIA4AA44IA4IAAI44AAIAAIAI4IAA44III4IAA4A4AI4I4I
IIIA4IA4A4IA44AIAIIA4AA44IA4IAAI44AAIAAIAI4IAA44IIA4IAA4A4AI4I4I
IIIA4IA4A4IA44AIAIIA4AA44IA4IAAIA4AAIAAIAI4IAA44IIA4IAA4A4AI4I4I
IIIA4IA4A4IA44AIAIIA4AA44IA4IAAIA4AAIAAIAI4IAA444IA4IAA4A4AI4I4I
IIAA44A4A4IA44AIAIIA4AA44IA4IAAIA4AAIAAIAI4IAA444IA4IAA4A4AI4I4I
IIAA44A4A4AA44AIAIIA4AA44IA4IAAIA4AAIAAIAI4IAA444IA4IAA4A4AI4I4I
IIAA44A4A4AA44AIAIIAAAA44IA4IAAIA4AAIAAIAI4IAA444IA4IAA4A4AI4I4I
IIAA44A4A4AA44AIAIIAAAA44IA4IAAIA4AAIAA4AI4IAA444IA4IAA4A4AI4I4I
IIAA44A4A4AA44AIAIIAAAA44IA4IAAIA4AAAAA4AI4IAA444IA4IAA4A4AI4I4I
IIAA44A4A4AA44AIAIIAAAA44IA4IAAIA4AAAAA4AI44AA444IA4IAA4A4AI4I4I
IIAA44A4A4AA44AIAIIAAAA44IA4IAAIA4AAAAA4AIA4AA444IA44AA4A4AI4I4I
IIAA44A4A4AA44AIAIIAAAA44IA4IAAIA4AAAAA4AIA4AAA444A44AA4A4AI4I4I
IIAA44A4A4AA44AIAIIAAAA44IA4IAAIA4AAAAA4AIA4AAA444A44AA4A4A44I4I
IIAA44A4A4AA44AIAIIAAAA44IA4IAAIA4AAAAA4AIA4AAA444A44AA4A4A4AI44
IIAA44A4A4AA44AIA4IAAAA44IA4IAAIA4AAAAA4AIA4AAA444A44AA4A4A4AI44
IIAA44A4AAAA44AIA4IAAAA44IA4IAAIA4AAAAA4AIA4AAA444A44AA4A4A4AI44
IIAA44A4AAAA4AAIA4IAAAA44IA4IAAIA4AAAAA4AIA4AAA444A44AA4A4A4AI44
IIAA44A4AAAA4AA4A44AAAA44IA4IAAIA4AAAAA4AIA4AAA444A44AA4A4A4AI44
IIAA44A4AAAA4AA4AA4AAAA44IA4IAAIA4AAAAA4AIA4AAA444A44AA4A4A4AI44
IIAA44A4AAAA4AA4AA4AAAA44IA4IAA4A4AAAAA4AIA4AAA444A44AA4A4A4AI44
IIAA44A4AAAA4AA4AA4AAAA44IA4IAAAA4AAAAA4AIA4AAA444A44AA4A4A4AI44
IIAA44A4AAAA4AA4AA4AAAA44IA4IAAAA4AAAAAAAIA4AAA444A44AA4A4A4AI44
IIAA44A4AAAA4AA4AA4AAAA44IA4IAAAA4AAAAAAA4A4AAA444A44AA4A4A4AI44
IIAA44A4AAAA4AA4AA4AAAA44IA4IAAAA4AAAAAAA4A4AAA444A44AAAA4A4AI44
IIAA44A4AAAA4AA4AA4AAAA44IA4IAAAA4AAAAAAA4A4AAA444A44AAAA4A4AA44
IIAA44A4AAAA4AA4AA4AAAA444A4IAAAA4AAAAAAA4A4AAA444A44AAAA4A4AA44
IIAA44A4AAAAAAA4AA4AAAA444A4IAAAA4AAAAAAA4A4AAA444A44AAAA4A4AA44
IIAA44A4AAAAAAA4AA4AAAA444A4AAAAA4AAAAAAA4A4AAA444A44AAAA4A4AA44
IIAA44A4AAAAAAA4AA4AAAA444A4AAAAA4AAAAAAA4A4AAA4A4A44AAAA4A4AA44
IIA4IIIIIIIIIIIIIIIIIIIIIIIIIIIIIIIIIIIIIIIIIIIIIIIIIIIIIIIIIIII
IIA4IIA4IIIIIIIIIIIIIIIIIIIIIIIIIIIIIIIIIIIIIIIIIIIIIIIIIIIIIIII
IIA4IIA4IIIIIIA4IIIIIIIIIIIIIIIIIIIIIIIIIIIIIIIIIIIIIIIIIIIIIIII
IIA4IIA4IIIIIIA4IIIIIIIIIIIIIIIIIIIIIIIA4IIIIIIIIIIIIIIIIIIIIIII
IIA4IIA4IIIIIIA4IIIIIIIIIIIIIIIIIIIIIIIA4IIIIIIIIIIIIAIIIII4IIII
IIA4IIA4IIIIIIA4IIIIIIIIIIIIIIIIIIIIIIIA4IIIIIIIIIIIIAIIIII4IAII
IIA4IIA4IIIIAIA4IIIIIIIIIIIIIIIIIIIIIIIA4IIIIIIIIIIIIAIIIII4IAII
IIA4IIA4IIIIAIA4IIIIIIIIIIIIIAIIIIIIIIIA4IIIIIIIIIIIIAIIIII4IAII
IIA4IIA4IIIIAIA4IIIIIIIIIIIIIAAIIIIIIIIA4IIIIIIIIIIIIAIIIII4IAII
IIA4IIA4IIIIAIA4IIIIIIIIIIIIIAAIIIIAIIIA4IIIIIIIIIIIIAIIIII4IAII
IIA4IIA4IIIIAIA4IIIIIIIIIIIIIAAIIIIAAIIA4IIIIIIIIIIIIAIIIII4IAII
IIA4IIA4IIIIAIA4IIIIIA4IIIIIIAAIIIIAAIIA4IIIIIIIIIIIIAIIIII4IAII
IIA4IIA4A4IIAIA4IIIIIA4IIIIIIAAIIIIAAIIA4IIIIIIIIIIIIAIIIII4IAII
IIA4IIA4A4IIAIA4IIIIIA4IIIIIIAA4IIIAAIIA4IIIIIIIIIIIIAIIIII4IAII
IIA4IIA4A4IIAIA4IAIIIA4IIIIIIAA4IIIAAIIA4IIIIIIIIIIIIAIIIII4IAII
IIA4IIA4A4IIAIA4IAIIIA4IIIIIIAA4IIIAA4IA4IIIIIIIIIIIIAIIIII4IAII
IIA4IIA4A4IIAIA4IAIIIA4IIIIIIAA4IIIAA4IA4IIIIIIIIIIIIAIIAI44IAII
IIA4IIA4A4IIAIA4IAIIAA4IIIIIIAA4IIIAA4IA4IIIIIIIIIIIIAIIAI44IAII
IIA4IIA4A4IIAIA4IAIIAA4A4IIIIAA4IIIAA4IA4IIIIIIIIIIIIAIIAI44IAII
IIA4IIA4A4IIAIA4IAIIAA4A4IIIIAA4IA4AA4IA4IIIIIIIIIIIIAIIAI44IAII
IIA4IIA4A4IIAIA4IAIIAA4A4IIIIAA4IA4AA4IA4IIIIA4IIIIIIAIIAI44IAII
IIA4IIA4A4IIAIA4IAIIAA4A4IIIIAA4IA4AA4IA4IIIIAA4IIIIIAIIAI44IAII
IIA4IIA4A4IIAIA4IAIIAA4A4IIIIAA4IA4AA4IA4IIIIAA4IIIIIA4IAI44IAII
IIA4IIA4A4IIAIA4IAIIAA4A4IIIIAA4IA4AA4IA4IIIIAA4IIIIIA4IA444IAII
IIAAIIA4A4IIAIA4IAIIAA4A4IIIIAA4IA4AA4IA4IIIIAA4IIIIIA4IA444IAII
IIAAIIA4A4IIAIA4IAIIAA4A4IIIIAA4IA4AA4IA4IIIIAA4IIIAIA4IA444IAII
IIAAIIA4A4IIAIA44AIIAA4A4IIIIAA4IA4AA4IA4IIIIAA4IIIAIA4IA444IAII
IIAAIIA4A4IIAII44AIIAA4A4IIIIAA4IA4AA4IA4IIIIAA4IIIAIA4IA444IAII
IIAAIIA4A4IIA4I44AIIAA4A4IIIIAA4IA4AA4IA4IIIIAA4IIIAIA4IA444IAII
IIAAIIA4A4IIA4I44AIIAA4A4II4IAA4IA4AA4IA4IIIIAA4IIIAIA4IA444IAII
IIAAIIA4A4IIA4I44AIIAA4A4II4IAA4IA4AA4IA4I4IIAA4IIIAIA4IA444IAII
IIAAIIA4A4IIA4I44AIIAA4A4II4IAA4IA4AA4IAAI4IIAA4IIIAIA4IA444IAII
IIAAIIA4A4IIA4I44AIIAA4A4II4IAA4IA4AA4IAAI4IIAA4IIIAIA4IA444IAI4
IIAAIIA4A44IA4I44AIIAA4A4II4IAA4IA4AA4IAAI4IIAA4IIIAIA4IA444IAI4
IIAAIIA4A44IA4A44AIIAA4A4I44IAA4IA4AA4IAAI4IIAA4IIIAIA4IA444IAI4
IIAAIIA4A44AA4A44AIIAA4A4I44IAA4IA4AA4IAAI4IIAA4IIIAIA4IA444IAI4
IIAAIIA4A44AA4A44AIIAA4A4IA44AA4IA4AA44AAI4IIAA4IIIAIA4IA444IAI4
IIAAIIA4A44AA4A44AIIAA4A4IA44AA44A4AA44AAI4IIAA4IIIAIA4IA444IAI4
IIAAIIA4A44AA4A44AIIAA4A4IA44AA44A4AA44AA44IIAA4IIIA4A4IA444IAI4
IIAAIIA4A44AA4A44AIIAA4A4IA44AA44A4AA44AA44IIAA4A44A4A4IA4444AI4
IIAAIIA4A44AA4A44AIIAA4A4IA44AA44A4AA44AA44IIAA4A44A4A4IA444AA44
IIAAIIA4A44AA4A44AIIAA4A4IA44AA44A4AA44AA44IIAA4A44A4AA4A444AA44
IIAA4IA4A44AA4A44AIIAA4A4IA44AA44A4AA44AA44IIAA4A44A4AA4A444AA44
IIAA4IA4A44AA4A44AIIAA4A4IA44AA44A4AA44AAA4IIAA4A44A4AA4A444AA44
IIAA4IA4A44AA4A4AAIIAA4A4IA44AA44A4AA44AAA4IIAA4A44A4AA4A444AA44
IIAA4IA4A44AA4A4AAIIAA4A44A44AA44A4AA44AAA4IIAA4A44A4AA4A444AA44
IIAA4IA4A44AA4A4AAIIAA4A44A44AA4AA4AA44AAA4IIAA4A44A4AA4A444AA44
IIAA4IA4A44AA4A4AAIIAA4A44A44AA4AA4AAA4AAA4IIAA4A44A4AA4A444AA44
IIIIIIIIIIIIIIIIIIIIIIIIIIIIIIIIIIIIIIIIIIIIIIIIIIIIIIIIA4IIIIII
IIIIIIA4IIIIIIIIIIIIIIIIIIIIIIIIIIIIIIIIIIIIIIIIIIIIIIIIA4IIIIII
IIIIIIA4IIIIIIIIIIIIA4IIIIIIIIIIIIIIIIIIIIIIIIIIIIIIIIIIA4IIIIII
IIIIIIA4IIIIIIIIIIIIA4IIIIIIIIA4IIIIIIIIIIIIIIIIIIIIIIIIA4IIIIII
IIIIIIA4IIIIIIIIIIIIA4IIIIIIIIA4IIII4IIIIIIIIIIIIIIIIIIIA4IIIIII
IIIIIIA4IIIIIIIIIIIIA4IIIIIIIIA4IIA44IIIIIIIIIIIIIIIIIIIA4IIIIII
IIIIIIA4IIIIIIIIIIIIA4IIIIIIIIA4IIA44IIIIIIIIIIIA4IIIIIIA4IIIIII
IIIIIIA4I4IIIIIIIIIIA4IIIIIIIIA4IIA44IIIIIIIIIIIA4IIIIIIA4IIIIII
IIIIIIA4I4IIIIIIIIIIA4IIIIIIIIA4I4A44IIIIIIIIIIIA4IIIIIIA4IIIIII
IIIIIIA4I4IIIIIIIIIIAA4I4I4IIIA4I4A44IIIIIIIIIIIA4IIIIIIA4IIIIII
IIIIIIA4I4IIIIIIIIIIAA4I4I4IIIA4I4AA4I4I4IIIIIIIA4IIIIIIA4IIIIII
IIIIIIA4I4IIIIIIIIIIAA4I4I4IIIA4I4AA4I4I4IIIIIIIA4I4I4IIA4IIIIII
IIIIIIA4I4IIIIIIIIIIAA4I4I4IIIA4I4AA4I4I4IIIIIIIA4I4I4IIA4I4I4II
IIIIIIA4I4I4IIIIIIIIAA4I4I4IIIA4I4AA4I4I4IIIIIIIA4I4I4IIA4I4I4II
IIIIIIA4I4I4IIA44IIIAA4I4I4IIIA4I4AA4I4I4IIIIIIIA4I4I4IIA4I4I4II
IIIIIIA4I4I4IIA44IIIAA4I4I4IIIA4I4AA4I4I4IIA44IIA4I4I4IIA4I4I4II
IIIAI4A4I4I4IIA44IIIAA4I4I4IIIA4I4AA4I4I4IIA44IIA4I4I4IIA4I4I4II
IIIAI4A4I4I4IIA44IIIAA444I4IIIA4I4AA4I4I4IIA44IIA4I4I4IIA4I4I4II
IIIAI4A4I4I4IIA44IIIAA444I4IIIA444AA4I4I4IIA44IIA4I4I4IIA4I4I4II
IIIAI4A4I4I4IIA44IIIAA444I4IIIA444AA444I4IIA44IIA4I4I4IIA4I4I4II
IIIAI4A4I4I4IIA44IIIAA444I4IIIA444AA444IAI4A44IIA4I4I4IIA4I4I4II
IIIAI4A4I4I4IIA44IIIAA444I4IIIA444AA444IAI4A44IIA4I4I4AIA4I4I4II
IIIAI4A4I4I4IIA44IIIAA444I4IIIA444AA444IAI4A44IIA4I4I4AIA444I4II
IIIAI4A4I4I4IIA44IIIAA444I4IIIA444AA444IAI4A44IIA4I444AIA444I4II
IIIAI4A444I4IIA44IIIAA444I4IIIA444AA444IAI4A44IIA4I444AIA444I4II
IIIAI4A444A44IA444IIAA444I4IIIA444AA444IAI4A44IIA4I444AIA444I4II
IIIAI4A444AA44A4444IAA444I4IIIA444AA444IAI4A44IIA4I444AIA444I4II
IIIAI4A444AA44A4444IAA444I4IIIA444AA4444AI4A44IIA4I444AIA444I4II
IIIAI4A444AA44A4444IAA444I4IIIA444AA4444AI4A4A44A4I444AIA444I4II
IIIAI4A444AA44A4444IAA444I4IIIA444AA4444AI4A4A44A4I444AIA44444I4
IIIAI4A444AA44A4444IAA444I4IIIA444AA4444AI4A4A44A4I44AA4A44444I4
IIAA44A444AA44A4444IAA444I4IIIA444AA4444AI4A4A44A4I44AA4A44444I4
IIAA44A444AA44A4444IAA444IAI4IA444AA4444AI4A4A44A4I44AA4A44444I4
IIAA44A444AA44A4444IAA444IAI4IA444AA4444AI4AAA44A4I44AA4A44444I4
IIAA44A444AAA4A4444IAA444IAI4IA444AA4444AI4AAA44A4I44AA4A44444I4
IIAA44A444AAA4A4444IAA444IAI4IA444AAA444AI4AAA44A4I44AA4A44444I4
IIAA44A444AAA4A4A444AA444IAI4IA444AAA444AI4AAA44A4I44AA4A44444I4
A4AA44A444AAA4A4A444AA444IAI4IA444AAA444AI4AAA44A4I44AA4A44444I4
A4AA44A444AAA4A4A444AA444IAI4IA444AAA444AI4AAA44A4I44AA4A44444A4
A4AA44A444AAA4A4A444AAA44IAI4IA444AAA444AI4AAA44A4I44AA4A44444A4
A4AA44A444AAA4A4A444AAA44IAI4IA444AAA444A44AAA44A4I44AA4A44444A4
A4AA44A444AAA4A4A444AAA44IAI4IA444AAA44AA44AAA44A4I44AA4A44444A4
A4AAA4A444AAA4A4A444AAA44IAI4IA444AAA44AA44AAA44A4I44AA4A44444A4
A4AAA4A4A4AAA4A4A444AAA44IAI4IA444AAA44AA44AAA44A4I44AA4A44444A4
A4AAA4A4A4AAA4A4A444AAA44IAI44A444AAA44AA44AAA44A4I44AA4A44444A4
A4AAA4A4A4AAA4A4A444AAA44IAI44A444AAA44AA44AAA44A4I44AA4A4444AA4
A4AAA4A4A4AAAAA4A444AAA44IAI44A444AAA44AA44AAA44A4I44AA4A4444AA4
A4AAA4A4A4AAAAA4A444AAA44IAI44A444AAA44AA44AAAA4A4I44AA4A4444AA4
A4AAA4A4A4AAAAA4A444AAA44IAI44A444AAA44AA44AAAA4A4I44AA4A4444AAA
A4AAA4A4A4AAAAA4A444AAA44IAI44A444AAA44AA44AAAA4A4444AA4A4444AAA
A4AAA4A4A4AAAAA4A444AAA44IAI44A444AAA44AA44AAAA4A4A44AA4A4444AAA
A4AAAAA4A4AAAAA4A444AAA44IAI44A444AAA44AA44AAAA4A4A44AA4A4444AAA
A4AAAAA4A4AAAAA4A444AAA44IAI44A44AAAA44AA44AAAA4A4A44AA4A4444AAA
A4AAAAA4A4AAAAA4A444AAA44IAI44A44AAAA44AA4AAAAA4A4A44AA4A4444AAA
A4AAAAA4A4AAAAA4A444AAA44IAI4AA44AAAA44AA4AAAAA4A4A44AA4A4444AAA
A4AAAAA4A4AAAAAAA444AAA44IAI4AA44AAAA44AA4AAAAA4A4A44AA4A4444AAA
A4AAAAA4A4AAAAAAA444AAA44IAI4AA44AAAA44AA4AAAAA4A4A44AA4A4A44AAA
A4AAAAA4A4AAAAAAA44AAAA44IAI4AA44AAAA44AA4AAAAA4A4A44AA4A4A44AAA
A4AAAAA4A4AAAAAAA44AAAA44IAI4AA44AAAA4AAA4AAAAA4A4A44AA4A4A44AAA
A4AAAAA4A4AAAAAAA44AAAA444AI4AA44AAAA4AAA4AAAAA4A4A44AA4A4A44AAA
A4AAAAA4A4AAAAAAAA4AAAA444AI4AA44AAAA4AAA4AAAAA4A4A44AA4A4A44AAA
A4AAAAA4A4AAAAAAAAAAAAA444AI4AA44AAAA4AAA4AAAAA4A4A44AA4A4A44AAA
A4AAAAA4A4AAAAAAAAAAAAA444AIAAA44AAAA4AAA4AAAAA4A4A44AA4A4A44AAA
A4AAAAA4A4AAAAAAAAAAAAA444A4AAA44AAAA4AAA4AAAAA4A4A44AA4A4A44AAA
A4AAAAA4A2AAAAAAAAAAAAA444A4AAA44AAAA4AAA4AAAAA4A4A44AA4A4A44AAA
A4AAAAA4A2AAAAAAAAAAAAA444A4AAA44AAAA4AAA4AAAAA4A4A44AA4A2A22AAA
A4AAAAA4A2AAAAAAAAAAAAA444A4AAA44AAAA4AAA4AAAAA2A2A24AA4A2A22AAA
A4AAAAA4A2AAAAAAAAAAAAA444A4AAA44AAAA4AAA4AAAAA2A2A24AA4AIA22AAA
A4AAAAA4A2AAAAAAAAAAAAAA44A4AAA44AAAA4AAA4AAAAA2A2A24AA4AIA22AAA
A4AAAAA4A2AAAAAAAAAAAAAA44A4AAA4AAAAA4AAA4AAAAA2A2A24AA4AIA22AAA
A4AAAAA4A2AAAAAAAAAAAAAA44A4AAA4AAAAA4AAA4AAAAA2A2A24AA4A4A22AAA
A4AAAAA4A2AAAAAAAAAAAAAAA4A4AAA4AAAAA4AAA4AAAAA2A2A24AA4A4A22AAA
A4AAAAA4A2AAAAAAAAAAAAAAA4A4AAA4AAAAA4AAA4AAAAA2A2AA4AA4A4A22AAA
A4AAAAAAA2AAAAAAAAAAAAAAA4A4AAA4AAAAA4AAA4AAAAA2A2AA4AA4A4A22AAA
A4AAAAAAA2AAAAAAAAAAAAAAA4A4AAA4AAAAA4AAA4AAAAA2A2AA4AA4A4A2AAAA
A4AAAAAAA2AAAAAAAAAAAAAAA4A4AAAAAAAAA4AAA4AAAAA2A2AA4AA4A4A2AAAA
A4AAAAAAA2AAAAAAAAAAAAAAA4A4AAAAAAAAA4AAA4AAAAA2A2AA4AAAA4A2AAAA
A4AAAAAAA2AAAAAAAAAAAAAAA4A4AAAAAAAAA4AAA4AAAAAAA2AA4AAAA4A2AAAA
AAAAAAAAA2AAAAAAAAAAAAAAA4A4AAAAAAAAA4AAA4AAAAAAA2AA4AAAA4A2AAAA
AAAAAAAAAAAAAAAAAAAAAAAAA4A4AAAAAAAAA4AAA4AAAAAAA2AA4AAAA4A2AAAA
AAAAAAAAAAAAAAAAAAAAAAAAA4A4AAAAAAAAAAAAA4AAAAAAA2AA4AAAA4A2AAAA
AAAAAAAAAAAAAAAAAAAAAAAAA4A4AAAAAAAAAAAAA4AAAAAAA2AAAAAAA4A2AAAA
AAAAAAAAAAAAAAAAAAAIAAAAA4A4AAAAAAAAAAAAA4AAAAAAA2AAAAAAA4A2AAAA
AAAAAAAAAAAAAAAAAAAIAIAAA4A4AAAAAAAAAAAAA4AAAAAAA2AAAAAAA4A2AAAA
AAAAAAAAAAAAIAAAAAAIAIAAA4A4AAAAAAAAAAAAA4AAAAAAA2AAAAAAA4A2AAAA
AAAAAAAAAAAAIAIAAAAIAIAAA4A4AAAAAAAAAAAAA4AAAAAAA2AAAAAAA4A2AAAA
AAAAAAAAAAAAIAIAAAAIAIAAA4A4AAAAAAAAAAAAA4AAAAAAA2AAAIAAA4A2AAAA
AAAAAAIAAAAAIAIAAAAIAIAAA4A4AAAAAAAAAAAAA4AAAAAAA2AAAIAAA4A2AAAA
AAAAAAAAAAAAIAIAAAAIAIAAA4A4AAAAAAAAAAAAA4AAAAAAA2AAAIAAA4A2AAAA
AAAAAAAAAAAAIAIAAAAIAAAAA4A4AAAAAAAAAAAAA4AAAAAAA2AAAIAAA4A2AAAA
AAAAAAAAAAAAIAIAAAA4AAAAA4A4AAAAAAAAAAAAA4AAAAAAA2AAAIAAA4A2AAAA
AAAAAAAAAAAAIAIAAAA4AAAAA4A4AAAAAAAAAAAAA4AAAAAAA2AAAAAAA4A2AAAA
AAAAAAAAAAAAIAAAAAA4AAAAA4A4AAAAAAAAAAAAA4AAAAAAA2AAAAAAA4A2AAAA
AAAAAAAAAAAA4AAAAAA4AAAAA4A4AAAAAAAAAAAAA4AAAAAAA2AAAAAAA4A2AAAA
AAAAAAAAAAAA4AAAAAAAAAAAA4A4AAAAAAAAAAAAA4AAAAAAA2AAAAAAA4A2AAAA
AAAAAAAAAAAAAAAAAAAAAAAAA4A4AAAAAAAAAAAAA4AAAAAAA2AAAAAAA4A2AAAA
IIIIIIAIIII4IIIIIIIIIIIIIIIIIIIIIIIIIIIIIIIIIIIIIIIIIIIIIIIIIIII
IIIIIIAIIII4IIIIIIIIIIIIIIIIIIIIIIIAIIII4IIIIIIIIIIIIIIIIIIIIIII
IIIIIIAI4I44IIIIIIIIIIIIIIIIIIIIIIIAIIII4IIIIIIIIIIIIIIIIIIIIIII
IIIIIIAI4I44IIIIIIIIIIIIIIIIIIAI4I4AIIII4IIIIIIIIIIIIIIIIIIIIIII
IIIIIIAI4I44IIIIIIIIIIIIIIIIIIAI4I4AIIII4IIIIAI4I4IIIIIIIIIIIIII
IIIIIIAI4I44IIIIIIIIIIIIIIIIIIAI4I4AIIII4IIIIAI4I4IIIAI4IIIIIIII
IIIIIIAIAI44IIIIIIIIIIIIIIIIIIAI4I4AIIII4IIIIAI4I4IIIAI4IIIIIIII
IIIIIIAIAI44IIIIIAIIIIIIIIIIIIAI4I4AIIII4IIIIAI4I4IIIAI4IIIIIIII
IIIIIIAIAI44IIIIIAIIIIIIIIIIIIAI4I4AIAII4IIIIAI4I4IIIAI4IIIIIIII
IIIIIIAIAI44IIIIIAIIIIIIIIIIIIAI4I4AIAII4IIIIAI4I4IAIAI4IIIIIIII
IIIIIIAIAI44IIIIIAIIIIIIIIIIIIAI4I4AIAII4IIIIAI4I4IAIAI4AIIIIIII
IIIIIIAIAI444IIIIAIIIIIIIIIIIIAI4I4AIAII4IIIIAI4I4IAIAI4AIIIIIII
IIIIIIAIAI444IIIIAAI4III4IIIIIAI4I4AIAII4IIIIAI4I4IAIAI4AIIIIIII
IIIIIIAIAI444IIIIAAI4III4IIIIIAI4I4AIAII4IIIIAI4I4IAIAI4AII4IIII
IIIIIIAIA4444IIIIAAI4III4IIIIIAI4I4AIAII4IIIIAI4I4IAIAI4AII4IIII
IIIAI4A4A4444IIIIAAI4III4IIIIIAI4I4AIAII4IIIIAI4I4IAIAI4AII4IIII
IIIAI4A4A4444IIIIAAI4III4IIIIIAI4I4AIAII4IIIAA4444IAIAI4AII4IIII
IIAAI4A4A4444IIIIAAI4III4IIIIIAI4I4AIAII4IIIAA4444IAIAI4AII4IIII
IIAA44A4A44444IIIAAI4III4IIIIIAI4I4AIAII4IIIAA4444IAIAI4AII4IIII
IIAA44A4A44444II4AAI4III4IIIIIAI4I4AIAII4IIIAA4444IAIAI4AII4IIII
IIAA44A4A44A44II4AAI44II4IIIIIAI4I4AIAII4IIIAA4444IAIAI4AII4IIII
IIAA44A4A44A4A4I4AAI44I44IIIIIAI4I4AIAII4IIIAA4444IAIAI4AII4IIII
IIAA44A4A44A4A4I4AAIA4I44IIIIIAI4I4AIAII4IIIAA4444IAIAI4AII4IIII
IIAA44A4A44A4A4I4AAIAA444IIIIIA44I4AIAII4IIIAA4444IAIAI4AII4IIII
IIAA44A4A44A4A4I4AAIAA444IA4IIA44I4A4AII4IIIAA4444IAIAI4AII4IIII
IIAA44A4A44A4A4I4AAIAA444IA4IIA44I4A4AII4IIIAA4444IAIA44AII4IIII
IIAA44A4A44A4A4I4AAIAA444IA4IIA44I4A4AII4IIIAAA444IAIA44AII4IIII
IIAA44A4A44A4A4I4AAIAA444IA4IIA44I4A4AII4IIIAAA444IAIA44A4I4IIII
IIAA44A4A44A4A4I4AAIAA444IA4IIA44I4A4AII4IIIAAA444IAIA44A4I4A4II
IIAA44A4A44A4A4I4AAIAA444IA4IIA44I4A4AII4IIIAAA444IAIA44A4I4AA4I
IIAA44A4A44A4A4I4AAIAA444IA4III44I4A4AII4IIIAAA444IAIA44A4I4AA4I
IIAA44A4A44A4A4I4AAIAA444IA4III44A4A4A444IIIAAA444IAIA44A4I4AA4I
IIAA44A4A44A4A4I4AAIAA444IA4III44A4A4A444IIIAAA444IAIAA4A444AA4I
IIAA44A4A44A4A4I4AAIAA444IA4III4AA4A4A444IIIAAA444IAIAA4A444AA4I
IIAA44A4A44A4A4I4AAIAA444IA4III4AA4A4A44444IAAA444IAIAA4A444AA4I
IIAA44A4A44A4A4I4AAIAA444IA4III4AAAA4A44444IAAA444IAIAA4A444AA4I
IIAA44A4A44A4A4I4AAIAA444IA4III4AAAA4A44444AAAA444IAIAA4A444AA4I
IIAA44A4A44A4A4I4AAIAA444IA4III4AAAA4A44444AAAA4A4IAIAA4A444AA4I
IIAA44A4A44A4A4I4AAIAA444IA4III4AAAA4A4444AAAAA4A4IAIAA4A444AA4I
IIAA44A4A44A4A4I4AAIAA4A4IA444I4AAAA4A4444AAAAA4A4IAIAA4A444AA4I
IIAA44A4A44A4A4I4AAIAA4A4IA44444AAAA4A4444AAAAA4A4IAIAA4A444AA4I
IIAA44A4A44A4A4I4AAIAA4A4IA44444AAAA4AA444AAAAA4A4IAIAA4A444AA4I
IIAA44A4A44A4A444AAIAA4A4IA44444AAAA4AA444AAAAA4A4IAIAA4A444AA4I
IIAA44A4A44A4A444AAIAAAA4IA44444AAAA4AA444AAAAA4A4IAIAA4A444AA4I
IIAA44A4A44A4A444AAIAAAA4IA44444AAAA4AA444AAAAA4A44AIAA4A444AA4I
IIAA44A4A44A4A444AAIAAAA4IA444A4AAAA4AA444AAAAA4A44AIAA4A444AA4I
IIAA44A4A44A4A444AA4AAAA4IA444A4AAAA4AA444AAAAA4A44AIAA4A444AA4I
IIAA44A4A4AA4A444AA4AAAA4IA444A4AAAA4AA444AAAAA4A44AIAA4A444AA4I
IIIIIIIIIIIIIIIIIIIIIIIIIIIIIIIIIIIA44IIIIII4IIIIIIIIIIIIIIIIIII
IIIIIIIIIIIIIIIIIIIIIIIIIIIIIIIIIIIA44IIIIII4A44IIIIII4IIIIIIIII
IIIIIIIIIIIIIIIIIIIIIIIIIIIIIIIIIIIA44IIIIII4A44IIIIII4IIIIIA44I
IIIIIIIIIIIIIIIIIIIIIIIIIIIIIAI44IIA44IIIIII4A44IIIIII4IIIIIA44I
IIIIIIIIIIIIA44IIIIIIIIIIIIIIAI44IIA44IIIIII4A44IIIIII4IIIIIA44I
IIIIIIIIIIIIAA4I4IIIIIIIIIIIIAI44IIA44IIIIII4A44IIIIII4IIIIIA44I
IIIIIIIIIIIIAA4I4IIIIIIIIIIIIAI4A4IA44IIIIII4A44IIIIII4IIIIIA44I
IIIIIIIIIIIIAA4I4IIIIIIIIIIIIAI4A4IA444IIIII4A44IIIIII4IIIIIA44I
IIIIIIIIIIIIAA4I4IIIIIIIIIIIIAI4A4IA444IIIII4A444IIIII4IIIIIA44I
IIIIIIIIIIIIAA4I4IIIIIIIIIIIIAI4A4IA444IIIII4A444IIIIA4I4IIIA44I
IIA4I4IIIIIIIIIIIIIIIIIIIIIIIIIIIIIIIIIIIIIIIIIIIIIIIIIIIIIIIIII
IIA4I4A4I4IIIIIIIIIIIIIIIIIIIIIIIIIIIIIIIIIIIIIIIIIIIIIIIIIIIIII
IIAA44A4I4IIIIIIIIIIIIIIIIIIIIIIIIIIIIIIIIIIIIIIIIIIIIIIIIIIIIII
IIAA44AA444IIIIIIIIIIIIIIIIIIIIIIIIIIIIIIIIIIIIIIIIIIIIIIIIIIIII
IIAA44AA444IIA4I4IIIIIIIIIIIIIIIIIIIIIIIIIIIIIIIIIIIIIIIIIIIIIII
IIAA44AA444IIA4IA4I4IIIIIIIIIIIIIIIIIIIIIIIIIIIIIIIIIIIIIIIIIIII
IIAA44AA444IIA4IA4I4A4I4IIIIIIIIIIIIIIIIIIIIIIIIIIIIIIIIIIIIIIII
IIAA44AA444IIA4IA4I4AA444IIIIIIIIIIIIIIIIIIIIIIIIIIIIIIIIIIIIIII
IIAA44AA444IIA4IA4I4AA444IIIA4I4IIIIIIIIIIIIIIIIIIIIIIIIIIIIIIII
IIAA44AA444IIA4IA4I4AA444IIIA4I4IIA4I4IIIIIIIIIIIIIIIIIIIIIIIIII
IIAA44AA444IIA4IA4I4AA444IIIA4I4IIA4I4IIA4I4IIIIIIIIIIIIIIIIIIII
IIAA44AA444IIA4IA4I4AA444IIIA4I4IIA4I4IIA4I4A4I4IIIIIIIIIIIIIIII
IIAA44AA444IIA4IA4I4AA444IIIA4I4IIA4I4IIA4I4A4I4IIIIIA4I4IIIIIII
IIAA44AA444IIA4IA4I4AA444IIIA4I4IIA4I4IIA4I4A4I4IIIIIAA444IIIIII
IIAA44AA444IIA4IA4I4AA444IIIA4I4IIA4I4IIA4I4A4I4IIIIIAA4A4I4IIII
IIAA44AA444IIA4IA4I4AA444IIIA4I4IIA4I4IIA4I4A4I4IIIIIAA4A4I4A4I4
IIAA44AA444IAA4IA4I4AA444IIIA4I4IIA4I4IIA4I4A4I4IIIIIAA4A4I4A4I4
IIAA44AA444IAA4IA4I4AA444IIIA4I4IIA4I4AIA4I4A4I4IIIIIAA4A4I4A4I4
IIAA4AAA444IAA4IA4I4AA444IIIA4I4IIA4I4AIA4I4A4I4IIIIIAA4A4I4A4I4
IIAA4AAA444IAA4IA4I4AA444IIIA4A4IIA4I4AIA4I4A4I4IIIIIAA4A4I4A4I4
IIAA4AAA444IAA4IA4I4AA444IIIA4A4IIAAI4AIA4I4A4I4IIIIIAA4A4I4A4I4
IIAA4AAA444IAA4IA4I4AA444IIIA4A4IIAAI4AIA4IAA4I4IIIIIAA4A4I4A4I4
IIAA4AAA444IAA4IA4I4AA444IIIA4A4IIAAI4AIA4IAAAI4IIIIIAA4A4I4A4I4
IIAA4AAA444IAA4IA4I4AA444IIIA4A4IIAAI4AIA4IAAAI4IIIAIAA4A4I4A4I4
IIAA4AAA444IAA4IA4I4AA444IIIA4A4IIAA44A4A4IAAAI4IIIAIAA4A4I4A4I4
IIAA4AAAA44IAA4IA4I4AA444IIIA4A4IIAA44A4A4IAAAI4IIIAIAA4A4I4A4I4
IIAA4AAAA44AAA4IA4I4AA444IIIA4A4IIAA44A4A4IAAAI4IIIAIAA4A4I4A4I4
IIAA4AAAA44AAAA4A4I4AA444IIIA4A4IIAA44A4A4IAAAI4IIIAIAA4A4I4A4I4
IIAA4AAAA44AAAA4A4I4AA444IA4A4A4IIAA44A4A4IAAAI4IIIAIAA4A4I4A4I4
IIAA4AAAA44AAAA4A4I4AA444IA4A4A4IIAA44A4A4IAAA44IIIAIAA4A4I4A4I4
IIAA4AAAA44AAAA4A4I4AA444IA4A4A4IIAA44A4A4IAAA44A4IAIAA4A4I4A4I4
IIAA4AAAA44AAAA4A4I4AA444IA4A4A4IIAA44A4A4IAAA44A4IAIAAAA4I4A4I4
IIAA4AAAA44AAAA4A4I4AA444IA4A4A4IIAAA4A4A4IAAA44A4IAIAAAA4I4A4I4
IIAA4AAAAA4AAAA4A4I4AA444IA4A4A4IIAAA4A4A4IAAA44A4IAIAAAA4I4A4I4
IIAA4AAAAA4AAAA4A4I4AA444IA4A4A4A4AAA4A4A4IAAA44A4IAIAAAA4I4A4I4
IIAA4AAAAA4AAAA4A4I4AA444IA4A4A4A4AAA4A4A4IAAA44A4IAIAAAA444A4I4
IIIIIIIIIIIIAI4IIIIIIIIIIIIIIIIIIIIIIIIIIIIIIIIIIIIIIIIIIIIIIIII
IIIIIIIIIIIIAI4IIIIIIAI4IIIIIIIIIIIIIIIIIIIIIIIIIIIIIIIIIIIIIIII
IIIIIIIIIIIIAI4IIIIIIAI4IIIIIIAI4IIIIIIIIIIIIIIIIIIIIIIIIIIIIIII
IIIIIIIIIIIIAI4IIIIIIAI4IIIIIIAI4IIAI4IIIIIIIIIIIIIIIIIIIIIIIIII
IIIIIIIIIIIIAI4IIIIIIAI4IIIIIIAI4IIAI4IIAI4IIIIIIIIIIIIIIIIIIIII
IIIIIIIIIIIIAI4IIIIIIAI4IIIIIIAI4IIAI4IIAI4IAI4IIIIIIIIIIIIIIIII
IIIIIIIIA44IAI4IIIIIIAI4IIIIIIAI4IIAI4IIAI4IAI4IIIIIIIIIIIIIIIII
IIAIIIIIA44IAI4IIIIIIAI4IIIIIIAI4IIAI4IIAI4IAI4IIIIIIIIIIIIIIIII
IIAAIIIIA44IAI4IIIIIIAI4IIIIIIAI4IIAI4IIAI4IAI4IIIIIIIIIIIIIIIII
IIAAIIIIA44AAI4IIIIIIAI4IIIIIIAI4IIAI4IIAI4IAI4IIIIIIIIIIIIIIIII
IIAAIIIIA44AAI4IIIIIIAIAIIIIIIAI4IIAI4IIAI4IAI4IIIIIIIIIIIIIIIII
IIAAIIIIA44AAI4IIIIIIAIAIIIIIIAI4IIAI4IIAI4IAI4IIIIIIIAIIIIIIIII
IIAAIIIIA44AAI4IIIIIIAIAIIIIIIAI4IIAI4IIAI4IAI4IIIIIIIAIAIIIIIII
IIAAIIIIA44AAI4IIIIIIAIAIIIIIIA44IIAI4IIAI4IAI4IIIIIIIAIAIIIIIII
IIAAIIIIA44AAI4IIIIIAA4AIIIIIIA44IIAI4IIAI4IAI4IIIIIIIAIAIIIIIII
IIAAIAI4A44AAI4IIIIIAA4AIIIIIIA44IIAI4IIAI4IAI4IIIIIIIAIAIIIIIII
IIAAIAI4A44AAI4IIIIIAA4AIIIIIAA44IIAI4IIAI4IAI4IIIIIIIAIAIIIIIII
IIAAIAI4A44AAI4IIIIIAA4AIIIIIAA44IIA44IIAI4IAI4IIIIIIIAIAIIIIIII
IIAAIAI4A44AAI4IIIIIAA4AIIIIIAA44IIA44IIAI4IAI4IIIIIIIAIA4IIIIII
IIAAIAI4A44AAI4IIIIIAA4AIIIIIAA44IIA44IIAI4IAA4IIIIIIIAIA4IIIIII
IIAAIAI4A44AAI4IIIIIAA4AII4IIAA44IIA44IIAI4IAA4IIIIIIIAIA4IIIIII
IIAAIAI4A44AAI4IIIIIAA4AII4IIAA44IIA44IIAI4IAA4IIIIIIIAIA4I4IIII
IIAAIAI4A44AAI4IIIIIAA4AII4IIAA44IIA44IIAI4IAA44II4IIIAIA4I4IIII
IIAAIAI4A44AAI4IIIIIAA4AII4IIAA44IIA44IIAI4IAA44II4IIAA4A4I4IIII
IIAAIAA4A44AAI4IIIIIAA4AII4IIAA44IIA44IIAI4IAA44II4IIAA4A4I4IIII
IIAAIAA4A44AAI4IIIIIAA4A4I4IIAA44IIA44IIAI4IAA44II4IIAA4A4I4IIII
IIAAIAA4A44AAI4IIIIIAA4A4I4IIAA4A4IA44IIAI4IAA44II4IIAA4A4I4IIII
IIAAIAA4A44AAI4IA4I4AA4A4I4IIAA4A4IA44IIAI4IAA44II4IIAA4A4I4IIII
IIAAIAA4A44AAI4IA4I4AA4A4I4IIAA4A4IA44IIAI4IAA444I4IIAA4A4I4IIII
IIAAIAA4A44AAI4IA4I4AA4A4I4IIAA4A4IA44IIAI4IAA444I4IIAA4A4I4AI4I
IIAAIAA4A44AAI4IA4I4AA4A4I4IIAA4A4IA44IIAI4IAA444I4IIAA4A4I4AA44
IIAAIAA4A44AAI4IA4I4AA4A4I4IIAA4A4IA4AI4AI4IAA444I4IIAA4A4I4AA44
IIAAIAA4A44AAI4IA4I4AA4A4I4IIAA4A4IA4AA4AI4IAA444I4IIAA4A4I4AA44
IIAAIAA4A44AAI4IA4I4AA4A4I4IIAA4A4IA4AA4AI4IAA44444IIAA4A4I4AA44
IIAAIAA4A44AAI4AA4I4AA4A4I4IIAA4A4IA4AA4AI4IAA44444IIAA4A4I4AA44
IIAAIAA4A4AAAI4AA4I4AA4A4I4IIAA4A4IA4AA4AI4IAA44444IIAA4A4I4AA44
IIAAIAA4A4AAAI4AA4I4AA4A4I4IIAA4A4IA4AAAAI4IAA44444IIAA4A4I4AA44
IIAAIAA4A4AAAI4AA4I4AA4A4I4IIAA4A4IA4AAAAI4IAA44444IIAA4A4I4AAA4
IIAAIAA4A4AAAI4AA4I4AA4A4I44IAA4A4IA4AAAAI4IAA44444IIAA4A4I4AAA4
IIAAIAA4A4AAAI4AA4I4AA4A4I44IAA4A4IA4AAAAA44AA44444IIAA4A4I4AAA4
IIAAIAA4A4AAAI4AA4I4AA4A4I44IAA4A4IA4AAAAA44AA444444IAA4A4I4AAA4
IIAAIAA4A4AAAA4AA4I4AA4A4I44IAA4A4IA4AAAAA44AA444444IAA4A4I4AAA4
IIAAIAA4A4AAAA4AAA44AA4A4I44IAA4A4IA4AAAAA44AA444444IAA4A4I4AAA4
IIAAIAA4A4AAAA4AAA44AA4A4444IAA4A4IA4AAAAA44AA444444IAA4A4I4AAA4
IIAA4AA4A4AAAA4AAA44AA4A4444IAA4A4IA4AAAAA44AA444444IAA4A4I4AAA4
IIAA4AA4A4AAAA4AAA44AA4A4444IAA4A4IA4AAAAA44AA444444IAA4A444AAA4
IIAA4AA4A4AAAA4AAA44AAAA4444IAA4A4IA4AAAAA44AA444444IAA4A444AAA4
IIAA4AA4A4AAAA4AAA44AAAA4444IAA4A4AA4AAAAA44AA444444IAA4A444AAA4
IIAA4AA4A4AAAA4AAA44AAAA4444IAA4A4AA4AAAAA44AA444444AAA4A444AAA4
IIAA4AA4A4AAAA4AAA44AAAA4444IAA4A4AA4AAAAA44AA444444AAAAA444AAA4
IIAA4AA4A4AAAA4AAA44AAAA4444IAA4A4AA4AAAAA44AA44A444AAAAA444AAA4
AIAA4AA4A4AAAA4AAA44AAAA4444IAA4A4AA4AAAAA44AA44A444AAAAA444AAA4
AIAAAAA4A4AAAA4AAA44AAAA44444AA4A4AA4AAAAA44AA44A444AAAAA444AAA4
AIAAAAA4A4AAAA4AAA4AAAAA44444AA4A4AA4AAAAA44AA44A444AAAAA444AAA4
AIAAAAA4A4AAAA4AAA4AAAAA44444AAAA4AA4AAAAA44AA44A444AAAAA444AAA4
AIAAAAA4A4AAAA4AAA4AAAAA44444AAAAAAA4AAAAA44AA44A444AAAAA444AAA4
AIAAAAA4A4AAAA4AAA4AAAAA44444AAAAAAAAAAAAA44AA44A444AAAAA444AAA4
AIAAAAA4A4AAAA4AAA4AAAAA44444AAAAAAAAAAAAA44AAA4A444AAAAA444AAA4
AIAAAAA4A4AAAA4AAA4AAAAA44444AAAAAAAAAAAAA44AAAAA444AAAAA444AAA4
AIAAAAA4A4AAAA4AAA4AAAAA44444AAAAAAAAAAAAA44AAAAA44AAAAAA444AAA4
AIAAAAA4A4AAAA4AAA4AAAAA44444AAAAAAAAAAAAA44AAAAA44AAAAAA44AAAA4
AIAAAAA4A4AAAAAAAA4AAAAA44444AAAAAAAAAAAAA44AAAAA44AAAAAA44AAAA4
AIAAAAA4A4AAAAAAAA4AAAAA4444AAAAAAAAAAAAAA44AAAAA44AAAAAA44AAAA4
AIAAAAA4A4AAAAAAAA4AAAAA44A4AAAAAAAAAAAAAA44AAAAA44AAAAAA44AAAA4
AIAAAAA4A4AAAAAAAA4AAAAA44A4AAAAAAAAAAAAAAA4AAAAA44AAAAAA44AAAA4
AIAAAAA4A4AAAAAAAA4AAAAA44A4AAAAAAAAAAAAAAA4AAAAA4AAAAAAA44AAAA4
A4AAAAA4A4AAAAAAAA4AAAAA44A4AAAAAAAAAAAAAAA4AAAAA4AAAAAAA44AAAA4
A4AAAAA4A4AAAAAAAA4AAAAA44A4AAAAAAAAAAAAAAA4AIAAA4AAAAAAA44AAAA4
A4AAAAA4A4AAAAAAAA4AAIAA44A4AAAAAAAAAAAAAAA4AIAAA4AAAAAAA44AAAA4
A4AAAAA4A4AAAIAAAA4AAIAA44A4AAAAAAAAAAAAAAA4AIAAA4AAAAAAA44AAAA4
A4AAAAA4A4AAAIAAAA4IAIAA44A4AAAAAAAAAAAAAAA4AIAAA4AAAAAAA44AAAA4
A4AAAAA4A4AAAIIAAA4IAIAA44A4AAAAAAAAAAAAAAA4AIAAA4AAAAAAA44AAAA4
A4AAAAA4A4AAAIIAAA4IAIAA44A4AAAAAAAAAAAAAAA4IIAAA4AAAAAAA44AAAA4
A4AAAAA4A4AAAIIAAA4IAIAA44A4AAAAAAAAAAAAAAA4IIAAA4AAAAIAA44AAAA4
A4AAAAA4A4AAAIIAAA4IAIAA44A4AAAAAAAIAAAAAAA4IIAAA4AAAAIAA44AAAA4
A4AAAAA4A4AAAIIAAA4IAIAA44A4AAAAAAAIAAAAAAA4IIIAA4AAAAIAA44AAAA4
A4AAAAA4A4AAAIIAAA4AAIAA44A4AAAAAAAIAAAAAAA4IIIAA4AAAAIAA44AAAA4
A4AAAAA4A4AAA44AAA4AAIAA44A4AAAAAAAIAAAAAAA4IIIAA4AAAAIAA44AAAA4
A4AAAAA4A4AAA44AAA4AA4AA44A4AAAAAAAIAAAAAAA4IIIAA4AAAAIAA44AAAA4
A4AAAAA4A4AAAA4AAA4AA4AA44A4AAAAAAAIAAAAAAA4IIIAA4AAAAIAA44AAAA4
A4AAAAA4A4AAAA4AAAAAA4AA44A4AAAAAAAIAAAAAAA4IIIAA4AAAAIAA44AAAA4
A4AAAAA4A4AAAA4AAAAAAAAA44A4AAAAAAAIAAAAAAA4IIIAA4AAAAIAA44AAAA4
A4AAAAA4A4AAAA4AAAAAAAAA44A4AAAAAAAIAAAAAAA4I44AA4AAAAIAA44AAAA4
A4AAAAA4A4AAAA4AAAAAAAAA44A4AAAAAAAIAAAAAAA4IA4AA4AAAA4AA44AAAA4
A4AAAAA4A4AAAA4AAAAAAAAA44A4AAAAAAAIAAAAAAA4IA4AA4AAAAAAA44AAAA4
A4AAAAA4A4AAAA4AAAAAAAAA44A4AAAAAAAAAAAAAAA4IA4AA4AAAAAAA44AAAA4
A4AAAAA4A4AAAA4AAAAAAAAA44A4AAAAAAAAAAAAAAA4IAAAA4AAAAAAA44AAAA4
A4AAAAA4A4AAAA4AAAAAAAAA44A4AAAAAAAAAAAAAAA4AAAAA4AAAAAAA44AAAA4
A4AAAAA4A4AAAA4AAAAAAAAA44A4AAAAAAAAAAAAAAAAAAAAA4AAAAAAA44AAAA4
A4AAAAA4A4AAAAAAAAAAAAAA44A4AAAAAAAAAAAAAAAAAAAAA4AAAAAAA44AAAA4
A4AAAAA4A4AAAAAAAAAAAAAA44A4AAAAAAAAAAAAAAAAAAAAA4AAAAAAAA4AAAA4
IIIAI4IIII4IIIIIIIIIIIIIIIIIIIIIIIIIIIIIIIIIIIIIIIIIIIIIIIIIIIII
IIIAI4AI4I4II4IIIIIIIIIIIIIIIIIIIIIIIIIIIIIIIIIIIIIIIIIIIIIIIIII
IIIAI4AI4I4II4IIIIAI4IIII4IIIIIIIIIIIIIIIIIIIIIIIIIIIIIIIIIIIIII
IIIAI4AI4I4II4IIIIAI4AI4I4II4IIIIIIIIIIIIIIIIIIIIIIIIIIIIIIIIIII
IIIAI4AI4I4II4IIIIAI4AA444II44IIIIIIIIIIIIIIIIIIIIIIIIIIIIIIIIII
IIIAI4AI4I4II4IIIIAI4AA444AI44III4IIIIIIIIIIIIIIIIIIIIIIIIIIIIII
IIIAI4AI4I4II4IIIIAI4AA444AI44AI44III4IIIIIIIIIIIIIIIIIIIIIIIIII
IIIAI4AI4I4II4IIIIAI4AA444AI44AI44AI44III4IIIIIIIIIIIIIIIIIIIIII
IIIAI4AI4I4II4IIIIAI4AA444AI44AI44AA44III44IIIIIIIIIIIIIIIIIIIII
IIIAI4AI4I4II4IIIIAI4AA444AI44AI44AA44AI444II4IIIIIIIIIIIIIIIIII
IIIAI4AI4I4II4IIIIAI4AA444AI44AI44AA44AI444IIAI4IIII4IIIIIIIIIII
IIIAI4AI4I4II4IIIIAI4AA444AI44AI44AA44AI444IIAI4IIIA44IIII4IIIII
IIIAI4AI4I4II4IIIIAI4AA444AI44AI44AA44AI444IIAI4IIIA44AI4I4II4II
IIIAI4AI4I4II4IIIIAI4AA444AI44AI44AA44AI444IIAI4IIIA44AIAI4II4I4
IIIAI4AI4I4II4IIIIAI4AA444AI44AI44AA44AI444IIAI4AI4A44AIAI4II4I4
IIIAI4AI4I4II4AI44AI4AA444AI44AI44AA44AI444IIAI4AI4A44AIAI4II4I4
IIIAI4AI4I4II4AI44AI4AA444AI44AI44AA44AI444IIAI4AI4A44AIA44II4I4
IIIAI4AI4I4IIAAI44AI4AA444AI44AI44AA44AI444IIAI4AI4A44AIA44II4I4
IIAAI4AI4I4IIAAI44AI4AA444AI44AI44AA44AI444IIAI4AI4A44AIA44II4I4
IIAAI4A44I4I4AAI44AI4AA444AI44AI44AA44AI444IIAI4AI4A44AIA44II4I4
IIAA44A4444I4AAI44AI4AA444AI44AI44AA44AI444IIAI4AI4A44AIA44II4I4
IIAA44A444A44AAI44AI4AA444AI44AI44AA44AI444IIAI4AI4A44AIA44II4I4
IIAA44A444AA4AAI44AI4AA444AI44AI44AA44AI444IIAI4AI4A44AIA44II4I4
IIAA44A444AAAAAI44AI4AA444AI44AI44AA44AI444IIAI4AI4A44AIA44II4I4
IIAA44A444AAAAAI44A44AA444AI44AI44AA44AI444IIAI4AI4A44AIA44II4I4
IIAA44A444AAAAAI44A4AAA444AI44AI44AA44AI444IIAI4AI4A44AIA44II4I4
IIAA44A444AAAAAI44A4AAA444A444AI44AA44AI444IIAI4AI4A44AIA44II4I4
IIAA44A444AAAAAI44A4AAA444A444A444AA44AI444IIAI4AI4A44AIA44II4I4
IIAA44A444AAAAAI44A4AAA444A444A444AA44AI444A4AI4A44A44AIA44II4I4
IIAA44A444AAAAAI44A4AAA444A444A444AA44AI444AAAI4A44A44AIA44II4I4
IIAA44A444AAAAAI44A4AAA444A444A444AA44AI444AAA44A44A44AIA44II4I4
IIAA44A444AAAAAI44A4AAA444A444A444AA44AI444AAA44A44A44AIA44II444
IIAA44A444AAAAAI44A4AAA444A444A444AA44AI444AAA44A44A44AIA44IA444
IIAA44A444AAAAAI44AAAAA444A444A444AA44AI444AAA44A44A44AIA44IA444
IIAA44A444AAAAAI44AAAAA444A444A444AA44AI444AAA44A44A4AA4A44IA444
IIAA44A444AAAAAIA4AAAAA444A444A444AA44AI444AAA44A44A4AA4A44IA444
IIAA44A444AAAAAIA4AAAAA444A44AA444AA44AI444AAA44A44A4AA4A44IA444
IIAA44A444AAAAA4A4AAAAA444A44AA444AA44AI444AAA44A44A4AA4A44IA444
IIAA44A4A4AAAAA4A4AAAAA444A44AA444AA44AI444AAA44A44A4AA4A44IA444
IIAA44A4A4AAAAA4AAAAAAA444A44AA444AA44A4444AAA44A44A4AA4A44IA444
IIAA44A4A4AAAAA4AAAAAAA444A44AA4A4AA44A4444AAA44A44A4AA4A44IA444
IIAA44A4A4AAAAA4AAAAAAA444A44AA4A4AA44A4A44AAA44A44A4AA4A444A444
IIAA44A4A4AAAAA4AAAAAAA444A44AA4A4AA44A4A4AAAA44A44A4AA4A444A444
IIAA44A4A4AAAAA4AAAAAAA444A44AA4A4AA44A4A4AAAAA4A44A4AA4A444A444
IIAA44A4A4AAAAA4AAAAAAA444A44AA4A4AA44A4A4AAAAA4A44AAAA4A444A444
IIAA44A4A4AAAAA4AAAAAAA444A44AA4A4AA44A4A4AAAAA4A44AAAA4A444AA44
IIAA44A4A4AAAAA4AAAAAAA444A44AA4A4AA44AAA4AAAAA4A44AAAA4A444AA44
IIAA44A4A4AAAAA4AAAAAAA444A44AAAA4AA44AAA4AAAAA4A44AAAA4A444AA44
IIAA44A4A4AAAAA4AAAAAAA444A44AAAA4AA44AAA4AAAAA4A44AAAA4A4A4AA44
IIAA44AAA4AAAAA4AAAAAAA444A44AAAA4AA44AAA4AAAAA4A44AAAA4A4A4AA44
IAAA44AAA4AAAAA4AAAAAAA444A44AAAA4AA44AAA4AAAAA4A44AAAA4A4A4AA44
IAAA4AAAA4AAAAA4AAAAAAA444A44AAAA4AA44AAA4AAAAA4A44AAAA4A4A4AA44
IAAA4AAAA4AAAAA4AAAAAAA444A44AAAA4AA44AAA4AAAAAAA44AAAA4A4A4AA44
IAAAAAAAA4AAAAA4AAAAAAA444A44AAAA4AA44AAA4AAAAAAA44AAAA4A4A4AA44
IAAAAAAAA4AAAAA4AAAAAAA444A4AAAAA4AA44AAA4AAAAAAA44AAAA4A4A4AA44
IAAAAAAAA4AAAAA4AAAAAAA444A4AAAAA4AA44AAA4AAAAAAA4AAAAA4A4A4AA44
IAAAAAAAAAAAAAA4AAAAAAA444A4AAAAA4AA44AAA4AAAAAAA4AAAAA4A4A4AA44
IAAAAAAAAAAAAAA4AAAAAAA444A4AAAAAAAA44AAA4AAAAAAA4AAAAA4A4A4AA44
IAAAAAAAAAAAAAA4AAAAAAA444A4AAAAAAAA44AAA4AAAAAAA4AAAAAAA4A4AA44
IAAAAAAAAAAAAAA4AAAAAAAA44A4AAAAAAAA44AAA4AAAAAAA4AAAAAAA4A4AA44
IAAAAAAAAAAAAAA4AAAAAAAA44A4AAAAAAAA4AAAA4AAAAAAA4AAAAAAA4A4AA44
IIIIIIA4IIIIIIIIIIIIIIIIIIIIIIIIIIIIIIIIIIIIIIIIIIIIIIIIIIIIIIII
IIIIIIA4A4IIIIIIIIIIIIIIIIIIIIIIIIIIIIIIIIIIIIIIIIIIIIIIIIIIIIII
IIIIIIA4A4IIIIIIIIIIIIA4IIIIIIIIIIIIIIIIIIIIIIIIIIIIIIIIIIIIIIII
IIIIIIA4A4IIIIIIIIIIIIA4IIIIIA4IIIIIIIIIIIIIIIIIIIIIIIIIIIIIIIII
IIIIIIA4A4IIIIIIIIIIIIA4IIIIIA4IA4IIIIIIIIIIIIIIIIIIIIIIIIIIIIII
IIIIIIA4A4IIIIIIIIIIIIA4IIIIIA4IA4IA4IIIIIIIIIIIIIIIIIIIIIIIIIII
IIIIIIA4A4IIIIIIIIIIIIA4IIIIIA4IA4IA4IIIIIIIIIIIIIIIIIA4IIIIIIII
IIIIIIA4A4IIIIIIIIIIIIA4IIIIIA4IA4IA4IIIIIIIIIIIIIIIIIA4A4IIIIII
IIIIIIA4A4IIIIIIAIIIIIA4IIIIIA4IA4IA4IIIIIIIIIIIIIIIIIA4A4IIIIII
IIIIIIA4A4IIIIIIAIIIAIA4IIIIIA4IA4IA4IIIIIIIIIIIIIIIIIA4A4IIIIII
IIIIIIA4A4IIIIIIAIIIAIA4IIIIIA4IA4IA4IIIIIIIIIIIIIIIIAA4A4IIIIII
IIIIIIA4A4IIIIIIAIIIAIA4IIIIAA44A4IA4IIIIIIIIIIIIIIIIAA4A4IIIIII
IIIIIIA4A4IIIIIIAIIIAIA4IIIIAA44A4IA4IIIIIIIIIIIIIIIIAA4A444IIII
IIIIIIA4A4IIA4IIAIIIAIA4IIIIAA44A4IA4IIIIIIIIIIIIIIIIAA4A444IIII
IIIIIIA4A4IIA4IIAIIIAAA4IIIIAA44A4IA4IIIIIIIIIIIIIIIIAA4A444IIII
IIIIIIA4A4IIA4IIAIIIAAA4IIIIAAA4A4IA4IIIIIIIIIIIIIIIIAA4A444IIII
IIIIIIA4A4IIA4IIAIIIAAA4IIIIAAA4A4IA4IIIIIAII4IIIIIIIAA4A444IIII
IIIIIIA4A4IIA4IIAIIIAAA4IIIIAAA4A4IA4IIIIIAAI44IIIIIIAA4A444IIII
IIIA4IA4A4IIA4IIAIIIAAA4IIIIAAA4A4IA4IIIIIAAI44IIIIIIAA4A444IIII
IIIA4IA4A4IIA4IIAIIIAAA4IIIIAAA4A4IA4IIIIIAA444IIIIIIAA4A444IIII
IIIA4IA4A4IIA4IIAIIIAAA4IIIIAAA4A4IA4IIIIIAA444IIIIIIAA4A444IA4I
IIIA4IA4A4I4A4IIAIIIAAA4IIIIAAA4A4IA4IIIIIAA444IIIIIIAA4A444IA4I
IIIA4IA4A4I4A4A4A4I4AAA4IIIIAAA4A4IA4IIIIIAA444IIIIIIAA4A444IA4I
IIIA4IA4A4I4A4A4A4I4AAA4I4I4AAA4A4IA4IIIIIAA444IIIIIIAA4A444IA4I
IIIA4IA4A4I4A4A4A4I4AAA4I4I4AAA4A4IA4I4I4IAA444IIIIIIAA4A444IA4I
IIIA4IA4A4I4A4A4A4I4AAA4I4I4AAA4A4IA4I4A4IAA444IIIIIIAA4A444IA4I
IIIA4IA4A4I4A4A4A4I4AAA4I4I4AAA4A4IA4I4A4IAA4A4I4I4IIAA4A444IA4I
IIIA4IA4A444A4A4A4I4AAA4I4I4AAA4A4IA4I4A4IAA4A4I4I4IIAA4A444IA4I
IIIA4IA4A444A4A4A4I4AAA4I4A4AAA4A4IA4I4A4IAA4A4I4I4IIAA4A444IA4I
IIIA4IA4A444A4A4A4I4AAA4I4A4AAA4A4IA4I4A4IAA4A444I4IIAA4A444IA4I
IIIA4IA4A444A4A4A4I4AAA4I4A4AAA4A4IA4I4A4IAA4A44444IIAA4A444IA4I
IIIA4IA4A444A4A4A4I4AAA4I4A4AAA4A4IA4I4A4IAA4A44444IIAA4A4444A4I
IIAA4IA4A444A4A4A4I4AAA4I4A4AAA4A4IA4I4A4IAA4A44444IIAA4A4444A4I
IIAA4IA4A444A4A4A4I4AAA4I4A4AAA4A44A4I4A4IAA4A44444IIAA4A4444A4I
IIAA4IA4A444A4A4A4I4AAA4I4A4AAA4A4AA4I4A4IAA4A44444IIAA4A4444A4I
IIAA4IA4A444A4A4A4I4AAA4I4A4AAA4A4AA4I4A4IAA4A4A4444IAA4A4444A4I
IIAA4IA4A444A4A4A4I4AAA4I4A4AAA4A4AA4I4A4IAA4A4A4444IAAAA4444A4I
IIIIIIIIIIIIAI4IIIIIIIIIIIIIIIIIIIIIIIIIIIIIIIIIIIIIIIIIIIIIIIII
IIIIIIIIIIIIAI4IIIIIIIIIIIIIIIAI4IIIIIIIIIIIIIIIIIIIIIIIIIIIIIII
IIIIIIIIIIIIAI4IIIIIIIIIIIIIIIAI4IIAI4IIIIIIIIIIIIIIIIIIIIIIIIII
IIIIIIIIIIIIAI4IIIIIIIIIIIIIIIAI4IIAI4IIAI4IIIIIIIIIIIIIIIIIIIII
IIIIIIIIIIIIAI4IIIIIIIIIIIIIIIAI4IIAI4IIAI4IIAI4IIIIIIIIIIIIIIII
IIIIIIIIIIIIAI4IIIIIIIIIIIIIIIAI4IIAI4IIAI4IIAI4IIIIIAI4IIIIIIII
IIIIIIIIIIIIAI4IIIIIIIIIIIIIIIAI4I4AI4IIAI4IIAI4IIIIIAI4IIIIIIII
IIIAIII4IIIIAI4IIIIIIIIIIIIIIIAI4I4AI4IIAI4IIAI4IIIIIAI4IIIIIIII
IIIAIAI4I4IIAI4IIIIIIIIIIIIIIIAI4I4AI4IIAI4IIAI4IIIIIAI4IIIIIIII
IIIAIAA4I44IAI4IIIIIIIIIIIIIIIAI4I4AI4IIAI4IIAI4IIIIIAI4IIIIIIII
IIIAIAA4I44IAI4IIIIIIIIIIIIIIIAI4I4AA4IIAI4IIAI4IIIIIAI4IIIIIIII
IIIAIAA4I44IAI4IIIIIIIIIIIIIIIAI4I4AA4IIAI4IIAI4AIII4AI4IIIIIIII
IIIAIAA4I44IAI4IIIIIIIIIIIIIIIAI4I4AA4IIAI4IIAI4AIAI4A44IIIIIIII
IIIAIAA4I44IAI4IIIIIIIIIIIIIIIAI4I4AA4IIAI4IIAI4AIAI4AA4II4IIIII
IIIAIAA4I44IAI4IIIIIIIIIIIIIIIAI4I4AA4IIAI4IIAI4AIAI4AA4AI4I4III
IIIA4AA4I44IAI4IIIIIIIIIIIIIIIAI4I4AA4IIAI4IIAI4AIAI4AA4AI4I4III
IIIA4AA4I44IAI4IIIIIIIIIIIIIIIAI4I4AA4A4AI4IIAI4AIAI4AA4AI4I4III
IIIA4AA4I44IAI4IIIIIIIIIIIIIIIAI4I4AA4A4AI4IIA44AIAI4AA4AI4I4III
IIAIIIIIIIIIIIIIIIIIIIIIIIIIIIIIIIIIIIIIIIIIIIIIIIIIIIIIIIIIIIII
IIAIIIAIIIIIIIIIIIIIIIIIIIIIIIIIIIIIIIIIIIIIIIIIIIIIIIIIIIIIIIII
IIAIIIAIIIIAIIIIIIIIIIIIIIIIIIIIIIIIIIIIIIIIIIIIIIIIIIIIIIIIIIII
IIAIIIAIIIIAIIIIIIIIIIIIIIIIIAIIIIIIIIIIIIIIIIIIIIIIIIIIIIIIIIII
IIAIIIAIIIIAIIIIIIIIIIIIIIIIIAAIIIIIIIIIIIIIIIIIIIIIIIIIIIIIIIII
IIAIIIAIIIIAIIIIIIIIIIIIIIIIIAAIAIIIIIIIIIIIIIIIIIIIIIIIIIIIIIII
IIAIIIAIIIIAIIIIIIIIIIIIIIIIIAAIAIIAIIIIIIIIIIIIIIIIIIIIIIIIIIII
IIAIIIAIIIIAIIIIIIIIIIIIIIIIIAAIAIIAAIIIIIIIIIIIIIIIIIIIIIIIIIII
IIAIIIAIIIIAIIIIIIIIIIIIIIIIIAAIAIIAAIIIIIIIIAIIIIIIIIIIIIIIIIII
IIAIIIAIIIIAIIIIIIIIIIIIIIIIIAAIAIIAAIIIIIIIIAIIIIIAIIIIIIIIIIII
IIAIIIAIIIIAIIIIIIIIIIIIIIIIIAAIAIIAAIIIIIIIIAIIIIIAIAIIIIIIIIII
IIAIIIAIIIIAIIIIIIIIIIIIIIIIIAAIAIIAAIIIIIIIIAIIIIIAIAIIAIIIIIII
IIAIIIAIIIIAIAI4I4IIIIIIIIIIIAAIAIIAAIIIIIIIIAIIIIIAIAIIAIIIIIII
IIAIIIAIIIIAIAI4I4IIIIIIIIAI4AAIAIIAAIIIIIIIIAIIIIIAIAIIAIIIIIII
IIAIIIAIIIIAIAI4I4IIIIIIIIAI4AAIAI4AAIIIIIIIIAIIIIIAIAIIAIIIIIII
IIAIIIAIIIIAIAI4I4IIIIIIIIAI4AAIAI4AA4I4IIIIIAIIIIIAIAIIAIIIIIII
IIAIIIAIIIIAIAI4I4IIIIIIIIAI4AAIAI4AA4I4IIIIIAI4I4IAIAIIAIIIIIII
IIAIIIAIIIIAIAI4I4IIIIIIIIAI4AAIAI4AA4I4IIIIIAA4444AIAIIAIIIIIII
IIAIIIAIIIIAIAI4I4IIIIIIIIAI4AAIAI4AA4I4IIIIIAA44A4AIAIIAIIIIIII
IIAIIIAIIIIAIAI4I4IIIIIIIIAI4AAIAI4AA4I4IIIIIAA44A4AIAIIAI4I4III
IIAIIIAIIIIAIAI4I4IIIIIIIIAI4AAIAI4AA4I44IIIIAA44A4AIAIIAI4I4III
IIAIIIAIIIIAIAI4I4IIIIIIIIAI4AAIAI4AAAI44I4IIAA44A4AIAIIAI4I4III
IIAAIIAIIIIAIAI4I4IIIIIIIIAI4AAIAI4AAAI44I4IIAA44A4AIAIIAI4I4III
IIAAIIAIIIIAIAA4I4IIIIIIIIAI4AAIAI4AAAI44I4IIAA44A4AIAIIAI4I4III
IIAAIIAIIIIAIAA4I4IIIAIIIIAI4AAIAI4AAAI44I4IIAA44A4AIAIIAI4I4III
IIAAIIAIIIIAIAA4I4IIIAIIIIAI4AAIAI4AAAI44I4IIAA4AA4AIAIIAI4I4III
IIAAIIAIIIIAIAA4I4IIIAIIIIAI4AAIAI4AAAI44I4IIAA4AA4AIA4IAI4I4III
IIAAIIA4IIIAIAA4I4IIIAIIIIAI4AAIAI4AAAI44I4IIAA4AA4AIA4IAI4I4III
IIAAIIA4IIIA4AA4I4IIIAIIIIAI4AAIAI4AAAI44I4IIAA4AA4AIA4IAI4I4III
IIAAIIA4IIIA4AA4I4IIAAIIIIAI4AAIAI4AAAI44I4IIAA4AA4AIA4IAI4I4III
IIAAIIA4IIIA4AA4I4IIAA4IIIAI4AAIAI4AAAI44I4IIAA4AA4AIA4IAI4I4III
IIAAIIA4IIIA4AA4I4IIAA4IIIAI4AA4AI4AAAI44I4IIAA4AA4AIA4IAI4I4III
IIAAIIA4IIIA4AA4I4IIAA4IIIAI4AA4AIAAAAI44I4IIAA4AA4AIA4IAI4I4III
[...]
AAAA44AIA44IIIAIA44A4AI44IAAI4AII4IAI44AA44AAAA444IIIAI4AI4IIIII
AAAA44AIA44IIIAIA44A4AI44IAAI4AII4IAI44AA44AAAA444IIIAI4AI44IIII
AAAA44AIA44IIIAIA44A4AI44IAAI4AII4IAI44AA44AAAA444AIIAI4AI44IIII
AAAA44AIA44IIIAIA44A4AI44IAAI4AII4IAI44AA44AAAA444AIIAA4A444IIII
AAAA44AIA44IIIAIA44A4AI44IAAI4AII4IAIA4AA44AAAA444AIIAA4A444IIII
AAAA44AIA44IIIAIA44A4AI44IAAI4A4I4IAIA4AA44AAAA444AIIAA4A444IIII
AAAA44AIA44IIIAIA44A4AI44IAAI4A4A4IAIA4AA44AAAA444AIIAA4A444IIII
AAAA44AIA44IIIAIA44A4AI44IAAI4A4A4IAIA4AA44AAAA444AIIAA4A444IA4I
AAAA44AIA44IIIAIA44A4AI44IAAI4A4A4IAIA4AA44AAAA444AAIAA4A444IA4I
AAAA44AIA44IA4AIA44A4AI44IAAI4A4A4IAIA4AA44AAAA444AAIAA4A444IA4I
AAAA44A4A44IA4AIA44A4AI44IAAI4A4A4IAIA4AA44AAAA444AAIAA4A444IA4I
AAAA44A4A44IA4AIA44AAAI44IAAI4A4A4IAIA4AA44AAAA444AAIAA4A444IA4I
AAAA44A4A44IA4AIA44AAAI444AAI4A4A4IAIA4AA44AAAA444AAIAA4A444IA4I
AAAA44A4A44IA4AIA44AAAIA44AAI4A4A4IAIA4AA44AAAA444AAIAA4A444IA4I
AAAA44A4A44IA4AIA44AAAIA44AAI4A4A4IAIA4AA44AAAA4A4AA4AA4A444IA4I
AAAA44A4A44IA4AIA44AAAIA44AAI4A4A4AA4A4AA44AAAA4A4AA4AA4A444IA4I
AAAA44A4A44IA4AIA44AAA4A44AAI4A4A4AA4A4AA44AAAA4A4AA4AA4A444IA4I
AAAA44A4A44IA4AIA44AAA4A44AAI4A4A4AA4A4AA4AAAAA4A4AA4AA4A444IA4I
AAAA44A4A44IA4AIA44AAA4A44AAI4A4A4AA4A4AA4AAAAA4A4AAAAA4A444IA4I
AAAA44A4A44IA4AIA44AAA4A44AAI4A4A4AA4AAAA4AAAAA4A4AAAAA4A444IA4I
AAAA44A4A44AA4AIA44AAA4A44AAI4A4A4AA4AAAA4AAAAA4A4AAAAA4A444IA4I
AAAA4AA4A44AA4AIA44AAA4A44AAI4A4A4AA4AAAA4AAAAA4A4AAAAA4A444IA4I
AAAA4AA4A44AA4AIA44AAAAA44AAI4A4A4AA4AAAA4AAAAA4A4AAAAA4A444IA4I
AAAA4AA4A44AA4AIA44AAAAA44AAI4A4AAAA4AAAA4AAAAA4A4AAAAA4A444IA4I
AAAA4AA4A44AA4AIA44AAAAA4AAAI4A4AAAA4AAAA4AAAAA4A4AAAAA4A444IA4I
IIAI4IIIIIIIIIIIIIIIIIIIIIIIIIIIIIIIIIIIIIIIIIIIIIIIIIIIIIIIIIII
IIAIAI4IIIIIIIIIIIIIIIIIIIIIIIIIIIIIIIIIIIIIIIIIIIIIIIIIIIIIIIII
IIAIAIAI4IIIIIIIIIIIIIIIIIIIIIIIIIIIIIIIIIIIIIIIIIIIIIIIIIIIIIII
IIAIAIAI4IIAI4IIIIIIIIIIIIIIIIIIIIIIIIIIIIIIIIIIIIIIIIIIIIIIIIII
IIAIAIAI4IIAIAI4IIIIIIIIIIIIIIIIIIIIIIIIIIIIIIIIIIIIIIIIIIIIIIII
IIAIAIAI4IIAIAIAI4IIIIIIIIIIIIIIIIIIIIIIIIIIIIIIIIIIIIIIIIIIIIII
IIAIAIAI4IIAIAIAI4IIAI4IIIIIIIIIIIIIIIIIIIIIIIIIIIIIIIIIIIIIIIII
IIAIAIAI4IIAIAIAI4IIAA44IIIIIIIIIIIIIIIIIIIIIIIIIIIIIIIIIIIIIIII
IIAIAIAI4IIAIAIAI4IIAA44IIIIIAI4IIIIIIIIIIIIIIIIIIIIIIIIIIIIIIII
IIAIAIAI4IIAIAIAI4IIAA44IIIIIAA44IIIIIIIIIIIIIIIIIIIIIIIIIIIIIII
IIAIAIAI4IIAIAIAI4IIAA44IIIIIAA44IAI4IIIIIIIIIIIIIIIIIIIIIIIIIII
IIAIAIAI4IIAIAIAI4IIAA44IIIIIAA44IAA44IIIIIIIIIIIIIIIIIIIIIIIIII
IIAIAIAI4IIAIAIAI4IIAA44IIIIIAA44IAA44AI4IIIIIIIIIIIIIIIIIIIIIII
IIAIAIAI4IIAIAIAI4IIAA44IIIIIAA44IAA44AIAI4IIIIIIIIIIIIIIIIIIIII
IIAIAIAI4IIAIAIAI4IIAA44IIIIIAA44IAA44AIAI4IAI4IIIIIIIIIIIIIIIII
IIAIAIAI4IIAIAIAI4IIAA44IIIIIAA44IAA44AIAI4IAA44IIIIIIIIIIIIIIII
IIAIAIAI4IIAIAIAI4IIAA44IIIIIAA44IAA44AIAI4IAA44AI4IIIIIIIIIIIII
IIAIAIAI4IIAIAIAI4IIAA44IIIIIAA44IAA44AIAI4IAA44AA44IIIIIIIIIIII
IIAAAIAI4IIAIAIAI4IIAA44IIIIIAA44IAA44AIAI4IAA44AA44IIIIIIIIIIII
IIAAAIAI4IIAIAIAI4IIAA44IIIIIAA44IAA44AIAI4IAA44AA44IIIIA4IIIIII
IIIAIIIIIIIIIIIIIIIIIIIIIIIIIIIIIIIIIIIIIIIIIIIIIIIIIIIIIIIIIIII
IIIAIIIIIIIIIIIIIIIIIIIIIIIIIIIIIIIIIIIIIIIIIAIIIIIIIIIIIIIIIIII
IIIAIIIIIIIIIIAIIIIIIIIIIIIIIIIIIIIIIIIIIIIIIAIIIIIIIIIIIIIIIIII
IIIAIIIIIIIIIIAIIIIIIIIIIIIIIIIIIIIIIIIIIIIIIAIIIIIIIAIIIIIIIIII
IIIAIIIIIIIIIIAIIIIIIAIIIIIIIIIIIIIIIIIIIIIIIAIIIIIIIAIIIIIIIIII
IIIAIIIIIIIIIIAIIIIIIAIIIIIIIIIIIIIIIIIIIIIIIAIIIIIIIAIIIIIIIAII
IIIAIIIIIIIIIIAIIIIIIAIAIII4IIIIIIIIIIIIIIIIIAIIIIIIIAIIIIIIIAII
IIIAIIIIIIIIIIAIIIIIIAIAIII4IIIIIIIAIII4IIIIIAIIIIIIIAIIIIIIIAII
IIIAIIIIIIIIIIAIIIIIIAIAIII4IIIIIIIAIII4I4IIIAIIIIIIIAIIIIIIIAII
IIIAIIIIIIIIIIAIIIIIIAIAIII4IIIIIIIAIIIAI4IIIAIIIIIIIAIIIIIIIAII
IIIAIIIIIIIIIIAIIIIIAAIAIII4IIIIIIIAIIIAI4IIIAIIIIIIIAIIIIIIIAII
IIIAIAI4IIIIIIAIIIIIAAIAIII4IIIIIIIAIIIAI4IIIAIIIIIIIAIIIIIIIAII
IIIAIAI4IIIIIIAIIIIIAAIAIII4IIIIIIIAIIIAI4IIIAI4IIIIIAIIIIIIIAII
IIIAIAI4IAI4IIAIIIIIAAIAIII4IIIIIIIAIIIAI4IIIAI4IIIIIAIIIIIIIAII
IIIAIAI4IAI4IIAIIIIIAAIAIII4IIIIIIIAI4IAI4IIIAI4IIIIIAIIIIIIIAII
IIIAIAI4IAI4IIAIIIIIAA4AIII4IIIIIIIAI4IAI4IIIAI4IIIIIAIIIIIIIAII
IIIAIAI4IAI4IIAIIIIIAA4AIII4IIIIIIIAI4IAI4IIIAI4IIIIIA44IIIIIAII
IIIAIAI4IAI4IIAIIIIIAA4AIII4IIIIIIIAI4IAI4IIIAI4AI4IIA44IIIIIAII
IIIA4AI4IAI4IIAIIIIIAA4AIII4IIIIIIIAI4IAI4IIIAI4AI4IIA44IIIIIAII
IIIA4AA4IAI4IIAIIIIIAA4AIII4IIIIIIIAI4IAI4IIIAI4AI4IIA44IIIIIAII
IIIA4AA4IAIA4IAIIIIIAA4AIII4IIIIIIIAI4IAI4IIIAI4AI4IIA44IIIIIAII
IIIA4AA4IAIA4IAIIIIIAA4AIII4IIA4IIIAI4IAI4IIIAI4AI4IIA44IIIIIAII
IIIA4AA4IAIA4IAIIIIIAA4AIII4IIA4IIAAI4IAI4IIIAI4AI4IIA44IIIIIAII
IIIA4AA4IAIA4IAIIIIIAA4AIII4IIA4IIAA44IAI4IIIAI4AI4IIA44IIIIIAII
IIIA4AA4IAIA4IAIIIIIAA4AIII4IIA4IIAA4A4AI4IIIAI4AI4IIA44IIIIIAII
IIIA4AA4IAIA4IAIIIIIAA4AIII4IIA4IIAA4A4AI4IIIA44AI4IIA44IIIIIAII
IIIA4AA4IAIA4IAIIIIIAA4AIII4IIA4IIAA4A4AI4IIIA44AI4IIA4A4IIIIAII
IIIA4AA4IAIA4IAIIIIIAA4AIII4IIA4IIAA4A4AI4IIIA44AI4IIA4AA4IIIAII
IIIA4AA4IAIA4IAIIIIIAA4AIII4IIA4IIAAAA4AI4IIIA44AI4IIA4AA4IIIAII
IIIA4AA4IAIA4IAIIIIIAA4AIII4IIA4IIAAAA4AI4IIIA44AI4IIAAAA4IIIAII
AI4A4AA4IAIA4IAIIIIIAA4AIII4IIA4IIAAAA4AI4IIIA44AI4IIAAAA4IIIAII
AI4A4AA44AIA4IAIIIIIAA4AIII4IIA4IIAAAA4AI4IIIA44AI4IIAAAA4IIIAII
AI4A4AA44AIA4IAIIIIIAA4AIII4IIA4IIAAAA4AI4IIAA44AI4IIAAAA4IIIAII
AIAA4AA44AIA4IAIIIIIAA4AIII4IIA4IIAAAA4AI4IIAA44AI4IIAAAA4IIIAII
AIAA4AA44AIA4IAIIIIIAA4AIII4IIA4IIAAAA4AI4IAAA44AI4IIAAAA4IIIAII
AIAA4AA44AIA4IAIIIIIAA4AIII4IIA4IIAAAA4AI4IAAA44AI4IIAAAA44IIAII
AIAA4AA44AIA4IAIIIIIAA4AIII4IAA444AAAA4AI4IAAA44AI4IIAAAA44IIAII
AIAA4AA44AIA4IA4IIIIAA4AIII4IAA444AAAA4AI4IAAA44AI4IIAAAA44IIAII
AIAA4AA44AIA4IAA4IIIAA4AIII4IAA444AAAA4AI4IAAA44AI4IIAAAA44IIAII
AIAA4AA44AIA4IAA4A4IAA4AIII4IAA444AAAA4AI4IAAA44AI4IIAAAA44IIAII
AIAAAAA44AIA4IAA4A4IAA4AIII4IAA444AAAA4AI4IAAA44AI4IIAAAA44IIAII
AIAAAAA44A4A4IAA4A4IAA4AIII4IAA444AAAA4AI4IAAA44AI4IIAAAA44IIAII
AIAAAAA44A4AA4AA4A4IAA4AIII4IAA444AAAA4AI4IAAA44AI4IIAAAA44IIAII
AIAAAAA44A4AA4AA4AA4AA4AIII4IAA444AAAA4AI4IAAA44AI4IIAAAA44IIAII
AIAAAAA44A4AA4AA4AA4AA4AIII4IAA444AAAAAAI44AAA44AI4IIAAAA44IIAII
AIAAAAA44A4AA4AA4AA4AA4AIII4IAA444AAAAAAI44AAA44A44IIAAAA44IIAII
AIAAAAA44A4AA4AA4AA4AA4AIII4IAA444AAAAAAI44AAA44A44IIAAAA44IIA4I
AIAAAAA4AA4AA4AA4AA4AA4AIII4IAA444AAAAAAI44AAA44A44IIAAAA44IIA4I
AIAAAAA4AAAAA4AA4AA4AA4AIII4IAA444AAAAAAI44AAA44A44IIAAAA44IIA4I
AIAAAAA4AAAAAAAA4AA4AA4AIII4IAA444AAAAAAI44AAA44A44IIAAAA44IIA4I
AIAAAAA4AAAAAAAA4AA4AA4AIII4IAA44AAAAAAAI44AAA44A44IIAAAA44IIA4I
AIAAAAA4AAAAAAAA4AA4AA4AIII4IAA44AAAAAAAI44AAA44A44IIAAAA44IIA44
AIAAAAA4AAAAAAAA4AA4AA4AIII4IAA44AAAAAAAI44AAA44A44IIAAAA44IIA4A
AIAAAAA4AAAAAAAA4AA4AA4AIIA4IAA44AAAAAAAI44AAA44A44IIAAAA44IIA4A
AIAAAAA4AAAAAAAA4AAAAA4AIIA4IAA44AAAAAAAI44AAA44A44IIAAAA44IIA4A
AIAAAAA4AAAAAAAA4AAAAA4AIIA44AA44AAAAAAAI44AAA44A44IIAAAA44IIA4A
AIAAAAA4AAAAAAAA4AAAAA4AIIA44AA44AAAAAAAI44AAA44A44IAAAAA44IIA4A
AIAAAAA4AAAAAAAA4AAAAA4AIIA44AA44AAAAAAAI44AAAA4A44IAAAAA44IIA4A
AIAAAAA4AAAAAAAA4AAAAA4AIIA44AA44AAAAAAAI44AAAA4A4AIAAAAA44IIA4A
A4AAAAA4AAAAAAAA4AAAAA4AIIA44AA44AAAAAAAI44AAAA4A4AIAAAAA44IIA4A
A4AAAAA4AAAAAAAA4AAAAA4AIIAA4AA44AAAAAAAI44AAAA4A4AIAAAAA44IIA4A
A4AAAAA4AAAAAAAA4AAAAA4AIIAAAAA44AAAAAAAI44AAAA4A4AIAAAAA44IIA4A
A4AAAAA4AAAAAAAA4AAAAA4AIIAAAAA44AAAAAAAI44AAAA4A4A4AAAAA44IIA4A
A4AAAAA4AAAAAAAA4AAAAA4AIIAAAAA44AAAAAAAI44AAAA4A4A4AAAAA444IA4A
A4AAAAA4AAAAAAAA4AAAAA4AIIAAAAA44AAAAAAAA44AAAA4A4A4AAAAA444IA4A
A4AAAAA4AAAAAAAA4AAAAA4AIIAAAAA44AAAAAAAA44AAAAAA4A4AAAAA444IA4A
AAAAAAA4AAAAAAAA4AAAAA4AIIAAAAA44AAAAAAAA44AAAAAA4A4AAAAA444IA4A
AAAAAAA4AAAAAAAA4AAAAA4AIIAAAAA44AAAAAAAA44AAAAAA4A4AAAAA4A4IA4A
AAAAAAA4AAAAAAAA4AAAAA4AIIAAAAA44AAAAAAAA4AAAAAAA4A4AAAAA4A4IA4A
AAAAAAA4AAAAAAAA4AAAAA4AI4AAAAA44AAAAAAAA4AAAAAAA4A4AAAAA4A4IA4A
AAAAAAA4AAAAAAAAAAAAAA4A44AAAAA44AAAAAAAA4AAAAAAA4A4AAAAA4A4IA4A
AAAAAAA4AAAAAAAAAAAAAA4A44AAAAA44AAAAAAAA4AAAAAAA4A4AAAAA4A44A4A
AAAAAAA4AAAAAAAAAAAAAA4A44AAAAA44AAAAAAAA4AAAAAAA4AAAAAAA4A44A4A
AAAAAAA4AAAAAAAAAAAAAA4A44AAAAA44AAAAAAAA4AAAAAAA4AAAAAAA4A4AA4A
AAAAAAA4AAAAAAAAAAAAAAAA44AAAAA44AAAAAAAA4AAAAAAA4AAAAAAA4A4AA4A
AAAAAAA4AAAAAAAAAAAAAAAA44AAAAAA4AAAAAAAA4AAAAAAA4AAAAAAA4A4AA4A
AAAAAAA4AAAAAAAAAAAAAAAA44AAAAAA4AAAAAAAAAAAAAAAA4AAAAAAA4A4AA4A
AAAAAAA4AAAAAAAAAAAAAAAA44AAAAAA4AAAAAAAAAAAAAAAA4AAAAAAA4AAAA4A
AAAAAAA4AAAAAAAAAAAAAAAA44AAAAAAAAAAAAAAAAAAAAAAA4AAAAAAA4AAAA4A
AAAAAAA4AAAAAAAAAAAAAAAAA4AAAAAAAAAAAAAAAAAAAAAAA4AAAAAAA4AAAA4A
IIIIIIAIIIIIIIIIIIIIIIIIIIIIIIIIIIIIIIIIIIIIIIIIIIIIIIIIIIIIIIII
IIIIIIAIIAIIIIIIIIIIIIIIIIIIIIIIIIIIIIIIIIIIIIIIIIIIIIIIIIIIIIII
IIIIIIAIIAIIIAIIIIIIIIIIIIIIIIIIIIIIIIIIIIIIIIIIIIIIIIIIIIIIIIII
IIIIIIAIIAIIIAIIIIIIAIIIIIIIIIIIIIIIIIIIIIIIIIIIIIIIIIIIIIIIIIII
IIIIIIAIIAIIIAIIIIIIAIAIIIIIIIIIIIIIIIIIIIIIIIIIIIIIIIIIIIIIIIII
IIIIIIAIIAIIIAIIIIIIAIAIIIIIAIIIIIIIIIIIIIIIIIIIIIIIIIIIIIIIIIII
IIIIIIAIIAIIIAIIIIIIAIAIIIIIAIAIIIIIIIIIIIIIIIIIIIIIIIIIIIIIIIII
IIIIIIAIIAIIIAIIIIIIAIAIIIIIAIAIIIIAIIIIIIIIIIIIIIIIIIIIIIIIIIII
IIIIIIAIIAIIIAIIIIIIAIAIIIIIAIAIIIIAIIIIIIAIIIIIIIIIIIIIIIIIIIII
IIIIIIAIIAIIIAIIIIIIAIAIIIIIAIAIIIIAIIIIIIAIIAIIIIIIIIIIIIIIIIII
IIIIIIAIIAIIIAIIIIIIAIAIIIIIAIAIIIIAIIIIIIAIIAIIAIIIIIIIIIIIIIII
IIIIIIAIIAIIIAIIIIIIAIAIIIIIAIAIIIIAIIIIIIAIIAIIAIAIIIIIIIIIIIII
IIIIIIAIIAIIIAIIIIIIAIAIIIIIAIAIIIIAIIIIIIAIIAIIAIAIIAIIIIIIIIII
IIIIIIAIIAIIIAIIIIIIAIAIIIIIAIAIIIIAIIIIIIAIIAIIAIAIIAIIAIIIIIII
IIIIIIAIIAIIIAIIIIIIAIAIIIIIAAAIIIIAIIIIIIAIIAIIAIAIIAIIAIIIIIII
IIIIIIAIIAIIIAIIIIIIAIAIIIIIAAAIIIIAIIIIIIAIIAAIAIAIIAIIAIIIIIII
IIIIIIAIIAIIIAIIIIIIAIAIIIIIAAAIIIIA4IIIIIAIIAAIAIAIIAIIAIIIIIII
IIIIIIAIIAIIIAIIIIIIAIAIIIIIAAAIIIIA4IIIIIAIIAAIAIAIIAIIAIIIIA4I
IIIAI4AIIAIIIAIIIIIIAIAIIIIIAAAIIIIA4IIIIIAIIAAIAIAIIAIIAIIIIA4I
IIIAI4AIIAIIIAIIIIIIAIAIIIIIAAAIIIAA4IIIIIAIIAAIAIAIIAIIAIIIIA4I
IIIAI4AIIAIIIAIIIIIIAIAIIIIIAAAIIIAA4IIIIIAIIAAAA4AIIAIIAIIIIA4I
IIIAI4AIIAIIIAIIIIIIAIAIIIIIAAAI4IAA4IIIIIAIIAAAA4AIIAIIAIIIIA4I
IIIAI4AIIAIIIAIIIIIIAIAIIIIIAAAI4IAA4IIIIIAIIAAAA4AIIAI4AIIIIA4I
IIIAI4AIIAIIIAIIIIIIAIAIIIIIAAAI4IAA4IIIIIAIIAAAA4AIAAI4AIIIIA4I
IIIAI4AIIAIIIAI4IIIIAIAIIIIIAAAI4IAA4IIIIIAIIAAAA4AIAAI4AIIIIA4I
IIIAI4AIIAIIIAI4IIIIAIAIIIIIAAAI4IAA4IIIIIAIIAAAA4AIAAIAA4IIIA4I
IIIAI4AI4AIIIAI4IIIIAIAIIIIIAAAI4IAA4IIIIIAIIAAAA4AIAAIAA4IIIA4I
IIIAI4AI4AIIAA44IIIIAIAIIIIIAAAI4IAA4IIIIIAIIAAAA4AIAAIAA4IIIA4I
IIIAI4AI4AIIAA44IIIIAAA4IIIIAAAI4IAA4IIIIIAIIAAAA4AIAAIAA4IIIA4I
IIIAI4AI4AIIAA44IIIIAAA4IIIIAAAI4IAA4IIIIIAAIAAAA4AIAAIAA4IIIA4I
IIIIIIAIIIIIIIIII4IIIIIIIIIIIIIIIIIIIIIIIIIIIIIIIIIIIIIIIIIIIIII
IIIIIIAIIIIIIIIII4AIIIIIIIIII4IIIIIIIIIIIIIIIIIIIIIIIIIIIIIIIIII
IIIIIIAIIIIIIIIII4AIIIIIIIAII4IIIIIII4IIIIIIIIIIIIIIIIIIIIIIIIII
IIIIIIAIIIIIIIIII4AIIIIIIIAII4AIIIIII4III4IIIIIIIIIIIIIIIIIIIIII
IIIIIIAIIIIIIIIII4AIIIIIIIAII4AIIIIII4III4IIIAIIIIIIIIII4IIIIIII
IIIIIIAIIIIIIIIII4AIIIIIIIAII4AIIIIII4III4IIIAIIIIIIIIII4IIIIIIA
IIIIIIAI4III4IIII4AIIIIIIIAII4AIIIIII4III4IIIAIIIIIIIIII4IIIIIIA
IIIIIIAI4III4IIII4AIIIIIIIAII4AIIIIAI4III4IIIAIIIIIIIIII4IIIIIIA
IIIAIIAI4III4IIII4AIIIIIIIAII4AIIIIAI4III4IIIAIIIIIIIIII4IIIIIIA
IIIAIAAI4I4I4IIII4AIIIIIIIAII4AIIIIAI4III4IIIAIIIIIIIIII4IIIIIIA
IIIAIAAI4I444IIII4AIIIIIIIAII4AIIIIAI4III4IIIAIIIIIIIIII4IIIIIIA
IIIAIAAI4I444AIII4AIIIIIIIAII4AIIIIAI4III4IIIAIIIIIIIIII4IIIIIIA
IIIAIAAI4I444AAII4A4IIIIIIAII4AIIIIAI4III4IIIAIIIIIIIIII4IIIIIIA
IIIAIAAI4I444AAII4A4AIIII4AII4AIIIIAI4III4IIIAIIIIIIIIII4IIIIIIA
IIIAIAAI4I444AAII4A4AIIAI4AI44AIIIIAI4III4IIIAIIIIIIIIII4IIIIIIA
IIIAIAAI4I444AAII4A4AIIAI4AI44AIAIIAI4III4IIIAIIIIIIIIII4IIIIIIA
IIIAIAAI4I444AAII4A4AIIAI4AI44AIAIIAI4II44IIIAIIIIIIIIII4IIIIIIA
IIIAIAAI4I444AAII4A4AIIAI4AI44AIAIIAI4II44IAIAII4IIIIIII4IIIIIIA
IIIAIAAI4I444AAII4A4AIIAI4AI44AIAIIAI4II44IAAAII44IIIIII4IIIIIIA
IIIAIAAI4I444AAII4A4AIIAI4AI44AIAIIAI4II44IAAAII444IIIII4IIIIIIA
IIIAIAAI4I444AAII4A4AIIAI4AI44AIAIIAI4II44IAAAII444IIIIIAIIII4IA
IIIAIAAI4I444AAII4A4AIIAI4AI44AIAIIAI4II44IAAAII444IIIIIAIIIA4IA
IIIAIAAI4I444AAII4A4AIIAI4AI44AIAIIAI4II44IAAAII444IIIIIAIIIAAIA
IIIAIAAI4I444AAII4A4AIIAI4AI44A4AIIAI4II44IAAAII444IIIIIAIIIAAIA
IIIAIAAI4I444AAII4A4AIIAI4AI44A4AIIAI4II44IAAAII444A4IIIAIIIAAIA
IIIAIAAI4I444AAII4A4AAIAI4AI44A4AIIAI4II44IAAAII444A4IIIAIIIAAIA
IIIAIAAI4I444AAII4A4AAIAI4AI44A4AIIAI4AI44IAAAII444A4IIIAIIIAAIA
IIIAIAAI4I444AAII4A4AAIAI4AI44A4AIIAI4AI44IAAAII444A4IAIAIIIAAIA
IIIAIAAI4I444AAII4A4AAIAI4AI44A4AIIAI4A444IAAAII444A4IAIAIIIAAIA
IIIAIAAI4I444AAII4A4AAIAI4AI4AA4AIIAI4A444IAAAII444A4IAIAIIIAAIA
IIIAIAAI44444AAII4A4AAIAI4AI4AA4AIIAI4A444IAAAII444A4IAIAIIIAAIA
IIIAIAAI44444AAII4A4AAIA44AI4AA4AIIAI4A444IAAAII444A4IAIAIIIAAIA
IIIAIAAI44444AAII4A4AAIA44AI4AA4A4IAI4A444IAAAII444A4IAIAIIIAAIA
IIIAIAAI44444AAII4A4AAIA44AI4AA4A4AAI4A444IAAAII444A4IAIAIIIAAIA
IIIAIAAI44444AAII4A4AAIA44AI4AA4A4AAI4A4444AAAII444A4IAIAIIIAAIA
IIIAIAAI44444AAII4A4AAIA44AI4AA4A4AAI4AA444AAA4I444A4IAIAIIIAAIA
IIIAIAAI44444AAII4A4AAIA44AI4AA4A4AAI4AAA44AAA44444A4IAIAIIIAAIA
IIIAIAAI44444AAII4A4AAIA44AI4AA4A4AAI4AAA44AAA44444A4IAAAI4IAA4A
IIIAIAAI44444AA4I4A4AAIA44AI4AA4A4AAI4AAA44AAA44444A4IAAAI4IAA4A
IIIAIAAI44444AA4I4A4AA4A44AI4AA4A4AAI4AAA44AAA44444A4IAAAI4IAA4A
IIIAIAAI44444AA4I4A4AAAA44AI4AA4A4AAI4AAA44AAA44444A4IAAAI4IAA4A
IIIAIAAI44444AA4I4A4AAAA44AI4AA4A4AA44AAA44AAA44444A4IAAAI4IAA4A
IIIAIAAI44444AA4I4A4AAAA44AI4AA4A4AA44AAA44AAAA4444A4IAAAI4IAA4A
IIIAIAAI44444AA4I4A4AAAA44AI4AA4AAAA44AAA44AAAA4444A4IAAAI4IAA4A
IIIAIAAI44444AA4I4A4AAAA44AI4AA4AAAA44AAA44AAAA4444A4IAAAI44AA4A
IIIAIAAI44444AA4A4A4AAAA44AI4AA4AAAA44AAA44AAAA4444A4IAAAI44AA4A
IIIIIIIIAIIIIIIIIIIIIIIIIIIIIIIIIIIIIIIIIIIIIIIIIIIIIIIIIIIIIIII
IIIIIIIIAIIIIIIIIIIIIIIIIIIIIIIIIIIIIIIIIIIIIAIIIIIIIIIIIIIIIIII
IIIIIIIIAIIIIIIIIIIIIIIIIIIIIIIIIIIIIIIIIIIIIAIIIIIIIAIIIIIIIIII
IIIIIIIIAIIIIIIIIIIIIIIAIIIIIIIIIIIIIIIIIIIIIAIIIIIIIAIIIIIIIIII
IIIIIIIIAIIIIIIIIIIIIIIAIIIIIIIIIIIIIIIIIIIIIAIIIIIIIAIIAIIIIIII
IIIIIIIIAIIIIIIIIIIIIIIAIIIIIIIIIIIIIIIIIIIIIAIIIIIIIAIIAIIIAIII
IIIIIIAIAIIIIIIIIIIIIIIAIIIIIIIIIIIIIIIIIIIIIAIIIIIIIAIIAIIIAIII
IIIIIIAIAIIIIIIIIIIIIIIAIIIIIIIIIIAIIIIIIIIIIAIIIIIIIAIIAIIIAIII
IIIIIIAIAIIIIIIIIIIIIIIAIIAIIIIIIIAIIIIIIIIIIAIIIIIIIAIIAIIIAIII
IIIIIIAIAIIIIIIIIIIIIIIAIIAIIIIIIIAAIIIIIIIIIAIIIIIIIAIIAIIIAIII
IIIIIIAIAIIIIIIIIIIIIIIAIIAIIIIIIIAAIIIIIIIIIAIIIIIIIAAIAIIIAIII
IIAIIIAIAI4IIIIII4IIIIIAIIAIIIIIIIAAIIIIIIIIIAIIIIIIIAAIAIIIAIII
IIAAIIAIA444IIIII44IIIIAIIAIIIIIIIAAIIIIIIIIIAIIIIIIIAAIAIIIAIII
IIAAAIAIA4444IIII444IIIAIIAIIIIIIIAAIIIIIIIIIAIIIIIIIAAIAIIIAIII
IIAAAIAIA4444I4II444I4IAIIAIIIIIIIAAIIIIIIIIIAIIIIIIIAAIAIIIAIII
IIAAAIAIA44A4I4II444I4IAIIAIIIIIIIAAIIIIIIIIIAIIIIIIIAAIAIIIAIII
IIAAAIAIA44A4A4II444I4IAIIAI4IIIIIAAIIIIIIIIIAIIIIIIIAAIAIIIAIII
IIAAAIAIA44A4AAII444444AIIAI44IIIIAAIIIIIIIIIAIIIIIIIAAIAIIIAIII
IIAAAIAIA44A4AAIIA44444AI4AI44II4IAAIIIIIIIIIAIIIIIIIAAIAIIIAIII
IIAAAIAIA44A4AAIIA444A4AI4A444II4IAA4IIIIIIIIAIIIIIIIAAIAIIIAIII
IIAAAIAIA44A4AAIIA444A4AI4AA44II44AA4IIIII4IIAIIIIIIIAAIAIIIAIII
IIAAAIAIA44A4AAIIA444A4AI4AAA4II44AA4IIIII44IAIIIIIIIAAIAIIIAIII
IIAAAIAIA44A4AAIIA444A4AI4AAAAII44AA44IIII444AIIIIIIIAAIAIIIAIII
IIAAAIAIA44A4AAIIA444A4AI4AAAAAI44AA444III444AIIIIIIIAAIAIIIAIII
IIAAAIAIA44A4AAIIA444A4AI4AAAAAIA4AA444I4I444AI4IIIIIAAIAIIIAIII
IIAAAIAIA44A4AAIIA444A4AI4AAAAAIA4AA444I4I444AI4I4IIIAAIAIIIAIII
IIAAAIAIA44A4AAIIA444A4AI4AAAAAIA4AA444I44444AI4I44IIAAIAIIIAIII
IIAAAIAIA44A4AAIIA444A4AI4AAAAAIA4AA44AI44444A44I44IIAAIAIIIAIII
IIAAAIAIA44A4AAIIA444A4AI4AAAAAIA4AA44AI444A4A44I444IAAIAI4IAIII
IIAAAIAIA44A4AAIIA444A4AI4AAAAAIA4AA44AI444AAA44I4444AAIAI44AIII
IIAAAIAIA44A4AAIIA444A4AI4AAAAAIA4AA44AI444AAA44A4444AAIAI44AII4
IIAAAIAIA44A4AAIIA444A4AI4AAAAAIA4AA44AI444AAA44A44A4AAIA444AII4
IIAAAIAIA44A4AAIIA444A4AI4AAAAAIA4AA44AI444AAA44A44A4AAIA444A4I4
IIAAAIAIA44A4AAIIA444A4AI4AAAAAIA4AA44AI444AAA44A44A4AAIA444A444
IIAAAIA4A44A4AAIIA444A4AI4AAAAAIA4AA44AI444AAA44A44A4AAIA444A444
IIAAAIA4A44A4AAIIA444A4AI4AAAAA4A4AA44AI444AAA44A44A4AAIA444A444
IIAAAIA4A44A4AAIIA444AAA44AAAAA4A4AA44AI444AAA44A44A4AAIA444A444
IIAAAIA4A44A4AAIIA444AAA44AAAAA4A4AA4AAI444AAA44A44A4AAIA444A444
IIAAAIA4A44AAAAI4A444AAA44AAAAA4A4AA4AAI444AAA44A44A4AAIA444A444
IIAAAIA4A44AAAAI4A444AAA44AAAAA4A4AAAAAI444AAA44A44A4AAIA444A444
IIAAAIA4A44AAAA44A444AAA44AAAAA4A4AAAAAI444AAA44A44A4AAIA444A444
IIAAAIA4A44AAAA44A44AAAA44AAAAA4A4AAAAAI444AAA44A44A4AAIA444A444
IIAAAIA4A44AAAA44A44AAAA44AAAAA4A4AAAAAI444AAA44A4AA4AA4A444A444
IIAAA4A4A44AAAA44A44AAAA44AAAAA4A4AAAAAI444AAA44A4AA4AA4A444A444
IIAAA4A4A44AAAA44A44AAAA44AAAAA4A4AAAAA4444AAA44A4AA4AA4A444A444
IIAAA4A4A44AAAA44A44AAAA44AAAAA4A4AAAAA444AAAA44A4AA4AA4A444A444
IIAAA4A4A44AAAA44A4AAAAA44AAAAA4A4AAAAA444AAAA44A4AA4AA4A444A444
IIAAA4A4A44AAAA44A4AAAAA44AAAAAAA4AAAAA444AAAA44A4AA4AA4A444A444
IIAAA4A4A44AAAA44A4AAAAA44AAAAAAA4AAAAAA44AAAA44A4AA4AA4A444A444
IIAAA4A4A44AAAA44A4AAAAA44AAAAAAA4AAAAAAA4AAAA44A4AA4AA4A444A444
IIAAA4A4A44AAAA44A4AAAAA44AAAAAAA4AAAAAAA4AAAA44A4AA4AA4A44AA444
IIIAIIIIIIIIIIIIIIIIIIIIIIIIIIIIIIIIIIIIIIIIIIIIIIIIIIIIIIIIIIII
IIIAIIIIIIIIIAIIIIIIIIIIIIIIIIIIIIIIIIIIIIIIIIIIIIIIIIIIIIIIIIII
IIIAIIIIIIIIIAIIIIIIIIIIIIIIIIAIIIIIIIIIIIIIIIIIIIIIIIIIIIIIIIII
IIIAIIIIIIIIIAIIIIIIIIIIIIIIIIAIIIIIIIIIIIIIIIIIAIIIIIIIIIIIIIII
IIIAIIIIIIIIIAIIIIIIIIIIIIIIIIAIIIIIIIIIIIIIIIIIAIIIIIAIIIIIIIII
IIIAIIIIIIIIIAIIIIIIIIIIIIIIIIAIIIIAIIIIIIIIIIIIAIIIIIAIIIIIIIII
IIIAIIAIIIIIIAIIIIIIIIIIIIIIIIAIIIIAIIIIIIIIIIIIAIIIIIAIIIIIIIII
IIIAIIAIIIIIIAIIIIIIAIIIIIIIIIAIIIIAIIIIIIIIIIIIAIIIIIAIIIIIIIII
IIIAIIAIIIIIIAIIIIIIAIIIIIIIIIAIIIIAIIIIIIIIIIIIAIIIIIAIAIIIIIII
IIIAIIAIIIIIIAIIIIIIAIIIIIIIIIAIIIIAIIIIIIIIIIIIAIIIIIAIAIIIIAII
IIIAIIAIIIIIIAIIIIIIAIIAIIIIIIAIIIIAIIIIIIIIIIIIAIIIIIAIAIIIIAII
IIAAIIAIIIIIIAIIIIIIAI4AIIIIIIAIIIIAIIIIIIIIIIIIAIIIIIAIAIIIIAII
IIAAIIAIIIIIIAIII4IIAI4AII4IIIAIIIIAIIIIIIIIIIIIAIIIIIAIAIIIIAII
IIAAIIAIIIIIIA4II4IIAI4AII4IIIAIIIIAIIIIIIIIIIIIAIIIIIAIAIIIIAII
IIAAIIAIAIIIIA4II4I4AI4AII4I4IAIIIIAIIIIIIIIIIIIAIIIIIAIAIIIIAII
IIAAIIAIAAIIIA4II4I4AI4AII4I44AIIIIAIIIIIIIIIIIIAIIIIIAIAIIIIAII
IIAAIIAIAAIAIA4II4I4AI4AII4I44A4IIIAIIIIIIIIIIIIAIIIIIAIAIIIIAII
IIAAIIAIAAIAAA4II4I4AI4AII4I44A44IIAIIIIIIIIIIIIAIIIIIAIAIIIIAII
IIAAIIAIAAIAAA4II4I4AI4A4I4I44A444IAIIIIIIIIIIIIAIIIIIAIAIIIIAII
IIAAIIAIAAIAAA4II4I4AI4A4I4I44A444IAIIII4IIIIIIIAIIIIIAIAIIIIAII
IIAAIIAIAAIAAA4II4I4AA4A4I4I44A444IAIIII44IIIIIIAIIIIIAIAIIIIAII
IIAAIIAIAAIAAA4II4I4AA4A4I4I44A4444AIIII44I4IIIIAIIIIIAIAIIIIAII
IIAAIIAIAAIAAA4II4I4AA4A4A4I44A4444A4III44I4I4IIAIIIIIAIAIIIIAII
IIAAIIAIAAIAAA4II4I4AA4A4AAI44A4444A44II44I4I44IAIIIIIAIAIIIIAII
IIAAIIAIAAIAAA4II4I4AA4A4AAI44A4444A44II44I4I44IAI4IIIAIAIIIIAII
IIAAIIAIAAIAAA4II4I4AA4A4AAI44A44A4A44II44I4444IAI4II4AIAIIIIAII
IIAAIIAIAAIAAA4II4I4AA4A4AAI44A44AAA44II44I4444IAI4II4AIAIIIIAII
IIAAIIAIAAIAAA4II4I4AA4A4AAI44A44AAA44II44I4444IAI4II4A4AIIIIAII
IIAAIIAIAAIAAA4II4I4AA4A4AAI44A44AAA4AII44I4444IAI4II4A4A4IIIAII
IIAAIIAIAAIAAA4II4I4AA4A4AAI44A44AAA4AII44IA444IAI4II4A4A4IIIAI4
IIAAIIAIAAIAAA4II4I4AA4A4AAI44A44AAA4AII44IAA44IAI4II4A4A4IIIAI4
IIAAIIAIAAIAAA4II4I4AA4A4AAI44A44AAA4AII44IAAA4IAI4II4A4A4IIIAI4
IIAAIIAIAAIAAA4II4I4AA4A4AAI44A44AAA4AII44IAAA4AAI4II4A4A44IIAI4
IIAAIIAIAAIAAA4II4I4AA4A4AAI44A44AAA4AII44IAAA4AAI4II4A4A444IAI4
IIAAIIAIAAIAAA4II4I4AA4A4AAI44A44AAA4AII44IAAA4AAI4IIAA4A444IAI4
IIAAIIAIAAIAAA4II4I4AA4A4AAI44A44AAA4AIIA44AAA4AAI4IIAA4A444IAI4
IIAAIIAIAAIAAA4II4I4AA4A4AAI44A44AAA4AIIA44AAA4AAIAI4AA4A444IAI4
IIAAIIAIAAIAAA4II4I4AA4A4AAI44A44AAA4AIIA44AAA4AAIAI4AA4A44AIAI4
IIAA4IAIAAIAAA4II4I4AA4A4AAI44A44AAA4AIIA44AAA4AAIAI4AA4A44AIAI4
IIAA4IAIAAIAAA44I4I4AA4A4AAI44A44AAA4AIIA44AAA4AAIAI4AA4A44AIAI4
IIAA4IAIAAIAAA44I4I4AA4A4AAI4AA44AAA4AIIA44AAA4AAIAI4AA4A44AIAI4
IIAA4IAIAAIAAA44I4I4AA4A4AAI4AA44AAA4AAIA44AAA4AAIAI4AA4A44AIAI4
IIAA4IAIAAIAAA44I4I4AA4A4AAI4AA44AAA4AAIA44AAA4AA4A44AA4A44AIAI4
IIAA4IA4AAIAAA44I4I4AA4A4AAI4AA44AAA4AAIA44AAA4AA4A44AA4A44AIAI4
IIAA4IA4AAIAAA44I4I4AA4A4AAI4AA44AAA4AA4A44AAA4AA4A44AA4A44AIAI4
IIAA4IA4AAIAAA44I4I4AA4A4AAI4AA44AAA4AA4A44AAA4AA4A44AA4A44A4AI4
[MLOP] Prefetch Degree Mean: 2.26927
[MLOP] Prefetch Degree SD: 2.45716
[MLOP] Max Score Left Mean (%): 15.66409
[MLOP] Max Score Left SD (%): 7.70460
[MLOP] Max Score Right Mean (%): 37.06309
[MLOP] Max Score Right SD (%): 9.82394

Channel_0_RQ_row_buffer_hit 810566
Channel_0_RQ_row_buffer_miss 2819350
Channel_0_WQ_row_buffer_hit 423492
Channel_0_WQ_row_buffer_miss 708463
Channel_0_WQ_full 0
Channel_0_dbus_congested 1930902

avg_congested_cycle 9

DRAM_bw_pochs 1622687
DRAM_bw_level_0 1108646
DRAM_bw_level_1 447033
DRAM_bw_level_2 52175
DRAM_bw_level_3 14833
