*************************************************
   ChampSim Multicore Out-of-Order Simulator
   Last compiled: Apr  3 2025 20:54:34
*************************************************
parsing config file: /home/zir/Pythia/config/mlop.ini

trace_0 /home/zir/ChampSim/ML-DPC/ChampSimTraces/gap/bc-12.trace.gz
adding L2C_PREFETCHER: MLOP
Initialize SHIP state
warmup_instructions 10000000
simulation_instructions 50000000
champsim_seed 99
measure_ipc 0
measure_ipc_epoch 1000
measure_dram_bw 1
measure_dram_bw_epoch 256
measure_cache_acc 1
measure_cache_acc_epoch 1024
l1d_perfect 0
l2c_perfect 0
llc_perfect 0
l1d_semi_perfect 0
l2c_semi_perfect 0
llc_semi_perfect 0
semi_perfect_cache_page_buffer_size 64

num_cpus 1
cpu_freq 4000
dram_io_freq 2400
page_size 4096
block_size 64
max_read_per_cycle 8
max_fill_per_cycle 1
dram_channels 1
log2_dram_channels 0
dram_ranks 1
dram_banks 8
dram_rows 65536
dram_columns 128
dram_row_size 8
dram_size 4096
dram_pages 1048576

fetch_width 6
decode_width 6
exec_width 4
lq_width 2
sq_width 2
retire_width 4
scheduler_size 128
branch_mispredict_penalty 20
rob_size 256
lq_size 72
sq_size 56
num_instr_destinations_sparc 4
num_instr_destinations 2
num_instr_sources 4

itlb_set 16
itlb_way 8
itlb_rq_size 16
itlb_wq_size 16
itlb_pq_size 0
itlb_mshr_size 8
itlb_latency 1

dtlb_set 16
dtlb_way 4
dtlb_rq_size 16
dtlb_wq_size 16
dtlb_pq_size 0
dtlb_mshr_size 8
dtlb_latency 1

stlb_set 128
stlb_way 12
stlb_rq_size 32
stlb_wq_size 32
stlb_pq_size 0
stlb_mshr_size 16
stlb_latency 8

l1i_size 32
l1i_set 64
l1i_way 8
l1i_rq_size 64
l1i_wq_size 64
l1i_pq_size 8
l1i_mshr_size 8
l1i_latency 1

l1d_size 32
l1d_set 64
l1d_way 8
l1d_rq_size 64
l1d_wq_size 64
l1d_pq_size 8
l1d_mshr_size 16
l1d_latency 4

l2c_size 256
l2c_set 512
l2c_way 8
l2c_rq_size 32
l2c_wq_size 32
l2c_pq_size 32
l2c_mshr_size 32
l2c_latency 10

llc_size 2048
llc_set 2048
llc_way 16
llc_rq_size 32
llc_wq_size 32
llc_pq_size 32
llc_mshr_size 64
llc_latency 20

dram_channel_width 8
dram_wq_size 64
dram_rq_size 64
tRP 15
tRCD 15
tCAS 12.5
dram_dbus_turn_around_time 30
dram_write_high_wm 56
dram_write_low_wm 48
min_dram_writes_per_switch 16
dram_mtps 2400
dram_dbus_return_time 13

mlop_pref_degree 16
mlop_num_updates 500
mlop_l1d_thresh 2
mlop_l2c_thresh 0.75
mlop_llc_thresh 0.3
mlop_debug_level 0
mlop_blocks_in_cache 4096
mlop_blocks_in_zone 64
mlop_amt_size 2048
mlop_PF_DEGREE 16
mlop_NUM_UPDATES 500
mlop_L1D_THRESH 1000
mlop_L2C_THRESH 375
mlop_LLC_THRESH 150
mlop_ORIGIN 63
mlop_MAX_OFFSET 63
mlop_MIN_OFFSET -63
mlop_ORIGIN 63
mlop_NUM_OFFSETS 127


Heartbeat CPU  0 instructions:    1000000 cycles:     577393 heartbeat IPC: 1.73192 cumulative IPC: 1.73192 (Simulation time: 0 hr 0 min 2 sec) 
Heartbeat CPU  0 instructions:    2000002 cycles:    1121493 heartbeat IPC: 1.83790 cumulative IPC: 1.78334 (Simulation time: 0 hr 0 min 4 sec) 
Heartbeat CPU  0 instructions:    3000003 cycles:    1773547 heartbeat IPC: 1.53362 cumulative IPC: 1.69153 (Simulation time: 0 hr 0 min 5 sec) 
Heartbeat CPU  0 instructions:    4000000 cycles:    2703022 heartbeat IPC: 1.07587 cumulative IPC: 1.47983 (Simulation time: 0 hr 0 min 7 sec) 
Heartbeat CPU  0 instructions:    5000000 cycles:    3746427 heartbeat IPC: 0.95840 cumulative IPC: 1.33460 (Simulation time: 0 hr 0 min 8 sec) 
Heartbeat CPU  0 instructions:    6000002 cycles:    4795514 heartbeat IPC: 0.95321 cumulative IPC: 1.25117 (Simulation time: 0 hr 0 min 9 sec) 
Heartbeat CPU  0 instructions:    7000000 cycles:    5852349 heartbeat IPC: 0.94622 cumulative IPC: 1.19610 (Simulation time: 0 hr 0 min 10 sec) 
Heartbeat CPU  0 instructions:    8000000 cycles:    6953731 heartbeat IPC: 0.90795 cumulative IPC: 1.15046 (Simulation time: 0 hr 0 min 12 sec) 
Heartbeat CPU  0 instructions:    9000000 cycles:    8054504 heartbeat IPC: 0.90845 cumulative IPC: 1.11739 (Simulation time: 0 hr 0 min 13 sec) 
Heartbeat CPU  0 instructions:   10000000 cycles:    9177075 heartbeat IPC: 0.89081 cumulative IPC: 1.08967 (Simulation time: 0 hr 0 min 14 sec) 

Warmup complete CPU  0 instructions:   10000001 cycles:    9177076 (Simulation time: 0 hr 0 min 14 sec) 

Heartbeat CPU  0 instructions:   11000001 cycles:   17615612 heartbeat IPC: 0.11850 cumulative IPC: 0.11850 (Simulation time: 0 hr 0 min 17 sec) 
Heartbeat CPU  0 instructions:   12000000 cycles:   26444521 heartbeat IPC: 0.11326 cumulative IPC: 0.11582 (Simulation time: 0 hr 0 min 20 sec) 
Heartbeat CPU  0 instructions:   13000002 cycles:   35305784 heartbeat IPC: 0.11285 cumulative IPC: 0.11482 (Simulation time: 0 hr 0 min 22 sec) 
Heartbeat CPU  0 instructions:   14000003 cycles:   44287823 heartbeat IPC: 0.11133 cumulative IPC: 0.11393 (Simulation time: 0 hr 0 min 25 sec) 
Heartbeat CPU  0 instructions:   15000000 cycles:   52945023 heartbeat IPC: 0.11551 cumulative IPC: 0.11424 (Simulation time: 0 hr 0 min 28 sec) 
Heartbeat CPU  0 instructions:   16000000 cycles:   61769330 heartbeat IPC: 0.11332 cumulative IPC: 0.11409 (Simulation time: 0 hr 0 min 31 sec) 
Heartbeat CPU  0 instructions:   17000000 cycles:   70385522 heartbeat IPC: 0.11606 cumulative IPC: 0.11436 (Simulation time: 0 hr 0 min 34 sec) 
Heartbeat CPU  0 instructions:   18000001 cycles:   79498090 heartbeat IPC: 0.10974 cumulative IPC: 0.11376 (Simulation time: 0 hr 0 min 37 sec) 
Heartbeat CPU  0 instructions:   19000002 cycles:   88375191 heartbeat IPC: 0.11265 cumulative IPC: 0.11364 (Simulation time: 0 hr 0 min 40 sec) 
Heartbeat CPU  0 instructions:   20000000 cycles:   97380043 heartbeat IPC: 0.11105 cumulative IPC: 0.11337 (Simulation time: 0 hr 0 min 42 sec) 
Heartbeat CPU  0 instructions:   21000000 cycles:  106381802 heartbeat IPC: 0.11109 cumulative IPC: 0.11316 (Simulation time: 0 hr 0 min 45 sec) 
Heartbeat CPU  0 instructions:   22000003 cycles:  115208132 heartbeat IPC: 0.11330 cumulative IPC: 0.11317 (Simulation time: 0 hr 0 min 48 sec) 
Heartbeat CPU  0 instructions:   23000001 cycles:  124263861 heartbeat IPC: 0.11043 cumulative IPC: 0.11296 (Simulation time: 0 hr 0 min 51 sec) 
Heartbeat CPU  0 instructions:   24000000 cycles:  133408679 heartbeat IPC: 0.10935 cumulative IPC: 0.11269 (Simulation time: 0 hr 0 min 54 sec) 
Heartbeat CPU  0 instructions:   25000001 cycles:  142379701 heartbeat IPC: 0.11147 cumulative IPC: 0.11261 (Simulation time: 0 hr 0 min 56 sec) 
Heartbeat CPU  0 instructions:   26000000 cycles:  150987826 heartbeat IPC: 0.11617 cumulative IPC: 0.11283 (Simulation time: 0 hr 0 min 59 sec) 
Heartbeat CPU  0 instructions:   27000003 cycles:  159955826 heartbeat IPC: 0.11151 cumulative IPC: 0.11275 (Simulation time: 0 hr 1 min 2 sec) 
Heartbeat CPU  0 instructions:   28000000 cycles:  169078954 heartbeat IPC: 0.10961 cumulative IPC: 0.11257 (Simulation time: 0 hr 1 min 5 sec) 
Heartbeat CPU  0 instructions:   29000001 cycles:  178112901 heartbeat IPC: 0.11069 cumulative IPC: 0.11247 (Simulation time: 0 hr 1 min 8 sec) 
Heartbeat CPU  0 instructions:   30000000 cycles:  187296657 heartbeat IPC: 0.10889 cumulative IPC: 0.11228 (Simulation time: 0 hr 1 min 10 sec) 
Heartbeat CPU  0 instructions:   31000002 cycles:  196182112 heartbeat IPC: 0.11254 cumulative IPC: 0.11230 (Simulation time: 0 hr 1 min 13 sec) 
Heartbeat CPU  0 instructions:   32000000 cycles:  205153605 heartbeat IPC: 0.11146 cumulative IPC: 0.11226 (Simulation time: 0 hr 1 min 16 sec) 
Heartbeat CPU  0 instructions:   33000000 cycles:  213740305 heartbeat IPC: 0.11646 cumulative IPC: 0.11243 (Simulation time: 0 hr 1 min 19 sec) 
Heartbeat CPU  0 instructions:   34000000 cycles:  222829941 heartbeat IPC: 0.11002 cumulative IPC: 0.11233 (Simulation time: 0 hr 1 min 22 sec) 
Heartbeat CPU  0 instructions:   35000000 cycles:  231747436 heartbeat IPC: 0.11214 cumulative IPC: 0.11232 (Simulation time: 0 hr 1 min 24 sec) 
Heartbeat CPU  0 instructions:   36000000 cycles:  240903469 heartbeat IPC: 0.10922 cumulative IPC: 0.11220 (Simulation time: 0 hr 1 min 27 sec) 
Heartbeat CPU  0 instructions:   37000001 cycles:  250024518 heartbeat IPC: 0.10964 cumulative IPC: 0.11210 (Simulation time: 0 hr 1 min 30 sec) 
Heartbeat CPU  0 instructions:   38000001 cycles:  258881347 heartbeat IPC: 0.11291 cumulative IPC: 0.11213 (Simulation time: 0 hr 1 min 33 sec) 
Heartbeat CPU  0 instructions:   39000000 cycles:  267785437 heartbeat IPC: 0.11231 cumulative IPC: 0.11214 (Simulation time: 0 hr 1 min 36 sec) 
Heartbeat CPU  0 instructions:   40000000 cycles:  276610785 heartbeat IPC: 0.11331 cumulative IPC: 0.11218 (Simulation time: 0 hr 1 min 38 sec) 
Heartbeat CPU  0 instructions:   41000000 cycles:  284977307 heartbeat IPC: 0.11952 cumulative IPC: 0.11240 (Simulation time: 0 hr 1 min 41 sec) 
Heartbeat CPU  0 instructions:   42000001 cycles:  293063627 heartbeat IPC: 0.12367 cumulative IPC: 0.11272 (Simulation time: 0 hr 1 min 44 sec) 
Heartbeat CPU  0 instructions:   43000001 cycles:  302245128 heartbeat IPC: 0.10891 cumulative IPC: 0.11260 (Simulation time: 0 hr 1 min 47 sec) 
Heartbeat CPU  0 instructions:   44000000 cycles:  311330371 heartbeat IPC: 0.11007 cumulative IPC: 0.11253 (Simulation time: 0 hr 1 min 50 sec) 
Heartbeat CPU  0 instructions:   45000003 cycles:  320218750 heartbeat IPC: 0.11251 cumulative IPC: 0.11253 (Simulation time: 0 hr 1 min 53 sec) 
Heartbeat CPU  0 instructions:   46000003 cycles:  329093940 heartbeat IPC: 0.11267 cumulative IPC: 0.11253 (Simulation time: 0 hr 1 min 56 sec) 
Heartbeat CPU  0 instructions:   47000003 cycles:  337363980 heartbeat IPC: 0.12092 cumulative IPC: 0.11274 (Simulation time: 0 hr 1 min 58 sec) 
Heartbeat CPU  0 instructions:   48000000 cycles:  346295251 heartbeat IPC: 0.11197 cumulative IPC: 0.11272 (Simulation time: 0 hr 2 min 1 sec) 
Heartbeat CPU  0 instructions:   49000003 cycles:  354964634 heartbeat IPC: 0.11535 cumulative IPC: 0.11279 (Simulation time: 0 hr 2 min 4 sec) 
Heartbeat CPU  0 instructions:   50000002 cycles:  363874409 heartbeat IPC: 0.11224 cumulative IPC: 0.11277 (Simulation time: 0 hr 2 min 7 sec) 
Heartbeat CPU  0 instructions:   51000003 cycles:  372140638 heartbeat IPC: 0.12097 cumulative IPC: 0.11296 (Simulation time: 0 hr 2 min 10 sec) 
Heartbeat CPU  0 instructions:   52000000 cycles:  381027829 heartbeat IPC: 0.11252 cumulative IPC: 0.11295 (Simulation time: 0 hr 2 min 13 sec) 
Heartbeat CPU  0 instructions:   53000000 cycles:  389057436 heartbeat IPC: 0.12454 cumulative IPC: 0.11319 (Simulation time: 0 hr 2 min 16 sec) 
Heartbeat CPU  0 instructions:   54000000 cycles:  398414796 heartbeat IPC: 0.10687 cumulative IPC: 0.11304 (Simulation time: 0 hr 2 min 19 sec) 
Heartbeat CPU  0 instructions:   55000001 cycles:  407364076 heartbeat IPC: 0.11174 cumulative IPC: 0.11301 (Simulation time: 0 hr 2 min 21 sec) 
Heartbeat CPU  0 instructions:   56000000 cycles:  416370160 heartbeat IPC: 0.11104 cumulative IPC: 0.11297 (Simulation time: 0 hr 2 min 24 sec) 
Heartbeat CPU  0 instructions:   57000003 cycles:  425502179 heartbeat IPC: 0.10951 cumulative IPC: 0.11289 (Simulation time: 0 hr 2 min 27 sec) 
Heartbeat CPU  0 instructions:   58000000 cycles:  433250010 heartbeat IPC: 0.12907 cumulative IPC: 0.11319 (Simulation time: 0 hr 2 min 30 sec) 
Heartbeat CPU  0 instructions:   59000001 cycles:  442460977 heartbeat IPC: 0.10857 cumulative IPC: 0.11309 (Simulation time: 0 hr 2 min 33 sec) 
Heartbeat CPU  0 instructions:   60000000 cycles:  451859001 heartbeat IPC: 0.10641 cumulative IPC: 0.11295 (Simulation time: 0 hr 2 min 35 sec) 
Finished CPU 0 instructions: 50000000 cycles: 442681933 cumulative IPC: 0.11295 (Simulation time: 0 hr 2 min 35 sec) 

ChampSim completed all CPUs

[ROI Statistics]
Core_0_instructions 50000000
Core_0_cycles 442681933
Core_0_IPC 0.11295

Core_0_branch_prediction_accuracy 84.44426
Core_0_branch_MPKI 27.01916
Core_0_average_ROB_occupancy_at_mispredict 43.22582

Core_0_L1D_total_access 15909600
Core_0_L1D_total_hit 11770513
Core_0_L1D_total_miss 4139087
Core_0_L1D_loads 12841203
Core_0_L1D_load_hit 8729147
Core_0_L1D_load_miss 4112056
Core_0_L1D_RFOs 3068397
Core_0_L1D_RFO_hit 3041366
Core_0_L1D_RFO_miss 27031
Core_0_L1D_prefetches 0
Core_0_L1D_prefetch_hit 0
Core_0_L1D_prefetch_miss 0
Core_0_L1D_writebacks 0
Core_0_L1D_writeback_hit 0
Core_0_L1D_writeback_miss 0
Core_0_L1D_prefetch_requested 0
Core_0_L1D_prefetch_dropped 0
Core_0_L1D_prefetch_issued 0
Core_0_L1D_prefetch_filled 0
Core_0_L1D_prefetch_useful 0
Core_0_L1D_prefetch_useless 0
Core_0_L1D_prefetch_late 0
Core_0_L1D_average_miss_latency 157.35144

Core_0_L1D_rq_access 14019533
Core_0_L1D_rq_forward 0
Core_0_L1D_rq_merged 1082445
Core_0_L1D_rq_to_cache 12937088
Core_0_L1D_rq_full 0

Core_0_L1D_wq_access 3108363
Core_0_L1D_wq_forward 0
Core_0_L1D_wq_merged 11
Core_0_L1D_wq_to_cache 3108352
Core_0_L1D_wq_full 0

Core_0_L1D_pq_access 0
Core_0_L1D_pq_forward 0
Core_0_L1D_pq_merged 0
Core_0_L1D_pq_to_cache 0
Core_0_L1D_pq_full 0

Core_0_L1D_acc_epochs 366930
Core_0_L1D_acc_level_0 366930
Core_0_L1D_acc_level_1 0
Core_0_L1D_acc_level_2 0
Core_0_L1D_acc_level_3 0
Core_0_L1D_acc_level_4 0
Core_0_L1D_acc_level_5 0
Core_0_L1D_acc_level_6 0
Core_0_L1D_acc_level_7 0
Core_0_L1D_acc_level_8 0
Core_0_L1D_acc_level_9 0

Core_0_L1I_total_access 7892573
Core_0_L1I_total_hit 7892573
Core_0_L1I_total_miss 0
Core_0_L1I_loads 7892573
Core_0_L1I_load_hit 7892573
Core_0_L1I_load_miss 0
Core_0_L1I_RFOs 0
Core_0_L1I_RFO_hit 0
Core_0_L1I_RFO_miss 0
Core_0_L1I_prefetches 0
Core_0_L1I_prefetch_hit 0
Core_0_L1I_prefetch_miss 0
Core_0_L1I_writebacks 0
Core_0_L1I_writeback_hit 0
Core_0_L1I_writeback_miss 0
Core_0_L1I_prefetch_requested 0
Core_0_L1I_prefetch_dropped 0
Core_0_L1I_prefetch_issued 0
Core_0_L1I_prefetch_filled 0
Core_0_L1I_prefetch_useful 0
Core_0_L1I_prefetch_useless 0
Core_0_L1I_prefetch_late 0
Core_0_L1I_average_miss_latency -nan

Core_0_L1I_rq_access 49999953
Core_0_L1I_rq_forward 0
Core_0_L1I_rq_merged 42107380
Core_0_L1I_rq_to_cache 7892573
Core_0_L1I_rq_full 0

Core_0_L1I_wq_access 0
Core_0_L1I_wq_forward 0
Core_0_L1I_wq_merged 0
Core_0_L1I_wq_to_cache 0
Core_0_L1I_wq_full 0

Core_0_L1I_pq_access 0
Core_0_L1I_pq_forward 0
Core_0_L1I_pq_merged 0
Core_0_L1I_pq_to_cache 0
Core_0_L1I_pq_full 0

Core_0_L1I_acc_epochs 366930
Core_0_L1I_acc_level_0 366930
Core_0_L1I_acc_level_1 0
Core_0_L1I_acc_level_2 0
Core_0_L1I_acc_level_3 0
Core_0_L1I_acc_level_4 0
Core_0_L1I_acc_level_5 0
Core_0_L1I_acc_level_6 0
Core_0_L1I_acc_level_7 0
Core_0_L1I_acc_level_8 0
Core_0_L1I_acc_level_9 0

Core_0_L2C_total_access 5720614
Core_0_L2C_total_hit 1737934
Core_0_L2C_total_miss 3982680
Core_0_L2C_loads 4112056
Core_0_L2C_load_hit 208925
Core_0_L2C_load_miss 3903131
Core_0_L2C_RFOs 27031
Core_0_L2C_RFO_hit 50
Core_0_L2C_RFO_miss 26981
Core_0_L2C_prefetches 53013
Core_0_L2C_prefetch_hit 810
Core_0_L2C_prefetch_miss 52203
Core_0_L2C_writebacks 1528514
Core_0_L2C_writeback_hit 1528149
Core_0_L2C_writeback_miss 365
Core_0_L2C_prefetch_requested 1708019
Core_0_L2C_prefetch_dropped 0
Core_0_L2C_prefetch_issued 1708019
Core_0_L2C_prefetch_filled 78134
Core_0_L2C_prefetch_useful 9185
Core_0_L2C_prefetch_useless 68949
Core_0_L2C_prefetch_late 1921
Core_0_L2C_average_miss_latency 139.67315

Core_0_L2C_rq_access 4139087
Core_0_L2C_rq_forward 0
Core_0_L2C_rq_merged 0
Core_0_L2C_rq_to_cache 4139087
Core_0_L2C_rq_full 0

Core_0_L2C_wq_access 1528514
Core_0_L2C_wq_forward 0
Core_0_L2C_wq_merged 0
Core_0_L2C_wq_to_cache 1528514
Core_0_L2C_wq_full 0

Core_0_L2C_pq_access 1708019
Core_0_L2C_pq_forward 0
Core_0_L2C_pq_merged 1603
Core_0_L2C_pq_to_cache 1706416
Core_0_L2C_pq_full 0

Core_0_L2C_acc_epochs 366930
Core_0_L2C_acc_level_0 366143
Core_0_L2C_acc_level_1 304
Core_0_L2C_acc_level_2 75
Core_0_L2C_acc_level_3 38
Core_0_L2C_acc_level_4 20
Core_0_L2C_acc_level_5 39
Core_0_L2C_acc_level_6 26
Core_0_L2C_acc_level_7 32
Core_0_L2C_acc_level_8 41
Core_0_L2C_acc_level_9 212

Core_0_LLC_total_access 6776453
Core_0_LLC_total_hit 2917304
Core_0_LLC_total_miss 3859149
Core_0_LLC_loads 3901228
Core_0_LLC_load_hit 1766671
Core_0_LLC_load_miss 2134557
Core_0_LLC_RFOs 26981
Core_0_LLC_RFO_hit 970
Core_0_LLC_RFO_miss 26011
Core_0_LLC_prefetches 1337174
Core_0_LLC_prefetch_hit 222057
Core_0_LLC_prefetch_miss 1115117
Core_0_LLC_writebacks 1511070
Core_0_LLC_writeback_hit 927606
Core_0_LLC_writeback_miss 583464
Core_0_LLC_prefetch_requested 0
Core_0_LLC_prefetch_dropped 0
Core_0_LLC_prefetch_issued 0
Core_0_LLC_prefetch_filled 1388947
Core_0_LLC_prefetch_useful 265784
Core_0_LLC_prefetch_useless 1120805
Core_0_LLC_prefetch_late 13116
Core_0_LLC_average_miss_latency 169.08177

Core_0_LLC_rq_access 3928210
Core_0_LLC_rq_forward 0
Core_0_LLC_rq_merged 0
Core_0_LLC_rq_to_cache 3928209
Core_0_LLC_rq_full 0

Core_0_LLC_wq_access 1511070
Core_0_LLC_wq_forward 1
Core_0_LLC_wq_merged 0
Core_0_LLC_wq_to_cache 1511070
Core_0_LLC_wq_full 0

Core_0_LLC_pq_access 1683520
Core_0_LLC_pq_forward 0
Core_0_LLC_pq_merged 84
Core_0_LLC_pq_to_cache 1683436
Core_0_LLC_pq_full 0

Core_0_LLC_acc_epochs 441269
Core_0_LLC_acc_level_0 205593
Core_0_LLC_acc_level_1 92892
Core_0_LLC_acc_level_2 63310
Core_0_LLC_acc_level_3 31714
Core_0_LLC_acc_level_4 8589
Core_0_LLC_acc_level_5 24459
Core_0_LLC_acc_level_6 8866
Core_0_LLC_acc_level_7 2137
Core_0_LLC_acc_level_8 1018
Core_0_LLC_acc_level_9 2691

Core_0_major_page_fault 0
Core_0_minor_page_fault 10294

[MLOP] History of tracked zone:
IIIIIIIIIIIIIIIIIIIIIIIIIIIIIIIIIIIIIIIIIIIIIIIIIIIIIIIIIIIIIIII
IIIIIIAIIIIIIIIIIIIIIIIIIIIIIIIIIIIIIIIIIIIIIIIIIIIIIIIIIIIIIIII
IIIIIIAIIIAIIIIIIIIIIIIIIIIIIIIIIIIIIIIIIIIIIIIIIIIIIIIIIIIIIIII
IIIIIIAIIIAIIIAIIIIIIIIIIIIIIIIIIIIIIIIIIIIIIIIIIIIIIIIIIIIIIIII
IIIIIIAIIIAIIIAIIIIIIIIIAIIIIIIIIIIIIIIIIIIIIIIIIIIIIIIIIIIIIIII
IIIIIIAIIIAIIIAIIIIIIIIIAIIIIIIIIIAIIIIIIIIIIIIIIIIIIIIIIIIIIIII
IIIIIIAIIIAIIIAIIIIIIIIIAIIIIIIIIIAIAIIIIIIIIIIIIIIIIIIIIIIIIIII
IIIIIIAIIIAIIIAIIIIIIIIIAIIIIIIIIIAIAIAIIIIIIIIIIIIIIIIIIIIIIIII
IIIIIIAIIIAIIIAIIIIIIIIIAIIIIIIIIIAIAIAIIIAIIIIIIIIIIIIIIIIIIIII
IIIIIIAIIIAIIIAIIAIIIIIIAIIIIIIIIIAIAIAIIIAIIIIIIIIIIIIIIIIIIIII
IIIIIIAIIIAIIIAIIAIIIIIIAIIIIIIIIIAIAIAIIIAIIIIIIIIIIIIAIIIIIIII
IIIAIIAIIIAIIIAIIAIIIIIIAIIIIIIIIIAIAIAIIIAIIIIIIIIIIIIAIIIIIIII
IIIAIIAIIIAIIIAIIAIIIIIAAIIIIIIIIIAIAIAIIIAIIIIIIIIIIIIAIIIIIIII
IIIAIIAIIIAIIIAIIAIIIIIAAIIIIIIIIIAIAIAAIIAIIIIIIIIIIIIAIIIIIIII
IIIAIIAIIIAIIIAIIAIIIIIAAIIIIIIIIIAIAIAAIIAIAIIIIIIIIIIAIIIIIIII
IIIAIIAIIIAIIIAIIAIIIIIAAIIIIIIIIIAIAIAAIIAIAIIIIAIIIIIAIIIIIIII
IIIAIIAIIIAAIIAIIAIIIIIAAIIIIIIIIIAIAIAAIIAIAIIIIAIIIIIAIIIIIIII
IIIAIIAIIIAAIIAIIAIIIIAAAIIIIIIIIIAIAIAAIIAIAIIIIAIIIIIAIIIIIIII
IIIAIIAIIIAAIIAIIAIIIIAAAAIIIIIIIIAIAIAAIIAIAIIIIAIIIIIAIIIIIIII
IIIAIIAIIIAAIIAIIAIIIIAAAAIIIIIIIIAIAIAAIIAIAAIIIAIIIIIAIIIIIIII
IIIAIIAIIIAAIIAIIAIIIIAAAAIIIIIIIIAIAIAAIIAIAAIIIAIIIIAAIIIIIIII
IIIAIIAII4AAIIAIIAIIIIAAAAIIIIIIIIAIAIAAIIAIAAIIIAIIIIAAIIIIIIII
IIIAIIAII4AAIIAAIAIIIIAAAAIIIIIIIIAIAIAAIIAIAAIIIAIIIIAAIIIIIIII
IIIAIIAII4AAIIAAIAIIIIAAAAIIIAI4IIAIAIAAIIAIAAIIIAIIIIAAIIIIIIII
IIIAIIAII4AAIIAAIAIIIIAAAAIIIAI4IIAIAIAAI4AIAAIIIAIIIIAAIIIIIIII
IIIAIIAII4AAIIAAIAIIIIAAAAIIIAI4IIAIAIAAI4AIAAI4IAIIIIAAIIIIIIII
IIIAIIAII4AAIIAAIAIIIIAAAAIIIAI4IIAIAIAAI4AIAAI4IAIIAIAAIIIIIIII
IIIAIIAII4AAIIAAIAIIIIAAAAIIIAI4IIAIAIAAI4AIAII4IAIIAIAAIIIIIIII
IIIAIIAII4AAIIAAIAAIIIAAAAIIIAI4IIAIAIAAI4AIAII4IAIIAIAAIIIIIIII
IIAAI4AII4AAIIAAIAAIIIAAAAIIIAI4IIAIAIAAI4AIAII4IAIIAIAAIIIIIIII
IIAAI4AII4AAIIAAIAAII4AAAAIIIAI4IIAIAIAAI4AIAII4IAIIAIAAIIIIIIII
IIAAI4AII4AAIIAAIAAII4AAAAIIIAI4IIAIAIAAI4AIAIA4IAIIAIAAIIIIIIII
IIAAI4AII4AAIIAAIAAII4AAAAI4IAI4IIAIAIAAI4AIAIA4IAIIAIAAIIIIIIII
IIAAI4AIA4AAI4AAIAAII4AAAAI4IAI4IIAIAIAAI4AIAIA4IAIIAIAAIIIIIIII
IIAAI4AIA4AAI4AAIAA444AAAAI4IAI4IIAIAIAAI4AIAIA4IAIIAIAAIIIIIIII
IIAAI4AIA4AAI4AAIAA444AAAAI4IAI4IIAIAIAAIAA4AIA4IAIIAIAAIIIIIIII
IIAAI4AIA4AAI4AAIAA444AAAAI4IAI4IIAIAIAAIAA4AIA4IAA4A4AAIIIIIIII
IIAAI4AIA4AAI4AAIAA444AAAAI4IAI4IIAIAIAAIAA4AIA4IAA4A4AAIII4I4II
IIAAI4AIA4AAI4AAIAA444AAAAI4IAI4IIAIAIAAIAA4AIA44AA4A4AAIII4I4II
IAAAI4A4A4AAI4AAIAA444AAAAI4IAI4IIAIAIAAIAA4AIA44AA4A4AAIII4I4II
IAAAI4AAA4AAI4AA4AA444AAAAI4IAI4IIAIAIAAIAA4AIA44AA4A4AAIII4I4II
IAAAI4AAA4AAI4AA4AA444AAAAI4IAI4IIAIAIAAIAA4AIA44AA4A4AA4II4I4II
IAAAI4AAA4AAI4AA4AA444AAAAI4IAI4IIA4AIAAIAA4AIA44AA4A4AA4II4I4II
IAAAI4AAA4AAI4AAAAA444AAAAI4IAI4IIA4AIAAIAA4AIA44AA4A4AA4II4I4II
IAAAI4AAA4AAI4AAAAA444AAAAI4IAI4IIA4AIAAIAA4AIA44AA4A4AA44I4I4II
IAAA44AAA4AAI4AAAAA444AAAAI4IAI4IIA4AIAAIAA4AIA44AA4A4AA44I4I4II
IAAA44AAA4AAI4AAAAA444AAAAIA4AI4IIA4AIAAIAA4AIA44AA4A4AA44I4I4II
IAAA44AAA4AAI4AAAAA444AAAAIA4AI4IIAAAIAAIAA4AIA44AA4A4AA44I4I4II
IAAA44AAA4AA44AAAAA444AAAAIA4AI4IIAAAIAAIAA4AIA44AA4A4AA44I4I4II
IAAA44AAA4AA44AAAAA444AAAAIA4AI4IIAAAIAAIAA4AIA44AA4A4AA44I4I4IA
IAAA44AAA4AA44AAAAA444AAAAIA4A44IIAAAIAAIAA4AIA44AA4A4AA44I4I4IA
IAAA44AAA4AA44AAAAA444AAAAIA4A44IIAAAIAA4AA4AIA44AA4A4AA44I4I4IA
IAAA44AAA4AA44AAAAA444AAAAIA4A44IIAAA4AA4AA4AIA44AA4A4AA44I4I4IA
IAAA44AAA4AAA4AAAAA444AAAAIA4A44IIAAA4AA4AA4AIA44AA4A4AA44I4I4IA
IAAA44AAA4AAA4AAAAA444AAAAIA4A44IIAAAAAA4AA4AIA44AA4A4AA44I4I4IA
IAAA44AAA4AAA4AAAAA444AAAAIA4A44IIAAAAAA4AA4AIAA4AA4A4AA44I4I4IA
IAAA44AAA4AAA4AAAAA444AAAAIA4A44IIAAAAAA4AA4AIAA4AA4A4AAA4I4I44A
IAAA44AAA4AAA4AAAAA444AAAA4A4A44IIAAAAAA4AA4AIAA4AA4A4AAA4I4I44A
IAAA44AAA4AAA4AAAAA444AAAA4A4A44IIAAAAAA4AA4A4AA4AA4A4AAA4I4I44A
IAAA44AAA4AAA4AAAAA444AAAA4A4A44IIAAAAAA4AA4A4AA4AA4A4AAA4IA444A
IAAA44AAA4AAA4AAAAA444AAAA4A4A444IAAAAAA4AA4A4AA4AA4A4AAA4IA444A
IAAA44AAA4AAA4AAAAA444AAAA4A4A444IAAAAAA4AA4A4AA4AA4A4AAA4AA444A
IAAA44AAA4AAA4AAAAA444AAAA4A4A444IAAAAAA4AAAA4AA4AA4A4AAA4AA444A
IAAA44AAA4AAA4AAAAA444AAAA4AAA444IAAAAAA4AAAA4AA4AA4A4AAA4AA444A
IAAA4AAAA4AAA4AAAAA444AAAA4AAA444IAAAAAA4AAAA4AA4AA4A4AAA4AA444A
IAAA4IAAA4AAA4AAAAA444AAAA4AAA444IAAAAAA4AAAA4AA4AA4A4AAA4AA444A
IAAA4IAAA4AAA4AAAAA444AAAA4AAA444AAAAAAA4AAAA4AA4AA4A4AAA4AA444A
IAAA4IAAA4AAA4AAAAA444AAAA4AAA444AAAAAAA4AAAA4AA4AA4A4AAA4AA44AA
IAAA4IAAA4AAA4AAAAA444AAAA4AAAA44AAAAAAA4AAAA4AA4AA4A4AAA4AA44AA
IAAA44AAA4AAA4AAAAA444AAAA4AAAA44AAAAAAA4AAAA4AA4AA4A4AAA4AA44AA
IAAA44AAA4AAA4AAAAA444AAAA4AAAA44AAAAAAA4AAAA4AA4AA4A4AAA4AAA4AA
IAAA44AAA4AAA4AAAAA444AAAA4AAAA4AAAAAAAA4AAAA4AA4AA4A4AAA4AAA4AA
IAAA44AAA4AAA4AAAAA444AAAA4AAAA4AAAAAAAA4AAAAAAA4AA4A4AAA4AAA4AA
IAAA44AAA4AAA4AAAAA444AAAA4AAAA4AAAAAAAA4AAAAAAA4AA4A4AAA4AAAAAA
IAAA44AAA4AAA4AAAAI444AAAA4AAAA4AAAAAAAA4AAAAAAA4AA4A4AAA4AAAAAA
IAAA44IAA4AAA4AAAAI444AAAA4AAAA4AAAAAAAA4AAAAAAA4AA4A4AAA4AAAAAA
IAAA44IAA4AAA4AAAAI444AAAA4AAAA4AAAAAAAA4AAAAAAA4AA4A4AAA4AAAIAA
IAAA44IAA4AAA4AAAA4444AAAA4AAAA4AAAAAAAA4AAAAAAA4AA4A4AAA4AAAIAA
IAAA44IAA4AAA4AAAA444AAAAA4AAAA4AAAAAAAA4AAAAAAA4AA4A4AAA4AAAIAA
IAAA44IAA4AAA4AAAA444AAAAA4AAAA4AAAAAAAA4AAAAAAA4AA4A4AAA4AAAAAA
IAAAA4IAA4AAA4AAAA444AAAAA4AAAA4AAAAAAAA4AAAAAAA4AA4A4AAA4AAAAAA
IAAAA4IAAAAAA4AAAA444AAAAA4AAAA4AAAAAAAA4AAAAAAA4AA4A4AAA4AAAAAA
IAAAA4IAAAAAA4AAAA444AAAAA4AAAA4AAAAAAAA4AAAAAAA4AA4AAAAA4AAAAAA
IAAAA42AAAAAA4AAAA444AAAAA4AAAA4AAAAAAAA4AAAAAAA4AA4AAAAA4AAAAAA
IAAAA42AAAAAAAAAAA444AAAAA4AAAA4AAAAAAAA4AAAAAAA4AA4AAAAA4AAAAAA
IAAAA42AAAAAAAAAAA444AAAAA4AAAA4AAAAAAAA4AAAAAAAAAA4AAAAA4AAAAAA
AAAAA42AAAAAAAAAAA444AAAAA4AAAA4AAAAAAAA4AAAAAAAAAA4AAAAA4AAAAAA
AAAAAA2AAAAAAAAAAA444AAAAA4AAAA4AAAAAAAA4AAAAAAAAAA4AAAAA4AAAAAA
AAAAAA2AAAAAAAAAAA444AAAAA4AAAA4AAAAAAAA4AAAAAAAAAAAAAAAA4AAAAAA
AAAAAA2AAAAAAAAAAAA44AAAAA4AAAA4AAAAAAAA4AAAAAAAAAAAAAAAA4AAAAAA
AAAAAA2AAAAAAAAAAAA44AAAAA4AAAA4IAAAAAAA4AAAAAAAAAAAAAAAA4AAAAAA
AAAAAA2AAAAAAAAAAAA44AAAAA4AAAA44AAAAAAA4AAAAAAAAAAAAAAAA4AAAAAA
AAAAAA2AAAAAAAAAAAA44AAAAA4AAAA4AAAAAAAA4AAAAAAAAAAAAAAAA4AAAAAA
AAAAAA2AAAAAAAAAAAAA4AAAAA4AAAA4AAAAAAAA4AAAAAAAAAAAAAAAA4AAAAAA
AAAAAA2AAAAAAAAAAAAA4AAAAAAAAAA4AAAAAAAA4AAAAAAAAAAAAAAAA4AAAAAA
AAAAAA2AAAAAAAAAAAAA4AAAAAAAAAAAAAAAAAAA4AAAAAAAAAAAAAAAA4AAAAAA
AAAAAA2AAAAAAAAAAAAA4AAAAAAAAAAAAAAAAAAA4AAAAAAAAAAAAAAAA2AAAAAA
AAAAAA2AAAAAAAAAAAAA4AAAAAAAAAAAAAAAAAAA4AAAAAIAAAAAAAAAA2AAAAAA
AAAAAA2AAAAAAAAAAAAA4AAAAAAAAAAAAAAAAAAA4AAAAA4AAAAAAAAAA2AAAAAA
AAAAAA2AAAAAAAAAAAAA4AAAAAAAAAAAAAAAAAAA4AAAAAAAAAAAAAAAA2AAAAAA
AAAAAA2AAAAAAAAAAAAA4AAAAAAAAAAAAAAAAAAAAAAAAAAAAAAAAAAAA2AAAAAA
AAAAAA2AAAAAAAAAAAAA4AAAAAAAAAAAAAAAAAAAAAAAAAAAAAAAAAAAA2AAIAAA
AAAAAA2AAAAAAAAAIAAA4AAAAAAAAAAAAAAAAAAAAAAAAAAAAAAAAAAAA2AAIAAA
AAAAAAAAAAAAAAAAIAAA4AAAAAAAAAAAAAAAAAAAAAAAAAAAAAAAAAAAA2AAIAAA
AAAAAAAAAAAAAAAAIAAA4AAAAAAAAAAAAAAAAAAAAAAAAAAAAAAAAAAAA2AAAAAA
AAAAAAAAAAAAAAAAAAAA4AAAAAAAAAAAAAAAAAAAAAAAAAAAAAAAAAAAA2AAAAAA
AAAAAAAAAAAAAAAAAAAA4AAAAAAAAAAAAAAAAAAAAAAAAAAAAAAAAAIAA2AAAAAA
AAAAAAAAAAAAAAAAAAAA4AAAAAAIAAAAAAAAAAAAAAAAAAAAAAAAAAIAA2AAAAAA
AAAAAAAAAAAAAAAAAAAA4AAAAAAAAAAAAAAAAAAAAAAAAAAAAAAAAAIAA2AAAAAA
AAAAAAAAAAAAAAAAAAAA4AAAAAAAAAAAAAAAAAAAAAAAAAAAAAAAAAAAA2AAAAAA
AAAAAAAAAAAAAAAAAAAAAAAAAAAAAAAAAAAAAAAAAAAAAAAAAAAAAAAAA2AAAAAA
AAAAAAAAAAAAAAAAAAAAAAAAAAAAAAAAAAAAAAAAAAAAAAAAAAAAAAAAAAAAAAAA
AAAAAAAAAAAAAAAIAAAAAAAAAAAAAAAAAAAAAAAAAAAAAAAAAAAAAAAAAAAAAAAA
AAAAAAAAAAAAAAA2AAAAAAAAAAAAAAAAAAAAAAAAAAAAAAAAAAAAAAAAAAAAAAAA
AAAAAAAAAAAAAAAIAAAAAAAAAAAAAAAAAAAAAAAAAAAAAAAAAAAAAAAAAAAAAAAA
AAAAAAAAAAAAAAA4AAAAAAAAAAAAAAAAAAAAAAAAAAAAAAAAAAAAAAAAAAAAAAAA
AAAAAAAAAAAAAAAAAAAAAAAAAAAAAAAAAAAAAAAAAAAAAAAAAAAAAAAAAAAAAAAA
IIIIIIIA4II4III4IIIIIIIIIIIIIIIIIIIIIIIIIIIIIIIIIIIIIIIIIIIIIIII
IIIIIIIA4II4III4IIIIIIIIIA4II4III4IIIIIIIIIIIIIIIIIIIIIIIIIIIIII
IIIIIIIA4II4III4IIIIIIIIIA4A44I4I4I4IIIIIIIIIIIIIIIIIIIIIIIIIIII
IIIIIIIA4II4III4IIIIIIIIIA4A44I4I4I4IIA4II4III4IIIIIIIIIIIIIIIII
IIIIIIIA4II4III4IIIIIIIIIA4A44I4I4I4IIA4II4III4IIIIIA4II4III4III
IIIIIIIA4II4III4IIIIIIIIIA4A44I4I4I4IIA4II4III4IIIA4A4II4III4III
IIIIIIIA4II4IAI4IIIIIIIIIA4A44I4I4I4IIA4II4III4IIIA4A4II4III4III
IIIIIIIA4II4IAI4IIIIIIIIIA4A44I4I4I4IIA4IA44II4IIIA4A4II4III4III
IIIIIIIA4II4IAI4IIIIIIIIIA4A44I4I4I4IIA4IA44II4IIIA4A4II4III4IAI
IIIIIIIA4II4IAI4IIIIIIA4IA4A44I4I4I4IIA4IA44II4IIIA4A4II4III4IAI
IIIIIIIA4II4IAI4IIIIIIA4IA4A44I4I4I4IIA4IA44II4IIIA4A4II4III4IAA
IIIIIIIA4A44IAI4IIIIIIA4IA4A44I4I4I4IIA4IA44II4IIIA4A4II4III4IAA
IIIIIIIA4A44IAIAIIIIIIA4IA4A44I4I4I4IIA4IA44II4IIIA4A4II4III4IAA
IIIIIIIA4A44IAIAAIIIIIA4IA4A44I4I4I4IIA4IA44II4IIIA4A4II4III4IAA
IIIIIIIA4A44IAIAAIIIIAA4IA4A44I4I4I4IIA4IA44II4IIIA4A4II4III4IAA
IIIIIIIA4A44IAIAAAIIIAA4IA4A44I4I4I4IIA4IA44II4IIIA4A4II4III4IAA
IIIIIIIA4A44IAIAAAIIIAA4IA4A44I4I4I4IIA4IA44II4IIIA4A4II4IAI4IAA
IIIIIIIA4A44AAIAAAIIIAA4IA4A44I4I4I4IIA4IA44II4IIIA4A4II4IAI4IAA
IIIIIIIA4A44AAIAAAIIIAA4IA4A44I4I4A4IIA4IA44II4IIIA4A4II4IAI4IAA
IIIIIIIA4A44AAIAAAIIIAA4IA4A44I4I4A4IIA4IA44II4IIIA4A4IIA4AI4IAA
IIIIIIIA4A44AAIAAAIIIAA4IA4A44I4I4A4IIA4IA44II4IIIA4A44IA4AI4IAA
IIIIIIIA4A44AAIAAAIIIAA4IAAA44I4I4A4IIA4IA44II4IIIA4A44IA4AI4IAA
IIIIIIIA4A44AAIAAAIIIAA4IAAA44I4I4A4IIA4IA44II4IIIA4AA4IA4AI4IAA
IIIIIIIA4A44AAIAAAIIIAA4IAAA44I4I4A4IIA4AA44II4IIIA4AA4IA4AI4IAA
IIIIIIIAAA44AAIAAAIIIAA4IAAA44I4I4A4IIA4AA44II4IIIA4AA4IA4AI4IAA
IIIIIIIAAA44AAIAAAIIIAA4IAAAA4I4I4A4IIA4AA44II4IIIA4AA4IA4AI4IAA
IIIIIIIAAA44AAIAAAIIIAA4IAAAA4I4I4AA4IA4AA44II4IIIA4AA4IA4AI4IAA
IIIIIIIAAA44AAIAAAIIIAA4IAAAA4I4I4AA4IA4AA44II4A4IA4AA4IA4AI4IAA
IIIIIIIAAA44AAIAAAIIIAA4IAAAA4I4I4AA4IA4AA44II4A4IA4AAA4A4AI4IAA
IIIIIIIAAA44AAIAAAIIIAA4IAAAA4I4I4AA4IA4AA44II4A4IA4AAA4A4A44IAA
IIIIAIIAAA44AAIAAAIIIAA4IAAAA4I4I4AA4IA4AA44II4A4IA4AAA4A4A44IAA
IIIIAIIAAA44AAIAAAIIIAA4IAAAA4I4IAAA4IA4AA44II4A4IA4AAA4A4A44IAA
IIIIAIIAAA44AAIAAAIIIAAAIAAAA4I4IAAA4IA4AA44II4A4IA4AAA4A4A44IAA
IIIIAIIAAA44AAIAAAIIIAAAIAAAA4I4IAAA4IA4AA44II4A4IAAAAA4A4A44IAA
IIIIAIIAAA44AAIAAAAIIAAAIAAAA4I4IAAA4IA4AA44II4A4IAAAAA4A4A44IAA
IIIIAIIAAA44AAIAAAAIIAAAIAAAA4I4IAAA4IA4AA44II4A4IAAAAA4A4A44AAA
IAIIAIIAAA44AAIAAAAIIAAAIAAAA4I4IAAA4IA4AA44II4A4IAAAAA4A4A44AAA
IAIIAIIAAA44AAIAAAAIIAAAIAAAA4I4IAAA4IA4AA44AI4A4IAAAAA4A4A44AAA
IAIIAIIAAA44AAIAAAAA4AAAIAAAA4I4IAAA4IA4AA44AI4A4IAAAAA4A4A44AAA
IAIIAIIAAA44AAIAAAAA4AAAIAAAA4I4IAAA4IA4AA44AIAA4IAAAAA4A4A44AAA
IAIIAIIAAA44AAIAAAAA4AAAIAAAA4I4IAAA4IA4AA44AIAA4IAAAAAAA4A44AAA
IAIIAIIAAA44AA4AAAAA4AAAIAAAA4I4IAAA4IA4AA44AIAA4IAAAAAAA4A44AAA
IAIIAIIAAA44AA4AAAAA4AAAIAAAA444IAAA4IA4AA44AIAA4IAAAAAAA4A44AAA
IAIIAIIAAA44AAAAAAAA4AAAIAAAA444IAAA4IA4AA44AIAA4IAAAAAAA4A44AAA
IAIAAIIAAA44AAAAAAAA4AAAIAAAA444IAAA4IA4AA44AIAA4IAAAAAAA4A44AAA
IAIAAIIAAA44AAAAAAAA4AAAIAAAA44A4AAA4IA4AA44AIAA4IAAAAAAA4A44AAA
IAIAAI4AAA44AAAAAAAA4AAAIAAAA44A4AAA4IA4AA44AIAA4IAAAAAAA4A44AAA
IAIAAI4AAA44AAAAAAAA4AAAIAAAA44A4AAA4IA4AA44AIAA4IAAAAIAA4A44AAA
IAIAAI4AAA44AAAAAIAA4AAAIAAAA44A4AAA4IA4AA44AIAA4IAAAAIAA4A44AAA
IAIAAI4AAA44AAAAA4AA4AAAIAAAA44A4AAA4IA4AA44AIAA4IAAAAIAA4A44AAA
IAIAAA4AAA44AAAAA4AA4AAAIAAAA44A4AAA4IA4AA44AIAA4IAAAAIAA4A44AAA
IAIAAA4AAA44AAAAA4AA4AAAIAAAA44A4AAA4IA4AA4AAIAA4IAAAAIAA4A44AAA
IAIAAA4AAA44AAAAA4AA4AAA4AAAA44A4AAA4IA4AA4AAIAA4IAAAAIAA4A44AAA
IAIAAA4AAA44AAAAA4AA4AAA4AAAA44A4AAA4IA4AA4AAIAA4IAAAA4AA4A44AAA
IAIAAA4AAA44AAAAA4AA4AAA4AAAA44AAAAA4IA4AA4AAIAA4IAAAA4AA4A44AAA
IAIAAA4AAA44AAAAA4AA4AAA4AAAA44AAAAA4IA4AA4AAAAA4IAAAA4AA4A44AAA
IAIAAA4AAA44AAAAA4AA4AAA4AAAA4AAAAAA4IA4AA4AAAAA4IAAAA4AA4A44AAA
AAIAAA4AAA44AAAAA4AA4AAA4AAAA4AAAAAA4IA4AA4AAAAA4IAAAA4AA4A44AAA
AAIAAA4AAA44AAAAA4AA4AAA4AAAA4AAAAAA4AA4AA4AAAAA4IAAAA4AA4A44AAA
AAIAAA4AAA44AAAAA4AA4AAA4AAAAAAAAAAA4AA4AA4AAAAA4IAAAA4AA4A44AAA
AA4AAA4AAA44AAAAA4AA4AAA4AAAAAAAAAAA4AA4AA4AAAAA4IAAAA4AA4A44AAA
AA4AAA4AAA44AAAAA4AA4AAA4AAAAAAAAAAA4AA4AA4AAAAA4IAAAAAAA4A44AAA
AA4AAA4AAA44AAAAAAAA4AAA4AAAAAAAAAAA4AA4AA4AAAAA4IAAAAAAA4A44AAA
AAAAAA4AAA44AAAAAAAA4AAA4AAAAAAAAAAA4AA4AA4AAAAA4IAAAAAAA4A44AAA
AAAAAA4AAA44AAAAAAAA4AAAAAAAAAAAAAAA4AA4AA4AAAAA4IAAAAAAA4A44AAA
AAAAAA4AAA44AAAAAAAA4AAAAAAAAAAAAAAA4AA4AA4AAAAAAIAAAAAAA4A44AAA
AAAAAA4AAA44AAAAAAAA4AAAAAAAAAAAAAAA4AA4AA4AAAAAAIAAAAAAAAA44AAA
AAAAAA4AAA44AAAAAAAA4AAAAAAAAAAAAAAA4AA4AA4AAAAAA4AAAAAAAAA44AAA
AAAAAA4AAA44AAAAAAAA4AAAAAAAAAAAAAAA4AA4AA4AAAAAA4AAAAAAAAAA4AAA
AAAAAA4AAA44AAAAAAAA4AAAAAAAAAAAAAAA4AA4AA4AAAAAAAAAAAAAAAAA4AAA
AAAAAA4AAA4AAAAAAAAA4AAAAAAAAAAAAAAA4AA4AA4AAAAAAAAAAAAAAAAA4AAA
AAAAAA4AAAAAAAAAAAAA4AAAAAAAAAAAAAAA4AA4AA4AAAAAAAAAAAAAAAAA4AAA
AAAAAAAAAAAAAAAAAAAA4AAAAAAAAAAAAAAA4AA4AA4AAAAAAAAAAAAAAAAA4AAA
AAAAAAAAAAAAAAAAAAAA4AAAAAAAAAAAAAAAAAA4AA4AAAAAAAAAAAAAAAAA4AAA
AAAAAAAAAAAAAAAAAAAA4AAAAAAAAAAAAAAAAAA4AA4AAAAAAAAAAAAAAAAAAAAA
AAAAAAAAAAAAAAAAAAAA4AAAAAAIAAAAAAAAAAA4AA4AAAAAAAAAAAAAAAAAAAAA
AAAAAAAAAAAAAAAAAAAA4AAAAAAAAAAAAAAAAAA4AA4AAAAAAAAAAAAAAAAAAAAA
[MLOP] Prefetch Degree Mean: 1.46671
[MLOP] Prefetch Degree SD: 2.03074
[MLOP] Max Score Left Mean (%): 14.13003
[MLOP] Max Score Left SD (%): 7.21853
[MLOP] Max Score Right Mean (%): 33.93379
[MLOP] Max Score Right SD (%): 8.38137

Channel_0_RQ_row_buffer_hit 642023
Channel_0_RQ_row_buffer_miss 2633604
Channel_0_WQ_row_buffer_hit 433908
Channel_0_WQ_row_buffer_miss 772437
Channel_0_WQ_full 0
Channel_0_dbus_congested 1656587

avg_congested_cycle 9

DRAM_bw_pochs 1765075
DRAM_bw_level_0 1408851
DRAM_bw_level_1 311592
DRAM_bw_level_2 32367
DRAM_bw_level_3 12265
