*************************************************
   ChampSim Multicore Out-of-Order Simulator
   Last compiled: Apr  3 2025 20:54:34
*************************************************
parsing config file: /home/zir/Pythia/config/mlop.ini

trace_0 /home/zir/ChampSim/ML-DPC/ChampSimTraces/gap/pr-3.trace.gz
adding L2C_PREFETCHER: MLOP
Initialize SHIP state
warmup_instructions 10000000
simulation_instructions 50000000
champsim_seed 51
measure_ipc 0
measure_ipc_epoch 1000
measure_dram_bw 1
measure_dram_bw_epoch 256
measure_cache_acc 1
measure_cache_acc_epoch 1024
l1d_perfect 0
l2c_perfect 0
llc_perfect 0
l1d_semi_perfect 0
l2c_semi_perfect 0
llc_semi_perfect 0
semi_perfect_cache_page_buffer_size 64

num_cpus 1
cpu_freq 4000
dram_io_freq 2400
page_size 4096
block_size 64
max_read_per_cycle 8
max_fill_per_cycle 1
dram_channels 1
log2_dram_channels 0
dram_ranks 1
dram_banks 8
dram_rows 65536
dram_columns 128
dram_row_size 8
dram_size 4096
dram_pages 1048576

fetch_width 6
decode_width 6
exec_width 4
lq_width 2
sq_width 2
retire_width 4
scheduler_size 128
branch_mispredict_penalty 20
rob_size 256
lq_size 72
sq_size 56
num_instr_destinations_sparc 4
num_instr_destinations 2
num_instr_sources 4

itlb_set 16
itlb_way 8
itlb_rq_size 16
itlb_wq_size 16
itlb_pq_size 0
itlb_mshr_size 8
itlb_latency 1

dtlb_set 16
dtlb_way 4
dtlb_rq_size 16
dtlb_wq_size 16
dtlb_pq_size 0
dtlb_mshr_size 8
dtlb_latency 1

stlb_set 128
stlb_way 12
stlb_rq_size 32
stlb_wq_size 32
stlb_pq_size 0
stlb_mshr_size 16
stlb_latency 8

l1i_size 32
l1i_set 64
l1i_way 8
l1i_rq_size 64
l1i_wq_size 64
l1i_pq_size 8
l1i_mshr_size 8
l1i_latency 1

l1d_size 32
l1d_set 64
l1d_way 8
l1d_rq_size 64
l1d_wq_size 64
l1d_pq_size 8
l1d_mshr_size 16
l1d_latency 4

l2c_size 256
l2c_set 512
l2c_way 8
l2c_rq_size 32
l2c_wq_size 32
l2c_pq_size 32
l2c_mshr_size 32
l2c_latency 10

llc_size 2048
llc_set 2048
llc_way 16
llc_rq_size 32
llc_wq_size 32
llc_pq_size 32
llc_mshr_size 64
llc_latency 20

dram_channel_width 8
dram_wq_size 64
dram_rq_size 64
tRP 15
tRCD 15
tCAS 12.5
dram_dbus_turn_around_time 30
dram_write_high_wm 56
dram_write_low_wm 48
min_dram_writes_per_switch 16
dram_mtps 2400
dram_dbus_return_time 13

mlop_pref_degree 16
mlop_num_updates 500
mlop_l1d_thresh 2
mlop_l2c_thresh 0.75
mlop_llc_thresh 0.3
mlop_debug_level 0
mlop_blocks_in_cache 4096
mlop_blocks_in_zone 64
mlop_amt_size 2048
mlop_PF_DEGREE 16
mlop_NUM_UPDATES 500
mlop_L1D_THRESH 1000
mlop_L2C_THRESH 375
mlop_LLC_THRESH 150
mlop_ORIGIN 63
mlop_MAX_OFFSET 63
mlop_MIN_OFFSET -63
mlop_ORIGIN 63
mlop_NUM_OFFSETS 127


Heartbeat CPU  0 instructions:    1000003 cycles:     405455 heartbeat IPC: 2.46637 cumulative IPC: 2.46637 (Simulation time: 0 hr 0 min 2 sec) 
Heartbeat CPU  0 instructions:    2000000 cycles:     806105 heartbeat IPC: 2.49594 cumulative IPC: 2.48107 (Simulation time: 0 hr 0 min 3 sec) 
Heartbeat CPU  0 instructions:    3000000 cycles:    1206750 heartbeat IPC: 2.49598 cumulative IPC: 2.48602 (Simulation time: 0 hr 0 min 5 sec) 
Heartbeat CPU  0 instructions:    4000000 cycles:    1607399 heartbeat IPC: 2.49595 cumulative IPC: 2.48849 (Simulation time: 0 hr 0 min 6 sec) 
Heartbeat CPU  0 instructions:    5000003 cycles:    2008085 heartbeat IPC: 2.49573 cumulative IPC: 2.48994 (Simulation time: 0 hr 0 min 8 sec) 
Heartbeat CPU  0 instructions:    6000003 cycles:    2408730 heartbeat IPC: 2.49598 cumulative IPC: 2.49094 (Simulation time: 0 hr 0 min 9 sec) 
Heartbeat CPU  0 instructions:    7000000 cycles:    2809379 heartbeat IPC: 2.49594 cumulative IPC: 2.49165 (Simulation time: 0 hr 0 min 11 sec) 
Heartbeat CPU  0 instructions:    8000000 cycles:    3210027 heartbeat IPC: 2.49596 cumulative IPC: 2.49219 (Simulation time: 0 hr 0 min 12 sec) 
Heartbeat CPU  0 instructions:    9000001 cycles:    3610711 heartbeat IPC: 2.49573 cumulative IPC: 2.49258 (Simulation time: 0 hr 0 min 14 sec) 
Heartbeat CPU  0 instructions:   10000003 cycles:    4011358 heartbeat IPC: 2.49597 cumulative IPC: 2.49292 (Simulation time: 0 hr 0 min 15 sec) 

Warmup complete CPU  0 instructions:   10000003 cycles:    4011358 (Simulation time: 0 hr 0 min 15 sec) 

Heartbeat CPU  0 instructions:   11000001 cycles:    4747230 heartbeat IPC: 1.35893 cumulative IPC: 1.35893 (Simulation time: 0 hr 0 min 17 sec) 
Heartbeat CPU  0 instructions:   12000000 cycles:   16073202 heartbeat IPC: 0.08829 cumulative IPC: 0.16581 (Simulation time: 0 hr 0 min 22 sec) 
Heartbeat CPU  0 instructions:   13000002 cycles:   35476820 heartbeat IPC: 0.05154 cumulative IPC: 0.09534 (Simulation time: 0 hr 0 min 30 sec) 
Heartbeat CPU  0 instructions:   14000001 cycles:   54680877 heartbeat IPC: 0.05207 cumulative IPC: 0.07894 (Simulation time: 0 hr 0 min 38 sec) 
Heartbeat CPU  0 instructions:   15000002 cycles:   73687885 heartbeat IPC: 0.05261 cumulative IPC: 0.07176 (Simulation time: 0 hr 0 min 46 sec) 
Heartbeat CPU  0 instructions:   16000000 cycles:   92613953 heartbeat IPC: 0.05284 cumulative IPC: 0.06772 (Simulation time: 0 hr 0 min 53 sec) 
Heartbeat CPU  0 instructions:   17000000 cycles:  111685611 heartbeat IPC: 0.05243 cumulative IPC: 0.06501 (Simulation time: 0 hr 1 min 1 sec) 
Heartbeat CPU  0 instructions:   18000000 cycles:  130266758 heartbeat IPC: 0.05382 cumulative IPC: 0.06336 (Simulation time: 0 hr 1 min 8 sec) 
Heartbeat CPU  0 instructions:   19000000 cycles:  149457195 heartbeat IPC: 0.05211 cumulative IPC: 0.06188 (Simulation time: 0 hr 1 min 16 sec) 
Heartbeat CPU  0 instructions:   20000000 cycles:  168394637 heartbeat IPC: 0.05281 cumulative IPC: 0.06083 (Simulation time: 0 hr 1 min 24 sec) 
Heartbeat CPU  0 instructions:   21000000 cycles:  187486116 heartbeat IPC: 0.05238 cumulative IPC: 0.05995 (Simulation time: 0 hr 1 min 32 sec) 
Heartbeat CPU  0 instructions:   22000001 cycles:  206433404 heartbeat IPC: 0.05278 cumulative IPC: 0.05928 (Simulation time: 0 hr 1 min 39 sec) 
Heartbeat CPU  0 instructions:   23000001 cycles:  225207596 heartbeat IPC: 0.05326 cumulative IPC: 0.05877 (Simulation time: 0 hr 1 min 47 sec) 
Heartbeat CPU  0 instructions:   24000000 cycles:  244092353 heartbeat IPC: 0.05295 cumulative IPC: 0.05831 (Simulation time: 0 hr 1 min 54 sec) 
Heartbeat CPU  0 instructions:   25000003 cycles:  263185074 heartbeat IPC: 0.05238 cumulative IPC: 0.05788 (Simulation time: 0 hr 2 min 2 sec) 
Heartbeat CPU  0 instructions:   26000001 cycles:  282037918 heartbeat IPC: 0.05304 cumulative IPC: 0.05755 (Simulation time: 0 hr 2 min 10 sec) 
Heartbeat CPU  0 instructions:   27000003 cycles:  300989791 heartbeat IPC: 0.05277 cumulative IPC: 0.05724 (Simulation time: 0 hr 2 min 17 sec) 
Heartbeat CPU  0 instructions:   28000000 cycles:  319659358 heartbeat IPC: 0.05356 cumulative IPC: 0.05703 (Simulation time: 0 hr 2 min 25 sec) 
Heartbeat CPU  0 instructions:   29000000 cycles:  338375843 heartbeat IPC: 0.05343 cumulative IPC: 0.05682 (Simulation time: 0 hr 2 min 32 sec) 
Heartbeat CPU  0 instructions:   30000000 cycles:  357339442 heartbeat IPC: 0.05273 cumulative IPC: 0.05660 (Simulation time: 0 hr 2 min 40 sec) 
Heartbeat CPU  0 instructions:   31000000 cycles:  376463430 heartbeat IPC: 0.05229 cumulative IPC: 0.05638 (Simulation time: 0 hr 2 min 48 sec) 
Heartbeat CPU  0 instructions:   32000000 cycles:  395464329 heartbeat IPC: 0.05263 cumulative IPC: 0.05620 (Simulation time: 0 hr 2 min 55 sec) 
Heartbeat CPU  0 instructions:   33000000 cycles:  414114051 heartbeat IPC: 0.05362 cumulative IPC: 0.05608 (Simulation time: 0 hr 3 min 3 sec) 
Heartbeat CPU  0 instructions:   34000000 cycles:  432995671 heartbeat IPC: 0.05296 cumulative IPC: 0.05595 (Simulation time: 0 hr 3 min 11 sec) 
Heartbeat CPU  0 instructions:   35000003 cycles:  452063459 heartbeat IPC: 0.05244 cumulative IPC: 0.05580 (Simulation time: 0 hr 3 min 18 sec) 
Heartbeat CPU  0 instructions:   36000000 cycles:  471180269 heartbeat IPC: 0.05231 cumulative IPC: 0.05565 (Simulation time: 0 hr 3 min 26 sec) 
Heartbeat CPU  0 instructions:   37000000 cycles:  490119671 heartbeat IPC: 0.05280 cumulative IPC: 0.05554 (Simulation time: 0 hr 3 min 34 sec) 
Heartbeat CPU  0 instructions:   38000001 cycles:  509064929 heartbeat IPC: 0.05278 cumulative IPC: 0.05544 (Simulation time: 0 hr 3 min 41 sec) 
Heartbeat CPU  0 instructions:   39000000 cycles:  528122715 heartbeat IPC: 0.05247 cumulative IPC: 0.05533 (Simulation time: 0 hr 3 min 49 sec) 
Heartbeat CPU  0 instructions:   40000000 cycles:  546912779 heartbeat IPC: 0.05322 cumulative IPC: 0.05526 (Simulation time: 0 hr 3 min 57 sec) 
Heartbeat CPU  0 instructions:   41000002 cycles:  565936645 heartbeat IPC: 0.05257 cumulative IPC: 0.05517 (Simulation time: 0 hr 4 min 4 sec) 
Heartbeat CPU  0 instructions:   42000001 cycles:  584569473 heartbeat IPC: 0.05367 cumulative IPC: 0.05512 (Simulation time: 0 hr 4 min 12 sec) 
Heartbeat CPU  0 instructions:   43000001 cycles:  603588107 heartbeat IPC: 0.05258 cumulative IPC: 0.05504 (Simulation time: 0 hr 4 min 19 sec) 
Heartbeat CPU  0 instructions:   44000000 cycles:  622695503 heartbeat IPC: 0.05234 cumulative IPC: 0.05496 (Simulation time: 0 hr 4 min 27 sec) 
Heartbeat CPU  0 instructions:   45000000 cycles:  641720902 heartbeat IPC: 0.05256 cumulative IPC: 0.05488 (Simulation time: 0 hr 4 min 35 sec) 
Heartbeat CPU  0 instructions:   46000001 cycles:  660859258 heartbeat IPC: 0.05225 cumulative IPC: 0.05481 (Simulation time: 0 hr 4 min 42 sec) 
Heartbeat CPU  0 instructions:   47000000 cycles:  679883984 heartbeat IPC: 0.05256 cumulative IPC: 0.05474 (Simulation time: 0 hr 4 min 50 sec) 
Heartbeat CPU  0 instructions:   48000000 cycles:  699037877 heartbeat IPC: 0.05221 cumulative IPC: 0.05467 (Simulation time: 0 hr 4 min 58 sec) 
Heartbeat CPU  0 instructions:   49000000 cycles:  718042151 heartbeat IPC: 0.05262 cumulative IPC: 0.05462 (Simulation time: 0 hr 5 min 5 sec) 
Heartbeat CPU  0 instructions:   50000000 cycles:  736902750 heartbeat IPC: 0.05302 cumulative IPC: 0.05458 (Simulation time: 0 hr 5 min 13 sec) 
Heartbeat CPU  0 instructions:   51000003 cycles:  755760290 heartbeat IPC: 0.05303 cumulative IPC: 0.05454 (Simulation time: 0 hr 5 min 21 sec) 
Heartbeat CPU  0 instructions:   52000000 cycles:  774759530 heartbeat IPC: 0.05263 cumulative IPC: 0.05449 (Simulation time: 0 hr 5 min 28 sec) 
Heartbeat CPU  0 instructions:   53000000 cycles:  793677284 heartbeat IPC: 0.05286 cumulative IPC: 0.05445 (Simulation time: 0 hr 5 min 36 sec) 
Heartbeat CPU  0 instructions:   54000002 cycles:  811703853 heartbeat IPC: 0.05547 cumulative IPC: 0.05448 (Simulation time: 0 hr 5 min 43 sec) 
Heartbeat CPU  0 instructions:   55000001 cycles:  830595912 heartbeat IPC: 0.05293 cumulative IPC: 0.05444 (Simulation time: 0 hr 5 min 51 sec) 
Heartbeat CPU  0 instructions:   56000000 cycles:  849382980 heartbeat IPC: 0.05323 cumulative IPC: 0.05441 (Simulation time: 0 hr 5 min 58 sec) 
Heartbeat CPU  0 instructions:   57000000 cycles:  868459519 heartbeat IPC: 0.05242 cumulative IPC: 0.05437 (Simulation time: 0 hr 6 min 6 sec) 
Heartbeat CPU  0 instructions:   58000002 cycles:  887576808 heartbeat IPC: 0.05231 cumulative IPC: 0.05433 (Simulation time: 0 hr 6 min 14 sec) 
Heartbeat CPU  0 instructions:   59000000 cycles:  906516173 heartbeat IPC: 0.05280 cumulative IPC: 0.05429 (Simulation time: 0 hr 6 min 21 sec) 
Heartbeat CPU  0 instructions:   60000000 cycles:  925380161 heartbeat IPC: 0.05301 cumulative IPC: 0.05427 (Simulation time: 0 hr 6 min 29 sec) 
Finished CPU 0 instructions: 50000000 cycles: 921368816 cumulative IPC: 0.05427 (Simulation time: 0 hr 6 min 29 sec) 

ChampSim completed all CPUs

[ROI Statistics]
Core_0_instructions 50000000
Core_0_cycles 921368816
Core_0_IPC 0.05427

Core_0_branch_prediction_accuracy 96.82648
Core_0_branch_MPKI 5.96114
Core_0_average_ROB_occupancy_at_mispredict 133.31733

Core_0_L1D_total_access 16319063
Core_0_L1D_total_hit 7352414
Core_0_L1D_total_miss 8966649
Core_0_L1D_loads 15728829
Core_0_L1D_load_hit 6770914
Core_0_L1D_load_miss 8957915
Core_0_L1D_RFOs 590234
Core_0_L1D_RFO_hit 581500
Core_0_L1D_RFO_miss 8734
Core_0_L1D_prefetches 0
Core_0_L1D_prefetch_hit 0
Core_0_L1D_prefetch_miss 0
Core_0_L1D_writebacks 0
Core_0_L1D_writeback_hit 0
Core_0_L1D_writeback_miss 0
Core_0_L1D_prefetch_requested 0
Core_0_L1D_prefetch_dropped 0
Core_0_L1D_prefetch_issued 0
Core_0_L1D_prefetch_filled 0
Core_0_L1D_prefetch_useful 0
Core_0_L1D_prefetch_useless 0
Core_0_L1D_prefetch_late 0
Core_0_L1D_average_miss_latency 84.31789

Core_0_L1D_rq_access 19501851
Core_0_L1D_rq_forward 0
Core_0_L1D_rq_merged 3237857
Core_0_L1D_rq_to_cache 16263994
Core_0_L1D_rq_full 0

Core_0_L1D_wq_access 717952
Core_0_L1D_wq_forward 0
Core_0_L1D_wq_merged 0
Core_0_L1D_wq_to_cache 717952
Core_0_L1D_wq_full 0

Core_0_L1D_pq_access 0
Core_0_L1D_pq_forward 0
Core_0_L1D_pq_merged 0
Core_0_L1D_pq_to_cache 0
Core_0_L1D_pq_full 0

Core_0_L1D_acc_epochs 902664
Core_0_L1D_acc_level_0 902664
Core_0_L1D_acc_level_1 0
Core_0_L1D_acc_level_2 0
Core_0_L1D_acc_level_3 0
Core_0_L1D_acc_level_4 0
Core_0_L1D_acc_level_5 0
Core_0_L1D_acc_level_6 0
Core_0_L1D_acc_level_7 0
Core_0_L1D_acc_level_8 0
Core_0_L1D_acc_level_9 0

Core_0_L1I_total_access 9466277
Core_0_L1I_total_hit 9466275
Core_0_L1I_total_miss 2
Core_0_L1I_loads 9466277
Core_0_L1I_load_hit 9466275
Core_0_L1I_load_miss 2
Core_0_L1I_RFOs 0
Core_0_L1I_RFO_hit 0
Core_0_L1I_RFO_miss 0
Core_0_L1I_prefetches 0
Core_0_L1I_prefetch_hit 0
Core_0_L1I_prefetch_miss 0
Core_0_L1I_writebacks 0
Core_0_L1I_writeback_hit 0
Core_0_L1I_writeback_miss 0
Core_0_L1I_prefetch_requested 0
Core_0_L1I_prefetch_dropped 0
Core_0_L1I_prefetch_issued 0
Core_0_L1I_prefetch_filled 0
Core_0_L1I_prefetch_useful 0
Core_0_L1I_prefetch_useless 0
Core_0_L1I_prefetch_late 0
Core_0_L1I_average_miss_latency 349.00000

Core_0_L1I_rq_access 50000006
Core_0_L1I_rq_forward 0
Core_0_L1I_rq_merged 40533728
Core_0_L1I_rq_to_cache 9466278
Core_0_L1I_rq_full 0

Core_0_L1I_wq_access 0
Core_0_L1I_wq_forward 0
Core_0_L1I_wq_merged 0
Core_0_L1I_wq_to_cache 0
Core_0_L1I_wq_full 0

Core_0_L1I_pq_access 0
Core_0_L1I_pq_forward 0
Core_0_L1I_pq_merged 0
Core_0_L1I_pq_to_cache 0
Core_0_L1I_pq_full 0

Core_0_L1I_acc_epochs 902664
Core_0_L1I_acc_level_0 902664
Core_0_L1I_acc_level_1 0
Core_0_L1I_acc_level_2 0
Core_0_L1I_acc_level_3 0
Core_0_L1I_acc_level_4 0
Core_0_L1I_acc_level_5 0
Core_0_L1I_acc_level_6 0
Core_0_L1I_acc_level_7 0
Core_0_L1I_acc_level_8 0
Core_0_L1I_acc_level_9 0

Core_0_L2C_total_access 10548806
Core_0_L2C_total_hit 2019779
Core_0_L2C_total_miss 8529027
Core_0_L2C_loads 8957917
Core_0_L2C_load_hit 1986912
Core_0_L2C_load_miss 6971005
Core_0_L2C_RFOs 8734
Core_0_L2C_RFO_hit 0
Core_0_L2C_RFO_miss 8734
Core_0_L2C_prefetches 1549109
Core_0_L2C_prefetch_hit 15
Core_0_L2C_prefetch_miss 1549094
Core_0_L2C_writebacks 33046
Core_0_L2C_writeback_hit 32852
Core_0_L2C_writeback_miss 194
Core_0_L2C_prefetch_requested 2971076
Core_0_L2C_prefetch_dropped 0
Core_0_L2C_prefetch_issued 2971076
Core_0_L2C_prefetch_filled 1716599
Core_0_L2C_prefetch_useful 862089
Core_0_L2C_prefetch_useless 853915
Core_0_L2C_prefetch_late 6995
Core_0_L2C_average_miss_latency 82.98888

Core_0_L2C_rq_access 8966651
Core_0_L2C_rq_forward 0
Core_0_L2C_rq_merged 0
Core_0_L2C_rq_to_cache 8966651
Core_0_L2C_rq_full 0

Core_0_L2C_wq_access 33046
Core_0_L2C_wq_forward 0
Core_0_L2C_wq_merged 0
Core_0_L2C_wq_to_cache 33046
Core_0_L2C_wq_full 0

Core_0_L2C_pq_access 2971076
Core_0_L2C_pq_forward 0
Core_0_L2C_pq_merged 3
Core_0_L2C_pq_to_cache 2971073
Core_0_L2C_pq_full 0

Core_0_L2C_acc_epochs 902664
Core_0_L2C_acc_level_0 164498
Core_0_L2C_acc_level_1 164417
Core_0_L2C_acc_level_2 137395
Core_0_L2C_acc_level_3 141562
Core_0_L2C_acc_level_4 64390
Core_0_L2C_acc_level_5 94906
Core_0_L2C_acc_level_6 58430
Core_0_L2C_acc_level_7 32786
Core_0_L2C_acc_level_8 15654
Core_0_L2C_acc_level_9 28626

Core_0_LLC_total_access 9762527
Core_0_LLC_total_hit 6636575
Core_0_LLC_total_miss 3125952
Core_0_LLC_loads 6964010
Core_0_LLC_load_hit 4590662
Core_0_LLC_load_miss 2373348
Core_0_LLC_RFOs 8734
Core_0_LLC_RFO_hit 0
Core_0_LLC_RFO_miss 8734
Core_0_LLC_prefetches 2761441
Core_0_LLC_prefetch_hit 2027482
Core_0_LLC_prefetch_miss 733959
Core_0_LLC_writebacks 28342
Core_0_LLC_writeback_hit 18431
Core_0_LLC_writeback_miss 9911
Core_0_LLC_prefetch_requested 0
Core_0_LLC_prefetch_dropped 0
Core_0_LLC_prefetch_issued 0
Core_0_LLC_prefetch_filled 901466
Core_0_LLC_prefetch_useful 42943
Core_0_LLC_prefetch_useless 851791
Core_0_LLC_prefetch_late 520
Core_0_LLC_average_miss_latency 182.61262

Core_0_LLC_rq_access 6972744
Core_0_LLC_rq_forward 0
Core_0_LLC_rq_merged 0
Core_0_LLC_rq_to_cache 6972744
Core_0_LLC_rq_full 0

Core_0_LLC_wq_access 28342
Core_0_LLC_wq_forward 0
Core_0_LLC_wq_merged 0
Core_0_LLC_wq_to_cache 28342
Core_0_LLC_wq_full 0

Core_0_LLC_pq_access 2971043
Core_0_LLC_pq_forward 0
Core_0_LLC_pq_merged 1217
Core_0_LLC_pq_to_cache 2969826
Core_0_LLC_pq_full 0

Core_0_LLC_acc_epochs 903692
Core_0_LLC_acc_level_0 859723
Core_0_LLC_acc_level_1 16338
Core_0_LLC_acc_level_2 12514
Core_0_LLC_acc_level_3 2512
Core_0_LLC_acc_level_4 684
Core_0_LLC_acc_level_5 8359
Core_0_LLC_acc_level_6 1100
Core_0_LLC_acc_level_7 900
Core_0_LLC_acc_level_8 367
Core_0_LLC_acc_level_9 1195

Core_0_major_page_fault 0
Core_0_minor_page_fault 12615

[MLOP] History of tracked zone:
IIIIIIIIIIIIIIIIIIIIIIIIIIIIIIIIIIIIIIIIIIIIIIIIIIIIIIIIIIIIIIII
A2222222222222222IIIIIIIIIIIIIIIIIIIIIIIIIIIIIIIIIIIIIIIIIIIIIII
AA2222222222222222IIIIIIIIIIIIIIIIIIIIIIIIIIIIIIIIIIIIIIIIIIIIII
AAA2222222222222222IIIIIIIIIIIIIIIIIIIIIIIIIIIIIIIIIIIIIIIIIIIII
AAAA2222222222222222IIIIIIIIIIIIIIIIIIIIIIIIIIIIIIIIIIIIIIIIIIII
AAAAA2222222222222222IIIIIIIIIIIIIIIIIIIIIIIIIIIIIIIIIIIIIIIIIII
AAAAAA2222222222222222IIIIIIIIIIIIIIIIIIIIIIIIIIIIIIIIIIIIIIIIII
AAAAAAA2222222222222222IIIIIIIIIIIIIIIIIIIIIIIIIIIIIIIIIIIIIIIII
AAAAAAAA2222222222222222IIIIIIIIIIIIIIIIIIIIIIIIIIIIIIIIIIIIIIII
AAAAAAAAA2222222222222222IIIIIIIIIIIIIIIIIIIIIIIIIIIIIIIIIIIIIII
AAAAAAAAAA2222222222222222IIIIIIIIIIIIIIIIIIIIIIIIIIIIIIIIIIIIII
AAAAAAAAAAA2222222222222222IIIIIIIIIIIIIIIIIIIIIIIIIIIIIIIIIIIII
AAAAAAAAAAAA2222222222222222IIIIIIIIIIIIIIIIIIIIIIIIIIIIIIIIIIII
AAAAAAAAAAAAA2222222222222222IIIIIIIIIIIIIIIIIIIIIIIIIIIIIIIIIII
AAAAAAAAAAAAAA2222222222222222IIIIIIIIIIIIIIIIIIIIIIIIIIIIIIIIII
AAAAAAAAAAAAAAA2222222222222222IIIIIIIIIIIIIIIIIIIIIIIIIIIIIIIII
AAAAAAAAAAAAAAAA2222222222222222IIIIIIIIIIIIIIIIIIIIIIIIIIIIIIII
AAAAAAAAAAAAAAAAA2222222222222222IIIIIIIIIIIIIIIIIIIIIIIIIIIIIII
AAAAAAAAAAAAAAAAAA2222222222222222IIIIIIIIIIIIIIIIIIIIIIIIIIIIII
AAAAAAAAAAAAAAAAAAA2222222222222222IIIIIIIIIIIIIIIIIIIIIIIIIIIII
AAAAAAAAAAAAAAAAAAAA2222222222222222IIIIIIIIIIIIIIIIIIIIIIIIIIII
AAAAAAAAAAAAAAAAAAAAA2222222222222222IIIIIIIIIIIIIIIIIIIIIIIIIII
AAAAAAAAAAAAAAAAAAAAAA2222222222222222IIIIIIIIIIIIIIIIIIIIIIIIII
AAAAAAAAAAAAAAAAAAAAAAA2222222222222222IIIIIIIIIIIIIIIIIIIIIIIII
AAAAAAAAAAAAAAAAAAAAAAAA2222222222222222IIIIIIIIIIIIIIIIIIIIIIII
AAAAAAAAAAAAAAAAAAAAAAAAA2222222222222222IIIIIIIIIIIIIIIIIIIIIII
AAAAAAAAAAAAAAAAAAAAAAAAAA2222222222222222IIIIIIIIIIIIIIIIIIIIII
AAAAAAAAAAAAAAAAAAAAAAAAAAA2222222222222222IIIIIIIIIIIIIIIIIIIII
AAAAAAAAAAAAAAAAAAAAAAAAAAAA2222222222222222IIIIIIIIIIIIIIIIIIII
AAAAAAAAAAAAAAAAAAAAAAAAAAAAA2222222222222222IIIIIIIIIIIIIIIIIII
AAAAAAAAAAAAAAAAAAAAAAAAAAAAAA2222222222222222IIIIIIIIIIIIIIIIII
AAAAAAAAAAAAAAAAAAAAAAAAAAAAAAA2222222222222222IIIIIIIIIIIIIIIII
AAAAAAAAAAAAAAAAAAAAAAAAAAAAAAAA2222222222222222IIIIIIIIIIIIIIII
AAAAAAAAAAAAAAAAAAAAAAAAAAAAAAAAA2222222222222222IIIIIIIIIIIIIII
AAAAAAAAAAAAAAAAAAAAAAAAAAAAAAAAAA2222222222222222IIIIIIIIIIIIII
AAAAAAAAAAAAAAAAAAAAAAAAAAAAAAAAAAA2222222222222222IIIIIIIIIIIII
AAAAAAAAAAAAAAAAAAAAAAAAAAAAAAAAAAAA2222222222222222IIIIIIIIIIII
AAAAAAAAAAAAAAAAAAAAAAAAAAAAAAAAAAAAA2222222222222222IIIIIIIIIII
AAAAAAAAAAAAAAAAAAAAAAAAAAAAAAAAAAAAAA2222222222222222IIIIIIIIII
AAAAAAAAAAAAAAAAAAAAAAAAAAAAAAAAAAAAAAA2222222222222222IIIIIIIII
AAAAAAAAAAAAAAAAAAAAAAAAAAAAAAAAAAAAAAAA2222222222222222IIIIIIII
AAAAAAAAAAAAAAAAAAAAAAAAAAAAAAAAAAAAAAAAA2222222222222222IIIIIII
AAAAAAAAAAAAAAAAAAAAAAAAAAAAAAAAAAAAAAAAAA2222222222222222IIIIII
AAAAAAAAAAAAAAAAAAAAAAAAAAAAAAAAAAAAAAAAAAA2222222222222222IIIII
AAAAAAAAAAAAAAAAAAAAAAAAAAAAAAAAAAAAAAAAAAAA2222222222222222IIII
AAAAAAAAAAAAAAAAAAAAAAAAAAAAAAAAAAAAAAAAAAAAA2222222222222222III
AAAAAAAAAAAAAAAAAAAAAAAAAAAAAAAAAAAAAAAAAAAAAA2222222222222222II
AAAAAAAAAAAAAAAAAAAAAAAAAAAAAAAAAAAAAAAAAAAAAAA2222222222222222I
AAAAAAAAAAAAAAAAAAAAAAAAAAAAAAAAAAAAAAAAAAAAAAAA2222222222222222
AAAAAAAAAAAAAAAAAAAAAAAAAAAAAAAAAAAAAAAAAAAAAAAAA222222222222222
AAAAAAAAAAAAAAAAAAAAAAAAAAAAAAAAAAAAAAAAAAAAAAAAAA22222222222222
AAAAAAAAAAAAAAAAAAAAAAAAAAAAAAAAAAAAAAAAAAAAAAAAAAA2222222222222
AAAAAAAAAAAAAAAAAAAAAAAAAAAAAAAAAAAAAAAAAAAAAAAAAAAA222222222222
AAAAAAAAAAAAAAAAAAAAAAAAAAAAAAAAAAAAAAAAAAAAAAAAAAAAA22222222222
AAAAAAAAAAAAAAAAAAAAAAAAAAAAAAAAAAAAAAAAAAAAAAAAAAAAAA2222222222
AAAAAAAAAAAAAAAAAAAAAAAAAAAAAAAAAAAAAAAAAAAAAAAAAAAAAAA222222222
AAAAAAAAAAAAAAAAAAAAAAAAAAAAAAAAAAAAAAAAAAAAAAAAAAAAAAAA22222222
AAAAAAAAAAAAAAAAAAAAAAAAAAAAAAAAAAAAAAAAAAAAAAAAAAAAAAAAA2222222
AAAAAAAAAAAAAAAAAAAAAAAAAAAAAAAAAAAAAAAAAAAAAAAAAAAAAAAAAA222222
AAAAAAAAAAAAAAAAAAAAAAAAAAAAAAAAAAAAAAAAAAAAAAAAAAAAAAAAAAA22222
AAAAAAAAAAAAAAAAAAAAAAAAAAAAAAAAAAAAAAAAAAAAAAAAAAAAAAAAAAAA2222
AAAAAAAAAAAAAAAAAAAAAAAAAAAAAAAAAAAAAAAAAAAAAAAAAAAAAAAAAAAAA222
AAAAAAAAAAAAAAAAAAAAAAAAAAAAAAAAAAAAAAAAAAAAAAAAAAAAAAAAAAAAAA22
AAAAAAAAAAAAAAAAAAAAAAAAAAAAAAAAAAAAAAAAAAAAAAAAAAAAAAAAAAAAAAA2
AAAAAAAAAAAAAAAAAAAAAAAAAAAAAAAAAAAAAAAAAAAAAAAAAAAAAAAAAAAAAAAA
AII22I24I44444444IIIIIIIIIIIIIIIIIIIIIIIIIIIIIIIIIIIIIIIIIIIIIII
AAI222224444444444IIIIIIIIIIIIIIIIIIIIIIIIIIIIIIIIIIIIIIIIIIIIII
AAA2222224444444444IIIIIIIIIIIIIIIIIIIIIIIIIIIIIIIIIIIIIIIIIIIII
AAAA2222224444444444IIIIIIIIIIIIIIIIIIIIIIIIIIIIIIIIIIIIIIIIIIII
AAAAA2222224444444444IIIIIIIIIIIIIIIIIIIIIIIIIIIIIIIIIIIIIIIIIII
AAAAAA2222224444444444IIIIIIIIIIIIIIIIIIIIIIIIIIIIIIIIIIIIIIIIII
AAAAAA22222244444444444IIIIIIIIIIIIIIIIIIIIIIIIIIIIIIIIIIIIIIIII
AAAAAAA22222444444444444IIIIIIIIIIIIIIIIIIIIIIIIIIIIIIIIIIIIIIII
AAAAAAAA22224444444444444IIIIIIIIIIIIIIIIIIIIIIIIIIIIIIIIIIIIIII
AAAAAAAAA22244444444444444IIIIIIIIIIIIIIIIIIIIIIIIIIIIIIIIIIIIII
AAAAAAAAAA22244444444444444IIIIIIIIIIIIIIIIIIIIIIIIIIIIIIIIIIIII
AAAAAAAAAAA22244444444444444IIIIIIIIIIIIIIIIIIIIIIIIIIIIIIIIIIII
AAAAAAAAAAA222442444444444444IIIIIIIIIIIIIIIIIIIIIIIIIIIIIIIIIII
AAAAAAAAAAAA222422444444444444IIIIIIIIIIIIIIIIIIIIIIIIIIIIIIIIII
AAAAAAAAAAAAA222222444444444444IIIIIIIIIIIIIIIIIIIIIIIIIIIIIIIII
AAAAAAAAAAAAAA222222444444444444IIIIIIIIIIIIIIIIIIIIIIIIIIIIIIII
AAAAAAAAAAAAAAA222222444444444444IIIIIIIIIIIIIIIIIIIIIIIIIIIIIII
AAAAAAAAAAAAAAAA222222444444444444IIIIIIIIIIIIIIIIIIIIIIIIIIIIII
AAAAAAAAAAAAAAAAA222222444444444444IIIIIIIIIIIIIIIIIIIIIIIIIIIII
AAAAAAAAAAAAAAAAAA222222444444444444IIIIIIIIIIIIIIIIIIIIIIIIIIII
AAAAAAAAAAAAAAAAAAA222222444444444444IIIIIIIIIIIIIIIIIIIIIIIIIII
AAAAAAAAAAAAAAAAAAAA222222444444444444IIIIIIIIIIIIIIIIIIIIIIIIII
AAAAAAAAAAAAAAAAAAAAA222222444444444444IIIIIIIIIIIIIIIIIIIIIIIII
AAAAAAAAAAAAAAAAAAAAAA222222444444444444IIIIIIIIIIIIIIIIIIIIIIII
AAAAAAAAAAAAAAAAAAAAAAA222222444444444444IIIIIIIIIIIIIIIIIIIIIII
AAAAAAAAAAAAAAAAAAAAAAAA22222444444444444IIIIIIIIIIIIIIIIIIIIIII
AAAAAAAAAAAAAAAAAAAAAAAAA2222444444444444IIIIIIIIIIIIIIIIIIIIIII
AAAAAAAAAAAAAAAAAAAAAAAAAA2222444444444444IIIIIIIIIIIIIIIIIIIIII
AAAAAAAAAAAAAAAAAAAAAAAAAAA2222444444444444IIIIIIIIIIIIIIIIIIIII
AAAAAAAAAAAAAAAAAAAAAAAAAAAA2222444444444444IIIIIIIIIIIIIIIIIIII
AAAAAAAAAAAAAAAAAAAAAAAAAAAAA2222444444444444IIIIIIIIIIIIIIIIIII
AAAAAAAAAAAAAAAAAAAAAAAAAAAAAA2222444444444444IIIIIIIIIIIIIIIIII
AAAAAAAAAAAAAAAAAAAAAAAAAAAAAAA2222444444444444IIIIIIIIIIIIIIIII
AAAAAAAAAAAAAAAAAAAAAAAAAAAAAAAA2222444444444444IIIIIIIIIIIIIIII
AAAAAAAAAAAAAAAAAAAAAAAAAAAAAAAAA2222444444444444IIIIIIIIIIIIIII
AAAAAAAAAAAAAAAAAAAAAAAAAAAAAAAAAA2222444444444444IIIIIIIIIIIIII
AAAAAAAAAAAAAAAAAAAAAAAAAAAAAAAAAAA2222444444444444IIIIIIIIIIIII
AAAAAAAAAAAAAAAAAAAAAAAAAAAAAAAAAAAA2222444444444444IIIIIIIIIIII
AAAAAAAAAAAAAAAAAAAAAAAAAAAAAAAAAAAAA2222444444444444IIIIIIIIIII
AAAAAAAAAAAAAAAAAAAAAAAAAAAAAAAAAAAAAA2222444444444444IIIIIIIIII
AAAAAAAAAAAAAAAAAAAAAAAAAAAAAAAAAAAAAAA2222444444444444IIIIIIIII
AAAAAAAAAAAAAAAAAAAAAAAAAAAAAAAAAAAAAAAA2222444444444444IIIIIIII
AAAAAAAAAAAAAAAAAAAAAAAAAAAAAAAAAAAAAAAAA2222444444444444IIIIIII
AAAAAAAAAAAAAAAAAAAAAAAAAAAAAAAAAAAAAAAAAA2224244444444444IIIIII
AAAAAAAAAAAAAAAAAAAAAAAAAAAAAAAAAAAAAAAAAAA2222244444444444IIIII
AAAAAAAAAAAAAAAAAAAAAAAAAAAAAAAAAAAAAAAAAAAA2222244444444444IIII
AAAAAAAAAAAAAAAAAAAAAAAAAAAAAAAAAAAAAAAAAAAAA2222244444444444III
AAAAAAAAAAAAAAAAAAAAAAAAAAAAAAAAAAAAAAAAAAAAAA2222244444444444II
AAAAIAAAAAAAAAAAAAAAAAAAAAAAAAAAAAAAAAAAAAAAAA2222244444444444II
AAAAIAAAIAAAAAAAAAAAAAAAAAAAAAAAAAAAAAAAAAAAAA2222244444444444II
AAAAIAAAIAAAAAAAAAIAAAAAAAAAAAAAAAAAAAAAAAAAAA2222244444444444II
AAAAIAAAIAAAAAAAAAIAAAAAAAAAAAAAAAAAAAAAAAAAAAA2222244444444444I
AAAAIAAAIAAAAAAAAAIAAAAAAAAAAAAAAAAAAAAAAAAAAAAA2222244444444444
AAAAIAAAIAAAAAAAAAIAAAAAAAAAAAAAAAAAAAAAAAAAAAAAA222224444444444
AAAAIAAAIAAAAAAAAAIAAAAAAAAIAAAAAAAAAAAAAAAAAAAAA222224444444444
AAAAIAAAIAAAAAAAAAIAAAAAAAAIAAAAAAAAAAAAAAAAAAAAAA22222444444444
AAAAIAAAIAAAAAAAAAIAAAAAAAAIAAAAAAAAAAAAAAAAAAAAAAA2222244444444
AAAAIAAAIAAAAAAAAAIAAAAAAAAIAAAAAAAAAAAAAAAAAAAAAAAA222224444444
AAAAIAAAIAAAAAAAAAIAAAAAAAAIAAAAAAAAAAAAAAAAAAAAAAAAA22222444444
AAAAIAAAIAAAAAAAAAIAAAAAAAAIAAAAAAAAAAAAAAAAAAAAAAAAAA2222244444
AAAAIAAAIAAAAAAAAAIAAAAAAAAIAAAAAAAAAAAAAAAAAAAAAAAAAAA222224444
AAAAIAAAIAAAAAAAAAIAAAIAAAAIAAAAAAAAAAAAAAAAAAAAAAAAAAA222224444
AAAAIAAAIAAAAAAAAAIAAAIAAAAIAAAAAAAAAAAAAAAAAAAAAAAAAAAA22222244
AAAAIAAAIAAAAAAAAAIAAAIAAAAIAAAAAAAAAAAAAAAAAAAAAAAAAAAAA2222224
AAAAIAAAIAAAAAAAAAIAAAIAAAAIAAAAAAAAAAAAAAAAAAAAAAAAAAAAAA222222
AAAAIAAAIAAAAAAAAAIAAAIAAAAIAAAAAAAAAAAAAAAAAAAAAAAAAAAAAAA22222
AAAAIAAAIAAAAAAAAAIAAAIAAAAIAAAAAAAAAAAAAAAAAAAAAAAAAAAAAAAA2222
AAAAIAAAIAAAAAAAAAIAAAIAAAAIAAIAAAAAAAAAAAAAAAAAAAAAAAAAAAAA2222
AAAAIAAAIAAAAAAAAAIAAAIAAAAIAAIAAAAAAAAAAAAAAAAAAAAAAAAAAAAAA222
AAAAIAAAIAAAAAAAAAIAAAIAAAAIAAIAAAAAAAAAAAAAAAAAAAAAAAAAAAAAAA22
AAAAIAAAIAAAAAAAAAIAAAIAAAAIAAIAAAAAAAAAAAAAAAAAAAAAAAAAAAAAAAA2
AAAAIAAAIAAAAAAAAAIAAAIAAAAIAAIAAAAAAAAAAAAAAAAAAAAAAAAAAAAAAAAA
AAAAIAAAIAAAAAAAAAIAAAIAAAAIAAIAAAAAAAAIAAAAAAAAAAAAAAAAAAAAAAAA
AAAAIAAAIAAAAAAAAAIIAAIAAAAIAAIAAAAAAAAIAAAAAAAAAAAAAAAAAAAAAAAA
AAAAIAAAIAAAAAAAAAIIAAIAAAAIAAIAAAAAAAAIAAAAAAAAAAAAAAAAAAAAIAAA
AAAAIAAAIAAAAAAAAAIIAAIAAAAIAAIAAIAAAAAIAAAAAAAAAAAAAAAAAAAAIAAA
AAAAIAAAIAAAAAAAAAIIAAIAAAAIAAIAAIAAAAAIAAAAAAAAIAAAAAAAAAAAIAAA
[MLOP] Prefetch Degree Mean: 11.26629
[MLOP] Prefetch Degree SD: 2.46601
[MLOP] Max Score Left Mean (%): 60.04366
[MLOP] Max Score Left SD (%): 8.35739
[MLOP] Max Score Right Mean (%): 87.45728
[MLOP] Max Score Right SD (%): 8.44304

Channel_0_RQ_row_buffer_hit 452593
Channel_0_RQ_row_buffer_miss 2663422
Channel_0_WQ_row_buffer_hit 11585
Channel_0_WQ_row_buffer_miss 27879
Channel_0_WQ_full 554
Channel_0_dbus_congested 283831

avg_congested_cycle 8

DRAM_bw_pochs 3614767
DRAM_bw_level_0 3567550
DRAM_bw_level_1 30926
DRAM_bw_level_2 9866
DRAM_bw_level_3 6425
