*************************************************
   ChampSim Multicore Out-of-Order Simulator
   Last compiled: Apr  3 2025 20:54:34
*************************************************
parsing config file: /home/zir/Pythia/config/pythia.ini

trace_0 /home/zir/ChampSim/ML-DPC/ChampSimTraces/gap/cc-13.trace.gz
adding L2C_PREFETCHER: Scooby
Initialize SHIP state
warmup_instructions 10000000
simulation_instructions 50000000
champsim_seed 100
measure_ipc 0
measure_ipc_epoch 1000
measure_dram_bw 1
measure_dram_bw_epoch 256
measure_cache_acc 1
measure_cache_acc_epoch 1024
l1d_perfect 0
l2c_perfect 0
llc_perfect 0
l1d_semi_perfect 0
l2c_semi_perfect 0
llc_semi_perfect 0
semi_perfect_cache_page_buffer_size 64

num_cpus 1
cpu_freq 4000
dram_io_freq 2400
page_size 4096
block_size 64
max_read_per_cycle 8
max_fill_per_cycle 1
dram_channels 1
log2_dram_channels 0
dram_ranks 1
dram_banks 8
dram_rows 65536
dram_columns 128
dram_row_size 8
dram_size 4096
dram_pages 1048576

fetch_width 6
decode_width 6
exec_width 4
lq_width 2
sq_width 2
retire_width 4
scheduler_size 128
branch_mispredict_penalty 20
rob_size 256
lq_size 72
sq_size 56
num_instr_destinations_sparc 4
num_instr_destinations 2
num_instr_sources 4

itlb_set 16
itlb_way 8
itlb_rq_size 16
itlb_wq_size 16
itlb_pq_size 0
itlb_mshr_size 8
itlb_latency 1

dtlb_set 16
dtlb_way 4
dtlb_rq_size 16
dtlb_wq_size 16
dtlb_pq_size 0
dtlb_mshr_size 8
dtlb_latency 1

stlb_set 128
stlb_way 12
stlb_rq_size 32
stlb_wq_size 32
stlb_pq_size 0
stlb_mshr_size 16
stlb_latency 8

l1i_size 32
l1i_set 64
l1i_way 8
l1i_rq_size 64
l1i_wq_size 64
l1i_pq_size 8
l1i_mshr_size 8
l1i_latency 1

l1d_size 32
l1d_set 64
l1d_way 8
l1d_rq_size 64
l1d_wq_size 64
l1d_pq_size 8
l1d_mshr_size 16
l1d_latency 4

l2c_size 256
l2c_set 512
l2c_way 8
l2c_rq_size 32
l2c_wq_size 32
l2c_pq_size 32
l2c_mshr_size 32
l2c_latency 10

llc_size 2048
llc_set 2048
llc_way 16
llc_rq_size 32
llc_wq_size 32
llc_pq_size 32
llc_mshr_size 64
llc_latency 20

dram_channel_width 8
dram_wq_size 64
dram_rq_size 64
tRP 15
tRCD 15
tCAS 12.5
dram_dbus_turn_around_time 30
dram_write_high_wm 56
dram_write_low_wm 48
min_dram_writes_per_switch 16
dram_mtps 2400
dram_dbus_return_time 13

scooby_alpha 0.0065088
scooby_gamma 0.556301
scooby_epsilon 0.00182284
scooby_state_num_bits 10
scooby_max_states 1024
scooby_seed 200
scooby_policy EGreedy
scooby_learning_type SARSA
scooby_actions 1,3,4,5,10,11,12,22,23,30,32,-1,-3,-6,0,
scooby_max_actions 15
scooby_pt_size 256
scooby_st_size 64
scooby_max_pcs 5
scooby_max_offsets 5
scooby_max_deltas 5
scooby_reward_none -4
scooby_reward_incorrect -8
scooby_reward_correct_untimely 12
scooby_reward_correct_timely 20
scooby_brain_zero_init 0
scooby_enable_reward_all 0
scooby_enable_track_multiple 0
scooby_enable_reward_out_of_bounds 1
scooby_reward_out_of_bounds -12
scooby_state_type 1
scooby_state_hash_type 11
scooby_access_debug 0
scooby_print_access_debug 0
scooby_print_access_debug_pc deadbeef
scooby_print_access_debug_pc_count 0
scooby_print_trace 0
scooby_enable_state_action_stats 1
scooby_enable_reward_tracker_hit 0
scooby_reward_tracker_hit -2
scooby_enable_featurewise_engine 1
scooby_pref_degree 1
scooby_enable_dyn_degree 1
scooby_max_to_avg_q_thresholds 0.5,1,2,
scooby_dyn_degrees 1,2,4,4,
scooby_multi_deg_select_type 2
scooby_last_pref_offset_conf_thresholds 1,3,8,
scooby_dyn_degrees_type2 1,2,4,6,
scooby_action_tracker_size 2
scooby_high_bw_thresh 4
scooby_enable_hbw_reward 1
scooby_reward_hbw_correct_timely 20
scooby_reward_hbw_correct_untimely 12
scooby_reward_hbw_incorrect -14
scooby_reward_hbw_none -2
scooby_reward_hbw_out_of_bounds -12
scooby_reward_hbw_tracker_hit -2
scooby_last_pref_offset_conf_thresholds_hbw 1,3,8,
scooby_dyn_degrees_type2_hbw 1,2,4,6,

le_enable_trace 0
le_trace_interval 0
le_trace_file_name 
le_trace_state 0
le_enable_score_plot 0
le_plot_file_name 
le_plot_actions 
le_enable_action_trace 0
le_action_trace_interval 0
le_action_trace_name 
le_enable_action_plot 0

le_featurewise_active_features PC, PC_Delta
le_featurewise_num_tilings 3,3,
le_featurewise_num_tiles 128,128,
le_featurewise_hash_types 2,2,
le_featurewise_enable_tiling_offset 1,1,
le_featurewise_max_q_thresh 0.5
le_featurewise_enable_action_fallback 1
le_featurewise_feature_weights 1,1,
le_featurewise_enable_dynamic_weight 0
le_featurewise_weight_gradient 0.001
le_featurewise_disable_adjust_weight_all_features_align 1
le_featurewise_selective_update 0
le_featurewise_pooling_type 2
le_featurewise_enable_dyn_action_fallback 1
le_featurewise_bw_acc_check_level 1
le_featurewise_acc_thresh 2
le_featurewise_enable_trace 0
le_featurewise_trace_feature_type 0
le_featurewise_trace_feature 
le_featurewise_trace_interval 0
le_featurewise_trace_record_count 0
le_featurewise_trace_file_name 
le_featurewise_enable_score_plot 0
le_featurewise_plot_actions 
le_featurewise_plot_file_name 


Heartbeat CPU  0 instructions:    1000001 cycles:     261951 heartbeat IPC: 3.81751 cumulative IPC: 3.81751 (Simulation time: 0 hr 0 min 1 sec) 
Heartbeat CPU  0 instructions:    2000000 cycles:     776236 heartbeat IPC: 1.94445 cumulative IPC: 2.57654 (Simulation time: 0 hr 0 min 3 sec) 
Heartbeat CPU  0 instructions:    3000001 cycles:    2184662 heartbeat IPC: 0.71001 cumulative IPC: 1.37321 (Simulation time: 0 hr 0 min 5 sec) 
Heartbeat CPU  0 instructions:    4000000 cycles:    3571966 heartbeat IPC: 0.72082 cumulative IPC: 1.11983 (Simulation time: 0 hr 0 min 6 sec) 
Heartbeat CPU  0 instructions:    5000000 cycles:    4841418 heartbeat IPC: 0.78774 cumulative IPC: 1.03276 (Simulation time: 0 hr 0 min 8 sec) 
Heartbeat CPU  0 instructions:    6000002 cycles:    6085072 heartbeat IPC: 0.80408 cumulative IPC: 0.98602 (Simulation time: 0 hr 0 min 10 sec) 
Heartbeat CPU  0 instructions:    7000000 cycles:    7285980 heartbeat IPC: 0.83270 cumulative IPC: 0.96075 (Simulation time: 0 hr 0 min 12 sec) 
Heartbeat CPU  0 instructions:    8000000 cycles:    8353427 heartbeat IPC: 0.93681 cumulative IPC: 0.95769 (Simulation time: 0 hr 0 min 14 sec) 
Heartbeat CPU  0 instructions:    9000003 cycles:    9534734 heartbeat IPC: 0.84652 cumulative IPC: 0.94392 (Simulation time: 0 hr 0 min 16 sec) 
Heartbeat CPU  0 instructions:   10000000 cycles:   10675205 heartbeat IPC: 0.87683 cumulative IPC: 0.93675 (Simulation time: 0 hr 0 min 17 sec) 

Warmup complete CPU  0 instructions:   10000001 cycles:   10675228 (Simulation time: 0 hr 0 min 17 sec) 

Heartbeat CPU  0 instructions:   11000002 cycles:   16663373 heartbeat IPC: 0.16700 cumulative IPC: 0.16700 (Simulation time: 0 hr 0 min 20 sec) 
Heartbeat CPU  0 instructions:   12000000 cycles:   22116242 heartbeat IPC: 0.18339 cumulative IPC: 0.17481 (Simulation time: 0 hr 0 min 23 sec) 
Heartbeat CPU  0 instructions:   13000001 cycles:   27902704 heartbeat IPC: 0.17282 cumulative IPC: 0.17414 (Simulation time: 0 hr 0 min 26 sec) 
Heartbeat CPU  0 instructions:   14000000 cycles:   33810239 heartbeat IPC: 0.16928 cumulative IPC: 0.17290 (Simulation time: 0 hr 0 min 29 sec) 
Heartbeat CPU  0 instructions:   15000002 cycles:   40000498 heartbeat IPC: 0.16154 cumulative IPC: 0.17050 (Simulation time: 0 hr 0 min 33 sec) 
Heartbeat CPU  0 instructions:   16000000 cycles:   45607631 heartbeat IPC: 0.17834 cumulative IPC: 0.17176 (Simulation time: 0 hr 0 min 35 sec) 
Heartbeat CPU  0 instructions:   17000001 cycles:   50956151 heartbeat IPC: 0.18697 cumulative IPC: 0.17378 (Simulation time: 0 hr 0 min 39 sec) 
Heartbeat CPU  0 instructions:   18000003 cycles:   56752600 heartbeat IPC: 0.17252 cumulative IPC: 0.17362 (Simulation time: 0 hr 0 min 42 sec) 
Heartbeat CPU  0 instructions:   19000000 cycles:   62451477 heartbeat IPC: 0.17547 cumulative IPC: 0.17382 (Simulation time: 0 hr 0 min 45 sec) 
Heartbeat CPU  0 instructions:   20000000 cycles:   68344528 heartbeat IPC: 0.16969 cumulative IPC: 0.17340 (Simulation time: 0 hr 0 min 48 sec) 
Heartbeat CPU  0 instructions:   21000002 cycles:   73965887 heartbeat IPC: 0.17789 cumulative IPC: 0.17380 (Simulation time: 0 hr 0 min 51 sec) 
Heartbeat CPU  0 instructions:   22000000 cycles:   79637736 heartbeat IPC: 0.17631 cumulative IPC: 0.17401 (Simulation time: 0 hr 0 min 54 sec) 
Heartbeat CPU  0 instructions:   23000000 cycles:   85150520 heartbeat IPC: 0.18140 cumulative IPC: 0.17455 (Simulation time: 0 hr 0 min 57 sec) 
Heartbeat CPU  0 instructions:   24000000 cycles:   90218028 heartbeat IPC: 0.19734 cumulative IPC: 0.17601 (Simulation time: 0 hr 1 min 0 sec) 
Heartbeat CPU  0 instructions:   25000003 cycles:   95921517 heartbeat IPC: 0.17533 cumulative IPC: 0.17596 (Simulation time: 0 hr 1 min 3 sec) 
Heartbeat CPU  0 instructions:   26000002 cycles:  101314509 heartbeat IPC: 0.18543 cumulative IPC: 0.17652 (Simulation time: 0 hr 1 min 6 sec) 
Heartbeat CPU  0 instructions:   27000000 cycles:  106332955 heartbeat IPC: 0.19926 cumulative IPC: 0.17772 (Simulation time: 0 hr 1 min 9 sec) 
Heartbeat CPU  0 instructions:   28000000 cycles:  111693350 heartbeat IPC: 0.18655 cumulative IPC: 0.17819 (Simulation time: 0 hr 1 min 12 sec) 
Heartbeat CPU  0 instructions:   29000002 cycles:  116754766 heartbeat IPC: 0.19757 cumulative IPC: 0.17911 (Simulation time: 0 hr 1 min 15 sec) 
Heartbeat CPU  0 instructions:   30000001 cycles:  122262760 heartbeat IPC: 0.18155 cumulative IPC: 0.17923 (Simulation time: 0 hr 1 min 18 sec) 
Heartbeat CPU  0 instructions:   31000000 cycles:  127671000 heartbeat IPC: 0.18490 cumulative IPC: 0.17949 (Simulation time: 0 hr 1 min 21 sec) 
Heartbeat CPU  0 instructions:   32000000 cycles:  132938380 heartbeat IPC: 0.18985 cumulative IPC: 0.17994 (Simulation time: 0 hr 1 min 24 sec) 
Heartbeat CPU  0 instructions:   33000002 cycles:  138392691 heartbeat IPC: 0.18334 cumulative IPC: 0.18009 (Simulation time: 0 hr 1 min 27 sec) 
Heartbeat CPU  0 instructions:   34000001 cycles:  143610781 heartbeat IPC: 0.19164 cumulative IPC: 0.18054 (Simulation time: 0 hr 1 min 30 sec) 
Heartbeat CPU  0 instructions:   35000003 cycles:  148407759 heartbeat IPC: 0.20846 cumulative IPC: 0.18151 (Simulation time: 0 hr 1 min 33 sec) 
Heartbeat CPU  0 instructions:   36000000 cycles:  154076929 heartbeat IPC: 0.17639 cumulative IPC: 0.18131 (Simulation time: 0 hr 1 min 36 sec) 
Heartbeat CPU  0 instructions:   37000000 cycles:  159371833 heartbeat IPC: 0.18886 cumulative IPC: 0.18158 (Simulation time: 0 hr 1 min 39 sec) 
Heartbeat CPU  0 instructions:   38000001 cycles:  164126167 heartbeat IPC: 0.21033 cumulative IPC: 0.18247 (Simulation time: 0 hr 1 min 42 sec) 
Heartbeat CPU  0 instructions:   39000000 cycles:  169354892 heartbeat IPC: 0.19125 cumulative IPC: 0.18276 (Simulation time: 0 hr 1 min 45 sec) 
Heartbeat CPU  0 instructions:   40000000 cycles:  174950360 heartbeat IPC: 0.17872 cumulative IPC: 0.18262 (Simulation time: 0 hr 1 min 48 sec) 
Heartbeat CPU  0 instructions:   41000000 cycles:  180265874 heartbeat IPC: 0.18813 cumulative IPC: 0.18279 (Simulation time: 0 hr 1 min 51 sec) 
Heartbeat CPU  0 instructions:   42000001 cycles:  185653071 heartbeat IPC: 0.18563 cumulative IPC: 0.18288 (Simulation time: 0 hr 1 min 54 sec) 
Heartbeat CPU  0 instructions:   43000001 cycles:  191289544 heartbeat IPC: 0.17742 cumulative IPC: 0.18271 (Simulation time: 0 hr 1 min 57 sec) 
Heartbeat CPU  0 instructions:   44000000 cycles:  196724320 heartbeat IPC: 0.18400 cumulative IPC: 0.18275 (Simulation time: 0 hr 2 min 0 sec) 
Heartbeat CPU  0 instructions:   45000000 cycles:  202318708 heartbeat IPC: 0.17875 cumulative IPC: 0.18263 (Simulation time: 0 hr 2 min 3 sec) 
Heartbeat CPU  0 instructions:   46000002 cycles:  207483223 heartbeat IPC: 0.19363 cumulative IPC: 0.18292 (Simulation time: 0 hr 2 min 6 sec) 
Heartbeat CPU  0 instructions:   47000001 cycles:  212303262 heartbeat IPC: 0.20747 cumulative IPC: 0.18351 (Simulation time: 0 hr 2 min 9 sec) 
Heartbeat CPU  0 instructions:   48000000 cycles:  217853980 heartbeat IPC: 0.18016 cumulative IPC: 0.18342 (Simulation time: 0 hr 2 min 12 sec) 
Heartbeat CPU  0 instructions:   49000000 cycles:  223049993 heartbeat IPC: 0.19246 cumulative IPC: 0.18364 (Simulation time: 0 hr 2 min 15 sec) 
Heartbeat CPU  0 instructions:   50000000 cycles:  228346200 heartbeat IPC: 0.18881 cumulative IPC: 0.18376 (Simulation time: 0 hr 2 min 18 sec) 
Heartbeat CPU  0 instructions:   51000000 cycles:  234040129 heartbeat IPC: 0.17563 cumulative IPC: 0.18356 (Simulation time: 0 hr 2 min 21 sec) 
Heartbeat CPU  0 instructions:   52000000 cycles:  239479840 heartbeat IPC: 0.18383 cumulative IPC: 0.18356 (Simulation time: 0 hr 2 min 24 sec) 
Heartbeat CPU  0 instructions:   53000002 cycles:  244727906 heartbeat IPC: 0.19055 cumulative IPC: 0.18372 (Simulation time: 0 hr 2 min 27 sec) 
Heartbeat CPU  0 instructions:   54000000 cycles:  250250311 heartbeat IPC: 0.18108 cumulative IPC: 0.18366 (Simulation time: 0 hr 2 min 30 sec) 
Heartbeat CPU  0 instructions:   55000000 cycles:  255440395 heartbeat IPC: 0.19268 cumulative IPC: 0.18385 (Simulation time: 0 hr 2 min 33 sec) 
Heartbeat CPU  0 instructions:   56000000 cycles:  260969138 heartbeat IPC: 0.18087 cumulative IPC: 0.18378 (Simulation time: 0 hr 2 min 36 sec) 
Heartbeat CPU  0 instructions:   57000002 cycles:  266364840 heartbeat IPC: 0.18533 cumulative IPC: 0.18382 (Simulation time: 0 hr 2 min 39 sec) 
Heartbeat CPU  0 instructions:   58000001 cycles:  271969900 heartbeat IPC: 0.17841 cumulative IPC: 0.18370 (Simulation time: 0 hr 2 min 42 sec) 
Heartbeat CPU  0 instructions:   59000003 cycles:  277590990 heartbeat IPC: 0.17790 cumulative IPC: 0.18358 (Simulation time: 0 hr 2 min 45 sec) 
Heartbeat CPU  0 instructions:   60000000 cycles:  282745504 heartbeat IPC: 0.19400 cumulative IPC: 0.18378 (Simulation time: 0 hr 2 min 48 sec) 
Finished CPU 0 instructions: 50000000 cycles: 272070284 cumulative IPC: 0.18378 (Simulation time: 0 hr 2 min 48 sec) 

ChampSim completed all CPUs

[ROI Statistics]
Core_0_instructions 50000000
Core_0_cycles 272070284
Core_0_IPC 0.18378

Core_0_branch_prediction_accuracy 88.98054
Core_0_branch_MPKI 22.11052
Core_0_average_ROB_occupancy_at_mispredict 41.13463

Core_0_L1D_total_access 10824341
Core_0_L1D_total_hit 7020174
Core_0_L1D_total_miss 3804167
Core_0_L1D_loads 10581057
Core_0_L1D_load_hit 6776890
Core_0_L1D_load_miss 3804167
Core_0_L1D_RFOs 243284
Core_0_L1D_RFO_hit 243284
Core_0_L1D_RFO_miss 0
Core_0_L1D_prefetches 0
Core_0_L1D_prefetch_hit 0
Core_0_L1D_prefetch_miss 0
Core_0_L1D_writebacks 0
Core_0_L1D_writeback_hit 0
Core_0_L1D_writeback_miss 0
Core_0_L1D_prefetch_requested 0
Core_0_L1D_prefetch_dropped 0
Core_0_L1D_prefetch_issued 0
Core_0_L1D_prefetch_filled 0
Core_0_L1D_prefetch_useful 0
Core_0_L1D_prefetch_useless 0
Core_0_L1D_prefetch_late 0
Core_0_L1D_average_miss_latency 78.44872

Core_0_L1D_rq_access 13613324
Core_0_L1D_rq_forward 0
Core_0_L1D_rq_merged 2873664
Core_0_L1D_rq_to_cache 10739660
Core_0_L1D_rq_full 0

Core_0_L1D_wq_access 243284
Core_0_L1D_wq_forward 0
Core_0_L1D_wq_merged 0
Core_0_L1D_wq_to_cache 243284
Core_0_L1D_wq_full 0

Core_0_L1D_pq_access 0
Core_0_L1D_pq_forward 0
Core_0_L1D_pq_merged 0
Core_0_L1D_pq_to_cache 0
Core_0_L1D_pq_full 0

Core_0_L1D_acc_epochs 275765
Core_0_L1D_acc_level_0 275765
Core_0_L1D_acc_level_1 0
Core_0_L1D_acc_level_2 0
Core_0_L1D_acc_level_3 0
Core_0_L1D_acc_level_4 0
Core_0_L1D_acc_level_5 0
Core_0_L1D_acc_level_6 0
Core_0_L1D_acc_level_7 0
Core_0_L1D_acc_level_8 0
Core_0_L1D_acc_level_9 0

Core_0_L1I_total_access 9666870
Core_0_L1I_total_hit 9666870
Core_0_L1I_total_miss 0
Core_0_L1I_loads 9666870
Core_0_L1I_load_hit 9666870
Core_0_L1I_load_miss 0
Core_0_L1I_RFOs 0
Core_0_L1I_RFO_hit 0
Core_0_L1I_RFO_miss 0
Core_0_L1I_prefetches 0
Core_0_L1I_prefetch_hit 0
Core_0_L1I_prefetch_miss 0
Core_0_L1I_writebacks 0
Core_0_L1I_writeback_hit 0
Core_0_L1I_writeback_miss 0
Core_0_L1I_prefetch_requested 0
Core_0_L1I_prefetch_dropped 0
Core_0_L1I_prefetch_issued 0
Core_0_L1I_prefetch_filled 0
Core_0_L1I_prefetch_useful 0
Core_0_L1I_prefetch_useless 0
Core_0_L1I_prefetch_late 0
Core_0_L1I_average_miss_latency -nan

Core_0_L1I_rq_access 49999992
Core_0_L1I_rq_forward 0
Core_0_L1I_rq_merged 40333122
Core_0_L1I_rq_to_cache 9666870
Core_0_L1I_rq_full 0

Core_0_L1I_wq_access 0
Core_0_L1I_wq_forward 0
Core_0_L1I_wq_merged 0
Core_0_L1I_wq_to_cache 0
Core_0_L1I_wq_full 0

Core_0_L1I_pq_access 0
Core_0_L1I_pq_forward 0
Core_0_L1I_pq_merged 0
Core_0_L1I_pq_to_cache 0
Core_0_L1I_pq_full 0

Core_0_L1I_acc_epochs 275765
Core_0_L1I_acc_level_0 275765
Core_0_L1I_acc_level_1 0
Core_0_L1I_acc_level_2 0
Core_0_L1I_acc_level_3 0
Core_0_L1I_acc_level_4 0
Core_0_L1I_acc_level_5 0
Core_0_L1I_acc_level_6 0
Core_0_L1I_acc_level_7 0
Core_0_L1I_acc_level_8 0
Core_0_L1I_acc_level_9 0

Core_0_L2C_total_access 8436479
Core_0_L2C_total_hit 2405351
Core_0_L2C_total_miss 6031128
Core_0_L2C_loads 3804167
Core_0_L2C_load_hit 783604
Core_0_L2C_load_miss 3020563
Core_0_L2C_RFOs 0
Core_0_L2C_RFO_hit 0
Core_0_L2C_RFO_miss 0
Core_0_L2C_prefetches 4422866
Core_0_L2C_prefetch_hit 1412856
Core_0_L2C_prefetch_miss 3010010
Core_0_L2C_writebacks 209446
Core_0_L2C_writeback_hit 208891
Core_0_L2C_writeback_miss 555
Core_0_L2C_prefetch_requested 5394112
Core_0_L2C_prefetch_dropped 8
Core_0_L2C_prefetch_issued 5394104
Core_0_L2C_prefetch_filled 3560678
Core_0_L2C_prefetch_useful 414045
Core_0_L2C_prefetch_useless 3144856
Core_0_L2C_prefetch_late 16100
Core_0_L2C_average_miss_latency 91.39498

Core_0_L2C_rq_access 3804167
Core_0_L2C_rq_forward 0
Core_0_L2C_rq_merged 0
Core_0_L2C_rq_to_cache 3804167
Core_0_L2C_rq_full 0

Core_0_L2C_wq_access 209446
Core_0_L2C_wq_forward 0
Core_0_L2C_wq_merged 0
Core_0_L2C_wq_to_cache 209446
Core_0_L2C_wq_full 0

Core_0_L2C_pq_access 5394104
Core_0_L2C_pq_forward 0
Core_0_L2C_pq_merged 105991
Core_0_L2C_pq_to_cache 5288113
Core_0_L2C_pq_full 0

Core_0_L2C_acc_epochs 275765
Core_0_L2C_acc_level_0 116168
Core_0_L2C_acc_level_1 136955
Core_0_L2C_acc_level_2 19318
Core_0_L2C_acc_level_3 2579
Core_0_L2C_acc_level_4 389
Core_0_L2C_acc_level_5 247
Core_0_L2C_acc_level_6 33
Core_0_L2C_acc_level_7 24
Core_0_L2C_acc_level_8 16
Core_0_L2C_acc_level_9 36

Core_0_LLC_total_access 6239935
Core_0_LLC_total_hit 4193326
Core_0_LLC_total_miss 2046609
Core_0_LLC_loads 3005146
Core_0_LLC_load_hit 2137710
Core_0_LLC_load_miss 867436
Core_0_LLC_RFOs 0
Core_0_LLC_RFO_hit 0
Core_0_LLC_RFO_miss 0
Core_0_LLC_prefetches 3025427
Core_0_LLC_prefetch_hit 1848846
Core_0_LLC_prefetch_miss 1176581
Core_0_LLC_writebacks 209362
Core_0_LLC_writeback_hit 206770
Core_0_LLC_writeback_miss 2592
Core_0_LLC_prefetch_requested 0
Core_0_LLC_prefetch_dropped 0
Core_0_LLC_prefetch_issued 0
Core_0_LLC_prefetch_filled 1388058
Core_0_LLC_prefetch_useful 174633
Core_0_LLC_prefetch_useless 1204372
Core_0_LLC_prefetch_late 0
Core_0_LLC_average_miss_latency 181.28661

Core_0_LLC_rq_access 3005146
Core_0_LLC_rq_forward 0
Core_0_LLC_rq_merged 0
Core_0_LLC_rq_to_cache 3005146
Core_0_LLC_rq_full 0

Core_0_LLC_wq_access 209362
Core_0_LLC_wq_forward 0
Core_0_LLC_wq_merged 0
Core_0_LLC_wq_to_cache 209362
Core_0_LLC_wq_full 0

Core_0_LLC_pq_access 3576778
Core_0_LLC_pq_forward 0
Core_0_LLC_pq_merged 0
Core_0_LLC_pq_to_cache 3576778
Core_0_LLC_pq_full 0

Core_0_LLC_acc_epochs 276119
Core_0_LLC_acc_level_0 125404
Core_0_LLC_acc_level_1 76635
Core_0_LLC_acc_level_2 41220
Core_0_LLC_acc_level_3 17799
Core_0_LLC_acc_level_4 5106
Core_0_LLC_acc_level_5 6407
Core_0_LLC_acc_level_6 1756
Core_0_LLC_acc_level_7 537
Core_0_LLC_acc_level_8 296
Core_0_LLC_acc_level_9 959

Core_0_major_page_fault 0
Core_0_minor_page_fault 5303

scooby_st_lookup 4385662
scooby_st_hit 1644104
scooby_st_evict 2741494
scooby_st_insert 2741558
scooby_st_streaming 0

scooby_predict_called 4385662
scooby_predict_out_of_bounds 97218
scooby_predict_action_1 3624151
scooby_predict_issue_action_1 3621522
scooby_predict_hit_action_1 2629
scooby_predict_out_of_bounds_action_1 60999
scooby_predict_action_3 14029
scooby_predict_issue_action_3 13582
scooby_predict_hit_action_3 447
scooby_predict_out_of_bounds_action_3 1009
scooby_predict_action_4 13314
scooby_predict_issue_action_4 12984
scooby_predict_hit_action_4 330
scooby_predict_out_of_bounds_action_4 1349
scooby_predict_action_5 12657
scooby_predict_issue_action_5 12416
scooby_predict_hit_action_5 241
scooby_predict_out_of_bounds_action_5 1779
scooby_predict_action_10 9974
scooby_predict_issue_action_10 9741
scooby_predict_hit_action_10 233
scooby_predict_out_of_bounds_action_10 2931
scooby_predict_action_11 9713
scooby_predict_issue_action_11 9509
scooby_predict_hit_action_11 204
scooby_predict_out_of_bounds_action_11 3206
scooby_predict_action_12 9138
scooby_predict_issue_action_12 8882
scooby_predict_hit_action_12 256
scooby_predict_out_of_bounds_action_12 3407
scooby_predict_action_22 6000
scooby_predict_issue_action_22 5823
scooby_predict_hit_action_22 177
scooby_predict_out_of_bounds_action_22 4940
scooby_predict_action_23 5743
scooby_predict_issue_action_23 5529
scooby_predict_hit_action_23 214
scooby_predict_out_of_bounds_action_23 4956
scooby_predict_action_30 4011
scooby_predict_issue_action_30 3849
scooby_predict_hit_action_30 162
scooby_predict_out_of_bounds_action_30 5877
scooby_predict_action_32 3636
scooby_predict_issue_action_32 3513
scooby_predict_hit_action_32 123
scooby_predict_out_of_bounds_action_32 6118
scooby_predict_action_-1 13018
scooby_predict_issue_action_-1 12558
scooby_predict_hit_action_-1 460
scooby_predict_out_of_bounds_action_-1 89
scooby_predict_action_-3 12862
scooby_predict_issue_action_-3 12355
scooby_predict_hit_action_-3 507
scooby_predict_out_of_bounds_action_-3 185
scooby_predict_action_-6 12503
scooby_predict_issue_action_-6 12013
scooby_predict_hit_action_-6 490
scooby_predict_out_of_bounds_action_-6 373
scooby_predict_action_0 537695
scooby_predict_issue_action_0 0
scooby_predict_hit_action_0 0
scooby_predict_out_of_bounds_action_0 0
scooby_predict_multi_deg_called 516708
scooby_predict_predicted 5394112
scooby_predict_multi_deg 1649836
scooby_predict_multi_deg_2 505285
scooby_predict_multi_deg_3 344848
scooby_predict_multi_deg_4 336808
scooby_predict_multi_deg_5 234184
scooby_predict_multi_deg_6 228711
scooby_predict_multi_deg_7 0
scooby_predict_multi_deg_8 0
scooby_predict_multi_deg_9 0
scooby_predict_multi_deg_10 0
scooby_predict_multi_deg_11 0
scooby_predict_multi_deg_12 0
scooby_predict_multi_deg_13 0
scooby_predict_multi_deg_14 0
scooby_predict_multi_deg_15 0
scooby_predict_multi_deg_16 0

scooby_selected_deg_1 3227568
scooby_selected_deg_2 156732
scooby_selected_deg_3 0
scooby_selected_deg_4 104102
scooby_selected_deg_5 0
scooby_selected_deg_6 255874
scooby_selected_deg_7 0
scooby_selected_deg_8 0
scooby_selected_deg_9 0
scooby_selected_deg_10 0
scooby_selected_deg_11 0
scooby_selected_deg_12 0
scooby_selected_deg_13 0
scooby_selected_deg_14 0
scooby_selected_deg_15 0
scooby_selected_deg_16 0

scooby_state_55cf028a1266|4|0 55293,18,17,13,13,16,22,13,8,8,15,10,15,12,9345,64818,
scooby_state_55cf028a1266|0|0 53590,18,11,9,15,9,13,15,21,12,11,12,9,8,10100,63853,
scooby_state_55cf028a1266|2|0 47807,12,12,9,13,11,7,13,13,7,7,12,18,15,8451,56407,
scooby_state_55cf028a1266|6|0 47997,11,7,13,15,15,14,14,6,17,14,16,5,12,8023,56179,
scooby_state_55cf028a1266|1|0 46276,9,13,12,8,12,7,12,14,11,15,14,13,13,8617,55046,
scooby_state_55cf028a1266|9|0 47094,9,12,14,11,8,9,16,19,17,17,10,11,13,7419,54679,
scooby_state_55cf028a1266|3|0 45502,10,11,8,12,13,11,10,7,9,9,10,11,7,8245,53875,
scooby_state_55cf028a1266|7|0 46090,11,6,13,9,10,14,6,10,15,7,13,11,8,7603,53826,
scooby_state_55cf028a1266|8|0 42319,20,8,14,12,16,18,11,13,13,8,12,7,7,6976,49454,
scooby_state_55cf028a1266|5|0 41558,12,13,13,12,6,6,12,7,7,9,13,8,8,7145,48829,
scooby_state_55cf028a1266|15|0 41756,8,9,11,9,9,11,12,9,15,15,11,11,8,6273,48167,
scooby_state_55cf028a1266|17|0 41339,11,12,9,10,12,8,11,14,3,15,12,15,11,6060,47542,
scooby_state_55cf028a1266|11|0 40859,17,14,15,10,11,8,12,12,5,10,10,10,6,6360,47359,
scooby_state_55cf028a1266|12|0 40380,8,13,8,8,5,10,10,8,7,9,3,8,11,6219,46707,
scooby_state_55cf028a1266|10|0 40269,8,7,12,10,10,8,16,8,6,9,9,10,13,6296,46691,
scooby_state_55cf028a1266|25|0 40794,6,10,5,8,6,12,9,7,15,5,4,10,10,5712,46613,
scooby_state_55cf028a1266|16|0 40033,7,6,9,11,9,13,13,19,11,12,11,10,4,5995,46163,
scooby_state_55cf028a1266|13|0 39387,10,16,10,13,8,5,9,9,7,7,10,10,17,6220,45738,
scooby_state_55cf028a1266|20|0 38934,7,10,6,9,7,11,15,8,6,4,7,8,8,5640,44680,
scooby_state_55cf028a1266|18|0 38637,6,8,10,13,9,8,12,6,11,12,15,8,8,5746,44509,
scooby_state_55cf028a1266|19|0 38376,11,6,6,11,8,4,8,4,11,6,6,8,14,5636,44115,
scooby_state_55cf028a1266|14|0 37668,13,8,10,8,17,7,6,7,1,8,8,6,14,5718,43499,
scooby_state_55cf028a1266|21|0 36846,8,9,11,13,4,8,7,9,9,9,8,9,22,5206,42178,
scooby_state_55cf028a1266|32|0 36890,8,10,5,13,12,11,5,12,4,14,13,8,5,5118,42128,
scooby_state_55cf028a1266|33|0 36934,10,11,12,3,3,11,7,4,10,8,12,8,11,5044,42088,
scooby_state_55cf028a1266|26|0 36705,12,1,13,8,11,3,8,8,9,4,7,10,10,5210,42019,
scooby_state_55cf028a1266|22|0 36315,8,9,14,7,11,4,10,7,6,9,9,7,6,5068,41490,
scooby_state_55cf028a1266|27|0 35697,8,5,7,2,5,17,6,15,6,9,10,12,8,4981,40788,
scooby_state_55cf028a1266|24|0 34764,12,10,3,4,8,7,6,8,5,6,5,11,6,5051,39906,
scooby_state_55cf028a1266|23|0 34531,6,2,9,6,13,11,10,4,5,7,5,10,5,4878,39502,
scooby_state_55cf028a1266|52|0 34815,10,12,10,9,9,9,4,6,8,9,9,7,8,4547,39472,
scooby_state_55cf028a1266|28|0 34436,8,10,12,8,7,10,9,11,7,5,12,8,10,4740,39293,
scooby_state_55cf028a1266|41|0 34415,13,6,9,11,8,7,14,10,6,12,16,9,7,4549,39092,
scooby_state_55cf028a1266|30|0 34193,1,7,10,7,10,6,6,12,6,6,5,11,9,4667,38956,
scooby_state_55cf028a1266|34|0 34121,8,11,3,9,8,10,7,10,4,13,2,8,13,4579,38806,
scooby_state_55cf028a1266|29|0 34023,8,13,10,5,10,6,11,14,8,16,9,3,9,4629,38774,
scooby_state_55cf028a1266|36|0 34083,6,7,7,6,6,9,10,9,3,9,5,11,5,4489,38665,
scooby_state_55cf028a1266|37|0 33877,6,9,6,10,8,9,6,11,5,4,6,7,14,4590,38568,
scooby_state_55cf028a1266|51|0 34113,6,11,7,8,5,7,9,5,13,9,8,10,8,4325,38544,
scooby_state_55cf028a1266|49|0 33476,8,5,8,14,9,12,9,6,9,6,11,8,7,4364,37952,
scooby_state_55cf028a1266|42|0 33047,9,10,8,12,6,9,4,10,6,11,3,7,12,4362,37516,
scooby_state_55cf028a1266|45|0 32809,9,9,7,10,6,11,11,10,9,7,7,7,12,4355,37279,
scooby_state_55cf028a1266|59|0 32851,17,7,6,14,5,8,4,6,6,13,8,10,9,4033,36997,
scooby_state_55cf028a1266|47|0 32708,9,8,8,11,6,8,3,14,7,9,10,4,9,4165,36979,
scooby_state_55cf028a1266|63|0 32055,7,8,6,5,6,6,3,4,6,6,9,5,10,4084,36220,
scooby_state_55cf028a1266|39|0 31411,7,12,7,10,6,7,9,6,6,10,3,8,6,4068,35576,
scooby_state_55cf028a1266|31|0 30905,6,5,7,12,11,9,5,6,9,7,6,3,5,4265,35261,
scooby_state_55cf028a1266|35|0 30788,5,9,6,5,10,8,6,15,5,4,10,8,7,4144,35030,
scooby_state_55cf028a1266|44|0 30666,14,7,9,9,10,6,5,7,9,3,12,4,8,3941,34710,
scooby_state_55cf028a1266|50|0 30191,5,8,6,6,9,9,9,8,4,8,13,4,6,3914,34200,
scooby_state_55cf028a1266|40|0 30078,8,8,5,5,10,6,6,11,9,3,5,7,10,4015,34186,
scooby_state_55cf028a1266|38|0 29988,5,3,3,5,11,7,6,9,7,6,6,8,6,4110,34180,
scooby_state_55cf028a1266|55|0 29940,10,7,6,8,6,3,9,9,10,3,7,3,8,4001,34030,
scooby_state_55cf028a1266|58|0 30162,7,9,9,5,9,13,7,7,9,6,2,9,14,3679,33947,
scooby_state_55cf028a1266|48|0 29990,4,8,5,8,5,6,13,6,7,8,6,9,11,3830,33916,
scooby_state_55cf028a1266|61|0 29880,5,8,7,5,5,11,12,2,6,8,6,7,10,3704,33676,
scooby_state_55cf028a1266|46|0 29528,4,11,15,10,4,8,9,7,6,6,3,10,7,3966,33594,
scooby_state_55cf028a1266|43|0 29561,4,9,7,5,6,8,7,4,4,13,12,6,5,3817,33468,
scooby_state_55cf028a1266|57|0 29597,6,5,8,6,7,5,8,7,8,6,9,6,4,3718,33400,
scooby_state_55cf028a1266|53|0 28645,5,5,3,5,3,4,8,10,4,5,5,10,4,3612,32328,
scooby_state_55cf028a1266|60|0 28538,13,11,7,11,6,7,7,7,5,4,5,10,6,3610,32247,
scooby_state_55cf028a1266|54|0 27163,13,5,4,5,12,10,3,10,5,7,8,7,6,3467,30725,
scooby_state_55cf028a1266|56|0 26766,3,4,8,6,8,8,8,4,8,5,5,3,7,3470,30313,
scooby_state_55cf028a1266|62|0 26463,6,3,4,5,5,7,7,7,4,5,4,8,10,3244,29782,
scooby_state_55cf028a1260|8|1 3963,0,0,0,0,0,0,1,0,0,0,1,2,0,1,3968,
scooby_state_55cf028a1260|0|0 3959,2,0,2,0,1,1,1,1,0,1,0,0,0,0,3968,
scooby_state_55cf028a1260|3|1 3964,0,0,0,1,0,0,1,0,0,0,1,0,0,1,3968,
scooby_state_55cf028a1260|6|1 3961,1,1,1,1,0,0,0,0,0,0,2,1,0,0,3968,
scooby_state_55cf028a1260|5|1 3962,0,2,0,1,1,0,0,0,0,0,0,0,1,1,3968,
scooby_state_55cf028a1260|4|1 3959,1,0,2,0,0,0,0,0,1,1,0,2,1,1,3968,
scooby_state_55cf028a1260|1|1 3964,1,0,0,0,1,1,0,0,0,0,0,0,0,1,3968,
scooby_state_55cf028a1260|7|1 3964,0,0,0,0,0,1,0,0,0,1,1,1,0,0,3968,
scooby_state_55cf028a1260|2|1 3962,0,1,0,0,0,0,1,1,1,0,0,1,0,1,3968,
scooby_state_55cf028a1260|20|1 3961,0,0,1,1,1,0,0,0,1,0,0,0,2,0,3967,
scooby_state_55cf028a1260|19|1 3958,1,0,1,0,0,1,1,0,0,1,1,1,1,1,3967,
scooby_state_55cf028a1260|25|1 3965,0,0,0,0,0,0,0,1,0,1,0,0,0,0,3967,
scooby_state_55cf028a1260|50|1 3963,0,1,0,0,0,0,0,0,1,0,1,0,0,1,3967,
scooby_state_55cf028a1260|17|1 3958,1,1,0,1,0,2,1,0,0,0,1,1,0,1,3967,
scooby_state_55cf028a1260|51|1 3959,1,0,0,2,0,1,1,0,0,1,0,0,1,1,3967,
scooby_state_55cf028a1260|55|1 3959,2,0,1,0,1,0,0,0,2,0,1,1,0,0,3967,
scooby_state_55cf028a1260|53|1 3964,0,0,0,0,0,2,0,0,0,0,1,0,0,0,3967,
scooby_state_55cf028a1260|62|1 3966,0,0,0,0,0,0,0,0,0,0,0,0,0,1,3967,
scooby_state_55cf028a1260|24|1 3960,1,0,1,0,0,0,0,1,0,1,0,1,0,2,3967,
scooby_state_55cf028a1260|57|1 3960,1,0,2,2,0,0,0,0,0,1,0,0,1,0,3967,
scooby_state_55cf028a1260|37|1 3963,0,1,0,0,0,2,0,0,0,0,0,1,0,0,3967,
scooby_state_55cf028a1260|58|1 3957,1,0,1,0,2,0,0,1,1,2,0,1,1,0,3967,
scooby_state_55cf028a1260|56|1 3964,0,0,0,1,0,1,0,1,0,0,0,0,0,0,3967,
scooby_state_55cf028a1260|47|1 3955,0,2,0,0,1,1,0,0,0,1,4,1,1,1,3967,
scooby_state_55cf028a1260|54|1 3961,0,1,0,0,0,1,0,1,1,0,0,1,0,1,3967,
scooby_state_55cf028a1260|12|1 3958,0,1,0,1,0,1,1,0,2,0,0,1,0,2,3967,
scooby_state_55cf028a1260|33|1 3960,1,2,0,1,0,1,0,0,0,0,0,1,0,1,3967,
scooby_state_55cf028a1260|18|1 3960,1,1,0,1,1,1,1,0,0,0,0,0,1,0,3967,
scooby_state_55cf028a1260|13|1 3961,1,0,0,1,0,0,1,1,1,0,1,0,0,0,3967,
scooby_state_55cf028a1260|23|1 3961,1,0,0,1,0,1,2,0,0,0,0,1,0,0,3967,
scooby_state_55cf028a1260|9|1 3962,1,0,1,2,0,1,0,0,0,0,0,0,0,0,3967,
scooby_state_55cf028a1260|44|1 3960,0,2,0,1,1,1,0,0,1,1,0,0,0,0,3967,
scooby_state_55cf028a1260|28|1 3960,3,1,1,0,0,1,0,0,0,0,0,1,0,0,3967,
scooby_state_55cf028a1260|27|1 3954,0,1,2,1,1,1,1,1,2,0,0,2,0,1,3967,
scooby_state_55cf028a1260|11|1 3959,1,1,0,1,0,2,0,0,0,1,0,2,0,0,3967,
scooby_state_55cf028a1260|48|1 3956,0,1,1,1,0,1,0,1,1,1,0,3,0,1,3967,
scooby_state_55cf028a1260|34|1 3958,1,0,1,0,1,1,2,0,0,0,0,1,1,1,3967,
scooby_state_55cf028a1260|32|1 3956,0,0,0,1,1,4,0,2,0,0,1,1,0,1,3967,
scooby_state_55cf028a1260|39|1 3960,1,1,0,0,0,1,0,1,0,2,0,0,0,1,3967,
scooby_state_55cf028a1260|16|1 3960,1,1,0,0,0,0,2,0,1,0,0,0,2,0,3967,
scooby_state_55cf028a1260|59|1 3958,0,0,0,0,0,3,1,0,1,0,1,2,0,1,3967,
scooby_state_55cf028a1260|29|1 3962,0,0,0,1,1,0,0,0,0,0,0,2,1,0,3967,
scooby_state_55cf028a1260|22|1 3961,0,0,0,0,0,1,0,0,2,2,0,0,0,1,3967,
scooby_state_55cf028a1260|61|1 3962,0,1,0,1,0,0,0,1,1,0,1,0,0,0,3967,
scooby_state_55cf028a1260|35|1 3963,1,0,0,0,0,0,0,2,0,0,0,0,0,1,3967,
scooby_state_55cf028a1260|52|1 3962,0,0,0,0,0,0,1,0,2,1,0,0,1,0,3967,
scooby_state_55cf028a1260|31|1 3962,0,0,0,0,0,0,1,0,3,1,0,0,0,0,3967,
scooby_state_55cf028a1260|41|1 3960,1,0,1,0,0,0,2,0,0,0,0,2,0,1,3967,
scooby_state_55cf028a1260|30|1 3959,1,0,1,2,0,1,0,0,1,0,1,1,0,0,3967,
scooby_state_55cf028a1260|26|1 3961,0,0,1,0,0,2,0,0,1,0,0,0,2,0,3967,
scooby_state_55cf028a1260|40|1 3953,1,3,1,0,0,2,3,0,0,0,2,0,0,2,3967,
scooby_state_55cf028a1260|38|1 3956,1,2,0,0,1,0,0,0,0,3,2,1,1,0,3967,
scooby_state_55cf028a1260|45|1 3959,3,0,1,0,1,0,1,0,0,0,0,1,1,0,3967,
scooby_state_55cf028a1260|42|1 3963,0,1,1,0,1,0,0,0,0,0,0,1,0,0,3967,
scooby_state_55cf028a1260|10|1 3963,0,0,0,0,0,0,0,0,2,1,0,0,1,0,3967,
scooby_state_55cf028a1260|63|1 3961,0,0,1,0,1,0,0,1,1,1,1,0,0,0,3967,
scooby_state_55cf028a1260|43|1 3960,1,0,0,0,0,0,0,0,0,0,1,1,3,1,3967,
scooby_state_55cf028a1260|36|1 3964,0,0,1,0,0,0,0,0,0,0,0,1,1,0,3967,
scooby_state_55cf028a1260|46|1 3962,0,0,0,0,0,0,2,0,0,1,0,1,1,0,3967,
scooby_state_55cf028a1260|15|1 3960,1,0,1,0,0,1,0,0,1,0,2,1,0,0,3967,
scooby_state_55cf028a1260|21|1 3960,1,2,0,0,0,0,1,0,0,0,0,1,2,0,3967,
scooby_state_55cf028a1260|14|1 3952,1,2,1,1,2,1,0,0,3,0,2,0,0,2,3967,
scooby_state_55cf028a1260|49|1 3958,0,3,0,0,1,0,0,1,0,1,0,1,0,2,3967,
scooby_state_55cf028a1260|60|1 3957,1,1,0,0,0,1,1,1,1,0,1,0,0,3,3967,
scooby_state_55cf028a127b|38|0 2167,4,6,8,5,9,5,8,4,5,7,5,7,5,425,2670,
scooby_state_55cf028a127b|25|0 2129,6,5,6,8,4,3,4,3,3,6,10,8,2,375,2572,
scooby_state_55cf028a127b|49|0 1955,6,11,4,4,7,5,7,5,3,3,9,13,10,453,2495,
scooby_state_55cf028a127b|24|0 1880,6,6,8,8,4,8,3,2,5,4,4,7,4,396,2345,
scooby_state_55cf028a127b|59|0 1820,11,6,5,3,9,4,2,5,3,4,3,6,3,386,2270,
scooby_state_55cf028a127b|16|0 1651,2,5,2,8,4,7,7,4,2,3,6,5,6,347,2059,
scooby_state_55cf028a1266|59|1 1499,10,12,11,5,11,9,9,4,6,3,6,10,3,407,2005,
scooby_state_55cf028a127b|19|0 1654,3,3,5,6,2,6,4,3,4,5,10,8,5,283,2001,
scooby_state_55cf028a1266|52|1 1495,8,13,7,3,9,5,3,6,1,9,3,11,11,416,2000,
scooby_state_55cf028a1266|7|1 1526,10,9,8,2,8,5,7,2,1,7,4,5,5,388,1987,
scooby_state_55cf028a1240|27|0 1081,54,56,54,57,59,55,57,57,58,51,61,57,60,134,1951,
scooby_state_55cf028a127b|35|0 1516,7,11,7,9,2,2,3,4,1,4,5,4,7,350,1932,
scooby_state_55cf028a1266|16|1 1463,7,9,8,9,4,2,3,0,6,5,1,7,5,391,1920,
scooby_state_55cf028a1266|47|1 1474,4,12,14,1,7,3,9,6,4,4,4,4,2,371,1919,
scooby_state_55cf028a1266|8|1 1479,6,9,9,6,2,5,6,4,4,2,6,3,3,357,1901,
scooby_state_55cf028a1266|26|1 1418,8,11,13,3,12,5,5,5,3,2,2,3,7,398,1895,
scooby_state_55cf028a1266|5|1 1439,6,11,4,5,10,4,7,4,6,9,7,5,1,338,1856,
scooby_state_55cf028a1266|20|1 1425,6,9,11,4,3,2,4,8,4,4,3,6,3,364,1856,
scooby_state_55cf028a1266|60|1 1402,7,12,9,7,6,11,4,7,4,9,4,4,7,351,1844,
scooby_state_55cf028a1266|53|1 1387,11,9,6,5,6,8,3,3,1,3,8,5,3,381,1839,
scooby_state_55cf028a1266|9|1 1419,5,9,10,10,4,3,2,3,8,7,5,2,3,346,1836,
scooby_state_55cf028a127b|37|0 1497,4,4,5,2,4,9,0,3,6,0,3,3,4,284,1828,
scooby_state_55cf028a1266|12|1 1382,9,10,9,5,5,4,7,4,3,3,7,5,6,352,1811,
scooby_state_55cf028a1266|63|1 1379,8,11,8,5,1,6,5,7,2,6,2,6,5,353,1804,
scooby_state_55cf028a1266|23|1 1409,5,11,5,6,4,7,5,9,6,1,4,6,2,323,1803,
scooby_state_55cf028a1266|49|1 1374,9,12,2,5,8,5,3,6,2,3,5,7,3,359,1803,
scooby_state_55cf028a1266|4|1 1377,10,14,9,7,5,5,5,5,2,4,1,4,5,341,1794,
scooby_state_55cf028a1266|48|1 1353,9,6,11,9,8,4,8,1,1,4,2,6,5,362,1789,
scooby_state_55cf028a1266|2|1 1380,5,8,8,6,7,0,2,5,3,5,3,2,4,340,1778,
scooby_state_55cf028a1266|15|1 1371,8,6,4,7,2,6,6,1,2,5,3,1,6,344,1772,
scooby_state_55cf028a1266|33|1 1337,8,11,7,2,7,2,5,2,1,0,3,7,6,366,1764,
scooby_state_55cf028a1266|45|1 1333,5,9,9,5,12,8,14,4,7,6,5,3,4,336,1760,
scooby_state_55cf028a1266|58|1 1317,10,12,8,4,9,7,2,2,2,6,6,4,8,361,1758,
scooby_state_55cf028a1266|10|1 1360,11,6,8,0,5,2,8,6,4,3,3,4,3,335,1758,
scooby_state_55cf028a1266|18|1 1380,9,12,7,6,1,3,5,3,4,1,3,4,3,315,1756,
scooby_state_55cf028a1266|13|1 1327,8,7,4,4,4,4,0,6,4,4,4,5,4,363,1748,
scooby_state_55cf028a1266|34|1 1342,7,6,13,5,8,2,7,7,5,3,4,2,2,333,1746,
scooby_state_55cf028a1266|50|1 1343,8,12,13,4,2,3,2,3,1,3,5,4,2,340,1745,
scooby_state_55cf028a127b|52|0 1415,1,3,4,6,6,3,6,3,3,3,5,6,3,278,1745,
scooby_state_55cf028a1266|37|1 1340,7,11,10,3,6,5,4,0,2,6,5,4,5,331,1739,
scooby_state_55cf028a1266|41|1 1346,5,11,11,3,1,4,1,5,3,2,8,2,4,332,1738,
scooby_state_55cf028a1266|30|1 1340,6,8,4,7,4,2,3,3,3,4,5,4,4,333,1730,
scooby_state_55cf028a1266|54|1 1306,6,13,10,3,5,4,4,3,6,3,6,4,3,347,1723,
scooby_state_55cf028a1266|46|1 1300,8,8,10,2,9,3,5,4,2,6,6,4,3,353,1723,
scooby_state_55cf028a1266|42|1 1265,8,9,12,5,4,5,4,3,1,6,6,6,7,376,1717,
scooby_state_55cf028a1266|51|2 1199,13,7,8,10,7,3,2,9,6,5,6,6,5,414,1700,
scooby_state_55cf028a1266|4|2 1270,10,4,4,11,8,2,8,2,5,4,5,7,10,341,1691,
scooby_state_55cf028a1266|28|1 1295,6,8,5,6,6,4,4,5,1,7,3,2,3,329,1684,
scooby_state_55cf028a1266|62|1 1248,8,6,11,5,2,6,5,8,4,0,5,3,7,364,1682,
scooby_state_55cf028a1266|22|1 1299,8,18,4,7,7,7,7,3,3,4,5,6,3,297,1678,
scooby_state_55cf028a1266|27|1 1301,10,11,4,5,7,6,4,4,2,4,6,2,6,302,1674,
scooby_state_55cf028a1266|21|1 1293,7,6,8,1,7,5,4,3,4,3,7,1,2,310,1661,
scooby_state_55cf028a1266|22|3 1246,4,8,9,5,9,3,5,13,2,7,4,7,4,335,1661,
scooby_state_55cf028a1266|19|1 1243,5,9,13,4,5,5,4,4,2,0,5,4,6,351,1660,
scooby_state_55cf028a1266|17|1 1292,6,7,7,5,3,5,4,7,3,3,7,3,3,301,1656,
scooby_state_55cf028a127b|0|0 1318,6,5,4,5,1,6,1,2,5,6,4,2,6,283,1654,
scooby_state_55cf028a1266|36|1 1289,5,6,6,4,7,3,4,1,4,1,6,1,3,310,1650,
scooby_state_55cf028a1266|32|1 1260,6,9,7,6,4,2,7,1,2,4,4,4,4,327,1647,
scooby_state_55cf028a1266|34|2 1220,6,10,6,8,8,9,2,3,0,2,5,5,7,354,1645,
scooby_state_55cf028a1266|11|1 1250,7,12,7,4,6,1,4,4,5,6,4,3,3,325,1641,
scooby_state_55cf028a1266|38|1 1234,7,9,12,5,13,2,5,2,8,4,3,11,3,320,1638,
scooby_state_55cf028a1266|43|1 1228,7,12,5,9,5,1,8,6,6,1,8,5,4,326,1631,
scooby_state_55cf028a1266|39|1 1250,7,11,9,2,3,3,7,3,7,4,2,4,2,315,1629,
scooby_state_55cf028a1266|9|2 1238,8,1,5,6,14,4,3,9,3,3,4,3,4,314,1619,
scooby_state_55cf028a1266|6|1 1228,9,7,6,6,5,6,2,4,2,4,9,2,4,325,1619,
scooby_state_55cf028a1266|57|1 1210,7,8,11,2,3,4,6,4,0,2,10,5,3,333,1608,
scooby_state_55cf028a1266|1|1 1240,5,13,6,5,5,4,3,3,4,3,6,3,4,304,1608,
scooby_state_55cf028a1266|27|2 1216,2,10,6,7,11,1,5,4,5,4,4,8,1,321,1605,
scooby_state_55cf028a1266|24|1 1242,2,16,5,4,2,2,4,1,6,2,2,5,5,300,1598,
scooby_state_55cf028a1266|54|2 1195,6,10,15,7,6,5,2,3,3,6,6,7,1,326,1598,
scooby_state_55cf028a1266|31|1 1206,5,10,5,1,6,8,5,2,5,3,4,4,4,317,1585,
scooby_state_55cf028a1266|22|2 1185,11,9,4,6,4,5,5,2,2,7,6,3,3,332,1584,
scooby_state_55cf028a1266|3|1 1199,5,13,7,8,6,3,2,1,2,2,2,3,8,319,1580,
scooby_state_55cf028a1266|32|2 1176,5,7,4,9,8,4,6,3,2,6,3,8,5,333,1579,
scooby_state_55cf028a1266|35|1 1215,4,8,7,4,3,5,5,3,1,4,3,3,1,311,1577,
scooby_state_55cf028a1266|41|2 1183,9,8,6,10,7,2,5,1,4,3,11,6,4,317,1576,
scooby_state_55cf028a1266|14|1 1255,6,4,3,6,0,4,0,5,3,6,3,4,1,267,1567,
scooby_state_55cf028a1266|18|2 1143,5,6,9,5,12,8,2,2,3,5,6,4,3,354,1567,
scooby_state_55cf028a1266|47|2 1196,11,5,5,8,5,4,4,3,6,5,3,3,3,304,1565,
scooby_state_55cf028a1266|51|1 1163,5,9,8,4,6,3,4,1,5,7,3,4,4,333,1559,
scooby_state_55cf028a1266|29|1 1183,8,11,6,6,5,2,6,3,6,2,6,4,4,307,1559,
scooby_state_55cf028a127b|11|0 1302,2,2,2,5,1,3,0,3,3,2,3,4,3,223,1558,
scooby_state_55cf028a1266|57|2 1131,11,6,11,3,12,5,7,6,6,3,4,3,7,342,1557,
scooby_state_55cf028a1266|6|2 1153,4,7,5,6,5,5,3,5,2,3,6,3,5,339,1551,
scooby_state_55cf028a1266|52|2 1161,7,7,10,5,6,4,5,6,6,4,7,5,0,313,1546,
scooby_state_55cf028a1266|8|2 1150,7,9,8,5,5,4,8,4,3,4,5,3,3,324,1542,
scooby_state_55cf028a1266|36|2 1163,4,4,2,6,5,5,5,6,7,1,4,3,3,320,1538,
scooby_state_55cf028a1266|61|1 1164,7,6,12,7,6,7,7,5,2,4,4,9,6,292,1538,
scooby_state_55cf028a1266|28|2 1152,2,7,9,9,5,3,4,8,6,2,8,7,4,310,1536,
scooby_state_55cf028a1266|55|1 1165,5,8,5,3,4,5,8,6,2,7,4,6,3,304,1535,
scooby_state_55cf028a1266|42|2 1156,7,4,7,10,11,1,4,4,3,4,4,0,2,318,1535,
scooby_state_55cf028a1266|40|1 1151,6,10,12,4,6,8,4,3,6,2,3,3,5,306,1529,
scooby_state_55cf028a1266|44|1 1192,4,7,4,1,7,4,2,2,2,1,4,3,3,291,1527,
scooby_state_55cf028a1266|52|3 1102,4,11,10,8,5,2,5,4,2,3,3,6,11,351,1527,
scooby_state_55cf028a127b|1|0 1224,2,4,2,5,3,2,2,1,1,3,6,6,3,261,1525,
scooby_state_55cf028a1266|58|3 1151,9,4,9,10,2,6,4,2,2,5,3,2,6,310,1525,
scooby_state_55cf028a1266|11|2 1166,8,5,4,6,7,4,4,1,2,2,3,9,4,292,1517,
scooby_state_55cf028a1266|26|2 1154,12,6,2,7,12,5,4,4,4,3,5,2,0,292,1512,
scooby_state_55cf028a1266|25|1 1159,7,11,7,4,0,3,5,1,2,5,3,2,4,298,1511,
scooby_state_55cf028a1266|25|2 1135,4,7,6,3,5,10,6,3,2,2,7,5,3,313,1511,
scooby_state_55cf028a1266|60|2 1084,6,13,8,4,10,5,3,2,5,3,7,4,7,348,1509,
scooby_state_55cf028a1266|7|2 1131,6,4,6,3,7,5,5,3,2,1,7,3,5,321,1509,
scooby_state_55cf028a1266|33|2 1118,10,7,10,8,9,6,4,5,4,0,1,6,4,314,1506,
scooby_state_55cf028a1266|61|2 1114,11,6,6,2,1,3,5,2,2,8,7,4,2,330,1503,
scooby_state_55cf028a1266|56|1 1151,6,10,5,4,5,4,9,2,4,3,2,2,2,294,1503,
scooby_state_55cf028a1266|63|2 1100,6,2,9,11,5,4,4,4,4,3,7,7,1,336,1503,
scooby_state_55cf028a1266|2|2 1142,4,5,5,7,7,4,4,3,2,2,6,3,8,298,1500,
scooby_state_55cf028a1266|7|3 1100,10,5,5,14,7,8,4,3,1,4,5,3,8,320,1497,
scooby_state_55cf028a127b|8|0 1217,4,4,4,2,2,3,3,1,3,1,2,8,5,236,1495,
scooby_state_55cf028a1266|37|3 1116,11,1,7,11,10,4,3,8,4,4,1,2,6,303,1491,
scooby_state_55cf028a1266|44|3 1107,4,4,6,3,6,4,7,6,7,4,5,4,8,313,1488,
scooby_state_55cf028a1266|59|2 1092,7,3,4,5,9,3,4,4,3,1,2,5,2,341,1485,
scooby_state_55cf028a1266|11|3 1122,7,5,4,2,6,5,5,2,4,1,6,5,4,303,1481,
scooby_state_55cf028a1266|20|2 1096,11,6,5,11,10,2,0,4,4,3,6,9,2,305,1474,
scooby_state_55cf028a1266|19|2 1100,7,4,8,2,8,2,4,2,7,4,9,3,4,305,1469,
scooby_state_55cf028a1266|44|2 1105,10,6,8,5,9,2,0,2,3,4,6,3,5,300,1468,
scooby_state_55cf028a1266|30|2 1102,3,5,9,6,5,3,2,7,5,4,6,6,4,297,1464,
scooby_state_55cf028a1266|29|2 1104,9,6,10,7,10,5,5,2,2,3,6,1,7,284,1461,
scooby_state_55cf028a1266|55|2 1091,5,10,12,5,5,5,6,3,3,7,5,2,3,299,1461,
scooby_state_55cf028a1266|49|2 1096,4,6,5,6,9,1,6,6,4,6,4,1,2,301,1457,
scooby_state_55cf028a127b|57|0 1179,3,2,4,3,3,3,1,2,3,3,5,4,3,231,1449,
scooby_state_55cf028a1266|17|2 1126,7,3,7,10,4,4,2,1,5,3,4,4,3,262,1445,
scooby_state_55cf028a1266|10|2 1099,10,3,13,5,7,5,1,2,1,1,9,4,1,284,1445,
scooby_state_55cf028a1266|58|2 1086,6,6,7,6,10,4,7,7,2,3,2,3,2,292,1443,
scooby_state_55cf028a1266|40|2 1096,6,7,8,6,4,1,2,6,4,1,6,3,3,289,1442,
scooby_state_55cf028a1266|62|2 1073,5,5,7,3,11,8,1,0,3,4,4,6,6,302,1438,
scooby_state_55cf028a1266|3|2 1077,10,9,5,9,7,3,4,3,3,1,7,2,5,293,1438,
scooby_state_55cf028a1266|18|3 1083,6,2,9,3,5,3,6,5,4,0,6,4,4,297,1437,
scooby_state_55cf028a1266|53|2 1057,8,8,9,5,5,5,3,4,3,2,5,4,3,316,1437,
scooby_state_55cf028a1266|45|2 1056,4,6,7,8,6,5,7,5,2,3,4,4,3,316,1436,
scooby_state_55cf028a1266|56|2 1033,9,4,10,5,7,6,6,1,4,4,6,2,4,334,1435,
scooby_state_55cf028a1266|43|2 1097,2,2,8,5,7,2,5,3,1,1,7,4,5,281,1430,
scooby_state_55cf028a1266|35|2 1072,7,5,10,9,4,6,6,0,5,4,5,2,6,289,1430,
scooby_state_55cf028a1266|6|3 1061,9,7,7,5,2,3,3,5,4,6,4,7,4,299,1426,
scooby_state_55cf028a1266|63|4 1077,3,14,3,8,9,7,4,6,5,3,1,6,6,274,1426,
scooby_state_55cf028a127b|36|0 1138,2,3,5,4,2,2,2,2,2,1,3,6,2,251,1425,
scooby_state_55cf028a1266|16|2 1119,6,0,3,4,5,3,4,5,7,2,4,2,4,253,1421,
scooby_state_55cf028a1266|7|4 1052,8,10,9,5,3,12,4,6,4,8,6,7,7,278,1419,
scooby_state_55cf028a1266|55|3 1011,10,6,14,9,4,6,5,4,6,1,5,6,2,329,1418,
scooby_state_55cf028a1266|41|4 1039,8,12,7,7,7,6,6,5,4,1,1,5,8,293,1409,
scooby_state_55cf028a1266|20|3 1037,7,9,5,5,7,10,4,2,5,7,1,5,5,297,1406,
scooby_state_55cf028a1266|32|3 1056,4,2,11,8,5,7,6,2,6,4,4,5,5,277,1402,
scooby_state_55cf028a1266|33|5 1087,5,6,4,3,5,4,1,1,4,3,5,6,10,258,1402,
scooby_state_55cf028a1266|5|2 1033,7,6,8,5,8,7,3,5,2,6,4,5,5,297,1401,
scooby_state_55cf028a1266|52|4 1035,8,5,6,8,6,8,5,3,3,3,4,8,5,293,1400,
scooby_state_55cf028a1266|48|3 1041,10,5,4,10,2,4,1,3,3,2,5,3,3,302,1398,
scooby_state_55cf028a1266|37|2 1035,8,6,5,9,6,3,6,5,2,4,3,2,1,301,1396,
scooby_state_55cf028a1266|12|2 1081,3,5,2,3,6,1,1,3,2,0,2,4,2,280,1395,
scooby_state_55cf028a1266|23|2 1029,6,12,6,7,12,5,3,3,1,0,4,3,1,296,1388,
scooby_state_55cf028a1266|51|3 1027,6,3,3,6,5,4,8,6,4,1,9,6,0,297,1385,
scooby_state_55cf028a1266|9|3 1047,8,2,7,4,7,4,6,2,2,2,2,4,6,282,1385,
scooby_state_55cf028a1266|43|3 1028,9,4,10,3,6,8,1,4,3,3,7,8,4,284,1382,
scooby_state_55cf028a1266|40|3 1035,3,8,10,4,7,4,5,4,3,3,7,5,4,279,1381,
scooby_state_55cf028a1266|50|2 993,8,4,2,5,11,9,4,1,5,3,2,1,3,327,1378,
scooby_state_55cf028a127b|50|0 1137,1,3,2,6,3,2,0,1,1,1,7,3,2,208,1377,
scooby_state_55cf028a127b|42|0 1097,5,4,6,6,5,3,6,4,3,5,5,2,5,216,1372,
scooby_state_55cf028a1266|25|3 1031,6,5,6,8,5,2,3,4,2,2,5,4,4,282,1369,
scooby_state_55cf028a1266|61|3 971,12,7,13,9,11,6,3,1,4,4,5,7,6,310,1369,
scooby_state_55cf028a1266|39|2 1049,4,7,7,4,5,5,2,0,0,2,7,4,4,267,1367,
scooby_state_55cf028a1266|42|3 1017,3,3,6,5,6,9,2,1,3,3,9,3,5,291,1366,
scooby_state_55cf028a1266|21|3 1000,7,7,10,6,3,7,5,8,6,3,7,2,0,295,1366,
scooby_state_55cf028a1266|31|2 1040,3,3,7,7,8,3,6,4,1,4,3,3,1,268,1361,
scooby_state_55cf028a1266|63|3 971,8,5,3,5,1,8,6,7,2,0,7,4,9,325,1361,
scooby_state_55cf028a1266|62|3 988,10,9,3,4,9,8,5,5,7,4,3,9,6,289,1359,
scooby_state_55cf028a1266|24|3 1024,1,11,11,5,4,1,1,3,4,6,4,5,3,272,1355,
scooby_state_55cf028a127b|48|0 1083,2,1,4,2,1,2,1,2,3,1,4,2,4,243,1355,
scooby_state_55cf028a1266|21|2 1040,3,4,3,5,5,5,5,9,4,3,7,4,1,254,1352,
scooby_state_55cf028a1266|24|2 1032,6,10,6,6,7,4,2,4,1,2,6,3,6,256,1351,
scooby_state_55cf028a1266|9|5 1022,10,8,5,3,7,5,2,1,3,4,3,7,5,262,1347,
scooby_state_55cf028a1266|4|4 965,10,4,5,0,6,11,6,3,3,3,6,5,7,310,1344,
scooby_state_55cf028a1266|60|3 982,8,9,12,6,7,5,6,5,1,3,2,2,2,293,1343,
scooby_state_55cf028a1266|35|3 996,12,6,9,3,3,7,4,4,5,2,3,5,3,280,1342,
scooby_state_55cf028a1266|37|4 984,6,4,5,3,2,3,5,5,5,7,6,10,10,286,1341,
scooby_state_55cf028a1266|46|2 1027,2,9,6,6,8,2,4,4,3,1,7,2,4,252,1337,
scooby_state_55cf028a1266|59|3 986,6,4,5,13,2,6,5,6,2,5,6,4,10,276,1336,
scooby_state_55cf028a1266|8|4 1016,5,10,5,7,8,6,2,4,4,1,2,7,4,254,1335,
scooby_state_55cf028a1266|23|3 979,6,8,6,8,8,10,4,3,4,3,3,6,5,279,1332,
scooby_state_55cf028a1266|45|4 997,5,10,5,6,7,6,7,3,10,1,3,8,2,260,1330,
scooby_state_55cf028a127b|30|0 1081,2,3,4,3,3,4,1,1,0,0,5,1,5,205,1318,
scooby_state_55cf028a1266|39|3 983,6,3,8,7,5,10,2,4,4,5,2,3,1,271,1314,
scooby_state_55cf028a1266|38|2 976,4,2,5,4,6,5,3,1,2,0,5,6,3,291,1313,
scooby_state_55cf028a1266|49|3 1012,6,1,8,3,2,5,4,0,4,4,5,3,7,247,1311,
scooby_state_55cf028a1266|36|3 948,5,4,11,9,6,5,2,6,5,6,8,2,8,284,1309,
scooby_state_55cf028a1266|55|4 970,8,11,9,5,7,7,4,3,3,4,6,5,4,261,1307,
scooby_state_55cf028a1266|50|3 950,4,8,4,13,6,3,2,4,3,2,6,4,7,290,1306,
scooby_state_55cf028a1266|22|4 956,12,9,3,4,10,12,2,4,8,3,7,3,4,266,1303,
scooby_state_55cf028a1266|10|4 955,6,9,4,4,5,6,8,2,5,8,2,11,7,267,1299,
scooby_state_55cf028a1266|47|4 967,11,6,3,8,6,7,9,1,3,6,7,3,3,258,1298,
scooby_state_55cf028a1266|27|3 958,4,3,5,9,1,6,5,3,4,2,7,4,7,274,1292,
scooby_state_55cf028a1266|28|3 962,3,11,8,12,6,4,1,5,3,2,4,3,6,262,1292,
scooby_state_55cf028a1266|30|4 942,7,9,4,3,8,11,4,3,6,6,6,10,3,267,1289,
scooby_state_55cf028a1266|54|3 959,2,1,5,10,8,2,2,3,4,6,5,5,3,269,1284,
scooby_state_55cf028a1266|15|2 985,8,3,2,8,6,3,2,1,2,1,1,4,3,253,1282,
scooby_state_55cf028a1266|47|5 935,5,6,6,8,6,6,0,0,2,1,5,3,4,294,1281,
scooby_state_55cf028a1266|48|2 946,6,6,3,5,9,2,6,3,4,4,8,3,4,266,1275,
scooby_state_55cf028a1266|14|2 955,5,6,6,2,11,4,7,2,4,4,5,4,1,259,1275,
scooby_state_55cf028a1266|33|3 954,4,7,9,8,11,6,2,3,4,5,2,2,5,251,1273,
scooby_state_55cf028a1266|57|3 944,7,7,5,8,1,6,1,3,4,2,7,0,4,273,1272,
scooby_state_55cf028a127b|33|0 1033,4,6,5,1,3,4,6,2,2,2,3,2,4,193,1270,
scooby_state_55cf028a1266|6|4 951,9,6,4,1,9,8,7,5,4,2,4,9,3,241,1263,
scooby_state_55cf028a1266|53|3 931,3,10,9,5,5,3,4,0,5,2,1,4,4,274,1260,
scooby_state_55cf028a1266|41|3 924,6,5,13,9,2,3,4,3,3,2,4,4,7,271,1260,
scooby_state_55cf028a1266|63|6 947,7,8,4,6,7,5,4,3,3,3,3,4,10,245,1259,
scooby_state_55cf028a1266|45|3 929,6,5,11,7,1,4,8,5,8,3,2,3,2,263,1257,
scooby_state_55cf028a1266|5|3 914,8,7,6,4,9,5,4,3,6,4,2,5,6,272,1255,
scooby_state_55cf028a1266|30|5 978,8,3,3,7,6,6,3,5,1,3,5,2,3,221,1254,
scooby_state_55cf028a1266|58|5 918,9,4,6,6,3,4,3,4,2,2,3,6,5,273,1248,
scooby_state_55cf028a1266|34|3 931,4,1,10,6,5,4,4,5,3,6,5,7,2,255,1248,
scooby_state_55cf028a1266|13|2 924,3,4,7,4,3,3,7,6,5,2,5,4,5,263,1245,
scooby_state_55cf028a1266|14|3 923,3,4,1,8,4,7,3,2,3,4,4,1,2,275,1244,
scooby_state_55cf028a1266|40|4 932,4,10,4,3,7,7,3,8,7,6,6,3,3,239,1242,
scooby_state_55cf028a127b|32|0 947,4,3,2,2,5,5,2,2,3,1,9,0,7,245,1237,
scooby_state_55cf028a1266|4|3 916,1,4,6,6,1,7,3,3,6,2,7,2,1,271,1236,
scooby_state_55cf028a1266|15|3 925,2,5,5,6,7,2,2,5,2,4,3,6,3,259,1236,
scooby_state_55cf028a1266|34|4 938,2,11,3,5,5,8,4,3,3,6,3,8,5,230,1234,
scooby_state_55cf028a1266|47|3 886,4,5,6,6,4,3,4,3,2,1,3,6,5,291,1229,
scooby_state_55cf028a1266|25|4 939,4,8,9,5,5,4,4,4,3,4,2,6,4,227,1228,
scooby_state_55cf028a1266|49|5 925,6,4,1,4,6,4,5,3,1,7,1,2,2,256,1227,
scooby_state_55cf028a1266|3|3 915,8,4,3,8,7,4,3,1,2,8,1,2,4,257,1227,
scooby_state_55cf028a1266|29|3 930,8,1,5,5,6,4,2,4,3,1,4,1,2,244,1220,
scooby_state_55cf028a1266|26|5 911,6,5,3,4,10,2,5,2,6,2,3,6,5,249,1219,
scooby_state_55cf028a1266|46|3 879,8,3,6,6,3,7,1,0,5,7,4,2,5,281,1217,
scooby_state_55cf028a1266|8|3 911,5,2,7,4,6,5,3,7,2,1,3,7,9,245,1217,
scooby_state_55cf028a1266|12|3 922,5,6,4,6,7,2,0,5,3,3,2,3,4,239,1211,
scooby_state_55cf028a1266|30|3 877,12,1,12,4,8,5,5,4,3,5,1,4,7,261,1209,
scooby_state_55cf028a1266|51|4 888,6,5,7,2,7,4,3,6,3,1,5,6,3,263,1209,
scooby_state_55cf028a1266|17|3 921,2,2,3,6,4,7,3,4,5,5,0,9,1,236,1208,
scooby_state_55cf028a1266|46|4 880,6,20,2,0,6,3,6,7,4,1,1,6,6,260,1208,
scooby_state_55cf028a1266|38|3 869,7,4,10,5,7,2,3,5,0,1,5,8,2,278,1206,
scooby_state_55cf028a1266|10|3 891,4,6,8,5,6,3,3,4,2,4,6,5,2,256,1205,
scooby_state_55cf028a1266|55|5 875,8,5,5,5,2,3,5,3,2,6,5,5,5,269,1203,
scooby_state_55cf028a1266|24|4 892,4,6,9,4,10,6,5,6,3,4,4,2,1,246,1202,
scooby_state_55cf028a1266|36|4 921,9,5,8,6,9,8,2,1,3,0,4,4,4,214,1198,
scooby_state_55cf028a1266|31|3 882,1,4,7,6,6,2,5,5,5,3,3,5,5,258,1197,
scooby_state_55cf028a1266|47|6 873,4,7,8,8,6,3,6,4,6,5,2,6,6,250,1194,
scooby_state_55cf028a1266|49|4 864,9,4,9,3,6,6,7,7,4,2,6,12,2,246,1187,
scooby_state_55cf028a1266|13|3 892,4,3,10,8,3,4,1,2,2,6,4,7,2,235,1183,
scooby_state_55cf028a1266|20|4 882,5,10,7,5,9,7,7,3,2,0,5,9,2,227,1180,
scooby_state_55cf028a1266|50|4 864,10,10,5,0,6,3,10,3,5,2,6,3,6,246,1179,
scooby_state_55cf028a1266|19|4 894,5,7,4,10,1,6,2,4,3,5,2,4,4,227,1178,
scooby_state_55cf028a127b|41|0 961,1,2,3,1,0,0,4,5,4,2,1,4,2,183,1173,
scooby_state_55cf028a1266|26|3 901,4,2,5,8,6,6,3,2,2,2,6,5,5,215,1172,
scooby_state_55cf028a1266|43|4 862,6,5,5,4,5,8,6,5,2,3,7,3,1,248,1170,
scooby_state_55cf028a1266|13|4 880,7,7,4,3,5,2,2,7,1,5,6,2,6,232,1169,
scooby_state_55cf028a1266|17|4 857,1,11,6,2,5,3,4,2,3,6,5,10,4,247,1166,
scooby_state_55cf028a1266|62|4 877,5,6,6,1,8,7,6,4,4,7,4,5,5,219,1164,
scooby_state_55cf028a1266|19|3 883,4,9,6,4,3,5,7,6,0,1,8,5,1,221,1163,
scooby_state_55cf028a127b|10|0 964,2,0,5,2,6,2,2,5,1,0,1,2,2,168,1162,
scooby_state_55cf028a1266|9|4 835,7,5,5,5,7,7,8,4,2,3,4,5,2,260,1159,
scooby_state_55cf028a1266|63|5 864,5,6,8,6,9,5,2,2,0,4,2,1,7,238,1159,
scooby_state_55cf028a1266|56|3 863,4,4,9,4,0,1,4,6,2,2,4,1,4,251,1159,
scooby_state_55cf028a1266|18|4 853,4,6,6,8,9,4,9,5,7,3,5,3,2,234,1158,
scooby_state_55cf028a1266|52|5 860,6,4,1,2,7,4,3,3,3,3,2,3,2,255,1158,
scooby_state_55cf028a1266|19|5 882,6,3,5,3,3,4,2,3,1,2,2,7,3,231,1157,
scooby_state_55cf028a1266|42|5 838,5,3,6,3,8,3,4,1,2,3,7,4,6,260,1153,
scooby_state_55cf028a127b|29|0 887,3,4,7,2,1,1,2,1,3,6,6,5,5,211,1144,
scooby_state_55cf028a1266|57|4 840,3,5,2,9,3,5,2,4,2,0,2,5,1,259,1142,
scooby_state_55cf028a1266|58|4 828,7,9,7,3,8,4,3,2,3,4,5,6,5,247,1141,
scooby_state_55cf028a1266|12|5 822,12,1,4,1,4,4,5,4,3,2,3,3,3,267,1138,
scooby_state_55cf028a1266|18|5 832,6,2,1,5,5,6,1,1,7,4,2,4,2,259,1137,
scooby_state_55cf028a1266|27|4 834,1,5,5,5,3,4,4,6,3,3,4,3,4,250,1134,
scooby_state_55cf028a127b|28|0 894,5,3,4,2,4,4,0,6,2,3,2,2,10,192,1133,
scooby_state_55cf028a1266|59|4 815,5,6,5,5,7,8,6,5,3,8,7,7,6,236,1129,
scooby_state_55cf028a1266|54|4 853,4,6,5,1,5,6,3,5,0,2,4,4,4,225,1127,
scooby_state_55cf028a1266|57|5 810,8,6,8,5,6,5,2,3,6,5,4,2,4,251,1125,
scooby_state_55cf028a1266|61|4 818,10,8,2,11,2,2,4,5,3,1,7,5,2,240,1120,
scooby_state_55cf028a1266|48|4 803,3,9,2,3,5,9,6,3,4,4,5,6,4,254,1120,
scooby_state_55cf028a1266|53|4 823,8,6,8,4,6,4,7,1,0,3,1,8,9,229,1117,
scooby_state_55cf028a1266|60|4 807,3,6,4,6,4,5,6,4,6,2,4,4,8,244,1113,
scooby_state_55cf028a1266|26|4 824,5,5,10,2,6,5,4,2,5,2,4,4,1,233,1112,
scooby_state_55cf028a1266|56|4 808,5,6,9,7,7,5,8,5,1,6,3,4,8,230,1112,
scooby_state_55cf028a1266|59|5 828,6,2,7,3,5,3,2,1,1,1,5,5,4,238,1111,
scooby_state_55cf028a1266|5|5 806,12,5,5,3,3,3,3,2,1,2,2,3,1,260,1111,
scooby_state_55cf028a1266|59|7 829,13,12,6,7,6,6,4,10,4,4,8,3,8,188,1108,
scooby_state_55cf028a1266|38|4 807,8,7,5,3,9,10,3,2,6,3,5,7,1,232,1108,
scooby_state_55cf028a1266|29|4 823,7,8,6,5,5,10,3,4,4,3,4,7,4,212,1105,
scooby_state_55cf028a1266|21|4 831,2,7,3,1,3,2,2,3,5,4,7,7,2,224,1103,
scooby_state_55cf028a127b|13|0 900,3,3,0,2,1,3,0,0,1,1,3,0,3,182,1102,
scooby_state_55cf028a1266|25|16 887,7,11,8,8,8,9,5,3,7,6,5,5,6,127,1102,
scooby_state_55cf028a1266|36|8 825,2,6,6,8,5,6,7,5,3,3,6,5,7,207,1101,
scooby_state_55cf028a1266|15|6 822,8,5,5,1,7,9,8,3,1,3,2,3,4,219,1100,
scooby_state_55cf028a1266|16|3 827,5,2,6,9,6,3,3,1,0,4,2,3,4,225,1100,
scooby_state_55cf028a1266|38|5 793,11,4,1,5,6,8,3,5,6,3,3,1,1,246,1096,
scooby_state_55cf028a1266|32|4 818,6,9,3,2,8,5,2,7,2,4,8,4,5,211,1094,
scooby_state_55cf028a1266|44|4 800,5,7,5,2,3,7,3,6,5,6,5,6,8,225,1093,
scooby_state_55cf028a1266|11|4 826,7,7,5,6,5,5,3,4,1,6,5,2,1,209,1092,
scooby_state_55cf028a1266|15|4 795,2,8,5,8,5,8,9,5,2,4,3,5,6,225,1090,
scooby_state_55cf028a1266|14|4 825,8,7,4,2,8,6,2,4,2,2,4,7,7,201,1089,
scooby_state_55cf028a1266|59|6 792,7,8,5,6,7,6,3,6,1,5,3,8,7,222,1086,
scooby_state_55cf028a1266|16|4 804,6,4,6,5,5,8,1,6,7,3,3,0,4,222,1084,
scooby_state_55cf028a1266|39|4 814,9,7,6,4,1,9,4,3,4,2,2,3,4,209,1081,
scooby_state_55cf028a1266|54|5 782,8,7,4,4,5,2,2,1,2,3,3,2,1,253,1079,
scooby_state_55cf028a1266|42|6 793,5,5,2,6,4,11,4,5,4,5,8,3,5,218,1078,
scooby_state_55cf028a1266|49|6 804,6,8,5,7,8,2,5,2,4,0,6,2,4,212,1075,
scooby_state_55cf028a1266|62|5 780,5,5,4,7,8,3,3,2,3,0,5,2,4,243,1074,
scooby_state_55cf028a1266|37|5 791,8,3,4,1,3,4,0,3,2,2,7,2,5,238,1073,
scooby_state_55cf028a1266|41|7 817,7,7,6,8,9,3,5,5,6,6,0,8,4,182,1073,
scooby_state_55cf028a1266|29|5 806,7,4,3,2,10,4,3,2,4,1,2,2,3,220,1073,
scooby_state_55cf028a1266|31|5 811,8,9,3,4,5,1,1,3,1,3,2,3,7,210,1071,
scooby_state_55cf028a1266|51|5 769,8,3,4,3,1,9,2,2,2,1,2,3,4,258,1071,
scooby_state_55cf028a1266|35|4 785,3,8,6,4,4,5,3,4,5,2,1,9,4,227,1070,
scooby_state_55cf028a1266|23|6 781,6,4,6,7,4,4,3,4,1,3,6,5,5,229,1068,
scooby_state_55cf028a1266|14|5 778,13,2,7,1,2,6,0,0,4,2,3,2,4,242,1066,
scooby_state_55cf028a127b|47|0 817,2,4,5,8,7,3,1,3,2,1,1,5,2,205,1066,
scooby_state_55cf028a1266|45|5 802,5,2,1,3,3,3,4,5,4,0,4,1,4,222,1063,
scooby_state_55cf028a1266|10|6 815,5,3,2,7,6,6,4,0,5,1,3,6,1,198,1062,
scooby_state_55cf028a1266|20|5 785,9,1,3,1,5,4,0,3,0,5,4,1,2,239,1062,
scooby_state_55cf028a1266|48|5 796,3,5,3,4,5,2,1,1,2,4,2,4,3,227,1062,
scooby_state_55cf028a1266|28|5 796,9,2,2,5,6,4,4,3,1,2,6,0,2,219,1061,
scooby_state_55cf028a1266|33|4 785,4,5,8,7,3,3,7,3,6,4,8,8,3,203,1057,
scooby_state_55cf028a127b|55|0 850,1,4,2,0,3,6,1,3,1,2,3,6,1,172,1055,
scooby_state_55cf028a1266|8|8 807,9,7,5,7,6,1,8,2,3,2,4,5,3,183,1052,
scooby_state_55cf028a1266|40|5 793,7,3,3,2,3,3,1,3,1,0,4,0,4,222,1049,
scooby_state_55cf028a1266|26|6 796,6,5,3,7,11,5,5,3,4,2,2,2,6,192,1049,
scooby_state_55cf028a1266|48|6 767,7,7,6,3,5,3,7,5,0,3,5,3,3,224,1048,
scooby_state_55cf028a1266|36|7 797,4,9,7,7,6,5,2,3,6,3,6,6,8,178,1047,
scooby_state_55cf028a1266|56|5 763,8,4,3,4,5,6,0,3,3,0,3,3,5,235,1045,
scooby_state_55cf028a1266|60|5 754,10,1,4,4,2,6,4,2,1,1,4,4,2,243,1042,
scooby_state_55cf028a1266|41|5 782,12,6,9,4,4,3,3,0,0,2,2,4,4,205,1040,
scooby_state_55cf028a1266|5|4 781,10,8,9,2,3,5,1,3,2,3,1,4,3,204,1039,
scooby_state_55cf028a1266|19|6 781,5,4,8,2,6,5,6,2,2,2,5,4,4,203,1039,
scooby_state_55cf028a1266|32|7 751,17,5,6,11,2,4,5,8,3,5,9,3,9,199,1037,
scooby_state_55cf028a1266|39|5 769,7,6,2,7,5,5,1,2,2,2,5,5,3,216,1037,
scooby_state_55cf028a1266|21|5 782,6,8,2,4,5,4,3,2,4,2,2,1,3,209,1037,
scooby_state_55cf028a1266|16|5 795,9,7,5,2,5,3,4,7,0,0,3,2,1,194,1037,
scooby_state_55cf028a1266|32|5 793,9,6,2,2,4,7,5,3,3,3,2,0,2,191,1032,
scooby_state_55cf028a1266|23|4 779,0,6,4,3,7,3,4,5,4,1,6,7,4,196,1029,
scooby_state_55cf028a127b|34|0 820,5,5,1,1,2,5,2,2,1,1,7,1,2,173,1028,
scooby_state_55cf028a1266|43|6 800,5,4,4,4,5,4,2,2,1,4,2,5,4,181,1027,
scooby_state_55cf028a1266|15|5 774,8,7,2,4,5,2,2,3,4,0,3,2,1,210,1027,
scooby_state_55cf028a1266|53|5 754,4,3,5,1,3,8,6,3,1,1,2,1,3,230,1025,
scooby_state_55cf028a1266|52|7 761,12,5,9,7,9,4,7,5,3,6,6,2,7,180,1023,
scooby_state_55cf028a1266|21|6 759,4,7,4,6,3,2,4,2,4,0,6,6,2,214,1023,
scooby_state_55cf028a1266|30|6 761,6,4,8,8,3,4,5,3,3,3,3,3,5,204,1023,
scooby_state_55cf028a1266|12|4 764,3,7,8,10,3,5,3,1,7,4,1,7,4,195,1022,
scooby_state_55cf028a1266|20|7 774,4,6,7,5,3,2,4,3,5,6,3,6,4,186,1018,
scooby_state_55cf028a1266|17|5 763,4,2,3,1,5,2,2,1,0,1,2,3,2,223,1014,
scooby_state_55cf028a1266|27|5 736,7,6,6,3,5,6,4,6,4,2,3,1,3,221,1013,
scooby_state_55cf028a1266|11|5 746,9,4,0,2,4,5,2,3,5,0,3,3,3,223,1012,
scooby_state_55cf028a1266|38|6 733,10,5,9,4,9,5,9,3,0,1,7,2,3,209,1009,
scooby_state_55cf028a1266|7|7 737,8,5,9,9,8,6,5,4,4,4,5,4,2,196,1006,
scooby_state_55cf028a1266|25|5 736,8,4,4,3,6,5,3,0,0,3,4,2,5,221,1004,
scooby_state_55cf028a1266|25|6 754,6,10,4,6,5,3,6,5,4,2,2,1,4,190,1002,
scooby_state_55cf028a1266|11|7 727,7,8,14,7,9,1,8,1,3,7,3,8,9,189,1001,
scooby_state_55cf028a1266|6|6 742,3,5,7,5,3,8,2,4,3,3,6,5,2,202,1000,
scooby_state_55cf028a1266|50|5 717,9,8,1,5,6,5,0,2,3,3,4,3,2,230,998,
scooby_state_55cf028a1266|51|6 745,9,4,4,6,5,9,1,2,4,3,2,6,1,197,998,
scooby_state_55cf028a127b|15|0 804,6,2,0,7,4,4,2,2,1,0,3,3,0,160,998,
scooby_state_55cf028a1266|6|5 735,6,3,2,0,6,6,2,2,2,1,2,7,3,220,997,
scooby_state_55cf028a127b|9|0 818,4,2,2,2,4,2,0,1,3,1,2,1,1,153,996,
scooby_state_55cf028a1266|42|4 730,5,6,5,4,4,5,8,4,2,1,5,2,3,212,996,
scooby_state_55cf028a1266|31|4 749,5,5,8,6,6,7,6,1,4,1,2,4,3,188,995,
scooby_state_55cf028a1266|61|5 705,6,7,4,5,6,3,1,6,1,1,7,1,4,234,991,
scooby_state_55cf028a1266|23|5 743,6,3,1,1,4,2,2,2,4,2,2,3,3,211,989,
scooby_state_55cf028a1266|7|6 742,10,6,8,5,5,2,2,4,1,2,4,3,5,189,988,
scooby_state_55cf028a1266|34|6 728,4,2,8,6,9,2,4,3,4,3,6,5,3,201,988,
scooby_state_55cf028a1266|18|6 747,5,3,4,1,7,6,3,5,2,1,2,6,2,193,987,
scooby_state_55cf028a1266|57|6 710,5,11,5,8,4,3,4,5,1,1,6,8,12,204,987,
scooby_state_55cf028a1266|28|6 736,7,4,6,2,4,4,3,3,2,0,7,2,7,196,983,
scooby_state_55cf028a127b|21|0 810,4,2,0,0,1,2,4,1,1,4,6,3,2,143,983,
scooby_state_55cf028a1266|43|5 720,5,4,3,5,4,3,3,4,1,4,2,3,6,214,981,
scooby_state_55cf028a1266|8|6 739,8,4,8,7,8,2,3,3,0,1,4,1,3,190,981,
scooby_state_55cf028a1266|12|8 746,8,6,5,2,10,3,5,4,5,3,5,3,5,170,980,
scooby_state_55cf028a1266|40|8 732,1,10,6,4,3,2,6,5,4,2,4,6,6,188,979,
scooby_state_55cf028a1266|20|6 711,4,6,8,2,6,6,2,1,3,5,3,4,3,214,978,
scooby_state_55cf028a1266|55|6 735,6,4,7,6,8,3,4,1,5,3,2,1,0,192,977,
scooby_state_55cf028a1266|28|4 724,3,7,2,2,4,3,7,7,4,7,6,6,3,192,977,
scooby_state_55cf028a1266|22|5 690,6,4,3,1,6,3,5,3,1,1,2,2,4,244,975,
scooby_state_55cf028a127b|60|0 772,3,2,4,0,0,2,4,0,4,2,2,1,2,177,975,
scooby_state_55cf028a1266|12|6 731,5,3,2,10,4,1,3,5,6,1,5,8,2,189,975,
scooby_state_55cf028a1266|49|7 683,8,7,15,9,9,5,5,6,6,8,4,4,6,199,974,
scooby_state_55cf028a1266|52|6 739,3,8,5,5,6,3,4,4,1,4,1,2,9,180,974,
scooby_state_55cf028a1266|36|5 717,2,7,4,3,7,7,3,1,1,2,3,1,3,212,973,
scooby_state_55cf028a1266|8|5 714,6,3,2,2,4,4,1,4,0,0,2,2,3,224,971,
scooby_state_55cf028a1266|41|8 742,7,6,6,2,3,2,4,3,2,3,1,4,4,178,967,
scooby_state_55cf028a1266|61|6 709,7,5,8,4,5,3,6,5,4,3,4,3,2,199,967,
scooby_state_55cf028a1266|32|6 738,3,1,8,3,5,5,2,1,4,0,1,0,5,190,966,
scooby_state_55cf028a1266|41|6 698,4,2,3,9,8,6,8,3,2,4,6,4,4,205,966,
scooby_state_55cf028a1266|44|5 711,3,5,3,4,5,2,3,3,2,3,7,2,1,210,964,
scooby_state_55cf028a1266|58|6 708,5,3,9,3,7,4,4,3,3,3,8,2,3,195,960,
scooby_state_55cf028a1266|9|6 724,7,5,7,8,3,3,8,1,3,3,2,5,3,177,959,
scooby_state_55cf028a1266|58|8 710,7,7,5,7,6,4,2,2,4,9,6,3,2,185,959,
scooby_state_55cf028a1266|16|7 723,7,4,9,3,3,4,1,7,5,3,0,8,6,172,955,
scooby_state_55cf028a1266|35|5 704,4,3,3,3,4,4,4,2,3,2,6,0,2,211,955,
scooby_state_55cf028a1266|25|8 723,4,6,4,3,5,4,6,5,6,6,3,5,8,167,955,
scooby_state_55cf028a1266|24|6 697,5,1,5,4,7,4,3,3,3,5,6,1,2,208,954,
scooby_state_55cf028a1266|25|7 700,6,4,7,4,4,7,3,3,6,6,6,4,7,185,952,
scooby_state_55cf028a1266|17|6 692,5,5,5,4,7,8,3,5,3,2,3,4,3,202,951,
scooby_state_55cf028a1266|50|8 710,9,7,7,6,4,6,6,1,7,2,5,5,4,172,951,
scooby_state_55cf028a1266|58|7 704,8,8,7,7,3,3,8,2,2,5,8,2,3,180,950,
scooby_state_55cf028a1266|18|11 732,4,5,3,3,5,4,4,5,2,4,6,5,4,163,949,
scooby_state_55cf028a1266|46|5 716,9,6,3,0,6,2,1,1,0,3,3,5,0,194,949,
scooby_state_55cf028a1266|63|8 692,2,6,9,2,9,9,3,9,2,5,7,4,3,185,947,
scooby_state_55cf028a1266|48|7 696,10,8,4,4,4,4,4,3,8,6,2,6,10,177,946,
scooby_state_55cf028a1266|37|7 707,11,9,4,2,5,1,2,5,1,6,4,3,5,179,944,
scooby_state_55cf028a1266|35|6 697,3,4,3,4,5,5,5,3,2,1,3,4,0,203,942,
scooby_state_55cf028a1266|50|6 697,5,2,6,2,5,1,4,4,3,8,4,6,4,190,941,
scooby_state_55cf028a1266|26|7 719,4,3,4,6,1,7,6,3,7,4,4,3,1,168,940,
scooby_state_55cf028a1266|61|9 714,11,7,9,3,2,8,4,4,0,2,4,8,5,151,932,
scooby_state_55cf028a1266|7|5 675,7,3,1,4,2,4,0,3,3,0,3,2,3,221,931,
scooby_state_55cf028a1266|40|7 678,3,0,6,2,5,9,4,7,6,4,7,5,7,188,931,
scooby_state_55cf028a1266|45|7 692,7,5,10,8,6,2,1,3,3,3,7,6,9,168,930,
scooby_state_55cf028a1266|41|9 697,4,3,10,7,7,2,1,4,6,2,5,4,6,172,930,
scooby_state_55cf028a1266|60|6 676,3,5,10,3,4,7,3,5,2,2,4,3,2,195,924,
scooby_state_55cf028a1266|36|6 664,10,6,6,2,8,3,2,4,3,3,4,3,8,197,923,
scooby_state_55cf028a1266|14|7 647,7,5,7,3,12,6,9,3,3,5,3,6,5,201,922,
scooby_state_55cf028a127b|62|0 736,3,2,1,6,1,0,5,1,2,2,1,3,4,154,921,
scooby_state_55cf028a1266|15|8 684,6,11,7,10,6,3,2,4,2,5,7,3,5,163,918,
scooby_state_55cf028a127b|14|0 721,2,2,2,3,2,4,7,2,2,0,6,1,2,155,911,
scooby_state_55cf028a1266|13|5 681,12,6,1,3,3,1,2,0,0,3,2,2,5,190,911,
scooby_state_55cf028a1266|53|6 680,6,6,5,4,1,3,1,2,0,4,3,4,3,189,911,
scooby_state_55cf028a1266|44|7 663,9,4,4,4,11,4,5,5,2,3,2,7,9,178,910,
scooby_state_55cf028a1266|17|8 689,2,9,2,6,4,5,2,4,1,3,2,2,5,172,908,
scooby_state_55cf028a1266|13|7 671,5,6,4,4,6,6,5,6,6,3,3,3,8,171,907,
scooby_state_55cf028a1266|13|6 669,3,7,6,3,3,2,1,2,1,3,2,4,6,195,907,
scooby_state_55cf028a1266|62|7 688,3,5,4,8,5,7,5,7,4,4,3,4,7,153,907,
scooby_state_55cf028a1266|24|5 674,3,2,6,1,9,1,1,1,2,3,3,3,5,191,905,
scooby_state_55cf028a1266|39|7 705,9,6,2,3,7,5,2,2,1,4,2,2,4,150,904,
scooby_state_55cf028a1266|14|6 674,5,3,8,6,4,1,1,4,2,1,3,3,5,182,902,
scooby_state_55cf028a1266|59|14 702,5,3,7,7,8,4,5,4,3,2,4,10,3,132,899,
scooby_state_55cf028a1266|52|8 655,2,6,2,6,3,1,6,5,3,5,14,6,7,177,898,
scooby_state_55cf028a1266|31|8 681,1,8,8,3,4,7,4,5,4,5,6,2,3,156,897,
scooby_state_55cf028a1266|42|10 692,11,11,7,5,7,1,6,5,5,5,4,5,5,128,897,
scooby_state_55cf028a127b|23|0 724,3,2,2,2,1,2,3,0,0,0,2,1,0,155,897,
scooby_state_55cf028a1266|27|6 667,5,5,4,9,4,3,5,3,3,3,3,5,3,175,897,
scooby_state_55cf028a1266|11|6 659,5,3,5,4,7,2,4,4,2,2,5,7,3,184,896,
scooby_state_55cf028a1266|24|7 666,6,5,13,6,7,3,3,4,1,6,4,6,6,160,896,
scooby_state_55cf028a1266|22|9 688,7,3,3,5,5,2,4,6,6,2,2,7,4,151,895,
scooby_state_55cf028a1266|22|6 679,8,2,4,3,4,4,8,5,3,1,4,3,0,166,894,
scooby_state_55cf028a1266|39|6 677,7,4,5,6,4,1,4,2,7,1,3,6,3,164,894,
scooby_state_55cf028a1266|56|6 634,5,10,7,8,2,4,4,3,7,1,4,4,2,197,892,
scooby_state_55cf028a1266|59|8 656,5,10,3,7,1,8,4,1,8,3,7,2,3,174,892,
scooby_state_55cf028a1266|62|6 670,6,3,10,1,7,1,1,1,2,4,8,6,1,170,891,
scooby_state_55cf028a1266|34|5 657,4,2,0,0,6,4,2,2,3,2,5,3,2,199,891,
scooby_state_55cf028a1266|31|14 688,7,10,9,5,2,4,2,4,4,3,5,1,4,141,889,
scooby_state_55cf028a127b|3|0 706,3,3,1,2,2,3,1,5,2,1,3,2,1,152,887,
scooby_state_55cf028a1266|29|6 670,4,2,7,5,1,2,3,3,4,1,4,6,3,170,885,
scooby_state_55cf028a1266|32|8 664,3,5,5,6,3,2,3,4,4,2,2,6,7,169,885,
scooby_state_55cf028a1266|17|7 627,6,9,7,4,2,5,4,5,4,8,1,4,7,189,882,
scooby_state_55cf028a1266|19|7 662,3,6,7,6,5,4,9,4,3,4,4,7,5,152,881,
scooby_state_55cf028a1266|15|9 658,6,3,5,4,3,7,5,5,5,1,4,9,7,159,881,
scooby_state_55cf028a1266|16|12 688,5,3,5,7,5,5,2,3,4,1,5,2,1,143,879,
scooby_state_55cf028a1266|49|9 635,10,7,13,6,3,4,5,4,8,9,6,2,4,160,876,
scooby_state_55cf028a1266|45|8 658,6,5,10,6,4,3,0,4,4,4,4,1,5,162,876,
scooby_state_55cf028a1266|32|11 663,6,6,3,3,3,5,5,1,5,1,4,5,9,157,876,
scooby_state_55cf028a1266|33|6 643,6,4,4,1,4,4,4,3,3,3,4,3,5,184,875,
scooby_state_55cf028a1266|9|9 656,9,3,9,6,5,3,1,2,4,2,5,4,1,164,874,
scooby_state_55cf028a1266|52|11 669,8,4,1,8,1,5,5,2,4,7,2,6,3,147,872,
scooby_state_55cf028a1266|50|9 661,2,6,5,5,4,3,8,2,1,3,3,1,4,163,871,
scooby_state_55cf028a1266|31|7 665,8,2,5,4,4,6,2,1,2,6,9,5,4,148,871,
scooby_state_55cf028a1266|34|7 661,5,2,6,5,7,4,3,2,4,3,7,4,4,153,870,
scooby_state_55cf028a1266|19|8 655,3,4,1,9,4,8,1,4,3,5,3,8,4,157,869,
scooby_state_55cf028a1266|46|6 637,4,4,9,3,6,1,4,2,2,4,4,3,2,182,867,
scooby_state_55cf028a1266|9|8 640,3,8,6,5,6,7,4,5,3,4,7,6,2,160,866,
scooby_state_55cf028a1266|59|10 657,6,3,10,8,7,4,3,3,5,5,1,4,7,142,865,
scooby_state_55cf028a1266|45|6 636,4,4,4,5,5,5,4,2,1,1,4,1,4,185,865,
scooby_state_55cf028a1266|33|7 638,6,5,8,3,6,5,7,5,6,2,10,9,7,148,865,
scooby_state_55cf028a1266|35|7 659,6,6,6,2,3,3,4,3,3,1,3,3,8,154,864,
scooby_state_55cf028a1266|27|8 632,7,7,5,8,6,2,5,8,5,6,2,3,7,159,862,
scooby_state_55cf028a1266|22|7 644,6,9,6,3,8,4,0,0,8,4,5,6,9,150,862,
scooby_state_55cf028a1266|54|6 629,6,6,10,4,7,0,4,1,3,1,4,3,4,179,861,
scooby_state_55cf028a1266|43|7 651,8,3,5,3,5,5,3,3,4,2,4,7,10,147,860,
scooby_state_55cf028a1266|51|7 624,7,4,6,7,5,4,3,3,4,9,6,8,5,161,856,
scooby_state_55cf028a1266|55|7 638,10,5,5,5,2,4,3,2,1,2,5,3,9,159,853,
scooby_state_55cf028a1266|10|5 615,9,4,2,1,3,5,1,5,1,2,1,4,4,196,853,
scooby_state_55cf028a1266|44|6 639,4,5,5,2,6,2,2,5,5,3,4,5,5,160,852,
scooby_state_55cf028a1266|53|9 656,3,6,7,7,3,6,2,2,4,2,5,4,7,138,852,
scooby_state_55cf028a1266|19|9 643,9,6,6,6,5,3,4,1,2,5,4,5,6,146,851,
scooby_state_55cf028a1266|10|10 636,10,5,12,7,3,1,3,1,2,10,2,4,6,149,851,
scooby_state_55cf028a1266|16|6 643,5,5,4,3,4,7,4,3,3,7,3,6,1,152,850,
scooby_state_55cf028a1266|11|8 630,4,4,7,3,6,5,4,4,5,2,4,7,8,156,849,
scooby_state_55cf028a1266|37|6 629,9,3,4,2,2,4,2,5,3,3,6,4,4,166,846,
scooby_state_55cf028a1266|40|6 620,2,7,8,4,8,2,6,5,4,3,3,2,4,167,845,
scooby_state_55cf028a1266|16|9 644,6,12,6,3,4,5,3,4,1,4,4,1,2,143,842,
scooby_state_55cf028a1266|31|6 618,2,3,4,8,2,4,2,1,5,3,3,4,3,180,842,
scooby_state_55cf028a1266|34|8 644,5,5,0,5,2,5,3,2,5,4,4,2,0,155,841,
scooby_state_55cf028a1266|47|7 633,6,3,3,3,7,5,2,6,4,3,5,7,8,145,840,
scooby_state_55cf028a1266|55|8 613,4,6,4,1,4,8,5,3,3,2,6,2,6,173,840,
scooby_state_55cf028a1266|12|7 630,7,8,4,2,5,3,2,5,0,4,1,4,3,161,839,
scooby_state_55cf028a1266|29|7 631,3,10,6,8,3,5,7,4,5,6,2,3,5,140,838,
scooby_state_55cf028a1266|28|8 609,4,6,3,7,5,3,5,5,3,4,0,6,3,174,837,
scooby_state_55cf028a1266|10|8 632,6,1,5,7,8,5,2,5,2,1,1,5,5,150,835,
scooby_state_55cf028a1266|30|7 633,7,2,7,5,3,7,6,5,3,3,3,5,7,139,835,
scooby_state_55cf028a1266|18|7 606,8,10,7,5,3,3,4,5,6,7,5,3,6,156,834,
scooby_state_55cf028a1266|44|8 627,2,0,6,3,5,6,3,6,3,2,4,10,2,153,832,
scooby_state_55cf028a1266|56|9 637,5,4,6,1,3,3,5,2,3,0,3,6,4,148,830,
scooby_state_55cf028a1266|25|9 620,8,3,8,4,4,9,1,6,3,3,6,2,5,147,829,
scooby_state_55cf028a1266|63|7 614,7,5,8,3,6,4,1,3,1,0,3,1,6,166,828,
scooby_state_55cf028a1266|24|9 635,5,3,8,5,1,4,3,3,1,3,4,2,6,144,827,
scooby_state_55cf028a1266|20|10 625,12,9,8,3,7,2,5,8,5,6,1,4,7,125,827,
scooby_state_55cf028a1266|15|7 606,11,8,4,5,3,2,5,6,6,3,4,2,3,156,824,
scooby_state_55cf028a1266|23|7 622,9,6,4,0,2,3,2,1,3,6,5,5,8,148,824,
scooby_state_55cf028a1266|47|8 610,7,3,5,3,4,6,6,6,2,1,4,4,2,160,823,
scooby_state_55cf028a127b|53|0 665,0,0,1,5,5,1,1,1,2,3,3,2,0,133,822,
scooby_state_55cf028a1266|21|8 575,12,8,9,4,8,4,2,1,4,2,1,8,4,179,821,
scooby_state_55cf028a1266|17|9 603,4,2,10,8,3,10,1,6,3,2,5,3,6,154,820,
scooby_state_55cf028a1266|21|7 597,8,9,4,5,0,7,3,8,0,8,4,7,4,156,820,
scooby_state_55cf028a1266|60|7 627,7,5,5,5,3,3,6,2,3,4,2,3,9,135,819,
scooby_state_55cf028a1266|37|10 613,9,4,8,3,4,7,1,2,6,5,9,4,4,139,818,
scooby_state_55cf028a1266|26|8 626,3,8,5,3,8,3,3,4,2,3,3,0,5,142,818,
scooby_state_55cf028a1266|61|7 587,4,9,7,6,6,3,2,3,3,2,1,1,5,179,818,
scooby_state_55cf028a1266|27|9 619,5,6,4,3,4,4,2,1,5,3,4,3,6,145,814,
scooby_state_55cf028a1266|52|9 603,8,6,7,2,5,4,1,6,4,4,4,1,7,152,814,
scooby_state_55cf028a1266|34|9 636,6,11,9,3,3,7,3,5,3,2,1,3,5,116,813,
scooby_state_55cf028a1266|28|7 579,7,3,5,7,9,3,2,7,4,1,5,2,7,172,813,
scooby_state_55cf028a1266|60|8 610,5,6,7,9,4,1,3,4,2,4,4,5,3,145,812,
scooby_state_55cf028a1266|47|10 601,6,5,9,7,8,3,5,5,0,3,7,5,4,143,811,
scooby_state_55cf028a1266|29|8 613,5,4,4,5,4,1,2,1,4,2,1,2,5,158,811,
scooby_state_55cf028a1266|20|9 615,4,5,4,6,4,4,3,3,5,2,5,5,2,143,810,
scooby_state_55cf028a1266|42|8 608,4,6,3,6,4,6,3,3,3,4,3,2,5,148,808,
scooby_state_55cf028a1266|27|7 616,8,5,5,2,8,2,5,4,1,3,2,5,4,138,808,
scooby_state_55cf028a1266|38|7 600,4,5,5,5,7,2,0,2,7,3,4,7,6,150,807,
scooby_state_55cf028a1266|16|10 570,6,5,6,3,10,5,3,7,4,2,2,5,3,174,805,
scooby_state_55cf028a1266|29|9 594,4,10,8,5,5,6,9,6,0,0,7,4,2,145,805,
scooby_state_55cf028a1266|53|8 625,1,9,8,2,8,3,1,4,4,6,6,3,4,121,805,
scooby_state_55cf028a1266|33|12 618,6,2,3,5,6,9,2,4,1,3,6,3,5,129,802,
scooby_state_55cf028a1266|36|10 603,8,6,3,2,4,7,5,2,2,4,2,4,8,142,802,
scooby_state_55cf028a1266|33|8 595,7,7,5,5,2,4,2,5,2,2,3,7,2,153,801,
scooby_state_55cf028a1266|52|10 593,3,6,8,7,8,7,4,5,3,4,7,4,3,136,798,
scooby_state_55cf028a1266|51|10 615,9,10,7,4,3,5,1,2,2,4,6,3,4,122,797,
scooby_state_55cf028a127b|31|0 630,1,2,4,3,2,0,1,1,0,1,2,1,0,149,797,
scooby_state_55cf028a1266|57|8 593,1,11,4,6,8,3,8,0,3,5,2,2,1,149,796,
scooby_state_55cf028a1266|26|9 594,7,4,8,3,3,4,4,1,2,4,8,3,4,146,795,
scooby_state_55cf028a127b|39|0 647,3,4,3,2,1,1,1,5,1,1,1,3,3,118,794,
scooby_state_55cf028a1266|8|7 588,4,5,7,5,3,5,5,1,6,5,5,2,9,143,793,
scooby_state_55cf028a1266|18|8 575,5,3,4,8,8,6,6,3,3,3,6,6,5,152,793,
scooby_state_55cf028a127b|27|0 645,3,1,3,1,0,3,1,2,7,1,3,2,4,116,792,
scooby_state_55cf028a1266|50|7 590,9,1,4,3,5,3,2,4,3,0,2,5,3,156,790,
scooby_state_55cf028a1266|37|9 590,8,4,5,10,6,8,3,3,3,3,1,5,4,136,789,
scooby_state_55cf028a1266|61|12 604,5,7,3,5,5,1,1,1,1,0,3,3,4,146,789,
scooby_state_55cf028a1266|13|9 595,3,3,8,5,2,0,3,6,2,4,7,2,6,142,788,
scooby_state_55cf028a1266|47|9 601,4,9,4,4,3,7,6,6,3,4,4,1,1,130,787,
scooby_state_55cf028a1266|63|10 584,7,6,6,3,12,5,3,4,7,1,3,2,2,141,786,
scooby_state_55cf028a1266|42|7 579,8,4,4,6,6,5,5,7,1,6,2,7,5,141,786,
scooby_state_55cf028a1266|61|16 624,1,4,7,7,6,6,3,3,1,5,6,5,3,101,782,
scooby_state_55cf028a1266|46|8 580,1,9,3,6,2,3,0,5,1,3,8,4,4,153,782,
scooby_state_55cf028a1266|51|9 572,6,9,8,5,2,4,3,1,4,5,4,6,1,152,782,
scooby_state_55cf028a1266|33|9 580,8,4,8,8,2,8,1,5,2,1,6,2,4,142,781,
scooby_state_55cf028a1266|9|7 579,2,6,3,3,5,3,2,2,4,10,6,2,5,149,781,
scooby_state_55cf028a1266|63|14 597,2,6,3,7,6,5,4,5,4,2,7,4,2,126,780,
scooby_state_55cf028a1266|27|10 585,5,11,10,11,4,3,7,6,4,1,0,4,3,126,780,
scooby_state_55cf028a1266|28|10 590,16,5,7,1,7,1,3,3,0,3,4,3,4,132,779,
scooby_state_55cf028a1266|54|7 556,5,4,3,5,2,5,4,5,7,4,3,3,6,165,777,
scooby_state_55cf028a1266|57|7 568,13,8,5,4,8,3,4,4,2,3,5,8,5,137,777,
scooby_state_55cf028a1266|58|10 574,11,8,7,8,7,2,4,5,5,5,5,6,4,124,775,
scooby_state_55cf028a1266|58|9 574,8,5,8,4,2,2,4,4,5,2,2,6,3,145,774,
scooby_state_55cf028a1266|14|10 588,4,6,4,5,5,3,6,3,4,2,6,6,5,127,774,
scooby_state_55cf028a1266|28|9 601,4,2,4,3,4,5,4,3,1,1,5,1,2,133,773,
scooby_state_55cf028a1266|33|10 599,11,5,8,4,5,6,5,3,1,1,6,5,8,106,773,
scooby_state_55cf028a1266|51|8 592,4,7,3,3,2,7,4,5,3,4,3,2,5,129,773,
scooby_state_55cf028a1266|46|7 572,9,4,5,4,4,3,6,7,2,1,1,1,6,148,773,
scooby_state_55cf028a1266|20|14 588,5,6,3,4,2,2,5,3,5,3,5,7,2,133,773,
scooby_state_55cf028a1266|42|9 582,3,8,5,6,6,6,4,5,4,2,5,3,3,130,772,
scooby_state_55cf028a1266|11|9 556,10,8,5,4,7,9,7,2,2,3,4,4,3,148,772,
scooby_state_55cf028a1266|61|8 561,6,5,1,4,6,5,3,2,6,2,3,2,1,164,771,
scooby_state_55cf028a1266|21|9 573,5,5,10,6,1,6,6,4,4,4,3,3,4,136,770,
scooby_state_55cf028a1266|56|7 555,6,5,9,5,5,3,2,2,3,5,5,7,8,149,769,
scooby_state_55cf028a1266|19|12 580,3,4,8,4,4,1,5,1,5,5,1,1,3,144,769,
scooby_state_55cf028a1266|44|11 598,5,4,4,4,1,5,2,1,2,1,5,4,8,124,768,
scooby_state_55cf028a1266|49|10 574,8,9,5,5,6,3,8,6,3,3,2,2,3,131,768,
scooby_state_55cf028a1266|46|9 558,7,4,7,8,3,3,6,6,1,6,3,3,6,146,767,
scooby_state_55cf028a1266|19|10 587,5,5,8,2,12,9,1,2,4,5,5,5,4,112,766,
scooby_state_55cf028a1266|45|12 582,1,2,5,2,4,7,2,3,2,2,1,6,3,144,766,
scooby_state_55cf028a1266|32|10 562,10,3,4,3,3,6,5,4,3,3,6,3,5,146,766,
scooby_state_55cf028a1266|30|8 552,8,4,3,4,4,6,4,7,3,5,4,6,5,151,766,
scooby_state_55cf028a1266|21|10 589,5,7,10,4,5,3,1,5,4,5,8,2,5,112,765,
scooby_state_55cf028a1266|37|11 583,2,4,8,7,6,5,5,2,4,0,2,5,8,123,764,
scooby_state_55cf028a1266|10|7 559,4,5,7,6,4,3,3,3,3,2,4,1,4,156,764,
scooby_state_55cf028a1266|45|9 536,7,8,6,6,4,2,7,0,3,1,3,9,3,166,761,
scooby_state_55cf028a1266|30|11 574,6,2,6,4,3,7,4,5,1,2,7,2,3,134,760,
scooby_state_55cf028a1266|37|8 574,8,1,7,2,7,4,0,6,3,0,1,1,3,142,759,
scooby_state_55cf028a1266|24|8 568,5,4,5,5,4,6,3,3,3,5,3,8,4,131,757,
scooby_state_55cf028a1266|36|11 598,7,4,5,4,2,5,2,3,0,0,4,2,4,117,757,
scooby_state_55cf028a1266|60|10 568,9,3,10,2,5,8,2,1,4,3,2,6,4,129,756,
scooby_state_55cf028a1266|11|11 573,6,8,2,6,3,2,4,5,5,5,4,5,2,126,756,
scooby_state_55cf028a1266|39|9 558,5,3,4,8,3,1,5,8,6,5,2,2,3,141,754,
scooby_state_55cf028a1266|59|11 563,3,5,7,0,3,7,5,5,4,4,5,3,5,135,754,
scooby_state_55cf028a1266|18|10 565,8,7,9,3,6,3,6,4,2,4,4,5,1,125,752,
scooby_state_55cf028a1266|25|10 548,6,8,4,3,6,2,3,2,5,1,7,6,7,144,752,
scooby_state_55cf028a1266|41|12 606,2,2,3,3,2,2,4,4,4,0,3,3,1,113,752,
scooby_state_55cf028a1266|45|13 570,4,4,8,4,6,4,8,5,8,2,5,2,3,116,749,
scooby_state_55cf028a1266|57|10 562,10,7,12,3,8,4,7,4,5,6,4,2,3,112,749,
scooby_state_55cf028a1266|12|10 595,6,6,12,2,6,3,2,2,2,2,3,1,6,101,749,
scooby_state_55cf028a1266|32|14 585,4,5,4,5,3,1,3,5,3,2,2,3,1,122,748,
scooby_state_55cf028a1266|60|9 551,2,9,3,5,7,6,3,5,4,2,9,4,5,132,747,
scooby_state_55cf028a1266|33|13 576,9,5,3,9,2,7,9,3,0,5,3,2,2,112,747,
scooby_state_55cf028a1266|49|8 549,5,7,4,1,3,5,4,2,3,5,3,2,5,149,747,
scooby_state_55cf028a1266|44|9 552,6,4,7,5,3,3,4,8,2,3,4,8,9,129,747,
scooby_state_55cf028a1266|17|13 566,6,5,3,4,5,5,4,2,2,7,1,4,2,130,746,
scooby_state_55cf028a1266|53|7 541,12,6,5,2,7,8,5,2,6,3,5,7,2,135,746,
scooby_state_55cf028a1266|55|9 550,10,7,6,4,3,4,9,2,1,3,3,5,1,137,745,
scooby_state_55cf028a1266|48|8 539,7,8,0,0,6,3,2,1,1,1,5,6,3,163,745,
scooby_state_55cf028a1266|20|8 571,1,5,6,2,2,6,3,4,4,2,3,3,5,126,743,
scooby_state_55cf028a127b|51|0 578,3,2,1,0,3,1,1,2,4,5,2,0,1,140,743,
scooby_state_55cf028a1266|43|11 577,2,2,5,5,3,3,2,3,6,2,2,7,3,120,742,
scooby_state_55cf028a1266|24|10 549,4,5,1,6,5,2,5,2,4,4,8,6,3,137,741,
scooby_state_55cf028a1266|54|9 567,3,6,3,5,4,6,3,4,1,3,2,5,3,125,740,
scooby_state_55cf028a1266|15|11 553,3,3,6,4,5,1,7,4,2,3,6,5,3,135,740,
scooby_state_55cf028a1266|51|11 561,7,3,7,0,5,6,7,2,3,1,2,9,4,123,740,
scooby_state_55cf028a1266|20|11 565,4,5,9,1,4,4,7,3,1,4,5,4,4,119,739,
scooby_state_55cf028a1266|59|9 556,4,4,5,5,2,2,4,4,6,0,3,5,3,135,738,
scooby_state_55cf028a1266|18|9 561,7,5,5,4,3,5,1,6,2,0,5,7,9,118,738,
scooby_state_55cf028a127b|45|0 596,2,2,2,2,1,0,1,0,1,1,3,1,0,125,737,
scooby_state_55cf028a1266|47|11 571,5,1,9,7,6,5,6,2,3,3,6,5,5,103,737,
scooby_state_55cf028a1266|20|13 574,9,2,6,4,3,3,1,2,5,3,3,3,2,117,737,
scooby_state_55cf028a1266|43|9 562,6,4,7,4,2,3,6,3,2,0,6,0,10,121,736,
scooby_state_55cf028a1266|52|12 540,0,5,4,6,2,4,5,4,2,5,2,2,5,149,735,
scooby_state_55cf028a1266|16|8 539,4,4,5,3,3,5,1,6,1,3,1,2,1,155,733,
scooby_state_55cf028a127b|26|0 598,1,2,1,0,2,2,0,2,0,2,1,2,4,116,733,
scooby_state_55cf028a1266|19|13 573,10,5,2,7,6,1,2,0,2,2,3,5,4,110,732,
scooby_state_55cf028a1266|36|9 527,8,5,7,4,6,2,2,1,3,6,4,2,5,150,732,
scooby_state_55cf028a1266|54|8 549,5,4,9,3,5,4,3,2,1,5,3,3,3,132,731,
scooby_state_55cf028a1266|49|17 571,7,7,6,11,4,2,6,8,4,1,5,5,8,85,730,
scooby_state_55cf028a1266|23|8 545,7,2,5,4,3,2,5,5,4,2,5,6,2,133,730,
scooby_state_55cf028a127b|20|0 604,1,3,1,2,1,0,2,2,1,1,1,2,4,103,728,
scooby_state_55cf028a1266|29|10 559,10,5,8,5,7,5,3,3,0,1,4,7,3,108,728,
scooby_state_55cf028a1266|63|12 546,5,1,7,4,1,2,4,5,1,4,1,6,6,135,728,
scooby_state_55cf028a1266|26|10 558,9,3,6,2,7,3,2,6,1,4,4,2,5,115,727,
scooby_state_55cf028a1266|10|9 543,9,6,5,4,0,7,2,7,6,4,2,2,2,127,726,
scooby_state_55cf028a1266|57|9 553,1,3,6,8,0,4,2,3,3,4,3,5,1,129,725,
scooby_state_55cf028a1266|62|8 534,4,4,2,4,1,5,5,3,1,0,8,4,4,145,724,
scooby_state_55cf028a1266|22|8 544,7,6,6,3,4,2,2,2,4,2,5,7,2,128,724,
scooby_state_55cf028a1266|35|10 527,11,4,3,6,5,6,7,3,4,2,3,3,4,136,724,
scooby_state_55cf028a1266|39|10 564,11,2,3,3,7,5,4,4,1,2,4,2,4,107,723,
scooby_state_55cf028a1266|15|10 553,5,1,6,6,6,9,2,2,5,3,5,4,4,112,723,
scooby_state_55cf028a1266|17|10 525,7,7,7,4,5,4,3,2,0,4,4,6,5,138,721,
scooby_state_55cf028a1266|49|12 535,7,1,2,2,5,2,2,3,1,0,2,4,3,151,720,
scooby_state_55cf028a127b|58|0 579,2,0,2,1,3,1,2,1,0,1,1,0,0,125,718,
scooby_state_55cf028a1266|58|11 532,5,6,8,4,5,9,2,2,6,5,2,6,3,123,718,
scooby_state_55cf028a1266|27|11 535,1,6,7,3,3,6,2,6,4,4,1,5,7,127,717,
scooby_state_55cf028a1266|62|10 539,10,2,4,1,6,5,4,5,4,1,4,7,1,122,715,
scooby_state_55cf028a1266|63|11 527,4,4,12,5,7,4,5,5,2,2,5,2,3,128,715,
scooby_state_55cf028a1266|14|8 526,4,4,4,6,3,3,0,3,6,2,5,8,2,139,715,
scooby_state_55cf028a1266|21|12 538,1,3,6,3,2,1,1,2,1,2,6,2,2,143,713,
scooby_state_55cf028a1266|44|12 541,4,4,5,1,4,4,3,0,1,2,5,0,2,135,711,
scooby_state_55cf028a1266|23|11 546,2,6,3,4,3,3,8,2,3,2,4,3,5,116,710,
scooby_state_55cf028a1266|62|9 526,5,5,8,5,4,4,1,2,3,4,5,6,5,127,710,
scooby_state_55cf028a1266|17|11 533,6,5,1,5,4,4,3,5,4,3,3,4,3,126,709,
scooby_state_55cf028a1266|32|9 518,4,1,7,3,3,6,4,2,0,2,2,3,6,147,708,
scooby_state_55cf028a1266|31|9 538,3,3,5,3,4,5,4,7,0,1,2,4,4,124,707,
scooby_state_55cf028a1266|58|12 528,4,4,8,4,3,1,4,1,0,1,4,4,0,141,707,
scooby_state_55cf028a1266|34|14 528,7,7,8,1,2,4,1,3,2,3,5,4,6,126,707,
scooby_state_55cf028a1266|38|9 541,0,5,5,4,3,9,4,1,1,2,2,4,2,122,705,
scooby_state_55cf028a127b|54|0 562,0,1,1,0,2,2,1,0,1,1,1,1,3,128,704,
scooby_state_55cf028a1266|61|14 521,4,5,7,7,4,4,8,3,1,4,6,4,3,123,704,
scooby_state_55cf028a1266|60|11 528,2,7,3,6,10,1,2,6,1,1,4,5,3,124,703,
scooby_state_55cf028a1266|61|10 506,4,8,4,6,2,3,1,5,3,3,2,5,2,148,702,
scooby_state_55cf028a1266|48|12 527,3,4,4,2,1,2,0,2,3,4,4,0,4,140,700,
scooby_state_55cf028a1266|60|12 542,2,2,4,3,1,3,2,0,3,2,6,1,4,125,700,
scooby_state_55cf028a1266|47|23 573,12,3,6,7,7,4,8,1,3,4,5,7,7,53,700,
scooby_state_55cf028a1266|14|9 525,6,7,6,2,3,2,6,2,0,1,3,2,2,132,699,
scooby_state_55cf028a1266|12|11 524,8,5,4,2,6,2,3,2,2,4,3,7,1,126,699,
scooby_state_55cf028a1266|56|10 523,6,5,10,4,2,2,3,3,2,4,4,3,5,121,697,
scooby_state_55cf028a1266|30|10 526,4,6,9,7,2,6,5,0,1,4,4,4,2,117,697,
scooby_state_55cf028a1266|42|12 530,4,6,3,4,2,3,4,3,2,3,2,4,2,124,696,
scooby_state_55cf028a1266|59|12 534,3,2,6,4,3,2,1,1,1,3,2,3,5,126,696,
scooby_state_55cf028a1266|56|8 510,6,2,2,5,3,2,5,2,4,5,5,3,2,140,696,
scooby_state_55cf028a1266|34|10 511,6,3,7,5,3,6,4,1,3,3,6,0,8,129,695,
scooby_state_55cf028a1266|49|15 530,4,6,6,5,6,6,7,4,5,6,8,5,5,92,695,
scooby_state_55cf028a1266|43|8 521,5,3,4,7,2,3,2,4,3,1,3,2,2,132,694,
scooby_state_55cf028a1266|19|15 529,5,8,4,13,2,5,6,6,3,5,5,4,5,93,693,
scooby_state_55cf028a1266|63|9 530,5,2,2,4,6,4,4,3,0,3,1,5,5,119,693,
scooby_state_55cf028a1266|19|11 531,4,8,4,1,5,5,1,3,7,2,8,2,3,107,691,
scooby_state_55cf028a1266|13|10 517,4,3,6,8,2,4,5,2,1,1,5,4,5,123,690,
scooby_state_55cf028a1266|38|8 534,2,9,4,0,3,1,2,3,2,1,2,5,1,119,688,
scooby_state_55cf028a127b|7|0 550,4,1,1,1,1,3,0,0,0,1,0,3,2,121,688,
scooby_state_55cf028a1266|49|13 521,5,6,3,4,4,2,3,3,2,3,9,5,4,113,687,
[...]
scooby_state_15381998e3cc|32|1 1,0,0,0,0,0,0,0,0,0,0,0,0,0,0,1,
scooby_state_55cf028a127b|36|31 0,0,0,0,0,0,0,1,0,0,0,0,0,0,0,1,
scooby_state_55cf028a1101|4|1 1,0,0,0,0,0,0,0,0,0,0,0,0,0,0,1,
scooby_state_55cf028a1263|28|-20 1,0,0,0,0,0,0,0,0,0,0,0,0,0,0,1,
scooby_state_55cf028a127b|44|34 0,1,0,0,0,0,0,0,0,0,0,0,0,0,0,1,
scooby_state_153819a6524b|29|-4 1,0,0,0,0,0,0,0,0,0,0,0,0,0,0,1,
scooby_state_15381998e3bc|57|-4 1,0,0,0,0,0,0,0,0,0,0,0,0,0,0,1,
scooby_state_55cf028a127b|5|-51 0,0,0,0,0,0,0,0,0,0,0,0,0,1,0,1,
scooby_state_153819a65346|13|1 1,0,0,0,0,0,0,0,0,0,0,0,0,0,0,1,
scooby_state_55cf028a1263|17|-11 0,0,0,0,0,0,0,0,1,0,0,0,0,0,0,1,
scooby_state_1538199c78c0|35|10 1,0,0,0,0,0,0,0,0,0,0,0,0,0,0,1,
scooby_state_55cf028a127b|6|-33 0,0,0,0,0,0,0,0,0,0,0,0,0,0,1,1,
scooby_state_55cf028a3124|23|0 1,0,0,0,0,0,0,0,0,0,0,0,0,0,0,1,
scooby_state_1538199ee567|21|4 1,0,0,0,0,0,0,0,0,0,0,0,0,0,0,1,
scooby_state_1538199cae55|57|8 1,0,0,0,0,0,0,0,0,0,0,0,0,0,0,1,
scooby_state_55cf028a1263|22|-1 1,0,0,0,0,0,0,0,0,0,0,0,0,0,0,1,
scooby_state_55cf028a2ec0|59|0 1,0,0,0,0,0,0,0,0,0,0,0,0,0,0,1,
scooby_state_15381998fd44|53|1 1,0,0,0,0,0,0,0,0,0,0,0,0,0,0,1,
scooby_state_55cf028a0850|33|4 1,0,0,0,0,0,0,0,0,0,0,0,0,0,0,1,
scooby_state_55cf028a1263|50|-1 1,0,0,0,0,0,0,0,0,0,0,0,0,0,0,1,
scooby_state_55cf028a1263|57|29 0,0,0,0,0,0,1,0,0,0,0,0,0,0,0,1,
scooby_state_55cf028a1263|51|9 1,0,0,0,0,0,0,0,0,0,0,0,0,0,0,1,
scooby_state_1538199c0490|18|5 1,0,0,0,0,0,0,0,0,0,0,0,0,0,0,1,
scooby_state_55cf028a1211|8|1 1,0,0,0,0,0,0,0,0,0,0,0,0,0,0,1,
scooby_state_55cf028a1263|63|54 0,0,0,0,0,0,0,0,1,0,0,0,0,0,0,1,
scooby_state_55cf028a1263|31|13 0,0,0,0,0,0,0,0,0,1,0,0,0,0,0,1,
scooby_state_1538199c03c3|15|1 1,0,0,0,0,0,0,0,0,0,0,0,0,0,0,1,
scooby_state_1538199c7574|50|1 1,0,0,0,0,0,0,0,0,0,0,0,0,0,0,1,
scooby_state_55cf028a127b|27|-24 1,0,0,0,0,0,0,0,0,0,0,0,0,0,0,1,
scooby_state_55cf028a1263|20|12 1,0,0,0,0,0,0,0,0,0,0,0,0,0,0,1,
scooby_state_1538199c7303|12|1 1,0,0,0,0,0,0,0,0,0,0,0,0,0,0,1,
scooby_state_55cf028a1263|24|-28 1,0,0,0,0,0,0,0,0,0,0,0,0,0,0,1,
scooby_state_1538199ca1a0|6|4 1,0,0,0,0,0,0,0,0,0,0,0,0,0,0,1,
scooby_state_55cf028a127b|20|18 1,0,0,0,0,0,0,0,0,0,0,0,0,0,0,1,
scooby_state_55cf028a1263|28|28 1,0,0,0,0,0,0,0,0,0,0,0,0,0,0,1,
scooby_state_1538199c74c1|19|1 1,0,0,0,0,0,0,0,0,0,0,0,0,0,0,1,
scooby_state_55cf028a127b|8|6 0,0,0,0,1,0,0,0,0,0,0,0,0,0,0,1,
scooby_state_55cf028a1263|18|-25 1,0,0,0,0,0,0,0,0,0,0,0,0,0,0,1,
scooby_state_55cf028a1263|15|-21 1,0,0,0,0,0,0,0,0,0,0,0,0,0,0,1,
scooby_state_55cf028a1263|41|40 1,0,0,0,0,0,0,0,0,0,0,0,0,0,0,1,
scooby_state_55cf028a1263|48|-11 0,0,0,0,0,1,0,0,0,0,0,0,0,0,0,1,
scooby_state_1538199c0370|13|1 1,0,0,0,0,0,0,0,0,0,0,0,0,0,0,1,
scooby_state_55cf028a1263|16|-7 1,0,0,0,0,0,0,0,0,0,0,0,0,0,0,1,
scooby_state_15381998ef8e|62|2 1,0,0,0,0,0,0,0,0,0,0,0,0,0,0,1,
scooby_state_1538199b1100|4|0 1,0,0,0,0,0,0,0,0,0,0,0,0,0,0,1,
scooby_state_15381998e643|25|1 1,0,0,0,0,0,0,0,0,0,0,0,0,0,0,1,
scooby_state_55cf028a1263|12|-6 1,0,0,0,0,0,0,0,0,0,0,0,0,0,0,1,
scooby_state_55cf028a127b|39|37 1,0,0,0,0,0,0,0,0,0,0,0,0,0,0,1,
scooby_state_55cf028a127b|5|-21 1,0,0,0,0,0,0,0,0,0,0,0,0,0,0,1,
scooby_state_55cf028a127b|2|-2 1,0,0,0,0,0,0,0,0,0,0,0,0,0,0,1,
scooby_state_55cf028a127b|22|15 1,0,0,0,0,0,0,0,0,0,0,0,0,0,0,1,
scooby_state_55cf028a1263|49|7 1,0,0,0,0,0,0,0,0,0,0,0,0,0,0,1,
scooby_state_55cf028a1263|20|-30 0,0,0,0,0,0,0,0,1,0,0,0,0,0,0,1,
scooby_state_55cf028a1263|61|57 1,0,0,0,0,0,0,0,0,0,0,0,0,0,0,1,
scooby_state_1538199c742a|16|-45 1,0,0,0,0,0,0,0,0,0,0,0,0,0,0,1,
scooby_state_55cf028a127b|62|55 1,0,0,0,0,0,0,0,0,0,0,0,0,0,0,1,
scooby_state_55cf028a1263|38|17 0,0,0,0,0,0,1,0,0,0,0,0,0,0,0,1,
scooby_state_55cf028a127b|61|6 1,0,0,0,0,0,0,0,0,0,0,0,0,0,0,1,
scooby_state_55cf028a1263|9|-8 1,0,0,0,0,0,0,0,0,0,0,0,0,0,0,1,
scooby_state_55cf028a127b|61|10 1,0,0,0,0,0,0,0,0,0,0,0,0,0,0,1,
scooby_state_15381a363d00|52|0 1,0,0,0,0,0,0,0,0,0,0,0,0,0,0,1,
scooby_state_153819a65280|10|1 1,0,0,0,0,0,0,0,0,0,0,0,0,0,0,1,
scooby_state_1538199be9ea|10|-1 1,0,0,0,0,0,0,0,0,0,0,0,0,0,0,1,
scooby_state_153819954230|8|-3 1,0,0,0,0,0,0,0,0,0,0,0,0,0,0,1,
scooby_state_1538199e4143|5|1 1,0,0,0,0,0,0,0,0,0,0,0,0,0,0,1,
scooby_state_55cf028a127b|60|54 0,0,0,0,0,0,0,0,0,1,0,0,0,0,0,1,
scooby_state_55cf028a1263|28|-21 1,0,0,0,0,0,0,0,0,0,0,0,0,0,0,1,
scooby_state_55cf028a1263|29|19 1,0,0,0,0,0,0,0,0,0,0,0,0,0,0,1,
scooby_state_55cf028a127b|61|14 1,0,0,0,0,0,0,0,0,0,0,0,0,0,0,1,
scooby_state_55cf028a1263|20|-3 1,0,0,0,0,0,0,0,0,0,0,0,0,0,0,1,
scooby_state_1538199cad43|53|1 1,0,0,0,0,0,0,0,0,0,0,0,0,0,0,1,
scooby_state_1538199cb042|1|1 1,0,0,0,0,0,0,0,0,0,0,0,0,0,0,1,
scooby_state_55cf028a127b|61|22 1,0,0,0,0,0,0,0,0,0,0,0,0,0,0,1,
scooby_state_55cf028a127b|2|-26 0,0,0,0,0,0,0,0,0,0,0,1,0,0,0,1,
scooby_state_1538199be941|37|1 1,0,0,0,0,0,0,0,0,0,0,0,0,0,0,1,
scooby_state_55cf028a1263|53|6 1,0,0,0,0,0,0,0,0,0,0,0,0,0,0,1,
scooby_state_55cf028a1263|4|-43 1,0,0,0,0,0,0,0,0,0,0,0,0,0,0,1,
scooby_state_55cf028a11c3|7|1 1,0,0,0,0,0,0,0,0,0,0,0,0,0,0,1,
scooby_state_1538199caac0|43|1 1,0,0,0,0,0,0,0,0,0,0,0,0,0,0,1,
scooby_state_55cf028a1263|54|52 0,0,0,0,0,0,0,0,0,0,0,0,0,0,1,1,
scooby_state_55cf028a127b|2|-6 1,0,0,0,0,0,0,0,0,0,0,0,0,0,0,1,
scooby_state_55cf028a1263|24|-39 1,0,0,0,0,0,0,0,0,0,0,0,0,0,0,1,
scooby_state_55cf028a1263|13|-43 1,0,0,0,0,0,0,0,0,0,0,0,0,0,0,1,
scooby_state_55cf028a127b|18|14 0,0,0,0,0,0,0,0,0,0,0,0,1,0,0,1,
scooby_state_1538199cb310|12|11 1,0,0,0,0,0,0,0,0,0,0,0,0,0,0,1,
scooby_state_15381a36d2f0|11|0 1,0,0,0,0,0,0,0,0,0,0,0,0,0,0,1,
scooby_state_55cf028a127b|63|51 1,0,0,0,0,0,0,0,0,0,0,0,0,0,0,1,
scooby_state_55cf028a1263|20|15 1,0,0,0,0,0,0,0,0,0,0,0,0,0,0,1,
scooby_state_55cf028a127b|7|-54 1,0,0,0,0,0,0,0,0,0,0,0,0,0,0,1,
scooby_state_1538199c7d30|52|1 1,0,0,0,0,0,0,0,0,0,0,0,0,0,0,1,
scooby_state_55cf028a1263|21|-18 1,0,0,0,0,0,0,0,0,0,0,0,0,0,0,1,
scooby_state_55cf028a1263|25|-17 0,0,0,0,0,0,0,0,0,1,0,0,0,0,0,1,
scooby_state_55cf028a127b|53|48 0,0,1,0,0,0,0,0,0,0,0,0,0,0,0,1,
scooby_state_1538199cac30|48|8 1,0,0,0,0,0,0,0,0,0,0,0,0,0,0,1,
scooby_state_55cf028a1263|7|-9 0,0,0,1,0,0,0,0,0,0,0,0,0,0,0,1,
scooby_state_1538199cac40|49|1 1,0,0,0,0,0,0,0,0,0,0,0,0,0,0,1,
scooby_state_55cf028a1263|10|-12 1,0,0,0,0,0,0,0,0,0,0,0,0,0,0,1,
scooby_state_15381998e67a|44|0 1,0,0,0,0,0,0,0,0,0,0,0,0,0,0,1,
scooby_state_1538199c7540|21|1 1,0,0,0,0,0,0,0,0,0,0,0,0,0,0,1,
scooby_state_1538199ca070|1|0 1,0,0,0,0,0,0,0,0,0,0,0,0,0,0,1,
scooby_state_55cf028a1263|57|23 1,0,0,0,0,0,0,0,0,0,0,0,0,0,0,1,
scooby_state_1538199c1376|12|2 1,0,0,0,0,0,0,0,0,0,0,0,0,0,0,1,
scooby_state_55cf028a1263|56|24 1,0,0,0,0,0,0,0,0,0,0,0,0,0,0,1,
scooby_state_1538199c1540|21|1 1,0,0,0,0,0,0,0,0,0,0,0,0,0,0,1,
scooby_state_153819a427b0|30|0 1,0,0,0,0,0,0,0,0,0,0,0,0,0,0,1,
scooby_state_1538199cad83|54|1 1,0,0,0,0,0,0,0,0,0,0,0,0,0,0,1,
scooby_state_55cf028a127b|51|34 0,0,0,0,0,0,0,0,0,0,0,1,0,0,0,1,
scooby_state_153819a65230|8|1 1,0,0,0,0,0,0,0,0,0,0,0,0,0,0,1,
scooby_state_55cf028a127b|2|-4 1,0,0,0,0,0,0,0,0,0,0,0,0,0,0,1,
scooby_state_55cf028a1263|52|3 1,0,0,0,0,0,0,0,0,0,0,0,0,0,0,1,
scooby_state_1538199ca984|38|1 1,0,0,0,0,0,0,0,0,0,0,0,0,0,0,1,
scooby_state_55cf028a1263|63|60 0,0,0,0,0,1,0,0,0,0,0,0,0,0,0,1,
scooby_state_15381998efea|63|1 1,0,0,0,0,0,0,0,0,0,0,0,0,0,0,1,
scooby_state_55cf028a127b|63|50 0,0,0,0,1,0,0,0,0,0,0,0,0,0,0,1,
scooby_state_15381998e5e5|25|-10 1,0,0,0,0,0,0,0,0,0,0,0,0,0,0,1,
scooby_state_55cf028a1263|37|-14 1,0,0,0,0,0,0,0,0,0,0,0,0,0,0,1,
scooby_state_55cf028a1263|25|-19 1,0,0,0,0,0,0,0,0,0,0,0,0,0,0,1,
scooby_state_55cf028a127b|12|-32 0,0,0,0,1,0,0,0,0,0,0,0,0,0,0,1,
scooby_state_55cf028a127b|7|2 1,0,0,0,0,0,0,0,0,0,0,0,0,0,0,1,
scooby_state_15381a363b30|22|8 1,0,0,0,0,0,0,0,0,0,0,0,0,0,0,1,
scooby_state_1538199ca080|2|1 1,0,0,0,0,0,0,0,0,0,0,0,0,0,0,1,
scooby_state_55cf028a1263|61|36 1,0,0,0,0,0,0,0,0,0,0,0,0,0,0,1,
scooby_state_55cf028a1263|60|18 1,0,0,0,0,0,0,0,0,0,0,0,0,0,0,1,
scooby_state_15381a363d00|26|0 1,0,0,0,0,0,0,0,0,0,0,0,0,0,0,1,
scooby_state_55cf028a127b|4|-59 1,0,0,0,0,0,0,0,0,0,0,0,0,0,0,1,
scooby_state_55cf028a127b|26|20 0,0,0,0,0,0,0,0,0,0,0,0,0,0,1,1,
scooby_state_1538199ca0c1|58|1 1,0,0,0,0,0,0,0,0,0,0,0,0,0,0,1,
scooby_state_15381998f8b0|34|-6 1,0,0,0,0,0,0,0,0,0,0,0,0,0,0,1,
scooby_state_55cf028a1263|33|-25 0,1,0,0,0,0,0,0,0,0,0,0,0,0,0,1,
scooby_state_55cf028a1263|62|41 0,0,0,0,0,0,0,0,0,0,0,1,0,0,0,1,
scooby_state_55cf028a1263|47|-5 1,0,0,0,0,0,0,0,0,0,0,0,0,0,0,1,
scooby_state_15381a36b3b0|14|0 1,0,0,0,0,0,0,0,0,0,0,0,0,0,0,1,
scooby_state_55cf028a1263|32|-2 0,1,0,0,0,0,0,0,0,0,0,0,0,0,0,1,
scooby_state_1538199c78e8|13|-5 1,0,0,0,0,0,0,0,0,0,0,0,0,0,0,1,
scooby_state_55cf028a1263|42|39 1,0,0,0,0,0,0,0,0,0,0,0,0,0,0,1,
scooby_state_1538199ca950|37|29 1,0,0,0,0,0,0,0,0,0,0,0,0,0,0,1,
scooby_state_55cf028a1263|44|27 1,0,0,0,0,0,0,0,0,0,0,0,0,0,0,1,
scooby_state_15381a3643f0|40|14 1,0,0,0,0,0,0,0,0,0,0,0,0,0,0,1,
scooby_state_55cf028a1263|62|8 0,0,0,0,1,0,0,0,0,0,0,0,0,0,0,1,
scooby_state_1538199ca98d|7|0 1,0,0,0,0,0,0,0,0,0,0,0,0,0,0,1,
scooby_state_1538199c8242|9|4 1,0,0,0,0,0,0,0,0,0,0,0,0,0,0,1,
scooby_state_1538199c75c1|23|1 1,0,0,0,0,0,0,0,0,0,0,0,0,0,0,1,
scooby_state_55cf028a1263|21|-38 1,0,0,0,0,0,0,0,0,0,0,0,0,0,0,1,
scooby_state_55cf028a3124|4|0 1,0,0,0,0,0,0,0,0,0,0,0,0,0,0,1,
scooby_state_55cf028a1263|35|19 0,0,0,0,0,0,0,0,0,0,0,0,1,0,0,1,
scooby_state_55cf028a127b|4|-14 1,0,0,0,0,0,0,0,0,0,0,0,0,0,0,1,
scooby_state_1538199c7d40|53|1 1,0,0,0,0,0,0,0,0,0,0,0,0,0,0,1,
scooby_state_15381998e682|26|1 1,0,0,0,0,0,0,0,0,0,0,0,0,0,0,1,
scooby_state_1538199c7998|38|15 1,0,0,0,0,0,0,0,0,0,0,0,0,0,0,1,
scooby_state_55cf028a1281|10|1 1,0,0,0,0,0,0,0,0,0,0,0,0,0,0,1,
scooby_state_55cf028a127b|46|41 1,0,0,0,0,0,0,0,0,0,0,0,0,0,0,1,
scooby_state_55cf028a1263|25|-32 1,0,0,0,0,0,0,0,0,0,0,0,0,0,0,1,
scooby_state_15381998e930|36|-27 1,0,0,0,0,0,0,0,0,0,0,0,0,0,0,1,
scooby_state_55cf028a1263|51|28 0,0,0,0,0,0,0,0,1,0,0,0,0,0,0,1,
scooby_state_55cf028a1263|34|14 0,0,0,0,0,0,0,0,0,0,0,1,0,0,0,1,
scooby_state_55cf028a1263|32|9 1,0,0,0,0,0,0,0,0,0,0,0,0,0,0,1,
scooby_state_55cf028a1263|36|19 0,0,0,0,0,0,0,0,0,0,0,0,1,0,0,1,
scooby_state_55cf028a1263|63|36 1,0,0,0,0,0,0,0,0,0,0,0,0,0,0,1,
scooby_state_55cf028a1263|14|13 0,0,0,0,0,0,0,0,0,0,0,0,0,1,0,1,
scooby_state_15381998f21b|8|-40 1,0,0,0,0,0,0,0,0,0,0,0,0,0,0,1,
scooby_state_55cf028a1263|5|-8 1,0,0,0,0,0,0,0,0,0,0,0,0,0,0,1,
scooby_state_1538199caa01|40|1 1,0,0,0,0,0,0,0,0,0,0,0,0,0,0,1,
scooby_state_55cf028a1263|51|40 1,0,0,0,0,0,0,0,0,0,0,0,0,0,0,1,
scooby_state_55cf028a1263|14|-21 1,0,0,0,0,0,0,0,0,0,0,0,0,0,0,1,
scooby_state_55cf028a1263|43|13 1,0,0,0,0,0,0,0,0,0,0,0,0,0,0,1,
scooby_state_55cf028a127b|56|5 1,0,0,0,0,0,0,0,0,0,0,0,0,0,0,1,
scooby_state_15381998faeb|43|-10 1,0,0,0,0,0,0,0,0,0,0,0,0,0,0,1,
scooby_state_1538199c78f4|47|0 1,0,0,0,0,0,0,0,0,0,0,0,0,0,0,1,
scooby_state_55cf028a1263|4|2 1,0,0,0,0,0,0,0,0,0,0,0,0,0,0,1,
scooby_state_15381a363b30|44|17 1,0,0,0,0,0,0,0,0,0,0,0,0,0,0,1,
scooby_state_15381998fb11|44|-11 1,0,0,0,0,0,0,0,0,0,0,0,0,0,0,1,
scooby_state_55cf028a127b|61|53 0,0,0,0,0,0,0,0,0,0,0,0,0,1,0,1,
scooby_state_1538199c12a0|10|-3 1,0,0,0,0,0,0,0,0,0,0,0,0,0,0,1,
scooby_state_55cf028a1263|43|-7 1,0,0,0,0,0,0,0,0,0,0,0,0,0,0,1,
scooby_state_1538199ca0c1|3|-3 1,0,0,0,0,0,0,0,0,0,0,0,0,0,0,1,
scooby_state_1538199c7450|17|5 1,0,0,0,0,0,0,0,0,0,0,0,0,0,0,1,
scooby_state_55cf028a1263|10|-29 1,0,0,0,0,0,0,0,0,0,0,0,0,0,0,1,
scooby_state_55cf028a1263|7|-25 0,0,1,0,0,0,0,0,0,0,0,0,0,0,0,1,
scooby_state_55cf028a1263|35|-8 1,0,0,0,0,0,0,0,0,0,0,0,0,0,0,1,
scooby_state_55cf028a127b|61|4 1,0,0,0,0,0,0,0,0,0,0,0,0,0,0,1,
scooby_state_55cf028a1263|1|-5 1,0,0,0,0,0,0,0,0,0,0,0,0,0,0,1,
scooby_state_55cf028a1263|61|19 0,1,0,0,0,0,0,0,0,0,0,0,0,0,0,1,
scooby_state_15381a36d240|9|-2 1,0,0,0,0,0,0,0,0,0,0,0,0,0,0,1,
scooby_state_55cf028a1263|35|24 0,0,1,0,0,0,0,0,0,0,0,0,0,0,0,1,
scooby_state_55cf028a2ecd|22|-5 1,0,0,0,0,0,0,0,0,0,0,0,0,0,0,1,
scooby_state_153819a65240|9|1 1,0,0,0,0,0,0,0,0,0,0,0,0,0,0,1,
scooby_state_15381a3636d0|27|-25 1,0,0,0,0,0,0,0,0,0,0,0,0,0,0,1,
scooby_state_1538199c1530|20|2 1,0,0,0,0,0,0,0,0,0,0,0,0,0,0,1,
scooby_state_55cf028a127b|18|-43 1,0,0,0,0,0,0,0,0,0,0,0,0,0,0,1,
scooby_state_55cf028a1167|5|1 1,0,0,0,0,0,0,0,0,0,0,0,0,0,0,1,
scooby_state_55cf028a1263|30|29 1,0,0,0,0,0,0,0,0,0,0,0,0,0,0,1,
scooby_state_15381998e586|22|1 1,0,0,0,0,0,0,0,0,0,0,0,0,0,0,1,
scooby_state_55cf028a1263|33|-7 0,0,0,0,0,0,1,0,0,0,0,0,0,0,0,1,
scooby_state_55cf028a1263|45|37 1,0,0,0,0,0,0,0,0,0,0,0,0,0,0,1,
scooby_state_15381998e5c8|23|3 1,0,0,0,0,0,0,0,0,0,0,0,0,0,0,1,
scooby_state_15381a3636d0|14|-26 1,0,0,0,0,0,0,0,0,0,0,0,0,0,0,1,

scooby_action_0_deg_dist 0,537695,0,0,0,0,0,0,0,0,0,0,0,0,0,0,
scooby_action_-6_deg_dist 0,12872,4,0,0,0,0,0,0,0,0,0,0,0,0,0,
scooby_action_4_deg_dist 0,14607,50,0,6,0,0,0,0,0,0,0,0,0,0,0,
scooby_action_1_deg_dist 0,3155566,161096,0,106853,0,261635,0,0,0,0,0,0,0,0,0,
scooby_action_30_deg_dist 0,9885,3,0,0,0,0,0,0,0,0,0,0,0,0,0,
scooby_action_5_deg_dist 0,14379,48,0,9,0,0,0,0,0,0,0,0,0,0,0,
scooby_action_3_deg_dist 0,15004,32,0,2,0,0,0,0,0,0,0,0,0,0,0,
scooby_action_32_deg_dist 0,9750,4,0,0,0,0,0,0,0,0,0,0,0,0,0,
scooby_action_10_deg_dist 0,12887,18,0,0,0,0,0,0,0,0,0,0,0,0,0,
scooby_action_11_deg_dist 0,12883,36,0,0,0,0,0,0,0,0,0,0,0,0,0,
scooby_action_12_deg_dist 0,12526,16,0,3,0,0,0,0,0,0,0,0,0,0,0,
scooby_action_22_deg_dist 0,10932,8,0,0,0,0,0,0,0,0,0,0,0,0,0,
scooby_action_23_deg_dist 0,10687,12,0,0,0,0,0,0,0,0,0,0,0,0,0,
scooby_action_-1_deg_dist 0,13097,10,0,0,0,0,0,0,0,0,0,0,0,0,0,
scooby_action_-3_deg_dist 0,13037,10,0,0,0,0,0,0,0,0,0,0,0,0,0,

scooby_track_called 4385662
scooby_track_same_address 6473
scooby_track_evict 4378933

scooby_reward_demand_called 4385662
scooby_reward_demand_pt_not_found 4016410
scooby_reward_demand_pt_found 369252
scooby_reward_demand_pt_found_total 369252
scooby_reward_demand_has_reward 10
scooby_reward_train_called 3912496
scooby_reward_assign_reward_called 4378956
scooby_reward_no_pref 537647
scooby_reward_incorrect 3374849
scooby_reward_correct_untimely 301384
scooby_reward_correct_timely 67858
scooby_reward_out_of_bounds 97218
scooby_reward_tracker_hit 0

scooby_reward_none_low_bw 537647
scooby_reward_none_high_bw 0
scooby_reward_incorrect_low_bw 3374849
scooby_reward_incorrect_high_bw 0
scooby_reward_correct_untimely_low_bw 301384
scooby_reward_correct_untimely_high_bw 0
scooby_reward_correct_timely_low_bw 67858
scooby_reward_correct_timely_high_bw 0
scooby_reward_out_of_bounds_low_bw 97218
scooby_reward_out_of_bounds_high_bw 0
scooby_reward_tracker_hit_low_bw 0
scooby_reward_tracker_hit_high_bw 0

scooby_reward_1 0,3257572,298212,65555,60999,0,
scooby_reward_3 0,12789,527,265,1009,0,
scooby_reward_4 0,12203,496,284,1349,0,
scooby_reward_5 0,11619,481,316,1779,0,
scooby_reward_10 0,9182,285,274,2931,0,
scooby_reward_11 0,8939,296,274,3206,0,
scooby_reward_12 0,8357,251,274,3407,0,
scooby_reward_22 0,5510,157,156,4940,0,
scooby_reward_23 0,5261,142,126,4956,0,
scooby_reward_30 0,3668,79,102,5877,0,
scooby_reward_32 0,3330,65,118,6118,0,
scooby_reward_-1 0,12355,162,41,89,0,
scooby_reward_-3 0,12181,137,37,185,0,
scooby_reward_-6 0,11883,94,36,373,0,
scooby_reward_0 537647,0,0,0,0,0,

scooby_train_called 4378932
scooby_train_compute_reward 3912496

scooby_register_fill_called 3560678
scooby_register_fill_set 2989768
scooby_register_fill_set_total 2989768

scooby_register_prefetch_hit_called 1627093
scooby_register_prefetch_hit_set 719679
scooby_register_prefetch_hit_set_total 719679

scooby_pref_issue_scooby 5394112

learning_engine_featurewise.action.called 4385662
learning_engine_featurewise.action.explore 8023
learning_engine_featurewise.action.exploit 4377639
learning_engine_featurewise.action.fallback 3329532
learning_engine_featurewise.action.dyn_fallback_saved_bw 0
learning_engine_featurewise.action.dyn_fallback_saved_bw_acc 771274
learning_engine_featurewise.action.index_1_explored 541
learning_engine_featurewise.action.index_1_exploited 3684609
learning_engine_featurewise.action.index_3_explored 541
learning_engine_featurewise.action.index_3_exploited 14497
learning_engine_featurewise.action.index_4_explored 538
learning_engine_featurewise.action.index_4_exploited 14125
learning_engine_featurewise.action.index_5_explored 505
learning_engine_featurewise.action.index_5_exploited 13931
learning_engine_featurewise.action.index_10_explored 574
learning_engine_featurewise.action.index_10_exploited 12331
learning_engine_featurewise.action.index_11_explored 538
learning_engine_featurewise.action.index_11_exploited 12381
learning_engine_featurewise.action.index_12_explored 552
learning_engine_featurewise.action.index_12_exploited 11993
learning_engine_featurewise.action.index_22_explored 541
learning_engine_featurewise.action.index_22_exploited 10399
learning_engine_featurewise.action.index_23_explored 548
learning_engine_featurewise.action.index_23_exploited 10151
learning_engine_featurewise.action.index_30_explored 537
learning_engine_featurewise.action.index_30_exploited 9351
learning_engine_featurewise.action.index_32_explored 490
learning_engine_featurewise.action.index_32_exploited 9264
learning_engine_featurewise.action.index_-1_explored 540
learning_engine_featurewise.action.index_-1_exploited 12567
learning_engine_featurewise.action.index_-3_explored 523
learning_engine_featurewise.action.index_-3_exploited 12524
learning_engine_featurewise.action.index_-6_explored 520
learning_engine_featurewise.action.index_-6_exploited 12356
learning_engine_featurewise.action.index_0_explored 535
learning_engine_featurewise.action.index_0_exploited 537160
learning_engine_featurewise.learn.called 4378932
learning_engine_featurewise.learn.su_skip_PC 0
learning_engine_featurewise.learn.su_skip_PC_Delta 0

learning_engine_featurewise.q_value_histogram.bucket_0 685581
learning_engine_featurewise.q_value_histogram.bucket_1 34479
learning_engine_featurewise.q_value_histogram.bucket_2 3360230
learning_engine_featurewise.q_value_histogram.bucket_3 53408
learning_engine_featurewise.q_value_histogram.bucket_4 196560
learning_engine_featurewise.q_value_histogram.bucket_5 42601
learning_engine_featurewise.q_value_histogram.bucket_6 4780
learning_engine_featurewise.q_value_histogram.bucket_7 0

learning_engine_featurewise.consensus.total 4377639
learning_engine_featurewise.consensus.feature_align_PC 3688125
learning_engine_featurewise.consensus.feature_align_PC_ratio 0.84
learning_engine_featurewise.consensus.feature_align_PC_Delta 3721290
learning_engine_featurewise.consensus.feature_align_PC_Delta_ratio 0.85
learning_engine_featurewise.consensus.feature_align_all 3685576
learning_engine_featurewise.consensus.feature_align_all_ratio 0.84

learning_engine_featurewise.feature_PC_min_weight 1000000.00000000
learning_engine_featurewise.feature_PC_max_weight 0.00000000
learning_engine_featurewise.feature_PC_Delta_min_weight 1000000.00000000
learning_engine_featurewise.feature_PC_Delta_max_weight 0.00000000
unique_pcs 213
unique_pages 5303
unique_trigger_pcs 50
total_bitmaps_seen 0
unique_bitmaps_seen 0

scooby_bw_epochs 1104475
scooby_bw_level_0 871210
scooby_bw_level_1 204589
scooby_bw_level_2 21487
scooby_bw_level_3 7189

scooby_ipc_epochs 0
scooby_ipc_level_0 0
scooby_ipc_level_1 0
scooby_ipc_level_2 0
scooby_ipc_level_3 0

scooby_cache_acc_epochs 275765
scooby_cache_acc_level_0 116168
scooby_cache_acc_level_1 136955
scooby_cache_acc_level_2 19318
scooby_cache_acc_level_3 2579
scooby_cache_acc_level_4 389
scooby_cache_acc_level_5 247
scooby_cache_acc_level_6 33
scooby_cache_acc_level_7 24
scooby_cache_acc_level_8 16
scooby_cache_acc_level_9 36

Channel_0_RQ_row_buffer_hit 559644
Channel_0_RQ_row_buffer_miss 1484361
Channel_0_WQ_row_buffer_hit 81431
Channel_0_WQ_row_buffer_miss 109337
Channel_0_WQ_full 0
Channel_0_dbus_congested 791688

avg_congested_cycle 8

DRAM_bw_pochs 1104475
DRAM_bw_level_0 871210
DRAM_bw_level_1 204589
DRAM_bw_level_2 21487
DRAM_bw_level_3 7189
