*************************************************
   ChampSim Multicore Out-of-Order Simulator
   Last compiled: Apr  3 2025 20:54:34
*************************************************
parsing config file: /home/zir/Pythia/config/mlop.ini

trace_0 /home/zir/ChampSim/ML-DPC/ChampSimTraces/gap/pr-14.trace.gz
adding L2C_PREFETCHER: MLOP
Initialize SHIP state
warmup_instructions 10000000
simulation_instructions 50000000
champsim_seed 101
measure_ipc 0
measure_ipc_epoch 1000
measure_dram_bw 1
measure_dram_bw_epoch 256
measure_cache_acc 1
measure_cache_acc_epoch 1024
l1d_perfect 0
l2c_perfect 0
llc_perfect 0
l1d_semi_perfect 0
l2c_semi_perfect 0
llc_semi_perfect 0
semi_perfect_cache_page_buffer_size 64

num_cpus 1
cpu_freq 4000
dram_io_freq 2400
page_size 4096
block_size 64
max_read_per_cycle 8
max_fill_per_cycle 1
dram_channels 1
log2_dram_channels 0
dram_ranks 1
dram_banks 8
dram_rows 65536
dram_columns 128
dram_row_size 8
dram_size 4096
dram_pages 1048576

fetch_width 6
decode_width 6
exec_width 4
lq_width 2
sq_width 2
retire_width 4
scheduler_size 128
branch_mispredict_penalty 20
rob_size 256
lq_size 72
sq_size 56
num_instr_destinations_sparc 4
num_instr_destinations 2
num_instr_sources 4

itlb_set 16
itlb_way 8
itlb_rq_size 16
itlb_wq_size 16
itlb_pq_size 0
itlb_mshr_size 8
itlb_latency 1

dtlb_set 16
dtlb_way 4
dtlb_rq_size 16
dtlb_wq_size 16
dtlb_pq_size 0
dtlb_mshr_size 8
dtlb_latency 1

stlb_set 128
stlb_way 12
stlb_rq_size 32
stlb_wq_size 32
stlb_pq_size 0
stlb_mshr_size 16
stlb_latency 8

l1i_size 32
l1i_set 64
l1i_way 8
l1i_rq_size 64
l1i_wq_size 64
l1i_pq_size 8
l1i_mshr_size 8
l1i_latency 1

l1d_size 32
l1d_set 64
l1d_way 8
l1d_rq_size 64
l1d_wq_size 64
l1d_pq_size 8
l1d_mshr_size 16
l1d_latency 4

l2c_size 256
l2c_set 512
l2c_way 8
l2c_rq_size 32
l2c_wq_size 32
l2c_pq_size 32
l2c_mshr_size 32
l2c_latency 10

llc_size 2048
llc_set 2048
llc_way 16
llc_rq_size 32
llc_wq_size 32
llc_pq_size 32
llc_mshr_size 64
llc_latency 20

dram_channel_width 8
dram_wq_size 64
dram_rq_size 64
tRP 15
tRCD 15
tCAS 12.5
dram_dbus_turn_around_time 30
dram_write_high_wm 56
dram_write_low_wm 48
min_dram_writes_per_switch 16
dram_mtps 2400
dram_dbus_return_time 13

mlop_pref_degree 16
mlop_num_updates 500
mlop_l1d_thresh 2
mlop_l2c_thresh 0.75
mlop_llc_thresh 0.3
mlop_debug_level 0
mlop_blocks_in_cache 4096
mlop_blocks_in_zone 64
mlop_amt_size 2048
mlop_PF_DEGREE 16
mlop_NUM_UPDATES 500
mlop_L1D_THRESH 1000
mlop_L2C_THRESH 375
mlop_LLC_THRESH 150
mlop_ORIGIN 63
mlop_MAX_OFFSET 63
mlop_MIN_OFFSET -63
mlop_ORIGIN 63
mlop_NUM_OFFSETS 127


Heartbeat CPU  0 instructions:    1000001 cycles:     406292 heartbeat IPC: 2.46129 cumulative IPC: 2.46129 (Simulation time: 0 hr 0 min 2 sec) 
Heartbeat CPU  0 instructions:    2000001 cycles:     807648 heartbeat IPC: 2.49155 cumulative IPC: 2.47633 (Simulation time: 0 hr 0 min 3 sec) 
Heartbeat CPU  0 instructions:    3000003 cycles:    1209006 heartbeat IPC: 2.49155 cumulative IPC: 2.48138 (Simulation time: 0 hr 0 min 5 sec) 
Heartbeat CPU  0 instructions:    4000000 cycles:    1610364 heartbeat IPC: 2.49153 cumulative IPC: 2.48391 (Simulation time: 0 hr 0 min 6 sec) 
Heartbeat CPU  0 instructions:    5000001 cycles:    2011758 heartbeat IPC: 2.49132 cumulative IPC: 2.48539 (Simulation time: 0 hr 0 min 8 sec) 
Heartbeat CPU  0 instructions:    6000002 cycles:    2413116 heartbeat IPC: 2.49154 cumulative IPC: 2.48641 (Simulation time: 0 hr 0 min 9 sec) 
Heartbeat CPU  0 instructions:    7000002 cycles:    2814475 heartbeat IPC: 2.49153 cumulative IPC: 2.48714 (Simulation time: 0 hr 0 min 11 sec) 
Heartbeat CPU  0 instructions:    8000000 cycles:    3215833 heartbeat IPC: 2.49154 cumulative IPC: 2.48769 (Simulation time: 0 hr 0 min 12 sec) 
Heartbeat CPU  0 instructions:    9000001 cycles:    3617230 heartbeat IPC: 2.49130 cumulative IPC: 2.48809 (Simulation time: 0 hr 0 min 14 sec) 
Heartbeat CPU  0 instructions:   10000001 cycles:    4018587 heartbeat IPC: 2.49155 cumulative IPC: 2.48844 (Simulation time: 0 hr 0 min 15 sec) 

Warmup complete CPU  0 instructions:   10000001 cycles:    4018587 (Simulation time: 0 hr 0 min 15 sec) 

Heartbeat CPU  0 instructions:   11000002 cycles:    4768596 heartbeat IPC: 1.33332 cumulative IPC: 1.33332 (Simulation time: 0 hr 0 min 17 sec) 
Heartbeat CPU  0 instructions:   12000000 cycles:   16370771 heartbeat IPC: 0.08619 cumulative IPC: 0.16191 (Simulation time: 0 hr 0 min 23 sec) 
Heartbeat CPU  0 instructions:   13000002 cycles:   37064655 heartbeat IPC: 0.04832 cumulative IPC: 0.09078 (Simulation time: 0 hr 0 min 31 sec) 
Heartbeat CPU  0 instructions:   14000003 cycles:   57024947 heartbeat IPC: 0.05010 cumulative IPC: 0.07546 (Simulation time: 0 hr 0 min 40 sec) 
Heartbeat CPU  0 instructions:   15000000 cycles:   77074702 heartbeat IPC: 0.04988 cumulative IPC: 0.06844 (Simulation time: 0 hr 0 min 48 sec) 
Heartbeat CPU  0 instructions:   16000000 cycles:   97089897 heartbeat IPC: 0.04996 cumulative IPC: 0.06447 (Simulation time: 0 hr 0 min 58 sec) 
Heartbeat CPU  0 instructions:   17000000 cycles:  117051913 heartbeat IPC: 0.05010 cumulative IPC: 0.06193 (Simulation time: 0 hr 1 min 6 sec) 
Heartbeat CPU  0 instructions:   18000003 cycles:  136975443 heartbeat IPC: 0.05019 cumulative IPC: 0.06017 (Simulation time: 0 hr 1 min 15 sec) 
Heartbeat CPU  0 instructions:   19000002 cycles:  156796795 heartbeat IPC: 0.05045 cumulative IPC: 0.05891 (Simulation time: 0 hr 1 min 23 sec) 
Heartbeat CPU  0 instructions:   20000000 cycles:  176522997 heartbeat IPC: 0.05069 cumulative IPC: 0.05797 (Simulation time: 0 hr 1 min 32 sec) 
Heartbeat CPU  0 instructions:   21000002 cycles:  196441922 heartbeat IPC: 0.05020 cumulative IPC: 0.05717 (Simulation time: 0 hr 1 min 41 sec) 
Heartbeat CPU  0 instructions:   22000000 cycles:  216081027 heartbeat IPC: 0.05092 cumulative IPC: 0.05659 (Simulation time: 0 hr 1 min 49 sec) 
Heartbeat CPU  0 instructions:   23000001 cycles:  236091381 heartbeat IPC: 0.04997 cumulative IPC: 0.05602 (Simulation time: 0 hr 1 min 57 sec) 
Heartbeat CPU  0 instructions:   24000000 cycles:  255959036 heartbeat IPC: 0.05033 cumulative IPC: 0.05557 (Simulation time: 0 hr 2 min 5 sec) 
Heartbeat CPU  0 instructions:   25000002 cycles:  275951291 heartbeat IPC: 0.05002 cumulative IPC: 0.05516 (Simulation time: 0 hr 2 min 14 sec) 
Heartbeat CPU  0 instructions:   26000000 cycles:  295811585 heartbeat IPC: 0.05035 cumulative IPC: 0.05483 (Simulation time: 0 hr 2 min 23 sec) 
Heartbeat CPU  0 instructions:   27000002 cycles:  315717322 heartbeat IPC: 0.05024 cumulative IPC: 0.05454 (Simulation time: 0 hr 2 min 33 sec) 
Heartbeat CPU  0 instructions:   28000000 cycles:  335567622 heartbeat IPC: 0.05038 cumulative IPC: 0.05429 (Simulation time: 0 hr 2 min 45 sec) 
Heartbeat CPU  0 instructions:   29000000 cycles:  355645331 heartbeat IPC: 0.04981 cumulative IPC: 0.05403 (Simulation time: 0 hr 2 min 55 sec) 
Heartbeat CPU  0 instructions:   30000002 cycles:  375448509 heartbeat IPC: 0.05050 cumulative IPC: 0.05385 (Simulation time: 0 hr 3 min 3 sec) 
Heartbeat CPU  0 instructions:   31000000 cycles:  395197123 heartbeat IPC: 0.05064 cumulative IPC: 0.05368 (Simulation time: 0 hr 3 min 12 sec) 
Heartbeat CPU  0 instructions:   32000000 cycles:  414920370 heartbeat IPC: 0.05070 cumulative IPC: 0.05354 (Simulation time: 0 hr 3 min 20 sec) 
Heartbeat CPU  0 instructions:   33000000 cycles:  434954455 heartbeat IPC: 0.04991 cumulative IPC: 0.05337 (Simulation time: 0 hr 3 min 29 sec) 
Heartbeat CPU  0 instructions:   34000000 cycles:  455024324 heartbeat IPC: 0.04983 cumulative IPC: 0.05321 (Simulation time: 0 hr 3 min 37 sec) 
Heartbeat CPU  0 instructions:   35000003 cycles:  474988591 heartbeat IPC: 0.05009 cumulative IPC: 0.05308 (Simulation time: 0 hr 3 min 46 sec) 
Heartbeat CPU  0 instructions:   36000000 cycles:  494660524 heartbeat IPC: 0.05083 cumulative IPC: 0.05299 (Simulation time: 0 hr 3 min 54 sec) 
Heartbeat CPU  0 instructions:   37000000 cycles:  514563724 heartbeat IPC: 0.05024 cumulative IPC: 0.05288 (Simulation time: 0 hr 4 min 3 sec) 
Heartbeat CPU  0 instructions:   38000000 cycles:  534418582 heartbeat IPC: 0.05037 cumulative IPC: 0.05279 (Simulation time: 0 hr 4 min 11 sec) 
Heartbeat CPU  0 instructions:   39000001 cycles:  554337571 heartbeat IPC: 0.05020 cumulative IPC: 0.05270 (Simulation time: 0 hr 4 min 20 sec) 
Heartbeat CPU  0 instructions:   40000000 cycles:  574065368 heartbeat IPC: 0.05069 cumulative IPC: 0.05263 (Simulation time: 0 hr 4 min 28 sec) 
Heartbeat CPU  0 instructions:   41000003 cycles:  593679512 heartbeat IPC: 0.05098 cumulative IPC: 0.05257 (Simulation time: 0 hr 4 min 37 sec) 
Heartbeat CPU  0 instructions:   42000002 cycles:  613700510 heartbeat IPC: 0.04995 cumulative IPC: 0.05249 (Simulation time: 0 hr 4 min 45 sec) 
Heartbeat CPU  0 instructions:   43000000 cycles:  633584825 heartbeat IPC: 0.05029 cumulative IPC: 0.05242 (Simulation time: 0 hr 4 min 53 sec) 
Heartbeat CPU  0 instructions:   44000000 cycles:  653323233 heartbeat IPC: 0.05066 cumulative IPC: 0.05236 (Simulation time: 0 hr 5 min 1 sec) 
Heartbeat CPU  0 instructions:   45000003 cycles:  673207598 heartbeat IPC: 0.05029 cumulative IPC: 0.05230 (Simulation time: 0 hr 5 min 9 sec) 
Heartbeat CPU  0 instructions:   46000003 cycles:  693063255 heartbeat IPC: 0.05036 cumulative IPC: 0.05225 (Simulation time: 0 hr 5 min 17 sec) 
Heartbeat CPU  0 instructions:   47000003 cycles:  712963846 heartbeat IPC: 0.05025 cumulative IPC: 0.05219 (Simulation time: 0 hr 5 min 25 sec) 
Heartbeat CPU  0 instructions:   48000000 cycles:  732653728 heartbeat IPC: 0.05079 cumulative IPC: 0.05215 (Simulation time: 0 hr 5 min 33 sec) 
Heartbeat CPU  0 instructions:   49000000 cycles:  752268635 heartbeat IPC: 0.05098 cumulative IPC: 0.05212 (Simulation time: 0 hr 5 min 41 sec) 
Heartbeat CPU  0 instructions:   50000003 cycles:  772432048 heartbeat IPC: 0.04959 cumulative IPC: 0.05206 (Simulation time: 0 hr 5 min 49 sec) 
Heartbeat CPU  0 instructions:   51000001 cycles:  792133393 heartbeat IPC: 0.05076 cumulative IPC: 0.05202 (Simulation time: 0 hr 5 min 57 sec) 
Heartbeat CPU  0 instructions:   52000000 cycles:  811809014 heartbeat IPC: 0.05082 cumulative IPC: 0.05199 (Simulation time: 0 hr 6 min 5 sec) 
Heartbeat CPU  0 instructions:   53000000 cycles:  831561281 heartbeat IPC: 0.05063 cumulative IPC: 0.05196 (Simulation time: 0 hr 6 min 13 sec) 
Heartbeat CPU  0 instructions:   54000002 cycles:  851457485 heartbeat IPC: 0.05026 cumulative IPC: 0.05192 (Simulation time: 0 hr 6 min 20 sec) 
Heartbeat CPU  0 instructions:   55000001 cycles:  871313038 heartbeat IPC: 0.05036 cumulative IPC: 0.05189 (Simulation time: 0 hr 6 min 28 sec) 
Heartbeat CPU  0 instructions:   56000000 cycles:  891012028 heartbeat IPC: 0.05076 cumulative IPC: 0.05186 (Simulation time: 0 hr 6 min 36 sec) 
Heartbeat CPU  0 instructions:   57000003 cycles:  910793886 heartbeat IPC: 0.05055 cumulative IPC: 0.05183 (Simulation time: 0 hr 6 min 44 sec) 
Heartbeat CPU  0 instructions:   58000003 cycles:  930654722 heartbeat IPC: 0.05035 cumulative IPC: 0.05180 (Simulation time: 0 hr 6 min 52 sec) 
Heartbeat CPU  0 instructions:   59000001 cycles:  950536143 heartbeat IPC: 0.05030 cumulative IPC: 0.05177 (Simulation time: 0 hr 7 min 0 sec) 
Heartbeat CPU  0 instructions:   60000000 cycles:  970408910 heartbeat IPC: 0.05032 cumulative IPC: 0.05174 (Simulation time: 0 hr 7 min 8 sec) 
Finished CPU 0 instructions: 50000003 cycles: 966390389 cumulative IPC: 0.05174 (Simulation time: 0 hr 7 min 8 sec) 

ChampSim completed all CPUs

[ROI Statistics]
Core_0_instructions 50000003
Core_0_cycles 966390389
Core_0_IPC 0.05174

Core_0_branch_prediction_accuracy 96.84732
Core_0_branch_MPKI 5.92376
Core_0_average_ROB_occupancy_at_mispredict 133.65143

Core_0_L1D_total_access 16324904
Core_0_L1D_total_hit 7325989
Core_0_L1D_total_miss 8998915
Core_0_L1D_loads 15736302
Core_0_L1D_load_hit 6746121
Core_0_L1D_load_miss 8990181
Core_0_L1D_RFOs 588602
Core_0_L1D_RFO_hit 579868
Core_0_L1D_RFO_miss 8734
Core_0_L1D_prefetches 0
Core_0_L1D_prefetch_hit 0
Core_0_L1D_prefetch_miss 0
Core_0_L1D_writebacks 0
Core_0_L1D_writeback_hit 0
Core_0_L1D_writeback_miss 0
Core_0_L1D_prefetch_requested 0
Core_0_L1D_prefetch_dropped 0
Core_0_L1D_prefetch_issued 0
Core_0_L1D_prefetch_filled 0
Core_0_L1D_prefetch_useful 0
Core_0_L1D_prefetch_useless 0
Core_0_L1D_prefetch_late 0
Core_0_L1D_average_miss_latency 89.01219

Core_0_L1D_rq_access 19503774
Core_0_L1D_rq_forward 0
Core_0_L1D_rq_merged 3232040
Core_0_L1D_rq_to_cache 16271734
Core_0_L1D_rq_full 0

Core_0_L1D_wq_access 714219
Core_0_L1D_wq_forward 0
Core_0_L1D_wq_merged 0
Core_0_L1D_wq_to_cache 714219
Core_0_L1D_wq_full 0

Core_0_L1D_pq_access 0
Core_0_L1D_pq_forward 0
Core_0_L1D_pq_merged 0
Core_0_L1D_pq_to_cache 0
Core_0_L1D_pq_full 0

Core_0_L1D_acc_epochs 946639
Core_0_L1D_acc_level_0 946639
Core_0_L1D_acc_level_1 0
Core_0_L1D_acc_level_2 0
Core_0_L1D_acc_level_3 0
Core_0_L1D_acc_level_4 0
Core_0_L1D_acc_level_5 0
Core_0_L1D_acc_level_6 0
Core_0_L1D_acc_level_7 0
Core_0_L1D_acc_level_8 0
Core_0_L1D_acc_level_9 0

Core_0_L1I_total_access 9478984
Core_0_L1I_total_hit 9478982
Core_0_L1I_total_miss 2
Core_0_L1I_loads 9478984
Core_0_L1I_load_hit 9478982
Core_0_L1I_load_miss 2
Core_0_L1I_RFOs 0
Core_0_L1I_RFO_hit 0
Core_0_L1I_RFO_miss 0
Core_0_L1I_prefetches 0
Core_0_L1I_prefetch_hit 0
Core_0_L1I_prefetch_miss 0
Core_0_L1I_writebacks 0
Core_0_L1I_writeback_hit 0
Core_0_L1I_writeback_miss 0
Core_0_L1I_prefetch_requested 0
Core_0_L1I_prefetch_dropped 0
Core_0_L1I_prefetch_issued 0
Core_0_L1I_prefetch_filled 0
Core_0_L1I_prefetch_useful 0
Core_0_L1I_prefetch_useless 0
Core_0_L1I_prefetch_late 0
Core_0_L1I_average_miss_latency 117.50000

Core_0_L1I_rq_access 50000007
Core_0_L1I_rq_forward 0
Core_0_L1I_rq_merged 40521022
Core_0_L1I_rq_to_cache 9478985
Core_0_L1I_rq_full 0

Core_0_L1I_wq_access 0
Core_0_L1I_wq_forward 0
Core_0_L1I_wq_merged 0
Core_0_L1I_wq_to_cache 0
Core_0_L1I_wq_full 0

Core_0_L1I_pq_access 0
Core_0_L1I_pq_forward 0
Core_0_L1I_pq_merged 0
Core_0_L1I_pq_to_cache 0
Core_0_L1I_pq_full 0

Core_0_L1I_acc_epochs 946639
Core_0_L1I_acc_level_0 946639
Core_0_L1I_acc_level_1 0
Core_0_L1I_acc_level_2 0
Core_0_L1I_acc_level_3 0
Core_0_L1I_acc_level_4 0
Core_0_L1I_acc_level_5 0
Core_0_L1I_acc_level_6 0
Core_0_L1I_acc_level_7 0
Core_0_L1I_acc_level_8 0
Core_0_L1I_acc_level_9 0

Core_0_L2C_total_access 10546605
Core_0_L2C_total_hit 1925008
Core_0_L2C_total_miss 8621597
Core_0_L2C_loads 8990183
Core_0_L2C_load_hit 1891765
Core_0_L2C_load_miss 7098418
Core_0_L2C_RFOs 8734
Core_0_L2C_RFO_hit 0
Core_0_L2C_RFO_miss 8734
Core_0_L2C_prefetches 1513666
Core_0_L2C_prefetch_hit 5
Core_0_L2C_prefetch_miss 1513661
Core_0_L2C_writebacks 34022
Core_0_L2C_writeback_hit 33238
Core_0_L2C_writeback_miss 784
Core_0_L2C_prefetch_requested 2913203
Core_0_L2C_prefetch_dropped 0
Core_0_L2C_prefetch_issued 2913203
Core_0_L2C_prefetch_filled 1681165
Core_0_L2C_prefetch_useful 858333
Core_0_L2C_prefetch_useless 822244
Core_0_L2C_prefetch_late 7474
Core_0_L2C_average_miss_latency 87.26096

Core_0_L2C_rq_access 8998918
Core_0_L2C_rq_forward 0
Core_0_L2C_rq_merged 0
Core_0_L2C_rq_to_cache 8998917
Core_0_L2C_rq_full 0

Core_0_L2C_wq_access 34022
Core_0_L2C_wq_forward 1
Core_0_L2C_wq_merged 0
Core_0_L2C_wq_to_cache 34022
Core_0_L2C_wq_full 0

Core_0_L2C_pq_access 2913203
Core_0_L2C_pq_forward 0
Core_0_L2C_pq_merged 2
Core_0_L2C_pq_to_cache 2913201
Core_0_L2C_pq_full 0

Core_0_L2C_acc_epochs 946639
Core_0_L2C_acc_level_0 189142
Core_0_L2C_acc_level_1 174079
Core_0_L2C_acc_level_2 140535
Core_0_L2C_acc_level_3 144014
Core_0_L2C_acc_level_4 59786
Core_0_L2C_acc_level_5 102699
Core_0_L2C_acc_level_6 59966
Core_0_L2C_acc_level_7 34167
Core_0_L2C_acc_level_8 15256
Core_0_L2C_acc_level_9 26995

Core_0_LLC_total_access 9832971
Core_0_LLC_total_hit 6475319
Core_0_LLC_total_miss 3357652
Core_0_LLC_loads 7090944
Core_0_LLC_load_hit 4490703
Core_0_LLC_load_miss 2600241
Core_0_LLC_RFOs 8734
Core_0_LLC_RFO_hit 0
Core_0_LLC_RFO_miss 8734
Core_0_LLC_prefetches 2703870
Core_0_LLC_prefetch_hit 1965134
Core_0_LLC_prefetch_miss 738736
Core_0_LLC_writebacks 29423
Core_0_LLC_writeback_hit 19482
Core_0_LLC_writeback_miss 9941
Core_0_LLC_prefetch_requested 0
Core_0_LLC_prefetch_dropped 0
Core_0_LLC_prefetch_issued 0
Core_0_LLC_prefetch_filled 906241
Core_0_LLC_prefetch_useful 45775
Core_0_LLC_prefetch_useless 851549
Core_0_LLC_prefetch_late 484
Core_0_LLC_average_miss_latency 182.77531

Core_0_LLC_rq_access 7099678
Core_0_LLC_rq_forward 0
Core_0_LLC_rq_merged 0
Core_0_LLC_rq_to_cache 7099678
Core_0_LLC_rq_full 0

Core_0_LLC_wq_access 29423
Core_0_LLC_wq_forward 0
Core_0_LLC_wq_merged 0
Core_0_LLC_wq_to_cache 29423
Core_0_LLC_wq_full 0

Core_0_LLC_pq_access 2913184
Core_0_LLC_pq_forward 0
Core_0_LLC_pq_merged 1151
Core_0_LLC_pq_to_cache 2912033
Core_0_LLC_pq_full 0

Core_0_LLC_acc_epochs 947666
Core_0_LLC_acc_level_0 899210
Core_0_LLC_acc_level_1 18403
Core_0_LLC_acc_level_2 13937
Core_0_LLC_acc_level_3 2775
Core_0_LLC_acc_level_4 603
Core_0_LLC_acc_level_5 9126
Core_0_LLC_acc_level_6 1180
Core_0_LLC_acc_level_7 1025
Core_0_LLC_acc_level_8 304
Core_0_LLC_acc_level_9 1103

Core_0_major_page_fault 0
Core_0_minor_page_fault 12623

[MLOP] History of tracked zone:
IIIIIIIIIIIIIIIIIIIIIIIIIIIIIIIIIIIIIIIIIIIIIIIIIIIIIIIIIIIIIIII
A2222222222222222IIIIIIIIIIIIIIIIIIIIIIIIIIIIIIIIIIIIIIIIIIIIIII
AA2222222222222222IIIIIIIIIIIIIIIIIIIIIIIIIIIIIIIIIIIIIIIIIIIIII
AAA2222222222222222IIIIIIIIIIIIIIIIIIIIIIIIIIIIIIIIIIIIIIIIIIIII
AAAA2222222222222222IIIIIIIIIIIIIIIIIIIIIIIIIIIIIIIIIIIIIIIIIIII
AAAAA2222222222222222IIIIIIIIIIIIIIIIIIIIIIIIIIIIIIIIIIIIIIIIIII
AAAAAA2222222222222222IIIIIIIIIIIIIIIIIIIIIIIIIIIIIIIIIIIIIIIIII
AAAAAAA2222222222222222IIIIIIIIIIIIIIIIIIIIIIIIIIIIIIIIIIIIIIIII
AAAAAAAA2222222222222222IIIIIIIIIIIIIIIIIIIIIIIIIIIIIIIIIIIIIIII
AAAAAAAAA2222222222222222IIIIIIIIIIIIIIIIIIIIIIIIIIIIIIIIIIIIIII
AAAAAAAAAA2222222222222222IIIIIIIIIIIIIIIIIIIIIIIIIIIIIIIIIIIIII
AAAAAAAAAAA2222222222222222IIIIIIIIIIIIIIIIIIIIIIIIIIIIIIIIIIIII
AAAAAAAAAAAA2222222222222222IIIIIIIIIIIIIIIIIIIIIIIIIIIIIIIIIIII
AAAAAAAAAAAAA2222222222222222IIIIIIIIIIIIIIIIIIIIIIIIIIIIIIIIIII
AAAAAAAAAAAAAA2222222222222222IIIIIIIIIIIIIIIIIIIIIIIIIIIIIIIIII
AAAAAAAAAAAAAAA2222222222222222IIIIIIIIIIIIIIIIIIIIIIIIIIIIIIIII
AAAAAAAAAAAAAAAA2222222222222222IIIIIIIIIIIIIIIIIIIIIIIIIIIIIIII
AAAAAAAAAAAAAAAAA2222222222222222IIIIIIIIIIIIIIIIIIIIIIIIIIIIIII
AAAAAAAAAAAAAAAAAA2222222222222222IIIIIIIIIIIIIIIIIIIIIIIIIIIIII
AAAAAAAAAAAAAAAAAAA2222222222222222IIIIIIIIIIIIIIIIIIIIIIIIIIIII
AAAAAAAAAAAAAAAAAAAA2222222222222222IIIIIIIIIIIIIIIIIIIIIIIIIIII
AAAAAAAAAAAAAAAAAAAAA2222222222222222IIIIIIIIIIIIIIIIIIIIIIIIIII
AAAAAAAAAAAAAAAAAAAAAA2222222222222222IIIIIIIIIIIIIIIIIIIIIIIIII
AAAAAAAAAAAAAAAAAAAAAAA2222222222222222IIIIIIIIIIIIIIIIIIIIIIIII
AAAAAAAAAAAAAAAAAAAAAAAA2222222222222222IIIIIIIIIIIIIIIIIIIIIIII
AAAAAAAAAAAAAAAAAAAAAAAAA2222222222222222IIIIIIIIIIIIIIIIIIIIIII
AAAAAAAAAAAAAAAAAAAAAAAAAA2222222222222222IIIIIIIIIIIIIIIIIIIIII
AAAAAAAAAAAAAAAAAAAAAAAAAAA2222222222222222IIIIIIIIIIIIIIIIIIIII
AAAAAAAAAAAAAAAAAAAAAAAAAAAA2222222222222222IIIIIIIIIIIIIIIIIIII
AAAAAAAAAAAAAAAAAAAAAAAAAAAAA2222222222222222IIIIIIIIIIIIIIIIIII
AAAAAAAAAAAAAAAAAAAAAAAAAAAAAA2222222222222222IIIIIIIIIIIIIIIIII
AAAAAAAAAAAAAAAAAAAAAAAAAAAAAAA2222222222222222IIIIIIIIIIIIIIIII
AAAAAAAAAAAAAAAAAAAAAAAAAAAAAAAA2222222222222222IIIIIIIIIIIIIIII
AAAAAAAAAAAAAAAAAAAAAAAAAAAAAAAAA2222222222222222IIIIIIIIIIIIIII
AAAAAAAAAAAAAAAAAAAAAAAAAAAAAAAAAA2222222222222222IIIIIIIIIIIIII
AAAAAAAAAAAAAAAAAAAAAAAAAAAAAAAAAAA2222222222222222IIIIIIIIIIIII
AAAAAAAAAAAAAAAAAAAAAAAAAAAAAAAAAAAA2222222222222222IIIIIIIIIIII
AAAAAAAAAAAAAAAAAAAAAAAAAAAAAAAAAAAAA2222222222222222IIIIIIIIIII
AAAAAAAAAAAAAAAAAAAAAAAAAAAAAAAAAAAAAA2222222222222222IIIIIIIIII
AAAAAAAAAAAAAAAAAAAAAAAAAAAAAAAAAAAAAAA2222222222222222IIIIIIIII
AAAAAAAAAAAAAAAAAAAAAAAAAAAAAAAAAAAAAAAA2222222222222222IIIIIIII
AAAAAAAAAAAAAAAAAAAAAAAAAAAAAAAAAAAAAAAAA2222222222222222IIIIIII
AAAAAAAAAAAAAAAAAAAAAAAAAAAAAAAAAAAAAAAAAA2222222222222222IIIIII
AAAAAAAAAAAAAAAAAAAAAAAAAAAAAAAAAAAAAAAAAAA2222222222222222IIIII
AAAAAAAAAAAAAAAAAAAAAAAAAAAAAAAAAAAAAAAAAAAA2222222222222222IIII
AAAAAAAAAAAAAAAAAAAAAAAAAAAAAAAAAAAAAAAAAAAAA2222222222222222III
AAAAAAAAAAAAAAAAAAAAAAAAAAAAAAAAAAAAAAAAAAAAAA2222222222222222II
AAAAAAAAAAAAAAAAAAAAAAAAAAAAAAAAAAAAAAAAAAAAAAA2222222222222222I
AAAAAAAAAAAAAAAAAAAAAAAAAAAAAAAAAAAAAAAAAAAAAAAA2222222222222222
AAAAAAAAAAAAAAAAAAAAAAAAAAAAAAAAAAAAAAAAAAAAAAAAA222222222222222
AAAAAAAAAAAAAAAAAAAAAAAAAAAAAAAAAAAAAAAAAAAAAAAAAA22222222222222
AAAAAAAAAAAAAAAAAAAAAAAAAAAAAAAAAAAAAAAAAAAAAAAAAAA2222222222222
AAAAAAAAAAAAAAAAAAAAAAAAAAAAAAAAAAAAAAAAAAAAAAAAAAAA222222222222
AAAAAAAAAAAAAAAAAAAAAAAAAAAAAAAAAAAAAAAAAAAAAAAAAAAAA22222222222
AAAAAAAAAAAAAAAAAAAAAAAAAAAAAAAAAAAAAAAAAAAAAAAAAAAAAA2222222222
AAAAAAAAAAAAAAAAAAAAAAAAAAAAAAAAAAAAAAAAAAAAAAAAAAAAAAA222222222
AAAAAAAAAAAAAAAAAAAAAAAAAAAAAAAAAAAAAAAAAAAAAAAAAAAAAAAA22222222
AAAAAAAAAAAAAAAAAAAAAAAAAAAAAAAAAAAAAAAAAAAAAAAAAAAAAAAAA2222222
AAAAAAAAAAAAAAAAAAAAAAAAAAAAAAAAAAAAAAAAAAAAAAAAAAAAAAAAAA222222
AAAAAAAAAAAAAAAAAAAAAAAAAAAAAAAAAAAAAAAAAAAAAAAAAAAAAAAAAAA22222
AAAAAAAAAAAAAAAAAAAAAAAAAAAAAAAAAAAAAAAAAAAAAAAAAAAAAAAAAAAA2222
AAAAAAAAAAAAAAAAAAAAAAAAAAAAAAAAAAAAAAAAAAAAAAAAAAAAAAAAAAAAA222
AAAAAAAAAAAAAAAAAAAAAAAAAAAAAAAAAAAAAAAAAAAAAAAAAAAAAAAAAAAAAA22
AAAAAAAAAAAAAAAAAAAAAAAAAAAAAAAAAAAAAAAAAAAAAAAAAAAAAAAAAAAAAAA2
AAAAAAAAAAAAAAAAAAAAAAAAAAAAAAAAAAAAAAAAAAAAAAAAAAAAAAAAAAAAAAAA
AIAAAAAAAAAAAAAAAAAAAAAAAAAAAAAAAAAAAAAAAAAAAAAAAAAAAAAAAAAAAAAA
AIIAAAAAAAAAAAAAAAAAAAAAAAAAAAAAAAAAAAAAAAAAAAAAAAAAAAAAAAAAAAAA
AIIIAAAAAAAAAAAAAAAAAAAAAAAAAAAAAAAAAAAAAAAAAAAAAAAAAAAAAAAAAAAA
AIIIIAAAAAAAAAAAAAAAAAAAAAAAAAAAAAAAAAAAAAAAAAAAAAAAAAAAAAAAAAAA
AIIIIIAAAAAAAAAAAAAAAAAAAAAAAAAAAAAAAAAAAAAAAAAAAAAAAAAAAAAAAAAA
AIIIIIIAAAAAAAAAAAAAAAAAAAAAAAAAAAAAAAAAAAAAAAAAAAAAAAAAAAAAAAAA
AIIIIIIIAAAAAAAAAAAAAAAAAAAAAAAAAAAAAAAAAAAAAAAAAAAAAAAAAAAAAAAA
AIIIIIIIIAAAAAAAAAAAAAAAAAAAAAAAAAAAAAAAAAAAAAAAAAAAAAAAAAAAAAAA
AIIIIIIIIIAAAAAAAAAAAAAAAAAAAAAAAAAAAAAAAAAAAAAAAAAAAAAAAAAAAAAA
AIIIIIIIIIIAAAAAAAAAAAAAAAAAAAAAAAAAAAAAAAAAAAAAAAAAAAAAAAAAAAAA
AIIIIIIIIIIIAAAAAAAAAAAAAAAAAAAAAAAAAAAAAAAAAAAAAAAAAAAAAAAAAAAA
AIIIIIIIIIIIIAAAAAAAAAAAAAAAAAAAAAAAAAAAAAAAAAAAAAAAAAAAAAAAAAAA
AIIIIIIIIIIIIIAAAAAAAAAAAAAAAAAAAAAAAAAAAAAAAAAAAAAAAAAAAAAAAAAA
AIIIIIIIIIIIIIIAAAAAAAAAAAAAAAAAAAAAAAAAAAAAAAAAAAAAAAAAAAAAAAAA
AIIIIIIIIIIIIIIIAAAAAAAAAAAAAAAAAAAAAAAAAAAAAAAAAAAAAAAAAAAAAAAA
AIIIIIIIIIIIIIIIIAAAAAAAAAAAAAAAAAAAAAAAAAAAAAAAAAAAAAAAAAAAAAAA
AIIIIIIIIIIIIIIIIIAAAAAAAAAAAAAAAAAAAAAAAAAAAAAAAAAAAAAAAAAAAAAA
AIIIIIIIIIIIIIIIIIIAAAAAAAAAAAAAAAAAAAAAAAAAAAAAAAAAAAAAAAAAAAAA
AIIIIIIIIIIIIIIIIIIIAAAAAAAAAAAAAAAAAAAAAAAAAAAAAAAAAAAAAAAAAAAA
AIIIIIIIIIIIIIIIIIIIIAAAAAAAAAAAAAAAAAAAAAAAAAAAAAAAAAAAAAAAAAAA
AIIIIIIIIIIIIIIIIIIIIIAAAAAAAAAAAAAAAAAAAAAAAAAAAAAAAAAAAAAAAAAA
AIIIIIIIIIIIIIIIIIIIIIIAAAAAAAAAAAAAAAAAAAAAAAAAAAAAAAAAAAAAAAAA
AIIIIIIIIIIIIIIIIIIIIIIIAAAAAAAAAAAAAAAAAAAAAAAAAAAAAAAAAAAAAAAA
AIIIIIIIIIIIIIIIIIIIIIIIIAAAAAAAAAAAAAAAAAAAAAAAAAAAAAAAAAAAAAAA
AIIIIIIIIIIIIIIIIIIIIIIIIIAAAAAAAAAAAAAAAAAAAAAAAAAAAAAAAAAAAAAA
AIIIIIIIIIIIIIIIIIIIIIIIIIIAAAAAAAAAAAAAAAAAAAAAAAAAAAAAAAAAAAAA
AIIIIIIIIIIIIIIIIIIIIIIIIIIIAAAAAAAAAAAAAAAAAAAAAAAAAAAAAAAAAAAA
AIIIIIIIIIIIIIIIIIIIIIIIIIIIIAAAAAAAAAAAAAAAAAAAAAAAAAAAAAAAAAAA
AIIIIIIIIIIIIIIIIIIIIIIIIIIIIIAAAAAAAAAAAAAAAAAAAAAAAAAAAAAAAAAA
AIIIIIIIIIIIIIIIIIIIIIIIIIIIIIIAAAAAAAAAAAAAAAAAAAAAAAAAAAAAAAAA
AIIIIIIIIIIIIIIIIIIIIIIIIIIIIIIIAAAAAAAAAAAAAAAAAAAAAAAAAAAAAAAA
AIIIIIIIIIIIIIIIIIIIIIIIIIIIIIIIIAAAAAAAAAAAAAAAAAAAAAAAAAAAAAAA
AIIIIIIIIIIIIIIIIIIIIIIIIIIIIIIIIIAAAAAAAAAAAAAAAAAAAAAAAAAAAAAA
AIIIIIIIIIIIIIIIIIIIIIIIIIIIIIIIIIIAAAAAAAAAAAAAAAAAAAAAAAAAAAAA
AIIIIIIIIIIIIIIIIIIIIIIIIIIIIIIIIIIIAAAAAAAAAAAAAAAAAAAAAAAAAAAA
AIIIIIIIIIIIIIIIIIIIIIIIIIIIIIIIIIIIIAAAAAAAAAAAAAAAAAAAAAAAAAAA
AIIIIIIIIIIIIIIIIIIIIIIIIIIIIIIIIIIIIIAAAAAAAAAAAAAAAAAAAAAAAAAA
AIIIIIIIIIIIIIIIIIIIIIIIIIIIIIIIIIIIIIIAAAAAAAAAAAAAAAAAAAAAAAAA
AIIIIIIIIIIIIIIIIIIIIIIIIIIIIIIIIIIIIIIIAAAAAAAAAAAAAAAAAAAAAAAA
AIIIIIIIIIIIIIIIIIIIIIIIIIIIIIIIIIIIIIIIIAAAAAAAAAAAAAAAAAAAAAAA
AIIIIIIIIIIIIIIIIIIIIIIIIIIIIIIIIIIIIIIIIIAAAAAAAAAAAAAAAAAAAAAA
AIIIIIIIIIIIIIIIIIIIIIIIIIIIIIIIIIIIIIIIIIIAAAAAAAAAAAAAAAAAAAAA
AIIIIIIIIIIIIIIIIIIIIIIIIIIIIIIIIIIIIIIIIIIIAAAAAAAAAAAAAAAAAAAA
AIIIIIIIIIIIIIIIIIIIIIIIIIIIIIIIIIIIIIIIIIIIIAAAAAAAAAAAAAAAAAAA
AIIIIIIIIIIIIIIIIIIIIIIIIIIIIIIIIIIIIIIIIIIIIIAAAAAAAAAAAAAAAAAA
AIIIIIIIIIIIIIIIIIIIIIIIIIIIIIIIIIIIIIIIIIIIIIIAAAAAAAAAAAAAAAAA
AIIIIIIIIIIIIIIIIIIIIIIIIIIIIIIIIIIIIIIIIIIIIIIIAAAAAAAAAAAAAAAA
AIIIIIIIIIIIIIIIIIIIIIIIIIIIIIIIIIIIIIIIIIIIIIIIIAAAAAAAAAAAAAAA
AIIIIIIIIIIIIIIIIIIIIIIIIIIIIIIIIIIIIIIIIIIIIIIIIIAAAAAAAAAAAAAA
AIIIIIIIIIIIIIIIIIIIIIIIIIIIIIIIIIIIIIIIIIIIIIIIIIIAAAAAAAAAAAAA
AIIIIIIIIIIIIIIIIIIIIIIIIIIIIIIIIIIIIIIIIIIIIIIIIIIIAAAAAAAAAAAA
AIIIIIIIIIIIIIIIIIIIIIIIIIIIIIIIIIIIIIIIIIIIIIIIIIIIIAAAAAAAAAAA
AIIIIIIIIIIIIIIIIIIIIIIIIIIIIIIIIIIIIIIIIIIIIIIIIIIIIIAAAAAAAAAA
AIIIIIIIIIIIIIIIIIIIIIIIIIIIIIIIIIIIIIIIIIIIIIIIIIIIIIIAAAAAAAAA
AIIIIIIIIIIIIIIIIIIIIIIIIIIIIIIIIIIIIIIIIIIIIIIIIIIIIIIIAAAAAAAA
AIIIIIIIIIIIIIIIIIIIIIIIIIIIIIIIIIIIIIIIIIIIIIIIIIIIIIIIIAAAAAAA
AIIIIIIIIIIIIIIIIIIIIIIIIIIIIIIIIIIIIIIIIIIIIIIIIIIIIIIIIIAAAAAA
AIIIIIIIIIIIIIIIIIIIIIIIIIIIIIIIIIIIIIIIIIIIIIIIIIIIIIIIIIIAAAAA
AIIIIIIIIIIIIIIIIIIIIIIIIIIIIIIIIIIIIIIIIIIIIIIIIIIIIIIIIIIIAAAA
AIIIIIIIIIIIIIIIIIIIIIIIIIIIIIIIIIIIIIIIIIIIIIIIIIIIIIIIIIIIIAAA
AIIIIIIIIIIIIIIIIIIIIIIIIIIIIIIIIIIIIIIIIIIIIIIIIIIIIIIIIIIIIIAA
AIIIIIIIIIIIIIIIIIIIIIIIIIIIIIIIIIIIIIIIIIIIIIIIIIIIIIIIIIIIIIIA
AIIIIIIIIIIIIIIIIIIIIIIIIIIIIIIIIIIIIIIIIIIIIIIIIIIIIIIIIIIIIIII
AI2IIIII2II444I44IIIIIIIIIIIIIIIIIIIIIIIIIIIIIIIIIIIIIIIIIIIIIII
AA2222I42II444444I4IIIIIIIIIIIIIIIIIIIIIIIIIIIIIIIIIIIIIIIIIIIII
AAA2222424I444444444IIIIIIIIIIIIIIIIIIIIIIIIIIIIIIIIIIIIIIIIIIII
AAAA22222444444444444IIIIIIIIIIIIIIIIIIIIIIIIIIIIIIIIIIIIIIIIIII
AAAAA22224444444444444IIIIIIIIIIIIIIIIIIIIIIIIIIIIIIIIIIIIIIIIII
AAAAAA22224444444444444IIIIIIIIIIIIIIIIIIIIIIIIIIIIIIIIIIIIIIIII
AAAAAAA22224444444444444IIIIIIIIIIIIIIIIIIIIIIIIIIIIIIIIIIIIIIII
AAAAAAAA22224444444444444IIIIIIIIIIIIIIIIIIIIIIIIIIIIIIIIIIIIIII
AAAAAAAAA22224444444444444IIIIIIIIIIIIIIIIIIIIIIIIIIIIIIIIIIIIII
AAAAAAAAAA22224444444444444IIIIIIIIIIIIIIIIIIIIIIIIIIIIIIIIIIIII
AAAAAAAAAAA22224444444444444IIIIIIIIIIIIIIIIIIIIIIIIIIIIIIIIIIII
AAAAAAAAAAAA22224444444444444IIIIIIIIIIIIIIIIIIIIIIIIIIIIIIIIIII
AAAAAAAAAAAA222222444444444444IIIIIIIIIIIIIIIIIIIIIIIIIIIIIIIIII
AAAAAAAAAAAAA222222444444444444IIIIIIIIIIIIIIIIIIIIIIIIIIIIIIIII
AAAAAAAAAAAAAA222222444444444444IIIIIIIIIIIIIIIIIIIIIIIIIIIIIIII
AAAAAAAAAAAAAAA222222444444444444IIIIIIIIIIIIIIIIIIIIIIIIIIIIIII
AAAAAAAAAAAAAAAI22222444444444444IIIIIIIIIIIIIIIIIIIIIIIIIIIIIII
AAAAAAAAAAAAAAA222222444444444444IIIIIIIIIIIIIIIIIIIIIIIIIIIIIII
AAAAAAAAAAAAAAAA22222444444444444IIIIIIIIIIIIIIIIIIIIIIIIIIIIIII
AAAAAAAAAAAIAAAA22222444444444444IIIIIIIIIIIIIIIIIIIIIIIIIIIIIII
AAAAAAAAAAAIAAAAA2222244444444444IIIIIIIIIIIIIIIIIIIIIIIIIIIIIII
AAAAAAAAAAAIAAAAAA2222244444444444IIIIIIIIIIIIIIIIIIIIIIIIIIIIII
AAAAAAAAAAAIAAAAAAA2222244444444444IIIIIIIIIIIIIIIIIIIIIIIIIIIII
AAAAAAAAAAAIAAAAAAAA2222424444444444IIIIIIIIIIIIIIIIIIIIIIIIIIII
AAAAAAAAAAAIAAAAAAAAA2222224444444444IIIIIIIIIIIIIIIIIIIIIIIIIII
AAAAAAAAAAAIAAAAAAAAAA2222244444444444IIIIIIIIIIIIIIIIIIIIIIIIII
AAAAAAAAAAAIAAAAAAAAAAA2222444444444444IIIIIIIIIIIIIIIIIIIIIIIII
AAAAAAAAAAAIAAAAAAAAAAAA2222444444444444IIIIIIIIIIIIIIIIIIIIIIII
AAAAAAAAAAAIAAAAAAAAAAAAA2222444444444444IIIIIIIIIIIIIIIIIIIIIII
AAAAAAAAAAAIAAAAAAAAAAAAAA2222424444444444IIIIIIIIIIIIIIIIIIIIII
AAAAAAAAAAAIAAAAAAAAAAAAAAA2222224444444444IIIIIIIIIIIIIIIIIIIII
AAAAAAAAAAAIAAAAAAAAAAAAAAAA2222224444444444IIIIIIIIIIIIIIIIIIII
AAAAAAAAAAAIAAAAAAAAAAAAAAAAA2222224444444444IIIIIIIIIIIIIIIIIII
AAAAAAAAAAAIAAAAAAAAAAAAAAAAAA2222224444444444IIIIIIIIIIIIIIIIII
AAAAAAAAAAAIAAAAAAAAAAAAAAAAAA2222I24444444444IIIIIIIIIIIIIIIIII
AAAAAAAAAAAIAAAAAAAAAAAAAAAAAAA2222224444444444IIIIIIIIIIIIIIIII
AAAAAAAAAAAIAAAAAAAAAAAAAAAAAAAA2222224444444444IIIIIIIIIIIIIIII
AAAAAAAAAAAIAAAAAAAAAAAAAAAAAAAAA2222224444444444IIIIIIIIIIIIIII
AAAAAAAAAAAIAAAAAAAAAAAAAAAAAAAAAA2222224444444444IIIIIIIIIIIIII
AAAAAAAAAAAIAAAAAAAAAAAAAAAAAAAAAAA2222224444444444IIIIIIIIIIIII
AAAAAAAAAAAIAAAAAAAAAAAAAAAAAAAAAAAA222222444444444II4IIIIIIIIII
AAAAAAAAAAAIAAAAAAAAAAAAAAAAAAAAAAAAA222222444444444I44IIIIIIIII
AAAAAAAAAAAIAAAAAAAAAAAAAAAAAAAAAAAAAA222222444444444444IIIIIIII
AAAAAAAAAAAIAAAAAAAAAAAAAAAAAAAAAAAAAAA222222444444444444IIIIIII
AAAAAAAAAAAIAAAAAAAAAAAAAAAAAAAAAAAAAAAA222222444444444444IIIIII
AAAAAAAAAAAIAAAAAAAAAAAAAAAAAAAAAAAAAAAAA222222444444444444IIIII
AAAAAAAAAAAIAAAAAAAAAAAAAAAAAAAAAAAAAAAAAA222222444444444444IIII
AAAAAAAAAAAIAAAAAAAAAAAAAAAAAAAAAAAAAAAAAAA22222444444444444IIII
AAAAAAAAAAAIAAAAAAAAAAAAAAAAAAAAAAAAAAAAAAAA2222244444444444IIII
AAAAAAAAAAAIAAAAAAAAAAAAAAAAAAAAAAAAAAAAAAAAA2222244444444444III
AAAAAAAAAAAIAAAAAAAAAAAAAAAAAAAAAAAAAAAAAAAAAA2222244444444444II
AAAAAAAAAAAIAAAAAAAAAAAAAAAAAAAAAAAAAAAAAAAAAAA2222244444444444I
AAAAAAAAAAAIAAAAAAAAAAAAAAAAAAAAAAAAAAAAAAAAAAAA2222244444444444
AAAAAAAAAAAIAAAAAAAAAAAAAAAAAAAAAAAAAAAAAAAAAAAAA222224444444444
AAAAAAAAAAAIAAAAAAAAAAAAAAAAAAAAAAAAAAAAAAAAAAAAAA22222444444444
AAAAAAAAAAAIAAAAAAAAAAAAAAAAAAAAAAAAAAAAAAAAAAAAAAA2222244444444
AAAAAAAAAAAIAAAAAAAAAAAAAAAAAAAAAAAAAAAAAAAAAAAAAAAA222224444444
AAAAAAAAAAAIAAAAAAAAAAAAAAAAAAAAAAAAAAAAAAAAAAAAAAAAA22224244444
AAAAAAAAAAAIAAAAAAAAAAAAAAAAAAAAAAAAAAAAAAAAIAAAAAAAA22224244444
AAAAAAAAAAAIAAAAAAAAAAAAAAAAAAAAAAAAAAAAAAAAIAAAAAAAAA2222224444
AAAAAAAAAAAIAAAAAAAAAAAAAAAAAAAAAAAAAAAAAAAAIAAAAAAAAAA222222444
AAAAAAAAAAAIAAAAAAAAAAAAAAAAAAAAAAAAAAAAAAAAIAAAAAAAAAAA22222244
AAAAAAAAAAAIAAAAAAAAAAAAAAAAAAAAAAAAAAAAAAAAIAAAAAAAAAAAA2222224
AAAAAAAAAAAIAAAAAAAAAAAAAAAAAAAAAAAAAAAAAAAAIAAAAAAAAAAAAA222224
AAAAAAAAAAAIAAAAAAAAAAAAAAAAAAAAAAAAAAAAAAAAIAAAAAAAAAAAAAA22224
AAAAAAAAAAAIAAAAAAAAAAAAAAAAAAAAAAAAAAAAAAAAIAAAAAAAAAAAAAAA2222
AAAAAAAAAAAIAAAAAAAAAAAAAAAAAAAAAAAAAAAAAAAAIAAAAAAAAAAAAAAAA222
AAAAAAAAAAAIAAAAAAAAAAAAAAAAAAAAAAAAAAAAAAAAIAAAAAAAAAAAAAAAAA22
AAAAAAAAAAAIAAAAAAAAAAAAAAAAAAAAAAAAAAAAAAAAIAAAAAAAAAAAAAAAAAA2
AAAAAAAAAAAIAAAAAAAAAAAAAAAAAAAAAAAAAAAAAAAAIAAAAAAAAAAAAAAAAAAA
AAAAAAAAAAAIAAAAAAAAAAAAAAAAAAAAAAAAAAAAAAAAIAAAAAAAAAAAAAAAIAAA
AAAAAAAAAAAIAAAAAAAAAAAAAAAAAAAAAAAAAAAAAAAAIAAAAAAAAAAAAAAAIAAI
[MLOP] Prefetch Degree Mean: 11.36569
[MLOP] Prefetch Degree SD: 2.48721
[MLOP] Max Score Left Mean (%): 60.10241
[MLOP] Max Score Left SD (%): 8.52451
[MLOP] Max Score Right Mean (%): 87.31924
[MLOP] Max Score Right SD (%): 8.62543

Channel_0_RQ_row_buffer_hit 467472
Channel_0_RQ_row_buffer_miss 2880205
Channel_0_WQ_row_buffer_hit 12415
Channel_0_WQ_row_buffer_miss 26552
Channel_0_WQ_full 614
Channel_0_dbus_congested 292261

avg_congested_cycle 8

DRAM_bw_pochs 3790661
DRAM_bw_level_0 3743449
DRAM_bw_level_1 31103
DRAM_bw_level_2 9603
DRAM_bw_level_3 6506
