*************************************************
   ChampSim Multicore Out-of-Order Simulator
   Last compiled: Apr  3 2025 20:54:34
*************************************************
parsing config file: /home/zir/Pythia/config/pythia.ini

trace_0 /home/zir/ChampSim/ML-DPC/ChampSimTraces/gap/bfs-3.trace.gz
adding L2C_PREFETCHER: Scooby
Initialize SHIP state
warmup_instructions 10000000
simulation_instructions 50000000
champsim_seed 51
measure_ipc 0
measure_ipc_epoch 1000
measure_dram_bw 1
measure_dram_bw_epoch 256
measure_cache_acc 1
measure_cache_acc_epoch 1024
l1d_perfect 0
l2c_perfect 0
llc_perfect 0
l1d_semi_perfect 0
l2c_semi_perfect 0
llc_semi_perfect 0
semi_perfect_cache_page_buffer_size 64

num_cpus 1
cpu_freq 4000
dram_io_freq 2400
page_size 4096
block_size 64
max_read_per_cycle 8
max_fill_per_cycle 1
dram_channels 1
log2_dram_channels 0
dram_ranks 1
dram_banks 8
dram_rows 65536
dram_columns 128
dram_row_size 8
dram_size 4096
dram_pages 1048576

fetch_width 6
decode_width 6
exec_width 4
lq_width 2
sq_width 2
retire_width 4
scheduler_size 128
branch_mispredict_penalty 20
rob_size 256
lq_size 72
sq_size 56
num_instr_destinations_sparc 4
num_instr_destinations 2
num_instr_sources 4

itlb_set 16
itlb_way 8
itlb_rq_size 16
itlb_wq_size 16
itlb_pq_size 0
itlb_mshr_size 8
itlb_latency 1

dtlb_set 16
dtlb_way 4
dtlb_rq_size 16
dtlb_wq_size 16
dtlb_pq_size 0
dtlb_mshr_size 8
dtlb_latency 1

stlb_set 128
stlb_way 12
stlb_rq_size 32
stlb_wq_size 32
stlb_pq_size 0
stlb_mshr_size 16
stlb_latency 8

l1i_size 32
l1i_set 64
l1i_way 8
l1i_rq_size 64
l1i_wq_size 64
l1i_pq_size 8
l1i_mshr_size 8
l1i_latency 1

l1d_size 32
l1d_set 64
l1d_way 8
l1d_rq_size 64
l1d_wq_size 64
l1d_pq_size 8
l1d_mshr_size 16
l1d_latency 4

l2c_size 256
l2c_set 512
l2c_way 8
l2c_rq_size 32
l2c_wq_size 32
l2c_pq_size 32
l2c_mshr_size 32
l2c_latency 10

llc_size 2048
llc_set 2048
llc_way 16
llc_rq_size 32
llc_wq_size 32
llc_pq_size 32
llc_mshr_size 64
llc_latency 20

dram_channel_width 8
dram_wq_size 64
dram_rq_size 64
tRP 15
tRCD 15
tCAS 12.5
dram_dbus_turn_around_time 30
dram_write_high_wm 56
dram_write_low_wm 48
min_dram_writes_per_switch 16
dram_mtps 2400
dram_dbus_return_time 13

scooby_alpha 0.0065088
scooby_gamma 0.556301
scooby_epsilon 0.00182284
scooby_state_num_bits 10
scooby_max_states 1024
scooby_seed 200
scooby_policy EGreedy
scooby_learning_type SARSA
scooby_actions 1,3,4,5,10,11,12,22,23,30,32,-1,-3,-6,0,
scooby_max_actions 15
scooby_pt_size 256
scooby_st_size 64
scooby_max_pcs 5
scooby_max_offsets 5
scooby_max_deltas 5
scooby_reward_none -4
scooby_reward_incorrect -8
scooby_reward_correct_untimely 12
scooby_reward_correct_timely 20
scooby_brain_zero_init 0
scooby_enable_reward_all 0
scooby_enable_track_multiple 0
scooby_enable_reward_out_of_bounds 1
scooby_reward_out_of_bounds -12
scooby_state_type 1
scooby_state_hash_type 11
scooby_access_debug 0
scooby_print_access_debug 0
scooby_print_access_debug_pc deadbeef
scooby_print_access_debug_pc_count 0
scooby_print_trace 0
scooby_enable_state_action_stats 1
scooby_enable_reward_tracker_hit 0
scooby_reward_tracker_hit -2
scooby_enable_featurewise_engine 1
scooby_pref_degree 1
scooby_enable_dyn_degree 1
scooby_max_to_avg_q_thresholds 0.5,1,2,
scooby_dyn_degrees 1,2,4,4,
scooby_multi_deg_select_type 2
scooby_last_pref_offset_conf_thresholds 1,3,8,
scooby_dyn_degrees_type2 1,2,4,6,
scooby_action_tracker_size 2
scooby_high_bw_thresh 4
scooby_enable_hbw_reward 1
scooby_reward_hbw_correct_timely 20
scooby_reward_hbw_correct_untimely 12
scooby_reward_hbw_incorrect -14
scooby_reward_hbw_none -2
scooby_reward_hbw_out_of_bounds -12
scooby_reward_hbw_tracker_hit -2
scooby_last_pref_offset_conf_thresholds_hbw 1,3,8,
scooby_dyn_degrees_type2_hbw 1,2,4,6,

le_enable_trace 0
le_trace_interval 0
le_trace_file_name 
le_trace_state 0
le_enable_score_plot 0
le_plot_file_name 
le_plot_actions 
le_enable_action_trace 0
le_action_trace_interval 0
le_action_trace_name 
le_enable_action_plot 0

le_featurewise_active_features PC, PC_Delta
le_featurewise_num_tilings 3,3,
le_featurewise_num_tiles 128,128,
le_featurewise_hash_types 2,2,
le_featurewise_enable_tiling_offset 1,1,
le_featurewise_max_q_thresh 0.5
le_featurewise_enable_action_fallback 1
le_featurewise_feature_weights 1,1,
le_featurewise_enable_dynamic_weight 0
le_featurewise_weight_gradient 0.001
le_featurewise_disable_adjust_weight_all_features_align 1
le_featurewise_selective_update 0
le_featurewise_pooling_type 2
le_featurewise_enable_dyn_action_fallback 1
le_featurewise_bw_acc_check_level 1
le_featurewise_acc_thresh 2
le_featurewise_enable_trace 0
le_featurewise_trace_feature_type 0
le_featurewise_trace_feature 
le_featurewise_trace_interval 0
le_featurewise_trace_record_count 0
le_featurewise_trace_file_name 
le_featurewise_enable_score_plot 0
le_featurewise_plot_actions 
le_featurewise_plot_file_name 


Heartbeat CPU  0 instructions:    1000000 cycles:    1371716 heartbeat IPC: 0.72901 cumulative IPC: 0.72901 (Simulation time: 0 hr 0 min 1 sec) 
Heartbeat CPU  0 instructions:    2000001 cycles:    2748951 heartbeat IPC: 0.72609 cumulative IPC: 0.72755 (Simulation time: 0 hr 0 min 2 sec) 
Heartbeat CPU  0 instructions:    3000000 cycles:    4131015 heartbeat IPC: 0.72355 cumulative IPC: 0.72621 (Simulation time: 0 hr 0 min 3 sec) 
Heartbeat CPU  0 instructions:    4000000 cycles:    5512859 heartbeat IPC: 0.72367 cumulative IPC: 0.72558 (Simulation time: 0 hr 0 min 4 sec) 
Heartbeat CPU  0 instructions:    5000000 cycles:    6883699 heartbeat IPC: 0.72948 cumulative IPC: 0.72635 (Simulation time: 0 hr 0 min 5 sec) 
Heartbeat CPU  0 instructions:    6000002 cycles:    8266094 heartbeat IPC: 0.72338 cumulative IPC: 0.72586 (Simulation time: 0 hr 0 min 6 sec) 
Heartbeat CPU  0 instructions:    7000001 cycles:    9636163 heartbeat IPC: 0.72989 cumulative IPC: 0.72643 (Simulation time: 0 hr 0 min 7 sec) 
Heartbeat CPU  0 instructions:    8000000 cycles:   11003721 heartbeat IPC: 0.73123 cumulative IPC: 0.72703 (Simulation time: 0 hr 0 min 8 sec) 
Heartbeat CPU  0 instructions:    9000001 cycles:   12375461 heartbeat IPC: 0.72900 cumulative IPC: 0.72725 (Simulation time: 0 hr 0 min 9 sec) 
Heartbeat CPU  0 instructions:   10000003 cycles:   13737482 heartbeat IPC: 0.73420 cumulative IPC: 0.72794 (Simulation time: 0 hr 0 min 10 sec) 

Warmup complete CPU  0 instructions:   10000003 cycles:   13737482 (Simulation time: 0 hr 0 min 10 sec) 

Heartbeat CPU  0 instructions:   11000001 cycles:   17204394 heartbeat IPC: 0.28844 cumulative IPC: 0.28844 (Simulation time: 0 hr 0 min 12 sec) 
Heartbeat CPU  0 instructions:   12000000 cycles:   20865858 heartbeat IPC: 0.27311 cumulative IPC: 0.28057 (Simulation time: 0 hr 0 min 14 sec) 
Heartbeat CPU  0 instructions:   13000002 cycles:   24443974 heartbeat IPC: 0.27948 cumulative IPC: 0.28020 (Simulation time: 0 hr 0 min 16 sec) 
Heartbeat CPU  0 instructions:   14000000 cycles:   27956145 heartbeat IPC: 0.28472 cumulative IPC: 0.28132 (Simulation time: 0 hr 0 min 19 sec) 
Heartbeat CPU  0 instructions:   15000000 cycles:   31414360 heartbeat IPC: 0.28917 cumulative IPC: 0.28286 (Simulation time: 0 hr 0 min 21 sec) 
Heartbeat CPU  0 instructions:   16000000 cycles:   34899574 heartbeat IPC: 0.28693 cumulative IPC: 0.28353 (Simulation time: 0 hr 0 min 23 sec) 
Heartbeat CPU  0 instructions:   17000002 cycles:   38374397 heartbeat IPC: 0.28779 cumulative IPC: 0.28413 (Simulation time: 0 hr 0 min 25 sec) 
Heartbeat CPU  0 instructions:   18000000 cycles:   41842568 heartbeat IPC: 0.28834 cumulative IPC: 0.28465 (Simulation time: 0 hr 0 min 27 sec) 
Heartbeat CPU  0 instructions:   19000000 cycles:   45310393 heartbeat IPC: 0.28837 cumulative IPC: 0.28505 (Simulation time: 0 hr 0 min 29 sec) 
Heartbeat CPU  0 instructions:   20000000 cycles:   48771473 heartbeat IPC: 0.28893 cumulative IPC: 0.28544 (Simulation time: 0 hr 0 min 31 sec) 
Heartbeat CPU  0 instructions:   21000001 cycles:   52202741 heartbeat IPC: 0.29144 cumulative IPC: 0.28597 (Simulation time: 0 hr 0 min 33 sec) 
Heartbeat CPU  0 instructions:   22000000 cycles:   55679339 heartbeat IPC: 0.28764 cumulative IPC: 0.28611 (Simulation time: 0 hr 0 min 35 sec) 
Heartbeat CPU  0 instructions:   23000002 cycles:   59140560 heartbeat IPC: 0.28892 cumulative IPC: 0.28632 (Simulation time: 0 hr 0 min 37 sec) 
Heartbeat CPU  0 instructions:   24000000 cycles:   62591655 heartbeat IPC: 0.28976 cumulative IPC: 0.28657 (Simulation time: 0 hr 0 min 39 sec) 
Heartbeat CPU  0 instructions:   25000001 cycles:   66040957 heartbeat IPC: 0.28991 cumulative IPC: 0.28679 (Simulation time: 0 hr 0 min 41 sec) 
Heartbeat CPU  0 instructions:   26000001 cycles:   69493174 heartbeat IPC: 0.28967 cumulative IPC: 0.28697 (Simulation time: 0 hr 0 min 43 sec) 
Heartbeat CPU  0 instructions:   27000003 cycles:   72958097 heartbeat IPC: 0.28861 cumulative IPC: 0.28706 (Simulation time: 0 hr 0 min 45 sec) 
Heartbeat CPU  0 instructions:   28000000 cycles:   76440715 heartbeat IPC: 0.28714 cumulative IPC: 0.28707 (Simulation time: 0 hr 0 min 47 sec) 
Heartbeat CPU  0 instructions:   29000000 cycles:   79916897 heartbeat IPC: 0.28767 cumulative IPC: 0.28710 (Simulation time: 0 hr 0 min 50 sec) 
Heartbeat CPU  0 instructions:   30000000 cycles:   83406078 heartbeat IPC: 0.28660 cumulative IPC: 0.28707 (Simulation time: 0 hr 0 min 52 sec) 
Heartbeat CPU  0 instructions:   31000000 cycles:   86874388 heartbeat IPC: 0.28832 cumulative IPC: 0.28713 (Simulation time: 0 hr 0 min 54 sec) 
Heartbeat CPU  0 instructions:   32000000 cycles:   90339962 heartbeat IPC: 0.28855 cumulative IPC: 0.28720 (Simulation time: 0 hr 0 min 56 sec) 
Heartbeat CPU  0 instructions:   33000000 cycles:   93828678 heartbeat IPC: 0.28664 cumulative IPC: 0.28717 (Simulation time: 0 hr 0 min 58 sec) 
Heartbeat CPU  0 instructions:   34000002 cycles:   97268648 heartbeat IPC: 0.29070 cumulative IPC: 0.28732 (Simulation time: 0 hr 1 min 0 sec) 
Heartbeat CPU  0 instructions:   35000001 cycles:  100743610 heartbeat IPC: 0.28777 cumulative IPC: 0.28734 (Simulation time: 0 hr 1 min 2 sec) 
Heartbeat CPU  0 instructions:   36000000 cycles:  104197456 heartbeat IPC: 0.28953 cumulative IPC: 0.28742 (Simulation time: 0 hr 1 min 4 sec) 
Heartbeat CPU  0 instructions:   37000000 cycles:  107665984 heartbeat IPC: 0.28831 cumulative IPC: 0.28745 (Simulation time: 0 hr 1 min 6 sec) 
Heartbeat CPU  0 instructions:   38000000 cycles:  111122226 heartbeat IPC: 0.28933 cumulative IPC: 0.28752 (Simulation time: 0 hr 1 min 8 sec) 
Heartbeat CPU  0 instructions:   39000003 cycles:  114576490 heartbeat IPC: 0.28950 cumulative IPC: 0.28759 (Simulation time: 0 hr 1 min 10 sec) 
Heartbeat CPU  0 instructions:   40000000 cycles:  118059549 heartbeat IPC: 0.28710 cumulative IPC: 0.28757 (Simulation time: 0 hr 1 min 12 sec) 
Heartbeat CPU  0 instructions:   41000000 cycles:  121516434 heartbeat IPC: 0.28928 cumulative IPC: 0.28763 (Simulation time: 0 hr 1 min 14 sec) 
Heartbeat CPU  0 instructions:   42000000 cycles:  124996823 heartbeat IPC: 0.28732 cumulative IPC: 0.28762 (Simulation time: 0 hr 1 min 16 sec) 
Heartbeat CPU  0 instructions:   43000000 cycles:  128444575 heartbeat IPC: 0.29004 cumulative IPC: 0.28769 (Simulation time: 0 hr 1 min 18 sec) 
Heartbeat CPU  0 instructions:   44000000 cycles:  131937712 heartbeat IPC: 0.28628 cumulative IPC: 0.28765 (Simulation time: 0 hr 1 min 21 sec) 
Heartbeat CPU  0 instructions:   45000002 cycles:  135573066 heartbeat IPC: 0.27508 cumulative IPC: 0.28727 (Simulation time: 0 hr 1 min 23 sec) 
Heartbeat CPU  0 instructions:   46000001 cycles:  140620914 heartbeat IPC: 0.19810 cumulative IPC: 0.28372 (Simulation time: 0 hr 1 min 25 sec) 
Heartbeat CPU  0 instructions:   47000000 cycles:  145617002 heartbeat IPC: 0.20016 cumulative IPC: 0.28056 (Simulation time: 0 hr 1 min 27 sec) 
Heartbeat CPU  0 instructions:   48000000 cycles:  150565587 heartbeat IPC: 0.20208 cumulative IPC: 0.27772 (Simulation time: 0 hr 1 min 29 sec) 
Heartbeat CPU  0 instructions:   49000001 cycles:  155461331 heartbeat IPC: 0.20426 cumulative IPC: 0.27518 (Simulation time: 0 hr 1 min 32 sec) 
Heartbeat CPU  0 instructions:   50000003 cycles:  160354683 heartbeat IPC: 0.20436 cumulative IPC: 0.27282 (Simulation time: 0 hr 1 min 34 sec) 
Heartbeat CPU  0 instructions:   51000000 cycles:  165270045 heartbeat IPC: 0.20344 cumulative IPC: 0.27057 (Simulation time: 0 hr 1 min 36 sec) 
Heartbeat CPU  0 instructions:   52000000 cycles:  170232782 heartbeat IPC: 0.20150 cumulative IPC: 0.26838 (Simulation time: 0 hr 1 min 39 sec) 
Heartbeat CPU  0 instructions:   53000001 cycles:  175135993 heartbeat IPC: 0.20395 cumulative IPC: 0.26642 (Simulation time: 0 hr 1 min 41 sec) 
Heartbeat CPU  0 instructions:   54000000 cycles:  180054681 heartbeat IPC: 0.20331 cumulative IPC: 0.26455 (Simulation time: 0 hr 1 min 43 sec) 
Heartbeat CPU  0 instructions:   55000003 cycles:  184966523 heartbeat IPC: 0.20359 cumulative IPC: 0.26281 (Simulation time: 0 hr 1 min 45 sec) 
Heartbeat CPU  0 instructions:   56000000 cycles:  189882293 heartbeat IPC: 0.20343 cumulative IPC: 0.26115 (Simulation time: 0 hr 1 min 48 sec) 
Heartbeat CPU  0 instructions:   57000000 cycles:  194776629 heartbeat IPC: 0.20432 cumulative IPC: 0.25961 (Simulation time: 0 hr 1 min 50 sec) 
Heartbeat CPU  0 instructions:   58000000 cycles:  199681549 heartbeat IPC: 0.20388 cumulative IPC: 0.25814 (Simulation time: 0 hr 1 min 52 sec) 
Heartbeat CPU  0 instructions:   59000000 cycles:  204481244 heartbeat IPC: 0.20835 cumulative IPC: 0.25689 (Simulation time: 0 hr 1 min 54 sec) 
Heartbeat CPU  0 instructions:   60000000 cycles:  207891539 heartbeat IPC: 0.29323 cumulative IPC: 0.25753 (Simulation time: 0 hr 1 min 56 sec) 
Finished CPU 0 instructions: 50000000 cycles: 194154072 cumulative IPC: 0.25753 (Simulation time: 0 hr 1 min 56 sec) 

ChampSim completed all CPUs

[ROI Statistics]
Core_0_instructions 50000000
Core_0_cycles 194154072
Core_0_IPC 0.25753

Core_0_branch_prediction_accuracy 81.55113
Core_0_branch_MPKI 36.85764
Core_0_average_ROB_occupancy_at_mispredict 26.73532

Core_0_L1D_total_access 11832826
Core_0_L1D_total_hit 9510116
Core_0_L1D_total_miss 2322710
Core_0_L1D_loads 10504348
Core_0_L1D_load_hit 8194290
Core_0_L1D_load_miss 2310058
Core_0_L1D_RFOs 1328478
Core_0_L1D_RFO_hit 1315826
Core_0_L1D_RFO_miss 12652
Core_0_L1D_prefetches 0
Core_0_L1D_prefetch_hit 0
Core_0_L1D_prefetch_miss 0
Core_0_L1D_writebacks 0
Core_0_L1D_writeback_hit 0
Core_0_L1D_writeback_miss 0
Core_0_L1D_prefetch_requested 0
Core_0_L1D_prefetch_dropped 0
Core_0_L1D_prefetch_issued 0
Core_0_L1D_prefetch_filled 0
Core_0_L1D_prefetch_useful 0
Core_0_L1D_prefetch_useless 0
Core_0_L1D_prefetch_late 0
Core_0_L1D_average_miss_latency 31.76234

Core_0_L1D_rq_access 13745730
Core_0_L1D_rq_forward 0
Core_0_L1D_rq_merged 3071866
Core_0_L1D_rq_to_cache 10673864
Core_0_L1D_rq_full 0

Core_0_L1D_wq_access 1372974
Core_0_L1D_wq_forward 0
Core_0_L1D_wq_merged 401
Core_0_L1D_wq_to_cache 1372573
Core_0_L1D_wq_full 206118

Core_0_L1D_pq_access 0
Core_0_L1D_pq_forward 0
Core_0_L1D_pq_merged 0
Core_0_L1D_pq_to_cache 0
Core_0_L1D_pq_full 0

Core_0_L1D_acc_epochs 197757
Core_0_L1D_acc_level_0 197757
Core_0_L1D_acc_level_1 0
Core_0_L1D_acc_level_2 0
Core_0_L1D_acc_level_3 0
Core_0_L1D_acc_level_4 0
Core_0_L1D_acc_level_5 0
Core_0_L1D_acc_level_6 0
Core_0_L1D_acc_level_7 0
Core_0_L1D_acc_level_8 0
Core_0_L1D_acc_level_9 0

Core_0_L1I_total_access 9726095
Core_0_L1I_total_hit 9726057
Core_0_L1I_total_miss 38
Core_0_L1I_loads 9726095
Core_0_L1I_load_hit 9726057
Core_0_L1I_load_miss 38
Core_0_L1I_RFOs 0
Core_0_L1I_RFO_hit 0
Core_0_L1I_RFO_miss 0
Core_0_L1I_prefetches 0
Core_0_L1I_prefetch_hit 0
Core_0_L1I_prefetch_miss 0
Core_0_L1I_writebacks 0
Core_0_L1I_writeback_hit 0
Core_0_L1I_writeback_miss 0
Core_0_L1I_prefetch_requested 0
Core_0_L1I_prefetch_dropped 0
Core_0_L1I_prefetch_issued 0
Core_0_L1I_prefetch_filled 0
Core_0_L1I_prefetch_useful 0
Core_0_L1I_prefetch_useless 0
Core_0_L1I_prefetch_late 0
Core_0_L1I_average_miss_latency 163.89474

Core_0_L1I_rq_access 49999989
Core_0_L1I_rq_forward 0
Core_0_L1I_rq_merged 40273883
Core_0_L1I_rq_to_cache 9726106
Core_0_L1I_rq_full 0

Core_0_L1I_wq_access 0
Core_0_L1I_wq_forward 0
Core_0_L1I_wq_merged 0
Core_0_L1I_wq_to_cache 0
Core_0_L1I_wq_full 0

Core_0_L1I_pq_access 0
Core_0_L1I_pq_forward 0
Core_0_L1I_pq_merged 0
Core_0_L1I_pq_to_cache 0
Core_0_L1I_pq_full 0

Core_0_L1I_acc_epochs 197757
Core_0_L1I_acc_level_0 197757
Core_0_L1I_acc_level_1 0
Core_0_L1I_acc_level_2 0
Core_0_L1I_acc_level_3 0
Core_0_L1I_acc_level_4 0
Core_0_L1I_acc_level_5 0
Core_0_L1I_acc_level_6 0
Core_0_L1I_acc_level_7 0
Core_0_L1I_acc_level_8 0
Core_0_L1I_acc_level_9 0

Core_0_L2C_total_access 8779281
Core_0_L2C_total_hit 7136679
Core_0_L2C_total_miss 1642602
Core_0_L2C_loads 2310096
Core_0_L2C_load_hit 2015413
Core_0_L2C_load_miss 294683
Core_0_L2C_RFOs 12652
Core_0_L2C_RFO_hit 3482
Core_0_L2C_RFO_miss 9170
Core_0_L2C_prefetches 6304251
Core_0_L2C_prefetch_hit 4965522
Core_0_L2C_prefetch_miss 1338729
Core_0_L2C_writebacks 152282
Core_0_L2C_writeback_hit 152262
Core_0_L2C_writeback_miss 20
Core_0_L2C_prefetch_requested 7098455
Core_0_L2C_prefetch_dropped 80
Core_0_L2C_prefetch_issued 7098375
Core_0_L2C_prefetch_filled 1463932
Core_0_L2C_prefetch_useful 904828
Core_0_L2C_prefetch_useless 558956
Core_0_L2C_prefetch_late 17029
Core_0_L2C_average_miss_latency 156.22369

Core_0_L2C_rq_access 2322748
Core_0_L2C_rq_forward 0
Core_0_L2C_rq_merged 0
Core_0_L2C_rq_to_cache 2322748
Core_0_L2C_rq_full 0

Core_0_L2C_wq_access 152282
Core_0_L2C_wq_forward 1
Core_0_L2C_wq_merged 0
Core_0_L2C_wq_to_cache 152282
Core_0_L2C_wq_full 0

Core_0_L2C_pq_access 7098375
Core_0_L2C_pq_forward 0
Core_0_L2C_pq_merged 48027
Core_0_L2C_pq_to_cache 7050347
Core_0_L2C_pq_full 0

Core_0_L2C_acc_epochs 197757
Core_0_L2C_acc_level_0 425
Core_0_L2C_acc_level_1 141
Core_0_L2C_acc_level_2 1003
Core_0_L2C_acc_level_3 9472
Core_0_L2C_acc_level_4 26828
Core_0_L2C_acc_level_5 38043
Core_0_L2C_acc_level_6 35451
Core_0_L2C_acc_level_7 26278
Core_0_L2C_acc_level_8 16904
Core_0_L2C_acc_level_9 43212

Core_0_LLC_total_access 1795906
Core_0_LLC_total_hit 304201
Core_0_LLC_total_miss 1491705
Core_0_LLC_loads 277655
Core_0_LLC_load_hit 80236
Core_0_LLC_load_miss 197419
Core_0_LLC_RFOs 9170
Core_0_LLC_RFO_hit 2485
Core_0_LLC_RFO_miss 6685
Core_0_LLC_prefetches 1355757
Core_0_LLC_prefetch_hit 154392
Core_0_LLC_prefetch_miss 1201365
Core_0_LLC_writebacks 153324
Core_0_LLC_writeback_hit 67088
Core_0_LLC_writeback_miss 86236
Core_0_LLC_prefetch_requested 0
Core_0_LLC_prefetch_dropped 0
Core_0_LLC_prefetch_issued 0
Core_0_LLC_prefetch_filled 1326569
Core_0_LLC_prefetch_useful 18
Core_0_LLC_prefetch_useless 1324350
Core_0_LLC_prefetch_late 0
Core_0_LLC_average_miss_latency 139.71519

Core_0_LLC_rq_access 286825
Core_0_LLC_rq_forward 0
Core_0_LLC_rq_merged 0
Core_0_LLC_rq_to_cache 286825
Core_0_LLC_rq_full 0

Core_0_LLC_wq_access 153324
Core_0_LLC_wq_forward 0
Core_0_LLC_wq_merged 0
Core_0_LLC_wq_to_cache 153324
Core_0_LLC_wq_full 0

Core_0_LLC_pq_access 1480962
Core_0_LLC_pq_forward 0
Core_0_LLC_pq_merged 0
Core_0_LLC_pq_to_cache 1480962
Core_0_LLC_pq_full 0

Core_0_LLC_acc_epochs 203020
Core_0_LLC_acc_level_0 202999
Core_0_LLC_acc_level_1 12
Core_0_LLC_acc_level_2 8
Core_0_LLC_acc_level_3 0
Core_0_LLC_acc_level_4 0
Core_0_LLC_acc_level_5 1
Core_0_LLC_acc_level_6 0
Core_0_LLC_acc_level_7 0
Core_0_LLC_acc_level_8 0
Core_0_LLC_acc_level_9 0

Core_0_major_page_fault 0
Core_0_minor_page_fault 27001

scooby_st_lookup 2437213
scooby_st_hit 2379307
scooby_st_evict 57842
scooby_st_insert 57906
scooby_st_streaming 0

scooby_predict_called 2437213
scooby_predict_out_of_bounds 59034
scooby_predict_action_1 2129286
scooby_predict_issue_action_1 2118218
scooby_predict_hit_action_1 11068
scooby_predict_out_of_bounds_action_1 33778
scooby_predict_action_3 13591
scooby_predict_issue_action_3 12887
scooby_predict_hit_action_3 704
scooby_predict_out_of_bounds_action_3 693
scooby_predict_action_4 159350
scooby_predict_issue_action_4 157405
scooby_predict_hit_action_4 1945
scooby_predict_out_of_bounds_action_4 10486
scooby_predict_action_5 7512
scooby_predict_issue_action_5 6916
scooby_predict_hit_action_5 596
scooby_predict_out_of_bounds_action_5 667
scooby_predict_action_10 6435
scooby_predict_issue_action_10 5903
scooby_predict_hit_action_10 532
scooby_predict_out_of_bounds_action_10 1176
scooby_predict_action_11 6152
scooby_predict_issue_action_11 5674
scooby_predict_hit_action_11 478
scooby_predict_out_of_bounds_action_11 1214
scooby_predict_action_12 5974
scooby_predict_issue_action_12 5478
scooby_predict_hit_action_12 496
scooby_predict_out_of_bounds_action_12 1275
scooby_predict_action_22 4416
scooby_predict_issue_action_22 3984
scooby_predict_hit_action_22 432
scooby_predict_out_of_bounds_action_22 1948
scooby_predict_action_23 4213
scooby_predict_issue_action_23 3826
scooby_predict_hit_action_23 387
scooby_predict_out_of_bounds_action_23 1916
scooby_predict_action_30 3490
scooby_predict_issue_action_30 3192
scooby_predict_hit_action_30 298
scooby_predict_out_of_bounds_action_30 2322
scooby_predict_action_32 3220
scooby_predict_issue_action_32 2878
scooby_predict_hit_action_32 342
scooby_predict_out_of_bounds_action_32 2415
scooby_predict_action_-1 8191
scooby_predict_issue_action_-1 7400
scooby_predict_hit_action_-1 791
scooby_predict_out_of_bounds_action_-1 132
scooby_predict_action_-3 7581
scooby_predict_issue_action_-3 6731
scooby_predict_hit_action_-3 850
scooby_predict_out_of_bounds_action_-3 371
scooby_predict_action_-6 7109
scooby_predict_issue_action_-6 6304
scooby_predict_hit_action_-6 805
scooby_predict_out_of_bounds_action_-6 641
scooby_predict_action_0 11659
scooby_predict_issue_action_0 0
scooby_predict_hit_action_0 0
scooby_predict_out_of_bounds_action_0 0
scooby_predict_multi_deg_called 1374373
scooby_predict_predicted 7098455
scooby_predict_multi_deg 4751659
scooby_predict_multi_deg_2 1343999
scooby_predict_multi_deg_3 1003351
scooby_predict_multi_deg_4 977389
scooby_predict_multi_deg_5 724925
scooby_predict_multi_deg_6 701995
scooby_predict_multi_deg_7 0
scooby_predict_multi_deg_8 0
scooby_predict_multi_deg_9 0
scooby_predict_multi_deg_10 0
scooby_predict_multi_deg_11 0
scooby_predict_multi_deg_12 0
scooby_predict_multi_deg_13 0
scooby_predict_multi_deg_14 0
scooby_predict_multi_deg_15 0
scooby_predict_multi_deg_16 0

scooby_selected_deg_1 972423
scooby_selected_deg_2 319630
scooby_selected_deg_3 0
scooby_selected_deg_4 237631
scooby_selected_deg_5 0
scooby_selected_deg_6 817112
scooby_selected_deg_7 0
scooby_selected_deg_8 0
scooby_selected_deg_9 0
scooby_selected_deg_10 0
scooby_selected_deg_11 0
scooby_selected_deg_12 0
scooby_selected_deg_13 0
scooby_selected_deg_14 0
scooby_selected_deg_15 0
scooby_selected_deg_16 0

scooby_state_5556e3e3c7d9|0|0 6193,9,5,5,5,1,6,3,3,4,1,2,6,1,3,6247,
scooby_state_5556e3e3c7d9|1|0 3623,7,2,5,1,4,3,2,1,1,0,2,0,0,2,3653,
scooby_state_5556e3e3c7cf|10|1 3382,0,1,0,0,1,0,1,1,1,0,0,1,0,1,3389,
scooby_state_5556e3e3c7cf|22|1 3380,0,0,0,0,0,0,0,0,1,0,1,0,1,1,3384,
scooby_state_5556e3e3c7cf|37|1 3375,0,0,0,1,1,0,0,0,0,2,0,0,0,1,3380,
scooby_state_5556e3e3c7cf|29|1 3363,0,1,2,0,0,2,0,1,0,0,0,2,1,1,3373,
scooby_state_5556e3e3c7cf|34|1 3369,1,1,0,0,0,0,0,0,0,0,0,1,0,0,3372,
scooby_state_5556e3e3c7cf|40|1 3362,1,1,0,1,0,1,0,1,1,0,0,1,0,0,3369,
scooby_state_5556e3e3c7cf|49|1 3363,0,1,0,0,1,1,0,0,1,0,0,0,1,0,3368,
scooby_state_5556e3e3c7cf|30|1 3365,0,0,0,1,0,0,0,0,0,0,0,1,1,0,3368,
scooby_state_5556e3e3c7cf|23|1 3361,1,1,0,0,0,0,1,1,0,0,0,0,0,0,3365,
scooby_state_5556e3e3c7cf|25|1 3358,0,0,0,2,2,0,1,0,1,1,0,0,0,0,3365,
scooby_state_5556e3e3c7cf|28|1 3358,0,1,0,0,0,0,0,0,1,0,0,2,1,1,3364,
scooby_state_5556e3e3c7cf|60|1 3353,0,1,0,0,0,0,0,0,0,0,0,0,0,0,3354,
scooby_state_5556e3e3c7cf|42|1 3351,0,0,0,0,0,0,0,0,2,1,0,0,0,0,3354,
scooby_state_5556e3e3c7cf|4|1 3351,0,0,0,2,1,0,0,0,0,0,0,0,0,0,3354,
scooby_state_5556e3e3c7cf|56|1 3349,1,0,0,1,0,1,0,0,0,0,1,0,0,0,3353,
scooby_state_5556e3e3c7cf|38|1 3346,0,3,0,0,1,1,0,0,2,0,0,0,0,0,3353,
scooby_state_5556e3e3c7cf|55|1 3346,0,0,0,1,0,0,0,0,1,1,1,0,0,1,3351,
scooby_state_5556e3e3c7cf|57|1 3347,0,0,0,1,0,1,0,0,0,0,1,0,0,1,3351,
scooby_state_5556e3e3c7cf|61|1 3349,0,0,0,0,0,1,0,0,0,0,0,0,0,0,3350,
scooby_state_5556e3e3c7cf|48|1 3341,0,3,0,0,0,0,0,1,0,1,1,0,0,0,3347,
scooby_state_5556e3e3c7cf|9|1 3337,0,1,0,0,0,1,2,1,0,0,0,0,1,1,3344,
scooby_state_5556e3e3c7cf|41|1 3338,1,0,0,0,0,0,1,0,0,0,0,2,0,0,3342,
scooby_state_5556e3e3c7cf|53|1 3332,1,1,2,0,0,0,0,1,0,1,2,0,1,0,3341,
scooby_state_5556e3e3c7cf|1|1 3336,0,0,0,1,0,0,1,0,1,0,0,1,0,1,3341,
scooby_state_5556e3e3c7cf|58|1 3338,0,0,0,0,0,0,1,0,0,0,0,0,0,0,3339,
scooby_state_5556e3e3c7cf|51|1 3330,1,1,0,0,2,0,0,0,1,1,1,0,0,1,3338,
scooby_state_5556e3e3c7cf|2|1 3330,2,0,1,0,0,1,0,0,0,1,0,0,0,0,3335,
scooby_state_5556e3e3c7cf|13|1 3329,0,2,1,0,0,0,1,1,0,1,0,0,0,0,3335,
scooby_state_5556e3e3c7cf|63|1 3330,0,0,0,0,1,0,0,1,1,0,2,0,0,0,3335,
scooby_state_5556e3e3c7cf|21|1 3331,1,1,0,0,0,0,0,0,0,1,0,0,0,0,3334,
scooby_state_5556e3e3c7cf|31|1 3331,0,0,1,0,0,0,1,0,0,0,0,0,0,0,3333,
scooby_state_5556e3e3c7cf|19|1 3326,0,0,1,0,2,0,0,0,1,1,0,1,0,0,3332,
scooby_state_5556e3e3c7cf|59|1 3328,1,0,0,0,0,0,0,0,0,1,1,1,0,0,3332,
scooby_state_5556e3e3c7cf|6|1 3324,1,1,1,0,1,1,0,1,0,0,0,0,0,0,3330,
scooby_state_5556e3e3c7cf|39|1 3323,0,1,1,0,1,0,0,1,0,0,0,0,0,0,3327,
scooby_state_5556e3e3c7cf|62|1 3321,1,1,1,0,0,1,0,0,0,1,0,0,0,0,3326,
scooby_state_5556e3e3c7cf|12|1 3319,0,0,0,2,0,2,0,0,1,0,0,0,0,1,3325,
scooby_state_5556e3e3c7cf|0|0 3319,1,0,0,0,0,0,0,0,0,3,1,0,1,0,3325,
scooby_state_5556e3e3c7cf|50|1 3325,0,0,0,0,0,0,0,0,0,0,0,0,0,0,3325,
scooby_state_5556e3e3c7cf|5|1 3315,0,2,1,1,0,0,1,0,1,0,1,0,1,1,3324,
scooby_state_5556e3e3c7cf|54|1 3320,1,0,0,0,1,0,0,0,1,0,0,1,0,0,3324,
scooby_state_5556e3e3c7cf|3|1 3319,0,0,0,0,0,1,1,1,0,0,1,1,0,0,3324,
scooby_state_5556e3e3c7cf|36|1 3316,0,0,0,0,1,0,0,1,0,1,1,1,0,0,3321,
scooby_state_5556e3e3c7cf|52|1 3315,1,1,0,1,0,0,0,1,0,0,0,0,1,0,3320,
scooby_state_5556e3e3c7cf|24|1 3313,0,1,0,0,0,0,0,1,1,0,0,2,0,1,3319,
scooby_state_5556e3e3c7cf|16|1 3312,2,0,0,0,0,0,0,0,2,0,0,0,1,1,3318,
scooby_state_5556e3e3c7cf|15|1 3313,0,1,0,1,0,0,0,0,0,1,0,0,2,0,3318,
scooby_state_5556e3e3c7cf|43|1 3313,0,0,0,0,0,2,0,0,0,0,0,0,1,0,3316,
scooby_state_5556e3e3c7cf|26|1 3307,2,0,0,0,1,1,1,0,1,0,1,0,2,0,3316,
scooby_state_5556e3e3c7cf|8|1 3309,1,0,0,1,1,0,0,0,0,2,0,0,1,1,3316,
scooby_state_5556e3e3c7cf|7|1 3311,1,1,0,0,0,0,0,0,2,0,1,0,0,0,3316,
scooby_state_5556e3e3c7cf|14|1 3310,0,0,0,0,1,0,0,1,0,0,0,2,0,0,3314,
scooby_state_5556e3e3c7cf|46|1 3307,0,1,0,0,1,1,0,0,0,0,1,1,1,0,3313,
scooby_state_5556e3e3c7cf|17|1 3299,0,1,0,1,1,0,1,0,3,1,0,1,0,2,3310,
scooby_state_5556e3e3c7cf|45|1 3302,0,1,0,0,2,1,0,1,0,0,1,0,1,1,3310,
scooby_state_5556e3e3c7cf|27|1 3298,1,0,0,0,3,0,1,0,0,1,1,3,0,0,3308,
scooby_state_5556e3e3c7cf|11|1 3303,0,0,0,0,1,0,0,1,0,0,0,1,1,0,3307,
scooby_state_5556e3e3c7cf|44|1 3295,1,0,1,0,3,1,1,2,0,0,1,0,0,1,3306,
scooby_state_5556e3e3c7cf|32|1 3297,2,0,0,0,0,0,1,0,0,0,0,0,0,3,3303,
scooby_state_5556e3e3c7cf|35|1 3299,0,1,0,1,0,0,0,0,0,0,0,0,0,0,3301,
scooby_state_5556e3e3c7cf|18|1 3298,0,0,0,1,0,0,0,0,0,0,0,0,0,2,3301,
scooby_state_5556e3e3c7cf|47|1 3260,0,0,0,1,0,1,1,0,2,0,1,0,1,0,3267,
scooby_state_5556e3e3c7cf|20|1 3260,0,1,0,1,0,1,0,0,0,0,1,0,0,1,3265,
scooby_state_5556e3e3c7cf|33|1 3252,0,0,0,1,1,3,0,0,0,0,1,2,0,1,3261,
scooby_state_5556e3e3c7d9|2|0 2849,3,6,2,2,1,1,1,1,2,1,3,0,2,1,2875,
scooby_state_5556e3e3c7d9|25|1 2642,1,3,0,0,0,0,0,0,0,1,1,1,1,0,2650,
scooby_state_5556e3e3c7d9|3|1 2639,0,0,0,1,0,0,0,1,0,1,1,0,2,1,2646,
scooby_state_5556e3e3c7d9|4|1 2629,0,1,1,0,0,0,0,1,0,0,0,1,0,0,2633,
scooby_state_5556e3e3c7d9|51|1 2613,2,1,0,1,0,1,1,1,0,0,0,0,0,1,2621,
scooby_state_5556e3e3c7d9|59|1 2615,1,2,0,1,1,0,0,0,0,0,0,0,0,0,2620,
scooby_state_5556e3e3c7d9|30|1 2603,1,2,0,0,1,2,1,0,1,0,2,0,0,1,2614,
scooby_state_5556e3e3c7d9|22|1 2603,3,0,0,1,0,0,0,0,0,0,1,1,1,1,2611,
scooby_state_5556e3e3c7d9|1|1 2601,3,0,0,1,0,0,0,1,2,0,1,0,0,1,2610,
scooby_state_5556e3e3c7d9|5|1 2601,2,1,1,0,0,0,1,0,0,0,0,0,0,1,2607,
scooby_state_5556e3e3c7d9|16|1 2593,1,0,0,1,0,1,1,1,0,0,0,1,1,1,2601,
scooby_state_5556e3e3c7d9|44|1 2595,2,0,0,1,0,0,1,0,0,1,1,0,0,0,2601,
scooby_state_5556e3e3c7d9|63|1 2591,2,1,0,0,1,0,0,0,0,1,0,0,1,2,2599,
scooby_state_5556e3e3c7d9|36|1 2587,2,2,0,1,0,0,0,0,0,0,0,2,0,0,2594,
scooby_state_5556e3e3c7d9|35|1 2589,0,2,1,1,0,0,0,0,0,0,0,0,0,1,2594,
scooby_state_5556e3e3c7d9|29|1 2578,0,0,0,1,1,0,1,1,1,0,0,1,1,1,2586,
scooby_state_5556e3e3c7d9|23|1 2573,4,0,0,0,0,0,0,0,1,0,1,0,1,1,2581,
scooby_state_5556e3e3c7d9|2|1 2572,1,0,0,0,1,1,0,1,0,0,1,0,0,3,2580,
scooby_state_5556e3e3c7d9|13|1 2566,0,0,1,0,0,2,0,1,0,0,0,3,1,0,2574,
scooby_state_5556e3e3c7d9|24|1 2568,1,0,0,0,1,0,1,0,1,0,1,0,0,0,2573,
scooby_state_5556e3e3c7d9|47|1 2563,0,2,0,1,0,0,1,0,0,1,0,1,2,1,2572,
scooby_state_5556e3e3c7d9|62|1 2563,0,1,0,1,0,0,1,1,1,0,0,2,0,1,2571,
scooby_state_5556e3e3c7d9|21|1 2563,0,1,0,0,0,1,0,0,0,0,0,0,0,2,2567,
scooby_state_5556e3e3c7d9|58|1 2558,0,1,0,0,4,1,0,0,1,0,0,0,0,1,2566,
scooby_state_5556e3e3c7d9|54|1 2559,2,2,0,0,0,1,0,1,0,0,0,0,0,0,2565,
scooby_state_5556e3e3c7d9|20|1 2553,1,1,0,0,1,0,0,0,0,0,1,0,0,1,2558,
scooby_state_5556e3e3c7d9|6|1 2546,1,1,1,1,0,0,2,0,3,0,0,1,1,1,2558,
scooby_state_5556e3e3c7d9|52|1 2552,0,1,0,0,0,0,0,0,1,0,0,1,2,1,2558,
scooby_state_5556e3e3c7d9|57|1 2546,1,1,0,1,0,0,0,0,1,0,0,1,1,0,2552,
scooby_state_5556e3e3c7d9|11|1 2541,1,0,0,0,0,0,1,0,0,0,1,0,0,0,2544,
scooby_state_5556e3e3c7d9|15|1 2533,1,0,0,1,0,0,0,2,0,0,1,1,0,0,2539,
scooby_state_5556e3e3c7d9|55|1 2531,2,0,1,1,1,0,0,0,0,0,0,0,0,2,2538,
scooby_state_5556e3e3c7d9|19|1 2531,0,0,0,0,1,0,1,1,0,1,0,0,0,1,2536,
scooby_state_5556e3e3c7d9|31|1 2527,3,0,0,1,0,0,0,0,0,0,0,1,2,1,2535,
scooby_state_5556e3e3c7d9|61|1 2530,0,0,0,1,0,0,1,1,0,1,0,1,0,0,2535,
scooby_state_5556e3e3c7d9|34|1 2527,1,0,1,2,1,0,1,0,0,0,1,0,0,1,2535,
scooby_state_5556e3e3c7d9|42|1 2530,0,1,0,0,0,0,1,0,0,0,1,0,1,0,2534,
scooby_state_5556e3e3c7d9|48|1 2522,0,1,0,0,0,1,1,0,0,1,1,2,0,3,2532,
scooby_state_5556e3e3c7d9|53|1 2528,0,2,0,0,0,1,0,0,0,0,0,0,0,1,2532,
scooby_state_5556e3e3c7d9|26|1 2527,2,0,0,0,0,0,0,0,1,0,1,1,0,0,2532,
scooby_state_5556e3e3c7d9|28|1 2519,1,0,0,0,0,0,0,0,2,0,0,2,0,3,2527,
scooby_state_5556e3e3c7d9|12|1 2518,1,0,0,1,0,0,0,1,1,0,0,0,1,1,2524,
scooby_state_5556e3e3c7d9|43|1 2520,0,2,0,0,0,0,0,0,0,1,0,0,0,1,2524,
scooby_state_5556e3e3c7d9|46|1 2518,0,0,0,0,0,0,2,0,0,1,0,1,1,0,2523,
scooby_state_5556e3e3c7d9|56|1 2518,0,0,0,1,0,1,0,0,0,0,0,1,0,2,2523,
scooby_state_5556e3e3c7d9|39|1 2514,0,0,0,2,1,0,0,0,0,0,0,0,0,0,2517,
scooby_state_5556e3e3c7d9|32|1 2508,1,0,0,1,0,0,0,2,1,1,0,0,0,0,2514,
scooby_state_5556e3e3c7d9|10|1 2509,1,0,0,0,0,0,0,0,0,1,0,1,0,0,2512,
scooby_state_5556e3e3c7d9|17|1 2507,2,1,0,1,0,0,0,0,0,0,0,0,0,0,2511,
scooby_state_5556e3e3c7d9|60|1 2505,0,0,1,0,0,0,0,0,0,1,0,0,0,0,2507,
scooby_state_5556e3e3c7d9|40|1 2494,5,0,0,2,0,0,0,0,1,0,0,0,0,1,2503,
scooby_state_5556e3e3c7d9|38|1 2484,1,0,0,1,0,0,0,1,0,1,1,0,1,0,2490,
scooby_state_5556e3e3c7d9|49|1 2478,1,0,0,0,1,1,0,1,1,0,1,2,0,1,2487,
scooby_state_5556e3e3c7d9|45|1 2476,0,0,0,1,0,0,0,0,0,0,1,0,0,5,2483,
scooby_state_5556e3e3c7d9|27|1 2461,2,0,1,0,0,0,0,0,2,1,0,0,0,0,2467,
scooby_state_5556e3e3c7d9|18|1 2458,2,0,1,0,0,0,1,1,0,0,0,1,1,0,2465,
scooby_state_5556e3e3c7d9|14|1 2460,0,0,1,0,1,0,0,0,0,0,1,0,0,1,2464,
scooby_state_5556e3e3c7d9|33|1 2455,1,0,1,0,0,0,0,0,0,0,0,0,2,1,2460,
scooby_state_5556e3e3c7d9|37|1 2442,1,1,0,0,0,0,0,0,0,0,0,1,0,1,2446,
scooby_state_5556e3e3c7d9|7|1 2431,0,0,0,0,2,0,1,0,0,0,0,0,2,1,2437,
scooby_state_5556e3e3c7d9|8|1 2420,0,1,1,1,0,0,0,0,0,0,0,2,0,2,2427,
scooby_state_5556e3e3c7d9|50|1 2417,2,1,0,0,0,0,0,0,0,0,1,2,1,0,2424,
scooby_state_5556e3e3c7d9|41|1 2412,1,2,0,0,0,0,0,0,0,1,0,0,2,0,2418,
scooby_state_5556e3e3c7d9|9|1 2413,2,0,0,0,0,0,0,0,0,0,0,0,1,1,2417,
scooby_state_5556e3e3c7bd|23|1 0,0,2157,1,0,0,0,0,0,0,0,1,2,0,1,2162,
scooby_state_5556e3e3c7bd|47|1 0,0,2159,0,0,0,0,0,1,0,0,0,0,1,1,2162,
scooby_state_5556e3e3c7bd|12|1 1,0,2156,0,1,0,0,0,1,0,0,2,1,0,0,2162,
scooby_state_5556e3e3c7bd|14|1 0,0,2160,0,0,0,0,0,1,1,0,0,0,0,0,2162,
scooby_state_5556e3e3c7bd|20|1 0,1,2159,0,0,0,0,0,1,0,0,1,0,0,0,2162,
scooby_state_5556e3e3c7bd|51|1 0,0,2157,1,0,0,0,0,0,0,0,1,1,2,0,2162,
scooby_state_5556e3e3c7bd|29|1 0,0,2156,2,0,0,0,0,1,1,1,0,1,0,0,2162,
scooby_state_5556e3e3c7bd|32|1 1,0,2156,0,0,1,0,0,1,0,0,0,0,1,2,2162,
scooby_state_5556e3e3c7bd|19|1 0,0,2159,0,0,0,1,0,1,0,0,0,1,0,0,2162,
scooby_state_5556e3e3c7bd|27|1 0,0,2160,0,0,0,0,0,0,0,0,2,0,0,0,2162,
scooby_state_5556e3e3c7bd|10|1 0,0,2159,0,0,0,1,0,0,2,0,0,0,0,0,2162,
scooby_state_5556e3e3c7bd|17|1 0,1,2157,0,0,1,1,0,1,0,0,0,0,0,1,2162,
scooby_state_5556e3e3c7bd|30|1 0,0,2160,0,0,0,1,0,0,0,1,0,0,0,0,2162,
scooby_state_5556e3e3c7bd|35|1 0,1,2154,1,1,0,1,0,1,1,0,0,0,0,2,2162,
scooby_state_5556e3e3c7bd|34|1 0,0,2157,0,0,0,1,1,1,0,0,0,1,0,1,2162,
scooby_state_5556e3e3c7bd|21|1 0,0,2159,0,0,1,1,0,0,0,1,0,0,0,0,2162,
scooby_state_5556e3e3c7bd|45|1 0,0,2160,0,0,0,0,0,0,0,0,1,0,0,1,2162,
scooby_state_5556e3e3c7bd|25|1 0,1,2156,0,1,1,0,0,0,1,0,0,1,0,1,2162,
scooby_state_5556e3e3c7bd|48|1 0,0,2161,0,0,0,0,1,0,0,0,0,0,0,0,2162,
scooby_state_5556e3e3c7bd|11|1 0,0,2158,0,0,1,0,0,0,0,0,1,1,1,0,2162,
scooby_state_5556e3e3c7bd|16|1 0,0,2156,0,2,0,0,0,0,2,0,1,1,0,0,2162,
scooby_state_5556e3e3c7bd|50|1 0,0,2157,0,0,1,0,0,0,0,1,0,2,0,1,2162,
scooby_state_5556e3e3c7bd|36|1 0,1,2159,1,0,0,1,0,0,0,0,0,0,0,0,2162,
scooby_state_5556e3e3c7bd|18|1 1,0,2157,1,0,1,0,0,0,1,0,1,0,0,0,2162,
scooby_state_5556e3e3c7bd|41|1 0,0,2161,0,0,0,0,0,0,0,0,0,0,0,1,2162,
scooby_state_5556e3e3c7bd|37|1 0,0,2159,0,0,0,1,0,2,0,0,0,0,0,0,2162,
scooby_state_5556e3e3c7bd|13|1 0,0,2156,1,1,0,1,1,1,0,1,0,0,0,0,2162,
scooby_state_5556e3e3c7bd|9|1 1,0,2159,0,1,0,0,0,0,0,0,1,0,0,0,2162,
scooby_state_5556e3e3c7bd|43|1 0,1,2156,1,0,0,1,0,0,0,0,0,2,0,1,2162,
scooby_state_5556e3e3c7bd|38|1 0,0,2159,1,0,1,0,0,1,0,0,0,0,0,0,2162,
scooby_state_5556e3e3c7bd|26|1 0,0,2159,0,2,0,0,1,0,0,0,0,0,0,0,2162,
scooby_state_5556e3e3c7bd|28|1 1,0,2159,0,0,0,0,0,1,0,0,0,0,0,1,2162,
scooby_state_5556e3e3c7bd|46|1 0,0,2158,0,0,0,0,0,0,0,1,1,1,0,1,2162,
scooby_state_5556e3e3c7bd|42|1 0,0,2159,0,0,0,0,0,0,2,0,0,0,0,1,2162,
scooby_state_5556e3e3c7bd|31|1 1,2,2156,1,0,0,1,0,0,0,0,0,0,0,1,2162,
scooby_state_5556e3e3c7bd|33|1 0,0,2159,0,0,1,0,2,0,0,0,0,0,0,0,2162,
scooby_state_5556e3e3c7bd|22|1 2,1,2157,0,0,1,0,0,0,0,0,0,0,1,0,2162,
scooby_state_5556e3e3c7bd|15|1 0,0,2158,0,0,1,1,0,1,0,0,0,0,0,1,2162,
scooby_state_5556e3e3c7bd|49|1 1,0,2157,1,1,0,1,0,1,0,0,0,0,0,0,2162,
scooby_state_5556e3e3c7bd|39|1 1,0,2157,1,0,0,0,1,2,0,0,0,0,0,0,2162,
scooby_state_5556e3e3c7bd|44|1 0,0,2159,1,0,1,0,0,1,0,0,0,0,0,0,2162,
scooby_state_5556e3e3c7bd|40|1 0,0,2158,1,0,0,1,0,0,0,0,0,1,0,1,2162,
scooby_state_5556e3e3c7bd|24|1 0,0,2158,0,0,0,1,0,0,1,0,1,0,1,0,2162,
scooby_state_5556e3e3c7bd|52|1 0,0,2159,0,0,0,0,0,0,0,0,0,1,0,1,2161,
scooby_state_5556e3e3c7bd|58|1 0,1,2156,0,0,1,0,0,0,2,0,1,0,0,0,2161,
scooby_state_5556e3e3c7bd|57|1 0,0,2157,1,0,1,0,0,1,1,0,0,0,0,0,2161,
scooby_state_5556e3e3c7bd|53|1 0,0,2154,1,3,0,1,0,1,0,0,0,1,0,0,2161,
scooby_state_5556e3e3c7bd|60|1 0,0,2157,0,0,0,1,0,1,0,0,1,1,0,0,2161,
scooby_state_5556e3e3c7bd|59|1 0,0,2155,0,1,0,0,1,1,1,1,0,1,0,0,2161,
scooby_state_5556e3e3c7bd|54|1 0,0,2158,0,1,1,0,0,0,0,0,0,0,1,0,2161,
scooby_state_5556e3e3c7bd|0|0 0,0,2156,1,0,0,1,0,0,0,0,0,3,0,0,2161,
scooby_state_5556e3e3c7bd|56|1 0,0,2159,0,0,1,0,0,0,1,0,0,0,0,0,2161,
scooby_state_5556e3e3c7bd|6|1 2,1,2154,1,0,0,0,0,1,0,0,0,1,0,1,2161,
scooby_state_5556e3e3c7bd|7|1 0,1,2156,1,0,0,1,0,1,0,1,0,0,0,0,2161,
scooby_state_5556e3e3c7bd|3|1 0,0,2158,0,1,1,0,0,0,0,0,0,1,0,0,2161,
scooby_state_5556e3e3c7bd|55|1 1,0,2154,1,0,1,0,1,0,1,0,1,0,0,1,2161,
scooby_state_5556e3e3c7bd|62|1 1,0,2157,0,0,0,0,0,1,1,1,0,0,0,0,2161,
scooby_state_5556e3e3c7bd|4|1 0,0,2158,0,1,1,0,0,0,0,0,0,0,1,0,2161,
scooby_state_5556e3e3c7bd|63|1 0,0,2155,0,0,3,0,0,0,0,0,2,0,0,1,2161,
scooby_state_5556e3e3c7bd|5|1 0,0,2160,0,0,0,0,0,0,0,0,0,0,0,1,2161,
scooby_state_5556e3e3c7bd|2|1 0,0,2159,0,0,1,0,0,0,0,0,0,0,1,0,2161,
scooby_state_5556e3e3c7bd|1|1 0,0,2156,0,1,1,1,0,0,2,0,0,0,0,0,2161,
scooby_state_5556e3e3c7bd|61|1 1,0,2157,0,1,1,1,0,0,0,0,0,0,0,0,2161,
scooby_state_5556e3e3c7bd|8|1 0,1,2156,0,0,0,0,0,0,0,1,0,0,1,0,2159,
scooby_state_5556e3e3c7d9|3|0 2071,5,1,1,1,0,0,0,0,2,2,3,1,2,1,2090,
scooby_state_5556e3e3c4a0|12|1 2044,0,0,0,0,1,0,1,0,0,0,1,0,1,0,2048,
scooby_state_5556e3e3c4a0|5|1 2043,0,0,1,2,0,0,0,0,1,0,0,0,1,0,2048,
scooby_state_5556e3e3c4a0|23|1 2041,1,1,0,0,0,0,1,0,1,1,0,1,1,0,2048,
scooby_state_5556e3e3c4a0|2|1 2046,0,0,0,0,0,0,0,0,0,0,0,0,0,2,2048,
scooby_state_5556e3e3c4a0|53|1 2047,0,0,0,0,0,0,0,0,1,0,0,0,0,0,2048,
scooby_state_5556e3e3c4a0|19|1 2042,0,0,1,1,1,1,0,1,0,0,1,0,0,0,2048,
scooby_state_5556e3e3c4a0|15|1 2043,1,1,1,1,0,0,0,0,1,0,0,0,0,0,2048,
scooby_state_5556e3e3c4a0|0|0 2043,0,0,0,1,0,0,0,1,0,0,1,1,0,1,2048,
scooby_state_5556e3e3c4a0|52|1 2044,0,1,0,0,1,0,0,0,0,0,1,0,0,1,2048,
scooby_state_5556e3e3c4a0|24|1 2044,1,0,0,0,0,0,1,1,0,1,0,0,0,0,2048,
scooby_state_5556e3e3c4a0|25|1 2044,0,0,0,1,1,0,0,0,0,0,0,0,1,1,2048,
scooby_state_5556e3e3c4a0|56|1 2046,0,1,0,0,0,0,0,1,0,0,0,0,0,0,2048,
scooby_state_5556e3e3c4a0|31|1 2046,0,0,0,0,0,1,0,0,1,0,0,0,0,0,2048,
scooby_state_5556e3e3c4a0|35|1 2046,0,0,0,1,0,0,0,0,0,0,0,1,0,0,2048,
scooby_state_5556e3e3c4a0|50|1 2043,1,1,0,0,0,1,0,0,0,1,1,0,0,0,2048,
scooby_state_5556e3e3c4a0|58|1 2046,0,0,1,0,0,0,0,1,0,0,0,0,0,0,2048,
scooby_state_5556e3e3c4a0|18|1 2046,0,0,0,1,0,0,1,0,0,0,0,0,0,0,2048,
scooby_state_5556e3e3c4a0|36|1 2045,1,0,0,0,1,0,0,0,0,0,0,1,0,0,2048,
scooby_state_5556e3e3c4a0|21|1 2045,1,0,0,0,0,0,1,0,0,1,0,0,0,0,2048,
scooby_state_5556e3e3c4a0|38|1 2044,0,0,0,1,0,0,0,1,0,0,1,1,0,0,2048,
scooby_state_5556e3e3c4a0|51|1 2042,0,0,1,0,0,1,0,0,0,1,1,1,1,0,2048,
scooby_state_5556e3e3c4a0|62|1 2046,0,0,0,0,0,0,0,0,0,0,0,1,1,0,2048,
scooby_state_5556e3e3c4a0|20|1 2044,1,1,0,0,0,0,0,0,0,0,1,0,0,1,2048,
scooby_state_5556e3e3c4a0|4|1 2042,1,0,1,1,1,1,1,0,0,0,0,0,0,0,2048,
scooby_state_5556e3e3c4a0|60|1 2044,1,0,0,0,0,1,0,0,0,1,0,0,1,0,2048,
scooby_state_5556e3e3c4a0|29|1 2045,1,0,0,0,0,0,0,0,1,0,1,0,0,0,2048,
scooby_state_5556e3e3c4a0|42|1 2043,1,0,0,1,0,1,1,1,0,0,0,0,0,0,2048,
scooby_state_5556e3e3c4a0|61|1 2044,0,0,0,0,2,0,0,0,0,0,1,1,0,0,2048,
scooby_state_5556e3e3c4a0|14|1 2044,1,0,0,1,0,1,0,0,0,0,1,0,0,0,2048,
scooby_state_5556e3e3c4a0|11|1 2041,0,1,1,0,0,0,0,0,1,3,0,0,0,1,2048,
scooby_state_5556e3e3c4a0|3|1 2046,0,1,1,0,0,0,0,0,0,0,0,0,0,0,2048,
scooby_state_5556e3e3c4a0|41|1 2045,0,0,1,0,0,0,2,0,0,0,0,0,0,0,2048,
scooby_state_5556e3e3c4a0|34|1 2048,0,0,0,0,0,0,0,0,0,0,0,0,0,0,2048,
scooby_state_5556e3e3c4a0|59|1 2044,0,0,0,0,0,0,0,2,0,1,1,0,0,0,2048,
scooby_state_5556e3e3c4a0|46|1 2046,0,0,0,0,0,0,0,0,0,0,0,0,0,2,2048,
scooby_state_5556e3e3c4a0|39|1 2046,0,0,0,1,0,0,0,0,0,0,0,1,0,0,2048,
scooby_state_5556e3e3c4a0|8|1 2046,0,0,0,0,0,0,0,2,0,0,0,0,0,0,2048,
scooby_state_5556e3e3c4a0|13|1 2045,0,0,0,2,0,0,1,0,0,0,0,0,0,0,2048,
scooby_state_5556e3e3c4a0|43|1 2044,0,0,1,0,0,0,0,0,1,1,0,0,1,0,2048,
scooby_state_5556e3e3c4a0|47|1 2045,0,0,1,0,0,0,1,0,0,0,0,0,1,0,2048,
scooby_state_5556e3e3c4a0|49|1 2045,0,0,0,0,0,0,0,0,2,0,0,0,1,0,2048,
scooby_state_5556e3e3c4a0|48|1 2044,0,1,0,1,0,1,0,0,0,0,0,0,0,1,2048,
scooby_state_5556e3e3c4a0|9|1 2042,1,1,0,0,2,0,2,0,0,0,0,0,0,0,2048,
scooby_state_5556e3e3c4a0|7|1 2042,1,0,0,1,0,2,0,0,0,0,1,0,0,1,2048,
scooby_state_5556e3e3c4a0|32|1 2046,0,0,0,0,0,1,1,0,0,0,0,0,0,0,2048,
scooby_state_5556e3e3c4a0|54|1 2046,0,0,0,0,1,1,0,0,0,0,0,0,0,0,2048,
scooby_state_5556e3e3c4a0|10|1 2043,1,1,0,0,1,1,0,0,0,0,1,0,0,0,2048,
scooby_state_5556e3e3c4a0|55|1 2046,0,0,0,0,0,0,0,1,1,0,0,0,0,0,2048,
scooby_state_5556e3e3c4a0|26|1 2043,1,0,0,1,0,0,1,0,0,0,1,0,0,1,2048,
scooby_state_5556e3e3c4a0|22|1 2041,0,0,1,1,0,1,1,0,0,0,0,2,0,1,2048,
scooby_state_5556e3e3c4a0|16|1 2040,1,0,0,1,2,1,1,0,1,1,0,0,0,0,2048,
scooby_state_5556e3e3c4a0|1|1 2046,0,1,0,0,0,0,0,0,0,0,0,0,1,0,2048,
scooby_state_5556e3e3c4a0|28|1 2042,2,0,0,0,1,0,0,1,2,0,0,0,0,0,2048,
scooby_state_5556e3e3c4a0|40|1 2043,0,0,0,1,1,1,1,0,1,0,0,0,0,0,2048,
scooby_state_5556e3e3c4a0|6|1 2043,0,0,2,1,0,0,0,0,0,1,0,0,0,1,2048,
scooby_state_5556e3e3c4a0|45|1 2045,0,0,0,1,0,1,0,0,0,1,0,0,0,0,2048,
scooby_state_5556e3e3c4a0|44|1 2045,0,0,1,0,1,0,0,0,0,0,1,0,0,0,2048,
scooby_state_5556e3e3c4a0|57|1 2044,1,1,1,0,0,0,0,0,0,0,0,0,0,1,2048,
scooby_state_5556e3e3c4a0|30|1 2045,0,0,0,1,0,0,0,0,2,0,0,0,0,0,2048,
scooby_state_5556e3e3c4a0|37|1 2044,1,0,0,0,0,1,1,0,0,0,1,0,0,0,2048,
scooby_state_5556e3e3c4a0|63|1 2043,1,2,0,0,0,0,0,1,0,0,0,0,0,1,2048,
scooby_state_5556e3e3c4a0|33|1 2046,0,0,0,0,0,0,1,0,0,1,0,0,0,0,2048,
scooby_state_5556e3e3c4a0|17|1 2045,0,0,0,0,0,0,0,1,1,0,0,0,1,0,2048,
scooby_state_5556e3e3c4a0|27|1 2043,0,0,0,1,2,0,0,0,0,0,1,1,0,0,2048,
scooby_state_5556e3e3c7d9|4|0 1866,2,2,1,0,1,1,0,1,2,3,1,0,0,0,1880,
scooby_state_5556e3e3c7d9|5|0 1824,4,4,1,1,1,0,1,1,1,4,3,0,2,3,1850,
scooby_state_5556e3e3c7d9|6|0 1667,3,0,3,1,2,0,1,0,0,1,2,2,1,1,1684,
scooby_state_5556e3e3c7d9|7|0 1520,0,1,0,0,0,2,1,0,2,1,1,0,0,1,1529,
scooby_state_5556e3e3c7fd|27|1 1285,94,8,1,2,0,1,2,0,0,4,1,1,0,2,1401,
scooby_state_5556e3e3c7fd|12|1 1276,96,4,2,1,3,2,3,2,1,0,0,0,1,1,1392,
scooby_state_5556e3e3c7fd|40|1 1256,98,13,2,2,4,2,2,1,0,1,1,0,1,4,1387,
scooby_state_5556e3e3c7fd|26|1 1238,104,8,2,3,0,3,2,0,2,1,2,2,2,1,1370,
scooby_state_5556e3e3c7fd|35|1 1254,82,9,3,5,3,2,2,2,1,0,0,2,1,1,1367,
scooby_state_5556e3e3c7fd|24|1 1232,115,2,3,6,0,1,1,1,0,1,1,0,0,1,1364,
scooby_state_5556e3e3c7fd|58|1 1236,91,17,3,3,3,0,1,2,0,1,2,1,0,3,1363,
scooby_state_5556e3e3c7fd|22|1 1234,94,12,3,2,1,3,1,1,2,0,1,1,3,2,1360,
scooby_state_5556e3e3c7fd|50|1 1231,101,9,2,1,3,2,2,0,0,2,1,0,0,4,1358,
scooby_state_5556e3e3c7fd|53|1 1256,75,7,4,1,1,0,1,3,0,0,3,0,3,2,1356,
scooby_state_5556e3e3c7fd|0|0 891,41,54,63,59,31,35,15,34,57,18,11,12,11,22,1354,
scooby_state_5556e3e3c7fd|4|1 1239,92,6,1,3,0,1,0,1,3,2,1,0,2,1,1352,
scooby_state_5556e3e3c7fd|47|1 1225,103,7,1,3,1,4,0,1,0,3,2,0,1,0,1351,
scooby_state_5556e3e3c7fd|36|1 1229,105,5,3,2,4,0,0,0,1,0,1,0,0,1,1351,
scooby_state_5556e3e3c7fd|2|1 1218,98,10,0,3,2,3,2,2,1,2,1,2,0,1,1345,
scooby_state_5556e3e3c7fd|28|1 1234,75,9,0,4,3,2,1,2,4,2,0,0,2,5,1343,
scooby_state_5556e3e3c7fd|49|1 1223,89,11,1,4,1,3,1,1,2,1,1,1,1,1,1341,
scooby_state_5556e3e3c7fd|14|1 1217,94,11,0,3,3,3,0,0,3,0,1,1,1,2,1339,
scooby_state_5556e3e3c7fd|39|1 1236,80,11,3,3,0,0,2,1,0,0,1,0,1,0,1338,
scooby_state_5556e3e3c7fd|19|1 1245,73,5,2,1,1,4,1,0,1,0,1,1,1,1,1337,
scooby_state_5556e3e3c7fd|56|1 1210,98,11,4,2,1,1,2,1,0,0,3,0,2,2,1337,
scooby_state_5556e3e3c7fd|54|1 1208,92,11,2,1,3,2,2,2,2,1,1,2,0,4,1333,
scooby_state_5556e3e3c7fd|5|1 1214,92,8,2,2,3,4,1,1,2,0,1,0,1,2,1333,
scooby_state_5556e3e3c7fd|31|1 1206,102,7,1,2,1,5,1,0,0,1,1,1,0,2,1330,
scooby_state_5556e3e3c7fd|20|1 1221,91,6,1,2,3,2,0,0,0,0,0,2,0,1,1329,
scooby_state_5556e3e3c7fd|11|1 1220,80,14,3,4,3,0,0,0,3,0,1,0,0,0,1328,
scooby_state_5556e3e3c7fd|30|1 1214,84,11,3,3,3,1,2,0,1,1,2,1,1,1,1328,
scooby_state_5556e3e3c7fd|52|1 1221,78,10,1,5,0,2,1,0,1,3,1,1,2,1,1327,
scooby_state_5556e3e3c7fd|18|1 1212,91,7,3,1,3,1,0,1,1,0,1,0,2,1,1324,
scooby_state_5556e3e3c7d9|8|0 1295,6,1,5,1,0,6,1,0,1,3,1,1,0,0,1321,
scooby_state_5556e3e3c7fd|41|1 1191,110,7,0,3,2,2,0,0,1,1,2,0,1,1,1321,
scooby_state_5556e3e3c7fd|55|1 1211,80,8,3,5,1,3,2,1,2,0,1,0,1,2,1320,
scooby_state_5556e3e3c7fd|59|1 1193,99,12,3,5,1,0,2,1,0,0,0,1,3,0,1320,
scooby_state_5556e3e3c7fd|17|1 1168,112,12,3,2,5,1,2,1,5,2,2,0,2,1,1318,
scooby_state_5556e3e3c7fd|9|1 1209,86,7,0,5,2,1,1,0,1,2,1,0,1,2,1318,
scooby_state_5556e3e3c7fd|25|1 1207,88,2,0,3,5,3,1,1,2,1,0,1,0,0,1314,
scooby_state_5556e3e3c7fd|15|1 1197,90,13,1,1,2,3,0,1,0,1,0,1,3,1,1314,
scooby_state_5556e3e3c7fd|23|1 1180,105,8,3,4,0,1,2,0,1,1,1,0,1,1,1308,
scooby_state_5556e3e3c7fd|1|1 1188,96,6,0,4,3,0,3,2,0,2,1,1,0,0,1306,
scooby_state_5556e3e3c7fd|48|1 1172,97,15,1,6,0,0,0,0,3,0,1,0,1,2,1298,
scooby_state_5556e3e3c7fd|32|1 1199,80,9,1,4,2,0,1,0,0,0,0,0,0,2,1298,
scooby_state_5556e3e3c7fd|62|1 1163,99,12,3,3,6,2,0,0,1,1,2,0,2,2,1296,
scooby_state_5556e3e3c7fd|63|1 1192,81,10,1,1,1,2,1,1,1,0,2,1,1,0,1295,
scooby_state_5556e3e3c7fd|7|1 1160,111,8,3,1,5,1,1,1,1,0,1,0,1,0,1294,
scooby_state_5556e3e3c7fd|33|1 1180,92,16,0,1,0,1,1,1,0,0,1,0,1,0,1294,
scooby_state_5556e3e3c7fd|16|1 1180,87,5,3,2,2,4,1,1,2,1,1,1,1,0,1291,
scooby_state_5556e3e3c7fd|10|1 1196,70,9,1,3,2,1,4,0,0,1,1,1,1,1,1291,
scooby_state_5556e3e3c7fd|13|1 1178,87,7,4,0,3,4,0,1,2,2,0,0,2,0,1290,
scooby_state_5556e3e3c7fd|29|1 1172,90,10,0,4,1,2,1,2,2,1,1,1,0,2,1289,
scooby_state_5556e3e3c7fd|61|1 1182,83,11,1,3,1,0,0,2,0,0,1,0,3,2,1289,
scooby_state_5556e3e3c7fd|3|1 1176,90,9,2,2,1,3,0,0,2,1,1,1,1,0,1289,
scooby_state_5556e3e3c7fd|37|1 1167,88,11,0,4,2,1,0,2,1,1,1,1,0,1,1280,
scooby_state_5556e3e3c7fd|57|1 1153,101,10,0,3,3,0,2,0,2,1,1,0,1,0,1277,
scooby_state_5556e3e3c7fd|6|1 1175,82,5,2,4,1,1,2,0,1,1,1,1,0,0,1276,
scooby_state_5556e3e3c7fd|21|1 1157,89,8,0,4,4,1,0,4,0,1,0,2,0,0,1270,
scooby_state_5556e3e3c7fd|46|1 1142,97,13,1,5,1,3,0,0,0,4,1,1,0,1,1269,
scooby_state_5556e3e3c7fd|60|1 1170,72,9,2,4,2,2,1,1,0,1,1,1,0,2,1268,
scooby_state_5556e3e3c7fd|43|1 1165,81,12,0,1,1,2,1,0,2,1,1,0,0,0,1267,
scooby_state_5556e3e3c7fd|34|1 1157,83,10,0,3,3,1,0,0,0,2,2,3,0,3,1267,
scooby_state_5556e3e3c7fd|8|1 1149,90,7,3,3,1,2,2,0,1,0,2,0,1,0,1261,
scooby_state_5556e3e3c7fd|51|1 1159,77,7,2,1,2,1,1,0,2,0,2,0,1,1,1256,
scooby_state_5556e3e3c7fd|42|1 1162,68,4,0,0,1,4,2,2,2,1,1,1,0,3,1251,
scooby_state_5556e3e3c7fd|38|1 1143,83,10,2,1,3,0,0,2,2,1,0,1,1,0,1249,
scooby_state_5556e3e3c7fd|45|1 1111,101,10,4,3,2,3,0,1,1,1,0,1,0,1,1239,
scooby_state_5556e3e3c7fd|44|1 1118,94,12,1,4,0,1,0,0,2,0,2,0,1,1,1236,
scooby_state_5556e3e3c7cb|33|1 1054,0,0,0,1,0,0,0,0,0,0,0,0,0,0,1055,
scooby_state_5556e3e3c7cb|20|1 1049,0,0,0,0,0,0,1,0,0,0,0,0,0,0,1050,
scooby_state_5556e3e3c7cb|47|1 1045,0,0,0,0,0,1,0,0,0,0,0,1,1,0,1048,
scooby_state_5556e3e3c7cb|18|1 1017,0,0,0,1,0,0,0,0,0,0,0,0,0,0,1018,
scooby_state_5556e3e3c7cb|27|1 1009,1,0,0,0,0,0,0,1,1,0,0,0,0,0,1012,
scooby_state_5556e3e3c7cb|35|1 1010,0,0,0,0,0,0,0,0,0,0,0,1,1,0,1012,
scooby_state_5556e3e3c7cb|32|1 1008,0,1,1,0,0,1,0,0,0,0,0,0,0,0,1011,
scooby_state_5556e3e3c7cb|44|1 1007,0,0,0,0,0,0,0,0,1,0,0,0,0,0,1008,
scooby_state_5556e3e3c7cb|11|1 1008,0,0,0,0,0,0,0,0,0,0,0,0,0,0,1008,
scooby_state_5556e3e3c7cb|17|1 1005,0,0,0,1,0,0,0,0,1,0,0,0,0,0,1007,
scooby_state_5556e3e3c7cb|45|1 1003,0,0,0,0,0,0,0,0,0,0,0,0,0,1,1004,
scooby_state_5556e3e3c7cb|14|1 1003,0,0,0,0,0,0,0,0,0,0,0,1,0,0,1004,
scooby_state_5556e3e3c7cb|26|1 1001,0,0,0,0,1,0,0,0,0,0,1,0,0,0,1003,
scooby_state_5556e3e3c7cb|7|1 997,0,0,1,0,0,0,0,0,0,0,2,0,1,1,1002,
scooby_state_5556e3e3c7cb|8|1 1001,0,0,0,0,0,0,0,0,0,0,0,0,0,0,1001,
scooby_state_5556e3e3c7cb|46|1 999,1,0,0,0,0,0,0,0,0,0,0,0,0,1,1001,
scooby_state_5556e3e3c7cb|43|1 996,0,0,0,0,1,1,0,0,1,0,0,0,0,0,999,
scooby_state_5556e3e3c7cb|24|1 996,0,0,0,2,0,0,0,0,0,0,0,0,0,0,998,
scooby_state_5556e3e3c7cb|52|1 995,0,1,0,0,1,0,0,1,0,0,0,0,0,0,998,
scooby_state_5556e3e3c7cb|15|1 996,0,1,0,0,0,0,0,0,0,0,0,0,0,0,997,
scooby_state_5556e3e3c7cb|0|0 993,0,0,1,0,1,0,0,0,0,0,0,0,0,0,995,
scooby_state_5556e3e3c7cb|16|1 994,0,0,0,0,0,0,0,0,1,0,0,0,0,0,995,
scooby_state_5556e3e3c7cb|36|1 992,0,0,0,0,1,0,0,0,0,0,0,0,0,1,994,
scooby_state_5556e3e3c7cb|5|1 992,0,1,0,0,0,0,0,0,0,0,0,0,0,0,993,
scooby_state_5556e3e3c7cb|54|1 990,0,0,0,0,0,0,0,1,1,0,1,0,0,0,993,
scooby_state_5556e3e3c7cb|62|1 992,0,0,0,0,0,0,0,0,0,0,0,0,0,0,992,
scooby_state_5556e3e3c7cb|50|1 990,0,0,0,0,0,0,0,0,0,1,0,0,0,0,991,
scooby_state_5556e3e3c7cb|3|1 988,0,0,0,0,0,1,1,0,0,0,0,0,0,0,990,
scooby_state_5556e3e3c7cb|39|1 988,1,0,0,0,0,0,0,0,0,0,0,0,0,0,989,
scooby_state_5556e3e3c7cb|6|1 986,0,1,0,0,0,0,0,0,1,0,0,0,0,0,988,
scooby_state_5556e3e3c7cb|59|1 982,0,1,0,0,1,0,1,0,0,0,0,0,1,0,986,
scooby_state_5556e3e3c7cb|31|1 980,0,0,1,0,0,0,0,3,0,0,1,0,0,0,985,
scooby_state_5556e3e3c7cb|12|1 983,0,0,0,0,0,0,0,0,0,0,1,0,1,0,985,
scooby_state_5556e3e3c7cb|21|1 983,0,0,0,0,1,0,0,0,0,0,0,0,0,0,984,
scooby_state_5556e3e3c7cb|19|1 982,0,1,0,0,0,0,0,0,0,0,0,0,0,1,984,
scooby_state_5556e3e3c7cb|63|1 983,0,0,0,0,0,0,0,0,0,0,0,0,0,0,983,
scooby_state_5556e3e3c7cb|58|1 979,0,1,0,0,0,0,0,0,0,0,0,0,0,0,980,
scooby_state_5556e3e3c7cb|53|1 978,0,0,0,0,0,0,0,0,0,0,1,0,0,0,979,
scooby_state_5556e3e3c7cb|51|1 977,0,0,0,0,0,0,0,0,0,0,0,0,0,1,978,
scooby_state_5556e3e3c7cb|2|1 977,0,0,0,0,0,0,0,0,0,0,0,0,0,0,977,
scooby_state_5556e3e3c7d9|9|0 963,0,2,2,3,0,1,2,0,1,1,0,0,1,1,977,
scooby_state_5556e3e3c7cb|13|1 977,0,0,0,0,0,0,0,0,0,0,0,0,0,0,977,
scooby_state_5556e3e3c7cb|41|1 971,0,0,0,1,0,0,0,1,1,0,0,0,0,0,974,
scooby_state_5556e3e3c7cb|48|1 971,0,0,0,0,0,0,0,0,0,0,0,0,0,0,971,
scooby_state_5556e3e3c7cb|61|1 968,0,0,0,0,0,0,0,1,0,0,0,0,1,0,970,
scooby_state_5556e3e3c7cb|9|1 970,0,0,0,0,0,0,0,0,0,0,0,0,0,0,970,
scooby_state_5556e3e3c7cb|1|1 970,0,0,0,0,0,0,0,0,0,0,0,0,0,0,970,
scooby_state_5556e3e3c7cb|57|1 968,0,0,0,0,0,1,0,0,0,0,0,0,0,0,969,
scooby_state_5556e3e3c7cb|60|1 964,0,0,0,1,0,1,0,0,0,0,0,1,0,0,967,
scooby_state_5556e3e3c7cb|38|1 964,0,0,0,1,0,0,0,0,0,0,0,0,0,0,965,
scooby_state_5556e3e3c7cb|55|1 963,0,0,0,1,0,0,0,0,0,1,0,0,0,0,965,
scooby_state_5556e3e3c7cb|56|1 963,0,0,0,0,1,0,0,0,0,0,0,0,0,0,964,
scooby_state_5556e3e3c7cb|42|1 960,0,0,0,0,0,1,0,0,0,1,0,1,0,0,963,
scooby_state_5556e3e3c7cb|4|1 956,0,0,0,0,1,0,1,1,0,0,1,0,0,0,960,
scooby_state_5556e3e3c7cb|23|1 950,1,0,0,1,0,0,0,0,0,1,1,0,0,1,955,
scooby_state_5556e3e3c7cb|30|1 950,0,0,0,0,0,0,0,1,1,0,0,0,0,0,952,
scooby_state_5556e3e3c7cb|25|1 949,0,0,0,0,0,0,0,0,1,0,1,0,0,0,951,
scooby_state_5556e3e3c7cb|49|1 948,0,0,0,0,0,0,0,0,0,0,0,0,1,0,949,
scooby_state_5556e3e3c7cb|28|1 949,0,0,0,0,0,0,0,0,0,0,0,0,0,0,949,
scooby_state_5556e3e3c7cb|40|1 943,0,0,0,0,0,1,1,0,0,0,0,0,1,0,946,
scooby_state_5556e3e3c7cb|34|1 941,0,0,0,0,0,0,0,0,0,0,0,0,0,0,941,
scooby_state_5556e3e3c7cb|29|1 935,1,1,1,0,0,1,0,0,0,1,0,0,0,0,940,
scooby_state_5556e3e3c7cb|37|1 934,0,0,1,0,0,0,0,0,0,0,1,1,0,0,937,
scooby_state_5556e3e3c7cb|22|1 933,0,0,0,0,0,0,1,2,0,0,0,0,0,0,936,
scooby_state_5556e3e3c7cb|10|1 924,0,1,1,0,0,0,0,0,1,0,0,0,0,0,927,
scooby_state_5556e3e3c7d9|10|0 880,0,2,1,1,0,2,0,0,0,0,1,0,0,0,887,
scooby_state_5556e3e3c7d9|46|2 857,0,1,0,0,0,1,1,0,0,0,2,0,1,0,863,
scooby_state_5556e3e3c7d9|52|3 847,0,1,0,0,1,0,0,0,1,0,0,0,1,0,851,
scooby_state_5556e3e3c7d9|24|2 835,0,0,0,0,1,0,1,0,1,2,0,0,1,0,841,
scooby_state_5556e3e3c7d9|6|2 833,1,0,0,0,1,0,0,0,0,0,2,0,1,1,839,
scooby_state_5556e3e3c7d9|35|2 825,0,0,2,0,2,1,0,1,0,2,3,0,0,2,838,
scooby_state_5556e3e3c7d9|18|2 833,0,0,0,0,1,1,0,0,0,0,0,0,0,1,836,
scooby_state_5556e3e3c7d9|2|2 831,0,0,0,0,1,0,1,0,0,0,1,1,0,0,835,
scooby_state_5556e3e3c7d9|4|2 824,0,0,1,0,0,1,0,2,0,0,3,1,0,1,833,
scooby_state_5556e3e3c7d9|28|2 822,1,1,2,1,0,1,0,0,1,0,1,0,0,2,832,
scooby_state_5556e3e3c7d9|30|2 826,0,0,1,0,0,0,0,1,1,0,1,0,0,1,831,
scooby_state_5556e3e3c7d9|50|2 821,0,1,3,1,0,0,0,0,0,0,1,0,1,1,829,
scooby_state_5556e3e3c7d9|34|2 822,1,0,0,0,0,0,1,1,0,1,1,0,0,1,828,
scooby_state_5556e3e3c7d9|56|2 820,1,0,1,1,0,0,0,0,2,0,0,0,1,0,826,
scooby_state_5556e3e3c7d9|11|0 812,2,2,0,0,1,0,0,2,2,3,0,0,0,1,825,
scooby_state_5556e3e3c7d9|51|2 820,0,0,0,0,0,0,0,0,0,0,2,1,2,0,825,
scooby_state_5556e3e3c7d9|38|2 816,0,0,0,2,1,0,2,1,0,1,0,0,0,1,824,
scooby_state_5556e3e3c7d9|7|2 818,0,0,3,0,0,0,0,1,0,1,0,1,0,0,824,
scooby_state_5556e3e3c7d9|57|2 820,0,0,0,0,0,0,2,0,0,0,1,0,0,0,823,
scooby_state_5556e3e3c7d9|31|2 814,0,0,1,1,1,0,2,0,0,0,1,2,1,0,823,
scooby_state_5556e3e3c7d9|15|2 815,0,0,3,1,0,0,1,0,0,0,1,0,1,0,822,
scooby_state_5556e3e3c7d9|49|2 817,1,0,1,0,0,0,0,0,0,0,1,1,0,0,821,
scooby_state_5556e3e3c7d9|29|2 815,0,0,0,1,0,1,1,0,0,0,0,0,1,1,820,
scooby_state_5556e3e3c7d9|34|3 816,0,0,0,1,0,0,1,0,0,0,0,0,0,1,819,
scooby_state_5556e3e3c7d9|42|2 813,1,0,1,0,0,0,0,1,0,0,0,1,1,1,819,
scooby_state_5556e3e3c7d9|8|2 811,0,0,0,2,1,1,2,0,0,0,2,0,0,0,819,
scooby_state_5556e3e3c7d9|44|2 816,0,0,0,0,0,0,1,0,0,0,0,1,0,0,818,
scooby_state_5556e3e3c7d9|54|2 811,0,0,0,0,1,0,0,1,0,0,1,0,1,1,816,
scooby_state_5556e3e3c7d9|60|2 804,0,1,1,0,1,3,0,1,1,0,2,1,0,1,816,
scooby_state_5556e3e3c7d9|26|2 811,0,0,0,1,0,2,0,0,0,1,0,0,0,0,815,
scooby_state_5556e3e3c7d9|62|2 801,0,0,1,0,1,2,0,0,1,0,5,0,0,2,813,
scooby_state_5556e3e3c7d9|16|2 803,0,1,1,0,0,0,1,0,1,1,3,0,1,0,812,
scooby_state_5556e3e3c7d9|29|3 806,2,0,1,0,0,0,0,1,1,0,0,0,0,0,811,
scooby_state_5556e3e3c7d9|32|2 804,0,2,1,0,0,1,0,1,0,0,1,0,0,0,810,
scooby_state_5556e3e3c7d9|25|3 806,1,0,0,0,0,0,0,0,0,1,0,0,0,1,809,
scooby_state_5556e3e3c7d9|49|3 807,0,0,0,0,0,0,0,0,0,0,0,0,0,0,807,
scooby_state_5556e3e3c7d9|23|3 804,0,0,0,1,0,0,0,0,1,0,0,0,0,1,807,
scooby_state_5556e3e3c7d9|14|2 804,0,0,0,2,0,0,0,0,0,0,0,0,0,0,806,
scooby_state_5556e3e3c7d9|53|2 797,0,1,3,0,1,0,0,0,0,1,2,0,1,0,806,
scooby_state_5556e3e3c7d9|21|2 802,1,0,0,0,0,0,0,1,0,0,2,0,0,0,806,
scooby_state_5556e3e3c7d9|60|3 803,2,0,0,0,0,0,0,0,0,0,0,1,0,0,806,
scooby_state_5556e3e3c7d9|62|3 802,0,0,0,0,0,1,0,0,1,0,0,0,1,0,805,
scooby_state_5556e3e3c7d9|55|2 800,0,0,0,1,0,1,0,0,0,0,3,0,0,0,805,
scooby_state_5556e3e3c7d9|25|2 800,0,0,0,0,0,1,0,0,1,0,1,1,0,1,805,
scooby_state_5556e3e3c7d9|3|2 796,0,0,1,1,1,0,0,0,2,0,1,0,1,0,803,
scooby_state_5556e3e3c7d9|27|2 798,0,0,1,0,1,0,1,0,2,0,0,0,0,0,803,
scooby_state_5556e3e3c7d9|23|2 797,0,0,1,0,1,0,2,0,0,0,0,0,1,0,802,
scooby_state_5556e3e3c7d9|39|3 799,0,0,0,0,0,0,0,0,1,1,0,0,0,0,801,
scooby_state_5556e3e3c7d9|48|2 788,2,1,0,0,1,1,1,0,1,0,3,1,1,0,800,
scooby_state_5556e3e3c7d9|52|2 796,0,0,1,0,0,0,0,1,0,0,0,0,0,0,798,
scooby_state_5556e3e3c7d9|12|0 790,2,0,0,1,0,1,0,0,2,2,0,0,0,0,798,
scooby_state_5556e3e3c7d9|53|3 793,1,0,1,0,0,1,0,0,0,0,0,2,0,0,798,
scooby_state_5556e3e3c7d9|20|3 794,1,0,0,0,0,0,0,0,0,0,0,0,0,1,796,
scooby_state_5556e3e3c7d9|10|2 792,1,0,0,1,0,0,2,0,0,0,0,0,0,0,796,
scooby_state_5556e3e3c7d9|57|3 791,1,0,0,2,0,0,1,0,1,0,0,0,0,0,796,
scooby_state_5556e3e3c7d9|58|2 790,0,0,0,0,0,0,1,0,0,1,2,0,0,1,795,
scooby_state_5556e3e3c7d9|22|2 788,1,0,1,0,0,0,0,0,1,1,1,1,1,0,795,
scooby_state_5556e3e3c7d9|13|2 787,0,1,1,0,0,0,3,0,0,0,0,0,0,2,794,
scooby_state_5556e3e3c7d9|19|3 793,0,0,0,0,0,1,0,0,0,0,0,0,0,0,794,
scooby_state_5556e3e3c7d9|47|3 791,0,0,0,0,0,0,1,0,0,0,0,1,0,0,793,
scooby_state_5556e3e3c7d9|3|3 790,0,0,0,0,0,0,0,0,0,0,0,1,0,0,791,
scooby_state_5556e3e3c7d9|45|3 789,0,0,0,0,0,1,0,0,0,0,0,0,0,1,791,
scooby_state_5556e3e3c7d9|19|2 784,2,0,1,1,0,0,0,1,0,0,2,0,0,0,791,
scooby_state_5556e3e3c7d9|47|2 785,0,0,2,0,0,0,0,1,0,1,0,1,0,0,790,
scooby_state_5556e3e3c7d9|37|3 788,0,0,0,0,0,0,0,1,0,0,0,0,0,0,789,
scooby_state_5556e3e3c7d9|37|2 785,1,0,2,0,0,0,1,0,0,0,0,0,0,0,789,
scooby_state_5556e3e3c7d9|9|2 785,0,0,0,0,0,0,2,0,0,0,0,0,0,0,787,
scooby_state_5556e3e3c7d9|54|3 784,0,0,0,1,0,1,0,0,0,0,0,0,0,0,786,
scooby_state_5556e3e3c7d9|61|2 783,0,0,1,0,0,0,0,0,0,0,0,1,1,0,786,
scooby_state_5556e3e3c7d9|41|2 778,0,2,1,0,0,1,1,0,1,1,1,0,0,0,786,
scooby_state_5556e3e3c7d9|13|0 773,3,1,1,1,0,0,1,2,0,1,0,0,1,0,784,
scooby_state_5556e3e3c7d9|28|3 783,0,0,0,0,0,0,0,0,0,0,0,0,0,0,783,
scooby_state_5556e3e3c7d9|59|3 782,0,0,0,0,0,0,0,0,0,0,0,0,0,1,783,
scooby_state_5556e3e3c7d9|33|2 775,1,1,2,0,0,0,1,0,0,1,0,1,0,1,783,
scooby_state_5556e3e3c7d9|27|3 780,0,0,0,0,0,0,0,0,0,0,1,1,0,0,782,
scooby_state_5556e3e3c7d9|63|2 773,2,1,0,0,0,0,0,0,0,2,1,0,0,0,779,
scooby_state_5556e3e3c7d9|59|2 776,0,1,0,0,0,0,0,0,0,0,2,0,0,0,779,
scooby_state_5556e3e3c7d9|11|3 774,1,0,0,1,0,0,1,0,0,0,0,0,0,0,777,
scooby_state_5556e3e3c7d9|43|2 771,0,0,0,0,0,2,0,0,0,1,2,0,0,0,776,
scooby_state_5556e3e3c7d9|17|2 771,0,1,0,0,1,0,0,0,1,1,1,0,0,0,776,
scooby_state_5556e3e3c7d9|5|2 771,0,0,0,1,0,1,0,0,0,0,0,1,0,2,776,
scooby_state_5556e3e3c7d9|55|3 773,0,0,0,1,0,0,0,0,0,0,0,0,1,0,775,
scooby_state_5556e3e3c7d9|4|3 774,0,0,0,0,0,0,0,0,0,0,0,0,0,0,774,
scooby_state_5556e3e3c7d9|21|3 771,0,0,0,0,1,0,0,0,0,0,0,0,0,1,773,
scooby_state_5556e3e3c7d9|50|3 772,0,0,0,0,0,0,0,0,0,1,0,0,0,0,773,
scooby_state_5556e3e3c7d9|24|3 771,0,0,0,0,0,0,1,0,0,0,0,0,0,0,772,
scooby_state_5556e3e3c7d9|39|2 766,0,0,1,0,0,0,1,0,1,0,0,1,1,0,771,
scooby_state_5556e3e3c7d9|20|2 766,0,0,1,0,1,0,1,0,0,0,0,0,1,0,770,
scooby_state_5556e3e3c7d9|61|3 768,0,0,0,0,0,0,0,0,1,0,0,0,0,0,769,
scooby_state_5556e3e3c7d9|9|3 763,2,0,0,0,1,0,0,0,1,0,1,1,0,0,769,
scooby_state_5556e3e3c7d9|8|3 767,1,0,0,0,0,0,0,0,0,0,0,0,0,0,768,
scooby_state_5556e3e3c7d9|40|2 764,0,0,0,0,0,1,1,0,0,1,0,0,0,0,767,
scooby_state_5556e3e3c7d9|13|3 764,0,0,0,0,0,0,0,1,0,0,0,1,0,1,767,
scooby_state_5556e3e3c7d9|26|3 764,0,0,0,1,0,0,0,0,0,0,0,1,0,1,767,
scooby_state_5556e3e3c7d9|5|3 765,0,0,0,0,0,0,0,0,0,0,0,0,1,0,766,
scooby_state_5556e3e3c7d9|14|0 760,1,1,1,0,0,0,0,0,0,0,1,1,0,0,765,
scooby_state_5556e3e3c7d9|12|2 760,0,0,1,2,0,0,1,0,0,0,1,0,0,0,765,
scooby_state_5556e3e3c7d9|11|2 756,1,0,0,0,0,0,1,0,0,2,1,1,1,1,764,
scooby_state_5556e3e3c7d9|12|3 759,1,0,0,1,0,1,0,0,1,0,0,0,0,0,763,
scooby_state_5556e3e3c7d9|10|3 759,0,0,0,0,0,1,1,0,0,0,0,0,0,0,761,
scooby_state_5556e3e3c7d9|36|2 757,0,0,1,1,0,0,0,0,0,0,1,1,0,0,761,
scooby_state_5556e3e3c7d9|31|3 757,1,1,0,0,0,0,0,0,1,0,0,0,0,0,760,
scooby_state_5556e3e3c7d9|45|2 753,0,1,1,0,1,0,1,0,0,0,1,0,1,0,759,
scooby_state_5556e3e3c7d9|18|3 756,0,0,0,0,0,0,0,0,1,0,0,0,1,0,758,
scooby_state_5556e3e3c7d9|35|3 757,0,0,0,0,0,0,0,0,1,0,0,0,0,0,758,
scooby_state_5556e3e3c7d9|32|3 749,0,1,0,0,0,0,1,0,1,0,0,2,0,0,754,
scooby_state_5556e3e3c7d9|22|3 752,0,0,0,0,0,0,0,0,0,0,0,1,0,0,753,
scooby_state_5556e3e3c7d9|15|0 748,0,3,1,0,0,0,0,0,1,0,0,0,0,0,753,
scooby_state_5556e3e3c7d9|30|3 749,0,0,0,0,0,0,0,0,0,0,0,0,0,0,749,
scooby_state_5556e3e3c7d9|6|3 747,0,0,0,0,0,0,0,0,1,0,0,0,0,0,748,
scooby_state_5556e3e3c7d9|42|3 745,1,0,1,0,0,0,0,0,0,0,0,1,0,0,748,
scooby_state_5556e3e3c7d9|44|3 743,1,0,0,0,0,1,1,0,1,0,0,0,0,0,747,
scooby_state_5556e3e3c7d9|38|3 739,0,0,0,1,1,0,0,0,0,0,0,0,0,2,743,
scooby_state_5556e3e3c7d9|56|3 738,1,0,0,0,0,0,0,0,0,0,2,1,1,0,743,
scooby_state_5556e3e3c7d9|7|3 740,0,0,0,0,0,0,0,0,0,0,0,1,0,1,742,
scooby_state_5556e3e3c7d9|58|3 736,2,0,0,0,0,0,0,0,1,0,0,0,2,0,741,
scooby_state_5556e3e3c7d9|17|0 732,1,0,0,1,1,1,1,1,0,0,1,0,0,1,740,
scooby_state_5556e3e3c7d9|63|3 732,1,1,2,0,0,1,1,1,0,0,0,0,0,0,739,
scooby_state_5556e3e3c7d9|14|3 738,0,0,0,0,0,0,0,0,1,0,0,0,0,0,739,
scooby_state_5556e3e3c7d9|51|3 730,0,1,0,1,1,1,0,0,0,0,1,0,0,0,735,
scooby_state_5556e3e3c7d9|33|3 733,0,0,0,0,0,0,0,0,0,0,0,0,0,1,734,
scooby_state_5556e3e3c7d9|40|3 730,0,0,0,0,2,1,0,0,0,0,0,0,0,0,733,
scooby_state_5556e3e3c7d9|17|3 728,1,0,0,0,0,1,1,0,0,0,0,0,1,0,732,
scooby_state_5556e3e3c7d9|16|3 730,0,0,0,0,0,0,0,0,0,0,0,0,0,0,730,
scooby_state_5556e3e3c7d9|19|0 721,1,1,0,0,1,0,0,1,0,2,0,0,0,2,729,
scooby_state_5556e3e3c7d9|46|3 727,0,0,0,0,0,0,0,0,0,1,0,0,0,0,728,
scooby_state_5556e3e3c7d9|48|3 724,0,0,0,0,0,0,0,0,0,0,0,0,0,0,724,
scooby_state_5556e3e3c7d9|15|3 722,0,0,0,0,0,0,0,0,0,0,1,0,0,0,723,
scooby_state_5556e3e3c7d9|21|0 715,0,2,1,0,0,1,2,0,0,0,1,0,0,0,722,
scooby_state_5556e3e3c7d9|41|3 721,0,0,0,0,0,0,0,0,0,0,0,0,0,0,721,
scooby_state_5556e3e3c7d9|43|3 715,2,0,0,0,0,0,0,0,0,0,0,0,0,0,717,
scooby_state_5556e3e3c7d9|16|0 708,2,0,1,0,0,0,0,1,0,2,0,0,1,1,716,
scooby_state_5556e3e3c7d9|18|0 713,1,0,0,0,0,0,0,0,0,0,0,0,0,1,715,
scooby_state_5556e3e3c7d9|23|0 682,4,0,0,2,0,0,1,2,1,0,0,1,0,0,693,
scooby_state_5556e3e3c7d9|22|0 683,1,0,1,0,0,0,0,0,1,1,0,1,0,0,688,
scooby_state_5556e3e3c7d9|36|3 677,0,0,0,0,0,0,0,0,0,0,0,0,0,0,677,
scooby_state_5556e3e3c7d9|24|0 634,3,0,1,1,0,1,1,0,2,0,1,0,0,0,644,
scooby_state_5556e3e3c7d9|20|0 630,1,0,0,0,1,1,1,0,0,1,0,0,0,1,636,
scooby_state_5556e3e3c7d9|25|0 572,0,2,0,1,0,1,0,0,1,0,1,0,1,0,579,
scooby_state_5556e3e3c7d9|26|0 495,0,1,0,1,1,2,0,0,0,0,0,0,0,0,500,
scooby_state_5556e3e3c7d9|27|0 412,0,0,0,0,0,1,0,0,0,1,0,0,0,0,414,
scooby_state_5556e3e3c7d9|28|0 393,0,0,0,0,0,0,1,0,0,0,0,2,1,0,397,
scooby_state_5556e3e3c80b|27|2 364,2,1,2,0,1,3,2,0,0,0,3,0,2,2,382,
scooby_state_5556e3e3c7d9|29|0 371,1,2,1,0,0,1,0,1,0,0,0,0,0,0,377,
scooby_state_5556e3e3c80b|32|2 363,0,1,1,0,2,1,1,1,1,1,1,1,2,0,376,
scooby_state_5556e3e3c7d9|34|8 370,0,0,0,0,0,0,0,0,0,0,0,0,0,0,370,
scooby_state_5556e3e3c80b|12|6 349,0,2,3,1,3,1,2,0,0,1,2,0,1,1,366,
scooby_state_5556e3e3c80b|12|9 349,0,4,2,0,0,1,0,2,0,1,1,2,0,4,366,
scooby_state_5556e3e3c7d9|39|8 360,0,1,0,0,0,0,0,0,0,0,0,0,0,1,362,
scooby_state_5556e3e3c7d9|35|8 357,0,1,0,0,0,0,0,0,0,0,0,0,0,0,358,
scooby_state_5556e3e3c80b|30|3 344,0,0,1,1,1,1,0,0,1,1,0,1,1,1,353,
scooby_state_5556e3e3c80b|32|11 343,1,2,2,0,1,2,0,0,0,0,0,0,0,2,353,
scooby_state_5556e3e3c80b|32|5 330,0,12,1,1,1,1,0,0,1,0,1,0,0,5,353,
scooby_state_5556e3e3c7d9|9|8 351,0,0,0,0,0,0,0,0,0,0,0,0,0,0,351,
scooby_state_5556e3e3c80b|32|7 332,1,9,0,1,2,0,0,0,0,0,1,1,1,2,350,
scooby_state_5556e3e3c80b|32|8 337,0,3,0,0,1,1,0,0,1,0,4,2,0,1,350,
scooby_state_5556e3e3c7d9|20|8 348,0,0,0,1,0,0,0,0,0,0,0,0,0,0,349,
scooby_state_5556e3e3c80b|30|6 333,0,1,1,0,4,2,1,0,0,1,0,2,0,4,349,
scooby_state_5556e3e3c80b|13|1 335,1,0,1,3,0,0,1,0,1,1,2,1,1,1,348,
scooby_state_5556e3e3c80b|12|2 323,0,2,3,3,0,0,1,4,3,1,3,0,0,2,345,
scooby_state_5556e3e3c80b|36|4 330,1,0,2,0,0,2,0,1,0,0,3,3,1,1,344,
scooby_state_5556e3e3c7d9|21|8 340,1,2,0,0,0,0,0,0,0,0,0,0,1,0,344,
scooby_state_5556e3e3c80b|30|4 328,2,0,0,1,2,2,0,0,3,0,3,3,0,0,344,
scooby_state_5556e3e3c80b|6|3 337,2,0,0,0,1,0,0,1,1,1,0,0,0,1,344,
scooby_state_5556e3e3c7d9|24|8 343,0,0,0,0,0,0,0,0,0,0,0,0,0,0,343,
scooby_state_5556e3e3c7d9|23|8 341,0,2,0,0,0,0,0,0,0,0,0,0,0,0,343,
scooby_state_5556e3e3c80b|12|4 325,1,0,1,0,1,0,0,1,2,1,2,4,1,3,342,
scooby_state_5556e3e3c7d9|38|8 341,0,1,0,0,0,0,0,0,0,0,0,0,0,0,342,
scooby_state_5556e3e3c80b|33|1 331,1,1,0,0,1,0,0,1,1,1,2,0,0,2,341,
scooby_state_5556e3e3c80b|32|4 332,0,0,1,1,2,0,0,0,2,1,0,1,1,0,341,
scooby_state_5556e3e3c7d9|18|8 339,0,0,1,0,0,0,0,0,0,0,0,0,1,0,341,
scooby_state_5556e3e3c7d9|46|8 340,1,0,0,0,0,0,0,0,0,0,0,0,0,0,341,
scooby_state_5556e3e3c80b|28|3 333,1,1,1,0,0,0,1,1,1,0,0,0,2,0,341,
scooby_state_5556e3e3c7d9|25|8 339,0,0,0,0,0,0,0,0,0,0,1,0,0,0,340,
scooby_state_5556e3e3c80b|32|3 333,0,0,1,0,2,0,1,1,0,0,0,0,0,1,339,
scooby_state_5556e3e3c7d9|45|8 338,0,1,0,0,0,0,0,0,0,0,0,0,0,0,339,
scooby_state_5556e3e3c7d9|27|8 338,0,1,0,0,0,0,0,0,0,0,0,0,0,0,339,
scooby_state_5556e3e3c80b|12|3 327,1,0,2,0,0,1,0,1,1,0,1,2,1,1,338,
scooby_state_5556e3e3c80b|32|6 318,2,0,1,0,2,0,1,1,2,2,4,1,1,1,336,
scooby_state_5556e3e3c7d9|48|8 334,0,1,1,0,0,0,0,0,0,0,0,0,0,0,336,
scooby_state_5556e3e3c7d9|55|8 335,1,0,0,0,0,0,0,0,0,0,0,0,0,0,336,
scooby_state_5556e3e3c80b|30|2 321,1,2,2,0,0,0,4,1,0,0,1,4,0,0,336,
scooby_state_5556e3e3c80b|25|4 323,0,0,2,1,0,3,0,1,1,0,1,0,1,2,335,
scooby_state_5556e3e3c7d9|14|8 334,0,0,0,0,0,0,0,0,0,0,0,0,0,0,334,
scooby_state_5556e3e3c80b|7|1 318,2,2,2,1,3,0,0,0,0,0,3,1,0,2,334,
scooby_state_5556e3e3c80b|27|7 322,0,6,3,1,0,0,0,0,1,0,1,0,0,0,334,
scooby_state_5556e3e3c7d9|60|8 333,0,1,0,0,0,0,0,0,0,0,0,0,0,0,334,
scooby_state_5556e3e3c7d9|51|8 333,0,0,0,0,0,0,0,0,1,0,0,0,0,0,334,
scooby_state_5556e3e3c7d9|54|8 331,0,0,1,0,0,0,0,0,0,0,0,0,0,0,332,
scooby_state_5556e3e3c80b|21|9 323,1,0,1,1,1,0,0,0,1,0,1,0,1,1,331,
scooby_state_5556e3e3c80b|24|4 311,2,0,2,0,1,4,1,1,1,0,1,1,2,2,329,
scooby_state_5556e3e3c80b|56|8 312,0,2,2,2,1,0,0,2,1,1,0,0,3,3,329,
scooby_state_5556e3e3c80b|39|7 308,1,7,2,1,0,2,2,2,0,0,1,0,3,0,329,
scooby_state_5556e3e3c80b|40|8 308,0,1,5,0,1,3,0,0,0,1,2,2,0,5,328,
scooby_state_5556e3e3c7d9|61|8 327,0,0,0,1,0,0,0,0,0,0,0,0,0,0,328,
scooby_state_5556e3e3c80b|41|9 317,2,0,2,1,0,0,0,0,1,0,1,2,1,1,328,
scooby_state_5556e3e3c7d9|8|8 328,0,0,0,0,0,0,0,0,0,0,0,0,0,0,328,
scooby_state_5556e3e3c7d9|47|8 325,0,3,0,0,0,0,0,0,0,0,0,0,0,0,328,
scooby_state_5556e3e3c7d9|53|8 325,0,2,0,0,0,0,0,0,0,0,0,0,0,0,327,
scooby_state_5556e3e3c80b|21|2 311,1,3,2,0,0,2,0,1,2,0,0,3,0,2,327,
scooby_state_5556e3e3c80b|32|13 306,1,2,1,1,2,0,1,2,2,2,1,1,1,3,326,
scooby_state_5556e3e3c80b|38|8 315,1,0,0,1,1,0,0,2,1,0,1,1,1,2,326,
scooby_state_5556e3e3c7d9|10|8 324,0,1,0,0,0,0,1,0,0,0,0,0,0,0,326,
scooby_state_5556e3e3c7d9|33|8 324,0,0,0,0,0,0,0,0,1,0,0,0,0,0,325,
scooby_state_5556e3e3c7d9|49|8 323,0,1,0,0,0,0,0,0,0,0,0,0,0,0,324,
scooby_state_5556e3e3c80b|28|1 307,0,2,0,3,3,1,1,0,1,3,0,1,1,1,324,
scooby_state_5556e3e3c7d9|57|8 323,0,0,0,1,0,0,0,0,0,0,0,0,0,0,324,
scooby_state_5556e3e3c80b|30|11 304,1,1,1,2,3,3,2,0,1,0,1,2,1,1,323,
scooby_state_5556e3e3c7d9|62|8 320,0,1,0,0,0,0,0,1,0,0,0,0,1,0,323,
scooby_state_5556e3e3c80b|41|2 307,3,1,1,0,1,1,1,0,1,0,0,2,1,4,323,
scooby_state_5556e3e3c80b|32|1 300,1,2,3,2,0,1,2,0,0,2,2,3,1,3,322,
scooby_state_5556e3e3c7d9|43|8 321,0,0,0,1,0,0,0,0,0,0,0,0,0,0,322,
scooby_state_5556e3e3c7d9|56|8 321,1,0,0,0,0,0,0,0,0,0,0,0,0,0,322,
scooby_state_5556e3e3c80b|44|5 300,3,5,0,0,1,0,1,1,1,2,1,1,1,5,322,
scooby_state_5556e3e3c7d9|42|8 318,0,1,1,0,0,0,0,0,0,0,0,0,0,1,321,
scooby_state_5556e3e3c7d9|14|9 316,0,0,2,0,1,0,0,0,0,0,0,0,1,1,321,
scooby_state_5556e3e3c80b|39|11 309,0,3,1,0,1,4,0,0,0,0,2,0,0,1,321,
scooby_state_5556e3e3c80b|53|21 300,0,2,1,3,0,1,1,0,0,2,1,3,2,4,320,
scooby_state_5556e3e3c7d9|13|8 317,1,1,0,0,0,0,0,0,0,1,0,0,0,0,320,
scooby_state_5556e3e3c80b|27|15 307,0,2,0,1,2,0,1,1,1,1,0,0,0,4,320,
scooby_state_5556e3e3c7d9|16|9 304,0,0,2,1,2,1,3,1,0,1,2,0,1,2,320,
scooby_state_5556e3e3c80b|32|19 296,2,2,0,1,0,1,1,3,1,1,5,3,1,3,320,
scooby_state_5556e3e3c80b|20|1 307,0,1,0,1,0,1,1,2,0,1,2,1,2,0,319,
scooby_state_5556e3e3c7d9|37|8 316,0,2,0,0,0,0,0,0,0,0,0,0,0,0,318,
scooby_state_5556e3e3c7d9|36|8 316,0,1,0,0,0,1,0,0,0,0,0,0,0,0,318,
scooby_state_5556e3e3c80b|39|12 306,1,1,0,1,0,2,1,1,0,0,1,1,0,3,318,
scooby_state_5556e3e3c80b|21|1 305,0,1,2,1,0,1,0,1,1,1,2,0,2,1,318,
scooby_state_5556e3e3c80b|20|7 303,0,8,1,3,0,0,0,0,1,0,0,1,0,1,318,
scooby_state_5556e3e3c80b|56|10 299,0,0,2,0,0,2,1,0,2,2,1,0,5,3,317,
scooby_state_5556e3e3c80b|56|3 308,1,0,0,1,0,0,3,1,0,0,0,0,2,1,317,
scooby_state_5556e3e3c7d9|12|9 306,1,1,1,1,0,2,0,0,1,0,2,1,0,0,316,
scooby_state_5556e3e3c7d9|11|8 316,0,0,0,0,0,0,0,0,0,0,0,0,0,0,316,
scooby_state_5556e3e3c80b|19|6 303,1,0,1,0,1,1,0,1,2,2,1,0,0,3,316,
scooby_state_5556e3e3c80b|17|5 299,0,5,1,2,3,1,0,0,0,0,1,1,1,2,316,
scooby_state_5556e3e3c80b|26|1 296,1,1,1,1,2,0,2,2,1,1,1,1,3,2,315,
scooby_state_5556e3e3c7d9|15|8 313,0,2,0,0,0,0,0,0,0,0,0,0,0,0,315,
scooby_state_5556e3e3c80b|14|8 304,0,0,1,2,0,2,1,0,1,1,0,1,1,1,315,
scooby_state_5556e3e3c80b|53|1 299,2,2,1,1,1,0,2,0,1,0,0,3,1,1,314,
scooby_state_5556e3e3c80b|35|3 305,0,0,0,3,0,2,0,0,0,1,0,0,0,2,313,
scooby_state_5556e3e3c80b|26|5 300,1,5,0,0,0,0,0,0,0,0,1,2,3,1,313,
scooby_state_5556e3e3c7d9|34|9 305,1,0,1,0,0,0,1,0,2,0,0,2,1,0,313,
scooby_state_5556e3e3c80b|28|2 303,0,0,2,0,1,1,0,1,1,0,0,1,3,0,313,
scooby_state_5556e3e3c7d9|26|8 310,0,1,0,0,0,1,0,0,0,0,0,0,0,0,312,
scooby_state_5556e3e3c7d9|52|8 311,0,0,0,0,0,0,0,0,0,0,0,1,0,0,312,
scooby_state_5556e3e3c80b|19|7 287,0,8,0,3,1,2,1,0,0,0,3,3,0,3,311,
scooby_state_5556e3e3c7d9|22|8 309,0,2,0,0,0,0,0,0,0,0,0,0,0,0,311,
scooby_state_5556e3e3c7d9|58|8 309,0,2,0,0,0,0,0,0,0,0,0,0,0,0,311,
scooby_state_5556e3e3c80b|17|4 296,0,1,1,1,1,0,0,1,0,1,2,2,1,4,311,
scooby_state_5556e3e3c80b|4|1 301,0,2,0,0,1,1,0,0,1,1,1,1,0,1,310,
scooby_state_5556e3e3c80b|57|1 302,1,0,0,1,0,1,0,1,0,0,2,1,1,0,310,
scooby_state_5556e3e3c80b|6|4 298,2,1,1,1,0,1,0,0,1,0,2,2,1,0,310,
scooby_state_5556e3e3c7d9|59|8 307,0,0,0,0,0,0,0,0,0,1,0,1,0,0,309,
scooby_state_5556e3e3c80b|13|3 301,1,0,1,0,1,3,0,0,1,0,1,0,0,0,309,
scooby_state_5556e3e3c7d9|32|8 305,0,2,0,0,0,1,0,0,0,0,0,0,0,0,308,
scooby_state_5556e3e3c80b|44|12 294,5,0,0,0,0,0,2,0,1,0,2,1,1,2,308,
scooby_state_5556e3e3c80b|38|11 289,2,2,1,2,1,1,1,0,1,2,0,1,2,3,308,
scooby_state_5556e3e3c7d9|26|9 301,1,1,1,0,0,0,0,0,0,1,0,1,0,2,308,
scooby_state_5556e3e3c80b|41|3 298,1,0,1,3,1,0,1,0,0,0,1,1,0,1,308,
scooby_state_5556e3e3c80b|10|1 293,1,2,0,2,1,1,1,1,1,0,2,1,1,0,307,
scooby_state_5556e3e3c80b|32|26 280,1,2,0,2,0,0,2,1,0,2,6,4,1,6,307,
scooby_state_5556e3e3c80b|42|1 295,2,1,0,1,2,0,0,1,1,0,1,2,1,0,307,
scooby_state_5556e3e3c7d9|19|8 307,0,0,0,0,0,0,0,0,0,0,0,0,0,0,307,
scooby_state_5556e3e3c80b|22|10 297,0,0,0,1,1,1,1,2,0,2,0,0,1,1,307,
scooby_state_5556e3e3c80b|11|3 303,0,0,2,0,1,0,0,0,0,0,1,0,0,0,307,
scooby_state_5556e3e3c80b|52|4 297,2,0,1,1,0,0,2,1,0,0,1,2,0,0,307,
scooby_state_5556e3e3c80b|32|18 293,0,3,2,1,0,1,1,1,0,0,0,1,1,2,306,
scooby_state_5556e3e3c7d9|31|0 305,0,0,0,0,0,0,0,0,1,0,0,0,0,0,306,
scooby_state_5556e3e3c80b|21|4 284,1,1,3,4,1,2,1,0,2,1,2,1,1,2,306,
scooby_state_5556e3e3c7d9|63|8 305,0,1,0,0,0,0,0,0,0,0,0,0,0,0,306,
scooby_state_5556e3e3c80b|13|2 290,0,1,2,1,0,3,0,0,1,0,1,2,3,2,306,
scooby_state_5556e3e3c80b|10|4 293,3,0,0,0,1,1,1,3,0,0,0,1,1,2,306,
scooby_state_5556e3e3c80b|11|1 295,0,2,1,2,0,1,0,1,0,1,0,1,0,1,305,
scooby_state_5556e3e3c7d9|40|8 303,0,1,1,0,0,0,0,0,0,0,0,0,0,0,305,
scooby_state_5556e3e3c80b|27|1 296,3,0,1,0,1,1,1,0,0,1,0,1,0,0,305,
scooby_state_5556e3e3c80b|29|2 291,3,0,1,0,2,1,0,1,1,1,1,1,1,1,305,
scooby_state_5556e3e3c7d9|43|9 298,1,0,0,1,1,0,0,0,1,1,1,0,0,1,305,
scooby_state_5556e3e3c7d9|31|8 304,1,0,0,0,0,0,0,0,0,0,0,0,0,0,305,
scooby_state_5556e3e3c7d9|45|9 288,1,1,5,0,2,1,1,1,0,0,1,1,1,2,305,
scooby_state_5556e3e3c80b|36|6 293,0,0,2,1,1,1,3,0,1,0,1,0,0,2,305,
scooby_state_5556e3e3c7d9|41|8 305,0,0,0,0,0,0,0,0,0,0,0,0,0,0,305,
scooby_state_5556e3e3c80b|25|22 297,1,0,0,1,0,3,0,0,0,0,0,0,1,1,304,
scooby_state_5556e3e3c80b|31|2 292,1,1,1,0,0,1,0,1,1,2,2,0,0,2,304,
scooby_state_5556e3e3c80b|30|18 281,3,2,2,1,2,0,1,2,0,1,4,2,0,3,304,
scooby_state_5556e3e3c80b|3|1 290,1,2,0,3,2,1,3,1,0,0,0,0,0,1,304,
scooby_state_5556e3e3c80b|32|20 283,1,3,2,3,1,0,1,0,1,1,2,2,3,1,304,
scooby_state_5556e3e3c7d9|16|8 303,0,1,0,0,0,0,0,0,0,0,0,0,0,0,304,
scooby_state_5556e3e3c7d9|21|9 296,0,0,0,0,1,2,0,1,1,0,2,0,0,0,303,
scooby_state_5556e3e3c80b|56|13 288,1,0,0,2,0,1,0,2,1,0,0,3,3,2,303,
scooby_state_5556e3e3c80b|3|-53 277,5,2,0,2,2,2,2,3,1,0,3,2,0,2,303,
scooby_state_5556e3e3c7d9|17|8 302,0,0,0,0,0,0,0,0,1,0,0,0,0,0,303,
scooby_state_5556e3e3c7d9|56|9 291,2,1,2,0,0,0,2,1,1,1,0,0,0,2,303,
scooby_state_5556e3e3c80b|57|5 288,1,3,2,0,0,0,1,1,1,0,1,2,0,2,302,
scooby_state_5556e3e3c80b|8|5 284,0,6,1,1,1,0,0,2,1,0,1,2,2,1,302,
scooby_state_5556e3e3c80b|33|4 280,4,1,1,0,3,1,1,3,1,2,0,3,0,2,302,
scooby_state_5556e3e3c80b|56|4 290,1,0,3,0,0,0,2,0,2,1,2,1,0,0,302,
scooby_state_5556e3e3c7d9|44|8 300,0,1,0,0,1,0,0,0,0,0,0,0,0,0,302,
scooby_state_5556e3e3c7d9|62|9 292,0,4,2,0,1,1,0,0,0,0,0,0,2,0,302,
scooby_state_5556e3e3c80b|5|2 292,2,1,0,1,0,0,1,0,0,1,1,1,0,1,301,
scooby_state_5556e3e3c80b|21|3 296,1,0,0,0,0,0,2,0,1,1,0,0,0,0,301,
scooby_state_5556e3e3c80b|20|10 277,1,1,1,3,2,1,0,3,1,1,1,2,3,4,301,
scooby_state_5556e3e3c80b|30|17 290,0,0,3,1,1,1,0,2,1,0,1,0,0,1,301,
scooby_state_5556e3e3c7d9|50|8 301,0,0,0,0,0,0,0,0,0,0,0,0,0,0,301,
scooby_state_5556e3e3c80b|14|4 287,0,1,1,3,1,0,0,2,0,0,0,1,2,3,301,
scooby_state_5556e3e3c7d9|12|8 301,0,0,0,0,0,0,0,0,0,0,0,0,0,0,301,
scooby_state_5556e3e3c80b|25|13 290,1,1,2,2,0,2,1,0,0,0,1,0,0,1,301,
scooby_state_5556e3e3c7d9|30|8 299,0,1,0,0,0,0,0,0,0,0,0,0,0,0,300,
scooby_state_5556e3e3c80b|30|1 290,1,1,0,2,0,2,0,1,0,0,2,1,0,0,300,
scooby_state_5556e3e3c80b|41|1 283,0,1,3,3,1,1,1,1,0,1,0,1,1,3,300,
scooby_state_5556e3e3c80b|27|13 285,0,1,1,3,0,0,0,0,2,1,0,0,2,4,299,
scooby_state_5556e3e3c80b|32|15 279,2,0,1,1,3,0,1,1,0,1,4,1,3,2,299,
scooby_state_5556e3e3c80b|34|22 289,0,0,1,2,0,0,2,0,0,0,0,1,1,3,299,
scooby_state_5556e3e3c80b|10|7 283,1,8,2,1,1,0,0,0,0,1,1,1,0,0,299,
scooby_state_5556e3e3c80b|44|1 289,1,1,0,0,1,2,0,0,0,2,0,0,2,1,299,
scooby_state_5556e3e3c7d9|30|0 293,1,1,0,0,0,0,0,1,0,1,0,0,0,1,298,
scooby_state_5556e3e3c80b|28|5 280,1,6,2,0,0,0,2,0,1,1,2,1,1,1,298,
scooby_state_5556e3e3c80b|9|6 286,0,0,1,0,1,1,1,3,1,0,1,1,2,0,298,
scooby_state_5556e3e3c80b|36|24 283,2,0,1,1,0,1,1,1,1,1,2,2,1,1,298,
scooby_state_5556e3e3c7d9|61|9 291,0,0,1,0,0,2,0,0,0,0,0,1,0,3,298,
scooby_state_5556e3e3c80b|14|5 281,1,9,0,1,3,0,0,2,0,0,0,1,0,0,298,
scooby_state_5556e3e3c80b|18|5 277,0,8,1,0,0,1,0,1,1,1,0,1,3,3,297,
scooby_state_5556e3e3c80b|34|4 281,0,0,1,1,1,2,0,0,1,1,3,1,2,3,297,
scooby_state_5556e3e3c80b|12|12 287,0,0,1,1,0,2,0,0,0,0,0,4,0,2,297,
scooby_state_5556e3e3c7d9|60|9 290,1,1,1,2,0,0,0,0,1,0,0,0,0,1,297,
scooby_state_5556e3e3c80b|24|3 290,1,0,0,0,1,0,0,0,0,1,1,1,1,1,297,
scooby_state_5556e3e3c80b|27|6 289,0,0,0,2,0,0,0,1,0,0,1,2,1,1,297,
scooby_state_5556e3e3c80b|30|20 271,1,1,1,5,0,2,1,0,0,1,4,1,3,6,297,
scooby_state_5556e3e3c80b|21|7 274,0,10,1,3,2,4,0,1,1,0,1,0,0,0,297,
scooby_state_5556e3e3c80b|46|5 285,0,7,1,0,0,1,0,0,0,0,0,1,0,1,296,
scooby_state_5556e3e3c80b|24|2 285,0,1,0,1,2,0,1,0,0,0,2,2,2,0,296,
scooby_state_5556e3e3c80b|3|2 285,1,0,0,0,1,2,1,2,0,0,1,1,1,1,296,
scooby_state_5556e3e3c80b|25|12 290,1,0,0,0,1,0,0,0,0,0,0,3,0,1,296,
scooby_state_5556e3e3c80b|15|3 289,0,0,0,0,2,0,1,1,1,0,0,1,1,0,296,
scooby_state_5556e3e3c80b|12|1 289,0,0,0,2,0,0,0,1,2,0,0,1,0,1,296,
scooby_state_5556e3e3c80b|28|4 286,0,0,0,0,1,1,1,0,1,2,2,1,0,1,296,
scooby_state_5556e3e3c80b|56|24 287,0,0,3,0,1,1,0,0,1,0,0,2,0,1,296,
scooby_state_5556e3e3c7d9|28|8 295,0,1,0,0,0,0,0,0,0,0,0,0,0,0,296,
scooby_state_5556e3e3c80b|33|7 284,1,3,1,0,0,0,0,1,0,0,0,3,1,2,296,
scooby_state_5556e3e3c80b|32|24 288,1,0,1,0,1,1,0,1,0,0,0,1,1,1,296,
scooby_state_5556e3e3c80b|25|11 274,3,1,1,4,3,2,2,0,0,1,3,0,0,2,296,
scooby_state_5556e3e3c80b|53|15 278,0,1,3,1,2,0,0,5,0,0,0,1,1,3,295,
scooby_state_5556e3e3c80b|7|4 285,0,1,1,1,0,1,1,0,0,0,2,0,0,3,295,
scooby_state_5556e3e3c7d9|24|9 280,1,1,2,1,2,0,0,1,2,1,1,0,1,2,295,
scooby_state_5556e3e3c80b|32|9 275,1,3,2,1,0,1,0,0,2,1,2,2,2,2,294,
scooby_state_5556e3e3c80b|34|2 284,1,0,0,0,0,1,2,0,0,1,3,2,0,0,294,
scooby_state_5556e3e3c80b|30|27 280,1,1,1,1,0,0,0,0,1,0,0,0,3,6,294,
scooby_state_5556e3e3c80b|30|12 282,3,2,0,1,1,0,0,0,0,0,3,0,1,1,294,
scooby_state_5556e3e3c80b|56|12 291,1,0,1,0,0,0,0,1,0,0,0,0,0,0,294,
scooby_state_5556e3e3c80b|32|12 281,1,0,0,0,0,0,0,0,1,2,2,1,3,3,294,
scooby_state_5556e3e3c80b|41|16 276,2,2,3,2,2,1,1,0,0,0,0,0,0,5,294,
scooby_state_5556e3e3c80b|56|11 277,2,0,1,0,1,2,2,1,1,1,1,2,1,2,294,
scooby_state_5556e3e3c80b|32|16 282,1,1,2,0,0,1,1,1,0,0,2,2,0,1,294,
scooby_state_5556e3e3c80b|36|8 281,1,2,2,0,0,0,0,1,1,1,0,1,2,1,293,
scooby_state_5556e3e3c7d9|31|9 288,0,0,0,0,2,0,0,1,0,0,1,0,1,0,293,
scooby_state_5556e3e3c7d9|36|9 280,2,0,1,1,2,1,1,2,1,0,2,0,0,0,293,
scooby_state_5556e3e3c80b|22|1 273,2,2,2,4,0,0,0,3,1,0,1,1,1,3,293,
scooby_state_5556e3e3c7d9|40|9 289,0,0,0,0,0,0,0,1,0,0,2,0,0,1,293,
scooby_state_5556e3e3c80b|6|1 281,0,1,1,1,0,1,2,0,1,1,1,1,0,2,293,
scooby_state_5556e3e3c80b|2|2 280,0,1,1,0,2,1,1,1,2,0,2,1,0,1,293,
scooby_state_5556e3e3c80b|56|26 275,2,1,1,1,2,0,0,0,0,1,3,1,2,4,293,
scooby_state_5556e3e3c80b|22|12 281,0,3,0,0,0,3,0,2,1,1,1,1,0,0,293,
scooby_state_5556e3e3c80b|18|15 274,0,2,2,3,3,1,0,2,2,0,1,1,0,2,293,
scooby_state_5556e3e3c80b|41|29 269,0,1,3,2,0,4,3,2,0,0,1,3,2,2,292,
scooby_state_5556e3e3c7d9|48|9 283,0,0,2,1,0,1,0,1,1,0,0,1,1,1,292,
scooby_state_5556e3e3c80b|28|16 278,0,1,2,1,1,0,0,1,0,0,3,1,2,2,292,
scooby_state_5556e3e3c80b|41|11 276,4,0,0,0,1,1,0,1,1,0,3,2,1,2,292,
scooby_state_5556e3e3c80b|42|10 275,2,2,0,2,1,0,0,1,1,2,2,2,1,0,291,
scooby_state_5556e3e3c80b|13|-17 269,0,1,1,3,0,4,0,2,1,2,3,1,1,3,291,
scooby_state_5556e3e3c80b|16|2 274,3,3,0,1,2,2,0,2,0,0,0,1,1,2,291,
scooby_state_5556e3e3c7d9|51|9 281,1,1,1,1,0,2,1,0,0,0,2,0,0,1,291,
scooby_state_5556e3e3c80b|19|13 269,1,3,2,1,1,0,0,3,0,2,4,1,2,2,291,
scooby_state_5556e3e3c80b|30|21 276,1,2,1,1,2,2,0,1,1,1,1,0,0,2,291,
scooby_state_5556e3e3c80b|19|3 285,0,0,0,1,1,1,0,0,0,0,1,0,0,2,291,
scooby_state_5556e3e3c80b|47|15 270,0,0,2,2,1,0,1,1,2,5,0,3,1,3,291,
scooby_state_5556e3e3c80b|56|1 279,2,3,2,2,0,0,0,1,1,0,0,0,0,0,290,
scooby_state_5556e3e3c7d9|33|9 285,0,0,1,0,2,0,1,1,0,0,0,0,0,0,290,
scooby_state_5556e3e3c80b|12|10 270,2,1,1,1,2,4,1,0,3,2,1,2,0,0,290,
scooby_state_5556e3e3c80b|27|10 277,1,2,0,1,0,1,1,0,0,2,0,2,0,3,290,
scooby_state_5556e3e3c80b|28|7 284,0,5,0,1,0,0,0,0,0,0,0,0,0,0,290,
scooby_state_5556e3e3c80b|19|1 284,1,1,1,1,0,0,0,0,2,0,0,0,0,0,290,
scooby_state_5556e3e3c80b|29|1 277,0,2,0,3,1,2,0,1,0,0,1,1,1,1,290,
scooby_state_5556e3e3c7d9|42|9 282,0,1,0,0,0,2,0,1,1,1,0,0,0,2,290,
scooby_state_5556e3e3c80b|30|7 275,0,4,1,3,0,0,2,2,0,0,1,0,1,1,290,
scooby_state_5556e3e3c7d9|22|9 281,3,1,0,2,0,0,0,0,0,1,0,0,1,1,290,
scooby_state_5556e3e3c80b|7|5 269,0,10,0,0,1,0,1,1,1,1,0,4,2,0,290,
scooby_state_5556e3e3c80b|30|9 274,1,1,2,0,1,0,1,0,2,1,1,3,0,3,290,
scooby_state_5556e3e3c80b|3|-29 278,2,0,1,3,1,0,0,3,0,0,0,0,1,0,289,
scooby_state_5556e3e3c80b|29|4 284,0,0,1,0,0,1,0,0,0,0,1,0,1,1,289,
scooby_state_5556e3e3c80b|28|8 276,1,1,2,1,1,1,0,2,1,1,0,0,1,1,289,
scooby_state_5556e3e3c80b|12|5 274,1,5,0,0,1,0,0,1,1,1,1,1,1,2,289,
scooby_state_5556e3e3c80b|27|8 277,0,0,1,2,1,2,1,2,0,0,0,2,1,0,289,
scooby_state_5556e3e3c80b|41|5 272,1,6,2,2,2,1,0,0,0,0,3,0,0,0,289,
scooby_state_5556e3e3c80b|37|5 272,1,7,1,1,1,0,0,0,0,0,1,1,1,3,289,
scooby_state_5556e3e3c7d9|38|9 280,0,1,1,0,0,2,1,0,1,0,0,2,0,1,289,
scooby_state_5556e3e3c80b|29|3 281,0,0,3,0,2,2,0,0,0,0,0,0,0,1,289,
scooby_state_5556e3e3c80b|22|3 277,0,1,2,1,1,3,0,0,0,0,2,0,1,1,289,
scooby_state_5556e3e3c80b|38|13 274,0,0,2,0,4,3,1,0,0,1,1,0,3,0,289,
scooby_state_5556e3e3c80b|48|16 278,2,2,2,0,0,1,0,0,0,0,0,1,1,2,289,
scooby_state_5556e3e3c7d9|29|8 287,0,0,2,0,0,0,0,0,0,0,0,0,0,0,289,
scooby_state_5556e3e3c80b|38|2 267,1,3,4,1,2,1,0,2,1,1,3,1,0,2,289,
scooby_state_5556e3e3c7d9|44|9 275,0,0,2,1,1,2,0,0,0,2,1,0,2,2,288,
scooby_state_5556e3e3c80b|53|25 269,3,2,1,4,1,0,1,1,1,3,0,0,2,0,288,
scooby_state_5556e3e3c80b|61|5 273,1,6,0,0,1,1,0,0,1,1,0,0,2,2,288,
scooby_state_5556e3e3c80b|39|3 279,2,0,0,2,1,1,0,1,1,0,0,0,1,0,288,
scooby_state_5556e3e3c80b|25|8 269,0,3,2,2,0,1,2,1,0,2,2,0,3,1,288,
scooby_state_5556e3e3c80b|39|1 276,1,1,0,1,0,0,1,1,1,0,3,1,0,2,288,
scooby_state_5556e3e3c80b|27|14 276,0,1,0,4,0,0,0,0,1,0,1,2,2,1,288,
scooby_state_5556e3e3c80b|39|2 276,1,1,0,1,2,1,0,0,2,0,1,1,0,2,288,
scooby_state_5556e3e3c80b|31|3 274,0,0,3,0,0,3,1,1,0,1,1,1,1,1,287,
scooby_state_5556e3e3c80b|32|10 269,2,2,0,2,1,1,1,0,0,1,2,1,2,3,287,
scooby_state_5556e3e3c80b|14|1 272,0,2,0,2,2,2,1,0,1,0,1,1,1,2,287,
scooby_state_5556e3e3c7d9|33|0 282,1,0,0,1,0,1,0,1,0,0,0,1,0,0,287,
scooby_state_5556e3e3c80b|49|1 271,0,1,1,3,0,0,4,2,0,1,0,2,0,2,287,
scooby_state_5556e3e3c80b|19|2 272,2,0,1,0,0,1,1,2,1,0,4,1,0,2,287,
scooby_state_5556e3e3c80b|25|19 264,5,2,0,2,0,2,1,0,1,2,0,1,4,3,287,
scooby_state_5556e3e3c80b|18|1 280,1,0,0,1,1,0,1,1,0,0,1,0,0,1,287,
scooby_state_5556e3e3c7d9|57|9 276,3,0,2,0,1,1,0,1,0,0,0,1,0,1,286,
scooby_state_5556e3e3c80b|40|28 273,1,4,0,0,1,1,0,1,2,0,0,1,0,2,286,
scooby_state_5556e3e3c80b|45|1 271,1,1,2,2,1,1,0,0,0,4,1,1,1,0,286,
scooby_state_5556e3e3c80b|21|8 275,0,1,3,1,0,1,0,0,1,0,0,2,1,1,286,
scooby_state_5556e3e3c80b|25|7 277,0,5,0,0,0,2,0,0,0,0,0,0,1,1,286,
scooby_state_5556e3e3c80b|48|3 277,2,0,1,1,1,0,0,1,0,0,0,0,0,3,286,
scooby_state_5556e3e3c80b|30|16 279,1,1,0,0,0,2,0,0,0,0,1,0,1,1,286,
scooby_state_5556e3e3c80b|19|8 273,0,1,2,2,2,0,0,1,1,0,2,0,1,1,286,
scooby_state_5556e3e3c80b|24|7 269,1,7,0,0,1,1,1,1,1,2,1,0,0,1,286,
scooby_state_5556e3e3c80b|6|5 267,1,8,1,1,1,0,2,0,1,0,0,2,0,2,286,
scooby_state_5556e3e3c80b|25|1 276,2,0,0,0,2,1,0,1,1,0,0,0,2,1,286,
scooby_state_5556e3e3c7d9|35|9 280,0,1,1,0,0,0,0,1,0,0,0,1,0,1,285,
scooby_state_5556e3e3c80b|53|9 270,1,0,2,4,0,0,0,0,0,1,2,1,1,3,285,
scooby_state_5556e3e3c80b|21|15 263,3,1,1,4,3,2,2,1,1,0,0,1,1,1,284,
scooby_state_5556e3e3c80b|28|15 264,1,1,1,2,2,0,3,1,1,0,2,2,1,3,284,
scooby_state_5556e3e3c80b|38|28 265,0,4,2,3,2,0,0,1,1,0,2,1,1,2,284,
scooby_state_5556e3e3c80b|29|5 263,0,6,0,1,0,1,1,0,0,3,1,1,4,3,284,
scooby_state_5556e3e3c80b|30|5 267,0,5,1,0,2,1,2,1,0,0,3,0,2,0,284,
scooby_state_5556e3e3c80b|25|2 275,2,0,0,4,0,0,0,0,0,0,0,1,1,1,284,
scooby_state_5556e3e3c80b|24|1 271,0,2,2,0,1,0,2,1,0,1,0,0,3,1,284,
scooby_state_5556e3e3c80b|3|-56 252,0,0,3,4,5,2,1,4,2,2,1,3,2,3,284,
[...]
scooby_state_1483c7015601|24|1 1,0,0,0,0,0,0,0,0,0,0,0,0,0,0,1,
scooby_state_5556e3e3c4c2|19|1 1,0,0,0,0,0,0,0,0,0,0,0,0,0,0,1,
scooby_state_1483c6fdb2c0|11|10 1,0,0,0,0,0,0,0,0,0,0,0,0,0,0,1,
scooby_state_5556e3e3c063|52|40 0,0,0,0,0,0,1,0,0,0,0,0,0,0,0,1,
scooby_state_5556e3e3c063|48|21 0,0,0,0,0,0,0,0,1,0,0,0,0,0,0,1,
scooby_state_5556e3e3c063|30|24 0,0,0,0,0,0,0,0,0,1,0,0,0,0,0,1,
scooby_state_5556e3e3c063|46|-3 1,0,0,0,0,0,0,0,0,0,0,0,0,0,0,1,
scooby_state_1483c7047380|14|-4 1,0,0,0,0,0,0,0,0,0,0,0,0,0,0,1,
scooby_state_1483c70168b0|34|-6 1,0,0,0,0,0,0,0,0,0,0,0,0,0,0,1,
scooby_state_5556e3e3c704|28|1 1,0,0,0,0,0,0,0,0,0,0,0,0,0,0,1,
scooby_state_5556e3e3c6d7|23|4 0,0,1,0,0,0,0,0,0,0,0,0,0,0,0,1,
scooby_state_5556e3e3c063|22|1 0,0,1,0,0,0,0,0,0,0,0,0,0,0,0,1,
scooby_state_5556e3e3c674|25|6 1,0,0,0,0,0,0,0,0,0,0,0,0,0,0,1,
scooby_state_1483c7045951|30|-2 1,0,0,0,0,0,0,0,0,0,0,0,0,0,0,1,
scooby_state_1483c704e648|25|-20 1,0,0,0,0,0,0,0,0,0,0,0,0,0,0,1,
scooby_state_5556e3e3c063|35|11 0,0,0,0,0,0,0,0,0,0,0,0,1,0,0,1,
scooby_state_5556e3e3c063|26|5 0,1,0,0,0,0,0,0,0,0,0,0,0,0,0,1,
scooby_state_5556e3e3c80b|53|0 1,0,0,0,0,0,0,0,0,0,0,0,0,0,0,1,
scooby_state_7ffcd2143d40|53|0 1,0,0,0,0,0,0,0,0,0,0,0,0,0,0,1,
scooby_state_1483c704e8c0|35|10 1,0,0,0,0,0,0,0,0,0,0,0,0,0,0,1,
scooby_state_1483c70484a0|18|1 1,0,0,0,0,0,0,0,0,0,0,0,0,0,0,1,
scooby_state_1483c705244d|17|0 1,0,0,0,0,0,0,0,0,0,0,0,0,0,0,1,
scooby_state_1483c704e902|36|0 1,0,0,0,0,0,0,0,0,0,0,0,0,0,0,1,
scooby_state_5556e3e3c063|36|33 0,0,0,0,0,0,0,0,0,1,0,0,0,0,0,1,
scooby_state_5556e3e3c063|49|16 0,0,0,0,0,0,0,0,0,0,0,1,0,0,0,1,
scooby_state_5556e3e3c063|1|-25 0,1,0,0,0,0,0,0,0,0,0,0,0,0,0,1,
scooby_state_7ffcd2143e41|57|1 1,0,0,0,0,0,0,0,0,0,0,0,0,0,0,1,
scooby_state_5556e3e3c7d9|63|51 1,0,0,0,0,0,0,0,0,0,0,0,0,0,0,1,
scooby_state_5556e3e3c6d7|25|4 0,0,1,0,0,0,0,0,0,0,0,0,0,0,0,1,
scooby_state_5556e3e3c063|36|9 0,0,0,0,0,0,0,0,0,0,0,1,0,0,0,1,
scooby_state_5556e3e3c063|54|11 0,0,0,0,1,0,0,0,0,0,0,0,0,0,0,1,
scooby_state_5556e3e3a5d0|23|-29 1,0,0,0,0,0,0,0,0,0,0,0,0,0,0,1,
scooby_state_1483c70482c0|11|1 1,0,0,0,0,0,0,0,0,0,0,0,0,0,0,1,
scooby_state_5556e3e3c063|28|5 0,0,0,0,0,0,0,0,0,0,0,0,0,0,1,1,
scooby_state_1483c7015706|28|1 1,0,0,0,0,0,0,0,0,0,0,0,0,0,0,1,
scooby_state_5556e3e3c063|62|31 0,0,0,0,0,1,0,0,0,0,0,0,0,0,0,1,
scooby_state_5556e3e3c063|13|13 0,0,0,0,0,1,0,0,0,0,0,0,0,0,0,1,
scooby_state_1483c70510c1|58|1 1,0,0,0,0,0,0,0,0,0,0,0,0,0,0,1,
scooby_state_5556e3e3c6d7|3|-1 0,0,1,0,0,0,0,0,0,0,0,0,0,0,0,1,
scooby_state_5556e3e3c840|33|1 1,0,0,0,0,0,0,0,0,0,0,0,0,0,0,1,
scooby_state_1483c706b120|4|0 1,0,0,0,0,0,0,0,0,0,0,0,0,0,0,1,
scooby_state_1483c7046ea0|58|0 1,0,0,0,0,0,0,0,0,0,0,0,0,0,0,1,
scooby_state_5556e3e3c063|18|7 0,0,0,0,0,0,0,0,0,0,1,0,0,0,0,1,
scooby_state_1483c704e2d0|11|0 1,0,0,0,0,0,0,0,0,0,0,0,0,0,0,1,
scooby_state_5556e3e3c063|24|18 0,0,0,0,1,0,0,0,0,0,0,0,0,0,0,1,
scooby_state_1483c704e5f4|18|-1 1,0,0,0,0,0,0,0,0,0,0,0,0,0,0,1,
scooby_state_1483c706b143|41|0 1,0,0,0,0,0,0,0,0,0,0,0,0,0,0,1,
scooby_state_5556e3e3ae00|56|30 1,0,0,0,0,0,0,0,0,0,0,0,0,0,0,1,
scooby_state_5556e3e3c6c0|9|0 1,0,0,0,0,0,0,0,0,0,0,0,0,0,0,1,
scooby_state_5556e3e3c063|57|41 0,0,0,0,0,1,0,0,0,0,0,0,0,0,0,1,
scooby_state_1483c7015fea|63|1 1,0,0,0,0,0,0,0,0,0,0,0,0,0,0,1,
scooby_state_1483c7016006|0|-61 1,0,0,0,0,0,0,0,0,0,0,0,0,0,0,1,
scooby_state_5556e3e3c4d5|42|0 1,0,0,0,0,0,0,0,0,0,0,0,0,0,0,1,
scooby_state_5556e3e3c410|16|0 1,0,0,0,0,0,0,0,0,0,0,0,0,0,0,1,
scooby_state_1483c7015494|18|1 1,0,0,0,0,0,0,0,0,0,0,0,0,0,0,1,
scooby_state_5556e3e3c063|55|40 0,0,0,0,0,0,0,1,0,0,0,0,0,0,0,1,
scooby_state_5556e3e3c063|31|26 0,0,0,0,0,0,0,0,0,0,0,0,0,1,0,1,
scooby_state_5556e3e3c063|17|16 0,1,0,0,0,0,0,0,0,0,0,0,0,0,0,1,
scooby_state_1483c704ee6c|57|20 0,1,0,0,0,0,0,0,0,0,0,0,0,0,0,1,
scooby_state_1483c7016a18|40|0 1,0,0,0,0,0,0,0,0,0,0,0,0,0,0,1,
scooby_state_5556e3e3c063|23|7 0,0,0,0,0,0,0,0,0,0,0,0,0,0,1,1,
scooby_state_1483c7016f60|61|26 1,0,0,0,0,0,0,0,0,0,0,0,0,0,0,1,
scooby_state_5556e3e3c063|20|15 0,1,0,0,0,0,0,0,0,0,0,0,0,0,0,1,
scooby_state_5556e3e3c063|56|13 0,0,0,0,1,0,0,0,0,0,0,0,0,0,0,1,
scooby_state_1483c79ea6d0|14|-26 1,0,0,0,0,0,0,0,0,0,0,0,0,0,0,1,
scooby_state_1483c70c97b0|30|0 1,0,0,0,0,0,0,0,0,0,0,0,0,0,0,1,
scooby_state_1483c7051102|4|1 1,0,0,0,0,0,0,0,0,0,0,0,0,0,0,1,
scooby_state_1483c70ec230|8|1 1,0,0,0,0,0,0,0,0,0,0,0,0,0,0,1,
scooby_state_5556e3e3c063|54|45 0,0,0,1,0,0,0,0,0,0,0,0,0,0,0,1,
scooby_state_5556e3e3c063|0|-36 1,0,0,0,0,0,0,0,0,0,0,0,0,0,0,1,
scooby_state_1483c704e699|26|-9 1,0,0,0,0,0,0,0,0,0,0,0,0,0,0,1,
scooby_state_5556e3e3c063|50|17 0,0,0,0,0,0,0,0,0,0,0,1,0,0,0,1,
scooby_state_5556e3e3c063|50|13 0,0,0,0,0,0,0,0,0,0,0,0,0,1,0,1,
scooby_state_5556e3e3c063|30|13 0,0,1,0,0,0,0,0,0,0,0,0,0,0,0,1,
scooby_state_5556e3e3c5e8|43|-5 1,0,0,0,0,0,0,0,0,0,0,0,0,0,0,1,
scooby_state_5556e3e3c6d7|38|3 0,0,1,0,0,0,0,0,0,0,0,0,0,0,0,1,
scooby_state_1483c7051950|37|29 1,0,0,0,0,0,0,0,0,0,0,0,0,0,0,1,
scooby_state_1483c7015f02|60|1 1,0,0,0,0,0,0,0,0,0,0,0,0,0,0,1,
scooby_state_1483c704eb90|46|30 1,0,0,0,0,0,0,0,0,0,0,0,0,0,0,1,
scooby_state_5556e3e3c015|8|0 1,0,0,0,0,0,0,0,0,0,0,0,0,0,0,1,
scooby_state_1483c704f143|5|1 1,0,0,0,0,0,0,0,0,0,0,0,0,0,0,1,
scooby_state_5556e3e3c063|25|17 1,0,0,0,0,0,0,0,0,0,0,0,0,0,0,1,
scooby_state_7ffcd2143980|38|1 1,0,0,0,0,0,0,0,0,0,0,0,0,0,0,1,
scooby_state_1483c7016d44|53|1 1,0,0,0,0,0,0,0,0,0,0,0,0,0,0,1,
scooby_state_5556e3e3c054|47|5 1,0,0,0,0,0,0,0,0,0,0,0,0,0,0,1,
scooby_state_5556e3e3c063|9|3 0,0,0,0,1,0,0,0,0,0,0,0,0,0,0,1,
scooby_state_5556e3e3c063|8|-46 1,0,0,0,0,0,0,0,0,0,0,0,0,0,0,1,
scooby_state_5556e3e3c6d7|20|2 0,0,1,0,0,0,0,0,0,0,0,0,0,0,0,1,
scooby_state_5556e3e3c7d9|61|47 0,0,1,0,0,0,0,0,0,0,0,0,0,0,0,1,
scooby_state_5556e3e3c063|6|5 1,0,0,0,0,0,0,0,0,0,0,0,0,0,0,1,
scooby_state_1483c704f0e6|3|0 1,0,0,0,0,0,0,0,0,0,0,0,0,0,0,1,
scooby_state_5556e3e3c063|50|10 0,0,0,1,0,0,0,0,0,0,0,0,0,0,0,1,
scooby_state_5556e3e3c063|34|18 1,0,0,0,0,0,0,0,0,0,0,0,0,0,0,1,
scooby_state_5556e3e3c063|61|45 0,0,0,0,0,1,0,0,0,0,0,0,0,0,0,1,
scooby_state_5556e3e3c80b|33|0 1,0,0,0,0,0,0,0,0,0,0,0,0,0,0,1,
scooby_state_5556e3e3c063|37|15 0,0,0,0,0,0,0,0,0,0,0,1,0,0,0,1,
scooby_state_5556e3e3c063|52|41 1,0,0,0,0,0,0,0,0,0,0,0,0,0,0,1,
scooby_state_5556e3e3c063|21|17 0,0,1,0,0,0,0,0,0,0,0,0,0,0,0,1,
scooby_state_5556e3e3c063|31|31 0,1,0,0,0,0,0,0,0,0,0,0,0,0,0,1,
scooby_state_5556e3e3c063|32|29 0,0,0,0,0,0,0,0,0,0,0,0,1,0,0,1,
scooby_state_5556e3e43ca0|2|-1 1,0,0,0,0,0,0,0,0,0,0,0,0,0,0,1,
scooby_state_5556e3e3c063|42|24 0,0,0,0,0,0,0,0,0,0,0,1,0,0,0,1,
scooby_state_5556e3e3c063|58|12 1,0,0,0,0,0,0,0,0,0,0,0,0,0,0,1,
scooby_state_1483c79f23b0|14|0 1,0,0,0,0,0,0,0,0,0,0,0,0,0,0,1,
scooby_state_5556e3e3c063|20|4 0,1,0,0,0,0,0,0,0,0,0,0,0,0,0,1,
scooby_state_5556e3e3c063|38|30 0,0,1,0,0,0,0,0,0,0,0,0,0,0,0,1,
scooby_state_5556e3e3c063|42|37 0,1,0,0,0,0,0,0,0,0,0,0,0,0,0,1,
scooby_state_5556e3e3c063|54|-8 1,0,0,0,0,0,0,0,0,0,0,0,0,0,0,1,
scooby_state_5556e3e3c063|43|32 0,0,0,0,0,0,0,1,0,0,0,0,0,0,0,1,
scooby_state_5556e3e3c063|62|41 1,0,0,0,0,0,0,0,0,0,0,0,0,0,0,1,
scooby_state_5556e3e3c063|38|29 0,0,1,0,0,0,0,0,0,0,0,0,0,0,0,1,
scooby_state_5556e3e3c063|49|44 1,0,0,0,0,0,0,0,0,0,0,0,0,0,0,1,
scooby_state_5556e3e3c582|22|1 1,0,0,0,0,0,0,0,0,0,0,0,0,0,0,1,
scooby_state_5556e3e3c063|32|16 0,0,0,0,0,0,0,0,0,0,0,0,1,0,0,1,
scooby_state_1483c704e540|21|1 1,0,0,0,0,0,0,0,0,0,0,0,0,0,0,1,
scooby_state_5556e3e3c063|45|29 0,0,0,0,0,0,0,0,1,0,0,0,0,0,0,1,
scooby_state_5556e3e3c063|20|19 0,0,0,0,0,0,0,0,0,0,0,1,0,0,0,1,
scooby_state_5556e3e3c063|26|22 1,0,0,0,0,0,0,0,0,0,0,0,0,0,0,1,
scooby_state_5556e3e3c063|28|-25 0,0,0,1,0,0,0,0,0,0,0,0,0,0,0,1,
scooby_state_5556e3e3c063|50|25 0,0,0,0,0,0,0,0,0,0,0,0,1,0,0,1,
scooby_state_5556e3e3c051|36|0 1,0,0,0,0,0,0,0,0,0,0,0,0,0,0,1,
scooby_state_5556e3e3c063|45|18 1,0,0,0,0,0,0,0,0,0,0,0,0,0,0,1,
scooby_state_5556e3e3c7d9|50|20 1,0,0,0,0,0,0,0,0,0,0,0,0,0,0,1,
scooby_state_5556e3e3c063|33|3 0,0,0,0,1,0,0,0,0,0,0,0,0,0,0,1,
scooby_state_5556e3e3c063|46|20 0,0,1,0,0,0,0,0,0,0,0,0,0,0,0,1,
scooby_state_5556e3e3c063|37|10 0,0,0,0,0,0,0,0,0,0,0,0,1,0,0,1,
scooby_state_5556e3e3c063|43|31 0,0,0,0,0,1,0,0,0,0,0,0,0,0,0,1,
scooby_state_5556e3e3c063|59|43 0,0,0,0,0,0,0,0,0,1,0,0,0,0,0,1,
scooby_state_5556e3e3c063|41|22 0,0,0,0,0,0,0,0,0,0,0,1,0,0,0,1,
scooby_state_5556e3e3c063|34|11 0,0,0,0,0,1,0,0,0,0,0,0,0,0,0,1,
scooby_state_5556e3e3c603|42|-1 1,0,0,0,0,0,0,0,0,0,0,0,0,0,0,1,
scooby_state_1483c7051c61|49|-1 1,0,0,0,0,0,0,0,0,0,0,0,0,0,0,1,
scooby_state_5556e3e3c7cb|27|2 1,0,0,0,0,0,0,0,0,0,0,0,0,0,0,1,
scooby_state_1483c7075870|33|0 1,0,0,0,0,0,0,0,0,0,0,0,0,0,0,1,
scooby_state_5556e3e3c001|0|-24 1,0,0,0,0,0,0,0,0,0,0,0,0,0,0,1,
scooby_state_1483c707597f|41|-6 1,0,0,0,0,0,0,0,0,0,0,0,0,0,0,1,
scooby_state_5556e3e3c063|45|22 0,0,1,0,0,0,0,0,0,0,0,0,0,0,0,1,
scooby_state_5556e3e3c838|3|-26 0,0,0,0,0,0,0,0,1,0,0,0,0,0,0,1,
scooby_state_5556e3e3c081|2|1 0,1,0,0,0,0,0,0,0,0,0,0,0,0,0,1,
scooby_state_5556e3e3c063|60|32 0,0,1,0,0,0,0,0,0,0,0,0,0,0,0,1,
scooby_state_1483c7051aa0|42|-13 1,0,0,0,0,0,0,0,0,0,0,0,0,0,0,1,
scooby_state_1483c7015f8e|62|2 1,0,0,0,0,0,0,0,0,0,0,0,0,0,0,1,
scooby_state_1483c701286b|22|-20 1,0,0,0,0,0,0,0,0,0,0,0,0,0,0,1,
scooby_state_5556e3e3c7d9|58|51 1,0,0,0,0,0,0,0,0,0,0,0,0,0,0,1,
scooby_state_5556e3e3c063|59|28 0,0,1,0,0,0,0,0,0,0,0,0,0,0,0,1,
scooby_state_5556e3e3c063|36|5 0,1,0,0,0,0,0,0,0,0,0,0,0,0,0,1,
scooby_state_5556e3e3c063|40|11 0,0,0,0,0,0,0,0,0,0,0,0,1,0,0,1,
scooby_state_5556e3e3c7d9|53|53 1,0,0,0,0,0,0,0,0,0,0,0,0,0,0,1,
scooby_state_5556e3e3c063|1|-59 1,0,0,0,0,0,0,0,0,0,0,0,0,0,0,1,
scooby_state_1483c707563e|9|0 0,1,0,0,0,0,0,0,0,0,0,0,0,0,0,1,
scooby_state_1483c70127b0|30|0 1,0,0,0,0,0,0,0,0,0,0,0,0,0,0,1,
scooby_state_5556e3e3c063|24|3 0,0,0,0,0,1,0,0,0,0,0,0,0,0,0,1,
scooby_state_5556e3e3c063|62|30 0,0,0,0,0,0,0,0,0,0,1,0,0,0,0,1,
scooby_state_1483c70ec1d0|7|0 1,0,0,0,0,0,0,0,0,0,0,0,0,0,0,1,
scooby_state_1483c70459c2|39|1 1,0,0,0,0,0,0,0,0,0,0,0,0,0,0,1,
scooby_state_1483c7047370|13|1 1,0,0,0,0,0,0,0,0,0,0,0,0,0,0,1,
scooby_state_1483c7051070|1|0 1,0,0,0,0,0,0,0,0,0,0,0,0,0,0,1,
scooby_state_5556e3e3c063|58|1 0,0,0,0,0,1,0,0,0,0,0,0,0,0,0,1,
scooby_state_5556e3e3c063|43|10 0,0,0,0,0,1,0,0,0,0,0,0,0,0,0,1,
scooby_state_5556e3e3c063|60|33 0,0,0,0,0,0,0,0,0,0,0,0,0,1,0,1,
scooby_state_1483c704e58f|19|-11 1,0,0,0,0,0,0,0,0,0,0,0,0,0,0,1,
scooby_state_5556e3e3c063|9|-28 0,0,1,0,0,0,0,0,0,0,0,0,0,0,0,1,
scooby_state_1483c7051e55|57|8 1,0,0,0,0,0,0,0,0,0,0,0,0,0,0,1,
scooby_state_5556e3e43cb3|53|1 1,0,0,0,0,0,0,0,0,0,0,0,0,0,0,1,
scooby_state_1483c7051076|59|3 1,0,0,0,0,0,0,0,0,0,0,0,0,0,0,1,
scooby_state_1483c7015530|11|0 1,0,0,0,0,0,0,0,0,0,0,0,0,0,0,1,
scooby_state_5556e3e3c063|63|46 0,0,0,0,1,0,0,0,0,0,0,0,0,0,0,1,
scooby_state_5556e3e3c063|37|30 0,0,0,0,0,0,0,0,1,0,0,0,0,0,0,1,
scooby_state_1483c704e940|37|1 1,0,0,0,0,0,0,0,0,0,0,0,0,0,0,1,
scooby_state_5556e3e3c063|58|0 0,0,0,0,0,0,0,0,1,0,0,0,0,0,0,1,
scooby_state_5556e3e3c063|18|13 0,0,0,0,1,0,0,0,0,0,0,0,0,0,0,1,
scooby_state_5556e3e3c063|30|20 0,1,0,0,0,0,0,0,0,0,0,0,0,0,0,1,
scooby_state_7ffcd2143970|37|-20 1,0,0,0,0,0,0,0,0,0,0,0,0,0,0,1,
scooby_state_5556e3e3c6d7|15|3 0,0,1,0,0,0,0,0,0,0,0,0,0,0,0,1,
scooby_state_5556e3e3a690|26|-16 1,0,0,0,0,0,0,0,0,0,0,0,0,0,0,1,
scooby_state_5556e3e3c063|15|14 0,0,0,0,0,0,0,0,0,0,0,0,0,1,0,1,
scooby_state_1483c7048420|16|5 1,0,0,0,0,0,0,0,0,0,0,0,0,0,0,1,
scooby_state_5556e3e3c063|46|46 0,0,1,0,0,0,0,0,0,0,0,0,0,0,0,1,
scooby_state_5556e3e3c063|53|24 0,0,0,0,0,0,0,0,0,1,0,0,0,0,0,1,
scooby_state_5556e3e3c063|54|22 0,0,0,0,0,0,0,0,0,0,0,1,0,0,0,1,
scooby_state_5556e3e3c063|37|6 0,0,0,0,0,0,0,0,1,0,0,0,0,0,0,1,
scooby_state_5556e3e3ae73|23|0 1,0,0,0,0,0,0,0,0,0,0,0,0,0,0,1,
scooby_state_1483c7051d43|53|1 1,0,0,0,0,0,0,0,0,0,0,0,0,0,0,1,
scooby_state_5556e3e3c063|56|49 1,0,0,0,0,0,0,0,0,0,0,0,0,0,0,1,
scooby_state_5556e3e3c063|50|39 0,0,0,0,0,0,0,0,0,0,0,0,0,1,0,1,
scooby_state_5556e3e3c063|9|6 0,0,0,1,0,0,0,0,0,0,0,0,0,0,0,1,
scooby_state_5556e3e3c063|21|18 0,0,0,0,0,1,0,0,0,0,0,0,0,0,0,1,
scooby_state_1483c79eb3f0|15|0 1,0,0,0,0,0,0,0,0,0,0,0,0,0,0,1,
scooby_state_5556e3e3a5d0|60|5 1,0,0,0,0,0,0,0,0,0,0,0,0,0,0,1,
scooby_state_1483c7038141|5|1 1,0,0,0,0,0,0,0,0,0,0,0,0,0,0,1,
scooby_state_5556e3e3c063|18|-1 0,0,1,0,0,0,0,0,0,0,0,0,0,0,0,1,
scooby_state_5556e3e3c500|20|0 1,0,0,0,0,0,0,0,0,0,0,0,0,0,0,1,
scooby_state_1483c705107d|48|47 1,0,0,0,0,0,0,0,0,0,0,0,0,0,0,1,
scooby_state_1483c704e42a|16|-45 1,0,0,0,0,0,0,0,0,0,0,0,0,0,0,1,
scooby_state_1483c704f20e|8|0 1,0,0,0,0,0,0,0,0,0,0,0,0,0,0,1,
scooby_state_5556e3e3c063|56|27 0,0,0,0,0,0,1,0,0,0,0,0,0,0,0,1,

scooby_action_0_deg_dist 0,11659,0,0,0,0,0,0,0,0,0,0,0,0,0,0,
scooby_action_4_deg_dist 0,33237,6300,0,12283,0,118016,0,0,0,0,0,0,0,0,0,
scooby_action_32_deg_dist 0,5612,23,0,0,0,0,0,0,0,0,0,0,0,0,0,
scooby_action_3_deg_dist 0,12210,1300,0,750,0,24,0,0,0,0,0,0,0,0,0,
scooby_action_5_deg_dist 0,8120,46,0,13,0,0,0,0,0,0,0,0,0,0,0,
scooby_action_1_deg_dist 0,891793,317380,0,228681,0,725210,0,0,0,0,0,0,0,0,0,
scooby_action_30_deg_dist 0,5782,19,0,11,0,0,0,0,0,0,0,0,0,0,0,
scooby_action_-3_deg_dist 0,7592,355,0,5,0,0,0,0,0,0,0,0,0,0,0,
scooby_action_10_deg_dist 0,7529,70,0,12,0,0,0,0,0,0,0,0,0,0,0,
scooby_action_-1_deg_dist 0,8291,29,0,3,0,0,0,0,0,0,0,0,0,0,0,
scooby_action_23_deg_dist 0,6099,30,0,0,0,0,0,0,0,0,0,0,0,0,0,
scooby_action_-6_deg_dist 0,7289,56,0,405,0,0,0,0,0,0,0,0,0,0,0,
scooby_action_11_deg_dist 0,7319,37,0,10,0,0,0,0,0,0,0,0,0,0,0,
scooby_action_22_deg_dist 0,6337,26,0,1,0,0,0,0,0,0,0,0,0,0,0,
scooby_action_12_deg_dist 0,7176,49,0,23,0,1,0,0,0,0,0,0,0,0,0,

scooby_track_called 2437213
scooby_track_same_address 19724
scooby_track_evict 2417233

scooby_reward_demand_called 2437213
scooby_reward_demand_pt_not_found 1522690
scooby_reward_demand_pt_found 914523
scooby_reward_demand_pt_found_total 914523
scooby_reward_demand_has_reward 82
scooby_reward_train_called 1444004
scooby_reward_assign_reward_called 2417479
scooby_reward_no_pref 11659
scooby_reward_incorrect 1432345
scooby_reward_correct_untimely 761066
scooby_reward_correct_timely 153375
scooby_reward_out_of_bounds 59034
scooby_reward_tracker_hit 0

scooby_reward_none_low_bw 11659
scooby_reward_none_high_bw 0
scooby_reward_incorrect_low_bw 1432345
scooby_reward_incorrect_high_bw 0
scooby_reward_correct_untimely_low_bw 761066
scooby_reward_correct_untimely_high_bw 0
scooby_reward_correct_timely_low_bw 153375
scooby_reward_correct_timely_high_bw 0
scooby_reward_out_of_bounds_low_bw 59034
scooby_reward_out_of_bounds_high_bw 0
scooby_reward_tracker_hit_low_bw 0
scooby_reward_tracker_hit_high_bw 0

scooby_reward_1 0,1347281,635949,134982,33778,0,
scooby_reward_3 0,9662,1512,1713,693,0,
scooby_reward_4 0,23995,117681,15725,10486,0,
scooby_reward_5 0,6019,761,136,667,0,
scooby_reward_10 0,5122,602,179,1176,0,
scooby_reward_11 0,4931,595,148,1214,0,
scooby_reward_12 0,4778,561,139,1275,0,
scooby_reward_22 0,3469,432,83,1948,0,
scooby_reward_23 0,3398,363,65,1916,0,
scooby_reward_30 0,2801,300,91,2322,0,
scooby_reward_32 0,2552,276,50,2415,0,
scooby_reward_-1 0,6637,738,25,132,0,
scooby_reward_-3 0,6051,655,25,371,0,
scooby_reward_-6 0,5649,641,14,641,0,
scooby_reward_0 11659,0,0,0,0,0,

scooby_train_called 2417232
scooby_train_compute_reward 1444004

scooby_register_fill_called 1463932
scooby_register_fill_set 363656
scooby_register_fill_set_total 363656

scooby_register_prefetch_hit_called 5493099
scooby_register_prefetch_hit_set 2103055
scooby_register_prefetch_hit_set_total 2103055

scooby_pref_issue_scooby 7098455

learning_engine_featurewise.action.called 2437213
learning_engine_featurewise.action.explore 4457
learning_engine_featurewise.action.exploit 2432756
learning_engine_featurewise.action.fallback 1399568
learning_engine_featurewise.action.dyn_fallback_saved_bw 0
learning_engine_featurewise.action.dyn_fallback_saved_bw_acc 4602
learning_engine_featurewise.action.index_1_explored 291
learning_engine_featurewise.action.index_1_exploited 2162773
learning_engine_featurewise.action.index_3_explored 308
learning_engine_featurewise.action.index_3_exploited 13976
learning_engine_featurewise.action.index_4_explored 312
learning_engine_featurewise.action.index_4_exploited 169524
learning_engine_featurewise.action.index_5_explored 272
learning_engine_featurewise.action.index_5_exploited 7907
learning_engine_featurewise.action.index_10_explored 333
learning_engine_featurewise.action.index_10_exploited 7278
learning_engine_featurewise.action.index_11_explored 304
learning_engine_featurewise.action.index_11_exploited 7062
learning_engine_featurewise.action.index_12_explored 297
learning_engine_featurewise.action.index_12_exploited 6952
learning_engine_featurewise.action.index_22_explored 297
learning_engine_featurewise.action.index_22_exploited 6067
learning_engine_featurewise.action.index_23_explored 295
learning_engine_featurewise.action.index_23_exploited 5834
learning_engine_featurewise.action.index_30_explored 295
learning_engine_featurewise.action.index_30_exploited 5517
learning_engine_featurewise.action.index_32_explored 255
learning_engine_featurewise.action.index_32_exploited 5380
learning_engine_featurewise.action.index_-1_explored 303
learning_engine_featurewise.action.index_-1_exploited 8020
learning_engine_featurewise.action.index_-3_explored 302
learning_engine_featurewise.action.index_-3_exploited 7650
learning_engine_featurewise.action.index_-6_explored 280
learning_engine_featurewise.action.index_-6_exploited 7470
learning_engine_featurewise.action.index_0_explored 313
learning_engine_featurewise.action.index_0_exploited 11346
learning_engine_featurewise.learn.called 2417232
learning_engine_featurewise.learn.su_skip_PC 0
learning_engine_featurewise.learn.su_skip_PC_Delta 0

learning_engine_featurewise.q_value_histogram.bucket_0 75
learning_engine_featurewise.q_value_histogram.bucket_1 2091
learning_engine_featurewise.q_value_histogram.bucket_2 1518087
learning_engine_featurewise.q_value_histogram.bucket_3 67377
learning_engine_featurewise.q_value_histogram.bucket_4 168050
learning_engine_featurewise.q_value_histogram.bucket_5 125945
learning_engine_featurewise.q_value_histogram.bucket_6 551131
learning_engine_featurewise.q_value_histogram.bucket_7 0

learning_engine_featurewise.consensus.total 2432756
learning_engine_featurewise.consensus.feature_align_PC 2306369
learning_engine_featurewise.consensus.feature_align_PC_ratio 0.95
learning_engine_featurewise.consensus.feature_align_PC_Delta 2417666
learning_engine_featurewise.consensus.feature_align_PC_Delta_ratio 0.99
learning_engine_featurewise.consensus.feature_align_all 2293427
learning_engine_featurewise.consensus.feature_align_all_ratio 0.94

learning_engine_featurewise.feature_PC_min_weight 1000000.00000000
learning_engine_featurewise.feature_PC_max_weight 0.00000000
learning_engine_featurewise.feature_PC_Delta_min_weight 1000000.00000000
learning_engine_featurewise.feature_PC_Delta_max_weight 0.00000000
unique_pcs 299
unique_pages 27001
unique_trigger_pcs 89
total_bitmaps_seen 0
unique_bitmaps_seen 0

scooby_bw_epochs 812077
scooby_bw_level_0 653675
scooby_bw_level_1 149450
scooby_bw_level_2 8675
scooby_bw_level_3 277

scooby_ipc_epochs 0
scooby_ipc_level_0 0
scooby_ipc_level_1 0
scooby_ipc_level_2 0
scooby_ipc_level_3 0

scooby_cache_acc_epochs 197757
scooby_cache_acc_level_0 425
scooby_cache_acc_level_1 141
scooby_cache_acc_level_2 1003
scooby_cache_acc_level_3 9472
scooby_cache_acc_level_4 26828
scooby_cache_acc_level_5 38043
scooby_cache_acc_level_6 35451
scooby_cache_acc_level_7 26278
scooby_cache_acc_level_8 16904
scooby_cache_acc_level_9 43212

Channel_0_RQ_row_buffer_hit 668100
Channel_0_RQ_row_buffer_miss 737368
Channel_0_WQ_row_buffer_hit 34293
Channel_0_WQ_row_buffer_miss 101629
Channel_0_WQ_full 147
Channel_0_dbus_congested 560792

avg_congested_cycle 9

DRAM_bw_pochs 812077
DRAM_bw_level_0 653675
DRAM_bw_level_1 149450
DRAM_bw_level_2 8675
DRAM_bw_level_3 277
