*************************************************
   ChampSim Multicore Out-of-Order Simulator
   Last compiled: Apr  3 2025 20:54:34
*************************************************
parsing config file: /home/zir/Pythia/config/nopref.ini

trace_0 /home/zir/ChampSim/ML-DPC/ChampSimTraces/gap/pr-3.trace.gz
adding L2C_PREFETCHER: NONE
Initialize SHIP state
warmup_instructions 10000000
simulation_instructions 50000000
champsim_seed 51
measure_ipc 0
measure_ipc_epoch 1000
measure_dram_bw 1
measure_dram_bw_epoch 256
measure_cache_acc 1
measure_cache_acc_epoch 1024
l1d_perfect 0
l2c_perfect 0
llc_perfect 0
l1d_semi_perfect 0
l2c_semi_perfect 0
llc_semi_perfect 0
semi_perfect_cache_page_buffer_size 64

num_cpus 1
cpu_freq 4000
dram_io_freq 2400
page_size 4096
block_size 64
max_read_per_cycle 8
max_fill_per_cycle 1
dram_channels 1
log2_dram_channels 0
dram_ranks 1
dram_banks 8
dram_rows 65536
dram_columns 128
dram_row_size 8
dram_size 4096
dram_pages 1048576

fetch_width 6
decode_width 6
exec_width 4
lq_width 2
sq_width 2
retire_width 4
scheduler_size 128
branch_mispredict_penalty 20
rob_size 256
lq_size 72
sq_size 56
num_instr_destinations_sparc 4
num_instr_destinations 2
num_instr_sources 4

itlb_set 16
itlb_way 8
itlb_rq_size 16
itlb_wq_size 16
itlb_pq_size 0
itlb_mshr_size 8
itlb_latency 1

dtlb_set 16
dtlb_way 4
dtlb_rq_size 16
dtlb_wq_size 16
dtlb_pq_size 0
dtlb_mshr_size 8
dtlb_latency 1

stlb_set 128
stlb_way 12
stlb_rq_size 32
stlb_wq_size 32
stlb_pq_size 0
stlb_mshr_size 16
stlb_latency 8

l1i_size 32
l1i_set 64
l1i_way 8
l1i_rq_size 64
l1i_wq_size 64
l1i_pq_size 8
l1i_mshr_size 8
l1i_latency 1

l1d_size 32
l1d_set 64
l1d_way 8
l1d_rq_size 64
l1d_wq_size 64
l1d_pq_size 8
l1d_mshr_size 16
l1d_latency 4

l2c_size 256
l2c_set 512
l2c_way 8
l2c_rq_size 32
l2c_wq_size 32
l2c_pq_size 32
l2c_mshr_size 32
l2c_latency 10

llc_size 2048
llc_set 2048
llc_way 16
llc_rq_size 32
llc_wq_size 32
llc_pq_size 32
llc_mshr_size 64
llc_latency 20

dram_channel_width 8
dram_wq_size 64
dram_rq_size 64
tRP 15
tRCD 15
tCAS 12.5
dram_dbus_turn_around_time 30
dram_write_high_wm 56
dram_write_low_wm 48
min_dram_writes_per_switch 16
dram_mtps 2400
dram_dbus_return_time 13


Heartbeat CPU  0 instructions:    1000003 cycles:     399622 heartbeat IPC: 2.50237 cumulative IPC: 2.50237 (Simulation time: 0 hr 0 min 2 sec) 
Heartbeat CPU  0 instructions:    2000000 cycles:     794321 heartbeat IPC: 2.53357 cumulative IPC: 2.51787 (Simulation time: 0 hr 0 min 3 sec) 
Heartbeat CPU  0 instructions:    3000001 cycles:    1189019 heartbeat IPC: 2.53359 cumulative IPC: 2.52309 (Simulation time: 0 hr 0 min 5 sec) 
Heartbeat CPU  0 instructions:    4000000 cycles:    1583718 heartbeat IPC: 2.53357 cumulative IPC: 2.52570 (Simulation time: 0 hr 0 min 8 sec) 
Heartbeat CPU  0 instructions:    5000003 cycles:    1978457 heartbeat IPC: 2.53333 cumulative IPC: 2.52722 (Simulation time: 0 hr 0 min 10 sec) 
Heartbeat CPU  0 instructions:    6000003 cycles:    2373154 heartbeat IPC: 2.53359 cumulative IPC: 2.52828 (Simulation time: 0 hr 0 min 11 sec) 
Heartbeat CPU  0 instructions:    7000002 cycles:    2767857 heartbeat IPC: 2.53355 cumulative IPC: 2.52903 (Simulation time: 0 hr 0 min 13 sec) 
Heartbeat CPU  0 instructions:    8000000 cycles:    3162557 heartbeat IPC: 2.53356 cumulative IPC: 2.52960 (Simulation time: 0 hr 0 min 14 sec) 
Heartbeat CPU  0 instructions:    9000001 cycles:    3557293 heartbeat IPC: 2.53334 cumulative IPC: 2.53001 (Simulation time: 0 hr 0 min 16 sec) 
Heartbeat CPU  0 instructions:   10000003 cycles:    3951992 heartbeat IPC: 2.53358 cumulative IPC: 2.53037 (Simulation time: 0 hr 0 min 17 sec) 

Warmup complete CPU  0 instructions:   10000003 cycles:    3951992 (Simulation time: 0 hr 0 min 17 sec) 

Heartbeat CPU  0 instructions:   11000000 cycles:    5988378 heartbeat IPC: 0.49106 cumulative IPC: 0.49106 (Simulation time: 0 hr 0 min 19 sec) 
Heartbeat CPU  0 instructions:   12000000 cycles:   16890326 heartbeat IPC: 0.09173 cumulative IPC: 0.15458 (Simulation time: 0 hr 0 min 24 sec) 
Heartbeat CPU  0 instructions:   13000002 cycles:   34482163 heartbeat IPC: 0.05684 cumulative IPC: 0.09826 (Simulation time: 0 hr 0 min 31 sec) 
Heartbeat CPU  0 instructions:   14000001 cycles:   51737926 heartbeat IPC: 0.05795 cumulative IPC: 0.08371 (Simulation time: 0 hr 0 min 38 sec) 
Heartbeat CPU  0 instructions:   15000002 cycles:   68979829 heartbeat IPC: 0.05800 cumulative IPC: 0.07689 (Simulation time: 0 hr 0 min 45 sec) 
Heartbeat CPU  0 instructions:   16000000 cycles:   86143870 heartbeat IPC: 0.05826 cumulative IPC: 0.07300 (Simulation time: 0 hr 0 min 52 sec) 
Heartbeat CPU  0 instructions:   17000000 cycles:  103426693 heartbeat IPC: 0.05786 cumulative IPC: 0.07037 (Simulation time: 0 hr 0 min 58 sec) 
Heartbeat CPU  0 instructions:   18000000 cycles:  120239053 heartbeat IPC: 0.05948 cumulative IPC: 0.06880 (Simulation time: 0 hr 1 min 5 sec) 
Heartbeat CPU  0 instructions:   19000000 cycles:  137696358 heartbeat IPC: 0.05728 cumulative IPC: 0.06729 (Simulation time: 0 hr 1 min 12 sec) 
Heartbeat CPU  0 instructions:   20000000 cycles:  154909909 heartbeat IPC: 0.05809 cumulative IPC: 0.06624 (Simulation time: 0 hr 1 min 19 sec) 
Heartbeat CPU  0 instructions:   21000000 cycles:  172217863 heartbeat IPC: 0.05778 cumulative IPC: 0.06537 (Simulation time: 0 hr 1 min 25 sec) 
Heartbeat CPU  0 instructions:   22000001 cycles:  189523551 heartbeat IPC: 0.05778 cumulative IPC: 0.06467 (Simulation time: 0 hr 1 min 32 sec) 
Heartbeat CPU  0 instructions:   23000001 cycles:  206520677 heartbeat IPC: 0.05883 cumulative IPC: 0.06418 (Simulation time: 0 hr 1 min 39 sec) 
Heartbeat CPU  0 instructions:   24000000 cycles:  223630896 heartbeat IPC: 0.05844 cumulative IPC: 0.06373 (Simulation time: 0 hr 1 min 46 sec) 
Heartbeat CPU  0 instructions:   25000003 cycles:  240962893 heartbeat IPC: 0.05770 cumulative IPC: 0.06329 (Simulation time: 0 hr 1 min 52 sec) 
Heartbeat CPU  0 instructions:   26000001 cycles:  258205919 heartbeat IPC: 0.05799 cumulative IPC: 0.06293 (Simulation time: 0 hr 1 min 59 sec) 
Heartbeat CPU  0 instructions:   27000003 cycles:  275390843 heartbeat IPC: 0.05819 cumulative IPC: 0.06263 (Simulation time: 0 hr 2 min 6 sec) 
Heartbeat CPU  0 instructions:   28000000 cycles:  292325616 heartbeat IPC: 0.05905 cumulative IPC: 0.06242 (Simulation time: 0 hr 2 min 13 sec) 
Heartbeat CPU  0 instructions:   29000000 cycles:  309400035 heartbeat IPC: 0.05857 cumulative IPC: 0.06220 (Simulation time: 0 hr 2 min 19 sec) 
Heartbeat CPU  0 instructions:   30000000 cycles:  326628603 heartbeat IPC: 0.05804 cumulative IPC: 0.06198 (Simulation time: 0 hr 2 min 26 sec) 
Heartbeat CPU  0 instructions:   31000000 cycles:  344004956 heartbeat IPC: 0.05755 cumulative IPC: 0.06176 (Simulation time: 0 hr 2 min 33 sec) 
Heartbeat CPU  0 instructions:   32000000 cycles:  361248054 heartbeat IPC: 0.05799 cumulative IPC: 0.06157 (Simulation time: 0 hr 2 min 40 sec) 
Heartbeat CPU  0 instructions:   33000000 cycles:  378324869 heartbeat IPC: 0.05856 cumulative IPC: 0.06144 (Simulation time: 0 hr 2 min 47 sec) 
Heartbeat CPU  0 instructions:   34000000 cycles:  395528657 heartbeat IPC: 0.05813 cumulative IPC: 0.06129 (Simulation time: 0 hr 2 min 53 sec) 
Heartbeat CPU  0 instructions:   35000003 cycles:  412837521 heartbeat IPC: 0.05777 cumulative IPC: 0.06114 (Simulation time: 0 hr 3 min 0 sec) 
Heartbeat CPU  0 instructions:   36000000 cycles:  430274027 heartbeat IPC: 0.05735 cumulative IPC: 0.06099 (Simulation time: 0 hr 3 min 7 sec) 
Heartbeat CPU  0 instructions:   37000000 cycles:  447426207 heartbeat IPC: 0.05830 cumulative IPC: 0.06088 (Simulation time: 0 hr 3 min 14 sec) 
Heartbeat CPU  0 instructions:   38000001 cycles:  464671083 heartbeat IPC: 0.05799 cumulative IPC: 0.06077 (Simulation time: 0 hr 3 min 21 sec) 
Heartbeat CPU  0 instructions:   39000000 cycles:  481941410 heartbeat IPC: 0.05790 cumulative IPC: 0.06067 (Simulation time: 0 hr 3 min 27 sec) 
Heartbeat CPU  0 instructions:   40000000 cycles:  498953173 heartbeat IPC: 0.05878 cumulative IPC: 0.06061 (Simulation time: 0 hr 3 min 34 sec) 
Heartbeat CPU  0 instructions:   41000002 cycles:  516183231 heartbeat IPC: 0.05804 cumulative IPC: 0.06052 (Simulation time: 0 hr 3 min 41 sec) 
Heartbeat CPU  0 instructions:   42000001 cycles:  533047998 heartbeat IPC: 0.05930 cumulative IPC: 0.06048 (Simulation time: 0 hr 3 min 48 sec) 
Heartbeat CPU  0 instructions:   43000001 cycles:  550288407 heartbeat IPC: 0.05800 cumulative IPC: 0.06040 (Simulation time: 0 hr 3 min 54 sec) 
Heartbeat CPU  0 instructions:   44000000 cycles:  567630328 heartbeat IPC: 0.05766 cumulative IPC: 0.06032 (Simulation time: 0 hr 4 min 1 sec) 
Heartbeat CPU  0 instructions:   45000000 cycles:  584952046 heartbeat IPC: 0.05773 cumulative IPC: 0.06024 (Simulation time: 0 hr 4 min 8 sec) 
Heartbeat CPU  0 instructions:   46000001 cycles:  602430411 heartbeat IPC: 0.05721 cumulative IPC: 0.06015 (Simulation time: 0 hr 4 min 15 sec) 
Heartbeat CPU  0 instructions:   47000000 cycles:  619763237 heartbeat IPC: 0.05769 cumulative IPC: 0.06008 (Simulation time: 0 hr 4 min 22 sec) 
Heartbeat CPU  0 instructions:   48000000 cycles:  637199760 heartbeat IPC: 0.05735 cumulative IPC: 0.06001 (Simulation time: 0 hr 4 min 29 sec) 
Heartbeat CPU  0 instructions:   49000000 cycles:  654479749 heartbeat IPC: 0.05787 cumulative IPC: 0.05995 (Simulation time: 0 hr 4 min 36 sec) 
Heartbeat CPU  0 instructions:   50000000 cycles:  671721393 heartbeat IPC: 0.05800 cumulative IPC: 0.05990 (Simulation time: 0 hr 4 min 42 sec) 
Heartbeat CPU  0 instructions:   51000003 cycles:  688817504 heartbeat IPC: 0.05849 cumulative IPC: 0.05987 (Simulation time: 0 hr 4 min 49 sec) 
Heartbeat CPU  0 instructions:   52000000 cycles:  706141410 heartbeat IPC: 0.05772 cumulative IPC: 0.05981 (Simulation time: 0 hr 4 min 56 sec) 
Heartbeat CPU  0 instructions:   53000000 cycles:  723351254 heartbeat IPC: 0.05811 cumulative IPC: 0.05977 (Simulation time: 0 hr 5 min 3 sec) 
Heartbeat CPU  0 instructions:   54000002 cycles:  739938958 heartbeat IPC: 0.06029 cumulative IPC: 0.05978 (Simulation time: 0 hr 5 min 9 sec) 
Heartbeat CPU  0 instructions:   55000001 cycles:  757169300 heartbeat IPC: 0.05804 cumulative IPC: 0.05974 (Simulation time: 0 hr 5 min 16 sec) 
Heartbeat CPU  0 instructions:   56000000 cycles:  774322131 heartbeat IPC: 0.05830 cumulative IPC: 0.05971 (Simulation time: 0 hr 5 min 23 sec) 
Heartbeat CPU  0 instructions:   57000000 cycles:  791710012 heartbeat IPC: 0.05751 cumulative IPC: 0.05966 (Simulation time: 0 hr 5 min 30 sec) 
Heartbeat CPU  0 instructions:   58000002 cycles:  809078348 heartbeat IPC: 0.05758 cumulative IPC: 0.05962 (Simulation time: 0 hr 5 min 37 sec) 
Heartbeat CPU  0 instructions:   59000000 cycles:  826301042 heartbeat IPC: 0.05806 cumulative IPC: 0.05959 (Simulation time: 0 hr 5 min 43 sec) 
Heartbeat CPU  0 instructions:   60000000 cycles:  843520627 heartbeat IPC: 0.05807 cumulative IPC: 0.05955 (Simulation time: 0 hr 5 min 50 sec) 
Finished CPU 0 instructions: 50000000 cycles: 839568648 cumulative IPC: 0.05955 (Simulation time: 0 hr 5 min 50 sec) 

ChampSim completed all CPUs

[ROI Statistics]
Core_0_instructions 50000000
Core_0_cycles 839568648
Core_0_IPC 0.05955

Core_0_branch_prediction_accuracy 96.82648
Core_0_branch_MPKI 5.96114
Core_0_average_ROB_occupancy_at_mispredict 130.26762

Core_0_L1D_total_access 15027224
Core_0_L1D_total_hit 6060643
Core_0_L1D_total_miss 8966581
Core_0_L1D_loads 14378623
Core_0_L1D_load_hit 5420776
Core_0_L1D_load_miss 8957847
Core_0_L1D_RFOs 648601
Core_0_L1D_RFO_hit 639867
Core_0_L1D_RFO_miss 8734
Core_0_L1D_prefetches 0
Core_0_L1D_prefetch_hit 0
Core_0_L1D_prefetch_miss 0
Core_0_L1D_writebacks 0
Core_0_L1D_writeback_hit 0
Core_0_L1D_writeback_miss 0
Core_0_L1D_prefetch_requested 0
Core_0_L1D_prefetch_dropped 0
Core_0_L1D_prefetch_issued 0
Core_0_L1D_prefetch_filled 0
Core_0_L1D_prefetch_useful 0
Core_0_L1D_prefetch_useless 0
Core_0_L1D_prefetch_late 0
Core_0_L1D_average_miss_latency 88.58686

Core_0_L1D_rq_access 19501850
Core_0_L1D_rq_forward 0
Core_0_L1D_rq_merged 3266654
Core_0_L1D_rq_to_cache 16235196
Core_0_L1D_rq_full 0

Core_0_L1D_wq_access 717952
Core_0_L1D_wq_forward 0
Core_0_L1D_wq_merged 0
Core_0_L1D_wq_to_cache 717952
Core_0_L1D_wq_full 0

Core_0_L1D_pq_access 0
Core_0_L1D_pq_forward 0
Core_0_L1D_pq_merged 0
Core_0_L1D_pq_to_cache 0
Core_0_L1D_pq_full 0

Core_0_L1D_acc_epochs 822723
Core_0_L1D_acc_level_0 822723
Core_0_L1D_acc_level_1 0
Core_0_L1D_acc_level_2 0
Core_0_L1D_acc_level_3 0
Core_0_L1D_acc_level_4 0
Core_0_L1D_acc_level_5 0
Core_0_L1D_acc_level_6 0
Core_0_L1D_acc_level_7 0
Core_0_L1D_acc_level_8 0
Core_0_L1D_acc_level_9 0

Core_0_L1I_total_access 9496685
Core_0_L1I_total_hit 9496683
Core_0_L1I_total_miss 2
Core_0_L1I_loads 9496685
Core_0_L1I_load_hit 9496683
Core_0_L1I_load_miss 2
Core_0_L1I_RFOs 0
Core_0_L1I_RFO_hit 0
Core_0_L1I_RFO_miss 0
Core_0_L1I_prefetches 0
Core_0_L1I_prefetch_hit 0
Core_0_L1I_prefetch_miss 0
Core_0_L1I_writebacks 0
Core_0_L1I_writeback_hit 0
Core_0_L1I_writeback_miss 0
Core_0_L1I_prefetch_requested 0
Core_0_L1I_prefetch_dropped 0
Core_0_L1I_prefetch_issued 0
Core_0_L1I_prefetch_filled 0
Core_0_L1I_prefetch_useful 0
Core_0_L1I_prefetch_useless 0
Core_0_L1I_prefetch_late 0
Core_0_L1I_average_miss_latency 245.00000

Core_0_L1I_rq_access 50000006
Core_0_L1I_rq_forward 0
Core_0_L1I_rq_merged 40503320
Core_0_L1I_rq_to_cache 9496686
Core_0_L1I_rq_full 0

Core_0_L1I_wq_access 0
Core_0_L1I_wq_forward 0
Core_0_L1I_wq_merged 0
Core_0_L1I_wq_to_cache 0
Core_0_L1I_wq_full 0

Core_0_L1I_pq_access 0
Core_0_L1I_pq_forward 0
Core_0_L1I_pq_merged 0
Core_0_L1I_pq_to_cache 0
Core_0_L1I_pq_full 0

Core_0_L1I_acc_epochs 822723
Core_0_L1I_acc_level_0 822723
Core_0_L1I_acc_level_1 0
Core_0_L1I_acc_level_2 0
Core_0_L1I_acc_level_3 0
Core_0_L1I_acc_level_4 0
Core_0_L1I_acc_level_5 0
Core_0_L1I_acc_level_6 0
Core_0_L1I_acc_level_7 0
Core_0_L1I_acc_level_8 0
Core_0_L1I_acc_level_9 0

Core_0_L2C_total_access 8999626
Core_0_L2C_total_hit 1465687
Core_0_L2C_total_miss 7533939
Core_0_L2C_loads 8957849
Core_0_L2C_load_hit 1432701
Core_0_L2C_load_miss 7525148
Core_0_L2C_RFOs 8734
Core_0_L2C_RFO_hit 0
Core_0_L2C_RFO_miss 8734
Core_0_L2C_prefetches 0
Core_0_L2C_prefetch_hit 0
Core_0_L2C_prefetch_miss 0
Core_0_L2C_writebacks 33043
Core_0_L2C_writeback_hit 32986
Core_0_L2C_writeback_miss 57
Core_0_L2C_prefetch_requested 0
Core_0_L2C_prefetch_dropped 0
Core_0_L2C_prefetch_issued 0
Core_0_L2C_prefetch_filled 0
Core_0_L2C_prefetch_useful 0
Core_0_L2C_prefetch_useless 0
Core_0_L2C_prefetch_late 0
Core_0_L2C_average_miss_latency 88.72878

Core_0_L2C_rq_access 8966583
Core_0_L2C_rq_forward 0
Core_0_L2C_rq_merged 0
Core_0_L2C_rq_to_cache 8966583
Core_0_L2C_rq_full 0

Core_0_L2C_wq_access 33043
Core_0_L2C_wq_forward 0
Core_0_L2C_wq_merged 0
Core_0_L2C_wq_to_cache 33043
Core_0_L2C_wq_full 0

Core_0_L2C_pq_access 0
Core_0_L2C_pq_forward 0
Core_0_L2C_pq_merged 0
Core_0_L2C_pq_to_cache 0
Core_0_L2C_pq_full 0

Core_0_L2C_acc_epochs 822723
Core_0_L2C_acc_level_0 822723
Core_0_L2C_acc_level_1 0
Core_0_L2C_acc_level_2 0
Core_0_L2C_acc_level_3 0
Core_0_L2C_acc_level_4 0
Core_0_L2C_acc_level_5 0
Core_0_L2C_acc_level_6 0
Core_0_L2C_acc_level_7 0
Core_0_L2C_acc_level_8 0
Core_0_L2C_acc_level_9 0

Core_0_LLC_total_access 7562067
Core_0_LLC_total_hit 5081321
Core_0_LLC_total_miss 2480746
Core_0_LLC_loads 7525148
Core_0_LLC_load_hit 5069367
Core_0_LLC_load_miss 2455781
Core_0_LLC_RFOs 8734
Core_0_LLC_RFO_hit 0
Core_0_LLC_RFO_miss 8734
Core_0_LLC_prefetches 0
Core_0_LLC_prefetch_hit 0
Core_0_LLC_prefetch_miss 0
Core_0_LLC_writebacks 28185
Core_0_LLC_writeback_hit 11954
Core_0_LLC_writeback_miss 16231
Core_0_LLC_prefetch_requested 0
Core_0_LLC_prefetch_dropped 0
Core_0_LLC_prefetch_issued 0
Core_0_LLC_prefetch_filled 0
Core_0_LLC_prefetch_useful 0
Core_0_LLC_prefetch_useless 0
Core_0_LLC_prefetch_late 0
Core_0_LLC_average_miss_latency 178.27038

Core_0_LLC_rq_access 7533882
Core_0_LLC_rq_forward 0
Core_0_LLC_rq_merged 0
Core_0_LLC_rq_to_cache 7533882
Core_0_LLC_rq_full 0

Core_0_LLC_wq_access 28185
Core_0_LLC_wq_forward 0
Core_0_LLC_wq_merged 0
Core_0_LLC_wq_to_cache 28185
Core_0_LLC_wq_full 0

Core_0_LLC_pq_access 0
Core_0_LLC_pq_forward 0
Core_0_LLC_pq_merged 0
Core_0_LLC_pq_to_cache 0
Core_0_LLC_pq_full 0

Core_0_LLC_acc_epochs 823751
Core_0_LLC_acc_level_0 823751
Core_0_LLC_acc_level_1 0
Core_0_LLC_acc_level_2 0
Core_0_LLC_acc_level_3 0
Core_0_LLC_acc_level_4 0
Core_0_LLC_acc_level_5 0
Core_0_LLC_acc_level_6 0
Core_0_LLC_acc_level_7 0
Core_0_LLC_acc_level_8 0
Core_0_LLC_acc_level_9 0

Core_0_major_page_fault 0
Core_0_minor_page_fault 12615

Channel_0_RQ_row_buffer_hit 265106
Channel_0_RQ_row_buffer_miss 2199407
Channel_0_WQ_row_buffer_hit 18673
Channel_0_WQ_row_buffer_miss 32867
Channel_0_WQ_full 0
Channel_0_dbus_congested 79713

avg_congested_cycle 8

DRAM_bw_pochs 3295003
DRAM_bw_level_0 3286333
DRAM_bw_level_1 8626
DRAM_bw_level_2 44
DRAM_bw_level_3 0
