*************************************************
   ChampSim Multicore Out-of-Order Simulator
   Last compiled: Apr  3 2025 20:54:34
*************************************************
parsing config file: /home/zir/Pythia/config/mlop.ini

trace_0 /home/zir/ChampSim/ML-DPC/ChampSimTraces/gap/pr-5.trace.gz
adding L2C_PREFETCHER: MLOP
Initialize SHIP state
warmup_instructions 10000000
simulation_instructions 50000000
champsim_seed 53
measure_ipc 0
measure_ipc_epoch 1000
measure_dram_bw 1
measure_dram_bw_epoch 256
measure_cache_acc 1
measure_cache_acc_epoch 1024
l1d_perfect 0
l2c_perfect 0
llc_perfect 0
l1d_semi_perfect 0
l2c_semi_perfect 0
llc_semi_perfect 0
semi_perfect_cache_page_buffer_size 64

num_cpus 1
cpu_freq 4000
dram_io_freq 2400
page_size 4096
block_size 64
max_read_per_cycle 8
max_fill_per_cycle 1
dram_channels 1
log2_dram_channels 0
dram_ranks 1
dram_banks 8
dram_rows 65536
dram_columns 128
dram_row_size 8
dram_size 4096
dram_pages 1048576

fetch_width 6
decode_width 6
exec_width 4
lq_width 2
sq_width 2
retire_width 4
scheduler_size 128
branch_mispredict_penalty 20
rob_size 256
lq_size 72
sq_size 56
num_instr_destinations_sparc 4
num_instr_destinations 2
num_instr_sources 4

itlb_set 16
itlb_way 8
itlb_rq_size 16
itlb_wq_size 16
itlb_pq_size 0
itlb_mshr_size 8
itlb_latency 1

dtlb_set 16
dtlb_way 4
dtlb_rq_size 16
dtlb_wq_size 16
dtlb_pq_size 0
dtlb_mshr_size 8
dtlb_latency 1

stlb_set 128
stlb_way 12
stlb_rq_size 32
stlb_wq_size 32
stlb_pq_size 0
stlb_mshr_size 16
stlb_latency 8

l1i_size 32
l1i_set 64
l1i_way 8
l1i_rq_size 64
l1i_wq_size 64
l1i_pq_size 8
l1i_mshr_size 8
l1i_latency 1

l1d_size 32
l1d_set 64
l1d_way 8
l1d_rq_size 64
l1d_wq_size 64
l1d_pq_size 8
l1d_mshr_size 16
l1d_latency 4

l2c_size 256
l2c_set 512
l2c_way 8
l2c_rq_size 32
l2c_wq_size 32
l2c_pq_size 32
l2c_mshr_size 32
l2c_latency 10

llc_size 2048
llc_set 2048
llc_way 16
llc_rq_size 32
llc_wq_size 32
llc_pq_size 32
llc_mshr_size 64
llc_latency 20

dram_channel_width 8
dram_wq_size 64
dram_rq_size 64
tRP 15
tRCD 15
tCAS 12.5
dram_dbus_turn_around_time 30
dram_write_high_wm 56
dram_write_low_wm 48
min_dram_writes_per_switch 16
dram_mtps 2400
dram_dbus_return_time 13

mlop_pref_degree 16
mlop_num_updates 500
mlop_l1d_thresh 2
mlop_l2c_thresh 0.75
mlop_llc_thresh 0.3
mlop_debug_level 0
mlop_blocks_in_cache 4096
mlop_blocks_in_zone 64
mlop_amt_size 2048
mlop_PF_DEGREE 16
mlop_NUM_UPDATES 500
mlop_L1D_THRESH 1000
mlop_L2C_THRESH 375
mlop_LLC_THRESH 150
mlop_ORIGIN 63
mlop_MAX_OFFSET 63
mlop_MIN_OFFSET -63
mlop_ORIGIN 63
mlop_NUM_OFFSETS 127


Heartbeat CPU  0 instructions:    1000001 cycles:     406287 heartbeat IPC: 2.46132 cumulative IPC: 2.46132 (Simulation time: 0 hr 0 min 2 sec) 
Heartbeat CPU  0 instructions:    2000001 cycles:     807643 heartbeat IPC: 2.49155 cumulative IPC: 2.47634 (Simulation time: 0 hr 0 min 3 sec) 
Heartbeat CPU  0 instructions:    3000003 cycles:    1209001 heartbeat IPC: 2.49155 cumulative IPC: 2.48139 (Simulation time: 0 hr 0 min 5 sec) 
Heartbeat CPU  0 instructions:    4000000 cycles:    1610359 heartbeat IPC: 2.49153 cumulative IPC: 2.48392 (Simulation time: 0 hr 0 min 6 sec) 
Heartbeat CPU  0 instructions:    5000001 cycles:    2011753 heartbeat IPC: 2.49132 cumulative IPC: 2.48540 (Simulation time: 0 hr 0 min 8 sec) 
Heartbeat CPU  0 instructions:    6000002 cycles:    2413111 heartbeat IPC: 2.49154 cumulative IPC: 2.48642 (Simulation time: 0 hr 0 min 9 sec) 
Heartbeat CPU  0 instructions:    7000002 cycles:    2814470 heartbeat IPC: 2.49153 cumulative IPC: 2.48715 (Simulation time: 0 hr 0 min 11 sec) 
Heartbeat CPU  0 instructions:    8000000 cycles:    3215828 heartbeat IPC: 2.49154 cumulative IPC: 2.48770 (Simulation time: 0 hr 0 min 12 sec) 
Heartbeat CPU  0 instructions:    9000001 cycles:    3617225 heartbeat IPC: 2.49130 cumulative IPC: 2.48810 (Simulation time: 0 hr 0 min 14 sec) 
Heartbeat CPU  0 instructions:   10000001 cycles:    4018582 heartbeat IPC: 2.49155 cumulative IPC: 2.48844 (Simulation time: 0 hr 0 min 15 sec) 

Warmup complete CPU  0 instructions:   10000001 cycles:    4018582 (Simulation time: 0 hr 0 min 15 sec) 

Heartbeat CPU  0 instructions:   11000002 cycles:    4778836 heartbeat IPC: 1.31535 cumulative IPC: 1.31535 (Simulation time: 0 hr 0 min 17 sec) 
Heartbeat CPU  0 instructions:   12000000 cycles:   17015241 heartbeat IPC: 0.08172 cumulative IPC: 0.15389 (Simulation time: 0 hr 0 min 23 sec) 
Heartbeat CPU  0 instructions:   13000000 cycles:   39624054 heartbeat IPC: 0.04423 cumulative IPC: 0.08426 (Simulation time: 0 hr 0 min 31 sec) 
Heartbeat CPU  0 instructions:   14000002 cycles:   62068903 heartbeat IPC: 0.04455 cumulative IPC: 0.06891 (Simulation time: 0 hr 0 min 40 sec) 
Heartbeat CPU  0 instructions:   15000000 cycles:   84098690 heartbeat IPC: 0.04539 cumulative IPC: 0.06244 (Simulation time: 0 hr 0 min 49 sec) 
Heartbeat CPU  0 instructions:   16000000 cycles:  106372912 heartbeat IPC: 0.04489 cumulative IPC: 0.05862 (Simulation time: 0 hr 0 min 57 sec) 
Heartbeat CPU  0 instructions:   17000003 cycles:  128679386 heartbeat IPC: 0.04483 cumulative IPC: 0.05615 (Simulation time: 0 hr 1 min 6 sec) 
Heartbeat CPU  0 instructions:   18000001 cycles:  150560523 heartbeat IPC: 0.04570 cumulative IPC: 0.05459 (Simulation time: 0 hr 1 min 14 sec) 
Heartbeat CPU  0 instructions:   19000002 cycles:  172727874 heartbeat IPC: 0.04511 cumulative IPC: 0.05335 (Simulation time: 0 hr 1 min 23 sec) 
Heartbeat CPU  0 instructions:   20000000 cycles:  194635528 heartbeat IPC: 0.04565 cumulative IPC: 0.05246 (Simulation time: 0 hr 1 min 31 sec) 
Heartbeat CPU  0 instructions:   21000001 cycles:  216946177 heartbeat IPC: 0.04482 cumulative IPC: 0.05166 (Simulation time: 0 hr 1 min 40 sec) 
Heartbeat CPU  0 instructions:   22000003 cycles:  239214662 heartbeat IPC: 0.04491 cumulative IPC: 0.05102 (Simulation time: 0 hr 1 min 48 sec) 
Heartbeat CPU  0 instructions:   23000000 cycles:  260969887 heartbeat IPC: 0.04597 cumulative IPC: 0.05059 (Simulation time: 0 hr 1 min 57 sec) 
Heartbeat CPU  0 instructions:   24000000 cycles:  282887135 heartbeat IPC: 0.04563 cumulative IPC: 0.05020 (Simulation time: 0 hr 2 min 5 sec) 
Heartbeat CPU  0 instructions:   25000003 cycles:  304884074 heartbeat IPC: 0.04546 cumulative IPC: 0.04986 (Simulation time: 0 hr 2 min 14 sec) 
Heartbeat CPU  0 instructions:   26000002 cycles:  326847419 heartbeat IPC: 0.04553 cumulative IPC: 0.04956 (Simulation time: 0 hr 2 min 22 sec) 
Heartbeat CPU  0 instructions:   27000002 cycles:  348545763 heartbeat IPC: 0.04609 cumulative IPC: 0.04934 (Simulation time: 0 hr 2 min 31 sec) 
Heartbeat CPU  0 instructions:   28000000 cycles:  370206229 heartbeat IPC: 0.04617 cumulative IPC: 0.04916 (Simulation time: 0 hr 2 min 39 sec) 
Heartbeat CPU  0 instructions:   29000000 cycles:  392218542 heartbeat IPC: 0.04543 cumulative IPC: 0.04894 (Simulation time: 0 hr 2 min 48 sec) 
Heartbeat CPU  0 instructions:   30000000 cycles:  414584703 heartbeat IPC: 0.04471 cumulative IPC: 0.04871 (Simulation time: 0 hr 2 min 56 sec) 
Heartbeat CPU  0 instructions:   31000002 cycles:  436683743 heartbeat IPC: 0.04525 cumulative IPC: 0.04854 (Simulation time: 0 hr 3 min 5 sec) 
Heartbeat CPU  0 instructions:   32000000 cycles:  458651840 heartbeat IPC: 0.04552 cumulative IPC: 0.04839 (Simulation time: 0 hr 3 min 13 sec) 
Heartbeat CPU  0 instructions:   33000000 cycles:  480813576 heartbeat IPC: 0.04512 cumulative IPC: 0.04824 (Simulation time: 0 hr 3 min 22 sec) 
Heartbeat CPU  0 instructions:   34000003 cycles:  503024545 heartbeat IPC: 0.04502 cumulative IPC: 0.04810 (Simulation time: 0 hr 3 min 30 sec) 
Heartbeat CPU  0 instructions:   35000002 cycles:  524777817 heartbeat IPC: 0.04597 cumulative IPC: 0.04801 (Simulation time: 0 hr 3 min 39 sec) 
Heartbeat CPU  0 instructions:   36000000 cycles:  546981234 heartbeat IPC: 0.04504 cumulative IPC: 0.04789 (Simulation time: 0 hr 3 min 47 sec) 
Heartbeat CPU  0 instructions:   37000001 cycles:  569171587 heartbeat IPC: 0.04506 cumulative IPC: 0.04777 (Simulation time: 0 hr 3 min 56 sec) 
Heartbeat CPU  0 instructions:   38000002 cycles:  591170664 heartbeat IPC: 0.04546 cumulative IPC: 0.04769 (Simulation time: 0 hr 4 min 4 sec) 
Heartbeat CPU  0 instructions:   39000000 cycles:  613185238 heartbeat IPC: 0.04542 cumulative IPC: 0.04761 (Simulation time: 0 hr 4 min 12 sec) 
Heartbeat CPU  0 instructions:   40000000 cycles:  635237754 heartbeat IPC: 0.04535 cumulative IPC: 0.04753 (Simulation time: 0 hr 4 min 21 sec) 
Heartbeat CPU  0 instructions:   41000003 cycles:  657318621 heartbeat IPC: 0.04529 cumulative IPC: 0.04745 (Simulation time: 0 hr 4 min 29 sec) 
Heartbeat CPU  0 instructions:   42000001 cycles:  679186076 heartbeat IPC: 0.04573 cumulative IPC: 0.04740 (Simulation time: 0 hr 4 min 38 sec) 
Heartbeat CPU  0 instructions:   43000003 cycles:  701162035 heartbeat IPC: 0.04550 cumulative IPC: 0.04734 (Simulation time: 0 hr 4 min 46 sec) 
Heartbeat CPU  0 instructions:   44000000 cycles:  723291817 heartbeat IPC: 0.04519 cumulative IPC: 0.04727 (Simulation time: 0 hr 4 min 55 sec) 
Heartbeat CPU  0 instructions:   45000000 cycles:  745450742 heartbeat IPC: 0.04513 cumulative IPC: 0.04721 (Simulation time: 0 hr 5 min 3 sec) 
Heartbeat CPU  0 instructions:   46000001 cycles:  767171622 heartbeat IPC: 0.04604 cumulative IPC: 0.04717 (Simulation time: 0 hr 5 min 11 sec) 
Heartbeat CPU  0 instructions:   47000000 cycles:  789115317 heartbeat IPC: 0.04557 cumulative IPC: 0.04713 (Simulation time: 0 hr 5 min 20 sec) 
Heartbeat CPU  0 instructions:   48000000 cycles:  811247506 heartbeat IPC: 0.04518 cumulative IPC: 0.04707 (Simulation time: 0 hr 5 min 28 sec) 
Heartbeat CPU  0 instructions:   49000000 cycles:  832952559 heartbeat IPC: 0.04607 cumulative IPC: 0.04705 (Simulation time: 0 hr 5 min 37 sec) 
Heartbeat CPU  0 instructions:   50000002 cycles:  854932309 heartbeat IPC: 0.04550 cumulative IPC: 0.04701 (Simulation time: 0 hr 5 min 45 sec) 
Heartbeat CPU  0 instructions:   51000003 cycles:  877034069 heartbeat IPC: 0.04525 cumulative IPC: 0.04696 (Simulation time: 0 hr 5 min 53 sec) 
Heartbeat CPU  0 instructions:   52000000 cycles:  898954880 heartbeat IPC: 0.04562 cumulative IPC: 0.04693 (Simulation time: 0 hr 6 min 2 sec) 
Heartbeat CPU  0 instructions:   53000001 cycles:  921078641 heartbeat IPC: 0.04520 cumulative IPC: 0.04689 (Simulation time: 0 hr 6 min 10 sec) 
Heartbeat CPU  0 instructions:   54000003 cycles:  942865484 heartbeat IPC: 0.04590 cumulative IPC: 0.04687 (Simulation time: 0 hr 6 min 19 sec) 
Heartbeat CPU  0 instructions:   55000002 cycles:  964912809 heartbeat IPC: 0.04536 cumulative IPC: 0.04683 (Simulation time: 0 hr 6 min 27 sec) 
Heartbeat CPU  0 instructions:   56000000 cycles:  986574502 heartbeat IPC: 0.04616 cumulative IPC: 0.04682 (Simulation time: 0 hr 6 min 35 sec) 
Heartbeat CPU  0 instructions:   57000000 cycles: 1006725003 heartbeat IPC: 0.04963 cumulative IPC: 0.04687 (Simulation time: 0 hr 6 min 43 sec) 
Heartbeat CPU  0 instructions:   58000000 cycles: 1028986651 heartbeat IPC: 0.04492 cumulative IPC: 0.04683 (Simulation time: 0 hr 6 min 52 sec) 
Heartbeat CPU  0 instructions:   59000000 cycles: 1050912913 heartbeat IPC: 0.04561 cumulative IPC: 0.04681 (Simulation time: 0 hr 7 min 0 sec) 
Heartbeat CPU  0 instructions:   60000000 cycles: 1072841565 heartbeat IPC: 0.04560 cumulative IPC: 0.04678 (Simulation time: 0 hr 7 min 9 sec) 
Finished CPU 0 instructions: 50000003 cycles: 1068823040 cumulative IPC: 0.04678 (Simulation time: 0 hr 7 min 9 sec) 

ChampSim completed all CPUs

[ROI Statistics]
Core_0_instructions 50000003
Core_0_cycles 1068823040
Core_0_IPC 0.04678

Core_0_branch_prediction_accuracy 96.83947
Core_0_branch_MPKI 5.93774
Core_0_average_ROB_occupancy_at_mispredict 134.03814

Core_0_L1D_total_access 16335364
Core_0_L1D_total_hit 7369765
Core_0_L1D_total_miss 8965599
Core_0_L1D_loads 15745429
Core_0_L1D_load_hit 6788564
Core_0_L1D_load_miss 8956865
Core_0_L1D_RFOs 589935
Core_0_L1D_RFO_hit 581201
Core_0_L1D_RFO_miss 8734
Core_0_L1D_prefetches 0
Core_0_L1D_prefetch_hit 0
Core_0_L1D_prefetch_miss 0
Core_0_L1D_writebacks 0
Core_0_L1D_writeback_hit 0
Core_0_L1D_writeback_miss 0
Core_0_L1D_prefetch_requested 0
Core_0_L1D_prefetch_dropped 0
Core_0_L1D_prefetch_issued 0
Core_0_L1D_prefetch_filled 0
Core_0_L1D_prefetch_useful 0
Core_0_L1D_prefetch_useless 0
Core_0_L1D_prefetch_late 0
Core_0_L1D_average_miss_latency 100.77594

Core_0_L1D_rq_access 19502924
Core_0_L1D_rq_forward 0
Core_0_L1D_rq_merged 3226025
Core_0_L1D_rq_to_cache 16276899
Core_0_L1D_rq_full 0

Core_0_L1D_wq_access 715742
Core_0_L1D_wq_forward 0
Core_0_L1D_wq_merged 0
Core_0_L1D_wq_to_cache 715742
Core_0_L1D_wq_full 0

Core_0_L1D_pq_access 0
Core_0_L1D_pq_forward 0
Core_0_L1D_pq_merged 0
Core_0_L1D_pq_to_cache 0
Core_0_L1D_pq_full 0

Core_0_L1D_acc_epochs 1046668
Core_0_L1D_acc_level_0 1046668
Core_0_L1D_acc_level_1 0
Core_0_L1D_acc_level_2 0
Core_0_L1D_acc_level_3 0
Core_0_L1D_acc_level_4 0
Core_0_L1D_acc_level_5 0
Core_0_L1D_acc_level_6 0
Core_0_L1D_acc_level_7 0
Core_0_L1D_acc_level_8 0
Core_0_L1D_acc_level_9 0

Core_0_L1I_total_access 9476914
Core_0_L1I_total_hit 9476912
Core_0_L1I_total_miss 2
Core_0_L1I_loads 9476914
Core_0_L1I_load_hit 9476912
Core_0_L1I_load_miss 2
Core_0_L1I_RFOs 0
Core_0_L1I_RFO_hit 0
Core_0_L1I_RFO_miss 0
Core_0_L1I_prefetches 0
Core_0_L1I_prefetch_hit 0
Core_0_L1I_prefetch_miss 0
Core_0_L1I_writebacks 0
Core_0_L1I_writeback_hit 0
Core_0_L1I_writeback_miss 0
Core_0_L1I_prefetch_requested 0
Core_0_L1I_prefetch_dropped 0
Core_0_L1I_prefetch_issued 0
Core_0_L1I_prefetch_filled 0
Core_0_L1I_prefetch_useful 0
Core_0_L1I_prefetch_useless 0
Core_0_L1I_prefetch_late 0
Core_0_L1I_average_miss_latency 768.50000

Core_0_L1I_rq_access 49999781
Core_0_L1I_rq_forward 0
Core_0_L1I_rq_merged 40522865
Core_0_L1I_rq_to_cache 9476916
Core_0_L1I_rq_full 0

Core_0_L1I_wq_access 0
Core_0_L1I_wq_forward 0
Core_0_L1I_wq_merged 0
Core_0_L1I_wq_to_cache 0
Core_0_L1I_wq_full 0

Core_0_L1I_pq_access 0
Core_0_L1I_pq_forward 0
Core_0_L1I_pq_merged 0
Core_0_L1I_pq_to_cache 0
Core_0_L1I_pq_full 0

Core_0_L1I_acc_epochs 1046668
Core_0_L1I_acc_level_0 1046668
Core_0_L1I_acc_level_1 0
Core_0_L1I_acc_level_2 0
Core_0_L1I_acc_level_3 0
Core_0_L1I_acc_level_4 0
Core_0_L1I_acc_level_5 0
Core_0_L1I_acc_level_6 0
Core_0_L1I_acc_level_7 0
Core_0_L1I_acc_level_8 0
Core_0_L1I_acc_level_9 0

Core_0_L2C_total_access 10410392
Core_0_L2C_total_hit 1761454
Core_0_L2C_total_miss 8648938
Core_0_L2C_loads 8956867
Core_0_L2C_load_hit 1729338
Core_0_L2C_load_miss 7227529
Core_0_L2C_RFOs 8734
Core_0_L2C_RFO_hit 0
Core_0_L2C_RFO_miss 8734
Core_0_L2C_prefetches 1411557
Core_0_L2C_prefetch_hit 16
Core_0_L2C_prefetch_miss 1411541
Core_0_L2C_writebacks 33234
Core_0_L2C_writeback_hit 32100
Core_0_L2C_writeback_miss 1134
Core_0_L2C_prefetch_requested 2760113
Core_0_L2C_prefetch_dropped 0
Core_0_L2C_prefetch_issued 2760113
Core_0_L2C_prefetch_filled 1579048
Core_0_L2C_prefetch_useful 860703
Core_0_L2C_prefetch_useless 717910
Core_0_L2C_prefetch_late 8186
Core_0_L2C_average_miss_latency 98.78213

Core_0_L2C_rq_access 8965601
Core_0_L2C_rq_forward 0
Core_0_L2C_rq_merged 0
Core_0_L2C_rq_to_cache 8965601
Core_0_L2C_rq_full 0

Core_0_L2C_wq_access 33234
Core_0_L2C_wq_forward 0
Core_0_L2C_wq_merged 0
Core_0_L2C_wq_to_cache 33234
Core_0_L2C_wq_full 0

Core_0_L2C_pq_access 2760113
Core_0_L2C_pq_forward 0
Core_0_L2C_pq_merged 1
Core_0_L2C_pq_to_cache 2760112
Core_0_L2C_pq_full 0

Core_0_L2C_acc_epochs 1046668
Core_0_L2C_acc_level_0 260256
Core_0_L2C_acc_level_1 187387
Core_0_L2C_acc_level_2 143863
Core_0_L2C_acc_level_3 144567
Core_0_L2C_acc_level_4 45823
Core_0_L2C_acc_level_5 121667
Core_0_L2C_acc_level_6 65000
Core_0_L2C_acc_level_7 37680
Core_0_L2C_acc_level_8 14460
Core_0_L2C_acc_level_9 25965

Core_0_LLC_total_access 9807894
Core_0_LLC_total_hit 5797526
Core_0_LLC_total_miss 4010368
Core_0_LLC_loads 7219343
Core_0_LLC_load_hit 3989846
Core_0_LLC_load_miss 3229497
Core_0_LLC_RFOs 8734
Core_0_LLC_RFO_hit 0
Core_0_LLC_RFO_miss 8734
Core_0_LLC_prefetches 2550436
Core_0_LLC_prefetch_hit 1788299
Core_0_LLC_prefetch_miss 762137
Core_0_LLC_writebacks 29381
Core_0_LLC_writeback_hit 19381
Core_0_LLC_writeback_miss 10000
Core_0_LLC_prefetch_requested 0
Core_0_LLC_prefetch_dropped 0
Core_0_LLC_prefetch_issued 0
Core_0_LLC_prefetch_filled 929645
Core_0_LLC_prefetch_useful 41546
Core_0_LLC_prefetch_useless 875704
Core_0_LLC_prefetch_late 561
Core_0_LLC_average_miss_latency 179.50668

Core_0_LLC_rq_access 7228077
Core_0_LLC_rq_forward 0
Core_0_LLC_rq_merged 0
Core_0_LLC_rq_to_cache 7228077
Core_0_LLC_rq_full 0

Core_0_LLC_wq_access 29381
Core_0_LLC_wq_forward 0
Core_0_LLC_wq_merged 0
Core_0_LLC_wq_to_cache 29381
Core_0_LLC_wq_full 0

Core_0_LLC_pq_access 2760089
Core_0_LLC_pq_forward 0
Core_0_LLC_pq_merged 1290
Core_0_LLC_pq_to_cache 2758799
Core_0_LLC_pq_full 0

Core_0_LLC_acc_epochs 1047697
Core_0_LLC_acc_level_0 1005324
Core_0_LLC_acc_level_1 15480
Core_0_LLC_acc_level_2 12154
Core_0_LLC_acc_level_3 2587
Core_0_LLC_acc_level_4 447
Core_0_LLC_acc_level_5 8574
Core_0_LLC_acc_level_6 1099
Core_0_LLC_acc_level_7 917
Core_0_LLC_acc_level_8 238
Core_0_LLC_acc_level_9 877

Core_0_major_page_fault 0
Core_0_minor_page_fault 12619

[MLOP] History of tracked zone:
IIIIIIIIIIIIIIIIIIIIIIIIIIIIIIIIIIIIIIIIIIIIIIIIIIIIIIIIIIIIIIII
A2222222222222222IIIIIIIIIIIIIIIIIIIIIIIIIIIIIIIIIIIIIIIIIIIIIII
AA2222222222222222IIIIIIIIIIIIIIIIIIIIIIIIIIIIIIIIIIIIIIIIIIIIII
AAA2222222222222222IIIIIIIIIIIIIIIIIIIIIIIIIIIIIIIIIIIIIIIIIIIII
AAAA2222222222222222IIIIIIIIIIIIIIIIIIIIIIIIIIIIIIIIIIIIIIIIIIII
AAAAA2222222222222222IIIIIIIIIIIIIIIIIIIIIIIIIIIIIIIIIIIIIIIIIII
AAAAAA2222222222222222IIIIIIIIIIIIIIIIIIIIIIIIIIIIIIIIIIIIIIIIII
AAAAAAA2222222222222222IIIIIIIIIIIIIIIIIIIIIIIIIIIIIIIIIIIIIIIII
AAAAAAAA2222222222222222IIIIIIIIIIIIIIIIIIIIIIIIIIIIIIIIIIIIIIII
AAAAAAAAA2222222222222222IIIIIIIIIIIIIIIIIIIIIIIIIIIIIIIIIIIIIII
AAAAAAAAAA2222222222222222IIIIIIIIIIIIIIIIIIIIIIIIIIIIIIIIIIIIII
AAAAAAAAAAA2222222222222222IIIIIIIIIIIIIIIIIIIIIIIIIIIIIIIIIIIII
AAAAAAAAAAAA2222222222222222IIIIIIIIIIIIIIIIIIIIIIIIIIIIIIIIIIII
AAAAAAAAAAAAA2222222222222222IIIIIIIIIIIIIIIIIIIIIIIIIIIIIIIIIII
AAAAAAAAAAAAAA2222222222222222IIIIIIIIIIIIIIIIIIIIIIIIIIIIIIIIII
AAAAAAAAAAAAAAA2222222222222222IIIIIIIIIIIIIIIIIIIIIIIIIIIIIIIII
AAAAAAAAAAAAAAAA2222222222222222IIIIIIIIIIIIIIIIIIIIIIIIIIIIIIII
AAAAAAAAAAAAAAAAA2222222222222222IIIIIIIIIIIIIIIIIIIIIIIIIIIIIII
AAAAAAAAAAAAAAAAAA2222222222222222IIIIIIIIIIIIIIIIIIIIIIIIIIIIII
AAAAAAAAAAAAAAAAAAA2222222222222222IIIIIIIIIIIIIIIIIIIIIIIIIIIII
AAAAAAAAAAAAAAAAAAAA2222222222222222IIIIIIIIIIIIIIIIIIIIIIIIIIII
AAAAAAAAAAAAAAAAAAAAA2222222222222222IIIIIIIIIIIIIIIIIIIIIIIIIII
AAAAAAAAAAAAAAAAAAAAAA2222222222222222IIIIIIIIIIIIIIIIIIIIIIIIII
AAAAAAAAAAAAAAAAAAAAAAA2222222222222222IIIIIIIIIIIIIIIIIIIIIIIII
AAAAAAAAAAAAAAAAAAAAAAAA2222222222222222IIIIIIIIIIIIIIIIIIIIIIII
AAAAAAAAAAAAAAAAAAAAAAAAA2222222222222222IIIIIIIIIIIIIIIIIIIIIII
AAAAAAAAAAAAAAAAAAAAAAAAAA2222222222222222IIIIIIIIIIIIIIIIIIIIII
AAAAAAAAAAAAAAAAAAAAAAAAAAA2222222222222222IIIIIIIIIIIIIIIIIIIII
AAAAAAAAAAAAAAAAAAAAAAAAAAAA2222222222222222IIIIIIIIIIIIIIIIIIII
AAAAAAAAAAAAAAAAAAAAAAAAAAAAA2222222222222222IIIIIIIIIIIIIIIIIII
AAAAAAAAAAAAAAAAAAAAAAAAAAAAAA2222222222222222IIIIIIIIIIIIIIIIII
AAAAAAAAAAAAAAAAAAAAAAAAAAAAAAA2222222222222222IIIIIIIIIIIIIIIII
AAAAAAAAAAAAAAAAAAAAAAAAAAAAAAAA2222222222222222IIIIIIIIIIIIIIII
AAAAAAAAAAAAAAAAAAAAAAAAAAAAAAAAA2222222222222222IIIIIIIIIIIIIII
AAAAAAAAAAAAAAAAAAAAAAAAAAAAAAAAAA2222222222222222IIIIIIIIIIIIII
AAAAAAAAAAAAAAAAAAAAAAAAAAAAAAAAAAA2222222222222222IIIIIIIIIIIII
AAAAAAAAAAAAAAAAAAAAAAAAAAAAAAAAAAAA2222222222222222IIIIIIIIIIII
AAAAAAAAAAAAAAAAAAAAAAAAAAAAAAAAAAAAA2222222222222222IIIIIIIIIII
AAAAAAAAAAAAAAAAAAAAAAAAAAAAAAAAAAAAAA2222222222222222IIIIIIIIII
AAAAAAAAAAAAAAAAAAAAAAAAAAAAAAAAAAAAAAA2222222222222222IIIIIIIII
AAAAAAAAAAAAAAAAAAAAAAAAAAAAAAAAAAAAAAAA2222222222222222IIIIIIII
AAAAAAAAAAAAAAAAAAAAAAAAAAAAAAAAAAAAAAAAA2222222222222222IIIIIII
AAAAAAAAAAAAAAAAAAAAAAAAAAAAAAAAAAAAAAAAAA2222222222222222IIIIII
AAAAAAAAAAAAAAAAAAAAAAAAAAAAAAAAAAAAAAAAAAA2222222222222222IIIII
AAAAAAAAAAAAAAAAAAAAAAAAAAAAAAAAAAAAAAAAAAAA2222222222222222IIII
AAAAAAAAAAAAAAAAAAAAAAAAAAAAAAAAAAAAAAAAAAAAA2222222222222222III
AAAAAAAAAAAAAAAAAAAAAAAAAAAAAAAAAAAAAAAAAAAAAA2222222222222222II
AAAAAAAAAAAAAAAAAAAAAAAAAAAAAAAAAAAAAAAAAAAAAAA2222222222222222I
AAAAAAAAAAAAAAAAAAAAAAAAAAAAAAAAAAAAAAAAAAAAAAAA2222222222222222
AAAAAAAAAAAAAAAAAAAAAAAAAAAAAAAAAAAAAAAAAAAAAAAAA222222222222222
AAAAAAAAAAAAAAAAAAAAAAAAAAAAAAAAAAAAAAAAAAAAAAAAAA22222222222222
AAAAAAAAAAAAAAAAAAAAAAAAAAAAAAAAAAAAAAAAAAAAAAAAAAA2222222222222
AAAAAAAAAAAAAAAAAAAAAAAAAAAAAAAAAAAAAAAAAAAAAAAAAAAA222222222222
AAAAAAAAAAAAAAAAAAAAAAAAAAAAAAAAAAAAAAAAAAAAAAAAAAAAA22222222222
AAAAAAAAAAAAAAAAAAAAAAAAAAAAAAAAAAAAAAAAAAAAAAAAAAAAAA2222222222
AAAAAAAAAAAAAAAAAAAAAAAAAAAAAAAAAAAAAAAAAAAAAAAAAAAAAAA222222222
AAAAAAAAAAAAAAAAAAAAAAAAAAAAAAAAAAAAAAAAAAAAAAAAAAAAAAAA22222222
AAAAAAAAAAAAAAAAAAAAAAAAAAAAAAAAAAAAAAAAAAAAAAAAAAAAAAAAA2222222
AAAAAAAAAAAAAAAAAAAAAAAAAAAAAAAAAAAAAAAAAAAAAAAAAAAAAAAAAA222222
AAAAAAAAAAAAAAAAAAAAAAAAAAAAAAAAAAAAAAAAAAAAAAAAAAAAAAAAAAA22222
AAAAAAAAAAAAAAAAAAAAAAAAAAAAAAAAAAAAAAAAAAAAAAAAAAAAAAAAAAAA2222
AAAAAAAAAAAAAAAAAAAAAAAAAAAAAAAAAAAAAAAAAAAAAAAAAAAAAAAAAAAAA222
AAAAAAAAAAAAAAAAAAAAAAAAAAAAAAAAAAAAAAAAAAAAAAAAAAAAAAAAAAAAAA22
AAAAAAAAAAAAAAAAAAAAAAAAAAAAAAAAAAAAAAAAAAAAAAAAAAAAAAAAAAAAAAA2
AAAAAAAAAAAAAAAAAAAAAAAAAAAAAAAAAAAAAAAAAAAAAAAAAAAAAAAAAAAAAAAA
AIAAAAAAAAAAAAAAAAAAAAAAAAAAAAAAAAAAAAAAAAAAAAAAAAAAAAAAAAAAAAAA
AIIAAAAAAAAAAAAAAAAAAAAAAAAAAAAAAAAAAAAAAAAAAAAAAAAAAAAAAAAAAAAA
AIIIAAAAAAAAAAAAAAAAAAAAAAAAAAAAAAAAAAAAAAAAAAAAAAAAAAAAAAAAAAAA
AIIIIAAAAAAAAAAAAAAAAAAAAAAAAAAAAAAAAAAAAAAAAAAAAAAAAAAAAAAAAAAA
AIIIIIAAAAAAAAAAAAAAAAAAAAAAAAAAAAAAAAAAAAAAAAAAAAAAAAAAAAAAAAAA
AIIIIIIAAAAAAAAAAAAAAAAAAAAAAAAAAAAAAAAAAAAAAAAAAAAAAAAAAAAAAAAA
AIIIIIIIAAAAAAAAAAAAAAAAAAAAAAAAAAAAAAAAAAAAAAAAAAAAAAAAAAAAAAAA
AIIIIIIIIAAAAAAAAAAAAAAAAAAAAAAAAAAAAAAAAAAAAAAAAAAAAAAAAAAAAAAA
AIIIIIIIIIAAAAAAAAAAAAAAAAAAAAAAAAAAAAAAAAAAAAAAAAAAAAAAAAAAAAAA
AIIIIIIIIIIAAAAAAAAAAAAAAAAAAAAAAAAAAAAAAAAAAAAAAAAAAAAAAAAAAAAA
AIIIIIIIIIIIAAAAAAAAAAAAAAAAAAAAAAAAAAAAAAAAAAAAAAAAAAAAAAAAAAAA
AIIIIIIIIIIIIAAAAAAAAAAAAAAAAAAAAAAAAAAAAAAAAAAAAAAAAAAAAAAAAAAA
AIIIIIIIIIIIIIAAAAAAAAAAAAAAAAAAAAAAAAAAAAAAAAAAAAAAAAAAAAAAAAAA
AIIIIIIIIIIIIIIAAAAAAAAAAAAAAAAAAAAAAAAAAAAAAAAAAAAAAAAAAAAAAAAA
AIIIIIIIIIIIIIIIAAAAAAAAAAAAAAAAAAAAAAAAAAAAAAAAAAAAAAAAAAAAAAAA
AIIIIIIIIIIIIIIIIAAAAAAAAAAAAAAAAAAAAAAAAAAAAAAAAAAAAAAAAAAAAAAA
AIIIIIIIIIIIIIIIIIAAAAAAAAAAAAAAAAAAAAAAAAAAAAAAAAAAAAAAAAAAAAAA
AIIIIIIIIIIIIIIIIIIAAAAAAAAAAAAAAAAAAAAAAAAAAAAAAAAAAAAAAAAAAAAA
AIIIIIIIIIIIIIIIIIIIAAAAAAAAAAAAAAAAAAAAAAAAAAAAAAAAAAAAAAAAAAAA
AIIIIIIIIIIIIIIIIIIIIAAAAAAAAAAAAAAAAAAAAAAAAAAAAAAAAAAAAAAAAAAA
AIIIIIIIIIIIIIIIIIIIIIAAAAAAAAAAAAAAAAAAAAAAAAAAAAAAAAAAAAAAAAAA
AIIIIIIIIIIIIIIIIIIIIIIAAAAAAAAAAAAAAAAAAAAAAAAAAAAAAAAAAAAAAAAA
AIIIIIIIIIIIIIIIIIIIIIIIAAAAAAAAAAAAAAAAAAAAAAAAAAAAAAAAAAAAAAAA
AIIIIIIIIIIIIIIIIIIIIIIIIAAAAAAAAAAAAAAAAAAAAAAAAAAAAAAAAAAAAAAA
AIIIIIIIIIIIIIIIIIIIIIIIIIAAAAAAAAAAAAAAAAAAAAAAAAAAAAAAAAAAAAAA
AIIIIIIIIIIIIIIIIIIIIIIIIIIAAAAAAAAAAAAAAAAAAAAAAAAAAAAAAAAAAAAA
AIIIIIIIIIIIIIIIIIIIIIIIIIIIAAAAAAAAAAAAAAAAAAAAAAAAAAAAAAAAAAAA
AIIIIIIIIIIIIIIIIIIIIIIIIIIIIAAAAAAAAAAAAAAAAAAAAAAAAAAAAAAAAAAA
AIIIIIIIIIIIIIIIIIIIIIIIIIIIIIAAAAAAAAAAAAAAAAAAAAAAAAAAAAAAAAAA
AIIIIIIIIIIIIIIIIIIIIIIIIIIIIIIAAAAAAAAAAAAAAAAAAAAAAAAAAAAAAAAA
AIIIIIIIIIIIIIIIIIIIIIIIIIIIIIIIAAAAAAAAAAAAAAAAAAAAAAAAAAAAAAAA
AIIIIIIIIIIIIIIIIIIIIIIIIIIIIIIIIAAAAAAAAAAAAAAAAAAAAAAAAAAAAAAA
AIIIIIIIIIIIIIIIIIIIIIIIIIIIIIIIIIAAAAAAAAAAAAAAAAAAAAAAAAAAAAAA
AIIIIIIIIIIIIIIIIIIIIIIIIIIIIIIIIIIAAAAAAAAAAAAAAAAAAAAAAAAAAAAA
AIIIIIIIIIIIIIIIIIIIIIIIIIIIIIIIIIIIAAAAAAAAAAAAAAAAAAAAAAAAAAAA
AIIIIIIIIIIIIIIIIIIIIIIIIIIIIIIIIIIIIAAAAAAAAAAAAAAAAAAAAAAAAAAA
AIIIIIIIIIIIIIIIIIIIIIIIIIIIIIIIIIIIIIAAAAAAAAAAAAAAAAAAAAAAAAAA
AIIIIIIIIIIIIIIIIIIIIIIIIIIIIIIIIIIIIIIAAAAAAAAAAAAAAAAAAAAAAAAA
AIIIIIIIIIIIIIIIIIIIIIIIIIIIIIIIIIIIIIIIAAAAAAAAAAAAAAAAAAAAAAAA
AIIIIIIIIIIIIIIIIIIIIIIIIIIIIIIIIIIIIIIIIAAAAAAAAAAAAAAAAAAAAAAA
AIIIIIIIIIIIIIIIIIIIIIIIIIIIIIIIIIIIIIIIIIAAAAAAAAAAAAAAAAAAAAAA
AIIIIIIIIIIIIIIIIIIIIIIIIIIIIIIIIIIIIIIIIIIAAAAAAAAAAAAAAAAAAAAA
AIIIIIIIIIIIIIIIIIIIIIIIIIIIIIIIIIIIIIIIIIIIAAAAAAAAAAAAAAAAAAAA
AIIIIIIIIIIIIIIIIIIIIIIIIIIIIIIIIIIIIIIIIIIIIAAAAAAAAAAAAAAAAAAA
AIIIIIIIIIIIIIIIIIIIIIIIIIIIIIIIIIIIIIIIIIIIIIAAAAAAAAAAAAAAAAAA
AIIIIIIIIIIIIIIIIIIIIIIIIIIIIIIIIIIIIIIIIIIIIIIAAAAAAAAAAAAAAAAA
AIIIIIIIIIIIIIIIIIIIIIIIIIIIIIIIIIIIIIIIIIIIIIIIAAAAAAAAAAAAAAAA
AIIIIIIIIIIIIIIIIIIIIIIIIIIIIIIIIIIIIIIIIIIIIIIIIAAAAAAAAAAAAAAA
AIIIIIIIIIIIIIIIIIIIIIIIIIIIIIIIIIIIIIIIIIIIIIIIIIAAAAAAAAAAAAAA
AIIIIIIIIIIIIIIIIIIIIIIIIIIIIIIIIIIIIIIIIIIIIIIIIIIAAAAAAAAAAAAA
AIIIIIIIIIIIIIIIIIIIIIIIIIIIIIIIIIIIIIIIIIIIIIIIIIIIAAAAAAAAAAAA
AIIIIIIIIIIIIIIIIIIIIIIIIIIIIIIIIIIIIIIIIIIIIIIIIIIIIAAAAAAAAAAA
AIIIIIIIIIIIIIIIIIIIIIIIIIIIIIIIIIIIIIIIIIIIIIIIIIIIIIAAAAAAAAAA
AIIIIIIIIIIIIIIIIIIIIIIIIIIIIIIIIIIIIIIIIIIIIIIIIIIIIIIAAAAAAAAA
AIIIIIIIIIIIIIIIIIIIIIIIIIIIIIIIIIIIIIIIIIIIIIIIIIIIIIIIAAAAAAAA
AIIIIIIIIIIIIIIIIIIIIIIIIIIIIIIIIIIIIIIIIIIIIIIIIIIIIIIIIAAAAAAA
AIIIIIIIIIIIIIIIIIIIIIIIIIIIIIIIIIIIIIIIIIIIIIIIIIIIIIIIIIAAAAAA
AIIIIIIIIIIIIIIIIIIIIIIIIIIIIIIIIIIIIIIIIIIIIIIIIIIIIIIIIIIAAAAA
AIIIIIIIIIIIIIIIIIIIIIIIIIIIIIIIIIIIIIIIIIIIIIIIIIIIIIIIIIIIAAAA
AIIIIIIIIIIIIIIIIIIIIIIIIIIIIIIIIIIIIIIIIIIIIIIIIIIIIIIIIIIIIAAA
AIIIIIIIIIIIIIIIIIIIIIIIIIIIIIIIIIIIIIIIIIIIIIIIIIIIIIIIIIIIIIAA
AIIIIIIIIIIIIIIIIIIIIIIIIIIIIIIIIIIIIIIIIIIIIIIIIIIIIIIIIIIIIIIA
AIIIIIIIIIIIIIIIIIIIIIIIIIIIIIIIIIIIIIIIIIIIIIIIIIIIIIIIIIIIIIII
A2I224II44II4444III4IIIIIIIIIIIIIIIIIIIIIIIIIIIIIIIIIIIIIIIIIIII
AA22224I444I44444II44IIIIIIIIIIIIIIIIIIIIIIIIIIIIIIIIIIIIIIIIIII
AAA222244444444444I444IIIIIIIIIIIIIIIIIIIIIIIIIIIIIIIIIIIIIIIIII
AAAA2222444444444444444IIIIIIIIIIIIIIIIIIIIIIIIIIIIIIIIIIIIIIIII
AAAAA2222444444444444444IIIIIIIIIIIIIIIIIIIIIIIIIIIIIIIIIIIIIIII
AAAAAA2224444444444444444IIIIIIIIIIIIIIIIIIIIIIIIIIIIIIIIIIIIIII
AAAAAAA2224444444444444444IIIIIIIIIIIIIIIIIIIIIIIIIIIIIIIIIIIIII
AAAAAAAA2224444444444444444IIIIIIIIIIIIIIIIIIIIIIIIIIIIIIIIIIIII
AAAAAAAAA2224444444444444444IIIIIIIIIIIIIIIIIIIIIIIIIIIIIIIIIIII
AAAAAAAAAA2224444444444444444IIIIIIIIIIIIIIIIIIIIIIIIIIIIIIIIIII
AAAAAAAAAAA2224444444444444444IIIIIIIIIIIIIIIIIIIIIIIIIIIIIIIIII
AAAAAAAAAAAA2224444444444444444IIIIIIIIIIIIIIIIIIIIIIIIIIIIIIIII
AAAAAAAAAAAAA2224444444444444444IIIIIIIIIIIIIIIIIIIIIIIIIIIIIIII
AAAAAAAAAAAAAA2224444444444444444IIIIIIIIIIIIIIIIIIIIIIIIIIIIIII
AAAAAAAAAAAAAAA2224444444444444444IIIIIIIIIIIIIIIIIIIIIIIIIIIIII
AAAAAAAAAAAAAAAA2224444444444444444IIIIIIIIIIIIIIIIIIIIIIIIIIIII
AAAAAAAAAAAAAAAAA2224444444444444444IIIIIIIIIIIIIIIIIIIIIIIIIIII
AAAAAAAAAAAAAAAAAA2224444444444444444IIIIIIIIIIIIIIIIIIIIIIIIIII
AAAAAAAAAAAAAAAAAAA2224444444444444444IIIIIIIIIIIIIIIIIIIIIIIIII
AAAAAAAAAAAAAAAAAAAA2224444444444444444IIIIIIIIIIIIIIIIIIIIIIIII
AAAAAAAAAAAAAAAAAAAAA222244444444444444IIIIIIIIIIIIIIIIIIIIIIIII
AAAAAAAAAAAAAAAAAAAAAA22224444444444444IIIIIIIIIIIIIIIIIIIIIIIII
AAAAAAAAAAAAAAAAAAAAAAA22224444444444444IIIIIIIIIIIIIIIIIIIIIIII
AAAAAAAAAAAAAAAAAAAAAAAA22224444444444444IIIIIIIIIIIIIIIIIIIIIII
AAAAAAAAAAAAAAAAAAAAAAAAA22224444444444444IIIIIIIIIIIIIIIIIIIIII
AAAAAAAAAAAAAAAAAAAAAAAAAA22224444444444444IIIIIIIIIIIIIIIIIIIII
AAAAAAAAAAAAAAAAAAAAAAAAAAA22224444444444444IIIIIIIIIIIIIIIIIIII
AAAAAAAAAAAAAAAAAAAAAAAAAAAA22224444444444444IIIIIIIIIIIIIIIIIII
AAAAAAAAAAAAAAAAAAAAAAAAAAAAA22224444444444444IIIIIIIIIIIIIIIIII
AAAAAAAAAAAAAAAAAAAAAAAAAAAAAA22224444444444444IIIIIIIIIIIIIIIII
AAAAAAAAAAAAAAAAAAAAAAAAAAAAAAA22224444444444444IIIIIIIIIIIIIIII
AAAAAAAAAAAAAAAAAAAAAAAAAAAAAAAA22224444444444444IIIIIIIIIIIIIII
AAAAAAAAAAAAAAAAAAAAAAAAAAAAAAAAA22224444444444444IIIIIIIIIIIIII
AAAAAAAAAAAAAAAAAAAAAAAAAAAAAAAAAA22224444444444444IIIIIIIIIIIII
AAAAAAAAAAAAAAAAAAAAAAAAAAAAAAAAAAA22224444444444444IIIIIIIIIIII
AAAAAAAAAAAAAAAAAAAAAAAAAAAAAAAAAAAA22224444444444444IIIIIIIIIII
AAAAAAAAAAAAAAAAAAAAAAAAAAAAAAAAAAAAA22224444444444444IIIIIIIIII
AAAAAAAAAAAAAAAAAAAAAAAAAAAAAAAAAAAAAA22224444444444444IIIIIIIII
AAAAAAAAAAAAAAAAAAAAAAAAAAAAAAAAAAAAAAA22224444444444444IIIIIIII
AAAAAAAAAAAAAAAAAAAAAAAAAAAAAAAAAAAAAAAA22242244444444444IIIIIII
AAAAAAAIAAAAAAAAAAAAAAAAAAAAAAAAAAAAAAAA22242244444444444IIIIIII
AAAAAAAIAAAIAAAAAAAAAAAAAAAAAAAAAAAAAAAA22242244444444444IIIIIII
AAAAAAAIAAAIAAAAAAAAAAAAAAAAAAAAAAAAAAAA222422444444444444IIIIII
AAAAAAAIAAAIAAAAAAAAAAAAAAAAAAAAAAAAAAAAA224224444444444444IIIII
AAAAAAAIAAAIAAAAAAAAAAAAAAAAAAAAAAAAAAAAAA222224444444444444IIII
AAAAAAAIAAAIAAAAAAAAAAAAAAAAAAAAAAAAAAAAAAA222224444444444444III
AAAAAAAIAAAIAAAAAAAAAAAAAAAAAAAAAAAAAAAAAAAA222224444444444444II
AAAAAAAIAAAIAAAAAAAAAAAAAAAAAAAAAAAAAAAAAAAAA222224444444444444I
AAAAAAAIAAAIAAAAAAAAAAAAAAAAAAAAAAAAAAAAAAAAAA22224444444444444I
AAAAAAAIAAAIAAAAAAAAAAAAAAAAAAAAAAAAAAAAAAAAAAA2222444444444444I
AAAAAAAIAAAIAAAAAAAAAAAAAAAAAAAAAAAAAAAAAAAAAAAA2222444444444444
AAAAAAAIAAAIAAAAAAAAAAAAAAAAAAAAAAAAAAAAAAAAAAAAA222244444444444
AAAAAAAIAAAIAAAAAAAAAAAAAAAAAAAAAAAAAAAAAAAAAAAAAA22224444444444
AAAAAAAIAAAIAAAAAAAAAAAAAAAAAAAAAAAAAAAAAAAAAAAAAAA2222444444444
AAAAAAAIAAAIAAAAAAAAAAAAAAAAAAAAAAAAAAAAAAAAAAAAAAAA222244444444
AAAAAAAIAAAIAAAAAAAAAAAAAAAAAAAAAAAAAAAAAAAAAAAAAAAAA22224444444
AAAAAAAIAAAIAAAAAAAAAAAAAAAAAAAAAAAAAAAAAAAAAAAAAAAAAA2222444444
AAAAAAAIAAAIAAAAAAAAAAAAAAAAAAAAAAAAAAAAAAAAAAAAAAAAAAA222244444
AAAAAAAIAAAIAAAAAAAAAAAAAAAAAAAAAAAAAAAAAAAAAAAAAAAAAAAA22224444
AAAAAAAIAAAIAAAAAAAAAAAAAAAAAAAAAAAAAAAAAAAAAAAAAAAAAAAAA2222444
AAAAAAAIAAAIAAAAAAAAAAAAAAAAAAAAAAAAAAAAAAAAAAAAAAAAAAAAAA222244
AAAAAAAIAAAIAAAAAAAAAAAAAAAAAAAAAAAAAAAAAAAAAAAAAAAAAAAAAAA22224
AAAAAAAIAAAIAAAAAAAAAAAAAAAAAAAAAAAAAAAAAAAAAAAAAAAAAAAAAAAA2222
AAAAAAAIAAAIAAAAAAAAAAAAAAAAAAAAAAAAAAAAAAAAAAAAAAAAAAAAAAAAA222
AAAAAAAIAAAIAAAAAAAAAAAAAAAAAAAAAAAAAAAAAAAAAAAAAAAAAAAAAAAAAA22
AAAAAAAIAAAIAAAAAAAAAAAAAAAAAAAAAAAAAAAAAAAAAAAAAAAAAAAAAAAAAAA2
AAAAAAAIAAAIAAAAAAAAAAAAAAAAAAAAAAAAAAAAAAAAAAAAAAAAAAAAAAAAAAAA
AAAAAAAIAAAIAAAAAAAAAAAAAAAAAAAAAAAAAAIAAAAAAAAAAAAAAAAAAAAAAAAA
AAAIAAAIAAAIAAAAAAAAAAAAAAAAAAAAAAAAAAIAAAAAAAAAAAAAAAAAAAAAAAAA
AAAIAAAIAAAIIAAAAAAAAAAAAAAAAAAAAAAAAAIAAAAAAAAAAAAAAAAAAAAAAAAA
AAAIAAAIAAAIIAAIAAAAAAAAAAAAAAAAAAAAAAIAAAAAAAAAAAAAAAAAAAAAAAAA
AAAIAAAIAAAIIAAIAIAAAAAAAAAAAAAAAAAAAAIAAAAAAAAAAAAAAAAAAAAAAAAA
AAAIAAAIAAAIIAAIAIAAAAAAAAAAAAAAIAAAAAIAAAAAAAAAAAAAAAAAAAAAAAAA
AAAIAAAIAAIIIAAIAIAAAAAAAAAAAAAAIAAAAAIAAAAAAAAAAAAAAAAAAAAAAAAA
AAAIAAAIAAIIIAAIAIAAAAAAAAAAAAAAIAAIAAIAAAAAAAAAAAAAAAAAAAAAAAAA
AAAIAAAIAAIIIAAIAIAAAAAAAAAAAAAAIAAIAAIAAAAAAAIAAAAAAAAAAAAAAAAA
AAAIAAAIAAIIIAAIAIIAAAAAAAAAAAAAIAAIAAIAAAAAAAIAAAAAAAAAAAAAAAAA
AAAIAAAIAAIIIAAIAIIAAAAAAAAAAAAAIAAIAAIAAAAIAAIAAAAAAAAAAAAAAAAA
AAAIAAAIAAIIIAAIAIIAAAAAAAAAAAAIIAAIAAIAAAAIAAIAAAAAAAAAAAAAAAAA
AAAIAAAIAAIIIAAIAIIAAAAAAAAAAAAIIAAIAAIAAAAIAAIAAAAAAAAAAAAAAAAI
AAAIAAAIAAIIIAAIAIIAAAAAAAAAAAAIIAAIAAIAAIAIAAIAAAAAAAAAAAAAAAAI
AAAIAAAIAAIIIAAIAIIAIAAAAAAAAAAIIAAIAAIAAIAIAAIAAAAAAAAAAAAAAAAI
AAAIAAAIAAIIIAAIAIIAIAAAIAAAAAAIIAAIAAIAAIAIAAIAAAAAAAAAAAAAAAAI
AAAIAAAIAAIIIAAIAIIAIAAAIAIAAAAIIAAIAAIAAIAIAAIAAAAAAAAAAAAAAAAI
AAAIAAAIAAIIIAAIAIIAIAAAIAIAAAAIIAAIAAIAAIAIAAIAAAAAAAAAAAAAAAII
AAAIAAAIAAIIIAAIAIIAIAAAIAIAAAAIIAAIAIIAAIAIAAIAAAAAAAAAAAAAAAII
AAAIAAAIAAIIIAAIAIIAIAAAIAIAAAIIIAAIAIIAAIAIAAIAAAAAAAAAAAAAAAII
AAIIAAAIAAIIIAAIAIIAIAAAIAIAAAIIIAAIAIIAAIAIAAIAAAAAAAAAAAAAAAII
AAIIAAAIAIIIIAAIAIIAIAAAIAIAAAIIIAAIAIIAAIAIAAIAAAAAAAAAAAAAAAII
AAIIAAAIAIIIIAAIAIIIIAAAIAIAAAIIIAAIAIIAAIAIAAIAAAAAAAAAAAAAAAII
AAIIAAAIAIIIIAAIAIIIIAIAIAIAAAIIIAAIAIIAAIAIAAIAAAAAAAAAAAAAAAII
AAIIAAAIAIIIIAAIAIIIIAIAIIIAAAIIIAAIAIIAAIAIAAIAAAAAAAAAAAAAAAII
AAIIAAAIAIIIIAAIAIIIIAIAIIIAAAIIIAAIIIIAAIAIAAIAAAAAAAAAAAAAAAII
AAIIAAAIAIIIIAAIAIIIIAIAIIIAAAIIIAAIIIIAAIAIAAIAAAAAAAAAAAAAIAII
AAIIAAAIAIIIIAAIAIIIIAIAIIIAAAIIIAAIIIIAAIAIAAIAAAAAAAAAAIAAIAII
AAIIAAAIAIIIIAAIAIIIIAIAIIIAAAIIIAAIIIIAAIAIAAIAAAAAAAAAIIAAIAII
AAIIAAAIAIIIIAAIAIIIIAIAIIIAAAIIIAAIIIIAAIAIIAIAAAAAAAAAIIAAIAII
AAIIAAAIAIIIIAAIAIIIIAIAIIIAAAIIIAAIIIIAAIAIIAIAAAAAAAAAIIAAIIII
AAIIAAAIAIIIIAIIAIIIIAIAIIIAAAIIIAAIIIIAAIAIIAIAAAAAAAAAIIAAIIII
AAIIAAAIAIIIIAIIAIIIIAIAIIIAAAIIIIAIIIIAAIAIIAIAAAAAAAAAIIAAIIII
AAIIAAAIAIIIIAIIAIIIIAIAIIIAAAIIIIAIIIIAAIAIIIIAAAAAAAAAIIAAIIII
AAIIAAAIAIIIIAIIAIIIIAIAIIIAAAIIIIAIIIIAAIAIIIIAAAAAAAIAIIAAIIII
AAIIAAAIAIIIIAIIAIIIIAIAIIIAAAIIIIAIIIIAAIAIIIIAAAAAAIIAIIAAIIII
[MLOP] Prefetch Degree Mean: 11.66573
[MLOP] Prefetch Degree SD: 2.49821
[MLOP] Max Score Left Mean (%): 59.89245
[MLOP] Max Score Left SD (%): 8.96463
[MLOP] Max Score Right Mean (%): 86.73169
[MLOP] Max Score Right SD (%): 9.15897

Channel_0_RQ_row_buffer_hit 647822
Channel_0_RQ_row_buffer_miss 3352527
Channel_0_WQ_row_buffer_hit 12506
Channel_0_WQ_row_buffer_miss 25168
Channel_0_WQ_full 362
Channel_0_dbus_congested 327962

avg_congested_cycle 8

DRAM_bw_pochs 4190788
DRAM_bw_level_0 4140613
DRAM_bw_level_1 33713
DRAM_bw_level_2 9355
DRAM_bw_level_3 7107
