*************************************************
   ChampSim Multicore Out-of-Order Simulator
   Last compiled: Apr  3 2025 20:54:34
*************************************************
parsing config file: /home/zir/Pythia/config/pythia.ini

trace_0 /home/zir/ChampSim/ML-DPC/ChampSimTraces/gap/bc-3.trace.gz
adding L2C_PREFETCHER: Scooby
Initialize SHIP state
warmup_instructions 10000000
simulation_instructions 50000000
champsim_seed 51
measure_ipc 0
measure_ipc_epoch 1000
measure_dram_bw 1
measure_dram_bw_epoch 256
measure_cache_acc 1
measure_cache_acc_epoch 1024
l1d_perfect 0
l2c_perfect 0
llc_perfect 0
l1d_semi_perfect 0
l2c_semi_perfect 0
llc_semi_perfect 0
semi_perfect_cache_page_buffer_size 64

num_cpus 1
cpu_freq 4000
dram_io_freq 2400
page_size 4096
block_size 64
max_read_per_cycle 8
max_fill_per_cycle 1
dram_channels 1
log2_dram_channels 0
dram_ranks 1
dram_banks 8
dram_rows 65536
dram_columns 128
dram_row_size 8
dram_size 4096
dram_pages 1048576

fetch_width 6
decode_width 6
exec_width 4
lq_width 2
sq_width 2
retire_width 4
scheduler_size 128
branch_mispredict_penalty 20
rob_size 256
lq_size 72
sq_size 56
num_instr_destinations_sparc 4
num_instr_destinations 2
num_instr_sources 4

itlb_set 16
itlb_way 8
itlb_rq_size 16
itlb_wq_size 16
itlb_pq_size 0
itlb_mshr_size 8
itlb_latency 1

dtlb_set 16
dtlb_way 4
dtlb_rq_size 16
dtlb_wq_size 16
dtlb_pq_size 0
dtlb_mshr_size 8
dtlb_latency 1

stlb_set 128
stlb_way 12
stlb_rq_size 32
stlb_wq_size 32
stlb_pq_size 0
stlb_mshr_size 16
stlb_latency 8

l1i_size 32
l1i_set 64
l1i_way 8
l1i_rq_size 64
l1i_wq_size 64
l1i_pq_size 8
l1i_mshr_size 8
l1i_latency 1

l1d_size 32
l1d_set 64
l1d_way 8
l1d_rq_size 64
l1d_wq_size 64
l1d_pq_size 8
l1d_mshr_size 16
l1d_latency 4

l2c_size 256
l2c_set 512
l2c_way 8
l2c_rq_size 32
l2c_wq_size 32
l2c_pq_size 32
l2c_mshr_size 32
l2c_latency 10

llc_size 2048
llc_set 2048
llc_way 16
llc_rq_size 32
llc_wq_size 32
llc_pq_size 32
llc_mshr_size 64
llc_latency 20

dram_channel_width 8
dram_wq_size 64
dram_rq_size 64
tRP 15
tRCD 15
tCAS 12.5
dram_dbus_turn_around_time 30
dram_write_high_wm 56
dram_write_low_wm 48
min_dram_writes_per_switch 16
dram_mtps 2400
dram_dbus_return_time 13

scooby_alpha 0.0065088
scooby_gamma 0.556301
scooby_epsilon 0.00182284
scooby_state_num_bits 10
scooby_max_states 1024
scooby_seed 200
scooby_policy EGreedy
scooby_learning_type SARSA
scooby_actions 1,3,4,5,10,11,12,22,23,30,32,-1,-3,-6,0,
scooby_max_actions 15
scooby_pt_size 256
scooby_st_size 64
scooby_max_pcs 5
scooby_max_offsets 5
scooby_max_deltas 5
scooby_reward_none -4
scooby_reward_incorrect -8
scooby_reward_correct_untimely 12
scooby_reward_correct_timely 20
scooby_brain_zero_init 0
scooby_enable_reward_all 0
scooby_enable_track_multiple 0
scooby_enable_reward_out_of_bounds 1
scooby_reward_out_of_bounds -12
scooby_state_type 1
scooby_state_hash_type 11
scooby_access_debug 0
scooby_print_access_debug 0
scooby_print_access_debug_pc deadbeef
scooby_print_access_debug_pc_count 0
scooby_print_trace 0
scooby_enable_state_action_stats 1
scooby_enable_reward_tracker_hit 0
scooby_reward_tracker_hit -2
scooby_enable_featurewise_engine 1
scooby_pref_degree 1
scooby_enable_dyn_degree 1
scooby_max_to_avg_q_thresholds 0.5,1,2,
scooby_dyn_degrees 1,2,4,4,
scooby_multi_deg_select_type 2
scooby_last_pref_offset_conf_thresholds 1,3,8,
scooby_dyn_degrees_type2 1,2,4,6,
scooby_action_tracker_size 2
scooby_high_bw_thresh 4
scooby_enable_hbw_reward 1
scooby_reward_hbw_correct_timely 20
scooby_reward_hbw_correct_untimely 12
scooby_reward_hbw_incorrect -14
scooby_reward_hbw_none -2
scooby_reward_hbw_out_of_bounds -12
scooby_reward_hbw_tracker_hit -2
scooby_last_pref_offset_conf_thresholds_hbw 1,3,8,
scooby_dyn_degrees_type2_hbw 1,2,4,6,

le_enable_trace 0
le_trace_interval 0
le_trace_file_name 
le_trace_state 0
le_enable_score_plot 0
le_plot_file_name 
le_plot_actions 
le_enable_action_trace 0
le_action_trace_interval 0
le_action_trace_name 
le_enable_action_plot 0

le_featurewise_active_features PC, PC_Delta
le_featurewise_num_tilings 3,3,
le_featurewise_num_tiles 128,128,
le_featurewise_hash_types 2,2,
le_featurewise_enable_tiling_offset 1,1,
le_featurewise_max_q_thresh 0.5
le_featurewise_enable_action_fallback 1
le_featurewise_feature_weights 1,1,
le_featurewise_enable_dynamic_weight 0
le_featurewise_weight_gradient 0.001
le_featurewise_disable_adjust_weight_all_features_align 1
le_featurewise_selective_update 0
le_featurewise_pooling_type 2
le_featurewise_enable_dyn_action_fallback 1
le_featurewise_bw_acc_check_level 1
le_featurewise_acc_thresh 2
le_featurewise_enable_trace 0
le_featurewise_trace_feature_type 0
le_featurewise_trace_feature 
le_featurewise_trace_interval 0
le_featurewise_trace_record_count 0
le_featurewise_trace_file_name 
le_featurewise_enable_score_plot 0
le_featurewise_plot_actions 
le_featurewise_plot_file_name 


Heartbeat CPU  0 instructions:    1000000 cycles:     577350 heartbeat IPC: 1.73205 cumulative IPC: 1.73205 (Simulation time: 0 hr 0 min 2 sec) 
Heartbeat CPU  0 instructions:    2000001 cycles:    1122450 heartbeat IPC: 1.83453 cumulative IPC: 1.78182 (Simulation time: 0 hr 0 min 3 sec) 
Heartbeat CPU  0 instructions:    3000001 cycles:    1632975 heartbeat IPC: 1.95877 cumulative IPC: 1.83714 (Simulation time: 0 hr 0 min 6 sec) 
Heartbeat CPU  0 instructions:    4000000 cycles:    2130401 heartbeat IPC: 2.01035 cumulative IPC: 1.87758 (Simulation time: 0 hr 0 min 8 sec) 
Heartbeat CPU  0 instructions:    5000000 cycles:    2723139 heartbeat IPC: 1.68709 cumulative IPC: 1.83612 (Simulation time: 0 hr 0 min 9 sec) 
Heartbeat CPU  0 instructions:    6000003 cycles:    3437254 heartbeat IPC: 1.40034 cumulative IPC: 1.74558 (Simulation time: 0 hr 0 min 12 sec) 
Heartbeat CPU  0 instructions:    7000000 cycles:    4145295 heartbeat IPC: 1.41234 cumulative IPC: 1.68866 (Simulation time: 0 hr 0 min 14 sec) 
Heartbeat CPU  0 instructions:    8000000 cycles:    4878047 heartbeat IPC: 1.36472 cumulative IPC: 1.64000 (Simulation time: 0 hr 0 min 16 sec) 
Heartbeat CPU  0 instructions:    9000001 cycles:    5699259 heartbeat IPC: 1.21771 cumulative IPC: 1.57915 (Simulation time: 0 hr 0 min 17 sec) 
Heartbeat CPU  0 instructions:   10000001 cycles:    6550949 heartbeat IPC: 1.17414 cumulative IPC: 1.52650 (Simulation time: 0 hr 0 min 19 sec) 

Warmup complete CPU  0 instructions:   10000001 cycles:    6550949 (Simulation time: 0 hr 0 min 19 sec) 

Heartbeat CPU  0 instructions:   11000000 cycles:   12716551 heartbeat IPC: 0.16219 cumulative IPC: 0.16219 (Simulation time: 0 hr 0 min 23 sec) 
Heartbeat CPU  0 instructions:   12000000 cycles:   19037066 heartbeat IPC: 0.15821 cumulative IPC: 0.16018 (Simulation time: 0 hr 0 min 26 sec) 
Heartbeat CPU  0 instructions:   13000001 cycles:   24886392 heartbeat IPC: 0.17096 cumulative IPC: 0.16362 (Simulation time: 0 hr 0 min 30 sec) 
Heartbeat CPU  0 instructions:   14000000 cycles:   31287330 heartbeat IPC: 0.15623 cumulative IPC: 0.16171 (Simulation time: 0 hr 0 min 33 sec) 
Heartbeat CPU  0 instructions:   15000001 cycles:   37630116 heartbeat IPC: 0.15766 cumulative IPC: 0.16088 (Simulation time: 0 hr 0 min 37 sec) 
Heartbeat CPU  0 instructions:   16000000 cycles:   43634662 heartbeat IPC: 0.16654 cumulative IPC: 0.16180 (Simulation time: 0 hr 0 min 40 sec) 
Heartbeat CPU  0 instructions:   17000002 cycles:   49681697 heartbeat IPC: 0.16537 cumulative IPC: 0.16230 (Simulation time: 0 hr 0 min 44 sec) 
Heartbeat CPU  0 instructions:   18000000 cycles:   56028370 heartbeat IPC: 0.15756 cumulative IPC: 0.16169 (Simulation time: 0 hr 0 min 47 sec) 
Heartbeat CPU  0 instructions:   19000000 cycles:   61788994 heartbeat IPC: 0.17359 cumulative IPC: 0.16293 (Simulation time: 0 hr 0 min 51 sec) 
Heartbeat CPU  0 instructions:   20000000 cycles:   68055137 heartbeat IPC: 0.15959 cumulative IPC: 0.16259 (Simulation time: 0 hr 0 min 54 sec) 
Heartbeat CPU  0 instructions:   21000000 cycles:   74692557 heartbeat IPC: 0.15066 cumulative IPC: 0.16143 (Simulation time: 0 hr 0 min 58 sec) 
Heartbeat CPU  0 instructions:   22000003 cycles:   81157335 heartbeat IPC: 0.15468 cumulative IPC: 0.16084 (Simulation time: 0 hr 1 min 1 sec) 
Heartbeat CPU  0 instructions:   23000003 cycles:   87698438 heartbeat IPC: 0.15288 cumulative IPC: 0.16020 (Simulation time: 0 hr 1 min 5 sec) 
Heartbeat CPU  0 instructions:   24000000 cycles:   94093865 heartbeat IPC: 0.15636 cumulative IPC: 0.15992 (Simulation time: 0 hr 1 min 8 sec) 
Heartbeat CPU  0 instructions:   25000001 cycles:  100545518 heartbeat IPC: 0.15500 cumulative IPC: 0.15958 (Simulation time: 0 hr 1 min 11 sec) 
Heartbeat CPU  0 instructions:   26000003 cycles:  106978299 heartbeat IPC: 0.15545 cumulative IPC: 0.15932 (Simulation time: 0 hr 1 min 15 sec) 
Heartbeat CPU  0 instructions:   27000000 cycles:  113380498 heartbeat IPC: 0.15620 cumulative IPC: 0.15913 (Simulation time: 0 hr 1 min 18 sec) 
Heartbeat CPU  0 instructions:   28000000 cycles:  119728020 heartbeat IPC: 0.15754 cumulative IPC: 0.15904 (Simulation time: 0 hr 1 min 22 sec) 
Heartbeat CPU  0 instructions:   29000000 cycles:  126374334 heartbeat IPC: 0.15046 cumulative IPC: 0.15857 (Simulation time: 0 hr 1 min 25 sec) 
Heartbeat CPU  0 instructions:   30000002 cycles:  132811275 heartbeat IPC: 0.15535 cumulative IPC: 0.15840 (Simulation time: 0 hr 1 min 28 sec) 
Heartbeat CPU  0 instructions:   31000001 cycles:  139314815 heartbeat IPC: 0.15376 cumulative IPC: 0.15818 (Simulation time: 0 hr 1 min 32 sec) 
Heartbeat CPU  0 instructions:   32000000 cycles:  145731241 heartbeat IPC: 0.15585 cumulative IPC: 0.15807 (Simulation time: 0 hr 1 min 35 sec) 
Heartbeat CPU  0 instructions:   33000001 cycles:  152340170 heartbeat IPC: 0.15131 cumulative IPC: 0.15776 (Simulation time: 0 hr 1 min 38 sec) 
Heartbeat CPU  0 instructions:   34000003 cycles:  158765913 heartbeat IPC: 0.15562 cumulative IPC: 0.15767 (Simulation time: 0 hr 1 min 42 sec) 
Heartbeat CPU  0 instructions:   35000003 cycles:  165193858 heartbeat IPC: 0.15557 cumulative IPC: 0.15759 (Simulation time: 0 hr 1 min 45 sec) 
Heartbeat CPU  0 instructions:   36000000 cycles:  171734447 heartbeat IPC: 0.15289 cumulative IPC: 0.15740 (Simulation time: 0 hr 1 min 49 sec) 
Heartbeat CPU  0 instructions:   37000001 cycles:  178185207 heartbeat IPC: 0.15502 cumulative IPC: 0.15731 (Simulation time: 0 hr 1 min 52 sec) 
Heartbeat CPU  0 instructions:   38000003 cycles:  184607793 heartbeat IPC: 0.15570 cumulative IPC: 0.15725 (Simulation time: 0 hr 1 min 55 sec) 
Heartbeat CPU  0 instructions:   39000001 cycles:  191174412 heartbeat IPC: 0.15229 cumulative IPC: 0.15708 (Simulation time: 0 hr 1 min 59 sec) 
Heartbeat CPU  0 instructions:   40000000 cycles:  197733895 heartbeat IPC: 0.15245 cumulative IPC: 0.15692 (Simulation time: 0 hr 2 min 2 sec) 
Heartbeat CPU  0 instructions:   41000002 cycles:  204191880 heartbeat IPC: 0.15485 cumulative IPC: 0.15685 (Simulation time: 0 hr 2 min 6 sec) 
Heartbeat CPU  0 instructions:   42000001 cycles:  210792310 heartbeat IPC: 0.15151 cumulative IPC: 0.15668 (Simulation time: 0 hr 2 min 9 sec) 
Heartbeat CPU  0 instructions:   43000001 cycles:  217388001 heartbeat IPC: 0.15161 cumulative IPC: 0.15652 (Simulation time: 0 hr 2 min 12 sec) 
Heartbeat CPU  0 instructions:   44000000 cycles:  223888866 heartbeat IPC: 0.15383 cumulative IPC: 0.15644 (Simulation time: 0 hr 2 min 16 sec) 
Heartbeat CPU  0 instructions:   45000000 cycles:  230472880 heartbeat IPC: 0.15188 cumulative IPC: 0.15630 (Simulation time: 0 hr 2 min 19 sec) 
Heartbeat CPU  0 instructions:   46000000 cycles:  236972885 heartbeat IPC: 0.15385 cumulative IPC: 0.15624 (Simulation time: 0 hr 2 min 22 sec) 
Heartbeat CPU  0 instructions:   47000001 cycles:  243542803 heartbeat IPC: 0.15221 cumulative IPC: 0.15612 (Simulation time: 0 hr 2 min 26 sec) 
Heartbeat CPU  0 instructions:   48000000 cycles:  250148492 heartbeat IPC: 0.15138 cumulative IPC: 0.15599 (Simulation time: 0 hr 2 min 29 sec) 
Heartbeat CPU  0 instructions:   49000002 cycles:  256759596 heartbeat IPC: 0.15126 cumulative IPC: 0.15587 (Simulation time: 0 hr 2 min 33 sec) 
Heartbeat CPU  0 instructions:   50000000 cycles:  263388313 heartbeat IPC: 0.15086 cumulative IPC: 0.15574 (Simulation time: 0 hr 2 min 36 sec) 
Heartbeat CPU  0 instructions:   51000001 cycles:  270073555 heartbeat IPC: 0.14958 cumulative IPC: 0.15558 (Simulation time: 0 hr 2 min 39 sec) 
Heartbeat CPU  0 instructions:   52000000 cycles:  276623244 heartbeat IPC: 0.15268 cumulative IPC: 0.15551 (Simulation time: 0 hr 2 min 43 sec) 
Heartbeat CPU  0 instructions:   53000000 cycles:  283221473 heartbeat IPC: 0.15156 cumulative IPC: 0.15542 (Simulation time: 0 hr 2 min 46 sec) 
Heartbeat CPU  0 instructions:   54000000 cycles:  289818446 heartbeat IPC: 0.15158 cumulative IPC: 0.15533 (Simulation time: 0 hr 2 min 50 sec) 
Heartbeat CPU  0 instructions:   55000003 cycles:  296499928 heartbeat IPC: 0.14967 cumulative IPC: 0.15520 (Simulation time: 0 hr 2 min 53 sec) 
Heartbeat CPU  0 instructions:   56000000 cycles:  303102573 heartbeat IPC: 0.15145 cumulative IPC: 0.15512 (Simulation time: 0 hr 2 min 56 sec) 
Heartbeat CPU  0 instructions:   57000002 cycles:  309816297 heartbeat IPC: 0.14895 cumulative IPC: 0.15498 (Simulation time: 0 hr 3 min 0 sec) 
Heartbeat CPU  0 instructions:   58000001 cycles:  316407790 heartbeat IPC: 0.15171 cumulative IPC: 0.15491 (Simulation time: 0 hr 3 min 3 sec) 
Heartbeat CPU  0 instructions:   59000000 cycles:  322942880 heartbeat IPC: 0.15302 cumulative IPC: 0.15487 (Simulation time: 0 hr 3 min 7 sec) 
Heartbeat CPU  0 instructions:   60000000 cycles:  329289614 heartbeat IPC: 0.15756 cumulative IPC: 0.15492 (Simulation time: 0 hr 3 min 10 sec) 
Finished CPU 0 instructions: 50000001 cycles: 322738673 cumulative IPC: 0.15492 (Simulation time: 0 hr 3 min 10 sec) 

ChampSim completed all CPUs

[ROI Statistics]
Core_0_instructions 50000001
Core_0_cycles 322738673
Core_0_IPC 0.15492

Core_0_branch_prediction_accuracy 92.57282
Core_0_branch_MPKI 15.65858
Core_0_average_ROB_occupancy_at_mispredict 72.32637

Core_0_L1D_total_access 12479590
Core_0_L1D_total_hit 8229472
Core_0_L1D_total_miss 4250118
Core_0_L1D_loads 10439993
Core_0_L1D_load_hit 6218834
Core_0_L1D_load_miss 4221159
Core_0_L1D_RFOs 2039597
Core_0_L1D_RFO_hit 2010638
Core_0_L1D_RFO_miss 28959
Core_0_L1D_prefetches 0
Core_0_L1D_prefetch_hit 0
Core_0_L1D_prefetch_miss 0
Core_0_L1D_writebacks 0
Core_0_L1D_writeback_hit 0
Core_0_L1D_writeback_miss 0
Core_0_L1D_prefetch_requested 0
Core_0_L1D_prefetch_dropped 0
Core_0_L1D_prefetch_issued 0
Core_0_L1D_prefetch_filled 0
Core_0_L1D_prefetch_useful 0
Core_0_L1D_prefetch_useless 0
Core_0_L1D_prefetch_late 0
Core_0_L1D_average_miss_latency 141.83329

Core_0_L1D_rq_access 12282958
Core_0_L1D_rq_forward 0
Core_0_L1D_rq_merged 1653137
Core_0_L1D_rq_to_cache 10629821
Core_0_L1D_rq_full 0

Core_0_L1D_wq_access 2082721
Core_0_L1D_wq_forward 0
Core_0_L1D_wq_merged 0
Core_0_L1D_wq_to_cache 2082721
Core_0_L1D_wq_full 0

Core_0_L1D_pq_access 0
Core_0_L1D_pq_forward 0
Core_0_L1D_pq_merged 0
Core_0_L1D_pq_to_cache 0
Core_0_L1D_pq_full 0

Core_0_L1D_acc_epochs 268608
Core_0_L1D_acc_level_0 268608
Core_0_L1D_acc_level_1 0
Core_0_L1D_acc_level_2 0
Core_0_L1D_acc_level_3 0
Core_0_L1D_acc_level_4 0
Core_0_L1D_acc_level_5 0
Core_0_L1D_acc_level_6 0
Core_0_L1D_acc_level_7 0
Core_0_L1D_acc_level_8 0
Core_0_L1D_acc_level_9 0

Core_0_L1I_total_access 9360632
Core_0_L1I_total_hit 9360632
Core_0_L1I_total_miss 0
Core_0_L1I_loads 9360632
Core_0_L1I_load_hit 9360632
Core_0_L1I_load_miss 0
Core_0_L1I_RFOs 0
Core_0_L1I_RFO_hit 0
Core_0_L1I_RFO_miss 0
Core_0_L1I_prefetches 0
Core_0_L1I_prefetch_hit 0
Core_0_L1I_prefetch_miss 0
Core_0_L1I_writebacks 0
Core_0_L1I_writeback_hit 0
Core_0_L1I_writeback_miss 0
Core_0_L1I_prefetch_requested 0
Core_0_L1I_prefetch_dropped 0
Core_0_L1I_prefetch_issued 0
Core_0_L1I_prefetch_filled 0
Core_0_L1I_prefetch_useful 0
Core_0_L1I_prefetch_useless 0
Core_0_L1I_prefetch_late 0
Core_0_L1I_average_miss_latency -nan

Core_0_L1I_rq_access 49999993
Core_0_L1I_rq_forward 0
Core_0_L1I_rq_merged 40639361
Core_0_L1I_rq_to_cache 9360632
Core_0_L1I_rq_full 0

Core_0_L1I_wq_access 0
Core_0_L1I_wq_forward 0
Core_0_L1I_wq_merged 0
Core_0_L1I_wq_to_cache 0
Core_0_L1I_wq_full 0

Core_0_L1I_pq_access 0
Core_0_L1I_pq_forward 0
Core_0_L1I_pq_merged 0
Core_0_L1I_pq_to_cache 0
Core_0_L1I_pq_full 0

Core_0_L1I_acc_epochs 268608
Core_0_L1I_acc_level_0 268608
Core_0_L1I_acc_level_1 0
Core_0_L1I_acc_level_2 0
Core_0_L1I_acc_level_3 0
Core_0_L1I_acc_level_4 0
Core_0_L1I_acc_level_5 0
Core_0_L1I_acc_level_6 0
Core_0_L1I_acc_level_7 0
Core_0_L1I_acc_level_8 0
Core_0_L1I_acc_level_9 0

Core_0_L2C_total_access 9481464
Core_0_L2C_total_hit 2541788
Core_0_L2C_total_miss 6939676
Core_0_L2C_loads 4221158
Core_0_L2C_load_hit 487917
Core_0_L2C_load_miss 3733241
Core_0_L2C_RFOs 28959
Core_0_L2C_RFO_hit 79
Core_0_L2C_RFO_miss 28880
Core_0_L2C_prefetches 4194432
Core_0_L2C_prefetch_hit 1017372
Core_0_L2C_prefetch_miss 3177060
Core_0_L2C_writebacks 1036915
Core_0_L2C_writeback_hit 1036420
Core_0_L2C_writeback_miss 495
Core_0_L2C_prefetch_requested 6169163
Core_0_L2C_prefetch_dropped 221
Core_0_L2C_prefetch_issued 6168942
Core_0_L2C_prefetch_filled 3918074
Core_0_L2C_prefetch_useful 531087
Core_0_L2C_prefetch_useless 3385372
Core_0_L2C_prefetch_late 50442
Core_0_L2C_average_miss_latency 144.97451

Core_0_L2C_rq_access 4250116
Core_0_L2C_rq_forward 0
Core_0_L2C_rq_merged 0
Core_0_L2C_rq_to_cache 4250116
Core_0_L2C_rq_full 0

Core_0_L2C_wq_access 1036915
Core_0_L2C_wq_forward 0
Core_0_L2C_wq_merged 0
Core_0_L2C_wq_to_cache 1036915
Core_0_L2C_wq_full 0

Core_0_L2C_pq_access 6168942
Core_0_L2C_pq_forward 0
Core_0_L2C_pq_merged 480685
Core_0_L2C_pq_to_cache 5688257
Core_0_L2C_pq_full 0

Core_0_L2C_acc_epochs 268608
Core_0_L2C_acc_level_0 140635
Core_0_L2C_acc_level_1 98687
Core_0_L2C_acc_level_2 21429
Core_0_L2C_acc_level_3 4850
Core_0_L2C_acc_level_4 682
Core_0_L2C_acc_level_5 599
Core_0_L2C_acc_level_6 926
Core_0_L2C_acc_level_7 144
Core_0_L2C_acc_level_8 80
Core_0_L2C_acc_level_9 576

Core_0_LLC_total_access 7973851
Core_0_LLC_total_hit 3768893
Core_0_LLC_total_miss 4204958
Core_0_LLC_loads 3685201
Core_0_LLC_load_hit 1914670
Core_0_LLC_load_miss 1770531
Core_0_LLC_RFOs 28880
Core_0_LLC_RFO_hit 592
Core_0_LLC_RFO_miss 28288
Core_0_LLC_prefetches 3225100
Core_0_LLC_prefetch_hit 1317047
Core_0_LLC_prefetch_miss 1908053
Core_0_LLC_writebacks 1034670
Core_0_LLC_writeback_hit 536584
Core_0_LLC_writeback_miss 498086
Core_0_LLC_prefetch_requested 0
Core_0_LLC_prefetch_dropped 0
Core_0_LLC_prefetch_issued 0
Core_0_LLC_prefetch_filled 2500960
Core_0_LLC_prefetch_useful 142973
Core_0_LLC_prefetch_useless 2351239
Core_0_LLC_prefetch_late 0
Core_0_LLC_average_miss_latency 185.05239

Core_0_LLC_rq_access 3714080
Core_0_LLC_rq_forward 0
Core_0_LLC_rq_merged 0
Core_0_LLC_rq_to_cache 3714080
Core_0_LLC_rq_full 0

Core_0_LLC_wq_access 1034670
Core_0_LLC_wq_forward 0
Core_0_LLC_wq_merged 0
Core_0_LLC_wq_to_cache 1034670
Core_0_LLC_wq_full 0

Core_0_LLC_pq_access 3968516
Core_0_LLC_pq_forward 0
Core_0_LLC_pq_merged 0
Core_0_LLC_pq_to_cache 3968515
Core_0_LLC_pq_full 0

Core_0_LLC_acc_epochs 321572
Core_0_LLC_acc_level_0 213185
Core_0_LLC_acc_level_1 71661
Core_0_LLC_acc_level_2 24553
Core_0_LLC_acc_level_3 7317
Core_0_LLC_acc_level_4 1362
Core_0_LLC_acc_level_5 2699
Core_0_LLC_acc_level_6 312
Core_0_LLC_acc_level_7 140
Core_0_LLC_acc_level_8 53
Core_0_LLC_acc_level_9 290

Core_0_major_page_fault 0
Core_0_minor_page_fault 11363

scooby_st_lookup 4714942
scooby_st_hit 2921738
scooby_st_evict 1793140
scooby_st_insert 1793204
scooby_st_streaming 0

scooby_predict_called 4714942
scooby_predict_out_of_bounds 103918
scooby_predict_action_1 3120084
scooby_predict_issue_action_1 3115652
scooby_predict_hit_action_1 4432
scooby_predict_out_of_bounds_action_1 47443
scooby_predict_action_3 22552
scooby_predict_issue_action_3 22037
scooby_predict_hit_action_3 515
scooby_predict_out_of_bounds_action_3 1903
scooby_predict_action_4 26187
scooby_predict_issue_action_4 25678
scooby_predict_hit_action_4 509
scooby_predict_out_of_bounds_action_4 2679
scooby_predict_action_5 22554
scooby_predict_issue_action_5 22179
scooby_predict_hit_action_5 375
scooby_predict_out_of_bounds_action_5 3014
scooby_predict_action_10 16151
scooby_predict_issue_action_10 15927
scooby_predict_hit_action_10 224
scooby_predict_out_of_bounds_action_10 4886
scooby_predict_action_11 15110
scooby_predict_issue_action_11 14920
scooby_predict_hit_action_11 190
scooby_predict_out_of_bounds_action_11 5055
scooby_predict_action_12 14301
scooby_predict_issue_action_12 14170
scooby_predict_hit_action_12 131
scooby_predict_out_of_bounds_action_12 5385
scooby_predict_action_22 8754
scooby_predict_issue_action_22 8698
scooby_predict_hit_action_22 56
scooby_predict_out_of_bounds_action_22 7550
scooby_predict_action_23 8005
scooby_predict_issue_action_23 7950
scooby_predict_hit_action_23 55
scooby_predict_out_of_bounds_action_23 7709
scooby_predict_action_30 5335
scooby_predict_issue_action_30 5303
scooby_predict_hit_action_30 32
scooby_predict_out_of_bounds_action_30 8770
scooby_predict_action_32 5165
scooby_predict_issue_action_32 5119
scooby_predict_hit_action_32 46
scooby_predict_out_of_bounds_action_32 8944
scooby_predict_action_-1 18175
scooby_predict_issue_action_-1 17613
scooby_predict_hit_action_-1 562
scooby_predict_out_of_bounds_action_-1 37
scooby_predict_action_-3 17999
scooby_predict_issue_action_-3 17427
scooby_predict_hit_action_-3 572
scooby_predict_out_of_bounds_action_-3 136
scooby_predict_action_-6 17706
scooby_predict_issue_action_-6 17071
scooby_predict_hit_action_-6 635
scooby_predict_out_of_bounds_action_-6 407
scooby_predict_action_0 1292946
scooby_predict_issue_action_0 0
scooby_predict_hit_action_0 0
scooby_predict_out_of_bounds_action_0 0
scooby_predict_multi_deg_called 939284
scooby_predict_predicted 6169163
scooby_predict_multi_deg 2859419
scooby_predict_multi_deg_2 916760
scooby_predict_multi_deg_3 616478
scooby_predict_multi_deg_4 600813
scooby_predict_multi_deg_5 367651
scooby_predict_multi_deg_6 357717
scooby_predict_multi_deg_7 0
scooby_predict_multi_deg_8 0
scooby_predict_multi_deg_9 0
scooby_predict_multi_deg_10 0
scooby_predict_multi_deg_11 0
scooby_predict_multi_deg_12 0
scooby_predict_multi_deg_13 0
scooby_predict_multi_deg_14 0
scooby_predict_multi_deg_15 0
scooby_predict_multi_deg_16 0

scooby_selected_deg_1 2370460
scooby_selected_deg_2 291247
scooby_selected_deg_3 0
scooby_selected_deg_4 240061
scooby_selected_deg_5 0
scooby_selected_deg_6 407976
scooby_selected_deg_7 0
scooby_selected_deg_8 0
scooby_selected_deg_9 0
scooby_selected_deg_10 0
scooby_selected_deg_11 0
scooby_selected_deg_12 0
scooby_selected_deg_13 0
scooby_selected_deg_14 0
scooby_selected_deg_15 0
scooby_selected_deg_16 0

scooby_state_55fe0cfa9ee2|0|0 35891,13,11,273,91,61,26,33,31,34,93,22,12,12,17460,54063,
scooby_state_55fe0cfa9ee2|1|0 32261,5,8,184,90,54,31,31,34,15,70,18,16,10,15778,48605,
scooby_state_55fe0cfa9ee2|2|0 30004,9,9,138,73,45,30,23,18,24,59,13,20,13,14766,45244,
scooby_state_55fe0cfa9ee2|3|0 28561,6,12,87,71,45,25,14,22,24,55,11,12,15,14396,43356,
scooby_state_55fe0cfa9ee2|4|0 25397,6,10,63,55,27,25,20,24,18,31,11,19,10,12501,38217,
scooby_state_55fe0cfa9ee2|7|0 23542,11,11,27,51,30,14,7,11,12,22,9,16,12,11776,35551,
scooby_state_55fe0cfa9ee2|6|0 23452,15,10,31,46,26,23,18,16,14,27,11,7,10,11811,35517,
scooby_state_55fe0cfa9ee2|5|0 23089,18,8,51,51,27,17,17,18,19,24,12,8,12,11792,35163,
scooby_state_55fe0cfa9ee2|8|0 22238,11,13,27,41,28,15,19,12,14,12,8,6,14,11061,33519,
scooby_state_55fe0cfa9ee2|9|0 22182,10,14,20,30,17,22,15,7,12,18,7,7,7,10794,33162,
scooby_state_55fe0cfa9ee2|14|0 19777,3,11,9,16,12,13,14,9,13,10,7,6,9,9471,29380,
scooby_state_55fe0cfa9ee2|11|0 19426,3,13,10,30,14,17,13,7,11,14,9,12,11,9278,28868,
scooby_state_55fe0cfa9ee2|10|0 18391,9,8,12,24,16,11,6,7,9,22,8,8,8,9267,27806,
scooby_state_55fe0cfa9ee2|15|0 17731,12,8,8,15,11,15,10,13,12,13,7,10,7,8627,26499,
scooby_state_55fe0cfa9ee2|16|0 17187,11,7,9,16,20,11,4,6,9,13,9,8,9,8294,25613,
scooby_state_55fe0cfa9ee2|13|0 16632,14,12,17,20,13,8,7,8,7,15,4,10,6,8067,24840,
scooby_state_55fe0cfa9ee2|12|0 16195,10,3,12,16,17,11,9,14,8,7,9,8,9,7957,24285,
scooby_state_55fe0cfa9ee2|17|0 15412,9,14,12,8,8,8,4,2,10,5,7,10,10,7355,22874,
scooby_state_55fe0cfa9ee2|19|0 14878,5,6,13,14,6,13,6,9,6,9,10,8,9,7050,22042,
scooby_state_55fe0cfa9ee2|20|0 14342,7,9,6,9,5,11,11,8,11,3,11,9,9,6965,21416,
scooby_state_55fe0cfa9ee2|26|0 13826,5,6,7,9,9,6,2,3,11,8,10,5,7,6274,20188,
scooby_state_55fe0cfa9ee2|25|0 13507,5,9,8,9,8,11,8,6,12,6,11,3,5,6419,20027,
scooby_state_55fe0cfa9ee2|22|0 13585,10,14,8,11,9,7,3,6,7,5,2,6,9,6320,20002,
scooby_state_55fe0cfa9ee2|18|0 13533,7,6,8,15,11,13,8,4,8,13,5,7,7,6323,19968,
scooby_state_55fe0cfa9ee2|21|0 13586,7,12,10,7,8,12,7,7,11,9,5,8,5,6192,19886,
scooby_state_55fe0cfa9ee2|24|0 12740,4,6,13,12,8,6,6,4,8,4,6,10,6,6053,18886,
scooby_state_55fe0cfa9ee2|23|0 12722,10,8,5,13,10,9,4,10,6,7,8,8,9,6005,18834,
scooby_state_55fe0cfa9ee2|28|0 12167,10,4,8,5,7,3,3,6,4,10,7,2,6,5551,17793,
scooby_state_55fe0cfa9ee2|29|0 11647,14,4,12,6,6,7,4,7,7,9,6,5,6,5332,17072,
scooby_state_55fe0cfa9ee2|27|0 11360,8,15,17,8,8,5,8,4,7,7,5,4,7,5185,16648,
scooby_state_55fe0cfa9ee2|34|0 11186,5,6,3,6,3,8,5,3,7,6,9,8,4,5024,16283,
scooby_state_55fe0cfa9ee2|31|0 11084,6,4,10,5,5,4,3,7,4,5,3,6,5,4946,16097,
scooby_state_55fe0cfa9ee2|35|0 11053,3,10,4,6,10,15,2,4,3,5,9,4,2,4927,16057,
scooby_state_55fe0cfa9ee2|32|0 10458,7,4,7,8,6,4,4,2,5,7,5,4,4,4767,15292,
scooby_state_55fe0cfa9ee2|37|0 10436,7,4,4,8,6,9,8,4,2,3,4,2,5,4687,15189,
scooby_state_55fe0cfa9eca|0|0 10101,16,12,4,18,30,33,42,13,16,24,6,16,13,4679,15023,
scooby_state_55fe0cfa9ee2|30|0 10337,6,6,5,4,5,5,6,4,4,6,4,5,7,4612,15016,
scooby_state_55fe0cfa9ee2|36|0 10255,7,5,1,10,8,4,6,4,4,4,5,5,4,4592,14914,
scooby_state_55fe0cfa9ee2|33|0 9850,7,6,5,4,3,6,8,2,5,1,3,3,4,4345,14252,
scooby_state_55fe0cfa9eca|1|0 9263,17,8,5,11,21,21,54,12,8,28,14,12,14,4353,13841,
scooby_state_55fe0cfa9ee2|38|0 9345,5,3,6,6,5,3,5,5,5,10,5,4,9,4170,13586,
scooby_state_55fe0cfa9ee2|39|0 9341,6,5,6,4,2,6,3,6,3,3,1,8,2,4172,13568,
scooby_state_55fe0cfa9eca|2|0 8898,14,6,6,13,23,10,30,18,13,18,7,10,9,4225,13300,
scooby_state_55fe0cfa9ee2|42|0 8933,6,8,6,5,8,6,8,5,3,4,3,5,2,4101,13103,
scooby_state_55fe0cfa9eca|3|0 8614,18,7,6,14,25,12,32,6,10,19,14,15,9,4015,12816,
scooby_state_55fe0cfa9ee2|40|0 8634,5,8,5,5,4,4,6,5,3,5,1,6,4,3876,12571,
scooby_state_55fe0cfa9ee2|44|0 8639,7,8,9,4,1,7,2,4,7,6,4,4,3,3757,12462,
scooby_state_55fe0cfa9ee2|46|0 8444,6,3,6,6,4,7,6,8,5,4,3,3,8,3837,12350,
scooby_state_55fe0cfa9eca|5|0 7937,10,10,1,10,13,15,29,11,9,10,9,6,8,4037,12115,
scooby_state_55fe0cfa9ee2|45|0 8307,8,8,8,6,5,7,4,3,3,2,8,5,1,3738,12113,
scooby_state_55fe0cfa9ee2|43|0 8181,6,5,3,4,5,5,4,4,5,2,3,5,2,3731,11965,
scooby_state_55fe0cfa9eca|4|0 7828,14,8,6,11,15,20,17,11,10,12,12,7,9,3977,11957,
scooby_state_55fe0cfa9ee2|41|0 8327,8,5,3,9,3,4,9,5,2,2,2,1,4,3559,11943,
scooby_state_55fe0cfa9ee2|48|0 8174,2,8,11,2,2,8,4,5,3,3,8,4,6,3498,11738,
scooby_state_55fe0cfa9eca|7|0 7521,10,3,11,3,16,19,27,10,8,16,10,9,9,3777,11449,
scooby_state_55fe0cfa9ee2|61|0 7891,6,7,6,2,4,5,6,5,4,8,5,4,2,3415,11370,
scooby_state_55fe0cfa9eca|6|0 7533,10,8,7,10,7,16,21,6,9,8,3,11,7,3694,11350,
scooby_state_55fe0cfa9ee2|60|0 7790,7,7,7,6,2,6,1,3,2,3,5,2,5,3395,11241,
scooby_state_55fe0cfa9ee2|50|0 7589,8,7,10,10,5,4,7,2,3,3,0,3,6,3325,10982,
scooby_state_55fe0cfa9ee2|51|0 7542,7,8,2,4,4,3,3,2,4,3,2,2,3,3321,10910,
scooby_state_55fe0cfa9eca|8|0 6948,6,9,6,13,8,8,17,12,7,5,7,4,3,3653,10706,
scooby_state_55fe0cfa9ee2|56|0 7403,3,5,7,2,3,3,3,4,2,5,7,4,6,3205,10662,
scooby_state_55fe0cfa9ee2|47|0 7307,2,4,2,4,2,9,3,3,4,3,6,3,4,3235,10591,
scooby_state_55fe0cfa9ee2|49|0 7289,7,6,9,2,3,9,5,4,1,1,4,3,2,3231,10576,
scooby_state_55fe0cfa9eca|10|0 6868,5,7,6,8,13,15,16,5,6,2,5,5,5,3532,10498,
scooby_state_55fe0cfa9eca|9|0 6841,6,8,9,6,16,16,19,5,4,8,13,2,7,3503,10463,
scooby_state_55fe0cfa9ee2|55|0 7148,3,6,3,8,5,6,4,3,3,3,5,4,3,2985,10189,
scooby_state_55fe0cfa9ee2|52|0 6973,6,4,8,3,8,6,7,3,2,4,8,1,3,3143,10179,
scooby_state_55fe0cfa9eca|13|0 6649,8,12,5,9,4,10,14,9,10,5,9,12,6,3395,10157,
scooby_state_55fe0cfa9eca|14|0 6506,8,5,6,4,8,7,6,6,7,9,4,2,5,3395,9978,
scooby_state_55fe0cfa9ee2|53|0 6836,4,7,4,8,6,10,0,4,7,6,4,4,2,3051,9953,
scooby_state_55fe0cfa9eca|12|0 6501,10,4,5,4,16,6,14,5,4,12,11,3,5,3351,9951,
scooby_state_55fe0cfa9eca|11|0 6576,5,8,4,5,11,12,16,8,3,9,3,6,6,3247,9919,
scooby_state_55fe0cfa9ee2|54|0 6676,8,3,5,5,2,3,5,5,1,3,3,6,2,2857,9584,
scooby_state_55fe0cfa9ee2|57|0 6521,2,3,4,3,3,4,3,3,1,2,5,6,2,2803,9365,
scooby_state_55fe0cfa9ee2|62|0 6472,4,3,6,7,5,2,1,4,7,5,2,3,5,2788,9314,
scooby_state_55fe0cfa9ee2|63|0 6424,2,9,3,4,2,3,2,5,5,2,5,4,4,2784,9258,
scooby_state_55fe0cfa9ee2|58|0 6407,3,4,8,4,4,3,5,2,2,1,5,2,5,2749,9204,
scooby_state_55fe0cfa9eca|16|0 5940,8,5,4,6,5,5,7,4,4,2,7,4,5,3149,9155,
scooby_state_55fe0cfa9eca|15|0 5920,11,8,4,6,10,10,8,4,6,8,3,1,8,3037,9044,
scooby_state_55fe0cfa9eca|18|0 5842,10,5,10,4,2,10,8,2,8,4,3,1,3,2940,8852,
scooby_state_55fe0cfa9eca|17|0 5825,4,4,4,5,6,8,9,1,3,4,6,6,13,2949,8847,
scooby_state_55fe0cfa9eca|21|0 5755,3,10,5,5,6,11,8,4,7,6,6,8,4,2942,8780,
scooby_state_55fe0cfa9eca|22|0 5653,7,7,3,3,7,6,7,1,1,4,7,5,4,3034,8749,
scooby_state_55fe0cfa9ee2|59|0 6047,8,2,5,7,2,4,1,2,4,3,6,2,3,2647,8743,
scooby_state_55fe0cfa9eca|19|0 5567,9,6,3,5,5,7,4,11,6,3,3,1,4,2918,8552,
scooby_state_55fe0cfa9eca|20|0 5460,8,6,4,4,3,6,4,6,4,8,4,6,8,2863,8394,
scooby_state_55fe0cfa9eca|23|0 5221,7,7,3,1,6,3,6,4,1,4,1,6,6,2826,8102,
scooby_state_55fe0cfa9eca|26|0 5236,1,5,5,6,5,5,10,5,2,4,4,8,5,2652,7953,
scooby_state_55fe0cfa9eca|24|0 5228,4,6,7,7,1,6,1,1,4,0,1,6,5,2626,7903,
scooby_state_55fe0cfa9eca|27|0 5262,3,8,8,2,6,3,7,8,1,3,6,5,4,2564,7890,
scooby_state_55fe0cfa9eca|25|0 5199,4,5,4,5,8,4,7,5,0,6,4,3,5,2589,7848,
scooby_state_55fe0cfa9eca|28|0 5008,2,7,3,2,10,4,0,4,3,1,5,1,4,2565,7619,
scooby_state_55fe0cfa9eca|33|0 4981,6,4,8,6,6,4,3,3,4,3,6,3,2,2433,7472,
scooby_state_55fe0cfa9eca|29|0 4806,7,7,4,7,3,3,4,3,5,3,2,3,7,2540,7404,
scooby_state_55fe0cfa9eca|31|0 4919,5,8,5,6,3,2,3,6,7,5,2,8,3,2403,7385,
scooby_state_55fe0cfa9eca|30|0 4885,3,6,1,6,5,3,5,2,2,1,3,4,6,2412,7344,
scooby_state_55fe0cfa9eca|32|0 4681,3,6,6,1,3,2,2,8,3,2,7,6,2,2419,7151,
scooby_state_55fe0cfa9eca|34|0 4665,7,3,6,3,6,5,4,4,3,5,1,3,2,2400,7117,
scooby_state_55fe0cfa9eca|37|0 4894,2,8,7,5,4,3,0,1,3,1,3,1,1,2177,7110,
scooby_state_55fe0cfa9eca|38|0 4639,3,6,6,5,3,5,3,6,1,3,7,4,2,2227,6920,
scooby_state_55fe0cfa9eca|39|0 4646,1,7,2,4,2,2,1,2,4,1,6,6,1,2228,6913,
scooby_state_55fe0cfa9eca|36|0 4528,3,6,3,4,2,1,7,3,1,3,3,2,3,2316,6885,
scooby_state_55fe0cfa9eca|41|0 4617,3,1,3,2,2,5,3,4,2,1,2,4,1,2220,6870,
scooby_state_55fe0cfa9eca|35|0 4532,3,3,5,4,8,3,5,4,6,3,2,8,6,2268,6860,
scooby_state_55fe0cfa9eca|40|0 4754,3,4,3,3,3,3,2,6,3,0,5,2,3,1864,6658,
scooby_state_55fe0cfa9eca|44|0 4325,2,5,4,2,2,9,3,3,2,3,5,3,1,2219,6588,
scooby_state_55fe0cfa9eca|43|0 4347,3,5,6,3,4,3,2,3,1,2,1,2,4,2154,6540,
scooby_state_55fe0cfa9eca|46|0 4173,7,8,5,3,3,6,3,5,0,0,3,2,3,2088,6309,
scooby_state_55fe0cfa9eca|48|0 4175,3,5,3,5,4,2,4,3,5,2,2,4,4,2049,6270,
scooby_state_55fe0cfa9eca|42|0 4083,8,2,6,7,4,5,5,6,0,4,3,3,3,2119,6258,
scooby_state_55fe0cfa9eca|45|0 4087,3,3,4,4,4,6,2,5,4,5,5,2,5,2100,6239,
scooby_state_55fe0cfa9eca|49|0 4165,6,4,8,2,8,1,2,2,3,5,7,2,2,2011,6228,
scooby_state_55fe0cfa9eca|47|0 4024,2,2,3,2,3,3,1,3,7,0,0,5,0,2052,6107,
scooby_state_55fe0cfa9eca|54|0 4021,3,9,3,3,4,3,1,4,2,1,9,1,1,1970,6035,
scooby_state_55fe0cfa9eca|51|0 3880,0,7,5,7,5,4,2,2,2,3,3,4,3,1984,5911,
scooby_state_55fe0cfa9eca|52|0 3929,4,2,3,1,1,0,2,3,1,4,5,2,2,1885,5844,
scooby_state_55fe0cfa9eca|55|0 3840,2,5,4,6,4,4,1,2,2,0,5,1,2,1939,5817,
scooby_state_55fe0cfa9eca|50|0 3802,2,9,4,7,2,3,2,0,1,2,4,5,3,1970,5816,
scooby_state_55fe0cfa9eca|53|0 3823,4,8,5,7,2,2,6,2,1,3,6,3,3,1928,5803,
scooby_state_55fe0cfa9eca|56|0 3865,5,3,6,6,0,4,2,2,1,2,2,4,2,1853,5757,
scooby_state_55fe0cfa9eca|58|0 3794,7,3,9,4,1,2,2,0,4,4,3,0,2,1918,5753,
scooby_state_55fe0cfa9eca|60|0 3761,4,2,1,1,3,5,4,0,0,6,3,3,4,1903,5700,
scooby_state_55fe0cfa9ee2|29|1 4082,19,24,22,20,14,16,14,5,6,9,3,8,4,1408,5654,
scooby_state_55fe0cfa9eca|57|0 3736,2,3,6,6,2,4,4,3,2,3,7,4,0,1862,5644,
scooby_state_55fe0cfa9eca|63|0 3698,1,4,4,7,2,1,3,4,1,2,5,3,2,1840,5577,
scooby_state_55fe0cfa9ee2|61|1 3906,21,39,46,28,12,27,8,4,6,4,8,7,4,1363,5483,
scooby_state_55fe0cfa9eca|59|0 3615,5,7,4,8,4,0,5,2,5,1,7,5,6,1797,5471,
scooby_state_55fe0cfa9eca|61|0 3540,8,7,2,2,4,5,3,1,1,2,3,2,5,1877,5462,
scooby_state_55fe0cfa9ee2|62|1 3857,15,40,22,17,12,23,8,7,9,4,8,6,2,1406,5436,
scooby_state_55fe0cfa9ee2|35|1 3876,18,39,26,19,18,18,11,6,5,8,6,15,5,1335,5405,
scooby_state_55fe0cfa9eca|62|0 3590,4,4,5,5,4,0,2,2,0,2,5,4,8,1727,5362,
scooby_state_55fe0cfa9ee2|23|1 3776,19,38,23,20,12,24,13,7,7,7,6,10,4,1387,5353,
scooby_state_55fe0cfa9ee2|9|1 3753,29,23,23,27,12,18,6,9,9,8,12,6,6,1320,5261,
scooby_state_55fe0cfa9ee2|25|1 3728,35,31,41,25,10,16,4,12,5,3,9,5,4,1330,5258,
scooby_state_55fe0cfa9ee2|37|1 3762,18,39,30,18,6,14,6,8,8,3,3,5,4,1286,5210,
scooby_state_55fe0cfa9ee2|17|1 3708,24,38,30,23,13,22,9,12,6,2,4,9,6,1231,5137,
scooby_state_55fe0cfa9ee2|33|1 3758,24,28,36,22,12,26,8,10,5,8,7,7,6,1162,5119,
scooby_state_55fe0cfa9ee2|16|1 3734,19,31,30,23,11,21,10,9,4,6,8,6,3,1204,5119,
scooby_state_55fe0cfa9ee2|46|1 3629,25,38,34,28,16,16,5,12,7,8,2,5,9,1244,5078,
scooby_state_55fe0cfa9ee2|45|1 3606,14,34,23,17,23,18,6,13,3,3,7,5,3,1302,5077,
scooby_state_55fe0cfa9ee2|15|1 3687,20,22,40,19,13,12,4,8,5,10,4,7,8,1202,5061,
scooby_state_55fe0cfa9ee2|36|1 3675,21,34,24,24,15,17,7,4,6,3,9,7,3,1206,5055,
scooby_state_55fe0cfa9ee2|38|1 3674,14,35,30,16,13,27,9,5,5,4,2,3,10,1197,5044,
scooby_state_55fe0cfa9ee2|34|1 3672,15,39,29,16,14,16,3,3,6,4,7,4,3,1186,5017,
scooby_state_55fe0cfa9ee2|53|1 3562,21,40,35,19,14,22,7,3,2,9,9,4,7,1253,5007,
scooby_state_55fe0cfa9ee2|26|1 3677,17,31,31,20,13,11,13,4,7,7,8,4,6,1155,5004,
scooby_state_55fe0cfa9ee2|51|1 3590,25,25,34,21,16,22,2,7,11,4,4,5,4,1217,4987,
scooby_state_55fe0cfa9ee2|14|1 3552,16,29,34,21,10,18,8,8,11,1,5,2,9,1256,4980,
scooby_state_55fe0cfa9ee2|43|1 3526,20,34,36,21,18,14,8,7,2,5,3,6,5,1250,4955,
scooby_state_55fe0cfa9ee2|39|1 3577,25,40,33,16,9,15,1,3,10,4,6,8,8,1184,4939,
scooby_state_55fe0cfa9ee2|32|1 3576,16,27,32,26,11,21,6,6,6,6,6,5,5,1163,4912,
scooby_state_55fe0cfa9ee2|52|1 3480,26,39,24,21,12,23,6,4,1,9,7,8,7,1236,4903,
scooby_state_55fe0cfa9ee2|60|1 3439,22,35,34,26,9,19,8,3,5,5,7,7,9,1272,4900,
scooby_state_55fe0cfa9ee2|28|1 3539,28,27,35,20,11,19,12,8,4,9,5,6,5,1155,4883,
scooby_state_55fe0cfa9ee2|49|1 3474,17,28,33,25,14,23,9,5,5,6,10,9,8,1211,4877,
scooby_state_55fe0cfa9ee2|55|1 3473,25,23,29,20,11,16,6,7,8,6,5,5,11,1225,4870,
scooby_state_55fe0cfa9ee2|31|1 3570,15,27,35,24,11,18,10,5,12,4,7,5,4,1122,4869,
scooby_state_55fe0cfa9ee2|44|1 3447,20,35,24,17,13,11,10,6,6,3,3,6,3,1242,4846,
scooby_state_55fe0cfa9ee2|10|1 3406,29,26,30,18,10,9,11,10,6,9,6,10,4,1243,4827,
scooby_state_55fe0cfa9ee2|57|1 3403,11,35,35,20,14,25,9,3,5,3,4,7,9,1221,4804,
scooby_state_55fe0cfa9ee2|63|1 3440,17,28,28,11,12,18,12,11,4,6,5,4,6,1190,4792,
scooby_state_55fe0cfa9ee2|18|1 3444,21,33,32,19,11,24,9,3,7,7,3,6,4,1166,4789,
scooby_state_55fe0cfa9ee2|56|1 3433,19,35,32,27,8,21,4,3,4,3,5,3,5,1172,4774,
scooby_state_55fe0cfa9ee2|21|1 3366,18,23,29,16,8,15,4,8,4,4,3,14,7,1228,4747,
scooby_state_55fe0cfa9ee2|4|1 3511,18,26,25,21,10,16,7,3,7,4,5,6,8,1073,4740,
scooby_state_55fe0cfa9ee2|24|1 3375,31,35,37,16,11,26,8,11,4,7,6,6,8,1151,4732,
scooby_state_55fe0cfa9ee2|47|1 3423,12,36,23,24,15,15,3,8,8,5,9,4,4,1137,4726,
scooby_state_55fe0cfa9ee2|40|1 3390,24,36,33,23,9,18,6,6,5,7,5,7,7,1120,4696,
scooby_state_55fe0cfa9ee2|20|1 3319,12,22,28,17,9,15,7,6,5,6,12,5,4,1195,4662,
scooby_state_55fe0cfa9ee2|22|1 3373,15,30,38,18,10,19,7,8,5,6,5,6,6,1102,4648,
scooby_state_55fe0cfa9ee2|27|1 3407,23,26,31,20,14,17,9,2,7,2,3,3,4,1051,4619,
scooby_state_55fe0cfa9ee2|42|1 3309,13,37,36,27,9,21,4,5,8,4,5,6,2,1118,4604,
scooby_state_55fe0cfa9ee2|54|1 3290,27,26,29,13,13,16,6,7,6,6,3,4,5,1139,4590,
scooby_state_55fe0cfa9ee2|48|1 3314,13,37,29,20,9,13,9,5,5,3,6,6,8,1109,4586,
scooby_state_55fe0cfa9ee2|7|1 3316,26,28,28,9,3,14,1,6,6,4,3,5,9,1080,4538,
scooby_state_55fe0cfa9ee2|19|1 3313,15,28,26,15,9,14,6,7,4,7,4,5,3,1074,4530,
scooby_state_55fe0cfa9ee2|58|1 3259,17,39,19,17,15,17,10,8,3,4,8,9,7,1090,4522,
scooby_state_55fe0cfa9ee2|30|1 3300,23,28,22,15,11,23,8,2,7,7,4,3,3,1051,4507,
scooby_state_55fe0cfa9ee2|2|1 3314,17,26,33,19,21,17,3,4,4,5,3,3,2,1016,4487,
scooby_state_55fe0cfa9ee2|8|1 3285,20,26,23,14,12,11,3,6,6,4,4,5,7,1060,4486,
scooby_state_55fe0cfa9ee2|1|1 3306,15,21,28,28,17,28,8,7,5,4,4,5,6,996,4478,
scooby_state_55fe0cfa9ee2|12|1 3243,17,19,24,14,12,19,6,7,3,2,6,5,6,1050,4433,
scooby_state_55fe0cfa9ee2|41|1 3252,11,37,38,17,8,19,8,5,5,2,3,6,1,1007,4419,
scooby_state_55fe0cfa9ee2|3|1 3248,11,24,27,15,10,17,8,6,10,5,4,1,3,988,4377,
scooby_state_55fe0cfa9ee2|50|1 3177,26,27,34,15,9,24,5,9,6,4,5,6,2,1019,4368,
scooby_state_55fe0cfa9ee2|13|1 3143,18,18,28,17,9,20,5,6,8,6,6,7,7,1019,4317,
scooby_state_55fe0cfa9ee2|11|1 3137,21,20,18,15,8,9,6,11,4,3,2,4,2,1034,4294,
scooby_state_55fe0cfa9ee2|28|2 2946,9,29,39,16,15,15,8,10,10,4,6,6,4,1174,4291,
scooby_state_55fe0cfa9ee2|59|1 3048,24,36,31,14,6,18,8,5,11,4,6,5,4,1058,4278,
scooby_state_55fe0cfa9ee2|5|1 3159,13,31,22,14,13,16,2,7,3,2,6,6,6,943,4243,
scooby_state_55fe0cfa9ee2|6|1 3085,14,26,19,8,4,13,3,1,6,6,4,6,6,982,4183,
scooby_state_55fe0cfa9ee2|60|2 2747,22,27,49,18,21,19,8,7,5,8,6,3,7,1210,4157,
scooby_state_55fe0cfa9ee2|62|2 2710,13,21,37,10,9,14,3,14,2,9,10,3,7,1256,4118,
scooby_state_55fe0cfa9ee2|16|2 2790,20,25,34,27,6,15,4,10,8,8,6,6,4,1155,4118,
scooby_state_55fe0cfa9ee2|17|2 2779,16,15,23,17,10,17,6,10,8,7,9,11,3,1142,4073,
scooby_state_55fe0cfa9ee2|26|2 2754,14,19,30,17,14,10,7,7,6,6,10,2,5,1164,4065,
scooby_state_55fe0cfa9ee2|37|2 2810,18,16,33,14,13,15,12,14,6,2,10,9,6,1083,4061,
scooby_state_55fe0cfa9ee2|46|2 2677,21,16,26,13,19,14,9,6,6,3,7,6,2,1186,4011,
scooby_state_55fe0cfa9ee2|56|2 2706,23,35,41,16,11,11,7,6,9,3,10,3,4,1124,4009,
scooby_state_55fe0cfa9ee2|25|2 2712,15,22,22,13,7,13,5,2,7,2,13,4,5,1157,3999,
scooby_state_55fe0cfa9ee2|8|2 2715,11,24,28,15,15,11,8,14,10,5,6,6,5,1116,3989,
scooby_state_55fe0cfa9ee2|39|2 2673,11,25,26,16,10,12,8,12,10,9,11,11,3,1111,3948,
scooby_state_55fe0cfa9ee2|11|2 2685,14,29,36,18,12,13,6,7,5,5,8,6,9,1068,3921,
scooby_state_55fe0cfa9ee2|9|2 2694,20,19,28,19,14,14,8,9,6,4,7,7,6,1062,3917,
scooby_state_55fe0cfa9ee2|52|2 2651,12,27,33,15,9,23,7,8,7,7,2,6,9,1098,3914,
scooby_state_55fe0cfa9ee2|32|2 2688,13,30,32,12,7,7,6,8,4,7,11,10,8,1036,3879,
scooby_state_55fe0cfa9ee2|34|2 2643,19,32,23,11,9,14,9,7,3,4,8,6,9,1080,3877,
scooby_state_55fe0cfa9ee2|63|2 2601,10,18,24,16,12,15,8,6,4,2,3,8,10,1137,3874,
scooby_state_55fe0cfa9ee2|38|2 2656,15,25,27,23,13,14,11,7,4,7,8,7,6,1039,3862,
scooby_state_55fe0cfa9ee2|45|2 2592,10,24,29,16,6,18,5,10,6,4,9,9,4,1113,3855,
scooby_state_55fe0cfa9ee2|53|2 2623,11,22,27,15,8,12,3,6,9,3,9,13,8,1084,3853,
scooby_state_55fe0cfa9ee2|48|2 2569,11,24,26,11,18,17,8,11,2,5,7,6,4,1123,3842,
scooby_state_55fe0cfa9ee2|19|2 2613,10,25,36,22,23,13,6,12,3,10,9,6,4,1034,3826,
scooby_state_55fe0cfa9ee2|35|2 2708,12,32,27,21,24,12,3,10,3,4,9,3,4,954,3826,
scooby_state_55fe0cfa9ee2|44|2 2610,17,26,30,12,10,13,5,7,3,6,2,7,2,1040,3790,
scooby_state_55fe0cfa9ee2|22|2 2501,20,30,28,16,14,20,6,5,8,6,7,5,5,1102,3773,
scooby_state_55fe0cfa9ee2|3|2 2641,11,24,23,7,11,14,3,7,3,4,3,3,3,1003,3760,
scooby_state_55fe0cfa9ee2|55|2 2521,11,19,25,11,7,15,12,8,8,4,4,8,7,1065,3725,
scooby_state_55fe0cfa9ee2|31|2 2564,13,22,24,14,11,17,4,8,7,5,4,5,5,1013,3716,
scooby_state_55fe0cfa9ee2|58|2 2424,18,25,35,16,10,11,7,10,8,8,10,4,4,1100,3690,
scooby_state_55fe0cfa9ee2|50|2 2501,15,20,27,12,7,14,9,9,5,5,9,6,3,1022,3664,
scooby_state_55fe0cfa9ed6|0|0 3656,1,1,0,0,0,0,0,1,1,2,0,0,1,0,3663,
scooby_state_55fe0cfa9ee2|54|2 2483,15,21,28,15,10,11,8,11,6,4,9,5,5,1029,3660,
scooby_state_55fe0cfa9ee2|41|2 2488,12,18,27,11,11,15,10,9,8,3,9,5,9,1013,3648,
scooby_state_55fe0cfa9ee2|36|2 2538,12,29,22,18,12,10,5,8,8,6,5,3,4,965,3645,
scooby_state_55fe0cfa9ee2|42|2 2469,22,34,26,11,8,14,6,4,5,3,5,6,2,1011,3626,
scooby_state_55fe0cfa9ed6|52|1 3612,0,0,0,0,0,1,0,0,0,2,1,0,1,0,3617,
scooby_state_55fe0cfa9ee2|47|2 2415,13,27,21,13,11,15,8,7,6,6,7,4,9,1055,3617,
scooby_state_55fe0cfa9ee2|43|2 2478,16,21,32,13,11,13,4,9,10,6,4,5,6,988,3616,
scooby_state_55fe0cfa9ed6|54|1 3601,0,1,1,1,2,0,0,0,0,0,1,1,0,1,3609,
scooby_state_55fe0cfa9ed6|53|1 3600,0,0,2,0,0,0,0,1,0,1,0,1,1,2,3608,
scooby_state_55fe0cfa9ed6|57|1 3599,1,1,0,2,1,0,0,0,0,0,0,3,0,0,3607,
scooby_state_55fe0cfa9ed6|56|1 3598,0,1,2,0,1,0,0,0,0,0,0,0,0,4,3606,
scooby_state_55fe0cfa9ed6|1|1 3599,0,1,0,0,1,0,0,1,0,0,1,0,0,1,3604,
scooby_state_55fe0cfa9ed6|39|1 3597,2,0,0,1,0,0,0,1,0,0,0,0,1,0,3602,
scooby_state_55fe0cfa9ed6|38|1 3589,0,0,1,0,0,3,1,1,1,1,0,2,0,1,3600,
scooby_state_55fe0cfa9ed6|41|1 3593,0,0,0,0,1,0,2,0,0,1,0,0,1,0,3598,
scooby_state_55fe0cfa9ed6|63|1 3589,1,0,0,1,0,1,1,0,0,1,0,0,2,0,3596,
scooby_state_55fe0cfa9ed6|14|1 3591,0,0,0,0,0,0,1,1,0,0,0,1,1,0,3595,
scooby_state_55fe0cfa9ed6|51|1 3585,0,0,0,0,1,0,1,3,0,1,1,0,0,1,3593,
scooby_state_55fe0cfa9ed6|55|1 3588,0,0,1,1,0,0,1,0,0,1,1,0,0,0,3593,
scooby_state_55fe0cfa9ed6|42|1 3588,0,0,1,0,0,0,0,1,1,0,1,1,0,0,3593,
scooby_state_55fe0cfa9ed6|40|1 3586,0,1,0,0,1,0,1,0,1,0,2,0,0,0,3592,
scooby_state_55fe0cfa9ed6|7|1 3582,0,1,1,0,0,0,2,0,2,0,1,0,2,0,3591,
scooby_state_55fe0cfa9ed6|32|1 3586,1,0,1,0,1,0,0,0,0,0,1,0,1,0,3591,
scooby_state_55fe0cfa9ed6|61|1 3586,0,0,0,1,0,0,0,0,1,0,1,1,0,0,3590,
scooby_state_55fe0cfa9ee2|29|2 2485,15,14,19,12,15,14,4,5,6,3,4,3,4,986,3589,
scooby_state_55fe0cfa9ed6|48|1 3582,1,0,0,1,0,2,0,0,0,1,0,1,0,0,3588,
scooby_state_55fe0cfa9ed6|37|1 3585,0,1,0,0,1,0,0,1,0,0,0,0,0,0,3588,
scooby_state_55fe0cfa9ed6|13|1 3582,0,0,0,1,0,3,1,1,0,0,0,0,0,0,3588,
scooby_state_55fe0cfa9ed6|30|1 3578,0,1,2,2,0,0,0,0,0,0,1,1,0,2,3587,
scooby_state_55fe0cfa9ee2|61|2 2427,11,19,23,11,7,13,4,6,8,4,5,10,8,1030,3586,
scooby_state_55fe0cfa9ed6|8|1 3585,0,0,0,0,0,1,0,0,0,0,0,0,0,0,3586,
scooby_state_55fe0cfa9ed6|43|1 3581,0,0,1,0,1,1,0,1,0,0,1,0,0,0,3586,
scooby_state_55fe0cfa9ed6|31|1 3581,1,0,2,0,0,1,0,0,0,0,0,0,0,0,3585,
scooby_state_55fe0cfa9ed6|34|1 3582,0,0,0,0,1,0,0,0,0,0,0,0,0,2,3585,
scooby_state_55fe0cfa9ed6|35|1 3577,1,1,0,0,0,1,1,2,0,1,0,0,0,0,3584,
scooby_state_55fe0cfa9ed6|12|1 3580,1,0,0,0,1,0,1,0,0,0,0,0,0,1,3584,
scooby_state_55fe0cfa9ed6|36|1 3577,1,0,0,0,0,0,0,2,1,2,0,0,0,0,3583,
scooby_state_55fe0cfa9ed6|58|1 3580,0,0,2,0,0,0,0,0,1,0,0,0,0,0,3583,
scooby_state_55fe0cfa9ed6|50|1 3579,1,1,0,0,1,0,0,0,0,0,0,0,0,0,3582,
scooby_state_55fe0cfa9ed6|44|1 3576,0,0,0,2,0,1,0,0,0,0,0,1,2,0,3582,
scooby_state_55fe0cfa9ed6|47|1 3574,0,0,0,2,0,0,0,2,1,0,1,0,0,1,3581,
scooby_state_55fe0cfa9ed6|2|1 3574,0,0,0,0,0,0,1,0,1,1,0,1,1,1,3580,
scooby_state_55fe0cfa9ed6|49|1 3569,2,1,1,0,1,1,0,1,1,1,1,0,1,0,3580,
scooby_state_55fe0cfa9ed6|46|1 3576,0,0,0,0,0,1,0,0,0,1,0,1,0,0,3579,
scooby_state_55fe0cfa9ed6|9|1 3574,0,0,0,1,0,0,0,2,0,0,0,1,0,0,3578,
scooby_state_55fe0cfa9ed6|6|1 3574,0,1,0,0,0,0,0,0,0,1,0,1,0,1,3578,
scooby_state_55fe0cfa9ee2|30|2 2464,12,24,36,22,8,10,11,5,7,7,11,6,10,945,3578,
scooby_state_55fe0cfa9ed6|29|1 3572,0,0,0,0,0,1,0,1,0,0,2,1,0,0,3577,
scooby_state_55fe0cfa9ed6|60|1 3572,0,1,0,2,0,0,1,0,0,0,1,0,0,0,3577,
scooby_state_55fe0cfa9ed6|33|1 3574,0,0,0,0,1,0,0,0,2,0,0,0,0,0,3577,
scooby_state_55fe0cfa9ed6|26|1 3572,0,0,0,2,0,0,0,2,1,0,0,0,0,0,3577,
scooby_state_55fe0cfa9ed6|59|1 3574,0,0,1,0,1,0,0,0,0,0,0,0,0,0,3576,
scooby_state_55fe0cfa9ed6|62|1 3570,0,0,0,0,2,0,1,0,0,1,1,0,0,0,3575,
scooby_state_55fe0cfa9ed6|10|1 3568,0,2,0,1,0,0,0,0,1,0,1,2,0,0,3575,
scooby_state_55fe0cfa9ed6|15|1 3571,0,0,0,0,0,0,0,0,1,1,1,0,0,1,3575,
scooby_state_55fe0cfa9ed6|28|1 3567,1,0,0,0,0,0,1,3,0,0,1,0,0,1,3574,
scooby_state_55fe0cfa9ed6|22|1 3567,0,0,0,2,0,1,0,0,1,1,1,0,0,0,3573,
scooby_state_55fe0cfa9ed6|3|1 3566,0,1,0,0,1,0,0,1,0,0,1,1,2,0,3573,
scooby_state_55fe0cfa9ed6|18|1 3567,0,0,0,0,0,0,0,0,0,1,2,0,0,1,3571,
scooby_state_55fe0cfa9ed6|23|1 3566,0,0,0,0,0,0,1,0,0,1,0,0,0,2,3570,
scooby_state_55fe0cfa9ed6|25|1 3562,1,0,0,0,0,0,0,1,0,1,1,0,2,2,3570,
scooby_state_55fe0cfa9ed6|17|1 3564,0,0,2,0,1,1,0,0,0,0,0,1,0,0,3569,
scooby_state_55fe0cfa9ed6|24|1 3562,0,1,1,0,1,0,0,0,1,0,0,3,0,0,3569,
scooby_state_55fe0cfa9ed6|11|1 3564,2,0,0,1,0,0,0,0,1,0,0,0,0,0,3568,
scooby_state_55fe0cfa9ed6|4|1 3560,1,0,0,0,0,0,0,0,1,1,0,2,2,0,3567,
scooby_state_55fe0cfa9ed6|27|1 3560,0,1,0,0,1,0,0,0,1,1,0,0,0,1,3565,
scooby_state_55fe0cfa9ed6|19|1 3558,0,0,1,0,1,1,0,0,0,1,2,1,0,0,3565,
scooby_state_55fe0cfa9ed6|45|1 3558,0,1,1,0,0,0,1,0,1,1,0,0,0,1,3564,
scooby_state_55fe0cfa9ed6|21|1 3555,0,1,0,0,1,0,1,2,1,0,1,1,0,1,3564,
scooby_state_55fe0cfa9ed6|5|1 3558,0,1,0,0,0,0,1,0,1,0,0,1,1,0,3563,
scooby_state_55fe0cfa9ed6|16|1 3556,1,0,0,0,0,1,1,0,0,1,0,2,0,0,3562,
scooby_state_55fe0cfa9ee2|33|2 2439,13,27,27,12,14,17,11,7,2,8,5,6,4,969,3561,
scooby_state_55fe0cfa9ed6|20|1 3558,0,1,0,0,0,0,0,0,1,0,0,1,0,0,3561,
scooby_state_55fe0cfa9ee2|57|2 2400,15,27,34,14,7,12,9,7,7,2,2,7,7,1008,3558,
scooby_state_55fe0cfa9ee2|27|2 2495,11,20,33,13,12,8,5,9,8,5,11,6,7,912,3555,
scooby_state_55fe0cfa9ee2|15|2 2484,15,23,16,14,14,11,5,15,3,4,3,2,7,927,3543,
scooby_state_55fe0cfa9ee2|51|2 2443,9,23,26,16,9,16,7,5,9,4,10,10,3,945,3535,
scooby_state_55fe0cfa9ee2|13|2 2426,13,23,38,10,3,14,4,7,0,3,7,5,9,943,3505,
scooby_state_55fe0cfa9ee2|24|2 2352,14,23,29,19,14,19,3,12,7,4,8,4,8,988,3504,
scooby_state_55fe0cfa9ee2|23|2 2294,12,11,40,12,11,8,10,6,6,6,7,4,10,1056,3493,
scooby_state_55fe0cfa9ee2|10|2 2318,11,10,19,15,13,11,5,5,2,5,10,2,6,1039,3471,
scooby_state_55fe0cfa9ee2|14|3 2303,11,34,14,6,6,5,4,5,8,7,4,2,4,1058,3471,
scooby_state_55fe0cfa9ee2|21|2 2362,13,23,29,12,7,16,10,5,9,4,7,10,4,939,3450,
scooby_state_55fe0cfa9ee2|59|2 2299,10,29,18,13,6,12,4,10,7,4,6,3,4,1012,3437,
scooby_state_55fe0cfa9ee2|4|2 2380,18,18,30,15,6,12,8,8,2,5,8,5,4,902,3421,
scooby_state_55fe0cfa9ee2|40|2 2382,8,24,28,15,5,20,4,6,5,1,9,8,5,900,3420,
scooby_state_55fe0cfa9ee2|2|2 2368,13,20,24,14,13,19,7,6,5,4,7,1,3,911,3415,
scooby_state_55fe0cfa9ee2|28|3 2247,11,36,18,4,14,7,9,4,7,2,3,4,5,1035,3406,
scooby_state_55fe0cfa9ee2|38|3 2227,19,37,11,12,11,8,7,8,9,3,7,7,3,1032,3401,
scooby_state_55fe0cfa9ee2|7|2 2354,16,16,26,15,12,18,7,6,6,5,5,4,7,891,3388,
scooby_state_55fe0cfa9ee2|18|2 2287,11,26,24,18,6,12,6,8,3,7,5,4,3,954,3374,
scooby_state_55fe0cfa9ee2|6|2 2348,12,29,23,9,11,11,5,5,8,4,4,6,4,892,3371,
scooby_state_55fe0cfa9ee2|35|3 2217,19,30,11,6,13,8,2,10,5,3,3,5,6,1026,3364,
scooby_state_55fe0cfa9ee2|14|2 2303,14,17,30,11,8,5,5,9,4,6,9,8,4,909,3342,
scooby_state_55fe0cfa9ee2|22|3 2129,19,31,22,6,13,6,6,7,5,7,6,7,3,1060,3327,
scooby_state_55fe0cfa9ee2|5|2 2290,19,19,18,10,13,15,5,7,6,1,5,5,6,880,3299,
scooby_state_55fe0cfa9ee2|17|3 2121,11,28,15,8,15,7,4,8,5,5,4,9,6,1051,3297,
scooby_state_55fe0cfa9ee2|49|2 2211,14,18,21,15,7,14,4,9,6,9,8,11,4,901,3252,
scooby_state_55fe0cfa9ee2|3|3 2170,15,32,13,8,6,7,6,3,1,8,4,5,7,942,3227,
scooby_state_55fe0cfa9ee2|55|3 2133,15,42,11,8,10,2,8,4,7,3,12,4,4,960,3223,
scooby_state_55fe0cfa9ee2|31|3 2097,20,32,13,8,10,3,8,2,9,5,7,6,7,995,3222,
scooby_state_55fe0cfa9ee2|39|3 2144,10,30,11,8,9,2,3,5,6,2,5,3,2,967,3207,
scooby_state_55fe0cfa9ee2|37|3 2147,11,36,9,13,8,4,8,4,5,4,5,6,6,933,3199,
scooby_state_55fe0cfa9ee2|53|3 2028,20,41,5,7,8,6,4,2,2,3,5,5,5,1045,3186,
scooby_state_55fe0cfa9ee2|60|3 2043,12,32,12,11,15,7,8,7,7,5,4,8,5,1007,3183,
scooby_state_55fe0cfa9ee2|6|3 2100,14,37,12,5,14,5,6,10,2,3,9,4,7,944,3172,
scooby_state_55fe0cfa9ee2|54|3 2001,15,36,15,9,10,3,5,9,5,4,6,7,8,997,3130,
scooby_state_55fe0cfa9ee2|32|3 2053,19,32,9,7,11,9,8,7,8,5,1,4,4,946,3123,
scooby_state_55fe0cfa9ee2|49|3 2045,13,40,8,9,13,8,6,6,4,5,4,4,7,938,3110,
scooby_state_55fe0cfa9ee2|15|3 2045,19,25,8,9,14,8,7,6,3,3,4,7,6,942,3106,
scooby_state_55fe0cfa9ee2|12|2 2099,15,10,13,9,12,13,4,1,2,12,8,5,7,891,3101,
scooby_state_55fe0cfa9ee2|25|3 2002,13,34,15,5,10,4,3,5,6,1,4,11,6,972,3091,
scooby_state_55fe0cfa9ee2|58|3 1989,10,33,10,2,9,5,8,4,8,3,7,3,6,985,3082,
scooby_state_55fe0cfa9ee2|45|3 1980,15,42,6,8,13,11,8,3,5,9,2,3,3,962,3070,
scooby_state_55fe0cfa9ee2|20|2 2071,6,28,17,15,10,19,6,7,4,3,4,4,4,860,3058,
scooby_state_55fe0cfa9ee2|48|3 2013,11,38,20,5,4,1,3,8,6,3,7,5,4,914,3042,
scooby_state_55fe0cfa9ee2|34|3 2039,8,34,8,12,11,1,5,4,6,2,4,2,7,890,3033,
scooby_state_55fe0cfa9ee2|50|3 1989,15,39,13,3,9,7,7,5,4,5,3,5,8,920,3032,
scooby_state_55fe0cfa9ee2|51|3 1942,16,40,14,9,11,6,6,2,8,4,5,5,7,952,3027,
scooby_state_55fe0cfa9ee2|61|3 1943,14,32,8,5,12,8,8,7,5,4,5,5,4,951,3011,
scooby_state_55fe0cfa9ee2|52|3 1945,9,26,13,7,11,7,7,5,6,4,7,3,7,939,2996,
scooby_state_55fe0cfa9ee2|42|3 1967,18,33,6,9,5,7,4,6,6,5,3,2,10,910,2991,
scooby_state_55fe0cfa9ee2|62|3 1937,25,28,10,8,8,11,6,4,5,8,5,4,4,919,2982,
scooby_state_55fe0cfa9ee2|47|3 1947,13,35,21,3,11,7,5,6,5,4,8,4,1,908,2978,
scooby_state_55fe0cfa9ee2|29|3 2024,15,30,13,6,9,10,8,7,2,8,3,5,6,830,2976,
scooby_state_55fe0cfa9ee2|41|3 1964,15,31,11,7,8,6,4,5,3,5,4,0,12,898,2973,
scooby_state_55fe0cfa9ee2|16|3 1946,9,35,8,8,4,6,3,5,9,9,8,2,3,913,2968,
scooby_state_55fe0cfa9ee2|36|3 1973,13,37,14,12,8,6,9,4,5,4,10,7,5,852,2959,
scooby_state_55fe0cfa9ee2|20|3 1958,12,34,18,8,14,4,3,8,6,4,4,4,4,877,2958,
scooby_state_55fe0cfa9ee2|43|3 1976,12,28,10,4,9,5,4,4,8,2,6,7,5,865,2945,
scooby_state_55fe0cfa9ee2|56|3 1865,15,39,11,6,10,6,6,6,5,7,5,10,2,948,2941,
scooby_state_55fe0cfa9ee2|40|3 1965,10,31,9,6,10,5,8,5,6,3,4,4,4,866,2936,
scooby_state_55fe0cfa9ee2|63|3 1928,13,25,7,11,8,9,7,5,4,3,5,8,4,896,2933,
scooby_state_55fe0cfa9ee2|35|4 1864,10,45,11,9,6,14,7,9,7,6,7,7,9,920,2931,
scooby_state_55fe0cfa9ee2|26|3 1962,13,31,10,5,7,6,11,4,7,4,4,5,5,851,2925,
scooby_state_55fe0cfa9ee2|9|3 1862,21,43,11,9,10,5,7,8,4,5,4,9,2,913,2913,
scooby_state_55fe0cfa9ee2|46|3 1880,13,35,12,8,9,6,6,3,3,4,5,7,5,910,2906,
scooby_state_55fe0cfa9ee2|9|4 1838,18,18,8,11,6,13,5,6,1,5,3,10,3,957,2902,
scooby_state_55fe0cfa9ee2|19|3 1924,13,30,9,7,6,8,14,2,4,8,3,2,4,853,2887,
scooby_state_55fe0cfa9ee2|44|3 1876,14,26,8,7,16,4,5,6,0,6,4,4,8,882,2866,
scooby_state_55fe0cfa9ee2|11|3 1842,17,30,5,7,9,7,4,5,8,6,3,6,4,903,2856,
scooby_state_55fe0cfa9ee2|59|3 1882,16,28,16,10,7,6,4,5,3,8,8,5,9,848,2855,
scooby_state_55fe0cfa9ee2|7|3 1907,11,29,12,4,8,9,4,4,3,5,5,3,5,837,2846,
scooby_state_55fe0cfa9ee2|5|3 1903,11,33,5,5,6,7,5,4,7,6,5,5,2,839,2843,
scooby_state_55fe0cfa9ee2|12|3 1894,11,28,7,9,10,3,6,3,4,2,6,8,8,838,2837,
scooby_state_55fe0cfa9ee2|8|4 1814,14,27,10,9,9,10,8,7,2,4,8,6,4,897,2829,
scooby_state_55fe0cfa9ee2|50|4 1796,9,37,8,4,3,9,5,9,5,1,9,3,7,883,2788,
scooby_state_55fe0cfa9ee2|18|3 1823,15,32,8,4,15,3,3,3,6,4,4,2,3,841,2766,
scooby_state_55fe0cfa9ee2|14|4 1759,14,37,8,8,6,11,5,3,4,3,9,4,7,878,2756,
scooby_state_55fe0cfa9ee2|36|4 1788,17,32,12,5,6,5,9,6,6,6,3,5,3,852,2755,
scooby_state_55fe0cfa9ee2|23|3 1777,18,32,10,8,16,5,12,13,4,4,3,9,3,835,2749,
scooby_state_55fe0cfa9ee2|10|3 1824,10,20,10,5,5,4,4,1,7,1,4,5,2,839,2741,
scooby_state_55fe0cfa9ee2|24|3 1769,15,34,12,4,6,5,4,5,5,5,3,9,5,856,2737,
scooby_state_55fe0cfa9ee2|33|3 1854,12,29,5,5,9,7,11,4,6,9,5,11,5,757,2729,
scooby_state_55fe0cfa9ee2|30|3 1818,11,25,5,8,12,3,4,3,4,5,2,2,5,820,2727,
scooby_state_55fe0cfa9ee2|4|3 1855,10,37,9,6,7,5,2,5,3,5,3,5,9,755,2716,
scooby_state_55fe0cfa9ee2|26|4 1691,11,36,7,9,14,9,10,12,0,1,3,9,1,900,2713,
scooby_state_55fe0cfa9ee2|8|3 1757,13,31,7,13,10,6,7,4,7,1,3,4,7,837,2707,
scooby_state_55fe0cfa9ee2|57|3 1743,13,24,10,7,13,3,7,6,3,2,3,5,4,858,2701,
scooby_state_55fe0cfa9ee2|40|4 1714,5,34,11,6,12,5,5,7,5,4,5,5,1,866,2685,
scooby_state_55fe0cfa9ee2|60|4 1651,8,43,16,18,8,4,4,4,6,5,5,6,3,904,2685,
scooby_state_55fe0cfa9ee2|27|3 1764,13,36,10,5,10,7,6,1,9,1,7,6,2,805,2682,
scooby_state_55fe0cfa9ee2|39|4 1728,7,29,5,10,6,15,4,7,5,5,5,8,4,843,2681,
scooby_state_55fe0cfa9ee2|37|4 1714,12,36,10,6,6,13,7,8,6,5,9,10,4,813,2659,
scooby_state_55fe0cfa9ee2|56|4 1679,15,29,12,6,9,12,5,4,3,3,6,3,4,865,2655,
scooby_state_55fe0cfa9ee2|52|4 1694,9,33,11,8,8,4,6,4,3,6,7,5,1,845,2644,
scooby_state_55fe0cfa9ee2|43|4 1665,16,23,9,9,5,11,7,5,4,2,8,12,10,854,2640,
scooby_state_55fe0cfa9ee2|55|4 1705,11,33,4,10,8,11,8,4,10,4,5,6,1,810,2630,
scooby_state_55fe0cfa9ee2|48|4 1644,10,33,10,15,11,8,5,5,7,5,2,5,5,854,2619,
scooby_state_55fe0cfa9ee2|20|4 1658,14,29,5,1,9,12,9,3,6,2,6,2,8,841,2605,
scooby_state_55fe0cfa9ee2|21|3 1655,19,32,13,4,5,5,7,3,6,7,3,7,6,831,2603,
scooby_state_55fe0cfa9ee2|14|5 1640,10,10,16,10,11,4,12,6,2,6,6,5,4,854,2596,
scooby_state_55fe0cfa9ee2|13|3 1710,9,28,11,4,9,5,1,3,5,5,7,2,4,783,2586,
scooby_state_55fe0cfa9ee2|31|4 1697,11,30,8,6,6,8,5,3,3,3,5,3,5,785,2578,
scooby_state_55fe0cfa9ee2|62|4 1575,12,31,11,5,2,6,7,5,7,5,10,9,6,864,2555,
scooby_state_55fe0cfa9ee2|33|4 1659,16,34,9,6,5,11,6,2,4,4,2,3,5,778,2544,
scooby_state_55fe0cfa9ee2|15|4 1625,11,29,4,5,6,8,7,10,6,11,7,3,7,801,2540,
scooby_state_55fe0cfa9ee2|30|4 1696,10,23,7,11,8,12,4,4,3,4,6,7,4,735,2534,
scooby_state_55fe0cfa9ee2|4|4 1633,8,35,5,5,5,10,4,3,5,2,3,7,2,797,2524,
scooby_state_55fe0cfa9ee2|44|4 1575,13,32,8,6,7,8,4,3,6,2,4,4,5,846,2523,
scooby_state_55fe0cfa9ee2|46|4 1624,15,32,4,4,13,5,2,2,7,3,2,2,3,804,2522,
scooby_state_55fe0cfa9ee2|42|4 1637,13,31,10,3,6,12,6,5,6,4,3,3,4,779,2522,
scooby_state_55fe0cfa9ee2|7|4 1656,12,22,7,9,7,9,6,2,4,5,10,4,4,758,2515,
scooby_state_55fe0cfa9ee2|61|4 1558,20,27,6,3,9,9,4,5,2,2,4,6,5,838,2498,
scooby_state_55fe0cfa9ee2|24|4 1528,9,36,7,4,3,9,7,7,4,9,4,10,6,851,2494,
scooby_state_55fe0cfa9ee2|31|5 1581,10,8,14,5,11,2,4,5,4,1,3,9,9,812,2478,
scooby_state_55fe0cfa9ee2|29|4 1600,13,25,3,6,6,15,3,5,3,3,3,7,3,779,2474,
scooby_state_55fe0cfa9ee2|6|4 1626,10,29,9,7,6,6,8,7,4,6,1,6,3,738,2466,
scooby_state_55fe0cfa9ee2|34|5 1513,16,10,18,8,8,5,4,4,3,3,7,4,4,854,2461,
scooby_state_55fe0cfa9ee2|32|4 1588,12,32,7,7,6,5,8,5,9,5,6,9,3,752,2454,
scooby_state_55fe0cfa9ee2|11|4 1579,11,24,7,9,4,6,6,2,4,5,7,2,9,776,2451,
scooby_state_55fe0cfa9ee2|28|4 1572,6,23,11,2,8,11,6,4,2,6,8,8,4,775,2446,
scooby_state_55fe0cfa9ee2|13|4 1593,11,29,8,9,4,10,9,1,7,1,9,5,3,743,2442,
scooby_state_55fe0cfa9ee2|25|4 1506,11,29,7,8,4,6,3,2,6,3,4,9,4,830,2432,
scooby_state_55fe0cfa9ee2|22|6 1480,18,12,10,10,8,4,7,6,3,4,4,5,6,849,2426,
scooby_state_55fe0cfa9ee2|42|5 1551,7,6,14,7,5,8,4,6,3,3,4,5,8,790,2421,
scooby_state_55fe0cfa9ee2|53|4 1570,11,29,6,8,6,6,5,4,2,3,3,4,3,759,2419,
scooby_state_55fe0cfa9ee2|5|4 1592,10,24,9,5,4,8,5,5,3,9,6,6,5,715,2406,
scooby_state_55fe0cfa9ee2|19|4 1470,13,34,7,7,8,11,6,6,4,4,5,10,9,810,2404,
scooby_state_55fe0cfa9ee2|51|5 1489,15,4,28,8,11,7,6,2,2,6,5,4,8,797,2392,
scooby_state_55fe0cfa9ee2|41|4 1549,7,35,7,4,6,4,1,9,2,0,8,4,2,751,2389,
scooby_state_55fe0cfa9ee2|47|4 1534,10,26,6,7,6,7,3,3,4,5,7,3,10,755,2386,
scooby_state_55fe0cfa9ee2|18|4 1486,18,29,8,4,3,11,2,8,4,3,6,3,5,794,2384,
scooby_state_55fe0cfa9ee2|60|5 1477,8,18,19,8,8,11,2,8,8,5,4,9,4,787,2376,
scooby_state_55fe0cfa9ee2|48|5 1509,10,8,28,7,8,7,6,5,9,8,8,4,5,752,2374,
scooby_state_55fe0cfa9ee2|27|4 1484,10,32,2,4,6,9,6,8,4,5,2,13,5,775,2365,
scooby_state_55fe0cfa9ee2|36|5 1514,13,9,9,9,8,7,3,10,1,9,4,7,3,757,2363,
scooby_state_55fe0cfa9ee2|22|4 1502,8,28,7,4,4,6,6,5,4,5,6,5,3,766,2359,
scooby_state_55fe0cfa9ee2|51|4 1460,6,25,8,7,5,6,8,5,1,8,3,7,6,794,2349,
scooby_state_55fe0cfa9ee2|9|5 1500,9,12,14,8,13,10,6,5,5,3,4,10,5,738,2342,
scooby_state_55fe0cfa9ee2|40|5 1452,11,10,17,3,10,6,9,8,4,4,4,5,9,783,2335,
scooby_state_55fe0cfa9ee2|21|4 1483,14,37,8,9,10,6,5,6,2,1,4,6,6,737,2334,
scooby_state_55fe0cfa9ee2|56|5 1434,14,7,13,8,16,4,8,6,4,6,7,4,10,792,2333,
scooby_state_55fe0cfa9ee2|23|4 1511,9,29,5,4,8,6,9,2,8,0,6,3,6,726,2332,
scooby_state_55fe0cfa9ee2|59|4 1448,8,22,9,10,7,5,7,5,3,7,2,5,6,785,2329,
scooby_state_55fe0cfa9ee2|45|4 1531,13,24,7,3,3,5,4,3,2,5,3,7,2,715,2327,
scooby_state_55fe0cfa9ee2|49|4 1468,16,30,6,9,5,8,5,7,7,5,6,3,3,747,2325,
scooby_state_55fe0cfa9ee2|38|4 1480,7,35,2,5,12,7,5,5,6,5,6,4,11,732,2322,
scooby_state_55fe0cfa9ee2|17|4 1507,7,31,4,5,3,10,3,1,2,5,3,4,5,725,2315,
scooby_state_55fe0cfa9ee2|34|4 1473,14,30,7,12,2,3,1,2,7,1,6,6,3,746,2313,
scooby_state_55fe0cfa9ee2|19|5 1436,9,6,13,6,13,11,3,4,2,6,10,3,5,781,2308,
scooby_state_55fe0cfa9ee2|57|4 1433,9,30,11,7,5,9,2,9,4,2,5,7,5,762,2300,
scooby_state_55fe0cfa9ee2|39|5 1453,5,8,21,7,13,7,4,2,5,5,3,4,4,750,2291,
scooby_state_55fe0cfa9ee2|15|6 1397,22,4,12,11,6,4,3,6,5,6,8,5,3,793,2285,
scooby_state_55fe0cfa9ee2|11|5 1434,10,4,14,9,13,7,6,9,1,3,3,4,1,753,2271,
scooby_state_55fe0cfa9ee2|58|4 1424,15,30,7,8,2,6,3,1,4,4,6,3,4,752,2269,
scooby_state_55fe0cfa9ee2|54|4 1435,11,24,3,9,8,8,1,7,1,2,5,7,4,740,2265,
scooby_state_55fe0cfa9ee2|26|5 1440,4,10,21,6,14,5,5,4,3,3,7,4,5,712,2243,
scooby_state_55fe0cfa9ee2|49|5 1394,11,14,12,10,7,3,7,4,6,2,8,3,5,754,2240,
scooby_state_55fe0cfa9ee2|20|5 1416,14,16,14,5,14,7,4,9,4,5,5,3,5,717,2238,
scooby_state_55fe0cfa9ee2|41|5 1419,8,6,15,9,11,3,7,6,4,3,6,4,7,727,2235,
scooby_state_55fe0cfa9ee2|61|5 1365,12,8,11,10,12,9,2,7,5,4,7,6,7,757,2222,
scooby_state_55fe0cfa9ee2|21|5 1360,9,5,17,6,9,7,6,12,4,4,5,1,7,763,2215,
scooby_state_55fe0cfa9ee2|10|4 1415,9,23,5,5,5,5,3,5,2,3,1,3,6,713,2203,
scooby_state_55fe0cfa9ee2|53|5 1353,8,6,16,7,10,7,2,3,4,2,6,6,4,769,2203,
scooby_state_55fe0cfa9ee2|12|4 1425,7,35,6,8,7,4,4,6,4,2,3,11,2,677,2201,
scooby_state_55fe0cfa9ee2|8|5 1398,10,11,14,6,7,8,5,3,3,7,4,4,3,715,2198,
scooby_state_55fe0cfa9ee2|63|5 1322,11,14,25,6,12,7,6,8,2,5,4,8,3,763,2196,
scooby_state_55fe0cfa9ee2|33|5 1339,4,10,14,5,8,6,10,9,6,4,9,7,4,755,2190,
scooby_state_55fe0cfa9ee2|54|5 1341,13,6,14,8,10,5,5,5,5,6,5,7,8,750,2188,
scooby_state_55fe0cfa9ee2|28|5 1341,7,13,12,7,5,4,7,9,5,5,6,5,6,737,2169,
scooby_state_55fe0cfa9ee2|22|5 1366,7,6,12,3,8,2,9,6,5,6,5,4,6,722,2167,
scooby_state_55fe0cfa9ee2|58|5 1365,11,10,14,9,11,3,6,7,4,3,6,9,9,694,2161,
scooby_state_55fe0cfa9ee2|35|5 1317,12,15,17,4,14,4,2,3,9,4,7,5,7,739,2159,
scooby_state_55fe0cfa9ee2|27|6 1356,12,6,9,9,11,4,4,2,9,2,8,6,7,714,2159,
scooby_state_55fe0cfa9ee2|63|4 1338,9,27,2,10,6,6,6,1,7,5,3,4,8,725,2157,
scooby_state_55fe0cfa9ee2|44|5 1388,11,5,13,11,7,7,9,4,6,4,6,6,6,667,2150,
scooby_state_55fe0cfa9ee2|16|4 1360,9,21,4,4,3,8,6,7,1,4,3,5,5,707,2147,
scooby_state_55fe0cfa9ee2|24|5 1312,4,11,12,7,7,9,4,7,2,4,4,2,2,758,2145,
scooby_state_55fe0cfa9ee2|34|6 1378,11,4,14,8,12,6,6,4,6,6,4,7,5,670,2141,
scooby_state_55fe0cfa9ee2|41|6 1375,13,4,10,11,8,4,7,7,3,5,5,7,6,664,2129,
scooby_state_55fe0cfa9ee2|29|5 1344,8,11,13,6,7,5,9,4,8,9,9,7,0,689,2129,
scooby_state_55fe0cfa9ee2|55|5 1336,12,8,11,10,11,4,6,5,4,11,5,7,7,684,2121,
scooby_state_55fe0cfa9ee2|35|7 1327,9,12,4,7,11,4,4,3,2,4,3,6,4,719,2119,
scooby_state_55fe0cfa9ee2|46|5 1337,12,11,16,10,8,6,4,9,5,2,1,6,5,675,2107,
scooby_state_55fe0cfa9ee2|50|5 1319,8,9,14,8,8,4,7,8,6,4,4,5,1,698,2103,
scooby_state_55fe0cfa9ee2|43|5 1339,9,5,16,9,7,7,5,8,5,5,4,5,4,675,2103,
scooby_state_55fe0cfa9ee2|13|5 1350,7,9,21,4,8,5,5,5,3,5,8,9,4,653,2096,
scooby_state_55fe0cfa9ee2|59|5 1259,11,11,16,5,5,5,5,3,2,5,3,3,3,752,2088,
scooby_state_55fe0cfa9ee2|5|5 1303,14,9,14,6,9,8,3,4,5,6,1,4,3,697,2086,
scooby_state_55fe0cfa9ee2|25|5 1288,7,7,14,7,10,3,6,5,5,4,10,9,5,700,2080,
scooby_state_55fe0cfa9ee2|35|6 1328,10,8,7,6,7,9,1,4,6,2,2,6,4,674,2074,
scooby_state_55fe0cfa9ee2|37|5 1312,7,8,14,4,12,10,3,6,6,1,5,6,5,675,2074,
scooby_state_55fe0cfa9ee2|32|6 1342,11,6,3,13,5,5,8,3,1,3,4,6,5,656,2071,
scooby_state_55fe0cfa9ee2|62|5 1285,8,11,14,4,7,5,5,4,5,5,2,5,4,706,2070,
scooby_state_55fe0cfa9ee2|9|6 1257,11,5,15,14,9,9,3,3,3,6,4,2,7,716,2064,
scooby_state_55fe0cfa9ee2|45|5 1276,8,15,16,3,9,6,13,7,3,4,6,4,5,679,2054,
scooby_state_55fe0cfa9ee2|6|5 1313,6,13,15,8,3,6,4,7,4,4,7,2,4,657,2053,
scooby_state_55fe0cfa9ee2|30|5 1308,5,14,18,5,8,6,4,5,3,3,5,6,3,656,2049,
scooby_state_55fe0cfa9ee2|42|6 1307,12,4,6,7,9,7,6,6,4,6,5,6,2,647,2034,
scooby_state_55fe0cfa9ee2|60|6 1288,10,7,12,3,7,3,4,6,1,4,9,4,6,661,2025,
scooby_state_55fe0cfa9ee2|44|6 1273,10,4,13,5,8,5,6,2,3,3,4,8,9,669,2022,
scooby_state_55fe0cfa9ee2|55|6 1204,15,9,12,7,8,6,10,3,7,7,4,6,5,717,2020,
scooby_state_55fe0cfa9ee2|52|5 1245,10,8,18,8,10,5,4,3,7,7,4,5,5,679,2018,
scooby_state_55fe0cfa9ee2|14|6 1275,6,5,4,13,7,7,2,6,1,5,4,6,3,669,2013,
scooby_state_55fe0cfa9ee2|7|5 1264,5,11,18,4,10,7,8,7,6,5,5,5,7,649,2011,
scooby_state_55fe0cfa9ee2|17|5 1237,10,5,14,3,8,5,7,7,9,3,5,6,4,685,2008,
scooby_state_55fe0cfa9ee2|62|6 1224,15,10,3,7,9,6,7,4,8,2,5,6,5,691,2002,
scooby_state_55fe0cfa9ee2|57|5 1235,9,12,13,8,8,8,13,6,2,8,4,4,6,663,1999,
scooby_state_55fe0cfa9ee2|32|5 1248,8,7,5,7,8,7,10,2,2,4,7,6,2,667,1990,
scooby_state_55fe0cfa9ee2|16|5 1235,10,4,17,9,9,2,7,7,6,3,2,6,7,654,1978,
scooby_state_55fe0cfa9ee2|27|5 1182,13,9,16,6,8,5,2,3,6,5,7,4,10,702,1978,
scooby_state_55fe0cfa9ee2|26|6 1209,13,5,16,10,8,6,3,2,5,5,2,4,8,681,1977,
scooby_state_55fe0cfa9ee2|51|6 1194,13,5,7,7,3,8,9,2,4,4,6,7,3,697,1969,
scooby_state_55fe0cfa9ee2|46|6 1245,11,5,9,8,6,7,7,2,6,1,6,5,6,643,1967,
scooby_state_55fe0cfa9ee2|6|6 1241,10,5,6,8,6,3,3,3,4,3,9,5,6,649,1961,
scooby_state_55fe0cfa9ee2|46|7 1181,19,6,9,8,3,8,4,1,4,3,1,3,4,704,1958,
scooby_state_55fe0cfa9ee2|31|6 1195,9,10,12,8,1,10,6,6,5,2,6,5,7,673,1955,
scooby_state_55fe0cfa9ee2|36|6 1217,13,12,10,7,1,2,4,6,4,4,2,7,6,660,1955,
scooby_state_55fe0cfa9ee2|15|7 1185,9,6,8,4,8,7,3,1,9,7,4,6,4,685,1946,
scooby_state_55fe0cfa9ee2|28|6 1187,6,10,6,7,5,6,4,3,3,8,5,4,3,689,1946,
scooby_state_55fe0cfa9ee2|14|7 1185,11,5,5,5,5,4,5,6,6,0,5,4,6,693,1945,
scooby_state_55fe0cfa9ee2|57|6 1186,12,7,11,5,4,4,6,5,6,4,6,3,1,681,1941,
scooby_state_55fe0cfa9ee2|43|6 1199,11,6,9,7,8,10,6,12,2,4,3,5,6,652,1940,
scooby_state_55fe0cfa9ee2|47|5 1211,9,9,14,10,4,8,6,6,12,9,7,4,6,625,1940,
scooby_state_55fe0cfa9ee2|15|5 1217,8,10,12,4,11,5,3,3,6,3,3,2,5,647,1939,
scooby_state_55fe0cfa9ee2|8|6 1241,14,2,6,2,10,6,6,6,3,2,3,7,4,624,1936,
scooby_state_55fe0cfa9ee2|23|6 1194,11,11,7,7,9,11,9,7,5,2,3,3,6,649,1934,
scooby_state_55fe0cfa9ee2|45|6 1211,14,6,9,8,5,4,4,4,6,3,5,2,3,645,1929,
scooby_state_55fe0cfa9ee2|21|6 1155,11,8,11,5,7,6,9,0,6,3,8,7,8,675,1919,
scooby_state_55fe0cfa9ee2|32|7 1150,13,10,5,4,2,4,4,2,1,4,4,4,3,698,1908,
scooby_state_55fe0cfa9ee2|24|6 1221,15,10,7,9,4,1,4,6,5,5,5,5,7,603,1907,
scooby_state_55fe0cfa9ee2|25|6 1215,12,5,12,8,8,4,5,6,3,1,7,8,3,608,1905,
scooby_state_55fe0cfa9ee2|61|6 1160,8,13,12,6,11,13,5,10,5,3,4,4,2,641,1897,
scooby_state_55fe0cfa9ee2|39|6 1185,12,8,6,7,3,4,4,1,4,5,1,4,6,640,1890,
scooby_state_55fe0cfa9ee2|26|7 1155,5,12,8,10,4,7,4,6,3,3,3,2,6,660,1888,
scooby_state_55fe0cfa9ee2|50|6 1161,12,6,13,4,5,6,7,0,2,6,1,9,6,648,1886,
scooby_state_55fe0cfa9ee2|23|5 1147,7,9,10,12,6,7,2,5,4,2,7,8,6,649,1881,
scooby_state_55fe0cfa9ee2|38|5 1199,6,10,10,1,9,4,2,2,4,1,7,3,12,609,1879,
scooby_state_55fe0cfa9ee2|49|7 1199,12,4,8,4,0,6,5,3,2,5,3,2,6,619,1878,
scooby_state_55fe0cfa9ee2|16|6 1135,13,5,10,9,7,5,6,6,3,3,8,11,6,650,1877,
scooby_state_55fe0cfa9ee2|49|6 1145,15,4,10,6,10,8,2,5,5,5,2,7,6,644,1874,
scooby_state_55fe0cfa9ee2|36|7 1133,9,6,4,3,4,10,4,2,5,3,4,2,3,682,1874,
scooby_state_55fe0cfa9ee2|52|6 1159,17,3,8,5,5,7,7,4,5,4,4,5,10,628,1871,
scooby_state_55fe0cfa9ee2|54|6 1129,11,7,8,6,2,5,6,6,2,6,7,3,9,660,1867,
scooby_state_55fe0cfa9ee2|17|8 1132,9,4,9,8,7,7,8,1,4,9,8,5,4,642,1857,
scooby_state_55fe0cfa9ee2|22|7 1124,13,12,8,3,5,4,5,6,2,5,5,5,7,647,1851,
scooby_state_55fe0cfa9ee2|7|6 1158,7,5,6,3,5,5,5,3,5,4,5,2,4,633,1850,
scooby_state_55fe0cfa9ee2|42|7 1133,10,7,6,4,5,4,6,6,2,1,2,5,9,649,1849,
scooby_state_55fe0cfa9ee2|18|5 1129,12,5,9,7,5,4,3,4,2,6,5,8,4,636,1839,
scooby_state_55fe0cfa9ee2|58|6 1120,19,9,6,4,7,5,10,6,4,1,4,4,2,634,1835,
scooby_state_55fe0cfa9ee2|20|6 1143,13,2,3,3,7,9,7,5,3,1,6,4,3,623,1832,
scooby_state_55fe0cfa9ee2|16|8 1140,7,4,11,7,4,7,7,2,1,5,7,6,4,617,1829,
scooby_state_55fe0cfa9ee2|27|7 1056,11,4,5,5,4,6,6,3,5,4,5,6,8,700,1828,
scooby_state_55fe0cfa9ee2|41|7 1142,11,3,4,2,10,3,3,3,4,0,4,2,4,629,1824,
scooby_state_55fe0cfa9ee2|59|6 1109,11,7,12,4,10,7,5,4,2,3,4,6,0,640,1824,
scooby_state_55fe0cfa9ee2|56|6 1094,9,2,12,6,4,4,6,1,3,6,4,0,4,658,1813,
scooby_state_55fe0cfa9ee2|37|6 1134,12,6,9,10,5,2,4,3,4,4,7,4,2,596,1802,
scooby_state_55fe0cfa9ee2|48|6 1107,13,6,8,4,11,4,9,5,5,5,4,3,3,615,1802,
scooby_state_55fe0cfa9ee2|40|6 1116,7,7,13,2,8,2,9,3,4,2,7,7,3,610,1800,
scooby_state_55fe0cfa9ee2|38|6 1083,9,5,10,12,6,2,8,1,3,4,3,3,4,646,1799,
scooby_state_55fe0cfa9ee2|9|7 1100,14,8,8,5,5,3,5,6,3,3,1,1,4,632,1798,
scooby_state_55fe0cfa9ee2|53|6 1124,7,7,9,6,8,5,7,3,1,7,2,4,3,599,1792,
scooby_state_55fe0cfa9ee2|56|7 1073,13,4,10,4,6,5,5,4,2,6,3,4,2,648,1789,
scooby_state_55fe0cfa9ee2|38|7 1115,9,8,5,7,4,2,7,2,5,0,4,2,5,608,1783,
scooby_state_55fe0cfa9ee2|13|6 1112,8,7,12,6,4,5,6,7,7,3,2,1,5,597,1782,
scooby_state_55fe0cfa9ee2|12|5 1096,5,5,10,7,6,8,1,6,3,3,4,8,4,613,1779,
scooby_state_55fe0cfa9ee2|36|8 1093,12,9,7,6,6,7,7,5,3,5,3,7,6,602,1778,
scooby_state_55fe0cfa9ee2|26|8 1100,10,7,7,8,4,5,9,6,3,3,7,4,5,594,1772,
scooby_state_55fe0cfa9ee2|24|7 1071,8,10,4,6,4,3,1,1,3,2,1,2,1,655,1772,
scooby_state_55fe0cfa9ee2|29|6 1078,7,7,15,7,7,8,3,2,2,3,7,3,4,617,1770,
scooby_state_55fe0cfa9ee2|63|6 1087,7,4,10,9,5,4,3,4,3,1,6,2,3,621,1769,
scooby_state_55fe0cfa9ee2|61|7 1071,8,5,4,12,6,2,7,3,1,2,4,3,3,635,1766,
scooby_state_55fe0cfa9ee2|23|7 1061,10,5,4,7,4,8,3,0,4,1,4,2,4,643,1760,
scooby_state_55fe0cfa9ee2|9|8 1086,8,6,5,9,7,3,5,8,4,3,3,4,7,595,1753,
scooby_state_55fe0cfa9ee2|33|7 1075,9,2,8,3,6,6,4,3,4,1,3,4,4,620,1752,
scooby_state_55fe0cfa9ee2|11|6 1132,13,4,9,6,9,6,4,6,4,2,2,4,5,544,1750,
scooby_state_55fe0cfa9ee2|62|7 1082,7,4,6,2,2,3,3,4,8,0,0,2,10,611,1744,
scooby_state_55fe0cfa9ee2|10|5 1104,6,8,4,4,5,4,4,7,3,10,2,4,5,561,1731,
scooby_state_55fe0cfa9ee2|30|6 1086,16,13,11,4,6,6,4,2,6,2,0,4,5,566,1731,
scooby_state_55fe0cfa9ee2|31|7 1062,9,7,4,4,3,5,4,4,5,4,4,2,4,606,1727,
scooby_state_55fe0cfa9ee2|39|7 1103,7,4,5,5,5,6,2,4,2,2,3,1,4,569,1722,
scooby_state_55fe0cfa9ee2|44|7 1057,7,4,7,5,7,5,6,5,1,1,6,1,1,600,1713,
scooby_state_55fe0cfa9ee2|33|6 1084,9,4,6,6,8,6,5,5,4,3,7,6,7,550,1710,
scooby_state_55fe0cfa9ee2|43|7 1076,12,5,1,4,3,9,3,2,2,2,0,3,8,580,1710,
scooby_state_55fe0cfa9ee2|7|7 1053,6,2,3,5,3,0,4,1,2,2,1,5,1,618,1706,
scooby_state_55fe0cfa9ee2|34|8 1073,6,7,5,11,4,3,7,6,3,4,14,3,5,555,1706,
scooby_state_55fe0cfa9ee2|19|8 1013,7,3,7,6,9,10,8,7,3,6,1,4,4,609,1697,
scooby_state_55fe0cfa9ee2|43|8 1076,9,5,10,6,5,7,2,6,2,3,3,1,8,553,1696,
scooby_state_55fe0cfa9ee2|35|8 1026,13,10,5,7,7,5,8,9,4,3,4,1,5,587,1694,
scooby_state_55fe0cfa9ee2|44|8 1067,15,3,8,6,7,3,5,3,2,1,5,4,7,548,1684,
scooby_state_55fe0cfa9ee2|51|7 1075,7,5,8,3,5,6,2,2,1,0,4,3,7,554,1682,
scooby_state_55fe0cfa9ee2|8|7 1035,12,6,5,3,4,4,6,8,0,7,4,10,3,573,1680,
scooby_state_55fe0cfa9ee2|19|6 1053,10,6,7,6,9,5,5,4,2,3,2,5,9,552,1678,
scooby_state_55fe0cfa9ee2|17|6 1029,18,4,6,5,8,5,6,4,0,4,9,1,4,569,1672,
scooby_state_55fe0cfa9ee2|60|8 1010,5,12,9,10,9,7,9,3,2,3,4,4,2,579,1668,
scooby_state_55fe0cfa9ee2|45|7 988,9,8,4,4,6,2,5,3,0,1,4,2,5,620,1661,
scooby_state_55fe0cfa9ee2|48|7 1018,13,9,1,2,3,3,6,5,3,3,1,1,2,580,1650,
scooby_state_55fe0cfa9ee2|12|6 975,14,8,9,6,5,4,7,7,3,1,7,3,3,595,1647,
scooby_state_55fe0cfa9ee2|35|9 998,7,10,13,8,11,4,6,4,4,4,6,5,10,557,1647,
scooby_state_55fe0cfa9ee2|29|7 962,12,6,2,3,6,3,8,3,4,3,1,3,1,624,1641,
scooby_state_55fe0cfa9ee2|25|7 973,4,6,7,1,5,5,4,4,2,2,4,4,7,613,1641,
scooby_state_55fe0cfa9ee2|16|7 1014,7,5,3,4,6,2,3,0,1,2,5,0,2,587,1641,
scooby_state_55fe0cfa9ee2|37|7 1087,4,2,3,2,5,3,4,6,2,1,2,1,2,506,1630,
scooby_state_55fe0cfa9ee2|50|7 1015,9,5,6,9,5,6,1,6,3,2,4,5,3,537,1616,
scooby_state_55fe0cfa9ee2|22|8 993,7,4,7,5,8,4,5,3,4,2,7,5,3,558,1615,
scooby_state_55fe0cfa9ee2|52|7 959,12,9,8,4,2,0,3,3,3,0,3,1,2,603,1612,
scooby_state_55fe0cfa9ee2|54|8 954,10,8,7,4,10,6,8,2,2,3,5,6,2,580,1607,
scooby_state_55fe0cfa9ee2|13|7 994,15,3,3,2,5,3,1,4,2,1,3,3,5,558,1602,
scooby_state_55fe0cfa9ee2|45|8 999,6,6,5,6,7,1,9,5,2,4,2,1,9,538,1600,
scooby_state_55fe0cfa9ee2|63|7 972,8,6,3,3,6,8,5,2,4,5,4,3,3,564,1596,
scooby_state_55fe0cfa9ee2|18|7 999,8,4,1,3,2,4,6,3,2,5,4,3,2,549,1595,
scooby_state_55fe0cfa9ee2|20|7 939,15,4,4,4,7,6,3,0,3,3,2,1,3,598,1592,
scooby_state_55fe0cfa9ee2|55|7 1005,5,4,4,3,4,1,7,3,4,8,6,3,6,529,1592,
scooby_state_55fe0cfa9ee2|28|7 931,11,7,5,3,4,6,7,5,4,1,3,2,4,597,1590,
scooby_state_55fe0cfa9ee2|53|7 937,8,9,4,6,3,6,1,6,2,1,3,1,5,598,1590,
scooby_state_55fe0cfa9ee2|58|7 946,7,6,5,4,9,3,4,5,1,2,5,3,2,585,1587,
scooby_state_55fe0cfa9ee2|17|7 1013,8,3,11,3,7,5,4,1,2,1,0,6,3,519,1586,
scooby_state_55fe0cfa9ee2|60|7 993,5,6,4,2,3,2,3,4,1,2,4,4,3,549,1585,
scooby_state_55fe0cfa9ee2|23|8 957,9,6,5,4,3,5,7,4,8,2,3,7,7,556,1583,
scooby_state_55fe0cfa9ee2|15|8 969,13,6,11,12,5,4,8,3,3,4,3,3,2,536,1582,
scooby_state_55fe0cfa9ee2|47|6 983,10,4,10,7,3,9,10,2,7,1,3,0,1,531,1581,
scooby_state_55fe0cfa9ee2|28|8 951,11,1,6,13,3,7,1,4,4,1,5,7,2,558,1574,
scooby_state_55fe0cfa9ee2|30|7 926,9,8,2,0,5,4,7,5,4,3,9,4,2,575,1563,
scooby_state_55fe0cfa9ee2|10|6 988,14,8,6,2,1,4,3,1,0,4,3,1,1,527,1563,
scooby_state_55fe0cfa9ee2|56|8 946,10,4,8,8,4,3,3,6,7,4,4,6,4,543,1560,
scooby_state_55fe0cfa9ee2|9|9 951,6,6,15,14,6,6,5,3,7,3,6,10,5,514,1557,
scooby_state_55fe0cfa9ee2|48|8 949,12,7,11,12,6,3,9,6,4,3,4,5,6,520,1557,
scooby_state_55fe0cfa9ee2|21|7 926,11,5,4,2,6,4,4,1,3,2,2,1,4,580,1555,
scooby_state_55fe0cfa9ee2|10|7 995,7,1,4,3,2,6,5,1,3,1,2,4,3,514,1551,
scooby_state_55fe0cfa9ee2|14|8 949,11,7,5,2,6,5,5,2,4,8,4,1,5,523,1537,
scooby_state_55fe0cfa9ee2|44|9 931,11,9,16,5,10,8,5,3,4,6,9,4,5,508,1534,
scooby_state_55fe0cfa9f25|20|0 3,2,1522,1,0,0,0,0,0,0,0,1,1,0,0,1530,
scooby_state_55fe0cfa9ee2|25|8 893,8,7,9,7,8,4,5,4,5,6,3,1,4,565,1529,
scooby_state_55fe0cfa9ee2|60|9 928,12,8,11,7,4,5,7,7,4,8,5,4,3,512,1525,
scooby_state_55fe0cfa9ee2|8|8 955,9,7,7,4,8,9,5,1,3,1,5,4,6,496,1520,
scooby_state_55fe0cfa9ee2|19|10 949,3,5,11,5,5,6,6,1,2,2,2,7,5,511,1520,
scooby_state_55fe0cfa9ee2|11|8 953,15,7,4,8,5,2,1,2,2,3,3,6,7,502,1520,
scooby_state_55fe0cfa9ee2|33|8 892,11,8,5,8,8,5,6,10,4,3,2,4,6,546,1518,
scooby_state_55fe0cfa9ee2|34|7 925,12,5,5,1,4,4,4,4,1,7,2,3,6,535,1518,
scooby_state_55fe0cfa9ee2|24|8 928,7,2,4,11,6,6,7,3,0,4,5,1,4,529,1517,
scooby_state_55fe0cfa9ee2|15|9 905,9,8,9,4,6,6,3,3,5,3,7,5,2,539,1514,
scooby_state_55fe0cfa9ee2|46|8 925,10,6,1,9,8,3,6,4,4,2,4,5,6,517,1510,
scooby_state_55fe0cfa9ee2|57|8 935,11,7,2,4,7,9,9,2,4,2,2,5,7,502,1508,
scooby_state_55fe0cfa9ee2|50|8 907,9,3,6,3,9,4,8,4,5,4,2,3,3,534,1504,
scooby_state_55fe0cfa9ee2|53|8 871,4,11,7,9,5,7,5,2,2,3,2,3,4,568,1503,
scooby_state_55fe0cfa9ee2|59|8 878,9,7,5,7,4,6,4,4,4,4,5,5,5,556,1503,
scooby_state_55fe0cfa9ee2|14|9 930,6,7,12,11,10,5,2,5,6,5,3,3,7,490,1502,
scooby_state_55fe0cfa9ee2|42|8 914,3,6,6,7,1,3,7,6,5,5,2,4,3,527,1499,
scooby_state_55fe0cfa9ee2|37|11 917,6,2,8,6,6,5,2,5,4,3,3,5,4,522,1498,
scooby_state_55fe0cfa9ee2|27|8 887,10,9,9,10,8,5,6,4,3,3,7,0,2,530,1493,
scooby_state_55fe0cfa9ee2|59|7 868,11,8,10,2,6,3,1,2,3,4,2,4,8,552,1484,
scooby_state_55fe0cfa9ee2|54|7 918,5,7,7,4,3,1,0,0,2,2,1,1,2,525,1478,
scooby_state_55fe0cfa9ee2|52|8 916,17,8,1,5,9,1,3,3,3,4,2,5,3,497,1477,
scooby_state_55fe0cfa9ee2|39|8 916,7,10,10,5,2,4,3,4,4,5,4,5,7,490,1476,
scooby_state_55fe0cfa9ee2|21|8 880,5,3,6,10,4,2,3,5,5,2,13,2,3,532,1475,
scooby_state_55fe0cfa9ee2|51|8 913,12,9,9,4,10,5,6,2,3,3,8,6,2,480,1472,
scooby_state_55fe0cfa9ee2|31|8 878,10,5,10,3,3,6,3,6,4,4,5,3,6,524,1470,
scooby_state_55fe0cfa9ee2|24|9 864,7,4,9,4,4,9,3,3,6,3,4,2,9,538,1469,
scooby_state_55fe0cfa9ee2|57|7 902,15,2,6,4,3,4,2,4,4,2,2,3,3,513,1469,
scooby_state_55fe0cfa9ee2|37|8 883,1,6,7,9,4,5,1,2,3,6,4,6,2,526,1465,
scooby_state_55fe0cfa9ee2|63|8 859,10,0,8,8,7,9,6,6,0,4,5,3,3,537,1465,
scooby_state_55fe0cfa9ee2|55|8 853,11,3,2,13,3,6,3,6,4,3,6,10,5,537,1465,
scooby_state_55fe0cfa9ee2|40|8 881,8,5,4,7,3,7,3,3,5,6,3,4,0,518,1457,
scooby_state_55fe0cfa9ee2|11|7 912,7,4,3,6,7,6,3,4,3,0,4,2,2,493,1456,
scooby_state_55fe0cfa9ee2|61|8 897,6,4,4,9,3,1,2,7,4,5,3,4,3,502,1454,
scooby_state_55fe0cfa9ee2|61|9 792,4,7,10,9,14,9,3,7,5,2,7,3,6,575,1453,
scooby_state_55fe0cfa9ee2|10|8 874,9,7,7,6,1,5,5,3,3,2,3,2,2,518,1447,
scooby_state_55fe0cfa9ee2|58|8 900,9,8,4,4,9,2,6,2,2,2,7,8,5,479,1447,
scooby_state_55fe0cfa9ee2|25|10 876,5,10,8,7,10,4,5,2,2,4,8,4,5,490,1440,
scooby_state_55fe0cfa9ee2|31|9 845,5,7,8,4,8,4,3,3,5,5,6,5,4,522,1434,
scooby_state_55fe0cfa9ee2|47|7 898,9,5,2,8,3,7,4,0,0,3,4,5,3,475,1426,
scooby_state_55fe0cfa9ee2|40|7 858,13,3,11,5,4,5,2,4,3,2,0,3,1,511,1425,
scooby_state_55fe0cfa9ee2|23|9 837,9,7,9,3,8,2,0,4,3,0,6,10,6,511,1415,
scooby_state_55fe0cfa9ee2|18|6 880,12,5,11,3,2,4,5,7,4,6,2,1,4,469,1415,
scooby_state_55fe0cfa9ee2|16|9 869,2,10,11,7,4,2,6,4,7,6,5,4,4,470,1411,
scooby_state_55fe0cfa9ee2|38|8 873,4,4,2,4,11,6,5,3,5,3,2,6,2,481,1411,
scooby_state_55fe0cfa9ee2|62|8 879,10,7,3,5,6,5,3,3,1,2,4,4,8,467,1407,
scooby_state_55fe0cfa9ee2|17|9 858,5,6,9,4,4,5,5,4,3,8,4,7,4,480,1406,
scooby_state_55fe0cfa9ee2|51|9 875,5,4,15,8,9,7,11,7,10,4,4,6,5,435,1405,
scooby_state_55fe0cfa9ee2|57|9 879,14,4,8,4,7,8,7,7,2,6,5,4,1,447,1403,
scooby_state_55fe0cfa9ee2|52|9 835,11,9,6,8,11,6,4,6,4,7,5,1,7,483,1403,
scooby_state_55fe0cfa9ee2|46|9 869,6,4,6,6,8,4,3,2,7,2,5,5,2,469,1398,
scooby_state_55fe0cfa9ee2|19|7 852,5,6,5,4,2,2,5,2,2,0,0,1,4,506,1396,
scooby_state_55fe0cfa9ee2|30|8 800,3,7,4,3,5,4,0,5,8,3,3,5,9,534,1393,
scooby_state_55fe0cfa9ee2|12|8 847,11,7,9,4,4,5,2,3,6,2,4,4,2,479,1389,
scooby_state_55fe0cfa9ee2|13|8 851,16,8,8,6,4,2,3,4,5,3,3,7,2,466,1388,
scooby_state_55fe0cfa9ee2|46|10 846,7,7,13,5,4,4,4,1,6,4,1,5,7,473,1387,
scooby_state_55fe0cfa9ee2|26|9 828,7,6,9,2,7,2,4,3,4,9,4,5,4,492,1386,
scooby_state_55fe0cfa9ee2|47|8 856,10,8,3,7,4,6,1,1,2,2,4,5,4,467,1380,
scooby_state_55fe0cfa9ee2|25|9 798,13,7,7,13,8,7,9,1,3,6,5,5,3,494,1379,
scooby_state_55fe0cfa9ee2|37|9 838,3,6,11,9,7,2,5,4,9,3,1,7,1,469,1375,
scooby_state_55fe0cfa9ee2|61|10 831,4,8,6,3,3,6,2,4,3,3,5,1,6,489,1374,
scooby_state_55fe0cfa9ee2|50|11 845,10,9,7,9,3,6,5,2,4,7,7,2,7,449,1372,
scooby_state_55fe0cfa9ee2|32|8 849,3,10,0,6,4,4,1,5,3,1,1,5,4,468,1364,
scooby_state_55fe0cfa9ee2|48|9 857,14,6,10,10,6,4,4,3,1,4,5,5,4,429,1362,
scooby_state_55fe0cfa9ee2|34|9 824,7,5,11,7,5,5,3,1,7,3,3,5,7,469,1362,
scooby_state_55fe0cfa9ee2|56|10 822,3,6,6,2,3,7,7,3,3,4,4,7,3,481,1361,
scooby_state_55fe0cfa9ee2|62|9 813,9,5,10,7,6,4,4,5,4,3,4,5,5,474,1358,
scooby_state_55fe0cfa9ee2|12|7 831,9,9,4,2,5,3,8,4,2,2,0,1,3,474,1357,
scooby_state_55fe0cfa9ee2|28|14 1220,6,10,17,10,5,9,3,6,2,4,7,6,8,38,1351,
scooby_state_55fe0cfa9e73|24|4 503,60,56,54,56,58,55,56,59,53,57,59,57,58,107,1348,
scooby_state_55fe0cfa9ee2|26|11 830,4,5,7,6,3,11,8,7,2,0,4,8,5,445,1345,
scooby_state_55fe0cfa9ee2|18|9 833,4,5,9,7,5,5,4,8,11,3,3,4,4,439,1344,
scooby_state_55fe0cfa9ee2|15|10 818,9,5,5,5,4,4,6,3,8,1,4,2,4,466,1344,
scooby_state_55fe0cfa9ee2|50|9 821,9,8,11,7,4,3,4,9,4,5,5,4,4,444,1342,
scooby_state_55fe0cfa9ee2|19|9 799,10,8,9,4,10,6,2,5,8,1,3,2,8,466,1341,
scooby_state_55fe0cfa9ee2|46|12 809,8,7,7,7,8,5,4,5,5,5,9,6,4,450,1339,
scooby_state_55fe0cfa9ee2|61|11 797,8,10,7,13,5,6,4,6,2,5,3,4,5,462,1337,
scooby_state_55fe0cfa9ee2|45|9 833,8,5,7,10,8,4,3,5,3,2,8,7,5,428,1336,
scooby_state_55fe0cfa9ee2|58|9 806,7,8,6,2,9,3,6,2,3,5,3,10,2,463,1335,
scooby_state_55fe0cfa9ee2|35|10 820,6,8,9,6,2,3,6,6,2,4,0,8,3,451,1334,
scooby_state_55fe0cfa9ee2|55|9 782,7,6,11,3,7,5,3,2,2,6,3,4,4,485,1330,
scooby_state_55fe0cfa9ee2|49|10 839,3,3,6,6,6,7,5,6,1,6,2,2,4,430,1326,
scooby_state_55fe0cfa9ee2|20|11 791,5,10,7,15,3,6,1,7,1,5,2,7,6,459,1325,
scooby_state_55fe0cfa9ee2|48|11 805,5,10,13,7,3,3,1,9,3,1,5,11,5,444,1325,
scooby_state_55fe0cfa9ee2|29|9 789,7,5,9,3,13,5,0,4,4,7,9,3,6,460,1324,
scooby_state_55fe0cfa9ee2|24|10 791,7,7,3,3,3,4,4,1,7,3,6,3,3,475,1320,
scooby_state_55fe0cfa9ee2|13|9 845,8,4,7,6,9,3,2,4,2,3,4,4,4,410,1315,
scooby_state_55fe0cfa9ee2|43|9 787,8,11,18,6,8,4,2,5,4,1,5,6,3,446,1314,
scooby_state_55fe0cfa9ee2|60|10 801,7,8,7,7,3,8,3,5,5,4,3,6,4,442,1313,
scooby_state_55fe0cfa9ee2|28|9 770,8,10,13,4,6,4,5,5,1,7,5,5,0,470,1313,
scooby_state_55fe0cfa9ee2|27|10 807,5,4,5,7,6,7,3,3,3,3,5,1,7,439,1305,
scooby_state_55fe0cfa9ee2|26|10 807,4,6,4,4,7,0,5,7,11,1,5,2,3,438,1304,
scooby_state_55fe0cfa9ee2|11|9 783,5,6,9,5,6,7,6,6,6,3,5,1,4,451,1303,
scooby_state_55fe0cfa9ee2|14|11 761,5,11,12,8,7,6,3,5,4,4,7,6,4,459,1302,
scooby_state_55fe0cfa9ee2|20|9 767,10,4,13,4,5,6,5,11,3,7,4,1,7,454,1301,
scooby_state_55fe0cfa9ee2|43|10 778,12,2,3,6,7,9,3,5,1,5,2,7,5,454,1299,
scooby_state_55fe0cfa9ee2|39|10 803,3,6,12,5,4,7,5,3,2,2,2,6,2,434,1296,
scooby_state_55fe0cfa9ee2|49|8 788,9,7,7,10,5,3,2,4,2,2,1,6,6,444,1296,
scooby_state_55fe0cfa9ee2|55|10 754,8,3,8,6,6,11,3,2,2,1,2,5,0,483,1294,
scooby_state_55fe0cfa9ee2|39|9 796,3,12,5,7,12,5,4,2,3,2,5,2,5,431,1294,
scooby_state_55fe0cfa9ee2|51|11 778,11,4,8,11,5,6,6,8,4,5,6,8,8,425,1293,
scooby_state_55fe0cfa9ee2|45|10 793,8,3,3,4,7,6,4,4,3,2,6,3,0,444,1290,
scooby_state_55fe0cfa9ee2|63|9 765,7,8,10,12,11,9,3,5,6,3,3,3,5,434,1284,
scooby_state_55fe0cfa9ee2|29|8 757,9,9,6,4,3,3,4,2,4,5,5,3,3,466,1283,
scooby_state_55fe0cfa9ee2|38|9 770,10,6,8,7,1,4,10,8,3,3,5,3,8,436,1282,
scooby_state_55fe0cfa9ee2|12|9 792,7,10,7,9,8,1,5,2,8,8,3,4,6,407,1277,
scooby_state_55fe0cfa9ee2|60|11 782,7,1,7,4,3,7,3,5,3,5,7,5,6,428,1273,
scooby_state_55fe0cfa9ee2|14|10 786,10,2,9,6,0,2,4,2,2,1,4,3,5,435,1271,
scooby_state_55fe0cfa9ee2|27|13 742,12,8,9,5,2,7,7,6,4,6,6,2,6,447,1269,
scooby_state_55fe0cfa9ee2|17|10 794,8,3,3,2,2,8,2,6,3,1,4,3,4,425,1268,
scooby_state_55fe0cfa9ee2|36|10 786,3,2,4,3,4,4,3,2,4,1,5,3,6,429,1259,
scooby_state_55fe0cfa9ee2|50|10 738,7,2,9,9,3,6,4,6,7,3,3,6,7,447,1257,
scooby_state_55fe0cfa9ee2|33|9 780,10,2,9,3,8,7,2,4,1,1,2,4,1,420,1254,
scooby_state_55fe0cfa9ee2|18|8 761,6,5,6,4,5,2,3,1,0,3,2,3,0,451,1252,
scooby_state_55fe0cfa9ee2|52|10 783,4,5,5,7,5,3,1,6,4,4,6,3,4,411,1251,
scooby_state_55fe0cfa9ee2|20|12 787,3,3,7,6,5,3,11,7,7,1,1,5,5,398,1249,
scooby_state_55fe0cfa9ee2|48|10 760,12,10,6,5,2,6,5,3,1,6,3,2,3,423,1247,
scooby_state_55fe0cfa9ee2|13|10 756,3,5,4,2,6,5,3,6,1,2,2,5,6,438,1244,
scooby_state_55fe0cfa9ee2|41|9 782,9,7,9,5,6,6,5,3,5,6,5,6,4,384,1242,
scooby_state_55fe0cfa9ee2|39|12 771,13,6,6,8,2,2,6,6,5,10,3,5,8,391,1242,
scooby_state_55fe0cfa9ee2|58|10 727,9,8,10,4,4,8,2,1,3,7,4,2,3,447,1239,
scooby_state_55fe0cfa9ee2|44|10 736,7,5,8,4,5,5,7,5,2,5,5,4,4,436,1238,
scooby_state_55fe0cfa9ee2|38|10 756,3,3,5,4,2,8,1,1,3,3,4,4,3,434,1234,
scooby_state_55fe0cfa9ee2|55|11 713,5,8,10,8,10,5,6,5,5,5,5,7,7,434,1233,
scooby_state_55fe0cfa9ee2|35|13 751,9,11,6,4,4,7,3,5,4,5,5,6,3,409,1232,
scooby_state_55fe0cfa9ee2|32|9 725,9,4,10,3,8,7,6,6,1,1,5,3,4,436,1228,
scooby_state_55fe0cfa9ee2|14|12 749,5,5,6,9,4,8,6,5,10,4,6,3,5,402,1227,
scooby_state_55fe0cfa9ee2|51|10 739,10,4,8,5,7,4,3,4,3,1,2,3,6,427,1226,
scooby_state_55fe0cfa9ee2|41|8 745,11,1,7,6,7,8,1,4,8,2,3,3,2,416,1224,
scooby_state_55fe0cfa9ee2|47|9 754,9,8,10,7,1,7,6,2,8,2,4,5,4,395,1222,
scooby_state_55fe0cfa9ee2|62|10 728,7,6,8,3,3,8,4,2,3,1,7,4,3,435,1222,
scooby_state_55fe0cfa9ee2|58|12 729,11,11,6,5,3,4,5,5,2,10,5,5,9,411,1221,
scooby_state_55fe0cfa9ee2|21|10 724,8,2,8,2,7,5,1,5,6,3,3,5,3,439,1221,
scooby_state_55fe0cfa9ee2|45|11 703,8,7,12,8,5,9,5,3,1,4,5,3,1,445,1219,
scooby_state_55fe0cfa9ee2|53|11 754,9,7,6,10,4,7,4,5,0,2,5,2,4,398,1217,
scooby_state_55fe0cfa9ee2|36|9 732,6,11,8,2,7,3,4,4,9,5,5,2,10,407,1215,
scooby_state_55fe0cfa9ee2|32|10 699,2,3,8,3,8,4,7,5,2,4,7,4,3,454,1213,
scooby_state_55fe0cfa9ee2|35|11 707,8,5,11,8,7,4,3,4,9,1,5,6,6,425,1209,
scooby_state_55fe0cfa9ee2|49|11 740,3,11,7,6,3,7,5,5,2,5,3,6,5,398,1206,
scooby_state_55fe0cfa9ee2|39|11 717,4,4,6,14,8,6,8,7,4,5,2,2,4,414,1205,
scooby_state_55fe0cfa9ee2|22|9 732,7,4,5,7,8,3,4,3,4,2,4,6,5,408,1202,
[...]
scooby_state_14e344e4867a|44|0 1,0,0,0,0,0,0,0,0,0,0,0,0,0,0,1,
scooby_state_14e344e49a18|40|0 1,0,0,0,0,0,0,0,0,0,0,0,0,0,0,1,
scooby_state_55fe0cfa9ed6|63|9 1,0,0,0,0,0,0,0,0,0,0,0,0,0,0,1,
scooby_state_14e344e84207|2|-47 1,0,0,0,0,0,0,0,0,0,0,0,0,0,0,1,
scooby_state_55fe0cfa9ed6|20|4 1,0,0,0,0,0,0,0,0,0,0,0,0,0,0,1,
scooby_state_14e344e81b90|46|30 1,0,0,0,0,0,0,0,0,0,0,0,0,0,0,1,
scooby_state_55fe0cfa9eca|8|-1 0,0,0,0,0,1,0,0,0,0,0,0,0,0,0,1,
scooby_state_55fe0cfa8b41|45|16 1,0,0,0,0,0,0,0,0,0,0,0,0,0,0,1,
scooby_state_14e344e840c1|58|1 1,0,0,0,0,0,0,0,0,0,0,0,0,0,0,1,
scooby_state_55fe0cfa9ed6|38|15 1,0,0,0,0,0,0,0,0,0,0,0,0,0,0,1,
scooby_state_55fe0cfa9e77|54|27 1,0,0,0,0,0,0,0,0,0,0,0,0,0,0,1,
scooby_state_14e344e4a090|2|-34 1,0,0,0,0,0,0,0,0,0,0,0,0,0,0,1,
scooby_state_55fe0cfa9ed6|53|4 1,0,0,0,0,0,0,0,0,0,0,0,0,0,0,1,
scooby_state_55fe0cfa9f15|26|0 1,0,0,0,0,0,0,0,0,0,0,0,0,0,0,1,
scooby_state_14e344e81e6c|57|20 1,0,0,0,0,0,0,0,0,0,0,0,0,0,0,1,
scooby_state_55fe0cfa83f0|54|0 1,0,0,0,0,0,0,0,0,0,0,0,0,0,0,1,
scooby_state_55fe0cfa9ec6|33|2 0,0,0,0,0,0,0,0,0,0,0,0,0,0,1,1,
scooby_state_55fe0cfa9ed6|60|39 1,0,0,0,0,0,0,0,0,0,0,0,0,0,0,1,
scooby_state_55fe0cfa9ebf|29|14 1,0,0,0,0,0,0,0,0,0,0,0,0,0,0,1,
scooby_state_14e344e81902|36|-10 1,0,0,0,0,0,0,0,0,0,0,0,0,0,0,1,
scooby_state_14e344e815f4|18|-1 1,0,0,0,0,0,0,0,0,0,0,0,0,0,0,1,
scooby_state_55fe0cfa9ed6|49|8 1,0,0,0,0,0,0,0,0,0,0,0,0,0,0,1,
scooby_state_55fe0cfa9ed6|62|44 1,0,0,0,0,0,0,0,0,0,0,0,0,0,0,1,
scooby_state_55fe0cfa9e77|11|11 1,0,0,0,0,0,0,0,0,0,0,0,0,0,0,1,
scooby_state_55fe0cfa9ed6|15|8 1,0,0,0,0,0,0,0,0,0,0,0,0,0,0,1,
scooby_state_55fe0cfa9ed6|62|18 1,0,0,0,0,0,0,0,0,0,0,0,0,0,0,1,
scooby_state_14e34581dd00|52|0 1,0,0,0,0,0,0,0,0,0,0,0,0,0,0,1,
scooby_state_55fe0cfa9ed6|47|7 1,0,0,0,0,0,0,0,0,0,0,0,0,0,0,1,
scooby_state_55fe0cfa9ebf|34|16 0,0,0,0,0,0,0,1,0,0,0,0,0,0,0,1,
scooby_state_14e344e498d7|35|1 1,0,0,0,0,0,0,0,0,0,0,0,0,0,0,1,
scooby_state_14e344e7a370|13|1 1,0,0,0,0,0,0,0,0,0,0,0,0,0,0,1,
scooby_state_55fe0cfa9ed6|51|27 1,0,0,0,0,0,0,0,0,0,0,0,0,0,0,1,
scooby_state_55fe0cfa9ec6|16|7 1,0,0,0,0,0,0,0,0,0,0,0,0,0,0,1,
scooby_state_55fe0cfa9ec6|32|3 1,0,0,0,0,0,0,0,0,0,0,0,0,0,0,1,
scooby_state_55fe0cfa9ebf|54|16 0,1,0,0,0,0,0,0,0,0,0,0,0,0,0,1,
scooby_state_55fe0cfa9e77|43|8 0,0,0,0,0,0,0,0,0,0,0,0,1,0,0,1,
scooby_state_55fe0cfa9ec6|30|3 1,0,0,0,0,0,0,0,0,0,0,0,0,0,0,1,
scooby_state_14e344e9e120|4|0 1,0,0,0,0,0,0,0,0,0,0,0,0,0,0,1,
scooby_state_55fe0cfa9ebf|60|42 0,0,0,0,0,0,0,1,0,0,0,0,0,0,0,1,
scooby_state_55fe0cfa9ed6|38|37 1,0,0,0,0,0,0,0,0,0,0,0,0,0,0,1,
scooby_state_14e344e7b2a0|10|-3 1,0,0,0,0,0,0,0,0,0,0,0,0,0,0,1,
scooby_state_14e344e48543|21|-18 1,0,0,0,0,0,0,0,0,0,0,0,0,0,0,1,
scooby_state_55fe0cfa9f0a|19|0 1,0,0,0,0,0,0,0,0,0,0,0,0,0,0,1,
scooby_state_55fe0cfa9ec6|59|1 1,0,0,0,0,0,0,0,0,0,0,0,0,0,0,1,
scooby_state_14e344ea897f|16|-13 1,0,0,0,0,0,0,0,0,0,0,0,0,0,0,1,
scooby_state_55fe0cfa9f15|15|0 0,0,1,0,0,0,0,0,0,0,0,0,0,0,0,1,
scooby_state_55fe0cfa9ebf|36|5 1,0,0,0,0,0,0,0,0,0,0,0,0,0,0,1,
scooby_state_55fe0cfa9ed6|36|30 1,0,0,0,0,0,0,0,0,0,0,0,0,0,0,1,
scooby_state_55fe0cfa9eca|5|-12 0,0,0,1,0,0,0,0,0,0,0,0,0,0,0,1,
scooby_state_55fe0cfaa104|4|1 1,0,0,0,0,0,0,0,0,0,0,0,0,0,0,1,
scooby_state_55fe0cfa9e77|30|16 1,0,0,0,0,0,0,0,0,0,0,0,0,0,0,1,
scooby_state_55fe0cfa9ebf|48|3 0,0,0,0,0,0,1,0,0,0,0,0,0,0,0,1,
scooby_state_55fe0cfa9ed6|31|27 1,0,0,0,0,0,0,0,0,0,0,0,0,0,0,1,
scooby_state_55fe0cfa9ec6|51|8 0,1,0,0,0,0,0,0,0,0,0,0,0,0,0,1,
scooby_state_55fe0cfa9ec6|56|11 1,0,0,0,0,0,0,0,0,0,0,0,0,0,0,1,
scooby_state_55fe0cfa9ebf|23|7 1,0,0,0,0,0,0,0,0,0,0,0,0,0,0,1,
scooby_state_55fe0cfa9e77|46|10 1,0,0,0,0,0,0,0,0,0,0,0,0,0,0,1,
scooby_state_55fe0cfa9ec6|35|9 0,1,0,0,0,0,0,0,0,0,0,0,0,0,0,1,
scooby_state_55fe0cfa9ed6|59|19 1,0,0,0,0,0,0,0,0,0,0,0,0,0,0,1,
scooby_state_55fe0cfa9ed6|42|25 1,0,0,0,0,0,0,0,0,0,0,0,0,0,0,1,
scooby_state_55fe0cfa9ed6|49|38 1,0,0,0,0,0,0,0,0,0,0,0,0,0,0,1,
scooby_state_55fe0cfa9ec6|7|3 0,0,0,0,0,1,0,0,0,0,0,0,0,0,0,1,
scooby_state_55fe0cfa9e77|28|8 0,0,0,0,0,0,0,0,0,0,0,0,0,0,1,1,
scooby_state_55fe0cfa9ebf|15|10 0,0,0,1,0,0,0,0,0,0,0,0,0,0,0,1,
scooby_state_55fe0cfa9e77|21|21 1,0,0,0,0,0,0,0,0,0,0,0,0,0,0,1,
scooby_state_55fe0cfa9ec6|35|14 0,0,0,0,0,0,0,0,0,0,0,0,0,1,0,1,
scooby_state_14e344e84978|35|-1 1,0,0,0,0,0,0,0,0,0,0,0,0,0,0,1,
scooby_state_55fe0cfa9ec6|48|8 0,0,0,0,0,0,0,0,0,1,0,0,0,0,0,1,
scooby_state_55fe0cfa9ec6|41|3 1,0,0,0,0,0,0,0,0,0,0,0,0,0,0,1,
scooby_state_55fe0cfa9ec6|7|4 1,0,0,0,0,0,0,0,0,0,0,0,0,0,0,1,
scooby_state_55fe0cfa9ec6|12|2 1,0,0,0,0,0,0,0,0,0,0,0,0,0,0,1,
scooby_state_55fe0cfa9ec6|22|1 1,0,0,0,0,0,0,0,0,0,0,0,0,0,0,1,
scooby_state_55fe0cfa9ec6|30|1 0,0,0,0,0,0,0,0,0,0,0,0,1,0,0,1,
scooby_state_55fe0cfa9ed6|56|20 1,0,0,0,0,0,0,0,0,0,0,0,0,0,0,1,
scooby_state_55fe0cfa9ed6|27|27 1,0,0,0,0,0,0,0,0,0,0,0,0,0,0,1,
scooby_state_55fe0cfa9ed6|51|49 1,0,0,0,0,0,0,0,0,0,0,0,0,0,0,1,
scooby_state_55fe0cfa9ebf|27|10 0,0,0,0,0,0,0,0,0,0,0,0,1,0,0,1,
scooby_state_55fe0cfa9ed6|50|2 1,0,0,0,0,0,0,0,0,0,0,0,0,0,0,1,
scooby_state_55fe0cfa9e77|24|11 0,0,0,0,0,0,0,0,0,0,0,1,0,0,0,1,
scooby_state_55fe0cfa9e77|61|8 1,0,0,0,0,0,0,0,0,0,0,0,0,0,0,1,
scooby_state_55fe0cfa9ed6|46|11 1,0,0,0,0,0,0,0,0,0,0,0,0,0,0,1,
scooby_state_55fe0cfa9ec6|20|15 0,0,0,0,0,0,0,0,0,0,1,0,0,0,0,1,
scooby_state_55fe0cfa9e77|37|11 1,0,0,0,0,0,0,0,0,0,0,0,0,0,0,1,
scooby_state_55fe0cfa9ebf|33|9 1,0,0,0,0,0,0,0,0,0,0,0,0,0,0,1,
scooby_state_55fe0cfa9eca|47|-5 1,0,0,0,0,0,0,0,0,0,0,0,0,0,0,1,
scooby_state_55fe0cfa9ed6|34|10 1,0,0,0,0,0,0,0,0,0,0,0,0,0,0,1,
scooby_state_55fe0cfa9ebf|38|2 0,0,0,0,0,0,0,0,0,0,0,0,0,0,1,1,
scooby_state_55fe0cfa9e77|30|10 1,0,0,0,0,0,0,0,0,0,0,0,0,0,0,1,
scooby_state_55fe0cfa9e77|30|4 1,0,0,0,0,0,0,0,0,0,0,0,0,0,0,1,
scooby_state_55fe0cfa9ed6|54|46 1,0,0,0,0,0,0,0,0,0,0,0,0,0,0,1,
scooby_state_55fe0cfa9e77|32|4 1,0,0,0,0,0,0,0,0,0,0,0,0,0,0,1,
scooby_state_55fe0cfa9ed6|60|12 1,0,0,0,0,0,0,0,0,0,0,0,0,0,0,1,
scooby_state_55fe0cfa9ed6|52|22 1,0,0,0,0,0,0,0,0,0,0,0,0,0,0,1,
scooby_state_55fe0cfa9ed6|62|27 1,0,0,0,0,0,0,0,0,0,0,0,0,0,0,1,
scooby_state_55fe0cfa9ec6|50|16 0,0,0,0,0,0,0,0,0,1,0,0,0,0,0,1,
scooby_state_55fe0cfa9eca|2|-36 0,0,0,0,0,0,0,0,0,0,1,0,0,0,0,1,
scooby_state_55fe0cfa9ed6|50|6 1,0,0,0,0,0,0,0,0,0,0,0,0,0,0,1,
scooby_state_55fe0cfa9ec6|49|9 1,0,0,0,0,0,0,0,0,0,0,0,0,0,0,1,
scooby_state_55fe0cfa9ee2|1|-41 1,0,0,0,0,0,0,0,0,0,0,0,0,0,0,1,
scooby_state_55fe0cfa9ed6|33|14 1,0,0,0,0,0,0,0,0,0,0,0,0,0,0,1,
scooby_state_55fe0cfa9e77|36|13 1,0,0,0,0,0,0,0,0,0,0,0,0,0,0,1,
scooby_state_55fe0cfa9e77|41|31 0,0,0,0,0,0,0,0,0,0,0,0,0,1,0,1,
scooby_state_55fe0cfa9ec6|27|8 0,0,1,0,0,0,0,0,0,0,0,0,0,0,0,1,
scooby_state_55fe0cfa9e70|38|1 0,0,0,0,0,0,0,0,0,0,0,0,0,0,1,1,
scooby_state_55fe0cfa9ec6|9|2 1,0,0,0,0,0,0,0,0,0,0,0,0,0,0,1,
scooby_state_55fe0cfa9e77|28|19 0,0,0,0,0,0,0,0,0,0,0,1,0,0,0,1,
scooby_state_55fe0cfa9ed6|28|6 1,0,0,0,0,0,0,0,0,0,0,0,0,0,0,1,
scooby_state_55fe0cfa9f15|14|0 0,0,0,0,0,0,0,1,0,0,0,0,0,0,0,1,
scooby_state_55fe0cfa9e77|40|12 0,0,0,0,0,0,0,0,0,0,0,1,0,0,0,1,
scooby_state_55fe0cfa9ebf|24|5 0,0,0,0,0,0,0,0,0,0,0,0,0,0,1,1,
scooby_state_55fe0cfa8600|59|2 1,0,0,0,0,0,0,0,0,0,0,0,0,0,0,1,
scooby_state_55fe0cfaa284|10|1 1,0,0,0,0,0,0,0,0,0,0,0,0,0,0,1,
scooby_state_55fe0cfa9e77|51|15 0,0,0,0,1,0,0,0,0,0,0,0,0,0,0,1,
scooby_state_55fe0cfa9ed6|47|35 1,0,0,0,0,0,0,0,0,0,0,0,0,0,0,1,
scooby_state_55fe0cfa9ed6|52|3 1,0,0,0,0,0,0,0,0,0,0,0,0,0,0,1,
scooby_state_55fe0cfa9ec6|35|1 1,0,0,0,0,0,0,0,0,0,0,0,0,0,0,1,
scooby_state_55fe0cfa9ed6|35|35 1,0,0,0,0,0,0,0,0,0,0,0,0,0,0,1,
scooby_state_55fe0cfa9ed6|53|45 1,0,0,0,0,0,0,0,0,0,0,0,0,0,0,1,
scooby_state_55fe0cfa9ed6|23|21 1,0,0,0,0,0,0,0,0,0,0,0,0,0,0,1,
scooby_state_55fe0cfa9e70|40|1 1,0,0,0,0,0,0,0,0,0,0,0,0,0,0,1,
scooby_state_55fe0cfa9e77|59|31 1,0,0,0,0,0,0,0,0,0,0,0,0,0,0,1,
scooby_state_55fe0cfa9ed6|63|21 1,0,0,0,0,0,0,0,0,0,0,0,0,0,0,1,
scooby_state_55fe0cfa9ebf|37|11 1,0,0,0,0,0,0,0,0,0,0,0,0,0,0,1,
scooby_state_55fe0cfa9eca|31|-23 1,0,0,0,0,0,0,0,0,0,0,0,0,0,0,1,
scooby_state_55fe0cfa9ed6|21|8 1,0,0,0,0,0,0,0,0,0,0,0,0,0,0,1,
scooby_state_55fe0cfa9eca|43|-12 0,0,0,0,0,0,0,0,0,0,0,0,0,0,1,1,
scooby_state_55fe0cfa9ebf|44|30 0,0,0,1,0,0,0,0,0,0,0,0,0,0,0,1,
scooby_state_55fe0cfa9e70|52|1 0,0,0,0,0,0,0,0,0,1,0,0,0,0,0,1,
scooby_state_55fe0cfa9e77|44|9 1,0,0,0,0,0,0,0,0,0,0,0,0,0,0,1,
scooby_state_55fe0cfa9ed6|47|23 1,0,0,0,0,0,0,0,0,0,0,0,0,0,0,1,
scooby_state_55fe0cfa9ebf|30|6 0,1,0,0,0,0,0,0,0,0,0,0,0,0,0,1,
scooby_state_55fe0cfa9ec6|21|10 0,0,0,0,0,0,0,0,0,0,0,0,0,0,1,1,
scooby_state_55fe0cfa9ebf|59|8 1,0,0,0,0,0,0,0,0,0,0,0,0,0,0,1,
scooby_state_55fe0cfa9ed6|18|8 1,0,0,0,0,0,0,0,0,0,0,0,0,0,0,1,
scooby_state_55fe0cfa8b30|44|18 1,0,0,0,0,0,0,0,0,0,0,0,0,0,0,1,
scooby_state_55fe0cfa9ed6|50|12 1,0,0,0,0,0,0,0,0,0,0,0,0,0,0,1,
scooby_state_55fe0cfa9ed6|37|8 1,0,0,0,0,0,0,0,0,0,0,0,0,0,0,1,
scooby_state_55fe0cfa9ec6|12|3 0,0,0,0,0,0,0,0,0,0,0,0,0,0,1,1,
scooby_state_14e344e78930|36|0 1,0,0,0,0,0,0,0,0,0,0,0,0,0,0,1,
scooby_state_55fe0cfa9ebf|56|54 0,0,0,0,0,0,1,0,0,0,0,0,0,0,0,1,
scooby_state_55fe0cfa9ed6|63|62 1,0,0,0,0,0,0,0,0,0,0,0,0,0,0,1,
scooby_state_55fe0cfa9ec6|20|8 0,0,0,0,0,1,0,0,0,0,0,0,0,0,0,1,
scooby_state_55fe0cfa9ebf|28|7 1,0,0,0,0,0,0,0,0,0,0,0,0,0,0,1,
scooby_state_55fe0cfa9e70|44|1 0,0,0,0,0,0,0,0,0,0,0,0,0,1,0,1,
scooby_state_55fe0cfa9e77|12|8 1,0,0,0,0,0,0,0,0,0,0,0,0,0,0,1,
scooby_state_55fe0cfa9e77|22|3 0,0,0,0,0,0,0,0,0,0,0,0,0,0,1,1,
scooby_state_55fe0cfa9ed6|51|10 1,0,0,0,0,0,0,0,0,0,0,0,0,0,0,1,
scooby_state_55fe0cfa9e77|45|12 0,0,0,0,0,0,0,0,0,0,0,0,0,0,1,1,
scooby_state_14e344f1f247|33|0 1,0,0,0,0,0,0,0,0,0,0,0,0,0,0,1,
scooby_state_55fe0cfa9eca|18|-13 0,0,0,0,0,0,0,0,0,0,0,0,0,0,1,1,
scooby_state_55fe0cfa9eca|8|-48 0,0,0,0,0,0,0,0,0,1,0,0,0,0,0,1,
scooby_state_55fe0cfa9eca|7|-23 0,0,0,0,0,0,0,0,0,0,0,0,1,0,0,1,
scooby_state_55fe0cfa9ed6|5|4 1,0,0,0,0,0,0,0,0,0,0,0,0,0,0,1,
scooby_state_55fe0cfa9ed6|59|20 1,0,0,0,0,0,0,0,0,0,0,0,0,0,0,1,
scooby_state_55fe0cfa9e77|50|18 1,0,0,0,0,0,0,0,0,0,0,0,0,0,0,1,
scooby_state_55fe0cfa9e77|49|7 0,0,0,0,1,0,0,0,0,0,0,0,0,0,0,1,
scooby_state_55fe0cfa9ec6|36|14 1,0,0,0,0,0,0,0,0,0,0,0,0,0,0,1,
scooby_state_55fe0cfa9eca|7|-9 0,0,0,0,0,0,0,0,0,1,0,0,0,0,0,1,
scooby_state_55fe0cfa8500|57|0 1,0,0,0,0,0,0,0,0,0,0,0,0,0,0,1,
scooby_state_55fe0cfa9e77|26|24 0,0,1,0,0,0,0,0,0,0,0,0,0,0,0,1,
scooby_state_55fe0cfa9e77|19|5 1,0,0,0,0,0,0,0,0,0,0,0,0,0,0,1,
scooby_state_55fe0cfa9ed6|62|40 1,0,0,0,0,0,0,0,0,0,0,0,0,0,0,1,
scooby_state_55fe0cfa9e77|43|1 1,0,0,0,0,0,0,0,0,0,0,0,0,0,0,1,
scooby_state_55fe0cfa9e77|26|13 1,0,0,0,0,0,0,0,0,0,0,0,0,0,0,1,
scooby_state_55fe0cfa9ebf|19|8 1,0,0,0,0,0,0,0,0,0,0,0,0,0,0,1,
scooby_state_55fe0cfa9ec6|12|6 0,1,0,0,0,0,0,0,0,0,0,0,0,0,0,1,
scooby_state_55fe0cfa9ebf|23|23 0,0,0,0,0,0,0,0,0,0,1,0,0,0,0,1,
scooby_state_55fe0cfa9e77|12|7 1,0,0,0,0,0,0,0,0,0,0,0,0,0,0,1,
scooby_state_55fe0cfa9e77|34|7 1,0,0,0,0,0,0,0,0,0,0,0,0,0,0,1,
scooby_state_55fe0cfa9f0a|45|0 1,0,0,0,0,0,0,0,0,0,0,0,0,0,0,1,
scooby_state_55fe0cfa9ec6|44|3 1,0,0,0,0,0,0,0,0,0,0,0,0,0,0,1,
scooby_state_55fe0cfa9ec6|47|8 0,0,0,0,0,0,0,0,0,0,0,0,0,0,1,1,
scooby_state_55fe0cfa9eca|53|-7 1,0,0,0,0,0,0,0,0,0,0,0,0,0,0,1,
scooby_state_55fe0cfa9ec6|2|1 1,0,0,0,0,0,0,0,0,0,0,0,0,0,0,1,
scooby_state_55fe0cfa9ec6|34|2 0,0,0,0,0,0,0,0,0,0,0,0,0,0,1,1,
scooby_state_55fe0cfa9e77|55|1 1,0,0,0,0,0,0,0,0,0,0,0,0,0,0,1,
scooby_state_55fe0cfa9ed6|32|13 1,0,0,0,0,0,0,0,0,0,0,0,0,0,0,1,
scooby_state_55fe0cfa9ec6|42|4 1,0,0,0,0,0,0,0,0,0,0,0,0,0,0,1,
scooby_state_14e344e8531c|10|5 1,0,0,0,0,0,0,0,0,0,0,0,0,0,0,1,
scooby_state_55fe0cfa9e77|28|26 0,0,0,0,0,0,0,0,0,0,0,0,0,1,0,1,
scooby_state_55fe0cfa9ec6|31|5 1,0,0,0,0,0,0,0,0,0,0,0,0,0,0,1,
scooby_state_55fe0cfa9ebf|3|2 1,0,0,0,0,0,0,0,0,0,0,0,0,0,0,1,
scooby_state_55fe0cfa9ec6|63|8 1,0,0,0,0,0,0,0,0,0,0,0,0,0,0,1,
scooby_state_55fe0cfa9ed6|24|10 1,0,0,0,0,0,0,0,0,0,0,0,0,0,0,1,
scooby_state_55fe0cfa9e77|23|1 1,0,0,0,0,0,0,0,0,0,0,0,0,0,0,1,
scooby_state_55fe0cfa9ed6|55|41 1,0,0,0,0,0,0,0,0,0,0,0,0,0,0,1,
scooby_state_55fe0cfa9ed6|52|44 1,0,0,0,0,0,0,0,0,0,0,0,0,0,0,1,
scooby_state_55fe0cfa9ed6|32|27 1,0,0,0,0,0,0,0,0,0,0,0,0,0,0,1,
scooby_state_55fe0cfa9e7b|24|0 0,0,0,0,0,0,0,0,0,0,0,0,1,0,0,1,
scooby_state_55fe0cfa9ec6|24|3 1,0,0,0,0,0,0,0,0,0,0,0,0,0,0,1,
scooby_state_55fe0cfa9ebf|41|20 0,0,0,0,0,0,0,0,0,0,0,0,0,1,0,1,
scooby_state_55fe0cfa9ed6|39|3 1,0,0,0,0,0,0,0,0,0,0,0,0,0,0,1,
scooby_state_55fe0cfa9ed6|30|14 1,0,0,0,0,0,0,0,0,0,0,0,0,0,0,1,
scooby_state_55fe0cfa9ed6|37|31 1,0,0,0,0,0,0,0,0,0,0,0,0,0,0,1,
scooby_state_55fe0cfa9ec6|49|6 0,0,0,0,0,0,0,0,0,0,0,1,0,0,0,1,

scooby_action_0_deg_dist 0,1292946,0,0,0,0,0,0,0,0,0,0,0,0,0,0,
scooby_action_-6_deg_dist 0,18030,63,0,20,0,0,0,0,0,0,0,0,0,0,0,
scooby_action_4_deg_dist 0,27433,772,0,543,0,118,0,0,0,0,0,0,0,0,0,
scooby_action_1_deg_dist 0,2208893,295771,0,244622,0,418241,0,0,0,0,0,0,0,0,0,
scooby_action_30_deg_dist 0,14042,47,0,16,0,0,0,0,0,0,0,0,0,0,0,
scooby_action_5_deg_dist 0,24605,528,0,353,0,82,0,0,0,0,0,0,0,0,0,
scooby_action_3_deg_dist 0,24211,210,0,32,0,2,0,0,0,0,0,0,0,0,0,
scooby_action_32_deg_dist 0,14074,32,0,3,0,0,0,0,0,0,0,0,0,0,0,
scooby_action_10_deg_dist 0,20675,227,0,119,0,16,0,0,0,0,0,0,0,0,0,
scooby_action_11_deg_dist 0,20035,116,0,14,0,0,0,0,0,0,0,0,0,0,0,
scooby_action_12_deg_dist 0,19276,268,0,130,0,12,0,0,0,0,0,0,0,0,0,
scooby_action_22_deg_dist 0,16190,74,0,36,0,4,0,0,0,0,0,0,0,0,0,
scooby_action_23_deg_dist 0,15645,60,0,9,0,0,0,0,0,0,0,0,0,0,0,
scooby_action_-1_deg_dist 0,18131,55,0,20,0,6,0,0,0,0,0,0,0,0,0,
scooby_action_-3_deg_dist 0,18063,57,0,12,0,3,0,0,0,0,0,0,0,0,0,

scooby_track_called 4714942
scooby_track_same_address 8334
scooby_track_evict 4706352

scooby_reward_demand_called 4714942
scooby_reward_demand_pt_not_found 4174778
scooby_reward_demand_pt_found 540164
scooby_reward_demand_pt_found_total 540164
scooby_reward_demand_has_reward 28
scooby_reward_train_called 4062321
scooby_reward_assign_reward_called 4706375
scooby_reward_no_pref 1292871
scooby_reward_incorrect 2769450
scooby_reward_correct_untimely 431645
scooby_reward_correct_timely 108491
scooby_reward_out_of_bounds 103918
scooby_reward_tracker_hit 0

scooby_reward_none_low_bw 1292871
scooby_reward_none_high_bw 0
scooby_reward_incorrect_low_bw 2769450
scooby_reward_incorrect_high_bw 0
scooby_reward_correct_untimely_low_bw 431645
scooby_reward_correct_untimely_high_bw 0
scooby_reward_correct_timely_low_bw 108491
scooby_reward_correct_timely_high_bw 0
scooby_reward_out_of_bounds_low_bw 103918
scooby_reward_out_of_bounds_high_bw 0
scooby_reward_tracker_hit_low_bw 0
scooby_reward_tracker_hit_high_bw 0

scooby_reward_1 0,2590862,424747,99887,47443,0,
scooby_reward_3 0,20071,1084,882,1903,0,
scooby_reward_4 0,21369,2812,1497,2679,0,
scooby_reward_5 0,19564,1212,1403,3014,0,
scooby_reward_10 0,14443,497,987,4886,0,
scooby_reward_11 0,13559,459,902,5055,0,
scooby_reward_12 0,12878,354,937,5385,0,
scooby_reward_22 0,7903,164,631,7550,0,
scooby_reward_23 0,7259,127,564,7709,0,
scooby_reward_30 0,4859,68,376,8770,0,
scooby_reward_32 0,4638,58,423,8944,0,
scooby_reward_-1 0,17591,22,0,37,0,
scooby_reward_-3 0,17405,22,0,136,0,
scooby_reward_-6 0,17049,19,2,407,0,
scooby_reward_0 1292871,0,0,0,0,0,

scooby_train_called 4706351
scooby_train_compute_reward 4062321

scooby_register_fill_called 3918074
scooby_register_fill_set 2691718
scooby_register_fill_set_total 2691718

scooby_register_prefetch_hit_called 1493572
scooby_register_prefetch_hit_set 499305
scooby_register_prefetch_hit_set_total 499305

scooby_pref_issue_scooby 6169163

learning_engine_featurewise.action.called 4714942
learning_engine_featurewise.action.explore 8628
learning_engine_featurewise.action.exploit 4706314
learning_engine_featurewise.action.fallback 2653770
learning_engine_featurewise.action.dyn_fallback_saved_bw 0
learning_engine_featurewise.action.dyn_fallback_saved_bw_acc 1743285
learning_engine_featurewise.action.index_1_explored 584
learning_engine_featurewise.action.index_1_exploited 3166943
learning_engine_featurewise.action.index_3_explored 591
learning_engine_featurewise.action.index_3_exploited 23864
learning_engine_featurewise.action.index_4_explored 583
learning_engine_featurewise.action.index_4_exploited 28283
learning_engine_featurewise.action.index_5_explored 546
learning_engine_featurewise.action.index_5_exploited 25022
learning_engine_featurewise.action.index_10_explored 612
learning_engine_featurewise.action.index_10_exploited 20425
learning_engine_featurewise.action.index_11_explored 580
learning_engine_featurewise.action.index_11_exploited 19585
learning_engine_featurewise.action.index_12_explored 602
learning_engine_featurewise.action.index_12_exploited 19084
learning_engine_featurewise.action.index_22_explored 570
learning_engine_featurewise.action.index_22_exploited 15734
learning_engine_featurewise.action.index_23_explored 579
learning_engine_featurewise.action.index_23_exploited 15135
learning_engine_featurewise.action.index_30_explored 576
learning_engine_featurewise.action.index_30_exploited 13529
learning_engine_featurewise.action.index_32_explored 529
learning_engine_featurewise.action.index_32_exploited 13580
learning_engine_featurewise.action.index_-1_explored 578
learning_engine_featurewise.action.index_-1_exploited 17634
learning_engine_featurewise.action.index_-3_explored 556
learning_engine_featurewise.action.index_-3_exploited 17579
learning_engine_featurewise.action.index_-6_explored 566
learning_engine_featurewise.action.index_-6_exploited 17547
learning_engine_featurewise.action.index_0_explored 576
learning_engine_featurewise.action.index_0_exploited 1292370
learning_engine_featurewise.learn.called 4706351
learning_engine_featurewise.learn.su_skip_PC 0
learning_engine_featurewise.learn.su_skip_PC_Delta 0

learning_engine_featurewise.q_value_histogram.bucket_0 1589669
learning_engine_featurewise.q_value_histogram.bucket_1 41432
learning_engine_featurewise.q_value_histogram.bucket_2 2703048
learning_engine_featurewise.q_value_histogram.bucket_3 24926
learning_engine_featurewise.q_value_histogram.bucket_4 15661
learning_engine_featurewise.q_value_histogram.bucket_5 202402
learning_engine_featurewise.q_value_histogram.bucket_6 129176
learning_engine_featurewise.q_value_histogram.bucket_7 0

learning_engine_featurewise.consensus.total 4706314
learning_engine_featurewise.consensus.feature_align_PC 3172712
learning_engine_featurewise.consensus.feature_align_PC_ratio 0.67
learning_engine_featurewise.consensus.feature_align_PC_Delta 3213935
learning_engine_featurewise.consensus.feature_align_PC_Delta_ratio 0.68
learning_engine_featurewise.consensus.feature_align_all 3169351
learning_engine_featurewise.consensus.feature_align_all_ratio 0.67

learning_engine_featurewise.feature_PC_min_weight 1000000.00000000
learning_engine_featurewise.feature_PC_max_weight 0.00000000
learning_engine_featurewise.feature_PC_Delta_min_weight 1000000.00000000
learning_engine_featurewise.feature_PC_Delta_max_weight 0.00000000
unique_pcs 301
unique_pages 9555
unique_trigger_pcs 70
total_bitmaps_seen 0
unique_bitmaps_seen 0

scooby_bw_epochs 1286288
scooby_bw_level_0 603561
scooby_bw_level_1 572126
scooby_bw_level_2 88360
scooby_bw_level_3 22241

scooby_ipc_epochs 0
scooby_ipc_level_0 0
scooby_ipc_level_1 0
scooby_ipc_level_2 0
scooby_ipc_level_3 0

scooby_cache_acc_epochs 268608
scooby_cache_acc_level_0 140635
scooby_cache_acc_level_1 98687
scooby_cache_acc_level_2 21429
scooby_cache_acc_level_3 4850
scooby_cache_acc_level_4 682
scooby_cache_acc_level_5 599
scooby_cache_acc_level_6 926
scooby_cache_acc_level_7 144
scooby_cache_acc_level_8 80
scooby_cache_acc_level_9 576

Channel_0_RQ_row_buffer_hit 812591
Channel_0_RQ_row_buffer_miss 2894223
Channel_0_WQ_row_buffer_hit 297922
Channel_0_WQ_row_buffer_miss 663486
Channel_0_WQ_full 0
Channel_0_dbus_congested 2213377

avg_congested_cycle 9

DRAM_bw_pochs 1286288
DRAM_bw_level_0 603561
DRAM_bw_level_1 572126
DRAM_bw_level_2 88360
DRAM_bw_level_3 22241
