*************************************************
   ChampSim Multicore Out-of-Order Simulator
   Last compiled: Apr  3 2025 20:54:34
*************************************************
parsing config file: /home/zir/Pythia/config/spp_dev2.ini

trace_0 /home/zir/ChampSim/ML-DPC/ChampSimTraces/gap/sssp-10.trace.gz
adding L2C_PREFETCHER: SPP_dev2
Initialize SIGNATURE TABLE
ST_SET: 1
ST_WAY: 256
ST_TAG_BIT: 16
ST_TAG_MASK: ffff

Initialize PATTERN TABLE
PT_SET: 512
PT_WAY: 4
SIG_DELTA_BIT: 7
C_SIG_BIT: 4
C_DELTA_BIT: 4

Initialize PREFETCH FILTER
FILTER_SET: 1024
fill_threshold: 90
pf_threshold: 40

Initialize SHIP state
warmup_instructions 10000000
simulation_instructions 50000000
champsim_seed 97
measure_ipc 0
measure_ipc_epoch 1000
measure_dram_bw 1
measure_dram_bw_epoch 256
measure_cache_acc 1
measure_cache_acc_epoch 1024
l1d_perfect 0
l2c_perfect 0
llc_perfect 0
l1d_semi_perfect 0
l2c_semi_perfect 0
llc_semi_perfect 0
semi_perfect_cache_page_buffer_size 64

num_cpus 1
cpu_freq 4000
dram_io_freq 2400
page_size 4096
block_size 64
max_read_per_cycle 8
max_fill_per_cycle 1
dram_channels 1
log2_dram_channels 0
dram_ranks 1
dram_banks 8
dram_rows 65536
dram_columns 128
dram_row_size 8
dram_size 4096
dram_pages 1048576

fetch_width 6
decode_width 6
exec_width 4
lq_width 2
sq_width 2
retire_width 4
scheduler_size 128
branch_mispredict_penalty 20
rob_size 256
lq_size 72
sq_size 56
num_instr_destinations_sparc 4
num_instr_destinations 2
num_instr_sources 4

itlb_set 16
itlb_way 8
itlb_rq_size 16
itlb_wq_size 16
itlb_pq_size 0
itlb_mshr_size 8
itlb_latency 1

dtlb_set 16
dtlb_way 4
dtlb_rq_size 16
dtlb_wq_size 16
dtlb_pq_size 0
dtlb_mshr_size 8
dtlb_latency 1

stlb_set 128
stlb_way 12
stlb_rq_size 32
stlb_wq_size 32
stlb_pq_size 0
stlb_mshr_size 16
stlb_latency 8

l1i_size 32
l1i_set 64
l1i_way 8
l1i_rq_size 64
l1i_wq_size 64
l1i_pq_size 8
l1i_mshr_size 8
l1i_latency 1

l1d_size 32
l1d_set 64
l1d_way 8
l1d_rq_size 64
l1d_wq_size 64
l1d_pq_size 8
l1d_mshr_size 16
l1d_latency 4

l2c_size 256
l2c_set 512
l2c_way 8
l2c_rq_size 32
l2c_wq_size 32
l2c_pq_size 32
l2c_mshr_size 32
l2c_latency 10

llc_size 2048
llc_set 2048
llc_way 16
llc_rq_size 32
llc_wq_size 32
llc_pq_size 32
llc_mshr_size 64
llc_latency 20

dram_channel_width 8
dram_wq_size 64
dram_rq_size 64
tRP 15
tRCD 15
tCAS 12.5
dram_dbus_turn_around_time 30
dram_write_high_wm 56
dram_write_low_wm 48
min_dram_writes_per_switch 16
dram_mtps 2400
dram_dbus_return_time 13


Heartbeat CPU  0 instructions:    1000003 cycles:     266238 heartbeat IPC: 3.75605 cumulative IPC: 3.75605 (Simulation time: 0 hr 0 min 1 sec) 
Heartbeat CPU  0 instructions:    2000000 cycles:     767670 heartbeat IPC: 1.99428 cumulative IPC: 2.60529 (Simulation time: 0 hr 0 min 2 sec) 
Heartbeat CPU  0 instructions:    3000000 cycles:    1365815 heartbeat IPC: 1.67184 cumulative IPC: 2.19649 (Simulation time: 0 hr 0 min 3 sec) 
Heartbeat CPU  0 instructions:    4000000 cycles:    2039376 heartbeat IPC: 1.48465 cumulative IPC: 1.96138 (Simulation time: 0 hr 0 min 5 sec) 
Heartbeat CPU  0 instructions:    5000003 cycles:    2801628 heartbeat IPC: 1.31191 cumulative IPC: 1.78468 (Simulation time: 0 hr 0 min 6 sec) 
Heartbeat CPU  0 instructions:    6000000 cycles:    3661519 heartbeat IPC: 1.16293 cumulative IPC: 1.63866 (Simulation time: 0 hr 0 min 7 sec) 
Heartbeat CPU  0 instructions:    7000002 cycles:    4520263 heartbeat IPC: 1.16449 cumulative IPC: 1.54858 (Simulation time: 0 hr 0 min 8 sec) 
Heartbeat CPU  0 instructions:    8000000 cycles:    5394592 heartbeat IPC: 1.14373 cumulative IPC: 1.48297 (Simulation time: 0 hr 0 min 10 sec) 
Heartbeat CPU  0 instructions:    9000002 cycles:    6265754 heartbeat IPC: 1.14789 cumulative IPC: 1.43638 (Simulation time: 0 hr 0 min 11 sec) 
Heartbeat CPU  0 instructions:   10000000 cycles:    7128036 heartbeat IPC: 1.15971 cumulative IPC: 1.40291 (Simulation time: 0 hr 0 min 12 sec) 

Warmup complete CPU  0 instructions:   10000001 cycles:    7128037 (Simulation time: 0 hr 0 min 12 sec) 

Heartbeat CPU  0 instructions:   11000002 cycles:   11418146 heartbeat IPC: 0.23309 cumulative IPC: 0.23309 (Simulation time: 0 hr 0 min 14 sec) 
Heartbeat CPU  0 instructions:   12000000 cycles:   15871275 heartbeat IPC: 0.22456 cumulative IPC: 0.22875 (Simulation time: 0 hr 0 min 16 sec) 
Heartbeat CPU  0 instructions:   13000001 cycles:   20168094 heartbeat IPC: 0.23273 cumulative IPC: 0.23006 (Simulation time: 0 hr 0 min 18 sec) 
Heartbeat CPU  0 instructions:   14000002 cycles:   24571016 heartbeat IPC: 0.22712 cumulative IPC: 0.22932 (Simulation time: 0 hr 0 min 20 sec) 
Heartbeat CPU  0 instructions:   15000001 cycles:   28825049 heartbeat IPC: 0.23507 cumulative IPC: 0.23045 (Simulation time: 0 hr 0 min 22 sec) 
Heartbeat CPU  0 instructions:   16000000 cycles:   32918932 heartbeat IPC: 0.24427 cumulative IPC: 0.23264 (Simulation time: 0 hr 0 min 24 sec) 
Heartbeat CPU  0 instructions:   17000001 cycles:   36787294 heartbeat IPC: 0.25851 cumulative IPC: 0.23601 (Simulation time: 0 hr 0 min 26 sec) 
Heartbeat CPU  0 instructions:   18000001 cycles:   40567207 heartbeat IPC: 0.26456 cumulative IPC: 0.23924 (Simulation time: 0 hr 0 min 28 sec) 
Heartbeat CPU  0 instructions:   19000002 cycles:   44339615 heartbeat IPC: 0.26508 cumulative IPC: 0.24186 (Simulation time: 0 hr 0 min 30 sec) 
Heartbeat CPU  0 instructions:   20000000 cycles:   48172012 heartbeat IPC: 0.26093 cumulative IPC: 0.24364 (Simulation time: 0 hr 0 min 32 sec) 
Heartbeat CPU  0 instructions:   21000000 cycles:   51947268 heartbeat IPC: 0.26488 cumulative IPC: 0.24543 (Simulation time: 0 hr 0 min 34 sec) 
Heartbeat CPU  0 instructions:   22000003 cycles:   55627139 heartbeat IPC: 0.27175 cumulative IPC: 0.24743 (Simulation time: 0 hr 0 min 36 sec) 
Heartbeat CPU  0 instructions:   23000000 cycles:   59308648 heartbeat IPC: 0.27163 cumulative IPC: 0.24913 (Simulation time: 0 hr 0 min 38 sec) 
Heartbeat CPU  0 instructions:   24000000 cycles:   62907424 heartbeat IPC: 0.27787 cumulative IPC: 0.25099 (Simulation time: 0 hr 0 min 40 sec) 
Heartbeat CPU  0 instructions:   25000002 cycles:   66521803 heartbeat IPC: 0.27667 cumulative IPC: 0.25255 (Simulation time: 0 hr 0 min 42 sec) 
Heartbeat CPU  0 instructions:   26000000 cycles:   70299600 heartbeat IPC: 0.26470 cumulative IPC: 0.25328 (Simulation time: 0 hr 0 min 45 sec) 
Heartbeat CPU  0 instructions:   27000002 cycles:   73928602 heartbeat IPC: 0.27556 cumulative IPC: 0.25449 (Simulation time: 0 hr 0 min 47 sec) 
Heartbeat CPU  0 instructions:   28000000 cycles:   77663936 heartbeat IPC: 0.26771 cumulative IPC: 0.25519 (Simulation time: 0 hr 0 min 49 sec) 
Heartbeat CPU  0 instructions:   29000000 cycles:   81166824 heartbeat IPC: 0.28548 cumulative IPC: 0.25662 (Simulation time: 0 hr 0 min 51 sec) 
Heartbeat CPU  0 instructions:   30000002 cycles:   84684575 heartbeat IPC: 0.28427 cumulative IPC: 0.25788 (Simulation time: 0 hr 0 min 53 sec) 
Heartbeat CPU  0 instructions:   31000000 cycles:   88214327 heartbeat IPC: 0.28331 cumulative IPC: 0.25898 (Simulation time: 0 hr 0 min 55 sec) 
Heartbeat CPU  0 instructions:   32000000 cycles:   91727185 heartbeat IPC: 0.28467 cumulative IPC: 0.26005 (Simulation time: 0 hr 0 min 57 sec) 
Heartbeat CPU  0 instructions:   33000001 cycles:   95118677 heartbeat IPC: 0.29486 cumulative IPC: 0.26139 (Simulation time: 0 hr 0 min 59 sec) 
Heartbeat CPU  0 instructions:   34000003 cycles:   98481805 heartbeat IPC: 0.29734 cumulative IPC: 0.26271 (Simulation time: 0 hr 1 min 1 sec) 
Heartbeat CPU  0 instructions:   35000000 cycles:  101883029 heartbeat IPC: 0.29401 cumulative IPC: 0.26384 (Simulation time: 0 hr 1 min 3 sec) 
Heartbeat CPU  0 instructions:   36000000 cycles:  105170882 heartbeat IPC: 0.30415 cumulative IPC: 0.26519 (Simulation time: 0 hr 1 min 5 sec) 
Heartbeat CPU  0 instructions:   37000000 cycles:  108561055 heartbeat IPC: 0.29497 cumulative IPC: 0.26619 (Simulation time: 0 hr 1 min 7 sec) 
Heartbeat CPU  0 instructions:   38000003 cycles:  112090538 heartbeat IPC: 0.28333 cumulative IPC: 0.26676 (Simulation time: 0 hr 1 min 9 sec) 
Heartbeat CPU  0 instructions:   39000001 cycles:  115401666 heartbeat IPC: 0.30201 cumulative IPC: 0.26784 (Simulation time: 0 hr 1 min 12 sec) 
Heartbeat CPU  0 instructions:   40000000 cycles:  118662983 heartbeat IPC: 0.30662 cumulative IPC: 0.26897 (Simulation time: 0 hr 1 min 14 sec) 
Heartbeat CPU  0 instructions:   41000000 cycles:  121945763 heartbeat IPC: 0.30462 cumulative IPC: 0.26999 (Simulation time: 0 hr 1 min 16 sec) 
Heartbeat CPU  0 instructions:   42000002 cycles:  125289925 heartbeat IPC: 0.29903 cumulative IPC: 0.27081 (Simulation time: 0 hr 1 min 18 sec) 
Heartbeat CPU  0 instructions:   43000001 cycles:  128595856 heartbeat IPC: 0.30249 cumulative IPC: 0.27168 (Simulation time: 0 hr 1 min 20 sec) 
Heartbeat CPU  0 instructions:   44000000 cycles:  131821903 heartbeat IPC: 0.30998 cumulative IPC: 0.27267 (Simulation time: 0 hr 1 min 22 sec) 
Heartbeat CPU  0 instructions:   45000000 cycles:  135064288 heartbeat IPC: 0.30841 cumulative IPC: 0.27357 (Simulation time: 0 hr 1 min 24 sec) 
Heartbeat CPU  0 instructions:   46000000 cycles:  138459036 heartbeat IPC: 0.29457 cumulative IPC: 0.27412 (Simulation time: 0 hr 1 min 26 sec) 
Heartbeat CPU  0 instructions:   47000002 cycles:  141660938 heartbeat IPC: 0.31231 cumulative IPC: 0.27503 (Simulation time: 0 hr 1 min 28 sec) 
Heartbeat CPU  0 instructions:   48000000 cycles:  144874147 heartbeat IPC: 0.31121 cumulative IPC: 0.27587 (Simulation time: 0 hr 1 min 31 sec) 
Heartbeat CPU  0 instructions:   49000003 cycles:  148047480 heartbeat IPC: 0.31513 cumulative IPC: 0.27675 (Simulation time: 0 hr 1 min 33 sec) 
Heartbeat CPU  0 instructions:   50000001 cycles:  151205441 heartbeat IPC: 0.31666 cumulative IPC: 0.27763 (Simulation time: 0 hr 1 min 35 sec) 
Heartbeat CPU  0 instructions:   51000001 cycles:  154441175 heartbeat IPC: 0.30905 cumulative IPC: 0.27832 (Simulation time: 0 hr 1 min 37 sec) 
Heartbeat CPU  0 instructions:   52000000 cycles:  157697036 heartbeat IPC: 0.30714 cumulative IPC: 0.27894 (Simulation time: 0 hr 1 min 39 sec) 
Heartbeat CPU  0 instructions:   53000003 cycles:  160848729 heartbeat IPC: 0.31729 cumulative IPC: 0.27973 (Simulation time: 0 hr 1 min 41 sec) 
Heartbeat CPU  0 instructions:   54000001 cycles:  163964803 heartbeat IPC: 0.32092 cumulative IPC: 0.28055 (Simulation time: 0 hr 1 min 43 sec) 
Heartbeat CPU  0 instructions:   55000000 cycles:  167076971 heartbeat IPC: 0.32132 cumulative IPC: 0.28134 (Simulation time: 0 hr 1 min 46 sec) 
Heartbeat CPU  0 instructions:   56000000 cycles:  170147330 heartbeat IPC: 0.32569 cumulative IPC: 0.28218 (Simulation time: 0 hr 1 min 48 sec) 
Heartbeat CPU  0 instructions:   57000000 cycles:  173234366 heartbeat IPC: 0.32394 cumulative IPC: 0.28295 (Simulation time: 0 hr 1 min 50 sec) 
Heartbeat CPU  0 instructions:   58000000 cycles:  176308560 heartbeat IPC: 0.32529 cumulative IPC: 0.28372 (Simulation time: 0 hr 1 min 52 sec) 
Heartbeat CPU  0 instructions:   59000001 cycles:  179398314 heartbeat IPC: 0.32365 cumulative IPC: 0.28444 (Simulation time: 0 hr 1 min 54 sec) 
Heartbeat CPU  0 instructions:   60000000 cycles:  182553632 heartbeat IPC: 0.31692 cumulative IPC: 0.28502 (Simulation time: 0 hr 1 min 56 sec) 
Finished CPU 0 instructions: 50000001 cycles: 175425603 cumulative IPC: 0.28502 (Simulation time: 0 hr 1 min 56 sec) 

ChampSim completed all CPUs

[ROI Statistics]
Core_0_instructions 50000001
Core_0_cycles 175425603
Core_0_IPC 0.28502

Core_0_branch_prediction_accuracy 94.12279
Core_0_branch_MPKI 8.64524
Core_0_average_ROB_occupancy_at_mispredict 103.65855

Core_0_L1D_total_access 11830086
Core_0_L1D_total_hit 9230930
Core_0_L1D_total_miss 2599156
Core_0_L1D_loads 10498379
Core_0_L1D_load_hit 8184337
Core_0_L1D_load_miss 2314042
Core_0_L1D_RFOs 1331707
Core_0_L1D_RFO_hit 1046593
Core_0_L1D_RFO_miss 285114
Core_0_L1D_prefetches 0
Core_0_L1D_prefetch_hit 0
Core_0_L1D_prefetch_miss 0
Core_0_L1D_writebacks 0
Core_0_L1D_writeback_hit 0
Core_0_L1D_writeback_miss 0
Core_0_L1D_prefetch_requested 0
Core_0_L1D_prefetch_dropped 0
Core_0_L1D_prefetch_issued 0
Core_0_L1D_prefetch_filled 0
Core_0_L1D_prefetch_useful 0
Core_0_L1D_prefetch_useless 0
Core_0_L1D_prefetch_late 0
Core_0_L1D_average_miss_latency 96.15035

Core_0_L1D_rq_access 17886586
Core_0_L1D_rq_forward 0
Core_0_L1D_rq_merged 6873200
Core_0_L1D_rq_to_cache 11013386
Core_0_L1D_rq_full 0

Core_0_L1D_wq_access 1447494
Core_0_L1D_wq_forward 0
Core_0_L1D_wq_merged 966
Core_0_L1D_wq_to_cache 1446528
Core_0_L1D_wq_full 0

Core_0_L1D_pq_access 0
Core_0_L1D_pq_forward 0
Core_0_L1D_pq_merged 0
Core_0_L1D_pq_to_cache 0
Core_0_L1D_pq_full 0

Core_0_L1D_acc_epochs 177232
Core_0_L1D_acc_level_0 177232
Core_0_L1D_acc_level_1 0
Core_0_L1D_acc_level_2 0
Core_0_L1D_acc_level_3 0
Core_0_L1D_acc_level_4 0
Core_0_L1D_acc_level_5 0
Core_0_L1D_acc_level_6 0
Core_0_L1D_acc_level_7 0
Core_0_L1D_acc_level_8 0
Core_0_L1D_acc_level_9 0

Core_0_L1I_total_access 7363319
Core_0_L1I_total_hit 7363319
Core_0_L1I_total_miss 0
Core_0_L1I_loads 7363319
Core_0_L1I_load_hit 7363319
Core_0_L1I_load_miss 0
Core_0_L1I_RFOs 0
Core_0_L1I_RFO_hit 0
Core_0_L1I_RFO_miss 0
Core_0_L1I_prefetches 0
Core_0_L1I_prefetch_hit 0
Core_0_L1I_prefetch_miss 0
Core_0_L1I_writebacks 0
Core_0_L1I_writeback_hit 0
Core_0_L1I_writeback_miss 0
Core_0_L1I_prefetch_requested 0
Core_0_L1I_prefetch_dropped 0
Core_0_L1I_prefetch_issued 0
Core_0_L1I_prefetch_filled 0
Core_0_L1I_prefetch_useful 0
Core_0_L1I_prefetch_useless 0
Core_0_L1I_prefetch_late 0
Core_0_L1I_average_miss_latency -nan

Core_0_L1I_rq_access 50000129
Core_0_L1I_rq_forward 0
Core_0_L1I_rq_merged 42636810
Core_0_L1I_rq_to_cache 7363319
Core_0_L1I_rq_full 0

Core_0_L1I_wq_access 0
Core_0_L1I_wq_forward 0
Core_0_L1I_wq_merged 0
Core_0_L1I_wq_to_cache 0
Core_0_L1I_wq_full 0

Core_0_L1I_pq_access 0
Core_0_L1I_pq_forward 0
Core_0_L1I_pq_merged 0
Core_0_L1I_pq_to_cache 0
Core_0_L1I_pq_full 0

Core_0_L1I_acc_epochs 177232
Core_0_L1I_acc_level_0 177232
Core_0_L1I_acc_level_1 0
Core_0_L1I_acc_level_2 0
Core_0_L1I_acc_level_3 0
Core_0_L1I_acc_level_4 0
Core_0_L1I_acc_level_5 0
Core_0_L1I_acc_level_6 0
Core_0_L1I_acc_level_7 0
Core_0_L1I_acc_level_8 0
Core_0_L1I_acc_level_9 0

Core_0_L2C_total_access 3433254
Core_0_L2C_total_hit 1270450
Core_0_L2C_total_miss 2162804
Core_0_L2C_loads 2314039
Core_0_L2C_load_hit 258675
Core_0_L2C_load_miss 2055364
Core_0_L2C_RFOs 285096
Core_0_L2C_RFO_hit 188791
Core_0_L2C_RFO_miss 96305
Core_0_L2C_prefetches 19255
Core_0_L2C_prefetch_hit 10535
Core_0_L2C_prefetch_miss 8720
Core_0_L2C_writebacks 814864
Core_0_L2C_writeback_hit 812449
Core_0_L2C_writeback_miss 2415
Core_0_L2C_prefetch_requested 1023407
Core_0_L2C_prefetch_dropped 0
Core_0_L2C_prefetch_issued 1023407
Core_0_L2C_prefetch_filled 11397
Core_0_L2C_prefetch_useful 8693
Core_0_L2C_prefetch_useless 2700
Core_0_L2C_prefetch_late 10456
Core_0_L2C_average_miss_latency 98.67102

Core_0_L2C_rq_access 2599156
Core_0_L2C_rq_forward 0
Core_0_L2C_rq_merged 0
Core_0_L2C_rq_to_cache 2599135
Core_0_L2C_rq_full 0

Core_0_L2C_wq_access 814864
Core_0_L2C_wq_forward 21
Core_0_L2C_wq_merged 0
Core_0_L2C_wq_to_cache 814864
Core_0_L2C_wq_full 0

Core_0_L2C_pq_access 1023407
Core_0_L2C_pq_forward 0
Core_0_L2C_pq_merged 66352
Core_0_L2C_pq_to_cache 957055
Core_0_L2C_pq_full 0

Core_0_L2C_acc_epochs 177232
Core_0_L2C_acc_level_0 168682
Core_0_L2C_acc_level_1 1703
Core_0_L2C_acc_level_2 1375
Core_0_L2C_acc_level_3 977
Core_0_L2C_acc_level_4 640
Core_0_L2C_acc_level_5 1270
Core_0_L2C_acc_level_6 706
Core_0_L2C_acc_level_7 733
Core_0_L2C_acc_level_8 541
Core_0_L2C_acc_level_9 605

Core_0_LLC_total_access 3425317
Core_0_LLC_total_hit 2186475
Core_0_LLC_total_miss 1238842
Core_0_LLC_loads 2045069
Core_0_LLC_load_hit 1280382
Core_0_LLC_load_miss 764687
Core_0_LLC_RFOs 96302
Core_0_LLC_RFO_hit 40471
Core_0_LLC_RFO_miss 55831
Core_0_LLC_prefetches 761406
Core_0_LLC_prefetch_hit 375893
Core_0_LLC_prefetch_miss 385513
Core_0_LLC_writebacks 522540
Core_0_LLC_writeback_hit 489729
Core_0_LLC_writeback_miss 32811
Core_0_LLC_prefetch_requested 0
Core_0_LLC_prefetch_dropped 0
Core_0_LLC_prefetch_issued 0
Core_0_LLC_prefetch_filled 430208
Core_0_LLC_prefetch_useful 291935
Core_0_LLC_prefetch_useless 136153
Core_0_LLC_prefetch_late 14612
Core_0_LLC_average_miss_latency 178.47949

Core_0_LLC_rq_access 2141374
Core_0_LLC_rq_forward 0
Core_0_LLC_rq_merged 0
Core_0_LLC_rq_to_cache 2141371
Core_0_LLC_rq_full 0

Core_0_LLC_wq_access 522540
Core_0_LLC_wq_forward 3
Core_0_LLC_wq_merged 0
Core_0_LLC_wq_to_cache 522540
Core_0_LLC_wq_full 0

Core_0_LLC_pq_access 912533
Core_0_LLC_pq_forward 0
Core_0_LLC_pq_merged 14701
Core_0_LLC_pq_to_cache 897832
Core_0_LLC_pq_full 0

Core_0_LLC_acc_epochs 178276
Core_0_LLC_acc_level_0 4374
Core_0_LLC_acc_level_1 5808
Core_0_LLC_acc_level_2 8471
Core_0_LLC_acc_level_3 12261
Core_0_LLC_acc_level_4 14993
Core_0_LLC_acc_level_5 17306
Core_0_LLC_acc_level_6 21996
Core_0_LLC_acc_level_7 23486
Core_0_LLC_acc_level_8 22738
Core_0_LLC_acc_level_9 46843

Core_0_major_page_fault 0
Core_0_minor_page_fault 8928

spp.pref.total 1023407
spp.pref.at_L2 30404
spp.pref.at_LLC 993003

spp.depth.max 9
spp.depth.min 0
spp.depth.avg 0

spp.breadth.max 2
spp.breadth.min 0
spp.breadth.avg 0

delta_1 874055
delta_-1 166001
delta_2 2513
delta_3 127
delta_6 100
delta_10 73
delta_-2 62
delta_18 55
delta_-3 46
delta_4 28
delta_38 13
delta_-18 10
delta_-10 2
delta_7 2
delta_5 1
delta_8 1

depth_1_delta_1 431945
depth_1_delta_-1 44831
depth_1_delta_2 2513
depth_1_delta_3 127
depth_1_delta_6 100
depth_1_delta_10 73
depth_1_delta_-2 62
depth_1_delta_18 55
depth_1_delta_-3 46
depth_1_delta_4 28
depth_1_delta_38 13
depth_1_delta_-18 10
depth_1_delta_-10 2
depth_1_delta_7 2
depth_1_delta_5 1
depth_1_delta_8 1
depth_2_delta_1 299377
depth_2_delta_-1 35591
depth_3_delta_1 101943
depth_3_delta_-1 29814
depth_4_delta_1 27251
depth_4_delta_-1 24898
depth_5_delta_-1 17613
depth_5_delta_1 8852
depth_6_delta_-1 9366
depth_6_delta_1 3494
depth_7_delta_-1 3467
depth_7_delta_1 1046
depth_8_delta_-1 321
depth_8_delta_1 130
depth_9_delta_-1 100
depth_9_delta_1 17

Channel_0_RQ_row_buffer_hit 311914
Channel_0_RQ_row_buffer_miss 894110
Channel_0_WQ_row_buffer_hit 197821
Channel_0_WQ_row_buffer_miss 201246
Channel_0_WQ_full 0
Channel_0_dbus_congested 416016

avg_congested_cycle 10

DRAM_bw_pochs 713101
DRAM_bw_level_0 603196
DRAM_bw_level_1 102183
DRAM_bw_level_2 3433
DRAM_bw_level_3 4289
