*************************************************
   ChampSim Multicore Out-of-Order Simulator
   Last compiled: Apr  3 2025 20:54:34
*************************************************
parsing config file: /home/zir/Pythia/config/nopref.ini

trace_0 /home/zir/ChampSim/ML-DPC/ChampSimTraces/gap/pr-14.trace.gz
adding L2C_PREFETCHER: NONE
Initialize SHIP state
warmup_instructions 10000000
simulation_instructions 50000000
champsim_seed 101
measure_ipc 0
measure_ipc_epoch 1000
measure_dram_bw 1
measure_dram_bw_epoch 256
measure_cache_acc 1
measure_cache_acc_epoch 1024
l1d_perfect 0
l2c_perfect 0
llc_perfect 0
l1d_semi_perfect 0
l2c_semi_perfect 0
llc_semi_perfect 0
semi_perfect_cache_page_buffer_size 64

num_cpus 1
cpu_freq 4000
dram_io_freq 2400
page_size 4096
block_size 64
max_read_per_cycle 8
max_fill_per_cycle 1
dram_channels 1
log2_dram_channels 0
dram_ranks 1
dram_banks 8
dram_rows 65536
dram_columns 128
dram_row_size 8
dram_size 4096
dram_pages 1048576

fetch_width 6
decode_width 6
exec_width 4
lq_width 2
sq_width 2
retire_width 4
scheduler_size 128
branch_mispredict_penalty 20
rob_size 256
lq_size 72
sq_size 56
num_instr_destinations_sparc 4
num_instr_destinations 2
num_instr_sources 4

itlb_set 16
itlb_way 8
itlb_rq_size 16
itlb_wq_size 16
itlb_pq_size 0
itlb_mshr_size 8
itlb_latency 1

dtlb_set 16
dtlb_way 4
dtlb_rq_size 16
dtlb_wq_size 16
dtlb_pq_size 0
dtlb_mshr_size 8
dtlb_latency 1

stlb_set 128
stlb_way 12
stlb_rq_size 32
stlb_wq_size 32
stlb_pq_size 0
stlb_mshr_size 16
stlb_latency 8

l1i_size 32
l1i_set 64
l1i_way 8
l1i_rq_size 64
l1i_wq_size 64
l1i_pq_size 8
l1i_mshr_size 8
l1i_latency 1

l1d_size 32
l1d_set 64
l1d_way 8
l1d_rq_size 64
l1d_wq_size 64
l1d_pq_size 8
l1d_mshr_size 16
l1d_latency 4

l2c_size 256
l2c_set 512
l2c_way 8
l2c_rq_size 32
l2c_wq_size 32
l2c_pq_size 32
l2c_mshr_size 32
l2c_latency 10

llc_size 2048
llc_set 2048
llc_way 16
llc_rq_size 32
llc_wq_size 32
llc_pq_size 32
llc_mshr_size 64
llc_latency 20

dram_channel_width 8
dram_wq_size 64
dram_rq_size 64
tRP 15
tRCD 15
tCAS 12.5
dram_dbus_turn_around_time 30
dram_write_high_wm 56
dram_write_low_wm 48
min_dram_writes_per_switch 16
dram_mtps 2400
dram_dbus_return_time 13


Heartbeat CPU  0 instructions:    1000001 cycles:     399583 heartbeat IPC: 2.50261 cumulative IPC: 2.50261 (Simulation time: 0 hr 0 min 2 sec) 
Heartbeat CPU  0 instructions:    2000000 cycles:     794102 heartbeat IPC: 2.53473 cumulative IPC: 2.51857 (Simulation time: 0 hr 0 min 3 sec) 
Heartbeat CPU  0 instructions:    3000002 cycles:    1188625 heartbeat IPC: 2.53471 cumulative IPC: 2.52393 (Simulation time: 0 hr 0 min 5 sec) 
Heartbeat CPU  0 instructions:    4000000 cycles:    1583148 heartbeat IPC: 2.53470 cumulative IPC: 2.52661 (Simulation time: 0 hr 0 min 6 sec) 
Heartbeat CPU  0 instructions:    5000001 cycles:    1977706 heartbeat IPC: 2.53448 cumulative IPC: 2.52818 (Simulation time: 0 hr 0 min 7 sec) 
Heartbeat CPU  0 instructions:    6000002 cycles:    2372230 heartbeat IPC: 2.53470 cumulative IPC: 2.52927 (Simulation time: 0 hr 0 min 9 sec) 
Heartbeat CPU  0 instructions:    7000003 cycles:    2766754 heartbeat IPC: 2.53470 cumulative IPC: 2.53004 (Simulation time: 0 hr 0 min 10 sec) 
Heartbeat CPU  0 instructions:    8000000 cycles:    3161276 heartbeat IPC: 2.53471 cumulative IPC: 2.53062 (Simulation time: 0 hr 0 min 12 sec) 
Heartbeat CPU  0 instructions:    9000001 cycles:    3555835 heartbeat IPC: 2.53448 cumulative IPC: 2.53105 (Simulation time: 0 hr 0 min 13 sec) 
Heartbeat CPU  0 instructions:   10000001 cycles:    3950355 heartbeat IPC: 2.53473 cumulative IPC: 2.53142 (Simulation time: 0 hr 0 min 16 sec) 

Warmup complete CPU  0 instructions:   10000001 cycles:    3950355 (Simulation time: 0 hr 0 min 16 sec) 

Heartbeat CPU  0 instructions:   11000002 cycles:    5988118 heartbeat IPC: 0.49073 cumulative IPC: 0.49073 (Simulation time: 0 hr 0 min 18 sec) 
Heartbeat CPU  0 instructions:   12000000 cycles:   17366595 heartbeat IPC: 0.08789 cumulative IPC: 0.14907 (Simulation time: 0 hr 0 min 23 sec) 
Heartbeat CPU  0 instructions:   13000002 cycles:   36314074 heartbeat IPC: 0.05278 cumulative IPC: 0.09270 (Simulation time: 0 hr 0 min 30 sec) 
Heartbeat CPU  0 instructions:   14000003 cycles:   54676120 heartbeat IPC: 0.05446 cumulative IPC: 0.07886 (Simulation time: 0 hr 0 min 37 sec) 
Heartbeat CPU  0 instructions:   15000000 cycles:   73276093 heartbeat IPC: 0.05376 cumulative IPC: 0.07212 (Simulation time: 0 hr 0 min 48 sec) 
Heartbeat CPU  0 instructions:   16000000 cycles:   91942703 heartbeat IPC: 0.05357 cumulative IPC: 0.06819 (Simulation time: 0 hr 0 min 55 sec) 
Heartbeat CPU  0 instructions:   17000000 cycles:  110525124 heartbeat IPC: 0.05381 cumulative IPC: 0.06568 (Simulation time: 0 hr 1 min 2 sec) 
Heartbeat CPU  0 instructions:   18000003 cycles:  129021909 heartbeat IPC: 0.05406 cumulative IPC: 0.06396 (Simulation time: 0 hr 1 min 9 sec) 
Heartbeat CPU  0 instructions:   19000002 cycles:  147464798 heartbeat IPC: 0.05422 cumulative IPC: 0.06271 (Simulation time: 0 hr 1 min 16 sec) 
Heartbeat CPU  0 instructions:   20000000 cycles:  165792972 heartbeat IPC: 0.05456 cumulative IPC: 0.06179 (Simulation time: 0 hr 1 min 23 sec) 
Heartbeat CPU  0 instructions:   21000002 cycles:  184275066 heartbeat IPC: 0.05411 cumulative IPC: 0.06100 (Simulation time: 0 hr 1 min 30 sec) 
Heartbeat CPU  0 instructions:   22000000 cycles:  202538337 heartbeat IPC: 0.05475 cumulative IPC: 0.06043 (Simulation time: 0 hr 1 min 37 sec) 
Heartbeat CPU  0 instructions:   23000001 cycles:  221155923 heartbeat IPC: 0.05371 cumulative IPC: 0.05985 (Simulation time: 0 hr 1 min 44 sec) 
Heartbeat CPU  0 instructions:   24000000 cycles:  239654137 heartbeat IPC: 0.05406 cumulative IPC: 0.05940 (Simulation time: 0 hr 1 min 51 sec) 
Heartbeat CPU  0 instructions:   25000002 cycles:  258320865 heartbeat IPC: 0.05357 cumulative IPC: 0.05897 (Simulation time: 0 hr 1 min 58 sec) 
Heartbeat CPU  0 instructions:   26000000 cycles:  276764376 heartbeat IPC: 0.05422 cumulative IPC: 0.05865 (Simulation time: 0 hr 2 min 5 sec) 
Heartbeat CPU  0 instructions:   27000002 cycles:  295299533 heartbeat IPC: 0.05395 cumulative IPC: 0.05835 (Simulation time: 0 hr 2 min 12 sec) 
Heartbeat CPU  0 instructions:   28000000 cycles:  313713479 heartbeat IPC: 0.05431 cumulative IPC: 0.05811 (Simulation time: 0 hr 2 min 20 sec) 
Heartbeat CPU  0 instructions:   29000000 cycles:  332366073 heartbeat IPC: 0.05361 cumulative IPC: 0.05785 (Simulation time: 0 hr 2 min 27 sec) 
Heartbeat CPU  0 instructions:   30000002 cycles:  350799168 heartbeat IPC: 0.05425 cumulative IPC: 0.05766 (Simulation time: 0 hr 2 min 34 sec) 
Heartbeat CPU  0 instructions:   31000000 cycles:  369247823 heartbeat IPC: 0.05420 cumulative IPC: 0.05749 (Simulation time: 0 hr 2 min 41 sec) 
Heartbeat CPU  0 instructions:   32000000 cycles:  387575777 heartbeat IPC: 0.05456 cumulative IPC: 0.05735 (Simulation time: 0 hr 2 min 48 sec) 
Heartbeat CPU  0 instructions:   33000000 cycles:  406191961 heartbeat IPC: 0.05372 cumulative IPC: 0.05718 (Simulation time: 0 hr 2 min 55 sec) 
Heartbeat CPU  0 instructions:   34000000 cycles:  424885826 heartbeat IPC: 0.05349 cumulative IPC: 0.05702 (Simulation time: 0 hr 3 min 2 sec) 
Heartbeat CPU  0 instructions:   35000003 cycles:  443483260 heartbeat IPC: 0.05377 cumulative IPC: 0.05688 (Simulation time: 0 hr 3 min 9 sec) 
Heartbeat CPU  0 instructions:   36000000 cycles:  461819322 heartbeat IPC: 0.05454 cumulative IPC: 0.05678 (Simulation time: 0 hr 3 min 16 sec) 
Heartbeat CPU  0 instructions:   37000000 cycles:  480326945 heartbeat IPC: 0.05403 cumulative IPC: 0.05668 (Simulation time: 0 hr 3 min 23 sec) 
Heartbeat CPU  0 instructions:   38000000 cycles:  498851454 heartbeat IPC: 0.05398 cumulative IPC: 0.05658 (Simulation time: 0 hr 3 min 30 sec) 
Heartbeat CPU  0 instructions:   39000001 cycles:  517444171 heartbeat IPC: 0.05378 cumulative IPC: 0.05648 (Simulation time: 0 hr 3 min 37 sec) 
Heartbeat CPU  0 instructions:   40000000 cycles:  535765250 heartbeat IPC: 0.05458 cumulative IPC: 0.05641 (Simulation time: 0 hr 3 min 44 sec) 
Heartbeat CPU  0 instructions:   41000003 cycles:  553986931 heartbeat IPC: 0.05488 cumulative IPC: 0.05636 (Simulation time: 0 hr 3 min 51 sec) 
Heartbeat CPU  0 instructions:   42000002 cycles:  572568310 heartbeat IPC: 0.05382 cumulative IPC: 0.05628 (Simulation time: 0 hr 3 min 58 sec) 
Heartbeat CPU  0 instructions:   43000000 cycles:  591058036 heartbeat IPC: 0.05408 cumulative IPC: 0.05621 (Simulation time: 0 hr 4 min 5 sec) 
Heartbeat CPU  0 instructions:   44000000 cycles:  609374806 heartbeat IPC: 0.05459 cumulative IPC: 0.05616 (Simulation time: 0 hr 4 min 12 sec) 
Heartbeat CPU  0 instructions:   45000003 cycles:  627885900 heartbeat IPC: 0.05402 cumulative IPC: 0.05610 (Simulation time: 0 hr 4 min 20 sec) 
Heartbeat CPU  0 instructions:   46000003 cycles:  646485727 heartbeat IPC: 0.05376 cumulative IPC: 0.05603 (Simulation time: 0 hr 4 min 27 sec) 
Heartbeat CPU  0 instructions:   47000003 cycles:  664953676 heartbeat IPC: 0.05415 cumulative IPC: 0.05598 (Simulation time: 0 hr 4 min 34 sec) 
Heartbeat CPU  0 instructions:   48000000 cycles:  683334306 heartbeat IPC: 0.05440 cumulative IPC: 0.05593 (Simulation time: 0 hr 4 min 41 sec) 
Heartbeat CPU  0 instructions:   49000000 cycles:  701572334 heartbeat IPC: 0.05483 cumulative IPC: 0.05590 (Simulation time: 0 hr 4 min 48 sec) 
Heartbeat CPU  0 instructions:   50000003 cycles:  720335692 heartbeat IPC: 0.05330 cumulative IPC: 0.05584 (Simulation time: 0 hr 4 min 55 sec) 
Heartbeat CPU  0 instructions:   51000001 cycles:  738667648 heartbeat IPC: 0.05455 cumulative IPC: 0.05580 (Simulation time: 0 hr 5 min 2 sec) 
Heartbeat CPU  0 instructions:   52000000 cycles:  756971987 heartbeat IPC: 0.05463 cumulative IPC: 0.05578 (Simulation time: 0 hr 5 min 9 sec) 
Heartbeat CPU  0 instructions:   53000000 cycles:  775330174 heartbeat IPC: 0.05447 cumulative IPC: 0.05574 (Simulation time: 0 hr 5 min 16 sec) 
Heartbeat CPU  0 instructions:   54000002 cycles:  793906868 heartbeat IPC: 0.05383 cumulative IPC: 0.05570 (Simulation time: 0 hr 5 min 23 sec) 
Heartbeat CPU  0 instructions:   55000001 cycles:  812441092 heartbeat IPC: 0.05395 cumulative IPC: 0.05566 (Simulation time: 0 hr 5 min 30 sec) 
Heartbeat CPU  0 instructions:   56000000 cycles:  830783524 heartbeat IPC: 0.05452 cumulative IPC: 0.05563 (Simulation time: 0 hr 5 min 37 sec) 
Heartbeat CPU  0 instructions:   57000003 cycles:  849169104 heartbeat IPC: 0.05439 cumulative IPC: 0.05561 (Simulation time: 0 hr 5 min 44 sec) 
Heartbeat CPU  0 instructions:   58000003 cycles:  867620245 heartbeat IPC: 0.05420 cumulative IPC: 0.05558 (Simulation time: 0 hr 5 min 51 sec) 
Heartbeat CPU  0 instructions:   59000001 cycles:  886108633 heartbeat IPC: 0.05409 cumulative IPC: 0.05555 (Simulation time: 0 hr 5 min 58 sec) 
Heartbeat CPU  0 instructions:   60000000 cycles:  904583462 heartbeat IPC: 0.05413 cumulative IPC: 0.05552 (Simulation time: 0 hr 6 min 5 sec) 
Finished CPU 0 instructions: 50000003 cycles: 900633173 cumulative IPC: 0.05552 (Simulation time: 0 hr 6 min 5 sec) 

ChampSim completed all CPUs

[ROI Statistics]
Core_0_instructions 50000003
Core_0_cycles 900633173
Core_0_IPC 0.05552

Core_0_branch_prediction_accuracy 96.84732
Core_0_branch_MPKI 5.92376
Core_0_average_ROB_occupancy_at_mispredict 131.26685

Core_0_L1D_total_access 15088328
Core_0_L1D_total_hit 6089479
Core_0_L1D_total_miss 8998849
Core_0_L1D_loads 14438885
Core_0_L1D_load_hit 5448770
Core_0_L1D_load_miss 8990115
Core_0_L1D_RFOs 649443
Core_0_L1D_RFO_hit 640709
Core_0_L1D_RFO_miss 8734
Core_0_L1D_prefetches 0
Core_0_L1D_prefetch_hit 0
Core_0_L1D_prefetch_miss 0
Core_0_L1D_writebacks 0
Core_0_L1D_writeback_hit 0
Core_0_L1D_writeback_miss 0
Core_0_L1D_prefetch_requested 0
Core_0_L1D_prefetch_dropped 0
Core_0_L1D_prefetch_issued 0
Core_0_L1D_prefetch_filled 0
Core_0_L1D_prefetch_useful 0
Core_0_L1D_prefetch_useless 0
Core_0_L1D_prefetch_late 0
Core_0_L1D_average_miss_latency 95.27539

Core_0_L1D_rq_access 19503775
Core_0_L1D_rq_forward 0
Core_0_L1D_rq_merged 3254918
Core_0_L1D_rq_to_cache 16248857
Core_0_L1D_rq_full 0

Core_0_L1D_wq_access 714219
Core_0_L1D_wq_forward 0
Core_0_L1D_wq_merged 0
Core_0_L1D_wq_to_cache 714219
Core_0_L1D_wq_full 0

Core_0_L1D_pq_access 0
Core_0_L1D_pq_forward 0
Core_0_L1D_pq_merged 0
Core_0_L1D_pq_to_cache 0
Core_0_L1D_pq_full 0

Core_0_L1D_acc_epochs 882356
Core_0_L1D_acc_level_0 882356
Core_0_L1D_acc_level_1 0
Core_0_L1D_acc_level_2 0
Core_0_L1D_acc_level_3 0
Core_0_L1D_acc_level_4 0
Core_0_L1D_acc_level_5 0
Core_0_L1D_acc_level_6 0
Core_0_L1D_acc_level_7 0
Core_0_L1D_acc_level_8 0
Core_0_L1D_acc_level_9 0

Core_0_L1I_total_access 9511798
Core_0_L1I_total_hit 9511796
Core_0_L1I_total_miss 2
Core_0_L1I_loads 9511798
Core_0_L1I_load_hit 9511796
Core_0_L1I_load_miss 2
Core_0_L1I_RFOs 0
Core_0_L1I_RFO_hit 0
Core_0_L1I_RFO_miss 0
Core_0_L1I_prefetches 0
Core_0_L1I_prefetch_hit 0
Core_0_L1I_prefetch_miss 0
Core_0_L1I_writebacks 0
Core_0_L1I_writeback_hit 0
Core_0_L1I_writeback_miss 0
Core_0_L1I_prefetch_requested 0
Core_0_L1I_prefetch_dropped 0
Core_0_L1I_prefetch_issued 0
Core_0_L1I_prefetch_filled 0
Core_0_L1I_prefetch_useful 0
Core_0_L1I_prefetch_useless 0
Core_0_L1I_prefetch_late 0
Core_0_L1I_average_miss_latency 279.50000

Core_0_L1I_rq_access 50000007
Core_0_L1I_rq_forward 0
Core_0_L1I_rq_merged 40488208
Core_0_L1I_rq_to_cache 9511799
Core_0_L1I_rq_full 0

Core_0_L1I_wq_access 0
Core_0_L1I_wq_forward 0
Core_0_L1I_wq_merged 0
Core_0_L1I_wq_to_cache 0
Core_0_L1I_wq_full 0

Core_0_L1I_pq_access 0
Core_0_L1I_pq_forward 0
Core_0_L1I_pq_merged 0
Core_0_L1I_pq_to_cache 0
Core_0_L1I_pq_full 0

Core_0_L1I_acc_epochs 882356
Core_0_L1I_acc_level_0 882356
Core_0_L1I_acc_level_1 0
Core_0_L1I_acc_level_2 0
Core_0_L1I_acc_level_3 0
Core_0_L1I_acc_level_4 0
Core_0_L1I_acc_level_5 0
Core_0_L1I_acc_level_6 0
Core_0_L1I_acc_level_7 0
Core_0_L1I_acc_level_8 0
Core_0_L1I_acc_level_9 0

Core_0_L2C_total_access 9032871
Core_0_L2C_total_hit 1363391
Core_0_L2C_total_miss 7669480
Core_0_L2C_loads 8990116
Core_0_L2C_load_hit 1329997
Core_0_L2C_load_miss 7660119
Core_0_L2C_RFOs 8734
Core_0_L2C_RFO_hit 0
Core_0_L2C_RFO_miss 8734
Core_0_L2C_prefetches 0
Core_0_L2C_prefetch_hit 0
Core_0_L2C_prefetch_miss 0
Core_0_L2C_writebacks 34021
Core_0_L2C_writeback_hit 33394
Core_0_L2C_writeback_miss 627
Core_0_L2C_prefetch_requested 0
Core_0_L2C_prefetch_dropped 0
Core_0_L2C_prefetch_issued 0
Core_0_L2C_prefetch_filled 0
Core_0_L2C_prefetch_useful 0
Core_0_L2C_prefetch_useless 0
Core_0_L2C_prefetch_late 0
Core_0_L2C_average_miss_latency 95.32203

Core_0_L2C_rq_access 8998851
Core_0_L2C_rq_forward 0
Core_0_L2C_rq_merged 0
Core_0_L2C_rq_to_cache 8998850
Core_0_L2C_rq_full 0

Core_0_L2C_wq_access 34021
Core_0_L2C_wq_forward 1
Core_0_L2C_wq_merged 0
Core_0_L2C_wq_to_cache 34021
Core_0_L2C_wq_full 0

Core_0_L2C_pq_access 0
Core_0_L2C_pq_forward 0
Core_0_L2C_pq_merged 0
Core_0_L2C_pq_to_cache 0
Core_0_L2C_pq_full 0

Core_0_L2C_acc_epochs 882356
Core_0_L2C_acc_level_0 882356
Core_0_L2C_acc_level_1 0
Core_0_L2C_acc_level_2 0
Core_0_L2C_acc_level_3 0
Core_0_L2C_acc_level_4 0
Core_0_L2C_acc_level_5 0
Core_0_L2C_acc_level_6 0
Core_0_L2C_acc_level_7 0
Core_0_L2C_acc_level_8 0
Core_0_L2C_acc_level_9 0

Core_0_LLC_total_access 7698147
Core_0_LLC_total_hit 4904664
Core_0_LLC_total_miss 2793483
Core_0_LLC_loads 7660119
Core_0_LLC_load_hit 4893767
Core_0_LLC_load_miss 2766352
Core_0_LLC_RFOs 8734
Core_0_LLC_RFO_hit 0
Core_0_LLC_RFO_miss 8734
Core_0_LLC_prefetches 0
Core_0_LLC_prefetch_hit 0
Core_0_LLC_prefetch_miss 0
Core_0_LLC_writebacks 29294
Core_0_LLC_writeback_hit 10897
Core_0_LLC_writeback_miss 18397
Core_0_LLC_prefetch_requested 0
Core_0_LLC_prefetch_dropped 0
Core_0_LLC_prefetch_issued 0
Core_0_LLC_prefetch_filled 0
Core_0_LLC_prefetch_useful 0
Core_0_LLC_prefetch_useless 0
Core_0_LLC_prefetch_late 0
Core_0_LLC_average_miss_latency 179.27541

Core_0_LLC_rq_access 7668853
Core_0_LLC_rq_forward 0
Core_0_LLC_rq_merged 0
Core_0_LLC_rq_to_cache 7668853
Core_0_LLC_rq_full 0

Core_0_LLC_wq_access 29294
Core_0_LLC_wq_forward 0
Core_0_LLC_wq_merged 0
Core_0_LLC_wq_to_cache 29294
Core_0_LLC_wq_full 0

Core_0_LLC_pq_access 0
Core_0_LLC_pq_forward 0
Core_0_LLC_pq_merged 0
Core_0_LLC_pq_to_cache 0
Core_0_LLC_pq_full 0

Core_0_LLC_acc_epochs 883383
Core_0_LLC_acc_level_0 883383
Core_0_LLC_acc_level_1 0
Core_0_LLC_acc_level_2 0
Core_0_LLC_acc_level_3 0
Core_0_LLC_acc_level_4 0
Core_0_LLC_acc_level_5 0
Core_0_LLC_acc_level_6 0
Core_0_LLC_acc_level_7 0
Core_0_LLC_acc_level_8 0
Core_0_LLC_acc_level_9 0

Core_0_major_page_fault 0
Core_0_minor_page_fault 12623

Channel_0_RQ_row_buffer_hit 276008
Channel_0_RQ_row_buffer_miss 2499074
Channel_0_WQ_row_buffer_hit 21156
Channel_0_WQ_row_buffer_miss 27945
Channel_0_WQ_full 0
Channel_0_dbus_congested 92239

avg_congested_cycle 8

DRAM_bw_pochs 3533530
DRAM_bw_level_0 3525137
DRAM_bw_level_1 8357
DRAM_bw_level_2 36
DRAM_bw_level_3 0
