*************************************************
   ChampSim Multicore Out-of-Order Simulator
   Last compiled: Apr  3 2025 20:54:34
*************************************************
parsing config file: /home/zir/Pythia/config/nopref.ini

trace_0 /home/zir/ChampSim/ML-DPC/ChampSimTraces/gap/sssp-10.trace.gz
adding L2C_PREFETCHER: NONE
Initialize SHIP state
warmup_instructions 10000000
simulation_instructions 50000000
champsim_seed 97
measure_ipc 0
measure_ipc_epoch 1000
measure_dram_bw 1
measure_dram_bw_epoch 256
measure_cache_acc 1
measure_cache_acc_epoch 1024
l1d_perfect 0
l2c_perfect 0
llc_perfect 0
l1d_semi_perfect 0
l2c_semi_perfect 0
llc_semi_perfect 0
semi_perfect_cache_page_buffer_size 64

num_cpus 1
cpu_freq 4000
dram_io_freq 2400
page_size 4096
block_size 64
max_read_per_cycle 8
max_fill_per_cycle 1
dram_channels 1
log2_dram_channels 0
dram_ranks 1
dram_banks 8
dram_rows 65536
dram_columns 128
dram_row_size 8
dram_size 4096
dram_pages 1048576

fetch_width 6
decode_width 6
exec_width 4
lq_width 2
sq_width 2
retire_width 4
scheduler_size 128
branch_mispredict_penalty 20
rob_size 256
lq_size 72
sq_size 56
num_instr_destinations_sparc 4
num_instr_destinations 2
num_instr_sources 4

itlb_set 16
itlb_way 8
itlb_rq_size 16
itlb_wq_size 16
itlb_pq_size 0
itlb_mshr_size 8
itlb_latency 1

dtlb_set 16
dtlb_way 4
dtlb_rq_size 16
dtlb_wq_size 16
dtlb_pq_size 0
dtlb_mshr_size 8
dtlb_latency 1

stlb_set 128
stlb_way 12
stlb_rq_size 32
stlb_wq_size 32
stlb_pq_size 0
stlb_mshr_size 16
stlb_latency 8

l1i_size 32
l1i_set 64
l1i_way 8
l1i_rq_size 64
l1i_wq_size 64
l1i_pq_size 8
l1i_mshr_size 8
l1i_latency 1

l1d_size 32
l1d_set 64
l1d_way 8
l1d_rq_size 64
l1d_wq_size 64
l1d_pq_size 8
l1d_mshr_size 16
l1d_latency 4

l2c_size 256
l2c_set 512
l2c_way 8
l2c_rq_size 32
l2c_wq_size 32
l2c_pq_size 32
l2c_mshr_size 32
l2c_latency 10

llc_size 2048
llc_set 2048
llc_way 16
llc_rq_size 32
llc_wq_size 32
llc_pq_size 32
llc_mshr_size 64
llc_latency 20

dram_channel_width 8
dram_wq_size 64
dram_rq_size 64
tRP 15
tRCD 15
tCAS 12.5
dram_dbus_turn_around_time 30
dram_write_high_wm 56
dram_write_low_wm 48
min_dram_writes_per_switch 16
dram_mtps 2400
dram_dbus_return_time 13


Heartbeat CPU  0 instructions:    1000003 cycles:     266239 heartbeat IPC: 3.75604 cumulative IPC: 3.75604 (Simulation time: 0 hr 0 min 2 sec) 
Heartbeat CPU  0 instructions:    2000000 cycles:     767501 heartbeat IPC: 1.99496 cumulative IPC: 2.60586 (Simulation time: 0 hr 0 min 3 sec) 
Heartbeat CPU  0 instructions:    3000000 cycles:    1365122 heartbeat IPC: 1.67330 cumulative IPC: 2.19761 (Simulation time: 0 hr 0 min 4 sec) 
Heartbeat CPU  0 instructions:    4000000 cycles:    2037965 heartbeat IPC: 1.48623 cumulative IPC: 1.96274 (Simulation time: 0 hr 0 min 5 sec) 
Heartbeat CPU  0 instructions:    5000003 cycles:    2799017 heartbeat IPC: 1.31397 cumulative IPC: 1.78634 (Simulation time: 0 hr 0 min 7 sec) 
Heartbeat CPU  0 instructions:    6000000 cycles:    3657226 heartbeat IPC: 1.16521 cumulative IPC: 1.64059 (Simulation time: 0 hr 0 min 8 sec) 
Heartbeat CPU  0 instructions:    7000002 cycles:    4514242 heartbeat IPC: 1.16684 cumulative IPC: 1.55065 (Simulation time: 0 hr 0 min 9 sec) 
Heartbeat CPU  0 instructions:    8000000 cycles:    5386677 heartbeat IPC: 1.14621 cumulative IPC: 1.48515 (Simulation time: 0 hr 0 min 10 sec) 
Heartbeat CPU  0 instructions:    9000002 cycles:    6255986 heartbeat IPC: 1.15034 cumulative IPC: 1.43862 (Simulation time: 0 hr 0 min 11 sec) 
Heartbeat CPU  0 instructions:   10000000 cycles:    7116310 heartbeat IPC: 1.16235 cumulative IPC: 1.40522 (Simulation time: 0 hr 0 min 12 sec) 

Warmup complete CPU  0 instructions:   10000001 cycles:    7116311 (Simulation time: 0 hr 0 min 12 sec) 

Heartbeat CPU  0 instructions:   11000002 cycles:   11728935 heartbeat IPC: 0.21680 cumulative IPC: 0.21680 (Simulation time: 0 hr 0 min 14 sec) 
Heartbeat CPU  0 instructions:   12000000 cycles:   16460059 heartbeat IPC: 0.21137 cumulative IPC: 0.21405 (Simulation time: 0 hr 0 min 16 sec) 
Heartbeat CPU  0 instructions:   13000001 cycles:   21059023 heartbeat IPC: 0.21744 cumulative IPC: 0.21517 (Simulation time: 0 hr 0 min 18 sec) 
Heartbeat CPU  0 instructions:   14000002 cycles:   25815701 heartbeat IPC: 0.21023 cumulative IPC: 0.21391 (Simulation time: 0 hr 0 min 20 sec) 
Heartbeat CPU  0 instructions:   15000001 cycles:   30452100 heartbeat IPC: 0.21568 cumulative IPC: 0.21426 (Simulation time: 0 hr 0 min 22 sec) 
Heartbeat CPU  0 instructions:   16000000 cycles:   34897714 heartbeat IPC: 0.22494 cumulative IPC: 0.21597 (Simulation time: 0 hr 0 min 24 sec) 
Heartbeat CPU  0 instructions:   17000001 cycles:   39117216 heartbeat IPC: 0.23700 cumulative IPC: 0.21874 (Simulation time: 0 hr 0 min 26 sec) 
Heartbeat CPU  0 instructions:   18000001 cycles:   43251652 heartbeat IPC: 0.24187 cumulative IPC: 0.22139 (Simulation time: 0 hr 0 min 28 sec) 
Heartbeat CPU  0 instructions:   19000002 cycles:   47351705 heartbeat IPC: 0.24390 cumulative IPC: 0.22368 (Simulation time: 0 hr 0 min 30 sec) 
Heartbeat CPU  0 instructions:   20000000 cycles:   51550113 heartbeat IPC: 0.23819 cumulative IPC: 0.22505 (Simulation time: 0 hr 0 min 32 sec) 
Heartbeat CPU  0 instructions:   21000000 cycles:   55690339 heartbeat IPC: 0.24153 cumulative IPC: 0.22646 (Simulation time: 0 hr 0 min 34 sec) 
Heartbeat CPU  0 instructions:   22000003 cycles:   59740588 heartbeat IPC: 0.24690 cumulative IPC: 0.22803 (Simulation time: 0 hr 0 min 36 sec) 
Heartbeat CPU  0 instructions:   23000000 cycles:   63799556 heartbeat IPC: 0.24637 cumulative IPC: 0.22934 (Simulation time: 0 hr 0 min 38 sec) 
Heartbeat CPU  0 instructions:   24000000 cycles:   67769308 heartbeat IPC: 0.25190 cumulative IPC: 0.23082 (Simulation time: 0 hr 0 min 40 sec) 
Heartbeat CPU  0 instructions:   25000002 cycles:   71772733 heartbeat IPC: 0.24979 cumulative IPC: 0.23200 (Simulation time: 0 hr 0 min 42 sec) 
Heartbeat CPU  0 instructions:   26000000 cycles:   75958018 heartbeat IPC: 0.23893 cumulative IPC: 0.23242 (Simulation time: 0 hr 0 min 44 sec) 
Heartbeat CPU  0 instructions:   27000002 cycles:   79934975 heartbeat IPC: 0.25145 cumulative IPC: 0.23346 (Simulation time: 0 hr 0 min 46 sec) 
Heartbeat CPU  0 instructions:   28000000 cycles:   84068217 heartbeat IPC: 0.24194 cumulative IPC: 0.23391 (Simulation time: 0 hr 0 min 48 sec) 
Heartbeat CPU  0 instructions:   29000000 cycles:   87963337 heartbeat IPC: 0.25673 cumulative IPC: 0.23501 (Simulation time: 0 hr 0 min 50 sec) 
Heartbeat CPU  0 instructions:   30000002 cycles:   91862702 heartbeat IPC: 0.25645 cumulative IPC: 0.23600 (Simulation time: 0 hr 0 min 53 sec) 
Heartbeat CPU  0 instructions:   31000000 cycles:   95799445 heartbeat IPC: 0.25402 cumulative IPC: 0.23680 (Simulation time: 0 hr 0 min 55 sec) 
Heartbeat CPU  0 instructions:   32000000 cycles:   99707417 heartbeat IPC: 0.25589 cumulative IPC: 0.23760 (Simulation time: 0 hr 0 min 57 sec) 
Heartbeat CPU  0 instructions:   33000001 cycles:  103469962 heartbeat IPC: 0.26578 cumulative IPC: 0.23870 (Simulation time: 0 hr 0 min 59 sec) 
Heartbeat CPU  0 instructions:   34000003 cycles:  107215496 heartbeat IPC: 0.26699 cumulative IPC: 0.23976 (Simulation time: 0 hr 1 min 1 sec) 
Heartbeat CPU  0 instructions:   35000000 cycles:  110980024 heartbeat IPC: 0.26564 cumulative IPC: 0.24070 (Simulation time: 0 hr 1 min 3 sec) 
Heartbeat CPU  0 instructions:   36000000 cycles:  114640735 heartbeat IPC: 0.27317 cumulative IPC: 0.24181 (Simulation time: 0 hr 1 min 5 sec) 
Heartbeat CPU  0 instructions:   37000000 cycles:  118434818 heartbeat IPC: 0.26357 cumulative IPC: 0.24255 (Simulation time: 0 hr 1 min 7 sec) 
Heartbeat CPU  0 instructions:   38000003 cycles:  122388103 heartbeat IPC: 0.25295 cumulative IPC: 0.24290 (Simulation time: 0 hr 1 min 9 sec) 
Heartbeat CPU  0 instructions:   39000001 cycles:  126118627 heartbeat IPC: 0.26806 cumulative IPC: 0.24369 (Simulation time: 0 hr 1 min 11 sec) 
Heartbeat CPU  0 instructions:   40000000 cycles:  129758076 heartbeat IPC: 0.27477 cumulative IPC: 0.24461 (Simulation time: 0 hr 1 min 13 sec) 
Heartbeat CPU  0 instructions:   41000000 cycles:  133410439 heartbeat IPC: 0.27380 cumulative IPC: 0.24546 (Simulation time: 0 hr 1 min 15 sec) 
Heartbeat CPU  0 instructions:   42000002 cycles:  137181202 heartbeat IPC: 0.26520 cumulative IPC: 0.24603 (Simulation time: 0 hr 1 min 17 sec) 
Heartbeat CPU  0 instructions:   43000001 cycles:  140913883 heartbeat IPC: 0.26790 cumulative IPC: 0.24664 (Simulation time: 0 hr 1 min 20 sec) 
Heartbeat CPU  0 instructions:   44000000 cycles:  144547126 heartbeat IPC: 0.27524 cumulative IPC: 0.24740 (Simulation time: 0 hr 1 min 22 sec) 
Heartbeat CPU  0 instructions:   45000000 cycles:  148173579 heartbeat IPC: 0.27575 cumulative IPC: 0.24813 (Simulation time: 0 hr 1 min 24 sec) 
Heartbeat CPU  0 instructions:   46000000 cycles:  152007156 heartbeat IPC: 0.26085 cumulative IPC: 0.24846 (Simulation time: 0 hr 1 min 26 sec) 
Heartbeat CPU  0 instructions:   47000002 cycles:  155646028 heartbeat IPC: 0.27481 cumulative IPC: 0.24911 (Simulation time: 0 hr 1 min 28 sec) 
Heartbeat CPU  0 instructions:   48000000 cycles:  159255789 heartbeat IPC: 0.27703 cumulative IPC: 0.24977 (Simulation time: 0 hr 1 min 30 sec) 
Heartbeat CPU  0 instructions:   49000003 cycles:  162827010 heartbeat IPC: 0.28002 cumulative IPC: 0.25046 (Simulation time: 0 hr 1 min 32 sec) 
Heartbeat CPU  0 instructions:   50000001 cycles:  166357530 heartbeat IPC: 0.28324 cumulative IPC: 0.25119 (Simulation time: 0 hr 1 min 34 sec) 
Heartbeat CPU  0 instructions:   51000001 cycles:  170029235 heartbeat IPC: 0.27235 cumulative IPC: 0.25167 (Simulation time: 0 hr 1 min 36 sec) 
Heartbeat CPU  0 instructions:   52000000 cycles:  173707204 heartbeat IPC: 0.27189 cumulative IPC: 0.25211 (Simulation time: 0 hr 1 min 39 sec) 
Heartbeat CPU  0 instructions:   53000003 cycles:  177267654 heartbeat IPC: 0.28086 cumulative IPC: 0.25272 (Simulation time: 0 hr 1 min 41 sec) 
Heartbeat CPU  0 instructions:   54000001 cycles:  180789676 heartbeat IPC: 0.28393 cumulative IPC: 0.25335 (Simulation time: 0 hr 1 min 43 sec) 
Heartbeat CPU  0 instructions:   55000000 cycles:  184295250 heartbeat IPC: 0.28526 cumulative IPC: 0.25398 (Simulation time: 0 hr 1 min 45 sec) 
Heartbeat CPU  0 instructions:   56000000 cycles:  187763972 heartbeat IPC: 0.28829 cumulative IPC: 0.25464 (Simulation time: 0 hr 1 min 47 sec) 
Heartbeat CPU  0 instructions:   57000000 cycles:  191238484 heartbeat IPC: 0.28781 cumulative IPC: 0.25527 (Simulation time: 0 hr 1 min 49 sec) 
Heartbeat CPU  0 instructions:   58000000 cycles:  194693126 heartbeat IPC: 0.28947 cumulative IPC: 0.25590 (Simulation time: 0 hr 1 min 52 sec) 
Heartbeat CPU  0 instructions:   59000001 cycles:  198125107 heartbeat IPC: 0.29138 cumulative IPC: 0.25653 (Simulation time: 0 hr 1 min 54 sec) 
Heartbeat CPU  0 instructions:   60000000 cycles:  201717149 heartbeat IPC: 0.27839 cumulative IPC: 0.25694 (Simulation time: 0 hr 1 min 56 sec) 
Finished CPU 0 instructions: 50000001 cycles: 194600846 cumulative IPC: 0.25694 (Simulation time: 0 hr 1 min 56 sec) 

ChampSim completed all CPUs

[ROI Statistics]
Core_0_instructions 50000001
Core_0_cycles 194600846
Core_0_IPC 0.25694

Core_0_branch_prediction_accuracy 94.12279
Core_0_branch_MPKI 8.64524
Core_0_average_ROB_occupancy_at_mispredict 103.65801

Core_0_L1D_total_access 11585128
Core_0_L1D_total_hit 8985963
Core_0_L1D_total_miss 2599165
Core_0_L1D_loads 10252263
Core_0_L1D_load_hit 7938210
Core_0_L1D_load_miss 2314053
Core_0_L1D_RFOs 1332865
Core_0_L1D_RFO_hit 1047753
Core_0_L1D_RFO_miss 285112
Core_0_L1D_prefetches 0
Core_0_L1D_prefetch_hit 0
Core_0_L1D_prefetch_miss 0
Core_0_L1D_writebacks 0
Core_0_L1D_writeback_hit 0
Core_0_L1D_writeback_miss 0
Core_0_L1D_prefetch_requested 0
Core_0_L1D_prefetch_dropped 0
Core_0_L1D_prefetch_issued 0
Core_0_L1D_prefetch_filled 0
Core_0_L1D_prefetch_useful 0
Core_0_L1D_prefetch_useless 0
Core_0_L1D_prefetch_late 0
Core_0_L1D_average_miss_latency 99.76492

Core_0_L1D_rq_access 17886598
Core_0_L1D_rq_forward 0
Core_0_L1D_rq_merged 6858327
Core_0_L1D_rq_to_cache 11028271
Core_0_L1D_rq_full 0

Core_0_L1D_wq_access 1447494
Core_0_L1D_wq_forward 0
Core_0_L1D_wq_merged 966
Core_0_L1D_wq_to_cache 1446528
Core_0_L1D_wq_full 0

Core_0_L1D_pq_access 0
Core_0_L1D_pq_forward 0
Core_0_L1D_pq_merged 0
Core_0_L1D_pq_to_cache 0
Core_0_L1D_pq_full 0

Core_0_L1D_acc_epochs 195946
Core_0_L1D_acc_level_0 195946
Core_0_L1D_acc_level_1 0
Core_0_L1D_acc_level_2 0
Core_0_L1D_acc_level_3 0
Core_0_L1D_acc_level_4 0
Core_0_L1D_acc_level_5 0
Core_0_L1D_acc_level_6 0
Core_0_L1D_acc_level_7 0
Core_0_L1D_acc_level_8 0
Core_0_L1D_acc_level_9 0

Core_0_L1I_total_access 7384689
Core_0_L1I_total_hit 7384689
Core_0_L1I_total_miss 0
Core_0_L1I_loads 7384689
Core_0_L1I_load_hit 7384689
Core_0_L1I_load_miss 0
Core_0_L1I_RFOs 0
Core_0_L1I_RFO_hit 0
Core_0_L1I_RFO_miss 0
Core_0_L1I_prefetches 0
Core_0_L1I_prefetch_hit 0
Core_0_L1I_prefetch_miss 0
Core_0_L1I_writebacks 0
Core_0_L1I_writeback_hit 0
Core_0_L1I_writeback_miss 0
Core_0_L1I_prefetch_requested 0
Core_0_L1I_prefetch_dropped 0
Core_0_L1I_prefetch_issued 0
Core_0_L1I_prefetch_filled 0
Core_0_L1I_prefetch_useful 0
Core_0_L1I_prefetch_useless 0
Core_0_L1I_prefetch_late 0
Core_0_L1I_average_miss_latency -nan

Core_0_L1I_rq_access 50000129
Core_0_L1I_rq_forward 0
Core_0_L1I_rq_merged 42615440
Core_0_L1I_rq_to_cache 7384689
Core_0_L1I_rq_full 0

Core_0_L1I_wq_access 0
Core_0_L1I_wq_forward 0
Core_0_L1I_wq_merged 0
Core_0_L1I_wq_to_cache 0
Core_0_L1I_wq_full 0

Core_0_L1I_pq_access 0
Core_0_L1I_pq_forward 0
Core_0_L1I_pq_merged 0
Core_0_L1I_pq_to_cache 0
Core_0_L1I_pq_full 0

Core_0_L1I_acc_epochs 195946
Core_0_L1I_acc_level_0 195946
Core_0_L1I_acc_level_1 0
Core_0_L1I_acc_level_2 0
Core_0_L1I_acc_level_3 0
Core_0_L1I_acc_level_4 0
Core_0_L1I_acc_level_5 0
Core_0_L1I_acc_level_6 0
Core_0_L1I_acc_level_7 0
Core_0_L1I_acc_level_8 0
Core_0_L1I_acc_level_9 0

Core_0_L2C_total_access 3414019
Core_0_L2C_total_hit 1253586
Core_0_L2C_total_miss 2160433
Core_0_L2C_loads 2314050
Core_0_L2C_load_hit 252292
Core_0_L2C_load_miss 2061758
Core_0_L2C_RFOs 285103
Core_0_L2C_RFO_hit 188862
Core_0_L2C_RFO_miss 96241
Core_0_L2C_prefetches 0
Core_0_L2C_prefetch_hit 0
Core_0_L2C_prefetch_miss 0
Core_0_L2C_writebacks 814866
Core_0_L2C_writeback_hit 812432
Core_0_L2C_writeback_miss 2434
Core_0_L2C_prefetch_requested 0
Core_0_L2C_prefetch_dropped 0
Core_0_L2C_prefetch_issued 0
Core_0_L2C_prefetch_filled 0
Core_0_L2C_prefetch_useful 0
Core_0_L2C_prefetch_useless 0
Core_0_L2C_prefetch_late 0
Core_0_L2C_average_miss_latency 102.71633

Core_0_L2C_rq_access 2599165
Core_0_L2C_rq_forward 0
Core_0_L2C_rq_merged 0
Core_0_L2C_rq_to_cache 2599153
Core_0_L2C_rq_full 0

Core_0_L2C_wq_access 814866
Core_0_L2C_wq_forward 12
Core_0_L2C_wq_merged 0
Core_0_L2C_wq_to_cache 814866
Core_0_L2C_wq_full 0

Core_0_L2C_pq_access 0
Core_0_L2C_pq_forward 0
Core_0_L2C_pq_merged 0
Core_0_L2C_pq_to_cache 0
Core_0_L2C_pq_full 0

Core_0_L2C_acc_epochs 195946
Core_0_L2C_acc_level_0 195946
Core_0_L2C_acc_level_1 0
Core_0_L2C_acc_level_2 0
Core_0_L2C_acc_level_3 0
Core_0_L2C_acc_level_4 0
Core_0_L2C_acc_level_5 0
Core_0_L2C_acc_level_6 0
Core_0_L2C_acc_level_7 0
Core_0_L2C_acc_level_8 0
Core_0_L2C_acc_level_9 0

Core_0_LLC_total_access 2680589
Core_0_LLC_total_hit 1808712
Core_0_LLC_total_miss 871877
Core_0_LLC_loads 2061758
Core_0_LLC_load_hit 1275163
Core_0_LLC_load_miss 786595
Core_0_LLC_RFOs 96241
Core_0_LLC_RFO_hit 37078
Core_0_LLC_RFO_miss 59163
Core_0_LLC_prefetches 0
Core_0_LLC_prefetch_hit 0
Core_0_LLC_prefetch_miss 0
Core_0_LLC_writebacks 522590
Core_0_LLC_writeback_hit 496471
Core_0_LLC_writeback_miss 26119
Core_0_LLC_prefetch_requested 0
Core_0_LLC_prefetch_dropped 0
Core_0_LLC_prefetch_issued 0
Core_0_LLC_prefetch_filled 0
Core_0_LLC_prefetch_useful 0
Core_0_LLC_prefetch_useless 0
Core_0_LLC_prefetch_late 0
Core_0_LLC_average_miss_latency 180.03438

Core_0_LLC_rq_access 2157999
Core_0_LLC_rq_forward 0
Core_0_LLC_rq_merged 0
Core_0_LLC_rq_to_cache 2157999
Core_0_LLC_rq_full 0

Core_0_LLC_wq_access 522590
Core_0_LLC_wq_forward 0
Core_0_LLC_wq_merged 0
Core_0_LLC_wq_to_cache 522590
Core_0_LLC_wq_full 0

Core_0_LLC_pq_access 0
Core_0_LLC_pq_forward 0
Core_0_LLC_pq_merged 0
Core_0_LLC_pq_to_cache 0
Core_0_LLC_pq_full 0

Core_0_LLC_acc_epochs 196990
Core_0_LLC_acc_level_0 196990
Core_0_LLC_acc_level_1 0
Core_0_LLC_acc_level_2 0
Core_0_LLC_acc_level_3 0
Core_0_LLC_acc_level_4 0
Core_0_LLC_acc_level_5 0
Core_0_LLC_acc_level_6 0
Core_0_LLC_acc_level_7 0
Core_0_LLC_acc_level_8 0
Core_0_LLC_acc_level_9 0

Core_0_major_page_fault 0
Core_0_minor_page_fault 8928

Channel_0_RQ_row_buffer_hit 154293
Channel_0_RQ_row_buffer_miss 691459
Channel_0_WQ_row_buffer_hit 120739
Channel_0_WQ_row_buffer_miss 213070
Channel_0_WQ_full 0
Channel_0_dbus_congested 191732

avg_congested_cycle 10

DRAM_bw_pochs 787958
DRAM_bw_level_0 774069
DRAM_bw_level_1 7264
DRAM_bw_level_2 2365
DRAM_bw_level_3 4260
