*************************************************
   ChampSim Multicore Out-of-Order Simulator
   Last compiled: Apr  3 2025 20:54:34
*************************************************
parsing config file: /home/zir/Pythia/config/pythia.ini

trace_0 /home/zir/ChampSim/ML-DPC/ChampSimTraces/gap/cc-14.trace.gz
adding L2C_PREFETCHER: Scooby
Initialize SHIP state
warmup_instructions 10000000
simulation_instructions 50000000
champsim_seed 101
measure_ipc 0
measure_ipc_epoch 1000
measure_dram_bw 1
measure_dram_bw_epoch 256
measure_cache_acc 1
measure_cache_acc_epoch 1024
l1d_perfect 0
l2c_perfect 0
llc_perfect 0
l1d_semi_perfect 0
l2c_semi_perfect 0
llc_semi_perfect 0
semi_perfect_cache_page_buffer_size 64

num_cpus 1
cpu_freq 4000
dram_io_freq 2400
page_size 4096
block_size 64
max_read_per_cycle 8
max_fill_per_cycle 1
dram_channels 1
log2_dram_channels 0
dram_ranks 1
dram_banks 8
dram_rows 65536
dram_columns 128
dram_row_size 8
dram_size 4096
dram_pages 1048576

fetch_width 6
decode_width 6
exec_width 4
lq_width 2
sq_width 2
retire_width 4
scheduler_size 128
branch_mispredict_penalty 20
rob_size 256
lq_size 72
sq_size 56
num_instr_destinations_sparc 4
num_instr_destinations 2
num_instr_sources 4

itlb_set 16
itlb_way 8
itlb_rq_size 16
itlb_wq_size 16
itlb_pq_size 0
itlb_mshr_size 8
itlb_latency 1

dtlb_set 16
dtlb_way 4
dtlb_rq_size 16
dtlb_wq_size 16
dtlb_pq_size 0
dtlb_mshr_size 8
dtlb_latency 1

stlb_set 128
stlb_way 12
stlb_rq_size 32
stlb_wq_size 32
stlb_pq_size 0
stlb_mshr_size 16
stlb_latency 8

l1i_size 32
l1i_set 64
l1i_way 8
l1i_rq_size 64
l1i_wq_size 64
l1i_pq_size 8
l1i_mshr_size 8
l1i_latency 1

l1d_size 32
l1d_set 64
l1d_way 8
l1d_rq_size 64
l1d_wq_size 64
l1d_pq_size 8
l1d_mshr_size 16
l1d_latency 4

l2c_size 256
l2c_set 512
l2c_way 8
l2c_rq_size 32
l2c_wq_size 32
l2c_pq_size 32
l2c_mshr_size 32
l2c_latency 10

llc_size 2048
llc_set 2048
llc_way 16
llc_rq_size 32
llc_wq_size 32
llc_pq_size 32
llc_mshr_size 64
llc_latency 20

dram_channel_width 8
dram_wq_size 64
dram_rq_size 64
tRP 15
tRCD 15
tCAS 12.5
dram_dbus_turn_around_time 30
dram_write_high_wm 56
dram_write_low_wm 48
min_dram_writes_per_switch 16
dram_mtps 2400
dram_dbus_return_time 13

scooby_alpha 0.0065088
scooby_gamma 0.556301
scooby_epsilon 0.00182284
scooby_state_num_bits 10
scooby_max_states 1024
scooby_seed 200
scooby_policy EGreedy
scooby_learning_type SARSA
scooby_actions 1,3,4,5,10,11,12,22,23,30,32,-1,-3,-6,0,
scooby_max_actions 15
scooby_pt_size 256
scooby_st_size 64
scooby_max_pcs 5
scooby_max_offsets 5
scooby_max_deltas 5
scooby_reward_none -4
scooby_reward_incorrect -8
scooby_reward_correct_untimely 12
scooby_reward_correct_timely 20
scooby_brain_zero_init 0
scooby_enable_reward_all 0
scooby_enable_track_multiple 0
scooby_enable_reward_out_of_bounds 1
scooby_reward_out_of_bounds -12
scooby_state_type 1
scooby_state_hash_type 11
scooby_access_debug 0
scooby_print_access_debug 0
scooby_print_access_debug_pc deadbeef
scooby_print_access_debug_pc_count 0
scooby_print_trace 0
scooby_enable_state_action_stats 1
scooby_enable_reward_tracker_hit 0
scooby_reward_tracker_hit -2
scooby_enable_featurewise_engine 1
scooby_pref_degree 1
scooby_enable_dyn_degree 1
scooby_max_to_avg_q_thresholds 0.5,1,2,
scooby_dyn_degrees 1,2,4,4,
scooby_multi_deg_select_type 2
scooby_last_pref_offset_conf_thresholds 1,3,8,
scooby_dyn_degrees_type2 1,2,4,6,
scooby_action_tracker_size 2
scooby_high_bw_thresh 4
scooby_enable_hbw_reward 1
scooby_reward_hbw_correct_timely 20
scooby_reward_hbw_correct_untimely 12
scooby_reward_hbw_incorrect -14
scooby_reward_hbw_none -2
scooby_reward_hbw_out_of_bounds -12
scooby_reward_hbw_tracker_hit -2
scooby_last_pref_offset_conf_thresholds_hbw 1,3,8,
scooby_dyn_degrees_type2_hbw 1,2,4,6,

le_enable_trace 0
le_trace_interval 0
le_trace_file_name 
le_trace_state 0
le_enable_score_plot 0
le_plot_file_name 
le_plot_actions 
le_enable_action_trace 0
le_action_trace_interval 0
le_action_trace_name 
le_enable_action_plot 0

le_featurewise_active_features PC, PC_Delta
le_featurewise_num_tilings 3,3,
le_featurewise_num_tiles 128,128,
le_featurewise_hash_types 2,2,
le_featurewise_enable_tiling_offset 1,1,
le_featurewise_max_q_thresh 0.5
le_featurewise_enable_action_fallback 1
le_featurewise_feature_weights 1,1,
le_featurewise_enable_dynamic_weight 0
le_featurewise_weight_gradient 0.001
le_featurewise_disable_adjust_weight_all_features_align 1
le_featurewise_selective_update 0
le_featurewise_pooling_type 2
le_featurewise_enable_dyn_action_fallback 1
le_featurewise_bw_acc_check_level 1
le_featurewise_acc_thresh 2
le_featurewise_enable_trace 0
le_featurewise_trace_feature_type 0
le_featurewise_trace_feature 
le_featurewise_trace_interval 0
le_featurewise_trace_record_count 0
le_featurewise_trace_file_name 
le_featurewise_enable_score_plot 0
le_featurewise_plot_actions 
le_featurewise_plot_file_name 


Heartbeat CPU  0 instructions:    1000001 cycles:     261920 heartbeat IPC: 3.81796 cumulative IPC: 3.81796 (Simulation time: 0 hr 0 min 1 sec) 
Heartbeat CPU  0 instructions:    2000000 cycles:     781637 heartbeat IPC: 1.92412 cumulative IPC: 2.55873 (Simulation time: 0 hr 0 min 2 sec) 
Heartbeat CPU  0 instructions:    3000002 cycles:    2158791 heartbeat IPC: 0.72614 cumulative IPC: 1.38967 (Simulation time: 0 hr 0 min 4 sec) 
Heartbeat CPU  0 instructions:    4000000 cycles:    3496709 heartbeat IPC: 0.74743 cumulative IPC: 1.14393 (Simulation time: 0 hr 0 min 6 sec) 
Heartbeat CPU  0 instructions:    5000000 cycles:    4675404 heartbeat IPC: 0.84840 cumulative IPC: 1.06943 (Simulation time: 0 hr 0 min 8 sec) 
Heartbeat CPU  0 instructions:    6000000 cycles:    5853272 heartbeat IPC: 0.84899 cumulative IPC: 1.02507 (Simulation time: 0 hr 0 min 10 sec) 
Heartbeat CPU  0 instructions:    7000002 cycles:    6949204 heartbeat IPC: 0.91247 cumulative IPC: 1.00731 (Simulation time: 0 hr 0 min 12 sec) 
Heartbeat CPU  0 instructions:    8000000 cycles:    7942487 heartbeat IPC: 1.00676 cumulative IPC: 1.00724 (Simulation time: 0 hr 0 min 14 sec) 
Heartbeat CPU  0 instructions:    9000002 cycles:    8948432 heartbeat IPC: 0.99409 cumulative IPC: 1.00576 (Simulation time: 0 hr 0 min 16 sec) 
Heartbeat CPU  0 instructions:   10000000 cycles:    9890395 heartbeat IPC: 1.06161 cumulative IPC: 1.01108 (Simulation time: 0 hr 0 min 18 sec) 

Warmup complete CPU  0 instructions:   10000001 cycles:    9890396 (Simulation time: 0 hr 0 min 18 sec) 

Heartbeat CPU  0 instructions:   11000000 cycles:   15232220 heartbeat IPC: 0.18720 cumulative IPC: 0.18720 (Simulation time: 0 hr 0 min 21 sec) 
Heartbeat CPU  0 instructions:   12000000 cycles:   20583763 heartbeat IPC: 0.18686 cumulative IPC: 0.18703 (Simulation time: 0 hr 0 min 24 sec) 
Heartbeat CPU  0 instructions:   13000003 cycles:   25336044 heartbeat IPC: 0.21043 cumulative IPC: 0.19423 (Simulation time: 0 hr 0 min 26 sec) 
Heartbeat CPU  0 instructions:   14000001 cycles:   30396630 heartbeat IPC: 0.19761 cumulative IPC: 0.19506 (Simulation time: 0 hr 0 min 29 sec) 
Heartbeat CPU  0 instructions:   15000002 cycles:   35793698 heartbeat IPC: 0.18529 cumulative IPC: 0.19303 (Simulation time: 0 hr 0 min 32 sec) 
Heartbeat CPU  0 instructions:   16000000 cycles:   41050563 heartbeat IPC: 0.19023 cumulative IPC: 0.19255 (Simulation time: 0 hr 0 min 35 sec) 
Heartbeat CPU  0 instructions:   17000000 cycles:   46335894 heartbeat IPC: 0.18920 cumulative IPC: 0.19207 (Simulation time: 0 hr 0 min 38 sec) 
Heartbeat CPU  0 instructions:   18000001 cycles:   51450863 heartbeat IPC: 0.19550 cumulative IPC: 0.19249 (Simulation time: 0 hr 0 min 41 sec) 
Heartbeat CPU  0 instructions:   19000001 cycles:   56519691 heartbeat IPC: 0.19728 cumulative IPC: 0.19301 (Simulation time: 0 hr 0 min 44 sec) 
Heartbeat CPU  0 instructions:   20000000 cycles:   61064256 heartbeat IPC: 0.22004 cumulative IPC: 0.19541 (Simulation time: 0 hr 0 min 47 sec) 
Heartbeat CPU  0 instructions:   21000000 cycles:   66086207 heartbeat IPC: 0.19913 cumulative IPC: 0.19574 (Simulation time: 0 hr 0 min 50 sec) 
Heartbeat CPU  0 instructions:   22000003 cycles:   71284120 heartbeat IPC: 0.19239 cumulative IPC: 0.19546 (Simulation time: 0 hr 0 min 53 sec) 
Heartbeat CPU  0 instructions:   23000001 cycles:   76304266 heartbeat IPC: 0.19920 cumulative IPC: 0.19574 (Simulation time: 0 hr 0 min 56 sec) 
Heartbeat CPU  0 instructions:   24000000 cycles:   80931622 heartbeat IPC: 0.21611 cumulative IPC: 0.19707 (Simulation time: 0 hr 0 min 59 sec) 
Heartbeat CPU  0 instructions:   25000002 cycles:   85432317 heartbeat IPC: 0.22219 cumulative IPC: 0.19857 (Simulation time: 0 hr 1 min 2 sec) 
Heartbeat CPU  0 instructions:   26000000 cycles:   90450047 heartbeat IPC: 0.19929 cumulative IPC: 0.19861 (Simulation time: 0 hr 1 min 5 sec) 
Heartbeat CPU  0 instructions:   27000003 cycles:   95505850 heartbeat IPC: 0.19779 cumulative IPC: 0.19856 (Simulation time: 0 hr 1 min 8 sec) 
Heartbeat CPU  0 instructions:   28000000 cycles:  100359393 heartbeat IPC: 0.20603 cumulative IPC: 0.19896 (Simulation time: 0 hr 1 min 11 sec) 
Heartbeat CPU  0 instructions:   29000002 cycles:  104684791 heartbeat IPC: 0.23119 cumulative IPC: 0.20043 (Simulation time: 0 hr 1 min 14 sec) 
Heartbeat CPU  0 instructions:   30000000 cycles:  109277533 heartbeat IPC: 0.21773 cumulative IPC: 0.20123 (Simulation time: 0 hr 1 min 17 sec) 
Heartbeat CPU  0 instructions:   31000000 cycles:  114304829 heartbeat IPC: 0.19891 cumulative IPC: 0.20112 (Simulation time: 0 hr 1 min 20 sec) 
Heartbeat CPU  0 instructions:   32000000 cycles:  118772075 heartbeat IPC: 0.22385 cumulative IPC: 0.20205 (Simulation time: 0 hr 1 min 23 sec) 
Heartbeat CPU  0 instructions:   33000001 cycles:  123366949 heartbeat IPC: 0.21763 cumulative IPC: 0.20269 (Simulation time: 0 hr 1 min 26 sec) 
Heartbeat CPU  0 instructions:   34000001 cycles:  128243471 heartbeat IPC: 0.20506 cumulative IPC: 0.20278 (Simulation time: 0 hr 1 min 29 sec) 
Heartbeat CPU  0 instructions:   35000000 cycles:  132427757 heartbeat IPC: 0.23899 cumulative IPC: 0.20402 (Simulation time: 0 hr 1 min 32 sec) 
Heartbeat CPU  0 instructions:   36000000 cycles:  137090572 heartbeat IPC: 0.21446 cumulative IPC: 0.20440 (Simulation time: 0 hr 1 min 35 sec) 
Heartbeat CPU  0 instructions:   37000000 cycles:  141783772 heartbeat IPC: 0.21307 cumulative IPC: 0.20471 (Simulation time: 0 hr 1 min 38 sec) 
Heartbeat CPU  0 instructions:   38000000 cycles:  146399171 heartbeat IPC: 0.21667 cumulative IPC: 0.20512 (Simulation time: 0 hr 1 min 41 sec) 
Heartbeat CPU  0 instructions:   39000000 cycles:  151440658 heartbeat IPC: 0.19835 cumulative IPC: 0.20487 (Simulation time: 0 hr 1 min 44 sec) 
Heartbeat CPU  0 instructions:   40000000 cycles:  156009299 heartbeat IPC: 0.21888 cumulative IPC: 0.20531 (Simulation time: 0 hr 1 min 47 sec) 
Heartbeat CPU  0 instructions:   41000000 cycles:  160886269 heartbeat IPC: 0.20505 cumulative IPC: 0.20530 (Simulation time: 0 hr 1 min 50 sec) 
Heartbeat CPU  0 instructions:   42000002 cycles:  165854071 heartbeat IPC: 0.20130 cumulative IPC: 0.20518 (Simulation time: 0 hr 1 min 53 sec) 
Heartbeat CPU  0 instructions:   43000000 cycles:  170904728 heartbeat IPC: 0.19799 cumulative IPC: 0.20495 (Simulation time: 0 hr 1 min 56 sec) 
Heartbeat CPU  0 instructions:   44000000 cycles:  175828302 heartbeat IPC: 0.20310 cumulative IPC: 0.20490 (Simulation time: 0 hr 1 min 59 sec) 
Heartbeat CPU  0 instructions:   45000000 cycles:  180597464 heartbeat IPC: 0.20968 cumulative IPC: 0.20503 (Simulation time: 0 hr 2 min 1 sec) 
Heartbeat CPU  0 instructions:   46000000 cycles:  185213747 heartbeat IPC: 0.21662 cumulative IPC: 0.20533 (Simulation time: 0 hr 2 min 4 sec) 
Heartbeat CPU  0 instructions:   47000001 cycles:  189505549 heartbeat IPC: 0.23300 cumulative IPC: 0.20600 (Simulation time: 0 hr 2 min 7 sec) 
Heartbeat CPU  0 instructions:   48000000 cycles:  193653393 heartbeat IPC: 0.24109 cumulative IPC: 0.20679 (Simulation time: 0 hr 2 min 10 sec) 
Heartbeat CPU  0 instructions:   49000000 cycles:  198259344 heartbeat IPC: 0.21711 cumulative IPC: 0.20704 (Simulation time: 0 hr 2 min 13 sec) 
Heartbeat CPU  0 instructions:   50000002 cycles:  202590554 heartbeat IPC: 0.23088 cumulative IPC: 0.20758 (Simulation time: 0 hr 2 min 16 sec) 
Heartbeat CPU  0 instructions:   51000000 cycles:  207290161 heartbeat IPC: 0.21278 cumulative IPC: 0.20770 (Simulation time: 0 hr 2 min 19 sec) 
Heartbeat CPU  0 instructions:   52000000 cycles:  211628940 heartbeat IPC: 0.23048 cumulative IPC: 0.20819 (Simulation time: 0 hr 2 min 22 sec) 
Heartbeat CPU  0 instructions:   53000002 cycles:  215939829 heartbeat IPC: 0.23197 cumulative IPC: 0.20869 (Simulation time: 0 hr 2 min 25 sec) 
Heartbeat CPU  0 instructions:   54000002 cycles:  220459503 heartbeat IPC: 0.22125 cumulative IPC: 0.20896 (Simulation time: 0 hr 2 min 28 sec) 
Heartbeat CPU  0 instructions:   55000000 cycles:  224823661 heartbeat IPC: 0.22914 cumulative IPC: 0.20937 (Simulation time: 0 hr 2 min 31 sec) 
Heartbeat CPU  0 instructions:   56000000 cycles:  229779581 heartbeat IPC: 0.20178 cumulative IPC: 0.20920 (Simulation time: 0 hr 2 min 34 sec) 
Heartbeat CPU  0 instructions:   57000002 cycles:  234341215 heartbeat IPC: 0.21922 cumulative IPC: 0.20940 (Simulation time: 0 hr 2 min 37 sec) 
Heartbeat CPU  0 instructions:   58000000 cycles:  239022324 heartbeat IPC: 0.21362 cumulative IPC: 0.20949 (Simulation time: 0 hr 2 min 40 sec) 
Heartbeat CPU  0 instructions:   59000003 cycles:  243579267 heartbeat IPC: 0.21945 cumulative IPC: 0.20968 (Simulation time: 0 hr 2 min 43 sec) 
Heartbeat CPU  0 instructions:   60000000 cycles:  248567517 heartbeat IPC: 0.20047 cumulative IPC: 0.20949 (Simulation time: 0 hr 2 min 46 sec) 
Finished CPU 0 instructions: 50000000 cycles: 238677137 cumulative IPC: 0.20949 (Simulation time: 0 hr 2 min 46 sec) 

ChampSim completed all CPUs

[ROI Statistics]
Core_0_instructions 50000000
Core_0_cycles 238677137
Core_0_IPC 0.20949

Core_0_branch_prediction_accuracy 91.20795
Core_0_branch_MPKI 17.50296
Core_0_average_ROB_occupancy_at_mispredict 49.86571

Core_0_L1D_total_access 10591292
Core_0_L1D_total_hit 6891409
Core_0_L1D_total_miss 3699883
Core_0_L1D_loads 10353789
Core_0_L1D_load_hit 6653906
Core_0_L1D_load_miss 3699883
Core_0_L1D_RFOs 237503
Core_0_L1D_RFO_hit 237503
Core_0_L1D_RFO_miss 0
Core_0_L1D_prefetches 0
Core_0_L1D_prefetch_hit 0
Core_0_L1D_prefetch_miss 0
Core_0_L1D_writebacks 0
Core_0_L1D_writeback_hit 0
Core_0_L1D_writeback_miss 0
Core_0_L1D_prefetch_requested 0
Core_0_L1D_prefetch_dropped 0
Core_0_L1D_prefetch_issued 0
Core_0_L1D_prefetch_filled 0
Core_0_L1D_prefetch_useful 0
Core_0_L1D_prefetch_useless 0
Core_0_L1D_prefetch_late 0
Core_0_L1D_average_miss_latency 79.09600

Core_0_L1D_rq_access 13428759
Core_0_L1D_rq_forward 0
Core_0_L1D_rq_merged 2907485
Core_0_L1D_rq_to_cache 10521274
Core_0_L1D_rq_full 0

Core_0_L1D_wq_access 237503
Core_0_L1D_wq_forward 0
Core_0_L1D_wq_merged 0
Core_0_L1D_wq_to_cache 237503
Core_0_L1D_wq_full 0

Core_0_L1D_pq_access 0
Core_0_L1D_pq_forward 0
Core_0_L1D_pq_merged 0
Core_0_L1D_pq_to_cache 0
Core_0_L1D_pq_full 0

Core_0_L1D_acc_epochs 242398
Core_0_L1D_acc_level_0 242398
Core_0_L1D_acc_level_1 0
Core_0_L1D_acc_level_2 0
Core_0_L1D_acc_level_3 0
Core_0_L1D_acc_level_4 0
Core_0_L1D_acc_level_5 0
Core_0_L1D_acc_level_6 0
Core_0_L1D_acc_level_7 0
Core_0_L1D_acc_level_8 0
Core_0_L1D_acc_level_9 0

Core_0_L1I_total_access 9761199
Core_0_L1I_total_hit 9761199
Core_0_L1I_total_miss 0
Core_0_L1I_loads 9761199
Core_0_L1I_load_hit 9761199
Core_0_L1I_load_miss 0
Core_0_L1I_RFOs 0
Core_0_L1I_RFO_hit 0
Core_0_L1I_RFO_miss 0
Core_0_L1I_prefetches 0
Core_0_L1I_prefetch_hit 0
Core_0_L1I_prefetch_miss 0
Core_0_L1I_writebacks 0
Core_0_L1I_writeback_hit 0
Core_0_L1I_writeback_miss 0
Core_0_L1I_prefetch_requested 0
Core_0_L1I_prefetch_dropped 0
Core_0_L1I_prefetch_issued 0
Core_0_L1I_prefetch_filled 0
Core_0_L1I_prefetch_useful 0
Core_0_L1I_prefetch_useless 0
Core_0_L1I_prefetch_late 0
Core_0_L1I_average_miss_latency -nan

Core_0_L1I_rq_access 50000254
Core_0_L1I_rq_forward 0
Core_0_L1I_rq_merged 40239055
Core_0_L1I_rq_to_cache 9761199
Core_0_L1I_rq_full 0

Core_0_L1I_wq_access 0
Core_0_L1I_wq_forward 0
Core_0_L1I_wq_merged 0
Core_0_L1I_wq_to_cache 0
Core_0_L1I_wq_full 0

Core_0_L1I_pq_access 0
Core_0_L1I_pq_forward 0
Core_0_L1I_pq_merged 0
Core_0_L1I_pq_to_cache 0
Core_0_L1I_pq_full 0

Core_0_L1I_acc_epochs 242398
Core_0_L1I_acc_level_0 242398
Core_0_L1I_acc_level_1 0
Core_0_L1I_acc_level_2 0
Core_0_L1I_acc_level_3 0
Core_0_L1I_acc_level_4 0
Core_0_L1I_acc_level_5 0
Core_0_L1I_acc_level_6 0
Core_0_L1I_acc_level_7 0
Core_0_L1I_acc_level_8 0
Core_0_L1I_acc_level_9 0

Core_0_L2C_total_access 7954763
Core_0_L2C_total_hit 2258931
Core_0_L2C_total_miss 5695832
Core_0_L2C_loads 3699882
Core_0_L2C_load_hit 742011
Core_0_L2C_load_miss 2957871
Core_0_L2C_RFOs 0
Core_0_L2C_RFO_hit 0
Core_0_L2C_RFO_miss 0
Core_0_L2C_prefetches 4050358
Core_0_L2C_prefetch_hit 1312947
Core_0_L2C_prefetch_miss 2737411
Core_0_L2C_writebacks 204523
Core_0_L2C_writeback_hit 203973
Core_0_L2C_writeback_miss 550
Core_0_L2C_prefetch_requested 4991172
Core_0_L2C_prefetch_dropped 2
Core_0_L2C_prefetch_issued 4991170
Core_0_L2C_prefetch_filled 3302327
Core_0_L2C_prefetch_useful 393062
Core_0_L2C_prefetch_useless 2907693
Core_0_L2C_prefetch_late 11570
Core_0_L2C_average_miss_latency 92.00254

Core_0_L2C_rq_access 3699883
Core_0_L2C_rq_forward 0
Core_0_L2C_rq_merged 0
Core_0_L2C_rq_to_cache 3699882
Core_0_L2C_rq_full 0

Core_0_L2C_wq_access 204523
Core_0_L2C_wq_forward 1
Core_0_L2C_wq_merged 0
Core_0_L2C_wq_to_cache 204523
Core_0_L2C_wq_full 0

Core_0_L2C_pq_access 4991170
Core_0_L2C_pq_forward 0
Core_0_L2C_pq_merged 72063
Core_0_L2C_pq_to_cache 4919107
Core_0_L2C_pq_full 0

Core_0_L2C_acc_epochs 242398
Core_0_L2C_acc_level_0 93158
Core_0_L2C_acc_level_1 126844
Core_0_L2C_acc_level_2 18273
Core_0_L2C_acc_level_3 2999
Core_0_L2C_acc_level_4 521
Core_0_L2C_acc_level_5 402
Core_0_L2C_acc_level_6 57
Core_0_L2C_acc_level_7 29
Core_0_L2C_acc_level_8 36
Core_0_L2C_acc_level_9 79

Core_0_LLC_total_access 5899707
Core_0_LLC_total_hit 4008625
Core_0_LLC_total_miss 1891082
Core_0_LLC_loads 2947536
Core_0_LLC_load_hit 2111414
Core_0_LLC_load_miss 836122
Core_0_LLC_RFOs 0
Core_0_LLC_RFO_hit 0
Core_0_LLC_RFO_miss 0
Core_0_LLC_prefetches 2747746
Core_0_LLC_prefetch_hit 1693755
Core_0_LLC_prefetch_miss 1053991
Core_0_LLC_writebacks 204425
Core_0_LLC_writeback_hit 203456
Core_0_LLC_writeback_miss 969
Core_0_LLC_prefetch_requested 0
Core_0_LLC_prefetch_dropped 0
Core_0_LLC_prefetch_issued 0
Core_0_LLC_prefetch_filled 1286074
Core_0_LLC_prefetch_useful 164619
Core_0_LLC_prefetch_useless 1114092
Core_0_LLC_prefetch_late 0
Core_0_LLC_average_miss_latency 186.91530

Core_0_LLC_rq_access 2947536
Core_0_LLC_rq_forward 0
Core_0_LLC_rq_merged 0
Core_0_LLC_rq_to_cache 2947536
Core_0_LLC_rq_full 0

Core_0_LLC_wq_access 204425
Core_0_LLC_wq_forward 0
Core_0_LLC_wq_merged 0
Core_0_LLC_wq_to_cache 204425
Core_0_LLC_wq_full 0

Core_0_LLC_pq_access 3313898
Core_0_LLC_pq_forward 0
Core_0_LLC_pq_merged 0
Core_0_LLC_pq_to_cache 3313898
Core_0_LLC_pq_full 0

Core_0_LLC_acc_epochs 242742
Core_0_LLC_acc_level_0 107158
Core_0_LLC_acc_level_1 70225
Core_0_LLC_acc_level_2 37263
Core_0_LLC_acc_level_3 15290
Core_0_LLC_acc_level_4 4584
Core_0_LLC_acc_level_5 5373
Core_0_LLC_acc_level_6 1412
Core_0_LLC_acc_level_7 421
Core_0_LLC_acc_level_8 245
Core_0_LLC_acc_level_9 771

Core_0_major_page_fault 0
Core_0_minor_page_fault 5185

scooby_st_lookup 4263757
scooby_st_hit 1612385
scooby_st_evict 2651308
scooby_st_insert 2651372
scooby_st_streaming 0

scooby_predict_called 4263757
scooby_predict_out_of_bounds 86440
scooby_predict_action_1 3355521
scooby_predict_issue_action_1 3353254
scooby_predict_hit_action_1 2267
scooby_predict_out_of_bounds_action_1 51778
scooby_predict_action_3 13448
scooby_predict_issue_action_3 13116
scooby_predict_hit_action_3 332
scooby_predict_out_of_bounds_action_3 934
scooby_predict_action_4 13115
scooby_predict_issue_action_4 12768
scooby_predict_hit_action_4 347
scooby_predict_out_of_bounds_action_4 1263
scooby_predict_action_5 12618
scooby_predict_issue_action_5 12205
scooby_predict_hit_action_5 413
scooby_predict_out_of_bounds_action_5 1473
scooby_predict_action_10 10127
scooby_predict_issue_action_10 9845
scooby_predict_hit_action_10 282
scooby_predict_out_of_bounds_action_10 2643
scooby_predict_action_11 9707
scooby_predict_issue_action_11 9482
scooby_predict_hit_action_11 225
scooby_predict_out_of_bounds_action_11 2921
scooby_predict_action_12 9277
scooby_predict_issue_action_12 9060
scooby_predict_hit_action_12 217
scooby_predict_out_of_bounds_action_12 3123
scooby_predict_action_22 5876
scooby_predict_issue_action_22 5710
scooby_predict_hit_action_22 166
scooby_predict_out_of_bounds_action_22 4841
scooby_predict_action_23 5700
scooby_predict_issue_action_23 5552
scooby_predict_hit_action_23 148
scooby_predict_out_of_bounds_action_23 4940
scooby_predict_action_30 4116
scooby_predict_issue_action_30 4006
scooby_predict_hit_action_30 110
scooby_predict_out_of_bounds_action_30 5841
scooby_predict_action_32 3712
scooby_predict_issue_action_32 3636
scooby_predict_hit_action_32 76
scooby_predict_out_of_bounds_action_32 6074
scooby_predict_action_-1 13407
scooby_predict_issue_action_-1 12936
scooby_predict_hit_action_-1 471
scooby_predict_out_of_bounds_action_-1 45
scooby_predict_action_-3 13208
scooby_predict_issue_action_-3 12780
scooby_predict_hit_action_-3 428
scooby_predict_out_of_bounds_action_-3 176
scooby_predict_action_-6 12815
scooby_predict_issue_action_-6 12432
scooby_predict_hit_action_-6 383
scooby_predict_out_of_bounds_action_-6 388
scooby_predict_action_0 694670
scooby_predict_issue_action_0 0
scooby_predict_hit_action_0 0
scooby_predict_out_of_bounds_action_0 0
scooby_predict_multi_deg_called 474567
scooby_predict_predicted 4991172
scooby_predict_multi_deg 1514390
scooby_predict_multi_deg_2 463360
scooby_predict_multi_deg_3 313659
scooby_predict_multi_deg_4 306661
scooby_predict_multi_deg_5 217776
scooby_predict_multi_deg_6 212934
scooby_predict_multi_deg_7 0
scooby_predict_multi_deg_8 0
scooby_predict_multi_deg_9 0
scooby_predict_multi_deg_10 0
scooby_predict_multi_deg_11 0
scooby_predict_multi_deg_12 0
scooby_predict_multi_deg_13 0
scooby_predict_multi_deg_14 0
scooby_predict_multi_deg_15 0
scooby_predict_multi_deg_16 0

scooby_selected_deg_1 3002215
scooby_selected_deg_2 146723
scooby_selected_deg_3 0
scooby_selected_deg_4 90366
scooby_selected_deg_5 0
scooby_selected_deg_6 237478
scooby_selected_deg_7 0
scooby_selected_deg_8 0
scooby_selected_deg_9 0
scooby_selected_deg_10 0
scooby_selected_deg_11 0
scooby_selected_deg_12 0
scooby_selected_deg_13 0
scooby_selected_deg_14 0
scooby_selected_deg_15 0
scooby_selected_deg_16 0

scooby_state_5606b0706266|2|0 47765,8,13,17,9,8,15,9,17,5,16,20,14,8,11410,59334,
scooby_state_5606b0706266|0|0 46364,16,14,10,10,11,9,10,16,11,18,8,8,13,11895,58413,
scooby_state_5606b0706266|1|0 44133,13,13,12,15,8,11,15,9,9,9,12,17,14,10962,55252,
scooby_state_5606b0706266|9|0 43177,8,12,8,13,8,10,6,10,14,6,19,14,7,9680,52992,
scooby_state_5606b0706266|5|0 42497,7,14,8,6,6,8,10,7,16,11,9,17,17,9894,52527,
scooby_state_5606b0706266|7|0 42445,12,10,8,4,13,8,13,21,8,9,6,16,7,9662,52242,
scooby_state_5606b0706266|4|0 41767,8,11,7,9,8,8,8,9,11,9,7,16,15,9647,51540,
scooby_state_5606b0706266|3|0 39566,7,7,12,8,11,14,13,13,10,12,13,11,4,9351,49052,
scooby_state_5606b0706266|6|0 39072,7,5,8,5,6,10,5,12,10,8,11,15,12,8918,48104,
scooby_state_5606b0706266|8|0 39248,16,11,8,10,11,13,10,10,6,10,18,7,15,8629,48022,
scooby_state_5606b0706266|12|0 38838,6,11,13,7,7,8,12,9,7,8,6,14,13,8312,47271,
scooby_state_5606b0706266|13|0 38803,9,12,13,17,13,17,6,13,6,8,20,9,5,8003,46954,
scooby_state_5606b0706266|15|0 38523,9,13,12,12,6,7,16,12,12,14,8,9,6,8142,46801,
scooby_state_5606b0706266|17|0 38732,11,9,7,11,11,20,10,12,4,7,11,13,13,7828,46699,
scooby_state_5606b0706266|11|0 38318,6,11,8,9,12,7,10,11,8,13,11,6,7,8065,46502,
scooby_state_5606b0706266|10|0 37282,6,9,6,8,4,13,7,11,6,8,8,4,7,7990,45369,
scooby_state_5606b0706266|26|0 37265,9,9,11,6,8,8,8,7,7,6,3,5,5,7372,44729,
scooby_state_5606b0706266|22|0 37209,10,12,14,14,5,7,8,7,10,12,7,7,12,7280,44614,
scooby_state_5606b0706266|32|0 37448,16,6,12,15,5,10,7,12,10,5,14,13,5,6915,44493,
scooby_state_5606b0706266|16|0 36681,8,4,9,15,8,8,4,6,9,8,9,10,13,7627,44419,
scooby_state_5606b0706266|23|0 37111,15,10,9,7,6,9,10,10,10,8,10,8,12,7114,44349,
scooby_state_5606b0706266|14|0 36047,8,8,6,6,10,5,9,8,9,6,20,11,9,7528,43690,
scooby_state_5606b0706266|19|0 35150,10,10,6,8,11,16,6,10,9,16,13,8,11,7070,42354,
scooby_state_5606b0706266|21|0 35127,11,11,2,10,10,6,11,10,7,8,11,7,8,6836,42075,
scooby_state_5606b0706266|20|0 34371,10,11,7,11,8,10,11,11,8,10,12,7,9,7017,41513,
scooby_state_5606b0706266|25|0 33938,9,13,9,13,6,10,11,6,10,9,10,3,9,6702,40758,
scooby_state_5606b0706266|36|0 33728,13,8,10,10,12,10,7,14,9,3,12,8,9,6270,40123,
scooby_state_5606b0706266|18|0 33173,5,9,7,6,3,12,11,6,10,8,8,12,14,6531,39815,
scooby_state_5606b0706266|29|0 32602,10,9,2,8,7,8,8,7,12,12,12,2,15,6232,38946,
scooby_state_5606b0706266|35|0 32568,9,8,7,11,7,8,9,6,13,2,10,10,9,6146,38823,
scooby_state_5606b0706266|42|0 32695,5,12,10,13,13,5,8,6,7,4,11,9,7,5808,38613,
scooby_state_5606b0706266|33|0 31953,7,9,7,7,5,3,9,12,5,10,7,9,12,5847,37902,
scooby_state_5606b0706266|43|0 31744,3,11,6,11,7,10,6,8,10,3,7,5,9,5559,37399,
scooby_state_5606b0706266|24|0 31064,6,4,12,7,12,10,7,9,5,4,6,7,5,5962,37120,
scooby_state_5606b0706266|53|0 31197,10,9,7,7,13,8,7,6,7,5,13,10,10,5363,36672,
scooby_state_5606b0706266|34|0 30651,5,5,8,7,7,10,2,9,10,7,7,10,5,5844,36587,
scooby_state_5606b0706266|37|0 31007,7,11,8,4,11,4,7,8,8,9,13,8,9,5431,36545,
scooby_state_5606b0706266|28|0 30524,7,13,9,9,12,9,10,5,6,6,9,10,8,5896,36533,
scooby_state_5606b0706266|38|0 30650,12,10,9,6,3,5,7,8,8,10,6,7,4,5490,36235,
scooby_state_5606b0706266|41|0 30350,9,5,5,9,5,8,10,3,6,8,6,6,7,5445,35882,
scooby_state_5606b0706266|27|0 29869,8,8,12,7,5,7,8,9,4,5,12,15,4,5756,35729,
scooby_state_5606b0706266|54|0 30316,10,11,3,6,5,4,13,5,7,10,6,3,6,5276,35681,
scooby_state_5606b0706266|48|0 30278,5,10,10,4,9,8,12,4,3,7,5,5,7,5292,35659,
scooby_state_5606b0706266|49|0 30306,7,12,5,6,11,6,11,2,13,12,5,4,4,5183,35587,
scooby_state_5606b0706266|40|0 30041,4,7,8,8,6,8,4,8,6,5,7,4,5,5457,35578,
scooby_state_5606b0706266|44|0 30068,11,3,8,7,9,9,4,8,7,7,5,6,9,5357,35518,
scooby_state_5606b0706266|46|0 30107,4,7,8,10,4,9,8,10,7,6,4,6,7,5271,35468,
scooby_state_5606b0706266|47|0 29867,9,10,5,5,7,9,10,9,5,8,10,5,11,5135,35105,
scooby_state_5606b0706266|31|0 29122,13,10,7,12,11,8,5,7,8,8,11,14,14,5579,34829,
scooby_state_5606b0706266|51|0 29441,15,3,8,10,5,5,6,6,7,3,5,7,8,5202,34731,
scooby_state_5606b0706266|52|0 29340,6,10,10,8,7,5,4,5,2,8,6,8,11,5077,34507,
scooby_state_5606b0706266|39|0 28333,2,13,7,4,5,6,8,10,5,6,7,14,8,5252,33680,
scooby_state_5606b0706266|30|0 27589,8,6,6,7,2,10,4,7,6,8,8,7,7,5354,33029,
scooby_state_5606b0706266|45|0 27541,8,4,7,10,11,10,3,10,7,5,2,6,7,4921,32552,
scooby_state_5606b0706266|62|0 27422,7,6,5,10,10,8,7,7,1,9,4,5,4,4789,32294,
scooby_state_5606b0706266|63|0 26541,5,8,13,9,4,10,8,6,7,8,7,12,10,4546,31194,
scooby_state_5606b0706266|61|0 26380,7,5,10,9,8,10,6,5,6,4,4,6,3,4575,31038,
scooby_state_5606b0706266|56|0 26313,11,7,5,7,9,5,10,6,4,6,5,9,5,4613,31015,
scooby_state_5606b0706266|55|0 26298,8,6,7,8,5,7,4,11,5,8,11,12,10,4608,31008,
scooby_state_5606b0706266|59|0 26366,8,8,7,9,6,13,8,3,6,5,9,8,3,4476,30935,
scooby_state_5606b0706266|50|0 26132,6,7,5,9,9,8,4,4,4,3,14,8,9,4491,30713,
scooby_state_5606b0706266|60|0 25978,4,4,6,9,8,8,8,8,5,4,8,8,10,4423,30491,
scooby_state_5606b0706266|58|0 25534,5,4,7,5,10,5,10,6,9,6,5,4,6,4445,30061,
scooby_state_5606b0706266|57|0 24604,7,3,6,4,10,2,3,3,5,10,5,7,6,4250,28925,
scooby_state_5606b070627b|17|0 3352,17,14,18,13,15,11,13,15,12,6,14,11,8,1065,4584,
scooby_state_5606b0706260|4|1 3859,0,1,0,0,1,0,1,0,1,1,0,0,0,0,3864,
scooby_state_5606b0706260|0|0 3863,0,0,0,0,0,0,1,0,0,0,0,0,0,0,3864,
scooby_state_5606b0706260|2|1 3859,0,0,0,0,1,0,0,1,0,0,2,0,0,1,3864,
scooby_state_5606b0706260|1|1 3855,0,1,1,0,1,0,1,0,1,1,1,1,1,0,3864,
scooby_state_5606b0706260|3|1 3859,0,0,0,2,0,0,1,0,0,1,0,0,1,0,3864,
scooby_state_5606b0706260|52|1 3857,1,0,1,0,0,1,0,1,0,0,1,0,0,1,3863,
scooby_state_5606b0706260|42|1 3859,0,0,1,0,0,0,1,0,0,0,0,0,2,0,3863,
scooby_state_5606b0706260|25|1 3853,0,2,2,0,0,0,0,2,1,1,0,0,1,1,3863,
scooby_state_5606b0706260|45|1 3857,1,1,2,0,0,0,0,0,0,0,1,1,0,0,3863,
scooby_state_5606b0706260|62|1 3861,0,0,0,1,0,1,0,0,0,0,0,0,0,0,3863,
scooby_state_5606b0706260|16|1 3852,2,0,0,1,0,2,1,1,2,0,1,0,0,1,3863,
scooby_state_5606b0706260|47|1 3855,0,1,1,0,0,0,1,1,0,0,0,1,1,2,3863,
scooby_state_5606b0706260|37|1 3856,1,0,0,0,1,0,1,0,1,0,0,1,1,1,3863,
scooby_state_5606b0706260|21|1 3853,0,1,0,2,1,0,0,0,2,0,1,1,1,1,3863,
scooby_state_5606b0706260|40|1 3858,0,0,0,1,0,1,0,2,0,0,0,0,1,0,3863,
scooby_state_5606b0706260|9|1 3856,0,0,1,1,0,1,0,0,1,1,1,0,1,0,3863,
scooby_state_5606b0706260|41|1 3859,0,0,0,0,0,1,1,0,1,0,1,0,0,0,3863,
scooby_state_5606b0706260|35|1 3860,0,0,1,0,0,0,0,1,0,0,0,1,0,0,3863,
scooby_state_5606b0706260|28|1 3854,0,0,0,1,0,1,1,0,1,1,0,2,0,2,3863,
scooby_state_5606b0706260|13|1 3855,2,2,0,2,0,0,0,1,0,1,0,0,0,0,3863,
scooby_state_5606b0706260|48|1 3854,1,0,0,0,0,0,0,0,1,1,0,3,2,1,3863,
scooby_state_5606b0706260|20|1 3857,1,1,0,0,0,1,0,1,2,0,0,0,0,0,3863,
scooby_state_5606b0706260|39|1 3855,0,1,0,1,1,0,0,0,1,2,0,1,0,1,3863,
scooby_state_5606b0706260|58|1 3858,1,0,0,0,1,1,0,0,0,2,0,0,0,0,3863,
scooby_state_5606b0706260|5|1 3858,0,0,0,0,2,0,0,0,0,1,0,0,1,1,3863,
scooby_state_5606b0706260|63|1 3856,0,0,0,1,0,1,0,0,1,1,0,0,1,2,3863,
scooby_state_5606b0706260|15|1 3857,0,0,0,0,1,0,1,0,0,0,0,2,2,0,3863,
scooby_state_5606b0706260|46|1 3855,1,0,0,0,0,0,0,1,1,0,2,0,1,2,3863,
scooby_state_5606b0706260|10|1 3859,0,1,0,0,0,1,0,0,0,0,0,1,1,0,3863,
scooby_state_5606b0706260|53|1 3857,2,0,0,0,1,0,0,0,2,0,1,0,0,0,3863,
scooby_state_5606b0706260|22|1 3856,0,0,0,1,0,0,1,0,2,2,0,0,0,1,3863,
scooby_state_5606b0706260|51|1 3856,0,1,1,0,0,1,0,0,0,1,0,1,2,0,3863,
scooby_state_5606b0706260|59|1 3859,1,1,0,0,0,0,1,1,0,0,0,0,0,0,3863,
scooby_state_5606b0706260|26|1 3859,0,0,0,0,1,0,0,0,1,0,0,0,1,1,3863,
scooby_state_5606b0706260|34|1 3853,3,0,0,0,0,0,0,2,0,1,1,0,2,1,3863,
scooby_state_5606b0706260|50|1 3853,1,1,0,1,0,1,0,1,0,0,0,2,2,1,3863,
scooby_state_5606b0706260|27|1 3860,0,0,0,0,0,0,0,0,0,1,2,0,0,0,3863,
scooby_state_5606b0706260|49|1 3854,0,0,1,0,2,0,1,1,1,1,0,0,1,1,3863,
scooby_state_5606b0706260|36|1 3851,3,2,0,1,1,1,0,0,0,0,0,0,2,2,3863,
scooby_state_5606b0706260|18|1 3854,0,0,1,1,0,1,1,0,1,1,2,0,0,1,3863,
scooby_state_5606b0706260|12|1 3856,0,0,2,0,2,1,0,0,1,0,0,0,0,1,3863,
scooby_state_5606b0706260|38|1 3860,0,0,1,0,0,1,0,0,0,0,0,1,0,0,3863,
scooby_state_5606b0706260|11|1 3859,1,1,0,0,2,0,0,0,0,0,0,0,0,0,3863,
scooby_state_5606b0706260|19|1 3853,0,0,3,1,0,2,1,0,1,0,1,0,1,0,3863,
scooby_state_5606b0706260|60|1 3857,1,0,1,1,0,0,0,2,0,0,0,0,0,1,3863,
scooby_state_5606b0706260|23|1 3860,1,0,0,1,0,1,0,0,0,0,0,0,0,0,3863,
scooby_state_5606b0706260|61|1 3855,0,1,0,1,1,1,0,0,1,0,0,3,0,0,3863,
scooby_state_5606b0706260|7|1 3854,0,0,1,0,0,0,0,3,3,0,0,0,1,1,3863,
scooby_state_5606b0706260|54|1 3852,1,1,0,0,3,1,1,1,1,1,0,0,1,0,3863,
scooby_state_5606b0706260|31|1 3857,1,1,0,0,0,0,1,0,2,1,0,0,0,0,3863,
scooby_state_5606b0706260|55|1 3857,0,0,0,0,0,0,0,0,3,0,1,0,2,0,3863,
scooby_state_5606b0706260|32|1 3854,0,0,0,0,0,0,2,2,0,0,0,1,2,2,3863,
scooby_state_5606b0706260|17|1 3856,0,0,3,1,0,0,0,0,1,0,0,0,1,1,3863,
scooby_state_5606b0706260|6|1 3855,0,0,0,0,2,0,0,2,0,0,1,0,2,1,3863,
scooby_state_5606b0706260|8|1 3856,0,0,0,0,0,0,2,0,3,0,0,2,0,0,3863,
scooby_state_5606b0706260|14|1 3859,0,1,2,0,0,0,0,0,0,0,1,0,0,0,3863,
scooby_state_5606b0706260|56|1 3860,0,0,0,1,0,0,0,1,0,0,1,0,0,0,3863,
scooby_state_5606b0706260|24|1 3850,0,0,2,1,1,1,0,2,2,0,2,0,1,1,3863,
scooby_state_5606b0706260|43|1 3855,1,1,1,1,0,0,1,0,0,0,0,1,0,2,3863,
scooby_state_5606b0706260|33|1 3857,1,0,0,0,1,0,0,0,0,1,0,1,2,0,3863,
scooby_state_5606b0706260|57|1 3857,0,0,0,0,1,1,2,2,0,0,0,0,0,0,3863,
scooby_state_5606b0706260|29|1 3858,0,0,1,0,0,0,0,1,0,0,0,2,1,0,3863,
scooby_state_5606b0706260|44|1 3860,0,0,0,0,0,0,1,2,0,0,0,0,0,0,3863,
scooby_state_5606b0706260|30|1 3855,0,0,0,2,1,0,2,0,0,0,1,0,1,1,3863,
scooby_state_5606b070627b|6|0 1605,5,11,5,7,8,6,7,6,6,6,6,5,11,625,2319,
scooby_state_5606b0706266|54|1 1369,11,11,8,9,7,7,2,1,4,5,5,5,4,491,1939,
scooby_state_5606b0706266|53|1 1313,9,8,3,6,4,8,7,5,0,5,5,7,6,539,1925,
scooby_state_5606b0706240|54|0 1149,63,61,64,38,39,45,34,40,41,34,62,57,62,133,1922,
scooby_state_5606b070627b|22|0 1354,10,7,5,5,7,6,4,5,2,5,8,8,2,488,1916,
scooby_state_5606b0706266|52|1 1281,12,10,4,2,8,9,3,4,3,2,6,4,2,529,1879,
scooby_state_5606b0706266|48|1 1251,10,6,9,6,3,5,6,5,6,5,4,5,0,477,1798,
scooby_state_5606b0706266|26|1 1238,9,10,6,6,5,2,3,4,2,2,1,5,4,494,1791,
scooby_state_5606b0706266|36|1 1248,8,9,5,4,9,4,4,3,2,3,4,2,4,473,1782,
scooby_state_5606b0706266|49|1 1229,11,6,7,7,5,5,1,6,3,0,4,3,1,474,1762,
scooby_state_5606b0706266|47|1 1213,1,10,12,1,7,2,2,7,3,5,1,3,4,475,1746,
scooby_state_5606b0706266|42|1 1206,5,6,5,7,7,5,4,0,3,4,1,2,6,469,1730,
scooby_state_5606b070627b|15|0 1317,6,6,8,4,6,4,4,2,7,3,7,6,2,333,1715,
scooby_state_5606b0706266|39|1 1213,7,12,5,5,5,6,5,4,4,3,6,4,2,434,1715,
scooby_state_5606b0706266|54|3 1182,7,11,19,4,6,9,5,5,3,5,7,5,7,434,1709,
scooby_state_5606b0706266|43|1 1162,8,5,6,6,8,7,4,2,3,3,2,3,5,475,1699,
scooby_state_5606b0706266|35|1 1191,5,6,2,1,6,2,3,2,3,1,7,4,6,455,1694,
scooby_state_5606b0706266|23|1 1221,9,3,7,4,3,0,4,2,2,4,5,5,4,420,1693,
scooby_state_5606b0706266|51|1 1176,8,6,4,4,4,6,2,8,2,4,3,2,3,459,1691,
scooby_state_5606b0706266|16|1 1172,12,9,5,2,5,4,8,1,2,3,5,4,5,454,1691,
scooby_state_5606b070627b|7|0 1138,7,6,5,5,5,7,3,2,4,3,7,5,1,488,1686,
scooby_state_5606b0706266|34|2 1199,5,12,9,5,7,9,8,3,7,3,8,5,2,402,1684,
scooby_state_5606b0706266|20|1 1165,9,5,7,3,2,2,6,5,4,1,6,6,4,453,1678,
scooby_state_5606b0706266|40|1 1198,7,5,5,6,4,7,5,4,6,3,8,1,2,413,1674,
scooby_state_5606b0706266|5|1 1165,5,10,2,4,7,5,7,2,2,2,5,4,7,445,1672,
scooby_state_5606b0706266|63|1 1195,7,5,5,3,2,3,3,3,4,4,3,5,3,422,1667,
scooby_state_5606b0706266|22|1 1157,6,6,3,6,10,7,6,5,5,2,5,2,2,444,1666,
scooby_state_5606b0706266|44|1 1149,1,3,3,3,2,3,2,5,2,3,5,5,2,476,1664,
scooby_state_5606b0706266|47|2 1142,7,11,8,4,4,6,3,3,6,2,10,5,4,440,1655,
scooby_state_5606b070627b|34|0 1177,7,7,5,5,2,3,3,5,2,5,5,6,2,419,1653,
scooby_state_5606b0706266|35|2 1155,3,4,3,3,3,4,2,3,5,6,9,1,6,445,1652,
scooby_state_5606b0706266|62|1 1121,11,7,9,1,4,7,2,6,2,3,3,2,4,470,1652,
scooby_state_5606b0706266|51|2 1105,8,12,8,11,5,4,6,4,8,2,7,8,7,450,1645,
scooby_state_5606b0706266|13|1 1132,3,3,9,5,7,3,3,3,1,1,4,6,8,456,1644,
scooby_state_5606b0706266|60|1 1141,4,7,1,7,5,3,2,8,1,1,2,5,2,445,1634,
scooby_state_5606b0706266|17|1 1146,9,6,6,4,5,4,5,3,4,1,2,1,2,429,1627,
scooby_state_5606b0706266|38|1 1143,8,5,4,4,5,4,4,5,6,1,2,5,3,420,1619,
scooby_state_5606b0706266|56|2 1116,9,14,6,8,6,9,2,5,2,7,2,7,5,416,1614,
scooby_state_5606b0706266|15|1 1140,4,2,7,1,5,7,5,3,1,2,0,4,0,428,1609,
scooby_state_5606b0706266|14|1 1134,1,4,7,5,5,2,3,7,3,2,4,5,2,424,1608,
scooby_state_5606b0706266|11|1 1169,7,4,6,4,8,2,2,2,4,4,2,4,5,384,1607,
scooby_state_5606b0706266|10|1 1131,6,4,8,3,1,5,7,0,2,1,9,5,3,421,1606,
scooby_state_5606b0706266|59|1 1104,12,9,8,6,2,3,4,4,1,2,4,4,5,436,1604,
scooby_state_5606b0706266|55|1 1147,2,9,3,5,4,6,5,3,1,4,0,3,2,410,1604,
scooby_state_5606b070627b|10|0 1189,3,7,5,5,4,4,4,6,6,3,5,7,3,340,1591,
scooby_state_5606b0706266|30|1 1138,10,7,6,5,5,6,3,2,3,6,4,4,5,387,1591,
scooby_state_5606b0706266|61|1 1076,14,7,2,3,6,6,2,4,3,2,1,5,6,449,1586,
scooby_state_5606b0706266|12|1 1142,4,6,10,4,6,3,3,1,3,3,7,2,2,389,1585,
scooby_state_5606b0706266|8|1 1133,6,4,11,6,6,2,5,1,5,2,2,6,5,390,1584,
scooby_state_5606b0706266|50|1 1090,10,7,3,2,5,6,0,2,2,4,5,4,3,440,1583,
scooby_state_5606b0706266|21|1 1114,4,3,4,5,4,1,6,1,2,3,3,2,0,429,1581,
scooby_state_5606b0706266|4|1 1132,6,7,4,4,5,3,4,4,1,0,5,1,7,397,1580,
scooby_state_5606b0706266|37|1 1146,4,5,5,2,2,3,1,5,5,0,2,5,4,378,1567,
scooby_state_5606b0706266|53|2 1057,6,5,2,9,5,10,3,7,3,5,5,6,2,435,1560,
scooby_state_5606b0706266|7|1 1133,6,10,8,7,0,2,3,4,1,2,0,4,3,370,1553,
scooby_state_5606b0706266|46|1 1050,6,5,5,2,7,3,6,2,4,2,3,7,5,445,1552,
scooby_state_5606b0706266|45|1 1096,3,9,2,3,3,4,4,4,5,5,3,6,5,398,1550,
scooby_state_5606b0706266|6|1 1069,4,7,6,6,7,4,7,5,5,4,3,6,1,415,1549,
scooby_state_5606b0706266|49|2 1090,7,7,11,4,8,5,4,4,8,4,10,6,4,374,1546,
scooby_state_5606b0706266|44|2 1083,8,7,6,5,5,8,8,10,4,6,7,4,1,379,1541,
scooby_state_5606b0706266|63|2 1072,7,9,10,7,5,3,4,2,5,6,4,7,6,389,1536,
scooby_state_5606b0706266|34|1 1092,4,6,10,5,7,1,3,1,4,2,5,6,5,380,1531,
scooby_state_5606b0706266|19|1 1071,6,6,8,0,1,2,5,2,1,3,6,6,3,409,1529,
scooby_state_5606b0706266|33|1 1070,5,7,6,3,4,2,6,4,1,6,3,3,3,406,1529,
scooby_state_5606b0706266|28|2 1056,9,1,4,12,4,5,5,6,5,5,5,7,7,396,1527,
scooby_state_5606b0706266|32|2 1075,7,9,5,6,3,5,6,4,3,4,7,3,2,382,1521,
scooby_state_5606b0706266|9|1 1097,9,4,5,2,1,1,4,1,4,1,5,4,2,379,1519,
scooby_state_5606b0706266|32|1 1056,7,2,5,5,4,3,5,2,7,4,1,4,3,410,1518,
scooby_state_5606b0706266|38|2 1077,5,4,6,8,4,5,8,9,7,3,7,5,4,366,1518,
scooby_state_5606b0706266|40|2 1074,9,8,2,6,5,5,3,3,2,6,9,8,2,368,1510,
scooby_state_5606b0706266|15|2 1058,5,8,11,9,5,6,6,5,4,4,7,4,10,368,1510,
scooby_state_5606b0706266|21|2 1048,4,5,6,2,5,6,2,3,3,3,7,6,4,406,1510,
scooby_state_5606b0706266|23|2 1026,5,8,3,9,3,4,3,5,4,2,4,4,4,424,1508,
scooby_state_5606b0706266|43|2 1044,7,3,6,3,4,4,2,5,2,3,11,4,6,399,1503,
scooby_state_5606b0706266|19|2 1043,7,7,6,4,1,5,6,3,3,4,5,3,6,392,1495,
scooby_state_5606b0706266|28|1 1046,9,10,3,6,2,3,3,1,3,1,5,4,2,396,1494,
scooby_state_5606b0706266|57|2 1035,4,5,6,5,5,6,8,6,4,1,7,4,7,388,1491,
scooby_state_5606b0706266|18|1 1095,2,6,2,3,4,4,3,1,2,5,5,5,4,350,1491,
scooby_state_5606b0706266|2|1 1083,5,6,3,3,3,3,3,0,2,3,2,2,3,369,1490,
scooby_state_5606b0706266|54|2 1042,10,5,5,5,6,1,6,2,6,6,6,10,5,370,1485,
scooby_state_5606b0706266|1|1 1060,6,7,1,6,8,3,1,3,2,1,3,3,6,374,1484,
scooby_state_5606b070627b|26|0 1094,6,6,5,4,3,2,4,4,1,6,2,4,9,334,1484,
scooby_state_5606b0706266|38|3 1015,6,5,10,3,7,6,4,3,8,4,7,5,7,386,1476,
scooby_state_5606b0706266|57|1 1027,7,5,2,7,4,2,4,2,6,4,6,5,3,391,1475,
scooby_state_5606b0706266|45|2 1020,7,5,8,4,7,6,4,3,8,4,5,7,2,385,1475,
scooby_state_5606b0706266|3|1 1034,5,7,3,3,5,3,5,1,4,1,5,2,4,389,1471,
scooby_state_5606b0706266|27|1 1030,7,8,3,3,4,3,5,5,1,4,3,3,3,388,1470,
scooby_state_5606b0706266|56|1 1021,3,12,1,4,3,7,4,1,0,5,3,3,0,399,1466,
scooby_state_5606b0706266|52|3 986,10,9,6,6,3,4,7,6,2,6,8,4,4,401,1462,
scooby_state_5606b0706266|36|2 1033,9,11,3,6,2,2,6,7,6,2,5,5,4,361,1462,
scooby_state_5606b0706266|42|2 1020,6,8,2,6,3,4,3,4,5,4,4,5,3,385,1462,
scooby_state_5606b0706266|24|1 1038,5,5,7,2,3,1,0,6,3,2,1,2,6,369,1450,
scooby_state_5606b0706266|50|2 992,4,6,6,3,6,9,4,4,3,3,4,4,1,400,1449,
scooby_state_5606b0706266|41|1 1016,4,3,4,1,3,3,4,6,4,2,8,1,3,386,1448,
scooby_state_5606b0706266|41|2 984,4,3,4,4,6,7,8,3,4,3,7,7,4,394,1442,
scooby_state_5606b0706266|35|3 992,3,14,9,6,9,5,1,2,8,2,6,6,6,368,1437,
scooby_state_5606b0706266|20|3 997,4,10,8,3,5,4,3,5,6,2,7,3,11,368,1436,
scooby_state_5606b0706266|38|4 980,5,9,4,8,4,1,2,3,3,3,2,6,6,397,1433,
scooby_state_5606b0706266|5|3 993,5,5,7,5,6,6,1,2,4,4,3,4,11,370,1426,
scooby_state_5606b0706266|53|4 1010,5,4,8,1,5,5,3,4,7,3,4,4,4,357,1424,
scooby_state_5606b0706266|7|2 990,5,5,4,7,2,4,2,5,2,4,4,8,7,374,1423,
scooby_state_5606b0706266|29|1 987,6,6,4,4,3,2,2,3,2,8,2,5,1,384,1419,
scooby_state_5606b0706266|39|3 979,12,10,11,10,6,3,6,5,3,6,3,2,5,357,1418,
scooby_state_5606b0706266|25|2 972,8,5,4,2,7,4,6,3,4,8,6,7,6,375,1417,
scooby_state_5606b0706266|2|2 962,6,8,1,6,3,2,5,4,3,1,7,5,9,387,1409,
scooby_state_5606b0706266|22|2 970,8,5,5,6,9,4,2,4,2,6,9,4,4,367,1405,
scooby_state_5606b0706266|61|2 941,10,9,4,2,4,5,2,6,4,3,9,2,7,391,1399,
scooby_state_5606b0706266|44|4 962,3,6,3,5,4,4,4,3,3,1,6,5,5,379,1393,
scooby_state_5606b070627b|23|0 975,2,3,5,0,3,1,2,2,4,1,4,5,3,380,1390,
scooby_state_5606b0706266|14|2 996,6,9,2,11,2,6,5,2,4,4,5,3,3,327,1385,
scooby_state_5606b0706266|19|3 964,7,11,7,5,4,6,4,3,4,5,8,6,3,348,1385,
scooby_state_5606b0706266|16|2 963,3,4,5,1,4,8,6,2,3,4,3,4,5,369,1384,
scooby_state_5606b0706266|25|1 969,3,2,7,2,1,1,3,0,3,3,3,0,3,383,1383,
scooby_state_5606b0706266|7|3 941,6,8,6,4,6,3,6,3,7,3,4,4,8,372,1381,
scooby_state_5606b070627b|28|0 1021,4,5,6,2,3,4,2,3,2,7,4,3,5,309,1380,
scooby_state_5606b0706266|55|2 941,4,6,4,6,10,3,2,2,4,7,6,7,3,374,1379,
scooby_state_5606b0706266|11|2 956,6,5,8,3,2,5,0,6,6,4,7,5,4,356,1373,
scooby_state_5606b0706266|17|2 946,8,6,4,6,6,9,3,7,8,5,4,2,7,345,1366,
scooby_state_5606b0706266|33|2 983,3,3,4,8,6,5,3,5,2,6,8,5,5,320,1366,
scooby_state_5606b0706266|23|3 947,5,7,7,6,4,5,3,2,3,5,2,4,5,356,1361,
scooby_state_5606b0706266|31|1 982,9,6,2,4,4,3,1,3,6,3,4,5,5,324,1361,
scooby_state_5606b0706266|47|3 940,12,7,11,7,4,4,8,7,8,4,5,13,5,326,1361,
scooby_state_5606b0706266|46|2 948,4,8,6,5,5,3,7,3,1,3,8,2,6,349,1358,
scooby_state_5606b0706266|52|2 903,8,10,2,5,5,7,4,3,6,6,3,8,8,377,1355,
scooby_state_5606b0706266|58|1 908,6,0,5,5,4,1,1,4,0,3,4,5,4,402,1352,
scooby_state_5606b0706266|26|5 964,13,5,5,6,9,3,7,7,3,3,3,8,5,311,1352,
scooby_state_5606b0706266|62|2 919,6,8,3,4,0,2,5,4,5,2,7,5,3,377,1350,
scooby_state_5606b0706266|13|2 959,3,5,4,3,8,4,1,7,4,5,3,9,5,326,1346,
scooby_state_5606b0706266|9|2 898,3,7,6,7,1,7,5,4,5,7,4,4,5,382,1345,
scooby_state_5606b0706266|6|2 943,6,10,3,8,3,6,4,3,5,4,7,8,4,327,1341,
scooby_state_5606b0706266|39|2 899,7,5,6,5,3,8,5,2,5,4,11,4,6,363,1333,
scooby_state_5606b0706266|22|3 884,5,9,2,8,5,2,7,8,3,4,2,5,8,377,1329,
scooby_state_5606b0706266|41|5 922,4,8,5,6,5,3,5,5,1,2,6,6,2,349,1329,
scooby_state_5606b0706266|37|2 928,8,5,5,4,2,6,5,3,4,5,9,5,2,334,1325,
scooby_state_5606b0706266|26|3 914,5,11,4,4,4,3,7,2,4,5,6,3,7,346,1325,
scooby_state_5606b0706266|58|4 921,5,5,6,3,5,4,3,7,1,2,2,5,5,349,1323,
scooby_state_5606b070627b|50|0 940,4,8,4,5,5,3,0,0,4,4,3,7,3,330,1320,
scooby_state_5606b0706266|24|2 926,6,8,6,6,2,4,6,5,2,3,4,4,3,330,1315,
scooby_state_5606b0706266|25|3 933,6,5,4,7,3,5,5,4,5,0,2,1,7,328,1315,
scooby_state_5606b0706266|17|3 899,11,9,7,5,5,5,5,4,4,4,5,3,7,338,1311,
scooby_state_5606b0706266|60|2 895,5,8,6,7,8,3,4,4,3,3,5,4,6,350,1311,
scooby_state_5606b0706266|9|4 914,9,7,3,7,3,3,1,7,1,2,5,4,4,339,1309,
scooby_state_5606b0706266|8|2 926,8,7,3,4,5,6,3,8,3,3,2,4,5,321,1308,
scooby_state_5606b0706266|9|3 902,6,5,8,3,2,6,4,3,5,4,5,2,6,346,1307,
scooby_state_5606b0706266|56|3 902,10,12,12,4,6,4,7,5,4,3,3,4,1,329,1306,
scooby_state_5606b0706266|43|6 911,12,6,5,3,2,7,1,3,3,8,4,3,2,333,1303,
scooby_state_5606b0706266|49|3 889,10,15,11,7,4,5,3,4,1,2,5,6,2,339,1303,
scooby_state_5606b070627b|11|0 985,5,9,2,4,5,2,3,5,2,4,3,2,2,265,1298,
scooby_state_5606b0706266|24|3 899,9,3,6,5,5,3,6,2,5,0,6,7,1,329,1286,
scooby_state_5606b0706266|31|3 876,4,7,13,11,6,5,6,4,5,2,4,6,2,334,1285,
scooby_state_5606b0706266|10|3 872,2,7,5,11,8,5,6,6,3,5,3,6,4,342,1285,
scooby_state_5606b0706266|4|3 902,4,8,7,6,5,2,5,4,2,2,3,4,6,325,1285,
scooby_state_5606b0706266|45|3 869,5,9,7,3,5,6,3,4,2,7,3,2,6,353,1284,
scooby_state_5606b0706266|51|3 856,5,8,4,3,12,5,4,5,4,4,5,2,4,361,1282,
scooby_state_5606b0706266|40|3 857,6,3,11,2,6,5,12,1,2,3,6,8,4,354,1280,
scooby_state_5606b0706266|12|3 870,8,8,9,7,6,2,4,4,5,3,5,6,10,333,1280,
scooby_state_5606b0706266|4|2 919,5,7,5,6,4,2,4,5,5,7,6,7,7,291,1280,
scooby_state_5606b0706266|12|2 901,4,9,3,3,3,1,2,8,1,2,7,4,2,328,1278,
scooby_state_5606b070627b|14|0 964,1,5,1,7,4,3,4,3,3,2,1,7,7,265,1277,
scooby_state_5606b0706266|29|3 890,4,9,13,3,7,6,6,4,3,3,4,7,1,316,1276,
scooby_state_5606b0706266|43|3 867,12,9,11,6,8,5,2,4,2,4,7,5,7,325,1274,
scooby_state_5606b0706266|31|2 869,4,4,3,4,2,6,5,5,2,3,4,1,4,355,1271,
scooby_state_5606b0706266|18|3 862,6,13,9,7,3,7,6,3,3,1,7,4,2,335,1268,
scooby_state_5606b0706266|57|3 870,5,5,17,2,7,2,2,6,4,5,4,5,6,326,1266,
scooby_state_5606b0706266|21|3 881,1,11,9,7,2,7,1,5,5,4,7,5,4,315,1264,
scooby_state_5606b0706266|26|2 876,4,6,4,6,2,4,2,3,8,6,3,5,4,330,1263,
scooby_state_5606b0706266|54|5 848,5,5,12,3,7,9,10,4,6,5,12,5,2,327,1260,
scooby_state_5606b070627b|9|0 881,6,2,3,8,6,5,2,2,4,6,1,3,4,326,1259,
scooby_state_5606b0706266|29|2 851,8,10,8,3,4,3,7,2,7,4,6,8,0,338,1259,
scooby_state_5606b0706266|46|4 882,4,6,1,3,3,0,3,5,6,3,2,8,3,330,1259,
scooby_state_5606b0706266|40|4 876,3,6,7,7,3,3,5,3,2,2,5,1,4,332,1259,
scooby_state_5606b070627b|43|0 902,4,3,8,4,2,2,3,1,2,2,4,3,2,316,1258,
scooby_state_5606b0706266|58|2 831,4,4,4,8,7,4,2,5,3,5,3,2,4,372,1258,
scooby_state_5606b070627b|48|0 842,7,3,3,3,1,5,5,5,1,2,6,7,2,365,1257,
scooby_state_5606b070627b|54|0 875,5,2,3,1,3,4,1,1,6,2,5,2,10,335,1255,
scooby_state_5606b0706266|48|4 864,3,1,6,2,3,8,4,1,2,0,4,6,3,347,1254,
scooby_state_5606b0706266|41|3 842,4,4,10,2,8,7,4,4,3,3,5,6,4,346,1252,
scooby_state_5606b070627b|45|0 850,9,9,4,8,5,2,2,5,4,1,6,4,8,335,1252,
scooby_state_5606b0706266|28|3 855,8,9,9,6,5,5,4,3,3,2,4,4,8,326,1251,
scooby_state_5606b0706266|62|3 810,5,12,14,7,3,7,9,3,2,5,5,1,2,365,1250,
scooby_state_5606b0706266|63|4 844,4,4,8,6,2,5,0,3,1,1,3,4,3,361,1249,
scooby_state_5606b0706266|20|4 879,6,4,4,4,0,4,3,4,6,2,6,2,0,324,1248,
scooby_state_5606b0706266|12|5 881,6,3,8,5,4,3,5,5,4,4,6,7,6,300,1247,
scooby_state_5606b0706266|5|2 869,11,5,4,8,3,3,8,5,6,6,8,1,4,305,1246,
scooby_state_5606b0706266|10|2 881,8,7,6,4,1,5,2,5,6,5,10,4,4,297,1245,
scooby_state_5606b0706266|55|3 862,7,6,6,9,4,8,2,7,4,4,3,0,6,316,1244,
scooby_state_5606b0706266|59|3 821,3,10,10,2,11,5,5,1,7,4,3,3,3,353,1241,
scooby_state_5606b0706266|36|3 854,4,10,1,3,7,3,5,4,4,4,1,2,3,336,1241,
scooby_state_5606b0706266|56|4 862,6,3,2,5,1,2,0,8,5,3,2,2,1,338,1240,
scooby_state_5606b0706266|37|3 868,3,6,12,3,1,7,4,3,5,2,2,3,8,311,1238,
scooby_state_5606b0706266|62|4 831,5,6,4,1,3,4,4,7,2,3,7,3,5,353,1238,
scooby_state_5606b0706266|48|2 843,4,3,7,6,3,5,6,5,3,1,5,3,3,340,1237,
scooby_state_5606b070627b|21|0 857,9,2,3,7,2,4,4,1,2,1,7,6,7,324,1236,
scooby_state_5606b0706266|22|5 868,8,9,8,4,4,2,6,3,2,6,4,5,8,298,1235,
scooby_state_5606b070627b|41|0 845,3,3,4,5,3,4,7,2,1,3,6,5,3,334,1228,
scooby_state_5606b0706266|34|3 830,8,6,15,7,6,4,7,0,4,3,2,3,4,328,1227,
scooby_state_5606b070627b|24|0 895,4,3,5,2,2,1,2,3,2,0,3,6,3,295,1226,
scooby_state_5606b0706266|19|4 835,2,4,2,1,3,3,5,7,6,2,0,3,1,351,1225,
scooby_state_5606b0706266|11|4 870,3,5,3,1,5,4,4,1,2,4,2,5,2,314,1225,
scooby_state_5606b0706266|27|2 822,2,8,3,3,4,6,6,4,7,4,7,3,4,340,1223,
scooby_state_5606b0706266|32|6 871,6,5,5,4,4,1,6,2,2,4,6,5,5,296,1222,
scooby_state_5606b0706266|59|2 813,7,9,5,3,6,4,2,4,4,1,7,5,2,349,1221,
scooby_state_5606b0706266|27|4 853,2,5,3,3,5,2,4,3,0,2,4,3,3,323,1215,
scooby_state_5606b0706266|46|3 818,8,8,10,5,4,2,0,5,2,3,6,6,5,333,1215,
scooby_state_5606b0706266|3|2 838,8,7,5,4,3,3,3,4,2,3,6,5,5,310,1206,
scooby_state_5606b0706266|30|2 849,6,6,6,7,3,4,3,9,2,7,2,1,1,295,1201,
scooby_state_5606b0706266|43|4 834,3,2,3,4,1,2,2,2,3,2,2,4,2,335,1201,
scooby_state_5606b0706266|53|3 821,3,11,11,2,1,4,7,4,3,3,4,3,5,317,1199,
scooby_state_5606b0706266|21|4 816,7,2,4,6,7,2,4,4,3,1,4,4,3,331,1198,
scooby_state_5606b0706266|13|3 804,4,8,9,4,2,2,7,6,5,3,4,8,1,331,1198,
scooby_state_5606b0706266|49|4 801,9,3,4,4,4,4,2,1,1,2,3,2,5,352,1197,
scooby_state_5606b0706266|32|3 834,3,11,7,2,3,1,3,2,5,5,3,3,4,309,1195,
scooby_state_5606b0706266|17|4 820,4,4,3,2,4,1,4,4,2,2,5,4,3,332,1194,
scooby_state_5606b070627b|29|0 868,4,9,5,5,3,5,1,0,3,4,4,2,4,276,1193,
scooby_state_5606b0706266|41|4 820,2,9,5,9,2,1,3,0,2,4,3,3,3,327,1193,
scooby_state_5606b0706266|48|3 785,6,10,11,4,9,5,2,6,3,3,4,5,3,336,1192,
scooby_state_5606b0706266|18|2 836,4,5,8,3,7,6,1,5,7,4,6,5,2,292,1191,
scooby_state_5606b0706266|4|4 832,4,1,2,3,3,3,1,1,3,2,6,6,5,318,1190,
scooby_state_5606b0706266|20|2 827,2,4,7,2,7,5,3,5,4,6,9,3,2,300,1186,
scooby_state_5606b0706266|42|4 795,7,3,3,4,6,3,3,5,1,2,3,5,5,332,1177,
scooby_state_5606b0706266|48|5 815,6,9,5,3,3,9,3,4,1,5,6,4,7,297,1177,
scooby_state_5606b0706266|54|8 817,10,2,3,6,3,5,3,2,5,5,5,3,3,302,1174,
scooby_state_5606b0706266|51|4 778,5,7,3,3,6,4,3,3,2,3,5,7,1,344,1174,
scooby_state_5606b0706266|63|3 818,5,4,7,3,3,2,4,4,4,8,9,1,2,296,1170,
scooby_state_5606b0706266|32|4 819,4,2,4,3,4,4,2,2,3,1,1,4,6,311,1170,
scooby_state_5606b070627b|1|0 798,2,8,5,8,3,4,2,4,3,4,5,9,2,311,1168,
scooby_state_5606b0706266|57|4 782,7,5,3,3,2,5,3,1,6,2,1,3,6,338,1167,
scooby_state_5606b0706266|52|5 801,2,2,6,6,6,6,11,3,2,2,9,5,3,302,1166,
scooby_state_5606b0706266|15|4 821,2,5,6,1,2,7,0,6,2,2,2,1,0,307,1164,
scooby_state_5606b0706266|11|3 778,5,7,5,7,4,2,2,3,1,2,5,2,2,339,1164,
scooby_state_5606b0706266|16|3 813,4,4,6,2,3,2,2,1,2,3,4,6,1,310,1163,
scooby_state_5606b0706266|36|5 796,4,6,11,2,4,6,4,7,3,7,4,5,6,296,1161,
scooby_state_5606b0706266|6|4 797,7,2,3,3,2,4,5,6,1,1,1,7,3,318,1160,
scooby_state_5606b0706266|49|6 836,7,4,7,3,4,2,4,2,6,2,2,6,3,272,1160,
scooby_state_5606b0706266|61|3 816,7,7,6,5,3,7,2,5,3,3,5,0,6,282,1157,
scooby_state_5606b0706266|8|3 778,3,2,7,8,6,5,6,4,2,3,8,2,4,315,1153,
scooby_state_5606b0706266|30|4 792,8,6,4,2,4,3,2,2,5,3,3,4,1,313,1152,
scooby_state_5606b0706266|22|4 808,8,3,3,2,3,2,0,4,3,1,3,6,2,303,1151,
scooby_state_5606b0706266|15|3 796,5,4,8,6,3,4,3,6,4,3,2,3,3,301,1151,
scooby_state_5606b0706266|3|3 790,0,7,8,2,6,5,3,5,5,2,5,2,4,305,1149,
scooby_state_5606b0706266|43|5 818,6,8,10,1,7,4,6,1,4,5,4,5,2,265,1146,
scooby_state_5606b0706266|24|4 802,1,7,4,5,4,1,5,2,3,1,0,2,2,305,1144,
scooby_state_5606b0706266|36|7 787,9,10,5,8,2,6,3,6,4,6,8,2,6,281,1143,
scooby_state_5606b0706266|13|4 786,12,3,4,4,1,4,2,1,1,3,1,4,4,308,1138,
scooby_state_5606b0706266|31|5 799,5,4,5,4,4,7,3,2,5,1,5,3,1,286,1134,
scooby_state_5606b0706266|50|3 782,4,4,10,4,2,3,3,1,5,2,3,5,8,297,1133,
scooby_state_5606b0706266|33|4 754,3,3,4,3,9,8,1,1,2,5,2,3,1,333,1132,
scooby_state_5606b0706266|61|7 814,5,7,9,4,4,5,3,2,2,5,3,5,5,259,1132,
scooby_state_5606b0706266|26|4 778,10,2,3,2,3,4,5,3,4,4,6,3,4,301,1132,
scooby_state_5606b0706266|39|4 758,3,4,2,3,2,5,6,0,1,0,0,1,6,340,1131,
scooby_state_5606b0706266|33|3 752,7,12,9,3,5,5,2,3,2,3,5,6,2,314,1130,
scooby_state_5606b0706266|33|5 769,7,9,4,5,7,2,1,4,5,4,2,8,2,298,1127,
scooby_state_5606b0706266|44|3 743,6,5,4,5,7,5,5,4,2,3,4,5,3,325,1126,
scooby_state_5606b0706266|55|4 777,7,7,4,2,4,3,4,6,2,3,3,7,2,293,1124,
scooby_state_5606b0706266|60|3 747,7,8,3,4,6,3,9,3,5,5,8,3,4,309,1124,
scooby_state_5606b0706266|41|6 805,2,3,5,5,4,8,3,2,5,4,2,2,5,265,1120,
scooby_state_5606b0706266|14|4 778,2,4,4,3,5,2,1,2,1,0,4,7,2,304,1119,
scooby_state_5606b0706266|36|4 776,5,4,4,4,3,3,3,2,2,6,2,3,4,297,1118,
scooby_state_5606b0706266|21|5 771,7,4,5,2,8,1,1,5,3,2,3,2,5,298,1117,
scooby_state_5606b0706266|32|5 795,8,2,4,3,7,7,1,4,2,3,1,3,6,271,1117,
scooby_state_5606b0706266|52|4 771,3,3,2,3,6,5,1,2,2,1,4,4,2,308,1117,
scooby_state_5606b0706266|37|5 751,7,3,5,5,7,4,2,8,3,3,4,3,2,307,1114,
scooby_state_5606b0706266|59|4 732,7,1,4,2,7,3,2,2,1,1,4,5,3,336,1110,
scooby_state_5606b0706266|30|3 756,6,9,5,5,7,6,5,1,0,1,6,4,3,295,1109,
scooby_state_5606b0706266|16|7 781,6,5,5,8,6,3,3,3,2,2,7,6,7,264,1108,
scooby_state_5606b0706266|47|4 747,4,2,2,5,4,4,3,3,1,3,4,4,0,319,1105,
scooby_state_5606b0706266|60|6 771,5,8,2,2,7,4,5,3,3,3,9,3,4,274,1103,
scooby_state_5606b0706266|52|7 768,5,7,5,1,5,3,4,2,5,2,1,9,10,275,1102,
scooby_state_5606b0706266|29|7 758,3,10,6,4,3,6,4,1,2,5,2,3,4,289,1100,
scooby_state_5606b0706266|54|4 752,4,4,3,8,2,5,2,4,1,3,3,2,3,301,1097,
scooby_state_5606b0706266|29|5 776,1,7,5,6,5,9,5,2,5,7,4,10,4,248,1094,
scooby_state_5606b070627b|33|0 806,2,5,4,2,4,4,8,4,3,2,3,3,3,240,1093,
scooby_state_5606b0706266|55|7 754,9,5,6,4,6,4,4,7,4,4,11,4,7,264,1093,
scooby_state_5606b0706266|48|6 774,2,3,4,4,4,5,2,2,5,1,2,5,3,277,1093,
scooby_state_5606b0706266|41|7 774,8,2,7,5,3,5,2,4,6,3,6,6,8,254,1093,
scooby_state_5606b0706266|27|3 783,8,12,5,5,4,4,4,3,3,1,5,6,2,244,1089,
scooby_state_5606b0706266|29|6 755,2,6,6,3,5,4,2,1,4,3,5,1,6,285,1088,
scooby_state_5606b0706266|25|4 753,7,2,3,2,5,4,6,1,1,3,5,4,3,288,1087,
scooby_state_5606b070627b|32|0 786,3,4,3,0,3,1,2,1,3,4,2,2,3,268,1085,
scooby_state_5606b0706266|56|5 741,4,4,8,4,1,7,5,2,4,5,6,3,6,285,1085,
scooby_state_5606b0706266|51|5 731,5,6,5,3,3,3,3,2,4,2,5,3,4,306,1085,
scooby_state_5606b070627b|46|0 787,4,1,0,1,5,0,0,2,1,3,4,1,2,274,1085,
scooby_state_5606b0706266|14|3 720,1,8,1,0,3,2,5,6,3,6,2,5,3,318,1083,
scooby_state_5606b0706266|42|3 731,5,7,8,5,4,2,5,3,7,4,2,3,6,285,1077,
scooby_state_5606b0706266|34|5 761,1,6,5,7,5,3,0,2,5,0,5,4,6,265,1075,
scooby_state_5606b0706266|15|6 716,2,3,6,8,1,2,3,7,2,3,5,7,1,308,1074,
scooby_state_5606b0706266|58|3 760,11,7,9,2,4,5,6,3,1,1,2,6,4,253,1074,
scooby_state_5606b0706266|47|7 775,5,7,3,3,2,5,3,2,6,3,6,7,4,242,1073,
scooby_state_5606b070627b|35|0 737,3,10,0,2,6,4,2,1,2,3,5,6,3,288,1072,
scooby_state_5606b0706266|48|7 715,1,3,5,9,7,4,4,3,4,5,5,2,9,292,1068,
scooby_state_5606b0706266|6|3 737,5,9,8,6,2,3,4,6,5,3,3,5,4,268,1068,
scooby_state_5606b0706266|23|4 764,4,2,3,1,9,3,3,6,1,2,6,2,3,258,1067,
scooby_state_5606b0706266|13|5 747,9,7,2,7,3,2,1,5,5,0,2,6,5,266,1067,
scooby_state_5606b0706266|10|8 773,6,7,7,11,2,5,4,3,3,0,1,3,2,240,1067,
scooby_state_5606b0706266|38|6 750,11,5,2,1,3,5,4,3,2,2,8,1,2,267,1066,
scooby_state_5606b0706266|7|5 707,3,5,12,2,3,1,2,3,5,2,3,5,6,306,1065,
scooby_state_5606b0706266|29|4 720,4,6,4,1,2,3,6,2,1,0,2,5,4,304,1064,
scooby_state_5606b0706266|53|5 698,6,6,7,4,6,5,9,3,9,4,7,4,7,288,1063,
scooby_state_5606b0706266|28|4 720,4,1,7,5,3,8,3,5,3,3,1,2,5,292,1062,
scooby_state_5606b0706266|54|6 741,3,6,4,2,6,3,5,3,4,1,5,4,0,274,1061,
scooby_state_5606b0706266|49|5 746,6,6,3,5,8,1,1,3,6,1,4,4,7,257,1058,
scooby_state_5606b0706266|58|5 713,3,6,8,3,5,6,2,3,9,3,6,4,6,280,1057,
scooby_state_5606b0706266|60|4 713,3,3,6,8,2,2,7,5,1,3,3,4,0,297,1057,
scooby_state_5606b0706266|42|5 714,5,4,10,7,7,2,2,2,3,5,5,8,5,276,1055,
scooby_state_5606b0706266|19|5 739,5,6,5,1,6,5,3,6,2,3,4,5,2,261,1053,
scooby_state_5606b0706266|20|5 716,4,2,4,6,4,8,3,7,3,2,2,4,3,283,1051,
scooby_state_5606b0706266|16|4 720,5,4,2,4,2,4,2,2,0,3,4,5,2,290,1049,
scooby_state_5606b0706266|11|5 735,8,2,9,2,10,3,2,2,4,5,8,1,6,251,1048,
scooby_state_5606b0706266|9|5 715,6,10,6,4,4,5,2,4,3,3,4,3,2,276,1047,
scooby_state_5606b0706266|45|4 728,2,3,0,2,3,5,1,2,0,1,2,2,4,291,1046,
scooby_state_5606b0706266|37|4 719,4,1,3,3,2,3,3,3,1,4,3,2,1,293,1045,
scooby_state_5606b0706266|42|8 735,4,5,4,0,4,2,4,1,4,2,5,5,4,263,1042,
scooby_state_5606b0706266|7|6 740,3,2,4,5,1,3,3,6,0,5,2,2,2,263,1041,
scooby_state_5606b0706266|40|5 699,7,4,7,0,4,7,4,5,4,2,5,4,4,285,1041,
scooby_state_5606b0706266|10|4 707,2,4,6,6,3,5,2,6,1,3,2,3,3,287,1040,
scooby_state_5606b0706266|47|5 727,6,9,10,3,10,1,2,3,5,1,3,4,4,251,1039,
scooby_state_5606b0706266|12|4 714,2,4,3,0,6,4,1,3,2,2,2,5,3,286,1037,
scooby_state_5606b0706266|10|5 716,2,8,4,3,1,4,4,8,6,2,1,4,4,268,1035,
scooby_state_5606b0706266|16|5 692,7,8,8,7,7,4,2,3,2,2,2,1,6,282,1033,
scooby_state_5606b0706266|61|8 699,7,4,4,5,5,4,2,2,2,2,6,4,8,278,1032,
scooby_state_5606b0706266|35|4 696,3,3,4,2,4,1,1,2,3,3,3,3,1,301,1030,
scooby_state_5606b0706266|47|6 724,4,5,6,6,3,5,2,3,7,1,4,2,4,253,1029,
scooby_state_5606b0706266|46|6 705,4,7,1,6,3,5,4,1,1,2,4,2,3,279,1027,
scooby_state_5606b0706266|42|7 702,3,8,8,2,8,5,3,2,2,1,6,6,6,265,1027,
scooby_state_5606b0706266|34|4 694,4,5,5,6,3,4,5,1,2,1,3,4,1,288,1026,
scooby_state_5606b0706266|43|7 689,4,2,7,9,4,6,7,4,6,4,10,6,4,262,1024,
scooby_state_5606b0706266|51|7 697,3,5,2,3,9,3,4,1,3,0,2,3,9,279,1023,
scooby_state_5606b070627b|53|0 726,4,5,3,2,1,6,2,3,4,2,4,6,2,253,1023,
scooby_state_5606b0706266|18|4 697,3,7,5,4,2,2,2,3,3,2,0,1,1,291,1023,
scooby_state_5606b0706266|14|5 685,6,6,4,3,6,5,4,2,7,0,3,4,5,281,1021,
scooby_state_5606b070627b|19|0 733,0,3,2,3,0,2,3,2,6,1,9,3,4,248,1019,
scooby_state_5606b0706266|53|7 719,3,4,2,7,4,5,4,3,5,2,3,6,6,245,1018,
scooby_state_5606b0706266|54|7 686,7,2,6,5,6,3,2,2,5,3,8,1,5,275,1016,
scooby_state_5606b0706266|62|5 660,7,5,6,7,8,5,4,5,1,3,8,3,3,290,1015,
scooby_state_5606b0706266|59|5 669,4,2,9,7,3,2,7,7,2,3,4,4,6,285,1014,
scooby_state_5606b0706266|25|5 706,3,8,6,5,4,5,4,3,3,2,4,6,3,252,1014,
scooby_state_5606b0706266|53|6 704,8,3,5,5,1,5,3,4,2,1,4,3,1,265,1014,
scooby_state_5606b0706266|50|4 672,4,5,4,4,6,3,1,3,2,1,3,6,1,298,1013,
scooby_state_5606b0706266|63|5 683,6,9,6,4,4,4,4,7,3,4,4,2,3,269,1012,
scooby_state_5606b0706266|44|5 697,6,7,4,4,6,5,5,2,4,4,3,2,8,255,1012,
scooby_state_5606b0706266|59|6 676,5,4,5,4,3,2,1,2,3,1,4,1,2,296,1009,
scooby_state_5606b0706266|63|6 681,6,3,2,3,2,7,4,3,3,1,6,6,5,276,1008,
scooby_state_5606b0706266|13|6 705,5,1,6,2,3,4,3,6,1,2,5,4,3,255,1005,
scooby_state_5606b0706266|61|4 682,7,3,3,4,0,6,3,2,1,3,0,5,4,278,1001,
scooby_state_5606b0706266|28|5 701,8,4,7,4,7,4,0,1,2,3,4,5,4,247,1001,
scooby_state_5606b0706266|19|7 682,7,9,6,6,2,5,2,4,2,5,9,6,3,253,1001,
scooby_state_5606b0706266|39|7 710,7,7,4,6,5,4,4,2,4,1,0,7,4,233,998,
scooby_state_5606b0706266|53|10 729,5,5,7,6,6,6,3,1,1,2,2,5,5,213,996,
scooby_state_5606b0706266|5|5 686,5,7,7,1,2,3,2,2,6,3,3,7,6,254,994,
scooby_state_5606b0706266|17|5 692,3,1,7,4,3,5,2,1,5,4,6,9,4,248,994,
scooby_state_5606b0706266|23|6 664,3,4,3,4,5,3,9,2,5,1,4,4,5,277,993,
scooby_state_5606b0706266|15|5 670,5,10,4,7,2,4,0,5,2,0,4,5,5,269,992,
scooby_state_5606b0706266|58|6 676,6,4,5,5,6,3,4,4,4,3,3,4,6,255,988,
scooby_state_5606b0706266|26|6 694,4,8,4,4,0,5,4,3,1,1,2,2,6,250,988,
scooby_state_5606b0706266|18|6 697,7,3,5,5,3,1,2,4,3,3,1,7,1,244,986,
scooby_state_5606b0706266|31|4 696,3,7,2,1,3,3,3,2,1,3,3,1,0,257,985,
scooby_state_5606b0706266|46|5 675,3,5,7,4,2,7,2,4,2,2,2,2,3,264,984,
scooby_state_5606b0706266|7|4 658,3,2,1,6,1,1,3,2,1,8,1,0,2,295,984,
scooby_state_5606b0706266|35|6 683,4,7,7,3,3,3,1,1,3,4,3,3,2,256,983,
scooby_state_5606b0706266|28|6 691,6,3,2,3,5,3,4,1,3,2,2,4,2,251,982,
scooby_state_5606b0706266|50|8 687,3,8,5,4,5,4,4,1,2,5,5,3,0,245,981,
scooby_state_5606b0706266|60|5 652,10,8,6,4,4,3,3,4,3,4,4,2,2,272,981,
scooby_state_5606b0706266|49|8 675,9,4,6,1,6,5,3,4,0,8,7,3,3,244,978,
scooby_state_5606b0706266|6|5 672,5,5,5,5,5,3,3,2,4,3,5,1,4,255,977,
scooby_state_5606b0706266|42|6 667,3,4,6,7,5,8,3,1,2,3,4,6,5,252,976,
scooby_state_5606b0706266|11|7 681,3,6,9,3,2,4,2,2,4,4,3,4,9,240,976,
scooby_state_5606b0706266|62|6 691,5,4,3,1,2,4,3,5,4,2,5,3,9,234,975,
scooby_state_5606b0706266|45|6 661,3,4,4,7,2,1,2,2,2,6,3,4,4,270,975,
scooby_state_5606b0706266|18|5 671,7,6,4,4,4,5,4,2,5,6,2,3,6,245,974,
scooby_state_5606b0706266|57|5 629,7,6,2,4,8,3,0,5,1,4,6,6,5,287,973,
scooby_state_5606b0706266|23|7 656,7,12,4,8,6,3,3,6,2,5,3,5,4,248,972,
scooby_state_5606b0706266|39|5 687,9,4,3,3,5,3,4,5,2,2,3,2,3,235,970,
scooby_state_5606b0706266|49|7 672,2,8,6,7,3,4,5,1,3,4,2,5,6,241,969,
scooby_state_5606b0706266|50|5 675,4,7,5,4,4,3,3,5,2,5,5,4,3,240,969,
scooby_state_5606b0706266|45|5 675,3,7,4,3,3,3,5,3,3,2,5,4,1,248,969,
scooby_state_5606b0706266|5|4 658,3,3,1,2,6,5,0,2,0,1,2,2,1,282,968,
scooby_state_5606b0706266|22|7 694,8,11,4,4,4,2,2,1,3,2,3,4,1,225,968,
scooby_state_5606b0706266|38|5 671,6,5,3,3,6,5,3,4,4,5,4,3,4,241,967,
scooby_state_5606b0706266|11|6 662,6,2,10,3,2,5,5,1,5,4,0,5,6,249,965,
scooby_state_5606b0706266|61|5 653,2,4,8,5,6,4,3,5,3,1,3,5,3,260,965,
scooby_state_5606b0706266|56|6 642,8,4,5,0,3,7,6,3,5,1,6,5,4,265,964,
scooby_state_5606b070627b|12|0 702,2,1,2,2,1,1,1,2,1,0,2,2,3,241,963,
scooby_state_5606b0706266|23|5 686,3,7,8,4,5,2,3,0,4,3,2,3,5,226,961,
scooby_state_5606b0706266|40|8 671,5,1,4,8,3,4,2,7,1,3,5,4,2,238,958,
scooby_state_5606b0706266|62|8 692,4,3,2,4,4,7,5,5,4,0,0,6,3,218,957,
scooby_state_5606b0706266|62|7 681,7,7,5,4,3,6,3,8,4,1,3,0,4,219,955,
scooby_state_5606b0706266|33|9 684,5,5,7,5,2,1,3,1,3,1,4,1,4,229,955,
scooby_state_5606b0706266|32|7 664,4,6,5,2,4,10,2,1,2,2,5,10,9,227,953,
scooby_state_5606b0706266|16|6 677,10,6,7,4,2,7,1,3,4,2,4,5,3,216,951,
scooby_state_5606b0706266|50|7 652,2,4,5,8,3,7,3,4,2,5,3,4,4,242,948,
scooby_state_5606b0706266|57|6 612,5,2,7,5,3,4,2,3,4,4,4,2,4,286,947,
scooby_state_5606b0706266|55|5 653,1,8,3,6,6,4,4,0,1,3,7,4,2,244,946,
scooby_state_5606b0706266|6|6 666,2,2,2,4,7,1,4,5,2,3,3,6,1,238,946,
scooby_state_5606b070627b|51|0 626,2,4,6,6,3,2,5,1,2,2,5,1,4,273,942,
scooby_state_5606b0706266|35|5 658,7,8,7,2,7,3,6,3,4,3,4,1,4,225,942,
scooby_state_5606b0706266|8|7 644,2,4,1,2,4,3,3,2,5,3,5,3,5,256,942,
scooby_state_5606b070627b|39|0 646,5,4,4,5,2,3,3,3,3,4,2,5,2,247,938,
scooby_state_5606b0706266|12|6 634,3,3,10,3,8,0,2,2,4,1,2,7,5,254,938,
scooby_state_5606b070627b|58|0 627,3,4,1,2,3,4,3,1,2,2,3,3,2,277,937,
scooby_state_5606b0706266|7|7 633,7,6,1,4,2,2,3,4,3,2,4,9,8,248,936,
scooby_state_5606b0706266|24|5 616,3,8,4,3,8,5,8,1,6,3,5,7,5,247,929,
scooby_state_5606b0706266|61|6 624,4,10,5,4,5,1,2,5,3,2,3,2,1,258,929,
scooby_state_5606b0706266|14|6 658,4,3,5,3,2,2,2,0,1,3,6,5,1,234,929,
scooby_state_5606b0706266|14|7 623,5,6,5,6,5,1,2,4,4,2,6,7,4,247,927,
scooby_state_5606b0706266|34|6 647,6,4,4,3,2,2,1,2,0,3,3,7,4,239,927,
scooby_state_5606b0706266|51|8 636,7,6,6,2,3,3,3,5,2,0,4,1,4,244,926,
scooby_state_5606b0706266|20|7 629,4,7,6,6,1,3,2,5,3,4,7,3,7,235,922,
scooby_state_5606b0706266|12|7 648,0,3,7,4,6,3,1,3,2,7,4,4,5,225,922,
scooby_state_5606b070627b|59|0 659,1,1,4,2,5,4,4,3,1,3,1,2,5,227,922,
scooby_state_5606b0706266|33|7 621,5,4,3,5,5,2,2,1,4,5,1,3,5,252,918,
scooby_state_5606b0706266|33|6 626,2,2,2,2,1,4,3,4,4,3,2,3,2,258,918,
scooby_state_5606b0706266|8|6 636,6,4,4,5,5,5,4,0,3,1,3,3,0,238,917,
scooby_state_5606b0706266|56|7 631,3,9,1,4,4,2,3,9,2,8,2,4,5,229,916,
scooby_state_5606b0706266|58|7 643,6,4,7,4,3,8,2,3,4,2,0,4,3,223,916,
scooby_state_5606b0706266|8|4 597,3,6,5,2,3,0,1,2,2,1,2,4,2,285,915,
scooby_state_5606b0706266|21|6 625,2,2,5,3,2,4,3,2,1,2,3,3,0,258,915,
scooby_state_5606b0706266|39|6 624,3,1,5,2,4,3,5,1,4,2,5,6,4,245,914,
scooby_state_5606b0706266|21|8 630,5,1,3,1,6,1,2,1,1,1,1,5,6,249,913,
scooby_state_5606b0706266|60|7 624,3,7,4,3,2,1,3,3,4,3,4,2,3,246,912,
scooby_state_5606b0706266|13|11 627,5,11,7,5,2,1,4,11,3,2,2,3,3,224,910,
scooby_state_5606b0706266|46|7 617,3,5,2,3,3,7,2,5,3,3,9,5,7,233,907,
scooby_state_5606b0706266|17|6 632,4,5,6,2,2,1,3,0,2,1,2,3,2,241,906,
scooby_state_5606b0706266|50|6 614,2,2,2,3,2,4,4,3,5,4,3,3,3,251,905,
scooby_state_5606b0706266|20|6 645,5,2,4,4,2,3,1,1,0,4,1,3,3,226,904,
scooby_state_5606b0706266|52|6 602,8,4,5,2,6,0,4,6,2,4,3,2,1,254,903,
scooby_state_5606b0706266|44|6 627,2,9,2,2,3,4,5,4,0,1,1,1,6,234,901,
scooby_state_5606b0706266|23|10 653,6,4,5,5,3,5,5,3,2,2,6,4,5,191,899,
scooby_state_5606b0706266|34|8 648,8,1,3,2,0,3,4,3,4,2,0,3,3,214,898,
scooby_state_5606b0706266|26|7 603,2,6,5,6,2,3,2,3,3,4,4,1,6,246,896,
scooby_state_5606b0706266|30|5 608,10,6,6,5,5,4,5,2,4,2,3,1,3,230,894,
scooby_state_5606b0706266|55|6 637,4,5,0,5,2,4,1,4,1,1,3,2,2,222,893,
scooby_state_5606b0706266|63|7 613,11,2,1,5,6,4,5,2,1,3,3,6,6,225,893,
scooby_state_5606b0706266|36|10 633,9,2,3,2,4,3,2,7,0,4,5,4,6,209,893,
scooby_state_5606b0706266|27|7 627,6,6,4,4,4,4,4,3,1,4,3,2,0,221,893,
scooby_state_5606b0706266|25|6 598,4,5,5,7,3,0,0,4,3,4,3,3,5,249,893,
scooby_state_5606b070627b|13|0 661,4,3,6,1,2,3,0,1,1,1,1,1,2,205,892,
scooby_state_5606b0706266|40|6 612,3,1,2,2,0,2,1,5,0,4,1,4,4,248,889,
scooby_state_5606b0706266|53|9 622,3,2,3,3,3,1,7,5,2,2,0,6,2,228,889,
scooby_state_5606b0706266|31|8 629,2,4,9,5,2,6,2,5,3,3,1,1,5,212,889,
scooby_state_5606b0706266|35|9 631,5,5,2,2,1,5,1,4,0,6,6,0,1,219,888,
scooby_state_5606b0706266|19|6 595,6,4,8,3,5,2,3,1,5,4,6,3,2,241,888,
scooby_state_5606b0706266|51|6 611,6,2,8,4,6,5,1,0,2,1,3,4,2,233,888,
scooby_state_5606b0706266|8|5 600,4,7,4,3,1,3,1,3,5,3,8,7,1,236,886,
scooby_state_5606b0706266|23|8 599,3,5,7,5,7,7,1,2,3,5,3,5,3,230,885,
scooby_state_5606b0706266|31|7 615,6,6,3,1,7,2,2,3,2,2,8,4,5,219,885,
scooby_state_5606b0706266|24|7 602,7,10,9,4,9,3,4,2,1,4,4,2,7,216,884,
scooby_state_5606b0706266|60|9 629,6,4,5,2,3,1,1,2,3,0,3,3,1,221,884,
scooby_state_5606b0706266|15|7 597,6,4,6,7,1,2,2,3,0,0,2,5,8,238,881,
scooby_state_5606b0706266|41|9 620,1,4,2,5,0,3,2,1,2,5,4,1,7,224,881,
scooby_state_5606b0706266|36|6 598,8,5,6,3,3,4,2,3,1,4,4,6,2,230,879,
scooby_state_5606b0706266|22|10 621,2,6,6,8,2,3,4,6,5,5,5,5,4,196,878,
scooby_state_5606b0706266|17|8 601,3,3,6,6,3,2,2,6,2,7,4,7,3,223,878,
scooby_state_5606b0706266|27|5 625,9,5,3,7,2,3,4,2,0,2,4,7,3,199,875,
scooby_state_5606b0706266|48|8 609,7,3,8,3,2,3,4,4,2,3,5,6,7,209,875,
scooby_state_5606b0706266|26|8 610,4,4,6,4,6,6,4,1,4,1,6,6,4,207,873,
scooby_state_5606b0706266|8|8 596,5,7,3,6,8,5,4,3,0,2,4,5,2,223,873,
scooby_state_5606b0706266|9|7 592,2,5,5,5,5,2,6,2,0,3,3,4,2,232,868,
scooby_state_5606b0706266|46|8 621,5,1,3,8,2,2,5,4,0,6,6,5,4,194,866,
scooby_state_5606b0706266|22|6 588,6,2,10,2,2,4,3,1,2,4,4,1,2,235,866,
scooby_state_5606b0706266|9|6 607,1,4,5,2,3,2,2,3,1,3,2,5,3,222,865,
scooby_state_5606b0706266|58|9 622,0,3,3,3,2,2,2,3,2,3,3,2,0,215,865,
scooby_state_5606b0706266|27|6 591,4,3,3,5,4,4,4,3,2,2,4,3,3,227,862,
scooby_state_5606b0706266|59|8 600,1,7,6,4,4,4,4,5,3,2,3,0,7,211,861,
scooby_state_5606b0706266|9|9 583,2,2,2,9,3,3,1,5,1,1,3,7,4,234,860,
scooby_state_5606b0706266|47|9 628,2,3,3,4,2,6,5,3,2,3,3,6,2,186,858,
scooby_state_5606b0706266|61|10 604,2,9,6,7,2,3,3,3,1,3,3,8,4,200,858,
scooby_state_5606b0706266|40|9 612,1,3,2,6,0,4,2,1,1,0,1,4,3,216,856,
scooby_state_5606b0706266|45|7 583,2,5,4,3,1,4,2,3,5,5,4,5,5,224,855,
scooby_state_5606b0706266|13|7 604,3,2,6,5,2,5,0,7,1,5,1,3,3,208,855,
scooby_state_5606b0706266|52|9 624,5,4,2,0,0,4,2,2,0,1,2,2,4,202,854,
scooby_state_5606b0706266|29|8 612,5,0,4,3,2,5,1,3,1,3,2,3,6,202,852,
scooby_state_5606b0706266|59|7 579,5,8,5,5,3,4,7,4,3,1,3,7,4,212,850,
scooby_state_5606b0706266|49|9 592,7,6,3,2,1,2,2,3,3,2,2,7,2,216,850,
scooby_state_5606b0706266|30|6 577,10,2,4,6,4,1,6,6,4,0,2,4,1,223,850,
scooby_state_5606b0706266|35|7 597,3,5,4,7,4,0,3,5,4,4,2,1,4,205,848,
scooby_state_5606b0706266|12|9 610,4,6,1,2,5,3,3,0,1,3,4,5,3,197,847,
scooby_state_5606b0706266|21|7 586,1,7,5,4,6,1,2,2,1,2,8,7,8,203,843,
scooby_state_5606b0706266|43|8 599,4,4,4,3,7,1,3,5,2,2,2,3,2,201,842,
scooby_state_5606b0706266|57|7 579,3,5,2,6,10,2,1,4,2,2,5,3,4,214,842,
scooby_state_5606b0706266|63|8 596,0,5,8,7,2,0,2,3,2,2,1,4,2,206,840,
scooby_state_5606b0706266|46|10 581,6,10,8,3,3,3,5,2,0,5,5,1,1,206,839,
scooby_state_5606b0706266|19|10 571,8,5,5,2,3,3,3,1,2,1,3,5,3,223,838,
scooby_state_5606b0706266|22|12 609,6,4,3,6,10,6,1,6,2,2,4,1,8,168,836,
scooby_state_5606b0706266|25|8 580,2,2,4,2,2,4,1,2,4,3,1,2,2,223,834,
scooby_state_5606b0706266|32|9 590,5,3,2,3,0,4,4,0,1,4,1,1,3,212,833,
scooby_state_5606b0706266|36|8 590,3,2,3,2,2,5,3,5,2,2,3,1,7,203,833,
scooby_state_5606b0706266|40|7 588,3,7,1,6,3,5,1,2,5,3,1,4,2,201,832,
scooby_state_5606b0706266|22|11 605,6,3,10,5,7,6,1,5,4,4,8,5,4,157,830,
scooby_state_5606b0706266|18|7 578,8,5,2,6,4,2,4,2,0,3,6,5,2,202,829,
scooby_state_5606b0706266|37|6 580,9,4,3,7,3,4,3,4,6,0,2,1,0,200,826,
scooby_state_5606b0706266|59|10 577,8,4,3,4,6,10,1,6,2,2,4,2,3,194,826,
scooby_state_5606b0706266|44|8 574,4,3,3,2,4,4,2,1,4,3,3,3,2,214,826,
scooby_state_5606b0706266|35|8 592,2,1,4,2,2,4,3,2,5,3,4,2,5,194,825,
scooby_state_5606b070627b|55|0 537,2,2,3,2,2,1,2,3,0,2,0,1,3,265,825,
scooby_state_5606b0706266|17|7 575,4,5,6,3,5,2,5,2,0,3,11,2,2,200,825,
scooby_state_5606b0706266|10|6 590,6,6,4,2,4,1,1,3,1,4,3,1,1,196,823,
scooby_state_5606b0706266|11|9 564,4,4,2,5,3,3,2,1,0,4,6,2,2,221,823,
scooby_state_5606b0706266|62|10 558,5,7,6,4,0,6,2,7,2,1,4,3,6,212,823,
scooby_state_5606b0706266|26|9 621,3,2,3,1,5,0,0,2,3,0,1,0,2,180,823,
scooby_state_5606b0706266|17|10 578,1,4,5,2,0,5,2,3,2,6,6,4,9,195,822,
scooby_state_5606b0706266|42|10 608,5,5,4,4,2,4,1,4,2,2,6,2,3,170,822,
scooby_state_5606b0706266|56|13 582,4,4,5,2,1,3,5,1,2,4,4,4,3,197,821,
scooby_state_5606b0706266|11|11 580,7,3,4,6,3,6,3,2,5,2,5,4,4,187,821,
scooby_state_5606b0706266|9|8 549,4,4,3,1,6,7,3,6,2,3,3,3,4,222,820,
scooby_state_5606b070627b|42|0 567,1,5,2,2,1,2,1,0,0,0,4,1,1,232,819,
scooby_state_5606b0706266|30|7 543,9,6,5,4,3,2,2,3,4,3,2,6,5,219,816,
scooby_state_5606b0706266|47|8 574,1,3,2,4,6,4,2,2,5,2,9,4,0,198,816,
scooby_state_5606b070627b|57|0 550,2,5,2,5,4,4,4,0,0,1,3,0,3,233,816,
scooby_state_5606b070627b|31|0 601,4,2,0,5,0,2,3,3,2,1,0,2,1,190,816,
scooby_state_5606b0706266|20|8 565,3,5,5,3,1,2,3,3,3,3,4,7,2,206,815,
scooby_state_5606b0706266|10|7 560,3,3,7,4,2,2,4,2,1,0,3,3,4,216,814,
scooby_state_5606b0706266|42|9 552,3,7,5,5,4,1,5,0,2,1,0,2,3,224,814,
scooby_state_5606b0706266|52|8 549,2,2,3,3,4,0,2,3,6,5,2,0,4,227,812,
scooby_state_5606b0706266|41|8 543,5,4,1,5,3,4,3,2,5,1,2,6,3,225,812,
scooby_state_5606b0706266|34|7 542,6,4,3,2,7,2,2,2,2,1,2,3,4,228,810,
scooby_state_5606b070627b|37|0 557,3,5,3,1,5,2,1,1,0,0,0,4,4,223,809,
scooby_state_5606b0706266|37|8 551,5,4,6,6,4,5,1,1,1,5,5,4,7,204,809,
scooby_state_5606b070627b|30|0 542,3,2,2,5,2,6,3,4,3,1,3,6,3,220,805,
scooby_state_5606b0706266|22|9 562,3,4,4,3,0,5,3,2,1,5,2,1,1,208,804,
scooby_state_5606b0706266|24|6 565,6,6,4,2,0,3,1,2,3,2,2,4,2,201,803,
scooby_state_5606b0706266|47|11 575,7,6,6,3,2,5,3,0,3,6,3,6,4,174,803,
scooby_state_5606b0706266|15|8 523,5,6,6,1,5,4,2,2,4,2,9,1,3,228,801,
scooby_state_5606b0706266|24|8 571,6,4,4,3,1,4,3,5,1,6,1,7,5,180,801,
scooby_state_5606b0706266|54|12 587,5,9,8,7,0,6,6,2,3,4,4,5,7,147,800,
scooby_state_5606b070627b|38|0 517,3,2,2,7,2,2,1,6,2,3,2,1,3,247,800,
scooby_state_5606b0706266|43|11 575,6,5,5,2,1,4,4,3,6,3,4,5,3,172,798,
scooby_state_5606b0706266|52|10 568,3,8,3,6,2,2,5,2,3,3,3,2,3,185,798,
scooby_state_5606b0706266|14|9 554,3,6,0,0,3,2,1,3,4,2,2,6,3,209,798,
scooby_state_5606b0706266|31|6 536,1,3,3,2,2,1,1,4,3,2,2,5,4,228,797,
scooby_state_5606b0706266|32|8 545,5,2,4,4,4,4,2,3,3,1,1,2,4,213,797,
scooby_state_5606b0706266|51|9 557,4,3,3,2,4,1,0,4,1,1,5,1,4,207,797,
scooby_state_5606b0706266|45|8 547,4,5,1,4,3,3,2,0,2,1,4,5,5,211,797,
scooby_state_5606b0706266|48|10 568,3,6,3,4,5,4,4,2,2,4,2,2,1,187,797,
scooby_state_5606b0706266|43|9 536,5,4,0,4,5,9,0,1,1,2,6,3,1,219,796,
scooby_state_5606b0706266|45|10 557,7,7,8,6,2,5,7,7,2,1,3,0,2,181,795,
scooby_state_5606b0706266|13|8 522,11,6,4,3,2,2,1,4,2,4,3,1,3,226,794,
scooby_state_5606b0706266|33|10 539,3,2,2,6,2,3,3,3,3,2,3,6,2,214,793,
scooby_state_5606b0706266|23|9 553,1,5,2,2,2,3,2,3,1,2,2,2,5,206,791,
scooby_state_5606b0706266|58|14 583,7,4,12,3,5,3,3,5,3,2,5,5,9,142,791,
scooby_state_5606b0706266|58|8 582,3,2,3,4,5,4,4,3,1,1,2,4,0,172,790,
scooby_state_5606b0706266|11|8 559,3,2,5,2,2,3,5,5,4,2,4,2,1,191,790,
scooby_state_5606b0706266|61|9 562,5,4,1,5,4,1,1,1,2,0,3,2,7,192,790,
scooby_state_5606b0706266|10|10 549,0,6,1,5,4,3,1,2,1,4,5,2,2,203,788,
scooby_state_5606b0706266|36|14 560,6,7,8,5,7,8,4,8,4,3,5,4,5,154,788,
scooby_state_5606b0706266|58|10 567,6,5,4,3,3,2,1,4,3,3,4,5,4,174,788,
scooby_state_5606b0706266|16|11 548,2,7,4,4,4,7,3,1,6,2,7,3,5,184,787,
scooby_state_5606b0706266|30|8 565,1,2,10,2,2,3,0,1,4,2,0,3,2,190,787,
scooby_state_5606b0706266|19|9 542,9,4,6,2,0,2,2,1,4,0,2,5,5,203,787,
scooby_state_5606b0706266|15|9 561,2,3,4,1,3,4,3,2,1,2,4,1,2,192,785,
scooby_state_5606b0706266|60|8 530,2,6,5,3,4,1,6,7,3,3,3,3,4,205,785,
scooby_state_5606b0706266|17|12 549,6,4,9,8,6,5,3,4,4,2,4,2,5,173,784,
scooby_state_5606b0706266|44|12 573,12,3,4,5,5,4,6,5,1,4,8,3,1,150,784,
scooby_state_5606b070627b|2|0 535,1,3,2,1,2,2,2,4,1,0,6,3,1,220,783,
scooby_state_5606b0706266|22|8 547,2,2,3,4,1,6,2,3,4,2,4,3,3,197,783,
scooby_state_5606b0706266|38|7 556,3,5,5,3,2,1,1,2,2,4,1,4,10,182,781,
scooby_state_5606b0706266|37|11 553,8,3,4,5,2,5,3,4,3,5,1,5,4,174,779,
scooby_state_5606b0706266|48|14 560,2,6,5,5,6,6,4,4,1,3,8,5,3,160,778,
scooby_state_5606b0706266|38|9 537,1,3,3,4,3,6,0,7,5,2,2,3,2,199,777,
scooby_state_5606b0706266|18|8 549,1,3,3,1,3,0,1,2,3,3,5,4,3,194,775,
scooby_state_5606b0706266|35|12 568,3,8,5,4,3,5,4,5,4,2,4,5,5,150,775,
scooby_state_5606b0706266|44|7 528,8,3,7,4,0,1,3,1,3,7,2,3,4,200,774,
scooby_state_5606b0706266|28|7 552,6,3,4,4,7,2,5,2,2,1,5,2,7,171,773,
scooby_state_5606b0706266|16|9 552,7,4,3,4,2,2,2,1,3,2,0,0,2,188,772,
scooby_state_5606b0706266|32|10 563,3,1,1,3,7,2,3,3,1,1,5,2,3,174,772,
scooby_state_5606b0706266|62|9 527,6,2,3,0,0,1,2,2,1,1,4,4,2,217,772,
scooby_state_5606b0706266|21|9 519,1,5,2,4,4,6,1,2,3,5,3,2,3,211,771,
scooby_state_5606b0706266|15|10 526,4,6,3,6,6,9,0,3,2,1,1,5,3,193,768,
scooby_state_5606b0706266|63|9 558,1,2,2,1,3,2,6,2,3,2,1,0,3,182,768,
scooby_state_5606b0706266|25|7 536,4,5,2,2,6,5,1,1,3,4,4,1,4,189,767,
scooby_state_5606b0706266|56|10 522,5,4,4,3,2,4,2,0,4,3,6,1,4,202,766,
scooby_state_5606b0706266|14|8 526,5,4,3,3,4,3,5,6,4,2,2,4,6,189,766,
scooby_state_5606b0706266|52|11 535,9,4,3,1,2,5,2,5,3,6,3,6,4,177,765,
scooby_state_5606b0706266|49|10 522,5,5,4,4,4,2,2,3,1,1,4,5,7,191,760,
scooby_state_5606b0706266|46|13 562,4,1,4,4,4,2,0,1,4,1,3,1,1,167,759,
scooby_state_5606b0706266|51|10 524,8,8,3,6,4,5,4,3,2,2,4,4,5,177,759,
scooby_state_5606b0706266|49|11 549,7,2,2,0,6,7,3,4,2,2,6,6,8,153,757,
scooby_state_5606b0706266|21|10 540,8,5,4,5,3,5,2,6,2,2,5,3,4,163,757,
scooby_state_5606b0706266|48|11 538,5,3,7,4,4,3,1,8,4,2,5,5,6,161,756,
scooby_state_5606b0706266|43|10 550,2,1,2,2,1,2,2,2,2,3,4,5,3,175,756,
scooby_state_5606b0706266|38|8 541,4,4,4,2,6,6,4,2,2,0,6,3,2,169,755,
scooby_state_5606b0706266|49|13 534,7,5,4,3,3,1,1,3,4,3,3,1,2,180,754,
scooby_state_5606b0706266|48|9 543,1,5,2,4,1,0,0,1,1,2,2,1,0,188,751,
scooby_state_5606b0706266|12|10 510,2,3,5,3,1,4,0,5,2,3,4,1,1,207,751,
scooby_state_5606b0706266|61|28 567,13,13,8,8,8,5,3,5,10,6,6,10,11,77,750,
scooby_state_5606b0706266|37|15 547,4,1,1,4,7,1,1,2,1,1,5,2,0,171,748,
scooby_state_5606b0706266|25|9 540,1,2,1,3,1,1,5,2,0,2,1,2,0,187,748,
scooby_state_5606b0706266|50|9 538,4,2,2,3,3,4,1,2,2,0,2,2,1,181,747,
scooby_state_5606b0706266|39|10 526,4,7,2,9,7,3,0,1,3,0,2,4,2,177,747,
scooby_state_5606b0706266|45|9 513,2,3,2,4,1,3,2,1,3,1,1,1,2,208,747,
scooby_state_5606b0706266|32|11 534,6,7,2,7,5,3,2,6,0,2,4,3,4,161,746,
scooby_state_5606b0706266|34|11 519,7,5,4,4,4,5,8,1,2,0,8,7,2,170,746,
scooby_state_5606b0706266|56|9 494,4,0,3,2,1,3,2,2,1,2,4,4,2,220,744,
scooby_state_5606b070627b|27|0 478,5,4,2,1,2,4,0,1,2,1,2,1,2,238,743,
scooby_state_5606b0706266|51|16 551,7,3,5,3,6,5,4,2,0,2,6,5,3,141,743,
scooby_state_5606b0706266|27|8 491,2,2,10,2,3,2,1,6,2,2,9,3,3,204,742,
scooby_state_5606b0706266|48|12 523,4,6,4,7,4,4,4,4,3,5,5,2,3,164,742,
scooby_state_5606b0706266|20|11 539,2,4,1,4,6,7,5,2,1,1,3,3,3,160,741,
scooby_state_5606b0706266|63|16 560,3,4,5,3,4,8,3,6,4,3,4,6,3,125,741,
scooby_state_5606b0706266|53|12 539,8,7,7,7,6,8,2,8,3,2,3,1,3,136,740,
scooby_state_5606b0706266|54|11 529,5,4,2,3,6,7,6,4,5,3,3,4,5,154,740,
scooby_state_5606b0706266|59|9 502,3,6,4,0,1,5,1,3,5,3,1,4,2,199,739,
scooby_state_5606b0706266|25|10 512,4,2,1,4,5,1,2,2,3,3,4,1,3,190,737,
scooby_state_5606b0706266|63|10 540,1,2,4,5,3,3,3,3,2,4,4,4,3,156,737,
scooby_state_5606b0706266|60|12 539,2,6,4,3,3,2,3,4,3,2,7,4,6,148,736,
scooby_state_5606b070627b|56|0 527,2,4,2,1,1,4,0,2,3,1,2,3,2,181,735,
scooby_state_5606b0706266|52|12 508,6,9,6,6,1,7,3,3,5,3,2,8,7,161,735,
scooby_state_5606b0706266|53|8 502,1,3,8,2,5,6,1,4,4,2,3,4,3,186,734,
scooby_state_5606b0706266|34|9 504,4,5,1,3,0,0,4,1,0,1,5,1,3,201,733,
scooby_state_5606b0706266|28|11 533,3,2,6,3,3,3,4,2,2,2,5,3,6,155,732,
scooby_state_5606b0706266|55|8 495,1,0,2,2,2,2,5,2,0,1,2,2,3,213,732,
scooby_state_5606b0706266|46|9 505,0,2,2,4,1,3,1,3,2,2,1,1,3,201,731,
scooby_state_5606b0706266|36|9 510,2,3,2,2,2,2,2,1,1,3,2,1,2,196,731,
scooby_state_5606b070627b|0|0 487,6,5,2,3,0,2,3,3,1,1,3,6,4,205,731,
scooby_state_5606b0706266|29|10 505,5,1,5,3,4,3,0,0,1,2,3,5,4,189,730,
scooby_state_5606b0706266|35|10 487,5,4,4,3,3,1,5,2,4,4,5,9,3,189,728,
scooby_state_5606b0706266|33|8 500,3,3,3,4,4,6,0,2,1,2,2,1,2,195,728,
scooby_state_5606b0706266|50|10 504,4,5,6,3,2,3,3,2,5,1,6,6,5,172,727,
scooby_state_5606b0706266|51|11 516,3,8,6,3,6,2,3,2,2,5,6,0,5,158,725,
scooby_state_5606b0706266|60|10 533,4,2,1,4,3,4,2,3,3,1,1,2,6,155,724,
scooby_state_5606b0706266|57|9 505,1,2,6,2,4,2,2,0,3,1,4,1,3,188,724,
scooby_state_5606b0706266|39|8 531,4,3,6,2,5,2,3,1,1,3,4,0,2,156,723,
scooby_state_5606b0706266|37|7 514,1,8,4,5,4,1,2,1,4,4,1,2,5,167,723,
scooby_state_5606b0706266|23|14 519,5,6,4,4,5,3,8,1,4,0,5,5,8,145,722,
scooby_state_5606b0706266|37|9 483,5,6,2,2,0,5,0,1,3,1,2,2,3,205,720,
scooby_state_5606b0706266|32|12 497,7,9,6,3,5,5,2,6,3,5,2,3,4,162,719,
scooby_state_5606b0706266|40|10 518,9,4,7,3,5,4,2,1,6,3,1,1,2,153,719,
scooby_state_5606b070627b|16|0 496,4,1,3,1,2,4,1,4,2,1,2,1,1,196,719,
scooby_state_5606b0706266|44|9 522,2,2,3,1,1,0,0,2,2,1,1,2,2,177,718,
scooby_state_5606b0706266|12|8 499,4,4,4,4,3,0,2,1,1,2,2,4,5,183,718,
scooby_state_5606b0706266|28|9 488,3,1,3,1,5,4,1,2,2,1,2,6,5,193,717,
scooby_state_5606b0706266|20|9 527,4,4,0,2,2,0,2,2,0,2,0,2,1,169,717,
scooby_state_5606b0706266|33|11 512,3,2,4,4,1,7,3,6,7,4,1,5,4,153,716,
scooby_state_5606b0706266|34|12 508,8,7,5,1,3,3,3,3,6,3,3,2,6,154,715,
scooby_state_5606b0706266|17|9 488,0,4,1,1,0,2,2,2,1,1,1,2,1,207,713,
scooby_state_5606b0706266|54|19 512,4,2,8,8,6,4,3,3,0,4,5,4,7,142,712,
scooby_state_5606b0706266|28|8 491,3,5,4,4,4,4,4,2,2,2,1,5,3,176,710,
scooby_state_5606b0706266|24|9 481,0,2,2,2,4,0,3,1,3,1,1,2,5,202,709,
scooby_state_5606b0706266|33|13 504,6,2,3,5,7,2,2,0,0,2,3,3,3,167,709,
scooby_state_5606b0706266|10|9 476,6,3,1,0,0,3,5,0,0,1,4,1,1,205,706,
scooby_state_5606b0706266|18|10 491,5,1,5,2,2,4,1,1,3,3,2,2,5,179,706,
scooby_state_5606b0706266|30|9 508,2,3,0,3,3,3,2,2,1,2,2,1,2,172,706,
scooby_state_5606b0706266|62|11 477,3,6,4,6,3,5,5,4,4,3,7,4,3,171,705,
scooby_state_5606b0706266|62|12 495,6,10,7,4,5,9,5,2,8,0,6,3,5,140,705,
scooby_state_5606b0706266|47|10 509,6,3,1,7,2,3,2,1,0,4,1,1,0,165,705,
scooby_state_5606b0706266|23|11 524,6,8,3,2,1,3,3,3,4,4,4,3,5,131,704,
scooby_state_5606b0706266|57|10 514,2,3,5,7,1,3,5,3,2,3,2,6,4,144,704,
scooby_state_5606b0706266|54|10 505,2,7,2,4,1,5,5,1,1,2,1,3,4,161,704,
scooby_state_5606b0706266|53|18 526,3,7,11,2,9,4,3,5,3,4,5,4,7,110,703,
scooby_state_5606b0706266|15|14 508,9,8,2,7,6,7,0,3,5,3,5,5,5,130,703,
scooby_state_5606b0706266|54|9 492,2,1,4,0,3,3,1,2,2,3,0,1,1,187,702,
scooby_state_5606b0706266|47|13 488,3,4,7,5,2,3,6,5,4,1,2,5,1,165,701,
scooby_state_5606b0706266|15|12 479,4,5,3,4,2,3,4,2,2,4,9,3,4,172,700,
scooby_state_5606b0706266|41|10 504,3,7,2,5,5,3,1,4,2,4,4,3,0,152,699,
scooby_state_5606b0706266|53|15 537,2,0,4,0,2,2,2,3,1,3,5,5,2,130,698,
scooby_state_5606b0706266|38|13 504,3,1,2,5,0,2,2,3,2,3,2,2,4,161,696,
scooby_state_5606b0706266|18|9 479,3,1,1,4,1,1,0,1,0,2,1,4,2,196,696,
scooby_state_5606b0706266|12|11 484,3,4,8,3,1,5,1,2,6,1,3,2,5,168,696,
scooby_state_5606b0706266|23|12 501,6,4,4,3,4,6,5,2,0,4,0,4,2,151,696,
scooby_state_5606b0706266|57|8 464,1,10,2,3,2,4,3,1,2,3,1,5,5,189,695,
scooby_state_5606b0706266|40|11 480,6,2,4,3,6,2,4,3,2,3,3,5,5,167,695,
scooby_state_5606b0706266|13|9 494,1,2,4,2,2,3,1,2,0,2,1,3,3,175,695,
scooby_state_5606b0706266|26|17 508,8,4,4,4,4,2,2,3,6,1,7,2,11,128,694,
scooby_state_5606b0706266|34|15 504,3,5,1,1,2,4,1,2,4,2,1,6,1,157,694,
scooby_state_5606b0706266|47|12 494,1,5,5,3,3,5,3,3,3,5,3,7,4,149,693,
scooby_state_5606b0706266|28|10 500,2,3,6,4,4,2,3,3,2,4,2,2,2,152,691,
scooby_state_5606b0706266|26|10 497,3,2,4,7,8,3,1,1,1,0,4,1,3,156,691,
scooby_state_5606b0706266|59|11 480,3,2,3,3,5,6,5,5,4,6,5,6,5,153,691,
scooby_state_5606b0706266|15|11 474,5,6,6,3,4,6,2,3,5,7,4,3,6,156,690,
scooby_state_5606b0706266|26|11 514,3,3,7,3,4,5,1,2,4,2,2,4,4,132,690,
[...]
scooby_state_145a5ee27601|24|1 1,0,0,0,0,0,0,0,0,0,0,0,0,0,0,1,
scooby_state_5606b0706263|59|7 1,0,0,0,0,0,0,0,0,0,0,0,0,0,0,1,
scooby_state_145a5ee60f73|36|-1 1,0,0,0,0,0,0,0,0,0,0,0,0,0,0,1,
scooby_state_145a5ee5a376|12|2 1,0,0,0,0,0,0,0,0,0,0,0,0,0,0,1,
scooby_state_5606b0706263|39|34 1,0,0,0,0,0,0,0,0,0,0,0,0,0,0,1,
scooby_state_5606b0706263|18|-23 1,0,0,0,0,0,0,0,0,0,0,0,0,0,0,1,
scooby_state_5606b0706263|2|-55 1,0,0,0,0,0,0,0,0,0,0,0,0,0,0,1,
scooby_state_145a5ee273c3|57|-3 1,0,0,0,0,0,0,0,0,0,0,0,0,0,0,1,
scooby_state_145a5ee28c02|48|1 1,0,0,0,0,0,0,0,0,0,0,0,0,0,0,1,
scooby_state_5606b07060d8|54|5 1,0,0,0,0,0,0,0,0,0,0,0,0,0,0,1,
scooby_state_145a5ee27f02|60|1 1,0,0,0,0,0,0,0,0,0,0,0,0,0,0,1,
scooby_state_5606b070627b|18|15 0,0,1,0,0,0,0,0,0,0,0,0,0,0,0,1,
scooby_state_5606b0706101|4|1 1,0,0,0,0,0,0,0,0,0,0,0,0,0,0,1,
scooby_state_5606b070627b|0|-33 0,0,0,1,0,0,0,0,0,0,0,0,0,0,0,1,
scooby_state_5606b0706240|9|1 1,0,0,0,0,0,0,0,0,0,0,0,0,0,0,1,
scooby_state_5606b0706281|10|1 1,0,0,0,0,0,0,0,0,0,0,0,0,0,0,1,
scooby_state_5606b070627b|31|30 1,0,0,0,0,0,0,0,0,0,0,0,0,0,0,1,
scooby_state_5606b0706263|36|28 1,0,0,0,0,0,0,0,0,0,0,0,0,0,0,1,
scooby_state_145a5ee60d40|53|1 1,0,0,0,0,0,0,0,0,0,0,0,0,0,0,1,
scooby_state_145a5ee64310|12|11 1,0,0,0,0,0,0,0,0,0,0,0,0,0,0,1,
scooby_state_5606b070627b|29|24 0,0,0,0,0,0,1,0,0,0,0,0,0,0,0,1,
scooby_state_5606b0706263|33|30 1,0,0,0,0,0,0,0,0,0,0,0,0,0,0,1,
scooby_state_5606b070627b|61|40 1,0,0,0,0,0,0,0,0,0,0,0,0,0,0,1,
scooby_state_5606b0706263|60|15 0,0,0,0,0,0,0,0,0,0,0,0,1,0,0,1,
scooby_state_5606b0706263|45|4 1,0,0,0,0,0,0,0,0,0,0,0,0,0,0,1,
scooby_state_5606b0706263|21|-26 0,0,0,0,0,0,0,0,0,0,0,0,0,0,1,1,
scooby_state_5606b0706263|30|-33 0,0,1,0,0,0,0,0,0,0,0,0,0,0,0,1,
scooby_state_5606b070627b|9|4 1,0,0,0,0,0,0,0,0,0,0,0,0,0,0,1,
scooby_state_5606b0706263|31|-1 0,0,0,1,0,0,0,0,0,0,0,0,0,0,0,1,
scooby_state_5606b070627b|27|23 1,0,0,0,0,0,0,0,0,0,0,0,0,0,0,1,
scooby_state_145a5eded230|8|-3 1,0,0,0,0,0,0,0,0,0,0,0,0,0,0,1,
scooby_state_5606b0706263|1|-13 0,0,0,0,0,1,0,0,0,0,0,0,0,0,0,1,
scooby_state_5606b0706263|6|-13 0,1,0,0,0,0,0,0,0,0,0,0,0,0,0,1,
scooby_state_5606b0708124|50|32 1,0,0,0,0,0,0,0,0,0,0,0,0,0,0,1,
scooby_state_5606b0706263|4|-28 1,0,0,0,0,0,0,0,0,0,0,0,0,0,0,1,
scooby_state_5606b0706263|35|24 1,0,0,0,0,0,0,0,0,0,0,0,0,0,0,1,
scooby_state_5606b0706263|51|42 0,0,0,0,0,0,0,1,0,0,0,0,0,0,0,1,
scooby_state_145a5ee59300|12|0 1,0,0,0,0,0,0,0,0,0,0,0,0,0,0,1,
scooby_state_5606b0706263|36|36 0,0,1,0,0,0,0,0,0,0,0,0,0,0,0,1,
scooby_state_5606b0706263|48|15 1,0,0,0,0,0,0,0,0,0,0,0,0,0,0,1,
scooby_state_145a5ee273cc|32|1 1,0,0,0,0,0,0,0,0,0,0,0,0,0,0,1,
scooby_state_5606b0706263|37|21 0,0,0,0,0,0,0,0,0,0,0,0,1,0,0,1,
scooby_state_5606b0706263|21|-3 0,0,1,0,0,0,0,0,0,0,0,0,0,0,0,1,
scooby_state_5606b0706263|56|11 1,0,0,0,0,0,0,0,0,0,0,0,0,0,0,1,
scooby_state_5606b070627b|60|55 0,0,0,0,0,0,0,0,0,0,0,0,0,0,1,1,
scooby_state_5606b070627b|1|-24 0,0,0,0,1,0,0,0,0,0,0,0,0,0,0,1,
scooby_state_5606b070627b|18|10 0,0,0,0,0,0,0,0,0,0,0,0,0,1,0,1,
scooby_state_5606b0708137|58|8 1,0,0,0,0,0,0,0,0,0,0,0,0,0,0,1,
scooby_state_145a5eefe280|10|1 1,0,0,0,0,0,0,0,0,0,0,0,0,0,0,1,
scooby_state_5606b0706263|18|-32 1,0,0,0,0,0,0,0,0,0,0,0,0,0,0,1,
scooby_state_5606b0706263|33|-25 0,0,0,0,0,0,0,0,0,0,0,0,1,0,0,1,
scooby_state_145a5ee63102|4|1 1,0,0,0,0,0,0,0,0,0,0,0,0,0,0,1,
scooby_state_145a5ee579c2|39|1 1,0,0,0,0,0,0,0,0,0,0,0,0,0,0,1,
scooby_state_5606b070627b|3|-17 1,0,0,0,0,0,0,0,0,0,0,0,0,0,0,1,
scooby_state_5606b0706263|41|10 1,0,0,0,0,0,0,0,0,0,0,0,0,0,0,1,
scooby_state_5606b0706263|50|26 1,0,0,0,0,0,0,0,0,0,0,0,0,0,0,1,
scooby_state_5606b070627b|5|-15 0,0,0,0,0,0,0,0,0,0,0,0,0,0,1,1,
scooby_state_5606b0706263|51|33 0,0,0,0,0,0,1,0,0,0,0,0,0,0,0,1,
scooby_state_145a5ee28d44|53|1 1,0,0,0,0,0,0,0,0,0,0,0,0,0,0,1,
scooby_state_5606b0706263|57|46 1,0,0,0,0,0,0,0,0,0,0,0,0,0,0,1,
scooby_state_5606b0706263|53|-1 1,0,0,0,0,0,0,0,0,0,0,0,0,0,0,1,
scooby_state_5606b0706263|44|20 1,0,0,0,0,0,0,0,0,0,0,0,0,0,0,1,
scooby_state_5606b0706263|24|5 1,0,0,0,0,0,0,0,0,0,0,0,0,0,0,1,
scooby_state_5606b0706263|56|-1 1,0,0,0,0,0,0,0,0,0,0,0,0,0,0,1,
scooby_state_5606b0706263|56|47 1,0,0,0,0,0,0,0,0,0,0,0,0,0,0,1,
scooby_state_145a5ee27706|28|1 1,0,0,0,0,0,0,0,0,0,0,0,0,0,0,1,
scooby_state_145a5ee60cc0|51|13 1,0,0,0,0,0,0,0,0,0,0,0,0,0,0,1,
scooby_state_145a5ee57930|36|0 1,0,0,0,0,0,0,0,0,0,0,0,0,0,0,1,
scooby_state_5606b070627b|30|-12 1,0,0,0,0,0,0,0,0,0,0,0,0,0,0,1,
scooby_state_145a5ee5a2a0|10|-3 1,0,0,0,0,0,0,0,0,0,0,0,0,0,0,1,
scooby_state_5606b0706263|17|-4 0,0,0,0,0,0,0,0,0,0,0,0,1,0,0,1,
scooby_state_145a5ee5a420|16|5 1,0,0,0,0,0,0,0,0,0,0,0,0,0,0,1,
scooby_state_5606b0706263|54|41 1,0,0,0,0,0,0,0,0,0,0,0,0,0,0,1,
scooby_state_5606b070627b|38|38 0,0,0,0,0,0,0,1,0,0,0,0,0,0,0,1,
scooby_state_5606b070627b|3|-33 1,0,0,0,0,0,0,0,0,0,0,0,0,0,0,1,
scooby_state_5606b0706263|23|11 1,0,0,0,0,0,0,0,0,0,0,0,0,0,0,1,
scooby_state_145a5ee59490|18|5 1,0,0,0,0,0,0,0,0,0,0,0,0,0,0,1,
scooby_state_5606b070627b|8|-32 0,0,0,0,0,0,1,0,0,0,0,0,0,0,0,1,
scooby_state_5606b070627b|60|11 0,0,0,0,0,0,0,0,0,0,0,1,0,0,0,1,
scooby_state_145a5ee63d1a|8|0 1,0,0,0,0,0,0,0,0,0,0,0,0,0,0,1,
scooby_state_5606b070627b|61|2 1,0,0,0,0,0,0,0,0,0,0,0,0,0,0,1,
scooby_state_5606b0706263|63|6 1,0,0,0,0,0,0,0,0,0,0,0,0,0,0,1,
scooby_state_5606b0706263|26|-1 0,0,0,0,0,0,0,0,0,0,0,1,0,0,0,1,
scooby_state_5606b0706263|3|-49 1,0,0,0,0,0,0,0,0,0,0,0,0,0,0,1,
scooby_state_7ffcf9339d82|54|1 1,0,0,0,0,0,0,0,0,0,0,0,0,0,0,1,
scooby_state_5606b0706263|32|22 0,0,0,0,0,0,0,0,0,0,0,0,0,1,0,1,
scooby_state_5606b0706263|1|-33 1,0,0,0,0,0,0,0,0,0,0,0,0,0,0,1,
scooby_state_5606b0706263|9|-30 0,0,0,0,0,0,0,0,0,0,0,0,1,0,0,1,
scooby_state_145a5ee28df0|55|12 1,0,0,0,0,0,0,0,0,0,0,0,0,0,0,1,
scooby_state_145a5ee60540|21|1 1,0,0,0,0,0,0,0,0,0,0,0,0,0,0,1,
scooby_state_145a5ee58ea0|58|0 1,0,0,0,0,0,0,0,0,0,0,0,0,0,0,1,
scooby_state_5606b0706263|63|46 1,0,0,0,0,0,0,0,0,0,0,0,0,0,0,1,
scooby_state_5606b070627b|63|42 1,0,0,0,0,0,0,0,0,0,0,0,0,0,0,1,
scooby_state_145a5ee5a530|20|2 1,0,0,0,0,0,0,0,0,0,0,0,0,0,0,1,
scooby_state_5606b0706263|6|-43 1,0,0,0,0,0,0,0,0,0,0,0,0,0,0,1,
scooby_state_5606b0706263|29|12 1,0,0,0,0,0,0,0,0,0,0,0,0,0,0,1,
scooby_state_145a5ee247b0|30|0 1,0,0,0,0,0,0,0,0,0,0,0,0,0,0,1,
scooby_state_5606b0706263|22|15 0,0,0,0,0,0,0,0,1,0,0,0,0,0,0,1,
scooby_state_5606b070627b|1|-30 1,0,0,0,0,0,0,0,0,0,0,0,0,0,0,1,
scooby_state_145a5eedb7b0|30|0 1,0,0,0,0,0,0,0,0,0,0,0,0,0,0,1,
scooby_state_145a5ee2486b|22|-20 1,0,0,0,0,0,0,0,0,0,0,0,0,0,0,1,
scooby_state_5606b0706263|14|13 1,0,0,0,0,0,0,0,0,0,0,0,0,0,0,1,
scooby_state_5606b0706263|59|11 0,0,1,0,0,0,0,0,0,0,0,0,0,0,0,1,
scooby_state_5606b0706263|48|-6 1,0,0,0,0,0,0,0,0,0,0,0,0,0,0,1,
scooby_state_5606b070627b|30|27 1,0,0,0,0,0,0,0,0,0,0,0,0,0,0,1,
scooby_state_145a5ee7d143|5|1 1,0,0,0,0,0,0,0,0,0,0,0,0,0,0,1,
scooby_state_5606b070627b|55|55 0,0,0,0,0,0,1,0,0,0,0,0,0,0,0,1,
scooby_state_5606b0706263|51|-10 0,0,0,0,0,0,0,0,0,0,0,0,0,0,1,1,
scooby_state_145a5ee2821b|8|-40 1,0,0,0,0,0,0,0,0,0,0,0,0,0,0,1,
scooby_state_145a5ee5a4a0|18|1 1,0,0,0,0,0,0,0,0,0,0,0,0,0,0,1,
scooby_state_145a5ee60699|26|-9 1,0,0,0,0,0,0,0,0,0,0,0,0,0,0,1,
scooby_state_5606b0706263|43|14 0,0,0,1,0,0,0,0,0,0,0,0,0,0,0,1,
scooby_state_145a5ee29167|5|5 1,0,0,0,0,0,0,0,0,0,0,0,0,0,0,1,
scooby_state_5606b0706263|10|4 1,0,0,0,0,0,0,0,0,0,0,0,0,0,0,1,
scooby_state_5606b0706263|56|16 1,0,0,0,0,0,0,0,0,0,0,0,0,0,0,1,
scooby_state_145a5ee608f4|47|0 1,0,0,0,0,0,0,0,0,0,0,0,0,0,0,1,
scooby_state_5606b070627b|37|17 1,0,0,0,0,0,0,0,0,0,0,0,0,0,0,1,
scooby_state_145a5ee63c82|50|-7 1,0,0,0,0,0,0,0,0,0,0,0,0,0,0,1,
scooby_state_145a5ee28b44|45|-11 1,0,0,0,0,0,0,0,0,0,0,0,0,0,0,1,
scooby_state_5606b070627b|3|-28 1,0,0,0,0,0,0,0,0,0,0,0,0,0,0,1,
scooby_state_5606b0706263|62|25 0,0,0,0,0,0,0,0,0,0,1,0,0,0,0,1,
scooby_state_145a5eefe24b|29|-4 1,0,0,0,0,0,0,0,0,0,0,0,0,0,0,1,
scooby_state_5606b070627b|5|-11 0,0,0,0,0,0,0,0,0,0,0,0,0,1,0,1,
scooby_state_5606b070627b|4|-54 0,0,0,0,0,1,0,0,0,0,0,0,0,0,0,1,
scooby_state_145a5ee60303|12|1 1,0,0,0,0,0,0,0,0,0,0,0,0,0,0,1,
scooby_state_145a5ee57951|30|-2 1,0,0,0,0,0,0,0,0,0,0,0,0,0,0,1,
scooby_state_5606b070627b|40|-9 1,0,0,0,0,0,0,0,0,0,0,0,0,0,0,1,
scooby_state_5606b0706263|58|49 0,0,0,0,1,0,0,0,0,0,0,0,0,0,0,1,
scooby_state_5606b0706263|6|-9 1,0,0,0,0,0,0,0,0,0,0,0,0,0,0,1,
scooby_state_145a5f8043b0|14|0 1,0,0,0,0,0,0,0,0,0,0,0,0,0,0,1,
scooby_state_5606b070627b|61|53 0,0,0,0,0,0,0,0,0,0,0,1,0,0,0,1,
scooby_state_145a5ee28bb1|46|1 1,0,0,0,0,0,0,0,0,0,0,0,0,0,0,1,
scooby_state_145a5ee60d30|52|1 1,0,0,0,0,0,0,0,0,0,0,0,0,0,0,1,
scooby_state_145a5ee631a0|6|4 1,0,0,0,0,0,0,0,0,0,0,0,0,0,0,1,
scooby_state_145a5ee608e8|13|-5 1,0,0,0,0,0,0,0,0,0,0,0,0,0,0,1,
scooby_state_5606b0706263|40|-10 1,0,0,0,0,0,0,0,0,0,0,0,0,0,0,1,
scooby_state_5606b0706263|62|22 1,0,0,0,0,0,0,0,0,0,0,0,0,0,0,1,
scooby_state_145a5ee5a350|13|1 1,0,0,0,0,0,0,0,0,0,0,0,0,0,0,1,
scooby_state_5606b0706263|33|21 0,0,1,0,0,0,0,0,0,0,0,0,0,0,0,1,
scooby_state_5606b0706263|44|35 1,0,0,0,0,0,0,0,0,0,0,0,0,0,0,1,
scooby_state_145a5ee60581|8|0 1,0,0,0,0,0,0,0,0,0,0,0,0,0,0,1,
scooby_state_145a5ee247c0|31|1 1,0,0,0,0,0,0,0,0,0,0,0,0,0,0,1,
scooby_state_5606b0706263|4|-40 0,0,0,0,0,0,0,0,0,0,0,0,1,0,0,1,
scooby_state_5606b0706263|23|5 1,0,0,0,0,0,0,0,0,0,0,0,0,0,0,1,
scooby_state_145a5ee4a182|6|1 1,0,0,0,0,0,0,0,0,0,0,0,0,0,0,1,
scooby_state_5606b0706263|33|15 0,0,0,0,0,0,0,0,0,0,0,0,0,0,1,1,
scooby_state_5606b0706263|21|-6 1,0,0,0,0,0,0,0,0,0,0,0,0,0,0,1,
scooby_state_145a5eefe346|13|1 1,0,0,0,0,0,0,0,0,0,0,0,0,0,0,1,
scooby_state_145a5ee63080|2|1 1,0,0,0,0,0,0,0,0,0,0,0,0,0,0,1,
scooby_state_7ffcf9339e41|57|1 1,0,0,0,0,0,0,0,0,0,0,0,0,0,0,1,
scooby_state_5606b0706263|10|-10 0,0,0,0,0,0,0,0,0,0,0,0,0,0,1,1,
scooby_state_145a5ee293da|15|0 1,0,0,0,0,0,0,0,0,0,0,0,0,0,0,1,
scooby_state_5606b0705850|61|2 1,0,0,0,0,0,0,0,0,0,0,0,0,0,0,1,
scooby_state_7ffcf9339d75|2|0 1,0,0,0,0,0,0,0,0,0,0,0,0,0,0,1,
scooby_state_5606b070627b|8|-34 1,0,0,0,0,0,0,0,0,0,0,0,0,0,0,1,
scooby_state_5606b07060c0|3|0 1,0,0,0,0,0,0,0,0,0,0,0,0,0,0,1,
scooby_state_5606b0706263|50|47 1,0,0,0,0,0,0,0,0,0,0,0,0,0,0,1,
scooby_state_5606b0706263|10|5 1,0,0,0,0,0,0,0,0,0,0,0,0,0,0,1,
scooby_state_145a5ee63dc2|55|1 1,0,0,0,0,0,0,0,0,0,0,0,0,0,0,1,
scooby_state_5606b0706263|14|-13 0,0,0,0,0,0,0,0,1,0,0,0,0,0,0,1,
scooby_state_5606b0706263|1|-42 1,0,0,0,0,0,0,0,0,0,0,0,0,0,0,1,
scooby_state_145a5ee610e6|3|0 1,0,0,0,0,0,0,0,0,0,0,0,0,0,0,1,
scooby_state_7ffcf9339dc3|55|17 1,0,0,0,0,0,0,0,0,0,0,0,0,0,0,1,
scooby_state_5606b0706263|50|-13 0,0,0,0,0,0,1,0,0,0,0,0,0,0,0,1,
scooby_state_5606b0706263|37|17 1,0,0,0,0,0,0,0,0,0,0,0,0,0,0,1,
scooby_state_5606b0706263|63|33 0,0,0,0,0,1,0,0,0,0,0,0,0,0,0,1,
scooby_state_145a5ee27f8e|62|2 1,0,0,0,0,0,0,0,0,0,0,0,0,0,0,1,
scooby_state_145a5f7fcb30|44|17 1,0,0,0,0,0,0,0,0,0,0,0,0,0,0,1,
scooby_state_5606b0706263|42|10 0,0,0,0,0,0,0,0,0,1,0,0,0,0,0,1,
scooby_state_5606b0706263|12|-32 1,0,0,0,0,0,0,0,0,0,0,0,0,0,0,1,
scooby_state_5606b070627b|52|36 0,0,0,0,0,0,0,1,0,0,0,0,0,0,0,1,
scooby_state_145a5ee63a01|40|1 1,0,0,0,0,0,0,0,0,0,0,0,0,0,0,1,
scooby_state_7ffcf9339e3d|56|2 1,0,0,0,0,0,0,0,0,0,0,0,0,0,0,1,
scooby_state_5606b0706263|3|-36 1,0,0,0,0,0,0,0,0,0,0,0,0,0,0,1,
scooby_state_145a5eded230|5|-45 1,0,0,0,0,0,0,0,0,0,0,0,0,0,0,1,
scooby_state_145a5ee61242|9|4 1,0,0,0,0,0,0,0,0,0,0,0,0,0,0,1,
scooby_state_145a5ee274e8|19|1 1,0,0,0,0,0,0,0,0,0,0,0,0,0,0,1,
scooby_state_145a5eefe305|12|1 1,0,0,0,0,0,0,0,0,0,0,0,0,0,0,1,
scooby_state_145a5ee605c1|23|1 1,0,0,0,0,0,0,0,0,0,0,0,0,0,0,1,
scooby_state_145a5f7fd3f0|15|0 1,0,0,0,0,0,0,0,0,0,0,0,0,0,0,1,
scooby_state_5606b0708140|5|1 1,0,0,0,0,0,0,0,0,0,0,0,0,0,0,1,
scooby_state_145a5ee28bc5|47|1 1,0,0,0,0,0,0,0,0,0,0,0,0,0,0,1,
scooby_state_145a5ee63950|37|29 1,0,0,0,0,0,0,0,0,0,0,0,0,0,0,1,
scooby_state_5606b0706263|31|20 0,0,0,0,0,0,1,0,0,0,0,0,0,0,0,1,
scooby_state_145a5ee6444d|17|0 1,0,0,0,0,0,0,0,0,0,0,0,0,0,0,1,
scooby_state_145a5ee63c30|48|8 1,0,0,0,0,0,0,0,0,0,0,0,0,0,0,1,
scooby_state_145a5ee63e55|8|0 1,0,0,0,0,0,0,0,0,0,0,0,0,0,0,1,
scooby_state_5606b070627b|3|-46 0,0,0,0,0,0,0,0,0,0,0,0,0,0,1,1,
scooby_state_5606b0705770|29|11 1,0,0,0,0,0,0,0,0,0,0,0,0,0,0,1,
scooby_state_5606b070627b|2|-6 0,0,0,0,0,0,0,0,0,0,0,0,1,0,0,1,
scooby_state_145a5ee6431c|10|5 1,0,0,0,0,0,0,0,0,0,0,0,0,0,0,1,
scooby_state_145a5ee5a443|17|1 1,0,0,0,0,0,0,0,0,0,0,0,0,0,0,1,
scooby_state_5606b07054c0|19|-14 1,0,0,0,0,0,0,0,0,0,0,0,0,0,0,1,
scooby_state_145a5ee63c40|49|1 1,0,0,0,0,0,0,0,0,0,0,0,0,0,0,1,
scooby_state_7ffcf9339970|37|-20 1,0,0,0,0,0,0,0,0,0,0,0,0,0,0,1,
scooby_state_5606b0705850|33|4 1,0,0,0,0,0,0,0,0,0,0,0,0,0,0,1,

scooby_action_0_deg_dist 0,694670,0,0,0,0,0,0,0,0,0,0,0,0,0,0,
scooby_action_-6_deg_dist 0,13193,9,0,1,0,0,0,0,0,0,0,0,0,0,0,
scooby_action_4_deg_dist 0,14331,46,0,1,0,0,0,0,0,0,0,0,0,0,0,
scooby_action_1_deg_dist 0,2921427,150504,0,92684,0,242684,0,0,0,0,0,0,0,0,0,
scooby_action_30_deg_dist 0,9947,7,0,3,0,0,0,0,0,0,0,0,0,0,0,
scooby_action_5_deg_dist 0,14062,28,0,1,0,0,0,0,0,0,0,0,0,0,0,
scooby_action_3_deg_dist 0,14323,50,0,9,0,0,0,0,0,0,0,0,0,0,0,
scooby_action_32_deg_dist 0,9782,4,0,0,0,0,0,0,0,0,0,0,0,0,0,
scooby_action_10_deg_dist 0,12752,17,0,1,0,0,0,0,0,0,0,0,0,0,0,
scooby_action_11_deg_dist 0,12607,20,0,1,0,0,0,0,0,0,0,0,0,0,0,
scooby_action_12_deg_dist 0,12394,6,0,0,0,0,0,0,0,0,0,0,0,0,0,
scooby_action_22_deg_dist 0,10693,22,0,2,0,0,0,0,0,0,0,0,0,0,0,
scooby_action_23_deg_dist 0,10625,12,0,3,0,0,0,0,0,0,0,0,0,0,0,
scooby_action_-1_deg_dist 0,13430,18,0,4,0,0,0,0,0,0,0,0,0,0,0,
scooby_action_-3_deg_dist 0,13371,13,0,0,0,0,0,0,0,0,0,0,0,0,0,

scooby_track_called 4263757
scooby_track_same_address 5865
scooby_track_evict 4257636

scooby_reward_demand_called 4263757
scooby_reward_demand_pt_not_found 3915612
scooby_reward_demand_pt_found 348145
scooby_reward_demand_pt_found_total 348145
scooby_reward_demand_has_reward 10
scooby_reward_train_called 3823077
scooby_reward_assign_reward_called 4257652
scooby_reward_no_pref 694606
scooby_reward_incorrect 3128471
scooby_reward_correct_untimely 286246
scooby_reward_correct_timely 61889
scooby_reward_out_of_bounds 86440
scooby_reward_tracker_hit 0

scooby_reward_none_low_bw 694606
scooby_reward_none_high_bw 0
scooby_reward_incorrect_low_bw 3128471
scooby_reward_incorrect_high_bw 0
scooby_reward_correct_untimely_low_bw 286246
scooby_reward_correct_untimely_high_bw 0
scooby_reward_correct_timely_low_bw 61889
scooby_reward_correct_timely_high_bw 0
scooby_reward_out_of_bounds_low_bw 86440
scooby_reward_out_of_bounds_high_bw 0
scooby_reward_tracker_hit_low_bw 0
scooby_reward_tracker_hit_high_bw 0

scooby_reward_1 0,3009870,283170,60041,51778,0,
scooby_reward_3 0,12447,464,205,934,0,
scooby_reward_4 0,12079,446,243,1263,0,
scooby_reward_5 0,11576,414,214,1473,0,
scooby_reward_10 0,9366,284,195,2643,0,
scooby_reward_11 0,8977,304,201,2921,0,
scooby_reward_12 0,8599,269,192,3123,0,
scooby_reward_22 0,5469,119,121,4841,0,
scooby_reward_23 0,5317,105,130,4940,0,
scooby_reward_30 0,3800,109,97,5841,0,
scooby_reward_32 0,3461,74,101,6074,0,
scooby_reward_-1 0,12723,170,43,45,0,
scooby_reward_-3 0,12568,152,60,176,0,
scooby_reward_-6 0,12219,166,46,388,0,
scooby_reward_0 694606,0,0,0,0,0,

scooby_train_called 4257635
scooby_train_compute_reward 3823077

scooby_register_fill_called 3302327
scooby_register_fill_set 2778301
scooby_register_fill_set_total 2778301

scooby_register_prefetch_hit_called 1547232
scooby_register_prefetch_hit_set 670438
scooby_register_prefetch_hit_set_total 670438

scooby_pref_issue_scooby 4991172

learning_engine_featurewise.action.called 4263757
learning_engine_featurewise.action.explore 7791
learning_engine_featurewise.action.exploit 4255966
learning_engine_featurewise.action.fallback 3093802
learning_engine_featurewise.action.dyn_fallback_saved_bw 0
learning_engine_featurewise.action.dyn_fallback_saved_bw_acc 886272
learning_engine_featurewise.action.index_1_explored 526
learning_engine_featurewise.action.index_1_exploited 3406773
learning_engine_featurewise.action.index_3_explored 528
learning_engine_featurewise.action.index_3_exploited 13854
learning_engine_featurewise.action.index_4_explored 521
learning_engine_featurewise.action.index_4_exploited 13857
learning_engine_featurewise.action.index_5_explored 488
learning_engine_featurewise.action.index_5_exploited 13603
learning_engine_featurewise.action.index_10_explored 560
learning_engine_featurewise.action.index_10_exploited 12210
learning_engine_featurewise.action.index_11_explored 522
learning_engine_featurewise.action.index_11_exploited 12106
learning_engine_featurewise.action.index_12_explored 539
learning_engine_featurewise.action.index_12_exploited 11861
learning_engine_featurewise.action.index_22_explored 525
learning_engine_featurewise.action.index_22_exploited 10192
learning_engine_featurewise.action.index_23_explored 531
learning_engine_featurewise.action.index_23_exploited 10109
learning_engine_featurewise.action.index_30_explored 524
learning_engine_featurewise.action.index_30_exploited 9433
learning_engine_featurewise.action.index_32_explored 470
learning_engine_featurewise.action.index_32_exploited 9316
learning_engine_featurewise.action.index_-1_explored 522
learning_engine_featurewise.action.index_-1_exploited 12930
learning_engine_featurewise.action.index_-3_explored 508
learning_engine_featurewise.action.index_-3_exploited 12876
learning_engine_featurewise.action.index_-6_explored 504
learning_engine_featurewise.action.index_-6_exploited 12699
learning_engine_featurewise.action.index_0_explored 523
learning_engine_featurewise.action.index_0_exploited 694147
learning_engine_featurewise.learn.called 4257635
learning_engine_featurewise.learn.su_skip_PC 0
learning_engine_featurewise.learn.su_skip_PC_Delta 0

learning_engine_featurewise.q_value_histogram.bucket_0 812118
learning_engine_featurewise.q_value_histogram.bucket_1 19424
learning_engine_featurewise.q_value_histogram.bucket_2 3131595
learning_engine_featurewise.q_value_histogram.bucket_3 21352
learning_engine_featurewise.q_value_histogram.bucket_4 161401
learning_engine_featurewise.q_value_histogram.bucket_5 106249
learning_engine_featurewise.q_value_histogram.bucket_6 3827
learning_engine_featurewise.q_value_histogram.bucket_7 0

learning_engine_featurewise.consensus.total 4255966
learning_engine_featurewise.consensus.feature_align_PC 3409484
learning_engine_featurewise.consensus.feature_align_PC_ratio 0.80
learning_engine_featurewise.consensus.feature_align_PC_Delta 3442896
learning_engine_featurewise.consensus.feature_align_PC_Delta_ratio 0.81
learning_engine_featurewise.consensus.feature_align_all 3407086
learning_engine_featurewise.consensus.feature_align_all_ratio 0.80

learning_engine_featurewise.feature_PC_min_weight 1000000.00000000
learning_engine_featurewise.feature_PC_max_weight 0.00000000
learning_engine_featurewise.feature_PC_Delta_min_weight 1000000.00000000
learning_engine_featurewise.feature_PC_Delta_max_weight 0.00000000
unique_pcs 213
unique_pages 5185
unique_trigger_pcs 50
total_bitmaps_seen 0
unique_bitmaps_seen 0

scooby_bw_epochs 970967
scooby_bw_level_0 729945
scooby_bw_level_1 215340
scooby_bw_level_2 20262
scooby_bw_level_3 5420

scooby_ipc_epochs 0
scooby_ipc_level_0 0
scooby_ipc_level_1 0
scooby_ipc_level_2 0
scooby_ipc_level_3 0

scooby_cache_acc_epochs 242398
scooby_cache_acc_level_0 93158
scooby_cache_acc_level_1 126844
scooby_cache_acc_level_2 18273
scooby_cache_acc_level_3 2999
scooby_cache_acc_level_4 521
scooby_cache_acc_level_5 402
scooby_cache_acc_level_6 57
scooby_cache_acc_level_7 29
scooby_cache_acc_level_8 36
scooby_cache_acc_level_9 79

Channel_0_RQ_row_buffer_hit 475644
Channel_0_RQ_row_buffer_miss 1414450
Channel_0_WQ_row_buffer_hit 83500
Channel_0_WQ_row_buffer_miss 101852
Channel_0_WQ_full 0
Channel_0_dbus_congested 733346

avg_congested_cycle 8

DRAM_bw_pochs 970967
DRAM_bw_level_0 729945
DRAM_bw_level_1 215340
DRAM_bw_level_2 20262
DRAM_bw_level_3 5420
