*************************************************
   ChampSim Multicore Out-of-Order Simulator
   Last compiled: Apr  3 2025 20:54:34
*************************************************
parsing config file: /home/zir/Pythia/config/pythia.ini

trace_0 /home/zir/ChampSim/ML-DPC/ChampSimTraces/gap/pr-3.trace.gz
adding L2C_PREFETCHER: Scooby
Initialize SHIP state
warmup_instructions 10000000
simulation_instructions 50000000
champsim_seed 51
measure_ipc 0
measure_ipc_epoch 1000
measure_dram_bw 1
measure_dram_bw_epoch 256
measure_cache_acc 1
measure_cache_acc_epoch 1024
l1d_perfect 0
l2c_perfect 0
llc_perfect 0
l1d_semi_perfect 0
l2c_semi_perfect 0
llc_semi_perfect 0
semi_perfect_cache_page_buffer_size 64

num_cpus 1
cpu_freq 4000
dram_io_freq 2400
page_size 4096
block_size 64
max_read_per_cycle 8
max_fill_per_cycle 1
dram_channels 1
log2_dram_channels 0
dram_ranks 1
dram_banks 8
dram_rows 65536
dram_columns 128
dram_row_size 8
dram_size 4096
dram_pages 1048576

fetch_width 6
decode_width 6
exec_width 4
lq_width 2
sq_width 2
retire_width 4
scheduler_size 128
branch_mispredict_penalty 20
rob_size 256
lq_size 72
sq_size 56
num_instr_destinations_sparc 4
num_instr_destinations 2
num_instr_sources 4

itlb_set 16
itlb_way 8
itlb_rq_size 16
itlb_wq_size 16
itlb_pq_size 0
itlb_mshr_size 8
itlb_latency 1

dtlb_set 16
dtlb_way 4
dtlb_rq_size 16
dtlb_wq_size 16
dtlb_pq_size 0
dtlb_mshr_size 8
dtlb_latency 1

stlb_set 128
stlb_way 12
stlb_rq_size 32
stlb_wq_size 32
stlb_pq_size 0
stlb_mshr_size 16
stlb_latency 8

l1i_size 32
l1i_set 64
l1i_way 8
l1i_rq_size 64
l1i_wq_size 64
l1i_pq_size 8
l1i_mshr_size 8
l1i_latency 1

l1d_size 32
l1d_set 64
l1d_way 8
l1d_rq_size 64
l1d_wq_size 64
l1d_pq_size 8
l1d_mshr_size 16
l1d_latency 4

l2c_size 256
l2c_set 512
l2c_way 8
l2c_rq_size 32
l2c_wq_size 32
l2c_pq_size 32
l2c_mshr_size 32
l2c_latency 10

llc_size 2048
llc_set 2048
llc_way 16
llc_rq_size 32
llc_wq_size 32
llc_pq_size 32
llc_mshr_size 64
llc_latency 20

dram_channel_width 8
dram_wq_size 64
dram_rq_size 64
tRP 15
tRCD 15
tCAS 12.5
dram_dbus_turn_around_time 30
dram_write_high_wm 56
dram_write_low_wm 48
min_dram_writes_per_switch 16
dram_mtps 2400
dram_dbus_return_time 13

scooby_alpha 0.0065088
scooby_gamma 0.556301
scooby_epsilon 0.00182284
scooby_state_num_bits 10
scooby_max_states 1024
scooby_seed 200
scooby_policy EGreedy
scooby_learning_type SARSA
scooby_actions 1,3,4,5,10,11,12,22,23,30,32,-1,-3,-6,0,
scooby_max_actions 15
scooby_pt_size 256
scooby_st_size 64
scooby_max_pcs 5
scooby_max_offsets 5
scooby_max_deltas 5
scooby_reward_none -4
scooby_reward_incorrect -8
scooby_reward_correct_untimely 12
scooby_reward_correct_timely 20
scooby_brain_zero_init 0
scooby_enable_reward_all 0
scooby_enable_track_multiple 0
scooby_enable_reward_out_of_bounds 1
scooby_reward_out_of_bounds -12
scooby_state_type 1
scooby_state_hash_type 11
scooby_access_debug 0
scooby_print_access_debug 0
scooby_print_access_debug_pc deadbeef
scooby_print_access_debug_pc_count 0
scooby_print_trace 0
scooby_enable_state_action_stats 1
scooby_enable_reward_tracker_hit 0
scooby_reward_tracker_hit -2
scooby_enable_featurewise_engine 1
scooby_pref_degree 1
scooby_enable_dyn_degree 1
scooby_max_to_avg_q_thresholds 0.5,1,2,
scooby_dyn_degrees 1,2,4,4,
scooby_multi_deg_select_type 2
scooby_last_pref_offset_conf_thresholds 1,3,8,
scooby_dyn_degrees_type2 1,2,4,6,
scooby_action_tracker_size 2
scooby_high_bw_thresh 4
scooby_enable_hbw_reward 1
scooby_reward_hbw_correct_timely 20
scooby_reward_hbw_correct_untimely 12
scooby_reward_hbw_incorrect -14
scooby_reward_hbw_none -2
scooby_reward_hbw_out_of_bounds -12
scooby_reward_hbw_tracker_hit -2
scooby_last_pref_offset_conf_thresholds_hbw 1,3,8,
scooby_dyn_degrees_type2_hbw 1,2,4,6,

le_enable_trace 0
le_trace_interval 0
le_trace_file_name 
le_trace_state 0
le_enable_score_plot 0
le_plot_file_name 
le_plot_actions 
le_enable_action_trace 0
le_action_trace_interval 0
le_action_trace_name 
le_enable_action_plot 0

le_featurewise_active_features PC, PC_Delta
le_featurewise_num_tilings 3,3,
le_featurewise_num_tiles 128,128,
le_featurewise_hash_types 2,2,
le_featurewise_enable_tiling_offset 1,1,
le_featurewise_max_q_thresh 0.5
le_featurewise_enable_action_fallback 1
le_featurewise_feature_weights 1,1,
le_featurewise_enable_dynamic_weight 0
le_featurewise_weight_gradient 0.001
le_featurewise_disable_adjust_weight_all_features_align 1
le_featurewise_selective_update 0
le_featurewise_pooling_type 2
le_featurewise_enable_dyn_action_fallback 1
le_featurewise_bw_acc_check_level 1
le_featurewise_acc_thresh 2
le_featurewise_enable_trace 0
le_featurewise_trace_feature_type 0
le_featurewise_trace_feature 
le_featurewise_trace_interval 0
le_featurewise_trace_record_count 0
le_featurewise_trace_file_name 
le_featurewise_enable_score_plot 0
le_featurewise_plot_actions 
le_featurewise_plot_file_name 


Heartbeat CPU  0 instructions:    1000003 cycles:     405453 heartbeat IPC: 2.46638 cumulative IPC: 2.46638 (Simulation time: 0 hr 0 min 2 sec) 
Heartbeat CPU  0 instructions:    2000000 cycles:     806103 heartbeat IPC: 2.49594 cumulative IPC: 2.48107 (Simulation time: 0 hr 0 min 3 sec) 
Heartbeat CPU  0 instructions:    3000000 cycles:    1206747 heartbeat IPC: 2.49598 cumulative IPC: 2.48602 (Simulation time: 0 hr 0 min 5 sec) 
Heartbeat CPU  0 instructions:    4000000 cycles:    1607396 heartbeat IPC: 2.49595 cumulative IPC: 2.48850 (Simulation time: 0 hr 0 min 7 sec) 
Heartbeat CPU  0 instructions:    5000003 cycles:    2008082 heartbeat IPC: 2.49573 cumulative IPC: 2.48994 (Simulation time: 0 hr 0 min 9 sec) 
Heartbeat CPU  0 instructions:    6000003 cycles:    2408727 heartbeat IPC: 2.49598 cumulative IPC: 2.49094 (Simulation time: 0 hr 0 min 10 sec) 
Heartbeat CPU  0 instructions:    7000000 cycles:    2809374 heartbeat IPC: 2.49596 cumulative IPC: 2.49166 (Simulation time: 0 hr 0 min 12 sec) 
Heartbeat CPU  0 instructions:    8000000 cycles:    3210022 heartbeat IPC: 2.49596 cumulative IPC: 2.49219 (Simulation time: 0 hr 0 min 14 sec) 
Heartbeat CPU  0 instructions:    9000001 cycles:    3610705 heartbeat IPC: 2.49574 cumulative IPC: 2.49259 (Simulation time: 0 hr 0 min 15 sec) 
Heartbeat CPU  0 instructions:   10000003 cycles:    4011352 heartbeat IPC: 2.49597 cumulative IPC: 2.49293 (Simulation time: 0 hr 0 min 17 sec) 

Warmup complete CPU  0 instructions:   10000003 cycles:    4011352 (Simulation time: 0 hr 0 min 17 sec) 

Heartbeat CPU  0 instructions:   11000001 cycles:    4896350 heartbeat IPC: 1.12994 cumulative IPC: 1.12994 (Simulation time: 0 hr 0 min 19 sec) 
Heartbeat CPU  0 instructions:   12000000 cycles:   15301041 heartbeat IPC: 0.09611 cumulative IPC: 0.17715 (Simulation time: 0 hr 0 min 25 sec) 
Heartbeat CPU  0 instructions:   13000002 cycles:   34268080 heartbeat IPC: 0.05272 cumulative IPC: 0.09915 (Simulation time: 0 hr 0 min 34 sec) 
Heartbeat CPU  0 instructions:   14000001 cycles:   53154374 heartbeat IPC: 0.05295 cumulative IPC: 0.08140 (Simulation time: 0 hr 0 min 43 sec) 
Heartbeat CPU  0 instructions:   15000002 cycles:   71974775 heartbeat IPC: 0.05313 cumulative IPC: 0.07357 (Simulation time: 0 hr 0 min 53 sec) 
Heartbeat CPU  0 instructions:   16000000 cycles:   90970437 heartbeat IPC: 0.05264 cumulative IPC: 0.06900 (Simulation time: 0 hr 1 min 2 sec) 
Heartbeat CPU  0 instructions:   17000000 cycles:  110015568 heartbeat IPC: 0.05251 cumulative IPC: 0.06604 (Simulation time: 0 hr 1 min 11 sec) 
Heartbeat CPU  0 instructions:   18000000 cycles:  128833562 heartbeat IPC: 0.05314 cumulative IPC: 0.06409 (Simulation time: 0 hr 1 min 20 sec) 
Heartbeat CPU  0 instructions:   19000000 cycles:  147536918 heartbeat IPC: 0.05347 cumulative IPC: 0.06271 (Simulation time: 0 hr 1 min 30 sec) 
Heartbeat CPU  0 instructions:   20000000 cycles:  166597756 heartbeat IPC: 0.05246 cumulative IPC: 0.06151 (Simulation time: 0 hr 1 min 39 sec) 
Heartbeat CPU  0 instructions:   21000000 cycles:  185732814 heartbeat IPC: 0.05226 cumulative IPC: 0.06053 (Simulation time: 0 hr 1 min 48 sec) 
Heartbeat CPU  0 instructions:   22000001 cycles:  203517210 heartbeat IPC: 0.05623 cumulative IPC: 0.06015 (Simulation time: 0 hr 1 min 57 sec) 
Heartbeat CPU  0 instructions:   23000001 cycles:  222547752 heartbeat IPC: 0.05255 cumulative IPC: 0.05949 (Simulation time: 0 hr 2 min 6 sec) 
Heartbeat CPU  0 instructions:   24000000 cycles:  241538139 heartbeat IPC: 0.05266 cumulative IPC: 0.05894 (Simulation time: 0 hr 2 min 16 sec) 
Heartbeat CPU  0 instructions:   25000003 cycles:  260543113 heartbeat IPC: 0.05262 cumulative IPC: 0.05847 (Simulation time: 0 hr 2 min 25 sec) 
Heartbeat CPU  0 instructions:   26000001 cycles:  278586505 heartbeat IPC: 0.05542 cumulative IPC: 0.05827 (Simulation time: 0 hr 2 min 34 sec) 
Heartbeat CPU  0 instructions:   27000003 cycles:  297623963 heartbeat IPC: 0.05253 cumulative IPC: 0.05790 (Simulation time: 0 hr 2 min 43 sec) 
Heartbeat CPU  0 instructions:   28000000 cycles:  316504426 heartbeat IPC: 0.05296 cumulative IPC: 0.05760 (Simulation time: 0 hr 2 min 52 sec) 
Heartbeat CPU  0 instructions:   29000000 cycles:  334292629 heartbeat IPC: 0.05622 cumulative IPC: 0.05753 (Simulation time: 0 hr 3 min 1 sec) 
Heartbeat CPU  0 instructions:   30000000 cycles:  353276422 heartbeat IPC: 0.05268 cumulative IPC: 0.05726 (Simulation time: 0 hr 3 min 11 sec) 
Heartbeat CPU  0 instructions:   31000000 cycles:  372382450 heartbeat IPC: 0.05234 cumulative IPC: 0.05701 (Simulation time: 0 hr 3 min 20 sec) 
Heartbeat CPU  0 instructions:   32000000 cycles:  391552877 heartbeat IPC: 0.05216 cumulative IPC: 0.05677 (Simulation time: 0 hr 3 min 29 sec) 
Heartbeat CPU  0 instructions:   33000000 cycles:  409250430 heartbeat IPC: 0.05650 cumulative IPC: 0.05676 (Simulation time: 0 hr 3 min 38 sec) 
Heartbeat CPU  0 instructions:   34000000 cycles:  427868790 heartbeat IPC: 0.05371 cumulative IPC: 0.05662 (Simulation time: 0 hr 3 min 47 sec) 
Heartbeat CPU  0 instructions:   35000003 cycles:  447062748 heartbeat IPC: 0.05210 cumulative IPC: 0.05643 (Simulation time: 0 hr 3 min 57 sec) 
Heartbeat CPU  0 instructions:   36000000 cycles:  465891975 heartbeat IPC: 0.05311 cumulative IPC: 0.05629 (Simulation time: 0 hr 4 min 6 sec) 
Heartbeat CPU  0 instructions:   37000000 cycles:  485060384 heartbeat IPC: 0.05217 cumulative IPC: 0.05613 (Simulation time: 0 hr 4 min 15 sec) 
Heartbeat CPU  0 instructions:   38000001 cycles:  503821039 heartbeat IPC: 0.05330 cumulative IPC: 0.05602 (Simulation time: 0 hr 4 min 24 sec) 
Heartbeat CPU  0 instructions:   39000000 cycles:  522964752 heartbeat IPC: 0.05224 cumulative IPC: 0.05588 (Simulation time: 0 hr 4 min 34 sec) 
Heartbeat CPU  0 instructions:   40000000 cycles:  541964388 heartbeat IPC: 0.05263 cumulative IPC: 0.05577 (Simulation time: 0 hr 4 min 43 sec) 
Heartbeat CPU  0 instructions:   41000002 cycles:  561003745 heartbeat IPC: 0.05252 cumulative IPC: 0.05566 (Simulation time: 0 hr 4 min 52 sec) 
Heartbeat CPU  0 instructions:   42000001 cycles:  579892800 heartbeat IPC: 0.05294 cumulative IPC: 0.05557 (Simulation time: 0 hr 5 min 1 sec) 
Heartbeat CPU  0 instructions:   43000001 cycles:  598946583 heartbeat IPC: 0.05248 cumulative IPC: 0.05547 (Simulation time: 0 hr 5 min 11 sec) 
Heartbeat CPU  0 instructions:   44000000 cycles:  617993102 heartbeat IPC: 0.05250 cumulative IPC: 0.05538 (Simulation time: 0 hr 5 min 20 sec) 
Heartbeat CPU  0 instructions:   45000000 cycles:  637109443 heartbeat IPC: 0.05231 cumulative IPC: 0.05528 (Simulation time: 0 hr 5 min 29 sec) 
Heartbeat CPU  0 instructions:   46000001 cycles:  655822677 heartbeat IPC: 0.05344 cumulative IPC: 0.05523 (Simulation time: 0 hr 5 min 39 sec) 
Heartbeat CPU  0 instructions:   47000000 cycles:  674562679 heartbeat IPC: 0.05336 cumulative IPC: 0.05518 (Simulation time: 0 hr 5 min 48 sec) 
Heartbeat CPU  0 instructions:   48000000 cycles:  693807551 heartbeat IPC: 0.05196 cumulative IPC: 0.05509 (Simulation time: 0 hr 5 min 57 sec) 
Heartbeat CPU  0 instructions:   49000000 cycles:  712747226 heartbeat IPC: 0.05280 cumulative IPC: 0.05503 (Simulation time: 0 hr 6 min 7 sec) 
Heartbeat CPU  0 instructions:   50000000 cycles:  731469410 heartbeat IPC: 0.05341 cumulative IPC: 0.05499 (Simulation time: 0 hr 6 min 16 sec) 
Heartbeat CPU  0 instructions:   51000003 cycles:  750297523 heartbeat IPC: 0.05311 cumulative IPC: 0.05494 (Simulation time: 0 hr 6 min 25 sec) 
Heartbeat CPU  0 instructions:   52000000 cycles:  768982014 heartbeat IPC: 0.05352 cumulative IPC: 0.05490 (Simulation time: 0 hr 6 min 34 sec) 
Heartbeat CPU  0 instructions:   53000000 cycles:  788111759 heartbeat IPC: 0.05227 cumulative IPC: 0.05484 (Simulation time: 0 hr 6 min 44 sec) 
Heartbeat CPU  0 instructions:   54000002 cycles:  803331748 heartbeat IPC: 0.06570 cumulative IPC: 0.05505 (Simulation time: 0 hr 6 min 52 sec) 
Heartbeat CPU  0 instructions:   55000001 cycles:  822325774 heartbeat IPC: 0.05265 cumulative IPC: 0.05499 (Simulation time: 0 hr 7 min 1 sec) 
Heartbeat CPU  0 instructions:   56000000 cycles:  841002468 heartbeat IPC: 0.05354 cumulative IPC: 0.05496 (Simulation time: 0 hr 7 min 10 sec) 
Heartbeat CPU  0 instructions:   57000000 cycles:  859885195 heartbeat IPC: 0.05296 cumulative IPC: 0.05491 (Simulation time: 0 hr 7 min 20 sec) 
Heartbeat CPU  0 instructions:   58000002 cycles:  878972043 heartbeat IPC: 0.05239 cumulative IPC: 0.05486 (Simulation time: 0 hr 7 min 29 sec) 
Heartbeat CPU  0 instructions:   59000000 cycles:  897754359 heartbeat IPC: 0.05324 cumulative IPC: 0.05483 (Simulation time: 0 hr 7 min 38 sec) 
Heartbeat CPU  0 instructions:   60000000 cycles:  915779844 heartbeat IPC: 0.05548 cumulative IPC: 0.05484 (Simulation time: 0 hr 7 min 47 sec) 
Finished CPU 0 instructions: 50000000 cycles: 911768505 cumulative IPC: 0.05484 (Simulation time: 0 hr 7 min 47 sec) 

ChampSim completed all CPUs

[ROI Statistics]
Core_0_instructions 50000000
Core_0_cycles 911768505
Core_0_IPC 0.05484

Core_0_branch_prediction_accuracy 96.82648
Core_0_branch_MPKI 5.96114
Core_0_average_ROB_occupancy_at_mispredict 133.53871

Core_0_L1D_total_access 16332757
Core_0_L1D_total_hit 7366109
Core_0_L1D_total_miss 8966648
Core_0_L1D_loads 15738493
Core_0_L1D_load_hit 6780579
Core_0_L1D_load_miss 8957914
Core_0_L1D_RFOs 594264
Core_0_L1D_RFO_hit 585530
Core_0_L1D_RFO_miss 8734
Core_0_L1D_prefetches 0
Core_0_L1D_prefetch_hit 0
Core_0_L1D_prefetch_miss 0
Core_0_L1D_writebacks 0
Core_0_L1D_writeback_hit 0
Core_0_L1D_writeback_miss 0
Core_0_L1D_prefetch_requested 0
Core_0_L1D_prefetch_dropped 0
Core_0_L1D_prefetch_issued 0
Core_0_L1D_prefetch_filled 0
Core_0_L1D_prefetch_useful 0
Core_0_L1D_prefetch_useless 0
Core_0_L1D_prefetch_late 0
Core_0_L1D_average_miss_latency 83.12535

Core_0_L1D_rq_access 19501851
Core_0_L1D_rq_forward 0
Core_0_L1D_rq_merged 3237103
Core_0_L1D_rq_to_cache 16264748
Core_0_L1D_rq_full 0

Core_0_L1D_wq_access 717952
Core_0_L1D_wq_forward 0
Core_0_L1D_wq_merged 0
Core_0_L1D_wq_to_cache 717952
Core_0_L1D_wq_full 0

Core_0_L1D_pq_access 0
Core_0_L1D_pq_forward 0
Core_0_L1D_pq_merged 0
Core_0_L1D_pq_to_cache 0
Core_0_L1D_pq_full 0

Core_0_L1D_acc_epochs 893289
Core_0_L1D_acc_level_0 893289
Core_0_L1D_acc_level_1 0
Core_0_L1D_acc_level_2 0
Core_0_L1D_acc_level_3 0
Core_0_L1D_acc_level_4 0
Core_0_L1D_acc_level_5 0
Core_0_L1D_acc_level_6 0
Core_0_L1D_acc_level_7 0
Core_0_L1D_acc_level_8 0
Core_0_L1D_acc_level_9 0

Core_0_L1I_total_access 9472210
Core_0_L1I_total_hit 9472208
Core_0_L1I_total_miss 2
Core_0_L1I_loads 9472210
Core_0_L1I_load_hit 9472208
Core_0_L1I_load_miss 2
Core_0_L1I_RFOs 0
Core_0_L1I_RFO_hit 0
Core_0_L1I_RFO_miss 0
Core_0_L1I_prefetches 0
Core_0_L1I_prefetch_hit 0
Core_0_L1I_prefetch_miss 0
Core_0_L1I_writebacks 0
Core_0_L1I_writeback_hit 0
Core_0_L1I_writeback_miss 0
Core_0_L1I_prefetch_requested 0
Core_0_L1I_prefetch_dropped 0
Core_0_L1I_prefetch_issued 0
Core_0_L1I_prefetch_filled 0
Core_0_L1I_prefetch_useful 0
Core_0_L1I_prefetch_useless 0
Core_0_L1I_prefetch_late 0
Core_0_L1I_average_miss_latency 180.50000

Core_0_L1I_rq_access 50000006
Core_0_L1I_rq_forward 0
Core_0_L1I_rq_merged 40527795
Core_0_L1I_rq_to_cache 9472211
Core_0_L1I_rq_full 0

Core_0_L1I_wq_access 0
Core_0_L1I_wq_forward 0
Core_0_L1I_wq_merged 0
Core_0_L1I_wq_to_cache 0
Core_0_L1I_wq_full 0

Core_0_L1I_pq_access 0
Core_0_L1I_pq_forward 0
Core_0_L1I_pq_merged 0
Core_0_L1I_pq_to_cache 0
Core_0_L1I_pq_full 0

Core_0_L1I_acc_epochs 893289
Core_0_L1I_acc_level_0 893289
Core_0_L1I_acc_level_1 0
Core_0_L1I_acc_level_2 0
Core_0_L1I_acc_level_3 0
Core_0_L1I_acc_level_4 0
Core_0_L1I_acc_level_5 0
Core_0_L1I_acc_level_6 0
Core_0_L1I_acc_level_7 0
Core_0_L1I_acc_level_8 0
Core_0_L1I_acc_level_9 0

Core_0_L2C_total_access 20721342
Core_0_L2C_total_hit 5110161
Core_0_L2C_total_miss 15611181
Core_0_L2C_loads 8957915
Core_0_L2C_load_hit 1766681
Core_0_L2C_load_miss 7191234
Core_0_L2C_RFOs 8734
Core_0_L2C_RFO_hit 0
Core_0_L2C_RFO_miss 8734
Core_0_L2C_prefetches 11721647
Core_0_L2C_prefetch_hit 3310928
Core_0_L2C_prefetch_miss 8410719
Core_0_L2C_writebacks 33046
Core_0_L2C_writeback_hit 32552
Core_0_L2C_writeback_miss 494
Core_0_L2C_prefetch_requested 13146214
Core_0_L2C_prefetch_dropped 0
Core_0_L2C_prefetch_issued 13146214
Core_0_L2C_prefetch_filled 8578837
Core_0_L2C_prefetch_useful 1185365
Core_0_L2C_prefetch_useless 7391592
Core_0_L2C_prefetch_late 104577
Core_0_L2C_average_miss_latency 92.46124

Core_0_L2C_rq_access 8966650
Core_0_L2C_rq_forward 0
Core_0_L2C_rq_merged 0
Core_0_L2C_rq_to_cache 8966649
Core_0_L2C_rq_full 0

Core_0_L2C_wq_access 33046
Core_0_L2C_wq_forward 1
Core_0_L2C_wq_merged 0
Core_0_L2C_wq_to_cache 33046
Core_0_L2C_wq_full 0

Core_0_L2C_pq_access 13146214
Core_0_L2C_pq_forward 0
Core_0_L2C_pq_merged 12290
Core_0_L2C_pq_to_cache 13133924
Core_0_L2C_pq_full 0

Core_0_L2C_acc_epochs 893289
Core_0_L2C_acc_level_0 457596
Core_0_L2C_acc_level_1 364033
Core_0_L2C_acc_level_2 55944
Core_0_L2C_acc_level_3 7384
Core_0_L2C_acc_level_4 809
Core_0_L2C_acc_level_5 1068
Core_0_L2C_acc_level_6 980
Core_0_L2C_acc_level_7 256
Core_0_L2C_acc_level_8 118
Core_0_L2C_acc_level_9 5101

Core_0_LLC_total_access 15639704
Core_0_LLC_total_hit 9881272
Core_0_LLC_total_miss 5758432
Core_0_LLC_loads 7086659
Core_0_LLC_load_hit 4783912
Core_0_LLC_load_miss 2302747
Core_0_LLC_RFOs 8734
Core_0_LLC_RFO_hit 0
Core_0_LLC_RFO_miss 8734
Core_0_LLC_prefetches 8515294
Core_0_LLC_prefetch_hit 5084162
Core_0_LLC_prefetch_miss 3431132
Core_0_LLC_writebacks 29017
Core_0_LLC_writeback_hit 13198
Core_0_LLC_writeback_miss 15819
Core_0_LLC_prefetch_requested 0
Core_0_LLC_prefetch_dropped 0
Core_0_LLC_prefetch_issued 0
Core_0_LLC_prefetch_filled 3599252
Core_0_LLC_prefetch_useful 342504
Core_0_LLC_prefetch_useless 3248961
Core_0_LLC_prefetch_late 0
Core_0_LLC_average_miss_latency 170.07682

Core_0_LLC_rq_access 7095393
Core_0_LLC_rq_forward 0
Core_0_LLC_rq_merged 0
Core_0_LLC_rq_to_cache 7095393
Core_0_LLC_rq_full 0

Core_0_LLC_wq_access 29017
Core_0_LLC_wq_forward 0
Core_0_LLC_wq_merged 0
Core_0_LLC_wq_to_cache 29017
Core_0_LLC_wq_full 0

Core_0_LLC_pq_access 8683414
Core_0_LLC_pq_forward 0
Core_0_LLC_pq_merged 0
Core_0_LLC_pq_to_cache 8683414
Core_0_LLC_pq_full 0

Core_0_LLC_acc_epochs 894317
Core_0_LLC_acc_level_0 504910
Core_0_LLC_acc_level_1 196125
Core_0_LLC_acc_level_2 102666
Core_0_LLC_acc_level_3 41928
Core_0_LLC_acc_level_4 11082
Core_0_LLC_acc_level_5 25026
Core_0_LLC_acc_level_6 5704
Core_0_LLC_acc_level_7 2153
Core_0_LLC_acc_level_8 813
Core_0_LLC_acc_level_9 3910

Core_0_major_page_fault 0
Core_0_minor_page_fault 12615

scooby_st_lookup 9128603
scooby_st_hit 3464572
scooby_st_evict 5663967
scooby_st_insert 5664031
scooby_st_streaming 0

scooby_predict_called 9128603
scooby_predict_out_of_bounds 168856
scooby_predict_action_1 8497566
scooby_predict_issue_action_1 8493915
scooby_predict_hit_action_1 3651
scooby_predict_out_of_bounds_action_1 136968
scooby_predict_action_3 12951
scooby_predict_issue_action_3 12402
scooby_predict_hit_action_3 549
scooby_predict_out_of_bounds_action_3 1006
scooby_predict_action_4 12524
scooby_predict_issue_action_4 12363
scooby_predict_hit_action_4 161
scooby_predict_out_of_bounds_action_4 1273
scooby_predict_action_5 11325
scooby_predict_issue_action_5 11206
scooby_predict_hit_action_5 119
scooby_predict_out_of_bounds_action_5 1514
scooby_predict_action_10 8930
scooby_predict_issue_action_10 8818
scooby_predict_hit_action_10 112
scooby_predict_out_of_bounds_action_10 2690
scooby_predict_action_11 8679
scooby_predict_issue_action_11 8605
scooby_predict_hit_action_11 74
scooby_predict_out_of_bounds_action_11 2900
scooby_predict_action_12 7917
scooby_predict_issue_action_12 7854
scooby_predict_hit_action_12 63
scooby_predict_out_of_bounds_action_12 3032
scooby_predict_action_22 4650
scooby_predict_issue_action_22 4620
scooby_predict_hit_action_22 30
scooby_predict_out_of_bounds_action_22 4325
scooby_predict_action_23 4411
scooby_predict_issue_action_23 4270
scooby_predict_hit_action_23 141
scooby_predict_out_of_bounds_action_23 4335
scooby_predict_action_30 3304
scooby_predict_issue_action_30 3179
scooby_predict_hit_action_30 125
scooby_predict_out_of_bounds_action_30 5037
scooby_predict_action_32 2857
scooby_predict_issue_action_32 2737
scooby_predict_hit_action_32 120
scooby_predict_out_of_bounds_action_32 5239
scooby_predict_action_-1 11863
scooby_predict_issue_action_-1 11557
scooby_predict_hit_action_-1 306
scooby_predict_out_of_bounds_action_-1 51
scooby_predict_action_-3 10100
scooby_predict_issue_action_-3 9718
scooby_predict_hit_action_-3 382
scooby_predict_out_of_bounds_action_-3 147
scooby_predict_action_-6 9919
scooby_predict_issue_action_-6 9448
scooby_predict_hit_action_-6 471
scooby_predict_out_of_bounds_action_-6 339
scooby_predict_action_0 352751
scooby_predict_issue_action_0 0
scooby_predict_hit_action_0 0
scooby_predict_out_of_bounds_action_0 0
scooby_predict_multi_deg_called 1374195
scooby_predict_predicted 13146214
scooby_predict_multi_deg 4545522
scooby_predict_multi_deg_2 1341873
scooby_predict_multi_deg_3 956024
scooby_predict_multi_deg_4 934312
scooby_predict_multi_deg_5 664494
scooby_predict_multi_deg_6 648819
scooby_predict_multi_deg_7 0
scooby_predict_multi_deg_8 0
scooby_predict_multi_deg_9 0
scooby_predict_multi_deg_10 0
scooby_predict_multi_deg_11 0
scooby_predict_multi_deg_12 0
scooby_predict_multi_deg_13 0
scooby_predict_multi_deg_14 0
scooby_predict_multi_deg_15 0
scooby_predict_multi_deg_16 0

scooby_selected_deg_1 7226497
scooby_selected_deg_2 373750
scooby_selected_deg_3 0
scooby_selected_deg_4 272893
scooby_selected_deg_5 0
scooby_selected_deg_6 727552
scooby_selected_deg_7 0
scooby_selected_deg_8 0
scooby_selected_deg_9 0
scooby_selected_deg_10 0
scooby_selected_deg_11 0
scooby_selected_deg_12 0
scooby_selected_deg_13 0
scooby_selected_deg_14 0
scooby_selected_deg_15 0
scooby_selected_deg_16 0

scooby_state_55fe46b7b06a|2|0 126800,30,24,25,32,27,19,23,22,26,28,20,22,19,6553,133670,
scooby_state_55fe46b7b06a|0|0 116732,19,23,33,23,32,16,22,16,26,14,33,25,24,6779,123817,
scooby_state_55fe46b7b06a|3|0 116024,20,23,17,21,36,21,22,27,23,10,19,23,14,6229,122529,
scooby_state_55fe46b7b06a|1|0 115337,27,17,23,24,27,23,18,20,27,24,20,20,27,6599,122233,
scooby_state_55fe46b7b06a|5|0 116368,19,20,20,21,26,16,25,23,18,19,14,22,27,5343,121981,
scooby_state_55fe46b7b06a|11|0 111382,26,31,22,22,24,25,21,26,20,17,20,18,20,4394,116068,
scooby_state_55fe46b7b06a|4|0 109922,22,21,21,16,25,25,21,16,16,18,19,22,24,5611,115799,
scooby_state_55fe46b7b06a|7|0 105248,17,22,28,17,22,15,18,22,18,7,16,23,25,4775,110273,
scooby_state_55fe46b7b06a|13|0 105954,25,19,19,10,33,14,25,14,21,13,12,27,25,3879,110090,
scooby_state_55fe46b7b06a|12|0 102368,18,32,27,15,31,26,16,16,12,12,14,21,15,4022,106645,
scooby_state_55fe46b7b06a|9|0 101291,19,18,22,19,13,20,16,20,22,16,14,12,15,4253,105770,
scooby_state_55fe46b7b06a|6|0 99646,17,24,28,20,23,17,22,14,23,12,15,18,17,4453,104349,
scooby_state_55fe46b7b06a|8|0 99234,19,18,20,17,30,13,14,14,24,18,8,23,19,4417,103888,
scooby_state_55fe46b7b06a|37|0 100484,23,18,15,19,27,24,13,23,26,13,14,12,16,2569,103296,
scooby_state_55fe46b7b06a|14|0 98025,22,18,16,19,25,17,19,12,10,18,15,17,26,3821,102080,
scooby_state_55fe46b7b06a|15|0 96956,21,21,11,21,30,18,15,15,16,17,17,15,17,3335,100525,
scooby_state_55fe46b7b06a|10|0 95536,19,21,18,24,23,22,15,13,20,14,16,19,22,4224,100006,
scooby_state_55fe46b7b06a|19|0 93826,12,17,17,18,23,15,23,16,15,16,16,19,21,3198,97252,
scooby_state_55fe46b7b06a|22|0 92311,15,14,19,13,26,14,20,18,13,18,21,13,18,2935,95468,
scooby_state_55fe46b7b06a|16|0 91141,24,13,17,14,17,15,11,11,21,20,14,18,16,3264,94616,
scooby_state_55fe46b7b06a|17|0 88837,17,23,12,23,23,17,16,18,15,15,28,15,16,3236,92311,
scooby_state_55fe46b7b06a|21|0 87475,11,15,17,17,18,14,14,15,13,13,18,15,16,2792,90463,
scooby_state_55fe46b7b06a|38|0 86630,13,13,25,11,12,12,15,16,17,10,19,15,14,2237,89059,
scooby_state_55fe46b7b06a|49|0 86602,16,21,15,18,19,17,17,20,9,14,17,16,13,1860,88674,
scooby_state_55fe46b7b06a|23|0 85123,16,21,19,16,10,17,15,17,13,22,19,13,19,2630,87970,
scooby_state_55fe46b7b06a|27|0 85274,22,10,23,15,11,15,16,15,14,16,14,10,13,2450,87918,
scooby_state_55fe46b7b06a|25|0 85274,10,22,24,15,20,9,16,10,15,10,15,13,18,2435,87906,
scooby_state_55fe46b7b06a|20|0 82764,17,14,14,15,22,15,20,13,18,12,16,14,17,2680,85651,
scooby_state_55fe46b7b06a|33|0 81640,10,8,6,19,11,17,19,17,14,11,14,12,12,2010,83820,
scooby_state_55fe46b7b06a|32|0 81133,14,13,18,17,12,8,19,11,17,14,15,20,17,2245,83573,
scooby_state_55fe46b7b06a|18|0 80292,15,11,14,24,17,12,17,14,17,8,17,16,13,2792,83279,
scooby_state_55fe46b7b06a|28|0 80673,16,12,12,19,16,11,9,15,13,12,13,10,16,2283,83130,
scooby_state_55fe46b7b06a|26|0 79236,9,19,24,13,16,12,19,11,14,13,14,14,23,2337,81774,
scooby_state_55fe46b7b06a|43|0 79232,13,17,11,16,13,22,11,10,14,10,20,14,11,1888,81302,
scooby_state_55fe46b7b06a|24|0 78298,8,15,11,10,18,10,20,18,14,9,12,12,15,2327,80797,
scooby_state_55fe46b7b06a|30|0 77937,11,11,13,17,24,11,13,16,17,5,15,13,15,2087,80205,
scooby_state_55fe46b7b06a|41|0 78097,19,17,20,9,11,12,13,21,15,10,17,18,13,1813,80105,
scooby_state_55fe46b7b06a|31|0 77424,11,17,4,17,18,17,19,8,11,11,15,13,17,2243,79845,
scooby_state_55fe46b7b06a|56|0 77837,13,10,11,10,16,18,20,8,19,6,14,17,23,1708,79730,
scooby_state_55fe46b7b06a|46|0 77469,16,18,16,23,17,11,13,13,12,15,16,16,15,1749,79419,
scooby_state_55fe46b7b06a|29|0 75197,15,13,13,11,13,18,14,11,10,10,9,11,18,2071,77434,
scooby_state_55fe46b7b06a|35|0 74998,9,15,12,9,22,14,11,16,13,22,11,14,16,1936,77118,
scooby_state_55fe46b7b06a|40|0 75018,11,23,17,13,12,11,16,13,8,18,15,14,9,1682,76880,
scooby_state_55fe46b7b06a|55|0 74937,11,16,19,16,11,11,10,16,17,17,14,11,11,1747,76864,
scooby_state_55fe46b7b06a|48|0 73368,14,18,13,17,10,21,14,14,7,6,13,11,13,1625,75164,
scooby_state_55fe46b7b06a|54|0 73457,17,12,14,18,11,11,17,12,9,9,15,14,11,1485,75112,
scooby_state_55fe46b7b06a|39|0 72436,16,11,16,19,14,16,12,12,11,15,10,10,15,1846,74459,
scooby_state_55fe46b7b06a|42|0 72390,20,21,12,10,9,13,11,13,11,13,8,13,8,1746,74298,
scooby_state_55fe46b7b06a|50|0 71803,10,25,10,14,12,19,7,15,20,14,6,17,17,1574,73563,
scooby_state_55fe46b7b06a|57|0 71710,18,15,15,9,12,11,10,18,10,6,12,13,10,1523,73392,
scooby_state_55fe46b7b06a|44|0 71100,13,17,19,12,18,9,14,18,6,12,12,15,17,1692,72974,
scooby_state_55fe46b7b06a|51|0 71123,13,13,11,11,12,11,13,11,9,16,10,11,17,1526,72807,
scooby_state_55fe46b7b06a|47|0 70883,18,15,10,15,11,13,15,13,9,15,9,13,6,1595,72640,
scooby_state_55fe46b7b06a|34|0 70417,8,13,19,15,15,20,14,6,7,15,12,13,16,1861,72451,
scooby_state_55fe46b7b06a|62|0 69220,9,10,20,11,9,13,13,7,12,15,11,12,6,1406,70774,
scooby_state_55fe46b7b06a|63|0 69157,10,14,16,11,8,15,9,9,8,11,8,11,5,1420,70712,
scooby_state_55fe46b7b06a|36|0 67945,11,9,11,8,16,15,11,12,8,9,14,15,10,1765,69859,
scooby_state_55fe46b7b06a|61|0 67549,12,9,16,13,13,12,12,14,13,17,12,9,13,1389,69103,
scooby_state_55fe46b7b06a|45|0 67262,11,12,13,12,10,17,18,10,15,8,13,12,9,1547,68969,
scooby_state_55fe46b7b06a|52|0 66657,13,14,16,13,5,12,10,17,19,22,10,11,11,1439,68269,
scooby_state_55fe46b7b06a|58|0 66147,11,17,11,15,13,12,14,9,13,13,9,12,14,1348,67658,
scooby_state_55fe46b7b06a|53|0 65322,18,17,16,13,14,14,10,18,11,9,19,14,9,1359,66863,
scooby_state_55fe46b7b06a|60|0 64868,12,14,12,9,5,14,8,6,7,15,16,9,9,1269,66273,
scooby_state_55fe46b7b06a|59|0 63174,10,10,14,12,14,13,11,9,14,12,14,20,11,1371,64709,
scooby_state_55fe46b7b060|27|1 8454,2,1,1,2,1,4,0,1,0,1,0,1,1,2,8471,
scooby_state_55fe46b7b060|19|1 8448,3,2,3,2,0,3,1,1,3,2,0,0,3,0,8471,
scooby_state_55fe46b7b060|1|1 8449,0,1,1,7,0,7,1,2,1,0,1,0,1,0,8471,
scooby_state_55fe46b7b060|25|1 8454,1,1,0,3,1,4,2,1,1,1,1,1,0,0,8471,
scooby_state_55fe46b7b060|35|1 8442,2,1,1,7,1,8,0,2,0,2,1,1,1,2,8471,
scooby_state_55fe46b7b060|6|1 8444,1,3,0,7,1,7,2,2,2,2,0,0,0,0,8471,
scooby_state_55fe46b7b060|26|1 8452,1,0,0,2,2,3,2,1,1,0,1,1,1,4,8471,
scooby_state_55fe46b7b060|44|1 8448,0,1,2,7,2,4,0,0,0,1,2,2,1,1,8471,
scooby_state_55fe46b7b060|5|1 8440,3,1,0,10,3,7,1,0,0,2,1,2,1,0,8471,
scooby_state_55fe46b7b060|4|1 8440,0,4,0,9,1,7,0,1,0,2,2,1,1,3,8471,
scooby_state_55fe46b7b060|28|1 8448,2,2,1,3,4,3,0,3,1,1,0,0,1,2,8471,
scooby_state_55fe46b7b060|39|1 8451,1,1,1,7,0,4,0,1,1,0,1,0,2,1,8471,
scooby_state_55fe46b7b060|21|1 8451,3,1,0,4,2,2,1,2,2,0,0,1,1,1,8471,
scooby_state_55fe46b7b060|15|1 8446,2,2,2,7,0,6,2,0,0,0,0,1,1,2,8471,
scooby_state_55fe46b7b060|32|1 8448,1,0,2,10,0,3,1,1,1,2,1,1,0,0,8471,
scooby_state_55fe46b7b060|29|1 8455,1,0,3,3,0,2,1,1,2,1,0,1,1,0,8471,
scooby_state_55fe46b7b060|16|1 8448,1,0,1,6,2,4,2,0,2,0,2,1,0,2,8471,
scooby_state_55fe46b7b060|18|1 8453,0,3,1,4,2,2,1,1,0,0,0,1,2,1,8471,
scooby_state_55fe46b7b060|7|1 8432,2,3,1,12,0,11,1,1,0,0,2,1,3,2,8471,
scooby_state_55fe46b7b060|38|1 8442,1,2,0,8,3,5,2,1,2,3,1,0,1,0,8471,
scooby_state_55fe46b7b060|3|1 8448,1,1,0,8,0,9,1,1,0,0,0,0,0,2,8471,
scooby_state_55fe46b7b060|20|1 8456,2,0,0,2,1,4,0,0,2,1,0,1,0,2,8471,
scooby_state_55fe46b7b060|22|1 8452,0,3,1,2,1,2,1,0,2,1,0,4,1,1,8471,
scooby_state_55fe46b7b060|33|1 8454,0,0,1,7,1,4,1,0,0,1,0,1,1,0,8471,
scooby_state_55fe46b7b060|8|1 8450,1,1,2,6,2,4,2,0,0,0,1,0,1,1,8471,
scooby_state_55fe46b7b060|37|1 8450,0,2,0,7,3,5,1,0,2,0,0,0,1,0,8471,
scooby_state_55fe46b7b060|2|1 8444,0,3,1,8,0,6,1,5,0,2,0,0,0,1,8471,
scooby_state_55fe46b7b060|40|1 8445,0,2,0,7,0,3,1,2,1,2,0,0,4,4,8471,
scooby_state_55fe46b7b060|42|1 8446,4,1,0,7,0,5,1,0,0,3,1,2,0,1,8471,
scooby_state_55fe46b7b060|0|0 8449,1,1,0,10,0,9,0,0,0,1,0,0,0,0,8471,
scooby_state_55fe46b7b060|23|1 8456,2,0,1,2,0,2,2,0,0,1,0,1,2,2,8471,
scooby_state_55fe46b7b060|41|1 8443,0,1,3,8,1,4,1,3,2,1,2,2,0,0,8471,
scooby_state_55fe46b7b060|13|1 8456,0,0,0,2,1,5,1,0,1,1,0,3,0,1,8471,
scooby_state_55fe46b7b060|10|1 8460,0,1,0,4,0,3,0,2,0,1,0,0,0,0,8471,
scooby_state_55fe46b7b060|34|1 8440,1,1,3,9,0,5,2,2,0,5,0,2,1,0,8471,
scooby_state_55fe46b7b060|43|1 8450,0,1,0,6,0,5,1,5,0,1,1,0,1,0,8471,
scooby_state_55fe46b7b060|9|1 8451,0,1,1,5,3,2,1,0,1,0,3,2,1,0,8471,
scooby_state_55fe46b7b060|36|1 8452,1,0,0,8,1,3,1,3,1,0,0,0,1,0,8471,
scooby_state_55fe46b7b060|45|1 8447,1,0,1,5,0,5,3,2,1,1,2,0,3,0,8471,
scooby_state_55fe46b7b060|14|1 8451,0,0,1,4,2,6,0,0,1,1,2,0,2,1,8471,
scooby_state_55fe46b7b060|24|1 8446,1,3,1,2,4,4,1,0,2,0,2,0,2,3,8471,
scooby_state_55fe46b7b060|30|1 8456,1,0,1,3,1,4,0,1,1,0,0,0,2,1,8471,
scooby_state_55fe46b7b060|17|1 8453,2,1,0,5,1,1,1,1,1,1,1,0,1,2,8471,
scooby_state_55fe46b7b060|11|1 8454,0,1,0,2,1,3,2,0,1,1,0,2,4,0,8471,
scooby_state_55fe46b7b060|12|1 8454,0,2,3,3,1,2,1,0,0,3,1,1,0,0,8471,
scooby_state_55fe46b7b060|31|1 8449,2,1,0,6,0,5,1,0,3,1,2,0,1,0,8471,
scooby_state_55fe46b7b060|59|1 8443,0,1,0,8,1,7,2,2,0,3,1,0,1,1,8470,
scooby_state_55fe46b7b060|56|1 8450,2,0,1,7,2,3,0,0,0,0,2,2,1,0,8470,
scooby_state_55fe46b7b060|46|1 8452,2,1,0,7,0,4,1,1,1,0,1,0,0,0,8470,
scooby_state_55fe46b7b060|47|1 8440,3,0,0,10,0,9,2,0,1,1,2,0,2,0,8470,
scooby_state_55fe46b7b060|48|1 8451,0,0,1,7,0,7,0,1,1,1,0,1,0,0,8470,
scooby_state_55fe46b7b060|49|1 8436,4,0,1,7,1,5,2,2,1,2,2,2,3,2,8470,
scooby_state_55fe46b7b060|50|1 8439,1,2,2,8,1,5,0,1,0,5,1,3,1,1,8470,
scooby_state_55fe46b7b060|63|1 8445,0,3,0,7,0,6,3,0,2,1,2,0,0,1,8470,
scooby_state_55fe46b7b060|54|1 8449,3,1,0,7,0,4,1,1,1,0,3,0,0,0,8470,
scooby_state_55fe46b7b060|53|1 8450,0,1,0,8,0,3,2,0,1,2,2,0,0,1,8470,
scooby_state_55fe46b7b060|55|1 8445,2,3,0,7,1,5,1,0,2,1,0,1,2,0,8470,
scooby_state_55fe46b7b060|57|1 8442,0,1,1,7,2,5,0,1,4,2,0,1,1,3,8470,
scooby_state_55fe46b7b060|61|1 8440,0,1,1,8,1,5,0,1,2,3,1,3,1,3,8470,
scooby_state_55fe46b7b060|52|1 8447,1,2,0,7,3,5,0,2,0,1,0,1,1,0,8470,
scooby_state_55fe46b7b060|58|1 8443,3,2,0,8,4,5,2,1,0,0,1,0,1,0,8470,
scooby_state_55fe46b7b060|51|1 8445,0,1,2,7,3,5,2,1,0,0,2,2,0,0,8470,
scooby_state_55fe46b7b060|60|1 8449,1,0,2,8,0,5,0,0,1,0,2,0,2,0,8470,
scooby_state_55fe46b7b060|62|1 8446,2,2,2,7,1,4,1,1,0,3,0,0,1,0,8470,
scooby_state_55fe46b7b06a|38|1 4675,15,15,15,9,16,6,11,6,7,6,3,7,10,404,5205,
scooby_state_55fe46b7b06a|6|1 4477,14,14,11,8,10,13,8,4,3,6,4,4,4,421,5001,
scooby_state_55fe46b7b06a|12|1 4320,15,19,19,6,14,14,4,10,7,4,3,7,7,415,4864,
scooby_state_55fe46b7b06a|32|1 4291,10,13,13,7,13,8,8,6,3,4,5,7,8,361,4757,
scooby_state_55fe46b7b06a|57|1 4139,17,9,17,6,12,7,11,8,5,6,6,3,4,433,4683,
scooby_state_55fe46b7b06a|56|1 4051,19,8,14,10,16,11,5,7,6,5,12,9,8,487,4668,
scooby_state_55fe46b7b06a|50|1 4099,11,5,8,9,14,3,1,3,3,11,4,5,5,449,4630,
scooby_state_55fe46b7b06a|5|1 4092,19,12,10,8,10,14,8,7,1,6,6,7,4,411,4615,
scooby_state_55fe46b7b06a|49|1 4003,19,15,11,9,18,14,9,4,5,6,5,8,4,460,4590,
scooby_state_55fe46b7b06a|14|1 4031,15,13,13,10,6,3,3,2,6,5,5,3,2,407,4524,
scooby_state_55fe46b7b06a|15|1 4041,13,8,8,8,12,9,7,3,6,3,11,4,3,371,4507,
scooby_state_55fe46b7b06a|8|1 3905,13,11,12,6,11,20,5,4,6,8,7,2,8,424,4442,
scooby_state_55fe46b7b06a|58|1 3932,9,15,20,12,7,15,5,6,3,8,4,7,3,385,4431,
scooby_state_55fe46b7b06a|23|1 3960,16,14,8,6,7,8,10,5,4,4,3,5,8,353,4411,
scooby_state_55fe46b7b06a|2|1 3880,19,8,10,6,14,13,7,5,5,6,7,6,9,399,4394,
scooby_state_55fe46b7b06a|62|1 3837,16,14,11,12,10,8,15,4,4,3,5,6,6,439,4390,
scooby_state_55fe46b7b06a|9|1 3814,17,7,13,12,15,7,7,7,7,1,9,4,7,379,4306,
scooby_state_55fe46b7b06a|28|1 3806,12,13,16,9,9,6,7,6,2,4,9,5,2,365,4271,
scooby_state_55fe46b7b06a|16|1 3807,17,16,11,7,7,11,10,6,6,9,6,4,4,333,4254,
scooby_state_55fe46b7b06a|39|1 3769,10,18,8,7,10,13,8,4,4,8,8,6,7,364,4244,
scooby_state_55fe46b7b06a|10|1 3784,23,7,10,8,12,7,5,6,4,5,6,4,5,356,4242,
scooby_state_55fe46b7b06a|22|1 3786,15,17,11,6,8,10,5,5,1,3,4,5,5,358,4239,
scooby_state_55fe46b7b06a|29|1 3771,13,13,7,9,13,7,5,3,6,5,5,5,8,362,4232,
scooby_state_55fe46b7b06a|63|1 3677,16,15,10,8,10,9,10,5,6,6,4,5,9,408,4198,
scooby_state_55fe46b7b06a|1|1 3676,23,13,12,6,11,10,5,6,6,3,10,7,4,400,4192,
scooby_state_55fe46b7b06a|59|1 3606,17,11,11,8,14,12,5,14,6,4,5,4,7,448,4172,
scooby_state_55fe46b7b06a|55|1 3674,11,12,9,4,14,8,4,9,5,4,6,5,3,392,4160,
scooby_state_55fe46b7b06a|37|2 3679,14,10,10,9,11,8,7,8,10,8,8,7,5,356,4150,
scooby_state_55fe46b7b06a|11|2 3669,6,10,10,9,6,8,5,1,4,5,3,5,5,389,4135,
scooby_state_55fe46b7b06a|51|2 3687,11,7,12,6,5,7,5,6,5,4,7,5,5,362,4134,
scooby_state_55fe46b7b06a|20|1 3701,10,14,9,5,7,11,8,12,4,8,5,5,5,321,4125,
scooby_state_55fe46b7b06a|2|2 3645,11,13,9,6,7,5,7,3,7,4,4,10,2,382,4115,
scooby_state_55fe46b7b06a|30|1 3698,11,7,6,6,13,10,5,5,9,1,6,3,7,319,4106,
scooby_state_55fe46b7b06a|3|1 3600,13,15,5,9,12,7,8,2,6,4,7,7,3,402,4100,
scooby_state_55fe46b7b06a|51|1 3627,11,18,12,8,12,10,9,2,6,3,6,7,6,360,4097,
scooby_state_55fe46b7b06a|11|1 3649,15,11,7,6,14,5,7,6,3,4,5,8,2,350,4092,
scooby_state_55fe46b7b06a|13|1 3635,11,12,8,8,6,10,5,6,2,4,2,4,4,345,4062,
scooby_state_55fe46b7b06a|53|1 3590,12,14,15,5,9,10,9,8,5,2,4,8,3,365,4059,
scooby_state_55fe46b7b06a|46|1 3551,15,12,3,4,14,10,8,6,5,3,4,11,6,350,4002,
scooby_state_55fe46b7b06a|43|1 3534,18,12,6,9,18,9,7,2,3,2,2,5,7,334,3968,
scooby_state_55fe46b7b06a|19|1 3552,15,6,10,6,9,8,8,5,1,11,8,5,6,299,3949,
scooby_state_55fe46b7b06a|33|1 3543,9,6,10,7,10,11,6,6,7,11,8,6,2,304,3946,
scooby_state_55fe46b7b06a|24|1 3549,19,8,12,8,12,10,4,9,6,1,6,3,6,290,3943,
scooby_state_55fe46b7b06a|17|1 3549,8,11,6,6,11,9,4,6,5,0,1,4,5,306,3931,
scooby_state_55fe46b7b06a|37|1 3507,10,12,13,5,10,6,6,7,5,3,3,6,7,309,3909,
scooby_state_55fe46b7b06a|21|1 3510,16,14,11,6,17,7,2,3,4,5,4,5,2,298,3904,
scooby_state_55fe46b7b06a|34|1 3470,7,13,9,7,6,3,4,6,7,3,4,7,6,322,3874,
scooby_state_55fe46b7b06a|44|1 3434,8,7,9,2,11,10,5,2,4,7,8,5,4,342,3858,
scooby_state_55fe46b7b06a|54|1 3437,11,15,13,7,11,8,5,6,4,2,8,10,2,304,3843,
scooby_state_55fe46b7b06a|25|1 3454,11,11,13,10,8,6,13,4,5,8,4,4,4,284,3839,
scooby_state_55fe46b7b06a|41|1 3380,16,9,14,14,10,9,8,5,2,5,6,8,8,343,3837,
scooby_state_55fe46b7b06a|45|1 3390,7,13,3,6,7,7,7,7,6,13,9,9,3,342,3829,
scooby_state_55fe46b7b06a|48|1 3352,13,14,10,4,16,8,8,12,6,6,2,4,1,364,3820,
scooby_state_55fe46b7b06a|18|1 3403,8,9,9,9,8,10,6,5,4,3,4,7,4,325,3814,
scooby_state_55fe46b7b06a|31|1 3389,6,8,8,9,8,9,4,10,7,2,2,5,4,336,3807,
scooby_state_55fe46b7b06a|4|1 3329,19,14,10,7,10,11,6,5,7,6,5,2,6,362,3799,
scooby_state_55fe46b7b06a|39|2 3338,13,17,3,5,6,6,2,1,4,3,9,3,8,379,3797,
scooby_state_55fe46b7b06a|42|1 3369,15,11,18,6,10,5,6,7,3,4,9,8,7,313,3791,
scooby_state_55fe46b7b06a|61|1 3357,18,15,8,5,7,10,11,5,7,6,3,3,5,325,3785,
scooby_state_55fe46b7b06a|47|1 3337,13,16,10,5,19,15,4,4,3,8,5,5,1,322,3767,
scooby_state_55fe46b7b06a|26|1 3373,10,15,10,5,8,5,8,5,5,6,3,4,7,297,3761,
scooby_state_55fe46b7b06a|40|1 3366,9,14,12,6,11,11,4,4,4,2,4,3,9,296,3755,
scooby_state_55fe46b7b06a|5|2 3287,17,12,5,8,9,5,3,5,4,9,8,5,3,356,3736,
scooby_state_55fe46b7b06a|7|1 3292,12,8,7,7,5,8,8,6,2,10,4,2,4,319,3694,
scooby_state_55fe46b7b06a|14|2 3226,10,11,7,6,9,8,3,3,5,8,9,5,7,349,3666,
scooby_state_55fe46b7b075|54|0 1683,28,26,25,20,20,21,23,21,22,22,1662,26,27,37,3663,
scooby_state_55fe46b7b06a|60|1 3215,17,8,5,7,8,8,4,10,8,3,5,3,3,355,3659,
scooby_state_55fe46b7b06a|52|1 3201,11,10,13,9,7,9,3,5,3,5,1,7,4,355,3643,
scooby_state_55fe46b7b06a|48|2 3171,11,19,6,10,9,1,3,6,7,6,7,3,6,373,3638,
scooby_state_55fe46b7b06a|15|2 3217,6,10,9,7,7,2,2,5,6,6,6,3,4,346,3636,
scooby_state_55fe46b7b06a|27|1 3275,10,11,8,10,3,6,9,3,4,1,6,4,3,269,3622,
scooby_state_55fe46b7b06a|49|2 3163,14,12,5,5,4,7,5,4,4,6,6,8,4,349,3596,
scooby_state_55fe46b7b06a|36|1 3215,10,5,11,4,11,11,5,2,5,2,4,6,3,299,3593,
scooby_state_55fe46b7b06a|13|2 3132,9,16,9,9,5,6,5,7,4,2,10,10,3,355,3582,
scooby_state_55fe46b7b06a|58|2 3057,11,9,11,9,4,14,4,4,3,2,6,3,5,419,3561,
scooby_state_55fe46b7b06a|7|2 3117,16,17,9,7,9,5,2,4,5,2,4,3,3,354,3557,
scooby_state_55fe46b7b06a|35|1 3198,6,9,9,11,8,5,2,4,2,3,5,5,3,286,3556,
scooby_state_55fe46b7b06a|5|3 3162,11,15,10,7,6,6,5,1,5,7,5,4,11,297,3552,
scooby_state_55fe46b7b06a|57|2 3089,4,16,11,10,7,3,3,5,5,6,4,3,7,373,3546,
scooby_state_55fe46b7b06a|23|2 3141,5,7,8,11,8,1,3,3,7,2,10,6,6,296,3514,
scooby_state_55fe46b7b06a|16|2 3108,10,8,8,2,6,5,4,5,3,5,5,4,5,324,3502,
scooby_state_55fe46b7b06a|22|2 3066,11,18,9,5,4,5,2,5,3,4,3,7,3,347,3492,
scooby_state_55fe46b7b06a|3|2 3011,5,16,8,8,11,4,6,5,8,9,6,6,8,374,3485,
scooby_state_55fe46b7b06a|45|2 3085,11,11,7,11,9,4,5,4,2,4,5,6,5,314,3483,
scooby_state_55fe46b7b06a|56|2 3008,8,14,9,10,6,5,10,6,2,1,10,3,8,362,3462,
scooby_state_55fe46b7b06a|41|2 3020,16,8,9,5,5,3,4,6,7,7,9,2,2,345,3448,
scooby_state_55fe46b7b06a|9|2 3019,16,6,7,10,3,7,2,5,1,2,4,5,5,350,3442,
scooby_state_55fe46b7b06a|62|2 2967,10,8,8,7,4,4,5,6,6,5,11,1,2,382,3426,
scooby_state_55fe46b7b06a|12|2 3007,13,15,8,10,6,6,6,5,3,2,6,4,7,319,3417,
scooby_state_55fe46b7b06a|52|2 3001,12,11,11,5,9,8,8,5,4,1,6,6,3,317,3407,
scooby_state_55fe46b7b06a|49|4 3006,18,9,6,5,9,9,11,4,9,6,3,6,7,294,3402,
scooby_state_55fe46b7b06a|21|2 3035,7,16,8,9,3,5,5,5,2,4,6,1,5,287,3398,
scooby_state_55fe46b7b06a|50|2 2940,13,15,13,6,5,5,6,4,7,4,6,9,4,343,3380,
scooby_state_55fe46b7b06a|4|2 2919,6,6,7,3,13,7,4,8,3,4,6,2,6,364,3358,
scooby_state_55fe46b7b06a|30|2 3003,6,8,4,6,5,8,4,4,6,3,1,3,5,285,3351,
scooby_state_55fe46b7b06a|35|2 2958,10,12,5,7,4,5,3,10,3,6,7,3,2,304,3339,
scooby_state_55fe46b7b06a|40|2 2954,10,8,4,5,7,5,5,4,5,7,8,6,3,303,3334,
scooby_state_55fe46b7b06a|19|2 2946,13,15,10,9,3,6,3,3,3,4,2,5,3,308,3333,
scooby_state_55fe46b7b06a|30|3 2964,8,18,7,5,5,6,4,5,3,3,1,6,5,279,3319,
scooby_state_55fe46b7b06a|31|2 2964,18,13,4,7,4,3,8,1,3,3,5,5,4,277,3319,
scooby_state_55fe46b7b06a|25|2 2927,15,9,5,6,5,5,4,1,6,6,15,2,5,289,3300,
scooby_state_55fe46b7b06a|46|2 2891,12,14,8,6,4,6,2,5,5,3,4,4,6,319,3289,
scooby_state_55fe46b7b06a|29|2 2919,12,12,10,9,5,2,3,5,3,1,5,7,3,279,3275,
scooby_state_55fe46b7b06a|43|2 2866,9,15,11,5,3,2,4,5,3,0,4,4,2,333,3266,
scooby_state_55fe46b7b06a|22|3 2851,9,15,9,9,4,11,4,7,4,6,3,8,1,319,3260,
scooby_state_55fe46b7b06a|15|3 2860,6,19,9,6,6,7,4,5,5,6,3,8,7,305,3256,
scooby_state_55fe46b7b06a|55|2 2844,11,11,2,6,7,6,4,3,5,3,3,4,2,341,3252,
scooby_state_55fe46b7b06a|33|2 2871,10,12,3,10,8,6,8,6,6,5,6,7,4,273,3235,
scooby_state_55fe46b7b06a|24|2 2855,8,16,10,13,8,8,10,5,5,3,3,3,4,282,3233,
scooby_state_55fe46b7b06a|27|2 2907,7,10,3,8,3,4,2,4,2,2,5,4,6,261,3228,
scooby_state_55fe46b7b06a|55|3 2772,8,21,13,5,9,10,3,4,7,5,6,6,10,344,3223,
scooby_state_55fe46b7b093|31|0 2650,42,42,38,37,34,40,40,38,39,36,42,45,37,62,3222,
scooby_state_55fe46b7b06a|57|3 2753,13,14,13,12,6,9,9,5,3,2,14,6,9,349,3217,
scooby_state_55fe46b7b06a|44|3 2764,13,10,10,6,9,9,10,8,5,7,7,5,6,318,3187,
scooby_state_55fe46b7b06a|18|2 2812,8,6,13,10,6,3,4,3,4,2,4,5,5,296,3181,
scooby_state_55fe46b7b06a|54|2 2758,16,12,5,6,6,7,4,5,4,3,6,2,6,335,3175,
scooby_state_55fe46b7b06a|63|2 2769,11,17,4,8,8,4,5,3,7,5,1,6,7,315,3170,
scooby_state_55fe46b7b06a|42|2 2832,10,7,3,4,8,5,2,3,6,0,4,4,4,269,3161,
scooby_state_55fe46b7b06a|11|3 2766,13,17,7,8,6,6,2,7,7,8,2,4,7,284,3144,
scooby_state_55fe46b7b06a|60|2 2721,10,16,14,11,7,4,3,5,3,4,3,7,7,316,3131,
scooby_state_55fe46b7b06a|46|3 2677,11,22,12,7,7,4,7,5,1,7,10,4,4,338,3116,
scooby_state_55fe46b7b06a|28|2 2769,7,14,3,7,4,4,6,7,4,7,6,4,2,269,3113,
scooby_state_55fe46b7b06a|10|2 2718,9,23,5,7,7,7,4,5,5,3,9,4,7,297,3110,
scooby_state_55fe46b7b06a|56|3 2683,9,10,11,9,11,6,8,5,4,6,6,14,1,323,3106,
scooby_state_55fe46b7b06a|43|3 2728,20,8,10,8,5,9,6,7,8,9,5,4,8,268,3103,
scooby_state_55fe46b7b06a|41|4 2744,12,7,8,5,11,7,6,4,6,2,3,13,6,267,3101,
scooby_state_55fe46b7b06a|36|2 2746,13,10,6,9,5,7,7,7,1,6,3,4,3,260,3087,
scooby_state_55fe46b7b06a|20|2 2746,5,11,8,7,2,6,3,2,5,3,6,12,7,263,3086,
scooby_state_55fe46b7b06a|49|3 2661,11,18,10,8,7,6,6,4,3,3,7,1,7,320,3072,
scooby_state_55fe46b7b06a|8|3 2688,5,12,9,5,9,7,4,10,2,8,6,8,4,290,3067,
scooby_state_55fe46b7b06a|8|2 2661,11,12,7,10,4,7,7,3,5,4,7,5,3,320,3066,
scooby_state_55fe46b7b06a|32|2 2702,8,12,3,10,4,5,2,1,5,2,7,7,6,283,3057,
scooby_state_55fe46b7b06a|44|2 2693,12,13,3,9,8,4,6,4,5,2,5,2,6,285,3057,
scooby_state_55fe46b7b06a|50|4 2698,8,9,11,10,12,3,3,8,2,3,6,5,7,254,3039,
scooby_state_55fe46b7b06a|35|3 2704,17,13,9,11,7,9,3,4,7,2,6,2,6,238,3038,
scooby_state_55fe46b7b06a|14|3 2666,6,15,10,8,7,5,4,3,6,6,1,9,6,279,3031,
scooby_state_55fe46b7b06a|21|3 2677,6,16,15,5,6,5,3,0,2,4,4,8,6,262,3019,
scooby_state_55fe46b7b06a|32|3 2672,10,13,10,4,11,2,5,2,3,2,4,7,6,259,3010,
scooby_state_55fe46b7b06a|59|2 2617,7,14,3,7,8,4,3,6,4,5,4,8,3,312,3005,
scooby_state_55fe46b7b06a|15|4 2670,9,5,12,4,6,10,0,2,8,4,10,8,5,251,3004,
scooby_state_55fe46b7b06a|11|6 2626,8,6,10,3,6,9,4,8,6,3,7,10,5,280,2991,
scooby_state_55fe46b7b06a|12|4 2609,12,8,7,13,8,10,3,5,3,8,7,8,4,285,2990,
scooby_state_55fe46b7b06a|25|3 2649,5,16,5,6,11,6,4,3,7,6,4,1,4,258,2985,
scooby_state_55fe46b7b06a|17|2 2633,13,7,2,9,6,4,3,1,2,4,8,4,1,285,2982,
scooby_state_55fe46b7b06a|63|6 2585,11,5,16,4,2,2,6,4,6,7,3,7,7,305,2970,
scooby_state_55fe46b7b06a|3|3 2574,12,14,6,11,9,4,4,6,2,2,9,7,5,300,2965,
scooby_state_55fe46b7b06a|33|3 2664,7,10,10,11,3,5,6,5,2,1,6,4,5,218,2957,
scooby_state_55fe46b7b06a|50|3 2556,9,13,10,7,8,8,9,7,11,6,7,6,2,291,2950,
scooby_state_55fe46b7b06a|43|6 2674,4,4,5,4,6,7,6,5,3,2,5,8,2,210,2945,
scooby_state_55fe46b7b06a|6|2 2588,10,10,4,6,6,1,3,2,4,2,10,1,0,294,2941,
scooby_state_55fe46b7b06a|7|4 2531,8,8,13,10,15,5,5,0,1,4,3,6,6,323,2938,
scooby_state_55fe46b7b06a|53|2 2562,9,14,8,7,9,4,5,4,4,1,5,2,4,289,2927,
scooby_state_55fe46b7b06a|61|2 2531,15,16,2,5,4,9,5,1,3,5,5,5,1,318,2925,
scooby_state_55fe46b7b06a|58|4 2558,8,8,11,16,8,2,7,3,8,2,9,3,4,276,2923,
scooby_state_55fe46b7b06a|26|2 2597,5,19,6,9,3,4,7,2,4,2,6,6,6,247,2923,
scooby_state_55fe46b7b06a|41|3 2585,9,12,10,12,3,11,5,4,2,2,5,3,5,255,2923,
scooby_state_55fe46b7b06a|34|2 2596,3,9,5,9,6,4,5,3,6,3,5,6,9,243,2912,
scooby_state_55fe46b7b06a|40|3 2613,12,9,11,9,7,4,5,3,7,9,6,4,8,201,2908,
scooby_state_55fe46b7b06a|60|3 2514,11,9,15,6,4,7,6,4,0,5,9,7,8,295,2900,
scooby_state_55fe46b7b06a|7|3 2497,11,21,17,8,3,6,6,3,3,1,7,6,7,303,2899,
scooby_state_55fe46b7b06a|54|3 2534,13,17,9,4,11,6,3,6,4,3,4,9,14,261,2898,
scooby_state_55fe46b7b06a|37|3 2547,6,16,8,15,10,8,11,3,6,7,4,1,5,245,2892,
scooby_state_55fe46b7b06a|47|2 2532,8,8,4,9,6,1,2,6,2,6,9,3,4,291,2891,
scooby_state_55fe46b7b06a|27|3 2588,8,13,8,7,7,8,5,8,3,1,6,4,5,218,2889,
scooby_state_55fe46b7b06a|12|3 2487,7,19,14,7,8,13,3,5,3,7,3,9,7,289,2881,
scooby_state_55fe46b7b06a|16|3 2523,14,15,8,8,8,8,3,3,2,4,8,4,6,265,2879,
scooby_state_55fe46b7b06a|43|4 2523,10,6,9,11,16,6,4,7,3,6,7,9,8,254,2879,
scooby_state_55fe46b7b06a|9|3 2501,9,17,12,9,8,8,5,5,3,8,9,3,4,275,2876,
scooby_state_55fe46b7b06a|59|3 2466,8,16,21,7,6,7,8,8,5,8,5,6,5,296,2872,
scooby_state_55fe46b7b06a|62|3 2421,8,14,8,10,12,8,5,5,7,4,7,5,3,350,2867,
scooby_state_55fe46b7b06a|26|3 2547,13,11,8,8,11,6,4,3,2,7,6,8,4,225,2863,
scooby_state_55fe46b7b06a|17|3 2511,16,12,12,8,10,5,6,4,3,2,1,5,5,258,2858,
scooby_state_55fe46b7b06a|31|3 2494,8,11,12,7,11,9,2,5,2,5,2,1,6,280,2855,
scooby_state_55fe46b7b06a|38|2 2530,8,4,6,5,5,4,3,4,2,1,3,5,2,268,2850,
scooby_state_55fe46b7b06a|5|4 2509,9,8,8,10,4,5,5,2,6,3,6,7,3,263,2848,
scooby_state_55fe46b7b06a|29|3 2514,11,10,12,4,5,9,3,4,3,4,7,4,4,251,2845,
scooby_state_55fe46b7b06a|57|8 2526,13,13,11,12,11,7,2,5,10,7,5,7,5,202,2836,
scooby_state_55fe46b7b06a|58|3 2444,14,12,9,11,9,11,9,6,5,4,4,2,3,290,2833,
scooby_state_55fe46b7b06a|48|3 2471,13,20,14,7,8,3,3,3,2,3,1,5,5,267,2825,
scooby_state_55fe46b7b06a|23|3 2463,6,17,15,9,9,9,2,3,5,5,3,5,2,271,2824,
scooby_state_55fe46b7b06a|61|4 2456,8,7,7,9,7,8,6,6,4,7,6,7,9,277,2824,
scooby_state_55fe46b7b06a|49|5 2439,11,10,4,9,7,6,4,3,2,6,2,4,4,299,2810,
scooby_state_55fe46b7b06a|55|6 2427,8,7,9,6,3,6,10,4,4,5,8,9,0,303,2809,
scooby_state_55fe46b7b06a|18|3 2498,7,9,8,5,7,10,1,3,5,6,5,7,7,230,2808,
scooby_state_55fe46b7b06a|47|3 2470,5,13,10,9,6,4,6,3,6,3,6,3,4,260,2808,
scooby_state_55fe46b7b06a|11|5 2485,8,10,2,2,12,6,8,1,2,4,5,2,7,235,2789,
scooby_state_55fe46b7b06a|16|4 2404,7,8,10,9,8,6,3,4,4,3,5,10,4,304,2789,
scooby_state_55fe46b7b06a|63|3 2392,14,14,8,15,9,7,4,4,3,5,8,8,8,285,2784,
scooby_state_55fe46b7b06a|54|4 2406,5,7,10,7,12,7,3,6,5,6,3,9,7,285,2778,
scooby_state_55fe46b7b06a|24|3 2466,5,12,9,8,3,5,5,5,4,2,2,4,4,238,2772,
scooby_state_55fe46b7b06a|28|3 2446,12,8,9,11,7,8,6,3,2,2,7,4,6,237,2768,
scooby_state_55fe46b7b06a|51|3 2397,12,11,13,6,6,4,6,4,5,4,7,8,3,276,2762,
scooby_state_55fe46b7b06a|38|3 2369,11,15,9,11,5,4,5,1,7,4,1,5,10,291,2748,
scooby_state_55fe46b7b06a|46|5 2419,3,10,8,7,10,6,7,7,3,8,4,7,6,242,2747,
scooby_state_55fe46b7b06a|13|3 2405,9,11,8,6,5,10,4,3,2,3,6,4,1,256,2733,
scooby_state_55fe46b7b06a|11|4 2399,4,9,7,8,9,6,3,4,6,3,6,5,3,261,2733,
scooby_state_55fe46b7b06a|45|4 2429,8,4,4,6,8,9,6,5,3,5,4,8,6,222,2727,
scooby_state_55fe46b7b06a|4|3 2343,10,20,11,8,7,6,4,6,6,5,1,5,7,288,2727,
scooby_state_55fe46b7b06a|19|3 2392,9,14,10,7,5,9,5,5,2,7,6,4,3,248,2726,
scooby_state_55fe46b7b06a|42|5 2388,4,11,11,5,8,9,4,3,6,5,4,4,5,255,2722,
scooby_state_55fe46b7b06a|20|4 2374,9,7,10,8,12,3,2,3,2,0,5,6,4,274,2719,
scooby_state_55fe46b7b06a|14|4 2390,6,6,4,4,8,10,4,2,5,3,3,9,5,259,2718,
scooby_state_55fe46b7b06a|53|3 2360,11,8,8,9,7,2,5,2,1,6,6,1,5,286,2717,
scooby_state_55fe46b7b06a|61|3 2322,12,15,9,10,14,13,7,6,6,2,9,3,6,271,2705,
scooby_state_55fe46b7b06a|37|4 2405,9,10,6,8,11,5,0,7,4,0,5,6,7,221,2704,
scooby_state_55fe46b7b06a|29|4 2401,8,8,14,7,4,6,4,4,3,5,4,7,3,223,2701,
scooby_state_55fe46b7b06a|13|4 2364,8,6,3,7,10,10,4,5,2,1,4,8,3,262,2697,
scooby_state_55fe46b7b06a|32|4 2400,10,3,8,9,10,5,2,4,4,8,5,10,6,210,2694,
scooby_state_55fe46b7b06a|12|7 2393,8,9,5,10,13,6,3,4,8,4,6,9,8,187,2673,
scooby_state_55fe46b7b06a|37|5 2359,4,6,16,5,6,7,7,6,4,2,2,7,3,225,2659,
scooby_state_55fe46b7b06a|53|4 2306,12,13,5,7,11,7,3,6,3,5,5,9,4,259,2655,
scooby_state_55fe46b7b06a|27|4 2389,8,7,9,5,5,3,3,3,3,3,1,6,4,205,2654,
scooby_state_55fe46b7b06a|20|3 2344,4,10,8,7,2,13,4,3,4,0,5,1,4,239,2648,
scooby_state_55fe46b7b06a|42|4 2321,5,10,8,5,10,6,3,3,4,4,5,5,2,257,2648,
scooby_state_55fe46b7b06a|36|3 2341,10,16,6,6,7,8,1,7,6,5,6,2,7,213,2641,
scooby_state_55fe46b7b06a|43|5 2356,9,4,6,4,13,8,3,6,0,4,6,2,2,215,2638,
scooby_state_55fe46b7b06a|52|3 2236,13,19,4,11,6,6,3,6,5,7,7,6,6,300,2635,
scooby_state_55fe46b7b06a|8|4 2263,13,8,9,7,13,6,7,7,3,4,5,7,6,273,2631,
scooby_state_55fe46b7b06a|17|4 2332,9,4,4,6,7,6,3,4,3,5,4,8,7,217,2619,
scooby_state_55fe46b7b06a|42|3 2281,6,17,9,11,3,5,7,2,4,7,3,7,2,252,2616,
scooby_state_55fe46b7b06a|27|5 2295,4,7,7,4,11,4,5,0,2,3,3,0,7,261,2613,
scooby_state_55fe46b7b06a|19|4 2307,7,5,5,6,3,8,1,1,4,4,8,6,6,235,2606,
scooby_state_55fe46b7b06a|39|4 2289,9,5,7,9,4,6,1,8,9,4,7,1,3,244,2606,
scooby_state_55fe46b7b06a|25|4 2292,9,8,8,9,9,1,5,3,6,7,6,3,1,224,2591,
scooby_state_55fe46b7b06a|6|3 2245,8,14,4,6,6,6,4,3,3,3,7,6,4,265,2584,
scooby_state_55fe46b7b06a|34|3 2270,15,9,10,9,4,7,9,3,2,3,4,2,4,232,2583,
scooby_state_55fe46b7b06a|45|3 2265,10,17,4,9,7,6,4,6,2,1,3,3,6,239,2582,
scooby_state_55fe46b7b06a|19|5 2246,12,8,10,7,6,4,6,4,3,6,6,5,3,237,2563,
scooby_state_55fe46b7b06a|12|5 2228,5,8,10,1,6,9,3,1,2,5,4,8,4,261,2555,
scooby_state_55fe46b7b06a|31|4 2259,7,3,3,9,4,2,4,6,4,3,7,3,12,228,2554,
scooby_state_55fe46b7b06a|19|6 2267,4,8,8,6,3,5,3,2,3,2,4,6,5,228,2554,
scooby_state_55fe46b7b06a|10|3 2239,14,14,10,5,5,4,7,2,3,4,2,4,0,238,2551,
scooby_state_55fe46b7b06a|57|4 2243,10,4,7,5,10,3,3,3,3,2,6,6,9,229,2543,
scooby_state_55fe46b7b06a|56|7 2150,16,16,14,12,12,10,7,9,9,6,9,11,12,247,2540,
scooby_state_55fe46b7b06a|26|5 2261,4,5,8,4,8,6,1,1,1,4,3,1,3,225,2535,
scooby_state_55fe46b7b06a|46|4 2243,3,4,5,10,12,3,1,6,6,5,4,7,7,216,2532,
scooby_state_55fe46b7b06a|9|4 2211,8,8,1,4,3,7,6,2,10,4,2,6,3,246,2521,
scooby_state_55fe46b7b06a|37|6 2220,6,5,9,4,4,6,1,1,3,3,3,3,5,236,2509,
scooby_state_55fe46b7b06a|6|4 2167,8,9,8,11,5,5,3,3,1,5,4,11,4,264,2508,
scooby_state_55fe46b7b06a|10|5 2208,9,6,7,1,10,2,0,5,2,1,5,8,4,240,2508,
scooby_state_55fe46b7b06a|60|4 2143,6,6,5,3,6,6,2,7,2,2,6,3,11,289,2497,
scooby_state_55fe46b7b06a|44|4 2226,10,9,8,13,10,5,4,2,3,4,3,5,5,186,2493,
scooby_state_55fe46b7b06a|56|4 2140,9,7,4,5,7,15,8,6,3,2,5,5,2,271,2489,
scooby_state_55fe46b7b06a|39|3 2173,7,15,13,7,6,5,4,4,5,3,6,6,6,228,2488,
scooby_state_55fe46b7b06a|48|4 2144,8,5,8,10,10,4,5,4,0,11,6,7,9,255,2486,
scooby_state_55fe46b7b06a|63|4 2087,7,9,12,7,12,6,5,10,4,5,8,12,7,294,2485,
scooby_state_55fe46b7b06a|32|5 2229,6,9,4,3,4,8,4,0,2,0,4,2,4,204,2483,
scooby_state_55fe46b7b06a|25|5 2211,5,5,11,7,8,5,3,3,4,3,3,0,4,203,2475,
scooby_state_55fe46b7b06a|35|5 2179,4,7,6,3,8,3,2,1,3,2,5,6,3,242,2474,
scooby_state_55fe46b7b06a|18|4 2183,7,8,4,6,7,5,3,5,5,6,2,9,8,215,2473,
scooby_state_55fe46b7b06a|10|4 2166,11,3,7,7,4,5,3,3,6,5,3,4,4,241,2472,
scooby_state_55fe46b7b06a|17|6 2155,9,12,9,1,9,10,4,2,0,1,6,6,3,237,2464,
scooby_state_55fe46b7b06a|21|4 2150,8,6,7,6,11,5,3,1,7,8,5,10,6,228,2461,
scooby_state_55fe46b7b06a|30|5 2170,12,10,7,6,4,2,3,0,5,4,6,2,5,224,2460,
scooby_state_55fe46b7b06a|52|4 2107,8,6,11,10,11,4,9,4,1,7,5,12,4,260,2459,
scooby_state_55fe46b7b06a|13|5 2145,4,10,5,7,9,7,2,3,2,7,4,4,5,239,2453,
scooby_state_55fe46b7b06a|47|4 2124,10,7,6,7,13,4,2,1,8,2,10,9,2,247,2452,
scooby_state_55fe46b7b06a|62|5 2098,10,8,11,3,10,4,4,5,3,4,4,2,5,277,2448,
scooby_state_55fe46b7b06a|55|4 2128,6,4,11,6,5,4,2,4,3,3,4,9,6,251,2446,
scooby_state_55fe46b7b06a|23|4 2161,10,9,5,9,4,5,4,4,4,4,4,7,1,211,2442,
scooby_state_55fe46b7b06a|33|5 2143,3,9,14,3,5,6,2,4,4,4,4,6,2,224,2433,
scooby_state_55fe46b7b06a|63|7 2074,19,14,8,11,7,15,3,11,6,4,4,11,13,231,2431,
scooby_state_55fe46b7b06a|15|6 2153,3,4,8,7,7,3,4,2,5,3,2,5,5,211,2422,
scooby_state_55fe46b7b06a|44|6 2140,11,3,10,7,5,10,5,4,2,4,9,6,2,202,2420,
scooby_state_55fe46b7b06a|8|5 2077,2,5,19,4,8,5,5,4,2,5,7,5,1,264,2413,
scooby_state_55fe46b7b06a|38|4 2149,8,4,7,9,6,5,2,2,4,2,3,8,1,199,2409,
scooby_state_55fe46b7b06a|20|5 2103,6,7,6,6,10,7,2,1,4,5,1,5,4,238,2405,
scooby_state_55fe46b7b06a|17|5 2122,4,5,6,1,13,5,4,3,3,8,3,5,5,212,2399,
scooby_state_55fe46b7b06a|61|5 2060,12,7,8,4,9,4,5,2,5,2,3,3,5,263,2392,
scooby_state_55fe46b7b06a|33|4 2061,8,4,10,8,8,9,5,4,3,3,7,6,4,243,2383,
scooby_state_55fe46b7b06a|11|7 2078,10,14,5,10,10,6,7,6,6,2,4,5,10,208,2381,
scooby_state_55fe46b7b06a|60|5 2024,1,5,11,9,9,10,2,5,4,4,2,2,7,286,2381,
scooby_state_55fe46b7b06a|38|5 2106,5,12,8,3,6,3,4,1,1,3,1,6,4,217,2380,
scooby_state_55fe46b7b06a|16|5 2097,4,6,8,5,11,4,4,6,7,1,2,7,2,203,2367,
scooby_state_55fe46b7b06a|22|4 2088,5,2,5,5,7,5,2,6,5,2,6,5,4,210,2357,
scooby_state_55fe46b7b06a|28|6 2067,8,7,10,5,5,6,3,4,1,0,4,1,1,235,2357,
scooby_state_55fe46b7b09e|53|-1 2014,30,24,28,26,21,20,20,19,18,20,22,29,29,35,2355,
scooby_state_55fe46b7b06a|22|5 2045,10,6,7,3,8,3,3,1,4,1,5,4,5,249,2354,
scooby_state_55fe46b7b06a|29|5 2094,5,7,8,3,10,4,1,1,2,5,4,0,3,203,2350,
scooby_state_55fe46b7b06a|54|6 2046,7,5,8,2,3,6,5,4,2,3,5,6,2,244,2348,
scooby_state_55fe46b7b06a|54|5 2035,8,4,8,4,5,7,1,2,2,4,6,4,2,253,2345,
scooby_state_55fe46b7b06a|55|5 2031,8,4,4,6,6,5,2,4,5,4,7,5,6,246,2343,
scooby_state_55fe46b7b06a|49|6 2048,10,7,10,7,0,4,6,3,5,3,4,3,2,229,2341,
scooby_state_55fe46b7b06a|44|7 2042,9,10,4,7,8,10,9,4,3,5,2,8,15,198,2334,
scooby_state_55fe46b7b06a|63|5 1998,7,5,7,7,5,6,3,5,3,3,5,6,4,269,2333,
scooby_state_55fe46b7b06a|7|5 2017,10,12,12,6,7,4,2,6,1,2,1,2,2,246,2330,
scooby_state_55fe46b7b06a|25|6 2059,7,4,7,3,8,3,3,3,4,5,4,2,1,214,2327,
scooby_state_55fe46b7b06a|51|4 2006,6,5,10,7,10,4,3,6,3,3,9,5,5,236,2318,
scooby_state_55fe46b7b06a|28|4 2042,5,5,7,8,6,7,5,0,4,3,3,5,6,209,2315,
scooby_state_55fe46b7b06a|30|4 2045,11,2,9,6,11,6,3,3,3,0,3,8,7,194,2311,
scooby_state_55fe46b7b06a|18|5 2047,5,4,6,7,5,12,3,0,0,7,1,4,4,205,2310,
scooby_state_55fe46b7b06a|5|5 2002,6,8,10,5,6,4,6,8,2,4,3,5,4,237,2310,
scooby_state_55fe46b7b06a|62|4 1955,7,9,6,6,11,4,8,3,3,2,8,9,4,273,2308,
scooby_state_55fe46b7b06a|26|4 1971,10,4,9,8,13,3,5,3,2,6,4,6,4,259,2307,
scooby_state_55fe46b7b06a|4|4 1966,6,6,12,8,11,5,5,3,1,4,1,7,7,265,2307,
scooby_state_55fe46b7b06a|14|5 1996,6,8,6,4,2,8,4,4,3,2,5,5,3,236,2292,
scooby_state_55fe46b7b06a|31|5 2004,4,10,6,6,8,5,3,5,6,3,2,5,3,222,2292,
scooby_state_55fe46b7b06a|9|6 1994,6,6,7,2,6,2,1,4,4,2,3,4,6,233,2280,
scooby_state_55fe46b7b06a|58|5 1965,10,8,6,2,6,6,6,3,5,3,9,3,7,240,2279,
scooby_state_55fe46b7b06a|56|6 1987,6,7,12,7,2,1,6,3,2,2,4,1,3,235,2278,
scooby_state_55fe46b7b06a|57|7 1976,13,13,11,9,13,3,6,3,6,2,7,3,11,202,2278,
scooby_state_55fe46b7b06a|23|7 2001,9,12,12,6,13,8,4,6,5,4,7,5,11,169,2272,
scooby_state_55fe46b7b06a|35|4 1997,14,6,4,5,8,2,5,3,4,4,5,6,2,205,2270,
scooby_state_55fe46b7b06a|46|13 2089,7,5,10,11,5,7,9,3,0,2,6,8,6,102,2270,
scooby_state_55fe46b7b06a|49|7 1982,12,8,9,5,15,8,3,5,9,8,9,11,13,166,2263,
scooby_state_55fe46b7b06a|18|7 1986,9,10,6,7,4,4,6,6,4,2,5,6,12,193,2260,
scooby_state_55fe46b7b06a|45|5 1965,3,11,10,6,10,4,3,3,2,4,5,5,3,211,2245,
scooby_state_55fe46b7b06a|36|4 1910,12,6,9,5,13,8,7,4,3,8,6,9,5,228,2233,
scooby_state_55fe46b7b06a|59|4 1881,12,7,7,9,5,8,1,9,1,4,4,10,4,269,2231,
scooby_state_55fe46b7b06a|50|6 1937,9,10,9,3,3,4,5,5,1,3,7,4,4,220,2224,
scooby_state_55fe46b7b06a|13|6 1968,6,4,6,2,3,4,1,2,5,2,9,3,3,204,2222,
scooby_state_55fe46b7b06a|41|6 1959,4,2,6,4,3,4,3,6,1,2,4,3,8,209,2218,
scooby_state_55fe46b7b06a|13|8 1938,9,9,11,11,12,7,2,5,6,5,7,5,3,186,2216,
scooby_state_55fe46b7b06a|26|6 1937,10,3,13,2,6,3,5,0,3,0,4,3,7,218,2214,
scooby_state_55fe46b7b06a|44|5 1917,12,5,9,2,4,5,5,4,2,3,1,2,5,237,2213,
scooby_state_55fe46b7b06a|56|5 1918,8,8,10,3,5,6,2,4,3,1,3,2,2,236,2211,
scooby_state_55fe46b7b06a|41|5 1929,7,8,7,3,11,4,2,5,4,4,3,1,1,221,2210,
scooby_state_55fe46b7b06a|24|4 1967,5,10,5,4,6,7,3,4,2,3,4,4,4,172,2200,
scooby_state_55fe46b7b06a|62|6 1854,7,9,12,3,11,6,4,4,4,2,6,6,3,269,2200,
scooby_state_55fe46b7b06a|28|5 1947,7,5,7,2,3,1,1,4,1,2,1,0,5,213,2199,
scooby_state_55fe46b7b06a|19|7 1920,12,10,6,12,6,6,4,3,11,3,5,6,5,183,2192,
scooby_state_55fe46b7b06a|26|7 1901,10,12,8,7,10,4,8,6,8,3,10,3,12,190,2192,
scooby_state_55fe46b7b06a|40|5 1930,8,5,9,4,9,2,5,4,4,2,3,2,1,204,2192,
scooby_state_55fe46b7b06a|50|7 1907,13,12,8,15,5,9,5,3,6,5,6,8,6,182,2190,
scooby_state_55fe46b7b06a|13|7 1939,7,11,4,9,8,3,4,6,1,4,2,5,10,172,2185,
scooby_state_55fe46b7b06a|48|5 1902,10,9,3,2,10,5,2,3,4,3,2,4,4,221,2184,
scooby_state_55fe46b7b06a|55|8 1928,9,10,5,6,7,7,4,5,5,4,5,2,2,183,2182,
scooby_state_55fe46b7b06a|8|6 1883,11,4,10,6,0,3,1,5,5,5,4,0,2,242,2181,
scooby_state_55fe46b7b06a|31|6 1943,13,7,4,0,4,5,0,3,4,1,3,7,9,174,2177,
scooby_state_55fe46b7b06a|21|6 1899,6,4,11,4,7,5,5,5,3,0,7,3,4,207,2170,
scooby_state_55fe46b7b06a|22|6 1875,5,14,8,3,5,1,6,1,4,3,4,7,4,226,2166,
scooby_state_55fe46b7b06a|22|8 1917,9,9,3,7,6,4,5,1,4,5,4,3,12,176,2165,
scooby_state_55fe46b7b06a|14|7 1934,10,6,5,6,3,10,5,8,4,3,4,3,9,147,2157,
scooby_state_55fe46b7b06a|7|6 1863,3,1,10,4,5,6,5,5,7,2,2,5,4,233,2155,
scooby_state_55fe46b7b06a|52|6 1889,6,1,8,0,5,5,5,0,3,4,4,0,2,220,2152,
scooby_state_55fe46b7b06a|36|5 1879,3,2,5,5,8,7,2,3,1,2,2,4,5,220,2148,
scooby_state_55fe46b7b06a|9|5 1888,4,7,8,4,12,3,2,1,2,5,4,1,2,203,2146,
scooby_state_55fe46b7b06a|27|8 1895,11,10,9,4,3,3,3,3,5,3,1,8,7,179,2144,
scooby_state_55fe46b7b06a|46|6 1903,4,10,12,4,2,8,4,2,1,2,8,4,2,177,2143,
scooby_state_55fe46b7b06a|21|5 1866,5,5,4,2,11,7,6,4,2,3,4,5,3,215,2142,
scooby_state_55fe46b7b06a|39|5 1892,5,7,7,6,8,6,5,4,3,2,5,0,6,177,2133,
scooby_state_55fe46b7b06a|47|6 1849,8,8,6,5,3,4,5,4,6,3,2,8,4,215,2130,
scooby_state_55fe46b7b06a|12|9 1837,5,14,9,13,7,4,3,5,7,3,4,8,4,204,2127,
scooby_state_55fe46b7b06a|40|4 1874,4,4,4,7,9,3,3,1,3,1,4,7,3,195,2122,
scooby_state_55fe46b7b06a|20|8 1854,7,15,7,9,7,8,0,4,3,6,3,7,5,184,2119,
scooby_state_55fe46b7b06a|52|5 1841,4,9,7,4,4,2,0,1,5,5,2,2,5,226,2117,
scooby_state_55fe46b7b06a|19|8 1889,12,3,8,7,5,8,3,5,3,3,6,9,6,148,2115,
scooby_state_55fe46b7b06a|10|8 1820,10,15,8,5,5,4,12,5,9,4,4,4,7,190,2102,
scooby_state_55fe46b7b06a|34|4 1859,6,11,9,4,3,0,3,6,3,6,3,2,3,182,2100,
scooby_state_55fe46b7b06a|15|11 1924,3,5,4,6,3,4,3,4,3,1,2,2,2,122,2088,
scooby_state_55fe46b7b06a|37|7 1844,7,9,10,6,2,5,4,4,6,10,4,5,10,159,2085,
scooby_state_55fe46b7b06a|23|5 1823,4,6,10,10,7,4,2,3,2,3,4,1,4,195,2078,
scooby_state_55fe46b7b06a|50|5 1808,7,7,8,4,8,1,5,2,6,3,1,5,3,208,2076,
scooby_state_55fe46b7b06a|32|6 1834,12,6,7,5,3,3,0,3,1,5,2,5,7,183,2076,
scooby_state_55fe46b7b06a|15|5 1803,7,4,6,5,7,6,2,3,4,0,1,4,2,205,2059,
scooby_state_55fe46b7b06a|9|7 1800,13,11,6,7,6,9,8,9,4,3,7,6,7,162,2058,
scooby_state_55fe46b7b06a|57|6 1815,10,6,6,5,3,6,1,6,1,4,4,9,4,177,2057,
scooby_state_55fe46b7b000|47|1 2044,0,0,1,0,0,0,0,0,1,2,0,0,0,0,2048,
scooby_state_55fe46b7b000|19|1 2046,1,0,0,0,0,0,0,0,0,0,0,0,1,0,2048,
scooby_state_55fe46b7b000|21|1 2045,0,0,0,1,0,1,1,0,0,0,0,0,0,0,2048,
scooby_state_55fe46b7b000|58|1 2040,0,0,1,0,1,0,1,1,0,1,2,1,0,0,2048,
scooby_state_55fe46b7b000|3|1 2044,0,1,0,0,0,0,2,1,0,0,0,0,0,0,2048,
scooby_state_55fe46b7b000|57|1 2045,1,0,0,0,0,0,0,0,0,0,0,1,0,1,2048,
scooby_state_55fe46b7b000|37|1 2043,1,0,0,0,1,1,0,0,1,0,0,0,0,1,2048,
scooby_state_55fe46b7b000|60|1 2047,0,0,0,0,0,0,0,0,0,0,0,0,1,0,2048,
scooby_state_55fe46b7b000|62|1 2045,0,0,0,1,0,0,1,0,0,1,0,0,0,0,2048,
scooby_state_55fe46b7b000|50|1 2045,0,0,1,0,0,1,0,0,1,0,0,0,0,0,2048,
scooby_state_55fe46b7b000|63|1 2046,0,0,1,0,0,0,0,0,0,0,0,1,0,0,2048,
scooby_state_55fe46b7b000|44|1 2041,0,0,1,2,0,0,0,0,0,0,0,1,0,3,2048,
scooby_state_55fe46b7b000|30|1 2043,1,0,0,0,0,0,0,0,2,0,0,0,2,0,2048,
scooby_state_55fe46b7b000|0|0 2044,1,0,1,0,1,0,0,0,0,0,0,1,0,0,2048,
scooby_state_55fe46b7b000|5|1 2047,0,0,0,0,0,0,0,0,0,0,0,0,1,0,2048,
scooby_state_55fe46b7b000|48|1 2046,0,0,1,0,0,0,0,0,0,0,1,0,0,0,2048,
scooby_state_55fe46b7b000|45|1 2044,0,0,0,0,0,1,1,1,1,0,0,0,0,0,2048,
scooby_state_55fe46b7b000|27|1 2044,0,0,0,1,0,0,2,0,0,0,0,1,0,0,2048,
scooby_state_55fe46b7b000|18|1 2047,0,0,0,0,0,0,0,0,1,0,0,0,0,0,2048,
scooby_state_55fe46b7b000|34|1 2044,0,0,0,0,0,0,1,0,1,0,0,1,0,1,2048,
scooby_state_55fe46b7b000|39|1 2042,1,2,0,0,0,1,0,0,0,0,0,0,1,1,2048,
scooby_state_55fe46b7b000|4|1 2044,0,0,0,0,0,0,1,0,0,1,1,0,1,0,2048,
scooby_state_55fe46b7b000|55|1 2042,0,1,1,0,0,0,1,1,0,1,0,1,0,0,2048,
scooby_state_55fe46b7b000|32|1 2044,1,1,1,0,0,0,0,0,0,0,0,0,0,1,2048,
scooby_state_55fe46b7b000|54|1 2045,1,0,0,0,0,0,0,1,0,1,0,0,0,0,2048,
scooby_state_55fe46b7b000|42|1 2046,0,1,0,1,0,0,0,0,0,0,0,0,0,0,2048,
scooby_state_55fe46b7b000|43|1 2044,0,0,0,1,0,1,1,0,0,0,0,1,0,0,2048,
scooby_state_55fe46b7b000|59|1 2044,0,1,0,0,0,0,1,0,0,0,1,1,0,0,2048,
scooby_state_55fe46b7b000|15|1 2045,0,0,0,1,1,0,0,0,0,1,0,0,0,0,2048,
scooby_state_55fe46b7b000|46|1 2044,0,0,0,0,1,0,2,0,0,1,0,0,0,0,2048,
scooby_state_55fe46b7b000|23|1 2045,0,0,0,1,1,0,0,0,0,0,0,0,0,1,2048,
scooby_state_55fe46b7b000|49|1 2047,0,0,0,1,0,0,0,0,0,0,0,0,0,0,2048,
scooby_state_55fe46b7b000|9|1 2043,1,0,0,0,0,1,2,0,0,1,0,0,0,0,2048,
scooby_state_55fe46b7b000|7|1 2046,0,0,0,1,0,0,0,0,0,0,0,0,1,0,2048,
scooby_state_55fe46b7b000|1|1 2043,0,0,1,1,0,0,1,0,0,1,1,0,0,0,2048,
scooby_state_55fe46b7b000|51|1 2044,0,0,0,1,0,0,0,1,1,0,0,0,0,1,2048,
scooby_state_55fe46b7b000|52|1 2047,0,0,0,1,0,0,0,0,0,0,0,0,0,0,2048,
scooby_state_55fe46b7b000|25|1 2044,1,0,0,1,0,1,0,1,0,0,0,0,0,0,2048,
scooby_state_55fe46b7b000|31|1 2039,0,0,2,1,1,1,0,0,0,0,1,1,1,1,2048,
scooby_state_55fe46b7b000|24|1 2046,0,0,0,0,1,0,0,0,0,1,0,0,0,0,2048,
scooby_state_55fe46b7b000|33|1 2045,0,0,0,0,0,0,1,0,0,0,0,1,0,1,2048,
scooby_state_55fe46b7b000|26|1 2044,1,1,0,0,0,0,0,0,1,1,0,0,0,0,2048,
scooby_state_55fe46b7b000|11|1 2047,0,0,0,0,0,0,0,0,0,0,0,0,0,1,2048,
scooby_state_55fe46b7b000|2|1 2043,1,0,0,1,2,0,0,0,0,0,1,0,0,0,2048,
scooby_state_55fe46b7b000|14|1 2044,0,0,1,1,1,0,0,0,0,0,0,0,0,1,2048,
scooby_state_55fe46b7b000|28|1 2043,1,0,0,0,0,0,0,0,0,0,1,0,0,3,2048,
scooby_state_55fe46b7b000|20|1 2047,0,0,0,0,0,1,0,0,0,0,0,0,0,0,2048,
scooby_state_55fe46b7b000|61|1 2045,0,0,0,0,0,0,0,1,0,0,1,1,0,0,2048,
scooby_state_55fe46b7b000|40|1 2046,0,0,0,0,0,0,1,0,0,0,0,0,0,1,2048,
scooby_state_55fe46b7b000|36|1 2043,0,0,2,1,0,0,0,1,0,0,0,0,0,1,2048,
scooby_state_55fe46b7b000|29|1 2043,0,0,0,0,2,0,0,0,0,0,1,0,0,2,2048,
scooby_state_55fe46b7b000|17|1 2045,0,0,0,1,0,0,0,1,1,0,0,0,0,0,2048,
scooby_state_55fe46b7b000|12|1 2044,0,0,0,1,1,2,0,0,0,0,0,0,0,0,2048,
scooby_state_55fe46b7b000|56|1 2046,1,0,0,0,0,0,0,1,0,0,0,0,0,0,2048,
scooby_state_55fe46b7b000|35|1 2047,0,0,0,0,0,0,0,0,0,0,0,0,0,1,2048,
scooby_state_55fe46b7b000|41|1 2047,0,0,0,0,0,0,0,0,0,0,0,0,0,1,2048,
scooby_state_55fe46b7b000|22|1 2041,0,0,3,0,1,0,1,0,1,0,0,0,1,0,2048,
scooby_state_55fe46b7b000|16|1 2045,0,0,0,1,0,0,0,1,1,0,0,0,0,0,2048,
scooby_state_55fe46b7b000|10|1 2045,0,0,0,1,0,1,0,1,0,0,0,0,0,0,2048,
scooby_state_55fe46b7b000|38|1 2044,1,0,0,1,2,0,0,0,0,0,0,0,0,0,2048,
scooby_state_55fe46b7b000|13|1 2046,0,1,0,0,0,0,0,0,0,0,0,0,0,1,2048,
scooby_state_55fe46b7b000|6|1 2045,0,0,0,1,0,0,0,1,0,1,0,0,0,0,2048,
scooby_state_55fe46b7b000|8|1 2040,2,0,0,1,1,2,0,1,0,1,0,0,0,0,2048,
scooby_state_55fe46b7b000|53|1 2043,1,1,0,0,1,0,0,0,0,0,1,0,0,1,2048,
scooby_state_55fe46b7b06a|29|6 1822,3,6,5,1,6,3,2,5,3,3,2,2,5,178,2046,
scooby_state_55fe46b7b06a|46|9 1778,10,13,5,7,4,8,7,6,5,7,7,5,5,173,2040,
scooby_state_55fe46b7b06a|38|6 1800,8,5,12,4,9,7,6,4,4,1,4,5,2,168,2039,
scooby_state_55fe46b7b06a|24|5 1799,3,9,7,4,3,1,3,0,2,3,3,4,3,194,2038,
scooby_state_55fe46b7b06a|39|7 1766,8,14,8,15,10,5,4,3,3,9,2,8,13,169,2037,
scooby_state_55fe46b7b06a|58|7 1760,7,12,6,11,10,4,6,8,4,3,7,10,11,178,2037,
scooby_state_55fe46b7b06a|14|6 1805,5,5,7,4,3,7,5,1,1,7,5,4,2,174,2035,
scooby_state_55fe46b7b06a|18|6 1806,3,6,10,6,3,4,2,3,2,1,6,3,4,172,2031,
scooby_state_55fe46b7b06a|39|6 1773,4,2,4,1,5,7,1,4,4,4,9,5,5,196,2024,
scooby_state_55fe46b7b06a|59|5 1734,8,7,11,8,6,4,7,0,1,9,3,3,2,218,2021,
scooby_state_55fe46b7b06a|34|5 1799,3,7,8,7,6,6,3,0,7,0,2,4,3,163,2018,
scooby_state_55fe46b7b06a|33|8 1823,6,11,6,3,5,3,2,6,7,3,2,4,4,131,2016,
scooby_state_55fe46b7b06a|12|6 1770,2,4,5,7,4,6,4,2,3,5,6,5,1,187,2011,
scooby_state_55fe46b7b06a|8|7 1773,9,9,8,11,8,7,5,6,5,1,4,0,6,157,2009,
scooby_state_55fe46b7b06a|6|5 1724,6,5,3,6,11,5,4,3,5,5,3,5,0,223,2008,
scooby_state_55fe46b7b06a|56|8 1718,11,13,8,10,3,10,7,6,2,1,4,5,3,206,2007,
scooby_state_55fe46b7b06a|37|10 1808,7,11,16,4,7,2,6,5,2,2,8,4,5,119,2006,
scooby_state_55fe46b7b06a|57|5 1722,8,7,8,7,7,3,3,5,1,3,2,5,2,221,2004,
scooby_state_55fe46b7b06a|33|6 1785,5,3,8,3,3,6,2,4,1,4,7,4,6,161,2002,
scooby_state_55fe46b7b06a|27|6 1763,5,6,9,3,5,4,3,5,3,3,2,1,3,187,2002,
scooby_state_55fe46b7b06a|21|8 1803,11,9,4,6,9,3,5,1,5,4,4,5,2,130,2001,
scooby_state_55fe46b7b06a|60|6 1731,10,7,9,2,3,7,6,3,1,3,2,2,7,208,2001,
scooby_state_55fe46b7b06a|11|8 1722,12,13,6,5,8,6,3,9,2,4,6,9,8,186,1999,
scooby_state_55fe46b7b06a|21|7 1744,12,14,4,11,9,8,3,4,5,2,8,1,9,163,1997,
scooby_state_55fe46b7b06a|53|5 1770,4,3,6,3,7,1,3,1,1,6,3,3,5,181,1997,
scooby_state_55fe46b7b06a|43|8 1768,8,7,4,12,10,3,6,3,5,3,2,6,9,150,1996,
scooby_state_55fe46b7b06a|47|5 1757,4,4,6,3,9,5,2,3,3,2,3,4,2,188,1995,
scooby_state_55fe46b7b06a|53|7 1759,11,7,6,4,6,5,4,7,3,9,3,6,5,159,1994,
scooby_state_55fe46b7b06a|15|7 1756,4,7,8,6,5,4,6,3,1,4,7,4,7,169,1991,
scooby_state_55fe46b7b06a|16|6 1767,4,8,8,5,4,4,6,3,0,0,4,1,1,175,1990,
scooby_state_55fe46b7b06a|35|6 1727,9,5,11,2,3,2,2,3,2,4,2,6,7,200,1985,
scooby_state_55fe46b7b06a|45|7 1759,11,12,8,7,6,5,0,3,1,3,12,3,6,145,1981,
scooby_state_55fe46b7b06a|48|6 1694,10,9,10,3,3,4,3,4,1,1,3,5,10,217,1977,
scooby_state_55fe46b7b06a|27|12 1819,4,4,9,5,2,8,4,4,4,8,4,5,6,89,1975,
scooby_state_55fe46b7b06a|37|9 1740,12,5,4,4,8,4,4,7,7,3,5,8,6,157,1974,
scooby_state_55fe46b7b06a|22|7 1739,13,8,4,9,7,8,6,4,4,4,9,5,7,145,1972,
scooby_state_55fe46b7b06a|51|5 1700,4,2,7,2,5,6,3,5,2,2,2,3,3,212,1958,
scooby_state_55fe46b7b06a|40|6 1743,4,6,4,9,4,4,1,3,3,5,4,2,5,161,1958,
scooby_state_55fe46b7b06a|61|6 1691,3,6,10,6,1,5,7,3,0,6,4,4,1,210,1957,
scooby_state_55fe46b7b06a|56|10 1705,13,4,11,6,4,9,6,5,0,6,2,9,8,168,1956,
scooby_state_55fe46b7b06a|10|7 1706,9,8,6,13,5,7,2,7,2,2,5,4,10,169,1955,
scooby_state_55fe46b7b06a|41|8 1710,10,7,7,7,6,5,6,4,2,2,7,5,6,167,1951,
scooby_state_55fe46b7b06a|46|7 1695,13,10,9,8,8,6,2,10,5,2,4,2,8,168,1950,
scooby_state_55fe46b7b06a|50|8 1717,9,10,7,2,6,8,4,6,7,3,7,7,3,150,1946,
scooby_state_55fe46b7b06a|22|9 1680,10,10,4,4,2,13,9,5,6,3,6,7,5,176,1940,
scooby_state_55fe46b7b06a|30|8 1729,11,5,7,3,11,8,5,4,6,2,3,6,4,136,1940,
scooby_state_55fe46b7b06a|20|6 1690,5,6,7,3,3,3,3,4,2,3,2,7,2,197,1937,
scooby_state_55fe46b7b06a|51|6 1728,8,4,7,2,2,3,3,1,1,2,2,6,3,160,1932,
scooby_state_55fe46b7b06a|57|17 1738,4,3,3,4,6,4,7,5,4,6,5,4,9,126,1928,
scooby_state_55fe46b7b06a|23|6 1693,6,5,5,2,7,1,4,4,0,3,1,4,1,190,1926,
scooby_state_55fe46b7b06a|6|6 1662,4,5,11,6,4,4,1,3,2,1,4,2,3,212,1924,
scooby_state_55fe46b7b06a|59|8 1698,6,9,7,5,8,5,8,1,4,4,4,5,2,156,1922,
scooby_state_55fe46b7b06a|41|9 1689,6,6,6,5,7,5,2,5,7,3,2,5,11,162,1921,
scooby_state_55fe46b7b06a|62|8 1665,10,14,9,7,10,7,2,4,4,2,8,4,3,169,1918,
scooby_state_55fe46b7b06a|48|7 1652,12,18,11,5,4,7,5,1,5,2,6,5,5,179,1917,
scooby_state_55fe46b7b06a|25|8 1718,7,10,4,6,8,3,11,0,4,9,2,4,2,129,1917,
scooby_state_55fe46b7b06a|33|7 1680,13,8,9,9,12,8,6,9,8,3,6,4,7,132,1914,
scooby_state_55fe46b7b06a|44|11 1694,10,8,6,5,5,6,3,2,2,1,10,7,3,146,1908,
scooby_state_55fe46b7b06a|48|11 1672,6,5,4,4,7,8,9,2,4,1,5,6,4,170,1907,
scooby_state_55fe46b7b06a|28|7 1687,9,5,1,10,3,6,6,3,5,2,1,4,9,149,1900,
scooby_state_55fe46b7b06a|34|6 1688,10,6,7,6,7,4,2,2,2,6,3,4,0,150,1897,
scooby_state_55fe46b7b06a|45|6 1668,2,1,9,6,5,1,4,5,3,4,7,1,2,177,1895,
scooby_state_55fe46b7b06a|38|7 1626,12,14,6,12,8,5,7,6,10,1,14,5,13,154,1893,
scooby_state_55fe46b7b06a|37|8 1665,14,11,5,5,7,9,3,4,4,4,3,3,2,153,1892,
scooby_state_55fe46b7b06a|32|7 1662,16,8,4,10,5,6,4,3,3,8,3,8,13,138,1891,
scooby_state_55fe46b7b06a|30|7 1665,11,13,3,8,3,5,5,3,6,6,6,3,3,150,1890,
scooby_state_55fe46b7b06a|40|8 1659,10,12,7,6,4,5,4,4,4,2,4,3,3,162,1889,
scooby_state_55fe46b7b06a|23|12 1715,4,5,10,6,3,5,4,5,3,5,4,4,6,105,1884,
scooby_state_55fe46b7b06a|50|9 1652,9,5,5,7,3,10,2,3,3,2,4,5,6,164,1880,
scooby_state_55fe46b7b06a|42|7 1631,5,8,6,6,8,6,3,5,4,5,6,6,10,163,1872,
scooby_state_55fe46b7b06a|32|10 1701,8,4,4,5,9,4,3,3,5,2,6,2,1,115,1872,
scooby_state_55fe46b7b06a|25|7 1658,4,9,6,8,6,4,3,6,5,4,3,3,9,142,1870,
scooby_state_55fe46b7b06a|56|9 1610,15,7,7,11,11,7,2,5,2,2,6,8,3,171,1867,
scooby_state_55fe46b7b06a|23|8 1652,5,5,8,10,6,5,2,3,3,4,1,5,6,148,1863,
scooby_state_55fe46b7b06a|61|7 1598,15,10,5,7,6,4,6,3,3,2,6,10,9,177,1861,
scooby_state_55fe46b7b06a|28|9 1682,8,3,9,4,1,9,1,3,2,3,6,3,7,120,1861,
scooby_state_55fe46b7b06a|46|8 1625,10,9,11,8,4,7,6,6,2,5,6,4,0,156,1859,
scooby_state_55fe46b7b06a|55|9 1612,13,9,7,5,10,8,4,5,3,4,4,3,6,165,1858,
scooby_state_55fe46b7b06a|45|8 1621,10,8,6,7,7,10,5,4,3,3,6,5,5,152,1852,
scooby_state_55fe46b7b06a|21|9 1627,10,8,6,6,10,4,3,1,6,6,4,3,6,145,1845,
scooby_state_55fe46b7b06a|29|7 1610,11,8,7,8,4,8,7,2,3,4,7,4,5,152,1840,
scooby_state_55fe46b7b06a|49|9 1627,8,6,5,5,8,5,6,4,3,2,2,6,6,141,1834,
scooby_state_55fe46b7b06a|10|6 1595,8,9,5,5,4,3,2,2,3,5,4,4,3,175,1827,
scooby_state_55fe46b7b06a|54|7 1598,12,12,5,14,5,2,8,4,4,4,1,5,4,149,1827,
scooby_state_55fe46b7b06a|20|7 1593,9,11,6,12,5,3,5,4,3,2,5,2,8,157,1825,
scooby_state_55fe46b7b06a|38|8 1604,3,6,8,3,10,9,6,4,3,3,6,3,2,149,1819,
scooby_state_55fe46b7b06a|34|7 1605,8,7,6,9,6,3,2,0,1,3,2,7,11,149,1819,
scooby_state_55fe46b7b06a|9|8 1569,8,13,9,8,6,5,6,5,2,6,7,2,4,167,1817,
scooby_state_55fe46b7b06a|15|8 1586,12,7,4,8,4,5,2,4,2,8,3,3,6,159,1813,
scooby_state_55fe46b7b06a|37|11 1610,4,7,4,5,6,3,4,6,5,5,9,6,5,134,1813,
scooby_state_55fe46b7b06a|48|8 1592,7,6,4,8,6,3,6,9,3,3,1,9,9,144,1810,
scooby_state_55fe46b7b06a|14|11 1584,2,4,9,3,6,4,9,2,5,4,3,5,6,156,1802,
scooby_state_55fe46b7b06a|53|8 1603,3,10,7,10,3,3,7,3,2,1,3,9,3,134,1801,
scooby_state_55fe46b7b06a|60|9 1574,8,7,9,5,4,8,6,9,3,3,5,3,6,150,1800,
scooby_state_55fe46b7b06a|49|8 1587,4,7,7,2,6,1,5,5,1,2,4,3,3,162,1799,
scooby_state_55fe46b7b06a|36|6 1578,5,9,8,3,1,3,2,1,4,3,1,3,2,167,1790,
scooby_state_55fe46b7b06a|47|8 1544,8,8,4,1,4,2,6,3,3,5,5,3,9,183,1788,
scooby_state_55fe46b7b06a|63|9 1563,7,9,4,5,4,7,4,3,2,6,12,5,7,149,1787,
scooby_state_55fe46b7b06a|30|6 1591,6,2,5,2,5,2,0,1,3,1,5,3,3,157,1786,
scooby_state_55fe46b7b06a|31|7 1565,14,7,7,3,6,6,7,3,6,2,5,5,7,139,1782,
scooby_state_55fe46b7b06a|54|8 1552,9,11,5,5,7,6,1,4,3,3,5,4,4,162,1781,
scooby_state_55fe46b7b06a|14|12 1591,4,7,9,9,12,5,4,5,5,4,10,7,6,99,1777,
scooby_state_55fe46b7b06a|22|11 1591,4,3,5,1,3,5,3,5,1,5,5,5,6,135,1777,
scooby_state_55fe46b7b06a|31|8 1546,8,7,5,8,7,3,8,4,6,6,2,4,1,155,1770,
scooby_state_55fe46b7b06a|29|8 1544,5,13,4,2,10,6,4,5,3,3,4,3,8,156,1770,
scooby_state_55fe46b7b06a|61|12 1567,5,8,5,9,10,8,6,6,5,4,3,9,6,118,1769,
scooby_state_55fe46b7b06a|7|7 1522,10,8,5,10,10,4,6,2,8,2,2,2,14,159,1764,
scooby_state_55fe46b7b06a|62|7 1515,9,8,5,12,7,8,4,3,6,6,3,7,6,165,1764,
scooby_state_55fe46b7b06a|60|7 1541,9,5,7,4,8,11,7,3,3,3,7,2,2,151,1763,
scooby_state_55fe46b7b06a|58|6 1493,9,4,8,5,1,7,3,0,5,3,4,4,4,212,1762,
scooby_state_55fe46b7b06a|53|6 1546,0,6,7,4,3,2,2,5,2,2,3,5,6,166,1759,
scooby_state_55fe46b7b06a|58|9 1516,6,10,5,11,4,10,3,6,8,4,3,5,7,159,1757,
scooby_state_55fe46b7b06a|59|6 1499,4,6,11,4,2,2,1,1,1,3,4,8,6,204,1756,
scooby_state_55fe46b7b06a|38|11 1569,7,7,5,2,6,5,6,2,5,1,4,5,2,130,1756,
scooby_state_55fe46b7b06a|63|8 1495,11,11,12,7,10,6,8,4,4,2,8,5,1,169,1753,
scooby_state_55fe46b7b06a|42|6 1539,6,5,10,3,1,5,2,4,6,5,2,2,6,157,1753,
scooby_state_55fe46b7b06a|16|7 1517,6,8,6,6,6,5,4,9,3,4,4,7,7,161,1753,
scooby_state_55fe46b7b06a|17|7 1521,8,4,9,17,8,4,3,5,5,5,5,4,7,140,1745,
scooby_state_55fe46b7b06a|14|9 1530,8,10,10,7,5,3,4,6,5,0,5,3,5,144,1745,
scooby_state_55fe46b7b06a|54|43 1671,5,6,5,3,6,0,4,5,5,6,4,7,6,12,1745,
scooby_state_55fe46b7b06a|35|8 1530,5,5,7,6,4,4,10,0,1,3,7,4,3,155,1744,
scooby_state_55fe46b7b06a|16|9 1546,8,5,4,8,5,8,6,1,3,5,2,4,6,130,1741,
scooby_state_55fe46b7b06a|50|13 1554,11,14,10,5,4,5,3,5,5,4,9,5,7,98,1739,
scooby_state_55fe46b7b06a|55|7 1508,9,6,6,9,8,5,5,3,3,3,5,5,8,154,1737,
scooby_state_55fe46b7b06a|60|11 1520,6,6,5,3,4,7,2,4,4,0,2,5,4,163,1735,
scooby_state_55fe46b7b06a|54|11 1540,2,6,10,5,8,11,3,6,1,4,3,3,2,131,1735,
scooby_state_55fe46b7b06a|47|9 1544,4,9,5,8,5,9,4,2,2,1,6,2,2,132,1735,
scooby_state_55fe46b7b06a|59|10 1528,9,8,2,5,4,7,2,4,3,0,4,0,4,152,1732,
scooby_state_55fe46b7b06a|11|10 1524,12,6,11,4,8,4,5,4,6,5,6,4,3,127,1729,
scooby_state_55fe46b7b06a|27|7 1527,12,3,2,6,8,3,1,3,3,3,7,3,6,140,1727,
scooby_state_55fe46b7b06a|35|7 1505,6,11,10,5,10,7,3,5,3,5,1,3,4,145,1723,
scooby_state_55fe46b7b06a|41|7 1471,10,12,5,12,5,4,5,7,6,3,6,7,7,160,1720,
scooby_state_55fe46b7b06a|24|8 1528,5,9,3,5,1,7,5,3,4,3,3,2,2,135,1715,
scooby_state_55fe46b7b06a|8|8 1463,15,4,8,3,8,6,4,3,4,3,6,3,8,172,1710,
scooby_state_55fe46b7b06a|38|9 1511,9,7,4,5,3,7,5,3,4,6,6,3,1,133,1707,
scooby_state_55fe46b7b06a|25|11 1514,6,7,8,3,7,3,5,4,3,4,3,5,6,121,1699,
scooby_state_55fe46b7b06a|58|8 1474,10,4,3,10,5,6,3,3,3,8,6,6,2,150,1693,
scooby_state_55fe46b7b06a|50|11 1493,7,7,2,5,5,5,3,3,5,3,2,3,2,148,1693,
scooby_state_55fe46b7b06a|17|8 1480,13,7,6,4,6,4,4,6,1,5,1,7,1,148,1693,
scooby_state_55fe46b7b06a|40|7 1490,9,7,9,12,9,6,3,2,2,4,8,6,5,121,1693,
scooby_state_55fe46b7b06a|52|9 1497,8,4,9,10,6,4,5,9,3,4,4,7,5,114,1689,
scooby_state_55fe46b7b06a|32|8 1485,5,8,5,5,7,4,3,3,2,7,8,2,3,141,1688,
scooby_state_55fe46b7b06a|49|11 1497,8,6,6,4,5,6,5,6,1,3,3,3,3,130,1686,
scooby_state_55fe46b7b06a|58|10 1435,10,7,9,9,5,9,7,8,7,6,4,7,4,159,1686,
scooby_state_55fe46b7b06a|63|17 1517,9,7,2,3,5,4,3,3,4,4,7,8,3,105,1684,
scooby_state_55fe46b7b06a|11|9 1478,5,8,4,1,4,5,4,1,2,2,7,10,7,144,1682,
scooby_state_55fe46b7b06a|62|13 1494,6,11,9,8,5,6,4,5,2,4,9,6,6,105,1680,
scooby_state_55fe46b7b06a|12|10 1470,7,4,4,7,8,5,3,4,10,4,4,6,4,140,1680,
scooby_state_55fe46b7b06a|21|10 1450,7,6,3,10,4,10,8,3,2,7,7,7,3,152,1679,
scooby_state_55fe46b7b06a|51|11 1526,3,6,7,2,4,4,2,0,3,3,3,4,3,107,1677,
scooby_state_55fe46b7b06a|34|9 1500,5,9,2,13,6,2,4,2,3,3,5,4,3,116,1677,
scooby_state_55fe46b7b06a|20|9 1496,5,7,2,6,7,10,1,3,4,2,2,1,3,126,1675,
scooby_state_55fe46b7b06a|24|6 1482,5,8,6,4,4,5,3,1,2,2,7,0,3,141,1673,
scooby_state_55fe46b7b06a|55|10 1473,6,8,9,12,6,6,5,5,6,4,3,3,6,116,1668,
scooby_state_55fe46b7b06a|25|10 1478,7,7,5,6,6,11,2,6,6,2,2,4,8,116,1666,
scooby_state_55fe46b7b06a|59|7 1436,3,10,3,11,5,6,7,2,6,4,2,4,5,161,1665,
scooby_state_55fe46b7b06a|16|8 1447,12,7,6,6,4,5,3,7,4,5,3,4,2,148,1663,
scooby_state_55fe46b7b06a|39|8 1459,8,12,7,4,5,5,5,2,3,3,2,2,4,141,1662,
scooby_state_55fe46b7b06a|43|7 1436,17,6,8,7,6,5,9,3,7,2,2,4,14,136,1662,
scooby_state_55fe46b7b06a|35|13 1466,6,8,12,7,4,1,9,5,6,5,8,4,14,106,1661,
scooby_state_55fe46b7b06a|36|7 1446,11,3,9,10,1,4,7,3,3,3,2,5,3,148,1658,
scooby_state_55fe46b7b06a|60|10 1456,11,7,10,4,7,3,2,10,3,4,4,1,10,126,1658,
scooby_state_55fe46b7b06a|34|8 1444,6,9,5,6,4,4,5,4,5,2,6,5,6,146,1657,
scooby_state_55fe46b7b06a|26|10 1479,3,5,4,3,6,2,5,2,2,3,3,5,4,131,1657,
scooby_state_55fe46b7b06a|14|8 1435,6,6,10,7,10,5,4,3,4,4,6,3,4,149,1656,
scooby_state_55fe46b7b06a|32|9 1461,6,11,8,9,7,7,3,1,6,3,6,3,4,118,1653,
scooby_state_55fe46b7b06a|23|10 1450,6,4,5,7,7,7,4,3,3,6,6,5,4,136,1653,
scooby_state_55fe46b7b06a|36|8 1466,10,9,6,3,6,5,7,4,1,4,2,0,2,127,1652,
scooby_state_55fe46b7b06a|15|10 1487,9,6,8,3,2,4,2,2,1,5,3,2,5,112,1651,
scooby_state_55fe46b7b06a|12|8 1410,20,9,8,8,5,7,3,3,1,2,2,6,4,163,1651,
scooby_state_55fe46b7b06a|30|11 1472,6,2,2,3,1,4,4,3,2,5,6,4,3,128,1645,
scooby_state_55fe46b7b06a|57|9 1420,6,7,5,8,8,7,1,3,3,6,5,5,1,160,1645,
scooby_state_55fe46b7b06a|52|11 1457,8,6,7,3,2,6,1,4,3,5,5,3,2,131,1643,
scooby_state_55fe46b7b06a|51|8 1444,8,9,7,6,8,7,6,3,1,5,5,1,3,129,1642,
scooby_state_55fe46b7b06a|49|10 1434,9,10,10,7,2,3,3,2,4,4,7,5,7,135,1642,
scooby_state_55fe46b7b06a|42|10 1468,9,9,2,6,2,6,6,6,3,6,2,2,5,109,1641,
scooby_state_55fe46b7b06a|15|9 1447,6,8,2,3,6,6,5,4,2,3,0,2,2,144,1640,
scooby_state_55fe46b7b06a|26|11 1462,4,7,6,2,7,3,1,4,3,1,1,5,1,132,1639,
scooby_state_55fe46b7b06a|54|9 1434,9,8,5,7,6,7,4,2,3,5,3,1,2,143,1639,
scooby_state_55fe46b7b06a|22|10 1433,4,8,4,4,8,4,3,3,4,2,7,6,4,135,1629,
scooby_state_55fe46b7b06a|52|8 1405,7,7,2,10,5,7,3,4,4,3,4,6,8,154,1629,
scooby_state_55fe46b7b06a|33|10 1461,1,7,2,6,5,7,1,5,8,6,5,6,1,108,1629,
scooby_state_55fe46b7b06a|24|7 1418,6,5,3,9,11,9,1,8,5,2,4,3,4,139,1627,
scooby_state_55fe46b7b06a|62|9 1418,9,4,8,2,8,3,5,7,3,1,7,7,4,141,1627,
scooby_state_55fe46b7b06a|37|14 1449,12,2,6,3,9,2,4,4,3,6,4,5,3,110,1622,
scooby_state_55fe46b7b06a|27|10 1415,7,11,9,4,6,4,2,7,3,4,5,3,3,137,1620,
scooby_state_55fe46b7b06a|24|10 1447,6,8,3,10,7,4,1,3,4,3,9,3,1,110,1619,
scooby_state_55fe46b7b06a|54|10 1408,7,8,7,3,6,2,5,6,7,6,5,6,3,139,1618,
scooby_state_55fe46b7b06a|55|12 1409,5,3,7,10,10,11,7,7,1,8,3,9,6,118,1614,
scooby_state_55fe46b7b06a|37|12 1443,5,7,5,6,12,3,2,7,7,5,6,7,3,96,1614,
scooby_state_55fe46b7b06a|25|9 1437,8,13,8,8,5,6,2,6,1,0,0,2,2,116,1614,
scooby_state_55fe46b7b06a|13|9 1407,8,7,7,7,4,7,1,1,3,2,5,4,1,145,1609,
scooby_state_55fe46b7b06a|41|11 1423,4,6,2,3,7,6,6,5,4,0,4,7,1,129,1607,
scooby_state_55fe46b7b06a|43|10 1407,15,5,6,2,5,5,2,0,5,4,6,6,5,133,1606,
scooby_state_55fe46b7b06a|30|9 1425,4,9,5,3,3,2,3,3,3,1,3,5,3,133,1605,
scooby_state_55fe46b7b06a|35|10 1418,5,5,11,7,4,5,4,5,0,5,4,4,5,119,1601,
scooby_state_55fe46b7b06a|43|15 1470,9,7,6,5,6,4,4,5,3,5,3,9,1,64,1601,
scooby_state_55fe46b7b06a|61|8 1358,17,11,3,5,4,5,2,7,7,4,1,4,3,168,1599,
scooby_state_55fe46b7b06a|51|7 1357,13,15,6,7,8,5,3,7,5,7,3,4,8,150,1598,
scooby_state_55fe46b7b06a|31|9 1393,8,4,7,4,4,10,4,2,4,2,5,4,3,139,1593,
scooby_state_55fe46b7b06a|47|7 1392,9,6,4,4,5,5,1,2,3,3,3,5,11,140,1593,
scooby_state_55fe46b7b06a|37|15 1433,8,11,5,6,4,5,10,7,4,4,1,1,8,83,1590,
scooby_state_55fe46b7b06a|35|9 1416,3,11,5,5,6,1,2,6,3,4,4,3,4,117,1590,
scooby_state_55fe46b7b06a|40|9 1424,7,4,5,8,9,6,4,3,2,1,2,2,2,111,1590,
scooby_state_55fe46b7b06a|13|10 1380,7,10,5,5,11,8,6,5,4,4,3,5,4,131,1588,
scooby_state_55fe46b7b06a|57|20 1432,12,13,7,5,7,8,4,7,7,1,9,9,6,58,1585,
scooby_state_55fe46b7b06a|13|11 1372,5,5,5,5,5,2,3,3,2,4,6,6,4,156,1583,
scooby_state_55fe46b7b06a|26|8 1400,7,2,8,3,8,7,2,2,3,1,5,1,4,130,1583,
scooby_state_55fe46b7b06a|61|11 1434,1,6,3,4,4,3,1,1,2,2,5,3,5,109,1583,
scooby_state_55fe46b7b06a|43|11 1416,4,5,3,6,1,6,4,1,2,3,3,6,0,122,1582,
scooby_state_55fe46b7b06a|52|7 1386,10,12,6,7,4,5,5,1,1,1,1,5,4,134,1582,
scooby_state_55fe46b7b06a|28|8 1389,11,1,2,6,6,4,3,1,4,5,5,6,5,132,1580,
scooby_state_55fe46b7b06a|39|10 1398,4,4,7,2,5,1,8,3,5,5,2,9,5,122,1580,
scooby_state_55fe46b7b06a|44|8 1329,11,7,4,2,8,9,5,3,5,4,6,9,4,171,1577,
scooby_state_55fe46b7b06a|62|10 1375,7,6,9,3,7,5,3,4,7,5,2,7,3,133,1576,
scooby_state_55fe46b7b06a|24|11 1387,1,6,6,4,5,8,3,2,2,5,7,3,3,129,1571,
scooby_state_55fe46b7b06a|36|9 1388,7,11,2,7,5,4,4,3,2,3,3,5,5,118,1567,
scooby_state_55fe46b7b06a|17|9 1365,7,6,10,3,6,4,1,7,3,7,7,8,5,124,1563,
scooby_state_55fe46b7b06a|47|10 1379,3,5,3,2,3,8,3,5,6,1,4,6,5,128,1561,
scooby_state_55fe46b7b06a|14|10 1368,9,6,6,5,6,6,2,1,6,4,4,4,3,130,1560,
[...]
scooby_state_55fe46b7b083|2|1 0,1,0,0,0,0,0,0,0,0,0,0,0,0,0,1,
scooby_state_14cb10b691d1|15|14 1,0,0,0,0,0,0,0,0,0,0,0,0,0,0,1,
scooby_state_14cb10b69bc0|47|1 1,0,0,0,0,0,0,0,0,0,0,0,0,0,0,1,
scooby_state_14cb10b697c5|31|1 1,0,0,0,0,0,0,0,0,0,0,0,0,0,0,1,
scooby_state_14cb10b65f02|60|1 1,0,0,0,0,0,0,0,0,0,0,0,0,0,0,1,
scooby_state_14cb10b66bb1|46|1 1,0,0,0,0,0,0,0,0,0,0,0,0,0,0,1,
scooby_state_14cb10b9f0e6|49|1 1,0,0,0,0,0,0,0,0,0,0,0,0,0,0,1,
scooby_state_14cb10b6567e|42|-1 1,0,0,0,0,0,0,0,0,0,0,0,0,0,0,1,
scooby_state_14cb10b691c6|56|0 1,0,0,0,0,0,0,0,0,0,0,0,0,0,0,1,
scooby_state_14cb10b9e58f|19|-11 1,0,0,0,0,0,0,0,0,0,0,0,0,0,0,1,
scooby_state_14cb10b9ed30|52|1 1,0,0,0,0,0,0,0,0,0,0,0,0,0,0,1,
scooby_state_14cb10b9eb40|45|21 1,0,0,0,0,0,0,0,0,0,0,0,0,0,0,1,
scooby_state_14cb10b9ed40|53|1 1,0,0,0,0,0,0,0,0,0,0,0,0,0,0,1,
scooby_state_14cb10b67eab|58|2 1,0,0,0,0,0,0,0,0,0,0,0,0,0,0,1,
scooby_state_14cb10b9e603|24|-29 1,0,0,0,0,0,0,0,0,0,0,0,0,0,0,1,
scooby_state_14cb10b6936f|13|-45 1,0,0,0,0,0,0,0,0,0,0,0,0,0,0,1,
scooby_state_14cb10c3a0b0|22|0 1,0,0,0,0,0,0,0,0,0,0,0,0,0,0,1,
scooby_state_14cb10b65440|17|1 1,0,0,0,0,0,0,0,0,0,0,0,0,0,0,1,
scooby_state_14cb10b67ef2|40|-2 1,0,0,0,0,0,0,0,0,0,0,0,0,0,0,1,
scooby_state_14cb10b2b2c0|56|-1 1,0,0,0,0,0,0,0,0,0,0,0,0,0,0,1,
scooby_state_14cb10b67028|0|-2 1,0,0,0,0,0,0,0,0,0,0,0,0,0,0,1,
scooby_state_14cb10ba1102|4|1 1,0,0,0,0,0,0,0,0,0,0,0,0,0,0,1,
scooby_state_14cb10b6b07e|1|-8 1,0,0,0,0,0,0,0,0,0,0,0,0,0,0,1,
scooby_state_14cb10b69945|37|1 1,0,0,0,0,0,0,0,0,0,0,0,0,0,0,1,
scooby_state_14cb10b659c0|39|1 1,0,0,0,0,0,0,0,0,0,0,0,0,0,0,1,
scooby_state_14cb10b627c0|31|1 1,0,0,0,0,0,0,0,0,0,0,0,0,0,0,1,
scooby_state_14cb10ba1212|8|4 1,0,0,0,0,0,0,0,0,0,0,0,0,0,0,1,
scooby_state_14cb10ba1076|59|3 1,0,0,0,0,0,0,0,0,0,0,0,0,0,0,1,
scooby_state_14cb10b982c0|11|1 1,0,0,0,0,0,0,0,0,0,0,0,0,0,0,1,
scooby_state_14cb10b98443|17|1 1,0,0,0,0,0,0,0,0,0,0,0,0,0,0,1,
scooby_state_14cb10b67167|5|-13 1,0,0,0,0,0,0,0,0,0,0,0,0,0,0,1,
scooby_state_14cb10ba1070|1|0 1,0,0,0,0,0,0,0,0,0,0,0,0,0,0,1,
scooby_state_14cb10b6a182|6|-44 1,0,0,0,0,0,0,0,0,0,0,0,0,0,0,1,
scooby_state_14cb10b5d285|10|1 1,0,0,0,0,0,0,0,0,0,0,0,0,0,0,1,
scooby_state_14cb10b9e323|37|2 1,0,0,0,0,0,0,0,0,0,0,0,0,0,0,1,
scooby_state_14cb10b67902|36|1 1,0,0,0,0,0,0,0,0,0,0,0,0,0,0,1,
scooby_state_14cb10b627b0|30|0 1,0,0,0,0,0,0,0,0,0,0,0,0,0,0,1,
scooby_state_14cb10b95a01|40|34 1,0,0,0,0,0,0,0,0,0,0,0,0,0,0,1,
scooby_state_14cb10b66b11|44|-11 1,0,0,0,0,0,0,0,0,0,0,0,0,0,0,1,
scooby_state_14cb10b68978|37|3 1,0,0,0,0,0,0,0,0,0,0,0,0,0,0,1,
scooby_state_14cb10b5d9d4|39|4 1,0,0,0,0,0,0,0,0,0,0,0,0,0,0,1,
scooby_state_55fe46b79510|54|0 1,0,0,0,0,0,0,0,0,0,0,0,0,0,0,1,
scooby_state_14cb10bc5567|21|4 1,0,0,0,0,0,0,0,0,0,0,0,0,0,0,1,
scooby_state_14cb10b669c1|39|1 1,0,0,0,0,0,0,0,0,0,0,0,0,0,0,1,
scooby_state_14cb10b9e581|22|1 1,0,0,0,0,0,0,0,0,0,0,0,0,0,0,1,
scooby_state_14cb10b97490|18|5 1,0,0,0,0,0,0,0,0,0,0,0,0,0,0,1,
scooby_state_14cb10b65494|18|1 1,0,0,0,0,0,0,0,0,0,0,0,0,0,0,1,
scooby_state_14cb10b65682|26|1 1,0,0,0,0,0,0,0,0,0,0,0,0,0,0,1,
scooby_state_14cb10b691c2|7|1 1,0,0,0,0,0,0,0,0,0,0,0,0,0,0,1,
scooby_state_14cb10b65601|24|1 1,0,0,0,0,0,0,0,0,0,0,0,0,0,0,1,
scooby_state_14cb10b88182|6|1 1,0,0,0,0,0,0,0,0,0,0,0,0,0,0,1,
scooby_state_14cb10b66840|33|-7 1,0,0,0,0,0,0,0,0,0,0,0,0,0,0,1,
scooby_state_14cb10b6a894|34|1 1,0,0,0,0,0,0,0,0,0,0,0,0,0,0,1,
scooby_state_14cb10bbb644|25|1 1,0,0,0,0,0,0,0,0,0,0,0,0,0,0,1,
scooby_state_14cb10b959ea|10|-1 1,0,0,0,0,0,0,0,0,0,0,0,0,0,0,1,
scooby_state_55fe46b7afe0|57|34 1,0,0,0,0,0,0,0,0,0,0,0,0,0,0,1,
scooby_state_14cb10b9e4f8|49|38 1,0,0,0,0,0,0,0,0,0,0,0,0,0,0,1,
scooby_state_14cb10b69a06|40|1 1,0,0,0,0,0,0,0,0,0,0,0,0,0,0,1,
scooby_state_14cb10c3c24b|29|-4 1,0,0,0,0,0,0,0,0,0,0,0,0,0,0,1,
scooby_state_14cb10b68f80|62|10 1,0,0,0,0,0,0,0,0,0,0,0,0,0,0,1,
scooby_state_14cb10b65eb8|58|30 1,0,0,0,0,0,0,0,0,0,0,0,0,0,0,1,
scooby_state_14cb10b69c9e|50|2 1,0,0,0,0,0,0,0,0,0,0,0,0,0,0,1,
scooby_state_14cb10b68890|34|-29 1,0,0,0,0,0,0,0,0,0,0,0,0,0,0,1,
scooby_state_55fe46b7b047|1|0 1,0,0,0,0,0,0,0,0,0,0,0,0,0,0,1,
scooby_state_14cb10b68982|38|1 1,0,0,0,0,0,0,0,0,0,0,0,0,0,0,1,
scooby_state_14cb10b9e998|38|15 1,0,0,0,0,0,0,0,0,0,0,0,0,0,0,1,
scooby_state_55fe46b7b03f|31|0 1,0,0,0,0,0,0,0,0,0,0,0,0,0,0,1,
scooby_state_14cb10b88100|4|0 1,0,0,0,0,0,0,0,0,0,0,0,0,0,0,1,
scooby_state_14cb10b6ac8e|50|45 1,0,0,0,0,0,0,0,0,0,0,0,0,0,0,1,
scooby_state_14cb10b9e303|12|1 1,0,0,0,0,0,0,0,0,0,0,0,0,0,0,1,
scooby_state_14cb10b69204|8|1 1,0,0,0,0,0,0,0,0,0,0,0,0,0,0,1,
scooby_state_14cb10b66d44|53|1 1,0,0,0,0,0,0,0,0,0,0,0,0,0,0,1,
scooby_state_14cb10b66a18|40|0 1,0,0,0,0,0,0,0,0,0,0,0,0,0,0,1,
scooby_state_55fe46b7afee|56|2 1,0,0,0,0,0,0,0,0,0,0,0,0,0,0,1,
scooby_state_14cb10c3c346|13|1 1,0,0,0,0,0,0,0,0,0,0,0,0,0,0,1,
scooby_state_14cb10ba107d|48|47 1,0,0,0,0,0,0,0,0,0,0,0,0,0,0,1,
scooby_state_14cb10b653c3|57|-3 1,0,0,0,0,0,0,0,0,0,0,0,0,0,0,1,
scooby_state_14cb10b9f183|6|-3 1,0,0,0,0,0,0,0,0,0,0,0,0,0,0,1,
scooby_state_14cb10b9e8e8|13|-5 1,0,0,0,0,0,0,0,0,0,0,0,0,0,0,1,
scooby_state_55fe46b7b00d|10|0 1,0,0,0,0,0,0,0,0,0,0,0,0,0,0,1,
scooby_state_14cb10b9f242|9|4 1,0,0,0,0,0,0,0,0,0,0,0,0,0,0,1,
scooby_state_55fe46b7afe0|63|0 1,0,0,0,0,0,0,0,0,0,0,0,0,0,0,1,
scooby_state_14cb10b69001|0|-8 1,0,0,0,0,0,0,0,0,0,0,0,0,0,0,1,
scooby_state_14cb10bbb646|31|0 1,0,0,0,0,0,0,0,0,0,0,0,0,0,0,1,
scooby_state_55fe46b7b050|59|1 1,0,0,0,0,0,0,0,0,0,0,0,0,0,0,1,
scooby_state_14cb10b69e00|56|1 1,0,0,0,0,0,0,0,0,0,0,0,0,0,0,1,
scooby_state_14cb10b97300|12|0 1,0,0,0,0,0,0,0,0,0,0,0,0,0,0,1,
scooby_state_14cb10b67e08|56|0 1,0,0,0,0,0,0,0,0,0,0,0,0,0,0,1,
scooby_state_14cb10b696e4|61|0 1,0,0,0,0,0,0,0,0,0,0,0,0,0,0,1,
scooby_state_14cb10b9e5c1|23|1 1,0,0,0,0,0,0,0,0,0,0,0,0,0,0,1,
scooby_state_14cb10b69b61|45|1 1,0,0,0,0,0,0,0,0,0,0,0,0,0,0,1,
scooby_state_14cb10ba11a0|6|4 1,0,0,0,0,0,0,0,0,0,0,0,0,0,0,1,
scooby_state_14cb10b69043|1|1 1,0,0,0,0,0,0,0,0,0,0,0,0,0,0,1,
scooby_state_14cb10b6a78a|30|2 1,0,0,0,0,0,0,0,0,0,0,0,0,0,0,1,
scooby_state_14cb10b2b230|8|-3 1,0,0,0,0,0,0,0,0,0,0,0,0,0,0,1,
scooby_state_14cb10b66f60|61|26 1,0,0,0,0,0,0,0,0,0,0,0,0,0,0,1,
scooby_state_14cb10b881d8|7|1 1,0,0,0,0,0,0,0,0,0,0,0,0,0,0,1,
scooby_state_14cb10b98420|16|5 1,0,0,0,0,0,0,0,0,0,0,0,0,0,0,1,
scooby_state_14cb10b973c3|15|1 1,0,0,0,0,0,0,0,0,0,0,0,0,0,0,1,
scooby_state_14cb10ba10af|53|-6 1,0,0,0,0,0,0,0,0,0,0,0,0,0,0,1,
scooby_state_14cb10b678db|35|20 1,0,0,0,0,0,0,0,0,0,0,0,0,0,0,1,
scooby_state_14cb10c197c1|31|1 1,0,0,0,0,0,0,0,0,0,0,0,0,0,0,1,
scooby_state_14cb10b95180|6|-33 1,0,0,0,0,0,0,0,0,0,0,0,0,0,0,1,
scooby_state_14cb10c3c230|60|0 1,0,0,0,0,0,0,0,0,0,0,0,0,0,0,1,
scooby_state_14cb10b65390|14|0 1,0,0,0,0,0,0,0,0,0,0,0,0,0,0,1,
scooby_state_14cb10b65706|28|1 1,0,0,0,0,0,0,0,0,0,0,0,0,0,0,1,
scooby_state_14cb10ba10c1|58|1 1,0,0,0,0,0,0,0,0,0,0,0,0,0,0,1,
scooby_state_14cb10b98376|12|2 1,0,0,0,0,0,0,0,0,0,0,0,0,0,0,1,
scooby_state_14cb10b68c85|50|1 1,0,0,0,0,0,0,0,0,0,0,0,0,0,0,1,
scooby_state_14cb10b65530|11|0 1,0,0,0,0,0,0,0,0,0,0,0,0,0,0,1,
scooby_state_14cb10bc5440|17|0 1,0,0,0,0,0,0,0,0,0,0,0,0,0,0,1,
scooby_state_14cb10b8a340|13|2 1,0,0,0,0,0,0,0,0,0,0,0,0,0,0,1,
scooby_state_14cb10b2b230|5|-45 1,0,0,0,0,0,0,0,0,0,0,0,0,0,0,1,
scooby_state_14cb10c3c26f|35|0 1,0,0,0,0,0,0,0,0,0,0,0,0,0,0,1,
scooby_state_14cb10b66910|36|19 1,0,0,0,0,0,0,0,0,0,0,0,0,0,0,1,
scooby_state_14cb10b9f123|48|0 1,0,0,0,0,0,0,0,0,0,0,0,0,0,0,1,
scooby_state_14cb10b65981|38|1 1,0,0,0,0,0,0,0,0,0,0,0,0,0,0,1,
scooby_state_14cb10b65945|37|1 1,0,0,0,0,0,0,0,0,0,0,0,0,0,0,1,
scooby_state_14cb10b9e450|17|5 1,0,0,0,0,0,0,0,0,0,0,0,0,0,0,1,
scooby_state_14cb10b69ac8|43|6 1,0,0,0,0,0,0,0,0,0,0,0,0,0,0,1,
scooby_state_14cb10b8a260|9|0 1,0,0,0,0,0,0,0,0,0,0,0,0,0,0,1,
scooby_state_14cb10b67442|17|1 1,0,0,0,0,0,0,0,0,0,0,0,0,0,0,1,
scooby_state_14cb10b66bc5|47|1 1,0,0,0,0,0,0,0,0,0,0,0,0,0,0,1,
scooby_state_14cb10b9ef73|36|-1 1,0,0,0,0,0,0,0,0,0,0,0,0,0,0,1,
scooby_state_14cb10b66aeb|43|-10 1,0,0,0,0,0,0,0,0,0,0,0,0,0,0,1,
scooby_state_14cb10b66d24|52|52 1,0,0,0,0,0,0,0,0,0,0,0,0,0,0,1,
scooby_state_14cb10b5d230|8|0 1,0,0,0,0,0,0,0,0,0,0,0,0,0,0,1,
scooby_state_14cb10c3c264|35|0 1,0,0,0,0,0,0,0,0,0,0,0,0,0,0,1,
scooby_state_14cb10b67090|2|-34 1,0,0,0,0,0,0,0,0,0,0,0,0,0,0,1,
scooby_state_14cb10b88141|5|1 1,0,0,0,0,0,0,0,0,0,0,0,0,0,0,1,
scooby_state_14cb10b66b44|45|-11 1,0,0,0,0,0,0,0,0,0,0,0,0,0,0,1,
scooby_state_14cb10b62840|33|2 1,0,0,0,0,0,0,0,0,0,0,0,0,0,0,1,
scooby_state_14cb10b65fea|63|1 1,0,0,0,0,0,0,0,0,0,0,0,0,0,0,1,
scooby_state_14cb10b9f143|5|1 1,0,0,0,0,0,0,0,0,0,0,0,0,0,0,1,
scooby_state_14cb10b9e5f4|18|-1 1,0,0,0,0,0,0,0,0,0,0,0,0,0,0,1,
scooby_state_14cb10b6286b|22|-22 1,0,0,0,0,0,0,0,0,0,0,0,0,0,0,1,
scooby_state_14cb10b9ef73|61|35 1,0,0,0,0,0,0,0,0,0,0,0,0,0,0,1,
scooby_state_14cb10b65ed7|59|1 1,0,0,0,0,0,0,0,0,0,0,0,0,0,0,1,
scooby_state_14cb10b668d7|35|1 1,0,0,0,0,0,0,0,0,0,0,0,0,0,0,1,
scooby_state_14cb10c3c240|61|0 1,0,0,0,0,0,0,0,0,0,0,0,0,0,0,1,
scooby_state_14cb10b9e699|26|-9 1,0,0,0,0,0,0,0,0,0,0,0,0,0,0,1,
scooby_state_14cb10b9e574|50|1 1,0,0,0,0,0,0,0,0,0,0,0,0,0,0,1,
scooby_state_14cb10b69788|30|3 1,0,0,0,0,0,0,0,0,0,0,0,0,0,0,1,
scooby_state_14cb10b68c60|49|0 1,0,0,0,0,0,0,0,0,0,0,0,0,0,0,1,
scooby_state_14cb10b655e5|25|-10 1,0,0,0,0,0,0,0,0,0,0,0,0,0,0,1,
scooby_state_14cb10b66df0|55|12 1,0,0,0,0,0,0,0,0,0,0,0,0,0,0,1,
scooby_state_14cb10b9e2d0|11|0 1,0,0,0,0,0,0,0,0,0,0,0,0,0,0,1,
scooby_state_14cb10b96ea0|58|0 1,0,0,0,0,0,0,0,0,0,0,0,0,0,0,1,
scooby_state_14cb10b656c4|27|1 1,0,0,0,0,0,0,0,0,0,0,0,0,0,0,1,
scooby_state_14cb10b66e03|56|12 1,0,0,0,0,0,0,0,0,0,0,0,0,0,0,1,
scooby_state_14cb10b98300|12|0 1,0,0,0,0,0,0,0,0,0,0,0,0,0,0,1,
scooby_state_14cb10b696c0|27|-29 1,0,0,0,0,0,0,0,0,0,0,0,0,0,0,1,
scooby_state_14cb10b9e42a|16|-45 1,0,0,0,0,0,0,0,0,0,0,0,0,0,0,1,
scooby_state_14cb10b653c3|15|1 1,0,0,0,0,0,0,0,0,0,0,0,0,0,0,1,
scooby_state_14cb10b9e540|21|1 1,0,0,0,0,0,0,0,0,0,0,0,0,0,0,1,
scooby_state_14cb10b9e504|20|1 1,0,0,0,0,0,0,0,0,0,0,0,0,0,0,1,
scooby_state_14cb10b98530|20|2 1,0,0,0,0,0,0,0,0,0,0,0,0,0,0,1,
scooby_state_14cb10b6a960|37|3 1,0,0,0,0,0,0,0,0,0,0,0,0,0,0,1,
scooby_state_14cb10ba1080|2|1 1,0,0,0,0,0,0,0,0,0,0,0,0,0,0,1,
scooby_state_14cb10b698c1|35|1 1,0,0,0,0,0,0,0,0,0,0,0,0,0,0,1,
scooby_state_14cb10b6b080|2|1 1,0,0,0,0,0,0,0,0,0,0,0,0,0,0,1,
scooby_state_14cb10bbb620|24|19 1,0,0,0,0,0,0,0,0,0,0,0,0,0,0,1,
scooby_state_14cb10b654e8|19|1 1,0,0,0,0,0,0,0,0,0,0,0,0,0,0,1,
scooby_state_14cb10b2b100|2|-3 1,0,0,0,0,0,0,0,0,0,0,0,0,0,0,1,
scooby_state_14cb10b9e581|10|0 1,0,0,0,0,0,0,0,0,0,0,0,0,0,0,1,
scooby_state_14cb10b6621b|8|-40 1,0,0,0,0,0,0,0,0,0,0,0,0,0,0,1,
scooby_state_14cb10b97370|13|1 1,0,0,0,0,0,0,0,0,0,0,0,0,0,0,1,
scooby_state_14cb10b69918|36|1 1,0,0,0,0,0,0,0,0,0,0,0,0,0,0,1,
scooby_state_14cb10b9e480|18|1 1,0,0,0,0,0,0,0,0,0,0,0,0,0,0,1,
scooby_state_14cb10bbb143|11|0 1,0,0,0,0,0,0,0,0,0,0,0,0,0,0,1,
scooby_state_14cb10b9e648|25|-20 1,0,0,0,0,0,0,0,0,0,0,0,0,0,0,1,
scooby_state_14cb10b95951|30|-2 1,0,0,0,0,0,0,0,0,0,0,0,0,0,0,1,
scooby_state_14cb10c3c254|31|2 1,0,0,0,0,0,0,0,0,0,0,0,0,0,0,1,
scooby_state_14cb10b95930|36|0 1,0,0,0,0,0,0,0,0,0,0,0,0,0,0,1,
scooby_state_14cb10b9f0e6|3|0 1,0,0,0,0,0,0,0,0,0,0,0,0,0,0,1,
scooby_state_14cb10b668b0|34|1 1,0,0,0,0,0,0,0,0,0,0,0,0,0,0,1,
scooby_state_14cb10c3c247|33|0 1,0,0,0,0,0,0,0,0,0,0,0,0,0,0,1,
scooby_state_14cb10b65586|22|1 1,0,0,0,0,0,0,0,0,0,0,0,0,0,0,1,
scooby_state_14cb10b6a2c0|11|5 1,0,0,0,0,0,0,0,0,0,0,0,0,0,0,1,
scooby_state_14cb10b653cc|32|1 1,0,0,0,0,0,0,0,0,0,0,0,0,0,0,1,
scooby_state_14cb10b6b760|55|2 1,0,0,0,0,0,0,0,0,0,0,0,0,0,0,1,
scooby_state_14cb10b67480|18|1 1,0,0,0,0,0,0,0,0,0,0,0,0,0,0,1,
scooby_state_14cb10b65930|36|-27 1,0,0,0,0,0,0,0,0,0,0,0,0,0,0,1,
scooby_state_14cb10b66941|37|1 1,0,0,0,0,0,0,0,0,0,0,0,0,0,0,1,
scooby_state_14cb10ba10cf|11|-37 1,0,0,0,0,0,0,0,0,0,0,0,0,0,0,1,
scooby_state_14cb10b984a0|18|1 1,0,0,0,0,0,0,0,0,0,0,0,0,0,0,1,
scooby_state_14cb10c3c203|8|1 1,0,0,0,0,0,0,0,0,0,0,0,0,0,0,1,
scooby_state_14cb10b6ab83|46|1 1,0,0,0,0,0,0,0,0,0,0,0,0,0,0,1,
scooby_state_14cb10b6adc3|55|9 1,0,0,0,0,0,0,0,0,0,0,0,0,0,0,1,
scooby_state_14cb10b95941|37|1 1,0,0,0,0,0,0,0,0,0,0,0,0,0,0,1,
scooby_state_14cb10c3c280|10|1 1,0,0,0,0,0,0,0,0,0,0,0,0,0,0,1,
scooby_state_14cb10b653bc|57|-4 1,0,0,0,0,0,0,0,0,0,0,0,0,0,0,1,
scooby_state_14cb10bbb120|4|0 1,0,0,0,0,0,0,0,0,0,0,0,0,0,0,1,
scooby_state_14cb10b699f0|39|-4 1,0,0,0,0,0,0,0,0,0,0,0,0,0,0,1,
scooby_state_14cb10b9ecc0|51|13 1,0,0,0,0,0,0,0,0,0,0,0,0,0,0,1,
scooby_state_14cb10b655c8|23|3 1,0,0,0,0,0,0,0,0,0,0,0,0,0,0,1,

scooby_action_0_deg_dist 0,352751,0,0,0,0,0,0,0,0,0,0,0,0,0,0,
scooby_action_4_deg_dist 0,13686,95,0,16,0,0,0,0,0,0,0,0,0,0,0,
scooby_action_32_deg_dist 0,8084,10,0,2,0,0,0,0,0,0,0,0,0,0,0,
scooby_action_3_deg_dist 0,13870,75,0,12,0,0,0,0,0,0,0,0,0,0,0,
scooby_action_5_deg_dist 0,12764,67,0,8,0,0,0,0,0,0,0,0,0,0,0,
scooby_action_1_deg_dist 0,7227258,383561,0,279551,0,744164,0,0,0,0,0,0,0,0,0,
scooby_action_30_deg_dist 0,8336,5,0,0,0,0,0,0,0,0,0,0,0,0,0,
scooby_action_-3_deg_dist 0,10225,22,0,0,0,0,0,0,0,0,0,0,0,0,0,
scooby_action_10_deg_dist 0,11258,77,0,74,0,211,0,0,0,0,0,0,0,0,0,
scooby_action_-1_deg_dist 0,11900,14,0,0,0,0,0,0,0,0,0,0,0,0,0,
scooby_action_23_deg_dist 0,8730,16,0,0,0,0,0,0,0,0,0,0,0,0,0,
scooby_action_-6_deg_dist 0,10252,6,0,0,0,0,0,0,0,0,0,0,0,0,0,
scooby_action_11_deg_dist 0,11515,55,0,9,0,0,0,0,0,0,0,0,0,0,0,
scooby_action_22_deg_dist 0,8966,9,0,0,0,0,0,0,0,0,0,0,0,0,0,
scooby_action_12_deg_dist 0,10744,43,0,34,0,128,0,0,0,0,0,0,0,0,0,

scooby_track_called 9128603
scooby_track_same_address 6304
scooby_track_evict 9122043

scooby_reward_demand_called 9128603
scooby_reward_demand_pt_not_found 8113095
scooby_reward_demand_pt_found 1015508
scooby_reward_demand_pt_found_total 1015508
scooby_reward_demand_has_reward 22
scooby_reward_train_called 7937726
scooby_reward_assign_reward_called 9122068
scooby_reward_no_pref 352746
scooby_reward_incorrect 7584980
scooby_reward_correct_untimely 773964
scooby_reward_correct_timely 241522
scooby_reward_out_of_bounds 168856
scooby_reward_tracker_hit 0

scooby_reward_none_low_bw 352746
scooby_reward_none_high_bw 0
scooby_reward_incorrect_low_bw 7584980
scooby_reward_incorrect_high_bw 0
scooby_reward_correct_untimely_low_bw 773964
scooby_reward_correct_untimely_high_bw 0
scooby_reward_correct_timely_low_bw 241522
scooby_reward_correct_timely_high_bw 0
scooby_reward_out_of_bounds_low_bw 168856
scooby_reward_out_of_bounds_high_bw 0
scooby_reward_tracker_hit_low_bw 0
scooby_reward_tracker_hit_high_bw 0

scooby_reward_1 0,7485406,771714,236569,136968,0,
scooby_reward_3 0,11440,329,633,1006,0,
scooby_reward_4 0,11331,320,712,1273,0,
scooby_reward_5 0,10353,246,607,1514,0,
scooby_reward_10 0,7899,200,719,2690,0,
scooby_reward_11 0,7888,107,610,2900,0,
scooby_reward_12 0,7096,160,598,3032,0,
scooby_reward_22 0,4329,26,265,4325,0,
scooby_reward_23 0,4042,27,201,4335,0,
scooby_reward_30 0,2984,8,187,5037,0,
scooby_reward_32 0,2575,8,154,5239,0,
scooby_reward_-1 0,10480,818,259,51,0,
scooby_reward_-3 0,9711,1,6,147,0,
scooby_reward_-6 0,9446,0,2,339,0,
scooby_reward_0 352746,0,0,0,0,0,

scooby_train_called 9122042
scooby_train_compute_reward 7937726

scooby_register_fill_called 8578837
scooby_register_fill_set 6932426
scooby_register_fill_set_total 6932426

scooby_register_prefetch_hit_called 4009022
scooby_register_prefetch_hit_set 1635208
scooby_register_prefetch_hit_set_total 1635208

scooby_pref_issue_scooby 13146214

learning_engine_featurewise.action.called 9128603
learning_engine_featurewise.action.explore 16517
learning_engine_featurewise.action.exploit 9112086
learning_engine_featurewise.action.fallback 7487488
learning_engine_featurewise.action.dyn_fallback_saved_bw 0
learning_engine_featurewise.action.dyn_fallback_saved_bw_acc 752260
learning_engine_featurewise.action.index_1_explored 1132
learning_engine_featurewise.action.index_1_exploited 8633402
learning_engine_featurewise.action.index_3_explored 1089
learning_engine_featurewise.action.index_3_exploited 12868
learning_engine_featurewise.action.index_4_explored 1102
learning_engine_featurewise.action.index_4_exploited 12695
learning_engine_featurewise.action.index_5_explored 1069
learning_engine_featurewise.action.index_5_exploited 11770
learning_engine_featurewise.action.index_10_explored 1145
learning_engine_featurewise.action.index_10_exploited 10475
learning_engine_featurewise.action.index_11_explored 1105
learning_engine_featurewise.action.index_11_exploited 10474
learning_engine_featurewise.action.index_12_explored 1141
learning_engine_featurewise.action.index_12_exploited 9808
learning_engine_featurewise.action.index_22_explored 1109
learning_engine_featurewise.action.index_22_exploited 7866
learning_engine_featurewise.action.index_23_explored 1096
learning_engine_featurewise.action.index_23_exploited 7650
learning_engine_featurewise.action.index_30_explored 1080
learning_engine_featurewise.action.index_30_exploited 7261
learning_engine_featurewise.action.index_32_explored 1047
learning_engine_featurewise.action.index_32_exploited 7049
learning_engine_featurewise.action.index_-1_explored 1100
learning_engine_featurewise.action.index_-1_exploited 10814
learning_engine_featurewise.action.index_-3_explored 1096
learning_engine_featurewise.action.index_-3_exploited 9151
learning_engine_featurewise.action.index_-6_explored 1098
learning_engine_featurewise.action.index_-6_exploited 9160
learning_engine_featurewise.action.index_0_explored 1108
learning_engine_featurewise.action.index_0_exploited 351643
learning_engine_featurewise.learn.called 9122042
learning_engine_featurewise.learn.su_skip_PC 0
learning_engine_featurewise.learn.su_skip_PC_Delta 0

learning_engine_featurewise.q_value_histogram.bucket_0 638690
learning_engine_featurewise.q_value_histogram.bucket_1 12948
learning_engine_featurewise.q_value_histogram.bucket_2 7540590
learning_engine_featurewise.q_value_histogram.bucket_3 59505
learning_engine_featurewise.q_value_histogram.bucket_4 74832
learning_engine_featurewise.q_value_histogram.bucket_5 532278
learning_engine_featurewise.q_value_histogram.bucket_6 253243
learning_engine_featurewise.q_value_histogram.bucket_7 0

learning_engine_featurewise.consensus.total 9112086
learning_engine_featurewise.consensus.feature_align_PC 8639527
learning_engine_featurewise.consensus.feature_align_PC_ratio 0.95
learning_engine_featurewise.consensus.feature_align_PC_Delta 8655609
learning_engine_featurewise.consensus.feature_align_PC_Delta_ratio 0.95
learning_engine_featurewise.consensus.feature_align_all 8630331
learning_engine_featurewise.consensus.feature_align_all_ratio 0.95

learning_engine_featurewise.feature_PC_min_weight 1000000.00000000
learning_engine_featurewise.feature_PC_max_weight 0.00000000
learning_engine_featurewise.feature_PC_Delta_min_weight 1000000.00000000
learning_engine_featurewise.feature_PC_Delta_max_weight 0.00000000
unique_pcs 270
unique_pages 12615
unique_trigger_pcs 57
total_bitmaps_seen 0
unique_bitmaps_seen 0

scooby_bw_epochs 3577266
scooby_bw_level_0 3243117
scooby_bw_level_1 273119
scooby_bw_level_2 44495
scooby_bw_level_3 16535

scooby_ipc_epochs 0
scooby_ipc_level_0 0
scooby_ipc_level_1 0
scooby_ipc_level_2 0
scooby_ipc_level_3 0

scooby_cache_acc_epochs 893289
scooby_cache_acc_level_0 457596
scooby_cache_acc_level_1 364033
scooby_cache_acc_level_2 55944
scooby_cache_acc_level_3 7384
scooby_cache_acc_level_4 809
scooby_cache_acc_level_5 1068
scooby_cache_acc_level_6 980
scooby_cache_acc_level_7 256
scooby_cache_acc_level_8 118
scooby_cache_acc_level_9 5101

Channel_0_RQ_row_buffer_hit 1251468
Channel_0_RQ_row_buffer_miss 4491128
Channel_0_WQ_row_buffer_hit 19633
Channel_0_WQ_row_buffer_miss 33989
Channel_0_WQ_full 0
Channel_0_dbus_congested 1764309

avg_congested_cycle 5

DRAM_bw_pochs 3577266
DRAM_bw_level_0 3243117
DRAM_bw_level_1 273119
DRAM_bw_level_2 44495
DRAM_bw_level_3 16535
