*************************************************
   ChampSim Multicore Out-of-Order Simulator
   Last compiled: Apr  3 2025 20:54:34
*************************************************
parsing config file: /home/zir/Pythia/config/pythia.ini

trace_0 /home/zir/ChampSim/ML-DPC/ChampSimTraces/gap/bc-12.trace.gz
adding L2C_PREFETCHER: Scooby
Initialize SHIP state
warmup_instructions 10000000
simulation_instructions 50000000
champsim_seed 99
measure_ipc 0
measure_ipc_epoch 1000
measure_dram_bw 1
measure_dram_bw_epoch 256
measure_cache_acc 1
measure_cache_acc_epoch 1024
l1d_perfect 0
l2c_perfect 0
llc_perfect 0
l1d_semi_perfect 0
l2c_semi_perfect 0
llc_semi_perfect 0
semi_perfect_cache_page_buffer_size 64

num_cpus 1
cpu_freq 4000
dram_io_freq 2400
page_size 4096
block_size 64
max_read_per_cycle 8
max_fill_per_cycle 1
dram_channels 1
log2_dram_channels 0
dram_ranks 1
dram_banks 8
dram_rows 65536
dram_columns 128
dram_row_size 8
dram_size 4096
dram_pages 1048576

fetch_width 6
decode_width 6
exec_width 4
lq_width 2
sq_width 2
retire_width 4
scheduler_size 128
branch_mispredict_penalty 20
rob_size 256
lq_size 72
sq_size 56
num_instr_destinations_sparc 4
num_instr_destinations 2
num_instr_sources 4

itlb_set 16
itlb_way 8
itlb_rq_size 16
itlb_wq_size 16
itlb_pq_size 0
itlb_mshr_size 8
itlb_latency 1

dtlb_set 16
dtlb_way 4
dtlb_rq_size 16
dtlb_wq_size 16
dtlb_pq_size 0
dtlb_mshr_size 8
dtlb_latency 1

stlb_set 128
stlb_way 12
stlb_rq_size 32
stlb_wq_size 32
stlb_pq_size 0
stlb_mshr_size 16
stlb_latency 8

l1i_size 32
l1i_set 64
l1i_way 8
l1i_rq_size 64
l1i_wq_size 64
l1i_pq_size 8
l1i_mshr_size 8
l1i_latency 1

l1d_size 32
l1d_set 64
l1d_way 8
l1d_rq_size 64
l1d_wq_size 64
l1d_pq_size 8
l1d_mshr_size 16
l1d_latency 4

l2c_size 256
l2c_set 512
l2c_way 8
l2c_rq_size 32
l2c_wq_size 32
l2c_pq_size 32
l2c_mshr_size 32
l2c_latency 10

llc_size 2048
llc_set 2048
llc_way 16
llc_rq_size 32
llc_wq_size 32
llc_pq_size 32
llc_mshr_size 64
llc_latency 20

dram_channel_width 8
dram_wq_size 64
dram_rq_size 64
tRP 15
tRCD 15
tCAS 12.5
dram_dbus_turn_around_time 30
dram_write_high_wm 56
dram_write_low_wm 48
min_dram_writes_per_switch 16
dram_mtps 2400
dram_dbus_return_time 13

scooby_alpha 0.0065088
scooby_gamma 0.556301
scooby_epsilon 0.00182284
scooby_state_num_bits 10
scooby_max_states 1024
scooby_seed 200
scooby_policy EGreedy
scooby_learning_type SARSA
scooby_actions 1,3,4,5,10,11,12,22,23,30,32,-1,-3,-6,0,
scooby_max_actions 15
scooby_pt_size 256
scooby_st_size 64
scooby_max_pcs 5
scooby_max_offsets 5
scooby_max_deltas 5
scooby_reward_none -4
scooby_reward_incorrect -8
scooby_reward_correct_untimely 12
scooby_reward_correct_timely 20
scooby_brain_zero_init 0
scooby_enable_reward_all 0
scooby_enable_track_multiple 0
scooby_enable_reward_out_of_bounds 1
scooby_reward_out_of_bounds -12
scooby_state_type 1
scooby_state_hash_type 11
scooby_access_debug 0
scooby_print_access_debug 0
scooby_print_access_debug_pc deadbeef
scooby_print_access_debug_pc_count 0
scooby_print_trace 0
scooby_enable_state_action_stats 1
scooby_enable_reward_tracker_hit 0
scooby_reward_tracker_hit -2
scooby_enable_featurewise_engine 1
scooby_pref_degree 1
scooby_enable_dyn_degree 1
scooby_max_to_avg_q_thresholds 0.5,1,2,
scooby_dyn_degrees 1,2,4,4,
scooby_multi_deg_select_type 2
scooby_last_pref_offset_conf_thresholds 1,3,8,
scooby_dyn_degrees_type2 1,2,4,6,
scooby_action_tracker_size 2
scooby_high_bw_thresh 4
scooby_enable_hbw_reward 1
scooby_reward_hbw_correct_timely 20
scooby_reward_hbw_correct_untimely 12
scooby_reward_hbw_incorrect -14
scooby_reward_hbw_none -2
scooby_reward_hbw_out_of_bounds -12
scooby_reward_hbw_tracker_hit -2
scooby_last_pref_offset_conf_thresholds_hbw 1,3,8,
scooby_dyn_degrees_type2_hbw 1,2,4,6,

le_enable_trace 0
le_trace_interval 0
le_trace_file_name 
le_trace_state 0
le_enable_score_plot 0
le_plot_file_name 
le_plot_actions 
le_enable_action_trace 0
le_action_trace_interval 0
le_action_trace_name 
le_enable_action_plot 0

le_featurewise_active_features PC, PC_Delta
le_featurewise_num_tilings 3,3,
le_featurewise_num_tiles 128,128,
le_featurewise_hash_types 2,2,
le_featurewise_enable_tiling_offset 1,1,
le_featurewise_max_q_thresh 0.5
le_featurewise_enable_action_fallback 1
le_featurewise_feature_weights 1,1,
le_featurewise_enable_dynamic_weight 0
le_featurewise_weight_gradient 0.001
le_featurewise_disable_adjust_weight_all_features_align 1
le_featurewise_selective_update 0
le_featurewise_pooling_type 2
le_featurewise_enable_dyn_action_fallback 1
le_featurewise_bw_acc_check_level 1
le_featurewise_acc_thresh 2
le_featurewise_enable_trace 0
le_featurewise_trace_feature_type 0
le_featurewise_trace_feature 
le_featurewise_trace_interval 0
le_featurewise_trace_record_count 0
le_featurewise_trace_file_name 
le_featurewise_enable_score_plot 0
le_featurewise_plot_actions 
le_featurewise_plot_file_name 


Heartbeat CPU  0 instructions:    1000000 cycles:     577316 heartbeat IPC: 1.73215 cumulative IPC: 1.73215 (Simulation time: 0 hr 0 min 2 sec) 
Heartbeat CPU  0 instructions:    2000002 cycles:    1121615 heartbeat IPC: 1.83723 cumulative IPC: 1.78314 (Simulation time: 0 hr 0 min 4 sec) 
Heartbeat CPU  0 instructions:    3000003 cycles:    1772887 heartbeat IPC: 1.53546 cumulative IPC: 1.69216 (Simulation time: 0 hr 0 min 6 sec) 
Heartbeat CPU  0 instructions:    4000000 cycles:    2699376 heartbeat IPC: 1.07934 cumulative IPC: 1.48182 (Simulation time: 0 hr 0 min 8 sec) 
Heartbeat CPU  0 instructions:    5000000 cycles:    3739069 heartbeat IPC: 0.96182 cumulative IPC: 1.33723 (Simulation time: 0 hr 0 min 10 sec) 
Heartbeat CPU  0 instructions:    6000002 cycles:    4784600 heartbeat IPC: 0.95645 cumulative IPC: 1.25402 (Simulation time: 0 hr 0 min 12 sec) 
Heartbeat CPU  0 instructions:    7000000 cycles:    5839651 heartbeat IPC: 0.94782 cumulative IPC: 1.19870 (Simulation time: 0 hr 0 min 14 sec) 
Heartbeat CPU  0 instructions:    8000000 cycles:    6934712 heartbeat IPC: 0.91319 cumulative IPC: 1.15362 (Simulation time: 0 hr 0 min 16 sec) 
Heartbeat CPU  0 instructions:    9000000 cycles:    8031160 heartbeat IPC: 0.91204 cumulative IPC: 1.12064 (Simulation time: 0 hr 0 min 18 sec) 
Heartbeat CPU  0 instructions:   10000000 cycles:    9148769 heartbeat IPC: 0.89477 cumulative IPC: 1.09304 (Simulation time: 0 hr 0 min 20 sec) 

Warmup complete CPU  0 instructions:   10000001 cycles:    9148770 (Simulation time: 0 hr 0 min 20 sec) 

Heartbeat CPU  0 instructions:   11000001 cycles:   17326651 heartbeat IPC: 0.12228 cumulative IPC: 0.12228 (Simulation time: 0 hr 0 min 23 sec) 
Heartbeat CPU  0 instructions:   12000000 cycles:   25830915 heartbeat IPC: 0.11759 cumulative IPC: 0.11989 (Simulation time: 0 hr 0 min 27 sec) 
Heartbeat CPU  0 instructions:   13000002 cycles:   34448713 heartbeat IPC: 0.11604 cumulative IPC: 0.11858 (Simulation time: 0 hr 0 min 31 sec) 
Heartbeat CPU  0 instructions:   14000001 cycles:   43057237 heartbeat IPC: 0.11616 cumulative IPC: 0.11796 (Simulation time: 0 hr 0 min 34 sec) 
Heartbeat CPU  0 instructions:   15000000 cycles:   51381003 heartbeat IPC: 0.12014 cumulative IPC: 0.11839 (Simulation time: 0 hr 0 min 38 sec) 
Heartbeat CPU  0 instructions:   16000000 cycles:   59848696 heartbeat IPC: 0.11810 cumulative IPC: 0.11834 (Simulation time: 0 hr 0 min 41 sec) 
Heartbeat CPU  0 instructions:   17000000 cycles:   68153710 heartbeat IPC: 0.12041 cumulative IPC: 0.11863 (Simulation time: 0 hr 0 min 45 sec) 
Heartbeat CPU  0 instructions:   18000001 cycles:   76882633 heartbeat IPC: 0.11456 cumulative IPC: 0.11811 (Simulation time: 0 hr 0 min 49 sec) 
Heartbeat CPU  0 instructions:   19000002 cycles:   85382140 heartbeat IPC: 0.11765 cumulative IPC: 0.11806 (Simulation time: 0 hr 0 min 52 sec) 
Heartbeat CPU  0 instructions:   20000000 cycles:   94145736 heartbeat IPC: 0.11411 cumulative IPC: 0.11765 (Simulation time: 0 hr 0 min 56 sec) 
Heartbeat CPU  0 instructions:   21000000 cycles:  102821112 heartbeat IPC: 0.11527 cumulative IPC: 0.11743 (Simulation time: 0 hr 1 min 0 sec) 
Heartbeat CPU  0 instructions:   22000003 cycles:  111331033 heartbeat IPC: 0.11751 cumulative IPC: 0.11744 (Simulation time: 0 hr 1 min 3 sec) 
Heartbeat CPU  0 instructions:   23000001 cycles:  120078906 heartbeat IPC: 0.11431 cumulative IPC: 0.11719 (Simulation time: 0 hr 1 min 7 sec) 
Heartbeat CPU  0 instructions:   24000000 cycles:  128875583 heartbeat IPC: 0.11368 cumulative IPC: 0.11693 (Simulation time: 0 hr 1 min 10 sec) 
Heartbeat CPU  0 instructions:   25000001 cycles:  137533156 heartbeat IPC: 0.11551 cumulative IPC: 0.11684 (Simulation time: 0 hr 1 min 14 sec) 
Heartbeat CPU  0 instructions:   26000000 cycles:  145766127 heartbeat IPC: 0.12146 cumulative IPC: 0.11712 (Simulation time: 0 hr 1 min 18 sec) 
Heartbeat CPU  0 instructions:   27000001 cycles:  154257290 heartbeat IPC: 0.11777 cumulative IPC: 0.11715 (Simulation time: 0 hr 1 min 21 sec) 
Heartbeat CPU  0 instructions:   28000000 cycles:  163178021 heartbeat IPC: 0.11210 cumulative IPC: 0.11686 (Simulation time: 0 hr 1 min 25 sec) 
Heartbeat CPU  0 instructions:   29000001 cycles:  171979996 heartbeat IPC: 0.11361 cumulative IPC: 0.11669 (Simulation time: 0 hr 1 min 29 sec) 
Heartbeat CPU  0 instructions:   30000000 cycles:  180930571 heartbeat IPC: 0.11172 cumulative IPC: 0.11643 (Simulation time: 0 hr 1 min 32 sec) 
Heartbeat CPU  0 instructions:   31000002 cycles:  189521130 heartbeat IPC: 0.11641 cumulative IPC: 0.11643 (Simulation time: 0 hr 1 min 36 sec) 
Heartbeat CPU  0 instructions:   32000000 cycles:  198209480 heartbeat IPC: 0.11510 cumulative IPC: 0.11636 (Simulation time: 0 hr 1 min 39 sec) 
Heartbeat CPU  0 instructions:   33000000 cycles:  206408213 heartbeat IPC: 0.12197 cumulative IPC: 0.11660 (Simulation time: 0 hr 1 min 43 sec) 
Heartbeat CPU  0 instructions:   34000000 cycles:  215187639 heartbeat IPC: 0.11390 cumulative IPC: 0.11648 (Simulation time: 0 hr 1 min 47 sec) 
Heartbeat CPU  0 instructions:   35000000 cycles:  223742131 heartbeat IPC: 0.11690 cumulative IPC: 0.11650 (Simulation time: 0 hr 1 min 50 sec) 
Heartbeat CPU  0 instructions:   36000000 cycles:  232552857 heartbeat IPC: 0.11350 cumulative IPC: 0.11638 (Simulation time: 0 hr 1 min 54 sec) 
Heartbeat CPU  0 instructions:   37000001 cycles:  241377919 heartbeat IPC: 0.11331 cumulative IPC: 0.11626 (Simulation time: 0 hr 1 min 58 sec) 
Heartbeat CPU  0 instructions:   38000001 cycles:  249904426 heartbeat IPC: 0.11728 cumulative IPC: 0.11630 (Simulation time: 0 hr 2 min 1 sec) 
Heartbeat CPU  0 instructions:   39000002 cycles:  258380230 heartbeat IPC: 0.11798 cumulative IPC: 0.11636 (Simulation time: 0 hr 2 min 5 sec) 
Heartbeat CPU  0 instructions:   40000000 cycles:  266822406 heartbeat IPC: 0.11845 cumulative IPC: 0.11643 (Simulation time: 0 hr 2 min 8 sec) 
Heartbeat CPU  0 instructions:   41000000 cycles:  274516394 heartbeat IPC: 0.12997 cumulative IPC: 0.11682 (Simulation time: 0 hr 2 min 12 sec) 
Heartbeat CPU  0 instructions:   42000001 cycles:  281897168 heartbeat IPC: 0.13549 cumulative IPC: 0.11732 (Simulation time: 0 hr 2 min 16 sec) 
Heartbeat CPU  0 instructions:   43000001 cycles:  290617368 heartbeat IPC: 0.11468 cumulative IPC: 0.11724 (Simulation time: 0 hr 2 min 20 sec) 
Heartbeat CPU  0 instructions:   44000000 cycles:  299417157 heartbeat IPC: 0.11364 cumulative IPC: 0.11713 (Simulation time: 0 hr 2 min 23 sec) 
Heartbeat CPU  0 instructions:   45000003 cycles:  307978681 heartbeat IPC: 0.11680 cumulative IPC: 0.11712 (Simulation time: 0 hr 2 min 27 sec) 
Heartbeat CPU  0 instructions:   46000003 cycles:  316545777 heartbeat IPC: 0.11673 cumulative IPC: 0.11711 (Simulation time: 0 hr 2 min 31 sec) 
Heartbeat CPU  0 instructions:   47000003 cycles:  324273049 heartbeat IPC: 0.12941 cumulative IPC: 0.11741 (Simulation time: 0 hr 2 min 34 sec) 
Heartbeat CPU  0 instructions:   48000000 cycles:  332721514 heartbeat IPC: 0.11836 cumulative IPC: 0.11744 (Simulation time: 0 hr 2 min 38 sec) 
Heartbeat CPU  0 instructions:   49000003 cycles:  341013740 heartbeat IPC: 0.12060 cumulative IPC: 0.11752 (Simulation time: 0 hr 2 min 42 sec) 
Heartbeat CPU  0 instructions:   50000002 cycles:  349462626 heartbeat IPC: 0.11836 cumulative IPC: 0.11754 (Simulation time: 0 hr 2 min 45 sec) 
Heartbeat CPU  0 instructions:   51000002 cycles:  357203110 heartbeat IPC: 0.12919 cumulative IPC: 0.11780 (Simulation time: 0 hr 2 min 49 sec) 
Heartbeat CPU  0 instructions:   52000000 cycles:  365512095 heartbeat IPC: 0.12035 cumulative IPC: 0.11786 (Simulation time: 0 hr 2 min 53 sec) 
Heartbeat CPU  0 instructions:   53000000 cycles:  372885756 heartbeat IPC: 0.13562 cumulative IPC: 0.11822 (Simulation time: 0 hr 2 min 56 sec) 
Heartbeat CPU  0 instructions:   54000000 cycles:  381959487 heartbeat IPC: 0.11021 cumulative IPC: 0.11802 (Simulation time: 0 hr 3 min 0 sec) 
Heartbeat CPU  0 instructions:   55000001 cycles:  390522683 heartbeat IPC: 0.11678 cumulative IPC: 0.11799 (Simulation time: 0 hr 3 min 4 sec) 
Heartbeat CPU  0 instructions:   56000000 cycles:  399204485 heartbeat IPC: 0.11518 cumulative IPC: 0.11793 (Simulation time: 0 hr 3 min 7 sec) 
Heartbeat CPU  0 instructions:   57000001 cycles:  408004478 heartbeat IPC: 0.11364 cumulative IPC: 0.11784 (Simulation time: 0 hr 3 min 11 sec) 
Heartbeat CPU  0 instructions:   58000000 cycles:  415114753 heartbeat IPC: 0.14064 cumulative IPC: 0.11824 (Simulation time: 0 hr 3 min 15 sec) 
Heartbeat CPU  0 instructions:   59000001 cycles:  424034538 heartbeat IPC: 0.11211 cumulative IPC: 0.11810 (Simulation time: 0 hr 3 min 18 sec) 
Heartbeat CPU  0 instructions:   60000000 cycles:  433066322 heartbeat IPC: 0.11072 cumulative IPC: 0.11795 (Simulation time: 0 hr 3 min 22 sec) 
Finished CPU 0 instructions: 50000000 cycles: 423917560 cumulative IPC: 0.11795 (Simulation time: 0 hr 3 min 22 sec) 

ChampSim completed all CPUs

[ROI Statistics]
Core_0_instructions 50000000
Core_0_cycles 423917560
Core_0_IPC 0.11795

Core_0_branch_prediction_accuracy 84.44426
Core_0_branch_MPKI 27.01916
Core_0_average_ROB_occupancy_at_mispredict 45.01432

Core_0_L1D_total_access 15887394
Core_0_L1D_total_hit 11748310
Core_0_L1D_total_miss 4139084
Core_0_L1D_loads 12819280
Core_0_L1D_load_hit 8707227
Core_0_L1D_load_miss 4112053
Core_0_L1D_RFOs 3068114
Core_0_L1D_RFO_hit 3041083
Core_0_L1D_RFO_miss 27031
Core_0_L1D_prefetches 0
Core_0_L1D_prefetch_hit 0
Core_0_L1D_prefetch_miss 0
Core_0_L1D_writebacks 0
Core_0_L1D_writeback_hit 0
Core_0_L1D_writeback_miss 0
Core_0_L1D_prefetch_requested 0
Core_0_L1D_prefetch_dropped 0
Core_0_L1D_prefetch_issued 0
Core_0_L1D_prefetch_filled 0
Core_0_L1D_prefetch_useful 0
Core_0_L1D_prefetch_useless 0
Core_0_L1D_prefetch_late 0
Core_0_L1D_average_miss_latency 153.05210

Core_0_L1D_rq_access 13992253
Core_0_L1D_rq_forward 0
Core_0_L1D_rq_merged 1079616
Core_0_L1D_rq_to_cache 12912637
Core_0_L1D_rq_full 0

Core_0_L1D_wq_access 3108363
Core_0_L1D_wq_forward 0
Core_0_L1D_wq_merged 10
Core_0_L1D_wq_to_cache 3108353
Core_0_L1D_wq_full 0

Core_0_L1D_pq_access 0
Core_0_L1D_pq_forward 0
Core_0_L1D_pq_merged 0
Core_0_L1D_pq_to_cache 0
Core_0_L1D_pq_full 0

Core_0_L1D_acc_epochs 348578
Core_0_L1D_acc_level_0 348578
Core_0_L1D_acc_level_1 0
Core_0_L1D_acc_level_2 0
Core_0_L1D_acc_level_3 0
Core_0_L1D_acc_level_4 0
Core_0_L1D_acc_level_5 0
Core_0_L1D_acc_level_6 0
Core_0_L1D_acc_level_7 0
Core_0_L1D_acc_level_8 0
Core_0_L1D_acc_level_9 0

Core_0_L1I_total_access 7892452
Core_0_L1I_total_hit 7892452
Core_0_L1I_total_miss 0
Core_0_L1I_loads 7892452
Core_0_L1I_load_hit 7892452
Core_0_L1I_load_miss 0
Core_0_L1I_RFOs 0
Core_0_L1I_RFO_hit 0
Core_0_L1I_RFO_miss 0
Core_0_L1I_prefetches 0
Core_0_L1I_prefetch_hit 0
Core_0_L1I_prefetch_miss 0
Core_0_L1I_writebacks 0
Core_0_L1I_writeback_hit 0
Core_0_L1I_writeback_miss 0
Core_0_L1I_prefetch_requested 0
Core_0_L1I_prefetch_dropped 0
Core_0_L1I_prefetch_issued 0
Core_0_L1I_prefetch_filled 0
Core_0_L1I_prefetch_useful 0
Core_0_L1I_prefetch_useless 0
Core_0_L1I_prefetch_late 0
Core_0_L1I_average_miss_latency -nan

Core_0_L1I_rq_access 49999953
Core_0_L1I_rq_forward 0
Core_0_L1I_rq_merged 42107501
Core_0_L1I_rq_to_cache 7892452
Core_0_L1I_rq_full 0

Core_0_L1I_wq_access 0
Core_0_L1I_wq_forward 0
Core_0_L1I_wq_merged 0
Core_0_L1I_wq_to_cache 0
Core_0_L1I_wq_full 0

Core_0_L1I_pq_access 0
Core_0_L1I_pq_forward 0
Core_0_L1I_pq_merged 0
Core_0_L1I_pq_to_cache 0
Core_0_L1I_pq_full 0

Core_0_L1I_acc_epochs 348578
Core_0_L1I_acc_level_0 348578
Core_0_L1I_acc_level_1 0
Core_0_L1I_acc_level_2 0
Core_0_L1I_acc_level_3 0
Core_0_L1I_acc_level_4 0
Core_0_L1I_acc_level_5 0
Core_0_L1I_acc_level_6 0
Core_0_L1I_acc_level_7 0
Core_0_L1I_acc_level_8 0
Core_0_L1I_acc_level_9 0

Core_0_L2C_total_access 10014129
Core_0_L2C_total_hit 2850951
Core_0_L2C_total_miss 7163178
Core_0_L2C_loads 4112052
Core_0_L2C_load_hit 439058
Core_0_L2C_load_miss 3672994
Core_0_L2C_RFOs 27031
Core_0_L2C_RFO_hit 93
Core_0_L2C_RFO_miss 26938
Core_0_L2C_prefetches 4346530
Core_0_L2C_prefetch_hit 884155
Core_0_L2C_prefetch_miss 3462375
Core_0_L2C_writebacks 1528516
Core_0_L2C_writeback_hit 1527645
Core_0_L2C_writeback_miss 871
Core_0_L2C_prefetch_requested 5769895
Core_0_L2C_prefetch_dropped 135
Core_0_L2C_prefetch_issued 5769760
Core_0_L2C_prefetch_filled 4192521
Core_0_L2C_prefetch_useful 420722
Core_0_L2C_prefetch_useless 3770014
Core_0_L2C_prefetch_late 69854
Core_0_L2C_average_miss_latency 157.20635

Core_0_L2C_rq_access 4139084
Core_0_L2C_rq_forward 0
Core_0_L2C_rq_merged 0
Core_0_L2C_rq_to_cache 4139083
Core_0_L2C_rq_full 0

Core_0_L2C_wq_access 1528516
Core_0_L2C_wq_forward 1
Core_0_L2C_wq_merged 0
Core_0_L2C_wq_to_cache 1528516
Core_0_L2C_wq_full 0

Core_0_L2C_pq_access 5769760
Core_0_L2C_pq_forward 0
Core_0_L2C_pq_merged 234745
Core_0_L2C_pq_to_cache 5535015
Core_0_L2C_pq_full 0

Core_0_L2C_acc_epochs 348578
Core_0_L2C_acc_level_0 226648
Core_0_L2C_acc_level_1 98128
Core_0_L2C_acc_level_2 19150
Core_0_L2C_acc_level_3 3073
Core_0_L2C_acc_level_4 375
Core_0_L2C_acc_level_5 449
Core_0_L2C_acc_level_6 70
Core_0_L2C_acc_level_7 66
Core_0_L2C_acc_level_8 98
Core_0_L2C_acc_level_9 521

Core_0_LLC_total_access 8683825
Core_0_LLC_total_hit 3677593
Core_0_LLC_total_miss 5006232
Core_0_LLC_loads 3604680
Core_0_LLC_load_hit 1595280
Core_0_LLC_load_miss 2009400
Core_0_LLC_RFOs 26938
Core_0_LLC_RFO_hit 142
Core_0_LLC_RFO_miss 26796
Core_0_LLC_prefetches 3530688
Core_0_LLC_prefetch_hit 1198945
Core_0_LLC_prefetch_miss 2331743
Core_0_LLC_writebacks 1521519
Core_0_LLC_writeback_hit 883226
Core_0_LLC_writeback_miss 638293
Core_0_LLC_prefetch_requested 0
Core_0_LLC_prefetch_dropped 0
Core_0_LLC_prefetch_issued 0
Core_0_LLC_prefetch_filled 2829530
Core_0_LLC_prefetch_useful 140822
Core_0_LLC_prefetch_useless 2680336
Core_0_LLC_prefetch_late 0
Core_0_LLC_average_miss_latency 178.88250

Core_0_LLC_rq_access 3631618
Core_0_LLC_rq_forward 0
Core_0_LLC_rq_merged 0
Core_0_LLC_rq_to_cache 3631618
Core_0_LLC_rq_full 0

Core_0_LLC_wq_access 1521519
Core_0_LLC_wq_forward 0
Core_0_LLC_wq_merged 0
Core_0_LLC_wq_to_cache 1521519
Core_0_LLC_wq_full 0

Core_0_LLC_pq_access 4262376
Core_0_LLC_pq_forward 0
Core_0_LLC_pq_merged 0
Core_0_LLC_pq_to_cache 4262376
Core_0_LLC_pq_full 0

Core_0_LLC_acc_epochs 422917
Core_0_LLC_acc_level_0 317195
Core_0_LLC_acc_level_1 73231
Core_0_LLC_acc_level_2 22469
Core_0_LLC_acc_level_3 6002
Core_0_LLC_acc_level_4 812
Core_0_LLC_acc_level_5 2676
Core_0_LLC_acc_level_6 203
Core_0_LLC_acc_level_7 89
Core_0_LLC_acc_level_8 21
Core_0_LLC_acc_level_9 219

Core_0_major_page_fault 0
Core_0_minor_page_fault 10294

scooby_st_lookup 4693005
scooby_st_hit 2790840
scooby_st_evict 1902101
scooby_st_insert 1902165
scooby_st_streaming 0

scooby_predict_called 4693005
scooby_predict_out_of_bounds 104245
scooby_predict_action_1 3428067
scooby_predict_issue_action_1 3424931
scooby_predict_hit_action_1 3136
scooby_predict_out_of_bounds_action_1 51495
scooby_predict_action_3 19629
scooby_predict_issue_action_3 19355
scooby_predict_hit_action_3 274
scooby_predict_out_of_bounds_action_3 1663
scooby_predict_action_4 18413
scooby_predict_issue_action_4 18049
scooby_predict_hit_action_4 364
scooby_predict_out_of_bounds_action_4 2144
scooby_predict_action_5 20565
scooby_predict_issue_action_5 20402
scooby_predict_hit_action_5 163
scooby_predict_out_of_bounds_action_5 2705
scooby_predict_action_10 13540
scooby_predict_issue_action_10 13442
scooby_predict_hit_action_10 98
scooby_predict_out_of_bounds_action_10 4373
scooby_predict_action_11 12919
scooby_predict_issue_action_11 12814
scooby_predict_hit_action_11 105
scooby_predict_out_of_bounds_action_11 4642
scooby_predict_action_12 12152
scooby_predict_issue_action_12 12078
scooby_predict_hit_action_12 74
scooby_predict_out_of_bounds_action_12 4904
scooby_predict_action_22 7463
scooby_predict_issue_action_22 7433
scooby_predict_hit_action_22 30
scooby_predict_out_of_bounds_action_22 7168
scooby_predict_action_23 7613
scooby_predict_issue_action_23 7583
scooby_predict_hit_action_23 30
scooby_predict_out_of_bounds_action_23 7382
scooby_predict_action_30 4702
scooby_predict_issue_action_30 4686
scooby_predict_hit_action_30 16
scooby_predict_out_of_bounds_action_30 8429
scooby_predict_action_32 4057
scooby_predict_issue_action_32 4035
scooby_predict_hit_action_32 22
scooby_predict_out_of_bounds_action_32 8802
scooby_predict_action_-1 17098
scooby_predict_issue_action_-1 16610
scooby_predict_hit_action_-1 488
scooby_predict_out_of_bounds_action_-1 41
scooby_predict_action_-3 16981
scooby_predict_issue_action_-3 16442
scooby_predict_hit_action_-3 539
scooby_predict_out_of_bounds_action_-3 148
scooby_predict_action_-6 16858
scooby_predict_issue_action_-6 16219
scooby_predict_hit_action_-6 639
scooby_predict_out_of_bounds_action_-6 349
scooby_predict_action_0 988703
scooby_predict_issue_action_0 0
scooby_predict_hit_action_0 0
scooby_predict_out_of_bounds_action_0 0
scooby_predict_multi_deg_called 795877
scooby_predict_predicted 5769895
scooby_predict_multi_deg 2175816
scooby_predict_multi_deg_2 776066
scooby_predict_multi_deg_3 464107
scooby_predict_multi_deg_4 451869
scooby_predict_multi_deg_5 245473
scooby_predict_multi_deg_6 238301
scooby_predict_multi_deg_7 0
scooby_predict_multi_deg_8 0
scooby_predict_multi_deg_9 0
scooby_predict_multi_deg_10 0
scooby_predict_multi_deg_11 0
scooby_predict_multi_deg_12 0
scooby_predict_multi_deg_13 0
scooby_predict_multi_deg_14 0
scooby_predict_multi_deg_15 0
scooby_predict_multi_deg_16 0

scooby_selected_deg_1 2798202
scooby_selected_deg_2 306011
scooby_selected_deg_3 0
scooby_selected_deg_4 214580
scooby_selected_deg_5 0
scooby_selected_deg_6 275286
scooby_selected_deg_7 0
scooby_selected_deg_8 0
scooby_selected_deg_9 0
scooby_selected_deg_10 0
scooby_selected_deg_11 0
scooby_selected_deg_12 0
scooby_selected_deg_13 0
scooby_selected_deg_14 0
scooby_selected_deg_15 0
scooby_selected_deg_16 0

scooby_state_55fd7d4edee2|0|0 33077,60,19,36,65,51,28,39,103,23,28,15,16,17,10730,44307,
scooby_state_55fd7d4edee2|1|0 31691,56,30,31,54,33,29,28,87,25,31,17,10,18,10199,42339,
scooby_state_55fd7d4edee2|3|0 30295,39,28,24,38,28,23,17,92,15,30,12,18,12,9371,40042,
scooby_state_55fd7d4edee2|2|0 30073,48,20,25,54,30,17,23,87,16,21,8,19,15,9575,40031,
scooby_state_55fd7d4edee2|4|0 28056,40,14,22,50,30,23,18,51,17,11,7,17,24,8897,37277,
scooby_state_55fd7d4edee2|7|0 25245,27,21,16,30,17,22,17,51,14,21,11,12,8,7539,33051,
scooby_state_55fd7d4edee2|5|0 24151,31,23,15,25,25,16,11,50,17,15,12,5,10,7364,31770,
scooby_state_55fd7d4edee2|6|0 23410,32,14,12,25,25,14,24,48,10,18,10,11,6,7135,30794,
scooby_state_55fd7d4edee2|11|0 22259,22,15,12,17,15,9,12,23,10,10,10,7,12,6233,28666,
scooby_state_55fd7d4edee2|8|0 20691,15,17,12,20,11,12,26,25,9,14,8,14,8,6021,26903,
scooby_state_55fd7d4edee2|10|0 20440,25,11,12,23,17,12,13,31,10,10,12,8,5,6006,26635,
scooby_state_55fd7d4edee2|9|0 19479,22,18,12,13,15,8,14,23,5,20,15,10,3,5693,25350,
scooby_state_55fd7d4edee2|16|0 19231,11,11,8,11,13,4,10,12,12,10,15,7,7,5198,24560,
scooby_state_55fd7d4edee2|13|0 18944,19,7,10,15,6,7,11,23,10,11,14,4,4,5226,24311,
scooby_state_55fd7d4edee2|15|0 18859,21,9,11,14,9,6,6,12,6,5,8,11,7,5107,24091,
scooby_state_55fd7d4edeca|0|0 17807,31,20,20,29,16,20,17,31,43,18,16,19,16,5092,23195,
scooby_state_55fd7d4edee2|14|0 18005,12,10,7,11,9,8,8,23,8,8,10,10,6,5043,23178,
scooby_state_55fd7d4edee2|12|0 17532,17,11,8,13,18,9,12,21,7,11,5,11,6,5006,22687,
scooby_state_55fd7d4edee2|18|0 17296,12,11,9,11,6,5,7,12,7,1,4,5,5,4590,21981,
scooby_state_55fd7d4edee2|17|0 17166,14,7,10,8,5,5,11,17,8,8,10,8,3,4522,21802,
scooby_state_55fd7d4edee2|19|0 16613,15,8,9,9,9,4,12,13,4,7,7,7,7,4414,21138,
scooby_state_55fd7d4edeca|1|0 16056,13,19,27,25,14,22,15,16,29,25,18,16,6,4571,20872,
scooby_state_55fd7d4edee2|23|0 15408,8,4,2,11,8,9,6,5,4,6,6,6,7,3994,19484,
scooby_state_55fd7d4edeca|2|0 14859,20,17,9,21,17,21,15,15,20,14,9,9,13,4344,19403,
scooby_state_55fd7d4edee2|20|0 15120,8,8,5,5,6,4,4,17,3,3,12,2,5,3849,19051,
scooby_state_55fd7d4edeca|3|0 14378,15,16,16,24,14,18,16,15,13,17,16,19,11,4225,18813,
scooby_state_55fd7d4edee2|27|0 14899,9,8,8,3,4,6,6,7,8,5,10,5,5,3800,18783,
scooby_state_55fd7d4edeca|5|0 14260,15,13,13,20,16,11,12,17,26,15,13,4,6,4166,18607,
scooby_state_55fd7d4edeca|6|0 14094,16,12,8,12,12,10,8,17,18,16,14,11,15,4159,18422,
scooby_state_55fd7d4edeca|4|0 13814,17,16,13,16,20,16,12,14,22,15,11,19,7,4057,18069,
scooby_state_55fd7d4edee2|24|0 13940,9,7,6,9,2,5,7,13,6,6,9,8,6,3564,17597,
scooby_state_55fd7d4edee2|21|0 13458,9,4,7,6,12,6,10,13,5,6,3,5,7,3479,17030,
scooby_state_55fd7d4edeca|9|0 12767,11,20,9,12,9,9,14,13,9,10,8,3,7,3772,16673,
scooby_state_55fd7d4edee2|22|0 13063,11,5,6,8,9,7,2,5,7,6,9,7,5,3306,16456,
scooby_state_55fd7d4edeca|8|0 12535,13,13,10,14,13,8,7,8,17,8,8,12,9,3697,16372,
scooby_state_55fd7d4edeca|7|0 12402,19,15,17,20,14,18,7,11,13,11,13,13,6,3625,16204,
scooby_state_55fd7d4edeca|10|0 12439,8,13,13,12,7,7,12,12,8,9,7,5,11,3548,16111,
scooby_state_55fd7d4edee2|29|0 12709,8,2,5,4,3,2,4,6,7,3,4,5,5,3239,16006,
scooby_state_55fd7d4edee2|26|0 12676,5,4,4,8,6,1,9,5,6,5,10,5,7,3245,15996,
scooby_state_55fd7d4edeca|11|0 11795,8,16,10,10,13,11,8,7,12,6,12,17,11,3475,15411,
scooby_state_55fd7d4edee2|25|0 12174,9,5,2,5,3,3,6,3,7,6,7,6,9,3153,15398,
scooby_state_55fd7d4edee2|32|0 12148,11,3,9,3,5,6,5,5,2,3,14,6,6,3098,15324,
scooby_state_55fd7d4edee2|31|0 12112,9,4,4,2,5,3,6,2,10,6,7,6,10,3032,15218,
scooby_state_55fd7d4edeca|12|0 11627,8,9,6,12,6,8,6,12,9,15,13,9,8,3347,15095,
scooby_state_55fd7d4edee2|28|0 11953,6,4,4,3,4,6,5,5,5,3,2,4,5,3015,15024,
scooby_state_55fd7d4edeca|13|0 11003,10,10,6,9,12,9,13,11,8,11,4,14,5,3116,14241,
scooby_state_55fd7d4edeca|14|0 11009,13,7,7,6,9,8,13,8,13,9,5,5,9,3105,14226,
scooby_state_55fd7d4edee2|33|0 11344,9,4,8,1,5,2,6,4,10,6,5,3,2,2774,14183,
scooby_state_55fd7d4edee2|30|0 11173,6,7,1,7,8,2,5,6,7,3,5,3,8,2858,14099,
scooby_state_55fd7d4edee2|36|0 11147,5,4,2,6,3,2,4,0,3,4,2,0,3,2680,13865,
scooby_state_55fd7d4edee2|37|0 10919,4,5,4,8,1,9,5,5,4,3,4,4,4,2749,13728,
scooby_state_55fd7d4edeca|16|0 10588,12,8,4,10,14,7,7,7,9,5,8,14,13,3010,13716,
scooby_state_55fd7d4edeca|15|0 10541,1,14,8,7,6,7,9,8,17,8,6,7,5,3046,13690,
scooby_state_55fd7d4edee2|44|0 10962,9,8,5,7,4,1,2,5,3,5,6,4,5,2658,13684,
scooby_state_55fd7d4edeca|17|0 10318,11,11,12,12,9,7,9,13,8,12,6,8,7,2781,13224,
scooby_state_55fd7d4edee2|34|0 10470,6,3,5,1,2,4,4,4,3,5,7,3,2,2557,13076,
scooby_state_55fd7d4edee2|38|0 10306,6,3,3,7,7,6,6,8,4,4,2,8,3,2524,12897,
scooby_state_55fd7d4edee2|40|0 10264,3,7,4,7,4,4,8,3,3,2,3,2,2,2474,12790,
scooby_state_55fd7d4edeca|18|0 9832,8,8,7,5,6,7,7,9,5,7,6,4,8,2773,12692,
scooby_state_55fd7d4edeca|23|0 9975,7,7,6,5,7,7,6,4,7,5,5,4,4,2641,12690,
scooby_state_55fd7d4edee2|35|0 10159,5,7,4,8,3,6,5,0,2,3,4,1,1,2463,12671,
scooby_state_55fd7d4edeca|20|0 9799,5,9,6,17,11,7,4,5,9,5,6,2,7,2730,12622,
scooby_state_55fd7d4edee2|42|0 10020,4,4,3,2,5,4,3,5,3,4,2,3,4,2433,12499,
scooby_state_55fd7d4edee2|46|0 10079,5,10,3,3,3,3,5,3,2,4,3,6,4,2341,12474,
scooby_state_55fd7d4edeca|21|0 9626,1,8,5,8,9,6,5,4,5,7,5,6,7,2651,12353,
scooby_state_55fd7d4edee2|39|0 9839,5,10,3,6,3,1,6,5,5,3,4,3,0,2436,12329,
scooby_state_55fd7d4edeca|22|0 9648,8,10,7,8,5,4,4,4,7,5,6,4,10,2554,12284,
scooby_state_55fd7d4edee2|41|0 9884,4,6,3,3,6,6,2,3,2,4,3,3,3,2331,12263,
scooby_state_55fd7d4edeca|19|0 9544,8,10,8,7,11,7,12,6,7,7,7,4,5,2603,12246,
scooby_state_55fd7d4edeca|25|0 9425,7,3,3,3,6,8,7,8,7,3,2,5,6,2480,11973,
scooby_state_55fd7d4edeca|26|0 9357,3,8,5,6,5,6,10,6,4,9,6,3,3,2456,11887,
scooby_state_55fd7d4edeca|24|0 9185,2,7,4,12,7,6,8,6,7,4,5,4,7,2503,11767,
scooby_state_55fd7d4edee2|47|0 9256,10,2,7,2,3,7,4,6,2,2,6,0,1,2242,11550,
scooby_state_55fd7d4edeca|28|0 8861,7,7,2,5,3,6,8,2,4,3,6,5,5,2336,11260,
scooby_state_55fd7d4edee2|43|0 8950,6,3,4,2,7,2,4,4,2,3,3,4,5,2212,11211,
scooby_state_55fd7d4edeca|29|0 8628,7,4,9,5,7,8,1,5,3,1,6,3,9,2231,10927,
scooby_state_55fd7d4edeca|27|0 8532,6,2,5,7,3,6,11,4,6,3,12,1,7,2306,10911,
scooby_state_55fd7d4edee2|48|0 8645,4,4,2,1,5,2,4,2,1,3,6,2,4,2031,10716,
scooby_state_55fd7d4edeca|30|0 8464,4,9,5,7,3,4,3,2,7,3,2,4,4,2157,10678,
scooby_state_55fd7d4edee2|51|0 8582,2,2,4,4,5,4,2,4,6,2,2,5,3,2045,10672,
scooby_state_55fd7d4edee2|49|0 8539,2,4,3,2,2,2,4,2,3,3,1,3,3,2097,10670,
scooby_state_55fd7d4edee2|45|0 8628,7,2,0,4,3,5,1,2,3,2,2,3,4,1972,10638,
scooby_state_55fd7d4edee2|50|0 8556,3,2,5,4,5,3,1,3,4,3,4,4,2,2037,10636,
scooby_state_55fd7d4edeca|31|0 8421,2,7,4,3,6,5,5,2,3,5,7,5,3,2156,10634,
scooby_state_55fd7d4edee2|52|0 8532,6,3,4,6,3,4,1,3,0,6,3,5,3,1992,10571,
scooby_state_55fd7d4edeca|32|0 8122,5,7,7,6,7,8,5,7,4,3,8,2,5,2118,10314,
scooby_state_55fd7d4edee2|61|0 8116,2,3,4,3,2,6,3,3,2,1,2,3,4,2058,10212,
scooby_state_55fd7d4edee2|55|0 8164,2,3,3,1,3,3,4,4,3,3,5,2,6,1966,10172,
scooby_state_55fd7d4edeca|35|0 7882,3,6,5,4,3,7,5,5,7,5,4,1,5,2026,9968,
scooby_state_55fd7d4edeca|34|0 7589,3,6,4,6,5,2,3,2,9,3,4,5,8,1982,9631,
scooby_state_55fd7d4edeca|33|0 7487,3,5,7,2,5,4,5,3,4,4,6,7,3,1973,9518,
scooby_state_55fd7d4edee2|56|0 7603,3,0,4,1,4,4,3,2,5,1,3,3,4,1791,9431,
scooby_state_55fd7d4edee2|57|0 7566,2,1,6,2,6,3,1,5,2,1,3,3,4,1813,9418,
scooby_state_55fd7d4edeca|36|0 7389,6,2,5,7,5,10,2,1,4,4,5,3,4,1907,9354,
scooby_state_55fd7d4edee2|59|0 7371,0,5,1,3,3,6,3,2,6,1,4,4,2,1743,9154,
scooby_state_55fd7d4edee2|58|0 7281,1,3,3,4,2,6,5,8,3,3,0,9,3,1814,9145,
scooby_state_55fd7d4edeca|38|0 7228,8,3,10,3,4,3,5,3,3,3,6,3,2,1857,9141,
scooby_state_55fd7d4edeca|41|0 7220,5,7,3,4,2,9,7,7,3,8,4,2,3,1821,9105,
scooby_state_55fd7d4edeca|40|0 7146,5,8,2,2,4,8,6,3,4,4,6,6,1,1852,9057,
scooby_state_55fd7d4edeca|39|0 7202,2,2,1,1,7,4,4,7,2,5,2,6,5,1785,9035,
scooby_state_55fd7d4edee2|53|0 7218,4,2,3,4,4,3,5,6,0,2,5,5,2,1721,8984,
scooby_state_55fd7d4edeca|44|0 7087,9,6,8,5,5,4,4,4,1,3,2,7,5,1785,8935,
scooby_state_55fd7d4edeca|43|0 7146,4,4,8,4,2,9,6,2,3,4,5,2,2,1685,8886,
scooby_state_55fd7d4edeca|42|0 7083,4,8,3,4,3,5,5,3,6,3,4,10,3,1702,8846,
scooby_state_55fd7d4edee2|60|0 6997,5,5,5,2,2,2,2,0,2,6,3,3,5,1656,8695,
scooby_state_55fd7d4edeca|46|0 7097,5,5,8,4,8,3,7,2,3,5,2,2,2,1306,8459,
scooby_state_55fd7d4edee2|63|0 6570,3,2,3,3,2,4,4,2,3,0,6,2,6,1581,8191,
scooby_state_55fd7d4edeca|47|0 6527,5,2,1,4,3,6,5,4,5,1,6,2,4,1599,8174,
scooby_state_55fd7d4edeca|49|0 6550,4,3,4,3,4,6,5,4,5,5,7,3,4,1564,8171,
scooby_state_55fd7d4edee2|62|0 6655,3,0,3,5,4,1,2,4,4,0,1,5,3,1481,8171,
scooby_state_55fd7d4edeca|37|0 6463,8,3,5,5,3,3,0,1,2,5,3,6,6,1625,8138,
scooby_state_55fd7d4edeca|45|0 6659,4,5,4,1,5,6,3,5,3,3,8,1,3,1409,8119,
scooby_state_55fd7d4edeca|50|0 6457,8,2,4,2,5,3,6,3,5,10,7,4,6,1578,8100,
scooby_state_55fd7d4edee2|54|0 6380,3,0,2,8,2,0,6,1,1,1,2,1,1,1553,7961,
scooby_state_55fd7d4edeca|51|0 6218,7,10,3,4,3,5,4,1,1,8,6,2,5,1566,7843,
scooby_state_55fd7d4edeca|53|0 6252,3,0,5,2,3,2,2,2,2,4,2,3,6,1514,7802,
scooby_state_55fd7d4edeca|54|0 6227,5,9,0,5,9,6,1,3,1,2,6,4,2,1516,7796,
scooby_state_55fd7d4edeca|48|0 6106,6,4,4,5,1,2,3,1,4,4,0,4,7,1507,7658,
scooby_state_55fd7d4edeca|56|0 6086,3,4,8,5,7,5,1,4,2,5,5,3,2,1511,7651,
scooby_state_55fd7d4edeca|52|0 6009,4,3,4,2,3,5,6,5,2,1,4,0,2,1452,7502,
scooby_state_55fd7d4edeca|57|0 5873,7,5,2,1,2,4,3,3,5,7,3,2,6,1436,7359,
scooby_state_55fd7d4edeca|58|0 5822,4,4,2,6,3,1,2,3,4,0,2,5,6,1487,7351,
scooby_state_55fd7d4edeca|63|0 5723,3,4,2,4,4,2,3,4,5,3,6,6,3,1425,7197,
scooby_state_55fd7d4edeca|55|0 5587,3,3,3,4,4,2,4,4,2,3,1,2,4,1497,7123,
scooby_state_55fd7d4edeca|60|0 5722,3,6,4,2,1,2,3,7,1,1,2,5,5,1346,7110,
scooby_state_55fd7d4edeca|61|0 5662,3,3,4,3,1,6,6,4,4,1,6,2,5,1360,7070,
scooby_state_55fd7d4edeca|59|0 5576,3,2,3,3,3,2,2,0,3,2,1,4,4,1399,7007,
scooby_state_55fd7d4edeca|62|0 5564,10,6,3,5,6,4,4,3,2,3,2,3,2,1305,6922,
scooby_state_55fd7d4edee2|17|1 2934,8,8,8,5,5,8,4,3,3,5,5,3,4,1012,4015,
scooby_state_55fd7d4edee2|32|1 2867,6,10,8,4,8,9,7,3,4,3,3,3,7,930,3872,
scooby_state_55fd7d4edee2|41|1 2812,4,7,4,8,7,6,4,3,0,5,3,7,7,959,3836,
scooby_state_55fd7d4edee2|28|1 2868,6,6,9,7,10,7,4,4,3,4,4,6,4,877,3819,
scooby_state_55fd7d4edee2|33|1 2844,4,5,10,7,5,9,11,5,1,0,6,6,4,861,3778,
scooby_state_55fd7d4edee2|42|1 2807,6,8,5,7,5,3,5,4,2,1,4,1,5,904,3767,
scooby_state_55fd7d4edee2|24|1 2817,7,8,10,11,4,10,5,2,1,4,3,4,1,843,3730,
scooby_state_55fd7d4edee2|27|1 2729,11,9,9,8,10,7,5,4,4,5,4,3,1,837,3646,
scooby_state_55fd7d4edee2|11|1 2627,7,1,4,5,10,6,6,5,2,2,4,4,2,920,3605,
scooby_state_55fd7d4edee2|15|1 2631,5,7,6,10,4,5,3,4,1,4,3,3,5,912,3603,
scooby_state_55fd7d4edee2|49|1 2543,5,8,7,9,2,10,5,3,2,5,3,4,2,956,3564,
scooby_state_55fd7d4edee2|3|1 2671,10,2,7,5,5,7,7,5,3,3,4,1,2,829,3561,
scooby_state_55fd7d4edee2|57|1 2499,7,5,11,8,6,2,8,3,7,4,6,6,2,981,3555,
scooby_state_55fd7d4edee2|16|1 2610,5,7,12,8,4,5,6,2,7,3,2,7,3,872,3553,
scooby_state_55fd7d4edee2|8|1 2655,10,4,7,5,4,4,4,3,8,3,6,5,5,829,3552,
scooby_state_55fd7d4edee2|37|1 2610,9,7,10,6,5,7,4,3,0,4,1,3,7,869,3545,
scooby_state_55fd7d4edee2|48|1 2529,6,5,8,4,5,6,7,4,6,4,4,1,2,944,3535,
scooby_state_55fd7d4edee2|18|1 2623,5,1,5,6,6,9,1,5,5,5,0,1,4,858,3534,
scooby_state_55fd7d4edee2|4|1 2638,7,1,8,4,6,4,4,3,4,1,4,5,7,817,3513,
scooby_state_55fd7d4edee2|14|1 2573,9,8,8,9,10,2,4,2,5,3,5,6,2,863,3509,
scooby_state_55fd7d4edee2|19|1 2693,2,5,9,9,4,5,3,2,2,1,5,1,3,763,3507,
scooby_state_55fd7d4edee2|56|1 2442,9,5,8,7,5,4,6,2,5,4,5,1,0,984,3487,
scooby_state_55fd7d4edee2|40|1 2573,4,6,6,2,5,2,3,4,1,4,6,4,6,861,3487,
scooby_state_55fd7d4edee2|50|1 2511,6,5,11,12,3,13,7,6,4,2,4,3,8,880,3475,
scooby_state_55fd7d4edee2|7|1 2600,3,5,2,6,9,6,4,2,4,2,8,4,5,810,3470,
scooby_state_55fd7d4edee2|36|1 2523,8,4,5,5,13,6,5,3,6,4,1,3,7,847,3440,
scooby_state_55fd7d4edee2|30|1 2606,6,3,7,4,6,4,7,4,4,2,2,6,1,771,3433,
scooby_state_55fd7d4edee2|59|1 2415,3,1,5,7,3,5,6,7,2,3,5,5,6,959,3432,
scooby_state_55fd7d4edee2|29|1 2564,3,3,8,8,8,7,5,8,2,1,3,3,0,804,3427,
scooby_state_55fd7d4edee2|61|1 2389,9,4,8,5,3,7,5,3,0,1,3,3,2,980,3422,
scooby_state_55fd7d4edee2|44|1 2466,11,10,8,3,8,12,6,6,7,5,6,7,1,865,3421,
scooby_state_55fd7d4edee2|2|1 2581,8,3,7,6,3,4,6,9,3,3,4,5,3,774,3419,
scooby_state_55fd7d4edee2|45|1 2512,7,1,8,2,6,6,3,2,3,6,5,5,4,848,3418,
scooby_state_55fd7d4edee2|51|1 2392,6,5,9,9,2,5,3,4,1,1,2,6,8,962,3415,
scooby_state_55fd7d4edee2|38|1 2552,6,3,16,5,3,10,2,5,4,2,2,7,4,792,3413,
scooby_state_55fd7d4edee2|31|1 2601,6,4,9,12,1,4,3,8,2,5,3,4,8,738,3408,
scooby_state_55fd7d4edee2|62|1 2371,8,2,6,10,3,6,5,4,4,3,1,1,3,978,3405,
scooby_state_55fd7d4edee2|13|1 2512,3,9,12,3,5,6,4,5,4,1,2,4,3,831,3404,
scooby_state_55fd7d4edee2|58|1 2326,4,3,4,6,6,5,2,6,5,6,5,6,0,996,3380,
scooby_state_55fd7d4edee2|43|1 2458,8,11,8,6,11,6,1,1,4,1,3,2,5,841,3366,
scooby_state_55fd7d4edee2|52|1 2387,7,8,12,8,7,4,6,4,0,0,1,2,3,901,3350,
scooby_state_55fd7d4edee2|1|1 2505,12,3,8,3,6,4,4,4,2,7,5,5,2,769,3339,
scooby_state_55fd7d4edee2|63|2 2275,14,8,11,8,9,4,6,7,8,5,6,5,3,940,3309,
scooby_state_55fd7d4edee2|47|1 2375,8,2,6,6,5,3,2,5,3,2,6,6,3,846,3278,
scooby_state_55fd7d4edee2|23|1 2529,3,7,8,5,3,3,3,2,3,4,4,3,4,695,3276,
scooby_state_55fd7d4edee2|12|1 2482,4,5,5,5,7,2,3,2,2,4,5,1,4,723,3254,
scooby_state_55fd7d4edee2|46|1 2311,3,4,5,3,4,4,5,9,1,4,3,4,1,893,3254,
scooby_state_55fd7d4edee2|21|1 2466,3,6,8,3,6,3,1,6,3,0,2,2,4,729,3242,
scooby_state_55fd7d4edee2|25|1 2495,9,5,7,4,4,12,1,1,2,4,5,7,5,665,3226,
scooby_state_55fd7d4edee2|59|2 2181,8,11,6,7,5,15,7,6,5,4,7,6,4,946,3218,
scooby_state_55fd7d4edee2|35|1 2415,11,6,4,8,3,7,1,6,5,2,3,1,3,739,3214,
scooby_state_55fd7d4edee2|20|1 2469,6,3,9,6,3,2,4,3,7,0,3,3,4,687,3209,
scooby_state_55fd7d4edee2|34|1 2424,10,8,8,6,3,5,2,4,3,4,2,0,3,714,3196,
scooby_state_55fd7d4edee2|54|1 2232,5,4,8,8,3,1,4,3,5,5,4,5,3,884,3174,
scooby_state_55fd7d4edee2|10|1 2310,6,4,3,6,2,5,3,5,4,3,4,4,6,808,3173,
scooby_state_55fd7d4edee2|44|2 2236,6,6,6,4,2,9,3,6,2,5,9,10,1,867,3172,
scooby_state_55fd7d4edee2|57|2 2234,8,10,12,8,5,9,2,4,6,3,8,5,4,849,3167,
scooby_state_55fd7d4edee2|60|1 2206,7,5,9,6,6,5,0,3,4,4,3,4,3,895,3160,
scooby_state_55fd7d4edee2|61|2 2143,7,8,8,5,5,8,9,10,5,5,9,1,2,927,3152,
scooby_state_55fd7d4edee2|5|1 2348,7,1,9,10,6,3,1,3,4,4,7,2,7,739,3151,
scooby_state_55fd7d4edee2|22|1 2429,5,13,4,4,4,4,3,3,3,2,2,4,2,657,3139,
scooby_state_55fd7d4edee2|21|2 2363,12,9,2,5,6,6,5,8,3,4,8,7,6,694,3138,
scooby_state_55fd7d4edee2|39|1 2311,9,2,6,4,1,3,6,8,4,7,3,1,2,767,3134,
scooby_state_55fd7d4edee2|26|1 2411,2,5,3,4,4,5,2,3,3,0,3,2,1,676,3124,
scooby_state_55fd7d4edee2|6|1 2336,12,4,5,6,7,2,4,2,4,2,9,1,3,702,3099,
scooby_state_55fd7d4edee2|29|2 2245,14,5,8,11,7,3,4,3,5,4,6,7,7,760,3089,
scooby_state_55fd7d4edee2|53|1 2170,8,9,8,8,2,7,4,2,3,2,4,4,3,853,3087,
scooby_state_55fd7d4edee2|48|2 2126,9,8,8,4,4,7,5,1,7,4,11,5,6,880,3085,
scooby_state_55fd7d4eded6|0|0 3066,0,1,1,0,0,0,1,2,1,0,0,1,1,0,3074,
scooby_state_55fd7d4eded6|58|1 3059,2,0,1,0,1,0,1,0,2,0,0,0,2,1,3069,
scooby_state_55fd7d4eded6|57|1 3066,0,0,0,0,0,0,0,1,0,0,1,0,0,1,3069,
scooby_state_55fd7d4eded6|54|1 3064,0,1,0,1,1,0,0,0,0,0,0,1,0,0,3068,
scooby_state_55fd7d4edee2|26|2 2235,8,4,7,4,6,4,5,4,5,4,8,4,8,758,3064,
scooby_state_55fd7d4eded6|53|1 3056,0,1,1,1,0,1,0,0,0,0,0,0,0,1,3061,
scooby_state_55fd7d4eded6|28|1 3057,0,1,0,0,1,0,0,1,0,0,0,0,0,0,3060,
scooby_state_55fd7d4edee2|51|2 2111,16,7,9,11,6,12,7,4,1,8,5,10,3,850,3060,
scooby_state_55fd7d4eded6|27|1 3046,2,2,1,0,0,1,0,0,1,1,0,1,0,0,3055,
scooby_state_55fd7d4eded6|25|1 3051,1,0,0,2,0,0,0,0,0,0,0,0,0,0,3054,
scooby_state_55fd7d4eded6|29|1 3047,0,1,0,0,1,0,1,0,0,0,2,2,0,0,3054,
scooby_state_55fd7d4eded6|55|1 3046,1,1,0,1,1,2,0,0,0,0,1,0,1,0,3054,
scooby_state_55fd7d4eded6|59|1 3048,0,1,0,0,0,0,0,1,2,0,2,0,0,0,3054,
scooby_state_55fd7d4eded6|56|1 3046,1,0,0,0,0,0,1,1,0,0,1,0,1,0,3051,
scooby_state_55fd7d4eded6|52|1 3043,0,0,0,1,0,1,0,0,0,2,1,1,1,0,3050,
scooby_state_55fd7d4eded6|24|1 3047,0,0,1,0,0,0,0,0,0,0,1,0,0,1,3050,
scooby_state_55fd7d4eded6|60|1 3043,0,0,0,0,0,0,1,1,1,2,2,0,0,0,3050,
scooby_state_55fd7d4edee2|63|1 2157,5,1,2,12,7,4,7,3,3,5,0,0,4,838,3048,
scooby_state_55fd7d4eded6|61|1 3040,0,0,1,1,1,1,1,0,0,0,0,2,0,0,3047,
scooby_state_55fd7d4eded6|30|1 3037,0,1,0,0,1,1,1,2,1,2,0,0,0,0,3046,
scooby_state_55fd7d4eded6|13|1 3039,0,0,1,0,1,1,1,1,0,0,0,0,1,1,3046,
scooby_state_55fd7d4eded6|14|1 3033,1,0,0,1,0,0,1,1,0,0,0,2,2,1,3042,
scooby_state_55fd7d4eded6|62|1 3039,0,1,1,0,0,0,0,0,1,0,0,0,0,0,3042,
scooby_state_55fd7d4eded6|35|1 3040,0,0,1,0,0,1,0,0,0,0,0,0,0,0,3042,
scooby_state_55fd7d4eded6|12|1 3038,1,0,1,0,0,0,0,0,0,0,1,0,0,0,3041,
scooby_state_55fd7d4eded6|9|1 3036,0,0,0,2,0,0,1,0,0,0,1,0,0,0,3040,
scooby_state_55fd7d4eded6|26|1 3036,0,0,1,0,0,0,0,0,0,0,2,1,0,0,3040,
scooby_state_55fd7d4eded6|8|1 3038,0,0,0,1,1,0,0,0,0,0,0,0,0,0,3040,
scooby_state_55fd7d4eded6|10|1 3035,0,1,0,1,1,0,0,1,0,0,0,1,0,0,3040,
scooby_state_55fd7d4eded6|51|1 3036,0,0,1,0,0,0,0,1,0,0,0,0,1,0,3039,
scooby_state_55fd7d4eded6|17|1 3038,0,0,0,0,1,0,0,0,0,0,0,0,0,0,3039,
scooby_state_55fd7d4eded6|19|1 3032,0,1,0,0,0,0,0,0,0,2,1,2,0,0,3038,
scooby_state_55fd7d4eded6|31|1 3035,1,0,0,1,0,0,0,0,0,0,0,1,0,0,3038,
scooby_state_55fd7d4eded6|11|1 3031,0,0,1,0,0,1,0,1,1,0,1,0,1,0,3037,
scooby_state_55fd7d4eded6|23|1 3035,0,0,0,1,0,0,0,0,0,1,0,0,0,0,3037,
scooby_state_55fd7d4eded6|36|1 3029,0,0,1,1,0,1,1,0,0,1,1,0,1,0,3036,
scooby_state_55fd7d4edee2|7|3 2199,7,2,6,4,4,7,4,9,4,2,8,2,10,768,3036,
scooby_state_55fd7d4eded6|16|1 3036,0,0,0,0,0,0,0,0,0,0,0,0,0,0,3036,
scooby_state_55fd7d4eded6|21|1 3023,0,0,1,0,2,0,1,0,1,0,2,0,1,4,3035,
scooby_state_55fd7d4eded6|20|1 3029,0,0,1,0,0,0,0,0,3,0,0,2,0,0,3035,
scooby_state_55fd7d4eded6|7|1 3027,0,1,1,0,2,0,0,0,1,0,0,0,0,2,3034,
scooby_state_55fd7d4eded6|18|1 3032,0,0,1,0,0,0,0,0,0,0,0,0,0,0,3033,
scooby_state_55fd7d4eded6|15|1 3031,1,0,0,0,0,0,0,0,1,0,0,0,0,0,3033,
scooby_state_55fd7d4eded6|38|1 3022,2,0,0,0,0,2,2,0,1,1,0,0,2,1,3033,
scooby_state_55fd7d4eded6|22|1 3027,0,0,1,0,0,1,0,0,0,0,1,1,0,1,3032,
scooby_state_55fd7d4eded6|37|1 3025,0,0,1,0,1,3,0,0,1,0,0,0,1,0,3032,
scooby_state_55fd7d4eded6|34|1 3025,0,0,2,0,1,1,1,0,0,0,1,0,0,0,3031,
scooby_state_55fd7d4eded6|5|1 3024,2,0,1,0,0,0,1,1,0,0,0,0,0,2,3031,
scooby_state_55fd7d4eded6|50|1 3023,1,1,0,1,0,1,0,0,1,1,1,0,0,0,3030,
scooby_state_55fd7d4eded6|6|1 3025,0,0,0,1,0,0,0,0,0,0,1,1,0,0,3028,
scooby_state_55fd7d4eded6|39|1 3020,0,0,0,1,1,1,0,1,0,0,0,1,0,1,3026,
scooby_state_55fd7d4eded6|4|1 3019,0,0,1,0,0,1,1,1,1,0,0,1,0,0,3025,
scooby_state_55fd7d4eded6|32|1 3023,0,0,0,0,1,0,0,0,0,0,0,0,1,0,3025,
scooby_state_55fd7d4eded6|1|1 3019,1,0,0,1,0,0,0,0,0,0,0,0,0,2,3023,
scooby_state_55fd7d4eded6|33|1 3018,0,0,0,0,1,0,0,2,0,0,1,0,1,0,3023,
scooby_state_55fd7d4eded6|3|1 3018,0,0,0,0,2,0,0,0,0,1,0,0,1,0,3022,
scooby_state_55fd7d4eded6|63|1 3014,0,1,1,0,0,1,1,0,2,0,1,0,0,1,3022,
scooby_state_55fd7d4eded6|40|1 3011,1,0,0,0,0,2,1,0,0,1,0,0,1,1,3018,
scooby_state_55fd7d4eded6|43|1 3011,0,0,0,1,0,1,0,1,0,0,0,0,0,0,3014,
scooby_state_55fd7d4edee2|31|2 2166,12,8,14,9,7,10,6,5,8,6,8,9,6,740,3014,
scooby_state_55fd7d4eded6|48|1 3005,0,1,0,1,0,0,0,1,1,2,2,0,0,0,3013,
scooby_state_55fd7d4eded6|47|1 3005,0,2,0,0,0,1,1,0,1,0,1,0,1,0,3012,
scooby_state_55fd7d4eded6|44|1 3005,1,0,0,1,1,0,0,0,0,0,0,0,1,0,3009,
scooby_state_55fd7d4eded6|49|1 3002,2,1,0,1,0,0,0,1,0,1,0,0,0,1,3009,
scooby_state_55fd7d4eded6|41|1 2999,0,0,0,1,2,2,0,1,0,1,0,1,0,0,3007,
scooby_state_55fd7d4eded6|2|1 2999,0,0,1,0,1,0,0,0,1,1,1,1,0,1,3006,
scooby_state_55fd7d4eded6|45|1 3001,0,0,0,0,0,0,0,0,1,1,2,1,0,0,3006,
scooby_state_55fd7d4eded6|46|1 2999,0,0,1,0,0,1,1,0,1,0,0,0,1,0,3004,
scooby_state_55fd7d4edee2|46|2 2102,11,11,14,5,4,8,0,8,6,3,5,7,0,817,3001,
scooby_state_55fd7d4eded6|42|1 2993,1,1,0,0,1,1,0,0,0,0,0,0,0,0,2997,
scooby_state_55fd7d4edee2|50|2 2060,12,6,5,4,9,7,6,7,3,2,1,4,6,856,2988,
scooby_state_55fd7d4edee2|15|2 2131,5,9,7,10,11,4,7,4,2,4,10,5,6,772,2987,
scooby_state_55fd7d4edee2|55|1 2081,5,4,7,8,3,3,2,1,0,4,1,6,0,841,2966,
scooby_state_55fd7d4edee2|16|2 2143,13,10,3,7,3,4,6,11,4,4,9,2,4,735,2958,
scooby_state_55fd7d4edee2|24|2 2182,8,9,2,8,7,5,2,5,3,5,10,5,1,705,2957,
scooby_state_55fd7d4edee2|43|2 2088,12,11,9,7,6,8,9,7,4,3,7,4,5,772,2952,
scooby_state_55fd7d4edee2|39|2 2097,11,5,9,6,2,5,3,5,3,4,11,3,7,770,2941,
scooby_state_55fd7d4edee2|38|2 2144,9,11,6,6,6,4,4,5,5,1,3,1,6,730,2941,
scooby_state_55fd7d4edee2|18|2 2085,12,5,6,4,4,6,4,2,6,5,7,10,4,764,2924,
scooby_state_55fd7d4edee2|9|1 2161,6,6,4,5,5,9,4,2,4,3,2,4,3,697,2915,
scooby_state_55fd7d4edee2|41|2 2097,11,8,7,7,4,3,2,3,6,5,6,9,6,738,2912,
scooby_state_55fd7d4edee2|33|2 2126,14,9,6,7,3,6,4,8,4,5,9,4,6,701,2912,
scooby_state_55fd7d4edee2|27|2 2096,21,10,6,7,8,3,1,2,3,2,6,5,6,731,2907,
scooby_state_55fd7d4edee2|52|2 1999,11,8,8,2,4,2,5,5,4,5,8,2,7,834,2904,
scooby_state_55fd7d4edee2|36|2 2140,13,7,10,7,3,6,5,7,3,3,1,3,6,688,2902,
scooby_state_55fd7d4edee2|19|2 2128,9,7,6,7,9,5,3,4,0,2,6,3,5,696,2890,
scooby_state_55fd7d4edee2|53|2 1993,18,6,4,6,10,6,5,6,3,2,7,2,7,804,2879,
scooby_state_55fd7d4edee2|55|2 1978,19,6,2,4,9,3,8,4,3,3,3,5,6,825,2878,
scooby_state_55fd7d4edee2|34|2 2085,10,3,7,7,8,4,2,3,3,4,2,2,7,714,2861,
scooby_state_55fd7d4edee2|20|2 2101,8,10,2,3,4,5,4,12,3,7,3,5,6,687,2860,
scooby_state_55fd7d4edee2|23|2 2108,3,9,8,1,3,6,7,2,4,1,9,5,4,688,2858,
scooby_state_55fd7d4edee2|55|3 1903,11,10,8,6,7,8,2,6,3,6,8,9,5,861,2853,
scooby_state_55fd7d4edee2|3|2 2050,7,8,7,4,3,6,7,6,4,2,5,3,5,724,2841,
scooby_state_55fd7d4edee2|35|2 2076,12,6,4,2,6,3,1,4,0,6,12,3,3,699,2837,
scooby_state_55fd7d4edee2|10|2 2043,6,3,5,4,2,3,4,4,3,4,7,5,4,739,2836,
scooby_state_55fd7d4edee2|45|2 1993,12,9,7,3,5,8,10,2,2,5,4,4,8,748,2820,
scooby_state_55fd7d4edee2|40|2 2038,10,16,6,9,4,4,4,7,8,3,4,6,5,693,2817,
scooby_state_55fd7d4edee2|25|2 2065,13,5,8,6,6,6,5,3,5,3,4,2,0,668,2799,
scooby_state_55fd7d4edee2|9|2 2029,9,7,11,2,5,4,2,3,4,7,5,3,5,697,2793,
scooby_state_55fd7d4edee2|6|2 2012,14,5,6,9,5,5,3,10,7,4,5,3,4,687,2779,
scooby_state_55fd7d4edee2|27|4 2016,8,3,7,6,7,3,5,5,6,5,4,8,4,687,2774,
scooby_state_55fd7d4edee2|4|2 2011,14,5,4,6,10,9,6,10,4,2,4,7,5,676,2773,
scooby_state_55fd7d4edee2|17|2 1973,8,4,6,6,4,4,4,6,0,3,7,5,3,725,2758,
scooby_state_55fd7d4edee2|48|3 1903,8,7,4,8,8,6,2,3,4,3,3,3,3,791,2756,
scooby_state_55fd7d4edee2|43|3 1924,9,8,4,10,7,3,3,3,2,3,3,1,3,773,2756,
scooby_state_55fd7d4edee2|22|2 2061,13,10,4,4,8,9,2,4,9,5,6,2,2,613,2752,
scooby_state_55fd7d4edee2|4|3 1948,6,8,5,7,5,9,4,6,4,1,4,4,1,738,2750,
scooby_state_55fd7d4edee2|5|2 1981,9,5,2,13,4,5,9,3,2,7,7,1,5,692,2745,
scooby_state_55fd7d4edee2|58|2 1847,8,5,6,4,5,8,5,6,2,6,3,5,10,814,2734,
scooby_state_55fd7d4edee2|14|2 1949,4,10,5,10,2,11,3,5,6,4,5,7,6,687,2714,
scooby_state_55fd7d4edee2|10|3 1889,14,10,7,3,8,6,3,4,5,3,3,7,2,748,2712,
scooby_state_55fd7d4edee2|2|2 1963,9,7,4,7,6,3,4,4,1,4,8,7,6,666,2699,
scooby_state_55fd7d4edee2|13|2 1908,7,5,8,7,3,10,3,9,7,3,3,3,8,709,2693,
scooby_state_55fd7d4edee2|26|3 1952,8,4,3,6,5,6,5,2,2,0,5,7,2,679,2686,
scooby_state_55fd7d4edee2|29|3 1937,4,9,5,9,4,6,2,6,3,2,2,2,5,672,2668,
scooby_state_55fd7d4edee2|7|2 1935,6,9,9,11,2,6,5,5,4,6,3,5,4,645,2655,
scooby_state_55fd7d4edee2|16|3 1889,2,8,5,5,10,7,6,5,3,2,5,8,3,696,2654,
scooby_state_55fd7d4edee2|47|3 1848,6,4,5,7,9,8,4,6,3,4,3,1,7,735,2650,
scooby_state_55fd7d4edee2|17|3 1881,7,7,5,3,9,5,5,3,4,2,4,4,4,707,2650,
scooby_state_55fd7d4edee2|30|2 1926,10,8,7,4,4,10,2,7,5,1,9,4,4,647,2648,
scooby_state_55fd7d4edee2|27|3 1915,11,2,5,6,4,7,4,3,0,6,4,4,3,656,2630,
scooby_state_55fd7d4edee2|32|2 1935,11,7,9,3,2,4,5,4,3,5,7,4,4,625,2628,
scooby_state_55fd7d4edee2|60|2 1743,8,8,5,6,6,5,4,6,5,3,5,5,5,812,2626,
scooby_state_55fd7d4edee2|44|3 1839,10,3,6,3,9,6,1,2,5,6,3,1,4,728,2626,
scooby_state_55fd7d4edee2|53|3 1739,3,10,9,12,10,4,6,2,1,3,2,4,6,814,2625,
scooby_state_55fd7d4edee2|23|3 1930,7,1,2,7,4,5,6,5,0,5,5,9,7,631,2624,
scooby_state_55fd7d4edee2|37|2 1898,15,5,3,6,5,5,1,4,4,6,9,6,5,643,2615,
scooby_state_55fd7d4edee2|47|2 1776,11,5,9,4,2,11,2,4,4,4,8,1,6,767,2614,
scooby_state_55fd7d4edee2|18|3 1839,5,7,3,6,4,8,4,4,7,2,1,5,6,707,2608,
scooby_state_55fd7d4edee2|49|2 1823,7,8,7,4,4,7,2,7,2,6,4,9,7,704,2601,
scooby_state_55fd7d4edee2|12|2 1851,10,4,6,6,3,5,0,3,4,3,6,4,3,681,2589,
scooby_state_55fd7d4edee2|54|2 1783,9,5,4,5,8,5,4,7,1,5,3,7,4,727,2577,
scooby_state_55fd7d4edee2|40|3 1783,7,3,4,4,7,4,5,9,2,3,12,5,3,717,2568,
scooby_state_55fd7d4edee2|11|2 1815,8,4,10,6,3,6,2,7,3,3,7,4,3,677,2558,
scooby_state_55fd7d4edee2|49|3 1731,3,4,5,3,13,6,5,1,4,1,5,6,2,765,2554,
scooby_state_55fd7d4edee2|62|2 1721,16,9,9,7,5,3,5,4,6,5,3,3,4,746,2546,
scooby_state_55fd7d4edee2|30|3 1866,2,8,2,2,8,5,0,7,4,2,4,4,5,617,2536,
scooby_state_55fd7d4edee2|34|3 1821,3,3,4,5,6,11,1,7,1,5,5,4,3,656,2535,
scooby_state_55fd7d4edee2|51|3 1729,7,4,6,7,6,3,2,7,3,2,4,1,2,749,2532,
scooby_state_55fd7d4edee2|28|2 1845,9,4,4,9,5,4,7,3,6,2,6,4,3,603,2514,
scooby_state_55fd7d4edee2|42|2 1795,10,5,4,4,4,6,4,2,0,4,5,3,2,666,2514,
scooby_state_55fd7d4edee2|56|3 1674,8,8,8,8,5,2,3,2,2,4,3,4,3,780,2514,
scooby_state_55fd7d4edee2|39|3 1754,8,5,5,7,3,5,4,6,3,6,3,3,1,691,2504,
scooby_state_55fd7d4edee2|41|3 1762,9,7,3,10,5,5,0,1,4,6,6,3,6,677,2504,
scooby_state_55fd7d4edee2|50|3 1633,4,5,7,7,8,5,4,4,3,2,2,4,4,802,2494,
scooby_state_55fd7d4edee2|32|3 1782,8,3,4,6,7,3,4,5,3,4,3,6,6,648,2492,
scooby_state_55fd7d4edee2|19|3 1756,8,7,6,6,7,5,2,2,0,4,5,2,5,670,2485,
scooby_state_55fd7d4edee2|13|3 1736,11,7,2,7,8,7,6,3,5,3,0,4,10,672,2481,
scooby_state_55fd7d4edee2|14|3 1722,4,8,6,3,10,5,7,6,4,1,3,5,4,691,2479,
scooby_state_55fd7d4edee2|23|4 1763,7,9,1,5,7,5,1,5,4,4,3,6,2,637,2459,
scooby_state_55fd7d4edee2|3|3 1769,7,8,9,4,4,6,6,2,2,2,6,3,7,620,2455,
scooby_state_55fd7d4edee2|61|3 1617,4,3,7,12,8,4,5,4,4,5,4,5,4,765,2451,
scooby_state_55fd7d4edee2|36|3 1752,7,5,7,5,9,4,4,7,3,1,8,2,1,620,2435,
scooby_state_55fd7d4edee2|21|3 1750,5,8,7,6,9,2,3,3,5,1,3,3,3,600,2408,
scooby_state_55fd7d4edee2|45|3 1638,7,6,2,8,6,5,5,4,4,0,6,3,5,705,2404,
scooby_state_55fd7d4edee2|62|3 1605,9,3,7,8,5,4,3,4,3,5,6,3,5,733,2403,
scooby_state_55fd7d4edee2|52|3 1636,2,2,5,3,9,9,4,6,4,4,2,2,3,697,2388,
scooby_state_55fd7d4edee2|59|3 1562,6,6,5,11,3,4,5,2,0,9,5,6,3,755,2382,
scooby_state_55fd7d4edee2|8|2 1716,12,6,5,5,1,4,3,6,1,2,4,3,3,609,2380,
scooby_state_55fd7d4edee2|7|4 1688,4,9,1,7,5,7,0,5,2,3,1,3,2,637,2374,
scooby_state_55fd7d4edee2|56|2 1601,8,5,5,11,4,6,5,4,2,2,5,5,7,696,2366,
scooby_state_55fd7d4edee2|60|3 1573,5,5,1,7,7,2,5,3,3,3,3,2,3,743,2365,
scooby_state_55fd7d4edee2|36|4 1674,7,4,4,3,6,11,3,4,5,4,0,6,3,630,2364,
scooby_state_55fd7d4edee2|37|3 1687,7,4,5,4,5,5,4,7,7,2,5,4,5,611,2362,
scooby_state_55fd7d4edee2|20|4 1636,5,8,6,5,3,4,2,3,1,3,7,8,3,668,2362,
scooby_state_55fd7d4edee2|6|3 1682,5,2,4,7,7,6,5,4,1,2,1,0,2,627,2355,
scooby_state_55fd7d4edee2|31|3 1695,10,2,4,4,4,7,4,4,3,3,3,1,4,602,2350,
scooby_state_55fd7d4edee2|58|3 1553,3,4,5,3,5,7,5,2,2,2,5,6,5,723,2330,
scooby_state_55fd7d4edee2|9|3 1641,8,4,7,7,7,6,2,3,7,1,6,5,3,622,2329,
scooby_state_55fd7d4edee2|61|4 1545,5,11,4,7,3,4,5,4,5,3,4,6,4,715,2325,
scooby_state_55fd7d4edee2|17|4 1649,6,7,4,2,3,6,2,5,2,2,5,0,6,613,2312,
scooby_state_55fd7d4edee2|20|3 1682,7,2,3,1,5,3,3,3,4,1,4,5,2,586,2311,
scooby_state_55fd7d4edee2|52|4 1534,9,6,2,7,10,2,4,3,4,3,2,4,2,716,2308,
scooby_state_55fd7d4edee2|42|3 1575,6,5,7,3,8,6,3,6,5,0,3,6,5,665,2303,
scooby_state_55fd7d4edee2|48|4 1573,4,4,4,6,2,4,3,7,7,6,2,7,3,667,2299,
scooby_state_55fd7d4edee2|24|3 1703,3,7,2,5,5,5,4,10,1,6,3,4,5,529,2292,
scooby_state_55fd7d4edee2|47|4 1548,5,1,7,7,4,3,2,12,2,4,4,4,6,683,2292,
scooby_state_55fd7d4edee2|22|3 1674,7,4,2,2,4,9,1,3,2,3,3,2,3,568,2287,
scooby_state_55fd7d4edee2|40|4 1580,5,6,4,2,7,5,2,5,1,3,6,3,5,636,2270,
scooby_state_55fd7d4edee2|11|3 1638,10,3,5,7,7,7,9,2,2,1,5,3,2,569,2270,
scooby_state_55fd7d4edee2|38|3 1563,5,5,3,7,8,3,10,4,2,1,4,8,4,643,2270,
scooby_state_55fd7d4edee2|42|4 1574,7,12,5,4,4,4,2,5,2,2,3,5,2,630,2261,
scooby_state_55fd7d4edee2|55|4 1537,3,2,3,4,2,4,1,6,3,3,3,2,1,687,2261,
scooby_state_55fd7d4edee2|32|5 1567,12,13,12,7,9,6,12,6,5,4,11,10,8,578,2260,
scooby_state_55fd7d4edee2|11|4 1625,3,6,5,7,7,3,1,6,5,1,2,2,4,578,2255,
scooby_state_55fd7d4edee2|35|3 1601,5,5,7,8,5,6,4,2,3,4,3,4,5,592,2254,
scooby_state_55fd7d4edee2|63|3 1512,4,2,4,7,5,2,3,4,3,0,4,5,2,695,2252,
scooby_state_55fd7d4edee2|33|3 1601,2,5,2,6,6,3,4,3,1,1,3,2,6,601,2246,
scooby_state_55fd7d4edee2|46|3 1562,3,5,4,5,3,5,1,3,2,5,3,7,5,631,2244,
scooby_state_55fd7d4edee2|15|3 1606,5,4,9,3,5,5,5,5,4,1,5,3,2,580,2242,
scooby_state_55fd7d4edee2|31|4 1602,8,5,4,2,7,4,4,4,2,4,3,5,3,585,2242,
scooby_state_55fd7d4edee2|8|3 1594,2,3,5,5,6,4,2,4,2,2,4,0,6,595,2234,
scooby_state_55fd7d4edee2|18|4 1522,10,6,8,1,7,3,5,2,2,4,2,4,3,652,2231,
scooby_state_55fd7d4edee2|54|3 1505,7,5,4,6,4,7,3,4,2,4,3,4,6,666,2230,
scooby_state_55fd7d4edee2|21|4 1611,1,6,4,2,6,7,3,1,3,0,1,4,7,573,2229,
scooby_state_55fd7d4edee2|57|5 1470,15,12,11,12,8,8,3,9,3,4,11,5,4,634,2209,
scooby_state_55fd7d4edee2|22|4 1579,8,6,7,4,3,6,0,7,5,1,5,2,0,568,2201,
scooby_state_55fd7d4edee2|60|4 1467,3,3,4,1,7,3,1,4,3,1,3,8,3,684,2195,
scooby_state_55fd7d4edee2|35|4 1551,10,5,6,3,6,2,4,3,3,1,3,2,4,585,2188,
scooby_state_55fd7d4edee2|57|3 1448,5,4,6,3,4,3,3,2,4,5,0,4,4,692,2187,
scooby_state_55fd7d4edee2|29|4 1600,7,6,6,6,2,5,3,1,3,2,3,7,4,530,2185,
scooby_state_55fd7d4edee2|8|4 1539,6,2,4,5,11,1,3,3,0,1,5,3,3,589,2175,
scooby_state_55fd7d4edee2|14|4 1517,5,6,6,1,10,4,3,5,0,0,1,3,2,597,2160,
scooby_state_55fd7d4edee2|41|4 1499,4,3,3,3,9,2,5,7,5,2,3,3,2,610,2160,
scooby_state_55fd7d4edee2|28|4 1542,4,7,4,6,6,8,4,4,1,4,3,2,5,559,2159,
scooby_state_55fd7d4edee2|32|4 1523,6,4,7,7,5,5,0,4,0,1,3,2,0,590,2157,
scooby_state_55fd7d4edee2|45|4 1479,1,5,2,4,6,3,1,3,2,1,4,6,4,636,2157,
scooby_state_55fd7d4edee2|63|4 1407,1,10,5,6,6,2,1,2,3,4,4,7,6,689,2153,
scooby_state_55fd7d4edee2|10|4 1537,6,7,6,4,6,3,2,4,2,1,3,4,2,563,2150,
scooby_state_55fd7d4edee2|46|4 1480,6,10,5,4,5,4,0,6,2,2,4,2,6,613,2149,
scooby_state_55fd7d4edee2|43|4 1491,5,6,2,6,4,5,3,4,3,1,4,4,6,597,2141,
scooby_state_55fd7d4edee2|15|4 1478,5,5,7,5,4,5,4,4,1,4,3,2,4,603,2134,
scooby_state_55fd7d4edee2|59|4 1399,5,7,4,3,4,1,6,1,4,4,6,7,1,678,2130,
scooby_state_55fd7d4edee2|28|3 1549,6,7,4,4,1,6,1,7,2,5,0,3,5,521,2121,
scooby_state_55fd7d4edee2|44|4 1444,5,8,3,3,3,3,2,5,3,5,3,4,2,623,2116,
scooby_state_55fd7d4edee2|5|3 1498,11,4,4,5,5,7,3,4,3,3,3,2,3,559,2114,
scooby_state_55fd7d4edee2|16|5 1451,10,11,9,8,8,10,6,7,8,2,7,6,9,562,2114,
scooby_state_55fd7d4edee2|49|4 1418,7,3,7,7,10,4,8,1,3,4,2,4,3,628,2109,
scooby_state_55fd7d4edee2|23|5 1533,10,16,7,3,6,6,3,4,4,6,4,5,6,490,2103,
scooby_state_55fd7d4edee2|49|5 1401,10,12,11,6,5,9,12,2,6,5,7,5,8,586,2085,
scooby_state_55fd7d4edee2|25|3 1535,3,6,5,3,7,5,2,4,0,1,1,0,3,509,2084,
scooby_state_55fd7d4edee2|38|4 1450,4,4,5,3,5,7,4,3,3,1,3,10,4,577,2083,
scooby_state_55fd7d4edee2|16|4 1494,6,8,7,4,2,3,2,3,1,3,2,6,6,535,2082,
scooby_state_55fd7d4edee2|24|4 1477,4,8,3,7,6,6,5,2,1,4,3,4,3,546,2079,
scooby_state_55fd7d4edee2|27|5 1500,11,7,10,10,11,8,5,5,2,7,5,8,6,482,2077,
scooby_state_55fd7d4edee2|39|5 1463,8,9,6,1,4,7,7,4,4,5,9,4,3,518,2052,
scooby_state_55fd7d4edee2|50|4 1325,3,7,5,4,6,5,5,3,2,7,1,5,4,661,2043,
scooby_state_55fd7d4edee2|50|6 1380,6,12,4,8,3,9,2,4,3,4,2,4,1,590,2032,
scooby_state_55fd7d4edee2|19|4 1349,9,7,4,2,4,6,6,5,2,2,1,2,4,614,2017,
scooby_state_55fd7d4edee2|6|4 1419,6,3,5,4,4,5,1,3,1,2,3,7,1,553,2017,
scooby_state_55fd7d4edee2|33|4 1449,3,8,3,2,4,8,3,2,5,0,1,2,3,515,2008,
scooby_state_55fd7d4edee2|39|4 1404,4,4,4,6,6,6,1,4,5,2,3,4,1,550,2004,
scooby_state_55fd7d4edee2|12|5 1412,8,10,6,11,5,6,3,6,4,4,3,8,2,511,1999,
scooby_state_55fd7d4edee2|4|4 1440,4,5,2,3,3,2,2,2,5,1,5,4,0,521,1999,
scooby_state_55fd7d4edee2|26|4 1410,7,8,6,5,2,5,4,1,3,1,4,6,7,524,1993,
scooby_state_55fd7d4edee2|12|3 1425,4,2,8,3,4,6,1,5,3,2,7,6,2,515,1993,
scooby_state_55fd7d4edee2|29|5 1410,18,10,11,7,11,7,7,7,3,1,5,4,4,486,1991,
scooby_state_55fd7d4edee2|51|4 1342,11,3,3,4,6,3,4,5,2,2,7,7,6,582,1987,
scooby_state_55fd7d4edee2|5|4 1410,9,2,3,6,5,3,7,2,1,1,4,4,5,522,1984,
scooby_state_55fd7d4edee2|61|5 1302,10,12,7,4,9,4,8,5,3,5,7,11,6,588,1981,
scooby_state_55fd7d4edee2|34|5 1409,8,14,16,5,7,8,2,2,6,6,11,3,4,477,1978,
scooby_state_55fd7d4edee2|10|5 1405,8,4,11,3,8,6,6,5,9,7,2,7,4,489,1974,
scooby_state_55fd7d4edee2|25|4 1437,1,4,3,6,4,2,4,7,3,5,6,8,1,480,1971,
scooby_state_55fd7d4edee2|37|5 1354,10,8,14,5,6,5,6,8,4,7,7,5,8,524,1971,
scooby_state_55fd7d4edee2|62|4 1280,0,6,3,6,1,0,3,0,2,2,5,3,2,655,1968,
scooby_state_55fd7d4edee2|22|5 1386,4,14,9,5,10,7,7,3,2,2,4,0,8,507,1968,
scooby_state_55fd7d4edee2|55|5 1302,8,10,17,10,5,9,4,5,1,7,2,4,6,573,1963,
scooby_state_55fd7d4edee2|53|4 1316,4,2,3,6,5,4,4,2,2,1,4,3,1,605,1962,
scooby_state_55fd7d4edee2|44|6 1349,8,13,2,4,2,4,5,0,3,5,7,4,7,544,1957,
scooby_state_55fd7d4edee2|13|4 1410,9,4,4,3,5,2,4,0,3,3,1,2,4,501,1955,
scooby_state_55fd7d4edee2|56|4 1283,8,3,1,4,4,2,1,6,3,2,3,3,2,628,1953,
scooby_state_55fd7d4edee2|38|5 1369,11,11,14,5,5,4,4,5,3,4,9,4,3,502,1953,
scooby_state_55fd7d4edee2|31|5 1382,9,11,14,6,6,9,4,7,6,4,9,8,10,467,1952,
scooby_state_55fd7d4edee2|18|5 1370,11,8,12,8,7,7,4,7,4,4,6,4,6,493,1951,
scooby_state_55fd7d4edee2|61|6 1254,7,5,2,5,6,2,6,4,4,4,5,7,7,616,1934,
scooby_state_55fd7d4edee2|34|4 1389,3,7,3,5,3,5,3,4,2,0,4,5,3,497,1933,
scooby_state_55fd7d4edee2|36|5 1358,17,11,12,4,9,4,3,1,5,5,4,5,7,484,1929,
scooby_state_55fd7d4edee2|57|6 1260,10,9,1,4,3,4,4,2,1,1,1,5,2,621,1928,
scooby_state_55fd7d4edee2|23|6 1369,4,11,3,2,2,3,5,1,2,0,0,5,2,513,1922,
scooby_state_55fd7d4edee2|52|5 1305,8,14,8,5,5,6,3,6,2,3,3,4,2,547,1921,
scooby_state_55fd7d4edee2|44|5 1318,5,13,7,8,5,6,4,5,5,7,5,3,4,524,1919,
scooby_state_55fd7d4edee2|36|6 1363,8,5,4,3,5,6,7,0,4,2,3,5,7,490,1912,
scooby_state_55fd7d4edee2|30|4 1395,6,4,3,4,1,3,2,3,2,0,2,4,2,477,1908,
scooby_state_55fd7d4edee2|17|6 1350,3,5,1,3,3,7,6,5,2,3,4,3,4,505,1904,
scooby_state_55fd7d4edee2|41|5 1363,9,20,12,2,6,6,3,2,3,5,2,6,4,461,1904,
scooby_state_55fd7d4edee2|37|4 1300,3,5,2,4,8,2,3,4,2,4,1,6,1,556,1901,
scooby_state_55fd7d4edee2|57|4 1233,4,5,3,2,0,8,3,2,2,1,6,4,2,625,1900,
scooby_state_55fd7d4edee2|56|5 1274,13,12,7,9,13,3,5,9,6,3,10,5,3,525,1897,
scooby_state_55fd7d4edee2|14|5 1338,11,10,8,4,2,3,4,6,7,5,8,3,10,473,1892,
scooby_state_55fd7d4edee2|13|5 1364,6,10,3,7,3,4,9,9,4,0,4,5,8,452,1888,
scooby_state_55fd7d4edee2|12|4 1327,4,4,5,2,6,5,3,2,0,2,5,5,1,514,1885,
scooby_state_55fd7d4edee2|53|5 1261,9,8,9,3,6,9,8,5,4,6,5,11,2,536,1882,
scooby_state_55fd7d4edee2|28|5 1350,10,8,10,8,4,8,4,6,7,7,4,2,2,451,1881,
scooby_state_55fd7d4edee2|54|4 1266,7,5,7,4,5,5,7,1,0,2,3,3,2,560,1877,
scooby_state_55fd7d4edee2|16|6 1292,7,7,3,3,4,2,5,2,5,3,2,4,2,532,1873,
scooby_state_55fd7d4edee2|9|4 1314,7,6,5,1,7,1,4,3,3,2,0,2,5,512,1872,
scooby_state_55fd7d4edee2|24|5 1352,19,10,7,4,3,4,4,5,3,5,2,4,9,434,1865,
scooby_state_55fd7d4edee2|50|5 1264,12,6,10,6,8,6,3,4,7,4,10,8,1,515,1864,
scooby_state_55fd7d4edee2|48|5 1257,6,11,8,4,2,12,5,5,6,2,2,5,8,516,1849,
scooby_state_55fd7d4edee2|62|5 1179,10,12,8,11,5,6,6,2,3,4,3,5,5,589,1848,
scooby_state_55fd7d4edee2|13|6 1300,3,5,4,2,5,3,2,4,2,3,5,7,6,495,1846,
scooby_state_55fd7d4edee2|52|6 1199,7,9,5,3,1,4,6,4,2,2,3,6,4,590,1845,
scooby_state_55fd7d4edee2|60|5 1179,18,6,10,7,3,9,4,3,5,2,3,3,7,576,1835,
scooby_state_55fd7d4edee2|15|5 1257,11,10,8,8,8,6,2,2,10,0,5,7,3,489,1826,
scooby_state_55fd7d4edee2|42|5 1248,7,5,10,5,9,5,4,4,7,2,10,7,3,485,1811,
scooby_state_55fd7d4edee2|51|5 1156,14,13,8,5,4,5,2,9,5,4,9,8,5,554,1801,
scooby_state_55fd7d4edee2|23|7 1209,6,6,9,2,9,8,10,4,5,6,5,4,8,505,1796,
scooby_state_55fd7d4edee2|49|7 1197,6,8,8,9,5,0,4,6,8,5,5,5,6,514,1786,
scooby_state_55fd7d4edee2|63|5 1144,6,5,11,2,5,12,4,7,3,1,3,3,6,570,1782,
scooby_state_55fd7d4edee2|43|5 1219,10,8,10,8,6,6,5,5,0,3,2,5,3,489,1779,
scooby_state_55fd7d4edee2|11|5 1229,9,11,5,6,6,9,8,4,7,1,4,6,5,466,1776,
scooby_state_55fd7d4edee2|45|6 1217,5,8,2,4,4,6,1,4,4,5,4,3,5,503,1775,
scooby_state_55fd7d4edee2|17|7 1223,10,7,7,3,5,9,6,4,3,6,7,4,7,467,1768,
scooby_state_55fd7d4edee2|41|6 1223,6,7,1,4,3,7,4,0,5,1,1,2,2,500,1766,
scooby_state_55fd7d4edee2|59|5 1183,8,14,6,9,7,7,6,4,7,6,5,3,6,486,1757,
scooby_state_55fd7d4edee2|46|5 1169,7,11,6,8,4,5,4,7,3,4,4,5,5,512,1754,
scooby_state_55fd7d4edee2|8|5 1229,14,9,14,8,5,5,7,7,4,3,7,5,3,432,1752,
scooby_state_55fd7d4edee2|5|5 1224,5,8,7,8,10,4,4,2,5,6,1,6,2,460,1752,
scooby_state_55fd7d4edee2|7|5 1240,7,9,9,5,4,9,4,3,4,2,5,6,4,440,1751,
scooby_state_55fd7d4edee2|9|5 1238,16,16,5,3,5,6,6,6,5,2,7,4,5,424,1748,
scooby_state_55fd7d4edee2|24|6 1277,4,4,2,3,3,3,2,1,3,3,4,9,3,426,1747,
scooby_state_55fd7d4edee2|47|5 1149,10,9,12,6,4,9,9,6,6,4,5,10,8,500,1747,
scooby_state_55fd7d4edee2|10|6 1259,0,7,0,3,3,8,1,3,2,3,4,3,3,443,1742,
scooby_state_55fd7d4edee2|31|8 1218,9,9,4,2,2,7,2,4,0,2,3,2,3,460,1727,
scooby_state_55fd7d4edee2|17|5 1214,8,10,4,5,7,7,1,6,1,4,1,2,6,447,1723,
scooby_state_55fd7d4edee2|55|6 1135,8,1,3,3,4,4,4,5,3,9,1,1,1,538,1720,
scooby_state_55fd7d4edee2|58|4 1148,6,7,2,1,4,1,0,2,3,1,4,2,5,534,1720,
scooby_state_55fd7d4edee2|59|6 1141,3,6,4,5,2,6,4,4,2,2,3,3,1,532,1718,
scooby_state_55fd7d4edee2|33|6 1222,9,10,4,6,2,5,3,1,1,2,3,2,3,443,1716,
scooby_state_55fd7d4edee2|39|6 1175,4,7,2,6,5,6,3,2,7,3,5,6,6,474,1711,
scooby_state_55fd7d4edee2|11|7 1211,10,2,4,4,2,4,4,5,3,7,2,3,8,441,1710,
scooby_state_55fd7d4edee2|38|6 1206,8,7,5,4,3,5,4,1,1,1,2,2,4,457,1710,
scooby_state_55fd7d4edee2|31|6 1209,6,8,2,2,3,2,4,2,2,1,0,6,3,458,1708,
scooby_state_55fd7d4edee2|42|6 1137,6,3,1,2,3,6,3,5,3,3,4,2,3,523,1704,
scooby_state_55fd7d4edee2|45|5 1153,3,10,5,5,5,2,2,7,4,4,4,6,3,487,1700,
scooby_state_55fd7d4edee2|40|5 1169,11,7,5,6,7,6,11,8,3,5,4,3,4,448,1697,
scooby_state_55fd7d4edee2|21|5 1192,11,6,4,4,5,2,3,10,3,3,9,7,7,429,1695,
scooby_state_55fd7d4edee2|51|7 1119,4,6,9,4,5,6,8,7,1,5,5,5,7,500,1691,
scooby_state_55fd7d4edee2|20|5 1136,5,7,2,6,3,10,2,2,3,6,7,2,4,492,1687,
scooby_state_55fd7d4edee2|29|6 1204,4,10,5,5,6,7,1,2,1,2,3,2,8,425,1685,
scooby_state_55fd7d4edee2|33|7 1163,5,7,7,1,3,4,1,7,4,3,4,5,8,463,1685,
scooby_state_55fd7d4edee2|44|7 1171,10,12,5,6,2,5,0,4,3,6,5,6,8,442,1685,
scooby_state_55fd7d4edee2|58|6 1096,2,10,1,4,1,1,0,7,1,2,1,4,0,554,1684,
scooby_state_55fd7d4edee2|57|7 1071,6,2,7,8,8,8,7,9,4,6,8,7,4,529,1684,
scooby_state_55fd7d4edee2|27|6 1212,3,3,2,3,5,4,3,3,1,3,3,1,3,432,1681,
scooby_state_55fd7d4edee2|21|6 1164,5,1,5,6,1,4,3,1,0,5,2,4,7,472,1680,
scooby_state_55fd7d4edee2|40|7 1176,7,7,8,5,9,4,3,4,2,6,2,4,5,434,1676,
scooby_state_55fd7d4edee2|40|6 1181,4,1,1,5,6,0,3,2,5,5,6,1,2,451,1673,
scooby_state_55fd7d4edee2|19|5 1166,11,8,11,7,3,3,3,6,5,3,1,3,9,434,1673,
scooby_state_55fd7d4edee2|33|5 1194,16,16,6,4,8,7,5,2,2,4,9,3,7,388,1671,
scooby_state_55fd7d4edee2|46|6 1119,3,9,3,2,4,4,3,6,3,2,5,0,1,506,1670,
scooby_state_55fd7d4edee2|39|7 1119,7,7,9,7,8,5,7,6,4,3,4,3,7,462,1658,
scooby_state_55fd7d4edee2|63|6 1082,5,4,0,3,5,2,5,2,8,2,5,6,2,524,1655,
scooby_state_55fd7d4edee2|58|5 1045,10,11,11,3,5,7,6,4,4,4,4,8,1,525,1648,
scooby_state_55fd7d4edee2|48|6 1127,6,5,4,4,2,3,0,0,1,6,3,1,2,482,1646,
scooby_state_55fd7d4edee2|25|5 1205,8,5,5,7,3,5,5,4,1,3,1,4,4,380,1640,
scooby_state_55fd7d4edee2|25|7 1155,10,4,9,5,6,2,3,4,6,3,5,5,9,403,1629,
scooby_state_55fd7d4edee2|37|6 1123,3,9,1,3,2,3,5,5,5,3,5,2,4,456,1629,
scooby_state_55fd7d4edee2|30|6 1179,5,4,1,2,3,8,4,1,3,4,3,1,3,408,1629,
scooby_state_55fd7d4edee2|43|6 1138,4,6,4,2,3,1,1,3,0,2,3,4,3,454,1628,
scooby_state_55fd7d4edee2|6|5 1116,5,6,8,4,9,5,3,8,5,6,6,0,7,440,1628,
scooby_state_55fd7d4edee2|53|6 1096,2,8,4,5,5,4,3,5,1,0,3,4,2,483,1625,
scooby_state_55fd7d4edee2|56|6 1059,4,5,1,2,3,6,5,2,2,1,8,2,4,517,1621,
scooby_state_55fd7d4edee2|34|7 1140,12,8,5,2,9,7,5,4,4,2,3,7,7,406,1621,
scooby_state_55fd7d4edee2|51|6 1067,6,9,1,3,4,4,8,1,2,2,4,3,2,503,1619,
scooby_state_55fd7d4edee2|24|7 1130,8,4,11,4,7,6,6,7,4,3,6,3,6,410,1615,
scooby_state_55fd7d4edee2|9|6 1121,2,9,4,4,4,3,4,5,2,1,5,2,2,443,1611,
scooby_state_55fd7d4edee2|35|5 1131,14,4,3,7,4,4,4,1,8,4,6,4,8,406,1608,
scooby_state_55fd7d4edee2|37|7 1112,9,8,5,8,11,8,4,2,2,3,5,4,7,419,1607,
scooby_state_55fd7d4edee2|47|6 1093,3,6,0,6,3,3,3,4,2,2,3,1,3,473,1605,
scooby_state_55fd7d4edee2|11|6 1089,5,7,4,5,3,7,2,3,1,4,3,3,8,459,1603,
scooby_state_55fd7d4edee2|34|6 1153,1,4,3,3,5,3,3,4,2,1,3,5,4,400,1594,
scooby_state_55fd7d4edee2|48|7 1072,9,6,5,2,7,8,10,4,0,7,2,7,4,450,1593,
scooby_state_55fd7d4edee2|31|7 1141,6,4,8,4,4,2,7,1,0,6,4,2,13,391,1593,
scooby_state_55fd7d4edee2|54|5 1049,7,6,7,3,5,4,4,5,8,3,8,7,6,471,1593,
scooby_state_55fd7d4edee2|20|6 1109,2,6,2,3,2,6,4,2,3,3,2,6,2,439,1591,
scooby_state_55fd7d4edee2|26|5 1123,12,6,5,9,9,6,2,4,6,4,7,3,5,386,1587,
scooby_state_55fd7d4edee2|44|8 1115,7,13,6,5,3,2,5,0,0,2,1,1,4,419,1583,
scooby_state_55fd7d4edee2|19|6 1076,5,6,2,2,2,3,5,0,3,3,2,1,1,470,1581,
scooby_state_55fd7d4edee2|10|7 1081,8,7,6,6,8,7,5,5,4,2,7,5,5,411,1567,
scooby_state_55fd7d4edee2|36|7 1083,6,5,5,7,10,3,6,4,1,3,4,5,11,409,1562,
scooby_state_55fd7d4edee2|46|7 1076,4,4,7,5,9,2,4,1,2,2,2,5,13,426,1562,
scooby_state_55fd7d4edee2|61|8 1069,8,8,3,5,3,3,2,2,3,1,5,2,4,444,1562,
scooby_state_55fd7d4edee2|11|8 1053,4,6,5,2,2,2,2,3,1,2,3,6,2,467,1560,
scooby_state_55fd7d4edee2|30|7 1124,7,5,9,3,7,7,3,4,3,2,2,3,4,373,1556,
scooby_state_55fd7d4edee2|35|6 1095,2,4,1,4,4,3,4,2,0,1,3,2,1,429,1555,
scooby_state_55fd7d4edee2|7|6 1071,1,8,2,6,2,5,5,4,3,1,3,3,3,436,1553,
scooby_state_55fd7d4edee2|23|8 1053,4,9,3,4,7,1,3,4,3,0,2,4,3,452,1552,
scooby_state_55fd7d4edf25|56|0 1,1,1,1542,1,0,0,0,0,0,0,0,0,0,0,1546,
scooby_state_55fd7d4edee2|56|8 1018,4,5,7,5,2,5,2,4,6,1,8,0,5,470,1542,
scooby_state_55fd7d4edee2|41|8 1094,0,10,3,2,3,4,5,4,1,2,2,5,2,404,1541,
scooby_state_55fd7d4edee2|56|9 1002,14,7,10,3,4,6,6,9,6,5,9,5,7,447,1540,
scooby_state_55fd7d4edee2|8|6 1080,2,6,1,4,3,5,1,1,3,2,4,1,3,422,1538,
scooby_state_55fd7d4edee2|60|7 1038,7,5,10,4,4,5,8,5,3,3,3,5,4,434,1538,
scooby_state_55fd7d4edee2|23|9 1047,6,10,4,4,6,7,4,7,5,10,4,8,3,409,1534,
scooby_state_55fd7d4edee2|12|6 1055,5,5,0,4,4,8,4,2,2,0,4,3,4,425,1525,
scooby_state_55fd7d4edee2|26|6 1097,4,6,1,3,4,4,5,3,4,1,4,8,3,372,1519,
scooby_state_55fd7d4edee2|41|7 1033,9,5,8,4,6,5,6,3,2,4,5,2,14,408,1514,
scooby_state_55fd7d4edee2|32|6 1078,4,8,4,4,4,2,3,1,1,1,3,2,2,391,1508,
scooby_state_55fd7d4edee2|30|5 1103,7,10,5,3,2,4,3,0,7,6,6,7,2,341,1506,
scooby_state_55fd7d4edee2|18|6 1044,6,3,3,1,6,6,0,1,5,1,5,2,1,417,1501,
scooby_state_55fd7d4edee2|42|7 1040,7,6,7,5,7,5,9,5,2,3,4,1,4,393,1498,
scooby_state_55fd7d4edee2|15|8 1054,5,1,4,3,4,3,1,6,1,3,2,2,4,405,1498,
scooby_state_55fd7d4edee2|54|6 979,4,5,0,1,6,4,1,2,2,4,2,1,2,483,1496,
scooby_state_55fd7d4edee2|14|7 1058,8,9,6,3,8,4,5,2,5,5,4,6,4,366,1493,
scooby_state_55fd7d4edee2|35|8 1045,2,5,5,5,1,2,0,2,2,1,2,4,4,412,1492,
scooby_state_55fd7d4edee2|38|7 1037,8,10,7,6,4,4,4,5,6,3,4,2,5,386,1491,
scooby_state_55fd7d4edee2|15|6 996,4,5,1,3,4,4,3,0,3,1,3,1,2,458,1488,
scooby_state_55fd7d4edee2|53|7 998,9,5,6,5,6,2,3,8,5,2,5,3,8,419,1484,
scooby_state_55fd7d4edee2|22|6 1003,7,5,3,1,7,7,3,3,3,1,1,3,4,429,1480,
scooby_state_55fd7d4edee2|27|8 1047,3,13,4,1,1,6,2,1,3,2,5,3,2,386,1479,
scooby_state_55fd7d4edee2|59|7 969,7,5,6,10,10,4,1,5,4,8,2,8,7,432,1478,
scooby_state_55fd7d4edee2|16|7 998,6,5,13,6,3,3,1,1,5,3,3,3,6,419,1475,
scooby_state_55fd7d4edee2|16|8 1012,6,6,4,5,5,2,4,3,1,1,3,4,3,416,1475,
scooby_state_55fd7d4edee2|49|6 984,7,4,6,2,5,6,4,3,2,3,2,3,7,436,1474,
scooby_state_55fd7d4edee2|9|7 1012,8,3,7,3,7,2,6,4,1,7,1,5,10,397,1473,
scooby_state_55fd7d4edee2|6|6 1000,10,3,3,1,3,5,4,3,5,3,3,2,1,425,1471,
scooby_state_55fd7d4edee2|45|7 1003,7,3,9,6,4,6,5,2,5,9,5,6,4,395,1469,
scooby_state_55fd7d4edee2|20|7 983,6,4,10,4,5,6,3,2,5,2,7,2,13,415,1467,
scooby_state_55fd7d4edee2|52|8 994,3,4,3,1,2,0,1,7,2,4,4,3,1,429,1458,
scooby_state_55fd7d4edee2|13|7 984,13,4,8,4,7,5,4,4,0,1,2,3,6,411,1456,
scooby_state_55fd7d4edee2|37|8 1014,5,7,5,2,2,5,1,3,3,3,4,3,3,396,1456,
scooby_state_55fd7d4edee2|48|8 992,7,7,5,1,7,2,1,2,3,0,3,2,3,421,1456,
scooby_state_55fd7d4ede73|61|5 762,42,42,39,41,41,39,42,39,38,36,62,62,54,110,1449,
scooby_state_55fd7d4edee2|60|8 930,3,5,1,3,3,1,4,2,1,2,3,2,1,481,1442,
scooby_state_55fd7d4edee2|58|8 945,7,11,1,3,3,6,0,3,6,2,2,3,1,440,1433,
scooby_state_55fd7d4edee2|43|7 968,14,9,11,5,2,3,4,4,8,3,4,6,7,383,1431,
scooby_state_55fd7d4edee2|45|8 989,5,11,5,3,2,2,0,4,3,5,2,3,1,396,1431,
scooby_state_55fd7d4edee2|7|7 974,4,10,4,2,6,6,6,1,0,4,3,4,6,401,1431,
scooby_state_55fd7d4edee2|18|7 993,11,3,9,1,5,6,6,6,6,5,4,8,6,362,1431,
scooby_state_55fd7d4edee2|32|7 1001,6,3,8,2,7,6,4,4,3,3,5,3,9,364,1428,
scooby_state_55fd7d4edee2|27|10 973,12,13,7,2,7,5,2,9,10,1,8,11,8,353,1421,
scooby_state_55fd7d4edee2|26|8 1023,4,7,2,1,2,3,2,2,1,3,2,4,4,358,1418,
scooby_state_55fd7d4edee2|52|7 936,7,3,7,5,9,4,4,3,6,1,5,6,5,416,1417,
scooby_state_55fd7d4edee2|50|7 955,12,9,7,10,6,2,1,4,4,4,3,5,5,388,1415,
scooby_state_55fd7d4edee2|62|6 910,3,7,2,3,3,2,3,3,2,3,2,6,4,460,1413,
scooby_state_55fd7d4edee2|47|7 939,7,6,4,6,11,9,6,3,4,5,4,8,5,396,1413,
scooby_state_55fd7d4edee2|14|6 934,0,4,2,3,0,5,3,1,1,2,2,1,3,451,1412,
scooby_state_55fd7d4edee2|62|7 902,4,5,8,8,5,4,6,7,4,5,5,3,7,427,1400,
scooby_state_55fd7d4edee2|20|9 956,9,10,10,2,5,6,5,3,0,3,3,4,9,371,1396,
scooby_state_55fd7d4edee2|28|6 995,5,5,3,4,2,3,1,2,1,1,1,1,1,370,1395,
scooby_state_55fd7d4edee2|32|8 965,7,8,4,3,3,4,4,3,2,3,4,4,4,375,1393,
scooby_state_55fd7d4edee2|61|9 902,8,9,8,5,9,12,5,5,1,6,7,9,4,403,1393,
scooby_state_55fd7d4edee2|57|8 931,4,9,3,3,3,2,4,3,5,2,1,2,2,417,1391,
scooby_state_55fd7d4edee2|60|6 929,2,2,4,2,3,4,1,3,8,2,0,2,3,423,1388,
scooby_state_55fd7d4edee2|18|8 974,5,4,3,2,1,0,1,3,2,2,1,3,2,384,1387,
scooby_state_55fd7d4edee2|55|7 938,2,5,2,6,6,3,6,3,3,1,5,3,9,393,1385,
scooby_state_55fd7d4edee2|25|6 997,3,5,3,3,3,4,3,0,0,2,5,3,0,353,1384,
scooby_state_55fd7d4edee2|24|8 956,3,4,5,2,1,3,3,4,3,1,3,3,2,384,1377,
scooby_state_55fd7d4edee2|15|7 933,7,5,7,7,9,8,3,3,5,4,9,1,7,364,1372,
scooby_state_55fd7d4edee2|36|8 972,4,7,3,5,1,2,2,4,2,2,3,6,3,353,1369,
scooby_state_55fd7d4edee2|26|7 943,9,5,7,5,8,4,2,4,1,6,4,6,9,353,1366,
scooby_state_55fd7d4edee2|12|9 951,6,6,10,8,5,4,6,7,3,2,5,7,3,343,1366,
scooby_state_55fd7d4edee2|61|7 895,4,6,4,2,4,3,5,2,3,5,3,5,6,413,1360,
scooby_state_55fd7d4edee2|24|9 943,6,6,8,4,2,9,5,3,2,2,7,5,6,349,1357,
scooby_state_55fd7d4edee2|47|8 911,4,5,8,1,9,1,3,2,1,0,2,5,1,403,1356,
scooby_state_55fd7d4edee2|63|7 901,10,8,6,2,8,8,3,8,1,3,6,7,7,377,1355,
scooby_state_55fd7d4edee2|42|8 924,7,3,4,2,5,3,1,3,2,2,2,2,0,389,1349,
scooby_state_55fd7d4edee2|46|8 918,2,7,8,3,3,0,1,0,2,0,3,2,2,395,1346,
scooby_state_55fd7d4edee2|27|7 930,5,3,6,4,6,4,7,5,4,3,0,4,9,355,1345,
scooby_state_55fd7d4edee2|56|7 875,5,3,4,6,9,3,4,3,4,5,3,3,10,408,1345,
scooby_state_55fd7d4edee2|55|8 917,5,5,1,1,4,4,4,3,1,3,1,3,0,391,1343,
scooby_state_55fd7d4edee2|35|7 963,6,2,4,5,3,2,4,3,2,1,5,6,3,333,1342,
scooby_state_55fd7d4edee2|57|9 924,13,6,7,6,3,4,5,5,5,4,6,7,7,340,1342,
scooby_state_55fd7d4edee2|59|8 888,9,6,4,4,6,1,5,2,3,3,2,3,2,402,1340,
scooby_state_55fd7d4edee2|50|9 927,7,4,6,5,7,5,4,1,4,2,8,5,3,351,1339,
scooby_state_55fd7d4edee2|42|9 928,5,13,2,6,2,5,4,4,3,2,7,2,10,345,1338,
scooby_state_55fd7d4edee2|47|9 895,6,7,8,6,3,5,4,7,2,4,9,2,9,370,1337,
scooby_state_55fd7d4edee2|33|8 922,3,3,4,2,5,2,3,5,0,1,3,3,4,373,1333,
scooby_state_55fd7d4edee2|22|7 877,7,8,9,6,6,8,7,2,5,3,4,0,2,388,1332,
scooby_state_55fd7d4edee2|53|8 880,6,7,2,4,2,0,1,5,1,6,6,1,3,397,1321,
scooby_state_55fd7d4edee2|32|9 920,8,5,11,3,4,2,2,5,5,7,5,6,4,330,1317,
scooby_state_55fd7d4edee2|29|8 924,5,7,3,3,1,2,2,3,1,2,2,4,2,355,1316,
scooby_state_55fd7d4edee2|53|9 909,2,6,6,6,5,6,8,2,3,5,4,3,4,341,1310,
scooby_state_55fd7d4edee2|40|8 886,7,5,7,3,4,2,0,1,0,2,3,2,2,379,1303,
scooby_state_55fd7d4edee2|28|7 935,7,6,6,1,4,2,3,6,1,2,2,4,1,322,1302,
scooby_state_55fd7d4edee2|27|11 904,6,6,4,10,7,8,6,5,5,5,11,6,7,309,1299,
scooby_state_55fd7d4edee2|22|8 890,3,9,4,3,1,0,3,5,2,2,2,1,2,369,1296,
scooby_state_55fd7d4edee2|41|9 907,3,4,5,5,5,3,4,5,2,3,5,3,4,335,1293,
scooby_state_55fd7d4edee2|59|9 876,9,7,7,10,3,8,3,2,3,5,5,5,5,344,1292,
scooby_state_55fd7d4edee2|36|9 888,5,7,9,5,6,5,6,5,1,3,3,2,6,338,1289,
scooby_state_55fd7d4edee2|25|8 900,6,10,4,3,2,2,1,5,3,4,2,0,3,343,1288,
scooby_state_55fd7d4edee2|50|8 856,1,8,2,1,2,3,2,2,3,1,6,1,6,393,1287,
scooby_state_55fd7d4edee2|30|8 954,4,3,1,1,1,0,2,2,1,4,4,1,5,302,1285,
scooby_state_55fd7d4edee2|27|9 924,5,9,6,6,4,4,3,0,1,1,5,6,4,307,1285,
scooby_state_55fd7d4edee2|58|7 837,2,6,10,8,3,2,4,5,5,0,7,4,8,382,1283,
scooby_state_55fd7d4edee2|8|7 886,4,8,9,5,6,4,2,3,2,5,6,2,3,338,1283,
scooby_state_55fd7d4edee2|21|7 888,4,2,5,5,8,3,4,3,3,2,3,1,7,342,1280,
scooby_state_55fd7d4edee2|48|9 881,6,3,6,6,8,5,4,4,4,4,0,9,3,333,1276,
scooby_state_55fd7d4edee2|51|8 857,3,3,4,5,1,3,1,3,4,4,3,2,3,380,1276,
scooby_state_55fd7d4edee2|12|7 856,3,5,13,7,4,3,5,5,1,2,3,1,8,357,1273,
scooby_state_55fd7d4edee2|51|9 852,3,9,8,6,5,2,4,4,5,3,8,5,1,353,1268,
scooby_state_55fd7d4edee2|12|8 897,8,4,7,2,2,2,5,1,1,2,2,1,1,332,1267,
scooby_state_55fd7d4edee2|37|9 919,6,4,7,7,9,5,7,5,3,0,2,5,5,281,1265,
scooby_state_55fd7d4edee2|55|9 859,3,9,5,7,8,5,4,3,2,5,5,1,5,343,1264,
scooby_state_55fd7d4edee2|29|7 894,9,3,8,3,2,7,5,5,7,0,2,1,3,315,1264,
scooby_state_55fd7d4edee2|39|8 875,4,12,3,1,2,2,5,4,2,4,0,5,1,344,1264,
scooby_state_55fd7d4edee2|49|8 844,3,5,2,2,0,3,1,2,1,2,5,1,4,388,1263,
scooby_state_55fd7d4edee2|14|8 865,2,5,7,0,1,1,0,2,0,2,1,2,1,370,1259,
scooby_state_55fd7d4edee2|37|10 863,10,4,6,8,7,6,4,1,6,3,3,7,8,319,1255,
scooby_state_55fd7d4edee2|38|9 867,10,4,5,6,4,7,1,4,8,7,4,5,10,312,1254,
scooby_state_55fd7d4edee2|13|8 842,4,7,4,1,5,3,0,0,2,5,1,3,1,369,1247,
scooby_state_55fd7d4edee2|44|9 875,7,8,4,4,3,4,7,3,2,4,5,1,2,318,1247,
scooby_state_55fd7d4edee2|19|7 837,6,3,4,5,4,4,1,5,7,2,2,4,3,359,1246,
scooby_state_55fd7d4edee2|44|11 867,13,8,6,9,3,3,3,3,5,3,8,6,5,304,1246,
scooby_state_55fd7d4edee2|40|9 892,6,5,7,2,2,5,6,3,2,2,3,8,1,297,1241,
scooby_state_55fd7d4edee2|14|10 882,6,3,10,4,10,1,4,4,4,9,7,5,5,286,1240,
scooby_state_55fd7d4edee2|28|8 866,3,6,1,4,3,2,3,5,1,1,3,2,3,334,1237,
scooby_state_55fd7d4edee2|54|7 791,13,7,5,3,4,3,5,4,1,5,4,4,7,381,1237,
scooby_state_55fd7d4edee2|9|8 854,3,3,4,1,3,2,1,1,4,1,6,3,1,350,1237,
scooby_state_55fd7d4edee2|11|9 845,7,15,4,7,7,3,5,5,6,1,2,3,3,323,1236,
scooby_state_55fd7d4edee2|8|8 860,2,8,5,1,6,3,2,2,3,1,3,4,2,334,1236,
scooby_state_55fd7d4edee2|26|9 880,6,4,6,6,6,6,5,6,7,2,4,5,0,289,1232,
scooby_state_55fd7d4edee2|18|9 850,5,8,7,4,2,2,5,5,4,5,4,7,4,319,1231,
scooby_state_55fd7d4edee2|46|9 844,5,8,9,9,6,5,4,5,5,2,2,6,1,319,1230,
scooby_state_55fd7d4edee2|13|9 857,3,8,8,8,3,2,7,9,4,3,3,2,5,305,1227,
scooby_state_55fd7d4edee2|38|8 880,1,10,6,3,1,0,1,4,1,2,0,2,5,306,1222,
scooby_state_55fd7d4edee2|63|8 775,3,4,8,4,3,2,4,0,1,6,3,3,3,403,1222,
scooby_state_55fd7d4edee2|57|10 825,9,7,13,9,6,7,5,1,7,12,3,5,3,309,1221,
scooby_state_55fd7d4edee2|39|10 858,7,5,8,7,8,8,5,6,4,6,12,5,5,275,1219,
scooby_state_55fd7d4edee2|17|10 878,9,4,13,5,5,2,3,6,5,5,8,3,7,263,1216,
scooby_state_55fd7d4edee2|10|8 859,7,9,4,6,3,1,1,2,1,3,1,2,3,314,1216,
scooby_state_55fd7d4edee2|28|10 860,8,3,5,6,10,3,1,8,2,4,5,2,1,297,1215,
scooby_state_55fd7d4edee2|61|10 775,6,7,8,4,7,4,6,7,10,9,3,7,10,351,1214,
scooby_state_55fd7d4edee2|19|8 839,3,4,1,4,6,7,2,3,1,0,2,1,4,335,1212,
scooby_state_55fd7d4edee2|10|9 840,7,12,8,5,2,4,8,1,6,4,5,4,2,300,1208,
scooby_state_55fd7d4edee2|45|9 842,5,9,7,3,6,2,4,3,6,4,8,3,3,301,1206,
scooby_state_55fd7d4edee2|41|10 818,6,5,8,2,5,5,8,6,3,7,4,5,8,312,1202,
scooby_state_55fd7d4edee2|16|9 814,5,5,8,4,3,11,2,5,0,2,3,3,4,332,1201,
scooby_state_55fd7d4edee2|16|10 845,5,5,7,2,6,0,3,1,2,3,2,5,5,310,1201,
scooby_state_55fd7d4edee2|23|10 816,7,4,5,3,7,7,8,2,5,7,6,6,4,302,1189,
scooby_state_55fd7d4edee2|22|11 869,6,6,2,12,4,5,6,8,2,1,8,2,2,256,1189,
scooby_state_55fd7d4edee2|15|9 793,6,6,10,2,8,6,2,4,2,3,4,4,5,333,1188,
scooby_state_55fd7d4edeca|41|1 830,7,2,3,7,8,10,4,9,1,1,12,4,6,284,1188,
scooby_state_55fd7d4edee2|34|8 848,4,9,8,2,3,1,4,0,1,3,2,3,1,292,1181,
scooby_state_55fd7d4edeca|54|1 860,6,7,5,8,8,5,9,5,5,5,4,1,4,248,1180,
scooby_state_55fd7d4edeca|31|1 838,9,8,7,2,4,3,2,4,3,7,2,4,4,282,1179,
scooby_state_55fd7d4edee2|29|9 841,5,7,2,2,3,4,6,3,2,3,5,2,6,287,1178,
scooby_state_55fd7d4edee2|11|10 821,3,13,8,6,4,6,3,6,1,4,5,4,3,290,1177,
scooby_state_55fd7d4edee2|13|10 839,7,2,3,10,8,1,4,5,6,2,7,5,4,273,1176,
scooby_state_55fd7d4edee2|33|9 836,7,1,5,3,4,2,1,3,4,3,4,5,3,294,1175,
scooby_state_55fd7d4edee2|61|11 788,5,9,8,9,6,4,4,5,5,7,3,0,3,318,1174,
scooby_state_55fd7d4edee2|25|9 792,2,8,6,5,7,5,3,4,5,0,6,5,4,322,1174,
scooby_state_55fd7d4edeca|44|1 847,9,5,6,9,7,4,8,3,5,1,1,3,4,261,1173,
scooby_state_55fd7d4edee2|17|8 811,1,5,4,1,2,1,4,3,2,1,3,4,1,329,1172,
scooby_state_55fd7d4edee2|31|10 856,4,4,2,6,4,3,9,5,8,2,8,2,8,250,1171,
scooby_state_55fd7d4edeca|26|1 846,5,7,5,5,5,5,2,5,1,7,5,7,6,259,1170,
scooby_state_55fd7d4edeca|30|1 844,2,8,6,2,3,4,7,1,1,2,10,9,4,266,1169,
scooby_state_55fd7d4edee2|52|10 803,11,5,4,7,7,7,4,4,5,6,3,6,9,287,1168,
scooby_state_55fd7d4edee2|60|9 733,5,10,7,1,3,2,4,6,3,7,7,5,3,372,1168,
scooby_state_55fd7d4edeca|29|1 823,5,8,9,3,3,8,7,3,5,4,5,8,6,269,1166,
scooby_state_55fd7d4edeca|27|1 864,10,7,7,9,5,3,5,3,6,6,5,1,5,228,1164,
scooby_state_55fd7d4edeca|25|1 853,8,6,5,5,2,7,1,4,2,7,5,2,4,251,1162,
scooby_state_55fd7d4edee2|58|10 768,10,5,5,5,11,4,7,5,4,3,4,5,3,322,1161,
scooby_state_55fd7d4edee2|47|10 789,5,6,11,6,5,3,3,10,1,3,4,2,7,305,1160,
scooby_state_55fd7d4edee2|51|10 797,5,6,1,6,4,5,5,6,4,4,9,2,1,301,1156,
scooby_state_55fd7d4edee2|19|9 836,9,5,6,7,7,3,6,1,2,2,5,1,2,260,1152,
scooby_state_55fd7d4edeca|16|1 869,2,2,4,7,5,6,6,6,4,4,2,9,7,218,1151,
scooby_state_55fd7d4edeca|60|1 847,8,5,6,4,6,9,4,6,1,4,6,6,4,234,1150,
scooby_state_55fd7d4edee2|63|11 740,7,10,7,6,2,7,4,2,5,6,2,7,7,338,1150,
scooby_state_55fd7d4edee2|58|9 762,10,8,8,6,7,6,2,6,5,4,1,2,12,310,1149,
scooby_state_55fd7d4edeca|62|1 844,5,5,7,8,7,2,2,1,6,5,1,5,3,248,1149,
scooby_state_55fd7d4edee2|24|10 782,9,4,9,4,7,5,2,9,6,3,4,4,3,295,1146,
scooby_state_55fd7d4edeca|23|1 850,9,3,5,5,4,5,3,1,6,5,10,6,6,228,1146,
scooby_state_55fd7d4edee2|60|10 761,13,5,8,4,5,3,5,2,5,3,8,3,4,317,1146,
scooby_state_55fd7d4edee2|62|10 769,6,3,8,5,7,5,7,5,4,2,4,5,5,311,1146,
scooby_state_55fd7d4edeca|36|1 836,3,11,5,6,9,4,5,2,6,9,4,7,8,229,1144,
scooby_state_55fd7d4edee2|49|9 784,7,7,4,3,3,3,8,3,2,2,6,3,5,303,1143,
scooby_state_55fd7d4edeca|32|1 783,4,8,2,1,9,6,5,5,6,7,5,5,4,290,1140,
scooby_state_55fd7d4edee2|61|13 783,3,2,5,10,4,7,0,5,2,3,5,6,2,298,1135,
scooby_state_55fd7d4edee2|19|12 799,7,14,7,2,7,7,1,6,3,5,3,4,2,268,1135,
scooby_state_55fd7d4edeca|61|1 841,5,3,5,5,4,8,3,4,3,7,4,7,3,228,1130,
scooby_state_55fd7d4edee2|17|9 751,3,4,5,3,3,7,3,6,2,4,2,6,5,326,1130,
scooby_state_55fd7d4edee2|21|8 780,5,6,1,2,3,3,3,0,2,2,2,4,3,312,1128,
scooby_state_55fd7d4edeca|24|1 822,5,5,3,6,6,6,4,5,3,4,5,7,8,237,1126,
scooby_state_55fd7d4edee2|43|9 807,6,2,1,3,5,7,3,6,3,2,2,1,3,275,1126,
scooby_state_55fd7d4edeca|58|1 822,6,8,4,2,4,7,10,5,3,2,4,7,4,238,1126,
scooby_state_55fd7d4edee2|34|10 793,8,2,7,5,4,8,7,6,5,7,1,2,2,269,1126,
scooby_state_55fd7d4edee2|26|10 796,4,6,8,5,4,4,4,4,5,4,3,4,5,269,1125,
scooby_state_55fd7d4edeca|53|1 838,7,13,4,7,1,7,3,4,6,5,3,3,5,219,1125,
scooby_state_55fd7d4edeca|10|1 853,7,3,3,9,9,1,6,9,3,2,1,5,6,208,1125,
scooby_state_55fd7d4edee2|48|10 754,6,7,11,4,3,8,5,1,2,0,3,4,7,309,1124,
scooby_state_55fd7d4edee2|33|11 807,9,7,6,3,3,5,4,4,4,1,5,8,6,244,1116,
scooby_state_55fd7d4edeca|22|1 782,7,7,9,6,7,3,3,3,6,7,5,2,5,262,1114,
scooby_state_55fd7d4edee2|59|11 755,9,4,5,4,10,8,4,4,0,7,4,6,7,287,1114,
scooby_state_55fd7d4edeca|50|1 811,7,9,3,7,5,5,7,4,4,3,8,3,9,228,1113,
scooby_state_55fd7d4edeca|11|1 827,2,8,5,4,8,6,5,8,3,4,6,3,0,224,1113,
scooby_state_55fd7d4edee2|55|11 747,5,11,10,4,4,3,2,4,3,8,5,7,5,294,1112,
scooby_state_55fd7d4edee2|21|10 801,6,10,3,4,8,2,3,8,4,1,5,3,3,251,1112,
scooby_state_55fd7d4edeca|51|1 821,7,5,10,6,5,3,3,5,4,5,2,5,7,221,1109,
scooby_state_55fd7d4edee2|38|11 794,12,1,6,8,9,4,3,3,2,4,3,2,5,252,1108,
scooby_state_55fd7d4edee2|18|11 755,10,4,5,10,6,3,3,5,1,5,10,4,10,277,1108,
scooby_state_55fd7d4edeca|57|1 819,5,3,3,4,5,5,1,2,2,0,7,4,2,245,1107,
scooby_state_55fd7d4edee2|44|10 795,9,8,4,7,6,3,7,1,5,4,2,2,1,252,1106,
scooby_state_55fd7d4edeca|35|1 778,8,5,5,4,6,9,7,5,1,4,4,4,6,259,1105,
scooby_state_55fd7d4edee2|14|11 750,8,11,2,6,4,7,4,1,3,4,7,7,10,281,1105,
scooby_state_55fd7d4edeca|56|2 764,9,8,5,7,2,7,6,3,2,5,7,6,5,269,1105,
scooby_state_55fd7d4edee2|29|12 766,12,7,7,6,2,4,5,5,4,2,5,5,3,271,1104,
scooby_state_55fd7d4edee2|59|10 723,3,8,9,4,4,7,8,4,3,4,7,5,4,310,1103,
scooby_state_55fd7d4edee2|47|11 747,14,6,6,6,7,9,7,3,9,3,5,5,2,274,1103,
scooby_state_55fd7d4edee2|56|10 749,6,7,5,2,9,6,4,4,1,5,7,6,5,287,1103,
scooby_state_55fd7d4edeca|28|1 790,7,4,4,8,2,2,5,6,6,1,5,6,3,252,1101,
scooby_state_55fd7d4edee2|56|11 732,11,10,11,6,4,7,4,6,4,6,5,8,2,283,1099,
scooby_state_55fd7d4edee2|51|11 760,11,6,2,8,7,3,7,4,2,7,3,5,10,264,1099,
scooby_state_55fd7d4edeca|13|1 819,11,9,5,4,6,4,5,4,5,4,4,5,2,212,1099,
scooby_state_55fd7d4edeca|20|1 819,13,4,2,7,4,5,7,7,4,3,5,7,7,201,1095,
scooby_state_55fd7d4edeca|56|1 808,4,6,6,8,0,2,0,4,4,2,10,1,5,235,1095,
[...]
scooby_state_55fd7d4edeca|12|-43 1,0,0,0,0,0,0,0,0,0,0,0,0,0,0,1,
scooby_state_55fd7d4edee2|6|-39 1,0,0,0,0,0,0,0,0,0,0,0,0,0,0,1,
scooby_state_55fd7d4edee2|2|-23 1,0,0,0,0,0,0,0,0,0,0,0,0,0,0,1,
scooby_state_152d179fd390|14|0 1,0,0,0,0,0,0,0,0,0,0,0,0,0,0,1,
scooby_state_55fd7d4eded6|34|8 1,0,0,0,0,0,0,0,0,0,0,0,0,0,0,1,
scooby_state_55fd7d4edec6|52|10 0,0,0,0,0,0,0,0,0,0,0,1,0,0,0,1,
scooby_state_55fd7d4edebf|15|3 1,0,0,0,0,0,0,0,0,0,0,0,0,0,0,1,
scooby_state_55fd7d4edee2|1|-24 0,0,0,0,0,0,0,0,0,0,0,0,0,0,1,1,
scooby_state_55fd7d4edec6|29|18 0,0,0,0,0,1,0,0,0,0,0,0,0,0,0,1,
scooby_state_55fd7d4edeca|38|-20 0,0,0,1,0,0,0,0,0,0,0,0,0,0,0,1,
scooby_state_55fd7d4edec6|30|1 0,0,0,0,0,1,0,0,0,0,0,0,0,0,0,1,
scooby_state_55fd7d4ede7b|41|0 0,0,0,0,1,0,0,0,0,0,0,0,0,0,0,1,
scooby_state_55fd7d4edec6|51|5 1,0,0,0,0,0,0,0,0,0,0,0,0,0,0,1,
scooby_state_55fd7d4eded6|46|22 1,0,0,0,0,0,0,0,0,0,0,0,0,0,0,1,
scooby_state_55fd7d4eded6|54|51 1,0,0,0,0,0,0,0,0,0,0,0,0,0,0,1,
scooby_state_55fd7d4eded6|32|4 1,0,0,0,0,0,0,0,0,0,0,0,0,0,0,1,
scooby_state_55fd7d4ede77|31|20 0,0,0,0,0,0,0,0,1,0,0,0,0,0,0,1,
scooby_state_55fd7d4edec6|58|24 0,0,0,0,0,0,0,0,0,0,0,0,0,0,1,1,
scooby_state_55fd7d4eded6|54|8 1,0,0,0,0,0,0,0,0,0,0,0,0,0,0,1,
scooby_state_55fd7d4eded6|45|34 1,0,0,0,0,0,0,0,0,0,0,0,0,0,0,1,
scooby_state_55fd7d4edebf|50|20 0,0,0,0,0,0,0,0,0,0,0,0,0,0,1,1,
scooby_state_55fd7d4eded6|47|33 1,0,0,0,0,0,0,0,0,0,0,0,0,0,0,1,
scooby_state_55fd7d4edec6|60|32 0,0,0,0,0,0,0,0,1,0,0,0,0,0,0,1,
scooby_state_55fd7d4edebf|35|23 0,0,0,0,0,0,0,0,0,1,0,0,0,0,0,1,
scooby_state_55fd7d4edebf|43|3 0,0,0,0,0,0,0,1,0,0,0,0,0,0,0,1,
scooby_state_55fd7d4edf15|33|0 0,1,0,0,0,0,0,0,0,0,0,0,0,0,0,1,
scooby_state_55fd7d4edebf|56|5 0,0,0,0,0,0,0,0,0,0,0,1,0,0,0,1,
scooby_state_55fd7d4edeca|44|-9 1,0,0,0,0,0,0,0,0,0,0,0,0,0,0,1,
scooby_state_55fd7d4edeca|10|-46 1,0,0,0,0,0,0,0,0,0,0,0,0,0,0,1,
scooby_state_55fd7d4edeca|29|-33 0,1,0,0,0,0,0,0,0,0,0,0,0,0,0,1,
scooby_state_152d17a30376|12|2 1,0,0,0,0,0,0,0,0,0,0,0,0,0,0,1,
scooby_state_55fd7d4edec6|37|6 0,0,0,0,0,0,0,0,1,0,0,0,0,0,0,1,
scooby_state_55fd7d4edebf|33|12 1,0,0,0,0,0,0,0,0,0,0,0,0,0,0,1,
scooby_state_55fd7d4edf15|17|0 1,0,0,0,0,0,0,0,0,0,0,0,0,0,0,1,
scooby_state_55fd7d4ede77|16|16 0,0,0,0,0,0,1,0,0,0,0,0,0,0,0,1,
scooby_state_55fd7d4edec6|45|8 0,0,0,0,0,0,0,0,0,0,0,0,1,0,0,1,
scooby_state_55fd7d4edebf|50|5 0,0,0,0,0,0,0,0,0,0,0,1,0,0,0,1,
scooby_state_55fd7d4edebf|38|5 0,1,0,0,0,0,0,0,0,0,0,0,0,0,0,1,
scooby_state_55fd7d4ede77|35|13 0,0,0,0,0,0,0,0,0,0,1,0,0,0,0,1,
scooby_state_55fd7d4ede77|14|2 0,0,0,0,0,0,0,0,0,0,0,0,1,0,0,1,
scooby_state_55fd7d4edeca|26|-22 1,0,0,0,0,0,0,0,0,0,0,0,0,0,0,1,
scooby_state_55fd7d4eded6|39|6 1,0,0,0,0,0,0,0,0,0,0,0,0,0,0,1,
scooby_state_55fd7d4edebf|15|15 1,0,0,0,0,0,0,0,0,0,0,0,0,0,0,1,
scooby_state_55fd7d4edebf|13|6 0,0,0,0,1,0,0,0,0,0,0,0,0,0,0,1,
scooby_state_55fd7d4eded6|41|38 1,0,0,0,0,0,0,0,0,0,0,0,0,0,0,1,
scooby_state_55fd7d4eded6|23|10 1,0,0,0,0,0,0,0,0,0,0,0,0,0,0,1,
scooby_state_55fd7d4edec6|42|5 0,0,0,0,0,0,0,0,0,0,0,0,1,0,0,1,
scooby_state_55fd7d4edebf|50|13 0,0,0,0,0,0,0,0,1,0,0,0,0,0,0,1,
scooby_state_55fd7d4ede77|33|10 0,0,1,0,0,0,0,0,0,0,0,0,0,0,0,1,
scooby_state_55fd7d4eded6|33|10 1,0,0,0,0,0,0,0,0,0,0,0,0,0,0,1,
scooby_state_55fd7d4eded6|36|25 1,0,0,0,0,0,0,0,0,0,0,0,0,0,0,1,
scooby_state_55fd7d4eded6|21|14 1,0,0,0,0,0,0,0,0,0,0,0,0,0,0,1,
scooby_state_55fd7d4ede77|43|21 0,1,0,0,0,0,0,0,0,0,0,0,0,0,0,1,
scooby_state_55fd7d4edec6|34|31 0,0,0,0,0,0,0,0,0,1,0,0,0,0,0,1,
scooby_state_55fd7d4eded6|28|18 1,0,0,0,0,0,0,0,0,0,0,0,0,0,0,1,
scooby_state_55fd7d4edee2|2|-26 1,0,0,0,0,0,0,0,0,0,0,0,0,0,0,1,
scooby_state_55fd7d4edebf|18|4 1,0,0,0,0,0,0,0,0,0,0,0,0,0,0,1,
scooby_state_55fd7d4edeca|14|-27 0,0,0,1,0,0,0,0,0,0,0,0,0,0,0,1,
scooby_state_55fd7d4edeca|6|-39 1,0,0,0,0,0,0,0,0,0,0,0,0,0,0,1,
scooby_state_55fd7d4ede77|60|1 1,0,0,0,0,0,0,0,0,0,0,0,0,0,0,1,
scooby_state_55fd7d4eded6|13|9 1,0,0,0,0,0,0,0,0,0,0,0,0,0,0,1,
scooby_state_55fd7d4edec6|39|4 0,0,0,0,0,0,0,0,0,0,0,1,0,0,0,1,
scooby_state_55fd7d4edee2|0|-60 0,0,0,0,0,0,0,0,0,0,0,0,0,0,1,1,
scooby_state_55fd7d4edebf|56|2 1,0,0,0,0,0,0,0,0,0,0,0,0,0,0,1,
scooby_state_55fd7d4edebf|8|6 1,0,0,0,0,0,0,0,0,0,0,0,0,0,0,1,
scooby_state_55fd7d4edebf|21|6 0,0,0,0,0,0,0,0,0,0,1,0,0,0,0,1,
scooby_state_55fd7d4eded6|36|35 1,0,0,0,0,0,0,0,0,0,0,0,0,0,0,1,
scooby_state_55fd7d4eded6|38|31 1,0,0,0,0,0,0,0,0,0,0,0,0,0,0,1,
scooby_state_55fd7d4eded6|53|3 1,0,0,0,0,0,0,0,0,0,0,0,0,0,0,1,
scooby_state_55fd7d4edeca|5|-55 0,0,0,0,0,0,0,1,0,0,0,0,0,0,0,1,
scooby_state_55fd7d4edeca|13|-20 1,0,0,0,0,0,0,0,0,0,0,0,0,0,0,1,
scooby_state_55fd7d4eded6|35|11 1,0,0,0,0,0,0,0,0,0,0,0,0,0,0,1,
scooby_state_55fd7d4edeca|9|-20 1,0,0,0,0,0,0,0,0,0,0,0,0,0,0,1,
scooby_state_152d179fd400|16|1 1,0,0,0,0,0,0,0,0,0,0,0,0,0,0,1,
scooby_state_55fd7d4eded6|24|4 1,0,0,0,0,0,0,0,0,0,0,0,0,0,0,1,
scooby_state_55fd7d4eded6|46|12 1,0,0,0,0,0,0,0,0,0,0,0,0,0,0,1,
scooby_state_55fd7d4edec6|13|13 0,0,0,0,0,0,0,0,0,1,0,0,0,0,0,1,
scooby_state_55fd7d4edeca|56|-3 0,0,0,0,0,0,0,0,0,1,0,0,0,0,0,1,
scooby_state_55fd7d4eded6|19|18 1,0,0,0,0,0,0,0,0,0,0,0,0,0,0,1,
scooby_state_55fd7d4eded6|28|2 1,0,0,0,0,0,0,0,0,0,0,0,0,0,0,1,
scooby_state_55fd7d4ede77|41|10 0,0,0,0,1,0,0,0,0,0,0,0,0,0,0,1,
scooby_state_152d179fd601|24|1 1,0,0,0,0,0,0,0,0,0,0,0,0,0,0,1,
scooby_state_55fd7d4edee2|4|-53 1,0,0,0,0,0,0,0,0,0,0,0,0,0,0,1,
scooby_state_55fd7d4edeca|42|-9 1,0,0,0,0,0,0,0,0,0,0,0,0,0,0,1,
scooby_state_55fd7d4edee2|4|-59 1,0,0,0,0,0,0,0,0,0,0,0,0,0,0,1,
scooby_state_55fd7d4edeca|9|-46 1,0,0,0,0,0,0,0,0,0,0,0,0,0,0,1,
scooby_state_55fd7d4ede77|29|9 0,0,0,0,0,0,0,0,0,1,0,0,0,0,0,1,
scooby_state_55fd7d4edee2|6|-38 0,0,0,0,0,0,0,0,0,0,0,1,0,0,0,1,
scooby_state_55fd7d4ee0c0|3|1 1,0,0,0,0,0,0,0,0,0,0,0,0,0,0,1,
scooby_state_55fd7d4edec6|18|-17 0,0,0,0,0,0,0,0,0,1,0,0,0,0,0,1,
scooby_state_55fd7d4edeca|9|-33 1,0,0,0,0,0,0,0,0,0,0,0,0,0,0,1,
scooby_state_55fd7d4edee2|3|-36 1,0,0,0,0,0,0,0,0,0,0,0,0,0,0,1,
scooby_state_55fd7d4eded6|24|10 1,0,0,0,0,0,0,0,0,0,0,0,0,0,0,1,
scooby_state_55fd7d4eded6|53|4 1,0,0,0,0,0,0,0,0,0,0,0,0,0,0,1,
scooby_state_55fd7d4edec6|27|22 1,0,0,0,0,0,0,0,0,0,0,0,0,0,0,1,
scooby_state_55fd7d4ede77|53|2 0,0,0,0,0,1,0,0,0,0,0,0,0,0,0,1,
scooby_state_152d179fd945|37|1 1,0,0,0,0,0,0,0,0,0,0,0,0,0,0,1,
scooby_state_55fd7d4ede77|14|8 0,0,0,1,0,0,0,0,0,0,0,0,0,0,0,1,
scooby_state_55fd7d4edee2|1|-59 1,0,0,0,0,0,0,0,0,0,0,0,0,0,0,1,
scooby_state_55fd7d4ede77|56|22 0,0,0,0,0,0,0,0,0,0,0,1,0,0,0,1,
scooby_state_55fd7d4edeca|2|-37 0,0,0,0,1,0,0,0,0,0,0,0,0,0,0,1,
scooby_state_55fd7d4edee2|1|-21 0,0,0,1,0,0,0,0,0,0,0,0,0,0,0,1,
scooby_state_152d17a39961|60|2 1,0,0,0,0,0,0,0,0,0,0,0,0,0,0,1,
scooby_state_55fd7d4ede77|40|40 0,0,0,0,0,0,0,0,1,0,0,0,0,0,0,1,
scooby_state_55fd7d4ede77|22|2 0,0,0,0,0,0,0,0,1,0,0,0,0,0,0,1,
scooby_state_55fd7d4ede77|53|3 1,0,0,0,0,0,0,0,0,0,0,0,0,0,0,1,
scooby_state_55fd7d4edebf|17|5 1,0,0,0,0,0,0,0,0,0,0,0,0,0,0,1,
scooby_state_55fd7d4eded6|37|8 1,0,0,0,0,0,0,0,0,0,0,0,0,0,0,1,
scooby_state_55fd7d4edec6|19|8 0,0,0,0,0,0,0,0,0,1,0,0,0,0,0,1,
scooby_state_55fd7d4ede77|39|3 1,0,0,0,0,0,0,0,0,0,0,0,0,0,0,1,
scooby_state_55fd7d4eded6|55|6 1,0,0,0,0,0,0,0,0,0,0,0,0,0,0,1,
scooby_state_55fd7d4edebf|46|11 1,0,0,0,0,0,0,0,0,0,0,0,0,0,0,1,
scooby_state_55fd7d4ede77|28|10 0,0,0,1,0,0,0,0,0,0,0,0,0,0,0,1,
scooby_state_55fd7d4edebf|61|5 0,0,0,0,1,0,0,0,0,0,0,0,0,0,0,1,
scooby_state_152d17a36504|20|1 1,0,0,0,0,0,0,0,0,0,0,0,0,0,0,1,
scooby_state_55fd7d4edebf|30|9 1,0,0,0,0,0,0,0,0,0,0,0,0,0,0,1,
scooby_state_55fd7d4ede77|38|8 0,0,0,0,0,0,0,1,0,0,0,0,0,0,0,1,
scooby_state_55fd7d4eded6|32|2 1,0,0,0,0,0,0,0,0,0,0,0,0,0,0,1,
scooby_state_55fd7d4eded6|4|2 1,0,0,0,0,0,0,0,0,0,0,0,0,0,0,1,
scooby_state_152d17a36540|21|1 1,0,0,0,0,0,0,0,0,0,0,0,0,0,0,1,
scooby_state_152d17a5d884|34|1 1,0,0,0,0,0,0,0,0,0,0,0,0,0,0,1,
scooby_state_55fd7d4ede77|61|5 0,0,0,0,0,0,1,0,0,0,0,0,0,0,0,1,
scooby_state_55fd7d4ede77|29|16 0,0,0,0,0,0,0,0,0,0,0,0,0,1,0,1,
scooby_state_55fd7d4eded6|41|5 1,0,0,0,0,0,0,0,0,0,0,0,0,0,0,1,
scooby_state_152d17a304a0|18|1 1,0,0,0,0,0,0,0,0,0,0,0,0,0,0,1,
scooby_state_55fd7d4edebf|12|2 1,0,0,0,0,0,0,0,0,0,0,0,0,0,0,1,
scooby_state_55fd7d4edeca|31|-13 1,0,0,0,0,0,0,0,0,0,0,0,0,0,0,1,
scooby_state_55fd7d4edec6|18|7 1,0,0,0,0,0,0,0,0,0,0,0,0,0,0,1,
scooby_state_55fd7d4edebf|15|9 1,0,0,0,0,0,0,0,0,0,0,0,0,0,0,1,
scooby_state_55fd7d4edec6|50|11 0,0,0,0,0,0,0,1,0,0,0,0,0,0,0,1,
scooby_state_55fd7d4eded6|58|51 1,0,0,0,0,0,0,0,0,0,0,0,0,0,0,1,
scooby_state_55fd7d4ede77|7|4 1,0,0,0,0,0,0,0,0,0,0,0,0,0,0,1,
scooby_state_55fd7d4edeca|43|-18 1,0,0,0,0,0,0,0,0,0,0,0,0,0,0,1,
scooby_state_55fd7d4eded6|62|45 1,0,0,0,0,0,0,0,0,0,0,0,0,0,0,1,
scooby_state_55fd7d4eded6|47|38 1,0,0,0,0,0,0,0,0,0,0,0,0,0,0,1,
scooby_state_55fd7d4edebf|57|7 0,0,0,0,0,0,0,0,0,1,0,0,0,0,0,1,
scooby_state_55fd7d4eded6|43|39 1,0,0,0,0,0,0,0,0,0,0,0,0,0,0,1,
scooby_state_55fd7d4edf0a|26|0 1,0,0,0,0,0,0,0,0,0,0,0,0,0,0,1,
scooby_state_55fd7d4edeca|7|-37 0,1,0,0,0,0,0,0,0,0,0,0,0,0,0,1,
scooby_state_55fd7d4edec6|50|9 1,0,0,0,0,0,0,0,0,0,0,0,0,0,0,1,
scooby_state_152d17a362d0|11|0 1,0,0,0,0,0,0,0,0,0,0,0,0,0,0,1,
scooby_state_55fd7d4ede77|26|4 1,0,0,0,0,0,0,0,0,0,0,0,0,0,0,1,
scooby_state_152d17a3a44d|17|0 1,0,0,0,0,0,0,0,0,0,0,0,0,0,0,1,
scooby_state_55fd7d4edeca|26|-20 1,0,0,0,0,0,0,0,0,0,0,0,0,0,0,1,
scooby_state_55fd7d4edebf|35|2 0,0,0,0,0,0,0,1,0,0,0,0,0,0,0,1,
scooby_state_55fd7d4edeca|14|-31 1,0,0,0,0,0,0,0,0,0,0,0,0,0,0,1,
scooby_state_55fd7d4ec6a0|60|6 1,0,0,0,0,0,0,0,0,0,0,0,0,0,0,1,
scooby_state_152d179fef60|61|26 1,0,0,0,0,0,0,0,0,0,0,0,0,0,0,1,
scooby_state_55fd7d4eded6|54|50 1,0,0,0,0,0,0,0,0,0,0,0,0,0,0,1,
scooby_state_55fd7d4eded6|17|10 1,0,0,0,0,0,0,0,0,0,0,0,0,0,0,1,
scooby_state_55fd7d4edec6|58|1 0,0,0,0,0,0,0,0,1,0,0,0,0,0,0,1,
scooby_state_55fd7d4edebf|50|9 1,0,0,0,0,0,0,0,0,0,0,0,0,0,0,1,
scooby_state_55fd7d4edeca|5|-27 0,0,0,1,0,0,0,0,0,0,0,0,0,0,0,1,
scooby_state_55fd7d4edec6|29|5 0,0,0,0,0,0,0,0,0,0,0,0,0,0,1,1,
scooby_state_55fd7d4edec6|56|4 1,0,0,0,0,0,0,0,0,0,0,0,0,0,0,1,
scooby_state_55fd7d4eded6|59|20 1,0,0,0,0,0,0,0,0,0,0,0,0,0,0,1,
scooby_state_55fd7d4edec6|63|15 1,0,0,0,0,0,0,0,0,0,0,0,0,0,0,1,
scooby_state_55fd7d4eded6|49|7 1,0,0,0,0,0,0,0,0,0,0,0,0,0,0,1,
scooby_state_55fd7d4eded6|54|3 1,0,0,0,0,0,0,0,0,0,0,0,0,0,0,1,
scooby_state_152d17a3658f|19|-11 1,0,0,0,0,0,0,0,0,0,0,0,0,0,0,1,
scooby_state_55fd7d4edec6|60|6 1,0,0,0,0,0,0,0,0,0,0,0,0,0,0,1,
scooby_state_55fd7d4eded6|15|3 1,0,0,0,0,0,0,0,0,0,0,0,0,0,0,1,
scooby_state_55fd7d4ede77|32|14 0,0,0,1,0,0,0,0,0,0,0,0,0,0,0,1,
scooby_state_55fd7d4eded6|35|19 1,0,0,0,0,0,0,0,0,0,0,0,0,0,0,1,
scooby_state_55fd7d4edec6|57|7 0,0,0,0,0,0,0,0,0,1,0,0,0,0,0,1,
scooby_state_55fd7d4edec6|5|2 1,0,0,0,0,0,0,0,0,0,0,0,0,0,0,1,
scooby_state_55fd7d4edf15|54|0 0,0,0,0,0,0,0,0,0,0,1,0,0,0,0,1,
scooby_state_55fd7d4eded6|50|27 1,0,0,0,0,0,0,0,0,0,0,0,0,0,0,1,
scooby_state_55fd7d4ede77|58|28 0,0,0,0,0,0,0,0,0,0,0,0,0,0,1,1,
scooby_state_55fd7d4edec6|34|14 0,1,0,0,0,0,0,0,0,0,0,0,0,0,0,1,
scooby_state_55fd7d4ede77|27|19 0,0,0,0,0,0,0,0,0,0,0,1,0,0,0,1,
scooby_state_55fd7d4ede77|16|11 0,0,0,0,0,0,0,0,0,0,1,0,0,0,0,1,
scooby_state_55fd7d4eded6|53|46 1,0,0,0,0,0,0,0,0,0,0,0,0,0,0,1,
scooby_state_55fd7d4eded6|52|19 1,0,0,0,0,0,0,0,0,0,0,0,0,0,0,1,
scooby_state_152d183d2d00|52|0 1,0,0,0,0,0,0,0,0,0,0,0,0,0,0,1,
scooby_state_55fd7d4edebf|32|3 1,0,0,0,0,0,0,0,0,0,0,0,0,0,0,1,
scooby_state_55fd7d4eded6|35|12 1,0,0,0,0,0,0,0,0,0,0,0,0,0,0,1,
scooby_state_55fd7d4eded6|22|13 1,0,0,0,0,0,0,0,0,0,0,0,0,0,0,1,
scooby_state_55fd7d4edec6|48|7 1,0,0,0,0,0,0,0,0,0,0,0,0,0,0,1,
scooby_state_55fd7d4edee2|3|-53 0,0,0,0,0,0,0,0,0,0,0,0,0,0,1,1,
scooby_state_55fd7d4edebf|46|2 1,0,0,0,0,0,0,0,0,0,0,0,0,0,0,1,
scooby_state_55fd7d4ede77|41|31 1,0,0,0,0,0,0,0,0,0,0,0,0,0,0,1,
scooby_state_55fd7d4edeca|11|-37 0,0,0,0,0,0,0,0,0,0,0,0,0,1,0,1,
scooby_state_55fd7d4edeca|37|-2 1,0,0,0,0,0,0,0,0,0,0,0,0,0,0,1,
scooby_state_55fd7d4ede77|62|29 1,0,0,0,0,0,0,0,0,0,0,0,0,0,0,1,
scooby_state_55fd7d4ede77|17|3 0,0,0,0,0,0,0,0,0,1,0,0,0,0,0,1,
scooby_state_55fd7d4eded6|58|9 1,0,0,0,0,0,0,0,0,0,0,0,0,0,0,1,
scooby_state_55fd7d4ede77|39|7 0,0,1,0,0,0,0,0,0,0,0,0,0,0,0,1,
scooby_state_55fd7d4edd01|60|6 1,0,0,0,0,0,0,0,0,0,0,0,0,0,0,1,
scooby_state_55fd7d4eded6|44|11 1,0,0,0,0,0,0,0,0,0,0,0,0,0,0,1,
scooby_state_55fd7d4edebf|57|4 0,1,0,0,0,0,0,0,0,0,0,0,0,0,0,1,
scooby_state_55fd7d4eded6|16|12 1,0,0,0,0,0,0,0,0,0,0,0,0,0,0,1,
scooby_state_55fd7d4eded6|39|37 1,0,0,0,0,0,0,0,0,0,0,0,0,0,0,1,
scooby_state_152d17a5d63e|27|5 1,0,0,0,0,0,0,0,0,0,0,0,0,0,0,1,
scooby_state_55fd7d4edf15|53|0 0,0,0,0,0,0,1,0,0,0,0,0,0,0,0,1,

scooby_action_0_deg_dist 0,988703,0,0,0,0,0,0,0,0,0,0,0,0,0,0,
scooby_action_-6_deg_dist 0,17145,47,0,14,0,1,0,0,0,0,0,0,0,0,0,
scooby_action_4_deg_dist 0,20385,117,0,53,0,2,0,0,0,0,0,0,0,0,0,
scooby_action_1_deg_dist 0,2663808,313143,0,219705,0,282906,0,0,0,0,0,0,0,0,0,
scooby_action_30_deg_dist 0,13072,41,0,18,0,0,0,0,0,0,0,0,0,0,0,
scooby_action_5_deg_dist 0,23130,93,0,47,0,0,0,0,0,0,0,0,0,0,0,
scooby_action_3_deg_dist 0,21111,116,0,58,0,7,0,0,0,0,0,0,0,0,0,
scooby_action_32_deg_dist 0,12811,46,0,2,0,0,0,0,0,0,0,0,0,0,0,
scooby_action_10_deg_dist 0,17778,93,0,39,0,3,0,0,0,0,0,0,0,0,0,
scooby_action_11_deg_dist 0,17431,84,0,46,0,0,0,0,0,0,0,0,0,0,0,
scooby_action_12_deg_dist 0,16923,95,0,38,0,0,0,0,0,0,0,0,0,0,0,
scooby_action_22_deg_dist 0,14551,52,0,25,0,3,0,0,0,0,0,0,0,0,0,
scooby_action_23_deg_dist 0,14925,51,0,19,0,0,0,0,0,0,0,0,0,0,0,
scooby_action_-1_deg_dist 0,17072,55,0,12,0,0,0,0,0,0,0,0,0,0,0,
scooby_action_-3_deg_dist 0,17076,47,0,6,0,0,0,0,0,0,0,0,0,0,0,

scooby_track_called 4693005
scooby_track_same_address 5978
scooby_track_evict 4686771

scooby_reward_demand_called 4693005
scooby_reward_demand_pt_not_found 4262800
scooby_reward_demand_pt_found 430205
scooby_reward_demand_pt_found_total 430205
scooby_reward_demand_has_reward 41
scooby_reward_train_called 4152393
scooby_reward_assign_reward_called 4686802
scooby_reward_no_pref 988636
scooby_reward_incorrect 3163757
scooby_reward_correct_untimely 309478
scooby_reward_correct_timely 120686
scooby_reward_out_of_bounds 104245
scooby_reward_tracker_hit 0

scooby_reward_none_low_bw 988636
scooby_reward_none_high_bw 0
scooby_reward_incorrect_low_bw 3163757
scooby_reward_incorrect_high_bw 0
scooby_reward_correct_untimely_low_bw 309478
scooby_reward_correct_untimely_high_bw 0
scooby_reward_correct_timely_low_bw 120686
scooby_reward_correct_timely_high_bw 0
scooby_reward_out_of_bounds_low_bw 104245
scooby_reward_out_of_bounds_high_bw 0
scooby_reward_tracker_hit_low_bw 0
scooby_reward_tracker_hit_high_bw 0

scooby_reward_1 0,3004114,306019,114647,51495,0,
scooby_reward_3 0,18041,496,818,1663,0,
scooby_reward_4 0,16802,453,794,2144,0,
scooby_reward_5 0,17835,1742,824,2705,0,
scooby_reward_10 0,12519,218,705,4373,0,
scooby_reward_11 0,11961,173,680,4642,0,
scooby_reward_12 0,11246,192,640,4904,0,
scooby_reward_22 0,6926,66,441,7168,0,
scooby_reward_23 0,7000,60,522,7382,0,
scooby_reward_30 0,4343,22,321,8429,0,
scooby_reward_32 0,3720,21,294,8802,0,
scooby_reward_-1 0,16602,7,0,41,0,
scooby_reward_-3 0,16436,5,0,148,0,
scooby_reward_-6 0,16212,4,0,349,0,
scooby_reward_0 988636,0,0,0,0,0,

scooby_train_called 4686770
scooby_train_compute_reward 4152393

scooby_register_fill_called 4192521
scooby_register_fill_set 3141313
scooby_register_fill_set_total 3141313

scooby_register_prefetch_hit_called 1045882
scooby_register_prefetch_hit_set 355930
scooby_register_prefetch_hit_set_total 355930

scooby_pref_issue_scooby 5769895

learning_engine_featurewise.action.called 4693005
learning_engine_featurewise.action.explore 8589
learning_engine_featurewise.action.exploit 4684416
learning_engine_featurewise.action.fallback 3044786
learning_engine_featurewise.action.dyn_fallback_saved_bw 0
learning_engine_featurewise.action.dyn_fallback_saved_bw_acc 1447851
learning_engine_featurewise.action.index_1_explored 582
learning_engine_featurewise.action.index_1_exploited 3478980
learning_engine_featurewise.action.index_3_explored 587
learning_engine_featurewise.action.index_3_exploited 20705
learning_engine_featurewise.action.index_4_explored 579
learning_engine_featurewise.action.index_4_exploited 19978
learning_engine_featurewise.action.index_5_explored 546
learning_engine_featurewise.action.index_5_exploited 22724
learning_engine_featurewise.action.index_10_explored 610
learning_engine_featurewise.action.index_10_exploited 17303
learning_engine_featurewise.action.index_11_explored 576
learning_engine_featurewise.action.index_11_exploited 16985
learning_engine_featurewise.action.index_12_explored 599
learning_engine_featurewise.action.index_12_exploited 16457
learning_engine_featurewise.action.index_22_explored 569
learning_engine_featurewise.action.index_22_exploited 14062
learning_engine_featurewise.action.index_23_explored 575
learning_engine_featurewise.action.index_23_exploited 14420
learning_engine_featurewise.action.index_30_explored 576
learning_engine_featurewise.action.index_30_exploited 12555
learning_engine_featurewise.action.index_32_explored 526
learning_engine_featurewise.action.index_32_exploited 12333
learning_engine_featurewise.action.index_-1_explored 576
learning_engine_featurewise.action.index_-1_exploited 16563
learning_engine_featurewise.action.index_-3_explored 555
learning_engine_featurewise.action.index_-3_exploited 16574
learning_engine_featurewise.action.index_-6_explored 560
learning_engine_featurewise.action.index_-6_exploited 16647
learning_engine_featurewise.action.index_0_explored 573
learning_engine_featurewise.action.index_0_exploited 988130
learning_engine_featurewise.learn.called 4686770
learning_engine_featurewise.learn.su_skip_PC 0
learning_engine_featurewise.learn.su_skip_PC_Delta 0

learning_engine_featurewise.q_value_histogram.bucket_0 1328023
learning_engine_featurewise.q_value_histogram.bucket_1 40640
learning_engine_featurewise.q_value_histogram.bucket_2 3072354
learning_engine_featurewise.q_value_histogram.bucket_3 18630
learning_engine_featurewise.q_value_histogram.bucket_4 44521
learning_engine_featurewise.q_value_histogram.bucket_5 149448
learning_engine_featurewise.q_value_histogram.bucket_6 30800
learning_engine_featurewise.q_value_histogram.bucket_7 0

learning_engine_featurewise.consensus.total 4684416
learning_engine_featurewise.consensus.feature_align_PC 3484657
learning_engine_featurewise.consensus.feature_align_PC_ratio 0.74
learning_engine_featurewise.consensus.feature_align_PC_Delta 3520488
learning_engine_featurewise.consensus.feature_align_PC_Delta_ratio 0.75
learning_engine_featurewise.consensus.feature_align_all 3479989
learning_engine_featurewise.consensus.feature_align_all_ratio 0.74

learning_engine_featurewise.feature_PC_min_weight 1000000.00000000
learning_engine_featurewise.feature_PC_max_weight 0.00000000
learning_engine_featurewise.feature_PC_Delta_min_weight 1000000.00000000
learning_engine_featurewise.feature_PC_Delta_max_weight 0.00000000
unique_pcs 308
unique_pages 8285
unique_trigger_pcs 66
total_bitmaps_seen 0
unique_bitmaps_seen 0

scooby_bw_epochs 1691666
scooby_bw_level_0 974955
scooby_bw_level_1 614456
scooby_bw_level_2 70699
scooby_bw_level_3 31556

scooby_ipc_epochs 0
scooby_ipc_level_0 0
scooby_ipc_level_1 0
scooby_ipc_level_2 0
scooby_ipc_level_3 0

scooby_cache_acc_epochs 348578
scooby_cache_acc_level_0 226648
scooby_cache_acc_level_1 98128
scooby_cache_acc_level_2 19150
scooby_cache_acc_level_3 3073
scooby_cache_acc_level_4 375
scooby_cache_acc_level_5 449
scooby_cache_acc_level_6 70
scooby_cache_acc_level_7 66
scooby_cache_acc_level_8 98
scooby_cache_acc_level_9 521

Channel_0_RQ_row_buffer_hit 889917
Channel_0_RQ_row_buffer_miss 3477954
Channel_0_WQ_row_buffer_hit 404026
Channel_0_WQ_row_buffer_miss 856579
Channel_0_WQ_full 0
Channel_0_dbus_congested 2537478

avg_congested_cycle 9

DRAM_bw_pochs 1691666
DRAM_bw_level_0 974955
DRAM_bw_level_1 614456
DRAM_bw_level_2 70699
DRAM_bw_level_3 31556
