*************************************************
   ChampSim Multicore Out-of-Order Simulator
   Last compiled: Apr  3 2025 20:54:34
*************************************************
parsing config file: /home/zir/Pythia/config/pythia.ini

trace_0 /home/zir/ChampSim/ML-DPC/ChampSimTraces/gap/pr-10.trace.gz
adding L2C_PREFETCHER: Scooby
Initialize SHIP state
warmup_instructions 10000000
simulation_instructions 50000000
champsim_seed 97
measure_ipc 0
measure_ipc_epoch 1000
measure_dram_bw 1
measure_dram_bw_epoch 256
measure_cache_acc 1
measure_cache_acc_epoch 1024
l1d_perfect 0
l2c_perfect 0
llc_perfect 0
l1d_semi_perfect 0
l2c_semi_perfect 0
llc_semi_perfect 0
semi_perfect_cache_page_buffer_size 64

num_cpus 1
cpu_freq 4000
dram_io_freq 2400
page_size 4096
block_size 64
max_read_per_cycle 8
max_fill_per_cycle 1
dram_channels 1
log2_dram_channels 0
dram_ranks 1
dram_banks 8
dram_rows 65536
dram_columns 128
dram_row_size 8
dram_size 4096
dram_pages 1048576

fetch_width 6
decode_width 6
exec_width 4
lq_width 2
sq_width 2
retire_width 4
scheduler_size 128
branch_mispredict_penalty 20
rob_size 256
lq_size 72
sq_size 56
num_instr_destinations_sparc 4
num_instr_destinations 2
num_instr_sources 4

itlb_set 16
itlb_way 8
itlb_rq_size 16
itlb_wq_size 16
itlb_pq_size 0
itlb_mshr_size 8
itlb_latency 1

dtlb_set 16
dtlb_way 4
dtlb_rq_size 16
dtlb_wq_size 16
dtlb_pq_size 0
dtlb_mshr_size 8
dtlb_latency 1

stlb_set 128
stlb_way 12
stlb_rq_size 32
stlb_wq_size 32
stlb_pq_size 0
stlb_mshr_size 16
stlb_latency 8

l1i_size 32
l1i_set 64
l1i_way 8
l1i_rq_size 64
l1i_wq_size 64
l1i_pq_size 8
l1i_mshr_size 8
l1i_latency 1

l1d_size 32
l1d_set 64
l1d_way 8
l1d_rq_size 64
l1d_wq_size 64
l1d_pq_size 8
l1d_mshr_size 16
l1d_latency 4

l2c_size 256
l2c_set 512
l2c_way 8
l2c_rq_size 32
l2c_wq_size 32
l2c_pq_size 32
l2c_mshr_size 32
l2c_latency 10

llc_size 2048
llc_set 2048
llc_way 16
llc_rq_size 32
llc_wq_size 32
llc_pq_size 32
llc_mshr_size 64
llc_latency 20

dram_channel_width 8
dram_wq_size 64
dram_rq_size 64
tRP 15
tRCD 15
tCAS 12.5
dram_dbus_turn_around_time 30
dram_write_high_wm 56
dram_write_low_wm 48
min_dram_writes_per_switch 16
dram_mtps 2400
dram_dbus_return_time 13

scooby_alpha 0.0065088
scooby_gamma 0.556301
scooby_epsilon 0.00182284
scooby_state_num_bits 10
scooby_max_states 1024
scooby_seed 200
scooby_policy EGreedy
scooby_learning_type SARSA
scooby_actions 1,3,4,5,10,11,12,22,23,30,32,-1,-3,-6,0,
scooby_max_actions 15
scooby_pt_size 256
scooby_st_size 64
scooby_max_pcs 5
scooby_max_offsets 5
scooby_max_deltas 5
scooby_reward_none -4
scooby_reward_incorrect -8
scooby_reward_correct_untimely 12
scooby_reward_correct_timely 20
scooby_brain_zero_init 0
scooby_enable_reward_all 0
scooby_enable_track_multiple 0
scooby_enable_reward_out_of_bounds 1
scooby_reward_out_of_bounds -12
scooby_state_type 1
scooby_state_hash_type 11
scooby_access_debug 0
scooby_print_access_debug 0
scooby_print_access_debug_pc deadbeef
scooby_print_access_debug_pc_count 0
scooby_print_trace 0
scooby_enable_state_action_stats 1
scooby_enable_reward_tracker_hit 0
scooby_reward_tracker_hit -2
scooby_enable_featurewise_engine 1
scooby_pref_degree 1
scooby_enable_dyn_degree 1
scooby_max_to_avg_q_thresholds 0.5,1,2,
scooby_dyn_degrees 1,2,4,4,
scooby_multi_deg_select_type 2
scooby_last_pref_offset_conf_thresholds 1,3,8,
scooby_dyn_degrees_type2 1,2,4,6,
scooby_action_tracker_size 2
scooby_high_bw_thresh 4
scooby_enable_hbw_reward 1
scooby_reward_hbw_correct_timely 20
scooby_reward_hbw_correct_untimely 12
scooby_reward_hbw_incorrect -14
scooby_reward_hbw_none -2
scooby_reward_hbw_out_of_bounds -12
scooby_reward_hbw_tracker_hit -2
scooby_last_pref_offset_conf_thresholds_hbw 1,3,8,
scooby_dyn_degrees_type2_hbw 1,2,4,6,

le_enable_trace 0
le_trace_interval 0
le_trace_file_name 
le_trace_state 0
le_enable_score_plot 0
le_plot_file_name 
le_plot_actions 
le_enable_action_trace 0
le_action_trace_interval 0
le_action_trace_name 
le_enable_action_plot 0

le_featurewise_active_features PC, PC_Delta
le_featurewise_num_tilings 3,3,
le_featurewise_num_tiles 128,128,
le_featurewise_hash_types 2,2,
le_featurewise_enable_tiling_offset 1,1,
le_featurewise_max_q_thresh 0.5
le_featurewise_enable_action_fallback 1
le_featurewise_feature_weights 1,1,
le_featurewise_enable_dynamic_weight 0
le_featurewise_weight_gradient 0.001
le_featurewise_disable_adjust_weight_all_features_align 1
le_featurewise_selective_update 0
le_featurewise_pooling_type 2
le_featurewise_enable_dyn_action_fallback 1
le_featurewise_bw_acc_check_level 1
le_featurewise_acc_thresh 2
le_featurewise_enable_trace 0
le_featurewise_trace_feature_type 0
le_featurewise_trace_feature 
le_featurewise_trace_interval 0
le_featurewise_trace_record_count 0
le_featurewise_trace_file_name 
le_featurewise_enable_score_plot 0
le_featurewise_plot_actions 
le_featurewise_plot_file_name 


Heartbeat CPU  0 instructions:    1000003 cycles:     405502 heartbeat IPC: 2.46609 cumulative IPC: 2.46609 (Simulation time: 0 hr 0 min 2 sec) 
Heartbeat CPU  0 instructions:    2000000 cycles:     806152 heartbeat IPC: 2.49594 cumulative IPC: 2.48092 (Simulation time: 0 hr 0 min 4 sec) 
Heartbeat CPU  0 instructions:    3000000 cycles:    1206795 heartbeat IPC: 2.49599 cumulative IPC: 2.48592 (Simulation time: 0 hr 0 min 5 sec) 
Heartbeat CPU  0 instructions:    4000000 cycles:    1607444 heartbeat IPC: 2.49595 cumulative IPC: 2.48842 (Simulation time: 0 hr 0 min 7 sec) 
Heartbeat CPU  0 instructions:    5000003 cycles:    2008128 heartbeat IPC: 2.49574 cumulative IPC: 2.48988 (Simulation time: 0 hr 0 min 9 sec) 
Heartbeat CPU  0 instructions:    6000003 cycles:    2408773 heartbeat IPC: 2.49598 cumulative IPC: 2.49090 (Simulation time: 0 hr 0 min 10 sec) 
Heartbeat CPU  0 instructions:    7000000 cycles:    2809422 heartbeat IPC: 2.49594 cumulative IPC: 2.49162 (Simulation time: 0 hr 0 min 12 sec) 
Heartbeat CPU  0 instructions:    8000000 cycles:    3210068 heartbeat IPC: 2.49597 cumulative IPC: 2.49216 (Simulation time: 0 hr 0 min 14 sec) 
Heartbeat CPU  0 instructions:    9000001 cycles:    3610751 heartbeat IPC: 2.49574 cumulative IPC: 2.49256 (Simulation time: 0 hr 0 min 16 sec) 
Heartbeat CPU  0 instructions:   10000003 cycles:    4011397 heartbeat IPC: 2.49597 cumulative IPC: 2.49290 (Simulation time: 0 hr 0 min 17 sec) 

Warmup complete CPU  0 instructions:   10000003 cycles:    4011397 (Simulation time: 0 hr 0 min 17 sec) 

Heartbeat CPU  0 instructions:   11000001 cycles:    4924950 heartbeat IPC: 1.09462 cumulative IPC: 1.09462 (Simulation time: 0 hr 0 min 19 sec) 
Heartbeat CPU  0 instructions:   12000000 cycles:   15427920 heartbeat IPC: 0.09521 cumulative IPC: 0.17518 (Simulation time: 0 hr 0 min 25 sec) 
Heartbeat CPU  0 instructions:   13000000 cycles:   35114269 heartbeat IPC: 0.05080 cumulative IPC: 0.09645 (Simulation time: 0 hr 0 min 35 sec) 
Heartbeat CPU  0 instructions:   14000003 cycles:   54992867 heartbeat IPC: 0.05031 cumulative IPC: 0.07846 (Simulation time: 0 hr 0 min 45 sec) 
Heartbeat CPU  0 instructions:   15000000 cycles:   75123970 heartbeat IPC: 0.04967 cumulative IPC: 0.07031 (Simulation time: 0 hr 0 min 55 sec) 
Heartbeat CPU  0 instructions:   16000000 cycles:   95229164 heartbeat IPC: 0.04974 cumulative IPC: 0.06578 (Simulation time: 0 hr 1 min 5 sec) 
Heartbeat CPU  0 instructions:   17000003 cycles:  113714804 heartbeat IPC: 0.05410 cumulative IPC: 0.06381 (Simulation time: 0 hr 1 min 14 sec) 
Heartbeat CPU  0 instructions:   18000002 cycles:  133500716 heartbeat IPC: 0.05054 cumulative IPC: 0.06178 (Simulation time: 0 hr 1 min 24 sec) 
Heartbeat CPU  0 instructions:   19000001 cycles:  153335695 heartbeat IPC: 0.05042 cumulative IPC: 0.06027 (Simulation time: 0 hr 1 min 34 sec) 
Heartbeat CPU  0 instructions:   20000000 cycles:  173221113 heartbeat IPC: 0.05029 cumulative IPC: 0.05910 (Simulation time: 0 hr 1 min 43 sec) 
Heartbeat CPU  0 instructions:   21000003 cycles:  193201198 heartbeat IPC: 0.05005 cumulative IPC: 0.05814 (Simulation time: 0 hr 1 min 53 sec) 
Heartbeat CPU  0 instructions:   22000000 cycles:  213050106 heartbeat IPC: 0.05038 cumulative IPC: 0.05741 (Simulation time: 0 hr 2 min 3 sec) 
Heartbeat CPU  0 instructions:   23000002 cycles:  232412004 heartbeat IPC: 0.05165 cumulative IPC: 0.05692 (Simulation time: 0 hr 2 min 13 sec) 
Heartbeat CPU  0 instructions:   24000000 cycles:  252118195 heartbeat IPC: 0.05075 cumulative IPC: 0.05643 (Simulation time: 0 hr 2 min 22 sec) 
Heartbeat CPU  0 instructions:   25000001 cycles:  272180807 heartbeat IPC: 0.04984 cumulative IPC: 0.05593 (Simulation time: 0 hr 2 min 32 sec) 
Heartbeat CPU  0 instructions:   26000003 cycles:  292001517 heartbeat IPC: 0.05045 cumulative IPC: 0.05556 (Simulation time: 0 hr 2 min 42 sec) 
Heartbeat CPU  0 instructions:   27000000 cycles:  311467261 heartbeat IPC: 0.05137 cumulative IPC: 0.05529 (Simulation time: 0 hr 2 min 51 sec) 
Heartbeat CPU  0 instructions:   28000000 cycles:  329925706 heartbeat IPC: 0.05418 cumulative IPC: 0.05523 (Simulation time: 0 hr 3 min 1 sec) 
Heartbeat CPU  0 instructions:   29000000 cycles:  349666511 heartbeat IPC: 0.05066 cumulative IPC: 0.05497 (Simulation time: 0 hr 3 min 11 sec) 
Heartbeat CPU  0 instructions:   30000002 cycles:  369143076 heartbeat IPC: 0.05134 cumulative IPC: 0.05477 (Simulation time: 0 hr 3 min 20 sec) 
Heartbeat CPU  0 instructions:   31000000 cycles:  388844331 heartbeat IPC: 0.05076 cumulative IPC: 0.05457 (Simulation time: 0 hr 3 min 30 sec) 
Heartbeat CPU  0 instructions:   32000000 cycles:  407486821 heartbeat IPC: 0.05364 cumulative IPC: 0.05453 (Simulation time: 0 hr 3 min 39 sec) 
Heartbeat CPU  0 instructions:   33000000 cycles:  426914120 heartbeat IPC: 0.05147 cumulative IPC: 0.05439 (Simulation time: 0 hr 3 min 49 sec) 
Heartbeat CPU  0 instructions:   34000002 cycles:  446634804 heartbeat IPC: 0.05071 cumulative IPC: 0.05422 (Simulation time: 0 hr 3 min 59 sec) 
Heartbeat CPU  0 instructions:   35000000 cycles:  466602174 heartbeat IPC: 0.05008 cumulative IPC: 0.05404 (Simulation time: 0 hr 4 min 9 sec) 
Heartbeat CPU  0 instructions:   36000000 cycles:  486152258 heartbeat IPC: 0.05115 cumulative IPC: 0.05393 (Simulation time: 0 hr 4 min 18 sec) 
Heartbeat CPU  0 instructions:   37000000 cycles:  505922439 heartbeat IPC: 0.05058 cumulative IPC: 0.05379 (Simulation time: 0 hr 4 min 28 sec) 
Heartbeat CPU  0 instructions:   38000001 cycles:  525765632 heartbeat IPC: 0.05040 cumulative IPC: 0.05367 (Simulation time: 0 hr 4 min 38 sec) 
Heartbeat CPU  0 instructions:   39000000 cycles:  544949502 heartbeat IPC: 0.05213 cumulative IPC: 0.05361 (Simulation time: 0 hr 4 min 48 sec) 
Heartbeat CPU  0 instructions:   40000000 cycles:  564839851 heartbeat IPC: 0.05028 cumulative IPC: 0.05349 (Simulation time: 0 hr 4 min 57 sec) 
Heartbeat CPU  0 instructions:   41000001 cycles:  583403322 heartbeat IPC: 0.05387 cumulative IPC: 0.05350 (Simulation time: 0 hr 5 min 7 sec) 
Heartbeat CPU  0 instructions:   42000000 cycles:  602925301 heartbeat IPC: 0.05122 cumulative IPC: 0.05343 (Simulation time: 0 hr 5 min 16 sec) 
Heartbeat CPU  0 instructions:   43000001 cycles:  622661692 heartbeat IPC: 0.05067 cumulative IPC: 0.05334 (Simulation time: 0 hr 5 min 26 sec) 
Heartbeat CPU  0 instructions:   44000000 cycles:  642496997 heartbeat IPC: 0.05042 cumulative IPC: 0.05325 (Simulation time: 0 hr 5 min 36 sec) 
Heartbeat CPU  0 instructions:   45000000 cycles:  658848863 heartbeat IPC: 0.06116 cumulative IPC: 0.05345 (Simulation time: 0 hr 5 min 45 sec) 
Heartbeat CPU  0 instructions:   46000000 cycles:  678335177 heartbeat IPC: 0.05132 cumulative IPC: 0.05339 (Simulation time: 0 hr 5 min 55 sec) 
Heartbeat CPU  0 instructions:   47000000 cycles:  697810425 heartbeat IPC: 0.05135 cumulative IPC: 0.05333 (Simulation time: 0 hr 6 min 5 sec) 
Heartbeat CPU  0 instructions:   48000000 cycles:  717185691 heartbeat IPC: 0.05161 cumulative IPC: 0.05328 (Simulation time: 0 hr 6 min 14 sec) 
Heartbeat CPU  0 instructions:   49000001 cycles:  735609649 heartbeat IPC: 0.05428 cumulative IPC: 0.05331 (Simulation time: 0 hr 6 min 24 sec) 
Heartbeat CPU  0 instructions:   50000000 cycles:  755603883 heartbeat IPC: 0.05001 cumulative IPC: 0.05322 (Simulation time: 0 hr 6 min 33 sec) 
Heartbeat CPU  0 instructions:   51000003 cycles:  775425455 heartbeat IPC: 0.05045 cumulative IPC: 0.05315 (Simulation time: 0 hr 6 min 43 sec) 
Heartbeat CPU  0 instructions:   52000000 cycles:  794968314 heartbeat IPC: 0.05117 cumulative IPC: 0.05310 (Simulation time: 0 hr 6 min 53 sec) 
Heartbeat CPU  0 instructions:   53000000 cycles:  814909117 heartbeat IPC: 0.05015 cumulative IPC: 0.05303 (Simulation time: 0 hr 7 min 3 sec) 
Heartbeat CPU  0 instructions:   54000003 cycles:  834728516 heartbeat IPC: 0.05046 cumulative IPC: 0.05297 (Simulation time: 0 hr 7 min 13 sec) 
Heartbeat CPU  0 instructions:   55000003 cycles:  854554008 heartbeat IPC: 0.05044 cumulative IPC: 0.05291 (Simulation time: 0 hr 7 min 23 sec) 
Heartbeat CPU  0 instructions:   56000000 cycles:  874389142 heartbeat IPC: 0.05042 cumulative IPC: 0.05285 (Simulation time: 0 hr 7 min 32 sec) 
Heartbeat CPU  0 instructions:   57000001 cycles:  894170985 heartbeat IPC: 0.05055 cumulative IPC: 0.05280 (Simulation time: 0 hr 7 min 42 sec) 
Heartbeat CPU  0 instructions:   58000002 cycles:  914010857 heartbeat IPC: 0.05040 cumulative IPC: 0.05275 (Simulation time: 0 hr 7 min 52 sec) 
Heartbeat CPU  0 instructions:   59000000 cycles:  933327443 heartbeat IPC: 0.05177 cumulative IPC: 0.05273 (Simulation time: 0 hr 8 min 1 sec) 
Heartbeat CPU  0 instructions:   60000000 cycles:  953171384 heartbeat IPC: 0.05039 cumulative IPC: 0.05268 (Simulation time: 0 hr 8 min 11 sec) 
Finished CPU 0 instructions: 50000001 cycles: 949160053 cumulative IPC: 0.05268 (Simulation time: 0 hr 8 min 11 sec) 

ChampSim completed all CPUs

[ROI Statistics]
Core_0_instructions 50000001
Core_0_cycles 949160053
Core_0_IPC 0.05268

Core_0_branch_prediction_accuracy 96.89645
Core_0_branch_MPKI 5.83534
Core_0_average_ROB_occupancy_at_mispredict 134.12829

Core_0_L1D_total_access 16311337
Core_0_L1D_total_hit 7318183
Core_0_L1D_total_miss 8993154
Core_0_L1D_loads 15728428
Core_0_L1D_load_hit 6744007
Core_0_L1D_load_miss 8984421
Core_0_L1D_RFOs 582909
Core_0_L1D_RFO_hit 574176
Core_0_L1D_RFO_miss 8733
Core_0_L1D_prefetches 0
Core_0_L1D_prefetch_hit 0
Core_0_L1D_prefetch_miss 0
Core_0_L1D_writebacks 0
Core_0_L1D_writeback_hit 0
Core_0_L1D_writeback_miss 0
Core_0_L1D_prefetch_requested 0
Core_0_L1D_prefetch_dropped 0
Core_0_L1D_prefetch_issued 0
Core_0_L1D_prefetch_filled 0
Core_0_L1D_prefetch_useful 0
Core_0_L1D_prefetch_useless 0
Core_0_L1D_prefetch_late 0
Core_0_L1D_average_miss_latency 87.37562

Core_0_L1D_rq_access 19508074
Core_0_L1D_rq_forward 0
Core_0_L1D_rq_merged 3227943
Core_0_L1D_rq_to_cache 16280131
Core_0_L1D_rq_full 0

Core_0_L1D_wq_access 705956
Core_0_L1D_wq_forward 0
Core_0_L1D_wq_merged 0
Core_0_L1D_wq_to_cache 705956
Core_0_L1D_wq_full 0

Core_0_L1D_pq_access 0
Core_0_L1D_pq_forward 0
Core_0_L1D_pq_merged 0
Core_0_L1D_pq_to_cache 0
Core_0_L1D_pq_full 0

Core_0_L1D_acc_epochs 929805
Core_0_L1D_acc_level_0 929805
Core_0_L1D_acc_level_1 0
Core_0_L1D_acc_level_2 0
Core_0_L1D_acc_level_3 0
Core_0_L1D_acc_level_4 0
Core_0_L1D_acc_level_5 0
Core_0_L1D_acc_level_6 0
Core_0_L1D_acc_level_7 0
Core_0_L1D_acc_level_8 0
Core_0_L1D_acc_level_9 0

Core_0_L1I_total_access 9499819
Core_0_L1I_total_hit 9499817
Core_0_L1I_total_miss 2
Core_0_L1I_loads 9499819
Core_0_L1I_load_hit 9499817
Core_0_L1I_load_miss 2
Core_0_L1I_RFOs 0
Core_0_L1I_RFO_hit 0
Core_0_L1I_RFO_miss 0
Core_0_L1I_prefetches 0
Core_0_L1I_prefetch_hit 0
Core_0_L1I_prefetch_miss 0
Core_0_L1I_writebacks 0
Core_0_L1I_writeback_hit 0
Core_0_L1I_writeback_miss 0
Core_0_L1I_prefetch_requested 0
Core_0_L1I_prefetch_dropped 0
Core_0_L1I_prefetch_issued 0
Core_0_L1I_prefetch_filled 0
Core_0_L1I_prefetch_useful 0
Core_0_L1I_prefetch_useless 0
Core_0_L1I_prefetch_late 0
Core_0_L1I_average_miss_latency 520.50000

Core_0_L1I_rq_access 50000006
Core_0_L1I_rq_forward 0
Core_0_L1I_rq_merged 40500185
Core_0_L1I_rq_to_cache 9499821
Core_0_L1I_rq_full 0

Core_0_L1I_wq_access 0
Core_0_L1I_wq_forward 0
Core_0_L1I_wq_merged 0
Core_0_L1I_wq_to_cache 0
Core_0_L1I_wq_full 0

Core_0_L1I_pq_access 0
Core_0_L1I_pq_forward 0
Core_0_L1I_pq_merged 0
Core_0_L1I_pq_to_cache 0
Core_0_L1I_pq_full 0

Core_0_L1I_acc_epochs 929805
Core_0_L1I_acc_level_0 929805
Core_0_L1I_acc_level_1 0
Core_0_L1I_acc_level_2 0
Core_0_L1I_acc_level_3 0
Core_0_L1I_acc_level_4 0
Core_0_L1I_acc_level_5 0
Core_0_L1I_acc_level_6 0
Core_0_L1I_acc_level_7 0
Core_0_L1I_acc_level_8 0
Core_0_L1I_acc_level_9 0

Core_0_L2C_total_access 20772634
Core_0_L2C_total_hit 4813136
Core_0_L2C_total_miss 15959498
Core_0_L2C_loads 8984422
Core_0_L2C_load_hit 1727024
Core_0_L2C_load_miss 7257398
Core_0_L2C_RFOs 8733
Core_0_L2C_RFO_hit 0
Core_0_L2C_RFO_miss 8733
Core_0_L2C_prefetches 11746515
Core_0_L2C_prefetch_hit 3054139
Core_0_L2C_prefetch_miss 8692376
Core_0_L2C_writebacks 32964
Core_0_L2C_writeback_hit 31973
Core_0_L2C_writeback_miss 991
Core_0_L2C_prefetch_requested 13075189
Core_0_L2C_prefetch_dropped 0
Core_0_L2C_prefetch_issued 13075189
Core_0_L2C_prefetch_filled 8860491
Core_0_L2C_prefetch_useful 1200763
Core_0_L2C_prefetch_useless 7657705
Core_0_L2C_prefetch_late 110307
Core_0_L2C_average_miss_latency 96.92032

Core_0_L2C_rq_access 8993157
Core_0_L2C_rq_forward 0
Core_0_L2C_rq_merged 0
Core_0_L2C_rq_to_cache 8993155
Core_0_L2C_rq_full 0

Core_0_L2C_wq_access 32964
Core_0_L2C_wq_forward 2
Core_0_L2C_wq_merged 0
Core_0_L2C_wq_to_cache 32964
Core_0_L2C_wq_full 0

Core_0_L2C_pq_access 13075189
Core_0_L2C_pq_forward 0
Core_0_L2C_pq_merged 12283
Core_0_L2C_pq_to_cache 13062906
Core_0_L2C_pq_full 0

Core_0_L2C_acc_epochs 929805
Core_0_L2C_acc_level_0 498462
Core_0_L2C_acc_level_1 355656
Core_0_L2C_acc_level_2 59893
Core_0_L2C_acc_level_3 9311
Core_0_L2C_acc_level_4 883
Core_0_L2C_acc_level_5 287
Core_0_L2C_acc_level_6 37
Core_0_L2C_acc_level_7 24
Core_0_L2C_acc_level_8 97
Core_0_L2C_acc_level_9 5155

Core_0_LLC_total_access 15987669
Core_0_LLC_total_hit 9532602
Core_0_LLC_total_miss 6455067
Core_0_LLC_loads 7147093
Core_0_LLC_load_hit 4567592
Core_0_LLC_load_miss 2579501
Core_0_LLC_RFOs 8733
Core_0_LLC_RFO_hit 0
Core_0_LLC_RFO_miss 8733
Core_0_LLC_prefetches 8802681
Core_0_LLC_prefetch_hit 4950362
Core_0_LLC_prefetch_miss 3852319
Core_0_LLC_writebacks 29162
Core_0_LLC_writeback_hit 14648
Core_0_LLC_writeback_miss 14514
Core_0_LLC_prefetch_requested 0
Core_0_LLC_prefetch_dropped 0
Core_0_LLC_prefetch_issued 0
Core_0_LLC_prefetch_filled 4020436
Core_0_LLC_prefetch_useful 300990
Core_0_LLC_prefetch_useless 3712512
Core_0_LLC_prefetch_late 0
Core_0_LLC_average_miss_latency 166.17628

Core_0_LLC_rq_access 7155826
Core_0_LLC_rq_forward 0
Core_0_LLC_rq_merged 0
Core_0_LLC_rq_to_cache 7155826
Core_0_LLC_rq_full 0

Core_0_LLC_wq_access 29162
Core_0_LLC_wq_forward 0
Core_0_LLC_wq_merged 0
Core_0_LLC_wq_to_cache 29162
Core_0_LLC_wq_full 0

Core_0_LLC_pq_access 8970800
Core_0_LLC_pq_forward 0
Core_0_LLC_pq_merged 0
Core_0_LLC_pq_to_cache 8970800
Core_0_LLC_pq_full 0

Core_0_LLC_acc_epochs 930832
Core_0_LLC_acc_level_0 601019
Core_0_LLC_acc_level_1 176448
Core_0_LLC_acc_level_2 80957
Core_0_LLC_acc_level_3 30080
Core_0_LLC_acc_level_4 7517
Core_0_LLC_acc_level_5 22600
Core_0_LLC_acc_level_6 4974
Core_0_LLC_acc_level_7 2266
Core_0_LLC_acc_level_8 875
Core_0_LLC_acc_level_9 4096

Core_0_major_page_fault 0
Core_0_minor_page_fault 12637

scooby_st_lookup 9155109
scooby_st_hit 3556557
scooby_st_evict 5598488
scooby_st_insert 5598552
scooby_st_streaming 0

scooby_predict_called 9155109
scooby_predict_out_of_bounds 203306
scooby_predict_action_1 7657179
scooby_predict_issue_action_1 7651005
scooby_predict_hit_action_1 6174
scooby_predict_out_of_bounds_action_1 124365
scooby_predict_action_3 956089
scooby_predict_issue_action_3 955043
scooby_predict_hit_action_3 1046
scooby_predict_out_of_bounds_action_3 45620
scooby_predict_action_4 12534
scooby_predict_issue_action_4 12361
scooby_predict_hit_action_4 173
scooby_predict_out_of_bounds_action_4 1354
scooby_predict_action_5 11649
scooby_predict_issue_action_5 11503
scooby_predict_hit_action_5 146
scooby_predict_out_of_bounds_action_5 1636
scooby_predict_action_10 8947
scooby_predict_issue_action_10 8877
scooby_predict_hit_action_10 70
scooby_predict_out_of_bounds_action_10 2773
scooby_predict_action_11 8648
scooby_predict_issue_action_11 8603
scooby_predict_hit_action_11 45
scooby_predict_out_of_bounds_action_11 3054
scooby_predict_action_12 8044
scooby_predict_issue_action_12 7825
scooby_predict_hit_action_12 219
scooby_predict_out_of_bounds_action_12 3193
scooby_predict_action_22 4637
scooby_predict_issue_action_22 4591
scooby_predict_hit_action_22 46
scooby_predict_out_of_bounds_action_22 4754
scooby_predict_action_23 4419
scooby_predict_issue_action_23 4403
scooby_predict_hit_action_23 16
scooby_predict_out_of_bounds_action_23 4892
scooby_predict_action_30 3548
scooby_predict_issue_action_30 3168
scooby_predict_hit_action_30 380
scooby_predict_out_of_bounds_action_30 5509
scooby_predict_action_32 2872
scooby_predict_issue_action_32 2778
scooby_predict_hit_action_32 94
scooby_predict_out_of_bounds_action_32 5721
scooby_predict_action_-1 11112
scooby_predict_issue_action_-1 10750
scooby_predict_hit_action_-1 362
scooby_predict_out_of_bounds_action_-1 44
scooby_predict_action_-3 11106
scooby_predict_issue_action_-3 10709
scooby_predict_hit_action_-3 397
scooby_predict_out_of_bounds_action_-3 121
scooby_predict_action_-6 11021
scooby_predict_issue_action_-6 10554
scooby_predict_hit_action_-6 467
scooby_predict_out_of_bounds_action_-6 270
scooby_predict_action_0 239998
scooby_predict_issue_action_0 0
scooby_predict_hit_action_0 0
scooby_predict_out_of_bounds_action_0 0
scooby_predict_multi_deg_called 1438652
scooby_predict_predicted 13075189
scooby_predict_multi_deg 4373019
scooby_predict_multi_deg_2 1379280
scooby_predict_multi_deg_3 952654
scooby_predict_multi_deg_4 906095
scooby_predict_multi_deg_5 584507
scooby_predict_multi_deg_6 550483
scooby_predict_multi_deg_7 0
scooby_predict_multi_deg_8 0
scooby_predict_multi_deg_9 0
scooby_predict_multi_deg_10 0
scooby_predict_multi_deg_11 0
scooby_predict_multi_deg_12 0
scooby_predict_multi_deg_13 0
scooby_predict_multi_deg_14 0
scooby_predict_multi_deg_15 0
scooby_predict_multi_deg_16 0

scooby_selected_deg_1 7263518
scooby_selected_deg_2 390603
scooby_selected_deg_3 0
scooby_selected_deg_4 321801
scooby_selected_deg_5 0
scooby_selected_deg_6 726248
scooby_selected_deg_7 0
scooby_selected_deg_8 0
scooby_selected_deg_9 0
scooby_selected_deg_10 0
scooby_selected_deg_11 0
scooby_selected_deg_12 0
scooby_selected_deg_13 0
scooby_selected_deg_14 0
scooby_selected_deg_15 0
scooby_selected_deg_16 0

scooby_state_55fa52a2006a|3|0 116186,6795,39,26,28,17,15,26,23,26,23,19,27,26,3600,126876,
scooby_state_55fa52a2006a|0|0 112493,8308,33,27,14,25,21,17,20,30,17,24,23,23,3944,125019,
scooby_state_55fa52a2006a|8|0 108345,5233,36,21,18,19,25,24,16,31,23,23,23,22,3055,116914,
scooby_state_55fa52a2006a|2|0 103312,6950,30,21,17,28,28,20,23,14,19,17,25,17,3414,113935,
scooby_state_55fa52a2006a|1|0 102254,7302,29,18,25,25,20,16,15,32,28,22,17,24,3408,113235,
scooby_state_55fa52a2006a|5|0 101464,5765,31,20,19,24,18,18,22,16,11,22,17,23,3199,110669,
scooby_state_55fa52a2006a|7|0 99584,4809,30,18,16,17,25,24,26,22,21,17,19,29,2758,107415,
scooby_state_55fa52a2006a|10|0 99722,4352,25,16,13,14,17,17,19,28,19,15,20,25,2671,106973,
scooby_state_55fa52a2006a|4|0 97010,5837,35,19,20,18,21,17,17,21,18,16,20,12,3036,106117,
scooby_state_55fa52a2006a|6|0 97232,5222,35,22,22,15,15,16,21,20,20,23,20,15,3018,105716,
scooby_state_55fa52a2006a|24|0 98039,2965,18,24,20,13,20,14,16,21,15,18,18,18,1798,103017,
scooby_state_55fa52a2006a|11|0 94044,3992,31,23,17,18,13,10,17,27,24,15,24,16,2478,100749,
scooby_state_55fa52a2006a|17|0 92334,3491,24,20,10,13,15,12,21,17,16,21,17,21,2108,98140,
scooby_state_55fa52a2006a|22|0 92522,2829,20,22,17,16,13,20,15,19,15,12,16,9,1678,97223,
scooby_state_55fa52a2006a|20|0 91353,3268,28,17,26,25,20,16,10,12,14,21,14,13,1984,96821,
scooby_state_55fa52a2006a|9|0 87954,4228,30,14,19,18,14,15,16,29,10,16,15,17,2565,94960,
scooby_state_55fa52a2006a|12|0 88800,3565,25,20,19,17,22,29,9,15,11,23,9,12,2091,94667,
scooby_state_55fa52a2006a|27|0 88935,2794,26,8,11,20,17,15,12,13,9,15,13,18,1640,93546,
scooby_state_55fa52a2006a|13|0 87259,3427,33,19,22,15,11,18,13,16,15,17,13,22,2259,93159,
scooby_state_55fa52a2006a|30|0 88644,2645,20,19,20,18,13,9,13,12,17,19,12,20,1503,92984,
scooby_state_55fa52a2006a|14|0 86654,3457,20,22,10,18,15,16,15,23,13,25,16,14,2142,92460,
scooby_state_55fa52a2006a|18|0 86492,2857,20,15,14,11,12,14,13,15,16,21,8,20,1764,91292,
scooby_state_55fa52a2006a|23|0 84559,2717,17,20,17,23,15,22,15,14,17,17,19,11,1712,89195,
scooby_state_55fa52a2006a|15|0 83734,3128,22,20,19,27,15,14,8,13,11,14,16,13,1885,88939,
scooby_state_55fa52a2006a|16|0 83578,2967,31,15,16,21,15,12,14,24,14,12,19,10,1853,88601,
scooby_state_55fa52a2006a|28|0 84341,2336,16,16,9,15,18,13,10,16,19,16,22,20,1318,88185,
scooby_state_55fa52a2006a|19|0 82677,2991,16,22,17,11,12,19,15,16,12,13,13,18,1850,87702,
scooby_state_55fa52a2006a|37|0 83907,2077,15,16,13,13,17,18,17,12,12,21,22,17,1168,87345,
scooby_state_55fa52a2006a|25|0 82656,2525,17,16,14,21,14,11,13,21,7,13,15,11,1479,86833,
scooby_state_55fa52a2006a|31|0 82555,2537,18,18,26,17,13,19,24,12,12,25,23,16,1472,86787,
scooby_state_55fa52a2006a|51|0 82848,2160,22,25,14,11,13,16,13,12,10,19,13,9,1034,86219,
scooby_state_55fa52a2006a|26|0 81486,2492,20,11,16,16,12,15,19,17,15,20,23,20,1518,85700,
scooby_state_55fa52a2006a|49|0 80811,2175,13,15,24,16,13,15,21,13,14,12,14,8,1043,84207,
scooby_state_55fa52a2006a|39|0 79264,2093,12,13,13,16,14,19,7,19,17,21,13,12,1178,82711,
scooby_state_55fa52a2006a|48|0 78658,2058,13,11,26,15,16,17,17,17,11,13,17,14,1076,81979,
scooby_state_55fa52a2006a|21|0 77032,2648,21,14,17,11,17,13,13,20,14,16,9,26,1704,81575,
scooby_state_55fa52a2006a|29|0 77629,2213,13,22,18,14,10,13,13,7,21,14,16,10,1304,81317,
scooby_state_55fa52a2006a|42|0 77615,2143,18,16,17,16,14,22,19,9,13,12,15,9,1099,81037,
scooby_state_55fa52a2006a|45|0 75359,2000,11,9,12,14,13,5,18,11,15,10,13,21,1002,78513,
scooby_state_55fa52a2006a|40|0 74274,2028,17,15,14,17,17,11,15,8,11,19,12,22,1154,77634,
scooby_state_55fa52a2006a|34|0 73803,2253,15,15,6,12,17,11,14,12,10,9,14,18,1255,77464,
scooby_state_55fa52a2006a|36|0 73733,2064,16,7,17,12,15,12,10,12,16,16,14,15,1170,77129,
scooby_state_55fa52a2006a|44|0 73943,1928,18,15,11,13,18,10,13,13,11,12,17,18,974,77014,
scooby_state_55fa52a2006a|33|0 72513,2029,9,16,19,8,14,19,13,18,9,18,6,14,1177,75882,
scooby_state_55fa52a2006a|50|0 72961,1818,13,11,18,17,19,9,18,13,14,8,15,9,915,75858,
scooby_state_55fa52a2006a|38|0 70933,1931,13,7,19,21,18,10,13,12,20,19,10,15,1051,74092,
scooby_state_55fa52a2006a|54|0 71140,1867,14,11,13,20,14,14,16,10,16,14,7,12,916,74084,
scooby_state_55fa52a2006a|62|0 71289,1776,12,3,8,9,15,18,17,17,12,10,10,19,813,74028,
scooby_state_55fa52a2006a|43|0 70647,2014,19,16,11,15,13,9,18,17,12,15,17,11,1006,73840,
scooby_state_55fa52a2006a|41|0 70827,1853,16,14,11,15,18,7,13,14,8,20,20,13,960,73809,
scooby_state_55fa52a2006a|32|0 70137,2064,17,15,15,13,12,14,14,10,10,18,14,9,1227,73589,
scooby_state_55fa52a2006a|58|0 70432,1759,11,11,13,13,9,14,5,7,11,19,15,16,864,73199,
scooby_state_55fa52a2006a|56|0 70027,1810,20,9,16,15,13,12,11,6,12,14,15,20,916,72916,
scooby_state_55fa52a2006a|57|0 69297,1700,14,8,14,10,18,13,10,10,12,12,14,9,794,71935,
scooby_state_55fa52a2006a|59|0 69097,1706,10,15,12,20,10,11,8,11,8,12,10,12,823,71765,
scooby_state_55fa52a2006a|60|0 68391,1797,20,18,6,13,14,13,15,9,7,11,10,11,804,71139,
scooby_state_55fa52a2006a|55|0 67949,1638,16,19,13,17,19,9,12,12,15,8,10,11,843,70591,
scooby_state_55fa52a2006a|63|0 67701,1693,12,16,10,12,13,8,10,9,13,10,23,8,799,70337,
scooby_state_55fa52a2006a|46|0 67183,1758,19,15,12,7,17,15,11,10,10,10,19,10,867,69963,
scooby_state_55fa52a2006a|47|0 66573,1800,16,14,9,15,11,9,16,15,13,8,11,14,921,69445,
scooby_state_55fa52a2006a|35|0 66247,1870,14,14,10,18,18,9,13,8,12,8,8,16,1058,69323,
scooby_state_55fa52a2006a|53|0 66038,1556,10,6,9,12,15,9,15,8,16,14,11,12,776,68507,
scooby_state_55fa52a2006a|52|0 63620,1653,14,15,10,10,15,8,13,8,9,11,18,12,837,66253,
scooby_state_55fa52a2006a|61|0 60591,1415,11,14,10,11,8,12,11,11,10,18,11,18,670,62821,
scooby_state_55fa52a20060|1|1 1,8485,0,1,0,1,0,0,1,1,1,0,1,0,0,8492,
scooby_state_55fa52a20060|8|1 2,8477,1,0,3,1,2,2,0,0,1,0,1,0,2,8492,
scooby_state_55fa52a20060|6|1 1,8479,1,0,1,2,1,1,1,0,1,1,2,0,1,8492,
scooby_state_55fa52a20060|15|1 1,8479,0,0,0,1,1,1,0,2,1,1,2,2,1,8492,
scooby_state_55fa52a20060|11|1 0,8477,2,2,1,1,1,1,2,0,4,1,0,0,0,8492,
scooby_state_55fa52a20060|0|0 1,8475,3,0,0,1,1,2,1,1,3,2,0,0,2,8492,
scooby_state_55fa52a20060|12|1 1,8477,0,1,2,1,2,1,1,0,2,1,1,2,0,8492,
scooby_state_55fa52a20060|9|1 0,8476,2,0,1,0,1,1,4,3,0,1,0,3,0,8492,
scooby_state_55fa52a20060|21|1 1,8478,1,0,0,0,0,4,1,2,2,0,1,1,1,8492,
scooby_state_55fa52a20060|10|1 5,8468,2,3,0,2,1,0,3,1,3,0,3,0,1,8492,
scooby_state_55fa52a20060|19|1 0,8472,1,5,0,1,1,1,0,3,2,0,1,4,1,8492,
scooby_state_55fa52a20060|16|1 0,8476,0,0,0,1,1,0,2,2,4,4,0,2,0,8492,
scooby_state_55fa52a20060|13|1 1,8478,1,0,2,1,0,2,2,2,0,1,1,1,0,8492,
scooby_state_55fa52a20060|2|1 2,8475,1,3,0,1,2,3,3,0,1,0,0,1,0,8492,
scooby_state_55fa52a20060|18|1 0,8482,2,0,1,0,1,2,0,1,1,1,0,1,0,8492,
scooby_state_55fa52a20060|14|1 1,8478,1,2,0,0,4,0,0,1,1,2,0,1,1,8492,
scooby_state_55fa52a20060|20|1 0,8474,1,3,1,0,1,0,3,1,1,5,1,0,1,8492,
scooby_state_55fa52a20060|4|1 2,8476,1,1,1,1,3,1,0,2,1,1,1,0,1,8492,
scooby_state_55fa52a20060|7|1 0,8482,1,1,1,1,0,1,1,2,1,0,1,0,0,8492,
scooby_state_55fa52a20060|5|1 0,8480,0,2,0,0,2,0,2,2,2,0,1,0,1,8492,
scooby_state_55fa52a20060|3|1 1,8473,2,1,1,0,3,2,0,1,1,2,4,0,1,8492,
scooby_state_55fa52a20060|17|1 0,8478,0,0,3,2,1,1,1,2,1,1,0,0,2,8492,
scooby_state_55fa52a20060|31|1 1,8477,3,0,1,2,0,0,1,1,2,1,0,1,1,8491,
scooby_state_55fa52a20060|48|1 1,8479,0,1,0,0,2,0,0,2,0,2,3,1,0,8491,
scooby_state_55fa52a20060|30|1 1,8478,1,1,2,0,0,3,0,2,0,2,0,0,1,8491,
scooby_state_55fa52a20060|49|1 0,8473,0,4,2,1,0,2,1,0,0,1,2,2,3,8491,
scooby_state_55fa52a20060|58|1 0,8479,0,1,1,1,1,1,2,1,0,1,1,1,1,8491,
scooby_state_55fa52a20060|52|1 1,8473,3,1,3,2,1,3,1,0,0,0,0,2,1,8491,
scooby_state_55fa52a20060|61|1 3,8472,1,0,2,2,1,1,3,0,1,2,1,0,2,8491,
scooby_state_55fa52a20060|53|1 1,8479,1,1,0,1,0,1,2,2,1,0,1,1,0,8491,
scooby_state_55fa52a20060|57|1 1,8481,0,3,1,1,0,1,1,1,0,0,0,0,1,8491,
scooby_state_55fa52a20060|54|1 1,8474,0,1,0,3,1,2,0,3,0,1,2,2,1,8491,
scooby_state_55fa52a20060|50|1 0,8481,0,0,0,1,2,3,1,1,0,0,2,0,0,8491,
scooby_state_55fa52a20060|59|1 1,8475,1,2,4,1,1,0,2,1,1,2,0,0,0,8491,
scooby_state_55fa52a20060|34|1 0,8478,0,1,1,0,2,1,1,1,0,1,1,1,3,8491,
scooby_state_55fa52a20060|33|1 2,8469,4,1,2,2,2,2,1,3,0,1,1,0,1,8491,
scooby_state_55fa52a20060|51|1 2,8480,1,0,1,2,1,1,0,1,0,1,0,0,1,8491,
scooby_state_55fa52a20060|36|1 0,8479,1,0,1,0,0,1,2,0,2,2,1,1,1,8491,
scooby_state_55fa52a20060|43|1 1,8478,0,1,2,1,0,2,0,1,2,0,2,0,1,8491,
scooby_state_55fa52a20060|60|1 0,8476,1,0,1,0,1,4,2,0,1,3,1,0,1,8491,
scooby_state_55fa52a20060|55|1 1,8478,1,0,2,3,0,0,1,0,2,0,2,1,0,8491,
scooby_state_55fa52a20060|25|1 0,8481,0,2,2,0,1,0,0,0,0,2,1,1,1,8491,
scooby_state_55fa52a20060|62|1 0,8483,0,0,0,0,0,1,1,1,1,2,0,1,1,8491,
scooby_state_55fa52a20060|42|1 1,8466,3,5,3,0,3,1,3,0,0,3,1,0,2,8491,
scooby_state_55fa52a20060|35|1 2,8476,1,1,1,0,0,2,0,1,1,3,2,0,1,8491,
scooby_state_55fa52a20060|29|1 1,8470,2,1,1,0,2,0,0,2,4,3,0,3,2,8491,
scooby_state_55fa52a20060|37|1 2,8472,2,1,4,2,0,0,0,3,0,2,0,0,3,8491,
scooby_state_55fa52a20060|56|1 0,8474,3,0,1,0,1,2,2,2,0,3,3,0,0,8491,
scooby_state_55fa52a20060|26|1 0,8482,3,0,0,2,1,1,1,1,0,0,0,0,0,8491,
scooby_state_55fa52a20060|38|1 0,8483,0,1,2,0,1,0,1,0,2,0,0,1,0,8491,
scooby_state_55fa52a20060|39|1 3,8475,1,1,1,0,3,3,0,0,0,0,2,2,0,8491,
scooby_state_55fa52a20060|40|1 2,8474,0,2,0,2,4,1,1,1,1,1,0,0,2,8491,
scooby_state_55fa52a20060|24|1 0,8469,1,1,3,1,1,2,2,1,4,2,2,1,1,8491,
scooby_state_55fa52a20060|23|1 2,8476,1,1,1,0,0,1,2,1,1,1,1,0,3,8491,
scooby_state_55fa52a20060|22|1 1,8481,1,1,1,0,1,1,0,1,0,0,2,1,0,8491,
scooby_state_55fa52a20060|47|1 4,8471,1,0,1,3,1,0,2,1,0,3,0,2,2,8491,
scooby_state_55fa52a20060|46|1 0,8477,0,4,2,0,0,2,1,3,1,0,1,0,0,8491,
scooby_state_55fa52a20060|32|1 0,8481,0,0,0,1,1,0,2,1,2,0,2,0,1,8491,
scooby_state_55fa52a20060|27|1 2,8475,0,0,2,0,2,0,2,0,2,0,1,4,1,8491,
scooby_state_55fa52a20060|44|1 0,8476,0,3,1,3,0,2,1,1,1,1,1,0,1,8491,
scooby_state_55fa52a20060|28|1 0,8477,2,2,1,0,1,0,2,1,0,3,0,1,1,8491,
scooby_state_55fa52a20060|45|1 2,8483,0,0,0,0,0,0,3,1,1,0,0,0,1,8491,
scooby_state_55fa52a20060|63|1 1,8470,4,0,1,3,0,2,2,0,2,1,1,3,1,8491,
scooby_state_55fa52a20060|41|1 0,8482,1,0,0,0,0,0,1,1,0,0,0,3,3,8491,
scooby_state_55fa52a2006a|62|2 3979,675,5,9,10,9,11,7,1,8,6,21,11,7,318,5077,
scooby_state_55fa52a2006a|24|1 4037,648,5,7,11,5,6,6,2,1,6,7,5,6,271,5023,
scooby_state_55fa52a2006a|54|1 3710,712,11,11,7,8,9,3,3,5,4,8,2,6,268,4767,
scooby_state_55fa52a2006a|46|1 3666,733,8,11,9,13,3,3,3,4,2,2,5,7,264,4733,
scooby_state_55fa52a2006a|40|1 3744,614,9,8,11,15,6,5,5,3,3,5,2,2,274,4706,
scooby_state_55fa52a2006a|50|2 3692,659,9,12,9,3,7,3,6,6,4,7,4,10,269,4700,
scooby_state_55fa52a2006a|25|1 3678,592,12,3,3,6,3,5,6,5,1,9,3,4,243,4573,
scooby_state_55fa52a2006a|51|1 3538,664,10,9,11,10,7,7,5,5,8,8,6,3,282,4573,
scooby_state_55fa52a2006a|52|1 3556,617,6,9,4,11,5,9,7,6,3,6,9,5,290,4543,
scooby_state_55fa52a2006a|39|1 3586,608,11,3,7,13,6,4,10,3,5,4,4,3,265,4532,
scooby_state_55fa52a2006a|42|1 3567,594,13,5,10,4,5,6,4,5,7,7,8,7,269,4511,
scooby_state_55fa52a2006a|57|1 3497,659,10,12,6,14,6,5,12,3,10,3,7,6,259,4509,
scooby_state_55fa52a2006a|31|1 3585,574,7,11,13,6,5,7,3,8,2,6,8,5,257,4497,
scooby_state_55fa52a2006a|56|2 3352,745,11,13,9,9,6,6,6,9,4,7,9,4,271,4461,
scooby_state_55fa52a2006a|56|1 3488,610,13,3,6,7,7,3,4,5,7,5,7,7,276,4448,
scooby_state_55fa52a2006a|49|1 3402,663,10,7,11,10,10,1,3,6,6,6,6,13,260,4414,
scooby_state_55fa52a2006a|11|1 3356,681,9,10,5,9,5,5,6,2,4,5,6,4,275,4382,
scooby_state_55fa52a2006a|63|1 3419,634,9,13,7,8,5,6,5,6,3,5,8,5,246,4379,
scooby_state_55fa52a2006a|48|1 3399,646,7,4,13,11,4,2,4,2,9,4,6,5,259,4375,
scooby_state_55fa52a2006a|59|1 3398,606,11,12,8,7,6,7,7,8,5,1,15,3,272,4366,
scooby_state_55fa52a2006a|45|1 3380,632,14,10,6,14,5,9,3,4,5,15,3,8,242,4350,
scooby_state_55fa52a2006a|5|1 3314,667,13,9,13,4,6,2,2,4,3,4,6,5,284,4336,
scooby_state_55fa52a2006a|27|1 3417,615,8,7,10,6,4,3,4,5,2,5,3,5,239,4333,
scooby_state_55fa52a2006a|26|1 3459,569,13,8,6,7,4,2,2,1,5,3,7,4,236,4326,
scooby_state_55fa52a2006a|21|1 3369,613,8,10,12,12,4,4,7,8,2,3,2,4,265,4323,
scooby_state_55fa52a2006a|30|1 3347,629,9,9,5,9,3,4,4,6,8,2,4,6,255,4300,
scooby_state_55fa52a2006a|22|1 3392,602,5,5,9,10,5,5,5,8,5,7,8,6,228,4300,
scooby_state_55fa52a2006a|61|1 3256,691,6,13,10,11,1,10,7,5,7,2,5,2,274,4300,
scooby_state_55fa52a2006a|22|2 3416,584,10,11,7,6,3,3,6,5,4,8,4,4,213,4284,
scooby_state_55fa52a2006a|8|1 3344,630,8,6,6,5,7,5,4,2,5,3,1,9,230,4265,
scooby_state_55fa52a2006a|34|1 3346,600,8,5,5,11,8,7,3,6,6,6,4,2,231,4248,
scooby_state_55fa52a2006a|45|2 3312,654,8,11,7,6,4,3,8,2,1,4,11,3,213,4247,
scooby_state_55fa52a2006a|50|1 3237,663,9,6,7,7,4,5,5,4,1,7,4,10,272,4241,
scooby_state_55fa52a2006a|4|1 3290,634,14,6,8,7,5,6,4,4,6,3,7,4,239,4237,
scooby_state_55fa52a2006a|10|1 3269,620,11,9,5,8,7,10,3,3,6,4,1,6,257,4219,
scooby_state_55fa52a2006a|3|1 3307,610,8,8,6,4,4,4,5,3,2,4,10,3,240,4218,
scooby_state_55fa52a2006a|58|1 3195,690,12,11,16,4,9,4,3,2,5,3,4,5,241,4204,
scooby_state_55fa52a2006a|15|1 3267,581,14,8,12,15,4,10,2,2,5,2,7,6,267,4202,
scooby_state_55fa52a2006a|51|2 3219,650,10,13,4,3,10,5,3,5,4,9,4,6,245,4190,
scooby_state_55fa52a2006a|17|1 3271,589,3,8,5,6,8,5,7,2,3,4,4,9,265,4189,
scooby_state_55fa52a2006a|37|1 3426,529,8,7,6,7,2,2,4,3,2,4,3,5,179,4187,
scooby_state_55fa52a2006a|23|1 3261,607,17,11,8,6,4,4,2,4,7,3,5,9,233,4181,
scooby_state_55fa52a2006a|17|2 3195,668,6,4,5,4,5,4,12,7,4,9,4,7,239,4173,
scooby_state_55fa52a2006a|27|2 3304,559,8,10,5,8,3,3,6,2,6,10,5,3,228,4160,
scooby_state_55fa52a2006a|29|1 3322,550,6,6,8,14,7,3,2,6,0,7,3,4,222,4160,
scooby_state_55fa52a2006a|20|1 3269,563,2,5,9,6,7,5,7,3,1,9,9,7,249,4151,
scooby_state_55fa52a2006a|41|1 3330,544,15,2,6,4,3,3,2,2,3,3,4,2,227,4150,
scooby_state_55fa52a2006a|44|1 3305,552,9,6,7,9,6,4,6,1,7,4,2,3,223,4144,
scooby_state_55fa52a2006a|12|1 3258,581,10,6,4,9,5,2,5,4,4,3,2,6,231,4130,
scooby_state_55fa52a2006a|43|1 3179,642,5,6,7,8,7,2,2,3,7,1,5,3,238,4115,
scooby_state_55fa52a2006a|7|1 3132,642,8,8,10,10,8,4,4,5,2,8,8,3,248,4100,
scooby_state_55fa52a2006a|62|1 3219,607,5,10,10,10,7,6,11,2,3,2,8,3,194,4097,
scooby_state_55fa52a2006a|38|1 3317,514,11,6,11,7,4,2,1,4,4,8,6,3,197,4095,
scooby_state_55fa52a2006a|18|1 3211,579,7,7,3,7,7,3,7,3,5,3,7,11,229,4089,
scooby_state_55fa52a2006a|55|1 3143,609,11,5,6,8,10,5,3,3,5,7,7,5,252,4079,
scooby_state_55fa52a2006a|39|2 3225,570,10,4,4,7,4,6,4,7,5,4,4,4,214,4072,
scooby_state_55fa52a2006a|53|2 3087,657,3,9,8,4,5,5,5,2,3,10,3,5,239,4045,
scooby_state_55fa52a2006a|14|1 3221,544,8,4,5,12,7,2,7,3,5,7,3,5,210,4043,
scooby_state_55fa52a2006a|53|1 3131,578,5,9,10,7,3,6,3,2,5,8,4,8,261,4040,
scooby_state_55fa52a2006a|60|1 3030,632,14,11,6,13,12,5,7,2,6,7,4,7,281,4037,
scooby_state_55fa52a2006a|47|1 3132,559,16,7,4,8,6,2,6,2,3,5,9,9,225,3993,
scooby_state_55fa52a2006a|28|1 3122,588,16,4,3,7,6,8,5,3,3,4,3,1,219,3992,
scooby_state_55fa52a2006a|19|1 3171,570,4,7,7,7,5,1,1,6,3,5,2,2,199,3990,
scooby_state_55fa52a2006a|5|2 3072,642,10,9,12,1,7,4,5,4,5,6,4,6,198,3985,
scooby_state_55fa52a2006a|28|2 3103,605,9,6,3,8,3,2,3,3,6,5,3,3,217,3979,
scooby_state_55fa52a2006a|9|1 3073,601,9,5,7,5,3,8,2,3,3,3,7,5,227,3961,
scooby_state_55fa52a2006a|31|2 3192,515,4,6,13,5,2,2,2,2,4,11,2,6,177,3943,
scooby_state_55fa52a2006a|1|1 3023,604,7,6,15,11,5,9,5,1,5,3,4,3,231,3932,
scooby_state_55fa52a2006a|24|2 3125,588,9,7,7,4,6,2,6,4,2,3,4,4,159,3930,
scooby_state_55fa52a2006a|32|1 3061,580,5,10,3,7,9,6,4,3,10,5,7,4,197,3911,
scooby_state_55fa52a2006a|26|2 3142,549,8,7,4,5,3,2,6,3,3,6,3,4,165,3910,
scooby_state_55fa52a2006a|52|2 2986,631,4,6,3,7,4,8,6,6,2,9,3,2,196,3873,
scooby_state_55fa52a2006a|36|1 3043,549,11,6,6,10,3,5,7,7,3,4,6,3,210,3873,
scooby_state_55fa52a2006a|60|2 2871,657,9,11,13,7,4,9,4,2,4,7,6,8,260,3872,
scooby_state_55fa52a2006a|33|1 2964,626,5,9,7,7,4,2,6,1,3,4,3,2,228,3871,
scooby_state_55fa52a2006a|2|1 3044,534,8,7,9,4,1,8,8,4,1,6,1,3,220,3858,
scooby_state_55fa52a2006a|42|2 3069,536,6,7,11,2,3,5,8,4,3,8,11,3,169,3845,
scooby_state_55fa52a2006a|13|1 3041,543,9,6,2,9,5,3,4,1,2,5,5,3,201,3839,
scooby_state_55fa52a2006a|6|1 2920,616,8,6,7,9,2,3,4,4,4,5,7,2,237,3834,
scooby_state_55fa52a2006a|49|2 2968,578,5,5,6,4,10,3,8,2,2,8,3,5,220,3827,
scooby_state_55fa52a2006a|14|2 3033,559,6,6,8,3,3,5,4,1,4,4,2,5,161,3804,
scooby_state_55fa52a2006a|29|2 2933,576,8,4,11,7,8,1,3,2,4,6,7,5,205,3780,
scooby_state_55fa52a2006a|59|2 2927,568,10,11,8,3,6,4,3,1,6,8,6,9,208,3778,
scooby_state_55fa52a2006a|42|3 2927,547,8,9,7,5,8,2,6,7,5,5,5,7,223,3771,
scooby_state_55fa52a2006a|3|2 2892,629,4,5,6,5,3,5,4,2,1,4,2,6,189,3757,
scooby_state_55fa52a2006a|58|2 2821,602,8,11,5,6,2,4,4,9,3,5,3,4,237,3724,
scooby_state_55fa52a2006a|61|2 2835,575,8,10,5,4,7,6,6,6,6,8,5,5,227,3713,
scooby_state_55fa52a2006a|12|2 2936,553,8,3,10,2,1,5,2,1,5,6,5,2,171,3710,
scooby_state_55fa52a20093|31|0 2996,47,52,46,45,50,46,51,48,46,49,48,50,50,65,3689,
scooby_state_55fa52a2006a|44|2 2865,555,6,5,7,3,8,6,5,4,6,5,4,6,203,3688,
scooby_state_55fa52a2006a|54|2 2811,595,8,9,5,12,8,2,5,3,2,7,5,2,197,3671,
scooby_state_55fa52a2006a|25|2 2912,512,5,10,5,4,4,4,4,5,6,6,8,5,177,3667,
scooby_state_55fa52a2006a|57|3 2722,582,11,9,6,6,10,6,3,5,4,6,9,5,274,3658,
scooby_state_55fa52a2006a|18|2 2819,568,7,6,6,4,5,3,2,4,7,12,7,6,200,3656,
scooby_state_55fa52a2006a|16|1 2843,510,10,6,3,5,5,6,10,3,2,6,7,5,227,3648,
scooby_state_55fa52a2006a|4|2 2801,573,7,4,5,4,3,2,0,6,3,9,6,3,213,3639,
scooby_state_55fa52a2006a|19|2 2834,546,7,11,5,2,9,3,3,1,2,9,5,4,191,3632,
scooby_state_55fa52a2006a|47|2 2750,607,6,12,5,7,7,6,2,4,2,6,10,4,200,3628,
scooby_state_55fa52a2006a|10|2 2772,573,8,6,5,5,4,4,9,5,3,7,8,5,201,3615,
scooby_state_55fa52a2006a|57|2 2739,579,5,11,7,5,6,2,4,8,6,6,8,6,198,3590,
scooby_state_55fa52a2006a|25|3 2850,472,7,7,3,11,6,2,4,1,4,3,8,5,188,3571,
scooby_state_55fa52a2006a|14|3 2763,507,13,13,12,10,6,8,5,3,3,7,5,7,201,3563,
scooby_state_55fa52a2006a|20|2 2793,529,6,4,2,4,3,5,3,3,5,6,2,0,195,3560,
scooby_state_55fa52a2006a|62|3 2811,482,9,7,3,7,2,7,6,4,4,4,7,10,196,3559,
scooby_state_55fa52a2006a|35|1 2749,531,7,6,6,8,7,2,3,5,2,2,4,5,215,3552,
scooby_state_55fa52a2006a|63|2 2711,577,13,14,6,5,6,5,3,8,5,5,4,1,186,3549,
scooby_state_55fa52a2006a|20|3 2687,551,10,8,12,12,5,4,0,6,5,8,4,1,221,3534,
scooby_state_55fa52a2006a|51|3 2659,561,17,10,6,8,4,3,5,6,3,8,6,7,228,3531,
scooby_state_55fa52a2006a|58|3 2669,553,15,6,9,9,10,7,2,3,6,5,7,7,221,3529,
scooby_state_55fa52a2006a|9|2 2736,568,9,5,4,3,3,5,5,1,4,9,4,5,162,3523,
scooby_state_55fa52a2006a|54|3 2678,524,9,8,10,6,10,3,3,3,3,4,3,6,223,3493,
scooby_state_55fa52a2006a|32|2 2732,518,7,3,4,0,4,6,1,4,2,8,4,3,193,3489,
scooby_state_55fa52a2006a|41|2 2647,586,2,5,9,4,3,5,6,2,4,6,8,4,193,3484,
scooby_state_55fa52a2006a|55|4 2620,558,10,12,6,11,9,1,5,7,3,6,11,8,212,3479,
scooby_state_55fa52a2006a|30|2 2753,503,9,4,4,3,6,3,6,3,5,4,1,6,161,3471,
scooby_state_55fa52a2006a|36|2 2675,549,5,6,6,5,3,1,6,5,2,3,4,3,193,3466,
scooby_state_55fa52a2006a|13|2 2664,569,11,6,7,4,4,4,4,2,3,5,4,3,175,3465,
scooby_state_55fa52a2006a|7|2 2671,548,12,3,5,3,2,3,3,1,5,2,7,3,172,3440,
scooby_state_55fa52a2006a|16|2 2638,537,4,11,5,6,5,3,8,2,5,10,5,4,193,3436,
scooby_state_55fa52a2006a|23|2 2638,565,8,6,3,6,3,3,2,5,3,2,6,8,171,3429,
scooby_state_55fa52a2006a|33|2 2657,557,7,6,8,3,2,2,2,2,5,4,0,2,160,3417,
scooby_state_55fa52a2006a|27|3 2704,447,8,10,9,11,5,4,5,4,9,5,2,0,186,3409,
scooby_state_55fa52a2006a|21|2 2592,553,7,9,6,3,5,6,7,7,4,6,6,4,177,3392,
scooby_state_55fa52a2006a|55|2 2619,512,13,7,8,6,8,2,7,8,2,3,3,3,189,3390,
scooby_state_55fa52a2006a|49|3 2597,517,8,8,5,9,9,5,6,5,6,2,4,8,196,3385,
scooby_state_55fa52a2006a|37|2 2636,500,13,3,4,6,7,4,5,0,3,4,4,4,180,3373,
scooby_state_55fa52a2006a|46|2 2600,528,5,11,6,4,5,7,2,1,8,7,3,3,181,3371,
scooby_state_55fa52a2006a|2|2 2587,537,2,5,7,2,5,3,3,1,3,3,8,4,166,3336,
scooby_state_55fa52a2006a|40|3 2592,495,7,6,5,8,9,5,5,4,2,10,5,2,181,3336,
scooby_state_55fa52a2006a|38|2 2585,527,5,4,8,7,4,1,3,4,5,1,5,4,162,3325,
scooby_state_55fa52a2006a|24|4 2570,503,12,13,7,3,2,5,6,2,3,1,3,3,177,3310,
scooby_state_55fa52a20075|11|0 2452,62,59,61,57,58,55,54,50,54,59,60,59,57,97,3294,
scooby_state_55fa52a2006a|34|3 2516,474,10,4,8,8,10,10,4,5,5,9,7,6,216,3292,
scooby_state_55fa52a2006a|48|2 2484,545,7,6,8,7,4,6,5,7,5,7,5,5,184,3285,
scooby_state_55fa52a2006a|8|2 2536,509,7,4,10,3,9,2,7,4,3,5,6,5,161,3271,
scooby_state_55fa52a2006a|3|3 2532,497,7,4,5,8,3,6,1,4,2,4,7,6,184,3270,
scooby_state_55fa52a2006a|56|3 2469,503,9,3,9,10,4,3,8,4,3,9,4,11,215,3264,
scooby_state_55fa52a2006a|43|2 2553,477,9,4,8,3,6,3,2,0,2,4,6,5,167,3249,
scooby_state_55fa52a2006a|61|3 2485,503,16,7,9,3,5,4,1,4,2,4,3,2,196,3244,
scooby_state_55fa52a2006a|8|5 2503,454,8,2,7,8,12,11,5,5,5,6,6,5,192,3229,
scooby_state_55fa52a2006a|45|3 2513,456,9,7,9,7,4,4,7,6,3,8,5,2,181,3221,
scooby_state_55fa52a2006a|28|3 2510,460,9,3,6,7,6,6,3,4,3,5,3,4,180,3209,
scooby_state_55fa52a2006a|53|3 2468,488,7,7,10,9,4,4,6,6,3,5,1,6,183,3207,
scooby_state_55fa52a2006a|26|3 2509,450,12,8,4,3,11,3,2,5,3,5,1,5,185,3206,
scooby_state_55fa52a2006a|40|2 2549,460,9,1,6,3,6,2,2,2,2,4,6,3,134,3189,
scooby_state_55fa52a2006a|7|3 2438,473,9,11,4,7,5,2,7,9,7,2,3,3,188,3168,
scooby_state_55fa52a2006a|11|2 2426,545,5,8,3,3,3,4,4,0,2,2,4,5,151,3165,
scooby_state_55fa52a2006a|13|3 2420,478,9,6,7,1,5,6,0,3,6,6,6,4,202,3159,
scooby_state_55fa52a2006a|58|4 2314,544,5,12,9,7,9,4,7,4,5,6,6,4,222,3158,
scooby_state_55fa52a2006a|56|5 2511,404,7,7,7,9,7,1,5,4,3,9,3,5,170,3152,
scooby_state_55fa52a2006a|63|3 2408,476,8,5,7,10,5,8,5,4,5,5,5,6,192,3149,
scooby_state_55fa52a2006a|24|3 2454,450,8,4,8,9,8,4,4,3,2,2,6,4,175,3141,
scooby_state_55fa52a2006a|59|3 2338,505,12,13,6,8,4,6,5,3,5,13,10,5,202,3135,
scooby_state_55fa52a2006a|35|3 2414,446,8,6,8,7,10,7,7,4,3,2,5,6,198,3131,
scooby_state_55fa52a2006a|6|3 2393,501,4,8,5,5,4,5,3,4,2,5,9,10,172,3130,
scooby_state_55fa52a2006a|6|2 2446,479,5,3,4,6,3,4,4,2,2,6,2,4,154,3124,
scooby_state_55fa52a2006a|39|3 2390,493,11,8,0,1,5,3,2,4,5,4,5,7,185,3123,
scooby_state_55fa52a2006a|17|3 2406,474,8,7,8,11,1,3,3,4,6,4,6,6,175,3122,
scooby_state_55fa52a2006a|48|3 2343,518,12,10,10,4,2,2,4,6,2,4,3,5,195,3120,
scooby_state_55fa52a2006a|10|3 2367,499,12,8,4,5,5,3,2,7,4,7,2,6,186,3117,
scooby_state_55fa52a2006a|32|3 2456,434,10,4,6,3,11,1,2,5,3,3,4,5,155,3102,
scooby_state_55fa52a2006a|60|3 2324,503,10,3,9,9,5,8,3,7,7,7,6,2,181,3084,
scooby_state_55fa52a2006a|55|3 2309,484,19,7,7,8,10,2,7,3,1,6,5,5,205,3078,
scooby_state_55fa52a2006a|37|3 2350,502,13,6,8,10,5,1,3,1,2,6,6,2,162,3077,
scooby_state_55fa52a2006a|51|4 2337,467,4,8,9,3,5,7,6,3,7,5,6,2,199,3068,
scooby_state_55fa52a2006a|8|3 2371,435,7,7,7,6,7,6,4,6,1,5,3,6,185,3056,
scooby_state_55fa52a2006a|43|3 2353,440,6,8,2,12,6,1,5,3,5,5,6,4,196,3052,
scooby_state_55fa52a2006a|36|3 2400,446,6,7,7,7,3,0,2,1,1,3,4,6,151,3044,
scooby_state_55fa52a2006a|44|3 2306,488,9,7,9,6,7,5,4,3,2,4,5,2,185,3042,
scooby_state_55fa52a2006a|29|3 2367,458,8,7,4,10,4,2,2,5,7,3,6,3,155,3041,
scooby_state_55fa52a2006a|35|2 2354,476,10,7,5,5,3,2,2,1,3,6,2,3,159,3038,
scooby_state_55fa52a2006a|28|4 2433,423,6,6,3,4,2,7,0,5,5,1,9,4,129,3037,
scooby_state_55fa52a2006a|22|3 2331,471,4,4,9,6,9,2,7,4,1,4,3,3,178,3036,
scooby_state_55fa52a2006a|23|3 2295,492,14,9,6,3,6,3,5,7,4,5,4,1,181,3035,
scooby_state_55fa52a2006a|42|5 2375,398,11,7,6,9,6,3,2,5,8,5,7,9,172,3023,
scooby_state_55fa52a2006a|31|4 2340,419,11,10,5,10,9,1,5,4,5,8,8,4,177,3016,
scooby_state_55fa52a2006a|31|3 2362,432,7,5,5,6,9,6,4,2,2,2,5,2,156,3005,
scooby_state_55fa52a2006a|9|4 2294,455,5,11,6,7,7,4,7,1,1,7,5,5,190,3005,
scooby_state_55fa52a2006a|54|4 2192,518,9,9,4,1,3,1,7,6,3,6,8,9,221,2997,
scooby_state_55fa52a2006a|9|3 2254,495,14,4,9,3,3,4,3,3,5,3,3,4,188,2995,
scooby_state_55fa52a2006a|30|3 2344,427,13,5,5,7,4,4,5,6,4,2,3,4,162,2995,
scooby_state_55fa52a2006a|16|3 2294,476,11,6,4,4,3,1,2,4,4,5,5,3,155,2977,
scooby_state_55fa52a2006a|56|4 2276,417,13,11,5,3,4,9,6,4,5,2,6,9,205,2975,
scooby_state_55fa52a2006a|34|2 2310,491,2,7,4,2,8,1,3,1,5,7,0,3,130,2974,
scooby_state_55fa52a2006a|15|2 2301,458,8,8,5,4,3,1,4,4,2,3,6,4,156,2967,
scooby_state_55fa52a2006a|60|4 2247,462,10,7,4,4,8,2,1,5,0,4,9,8,183,2954,
scooby_state_55fa52a2006a|48|4 2236,508,9,4,2,7,5,2,2,0,0,4,1,2,166,2948,
scooby_state_55fa52a2006a|41|3 2265,427,9,7,4,8,6,6,5,3,3,6,4,3,184,2940,
scooby_state_55fa52a2006a|15|3 2239,485,10,2,2,4,4,4,2,0,6,6,1,5,167,2937,
scooby_state_55fa52a2006a|52|3 2210,474,12,9,8,5,5,3,6,3,3,1,4,8,174,2925,
scooby_state_55fa52a2006a|18|3 2255,435,3,5,10,9,7,3,4,4,4,4,4,3,166,2916,
scooby_state_55fa52a2006a|10|4 2221,460,5,3,1,6,3,2,4,0,6,2,4,1,180,2898,
scooby_state_55fa52a2006a|53|4 2231,446,5,7,6,4,3,6,5,5,5,8,6,4,151,2892,
scooby_state_55fa52a2006a|21|3 2184,467,9,6,7,3,3,4,3,1,7,3,3,5,184,2889,
scooby_state_55fa52a2006a|34|4 2207,448,4,5,4,11,4,5,7,4,1,3,5,6,166,2880,
scooby_state_55fa52a2006a|38|3 2258,421,8,5,3,12,4,2,3,4,4,4,3,7,140,2878,
scooby_state_55fa52a2006a|30|4 2208,450,7,5,6,6,8,5,5,1,4,5,3,3,160,2876,
scooby_state_55fa52a2006a|4|3 2233,430,6,3,4,4,1,4,7,7,1,3,4,5,154,2866,
scooby_state_55fa52a2006a|7|4 2213,449,1,7,4,3,2,11,5,5,1,4,3,3,152,2863,
scooby_state_55fa52a2006a|61|4 2187,455,5,7,4,5,0,3,2,7,4,7,16,2,148,2852,
scooby_state_55fa52a2006a|6|4 2196,434,10,6,4,3,3,1,5,3,5,4,7,2,168,2851,
scooby_state_55fa52a2006a|57|4 2197,447,5,3,3,5,8,4,3,3,5,4,7,4,152,2850,
scooby_state_55fa52a2006a|22|4 2226,425,7,4,12,8,6,2,2,5,5,1,3,7,137,2850,
scooby_state_55fa52a2006a|49|4 2126,481,7,3,2,2,1,7,4,5,2,4,7,0,196,2847,
scooby_state_55fa52a2006a|48|6 2167,392,7,10,5,9,8,7,5,6,10,5,7,6,192,2836,
scooby_state_55fa52a2006a|43|4 2139,452,9,6,3,4,5,9,2,3,3,3,7,5,179,2829,
scooby_state_55fa52a2006a|42|4 2168,447,4,6,4,3,8,3,2,9,3,2,8,1,156,2824,
scooby_state_55fa52a2006a|29|5 2261,357,6,8,8,6,6,2,5,4,3,2,3,0,153,2824,
scooby_state_55fa52a2006a|11|3 2142,449,8,8,2,4,6,6,5,4,2,3,6,2,173,2820,
scooby_state_55fa52a2006a|19|3 2181,399,12,8,5,4,6,6,6,8,6,5,4,6,162,2818,
scooby_state_55fa52a2006a|32|4 2148,455,5,6,2,4,2,3,5,3,5,6,5,3,162,2814,
scooby_state_55fa52a2006a|59|4 2134,436,5,5,7,7,6,4,4,3,5,1,11,10,168,2806,
scooby_state_55fa52a2006a|45|4 2166,415,8,9,6,6,4,3,6,2,4,6,7,6,154,2802,
scooby_state_55fa52a2006a|50|3 2159,420,12,7,4,5,6,3,4,5,3,6,2,4,161,2801,
scooby_state_55fa52a2006a|33|3 2158,430,6,8,7,5,5,5,2,5,2,5,5,7,151,2801,
scooby_state_55fa52a2006a|38|4 2129,440,9,7,4,5,5,3,5,3,5,4,8,7,161,2795,
scooby_state_55fa52a2006a|46|3 2143,408,8,8,4,13,6,7,5,2,6,4,5,5,163,2787,
scooby_state_55fa52a2006a|21|4 2142,429,10,6,7,0,5,2,5,4,3,2,4,2,158,2779,
scooby_state_55fa52a2006a|12|4 2116,457,3,6,4,3,2,4,2,5,2,10,9,5,147,2775,
scooby_state_55fa52a2006a|23|4 2143,423,1,4,6,4,5,4,2,3,5,3,3,4,162,2772,
scooby_state_55fa52a2006a|29|4 2172,395,2,8,5,4,4,1,4,3,9,1,2,2,152,2764,
scooby_state_55fa52a2006a|41|4 2165,423,5,6,5,2,6,1,2,1,2,2,4,5,131,2760,
scooby_state_55fa52a2006a|11|5 2085,425,14,8,7,8,6,6,4,8,5,7,7,11,157,2758,
scooby_state_55fa52a2006a|17|4 2069,466,8,6,8,2,7,1,4,7,5,4,0,1,167,2755,
scooby_state_55fa52a2006a|25|5 2189,370,5,7,1,10,1,7,0,6,3,3,4,7,138,2751,
scooby_state_55fa52a2006a|18|4 2159,392,6,7,2,4,2,1,3,3,1,6,4,4,155,2749,
scooby_state_55fa52a2006a|22|5 2135,406,12,9,4,6,4,4,5,5,2,4,6,4,139,2745,
scooby_state_55fa52a2006a|44|5 2130,381,14,7,4,4,5,6,3,5,3,5,8,4,163,2742,
scooby_state_55fa52a2006a|20|5 2111,387,8,9,7,10,6,8,2,2,1,10,6,8,155,2730,
scooby_state_55fa52a2006a|28|5 2183,327,6,8,3,5,9,5,5,2,5,8,2,4,152,2724,
scooby_state_55fa52a2006a|12|3 2072,436,2,5,8,5,8,4,3,2,5,4,4,3,160,2721,
scooby_state_55fa52a2006a|47|3 2057,441,10,5,3,7,9,2,2,1,3,3,6,2,166,2717,
scooby_state_55fa52a2006a|26|4 2110,403,5,5,4,3,4,2,3,1,2,4,5,6,152,2709,
scooby_state_55fa52a2006a|41|5 2104,342,10,6,2,5,9,7,11,4,2,11,10,5,168,2696,
scooby_state_55fa52a2006a|50|4 2010,424,6,8,3,3,6,1,4,5,5,5,5,6,195,2686,
scooby_state_55fa52a2006a|63|4 2064,402,11,4,5,4,4,2,3,5,2,6,8,8,153,2681,
scooby_state_55fa52a2006a|5|3 2084,388,5,8,6,10,6,3,3,4,4,6,2,1,147,2677,
scooby_state_55fa52a2006a|54|6 1987,412,8,17,7,12,5,12,6,2,7,5,10,6,165,2661,
scooby_state_55fa52a2006a|50|5 2060,365,5,11,6,7,9,2,4,4,13,7,4,5,157,2659,
scooby_state_55fa52a2006a|37|4 2076,395,7,2,2,4,5,3,0,0,2,5,3,4,146,2654,
scooby_state_55fa52a2006a|14|4 2022,432,7,6,2,7,3,1,1,2,2,4,5,1,158,2653,
scooby_state_55fa52a2006a|60|5 1959,431,10,14,5,7,5,6,5,1,3,1,3,6,178,2634,
scooby_state_55fa52a2006a|36|5 2043,372,9,8,3,8,8,5,6,3,3,5,7,5,148,2633,
scooby_state_55fa52a2006a|59|5 1970,444,13,9,6,7,10,2,2,4,3,7,7,3,145,2632,
scooby_state_55fa52a2006a|36|4 2025,407,2,7,4,3,2,2,3,1,3,7,3,5,156,2630,
scooby_state_55fa52a2006a|62|4 1970,419,5,9,4,7,11,4,4,7,7,7,9,5,149,2617,
scooby_state_55fa52a2006a|11|4 1987,432,6,4,3,2,6,3,6,1,1,5,5,1,151,2613,
scooby_state_55fa52a2006a|52|4 2014,391,8,3,7,5,8,4,2,2,3,4,6,2,152,2611,
scooby_state_55fa52a2006a|55|5 1976,391,5,5,6,6,4,7,7,4,6,6,3,4,171,2601,
scooby_state_55fa52a2006a|47|4 1964,435,7,4,3,2,2,0,2,3,5,3,4,7,155,2596,
scooby_state_55fa52a2006a|48|5 1971,383,14,10,7,11,3,3,4,4,3,8,5,7,161,2594,
scooby_state_55fa52a2006a|46|4 1956,424,4,6,9,4,8,7,3,5,3,4,6,4,149,2592,
scooby_state_55fa52a2006a|51|7 2093,292,11,10,5,14,9,3,5,7,5,3,5,9,117,2588,
scooby_state_55fa52a2006a|58|5 1968,389,5,9,9,2,6,9,4,5,5,10,4,7,156,2588,
scooby_state_55fa52a2006a|8|4 2006,412,3,1,2,6,5,2,2,3,4,3,3,3,131,2586,
scooby_state_55fa52a2006a|13|4 1939,405,8,6,4,8,2,6,7,3,3,4,6,7,170,2578,
scooby_state_55fa52a2006a|16|4 1958,424,6,1,5,5,4,2,2,2,4,1,6,8,142,2570,
scooby_state_55fa52a2006a|44|4 1971,420,2,7,2,7,4,1,2,0,1,5,9,3,136,2570,
scooby_state_55fa52a2006a|47|5 1973,356,9,7,3,10,2,3,5,6,6,4,6,4,173,2567,
scooby_state_55fa52a2006a|27|5 1935,387,9,4,8,12,13,8,5,4,2,6,5,4,165,2567,
scooby_state_55fa52a2006a|54|5 1835,455,8,5,8,9,8,7,5,3,3,8,6,4,202,2566,
scooby_state_55fa52a2006a|20|4 1963,419,4,6,8,5,1,2,4,0,5,1,6,2,134,2560,
scooby_state_55fa52a2006a|40|4 1951,398,4,7,2,2,3,3,2,1,2,10,8,1,163,2557,
scooby_state_55fa52a2006a|61|5 1960,386,7,8,6,8,7,6,3,5,4,4,3,4,145,2556,
scooby_state_55fa52a2006a|30|7 2033,318,8,12,8,6,7,4,10,3,4,8,2,10,121,2554,
scooby_state_55fa52a2006a|43|5 1999,351,4,5,8,5,7,0,6,6,8,3,2,8,142,2554,
scooby_state_55fa52a2006a|62|6 1985,352,14,9,8,11,5,4,3,2,7,4,6,3,140,2553,
scooby_state_55fa52a2006a|37|5 1981,389,10,10,5,5,6,7,7,2,1,4,5,3,117,2552,
scooby_state_55fa52a2006a|63|5 1895,402,8,9,5,8,7,3,4,7,3,4,8,3,178,2544,
scooby_state_55fa52a2006a|4|4 1943,400,3,3,4,5,4,4,7,2,7,4,5,7,141,2539,
scooby_state_55fa52a2006a|23|5 2000,330,12,6,2,8,6,5,7,7,5,3,4,3,134,2532,
scooby_state_55fa52a2006a|53|5 1935,362,7,6,7,3,8,5,5,4,6,9,7,6,162,2532,
scooby_state_55fa52a2006a|62|5 1955,384,11,4,4,3,5,6,3,0,3,7,5,3,137,2530,
scooby_state_55fa52a2006a|39|5 1851,430,11,5,7,6,10,6,8,5,8,6,6,3,162,2524,
scooby_state_55fa52a2006a|25|4 1950,389,5,5,3,2,1,4,3,9,5,7,4,2,134,2523,
scooby_state_55fa52a2006a|13|5 1946,366,5,3,6,7,8,3,2,3,3,2,5,8,154,2521,
scooby_state_55fa52a2006a|57|6 1955,324,14,8,4,4,8,4,12,7,2,9,4,7,157,2519,
scooby_state_55fa52a2006a|27|4 1905,409,4,11,4,2,2,3,5,5,5,3,5,6,131,2500,
scooby_state_55fa52a2006a|30|5 1926,371,7,7,6,5,8,3,2,8,1,4,4,6,139,2497,
scooby_state_55fa52a2006a|51|6 1964,304,14,6,5,6,7,2,7,3,6,5,6,9,147,2491,
scooby_state_55fa52a2006a|5|5 1851,402,11,6,7,2,6,5,4,4,4,4,7,8,170,2491,
scooby_state_55fa52a2006a|24|6 1995,302,12,9,3,7,3,4,4,6,4,3,2,2,126,2482,
scooby_state_55fa52a2006a|11|6 1933,331,10,9,8,10,5,1,4,2,4,8,6,4,138,2473,
scooby_state_55fa52a2006a|39|4 1898,374,6,9,4,4,3,4,2,4,2,8,6,4,138,2466,
scooby_state_55fa52a2006a|45|5 1907,353,9,5,5,6,6,5,7,7,6,2,4,6,119,2447,
scooby_state_55fa52a2006a|33|4 1853,406,4,3,7,4,4,2,1,1,2,5,7,3,145,2447,
scooby_state_55fa52a2006a|18|5 1889,345,8,8,6,3,8,3,6,6,4,5,6,3,140,2440,
scooby_state_55fa52a2006a|5|4 1818,405,7,12,7,4,3,5,3,4,5,6,9,3,149,2440,
scooby_state_55fa52a2006a|30|8 1986,230,11,12,12,6,6,5,5,3,6,3,6,4,143,2438,
scooby_state_55fa52a2006a|15|4 1858,387,4,7,2,6,3,2,1,1,3,1,10,4,148,2437,
scooby_state_55fa52a2006a|50|6 1906,313,12,7,5,4,4,2,7,6,4,1,9,3,152,2435,
scooby_state_55fa52a2006a|24|5 1918,336,8,8,4,3,7,3,9,6,4,4,8,5,109,2432,
scooby_state_55fa52a2006a|15|5 1857,354,11,4,6,6,6,8,4,2,2,4,2,6,153,2425,
scooby_state_55fa52a2006a|33|5 1869,354,5,6,5,1,6,5,1,5,7,4,1,7,149,2425,
scooby_state_55fa52a2006a|17|5 1868,351,9,5,5,9,3,4,1,3,6,7,5,9,139,2424,
scooby_state_55fa52a2006a|37|6 1913,308,7,16,6,6,4,6,9,4,4,2,6,9,123,2423,
scooby_state_55fa52a2006a|27|10 1993,222,11,5,9,7,7,2,6,3,3,5,6,7,137,2423,
scooby_state_55fa52a2006a|58|6 1856,351,12,10,5,9,2,11,4,2,4,3,9,7,136,2421,
scooby_state_55fa52a2006a|29|7 1978,269,6,10,8,8,9,0,5,5,2,3,8,10,99,2420,
scooby_state_55fa52a2006a|19|4 1841,384,5,4,4,4,1,5,5,3,3,4,5,3,140,2411,
scooby_state_55fa52a2006a|31|7 1878,332,10,5,5,11,8,8,2,6,4,7,7,8,118,2409,
scooby_state_55fa52a2006a|42|6 1911,319,8,10,8,4,6,4,4,2,3,5,3,3,118,2408,
scooby_state_55fa52a2006a|6|6 1866,327,12,9,6,9,7,2,4,5,4,7,9,6,132,2405,
scooby_state_55fa52a2006a|45|6 1808,374,14,14,6,8,3,7,7,3,5,4,3,3,145,2404,
scooby_state_55fa52a2006a|51|5 1836,355,6,4,9,7,11,3,3,4,3,4,5,9,145,2404,
scooby_state_55fa52a2006a|31|6 1900,293,7,12,4,9,7,4,5,4,2,6,10,3,114,2380,
scooby_state_55fa52a2006a|12|5 1816,343,3,14,4,8,7,1,8,7,4,6,5,6,135,2367,
scooby_state_55fa52a2006a|40|5 1841,326,3,5,7,6,4,5,3,6,5,4,1,4,139,2359,
scooby_state_55fa52a2006a|6|5 1779,378,8,7,4,3,6,4,5,2,6,6,4,8,138,2358,
scooby_state_55fa52a2006a|24|7 1871,302,4,11,7,8,6,9,5,2,2,5,6,8,111,2357,
scooby_state_55fa52a2006a|46|5 1787,360,6,4,3,6,8,4,7,5,4,6,5,3,146,2354,
scooby_state_55fa52a2006a|49|7 1868,286,6,9,5,12,3,5,7,5,3,1,5,6,118,2339,
scooby_state_55fa52a2006a|10|5 1741,391,9,6,5,4,2,3,4,3,2,7,9,7,142,2335,
scooby_state_55fa52a2006a|34|6 1828,325,7,14,5,3,5,4,6,7,5,1,7,1,115,2333,
scooby_state_55fa52a2006a|28|6 1850,285,10,8,3,7,7,7,3,1,4,6,4,6,130,2331,
scooby_state_55fa52a2006a|19|5 1800,341,11,8,9,4,7,5,1,4,5,6,1,3,126,2331,
scooby_state_55fa52a2006a|28|8 1851,241,8,13,10,9,7,6,6,3,5,8,9,3,149,2328,
scooby_state_55fa52a2006a|31|5 1840,312,8,4,2,8,7,6,5,5,3,6,4,2,105,2317,
scooby_state_55fa52a2006a|34|5 1758,365,8,7,7,4,2,5,3,5,2,6,2,4,134,2312,
scooby_state_55fa52a2006a|39|9 1883,242,7,10,8,5,4,5,3,1,7,7,8,5,111,2306,
scooby_state_55fa52a2006a|30|6 1833,296,2,5,6,2,7,3,7,6,1,6,11,3,107,2295,
scooby_state_55fa52a2006a|58|7 1797,300,12,7,13,2,6,6,7,3,4,6,3,9,120,2295,
scooby_state_55fa52a2006a|16|6 1801,301,7,8,4,5,3,2,7,7,2,3,4,3,137,2294,
scooby_state_55fa52a2006a|62|7 1856,258,11,9,7,11,7,8,0,2,3,7,6,13,96,2294,
scooby_state_55fa52a2006a|9|5 1684,375,11,9,4,8,8,8,4,7,6,9,3,4,153,2293,
scooby_state_55fa52a2006a|21|5 1752,328,15,9,10,5,4,3,6,4,1,3,3,7,142,2292,
scooby_state_55fa52a2006a|63|7 1780,290,11,9,6,5,7,4,7,2,3,12,7,11,136,2290,
scooby_state_55fa52a2006a|45|8 1813,261,10,12,3,9,6,8,2,4,3,3,8,8,128,2278,
scooby_state_55fa52a2006a|35|4 1729,376,4,1,4,3,7,2,2,2,6,8,2,2,130,2278,
scooby_state_55fa52a2006a|59|8 1780,252,10,14,10,4,8,3,5,12,3,6,4,9,156,2276,
scooby_state_55fa52a2006a|35|5 1746,340,5,5,6,8,5,8,8,5,2,4,5,3,123,2273,
scooby_state_55fa52a2006a|55|7 1746,329,10,9,10,10,3,4,4,6,3,3,7,13,113,2270,
scooby_state_55fa52a2006a|49|5 1727,300,8,10,13,5,10,5,8,9,5,2,9,3,154,2268,
scooby_state_55fa52a2006a|47|6 1767,298,12,9,3,6,6,3,7,6,5,8,2,8,123,2263,
scooby_state_55fa52a2006a|57|5 1767,320,5,5,5,3,3,7,3,1,6,3,0,4,126,2258,
scooby_state_55fa52a2006a|49|6 1649,370,9,10,4,3,7,7,8,6,2,11,4,9,152,2251,
scooby_state_55fa52a2006a|38|5 1727,326,5,3,10,4,5,5,2,2,2,4,4,8,138,2245,
scooby_state_55fa52a2006a|26|5 1719,350,1,3,7,6,8,8,2,0,7,7,3,9,111,2241,
scooby_state_55fa52a2006a|59|6 1758,279,11,10,8,7,6,6,8,6,3,4,2,4,121,2233,
scooby_state_55fa52a2006a|50|8 1740,256,9,11,2,7,13,5,7,1,3,7,10,8,151,2230,
scooby_state_55fa52a2006a|20|6 1708,318,10,11,3,6,5,5,7,4,3,8,5,5,130,2228,
scooby_state_55fa52a2006a|52|5 1662,353,13,9,5,10,7,3,4,7,6,5,8,2,132,2226,
scooby_state_55fa52a2006a|7|5 1684,360,6,6,8,1,3,2,4,3,2,1,8,6,129,2223,
scooby_state_55fa52a2006a|43|6 1703,315,10,8,8,3,4,4,8,6,5,5,7,6,129,2221,
scooby_state_55fa52a2006a|51|9 1797,198,6,13,5,11,7,6,4,5,8,3,8,9,128,2208,
scooby_state_55fa52a2006a|46|6 1716,296,7,8,6,5,6,5,7,3,3,6,7,3,128,2206,
scooby_state_55fa52a2006a|56|6 1675,305,13,11,10,8,4,5,6,5,2,4,13,10,134,2205,
scooby_state_55fa52a2006a|17|6 1729,284,5,11,5,2,7,5,9,2,3,6,3,3,131,2205,
scooby_state_55fa52a2006a|18|7 1760,296,8,11,6,7,1,0,6,1,1,3,2,12,87,2201,
scooby_state_55fa52a2006a|10|6 1724,292,5,5,5,6,6,5,3,8,8,6,5,4,117,2199,
scooby_state_55fa52a2006a|37|7 1747,286,4,7,8,2,9,7,6,5,5,6,4,4,98,2198,
scooby_state_55fa52a2006a|39|6 1674,332,8,4,2,6,4,3,7,0,6,9,4,4,133,2196,
scooby_state_55fa52a2006a|36|9 1796,194,1,6,3,9,6,4,4,4,6,4,9,6,144,2196,
scooby_state_55fa52a2006a|26|9 1742,243,8,7,6,9,8,7,5,3,7,5,13,5,128,2196,
scooby_state_55fa52a2006a|10|7 1732,287,4,10,7,6,8,6,4,6,3,8,6,6,99,2192,
scooby_state_55fa52a2006a|25|6 1677,315,7,10,3,8,4,4,7,2,6,4,7,2,133,2189,
scooby_state_55fa52a2006a|12|6 1709,292,6,2,4,4,5,2,5,7,0,7,6,7,123,2179,
scooby_state_55fa52a2006a|39|7 1697,289,5,7,8,3,3,5,7,6,6,6,5,5,120,2172,
scooby_state_55fa52a2006a|60|7 1685,296,8,5,11,2,14,6,4,6,5,5,8,8,106,2169,
scooby_state_55fa52a2006a|49|8 1680,265,12,8,11,6,5,3,8,5,4,4,6,5,147,2169,
scooby_state_55fa52a2006a|39|8 1672,275,12,10,3,5,9,2,3,5,4,7,8,8,145,2168,
scooby_state_55fa52a2006a|32|5 1642,343,6,6,2,4,6,7,7,3,4,3,3,3,122,2161,
scooby_state_55fa52a2006a|16|5 1616,353,5,4,6,5,5,2,3,4,4,8,2,7,135,2159,
scooby_state_55fa52a2006a|17|9 1702,228,9,10,5,11,4,5,6,10,6,7,10,6,139,2158,
scooby_state_55fa52a2006a|18|6 1719,286,7,8,1,3,5,2,1,5,1,4,6,4,106,2158,
scooby_state_55fa52a2006a|50|7 1705,256,11,5,4,7,8,6,6,3,2,6,1,12,125,2157,
scooby_state_55fa52a2006a|8|6 1687,296,4,12,4,6,1,4,3,4,4,4,7,3,117,2156,
scooby_state_55fa52a2006a|63|6 1639,313,5,11,3,7,6,4,9,6,0,3,4,8,134,2152,
scooby_state_55fa52a2006a|61|6 1648,314,10,7,6,5,3,5,6,4,3,3,3,3,127,2147,
scooby_state_55fa52a2006a|63|8 1622,268,15,12,8,14,8,4,7,8,7,4,4,8,153,2142,
scooby_state_55fa52a2006a|56|7 1622,304,9,6,7,3,4,10,4,9,2,6,11,4,138,2139,
scooby_state_55fa52a2006a|18|10 1812,170,6,6,9,3,2,3,3,3,6,1,6,7,96,2133,
scooby_state_55fa52a2006a|32|6 1648,299,9,11,10,2,3,2,2,4,4,6,2,3,118,2123,
scooby_state_55fa52a2006a|46|7 1626,286,12,8,8,6,4,8,10,5,4,7,6,9,120,2119,
scooby_state_55fa52a2006a|38|6 1668,291,4,9,8,3,1,3,2,5,4,5,2,7,106,2118,
scooby_state_55fa52a2006a|49|10 1702,217,9,10,3,6,12,4,5,7,3,6,7,9,117,2117,
scooby_state_55fa52a2006a|51|8 1635,265,14,5,12,8,7,3,4,2,5,10,6,9,131,2116,
scooby_state_55fa52a2006a|35|7 1719,227,8,9,4,8,3,7,5,6,3,2,2,9,103,2115,
scooby_state_55fa52a2006a|57|7 1660,277,9,8,9,8,1,3,5,1,4,5,3,8,113,2114,
scooby_state_55fa52a2006a|9|6 1607,328,5,10,3,7,8,2,2,3,3,4,5,5,120,2112,
scooby_state_55fa52a2006a|55|6 1609,315,10,6,7,10,4,3,6,5,4,4,4,1,121,2109,
scooby_state_55fa52a2006a|14|5 1563,369,4,7,6,2,5,6,2,2,2,2,2,6,131,2109,
scooby_state_55fa52a2006a|62|8 1662,238,10,6,11,8,9,3,6,8,6,5,7,4,126,2109,
scooby_state_55fa52a2006a|14|6 1642,282,6,5,7,2,3,2,3,2,3,7,8,4,132,2108,
scooby_state_55fa52a2006a|53|6 1642,294,10,6,6,4,2,4,6,5,4,5,6,8,101,2103,
scooby_state_55fa52a2006a|12|7 1578,347,10,12,8,8,7,3,3,5,4,2,4,8,101,2100,
scooby_state_55fa52a2006a|40|6 1633,302,5,7,5,5,4,4,5,2,4,5,8,6,104,2099,
scooby_state_55fa52a2006a|43|7 1618,285,7,11,7,10,9,3,5,8,2,4,5,7,117,2098,
scooby_state_55fa52a2006a|44|8 1640,264,10,5,6,4,7,8,8,4,5,5,4,1,127,2098,
scooby_state_55fa52a2006a|27|6 1579,338,6,10,3,2,5,0,5,2,2,9,4,2,130,2097,
scooby_state_55fa52a2006a|60|6 1576,325,9,7,6,5,5,1,0,2,3,2,5,7,132,2085,
scooby_state_55fa52a2006a|27|7 1654,253,11,8,5,8,2,11,3,2,5,6,6,9,97,2080,
scooby_state_55fa52a2006a|57|8 1620,245,7,9,8,4,5,9,5,6,6,2,7,7,133,2073,
scooby_state_55fa52a2006a|15|6 1578,325,4,11,4,5,4,1,7,6,1,2,7,8,110,2073,
scooby_state_55fa52a2006a|8|8 1621,232,2,6,12,5,5,9,10,4,5,9,11,3,135,2069,
scooby_state_55fa52a2006a|41|7 1563,310,2,4,7,10,5,1,5,7,2,11,8,16,115,2066,
scooby_state_55fa52a2006a|36|6 1597,296,7,7,3,4,5,3,6,4,5,4,6,4,115,2066,
scooby_state_55fa52a2006a|7|6 1584,297,8,6,4,7,6,1,3,8,2,2,6,1,124,2059,
scooby_state_55fa52a2006a|23|7 1611,261,2,9,13,7,4,2,4,4,2,4,7,11,113,2054,
scooby_state_55fa52a2006a|13|6 1594,288,9,9,3,5,4,5,3,3,4,4,4,6,108,2049,
scooby_state_55fa52a2006a|46|8 1683,183,6,6,6,4,5,2,6,6,8,1,6,5,122,2049,
scooby_state_55fa52a2006a|8|7 1522,314,7,7,10,7,6,2,6,2,6,4,6,7,143,2049,
scooby_state_55fa52a20000|57|1 2045,1,1,0,0,0,0,0,0,0,0,0,0,1,0,2048,
scooby_state_55fa52a20000|24|1 2045,0,0,0,1,1,0,0,0,0,0,0,0,0,1,2048,
scooby_state_55fa52a20000|42|1 2047,0,0,0,0,0,0,0,0,0,0,0,0,0,1,2048,
scooby_state_55fa52a20000|19|1 2044,0,0,0,1,0,2,0,0,0,0,0,1,0,0,2048,
scooby_state_55fa52a20000|17|1 2045,1,0,0,0,0,0,0,0,1,0,1,0,0,0,2048,
scooby_state_55fa52a20000|8|1 2046,0,0,0,1,0,0,0,0,0,0,0,0,1,0,2048,
scooby_state_55fa52a20000|60|1 2044,0,1,0,0,0,0,1,0,0,0,1,1,0,0,2048,
scooby_state_55fa52a20000|62|1 2045,0,0,0,0,0,0,0,1,0,0,1,1,0,0,2048,
scooby_state_55fa52a20000|36|1 2047,0,0,0,0,0,0,0,0,0,0,0,0,0,1,2048,
scooby_state_55fa52a20000|37|1 2044,0,0,0,0,1,0,0,1,0,0,0,0,2,0,2048,
scooby_state_55fa52a2006a|26|6 1555,329,9,11,5,3,4,5,2,5,2,5,5,8,100,2048,
scooby_state_55fa52a20000|29|1 2043,1,1,1,0,0,0,1,0,1,0,0,0,0,0,2048,
scooby_state_55fa52a20000|9|1 2044,0,0,0,0,0,0,1,0,2,0,0,0,0,1,2048,
scooby_state_55fa52a20000|48|1 2044,0,0,1,0,0,0,0,0,1,2,0,0,0,0,2048,
scooby_state_55fa52a20000|27|1 2044,0,0,0,0,2,0,1,0,0,0,1,0,0,0,2048,
scooby_state_55fa52a20000|47|1 2042,1,1,0,0,1,1,0,1,0,0,0,0,0,1,2048,
scooby_state_55fa52a20000|5|1 2043,0,1,1,0,0,0,0,0,0,1,0,0,1,1,2048,
scooby_state_55fa52a20000|12|1 2048,0,0,0,0,0,0,0,0,0,0,0,0,0,0,2048,
scooby_state_55fa52a20000|4|1 2044,0,1,0,0,0,0,2,1,0,0,0,0,0,0,2048,
scooby_state_55fa52a20000|15|1 2044,0,0,1,0,0,0,1,0,0,0,2,0,0,0,2048,
scooby_state_55fa52a20000|51|1 2042,0,1,1,1,0,1,1,0,1,0,0,0,0,0,2048,
scooby_state_55fa52a20000|32|1 2039,0,0,2,1,1,1,0,0,0,0,1,1,1,1,2048,
scooby_state_55fa52a20000|10|1 2043,1,0,0,0,0,1,2,0,0,1,0,0,0,0,2048,
scooby_state_55fa52a20000|50|1 2047,0,0,0,1,0,0,0,0,0,0,0,0,0,0,2048,
scooby_state_55fa52a20000|41|1 2044,0,1,0,0,0,0,0,0,2,0,0,0,1,0,2048,
scooby_state_55fa52a20000|20|1 2046,1,0,0,0,0,0,0,0,0,0,0,0,1,0,2048,
scooby_state_55fa52a20000|45|1 2045,0,0,0,0,0,2,0,0,0,0,0,1,0,0,2048,
scooby_state_55fa52a20000|31|1 2046,0,1,0,0,0,0,0,0,0,0,1,0,0,0,2048,
scooby_state_55fa52a20000|34|1 2045,0,0,0,0,0,0,1,0,0,0,0,1,0,1,2048,
scooby_state_55fa52a20000|59|1 2042,2,0,0,0,0,0,1,0,1,1,0,0,1,0,2048,
scooby_state_55fa52a20000|1|1 2045,1,0,0,1,0,0,0,0,0,0,1,0,0,0,2048,
scooby_state_55fa52a20000|18|1 2045,0,0,0,1,0,0,0,1,1,0,0,0,0,0,2048,
scooby_state_55fa52a20000|58|1 2045,1,0,0,0,0,0,0,0,0,0,0,1,0,1,2048,
scooby_state_55fa52a20000|61|1 2046,1,0,0,0,0,0,0,1,0,0,0,0,0,0,2048,
scooby_state_55fa52a20000|30|1 2043,0,0,0,0,2,0,0,0,0,0,1,0,0,2,2048,
scooby_state_55fa52a20000|39|1 2044,0,0,0,1,0,0,0,0,2,0,0,1,0,0,2048,
scooby_state_55fa52a20000|54|1 2043,1,1,0,0,1,0,0,0,0,0,1,0,0,1,2048,
scooby_state_55fa52a20000|33|1 2043,0,0,0,0,0,0,1,0,2,0,0,2,0,0,2048,
scooby_state_55fa52a20000|25|1 2042,2,0,1,0,1,0,1,0,1,0,0,0,0,0,2048,
scooby_state_55fa52a20000|14|1 2046,0,1,0,0,0,0,0,0,0,0,0,0,0,1,2048,
scooby_state_55fa52a20000|35|1 2040,0,2,0,0,1,0,2,1,0,1,1,0,0,0,2048,
scooby_state_55fa52a20000|13|1 2043,1,0,0,0,0,0,1,0,1,1,0,0,1,0,2048,
scooby_state_55fa52a20000|21|1 2047,0,0,0,0,0,0,0,0,0,0,0,0,1,0,2048,
scooby_state_55fa52a20000|53|1 2045,0,0,0,0,0,0,0,0,0,1,1,0,1,0,2048,
scooby_state_55fa52a20000|63|1 2046,0,1,0,0,0,0,0,0,0,0,0,0,0,1,2048,
scooby_state_55fa52a20000|55|1 2045,1,0,0,0,0,0,0,1,0,1,0,0,0,0,2048,
scooby_state_55fa52a20000|26|1 2044,1,0,0,1,0,1,0,1,0,0,0,0,0,0,2048,
scooby_state_55fa52a20000|6|1 2047,0,0,0,0,0,0,0,0,0,0,0,0,1,0,2048,
scooby_state_55fa52a20000|40|1 2042,1,2,0,0,0,1,0,0,0,0,0,0,1,1,2048,
scooby_state_55fa52a20000|38|1 2043,1,0,0,0,1,1,0,0,1,0,0,0,0,1,2048,
scooby_state_55fa52a20000|2|1 2043,0,0,1,1,0,0,1,0,0,1,1,0,0,0,2048,
scooby_state_55fa52a20000|7|1 2047,0,0,0,0,0,1,0,0,0,0,0,0,0,0,2048,
scooby_state_55fa52a20000|46|1 2044,0,0,0,0,0,1,1,1,1,0,0,0,0,0,2048,
scooby_state_55fa52a20000|11|1 2045,0,0,0,1,0,0,0,1,0,0,1,0,0,0,2048,
scooby_state_55fa52a20000|23|1 2045,0,1,0,0,0,0,0,1,1,0,0,0,0,0,2048,
scooby_state_55fa52a20000|49|1 2045,0,0,0,1,0,1,0,0,0,0,0,0,1,0,2048,
scooby_state_55fa52a20000|28|1 2044,0,0,0,1,0,0,2,0,0,0,0,1,0,0,2048,
scooby_state_55fa52a20000|56|1 2044,0,1,0,0,0,0,0,1,1,1,0,0,0,0,2048,
scooby_state_55fa52a20000|16|1 2045,0,0,0,1,1,0,0,0,0,1,0,0,0,0,2048,
scooby_state_55fa52a20000|43|1 2044,1,0,0,0,1,0,0,1,0,0,0,1,0,0,2048,
scooby_state_55fa52a20000|22|1 2045,0,0,0,1,0,1,1,0,0,0,0,0,0,0,2048,
scooby_state_55fa52a20000|52|1 2044,0,0,0,1,0,0,0,1,1,0,0,0,0,1,2048,
scooby_state_55fa52a20000|0|0 2046,0,0,1,0,0,0,0,0,0,0,0,1,0,0,2048,
scooby_state_55fa52a20000|3|1 2044,0,0,0,2,0,0,1,1,0,0,0,0,0,0,2048,
scooby_state_55fa52a20000|44|1 2045,0,0,0,1,0,1,1,0,0,0,0,0,0,0,2048,
scooby_state_55fa52a2006a|19|6 1571,302,7,5,3,7,4,4,4,3,4,9,8,3,112,2046,
scooby_state_55fa52a2006a|38|8 1613,230,9,4,8,9,13,4,7,1,5,8,3,4,115,2033,
scooby_state_55fa52a2006a|17|7 1553,292,8,11,8,7,2,6,4,1,4,5,3,6,121,2031,
scooby_state_55fa52a2006a|14|7 1584,287,4,7,7,11,0,4,1,6,2,5,3,9,88,2018,
scooby_state_55fa52a2006a|44|7 1594,253,8,12,14,4,4,5,4,0,2,4,3,6,104,2017,
scooby_state_55fa52a2006a|13|7 1578,259,5,2,6,4,1,4,2,3,6,2,7,9,129,2017,
scooby_state_55fa52a2006a|19|7 1548,307,7,8,6,9,4,5,5,3,1,2,3,5,96,2009,
scooby_state_55fa52a2006a|51|10 1612,189,10,9,6,8,5,6,7,7,4,12,6,5,123,2009,
scooby_state_55fa52a2006a|22|10 1685,199,11,7,7,4,5,3,2,4,2,2,2,7,67,2007,
scooby_state_55fa52a2006a|52|6 1539,285,5,8,7,8,9,3,2,3,2,4,7,8,116,2006,
scooby_state_55fa52a2006a|35|6 1566,290,9,9,4,3,1,4,2,3,3,5,6,1,96,2002,
scooby_state_55fa52a2006a|11|8 1582,234,12,8,7,4,9,3,7,4,1,6,6,7,110,2000,
scooby_state_55fa52a2006a|22|7 1531,290,11,7,5,9,7,6,5,1,3,9,7,11,96,1998,
scooby_state_55fa52a2006a|54|7 1528,289,5,12,9,6,6,7,2,8,6,4,4,8,101,1995,
scooby_state_55fa52a2006a|59|9 1516,217,10,6,6,8,4,6,2,9,4,9,7,8,181,1993,
scooby_state_55fa52a2006a|52|7 1535,252,10,7,13,16,4,1,6,3,5,6,3,7,120,1988,
scooby_state_55fa52a2006a|32|8 1601,234,5,8,5,8,7,5,4,2,2,5,5,8,85,1984,
scooby_state_55fa52a2006a|47|10 1618,212,11,7,7,1,8,3,3,4,2,7,4,5,91,1983,
scooby_state_55fa52a2006a|38|7 1586,228,8,7,3,5,6,2,6,1,3,9,3,9,105,1981,
scooby_state_55fa52a2006a|33|6 1545,279,6,4,3,7,5,6,2,1,3,4,5,6,102,1978,
scooby_state_55fa52a2006a|15|7 1498,283,7,18,7,8,2,3,7,3,3,3,6,6,122,1976,
scooby_state_55fa52a2006a|44|6 1539,270,10,8,1,4,2,2,5,4,2,2,5,4,116,1974,
scooby_state_55fa52a2006a|25|8 1564,228,10,6,8,5,5,4,6,7,3,4,3,8,111,1972,
scooby_state_55fa52a2006a|22|8 1566,243,6,6,4,5,0,8,3,7,2,4,1,5,111,1971,
scooby_state_55fa52a2006a|22|6 1551,253,8,11,9,4,1,3,2,1,5,4,2,3,107,1964,
scooby_state_55fa52a2006a|20|8 1529,241,10,5,7,5,6,8,5,5,6,2,3,3,126,1961,
scooby_state_55fa52a2006a|30|9 1529,219,7,3,6,8,8,3,4,4,6,6,6,12,137,1958,
scooby_state_55fa52a2006a|54|8 1481,266,3,14,6,3,7,2,5,2,8,6,12,7,133,1955,
scooby_state_55fa52a2006a|32|7 1556,234,4,11,8,9,4,1,4,3,3,6,6,4,99,1952,
scooby_state_55fa52a2006a|58|8 1494,227,15,4,8,6,3,6,7,5,11,12,13,5,135,1951,
scooby_state_55fa52a2006a|16|8 1543,222,7,9,6,5,5,3,9,8,3,4,3,4,116,1947,
scooby_state_55fa52a2006a|20|7 1504,263,9,10,11,6,7,5,6,2,5,7,3,4,97,1939,
scooby_state_55fa52a2006a|35|8 1506,231,10,14,9,4,9,5,9,6,2,6,3,2,122,1938,
scooby_state_55fa52a2006a|30|10 1543,221,4,11,10,6,7,4,3,3,6,3,5,3,106,1935,
scooby_state_55fa52a2006a|26|7 1488,270,9,5,8,8,7,5,6,1,4,5,11,7,99,1933,
scooby_state_55fa52a2006a|53|8 1547,218,15,3,7,4,1,3,4,2,4,4,4,4,112,1932,
scooby_state_55fa52a2006a|23|6 1449,304,15,10,6,3,1,3,7,0,5,3,2,3,115,1926,
scooby_state_55fa52a2006a|48|9 1510,219,4,7,11,9,10,7,3,1,3,7,9,5,119,1924,
scooby_state_55fa52a2006a|55|10 1571,197,4,7,12,4,5,1,8,4,3,6,1,3,94,1920,
scooby_state_55fa52a2006a|29|6 1477,295,8,3,2,5,5,2,2,4,3,3,3,3,104,1919,
scooby_state_55fa52a2006a|37|9 1564,194,4,7,7,8,5,7,3,5,0,7,5,4,98,1918,
scooby_state_55fa52a2006a|57|10 1543,196,9,13,3,10,8,3,5,2,4,6,6,4,105,1917,
scooby_state_55fa52a2006a|61|7 1425,284,7,8,6,6,8,3,8,4,7,5,7,10,126,1914,
scooby_state_55fa52a2006a|48|7 1496,263,12,6,6,4,9,1,6,3,3,8,3,6,87,1913,
scooby_state_55fa52a2006a|27|8 1485,219,11,7,9,4,5,4,8,3,4,4,7,1,138,1909,
scooby_state_55fa52a2006a|28|13 1664,102,7,4,6,8,10,7,6,1,8,8,4,9,62,1906,
scooby_state_55fa52a2006a|21|7 1473,270,8,5,4,5,10,2,2,3,7,3,5,5,103,1905,
scooby_state_55fa52a2006a|28|7 1510,242,8,7,3,3,3,1,5,7,6,4,5,7,92,1903,
scooby_state_55fa52a2006a|60|11 1530,158,11,4,11,10,8,6,5,6,4,13,2,5,130,1903,
scooby_state_55fa52a2006a|36|7 1506,254,3,8,12,6,5,3,4,1,5,3,2,10,81,1903,
scooby_state_55fa52a2006a|33|9 1558,183,9,8,3,3,4,5,3,6,1,3,7,3,104,1900,
scooby_state_55fa52a2006a|36|10 1503,214,9,9,7,6,7,5,3,4,4,6,3,4,116,1900,
scooby_state_55fa52a2006a|31|9 1520,206,8,8,4,8,5,4,4,2,2,8,0,4,113,1896,
scooby_state_55fa52a2006a|47|7 1472,259,3,12,6,4,6,6,7,5,2,3,3,16,91,1895,
scooby_state_55fa52a2006a|60|9 1466,227,6,9,8,9,6,2,2,8,1,7,8,8,125,1892,
scooby_state_55fa52a2006a|52|8 1522,205,8,4,2,3,4,3,8,4,1,4,4,3,111,1886,
scooby_state_55fa52a2006a|54|9 1428,244,7,10,3,9,6,5,5,12,1,5,10,5,134,1884,
scooby_state_55fa52a2006a|25|7 1494,253,6,4,2,4,7,2,2,0,6,4,7,7,82,1880,
scooby_state_55fa52a2006a|34|7 1477,242,9,8,7,5,5,9,7,4,1,6,5,6,89,1880,
scooby_state_55fa52a2006a|48|8 1464,222,11,8,6,7,4,3,2,3,1,4,3,4,136,1878,
scooby_state_55fa52a2006a|47|8 1451,226,11,10,7,5,8,2,4,1,6,7,3,6,130,1877,
scooby_state_55fa52a2006a|31|8 1497,221,3,3,2,3,4,4,2,3,5,5,7,7,109,1875,
scooby_state_55fa52a2006a|56|8 1458,211,1,5,5,9,4,9,4,8,9,7,4,1,138,1873,
scooby_state_55fa52a2006a|45|7 1446,272,9,8,5,7,3,4,2,6,4,6,2,3,96,1873,
scooby_state_55fa52a2006a|46|9 1498,211,6,2,5,7,5,5,3,4,2,4,6,3,110,1871,
scooby_state_55fa52a2006a|12|9 1494,208,4,9,2,2,3,10,3,4,6,3,9,4,109,1870,
scooby_state_55fa52a2006a|21|6 1482,238,7,6,2,4,1,4,4,3,2,6,7,3,100,1869,
scooby_state_55fa52a2006a|55|11 1479,196,7,9,9,8,10,9,6,7,8,5,8,9,98,1868,
scooby_state_55fa52a2006a|48|10 1505,203,6,9,6,2,5,7,3,3,5,7,9,3,92,1865,
scooby_state_55fa52a2006a|22|9 1483,190,7,10,2,9,9,5,6,3,5,4,4,13,114,1864,
scooby_state_55fa52a2006a|51|11 1478,194,7,4,6,12,8,6,4,5,5,6,3,12,113,1863,
scooby_state_55fa52a2006a|59|7 1413,258,5,10,8,9,9,3,1,4,5,2,7,7,117,1858,
scooby_state_55fa52a2006a|42|8 1402,224,8,12,7,10,6,2,3,6,3,5,5,3,160,1856,
scooby_state_55fa52a2006a|16|7 1437,270,7,2,3,4,7,2,2,3,2,5,5,9,96,1854,
scooby_state_55fa52a2006a|11|7 1411,291,7,5,6,7,4,5,1,3,1,5,4,7,97,1854,
scooby_state_55fa52a2006a|24|8 1474,216,6,1,6,6,7,6,4,4,5,9,6,5,94,1849,
scooby_state_55fa52a2006a|41|6 1440,252,8,10,5,6,7,4,3,3,1,4,4,2,99,1848,
scooby_state_55fa52a2006a|58|21 1650,66,6,1,4,10,2,4,6,4,3,3,4,6,70,1839,
scooby_state_55fa52a2006a|20|9 1444,228,9,7,7,10,5,7,3,2,1,3,6,1,104,1837,
scooby_state_55fa52a2006a|18|8 1429,222,9,10,8,6,8,6,4,6,2,3,7,3,113,1836,
scooby_state_55fa52a2006a|53|7 1396,264,11,10,6,7,4,7,3,7,2,7,5,7,98,1834,
scooby_state_55fa52a2006a|40|8 1449,210,6,9,5,6,2,2,7,2,5,7,6,4,107,1827,
scooby_state_55fa52a2006a|50|10 1445,189,8,14,8,9,3,5,7,5,6,3,7,5,112,1826,
scooby_state_55fa52a2006a|61|8 1388,253,9,15,3,8,6,10,4,3,2,5,3,9,107,1825,
scooby_state_55fa52a2006a|49|9 1457,203,10,10,4,10,6,5,5,3,3,4,1,6,96,1823,
scooby_state_55fa52a2006a|23|8 1444,212,4,5,2,5,8,1,7,6,3,5,6,7,97,1812,
scooby_state_55fa52a2006a|19|8 1424,229,4,4,5,5,7,2,0,2,6,8,2,2,110,1810,
scooby_state_55fa52a2006a|15|8 1452,179,7,8,7,6,8,3,5,5,6,8,5,2,107,1808,
scooby_state_55fa52a2006a|63|11 1434,191,7,8,8,5,13,5,5,6,6,7,5,7,98,1805,
scooby_state_55fa52a2006a|33|7 1421,220,10,4,5,10,6,7,4,3,7,5,1,6,96,1805,
scooby_state_55fa52a2006a|40|7 1383,245,8,6,8,8,5,12,4,7,5,2,8,10,92,1803,
scooby_state_55fa52a2006a|53|9 1428,207,4,10,7,3,3,6,5,3,5,4,4,6,107,1802,
scooby_state_55fa52a2006a|7|7 1388,266,8,3,7,10,7,7,2,4,3,7,5,5,80,1802,
scooby_state_55fa52a2006a|42|10 1466,179,4,7,7,5,5,4,7,4,3,5,5,7,91,1799,
scooby_state_55fa52a2006a|55|9 1426,211,3,9,3,7,6,5,7,2,4,4,3,6,100,1796,
scooby_state_55fa52a2006a|12|8 1416,223,5,6,7,4,7,2,5,1,0,6,2,9,101,1794,
scooby_state_55fa52a2006a|34|9 1434,190,7,12,3,9,7,1,2,3,4,5,5,10,101,1793,
scooby_state_55fa52a2006a|34|8 1374,230,8,8,4,9,3,4,5,3,2,1,8,6,125,1790,
scooby_state_55fa52a2006a|58|9 1403,196,7,10,7,6,8,9,5,4,4,10,7,7,105,1788,
scooby_state_55fa52a2006a|60|8 1355,227,11,8,4,3,7,2,5,5,4,7,5,9,133,1785,
scooby_state_55fa52a2006a|27|20 1544,74,8,5,9,6,8,4,7,5,4,6,4,5,93,1782,
scooby_state_55fa52a2006a|62|9 1367,213,7,10,3,7,3,9,4,4,9,6,2,3,120,1767,
scooby_state_55fa52a2006a|45|15 1473,114,9,5,5,8,4,9,6,7,5,5,10,7,94,1761,
scooby_state_55fa52a2006a|26|8 1385,207,7,4,6,3,5,2,6,3,6,8,6,4,109,1761,
scooby_state_55fa52a2006a|61|12 1444,161,10,2,5,4,6,2,3,2,0,3,4,7,107,1760,
scooby_state_55fa52a2006a|58|10 1429,189,10,4,7,4,4,7,4,4,7,1,6,2,79,1757,
scooby_state_55fa52a2006a|22|12 1437,186,2,2,5,6,2,2,1,1,5,2,3,0,101,1755,
scooby_state_55fa52a2006a|37|8 1437,178,2,3,4,4,5,5,2,1,3,5,3,5,95,1752,
scooby_state_55fa52a2006a|60|10 1404,175,4,6,7,4,4,5,9,7,2,5,5,6,108,1751,
scooby_state_55fa52a2006a|17|8 1326,234,6,7,11,6,7,4,5,4,4,6,3,8,119,1750,
scooby_state_55fa52a2006a|62|11 1407,166,10,7,5,9,13,6,3,6,6,3,3,4,97,1745,
scooby_state_55fa52a2006a|63|9 1320,224,12,8,6,8,7,4,7,4,8,6,1,6,124,1745,
scooby_state_55fa52a2006a|29|9 1389,186,8,9,4,5,2,6,2,5,3,4,7,6,100,1736,
scooby_state_55fa52a2006a|21|8 1358,212,8,4,4,8,6,5,3,6,4,1,5,4,107,1735,
scooby_state_55fa52a2006a|13|8 1380,200,8,6,3,4,7,3,2,4,3,5,3,9,97,1734,
scooby_state_55fa52a2006a|43|9 1355,182,7,7,7,2,8,2,3,7,2,4,5,10,133,1734,
scooby_state_55fa52a2006a|57|9 1347,198,5,10,6,4,8,9,5,1,6,4,5,5,119,1732,
scooby_state_55fa52a2006a|22|11 1388,174,5,8,7,5,10,5,1,5,4,7,7,9,86,1721,
scooby_state_55fa52a2006a|24|9 1384,190,1,10,8,4,8,5,3,2,1,6,2,6,90,1720,
scooby_state_55fa52a2006a|51|12 1401,138,11,3,4,4,3,8,6,3,2,2,3,8,122,1718,
scooby_state_55fa52a2006a|14|8 1343,200,7,8,4,5,8,5,6,5,6,6,10,6,96,1715,
scooby_state_55fa52a2006a|30|11 1418,140,12,7,2,6,5,4,7,5,9,5,6,2,85,1713,
scooby_state_55fa52a2006a|42|9 1331,191,8,5,4,8,4,4,3,5,6,6,5,3,128,1711,
scooby_state_55fa52a2006a|27|9 1371,174,5,6,2,8,4,1,7,4,4,9,5,9,101,1710,
scooby_state_55fa52a2006a|54|10 1328,214,8,12,2,7,6,5,2,7,1,5,8,3,101,1709,
scooby_state_55fa52a2006a|43|8 1295,229,15,7,1,7,9,3,3,6,6,6,7,1,114,1709,
scooby_state_55fa52a2006a|49|11 1355,156,12,12,7,7,8,4,7,8,2,2,6,4,116,1706,
scooby_state_55fa52a2006a|29|8 1342,202,2,6,5,5,4,3,3,8,2,3,5,8,106,1704,
scooby_state_55fa52a2006a|52|10 1373,177,8,1,5,4,4,9,4,5,3,8,3,7,92,1703,
scooby_state_55fa52a2006a|53|11 1368,161,6,3,7,8,8,5,2,3,5,6,6,7,107,1702,
scooby_state_55fa52a2006a|62|10 1358,182,8,11,7,4,6,4,2,3,2,8,3,1,101,1700,
scooby_state_55fa52a2006a|39|10 1390,172,4,6,5,4,6,4,3,1,8,2,6,9,79,1699,
scooby_state_55fa52a2006a|63|10 1340,168,10,7,4,6,7,9,0,2,5,6,3,7,124,1698,
scooby_state_55fa52a2006a|62|13 1431,125,4,6,9,6,4,4,7,6,5,7,7,6,68,1695,
scooby_state_55fa52a2006a|19|10 1345,182,7,4,4,6,6,2,5,3,3,1,7,7,110,1692,
scooby_state_55fa52a2006a|59|10 1365,185,2,5,2,5,6,2,3,3,3,7,4,6,91,1689,
scooby_state_55fa52a2006a|9|7 1272,256,7,7,7,8,4,1,3,5,1,3,3,9,103,1689,
scooby_state_55fa52a2006a|20|12 1389,162,4,4,5,2,0,2,5,3,3,5,3,1,99,1687,
scooby_state_55fa52a2006a|40|9 1322,191,9,8,0,6,7,1,1,4,3,4,5,7,115,1683,
scooby_state_55fa52a2006a|42|7 1314,227,9,5,4,5,4,1,1,4,1,3,7,7,89,1681,
scooby_state_55fa52a2006a|10|8 1275,238,13,3,3,6,2,7,10,3,0,5,3,9,104,1681,
scooby_state_55fa52a2006a|37|12 1426,134,1,2,3,1,2,4,3,1,0,0,4,6,93,1680,
scooby_state_55fa52a2006a|45|9 1337,193,6,4,5,6,3,3,3,3,1,0,5,4,103,1676,
scooby_state_55fa52a2006a|14|9 1332,177,8,7,10,3,6,2,4,3,10,4,5,5,99,1675,
scooby_state_55fa52a2006a|26|11 1350,140,9,11,4,4,3,3,4,3,5,4,4,6,118,1668,
scooby_state_55fa52a2006a|32|9 1346,167,7,7,4,6,3,4,1,3,3,3,4,3,104,1665,
scooby_state_55fa52a2006a|27|12 1390,140,2,4,2,3,3,3,4,0,1,2,3,1,107,1665,
scooby_state_55fa52a2006a|14|11 1370,152,11,5,6,7,8,3,7,1,3,5,2,8,74,1662,
scooby_state_55fa52a2006a|10|9 1267,205,4,15,6,10,4,4,6,4,4,5,8,12,106,1660,
scooby_state_55fa52a2006a|44|9 1328,178,9,6,4,3,7,1,1,3,5,5,4,3,102,1659,
scooby_state_55fa52a2006a|50|12 1375,131,8,4,5,6,3,1,3,3,2,4,3,1,109,1658,
scooby_state_55fa52a2006a|50|9 1296,195,4,5,5,3,4,5,3,2,6,3,4,5,115,1655,
scooby_state_55fa52a2006a|56|11 1343,165,4,10,5,7,5,6,4,5,4,5,4,6,82,1655,
scooby_state_55fa52a2006a|17|10 1320,196,10,9,4,4,2,5,4,5,2,6,3,3,80,1653,
scooby_state_55fa52a2006a|20|10 1341,172,5,5,9,6,2,3,6,2,4,7,4,4,80,1650,
scooby_state_55fa52a2006a|21|9 1316,182,2,7,4,9,5,8,6,4,3,3,3,8,87,1647,
scooby_state_55fa52a2006a|59|11 1279,192,4,5,6,5,2,2,5,5,6,7,8,4,116,1646,
scooby_state_55fa52a2006a|9|8 1247,216,7,8,3,6,3,5,8,5,5,6,2,3,117,1641,
scooby_state_55fa52a2006a|55|8 1264,220,7,4,12,4,7,4,3,1,2,7,7,2,94,1638,
scooby_state_55fa52a2006a|39|14 1409,84,10,5,8,5,9,4,8,7,3,3,6,6,69,1636,
scooby_state_55fa52a2006a|61|10 1300,184,5,7,6,5,3,4,5,9,4,5,6,1,91,1635,
scooby_state_55fa52a2006a|28|9 1292,173,5,8,3,9,4,5,5,1,5,5,5,5,109,1634,
scooby_state_55fa52a2006a|44|14 1336,133,13,8,15,8,6,9,3,5,6,3,4,0,84,1633,
scooby_state_55fa52a2006a|23|9 1285,173,3,7,9,6,5,5,4,6,8,3,5,5,109,1633,
[...]
scooby_state_55fa52a2000d|10|0 1,0,0,0,0,0,0,0,0,0,0,0,0,0,0,1,
scooby_state_14b38703b400|16|1 1,0,0,0,0,0,0,0,0,0,0,0,0,0,0,1,
scooby_state_14b387077102|4|1 1,0,0,0,0,0,0,0,0,0,0,0,0,0,0,1,
scooby_state_14b387112240|9|1 1,0,0,0,0,0,0,0,0,0,0,0,0,0,0,1,
scooby_state_14b38709b578|1|0 1,0,0,0,0,0,0,0,0,0,0,0,0,0,0,1,
scooby_state_14b387060284|10|1 1,0,0,0,0,0,0,0,0,0,0,0,0,0,0,1,
scooby_state_14b38706d3c3|15|1 1,0,0,0,0,0,0,0,0,0,0,0,0,0,0,1,
scooby_state_14b387074699|26|-9 1,0,0,0,0,0,0,0,0,0,0,0,0,0,0,1,
scooby_state_14b38703e890|34|-29 1,0,0,0,0,0,0,0,0,0,0,0,0,0,0,1,
scooby_state_14b38706d490|18|5 1,0,0,0,0,0,0,0,0,0,0,0,0,0,0,1,
scooby_state_14b38703d480|18|1 1,0,0,0,0,0,0,0,0,0,0,0,0,0,0,1,
scooby_state_14b38703f1d1|15|14 1,0,0,0,0,0,0,0,0,0,0,0,0,0,0,1,
scooby_state_55fa52a1e510|20|0 1,0,0,0,0,0,0,0,0,0,0,0,0,0,0,1,
scooby_state_14b38703b390|14|0 1,0,0,0,0,0,0,0,0,0,0,0,0,0,0,1,
scooby_state_14b38703fac8|43|6 1,0,0,0,0,0,0,0,0,0,0,0,0,0,0,1,
scooby_state_14b38703ecdd|44|32 1,0,0,0,0,0,0,0,0,0,0,0,0,0,0,1,
scooby_state_14b38706e4a0|18|1 1,0,0,0,0,0,0,0,0,0,0,0,0,0,0,1,
scooby_state_14b38703b501|20|1 1,0,0,0,0,0,0,0,0,0,0,0,0,0,0,1,
scooby_state_14b38703b67e|42|-1 1,0,0,0,0,0,0,0,0,0,0,0,0,0,0,1,
scooby_state_14b3870339d4|39|4 1,0,0,0,0,0,0,0,0,0,0,0,0,0,0,1,
scooby_state_14b38706b180|6|-33 1,0,0,0,0,0,0,0,0,0,0,0,0,0,0,1,
scooby_state_14b38703cf60|61|26 1,0,0,0,0,0,0,0,0,0,0,0,0,0,0,1,
scooby_state_14b38703ca18|40|0 1,0,0,0,0,0,0,0,0,0,0,0,0,0,0,1,
scooby_state_14b38703f043|1|1 1,0,0,0,0,0,0,0,0,0,0,0,0,0,0,1,
scooby_state_14b38703cb44|45|-11 1,0,0,0,0,0,0,0,0,0,0,0,0,0,0,1,
scooby_state_14b3870012c0|56|-1 1,0,0,0,0,0,0,0,0,0,0,0,0,0,0,1,
scooby_state_14b387074cc0|51|13 1,0,0,0,0,0,0,0,0,0,0,0,0,0,0,1,
scooby_state_14b38703886b|22|-22 1,0,0,0,0,0,0,0,0,0,0,0,0,0,0,1,
scooby_state_55fa52a20047|1|0 1,0,0,0,0,0,0,0,0,0,0,0,0,0,0,1,
scooby_state_55fa52a2003f|31|0 1,0,0,0,0,0,0,0,0,0,0,0,0,0,0,1,
scooby_state_14b38703b706|28|1 1,0,0,0,0,0,0,0,0,0,0,0,0,0,0,1,
scooby_state_55fa52a20075|11|-4 1,0,0,0,0,0,0,0,0,0,0,0,0,0,0,1,
scooby_state_14b38703d3da|15|-44 1,0,0,0,0,0,0,0,0,0,0,0,0,0,0,1,
scooby_state_14b38706e443|17|1 1,0,0,0,0,0,0,0,0,0,0,0,0,0,0,1,
scooby_state_14b38703fda0|54|3 1,0,0,0,0,0,0,0,0,0,0,0,0,0,0,1,
scooby_state_14b38703b930|36|-27 1,0,0,0,0,0,0,0,0,0,0,0,0,0,0,1,
scooby_state_14b3870748c0|35|10 1,0,0,0,0,0,0,0,0,0,0,0,0,0,0,1,
scooby_state_14b3870748e8|13|-5 1,0,0,0,0,0,0,0,0,0,0,0,0,0,0,1,
scooby_state_14b38703b67a|43|0 1,0,0,0,0,0,0,0,0,0,0,0,0,0,0,1,
scooby_state_14b3870750e6|49|1 1,0,0,0,0,0,0,0,0,0,0,0,0,0,0,1,
scooby_state_14b38706b951|30|-2 1,0,0,0,0,0,0,0,0,0,0,0,0,0,0,1,
scooby_state_14b38703def2|40|-2 1,0,0,0,0,0,0,0,0,0,0,0,0,0,0,1,
scooby_state_14b387077076|59|3 1,0,0,0,0,0,0,0,0,0,0,0,0,0,0,1,
scooby_state_14b387112346|13|1 1,0,0,0,0,0,0,0,0,0,0,0,0,0,0,1,
scooby_state_14b387075183|6|-3 1,0,0,0,0,0,0,0,0,0,0,0,0,0,0,1,
scooby_state_14b38706e420|16|5 1,0,0,0,0,0,0,0,0,0,0,0,0,0,0,1,
scooby_state_14b38703b4e8|19|1 1,0,0,0,0,0,0,0,0,0,0,0,0,0,0,1,
scooby_state_14b387074450|17|5 1,0,0,0,0,0,0,0,0,0,0,0,0,0,0,1,
scooby_state_14b38706e530|20|2 1,0,0,0,0,0,0,0,0,0,0,0,0,0,0,1,
scooby_state_14b387040842|33|1 1,0,0,0,0,0,0,0,0,0,0,0,0,0,0,1,
scooby_state_14b387040715|28|17 1,0,0,0,0,0,0,0,0,0,0,0,0,0,0,1,
scooby_state_14b38703f384|14|1 1,0,0,0,0,0,0,0,0,0,0,0,0,0,0,1,
scooby_state_14b387075242|9|4 1,0,0,0,0,0,0,0,0,0,0,0,0,0,0,1,
scooby_state_14b38706cea0|58|0 1,0,0,0,0,0,0,0,0,0,0,0,0,0,0,1,
scooby_state_14b38703dec0|59|1 1,0,0,0,0,0,0,0,0,0,0,0,0,0,0,1,
scooby_state_14b38706e2a0|10|-3 1,0,0,0,0,0,0,0,0,0,0,0,0,0,0,1,
scooby_state_14b387034a48|41|1 1,0,0,0,0,0,0,0,0,0,0,0,0,0,0,1,
scooby_state_14b38703f8c1|35|1 1,0,0,0,0,0,0,0,0,0,0,0,0,0,0,1,
scooby_state_14b38703b643|25|1 1,0,0,0,0,0,0,0,0,0,0,0,0,0,0,1,
scooby_state_14b38703b494|18|1 1,0,0,0,0,0,0,0,0,0,0,0,0,0,0,1,
scooby_state_14b38703de08|56|0 1,0,0,0,0,0,0,0,0,0,0,0,0,0,0,1,
scooby_state_14b38709b567|21|4 1,0,0,0,0,0,0,0,0,0,0,0,0,0,0,1,
scooby_state_14b387112305|12|1 1,0,0,0,0,0,0,0,0,0,0,0,0,0,0,1,
scooby_state_14b38703f1c6|56|0 1,0,0,0,0,0,0,0,0,0,0,0,0,0,0,1,
scooby_state_55fa52a1ffe0|63|0 1,0,0,0,0,0,0,0,0,0,0,0,0,0,0,1,
scooby_state_55fa52a1ffe0|15|0 1,0,0,0,0,0,0,0,0,0,0,0,0,0,0,1,
scooby_state_14b38703c9c1|39|1 1,0,0,0,0,0,0,0,0,0,0,0,0,0,0,1,
scooby_state_14b38711224b|29|-4 1,0,0,0,0,0,0,0,0,0,0,0,0,0,0,1,
scooby_state_14b38703fc1e|48|1 1,0,0,0,0,0,0,0,0,0,0,0,0,0,0,1,
scooby_state_14b3870770c1|3|-3 1,0,0,0,0,0,0,0,0,0,0,0,0,0,0,1,
scooby_state_14b38703b5c8|23|3 1,0,0,0,0,0,0,0,0,0,0,0,0,0,0,1,
scooby_state_14b38703bf02|60|1 1,0,0,0,0,0,0,0,0,0,0,0,0,0,0,1,
scooby_state_14b38706e350|13|1 1,0,0,0,0,0,0,0,0,0,0,0,0,0,0,1,
scooby_state_14b38703d42d|16|16 1,0,0,0,0,0,0,0,0,0,0,0,0,0,0,1,
scooby_state_14b387033230|8|0 1,0,0,0,0,0,0,0,0,0,0,0,0,0,0,1,
scooby_state_14b38703d8db|35|20 1,0,0,0,0,0,0,0,0,0,0,0,0,0,0,1,
scooby_state_14b387001100|4|-4 1,0,0,0,0,0,0,0,0,0,0,0,0,0,0,1,
scooby_state_14b38703b9c0|39|1 1,0,0,0,0,0,0,0,0,0,0,0,0,0,0,1,
scooby_state_14b38705e100|4|0 1,0,0,0,0,0,0,0,0,0,0,0,0,0,0,1,
scooby_state_14b38707442a|16|-45 1,0,0,0,0,0,0,0,0,0,0,0,0,0,0,1,
scooby_state_14b3870ef7b0|30|0 1,0,0,0,0,0,0,0,0,0,0,0,0,0,0,1,
scooby_state_14b387040b44|45|7 1,0,0,0,0,0,0,0,0,0,0,0,0,0,0,1,
scooby_state_14b387040182|6|-44 1,0,0,0,0,0,0,0,0,0,0,0,0,0,0,1,
scooby_state_14b387040801|32|1 1,0,0,0,0,0,0,0,0,0,0,0,0,0,0,1,
scooby_state_14b38703fb11|44|4 1,0,0,0,0,0,0,0,0,0,0,0,0,0,0,1,
scooby_state_14b387074648|25|-20 1,0,0,0,0,0,0,0,0,0,0,0,0,0,0,1,
scooby_state_14b38703fa06|40|1 1,0,0,0,0,0,0,0,0,0,0,0,0,0,0,1,
scooby_state_14b387040960|37|3 1,0,0,0,0,0,0,0,0,0,0,0,0,0,0,1,
scooby_state_14b38703f918|36|1 1,0,0,0,0,0,0,0,0,0,0,0,0,0,0,1,
scooby_state_14b387091644|25|1 1,0,0,0,0,0,0,0,0,0,0,0,0,0,0,1,
scooby_state_14b38703b682|26|1 1,0,0,0,0,0,0,0,0,0,0,0,0,0,0,1,
scooby_state_14b387040b83|46|1 1,0,0,0,0,0,0,0,0,0,0,0,0,0,0,1,
scooby_state_14b38703e982|38|1 1,0,0,0,0,0,0,0,0,0,0,0,0,0,0,1,
scooby_state_14b38703f809|32|1 1,0,0,0,0,0,0,0,0,0,0,0,0,0,0,1,
scooby_state_55fa52a1e510|54|0 1,0,0,0,0,0,0,0,0,0,0,0,0,0,0,1,
scooby_state_14b3870402c0|11|5 1,0,0,0,0,0,0,0,0,0,0,0,0,0,0,1,
scooby_state_14b38703f6e4|61|0 1,0,0,0,0,0,0,0,0,0,0,0,0,0,0,1,
scooby_state_14b38706e376|12|2 1,0,0,0,0,0,0,0,0,0,0,0,0,0,0,1,
scooby_state_14b38703f6d6|60|5 1,0,0,0,0,0,0,0,0,0,0,0,0,0,0,1,
scooby_state_14b38703f6c0|27|-29 1,0,0,0,0,0,0,0,0,0,0,0,0,0,0,1,
scooby_state_14b3870770af|53|-6 1,0,0,0,0,0,0,0,0,0,0,0,0,0,0,1,
scooby_state_14b38703fc9e|50|2 1,0,0,0,0,0,0,0,0,0,0,0,0,0,0,1,
scooby_state_14b387040985|38|1 1,0,0,0,0,0,0,0,0,0,0,0,0,0,0,1,
scooby_state_14b38703f7c5|31|1 1,0,0,0,0,0,0,0,0,0,0,0,0,0,0,1,
scooby_state_14b387041080|2|1 1,0,0,0,0,0,0,0,0,0,0,0,0,0,0,1,
scooby_state_14b3870770c1|58|1 1,0,0,0,0,0,0,0,0,0,0,0,0,0,0,1,
scooby_state_14b387075100|4|1 1,0,0,0,0,0,0,0,0,0,0,0,0,0,0,1,
scooby_state_14b387074603|24|-29 1,0,0,0,0,0,0,0,0,0,0,0,0,0,0,1,
scooby_state_14b387074f73|36|-1 1,0,0,0,0,0,0,0,0,0,0,0,0,0,0,1,
scooby_state_14b38709b440|17|0 1,0,0,0,0,0,0,0,0,0,0,0,0,0,0,1,
scooby_state_14b38703c8d7|35|1 1,0,0,0,0,0,0,0,0,0,0,0,0,0,0,1,
scooby_state_14b387040150|5|0 1,0,0,0,0,0,0,0,0,0,0,0,0,0,0,1,
scooby_state_14b3871100b0|2|0 1,0,0,0,0,0,0,0,0,0,0,0,0,0,0,1,
scooby_state_14b3870745f4|18|-1 1,0,0,0,0,0,0,0,0,0,0,0,0,0,0,1,
scooby_state_14b38705e1d8|7|1 1,0,0,0,0,0,0,0,0,0,0,0,0,0,0,1,
scooby_state_14b38703b3c3|57|-3 1,0,0,0,0,0,0,0,0,0,0,0,0,0,0,1,
scooby_state_14b387091143|11|0 1,0,0,0,0,0,0,0,0,0,0,0,0,0,0,1,
scooby_state_14b38703f36f|13|-45 1,0,0,0,0,0,0,0,0,0,0,0,0,0,0,1,
scooby_state_14b387091620|24|19 1,0,0,0,0,0,0,0,0,0,0,0,0,0,0,1,
scooby_state_14b387074b40|45|21 1,0,0,0,0,0,0,0,0,0,0,0,0,0,0,1,
scooby_state_14b38705e173|45|0 1,0,0,0,0,0,0,0,0,0,0,0,0,0,0,1,
scooby_state_14b387034a00|40|1 1,0,0,0,0,0,0,0,0,0,0,0,0,0,0,1,
scooby_state_55fa52a20000|0|-3 1,0,0,0,0,0,0,0,0,0,0,0,0,0,0,1,
scooby_state_14b38703cdf0|55|12 1,0,0,0,0,0,0,0,0,0,0,0,0,0,0,1,
scooby_state_14b38703f1b0|6|0 1,0,0,0,0,0,0,0,0,0,0,0,0,0,0,1,
scooby_state_14b387041252|9|-20 1,0,0,0,0,0,0,0,0,0,0,0,0,0,0,1,
scooby_state_14b38703c980|38|1 1,0,0,0,0,0,0,0,0,0,0,0,0,0,0,1,
scooby_state_14b38706ba01|40|34 1,0,0,0,0,0,0,0,0,0,0,0,0,0,0,1,
scooby_state_14b38703fbc0|47|1 1,0,0,0,0,0,0,0,0,0,0,0,0,0,0,1,
scooby_state_55fa52a1ffee|14|-1 1,0,0,0,0,0,0,0,0,0,0,0,0,0,0,1,
scooby_state_14b38703b601|24|1 1,0,0,0,0,0,0,0,0,0,0,0,0,0,0,1,
scooby_state_14b3870748f4|48|0 1,0,0,0,0,0,0,0,0,0,0,0,0,0,0,1,
scooby_state_14b38706d300|12|0 1,0,0,0,0,0,0,0,0,0,0,0,0,0,0,1,
scooby_state_14b38703d028|0|-2 1,0,0,0,0,0,0,0,0,0,0,0,0,0,0,1,
scooby_state_14b387040c8e|50|45 1,0,0,0,0,0,0,0,0,0,0,0,0,0,0,1,
scooby_state_14b38703fe90|58|4 1,0,0,0,0,0,0,0,0,0,0,0,0,0,0,1,
scooby_state_14b38703caeb|43|-10 1,0,0,0,0,0,0,0,0,0,0,0,0,0,0,1,
scooby_state_14b38703cd24|52|52 1,0,0,0,0,0,0,0,0,0,0,0,0,0,0,1,
scooby_state_14b38703bf8e|62|2 1,0,0,0,0,0,0,0,0,0,0,0,0,0,0,1,
scooby_state_14b38703beb8|58|30 1,0,0,0,0,0,0,0,0,0,0,0,0,0,0,1,
scooby_state_14b3870012c0|11|10 1,0,0,0,0,0,0,0,0,0,0,0,0,0,0,1,
scooby_state_14b3870770cf|11|-37 1,0,0,0,0,0,0,0,0,0,0,0,0,0,0,1,
scooby_state_14b38703c441|17|1 1,0,0,0,0,0,0,0,0,0,0,0,0,0,0,1,
scooby_state_14b38703d090|2|-34 1,0,0,0,0,0,0,0,0,0,0,0,0,0,0,1,
scooby_state_14b38703325f|9|1 1,0,0,0,0,0,0,0,0,0,0,0,0,0,0,1,
scooby_state_14b38706e300|12|0 1,0,0,0,0,0,0,0,0,0,0,0,0,0,0,1,
scooby_state_14b38706b941|37|1 1,0,0,0,0,0,0,0,0,0,0,0,0,0,0,1,
scooby_state_14b38706b9ea|10|-1 1,0,0,0,0,0,0,0,0,0,0,0,0,0,0,1,
scooby_state_14b38703c461|32|10 1,0,0,0,0,0,0,0,0,0,0,0,0,0,0,1,
scooby_state_14b38706b9c2|39|1 1,0,0,0,0,0,0,0,0,0,0,0,0,0,0,1,
scooby_state_14b387074480|18|1 1,0,0,0,0,0,0,0,0,0,0,0,0,0,0,1,
scooby_state_14b38703b5e5|25|-10 1,0,0,0,0,0,0,0,0,0,0,0,0,0,0,1,
scooby_state_14b38703ce03|56|12 1,0,0,0,0,0,0,0,0,0,0,0,0,0,0,1,
scooby_state_14b387001100|2|-3 1,0,0,0,0,0,0,0,0,0,0,0,0,0,0,1,
scooby_state_14b387112230|60|0 1,0,0,0,0,0,0,0,0,0,0,0,0,0,0,1,
scooby_state_14b387112203|8|1 1,0,0,0,0,0,0,0,0,0,0,0,0,0,0,1,
scooby_state_14b38703fb61|45|1 1,0,0,0,0,0,0,0,0,0,0,0,0,0,0,1,
scooby_state_14b38703d167|5|-13 1,0,0,0,0,0,0,0,0,0,0,0,0,0,0,1,
scooby_state_14b38706b9b8|38|1 1,0,0,0,0,0,0,0,0,0,0,0,0,0,0,1,
scooby_state_14b3870750e6|3|0 1,0,0,0,0,0,0,0,0,0,0,0,0,0,0,1,
scooby_state_14b38703cb11|44|-11 1,0,0,0,0,0,0,0,0,0,0,0,0,0,0,1,
scooby_state_14b387112280|10|1 1,0,0,0,0,0,0,0,0,0,0,0,0,0,0,1,
scooby_state_14b387112264|35|0 1,0,0,0,0,0,0,0,0,0,0,0,0,0,0,1,
scooby_state_14b38703deab|58|2 1,0,0,0,0,0,0,0,0,0,0,0,0,0,0,1,
scooby_state_55fa52a20083|2|1 1,0,0,0,0,0,0,0,0,0,0,0,0,0,0,1,
scooby_state_14b38703fe00|56|1 1,0,0,0,0,0,0,0,0,0,0,0,0,0,0,1,
scooby_state_14b38703f880|34|1 1,0,0,0,0,0,0,0,0,0,0,0,0,0,0,1,
scooby_state_14b38703f001|0|-8 1,0,0,0,0,0,0,0,0,0,0,0,0,0,0,1,
scooby_state_14b38703bed7|59|1 1,0,0,0,0,0,0,0,0,0,0,0,0,0,0,1,
scooby_state_14b38703effb|63|1 1,0,0,0,0,0,0,0,0,0,0,0,0,0,0,1,
scooby_state_14b38709b58f|22|1 1,0,0,0,0,0,0,0,0,0,0,0,0,0,0,1,
scooby_state_14b38703ed02|52|1 1,0,0,0,0,0,0,0,0,0,0,0,0,0,0,1,
scooby_state_14b387077070|1|0 1,0,0,0,0,0,0,0,0,0,0,0,0,0,0,1,
scooby_state_14b38703ecd6|21|8 1,0,0,0,0,0,0,0,0,0,0,0,0,0,0,1,
scooby_state_14b38703f9f0|39|-4 1,0,0,0,0,0,0,0,0,0,0,0,0,0,0,1,
scooby_state_14b38703ec85|50|1 1,0,0,0,0,0,0,0,0,0,0,0,0,0,0,1,
scooby_state_14b38706d380|14|-4 1,0,0,0,0,0,0,0,0,0,0,0,0,0,0,1,
scooby_state_14b3870407c2|31|1 1,0,0,0,0,0,0,0,0,0,0,0,0,0,0,1,
scooby_state_14b387041760|55|2 1,0,0,0,0,0,0,0,0,0,0,0,0,0,0,1,
scooby_state_14b38703ec60|49|0 1,0,0,0,0,0,0,0,0,0,0,0,0,0,0,1,
scooby_state_55fa52a20000|10|0 1,0,0,0,0,0,0,0,0,0,0,0,0,0,0,1,
scooby_state_14b38707707d|48|47 1,0,0,0,0,0,0,0,0,0,0,0,0,0,0,1,
scooby_state_14b38703bfea|63|1 1,0,0,0,0,0,0,0,0,0,0,0,0,0,0,1,
scooby_state_14b38703b586|22|1 1,0,0,0,0,0,0,0,0,0,0,0,0,0,0,1,
scooby_state_14b38703c21b|8|-40 1,0,0,0,0,0,0,0,0,0,0,0,0,0,0,1,
scooby_state_14b38703cc02|48|1 1,0,0,0,0,0,0,0,0,0,0,0,0,0,0,1,
scooby_state_14b38703cbb1|46|1 1,0,0,0,0,0,0,0,0,0,0,0,0,0,0,1,
scooby_state_14b3871100b0|22|0 1,0,0,0,0,0,0,0,0,0,0,0,0,0,0,1,
scooby_state_14b38703cd44|53|1 1,0,0,0,0,0,0,0,0,0,0,0,0,0,0,1,
scooby_state_14b38706b930|36|0 1,0,0,0,0,0,0,0,0,0,0,0,0,0,0,1,
scooby_state_14b387077080|2|1 1,0,0,0,0,0,0,0,0,0,0,0,0,0,0,1,
scooby_state_14b38703f945|37|1 1,0,0,0,0,0,0,0,0,0,0,0,0,0,0,1,
scooby_state_14b38705e182|6|1 1,0,0,0,0,0,0,0,0,0,0,0,0,0,0,1,
scooby_state_14b38703c006|0|-61 1,0,0,0,0,0,0,0,0,0,0,0,0,0,0,1,
scooby_state_14b387001230|8|-3 1,0,0,0,0,0,0,0,0,0,0,0,0,0,0,1,
scooby_state_14b387060340|13|2 1,0,0,0,0,0,0,0,0,0,0,0,0,0,0,1,

scooby_action_0_deg_dist 0,239998,0,0,0,0,0,0,0,0,0,0,0,0,0,0,
scooby_action_4_deg_dist 0,13824,54,0,10,0,0,0,0,0,0,0,0,0,0,0,
scooby_action_32_deg_dist 0,8572,16,0,5,0,0,0,0,0,0,0,0,0,0,0,
scooby_action_3_deg_dist 0,332318,72301,0,121503,0,475587,0,0,0,0,0,0,0,0,0,
scooby_action_5_deg_dist 0,13238,43,0,4,0,0,0,0,0,0,0,0,0,0,0,
scooby_action_1_deg_dist 0,6952470,329381,0,211813,0,287880,0,0,0,0,0,0,0,0,0,
scooby_action_30_deg_dist 0,9046,11,0,0,0,0,0,0,0,0,0,0,0,0,0,
scooby_action_-3_deg_dist 0,11216,11,0,0,0,0,0,0,0,0,0,0,0,0,0,
scooby_action_10_deg_dist 0,11689,25,0,6,0,0,0,0,0,0,0,0,0,0,0,
scooby_action_-1_deg_dist 0,11137,19,0,0,0,0,0,0,0,0,0,0,0,0,0,
scooby_action_23_deg_dist 0,9305,6,0,0,0,0,0,0,0,0,0,0,0,0,0,
scooby_action_-6_deg_dist 0,11274,14,0,3,0,0,0,0,0,0,0,0,0,0,0,
scooby_action_11_deg_dist 0,11675,27,0,0,0,0,0,0,0,0,0,0,0,0,0,
scooby_action_22_deg_dist 0,9386,5,0,0,0,0,0,0,0,0,0,0,0,0,0,
scooby_action_12_deg_dist 0,11219,17,0,1,0,0,0,0,0,0,0,0,0,0,0,

scooby_track_called 9155109
scooby_track_same_address 9635
scooby_track_evict 9145218

scooby_reward_demand_called 9155109
scooby_reward_demand_pt_not_found 8142548
scooby_reward_demand_pt_found 1012561
scooby_reward_demand_pt_found_total 1012561
scooby_reward_demand_has_reward 9
scooby_reward_train_called 7929376
scooby_reward_assign_reward_called 9145234
scooby_reward_no_pref 239987
scooby_reward_incorrect 7689389
scooby_reward_correct_untimely 738886
scooby_reward_correct_timely 273666
scooby_reward_out_of_bounds 203306
scooby_reward_tracker_hit 0

scooby_reward_none_low_bw 239987
scooby_reward_none_high_bw 0
scooby_reward_incorrect_low_bw 7689389
scooby_reward_incorrect_high_bw 0
scooby_reward_correct_untimely_low_bw 738886
scooby_reward_correct_untimely_high_bw 0
scooby_reward_correct_timely_low_bw 273666
scooby_reward_correct_timely_high_bw 0
scooby_reward_out_of_bounds_low_bw 203306
scooby_reward_out_of_bounds_high_bw 0
scooby_reward_tracker_hit_low_bw 0
scooby_reward_tracker_hit_high_bw 0

scooby_reward_1 0,7199808,258956,192015,124365,0,
scooby_reward_3 0,397726,478927,78387,45620,0,
scooby_reward_4 0,11474,288,599,1354,0,
scooby_reward_5 0,10694,243,566,1636,0,
scooby_reward_10 0,8265,144,468,2773,0,
scooby_reward_11 0,8010,122,471,3054,0,
scooby_reward_12 0,7316,118,391,3193,0,
scooby_reward_22 0,4341,30,220,4754,0,
scooby_reward_23 0,4147,28,228,4892,0,
scooby_reward_30 0,2995,13,160,5509,0,
scooby_reward_32 0,2609,16,153,5721,0,
scooby_reward_-1 0,10750,0,0,44,0,
scooby_reward_-3 0,10702,1,6,121,0,
scooby_reward_-6 0,10552,0,2,270,0,
scooby_reward_0 239987,0,0,0,0,0,

scooby_train_called 9145217
scooby_train_compute_reward 7929376

scooby_register_fill_called 8860491
scooby_register_fill_set 7106806
scooby_register_fill_set_total 7106806

scooby_register_prefetch_hit_called 3752237
scooby_register_prefetch_hit_set 1564401
scooby_register_prefetch_hit_set_total 1564401

scooby_pref_issue_scooby 13075189

learning_engine_featurewise.action.called 9155109
learning_engine_featurewise.action.explore 16564
learning_engine_featurewise.action.exploit 9138545
learning_engine_featurewise.action.fallback 7246957
learning_engine_featurewise.action.dyn_fallback_saved_bw 0
learning_engine_featurewise.action.dyn_fallback_saved_bw_acc 1051442
learning_engine_featurewise.action.index_1_explored 1136
learning_engine_featurewise.action.index_1_exploited 7780408
learning_engine_featurewise.action.index_3_explored 1093
learning_engine_featurewise.action.index_3_exploited 1000616
learning_engine_featurewise.action.index_4_explored 1106
learning_engine_featurewise.action.index_4_exploited 12782
learning_engine_featurewise.action.index_5_explored 1070
learning_engine_featurewise.action.index_5_exploited 12215
learning_engine_featurewise.action.index_10_explored 1145
learning_engine_featurewise.action.index_10_exploited 10575
learning_engine_featurewise.action.index_11_explored 1110
learning_engine_featurewise.action.index_11_exploited 10592
learning_engine_featurewise.action.index_12_explored 1148
learning_engine_featurewise.action.index_12_exploited 10089
learning_engine_featurewise.action.index_22_explored 1111
learning_engine_featurewise.action.index_22_exploited 8280
learning_engine_featurewise.action.index_23_explored 1097
learning_engine_featurewise.action.index_23_exploited 8214
learning_engine_featurewise.action.index_30_explored 1085
learning_engine_featurewise.action.index_30_exploited 7972
learning_engine_featurewise.action.index_32_explored 1050
learning_engine_featurewise.action.index_32_exploited 7543
learning_engine_featurewise.action.index_-1_explored 1106
learning_engine_featurewise.action.index_-1_exploited 10050
learning_engine_featurewise.action.index_-3_explored 1097
learning_engine_featurewise.action.index_-3_exploited 10130
learning_engine_featurewise.action.index_-6_explored 1100
learning_engine_featurewise.action.index_-6_exploited 10191
learning_engine_featurewise.action.index_0_explored 1110
learning_engine_featurewise.action.index_0_exploited 238888
learning_engine_featurewise.learn.called 9145217
learning_engine_featurewise.learn.su_skip_PC 0
learning_engine_featurewise.learn.su_skip_PC_Delta 0

learning_engine_featurewise.q_value_histogram.bucket_0 884443
learning_engine_featurewise.q_value_histogram.bucket_1 17978
learning_engine_featurewise.q_value_histogram.bucket_2 7334160
learning_engine_featurewise.q_value_histogram.bucket_3 81430
learning_engine_featurewise.q_value_histogram.bucket_4 289519
learning_engine_featurewise.q_value_histogram.bucket_5 312130
learning_engine_featurewise.q_value_histogram.bucket_6 218885
learning_engine_featurewise.q_value_histogram.bucket_7 0

learning_engine_featurewise.consensus.total 9138545
learning_engine_featurewise.consensus.feature_align_PC 8325860
learning_engine_featurewise.consensus.feature_align_PC_ratio 0.91
learning_engine_featurewise.consensus.feature_align_PC_Delta 8349094
learning_engine_featurewise.consensus.feature_align_PC_Delta_ratio 0.91
learning_engine_featurewise.consensus.feature_align_all 8323182
learning_engine_featurewise.consensus.feature_align_all_ratio 0.91

learning_engine_featurewise.feature_PC_min_weight 1000000.00000000
learning_engine_featurewise.feature_PC_max_weight 0.00000000
learning_engine_featurewise.feature_PC_Delta_min_weight 1000000.00000000
learning_engine_featurewise.feature_PC_Delta_max_weight 0.00000000
unique_pcs 269
unique_pages 12637
unique_trigger_pcs 56
total_bitmaps_seen 0
unique_bitmaps_seen 0

scooby_bw_epochs 3723326
scooby_bw_level_0 3245331
scooby_bw_level_1 389439
scooby_bw_level_2 64338
scooby_bw_level_3 24218

scooby_ipc_epochs 0
scooby_ipc_level_0 0
scooby_ipc_level_1 0
scooby_ipc_level_2 0
scooby_ipc_level_3 0

scooby_cache_acc_epochs 929805
scooby_cache_acc_level_0 498462
scooby_cache_acc_level_1 355656
scooby_cache_acc_level_2 59893
scooby_cache_acc_level_3 9311
scooby_cache_acc_level_4 883
scooby_cache_acc_level_5 287
scooby_cache_acc_level_6 37
scooby_cache_acc_level_7 24
scooby_cache_acc_level_8 97
scooby_cache_acc_level_9 5155

Channel_0_RQ_row_buffer_hit 1637019
Channel_0_RQ_row_buffer_miss 4803525
Channel_0_WQ_row_buffer_hit 18638
Channel_0_WQ_row_buffer_miss 35171
Channel_0_WQ_full 0
Channel_0_dbus_congested 2195007

avg_congested_cycle 5

DRAM_bw_pochs 3723326
DRAM_bw_level_0 3245331
DRAM_bw_level_1 389439
DRAM_bw_level_2 64338
DRAM_bw_level_3 24218
