*************************************************
   ChampSim Multicore Out-of-Order Simulator
   Last compiled: Apr  3 2025 20:54:34
*************************************************
parsing config file: /home/zir/Pythia/config/pythia.ini

trace_0 /home/zir/ChampSim/ML-DPC/ChampSimTraces/gap/pr-14.trace.gz
adding L2C_PREFETCHER: Scooby
Initialize SHIP state
warmup_instructions 10000000
simulation_instructions 50000000
champsim_seed 101
measure_ipc 0
measure_ipc_epoch 1000
measure_dram_bw 1
measure_dram_bw_epoch 256
measure_cache_acc 1
measure_cache_acc_epoch 1024
l1d_perfect 0
l2c_perfect 0
llc_perfect 0
l1d_semi_perfect 0
l2c_semi_perfect 0
llc_semi_perfect 0
semi_perfect_cache_page_buffer_size 64

num_cpus 1
cpu_freq 4000
dram_io_freq 2400
page_size 4096
block_size 64
max_read_per_cycle 8
max_fill_per_cycle 1
dram_channels 1
log2_dram_channels 0
dram_ranks 1
dram_banks 8
dram_rows 65536
dram_columns 128
dram_row_size 8
dram_size 4096
dram_pages 1048576

fetch_width 6
decode_width 6
exec_width 4
lq_width 2
sq_width 2
retire_width 4
scheduler_size 128
branch_mispredict_penalty 20
rob_size 256
lq_size 72
sq_size 56
num_instr_destinations_sparc 4
num_instr_destinations 2
num_instr_sources 4

itlb_set 16
itlb_way 8
itlb_rq_size 16
itlb_wq_size 16
itlb_pq_size 0
itlb_mshr_size 8
itlb_latency 1

dtlb_set 16
dtlb_way 4
dtlb_rq_size 16
dtlb_wq_size 16
dtlb_pq_size 0
dtlb_mshr_size 8
dtlb_latency 1

stlb_set 128
stlb_way 12
stlb_rq_size 32
stlb_wq_size 32
stlb_pq_size 0
stlb_mshr_size 16
stlb_latency 8

l1i_size 32
l1i_set 64
l1i_way 8
l1i_rq_size 64
l1i_wq_size 64
l1i_pq_size 8
l1i_mshr_size 8
l1i_latency 1

l1d_size 32
l1d_set 64
l1d_way 8
l1d_rq_size 64
l1d_wq_size 64
l1d_pq_size 8
l1d_mshr_size 16
l1d_latency 4

l2c_size 256
l2c_set 512
l2c_way 8
l2c_rq_size 32
l2c_wq_size 32
l2c_pq_size 32
l2c_mshr_size 32
l2c_latency 10

llc_size 2048
llc_set 2048
llc_way 16
llc_rq_size 32
llc_wq_size 32
llc_pq_size 32
llc_mshr_size 64
llc_latency 20

dram_channel_width 8
dram_wq_size 64
dram_rq_size 64
tRP 15
tRCD 15
tCAS 12.5
dram_dbus_turn_around_time 30
dram_write_high_wm 56
dram_write_low_wm 48
min_dram_writes_per_switch 16
dram_mtps 2400
dram_dbus_return_time 13

scooby_alpha 0.0065088
scooby_gamma 0.556301
scooby_epsilon 0.00182284
scooby_state_num_bits 10
scooby_max_states 1024
scooby_seed 200
scooby_policy EGreedy
scooby_learning_type SARSA
scooby_actions 1,3,4,5,10,11,12,22,23,30,32,-1,-3,-6,0,
scooby_max_actions 15
scooby_pt_size 256
scooby_st_size 64
scooby_max_pcs 5
scooby_max_offsets 5
scooby_max_deltas 5
scooby_reward_none -4
scooby_reward_incorrect -8
scooby_reward_correct_untimely 12
scooby_reward_correct_timely 20
scooby_brain_zero_init 0
scooby_enable_reward_all 0
scooby_enable_track_multiple 0
scooby_enable_reward_out_of_bounds 1
scooby_reward_out_of_bounds -12
scooby_state_type 1
scooby_state_hash_type 11
scooby_access_debug 0
scooby_print_access_debug 0
scooby_print_access_debug_pc deadbeef
scooby_print_access_debug_pc_count 0
scooby_print_trace 0
scooby_enable_state_action_stats 1
scooby_enable_reward_tracker_hit 0
scooby_reward_tracker_hit -2
scooby_enable_featurewise_engine 1
scooby_pref_degree 1
scooby_enable_dyn_degree 1
scooby_max_to_avg_q_thresholds 0.5,1,2,
scooby_dyn_degrees 1,2,4,4,
scooby_multi_deg_select_type 2
scooby_last_pref_offset_conf_thresholds 1,3,8,
scooby_dyn_degrees_type2 1,2,4,6,
scooby_action_tracker_size 2
scooby_high_bw_thresh 4
scooby_enable_hbw_reward 1
scooby_reward_hbw_correct_timely 20
scooby_reward_hbw_correct_untimely 12
scooby_reward_hbw_incorrect -14
scooby_reward_hbw_none -2
scooby_reward_hbw_out_of_bounds -12
scooby_reward_hbw_tracker_hit -2
scooby_last_pref_offset_conf_thresholds_hbw 1,3,8,
scooby_dyn_degrees_type2_hbw 1,2,4,6,

le_enable_trace 0
le_trace_interval 0
le_trace_file_name 
le_trace_state 0
le_enable_score_plot 0
le_plot_file_name 
le_plot_actions 
le_enable_action_trace 0
le_action_trace_interval 0
le_action_trace_name 
le_enable_action_plot 0

le_featurewise_active_features PC, PC_Delta
le_featurewise_num_tilings 3,3,
le_featurewise_num_tiles 128,128,
le_featurewise_hash_types 2,2,
le_featurewise_enable_tiling_offset 1,1,
le_featurewise_max_q_thresh 0.5
le_featurewise_enable_action_fallback 1
le_featurewise_feature_weights 1,1,
le_featurewise_enable_dynamic_weight 0
le_featurewise_weight_gradient 0.001
le_featurewise_disable_adjust_weight_all_features_align 1
le_featurewise_selective_update 0
le_featurewise_pooling_type 2
le_featurewise_enable_dyn_action_fallback 1
le_featurewise_bw_acc_check_level 1
le_featurewise_acc_thresh 2
le_featurewise_enable_trace 0
le_featurewise_trace_feature_type 0
le_featurewise_trace_feature 
le_featurewise_trace_interval 0
le_featurewise_trace_record_count 0
le_featurewise_trace_file_name 
le_featurewise_enable_score_plot 0
le_featurewise_plot_actions 
le_featurewise_plot_file_name 


Heartbeat CPU  0 instructions:    1000001 cycles:     406314 heartbeat IPC: 2.46115 cumulative IPC: 2.46115 (Simulation time: 0 hr 0 min 2 sec) 
Heartbeat CPU  0 instructions:    2000001 cycles:     807669 heartbeat IPC: 2.49156 cumulative IPC: 2.47626 (Simulation time: 0 hr 0 min 3 sec) 
Heartbeat CPU  0 instructions:    3000003 cycles:    1209027 heartbeat IPC: 2.49155 cumulative IPC: 2.48134 (Simulation time: 0 hr 0 min 5 sec) 
Heartbeat CPU  0 instructions:    4000000 cycles:    1610386 heartbeat IPC: 2.49153 cumulative IPC: 2.48388 (Simulation time: 0 hr 0 min 7 sec) 
Heartbeat CPU  0 instructions:    5000001 cycles:    2011780 heartbeat IPC: 2.49132 cumulative IPC: 2.48536 (Simulation time: 0 hr 0 min 8 sec) 
Heartbeat CPU  0 instructions:    6000002 cycles:    2413138 heartbeat IPC: 2.49154 cumulative IPC: 2.48639 (Simulation time: 0 hr 0 min 10 sec) 
Heartbeat CPU  0 instructions:    7000002 cycles:    2814496 heartbeat IPC: 2.49154 cumulative IPC: 2.48712 (Simulation time: 0 hr 0 min 12 sec) 
Heartbeat CPU  0 instructions:    8000000 cycles:    3215856 heartbeat IPC: 2.49152 cumulative IPC: 2.48767 (Simulation time: 0 hr 0 min 14 sec) 
Heartbeat CPU  0 instructions:    9000001 cycles:    3617252 heartbeat IPC: 2.49131 cumulative IPC: 2.48808 (Simulation time: 0 hr 0 min 15 sec) 
Heartbeat CPU  0 instructions:   10000001 cycles:    4018609 heartbeat IPC: 2.49155 cumulative IPC: 2.48842 (Simulation time: 0 hr 0 min 17 sec) 

Warmup complete CPU  0 instructions:   10000001 cycles:    4018609 (Simulation time: 0 hr 0 min 17 sec) 

Heartbeat CPU  0 instructions:   11000002 cycles:    4937619 heartbeat IPC: 1.08813 cumulative IPC: 1.08813 (Simulation time: 0 hr 0 min 19 sec) 
Heartbeat CPU  0 instructions:   12000000 cycles:   15971103 heartbeat IPC: 0.09063 cumulative IPC: 0.16733 (Simulation time: 0 hr 0 min 25 sec) 
Heartbeat CPU  0 instructions:   13000002 cycles:   36532974 heartbeat IPC: 0.04863 cumulative IPC: 0.09227 (Simulation time: 0 hr 0 min 35 sec) 
Heartbeat CPU  0 instructions:   14000003 cycles:   55828161 heartbeat IPC: 0.05183 cumulative IPC: 0.07721 (Simulation time: 0 hr 0 min 45 sec) 
Heartbeat CPU  0 instructions:   15000000 cycles:   76130100 heartbeat IPC: 0.04926 cumulative IPC: 0.06934 (Simulation time: 0 hr 0 min 55 sec) 
Heartbeat CPU  0 instructions:   16000000 cycles:   96592542 heartbeat IPC: 0.04887 cumulative IPC: 0.06481 (Simulation time: 0 hr 1 min 5 sec) 
Heartbeat CPU  0 instructions:   17000000 cycles:  117026508 heartbeat IPC: 0.04894 cumulative IPC: 0.06194 (Simulation time: 0 hr 1 min 14 sec) 
Heartbeat CPU  0 instructions:   18000003 cycles:  137543172 heartbeat IPC: 0.04874 cumulative IPC: 0.05991 (Simulation time: 0 hr 1 min 24 sec) 
Heartbeat CPU  0 instructions:   19000002 cycles:  157910114 heartbeat IPC: 0.04910 cumulative IPC: 0.05848 (Simulation time: 0 hr 1 min 34 sec) 
Heartbeat CPU  0 instructions:   20000000 cycles:  178224184 heartbeat IPC: 0.04923 cumulative IPC: 0.05740 (Simulation time: 0 hr 1 min 44 sec) 
Heartbeat CPU  0 instructions:   21000002 cycles:  198621018 heartbeat IPC: 0.04903 cumulative IPC: 0.05653 (Simulation time: 0 hr 1 min 54 sec) 
Heartbeat CPU  0 instructions:   22000000 cycles:  218823376 heartbeat IPC: 0.04950 cumulative IPC: 0.05586 (Simulation time: 0 hr 2 min 4 sec) 
Heartbeat CPU  0 instructions:   23000001 cycles:  239260881 heartbeat IPC: 0.04893 cumulative IPC: 0.05526 (Simulation time: 0 hr 2 min 14 sec) 
Heartbeat CPU  0 instructions:   24000000 cycles:  259455114 heartbeat IPC: 0.04952 cumulative IPC: 0.05481 (Simulation time: 0 hr 2 min 24 sec) 
Heartbeat CPU  0 instructions:   25000002 cycles:  279714720 heartbeat IPC: 0.04936 cumulative IPC: 0.05441 (Simulation time: 0 hr 2 min 33 sec) 
Heartbeat CPU  0 instructions:   26000000 cycles:  300178736 heartbeat IPC: 0.04887 cumulative IPC: 0.05402 (Simulation time: 0 hr 2 min 43 sec) 
Heartbeat CPU  0 instructions:   27000002 cycles:  320488704 heartbeat IPC: 0.04924 cumulative IPC: 0.05372 (Simulation time: 0 hr 2 min 53 sec) 
Heartbeat CPU  0 instructions:   28000000 cycles:  340987567 heartbeat IPC: 0.04878 cumulative IPC: 0.05342 (Simulation time: 0 hr 3 min 3 sec) 
Heartbeat CPU  0 instructions:   29000000 cycles:  361506549 heartbeat IPC: 0.04874 cumulative IPC: 0.05315 (Simulation time: 0 hr 3 min 13 sec) 
Heartbeat CPU  0 instructions:   30000002 cycles:  381719583 heartbeat IPC: 0.04947 cumulative IPC: 0.05295 (Simulation time: 0 hr 3 min 23 sec) 
Heartbeat CPU  0 instructions:   31000000 cycles:  401054382 heartbeat IPC: 0.05172 cumulative IPC: 0.05289 (Simulation time: 0 hr 3 min 32 sec) 
Heartbeat CPU  0 instructions:   32000000 cycles:  421375725 heartbeat IPC: 0.04921 cumulative IPC: 0.05271 (Simulation time: 0 hr 3 min 42 sec) 
Heartbeat CPU  0 instructions:   33000000 cycles:  441635408 heartbeat IPC: 0.04936 cumulative IPC: 0.05256 (Simulation time: 0 hr 3 min 52 sec) 
Heartbeat CPU  0 instructions:   34000000 cycles:  462260711 heartbeat IPC: 0.04848 cumulative IPC: 0.05237 (Simulation time: 0 hr 4 min 2 sec) 
Heartbeat CPU  0 instructions:   35000003 cycles:  482659833 heartbeat IPC: 0.04902 cumulative IPC: 0.05223 (Simulation time: 0 hr 4 min 12 sec) 
Heartbeat CPU  0 instructions:   36000000 cycles:  502538293 heartbeat IPC: 0.05031 cumulative IPC: 0.05215 (Simulation time: 0 hr 4 min 22 sec) 
Heartbeat CPU  0 instructions:   37000000 cycles:  522841742 heartbeat IPC: 0.04925 cumulative IPC: 0.05204 (Simulation time: 0 hr 4 min 31 sec) 
Heartbeat CPU  0 instructions:   38000000 cycles:  543213115 heartbeat IPC: 0.04909 cumulative IPC: 0.05193 (Simulation time: 0 hr 4 min 41 sec) 
Heartbeat CPU  0 instructions:   39000001 cycles:  563447855 heartbeat IPC: 0.04942 cumulative IPC: 0.05184 (Simulation time: 0 hr 4 min 51 sec) 
Heartbeat CPU  0 instructions:   40000000 cycles:  583726951 heartbeat IPC: 0.04931 cumulative IPC: 0.05175 (Simulation time: 0 hr 5 min 1 sec) 
Heartbeat CPU  0 instructions:   41000003 cycles:  603889410 heartbeat IPC: 0.04960 cumulative IPC: 0.05168 (Simulation time: 0 hr 5 min 11 sec) 
Heartbeat CPU  0 instructions:   42000002 cycles:  624209101 heartbeat IPC: 0.04921 cumulative IPC: 0.05160 (Simulation time: 0 hr 5 min 21 sec) 
Heartbeat CPU  0 instructions:   43000000 cycles:  644538077 heartbeat IPC: 0.04919 cumulative IPC: 0.05152 (Simulation time: 0 hr 5 min 30 sec) 
Heartbeat CPU  0 instructions:   44000000 cycles:  664774715 heartbeat IPC: 0.04942 cumulative IPC: 0.05146 (Simulation time: 0 hr 5 min 40 sec) 
Heartbeat CPU  0 instructions:   45000003 cycles:  685023006 heartbeat IPC: 0.04939 cumulative IPC: 0.05139 (Simulation time: 0 hr 5 min 50 sec) 
Heartbeat CPU  0 instructions:   46000003 cycles:  704857062 heartbeat IPC: 0.05042 cumulative IPC: 0.05137 (Simulation time: 0 hr 6 min 0 sec) 
Heartbeat CPU  0 instructions:   47000003 cycles:  725377953 heartbeat IPC: 0.04873 cumulative IPC: 0.05129 (Simulation time: 0 hr 6 min 10 sec) 
Heartbeat CPU  0 instructions:   48000000 cycles:  745054756 heartbeat IPC: 0.05082 cumulative IPC: 0.05128 (Simulation time: 0 hr 6 min 19 sec) 
Heartbeat CPU  0 instructions:   49000000 cycles:  764813340 heartbeat IPC: 0.05061 cumulative IPC: 0.05126 (Simulation time: 0 hr 6 min 29 sec) 
Heartbeat CPU  0 instructions:   50000003 cycles:  785297002 heartbeat IPC: 0.04882 cumulative IPC: 0.05120 (Simulation time: 0 hr 6 min 39 sec) 
Heartbeat CPU  0 instructions:   51000001 cycles:  805698718 heartbeat IPC: 0.04902 cumulative IPC: 0.05114 (Simulation time: 0 hr 6 min 49 sec) 
Heartbeat CPU  0 instructions:   52000000 cycles:  824954021 heartbeat IPC: 0.05193 cumulative IPC: 0.05116 (Simulation time: 0 hr 6 min 59 sec) 
Heartbeat CPU  0 instructions:   53000000 cycles:  845230197 heartbeat IPC: 0.04932 cumulative IPC: 0.05112 (Simulation time: 0 hr 7 min 8 sec) 
Heartbeat CPU  0 instructions:   54000002 cycles:  865306253 heartbeat IPC: 0.04981 cumulative IPC: 0.05109 (Simulation time: 0 hr 7 min 18 sec) 
Heartbeat CPU  0 instructions:   55000001 cycles:  885428259 heartbeat IPC: 0.04970 cumulative IPC: 0.05105 (Simulation time: 0 hr 7 min 28 sec) 
Heartbeat CPU  0 instructions:   56000000 cycles:  905692388 heartbeat IPC: 0.04935 cumulative IPC: 0.05102 (Simulation time: 0 hr 7 min 38 sec) 
Heartbeat CPU  0 instructions:   57000003 cycles:  926018926 heartbeat IPC: 0.04920 cumulative IPC: 0.05098 (Simulation time: 0 hr 7 min 48 sec) 
Heartbeat CPU  0 instructions:   58000003 cycles:  946307417 heartbeat IPC: 0.04929 cumulative IPC: 0.05094 (Simulation time: 0 hr 7 min 58 sec) 
Heartbeat CPU  0 instructions:   59000001 cycles:  966780621 heartbeat IPC: 0.04884 cumulative IPC: 0.05090 (Simulation time: 0 hr 8 min 8 sec) 
Heartbeat CPU  0 instructions:   60000000 cycles:  987327273 heartbeat IPC: 0.04867 cumulative IPC: 0.05085 (Simulation time: 0 hr 8 min 18 sec) 
Finished CPU 0 instructions: 50000003 cycles: 983308920 cumulative IPC: 0.05085 (Simulation time: 0 hr 8 min 18 sec) 

ChampSim completed all CPUs

[ROI Statistics]
Core_0_instructions 50000003
Core_0_cycles 983308920
Core_0_IPC 0.05085

Core_0_branch_prediction_accuracy 96.84732
Core_0_branch_MPKI 5.92376
Core_0_average_ROB_occupancy_at_mispredict 134.07295

Core_0_L1D_total_access 16344210
Core_0_L1D_total_hit 7345297
Core_0_L1D_total_miss 8998913
Core_0_L1D_loads 15751560
Core_0_L1D_load_hit 6761381
Core_0_L1D_load_miss 8990179
Core_0_L1D_RFOs 592650
Core_0_L1D_RFO_hit 583916
Core_0_L1D_RFO_miss 8734
Core_0_L1D_prefetches 0
Core_0_L1D_prefetch_hit 0
Core_0_L1D_prefetch_miss 0
Core_0_L1D_writebacks 0
Core_0_L1D_writeback_hit 0
Core_0_L1D_writeback_miss 0
Core_0_L1D_prefetch_requested 0
Core_0_L1D_prefetch_dropped 0
Core_0_L1D_prefetch_issued 0
Core_0_L1D_prefetch_filled 0
Core_0_L1D_prefetch_useful 0
Core_0_L1D_prefetch_useless 0
Core_0_L1D_prefetch_late 0
Core_0_L1D_average_miss_latency 90.78015

Core_0_L1D_rq_access 19503774
Core_0_L1D_rq_forward 0
Core_0_L1D_rq_merged 3228235
Core_0_L1D_rq_to_cache 16275539
Core_0_L1D_rq_full 0

Core_0_L1D_wq_access 714219
Core_0_L1D_wq_forward 0
Core_0_L1D_wq_merged 0
Core_0_L1D_wq_to_cache 714219
Core_0_L1D_wq_full 0

Core_0_L1D_pq_access 0
Core_0_L1D_pq_forward 0
Core_0_L1D_pq_merged 0
Core_0_L1D_pq_to_cache 0
Core_0_L1D_pq_full 0

Core_0_L1D_acc_epochs 963161
Core_0_L1D_acc_level_0 963161
Core_0_L1D_acc_level_1 0
Core_0_L1D_acc_level_2 0
Core_0_L1D_acc_level_3 0
Core_0_L1D_acc_level_4 0
Core_0_L1D_acc_level_5 0
Core_0_L1D_acc_level_6 0
Core_0_L1D_acc_level_7 0
Core_0_L1D_acc_level_8 0
Core_0_L1D_acc_level_9 0

Core_0_L1I_total_access 9488024
Core_0_L1I_total_hit 9488022
Core_0_L1I_total_miss 2
Core_0_L1I_loads 9488024
Core_0_L1I_load_hit 9488022
Core_0_L1I_load_miss 2
Core_0_L1I_RFOs 0
Core_0_L1I_RFO_hit 0
Core_0_L1I_RFO_miss 0
Core_0_L1I_prefetches 0
Core_0_L1I_prefetch_hit 0
Core_0_L1I_prefetch_miss 0
Core_0_L1I_writebacks 0
Core_0_L1I_writeback_hit 0
Core_0_L1I_writeback_miss 0
Core_0_L1I_prefetch_requested 0
Core_0_L1I_prefetch_dropped 0
Core_0_L1I_prefetch_issued 0
Core_0_L1I_prefetch_filled 0
Core_0_L1I_prefetch_useful 0
Core_0_L1I_prefetch_useless 0
Core_0_L1I_prefetch_late 0
Core_0_L1I_average_miss_latency 205.00000

Core_0_L1I_rq_access 50000007
Core_0_L1I_rq_forward 0
Core_0_L1I_rq_merged 40511982
Core_0_L1I_rq_to_cache 9488025
Core_0_L1I_rq_full 0

Core_0_L1I_wq_access 0
Core_0_L1I_wq_forward 0
Core_0_L1I_wq_merged 0
Core_0_L1I_wq_to_cache 0
Core_0_L1I_wq_full 0

Core_0_L1I_pq_access 0
Core_0_L1I_pq_forward 0
Core_0_L1I_pq_merged 0
Core_0_L1I_pq_to_cache 0
Core_0_L1I_pq_full 0

Core_0_L1I_acc_epochs 963161
Core_0_L1I_acc_level_0 963161
Core_0_L1I_acc_level_1 0
Core_0_L1I_acc_level_2 0
Core_0_L1I_acc_level_3 0
Core_0_L1I_acc_level_4 0
Core_0_L1I_acc_level_5 0
Core_0_L1I_acc_level_6 0
Core_0_L1I_acc_level_7 0
Core_0_L1I_acc_level_8 0
Core_0_L1I_acc_level_9 0

Core_0_L2C_total_access 20463715
Core_0_L2C_total_hit 4835055
Core_0_L2C_total_miss 15628660
Core_0_L2C_loads 8990180
Core_0_L2C_load_hit 1656252
Core_0_L2C_load_miss 7333928
Core_0_L2C_RFOs 8734
Core_0_L2C_RFO_hit 0
Core_0_L2C_RFO_miss 8734
Core_0_L2C_prefetches 11430779
Core_0_L2C_prefetch_hit 3147329
Core_0_L2C_prefetch_miss 8283450
Core_0_L2C_writebacks 34022
Core_0_L2C_writeback_hit 31474
Core_0_L2C_writeback_miss 2548
Core_0_L2C_prefetch_requested 12739083
Core_0_L2C_prefetch_dropped 0
Core_0_L2C_prefetch_issued 12739083
Core_0_L2C_prefetch_filled 8451569
Core_0_L2C_prefetch_useful 1124542
Core_0_L2C_prefetch_useless 7325234
Core_0_L2C_prefetch_late 90378
Core_0_L2C_average_miss_latency 100.61826

Core_0_L2C_rq_access 8998915
Core_0_L2C_rq_forward 0
Core_0_L2C_rq_merged 0
Core_0_L2C_rq_to_cache 8998914
Core_0_L2C_rq_full 0

Core_0_L2C_wq_access 34022
Core_0_L2C_wq_forward 1
Core_0_L2C_wq_merged 0
Core_0_L2C_wq_to_cache 34022
Core_0_L2C_wq_full 0

Core_0_L2C_pq_access 12739083
Core_0_L2C_pq_forward 0
Core_0_L2C_pq_merged 17001
Core_0_L2C_pq_to_cache 12722082
Core_0_L2C_pq_full 0

Core_0_L2C_acc_epochs 963161
Core_0_L2C_acc_level_0 505253
Core_0_L2C_acc_level_1 378253
Core_0_L2C_acc_level_2 64781
Core_0_L2C_acc_level_3 8287
Core_0_L2C_acc_level_4 918
Core_0_L2C_acc_level_5 322
Core_0_L2C_acc_level_6 45
Core_0_L2C_acc_level_7 30
Core_0_L2C_acc_level_8 123
Core_0_L2C_acc_level_9 5149

Core_0_LLC_total_access 15657094
Core_0_LLC_total_hit 9154624
Core_0_LLC_total_miss 6502470
Core_0_LLC_loads 7243553
Core_0_LLC_load_hit 4533131
Core_0_LLC_load_miss 2710422
Core_0_LLC_RFOs 8734
Core_0_LLC_RFO_hit 0
Core_0_LLC_RFO_miss 8734
Core_0_LLC_prefetches 8373826
Core_0_LLC_prefetch_hit 4609200
Core_0_LLC_prefetch_miss 3764626
Core_0_LLC_writebacks 30981
Core_0_LLC_writeback_hit 12293
Core_0_LLC_writeback_miss 18688
Core_0_LLC_prefetch_requested 0
Core_0_LLC_prefetch_dropped 0
Core_0_LLC_prefetch_issued 0
Core_0_LLC_prefetch_filled 3932748
Core_0_LLC_prefetch_useful 358856
Core_0_LLC_prefetch_useless 3562641
Core_0_LLC_prefetch_late 0
Core_0_LLC_average_miss_latency 170.30616

Core_0_LLC_rq_access 7252287
Core_0_LLC_rq_forward 0
Core_0_LLC_rq_merged 0
Core_0_LLC_rq_to_cache 7252287
Core_0_LLC_rq_full 0

Core_0_LLC_wq_access 30981
Core_0_LLC_wq_forward 0
Core_0_LLC_wq_merged 0
Core_0_LLC_wq_to_cache 30981
Core_0_LLC_wq_full 0

Core_0_LLC_pq_access 8541949
Core_0_LLC_pq_forward 0
Core_0_LLC_pq_merged 0
Core_0_LLC_pq_to_cache 8541949
Core_0_LLC_pq_full 0

Core_0_LLC_acc_epochs 964188
Core_0_LLC_acc_level_0 566132
Core_0_LLC_acc_level_1 214751
Core_0_LLC_acc_level_2 104405
Core_0_LLC_acc_level_3 40453
Core_0_LLC_acc_level_4 9529
Core_0_LLC_acc_level_5 20272
Core_0_LLC_acc_level_6 4123
Core_0_LLC_acc_level_7 1418
Core_0_LLC_acc_level_8 518
Core_0_LLC_acc_level_9 2587

Core_0_major_page_fault 0
Core_0_minor_page_fault 12623

scooby_st_lookup 9160868
scooby_st_hit 3491377
scooby_st_evict 5669427
scooby_st_insert 5669491
scooby_st_streaming 0

scooby_predict_called 9160868
scooby_predict_out_of_bounds 155741
scooby_predict_action_1 8412049
scooby_predict_issue_action_1 8408724
scooby_predict_hit_action_1 3325
scooby_predict_out_of_bounds_action_1 123322
scooby_predict_action_3 12682
scooby_predict_issue_action_3 12522
scooby_predict_hit_action_3 160
scooby_predict_out_of_bounds_action_3 1001
scooby_predict_action_4 11938
scooby_predict_issue_action_4 11784
scooby_predict_hit_action_4 154
scooby_predict_out_of_bounds_action_4 1296
scooby_predict_action_5 11408
scooby_predict_issue_action_5 10932
scooby_predict_hit_action_5 476
scooby_predict_out_of_bounds_action_5 1541
scooby_predict_action_10 9121
scooby_predict_issue_action_10 9002
scooby_predict_hit_action_10 119
scooby_predict_out_of_bounds_action_10 2687
scooby_predict_action_11 8370
scooby_predict_issue_action_11 8069
scooby_predict_hit_action_11 301
scooby_predict_out_of_bounds_action_11 2806
scooby_predict_action_12 8109
scooby_predict_issue_action_12 7917
scooby_predict_hit_action_12 192
scooby_predict_out_of_bounds_action_12 3046
scooby_predict_action_22 5080
scooby_predict_issue_action_22 4747
scooby_predict_hit_action_22 333
scooby_predict_out_of_bounds_action_22 4431
scooby_predict_action_23 5058
scooby_predict_issue_action_23 4644
scooby_predict_hit_action_23 414
scooby_predict_out_of_bounds_action_23 4542
scooby_predict_action_30 3171
scooby_predict_issue_action_30 3153
scooby_predict_hit_action_30 18
scooby_predict_out_of_bounds_action_30 5177
scooby_predict_action_32 3138
scooby_predict_issue_action_32 2843
scooby_predict_hit_action_32 295
scooby_predict_out_of_bounds_action_32 5308
scooby_predict_action_-1 10674
scooby_predict_issue_action_-1 10368
scooby_predict_hit_action_-1 306
scooby_predict_out_of_bounds_action_-1 48
scooby_predict_action_-3 10617
scooby_predict_issue_action_-3 10246
scooby_predict_hit_action_-3 371
scooby_predict_out_of_bounds_action_-3 156
scooby_predict_action_-6 10283
scooby_predict_issue_action_-6 9883
scooby_predict_hit_action_-6 400
scooby_predict_out_of_bounds_action_-6 380
scooby_predict_action_0 483429
scooby_predict_issue_action_0 0
scooby_predict_hit_action_0 0
scooby_predict_out_of_bounds_action_0 0
scooby_predict_multi_deg_called 1288375
scooby_predict_predicted 12739083
scooby_predict_multi_deg 4224249
scooby_predict_multi_deg_2 1258458
scooby_predict_multi_deg_3 878757
scooby_predict_multi_deg_4 859069
scooby_predict_multi_deg_5 621058
scooby_predict_multi_deg_6 606907
scooby_predict_multi_deg_7 0
scooby_predict_multi_deg_8 0
scooby_predict_multi_deg_9 0
scooby_predict_multi_deg_10 0
scooby_predict_multi_deg_11 0
scooby_predict_multi_deg_12 0
scooby_predict_multi_deg_13 0
scooby_predict_multi_deg_14 0
scooby_predict_multi_deg_15 0
scooby_predict_multi_deg_16 0

scooby_selected_deg_1 7226459
scooby_selected_deg_2 369525
scooby_selected_deg_3 0
scooby_selected_deg_4 240711
scooby_selected_deg_5 0
scooby_selected_deg_6 678139
scooby_selected_deg_7 0
scooby_selected_deg_8 0
scooby_selected_deg_9 0
scooby_selected_deg_10 0
scooby_selected_deg_11 0
scooby_selected_deg_12 0
scooby_selected_deg_13 0
scooby_selected_deg_14 0
scooby_selected_deg_15 0
scooby_selected_deg_16 0

scooby_state_55fb304d706a|0|0 128258,40,31,21,24,12,29,33,25,28,22,27,25,35,10336,138946,
scooby_state_55fb304d706a|1|0 119164,30,26,29,23,24,28,22,17,15,31,16,32,17,8937,128411,
scooby_state_55fb304d706a|4|0 119218,25,16,19,17,17,27,22,17,20,21,25,27,24,7527,127022,
scooby_state_55fb304d706a|3|0 112459,25,18,21,28,29,21,30,24,19,14,22,23,17,7671,120421,
scooby_state_55fb304d706a|2|0 105825,28,19,17,16,17,17,26,22,15,20,26,26,21,7809,113904,
scooby_state_55fb304d706a|8|0 103158,17,18,21,15,19,18,17,18,20,13,26,21,23,5744,109148,
scooby_state_55fb304d706a|6|0 102555,21,13,23,20,11,20,22,10,16,11,21,27,20,6256,109046,
scooby_state_55fb304d706a|11|0 102954,20,29,20,23,13,22,13,17,26,20,21,16,18,5234,108446,
scooby_state_55fb304d706a|9|0 101225,16,16,15,14,16,18,22,22,18,16,12,16,21,5633,107080,
scooby_state_55fb304d706a|15|0 99763,12,18,24,13,26,20,11,19,17,12,16,19,18,4323,104311,
scooby_state_55fb304d706a|5|0 96993,23,16,18,17,13,16,22,16,14,11,19,18,22,6094,103312,
scooby_state_55fb304d706a|10|0 97543,18,18,13,26,10,23,20,22,12,14,20,23,14,5237,103013,
scooby_state_55fb304d706a|7|0 96442,20,17,17,17,19,13,17,15,20,24,19,18,18,5719,102395,
scooby_state_55fb304d706a|24|0 97614,23,21,16,15,16,18,22,12,17,17,18,18,21,3544,101392,
scooby_state_55fb304d706a|13|0 95696,17,20,29,17,13,22,17,15,13,13,17,22,22,4527,100460,
scooby_state_55fb304d706a|14|0 94632,23,16,20,17,14,23,21,14,17,15,16,23,22,4494,99367,
scooby_state_55fb304d706a|12|0 92660,9,19,16,14,8,21,18,20,13,18,20,13,15,4775,97639,
scooby_state_55fb304d706a|17|0 92384,12,16,13,19,17,20,23,15,21,15,25,15,20,3953,96568,
scooby_state_55fb304d706a|19|0 92108,13,17,13,14,14,21,15,17,8,14,13,25,13,3646,95951,
scooby_state_55fb304d706a|28|0 90684,17,19,10,15,15,18,14,18,15,21,14,10,12,3080,93962,
scooby_state_55fb304d706a|18|0 89224,18,23,15,17,22,15,17,21,13,16,19,24,21,3777,93242,
scooby_state_55fb304d706a|21|0 89208,22,19,11,18,17,18,14,17,18,24,16,20,20,3488,92930,
scooby_state_55fb304d706a|44|0 89742,24,14,15,19,27,23,14,12,16,20,13,19,15,2563,92536,
scooby_state_55fb304d706a|20|0 87541,17,15,14,16,22,18,24,17,21,17,20,17,24,3572,91355,
scooby_state_55fb304d706a|16|0 85637,21,22,14,11,17,20,21,19,17,10,12,19,19,3724,89583,
scooby_state_55fb304d706a|25|0 86080,18,16,16,11,16,15,22,20,14,17,15,16,27,3158,89461,
scooby_state_55fb304d706a|39|0 85820,18,21,28,16,22,16,18,19,14,9,13,19,16,2539,88588,
scooby_state_55fb304d706a|34|0 85425,17,15,18,20,16,13,16,14,22,15,16,17,11,2677,88312,
scooby_state_55fb304d706a|23|0 83932,22,17,12,12,16,24,13,16,7,14,12,17,21,3116,87251,
scooby_state_55fb304d706a|22|0 83704,14,15,19,14,17,19,25,13,11,10,17,23,21,3208,87130,
scooby_state_55fb304d706a|35|0 83441,19,15,14,13,15,16,17,13,14,16,15,14,15,2582,86219,
scooby_state_55fb304d706a|37|0 82691,18,9,12,14,15,20,24,16,15,9,21,19,11,2662,85556,
scooby_state_55fb304d706a|38|0 81579,23,15,14,11,19,17,11,19,17,10,14,13,12,2645,84419,
scooby_state_55fb304d706a|27|0 81371,12,16,20,19,17,14,16,8,16,15,15,11,11,2826,84387,
scooby_state_55fb304d706a|31|0 79755,16,12,14,14,13,6,8,18,19,8,24,16,21,2680,82624,
scooby_state_55fb304d706a|26|0 78950,16,9,15,9,11,12,21,9,7,10,15,15,15,2959,82073,
scooby_state_55fb304d706a|30|0 78938,20,23,18,14,25,11,8,13,12,13,15,13,9,2755,81887,
scooby_state_55fb304d706a|49|0 79122,18,20,19,13,20,14,8,21,17,20,8,8,11,2194,81513,
scooby_state_55fb304d706a|55|0 76540,18,16,10,13,16,9,20,10,13,8,21,21,15,1980,78710,
scooby_state_55fb304d706a|46|0 76334,17,13,12,12,14,11,14,13,14,9,20,6,11,2024,78524,
scooby_state_55fb304d706a|51|0 76180,15,24,16,14,15,12,12,11,13,16,11,9,12,2057,78417,
scooby_state_55fb304d706a|29|0 74785,19,14,10,17,7,15,12,13,18,15,18,13,11,2588,77555,
scooby_state_55fb304d706a|53|0 75268,19,9,16,13,14,14,10,14,15,8,16,9,8,1980,77413,
scooby_state_55fb304d706a|41|0 73930,10,13,11,9,12,8,11,10,12,11,20,15,15,2086,76173,
scooby_state_55fb304d706a|48|0 73896,11,16,15,17,17,20,9,19,17,15,10,17,6,1884,75969,
scooby_state_55fb304d706a|45|0 73025,7,17,14,18,12,12,17,15,11,9,6,15,18,2028,75224,
scooby_state_55fb304d706a|33|0 72540,12,23,16,15,16,17,18,12,12,11,14,16,18,2303,75043,
scooby_state_55fb304d706a|36|0 72315,15,16,16,18,16,14,13,9,12,9,8,11,13,2226,74711,
scooby_state_55fb304d706a|40|0 72411,17,14,12,15,8,9,14,12,15,9,12,12,10,2036,74606,
scooby_state_55fb304d706a|57|0 72429,19,9,23,19,13,17,7,17,11,9,12,13,13,1732,74343,
scooby_state_55fb304d706a|43|0 71742,10,17,11,12,7,17,16,17,12,11,8,19,13,2091,74003,
scooby_state_55fb304d706a|54|0 71437,13,20,13,19,12,12,9,12,10,20,15,8,11,1825,73436,
scooby_state_55fb304d706a|56|0 71506,18,12,14,15,16,23,18,9,13,10,8,8,9,1749,73428,
scooby_state_55fb304d706a|42|0 70836,8,12,11,8,13,10,12,10,12,8,14,4,14,2042,73014,
scooby_state_55fb304d706a|50|0 70842,11,11,10,14,7,12,11,9,9,16,8,10,10,1783,72763,
scooby_state_55fb304d706a|32|0 69757,14,17,11,12,12,13,8,14,11,16,10,15,10,2286,72206,
scooby_state_55fb304d706a|61|0 68261,11,11,16,10,15,23,17,17,16,11,2,15,10,1692,70127,
scooby_state_55fb304d706a|47|0 66545,9,15,12,16,16,14,15,10,12,11,14,8,14,1923,68634,
scooby_state_55fb304d706a|58|0 65478,12,9,8,15,14,15,7,6,10,11,9,3,8,1642,67247,
scooby_state_55fb304d706a|62|0 65342,10,8,21,18,9,15,13,14,10,10,9,13,12,1582,67086,
scooby_state_55fb304d706a|52|0 64615,8,21,2,10,15,12,14,12,9,11,12,8,11,1724,66484,
scooby_state_55fb304d706a|60|0 61621,11,10,12,12,21,10,13,8,8,14,13,13,4,1568,63338,
scooby_state_55fb304d706a|63|0 61209,9,8,12,13,12,11,12,8,8,9,8,17,13,1504,62853,
scooby_state_55fb304d706a|59|0 58620,10,6,11,13,10,9,12,13,8,15,12,11,11,1446,60207,
scooby_state_55fb304d7060|6|1 8464,1,0,1,3,1,4,0,2,1,0,0,0,1,0,8478,
scooby_state_55fb304d7060|2|1 8466,1,1,0,2,1,1,0,1,0,2,0,0,1,2,8478,
scooby_state_55fb304d7060|0|0 8467,1,3,1,0,0,0,0,0,1,1,0,2,2,0,8478,
scooby_state_55fb304d7060|3|1 8457,1,0,0,5,1,2,0,2,4,2,0,1,2,1,8478,
scooby_state_55fb304d7060|8|1 8462,2,0,2,4,0,1,1,0,1,1,0,2,0,2,8478,
scooby_state_55fb304d7060|4|1 8462,2,0,0,4,2,1,1,1,0,0,2,1,2,0,8478,
scooby_state_55fb304d7060|5|1 8451,2,1,0,5,2,5,1,0,2,1,3,1,2,2,8478,
scooby_state_55fb304d7060|7|1 8460,0,1,3,5,0,1,1,0,0,0,0,3,3,1,8478,
scooby_state_55fb304d7060|1|1 8461,1,2,1,2,0,2,1,1,2,1,2,1,1,0,8478,
scooby_state_55fb304d7060|39|1 8460,0,0,0,2,3,1,1,2,2,1,0,0,2,3,8477,
scooby_state_55fb304d7060|48|1 8455,0,2,2,3,2,2,0,4,1,1,3,1,0,1,8477,
scooby_state_55fb304d7060|32|1 8463,0,1,1,5,0,1,2,1,1,1,0,0,1,0,8477,
scooby_state_55fb304d7060|33|1 8463,3,0,1,2,0,2,0,1,0,3,1,0,0,1,8477,
scooby_state_55fb304d7060|45|1 8457,4,0,0,2,0,2,1,1,1,1,1,2,4,1,8477,
scooby_state_55fb304d7060|42|1 8462,0,0,1,2,1,2,0,1,0,1,2,3,2,0,8477,
scooby_state_55fb304d7060|41|1 8462,2,0,1,2,1,4,2,1,0,0,0,1,0,1,8477,
scooby_state_55fb304d7060|63|1 8460,0,0,1,3,0,1,4,0,2,1,2,1,0,2,8477,
scooby_state_55fb304d7060|37|1 8456,2,1,1,3,2,2,1,0,4,0,2,1,0,2,8477,
scooby_state_55fb304d7060|36|1 8461,1,0,1,2,0,1,1,1,2,0,2,2,2,1,8477,
scooby_state_55fb304d7060|28|1 8457,0,1,0,5,2,1,1,2,1,2,1,2,1,1,8477,
scooby_state_55fb304d7060|56|1 8462,1,3,0,4,1,3,0,0,1,1,0,1,0,0,8477,
scooby_state_55fb304d7060|34|1 8463,3,0,1,2,2,2,0,0,0,1,1,1,0,1,8477,
scooby_state_55fb304d7060|49|1 8461,1,1,1,3,0,3,0,1,0,1,1,1,0,3,8477,
scooby_state_55fb304d7060|13|1 8467,1,2,0,3,0,1,0,0,1,1,0,0,1,0,8477,
scooby_state_55fb304d7060|16|1 8460,1,0,3,4,0,3,0,1,1,2,1,1,0,0,8477,
scooby_state_55fb304d7060|21|1 8459,0,0,2,1,0,1,2,4,0,3,2,1,1,1,8477,
scooby_state_55fb304d7060|47|1 8459,1,0,2,2,3,2,1,1,1,1,2,1,1,0,8477,
scooby_state_55fb304d7060|31|1 8460,0,1,1,4,0,4,2,2,0,0,0,1,2,0,8477,
scooby_state_55fb304d7060|24|1 8461,2,1,2,1,1,2,0,0,2,1,1,2,0,1,8477,
scooby_state_55fb304d7060|62|1 8461,1,0,4,3,0,1,0,1,0,1,0,2,1,2,8477,
scooby_state_55fb304d7060|22|1 8467,0,0,1,1,0,1,0,3,1,1,1,1,0,0,8477,
scooby_state_55fb304d7060|14|1 8454,0,0,2,8,0,1,0,2,0,3,0,2,2,3,8477,
scooby_state_55fb304d7060|11|1 8462,1,0,0,4,2,0,3,1,3,0,0,0,0,1,8477,
scooby_state_55fb304d7060|61|1 8464,1,0,0,3,2,3,0,1,0,0,1,0,1,1,8477,
scooby_state_55fb304d7060|44|1 8461,2,0,0,2,1,2,2,0,1,0,2,1,1,2,8477,
scooby_state_55fb304d7060|27|1 8464,0,1,2,3,0,0,1,1,2,1,0,1,1,0,8477,
scooby_state_55fb304d7060|9|1 8463,1,1,1,2,0,0,1,1,1,1,1,3,1,0,8477,
scooby_state_55fb304d7060|59|1 8461,0,2,1,4,1,2,0,1,1,0,1,0,2,1,8477,
scooby_state_55fb304d7060|38|1 8457,2,2,0,3,1,2,1,3,2,0,1,0,2,1,8477,
scooby_state_55fb304d7060|26|1 8458,1,3,3,1,0,0,2,3,1,0,4,1,0,0,8477,
scooby_state_55fb304d7060|20|1 8463,1,2,1,3,2,1,0,1,0,0,1,1,0,1,8477,
scooby_state_55fb304d7060|50|1 8466,0,0,0,2,0,4,0,2,1,0,0,0,1,1,8477,
scooby_state_55fb304d7060|43|1 8463,1,0,0,3,0,2,0,0,1,2,0,1,3,1,8477,
scooby_state_55fb304d7060|19|1 8458,1,0,0,4,1,2,0,1,3,1,3,3,0,0,8477,
scooby_state_55fb304d7060|17|1 8465,1,0,1,2,0,2,0,2,1,0,1,1,1,0,8477,
scooby_state_55fb304d7060|12|1 8466,1,1,1,2,1,1,0,0,1,0,0,0,0,3,8477,
scooby_state_55fb304d7060|40|1 8455,1,3,2,3,3,1,0,1,1,1,3,1,0,2,8477,
scooby_state_55fb304d7060|51|1 8457,0,0,0,6,2,5,0,2,1,3,0,0,0,1,8477,
scooby_state_55fb304d7060|58|1 8458,1,0,0,2,4,1,1,1,1,3,0,3,2,0,8477,
scooby_state_55fb304d7060|29|1 8462,2,2,0,2,1,0,1,2,1,1,0,1,1,1,8477,
scooby_state_55fb304d7060|46|1 8455,2,1,0,4,1,3,0,1,2,2,0,1,3,2,8477,
scooby_state_55fb304d7060|54|1 8456,1,1,1,2,2,2,3,2,2,2,0,2,0,1,8477,
scooby_state_55fb304d7060|10|1 8466,1,0,1,2,0,1,1,2,0,2,0,0,0,1,8477,
scooby_state_55fb304d7060|35|1 8463,0,1,0,3,1,3,1,1,0,2,0,0,1,1,8477,
scooby_state_55fb304d7060|55|1 8451,1,2,0,3,1,6,3,0,2,0,2,0,2,4,8477,
scooby_state_55fb304d7060|18|1 8455,0,0,0,7,1,1,4,1,0,1,1,3,1,2,8477,
scooby_state_55fb304d7060|52|1 8463,3,0,1,3,1,1,1,1,1,0,1,0,1,0,8477,
scooby_state_55fb304d7060|53|1 8454,2,2,2,3,0,2,2,0,2,2,0,2,1,3,8477,
scooby_state_55fb304d7060|57|1 8464,0,2,1,2,0,1,1,0,2,0,0,2,1,1,8477,
scooby_state_55fb304d7060|30|1 8463,2,0,3,3,1,1,1,0,1,0,1,0,0,1,8477,
scooby_state_55fb304d7060|23|1 8467,1,0,1,1,0,1,0,0,1,0,1,3,0,1,8477,
scooby_state_55fb304d7060|25|1 8465,1,1,1,1,0,1,1,0,3,1,0,0,1,1,8477,
scooby_state_55fb304d7060|15|1 8458,0,0,1,5,1,3,4,2,0,1,0,1,1,0,8477,
scooby_state_55fb304d7060|60|1 8462,1,1,0,2,2,2,1,2,0,2,2,0,0,0,8477,
scooby_state_55fb304d706a|3|1 3592,11,8,13,14,9,3,7,5,6,6,5,9,6,746,4440,
scooby_state_55fb304d706a|54|1 3488,13,13,6,12,12,11,7,10,5,8,5,3,6,671,4270,
scooby_state_55fb304d706a|45|1 3556,11,12,12,11,2,8,2,4,8,3,4,6,7,591,4237,
scooby_state_55fb304d706a|56|1 3458,11,10,9,7,10,10,6,3,3,5,5,5,5,668,4215,
scooby_state_55fb304d706a|38|1 3547,12,11,6,8,10,4,4,13,2,4,5,7,8,534,4175,
scooby_state_55fb304d7075|4|0 3537,43,46,39,42,40,41,46,42,45,46,40,44,30,61,4142,
scooby_state_55fb304d706a|25|1 3557,8,9,7,5,6,2,9,6,0,4,7,4,4,462,4090,
scooby_state_55fb304d706a|53|1 3281,12,11,10,13,9,5,10,8,8,2,3,3,8,703,4086,
scooby_state_55fb304d706a|9|1 3408,8,8,5,12,6,4,6,5,1,3,6,3,8,554,4037,
scooby_state_55fb304d706a|55|1 3290,14,9,8,7,13,7,6,10,5,5,0,6,9,636,4025,
scooby_state_55fb304d706a|58|1 3299,14,10,15,4,8,4,8,8,3,6,12,5,2,621,4019,
scooby_state_55fb304d706a|28|1 3418,8,7,13,6,5,6,3,6,3,4,8,2,2,522,4013,
scooby_state_55fb304d706a|50|1 3234,13,8,9,8,8,8,8,6,3,5,11,5,5,644,3975,
scooby_state_55fb304d706a|49|1 3275,17,13,11,8,10,6,3,9,2,3,4,7,5,596,3969,
scooby_state_55fb304d706a|13|1 3350,11,9,7,6,6,4,4,8,3,7,8,1,8,527,3959,
scooby_state_55fb304d706a|46|1 3328,15,4,6,8,1,7,7,3,4,2,5,4,5,539,3938,
scooby_state_55fb304d706a|19|1 3371,10,14,7,6,7,7,6,8,4,3,4,5,7,472,3931,
scooby_state_55fb304d706a|3|3 3297,11,15,11,8,12,8,9,5,8,6,9,7,6,517,3929,
scooby_state_55fb304d706a|39|1 3273,13,14,10,11,4,3,7,6,4,2,5,7,11,550,3920,
scooby_state_55fb304d706a|18|1 3326,8,11,10,12,4,4,6,4,4,4,7,7,3,498,3908,
scooby_state_55fb304d706a|51|1 3145,11,7,12,11,5,6,4,6,4,6,11,7,9,636,3880,
scooby_state_55fb304d706a|14|1 3255,7,4,6,8,5,4,10,5,2,7,4,8,12,530,3867,
scooby_state_55fb304d706a|24|1 3314,14,8,12,7,3,9,8,3,4,5,2,4,5,465,3863,
scooby_state_55fb304d706a|22|1 3322,8,16,5,12,5,3,2,5,4,3,8,6,3,458,3860,
scooby_state_55fb304d706a|40|1 3230,18,6,10,2,4,5,6,4,7,3,7,3,5,540,3850,
scooby_state_55fb304d706a|44|1 3227,8,7,8,6,10,5,1,5,6,4,2,4,5,550,3848,
scooby_state_55fb304d706a|16|1 3266,11,8,7,10,7,5,2,5,0,4,2,5,5,505,3842,
scooby_state_55fb304d706a|36|2 3279,12,9,4,11,1,5,3,3,4,5,9,3,1,483,3832,
scooby_state_55fb304d706a|62|1 3040,7,15,9,4,9,4,6,8,5,2,5,11,6,696,3827,
scooby_state_55fb304d706a|6|1 3163,14,8,10,6,4,7,5,3,5,4,5,9,6,568,3817,
scooby_state_55fb304d706a|42|1 3249,12,3,13,5,3,6,3,9,5,1,4,6,6,482,3807,
scooby_state_55fb304d706a|17|1 3215,13,7,11,6,6,6,3,7,2,3,6,5,5,505,3800,
scooby_state_55fb304d706a|41|2 3174,9,12,8,8,5,3,5,7,6,7,8,5,4,536,3797,
scooby_state_55fb304d706a|4|1 3112,14,10,6,4,1,8,4,5,4,3,5,8,5,600,3789,
scooby_state_55fb304d706a|15|1 3194,14,10,6,9,4,2,6,7,2,5,4,6,4,505,3778,
scooby_state_55fb304d706a|21|1 3224,7,13,9,3,5,3,1,3,3,4,4,2,6,470,3757,
scooby_state_55fb304d706a|41|1 3142,20,11,5,5,5,6,2,5,4,2,11,9,3,513,3743,
scooby_state_55fb304d706a|8|2 3073,11,5,12,6,11,12,6,5,5,3,4,7,6,571,3737,
scooby_state_55fb304d706a|49|2 3042,13,12,9,10,9,6,8,6,5,2,7,13,7,585,3734,
scooby_state_55fb304d706a|37|2 3108,7,4,9,3,6,10,7,2,2,3,8,10,4,535,3718,
scooby_state_55fb304d706a|55|2 2910,15,9,5,8,5,5,7,10,5,5,10,7,7,688,3696,
scooby_state_55fb304d706a|35|1 3172,10,10,5,8,5,7,6,7,5,3,6,5,7,427,3683,
scooby_state_55fb304d706a|53|2 2982,12,8,7,14,6,5,1,4,5,5,7,5,6,613,3680,
scooby_state_55fb304d706a|23|2 3163,9,5,9,3,4,3,5,3,4,1,4,7,3,457,3680,
scooby_state_55fb304d706a|2|1 2966,12,7,14,8,4,3,4,8,6,7,4,8,7,612,3670,
scooby_state_55fb304d706a|47|1 3049,15,9,8,6,4,7,4,11,2,0,9,1,3,534,3662,
scooby_state_55fb304d706a|52|1 2956,14,8,9,9,5,6,13,4,2,6,8,11,6,584,3641,
scooby_state_55fb304d706a|57|2 2990,5,10,10,8,4,11,6,8,6,2,7,4,6,553,3630,
scooby_state_55fb304d706a|8|1 3012,7,8,13,13,4,5,2,3,5,3,3,7,5,523,3613,
scooby_state_55fb304d706a|1|1 2999,7,7,5,4,6,4,4,6,6,7,1,6,3,545,3610,
scooby_state_55fb304d706a|37|1 3046,10,4,11,6,4,4,5,7,1,4,7,4,6,486,3605,
scooby_state_55fb304d706a|7|1 2993,6,6,14,12,9,5,7,7,2,5,1,3,6,527,3603,
scooby_state_55fb304d706a|30|2 3095,14,9,7,3,7,2,3,6,2,2,4,6,7,434,3601,
scooby_state_55fb304d706a|11|1 3040,6,5,7,4,5,6,3,6,5,4,3,5,4,492,3595,
scooby_state_55fb304d706a|31|1 3046,11,10,5,8,7,1,3,6,3,3,8,6,3,458,3578,
scooby_state_55fb304d706a|12|1 3013,10,11,8,2,5,9,3,8,2,9,3,6,5,473,3567,
scooby_state_55fb304d706a|20|1 2997,10,13,6,9,8,6,5,6,1,4,8,5,4,479,3561,
scooby_state_55fb304d706a|46|2 2974,13,10,14,4,6,5,2,7,5,1,5,5,3,494,3548,
scooby_state_55fb304d706a|43|1 2984,5,14,10,6,0,2,5,4,6,5,0,3,9,485,3538,
scooby_state_55fb304d706a|56|3 2866,8,7,12,12,10,5,12,3,5,10,4,4,11,541,3510,
scooby_state_55fb304d706a|34|1 2983,6,6,10,8,8,5,2,7,4,5,6,5,6,445,3506,
scooby_state_55fb304d706a|5|1 2882,10,6,10,3,2,5,6,6,6,2,3,4,5,548,3498,
scooby_state_55fb304d706a|24|2 2956,9,7,10,4,6,7,5,9,5,2,6,3,2,466,3497,
scooby_state_55fb304d706a|30|1 2950,12,7,7,7,10,5,2,6,4,9,3,6,4,463,3495,
scooby_state_55fb304d706a|61|1 2762,14,7,12,8,5,8,3,11,5,4,9,7,4,635,3494,
scooby_state_55fb304d7093|31|0 3045,29,31,32,31,31,31,30,30,30,30,32,32,30,41,3485,
scooby_state_55fb304d706a|59|1 2831,8,12,11,6,5,10,5,12,4,6,9,4,5,556,3484,
scooby_state_55fb304d706a|10|1 2911,6,5,11,9,7,4,2,5,2,6,5,6,3,500,3482,
scooby_state_55fb304d706a|29|1 2946,7,10,14,11,3,9,1,3,6,2,4,3,10,447,3476,
scooby_state_55fb304d706a|26|1 2964,11,8,14,4,7,6,5,7,4,6,5,5,3,420,3469,
scooby_state_55fb304d706a|44|7 2995,7,12,6,9,3,10,13,7,6,8,7,14,8,359,3464,
scooby_state_55fb304d706a|51|2 2869,10,12,15,10,3,5,7,6,4,4,6,5,4,503,3463,
scooby_state_55fb304d706a|39|2 2895,5,8,9,4,5,13,6,6,3,4,2,2,5,481,3448,
scooby_state_55fb304d706a|57|1 2772,12,8,8,7,6,5,9,3,5,2,5,6,5,592,3445,
scooby_state_55fb304d706a|36|1 2946,6,5,13,4,4,7,3,8,3,6,2,5,4,427,3443,
scooby_state_55fb304d706a|23|1 2955,6,11,10,8,4,1,2,7,2,1,3,7,5,410,3432,
scooby_state_55fb304d706a|43|4 2841,10,5,12,10,3,11,5,9,5,6,8,9,9,483,3426,
scooby_state_55fb304d706a|21|2 2917,3,5,8,5,3,6,7,3,4,1,9,5,2,443,3421,
scooby_state_55fb304d706a|6|3 2802,4,16,6,16,8,9,6,5,4,7,5,7,13,511,3419,
scooby_state_55fb304d706a|44|2 2856,2,9,10,7,6,5,3,2,5,2,7,1,4,500,3419,
scooby_state_55fb304d706a|17|2 2879,9,10,10,7,6,6,2,7,4,2,5,5,4,454,3410,
scooby_state_55fb304d706a|15|2 2855,5,7,9,2,2,5,8,2,2,2,6,5,2,475,3387,
scooby_state_55fb304d706a|47|3 2818,7,10,15,8,6,9,3,3,2,2,7,4,4,487,3385,
scooby_state_55fb304d706a|52|2 2780,10,9,9,5,7,5,8,5,5,6,6,2,2,516,3375,
scooby_state_55fb304d706a|2|2 2723,8,9,11,3,5,7,4,6,4,3,3,4,5,574,3369,
scooby_state_55fb304d706a|48|1 2756,9,4,10,6,8,5,2,6,8,5,6,4,5,528,3362,
scooby_state_55fb304d706a|32|1 2844,9,9,7,6,8,4,3,9,7,2,5,5,5,435,3358,
scooby_state_55fb304d706a|63|1 2726,14,5,11,14,4,4,3,8,5,4,8,3,4,543,3356,
scooby_state_55fb304d706a|59|2 2717,7,10,4,3,8,6,9,7,5,4,4,5,4,549,3342,
scooby_state_55fb304d706a|21|3 2834,10,8,8,9,9,7,3,6,4,4,6,2,4,416,3330,
scooby_state_55fb304d706a|42|2 2760,5,11,9,8,6,4,4,8,4,0,3,4,6,488,3320,
scooby_state_55fb304d706a|40|2 2779,6,9,7,6,3,6,7,6,3,2,9,3,2,472,3320,
scooby_state_55fb304d706a|40|3 2739,13,9,11,9,6,9,8,10,6,8,7,8,11,449,3303,
scooby_state_55fb304d706a|11|2 2684,5,11,3,5,9,6,5,4,4,5,6,9,4,505,3265,
scooby_state_55fb304d706a|58|2 2637,7,14,9,5,5,10,6,5,2,1,5,6,6,527,3245,
scooby_state_55fb304d706a|41|4 2702,12,10,8,8,3,7,6,0,4,7,4,7,7,459,3244,
scooby_state_55fb304d706a|19|2 2717,11,3,6,8,5,6,6,5,3,3,11,4,6,426,3220,
scooby_state_55fb304d706a|26|2 2713,9,8,10,8,2,3,5,2,5,2,5,5,6,432,3215,
scooby_state_55fb304d706a|46|3 2647,11,12,8,18,7,6,3,5,5,5,5,7,8,466,3213,
scooby_state_55fb304d706a|27|1 2710,6,7,9,10,8,5,3,4,5,6,5,2,2,429,3211,
scooby_state_55fb304d706a|22|3 2673,9,6,6,11,9,10,3,7,5,7,9,8,5,433,3201,
scooby_state_55fb304d706a|55|4 2645,13,5,7,9,7,10,4,5,6,4,5,9,4,464,3197,
scooby_state_55fb304d706a|4|2 2620,6,12,6,7,4,5,2,2,3,4,6,4,4,509,3194,
scooby_state_55fb304d706a|50|2 2629,9,10,6,5,5,3,5,6,2,6,7,7,2,492,3194,
scooby_state_55fb304d706a|58|3 2584,12,12,7,10,9,14,11,3,2,5,9,10,9,476,3173,
scooby_state_55fb304d706a|25|2 2701,7,6,6,3,2,9,6,5,4,4,1,3,2,414,3173,
scooby_state_55fb304d706a|22|2 2690,12,7,5,6,6,4,2,5,4,2,10,1,4,410,3168,
scooby_state_55fb304d706a|38|3 2658,10,8,6,20,6,8,4,6,1,6,5,7,11,411,3167,
scooby_state_55fb304d706a|28|3 2684,9,7,6,10,6,3,3,5,11,2,5,3,5,406,3165,
scooby_state_55fb304d706a|42|4 2636,11,2,14,9,6,5,13,3,4,4,6,7,1,430,3151,
scooby_state_55fb304d706a|33|2 2667,13,9,5,4,9,5,5,3,2,3,7,4,1,414,3151,
scooby_state_55fb304d706a|62|2 2511,9,9,6,12,8,7,5,2,4,5,7,5,1,558,3149,
scooby_state_55fb304d706a|20|2 2681,7,4,3,4,4,6,6,4,5,4,8,2,7,394,3139,
scooby_state_55fb304d706a|63|2 2510,8,11,7,2,7,5,5,7,2,3,7,3,4,558,3139,
scooby_state_55fb304d706a|28|2 2629,6,2,7,4,6,6,5,5,6,1,8,7,5,436,3133,
scooby_state_55fb304d706a|27|3 2591,9,9,6,13,7,6,7,8,5,4,8,6,3,450,3132,
scooby_state_55fb304d706a|10|2 2615,9,10,4,6,4,4,9,8,2,2,6,2,6,443,3130,
scooby_state_55fb304d706a|47|2 2609,10,8,10,6,7,5,3,2,3,2,5,3,6,444,3123,
scooby_state_55fb304d706a|13|2 2568,6,11,8,5,9,8,4,4,3,4,5,7,4,467,3113,
scooby_state_55fb304d706a|33|1 2652,6,9,8,5,6,4,2,5,8,5,5,2,3,393,3113,
scooby_state_55fb304d706a|35|2 2618,10,7,13,2,4,9,7,3,3,5,5,7,2,415,3110,
scooby_state_55fb304d706a|56|7 2672,9,18,7,8,10,3,4,4,4,2,8,7,10,343,3109,
scooby_state_55fb304d706a|56|2 2483,8,13,8,10,5,11,2,6,7,5,4,6,4,525,3097,
scooby_state_55fb304d706a|18|2 2611,7,7,3,2,3,6,4,4,3,5,6,6,4,421,3092,
scooby_state_55fb304d706a|45|2 2550,11,8,10,3,3,7,4,4,2,3,2,7,2,475,3091,
scooby_state_55fb304d706a|14|3 2533,8,13,6,8,5,5,6,7,5,8,2,6,4,468,3084,
scooby_state_55fb304d706a|49|3 2578,5,6,14,20,4,9,6,4,9,2,10,2,3,412,3084,
scooby_state_55fb304d706a|3|2 2528,5,9,2,3,8,4,4,6,5,4,4,5,5,482,3074,
scooby_state_55fb304d706a|12|3 2552,6,6,10,8,3,6,6,4,3,3,7,7,2,448,3071,
scooby_state_55fb304d706a|43|2 2585,11,9,4,8,6,3,3,7,2,2,2,5,2,418,3067,
scooby_state_55fb304d706a|34|2 2607,9,6,8,11,5,5,4,4,6,4,5,3,3,376,3056,
scooby_state_55fb304d706a|9|2 2546,4,9,8,3,5,2,7,4,3,7,6,3,5,437,3049,
scooby_state_55fb304d706a|28|4 2577,10,7,4,8,10,7,5,8,11,5,0,7,3,387,3049,
scooby_state_55fb304d706a|6|2 2523,3,8,7,8,5,4,6,4,2,2,7,6,4,460,3049,
scooby_state_55fb304d706a|48|2 2500,8,9,7,6,2,6,4,2,3,3,8,5,6,479,3048,
scooby_state_55fb304d706a|57|3 2474,12,11,5,8,7,4,4,4,6,6,5,1,9,490,3046,
scooby_state_55fb304d706a|19|3 2594,14,7,14,11,5,9,5,6,2,2,6,8,4,356,3043,
scooby_state_55fb304d706a|24|4 2603,13,12,8,6,6,5,8,2,6,2,3,10,2,357,3043,
scooby_state_55fb304d706a|23|3 2574,2,11,10,12,7,7,4,6,4,5,3,4,7,381,3037,
scooby_state_55fb304d706a|28|5 2647,19,2,7,5,9,6,8,7,5,0,8,6,2,304,3035,
scooby_state_55fb304d706a|53|3 2466,17,3,9,8,7,7,7,11,2,4,7,5,7,471,3031,
scooby_state_55fb304d706a|45|6 2592,9,4,11,7,11,8,6,4,3,3,9,7,9,345,3028,
scooby_state_55fb304d706a|15|3 2512,10,11,7,10,2,7,9,0,8,1,5,2,10,427,3021,
scooby_state_55fb304d706a|4|4 2465,13,9,5,7,7,6,6,5,5,7,5,7,9,447,3003,
scooby_state_55fb304d706a|54|2 2466,8,11,12,7,4,1,7,4,4,4,5,3,4,462,3002,
scooby_state_55fb304d706a|43|3 2503,6,10,13,16,5,7,6,5,2,0,4,4,4,412,2997,
scooby_state_55fb304d706a|48|3 2442,12,7,8,12,11,8,5,7,7,5,6,8,5,453,2996,
scooby_state_55fb304d706a|58|4 2450,15,8,6,5,4,5,4,2,3,1,8,11,7,461,2990,
scooby_state_55fb304d706a|27|2 2537,11,6,5,5,6,4,2,3,4,3,7,8,4,371,2976,
scooby_state_55fb304d706a|5|2 2464,9,11,7,4,5,5,3,2,3,1,4,3,6,447,2974,
scooby_state_55fb304d706a|31|2 2471,11,7,3,6,6,8,5,1,5,3,2,2,5,432,2967,
scooby_state_55fb304d706a|51|3 2419,5,5,7,5,3,7,3,7,9,7,3,8,5,471,2964,
scooby_state_55fb304d706a|24|5 2542,16,14,7,4,7,6,5,2,8,0,6,6,5,329,2957,
scooby_state_55fb304d706a|60|2 2365,13,10,10,9,3,4,1,4,4,1,4,6,5,516,2955,
scooby_state_55fb304d706a|54|3 2392,7,7,13,7,10,11,4,4,3,5,4,6,8,467,2948,
scooby_state_55fb304d706a|11|4 2473,9,7,8,8,6,8,1,6,6,2,5,5,7,394,2945,
scooby_state_55fb304d706a|37|3 2481,12,13,7,17,3,4,5,4,1,7,12,6,6,366,2944,
scooby_state_55fb304d706a|7|3 2404,10,7,11,13,11,11,4,9,7,1,6,2,7,434,2937,
scooby_state_55fb304d706a|16|2 2511,7,6,6,2,3,7,0,2,4,4,4,4,4,365,2929,
scooby_state_55fb304d706a|13|3 2470,7,3,7,9,3,4,6,3,5,2,6,3,3,395,2926,
scooby_state_55fb304d706a|57|4 2372,13,3,7,6,7,8,4,4,10,3,8,7,3,471,2926,
scooby_state_55fb304d706a|25|3 2462,14,7,11,7,6,4,5,8,2,1,12,2,4,374,2919,
scooby_state_55fb304d706a|24|3 2464,4,9,6,7,8,6,5,6,4,2,12,2,10,365,2910,
scooby_state_55fb304d706a|60|4 2318,19,8,18,8,10,13,9,7,5,4,3,10,5,469,2906,
scooby_state_55fb304d706a|44|3 2407,8,7,5,14,9,9,2,5,2,2,5,10,4,415,2904,
scooby_state_55fb304d706a|60|1 2323,6,7,8,5,4,6,5,2,3,3,10,3,4,515,2904,
scooby_state_55fb304d706a|11|3 2398,5,8,9,9,4,7,8,9,5,6,5,6,4,419,2902,
scooby_state_55fb304d706a|8|4 2430,9,8,5,7,4,5,4,5,4,8,4,5,11,393,2902,
scooby_state_55fb304d706a|9|3 2440,4,6,7,14,7,5,6,3,5,2,8,3,4,385,2899,
scooby_state_55fb304d706a|38|2 2423,8,16,5,4,7,1,5,5,3,4,5,4,2,399,2891,
scooby_state_55fb304d706a|38|4 2428,12,7,9,12,3,8,2,6,3,3,5,13,3,361,2875,
scooby_state_55fb304d706a|53|4 2341,17,8,8,6,8,7,6,7,5,2,7,9,4,436,2871,
scooby_state_55fb304d706a|42|3 2386,6,5,9,13,9,3,7,5,2,3,6,8,5,400,2867,
scooby_state_55fb304d706a|50|3 2363,9,13,6,15,8,4,4,4,7,2,7,5,3,416,2866,
scooby_state_55fb304d706a|18|3 2396,9,7,11,6,7,5,6,5,7,3,3,5,4,390,2864,
scooby_state_55fb304d706a|12|2 2397,5,9,7,3,5,5,8,2,3,3,2,7,5,402,2863,
scooby_state_55fb304d706a|33|3 2357,11,8,6,15,8,4,4,4,5,6,7,5,7,402,2849,
scooby_state_55fb304d706a|14|2 2372,8,11,4,1,5,3,7,3,1,3,7,4,6,409,2844,
scooby_state_55fb304d706a|39|4 2356,11,7,13,8,6,6,5,5,3,3,4,8,6,402,2843,
scooby_state_55fb304d706a|34|4 2396,13,8,6,6,4,4,8,6,4,7,8,8,2,356,2836,
scooby_state_55fb304d706a|48|4 2321,9,8,8,9,9,8,4,2,4,8,9,5,6,417,2827,
scooby_state_55fb304d706a|29|2 2369,8,9,5,3,7,5,5,4,4,2,6,5,6,388,2826,
scooby_state_55fb304d706a|61|2 2231,6,6,6,7,10,5,7,6,4,4,7,7,3,505,2814,
scooby_state_55fb304d706a|17|3 2338,4,5,8,7,6,5,8,2,4,4,6,6,12,397,2812,
scooby_state_55fb304d706a|50|4 2324,12,4,9,6,6,6,2,8,7,5,5,9,7,401,2811,
scooby_state_55fb304d706a|7|2 2308,8,4,8,3,4,4,2,3,3,2,6,2,4,450,2811,
scooby_state_55fb304d706a|16|3 2356,12,5,9,10,4,10,7,3,4,6,6,4,4,368,2808,
scooby_state_55fb304d706a|14|5 2355,14,8,15,5,8,6,3,2,4,10,3,9,8,348,2798,
scooby_state_55fb304d706a|9|5 2290,19,12,16,6,10,1,8,4,3,6,2,13,0,404,2794,
scooby_state_55fb304d706a|19|4 2399,5,5,4,10,10,5,4,2,3,1,8,7,5,321,2789,
scooby_state_55fb304d706a|61|3 2176,8,9,15,17,8,7,1,7,8,4,7,4,4,513,2788,
scooby_state_55fb304d706a|55|3 2237,6,5,8,13,4,9,7,7,1,8,5,3,3,457,2773,
scooby_state_55fb304d706a|26|3 2325,10,5,4,17,6,7,3,6,7,3,6,3,5,365,2772,
scooby_state_55fb304d706a|44|5 2326,16,5,8,6,11,7,7,6,6,5,6,3,4,355,2771,
scooby_state_55fb304d706a|45|3 2311,2,6,8,9,8,4,1,2,6,3,6,0,2,398,2766,
scooby_state_55fb304d706a|20|3 2327,10,3,13,8,2,9,9,1,5,3,13,3,4,355,2765,
scooby_state_55fb304d706a|52|3 2251,7,10,13,17,6,8,8,4,10,2,8,5,2,404,2755,
scooby_state_55fb304d706a|44|4 2319,13,7,8,4,1,3,4,3,4,2,4,5,4,372,2753,
scooby_state_55fb304d706a|31|3 2334,10,6,7,7,5,6,4,6,3,4,4,5,4,346,2751,
scooby_state_55fb304d706a|35|5 2320,14,12,12,6,10,4,7,1,5,5,3,3,6,339,2747,
scooby_state_55fb304d706a|39|3 2263,8,11,10,9,7,11,3,3,3,4,3,5,4,400,2744,
scooby_state_55fb304d706a|33|5 2292,12,10,8,7,6,10,4,4,6,5,6,6,7,360,2743,
scooby_state_55fb304d706a|60|3 2205,8,11,8,13,7,7,5,6,6,5,1,2,3,452,2739,
scooby_state_55fb304d706a|41|3 2285,8,5,6,7,4,4,1,5,4,2,5,5,5,387,2733,
scooby_state_55fb304d706a|45|4 2283,10,6,6,6,7,7,3,1,3,3,2,10,5,374,2726,
scooby_state_55fb304d706a|21|4 2268,14,10,5,7,9,9,4,5,2,3,4,11,5,363,2719,
scooby_state_55fb304d706a|15|4 2228,13,6,6,11,2,7,4,3,4,3,11,11,5,396,2710,
scooby_state_55fb304d706a|63|3 2150,8,11,11,9,7,6,4,4,4,4,2,9,11,466,2706,
scooby_state_55fb304d706a|40|4 2306,12,7,6,3,4,6,4,3,4,3,3,11,2,328,2702,
scooby_state_55fb304d706a|29|4 2296,10,9,9,7,6,9,3,7,3,3,8,4,9,317,2700,
scooby_state_55fb304d706a|51|6 2222,12,9,14,5,7,12,5,8,5,6,4,6,6,363,2684,
scooby_state_55fb304d706a|32|2 2292,5,9,9,3,3,6,3,3,2,1,4,3,5,330,2678,
scooby_state_55fb304d706a|26|4 2280,9,2,8,8,7,6,3,1,4,2,3,7,1,336,2677,
scooby_state_55fb304d706a|53|7 2264,7,7,5,7,4,7,3,6,2,5,5,6,7,341,2676,
scooby_state_55fb304d706a|12|4 2213,11,7,3,4,5,6,3,9,5,5,5,6,4,387,2673,
scooby_state_55fb304d706a|17|4 2191,11,5,8,7,7,5,9,2,4,5,7,11,6,389,2667,
scooby_state_55fb304d706a|35|3 2217,9,9,3,13,8,4,4,8,4,5,8,10,9,346,2657,
scooby_state_55fb304d706a|4|3 2165,10,11,10,13,10,2,3,2,4,2,6,6,2,411,2657,
scooby_state_55fb304d706a|61|4 2099,14,7,10,9,6,7,5,11,3,4,6,7,6,459,2653,
scooby_state_55fb304d706a|49|4 2134,10,5,7,7,7,6,6,3,4,4,5,9,6,417,2630,
scooby_state_55fb304d706a|56|5 2157,25,10,10,9,4,12,4,5,5,3,6,5,7,368,2630,
scooby_state_55fb304d706a|5|3 2149,7,8,5,12,5,3,6,3,8,1,7,1,5,409,2629,
scooby_state_55fb304d706a|13|4 2209,12,5,10,8,7,0,6,5,6,4,3,3,3,347,2628,
scooby_state_55fb304d706a|50|6 2224,11,10,11,6,4,8,3,5,5,6,3,5,7,318,2626,
scooby_state_55fb304d706a|46|4 2187,12,6,7,6,8,6,6,2,3,3,4,5,9,354,2618,
scooby_state_55fb304d706a|49|5 2142,15,7,12,7,9,5,5,7,5,4,8,3,11,373,2613,
scooby_state_55fb304d706a|34|3 2195,7,9,7,10,5,3,4,7,4,4,7,5,9,335,2611,
scooby_state_55fb304d706a|29|3 2186,5,9,11,11,4,5,3,7,4,3,4,2,8,348,2610,
scooby_state_55fb304d706a|59|3 2120,3,5,8,7,6,4,7,3,9,8,8,3,2,406,2599,
scooby_state_55fb304d706a|53|5 2143,9,8,17,12,13,9,7,3,3,4,4,1,8,358,2599,
scooby_state_55fb304d706a|51|4 2149,13,9,7,9,9,2,5,4,0,4,6,9,3,366,2595,
scooby_state_55fb304d706a|36|3 2191,6,8,5,7,7,4,5,2,3,4,5,2,8,336,2593,
scooby_state_55fb304d706a|58|5 2089,16,9,6,12,9,14,4,10,4,7,9,8,8,383,2588,
scooby_state_55fb304d706a|56|4 2040,11,4,9,7,3,11,7,2,4,9,9,7,9,446,2578,
scooby_state_55fb304d706a|31|7 2231,8,9,11,6,5,9,3,6,7,5,4,4,3,253,2564,
scooby_state_55fb304d706a|32|3 2154,11,6,7,9,4,8,0,7,4,6,6,5,5,327,2559,
scooby_state_55fb304d706a|23|5 2169,7,9,11,4,7,6,1,3,5,4,7,8,5,303,2549,
scooby_state_55fb304d706a|6|4 2106,11,2,4,11,7,6,8,5,6,3,7,7,5,360,2548,
scooby_state_55fb304d706a|23|4 2152,11,4,6,5,6,6,2,2,5,3,7,4,4,320,2537,
scooby_state_55fb304d706a|5|5 2071,10,5,12,6,2,4,7,5,7,5,7,7,9,377,2534,
scooby_state_55fb304d706a|62|5 2075,15,9,11,7,6,9,1,11,6,6,3,4,3,367,2533,
scooby_state_55fb304d706a|62|4 2031,18,10,9,8,14,9,3,2,7,4,3,4,4,405,2531,
scooby_state_55fb304d706a|51|5 2095,11,8,5,3,10,7,10,4,0,2,5,9,5,353,2527,
scooby_state_55fb304d706a|50|5 2087,14,11,11,7,5,1,3,6,4,6,7,8,6,351,2527,
scooby_state_55fb304d706a|8|5 2072,14,10,13,9,5,5,4,3,3,3,9,5,9,361,2525,
scooby_state_55fb304d706a|22|4 2129,12,4,3,6,7,7,5,4,1,3,4,8,4,327,2524,
scooby_state_55fb304d706a|54|4 2012,15,11,13,3,1,7,5,1,4,6,3,7,3,432,2523,
scooby_state_55fb304d706a|37|6 2100,7,14,9,8,4,5,7,7,3,3,6,4,7,338,2522,
scooby_state_55fb304d706a|54|6 2116,5,10,8,5,9,11,9,8,4,6,9,5,4,311,2520,
scooby_state_55fb304d706a|5|4 2071,13,4,5,8,8,9,4,3,3,5,7,3,5,371,2519,
scooby_state_55fb304d706a|13|5 2064,14,13,7,9,11,5,3,6,8,5,8,3,4,352,2512,
scooby_state_55fb304d706a|35|4 2118,16,3,4,13,4,5,3,3,1,4,6,7,6,318,2511,
scooby_state_55fb304d706a|10|4 2102,6,11,3,6,3,3,3,2,2,4,6,2,5,352,2510,
scooby_state_55fb304d706a|59|4 2028,12,5,11,9,4,10,2,5,9,2,3,5,7,397,2509,
scooby_state_55fb304d706a|36|5 2104,7,8,8,7,6,7,4,6,7,4,8,6,6,315,2503,
scooby_state_55fb304d706a|30|4 2105,14,4,7,8,4,4,3,4,2,3,3,11,9,319,2500,
scooby_state_55fb304d706a|57|6 2030,9,9,10,9,10,7,9,5,6,8,2,6,11,366,2497,
scooby_state_55fb304d706a|27|4 2124,9,7,4,9,7,1,5,7,3,4,4,4,4,303,2495,
scooby_state_55fb304d706a|31|5 2141,9,14,8,4,6,5,2,1,2,3,4,6,6,283,2494,
scooby_state_55fb304d706a|30|3 2065,9,8,5,10,5,5,4,5,3,4,4,4,3,358,2492,
scooby_state_55fb304d706a|44|6 2111,10,10,8,8,5,5,6,8,9,3,6,5,2,291,2487,
scooby_state_55fb304d706a|32|4 2117,13,4,9,4,9,0,4,1,0,5,5,6,5,301,2483,
scooby_state_55fb304d706a|34|6 2129,3,11,9,5,6,5,6,8,1,2,1,3,2,289,2480,
scooby_state_55fb304d706a|17|6 2115,15,5,11,8,7,1,4,6,2,6,8,3,7,280,2478,
scooby_state_55fb304d706a|54|5 2033,10,9,7,7,9,6,5,9,4,6,7,5,6,353,2476,
scooby_state_55fb304d706a|15|6 2081,9,7,7,3,8,0,2,8,4,1,6,3,8,321,2468,
scooby_state_55fb304d706a|57|7 2019,8,16,7,8,7,9,3,6,6,6,8,7,13,343,2466,
scooby_state_55fb304d706a|31|4 2042,5,4,10,3,10,8,3,7,4,5,3,7,3,346,2460,
scooby_state_55fb304d706a|20|5 2031,17,9,10,7,2,6,5,7,4,3,5,8,2,344,2460,
scooby_state_55fb304d706a|8|3 2051,2,4,8,12,3,4,3,7,5,1,5,7,4,331,2447,
scooby_state_55fb304d706a|15|5 2078,8,6,12,1,4,6,10,3,6,5,4,4,4,292,2443,
scooby_state_55fb304d706a|18|4 2051,6,4,6,5,4,6,3,3,4,10,5,8,4,320,2439,
scooby_state_55fb304d706a|10|3 2022,3,5,10,16,8,4,1,4,3,4,7,6,5,331,2429,
scooby_state_55fb304d706a|37|4 1980,13,8,3,8,8,6,6,4,5,4,4,8,3,357,2417,
scooby_state_55fb304d706a|61|5 1983,15,8,4,6,3,3,4,3,2,3,3,2,7,369,2415,
scooby_state_55fb304d706a|8|7 2020,12,8,9,6,4,7,6,4,5,3,3,8,6,312,2413,
scooby_state_55fb304d706a|60|5 1940,12,9,11,10,6,2,7,5,7,2,14,5,6,368,2404,
scooby_state_55fb304d706a|49|7 2046,10,11,9,3,5,8,3,5,2,1,5,5,4,284,2401,
scooby_state_55fb304d706a|42|5 2026,11,9,4,3,8,4,9,7,3,3,5,3,1,297,2393,
scooby_state_55fb304d706a|17|5 2008,8,7,10,6,4,4,3,7,5,5,2,2,5,315,2391,
scooby_state_55fb304d706a|14|4 1985,12,7,4,9,3,8,2,6,4,4,2,6,1,338,2391,
scooby_state_55fb304d706a|25|4 2029,5,6,8,5,7,5,3,5,2,5,3,9,6,292,2390,
scooby_state_55fb304d706a|20|4 2017,7,12,6,6,2,3,4,5,3,2,4,4,2,312,2389,
scooby_state_55fb304d706a|62|3 1902,7,6,13,11,5,6,11,7,8,3,6,3,3,398,2389,
scooby_state_55fb304d706a|33|4 1990,9,4,6,6,6,5,6,1,10,8,7,8,4,315,2385,
scooby_state_55fb304d706a|43|5 1988,10,6,12,8,6,5,8,6,4,4,5,7,4,307,2380,
scooby_state_55fb304d706a|55|5 1905,15,6,10,6,8,3,4,3,4,7,4,3,7,392,2377,
scooby_state_55fb304d706a|22|5 1984,8,8,7,5,7,5,2,4,3,6,4,7,5,319,2374,
scooby_state_55fb304d706a|18|5 1975,14,9,11,8,2,5,7,3,7,3,5,5,4,308,2366,
scooby_state_55fb304d706a|46|5 2004,8,5,6,6,7,5,6,6,3,3,3,6,8,289,2365,
scooby_state_55fb304d706a|6|5 1945,13,6,7,5,5,8,3,2,4,9,4,4,6,341,2362,
scooby_state_55fb304d706a|38|5 1981,13,13,9,6,3,5,5,4,2,0,5,7,6,301,2360,
scooby_state_55fb304d706a|35|7 2016,3,12,4,5,5,2,4,4,4,3,2,2,7,286,2359,
scooby_state_55fb304d706a|47|4 1938,5,6,6,7,6,2,2,4,4,7,3,5,7,354,2356,
scooby_state_55fb304d706a|10|6 1970,7,10,7,5,7,4,5,7,4,2,6,5,7,307,2353,
scooby_state_55fb304d706a|52|4 1892,7,4,6,8,7,8,2,4,6,2,7,8,4,383,2348,
scooby_state_55fb304d706a|16|4 1952,12,4,4,6,3,2,3,5,3,8,2,8,3,332,2347,
scooby_state_55fb304d706a|25|5 2012,9,7,7,4,5,7,7,4,4,1,4,2,4,268,2345,
scooby_state_55fb304d706a|48|5 1960,15,7,12,5,6,3,3,4,3,1,8,2,2,311,2342,
scooby_state_55fb304d706a|55|6 1922,11,9,12,9,6,6,2,3,5,5,4,8,6,331,2339,
scooby_state_55fb304d706a|63|7 1879,7,12,8,6,4,7,5,4,7,4,5,5,11,374,2338,
scooby_state_55fb304d706a|20|6 1948,7,7,7,3,8,8,4,4,2,3,13,8,1,314,2337,
scooby_state_55fb304d706a|61|6 1904,4,9,8,8,5,7,4,7,3,6,7,6,6,351,2335,
scooby_state_55fb304d706a|19|5 1970,4,3,6,5,4,9,6,3,4,7,3,3,3,295,2325,
scooby_state_55fb304d706a|9|4 1892,13,4,7,5,4,6,4,5,6,3,2,8,2,364,2325,
scooby_state_55fb304d706a|39|5 1961,10,6,8,8,13,6,3,2,2,4,5,3,5,288,2324,
scooby_state_55fb304d706a|47|5 1918,12,10,5,3,8,13,4,5,4,5,5,11,3,316,2322,
scooby_state_55fb304d706a|40|5 1956,7,7,14,8,4,6,5,1,5,3,8,2,2,293,2321,
scooby_state_55fb304d706a|18|7 1987,9,10,4,8,6,4,5,4,4,2,6,3,8,261,2321,
scooby_state_55fb304d706a|38|7 1986,5,6,8,8,4,1,3,7,4,6,7,1,8,266,2320,
scooby_state_55fb304d706a|49|6 1932,11,5,8,7,3,7,4,7,2,5,4,10,4,310,2319,
scooby_state_55fb304d706a|48|6 1931,8,11,8,10,11,3,5,4,9,1,4,5,7,300,2317,
scooby_state_55fb304d706a|11|5 1923,11,8,9,8,9,8,2,1,5,7,3,7,1,313,2315,
scooby_state_55fb304d706a|41|6 1967,10,14,9,0,5,6,7,4,4,4,3,6,4,270,2313,
scooby_state_55fb304d706a|13|7 1948,2,6,8,7,3,5,3,4,3,5,2,6,9,300,2311,
scooby_state_55fb304d706a|12|8 1965,6,10,8,5,8,6,4,7,3,2,3,6,7,270,2310,
scooby_state_55fb304d706a|53|9 1939,10,5,9,9,2,9,7,7,8,5,7,9,4,278,2308,
scooby_state_55fb304d706a|24|6 1948,13,8,7,11,8,9,8,6,3,5,6,4,5,266,2307,
scooby_state_55fb304d706a|21|5 1959,11,5,9,5,3,2,4,6,3,5,3,5,7,275,2302,
scooby_state_55fb304d706a|18|6 1927,8,8,7,6,5,7,1,8,3,5,3,3,3,307,2301,
scooby_state_55fb304d706a|30|5 1960,8,5,7,2,6,7,3,3,1,3,7,3,5,278,2298,
scooby_state_55fb304d706a|14|6 1896,12,5,13,5,9,10,0,4,3,3,7,8,5,312,2292,
scooby_state_55fb304d706a|34|5 1944,7,9,4,6,5,3,4,4,4,0,3,7,8,274,2282,
scooby_state_55fb304d706a|28|7 1935,7,7,4,8,4,6,6,5,8,3,4,8,7,268,2280,
scooby_state_55fb304d706a|30|6 1887,7,11,10,4,5,5,4,6,4,4,9,3,3,301,2263,
scooby_state_55fb304d706a|57|5 1856,19,4,7,4,3,4,7,2,3,6,5,6,7,327,2260,
scooby_state_55fb304d706a|19|6 1903,9,7,7,3,3,3,7,4,2,1,5,1,4,296,2255,
scooby_state_55fb304d706a|28|6 1906,6,8,5,9,3,8,6,4,4,3,2,3,1,284,2252,
scooby_state_55fb304d706a|7|4 1844,7,7,5,8,7,2,4,3,6,2,7,9,5,333,2249,
scooby_state_55fb304d706a|46|6 1899,5,7,8,6,5,10,5,5,2,3,5,9,6,272,2247,
scooby_state_55fb304d706a|31|6 1940,12,10,6,7,10,5,6,5,2,2,3,4,4,230,2246,
scooby_state_55fb304d706a|37|5 1873,13,13,11,4,4,5,4,9,3,4,4,4,5,285,2241,
scooby_state_55fb304d706a|40|6 1884,7,10,4,4,6,7,2,6,3,5,5,7,10,277,2237,
scooby_state_55fb304d706a|45|5 1853,23,3,8,2,7,13,5,3,4,2,5,0,7,301,2236,
scooby_state_55fb304d706a|9|6 1857,9,5,6,8,5,4,5,6,5,6,8,5,4,302,2235,
scooby_state_55fb304d706a|51|8 1880,10,6,7,5,4,6,4,3,4,4,4,6,7,282,2232,
scooby_state_55fb304d706a|21|6 1914,7,6,2,7,12,7,2,4,2,7,5,3,8,245,2231,
scooby_state_55fb304d706a|27|5 1894,17,4,11,4,5,7,4,3,5,4,2,5,5,251,2221,
scooby_state_55fb304d706a|43|6 1860,10,6,4,9,8,2,2,7,3,7,5,8,2,277,2210,
scooby_state_55fb304d706a|29|5 1823,10,9,10,8,3,1,1,5,7,2,7,9,5,303,2203,
scooby_state_55fb304d706a|8|6 1830,12,7,6,1,7,9,7,5,1,2,1,5,6,303,2202,
scooby_state_55fb304d706a|24|7 1831,7,14,9,10,2,10,6,1,8,4,4,5,5,285,2201,
scooby_state_55fb304d706a|13|6 1813,9,8,12,6,10,5,7,8,4,4,6,3,6,295,2196,
scooby_state_55fb304d706a|52|8 1826,5,8,4,11,5,6,2,5,0,4,3,7,3,306,2195,
scooby_state_55fb304d706a|6|6 1795,7,8,8,9,8,7,6,6,3,3,4,6,4,318,2192,
scooby_state_55fb304d706a|36|4 1822,9,6,10,2,5,4,5,4,4,8,6,8,3,286,2182,
scooby_state_55fb304d706a|22|7 1843,7,7,12,6,4,4,5,3,4,4,3,2,1,276,2181,
scooby_state_55fb304d706a|25|6 1868,3,4,9,6,5,7,4,7,1,1,3,6,5,242,2171,
scooby_state_55fb304d706a|54|10 1876,13,6,4,4,7,6,3,6,3,3,4,9,3,222,2169,
scooby_state_55fb304d706a|16|5 1782,12,7,14,4,5,6,4,4,1,2,6,4,5,310,2166,
scooby_state_55fb304d706a|51|7 1815,7,12,6,10,5,2,6,7,2,3,1,5,5,279,2165,
scooby_state_55fb304d706a|26|5 1799,11,8,9,3,4,7,7,7,2,6,5,3,4,284,2159,
scooby_state_55fb304d706a|56|6 1766,16,10,9,6,9,5,6,7,7,2,3,0,7,305,2158,
scooby_state_55fb304d706a|63|4 1745,14,4,12,7,2,5,2,4,3,4,2,7,4,336,2151,
scooby_state_55fb304d706a|62|6 1716,4,13,9,8,6,5,8,3,6,5,7,8,8,341,2147,
scooby_state_55fb304d706a|38|6 1811,8,9,4,8,10,5,3,2,2,5,6,4,7,262,2146,
scooby_state_55fb304d706a|52|6 1781,4,6,6,3,11,9,4,2,2,5,6,6,9,289,2143,
scooby_state_55fb304d706a|52|5 1704,10,11,7,3,4,7,2,3,9,4,6,9,8,349,2136,
scooby_state_55fb304d706a|47|6 1781,9,8,10,4,5,6,1,9,6,4,7,9,5,269,2133,
scooby_state_55fb304d706a|16|6 1778,7,2,7,7,12,9,5,1,7,1,5,6,7,273,2127,
scooby_state_55fb304d706a|21|7 1791,5,6,8,7,3,7,4,4,6,2,10,4,7,260,2124,
scooby_state_55fb304d706a|35|6 1800,12,8,6,3,5,4,8,2,3,0,4,8,2,255,2120,
scooby_state_55fb304d706a|59|5 1728,10,4,10,7,2,5,3,7,5,5,3,4,2,323,2118,
scooby_state_55fb304d706a|45|7 1761,3,7,9,9,4,3,6,4,4,3,6,4,5,289,2117,
scooby_state_55fb304d706a|10|7 1764,9,10,11,4,5,2,7,3,1,3,5,5,7,279,2115,
scooby_state_55fb304d706a|44|9 1754,3,8,8,8,4,7,5,6,6,11,4,11,6,265,2106,
scooby_state_55fb304d706a|25|7 1801,4,4,7,4,2,7,3,2,0,5,6,4,6,250,2105,
scooby_state_55fb304d706a|32|5 1786,6,6,10,3,7,3,3,7,2,5,4,4,6,250,2102,
scooby_state_55fb304d706a|29|6 1797,10,7,9,10,3,2,5,5,1,1,6,4,4,238,2102,
scooby_state_55fb304d706a|16|8 1801,5,10,1,2,1,5,3,3,3,0,3,2,4,246,2089,
scooby_state_55fb304d706a|24|11 1820,3,10,11,7,9,7,6,4,5,5,4,8,4,183,2086,
scooby_state_55fb304d706a|16|7 1770,7,12,3,6,0,3,4,4,4,4,3,6,10,249,2085,
scooby_state_55fb304d706a|13|8 1769,8,5,9,1,6,4,2,8,1,4,5,4,2,249,2077,
scooby_state_55fb304d706a|39|6 1752,9,4,10,3,6,4,2,5,4,2,4,4,4,262,2075,
scooby_state_55fb304d706a|24|10 1754,7,10,3,10,5,9,4,6,4,6,10,7,4,236,2075,
scooby_state_55fb304d706a|14|7 1749,6,8,9,4,5,4,3,5,4,4,6,4,5,257,2073,
scooby_state_55fb304d706a|36|6 1764,10,5,8,2,5,6,3,9,5,3,2,6,2,240,2070,
scooby_state_55fb304d706a|63|5 1664,8,8,11,6,5,4,5,4,3,5,3,8,5,324,2063,
scooby_state_55fb304d706a|53|6 1666,10,14,6,1,5,5,3,6,4,5,4,5,3,322,2059,
scooby_state_55fb304d706a|49|11 1764,8,10,11,6,3,12,3,1,10,3,8,6,5,207,2057,
scooby_state_55fb304d706a|44|10 1747,12,7,2,11,10,9,5,3,6,5,7,5,7,216,2052,
scooby_state_55fb304d7000|33|1 2045,0,0,0,0,0,0,1,0,0,0,0,1,0,1,2048,
scooby_state_55fb304d7000|57|1 2045,1,0,0,0,0,0,0,0,0,0,0,1,0,1,2048,
scooby_state_55fb304d7000|30|1 2043,1,0,0,0,0,0,0,0,2,0,0,0,2,0,2048,
scooby_state_55fb304d7000|40|1 2046,0,0,0,0,0,0,1,0,0,0,0,0,0,1,2048,
scooby_state_55fb304d7000|45|1 2044,0,0,0,0,0,1,1,1,1,0,0,0,0,0,2048,
scooby_state_55fb304d7000|25|1 2044,1,0,0,1,0,1,0,1,0,0,0,0,0,0,2048,
scooby_state_55fb304d7000|4|1 2044,0,0,0,0,0,0,1,0,0,1,1,0,1,0,2048,
scooby_state_55fb304d7000|55|1 2042,0,1,1,0,0,0,1,1,0,1,0,1,0,0,2048,
scooby_state_55fb304d7000|15|1 2045,0,0,0,1,1,0,0,0,0,1,0,0,0,0,2048,
scooby_state_55fb304d7000|0|0 2044,1,0,1,0,1,0,0,0,0,0,0,1,0,0,2048,
scooby_state_55fb304d7000|43|1 2045,0,0,0,1,0,1,1,0,0,0,0,0,0,0,2048,
scooby_state_55fb304d7000|13|1 2046,0,1,0,0,0,0,0,0,0,0,0,0,0,1,2048,
scooby_state_55fb304d7000|32|1 2044,1,1,1,0,0,0,0,0,0,0,0,0,0,1,2048,
scooby_state_55fb304d7000|23|1 2045,0,0,0,1,1,0,0,0,0,0,0,0,0,1,2048,
scooby_state_55fb304d7000|49|1 2047,0,0,0,1,0,0,0,0,0,0,0,0,0,0,2048,
scooby_state_55fb304d7000|7|1 2046,0,0,0,1,0,0,0,0,0,0,0,0,1,0,2048,
scooby_state_55fb304d7000|59|1 2044,0,1,0,0,0,0,1,0,0,0,1,1,0,0,2048,
scooby_state_55fb304d7000|1|1 2043,0,0,1,1,0,0,1,0,0,1,1,0,0,0,2048,
scooby_state_55fb304d7000|28|1 2043,1,0,0,0,0,0,0,0,0,0,1,0,0,3,2048,
scooby_state_55fb304d7000|39|1 2042,1,2,0,0,0,1,0,0,0,0,0,0,1,1,2048,
scooby_state_55fb304d7000|10|1 2045,0,0,0,1,0,1,0,1,0,0,0,0,0,0,2048,
scooby_state_55fb304d7000|34|1 2044,0,0,0,0,0,0,1,0,1,0,0,1,0,1,2048,
scooby_state_55fb304d7000|6|1 2045,0,0,0,1,0,0,0,1,0,1,0,0,0,0,2048,
scooby_state_55fb304d7000|27|1 2044,0,0,0,1,0,0,2,0,0,0,0,1,0,0,2048,
scooby_state_55fb304d7000|18|1 2047,0,0,0,0,0,0,0,0,1,0,0,0,0,0,2048,
scooby_state_55fb304d7000|41|1 2047,0,0,0,0,0,0,0,0,0,0,0,0,0,1,2048,
scooby_state_55fb304d7000|12|1 2044,0,0,0,1,1,2,0,0,0,0,0,0,0,0,2048,
scooby_state_55fb304d7000|16|1 2045,0,0,0,1,0,0,0,1,1,0,0,0,0,0,2048,
scooby_state_55fb304d7000|58|1 2040,0,0,1,0,1,0,1,1,0,1,2,1,0,0,2048,
scooby_state_55fb304d7000|14|1 2044,0,0,1,1,1,0,0,0,0,0,0,0,0,1,2048,
scooby_state_55fb304d7000|3|1 2044,0,1,0,0,0,0,2,1,0,0,0,0,0,0,2048,
scooby_state_55fb304d7000|20|1 2047,0,0,0,0,0,1,0,0,0,0,0,0,0,0,2048,
scooby_state_55fb304d7000|22|1 2041,0,0,3,0,1,0,1,0,1,0,0,0,1,0,2048,
scooby_state_55fb304d7000|9|1 2043,1,0,0,0,0,1,2,0,0,1,0,0,0,0,2048,
scooby_state_55fb304d7000|19|1 2046,1,0,0,0,0,0,0,0,0,0,0,0,1,0,2048,
scooby_state_55fb304d7000|44|1 2041,0,0,1,2,0,0,0,0,0,0,0,1,0,3,2048,
scooby_state_55fb304d7000|60|1 2047,0,0,0,0,0,0,0,0,0,0,0,0,1,0,2048,
scooby_state_55fb304d7000|61|1 2045,0,0,0,0,0,0,0,1,0,0,1,1,0,0,2048,
scooby_state_55fb304d7000|24|1 2046,0,0,0,0,1,0,0,0,0,1,0,0,0,0,2048,
scooby_state_55fb304d7000|37|1 2043,1,0,0,0,1,1,0,0,1,0,0,0,0,1,2048,
scooby_state_55fb304d7000|8|1 2040,2,0,0,1,1,2,0,1,0,1,0,0,0,0,2048,
scooby_state_55fb304d7000|52|1 2047,0,0,0,1,0,0,0,0,0,0,0,0,0,0,2048,
scooby_state_55fb304d7000|21|1 2045,0,0,0,1,0,1,1,0,0,0,0,0,0,0,2048,
scooby_state_55fb304d7000|36|1 2043,0,0,2,1,0,0,0,1,0,0,0,0,0,1,2048,
scooby_state_55fb304d7000|46|1 2044,0,0,0,0,1,0,2,0,0,1,0,0,0,0,2048,
scooby_state_55fb304d7000|29|1 2043,0,0,0,0,2,0,0,0,0,0,1,0,0,2,2048,
scooby_state_55fb304d7000|35|1 2047,0,0,0,0,0,0,0,0,0,0,0,0,0,1,2048,
scooby_state_55fb304d7000|53|1 2043,1,1,0,0,1,0,0,0,0,0,1,0,0,1,2048,
scooby_state_55fb304d7000|56|1 2046,1,0,0,0,0,0,0,1,0,0,0,0,0,0,2048,
scooby_state_55fb304d7000|11|1 2048,0,0,0,0,0,0,0,0,0,0,0,0,0,0,2048,
scooby_state_55fb304d7000|5|1 2047,0,0,0,0,0,0,0,0,0,0,0,0,1,0,2048,
scooby_state_55fb304d7000|31|1 2039,0,0,2,1,1,1,0,0,0,0,1,1,1,1,2048,
scooby_state_55fb304d7000|63|1 2046,0,0,1,0,0,0,0,0,0,0,0,1,0,0,2048,
scooby_state_55fb304d7000|47|1 2044,0,0,1,0,0,0,0,0,1,2,0,0,0,0,2048,
scooby_state_55fb304d7000|42|1 2046,0,1,0,1,0,0,0,0,0,0,0,0,0,0,2048,
scooby_state_55fb304d7000|62|1 2045,0,0,0,1,0,0,1,0,0,1,0,0,0,0,2048,
scooby_state_55fb304d7000|26|1 2044,1,1,0,0,0,0,0,0,1,1,0,0,0,0,2048,
scooby_state_55fb304d7000|50|1 2045,0,0,1,0,0,1,0,0,1,0,0,0,0,0,2048,
scooby_state_55fb304d7000|38|1 2044,1,0,0,1,2,0,0,0,0,0,0,0,0,0,2048,
scooby_state_55fb304d7000|51|1 2044,0,0,0,1,0,0,0,1,1,0,0,0,0,1,2048,
scooby_state_55fb304d7000|17|1 2045,0,0,0,1,0,0,0,1,1,0,0,0,0,0,2048,
scooby_state_55fb304d7000|54|1 2045,1,0,0,0,0,0,0,1,0,1,0,0,0,0,2048,
scooby_state_55fb304d7000|2|1 2043,1,0,0,1,2,0,0,0,0,0,1,0,0,0,2048,
scooby_state_55fb304d7000|48|1 2046,0,0,1,0,0,0,0,0,0,0,1,0,0,0,2048,
scooby_state_55fb304d706a|55|7 1680,9,11,7,5,5,6,4,2,2,4,4,9,6,290,2044,
scooby_state_55fb304d706a|43|8 1754,5,2,4,6,3,4,8,4,5,1,6,5,6,229,2042,
scooby_state_55fb304d706a|46|7 1727,5,9,7,8,7,2,3,6,2,1,8,6,7,242,2040,
scooby_state_55fb304d706a|23|6 1742,5,8,6,5,4,7,6,5,5,4,5,4,3,229,2038,
scooby_state_55fb304d706a|58|6 1639,5,14,7,6,6,13,8,9,5,2,5,2,10,304,2035,
scooby_state_55fb304d706a|7|6 1677,8,8,7,5,7,8,5,5,3,2,7,4,6,277,2029,
scooby_state_55fb304d706a|10|5 1654,15,4,8,6,3,4,5,8,5,2,6,2,4,302,2028,
scooby_state_55fb304d706a|61|8 1647,2,8,5,2,4,8,2,6,3,4,4,6,3,324,2028,
scooby_state_55fb304d706a|12|5 1696,9,6,8,4,10,4,2,4,5,3,5,2,1,263,2022,
scooby_state_55fb304d706a|7|7 1655,4,8,6,5,3,6,4,4,8,3,4,3,6,300,2019,
scooby_state_55fb304d706a|27|6 1703,5,9,5,5,7,3,8,7,2,4,7,4,2,248,2019,
scooby_state_55fb304d706a|37|9 1716,6,1,5,5,6,7,4,2,6,9,10,5,8,227,2017,
scooby_state_55fb304d706a|32|6 1690,2,8,8,6,4,4,5,9,5,3,9,3,3,258,2017,
scooby_state_55fb304d706a|54|8 1716,5,9,4,1,4,6,6,8,3,7,8,3,2,234,2016,
scooby_state_55fb304d706a|50|7 1692,6,7,6,8,4,1,2,2,6,1,5,4,6,264,2014,
scooby_state_55fb304d706a|63|6 1651,10,7,6,6,7,6,8,5,5,2,3,4,9,281,2010,
scooby_state_55fb304d706a|32|8 1715,2,4,7,5,6,9,7,7,1,3,5,5,5,228,2009,
scooby_state_55fb304d706a|38|10 1711,7,10,3,3,9,6,5,9,4,4,9,3,6,220,2009,
scooby_state_55fb304d706a|7|5 1625,9,12,7,4,7,8,5,1,1,1,7,4,5,312,2008,
scooby_state_55fb304d706a|60|7 1619,10,6,7,9,6,6,3,7,4,1,5,5,7,313,2008,
scooby_state_55fb304d706a|19|8 1675,4,7,2,5,5,5,4,5,9,1,2,5,6,272,2007,
scooby_state_55fb304d706a|26|7 1685,7,8,6,8,6,8,4,3,2,2,5,4,5,249,2002,
scooby_state_55fb304d706a|58|7 1641,11,6,7,10,4,3,3,0,5,1,4,4,5,291,1995,
scooby_state_55fb304d706a|48|7 1668,8,5,11,6,7,2,5,6,3,4,2,2,7,256,1992,
scooby_state_55fb304d706a|59|6 1616,10,10,6,10,6,4,3,5,7,3,7,4,6,295,1992,
scooby_state_55fb304d706a|49|8 1666,4,7,5,5,5,3,7,5,6,3,4,4,7,253,1984,
scooby_state_55fb304d706a|35|9 1680,12,3,5,7,2,4,5,4,5,2,8,3,9,234,1983,
scooby_state_55fb304d706a|37|7 1659,4,6,5,7,6,3,7,5,2,14,4,7,8,246,1983,
scooby_state_55fb304d706a|61|7 1627,6,8,5,10,8,6,5,5,2,4,5,6,7,279,1983,
scooby_state_55fb304d706a|62|7 1616,5,13,7,7,7,5,3,2,1,6,2,6,4,296,1980,
scooby_state_55fb304d706a|9|9 1655,8,11,6,5,5,8,5,4,3,7,1,6,8,247,1979,
scooby_state_55fb304d706a|33|6 1687,6,4,7,5,5,5,2,5,3,3,3,5,4,230,1974,
scooby_state_55fb304d706a|24|9 1698,6,6,5,4,7,10,3,3,3,4,2,6,8,208,1973,
scooby_state_55fb304d706a|61|9 1607,11,7,7,8,9,2,6,9,3,5,2,2,8,285,1971,
scooby_state_55fb304d706a|11|7 1586,7,11,5,9,6,2,6,3,10,5,5,5,7,303,1970,
scooby_state_55fb304d706a|36|8 1664,4,11,7,2,2,5,5,4,1,4,7,5,9,237,1967,
scooby_state_55fb304d706a|8|8 1615,5,9,8,6,8,6,3,3,3,7,4,6,5,276,1964,
scooby_state_55fb304d706a|60|6 1599,9,6,9,8,5,10,3,6,2,5,3,3,6,287,1961,
scooby_state_55fb304d706a|25|10 1679,5,8,4,5,6,7,4,3,7,2,4,8,7,209,1958,
scooby_state_55fb304d706a|11|9 1630,7,6,12,11,1,7,8,8,3,5,5,9,5,237,1954,
scooby_state_55fb304d706a|22|8 1664,4,9,5,3,5,11,5,5,5,3,7,1,5,220,1952,
scooby_state_55fb304d706a|54|7 1610,5,6,9,5,5,3,3,5,3,5,3,6,8,275,1951,
scooby_state_55fb304d706a|41|5 1645,6,4,2,4,7,10,2,3,5,5,2,5,3,248,1951,
scooby_state_55fb304d706a|42|6 1635,7,9,7,8,7,3,5,2,4,6,6,1,5,241,1946,
scooby_state_55fb304d706a|15|11 1695,2,9,6,5,9,3,5,4,4,3,4,4,0,188,1941,
scooby_state_55fb304d706a|51|9 1642,8,5,5,5,2,8,6,8,5,4,4,3,5,231,1941,
scooby_state_55fb304d706a|48|8 1626,5,5,5,3,7,7,2,3,3,2,1,7,4,257,1937,
scooby_state_55fb304d706a|34|8 1639,4,8,6,10,3,7,7,2,1,5,2,7,6,229,1936,
scooby_state_55fb304d706a|55|9 1648,11,9,6,7,2,9,4,4,5,1,4,4,3,217,1934,
scooby_state_55fb304d706a|46|8 1619,2,9,6,7,5,4,4,3,5,3,2,4,6,253,1932,
scooby_state_55fb304d706a|42|9 1712,6,3,2,4,5,8,3,7,3,3,3,0,4,167,1930,
scooby_state_55fb304d706a|26|6 1637,5,5,9,4,5,3,3,5,3,3,6,6,3,233,1930,
scooby_state_55fb304d706a|39|8 1669,0,5,3,2,7,6,3,10,2,6,5,6,2,203,1929,
scooby_state_55fb304d706a|57|8 1583,5,6,6,10,2,9,4,4,6,3,3,8,4,275,1928,
scooby_state_55fb304d706a|39|11 1686,7,6,7,9,0,4,5,3,5,5,2,6,4,174,1923,
scooby_state_55fb304d706a|41|7 1644,6,8,6,7,2,1,4,5,5,2,2,4,4,222,1922,
scooby_state_55fb304d706a|20|7 1614,8,7,8,2,3,3,6,3,2,5,2,2,6,248,1919,
scooby_state_55fb304d706a|43|7 1627,5,4,6,8,5,3,4,11,2,3,3,2,8,225,1916,
scooby_state_55fb304d706a|15|7 1579,12,7,5,0,7,3,4,3,5,1,3,2,9,275,1915,
scooby_state_55fb304d706a|62|9 1596,6,7,9,8,6,8,6,8,6,6,8,8,6,226,1914,
scooby_state_55fb304d706a|28|9 1663,7,4,6,4,2,3,2,2,1,6,5,4,3,200,1912,
scooby_state_55fb304d706a|23|7 1640,2,6,4,8,1,5,5,4,4,1,4,1,9,217,1911,
scooby_state_55fb304d706a|39|7 1590,6,10,6,10,7,10,1,4,4,3,4,7,2,246,1910,
scooby_state_55fb304d706a|52|7 1582,6,8,2,4,6,2,7,6,1,2,6,6,10,258,1906,
scooby_state_55fb304d706a|56|11 1627,9,9,9,3,3,5,7,8,7,7,6,2,4,199,1905,
scooby_state_55fb304d706a|12|6 1563,4,13,14,3,4,4,6,3,4,6,4,4,3,262,1897,
scooby_state_55fb304d706a|42|7 1623,7,8,9,2,6,4,1,1,1,3,3,3,1,224,1896,
scooby_state_55fb304d706a|23|8 1615,5,1,3,5,4,3,1,3,6,6,2,5,5,229,1893,
scooby_state_55fb304d706a|17|7 1584,6,5,3,4,5,6,2,2,6,4,5,2,8,247,1889,
scooby_state_55fb304d706a|63|8 1521,7,8,8,6,7,4,3,5,5,6,5,5,6,292,1888,
scooby_state_55fb304d706a|53|8 1569,7,8,5,4,2,2,2,4,1,4,5,3,2,267,1885,
scooby_state_55fb304d706a|11|8 1566,11,6,3,4,4,4,5,6,4,2,2,4,4,257,1882,
scooby_state_55fb304d706a|9|8 1578,2,9,5,1,1,5,4,4,6,2,6,6,3,241,1873,
scooby_state_55fb304d706a|19|7 1559,7,10,3,9,7,2,4,5,5,3,4,5,5,243,1871,
scooby_state_55fb304d706a|25|8 1594,3,7,4,4,4,6,2,6,3,1,3,3,1,230,1871,
scooby_state_55fb304d706a|45|8 1558,5,6,4,2,4,3,3,6,3,4,7,6,4,250,1865,
scooby_state_55fb304d706a|22|6 1594,1,6,5,3,6,2,5,3,5,3,4,1,1,225,1864,
scooby_state_55fb304d706a|39|15 1631,11,9,13,5,5,11,4,4,7,3,6,6,8,141,1864,
scooby_state_55fb304d706a|21|9 1571,7,8,3,6,5,7,5,7,1,5,4,7,5,220,1861,
scooby_state_55fb304d706a|29|7 1575,3,6,8,3,3,7,1,3,2,3,6,5,5,225,1855,
scooby_state_55fb304d706a|10|9 1544,7,3,5,10,3,9,5,3,6,3,8,3,6,239,1854,
scooby_state_55fb304d706a|14|8 1566,6,10,4,6,6,4,3,2,3,1,2,0,4,234,1851,
scooby_state_55fb304d706a|60|9 1515,9,12,6,8,6,6,9,6,2,7,8,6,8,242,1850,
scooby_state_55fb304d706a|27|7 1553,8,12,6,5,4,4,3,2,6,4,1,3,3,233,1847,
scooby_state_55fb304d706a|33|8 1579,4,6,7,6,5,6,1,8,1,1,6,4,1,205,1840,
scooby_state_55fb304d706a|17|8 1536,6,10,6,3,3,4,3,3,3,2,9,4,5,243,1840,
scooby_state_55fb304d706a|59|7 1510,9,7,8,1,5,1,4,5,2,5,4,4,3,270,1838,
scooby_state_55fb304d706a|51|15 1611,3,7,6,3,9,11,9,2,6,7,8,4,5,147,1838,
scooby_state_55fb304d706a|34|10 1590,9,8,6,2,3,4,6,5,4,4,5,7,3,181,1837,
scooby_state_55fb304d706a|43|9 1595,4,5,3,5,7,6,3,7,7,3,7,2,12,170,1836,
scooby_state_55fb304d706a|49|10 1554,9,5,10,2,8,9,9,3,3,3,4,8,7,201,1835,
scooby_state_55fb304d706a|10|8 1566,6,8,2,8,5,6,2,2,4,3,5,3,7,200,1827,
scooby_state_55fb304d706a|56|10 1561,6,10,5,5,1,4,3,3,4,6,2,5,5,203,1823,
scooby_state_55fb304d706a|48|10 1524,5,10,6,11,8,7,7,2,5,5,6,3,7,214,1820,
scooby_state_55fb304d706a|37|8 1536,7,8,6,3,6,4,1,4,7,5,5,6,4,218,1820,
scooby_state_55fb304d706a|40|9 1534,7,11,5,8,8,6,2,3,2,4,4,9,4,211,1818,
scooby_state_55fb304d706a|24|8 1558,6,5,4,3,4,3,2,8,5,2,8,2,2,205,1817,
scooby_state_55fb304d706a|30|7 1535,6,4,5,3,2,6,3,3,4,5,6,0,3,230,1815,
scooby_state_55fb304d706a|14|10 1505,7,12,6,8,9,7,5,12,2,4,7,4,8,214,1810,
scooby_state_55fb304d706a|11|6 1487,8,5,3,2,6,4,5,7,2,1,3,5,5,266,1809,
scooby_state_55fb304d706a|27|8 1563,5,5,6,5,2,3,4,2,3,4,4,2,1,200,1809,
scooby_state_55fb304d706a|48|9 1556,7,6,5,7,1,6,5,3,3,3,9,5,3,187,1806,
scooby_state_55fb304d706a|34|7 1493,9,6,6,7,4,4,3,4,4,5,1,5,5,246,1802,
scooby_state_55fb304d706a|13|9 1501,5,3,6,5,9,4,5,2,0,5,2,4,3,244,1798,
scooby_state_55fb304d706a|9|7 1490,8,10,4,6,2,5,1,2,2,3,4,4,7,248,1796,
scooby_state_55fb304d706a|38|8 1533,7,7,6,3,8,4,5,8,2,1,3,3,1,205,1796,
scooby_state_55fb304d706a|40|7 1513,8,6,5,1,6,2,6,4,3,1,2,0,0,238,1795,
scooby_state_55fb304d706a|49|9 1480,7,10,9,6,7,11,7,2,5,5,5,7,12,222,1795,
scooby_state_55fb304d706a|18|10 1556,2,1,9,3,11,6,4,2,4,4,4,6,1,179,1792,
scooby_state_55fb304d706a|47|7 1513,4,8,3,1,2,4,2,5,3,4,2,5,6,229,1791,
scooby_state_55fb304d706a|17|9 1502,4,8,2,7,3,11,3,1,6,4,2,3,3,231,1790,
scooby_state_55fb304d706a|33|7 1496,5,9,5,5,3,3,6,5,4,1,4,8,4,228,1786,
scooby_state_55fb304d706a|47|8 1491,7,8,6,3,5,6,4,2,2,3,3,4,7,234,1785,
scooby_state_55fb304d706a|35|10 1546,5,11,6,7,9,3,3,1,6,4,4,7,9,162,1783,
scooby_state_55fb304d706a|44|8 1521,6,4,2,2,8,4,3,4,2,2,4,3,4,213,1782,
scooby_state_55fb304d706a|50|8 1486,8,6,6,7,9,5,2,3,1,1,7,1,10,227,1779,
scooby_state_55fb304d706a|50|9 1505,4,5,5,7,7,9,3,6,6,5,7,9,7,190,1775,
scooby_state_55fb304d706a|28|8 1505,9,11,6,1,4,2,9,6,2,3,3,8,6,200,1775,
scooby_state_55fb304d706a|20|8 1510,8,8,5,4,3,8,3,10,4,6,2,3,2,199,1775,
scooby_state_55fb304d706a|60|8 1447,5,5,4,5,8,11,3,1,2,3,2,3,7,265,1771,
scooby_state_55fb304d706a|30|9 1530,11,5,6,8,4,6,4,6,4,4,2,7,5,166,1768,
scooby_state_55fb304d706a|42|8 1483,5,7,3,3,8,4,6,5,6,5,5,3,3,222,1768,
scooby_state_55fb304d706a|58|10 1493,7,5,3,5,4,4,7,3,5,2,3,4,5,217,1767,
scooby_state_55fb304d706a|30|8 1520,3,6,1,5,4,3,6,2,1,5,1,4,5,199,1765,
scooby_state_55fb304d706a|46|9 1487,5,6,11,11,2,10,3,4,7,2,3,6,3,205,1765,
scooby_state_55fb304d706a|27|9 1542,4,3,2,6,1,6,5,3,3,3,3,4,7,172,1764,
scooby_state_55fb304d706a|19|11 1548,4,9,6,10,6,4,3,3,5,4,4,5,7,146,1764,
scooby_state_55fb304d706a|39|9 1527,6,6,5,1,5,7,0,5,2,3,4,5,2,182,1760,
scooby_state_55fb304d706a|32|7 1501,4,6,1,4,2,3,3,1,2,3,2,6,3,217,1758,
scooby_state_55fb304d706a|21|10 1494,3,5,10,9,2,9,1,5,3,6,7,6,6,192,1758,
scooby_state_55fb304d706a|61|10 1469,5,8,4,4,5,6,2,5,2,6,5,3,7,224,1755,
scooby_state_55fb304d706a|19|9 1498,6,5,7,3,2,4,4,4,2,1,4,5,2,205,1752,
scooby_state_55fb304d706a|56|8 1454,3,0,6,4,8,9,2,1,3,1,5,9,3,242,1750,
scooby_state_55fb304d706a|55|10 1495,3,6,5,3,6,4,2,6,5,5,4,5,5,187,1741,
scooby_state_55fb304d706a|52|9 1462,6,5,9,5,9,8,5,6,4,6,4,2,9,201,1741,
scooby_state_55fb304d706a|35|8 1480,1,6,3,5,2,6,6,2,4,5,3,6,2,209,1740,
scooby_state_55fb304d706a|12|7 1426,6,8,4,3,5,4,4,6,3,0,3,10,4,254,1740,
scooby_state_55fb304d706a|51|10 1443,3,4,3,8,6,8,10,5,8,1,8,5,7,216,1735,
scooby_state_55fb304d706a|41|8 1470,6,3,5,3,4,8,2,2,6,2,4,4,4,208,1731,
scooby_state_55fb304d706a|58|9 1452,5,9,8,6,6,8,4,5,2,1,2,4,3,216,1731,
scooby_state_55fb304d706a|59|8 1404,7,5,6,6,3,5,3,4,3,0,1,5,6,268,1726,
scooby_state_55fb304d706a|46|12 1480,7,10,7,5,4,8,6,10,3,8,7,10,4,157,1726,
scooby_state_55fb304d706a|15|9 1472,8,11,2,3,5,2,1,1,8,5,1,5,4,196,1724,
scooby_state_55fb304d706a|31|8 1485,2,5,3,4,5,3,7,4,4,2,4,4,6,186,1724,
scooby_state_55fb304d706a|12|10 1434,12,8,7,6,6,7,4,5,3,8,5,4,8,206,1723,
scooby_state_55fb304d706a|60|14 1538,9,9,7,4,5,6,3,7,6,3,2,8,4,110,1721,
scooby_state_55fb304d706a|23|9 1470,3,2,5,4,1,4,5,4,1,6,6,3,4,202,1720,
scooby_state_55fb304d706a|57|9 1449,9,7,3,4,8,6,6,5,5,2,6,5,2,202,1719,
scooby_state_55fb304d706a|14|9 1466,6,5,2,4,9,3,3,3,3,3,4,5,6,195,1717,
scooby_state_55fb304d706a|50|10 1483,6,3,5,4,4,4,5,8,4,1,4,3,9,171,1714,
scooby_state_55fb304d706a|55|8 1428,11,5,7,4,7,4,4,1,6,3,5,4,2,222,1713,
scooby_state_55fb304d706a|49|13 1499,10,9,10,2,6,9,5,6,2,3,5,8,5,134,1713,
scooby_state_55fb304d706a|42|11 1471,4,6,8,9,3,5,7,3,3,6,7,8,5,166,1711,
scooby_state_55fb304d706a|26|16 1521,8,2,3,3,7,5,2,3,1,3,6,4,4,139,1711,
scooby_state_55fb304d706a|11|10 1461,5,6,8,4,7,6,3,4,4,4,1,6,6,183,1708,
scooby_state_55fb304d706a|35|13 1492,5,5,7,5,2,5,2,1,3,5,9,4,9,154,1708,
scooby_state_55fb304d706a|62|8 1392,6,9,4,2,4,4,9,3,4,5,5,5,4,250,1706,
scooby_state_55fb304d706a|63|9 1376,11,3,6,6,4,5,4,9,6,6,7,6,3,247,1699,
scooby_state_55fb304d706a|26|9 1433,12,3,6,3,4,4,3,3,2,4,5,7,4,206,1699,
scooby_state_55fb304d706a|45|9 1425,10,5,7,5,4,2,6,4,5,5,7,7,4,202,1698,
scooby_state_55fb304d706a|15|10 1427,4,9,4,7,2,6,6,1,3,5,10,5,5,199,1693,
scooby_state_55fb304d706a|14|11 1422,7,14,5,9,5,6,4,3,6,4,5,7,6,185,1688,
scooby_state_55fb304d706a|10|10 1395,7,4,10,8,6,9,6,5,3,3,5,2,5,220,1688,
scooby_state_55fb304d706a|60|10 1420,6,3,5,6,6,9,8,3,4,1,3,7,7,198,1686,
scooby_state_55fb304d706a|20|9 1430,4,4,7,3,1,4,4,5,2,4,6,1,5,205,1685,
scooby_state_55fb304d706a|36|7 1446,8,9,3,4,1,3,7,3,1,4,3,2,4,185,1683,
scooby_state_55fb304d706a|12|11 1432,9,6,4,5,3,8,2,11,6,3,6,10,4,174,1683,
scooby_state_55fb304d706a|45|10 1422,6,5,6,4,5,8,5,8,4,5,6,5,6,186,1681,
scooby_state_55fb304d706a|18|9 1414,5,6,8,1,7,6,8,5,10,5,8,2,3,192,1680,
scooby_state_55fb304d706a|51|12 1436,8,13,10,4,6,8,5,6,3,1,7,10,5,156,1678,
scooby_state_55fb304d706a|38|9 1425,5,4,2,2,1,7,6,3,4,3,3,2,10,197,1674,
scooby_state_55fb304d706a|50|12 1451,6,9,3,8,5,6,4,7,2,10,2,1,6,151,1671,
scooby_state_55fb304d706a|37|12 1436,5,10,7,7,5,8,3,6,3,5,2,7,2,163,1669,
scooby_state_55fb304d706a|55|12 1408,8,13,6,8,6,7,8,4,8,2,9,2,6,171,1666,
scooby_state_55fb304d706a|51|11 1423,4,10,12,4,2,3,4,5,3,4,4,5,7,175,1665,
scooby_state_55fb304d706a|58|14 1459,5,6,6,9,2,10,4,6,3,8,7,7,10,123,1665,
scooby_state_55fb304d706a|36|9 1421,2,6,5,3,3,5,8,4,4,1,7,6,4,183,1662,
scooby_state_55fb304d706a|20|10 1418,4,10,4,7,4,2,6,4,3,5,5,6,6,176,1660,
scooby_state_55fb304d706a|53|12 1400,8,10,9,3,6,3,4,2,3,9,5,6,4,187,1659,
scooby_state_55fb304d706a|47|9 1410,5,6,5,6,7,6,6,1,3,2,7,4,5,183,1656,
scooby_state_55fb304d706a|17|10 1377,10,7,8,7,5,3,6,2,7,7,4,5,7,201,1656,
scooby_state_55fb304d706a|63|10 1334,7,8,5,9,8,4,1,4,8,7,6,8,6,239,1654,
scooby_state_55fb304d706a|50|11 1428,6,14,7,7,3,2,4,2,4,9,2,6,7,153,1654,
scooby_state_55fb304d706a|21|8 1385,7,9,5,8,4,10,3,1,2,6,6,2,2,198,1648,
scooby_state_55fb304d706a|34|9 1412,5,4,5,7,8,2,0,10,2,2,4,5,4,178,1648,
scooby_state_55fb304d706a|56|12 1399,8,9,9,4,6,5,4,6,2,2,3,6,5,176,1644,
scooby_state_55fb304d706a|55|14 1422,11,9,9,6,6,5,3,6,7,3,8,6,7,135,1643,
scooby_state_55fb304d706a|24|14 1403,10,6,11,9,8,6,12,3,8,11,4,5,10,137,1643,
scooby_state_55fb304d706a|57|13 1416,11,10,4,6,6,8,3,4,3,4,7,6,6,149,1643,
scooby_state_55fb304d706a|13|10 1345,6,11,6,7,7,8,3,3,2,6,6,6,4,221,1641,
scooby_state_55fb304d706a|37|13 1406,10,3,10,6,7,7,5,5,6,6,5,6,4,154,1640,
scooby_state_55fb304d706a|48|15 1461,8,7,4,3,4,5,4,3,2,0,9,8,2,119,1639,
scooby_state_55fb304d706a|56|13 1416,10,6,8,5,8,4,5,5,3,4,10,9,8,137,1638,
scooby_state_55fb304d706a|35|11 1417,5,11,3,11,4,3,4,5,4,1,4,3,8,154,1637,
scooby_state_55fb304d706a|44|14 1387,14,8,8,7,14,5,7,7,4,8,4,5,8,149,1635,
scooby_state_55fb304d706a|54|9 1378,6,4,7,4,7,8,6,4,4,6,5,3,1,190,1633,
scooby_state_55fb304d706a|38|14 1405,11,7,1,7,9,8,10,7,3,4,5,5,3,147,1632,
scooby_state_55fb304d706a|16|12 1394,2,7,9,7,4,8,4,4,5,6,8,4,4,159,1625,
scooby_state_55fb304d706a|47|10 1360,8,7,4,9,5,7,6,6,1,5,10,6,4,185,1623,
[...]
scooby_state_14f59f3e9102|4|1 1,0,0,0,0,0,0,0,0,0,0,0,0,0,0,1,
scooby_state_14f59f3b0cd6|21|8 1,0,0,0,0,0,0,0,0,0,0,0,0,0,0,1,
scooby_state_14f59f3b2842|33|1 1,0,0,0,0,0,0,0,0,0,0,0,0,0,0,1,
scooby_state_14f59f3ae8b0|34|1 1,0,0,0,0,0,0,0,0,0,0,0,0,0,0,1,
scooby_state_14f59f3e6b40|45|21 1,0,0,0,0,0,0,0,0,0,0,0,0,0,0,1,
scooby_state_14f59f403620|24|19 1,0,0,0,0,0,0,0,0,0,0,0,0,0,0,1,
scooby_state_14f59f3ad3c3|57|-3 1,0,0,0,0,0,0,0,0,0,0,0,0,0,0,1,
scooby_state_14f59f3b2b83|46|1 1,0,0,0,0,0,0,0,0,0,0,0,0,0,0,1,
scooby_state_14f59f3e9070|1|0 1,0,0,0,0,0,0,0,0,0,0,0,0,0,0,1,
scooby_state_14f59f3a525f|9|1 1,0,0,0,0,0,0,0,0,0,0,0,0,0,0,1,
scooby_state_14f59f3b1c1e|48|1 1,0,0,0,0,0,0,0,0,0,0,0,0,0,0,1,
scooby_state_14f59f484230|60|0 1,0,0,0,0,0,0,0,0,0,0,0,0,0,0,1,
scooby_state_14f59f3b2960|37|3 1,0,0,0,0,0,0,0,0,0,0,0,0,0,0,1,
scooby_state_14f59f3d0182|6|1 1,0,0,0,0,0,0,0,0,0,0,0,0,0,0,1,
scooby_state_14f59f3b2894|34|1 1,0,0,0,0,0,0,0,0,0,0,0,0,0,0,1,
scooby_state_14f59f403646|31|0 1,0,0,0,0,0,0,0,0,0,0,0,0,0,0,1,
scooby_state_14f59f3d0100|4|0 1,0,0,0,0,0,0,0,0,0,0,0,0,0,0,1,
scooby_state_14f59f3af090|2|-34 1,0,0,0,0,0,0,0,0,0,0,0,0,0,0,1,
scooby_state_14f59f40d440|17|0 1,0,0,0,0,0,0,0,0,0,0,0,0,0,0,1,
scooby_state_55fb304d70c4|3|0 1,0,0,0,0,0,0,0,0,0,0,0,0,0,0,1,
scooby_state_14f59f3b1001|0|-8 1,0,0,0,0,0,0,0,0,0,0,0,0,0,0,1,
scooby_state_14f59f3b1ac8|43|6 1,0,0,0,0,0,0,0,0,0,0,0,0,0,0,1,
scooby_state_14f59f3e6699|26|-9 1,0,0,0,0,0,0,0,0,0,0,0,0,0,0,1,
scooby_state_14f59f3ae840|33|-7 1,0,0,0,0,0,0,0,0,0,0,0,0,0,0,1,
scooby_state_14f59f3e68f4|48|0 1,0,0,0,0,0,0,0,0,0,0,0,0,0,0,1,
scooby_state_14f59f3b0cc2|51|1 1,0,0,0,0,0,0,0,0,0,0,0,0,0,0,1,
scooby_state_14f59f3e7123|48|0 1,0,0,0,0,0,0,0,0,0,0,0,0,0,0,1,
scooby_state_14f59f3ae461|32|10 1,0,0,0,0,0,0,0,0,0,0,0,0,0,0,1,
scooby_state_14f59f3b1204|8|1 1,0,0,0,0,0,0,0,0,0,0,0,0,0,0,1,
scooby_state_14f59f4820b0|22|0 1,0,0,0,0,0,0,0,0,0,0,0,0,0,0,1,
scooby_state_14f59f3b1a06|40|1 1,0,0,0,0,0,0,0,0,0,0,0,0,0,0,1,
scooby_state_14f59f3e6998|38|15 1,0,0,0,0,0,0,0,0,0,0,0,0,0,0,1,
scooby_state_14f59f3e02c0|11|1 1,0,0,0,0,0,0,0,0,0,0,0,0,0,0,1,
scooby_state_14f59f3e62d0|11|0 1,0,0,0,0,0,0,0,0,0,0,0,0,0,0,1,
scooby_state_14f59f3b16c0|27|-29 1,0,0,0,0,0,0,0,0,0,0,0,0,0,0,1,
scooby_state_14f59f3b19f0|39|-4 1,0,0,0,0,0,0,0,0,0,0,0,0,0,0,1,
scooby_state_14f59f3b1945|37|1 1,0,0,0,0,0,0,0,0,0,0,0,0,0,0,1,
scooby_state_14f59f3e64c1|19|1 1,0,0,0,0,0,0,0,0,0,0,0,0,0,0,1,
scooby_state_14f59f3e04a0|18|1 1,0,0,0,0,0,0,0,0,0,0,0,0,0,0,1,
scooby_state_14f59f3e65f4|18|-1 1,0,0,0,0,0,0,0,0,0,0,0,0,0,0,1,
scooby_state_14f59f3aed24|52|52 1,0,0,0,0,0,0,0,0,0,0,0,0,0,0,1,
scooby_state_14f59f3a5285|10|1 1,0,0,0,0,0,0,0,0,0,0,0,0,0,0,1,
scooby_state_14f59f3d2381|14|1 1,0,0,0,0,0,0,0,0,0,0,0,0,0,0,1,
scooby_state_14f59f3a59d4|39|4 1,0,0,0,0,0,0,0,0,0,0,0,0,0,0,1,
scooby_state_14f59f3e90af|53|-6 1,0,0,0,0,0,0,0,0,0,0,0,0,0,0,1,
scooby_state_14f59f3b0c60|49|0 1,0,0,0,0,0,0,0,0,0,0,0,0,0,0,1,
scooby_state_14f59f3dd180|6|-33 1,0,0,0,0,0,0,0,0,0,0,0,0,0,0,1,
scooby_state_14f59f4842c3|11|1 1,0,0,0,0,0,0,0,0,0,0,0,0,0,0,1,
scooby_state_14f59f3e90cf|11|-37 1,0,0,0,0,0,0,0,0,0,0,0,0,0,0,1,
scooby_state_14f59f3df380|14|-4 1,0,0,0,0,0,0,0,0,0,0,0,0,0,0,1,
scooby_state_14f59f3e91a0|6|4 1,0,0,0,0,0,0,0,0,0,0,0,0,0,0,1,
scooby_state_14f59f3b1e90|58|4 1,0,0,0,0,0,0,0,0,0,0,0,0,0,0,1,
scooby_state_55fb304d7047|1|0 1,0,0,0,0,0,0,0,0,0,0,0,0,0,0,1,
scooby_state_14f59f484240|61|0 1,0,0,0,0,0,0,0,0,0,0,0,0,0,0,1,
scooby_state_14f59f3ad530|11|0 1,0,0,0,0,0,0,0,0,0,0,0,0,0,0,1,
scooby_state_14f59f3ad643|25|1 1,0,0,0,0,0,0,0,0,0,0,0,0,0,0,1,
scooby_state_55fb304d700d|10|0 1,0,0,0,0,0,0,0,0,0,0,0,0,0,0,1,
scooby_state_14f59f3e6603|24|-29 1,0,0,0,0,0,0,0,0,0,0,0,0,0,0,1,
scooby_state_14f59f3d2284|10|1 1,0,0,0,0,0,0,0,0,0,0,0,0,0,0,1,
scooby_state_14f59f3deea0|58|0 1,0,0,0,0,0,0,0,0,0,0,0,0,0,0,1,
scooby_state_14f59f3b22c0|11|5 1,0,0,0,0,0,0,0,0,0,0,0,0,0,0,1,
scooby_state_14f59f3b2801|32|1 1,0,0,0,0,0,0,0,0,0,0,0,0,0,0,1,
scooby_state_14f59f3b1df8|55|54 1,0,0,0,0,0,0,0,0,0,0,0,0,0,0,1,
scooby_state_14f59f3b2b44|45|7 1,0,0,0,0,0,0,0,0,0,0,0,0,0,0,1,
scooby_state_14f59f3aea18|40|0 1,0,0,0,0,0,0,0,0,0,0,0,0,0,0,1,
scooby_state_14f59f484264|35|0 1,0,0,0,0,0,0,0,0,0,0,0,0,0,0,1,
scooby_state_14f59f3afec0|59|1 1,0,0,0,0,0,0,0,0,0,0,0,0,0,0,1,
scooby_state_14f59f3e70e6|49|1 1,0,0,0,0,0,0,0,0,0,0,0,0,0,0,1,
scooby_state_14f59f403644|25|1 1,0,0,0,0,0,0,0,0,0,0,0,0,0,0,1,
scooby_state_14f59f3ad3bc|57|-4 1,0,0,0,0,0,0,0,0,0,0,0,0,0,0,1,
scooby_state_14f59f3ae9c1|39|1 1,0,0,0,0,0,0,0,0,0,0,0,0,0,0,1,
scooby_state_14f59f3adf02|60|1 1,0,0,0,0,0,0,0,0,0,0,0,0,0,0,1,
scooby_state_14f59f3a5230|8|0 1,0,0,0,0,0,0,0,0,0,0,0,0,0,0,1,
scooby_state_14f59f3b0c85|50|1 1,0,0,0,0,0,0,0,0,0,0,0,0,0,0,1,
scooby_state_14f59f3e68e8|13|-5 1,0,0,0,0,0,0,0,0,0,0,0,0,0,0,1,
scooby_state_14f59f3df370|13|1 1,0,0,0,0,0,0,0,0,0,0,0,0,0,0,1,
scooby_state_14f59f3aed44|53|1 1,0,0,0,0,0,0,0,0,0,0,0,0,0,0,1,
scooby_state_14f59f3e6f73|61|35 1,0,0,0,0,0,0,0,0,0,0,0,0,0,0,1,
scooby_state_14f59f373100|4|-4 1,0,0,0,0,0,0,0,0,0,0,0,0,0,0,1,
scooby_state_14f59f484305|12|1 1,0,0,0,0,0,0,0,0,0,0,0,0,0,0,1,
scooby_state_14f59f3e6f73|36|-1 1,0,0,0,0,0,0,0,0,0,0,0,0,0,0,1,
scooby_state_14f59f3ad981|38|1 1,0,0,0,0,0,0,0,0,0,0,0,0,0,0,1,
scooby_state_14f59f3e90c1|58|1 1,0,0,0,0,0,0,0,0,0,0,0,0,0,0,1,
scooby_state_14f59f3b2dc3|55|9 1,0,0,0,0,0,0,0,0,0,0,0,0,0,0,1,
scooby_state_14f59f3dda01|40|34 1,0,0,0,0,0,0,0,0,0,0,0,0,0,0,1,
scooby_state_14f59f3afe08|56|0 1,0,0,0,0,0,0,0,0,0,0,0,0,0,0,1,
scooby_state_14f59f3e70e6|3|0 1,0,0,0,0,0,0,0,0,0,0,0,0,0,0,1,
scooby_state_14f59f3b1be0|47|2 1,0,0,0,0,0,0,0,0,0,0,0,0,0,0,1,
scooby_state_55fb304d6fe0|63|0 1,0,0,0,0,0,0,0,0,0,0,0,0,0,0,1,
scooby_state_14f59f3b11c6|56|0 1,0,0,0,0,0,0,0,0,0,0,0,0,0,0,1,
scooby_state_14f59f3af3da|15|-44 1,0,0,0,0,0,0,0,0,0,0,0,0,0,0,1,
scooby_state_14f59f3b2182|6|-44 1,0,0,0,0,0,0,0,0,0,0,0,0,0,0,1,
scooby_state_14f59f3e0300|12|0 1,0,0,0,0,0,0,0,0,0,0,0,0,0,0,1,
scooby_state_14f59f3dd9ea|10|-1 1,0,0,0,0,0,0,0,0,0,0,0,0,0,0,1,
scooby_state_14f59f3ad706|28|1 1,0,0,0,0,0,0,0,0,0,0,0,0,0,0,1,
scooby_state_14f59f3e0530|20|2 1,0,0,0,0,0,0,0,0,0,0,0,0,0,0,1,
scooby_state_14f59f3e6d40|53|1 1,0,0,0,0,0,0,0,0,0,0,0,0,0,0,1,
scooby_state_14f59f403143|11|0 1,0,0,0,0,0,0,0,0,0,0,0,0,0,0,1,
scooby_state_14f59f3e6504|20|1 1,0,0,0,0,0,0,0,0,0,0,0,0,0,0,1,
scooby_state_14f59f3e6480|18|1 1,0,0,0,0,0,0,0,0,0,0,0,0,0,0,1,
scooby_state_14f59f3b0982|38|1 1,0,0,0,0,0,0,0,0,0,0,0,0,0,0,1,
scooby_state_55fb304d703f|31|0 1,0,0,0,0,0,0,0,0,0,0,0,0,0,0,1,
scooby_state_14f59f3ad67a|43|0 1,0,0,0,0,0,0,0,0,0,0,0,0,0,0,1,
scooby_state_14f59f484203|8|1 1,0,0,0,0,0,0,0,0,0,0,0,0,0,0,1,
scooby_state_14f59f3e7100|4|1 1,0,0,0,0,0,0,0,0,0,0,0,0,0,0,1,
scooby_state_14f59f3afee7|44|4 1,0,0,0,0,0,0,0,0,0,0,0,0,0,0,1,
scooby_state_14f59f3b136f|13|-45 1,0,0,0,0,0,0,0,0,0,0,0,0,0,0,1,
scooby_state_14f59f3ad945|37|1 1,0,0,0,0,0,0,0,0,0,0,0,0,0,0,1,
scooby_state_14f59f3df490|18|5 1,0,0,0,0,0,0,0,0,0,0,0,0,0,0,1,
scooby_state_14f59f484247|33|0 1,0,0,0,0,0,0,0,0,0,0,0,0,0,0,1,
scooby_state_14f59f4617b0|30|0 1,0,0,0,0,0,0,0,0,0,0,0,0,0,0,1,
scooby_state_14f59f3e6648|25|-20 1,0,0,0,0,0,0,0,0,0,0,0,0,0,0,1,
scooby_state_14f59f3ae006|0|-61 1,0,0,0,0,0,0,0,0,0,0,0,0,0,0,1,
scooby_state_14f59f3e6540|21|1 1,0,0,0,0,0,0,0,0,0,0,0,0,0,0,1,
scooby_state_14f59f3ad5c8|23|3 1,0,0,0,0,0,0,0,0,0,0,0,0,0,0,1,
scooby_state_14f59f3d22c6|11|1 1,0,0,0,0,0,0,0,0,0,0,0,0,0,0,1,
scooby_state_14f59f3ad930|36|-27 1,0,0,0,0,0,0,0,0,0,0,0,0,0,0,1,
scooby_state_14f59f40d567|21|4 1,0,0,0,0,0,0,0,0,0,0,0,0,0,0,1,
scooby_state_14f59f3adfea|63|1 1,0,0,0,0,0,0,0,0,0,0,0,0,0,0,1,
scooby_state_14f59f3aa7c0|31|1 1,0,0,0,0,0,0,0,0,0,0,0,0,0,0,1,
scooby_state_14f59f3dd941|37|1 1,0,0,0,0,0,0,0,0,0,0,0,0,0,0,1,
scooby_state_14f59f3aa840|33|2 1,0,0,0,0,0,0,0,0,0,0,0,0,0,0,1,
scooby_state_14f59f3e642a|16|-45 1,0,0,0,0,0,0,0,0,0,0,0,0,0,0,1,
scooby_state_14f59f40d578|1|0 1,0,0,0,0,0,0,0,0,0,0,0,0,0,0,1,
scooby_state_14f59f373230|8|-3 1,0,0,0,0,0,0,0,0,0,0,0,0,0,0,1,
scooby_state_14f59f3af8db|35|20 1,0,0,0,0,0,0,0,0,0,0,0,0,0,0,1,
scooby_state_14f59f3dd930|36|0 1,0,0,0,0,0,0,0,0,0,0,0,0,0,0,1,
scooby_state_14f59f3af42d|16|16 1,0,0,0,0,0,0,0,0,0,0,0,0,0,0,1,
scooby_state_14f59f3e9212|8|4 1,0,0,0,0,0,0,0,0,0,0,0,0,0,0,1,
scooby_state_14f59f3aedf0|55|12 1,0,0,0,0,0,0,0,0,0,0,0,0,0,0,1,
scooby_state_14f59f3b2985|38|1 1,0,0,0,0,0,0,0,0,0,0,0,0,0,0,1,
scooby_state_14f59f3aee03|56|12 1,0,0,0,0,0,0,0,0,0,0,0,0,0,0,1,
scooby_state_14f59f3ad3c3|15|1 1,0,0,0,0,0,0,0,0,0,0,0,0,0,0,1,
scooby_state_14f59f40d58f|22|1 1,0,0,0,0,0,0,0,0,0,0,0,0,0,0,1,
scooby_state_14f59f3ad494|18|1 1,0,0,0,0,0,0,0,0,0,0,0,0,0,0,1,
scooby_state_14f59f3b11d1|15|14 1,0,0,0,0,0,0,0,0,0,0,0,0,0,0,1,
scooby_state_14f59f3e0350|13|1 1,0,0,0,0,0,0,0,0,0,0,0,0,0,0,1,
scooby_state_14f59f3e658f|19|-11 1,0,0,0,0,0,0,0,0,0,0,0,0,0,0,1,
scooby_state_14f59f3ae8d7|35|1 1,0,0,0,0,0,0,0,0,0,0,0,0,0,0,1,
scooby_state_14f59f3b1809|32|1 1,0,0,0,0,0,0,0,0,0,0,0,0,0,0,1,
scooby_state_14f59f3b2c8e|50|45 1,0,0,0,0,0,0,0,0,0,0,0,0,0,0,1,
scooby_state_14f59f3b3252|9|-20 1,0,0,0,0,0,0,0,0,0,0,0,0,0,0,1,
scooby_state_14f59f3e6581|22|1 1,0,0,0,0,0,0,0,0,0,0,0,0,0,0,1,
scooby_state_14f59f3aebc5|47|1 1,0,0,0,0,0,0,0,0,0,0,0,0,0,0,1,
scooby_state_14f59f3aeb44|45|-11 1,0,0,0,0,0,0,0,0,0,0,0,0,0,0,1,
scooby_state_14f59f3e0540|21|1 1,0,0,0,0,0,0,0,0,0,0,0,0,0,0,1,
scooby_state_14f59f3b27c2|31|1 1,0,0,0,0,0,0,0,0,0,0,0,0,0,0,1,
scooby_state_14f59f3aa7b0|30|0 1,0,0,0,0,0,0,0,0,0,0,0,0,0,0,1,
scooby_state_14f59f3b1da0|54|3 1,0,0,0,0,0,0,0,0,0,0,0,0,0,0,1,
scooby_state_14f59f3af902|36|1 1,0,0,0,0,0,0,0,0,0,0,0,0,0,0,1,
scooby_state_55fb304d7083|2|1 1,0,0,0,0,0,0,0,0,0,0,0,0,0,0,1,
scooby_state_14f59f3af028|0|-2 1,0,0,0,0,0,0,0,0,0,0,0,0,0,0,1,
scooby_state_55fb304d702d|8|0 1,0,0,0,0,0,0,0,0,0,0,0,0,0,0,1,
scooby_state_14f59f3df3c3|15|1 1,0,0,0,0,0,0,0,0,0,0,0,0,0,0,1,
scooby_state_14f59f3dd951|30|-2 1,0,0,0,0,0,0,0,0,0,0,0,0,0,0,1,
scooby_state_14f59f3aec02|48|1 1,0,0,0,0,0,0,0,0,0,0,0,0,0,0,1,
scooby_state_14f59f3af442|17|1 1,0,0,0,0,0,0,0,0,0,0,0,0,0,0,1,
scooby_state_14f59f3e90c1|3|-3 1,0,0,0,0,0,0,0,0,0,0,0,0,0,0,1,
scooby_state_14f59f3adeb8|58|30 1,0,0,0,0,0,0,0,0,0,0,0,0,0,0,1,
scooby_state_14f59f3ad501|20|1 1,0,0,0,0,0,0,0,0,0,0,0,0,0,0,1,
scooby_state_14f59f3e6303|12|1 1,0,0,0,0,0,0,0,0,0,0,0,0,0,0,1,
scooby_state_14f59f403143|5|1 1,0,0,0,0,0,0,0,0,0,0,0,0,0,0,1,
scooby_state_14f59f3ad682|26|1 1,0,0,0,0,0,0,0,0,0,0,0,0,0,0,1,
scooby_state_14f59f3ad390|14|0 1,0,0,0,0,0,0,0,0,0,0,0,0,0,0,1,
scooby_state_14f59f3ad440|17|1 1,0,0,0,0,0,0,0,0,0,0,0,0,0,0,1,
scooby_state_55fb304d6fe0|8|0 0,1,0,0,0,0,0,0,0,0,0,0,0,0,0,1,
scooby_state_14f59f484346|13|1 1,0,0,0,0,0,0,0,0,0,0,0,0,0,0,1,
scooby_state_14f59f3ae941|37|1 1,0,0,0,0,0,0,0,0,0,0,0,0,0,0,1,
scooby_state_14f59f3d0173|38|0 1,0,0,0,0,0,0,0,0,0,0,0,0,0,0,1,
scooby_state_14f59f3ad601|24|1 1,0,0,0,0,0,0,0,0,0,0,0,0,0,0,1,
scooby_state_55fb304d5510|54|0 1,0,0,0,0,0,0,0,0,0,0,0,0,0,0,1,
scooby_state_14f59f3b278a|30|2 1,0,0,0,0,0,0,0,0,0,0,0,0,0,0,1,
scooby_state_14f59f3e9080|2|1 1,0,0,0,0,0,0,0,0,0,0,0,0,0,0,1,
scooby_state_14f59f3ae910|36|19 1,0,0,0,0,0,0,0,0,0,0,0,0,0,0,1,
scooby_state_14f59f48424b|29|-4 1,0,0,0,0,0,0,0,0,0,0,0,0,0,0,1,
scooby_state_14f59f3e7242|9|4 1,0,0,0,0,0,0,0,0,0,0,0,0,0,0,1,
scooby_state_14f59f3d2260|9|0 1,0,0,0,0,0,0,0,0,0,0,0,0,0,0,1,
scooby_state_14f59f484240|9|1 1,0,0,0,0,0,0,0,0,0,0,0,0,0,0,1,
scooby_state_14f59f3b231f|12|1 1,0,0,0,0,0,0,0,0,0,0,0,0,0,0,1,
scooby_state_14f59f3ae21b|8|-40 1,0,0,0,0,0,0,0,0,0,0,0,0,0,0,1,
scooby_state_14f59f484254|31|2 1,0,0,0,0,0,0,0,0,0,0,0,0,0,0,1,
scooby_state_14f59f3b1043|1|1 1,0,0,0,0,0,0,0,0,0,0,0,0,0,0,1,
scooby_state_14f59f3b0890|34|-29 1,0,0,0,0,0,0,0,0,0,0,0,0,0,0,1,
scooby_state_14f59f3d01d8|7|1 1,0,0,0,0,0,0,0,0,0,0,0,0,0,0,1,
scooby_state_14f59f3ad6c4|27|1 1,0,0,0,0,0,0,0,0,0,0,0,0,0,0,1,
scooby_state_14f59f3b1788|30|3 1,0,0,0,0,0,0,0,0,0,0,0,0,0,0,1,
scooby_state_14f59f403120|4|0 1,0,0,0,0,0,0,0,0,0,0,0,0,0,0,1,
scooby_state_14f59f3b0978|37|3 1,0,0,0,0,0,0,0,0,0,0,0,0,0,0,1,
scooby_state_14f59f3dd9c2|39|1 1,0,0,0,0,0,0,0,0,0,0,0,0,0,0,1,
scooby_state_14f59f484280|10|1 1,0,0,0,0,0,0,0,0,0,0,0,0,0,0,1,
scooby_state_55fb304d7050|53|1 1,0,0,0,0,0,0,0,0,0,0,0,0,0,0,1,
scooby_state_55fb304d7000|0|-3 1,0,0,0,0,0,0,0,0,0,0,0,0,0,0,1,
scooby_state_14f59f3e6450|17|5 1,0,0,0,0,0,0,0,0,0,0,0,0,0,0,1,
scooby_state_14f59f3ad586|22|1 1,0,0,0,0,0,0,0,0,0,0,0,0,0,0,1,
scooby_state_14f59f373230|5|-45 1,0,0,0,0,0,0,0,0,0,0,0,0,0,0,1,
scooby_state_14f59f3aeb11|44|-11 1,0,0,0,0,0,0,0,0,0,0,0,0,0,0,1,
scooby_state_14f59f3b11c2|7|1 1,0,0,0,0,0,0,0,0,0,0,0,0,0,0,1,

scooby_action_0_deg_dist 0,483429,0,0,0,0,0,0,0,0,0,0,0,0,0,0,
scooby_action_4_deg_dist 0,13189,40,0,5,0,0,0,0,0,0,0,0,0,0,0,
scooby_action_3_deg_dist 0,13607,62,0,14,0,0,0,0,0,0,0,0,0,0,0,
scooby_action_32_deg_dist 0,8442,4,0,0,0,0,0,0,0,0,0,0,0,0,0,
scooby_action_5_deg_dist 0,12864,66,0,19,0,0,0,0,0,0,0,0,0,0,0,
scooby_action_1_deg_dist 0,7216806,379074,0,246476,0,693015,0,0,0,0,0,0,0,0,0,
scooby_action_30_deg_dist 0,8347,1,0,0,0,0,0,0,0,0,0,0,0,0,0,
scooby_action_-3_deg_dist 0,10742,22,0,9,0,0,0,0,0,0,0,0,0,0,0,
scooby_action_10_deg_dist 0,11667,33,0,20,0,88,0,0,0,0,0,0,0,0,0,
scooby_action_-1_deg_dist 0,10704,18,0,0,0,0,0,0,0,0,0,0,0,0,0,
scooby_action_23_deg_dist 0,9583,15,0,2,0,0,0,0,0,0,0,0,0,0,0,
scooby_action_-6_deg_dist 0,10651,12,0,0,0,0,0,0,0,0,0,0,0,0,0,
scooby_action_11_deg_dist 0,11159,15,0,2,0,0,0,0,0,0,0,0,0,0,0,
scooby_action_22_deg_dist 0,9501,10,0,0,0,0,0,0,0,0,0,0,0,0,0,
scooby_action_12_deg_dist 0,11097,22,0,10,0,26,0,0,0,0,0,0,0,0,0,

scooby_track_called 9160868
scooby_track_same_address 6864
scooby_track_evict 9153748

scooby_reward_demand_called 9160868
scooby_reward_demand_pt_not_found 8182712
scooby_reward_demand_pt_found 978156
scooby_reward_demand_pt_found_total 978156
scooby_reward_demand_has_reward 15
scooby_reward_train_called 8019882
scooby_reward_assign_reward_called 9153764
scooby_reward_no_pref 483424
scooby_reward_incorrect 7536458
scooby_reward_correct_untimely 748633
scooby_reward_correct_timely 229508
scooby_reward_out_of_bounds 155741
scooby_reward_tracker_hit 0

scooby_reward_none_low_bw 483424
scooby_reward_none_high_bw 0
scooby_reward_incorrect_low_bw 7536458
scooby_reward_incorrect_high_bw 0
scooby_reward_correct_untimely_low_bw 748633
scooby_reward_correct_untimely_high_bw 0
scooby_reward_correct_timely_low_bw 229508
scooby_reward_correct_timely_high_bw 0
scooby_reward_out_of_bounds_low_bw 155741
scooby_reward_out_of_bounds_high_bw 0
scooby_reward_tracker_hit_low_bw 0
scooby_reward_tracker_hit_high_bw 0

scooby_reward_1 0,7435539,747453,225497,123322,0,
scooby_reward_3 0,11631,281,610,1001,0,
scooby_reward_4 0,10947,277,560,1296,0,
scooby_reward_5 0,10195,211,526,1541,0,
scooby_reward_10 0,8261,165,576,2687,0,
scooby_reward_11 0,7544,68,457,2806,0,
scooby_reward_12 0,7331,95,491,3046,0,
scooby_reward_22 0,4493,34,220,4431,0,
scooby_reward_23 0,4347,27,270,4542,0,
scooby_reward_30 0,2988,7,158,5177,0,
scooby_reward_32 0,2698,13,132,5308,0,
scooby_reward_-1 0,10360,1,7,48,0,
scooby_reward_-3 0,10243,1,2,156,0,
scooby_reward_-6 0,9881,0,2,380,0,
scooby_reward_0 483424,0,0,0,0,0,

scooby_train_called 9153747
scooby_train_compute_reward 8019882

scooby_register_fill_called 8451569
scooby_register_fill_set 6949726
scooby_register_fill_set_total 6949726

scooby_register_prefetch_hit_called 3841884
scooby_register_prefetch_hit_set 1532153
scooby_register_prefetch_hit_set_total 1532153

scooby_pref_issue_scooby 12739083

learning_engine_featurewise.action.called 9160868
learning_engine_featurewise.action.explore 16575
learning_engine_featurewise.action.exploit 9144293
learning_engine_featurewise.action.fallback 7484437
learning_engine_featurewise.action.dyn_fallback_saved_bw 0
learning_engine_featurewise.action.dyn_fallback_saved_bw_acc 843914
learning_engine_featurewise.action.index_1_explored 1136
learning_engine_featurewise.action.index_1_exploited 8534235
learning_engine_featurewise.action.index_3_explored 1093
learning_engine_featurewise.action.index_3_exploited 12590
learning_engine_featurewise.action.index_4_explored 1108
learning_engine_featurewise.action.index_4_exploited 12126
learning_engine_featurewise.action.index_5_explored 1071
learning_engine_featurewise.action.index_5_exploited 11878
learning_engine_featurewise.action.index_10_explored 1145
learning_engine_featurewise.action.index_10_exploited 10663
learning_engine_featurewise.action.index_11_explored 1111
learning_engine_featurewise.action.index_11_exploited 10065
learning_engine_featurewise.action.index_12_explored 1148
learning_engine_featurewise.action.index_12_exploited 10007
learning_engine_featurewise.action.index_22_explored 1113
learning_engine_featurewise.action.index_22_exploited 8398
learning_engine_featurewise.action.index_23_explored 1097
learning_engine_featurewise.action.index_23_exploited 8503
learning_engine_featurewise.action.index_30_explored 1086
learning_engine_featurewise.action.index_30_exploited 7262
learning_engine_featurewise.action.index_32_explored 1051
learning_engine_featurewise.action.index_32_exploited 7395
learning_engine_featurewise.action.index_-1_explored 1109
learning_engine_featurewise.action.index_-1_exploited 9613
learning_engine_featurewise.action.index_-3_explored 1097
learning_engine_featurewise.action.index_-3_exploited 9676
learning_engine_featurewise.action.index_-6_explored 1100
learning_engine_featurewise.action.index_-6_exploited 9563
learning_engine_featurewise.action.index_0_explored 1110
learning_engine_featurewise.action.index_0_exploited 482319
learning_engine_featurewise.learn.called 9153747
learning_engine_featurewise.learn.su_skip_PC 0
learning_engine_featurewise.learn.su_skip_PC_Delta 0

learning_engine_featurewise.q_value_histogram.bucket_0 734717
learning_engine_featurewise.q_value_histogram.bucket_1 10769
learning_engine_featurewise.q_value_histogram.bucket_2 7528595
learning_engine_featurewise.q_value_histogram.bucket_3 50765
learning_engine_featurewise.q_value_histogram.bucket_4 54667
learning_engine_featurewise.q_value_histogram.bucket_5 558087
learning_engine_featurewise.q_value_histogram.bucket_6 206693
learning_engine_featurewise.q_value_histogram.bucket_7 0

learning_engine_featurewise.consensus.total 9144293
learning_engine_featurewise.consensus.feature_align_PC 8537373
learning_engine_featurewise.consensus.feature_align_PC_ratio 0.93
learning_engine_featurewise.consensus.feature_align_PC_Delta 8563205
learning_engine_featurewise.consensus.feature_align_PC_Delta_ratio 0.94
learning_engine_featurewise.consensus.feature_align_all 8535863
learning_engine_featurewise.consensus.feature_align_all_ratio 0.93

learning_engine_featurewise.feature_PC_min_weight 1000000.00000000
learning_engine_featurewise.feature_PC_max_weight 0.00000000
learning_engine_featurewise.feature_PC_Delta_min_weight 1000000.00000000
learning_engine_featurewise.feature_PC_Delta_max_weight 0.00000000
unique_pcs 270
unique_pages 12623
unique_trigger_pcs 56
total_bitmaps_seen 0
unique_bitmaps_seen 0

scooby_bw_epochs 3856749
scooby_bw_level_0 3476571
scooby_bw_level_1 326097
scooby_bw_level_2 40022
scooby_bw_level_3 14059

scooby_ipc_epochs 0
scooby_ipc_level_0 0
scooby_ipc_level_1 0
scooby_ipc_level_2 0
scooby_ipc_level_3 0

scooby_cache_acc_epochs 963161
scooby_cache_acc_level_0 505253
scooby_cache_acc_level_1 378253
scooby_cache_acc_level_2 64781
scooby_cache_acc_level_3 8287
scooby_cache_acc_level_4 918
scooby_cache_acc_level_5 322
scooby_cache_acc_level_6 45
scooby_cache_acc_level_7 30
scooby_cache_acc_level_8 123
scooby_cache_acc_level_9 5149

Channel_0_RQ_row_buffer_hit 1392258
Channel_0_RQ_row_buffer_miss 5091508
Channel_0_WQ_row_buffer_hit 21407
Channel_0_WQ_row_buffer_miss 28451
Channel_0_WQ_full 0
Channel_0_dbus_congested 2023270

avg_congested_cycle 5

DRAM_bw_pochs 3856749
DRAM_bw_level_0 3476571
DRAM_bw_level_1 326097
DRAM_bw_level_2 40022
DRAM_bw_level_3 14059
