*************************************************
   ChampSim Multicore Out-of-Order Simulator
   Last compiled: Apr  3 2025 20:54:34
*************************************************
parsing config file: /home/zir/Pythia/config/nopref.ini

trace_0 /home/zir/ChampSim/ML-DPC/ChampSimTraces/gap/pr-10.trace.gz
adding L2C_PREFETCHER: NONE
Initialize SHIP state
warmup_instructions 10000000
simulation_instructions 50000000
champsim_seed 97
measure_ipc 0
measure_ipc_epoch 1000
measure_dram_bw 1
measure_dram_bw_epoch 256
measure_cache_acc 1
measure_cache_acc_epoch 1024
l1d_perfect 0
l2c_perfect 0
llc_perfect 0
l1d_semi_perfect 0
l2c_semi_perfect 0
llc_semi_perfect 0
semi_perfect_cache_page_buffer_size 64

num_cpus 1
cpu_freq 4000
dram_io_freq 2400
page_size 4096
block_size 64
max_read_per_cycle 8
max_fill_per_cycle 1
dram_channels 1
log2_dram_channels 0
dram_ranks 1
dram_banks 8
dram_rows 65536
dram_columns 128
dram_row_size 8
dram_size 4096
dram_pages 1048576

fetch_width 6
decode_width 6
exec_width 4
lq_width 2
sq_width 2
retire_width 4
scheduler_size 128
branch_mispredict_penalty 20
rob_size 256
lq_size 72
sq_size 56
num_instr_destinations_sparc 4
num_instr_destinations 2
num_instr_sources 4

itlb_set 16
itlb_way 8
itlb_rq_size 16
itlb_wq_size 16
itlb_pq_size 0
itlb_mshr_size 8
itlb_latency 1

dtlb_set 16
dtlb_way 4
dtlb_rq_size 16
dtlb_wq_size 16
dtlb_pq_size 0
dtlb_mshr_size 8
dtlb_latency 1

stlb_set 128
stlb_way 12
stlb_rq_size 32
stlb_wq_size 32
stlb_pq_size 0
stlb_mshr_size 16
stlb_latency 8

l1i_size 32
l1i_set 64
l1i_way 8
l1i_rq_size 64
l1i_wq_size 64
l1i_pq_size 8
l1i_mshr_size 8
l1i_latency 1

l1d_size 32
l1d_set 64
l1d_way 8
l1d_rq_size 64
l1d_wq_size 64
l1d_pq_size 8
l1d_mshr_size 16
l1d_latency 4

l2c_size 256
l2c_set 512
l2c_way 8
l2c_rq_size 32
l2c_wq_size 32
l2c_pq_size 32
l2c_mshr_size 32
l2c_latency 10

llc_size 2048
llc_set 2048
llc_way 16
llc_rq_size 32
llc_wq_size 32
llc_pq_size 32
llc_mshr_size 64
llc_latency 20

dram_channel_width 8
dram_wq_size 64
dram_rq_size 64
tRP 15
tRCD 15
tCAS 12.5
dram_dbus_turn_around_time 30
dram_write_high_wm 56
dram_write_low_wm 48
min_dram_writes_per_switch 16
dram_mtps 2400
dram_dbus_return_time 13


Heartbeat CPU  0 instructions:    1000003 cycles:     399668 heartbeat IPC: 2.50208 cumulative IPC: 2.50208 (Simulation time: 0 hr 0 min 1 sec) 
Heartbeat CPU  0 instructions:    2000000 cycles:     794367 heartbeat IPC: 2.53357 cumulative IPC: 2.51773 (Simulation time: 0 hr 0 min 3 sec) 
Heartbeat CPU  0 instructions:    3000001 cycles:    1189065 heartbeat IPC: 2.53359 cumulative IPC: 2.52299 (Simulation time: 0 hr 0 min 4 sec) 
Heartbeat CPU  0 instructions:    4000000 cycles:    1583764 heartbeat IPC: 2.53357 cumulative IPC: 2.52563 (Simulation time: 0 hr 0 min 6 sec) 
Heartbeat CPU  0 instructions:    5000003 cycles:    1978503 heartbeat IPC: 2.53333 cumulative IPC: 2.52716 (Simulation time: 0 hr 0 min 8 sec) 
Heartbeat CPU  0 instructions:    6000003 cycles:    2373200 heartbeat IPC: 2.53359 cumulative IPC: 2.52823 (Simulation time: 0 hr 0 min 9 sec) 
Heartbeat CPU  0 instructions:    7000002 cycles:    2767903 heartbeat IPC: 2.53355 cumulative IPC: 2.52899 (Simulation time: 0 hr 0 min 11 sec) 
Heartbeat CPU  0 instructions:    8000000 cycles:    3162603 heartbeat IPC: 2.53356 cumulative IPC: 2.52956 (Simulation time: 0 hr 0 min 12 sec) 
Heartbeat CPU  0 instructions:    9000001 cycles:    3557339 heartbeat IPC: 2.53334 cumulative IPC: 2.52998 (Simulation time: 0 hr 0 min 15 sec) 
Heartbeat CPU  0 instructions:   10000003 cycles:    3952038 heartbeat IPC: 2.53358 cumulative IPC: 2.53034 (Simulation time: 0 hr 0 min 16 sec) 

Warmup complete CPU  0 instructions:   10000003 cycles:    3952038 (Simulation time: 0 hr 0 min 16 sec) 

Heartbeat CPU  0 instructions:   11000001 cycles:    6114815 heartbeat IPC: 0.46237 cumulative IPC: 0.46237 (Simulation time: 0 hr 0 min 18 sec) 
Heartbeat CPU  0 instructions:   12000000 cycles:   17134072 heartbeat IPC: 0.09075 cumulative IPC: 0.15172 (Simulation time: 0 hr 0 min 23 sec) 
Heartbeat CPU  0 instructions:   13000000 cycles:   35962281 heartbeat IPC: 0.05311 cumulative IPC: 0.09372 (Simulation time: 0 hr 0 min 30 sec) 
Heartbeat CPU  0 instructions:   14000003 cycles:   54207584 heartbeat IPC: 0.05481 cumulative IPC: 0.07959 (Simulation time: 0 hr 0 min 37 sec) 
Heartbeat CPU  0 instructions:   15000000 cycles:   72697418 heartbeat IPC: 0.05408 cumulative IPC: 0.07273 (Simulation time: 0 hr 0 min 44 sec) 
Heartbeat CPU  0 instructions:   16000000 cycles:   91174745 heartbeat IPC: 0.05412 cumulative IPC: 0.06879 (Simulation time: 0 hr 0 min 51 sec) 
Heartbeat CPU  0 instructions:   17000003 cycles:  109349702 heartbeat IPC: 0.05502 cumulative IPC: 0.06642 (Simulation time: 0 hr 0 min 58 sec) 
Heartbeat CPU  0 instructions:   18000002 cycles:  127625571 heartbeat IPC: 0.05472 cumulative IPC: 0.06469 (Simulation time: 0 hr 1 min 5 sec) 
Heartbeat CPU  0 instructions:   19000001 cycles:  145871647 heartbeat IPC: 0.05481 cumulative IPC: 0.06342 (Simulation time: 0 hr 1 min 12 sec) 
Heartbeat CPU  0 instructions:   20000000 cycles:  164161888 heartbeat IPC: 0.05467 cumulative IPC: 0.06242 (Simulation time: 0 hr 1 min 19 sec) 
Heartbeat CPU  0 instructions:   21000003 cycles:  182425072 heartbeat IPC: 0.05476 cumulative IPC: 0.06163 (Simulation time: 0 hr 1 min 26 sec) 
Heartbeat CPU  0 instructions:   22000000 cycles:  200699637 heartbeat IPC: 0.05472 cumulative IPC: 0.06099 (Simulation time: 0 hr 1 min 33 sec) 
Heartbeat CPU  0 instructions:   23000002 cycles:  219025815 heartbeat IPC: 0.05457 cumulative IPC: 0.06044 (Simulation time: 0 hr 1 min 40 sec) 
Heartbeat CPU  0 instructions:   24000000 cycles:  237160070 heartbeat IPC: 0.05514 cumulative IPC: 0.06003 (Simulation time: 0 hr 1 min 47 sec) 
Heartbeat CPU  0 instructions:   25000001 cycles:  255480204 heartbeat IPC: 0.05458 cumulative IPC: 0.05964 (Simulation time: 0 hr 1 min 54 sec) 
Heartbeat CPU  0 instructions:   26000003 cycles:  273841901 heartbeat IPC: 0.05446 cumulative IPC: 0.05928 (Simulation time: 0 hr 2 min 1 sec) 
Heartbeat CPU  0 instructions:   27000000 cycles:  292285302 heartbeat IPC: 0.05422 cumulative IPC: 0.05896 (Simulation time: 0 hr 2 min 8 sec) 
Heartbeat CPU  0 instructions:   28000000 cycles:  310174054 heartbeat IPC: 0.05590 cumulative IPC: 0.05878 (Simulation time: 0 hr 2 min 15 sec) 
Heartbeat CPU  0 instructions:   29000000 cycles:  328486185 heartbeat IPC: 0.05461 cumulative IPC: 0.05855 (Simulation time: 0 hr 2 min 22 sec) 
Heartbeat CPU  0 instructions:   30000002 cycles:  346689130 heartbeat IPC: 0.05494 cumulative IPC: 0.05835 (Simulation time: 0 hr 2 min 28 sec) 
Heartbeat CPU  0 instructions:   31000000 cycles:  364987424 heartbeat IPC: 0.05465 cumulative IPC: 0.05817 (Simulation time: 0 hr 2 min 35 sec) 
Heartbeat CPU  0 instructions:   32000000 cycles:  382884946 heartbeat IPC: 0.05587 cumulative IPC: 0.05806 (Simulation time: 0 hr 2 min 42 sec) 
Heartbeat CPU  0 instructions:   33000000 cycles:  401267986 heartbeat IPC: 0.05440 cumulative IPC: 0.05789 (Simulation time: 0 hr 2 min 49 sec) 
Heartbeat CPU  0 instructions:   34000002 cycles:  419539649 heartbeat IPC: 0.05473 cumulative IPC: 0.05775 (Simulation time: 0 hr 2 min 56 sec) 
Heartbeat CPU  0 instructions:   35000000 cycles:  437902661 heartbeat IPC: 0.05446 cumulative IPC: 0.05761 (Simulation time: 0 hr 3 min 3 sec) 
Heartbeat CPU  0 instructions:   36000000 cycles:  456116849 heartbeat IPC: 0.05490 cumulative IPC: 0.05750 (Simulation time: 0 hr 3 min 10 sec) 
Heartbeat CPU  0 instructions:   37000000 cycles:  474378414 heartbeat IPC: 0.05476 cumulative IPC: 0.05739 (Simulation time: 0 hr 3 min 17 sec) 
Heartbeat CPU  0 instructions:   38000001 cycles:  492484286 heartbeat IPC: 0.05523 cumulative IPC: 0.05731 (Simulation time: 0 hr 3 min 24 sec) 
Heartbeat CPU  0 instructions:   39000000 cycles:  510975646 heartbeat IPC: 0.05408 cumulative IPC: 0.05720 (Simulation time: 0 hr 3 min 31 sec) 
Heartbeat CPU  0 instructions:   40000000 cycles:  529295579 heartbeat IPC: 0.05459 cumulative IPC: 0.05711 (Simulation time: 0 hr 3 min 38 sec) 
Heartbeat CPU  0 instructions:   41000001 cycles:  547358630 heartbeat IPC: 0.05536 cumulative IPC: 0.05705 (Simulation time: 0 hr 3 min 45 sec) 
Heartbeat CPU  0 instructions:   42000000 cycles:  565388212 heartbeat IPC: 0.05546 cumulative IPC: 0.05700 (Simulation time: 0 hr 3 min 52 sec) 
Heartbeat CPU  0 instructions:   43000001 cycles:  583726948 heartbeat IPC: 0.05453 cumulative IPC: 0.05692 (Simulation time: 0 hr 3 min 59 sec) 
Heartbeat CPU  0 instructions:   44000000 cycles:  602024090 heartbeat IPC: 0.05465 cumulative IPC: 0.05685 (Simulation time: 0 hr 4 min 6 sec) 
Heartbeat CPU  0 instructions:   45000000 cycles:  619729283 heartbeat IPC: 0.05648 cumulative IPC: 0.05684 (Simulation time: 0 hr 4 min 13 sec) 
Heartbeat CPU  0 instructions:   46000000 cycles:  638051674 heartbeat IPC: 0.05458 cumulative IPC: 0.05677 (Simulation time: 0 hr 4 min 20 sec) 
Heartbeat CPU  0 instructions:   47000000 cycles:  656506330 heartbeat IPC: 0.05419 cumulative IPC: 0.05670 (Simulation time: 0 hr 4 min 27 sec) 
Heartbeat CPU  0 instructions:   48000000 cycles:  674499373 heartbeat IPC: 0.05558 cumulative IPC: 0.05667 (Simulation time: 0 hr 4 min 34 sec) 
Heartbeat CPU  0 instructions:   49000001 cycles:  692370348 heartbeat IPC: 0.05596 cumulative IPC: 0.05665 (Simulation time: 0 hr 4 min 41 sec) 
Heartbeat CPU  0 instructions:   50000000 cycles:  710658320 heartbeat IPC: 0.05468 cumulative IPC: 0.05660 (Simulation time: 0 hr 4 min 47 sec) 
Heartbeat CPU  0 instructions:   51000003 cycles:  728998993 heartbeat IPC: 0.05452 cumulative IPC: 0.05655 (Simulation time: 0 hr 4 min 54 sec) 
Heartbeat CPU  0 instructions:   52000000 cycles:  747215217 heartbeat IPC: 0.05490 cumulative IPC: 0.05651 (Simulation time: 0 hr 5 min 1 sec) 
Heartbeat CPU  0 instructions:   53000000 cycles:  765623692 heartbeat IPC: 0.05432 cumulative IPC: 0.05645 (Simulation time: 0 hr 5 min 8 sec) 
Heartbeat CPU  0 instructions:   54000003 cycles:  783848582 heartbeat IPC: 0.05487 cumulative IPC: 0.05642 (Simulation time: 0 hr 5 min 15 sec) 
Heartbeat CPU  0 instructions:   55000003 cycles:  802146184 heartbeat IPC: 0.05465 cumulative IPC: 0.05638 (Simulation time: 0 hr 5 min 25 sec) 
Heartbeat CPU  0 instructions:   56000000 cycles:  820417532 heartbeat IPC: 0.05473 cumulative IPC: 0.05634 (Simulation time: 0 hr 5 min 32 sec) 
Heartbeat CPU  0 instructions:   57000001 cycles:  838636857 heartbeat IPC: 0.05489 cumulative IPC: 0.05631 (Simulation time: 0 hr 5 min 39 sec) 
Heartbeat CPU  0 instructions:   58000002 cycles:  856865900 heartbeat IPC: 0.05486 cumulative IPC: 0.05628 (Simulation time: 0 hr 5 min 46 sec) 
Heartbeat CPU  0 instructions:   59000000 cycles:  875196222 heartbeat IPC: 0.05455 cumulative IPC: 0.05624 (Simulation time: 0 hr 5 min 53 sec) 
Heartbeat CPU  0 instructions:   60000000 cycles:  893543418 heartbeat IPC: 0.05450 cumulative IPC: 0.05621 (Simulation time: 0 hr 6 min 0 sec) 
Finished CPU 0 instructions: 50000001 cycles: 889591416 cumulative IPC: 0.05621 (Simulation time: 0 hr 6 min 0 sec) 

ChampSim completed all CPUs

[ROI Statistics]
Core_0_instructions 50000001
Core_0_cycles 889591416
Core_0_IPC 0.05621

Core_0_branch_prediction_accuracy 96.89645
Core_0_branch_MPKI 5.83534
Core_0_average_ROB_occupancy_at_mispredict 131.19696

Core_0_L1D_total_access 15064832
Core_0_L1D_total_hit 6071749
Core_0_L1D_total_miss 8993083
Core_0_L1D_loads 14423462
Core_0_L1D_load_hit 5439112
Core_0_L1D_load_miss 8984350
Core_0_L1D_RFOs 641370
Core_0_L1D_RFO_hit 632637
Core_0_L1D_RFO_miss 8733
Core_0_L1D_prefetches 0
Core_0_L1D_prefetch_hit 0
Core_0_L1D_prefetch_miss 0
Core_0_L1D_writebacks 0
Core_0_L1D_writeback_hit 0
Core_0_L1D_writeback_miss 0
Core_0_L1D_prefetch_requested 0
Core_0_L1D_prefetch_dropped 0
Core_0_L1D_prefetch_issued 0
Core_0_L1D_prefetch_filled 0
Core_0_L1D_prefetch_useful 0
Core_0_L1D_prefetch_useless 0
Core_0_L1D_prefetch_late 0
Core_0_L1D_average_miss_latency 93.97336

Core_0_L1D_rq_access 19508058
Core_0_L1D_rq_forward 0
Core_0_L1D_rq_merged 3252909
Core_0_L1D_rq_to_cache 16255149
Core_0_L1D_rq_full 0

Core_0_L1D_wq_access 705956
Core_0_L1D_wq_forward 0
Core_0_L1D_wq_merged 0
Core_0_L1D_wq_to_cache 705956
Core_0_L1D_wq_full 0

Core_0_L1D_pq_access 0
Core_0_L1D_pq_forward 0
Core_0_L1D_pq_merged 0
Core_0_L1D_pq_to_cache 0
Core_0_L1D_pq_full 0

Core_0_L1D_acc_epochs 871575
Core_0_L1D_acc_level_0 871575
Core_0_L1D_acc_level_1 0
Core_0_L1D_acc_level_2 0
Core_0_L1D_acc_level_3 0
Core_0_L1D_acc_level_4 0
Core_0_L1D_acc_level_5 0
Core_0_L1D_acc_level_6 0
Core_0_L1D_acc_level_7 0
Core_0_L1D_acc_level_8 0
Core_0_L1D_acc_level_9 0

Core_0_L1I_total_access 9528746
Core_0_L1I_total_hit 9528744
Core_0_L1I_total_miss 2
Core_0_L1I_loads 9528746
Core_0_L1I_load_hit 9528744
Core_0_L1I_load_miss 2
Core_0_L1I_RFOs 0
Core_0_L1I_RFO_hit 0
Core_0_L1I_RFO_miss 0
Core_0_L1I_prefetches 0
Core_0_L1I_prefetch_hit 0
Core_0_L1I_prefetch_miss 0
Core_0_L1I_writebacks 0
Core_0_L1I_writeback_hit 0
Core_0_L1I_writeback_miss 0
Core_0_L1I_prefetch_requested 0
Core_0_L1I_prefetch_dropped 0
Core_0_L1I_prefetch_issued 0
Core_0_L1I_prefetch_filled 0
Core_0_L1I_prefetch_useful 0
Core_0_L1I_prefetch_useless 0
Core_0_L1I_prefetch_late 0
Core_0_L1I_average_miss_latency 323.50000

Core_0_L1I_rq_access 50000006
Core_0_L1I_rq_forward 0
Core_0_L1I_rq_merged 40471258
Core_0_L1I_rq_to_cache 9528748
Core_0_L1I_rq_full 0

Core_0_L1I_wq_access 0
Core_0_L1I_wq_forward 0
Core_0_L1I_wq_merged 0
Core_0_L1I_wq_to_cache 0
Core_0_L1I_wq_full 0

Core_0_L1I_pq_access 0
Core_0_L1I_pq_forward 0
Core_0_L1I_pq_merged 0
Core_0_L1I_pq_to_cache 0
Core_0_L1I_pq_full 0

Core_0_L1I_acc_epochs 871575
Core_0_L1I_acc_level_0 871575
Core_0_L1I_acc_level_1 0
Core_0_L1I_acc_level_2 0
Core_0_L1I_acc_level_3 0
Core_0_L1I_acc_level_4 0
Core_0_L1I_acc_level_5 0
Core_0_L1I_acc_level_6 0
Core_0_L1I_acc_level_7 0
Core_0_L1I_acc_level_8 0
Core_0_L1I_acc_level_9 0

Core_0_L2C_total_access 9026045
Core_0_L2C_total_hit 1371979
Core_0_L2C_total_miss 7654066
Core_0_L2C_loads 8984351
Core_0_L2C_load_hit 1339212
Core_0_L2C_load_miss 7645139
Core_0_L2C_RFOs 8733
Core_0_L2C_RFO_hit 0
Core_0_L2C_RFO_miss 8733
Core_0_L2C_prefetches 0
Core_0_L2C_prefetch_hit 0
Core_0_L2C_prefetch_miss 0
Core_0_L2C_writebacks 32961
Core_0_L2C_writeback_hit 32767
Core_0_L2C_writeback_miss 194
Core_0_L2C_prefetch_requested 0
Core_0_L2C_prefetch_dropped 0
Core_0_L2C_prefetch_issued 0
Core_0_L2C_prefetch_filled 0
Core_0_L2C_prefetch_useful 0
Core_0_L2C_prefetch_useless 0
Core_0_L2C_prefetch_late 0
Core_0_L2C_average_miss_latency 93.92329

Core_0_L2C_rq_access 8993086
Core_0_L2C_rq_forward 0
Core_0_L2C_rq_merged 0
Core_0_L2C_rq_to_cache 8993085
Core_0_L2C_rq_full 0

Core_0_L2C_wq_access 32961
Core_0_L2C_wq_forward 1
Core_0_L2C_wq_merged 0
Core_0_L2C_wq_to_cache 32961
Core_0_L2C_wq_full 0

Core_0_L2C_pq_access 0
Core_0_L2C_pq_forward 0
Core_0_L2C_pq_merged 0
Core_0_L2C_pq_to_cache 0
Core_0_L2C_pq_full 0

Core_0_L2C_acc_epochs 871575
Core_0_L2C_acc_level_0 871575
Core_0_L2C_acc_level_1 0
Core_0_L2C_acc_level_2 0
Core_0_L2C_acc_level_3 0
Core_0_L2C_acc_level_4 0
Core_0_L2C_acc_level_5 0
Core_0_L2C_acc_level_6 0
Core_0_L2C_acc_level_7 0
Core_0_L2C_acc_level_8 0
Core_0_L2C_acc_level_9 0

Core_0_LLC_total_access 7682027
Core_0_LLC_total_hit 4893814
Core_0_LLC_total_miss 2788213
Core_0_LLC_loads 7645139
Core_0_LLC_load_hit 4881146
Core_0_LLC_load_miss 2763993
Core_0_LLC_RFOs 8733
Core_0_LLC_RFO_hit 0
Core_0_LLC_RFO_miss 8733
Core_0_LLC_prefetches 0
Core_0_LLC_prefetch_hit 0
Core_0_LLC_prefetch_miss 0
Core_0_LLC_writebacks 28155
Core_0_LLC_writeback_hit 12668
Core_0_LLC_writeback_miss 15487
Core_0_LLC_prefetch_requested 0
Core_0_LLC_prefetch_dropped 0
Core_0_LLC_prefetch_issued 0
Core_0_LLC_prefetch_filled 0
Core_0_LLC_prefetch_useful 0
Core_0_LLC_prefetch_useless 0
Core_0_LLC_prefetch_late 0
Core_0_LLC_average_miss_latency 175.40482

Core_0_LLC_rq_access 7653873
Core_0_LLC_rq_forward 0
Core_0_LLC_rq_merged 0
Core_0_LLC_rq_to_cache 7653873
Core_0_LLC_rq_full 0

Core_0_LLC_wq_access 28155
Core_0_LLC_wq_forward 0
Core_0_LLC_wq_merged 0
Core_0_LLC_wq_to_cache 28155
Core_0_LLC_wq_full 0

Core_0_LLC_pq_access 0
Core_0_LLC_pq_forward 0
Core_0_LLC_pq_merged 0
Core_0_LLC_pq_to_cache 0
Core_0_LLC_pq_full 0

Core_0_LLC_acc_epochs 872602
Core_0_LLC_acc_level_0 872602
Core_0_LLC_acc_level_1 0
Core_0_LLC_acc_level_2 0
Core_0_LLC_acc_level_3 0
Core_0_LLC_acc_level_4 0
Core_0_LLC_acc_level_5 0
Core_0_LLC_acc_level_6 0
Core_0_LLC_acc_level_7 0
Core_0_LLC_acc_level_8 0
Core_0_LLC_acc_level_9 0

Core_0_major_page_fault 0
Core_0_minor_page_fault 12637

Channel_0_RQ_row_buffer_hit 365973
Channel_0_RQ_row_buffer_miss 2406750
Channel_0_WQ_row_buffer_hit 19826
Channel_0_WQ_row_buffer_miss 31231
Channel_0_WQ_full 0
Channel_0_dbus_congested 87526

avg_congested_cycle 8

DRAM_bw_pochs 3490405
DRAM_bw_level_0 3481023
DRAM_bw_level_1 9379
DRAM_bw_level_2 3
DRAM_bw_level_3 0
