*************************************************
   ChampSim Multicore Out-of-Order Simulator
   Last compiled: Apr  3 2025 20:54:34
*************************************************
parsing config file: /home/zir/Pythia/config/nopref.ini

trace_0 /home/zir/ChampSim/ML-DPC/ChampSimTraces/gap/pr-5.trace.gz
adding L2C_PREFETCHER: NONE
Initialize SHIP state
warmup_instructions 10000000
simulation_instructions 50000000
champsim_seed 53
measure_ipc 0
measure_ipc_epoch 1000
measure_dram_bw 1
measure_dram_bw_epoch 256
measure_cache_acc 1
measure_cache_acc_epoch 1024
l1d_perfect 0
l2c_perfect 0
llc_perfect 0
l1d_semi_perfect 0
l2c_semi_perfect 0
llc_semi_perfect 0
semi_perfect_cache_page_buffer_size 64

num_cpus 1
cpu_freq 4000
dram_io_freq 2400
page_size 4096
block_size 64
max_read_per_cycle 8
max_fill_per_cycle 1
dram_channels 1
log2_dram_channels 0
dram_ranks 1
dram_banks 8
dram_rows 65536
dram_columns 128
dram_row_size 8
dram_size 4096
dram_pages 1048576

fetch_width 6
decode_width 6
exec_width 4
lq_width 2
sq_width 2
retire_width 4
scheduler_size 128
branch_mispredict_penalty 20
rob_size 256
lq_size 72
sq_size 56
num_instr_destinations_sparc 4
num_instr_destinations 2
num_instr_sources 4

itlb_set 16
itlb_way 8
itlb_rq_size 16
itlb_wq_size 16
itlb_pq_size 0
itlb_mshr_size 8
itlb_latency 1

dtlb_set 16
dtlb_way 4
dtlb_rq_size 16
dtlb_wq_size 16
dtlb_pq_size 0
dtlb_mshr_size 8
dtlb_latency 1

stlb_set 128
stlb_way 12
stlb_rq_size 32
stlb_wq_size 32
stlb_pq_size 0
stlb_mshr_size 16
stlb_latency 8

l1i_size 32
l1i_set 64
l1i_way 8
l1i_rq_size 64
l1i_wq_size 64
l1i_pq_size 8
l1i_mshr_size 8
l1i_latency 1

l1d_size 32
l1d_set 64
l1d_way 8
l1d_rq_size 64
l1d_wq_size 64
l1d_pq_size 8
l1d_mshr_size 16
l1d_latency 4

l2c_size 256
l2c_set 512
l2c_way 8
l2c_rq_size 32
l2c_wq_size 32
l2c_pq_size 32
l2c_mshr_size 32
l2c_latency 10

llc_size 2048
llc_set 2048
llc_way 16
llc_rq_size 32
llc_wq_size 32
llc_pq_size 32
llc_mshr_size 64
llc_latency 20

dram_channel_width 8
dram_wq_size 64
dram_rq_size 64
tRP 15
tRCD 15
tCAS 12.5
dram_dbus_turn_around_time 30
dram_write_high_wm 56
dram_write_low_wm 48
min_dram_writes_per_switch 16
dram_mtps 2400
dram_dbus_return_time 13


Heartbeat CPU  0 instructions:    1000001 cycles:     399575 heartbeat IPC: 2.50266 cumulative IPC: 2.50266 (Simulation time: 0 hr 0 min 2 sec) 
Heartbeat CPU  0 instructions:    2000000 cycles:     794094 heartbeat IPC: 2.53473 cumulative IPC: 2.51859 (Simulation time: 0 hr 0 min 6 sec) 
Heartbeat CPU  0 instructions:    3000002 cycles:    1188617 heartbeat IPC: 2.53471 cumulative IPC: 2.52394 (Simulation time: 0 hr 0 min 8 sec) 
Heartbeat CPU  0 instructions:    4000000 cycles:    1583140 heartbeat IPC: 2.53470 cumulative IPC: 2.52662 (Simulation time: 0 hr 0 min 9 sec) 
Heartbeat CPU  0 instructions:    5000001 cycles:    1977698 heartbeat IPC: 2.53448 cumulative IPC: 2.52819 (Simulation time: 0 hr 0 min 11 sec) 
Heartbeat CPU  0 instructions:    6000002 cycles:    2372222 heartbeat IPC: 2.53470 cumulative IPC: 2.52928 (Simulation time: 0 hr 0 min 12 sec) 
Heartbeat CPU  0 instructions:    7000003 cycles:    2766746 heartbeat IPC: 2.53470 cumulative IPC: 2.53005 (Simulation time: 0 hr 0 min 14 sec) 
Heartbeat CPU  0 instructions:    8000000 cycles:    3161268 heartbeat IPC: 2.53471 cumulative IPC: 2.53063 (Simulation time: 0 hr 0 min 15 sec) 
Heartbeat CPU  0 instructions:    9000001 cycles:    3555827 heartbeat IPC: 2.53448 cumulative IPC: 2.53106 (Simulation time: 0 hr 0 min 16 sec) 
Heartbeat CPU  0 instructions:   10000001 cycles:    3950347 heartbeat IPC: 2.53473 cumulative IPC: 2.53142 (Simulation time: 0 hr 0 min 18 sec) 

Warmup complete CPU  0 instructions:   10000001 cycles:    3950347 (Simulation time: 0 hr 0 min 18 sec) 

Heartbeat CPU  0 instructions:   11000002 cycles:    6075601 heartbeat IPC: 0.47053 cumulative IPC: 0.47053 (Simulation time: 0 hr 0 min 20 sec) 
Heartbeat CPU  0 instructions:   12000000 cycles:   17988302 heartbeat IPC: 0.08394 cumulative IPC: 0.14247 (Simulation time: 0 hr 0 min 25 sec) 
Heartbeat CPU  0 instructions:   13000000 cycles:   39217446 heartbeat IPC: 0.04711 cumulative IPC: 0.08507 (Simulation time: 0 hr 0 min 33 sec) 
Heartbeat CPU  0 instructions:   14000002 cycles:   60355680 heartbeat IPC: 0.04731 cumulative IPC: 0.07092 (Simulation time: 0 hr 0 min 41 sec) 
Heartbeat CPU  0 instructions:   15000000 cycles:   81368033 heartbeat IPC: 0.04759 cumulative IPC: 0.06458 (Simulation time: 0 hr 0 min 49 sec) 
Heartbeat CPU  0 instructions:   16000000 cycles:  102696634 heartbeat IPC: 0.04689 cumulative IPC: 0.06076 (Simulation time: 0 hr 0 min 57 sec) 
Heartbeat CPU  0 instructions:   17000003 cycles:  123990455 heartbeat IPC: 0.04696 cumulative IPC: 0.05831 (Simulation time: 0 hr 1 min 5 sec) 
Heartbeat CPU  0 instructions:   18000001 cycles:  144885414 heartbeat IPC: 0.04786 cumulative IPC: 0.05676 (Simulation time: 0 hr 1 min 13 sec) 
Heartbeat CPU  0 instructions:   19000002 cycles:  166048775 heartbeat IPC: 0.04725 cumulative IPC: 0.05552 (Simulation time: 0 hr 1 min 21 sec) 
Heartbeat CPU  0 instructions:   20000000 cycles:  186978058 heartbeat IPC: 0.04778 cumulative IPC: 0.05464 (Simulation time: 0 hr 1 min 29 sec) 
Heartbeat CPU  0 instructions:   21000001 cycles:  208270337 heartbeat IPC: 0.04697 cumulative IPC: 0.05384 (Simulation time: 0 hr 1 min 37 sec) 
Heartbeat CPU  0 instructions:   22000003 cycles:  229564868 heartbeat IPC: 0.04696 cumulative IPC: 0.05319 (Simulation time: 0 hr 1 min 45 sec) 
Heartbeat CPU  0 instructions:   23000000 cycles:  250326907 heartbeat IPC: 0.04816 cumulative IPC: 0.05276 (Simulation time: 0 hr 1 min 53 sec) 
Heartbeat CPU  0 instructions:   24000000 cycles:  271307251 heartbeat IPC: 0.04766 cumulative IPC: 0.05236 (Simulation time: 0 hr 2 min 1 sec) 
Heartbeat CPU  0 instructions:   25000003 cycles:  292390711 heartbeat IPC: 0.04743 cumulative IPC: 0.05200 (Simulation time: 0 hr 2 min 9 sec) 
Heartbeat CPU  0 instructions:   26000002 cycles:  313437753 heartbeat IPC: 0.04751 cumulative IPC: 0.05170 (Simulation time: 0 hr 2 min 17 sec) 
Heartbeat CPU  0 instructions:   27000002 cycles:  334204206 heartbeat IPC: 0.04815 cumulative IPC: 0.05148 (Simulation time: 0 hr 2 min 25 sec) 
Heartbeat CPU  0 instructions:   28000000 cycles:  355006292 heartbeat IPC: 0.04807 cumulative IPC: 0.05127 (Simulation time: 0 hr 2 min 33 sec) 
Heartbeat CPU  0 instructions:   29000000 cycles:  376084813 heartbeat IPC: 0.04744 cumulative IPC: 0.05106 (Simulation time: 0 hr 2 min 41 sec) 
Heartbeat CPU  0 instructions:   30000000 cycles:  397445047 heartbeat IPC: 0.04682 cumulative IPC: 0.05083 (Simulation time: 0 hr 2 min 49 sec) 
Heartbeat CPU  0 instructions:   31000002 cycles:  418550408 heartbeat IPC: 0.04738 cumulative IPC: 0.05065 (Simulation time: 0 hr 2 min 57 sec) 
Heartbeat CPU  0 instructions:   32000000 cycles:  439486129 heartbeat IPC: 0.04777 cumulative IPC: 0.05051 (Simulation time: 0 hr 3 min 5 sec) 
Heartbeat CPU  0 instructions:   33000000 cycles:  460640031 heartbeat IPC: 0.04727 cumulative IPC: 0.05036 (Simulation time: 0 hr 3 min 12 sec) 
Heartbeat CPU  0 instructions:   34000003 cycles:  481918581 heartbeat IPC: 0.04700 cumulative IPC: 0.05021 (Simulation time: 0 hr 3 min 20 sec) 
Heartbeat CPU  0 instructions:   35000002 cycles:  502782816 heartbeat IPC: 0.04793 cumulative IPC: 0.05012 (Simulation time: 0 hr 3 min 28 sec) 
Heartbeat CPU  0 instructions:   36000000 cycles:  524013836 heartbeat IPC: 0.04710 cumulative IPC: 0.04999 (Simulation time: 0 hr 3 min 36 sec) 
Heartbeat CPU  0 instructions:   37000001 cycles:  545266715 heartbeat IPC: 0.04705 cumulative IPC: 0.04988 (Simulation time: 0 hr 3 min 44 sec) 
Heartbeat CPU  0 instructions:   38000002 cycles:  566372457 heartbeat IPC: 0.04738 cumulative IPC: 0.04978 (Simulation time: 0 hr 3 min 53 sec) 
Heartbeat CPU  0 instructions:   39000000 cycles:  587445631 heartbeat IPC: 0.04745 cumulative IPC: 0.04970 (Simulation time: 0 hr 4 min 1 sec) 
Heartbeat CPU  0 instructions:   40000000 cycles:  608587702 heartbeat IPC: 0.04730 cumulative IPC: 0.04962 (Simulation time: 0 hr 4 min 9 sec) 
Heartbeat CPU  0 instructions:   41000003 cycles:  629758010 heartbeat IPC: 0.04724 cumulative IPC: 0.04954 (Simulation time: 0 hr 4 min 17 sec) 
Heartbeat CPU  0 instructions:   42000001 cycles:  650696983 heartbeat IPC: 0.04776 cumulative IPC: 0.04948 (Simulation time: 0 hr 4 min 25 sec) 
Heartbeat CPU  0 instructions:   43000003 cycles:  671703136 heartbeat IPC: 0.04761 cumulative IPC: 0.04942 (Simulation time: 0 hr 4 min 32 sec) 
Heartbeat CPU  0 instructions:   44000000 cycles:  692886880 heartbeat IPC: 0.04721 cumulative IPC: 0.04935 (Simulation time: 0 hr 4 min 40 sec) 
Heartbeat CPU  0 instructions:   45000000 cycles:  714089455 heartbeat IPC: 0.04716 cumulative IPC: 0.04929 (Simulation time: 0 hr 4 min 48 sec) 
Heartbeat CPU  0 instructions:   46000001 cycles:  734949519 heartbeat IPC: 0.04794 cumulative IPC: 0.04925 (Simulation time: 0 hr 4 min 56 sec) 
Heartbeat CPU  0 instructions:   47000000 cycles:  755975500 heartbeat IPC: 0.04756 cumulative IPC: 0.04920 (Simulation time: 0 hr 5 min 4 sec) 
Heartbeat CPU  0 instructions:   48000000 cycles:  777097002 heartbeat IPC: 0.04735 cumulative IPC: 0.04915 (Simulation time: 0 hr 5 min 12 sec) 
Heartbeat CPU  0 instructions:   49000000 cycles:  797927630 heartbeat IPC: 0.04801 cumulative IPC: 0.04912 (Simulation time: 0 hr 5 min 19 sec) 
Heartbeat CPU  0 instructions:   50000002 cycles:  818984506 heartbeat IPC: 0.04749 cumulative IPC: 0.04908 (Simulation time: 0 hr 5 min 27 sec) 
Heartbeat CPU  0 instructions:   51000003 cycles:  840169069 heartbeat IPC: 0.04720 cumulative IPC: 0.04903 (Simulation time: 0 hr 5 min 35 sec) 
Heartbeat CPU  0 instructions:   52000000 cycles:  861153985 heartbeat IPC: 0.04765 cumulative IPC: 0.04900 (Simulation time: 0 hr 5 min 43 sec) 
Heartbeat CPU  0 instructions:   53000001 cycles:  882340404 heartbeat IPC: 0.04720 cumulative IPC: 0.04895 (Simulation time: 0 hr 5 min 51 sec) 
Heartbeat CPU  0 instructions:   54000003 cycles:  903214814 heartbeat IPC: 0.04791 cumulative IPC: 0.04893 (Simulation time: 0 hr 5 min 58 sec) 
Heartbeat CPU  0 instructions:   55000002 cycles:  924299276 heartbeat IPC: 0.04743 cumulative IPC: 0.04889 (Simulation time: 0 hr 6 min 6 sec) 
Heartbeat CPU  0 instructions:   56000000 cycles:  945089896 heartbeat IPC: 0.04810 cumulative IPC: 0.04888 (Simulation time: 0 hr 6 min 14 sec) 
Heartbeat CPU  0 instructions:   57000000 cycles:  964554271 heartbeat IPC: 0.05138 cumulative IPC: 0.04893 (Simulation time: 0 hr 6 min 21 sec) 
Heartbeat CPU  0 instructions:   58000000 cycles:  985773352 heartbeat IPC: 0.04713 cumulative IPC: 0.04889 (Simulation time: 0 hr 6 min 29 sec) 
Heartbeat CPU  0 instructions:   59000000 cycles: 1006761604 heartbeat IPC: 0.04765 cumulative IPC: 0.04886 (Simulation time: 0 hr 6 min 37 sec) 
Heartbeat CPU  0 instructions:   60000000 cycles: 1027776889 heartbeat IPC: 0.04758 cumulative IPC: 0.04884 (Simulation time: 0 hr 6 min 45 sec) 
Finished CPU 0 instructions: 50000003 cycles: 1023826599 cumulative IPC: 0.04884 (Simulation time: 0 hr 6 min 45 sec) 

ChampSim completed all CPUs

[ROI Statistics]
Core_0_instructions 50000003
Core_0_cycles 1023826599
Core_0_IPC 0.04884

Core_0_branch_prediction_accuracy 96.83947
Core_0_branch_MPKI 5.93774
Core_0_average_ROB_occupancy_at_mispredict 132.00900

Core_0_L1D_total_access 15203471
Core_0_L1D_total_hit 6237942
Core_0_L1D_total_miss 8965529
Core_0_L1D_loads 14551505
Core_0_L1D_load_hit 5594710
Core_0_L1D_load_miss 8956795
Core_0_L1D_RFOs 651966
Core_0_L1D_RFO_hit 643232
Core_0_L1D_RFO_miss 8734
Core_0_L1D_prefetches 0
Core_0_L1D_prefetch_hit 0
Core_0_L1D_prefetch_miss 0
Core_0_L1D_writebacks 0
Core_0_L1D_writeback_hit 0
Core_0_L1D_writeback_miss 0
Core_0_L1D_prefetch_requested 0
Core_0_L1D_prefetch_dropped 0
Core_0_L1D_prefetch_issued 0
Core_0_L1D_prefetch_filled 0
Core_0_L1D_prefetch_useful 0
Core_0_L1D_prefetch_useless 0
Core_0_L1D_prefetch_late 0
Core_0_L1D_average_miss_latency 109.50950

Core_0_L1D_rq_access 19502925
Core_0_L1D_rq_forward 0
Core_0_L1D_rq_merged 3244821
Core_0_L1D_rq_to_cache 16258104
Core_0_L1D_rq_full 0

Core_0_L1D_wq_access 715742
Core_0_L1D_wq_forward 0
Core_0_L1D_wq_merged 0
Core_0_L1D_wq_to_cache 715742
Core_0_L1D_wq_full 0

Core_0_L1D_pq_access 0
Core_0_L1D_pq_forward 0
Core_0_L1D_pq_merged 0
Core_0_L1D_pq_to_cache 0
Core_0_L1D_pq_full 0

Core_0_L1D_acc_epochs 1002660
Core_0_L1D_acc_level_0 1002660
Core_0_L1D_acc_level_1 0
Core_0_L1D_acc_level_2 0
Core_0_L1D_acc_level_3 0
Core_0_L1D_acc_level_4 0
Core_0_L1D_acc_level_5 0
Core_0_L1D_acc_level_6 0
Core_0_L1D_acc_level_7 0
Core_0_L1D_acc_level_8 0
Core_0_L1D_acc_level_9 0

Core_0_L1I_total_access 9508676
Core_0_L1I_total_hit 9508674
Core_0_L1I_total_miss 2
Core_0_L1I_loads 9508676
Core_0_L1I_load_hit 9508674
Core_0_L1I_load_miss 2
Core_0_L1I_RFOs 0
Core_0_L1I_RFO_hit 0
Core_0_L1I_RFO_miss 0
Core_0_L1I_prefetches 0
Core_0_L1I_prefetch_hit 0
Core_0_L1I_prefetch_miss 0
Core_0_L1I_writebacks 0
Core_0_L1I_writeback_hit 0
Core_0_L1I_writeback_miss 0
Core_0_L1I_prefetch_requested 0
Core_0_L1I_prefetch_dropped 0
Core_0_L1I_prefetch_issued 0
Core_0_L1I_prefetch_filled 0
Core_0_L1I_prefetch_useful 0
Core_0_L1I_prefetch_useless 0
Core_0_L1I_prefetch_late 0
Core_0_L1I_average_miss_latency 247.50000

Core_0_L1I_rq_access 49999781
Core_0_L1I_rq_forward 0
Core_0_L1I_rq_merged 40491103
Core_0_L1I_rq_to_cache 9508678
Core_0_L1I_rq_full 0

Core_0_L1I_wq_access 0
Core_0_L1I_wq_forward 0
Core_0_L1I_wq_merged 0
Core_0_L1I_wq_to_cache 0
Core_0_L1I_wq_full 0

Core_0_L1I_pq_access 0
Core_0_L1I_pq_forward 0
Core_0_L1I_pq_merged 0
Core_0_L1I_pq_to_cache 0
Core_0_L1I_pq_full 0

Core_0_L1I_acc_epochs 1002660
Core_0_L1I_acc_level_0 1002660
Core_0_L1I_acc_level_1 0
Core_0_L1I_acc_level_2 0
Core_0_L1I_acc_level_3 0
Core_0_L1I_acc_level_4 0
Core_0_L1I_acc_level_5 0
Core_0_L1I_acc_level_6 0
Core_0_L1I_acc_level_7 0
Core_0_L1I_acc_level_8 0
Core_0_L1I_acc_level_9 0

Core_0_L2C_total_access 8998760
Core_0_L2C_total_hit 1177422
Core_0_L2C_total_miss 7821338
Core_0_L2C_loads 8956797
Core_0_L2C_load_hit 1145163
Core_0_L2C_load_miss 7811634
Core_0_L2C_RFOs 8734
Core_0_L2C_RFO_hit 0
Core_0_L2C_RFO_miss 8734
Core_0_L2C_prefetches 0
Core_0_L2C_prefetch_hit 0
Core_0_L2C_prefetch_miss 0
Core_0_L2C_writebacks 33229
Core_0_L2C_writeback_hit 32259
Core_0_L2C_writeback_miss 970
Core_0_L2C_prefetch_requested 0
Core_0_L2C_prefetch_dropped 0
Core_0_L2C_prefetch_issued 0
Core_0_L2C_prefetch_filled 0
Core_0_L2C_prefetch_useful 0
Core_0_L2C_prefetch_useless 0
Core_0_L2C_prefetch_late 0
Core_0_L2C_average_miss_latency 109.44316

Core_0_L2C_rq_access 8965529
Core_0_L2C_rq_forward 0
Core_0_L2C_rq_merged 0
Core_0_L2C_rq_to_cache 8965529
Core_0_L2C_rq_full 0

Core_0_L2C_wq_access 33229
Core_0_L2C_wq_forward 0
Core_0_L2C_wq_merged 0
Core_0_L2C_wq_to_cache 33229
Core_0_L2C_wq_full 0

Core_0_L2C_pq_access 0
Core_0_L2C_pq_forward 0
Core_0_L2C_pq_merged 0
Core_0_L2C_pq_to_cache 0
Core_0_L2C_pq_full 0

Core_0_L2C_acc_epochs 1002660
Core_0_L2C_acc_level_0 1002660
Core_0_L2C_acc_level_1 0
Core_0_L2C_acc_level_2 0
Core_0_L2C_acc_level_3 0
Core_0_L2C_acc_level_4 0
Core_0_L2C_acc_level_5 0
Core_0_L2C_acc_level_6 0
Core_0_L2C_acc_level_7 0
Core_0_L2C_acc_level_8 0
Core_0_L2C_acc_level_9 0

Core_0_LLC_total_access 7849638
Core_0_LLC_total_hit 4317009
Core_0_LLC_total_miss 3532629
Core_0_LLC_loads 7811634
Core_0_LLC_load_hit 4305991
Core_0_LLC_load_miss 3505643
Core_0_LLC_RFOs 8734
Core_0_LLC_RFO_hit 0
Core_0_LLC_RFO_miss 8734
Core_0_LLC_prefetches 0
Core_0_LLC_prefetch_hit 0
Core_0_LLC_prefetch_miss 0
Core_0_LLC_writebacks 29270
Core_0_LLC_writeback_hit 11018
Core_0_LLC_writeback_miss 18252
Core_0_LLC_prefetch_requested 0
Core_0_LLC_prefetch_dropped 0
Core_0_LLC_prefetch_issued 0
Core_0_LLC_prefetch_filled 0
Core_0_LLC_prefetch_useful 0
Core_0_LLC_prefetch_useless 0
Core_0_LLC_prefetch_late 0
Core_0_LLC_average_miss_latency 175.84718

Core_0_LLC_rq_access 7820366
Core_0_LLC_rq_forward 0
Core_0_LLC_rq_merged 0
Core_0_LLC_rq_to_cache 7820366
Core_0_LLC_rq_full 0

Core_0_LLC_wq_access 29270
Core_0_LLC_wq_forward 0
Core_0_LLC_wq_merged 0
Core_0_LLC_wq_to_cache 29270
Core_0_LLC_wq_full 0

Core_0_LLC_pq_access 0
Core_0_LLC_pq_forward 0
Core_0_LLC_pq_merged 0
Core_0_LLC_pq_to_cache 0
Core_0_LLC_pq_full 0

Core_0_LLC_acc_epochs 1003689
Core_0_LLC_acc_level_0 1003689
Core_0_LLC_acc_level_1 0
Core_0_LLC_acc_level_2 0
Core_0_LLC_acc_level_3 0
Core_0_LLC_acc_level_4 0
Core_0_LLC_acc_level_5 0
Core_0_LLC_acc_level_6 0
Core_0_LLC_acc_level_7 0
Core_0_LLC_acc_level_8 0
Core_0_LLC_acc_level_9 0

Core_0_major_page_fault 0
Core_0_minor_page_fault 12619

Channel_0_RQ_row_buffer_hit 453464
Channel_0_RQ_row_buffer_miss 3060911
Channel_0_WQ_row_buffer_hit 17361
Channel_0_WQ_row_buffer_miss 18602
Channel_0_WQ_full 0
Channel_0_dbus_congested 115031

avg_congested_cycle 8

DRAM_bw_pochs 4014754
DRAM_bw_level_0 4004428
DRAM_bw_level_1 10289
DRAM_bw_level_2 37
DRAM_bw_level_3 0
