*************************************************
   ChampSim Multicore Out-of-Order Simulator
   Last compiled: Apr  3 2025 20:54:34
*************************************************
parsing config file: /home/zir/Pythia/config/spp_dev2.ini

trace_0 /home/zir/ChampSim/ML-DPC/ChampSimTraces/gap/cc-14.trace.gz
adding L2C_PREFETCHER: SPP_dev2
Initialize SIGNATURE TABLE
ST_SET: 1
ST_WAY: 256
ST_TAG_BIT: 16
ST_TAG_MASK: ffff

Initialize PATTERN TABLE
PT_SET: 512
PT_WAY: 4
SIG_DELTA_BIT: 7
C_SIG_BIT: 4
C_DELTA_BIT: 4

Initialize PREFETCH FILTER
FILTER_SET: 1024
fill_threshold: 90
pf_threshold: 40

Initialize SHIP state
warmup_instructions 10000000
simulation_instructions 50000000
champsim_seed 101
measure_ipc 0
measure_ipc_epoch 1000
measure_dram_bw 1
measure_dram_bw_epoch 256
measure_cache_acc 1
measure_cache_acc_epoch 1024
l1d_perfect 0
l2c_perfect 0
llc_perfect 0
l1d_semi_perfect 0
l2c_semi_perfect 0
llc_semi_perfect 0
semi_perfect_cache_page_buffer_size 64

num_cpus 1
cpu_freq 4000
dram_io_freq 2400
page_size 4096
block_size 64
max_read_per_cycle 8
max_fill_per_cycle 1
dram_channels 1
log2_dram_channels 0
dram_ranks 1
dram_banks 8
dram_rows 65536
dram_columns 128
dram_row_size 8
dram_size 4096
dram_pages 1048576

fetch_width 6
decode_width 6
exec_width 4
lq_width 2
sq_width 2
retire_width 4
scheduler_size 128
branch_mispredict_penalty 20
rob_size 256
lq_size 72
sq_size 56
num_instr_destinations_sparc 4
num_instr_destinations 2
num_instr_sources 4

itlb_set 16
itlb_way 8
itlb_rq_size 16
itlb_wq_size 16
itlb_pq_size 0
itlb_mshr_size 8
itlb_latency 1

dtlb_set 16
dtlb_way 4
dtlb_rq_size 16
dtlb_wq_size 16
dtlb_pq_size 0
dtlb_mshr_size 8
dtlb_latency 1

stlb_set 128
stlb_way 12
stlb_rq_size 32
stlb_wq_size 32
stlb_pq_size 0
stlb_mshr_size 16
stlb_latency 8

l1i_size 32
l1i_set 64
l1i_way 8
l1i_rq_size 64
l1i_wq_size 64
l1i_pq_size 8
l1i_mshr_size 8
l1i_latency 1

l1d_size 32
l1d_set 64
l1d_way 8
l1d_rq_size 64
l1d_wq_size 64
l1d_pq_size 8
l1d_mshr_size 16
l1d_latency 4

l2c_size 256
l2c_set 512
l2c_way 8
l2c_rq_size 32
l2c_wq_size 32
l2c_pq_size 32
l2c_mshr_size 32
l2c_latency 10

llc_size 2048
llc_set 2048
llc_way 16
llc_rq_size 32
llc_wq_size 32
llc_pq_size 32
llc_mshr_size 64
llc_latency 20

dram_channel_width 8
dram_wq_size 64
dram_rq_size 64
tRP 15
tRCD 15
tCAS 12.5
dram_dbus_turn_around_time 30
dram_write_high_wm 56
dram_write_low_wm 48
min_dram_writes_per_switch 16
dram_mtps 2400
dram_dbus_return_time 13


Heartbeat CPU  0 instructions:    1000001 cycles:     261974 heartbeat IPC: 3.81718 cumulative IPC: 3.81718 (Simulation time: 0 hr 0 min 1 sec) 
Heartbeat CPU  0 instructions:    2000000 cycles:     781373 heartbeat IPC: 1.92530 cumulative IPC: 2.55960 (Simulation time: 0 hr 0 min 2 sec) 
Heartbeat CPU  0 instructions:    3000001 cycles:    2158879 heartbeat IPC: 0.72595 cumulative IPC: 1.38961 (Simulation time: 0 hr 0 min 4 sec) 
Heartbeat CPU  0 instructions:    4000000 cycles:    3498525 heartbeat IPC: 0.74647 cumulative IPC: 1.14334 (Simulation time: 0 hr 0 min 5 sec) 
Heartbeat CPU  0 instructions:    5000000 cycles:    4678946 heartbeat IPC: 0.84716 cumulative IPC: 1.06862 (Simulation time: 0 hr 0 min 6 sec) 
Heartbeat CPU  0 instructions:    6000000 cycles:    5858486 heartbeat IPC: 0.84779 cumulative IPC: 1.02416 (Simulation time: 0 hr 0 min 7 sec) 
Heartbeat CPU  0 instructions:    7000002 cycles:    6955433 heartbeat IPC: 0.91162 cumulative IPC: 1.00641 (Simulation time: 0 hr 0 min 8 sec) 
Heartbeat CPU  0 instructions:    8000000 cycles:    7960100 heartbeat IPC: 0.99535 cumulative IPC: 1.00501 (Simulation time: 0 hr 0 min 9 sec) 
Heartbeat CPU  0 instructions:    9000002 cycles:    8966838 heartbeat IPC: 0.99331 cumulative IPC: 1.00370 (Simulation time: 0 hr 0 min 10 sec) 
Heartbeat CPU  0 instructions:   10000000 cycles:    9911245 heartbeat IPC: 1.05886 cumulative IPC: 1.00896 (Simulation time: 0 hr 0 min 11 sec) 

Warmup complete CPU  0 instructions:   10000001 cycles:    9911246 (Simulation time: 0 hr 0 min 11 sec) 

Heartbeat CPU  0 instructions:   11000000 cycles:   15425440 heartbeat IPC: 0.18135 cumulative IPC: 0.18135 (Simulation time: 0 hr 0 min 13 sec) 
Heartbeat CPU  0 instructions:   12000000 cycles:   20949682 heartbeat IPC: 0.18102 cumulative IPC: 0.18118 (Simulation time: 0 hr 0 min 16 sec) 
Heartbeat CPU  0 instructions:   13000003 cycles:   25899220 heartbeat IPC: 0.20204 cumulative IPC: 0.18764 (Simulation time: 0 hr 0 min 18 sec) 
Heartbeat CPU  0 instructions:   14000001 cycles:   31166944 heartbeat IPC: 0.18983 cumulative IPC: 0.18818 (Simulation time: 0 hr 0 min 20 sec) 
Heartbeat CPU  0 instructions:   15000002 cycles:   36800957 heartbeat IPC: 0.17749 cumulative IPC: 0.18594 (Simulation time: 0 hr 0 min 22 sec) 
Heartbeat CPU  0 instructions:   16000000 cycles:   42288697 heartbeat IPC: 0.18222 cumulative IPC: 0.18531 (Simulation time: 0 hr 0 min 24 sec) 
Heartbeat CPU  0 instructions:   17000001 cycles:   47812189 heartbeat IPC: 0.18105 cumulative IPC: 0.18469 (Simulation time: 0 hr 0 min 27 sec) 
Heartbeat CPU  0 instructions:   18000001 cycles:   53150452 heartbeat IPC: 0.18733 cumulative IPC: 0.18502 (Simulation time: 0 hr 0 min 29 sec) 
Heartbeat CPU  0 instructions:   19000001 cycles:   58427915 heartbeat IPC: 0.18948 cumulative IPC: 0.18550 (Simulation time: 0 hr 0 min 31 sec) 
Heartbeat CPU  0 instructions:   20000000 cycles:   63175602 heartbeat IPC: 0.21063 cumulative IPC: 0.18774 (Simulation time: 0 hr 0 min 33 sec) 
Heartbeat CPU  0 instructions:   21000000 cycles:   68382134 heartbeat IPC: 0.19207 cumulative IPC: 0.18813 (Simulation time: 0 hr 0 min 36 sec) 
Heartbeat CPU  0 instructions:   22000003 cycles:   73760111 heartbeat IPC: 0.18594 cumulative IPC: 0.18794 (Simulation time: 0 hr 0 min 38 sec) 
Heartbeat CPU  0 instructions:   23000001 cycles:   78953540 heartbeat IPC: 0.19255 cumulative IPC: 0.18829 (Simulation time: 0 hr 0 min 40 sec) 
Heartbeat CPU  0 instructions:   24000000 cycles:   83786389 heartbeat IPC: 0.20692 cumulative IPC: 0.18951 (Simulation time: 0 hr 0 min 42 sec) 
Heartbeat CPU  0 instructions:   25000002 cycles:   88462418 heartbeat IPC: 0.21386 cumulative IPC: 0.19096 (Simulation time: 0 hr 0 min 45 sec) 
Heartbeat CPU  0 instructions:   26000000 cycles:   93682126 heartbeat IPC: 0.19158 cumulative IPC: 0.19100 (Simulation time: 0 hr 0 min 47 sec) 
Heartbeat CPU  0 instructions:   27000003 cycles:   98963518 heartbeat IPC: 0.18934 cumulative IPC: 0.19090 (Simulation time: 0 hr 0 min 49 sec) 
Heartbeat CPU  0 instructions:   28000000 cycles:  104083789 heartbeat IPC: 0.19530 cumulative IPC: 0.19114 (Simulation time: 0 hr 0 min 51 sec) 
Heartbeat CPU  0 instructions:   29000002 cycles:  108587166 heartbeat IPC: 0.22206 cumulative IPC: 0.19255 (Simulation time: 0 hr 0 min 54 sec) 
Heartbeat CPU  0 instructions:   30000000 cycles:  113379029 heartbeat IPC: 0.20869 cumulative IPC: 0.19330 (Simulation time: 0 hr 0 min 56 sec) 
Heartbeat CPU  0 instructions:   31000000 cycles:  118648108 heartbeat IPC: 0.18979 cumulative IPC: 0.19313 (Simulation time: 0 hr 0 min 58 sec) 
Heartbeat CPU  0 instructions:   32000000 cycles:  123316844 heartbeat IPC: 0.21419 cumulative IPC: 0.19399 (Simulation time: 0 hr 1 min 0 sec) 
Heartbeat CPU  0 instructions:   33000001 cycles:  128083900 heartbeat IPC: 0.20977 cumulative IPC: 0.19463 (Simulation time: 0 hr 1 min 3 sec) 
Heartbeat CPU  0 instructions:   34000001 cycles:  133155246 heartbeat IPC: 0.19719 cumulative IPC: 0.19474 (Simulation time: 0 hr 1 min 5 sec) 
Heartbeat CPU  0 instructions:   35000000 cycles:  137547790 heartbeat IPC: 0.22766 cumulative IPC: 0.19587 (Simulation time: 0 hr 1 min 7 sec) 
Heartbeat CPU  0 instructions:   36000000 cycles:  142439919 heartbeat IPC: 0.20441 cumulative IPC: 0.19618 (Simulation time: 0 hr 1 min 9 sec) 
Heartbeat CPU  0 instructions:   37000000 cycles:  147332407 heartbeat IPC: 0.20439 cumulative IPC: 0.19648 (Simulation time: 0 hr 1 min 12 sec) 
Heartbeat CPU  0 instructions:   38000000 cycles:  152128294 heartbeat IPC: 0.20851 cumulative IPC: 0.19688 (Simulation time: 0 hr 1 min 14 sec) 
Heartbeat CPU  0 instructions:   39000000 cycles:  157401677 heartbeat IPC: 0.18963 cumulative IPC: 0.19662 (Simulation time: 0 hr 1 min 16 sec) 
Heartbeat CPU  0 instructions:   40000000 cycles:  162150429 heartbeat IPC: 0.21058 cumulative IPC: 0.19706 (Simulation time: 0 hr 1 min 19 sec) 
Heartbeat CPU  0 instructions:   41000000 cycles:  167213344 heartbeat IPC: 0.19751 cumulative IPC: 0.19707 (Simulation time: 0 hr 1 min 21 sec) 
Heartbeat CPU  0 instructions:   42000002 cycles:  172404848 heartbeat IPC: 0.19262 cumulative IPC: 0.19693 (Simulation time: 0 hr 1 min 23 sec) 
Heartbeat CPU  0 instructions:   43000000 cycles:  177672457 heartbeat IPC: 0.18984 cumulative IPC: 0.19671 (Simulation time: 0 hr 1 min 25 sec) 
Heartbeat CPU  0 instructions:   44000000 cycles:  182801360 heartbeat IPC: 0.19497 cumulative IPC: 0.19666 (Simulation time: 0 hr 1 min 28 sec) 
Heartbeat CPU  0 instructions:   45000000 cycles:  187776769 heartbeat IPC: 0.20099 cumulative IPC: 0.19678 (Simulation time: 0 hr 1 min 30 sec) 
Heartbeat CPU  0 instructions:   46000000 cycles:  192565732 heartbeat IPC: 0.20881 cumulative IPC: 0.19709 (Simulation time: 0 hr 1 min 32 sec) 
Heartbeat CPU  0 instructions:   47000001 cycles:  197049669 heartbeat IPC: 0.22302 cumulative IPC: 0.19771 (Simulation time: 0 hr 1 min 35 sec) 
Heartbeat CPU  0 instructions:   48000000 cycles:  201383075 heartbeat IPC: 0.23077 cumulative IPC: 0.19846 (Simulation time: 0 hr 1 min 37 sec) 
Heartbeat CPU  0 instructions:   49000000 cycles:  206179269 heartbeat IPC: 0.20850 cumulative IPC: 0.19871 (Simulation time: 0 hr 1 min 39 sec) 
Heartbeat CPU  0 instructions:   50000002 cycles:  210705731 heartbeat IPC: 0.22092 cumulative IPC: 0.19921 (Simulation time: 0 hr 1 min 41 sec) 
Heartbeat CPU  0 instructions:   51000000 cycles:  215568366 heartbeat IPC: 0.20565 cumulative IPC: 0.19936 (Simulation time: 0 hr 1 min 44 sec) 
Heartbeat CPU  0 instructions:   52000000 cycles:  220053369 heartbeat IPC: 0.22297 cumulative IPC: 0.19986 (Simulation time: 0 hr 1 min 46 sec) 
Heartbeat CPU  0 instructions:   53000002 cycles:  224528780 heartbeat IPC: 0.22344 cumulative IPC: 0.20036 (Simulation time: 0 hr 1 min 48 sec) 
Heartbeat CPU  0 instructions:   54000002 cycles:  229235316 heartbeat IPC: 0.21247 cumulative IPC: 0.20062 (Simulation time: 0 hr 1 min 50 sec) 
Heartbeat CPU  0 instructions:   55000000 cycles:  233763207 heartbeat IPC: 0.22085 cumulative IPC: 0.20103 (Simulation time: 0 hr 1 min 53 sec) 
Heartbeat CPU  0 instructions:   56000000 cycles:  238901113 heartbeat IPC: 0.19463 cumulative IPC: 0.20088 (Simulation time: 0 hr 1 min 55 sec) 
Heartbeat CPU  0 instructions:   57000002 cycles:  243671060 heartbeat IPC: 0.20965 cumulative IPC: 0.20106 (Simulation time: 0 hr 1 min 57 sec) 
Heartbeat CPU  0 instructions:   58000000 cycles:  248555896 heartbeat IPC: 0.20471 cumulative IPC: 0.20114 (Simulation time: 0 hr 1 min 59 sec) 
Heartbeat CPU  0 instructions:   59000003 cycles:  253325712 heartbeat IPC: 0.20965 cumulative IPC: 0.20130 (Simulation time: 0 hr 2 min 2 sec) 
Heartbeat CPU  0 instructions:   60000000 cycles:  258531464 heartbeat IPC: 0.19209 cumulative IPC: 0.20111 (Simulation time: 0 hr 2 min 4 sec) 
Finished CPU 0 instructions: 50000000 cycles: 248620234 cumulative IPC: 0.20111 (Simulation time: 0 hr 2 min 4 sec) 

ChampSim completed all CPUs

[ROI Statistics]
Core_0_instructions 50000000
Core_0_cycles 248620234
Core_0_IPC 0.20111

Core_0_branch_prediction_accuracy 91.20795
Core_0_branch_MPKI 17.50296
Core_0_average_ROB_occupancy_at_mispredict 49.86829

Core_0_L1D_total_access 10558467
Core_0_L1D_total_hit 6858593
Core_0_L1D_total_miss 3699874
Core_0_L1D_loads 10320964
Core_0_L1D_load_hit 6621090
Core_0_L1D_load_miss 3699874
Core_0_L1D_RFOs 237503
Core_0_L1D_RFO_hit 237503
Core_0_L1D_RFO_miss 0
Core_0_L1D_prefetches 0
Core_0_L1D_prefetch_hit 0
Core_0_L1D_prefetch_miss 0
Core_0_L1D_writebacks 0
Core_0_L1D_writeback_hit 0
Core_0_L1D_writeback_miss 0
Core_0_L1D_prefetch_requested 0
Core_0_L1D_prefetch_dropped 0
Core_0_L1D_prefetch_issued 0
Core_0_L1D_prefetch_filled 0
Core_0_L1D_prefetch_useful 0
Core_0_L1D_prefetch_useless 0
Core_0_L1D_prefetch_late 0
Core_0_L1D_average_miss_latency 81.98345

Core_0_L1D_rq_access 13428774
Core_0_L1D_rq_forward 0
Core_0_L1D_rq_merged 2889377
Core_0_L1D_rq_to_cache 10539397
Core_0_L1D_rq_full 0

Core_0_L1D_wq_access 237503
Core_0_L1D_wq_forward 0
Core_0_L1D_wq_merged 0
Core_0_L1D_wq_to_cache 237503
Core_0_L1D_wq_full 0

Core_0_L1D_pq_access 0
Core_0_L1D_pq_forward 0
Core_0_L1D_pq_merged 0
Core_0_L1D_pq_to_cache 0
Core_0_L1D_pq_full 0

Core_0_L1D_acc_epochs 252128
Core_0_L1D_acc_level_0 252128
Core_0_L1D_acc_level_1 0
Core_0_L1D_acc_level_2 0
Core_0_L1D_acc_level_3 0
Core_0_L1D_acc_level_4 0
Core_0_L1D_acc_level_5 0
Core_0_L1D_acc_level_6 0
Core_0_L1D_acc_level_7 0
Core_0_L1D_acc_level_8 0
Core_0_L1D_acc_level_9 0

Core_0_L1I_total_access 9783759
Core_0_L1I_total_hit 9783759
Core_0_L1I_total_miss 0
Core_0_L1I_loads 9783759
Core_0_L1I_load_hit 9783759
Core_0_L1I_load_miss 0
Core_0_L1I_RFOs 0
Core_0_L1I_RFO_hit 0
Core_0_L1I_RFO_miss 0
Core_0_L1I_prefetches 0
Core_0_L1I_prefetch_hit 0
Core_0_L1I_prefetch_miss 0
Core_0_L1I_writebacks 0
Core_0_L1I_writeback_hit 0
Core_0_L1I_writeback_miss 0
Core_0_L1I_prefetch_requested 0
Core_0_L1I_prefetch_dropped 0
Core_0_L1I_prefetch_issued 0
Core_0_L1I_prefetch_filled 0
Core_0_L1I_prefetch_useful 0
Core_0_L1I_prefetch_useless 0
Core_0_L1I_prefetch_late 0
Core_0_L1I_average_miss_latency -nan

Core_0_L1I_rq_access 50000254
Core_0_L1I_rq_forward 0
Core_0_L1I_rq_merged 40216495
Core_0_L1I_rq_to_cache 9783759
Core_0_L1I_rq_full 0

Core_0_L1I_wq_access 0
Core_0_L1I_wq_forward 0
Core_0_L1I_wq_merged 0
Core_0_L1I_wq_to_cache 0
Core_0_L1I_wq_full 0

Core_0_L1I_pq_access 0
Core_0_L1I_pq_forward 0
Core_0_L1I_pq_merged 0
Core_0_L1I_pq_to_cache 0
Core_0_L1I_pq_full 0

Core_0_L1I_acc_epochs 252128
Core_0_L1I_acc_level_0 252128
Core_0_L1I_acc_level_1 0
Core_0_L1I_acc_level_2 0
Core_0_L1I_acc_level_3 0
Core_0_L1I_acc_level_4 0
Core_0_L1I_acc_level_5 0
Core_0_L1I_acc_level_6 0
Core_0_L1I_acc_level_7 0
Core_0_L1I_acc_level_8 0
Core_0_L1I_acc_level_9 0

Core_0_L2C_total_access 3924990
Core_0_L2C_total_hit 910301
Core_0_L2C_total_miss 3014689
Core_0_L2C_loads 3699874
Core_0_L2C_load_hit 692890
Core_0_L2C_load_miss 3006984
Core_0_L2C_RFOs 0
Core_0_L2C_RFO_hit 0
Core_0_L2C_RFO_miss 0
Core_0_L2C_prefetches 20593
Core_0_L2C_prefetch_hit 13055
Core_0_L2C_prefetch_miss 7538
Core_0_L2C_writebacks 204523
Core_0_L2C_writeback_hit 204356
Core_0_L2C_writeback_miss 167
Core_0_L2C_prefetch_requested 672822
Core_0_L2C_prefetch_dropped 0
Core_0_L2C_prefetch_issued 672822
Core_0_L2C_prefetch_filled 9845
Core_0_L2C_prefetch_useful 6547
Core_0_L2C_prefetch_useless 3298
Core_0_L2C_prefetch_late 1
Core_0_L2C_average_miss_latency 83.35615

Core_0_L2C_rq_access 3699874
Core_0_L2C_rq_forward 0
Core_0_L2C_rq_merged 0
Core_0_L2C_rq_to_cache 3699874
Core_0_L2C_rq_full 0

Core_0_L2C_wq_access 204523
Core_0_L2C_wq_forward 0
Core_0_L2C_wq_merged 0
Core_0_L2C_wq_to_cache 204523
Core_0_L2C_wq_full 0

Core_0_L2C_pq_access 672822
Core_0_L2C_pq_forward 0
Core_0_L2C_pq_merged 345
Core_0_L2C_pq_to_cache 672477
Core_0_L2C_pq_full 0

Core_0_L2C_acc_epochs 252128
Core_0_L2C_acc_level_0 245393
Core_0_L2C_acc_level_1 1575
Core_0_L2C_acc_level_2 1384
Core_0_L2C_acc_level_3 901
Core_0_L2C_acc_level_4 464
Core_0_L2C_acc_level_5 1059
Core_0_L2C_acc_level_6 597
Core_0_L2C_acc_level_7 334
Core_0_L2C_acc_level_8 201
Core_0_L2C_acc_level_9 220

Core_0_LLC_total_access 3778949
Core_0_LLC_total_hit 2589776
Core_0_LLC_total_miss 1189173
Core_0_LLC_loads 3006983
Core_0_LLC_load_hit 2125362
Core_0_LLC_load_miss 881621
Core_0_LLC_RFOs 0
Core_0_LLC_RFO_hit 0
Core_0_LLC_RFO_miss 0
Core_0_LLC_prefetches 567646
Core_0_LLC_prefetch_hit 260616
Core_0_LLC_prefetch_miss 307030
Core_0_LLC_writebacks 204320
Core_0_LLC_writeback_hit 203798
Core_0_LLC_writeback_miss 522
Core_0_LLC_prefetch_requested 0
Core_0_LLC_prefetch_dropped 0
Core_0_LLC_prefetch_issued 0
Core_0_LLC_prefetch_filled 355124
Core_0_LLC_prefetch_useful 261181
Core_0_LLC_prefetch_useless 93147
Core_0_LLC_prefetch_late 306
Core_0_LLC_average_miss_latency 185.59818

Core_0_LLC_rq_access 3006983
Core_0_LLC_rq_forward 0
Core_0_LLC_rq_merged 0
Core_0_LLC_rq_to_cache 3006983
Core_0_LLC_rq_full 0

Core_0_LLC_wq_access 204320
Core_0_LLC_wq_forward 0
Core_0_LLC_wq_merged 0
Core_0_LLC_wq_to_cache 204320
Core_0_LLC_wq_full 0

Core_0_LLC_pq_access 654428
Core_0_LLC_pq_forward 0
Core_0_LLC_pq_merged 15
Core_0_LLC_pq_to_cache 654413
Core_0_LLC_pq_full 0

Core_0_LLC_acc_epochs 252473
Core_0_LLC_acc_level_0 15253
Core_0_LLC_acc_level_1 17018
Core_0_LLC_acc_level_2 19913
Core_0_LLC_acc_level_3 27363
Core_0_LLC_acc_level_4 23067
Core_0_LLC_acc_level_5 24497
Core_0_LLC_acc_level_6 31224
Core_0_LLC_acc_level_7 26040
Core_0_LLC_acc_level_8 25396
Core_0_LLC_acc_level_9 42702

Core_0_major_page_fault 0
Core_0_minor_page_fault 5185

spp.pref.total 672822
spp.pref.at_L2 10070
spp.pref.at_LLC 662752

spp.depth.max 5
spp.depth.min 0
spp.depth.avg 0

spp.breadth.max 2
spp.breadth.min 0
spp.breadth.avg 0

delta_1 715577
delta_2 313
delta_3 25
delta_10 13
delta_9 4
delta_7 3
delta_11 3
delta_6 3
delta_25 1
delta_13 1

depth_1_delta_1 494412
depth_1_delta_2 313
depth_1_delta_3 25
depth_1_delta_10 13
depth_1_delta_9 4
depth_1_delta_7 3
depth_1_delta_11 3
depth_1_delta_6 3
depth_1_delta_25 1
depth_1_delta_13 1
depth_2_delta_1 185219
depth_3_delta_1 33037
depth_4_delta_1 2863
depth_5_delta_1 46

Channel_0_RQ_row_buffer_hit 188764
Channel_0_RQ_row_buffer_miss 999880
Channel_0_WQ_row_buffer_hit 79936
Channel_0_WQ_row_buffer_miss 104626
Channel_0_WQ_full 0
Channel_0_dbus_congested 286704

avg_congested_cycle 8

DRAM_bw_pochs 1009889
DRAM_bw_level_0 943642
DRAM_bw_level_1 65504
DRAM_bw_level_2 739
DRAM_bw_level_3 4
