*************************************************
   ChampSim Multicore Out-of-Order Simulator
   Last compiled: Apr  3 2025 20:54:34
*************************************************
parsing config file: /home/zir/Pythia/config/pythia.ini

trace_0 /home/zir/ChampSim/ML-DPC/ChampSimTraces/gap/bfs-8.trace.gz
adding L2C_PREFETCHER: Scooby
Initialize SHIP state
warmup_instructions 10000000
simulation_instructions 50000000
champsim_seed 56
measure_ipc 0
measure_ipc_epoch 1000
measure_dram_bw 1
measure_dram_bw_epoch 256
measure_cache_acc 1
measure_cache_acc_epoch 1024
l1d_perfect 0
l2c_perfect 0
llc_perfect 0
l1d_semi_perfect 0
l2c_semi_perfect 0
llc_semi_perfect 0
semi_perfect_cache_page_buffer_size 64

num_cpus 1
cpu_freq 4000
dram_io_freq 2400
page_size 4096
block_size 64
max_read_per_cycle 8
max_fill_per_cycle 1
dram_channels 1
log2_dram_channels 0
dram_ranks 1
dram_banks 8
dram_rows 65536
dram_columns 128
dram_row_size 8
dram_size 4096
dram_pages 1048576

fetch_width 6
decode_width 6
exec_width 4
lq_width 2
sq_width 2
retire_width 4
scheduler_size 128
branch_mispredict_penalty 20
rob_size 256
lq_size 72
sq_size 56
num_instr_destinations_sparc 4
num_instr_destinations 2
num_instr_sources 4

itlb_set 16
itlb_way 8
itlb_rq_size 16
itlb_wq_size 16
itlb_pq_size 0
itlb_mshr_size 8
itlb_latency 1

dtlb_set 16
dtlb_way 4
dtlb_rq_size 16
dtlb_wq_size 16
dtlb_pq_size 0
dtlb_mshr_size 8
dtlb_latency 1

stlb_set 128
stlb_way 12
stlb_rq_size 32
stlb_wq_size 32
stlb_pq_size 0
stlb_mshr_size 16
stlb_latency 8

l1i_size 32
l1i_set 64
l1i_way 8
l1i_rq_size 64
l1i_wq_size 64
l1i_pq_size 8
l1i_mshr_size 8
l1i_latency 1

l1d_size 32
l1d_set 64
l1d_way 8
l1d_rq_size 64
l1d_wq_size 64
l1d_pq_size 8
l1d_mshr_size 16
l1d_latency 4

l2c_size 256
l2c_set 512
l2c_way 8
l2c_rq_size 32
l2c_wq_size 32
l2c_pq_size 32
l2c_mshr_size 32
l2c_latency 10

llc_size 2048
llc_set 2048
llc_way 16
llc_rq_size 32
llc_wq_size 32
llc_pq_size 32
llc_mshr_size 64
llc_latency 20

dram_channel_width 8
dram_wq_size 64
dram_rq_size 64
tRP 15
tRCD 15
tCAS 12.5
dram_dbus_turn_around_time 30
dram_write_high_wm 56
dram_write_low_wm 48
min_dram_writes_per_switch 16
dram_mtps 2400
dram_dbus_return_time 13

scooby_alpha 0.0065088
scooby_gamma 0.556301
scooby_epsilon 0.00182284
scooby_state_num_bits 10
scooby_max_states 1024
scooby_seed 200
scooby_policy EGreedy
scooby_learning_type SARSA
scooby_actions 1,3,4,5,10,11,12,22,23,30,32,-1,-3,-6,0,
scooby_max_actions 15
scooby_pt_size 256
scooby_st_size 64
scooby_max_pcs 5
scooby_max_offsets 5
scooby_max_deltas 5
scooby_reward_none -4
scooby_reward_incorrect -8
scooby_reward_correct_untimely 12
scooby_reward_correct_timely 20
scooby_brain_zero_init 0
scooby_enable_reward_all 0
scooby_enable_track_multiple 0
scooby_enable_reward_out_of_bounds 1
scooby_reward_out_of_bounds -12
scooby_state_type 1
scooby_state_hash_type 11
scooby_access_debug 0
scooby_print_access_debug 0
scooby_print_access_debug_pc deadbeef
scooby_print_access_debug_pc_count 0
scooby_print_trace 0
scooby_enable_state_action_stats 1
scooby_enable_reward_tracker_hit 0
scooby_reward_tracker_hit -2
scooby_enable_featurewise_engine 1
scooby_pref_degree 1
scooby_enable_dyn_degree 1
scooby_max_to_avg_q_thresholds 0.5,1,2,
scooby_dyn_degrees 1,2,4,4,
scooby_multi_deg_select_type 2
scooby_last_pref_offset_conf_thresholds 1,3,8,
scooby_dyn_degrees_type2 1,2,4,6,
scooby_action_tracker_size 2
scooby_high_bw_thresh 4
scooby_enable_hbw_reward 1
scooby_reward_hbw_correct_timely 20
scooby_reward_hbw_correct_untimely 12
scooby_reward_hbw_incorrect -14
scooby_reward_hbw_none -2
scooby_reward_hbw_out_of_bounds -12
scooby_reward_hbw_tracker_hit -2
scooby_last_pref_offset_conf_thresholds_hbw 1,3,8,
scooby_dyn_degrees_type2_hbw 1,2,4,6,

le_enable_trace 0
le_trace_interval 0
le_trace_file_name 
le_trace_state 0
le_enable_score_plot 0
le_plot_file_name 
le_plot_actions 
le_enable_action_trace 0
le_action_trace_interval 0
le_action_trace_name 
le_enable_action_plot 0

le_featurewise_active_features PC, PC_Delta
le_featurewise_num_tilings 3,3,
le_featurewise_num_tiles 128,128,
le_featurewise_hash_types 2,2,
le_featurewise_enable_tiling_offset 1,1,
le_featurewise_max_q_thresh 0.5
le_featurewise_enable_action_fallback 1
le_featurewise_feature_weights 1,1,
le_featurewise_enable_dynamic_weight 0
le_featurewise_weight_gradient 0.001
le_featurewise_disable_adjust_weight_all_features_align 1
le_featurewise_selective_update 0
le_featurewise_pooling_type 2
le_featurewise_enable_dyn_action_fallback 1
le_featurewise_bw_acc_check_level 1
le_featurewise_acc_thresh 2
le_featurewise_enable_trace 0
le_featurewise_trace_feature_type 0
le_featurewise_trace_feature 
le_featurewise_trace_interval 0
le_featurewise_trace_record_count 0
le_featurewise_trace_file_name 
le_featurewise_enable_score_plot 0
le_featurewise_plot_actions 
le_featurewise_plot_file_name 


Heartbeat CPU  0 instructions:    1000000 cycles:    1372938 heartbeat IPC: 0.72837 cumulative IPC: 0.72837 (Simulation time: 0 hr 0 min 1 sec) 
Heartbeat CPU  0 instructions:    2000002 cycles:    2744328 heartbeat IPC: 0.72919 cumulative IPC: 0.72878 (Simulation time: 0 hr 0 min 2 sec) 
Heartbeat CPU  0 instructions:    3000000 cycles:    4112832 heartbeat IPC: 0.73072 cumulative IPC: 0.72942 (Simulation time: 0 hr 0 min 3 sec) 
Heartbeat CPU  0 instructions:    4000000 cycles:    5492018 heartbeat IPC: 0.72507 cumulative IPC: 0.72833 (Simulation time: 0 hr 0 min 4 sec) 
Heartbeat CPU  0 instructions:    5000000 cycles:    6865700 heartbeat IPC: 0.72797 cumulative IPC: 0.72826 (Simulation time: 0 hr 0 min 5 sec) 
Heartbeat CPU  0 instructions:    6000001 cycles:    8239352 heartbeat IPC: 0.72799 cumulative IPC: 0.72821 (Simulation time: 0 hr 0 min 6 sec) 
Heartbeat CPU  0 instructions:    7000000 cycles:    9608072 heartbeat IPC: 0.73061 cumulative IPC: 0.72855 (Simulation time: 0 hr 0 min 7 sec) 
Heartbeat CPU  0 instructions:    8000000 cycles:   10979827 heartbeat IPC: 0.72899 cumulative IPC: 0.72861 (Simulation time: 0 hr 0 min 8 sec) 
Heartbeat CPU  0 instructions:    9000001 cycles:   12361040 heartbeat IPC: 0.72400 cumulative IPC: 0.72809 (Simulation time: 0 hr 0 min 9 sec) 
Heartbeat CPU  0 instructions:   10000001 cycles:   13739564 heartbeat IPC: 0.72541 cumulative IPC: 0.72783 (Simulation time: 0 hr 0 min 10 sec) 

Warmup complete CPU  0 instructions:   10000001 cycles:   13739564 (Simulation time: 0 hr 0 min 10 sec) 

Heartbeat CPU  0 instructions:   11000002 cycles:   18434708 heartbeat IPC: 0.21299 cumulative IPC: 0.21299 (Simulation time: 0 hr 0 min 12 sec) 
Heartbeat CPU  0 instructions:   12000000 cycles:   24760540 heartbeat IPC: 0.15808 cumulative IPC: 0.18147 (Simulation time: 0 hr 0 min 16 sec) 
Heartbeat CPU  0 instructions:   13000000 cycles:   26844325 heartbeat IPC: 0.47990 cumulative IPC: 0.22892 (Simulation time: 0 hr 0 min 18 sec) 
Heartbeat CPU  0 instructions:   14000001 cycles:   30652245 heartbeat IPC: 0.26261 cumulative IPC: 0.23651 (Simulation time: 0 hr 0 min 20 sec) 
Heartbeat CPU  0 instructions:   15000000 cycles:   34332947 heartbeat IPC: 0.27169 cumulative IPC: 0.24280 (Simulation time: 0 hr 0 min 22 sec) 
Heartbeat CPU  0 instructions:   16000000 cycles:   37986974 heartbeat IPC: 0.27367 cumulative IPC: 0.24745 (Simulation time: 0 hr 0 min 25 sec) 
Heartbeat CPU  0 instructions:   17000001 cycles:   41627430 heartbeat IPC: 0.27469 cumulative IPC: 0.25101 (Simulation time: 0 hr 0 min 27 sec) 
Heartbeat CPU  0 instructions:   18000003 cycles:   45308151 heartbeat IPC: 0.27169 cumulative IPC: 0.25342 (Simulation time: 0 hr 0 min 29 sec) 
Heartbeat CPU  0 instructions:   19000001 cycles:   48967248 heartbeat IPC: 0.27329 cumulative IPC: 0.25548 (Simulation time: 0 hr 0 min 31 sec) 
Heartbeat CPU  0 instructions:   20000000 cycles:   52633203 heartbeat IPC: 0.27278 cumulative IPC: 0.25711 (Simulation time: 0 hr 0 min 33 sec) 
Heartbeat CPU  0 instructions:   21000001 cycles:   56276145 heartbeat IPC: 0.27450 cumulative IPC: 0.25860 (Simulation time: 0 hr 0 min 35 sec) 
Heartbeat CPU  0 instructions:   22000001 cycles:   59935686 heartbeat IPC: 0.27326 cumulative IPC: 0.25976 (Simulation time: 0 hr 0 min 38 sec) 
Heartbeat CPU  0 instructions:   23000001 cycles:   63603000 heartbeat IPC: 0.27268 cumulative IPC: 0.26071 (Simulation time: 0 hr 0 min 40 sec) 
Heartbeat CPU  0 instructions:   24000000 cycles:   67241971 heartbeat IPC: 0.27480 cumulative IPC: 0.26167 (Simulation time: 0 hr 0 min 42 sec) 
Heartbeat CPU  0 instructions:   25000003 cycles:   70882863 heartbeat IPC: 0.27466 cumulative IPC: 0.26250 (Simulation time: 0 hr 0 min 44 sec) 
Heartbeat CPU  0 instructions:   26000000 cycles:   74548794 heartbeat IPC: 0.27278 cumulative IPC: 0.26312 (Simulation time: 0 hr 0 min 46 sec) 
Heartbeat CPU  0 instructions:   27000001 cycles:   78244650 heartbeat IPC: 0.27057 cumulative IPC: 0.26355 (Simulation time: 0 hr 0 min 49 sec) 
Heartbeat CPU  0 instructions:   28000000 cycles:   81904395 heartbeat IPC: 0.27324 cumulative IPC: 0.26407 (Simulation time: 0 hr 0 min 51 sec) 
Heartbeat CPU  0 instructions:   29000000 cycles:   85568364 heartbeat IPC: 0.27293 cumulative IPC: 0.26452 (Simulation time: 0 hr 0 min 53 sec) 
Heartbeat CPU  0 instructions:   30000001 cycles:   89208574 heartbeat IPC: 0.27471 cumulative IPC: 0.26501 (Simulation time: 0 hr 0 min 55 sec) 
Heartbeat CPU  0 instructions:   31000002 cycles:   92886374 heartbeat IPC: 0.27190 cumulative IPC: 0.26533 (Simulation time: 0 hr 0 min 57 sec) 
Heartbeat CPU  0 instructions:   32000000 cycles:   96523303 heartbeat IPC: 0.27496 cumulative IPC: 0.26575 (Simulation time: 0 hr 1 min 0 sec) 
Heartbeat CPU  0 instructions:   33000000 cycles:  100217122 heartbeat IPC: 0.27072 cumulative IPC: 0.26596 (Simulation time: 0 hr 1 min 2 sec) 
Heartbeat CPU  0 instructions:   34000000 cycles:  103890064 heartbeat IPC: 0.27226 cumulative IPC: 0.26622 (Simulation time: 0 hr 1 min 4 sec) 
Heartbeat CPU  0 instructions:   35000000 cycles:  107593730 heartbeat IPC: 0.27000 cumulative IPC: 0.26637 (Simulation time: 0 hr 1 min 6 sec) 
Heartbeat CPU  0 instructions:   36000000 cycles:  111235599 heartbeat IPC: 0.27458 cumulative IPC: 0.26668 (Simulation time: 0 hr 1 min 8 sec) 
Heartbeat CPU  0 instructions:   37000000 cycles:  115529880 heartbeat IPC: 0.23287 cumulative IPC: 0.26525 (Simulation time: 0 hr 1 min 10 sec) 
Heartbeat CPU  0 instructions:   38000002 cycles:  120197040 heartbeat IPC: 0.21426 cumulative IPC: 0.26302 (Simulation time: 0 hr 1 min 12 sec) 
Heartbeat CPU  0 instructions:   39000000 cycles:  124818884 heartbeat IPC: 0.21636 cumulative IPC: 0.26107 (Simulation time: 0 hr 1 min 14 sec) 
Heartbeat CPU  0 instructions:   40000000 cycles:  129468107 heartbeat IPC: 0.21509 cumulative IPC: 0.25923 (Simulation time: 0 hr 1 min 16 sec) 
Heartbeat CPU  0 instructions:   41000000 cycles:  134095571 heartbeat IPC: 0.21610 cumulative IPC: 0.25757 (Simulation time: 0 hr 1 min 18 sec) 
Heartbeat CPU  0 instructions:   42000000 cycles:  138720732 heartbeat IPC: 0.21621 cumulative IPC: 0.25604 (Simulation time: 0 hr 1 min 20 sec) 
Heartbeat CPU  0 instructions:   43000001 cycles:  143332941 heartbeat IPC: 0.21682 cumulative IPC: 0.25464 (Simulation time: 0 hr 1 min 22 sec) 
Heartbeat CPU  0 instructions:   44000000 cycles:  147970978 heartbeat IPC: 0.21561 cumulative IPC: 0.25329 (Simulation time: 0 hr 1 min 24 sec) 
Heartbeat CPU  0 instructions:   45000002 cycles:  152601616 heartbeat IPC: 0.21595 cumulative IPC: 0.25205 (Simulation time: 0 hr 1 min 25 sec) 
Heartbeat CPU  0 instructions:   46000000 cycles:  157205783 heartbeat IPC: 0.21719 cumulative IPC: 0.25093 (Simulation time: 0 hr 1 min 27 sec) 
Heartbeat CPU  0 instructions:   47000000 cycles:  159962612 heartbeat IPC: 0.36274 cumulative IPC: 0.25304 (Simulation time: 0 hr 1 min 29 sec) 
Heartbeat CPU  0 instructions:   48000000 cycles:  160666524 heartbeat IPC: 1.42063 cumulative IPC: 0.25863 (Simulation time: 0 hr 1 min 30 sec) 
Heartbeat CPU  0 instructions:   49000001 cycles:  161370449 heartbeat IPC: 1.42061 cumulative IPC: 0.26417 (Simulation time: 0 hr 1 min 31 sec) 
Heartbeat CPU  0 instructions:   50000000 cycles:  162073986 heartbeat IPC: 1.42139 cumulative IPC: 0.26966 (Simulation time: 0 hr 1 min 32 sec) 
Heartbeat CPU  0 instructions:   51000000 cycles:  162776500 heartbeat IPC: 1.42346 cumulative IPC: 0.27510 (Simulation time: 0 hr 1 min 33 sec) 
Heartbeat CPU  0 instructions:   52000000 cycles:  163504434 heartbeat IPC: 1.37375 cumulative IPC: 0.28044 (Simulation time: 0 hr 1 min 35 sec) 
Heartbeat CPU  0 instructions:   53000001 cycles:  164204388 heartbeat IPC: 1.42867 cumulative IPC: 0.28578 (Simulation time: 0 hr 1 min 36 sec) 
Heartbeat CPU  0 instructions:   54000002 cycles:  164906931 heartbeat IPC: 1.42340 cumulative IPC: 0.29107 (Simulation time: 0 hr 1 min 37 sec) 
Heartbeat CPU  0 instructions:   55000002 cycles:  165611659 heartbeat IPC: 1.41899 cumulative IPC: 0.29630 (Simulation time: 0 hr 1 min 38 sec) 
Heartbeat CPU  0 instructions:   56000000 cycles:  166312798 heartbeat IPC: 1.42625 cumulative IPC: 0.30149 (Simulation time: 0 hr 1 min 39 sec) 
Heartbeat CPU  0 instructions:   57000002 cycles:  167045331 heartbeat IPC: 1.36513 cumulative IPC: 0.30658 (Simulation time: 0 hr 1 min 41 sec) 
Heartbeat CPU  0 instructions:   58000003 cycles:  167742394 heartbeat IPC: 1.43459 cumulative IPC: 0.31168 (Simulation time: 0 hr 1 min 42 sec) 
Heartbeat CPU  0 instructions:   59000002 cycles:  174573619 heartbeat IPC: 0.14639 cumulative IPC: 0.30466 (Simulation time: 0 hr 1 min 45 sec) 
Heartbeat CPU  0 instructions:   60000000 cycles:  179850609 heartbeat IPC: 0.18950 cumulative IPC: 0.30100 (Simulation time: 0 hr 1 min 49 sec) 
Finished CPU 0 instructions: 50000000 cycles: 166111058 cumulative IPC: 0.30100 (Simulation time: 0 hr 1 min 49 sec) 

ChampSim completed all CPUs

[ROI Statistics]
Core_0_instructions 50000000
Core_0_cycles 166111058
Core_0_IPC 0.30100

Core_0_branch_prediction_accuracy 85.89728
Core_0_branch_MPKI 27.02096
Core_0_average_ROB_occupancy_at_mispredict 31.64683

Core_0_L1D_total_access 10310058
Core_0_L1D_total_hit 8773624
Core_0_L1D_total_miss 1536434
Core_0_L1D_loads 8784970
Core_0_L1D_load_hit 7271830
Core_0_L1D_load_miss 1513140
Core_0_L1D_RFOs 1525088
Core_0_L1D_RFO_hit 1501794
Core_0_L1D_RFO_miss 23294
Core_0_L1D_prefetches 0
Core_0_L1D_prefetch_hit 0
Core_0_L1D_prefetch_miss 0
Core_0_L1D_writebacks 0
Core_0_L1D_writeback_hit 0
Core_0_L1D_writeback_miss 0
Core_0_L1D_prefetch_requested 0
Core_0_L1D_prefetch_dropped 0
Core_0_L1D_prefetch_issued 0
Core_0_L1D_prefetch_filled 0
Core_0_L1D_prefetch_useful 0
Core_0_L1D_prefetch_useless 0
Core_0_L1D_prefetch_late 0
Core_0_L1D_average_miss_latency 63.38426

Core_0_L1D_rq_access 12860383
Core_0_L1D_rq_forward 0
Core_0_L1D_rq_merged 3898267
Core_0_L1D_rq_to_cache 8962116
Core_0_L1D_rq_full 0

Core_0_L1D_wq_access 1593513
Core_0_L1D_wq_forward 0
Core_0_L1D_wq_merged 7663
Core_0_L1D_wq_to_cache 1585850
Core_0_L1D_wq_full 265397

Core_0_L1D_pq_access 0
Core_0_L1D_pq_forward 0
Core_0_L1D_pq_merged 0
Core_0_L1D_pq_to_cache 0
Core_0_L1D_pq_full 0

Core_0_L1D_acc_epochs 168341
Core_0_L1D_acc_level_0 168341
Core_0_L1D_acc_level_1 0
Core_0_L1D_acc_level_2 0
Core_0_L1D_acc_level_3 0
Core_0_L1D_acc_level_4 0
Core_0_L1D_acc_level_5 0
Core_0_L1D_acc_level_6 0
Core_0_L1D_acc_level_7 0
Core_0_L1D_acc_level_8 0
Core_0_L1D_acc_level_9 0

Core_0_L1I_total_access 10589309
Core_0_L1I_total_hit 10589262
Core_0_L1I_total_miss 47
Core_0_L1I_loads 10589309
Core_0_L1I_load_hit 10589262
Core_0_L1I_load_miss 47
Core_0_L1I_RFOs 0
Core_0_L1I_RFO_hit 0
Core_0_L1I_RFO_miss 0
Core_0_L1I_prefetches 0
Core_0_L1I_prefetch_hit 0
Core_0_L1I_prefetch_miss 0
Core_0_L1I_writebacks 0
Core_0_L1I_writeback_hit 0
Core_0_L1I_writeback_miss 0
Core_0_L1I_prefetch_requested 0
Core_0_L1I_prefetch_dropped 0
Core_0_L1I_prefetch_issued 0
Core_0_L1I_prefetch_filled 0
Core_0_L1I_prefetch_useful 0
Core_0_L1I_prefetch_useless 0
Core_0_L1I_prefetch_late 0
Core_0_L1I_average_miss_latency 186.70213

Core_0_L1I_rq_access 50000243
Core_0_L1I_rq_forward 0
Core_0_L1I_rq_merged 39410919
Core_0_L1I_rq_to_cache 10589324
Core_0_L1I_rq_full 0

Core_0_L1I_wq_access 0
Core_0_L1I_wq_forward 0
Core_0_L1I_wq_merged 0
Core_0_L1I_wq_to_cache 0
Core_0_L1I_wq_full 0

Core_0_L1I_pq_access 0
Core_0_L1I_pq_forward 0
Core_0_L1I_pq_merged 0
Core_0_L1I_pq_to_cache 0
Core_0_L1I_pq_full 0

Core_0_L1I_acc_epochs 168341
Core_0_L1I_acc_level_0 168341
Core_0_L1I_acc_level_1 0
Core_0_L1I_acc_level_2 0
Core_0_L1I_acc_level_3 0
Core_0_L1I_acc_level_4 0
Core_0_L1I_acc_level_5 0
Core_0_L1I_acc_level_6 0
Core_0_L1I_acc_level_7 0
Core_0_L1I_acc_level_8 0
Core_0_L1I_acc_level_9 0

Core_0_L2C_total_access 5101710
Core_0_L2C_total_hit 3434107
Core_0_L2C_total_miss 1667603
Core_0_L2C_loads 1513186
Core_0_L2C_load_hit 1024818
Core_0_L2C_load_miss 488368
Core_0_L2C_RFOs 23294
Core_0_L2C_RFO_hit 3060
Core_0_L2C_RFO_miss 20234
Core_0_L2C_prefetches 3350522
Core_0_L2C_prefetch_hit 2191546
Core_0_L2C_prefetch_miss 1158976
Core_0_L2C_writebacks 214708
Core_0_L2C_writeback_hit 214683
Core_0_L2C_writeback_miss 25
Core_0_L2C_prefetch_requested 4232727
Core_0_L2C_prefetch_dropped 46
Core_0_L2C_prefetch_issued 4232681
Core_0_L2C_prefetch_filled 1284147
Core_0_L2C_prefetch_useful 758522
Core_0_L2C_prefetch_useless 525605
Core_0_L2C_prefetch_late 28301
Core_0_L2C_average_miss_latency 157.95555

Core_0_L2C_rq_access 1536481
Core_0_L2C_rq_forward 0
Core_0_L2C_rq_merged 0
Core_0_L2C_rq_to_cache 1536480
Core_0_L2C_rq_full 0

Core_0_L2C_wq_access 214708
Core_0_L2C_wq_forward 3
Core_0_L2C_wq_merged 0
Core_0_L2C_wq_to_cache 214708
Core_0_L2C_wq_full 0

Core_0_L2C_pq_access 4232681
Core_0_L2C_pq_forward 0
Core_0_L2C_pq_merged 97890
Core_0_L2C_pq_to_cache 4134789
Core_0_L2C_pq_full 0

Core_0_L2C_acc_epochs 168341
Core_0_L2C_acc_level_0 15820
Core_0_L2C_acc_level_1 8092
Core_0_L2C_acc_level_2 4932
Core_0_L2C_acc_level_3 10403
Core_0_L2C_acc_level_4 16806
Core_0_L2C_acc_level_5 19365
Core_0_L2C_acc_level_6 17099
Core_0_L2C_acc_level_7 13357
Core_0_L2C_acc_level_8 9701
Core_0_L2C_acc_level_9 52766

Core_0_LLC_total_access 1855065
Core_0_LLC_total_hit 453075
Core_0_LLC_total_miss 1401990
Core_0_LLC_loads 460069
Core_0_LLC_load_hit 173709
Core_0_LLC_load_miss 286360
Core_0_LLC_RFOs 20234
Core_0_LLC_RFO_hit 3308
Core_0_LLC_RFO_miss 16926
Core_0_LLC_prefetches 1187275
Core_0_LLC_prefetch_hit 173036
Core_0_LLC_prefetch_miss 1014239
Core_0_LLC_writebacks 187487
Core_0_LLC_writeback_hit 103022
Core_0_LLC_writeback_miss 84465
Core_0_LLC_prefetch_requested 0
Core_0_LLC_prefetch_dropped 0
Core_0_LLC_prefetch_issued 0
Core_0_LLC_prefetch_filled 1139410
Core_0_LLC_prefetch_useful 9113
Core_0_LLC_prefetch_useless 1125889
Core_0_LLC_prefetch_late 0
Core_0_LLC_average_miss_latency 151.43701

Core_0_LLC_rq_access 480303
Core_0_LLC_rq_forward 0
Core_0_LLC_rq_merged 0
Core_0_LLC_rq_to_cache 480303
Core_0_LLC_rq_full 0

Core_0_LLC_wq_access 187487
Core_0_LLC_wq_forward 0
Core_0_LLC_wq_merged 0
Core_0_LLC_wq_to_cache 187487
Core_0_LLC_wq_full 0

Core_0_LLC_pq_access 1312448
Core_0_LLC_pq_forward 0
Core_0_LLC_pq_merged 0
Core_0_LLC_pq_to_cache 1312448
Core_0_LLC_pq_full 0

Core_0_LLC_acc_epochs 175636
Core_0_LLC_acc_level_0 169158
Core_0_LLC_acc_level_1 3768
Core_0_LLC_acc_level_2 1567
Core_0_LLC_acc_level_3 582
Core_0_LLC_acc_level_4 176
Core_0_LLC_acc_level_5 265
Core_0_LLC_acc_level_6 53
Core_0_LLC_acc_level_7 21
Core_0_LLC_acc_level_8 12
Core_0_LLC_acc_level_9 34

Core_0_major_page_fault 0
Core_0_minor_page_fault 26900

scooby_st_lookup 1640297
scooby_st_hit 1499964
scooby_st_evict 140269
scooby_st_insert 140333
scooby_st_streaming 0

scooby_predict_called 1640297
scooby_predict_out_of_bounds 58137
scooby_predict_action_1 1120213
scooby_predict_issue_action_1 1073732
scooby_predict_hit_action_1 46481
scooby_predict_out_of_bounds_action_1 17697
scooby_predict_action_3 32175
scooby_predict_issue_action_3 31196
scooby_predict_hit_action_3 979
scooby_predict_out_of_bounds_action_3 1678
scooby_predict_action_4 204913
scooby_predict_issue_action_4 203052
scooby_predict_hit_action_4 1861
scooby_predict_out_of_bounds_action_4 13917
scooby_predict_action_5 10583
scooby_predict_issue_action_5 10069
scooby_predict_hit_action_5 514
scooby_predict_out_of_bounds_action_5 964
scooby_predict_action_10 9042
scooby_predict_issue_action_10 8578
scooby_predict_hit_action_10 464
scooby_predict_out_of_bounds_action_10 1729
scooby_predict_action_11 12432
scooby_predict_issue_action_11 11961
scooby_predict_hit_action_11 471
scooby_predict_out_of_bounds_action_11 2607
scooby_predict_action_12 8017
scooby_predict_issue_action_12 7673
scooby_predict_hit_action_12 344
scooby_predict_out_of_bounds_action_12 1898
scooby_predict_action_22 5709
scooby_predict_issue_action_22 5458
scooby_predict_hit_action_22 251
scooby_predict_out_of_bounds_action_22 2780
scooby_predict_action_23 8423
scooby_predict_issue_action_23 8077
scooby_predict_hit_action_23 346
scooby_predict_out_of_bounds_action_23 4243
scooby_predict_action_30 6924
scooby_predict_issue_action_30 6775
scooby_predict_hit_action_30 149
scooby_predict_out_of_bounds_action_30 5865
scooby_predict_action_32 3826
scooby_predict_issue_action_32 3491
scooby_predict_hit_action_32 335
scooby_predict_out_of_bounds_action_32 3545
scooby_predict_action_-1 9795
scooby_predict_issue_action_-1 9126
scooby_predict_hit_action_-1 669
scooby_predict_out_of_bounds_action_-1 143
scooby_predict_action_-3 9252
scooby_predict_issue_action_-3 8532
scooby_predict_hit_action_-3 720
scooby_predict_out_of_bounds_action_-3 375
scooby_predict_action_-6 8593
scooby_predict_issue_action_-6 7916
scooby_predict_hit_action_-6 677
scooby_predict_out_of_bounds_action_-6 696
scooby_predict_action_0 132263
scooby_predict_issue_action_0 0
scooby_predict_hit_action_0 0
scooby_predict_out_of_bounds_action_0 0
scooby_predict_multi_deg_called 770072
scooby_predict_predicted 4232727
scooby_predict_multi_deg 2837091
scooby_predict_multi_deg_2 742798
scooby_predict_multi_deg_3 638085
scooby_predict_multi_deg_4 615256
scooby_predict_multi_deg_5 430813
scooby_predict_multi_deg_6 410139
scooby_predict_multi_deg_7 0
scooby_predict_multi_deg_8 0
scooby_predict_multi_deg_9 0
scooby_predict_multi_deg_10 0
scooby_predict_multi_deg_11 0
scooby_predict_multi_deg_12 0
scooby_predict_multi_deg_13 0
scooby_predict_multi_deg_14 0
scooby_predict_multi_deg_15 0
scooby_predict_multi_deg_16 0

scooby_selected_deg_1 625564
scooby_selected_deg_2 82305
scooby_selected_deg_3 0
scooby_selected_deg_4 170510
scooby_selected_deg_5 0
scooby_selected_deg_6 517257
scooby_selected_deg_7 0
scooby_selected_deg_8 0
scooby_selected_deg_9 0
scooby_selected_deg_10 0
scooby_selected_deg_11 0
scooby_selected_deg_12 0
scooby_selected_deg_13 0
scooby_selected_deg_14 0
scooby_selected_deg_15 0
scooby_selected_deg_16 0

scooby_state_55ecb86b57d9|0|0 4294,3,2,2,2,1,1,0,0,0,1,1,0,2,498,4807,
scooby_state_55ecb86b57cf|8|1 1,0,2831,0,0,0,0,0,2,0,0,0,1,0,0,2835,
scooby_state_55ecb86b57cf|17|1 0,0,2827,0,1,0,0,0,0,0,0,0,1,1,0,2830,
scooby_state_55ecb86b57cf|40|1 0,0,2820,1,0,1,0,0,0,0,0,0,0,0,0,2822,
scooby_state_55ecb86b57cf|36|1 1,0,2814,0,0,0,0,0,0,1,0,0,1,0,0,2817,
scooby_state_55ecb86b57cf|59|1 0,0,2814,0,0,0,0,0,1,0,1,0,1,0,0,2817,
scooby_state_55ecb86b57cf|33|1 0,0,2815,0,0,0,0,0,1,0,0,0,0,0,0,2816,
scooby_state_55ecb86b57cf|63|1 0,0,2814,0,0,0,0,0,1,0,1,0,0,0,0,2816,
scooby_state_55ecb86b57cf|58|1 0,0,2811,0,1,0,0,0,0,1,0,0,0,1,0,2814,
scooby_state_55ecb86b57cf|15|1 0,0,2812,0,0,0,0,0,0,0,0,0,0,0,1,2813,
scooby_state_55ecb86b57cf|7|1 0,0,2810,0,0,0,0,1,0,0,0,0,0,0,0,2811,
scooby_state_55ecb86b57cf|18|1 1,0,2806,0,0,0,0,0,0,1,0,0,0,0,0,2808,
scooby_state_55ecb86b57cf|28|1 0,0,2802,0,1,1,0,0,0,0,0,0,1,1,0,2806,
scooby_state_55ecb86b57cf|51|1 0,1,2803,0,0,0,0,0,0,1,1,0,0,0,0,2806,
scooby_state_55ecb86b57cf|39|1 0,2,2800,0,1,0,0,0,0,0,1,0,0,1,1,2806,
scooby_state_55ecb86b57cf|35|1 1,1,2798,0,1,0,1,0,0,0,0,1,0,1,0,2804,
scooby_state_55ecb86b57cf|23|1 0,0,2802,0,0,0,1,0,0,0,0,0,0,0,1,2804,
scooby_state_55ecb86b57cf|53|1 0,0,2800,0,0,1,0,0,1,0,0,1,1,0,0,2804,
scooby_state_55ecb86b57cf|11|1 1,1,2799,0,1,0,1,0,0,0,0,0,0,0,0,2803,
scooby_state_55ecb86b57cf|19|1 0,0,2799,0,0,0,1,1,1,0,0,0,0,0,0,2802,
scooby_state_55ecb86b57cf|56|1 0,1,2793,0,1,1,0,2,0,1,0,0,1,2,0,2802,
scooby_state_55ecb86b57cf|16|1 2,0,2798,1,0,0,0,0,0,0,0,0,0,1,0,2802,
scooby_state_55ecb86b57cf|62|1 0,2,2794,1,1,0,0,0,0,0,1,1,1,1,0,2802,
scooby_state_55ecb86b57cf|14|1 0,1,2797,0,2,0,0,0,1,0,0,0,0,0,0,2801,
scooby_state_55ecb86b57cf|29|1 1,0,2793,1,1,0,2,1,0,0,0,1,0,0,0,2800,
scooby_state_55ecb86b57cf|1|1 0,0,2792,0,0,0,1,0,0,1,0,0,3,0,2,2799,
scooby_state_55ecb86b57cf|13|1 0,0,2796,0,0,0,1,1,0,0,0,0,0,0,0,2798,
scooby_state_55ecb86b57cf|52|1 0,0,2792,0,1,1,1,0,1,0,0,1,0,0,0,2797,
scooby_state_55ecb86b57cf|57|1 1,2,2788,1,0,1,0,0,0,1,0,0,1,0,0,2795,
scooby_state_55ecb86b57cf|3|1 0,0,2793,0,0,0,0,0,0,1,0,0,1,0,0,2795,
scooby_state_55ecb86b57cf|5|1 0,0,2789,0,0,1,0,0,0,0,0,1,0,1,0,2792,
scooby_state_55ecb86b57cf|0|0 1,0,2780,0,0,0,0,0,0,3,0,0,2,0,0,2786,
scooby_state_55ecb86b57cf|34|1 0,0,2781,2,0,0,0,0,0,1,0,0,0,1,0,2785,
scooby_state_55ecb86b57cf|25|1 0,0,2783,0,0,0,0,1,0,0,1,0,0,0,0,2785,
scooby_state_55ecb86b57cf|55|1 0,0,2782,0,1,1,1,0,0,0,0,0,0,0,0,2785,
scooby_state_55ecb86b57cf|32|1 0,1,2779,0,0,2,0,1,0,0,0,0,1,0,0,2784,
scooby_state_55ecb86b57cf|31|1 0,0,2779,0,0,1,1,0,0,0,1,0,0,0,0,2782,
scooby_state_55ecb86b57cf|20|1 0,2,2773,1,2,1,1,0,0,0,0,0,0,0,1,2781,
scooby_state_55ecb86b57cf|22|1 0,0,2779,0,0,0,0,0,0,0,0,0,0,1,0,2780,
scooby_state_55ecb86b57cf|10|1 1,0,2771,0,1,2,1,0,1,0,0,0,0,0,1,2778,
scooby_state_55ecb86b57cf|60|1 0,0,2773,0,1,1,1,0,0,0,0,0,0,1,0,2777,
scooby_state_55ecb86b57cf|26|1 0,0,2776,0,0,0,0,0,0,1,0,0,0,0,0,2777,
scooby_state_55ecb86b57cf|37|1 0,1,2765,0,2,0,0,0,1,0,0,0,0,0,0,2769,
scooby_state_55ecb86b57cf|12|1 0,1,2765,0,1,0,0,0,0,1,0,0,0,1,0,2769,
scooby_state_55ecb86b57cf|42|1 0,0,2760,0,2,0,1,0,0,1,0,1,0,1,0,2766,
scooby_state_55ecb86b57cf|27|1 2,1,2761,0,0,0,0,0,0,0,0,0,0,0,1,2765,
scooby_state_55ecb86b57cf|45|1 1,0,2759,0,0,0,0,0,0,0,0,0,0,1,0,2761,
scooby_state_55ecb86b57cf|4|1 2,0,2754,0,0,0,0,0,1,1,1,0,1,0,0,2760,
scooby_state_55ecb86b57cf|30|1 0,1,2756,0,0,1,0,0,0,1,0,0,0,0,0,2759,
scooby_state_55ecb86b57cf|47|1 0,0,2756,0,0,1,0,0,0,0,0,0,1,1,0,2759,
scooby_state_55ecb86b57cf|49|1 0,1,2754,0,1,0,0,0,0,2,0,0,0,0,0,2758,
scooby_state_55ecb86b57cf|61|1 0,0,2750,0,1,0,0,0,0,2,1,1,1,0,1,2757,
scooby_state_55ecb86b57cf|48|1 0,1,2752,0,0,1,0,1,0,0,0,0,0,0,0,2755,
scooby_state_55ecb86b57cf|54|1 1,0,2748,1,0,2,0,0,1,0,0,0,0,1,0,2754,
scooby_state_55ecb86b57cf|41|1 0,0,2748,0,0,0,0,2,0,0,1,0,0,1,0,2752,
scooby_state_55ecb86b57cf|21|1 0,1,2748,0,0,0,1,0,0,0,0,0,0,0,1,2751,
scooby_state_55ecb86b57cf|50|1 1,0,2747,0,0,0,0,0,0,1,0,0,0,0,0,2749,
scooby_state_55ecb86b57cf|43|1 0,1,2739,0,4,0,0,0,0,0,0,0,0,0,1,2745,
scooby_state_55ecb86b57cf|6|1 0,1,2740,0,1,0,0,0,0,0,0,0,1,0,0,2743,
scooby_state_55ecb86b57cf|44|1 2,1,2734,0,0,0,1,0,0,1,0,0,1,0,0,2740,
scooby_state_55ecb86b57cf|24|1 0,0,2729,0,0,0,0,0,0,0,1,2,1,1,1,2735,
scooby_state_55ecb86b57cf|2|1 1,0,2728,1,1,0,1,0,1,0,1,0,0,0,0,2734,
scooby_state_55ecb86b57cf|46|1 1,0,2725,0,0,0,1,1,1,0,0,0,0,0,1,2730,
scooby_state_55ecb86b57cf|38|1 0,0,2720,0,1,1,1,2,1,0,0,1,0,1,1,2729,
scooby_state_55ecb86b57cf|9|1 0,0,2717,0,0,0,0,1,0,0,0,0,0,0,0,2718,
scooby_state_55ecb86b57d9|1|0 2135,1,1,4,1,0,0,1,1,1,0,0,0,1,458,2604,
scooby_state_55ecb86b57d9|37|1 2294,0,0,0,0,0,0,0,0,1,0,2,0,0,49,2346,
scooby_state_55ecb86b57d9|34|1 2284,1,0,0,1,0,0,1,0,0,0,0,0,0,52,2339,
scooby_state_55ecb86b57d9|38|1 2305,1,0,1,0,0,1,0,0,0,0,1,1,0,29,2339,
scooby_state_55ecb86b57d9|17|1 2283,0,0,2,0,0,1,0,0,0,0,0,1,0,40,2327,
scooby_state_55ecb86b57d9|48|1 2286,0,0,0,2,0,0,0,0,0,2,0,0,0,29,2319,
scooby_state_55ecb86b57d9|54|1 2273,0,0,0,0,2,0,2,1,0,0,0,0,0,27,2305,
scooby_state_55ecb86b57d9|53|1 2267,0,0,1,0,0,1,0,0,0,0,0,0,0,35,2304,
scooby_state_55ecb86b57d9|36|1 2258,0,0,0,1,0,0,0,2,0,1,1,1,0,40,2304,
scooby_state_55ecb86b57d9|7|1 2244,1,1,0,1,1,1,1,0,0,0,0,1,0,52,2303,
scooby_state_55ecb86b57d9|5|1 2257,1,0,2,1,0,0,0,0,0,2,2,0,1,34,2300,
scooby_state_55ecb86b57d9|26|1 2249,1,1,0,1,0,2,1,0,2,0,0,0,0,42,2299,
scooby_state_55ecb86b57d9|47|1 2256,2,2,0,1,1,0,0,0,0,0,0,1,0,36,2299,
scooby_state_55ecb86b57d9|16|1 2246,0,2,2,0,0,0,0,0,0,1,1,1,0,45,2298,
scooby_state_55ecb86b57d9|50|1 2248,0,1,0,1,0,0,0,0,0,1,1,0,0,43,2295,
scooby_state_55ecb86b57d9|20|1 2247,0,1,1,4,1,0,0,0,0,0,0,0,0,34,2288,
scooby_state_55ecb86b57d9|62|1 2245,1,1,1,1,0,0,1,1,0,0,0,0,0,33,2284,
scooby_state_55ecb86b57d9|55|1 2235,2,2,1,0,0,0,0,0,0,0,1,0,0,41,2282,
scooby_state_55ecb86b57d9|31|1 2231,1,0,0,4,1,1,0,0,0,0,0,0,1,42,2281,
scooby_state_55ecb86b57d9|15|1 2224,2,1,3,2,1,0,2,0,0,1,1,0,2,39,2278,
scooby_state_55ecb86b57d9|61|1 2225,0,0,1,1,2,0,1,0,0,0,1,0,1,44,2276,
scooby_state_55ecb86b57d9|32|1 2230,0,3,0,0,0,0,2,1,0,0,0,2,1,36,2275,
scooby_state_55ecb86b57d9|14|1 2223,1,2,1,1,0,0,2,1,2,0,1,0,0,38,2272,
scooby_state_55ecb86b57d9|4|1 2221,0,2,0,1,0,1,0,1,0,0,1,3,2,40,2272,
scooby_state_55ecb86b57d9|35|1 2216,1,2,0,2,2,0,0,0,0,0,0,3,0,46,2272,
scooby_state_55ecb86b57d9|22|1 2235,0,0,2,2,0,0,0,1,0,0,1,0,0,29,2270,
scooby_state_55ecb86b57d9|11|1 2232,1,1,0,0,0,0,2,0,0,0,0,0,0,34,2270,
scooby_state_55ecb86b57d9|39|1 2224,0,2,0,1,0,2,1,1,0,1,0,0,1,35,2268,
scooby_state_55ecb86b57d9|29|1 2218,0,1,0,2,0,1,2,0,0,1,0,2,0,40,2267,
scooby_state_55ecb86b57d9|49|1 2225,0,0,0,0,0,1,1,0,1,1,0,0,0,37,2266,
scooby_state_55ecb86b57d9|25|1 2218,0,2,0,0,1,1,0,0,0,0,0,0,2,40,2264,
scooby_state_55ecb86b57d9|33|1 2214,0,0,0,3,0,0,2,0,1,0,1,0,0,40,2261,
scooby_state_55ecb86b57d9|27|1 2212,1,2,0,1,0,0,0,0,1,0,0,1,0,42,2260,
scooby_state_55ecb86b57d9|51|1 2209,0,0,2,1,0,1,1,1,0,0,0,0,2,41,2258,
scooby_state_55ecb86b57d9|30|1 2215,0,2,0,2,0,0,0,0,0,0,0,0,0,38,2257,
scooby_state_55ecb86b57d9|46|1 2209,1,1,1,2,0,0,1,1,0,0,1,0,1,37,2255,
scooby_state_55ecb86b5063|0|0 1469,3,24,13,17,18,9,59,20,20,7,16,12,9,557,2253,
scooby_state_55ecb86b57d9|43|1 2208,1,1,0,1,0,0,0,0,0,0,0,0,1,40,2252,
scooby_state_55ecb86b57d9|60|1 2197,1,1,1,1,1,1,1,2,0,1,2,0,0,42,2251,
scooby_state_55ecb86b57d9|1|1 2210,1,0,0,2,0,0,0,1,0,1,0,0,0,34,2249,
scooby_state_55ecb86b57d9|52|1 2205,0,1,1,0,0,1,0,0,0,0,0,0,0,41,2249,
scooby_state_55ecb86b57d9|63|1 2203,2,1,1,0,0,0,0,1,0,1,1,0,0,38,2248,
scooby_state_55ecb86b57d9|21|1 2205,3,1,0,1,0,0,0,0,3,0,0,0,0,33,2246,
scooby_state_55ecb86b57d9|40|1 2214,0,2,0,0,0,1,0,0,0,0,0,0,0,29,2246,
scooby_state_55ecb86b57d9|45|1 2192,0,1,0,1,0,0,0,0,0,0,1,0,0,48,2243,
scooby_state_55ecb86b57d9|6|1 2205,1,2,0,1,0,0,2,0,1,0,0,0,1,28,2241,
scooby_state_55ecb86b57d9|59|1 2191,2,1,1,1,1,0,0,0,1,2,1,0,0,36,2237,
scooby_state_55ecb86b57d9|3|1 2196,1,1,0,0,0,1,1,1,0,0,1,1,0,33,2236,
scooby_state_55ecb86b57d9|42|1 2192,1,4,0,3,0,1,0,1,0,0,2,0,1,31,2236,
scooby_state_55ecb86b57d9|58|1 2192,0,1,1,1,1,0,1,0,0,2,0,0,0,37,2236,
scooby_state_55ecb86b57d9|23|1 2193,1,1,0,0,0,2,0,0,1,0,0,0,0,32,2230,
scooby_state_55ecb86b57d9|10|1 2183,0,0,0,1,0,1,1,0,1,0,0,0,0,39,2226,
scooby_state_55ecb86b57d9|8|1 2173,0,1,1,1,0,1,0,1,0,0,2,0,0,42,2222,
scooby_state_55ecb86b57d9|24|1 2177,1,1,0,0,3,1,1,1,1,0,0,0,0,36,2222,
scooby_state_55ecb86b57d9|2|1 2177,0,1,0,0,1,0,0,0,1,0,1,0,0,40,2221,
scooby_state_55ecb86b57d9|18|1 2163,0,1,0,3,1,0,0,0,0,0,0,0,0,45,2213,
scooby_state_55ecb86b57d9|41|1 2177,0,1,1,1,0,0,0,0,0,1,1,1,0,30,2213,
scooby_state_55ecb86b57d9|44|1 2168,0,2,2,1,0,0,0,0,0,0,1,0,0,34,2208,
scooby_state_55ecb86b57d9|56|1 2167,1,1,1,0,0,0,0,0,0,0,0,0,1,36,2207,
scooby_state_55ecb86b57d9|28|1 2176,1,1,0,2,1,1,1,0,0,0,0,0,0,22,2205,
scooby_state_55ecb86b57d9|12|1 2155,2,0,0,1,0,0,1,0,1,0,2,1,0,28,2191,
scooby_state_55ecb86b57d9|9|1 2137,0,0,1,0,0,0,1,0,0,0,2,0,1,38,2180,
scooby_state_55ecb86b57d9|57|1 2119,0,0,0,0,2,1,0,2,1,0,1,1,1,45,2173,
scooby_state_55ecb86b57d9|19|1 2128,1,1,0,2,0,1,0,1,0,0,0,1,0,26,2161,
scooby_state_55ecb86b57d9|13|1 2063,1,1,0,0,2,0,1,0,0,1,0,0,0,34,2103,
scooby_state_55ecb86b57d9|2|0 1678,0,1,1,0,0,1,0,0,0,0,1,4,1,402,2089,
scooby_state_55ecb86b54a0|22|1 2034,12,0,0,0,0,0,1,0,0,1,0,0,0,0,2048,
scooby_state_55ecb86b57bd|19|1 2044,0,0,0,0,0,0,1,0,0,0,1,0,0,2,2048,
scooby_state_55ecb86b54a0|39|1 2031,13,0,0,1,0,0,0,1,0,0,1,1,0,0,2048,
scooby_state_55ecb86b54a0|56|1 2034,12,0,0,0,0,0,0,1,1,0,0,0,0,0,2048,
scooby_state_55ecb86b57bd|17|1 2042,0,1,1,0,0,1,0,0,1,0,1,1,0,0,2048,
scooby_state_55ecb86b54a0|1|1 2031,12,0,0,1,0,0,0,1,0,0,1,1,0,1,2048,
scooby_state_55ecb86b57bd|62|1 2042,0,0,0,1,0,0,1,1,2,0,0,1,0,0,2048,
scooby_state_55ecb86b54a0|20|1 2030,12,0,1,1,1,1,0,1,0,0,1,0,0,0,2048,
scooby_state_55ecb86b54a0|33|1 2034,12,0,0,0,0,1,1,0,0,0,0,0,0,0,2048,
scooby_state_55ecb86b57bd|46|1 2043,1,0,0,0,0,1,0,0,0,0,2,1,0,0,2048,
scooby_state_55ecb86b54a0|3|1 2034,12,0,0,0,0,0,0,0,0,0,0,0,0,2,2048,
scooby_state_55ecb86b57bd|24|1 2042,1,0,2,0,0,0,0,0,0,0,0,2,1,0,2048,
scooby_state_55ecb86b57bd|30|1 2046,0,0,0,0,1,0,0,0,0,1,0,0,0,0,2048,
scooby_state_55ecb86b57bd|37|1 2045,0,0,1,0,0,0,1,0,0,0,1,0,0,0,2048,
scooby_state_55ecb86b54a0|41|1 2030,13,0,0,1,1,1,1,0,1,0,0,0,0,0,2048,
scooby_state_55ecb86b57bd|20|1 2047,0,0,0,0,0,0,1,0,0,0,0,0,0,0,2048,
scooby_state_55ecb86b54a0|17|1 2029,12,0,0,1,2,1,1,0,1,1,0,0,0,0,2048,
scooby_state_55ecb86b57bd|9|1 2045,0,1,0,0,0,0,0,0,0,0,1,1,0,0,2048,
scooby_state_55ecb86b57bd|0|0 2042,0,0,0,0,0,1,1,1,0,0,0,2,0,1,2048,
scooby_state_55ecb86b57bd|23|1 2042,0,0,0,0,1,2,0,1,1,0,0,1,0,0,2048,
scooby_state_55ecb86b54a0|28|1 2030,13,0,0,1,2,0,0,0,0,0,1,1,0,0,2048,
scooby_state_55ecb86b54a0|46|1 2033,12,0,0,1,0,1,0,0,0,1,0,0,0,0,2048,
scooby_state_55ecb86b57bd|48|1 2047,0,0,0,0,0,1,0,0,0,0,0,0,0,0,2048,
scooby_state_55ecb86b54a0|9|1 2034,12,0,0,0,0,0,0,2,0,0,0,0,0,0,2048,
scooby_state_55ecb86b57bd|60|1 2044,0,1,0,0,0,1,0,0,0,0,1,0,1,0,2048,
scooby_state_55ecb86b57bd|25|1 2044,0,1,2,1,0,0,0,0,0,0,0,0,0,0,2048,
scooby_state_55ecb86b54a0|30|1 2032,14,0,0,0,0,0,0,0,1,0,1,0,0,0,2048,
scooby_state_55ecb86b54a0|49|1 2031,13,1,0,1,0,1,0,0,0,0,0,0,0,1,2048,
scooby_state_55ecb86b57bd|53|1 2045,0,1,0,0,0,0,0,0,1,0,0,0,1,0,2048,
scooby_state_55ecb86b57bd|34|1 2048,0,0,0,0,0,0,0,0,0,0,0,0,0,0,2048,
scooby_state_55ecb86b57bd|44|1 2046,0,0,0,0,1,0,1,0,0,0,0,0,0,0,2048,
scooby_state_55ecb86b54a0|7|1 2033,10,0,2,1,0,0,0,0,0,1,0,0,0,1,2048,
scooby_state_55ecb86b57bd|47|1 2043,2,1,0,0,0,1,0,0,1,0,0,0,0,0,2048,
scooby_state_55ecb86b57bd|55|1 2044,0,0,0,0,0,0,0,2,0,1,0,0,0,1,2048,
scooby_state_55ecb86b54a0|24|1 2028,14,1,0,0,0,0,1,0,1,1,0,1,1,0,2048,
scooby_state_55ecb86b57bd|58|1 2044,0,0,0,0,1,0,0,0,0,1,1,0,0,1,2048,
scooby_state_55ecb86b57bd|59|1 2044,0,1,1,1,0,0,0,0,0,1,0,0,0,0,2048,
scooby_state_55ecb86b57bd|4|1 2047,0,0,0,0,0,1,0,0,0,0,0,0,0,0,2048,
scooby_state_55ecb86b54a0|54|1 2034,13,0,0,0,0,0,0,0,1,0,0,0,0,0,2048,
scooby_state_55ecb86b54a0|58|1 2032,13,1,1,0,0,0,0,0,0,0,0,0,0,1,2048,
scooby_state_55ecb86b54a0|38|1 2031,14,0,0,0,0,1,1,0,0,0,1,0,0,0,2048,
scooby_state_55ecb86b57bd|7|1 2046,0,1,0,0,0,0,0,0,0,0,0,0,0,1,2048,
scooby_state_55ecb86b54a0|26|1 2031,13,0,0,1,1,0,0,0,0,0,0,0,1,1,2048,
scooby_state_55ecb86b54a0|36|1 2033,13,0,0,1,0,0,0,0,0,0,0,1,0,0,2048,
scooby_state_55ecb86b57bd|16|1 2042,0,1,1,0,1,1,0,0,0,0,1,0,0,1,2048,
scooby_state_55ecb86b54a0|62|1 2032,12,0,0,0,2,0,0,0,0,0,1,1,0,0,2048,
scooby_state_55ecb86b54a0|6|1 2032,11,0,1,2,0,0,0,0,1,0,0,0,1,0,2048,
scooby_state_55ecb86b54a0|61|1 2032,13,0,0,0,0,1,0,0,0,1,0,0,1,0,2048,
scooby_state_55ecb86b54a0|37|1 2032,14,0,0,0,1,0,0,0,0,0,0,1,0,0,2048,
scooby_state_55ecb86b57bd|49|1 2045,0,1,1,0,0,0,0,0,0,0,1,0,0,0,2048,
scooby_state_55ecb86b54a0|0|0 2034,10,2,0,0,0,0,0,1,0,0,0,0,0,1,2048,
scooby_state_55ecb86b54a0|2|1 2034,12,1,0,0,0,0,0,0,0,0,0,0,1,0,2048,
scooby_state_55ecb86b57bd|6|1 2047,0,0,1,0,0,0,0,0,0,0,0,0,0,0,2048,
scooby_state_55ecb86b54a0|47|1 2033,13,0,0,0,0,0,0,0,0,0,0,0,0,2,2048,
scooby_state_55ecb86b54a0|44|1 2031,13,0,1,0,0,0,0,0,1,1,0,0,1,0,2048,
scooby_state_55ecb86b57bd|42|1 2043,0,0,0,1,0,0,0,0,1,1,0,1,1,0,2048,
scooby_state_55ecb86b54a0|40|1 2033,13,0,0,1,0,0,0,0,0,0,0,1,0,0,2048,
scooby_state_55ecb86b57bd|14|1 2041,1,0,1,0,0,1,0,0,1,0,1,0,1,1,2048,
scooby_state_55ecb86b54a0|53|1 2031,13,1,0,0,1,0,0,0,0,0,1,0,0,1,2048,
scooby_state_55ecb86b57bd|35|1 2045,0,0,0,0,0,1,0,0,0,1,1,0,0,0,2048,
scooby_state_55ecb86b57bd|18|1 2044,0,1,0,0,0,1,0,0,0,1,0,0,0,1,2048,
scooby_state_55ecb86b57bd|31|1 2045,0,0,0,1,0,1,0,0,1,0,0,0,0,0,2048,
scooby_state_55ecb86b54a0|32|1 2034,12,0,0,0,0,1,0,0,1,0,0,0,0,0,2048,
scooby_state_55ecb86b57bd|1|1 2047,0,0,0,0,0,0,1,0,0,0,0,0,0,0,2048,
scooby_state_55ecb86b54a0|50|1 2032,13,0,0,0,0,0,0,0,2,0,0,0,1,0,2048,
scooby_state_55ecb86b54a0|5|1 2030,13,0,1,1,1,1,1,0,0,0,0,0,0,0,2048,
scooby_state_55ecb86b54a0|4|1 2034,12,1,1,0,0,0,0,0,0,0,0,0,0,0,2048,
scooby_state_55ecb86b54a0|8|1 2031,12,0,0,1,0,2,0,0,0,0,1,0,0,1,2048,
scooby_state_55ecb86b54a0|16|1 2032,12,1,1,1,0,0,0,0,1,0,0,0,0,0,2048,
scooby_state_55ecb86b54a0|45|1 2032,13,0,1,0,1,0,0,0,0,0,1,0,0,0,2048,
scooby_state_55ecb86b57bd|3|1 2046,0,1,0,0,0,0,0,0,0,0,0,1,0,0,2048,
scooby_state_55ecb86b57bd|61|1 2045,0,0,0,0,0,0,0,0,3,0,0,0,0,0,2048,
scooby_state_55ecb86b54a0|31|1 2032,13,0,0,1,0,0,0,0,2,0,0,0,0,0,2048,
scooby_state_55ecb86b57bd|52|1 2045,1,0,0,1,0,0,0,1,0,0,0,0,0,0,2048,
scooby_state_55ecb86b57bd|12|1 2042,0,0,1,3,1,0,1,0,0,0,0,0,0,0,2048,
scooby_state_55ecb86b54a0|13|1 2033,11,0,0,0,1,0,1,0,0,0,1,0,1,0,2048,
scooby_state_55ecb86b54a0|63|1 2034,12,0,0,0,0,0,0,0,0,0,0,1,1,0,2048,
scooby_state_55ecb86b57bd|5|1 2045,0,0,0,0,1,1,0,1,0,0,0,0,0,0,2048,
scooby_state_55ecb86b57bd|43|1 2046,0,0,0,1,0,0,0,0,0,0,0,1,0,0,2048,
scooby_state_55ecb86b57bd|10|1 2042,1,0,0,1,0,1,1,1,0,0,0,1,0,0,2048,
scooby_state_55ecb86b54a0|60|1 2032,12,0,0,0,0,0,0,2,0,1,1,0,0,0,2048,
scooby_state_55ecb86b57bd|54|1 2044,0,0,1,1,0,1,0,0,0,1,0,0,0,0,2048,
scooby_state_55ecb86b54a0|48|1 2032,13,0,1,0,0,0,1,0,0,0,0,0,1,0,2048,
scooby_state_55ecb86b57bd|50|1 2043,1,0,0,2,0,0,0,0,0,0,0,0,0,2,2048,
scooby_state_55ecb86b54a0|14|1 2034,11,0,0,2,0,0,1,0,0,0,0,0,0,0,2048,
scooby_state_55ecb86b54a0|18|1 2034,11,0,0,0,0,0,0,1,1,0,0,0,1,0,2048,
scooby_state_55ecb86b57bd|26|1 2045,0,0,0,0,2,1,0,0,0,0,0,0,0,0,2048,
scooby_state_55ecb86b54a0|29|1 2029,15,0,0,0,1,0,0,1,2,0,0,0,0,0,2048,
scooby_state_55ecb86b57bd|41|1 2044,0,0,1,1,0,0,1,0,0,0,0,0,0,1,2048,
scooby_state_55ecb86b57bd|45|1 2045,0,0,0,0,0,0,1,1,0,1,0,0,0,0,2048,
scooby_state_55ecb86b54a0|57|1 2034,12,1,0,0,0,0,0,1,0,0,0,0,0,0,2048,
scooby_state_55ecb86b57bd|56|1 2047,0,0,0,0,0,0,0,0,1,0,0,0,0,0,2048,
scooby_state_55ecb86b57bd|2|1 2042,1,0,1,2,0,1,0,0,0,0,0,0,0,1,2048,
scooby_state_55ecb86b57bd|40|1 2045,0,0,0,0,0,1,0,0,0,0,0,1,1,0,2048,
scooby_state_55ecb86b57bd|13|1 2044,0,0,0,2,0,0,0,1,1,0,0,0,0,0,2048,
scooby_state_55ecb86b54a0|19|1 2034,12,0,0,1,0,0,1,0,0,0,0,0,0,0,2048,
scooby_state_55ecb86b54a0|23|1 2029,12,0,1,1,0,1,1,0,0,0,0,2,0,1,2048,
scooby_state_55ecb86b57bd|29|1 2044,0,0,0,1,0,1,0,0,0,0,0,0,1,1,2048,
scooby_state_55ecb86b57bd|33|1 2043,1,2,0,1,1,0,0,0,0,0,0,0,0,0,2048,
scooby_state_55ecb86b54a0|43|1 2030,14,0,0,1,0,1,1,1,0,0,0,0,0,0,2048,
scooby_state_55ecb86b57bd|22|1 2043,1,1,0,0,0,1,1,0,1,0,0,0,0,0,2048,
scooby_state_55ecb86b54a0|42|1 2032,13,0,1,0,0,0,2,0,0,0,0,0,0,0,2048,
scooby_state_55ecb86b54a0|51|1 2030,14,1,0,0,0,1,0,0,0,1,1,0,0,0,2048,
scooby_state_55ecb86b54a0|34|1 2033,13,0,0,0,0,0,1,0,0,1,0,0,0,0,2048,
scooby_state_55ecb86b54a0|12|1 2030,11,1,1,0,0,0,0,0,1,3,0,0,0,1,2048,
scooby_state_55ecb86b54a0|21|1 2032,13,1,0,0,0,0,0,0,0,0,1,0,0,1,2048,
scooby_state_55ecb86b54a0|35|1 2035,13,0,0,0,0,0,0,0,0,0,0,0,0,0,2048,
scooby_state_55ecb86b57bd|36|1 2043,0,0,0,0,0,0,1,0,1,1,2,0,0,0,2048,
scooby_state_55ecb86b57bd|21|1 2044,0,0,0,2,0,0,0,1,0,0,0,0,0,1,2048,
scooby_state_55ecb86b54a0|52|1 2029,13,0,1,0,0,1,0,0,0,1,1,1,1,0,2048,
scooby_state_55ecb86b57bd|28|1 2045,0,0,0,0,0,0,1,0,0,0,1,0,0,1,2048,
scooby_state_55ecb86b54a0|25|1 2031,14,0,0,0,0,0,1,1,0,1,0,0,0,0,2048,
scooby_state_55ecb86b54a0|10|1 2030,13,1,0,0,2,0,2,0,0,0,0,0,0,0,2048,
scooby_state_55ecb86b57bd|63|1 2040,0,0,0,0,1,1,0,0,1,1,2,0,2,0,2048,
scooby_state_55ecb86b54a0|11|1 2032,12,1,0,0,1,1,0,0,0,0,1,0,0,0,2048,
scooby_state_55ecb86b57bd|57|1 2043,0,0,0,0,0,0,1,2,0,1,0,0,1,0,2048,
scooby_state_55ecb86b57bd|38|1 2042,1,0,2,0,0,0,1,1,0,0,0,1,0,0,2048,
scooby_state_55ecb86b57bd|39|1 2042,0,0,0,0,0,0,0,2,1,1,0,0,1,1,2048,
scooby_state_55ecb86b54a0|15|1 2033,12,0,0,1,0,1,0,0,0,0,1,0,0,0,2048,
scooby_state_55ecb86b57bd|27|1 2043,0,0,1,0,0,0,0,0,1,0,1,1,0,1,2048,
scooby_state_55ecb86b57bd|11|1 2045,0,0,0,0,1,0,0,0,1,0,0,1,0,0,2048,
scooby_state_55ecb86b57bd|15|1 2043,0,0,0,0,0,0,1,0,2,0,0,1,0,1,2048,
scooby_state_55ecb86b54a0|27|1 2030,14,0,0,1,0,0,1,0,0,0,1,0,0,1,2048,
scooby_state_55ecb86b57bd|51|1 2046,0,0,1,0,0,0,0,1,0,0,0,0,0,0,2048,
scooby_state_55ecb86b54a0|59|1 2034,12,0,1,0,0,0,0,1,0,0,0,0,0,0,2048,
scooby_state_55ecb86b54a0|55|1 2033,13,0,0,0,1,1,0,0,0,0,0,0,0,0,2048,
scooby_state_55ecb86b57bd|32|1 2045,0,1,0,0,0,0,0,0,0,0,1,0,0,1,2048,
scooby_state_55ecb86b57bd|8|1 2041,1,1,0,0,0,0,1,0,0,1,1,0,0,0,2046,
scooby_state_55ecb86b5063|1|0 1227,4,19,12,11,13,10,41,11,9,18,13,11,14,535,1948,
scooby_state_55ecb86b5063|3|0 1110,5,19,14,6,10,9,30,19,10,12,8,8,9,552,1821,
scooby_state_55ecb86b5063|2|0 1144,5,9,15,8,13,7,38,13,9,9,12,8,10,520,1820,
scooby_state_55ecb86b5063|6|0 916,6,12,4,8,18,10,26,17,7,9,5,7,8,595,1648,
scooby_state_55ecb86b5063|4|0 944,2,10,9,3,12,9,24,10,11,10,11,8,6,533,1602,
scooby_state_55ecb86b5063|5|0 886,4,10,9,7,18,8,24,8,9,5,10,10,9,541,1558,
scooby_state_55ecb86b5063|7|0 835,4,8,8,11,8,10,32,9,6,13,3,7,4,537,1495,
scooby_state_55ecb86b57d9|3|0 1007,1,0,1,1,1,1,0,0,2,0,0,0,1,401,1416,
scooby_state_55ecb86b5063|8|0 731,9,9,11,7,7,16,23,11,9,10,8,9,8,547,1415,
scooby_state_55ecb86b57d9|4|0 970,1,0,2,2,1,1,0,1,0,0,2,2,3,395,1380,
scooby_state_55ecb86b57cb|9|1 1349,0,0,0,0,0,1,0,1,0,0,0,0,0,0,1351,
scooby_state_55ecb86b57cb|38|1 1341,0,0,0,0,0,0,0,0,0,0,1,0,1,0,1343,
scooby_state_55ecb86b57cb|46|1 1335,1,0,0,1,0,0,0,0,0,1,0,0,0,0,1338,
scooby_state_55ecb86b57d9|5|0 930,0,1,0,2,1,0,0,0,0,0,0,0,2,399,1335,
scooby_state_55ecb86b57cb|2|1 1328,0,1,1,0,0,0,1,0,0,1,0,0,0,0,1332,
scooby_state_55ecb86b57cb|24|1 1322,2,1,0,0,0,1,0,0,0,1,1,1,0,0,1329,
scooby_state_55ecb86b57cb|44|1 1320,0,0,0,0,0,0,0,1,0,0,0,0,2,0,1323,
scooby_state_55ecb86b57cb|50|1 1316,0,0,0,0,0,1,0,1,0,0,0,0,1,0,1319,
scooby_state_55ecb86b57cb|4|1 1311,0,0,1,0,0,0,0,1,0,1,0,0,0,0,1314,
scooby_state_55ecb86b57cb|54|1 1309,1,0,0,1,0,0,0,0,0,0,0,0,1,0,1312,
scooby_state_55ecb86b57cb|30|1 1308,0,0,0,0,0,0,0,0,0,0,0,0,1,0,1309,
scooby_state_55ecb86b57cb|41|1 1306,0,1,1,0,0,0,1,0,0,0,0,0,0,0,1309,
scooby_state_55ecb86b57cb|6|1 1309,0,0,0,0,0,0,0,0,0,0,0,0,0,0,1309,
scooby_state_55ecb86b57cb|21|1 1309,0,0,0,0,0,0,0,0,0,0,0,0,0,0,1309,
scooby_state_55ecb86b57cb|43|1 1305,0,0,0,0,1,0,0,0,0,1,1,1,0,0,1309,
scooby_state_55ecb86b57cb|61|1 1305,0,0,1,0,0,0,0,0,0,0,0,0,1,1,1308,
scooby_state_55ecb86b57cb|47|1 1305,0,0,1,0,0,1,0,0,0,0,0,0,0,1,1308,
scooby_state_55ecb86b57cb|49|1 1305,0,0,0,0,0,0,0,0,0,0,0,0,1,0,1306,
scooby_state_55ecb86b57cb|48|1 1303,1,0,1,0,0,1,0,0,0,0,0,0,0,0,1306,
scooby_state_55ecb86b57cb|27|1 1303,0,0,0,0,0,0,0,0,0,0,1,0,0,0,1304,
scooby_state_55ecb86b57cb|45|1 1302,1,0,0,0,0,0,0,0,0,0,0,0,0,0,1303,
scooby_state_55ecb86b57cb|37|1 1299,0,0,0,0,0,0,1,0,0,0,1,0,0,0,1301,
scooby_state_55ecb86b57cb|12|1 1297,0,0,0,0,1,0,1,0,1,0,0,0,0,0,1300,
scooby_state_55ecb86b57cb|0|0 1295,0,0,0,0,0,0,0,0,0,0,0,1,1,0,1297,
scooby_state_55ecb86b57cb|60|1 1293,0,0,0,1,0,0,0,1,0,0,1,0,0,0,1296,
scooby_state_55ecb86b57cb|22|1 1294,0,0,0,0,0,0,0,0,0,0,0,0,0,0,1294,
scooby_state_55ecb86b57cb|26|1 1291,0,0,1,0,0,0,0,0,0,0,0,0,1,0,1293,
scooby_state_55ecb86b57cb|42|1 1284,0,0,0,0,0,0,0,0,0,1,0,0,0,1,1286,
scooby_state_55ecb86b57cb|34|1 1284,0,0,0,1,0,0,0,0,0,0,0,0,0,0,1285,
scooby_state_55ecb86b57cb|31|1 1283,0,0,0,0,0,0,0,0,0,0,0,1,0,0,1284,
scooby_state_55ecb86b57cb|25|1 1279,0,0,2,0,0,1,0,0,0,0,0,0,0,1,1283,
scooby_state_55ecb86b57cb|10|1 1279,1,0,0,1,1,0,0,0,0,0,0,0,0,0,1282,
scooby_state_55ecb86b5063|10|0 648,12,10,7,3,13,13,17,11,6,3,5,12,4,518,1282,
scooby_state_55ecb86b57cb|32|1 1280,0,0,0,1,0,1,0,0,0,0,0,0,0,0,1282,
scooby_state_55ecb86b57cb|3|1 1280,0,0,0,1,0,0,0,0,0,0,0,0,0,0,1281,
scooby_state_55ecb86b57cb|55|1 1277,0,0,0,0,1,0,0,0,0,0,1,0,0,1,1280,
scooby_state_55ecb86b57d9|6|0 926,0,0,0,0,2,0,0,0,0,0,0,0,0,352,1280,
scooby_state_55ecb86b57cb|20|1 1276,0,0,0,0,0,0,0,0,0,0,1,0,1,1,1279,
scooby_state_55ecb86b57cb|13|1 1273,0,0,0,0,0,0,0,0,0,0,0,0,0,1,1274,
scooby_state_55ecb86b57cb|29|1 1274,0,0,0,0,0,0,0,0,0,0,0,0,0,0,1274,
scooby_state_55ecb86b57cb|57|1 1269,0,0,0,0,0,1,0,0,0,1,1,1,0,0,1273,
scooby_state_55ecb86b57cb|39|1 1269,0,0,0,0,0,0,1,0,0,0,0,0,0,0,1270,
scooby_state_55ecb86b57cb|5|1 1266,1,0,0,0,0,0,0,0,0,0,1,0,0,0,1268,
scooby_state_55ecb86b57cb|28|1 1266,0,0,0,0,0,0,1,0,0,0,0,1,0,0,1268,
scooby_state_55ecb86b57cb|23|1 1266,0,0,1,0,0,0,0,1,0,0,0,0,0,0,1268,
scooby_state_55ecb86b57cb|52|1 1264,0,0,0,1,0,1,1,0,0,0,0,0,0,0,1267,
scooby_state_55ecb86b57cb|14|1 1265,0,0,0,0,0,0,0,1,0,0,0,0,0,0,1266,
scooby_state_55ecb86b57cb|19|1 1263,0,1,0,0,0,0,0,1,0,0,0,0,0,0,1265,
scooby_state_55ecb86b57cb|62|1 1263,0,0,0,0,0,0,0,1,0,0,0,0,0,0,1264,
scooby_state_55ecb86b57cb|1|1 1261,0,0,0,1,0,1,0,0,1,0,0,0,0,0,1264,
scooby_state_55ecb86b5063|9|0 643,4,9,9,9,10,9,13,7,7,4,7,5,3,525,1264,
scooby_state_55ecb86b57cb|16|1 1261,0,0,1,0,0,0,0,0,0,0,0,0,0,0,1262,
scooby_state_55ecb86b57cb|51|1 1258,0,0,1,0,0,0,0,0,0,1,0,0,0,0,1260,
scooby_state_55ecb86b57cb|53|1 1259,1,0,0,0,0,0,0,0,0,0,0,0,0,0,1260,
scooby_state_55ecb86b57cb|56|1 1257,0,0,0,1,0,0,0,0,0,0,2,0,0,0,1260,
scooby_state_55ecb86b57cb|18|1 1260,0,0,0,0,0,0,0,0,0,0,0,0,0,0,1260,
scooby_state_55ecb86b5063|11|0 642,4,8,4,10,7,7,18,7,5,4,11,4,4,523,1258,
scooby_state_55ecb86b57cb|33|1 1256,0,0,0,0,0,0,0,0,0,0,0,0,1,0,1257,
scooby_state_55ecb86b57cb|35|1 1253,0,0,0,0,0,0,0,0,0,1,0,0,0,0,1254,
scooby_state_55ecb86b57cb|11|1 1250,0,1,0,1,0,0,0,0,1,0,0,1,0,0,1254,
scooby_state_55ecb86b5063|12|0 644,8,9,6,10,15,16,10,9,9,3,4,6,4,500,1253,
scooby_state_55ecb86b57cb|58|1 1249,0,0,0,0,0,1,0,0,0,0,1,0,1,0,1252,
scooby_state_55ecb86b57cb|59|1 1251,0,0,0,0,0,0,0,0,0,0,1,0,0,0,1252,
scooby_state_55ecb86b57cb|15|1 1248,0,0,0,1,0,0,0,0,1,0,0,1,0,0,1251,
scooby_state_55ecb86b57cb|40|1 1246,1,0,0,2,0,0,0,0,0,0,0,1,0,0,1250,
scooby_state_55ecb86b57cb|63|1 1247,0,0,0,0,0,0,0,1,1,0,0,1,0,0,1250,
scooby_state_55ecb86b57d9|7|0 870,1,2,1,1,0,1,0,0,0,0,0,0,1,371,1248,
scooby_state_55ecb86b57cb|7|1 1245,0,0,0,1,0,0,0,0,0,1,0,0,0,0,1247,
scooby_state_55ecb86b57cb|36|1 1242,0,1,0,1,0,0,0,0,0,0,0,0,1,0,1245,
scooby_state_55ecb86b57cb|17|1 1236,0,0,0,0,0,0,1,0,0,0,0,0,0,0,1237,
scooby_state_55ecb86b57cb|8|1 1228,0,0,0,0,0,0,0,0,0,0,0,0,0,0,1228,
scooby_state_55ecb86b5063|16|0 557,5,8,10,8,9,4,11,2,7,5,11,5,4,565,1211,
scooby_state_55ecb86b5063|14|0 605,11,8,10,5,7,7,12,11,2,8,7,3,6,494,1196,
scooby_state_55ecb86b5063|13|0 550,2,4,8,9,9,2,14,12,7,5,10,6,8,541,1187,
scooby_state_55ecb86b5063|15|0 552,8,4,6,5,6,4,7,5,7,7,5,5,9,510,1140,
scooby_state_55ecb86b5063|17|0 550,7,7,9,7,11,3,16,8,10,4,5,7,5,472,1121,
scooby_state_55ecb86b5063|18|0 471,12,7,7,12,6,5,10,7,8,6,2,5,5,500,1063,
scooby_state_55ecb86b57d9|8|0 693,1,0,0,1,1,0,0,0,1,0,0,0,0,362,1059,
scooby_state_55ecb86b5063|20|0 457,5,5,10,4,10,8,6,4,4,4,5,7,4,498,1031,
scooby_state_55ecb86b5063|21|0 457,7,4,10,9,8,6,6,6,0,6,4,3,5,481,1012,
scooby_state_55ecb86b5063|19|0 438,5,4,5,6,8,7,6,4,4,1,2,2,7,513,1012,
scooby_state_55ecb86b5063|25|0 432,6,10,6,4,4,2,8,4,8,2,5,3,9,483,986,
scooby_state_55ecb86b5063|27|0 396,5,5,5,6,6,6,4,5,4,3,7,1,3,522,978,
scooby_state_55ecb86b5063|22|0 408,5,3,7,5,12,5,6,2,2,5,3,3,6,496,968,
scooby_state_55ecb86b5063|26|0 401,5,4,6,12,2,4,6,4,4,3,1,3,3,507,965,
scooby_state_55ecb86b5063|34|0 380,9,4,11,3,3,4,2,2,7,5,4,7,1,521,963,
scooby_state_55ecb86b5063|23|0 444,4,5,2,4,2,7,6,4,3,5,3,5,4,461,959,
scooby_state_55ecb86b5063|28|0 372,7,5,3,1,2,6,10,6,1,4,2,2,4,525,950,
scooby_state_55ecb86b5063|33|0 361,2,5,5,4,5,4,1,7,7,1,6,2,3,531,944,
scooby_state_55ecb86b5063|29|0 397,3,3,1,7,4,3,6,6,7,1,3,5,2,495,943,
scooby_state_55ecb86b5063|24|0 402,7,1,8,2,6,7,10,4,5,4,4,3,4,463,930,
scooby_state_55ecb86b5063|31|0 383,5,6,5,4,7,2,3,6,5,2,4,5,1,485,923,
scooby_state_55ecb86b5063|36|0 367,3,3,3,2,7,4,3,2,4,3,2,5,2,493,903,
scooby_state_55ecb86b5063|38|0 362,6,5,6,2,6,1,3,2,3,2,2,5,4,494,903,
scooby_state_55ecb86b5063|30|0 375,5,1,5,4,5,2,3,3,7,1,5,3,4,468,891,
scooby_state_55ecb86b5063|32|0 361,3,2,3,9,5,5,6,1,7,3,3,3,1,477,889,
scooby_state_55ecb86b5063|42|0 326,3,1,8,2,4,3,3,8,5,3,1,3,6,504,880,
scooby_state_55ecb86b5063|35|0 371,12,2,3,7,4,4,4,1,3,5,5,2,1,453,877,
scooby_state_55ecb86b5063|49|0 331,3,3,4,3,3,0,1,2,2,5,3,2,2,506,870,
scooby_state_55ecb86b5063|37|0 348,2,3,4,4,9,3,3,4,6,2,3,6,1,455,853,
scooby_state_55ecb86b5063|43|0 330,6,5,5,4,8,4,3,3,5,3,3,3,0,469,851,
scooby_state_55ecb86b5063|40|0 320,6,4,3,4,4,2,3,2,2,0,1,4,3,491,849,
scooby_state_55ecb86b5063|39|0 320,5,3,1,6,3,4,3,5,3,1,5,5,4,474,842,
scooby_state_55ecb86b5063|41|0 311,6,3,8,3,4,6,2,4,1,1,1,5,2,482,839,
scooby_state_55ecb86b57d9|9|0 496,2,1,0,0,0,0,0,0,0,0,1,0,1,330,831,
scooby_state_55ecb86b5063|46|0 296,9,1,3,1,3,3,3,2,2,2,5,3,1,491,825,
scooby_state_55ecb86b5063|51|0 323,3,2,2,2,3,3,0,5,2,3,2,5,2,465,822,
scooby_state_55ecb86b5063|54|0 301,6,3,2,3,4,1,1,2,1,1,2,0,3,482,812,
scooby_state_55ecb86b5063|59|0 296,1,1,1,0,3,3,3,2,3,2,1,1,4,490,811,
scooby_state_55ecb86b5063|52|0 273,5,0,1,2,1,6,2,2,1,3,1,3,2,508,810,
scooby_state_55ecb86b5063|45|0 314,5,1,3,1,1,6,1,1,5,1,0,1,4,463,807,
scooby_state_55ecb86b5063|62|0 287,5,0,4,3,3,5,6,1,0,0,2,6,1,484,807,
scooby_state_55ecb86b5063|56|0 296,6,0,2,2,4,2,2,5,5,3,1,2,4,468,802,
scooby_state_55ecb86b5063|47|0 288,4,5,1,7,2,4,4,4,0,3,4,1,5,467,799,
scooby_state_55ecb86b5063|57|0 285,3,2,1,5,0,2,3,3,2,1,2,3,5,468,785,
scooby_state_55ecb86b5063|50|0 297,5,3,5,5,3,3,1,7,2,3,3,1,0,444,782,
scooby_state_55ecb86b5063|55|0 298,2,3,3,4,5,4,4,1,1,1,2,3,1,450,782,
scooby_state_55ecb86b5063|44|0 281,3,3,1,2,2,3,4,1,6,1,1,3,2,468,781,
scooby_state_55ecb86b5063|58|0 260,3,4,0,2,1,1,3,3,1,1,1,0,2,484,766,
scooby_state_55ecb86b5063|53|0 285,5,2,5,4,2,3,2,2,1,1,0,1,4,446,763,
scooby_state_55ecb86b5063|48|0 265,5,3,7,2,2,2,3,2,2,1,1,7,2,459,763,
scooby_state_55ecb86b57d9|10|0 430,0,1,1,1,0,0,0,0,1,0,1,0,0,324,759,
scooby_state_55ecb86b57d9|13|0 415,0,0,0,0,0,1,0,0,0,0,1,0,1,328,746,
scooby_state_55ecb86b5063|60|0 266,2,3,2,3,6,3,1,4,1,3,2,8,1,441,746,
scooby_state_55ecb86b5063|61|0 279,7,0,2,3,8,2,1,0,0,3,2,4,4,413,728,
scooby_state_55ecb86b5063|63|0 252,5,3,3,4,1,1,0,2,2,3,0,2,2,439,719,
scooby_state_55ecb86b57d9|15|0 370,1,0,0,2,0,0,1,0,0,0,1,1,1,316,693,
scooby_state_55ecb86b57d9|17|0 370,0,0,0,2,1,1,0,0,2,1,0,3,1,304,685,
scooby_state_55ecb86b57d9|52|3 661,0,0,1,0,0,0,0,0,0,0,0,0,0,21,683,
scooby_state_55ecb86b57d9|22|3 653,1,0,0,0,0,0,0,0,0,0,1,0,0,22,677,
scooby_state_55ecb86b57d9|16|0 390,1,2,0,0,0,0,0,0,0,0,1,0,0,282,676,
scooby_state_55ecb86b57d9|32|3 649,0,1,0,0,0,0,0,0,0,0,0,0,1,24,675,
scooby_state_55ecb86b57d9|12|0 386,0,0,0,0,0,0,0,0,0,0,1,0,0,286,673,
scooby_state_55ecb86b57d9|4|3 648,0,0,0,0,0,1,0,0,0,0,0,0,1,22,672,
scooby_state_55ecb86b57d9|57|3 646,0,1,0,0,0,1,0,0,0,0,0,0,0,22,670,
scooby_state_55ecb86b57d9|13|3 650,0,0,0,0,0,0,1,0,0,0,0,1,0,18,670,
scooby_state_55ecb86b57d9|35|3 644,0,0,1,0,0,0,0,0,0,0,1,0,0,20,666,
scooby_state_55ecb86b57d9|51|3 648,0,0,0,0,0,0,0,0,0,0,0,0,1,17,666,
scooby_state_55ecb86b57d9|50|3 640,0,0,0,0,0,0,0,0,0,0,0,0,0,25,665,
scooby_state_55ecb86b57d9|40|3 646,0,0,0,1,0,0,0,0,0,0,0,0,0,18,665,
scooby_state_55ecb86b57d9|54|3 640,0,0,0,0,0,0,0,0,1,0,0,0,0,22,663,
scooby_state_55ecb86b57d9|19|3 634,0,0,2,0,0,1,1,0,0,0,0,2,0,23,663,
scooby_state_55ecb86b57d9|14|0 333,1,1,1,1,1,1,0,1,2,0,1,0,1,317,661,
scooby_state_55ecb86b57d9|46|3 639,0,0,0,0,0,0,0,0,0,0,0,0,0,21,660,
scooby_state_55ecb86b57d9|25|3 636,0,1,0,0,0,0,0,1,0,1,0,0,0,20,659,
scooby_state_55ecb86b57d9|20|3 635,0,0,0,0,0,1,0,0,0,0,0,1,0,20,657,
scooby_state_55ecb86b57d9|23|3 633,0,0,0,0,0,0,0,0,0,0,1,0,1,22,657,
scooby_state_55ecb86b57d9|11|0 353,0,0,1,1,0,0,0,0,0,0,0,1,0,300,656,
scooby_state_55ecb86b57d9|31|3 640,0,0,0,0,0,0,0,0,0,0,0,0,0,16,656,
scooby_state_55ecb86b57d9|28|3 625,1,0,0,1,1,1,0,1,0,0,0,0,0,25,655,
scooby_state_55ecb86b57d9|58|3 628,0,0,0,0,0,1,0,0,0,0,0,0,0,25,654,
scooby_state_55ecb86b57d9|19|0 357,1,2,0,0,2,1,0,0,0,0,0,0,1,288,652,
scooby_state_55ecb86b57d9|37|3 633,0,0,1,0,0,0,0,0,0,1,0,1,0,15,651,
scooby_state_55ecb86b57d9|56|3 624,0,1,0,0,0,1,2,1,0,0,0,0,0,20,649,
scooby_state_55ecb86b57d9|44|3 628,0,0,0,1,0,0,0,0,0,1,0,0,0,18,648,
scooby_state_55ecb86b57d9|36|3 623,0,0,1,0,0,0,0,0,0,0,0,0,0,20,644,
scooby_state_55ecb86b57d9|30|3 622,0,0,0,0,0,0,0,0,0,0,0,0,0,22,644,
scooby_state_55ecb86b57d9|9|3 626,0,0,1,0,0,0,0,0,1,0,0,0,0,15,643,
scooby_state_55ecb86b57d9|41|3 624,0,0,1,0,0,1,0,0,0,0,0,0,0,16,642,
scooby_state_55ecb86b57d9|14|3 621,0,0,0,0,0,0,0,0,0,0,0,0,0,19,640,
scooby_state_55ecb86b57d9|34|3 616,0,0,1,0,0,0,0,0,0,0,0,0,0,22,639,
scooby_state_55ecb86b57d9|43|3 615,0,0,0,1,0,0,0,0,0,0,0,1,0,20,637,
scooby_state_55ecb86b57d9|5|3 619,0,0,0,0,1,0,0,0,0,0,0,1,0,16,637,
scooby_state_55ecb86b57d9|45|3 622,0,0,0,0,1,0,0,0,0,0,0,0,0,13,636,
scooby_state_55ecb86b57d9|62|3 613,0,0,0,0,0,0,0,1,0,0,0,0,0,21,635,
scooby_state_55ecb86b57d9|42|3 616,1,0,0,0,1,0,0,0,0,0,0,0,0,16,634,
scooby_state_55ecb86b57d9|20|0 359,0,1,0,0,1,0,1,0,0,0,1,0,0,271,634,
scooby_state_55ecb86b57d9|53|3 610,0,0,0,0,0,0,1,0,1,0,0,0,0,21,633,
scooby_state_55ecb86b57d9|39|3 607,1,0,0,0,1,0,0,0,0,0,0,0,0,23,632,
scooby_state_55ecb86b57d9|49|3 602,0,1,0,0,0,0,0,0,0,0,0,0,0,28,631,
scooby_state_55ecb86b57d9|24|3 608,0,0,1,1,0,0,0,0,0,1,0,0,1,18,630,
scooby_state_55ecb86b57d9|63|3 604,0,0,0,0,1,0,0,0,0,0,0,0,0,25,630,
scooby_state_55ecb86b57d9|15|3 605,0,0,0,0,0,0,0,0,0,0,0,0,0,25,630,
scooby_state_55ecb86b57d9|18|0 361,1,0,0,0,0,1,0,0,0,0,0,0,2,264,629,
scooby_state_55ecb86b57d9|55|3 608,1,0,0,0,0,0,0,0,0,1,0,0,0,19,629,
scooby_state_55ecb86b57d9|11|3 601,0,0,0,0,0,0,0,0,0,0,0,0,0,25,626,
scooby_state_55ecb86b57d9|8|3 615,0,0,0,0,0,0,0,0,0,0,0,1,0,8,624,
scooby_state_55ecb86b57d9|33|3 608,0,0,0,0,0,0,0,0,0,0,0,0,0,16,624,
scooby_state_55ecb86b57d9|60|3 603,0,0,0,0,0,0,0,0,0,0,0,0,0,18,621,
scooby_state_55ecb86b57d9|21|3 603,0,0,1,0,0,0,0,0,0,0,0,0,0,17,621,
scooby_state_55ecb86b5051|0|0 240,10,7,9,9,8,5,4,4,3,5,5,6,6,300,621,
scooby_state_55ecb86b57d9|29|3 601,0,0,0,0,0,0,0,0,0,0,0,0,1,19,621,
scooby_state_55ecb86b57d9|7|3 605,0,0,1,0,0,0,0,0,0,0,0,0,0,15,621,
scooby_state_55ecb86b57d9|47|3 602,0,0,0,0,0,0,0,0,0,0,0,0,0,16,618,
scooby_state_55ecb86b57d9|16|3 594,0,0,1,0,0,0,0,0,0,0,0,0,0,23,618,
scooby_state_55ecb86b57d9|26|3 594,1,0,1,0,0,0,0,0,0,0,0,0,1,19,616,
scooby_state_55ecb86b57d9|22|0 352,3,0,1,0,1,0,0,0,0,0,1,0,0,257,615,
scooby_state_55ecb86b57d9|3|3 591,0,1,0,0,1,0,0,0,0,1,0,0,0,20,614,
scooby_state_55ecb86b57d9|24|0 344,0,0,1,0,0,0,0,0,0,0,0,1,0,266,612,
scooby_state_55ecb86b57d9|6|3 597,0,0,0,0,0,0,0,0,0,0,0,0,0,14,611,
scooby_state_55ecb86b57d9|61|3 595,0,0,0,0,0,0,0,2,1,0,0,0,0,13,611,
scooby_state_55ecb86b57d9|12|3 592,1,1,0,1,0,0,0,0,0,0,0,0,0,15,610,
scooby_state_55ecb86b57d9|48|3 585,1,0,0,0,1,0,0,0,0,0,0,1,1,18,607,
scooby_state_55ecb86b57d9|38|3 587,0,0,0,1,0,0,0,0,0,0,1,0,0,16,605,
scooby_state_55ecb86b57d9|17|3 583,0,0,0,0,0,0,0,0,0,0,0,0,0,21,604,
scooby_state_55ecb86b57d9|59|3 583,0,0,0,0,0,0,2,0,0,0,0,0,0,13,598,
scooby_state_55ecb86b57d9|23|0 362,0,0,0,0,0,0,0,0,1,0,0,0,0,232,595,
scooby_state_55ecb86b57d9|10|3 569,2,0,0,0,0,0,1,0,0,1,0,0,0,18,591,
scooby_state_55ecb86b57d9|21|0 348,0,0,2,0,0,0,0,0,0,0,1,0,0,236,587,
scooby_state_55ecb86b57d9|27|3 564,0,0,0,0,0,0,0,0,0,0,0,0,0,19,583,
scooby_state_55ecb86b57d9|18|3 560,0,0,0,0,0,0,0,0,0,0,0,0,0,19,579,
scooby_state_55ecb86b57d9|25|0 338,0,0,1,1,0,0,1,0,0,0,1,0,0,225,567,
scooby_state_55ecb86b57d9|26|0 293,1,0,0,1,0,2,0,0,0,0,0,0,0,251,548,
scooby_state_55ecb86b57d9|57|2 496,0,0,0,1,0,0,0,0,0,0,0,0,0,23,520,
scooby_state_55ecb86b57d9|34|2 492,0,0,0,0,0,0,0,0,0,0,0,0,0,19,511,
scooby_state_55ecb86b57d9|11|2 485,0,0,0,0,0,0,0,0,1,0,1,0,0,22,509,
scooby_state_55ecb86b57d9|6|2 484,0,1,0,0,0,0,0,0,0,0,0,0,0,22,507,
scooby_state_55ecb86b5020|0|0 314,16,23,8,5,15,17,6,47,6,8,5,1,2,29,502,
scooby_state_55ecb86b57d9|36|2 480,0,0,0,0,0,0,0,0,0,0,0,0,0,22,502,
scooby_state_55ecb86b57d9|19|2 461,0,0,0,0,0,0,0,0,0,0,0,1,0,25,487,
scooby_state_55ecb86b57d9|9|2 463,0,0,0,0,1,0,0,0,0,0,0,0,0,20,484,
scooby_state_55ecb86b57d9|17|2 459,0,0,1,0,0,0,0,0,0,0,0,0,0,24,484,
scooby_state_55ecb86b57d9|29|2 456,0,0,0,0,0,0,1,0,0,0,0,0,0,27,484,
scooby_state_55ecb86b57d9|35|2 451,0,0,0,0,0,0,0,0,0,0,0,0,0,30,481,
scooby_state_55ecb86b57d9|47|2 464,0,0,0,0,0,0,0,0,0,0,0,0,0,15,479,
scooby_state_55ecb86b57d9|48|2 453,0,0,0,0,0,1,0,0,0,0,0,0,0,25,479,
scooby_state_55ecb86b57d9|27|2 453,0,0,0,0,0,0,0,1,0,0,0,0,0,23,477,
scooby_state_55ecb86b57d9|32|2 450,0,0,0,0,0,0,0,0,0,0,0,0,0,26,476,
scooby_state_55ecb86b57d9|22|2 453,0,0,0,0,0,0,0,0,0,0,0,0,0,20,473,
scooby_state_55ecb86b57d9|54|2 447,0,0,0,0,0,0,0,0,0,0,0,0,0,25,472,
scooby_state_55ecb86b57d9|63|2 450,0,0,0,0,0,0,0,0,0,0,0,0,0,21,471,
scooby_state_55ecb86b57d9|49|2 453,0,0,0,0,0,0,0,0,0,0,0,0,0,18,471,
scooby_state_55ecb86b57d9|33|2 454,0,0,0,0,0,0,0,1,0,0,0,0,0,15,470,
scooby_state_55ecb86b57d9|4|2 444,0,0,0,0,0,0,0,0,0,0,0,0,1,23,468,
scooby_state_55ecb86b57d9|53|2 447,0,0,0,0,1,0,1,0,0,0,0,0,0,19,468,
scooby_state_55ecb86b57d9|51|2 449,0,0,0,0,0,0,0,0,0,0,0,0,1,16,466,
scooby_state_55ecb86b57d9|14|2 446,0,0,0,0,0,0,0,0,0,0,0,0,0,19,465,
scooby_state_55ecb86b57d9|45|2 444,1,0,0,0,0,0,0,0,0,0,1,0,0,18,464,
scooby_state_55ecb86b57d9|7|2 428,1,0,0,0,0,0,1,0,0,0,0,0,0,33,463,
scooby_state_55ecb86b57d9|10|2 435,0,0,0,1,0,0,0,0,0,0,0,0,0,27,463,
scooby_state_55ecb86b57d9|58|2 448,0,0,0,0,0,0,0,0,0,0,0,0,0,14,462,
scooby_state_55ecb86b57d9|41|2 443,0,0,0,0,0,0,0,0,0,1,0,0,0,17,461,
scooby_state_55ecb86b57d9|28|2 442,0,0,0,0,0,0,0,1,0,0,0,0,0,16,459,
scooby_state_55ecb86b57d9|60|2 442,0,0,0,0,0,0,0,0,0,0,0,1,0,15,458,
scooby_state_55ecb86b57d9|2|2 440,0,0,0,0,0,0,0,0,0,0,0,0,0,18,458,
scooby_state_55ecb86b5051|1|0 114,6,8,2,7,7,1,1,6,4,5,7,3,6,279,456,
scooby_state_55ecb86b57d9|27|0 214,1,0,0,0,0,0,0,1,0,0,0,0,0,240,456,
scooby_state_55ecb86b57d9|59|2 431,0,0,0,0,0,0,0,0,0,0,0,0,1,24,456,
scooby_state_55ecb86b57d9|42|2 435,0,0,0,0,0,0,0,0,0,0,0,0,1,18,454,
scooby_state_55ecb86b57d9|37|2 429,0,0,0,0,0,0,0,0,1,0,0,1,0,23,454,
scooby_state_55ecb86b57d9|39|2 433,0,0,0,0,0,0,0,0,0,0,0,0,0,18,451,
scooby_state_55ecb86b57d9|38|2 425,0,0,0,0,0,0,0,0,1,0,0,0,0,25,451,
scooby_state_55ecb86b57d9|62|2 430,0,0,0,0,0,0,0,1,0,0,0,0,0,20,451,
scooby_state_55ecb86b57d9|20|2 425,0,0,0,0,0,0,0,0,0,0,1,0,0,24,450,
scooby_state_55ecb86b57d9|30|2 429,0,0,0,0,0,0,0,0,0,0,0,0,0,20,449,
scooby_state_55ecb86b57d9|55|2 424,0,0,0,0,0,0,0,0,0,0,0,0,0,25,449,
scooby_state_55ecb86b57d9|16|2 432,0,0,0,0,0,0,0,0,0,0,0,0,0,17,449,
scooby_state_55ecb86b57d9|50|2 433,1,0,0,0,0,0,0,0,0,0,0,0,0,15,449,
scooby_state_55ecb86b57d9|23|2 425,0,0,0,0,0,0,0,0,0,0,0,0,0,24,449,
scooby_state_55ecb86b57d9|61|2 423,1,1,0,0,0,0,0,0,0,0,0,0,0,19,444,
scooby_state_55ecb86b57d9|31|2 429,0,0,0,0,0,0,0,0,0,0,0,0,0,15,444,
scooby_state_55ecb86b57d9|3|2 426,0,0,0,0,0,0,0,0,0,0,0,0,0,16,442,
scooby_state_55ecb86b57d9|56|2 421,0,0,0,0,0,1,0,0,0,0,0,0,0,19,441,
scooby_state_55ecb86b57d9|8|2 416,0,0,0,0,0,0,0,0,0,2,0,0,0,22,440,
scooby_state_55ecb86b57d9|24|2 421,1,0,0,0,0,0,0,0,0,0,0,0,0,17,439,
scooby_state_55ecb86b57d9|5|2 421,0,0,0,0,0,0,0,0,0,0,0,0,0,16,437,
scooby_state_55ecb86b57d9|25|2 417,0,0,0,0,0,0,1,0,0,0,0,0,0,17,435,
scooby_state_55ecb86b57d9|12|2 412,0,0,1,0,0,0,0,0,0,0,0,0,0,21,434,
scooby_state_55ecb86b57d9|44|2 411,0,0,0,0,0,0,0,0,0,0,1,0,0,19,431,
scooby_state_55ecb86b57d9|18|2 413,0,0,0,0,0,0,0,0,0,0,0,0,0,14,427,
scooby_state_55ecb86b57d9|13|2 410,0,0,0,0,0,0,0,0,0,0,0,0,0,13,423,
scooby_state_55ecb86b57d9|40|2 403,0,0,0,0,0,0,0,0,0,1,0,0,0,19,423,
scooby_state_55ecb86b57d9|43|2 393,0,0,0,0,0,0,0,0,0,0,0,1,0,26,420,
scooby_state_55ecb86b57d9|26|2 400,0,0,0,0,0,0,0,0,0,0,0,0,0,19,419,
scooby_state_55ecb86b5051|4|0 108,7,5,3,5,3,5,3,4,3,4,4,8,4,249,415,
scooby_state_55ecb86b5051|3|0 93,4,4,6,1,6,12,7,6,2,6,6,4,3,254,414,
scooby_state_55ecb86b57d9|52|2 399,0,0,0,0,0,0,0,0,0,0,0,0,0,14,413,
scooby_state_55ecb86b57d9|46|2 395,0,0,0,0,0,0,0,0,0,0,0,0,0,17,412,
scooby_state_55ecb86b5051|5|0 105,9,6,8,4,6,5,4,3,1,3,3,2,9,244,412,
scooby_state_55ecb86b57d9|21|2 391,0,0,0,0,0,0,0,0,0,0,0,0,0,18,409,
scooby_state_55ecb86b5051|2|0 104,8,5,5,4,4,5,7,4,3,1,3,4,4,247,408,
scooby_state_55ecb86b57d9|28|0 177,0,1,1,0,0,0,0,0,1,0,2,1,0,223,406,
scooby_state_55ecb86b57d9|15|2 393,0,0,0,0,0,0,0,1,0,0,0,0,0,11,405,
scooby_state_55ecb86b57d9|30|0 159,0,1,0,0,1,0,0,0,0,0,0,1,0,233,395,
scooby_state_55ecb86b57d9|29|0 170,0,2,0,0,0,1,0,0,0,0,0,0,1,213,387,
scooby_state_55ecb86b5020|1|0 231,11,13,6,6,14,22,6,30,4,4,1,1,0,25,374,
scooby_state_55ecb86b5051|7|0 88,1,5,2,5,6,2,8,2,9,2,6,4,3,231,374,
scooby_state_55ecb86b57d9|33|0 145,0,0,0,0,0,0,0,0,2,0,0,1,0,220,368,
scooby_state_55ecb86b5051|6|0 107,1,2,5,5,4,4,5,3,4,1,3,7,5,211,367,
scooby_state_55ecb86b5051|8|0 98,5,7,5,9,7,4,1,6,1,1,2,2,2,212,362,
scooby_state_55ecb86b5051|13|0 83,5,3,5,3,3,4,4,1,7,5,5,4,3,223,358,
scooby_state_55ecb86b57d9|31|0 144,0,0,0,0,0,0,0,1,1,0,0,0,0,207,353,
scooby_state_55ecb86b57d9|35|0 127,1,0,0,0,0,0,0,0,0,0,0,0,0,218,346,
scooby_state_55ecb86b5051|9|0 72,3,8,4,9,6,2,3,2,3,6,3,2,3,219,345,
scooby_state_55ecb86b5051|17|0 62,6,2,6,7,3,4,5,5,3,2,4,3,6,225,343,
scooby_state_55ecb86b5051|15|0 77,5,3,3,9,5,3,6,6,4,0,2,2,3,214,342,
scooby_state_55ecb86b57d9|34|0 136,0,1,0,0,2,1,0,0,0,0,0,1,0,200,341,
scooby_state_55ecb86b5051|10|0 82,2,4,4,5,3,5,5,4,3,2,3,3,3,212,340,
scooby_state_55ecb86b5051|14|0 70,7,2,5,6,8,4,1,5,3,3,2,2,5,214,337,
scooby_state_55ecb86b57d9|32|0 135,0,1,1,0,0,1,0,0,0,0,0,0,0,187,325,
scooby_state_55ecb86b56d7|47|1 0,227,3,0,2,56,0,1,28,0,1,3,0,0,3,324,
scooby_state_55ecb86b57d9|46|0 147,0,0,1,0,0,0,0,0,0,1,0,0,1,165,315,
scooby_state_55ecb86b57d9|36|0 123,1,0,0,0,0,0,0,0,0,0,0,0,1,190,315,
scooby_state_55ecb86b5051|11|0 60,3,5,7,5,2,2,2,2,2,5,5,6,8,199,313,
scooby_state_55ecb86b56d7|39|1 0,221,1,0,1,50,0,0,31,0,2,4,0,0,2,312,
scooby_state_55ecb86b56d7|27|1 1,212,2,0,2,55,0,0,30,0,1,3,0,2,3,311,
scooby_state_55ecb86b56d7|63|1 0,220,0,1,2,50,0,1,30,0,2,2,0,0,2,310,
scooby_state_55ecb86b56d7|31|1 0,219,1,0,4,43,0,1,29,0,4,3,0,3,3,310,
scooby_state_55ecb86b56d7|54|1 0,218,1,0,2,49,1,1,29,0,2,3,0,0,3,309,
scooby_state_55ecb86b56d7|38|1 0,211,0,0,2,60,1,0,31,0,1,3,0,0,0,309,
scooby_state_55ecb86b56d7|36|1 0,213,1,0,4,50,0,0,29,0,3,4,0,2,2,308,
scooby_state_55ecb86b57d9|37|0 119,2,1,0,0,0,0,0,0,0,0,0,0,0,186,308,
scooby_state_55ecb86b5051|12|0 77,4,3,4,6,1,2,2,3,2,2,1,3,4,193,307,
scooby_state_55ecb86b56d7|40|1 0,206,1,0,0,56,0,0,31,0,2,5,0,1,4,306,
scooby_state_55ecb86b56d7|46|1 0,211,1,0,2,54,0,1,29,0,1,2,0,0,3,304,
scooby_state_55ecb86b56d7|1|1 0,211,2,0,3,47,0,1,31,1,2,2,0,1,3,304,
scooby_state_55ecb86b56d7|44|1 0,211,0,0,2,50,0,1,30,0,3,2,0,1,3,303,
scooby_state_55ecb86b5051|19|0 70,7,4,3,3,3,3,3,1,2,0,5,4,2,193,303,
scooby_state_55ecb86b56d7|60|1 0,209,1,0,4,55,0,0,29,0,0,4,0,0,1,303,
scooby_state_55ecb86b56d7|28|1 0,210,3,0,4,45,0,0,31,0,1,3,0,1,5,303,
scooby_state_55ecb86b56d7|30|1 0,208,2,0,3,47,0,1,30,0,3,4,0,1,3,302,
scooby_state_55ecb86b56d7|32|1 1,205,0,0,2,57,0,1,29,0,2,3,0,1,1,302,
scooby_state_55ecb86b56d7|48|1 0,211,1,0,0,51,0,1,28,0,2,3,0,0,3,300,
scooby_state_55ecb86b56d7|37|1 0,210,1,0,3,45,0,1,31,0,3,3,0,0,2,299,
scooby_state_55ecb86b56d7|41|1 0,197,0,0,0,61,0,0,31,0,2,3,0,0,5,299,
scooby_state_55ecb86b56d7|23|1 0,204,3,0,1,55,0,1,31,0,1,1,0,0,1,298,
scooby_state_55ecb86b56d7|22|1 0,201,2,0,1,56,0,1,29,0,1,1,0,3,3,298,
scooby_state_55ecb86b56d7|10|1 0,212,1,0,3,44,0,1,30,0,3,2,0,0,2,298,
scooby_state_55ecb86b56d7|62|1 0,209,1,0,4,44,0,1,31,0,2,3,0,0,3,298,
scooby_state_55ecb86b57d9|40|0 123,0,1,1,0,0,0,1,1,1,0,1,0,0,168,297,
scooby_state_55ecb86b5051|16|0 69,6,4,5,0,2,2,1,2,1,0,9,6,7,182,296,
scooby_state_55ecb86b5020|2|0 180,6,19,4,3,12,13,2,29,4,1,2,3,3,15,296,
scooby_state_55ecb86b56d7|59|1 0,213,0,0,2,47,0,0,31,0,0,2,0,0,1,296,
scooby_state_55ecb86b56d7|25|1 0,205,0,1,2,49,0,0,30,0,2,4,0,2,1,296,
scooby_state_55ecb86b56d7|5|1 0,198,2,0,3,49,0,1,31,0,3,4,0,0,5,296,
scooby_state_55ecb86b56d7|33|1 0,200,2,0,2,55,0,1,30,0,2,3,0,0,1,296,
scooby_state_55ecb86b56d7|4|1 0,203,0,0,3,43,0,1,31,0,3,5,0,0,7,296,
scooby_state_55ecb86b56d7|58|1 0,205,1,0,3,47,0,1,30,0,2,3,1,1,2,296,
scooby_state_55ecb86b56d7|8|1 0,203,1,1,1,52,0,0,31,0,3,3,0,0,1,296,
scooby_state_55ecb86b56d7|3|1 0,210,1,0,3,39,0,1,31,0,3,2,0,1,4,295,
scooby_state_55ecb86b56d7|12|1 0,208,0,0,2,49,1,0,29,0,2,2,0,1,1,295,
scooby_state_55ecb86b56d7|2|1 1,205,1,0,2,46,0,2,31,0,3,1,0,0,3,295,
scooby_state_55ecb86b56d7|24|1 0,196,1,0,4,55,0,1,31,0,3,4,0,0,0,295,
scooby_state_55ecb86b56d7|61|1 0,201,1,0,5,51,0,1,29,0,2,5,0,0,0,295,
scooby_state_55ecb86b56d7|43|1 0,198,0,0,4,52,0,1,31,0,2,4,0,0,2,294,
scooby_state_55ecb86b56d7|49|1 0,203,1,0,0,52,0,1,29,0,1,2,0,0,5,294,
scooby_state_55ecb86b57d9|44|0 104,0,0,2,0,0,1,0,0,0,0,1,0,0,186,294,
scooby_state_55ecb86b56d7|29|1 0,202,1,0,1,49,0,1,31,1,2,3,0,0,3,294,
scooby_state_55ecb86b5051|20|0 61,4,2,1,2,4,2,2,4,7,4,6,0,2,192,293,
scooby_state_55ecb86b56d7|9|1 0,204,2,0,2,47,0,0,31,0,2,4,0,0,1,293,
scooby_state_55ecb86b56d7|45|1 0,201,0,0,1,52,0,1,30,0,2,2,0,1,3,293,
scooby_state_55ecb86b56d7|57|1 0,195,1,0,2,52,0,1,30,0,2,4,1,1,3,292,
scooby_state_55ecb86b56d7|14|1 0,202,1,0,1,49,0,0,29,0,2,4,0,1,2,291,
scooby_state_55ecb86b57d9|41|0 114,0,0,0,1,0,0,0,0,0,0,1,0,0,175,291,
scooby_state_55ecb86b5051|18|0 71,5,2,3,2,4,2,5,5,5,3,1,2,2,178,290,
scooby_state_55ecb86b56d7|53|1 0,193,1,0,3,50,1,1,30,0,3,3,1,0,4,290,
scooby_state_55ecb86b56d7|50|1 0,206,1,0,2,44,0,1,29,0,1,2,0,0,4,290,
scooby_state_55ecb86b5051|24|0 65,4,3,2,2,5,5,4,2,4,3,3,3,3,182,290,
scooby_state_55ecb86b56d7|56|1 0,199,1,0,3,50,0,1,30,0,2,1,0,0,2,289,
scooby_state_55ecb86b56d7|19|1 0,198,1,1,4,49,0,1,30,0,2,0,0,2,1,289,
scooby_state_55ecb86b56d7|26|1 0,202,2,0,0,48,0,0,30,0,1,3,0,1,1,288,
scooby_state_55ecb86b56d7|52|1 0,195,1,0,2,50,0,1,30,0,2,3,0,0,4,288,
scooby_state_55ecb86b56d7|51|1 0,201,1,0,1,44,0,1,30,0,1,3,0,2,4,288,
scooby_state_55ecb86b56d7|13|1 0,201,0,0,2,47,0,0,29,0,2,2,0,1,3,287,
scooby_state_55ecb86b5051|22|0 62,2,4,2,8,7,3,5,4,5,2,0,1,5,177,287,
scooby_state_55ecb86b57d9|38|0 113,0,0,0,0,0,0,0,0,1,0,1,1,0,170,286,
scooby_state_55ecb86b5051|26|0 71,3,2,2,2,3,2,4,3,3,2,2,2,4,180,285,
scooby_state_55ecb86b56d7|17|1 0,194,1,0,3,49,0,0,29,1,0,4,0,1,3,285,
scooby_state_55ecb86b57d9|49|0 139,0,0,0,0,0,0,0,0,0,0,0,0,0,145,284,
scooby_state_55ecb86b57d9|45|0 135,0,0,1,1,0,0,0,0,0,0,0,0,0,146,283,
scooby_state_55ecb86b56d7|18|1 0,198,0,0,5,44,0,0,30,0,1,0,0,2,3,283,
scooby_state_55ecb86b56d7|42|1 0,186,1,0,2,52,0,1,31,0,2,3,1,0,3,282,
scooby_state_55ecb86b56d7|15|1 0,199,1,0,0,42,0,0,30,0,4,3,0,0,3,282,
scooby_state_55ecb86b56d7|11|1 0,199,0,0,2,41,0,0,30,0,3,3,0,2,2,282,
scooby_state_55ecb86b56d7|16|1 0,203,1,0,1,37,0,0,30,0,1,3,0,2,3,281,
scooby_state_55ecb86b56d7|35|1 0,192,2,0,4,47,0,0,29,0,2,2,0,2,1,281,
scooby_state_55ecb86b57d9|53|0 129,0,0,2,0,0,0,1,0,0,0,0,1,0,147,280,
scooby_state_55ecb86b57d9|47|0 122,0,2,1,0,1,0,0,0,0,0,0,0,0,153,279,
scooby_state_55ecb86b56d7|7|1 0,192,1,0,2,45,0,1,31,0,1,2,0,1,3,279,
scooby_state_55ecb86b56d7|21|1 1,194,1,0,1,46,0,0,28,0,1,2,1,1,1,277,
scooby_state_55ecb86b57d9|43|0 115,0,0,0,0,1,0,0,0,2,0,0,0,1,158,277,
scooby_state_55ecb86b56d7|20|1 0,199,1,0,3,40,0,0,30,0,1,2,0,1,0,277,
scooby_state_55ecb86b56d7|6|1 0,187,1,0,3,44,0,1,31,0,1,3,0,2,4,277,
scooby_state_55ecb86b56d7|55|1 0,197,0,0,2,43,0,1,29,0,1,1,0,0,2,276,
scooby_state_55ecb86b57d9|58|0 132,0,1,0,0,0,0,0,0,1,0,0,0,0,139,273,
scooby_state_55ecb86b5051|30|0 63,3,1,3,3,2,1,1,2,1,1,4,5,2,181,273,
scooby_state_55ecb86b5051|27|0 53,4,2,1,7,0,3,4,3,1,1,4,3,4,183,273,
scooby_state_55ecb86b57d9|62|0 123,0,0,1,0,0,0,0,0,0,0,0,0,0,148,272,
scooby_state_55ecb86b57d9|39|0 105,1,0,2,0,1,0,0,0,0,0,0,1,0,161,271,
scooby_state_55ecb86b57d9|57|0 127,0,0,0,0,0,0,0,0,0,0,2,0,0,142,271,
scooby_state_55ecb86b57d9|51|0 112,0,0,0,0,1,0,0,0,0,0,0,0,0,157,270,
scooby_state_55ecb86b57d9|50|0 109,0,0,3,1,0,0,0,0,1,0,0,0,0,155,269,
scooby_state_55ecb86b57d9|42|0 97,0,0,2,0,1,0,0,0,0,0,0,1,0,167,268,
scooby_state_55ecb86b56d7|34|1 0,181,0,0,3,44,0,1,30,0,3,3,0,1,1,267,
scooby_state_55ecb86b5051|23|0 51,2,2,4,7,3,3,2,4,5,3,1,6,2,171,266,
scooby_state_55ecb86b5051|21|0 69,3,4,5,3,5,3,3,5,7,8,4,5,1,140,265,
scooby_state_55ecb86b5063|15|1 218,4,5,4,6,2,4,2,2,1,1,3,4,5,4,265,
scooby_state_55ecb86b5063|62|1 212,6,5,4,4,4,2,2,2,1,1,2,5,1,14,265,
scooby_state_55ecb86b57d9|39|9 250,0,0,0,0,0,0,0,0,0,0,0,0,0,13,263,
scooby_state_55ecb86b5063|38|1 212,5,4,4,4,4,2,3,2,6,2,4,2,2,6,262,
scooby_state_55ecb86b5063|42|1 206,4,9,5,3,4,5,2,5,3,1,2,2,3,6,260,
scooby_state_55ecb86b5063|55|1 203,5,6,4,9,2,5,2,2,1,3,3,1,5,8,259,
scooby_state_55ecb86b5063|26|1 208,3,6,2,7,5,1,2,1,2,3,4,1,4,7,256,
scooby_state_55ecb86b57d9|54|0 105,0,1,0,0,0,0,0,0,0,0,0,0,0,149,255,
scooby_state_55ecb86b5051|33|0 51,4,4,3,4,2,2,3,4,2,2,3,3,2,165,254,
scooby_state_55ecb86b57d9|52|0 102,0,0,0,0,0,0,0,0,0,0,0,0,2,150,254,
scooby_state_55ecb86b5063|25|1 211,5,7,2,2,2,4,3,3,1,3,3,2,3,3,254,
scooby_state_55ecb86b5063|34|1 204,7,6,2,2,4,4,1,2,1,3,4,1,2,11,254,
scooby_state_55ecb86b5063|4|1 203,8,3,2,1,3,1,4,4,4,3,2,4,4,7,253,
scooby_state_55ecb86b5063|12|1 210,5,2,1,2,3,4,3,6,0,1,5,1,3,6,252,
scooby_state_55ecb86b5051|35|0 60,3,4,4,4,3,7,3,2,1,2,0,4,2,151,250,
scooby_state_55ecb86b57d9|48|0 112,0,0,1,0,0,0,0,0,0,1,0,1,0,135,250,
scooby_state_55ecb86b5063|40|1 194,6,7,1,2,4,3,2,3,5,5,2,6,3,7,250,
scooby_state_55ecb86b5063|31|1 196,7,8,4,5,5,4,4,3,2,3,3,2,2,2,250,
scooby_state_55ecb86b5051|29|0 63,4,3,4,3,3,4,3,6,3,3,2,0,4,144,249,
scooby_state_55ecb86b5063|51|1 193,8,7,4,4,7,4,3,1,0,2,0,5,4,5,247,
scooby_state_55ecb86b5051|25|0 50,5,1,2,6,1,1,4,6,2,3,3,2,4,156,246,
scooby_state_55ecb86b5063|56|1 198,3,5,5,3,2,2,4,2,0,0,2,1,6,10,243,
scooby_state_55ecb86b5063|13|1 204,3,3,3,3,2,5,3,2,1,2,3,2,1,6,243,
scooby_state_55ecb86b57d9|59|0 117,0,0,1,1,1,1,0,0,0,0,1,0,0,120,242,
scooby_state_55ecb86b5063|21|1 198,5,5,1,1,4,6,2,5,1,1,1,3,2,7,242,
scooby_state_55ecb86b57d9|55|0 125,0,1,1,0,0,0,0,0,0,0,0,0,0,113,240,
scooby_state_55ecb86b5063|20|1 192,3,3,4,4,2,3,3,4,3,1,6,3,0,9,240,
scooby_state_55ecb86b57d9|16|9 225,0,0,0,0,0,0,0,0,0,0,0,0,0,15,240,
scooby_state_55ecb86b5063|8|1 201,3,5,4,3,2,2,3,3,3,0,5,1,1,4,240,
scooby_state_55ecb86b5063|17|1 194,6,3,4,6,3,1,4,6,0,0,4,3,1,5,240,
scooby_state_55ecb86b5051|28|0 58,6,8,2,3,2,0,0,3,2,1,3,1,2,148,239,
scooby_state_55ecb86b5063|32|1 184,5,2,4,10,6,3,5,4,2,2,2,2,5,3,239,
scooby_state_55ecb86b5051|36|0 60,1,4,6,3,2,0,1,3,4,3,0,3,0,147,237,
scooby_state_55ecb86b5063|63|1 200,4,0,5,2,5,2,0,1,4,2,3,1,2,6,237,
scooby_state_55ecb86b5063|16|1 197,7,5,1,2,3,2,3,3,0,0,5,1,2,5,236,
scooby_state_55ecb86b5063|39|1 195,6,2,3,5,2,3,4,3,4,3,1,1,1,3,236,
scooby_state_55ecb86b5063|9|1 194,4,3,3,2,9,0,2,3,1,3,0,3,3,6,236,
scooby_state_55ecb86b5063|14|1 196,2,7,2,4,1,5,1,0,3,0,2,4,2,7,236,
scooby_state_55ecb86b5063|53|1 173,5,2,3,7,5,5,9,4,3,2,5,2,2,9,236,
scooby_state_55ecb86b57d9|31|9 225,0,0,0,0,0,1,0,0,0,0,0,1,0,9,236,
scooby_state_55ecb86b5063|35|1 187,6,4,2,8,4,3,1,4,1,1,1,5,3,6,236,
scooby_state_55ecb86b57d9|10|9 222,0,0,1,0,1,0,0,0,0,0,0,0,0,12,236,
scooby_state_55ecb86b5063|59|1 194,7,3,1,2,3,3,1,2,4,1,1,2,6,5,235,
scooby_state_55ecb86b5063|3|1 190,2,6,1,1,4,5,1,5,2,3,5,5,2,3,235,
scooby_state_55ecb86b5063|49|1 187,5,7,3,3,6,1,3,4,2,0,2,4,1,7,235,
scooby_state_55ecb86b5063|24|1 188,4,7,3,6,2,7,3,2,2,2,1,2,3,3,235,
scooby_state_55ecb86b57d9|37|9 221,0,0,0,0,0,2,0,0,0,0,0,0,0,12,235,
scooby_state_55ecb86b5063|43|1 189,2,5,4,4,2,2,6,2,3,2,3,3,4,4,235,
scooby_state_55ecb86b57d9|59|9 221,0,0,0,0,0,0,0,1,0,1,0,0,0,12,235,
scooby_state_55ecb86b57d9|46|9 219,1,1,0,0,0,0,0,0,0,0,0,0,0,13,234,
scooby_state_55ecb86b5051|31|0 60,3,3,2,1,4,4,2,4,2,0,1,2,2,144,234,
scooby_state_55ecb86b57d9|44|9 218,0,0,0,0,0,0,0,0,0,0,0,0,0,16,234,
scooby_state_55ecb86b5063|48|1 190,6,5,1,3,3,0,1,7,2,2,3,5,0,6,234,
scooby_state_55ecb86b57d9|35|9 213,0,0,0,0,0,0,0,0,0,0,0,0,0,20,233,
scooby_state_55ecb86b5063|54|1 191,3,4,3,6,2,1,5,4,3,1,2,0,1,7,233,
scooby_state_55ecb86b5063|50|1 186,10,4,2,4,3,2,3,4,3,2,2,2,1,5,233,
scooby_state_55ecb86b57d9|45|9 221,0,0,0,0,0,1,0,0,0,0,1,0,0,10,233,
scooby_state_55ecb86b57d9|24|9 221,1,0,0,0,0,0,0,0,0,0,0,0,0,10,232,
scooby_state_55ecb86b57d9|54|9 217,0,0,0,0,0,0,0,1,0,0,0,0,0,14,232,
scooby_state_55ecb86b57d9|9|9 222,0,0,0,0,0,0,0,0,0,0,0,0,0,10,232,
scooby_state_55ecb86b57d9|60|0 106,0,1,0,1,0,0,0,0,0,0,0,0,0,123,231,
scooby_state_55ecb86b57d9|29|9 218,0,0,0,0,0,0,0,0,0,0,0,0,0,13,231,
scooby_state_55ecb86b5051|44|0 60,2,3,1,3,4,2,6,0,3,5,1,0,3,138,231,
scooby_state_55ecb86b57d9|49|9 217,0,0,1,0,0,0,0,0,0,0,0,0,0,13,231,
scooby_state_55ecb86b57d9|63|0 114,0,0,0,0,0,0,0,0,1,0,0,0,0,116,231,
scooby_state_55ecb86b5063|52|1 188,4,4,0,2,6,2,6,3,0,3,3,0,6,3,230,
scooby_state_55ecb86b5051|34|0 55,9,1,6,1,3,1,1,4,1,3,3,4,3,135,230,
scooby_state_55ecb86b57d9|34|9 217,0,0,0,0,0,1,0,0,0,0,0,0,1,11,230,
scooby_state_55ecb86b5063|37|1 192,3,2,6,5,5,3,4,0,1,3,2,1,0,3,230,
scooby_state_55ecb86b5063|44|1 186,5,4,6,3,2,2,1,3,2,1,3,1,5,5,229,
scooby_state_55ecb86b57d9|61|0 102,0,1,1,0,0,0,0,0,0,0,0,0,0,124,228,
scooby_state_55ecb86b57d9|15|9 219,0,0,0,0,1,0,1,1,0,0,0,0,0,6,228,
scooby_state_55ecb86b5063|57|1 188,3,5,1,3,8,2,1,1,2,2,1,2,3,6,228,
scooby_state_55ecb86b5063|41|1 178,5,9,1,4,2,6,3,5,4,0,4,1,1,4,227,
scooby_state_55ecb86b57d9|55|9 215,0,0,0,0,0,0,0,0,0,0,0,0,0,12,227,
scooby_state_55ecb86b5063|29|1 190,2,7,0,2,7,3,0,2,1,3,1,1,0,7,226,
scooby_state_55ecb86b57d9|56|0 101,0,0,1,0,0,0,0,0,1,0,0,0,0,123,226,
scooby_state_55ecb86b57d9|53|9 214,0,0,0,0,0,0,0,0,0,0,0,0,0,12,226,
scooby_state_55ecb86b5063|36|1 186,6,4,3,4,2,2,1,1,2,2,6,2,1,3,225,
scooby_state_55ecb86b57d9|60|9 214,0,0,0,0,0,0,0,0,0,0,0,0,0,11,225,
scooby_state_55ecb86b5063|30|1 173,7,5,2,6,5,2,2,2,5,3,2,5,3,3,225,
scooby_state_55ecb86b57d9|47|9 217,0,0,0,0,0,0,0,0,0,0,0,0,0,8,225,
scooby_state_55ecb86b5063|61|1 181,3,2,6,2,3,4,3,2,1,2,2,3,3,7,224,
scooby_state_55ecb86b5063|46|1 178,6,3,4,6,2,3,3,0,4,1,2,4,3,5,224,
scooby_state_55ecb86b5063|23|1 184,2,8,2,5,3,2,3,2,2,1,1,3,0,5,223,
scooby_state_55ecb86b57d9|63|9 218,0,0,0,0,0,0,0,0,0,0,0,0,0,5,223,
scooby_state_55ecb86b5051|37|0 48,3,1,1,2,0,1,3,0,1,3,5,6,3,146,223,
scooby_state_55ecb86b5063|27|1 186,7,1,0,6,3,3,0,2,4,1,1,2,2,5,223,
scooby_state_55ecb86b5063|18|1 189,2,1,0,3,2,1,1,2,0,3,4,2,0,12,222,
scooby_state_55ecb86b57d9|46|8 215,0,0,0,0,0,0,0,0,0,0,0,0,0,7,222,
scooby_state_55ecb86b57d9|50|9 207,0,0,0,0,0,0,0,0,1,0,0,0,0,13,221,
scooby_state_55ecb86b57d9|25|9 211,0,0,0,0,0,0,0,0,0,0,0,0,0,10,221,
scooby_state_55ecb86b5063|45|1 182,5,0,1,1,0,3,1,5,2,5,3,5,1,7,221,
scooby_state_55ecb86b5063|58|1 173,2,6,7,1,5,1,5,2,2,5,2,0,6,3,220,
scooby_state_55ecb86b5063|19|1 180,4,3,1,3,0,2,5,3,1,2,2,4,3,7,220,
scooby_state_55ecb86b57d9|40|9 206,0,0,0,0,0,0,0,0,0,0,1,0,0,12,219,
scooby_state_55ecb86b57d9|26|9 202,0,0,0,0,0,0,0,0,0,0,0,0,1,16,219,
scooby_state_55ecb86b5063|34|2 165,4,6,4,8,0,6,6,1,5,1,1,3,5,4,219,
scooby_state_55ecb86b57d9|17|9 207,0,0,0,0,0,0,0,0,0,0,0,0,0,11,218,
scooby_state_55ecb86b57d9|61|9 210,1,0,0,0,0,0,0,0,0,0,0,0,0,6,217,
scooby_state_55ecb86b57d9|18|9 201,0,0,0,0,0,0,0,0,0,0,0,0,0,15,216,
scooby_state_55ecb86b5063|10|1 185,4,2,1,2,7,1,1,2,2,1,0,2,1,5,216,
scooby_state_55ecb86b5063|1|1 177,6,2,3,3,5,4,2,1,3,2,0,1,3,4,216,
scooby_state_55ecb86b57d9|21|9 204,0,0,0,0,0,0,0,0,0,0,0,0,0,12,216,
scooby_state_55ecb86b5063|11|1 180,3,3,2,5,3,1,2,1,1,3,1,4,2,5,216,
scooby_state_55ecb86b5063|5|1 181,4,3,1,5,4,1,1,2,2,1,3,1,1,5,215,
scooby_state_55ecb86b5051|40|0 36,5,2,4,0,3,3,3,1,3,4,0,1,1,149,215,
scooby_state_55ecb86b57d9|15|8 202,0,0,0,0,0,0,0,0,0,0,0,0,0,13,215,
scooby_state_55ecb86b57d9|27|9 201,0,0,1,0,0,2,0,0,0,0,0,0,0,11,215,
scooby_state_55ecb86b57d9|23|9 201,0,0,0,0,0,0,0,0,0,0,0,0,0,14,215,
scooby_state_55ecb86b5063|60|1 167,3,3,3,4,2,3,3,2,3,4,3,3,2,9,214,
scooby_state_55ecb86b57d9|33|9 203,1,0,0,0,0,0,1,1,0,0,0,0,0,8,214,
scooby_state_55ecb86b5051|41|0 50,3,1,3,3,2,0,1,3,3,2,3,3,2,135,214,
scooby_state_55ecb86b5051|32|0 50,1,4,2,2,3,2,1,0,0,2,4,0,2,141,214,
scooby_state_55ecb86b57d9|62|9 201,0,0,0,0,0,0,0,0,0,1,0,0,0,11,213,
scooby_state_55ecb86b57d9|42|9 190,1,2,0,0,0,0,0,0,0,0,0,0,0,20,213,
scooby_state_55ecb86b57d9|57|9 201,0,0,0,0,0,0,1,0,0,0,0,0,0,11,213,
scooby_state_55ecb86b5063|2|1 171,3,2,3,4,1,4,2,1,4,3,5,4,3,2,212,
scooby_state_55ecb86b5063|7|1 166,2,6,3,5,3,5,3,1,2,2,4,3,1,6,212,
scooby_state_55ecb86b57d9|34|8 203,0,0,0,0,0,0,0,0,0,0,0,0,0,9,212,
scooby_state_55ecb86b5063|22|1 175,4,9,2,1,5,2,0,2,1,1,1,3,1,4,211,
scooby_state_55ecb86b57d9|32|9 204,0,0,0,0,0,0,1,0,0,0,0,0,0,6,211,
scooby_state_55ecb86b57d9|22|9 195,0,0,0,0,0,1,0,0,0,0,0,0,0,13,209,
scooby_state_55ecb86b5063|57|2 156,7,4,8,3,4,3,3,2,4,1,1,2,4,7,209,
scooby_state_55ecb86b57d9|19|8 203,0,0,0,0,0,0,0,0,0,0,1,0,0,4,208,
scooby_state_55ecb86b57d9|58|9 199,0,0,0,0,0,0,0,0,0,0,0,0,0,9,208,
scooby_state_55ecb86b5051|38|0 47,0,2,0,2,8,2,2,2,2,2,1,2,3,133,208,
scooby_state_55ecb86b57d9|43|9 202,0,0,0,0,0,0,0,1,0,0,0,0,0,5,208,
scooby_state_55ecb86b57d9|20|8 197,0,0,0,0,0,0,0,0,0,0,0,0,0,11,208,
scooby_state_55ecb86b5063|14|2 171,1,3,2,4,3,1,2,2,2,0,4,4,5,3,207,
scooby_state_55ecb86b5063|6|1 168,2,6,5,4,2,1,2,3,2,0,1,2,2,7,207,
scooby_state_55ecb86b5051|43|0 40,6,5,4,2,4,2,1,3,2,4,6,3,4,120,206,
scooby_state_55ecb86b57d9|30|8 200,0,0,0,0,0,0,0,0,0,0,0,0,0,6,206,
scooby_state_55ecb86b57d9|13|9 192,0,0,0,0,1,0,0,0,1,0,0,0,0,11,205,
scooby_state_55ecb86b57d9|41|9 188,0,0,0,0,0,1,0,0,0,0,0,0,0,15,204,
scooby_state_55ecb86b57d9|51|9 189,0,0,0,0,0,0,0,0,0,0,0,0,0,15,204,
scooby_state_55ecb86b57d9|32|8 190,0,0,0,0,0,0,0,0,0,0,0,0,0,13,203,
scooby_state_55ecb86b57d9|28|9 192,0,0,0,0,0,0,1,0,0,0,0,0,0,10,203,
scooby_state_55ecb86b57d9|26|8 196,0,0,0,0,0,0,0,0,0,0,0,0,0,7,203,
scooby_state_55ecb86b57d9|42|8 190,0,0,0,0,0,0,0,0,0,0,0,0,0,13,203,
scooby_state_55ecb86b5051|46|0 49,3,2,1,1,2,2,1,1,2,0,2,5,0,131,202,
scooby_state_55ecb86b5020|3|0 119,8,10,3,2,6,10,4,17,4,3,1,1,1,13,202,
scooby_state_55ecb86b57d9|36|8 189,0,0,0,0,0,0,0,0,0,0,0,0,0,13,202,
scooby_state_55ecb86b57d9|25|8 193,0,0,0,0,0,0,0,0,0,0,0,0,0,9,202,
scooby_state_55ecb86b57d9|62|8 191,0,0,0,0,0,0,0,0,0,0,0,0,0,11,202,
scooby_state_55ecb86b5051|42|0 41,4,1,4,1,3,1,1,3,2,2,1,1,0,136,201,
scooby_state_55ecb86b57d9|38|9 190,0,0,0,0,0,0,0,0,0,0,0,0,0,11,201,
scooby_state_55ecb86b5063|28|1 161,5,3,4,6,3,1,2,2,0,3,3,2,1,4,200,
scooby_state_55ecb86b57d9|21|8 184,0,0,0,0,0,0,1,0,0,0,0,0,0,15,200,
scooby_state_55ecb86b5051|51|0 39,3,3,0,3,2,0,0,0,0,4,1,1,1,143,200,
scooby_state_55ecb86b57d9|47|8 186,0,0,0,0,0,0,0,0,0,0,0,0,0,14,200,
scooby_state_55ecb86b57d9|10|8 192,0,0,0,0,0,0,0,0,0,0,0,0,0,7,199,
scooby_state_55ecb86b57d9|14|9 184,0,0,0,0,0,0,0,0,1,0,0,0,0,14,199,
scooby_state_55ecb86b5063|16|2 155,3,5,1,1,2,6,3,2,1,1,4,6,7,2,199,
scooby_state_55ecb86b57d9|30|9 190,0,0,0,0,0,0,0,0,0,0,0,0,0,9,199,
scooby_state_55ecb86b57d9|9|8 185,0,0,0,0,0,0,0,0,0,0,0,1,0,12,198,
scooby_state_55ecb86b5063|45|2 151,6,4,3,2,4,3,5,3,1,1,6,0,3,6,198,
scooby_state_55ecb86b57d9|20|9 186,0,0,0,0,0,0,0,0,0,0,0,0,0,12,198,
scooby_state_55ecb86b57d9|19|9 190,0,0,0,0,0,0,0,0,0,0,1,0,0,7,198,
scooby_state_55ecb86b57d9|37|8 188,0,0,0,0,0,0,0,1,0,0,0,0,0,8,197,
scooby_state_55ecb86b5063|63|2 157,4,3,2,3,3,2,5,0,1,1,3,4,3,6,197,
scooby_state_55ecb86b57d9|14|8 189,0,0,0,0,0,0,0,0,0,0,0,0,0,8,197,
scooby_state_55ecb86b57d9|36|9 185,0,1,0,0,0,0,0,0,0,0,0,0,0,10,196,
scooby_state_55ecb86b57d9|8|8 188,0,0,0,0,0,0,0,0,0,0,0,0,0,8,196,
[...]
scooby_state_14e534a7c543|21|-18 1,0,0,0,0,0,0,0,0,0,0,0,0,0,0,1,
scooby_state_55ecb86b5063|24|-32 0,0,1,0,0,0,0,0,0,0,0,0,0,0,0,1,
scooby_state_55ecb86b5063|5|-36 0,0,0,0,0,0,0,0,1,0,0,0,0,0,0,1,
scooby_state_55ecb86b56d7|3|-56 0,1,0,0,0,0,0,0,0,0,0,0,0,0,0,1,
scooby_state_55ecb86b5051|28|-34 0,0,0,0,0,0,0,0,0,0,0,0,0,0,1,1,
scooby_state_55ecb86b56d7|40|32 0,0,0,0,0,1,0,0,0,0,0,0,0,0,0,1,
scooby_state_55ecb86b5063|0|-28 0,0,0,0,1,0,0,0,0,0,0,0,0,0,0,1,
scooby_state_55ecb86b5051|21|-16 1,0,0,0,0,0,0,0,0,0,0,0,0,0,0,1,
scooby_state_55ecb86b5051|33|-9 0,0,0,0,0,0,0,0,0,1,0,0,0,0,0,1,
scooby_state_55ecb86b5063|25|-23 0,0,0,0,1,0,0,0,0,0,0,0,0,0,0,1,
scooby_state_55ecb86b5051|16|-35 0,0,0,0,0,0,0,0,0,0,0,0,0,0,1,1,
scooby_state_55ecb86b5051|1|-24 0,0,0,0,0,0,0,0,0,0,0,0,0,0,1,1,
scooby_state_55ecb86b5020|2|-2 0,0,0,0,0,0,0,0,0,0,0,0,0,0,1,1,
scooby_state_55ecb86b56d7|29|10 0,0,0,0,0,1,0,0,0,0,0,0,0,0,0,1,
scooby_state_55ecb86b56d7|26|6 0,1,0,0,0,0,0,0,0,0,0,0,0,0,0,1,
scooby_state_55ecb86b56d7|48|-3 0,1,0,0,0,0,0,0,0,0,0,0,0,0,0,1,
scooby_state_55ecb86b5063|7|-20 0,0,0,0,0,0,0,0,0,1,0,0,0,0,0,1,
scooby_state_55ecb86b56d7|21|14 0,0,0,1,0,0,0,0,0,0,0,0,0,0,0,1,
scooby_state_55ecb86b56d7|4|-32 1,0,0,0,0,0,0,0,0,0,0,0,0,0,0,1,
scooby_state_55ecb86b5603|24|1 1,0,0,0,0,0,0,0,0,0,0,0,0,0,0,1,
scooby_state_55ecb86b5063|22|-38 0,0,0,0,0,0,0,0,0,0,0,0,0,0,1,1,
scooby_state_55ecb86b56d7|6|-2 0,0,0,0,0,1,0,0,0,0,0,0,0,0,0,1,
scooby_state_55ecb86b5051|45|-8 0,0,0,0,0,0,0,0,0,0,0,0,0,0,1,1,
scooby_state_55ecb86b5051|38|-7 0,0,1,0,0,0,0,0,0,0,0,0,0,0,0,1,
scooby_state_55ecb86b56d7|5|-35 0,1,0,0,0,0,0,0,0,0,0,0,0,0,0,1,
scooby_state_14e534ab5648|25|-20 1,0,0,0,0,0,0,0,0,0,0,0,0,0,0,1,
scooby_state_14e534ab5d40|53|1 1,0,0,0,0,0,0,0,0,0,0,0,0,0,0,1,
scooby_state_14e534a7986b|22|-20 1,0,0,0,0,0,0,0,0,0,0,0,0,0,0,1,
scooby_state_55ecb86b5051|30|-20 0,0,0,1,0,0,0,0,0,0,0,0,0,0,0,1,
scooby_state_55ecb86b5063|6|-18 0,0,0,0,0,0,0,0,0,0,0,0,0,0,1,1,
scooby_state_55ecb86b5020|22|18 0,0,0,0,0,0,0,0,0,0,0,0,0,0,1,1,
scooby_state_55ecb86b5051|0|-16 1,0,0,0,0,0,0,0,0,0,0,0,0,0,0,1,
scooby_state_55ecb86b5081|2|1 1,0,0,0,0,0,0,0,0,0,0,0,0,0,0,1,
scooby_state_55ecb86b5051|5|-51 0,0,0,0,0,0,0,0,0,0,0,0,0,0,1,1,
scooby_state_55ecb86b3a8c|45|1 1,0,0,0,0,0,0,0,0,0,0,0,0,0,0,1,
scooby_state_55ecb86b5063|20|-32 0,0,1,0,0,0,0,0,0,0,0,0,0,0,0,1,
scooby_state_55ecb86b5063|5|-10 0,0,0,0,0,1,0,0,0,0,0,0,0,0,0,1,
scooby_state_55ecb86b56d7|45|-3 0,1,0,0,0,0,0,0,0,0,0,0,0,0,0,1,
scooby_state_55ecb86b5051|38|-1 0,0,1,0,0,0,0,0,0,0,0,0,0,0,0,1,
scooby_state_55ecb86b5020|33|22 0,0,0,0,0,0,0,0,0,1,0,0,0,0,0,1,
scooby_state_55ecb86b5051|25|-23 0,0,0,0,0,0,0,0,0,0,0,0,0,0,1,1,
scooby_state_55ecb86b5063|25|-20 0,0,0,0,0,0,0,0,0,0,0,0,0,0,1,1,
scooby_state_55ecb86b56d7|59|17 0,1,0,0,0,0,0,0,0,0,0,0,0,0,0,1,
scooby_state_55ecb86b5020|58|19 0,0,1,0,0,0,0,0,0,0,0,0,0,0,0,1,
scooby_state_55ecb86b56d7|1|-44 0,0,0,0,0,0,1,0,0,0,0,0,0,0,0,1,
scooby_state_55ecb86b5051|3|-44 0,0,0,0,0,0,0,0,0,0,0,0,0,0,1,1,
scooby_state_55ecb86b56d7|60|27 0,0,0,1,0,0,0,0,0,0,0,0,0,0,0,1,
scooby_state_55ecb86b5063|50|-2 0,0,0,0,0,0,0,0,0,0,0,0,0,0,1,1,
scooby_state_14e534ab89c3|39|1 1,0,0,0,0,0,0,0,0,0,0,0,0,0,0,1,
scooby_state_55ecb86b5063|21|-28 0,0,0,0,0,0,0,0,0,0,0,0,0,0,1,1,
scooby_state_55ecb86b5051|16|-43 0,0,0,0,0,0,0,0,0,0,0,0,0,0,1,1,
scooby_state_55ecb86b5051|16|-34 0,0,0,0,0,0,0,0,0,0,0,0,0,0,1,1,
scooby_state_55ecb86b580b|33|0 0,0,0,0,1,0,0,0,0,0,0,0,0,0,0,1,
scooby_state_55ecb86b56d7|14|-41 1,0,0,0,0,0,0,0,0,0,0,0,0,0,0,1,
scooby_state_55ecb86b5051|19|-40 0,0,1,0,0,0,0,0,0,0,0,0,0,0,0,1,
scooby_state_55ecb86b5051|17|-19 0,0,0,0,0,0,0,0,1,0,0,0,0,0,0,1,
scooby_state_55ecb86b5051|28|25 1,0,0,0,0,0,0,0,0,0,0,0,0,0,0,1,
scooby_state_55ecb86b56d7|40|36 0,0,0,0,0,0,0,0,0,0,0,0,0,1,0,1,
scooby_state_55ecb86b56d7|41|-21 0,0,0,0,0,1,0,0,0,0,0,0,0,0,0,1,
scooby_state_55ecb86b5063|10|-42 0,0,0,0,0,0,0,0,0,0,0,1,0,0,0,1,
scooby_state_55ecb86b5063|16|-44 0,0,0,0,0,0,0,0,0,0,0,0,0,0,1,1,
scooby_state_55ecb86b5051|14|-11 1,0,0,0,0,0,0,0,0,0,0,0,0,0,0,1,
scooby_state_55ecb86b5063|57|53 0,0,0,0,1,0,0,0,0,0,0,0,0,0,0,1,
scooby_state_55ecb86b5020|47|17 0,0,0,0,0,0,0,0,0,0,0,0,0,0,1,1,
scooby_state_55ecb86b5051|13|-30 0,0,0,0,0,0,0,0,0,0,0,0,0,0,1,1,
scooby_state_55ecb86b509c|36|-3 0,0,1,0,0,0,0,0,0,0,0,0,0,0,0,1,
scooby_state_55ecb86b5063|4|-14 1,0,0,0,0,0,0,0,0,0,0,0,0,0,0,1,
scooby_state_55ecb86b5063|8|-48 1,0,0,0,0,0,0,0,0,0,0,0,0,0,0,1,
scooby_state_55ecb86b5051|39|-11 1,0,0,0,0,0,0,0,0,0,0,0,0,0,0,1,
scooby_state_55ecb86b5063|32|-8 0,0,0,0,0,0,0,0,0,0,0,0,0,0,1,1,
scooby_state_55ecb86b56d7|8|-22 0,1,0,0,0,0,0,0,0,0,0,0,0,0,0,1,
scooby_state_55ecb86b5063|49|-8 0,0,0,0,0,0,0,0,0,0,0,0,0,0,1,1,
scooby_state_55ecb86b56d7|1|-34 0,0,0,0,0,1,0,0,0,0,0,0,0,0,0,1,
scooby_state_55ecb86b5063|12|-45 0,0,1,0,0,0,0,0,0,0,0,0,0,0,0,1,
scooby_state_55ecb86b56d7|32|21 0,1,0,0,0,0,0,0,0,0,0,0,0,0,0,1,
scooby_state_55ecb86b5020|35|14 1,0,0,0,0,0,0,0,0,0,0,0,0,0,0,1,
scooby_state_55ecb86b56d7|63|17 0,0,0,0,0,1,0,0,0,0,0,0,0,0,0,1,
scooby_state_55ecb86b5063|47|-11 0,0,0,0,0,0,0,0,0,0,0,0,0,0,1,1,
scooby_state_55ecb86b5020|29|13 0,0,0,0,1,0,0,0,0,0,0,0,0,0,0,1,
scooby_state_55ecb86b5020|21|18 0,0,0,0,0,0,0,0,0,0,0,0,0,0,1,1,
scooby_state_55ecb86b56d7|20|18 0,1,0,0,0,0,0,0,0,0,0,0,0,0,0,1,
scooby_state_55ecb86b5063|26|-32 0,0,0,1,0,0,0,0,0,0,0,0,0,0,0,1,
scooby_state_55ecb86b5063|1|-52 1,0,0,0,0,0,0,0,0,0,0,0,0,0,0,1,
scooby_state_14e534ab6183|6|-3 1,0,0,0,0,0,0,0,0,0,0,0,0,0,0,1,
scooby_state_55ecb86b5051|3|-41 0,0,0,0,0,0,0,0,0,0,0,0,0,0,1,1,
scooby_state_55ecb86b56d7|11|-51 0,1,0,0,0,0,0,0,0,0,0,0,0,0,0,1,
scooby_state_55ecb86b56d7|59|10 0,0,0,0,0,0,0,0,0,0,0,0,0,1,0,1,
scooby_state_55ecb86b56d7|18|-43 0,0,0,0,0,1,0,0,0,0,0,0,0,0,0,1,
scooby_state_55ecb86b5051|4|-12 0,0,0,0,0,0,0,0,0,0,0,0,0,0,1,1,
scooby_state_55ecb86b5063|5|-28 0,0,0,0,0,0,0,0,0,0,0,0,0,0,1,1,
scooby_state_55ecb86b5051|29|-25 0,0,0,0,0,0,0,0,0,0,0,0,0,0,1,1,
scooby_state_55ecb86b5063|29|-11 0,0,0,0,1,0,0,0,0,0,0,0,0,0,0,1,
scooby_state_55ecb86b56d7|62|40 1,0,0,0,0,0,0,0,0,0,0,0,0,0,0,1,
scooby_state_55ecb86b5051|17|-25 0,0,0,0,0,1,0,0,0,0,0,0,0,0,0,1,
scooby_state_55ecb86b5063|24|-7 1,0,0,0,0,0,0,0,0,0,0,0,0,0,0,1,
scooby_state_55ecb86b5063|8|-37 0,1,0,0,0,0,0,0,0,0,0,0,0,0,0,1,
scooby_state_55ecb86b5020|40|23 1,0,0,0,0,0,0,0,0,0,0,0,0,0,0,1,
scooby_state_55ecb86b56d7|52|32 1,0,0,0,0,0,0,0,0,0,0,0,0,0,0,1,
scooby_state_55ecb86b56d7|36|-24 0,1,0,0,0,0,0,0,0,0,0,0,0,0,0,1,
scooby_state_55ecb86b57cb|10|3 1,0,0,0,0,0,0,0,0,0,0,0,0,0,0,1,
scooby_state_55ecb86b56d7|12|-24 0,1,0,0,0,0,0,0,0,0,0,0,0,0,0,1,
scooby_state_55ecb86b5063|9|-10 0,0,0,0,1,0,0,0,0,0,0,0,0,0,0,1,
scooby_state_55ecb86b56d7|37|18 0,1,0,0,0,0,0,0,0,0,0,0,0,0,0,1,
scooby_state_55ecb86b56d7|11|-41 0,1,0,0,0,0,0,0,0,0,0,0,0,0,0,1,
scooby_state_55ecb86b56d7|54|17 0,1,0,0,0,0,0,0,0,0,0,0,0,0,0,1,
scooby_state_55ecb86b5063|7|-4 0,0,0,0,0,0,0,0,1,0,0,0,0,0,0,1,
scooby_state_55ecb86b56d7|30|-9 0,1,0,0,0,0,0,0,0,0,0,0,0,0,0,1,
scooby_state_55ecb86b56d7|29|22 0,1,0,0,0,0,0,0,0,0,0,0,0,0,0,1,
scooby_state_55ecb86b5051|4|-15 0,0,0,0,0,0,0,0,0,0,0,0,0,0,1,1,
scooby_state_7ffe2e0f1e41|57|1 1,0,0,0,0,0,0,0,0,0,0,0,0,0,0,1,
scooby_state_55ecb86b56d7|35|10 0,1,0,0,0,0,0,0,0,0,0,0,0,0,0,1,
scooby_state_55ecb86b5063|8|-49 1,0,0,0,0,0,0,0,0,0,0,0,0,0,0,1,
scooby_state_14e534adc908|36|2 1,0,0,0,0,0,0,0,0,0,0,0,0,0,0,1,
scooby_state_55ecb86b5051|54|38 0,0,0,0,0,0,0,0,0,0,0,0,0,0,1,1,
scooby_state_55ecb86b56d7|19|15 0,1,0,0,0,0,0,0,0,0,0,0,0,0,0,1,
scooby_state_55ecb86b5051|5|-57 1,0,0,0,0,0,0,0,0,0,0,0,0,0,0,1,
scooby_state_55ecb86b5051|41|-17 0,0,0,0,0,0,0,0,0,1,0,0,0,0,0,1,
scooby_state_14e534ab565b|18|1 1,0,0,0,0,0,0,0,0,0,0,0,0,0,0,1,
scooby_state_55ecb86b5063|41|-12 0,0,0,0,0,0,0,1,0,0,0,0,0,0,0,1,
scooby_state_55ecb86b56d7|3|-18 0,0,0,0,1,0,0,0,0,0,0,0,0,0,0,1,
scooby_state_55ecb86b56d7|55|21 0,1,0,0,0,0,0,0,0,0,0,0,0,0,0,1,
scooby_state_55ecb86b56d7|8|-39 0,1,0,0,0,0,0,0,0,0,0,0,0,0,0,1,
scooby_state_55ecb86b56d7|56|9 0,1,0,0,0,0,0,0,0,0,0,0,0,0,0,1,
scooby_state_55ecb86b56d7|0|-21 0,1,0,0,0,0,0,0,0,0,0,0,0,0,0,1,
scooby_state_55ecb86b56d7|39|17 0,1,0,0,0,0,0,0,0,0,0,0,0,0,0,1,
scooby_state_55ecb86b5063|14|-26 0,1,0,0,0,0,0,0,0,0,0,0,0,0,0,1,
scooby_state_55ecb86b56d7|37|-3 0,1,0,0,0,0,0,0,0,0,0,0,0,0,0,1,
scooby_state_55ecb86b56d7|0|-16 0,1,0,0,0,0,0,0,0,0,0,0,0,0,0,1,
scooby_state_55ecb86b5051|47|21 0,0,0,0,0,0,0,0,0,0,0,0,0,0,1,1,
scooby_state_55ecb86b5063|35|-25 0,0,0,0,0,0,0,0,0,0,0,0,0,0,1,1,
scooby_state_55ecb86b5063|48|-12 0,0,1,0,0,0,0,0,0,0,0,0,0,0,0,1,
scooby_state_55ecb86b56d7|11|-22 0,1,0,0,0,0,0,0,0,0,0,0,0,0,0,1,
scooby_state_55ecb86b56d7|0|-34 0,1,0,0,0,0,0,0,0,0,0,0,0,0,0,1,
scooby_state_55ecb86b5051|29|-20 0,0,0,0,0,0,0,0,1,0,0,0,0,0,0,1,
scooby_state_55ecb86b56d7|32|15 0,1,0,0,0,0,0,0,0,0,0,0,0,0,0,1,
scooby_state_14e534aaf530|20|2 1,0,0,0,0,0,0,0,0,0,0,0,0,0,0,1,
scooby_state_55ecb86b5051|27|-6 0,0,0,0,0,0,0,0,0,0,0,0,0,0,1,1,
scooby_state_55ecb86b5020|54|12 0,0,0,0,0,0,0,0,0,0,0,0,0,0,1,1,
scooby_state_55ecb86b5020|4|-3 1,0,0,0,0,0,0,0,0,0,0,0,0,0,0,1,
scooby_state_55ecb86b56d7|43|27 0,1,0,0,0,0,0,0,0,0,0,0,0,0,0,1,
scooby_state_55ecb86b5063|28|-15 0,0,0,0,0,0,0,1,0,0,0,0,0,0,0,1,
scooby_state_55ecb86b56d7|49|13 0,1,0,0,0,0,0,0,0,0,0,0,0,0,0,1,
scooby_state_55ecb86b56d7|36|-25 0,1,0,0,0,0,0,0,0,0,0,0,0,0,0,1,
scooby_state_55ecb86b56d7|16|12 0,1,0,0,0,0,0,0,0,0,0,0,0,0,0,1,
scooby_state_55ecb86b5051|58|57 0,0,0,0,0,0,0,0,0,0,0,0,0,0,1,1,
scooby_state_55ecb86b5063|17|-12 0,0,0,1,0,0,0,0,0,0,0,0,0,0,0,1,
scooby_state_14e534ab6080|2|1 1,0,0,0,0,0,0,0,0,0,0,0,0,0,0,1,
scooby_state_55ecb86b5742|29|1 1,0,0,0,0,0,0,0,0,0,0,0,0,0,0,1,
scooby_state_55ecb86b573d|34|0 1,0,0,0,0,0,0,0,0,0,0,0,0,0,0,1,
scooby_state_55ecb86b5020|42|22 0,0,0,0,0,0,0,0,0,0,0,0,0,0,1,1,
scooby_state_55ecb86b5063|0|-39 0,0,0,0,1,0,0,0,0,0,0,0,0,0,0,1,
scooby_state_55ecb86b5051|57|-6 0,0,0,0,0,0,0,0,0,0,0,0,0,0,1,1,
scooby_state_55ecb86b5051|51|33 0,0,0,0,0,0,0,0,0,0,0,0,0,0,1,1,
scooby_state_55ecb86b5782|30|1 0,0,1,0,0,0,0,0,0,0,0,0,0,0,0,1,
scooby_state_55ecb86b5051|12|-32 0,0,0,0,0,0,0,0,0,0,0,0,0,0,1,1,
scooby_state_55ecb86b5020|24|15 0,0,0,0,0,0,0,0,0,0,0,0,0,0,1,1,
scooby_state_55ecb86b5051|13|-24 0,0,0,1,0,0,0,0,0,0,0,0,0,0,0,1,
scooby_state_55ecb86b56d7|56|21 0,1,0,0,0,0,0,0,0,0,0,0,0,0,0,1,
scooby_state_55ecb86b5838|8|0 0,0,0,1,0,0,0,0,0,0,0,0,0,0,0,1,
scooby_state_55ecb86b5051|8|-16 1,0,0,0,0,0,0,0,0,0,0,0,0,0,0,1,
scooby_state_55ecb86b5063|5|-56 0,0,0,0,0,0,0,0,0,0,0,0,0,0,1,1,
scooby_state_55ecb86b5051|46|-6 0,0,1,0,0,0,0,0,0,0,0,0,0,0,0,1,
scooby_state_55ecb86b57d9|58|58 1,0,0,0,0,0,0,0,0,0,0,0,0,0,0,1,
scooby_state_55ecb86b5063|35|-28 0,0,0,0,0,0,0,0,0,0,0,0,0,0,1,1,
scooby_state_55ecb86b5051|37|-26 0,0,0,0,0,0,0,0,0,0,0,0,0,0,1,1,
scooby_state_55ecb86b5051|48|-2 0,0,0,1,0,0,0,0,0,0,0,0,0,0,0,1,
scooby_state_55ecb86b5051|13|-50 0,0,0,0,0,0,0,0,0,0,0,0,0,0,1,1,
scooby_state_55ecb86b56d7|18|-44 0,1,0,0,0,0,0,0,0,0,0,0,0,0,0,1,
scooby_state_55ecb86b56d7|16|11 0,1,0,0,0,0,0,0,0,0,0,0,0,0,0,1,
scooby_state_55ecb86b56d7|55|13 0,1,0,0,0,0,0,0,0,0,0,0,0,0,0,1,
scooby_state_55ecb86b56d7|40|15 1,0,0,0,0,0,0,0,0,0,0,0,0,0,0,1,
scooby_state_55ecb86b56d7|8|-48 0,1,0,0,0,0,0,0,0,0,0,0,0,0,0,1,
scooby_state_55ecb86b5051|47|-13 0,0,0,0,0,0,0,0,0,0,0,0,0,0,1,1,
scooby_state_14e5354516d0|27|-25 1,0,0,0,0,0,0,0,0,0,0,0,0,0,0,1,
scooby_state_55ecb86b56d7|43|-19 1,0,0,0,0,0,0,0,0,0,0,0,0,0,0,1,
scooby_state_55ecb86b5063|3|-24 1,0,0,0,0,0,0,0,0,0,0,0,0,0,0,1,
scooby_state_55ecb86b56d7|52|15 0,1,0,0,0,0,0,0,0,0,0,0,0,0,0,1,
scooby_state_55ecb86b56d7|34|11 1,0,0,0,0,0,0,0,0,0,0,0,0,0,0,1,
scooby_state_55ecb86b56d7|27|16 1,0,0,0,0,0,0,0,0,0,0,0,0,0,0,1,
scooby_state_55ecb86b56d7|49|30 1,0,0,0,0,0,0,0,0,0,0,0,0,0,0,1,
scooby_state_55ecb86b5051|52|48 0,0,0,0,0,0,0,0,0,0,0,0,0,0,1,1,
scooby_state_55ecb86b5051|8|-18 0,0,0,0,0,0,0,0,0,0,0,0,0,1,0,1,
scooby_state_55ecb86b56d7|31|11 0,0,0,1,0,0,0,0,0,0,0,0,0,0,0,1,
scooby_state_55ecb86b56d7|61|10 0,0,0,0,0,1,0,0,0,0,0,0,0,0,0,1,
scooby_state_55ecb86b56d7|30|8 0,0,0,0,0,0,0,0,0,1,0,0,0,0,0,1,
scooby_state_55ecb86b56d7|48|16 0,0,0,0,0,0,0,0,0,0,1,0,0,0,0,1,
scooby_state_55ecb86b56d7|22|-23 0,0,0,0,0,1,0,0,0,0,0,0,0,0,0,1,
scooby_state_55ecb86b56d7|0|-50 0,0,0,0,0,0,0,0,1,0,0,0,0,0,0,1,
scooby_state_55ecb86b56d7|41|0 0,0,1,0,0,0,0,0,0,0,0,0,0,0,0,1,
scooby_state_55ecb86b5063|10|-43 0,0,0,1,0,0,0,0,0,0,0,0,0,0,0,1,
scooby_state_55ecb86b5704|28|0 0,1,0,0,0,0,0,0,0,0,0,0,0,0,0,1,
scooby_state_55ecb86b56d7|50|21 0,1,0,0,0,0,0,0,0,0,0,0,0,0,0,1,
scooby_state_55ecb86b5063|16|-28 0,0,0,0,0,0,0,0,0,0,0,0,0,0,1,1,

scooby_action_0_deg_dist 0,132263,0,0,0,0,0,0,0,0,0,0,0,0,0,0,
scooby_action_4_deg_dist 0,50802,8681,0,20872,0,138475,0,0,0,0,0,0,0,0,0,
scooby_action_3_deg_dist 0,14441,5079,0,13708,0,625,0,0,0,0,0,0,0,0,0,
scooby_action_32_deg_dist 0,7322,47,0,2,0,0,0,0,0,0,0,0,0,0,0,
scooby_action_5_deg_dist 0,11412,100,0,30,0,5,0,0,0,0,0,0,0,0,0,
scooby_action_1_deg_dist 0,510502,72388,0,145334,0,409686,0,0,0,0,0,0,0,0,0,
scooby_action_30_deg_dist 0,7534,194,0,448,0,4613,0,0,0,0,0,0,0,0,0,
scooby_action_-3_deg_dist 0,9599,18,0,10,0,0,0,0,0,0,0,0,0,0,0,
scooby_action_10_deg_dist 0,10400,103,0,94,0,174,0,0,0,0,0,0,0,0,0,
scooby_action_-1_deg_dist 0,9281,54,0,603,0,0,0,0,0,0,0,0,0,0,0,
scooby_action_23_deg_dist 0,10665,90,0,189,0,1722,0,0,0,0,0,0,0,0,0,
scooby_action_-6_deg_dist 0,8685,217,0,12,0,375,0,0,0,0,0,0,0,0,0,
scooby_action_11_deg_dist 0,10247,164,0,266,0,4362,0,0,0,0,0,0,0,0,0,
scooby_action_22_deg_dist 0,8431,43,0,15,0,0,0,0,0,0,0,0,0,0,0,
scooby_action_12_deg_dist 0,9781,72,0,40,0,22,0,0,0,0,0,0,0,0,0,

scooby_track_called 1640297
scooby_track_same_address 54261
scooby_track_evict 1585780

scooby_reward_demand_called 1640297
scooby_reward_demand_pt_not_found 917174
scooby_reward_demand_pt_found 723123
scooby_reward_demand_pt_found_total 723123
scooby_reward_demand_has_reward 18
scooby_reward_train_called 804775
scooby_reward_assign_reward_called 1586017
scooby_reward_no_pref 132263
scooby_reward_incorrect 672512
scooby_reward_correct_untimely 581738
scooby_reward_correct_timely 141367
scooby_reward_out_of_bounds 58137
scooby_reward_tracker_hit 0

scooby_reward_none_low_bw 132263
scooby_reward_none_high_bw 0
scooby_reward_incorrect_low_bw 672512
scooby_reward_incorrect_high_bw 0
scooby_reward_correct_untimely_low_bw 581738
scooby_reward_correct_untimely_high_bw 0
scooby_reward_correct_timely_low_bw 141367
scooby_reward_correct_timely_high_bw 0
scooby_reward_out_of_bounds_low_bw 58137
scooby_reward_out_of_bounds_high_bw 0
scooby_reward_tracker_hit_low_bw 0
scooby_reward_tracker_hit_high_bw 0

scooby_reward_1 0,554292,419546,99894,17697,0,
scooby_reward_3 0,16551,14049,596,1678,0,
scooby_reward_4 0,29328,139591,34133,13917,0,
scooby_reward_5 0,8842,718,509,964,0,
scooby_reward_10 0,7492,543,543,1729,0,
scooby_reward_11 0,8495,2932,534,2607,0,
scooby_reward_12 0,6781,462,430,1898,0,
scooby_reward_22 0,4856,283,319,2780,0,
scooby_reward_23 0,5012,1961,1104,4243,0,
scooby_reward_30 0,3490,283,2983,5865,0,
scooby_reward_32 0,3095,225,171,3545,0,
scooby_reward_-1 0,8655,412,59,143,0,
scooby_reward_-3 0,8104,377,51,375,0,
scooby_reward_-6 0,7519,356,41,696,0,
scooby_reward_0 132263,0,0,0,0,0,

scooby_train_called 1585779
scooby_train_compute_reward 804775

scooby_register_fill_called 1284147
scooby_register_fill_set 411899
scooby_register_fill_set_total 411899

scooby_register_prefetch_hit_called 2718239
scooby_register_prefetch_hit_set 990462
scooby_register_prefetch_hit_set_total 990462

scooby_pref_issue_scooby 4232727

learning_engine_featurewise.action.called 1640297
learning_engine_featurewise.action.explore 3024
learning_engine_featurewise.action.exploit 1637273
learning_engine_featurewise.action.fallback 443282
learning_engine_featurewise.action.dyn_fallback_saved_bw 0
learning_engine_featurewise.action.dyn_fallback_saved_bw_acc 123524
learning_engine_featurewise.action.index_1_explored 198
learning_engine_featurewise.action.index_1_exploited 1137712
learning_engine_featurewise.action.index_3_explored 219
learning_engine_featurewise.action.index_3_exploited 33634
learning_engine_featurewise.action.index_4_explored 207
learning_engine_featurewise.action.index_4_exploited 218623
learning_engine_featurewise.action.index_5_explored 189
learning_engine_featurewise.action.index_5_exploited 11358
learning_engine_featurewise.action.index_10_explored 233
learning_engine_featurewise.action.index_10_exploited 10538
learning_engine_featurewise.action.index_11_explored 183
learning_engine_featurewise.action.index_11_exploited 14856
learning_engine_featurewise.action.index_12_explored 210
learning_engine_featurewise.action.index_12_exploited 9705
learning_engine_featurewise.action.index_22_explored 209
learning_engine_featurewise.action.index_22_exploited 8280
learning_engine_featurewise.action.index_23_explored 201
learning_engine_featurewise.action.index_23_exploited 12465
learning_engine_featurewise.action.index_30_explored 206
learning_engine_featurewise.action.index_30_exploited 12583
learning_engine_featurewise.action.index_32_explored 175
learning_engine_featurewise.action.index_32_exploited 7196
learning_engine_featurewise.action.index_-1_explored 194
learning_engine_featurewise.action.index_-1_exploited 9744
learning_engine_featurewise.action.index_-3_explored 205
learning_engine_featurewise.action.index_-3_exploited 9422
learning_engine_featurewise.action.index_-6_explored 191
learning_engine_featurewise.action.index_-6_exploited 9098
learning_engine_featurewise.action.index_0_explored 204
learning_engine_featurewise.action.index_0_exploited 132059
learning_engine_featurewise.learn.called 1585779
learning_engine_featurewise.learn.su_skip_PC 0
learning_engine_featurewise.learn.su_skip_PC_Delta 0

learning_engine_featurewise.q_value_histogram.bucket_0 70410
learning_engine_featurewise.q_value_histogram.bucket_1 19569
learning_engine_featurewise.q_value_histogram.bucket_2 544010
learning_engine_featurewise.q_value_histogram.bucket_3 78519
learning_engine_featurewise.q_value_histogram.bucket_4 226186
learning_engine_featurewise.q_value_histogram.bucket_5 140832
learning_engine_featurewise.q_value_histogram.bucket_6 557747
learning_engine_featurewise.q_value_histogram.bucket_7 0

learning_engine_featurewise.consensus.total 1637273
learning_engine_featurewise.consensus.feature_align_PC 1426247
learning_engine_featurewise.consensus.feature_align_PC_ratio 0.87
learning_engine_featurewise.consensus.feature_align_PC_Delta 1510652
learning_engine_featurewise.consensus.feature_align_PC_Delta_ratio 0.92
learning_engine_featurewise.consensus.feature_align_all 1382968
learning_engine_featurewise.consensus.feature_align_all_ratio 0.84

learning_engine_featurewise.feature_PC_min_weight 1000000.00000000
learning_engine_featurewise.feature_PC_max_weight 0.00000000
learning_engine_featurewise.feature_PC_Delta_min_weight 1000000.00000000
learning_engine_featurewise.feature_PC_Delta_max_weight 0.00000000
unique_pcs 318
unique_pages 26900
unique_trigger_pcs 107
total_bitmaps_seen 0
unique_bitmaps_seen 0

scooby_bw_epochs 702542
scooby_bw_level_0 509004
scooby_bw_level_1 165506
scooby_bw_level_2 24624
scooby_bw_level_3 3408

scooby_ipc_epochs 0
scooby_ipc_level_0 0
scooby_ipc_level_1 0
scooby_ipc_level_2 0
scooby_ipc_level_3 0

scooby_cache_acc_epochs 168341
scooby_cache_acc_level_0 15820
scooby_cache_acc_level_1 8092
scooby_cache_acc_level_2 4932
scooby_cache_acc_level_3 10403
scooby_cache_acc_level_4 16806
scooby_cache_acc_level_5 19365
scooby_cache_acc_level_6 17099
scooby_cache_acc_level_7 13357
scooby_cache_acc_level_8 9701
scooby_cache_acc_level_9 52766

Channel_0_RQ_row_buffer_hit 641816
Channel_0_RQ_row_buffer_miss 675683
Channel_0_WQ_row_buffer_hit 57527
Channel_0_WQ_row_buffer_miss 116744
Channel_0_WQ_full 0
Channel_0_dbus_congested 592123

avg_congested_cycle 9

DRAM_bw_pochs 702542
DRAM_bw_level_0 509004
DRAM_bw_level_1 165506
DRAM_bw_level_2 24624
DRAM_bw_level_3 3408
