*************************************************
   ChampSim Multicore Out-of-Order Simulator
   Last compiled: Apr  3 2025 20:54:34
*************************************************
parsing config file: /home/zir/Pythia/config/pythia.ini

trace_0 /home/zir/ChampSim/ML-DPC/ChampSimTraces/gap/sssp-5.trace.gz
adding L2C_PREFETCHER: Scooby
Initialize SHIP state
warmup_instructions 10000000
simulation_instructions 50000000
champsim_seed 53
measure_ipc 0
measure_ipc_epoch 1000
measure_dram_bw 1
measure_dram_bw_epoch 256
measure_cache_acc 1
measure_cache_acc_epoch 1024
l1d_perfect 0
l2c_perfect 0
llc_perfect 0
l1d_semi_perfect 0
l2c_semi_perfect 0
llc_semi_perfect 0
semi_perfect_cache_page_buffer_size 64

num_cpus 1
cpu_freq 4000
dram_io_freq 2400
page_size 4096
block_size 64
max_read_per_cycle 8
max_fill_per_cycle 1
dram_channels 1
log2_dram_channels 0
dram_ranks 1
dram_banks 8
dram_rows 65536
dram_columns 128
dram_row_size 8
dram_size 4096
dram_pages 1048576

fetch_width 6
decode_width 6
exec_width 4
lq_width 2
sq_width 2
retire_width 4
scheduler_size 128
branch_mispredict_penalty 20
rob_size 256
lq_size 72
sq_size 56
num_instr_destinations_sparc 4
num_instr_destinations 2
num_instr_sources 4

itlb_set 16
itlb_way 8
itlb_rq_size 16
itlb_wq_size 16
itlb_pq_size 0
itlb_mshr_size 8
itlb_latency 1

dtlb_set 16
dtlb_way 4
dtlb_rq_size 16
dtlb_wq_size 16
dtlb_pq_size 0
dtlb_mshr_size 8
dtlb_latency 1

stlb_set 128
stlb_way 12
stlb_rq_size 32
stlb_wq_size 32
stlb_pq_size 0
stlb_mshr_size 16
stlb_latency 8

l1i_size 32
l1i_set 64
l1i_way 8
l1i_rq_size 64
l1i_wq_size 64
l1i_pq_size 8
l1i_mshr_size 8
l1i_latency 1

l1d_size 32
l1d_set 64
l1d_way 8
l1d_rq_size 64
l1d_wq_size 64
l1d_pq_size 8
l1d_mshr_size 16
l1d_latency 4

l2c_size 256
l2c_set 512
l2c_way 8
l2c_rq_size 32
l2c_wq_size 32
l2c_pq_size 32
l2c_mshr_size 32
l2c_latency 10

llc_size 2048
llc_set 2048
llc_way 16
llc_rq_size 32
llc_wq_size 32
llc_pq_size 32
llc_mshr_size 64
llc_latency 20

dram_channel_width 8
dram_wq_size 64
dram_rq_size 64
tRP 15
tRCD 15
tCAS 12.5
dram_dbus_turn_around_time 30
dram_write_high_wm 56
dram_write_low_wm 48
min_dram_writes_per_switch 16
dram_mtps 2400
dram_dbus_return_time 13

scooby_alpha 0.0065088
scooby_gamma 0.556301
scooby_epsilon 0.00182284
scooby_state_num_bits 10
scooby_max_states 1024
scooby_seed 200
scooby_policy EGreedy
scooby_learning_type SARSA
scooby_actions 1,3,4,5,10,11,12,22,23,30,32,-1,-3,-6,0,
scooby_max_actions 15
scooby_pt_size 256
scooby_st_size 64
scooby_max_pcs 5
scooby_max_offsets 5
scooby_max_deltas 5
scooby_reward_none -4
scooby_reward_incorrect -8
scooby_reward_correct_untimely 12
scooby_reward_correct_timely 20
scooby_brain_zero_init 0
scooby_enable_reward_all 0
scooby_enable_track_multiple 0
scooby_enable_reward_out_of_bounds 1
scooby_reward_out_of_bounds -12
scooby_state_type 1
scooby_state_hash_type 11
scooby_access_debug 0
scooby_print_access_debug 0
scooby_print_access_debug_pc deadbeef
scooby_print_access_debug_pc_count 0
scooby_print_trace 0
scooby_enable_state_action_stats 1
scooby_enable_reward_tracker_hit 0
scooby_reward_tracker_hit -2
scooby_enable_featurewise_engine 1
scooby_pref_degree 1
scooby_enable_dyn_degree 1
scooby_max_to_avg_q_thresholds 0.5,1,2,
scooby_dyn_degrees 1,2,4,4,
scooby_multi_deg_select_type 2
scooby_last_pref_offset_conf_thresholds 1,3,8,
scooby_dyn_degrees_type2 1,2,4,6,
scooby_action_tracker_size 2
scooby_high_bw_thresh 4
scooby_enable_hbw_reward 1
scooby_reward_hbw_correct_timely 20
scooby_reward_hbw_correct_untimely 12
scooby_reward_hbw_incorrect -14
scooby_reward_hbw_none -2
scooby_reward_hbw_out_of_bounds -12
scooby_reward_hbw_tracker_hit -2
scooby_last_pref_offset_conf_thresholds_hbw 1,3,8,
scooby_dyn_degrees_type2_hbw 1,2,4,6,

le_enable_trace 0
le_trace_interval 0
le_trace_file_name 
le_trace_state 0
le_enable_score_plot 0
le_plot_file_name 
le_plot_actions 
le_enable_action_trace 0
le_action_trace_interval 0
le_action_trace_name 
le_enable_action_plot 0

le_featurewise_active_features PC, PC_Delta
le_featurewise_num_tilings 3,3,
le_featurewise_num_tiles 128,128,
le_featurewise_hash_types 2,2,
le_featurewise_enable_tiling_offset 1,1,
le_featurewise_max_q_thresh 0.5
le_featurewise_enable_action_fallback 1
le_featurewise_feature_weights 1,1,
le_featurewise_enable_dynamic_weight 0
le_featurewise_weight_gradient 0.001
le_featurewise_disable_adjust_weight_all_features_align 1
le_featurewise_selective_update 0
le_featurewise_pooling_type 2
le_featurewise_enable_dyn_action_fallback 1
le_featurewise_bw_acc_check_level 1
le_featurewise_acc_thresh 2
le_featurewise_enable_trace 0
le_featurewise_trace_feature_type 0
le_featurewise_trace_feature 
le_featurewise_trace_interval 0
le_featurewise_trace_record_count 0
le_featurewise_trace_file_name 
le_featurewise_enable_score_plot 0
le_featurewise_plot_actions 
le_featurewise_plot_file_name 


Heartbeat CPU  0 instructions:    1000002 cycles:     261705 heartbeat IPC: 3.82110 cumulative IPC: 3.82110 (Simulation time: 0 hr 0 min 1 sec) 
Heartbeat CPU  0 instructions:    2000002 cycles:     759796 heartbeat IPC: 2.00767 cumulative IPC: 2.63229 (Simulation time: 0 hr 0 min 2 sec) 
Heartbeat CPU  0 instructions:    3000002 cycles:    1329184 heartbeat IPC: 1.75627 cumulative IPC: 2.25703 (Simulation time: 0 hr 0 min 4 sec) 
Heartbeat CPU  0 instructions:    4000000 cycles:    2022004 heartbeat IPC: 1.44337 cumulative IPC: 1.97824 (Simulation time: 0 hr 0 min 5 sec) 
Heartbeat CPU  0 instructions:    5000001 cycles:    2792433 heartbeat IPC: 1.29798 cumulative IPC: 1.79055 (Simulation time: 0 hr 0 min 7 sec) 
Heartbeat CPU  0 instructions:    6000001 cycles:    3633662 heartbeat IPC: 1.18874 cumulative IPC: 1.65123 (Simulation time: 0 hr 0 min 9 sec) 
Heartbeat CPU  0 instructions:    7000000 cycles:    4498646 heartbeat IPC: 1.15609 cumulative IPC: 1.55602 (Simulation time: 0 hr 0 min 10 sec) 
Heartbeat CPU  0 instructions:    8000000 cycles:    5372795 heartbeat IPC: 1.14397 cumulative IPC: 1.48898 (Simulation time: 0 hr 0 min 12 sec) 
Heartbeat CPU  0 instructions:    9000000 cycles:    6238789 heartbeat IPC: 1.15474 cumulative IPC: 1.44259 (Simulation time: 0 hr 0 min 14 sec) 
Heartbeat CPU  0 instructions:   10000000 cycles:    7097482 heartbeat IPC: 1.16456 cumulative IPC: 1.40895 (Simulation time: 0 hr 0 min 15 sec) 

Warmup complete CPU  0 instructions:   10000004 cycles:    7097483 (Simulation time: 0 hr 0 min 15 sec) 

Heartbeat CPU  0 instructions:   11000000 cycles:   10584167 heartbeat IPC: 0.28681 cumulative IPC: 0.28680 (Simulation time: 0 hr 0 min 18 sec) 
Heartbeat CPU  0 instructions:   12000000 cycles:   14456043 heartbeat IPC: 0.25827 cumulative IPC: 0.27179 (Simulation time: 0 hr 0 min 20 sec) 
Heartbeat CPU  0 instructions:   13000003 cycles:   17824297 heartbeat IPC: 0.29689 cumulative IPC: 0.27967 (Simulation time: 0 hr 0 min 23 sec) 
Heartbeat CPU  0 instructions:   14000000 cycles:   21609519 heartbeat IPC: 0.26418 cumulative IPC: 0.27563 (Simulation time: 0 hr 0 min 25 sec) 
Heartbeat CPU  0 instructions:   15000000 cycles:   25367969 heartbeat IPC: 0.26607 cumulative IPC: 0.27367 (Simulation time: 0 hr 0 min 28 sec) 
Heartbeat CPU  0 instructions:   16000000 cycles:   28970131 heartbeat IPC: 0.27761 cumulative IPC: 0.27432 (Simulation time: 0 hr 0 min 30 sec) 
Heartbeat CPU  0 instructions:   17000001 cycles:   32628598 heartbeat IPC: 0.27334 cumulative IPC: 0.27418 (Simulation time: 0 hr 0 min 33 sec) 
Heartbeat CPU  0 instructions:   18000003 cycles:   36124417 heartbeat IPC: 0.28606 cumulative IPC: 0.27561 (Simulation time: 0 hr 0 min 35 sec) 
Heartbeat CPU  0 instructions:   19000000 cycles:   39579446 heartbeat IPC: 0.28943 cumulative IPC: 0.27708 (Simulation time: 0 hr 0 min 38 sec) 
Heartbeat CPU  0 instructions:   20000000 cycles:   43009060 heartbeat IPC: 0.29158 cumulative IPC: 0.27846 (Simulation time: 0 hr 0 min 40 sec) 
Heartbeat CPU  0 instructions:   21000003 cycles:   46431047 heartbeat IPC: 0.29223 cumulative IPC: 0.27966 (Simulation time: 0 hr 0 min 43 sec) 
Heartbeat CPU  0 instructions:   22000003 cycles:   49583383 heartbeat IPC: 0.31723 cumulative IPC: 0.28245 (Simulation time: 0 hr 0 min 45 sec) 
Heartbeat CPU  0 instructions:   23000002 cycles:   52977677 heartbeat IPC: 0.29461 cumulative IPC: 0.28335 (Simulation time: 0 hr 0 min 48 sec) 
Heartbeat CPU  0 instructions:   24000000 cycles:   56380794 heartbeat IPC: 0.29385 cumulative IPC: 0.28407 (Simulation time: 0 hr 0 min 50 sec) 
Heartbeat CPU  0 instructions:   25000002 cycles:   59685428 heartbeat IPC: 0.30261 cumulative IPC: 0.28524 (Simulation time: 0 hr 0 min 53 sec) 
Heartbeat CPU  0 instructions:   26000002 cycles:   63025620 heartbeat IPC: 0.29938 cumulative IPC: 0.28608 (Simulation time: 0 hr 0 min 55 sec) 
Heartbeat CPU  0 instructions:   27000003 cycles:   66285666 heartbeat IPC: 0.30674 cumulative IPC: 0.28722 (Simulation time: 0 hr 0 min 58 sec) 
Heartbeat CPU  0 instructions:   28000000 cycles:   69534589 heartbeat IPC: 0.30779 cumulative IPC: 0.28829 (Simulation time: 0 hr 1 min 0 sec) 
Heartbeat CPU  0 instructions:   29000001 cycles:   72793794 heartbeat IPC: 0.30682 cumulative IPC: 0.28921 (Simulation time: 0 hr 1 min 3 sec) 
Heartbeat CPU  0 instructions:   30000003 cycles:   76045217 heartbeat IPC: 0.30756 cumulative IPC: 0.29007 (Simulation time: 0 hr 1 min 5 sec) 
Heartbeat CPU  0 instructions:   31000000 cycles:   79212214 heartbeat IPC: 0.31576 cumulative IPC: 0.29120 (Simulation time: 0 hr 1 min 8 sec) 
Heartbeat CPU  0 instructions:   32000000 cycles:   82397195 heartbeat IPC: 0.31397 cumulative IPC: 0.29217 (Simulation time: 0 hr 1 min 10 sec) 
Heartbeat CPU  0 instructions:   33000001 cycles:   85560759 heartbeat IPC: 0.31610 cumulative IPC: 0.29313 (Simulation time: 0 hr 1 min 13 sec) 
Heartbeat CPU  0 instructions:   34000000 cycles:   88705957 heartbeat IPC: 0.31794 cumulative IPC: 0.29409 (Simulation time: 0 hr 1 min 16 sec) 
Heartbeat CPU  0 instructions:   35000000 cycles:   91833537 heartbeat IPC: 0.31974 cumulative IPC: 0.29503 (Simulation time: 0 hr 1 min 18 sec) 
Heartbeat CPU  0 instructions:   36000000 cycles:   94889890 heartbeat IPC: 0.32719 cumulative IPC: 0.29615 (Simulation time: 0 hr 1 min 21 sec) 
Heartbeat CPU  0 instructions:   37000000 cycles:   97987414 heartbeat IPC: 0.32284 cumulative IPC: 0.29706 (Simulation time: 0 hr 1 min 23 sec) 
Heartbeat CPU  0 instructions:   38000003 cycles:  101039711 heartbeat IPC: 0.32762 cumulative IPC: 0.29806 (Simulation time: 0 hr 1 min 26 sec) 
Heartbeat CPU  0 instructions:   39000003 cycles:  104096919 heartbeat IPC: 0.32710 cumulative IPC: 0.29897 (Simulation time: 0 hr 1 min 28 sec) 
Heartbeat CPU  0 instructions:   40000000 cycles:  106931926 heartbeat IPC: 0.35273 cumulative IPC: 0.30050 (Simulation time: 0 hr 1 min 31 sec) 
Heartbeat CPU  0 instructions:   41000001 cycles:  109840360 heartbeat IPC: 0.34383 cumulative IPC: 0.30172 (Simulation time: 0 hr 1 min 33 sec) 
Heartbeat CPU  0 instructions:   42000003 cycles:  112919030 heartbeat IPC: 0.32482 cumulative IPC: 0.30240 (Simulation time: 0 hr 1 min 36 sec) 
Heartbeat CPU  0 instructions:   43000003 cycles:  115951838 heartbeat IPC: 0.32973 cumulative IPC: 0.30316 (Simulation time: 0 hr 1 min 39 sec) 
Heartbeat CPU  0 instructions:   44000000 cycles:  118949718 heartbeat IPC: 0.33357 cumulative IPC: 0.30397 (Simulation time: 0 hr 1 min 41 sec) 
Heartbeat CPU  0 instructions:   45000001 cycles:  121917364 heartbeat IPC: 0.33697 cumulative IPC: 0.30483 (Simulation time: 0 hr 1 min 44 sec) 
Heartbeat CPU  0 instructions:   46000001 cycles:  124913539 heartbeat IPC: 0.33376 cumulative IPC: 0.30556 (Simulation time: 0 hr 1 min 46 sec) 
Heartbeat CPU  0 instructions:   47000001 cycles:  127843638 heartbeat IPC: 0.34129 cumulative IPC: 0.30643 (Simulation time: 0 hr 1 min 49 sec) 
Heartbeat CPU  0 instructions:   48000000 cycles:  130625114 heartbeat IPC: 0.35952 cumulative IPC: 0.30762 (Simulation time: 0 hr 1 min 51 sec) 
Heartbeat CPU  0 instructions:   49000002 cycles:  133480795 heartbeat IPC: 0.35018 cumulative IPC: 0.30859 (Simulation time: 0 hr 1 min 54 sec) 
Heartbeat CPU  0 instructions:   50000002 cycles:  136387313 heartbeat IPC: 0.34405 cumulative IPC: 0.30938 (Simulation time: 0 hr 1 min 56 sec) 
Heartbeat CPU  0 instructions:   51000000 cycles:  139274493 heartbeat IPC: 0.34636 cumulative IPC: 0.31019 (Simulation time: 0 hr 1 min 59 sec) 
Heartbeat CPU  0 instructions:   52000000 cycles:  142275277 heartbeat IPC: 0.33325 cumulative IPC: 0.31070 (Simulation time: 0 hr 2 min 2 sec) 
Heartbeat CPU  0 instructions:   53000001 cycles:  145179119 heartbeat IPC: 0.34437 cumulative IPC: 0.31141 (Simulation time: 0 hr 2 min 4 sec) 
Heartbeat CPU  0 instructions:   54000001 cycles:  148091368 heartbeat IPC: 0.34338 cumulative IPC: 0.31207 (Simulation time: 0 hr 2 min 7 sec) 
Heartbeat CPU  0 instructions:   55000001 cycles:  151015842 heartbeat IPC: 0.34194 cumulative IPC: 0.31268 (Simulation time: 0 hr 2 min 9 sec) 
Heartbeat CPU  0 instructions:   56000000 cycles:  153953116 heartbeat IPC: 0.34045 cumulative IPC: 0.31323 (Simulation time: 0 hr 2 min 12 sec) 
Heartbeat CPU  0 instructions:   57000000 cycles:  156826424 heartbeat IPC: 0.34803 cumulative IPC: 0.31390 (Simulation time: 0 hr 2 min 15 sec) 
Heartbeat CPU  0 instructions:   58000003 cycles:  159720803 heartbeat IPC: 0.34550 cumulative IPC: 0.31450 (Simulation time: 0 hr 2 min 17 sec) 
Heartbeat CPU  0 instructions:   59000000 cycles:  162603663 heartbeat IPC: 0.34688 cumulative IPC: 0.31510 (Simulation time: 0 hr 2 min 20 sec) 
Heartbeat CPU  0 instructions:   60000000 cycles:  165427479 heartbeat IPC: 0.35413 cumulative IPC: 0.31580 (Simulation time: 0 hr 2 min 22 sec) 
Finished CPU 0 instructions: 50000003 cycles: 158330014 cumulative IPC: 0.31580 (Simulation time: 0 hr 2 min 22 sec) 

ChampSim completed all CPUs

[ROI Statistics]
Core_0_instructions 50000003
Core_0_cycles 158330014
Core_0_IPC 0.31580

Core_0_branch_prediction_accuracy 94.23893
Core_0_branch_MPKI 8.47752
Core_0_average_ROB_occupancy_at_mispredict 105.79462

Core_0_L1D_total_access 12128237
Core_0_L1D_total_hit 9503155
Core_0_L1D_total_miss 2625082
Core_0_L1D_loads 10820035
Core_0_L1D_load_hit 8478898
Core_0_L1D_load_miss 2341137
Core_0_L1D_RFOs 1308202
Core_0_L1D_RFO_hit 1024257
Core_0_L1D_RFO_miss 283945
Core_0_L1D_prefetches 0
Core_0_L1D_prefetch_hit 0
Core_0_L1D_prefetch_miss 0
Core_0_L1D_writebacks 0
Core_0_L1D_writeback_hit 0
Core_0_L1D_writeback_miss 0
Core_0_L1D_prefetch_requested 0
Core_0_L1D_prefetch_dropped 0
Core_0_L1D_prefetch_issued 0
Core_0_L1D_prefetch_filled 0
Core_0_L1D_prefetch_useful 0
Core_0_L1D_prefetch_useless 0
Core_0_L1D_prefetch_late 0
Core_0_L1D_average_miss_latency 82.27133

Core_0_L1D_rq_access 17920185
Core_0_L1D_rq_forward 0
Core_0_L1D_rq_merged 6961112
Core_0_L1D_rq_to_cache 10959071
Core_0_L1D_rq_full 0

Core_0_L1D_wq_access 1422672
Core_0_L1D_wq_forward 2
Core_0_L1D_wq_merged 949
Core_0_L1D_wq_to_cache 1421723
Core_0_L1D_wq_full 0

Core_0_L1D_pq_access 0
Core_0_L1D_pq_forward 0
Core_0_L1D_pq_merged 0
Core_0_L1D_pq_to_cache 0
Core_0_L1D_pq_full 0

Core_0_L1D_acc_epochs 160515
Core_0_L1D_acc_level_0 160515
Core_0_L1D_acc_level_1 0
Core_0_L1D_acc_level_2 0
Core_0_L1D_acc_level_3 0
Core_0_L1D_acc_level_4 0
Core_0_L1D_acc_level_5 0
Core_0_L1D_acc_level_6 0
Core_0_L1D_acc_level_7 0
Core_0_L1D_acc_level_8 0
Core_0_L1D_acc_level_9 0

Core_0_L1I_total_access 7370078
Core_0_L1I_total_hit 7370077
Core_0_L1I_total_miss 1
Core_0_L1I_loads 7370078
Core_0_L1I_load_hit 7370077
Core_0_L1I_load_miss 1
Core_0_L1I_RFOs 0
Core_0_L1I_RFO_hit 0
Core_0_L1I_RFO_miss 0
Core_0_L1I_prefetches 0
Core_0_L1I_prefetch_hit 0
Core_0_L1I_prefetch_miss 0
Core_0_L1I_writebacks 0
Core_0_L1I_writeback_hit 0
Core_0_L1I_writeback_miss 0
Core_0_L1I_prefetch_requested 0
Core_0_L1I_prefetch_dropped 0
Core_0_L1I_prefetch_issued 0
Core_0_L1I_prefetch_filled 0
Core_0_L1I_prefetch_useful 0
Core_0_L1I_prefetch_useless 0
Core_0_L1I_prefetch_late 0
Core_0_L1I_average_miss_latency 231.00000

Core_0_L1I_rq_access 50000058
Core_0_L1I_rq_forward 0
Core_0_L1I_rq_merged 42629980
Core_0_L1I_rq_to_cache 7370078
Core_0_L1I_rq_full 0

Core_0_L1I_wq_access 0
Core_0_L1I_wq_forward 0
Core_0_L1I_wq_merged 0
Core_0_L1I_wq_to_cache 0
Core_0_L1I_wq_full 0

Core_0_L1I_pq_access 0
Core_0_L1I_pq_forward 0
Core_0_L1I_pq_merged 0
Core_0_L1I_pq_to_cache 0
Core_0_L1I_pq_full 0

Core_0_L1I_acc_epochs 160515
Core_0_L1I_acc_level_0 160515
Core_0_L1I_acc_level_1 0
Core_0_L1I_acc_level_2 0
Core_0_L1I_acc_level_3 0
Core_0_L1I_acc_level_4 0
Core_0_L1I_acc_level_5 0
Core_0_L1I_acc_level_6 0
Core_0_L1I_acc_level_7 0
Core_0_L1I_acc_level_8 0
Core_0_L1I_acc_level_9 0

Core_0_L2C_total_access 6898008
Core_0_L2C_total_hit 2946844
Core_0_L2C_total_miss 3951164
Core_0_L2C_loads 2341110
Core_0_L2C_load_hit 571745
Core_0_L2C_load_miss 1769365
Core_0_L2C_RFOs 283904
Core_0_L2C_RFO_hit 154476
Core_0_L2C_RFO_miss 129428
Core_0_L2C_prefetches 3461114
Core_0_L2C_prefetch_hit 1412582
Core_0_L2C_prefetch_miss 2048532
Core_0_L2C_writebacks 811880
Core_0_L2C_writeback_hit 808041
Core_0_L2C_writeback_miss 3839
Core_0_L2C_prefetch_requested 4616340
Core_0_L2C_prefetch_dropped 0
Core_0_L2C_prefetch_issued 4616340
Core_0_L2C_prefetch_filled 2416317
Core_0_L2C_prefetch_useful 454281
Core_0_L2C_prefetch_useless 1960403
Core_0_L2C_prefetch_late 51592
Core_0_L2C_average_miss_latency 111.25325

Core_0_L2C_rq_access 2625083
Core_0_L2C_rq_forward 0
Core_0_L2C_rq_merged 0
Core_0_L2C_rq_to_cache 2625014
Core_0_L2C_rq_full 0

Core_0_L2C_wq_access 811880
Core_0_L2C_wq_forward 86
Core_0_L2C_wq_merged 0
Core_0_L2C_wq_to_cache 811880
Core_0_L2C_wq_full 0

Core_0_L2C_pq_access 4616340
Core_0_L2C_pq_forward 0
Core_0_L2C_pq_merged 288517
Core_0_L2C_pq_to_cache 4327806
Core_0_L2C_pq_full 0

Core_0_L2C_acc_epochs 160515
Core_0_L2C_acc_level_0 6746
Core_0_L2C_acc_level_1 95345
Core_0_L2C_acc_level_2 42922
Core_0_L2C_acc_level_3 10565
Core_0_L2C_acc_level_4 2542
Core_0_L2C_acc_level_5 845
Core_0_L2C_acc_level_6 407
Core_0_L2C_acc_level_7 241
Core_0_L2C_acc_level_8 230
Core_0_L2C_acc_level_9 672

Core_0_LLC_total_access 4501824
Core_0_LLC_total_hit 2656244
Core_0_LLC_total_miss 1845580
Core_0_LLC_loads 1718858
Core_0_LLC_load_hit 1124049
Core_0_LLC_load_miss 594809
Core_0_LLC_RFOs 129427
Core_0_LLC_RFO_hit 69478
Core_0_LLC_RFO_miss 59949
Core_0_LLC_prefetches 2099039
Core_0_LLC_prefetch_hit 960257
Core_0_LLC_prefetch_miss 1138782
Core_0_LLC_writebacks 554500
Core_0_LLC_writeback_hit 502460
Core_0_LLC_writeback_miss 52040
Core_0_LLC_prefetch_requested 0
Core_0_LLC_prefetch_dropped 0
Core_0_LLC_prefetch_issued 0
Core_0_LLC_prefetch_filled 1339844
Core_0_LLC_prefetch_useful 107172
Core_0_LLC_prefetch_useless 1224388
Core_0_LLC_prefetch_late 0
Core_0_LLC_average_miss_latency 176.74291

Core_0_LLC_rq_access 1848285
Core_0_LLC_rq_forward 0
Core_0_LLC_rq_merged 0
Core_0_LLC_rq_to_cache 1848285
Core_0_LLC_rq_full 0

Core_0_LLC_wq_access 554500
Core_0_LLC_wq_forward 1
Core_0_LLC_wq_merged 0
Core_0_LLC_wq_to_cache 554500
Core_0_LLC_wq_full 0

Core_0_LLC_pq_access 2467909
Core_0_LLC_pq_forward 0
Core_0_LLC_pq_merged 0
Core_0_LLC_pq_to_cache 2467907
Core_0_LLC_pq_full 0

Core_0_LLC_acc_epochs 161551
Core_0_LLC_acc_level_0 93007
Core_0_LLC_acc_level_1 42119
Core_0_LLC_acc_level_2 16974
Core_0_LLC_acc_level_3 5711
Core_0_LLC_acc_level_4 1506
Core_0_LLC_acc_level_5 1413
Core_0_LLC_acc_level_6 330
Core_0_LLC_acc_level_7 146
Core_0_LLC_acc_level_8 93
Core_0_LLC_acc_level_9 252

Core_0_major_page_fault 0
Core_0_minor_page_fault 9155

scooby_st_lookup 2646019
scooby_st_hit 1915576
scooby_st_evict 730379
scooby_st_insert 730443
scooby_st_streaming 0

scooby_predict_called 2646019
scooby_predict_out_of_bounds 64813
scooby_predict_action_1 1888088
scooby_predict_issue_action_1 1880784
scooby_predict_hit_action_1 7304
scooby_predict_out_of_bounds_action_1 30903
scooby_predict_action_3 16407
scooby_predict_issue_action_3 15407
scooby_predict_hit_action_3 1000
scooby_predict_out_of_bounds_action_3 1122
scooby_predict_action_4 14612
scooby_predict_issue_action_4 13799
scooby_predict_hit_action_4 813
scooby_predict_out_of_bounds_action_4 1304
scooby_predict_action_5 13679
scooby_predict_issue_action_5 12898
scooby_predict_hit_action_5 781
scooby_predict_out_of_bounds_action_5 1501
scooby_predict_action_10 10630
scooby_predict_issue_action_10 10062
scooby_predict_hit_action_10 568
scooby_predict_out_of_bounds_action_10 2645
scooby_predict_action_11 9946
scooby_predict_issue_action_11 9367
scooby_predict_hit_action_11 579
scooby_predict_out_of_bounds_action_11 2931
scooby_predict_action_12 9565
scooby_predict_issue_action_12 9042
scooby_predict_hit_action_12 523
scooby_predict_out_of_bounds_action_12 2913
scooby_predict_action_22 5972
scooby_predict_issue_action_22 5646
scooby_predict_hit_action_22 326
scooby_predict_out_of_bounds_action_22 4268
scooby_predict_action_23 5848
scooby_predict_issue_action_23 5549
scooby_predict_hit_action_23 299
scooby_predict_out_of_bounds_action_23 4408
scooby_predict_action_30 4069
scooby_predict_issue_action_30 3865
scooby_predict_hit_action_30 204
scooby_predict_out_of_bounds_action_30 5007
scooby_predict_action_32 3553
scooby_predict_issue_action_32 3378
scooby_predict_hit_action_32 175
scooby_predict_out_of_bounds_action_32 5277
scooby_predict_action_-1 57546
scooby_predict_issue_action_-1 54093
scooby_predict_hit_action_-1 3453
scooby_predict_out_of_bounds_action_-1 770
scooby_predict_action_-3 37168
scooby_predict_issue_action_-3 35210
scooby_predict_hit_action_-3 1958
scooby_predict_out_of_bounds_action_-3 1256
scooby_predict_action_-6 13667
scooby_predict_issue_action_-6 12741
scooby_predict_hit_action_-6 926
scooby_predict_out_of_bounds_action_-6 508
scooby_predict_action_0 490456
scooby_predict_issue_action_0 0
scooby_predict_hit_action_0 0
scooby_predict_out_of_bounds_action_0 0
scooby_predict_multi_deg_called 802021
scooby_predict_predicted 4616340
scooby_predict_multi_deg 2544499
scooby_predict_multi_deg_2 783921
scooby_predict_multi_deg_3 553981
scooby_predict_multi_deg_4 540285
scooby_predict_multi_deg_5 337642
scooby_predict_multi_deg_6 328670
scooby_predict_multi_deg_7 0
scooby_predict_multi_deg_8 0
scooby_predict_multi_deg_9 0
scooby_predict_multi_deg_10 0
scooby_predict_multi_deg_11 0
scooby_predict_multi_deg_12 0
scooby_predict_multi_deg_13 0
scooby_predict_multi_deg_14 0
scooby_predict_multi_deg_15 0
scooby_predict_multi_deg_16 0

scooby_selected_deg_1 1269820
scooby_selected_deg_2 220814
scooby_selected_deg_3 0
scooby_selected_deg_4 207002
scooby_selected_deg_5 0
scooby_selected_deg_6 374205
scooby_selected_deg_7 0
scooby_selected_deg_8 0
scooby_selected_deg_9 0
scooby_selected_deg_10 0
scooby_selected_deg_11 0
scooby_selected_deg_12 0
scooby_selected_deg_13 0
scooby_selected_deg_14 0
scooby_selected_deg_15 0
scooby_selected_deg_16 0

scooby_state_56112c14a226|0|0 25444,20,27,42,20,18,20,28,25,29,12,110,17,16,9331,35159,
scooby_state_56112c14a226|1|0 20370,14,17,29,16,9,26,22,30,20,19,97,10,9,7773,28461,
scooby_state_56112c14a226|3|0 19493,16,19,24,22,15,17,16,14,12,15,70,11,16,7420,27180,
scooby_state_56112c14a226|2|0 19287,12,18,25,19,17,28,13,16,19,10,79,7,11,7537,27098,
scooby_state_56112c14a226|4|0 16938,12,24,14,21,10,19,15,14,13,15,65,8,11,6536,23715,
scooby_state_56112c14a226|5|0 15589,17,21,13,14,5,11,15,20,18,11,53,9,9,5986,21791,
scooby_state_56112c14a226|6|0 15626,10,14,11,7,9,17,11,13,15,17,68,9,12,5651,21490,
scooby_state_56112c14a226|8|0 15014,11,20,20,17,10,7,11,13,13,9,67,6,9,5291,20518,
scooby_state_56112c14a226|7|0 14408,8,10,12,17,10,9,10,12,15,15,53,9,7,5250,19845,
scooby_state_56112c14a226|9|0 12358,8,7,17,7,16,13,8,4,5,10,42,9,3,4515,17022,
scooby_state_56112c14a226|10|0 12181,7,14,11,12,10,8,6,12,8,3,50,5,9,4513,16849,
scooby_state_56112c14a226|11|0 11211,8,7,10,6,6,10,5,10,6,6,43,8,6,4093,15435,
scooby_state_56112c14a226|13|0 11167,9,7,13,8,4,10,8,13,9,6,42,8,3,3907,15214,
scooby_state_56112c14a226|12|0 11015,7,9,11,12,8,13,5,6,13,8,48,9,6,3842,15012,
scooby_state_56112c14a226|14|0 11005,6,4,11,9,6,8,5,5,2,8,39,5,2,3713,14828,
scooby_state_56112c14a226|15|0 10725,8,10,8,11,2,5,3,7,3,6,44,6,7,3495,14340,
scooby_state_56112c14a226|16|0 9361,9,11,6,7,7,3,4,6,4,5,32,6,6,3087,12554,
scooby_state_56112c14a226|19|0 9348,4,7,7,7,7,10,3,2,12,2,38,3,7,3077,12534,
scooby_state_56112c14a226|18|0 9029,6,3,5,4,13,7,7,7,8,3,31,3,4,2903,12033,
scooby_state_56112c14a226|17|0 8878,7,5,8,8,7,9,6,5,4,5,33,9,6,2977,11967,
scooby_state_56112c14a226|21|0 8860,7,9,7,6,4,6,8,11,4,4,34,1,3,2807,11771,
scooby_state_56112c14a226|20|0 8865,11,5,8,9,5,7,2,5,4,1,23,7,0,2769,11721,
scooby_state_56112c14a226|22|0 8877,5,11,12,9,5,6,2,5,4,4,34,5,7,2718,11704,
scooby_state_56112c14a226|24|0 7887,2,6,8,8,4,2,9,6,3,2,22,4,3,2424,10390,
scooby_state_56112c14a226|27|0 7886,6,12,11,6,7,6,0,9,8,6,27,3,5,2324,10316,
scooby_state_56112c14a226|23|0 7741,4,7,6,4,7,6,3,6,7,7,28,4,6,2393,10229,
scooby_state_56112c14a226|25|0 7646,3,8,6,3,7,4,4,5,1,2,23,7,1,2335,10055,
scooby_state_56112c14a226|26|0 7256,6,4,6,4,4,4,6,6,4,1,20,3,5,2181,9510,
scooby_state_56112c14a226|29|0 7174,6,7,5,7,3,4,5,3,2,5,21,6,1,2101,9350,
scooby_state_56112c14a226|28|0 6672,5,2,5,4,2,3,7,3,4,6,18,4,3,2084,8822,
scooby_state_56112c14a226|33|0 6723,1,3,6,2,8,3,4,4,2,3,16,3,4,1906,8688,
scooby_state_56112c14a226|37|0 6674,6,7,5,2,4,3,2,9,4,4,19,4,2,1909,8654,
scooby_state_56112c14a226|34|0 6319,4,4,3,1,3,2,6,0,4,4,23,2,6,1758,8139,
scooby_state_56112c14a226|31|0 6095,7,4,5,1,4,4,4,4,0,2,13,1,2,1817,7963,
scooby_state_56112c14a226|30|0 6078,1,6,6,5,3,2,7,2,3,3,24,2,1,1756,7899,
scooby_state_56112c14a226|32|0 5988,6,4,7,4,2,7,7,1,5,2,19,3,3,1822,7880,
scooby_state_56112c14a226|46|0 5571,6,3,3,4,1,2,1,2,0,2,18,2,3,1559,7177,
scooby_state_56112c14a226|35|0 5477,5,6,2,8,2,4,8,3,2,3,18,2,2,1622,7164,
scooby_state_56112c14a226|41|0 5527,3,4,2,3,3,4,4,3,1,4,12,5,2,1577,7154,
scooby_state_56112c14a226|36|0 5426,3,3,3,4,4,3,4,4,3,4,10,2,3,1536,7012,
scooby_state_56112c14a226|43|0 5396,6,1,6,4,4,3,3,2,6,4,13,2,2,1518,6970,
scooby_state_56112c14a226|39|0 5373,4,6,6,3,4,4,6,4,2,1,13,2,6,1508,6942,
scooby_state_56112c14a226|40|0 5346,1,7,4,8,3,5,2,2,2,4,17,5,1,1493,6900,
scooby_state_56112c14a226|38|0 5187,5,4,0,4,1,2,5,2,3,1,15,1,3,1508,6741,
scooby_state_56112c14a226|42|0 4960,4,2,3,5,4,5,3,2,2,1,11,2,2,1377,6383,
scooby_state_56112c14a226|44|0 4767,2,5,4,0,3,4,5,3,3,3,17,0,0,1295,6111,
scooby_state_56112c14a226|48|0 4748,1,2,2,2,3,4,2,2,0,4,16,4,2,1316,6108,
scooby_state_56112c14a226|45|0 4651,1,7,4,7,5,4,3,3,2,0,12,2,2,1268,5971,
scooby_state_56112c14a226|58|0 4624,7,2,2,1,2,2,1,3,2,6,11,1,2,1191,5857,
scooby_state_56112c14a226|53|0 4457,1,6,4,2,4,5,4,2,2,1,10,3,1,1186,5688,
scooby_state_56112c14a226|61|0 4455,1,2,0,4,1,1,1,4,6,0,13,2,0,1193,5683,
scooby_state_56112c14a226|49|0 4460,1,0,0,2,4,5,6,2,2,2,17,2,1,1172,5676,
scooby_state_56112c14a226|56|0 4385,3,3,3,2,1,1,3,1,3,2,13,1,0,1187,5608,
scooby_state_56112c14a226|50|0 4382,2,8,0,2,2,3,4,2,3,1,12,2,5,1137,5565,
scooby_state_56112c14a226|63|0 4354,4,2,1,4,1,3,2,5,1,5,16,3,0,1150,5551,
scooby_state_56112c14a226|55|0 4345,4,2,5,3,2,2,3,2,3,1,16,3,0,1111,5502,
scooby_state_56112c14a226|47|0 4178,0,5,1,5,4,2,5,3,3,2,10,2,3,1233,5456,
scooby_state_56112c14a226|51|0 4284,2,1,1,4,0,3,0,2,1,2,9,3,1,1129,5442,
scooby_state_56112c14a226|52|0 4076,2,5,3,1,4,4,1,0,2,3,11,2,1,1118,5233,
scooby_state_56112c14a226|60|0 4087,3,3,1,7,0,3,2,2,2,1,12,3,4,1028,5158,
scooby_state_56112c14a226|59|0 3909,3,3,1,3,4,1,4,3,4,2,13,1,1,966,4918,
scooby_state_56112c14a226|57|0 3883,4,5,3,2,4,2,5,1,3,1,8,1,2,987,4911,
scooby_state_56112c14a226|54|0 3862,1,3,4,0,0,1,1,1,1,0,13,2,3,975,4867,
scooby_state_56112c14a226|62|0 3628,1,4,0,1,2,3,2,2,2,1,12,2,3,931,4594,
scooby_state_56112c14a200|22|1 4406,0,0,1,1,2,1,0,2,0,0,1,0,1,0,4415,
scooby_state_56112c14a200|21|1 4408,0,0,0,2,0,0,1,0,0,0,1,0,0,1,4413,
scooby_state_56112c14a200|9|1 4401,0,0,0,1,1,0,1,0,2,0,1,2,0,0,4409,
scooby_state_56112c14a200|33|1 4403,0,0,0,0,0,0,3,0,0,0,1,1,0,0,4408,
scooby_state_56112c14a200|19|1 4401,1,0,1,0,1,0,1,0,1,1,0,1,0,0,4408,
scooby_state_56112c14a200|12|1 4399,1,1,0,2,1,1,0,0,0,0,1,0,0,0,4406,
scooby_state_56112c14a200|0|0 4402,0,0,0,0,0,0,0,0,0,0,0,3,0,0,4405,
scooby_state_56112c14a200|13|1 4397,0,0,1,2,0,1,0,0,0,0,1,1,1,1,4405,
scooby_state_56112c14a200|20|1 4398,1,0,1,1,1,0,0,0,2,0,0,1,0,0,4405,
scooby_state_56112c14a200|6|1 4395,0,0,0,0,1,2,1,1,0,2,0,0,0,1,4403,
scooby_state_56112c14a200|10|1 4399,0,0,0,1,0,0,0,0,0,0,0,0,2,1,4403,
scooby_state_56112c14a200|14|1 4399,1,0,0,0,0,0,0,0,1,0,0,0,0,1,4402,
scooby_state_56112c14a200|18|1 4394,0,2,1,0,0,0,1,0,0,0,2,0,0,2,4402,
scooby_state_56112c14a200|31|1 4395,1,0,3,0,0,1,0,0,0,0,0,0,0,1,4401,
scooby_state_56112c14a200|23|1 4394,0,1,1,1,0,1,0,1,0,1,0,0,0,0,4400,
scooby_state_56112c14a200|32|1 4394,1,0,1,1,0,1,1,0,0,0,0,1,0,0,4400,
scooby_state_56112c14a200|8|1 4394,0,0,1,2,0,0,0,0,0,0,2,0,1,0,4400,
scooby_state_56112c14a200|28|1 4392,0,0,1,1,1,0,0,1,1,0,2,0,0,0,4399,
scooby_state_56112c14a200|24|1 4389,0,1,0,0,2,0,0,1,0,0,0,1,2,2,4398,
scooby_state_56112c14a200|7|1 4394,1,1,0,0,0,1,0,0,0,0,1,0,0,0,4398,
scooby_state_56112c14a200|11|1 4380,0,0,1,1,3,2,3,2,0,0,0,2,1,2,4397,
scooby_state_56112c14a200|15|1 4391,0,0,0,0,1,0,1,0,0,0,0,1,1,2,4397,
scooby_state_56112c14a200|5|1 4388,1,1,1,2,0,0,0,1,2,0,0,0,0,0,4396,
scooby_state_56112c14a200|16|1 4385,1,1,0,0,0,2,0,1,0,2,1,0,1,2,4396,
scooby_state_56112c14a200|29|1 4383,0,4,0,0,0,1,0,2,3,0,2,1,0,0,4396,
scooby_state_56112c14a200|30|1 4391,0,1,0,0,1,0,0,0,0,0,0,1,1,0,4395,
scooby_state_56112c14a200|4|1 4390,0,0,1,1,1,0,0,0,0,0,0,1,0,1,4395,
scooby_state_56112c14a200|26|1 4389,1,0,0,0,1,1,0,0,0,0,0,1,0,2,4395,
scooby_state_56112c14a200|37|1 4385,0,0,1,0,1,0,3,1,0,1,0,1,1,0,4394,
scooby_state_56112c14a200|25|1 4382,2,2,1,0,1,1,0,2,0,0,0,0,2,0,4393,
scooby_state_56112c14a200|17|1 4389,0,1,0,0,0,0,0,0,1,0,0,1,0,1,4393,
scooby_state_56112c14a200|27|1 4387,1,0,0,1,0,0,0,0,0,0,0,0,1,1,4391,
scooby_state_56112c14a200|61|1 4382,0,1,0,2,1,1,1,0,0,0,0,1,0,0,4389,
scooby_state_56112c14a200|36|1 4383,0,0,0,0,0,1,1,2,0,0,0,0,0,1,4388,
scooby_state_56112c14a200|41|1 4383,1,1,1,1,0,0,0,0,0,0,0,0,0,0,4387,
scooby_state_56112c14a200|58|1 4378,0,0,1,0,1,1,0,1,0,1,2,1,0,1,4387,
scooby_state_56112c14a200|62|1 4377,0,3,0,0,0,0,1,1,1,2,0,1,1,0,4387,
scooby_state_56112c14a200|34|1 4382,0,1,0,0,0,0,1,0,0,0,0,1,0,1,4386,
scooby_state_56112c14a200|40|1 4375,2,0,1,0,0,1,1,0,2,0,0,0,0,3,4385,
scooby_state_56112c14a200|39|1 4380,0,1,0,0,0,1,1,0,0,1,1,0,0,0,4385,
scooby_state_56112c14a200|43|1 4378,0,1,0,0,0,0,1,1,1,1,1,0,1,0,4385,
scooby_state_56112c14a200|38|1 4381,0,0,0,0,0,0,1,0,0,0,1,1,1,0,4385,
scooby_state_56112c14a200|60|1 4375,2,0,1,1,2,1,0,0,0,0,0,1,0,1,4384,
scooby_state_56112c14a200|44|1 4377,1,0,1,1,1,0,0,0,0,0,0,0,0,2,4383,
scooby_state_56112c14a200|35|1 4377,1,1,0,0,0,0,0,1,0,0,0,0,2,0,4382,
scooby_state_56112c14a200|42|1 4373,4,0,1,1,0,0,1,1,0,0,0,0,0,0,4381,
scooby_state_56112c14a200|1|1 4373,1,0,1,3,0,0,0,0,1,0,0,0,1,0,4380,
scooby_state_56112c14a200|63|1 4374,2,1,0,0,0,0,0,0,0,0,1,1,0,0,4379,
scooby_state_56112c14a200|59|1 4376,0,0,0,0,0,0,0,1,0,0,0,0,1,1,4379,
scooby_state_56112c14a200|57|1 4368,1,0,1,1,0,1,0,0,0,0,1,2,0,1,4376,
scooby_state_56112c14a200|3|1 4367,0,1,0,0,2,2,1,0,0,0,2,0,0,0,4375,
scooby_state_56112c14a200|2|1 4368,0,0,0,1,1,0,0,2,1,0,1,1,0,0,4375,
scooby_state_56112c14a200|48|1 4367,0,1,0,1,1,0,1,1,1,0,0,0,0,1,4374,
scooby_state_56112c14a200|56|1 4363,0,0,0,0,0,0,1,0,0,1,2,1,3,1,4372,
scooby_state_56112c14a200|47|1 4368,0,2,0,0,0,0,0,1,0,0,0,0,0,0,4371,
scooby_state_56112c14a200|53|1 4363,1,0,1,0,0,0,0,0,1,1,0,2,0,1,4370,
scooby_state_56112c14a200|45|1 4362,1,0,1,0,1,0,1,1,3,0,0,0,0,0,4370,
scooby_state_56112c14a200|54|1 4364,0,0,0,0,0,0,0,0,0,1,0,0,0,2,4367,
scooby_state_56112c14a200|51|1 4360,0,0,0,1,0,1,0,0,2,0,2,0,1,0,4367,
scooby_state_56112c14a200|55|1 4359,0,1,0,0,2,1,1,0,0,0,0,0,1,0,4365,
scooby_state_56112c14a200|50|1 4360,0,0,0,0,0,0,0,0,2,0,0,0,1,1,4364,
scooby_state_56112c14a200|46|1 4355,0,1,1,1,1,1,1,1,0,0,0,0,1,0,4363,
scooby_state_56112c14a200|52|1 4354,0,1,1,0,0,1,1,0,0,0,0,2,0,1,4361,
scooby_state_56112c14a200|49|1 4342,3,0,3,1,1,0,1,2,1,1,1,0,0,0,4356,
scooby_state_56112c14a226|22|1 2655,10,5,5,1,8,0,2,5,3,8,5,8,6,716,3437,
scooby_state_56112c14a226|20|1 2589,11,9,6,5,7,9,3,2,2,0,10,2,3,736,3394,
scooby_state_56112c14a226|37|1 2618,15,8,6,4,3,4,6,3,4,6,12,4,4,671,3368,
scooby_state_56112c14a226|27|1 2585,19,9,4,5,5,6,4,0,1,1,8,3,4,699,3353,
scooby_state_56112c14a226|38|1 2575,12,10,7,4,7,7,5,0,3,2,11,2,5,696,3346,
scooby_state_56112c14a226|61|1 2453,18,11,8,10,6,6,3,2,2,5,10,4,7,754,3299,
scooby_state_56112c14a226|34|1 2525,15,8,1,9,4,2,6,1,5,4,5,4,2,699,3290,
scooby_state_56112c14a226|43|1 2528,16,4,7,5,7,2,4,6,4,6,6,3,1,672,3271,
scooby_state_56112c14a226|28|1 2580,14,5,8,2,4,7,7,1,3,0,7,4,2,621,3265,
scooby_state_56112c14a226|23|1 2471,10,4,3,5,5,4,2,2,6,3,6,4,4,711,3240,
scooby_state_56112c14a226|53|1 2445,11,8,2,7,10,4,3,2,2,2,13,5,2,673,3189,
scooby_state_56112c14a226|42|1 2430,7,7,3,4,5,7,4,5,3,1,7,5,4,664,3156,
scooby_state_56112c14a226|59|1 2344,16,5,11,7,5,1,3,6,3,3,9,7,5,731,3156,
scooby_state_56112c14a226|41|1 2431,7,8,8,7,15,5,3,1,3,3,9,3,3,643,3149,
scooby_state_56112c14a226|46|1 2387,13,7,1,4,4,7,4,3,1,5,6,4,5,693,3144,
scooby_state_56112c14a226|19|1 2432,8,4,4,5,6,2,5,4,2,2,9,5,1,640,3129,
scooby_state_56112c14a226|47|1 2361,14,3,5,6,3,6,4,4,2,3,6,2,3,700,3122,
scooby_state_56112c14a226|24|1 2412,11,6,3,5,6,3,0,3,1,0,7,3,5,648,3113,
scooby_state_56112c14a226|2|1 2368,14,6,5,4,3,1,5,2,3,4,5,4,4,685,3113,
scooby_state_56112c14a226|14|1 2399,7,5,8,13,7,5,4,6,1,3,7,2,7,636,3110,
scooby_state_56112c14a226|8|1 2390,9,9,4,6,2,3,2,4,3,4,9,5,6,653,3109,
scooby_state_56112c14a226|4|1 2409,18,4,5,11,3,5,3,4,1,6,6,3,0,628,3106,
scooby_state_56112c14a226|51|1 2386,17,9,1,10,4,7,2,4,3,4,7,2,2,644,3102,
scooby_state_56112c14a226|7|1 2409,11,6,0,6,3,5,0,2,0,3,6,4,3,637,3095,
scooby_state_56112c14a226|60|1 2371,16,4,9,6,4,6,5,6,3,5,7,6,3,643,3094,
scooby_state_56112c14a226|12|1 2363,14,4,9,5,5,5,1,1,1,2,8,3,2,668,3091,
scooby_state_56112c14a226|35|1 2401,13,5,6,6,8,5,0,0,6,5,5,2,4,625,3091,
scooby_state_56112c14a226|56|1 2368,13,11,3,9,4,2,2,2,2,2,14,3,7,647,3089,
scooby_state_56112c14a226|63|1 2323,8,7,2,7,4,1,3,5,2,3,11,4,5,693,3078,
scooby_state_56112c14a226|39|1 2332,10,6,11,4,9,7,2,1,3,3,5,4,2,678,3077,
scooby_state_56112c14a226|15|1 2352,13,3,9,3,4,1,0,3,3,2,9,1,3,665,3071,
scooby_state_56112c14a226|16|1 2340,9,5,2,9,3,2,2,4,2,5,7,1,3,648,3042,
scooby_state_56112c14a226|9|1 2322,7,6,5,5,3,5,4,3,4,1,10,6,3,656,3040,
scooby_state_56112c14a226|48|1 2305,17,10,7,7,3,3,1,1,5,0,7,1,4,662,3033,
scooby_state_56112c14a226|3|1 2331,12,6,4,3,3,4,3,2,4,0,11,1,6,640,3030,
scooby_state_56112c14a226|6|1 2319,13,5,5,4,2,3,4,3,4,2,4,3,5,650,3026,
scooby_state_56112c14a226|13|1 2341,15,4,7,4,2,2,2,4,1,1,8,4,2,625,3022,
scooby_state_56112c14a226|52|1 2270,13,6,10,6,5,5,3,4,3,0,9,5,4,672,3015,
scooby_state_56112c14a226|26|1 2337,13,6,4,6,8,3,3,4,0,1,9,1,3,605,3003,
scooby_state_56112c14a226|25|1 2318,11,0,2,5,8,4,1,5,0,7,7,2,5,624,2999,
scooby_state_56112c14a226|49|1 2279,11,11,4,9,6,4,3,5,4,3,7,3,0,649,2998,
scooby_state_56112c14a226|54|1 2290,15,7,9,2,3,6,4,2,2,0,10,2,1,639,2992,
scooby_state_56112c14a226|1|1 2321,10,5,4,7,9,1,6,1,5,3,7,3,3,603,2988,
scooby_state_56112c14a226|31|1 2315,7,5,8,4,9,6,5,1,4,3,7,3,2,602,2981,
scooby_state_56112c14a226|62|1 2241,11,9,8,4,8,0,2,2,4,5,7,2,2,665,2970,
scooby_state_56112c14a226|32|1 2336,9,5,11,7,3,3,3,3,2,1,4,8,1,570,2966,
scooby_state_56112c14a226|29|1 2327,9,5,4,10,4,6,3,4,3,0,4,7,5,553,2944,
scooby_state_56112c14a226|45|1 2223,15,12,6,5,9,2,2,3,1,5,9,2,4,646,2944,
scooby_state_56112c14a226|55|1 2201,17,7,6,8,2,5,2,1,0,4,5,7,6,663,2934,
scooby_state_56112c14a226|33|1 2260,14,6,6,6,4,1,3,4,2,2,7,5,2,600,2922,
scooby_state_56112c14a226|36|1 2284,13,5,6,8,3,3,3,2,1,6,7,3,3,572,2919,
scooby_state_56112c14a226|30|1 2282,9,5,2,12,3,3,5,0,3,2,8,6,1,571,2912,
scooby_state_56112c14a226|15|2 2149,8,8,12,4,4,4,6,3,2,3,11,3,4,673,2894,
scooby_state_56112c14a226|17|1 2215,4,7,6,6,5,4,1,6,2,5,7,6,4,611,2889,
scooby_state_56112c14a226|50|1 2198,14,7,3,7,4,3,2,4,3,1,7,1,2,623,2879,
scooby_state_56112c14a226|10|1 2200,4,10,6,5,4,5,1,3,1,2,3,2,1,630,2877,
scooby_state_56112c14a226|58|1 2137,9,7,2,3,10,4,1,4,4,4,5,1,7,679,2877,
scooby_state_56112c14a226|57|1 2169,8,8,1,4,4,2,2,4,3,3,6,2,7,644,2867,
scooby_state_56112c14a226|21|1 2248,13,2,4,3,7,1,2,1,0,2,5,5,3,538,2834,
scooby_state_56112c14a226|44|1 2161,12,5,5,6,6,2,7,5,1,1,8,2,3,588,2812,
scooby_state_56112c14a226|40|1 2164,9,5,7,3,5,1,4,5,3,0,7,3,6,590,2812,
scooby_state_56112c14a226|11|1 2225,8,5,2,7,5,4,1,1,3,0,9,3,1,530,2804,
scooby_state_56112c14a226|24|2 2069,13,9,9,7,5,2,4,7,6,3,7,8,2,653,2804,
scooby_state_56112c14a226|63|2 1980,7,15,4,10,5,5,4,7,1,8,12,6,6,681,2751,
scooby_state_56112c14a226|27|2 2081,8,7,5,5,1,5,2,3,4,2,7,4,3,606,2743,
scooby_state_56112c14a226|48|2 2006,12,13,9,10,6,8,4,3,6,3,13,11,1,624,2729,
scooby_state_56112c14a226|55|2 2006,14,4,9,8,6,4,5,2,3,4,10,7,6,638,2726,
scooby_state_56112c14a226|5|1 2098,15,7,8,4,3,6,6,2,2,3,12,3,4,549,2722,
scooby_state_56112c14a226|18|1 2134,8,8,6,2,3,3,0,2,1,2,4,2,2,531,2708,
scooby_state_56112c14a226|22|2 2028,3,7,10,8,5,0,1,7,8,4,7,5,7,591,2691,
scooby_state_56112c14a226|31|2 2015,4,8,7,8,9,3,5,7,8,4,7,4,7,585,2681,
scooby_state_56112c14a226|40|2 1988,7,9,5,11,11,2,2,7,4,5,14,4,4,586,2659,
scooby_state_56112c14a226|13|2 1970,12,12,8,9,7,4,4,3,7,3,17,8,5,577,2646,
scooby_state_56112c14a226|2|2 1992,12,11,8,2,6,1,3,5,5,5,11,1,6,561,2629,
scooby_state_56112c14a226|58|2 1933,13,10,7,7,4,9,1,6,4,3,13,11,3,598,2622,
scooby_state_56112c14a226|46|2 1944,4,11,8,10,10,3,6,4,5,3,9,3,5,594,2619,
scooby_state_56112c14a226|5|2 1936,13,6,12,8,3,7,3,3,4,4,7,7,1,594,2608,
scooby_state_56112c14a226|9|2 1918,8,11,7,7,7,4,7,6,4,2,8,8,4,607,2608,
scooby_state_56112c14a226|41|2 1931,11,5,8,6,8,5,3,2,6,8,11,1,3,583,2591,
scooby_state_56112c14a226|51|2 1880,8,13,7,10,4,8,5,4,5,1,14,7,3,621,2590,
scooby_state_56112c14a226|37|2 1939,6,8,12,7,5,3,3,5,6,4,7,3,2,579,2589,
scooby_state_56112c14a226|19|2 1921,11,10,5,7,8,4,6,1,4,3,8,3,6,587,2584,
scooby_state_56112c14a226|21|2 1930,10,7,7,3,8,8,6,6,4,3,8,6,6,571,2583,
scooby_state_56112c14a226|25|2 1929,7,6,12,6,3,5,3,6,9,4,9,4,2,573,2578,
scooby_state_56112c14a226|38|2 1917,6,12,7,9,5,5,3,5,5,1,7,4,6,560,2552,
scooby_state_56112c14a226|18|2 1944,7,9,7,7,2,2,3,6,1,3,12,5,2,538,2548,
scooby_state_56112c14a226|6|2 1889,10,10,5,9,6,1,3,9,4,1,10,3,9,577,2546,
scooby_state_56112c14a226|10|2 1883,7,9,9,7,6,5,4,3,5,1,16,2,2,585,2544,
scooby_state_56112c14a226|36|2 1859,5,7,6,9,10,6,6,6,6,0,12,1,4,601,2538,
scooby_state_56112c14a226|50|2 1897,8,9,6,9,5,8,4,4,3,6,12,6,4,554,2535,
scooby_state_56112c14a226|29|2 1883,7,11,4,3,3,6,4,8,4,1,9,6,2,584,2535,
scooby_state_56112c14a226|35|2 1945,6,12,8,7,8,5,0,7,0,3,10,1,5,518,2535,
scooby_state_56112c14a226|17|2 1898,10,8,9,9,2,3,6,2,3,2,9,4,3,563,2531,
scooby_state_56112c14a226|49|3 1807,8,10,7,5,1,5,8,3,5,5,14,5,16,630,2529,
scooby_state_56112c14a226|60|2 1839,11,12,9,8,6,4,5,4,5,4,10,5,3,597,2522,
scooby_state_56112c14a226|45|2 1890,6,12,6,4,9,7,7,8,5,5,9,7,2,542,2519,
scooby_state_56112c14a226|61|2 1812,12,8,7,4,8,6,4,4,3,1,13,2,7,625,2516,
scooby_state_56112c14a226|34|2 1891,10,12,4,12,4,2,2,3,4,3,3,3,4,544,2501,
scooby_state_56112c14a226|49|2 1854,13,14,9,5,2,6,8,2,4,3,11,8,0,556,2495,
scooby_state_56112c14a226|23|2 1878,7,3,9,4,2,6,6,8,5,6,8,5,7,535,2489,
scooby_state_56112c14a226|43|2 1863,9,8,7,6,8,3,4,7,5,3,6,4,4,545,2482,
scooby_state_56112c14a226|8|2 1821,9,11,11,4,5,7,6,7,1,1,13,5,1,574,2476,
scooby_state_56112c14a226|62|2 1821,8,8,4,9,7,5,5,5,3,5,6,2,6,579,2473,
scooby_state_56112c14a226|39|2 1877,5,7,4,5,7,7,2,6,4,3,15,3,1,526,2472,
scooby_state_56112c14a226|14|2 1837,13,7,5,7,3,3,3,7,4,1,7,5,6,556,2464,
scooby_state_56112c14a226|56|2 1827,10,7,10,1,2,3,4,2,4,3,13,5,6,562,2459,
scooby_state_56112c14a226|53|2 1837,4,16,7,4,7,3,8,3,5,6,5,5,4,540,2454,
scooby_state_56112c14a226|57|2 1786,7,8,10,7,5,7,3,3,4,3,7,4,4,594,2452,
scooby_state_56112c14a226|22|3 1757,8,10,6,7,5,4,3,6,3,1,8,7,13,614,2452,
scooby_state_56112c14a226|16|2 1817,6,7,13,7,10,4,7,5,4,2,7,2,3,557,2451,
scooby_state_56112c14a226|46|3 1755,4,9,6,4,2,5,7,2,4,5,7,6,15,619,2450,
scooby_state_56112c14a226|33|2 1851,6,12,7,8,10,2,7,5,3,1,13,3,7,513,2448,
scooby_state_56112c14a226|12|2 1833,7,9,6,4,6,3,0,4,3,3,7,2,2,548,2437,
scooby_state_56112c14a226|52|2 1775,8,6,7,7,5,3,3,4,4,6,10,9,5,564,2416,
scooby_state_56112c14a226|32|2 1794,6,6,8,14,8,1,1,5,5,3,11,4,4,524,2394,
scooby_state_56112c14a226|15|3 1753,9,7,4,8,2,2,4,2,5,4,15,7,11,561,2394,
scooby_state_56112c14a226|3|2 1780,8,11,8,6,7,4,5,6,4,4,10,4,3,531,2391,
scooby_state_56112c14a226|42|2 1787,4,6,6,5,6,2,5,3,6,4,7,5,6,516,2368,
scooby_state_56112c14a226|44|2 1796,5,6,6,6,6,4,5,4,5,2,7,3,4,497,2356,
scooby_state_56112c14a226|5|3 1718,7,7,4,1,10,3,0,3,6,1,14,2,21,553,2350,
scooby_state_56112c14a226|63|3 1704,4,9,10,4,9,2,3,4,3,2,7,4,18,557,2340,
scooby_state_56112c14a226|30|3 1725,6,7,7,9,5,7,5,5,2,0,6,3,17,534,2338,
scooby_state_56112c14a226|26|2 1780,6,9,9,3,4,4,1,2,5,1,14,3,3,487,2331,
scooby_state_56112c14a226|20|2 1741,6,7,5,7,6,5,7,5,5,4,9,4,4,515,2330,
scooby_state_56112c14a226|59|2 1723,5,7,12,8,7,5,4,7,4,2,3,4,4,535,2330,
scooby_state_56112c14a226|11|2 1754,7,11,6,9,5,6,4,5,5,4,6,4,3,501,2330,
scooby_state_56112c14a226|30|2 1730,10,10,5,6,5,2,4,5,5,1,15,6,2,507,2313,
scooby_state_56112c14a226|56|3 1682,7,8,3,6,2,7,4,3,5,4,8,4,15,551,2309,
scooby_state_56112c14a226|40|3 1681,5,12,3,4,4,5,4,4,3,3,11,5,17,547,2308,
scooby_state_56112c14a226|54|2 1682,11,7,7,3,5,4,4,6,2,2,7,5,9,552,2306,
scooby_state_56112c14a226|25|3 1705,8,12,2,8,2,8,1,1,4,1,4,6,22,521,2305,
scooby_state_56112c14a226|28|2 1747,3,5,9,4,5,5,6,1,4,1,13,3,3,488,2297,
scooby_state_56112c14a226|7|2 1699,7,6,9,12,6,2,3,5,1,5,5,8,5,519,2292,
scooby_state_56112c14a226|47|2 1710,13,6,5,10,4,5,2,6,7,2,8,4,2,492,2276,
scooby_state_56112c14a226|9|3 1632,3,11,3,3,2,3,3,11,3,1,9,3,19,569,2275,
scooby_state_56112c14a226|34|3 1689,8,10,8,3,8,1,2,2,2,5,15,3,19,499,2274,
scooby_state_56112c14a226|4|2 1677,6,8,6,6,3,4,3,4,4,2,9,5,7,525,2269,
scooby_state_56112c14a226|58|3 1588,4,9,4,11,16,5,4,6,5,4,10,1,11,579,2257,
scooby_state_56112c14a226|27|3 1621,8,10,10,4,5,6,4,2,4,3,9,3,13,544,2246,
scooby_state_56112c14a226|52|3 1646,6,6,3,7,5,7,2,4,3,3,12,2,10,520,2236,
scooby_state_56112c14a226|13|3 1612,9,8,5,5,7,6,3,3,2,2,12,6,12,544,2236,
scooby_state_56112c14a226|21|3 1628,9,7,7,7,5,2,1,5,4,0,5,2,15,535,2232,
scooby_state_56112c14a226|3|3 1587,3,9,7,6,4,6,5,7,4,4,8,7,14,534,2205,
scooby_state_56112c14a226|23|3 1644,4,12,4,4,1,5,5,1,2,3,3,3,10,493,2194,
scooby_state_56112c14a226|37|3 1603,8,12,8,7,6,5,1,6,5,1,15,0,8,506,2191,
scooby_state_56112c14a226|7|3 1537,11,11,6,1,9,9,5,4,2,3,7,2,7,558,2172,
scooby_state_56112c14a226|41|3 1563,4,13,5,5,5,4,7,7,2,4,6,2,7,529,2163,
scooby_state_56112c14a226|53|3 1535,8,12,3,6,6,8,4,7,4,4,12,7,9,529,2154,
scooby_state_56112c14a226|26|3 1592,4,10,5,5,6,5,1,2,2,4,5,7,12,491,2151,
scooby_state_56112c14a226|61|3 1525,7,9,3,5,8,5,5,2,3,2,14,7,21,523,2139,
scooby_state_56112c14a226|18|3 1556,5,14,6,3,6,3,5,3,5,1,7,7,14,504,2139,
scooby_state_56112c14a226|54|3 1507,3,13,4,6,7,10,5,5,5,4,7,5,12,532,2125,
scooby_state_56112c14a226|51|3 1528,8,15,4,3,7,7,6,5,2,1,9,7,10,511,2123,
scooby_state_56112c14a226|33|3 1559,10,10,6,3,5,3,5,1,2,6,11,4,9,484,2118,
scooby_state_56112c14a226|28|3 1559,7,8,3,3,4,8,2,2,1,3,12,5,8,491,2116,
scooby_state_56112c14a226|24|3 1515,4,4,7,7,7,7,6,3,3,2,6,5,19,511,2106,
scooby_state_56112c14a226|8|3 1516,6,9,5,6,3,5,1,6,3,1,6,3,14,520,2104,
scooby_state_56112c14a226|6|3 1528,3,9,3,7,4,2,1,5,3,2,9,3,12,509,2100,
scooby_state_56112c14a226|42|3 1561,2,8,2,5,2,4,2,3,3,3,6,3,17,476,2097,
scooby_state_56112c14a226|43|3 1552,5,9,5,4,2,6,3,3,4,2,5,3,9,464,2076,
scooby_state_56112c14a226|19|3 1532,4,9,10,9,3,1,6,2,3,2,8,2,9,471,2071,
scooby_state_56112c14a226|11|3 1495,7,8,7,6,3,6,3,3,3,1,8,3,17,489,2059,
scooby_state_56112c14a226|32|3 1531,4,10,8,7,4,6,2,7,2,3,9,4,19,435,2051,
scooby_state_56112c14a226|10|3 1524,8,11,6,7,2,4,2,5,2,3,10,3,14,437,2038,
scooby_state_56112c14a226|16|3 1479,8,7,6,2,3,6,3,3,4,3,9,6,10,488,2037,
scooby_state_56112c14a226|20|3 1554,3,8,5,5,6,5,5,1,1,2,5,3,10,421,2034,
scooby_state_56112c14a226|12|3 1467,5,2,8,2,2,3,4,4,5,0,13,2,10,507,2034,
scooby_state_56112c14a226|59|3 1474,9,10,8,5,7,5,1,7,3,3,11,4,9,472,2028,
scooby_state_56112c14a226|48|3 1482,6,10,5,2,7,8,3,1,1,2,6,3,13,472,2021,
scooby_state_56112c14a226|62|3 1406,8,15,3,4,4,5,3,3,4,2,11,3,14,528,2013,
scooby_state_56112c14a226|31|3 1494,5,7,5,4,6,6,3,2,1,1,9,4,12,440,1999,
scooby_state_56112c14a226|44|3 1474,3,6,3,6,4,6,2,1,2,2,9,4,11,464,1997,
scooby_state_56112c14a226|24|4 1445,11,4,11,10,10,8,7,4,1,5,13,6,5,442,1982,
scooby_state_56112c14a226|36|3 1463,11,6,3,8,6,6,4,6,4,4,5,4,11,440,1981,
scooby_state_56112c14a226|29|3 1430,5,10,1,2,4,1,2,7,2,3,4,3,12,478,1964,
scooby_state_56112c14a226|14|3 1412,4,8,7,5,5,3,0,3,1,5,13,4,6,479,1955,
scooby_state_56112c14a226|47|3 1412,4,9,8,3,2,5,3,0,3,0,7,7,10,469,1942,
scooby_state_56112c14a226|22|4 1383,7,7,8,10,7,2,4,5,3,7,11,6,6,465,1931,
scooby_state_56112c14a226|41|4 1385,6,6,5,4,5,3,7,3,6,3,9,5,8,476,1931,
scooby_state_56112c14a226|60|3 1397,5,12,3,5,6,1,5,4,4,1,6,6,10,466,1931,
scooby_state_56112c14a226|45|3 1411,5,6,1,3,2,6,5,2,5,5,9,8,12,447,1927,
scooby_state_56112c14a226|37|4 1377,13,4,9,6,7,7,5,7,8,8,8,7,3,454,1923,
scooby_state_56112c14a226|33|4 1352,11,9,10,9,7,7,7,3,2,7,4,5,8,479,1920,
scooby_state_56112c14a226|38|3 1405,2,6,5,5,2,8,3,6,3,2,12,3,12,445,1919,
scooby_state_56112c14a226|12|4 1373,10,6,14,5,10,6,7,5,5,1,3,3,8,454,1910,
scooby_state_56112c14a226|17|3 1424,6,8,4,5,1,5,4,2,0,4,7,4,11,421,1906,
scooby_state_56112c14a226|35|3 1398,2,8,5,3,2,7,2,9,5,2,5,0,10,440,1898,
scooby_state_56112c14a226|4|3 1356,5,15,4,1,6,5,4,2,1,3,8,7,12,458,1887,
scooby_state_56112c14a226|45|4 1321,10,6,2,4,10,8,10,10,4,7,4,5,7,478,1886,
scooby_state_56112c14a226|62|4 1266,11,11,6,9,6,2,7,4,5,3,5,7,5,530,1877,
scooby_state_56112c14a226|19|4 1353,6,4,9,10,7,8,5,7,3,3,9,5,6,432,1867,
scooby_state_56112c14a226|39|3 1385,4,5,3,5,1,2,3,4,3,4,7,6,9,418,1859,
scooby_state_56112c14a226|14|4 1319,11,3,10,6,6,9,6,4,3,2,8,7,7,452,1853,
scooby_state_56112c14a226|60|4 1324,9,9,4,4,7,11,3,3,3,4,7,5,3,452,1848,
scooby_state_56112c14a226|20|5 1303,7,11,8,2,10,1,2,9,4,3,8,4,4,462,1838,
scooby_state_56112c14a226|11|4 1271,9,12,9,9,7,10,9,6,0,1,13,6,8,465,1835,
scooby_state_56112c14a226|46|4 1293,4,8,10,10,10,2,3,6,3,3,5,2,3,467,1829,
scooby_state_56112c14a226|53|4 1306,8,8,10,6,4,7,7,3,2,3,9,4,1,449,1827,
scooby_state_56112c14a226|55|4 1271,11,5,11,7,11,3,7,4,1,2,16,6,5,457,1817,
scooby_state_56112c14a226|10|4 1280,10,10,7,3,12,8,4,5,1,6,13,1,4,441,1805,
scooby_state_56112c14a226|57|3 1306,6,10,4,8,7,4,2,4,2,4,7,5,11,420,1800,
scooby_state_56112c14a226|27|4 1322,5,4,5,9,5,3,3,6,2,3,0,8,6,418,1799,
scooby_state_56112c14a226|55|3 1279,7,8,4,3,6,2,2,6,1,2,12,3,15,449,1799,
scooby_state_56112c14a226|50|4 1284,4,4,12,5,8,4,1,2,4,5,9,4,3,446,1795,
scooby_state_56112c14a226|36|4 1300,8,2,8,5,3,11,5,4,4,6,10,6,3,418,1793,
scooby_state_56112c14a226|19|5 1278,9,13,8,4,0,6,3,2,4,5,5,3,6,442,1788,
scooby_state_56112c14a226|30|4 1271,7,5,6,3,9,6,2,4,0,3,7,6,7,438,1774,
scooby_state_56112c14a226|4|4 1230,7,7,5,9,10,6,8,9,5,10,6,8,5,442,1767,
scooby_state_56112c14a226|18|4 1280,8,2,5,5,6,6,4,5,1,7,5,6,2,420,1762,
scooby_state_56112c14a226|26|4 1259,5,2,6,6,9,5,1,7,3,6,8,12,6,426,1761,
scooby_state_56112c14a226|15|4 1261,7,4,5,5,11,6,5,5,2,1,11,4,3,430,1760,
scooby_state_56112c14a226|21|4 1277,8,2,8,2,3,4,5,2,0,3,4,2,6,432,1758,
scooby_state_56112c14a226|34|4 1263,12,8,6,8,5,6,2,6,5,3,5,3,4,422,1758,
scooby_state_56112c14a226|43|4 1255,13,7,4,5,5,2,5,3,4,3,4,7,5,427,1749,
scooby_state_56112c14a226|52|4 1231,11,3,13,5,9,3,2,7,4,5,5,7,4,440,1749,
scooby_state_56112c14a226|13|4 1266,5,2,7,5,6,7,6,2,2,8,6,4,5,416,1747,
scooby_state_56112c14a226|7|4 1222,11,4,5,9,8,9,4,8,3,4,3,3,5,443,1741,
scooby_state_56112c14a226|50|3 1258,5,10,7,3,4,2,5,2,5,2,5,2,8,421,1739,
scooby_state_56112c14a226|28|4 1251,6,4,7,2,8,6,4,5,3,2,9,9,2,418,1736,
scooby_state_56112c14a226|31|4 1235,9,7,6,7,5,7,1,7,5,6,9,4,8,408,1724,
scooby_state_56112c14a226|6|4 1235,10,7,2,1,13,11,4,5,3,6,3,4,4,412,1720,
scooby_state_56112c14a226|8|4 1246,10,4,9,6,4,4,4,4,0,5,8,2,1,412,1719,
scooby_state_56112c14a226|29|4 1252,2,3,6,7,5,7,4,4,5,7,3,3,3,405,1716,
scooby_state_56112c14a226|63|4 1211,10,4,5,4,7,6,7,8,4,3,6,6,6,421,1708,
scooby_state_56112c14a226|46|5 1199,4,10,4,6,8,10,1,4,1,3,9,8,5,431,1703,
scooby_state_56112c14a226|37|5 1226,8,11,6,9,5,1,3,2,2,5,3,6,6,405,1698,
scooby_state_56112c14a226|17|4 1248,9,2,6,4,6,4,7,1,4,6,8,7,3,381,1696,
scooby_state_56112c14a226|5|4 1182,8,8,7,3,5,8,4,7,4,5,6,8,1,437,1693,
scooby_state_56112c14a226|48|4 1175,6,5,10,5,4,8,3,5,3,3,14,6,3,443,1693,
scooby_state_56112c14a226|58|5 1203,6,12,4,8,5,4,2,3,4,3,7,3,3,424,1691,
scooby_state_56112c14a226|61|4 1198,9,8,3,6,9,2,4,2,1,7,6,8,4,418,1685,
scooby_state_56112c14a226|38|4 1197,6,12,5,2,4,5,1,6,4,3,8,7,2,415,1677,
scooby_state_56112c14a226|47|4 1229,4,6,9,7,2,9,4,5,2,3,4,6,3,377,1670,
scooby_state_56112c14a226|25|4 1198,6,1,4,3,4,4,6,5,5,6,7,2,5,406,1662,
scooby_state_56112c14a226|39|4 1226,10,4,2,6,6,5,7,3,5,5,9,4,5,362,1659,
scooby_state_56112c14a226|32|4 1170,4,5,7,6,2,6,4,6,4,1,5,7,2,427,1656,
scooby_state_56112c14a226|56|4 1198,10,5,7,8,7,4,3,4,3,4,6,6,2,386,1653,
scooby_state_56112c14a226|16|4 1208,1,5,5,0,7,4,5,2,3,2,7,3,2,396,1650,
scooby_state_56112c14a226|58|4 1155,5,5,8,6,6,5,2,2,6,2,9,8,5,425,1649,
scooby_state_56112c14a226|44|4 1179,4,3,9,10,4,7,5,2,4,8,5,6,4,397,1647,
scooby_state_56112c14a226|39|5 1180,9,8,8,2,3,0,1,3,1,0,13,6,3,406,1643,
scooby_state_56112c14a226|22|5 1158,2,8,3,2,9,3,2,5,3,1,5,5,2,432,1640,
scooby_state_56112c14a226|57|4 1164,9,5,6,4,7,5,10,8,4,5,7,3,0,402,1639,
scooby_state_56112c14a226|23|4 1196,3,6,4,4,3,3,3,4,8,5,9,6,3,381,1638,
scooby_state_56112c14a226|59|4 1161,1,4,9,13,5,10,3,5,4,3,4,6,5,400,1633,
scooby_state_56112c14a226|40|4 1156,5,6,10,4,5,5,4,7,5,6,8,1,4,393,1619,
scooby_state_56112c14a226|42|4 1151,5,3,3,4,8,2,7,4,2,5,5,3,5,411,1618,
scooby_state_56112c14a226|34|5 1139,5,9,4,6,4,4,2,1,0,3,14,8,1,414,1614,
scooby_state_56112c14a226|48|5 1111,10,8,6,7,8,2,2,6,4,2,3,4,5,435,1613,
scooby_state_56112c14a226|35|4 1187,8,4,4,4,8,7,8,2,2,4,11,5,1,356,1611,
scooby_state_56112c14a226|25|5 1139,6,8,5,8,4,3,3,0,1,3,8,5,2,404,1599,
scooby_state_56112c14a226|51|4 1167,6,5,8,9,4,8,5,1,3,5,4,4,4,366,1599,
scooby_state_56112c14a226|20|4 1146,7,2,8,5,4,5,4,1,4,4,8,5,3,392,1598,
scooby_state_56112c14a226|6|5 1125,3,9,6,8,7,0,2,3,3,3,4,4,5,415,1597,
scooby_state_56112c14a226|49|4 1135,8,7,4,5,11,6,3,6,4,3,8,9,3,375,1587,
scooby_state_56112c14a226|12|5 1127,8,9,2,2,2,7,0,6,3,3,8,6,2,395,1580,
scooby_state_56112c14a226|9|4 1119,8,7,4,6,7,4,3,4,2,2,4,3,2,405,1580,
scooby_state_56112c14a226|27|5 1122,6,10,5,5,4,3,6,4,2,2,8,2,5,393,1577,
scooby_state_56112c14a226|15|5 1089,6,6,7,8,0,3,9,5,3,4,8,6,3,419,1576,
scooby_state_56112c14a226|45|5 1088,11,9,4,8,2,3,4,1,0,5,8,7,5,414,1569,
scooby_state_56112c14a226|42|5 1135,6,7,9,7,4,1,1,1,1,5,5,3,3,380,1568,
scooby_state_56112c14a226|56|5 1118,5,9,8,9,8,4,1,4,1,4,6,3,5,377,1562,
scooby_state_56112c14a226|40|6 1094,8,15,7,6,6,1,7,2,1,2,7,2,0,404,1562,
scooby_state_56112c14a226|60|5 1080,11,9,8,7,5,6,10,2,3,4,8,2,5,401,1561,
scooby_state_56112c14a226|13|5 1116,3,10,5,2,4,4,4,6,4,5,4,7,0,381,1555,
scooby_state_56112c14a226|43|6 1053,8,7,9,6,8,4,1,1,3,5,8,1,5,433,1552,
scooby_state_56112c14a226|53|5 1067,10,11,2,8,7,2,3,6,2,4,7,7,3,409,1548,
scooby_state_56112c14a226|29|5 1112,4,10,4,7,7,2,5,3,5,2,7,0,5,374,1547,
scooby_state_56112c14a226|51|5 1084,4,5,1,5,6,5,3,1,2,1,5,4,3,413,1542,
scooby_state_56112c14a226|33|5 1105,6,11,9,4,3,4,0,2,0,1,3,6,0,376,1530,
scooby_state_56112c14a226|54|5 1070,5,3,6,4,5,4,4,0,2,3,13,5,3,403,1530,
scooby_state_56112c14a226|8|5 1063,4,11,8,5,5,1,4,2,2,1,11,3,0,407,1527,
scooby_state_56112c14a226|32|5 1071,8,8,4,3,3,3,4,4,3,2,6,6,8,390,1523,
scooby_state_56112c14a226|38|5 1076,3,16,4,6,9,4,1,2,3,4,8,4,5,377,1522,
scooby_state_56112c14a226|41|5 1069,2,6,3,3,6,5,1,3,4,3,4,4,2,403,1518,
scooby_state_56112c14a226|33|6 1087,8,6,6,9,9,3,4,2,2,5,7,1,4,361,1514,
scooby_state_56112c14a226|54|4 1078,8,2,3,9,5,6,4,4,2,6,6,2,5,370,1510,
scooby_state_56112c14a226|10|5 1073,4,7,1,7,7,6,2,0,2,0,3,3,10,378,1503,
scooby_state_56112c14a226|18|5 1056,6,7,5,4,3,6,3,6,3,3,8,3,3,367,1483,
scooby_state_56112c14a226|11|5 1038,8,11,6,2,3,3,1,4,4,1,7,4,2,388,1482,
scooby_state_56112c14a226|62|6 1034,7,13,6,6,7,4,3,1,3,1,9,0,4,383,1481,
scooby_state_56112c14a226|21|5 1055,6,7,8,4,2,5,2,1,3,3,6,4,3,372,1481,
scooby_state_56112c14a226|53|7 1001,9,11,5,9,4,7,4,2,6,8,8,6,7,389,1476,
scooby_state_56112c14a226|50|5 1025,6,9,4,7,0,2,3,2,2,5,8,7,1,392,1473,
scooby_state_56112c14a226|43|5 1032,1,10,5,1,3,6,1,9,0,0,8,6,6,376,1464,
scooby_state_56112c14a226|20|6 1052,7,6,6,5,3,2,3,3,2,1,6,2,3,357,1458,
scooby_state_56112c14a226|52|5 1011,11,5,4,6,1,1,3,4,2,2,4,5,2,392,1453,
scooby_state_56112c14a226|61|5 1003,5,7,5,2,6,4,1,3,3,2,13,3,1,389,1447,
scooby_state_56112c14a226|55|5 1005,6,12,3,4,5,2,4,1,4,3,6,3,4,381,1443,
scooby_state_56112c14a226|26|5 1033,6,5,6,2,3,4,2,1,4,2,5,4,4,361,1442,
scooby_state_56112c14a226|63|5 971,7,11,7,4,1,3,1,0,4,2,6,4,1,416,1438,
scooby_state_56112c14a226|13|6 1012,6,12,9,6,1,5,1,4,2,3,6,4,7,359,1437,
scooby_state_56112c14a226|24|5 1043,8,9,5,4,3,1,1,3,2,3,9,5,3,337,1436,
scooby_state_56112c14a226|34|6 1037,5,12,8,4,6,5,2,3,3,1,2,0,4,337,1429,
scooby_state_56112c14a226|44|7 1014,5,11,4,5,3,3,5,9,5,1,10,4,12,338,1429,
scooby_state_56112c14a226|11|6 985,7,9,11,3,6,1,4,2,2,3,4,1,2,388,1428,
scooby_state_56112c14a226|39|6 996,3,7,9,5,6,5,4,5,5,1,6,1,2,363,1418,
scooby_state_56112c14a226|49|5 997,5,15,8,3,1,2,4,2,1,3,8,2,2,357,1410,
scooby_state_56112c14a226|31|5 984,4,6,5,3,2,3,5,2,1,3,7,0,5,374,1404,
scooby_state_56112c14a226|5|5 994,4,14,4,4,2,2,3,1,3,2,3,2,5,360,1403,
scooby_state_56112c14a226|35|6 987,10,5,3,3,9,1,7,5,2,3,6,2,4,354,1401,
scooby_state_56112c14a226|17|6 979,7,6,3,2,10,4,5,7,2,2,4,3,0,366,1400,
scooby_state_56112c14a226|59|5 956,5,10,10,6,5,6,1,2,4,2,5,2,4,379,1397,
scooby_state_56112c14a226|29|7 972,7,12,3,7,11,8,5,5,1,6,6,7,8,338,1396,
scooby_state_56112c14a226|28|5 991,3,8,2,3,2,2,4,1,0,5,7,5,1,359,1393,
scooby_state_56112c14a226|14|5 986,7,7,1,4,5,1,1,4,0,0,6,5,4,361,1392,
scooby_state_56112c14a226|23|5 950,10,8,4,5,0,4,1,2,3,2,7,3,0,388,1387,
scooby_state_56112c14a226|15|6 942,2,5,12,0,6,5,4,2,1,4,6,1,3,393,1386,
scooby_state_56112c14a226|7|7 962,15,9,8,7,6,3,5,4,5,5,5,4,5,342,1385,
scooby_state_56112c14a226|44|5 951,4,9,14,4,5,7,2,2,1,7,10,6,5,355,1382,
scooby_state_56112c14a226|37|6 958,4,7,3,2,0,1,4,7,3,3,5,0,5,379,1381,
scooby_state_56112c14a226|6|6 948,5,12,3,5,7,4,5,3,1,3,2,3,7,368,1376,
scooby_state_56112c14a226|62|5 974,4,9,3,5,3,3,4,4,2,1,3,4,3,352,1374,
scooby_state_56112c14a226|57|5 931,5,12,6,3,6,2,4,2,1,1,4,3,7,380,1367,
scooby_state_56112c14a226|34|7 939,10,9,7,5,2,8,2,4,4,6,12,8,5,345,1366,
scooby_state_56112c14a226|21|6 965,6,10,4,2,3,4,6,6,2,2,5,0,0,350,1365,
scooby_state_56112c14a226|40|5 991,7,10,8,3,4,5,3,1,1,2,3,3,2,321,1364,
scooby_state_56112c14a226|9|5 961,9,7,5,8,4,1,2,2,5,1,8,3,1,346,1363,
scooby_state_56112c14a226|61|6 948,3,16,7,3,3,2,3,3,2,0,7,2,4,357,1360,
scooby_state_56112c14a226|51|6 928,10,10,5,3,7,2,1,2,1,1,2,1,7,379,1359,
scooby_state_56112c14a226|22|6 966,5,9,4,2,6,5,3,0,1,1,6,1,2,344,1355,
scooby_state_56112c14a226|63|6 912,2,11,10,6,3,5,3,9,2,3,8,0,5,370,1349,
scooby_state_56112c14a226|55|7 926,5,9,3,10,5,4,6,4,3,1,6,3,1,360,1346,
scooby_state_56112c14a226|47|5 922,6,3,8,1,4,5,4,5,1,3,5,5,2,368,1342,
scooby_state_56112c14a226|41|6 935,2,8,7,2,5,3,5,6,2,3,9,2,2,349,1340,
scooby_state_56112c14a226|56|6 909,12,7,6,3,4,3,3,5,1,3,6,2,3,373,1340,
scooby_state_56112c14a226|46|7 936,4,4,8,10,4,2,4,3,6,5,7,3,4,338,1338,
scooby_state_56112c14a226|46|6 927,3,5,9,3,6,5,6,4,0,4,5,1,5,354,1337,
scooby_state_56112c14a226|25|6 938,7,10,3,2,10,1,1,6,1,2,6,0,1,349,1337,
scooby_state_56112c14a226|59|6 919,11,8,7,6,6,4,5,5,6,1,4,2,1,352,1337,
scooby_state_56112c14a226|7|5 926,3,14,3,3,3,4,1,0,3,2,6,2,6,361,1337,
scooby_state_56112c14a226|14|6 961,5,10,6,3,7,2,2,5,0,2,2,0,5,327,1337,
scooby_state_56112c14a226|38|6 941,5,4,6,4,0,2,5,5,3,1,6,1,2,349,1334,
scooby_state_56112c14a226|24|6 965,6,13,2,3,1,4,2,1,1,1,8,2,3,318,1330,
scooby_state_56112c14a226|29|6 947,8,8,9,3,5,4,3,6,1,2,5,0,4,324,1329,
scooby_state_56112c14a226|30|5 949,6,3,3,9,7,3,4,4,1,3,6,4,5,318,1325,
scooby_state_56112c14a226|54|6 911,7,9,6,4,5,1,3,2,4,1,5,2,2,361,1323,
scooby_state_56112c14a226|36|5 965,6,4,6,2,3,2,3,3,5,1,5,2,3,311,1321,
scooby_state_56112c14a226|18|6 896,7,8,4,3,3,5,4,1,3,1,9,0,4,372,1320,
scooby_state_56112c14a226|10|7 888,8,11,2,6,5,6,6,4,3,3,10,2,10,354,1318,
scooby_state_56112c14a226|10|6 919,6,16,8,2,4,3,4,2,0,1,4,2,0,345,1316,
scooby_state_56112c14a226|19|6 929,7,4,10,1,6,2,0,4,1,2,5,2,1,342,1316,
scooby_state_56112c14a226|27|6 923,6,4,7,6,2,4,3,2,1,6,3,3,2,340,1312,
scooby_state_56112c14a226|48|7 905,10,4,4,6,6,5,3,7,5,6,7,2,5,336,1311,
scooby_state_56112c14a226|12|6 933,4,11,7,7,4,2,3,3,1,2,4,2,1,326,1310,
scooby_state_56112c14a226|55|6 895,8,11,7,1,4,3,3,3,7,2,9,3,2,352,1310,
scooby_state_56112c14a226|53|6 897,6,7,6,6,5,6,2,0,2,1,5,1,7,357,1308,
scooby_state_56112c14a226|8|6 916,9,7,6,5,7,3,2,5,1,0,5,0,4,332,1302,
scooby_state_56112c14a226|16|5 931,9,6,6,2,2,3,4,1,3,1,3,2,4,319,1296,
scooby_state_56112c14a226|60|7 880,7,7,7,7,7,7,6,2,2,6,11,3,6,337,1295,
scooby_state_56112c14a226|60|6 879,7,4,8,5,9,2,3,4,2,1,1,1,6,360,1292,
scooby_state_56112c14a226|31|6 911,4,9,4,4,1,8,2,4,5,1,7,1,3,318,1282,
scooby_state_56112c14a226|52|6 906,8,8,4,9,3,4,1,2,1,4,8,2,2,320,1282,
scooby_state_56112c14a226|30|6 899,6,13,10,5,3,3,3,4,3,0,4,0,3,309,1265,
scooby_state_56112c14a226|11|7 844,7,10,8,5,5,7,2,9,2,2,4,7,3,346,1261,
scooby_state_56112c14a226|20|7 868,7,5,5,7,10,9,9,5,2,4,7,7,5,309,1259,
scooby_state_56112c14a226|35|5 920,8,9,4,0,2,2,2,2,2,4,2,3,2,293,1255,
scooby_state_56112c14a226|16|6 890,1,9,2,9,0,4,1,1,2,0,8,1,2,320,1250,
scooby_state_56112c14a226|44|6 888,7,6,6,8,4,2,1,6,0,3,9,0,0,309,1249,
scooby_state_56112c14a226|15|7 865,4,7,9,3,4,6,5,6,7,4,4,4,4,315,1247,
scooby_state_56112c14a226|58|7 827,7,7,9,10,4,6,2,5,5,1,7,6,7,339,1242,
scooby_state_56112c14a226|36|6 895,5,8,2,2,6,5,4,3,1,4,5,1,4,296,1241,
scooby_state_56112c14a226|23|6 878,2,6,2,2,4,3,3,5,3,2,3,3,2,312,1230,
scooby_state_56112c14a226|32|6 851,7,2,6,3,5,4,0,2,1,3,1,0,1,342,1228,
scooby_state_56112c14a226|45|6 854,7,9,9,7,6,1,5,4,4,2,2,2,1,315,1228,
scooby_state_56112c14a226|17|5 907,2,7,5,2,5,2,3,0,3,1,6,3,3,276,1225,
scooby_state_56112c14a226|58|6 842,5,10,6,3,2,7,5,3,2,4,6,1,2,323,1221,
scooby_state_56112c14a226|42|6 849,7,9,7,2,7,4,2,6,3,1,5,3,3,313,1221,
scooby_state_56112c14a226|27|7 856,11,7,8,6,5,5,2,1,3,3,7,3,7,291,1215,
scooby_state_56112c14a226|13|7 840,4,8,6,5,5,5,4,5,5,1,6,0,5,316,1215,
scooby_state_56112c14a226|22|7 833,4,3,8,11,7,9,1,5,2,3,8,2,3,312,1211,
scooby_state_56112c14a226|63|7 833,6,7,7,11,6,1,5,8,4,7,5,7,6,298,1211,
scooby_state_56112c14a226|26|7 843,8,8,10,7,4,6,3,6,5,1,10,4,4,290,1209,
scooby_state_56112c14a226|40|7 858,6,8,5,10,1,2,1,0,0,3,6,4,4,298,1206,
scooby_state_56112c14a226|32|7 819,6,7,7,5,4,4,3,4,2,5,5,12,6,315,1204,
scooby_state_56112c14a226|49|6 834,4,10,8,6,3,2,3,2,3,4,8,1,4,311,1203,
scooby_state_56112c14a226|28|6 846,5,7,6,1,3,1,2,4,3,1,3,1,1,318,1202,
scooby_state_56112c14a226|57|6 823,11,10,6,3,3,4,3,4,2,1,4,1,2,319,1196,
scooby_state_56112c14a226|37|8 838,6,6,3,6,7,6,6,3,2,5,8,5,8,283,1192,
scooby_state_56112c14a226|8|8 796,6,9,10,5,7,8,6,5,2,4,5,6,4,316,1189,
scooby_state_56112c14a226|47|6 818,0,10,4,3,5,1,4,0,2,2,6,1,3,329,1188,
scooby_state_56112c14a226|50|6 829,5,10,8,2,6,4,3,1,2,1,3,0,2,311,1187,
scooby_state_56112c14a226|7|6 842,7,5,8,2,4,3,3,4,2,3,2,2,1,292,1180,
scooby_state_56112c14a226|12|7 836,5,6,4,6,5,2,7,4,3,3,5,2,9,282,1179,
scooby_state_56112c14a226|48|6 817,1,9,12,1,6,5,1,2,2,2,9,1,3,306,1177,
scooby_state_56112c14a226|56|7 808,3,8,8,9,2,2,3,6,0,5,8,5,5,302,1174,
scooby_state_56112c14a226|21|7 792,2,5,7,8,9,5,10,2,5,3,2,9,10,304,1173,
scooby_state_56112c14a226|51|7 805,6,8,7,6,5,8,2,4,3,3,6,3,9,294,1169,
scooby_state_56112c14a226|47|7 798,9,4,5,6,8,5,5,4,6,3,12,4,7,291,1167,
scooby_state_56112c14a226|25|7 817,5,10,6,7,6,6,4,7,3,4,7,3,4,276,1165,
scooby_state_56112c14a226|43|7 807,7,8,8,7,4,5,5,4,6,3,7,6,5,282,1164,
scooby_state_56112c14a226|26|6 812,7,4,11,10,5,6,0,2,1,1,3,0,5,295,1162,
scooby_state_56112c14a226|60|8 765,6,5,7,6,5,6,7,2,3,4,5,8,4,320,1153,
scooby_state_56112c14a226|8|7 803,7,7,8,5,3,6,2,4,3,4,3,5,6,285,1151,
scooby_state_56112c14a226|57|7 784,10,8,5,14,2,8,5,3,2,6,11,4,4,285,1151,
scooby_state_56112c14a226|19|8 797,5,5,4,12,4,8,6,3,0,1,5,5,3,292,1150,
scooby_state_56112c14a226|63|8 761,8,10,8,7,4,7,4,5,1,2,5,8,4,315,1149,
scooby_state_56112c14a226|62|7 780,2,6,8,7,8,6,3,6,3,1,3,5,7,303,1148,
scooby_state_56112c14a226|19|7 805,2,5,6,7,5,3,4,1,3,6,6,8,6,277,1144,
scooby_state_56112c14a226|9|7 780,8,6,6,6,5,1,2,1,3,1,7,0,7,307,1140,
scooby_state_56112c14a226|46|8 786,6,10,6,8,5,8,3,3,1,2,6,6,2,287,1139,
scooby_state_56112c14a226|61|7 766,4,5,9,7,7,6,4,1,4,3,5,6,6,306,1139,
scooby_state_56112c14a226|49|8 786,4,8,7,4,5,5,3,1,6,3,10,5,2,285,1134,
scooby_state_56112c14a226|59|7 768,4,9,2,4,5,10,1,2,7,1,7,3,6,304,1133,
scooby_state_56112c14a226|30|8 758,4,9,5,4,6,7,6,6,2,0,6,8,5,307,1133,
scooby_state_56112c14a226|54|7 773,10,3,9,7,8,4,4,2,6,4,4,1,12,285,1132,
scooby_state_56112c14a226|31|7 774,7,8,7,4,6,4,4,5,3,2,4,5,2,297,1132,
scooby_state_56112c14a226|50|7 787,6,5,8,2,4,5,4,4,2,3,4,1,5,292,1132,
scooby_state_56112c14a226|14|7 783,6,4,8,6,0,3,3,3,2,5,3,6,4,292,1128,
scooby_state_56112c14a226|36|7 793,11,3,4,3,8,4,1,1,4,2,6,3,5,279,1127,
scooby_state_56112c14a226|33|8 762,9,10,4,3,4,2,2,5,6,1,10,4,10,290,1122,
scooby_state_56112c14a226|39|7 781,4,9,4,7,3,3,0,5,1,7,8,12,3,271,1118,
scooby_state_56112c14a226|9|6 781,8,7,3,4,3,3,0,2,5,1,9,1,6,284,1117,
scooby_state_56112c14a226|45|8 805,4,8,2,4,4,8,4,6,6,2,6,1,6,251,1117,
scooby_state_56112c14a226|49|7 733,9,12,5,6,6,1,3,4,4,7,5,3,5,307,1110,
scooby_state_56112c14a226|33|7 780,5,7,5,3,3,5,2,8,1,1,10,7,5,268,1110,
scooby_state_56112c14a226|43|9 764,12,7,9,4,4,5,5,7,3,5,3,5,2,271,1106,
scooby_state_56112c14a226|23|7 770,9,6,3,5,8,7,3,4,3,2,5,4,4,272,1105,
scooby_state_56112c14a226|41|7 769,3,3,5,7,4,6,4,3,3,2,6,4,4,279,1102,
scooby_state_56112c14a226|36|8 768,6,7,7,2,6,3,4,3,4,2,6,6,3,275,1102,
scooby_state_56112c14a226|32|8 767,6,4,8,1,1,4,1,5,1,5,4,4,5,281,1097,
scooby_state_56112c14a226|37|7 765,8,7,2,8,3,3,3,2,5,5,9,0,4,267,1091,
scooby_state_56112c14a226|61|8 741,6,4,10,0,7,7,6,5,1,0,4,3,6,285,1085,
scooby_state_56112c14a226|28|7 761,6,3,10,5,4,4,3,6,6,3,2,4,2,266,1085,
scooby_state_56112c14a226|45|7 724,7,12,7,4,7,4,3,3,8,4,8,4,2,281,1078,
scooby_state_56112c14a226|42|7 731,4,4,6,8,7,8,4,2,3,6,7,5,10,269,1074,
scooby_state_56112c14a226|23|9 744,5,6,8,4,9,4,6,2,4,0,5,5,6,265,1073,
scooby_state_56112c14a226|60|9 744,9,6,9,5,8,9,4,5,1,1,3,2,6,260,1072,
scooby_state_56112c14a226|24|7 732,3,9,4,5,6,7,3,5,4,3,6,4,4,277,1072,
scooby_state_56112c14a226|52|7 747,7,6,5,9,6,0,1,7,4,1,7,7,5,259,1071,
scooby_state_56112c14a226|29|8 718,3,7,9,8,5,4,4,3,4,2,11,2,6,282,1068,
scooby_state_56112c14a226|21|8 734,6,6,4,6,2,7,4,7,2,4,2,6,4,274,1068,
scooby_state_56112c14a226|18|7 737,6,8,3,12,1,3,2,2,2,4,4,5,5,268,1062,
scooby_state_56112c14a226|56|8 717,5,3,13,9,4,3,6,4,6,4,7,5,4,271,1061,
scooby_state_56112c14a226|20|8 703,4,8,9,3,4,8,4,2,1,3,6,2,6,295,1058,
scooby_state_56112c14a226|57|9 698,9,5,7,5,4,4,6,9,3,6,6,6,8,281,1057,
scooby_state_56112c14a226|49|9 740,4,11,7,3,5,1,5,3,4,3,10,7,4,248,1055,
scooby_state_56112c14a226|14|8 730,7,5,8,7,5,3,3,6,0,3,4,5,3,265,1054,
scooby_state_56112c14a226|41|8 696,10,4,6,2,7,8,6,5,2,2,10,5,7,283,1053,
scooby_state_56112c14a226|58|9 723,15,7,1,2,3,4,5,4,3,3,7,4,7,265,1053,
scooby_state_56112c14a226|37|9 732,4,11,6,1,6,6,3,1,4,4,6,5,5,257,1051,
scooby_state_56112c14a226|50|9 732,7,5,3,1,2,2,3,4,2,2,9,7,8,263,1050,
scooby_state_56112c14a226|13|8 667,7,11,6,5,6,8,1,6,1,1,7,10,4,310,1050,
scooby_state_56112c14a226|53|8 695,5,9,1,2,11,6,7,5,4,3,4,2,5,290,1049,
scooby_state_56112c14a226|31|8 742,6,7,10,4,4,3,4,2,3,2,3,5,4,247,1046,
scooby_state_56112c14a226|38|7 697,4,8,12,3,5,2,2,1,3,5,5,5,4,287,1043,
scooby_state_56112c14a226|34|8 715,3,11,5,1,10,6,3,3,5,4,3,4,2,267,1042,
scooby_state_56112c14a226|11|8 716,4,4,5,8,8,8,2,4,2,0,4,4,4,266,1039,
scooby_state_56112c14a226|27|8 726,3,5,2,6,4,7,2,5,2,5,6,3,3,257,1036,
scooby_state_56112c14a226|29|9 717,8,7,6,8,1,3,2,1,4,3,0,6,2,268,1036,
scooby_state_56112c14a226|15|8 738,6,6,4,3,2,6,5,6,2,1,6,4,1,246,1036,
scooby_state_56112c14a226|42|8 715,6,9,4,3,4,5,2,7,6,3,6,4,3,257,1034,
scooby_state_56112c14a226|58|8 713,4,7,6,2,8,1,4,6,3,4,7,5,3,259,1032,
scooby_state_56112c14a226|48|9 714,11,12,5,6,3,3,8,4,0,5,3,3,3,247,1027,
scooby_state_56112c14a226|18|8 680,3,5,12,4,4,6,4,4,1,2,13,8,3,277,1026,
scooby_state_56112c14a226|59|8 696,6,7,9,6,6,3,1,1,5,2,10,2,1,270,1025,
scooby_state_56112c14a226|16|7 696,4,14,10,5,6,2,2,4,0,5,9,3,5,260,1025,
scooby_state_56112c14a226|10|8 682,3,7,6,2,5,5,3,3,5,4,6,5,0,288,1024,
scooby_state_56112c14a226|15|9 694,11,3,1,3,9,3,6,1,3,8,7,9,3,260,1021,
scooby_state_56112c14a226|28|8 716,3,8,6,4,1,3,1,2,7,3,3,2,3,251,1013,
scooby_state_56112c14a226|22|9 706,10,6,7,3,5,2,7,9,4,4,4,2,4,236,1009,
scooby_state_56112c14a226|40|8 687,3,7,9,4,3,6,1,2,5,1,9,2,5,260,1004,
scooby_state_56112c14a226|33|9 700,4,9,2,6,5,2,8,4,1,2,8,4,4,243,1002,
scooby_state_56112c14a226|21|9 673,8,7,5,4,3,6,6,5,3,2,6,4,4,265,1001,
scooby_state_56112c14a226|17|7 669,5,3,6,7,7,6,2,3,6,2,3,6,6,270,1001,
scooby_state_56112c14a226|63|9 684,4,8,7,5,2,6,4,1,8,7,6,7,6,243,998,
scooby_state_56112c14a226|55|9 671,5,11,6,10,6,3,5,3,5,3,3,6,4,257,998,
scooby_state_56112c14a226|26|8 700,1,6,9,3,5,3,4,5,4,2,2,5,5,242,996,
scooby_state_56112c14a226|56|10 654,20,3,3,4,3,6,0,4,1,5,4,2,0,283,992,
scooby_state_56112c14a226|39|8 696,2,5,3,5,0,6,5,5,3,4,4,4,2,248,992,
scooby_state_56112c14a226|35|7 676,7,7,7,8,6,6,4,3,6,2,4,3,4,244,987,
scooby_state_56112c14a226|13|10 699,8,4,5,3,3,4,1,2,0,3,8,2,1,241,984,
scooby_state_56112c14a226|17|9 661,8,8,9,8,2,4,5,5,4,4,6,5,6,249,984,
scooby_state_56112c14a226|43|8 676,3,5,3,2,14,6,4,2,2,2,1,4,8,251,983,
scooby_state_56112c14a226|17|8 697,6,4,6,4,4,2,2,4,4,0,7,4,4,230,978,
scooby_state_56112c14a226|14|10 662,10,3,3,3,3,3,4,0,0,2,5,3,4,272,977,
scooby_state_56112c14a226|9|9 637,3,7,5,5,6,5,2,5,5,0,5,3,4,283,975,
scooby_state_56112c14a226|54|8 667,3,7,6,5,1,2,1,1,6,1,4,3,4,263,974,
scooby_state_56112c14a226|51|8 658,3,4,5,6,7,10,4,3,4,0,4,1,5,258,972,
scooby_state_56112c14a226|23|8 700,4,6,7,2,4,3,5,1,1,1,6,4,3,223,970,
scooby_state_56112c14a226|57|8 646,6,6,9,4,3,5,2,1,4,5,5,2,4,268,970,
scooby_state_56112c14a226|37|10 671,14,4,4,6,3,1,1,3,0,1,5,2,4,251,970,
scooby_state_56112c14a226|36|9 673,4,5,3,7,4,2,2,3,5,1,3,5,8,245,970,
scooby_state_56112c14a226|35|8 688,7,8,4,3,4,2,1,1,0,7,4,4,2,234,969,
scooby_state_56112c14a226|55|8 663,7,7,3,4,5,2,4,7,2,0,4,2,6,253,969,
scooby_state_56112c14a226|34|9 643,10,5,6,4,4,4,6,9,5,2,3,4,5,258,968,
scooby_state_56112c14a226|26|9 674,11,4,6,6,4,5,1,7,4,2,1,5,6,231,967,
scooby_state_56112c14a226|30|7 636,5,4,8,9,6,5,7,5,3,4,4,4,10,257,967,
scooby_state_56112c14a226|38|8 655,4,6,7,1,6,7,4,5,2,4,3,4,3,254,965,
scooby_state_56112c14a226|52|8 645,8,7,8,1,2,6,5,4,1,2,7,3,5,260,964,
scooby_state_56112c14a226|48|8 682,4,11,5,5,10,5,4,3,0,2,4,1,5,222,963,
scooby_state_56112c14a226|44|8 655,7,2,8,8,7,2,4,4,6,3,5,3,2,246,962,
scooby_state_56112c14a226|10|10 639,5,5,6,3,4,3,2,2,1,4,4,4,2,278,962,
scooby_state_56112c14a226|56|9 652,8,4,6,8,4,5,5,0,4,4,7,4,4,245,960,
scooby_state_56112c14a226|25|8 669,4,5,4,2,2,6,2,1,2,2,8,1,4,241,953,
scooby_state_56112c14a226|35|9 613,6,4,2,6,6,4,4,6,2,10,3,1,8,273,948,
scooby_state_56112c14a226|24|9 637,14,9,4,3,4,5,6,1,5,3,3,3,5,246,948,
scooby_state_56112c14a226|16|8 646,3,6,10,4,5,5,4,4,2,2,7,2,3,242,945,
scooby_state_56112c14a226|46|9 667,5,4,6,3,3,4,5,3,4,2,6,5,4,222,943,
scooby_state_56112c14a226|19|9 663,8,5,6,1,5,12,7,2,2,4,7,5,5,210,942,
scooby_state_56112c14a226|14|9 663,7,13,6,5,4,10,3,5,2,2,6,3,2,210,941,
scooby_state_56112c14a226|41|9 648,8,4,2,6,2,5,5,4,3,4,4,6,5,233,939,
scooby_state_56112c14a226|32|9 639,4,3,4,1,4,4,6,3,3,3,8,3,3,250,938,
scooby_state_56112c14a226|24|8 625,3,8,2,3,2,11,1,1,2,0,13,0,1,266,938,
scooby_state_56112c14a226|27|9 657,7,3,5,7,2,2,3,6,6,1,6,3,7,223,938,
scooby_state_56112c14a226|10|9 649,14,3,4,2,2,4,2,6,6,0,4,2,2,237,937,
scooby_state_56112c14a226|62|8 618,3,11,2,0,2,5,6,1,3,7,4,4,4,266,936,
scooby_state_56112c14a226|12|12 647,7,9,9,6,5,5,4,3,5,5,8,3,3,213,932,
scooby_state_56112c14a226|12|8 624,2,6,5,9,1,5,4,6,3,2,2,2,8,252,931,
scooby_state_56112c14a226|9|8 650,1,8,7,4,5,6,1,6,6,4,5,4,2,221,930,
scooby_state_56112c14a226|40|9 641,6,5,7,5,9,2,5,4,5,3,6,8,7,212,925,
scooby_state_56112c14a226|59|11 598,8,7,9,4,9,4,7,4,2,3,5,5,2,254,921,
scooby_state_56112c14a226|61|9 637,7,2,6,4,7,2,6,1,3,4,3,3,4,231,920,
scooby_state_56112c14a226|22|8 621,2,5,4,1,5,4,3,4,2,6,6,4,3,249,919,
scooby_state_56112c14a226|39|9 631,8,4,4,3,1,3,1,2,0,2,6,7,4,242,918,
scooby_state_56112c14a226|18|10 646,6,2,7,3,1,1,1,3,4,2,3,0,2,234,915,
scooby_state_56112c14a226|50|8 650,6,7,4,5,1,6,3,1,2,4,5,1,2,217,914,
scooby_state_56112c14a226|31|9 626,8,9,5,5,6,2,8,3,3,3,7,3,3,222,913,
scooby_state_56112c14a226|55|10 633,10,8,0,1,2,2,1,1,0,4,2,1,4,240,909,
scooby_state_56112c14a226|11|11 620,2,5,13,7,4,5,7,8,4,2,4,5,3,220,909,
scooby_state_56112c14a226|13|9 608,6,5,5,6,2,2,5,4,3,2,3,8,7,242,908,
scooby_state_56112c14a226|44|9 647,3,2,3,5,2,4,2,4,1,2,8,2,6,217,908,
scooby_state_56112c14a1e3|34|0 285,45,46,44,45,45,46,46,45,30,32,44,29,44,80,906,
scooby_state_56112c14a226|51|9 581,6,3,6,5,5,5,1,3,3,1,6,4,9,263,901,
scooby_state_56112c14a226|62|9 620,15,5,2,3,4,4,5,3,8,5,4,4,2,217,901,
scooby_state_56112c14a226|46|12 601,8,4,8,5,3,6,6,4,3,6,3,6,7,231,901,
scooby_state_56112c14a226|20|9 613,4,6,6,2,1,3,4,2,6,3,2,1,7,236,896,
scooby_state_56112c14a226|52|9 612,6,6,6,4,5,4,6,1,5,2,2,8,3,225,895,
scooby_state_56112c14a226|53|10 627,4,4,6,2,3,4,1,0,1,0,5,1,1,235,894,
scooby_state_56112c14a226|32|10 630,7,2,4,3,3,4,0,4,1,3,7,1,1,224,894,
scooby_state_56112c14a226|12|9 617,6,3,1,5,4,6,8,2,1,2,6,4,5,223,893,
scooby_state_56112c14a226|44|10 599,11,4,3,7,2,1,4,0,2,4,5,1,1,248,892,
scooby_state_56112c14a226|63|10 617,6,5,4,0,1,3,3,2,3,1,6,1,2,238,892,
scooby_state_56112c14a226|28|9 617,2,9,3,1,4,2,3,3,4,3,5,7,4,222,889,
scooby_state_56112c14a226|47|10 621,5,4,7,3,3,3,1,3,0,2,5,5,4,222,888,
scooby_state_56112c14a226|26|11 597,5,4,7,4,5,12,3,2,4,6,3,2,5,226,885,
scooby_state_56112c14a226|18|9 603,9,9,4,2,7,6,7,4,2,5,7,3,1,213,882,
scooby_state_56112c14a226|14|12 594,4,2,10,5,1,4,4,3,5,4,8,3,0,235,882,
scooby_state_56112c14a226|38|9 610,7,4,2,3,6,3,4,1,2,2,5,4,1,226,880,
scooby_state_56112c14a226|23|10 614,7,3,3,4,3,4,2,3,0,2,8,1,6,216,876,
scooby_state_56112c14a226|60|10 610,5,3,3,0,2,1,0,0,0,3,4,1,2,240,874,
scooby_state_56112c14a226|11|9 600,8,3,5,7,2,6,4,3,3,3,4,2,5,216,871,
scooby_state_56112c14a226|15|10 602,10,5,1,5,2,1,3,1,2,2,6,1,2,227,870,
scooby_state_56112c14a226|61|10 597,8,3,3,2,3,1,2,5,1,1,3,1,4,234,868,
scooby_state_56112c14a226|19|11 601,6,2,8,4,5,2,5,2,1,2,4,1,7,218,868,
scooby_state_56112c14a226|25|9 583,9,5,3,4,7,0,8,4,1,5,1,7,3,226,866,
scooby_state_56112c14a226|12|10 605,9,4,6,1,2,2,0,1,4,1,6,0,2,214,857,
scooby_state_56112c14a226|26|10 562,9,6,4,3,3,3,5,2,0,2,4,1,2,247,853,
scooby_state_56112c14a226|30|9 572,10,11,3,6,2,5,3,3,1,3,2,4,5,219,849,
scooby_state_56112c14a226|58|11 564,1,3,6,7,5,3,2,4,1,1,4,1,2,244,848,
scooby_state_56112c14a226|20|10 581,2,4,1,3,5,5,1,3,0,1,3,1,5,233,848,
scooby_state_56112c14a226|16|9 549,7,2,4,5,5,4,4,6,3,5,4,6,1,241,846,
scooby_state_56112c14a226|47|8 570,6,8,8,1,6,4,1,2,2,0,2,7,3,224,844,
scooby_state_56112c14a226|63|11 595,8,4,14,0,1,3,3,4,5,3,8,1,3,191,843,
scooby_state_56112c14a226|32|11 582,3,8,6,3,2,9,4,4,2,3,5,7,4,193,835,
scooby_state_56112c14a226|39|10 589,8,4,2,1,4,1,1,1,0,2,3,2,1,215,834,
scooby_state_56112c14a226|53|9 568,3,7,3,4,6,3,2,4,2,1,9,1,4,216,833,
scooby_state_56112c14a226|19|10 573,10,3,5,0,3,2,3,1,1,3,5,1,1,221,832,
scooby_state_56112c14a226|51|11 550,0,7,9,7,0,8,4,3,8,3,9,5,4,213,830,
scooby_state_56112c14a226|27|12 585,7,5,7,3,3,5,3,3,1,1,6,4,1,195,829,
scooby_state_56112c14a226|25|10 570,7,2,3,1,4,0,1,0,3,1,1,4,2,228,827,
scooby_state_56112c14a226|59|9 582,7,6,3,2,4,5,6,3,4,0,5,4,1,195,827,
scooby_state_56112c14a226|16|10 562,6,1,1,1,3,1,2,6,0,1,3,0,5,234,826,
scooby_state_56112c14a226|48|11 563,5,3,4,2,4,7,3,4,2,3,6,3,4,213,826,
scooby_state_56112c14a226|61|11 541,7,7,8,4,9,5,3,5,4,5,1,5,6,214,824,
scooby_state_56112c14a226|24|11 557,9,6,5,0,3,4,4,4,4,3,4,7,4,208,822,
scooby_state_56112c14a226|58|10 550,15,3,1,7,6,3,3,2,2,3,4,2,3,216,820,
scooby_state_56112c14a226|33|11 570,3,3,14,2,4,2,3,4,4,1,6,8,4,188,816,
scooby_state_56112c14a226|41|11 534,7,4,9,9,3,4,4,3,5,5,8,3,3,215,816,
scooby_state_56112c14a226|53|11 550,4,2,6,6,6,6,5,2,1,5,4,2,4,211,814,
scooby_state_56112c14a226|31|10 562,11,2,6,5,4,3,3,2,0,0,1,0,2,212,813,
scooby_state_56112c14a226|42|10 552,6,2,1,0,2,2,0,1,3,2,2,2,0,237,812,
scooby_state_56112c14a226|55|11 556,3,10,6,8,3,7,3,3,3,4,3,4,2,195,810,
scooby_state_56112c14a226|51|10 541,6,2,3,4,3,3,3,3,4,0,3,0,5,229,809,
scooby_state_56112c14a226|21|10 566,8,3,3,2,1,3,3,1,2,1,2,1,0,212,808,
scooby_state_56112c14a226|23|11 546,4,3,9,5,2,10,6,1,4,3,3,7,3,201,807,
scooby_state_56112c14a226|46|10 558,5,2,3,3,1,3,1,1,0,2,5,2,3,216,805,
scooby_state_56112c14a226|42|9 519,7,8,4,12,5,3,3,3,1,4,3,4,3,224,803,
scooby_state_56112c14a226|37|11 537,5,5,13,2,8,4,2,6,3,4,4,5,2,202,802,
scooby_state_56112c14a226|13|11 535,7,12,4,7,5,5,6,1,3,2,4,3,5,203,802,
scooby_state_56112c14a226|30|10 560,6,2,3,9,2,2,1,2,2,5,5,2,1,198,800,
scooby_state_56112c14a226|35|10 547,5,3,1,3,4,4,1,2,1,1,2,0,2,224,800,
scooby_state_56112c14a226|43|10 527,8,2,4,5,2,7,1,2,0,2,8,0,1,230,799,
scooby_state_56112c14a226|37|13 529,13,5,13,7,10,3,3,3,10,6,8,2,6,177,795,
scooby_state_56112c14a226|40|11 538,3,8,4,5,2,4,5,4,2,2,6,4,7,197,791,
scooby_state_56112c14a226|45|11 528,7,3,8,3,5,0,4,3,5,3,4,4,3,211,791,
scooby_state_56112c14a226|35|11 518,2,2,10,3,2,6,3,3,5,0,6,3,4,223,790,
scooby_state_56112c14a226|29|11 536,4,3,10,5,3,3,3,2,0,3,3,5,5,205,790,
scooby_state_56112c14a226|45|9 551,11,5,10,1,4,5,2,2,2,1,4,3,3,185,789,
scooby_state_56112c14a226|37|12 529,4,6,5,5,0,2,2,1,1,4,9,6,2,213,789,
scooby_state_56112c14a226|24|10 530,8,4,1,4,0,5,0,2,2,1,6,2,5,218,788,
scooby_state_56112c14a226|22|11 541,8,4,6,5,4,3,0,2,2,2,3,8,4,196,788,
scooby_state_56112c14a226|15|11 559,2,3,6,5,3,5,5,1,2,2,4,7,2,179,785,
scooby_state_56112c14a226|33|10 532,11,4,3,3,3,3,1,2,3,1,4,1,3,210,784,
scooby_state_56112c14a226|56|11 513,7,9,8,3,4,3,2,5,7,5,2,3,4,208,783,
scooby_state_56112c14a226|17|10 544,4,4,10,3,6,3,0,2,2,0,1,0,1,203,783,
scooby_state_56112c14a226|22|12 513,8,10,6,7,5,10,1,4,2,2,8,4,2,196,778,
scooby_state_56112c14a226|54|11 523,2,5,9,5,4,1,6,4,1,6,6,3,3,200,778,
scooby_state_56112c14a226|42|11 523,7,8,10,2,3,3,1,5,4,3,3,4,1,199,776,
scooby_state_56112c14a226|44|11 525,9,7,12,7,3,7,2,6,0,6,1,3,5,182,775,
scooby_state_56112c14a226|45|10 540,4,1,1,1,1,3,4,4,3,2,5,1,3,202,775,
scooby_state_56112c14a226|62|10 535,6,8,2,4,3,1,2,3,1,1,3,0,3,202,774,
scooby_state_56112c14a226|47|9 522,4,2,5,3,3,4,3,3,4,2,4,1,7,207,774,
scooby_state_56112c14a226|36|10 542,7,4,6,2,2,1,3,2,1,1,1,4,0,197,773,
scooby_state_56112c14a226|29|10 552,5,5,4,4,4,2,2,1,0,2,4,0,2,183,770,
scooby_state_56112c14a226|50|10 509,10,4,6,2,3,3,1,1,0,1,7,1,5,215,768,
scooby_state_56112c14a226|59|10 514,5,2,5,2,4,4,5,1,2,1,2,0,2,216,765,
scooby_state_56112c14a226|60|12 519,5,1,6,2,4,3,4,3,4,2,7,3,6,195,764,
scooby_state_56112c14a226|57|11 524,4,4,6,7,1,5,3,4,2,4,4,0,3,192,763,
scooby_state_56112c14a226|22|10 543,7,1,2,1,2,2,2,1,1,1,7,1,2,190,763,
scooby_state_56112c14a226|54|9 540,3,5,4,6,3,4,1,2,1,4,5,3,2,179,762,
scooby_state_56112c14a226|41|10 538,7,3,2,1,5,3,0,3,1,1,3,4,2,189,762,
scooby_state_56112c14a226|25|11 498,10,8,11,4,7,1,2,2,2,3,3,2,5,202,760,
scooby_state_56112c14a226|26|12 502,4,5,10,3,2,3,6,6,5,3,4,5,5,194,757,
scooby_state_56112c14a226|14|11 513,5,9,6,5,2,6,1,2,1,4,8,4,3,187,756,
scooby_state_56112c14a226|63|12 500,3,3,3,5,3,6,5,3,0,1,8,8,2,205,755,
scooby_state_56112c14a226|49|10 505,9,2,2,4,3,3,1,1,3,2,7,1,1,209,753,
scooby_state_56112c14a226|38|11 495,3,4,13,2,8,5,3,1,4,4,5,6,2,198,753,
scooby_state_56112c14a226|34|11 529,4,3,6,6,3,1,2,4,1,4,5,4,5,175,752,
scooby_state_56112c14a226|28|10 495,9,4,3,4,2,4,3,3,1,1,6,2,1,212,750,
scooby_state_56112c14a226|39|12 507,6,4,9,4,9,2,3,3,0,3,2,4,4,190,750,
scooby_state_56112c14a226|21|14 525,5,10,5,8,6,7,3,2,3,5,5,3,1,160,748,
scooby_state_56112c14a226|11|10 513,8,4,3,4,2,2,0,3,1,0,8,1,2,196,747,
scooby_state_56112c14a226|31|12 520,7,0,1,2,7,1,3,3,4,1,2,1,2,193,747,
scooby_state_56112c14a226|20|12 530,4,6,11,3,3,4,3,3,2,2,2,3,1,169,746,
scooby_state_56112c14a226|34|10 513,5,3,1,5,1,3,1,2,1,3,2,3,3,199,745,
scooby_state_56112c14a226|21|11 491,3,7,6,4,2,7,2,1,3,4,4,4,4,202,744,
scooby_state_56112c14a226|52|10 508,6,6,3,1,3,2,0,2,0,1,4,0,7,201,744,
scooby_state_56112c14a226|39|15 687,4,4,7,1,9,2,2,3,2,3,5,2,7,2,740,
scooby_state_56112c14a226|12|11 476,8,4,4,5,4,4,2,1,3,3,5,2,6,211,738,
scooby_state_56112c14a226|27|11 505,3,6,5,4,10,8,6,0,2,3,3,8,5,169,737,
scooby_state_56112c14a226|26|13 491,7,7,10,10,7,2,2,5,5,4,7,6,6,164,733,
scooby_state_56112c14a226|53|13 490,7,4,7,6,6,8,2,4,2,1,5,5,7,179,733,
scooby_state_56112c14a226|58|12 488,6,10,10,3,5,1,2,1,3,1,5,5,2,189,731,
scooby_state_56112c14a226|38|12 488,6,6,5,2,4,4,2,2,3,4,7,3,3,191,730,
scooby_state_56112c14a226|50|11 512,6,3,5,4,2,1,2,4,1,4,4,7,3,172,730,
scooby_state_56112c14a226|36|11 500,3,3,5,4,3,2,2,2,2,4,4,1,3,189,727,
scooby_state_56112c14a226|31|11 476,4,7,9,6,4,2,2,6,4,1,6,5,3,192,727,
scooby_state_56112c14a226|43|11 505,5,7,7,3,2,5,1,2,3,3,9,3,4,167,726,
scooby_state_56112c14a226|41|12 493,5,5,3,4,3,6,3,2,3,4,5,0,7,182,725,
scooby_state_56112c14a226|56|12 494,7,2,5,4,4,4,4,2,1,0,4,3,6,185,725,
scooby_state_56112c14a226|17|11 519,2,2,4,3,4,3,2,2,2,3,3,2,3,171,725,
scooby_state_56112c14a226|16|11 487,5,4,6,6,3,4,3,4,7,2,4,6,4,180,725,
scooby_state_56112c14a226|34|12 507,5,4,2,5,5,5,0,6,6,2,1,2,3,172,725,
scooby_state_56112c14a226|49|11 495,2,5,6,1,4,6,4,1,3,0,7,5,7,178,724,
scooby_state_56112c14a226|48|10 471,8,3,3,2,4,3,2,1,7,2,4,2,3,209,724,
scooby_state_56112c14a226|18|11 502,5,4,4,6,3,3,3,2,2,4,7,4,3,171,723,
scooby_state_56112c14a226|38|10 506,3,3,3,3,3,4,0,3,2,1,3,4,0,185,723,
scooby_state_56112c14a226|22|13 519,6,8,5,3,2,4,0,3,1,2,11,4,2,152,722,
scooby_state_56112c14a226|40|13 503,7,10,6,7,8,4,3,6,6,1,3,4,4,149,721,
scooby_state_56112c14a226|46|11 487,3,2,5,5,5,5,1,5,2,4,7,3,2,185,721,
scooby_state_56112c14a226|25|12 493,4,5,4,0,2,4,2,4,1,2,3,4,1,189,718,
scooby_state_56112c14a226|33|13 478,10,10,10,7,7,4,6,2,3,2,8,4,7,156,714,
scooby_state_56112c14a226|30|11 490,9,4,11,5,3,2,6,4,5,2,5,0,4,164,714,
scooby_state_56112c14a226|20|11 469,5,6,9,4,3,6,6,7,4,2,4,3,1,184,713,
scooby_state_56112c14a226|27|10 512,4,1,5,2,4,3,0,2,1,0,2,2,2,168,708,
scooby_state_56112c14a226|40|12 467,1,6,4,9,5,5,4,3,5,2,3,6,5,183,708,
scooby_state_56112c14a226|33|12 485,6,4,3,4,5,4,2,4,4,7,4,5,3,167,707,
scooby_state_56112c14a226|51|14 466,5,13,7,5,6,10,6,6,4,5,9,7,10,146,705,
scooby_state_56112c14a226|54|10 479,8,4,4,1,0,4,0,0,0,0,5,4,3,193,705,
scooby_state_56112c14a226|60|11 481,3,4,7,1,2,5,3,1,4,4,3,1,4,180,703,
scooby_state_56112c14a226|15|13 457,8,3,6,7,5,5,2,7,8,2,9,6,3,174,702,
[...]
scooby_state_14f7c93c2a39|22|1 0,0,0,0,0,0,0,0,0,0,0,0,0,1,0,1,
scooby_state_14f7c93e65c5|20|-27 1,0,0,0,0,0,0,0,0,0,0,0,0,0,0,1,
scooby_state_14f7c93c2cb6|30|-16 0,0,0,0,0,0,0,0,0,0,0,1,0,0,0,1,
scooby_state_14f7c93c2d1a|61|16 0,0,0,1,0,0,0,0,0,0,0,0,0,0,0,1,
scooby_state_14f7c93e6477|61|2 0,0,0,0,0,1,0,0,0,0,0,0,0,0,0,1,
scooby_state_14f7c93e6641|38|8 0,0,0,0,0,0,0,0,0,0,0,0,1,0,0,1,
scooby_state_14f7c93e6477|1|-10 1,0,0,0,0,0,0,0,0,0,0,0,0,0,0,1,
scooby_state_56112c14a226|16|-38 0,0,0,0,0,0,0,0,0,0,0,1,0,0,0,1,
scooby_state_14f7c93e6646|61|31 0,0,0,0,0,0,0,0,0,0,0,1,0,0,0,1,
scooby_state_14f7c93e670e|42|30 0,0,0,0,0,0,0,0,0,0,0,0,1,0,0,1,
scooby_state_14f7c93c2c6b|47|31 0,0,0,0,0,0,0,0,0,0,1,0,0,0,0,1,
scooby_state_14f7c93c2c6b|51|3 1,0,0,0,0,0,0,0,0,0,0,0,0,0,0,1,
scooby_state_14f7c93bf8f4|12|0 0,0,0,0,0,0,0,0,0,0,0,1,0,0,0,1,
scooby_state_56112c14a1d5|36|-6 1,0,0,0,0,0,0,0,0,0,0,0,0,0,0,1,
scooby_state_14f7c93e6477|23|-4 1,0,0,0,0,0,0,0,0,0,0,0,0,0,0,1,
scooby_state_14f7c93c298d|32|-19 0,0,0,0,0,0,0,0,1,0,0,0,0,0,0,1,
scooby_state_14f7c93c2207|42|21 0,0,0,0,0,0,0,0,0,0,0,0,0,0,1,1,
scooby_state_14f7c93e6477|32|-11 0,0,0,0,0,0,1,0,0,0,0,0,0,0,0,1,
scooby_state_56112c14a327|33|7 0,0,0,0,1,0,0,0,0,0,0,0,0,0,0,1,
scooby_state_14f7c93c2d1a|61|8 1,0,0,0,0,0,0,0,0,0,0,0,0,0,0,1,
scooby_state_56112c14a4d3|12|-10 1,0,0,0,0,0,0,0,0,0,0,0,0,0,0,1,
scooby_state_14f7c93bf581|35|-2 0,0,0,0,1,0,0,0,0,0,0,0,0,0,0,1,
scooby_state_14f7c93bf5a7|59|0 0,0,0,0,0,0,0,0,0,0,0,1,0,0,0,1,
scooby_state_56112c14a1d5|44|-3 0,1,0,0,0,0,0,0,0,0,0,0,0,0,0,1,
scooby_state_14f7c93bf867|29|0 0,0,1,0,0,0,0,0,0,0,0,0,0,0,0,1,
scooby_state_14f7c93e6706|63|1 0,0,0,0,0,0,0,0,0,0,0,1,0,0,0,1,
scooby_state_14f7c93e65c5|49|3 0,0,0,0,0,0,1,0,0,0,0,0,0,0,0,1,
scooby_state_14f7c93c2c6b|49|17 0,0,0,0,0,0,0,0,0,0,0,0,0,1,0,1,
scooby_state_14f7c93e66d3|48|15 0,0,0,0,0,0,0,0,0,0,0,1,0,0,0,1,
scooby_state_14f7c93e65c8|45|-12 0,0,0,0,0,0,0,0,0,0,1,0,0,0,0,1,
scooby_state_56112c14a2dc|46|37 0,0,0,0,0,0,0,0,0,0,0,0,1,0,0,1,
scooby_state_56112c14a1eb|4|1 0,0,0,0,0,0,0,0,0,1,0,0,0,0,0,1,
scooby_state_14f7c93bf8e8|6|-8 0,0,0,0,0,0,0,0,0,0,0,1,0,0,0,1,
scooby_state_14f7c93c298d|20|-3 1,0,0,0,0,0,0,0,0,0,0,0,0,0,0,1,
scooby_state_14f7c93e6477|55|-1 0,1,0,0,0,0,0,0,0,0,0,0,0,0,0,1,
scooby_state_14f7c93c2cb6|26|-11 1,0,0,0,0,0,0,0,0,0,0,0,0,0,0,1,
scooby_state_14f7c93e65c5|30|-30 0,0,0,1,0,0,0,0,0,0,0,0,0,0,0,1,
scooby_state_14f7c93e6593|33|5 0,0,0,0,1,0,0,0,0,0,0,0,0,0,0,1,
scooby_state_14f7c93e657e|22|0 0,0,0,0,0,0,0,0,0,0,0,0,1,0,0,1,
scooby_state_14f7c93bff46|21|1 1,0,0,0,0,0,0,0,0,0,0,0,0,0,0,1,
scooby_state_14f7c93bff19|58|1 0,0,0,0,0,0,0,0,0,0,0,1,0,0,0,1,
scooby_state_14f7c93c2d67|11|7 1,0,0,0,0,0,0,0,0,0,0,0,0,0,0,1,
scooby_state_14f7c93e6477|1|-15 0,0,0,0,0,1,0,0,0,0,0,0,0,0,0,1,
scooby_state_14f7c93e65c5|61|7 0,0,0,0,1,0,0,0,0,0,0,0,0,0,0,1,
scooby_state_14f7c93c2cb6|47|-11 1,0,0,0,0,0,0,0,0,0,0,0,0,0,0,1,
scooby_state_14f7c93e66cb|61|0 1,0,0,0,0,0,0,0,0,0,0,0,0,0,0,1,
scooby_state_14f7c93c345d|13|1 0,0,0,0,0,0,0,0,1,0,0,0,0,0,0,1,
scooby_state_14f7c93c2cd4|22|-29 0,0,0,0,0,0,0,0,0,0,0,1,0,0,0,1,
scooby_state_14f7c93bb9de|11|2 1,0,0,0,0,0,0,0,0,0,0,0,0,0,0,1,
scooby_state_14f7c93bfd40|53|1 1,0,0,0,0,0,0,0,0,0,0,0,0,0,0,1,
scooby_state_14f7c93e6682|32|-2 1,0,0,0,0,0,0,0,0,0,0,0,0,0,0,1,
scooby_state_56112c14a226|21|-41 0,0,0,0,0,0,0,0,0,0,0,1,0,0,0,1,
scooby_state_14f7c93c2207|39|-5 0,1,0,0,0,0,0,0,0,0,0,0,0,0,0,1,
scooby_state_14f7c93c2cb6|14|-14 1,0,0,0,0,0,0,0,0,0,0,0,0,0,0,1,
scooby_state_56112c14a2dc|30|25 1,0,0,0,0,0,0,0,0,0,0,0,0,0,0,1,
scooby_state_14f7c93bfe6c|3|-15 1,0,0,0,0,0,0,0,0,0,0,0,0,0,0,1,
scooby_state_14f7c93e663e|43|32 1,0,0,0,0,0,0,0,0,0,0,0,0,0,0,1,
scooby_state_14f7c93c33a4|11|1 0,0,0,0,0,0,0,0,1,0,0,0,0,0,0,1,
scooby_state_14f7c93bfeb2|9|-32 0,0,0,0,0,0,0,0,1,0,0,0,0,0,0,1,
scooby_state_14f7c93bf303|12|1 1,0,0,0,0,0,0,0,0,0,0,0,0,0,0,1,
scooby_state_14f7c93c298d|22|-1 0,0,0,0,0,0,1,0,0,0,0,0,0,0,0,1,
scooby_state_14f7c93e6477|36|-6 1,0,0,0,0,0,0,0,0,0,0,0,0,0,0,1,
scooby_state_56112c14a200|26|9 1,0,0,0,0,0,0,0,0,0,0,0,0,0,0,1,
scooby_state_14f7c93bf867|53|32 0,0,0,0,0,0,0,0,0,0,0,0,0,0,1,1,
scooby_state_14f7c93bb9a5|38|0 1,0,0,0,0,0,0,0,0,0,0,0,0,0,0,1,
scooby_state_14f7c93e66c4|48|28 1,0,0,0,0,0,0,0,0,0,0,0,0,0,0,1,
scooby_state_14f7c93e65d4|40|2 0,0,0,0,0,0,0,0,0,1,0,0,0,0,0,1,
scooby_state_14f7c93bf5f4|8|-6 1,0,0,0,0,0,0,0,0,0,0,0,0,0,0,1,
scooby_state_14f7c93bf867|58|30 1,0,0,0,0,0,0,0,0,0,0,0,0,0,0,1,
scooby_state_14f7c93e6706|31|0 0,0,0,0,0,0,0,0,0,0,0,1,0,0,0,1,
scooby_state_14f7c93e65c5|41|-11 1,0,0,0,0,0,0,0,0,0,0,0,0,0,0,1,
scooby_state_14f7c93bb965|0|-2 1,0,0,0,0,0,0,0,0,0,0,0,0,0,0,1,
scooby_state_14f7c93e6477|24|-27 0,0,0,1,0,0,0,0,0,0,0,0,0,0,0,1,
scooby_state_14f7c93bf5f4|11|-6 0,0,0,0,0,0,0,0,1,0,0,0,0,0,0,1,
scooby_state_14f7c93e6686|31|-30 1,0,0,0,0,0,0,0,0,0,0,0,0,0,0,1,
scooby_state_56112c14a539|9|-32 0,0,0,0,0,0,0,0,0,0,0,0,1,0,0,1,
scooby_state_14f7c93bb93c|60|36 0,0,0,0,0,0,0,0,0,0,0,0,0,0,1,1,
scooby_state_56112c14a2dc|3|-30 0,0,0,0,0,0,0,0,0,0,0,0,0,0,1,1,
scooby_state_14f7c93bfeb2|60|0 0,0,0,1,0,0,0,0,0,0,0,0,0,0,0,1,
scooby_state_56112c14a4d3|28|20 1,0,0,0,0,0,0,0,0,0,0,0,0,0,0,1,
scooby_state_14f7c93865e5|25|-10 1,0,0,0,0,0,0,0,0,0,0,0,0,0,0,1,
scooby_state_56112c14a2dc|49|35 0,0,0,0,0,0,0,0,0,0,0,0,1,0,0,1,
scooby_state_14f7c93c2207|55|-8 0,0,0,0,0,0,0,0,0,0,1,0,0,0,0,1,
scooby_state_14f7c93e670e|33|2 0,0,0,0,1,0,0,0,0,0,0,0,0,0,0,1,
scooby_state_14f7c93c2d1a|35|3 0,0,0,0,0,0,0,0,1,0,0,0,0,0,0,1,
scooby_state_14f7c93c2d4d|55|6 0,0,0,0,0,1,0,0,0,0,0,0,0,0,0,1,
scooby_state_14f7c93c2d1a|44|17 0,0,0,0,0,0,0,0,0,0,0,1,0,0,0,1,
scooby_state_14f7c93e66d3|28|7 0,0,0,0,0,0,0,0,0,0,0,1,0,0,0,1,
scooby_state_14f7c93c2d1a|22|3 0,0,0,0,0,0,1,0,0,0,0,0,0,0,0,1,
scooby_state_14f7c93e6703|63|54 0,0,0,0,0,0,0,0,0,0,0,0,1,0,0,1,
scooby_state_14f7c93c2207|20|-9 0,0,0,0,0,0,0,0,0,0,0,1,0,0,0,1,
scooby_state_14f7c93bf795|62|9 0,0,0,0,0,0,0,0,0,0,0,1,0,0,0,1,
scooby_state_14f7c93c2d1a|16|14 0,0,0,0,0,0,0,0,0,0,0,1,0,0,0,1,
scooby_state_14f7c93c2c6b|6|3 1,0,0,0,0,0,0,0,0,0,0,0,0,0,0,1,
scooby_state_56112c14b880|34|1 1,0,0,0,0,0,0,0,0,0,0,0,0,0,0,1,
scooby_state_14f7c93e6477|57|7 1,0,0,0,0,0,0,0,0,0,0,0,0,0,0,1,
scooby_state_14f7c93bf5f4|15|4 0,0,0,0,0,0,0,0,0,1,0,0,0,0,0,1,
scooby_state_56112c14a2dc|7|-38 0,1,0,0,0,0,0,0,0,0,0,0,0,0,0,1,
scooby_state_56112c14a2dc|37|28 0,0,0,0,0,0,0,0,0,0,0,0,0,0,1,1,
scooby_state_14f7c93c2d7f|35|0 0,0,1,0,0,0,0,0,0,0,0,0,0,0,0,1,
scooby_state_14f7c93c2d1a|42|10 0,0,0,0,0,0,0,0,0,0,0,1,0,0,0,1,
scooby_state_14f7c93c2207|46|30 0,0,1,0,0,0,0,0,0,0,0,0,0,0,0,1,
scooby_state_14f7c93e65c5|46|1 1,0,0,0,0,0,0,0,0,0,0,0,0,0,0,1,
scooby_state_14f7c93e65c5|18|-40 1,0,0,0,0,0,0,0,0,0,0,0,0,0,0,1,
scooby_state_14f7c93e6646|33|7 0,0,0,0,0,0,0,0,0,0,0,1,0,0,0,1,
scooby_state_14f7c93c2d1a|58|20 1,0,0,0,0,0,0,0,0,0,0,0,0,0,0,1,
scooby_state_14f7c93c2d3b|13|-24 0,0,0,0,0,0,0,0,0,0,0,0,1,0,0,1,
scooby_state_14f7c93c2d1a|37|27 0,0,0,0,0,0,0,0,0,0,0,0,1,0,0,1,
scooby_state_14f7c93e670e|20|2 0,0,0,0,0,0,0,0,0,1,0,0,0,0,0,1,
scooby_state_14f7c93c2d1a|23|4 0,0,0,0,0,0,0,0,0,0,0,1,0,0,0,1,
scooby_state_14f7c93bb93c|58|5 1,0,0,0,0,0,0,0,0,0,0,0,0,0,0,1,
scooby_state_14f7c93e6641|12|8 0,0,0,0,0,0,0,0,0,0,0,0,1,0,0,1,
scooby_state_14f7c93c2d1a|26|11 0,0,0,0,0,0,0,0,0,0,0,1,0,0,0,1,
scooby_state_14f7c93bff19|50|1 0,0,0,0,0,0,0,0,0,0,0,1,0,0,0,1,
scooby_state_14f7c93bf5a7|41|1 0,0,0,0,0,0,0,0,0,0,0,1,0,0,0,1,
scooby_state_14f7c93e65c5|53|9 1,0,0,0,0,0,0,0,0,0,0,0,0,0,0,1,
scooby_state_14f7c93863c3|15|1 1,0,0,0,0,0,0,0,0,0,0,0,0,0,0,1,
scooby_state_14f7c93c2c6b|50|2 0,0,0,0,1,0,0,0,0,0,0,0,0,0,0,1,
scooby_state_14f7c93c35a7|22|0 0,0,0,0,0,0,0,0,0,0,0,1,0,0,0,1,
scooby_state_14f7c93c298d|19|10 0,0,0,0,0,0,0,0,0,0,1,0,0,0,0,1,
scooby_state_14f7c93e65c5|9|-6 0,0,0,0,0,0,0,0,0,1,0,0,0,0,0,1,
scooby_state_56112c14a226|3|-41 1,0,0,0,0,0,0,0,0,0,0,0,0,0,0,1,
scooby_state_14f7c93bfebb|27|1 0,0,0,0,0,0,0,0,0,0,0,1,0,0,0,1,
scooby_state_14f7c93c2d4d|51|2 0,0,0,0,0,0,0,0,0,0,0,0,0,0,1,1,
scooby_state_14f7c93e65c5|33|19 1,0,0,0,0,0,0,0,0,0,0,0,0,0,0,1,
scooby_state_14f7c93e6477|63|14 1,0,0,0,0,0,0,0,0,0,0,0,0,0,0,1,
scooby_state_14f7c93c2d1a|11|7 0,0,0,0,0,0,0,0,0,0,0,1,0,0,0,1,
scooby_state_14f7c93c2a39|37|2 0,0,0,0,0,0,0,0,0,0,0,0,1,0,0,1,
scooby_state_56112c14a2dc|40|34 1,0,0,0,0,0,0,0,0,0,0,0,0,0,0,1,
scooby_state_14f7c93c2cb6|58|0 0,0,0,0,0,0,0,1,0,0,0,0,0,0,0,1,
scooby_state_14f7c93bfbf5|16|0 0,0,0,0,1,0,0,0,0,0,0,0,0,0,0,1,
scooby_state_56112c14a1d5|46|29 1,0,0,0,0,0,0,0,0,0,0,0,0,0,0,1,
scooby_state_14f7c93e65c5|13|-9 1,0,0,0,0,0,0,0,0,0,0,0,0,0,0,1,
scooby_state_14f7c93e65c5|5|-11 0,0,0,1,0,0,0,0,0,0,0,0,0,0,0,1,
scooby_state_14f7c93e66cf|5|1 0,0,0,0,0,0,0,0,0,0,0,0,0,0,1,1,
scooby_state_14f7c93c2d43|52|-9 1,0,0,0,0,0,0,0,0,0,0,0,0,0,0,1,
scooby_state_14f7c93c2d7f|5|0 0,0,0,0,0,0,0,0,0,0,0,0,0,0,1,1,
scooby_state_56112c14a226|12|-40 0,0,0,0,1,0,0,0,0,0,0,0,0,0,0,1,
scooby_state_14f7c93bf795|57|-2 1,0,0,0,0,0,0,0,0,0,0,0,0,0,0,1,
scooby_state_14f7c93c298d|60|24 1,0,0,0,0,0,0,0,0,0,0,0,0,0,0,1,
scooby_state_14f7c93e6477|49|0 0,0,0,0,0,0,0,1,0,0,0,0,0,0,0,1,
scooby_state_14f7c93bb993|53|1 0,0,0,0,0,0,0,1,0,0,0,0,0,0,0,1,
scooby_state_14f7c93c024c|37|0 0,0,0,1,0,0,0,0,0,0,0,0,0,0,0,1,
scooby_state_14f7c93c298d|9|-17 0,0,0,0,0,1,0,0,0,0,0,0,0,0,0,1,
scooby_state_14f7c93e65c8|15|-7 1,0,0,0,0,0,0,0,0,0,0,0,0,0,0,1,
scooby_state_14f7c93c2c6b|49|5 0,0,0,0,0,0,0,0,0,0,0,0,1,0,0,1,
scooby_state_14f7c93c015a|16|1 0,0,1,0,0,0,0,0,0,0,0,0,0,0,0,1,
scooby_state_14f7c93c298d|37|-7 0,0,0,0,0,1,0,0,0,0,0,0,0,0,0,1,
scooby_state_14f7c93c2d4d|56|0 0,0,1,0,0,0,0,0,0,0,0,0,0,0,0,1,
scooby_state_14f7c93bb9de|9|8 0,1,0,0,0,0,0,0,0,0,0,0,0,0,0,1,
scooby_state_14f7c93e6477|11|-40 1,0,0,0,0,0,0,0,0,0,0,0,0,0,0,1,
scooby_state_14f7c93e65c5|31|-29 1,0,0,0,0,0,0,0,0,0,0,0,0,0,0,1,
scooby_state_14f7c93bb9de|11|3 0,0,0,0,0,0,0,0,0,0,0,1,0,0,0,1,
scooby_state_14f7c93e6650|46|3 1,0,0,0,0,0,0,0,0,0,0,0,0,0,0,1,
scooby_state_14f7c93bb99b|45|3 0,0,0,0,0,0,0,1,0,0,0,0,0,0,0,1,
scooby_state_14f7c93c2cd4|42|0 0,0,0,0,0,0,0,0,0,0,0,0,0,0,1,1,
scooby_state_14f7c93e6477|8|-43 0,0,0,1,0,0,0,0,0,0,0,0,0,0,0,1,
scooby_state_14f7c93e6686|0|-56 1,0,0,0,0,0,0,0,0,0,0,0,0,0,0,1,
scooby_state_14f7c93bb97e|52|0 0,0,0,0,0,0,0,0,0,0,0,1,0,0,0,1,
scooby_state_56112c14a1d5|29|-28 0,0,0,0,0,1,0,0,0,0,0,0,0,0,0,1,
scooby_state_14f7c93bf867|61|0 0,0,0,0,0,0,0,0,0,1,0,0,0,0,0,1,
scooby_state_14f7c93e65d4|5|1 0,0,0,0,0,0,0,0,0,0,0,0,0,0,1,1,
scooby_state_14f7c93e670e|60|30 0,0,0,0,0,0,0,0,0,0,0,0,1,0,0,1,
scooby_state_14f7c93bfe6c|14|3 1,0,0,0,0,0,0,0,0,0,0,0,0,0,0,1,
scooby_state_14f7c93e6477|63|31 1,0,0,0,0,0,0,0,0,0,0,0,0,0,0,1,
scooby_state_14f7c93e6477|53|2 0,0,0,0,0,0,1,0,0,0,0,0,0,0,0,1,
scooby_state_14f7c93e65c5|9|9 0,1,0,0,0,0,0,0,0,0,0,0,0,0,0,1,
scooby_state_56112c14a2dc|49|0 1,0,0,0,0,0,0,0,0,0,0,0,0,0,0,1,
scooby_state_14f7c93c2207|47|-5 0,0,0,0,1,0,0,0,0,0,0,0,0,0,0,1,
scooby_state_14f7c93c2d1a|61|32 0,0,0,0,0,0,0,0,0,0,0,1,0,0,0,1,
scooby_state_56112c14a2dc|27|25 0,0,0,0,0,0,0,0,0,0,0,1,0,0,0,1,
scooby_state_14f7c93e65c5|54|15 1,0,0,0,0,0,0,0,0,0,0,0,0,0,0,1,
scooby_state_14f7c93e663e|53|31 0,1,0,0,0,0,0,0,0,0,0,0,0,0,0,1,
scooby_state_56112c14a226|6|-29 1,0,0,0,0,0,0,0,0,0,0,0,0,0,0,1,
scooby_state_14f7c93c021e|5|-13 1,0,0,0,0,0,0,0,0,0,0,0,0,0,0,1,
scooby_state_14f7c93bff10|52|25 1,0,0,0,0,0,0,0,0,0,0,0,0,0,0,1,
scooby_state_14f7c93bfef2|27|7 1,0,0,0,0,0,0,0,0,0,0,0,0,0,0,1,
scooby_state_14f7c93c2207|17|-30 1,0,0,0,0,0,0,0,0,0,0,0,0,0,0,1,
scooby_state_14f7c93e6477|19|-34 0,0,0,0,0,0,0,0,1,0,0,0,0,0,0,1,
scooby_state_14f7c93c2d67|16|-15 1,0,0,0,0,0,0,0,0,0,0,0,0,0,0,1,
scooby_state_14f7c93c2d43|17|0 0,0,0,0,0,0,0,0,0,0,0,1,0,0,0,1,
scooby_state_14f7c93e657e|36|-11 0,0,0,1,0,0,0,0,0,0,0,0,0,0,0,1,
scooby_state_56112c14a2dc|12|-20 0,0,0,0,0,0,0,0,0,0,0,0,0,1,0,1,
scooby_state_56112c14a1d5|45|40 0,0,0,0,0,0,0,0,0,0,0,0,1,0,0,1,
scooby_state_14f7c93c2a82|49|1 1,0,0,0,0,0,0,0,0,0,0,0,0,0,0,1,
scooby_state_14f7c93bf5a7|52|0 0,0,0,0,0,0,0,0,0,0,0,1,0,0,0,1,
scooby_state_56112c1483c0|55|-6 1,0,0,0,0,0,0,0,0,0,0,0,0,0,0,1,
scooby_state_14f7c93c0174|44|32 0,0,0,0,0,0,0,0,0,0,0,0,0,0,1,1,
scooby_state_14f7c93c2cd4|3|-3 0,0,0,0,0,0,0,0,1,0,0,0,0,0,0,1,
scooby_state_14f7c93c298d|7|-1 0,0,0,0,0,0,0,1,0,0,0,0,0,0,0,1,
scooby_state_14f7c93e6477|2|-16 0,0,0,1,0,0,0,0,0,0,0,0,0,0,0,1,
scooby_state_14f7c93c00f0|30|0 1,0,0,0,0,0,0,0,0,0,0,0,0,0,0,1,
scooby_state_14f7c93e66d3|35|3 0,0,0,0,0,0,0,0,0,0,0,1,0,0,0,1,
scooby_state_14f7c93c2207|56|1 0,0,0,0,0,0,0,0,0,0,0,1,0,0,0,1,
scooby_state_14f7c93e65c5|60|5 0,1,0,0,0,0,0,0,0,0,0,0,0,0,0,1,

scooby_action_0_deg_dist 0,490456,0,0,0,0,0,0,0,0,0,0,0,0,0,0,
scooby_action_-6_deg_dist 0,14059,111,0,5,0,0,0,0,0,0,0,0,0,0,0,
scooby_action_4_deg_dist 0,15785,91,0,39,0,1,0,0,0,0,0,0,0,0,0,
scooby_action_1_deg_dist 0,1134569,222002,0,206233,0,356187,0,0,0,0,0,0,0,0,0,
scooby_action_30_deg_dist 0,9012,37,0,22,0,5,0,0,0,0,0,0,0,0,0,
scooby_action_5_deg_dist 0,15046,89,0,44,0,1,0,0,0,0,0,0,0,0,0,
scooby_action_3_deg_dist 0,17292,147,0,78,0,12,0,0,0,0,0,0,0,0,0,
scooby_action_32_deg_dist 0,8798,22,0,10,0,0,0,0,0,0,0,0,0,0,0,
scooby_action_10_deg_dist 0,13142,92,0,41,0,0,0,0,0,0,0,0,0,0,0,
scooby_action_11_deg_dist 0,12784,63,0,30,0,0,0,0,0,0,0,0,0,0,0,
scooby_action_12_deg_dist 0,12384,56,0,35,0,3,0,0,0,0,0,0,0,0,0,
scooby_action_22_deg_dist 0,10168,40,0,28,0,4,0,0,0,0,0,0,0,0,0,
scooby_action_23_deg_dist 0,10182,56,0,18,0,0,0,0,0,0,0,0,0,0,0,
scooby_action_-1_deg_dist 0,36928,2511,0,3587,0,15290,0,0,0,0,0,0,0,0,0,
scooby_action_-3_deg_dist 0,20232,1377,0,2701,0,14114,0,0,0,0,0,0,0,0,0,

scooby_track_called 2646019
scooby_track_same_address 18909
scooby_track_evict 2626854

scooby_reward_demand_called 2646019
scooby_reward_demand_pt_not_found 2143850
scooby_reward_demand_pt_found 502169
scooby_reward_demand_pt_found_total 502169
scooby_reward_demand_has_reward 94
scooby_reward_train_called 2060009
scooby_reward_assign_reward_called 2626897
scooby_reward_no_pref 490349
scooby_reward_incorrect 1569660
scooby_reward_correct_untimely 415784
scooby_reward_correct_timely 86291
scooby_reward_out_of_bounds 64813
scooby_reward_tracker_hit 0

scooby_reward_none_low_bw 490349
scooby_reward_none_high_bw 0
scooby_reward_incorrect_low_bw 1569660
scooby_reward_incorrect_high_bw 0
scooby_reward_correct_untimely_low_bw 415784
scooby_reward_correct_untimely_high_bw 0
scooby_reward_correct_timely_low_bw 86291
scooby_reward_correct_timely_high_bw 0
scooby_reward_out_of_bounds_low_bw 64813
scooby_reward_out_of_bounds_high_bw 0
scooby_reward_tracker_hit_low_bw 0
scooby_reward_tracker_hit_high_bw 0

scooby_reward_1 0,1434392,371567,74722,30903,0,
scooby_reward_3 0,13321,1289,797,1122,0,
scooby_reward_4 0,12261,1073,465,1304,0,
scooby_reward_5 0,11501,982,415,1501,0,
scooby_reward_10 0,8952,708,402,2645,0,
scooby_reward_11 0,8326,652,389,2931,0,
scooby_reward_12 0,8065,619,358,2913,0,
scooby_reward_22 0,5098,311,237,4268,0,
scooby_reward_23 0,4973,331,245,4408,0,
scooby_reward_30 0,3522,192,151,5007,0,
scooby_reward_32 0,3068,167,143,5277,0,
scooby_reward_-1 0,28746,21672,3673,770,0,
scooby_reward_-3 0,15828,15428,3953,1256,0,
scooby_reward_-6 0,11607,793,341,508,0,
scooby_reward_0 490349,0,0,0,0,0,

scooby_train_called 2626853
scooby_train_compute_reward 2060009

scooby_register_fill_called 2416317
scooby_register_fill_set 1453021
scooby_register_fill_set_total 1453021

scooby_register_prefetch_hit_called 1609101
scooby_register_prefetch_hit_set 545561
scooby_register_prefetch_hit_set_total 545561

scooby_pref_issue_scooby 4616340

learning_engine_featurewise.action.called 2646019
learning_engine_featurewise.action.explore 4853
learning_engine_featurewise.action.exploit 2641166
learning_engine_featurewise.action.fallback 1442820
learning_engine_featurewise.action.dyn_fallback_saved_bw 0
learning_engine_featurewise.action.dyn_fallback_saved_bw_acc 821296
learning_engine_featurewise.action.index_1_explored 317
learning_engine_featurewise.action.index_1_exploited 1918674
learning_engine_featurewise.action.index_3_explored 335
learning_engine_featurewise.action.index_3_exploited 17194
learning_engine_featurewise.action.index_4_explored 337
learning_engine_featurewise.action.index_4_exploited 15579
learning_engine_featurewise.action.index_5_explored 290
learning_engine_featurewise.action.index_5_exploited 14890
learning_engine_featurewise.action.index_10_explored 369
learning_engine_featurewise.action.index_10_exploited 12906
learning_engine_featurewise.action.index_11_explored 328
learning_engine_featurewise.action.index_11_exploited 12549
learning_engine_featurewise.action.index_12_explored 326
learning_engine_featurewise.action.index_12_exploited 12152
learning_engine_featurewise.action.index_22_explored 332
learning_engine_featurewise.action.index_22_exploited 9908
learning_engine_featurewise.action.index_23_explored 326
learning_engine_featurewise.action.index_23_exploited 9930
learning_engine_featurewise.action.index_30_explored 319
learning_engine_featurewise.action.index_30_exploited 8757
learning_engine_featurewise.action.index_32_explored 282
learning_engine_featurewise.action.index_32_exploited 8548
learning_engine_featurewise.action.index_-1_explored 325
learning_engine_featurewise.action.index_-1_exploited 57991
learning_engine_featurewise.action.index_-3_explored 326
learning_engine_featurewise.action.index_-3_exploited 38098
learning_engine_featurewise.action.index_-6_explored 305
learning_engine_featurewise.action.index_-6_exploited 13870
learning_engine_featurewise.action.index_0_explored 336
learning_engine_featurewise.action.index_0_exploited 490120
learning_engine_featurewise.learn.called 2626853
learning_engine_featurewise.learn.su_skip_PC 0
learning_engine_featurewise.learn.su_skip_PC_Delta 0

learning_engine_featurewise.q_value_histogram.bucket_0 604051
learning_engine_featurewise.q_value_histogram.bucket_1 38040
learning_engine_featurewise.q_value_histogram.bucket_2 1570470
learning_engine_featurewise.q_value_histogram.bucket_3 68324
learning_engine_featurewise.q_value_histogram.bucket_4 22306
learning_engine_featurewise.q_value_histogram.bucket_5 258017
learning_engine_featurewise.q_value_histogram.bucket_6 79958
learning_engine_featurewise.q_value_histogram.bucket_7 0

learning_engine_featurewise.consensus.total 2641166
learning_engine_featurewise.consensus.feature_align_PC 1979920
learning_engine_featurewise.consensus.feature_align_PC_ratio 0.75
learning_engine_featurewise.consensus.feature_align_PC_Delta 2023960
learning_engine_featurewise.consensus.feature_align_PC_Delta_ratio 0.77
learning_engine_featurewise.consensus.feature_align_all 1960849
learning_engine_featurewise.consensus.feature_align_all_ratio 0.74

learning_engine_featurewise.feature_PC_min_weight 1000000.00000000
learning_engine_featurewise.feature_PC_max_weight 0.00000000
learning_engine_featurewise.feature_PC_Delta_min_weight 1000000.00000000
learning_engine_featurewise.feature_PC_Delta_max_weight 0.00000000
unique_pcs 464
unique_pages 8898
unique_trigger_pcs 192
total_bitmaps_seen 0
unique_bitmaps_seen 0

scooby_bw_epochs 646202
scooby_bw_level_0 348946
scooby_bw_level_1 237889
scooby_bw_level_2 42975
scooby_bw_level_3 16392

scooby_ipc_epochs 0
scooby_ipc_level_0 0
scooby_ipc_level_1 0
scooby_ipc_level_2 0
scooby_ipc_level_3 0

scooby_cache_acc_epochs 160515
scooby_cache_acc_level_0 6746
scooby_cache_acc_level_1 95345
scooby_cache_acc_level_2 42922
scooby_cache_acc_level_3 10565
scooby_cache_acc_level_4 2542
scooby_cache_acc_level_5 845
scooby_cache_acc_level_6 407
scooby_cache_acc_level_7 241
scooby_cache_acc_level_8 230
scooby_cache_acc_level_9 672

Channel_0_RQ_row_buffer_hit 659480
Channel_0_RQ_row_buffer_miss 1134031
Channel_0_WQ_row_buffer_hit 195065
Channel_0_WQ_row_buffer_miss 189980
Channel_0_WQ_full 0
Channel_0_dbus_congested 850378

avg_congested_cycle 9

DRAM_bw_pochs 646202
DRAM_bw_level_0 348946
DRAM_bw_level_1 237889
DRAM_bw_level_2 42975
DRAM_bw_level_3 16392
