*************************************************
   ChampSim Multicore Out-of-Order Simulator
   Last compiled: Apr  3 2025 20:54:34
*************************************************
parsing config file: /home/zir/Pythia/config/mlop.ini
unable to parse section: , name: , value: 

trace_0 /home/zir/ChampSim/ML-DPC/ChampSimTraces/gap/bfs-14.trace.gz
adding L2C_PREFETCHER: MLOP
Initialize SHIP state
warmup_instructions 10000000
simulation_instructions 50000000
champsim_seed 101
measure_ipc 0
measure_ipc_epoch 1000
measure_dram_bw 1
measure_dram_bw_epoch 256
measure_cache_acc 1
measure_cache_acc_epoch 1024
l1d_perfect 0
l2c_perfect 0
llc_perfect 0
l1d_semi_perfect 0
l2c_semi_perfect 0
llc_semi_perfect 0
semi_perfect_cache_page_buffer_size 64

num_cpus 1
cpu_freq 4000
dram_io_freq 2400
page_size 4096
block_size 64
max_read_per_cycle 8
max_fill_per_cycle 1
dram_channels 1
log2_dram_channels 0
dram_ranks 1
dram_banks 8
dram_rows 65536
dram_columns 128
dram_row_size 8
dram_size 4096
dram_pages 1048576

fetch_width 6
decode_width 6
exec_width 4
lq_width 2
sq_width 2
retire_width 4
scheduler_size 128
branch_mispredict_penalty 20
rob_size 256
lq_size 72
sq_size 56
num_instr_destinations_sparc 4
num_instr_destinations 2
num_instr_sources 4

itlb_set 16
itlb_way 8
itlb_rq_size 16
itlb_wq_size 16
itlb_pq_size 0
itlb_mshr_size 8
itlb_latency 1

dtlb_set 16
dtlb_way 4
dtlb_rq_size 16
dtlb_wq_size 16
dtlb_pq_size 0
dtlb_mshr_size 8
dtlb_latency 1

stlb_set 128
stlb_way 12
stlb_rq_size 32
stlb_wq_size 32
stlb_pq_size 0
stlb_mshr_size 16
stlb_latency 8

l1i_size 32
l1i_set 64
l1i_way 8
l1i_rq_size 64
l1i_wq_size 64
l1i_pq_size 8
l1i_mshr_size 8
l1i_latency 1

l1d_size 32
l1d_set 64
l1d_way 8
l1d_rq_size 64
l1d_wq_size 64
l1d_pq_size 8
l1d_mshr_size 16
l1d_latency 4

l2c_size 256
l2c_set 512
l2c_way 8
l2c_rq_size 32
l2c_wq_size 32
l2c_pq_size 32
l2c_mshr_size 32
l2c_latency 10

llc_size 2048
llc_set 2048
llc_way 16
llc_rq_size 32
llc_wq_size 32
llc_pq_size 32
llc_mshr_size 64
llc_latency 20

dram_channel_width 8
dram_wq_size 64
dram_rq_size 64
tRP 15
tRCD 15
tCAS 12.5
dram_dbus_turn_around_time 30
dram_write_high_wm 56
dram_write_low_wm 48
min_dram_writes_per_switch 16
dram_mtps 2400
dram_dbus_return_time 13

mlop_pref_degree 16
mlop_num_updates 500
mlop_l1d_thresh 2
mlop_l2c_thresh 0.75
mlop_llc_thresh 0.3
mlop_debug_level 0
mlop_blocks_in_cache 4096
mlop_blocks_in_zone 64
mlop_amt_size 2048
mlop_PF_DEGREE 16
mlop_NUM_UPDATES 500
mlop_L1D_THRESH 1000
mlop_L2C_THRESH 375
mlop_LLC_THRESH 150
mlop_ORIGIN 63
mlop_MAX_OFFSET 63
mlop_MIN_OFFSET -63
mlop_ORIGIN 63
mlop_NUM_OFFSETS 127


Heartbeat CPU  0 instructions:    1000001 cycles:    1372612 heartbeat IPC: 0.72854 cumulative IPC: 0.72854 (Simulation time: 0 hr 0 min 0 sec) 
Heartbeat CPU  0 instructions:    2000002 cycles:    2745954 heartbeat IPC: 0.72815 cumulative IPC: 0.72835 (Simulation time: 0 hr 0 min 1 sec) 
Heartbeat CPU  0 instructions:    3000000 cycles:    4124808 heartbeat IPC: 0.72524 cumulative IPC: 0.72731 (Simulation time: 0 hr 0 min 2 sec) 
Heartbeat CPU  0 instructions:    4000000 cycles:    5500665 heartbeat IPC: 0.72682 cumulative IPC: 0.72718 (Simulation time: 0 hr 0 min 3 sec) 
Heartbeat CPU  0 instructions:    5000001 cycles:    6873253 heartbeat IPC: 0.72855 cumulative IPC: 0.72746 (Simulation time: 0 hr 0 min 4 sec) 
Heartbeat CPU  0 instructions:    6000000 cycles:    8254584 heartbeat IPC: 0.72394 cumulative IPC: 0.72687 (Simulation time: 0 hr 0 min 5 sec) 
Heartbeat CPU  0 instructions:    7000000 cycles:    9632883 heartbeat IPC: 0.72553 cumulative IPC: 0.72668 (Simulation time: 0 hr 0 min 5 sec) 
Heartbeat CPU  0 instructions:    8000000 cycles:   11011724 heartbeat IPC: 0.72525 cumulative IPC: 0.72650 (Simulation time: 0 hr 0 min 6 sec) 
Heartbeat CPU  0 instructions:    9000003 cycles:   12391282 heartbeat IPC: 0.72487 cumulative IPC: 0.72632 (Simulation time: 0 hr 0 min 7 sec) 
Heartbeat CPU  0 instructions:   10000002 cycles:   13768944 heartbeat IPC: 0.72587 cumulative IPC: 0.72627 (Simulation time: 0 hr 0 min 8 sec) 

Warmup complete CPU  0 instructions:   10000002 cycles:   13768944 (Simulation time: 0 hr 0 min 8 sec) 

Heartbeat CPU  0 instructions:   11000002 cycles:   17103786 heartbeat IPC: 0.29986 cumulative IPC: 0.29986 (Simulation time: 0 hr 0 min 10 sec) 
Heartbeat CPU  0 instructions:   12000000 cycles:   21449171 heartbeat IPC: 0.23013 cumulative IPC: 0.26041 (Simulation time: 0 hr 0 min 12 sec) 
Heartbeat CPU  0 instructions:   13000000 cycles:   25678318 heartbeat IPC: 0.23645 cumulative IPC: 0.25190 (Simulation time: 0 hr 0 min 14 sec) 
Heartbeat CPU  0 instructions:   14000001 cycles:   29867304 heartbeat IPC: 0.23872 cumulative IPC: 0.24847 (Simulation time: 0 hr 0 min 16 sec) 
Heartbeat CPU  0 instructions:   15000001 cycles:   34040179 heartbeat IPC: 0.23964 cumulative IPC: 0.24665 (Simulation time: 0 hr 0 min 18 sec) 
Heartbeat CPU  0 instructions:   16000000 cycles:   38210369 heartbeat IPC: 0.23980 cumulative IPC: 0.24548 (Simulation time: 0 hr 0 min 20 sec) 
Heartbeat CPU  0 instructions:   17000002 cycles:   42381237 heartbeat IPC: 0.23976 cumulative IPC: 0.24465 (Simulation time: 0 hr 0 min 21 sec) 
Heartbeat CPU  0 instructions:   18000001 cycles:   46511239 heartbeat IPC: 0.24213 cumulative IPC: 0.24433 (Simulation time: 0 hr 0 min 23 sec) 
Heartbeat CPU  0 instructions:   19000000 cycles:   50653603 heartbeat IPC: 0.24141 cumulative IPC: 0.24400 (Simulation time: 0 hr 0 min 25 sec) 
Heartbeat CPU  0 instructions:   20000000 cycles:   54811481 heartbeat IPC: 0.24051 cumulative IPC: 0.24365 (Simulation time: 0 hr 0 min 27 sec) 
Heartbeat CPU  0 instructions:   21000002 cycles:   58995619 heartbeat IPC: 0.23900 cumulative IPC: 0.24322 (Simulation time: 0 hr 0 min 29 sec) 
Heartbeat CPU  0 instructions:   22000001 cycles:   63155191 heartbeat IPC: 0.24041 cumulative IPC: 0.24298 (Simulation time: 0 hr 0 min 30 sec) 
Heartbeat CPU  0 instructions:   23000000 cycles:   67325994 heartbeat IPC: 0.23976 cumulative IPC: 0.24273 (Simulation time: 0 hr 0 min 32 sec) 
Heartbeat CPU  0 instructions:   24000000 cycles:   71494030 heartbeat IPC: 0.23992 cumulative IPC: 0.24253 (Simulation time: 0 hr 0 min 34 sec) 
Heartbeat CPU  0 instructions:   25000003 cycles:   75655561 heartbeat IPC: 0.24030 cumulative IPC: 0.24238 (Simulation time: 0 hr 0 min 36 sec) 
Heartbeat CPU  0 instructions:   26000000 cycles:   79811713 heartbeat IPC: 0.24061 cumulative IPC: 0.24227 (Simulation time: 0 hr 0 min 38 sec) 
Heartbeat CPU  0 instructions:   27000001 cycles:   83965642 heartbeat IPC: 0.24074 cumulative IPC: 0.24218 (Simulation time: 0 hr 0 min 39 sec) 
Heartbeat CPU  0 instructions:   28000000 cycles:   88124070 heartbeat IPC: 0.24048 cumulative IPC: 0.24208 (Simulation time: 0 hr 0 min 41 sec) 
Heartbeat CPU  0 instructions:   29000003 cycles:   92270170 heartbeat IPC: 0.24119 cumulative IPC: 0.24203 (Simulation time: 0 hr 0 min 43 sec) 
Heartbeat CPU  0 instructions:   30000003 cycles:   96396302 heartbeat IPC: 0.24236 cumulative IPC: 0.24205 (Simulation time: 0 hr 0 min 45 sec) 
Heartbeat CPU  0 instructions:   31000001 cycles:  100603984 heartbeat IPC: 0.23766 cumulative IPC: 0.24184 (Simulation time: 0 hr 0 min 47 sec) 
Heartbeat CPU  0 instructions:   32000000 cycles:  104725222 heartbeat IPC: 0.24265 cumulative IPC: 0.24187 (Simulation time: 0 hr 0 min 48 sec) 
Heartbeat CPU  0 instructions:   33000001 cycles:  108930897 heartbeat IPC: 0.23777 cumulative IPC: 0.24169 (Simulation time: 0 hr 0 min 50 sec) 
Heartbeat CPU  0 instructions:   34000000 cycles:  113103983 heartbeat IPC: 0.23963 cumulative IPC: 0.24161 (Simulation time: 0 hr 0 min 52 sec) 
Heartbeat CPU  0 instructions:   35000003 cycles:  117243195 heartbeat IPC: 0.24159 cumulative IPC: 0.24161 (Simulation time: 0 hr 0 min 54 sec) 
Heartbeat CPU  0 instructions:   36000000 cycles:  121392363 heartbeat IPC: 0.24101 cumulative IPC: 0.24158 (Simulation time: 0 hr 0 min 56 sec) 
Heartbeat CPU  0 instructions:   37000000 cycles:  125509904 heartbeat IPC: 0.24286 cumulative IPC: 0.24163 (Simulation time: 0 hr 0 min 58 sec) 
Heartbeat CPU  0 instructions:   38000002 cycles:  129660051 heartbeat IPC: 0.24096 cumulative IPC: 0.24161 (Simulation time: 0 hr 0 min 59 sec) 
Heartbeat CPU  0 instructions:   39000001 cycles:  134687895 heartbeat IPC: 0.19889 cumulative IPC: 0.23983 (Simulation time: 0 hr 1 min 1 sec) 
Heartbeat CPU  0 instructions:   40000000 cycles:  139459530 heartbeat IPC: 0.20957 cumulative IPC: 0.23868 (Simulation time: 0 hr 1 min 3 sec) 
Heartbeat CPU  0 instructions:   41000000 cycles:  144229413 heartbeat IPC: 0.20965 cumulative IPC: 0.23762 (Simulation time: 0 hr 1 min 5 sec) 
Heartbeat CPU  0 instructions:   42000001 cycles:  148979602 heartbeat IPC: 0.21052 cumulative IPC: 0.23667 (Simulation time: 0 hr 1 min 7 sec) 
Heartbeat CPU  0 instructions:   43000003 cycles:  153722598 heartbeat IPC: 0.21084 cumulative IPC: 0.23579 (Simulation time: 0 hr 1 min 9 sec) 
Heartbeat CPU  0 instructions:   44000000 cycles:  158434166 heartbeat IPC: 0.21224 cumulative IPC: 0.23503 (Simulation time: 0 hr 1 min 11 sec) 
Heartbeat CPU  0 instructions:   45000002 cycles:  163197842 heartbeat IPC: 0.20992 cumulative IPC: 0.23423 (Simulation time: 0 hr 1 min 13 sec) 
Heartbeat CPU  0 instructions:   46000001 cycles:  167977848 heartbeat IPC: 0.20920 cumulative IPC: 0.23345 (Simulation time: 0 hr 1 min 15 sec) 
Heartbeat CPU  0 instructions:   47000000 cycles:  172727834 heartbeat IPC: 0.21053 cumulative IPC: 0.23276 (Simulation time: 0 hr 1 min 17 sec) 
Heartbeat CPU  0 instructions:   48000000 cycles:  177454571 heartbeat IPC: 0.21156 cumulative IPC: 0.23215 (Simulation time: 0 hr 1 min 19 sec) 
Heartbeat CPU  0 instructions:   49000000 cycles:  182212941 heartbeat IPC: 0.21016 cumulative IPC: 0.23153 (Simulation time: 0 hr 1 min 21 sec) 
Heartbeat CPU  0 instructions:   50000001 cycles:  186593473 heartbeat IPC: 0.22828 cumulative IPC: 0.23145 (Simulation time: 0 hr 1 min 23 sec) 
Heartbeat CPU  0 instructions:   51000000 cycles:  189933719 heartbeat IPC: 0.29938 cumulative IPC: 0.23274 (Simulation time: 0 hr 1 min 24 sec) 
Heartbeat CPU  0 instructions:   52000000 cycles:  193274365 heartbeat IPC: 0.29934 cumulative IPC: 0.23398 (Simulation time: 0 hr 1 min 26 sec) 
Heartbeat CPU  0 instructions:   53000000 cycles:  196624723 heartbeat IPC: 0.29848 cumulative IPC: 0.23516 (Simulation time: 0 hr 1 min 27 sec) 
Heartbeat CPU  0 instructions:   54000000 cycles:  199954356 heartbeat IPC: 0.30033 cumulative IPC: 0.23632 (Simulation time: 0 hr 1 min 29 sec) 
Heartbeat CPU  0 instructions:   55000002 cycles:  203280194 heartbeat IPC: 0.30068 cumulative IPC: 0.23745 (Simulation time: 0 hr 1 min 30 sec) 
Heartbeat CPU  0 instructions:   56000000 cycles:  206612039 heartbeat IPC: 0.30013 cumulative IPC: 0.23854 (Simulation time: 0 hr 1 min 31 sec) 
Heartbeat CPU  0 instructions:   57000002 cycles:  209944339 heartbeat IPC: 0.30009 cumulative IPC: 0.23958 (Simulation time: 0 hr 1 min 33 sec) 
Heartbeat CPU  0 instructions:   58000002 cycles:  213262546 heartbeat IPC: 0.30137 cumulative IPC: 0.24061 (Simulation time: 0 hr 1 min 34 sec) 
Heartbeat CPU  0 instructions:   59000000 cycles:  216595141 heartbeat IPC: 0.30007 cumulative IPC: 0.24159 (Simulation time: 0 hr 1 min 36 sec) 
Heartbeat CPU  0 instructions:   60000000 cycles:  217585640 heartbeat IPC: 1.00959 cumulative IPC: 0.24532 (Simulation time: 0 hr 1 min 37 sec) 
Finished CPU 0 instructions: 50000002 cycles: 203816706 cumulative IPC: 0.24532 (Simulation time: 0 hr 1 min 37 sec) 

ChampSim completed all CPUs

[ROI Statistics]
Core_0_instructions 50000002
Core_0_cycles 203816706
Core_0_IPC 0.24532

Core_0_branch_prediction_accuracy 78.84127
Core_0_branch_MPKI 43.90428
Core_0_average_ROB_occupancy_at_mispredict 22.17199

Core_0_L1D_total_access 11920040
Core_0_L1D_total_hit 10085653
Core_0_L1D_total_miss 1834387
Core_0_L1D_loads 10569238
Core_0_L1D_load_hit 8749020
Core_0_L1D_load_miss 1820218
Core_0_L1D_RFOs 1350802
Core_0_L1D_RFO_hit 1336633
Core_0_L1D_RFO_miss 14169
Core_0_L1D_prefetches 0
Core_0_L1D_prefetch_hit 0
Core_0_L1D_prefetch_miss 0
Core_0_L1D_writebacks 0
Core_0_L1D_writeback_hit 0
Core_0_L1D_writeback_miss 0
Core_0_L1D_prefetch_requested 0
Core_0_L1D_prefetch_dropped 0
Core_0_L1D_prefetch_issued 0
Core_0_L1D_prefetch_filled 0
Core_0_L1D_prefetch_useful 0
Core_0_L1D_prefetch_useless 0
Core_0_L1D_prefetch_late 0
Core_0_L1D_average_miss_latency 34.79834

Core_0_L1D_rq_access 13663608
Core_0_L1D_rq_forward 0
Core_0_L1D_rq_merged 2970638
Core_0_L1D_rq_to_cache 10692970
Core_0_L1D_rq_full 0

Core_0_L1D_wq_access 1400936
Core_0_L1D_wq_forward 0
Core_0_L1D_wq_merged 2042
Core_0_L1D_wq_to_cache 1398894
Core_0_L1D_wq_full 198331

Core_0_L1D_pq_access 0
Core_0_L1D_pq_forward 0
Core_0_L1D_pq_merged 0
Core_0_L1D_pq_to_cache 0
Core_0_L1D_pq_full 0

Core_0_L1D_acc_epochs 207044
Core_0_L1D_acc_level_0 207044
Core_0_L1D_acc_level_1 0
Core_0_L1D_acc_level_2 0
Core_0_L1D_acc_level_3 0
Core_0_L1D_acc_level_4 0
Core_0_L1D_acc_level_5 0
Core_0_L1D_acc_level_6 0
Core_0_L1D_acc_level_7 0
Core_0_L1D_acc_level_8 0
Core_0_L1D_acc_level_9 0

Core_0_L1I_total_access 10546190
Core_0_L1I_total_hit 10546148
Core_0_L1I_total_miss 42
Core_0_L1I_loads 10546190
Core_0_L1I_load_hit 10546148
Core_0_L1I_load_miss 42
Core_0_L1I_RFOs 0
Core_0_L1I_RFO_hit 0
Core_0_L1I_RFO_miss 0
Core_0_L1I_prefetches 0
Core_0_L1I_prefetch_hit 0
Core_0_L1I_prefetch_miss 0
Core_0_L1I_writebacks 0
Core_0_L1I_writeback_hit 0
Core_0_L1I_writeback_miss 0
Core_0_L1I_prefetch_requested 0
Core_0_L1I_prefetch_dropped 0
Core_0_L1I_prefetch_issued 0
Core_0_L1I_prefetch_filled 0
Core_0_L1I_prefetch_useful 0
Core_0_L1I_prefetch_useless 0
Core_0_L1I_prefetch_late 0
Core_0_L1I_average_miss_latency 307.14286

Core_0_L1I_rq_access 50000224
Core_0_L1I_rq_forward 0
Core_0_L1I_rq_merged 39454024
Core_0_L1I_rq_to_cache 10546200
Core_0_L1I_rq_full 0

Core_0_L1I_wq_access 0
Core_0_L1I_wq_forward 0
Core_0_L1I_wq_merged 0
Core_0_L1I_wq_to_cache 0
Core_0_L1I_wq_full 0

Core_0_L1I_pq_access 0
Core_0_L1I_pq_forward 0
Core_0_L1I_pq_merged 0
Core_0_L1I_pq_to_cache 0
Core_0_L1I_pq_full 0

Core_0_L1I_acc_epochs 207044
Core_0_L1I_acc_level_0 207044
Core_0_L1I_acc_level_1 0
Core_0_L1I_acc_level_2 0
Core_0_L1I_acc_level_3 0
Core_0_L1I_acc_level_4 0
Core_0_L1I_acc_level_5 0
Core_0_L1I_acc_level_6 0
Core_0_L1I_acc_level_7 0
Core_0_L1I_acc_level_8 0
Core_0_L1I_acc_level_9 0

Core_0_L2C_total_access 2923285
Core_0_L2C_total_hit 1460827
Core_0_L2C_total_miss 1462458
Core_0_L2C_loads 1820260
Core_0_L2C_load_hit 1296273
Core_0_L2C_load_miss 523987
Core_0_L2C_RFOs 14169
Core_0_L2C_RFO_hit 2202
Core_0_L2C_RFO_miss 11967
Core_0_L2C_prefetches 928433
Core_0_L2C_prefetch_hit 1948
Core_0_L2C_prefetch_miss 926485
Core_0_L2C_writebacks 160423
Core_0_L2C_writeback_hit 160404
Core_0_L2C_writeback_miss 19
Core_0_L2C_prefetch_requested 3111216
Core_0_L2C_prefetch_dropped 0
Core_0_L2C_prefetch_issued 3111216
Core_0_L2C_prefetch_filled 1051110
Core_0_L2C_prefetch_useful 820586
Core_0_L2C_prefetch_useless 230079
Core_0_L2C_prefetch_late 4981
Core_0_L2C_average_miss_latency 66.49925

Core_0_L2C_rq_access 1834429
Core_0_L2C_rq_forward 0
Core_0_L2C_rq_merged 0
Core_0_L2C_rq_to_cache 1834429
Core_0_L2C_rq_full 0

Core_0_L2C_wq_access 160423
Core_0_L2C_wq_forward 0
Core_0_L2C_wq_merged 0
Core_0_L2C_wq_to_cache 160423
Core_0_L2C_wq_full 0

Core_0_L2C_pq_access 3111216
Core_0_L2C_pq_forward 0
Core_0_L2C_pq_merged 1356
Core_0_L2C_pq_to_cache 3109860
Core_0_L2C_pq_full 0

Core_0_L2C_acc_epochs 207044
Core_0_L2C_acc_level_0 31855
Core_0_L2C_acc_level_1 507
Core_0_L2C_acc_level_2 635
Core_0_L2C_acc_level_3 1383
Core_0_L2C_acc_level_4 5955
Core_0_L2C_acc_level_5 19878
Core_0_L2C_acc_level_6 38711
Core_0_L2C_acc_level_7 40143
Core_0_L2C_acc_level_8 24407
Core_0_L2C_acc_level_9 43570

Core_0_LLC_total_access 3657810
Core_0_LLC_total_hit 1398834
Core_0_LLC_total_miss 2258976
Core_0_LLC_loads 519018
Core_0_LLC_load_hit 406375
Core_0_LLC_load_miss 112643
Core_0_LLC_RFOs 11954
Core_0_LLC_RFO_hit 3654
Core_0_LLC_RFO_miss 8300
Core_0_LLC_prefetches 2969683
Core_0_LLC_prefetch_hit 838850
Core_0_LLC_prefetch_miss 2130833
Core_0_LLC_writebacks 157155
Core_0_LLC_writeback_hit 149955
Core_0_LLC_writeback_miss 7200
Core_0_LLC_prefetch_requested 0
Core_0_LLC_prefetch_dropped 0
Core_0_LLC_prefetch_issued 0
Core_0_LLC_prefetch_filled 2255458
Core_0_LLC_prefetch_useful 235142
Core_0_LLC_prefetch_useless 1988337
Core_0_LLC_prefetch_late 1547
Core_0_LLC_average_miss_latency 163.41963

Core_0_LLC_rq_access 530973
Core_0_LLC_rq_forward 0
Core_0_LLC_rq_merged 0
Core_0_LLC_rq_to_cache 530972
Core_0_LLC_rq_full 0

Core_0_LLC_wq_access 157155
Core_0_LLC_wq_forward 3
Core_0_LLC_wq_merged 0
Core_0_LLC_wq_to_cache 157155
Core_0_LLC_wq_full 0

Core_0_LLC_pq_access 3099256
Core_0_LLC_pq_forward 0
Core_0_LLC_pq_merged 275
Core_0_LLC_pq_to_cache 3098979
Core_0_LLC_pq_full 0

Core_0_LLC_acc_epochs 212486
Core_0_LLC_acc_level_0 127342
Core_0_LLC_acc_level_1 35755
Core_0_LLC_acc_level_2 13107
Core_0_LLC_acc_level_3 7989
Core_0_LLC_acc_level_4 5475
Core_0_LLC_acc_level_5 6238
Core_0_LLC_acc_level_6 3911
Core_0_LLC_acc_level_7 2877
Core_0_LLC_acc_level_8 2108
Core_0_LLC_acc_level_9 7684

Core_0_major_page_fault 0
Core_0_minor_page_fault 26846

[MLOP] History of tracked zone:
IIIIIIIIIIIIIIIIIIIIIIIIIIIIIIIIIIIIIIIIIIIIIIIIIIIIIIIIIIIIIIII
A2222222222222222IIIIIIIIIIIIIIIIIIIIIIIIIIIIIIIIIIIIIIIIIIIIIII
AA2222222222222222IIIIIIIIIIIIIIIIIIIIIIIIIIIIIIIIIIIIIIIIIIIIII
AAA2222222222222222IIIIIIIIIIIIIIIIIIIIIIIIIIIIIIIIIIIIIIIIIIIII
AAAA2222222222222222IIIIIIIIIIIIIIIIIIIIIIIIIIIIIIIIIIIIIIIIIIII
AAAAA2222222222222222IIIIIIIIIIIIIIIIIIIIIIIIIIIIIIIIIIIIIIIIIII
AAAAAA2222222222222222IIIIIIIIIIIIIIIIIIIIIIIIIIIIIIIIIIIIIIIIII
AAAAAAA2222222222222222IIIIIIIIIIIIIIIIIIIIIIIIIIIIIIIIIIIIIIIII
AAAAAAAA2222222222222222IIIIIIIIIIIIIIIIIIIIIIIIIIIIIIIIIIIIIIII
AAAAAAAAA2222222222222222IIIIIIIIIIIIIIIIIIIIIIIIIIIIIIIIIIIIIII
AAAAAAAAAA2222222222222222IIIIIIIIIIIIIIIIIIIIIIIIIIIIIIIIIIIIII
AAAAAAAAAAA2222222222222222IIIIIIIIIIIIIIIIIIIIIIIIIIIIIIIIIIIII
AAAAAAAAAAAA2222222222222222IIIIIIIIIIIIIIIIIIIIIIIIIIIIIIIIIIII
AAAAAAAAAAAAA2222222222222222IIIIIIIIIIIIIIIIIIIIIIIIIIIIIIIIIII
AAAAAAAAAAAAAA2222222222222222IIIIIIIIIIIIIIIIIIIIIIIIIIIIIIIIII
AAAAAAAAAAAAAAA2222222222222222IIIIIIIIIIIIIIIIIIIIIIIIIIIIIIIII
AAAAAAAAAAAAAAAA2222222222222222IIIIIIIIIIIIIIIIIIIIIIIIIIIIIIII
AAAAAAAAAAAAAAAAA2222222222222222IIIIIIIIIIIIIIIIIIIIIIIIIIIIIII
AAAAAAAAAAAAAAAAAA2222222222222222IIIIIIIIIIIIIIIIIIIIIIIIIIIIII
AAAAAAAAAAAAAAAAAAA2222222222222222IIIIIIIIIIIIIIIIIIIIIIIIIIIII
AAAAAAAAAAAAAAAAAAAA2222222222222222IIIIIIIIIIIIIIIIIIIIIIIIIIII
AAAAAAAAAAAAAAAAAAAAA2222222222222222IIIIIIIIIIIIIIIIIIIIIIIIIII
AAAAAAAAAAAAAAAAAAAAAA2222222222222222IIIIIIIIIIIIIIIIIIIIIIIIII
AAAAAAAAAAAAAAAAAAAAAAA2222222222222222IIIIIIIIIIIIIIIIIIIIIIIII
AAAAAAAAAAAAAAAAAAAAAAAA2222222222222222IIIIIIIIIIIIIIIIIIIIIIII
AAAAAAAAAAAAAAAAAAAAAAAAA2222222222222222IIIIIIIIIIIIIIIIIIIIIII
AAAAAAAAAAAAAAAAAAAAAAAAAA2222222222222222IIIIIIIIIIIIIIIIIIIIII
AAAAAAAAAAAAAAAAAAAAAAAAAAA2222222222222222IIIIIIIIIIIIIIIIIIIII
AAAAAAAAAAAAAAAAAAAAAAAAAAAA2222222222222222IIIIIIIIIIIIIIIIIIII
AAAAAAAAAAAAAAAAAAAAAAAAAAAAA2222222222222222IIIIIIIIIIIIIIIIIII
AAAAAAAAAAAAAAAAAAAAAAAAAAAAAA2222222222222222IIIIIIIIIIIIIIIIII
AAAAAAAAAAAAAAAAAAAAAAAAAAAAAAA2222222222222222IIIIIIIIIIIIIIIII
AAAAAAAAAAAAAAAAAAAAAAAAAAAAAAAA2222222222222222IIIIIIIIIIIIIIII
AAAAAAAAAAAAAAAAAAAAAAAAAAAAAAAAA2222222222222222IIIIIIIIIIIIIII
AAAAAAAAAAAAAAAAAAAAAAAAAAAAAAAAAA2222222222222222IIIIIIIIIIIIII
AAAAAAAAAAAAAAAAAAAAAAAAAAAAAAAAAAA2222222222222222IIIIIIIIIIIII
AAAAAAAAAAAAAAAAAAAAAAAAAAAAAAAAAAAA2222222222222222IIIIIIIIIIII
AAAAAAAAAAAAAAAAAAAAAAAAAAAAAAAAAAAAA2222222222222222IIIIIIIIIII
AAAAAAAAAAAAAAAAAAAAAAAAAAAAAAAAAAAAAA2222222222222222IIIIIIIIII
AAAAAAAAAAAAAAAAAAAAAAAAAAAAAAAAAAAAAAA2222222222222222IIIIIIIII
AAAAAAAAAAAAAAAAAAAAAAAAAAAAAAAAAAAAAAAA2222222222222222IIIIIIII
AAAAAAAAAAAAAAAAAAAAAAAAAAAAAAAAAAAAAAAAA2222222222222222IIIIIII
AAAAAAAAAAAAAAAAAAAAAAAAAAAAAAAAAAAAAAAAAA2222222222222222IIIIII
AAAAAAAAAAAAAAAAAAAAAAAAAAAAAAAAAAAAAAAAAAA2222222222222222IIIII
AAAAAAAAAAAAAAAAAAAAAAAAAAAAAAAAAAAAAAAAAAAA2222222222222222IIII
AAAAAAAAAAAAAAAAAAAAAAAAAAAAAAAAAAAAAAAAAAAAA2222222222222222III
AAAAAAAAAAAAAAAAAAAAAAAAAAAAAAAAAAAAAAAAAAAAAA2222222222222222II
AAAAAAAAAAAAAAAAAAAAAAAAAAAAAAAAAAAAAAAAAAAAAAA2222222222222222I
AAAAAAAAAAAAAAAAAAAAAAAAAAAAAAAAAAAAAAAAAAAAAAAA2222222222222222
AAAAAAAAAAAAAAAAAAAAAAAAAAAAAAAAAAAAAAAAAAAAAAAAA222222222222222
AAAAAAAAAAAAAAAAAAAAAAAAAAAAAAAAAAAAAAAAAAAAAAAAAA22222222222222
AAAAAAAAAAAAAAAAAAAAAAAAAAAAAAAAAAAAAAAAAAAAAAAAAAA2222222222222
AAAAAAAAAAAAAAAAAAAAAAAAAAAAAAAAAAAAAAAAAAAAAAAAAAAA222222222222
AAAAAAAAAAAAAAAAAAAAAAAAAAAAAAAAAAAAAAAAAAAAAAAAAAAAA22222222222
AAAAAAAAAAAAAAAAAAAAAAAAAAAAAAAAAAAAAAAAAAAAAAAAAAAAAA2222222222
AAAAAAAAAAAAAAAAAAAAAAAAAAAAAAAAAAAAAAAAAAAAAAAAAAAAAAA222222222
AAAAAAAAAAAAAAAAAAAAAAAAAAAAAAAAAAAAAAAAAAAAAAAAAAAAAAAA22222222
AAAAAAAAAAAAAAAAAAAAAAAAAAAAAAAAAAAAAAAAAAAAAAAAAAAAAAAAA2222222
AAAAAAAAAAAAAAAAAAAAAAAAAAAAAAAAAAAAAAAAAAAAAAAAAAAAAAAAAA222222
AAAAAAAAAAAAAAAAAAAAAAAAAAAAAAAAAAAAAAAAAAAAAAAAAAAAAAAAAAA22222
AAAAAAAAAAAAAAAAAAAAAAAAAAAAAAAAAAAAAAAAAAAAAAAAAAAAAAAAAAAA2222
AAAAAAAAAAAAAAAAAAAAAAAAAAAAAAAAAAAAAAAAAAAAAAAAAAAAAAAAAAAAA222
AAAAAAAAAAAAAAAAAAAAAAAAAAAAAAAAAAAAAAAAAAAAAAAAAAAAAAAAAAAAAA22
AAAAAAAAAAAAAAAAAAAAAAAAAAAAAAAAAAAAAAAAAAAAAAAAAAAAAAAAAAAAAAA2
AAAAAAAAAAAAAAAAAAAAAAAAAAAAAAAAAAAAAAAAAAAAAAAAAAAAAAAAAAAAAAAA
AIAAAAAAAAAAAAAAAAAAAAAAAAAAAAAAAAAAAAAAAAAAAAAAAAAAAAAAAAAAAAAA
AIIAAAAAAAAAAAAAAAAAAAAAAAAAAAAAAAAAAAAAAAAAAAAAAAAAAAAAAAAAAAAA
AIIIAAAAAAAAAAAAAAAAAAAAAAAAAAAAAAAAAAAAAAAAAAAAAAAAAAAAAAAAAAAA
AIIIIAAAAAAAAAAAAAAAAAAAAAAAAAAAAAAAAAAAAAAAAAAAAAAAAAAAAAAAAAAA
AIIIIIAAAAAAAAAAAAAAAAAAAAAAAAAAAAAAAAAAAAAAAAAAAAAAAAAAAAAAAAAA
AIIIIIIAAAAAAAAAAAAAAAAAAAAAAAAAAAAAAAAAAAAAAAAAAAAAAAAAAAAAAAAA
AIIIIIIIAAAAAAAAAAAAAAAAAAAAAAAAAAAAAAAAAAAAAAAAAAAAAAAAAAAAAAAA
AIIIIIIIIAAAAAAAAAAAAAAAAAAAAAAAAAAAAAAAAAAAAAAAAAAAAAAAAAAAAAAA
AIIIIIIIIIAAAAAAAAAAAAAAAAAAAAAAAAAAAAAAAAAAAAAAAAAAAAAAAAAAAAAA
AIIIIIIIIIIAAAAAAAAAAAAAAAAAAAAAAAAAAAAAAAAAAAAAAAAAAAAAAAAAAAAA
AIIIIIIIIIIIAAAAAAAAAAAAAAAAAAAAAAAAAAAAAAAAAAAAAAAAAAAAAAAAAAAA
AIIIIIIIIIIIIAAAAAAAAAAAAAAAAAAAAAAAAAAAAAAAAAAAAAAAAAAAAAAAAAAA
AIIIIIIIIIIIIIAAAAAAAAAAAAAAAAAAAAAAAAAAAAAAAAAAAAAAAAAAAAAAAAAA
AIIIIIIIIIIIIIIAAAAAAAAAAAAAAAAAAAAAAAAAAAAAAAAAAAAAAAAAAAAAAAAA
AIIIIIIIIIIIIIIIAAAAAAAAAAAAAAAAAAAAAAAAAAAAAAAAAAAAAAAAAAAAAAAA
AIIIIIIIIIIIIIIIIAAAAAAAAAAAAAAAAAAAAAAAAAAAAAAAAAAAAAAAAAAAAAAA
AIIIIIIIIIIIIIIIIIAAAAAAAAAAAAAAAAAAAAAAAAAAAAAAAAAAAAAAAAAAAAAA
AIIIIIIIIIIIIIIIIIIAAAAAAAAAAAAAAAAAAAAAAAAAAAAAAAAAAAAAAAAAAAAA
AIIIIIIIIIIIIIIIIIIIAAAAAAAAAAAAAAAAAAAAAAAAAAAAAAAAAAAAAAAAAAAA
AIIIIIIIIIIIIIIIIIIIIAAAAAAAAAAAAAAAAAAAAAAAAAAAAAAAAAAAAAAAAAAA
AIIIIIIIIIIIIIIIIIIIIIAAAAAAAAAAAAAAAAAAAAAAAAAAAAAAAAAAAAAAAAAA
AIIIIIIIIIIIIIIIIIIIIIIAAAAAAAAAAAAAAAAAAAAAAAAAAAAAAAAAAAAAAAAA
AIIIIIIIIIIIIIIIIIIIIIIIAAAAAAAAAAAAAAAAAAAAAAAAAAAAAAAAAAAAAAAA
AIIIIIIIIIIIIIIIIIIIIIIIIAAAAAAAAAAAAAAAAAAAAAAAAAAAAAAAAAAAAAAA
AIIIIIIIIIIIIIIIIIIIIIIIIIAAAAAAAAAAAAAAAAAAAAAAAAAAAAAAAAAAAAAA
AIIIIIIIIIIIIIIIIIIIIIIIIIIAAAAAAAAAAAAAAAAAAAAAAAAAAAAAAAAAAAAA
AIIIIIIIIIIIIIIIIIIIIIIIIIIIAAAAAAAAAAAAAAAAAAAAAAAAAAAAAAAAAAAA
AIIIIIIIIIIIIIIIIIIIIIIIIIIIIAAAAAAAAAAAAAAAAAAAAAAAAAAAAAAAAAAA
AIIIIIIIIIIIIIIIIIIIIIIIIIIIIIAAAAAAAAAAAAAAAAAAAAAAAAAAAAAAAAAA
AIIIIIIIIIIIIIIIIIIIIIIIIIIIIIIAAAAAAAAAAAAAAAAAAAAAAAAAAAAAAAAA
AIIIIIIIIIIIIIIIIIIIIIIIIIIIIIIIAAAAAAAAAAAAAAAAAAAAAAAAAAAAAAAA
AIIIIIIIIIIIIIIIIIIIIIIIIIIIIIIIIAAAAAAAAAAAAAAAAAAAAAAAAAAAAAAA
AIIIIIIIIIIIIIIIIIIIIIIIIIIIIIIIIIAAAAAAAAAAAAAAAAAAAAAAAAAAAAAA
AIIIIIIIIIIIIIIIIIIIIIIIIIIIIIIIIIIAAAAAAAAAAAAAAAAAAAAAAAAAAAAA
AIIIIIIIIIIIIIIIIIIIIIIIIIIIIIIIIIIIAAAAAAAAAAAAAAAAAAAAAAAAAAAA
AIIIIIIIIIIIIIIIIIIIIIIIIIIIIIIIIIIIIAAAAAAAAAAAAAAAAAAAAAAAAAAA
AIIIIIIIIIIIIIIIIIIIIIIIIIIIIIIIIIIIIIAAAAAAAAAAAAAAAAAAAAAAAAAA
AIIIIIIIIIIIIIIIIIIIIIIIIIIIIIIIIIIIIIIAAAAAAAAAAAAAAAAAAAAAAAAA
AIIIIIIIIIIIIIIIIIIIIIIIIIIIIIIIIIIIIIIIAAAAAAAAAAAAAAAAAAAAAAAA
AIIIIIIIIIIIIIIIIIIIIIIIIIIIIIIIIIIIIIIIIAAAAAAAAAAAAAAAAAAAAAAA
AIIIIIIIIIIIIIIIIIIIIIIIIIIIIIIIIIIIIIIIIIAAAAAAAAAAAAAAAAAAAAAA
AIIIIIIIIIIIIIIIIIIIIIIIIIIIIIIIIIIIIIIIIIIAAAAAAAAAAAAAAAAAAAAA
AIIIIIIIIIIIIIIIIIIIIIIIIIIIIIIIIIIIIIIIIIIIAAAAAAAAAAAAAAAAAAAA
AIIIIIIIIIIIIIIIIIIIIIIIIIIIIIIIIIIIIIIIIIIIIAAAAAAAAAAAAAAAAAAA
AIIIIIIIIIIIIIIIIIIIIIIIIIIIIIIIIIIIIIIIIIIIIIAAAAAAAAAAAAAAAAAA
AIIIIIIIIIIIIIIIIIIIIIIIIIIIIIIIIIIIIIIIIIIIIIIAAAAAAAAAAAAAAAAA
AIIIIIIIIIIIIIIIIIIIIIIIIIIIIIIIIIIIIIIIIIIIIIIIAAAAAAAAAAAAAAAA
AIIIIIIIIIIIIIIIIIIIIIIIIIIIIIIIIIIIIIIIIIIIIIIIIAAAAAAAAAAAAAAA
AIIIIIIIIIIIIIIIIIIIIIIIIIIIIIIIIIIIIIIIIIIIIIIIIIAAAAAAAAAAAAAA
AIIIIIIIIIIIIIIIIIIIIIIIIIIIIIIIIIIIIIIIIIIIIIIIIIIAAAAAAAAAAAAA
AIIIIIIIIIIIIIIIIIIIIIIIIIIIIIIIIIIIIIIIIIIIIIIIIIIIAAAAAAAAAAAA
AIIIIIIIIIIIIIIIIIIIIIIIIIIIIIIIIIIIIIIIIIIIIIIIIIIIIAAAAAAAAAAA
AIIIIIIIIIIIIIIIIIIIIIIIIIIIIIIIIIIIIIIIIIIIIIIIIIIIIIAAAAAAAAAA
AIIIIIIIIIIIIIIIIIIIIIIIIIIIIIIIIIIIIIIIIIIIIIIIIIIIIIIAAAAAAAAA
AIIIIIIIIIIIIIIIIIIIIIIIIIIIIIIIIIIIIIIIIIIIIIIIIIIIIIIIAAAAAAAA
AIIIIIIIIIIIIIIIIIIIIIIIIIIIIIIIIIIIIIIIIIIIIIIIIIIIIIIIIAAAAAAA
AIIIIIIIIIIIIIIIIIIIIIIIIIIIIIIIIIIIIIIIIIIIIIIIIIIIIIIIIIAAAAAA
AIIIIIIIIIIIIIIIIIIIIIIIIIIIIIIIIIIIIIIIIIIIIIIIIIIIIIIIIIIAAAAA
AIIIIIIIIIIIIIIIIIIIIIIIIIIIIIIIIIIIIIIIIIIIIIIIIIIIIIIIIIIIAAAA
AIIIIIIIIIIIIIIIIIIIIIIIIIIIIIIIIIIIIIIIIIIIIIIIIIIIIIIIIIIIIAAA
AIIIIIIIIIIIIIIIIIIIIIIIIIIIIIIIIIIIIIIIIIIIIIIIIIIIIIIIIIIIIIAA
AIIIIIIIIIIIIIIIIIIIIIIIIIIIIIIIIIIIIIIIIIIIIIIIIIIIIIIIIIIIIIIA
AIIIIIIIIIIIIIIIIIIIIIIIIIIIIIIIIIIIIIIIIIIIIIIIIIIIIIIIIIIIIIII
A2II44I44I4I444I4IIIIIIIIIIIIIIIIIIIIIIIIIIIIIIIIIIIIIIIIIIIIIII
AA2I44444444444444IIIIIIIIIIIIIIIIIIIIIIIIIIIIIIIIIIIIIIIIIIIIII
AAA2444444444444444IIIIIIIIIIIIIIIIIIIIIIIIIIIIIIIIIIIIIIIIIIIII
AAAA2444444444444444IIIIIIIIIIIIIIIIIIIIIIIIIIIIIIIIIIIIIIIIIIII
AAAAA2444444444444444IIIIIIIIIIIIIIIIIIIIIIIIIIIIIIIIIIIIIIIIIII
AAAAAA2444444444444444IIIIIIIIIIIIIIIIIIIIIIIIIIIIIIIIIIIIIIIIII
AAAAAAA2444444444444444IIIIIIIIIIIIIIIIIIIIIIIIIIIIIIIIIIIIIIIII
AAAAAAAA2444444444444444IIIIIIIIIIIIIIIIIIIIIIIIIIIIIIIIIIIIIIII
AAAAAAAAA2444444444444444IIIIIIIIIIIIIIIIIIIIIIIIIIIIIIIIIIIIIII
AAAAAAAAAA2444444444444444IIIIIIIIIIIIIIIIIIIIIIIIIIIIIIIIIIIIII
AAAAAAAAAAA2444444444444444IIIIIIIIIIIIIIIIIIIIIIIIIIIIIIIIIIIII
AAAAAAAAAAAA2444444444444444IIIIIIIIIIIIIIIIIIIIIIIIIIIIIIIIIIII
AAAAAAAAAAAAA2444444444444444IIIIIIIIIIIIIIIIIIIIIIIIIIIIIIIIIII
AAAAAAAAAAAAAA2444444444444444IIIIIIIIIIIIIIIIIIIIIIIIIIIIIIIIII
AAAAAAAAAAAAAAA2444444444444444IIIIIIIIIIIIIIIIIIIIIIIIIIIIIIIII
AAAAAAAAAAAAAAAA2444444444444444IIIIIIIIIIIIIIIIIIIIIIIIIIIIIIII
AAAAAAAAAAAAAAAAA2444444444444444IIIIIIIIIIIIIIIIIIIIIIIIIIIIIII
AAAAAAAAAAAAAAAAAA2444444444444444IIIIIIIIIIIIIIIIIIIIIIIIIIIIII
AAAAAAAAAAAAAAAAAAA2444444444444444IIIIIIIIIIIIIIIIIIIIIIIIIIIII
AAAAAAAAAAAAAAAAAAAA2444444444444444IIIIIIIIIIIIIIIIIIIIIIIIIIII
AAAAAAAAAAAAAAAAAAAAA2444444444444444IIIIIIIIIIIIIIIIIIIIIIIIIII
AAAAAAAAAAAAAAAAAAAAAA2444444444444444IIIIIIIIIIIIIIIIIIIIIIIIII
AAAAAAAAAAAAAAAAAAAAAAA2444444444444444IIIIIIIIIIIIIIIIIIIIIIIII
AAAAAAAAAAAAAAAAAAAAAAAA2444444444444444IIIIIIIIIIIIIIIIIIIIIIII
AAAAAAAAAAAAAAAAAAAAAAAAA2444444444444444IIIIIIIIIIIIIIIIIIIIIII
AAAAAAAAAAAAAAAAAAAAAAAAAA2444444444444444IIIIIIIIIIIIIIIIIIIIII
AAAAAAAAAAAAAAAAAAAAAAAAAAA2444444444444444IIIIIIIIIIIIIIIIIIIII
AAAAAAAAAAAAAAAAAAAAAAAAAAAA2444444444444444IIIIIIIIIIIIIIIIIIII
AAAAAAAAAAAAAAAAAAAAAAAAAAAAA2444444444444444IIIIIIIIIIIIIIIIIII
AAAAAAAAAAAAAAAAAAAAAAAAAAAAAA2444444444444444IIIIIIIIIIIIIIIIII
AAAAAAAAAAAAAAAAAAAAAAAAAAAAAAA2444444444444444IIIIIIIIIIIIIIIII
AAAAAAAAAAAAAAAAAAAAAAAAAAAAAAAA2444444444444444IIIIIIIIIIIIIIII
AAAAAAAAAAAAAAAAAAAAAAAAAAAAAAAAA2444444444444444IIIIIIIIIIIIIII
AAAAAAAAAAAAAAAAAAAAAAAAAAAAAAAAAA2444444444444444IIIIIIIIIIIIII
AAAAAAAAAAAAAAAAAAAAAAAAAAAAAAAAAAA2444444444444444IIIIIIIIIIIII
AAAAAAAAAAAAAAAAAAAAAAAAAAAAAAAAAAAA2444444444444444IIIIIIIIIIII
AAAAAAAAAAAAAAAAAAAAAAAAAAAAAAAAAAAAA2444444444444444IIIIIIIIIII
AAAAAAAAAAAAAAAAAAAAAAAAAAAAAAAAAAAAAA2444444444444444IIIIIIIIII
AAAAAAAAAAAAAAAAAAAAAAAAAAAAAAAAAAAAAAA2444444444444444IIIIIIIII
AAAAAAAAAAAAAAAAAAAAAAAAAAAAAAAAAAAAAAAA2444444444444444IIIIIIII
AAAAAAAAAAAAAAAAAAAAAAAAAAAAAAAAAAAAAAAAA2444444444444444IIIIIII
AAAAAAAAAAAAAAAAAAAAAAAAAAAAAAAAAAAAAAAAAA2444444444444444IIIIII
AAAAAAAAAAAAAAAAAAAAAAAAAAAAAAAAAAAAAAAAAAA2444444444444444IIIII
AAAAAAAAAAAAAAAAAAAAAAAAAAAAAAAAAAAAAAAAAAAA2444444444444444IIII
AAAAAAAAAAAAAAAAAAAAAAAAAAAAAAAAAAAAAAAAAAAAA2444444444444444III
AAAAAAAAAAAAAAAAAAAAAAAAAAAAAAAAAAAAAAAAAAAAAA2444444444444444II
AAAAAAAAAAAAAAAAAAAAAAAAAAAAAAAAAAAAAAAAAAAAAAA2444444444444444I
AAAAAAAAAAAAAAAAAAAAAAAAAAAAAAAAAAAAAAAAAAAAAAAA2444444444444444
AAAAAAAAAAAAAAAAAAAAAAAAAAAAAAAAAAAAAAAAAAAAAAAAA244444444444444
AAAAAAAAAAAAAAAAAAAAAAAAAAAAAAAAAAAAAAAAAAAAAAAAAA24444444444444
AAAAAAAAAAAAAAAAAAAAAAAAAAAAAAAAAAAAAAAAAAAAAAAAAAA2444444444444
AAAAAAAAAAAAAAAAAAAAAAAAAAAAAAAAAAAAAAAAAAAAAAAAAAAA244444444444
AAAAAAAAAAAAAAAAAAAAAAAAAAAAAAAAAAAAAAAAAAAAAAAAAAAAA24444444444
AAAAAAAAAAAAAAAAAAAAAAAAAAAAAAAAAAAAAAAAAAAAAAAAAAAAAA2444444444
AAAAAAAAAAAAAAAAAAAAAAAAAAAAAAAAAAAAAAAAAAAAAAAAAAAAAAA244444444
AAAAAAAAAAAAAAAAAAAAAAAAAAAAAAAAAAAAAAAAAAAAAAAAAAAAAAAA24444444
AAAAAAAAAAAAAAAAAAAAAAAAAAAAAAAAAAAAAAAAAAAAAAAAAAAAAAAAA2444444
AAAAAAAAAAAAAAAAAAAAAAAAAAAAAAAAAAAAAAAAAAAAAAAAAAAAAAAAAA244444
AAAAAAAAAAAAAAAAAAAAAAAAAAAAAAAAAAAAAAAAAAAAAAAAAAAAAAAAAAA24444
AAAAAAAAAAAAAAAAAAAAAAAAAAAAAAAAAAAAAAAAAAAAAAAAAAAAAAAAAAAA2444
AAAAAAAAAAAAAAAAAAAAAAAAAAAAAAAAAAAAAAAAAAAAAAAAAAAAAAAAAAAAA244
AAAAAAAAAAAAAAAAAAAAAAAAAAAAAAAAAAAAAAAAAAAAAAAAAAAAAAAAAAAAAA24
AAAAAAAAAAAAAAAAAAAAAAAAAAAAAAAAAAAAAAAAAAAAAAAAAAAAAAAAAAAAAAA2
AAAAAAAAAAAAAAAAAAAAAAAAAAAAAAAAAAAAAAAAAAAAAAAAAAAAAAAAAAAAAAAA
AAAAAAAAAAAAAAAAAAAAAAAAAAAAAAAAAIAAAAAAAAAAAAAAAAAAAAAAAAAAAAAA
AAIAAAAAAAAAAAAAAAAAAAAAAAAAAAAAAIAAAAAAAAAAAAAAAAAAAAAAAAAAAAAA
AAIAAAAAAAAIAAAAAAAAAAAAAAAAAAAAAIAAAAAAAAAAAAAAAAAAAAAAAAAAAAAA
AAIAAAAAAAAIAAAAAAAAAAAIAAAAAAAAAIAAAAAAAAAAAAAAAAAAAAAAAAAAAAAA
AAIAAAAAAAAIAAAAAAAAAAAIIAAAAAAAAIAAAAAAAAAAAAAAAAAAAAAAAAAAAAAA
AAIIAAAAAAAIAAAAAAAAAAAIIAAAAAAAAIAAAAAAAAAAAAAAAAAAAAAAAAAAAAAA
AAIIIAAAAAAIAAAAAAAAAAAIIAAAAAAAAIAAAAAAAAAAAAAAAAAAAAAAAAAAAAAA
AAIIIAIAAAAIAAAAAAAAAAAIIAAAAAAAAIAAAAAAAAAAAAAAAAAAAAAAAAAAAAAA
AAIIIAIAAAIIAAAAAAAAAAAIIAAAAAAAAIAAAAAAAAAAAAAAAAAAAAAAAAAAAAAA
AAIIIAIAIAIIAAAAAAAAAAAIIAAAAAAAAIAAAAAAAAAAAAAAAAAAAAAAAAAAAAAA
AAIIIAIAIAIIAAAAAAAIAAAIIAAAAAAAAIAAAAAAAAAAAAAAAAAAAAAAAAAAAAAA
AAIIIAIAIAIIAAAAAAAIAAAIIAAIAAAAAIAAAAAAAAAAAAAAAAAAAAAAAAAAAAAA
AAIIIAIAIAIIAAAAAAAIAAAIIAAIAAAAAIAAAAAAAAIAAAAAAAAAAAAAAAAAAAAA
AAIIIAIAIAIIAAAAAAAIAAAIIAAIAAAAAIAAAAAAAAIAAAAAAAAIAAAAAAAAAAAA
AAIIIAIAIAIIAAAAAAAIAAAIIAAIAAAAAIAAAAAAAAIAAAAAAAAIAAAIAAAAAAAA
AAIIIAIAIAIIAAAAAAAIAAAIIAAIAAAAAIAAAAAAAAIAAAAAAAAIAAAIAAAAAAIA
AAIIIAIAIAIIAAAAAAAIAAAIIAAIAAAAAIAAAAAAAAIAAIAAAAAIAAAIAAAAAAIA
AAIIIAIAIAIIAAAAAAAIAAAIIAAIAAAAAIAAAAAAAAIAAIAAIAAIAAAIAAAAAAIA
AAIIIAIAIAIIAAAAAAAIAAAIIAAIAAAAAIAAAAAAAAIAAIAAIIAIAAAIAAAAAAIA
AAIIIAIAIAIIAAAAAAAIAAAIIAAIAAAAAIAAAAAAAAIAAIAAIIAIAAAIAAAAIAIA
AAIIIAIAIAIIAAAAAAAIAAAIIAAIAAAAAIAAAAAAAAIAAIAAIIAIAAAIAAAAIIIA
AAIIIAIAIAIIAAAAAAAIAAAIIAAIAAAAAIAAAAAAAAIAAIAAIIIIAAAIAAAAIIIA
AAIIIAIAIAIIAAAAAAAIAAAIIAAIAAAAAIAAAAAAAAIAAIAAIIIIAIAIAAAAIIIA
AAIIIAIAIAIIAAAAAAAIAAAIIAAIAAAAAIAAAAAAAAIAAIAAIIIIAIIIAAAAIIIA
AAIIIAIAIAIIAAAAAAAIAAAIIAAIAAAAAIAAAAAAAAIAAIAAIIIIAIIIIAAAIIIA
A2244444444444444IIIIIIIIIIIIIIIIIIIIIIIIIIIIIIIIIIIIIIIIIIIIIII
AA2244444444444444IIIIIIIIIIIIIIIIIIIIIIIIIIIIIIIIIIIIIIIIIIIIII
AAA2244444444444444IIIIIIIIIIIIIIIIIIIIIIIIIIIIIIIIIIIIIIIIIIIII
AAAA2244444444444444IIIIIIIIIIIIIIIIIIIIIIIIIIIIIIIIIIIIIIIIIIII
AAAAA2244444444444444IIIIIIIIIIIIIIIIIIIIIIIIIIIIIIIIIIIIIIIIIII
AAAAAA2244444444444444IIIIIIIIIIIIIIIIIIIIIIIIIIIIIIIIIIIIIIIIII
AAAAAAA2244444444444444IIIIIIIIIIIIIIIIIIIIIIIIIIIIIIIIIIIIIIIII
AAAAAAAA2244444444444444IIIIIIIIIIIIIIIIIIIIIIIIIIIIIIIIIIIIIIII
AAAAAAAAA2244444444444444IIIIIIIIIIIIIIIIIIIIIIIIIIIIIIIIIIIIIII
AAAAAAAAAA2244444444444444IIIIIIIIIIIIIIIIIIIIIIIIIIIIIIIIIIIIII
AAAAAAAAAAA2244444444444444IIIIIIIIIIIIIIIIIIIIIIIIIIIIIIIIIIIII
AAAAAAAAAAAA2244444444444444IIIIIIIIIIIIIIIIIIIIIIIIIIIIIIIIIIII
AAAAAAAAAAAAA2244444444444444IIIIIIIIIIIIIIIIIIIIIIIIIIIIIIIIIII
AAAAAAAAAAAAAA2244444444444444IIIIIIIIIIIIIIIIIIIIIIIIIIIIIIIIII
AAAAAAAAAAAAAAA2244444444444444IIIIIIIIIIIIIIIIIIIIIIIIIIIIIIIII
AAAAAAAAAAAAAAAA2244444444444444IIIIIIIIIIIIIIIIIIIIIIIIIIIIIIII
AAAAAAAAAAAAAAAAA2244444444444444IIIIIIIIIIIIIIIIIIIIIIIIIIIIIII
AAAAAAAAAAAAAAAAAA2244444444444444IIIIIIIIIIIIIIIIIIIIIIIIIIIIII
AAAAAAAAAAAAAAAAAAA2244444444444444IIIIIIIIIIIIIIIIIIIIIIIIIIIII
AAAAAAAAAAAAAAAAAAAA2244444444444444IIIIIIIIIIIIIIIIIIIIIIIIIIII
AAAAAAAAAAAAAAAAAAAAA2244444444444444IIIIIIIIIIIIIIIIIIIIIIIIIII
AAAAAAAAAAAAAAAAAAAAAA2244444444444444IIIIIIIIIIIIIIIIIIIIIIIIII
AAAAAAAAAAAAAAAAAAAAAAA2244444444444444IIIIIIIIIIIIIIIIIIIIIIIII
AAAAAAAAAAAAAAAAAAAAAAAA2244444444444444IIIIIIIIIIIIIIIIIIIIIIII
AAAAAAAAAAAAAAAAAAAAAAAAA2244444444444444IIIIIIIIIIIIIIIIIIIIIII
AAAAAAAAAAAAAAAAAAAAAAAAAA2244444444444444IIIIIIIIIIIIIIIIIIIIII
AAAAAAAAAAAAAAAAAAAAAAAAAAA2244444444444444IIIIIIIIIIIIIIIIIIIII
AAAAAAAAAAAAAAAAAAAAAAAAAAAA2244444444444444IIIIIIIIIIIIIIIIIIII
AAAAAAAAAAAAAAAAAAAAAAAAAAAAA2244444444444444IIIIIIIIIIIIIIIIIII
AAAAAAAAAAAAAAAAAAAAAAAAAAAAAA2244444444444444IIIIIIIIIIIIIIIIII
AAAAAAAAAAAAAAAAAAAAAAAAAAAAAAA2244444444444444IIIIIIIIIIIIIIIII
AAAAAAAAAAAAAAAAAAAAAAAAAAAAAAAA2244444444444444IIIIIIIIIIIIIIII
AAAAAAAAAAAAAAAAAAAAAAAAAAAAAAAAA2244444444444444IIIIIIIIIIIIIII
AAAAAAAAAAAAAAAAAAAAAAAAAAAAAAAAAA2244444444444444IIIIIIIIIIIIII
AAAAAAAAAAAAAAAAAAAAAAAAAAAAAAAAAAA2244444444444444IIIIIIIIIIIII
AAAAAAAAAAAAAAAAAAAAAAAAAAAAAAAAAAAA2244444444444444IIIIIIIIIIII
AAAAAAAAAAAAAAAAAAAAAAAAAAAAAAAAAAAAA2244444444444444IIIIIIIIIII
AAAAAAAAAAAAAAAAAAAAAAAAAAAAAAAAAAAAAA2244444444444444IIIIIIIIII
AAAAAAAAAAAAAAAAAAAAAAAAAAAAAAAAAAAAAAA2244444444444444IIIIIIIII
AAAAAAAAAAAAAAAAAAAAAAAAAAAAAAAAAAAAAAAA2244444444444444IIIIIIII
AAAAAAAAAAAAAAAAAAAAAAAAAAAAAAAAAAAAAAAAA2244444444444444IIIIIII
AAAAAAAAAAAAAAAAAAAAAAAAAAAAAAAAAAAAAAAAAA2244444444444444IIIIII
AAAAAAAAAAAAAAAAAAAAAAAAAAAAAAAAAAAAAAAAAAA2244444444444444IIIII
AAAAAAAAAAAAAAAAAAAAAAAAAAAAAAAAAAAAAAAAAAAA2244444444444444IIII
AAAAAAAAAAAAAAAAAAAAAAAAAAAAAAAAAAAAAAAAAAAAA2244444444444444III
AAAAAAAAAAAAAAAAAAAAAAAAAAAAAAAAAAAAAAAAAAAAAA2244444444444444II
AAAAAAAAAAAAAAAAAAAAAAAAAAAAAAAAAAAAAAAAAAAAAAA2244444444444444I
AAAAAAAAAAAAAAAAAAAAAAAAAAAAAAAAAAAAAAAAAAAAAAAA2244444444444444
AAAAAAAAAAAAAAAAAAAAAAAAAAAAAAAAAAAAAAAAAAAAAAAAA224444444444444
AAAAAAAAAAAAAAAAAAAAAAAAAAAAAAAAAAAAAAAAAAAAAAAAAA22444444444444
AAAAAAAAAAAAAAAAAAAAAAAAAAAAAAAAAAAAAAAAAAAAAAAAAAA2244444444444
AAAAAAAAAAAAAAAAAAAAAAAAAAAAAAAAAAAAAAAAAAAAAAAAAAAA224444444444
AAAAAAAAAAAAAAAAAAAAAAAAAAAAAAAAAAAAAAAAAAAAAAAAAAAAA22444444444
AAAAAAAAAAAAAAAAAAAAAAAAAAAAAAAAAAAAAAAAAAAAAAAAAAAAAA2244444444
AAAAAAAAAAAAAAAAAAAAAAAAAAAAAAAAAAAAAAAAAAAAAAAAAAAAAAA224444444
AAAAAAAAAAAAAAAAAAAAAAAAAAAAAAAAAAAAAAAAAAAAAAAAAAAAAAAA22444444
AAAAAAAAAAAAAAAAAAAAAAAAAAAAAAAAAAAAAAAAAAAAAAAAAAAAAAAAA2244444
AAAAAAAAAAAAAAAAAAAAAAAAAAAAAAAAAAAAAAAAAAAAAAAAAAAAAAAAAA244444
AAAAAAAAAAAAAAAAAAAAAAAAAAAAAAAAAAAAAAAAAAAAAAAAAAAAAAAAAAA24444
AAAAAAAAAAAAAAAAAAAAAAAAAAAAAAAAAAAAAAAAAAAAAAAAAAAAAAAAAAAA2444
AAAAAAAAAAAAAAAAAAAAAAAAAAAAAAAAAAAAAAAAAAAAAAAAAAAAAAAAAAAAA244
AAAAAAAAAAAAAAAAAAAAAAAAAAAAAAAAAAAAAAAAAAAAAAAAAAAAAAAAAAAAAA24
AAAAAAAAAAAAAAAAAAAAAAAAAAAAAAAAAAAAAAAAAAAAAAAAAAAAAAAAAAAAAAA2
AAAAAAAAAAAAAAAAAAAAAAAAAAAAAAAAAAAAAAAAAAAAAAAAAAAAAAAAAAAAAAAA
AAAAAAAAAAAAAIAAAAAAAAAAAAAAAAAAAAAAAAAAAAAAAAAAAAAAAAAAAAAAAAAA
AAAAAAAAAAAAAIIAAAAAAAAAAAAAAAAAAAAAAAAAAAAAAAAAAAAAAAAAAAAAAAAA
AAAAAAAAAAAAAIIAAAAAAAAAAAAAAAAAIAAAAAAAAAAAAAAAAAAAAAAAAAAAAAAA
AAAAIAAAAAAAAIIAAAAAAAAAAAAAAAAAIAAAAAAAAAAAAAAAAAAAAAAAAAAAAAAA
AAAAIAAAAIAAAIIAAAAAAAAAAAAAAAAAIAAAAAAAAAAAAAAAAAAAAAAAAAAAAAAA
AAAAIAAAAIAAAIIAAAAAAAAAAAAAAAAAIAAAAAAAAAAAAAAAAAAAAAAAIAAAAAAA
AAAAIAAAAIAAAIIAIAAAAAAAAAAAAAAAIAAAAAAAAAAAAAAAAAAAAAAAIAAAAAAA
AAAAIAAAAIAAAIIAIAAAIAAAAAAAAAAAIAAAAAAAAAAAAAAAAAAAAAAAIAAAAAAA
AAAAIAAAAIAAAIIAIAAAIIAAAAAAAAAAIAAAAAAAAAAAAAAAAAAAAAAAIAAAAAAA
AAAAIAAAAIAAAIIAIAAAIIAAAAAAAAIAIAAAAAAAAAAAAAAAAAAAAAAAIAAAAAAA
AAAAIAAAAIAAAIIAIAAAIIAAAAAAAAIIIAAAAAAAAAAAAAAAAAAAAAAAIAAAAAAA
AAAAIAAAAIAAAIIAIAAAIIAAAAAAAAIIIIAAAAAAAAAAAAAAAAAAAAAAIAAAAAAA
AAAAIAAAAIAAAIIAIAAAIIAAAAAAAAIIIIAAIAAAAAAAAAAAAAAAAAAAIAAAAAAA
AAAAIAAAAIAAAIIAIAAAIIAAAAAAAAIIIIAAIAAAIAAAAAAAAAAAAAAAIAAAAAAA
AAAAIAAAAIAAAIIAIAAAIIAAAAAAAAIIIIAAIAAAIAAAAAAAAAAAAAAAIAAAAAAI
AAAAIAAAAIAAAIIAIAAAIIAAAAAAAAIIIIAAIAAAIAAAAAAAAAAAAAAAIAAAIAAI
AAAAIAAAAIAAAIIAIAAAIIAAAAAAAAIIIIAAIAAAIAAAAIAAAAAAAAAAIAAAIAAI
AAAAIAAIAIAAAIIAIAAAIIAAAAAAAAIIIIAAIAAAIAAAAIAAAAAAAAAAIAAAIAAI
AAAAIAAIAIAAAIIAIAAAIIAAIAAAAAIIIIAAIAAAIAAAAIAAAAAAAAAAIAAAIAAI
AAAAIAAIAIAAAIIAIAAAIIAAIAAAAAIIIIAAIAAIIAAAAIAAAAAAAAAAIAAAIAAI
AAAAIAAIAIAAAIIAIAAAIIAAIAAAIAIIIIAAIAAIIAAAAIAAAAAAAAAAIAAAIAAI
AAAAIAAIAIAAAIIAIAAAIIAAIAAAIAIIIIAAIAAIIAAAAIAAAAAAIAAAIAAAIAAI
AAAAIAAIAIAAAIIAIAAAIIAAIAAAIIIIIIAAIAAIIAAAAIAAAAAAIAAAIAAAIAAI
AAIAIAAIAIAAAIIAIAAAIIAAIAAAIIIIIIAAIAAIIAAAAIAAAAAAIAAAIAAAIAAI
AAIAIAIIAIAAAIIAIAAAIIAAIAAAIIIIIIAAIAAIIAAAAIAAAAAAIAAAIAAAIAAI
AAIAIAIIAIIAAIIAIAAAIIAAIAAAIIIIIIAAIAAIIAAAAIAAAAAAIAAAIAAAIAAI
AAIAIAIIAIIAAIIAIAAAIIAAIAAAIIIIIIAAIAAIIAAAAIAAAAAAIIAAIAAAIAAI
AAIAIAIIAIIAAIIAIAAAIIAIIAAAIIIIIIAAIAAIIAAAAIAAAAAAIIAAIAAAIAAI
AAIAIAIIAIIAAIIAIAAAIIAIIIAAIIIIIIAAIAAIIAAAAIAAAAAAIIAAIAAAIAAI
AAIAIAIIAIIAAIIAIAAAIIAIIIIAIIIIIIAAIAAIIAAAAIAAAAAAIIAAIAAAIAAI
AAIAIAIIAIIAAIIAIAAAIIAIIIIIIIIIIIAAIAAIIAAAAIAAAAAAIIAAIAAAIAAI
AAIAIAIIAIIAAIIAIAAAIIAIIIIIIIIIIIIAIAAIIAAAAIAAAAAAIIAAIAAAIAAI
AAIAIAIIAIIAAIIAIAAAIIAIIIIIIIIIIIIAIIAIIAAAAIAAAAAAIIAAIAAAIAAI
AAIAIAIIAIIAAIIAIAAAIIAIIIIIIIIIIIIAIIAIIAIAAIAAAAAAIIAAIAAAIAAI
AAIAIAIIAIIAAIIAIAAAIIAIIIIIIIIIIIIAIIAIIAIAIIAAAAAAIIAAIAAAIAAI
AAIAIAIIAIIAAIIAIAAAIIAIIIIIIIIIIIIAIIAIIAIAIIAIAAAAIIAAIAAAIAAI
AAIAIAIIAIIAAIIAIAAAIIAIIIIIIIIIIIIAIIAIIAIAIIAIAIAAIIAAIAAAIAAI
AAIAIAIIAIIAAIIAIAAAIIAIIIIIIIIIIIIAIIAIIAIAIIAIAIAAIIAAIIAAIAAI
AAIAIAIIAIIAAIIAIAAAIIAIIIIIIIIIIIIAIIAIIAIAIIAIAIAAIIAAIIIAIAAI
AAIAIAIIAIIAAIIAIAAAIIAIIIIIIIIIIIIAIIAIIAIAIIAIAIAAIIAAIIIAIIAI
AAIAIAIIAIIIAIIAIAAAIIAIIIIIIIIIIIIAIIAIIAIAIIAIAIAAIIAAIIIAIIAI
AAIAIAIIAIIIAIIAIAAAIIAIIIIIIIIIIIIAIIAIIAIAIIAIAIAAIIAAIIIAIIII
AAIAIAIIAIIIAIIAIAAAIIAIIIIIIIIIIIIAIIAIIAIAIIAIAIAAIIIAIIIAIIII
AIIAIAIIAIIIAIIAIAAAIIAIIIIIIIIIIIIAIIAIIAIAIIAIAIAAIIIAIIIAIIII
AIIAIAIIAIIIAIIIIAAAIIAIIIIIIIIIIIIAIIAIIAIAIIAIAIAAIIIAIIIAIIII
AIIAIAIIAIIIAIIIIAAIIIAIIIIIIIIIIIIAIIAIIAIAIIAIAIAAIIIAIIIAIIII
AIIAIAIIAIIIAIIIIAAIIIAIIIIIIIIIIIIAIIAIIIIAIIAIAIAAIIIAIIIAIIII
AIIAIAIIAIIIAIIIIAAIIIAIIIIIIIIIIIIAIIAIIIIAIIAIAIAIIIIAIIIAIIII
A22222222222222244IIIIIIIIIIIIIIIIIIIIIIIIIIIIIIIIIIIIIIIIIIIIII
AA22222222222222244IIIIIIIIIIIIIIIIIIIIIIIIIIIIIIIIIIIIIIIIIIIII
AAA22222222222222244IIIIIIIIIIIIIIIIIIIIIIIIIIIIIIIIIIIIIIIIIIII
AAAA22222222222222244IIIIIIIIIIIIIIIIIIIIIIIIIIIIIIIIIIIIIIIIIII
AAAAA22222222222222244IIIIIIIIIIIIIIIIIIIIIIIIIIIIIIIIIIIIIIIIII
AAAAAA22222222222222244IIIIIIIIIIIIIIIIIIIIIIIIIIIIIIIIIIIIIIIII
AAAAAAA22222222222222244IIIIIIIIIIIIIIIIIIIIIIIIIIIIIIIIIIIIIIII
AAAAAAAA22222222222222244IIIIIIIIIIIIIIIIIIIIIIIIIIIIIIIIIIIIIII
AAAAAAAAA22222222222222244IIIIIIIIIIIIIIIIIIIIIIIIIIIIIIIIIIIIII
AAAAAAAAAA22222222222222244IIIIIIIIIIIIIIIIIIIIIIIIIIIIIIIIIIIII
AAAAAAAAAAA22222222222222244IIIIIIIIIIIIIIIIIIIIIIIIIIIIIIIIIIII
AAAAAAAAAAAA22222222222222244IIIIIIIIIIIIIIIIIIIIIIIIIIIIIIIIIII
AAAAAAAAAAAAA22222222222222244IIIIIIIIIIIIIIIIIIIIIIIIIIIIIIIIII
AAAAAAAAAAAAAA22222222222222244IIIIIIIIIIIIIIIIIIIIIIIIIIIIIIIII
AAAAAAAAAAAAAAA22222222222222244IIIIIIIIIIIIIIIIIIIIIIIIIIIIIIII
AAAAAAAAAAAAAAAA22222222222222244IIIIIIIIIIIIIIIIIIIIIIIIIIIIIII
AAAAAAAAAAAAAAAAA22222222222222244IIIIIIIIIIIIIIIIIIIIIIIIIIIIII
AAAAAAAAAAAAAAAAAA22222222222222244IIIIIIIIIIIIIIIIIIIIIIIIIIIII
AAAAAAAAAAAAAAAAAAA22222222222222244IIIIIIIIIIIIIIIIIIIIIIIIIIII
AAAAAAAAAAAAAAAAAAAA22222222222222244IIIIIIIIIIIIIIIIIIIIIIIIIII
AAAAAAAAAAAAAAAAAAAAA22222222222222244IIIIIIIIIIIIIIIIIIIIIIIIII
AAAAAAAAAAAAAAAAAAAAAA22222222222222244IIIIIIIIIIIIIIIIIIIIIIIII
AAAAAAAAAAAAAAAAAAAAAAA22222222222222244IIIIIIIIIIIIIIIIIIIIIIII
AAAAAAAAAAAAAAAAAAAAAAAA22222222222222244IIIIIIIIIIIIIIIIIIIIIII
AAAAAAAAAAAAAAAAAAAAAAAAA22222222222222244IIIIIIIIIIIIIIIIIIIIII
AAAAAAAAAAAAAAAAAAAAAAAAAA22222222222222244IIIIIIIIIIIIIIIIIIIII
AAAAAAAAAAAAAAAAAAAAAAAAAAA22222222222222244IIIIIIIIIIIIIIIIIIII
AAAAAAAAAAAAAAAAAAAAAAAAAAAA22222222222222244IIIIIIIIIIIIIIIIIII
AAAAAAAAAAAAAAAAAAAAAAAAAAAAA22222222222222244IIIIIIIIIIIIIIIIII
AAAAAAAAAAAAAAAAAAAAAAAAAAAAAA22222222222222244IIIIIIIIIIIIIIIII
AAAAAAAAAAAAAAAAAAAAAAAAAAAAAAA22222222222222244IIIIIIIIIIIIIIII
AAAAAAAAAAAAAAAAAAAAAAAAAAAAAAAA22222222222222244IIIIIIIIIIIIIII
AAAAAAAAAAAAAAAAAAAAAAAAAAAAAAAAA22222222222222244IIIIIIIIIIIIII
AAAAAAAAAAAAAAAAAAAAAAAAAAAAAAAAAA22222222222222244IIIIIIIIIIIII
AAAAAAAAAAAAAAAAAAAAAAAAAAAAAAAAAAA22222222222222244IIIIIIIIIIII
AAAAAAAAAAAAAAAAAAAAAAAAAAAAAAAAAAAA22222222222222244IIIIIIIIIII
AAAAAAAAAAAAAAAAAAAAAAAAAAAAAAAAAAAAA22222222222222244IIIIIIIIII
AAAAAAAAAAAAAAAAAAAAAAAAAAAAAAAAAAAAAA22222222222222244IIIIIIIII
AAAAAAAAAAAAAAAAAAAAAAAAAAAAAAAAAAAAAAA22222222222222244IIIIIIII
AAAAAAAAAAAAAAAAAAAAAAAAAAAAAAAAAAAAAAAA22222222222222244IIIIIII
AAAAAAAAAAAAAAAAAAAAAAAAAAAAAAAAAAAAAAAAA22222222222222244IIIIII
AAAAAAAAAAAAAAAAAAAAAAAAAAAAAAAAAAAAAAAAA2A22222222222222244IIII
AAAAAAAAAAAAAAAAAAAAAAAAAAAAAAAAAAAAAAAAA2AA22222222222222244III
AAAAAAAAAAAAAAAAAAAAAAAAAAAAAAAAAAAAAAAAA2AAA22222222222222244II
AAAAAAAAAAAAAAAAAAAAAAAAAAAAAAAAAAAAAAAAA2AAAA22222222222222244I
AAAAAAAAAAAAAAAAAAAAAAAAAAAAAAAAAAAAAAAAA2AAAAA22222222222222244
AAAAAAAAAAAAAAAAAAAAAAAAAAAAAAAAAAAAAAAAA2AAAAAA2222222222222224
AAAAAAAAAAAAAAAAAAAAAAAAAAAAAAAAAAAAAAAAA2AAAAAAA222222222222222
AAAAAAAAAAAAAAAAAAAAAAAAAAAAAAAAAAAAAAAAA2AAAAAAAA22222222222222
AAAAAAAAAAAAAAAAAAAAAAAAAAAAAAAAAAAAAAAAA2AAAAAAAAA2222222222222
AAAAAAAAAAAAAAAAAAAAAAAAAAAAAAAAAAAAAAAAA2AAAAAAAAAA222222222222
AAAAAAAAAAAAAAAAAAAAAAAAAAAAAAAAAAAAAAAAA2AAAAAAAAAAA22222222222
AAAAAAAAAAAAAAAAAAAAAAAAAAAAAAAAAAAAAAAAA2AAAAAAAAAAAA2222222222
AAAAAAAAAAAAAAAAAAAAAAAAAAAAAAAAAAAAAAAAA2AAAAAAAAAAAAA222222222
AAAAAAAAAAAAAAAAAAAAAAAAAAAAAAAAAAAAAAAAA2AAAAAAAAAAAAAA22222222
AAAAAAAAAAAAAAAAAAAAAAAAAAAAAAAAAAAAAAAAA2AAAAAAAAAAAAAAA2222222
AAAAAAAAAAAAAAAAAAAAAAAAAAAAAAAAAAAAAAAAA2AAAAAAAAAAAAAAAA222222
AAAAAAAAAAAAAAAAAAAAAAAAAAAAAAAAAAAAAAAAA2AAAAAAAAAAAAAAAAA22222
AAAAAAAAAAAAAAAAAAAAAAAAAAAAAAAAAAAAAAAAA2AAAAAAAAAAAAAAAAAA2222
AAAAAAAAAAAAAAAAAAAAAAAAAAAAAAAAAAAAAAAAA2AAAAAAAAAAAAAAAAAAA222
AAAAAAAAAAAAAAAAAAAAAAAAAAAAAAAAAAAAAAAAA2AAAAAAAAAAAAAAAAAAAA22
AAAAAAAAAAAAAAAAAAAAAAAAAAAAAAAAAAAAAAAAA2AAAAAAAAAAAAAAAAAAAAA2
AAAAAAAAAAAAAAAAAAAAAAAAAAAAAAAAAAAAAAAAA2AAAAAAAAAAAAAAAAAAAAAA
AAAAAAAAAAAAAAAAAAAAAAAAAAAAAAAAAAAAIAAAA2AAAAAAAAAAAAAAAAAAAAAA
AAAAAAAAAAAAAAAAAAAAAAAAAAAAAAAAAAAAIIAAA2AAAAAAAAAAAAAAAAAAAAAA
AAAAAAAAAAAAAAAAAAAAAAAAAAAAAAAAAAAAIIIAA2AAAAAAAAAAAAAAAAAAAAAA
AAAAAAAAAAAAAAAAAAAAAAAAAAAAAAAAAAAAIIIIA2AAAAAAAAAAAAAAAAAAAAAA
AAAAAAAAAAAAAAAAAAAAAAAAAAAAAAAAAAAAIIIII2AAAAAAAAAAAAAAAAAAAAAA
AAAAAAAAAAAAAAAAAAAAAAAAAAAAAAAAAAAAIIIII2IAAAAAAAAAAAAAAAAAAAAA
AAAAAAAAAAAAAAAAAAAAAAAAAAAAAAAAAAAAIIIII2IIAAAAAAAAAAAAAAAAAAAA
AAAAAAAAAAAAAAAAAAAAAAAAAAAAAAAAAAAAIIIII2IIIAAAAAAAAAAAAAAAAAAA
AAAAAAAAAAAAAAAAAAAAAAAAAAAAAAAAAAAAIIIII2IIIIAAAAAAAAAAAAAAAAAA
AAAAAAAAAAAAAAAAAAAAAAAAAAAAAAAAAAAAIIIII2IIIIIAAAAAAAAAAAAAAAAA
AAAAAAAAAAAAAAAAAAAAAAAAAAAAAAAAAAAAIIIII2IIIIIIAAAAAAAAAAAAAAAA
AAAAAAAAAAAAAAAAAAAAAAAAAAAAAAAAAAAAIIIII2IIIIIIIAAAAAAAAAAAAAAA
AAAAAAAAAAAAAAAAAAAAAAAAAAAAAAAAAAAAIIIII2IIIIIIIIAAAAAAAAAAAAAA
AAAAAAAAAAAAAAAAAAAAAAAAAAAAAAAAAAAAIIIII2IIIIIIIIAAAAAAIAAAAAAA
AAAAAAAAAAAAAAAAAAAAAAAAAAAAAAAAAAAAIIIII2IIIIIIIIAAAAAAIIAAAAAA
AAAAAAAAAAAAAAAAAAAAAAAAAAAAAAAAAAAAIIIII2IIIIIIIIAAAAAAIIIAAAAA
AAAAAAAAAAAAAAAAAAAAAAAAAAAAAAAAAAAAIIIII2IIIIIIIIAAAAAAIIIAAAAI
AIAAAAAAAAAAAAAAAAAAAAAAAAAAAAAAAAAAIIIII2IIIIIIIIAAAAAAIIIAAAAI
AIAAAAAIAAAAAAAAAAAAAAAAAAAAAAAAAAAAIIIII2IIIIIIIIAAAAAAIIIAAAAI
AIAAAAAIAAAAAAAAIAAAAAAAAAAAAAAAAAAAIIIII2IIIIIIIIAAAAAAIIIAAAAI
AIAAAAAIAAAAAAAAIIAAAAAAAAAAAAAAAAAAIIIII2IIIIIIIIAAAAAAIIIAAAAI
AIAAAAAIAAAAAAAAIIIAAAAAAAAAAAAAAAAAIIIII2IIIIIIIIAAAAAAIIIAAAAI
AIAAAAAIAAAAAAAAIIIAIAAAAAAAAAAAAAAAIIIII2IIIIIIIIAAAAAAIIIAAAAI
AIAAAAAIAAAAAAAAIIIAIIAAAAAAAAAAAAAAIIIII2IIIIIIIIAAAAAAIIIAAAAI
AIAAAAAIAAAAAAAAIIIAIIIAAAAAAAAAAAAAIIIII2IIIIIIIIAAAAAAIIIAAAAI
AIAAAAAIAAAAAAAAIIIAIIIIAAAAAAAAAAAAIIIII2IIIIIIIIAAAAAAIIIAAAAI
AIAAAAAIAAAAAAAAIIIAIIIIIAAAAAAAAAAAIIIII2IIIIIIIIAAAAAAIIIAAAAI
AIAAAAAIAAAAAAAAIIIAIIIIIIAAAAAAAAAAIIIII2IIIIIIIIAAAAAAIIIAAAAI
AIAAAAAIAAAAAAAAIIIAIIIIIIIAAAAAAAAAIIIII2IIIIIIIIAAAAAAIIIAAAAI
AIAAAAAIAAAAAAAAIIIAIIIIIIIIAAAAAAAAIIIII2IIIIIIIIAAAAAAIIIAAAAI
AIAAAAAIAAAAAAAAIIIAIIIIIIIIIAAAAAAAIIIII2IIIIIIIIAAAAAAIIIAAAAI
AIAAAAAIAAAAAAAAIIIAIIIIIIIIIIAAAAAAIIIII2IIIIIIIIAAAAAAIIIAAAAI
AIAAAAAIAAAAAAAAIIIAIIIIIIIIIIIAAAAAIIIII2IIIIIIIIAAAAAAIIIAAAAI
AIAAAAAIAAAAAAAAIIIAIIIIIIIIIIIIAAAAIIIII2IIIIIIIIAAAAAAIIIAAAAI
AIAAAAAIAAAAAAAAIIIAIIIIIIIIIIIIAIAAIIIII2IIIIIIIIAAAAAAIIIAAAAI
AIAAAAAIAAAAAAAAIIIAIIIIIIIIIIIIAIIAIIIII2IIIIIIIIAAAAAAIIIAAAAI
AIAAAAAIAAAAAAAAIIIAIIIIIIIIIIIIAIIIIIIII2IIIIIIIIAAAAAAIIIAAAAI
AIAAAAAIAAAAAAAAIIIAIIIIIIIIIIIIAIIIIIIIIIIIIIIIIIAAAAAAIIIAAAAI
AIAAAAAIAAAAAAAAIIIAIIIIIIIIIIIIAIIIIIIIIIIIIIIIIIIAAAAAIIIAAAAI
AIAAAAAIAAAAAAAAIIIAIIIIIIIIIIIIAIIIIIIIIIIIIIIIIIIIAAAAIIIAAAAI
AIAAAAAIAAAAAAAAIIIAIIIIIIIIIIIIAIIIIIIIIIIIIIIIIIIIIAAAIIIAAAAI
AIAAAAAIAAAAAAAAIIIAIIIIIIIIIIIIAIIIIIIIIIIIIIIIIIIIIIAAIIIAAAAI
AIAAAAAIAAAAAAAAIIIAIIIIIIIIIIIIAIIIIIIIIIIIIIIIIIIIIIIAIIIAAAAI
AIAAAAAIAAAAAAAAIIIAIIIIIIIIIIIIAIIIIIIIIIIIIIIIIIIIIIIIIIIAAAAI
AIAAAAAIAAAAAAAAIIIAIIIIIIIIIIIIAIIIIIIIIIIIIIIIIIIIIIIIIIIAIAAI
AIAAAAAIAAAAAAAAIIIAIIIIIIIIIIIIAIIIIIIIIIIIIIIIIIIIIIIIIIIAIIAI
AIAAAAAIAAAAAAAAIIIAIIIIIIIIIIIIAIIIIIIIIIIIIIIIIIIIIIIIIIIAIIII
AIIAAAAIAAAAAAAAIIIAIIIIIIIIIIIIAIIIIIIIIIIIIIIIIIIIIIIIIIIAIIII
AIIAIAAIAAAAAAAAIIIAIIIIIIIIIIIIAIIIIIIIIIIIIIIIIIIIIIIIIIIAIIII
AIIAIIAIAAAAAAAAIIIAIIIIIIIIIIIIAIIIIIIIIIIIIIIIIIIIIIIIIIIAIIII
AIIAIIIIAAAAAAAAIIIAIIIIIIIIIIIIAIIIIIIIIIIIIIIIIIIIIIIIIIIAIIII
AIIAIIIIIAAAAAAAIIIAIIIIIIIIIIIIAIIIIIIIIIIIIIIIIIIIIIIIIIIAIIII
AIIAIIIIIIAAAAAAIIIAIIIIIIIIIIIIAIIIIIIIIIIIIIIIIIIIIIIIIIIAIIII
AIIAIIIIIIIAAAAAIIIAIIIIIIIIIIIIAIIIIIIIIIIIIIIIIIIIIIIIIIIAIIII
AIIAIIIIIIIIAAAAIIIAIIIIIIIIIIIIAIIIIIIIIIIIIIIIIIIIIIIIIIIAIIII
AIIAIIIIIIIIIAAAIIIAIIIIIIIIIIIIAIIIIIIIIIIIIIIIIIIIIIIIIIIAIIII
AIIAIIIIIIIIIIAAIIIAIIIIIIIIIIIIAIIIIIIIIIIIIIIIIIIIIIIIIIIAIIII
AIIAIIIIIIIIIIIAIIIAIIIIIIIIIIIIAIIIIIIIIIIIIIIIIIIIIIIIIIIAIIII
AIIAIIIIIIIIIIIAIIIIIIIIIIIIIIIIAIIIIIIIIIIIIIIIIIIIIIIIIIIAIIII
AIIAIIIIIIIIIIIIIIIIIIIIIIIIIIIIAIIIIIIIIIIIIIIIIIIIIIIIIIIAIIII
AIIIIIIIIIIIIIIIIIIIIIIIIIIIIIIIAIIIIIIIIIIIIIIIIIIIIIIIIIIAIIII
AIIIIIIIIIIIIIIIIIIIIIIIIIIIIIIIIIIIIIIIIIIIIIIIIIIIIIIIIIIAIIII
AIIIIIIIIIIIIIIIIIIIIIIIIIIIIIIIIIIIIIIIIIIIIIIIIIIIIIIIIIIIIIII
[MLOP] Prefetch Degree Mean: 12.96710
[MLOP] Prefetch Degree SD: 2.85586
[MLOP] Max Score Left Mean (%): 48.48363
[MLOP] Max Score Left SD (%): 18.08008
[MLOP] Max Score Right Mean (%): 82.11395
[MLOP] Max Score Right SD (%): 11.95773

Channel_0_RQ_row_buffer_hit 1413827
Channel_0_RQ_row_buffer_miss 837939
Channel_0_WQ_row_buffer_hit 42467
Channel_0_WQ_row_buffer_miss 134250
Channel_0_WQ_full 0
Channel_0_dbus_congested 1286444

avg_congested_cycle 10

DRAM_bw_pochs 849944
DRAM_bw_level_0 512941
DRAM_bw_level_1 209595
DRAM_bw_level_2 82023
DRAM_bw_level_3 45385
