*************************************************
   ChampSim Multicore Out-of-Order Simulator
   Last compiled: Apr  3 2025 20:54:34
*************************************************
parsing config file: /home/zir/Pythia/config/mlop.ini

trace_0 /home/zir/ChampSim/ML-DPC/ChampSimTraces/gap/cc-13.trace.gz
adding L2C_PREFETCHER: MLOP
Initialize SHIP state
warmup_instructions 10000000
simulation_instructions 50000000
champsim_seed 100
measure_ipc 0
measure_ipc_epoch 1000
measure_dram_bw 1
measure_dram_bw_epoch 256
measure_cache_acc 1
measure_cache_acc_epoch 1024
l1d_perfect 0
l2c_perfect 0
llc_perfect 0
l1d_semi_perfect 0
l2c_semi_perfect 0
llc_semi_perfect 0
semi_perfect_cache_page_buffer_size 64

num_cpus 1
cpu_freq 4000
dram_io_freq 2400
page_size 4096
block_size 64
max_read_per_cycle 8
max_fill_per_cycle 1
dram_channels 1
log2_dram_channels 0
dram_ranks 1
dram_banks 8
dram_rows 65536
dram_columns 128
dram_row_size 8
dram_size 4096
dram_pages 1048576

fetch_width 6
decode_width 6
exec_width 4
lq_width 2
sq_width 2
retire_width 4
scheduler_size 128
branch_mispredict_penalty 20
rob_size 256
lq_size 72
sq_size 56
num_instr_destinations_sparc 4
num_instr_destinations 2
num_instr_sources 4

itlb_set 16
itlb_way 8
itlb_rq_size 16
itlb_wq_size 16
itlb_pq_size 0
itlb_mshr_size 8
itlb_latency 1

dtlb_set 16
dtlb_way 4
dtlb_rq_size 16
dtlb_wq_size 16
dtlb_pq_size 0
dtlb_mshr_size 8
dtlb_latency 1

stlb_set 128
stlb_way 12
stlb_rq_size 32
stlb_wq_size 32
stlb_pq_size 0
stlb_mshr_size 16
stlb_latency 8

l1i_size 32
l1i_set 64
l1i_way 8
l1i_rq_size 64
l1i_wq_size 64
l1i_pq_size 8
l1i_mshr_size 8
l1i_latency 1

l1d_size 32
l1d_set 64
l1d_way 8
l1d_rq_size 64
l1d_wq_size 64
l1d_pq_size 8
l1d_mshr_size 16
l1d_latency 4

l2c_size 256
l2c_set 512
l2c_way 8
l2c_rq_size 32
l2c_wq_size 32
l2c_pq_size 32
l2c_mshr_size 32
l2c_latency 10

llc_size 2048
llc_set 2048
llc_way 16
llc_rq_size 32
llc_wq_size 32
llc_pq_size 32
llc_mshr_size 64
llc_latency 20

dram_channel_width 8
dram_wq_size 64
dram_rq_size 64
tRP 15
tRCD 15
tCAS 12.5
dram_dbus_turn_around_time 30
dram_write_high_wm 56
dram_write_low_wm 48
min_dram_writes_per_switch 16
dram_mtps 2400
dram_dbus_return_time 13

mlop_pref_degree 16
mlop_num_updates 500
mlop_l1d_thresh 2
mlop_l2c_thresh 0.75
mlop_llc_thresh 0.3
mlop_debug_level 0
mlop_blocks_in_cache 4096
mlop_blocks_in_zone 64
mlop_amt_size 2048
mlop_PF_DEGREE 16
mlop_NUM_UPDATES 500
mlop_L1D_THRESH 1000
mlop_L2C_THRESH 375
mlop_LLC_THRESH 150
mlop_ORIGIN 63
mlop_MAX_OFFSET 63
mlop_MIN_OFFSET -63
mlop_ORIGIN 63
mlop_NUM_OFFSETS 127


Heartbeat CPU  0 instructions:    1000001 cycles:     262007 heartbeat IPC: 3.81670 cumulative IPC: 3.81670 (Simulation time: 0 hr 0 min 1 sec) 
Heartbeat CPU  0 instructions:    2000000 cycles:     776471 heartbeat IPC: 1.94377 cumulative IPC: 2.57576 (Simulation time: 0 hr 0 min 2 sec) 
Heartbeat CPU  0 instructions:    3000001 cycles:    2186129 heartbeat IPC: 0.70939 cumulative IPC: 1.37229 (Simulation time: 0 hr 0 min 4 sec) 
Heartbeat CPU  0 instructions:    4000000 cycles:    3574770 heartbeat IPC: 0.72013 cumulative IPC: 1.11895 (Simulation time: 0 hr 0 min 5 sec) 
Heartbeat CPU  0 instructions:    5000000 cycles:    4845153 heartbeat IPC: 0.78716 cumulative IPC: 1.03196 (Simulation time: 0 hr 0 min 6 sec) 
Heartbeat CPU  0 instructions:    6000002 cycles:    6090998 heartbeat IPC: 0.80267 cumulative IPC: 0.98506 (Simulation time: 0 hr 0 min 7 sec) 
Heartbeat CPU  0 instructions:    7000000 cycles:    7293150 heartbeat IPC: 0.83184 cumulative IPC: 0.95980 (Simulation time: 0 hr 0 min 8 sec) 
Heartbeat CPU  0 instructions:    8000000 cycles:    8360246 heartbeat IPC: 0.93712 cumulative IPC: 0.95691 (Simulation time: 0 hr 0 min 9 sec) 
Heartbeat CPU  0 instructions:    9000003 cycles:    9540942 heartbeat IPC: 0.84696 cumulative IPC: 0.94330 (Simulation time: 0 hr 0 min 10 sec) 
Heartbeat CPU  0 instructions:   10000000 cycles:   10680471 heartbeat IPC: 0.87755 cumulative IPC: 0.93629 (Simulation time: 0 hr 0 min 12 sec) 

Warmup complete CPU  0 instructions:   10000001 cycles:   10680494 (Simulation time: 0 hr 0 min 12 sec) 

Heartbeat CPU  0 instructions:   11000002 cycles:   16755702 heartbeat IPC: 0.16460 cumulative IPC: 0.16460 (Simulation time: 0 hr 0 min 14 sec) 
Heartbeat CPU  0 instructions:   12000000 cycles:   22282537 heartbeat IPC: 0.18094 cumulative IPC: 0.17238 (Simulation time: 0 hr 0 min 16 sec) 
Heartbeat CPU  0 instructions:   13000001 cycles:   28153477 heartbeat IPC: 0.17033 cumulative IPC: 0.17169 (Simulation time: 0 hr 0 min 19 sec) 
Heartbeat CPU  0 instructions:   14000000 cycles:   34152555 heartbeat IPC: 0.16669 cumulative IPC: 0.17042 (Simulation time: 0 hr 0 min 21 sec) 
Heartbeat CPU  0 instructions:   15000002 cycles:   40483870 heartbeat IPC: 0.15795 cumulative IPC: 0.16777 (Simulation time: 0 hr 0 min 23 sec) 
Heartbeat CPU  0 instructions:   16000000 cycles:   46107044 heartbeat IPC: 0.17784 cumulative IPC: 0.16936 (Simulation time: 0 hr 0 min 25 sec) 
Heartbeat CPU  0 instructions:   17000001 cycles:   51504494 heartbeat IPC: 0.18527 cumulative IPC: 0.17147 (Simulation time: 0 hr 0 min 28 sec) 
Heartbeat CPU  0 instructions:   18000003 cycles:   57363572 heartbeat IPC: 0.17068 cumulative IPC: 0.17137 (Simulation time: 0 hr 0 min 30 sec) 
Heartbeat CPU  0 instructions:   19000000 cycles:   63165196 heartbeat IPC: 0.17237 cumulative IPC: 0.17148 (Simulation time: 0 hr 0 min 32 sec) 
Heartbeat CPU  0 instructions:   20000000 cycles:   69163917 heartbeat IPC: 0.16670 cumulative IPC: 0.17099 (Simulation time: 0 hr 0 min 35 sec) 
Heartbeat CPU  0 instructions:   21000002 cycles:   74847565 heartbeat IPC: 0.17594 cumulative IPC: 0.17143 (Simulation time: 0 hr 0 min 37 sec) 
Heartbeat CPU  0 instructions:   22000000 cycles:   80625399 heartbeat IPC: 0.17307 cumulative IPC: 0.17156 (Simulation time: 0 hr 0 min 39 sec) 
Heartbeat CPU  0 instructions:   23000000 cycles:   86239497 heartbeat IPC: 0.17812 cumulative IPC: 0.17205 (Simulation time: 0 hr 0 min 41 sec) 
Heartbeat CPU  0 instructions:   24000000 cycles:   91337593 heartbeat IPC: 0.19615 cumulative IPC: 0.17357 (Simulation time: 0 hr 0 min 44 sec) 
Heartbeat CPU  0 instructions:   25000003 cycles:   97113682 heartbeat IPC: 0.17313 cumulative IPC: 0.17354 (Simulation time: 0 hr 0 min 46 sec) 
Heartbeat CPU  0 instructions:   26000002 cycles:  102567161 heartbeat IPC: 0.18337 cumulative IPC: 0.17413 (Simulation time: 0 hr 0 min 48 sec) 
Heartbeat CPU  0 instructions:   27000000 cycles:  107642121 heartbeat IPC: 0.19705 cumulative IPC: 0.17533 (Simulation time: 0 hr 0 min 50 sec) 
Heartbeat CPU  0 instructions:   28000000 cycles:  113074128 heartbeat IPC: 0.18409 cumulative IPC: 0.17579 (Simulation time: 0 hr 0 min 53 sec) 
Heartbeat CPU  0 instructions:   29000002 cycles:  118178222 heartbeat IPC: 0.19592 cumulative IPC: 0.17675 (Simulation time: 0 hr 0 min 55 sec) 
Heartbeat CPU  0 instructions:   30000001 cycles:  123768675 heartbeat IPC: 0.17888 cumulative IPC: 0.17685 (Simulation time: 0 hr 0 min 57 sec) 
Heartbeat CPU  0 instructions:   31000000 cycles:  129263909 heartbeat IPC: 0.18198 cumulative IPC: 0.17709 (Simulation time: 0 hr 0 min 59 sec) 
Heartbeat CPU  0 instructions:   32000000 cycles:  134617056 heartbeat IPC: 0.18681 cumulative IPC: 0.17751 (Simulation time: 0 hr 1 min 2 sec) 
Heartbeat CPU  0 instructions:   33000002 cycles:  140153699 heartbeat IPC: 0.18062 cumulative IPC: 0.17764 (Simulation time: 0 hr 1 min 4 sec) 
Heartbeat CPU  0 instructions:   34000001 cycles:  145450538 heartbeat IPC: 0.18879 cumulative IPC: 0.17808 (Simulation time: 0 hr 1 min 6 sec) 
Heartbeat CPU  0 instructions:   35000003 cycles:  150342506 heartbeat IPC: 0.20442 cumulative IPC: 0.17900 (Simulation time: 0 hr 1 min 8 sec) 
Heartbeat CPU  0 instructions:   36000000 cycles:  156053516 heartbeat IPC: 0.17510 cumulative IPC: 0.17885 (Simulation time: 0 hr 1 min 11 sec) 
Heartbeat CPU  0 instructions:   37000000 cycles:  161362610 heartbeat IPC: 0.18836 cumulative IPC: 0.17919 (Simulation time: 0 hr 1 min 13 sec) 
Heartbeat CPU  0 instructions:   38000001 cycles:  166191925 heartbeat IPC: 0.20707 cumulative IPC: 0.18005 (Simulation time: 0 hr 1 min 15 sec) 
Heartbeat CPU  0 instructions:   39000000 cycles:  171451279 heartbeat IPC: 0.19014 cumulative IPC: 0.18038 (Simulation time: 0 hr 1 min 17 sec) 
Heartbeat CPU  0 instructions:   40000000 cycles:  177093480 heartbeat IPC: 0.17724 cumulative IPC: 0.18027 (Simulation time: 0 hr 1 min 20 sec) 
Heartbeat CPU  0 instructions:   41000001 cycles:  182470459 heartbeat IPC: 0.18598 cumulative IPC: 0.18045 (Simulation time: 0 hr 1 min 22 sec) 
Heartbeat CPU  0 instructions:   42000001 cycles:  187894127 heartbeat IPC: 0.18438 cumulative IPC: 0.18057 (Simulation time: 0 hr 1 min 24 sec) 
Heartbeat CPU  0 instructions:   43000002 cycles:  193581414 heartbeat IPC: 0.17583 cumulative IPC: 0.18043 (Simulation time: 0 hr 1 min 26 sec) 
Heartbeat CPU  0 instructions:   44000000 cycles:  199080579 heartbeat IPC: 0.18185 cumulative IPC: 0.18047 (Simulation time: 0 hr 1 min 29 sec) 
Heartbeat CPU  0 instructions:   45000000 cycles:  204735939 heartbeat IPC: 0.17682 cumulative IPC: 0.18036 (Simulation time: 0 hr 1 min 31 sec) 
Heartbeat CPU  0 instructions:   46000002 cycles:  209954174 heartbeat IPC: 0.19164 cumulative IPC: 0.18066 (Simulation time: 0 hr 1 min 34 sec) 
Heartbeat CPU  0 instructions:   47000001 cycles:  214832142 heartbeat IPC: 0.20500 cumulative IPC: 0.18124 (Simulation time: 0 hr 1 min 37 sec) 
Heartbeat CPU  0 instructions:   48000000 cycles:  220442169 heartbeat IPC: 0.17825 cumulative IPC: 0.18116 (Simulation time: 0 hr 1 min 40 sec) 
Heartbeat CPU  0 instructions:   49000000 cycles:  225668239 heartbeat IPC: 0.19135 cumulative IPC: 0.18141 (Simulation time: 0 hr 1 min 42 sec) 
Heartbeat CPU  0 instructions:   50000000 cycles:  231013898 heartbeat IPC: 0.18707 cumulative IPC: 0.18154 (Simulation time: 0 hr 1 min 45 sec) 
Heartbeat CPU  0 instructions:   51000000 cycles:  236764732 heartbeat IPC: 0.17389 cumulative IPC: 0.18135 (Simulation time: 0 hr 1 min 47 sec) 
Heartbeat CPU  0 instructions:   52000000 cycles:  242268929 heartbeat IPC: 0.18168 cumulative IPC: 0.18136 (Simulation time: 0 hr 1 min 50 sec) 
Heartbeat CPU  0 instructions:   53000002 cycles:  247558496 heartbeat IPC: 0.18905 cumulative IPC: 0.18153 (Simulation time: 0 hr 1 min 52 sec) 
Heartbeat CPU  0 instructions:   54000000 cycles:  253190480 heartbeat IPC: 0.17756 cumulative IPC: 0.18144 (Simulation time: 0 hr 1 min 54 sec) 
Heartbeat CPU  0 instructions:   55000000 cycles:  258412001 heartbeat IPC: 0.19152 cumulative IPC: 0.18165 (Simulation time: 0 hr 1 min 57 sec) 
Heartbeat CPU  0 instructions:   56000000 cycles:  264046588 heartbeat IPC: 0.17748 cumulative IPC: 0.18156 (Simulation time: 0 hr 1 min 59 sec) 
Heartbeat CPU  0 instructions:   57000002 cycles:  269483330 heartbeat IPC: 0.18393 cumulative IPC: 0.18161 (Simulation time: 0 hr 2 min 1 sec) 
Heartbeat CPU  0 instructions:   58000001 cycles:  275200354 heartbeat IPC: 0.17492 cumulative IPC: 0.18146 (Simulation time: 0 hr 2 min 4 sec) 
Heartbeat CPU  0 instructions:   59000003 cycles:  280860383 heartbeat IPC: 0.17668 cumulative IPC: 0.18136 (Simulation time: 0 hr 2 min 6 sec) 
Heartbeat CPU  0 instructions:   60000000 cycles:  286367531 heartbeat IPC: 0.18158 cumulative IPC: 0.18137 (Simulation time: 0 hr 2 min 8 sec) 
Finished CPU 0 instructions: 50000000 cycles: 275687045 cumulative IPC: 0.18137 (Simulation time: 0 hr 2 min 8 sec) 

ChampSim completed all CPUs

[ROI Statistics]
Core_0_instructions 50000000
Core_0_cycles 275687045
Core_0_IPC 0.18137

Core_0_branch_prediction_accuracy 88.98054
Core_0_branch_MPKI 22.11052
Core_0_average_ROB_occupancy_at_mispredict 41.13465

Core_0_L1D_total_access 10833671
Core_0_L1D_total_hit 7029470
Core_0_L1D_total_miss 3804201
Core_0_L1D_loads 10590387
Core_0_L1D_load_hit 6786186
Core_0_L1D_load_miss 3804201
Core_0_L1D_RFOs 243284
Core_0_L1D_RFO_hit 243284
Core_0_L1D_RFO_miss 0
Core_0_L1D_prefetches 0
Core_0_L1D_prefetch_hit 0
Core_0_L1D_prefetch_miss 0
Core_0_L1D_writebacks 0
Core_0_L1D_writeback_hit 0
Core_0_L1D_writeback_miss 0
Core_0_L1D_prefetch_requested 0
Core_0_L1D_prefetch_dropped 0
Core_0_L1D_prefetch_issued 0
Core_0_L1D_prefetch_filled 0
Core_0_L1D_prefetch_useful 0
Core_0_L1D_prefetch_useless 0
Core_0_L1D_prefetch_late 0
Core_0_L1D_average_miss_latency 78.33398

Core_0_L1D_rq_access 13613326
Core_0_L1D_rq_forward 0
Core_0_L1D_rq_merged 2863143
Core_0_L1D_rq_to_cache 10750183
Core_0_L1D_rq_full 0

Core_0_L1D_wq_access 243284
Core_0_L1D_wq_forward 0
Core_0_L1D_wq_merged 0
Core_0_L1D_wq_to_cache 243284
Core_0_L1D_wq_full 0

Core_0_L1D_pq_access 0
Core_0_L1D_pq_forward 0
Core_0_L1D_pq_merged 0
Core_0_L1D_pq_to_cache 0
Core_0_L1D_pq_full 0

Core_0_L1D_acc_epochs 279302
Core_0_L1D_acc_level_0 279302
Core_0_L1D_acc_level_1 0
Core_0_L1D_acc_level_2 0
Core_0_L1D_acc_level_3 0
Core_0_L1D_acc_level_4 0
Core_0_L1D_acc_level_5 0
Core_0_L1D_acc_level_6 0
Core_0_L1D_acc_level_7 0
Core_0_L1D_acc_level_8 0
Core_0_L1D_acc_level_9 0

Core_0_L1I_total_access 9661978
Core_0_L1I_total_hit 9661978
Core_0_L1I_total_miss 0
Core_0_L1I_loads 9661978
Core_0_L1I_load_hit 9661978
Core_0_L1I_load_miss 0
Core_0_L1I_RFOs 0
Core_0_L1I_RFO_hit 0
Core_0_L1I_RFO_miss 0
Core_0_L1I_prefetches 0
Core_0_L1I_prefetch_hit 0
Core_0_L1I_prefetch_miss 0
Core_0_L1I_writebacks 0
Core_0_L1I_writeback_hit 0
Core_0_L1I_writeback_miss 0
Core_0_L1I_prefetch_requested 0
Core_0_L1I_prefetch_dropped 0
Core_0_L1I_prefetch_issued 0
Core_0_L1I_prefetch_filled 0
Core_0_L1I_prefetch_useful 0
Core_0_L1I_prefetch_useless 0
Core_0_L1I_prefetch_late 0
Core_0_L1I_average_miss_latency -nan

Core_0_L1I_rq_access 49999992
Core_0_L1I_rq_forward 0
Core_0_L1I_rq_merged 40338014
Core_0_L1I_rq_to_cache 9661978
Core_0_L1I_rq_full 0

Core_0_L1I_wq_access 0
Core_0_L1I_wq_forward 0
Core_0_L1I_wq_merged 0
Core_0_L1I_wq_to_cache 0
Core_0_L1I_wq_full 0

Core_0_L1I_pq_access 0
Core_0_L1I_pq_forward 0
Core_0_L1I_pq_merged 0
Core_0_L1I_pq_to_cache 0
Core_0_L1I_pq_full 0

Core_0_L1I_acc_epochs 279302
Core_0_L1I_acc_level_0 279302
Core_0_L1I_acc_level_1 0
Core_0_L1I_acc_level_2 0
Core_0_L1I_acc_level_3 0
Core_0_L1I_acc_level_4 0
Core_0_L1I_acc_level_5 0
Core_0_L1I_acc_level_6 0
Core_0_L1I_acc_level_7 0
Core_0_L1I_acc_level_8 0
Core_0_L1I_acc_level_9 0

Core_0_L2C_total_access 4630308
Core_0_L2C_total_hit 1126145
Core_0_L2C_total_miss 3504163
Core_0_L2C_loads 3804201
Core_0_L2C_load_hit 916863
Core_0_L2C_load_miss 2887338
Core_0_L2C_RFOs 0
Core_0_L2C_RFO_hit 0
Core_0_L2C_RFO_miss 0
Core_0_L2C_prefetches 616661
Core_0_L2C_prefetch_hit 8
Core_0_L2C_prefetch_miss 616653
Core_0_L2C_writebacks 209446
Core_0_L2C_writeback_hit 209274
Core_0_L2C_writeback_miss 172
Core_0_L2C_prefetch_requested 1268678
Core_0_L2C_prefetch_dropped 0
Core_0_L2C_prefetch_issued 1268678
Core_0_L2C_prefetch_filled 684185
Core_0_L2C_prefetch_useful 291176
Core_0_L2C_prefetch_useless 392578
Core_0_L2C_prefetch_late 1256
Core_0_L2C_average_miss_latency 77.09740

Core_0_L2C_rq_access 3804201
Core_0_L2C_rq_forward 0
Core_0_L2C_rq_merged 0
Core_0_L2C_rq_to_cache 3804201
Core_0_L2C_rq_full 0

Core_0_L2C_wq_access 209446
Core_0_L2C_wq_forward 0
Core_0_L2C_wq_merged 0
Core_0_L2C_wq_to_cache 209446
Core_0_L2C_wq_full 0

Core_0_L2C_pq_access 1268678
Core_0_L2C_pq_forward 0
Core_0_L2C_pq_merged 10088
Core_0_L2C_pq_to_cache 1258590
Core_0_L2C_pq_full 0

Core_0_L2C_acc_epochs 279302
Core_0_L2C_acc_level_0 10814
Core_0_L2C_acc_level_1 23651
Core_0_L2C_acc_level_2 41747
Core_0_L2C_acc_level_3 55354
Core_0_L2C_acc_level_4 43029
Core_0_L2C_acc_level_5 29771
Core_0_L2C_acc_level_6 30957
Core_0_L2C_acc_level_7 17661
Core_0_L2C_acc_level_8 12056
Core_0_L2C_acc_level_9 14262

Core_0_LLC_total_access 4156143
Core_0_LLC_total_hit 3027334
Core_0_LLC_total_miss 1128809
Core_0_LLC_loads 2886149
Core_0_LLC_load_hit 2007003
Core_0_LLC_load_miss 879146
Core_0_LLC_RFOs 0
Core_0_LLC_RFO_hit 0
Core_0_LLC_RFO_miss 0
Core_0_LLC_prefetches 1060718
Core_0_LLC_prefetch_hit 811766
Core_0_LLC_prefetch_miss 248952
Core_0_LLC_writebacks 209276
Core_0_LLC_writeback_hit 208565
Core_0_LLC_writeback_miss 711
Core_0_LLC_prefetch_requested 0
Core_0_LLC_prefetch_dropped 0
Core_0_LLC_prefetch_issued 0
Core_0_LLC_prefetch_filled 343302
Core_0_LLC_prefetch_useful 26747
Core_0_LLC_prefetch_useless 311047
Core_0_LLC_prefetch_late 41
Core_0_LLC_average_miss_latency 183.24576

Core_0_LLC_rq_access 2886149
Core_0_LLC_rq_forward 0
Core_0_LLC_rq_merged 0
Core_0_LLC_rq_to_cache 2886149
Core_0_LLC_rq_full 0

Core_0_LLC_wq_access 209276
Core_0_LLC_wq_forward 0
Core_0_LLC_wq_merged 0
Core_0_LLC_wq_to_cache 209276
Core_0_LLC_wq_full 0

Core_0_LLC_pq_access 1244769
Core_0_LLC_pq_forward 0
Core_0_LLC_pq_merged 831
Core_0_LLC_pq_to_cache 1243938
Core_0_LLC_pq_full 0

Core_0_LLC_acc_epochs 279656
Core_0_LLC_acc_level_0 260754
Core_0_LLC_acc_level_1 6721
Core_0_LLC_acc_level_2 5175
Core_0_LLC_acc_level_3 466
Core_0_LLC_acc_level_4 191
Core_0_LLC_acc_level_5 3789
Core_0_LLC_acc_level_6 314
Core_0_LLC_acc_level_7 304
Core_0_LLC_acc_level_8 312
Core_0_LLC_acc_level_9 1630

Core_0_major_page_fault 0
Core_0_minor_page_fault 5303

[MLOP] History of tracked zone:
IIIIIIIIIIIIIIIIIIIIIIIIIIIIIIIIIIIIIIIIIIIIIIIIIIIIIIIIIIIIIIII
IIIIIIIIIIIIIIIIIIIIIIIIIIAIIIIIIIIIIIIIIIIIIIIIIIIIIIIIIIIIIIII
IIIIIAIIIIIIIIIIIIIIIIIIIIAIIIIIIIIIIIIIIIIIIIIIIIIIIIIIIIIIIIII
IIIIIAIIIIIIIIIIIIIIIIIIIIAIIIIIA4IIIIIIIIIIIIIIIIIIIIIIIIIIIIII
IIIIIAIIIIIIIIIIIIIIIIIIIIAIIIIIA4IIIIA4IIIIIIIIIIIIIIIIIIIIIIII
IIIIIAIIIIIIIIIIIIIIIIIIIIAIIIIIA4IIIIA4IIIIIIIIIIIIIA4IIIIIIIII
IIIIIAIIIAIIIIIIIIIIIIIIIIAIIIIIA4IIIIA4IIIIIIIIIIIIIA4IIIIIIIII
IIIIIAIIIAIIIIIIIIIIIIAIIIAIIIIIA4IIIIA4IIIIIIIIIIIIIA4IIIIIIIII
IIIIIAIIIAIIIIIIIIIIIIAIIIAIIIIIA4AIIIA4IIIIIIIIIIIIIA4IIIIIIIII
IIIIIAIIIAIIIIIIIIIIIIAIIIAIIIIIA4AIIIA4IIIIIIIIIIIIAA4IIIIIIIII
IIAIIAIIIAIIIIIIIIIIIIAIIIAIIIIIA4AIIIA4IIIIIIIIIIIIAA4IIIIIIIII
IIAIIAIIIAIIIIIIIIIIIIAIIIAIIIIIA4AIIIA4IIIIIIIIIIIIAAAIIIIIIIII
IIAIIAIIIAIIIIIIIIIIIIAIIIAIIIIIA4AIIIA4IIIIIIIIIIIIAAAIIIIIIAII
IIAIIAIIIAIIIIIIIAIIIIAIIIAIIIIIA4AIIIA4IIIIIIIIIIIIAAAIIIIIIAII
IIAIAAIIIAIIIIIIIAIIIIAIIIAIIIIIA4AIIIA4IIIIIIIIIIIIAAAIIIIIIAII
IIAIAAIIIAIIIIIIIAIIIIAIIIAIIIIAA4AIIIA4IIIIIIIIIIIIAAAIIIIIIAII
IIAIAAIIIAIIIIIIIAIIIIAIIIAIIIIAA4AIIIA4IIIIIIIIIIIIAAAIIIIIIAIA
IIAIAAIAIAIIIIIIIAIIIIAIIIAIIIIAA4AIIIA4IIIIIIIIIIIIAAAIIIIIIAIA
IIAIAAIAIAIIIIIIIAIIIIAIIIAIIIIAA4AIIIA4IIIAIIIIIIIIAAAIIIIIIAIA
IIAIAAIAIAIAII4IIAIIIIAIIIAIIIIAA4AIIIA4IIIAIIIIIIIIAAAIIIIIIAIA
IIAIAAIA4A4AII4IIAIIIIAIIIAIIIIAA4AIIIA4IIIAIIIIIIIIAAAIIIIIIAIA
IIAIAAAA4A4AII4IIAIIIIAIIIAIIIIAA4AIIIA4IIIAIIIIIIIIAAAIIIIIIAIA
IIAIAAAA4A4AI44IIAIIIIAIIIAIIIIAA4AIIIA4IIIAIIIIIIIIAAAIIIIIIAIA
IIAIAAAA4A4AI44IIAIIIIAIIIAIIIIAA4AIIIA4AI4A4IIIIIIIAAAIIIIIIAIA
IIAIAAAA4A4AI44IIAIIIIAIIIAIIIIAA4AIIIA4AI4A4IIIIIIIAAAIII44IAIA
IIAIAAAA4A4AI44IIAIIIIAIIIAIIIIAA4AIIIA4AI4A44IIIIIIAAAIII44IAIA
IIAIAAAA4A4AI44AIA4I4IAIIIAIIIIAA4AIIIA4AI4A44IIIIIIAAAIII44IAIA
IIAIAAAA4A4AI44A4A4I4IAIIIAIIIIAA4AIIIA4AI4A44IIIIIIAAAIII44IAIA
IIAIAAAA4A4AI44A4A444IAIIIAIIIIAA4AIIIA4AI4A44IIIIIIAAAIII44IAIA
IIAIAAAA4A4AI44A4A444IAIIIAIIIIAA4AIIIA4AI4A44IA4IIIAAA4II444AIA
IIAIAAAA4A4AI44A4A444IAIIIAIIIIAA4AIIIA4AI4A44IA4IIIAAA4II4A4AIA
IIAIAAAA4A4AI44A4A444IAIIIAIIIIAA4AIIIA4AI4A44IA4II4AAA4II4A4AIA
IIAIAAAA4A4A444A4A444IAIIIAIIIIAA4AIIIA4AI4A44IA4II4AAA4II4A4AIA
IIAIAAAA4A4A444A4A444IAIIIAIII4AA4AII4A4AI4A44IA4II4AAA4II4A4AIA
IIAIAAAA4A4A444A4A444IAIIIAIII4AA4AI44A4AI4A44IA4II4AAA4II4A4AIA
IIAIAAAA4A4A444A4A444IAIA4A4II4AA4AI44A4AI4A44IA4II4AAA4II4A4AIA
IIAIAAAA4A4A444A4A444IAIA4A4II4AA4A444A4AI4A44IA4II4AAA4II4A4AIA
IIAIAAAA4A4AA44A4A444IAIA4A4I44AA4A444A4AI4A44IA4II4AAA4II4A4AIA
IIAIAAAA4A4AA44A4A444IAIA4A4444AA4A444A4A44A44IA4II4AAA4II4A4AIA
IIAIAAAA4A4AA44A4A444IAIA4A4444AA4A444A4A44A44IA4II4AAA4IA4A4AIA
IIAIAAAA4A4AA44A4A444IAIA4A4444AA4A444A4A44A4A4A4444AAA44A4A4AIA
IIAIAAAA4A4AA44AAA4444AIA4A4444AA4A444A4A44A4A4A4444AAA44A4A4AIA
IIAIAAAA4A4AA44AAA4444A4A4A4444AA4A444A4A44A4A4A4444AAA44A4A4AIA
IIAIAAAA4A4AA44AAA4444AAA4A4444AA4A444A4A44A4A4A4444AAA44A4A4AIA
IIAIAAAA4A4AA44AAA4444AAA4A4444AA4A444A4AA4A4A4A4444AAA44A4A4AIA
IIAIAAAA4A4AA44AAA4444AAA4A4444AA4A444A4AA4A4A4AA444AAA44A4A4A4A
IIAIAAAA4A4AA44AAA4444AAA4A4444AA4A444A4AA4A4A4AA4A4AAA44A4A4A4A
IIAIAAAA4A4AA44AAA4444AAA4A4444AA4A444AAAA4A4A4AA4A4AAA44A4A4A4A
IIAIAAAA4A4AA44AAA4444AAA4A4444AA4A444AAAA4A4AAAA4A4AAA44A4A4A4A
IIAIAAAA4A4AA44AAA4444AAA4A4444AA4AA44AAAA4A4AAAA4A4AAA44A4A4A4A
IIA4AAAA4A4AA44AAA4444AAA4A4444AA4AA44AAAA4A4AAAA4A4AAA44A4A4A4A
IIA4AAAA4A4AA44AAA4444AAA4A4444AA4AA4AAAAA4A4AAAA4A4AAA44A4A4A4A
IIA4AAAA4A4AA44AAA4444AAA4A4444AA4AA4AAAAA4A4AAAA4AAAAA44A4A4A4A
IIAAAAAA4A4AA44AAA4444AAA4A4444AA4AA4AAAAA4A4AAAA4AAAAA44A4A4A4A
IIAAAAAA4A4AA44AAA4444AAA4A4444AA4AA4AAAAA4A4AAAA4AAAAAA4A4A4A4A
IIAAAAAAAA4AA44AAA4444AAA4A4444AA4AA4AAAAA4A4AAAA4AAAAAA4A4A4A4A
IIAAAAAAAA4AA44AAA4444AAA4A4444AA4AA4AAAAA4A4AAAAAAAAAAA4A4A4A4A
IIAAAAAAAA4AA44AAA4444AAA4A4444AA4AA4AAAAA4A4AAAAAAAAAAA4AAA4A4A
IIAAAAAAAA4AA44AAA4444AAA4AA444AA4AA4AAAAA4A4AAAAAAAAAAA4AAA4A4A
IIAAAAAAAA4AA44AAA4A44AAA4AA444AA4AA4AAAAA4A4AAAAAAAAAAA4AAA4A4A
IIAAAAAAAA4AA44AAA4A44AAA4AA444AA4AA4AAAAA4A4AAAAAAAAAAA4AAAAA4A
A4AAAAAAAA4AA44AAA4A44AAA4AA444AA4AA4AAAAA4A4AAAAAAAAAAA4AAAAA4A
A4AAAAAAAA4AA44AAA4A44AAA4AA44AAA4AA4AAAAA4A4AAAAAAAAAAA4AAAAA4A
A4AAAAAAAA4AA44AAA4A44AAA4AA44AAA4AA4AAAAA4A4AAAAAAAAAAA4AIAAA4A
A4IAAAAAAA4AA44AAA4A44AAA4AA44AAA4AA4AAAAA4A4AAAAAAAAAAA4AIAAA4A
A4IAAAAAAA4AA44AAA4A44AAA4AA44AAA4AA4AAAAA4A4AAAAAAAAAAA4A4AAA4A
A4IAAAAAAA4AA44AAA4A44AAA4AA44AAA4AA4AAAAA4I4AAAAAAAAAAA4A4AAA4A
A4IAAAAAAA4AA44AAA4A24AAA4AA44AAA4AA4AAAAA4I4AAAAAAAAAAA4A4AAA4A
A4IAAAAAAA4AA44AAA4A24AAA4AA44AAA4AA4AAAAA4I4AAAAAAAAAAA4AAAAA4A
A4IAAAAAAA4AA44AAA4A24AAA4AA44AAA4AA4AAAAA4I4AAAAAAAAAAA4AAAAA2A
A4IAAAAAAA4AA44AAA4A24AAA4AA44AAA4AA4AAAAA444AAAAAAAAAAA4AAAAA2A
A4IAAAAAAA4AA44AAA4A24AAA4AA44AAA4AA4AAAAA444AAAAAAAAAAAAAAAAA2A
A4IAAAAAAA4AA44AAA4A24AAA4AA44AAA4AA4AAAAA444AAAAAAAAAIAAAAAAA2A
A4IAAAAAAA4AA44AAA4A24AAA4AA44AAA4AA4AAAAA444AAAAAAAAA4AAAAAAA2A
A4IAAAAAAA4AA44AAA4A24AAA4AA44AAA4AA4AAAAA244AAAAAAAAA4AAAAAAA2A
A4IAAAAAAA4AA44AAA4A24AAA4AA44AAA4AA4AAAAA2A4AAAAAAAAA4AAAAAAA2A
A4IAAAAAAA4AA44AAA4A24AAA4AA44AAA4AA4AAAAAIA4AAAAAAAAA4AAAAAAA2A
A4IAAAAAAA4AA44AAA4A24AAA4AA44AAA4AAAAAAAAIA4AAAAAAAAA4AAAAAAA2A
A4IAAAAAAA4AA44AAA4A24AAA4AA44AAA4AAAAAAAAII4AAAAAAAAA4AAAAAAA2A
A4IAAAAAAA4AA44AAA4A24AAA4AA44AAA4AAAAAAAAIA2AAAAAAAAA4AAAAAAA2A
A4IAAAAAAA4AA44AAA4A24AAA4AA44AAA4AAAAAAAAIAIAAAAAAAAA4AAAAAAA2A
A4IAAAAAAA4AA44AAA4A24AAA4AA44AAA4AAAAAAAAIAIAAAAAAAAA2AAAAAAA2A
A4IAAAAAAA4AA44AAA4A24AAA4AA44AAA4AAAAAAAAIA4AAAAAAAAA2AAAAAAA2A
A4IAAAAAAA4AA44AAA4A24AAA4AA44AAA4AAAAAAAA4A4AAAAAAAAA2AAAAAAA2A
A4IAAAAAAA4AA44AAA4A24AAA4AA44AAA4AAAAAAAA4A4AAAAAAAAI2AAAAAAA2A
A4IAAAAAAA4AA44AAA4AA4AAA4AA44AAA4AAAAAAAA4A4AAAAAAAAI2AAAAAAA2A
A4IAAAAAAA4AA44AAA4AA4AAA4AA44AAA4AAAAIAAA4A4AAAAAAAAI2AAAAAAA2A
A24AAAAAAA4AA44AAA4AA4AAA4AA44AAA4AAAAIAAA4A4AAAAAAAAI2AAAAAAA2A
AA2AAAAAAA4AA44AAA4AA4AAA4AA44AAA4AAAAIAAA4A4AAAAAAAAI2AAAAAAA2A
AA2AAAAAAA4AA44AAA4AA4AAA4AA44AAA2AAAA4AAA4A4AAAAAAAAI2AAAAAAA2A
AA2AAAAAAA4AA44AAA4AA4AAA4AA44AAA2AAAAAAAA4A4AAAAAAAA42AAAAAAA2A
AA2AAAAAAA4AA44AAA4AA4AAA4AA44AAA2AAAAAAAA4A4AAAAAAAA22AAAAAAA2A
AA2AAAAAAA4AA44AAA4AA4AAA4AA44AAA2AAAAAAAA4A4AAAAAAAA22AAAAAAAAA
AA2AAAAAAA4AA44AAA4AA4AAA4AA44AAA2AAAAAIAA4A4AAAAAAAA22AAAAAAAAA
AA2AAAAAAA4AA44AAA4AA4AAA4AA44AAA2AAAAAIAA4A4AAAAAAAA22AAAAAAAIA
AA2AAAAAAA2AA44AAA4AA4AAA4AA44AAA2AAAAAIAA4A4AAAAAAAA22AAAAAAAIA
AA2AAAAAAA2AA44AAA4AA4AAA4AA44AAA2AAAAAIAA4A4AAAAAAAA22AAAAAAAAA
AA2AAAAAAA2AA44AAA4AA2AAA4AA44AAA2AAAAAIAA4A4AAAAAAAA22AAAAAAAAA
AA2AAAAAAA2AA44AAA4AA2AAA4AA44AAA2AAAAA4AA4A4AAAAAAAA22AAAAAAAAA
AA2AAAAAAA2AA44AAA4AA2AAA4AA24AAA2AAAAA4AA4A4AAAAAAAA22AAAAAAAAA
AA2AAAAAAA2AA44AAA4AA2AAA4AA24AAA2AAAAA4AA2A4AAAAAAAA22AAAAAAAAA
AA2AAAAAAA2AA44AAA4AA2AAA4AA24AAA2AAAAA4AA2A4AAAAAAAA2AAAAAAAAAA
AAAAAAAAAA2AA44AAA4AA2AAA4AA24AAA2AAAAA4AA2A4AAAAAAAA2AAAAAAAAAA
AAAAAAAAAA2AA44AAA4AA2AAA4AA24AAA2AAAAA4AA2A4AAAAAAAAAAAAAAAAAAA
AAAAAAAAAA2AA44AAA4AA2AAA2AA24AAA2AAAAA4AA2A4AAAAAAAAAAAAAAAAAAA
AAAAAAAAAA2AA44AAA4AA2AAA2AA24AAA2AAAAA2AA2A4AAAAAAAAAAAAAAAAAAA
AAAAAIAAAA2AA44AAA4AA2AAA2AA24AAA2AAAAA2AA2A4AAAAAAAAAAAAAAAAAAA
AAAAAIAAAA2AA44AAA2AA2AAA2AA24AAA2AAAAA2AA2A4AAAAAAAAAAAAAAAAAAA
AAAAAIAAAA2AA44AAAIAA2AAA2AA24AAA2AAAAA2AA2A4AAAAAAAAAAAAAAAAAAA
AAAAAIAAAA2AA44AAA4AA2AAA2AA24AAA2AAAAA2AA2A4AAAAAAAAAAAAAAAAAAA
AAAAAIAAAA2AA44AAA4AAAAAA2AA24AAA2AAAAA2AA2A4AAAAAAAAAAAAAAAAAAA
AAAAAIAAAA2AA44AAA4AAAAAA2AA24AAA2AAAAA2AA2A2AAAAAAAAAAAAAAAAAAA
AAAAAIAAAA2AA44AAA4AAAAAA2AA24AAA2AAAAA2AA2A2AAAAAAAAAAAAAAAAIAA
AAAAAAAAAA2AA44AAA4AAAAAA2AA24AAA2AAAAA2AA2A2AAAAAAAAAAAAAAAAIAA
AAAAAAAAAA2AA44AAA4AAAAAA2AA24AAA2AAAAA2AA2A2AAAAAAAAAAAAAAAAAAA
AAAAAAAAAA2AA44AAA4AAAAAA2AA24AAA2AAAAA2AA2AAAAAAAAAAAAAAAAAAAAA
AAAAAAIAAA2AA44AAA4AAAAAA2AA24AAA2AAAAA2AA2AAAAAAAAAAAAAAAAAAAAA
AAAAAAIAAA2AA44AAA4AAAAAA2AA24AAA2AAAAAAAA2AAAAAAAAAAAAAAAAAAAAA
AAAAAAIAAA2AA44AAA4AAAAAA2AA24AAA2AAAAAAAA2IAAAAAAAAAAAAAAAAAAAA
AAAAAAIAAA2AA44AAA4AAAAAA2AA24AAA2AAAAAAAI2IAAAAAAAAAAAAAAAAAAAA
AAAAAAIAAA2AA44AAA4AAAAAA2AA24AAA2AAAAAAAI2IAAAAAAAAAAIAAAAAAAAA
AAAAAAIAAA2AA44AAA4AAAAAA2AA24AAI2AAAAAAAI2IAAAAAAAAAAIAAAAAAAAA
AAAAAAIAAA2AA44AAA4AAAAAA2AA24AAI2AAAAAAA424AAAAAAAAAAIAAAAAAAAA
AAAAAAIAAA2AA44AAA4AAAAAA2AA24AAI2AAAAAAA424AAAAAAAAAAAAAAAAAAAA
AAAAAAIAAA2AA44AAA4AAAAAA2AA24AAI2AAAAAAA424AAAAAAAAAIAAAAAAAAAA
AAAAAAIAAA2AA44AAA4AAAAAA2AA24AAI2AAAAAAA424AAAAAAAAA4AAAAAAAAAA
AAAAAAIAAA2AA44AAA4AAAAAA2AA24AAI2AAAAAAA424AAAAAAAAA4AAAAAAIAAA
AAAAAA4AAA2AA44AAA4AAAAAA2AA24AAI2AAAAAAA424AAAAAAAAA4AAAAAAIAAA
AAAAAAAAAA2AA44AAA4AAAAAA2AA24AAI2AAAAAAA424AAAAAAAAA4AAAAAAIAAA
AAAAAAAAAA2AA44AAA4AAAAAA2AAA2AAI2AAAAAAA424AAAAAAAAA4AAAAAAIAAA
AAAAAAAAAA2AA44AAA4AAAAAA2AAA2AAI2AAAAAAA224AAAAAAAAA4AAAAAAIAAA
AAAAAAAAAA2AA44AAA4AAAAAA2AAA2AA42AAAAAAA224AAAAAAAAA4AAAAAAIAAA
AAAAAAAAAA2AA44AAA4AAAAAA2AAA2AAA2AAAAAAA224AAAAAAAAA4AAAAAAIAAA
AAAAAAAAAA2AA44AAA4AAAAAA2AAA2AAA2AAAAAAA22AAAAAAAAAA4AAAAAA4AAA
AAAAAAAAAA2AA44AAA4AAAAAA2AAA2AAA2AAAAAAA22AAAAAAAAAA4AAAAAA2AAA
AAAAAAAAAA2AA44AAA4AAAAAA2AAA2AAA2AAAAAAA22IAAAAAAAAA4AAAAAA2AAA
AAAAAAAAAA2AA44AAA4AAAAAA2AAA2AAA2AAAAAAA22AAAAAAAAAA4AAAAAA2AAA
AAAAAAAAAA2AA44AAA4AAAAAA2AAA2AAA2AAAAAAA22AAAAAAAAAAAAAAAAA2AAA
AAAAAAAAAA2AA44AAA4AAAAAA2AAA2AAA2AAAAAAAA2AAAAAAAAAAAAAAAAA2AAA
AAAAAAAAAA2AA4AAAA4AAAAAA2AAA2AAA2AAAAAAAA2AAAAAAAAAAAAAAAAA2AAA
AAAAAAAAAA2AA4AAAA4AAAAAA2AAA2AAA2AAAAAAAA2AAAAAAAAAIAAAAAAA2AAA
AAAAAAAAAA2AA4AAAA4AAAAAA2AAA2AAA2AAAAAAAA2AAAAAAAAA4AAAAAAA2AAA
AAAAAAAAAA2AA4AAIA4AAAAAA2AAA2AAA2AAAAAAAA2AAAAAAAAA4AAAAAAA2AAA
AAAAAAAAAA2AA4AA4A4AAAAAA2AAA2AAA2AAAAAAAA2AAAAAAAAA4AAAAAAA2AAA
AAAAAAAAAA2AA4AA4A4AAAAAA2AAA2AAA2AAAAAAAA2AAAAAAAAA4AAAAAIA2AAA
AAAAAAAAAA2AA4AA4A4AAAAAA2AAA2AAA2AAAAAAAA2AAAAAAAAA4AAAAAIAAAAA
AAAAAAAAAA2AA4AA4A4AAAAAA2AAA2AAA2AAAAAAAA2AAAAAAAAA4AAAAA4AAAAA
AAAAAAAAAA2AA4AAAA4AAAAAA2AAA2AAA2AAAAAAAA2AAAAAAAAA4AAAAA4AAAAA
AAAAAAAAAA2AA4AAAA4AAAAAA2AAA2AAA2AAAAAAAA2AAAAAAAAA4AAAAAAAAAAA
AAAAAAAAAA2AA4AAAA4AAAAIA2AAA2AAA2AAAAAAAA2AAAAAAAAA4AAAAAAAAAAA
AAAAAAAAAA2AA4AAAA4AAAAIA2AAA2AAA2AAAAAAAA2AAAAAAAAA4AAAAAIAAAAA
AAAAAAAAAA2AA4AAAA4AAAAIAAAAA2AAA2AAAAAAAA2AAAAAAAAA4AAAAAIAAAAA
AAAAAAAAAA2AA4AAAA4AAAAIAAAAA2AAA2AAAAAAAA2AAAAAAAAAAAAAAA4AAAAA
AAAAAAAAAA2AA4AAAA4AAAAIAAAAA2AAA2AAAAAAAA2AAAAAAAAAAAAAAAAAAAAA
AAAAAIAAAA2AA4AAAA4AAAAIAAAAA2AAA2AAAAAAAA2AAAAAAAAAAAAAAAAAAAAA
AAAAAIAAAA2AA4AAAA4AAAAIAAAAA2AAA2AAAAAAAA2AAAAAAAAAAAAAAAIAAAAA
AAAAAIAAAA2AA4AAAA4AAAAIAAAAA2AAAAAAAAAAAA2AAAAAAAAAAAAAAAIAAAAA
AAAAAIAAAA2AA4AAAA4AAAA2AAAAA2AAAAAAAAAAAA2AAAAAAAAAAAAAAAIAAAAA
AAAAAIAAAA2AA4AAAA4AAAA2AAAAA2AAAAAAAAAAAA2AAAAAAAAAAAAAAA2AAAAA
AAAAAAAAAA2AA4AAAA4AAAA2AAAAA2AAAAAAAAAAAA2AAAAAAAAAAAAAAA2AAAAA
AAAAAAAAAA2AA4AAAA4AAAA2AAAAA2AAAAAAAAAAAI2AAAAAAAAAAAAAAA2AAAAA
AAAAAAAAAA2AA2AAAA4AAAA2AAAAA2AAAAAAAAAAAI2AAAAAAAAAAAAAAA2AAAAA
AAAAAAAAAA2AA2AAAA4AAAA2AAAAA2AAAAAAAAAAA22AAAAAAAAAAAAAAA2AAAAA
AAAAAAAAAA2AAIAAAA4AAAA2AAAAA2AAAAAAAAAAA22AAAAAAAAAAAAAAA2AAAAA
AAAAAAAAAA2AA4AAAA4AAAA2AAAAA2AAAAAAAAAAA22AAAAAAAAAAAAAAA2AAAAA
AAAAAAAAAA2AA4AAAA4AAAA2AAAAA2AAAAAAAAAAA22AAAAAAAAAAAAAAAAAAAAA
AAAAAAAAAA2AA4AAAA4AAAA2AAAAA2AAAAAAAAAAAA2AAAAAAAAAAAAAAAAAAAAA
AAAAAAAAAA2AA4AAAA4AAAA2AAAAA2AAAAAAAAAAAA2AAAAAAAAAAAAIAAAAAAAA
AAAAAAAAAA2AA4AAAA4AAAA2AAAAA2AAAAAAAAAAAI2AAAAAAAAAAAAIAAAAAAAA
AAAAAAAAAA2AA4AAAA4AAAA2AAAAA2AAAAAAAAAAA22AAAAAAAAAAAAIAAAAAAAA
AAAAAAAAAA2AA4AAAA4AAAA2AAAAA2AAAAAAAAIAA22AAAAAAAAAAAAIAAAAAAAA
AAAAAAAAAA2AA4AAAA4AAAA2AAAAA2AAAAAAAA4AA22AAAAAAAAAAAAIAAAAAAAA
AAAAAAAAAA2AA4AAAA4AAAA2AAAAA2AAAAAAAA4AA22AAAAAAAAAAAA2AAAAAAAA
AAAAAAAAAA2IA4AAAA4AAAA2AAAAA2AAAAAAAA4AA22AAAAAAAAAAAA2AAAAAAAA
AAAAAAAAAA2IA4AAAA4AAAA2AAIAA2AAAAAAAA4AA22AAAAAAAAAAAA2AAAAAAAA
AAAAAAAAAA24A4AAAA4AAAA2AAIAA2AAAAAAAA4AA22AAAAAAAAAAAA2AAAAAAAA
AAAAAAAAAA24A4AAAA4AAAA2AAIAA2AAAAAAAA2AA22AAAAAAAAAAAA2AAAAAAAA
AAAAAIAAAA24A4AAAA4AAAA2AAIAA2AAAAAAAA2AA22AAAAAAAAAAAA2AAAAAAAA
AAAAAIAAAA22A4AAAA4AAAA2AAIAA2AAAAAAAA2AA22AAAAAAAAAAAA2AAAAAAAA
AAAAAAAAAA22A4AAAA4AAAA2AAIAA2AAAAAAAA2AA22AAAAAAAAAAAA2AAAAAAAA
AAAAAAAAAA22A4AAAA4AAAA2AAIAA2AAAAAAAA2AI22AAAAAAAAAAAA2AAAAAAAA
AAAAAAAAAA22A4AAAA4AAAA2AAIAA2AAAAAAAA2AI22AAAAAAAAAAAA2AAIAAAAA
AAAAAAAAAA22A4AAAA4AAAA2AAIAA2AAAAAAAA2A422AAAAAAAAAAAA2AAIAAAAA
AAAAAAAAAA22A4AAAA4AAAA2AAIAA2AAAAAAAA2A422AAAAAAAAAAAA2AA4AAAAA
AAAAAAAAAA22A4AAAA4AAAA2AAIAA2AAAAAAAA2A422AAAAAAAAAAAI2AA4AAAAA
AAAAAAAAAA22A4AAAA4AAAA2AA4AA2AAAAAAAA2A422AAAAAAAAAAAI2AA4AAAAA
AAAAAAAAAA22A4AAAA2AAAA2AA4AA2AAAAAAAA2A422AAAAAAAAAAAI2AA4AAAAA
AAAAAAAAAA22A4AAAA2AAAA2AA4AA2AAAAAAAA2A422AAAAAAAAAAAI2AAAAAAAA
AAAAAAAAIA22A4AAAA2AAAA2AA4AA2AAAAAAAA2A422AAAAAAAAAAAI2AAAAAAAA
AAAAAAAAIA22A4AIAA2AAAA2AA4AA2AAAAAAAA2A422AAAAAAAAAAAI2AAAAAAAA
AAAAAAAAIA22A4AIAA2AAAA2AA4AA2AAAAAAAA2A4A2AAAAAAAAAAA42AAAAAAAA
AAAAAAAAIA22A4AIAA2AAAA2AA2AA2AAAAAAAA2A4A2AAAAAAAAAAA42AAAAAAAA
AAAAAAAAIA22A4AIAA2AAAA2AA2AA2AAAAAAAA2AAA2AAAAAAAAAAA42AAAAAAAA
AAAAAAAAIA22A4AIAA2AAAA2AA2AA2AAAAAAAA2AAI2AAAAAAAAAAA42AAAAAAAA
AAAAAAAAIA22A4AIAA2AAAAAAA2AA2AAAAAAAA2AAI2AAAAAAAAAAA42AAAAAAAA
AAAAAAAAIA22A4AIAA2AAAAAAA2AA2AAAAAAAA2AAI2AAAAAAAAAAA22AAAAAAAA
AAAAAAAAIA22A4AIAA2AAAAAAA2AA2AAAAAAAA2AA42AAAAAAAAAAA22AAAAAAAA
AAAAAAAAIA22A4AIAA2AAAAAAA2AA2AAAAAAAAAAA42AAAAAAAAAAA22AAAAAAAA
AAAAAAAA2A22A4A4AA2AAAAAAA2AA2AAAAAAAAAAA42AAAAAAAAAAA22AAAAAAAA
AAAAAAIA2A22A4A4AA2AAAAAAA2AA2AAAAAAAAAAA42AAAAAAAAAAA22AAAAAAAA
AAAAAA2A2A22A4A4AA2AAAAAAA2AA2AAAAAAAAAAA42AAAAAAAAAAA22AAAAAAAA
AAAAAA2AIA22A4A4AA2AAAAAAA2AA2AAAAAAAAAAA42AAAAAAAAAAA22AAAAAAAA
AAAAAA2AIA22A4A4AA2AAAAAAA2AA2AAAAAAAAAAA42AAAAAAAAAAA2AAAAAAAAA
AAAAAA2AAA22A2A4AA2AAAAAAA2AA2AAAAAAAAAAA42AAAAAAAAAAA2AAAAAAAAA
AAAAAA2AAA22A2A4AA2AAAAAAA2AA2AAAAAAAAAAA42IAAAAAAAAAA2AAAAAAAAA
AAAAAA2AAA22AIA4AA2AAAAAAA2AA2AAAAAAAAAAA42IAAAAAAAAAA2AAAAAAAAA
AAAAAA2AAA22AIA4AA2AAAAAIA2AA2AAAAAAAAAAA42IAAAAAAAAAA2AAAAAAAAA
AAAAAA2AAA22AIA4AA2AAAAAIA2AA2AAAAAAAAAAA424AAAAAAAAAA2AAAAAAAAA
AAAAAA2AIA22AIA4AA2AAAAAIA2AA2AAAAAAAAAAA424AAAAAAAAAA2AAAAAAAAA
AAAAAA2AAA22A2A4AA2AAAAA4A2AA2AAAAAAAAAAA424AAAAAAAAAA2AAAAAAAAA
AAAAAA2AAA22A2A4AA2AAAAA4A2AA2AAIAAAAAAAA424AAAAAAAAAA2AAAAAAAAA
AAAAAA2AAA22A2A4AA2AAAAA4A2AA2AA4AAAAAAAA424AAAAAAAAAA2AAAAAAAAA
AAAAAI2AAA22A2A4AA2AAAAA4A2AA2AA4AAAAAAAA424AAAAAAAAAA2AAAAAAAAA
AAAAAA2AAA22A2A4AA2AAAAA4A2AA2AA4AAAAAAAA424AAAAAAAAAA2AAAAAAAAA
AAAAAA2AAA22A2A4AA2AAAAA4A2AA2AAAAAAAAAAA424AAAAAAAAAA2AAAAAAAAA
AAAAAA2AAA22A2A4AA2AAAAA4A2AA2AAAAAAAAAAAA22AAAAAAAAAA2AAAAAAAAA
AAAAAA2AAA22A2A4AA2AAAAA2A2AA2AAAAAAAAAAAA22AAAAAAAAAA2AAAAAAAAA
AAAAAA2AAA22A2A4AA2AAAAA2A2AA2AAAAAAAAAAAA22AAAAAAAAAAAAAAAAAAAA
AAAAAA2AAA22A2A4AA2AAAAA2A2AAAAAAAAAAAAAAA22AAAAAAAAAAAAAAAAAAAA
AAAAAA2AAA22A2A4AA2AAAAA2A2AAAAAAAAAAAAAAA22AAAAAAAAAAAAAAIAAAAA
AAAAAI2AAA22A2A4AA2AAAAA2A2AAAAAAAAAAAAAAA22AAAAAAAAAAAAAAIAAAAA
AAAAAI2AIA22A2A4AA2AAAAA2A2AAAAAAAAAAAAAAA22AAAAAAAAAAAAAAIAAAAA
AAAAAI2AAA22A2A4AA2AAAAA2A2AAAAAAAAAAAAAAA22AAAAAAAAAAAAAAIAAAAA
AAAAAI2AAA22A2A4AA2AAAAA2A2AAAAAAAAAAAAAAA22AAAAAAAAAAAAAA4AAAAA
AAAAAI2AAA22A2A4AA2AAAAA2A2AAAAAAAAAAAAAAA22AAAAAAAAAAAAAAAAAAAA
AAAAAI2AIA22A2A4AA2AAAAA2A2AAAAAAAAAAAAAAA22AAAAAAAAAAAAAAAAAAAA
AAAAAI2AIA22A2A4AA2AAAAA2A2AAAAAAAAAAAAAAA22AAAAAIAAAAAAAAAAAAAA
AAAAAI2AIA22A2A2AA2AAAAA2A2AAAAAAAAAAAAAAA22AAAAAIAAAAAAAAAAAAAA
AAAAAA2A2A22A2A2AA2AAAAA2A2AAAAAAAAAAAAAAA22AAAAAIAAAAAAAAAAAAAA
AAAAAI2A2A22A2A2AA2AAAAA2A2AAAAAAAAAAAAAAA22AAAAAIAAAAAAAAAAAAAA
AAAAAI2A2A22A2A2AA2AAAAA2A2AAAIAAAAAAAAAAA22AAAAAIAAAAAAAAAAAAAA
AAAAAA2A2A22A2A2AA2AAAAA2A2AAAIAAAAAAAAAAA22AAAAAIAAAAAAAAAAAAAA
AAAAAA2A2A22A2A2AA2AAAAA2A2AAA4AAAAAAAAAAA22AAAAAIAAAAAAAAAAAAAA
AAAAAA2AAA22A2A2AA2AAAAA2A2AAA4AAAAAAAAAAA22AAAAAIAAAAAAAAAAAAAA
AAAAAA2AAA22A2A2AA2AAAAAAA2AAA2AAAAAAAAAAA22AAAAAIAAAAAAAAAAAAAA
AAAAAA2AAA22A2A2AA2AAAAAAA2AAAIAAAAAAAAAAA22AAAAAIAAAAAAAAAAAAAA
AAAAIA2AAA22A2A2AA2AAAAAAA2AAAIAAAAAAAAAAA22AAAAAIAAAAAAAAAAAAAA
AAAAIA2AAA22A2A2AA2AAAAAAA2AAAIAAAAAAAAAAA2AAAAAA4AAAAAAAAAAAAAA
AAAAIA2AAA22A2A2AA2AAAAAAA2AAA4AAAAAAAAAAA2AAAAAA4AAAAAAAAAAAAAA
AAAAIAAAAA22A2A2AA2AAAAAAA2AAA4AAAAAAAAAAA2AAAAAA4AAAAAAAAAAAAAA
AAAAIAAAAA22A2A2AA2AAAAAAA2AAA2AAAAAAAAAAA2AAAAAA4AAAAAAAAAAAAAA
AAAAIAAAAA22A2A2AA2AAAAAAA2AAAAAAAAAAAAAAA2AAAAAA4AAAAAAAAAAAAAA
AAAAIAAAAA22A2A2AA2AAAAAAA2IAAAAAAAAAAAAAA2AAAAAA4AAAAAAAAAAAAAA
AAAAIAAAAA22A2A2AA2AAAAAAA2IAAAAAAAAAAAAAA2AAAAAA2AAAAAAAAAAAAAA
AAAAIAAAAA22A2A2AA2AAAAAAA2IAAAAAAAAAAAAAA2AAAAAAIAAAAAAAAAAAAAA
AAAAAAAAAA22A2A2AA2AAAAAAA2IAAAAAAAAAAAAAA2AAAAAAIAAAAAAAAAAAAAA
AAAAAAAAAA22A2AAAA2AAAAAAA24AAAAAAAAAAAAAA2AAAAAAIAAAAAAAAAAAAAA
AAAAAAAAAA22A2AAAA2AAAAAAA22AAAAAAAAAAAAAA2AAAAAAIAAAAAAAAAAAAAA
AAAAAAIAAA22A2AAAA2AAAAAAA22AAAAAAAAAAAAAA2AAAAAAIAAAAAAAAAAAAAA
AAAAAA2AAA22A2AAAA2AAAAAAA22AAAAAAAAAAAAAA2AAAAAAIAAAAAAAAAAAAAA
AAAAAAIAAA22A2AAAA2AAAAAAA22AAAAAAAAAAAAAA2AAAAAAIAAAAAAAAAAAAAA
AAAAAA2AAA22A2AAAA2AAAAAAA22AAAAAAAAAAAAAA2AAAAAAIAAAAAAAAAAAAAA
AAAAAA2AAA22A2AAAA2AAAAAAA22AAAAAAAAAAAAAA2AAAAAA4AAAAAAAAAAAAAA
AAAAAA2AAA22A2AAAA2AAAAAAAA2AAAAAAAAAAAAAA2AAAAAA4AAAAAAAAAAAAAA
AAAAAA2AAA22A2AIAA2AAAAAAAA2AAAAAAAAAAAAAA2AAAAAA4AAAAAAAAAAAAAA
AAAAAA2AAAA2A2A2AA2AAAAAAAA2AAAAAAAAAAAAAA2AAAAAA4AAAAAAAAAAAAAA
AAAAAA2AAAA2A2A2AA2AAAAAAAAAAAAAAAAAAAAAAA2AAAAAA4AAAAAAAAAAAAAA
AAAAAA2AAAA2A2A2AA2AAIAAAAAAAAAAAAAAAAAAAA2AAAAAA4AAAAAAAAAAAAAA
AAAAAA2AAAA2A2A2AA2AAIAAAAAAAAAAAAAAAAAAAA2AAAAAAAAAAAAAAAAAAAAA
AAAAAA2AAAA2A2A2AA2AAIAIAAAAAAAAAAAAAAAAAA2AAAAAAAAAAAAAAAAAAAAA
AAAAAA2AAAA2A2A2AA2AAIA2AAAAAAAAAAAAAAAAAA2AAAAAAAAAAAAAAAAAAAAA
AAAAAA2AAAA2A2A2AA2AAIA2AAAAAAAAAAAAAAAAAA2AAAAAAIAAAAAAAAAAAAAA
AAAAAA2AAAA2A2A2AA2AA4A2AAAAAAAAAAAAAAAAAA2AAAAAAIAAAAAAAAAAAAAA
AAAAAA2AAIA2A2A2AA2AA4A2AAAAAAAAAAAAAAAAAA2AAAAAAIAAAAAAAAAAAAAA
AAAAAA2AAIAAA2A2AA2AA4A2AAAAAAAAAAAAAAAAAA2AAAAAAIAAAAAAAAAAAAAA
AAAAAA2AA2AAA2A2AA2AA4A2AAAAAAAAAAAAAAAAAA2AAAAAAIAAAAAAAAAAAAAA
AAAAAA2AA2AAA2A2AA2AA4AAAAAAAAAAAAAAAAAAAA2AAAAAAIAAAAAAAAAAAAAA
AAAAAA2AA2AAA2A2AA2AA4AAAAAAAAAAAAAAAAAAAA2AAAAAAIAAAAAIAAAAAAAA
AAAAAA2AA2AAA2A2AA2AA4AAAAAAAAAAAAAAAAAAAA2AAAAAAAAAAAA4AAAAAAAA
AAAAAA2AA2AAA2AAAA2AA2AAAAAAAAAAAAAAAAAAAA2AAAAAAAAAAAA4AAAAAAAA
AAAAAA2AA2AAA2AAAAAAA2AAAAAAAAAAAAAAAAAAAA2AAAAAAAAAAAA4AAAAAAAA
AAAAAA2AA2AAA2AAAAAAA2AAAAAAAAAAAAIAAAAAAA2AAAAAAAAAAAA4AAAAAAAA
AAAAAA2AA2AAA2AAAAAAA2AAAAAAAAAAAA2AAAAAAA2AAAAAAAAAAAA4AAAAAAAA
AAAAAA2AA2AAA2AAAAAAA2AAAAAAAAAAAA2AAAAAAA2AAAAAAAAAAAAAAAAAAAAA
AAAAAA2AA2AAA2AAAAAAA2AAAAAAAAAAAAIAAAAAAA2AAAAAAAAAAAAAAAAAAAAA
AAAAAI2AA2AAA2AAAAAAA2AAAAAAAAAAAAIAAAAAAA2AAAAAAAAAAAAAAAAAAAAA
AAAAAI2AA2AAA2AAAAAAA2AAAAAAAAAIAAIAAAAAAA2AAAAAAAAAAAAAAAAAAAAA
AAAAAIAAA2AAA2AAAAAAA2AAAAAAAAAIAAIAAAAAAA2AAAAAAAAAAAAAAAAAAAAA
AAAAAIAAA2AAA2AAAAAAA2AAAAAAAAAIAAIAAAAAAA2AAAAAAAAAIAAAAAAAAAAA
AAAAAIAAA2AAA2AAAAAAA2AAAAAAAAAIAAIAAAAAAA2AAAAAAAAA4AAAAAAAAAAA
AAAAAIAAA2AAA2AAAAAAA2AAAAAAAAAIAA4AAAAAAA2AAAAAAAAA4AAAAAAAAAAA
AAAAAIAAA2AAA2AAAAAAA2AAAAAAAAAIAA4AAAAAAA2IAAAAAAAA4AAAAAAAAAAA
AAAAA2AAA2AAA2AAAAAAA2AAAAAAAAAIAA4AAAAAAA2IAAAAAAAA4AAAAAAAAAAA
AAAAA2AAA2AAA2AAAAAAA2AAAAAAAAAIAA4AAAAAAA24AAAAAAAA4AAAAAAAAAAA
AAAAA2AAA2AAA2AAAAAAA2AAAAAAAAAIAA4AAAAAAA2AAAAAAAAA4AAAAAAAAAAA
AAAAA2AAA2AAA2AAAAAAA2AAAAAAAAA4AA4AAAAAAA2AAAAAAAAA4AAAAAAAAAAA
AAAAA2AAA2AAA2AAAAAAA2AAAAAAAAA4AA2AAAAAAA2AAAAAAAAA4AAAAAAAAAAA
AAAAA2AAA2AAA2AAAAAAA2AAAAAAAAA4AAAAAAAAAA2AAAAAAAAA4AAAAAAAAAAA
AAAAA2AAA2AAA2AAAAAAA2AAAAAAAAA4AAIAAAAAAA2AAAAAAAAA4AAAAAAAAAAA
AAAAA2AAA2AAA2AAAAAAA2AAAAAAAAA4AAIAAAAAIA2AAAAAAAAA4AAAAAAAAAAA
AAAAA2AAA2AAA2AAAAAAA2AAAAAAAAA4AAIAAAAIIA2AAAAAAAAA4AAAAAAAAAAA
AAAAAAAAA2AAA2AAAAAAA2AAAAAAAAA4AAIAAAAIIA2AAAAAAAAA4AAAAAAAAAAA
AAAAAAAAA2AAA2AAAAAAA2AAAAAAAAA4AAIAAAA22A2AAAAAAAAA4AAAAAAAAAAA
AAAAAAAAA2AAA2AAAAAAA2AAAAAAAAA4AAIAAAA22A2AAAAAIAAA4AAAAAAAAAAA
AAAAAAAAA2AAA2AAAAAAA2AAAAAAAAA4AAIAIAA22A2AAAAAIAAA4AAAAAAAAAAA
AAAAAAAAA2AAA2AAAAAAA2AAAAAAAAA4AAIAIAAA2A2AAAAA4AAA4AAAAAAAAAAA
AAAAAAAAA2AAA2AAAAAAA2AAAAAAAAA4AAIAIAAA2A2AAAAA4AAA4AAAAAAIAAAA
AAAAAAAAA2AAA2AAAAAAA2AAAAAAAAA4AAIAIAAA2A2AAAAA4AAA4AAAAAA4AAAA
AAAAAAAAA2AAA2AAAAAAA2AAAAAAAAA4AAIAIAAA2A2AAAAA4IAA4AAAAAA4AAAA
AAAAAAAAA2AAA2AAAAAAA2AAAAAAAAA4AAIA2AAA2A2AAAAA4IAA4AAAAAA4AAAA
AAAAAAAAA2AAA2AAAAAAA2AAAAAAAAA4AAIAIAAA2A2AAAAA4IAA4AAAAAA4AAAA
AAAAAIAAA2AAA2AAAAAAA2AAAAAAAAA4AAIAIAAA2A2AAAAA4IAA4AAAAAA4AAAA
AAAAAIAAA2AAA2AAAAAAA2AAAAAAAAA4AAAAIAAA2A2AAAAA44AA4AAAAAA4AAAA
AAAAAIAAA2AAA2AAAAAAA2AAAAAAAAA4AAAA2AAA2A2AAAAA44AA4AAAAAA4AAAA
AAAAAAAAA2AAA2AAAAAAA2AAAAAAAAA4AAAA2AAA2A2AAAAA44AA4AAAAAA4AAAA
AAAAAAAAA2AAA2AAAAAAA2AAAAAAAAA4AAAA2AAA2A2AAAAA42AA4AAAAAA4AAAA
AAAAAAAAA2AAA2AAAAAAA2AAAAAAAAA4AAAA2AAA2A2AAAAA4AAA2AAAAAA4AAAA
AAAAAAAAA2AAA2AAAAAAA2AAAAAAAAA4AAAA2AAAAA2AAAAA2AAA2AAAAAA4AAAA
AAAAAAAAA2AAA2AAAAAAA2AAAAAAAAA4AAAA2AAAAA2AAAAA2AAAAAAAAAA4AAAA
AAAAAAAAA2AAA2AAAAAAA2AAAAAAAAAAAAAA2AAAAA2AAAAA2AAAAAAAAAA4AAAA
AAAAAAAAA2AAA2AAAAAAA2AAAAAAAAAAAAAA2AAAAA2AAAAA2AAAAAAAAAAAAAAA
AAAAAAAAA2AIA2AAAAAAA2AAAAAAAAAAAAAA2AAAAA2AAAAA2AAAAAAAAAAAAAAA
AAAAAIAAA2AIA2AAAAAAA2AAAAAAAAAAAAAA2AAAAA2AAAAA2AAAAAAAAAAAAAAA
AAAAAAAAA2A2A2AAAAAAA2AAAAAAAAAAAAAA2AAAAA2AAAAA2AAAAAAAAAAAAAAA
AAAAAAAAA2A2A2AIAAAAA2AAAAAAAAAAAAAA2AAAAA2AAAAA2AAAAAAAAAAAAAAA
AAAAAAAAA2AIA2AIAAAAA2AAAAAAAAAAAAAA2AAAAA2AAAAA2AAAAAAAAAAAAAAA
AAAAAAAAA2A2A2A4AAAAA2AAAAAAAAAAAAAA2AAAAA2AAAAA2AAAAAAAAAAAAAAA
AAAAAAAIA2A2A2A4AAAAA2AAAAAAAAAAAAAA2AAAAA2AAAAA2AAAAAAAAAAAAAAA
AAAAAIAIA2A2A2A4AAAAA2AAAAAAAAAAAAAA2AAAAA2AAAAA2AAAAAAAAAAAAAAA
AAAAAAA2A2A2A2A4AAAAA2AAAAAAAAAAAAAA2AAAAA2AAAAA2AAAAAAAAAAAAAAA
AAAAAAAAA2A2A2A4AAAAA2AAAAAAAAAAAAAA2AAAAA2AAAAA2AAAAAAAAAAAAAAA
AAAAAAAAA2A2A2A4AAAAA2AAAAAAAAAAAAAA2AAAAA2AAAAA2AAAAAAIAAAAAAAA
AAAAAAAAA2A2A2A4AAAAA2AAAAAAAAAAAAAA2AAAAA2AAAAA2AAAAAA4AAAAAAAA
AAAAAAAAA2A2A2A4AAAAA2AAAAAAAAAAIAAA2AAAAA2AAAAA2AAAAAA4AAAAAAAA
AAAAAAAAA2A2A2A4AAAAA2AAAAAAAAAAIAAA2AAAAA2AAAAA2AAAAAA2AAAAAAAA
AAAAAAAAA2A2A2A4AAAAA2AAAAAAAAAA2AAA2AAAAA2AAAAA2AAAAAA2AAAAAAAA
AAAAAIAAA2A2A2A4AAAAA2AAAAAAAAAA2AAA2AAAAA2AAAAA2AAAAAA2AAAAAAAA
AAAAAIAAA2A2A2A4AAAAA2AAAAAAAAAAAAAA2AAAAA2AAAAA2AAAAAA2AAAAAAAA
AAAAAAAAA2A2A2A4AAAAA2AAAAAAAAAAAAAA2AAAAA2AAAAA2AAAAAA2AAAAAAAA
AAAAAAAAA2A2A2A2AAAAA2AAAAAAAAAAAAAA2AAAAA2AAAAA2AAAAAA2AAAAAAAA
AAAAAAAAA2AAA2A2AAAAA2AAAAAAAAAAAAAA2AAAAA2AAAAA2AAAAAA2AAAAAAAA
AAAAAAAAA2AAA2A2AAAAA2AAAAAAAAAAAAAA2AAAAA2AAAAA2AAAAAAAAAAAAAAA
AAAAAIAAA2AAA2A2AAAAA2AAAAAAAAAAAAAA2AAAAA2AAAAA2AAAAAAAAAAAAAAA
AAAAAAAAA2AAA2A2AAAAA2AAAAAAAAAAAAAA2AAAAA2AAAAA2AAAAAAAAAAAAAAA
AAAAAIAAA2AAA2A2AAAAA2AAAAAAAAAAAAAA2AAAAA2AAAAA2AAAAAAAAAAAAAAA
AAAAAIAAA2AAA2AAAAAAA2AAAAAAAAAAAAAA2AAAAA2AAAAA2AAAAAAAAAAAAAAA
AAAAAIAAA2AAA2AAAAAAA2AAAAAAAAAAAAAA2AAAAA2AAAAA2AAAAAAAAAAAAIAA
AAAAAAAAA2AAA2AAAAAAA2AAAAAAAAAAAAAA2AAAAA2AAAAA2AAAAAAAAAAAAIAA
AAAAAAAAA2AAA2AAAAAAA2AAAAAAAAAAAAAAAAAAAA2AAAAA2AAAAAAAAAAAAIAA
AAAAAAAAA2AAA2AAAAAAA2AAAAAAAAAAAAAAAAAAAA2AAAAA2AAAAAAAAAAAA4AA
AAAAAAAAA2AAA2AAAAAAA2AAAAAAAAAAAAAAAAAAAA2AAAAA2AAAAAAAAAAAA2AA
AAAAAIAAA2AAA2AAAAAAA2AAAAAAAAAAAAAAAAAAAA2AAAAA2AAAAAAAAAAAA2AA
AAAAA2AAA2AAA2AAAAAAA2AAAAAAAAAAAAAAAAAAAA2AAAAA2AAAAAAAAAAAA2AA
AAAAAAAAA2AAA2AAAAAAA2AAAAAAAAAAAAAAAAAAAA2AAAAA2AAAAAAAAAAAA2AA
AAAAAAAAA2AAA2AAAAAAA2AAAAIAAAAAAAAAAAAAAA2AAAAA2AAAAAAAAAAAA2AA
AAAAAAAAA2AAA2AAAAAAA2AAAA2AAAAAAAAAAAAAAA2AAAAA2AAAAAAAAAAAA2AA
AAAAAAAAA2AAA2AAAAAAA2IAAA2AAAAAAAAAAAAAAA2AAAAA2AAAAAAAAAAAA2AA
AAAAAAAAA2AAA2AAAAAAA24AAA2AAAAAAAAAAAAAAA2AAAAA2AAAAAAAAAAAA2AA
AAAAAAAAA2AAA2AAAAAAA24AAAAAAAAAAAAAAAAAAA2AAAAA2AAAAAAAAAAAA2AA
AAAAAAAAA2AAA2AAAAAAA24IAAAAAAAAAAAAAAAAAA2AAAAA2AAAAAAAAAAAA2AA
AAAAAAAAA2AAA2AAAAAAA24IAAAAAAAAAAAAAAAAAI2AAAAA2AAAAAAAAAAAA2AA
AAAAAAAAA2AAA2AAAAAAA244AAAAAAAAAAAAAAAAAI2AAAAA2AAAAAAAAAAAA2AA
AAAAAAAAA2AAA2AAAAAAA244AAAAAAAAAAAAAAAAA42AAAAA2AAAAAAAAAAAA2AA
AAAAAAAAA2AAA2AAAAAAA222AAAAAAAAAAAAAAAAA42AAAAA2AAAAAAAAAAAA2AA
AAAAAAAAA2AAA2AAAAAAA22IAAAAAAAAAAAAAAAAA42AAAAA2AAAAAAAAAAAA2AA
AAAAIAAAA2AAA2AAAAAAA22IAAAAAAAAAAAAAAAAA42AAAAA2AAAAAAAAAAAA2AA
AAAA2AAAA2AAA2AAAAAAA22IAAAAAAAAAAAAAAAAA42AAAAA2AAAAAAAAAAAA2AA
AAAA2AAAA2AAA2AAAAAAA22IAAAAAAAAAAAAAAAAA22AAAAA2AAAAAAAAAAAA2AA
AAAA2AAAAAAAA2AAAAAAA22IAAAAAAAAAAAAAAAAA22AAAAA2AAAAAAAAAAAA2AA
AAAA2AAAAAAAA2AAAAAAA22AAAAAAAAAAAAAAAAAA22AAAAA2AAAAAAAAAAAA2AA
AAAA2AAAAAAAA2AAAAAAA22AAAAAAAAAAAAAAAAAAA2AAAAA2AAAAAAAAAAAA2AA
AAAA2AAAAAAAA2AAAAAAA22AAAAAAAAAAAAAAAAAAA2AAAAA2AAAAAAAAAAAAAAA
AAAA2AAAAAAAA2AAAAAAA22AAAAAAAAAIAAAAAAAAA2AAAAA2AAAAAAAAAAAAAAA
AAAA2AAAAAAAA2AAAAAAA22AAAAAAAAAIAAIAAAAAA2AAAAA2AAAAAAAAAAAAAAA
AAAA2AAAAAAAA2AAAAAAA22AAAAAAAAAIAAIAAAAAA2AAAAI2AAAAAAAAAAAAAAA
AAAA2AAAAAAAA2AAAAAAA22AAAAAAAAAIAAIAAAAAA2AAAAI2AAAAAAAAAAAAIAA
AAAA2AAAAAAAA2AAAAAAA22AAAAAAAAAIAAAAAAAAA2AAAAI2AAAAAAAAAAAAIAA
AAAA2AAAAAAAA2AAAAAAA22AAAAAAAAAIAAAAAAAAA2AAAA22AAAAAAAAAAAAIAA
AAAA2AAAAAAAA2AAAAAAA22AAAAAAAAAIAAAAAAAAA2AAAA22AAAAAAAAAAAA2AA
AAAA2AAAAAAAA2AAAAAAA22AAAAAAAAAIAAAAAAAAA2AAAAI2AAAAAAAAAAAA2AA
AAAA2AAAAAAAA2AAAAAAA22AAAAAAAAAAAAAAAAAAA2AAAAI2AAAAAAAAAAAA2AA
AAAA2AAAAAAAA2AAAAAAA22AAAAAAAAAAAAAAAAAAA2AAAAA2AAAAAAAAAAAA2AA
AAAA2AAAAAAAA2AAAAAAA22AAAAAAAAAIAAAAAAAAA2AAAAA2AAAAAAAAAAAA2AA
AAAA2AAAAAAAA2AAAAAAA22AAAAAAAAAAAAAAAAAAA2AAAAA2AAAAAAAAAAAA2AA
AAAA2AAAAAAAA2AAAAAAA22AAAAAAAAAAAAAAAAAAA2AAAAAAAAAAAAAAAAAA2AA
AAAA2AAAAAAAA2AIAAAAA22AAAAAAAAAAAAAAAAAAA2AAAAAAAAAAAAAAAAAA2AA
AAAA2AAAAAAAA2AIAAAAA22AAAAAAAAAAAAAAAAAAI2AAAAAAAAAAAAAAAAAA2AA
AAAA2AAAAAAAA2AIAAAAA22AAAAAAAAAAAAAAAAAA22AAAAAAAAAAAAAAAAAA2AA
AAAA2AAAAAAAA2AIAAAAA22AAAAAAAAAAAAAAAAAA22AAAAAAAAAAAAAAAIAA2AA
AAAA2AAAAAAAA2AIAAAAA22AAAAAAAAAAAAAAAIAA22AAAAAAAAAAAAAAAIAA2AA
AAAA2AAAAAAAA2AIAAAAA22AAAAAAAAAAAAAAAIAA22AAAAAAAAAAAAAAAIAAAAA
AAAA2AAAAAAAA2AIAAAAA22AAAAAAAAAAAAAAAIAA22AAAAAAAAAAAAAAA2AAAAA
AAAA2AAAAAAAA2A4AAAAA22AAAAAAAAAAAAAAAIAA22AAAAAAAAAAAAAAA2AAAAA
AAAA2AAAAAAAA2A4AAAAA22AAAAAAAAAAAAAAAIAA22AAAAAAAAAAAIAAA2AAAAA
AAAA2AAAAAAAA2A4AAAAA22AAAAAAAAAAAAAAAIAA22AAAAAAAAAAA2AAA2AAAAA
AAAA2AAAAAAAA2A4AAAAA22AAAAAAAAAAAAAAAIAA22AAAAAIAAAAA2AAA2AAAAA
AAAA2AAAAAAAA2A4AAAAA22AAAAAAAAAAAAAAA2AA22AAAAA4AAAAA2AAA2AAAAA
AAAA2AAAAAAAA2A4AAAAA22AAAAAAAAAAAAAIA2AA22AAAAA4AAAAA2AAA2AAAAA
AAAA2AAAAAAAA2A4AAAAA22AAAAAAAAAAAAAIA2AA22AAAAA4AAAAI2AAA2AAAAA
AAAA2AAAAAAAA2AAAAAAA22AAAAAAAAAAAAAIA2AA22AAAAA4AAAAI2AAA2AAAAA
AAAA2AAAAAAAA2AAAAAAA22AAAAAAAAAAAAA2A2AA22AAAAA4AAAAI2AAA2AAAAA
AAAA2AAAAAAAA2AAAAAAA22AAAAAAAAAAAAA2A2AA22AAAAA4AAAA42AAA2AAAAA
AAAA2AAAAAAAA2AAAAAAA22AAAAAAAAAAAAA2A2AA22AAAAAAAAAA22AAA2AAAAA
AAAA2AAAAAAAA2AAAAAAA22AAAAAAAAAAAAA2A2AA22AAAAAAAAAA22AAA2AAIAA
AAAA2AAAAAAAA2AIAAAAA22AAAAAAAAAAAAA2A2AA22AAAAAAAAAA22AAA2AAIAA
AAAA2AAAAAAAA2AIAAAAA22AAAAAAAAAAAAA2A2AA22AAAAAIAAAA22AAA2AAIAA
AAAA2AAAAAAAA2AIAAAAA22AAAAAAAAAAAAA2A2AAA2AAAAA4AAAA22AAA2AAIAA
AAAA2AAAAAAAA2AIAAAAA22AAAAAAAAAAAAA2A2AAA2AAAAA4AAAAI2AAA2AAIAA
AAAA2AAAAAAAA2AAAAAAA22AAAAAAAAAAAAA2A2AAA2AAAAA4AAAAI2AAA2AAIAA
AAAA2AAAAAAAA2AAAAAAA22AAAAAAAAAAAAA2A2AAA2AAAAA4AAAAI2AAAAAA2AA
AAAA2AAAAAAAA2AAAAAAA22AAAAAAAAAAAAA2A2AAA2AAAAA4AAAA42AAAAAA2AA
AAAA2AAAAAAAA2AAAAAAA22AAAAAAAAAAAAA2A2AAA2AAAAA4AAAA42AAAAIA2AA
AAAA2AAAAAAAA2AAAAAAA22AAAAAAAAAAAAA2A2AAA2AAAAA2AAAA42AAAA4A2AA
AAAA2AAAAAAAA2AAAAAAA22AAAAAAAAAAAAA2A2AAA2AAAAAIAAAA42AAAA4A2AA
AAAA2AAAAAAAA2AAAAAAA22AAAAAAAAAAAAA2A2AAA2AAAAAAAAAA42AAAA4A2AA
AAAA2AAAAAAAA2AAAAAAA22AAAAAAAAAAAAA2A2AAA2AAAAAAAAAA22AAAA4A2AA
AAAA2AAAAAAAA2AAAAAAA22AAAAAAAAAAAAA2A2AAA2AAAAAIAAAA22AAAA4A2AA
AAAA2AAAAAAAA2AAAAAAA22AAAAAAAAAAAAA2A2AAA2AAAAAAAAAA22AAAA4A2AA
AAAA2AAAAAAAA2AAAAAAA22AAAAAAAAAAAAA2A2AAA2AAAAAAAAAAA2AAAA2A2AA
AAAA2AAAAAAAA2AAAAAAA22AAAAAAAAAIAAA2A2AAA2AAAAAAAAAAA2AAAA2A2AA
AAAA2AAAAAAAA2AAAAAAA22AAAAAAAAIIAAA2A2AAA2AAAAAAAAAAA2AAAA2A2AA
AAAAAAAAAAAAA2AAAAAAA22AAAAAAAAIIAAA2A2AAA2AAAAAAAAAAA2AAAA2A2AA
AAAAAAAAAAAAA2AAAAAAA2AAAAAAAAAIIAAA2A2AAA2AAAAAAAAAAA2AAAA2A2AA
AAAAAAAAAAAAA2AAAAAAA2AAAAAAAAAI4AAA2A2AAA2AAAAAAAAAAA2AAAA2A2AA
AAAAAAAAAAAAA2AAAAAAA2AAAAAAAAAI4AAA2A2AAA2AIAAAAAAAAA2AAAA2A2AA
AAAAAAAAAAAAA2AAAAAAA2AAAAAAAAAI4AAA2A2AAA2A4AAAAAAAAA2AAAA2A2AA
AAAAAAAAAAAAA2AAAAAAA2AAAAAAAAAI4AAA2A2AAA2A4AAAAAAAAA2AAAA2AAAA
AAAAAAAAAAAAA2AAAAAAA2AAAAAAAAAI4AIA2A2AAA2A4AAAAAAAAA2AAAA2AAAA
AAAAAAAAAAAAA2AAAAAAA2AAAAAAAAAI4AIA2A2AAA2A4AAAAAAAIA2AAAA2AAAA
AAAAAAAAAAAAA2AAAAAAA2AAAAAAAAAI4AIA2A2AAA2A4AAAAAAAIA2AAAAAAAAA
AAAAAAAAAAAAA2AAAAAAA2AAAAAAAAAI4AIA2A2AAA2A4AAAAAAAIAAAAAAAAAAA
AAAAAAAAAAAAA2AAAAAAA2AAAAAAAAA44AIA2A2AAA2A4AAAAAAAIAAAAAAAAAAA
AAAAAAAAAAAAA2AAAAAAA2AAAAAAAAA44AIA2A2AAA2A2AAAAAAA4AAAAAAAAAAA
AAAAAAAAAAAAA2AAAAAAA2AAAAAAAAA44A4A2A2AAA2A2AAAAAAA4AAAAAAAAAAA
AAAAAAAAAAAAA2AAAAAAA2AAAAAAAAA44A4A2A2AAA2A2AAAAAAA2AAAAAAAAAAA
AAAAAAAAAAAAA2AAAAAAA2AAAAAAAAA44A4A2A2AAA2I2AAAAAAA2AAAAAAAAAAA
AAAAAAAAAAAAA2AAAAAAA2AAAAAAAAA44A4A2A2AAA2I2AAAAAAA2AAAAAIAAAAA
AAAAAAAAAAAAA2AAAAAAA2AAAAAAAAA4AA2A2A2AAA242AAAAAAA2AAAAAIAAAAA
AAAAAAAAAAAAA2AIAAAAA2AAAAAAAAA4AA2A2A2AAA242AAAAAAA2AAAAAIAAAAA
AAAAAAAAAAAAA2AAAAAAA2AAAAAAAAA4AA2A2A2AAA242AAAAAAA2AAAAAIAAAAA
AAAAAAAAAAAAA2AAAAAAA2AAAAAAAAA4AA2A2A2AAA242AAAAAAA2AAAAAAAAAAA
AAAAAAAAAAAAA2AAAAAAA2AAAAAAAAA4AA2A2A2AAA222AAAAAAA2AAAAAAAAAAA
AAAAAAAAAAAAA2AAAAAAA2AAAAAAAAA4AA2AAA2AAA222AAAAAAA2AAAAAAAAAAA
AAAAAAAAAAAAA2AAAAAAA2AAAAAAAAA4AA2AAAAAAA222AAAAAAA2AAAAAAAAAAA
AAAAAAAAAAAAA2AAAAAAA2AAAAAAAAA4AA2AAAAAAA2A2AAAAAAA2AAAAAAAAAAA
AAAAAAAAAAAAA2AAAIAAA2AAAAAAAAA4AA2AAAAAAA2A2AAAAAAA2AAAAAAAAAAA
AAAAAAAAAAAAA2AAAIAAA2AAAAAAAAA4AA2AAAAAAA2A2AAAAAAA2AAAAAAAAAAI
AAAAAAAAAAAAA2AAA4AAA2AAAAAAAAA4AA2AAAAAAA2A2AAAAAAA2AAAAAAAAAAI
AAAAAAAAAAAAA2AAA2AAA2AAAAAAAAA4AA2AAAAAAA2A2AAAAAAA2AAAAAAAAAAI
AAAAAAAAAAAAA2AAA2AAA2AAAAAAAAA4AA2AAAAAAA2A2AAAAAAAAAAAAAAAAAA4
AAAAAAAAAAAAA2AAA2AAA2AAAAAAAAA4AA2AAAAAAA2AAAAAAAAAAAAAAAAAAAA4
AAAAAAAAAAAAA2AAA2AAA2AAAAAAAAA4AA2AAAAAAA2AAAAAAAAAAAAAAAAAAAA2
AAAAIAAAAAAAA2AAA2AAA2AAAAAAAAA4AA2AAAAAAA2AAAAAAAAAAAAAAAAAAAA2
AAAAIAAAAAAAA2AAA2AAA2AAAAAAAAA4AA2IAAAAAA2AAAAAAAAAAAAAAAAAAAA2
AAAAIAAAAAAAA2AAA2AAA2AAAAAAAAA4AA24AAAAAA2AAAAAAAAAAAAAAAAAAAA2
AAAAIAAAAAAAA2AAA2AAA2AAAAAAAAA4AA24AAIAAA2AAAAAAAAAAAAAAAAAAAA2
AAAAIAAAAAAAA2AAA2AAA2AAAAAAAAA2AA24AA4AAA2AAAAAAAAAAAAAAAAAAAA2
AAAAIIAAAAAAA2AAA2AAA2AAAAAAAAA2AA24AA4AAA2AAAAAAAAAAAAAAAAAAAA2
AAAAIIAAAAAAA2AAA2AAA2AAAAAAAAA2AA24AA4AAA2AAAAAAAAAAAIAAAAAAAA2
AAAAIIAAAAAAA2AAA2AAA2AAAAAAAAA2AA24AA4AAA2AAAAAAAAAAAIAAAAAAAAA
AAAA2IAAAAAAA2AAA2AAA2AAAAAAAAA2AA24AA4AAA2AAAAAAAAAAAIAAAAAAAAA
AAAA2IAAAAAAA2AAA2AAA2AAAAAAAAA2AA24AA4AAA2AAAAAAAAAAA2AAAAAAAAA
AAAA2IAAAAAAA2AAA2AAA2AAAAAAAAA2AA22AA2AAA2AAAAAAAAAAA2AAAAAAAAA
AAAA2IAAAAAAA2AAA2AAA2AIAAAAAAA2AA22AA2AAA2AAAAAAAAAAA2AAAAAAAAA
AAAA2AAAAAAAA2AAA2AAA2AIAAAAAAA2AA22AA2AAA2AAAAAAAAAAA2AAAAAAAAA
AAAA2IAAAAAAA2AAA2AAA2AIAAAAAAA2AA22AA2AAA2AAAAAAAAAAA2AAAAAAAAA
AAAA2AAAAAAAA2AAA2AAA2AIAAAAAAA2AA22AA2AAA2AAAAAAAAAAA2AAAAAAAAA
AAAA2AAAAAAAA2AAA2AAA2AIAAAAAAA2AA22AA2AAA2AIAAAAAAAAA2AAAAAAAAA
AAAA2AAAAAAAA2AAA2AAA2AAAAAAAAA2AA22AA2AAA2AIAAAAAAAAA2AAAAAAAAA
AAAAAAAAAAAAA2AAA2AAA2AAAAAAAAA2AA22AA2AAA2AIAAAAAAAAA2AAAAAAAAA
AAAAAAAAAAAAA2AAAAAAA2AAAAAAAAA2AA22AA2AAA2AIAAAAAAAAA2AAAAAAAAA
AAAAAAAAAAAAA2AAAAAAA2AAAAAAAAA2AA22AA2AAA2A2AAAAAAAAA2AAAAAAAAA
AAAAAAAAAAAAA2AAAAAAA2AAAAAAAAA2AA22AAAAAA2A2AAAAAAAAA2AAAAAAAAA
AAAAAAAAAAAAA2AAAAAAA2AAAAAAAAA2AAA2AAAAAA2A2AAAAAAAAA2AAAAAAAAA
AAAAAAAAAAAAA2AAAAAAA2AAAAAAAAA2AAA2AAAAIA2A2AAAAAAAAA2AAAAAAAAA
AAAAAAAAAAAAA2AAAAAAA2AAAAAAAAA2AAA2AAAAIA2A2AAAAAAAAI2AAAAAAAAA
AAAAAAAAAAAAA2AAAAAAA2AAAAAAAAA2AAA2AAAA2A2A2AAAAAAAAI2AAAAAAAAA
AAAAAAAAAAAAA2AAAAAAA2AAAAAAAAA2AAI2AAAA2A2A2AAAAAAAAI2AAAAAAAAA
AAAAAAAAAAAAA2AAAAAAA2AAAAAAAAA2AAI2AAAA2A2A2AAAAAAAA42AAAAAAAAA
AAAAAAAAAAAAA2AAAAAAA2AAAAAAAAA2AAI2AAAA2A2A2AAIAAAAA42AAAAAAAAA
AAAAAAAAAAAAA2AAAAAAA2AAAAAAAAA2AA22AAAA2A2A2AAIAAAAA42AAAAAAAAA
AAAAAAAAAAAAA2AAAAAAA2AAAAAAAAA2AA22AAAA2A2A2AA2AAAAA42AAAAAAAAA
AAAAAIAAAAAAA2AAAAAAA2AAAAAAAAA2AA22AAAA2A2A2AA2AAAAA42AAAAAAAAA
AAAAAIAAAAAAA2AAAAAAA2AAAAAAAAA2AA22AAAA2A2I2AA2AAAAA42AAAAAAAAA
AAAAAIAAAAAAA2AAAAAAA2AAAAAAAAA2AA22AAAA2A2I2AAIAAAAA42AAAAAAAAA
AAAAAAAAAAAAA2AAAAAAA2AAAAAAAAA2AA22AAAA2A2I2AAIAAAAA42AAAAAAAAA
AAAAAAAAAAAAA2AAAAAAA2AAAAAAAAA2AA22AAAA2A2A2AA2AAAAA42AAAAAAAAA
AAAAAAAAAAAAA2AAAAAAA2AAAAAAAAA2AA22AAAA2A2A2AA2AAAAA22AAAAAAAAA
AAAAAAAAAAAAA2AAAAAAA2AAAAAAAAAAAA22AAAA2A2A2AA2AAAAA22AAAAAAAAA
AAAAAIAAAAAAA2AAAAAAA2AAAAAAAAAAAA22AAAA2A2A2AA2AAAAA22AAAAAAAAA
AAAAA2AAAAAAA2AAAAAAA2AAAAAAAAAAAA22AAAA2A2A2AA2AAAAA22AAAAAAAAA
AAAAA2AAAAAAA2AAAIAAA2AAAAAAAAAAAA22AAAA2A2A2AA2AAAAA22AAAAAAAAA
AAAAAAAAAAAAA2AAA4AAA2AAAAAAAAAAAA22AAAA2A2A2AA2AAAAA22AAAAAAAAA
AAAAAAAAAAAAA2AAA4AAA2AAAAAAAAAAAA22AAIA2A2A2AA2AAAAA22AAAAAAAAA
AAAAAIAAAAAAA2AAA4AAA2AAAAAAAAAAAA22AAIA2A2A2AA2AAAAA22AAAAAAAAA
AAAAAAAAAAAAA2AAA4AAA2AAAAAAAAAAAA22AAIA2A2A2AA2AAAAA22AAAAAAAAA
AAAAAAAAAAAAA2AAA4AAA2AAAAAAAAAAAA22AA2A2A2A2AA2AAAAA22AAAAAAAAA
AAAAAAAAAAAAA2AAA4AAA2AAAAAAAAAAAA22AAAA2A2A2AA2AAAAA22AAAAAAAAA
AAAAAAAAAAAAA2AAA4AAA2AAAAAAAAAAAA22AAAAAA2A2AA2AAAAA22AAAAAAAAA
AAAAAAAAAAAAA2AAA4AAA2AAAAAAAAAAAA22AAAAAA2A2AA2AAAAA22AAAIAAAAA
AAAAAAAAAAAAA2AAA4AAA2AAAAAAAAAAAA22AAAAAA2A2AA2AAAAA22AAAAAAAAA
AAAAAAAAAAAAA2AAA4AAA2AAAAAAAAAAIA22AAAAAA2A2AA2AAAAA22AAAAAAAAA
AAAAAAAAAAAAA2AAA4AAA2AAAAAAAAAAIA22AAAAAI2A2AA2AAAAA22AAAAAAAAA
AAAAAAAAAAAAA2AAAAAAA2AAAAAAAAAAIA22AAAAAI2A2AA2AAAAA22AAAAAAAAA
AAAAAAAAAAAAA2AAAIAAA2AAAAAAAAAAIA22AAAAAI2A2AA2AAAAA22AAAAAAAAA
AAAAAAAAAAAAA2AAA4AAA2AAAAAAAAAAIA22AAAAAI2A2AA2AAAAA22AAAAAAAAA
AAAAAAAAAAAAA2AAA4AAA2AAAAAAAAAAAA22AAAAA42A2AA2AAAAA22AAAAAAAAA
AAAAAAAAAAAAA2AAA4AAA2AAAAAAAAAAAA22AAAAA42AAAA2AAAAA22AAAAAAAAA
AAAAAAAAAAAAA2AAA2AAA2AAAAAAAAAAAA22AAAAA42AAAA2AAAAA22AAAAAAAAA
AAAAAAAAAAAAA2AAA2AAA2AAAAAAAAAAAA22AAAAA42AAAA2AAAAA22IAAAAAAAA
AAAAAAAAAAAAA2AAA2AAA2AAAAAAAAAAAA22AAAAA42AAAA2AAAAA22AAAAAAAAA
AAAAAAAAAAAAA2AAA2AAA2AAAAIAAAAAAA22AAAAA42AAAA2AAAAA22AAAAAAAAA
AAAAAAAAAAAAA2AAA2AAA2AAAAIAAAAAAA22AAAAA42IAAA2AAAAA22AAAAAAAAA
AAAAAAAAAAAAA2AAA2AAA2AAAAIAAAAAAA22AAAAA42IAAA2AAAAA22AAAAAAAIA
AAAAAAAAAAAAA2AAA2AAA2AAAAIAAAAAAA22AAAAA42IAAA2AAAAA22AAAAAAA2A
AAAAAAAAAAAAA2AAA2AAA2AAAA2AAAAAAA22AAAAA42IAAA2AAAAA22AAAAAAA2A
AAAAAAAAAAAAA2AAA2AAA2AAAA2AAAAAAA22AAAAA424AAA2AAAAA22AAAAAAA2A
AAAAAAAAAAAAA2AAA2AAA2AAAA2AAAAAAA22AAAAA222AAA2AAAAA22AAAAAAA2A
AAAAAAAAAAAAA2AAA2AAA2AAAA2AAAAAAA2AAAAAA222AAA2AAAAA22AAAAAAA2A
AAAAAAAAAAAAA2AAA2AAA2AAAA2AAAAAIA2AAAAAA222AAA2AAAAA22AAAAAAA2A
AAAAAAAAAAAAA2AAA2AAA2AAAA2AAAAAAA2AAAAAA222AAA2AAAAA22AAAAAAA2A
AAAAAAAAAAAAA2AAA2AAA2AAAA2AAAAAAA2AAAAAA222AAA2AAAAA22AAAAAAA2I
AAAAAAAAAAAAA2AAA2AAA2AAAA2AAAAAAA2AAAIAA222AAA2AAAAA22AAAAAAA2I
AAAAAAAAAAAAA2AAA2AAA2AAAA2AAAAAAA2AAAIAA22AAAA2AAAAA22AAAAAAA2I
AAAAAAAAAAAAA2AAA2AAA2AAAA2AAAAAAA2AAIIAA22AAAA2AAAAA22AAAAAAA2I
AAAAAAAAAAAAA2AAA2AAA2AAAA2AAAAAAA2AAIIAA22AAAA2AAAAA22AAAAAAA24
AAAAAIAAAAAAA2AAA2AAA2AAAA2AAAAAAA2AAIIAA22AAAA2AAAAA22AAAAAAA24
AAAAAIAAAAAAA2AAA2AAA2AAAA2AAAAAAA2AAIIAA22AAAA2AAAAA2AAAAAAAA24
AAAAAIAAAAAAA2AAA2AAA2AAAA2AAAAAAA2AA22AA22AAAA2AAAAA2AAAAAAAA24
AAAAAIAAAAAAA2AAA2AAA2AAAA2AAAAAAA2AA22AA22IAAA2AAAAA2AAAAAAAA24
AAAAAIAAAAAAA2AAA2AAA2AAAA2AAAAAAA2AA22AA22IAAA2AAAAAAAAAAAAAA24
AAAAAIAAAAAAA2AAA2AAA2AAAA2AAAAAAA2AA22AA22AAAA2AAAAAAAAAAAAAA24
AAAAAIAAAAAAA2AAA2AAA2AAAA2AAAAAAA2AA22AA22AAAA2AAAAAAAAAAAAAA22
AAAAA2AAAAAAA2AAA2AAA2AAAA2AAAAAAA2AA22AA22AAAA2AAAAAAAAAAAAAA22
AAAAA2AAAAAAA2AAA2AAA2AAAA2AAAAAAA2AA22AAA2AAAA2AAAAAAAAAAAAAA22
AAAAA2AAAAAAA2AAA2AAA2AAAA2IAAAAAA2AA22AAA2AAAA2AAAAAAAAAAAAAA22
AAAAAAAAAAAAA2AAA2AAA2AAAA2IAAAAAA2AA22AAA2AAAA2AAAAAAAAAAAAAA22
AAAAAAAAAAAAA2AAA2AAA2AAAA22AAAAAA2AA22AAA2AAAA2AAAAAAAAAAAAAA22
AAAAAAAAAAAAA2AAA2AAA2AAAAA2AAAAAA2AA22AAA2AAAA2AAAAAAAAAAAAAA22
AAAAAIAAAAAAA2AAA2AAA2AAAAA2AAAAAA2AA22AAA2AAAA2AAAAAAAAAAAAAA22
AAAAAIAAAAAAA2AAA2AAA2AAAAA2AAAAAA2AA22AIA2AAAA2AAAAAAAAAAAAAA22
AAAAAIAAAAAAA2AAAAAAA2AAAAA2AAAAAA2AA22AIA2AAAA2AAAAAAAAAAAAAA22
AAAAAAAAAAAAA2AAAAAAA2AAAAA2AAAAAA2AA22AIA2AAAA2AAAAAAAAAAAAAA22
AAAAAAAAAAAAA2AAAAAAA2AAAAA2AAAAAA2AA22AIA2AAAA2AAAAAAAAAAIAAA22
AAAAAAAAAAAAA2AAAAAAA2AAAAA2AAAAAA2AA22A4A2AAAA2AAAAAAAAAAIAAA22
AAAAAAAAAAAAA2AAAAAAA2AAAAA2AAAAAA2AA22A4A2AAAA2AAAAAAAAAA4AAA22
AAAAAAAAAAAIA2AAAAAAA2AAAAA2AAAAAA2AA22A4A2AAAA2AAAAAAAAAA4AAA22
AAAAAAAAAAAIA2AAAAAAA2AIAAA2AAAAAA2AA22A4A2AAAA2AAAAAAAAAA4AAA22
AAAAAAAAAAAIA2AAAAAAA2AIAAA2AAAAAA2AA22A4A2AAAA2AAAAAAAAAA2AAA22
AAAAAAAAAAAIA2AAAAAAA2AIAAA2AAAAAA2AA22AAA2AAAA2AAAAAAAAAA2AAA22
AAAAAAAAAAAIA2AAAAAAA2AIAAA2AAAAAA2AA22AAA2AAAA2AAAAAAAAAAAAAA22
AAAAAAAAAAA2A2AAAAAAA2AIAAA2AAAAAA2AA22AAA2AAAA2AAAAAAAAAAAAAA22
AAAAAAAAAAA2A2AAAAAAA2A4AAA2AAAAAA2AA22AAA2AAAA2AAAAAAAAAAAAAA22
AAAAAAAAAAA2A2AAAAAAA2A4AAA2AAAAAA2AA22AAA2AAAA2AAAAAAAAAAIAAA22
AAAAAAAAAAA2A2AAAAAAA2A4AAA2AAAAAA2AA22AAA2AAAA2AAAAAAAAAAAAAA22
AAAAAAAAAAA2A2AAAAAAA2A4AAA2AAAAAA2AA22AAA2AAAI2AAAAAAAAAAAAAA22
AAAAAAAAAAA2A2AAAAAAA2A4AAA2AAAAAA2AA22AAA2AAA42AAAAAAAAAAAAAA22
AAAAAAAAAAA2A2AAAAAAA2A4AAA2AAAAAA2AA22AAA2AAA22AAAAAAAAAAAAAA22
AAAAAAAAAAA2A2AAAAAAA2A2AAA2AAAAAA2AA22AAA2AAA22AAAAAAAAAAAAAA22
AAAAAAAAAAA2A2AAAAAAA2A2AAA2AAAAAAAAA22AAA2AAA22AAAAAAAAAAAAAA22
AAAAAAAAAAA2A2AAAAAAA2A2AAAAAAAAAAAAA22AAA2AAA22AAAAAAAAAAAAAA22
AAAAAAAAAAA2A2AAAAAAA2A2AAAAAAAAAAAAA22AAI2AAA22AAAAAAAAAAAAAA22
AAAAAAAAAAA2A2AAAAAAA2A2AAAAAAAAAAAAA22AA42AAA22AAAAAAAAAAAAAA22
AAAAAAAAAAA2A2AAAAAAA2A2AAAAAAAAAAAAA22AA22AAA22AAAAAAAAAAAAAA22
AAAAAAAAAAA2A2AAAAAAA2A2AAAAAAAAAAAAA22AA22AAA22AAAAAAAAAAIAAA22
AAAAAAAAAAA2A2AAAAAAA2A2AAAAAAAAAAAAA22AA22IAA22AAAAAAAAAAIAAA22
AAAAAAAAAAA2A2AAAAAAA2A2AAAAAAAAAAAAA22AA22AAA22AAAAAAAAAAIAAA22
AAAAAAAAAAA2A2AAAAAAA2I2AAAAAAAAAAAAA22AA22AAA22AAAAAAAAAAIAAA22
AAAAAAAAAAA2A2AAAAAAA2I2AAAAAAAAAAAAA22AA22AAA22AAAAAAAAAAIAAAA2
AAAAAAAAAAA2A2AAAAAAA2I2AAAAAAAAAAAAA22AAA2AAA22AAAAAAAAAA4AAAA2
AAAAAAAAAAA2A2AAAAAAA242AAAAAAAAAAAAA22AAA2AAA22AAAAAAAAAA4AAAA2
AAAAAAAAAAA2A2AAAAAAA242AAAAAAAAAAAAA22AAA2AAA22AAAAAAAAAA4AAAI2
AAAAAAAIAAA2A2AAAAAAA242AAAAAAAAAAAAA22AAA2AAA22AAAAAAAAAA4AAAI2
AAAAAAAIAAA2A2AAAAAAA242AAAAAAAAAAAAA22AAA2AAA22AAAAAAAIAA4AAAI2
AAAAAAAIAAA2A2AAAAAAA242AAAAAAAAAAAAA22AAA2AAA22AAAAAAA4AA4AAAI2
AAAAAAAIAAA2A2AAAAAAA242AAAAAAAAAAAAA22AAA2AAA22AAAAAAA4AAAAAA22
AAAAAAAIAAA2A2AAAAAAA242AAAAAAIAAAAAA22AAA2AAA22AAAAAAA4AAAAAA22
AAAAAAA2AAA2A2AAAAAAA242AAAAAAIAAAAAA22AAA2AAA22AAAAAAA4AAAAAA22
AAAAAAA2AAA2A2AAAAAAA242AAAAAA2AAAAAA22AAA2AAA22AAAAAAA4AAAAAA22
AAAAAAA2AAA2A2AAAAAAA242AAAAAA2AAAAAA2AAAA2AAA22AAAAAAA4AAAAAA22
AAAAAIA2AAA2A2AAAAAAA242AAAAAA2AAAAAA2AAAA2AAA22AAAAAAA4AAAAAA22
AAAAAIA2AAA2A2AAAAAAA222AAAAAA2AAAAAA2AAAA2AAA22AAAAAAA4AAAAAA22
AAAAAIA2AAA2A2AAAAAAA222AAAAAA2AAAAAA2AAAA2AAA22AAAAAAA4AAAAAAA2
AAAAAAA2AAA2A2AAAAAAA222AAAAAA2AAAAAA2AAAA2AAA22AAAAAAA4AAAAAAA2
AAAAAAA2AAA2A2AAAAAAA22AAAAAAA2AAAAAA2AAAA2AAA22AAAAAAA4AAAAAAA2
AAAAAAA2AAA2A2AAAAAAA22AAAAAAA2AAAAAA2AAAA2AAA22AAAAAAAAAAAAAAA2
AAAAAAA2AAA2A2AAAAAAA22AAAAAAA2AIAAAA2AAAA2AAA22AAAAAAAAAAAAAAA2
AAAAAAA2AAA2A2AAAAAAA22AAAAIAA2AIAAAA2AAAA2AAA22AAAAAAAAAAAAAAA2
AAAAAAAAAAA2A2AAAAAAA22AAAAIAA2AIAAAA2AAAA2AAA22AAAAAAAAAAAAAAA2
AAAAAAAAAAA2A2AAAAAAA22AAAAIAA2AIAAAA2AAAA2AAA22AIAAAAAAAAAAAAA2
AAAAAAAAAAA2A2AAAAAAA22AAAAIAA2AIAAAA2AAAA2AAA22A2AAAAAAAAAAAAA2
AAAAAAAAAAA2A2AAAAAAA22AAAAIAA2AAAAAA2AAAA2AAA22A2AAAAAAAAAAAAA2
AAAAAAAAAAA2A2AAAAAAA22AAAAIAA2AAAAAA2AAAA2IAA22A2AAAAAAAAAAAAA2
AAAAAAAAAAA2A2AAAAAAA22AAAAIAA2AAAAAA2AAAA2IAA22A2AAAAAAAAIAAAA2
AAAAAAAAAAA2A2AAAAAAA22AAAA4AA2AAAAAA2AAAA2IAA22A2AAAAAAAAIAAAA2
AAAAAAAAAAA2A2AAAAAAA22AAAA4AA2AAIAAA2AAAA2IAA22A2AAAAAAAAIAAAA2
AAAAAAAAAAA2A2AAAAAAA22AAAA4AA2AAIAAA2AAAA2IAA22A2AAAAAAAA2AAAA2
AAAAAAAAAAA2A2AAAAAAA22AAAA4AA2AAIAAA2AAAA2IAA22A2AAAAAAAAAAAAA2
AAAAAAAAAAA2A2AAAAAAA22AAAA2AA2AAIAAA2AAAA24AA22A2AAAAAAAAAAAAA2
AAAAAAAAAAA2A2AAAAAAA22AAAA2AA2AAIAAA2AAAA22AA22A2AAAAAAAAAAAAA2
AAAAAAAAAAA2A2AAAAAAA22AAAA2AA2AAAAAA2AAAA22AA22A2AAAAAAAAAAAAA2
AAAAAAAAAAA2A2AAAAAAA22AAAA2AA2AAAAAA2IAAA22AA22A2AAAAAAAAAAAAA2
AAAAAAAAAAA2A2AAAAAAAA2AAAA2AA2AAAAAA24AAA22AA22A2AAAAAAAAAAAAA2
AAAAAAAAAAA2A2AAAAAAAA2AAAAAAA2AAAAAA24AAA22AA22A2AAAAAAAAAAAAA2
AAAAAAAAAAA2A2AAAAAAAAAAAAAAAA2AAAAAA24AAA22AA22A2AAAAAAAAAAAAA2
AAAAAAAAAAA2A2AAAAAAAAAAAAAAAA2AAAAAA22AAA22AA22A2AAAAAAAAAAAAA2
AAAAAAAAAAA2A2AAAAAAAAAAAAAAAA2AAAAAA22AAA2AAA22A2AAAAAAAAAAAAA2
AAIAAAAAAAA2A2AAAAAAAAAAAAAAAA2AAAAAA22AAA2AAA22A2AAAAAAAAAAAAA2
AAIAAAAAAAA2A2AAAAAAAAAAAAAAAA2AAAAAA22AAA2IAA22A2AAAAAAAAAAAAA2
AAIAAAAAAAA2A2AAAAAAAAAAAAAAAA2AAAAAA22AAA2AAA22A2AAAAAAAAAAAAA2
AAIAAAAAAAA2A2AAIAAAAAAAAAAAAA2AAAAAA22AAA2AAA22A2AAAAAAAAAAAAA2
AAIAAAAAAAAAA2AA2AAAAAAAAAAAAA2AAAAAA22AAA2AAA22A2AAAAAAAAAAAAA2
AAIAAAAIAAAAA2AA2AAAAAAAAAAAAA2AAAAAA22AAA2AAA22A2AAAAAAAAAAAAA2
AAAAAAA2AAAAA2AA2AAAAAAAAAAAAA2AAAAAA22AAA2AAA22A2AAAAAAAAAAAAA2
AAAAAAA2AAAAA2AA2AAAAAAAAAAAAA2AAAAAA22AAA2AAA22A2AAAAIAAAAAAAA2
AAAAAAA2AAAAA2AA2AAAAAAAAAAAAA2AIAAAA22AAA2AAA22A2AAAAIAAAAAAAA2
AAAAAAA2AAAAA2AA2AAAAAAAAAAAAA2AAAAAA22AAA2AAA22A2AAAAIAAAAAAAA2
AAAAAAA2AAAAA2AA2AAAAAAAAAAAAA2AAAAAA22AAA2AAA22A2AAAAIAAAIAAAA2
AAAAAAA2AAAAA2AA2AAAAAAAAAAAAA2AAAAAA22AAA2AAA22A2AAAAAAAAIAAAA2
AAAAAAAAAAAAA2AA2AAAAAAAAAAAAA2AAAAAA22AAA2AAA22A2AAAAAAAAIAAAA2
AAAAAAAAAAAAA2AA2AAAAAAAAAAAAA2AAAAAA22AAA2AAA22A2AAAAAAAA2AAAA2
AAAAAAAAAAAAA2AA2AAAAAAAAAAAAA2AAAAAA22AAA2AAA22A2AAAAAAAAIAAAA2
AAAAAAAAAAAAA2AA2AAAAAAAAAAAAA2AAAAAA22AAA2AAA22A2AAAAAAAA4AAAA2
AAAAAAAAAAAAA2AA2AAAAAAAAAAAAA2AAAAAA22AAA2AAA22A2AAAAAAAAAAAAA2
AAAAAAAAAAAAA2AA2AAAAAAIAAAAAA2AAAAAA22AAA2AAA22A2AAAAAAAAAAAAA2
AAAAAAAAAAAAA2AA2AAAAAA2AAAAAA2AAAAAA22AAA2AAA22A2AAAAAAAAAAAAA2
AAAAAAAAAAAAA2AA2AAAAAA2AAAAAA2AAAAAA22AAA2AAA22A2AAAAIAAAAAAAA2
AAAAAAAAAAAAA2AA2AAAAAA2AAAAAA2AAAAAAA2AAA2AAA22A2AAAA4AAAAAAAA2
AAAAAAAAAAAAA2AA2AAAAAA2AAAAAA2AAAAAAI2AAA2AAA22A2AAAA4AAAAAAAA2
AAAAAAAAAAAAA2AA2AAAAAA2AAAAAA2AAAAAA22AAA2AAA22A2AAAA4AAAAAAAA2
AAAAAAIAAAAAA2AA2AAAAAA2AAAAAA2AAAAAA22AAA2AAA22A2AAAA4AAAAAAAA2
AAAAAAIAAAAAA2AA2AAAAAA2AAAAAA2AAAAAA22AAA2AAA22A2AAAA4AAAAAAAI2
AAAAAA2AAAAAA2AA2AAAAAA2AAAAAA2AAAAAA22AAA2AAA22A2AAAA4AAAAAAAI2
AAAAAA2AAAAAA2AA2AAAAAA2AAAAAA2AAAAAA2AAAA2AAA22A2AAAA4AAAAAAAI2
AAAAAA2AAAAAA2AA2AAAAAA2AAAAAA2AAAAAA2AAAA2AAA22A2AAAA2AAAAAAAI2
AAAAAA2AAAAAA2AA2AAAAAA2AAAAAA2AAAAAA2AAAA2AAA22A2AAAA2AAAAAAA22
AAAAAA2AAAAAA2AA2AAAAAA2AAAAAA2AAAAAA2AAAA2AAA22A2AAAAIAAAAAAA22
AAAAAAIAAAAAA2AA2AAAAAA2AAAAAA2AAAAAA2AAAA2AAA22A2AAAAIAAAAAAA22
AAAAAAIAAAAAA2AA2AAAAAA2AAAAAA2AAAAAA2AAAA2AAA22A2AAAAAAAAAAAA22
AAAAAAIAAAAAAAAA2AAAAAA2AAAAAA2AAAAAA2AAAA2AAA22A2AAAAAAAAAAAA22
AAAAAAIAAAAAAAAA2AAAAAA2AAAAAA2AAAAAA2AAAA2AAA2AA2AAAAAAAAAAAA22
AAAAAA2AAAAAAAAA2AAAAAA2AAAAAA2AAAAAA2AAAA2AAA2AA2AAAAAAAAAAAA22
AAAAAA2AAAAAAAAA2AAAAAA2AAAAAA2AAAAAA2AAAA2AAA2AA2AAAAAAAAAIAA22
AAAAAA2AAAAAAAAA2AAAAAA2AAAAAA2AAAAAA2AAAA2AAA2AA2AAAAAAAAAAAA22
AAAAAA2AAAAAAAAAAAAAAAA2AAAAAA2AAAAAA2AAAA2AAA2AA2AAAAAAAAAAAA22
AAAAAAIAAAAAAAAAAAAAAAA2AAAAAA2AAAAAA2AAAA2AAA2AA2AAAAAAAAAAAA22
AAAAAAIIAAAAAAAAAAAAAAA2AAAAAA2AAAAAA2AAAA2AAA2AA2AAAAAAAAAAAA22
AAAAAAI2AAAAAAAAAAAAAAA2AAAAAA2AAAAAA2AAAA2AAA2AA2AAAAAAAAAAAA22
AAAAAAI2AAAAAAAAAAAAAAA2AAAAAA2AAAAAA2AAAI2AAA2AA2AAAAAAAAAAAA22
AAAAAAI2AAAAAAAAAAAAAAA2AAAAAA2AAAAAA2AAA22AAA2AA2AAAAAAAAAAAA22
AAAAAA22AAAAAAAAAAAAAAA2AAAAAA2AAAAAA2AAA22AAA2AA2AAAAAAAAAAAA22
AAAAAA22AAAAAAAAAAAAAAA2AAAAAA2AAAAAA2AAAA2AAA2AA2AAAAAAAAAAAA22
AAAAAA22AAAAAAAAAAAAAAA2AAAAAA2AIAAAA2AAAA2AAA2AA2AAAAAAAAAAAA22
AAAAAA22AAAAAAAAAAAAAAA2AAAAAA2A2AAAA2AAAA2AAA2AA2AAAAAAAAAAAA22
AAAAAA2AAAAAAAAAAAAAAAA2AAAAAA2A2AAAA2AAAA2AAA2AA2AAAAAAAAAAAA22
AAAAAA2AAAAAAAAAAAAAAAA2AAAAAA2A2AAAA2AAIA2AAA2AA2AAAAAAAAAAAA22
AAAAAA2AAAAAAAAAAAAAAAAAAAAAAA2A2AAAA2AAIA2AAA2AA2AAAAAAAAAAAA22
AAAAAA2AAAAAAAAAAAAAAAAAAAAAAA2A2AAAA2AA4A2AAA2AA2AAAAAAAAAAAA22
AAAAAA2AAAAAAAAAAAAAAAAIAAAAAA2A2AAAA2AA4A2AAA2AA2AAAAAAAAAAAA22
AAAAAA2AAAAAAAAAAAAAAAAIAAAAAA2A2AAAA2AA4A2AAA2AA2AAAAAIAAAAAA22
AAAAAA2AAAAAAAAAAAAAAAA4AAAAAA2A2AAAA2AA4A2AAA2AA2AAAAAIAAAAAA22
AAAAAA2AAAAAAAAAAAAAAAA4AAAAAA2A2AAAA2AA2A2AAA2AA2AAAAAIAAAAAA22
AAAAAA2AAAAAAAAAAAAAAAA4AAAAAA2A2IAAA2AA2A2AAA2AA2AAAAAIAAAAAA22
AAAAAA2AAAAAAAAAAAAAAAA4AAAAAA2A2IAAA2AAIA2AAA2AA2AAAAAIAAAAAA22
AAAAAA2AAAAAAAAAAAAAAAAAAAAAAA2A24AAA2AAIA2AAA2AA2AAAAAIAAAAAA22
AAAAAA2AAAAAAAAAAAAAAAAAAAAAAA2A24AAA2AA2A2AAA2AA2AAAAAIAAAAAA22
AAAAAA2AAAAAAAAAAAAAAAAAAAAAAA2A24AAA2AA2A2AAA2AA2AAAAA4AAAAAA22
AAAAAA2AAAAAAAAAAAAAAAAAIAAAAA2A24AAA2AA2A2AAA2AA2AAAAA4AAAAAA22
AAAAAA2AAAAAAAAAAAAAAAAAIAAAAA2A24AAA2AA2A2AAA2AA2AAAAAAAAAAAA22
AAAAAA2AAAAAAAAAAAAAAAAAIAAAAA2AA4AAA2AA2A2AAA2AA2AAAAAAAAAAAA22
AAAAAA2AAAAAAAAAAAAAAAAAIAAAAA2AA4IAA2AA2A2AAA2AA2AAAAAAAAAAAA22
AAAAAA2AAAAAAAAAAAAAAAAA4AAAAA2AA4IAA2AA2A2AAA2AA2AAAAAAAAAAAA22
AAAAAA2AAAAAAAAAAAAAAAAA4AAAAA2AA42AA2AA2A2AAA2AA2AAAAAAAAAAAA22
AAAAAA2AAAAAAAAAAAAAAAAA4AAAAA2AA42AA2AAAA2AAA2AA2AAAAAAAAAAAA22
AAAAAA2AAAAAAAAAAAAAAAAA4AAAAA2AA22AA2AAAA2AAA2AA2AAAAAAAAAAAA22
AAAAAA2AAAAAAAAAAAAAAAAA4AAAAAAAA22AA2AAAA2AAA2AA2AAAAAAAAAAAA22
AAAAAA2AAAAAAAAAAAAAAAAA4AAAAAAAA2AAA2AAAA2AAA2AA2AAAAAAAAAAAA22
AAAAAA2AAAAAAAAAAAAAAAAAAAAAAAAAA2AAA2AAAA2AAA2AA2AAAAAAAAAAAA22
AAAAAA2AAAAAAAAAAAAAAAAAAAAAAAAAA2IAA2AAAA2AAA2AA2AAAAAAAAAAAA22
AAAAAA2AAAAAAAAAAAAAAAAAAAAAAAAAI2IAA2AAAA2AAA2AA2AAAAAAAAAAAA22
AAAAAA2AAAAAAAAAAAAAAAAAAAAAAAAAI2IAA2AAAA2AAA2AAAAAAAAAAAAAAA22
AAAAAA2AAAAAAAAAAAAAAAAAAAAAAAAAI2AAA2AAAA2AAA2AAAAAAAAAAAAAAA22
AAAAAA2IAAAAAAAAAAAAAAAAAAAAAAAAI2AAA2AAAA2AAA2AAAAAAAAAAAAAAA22
AAAAAA2IIAAAAAAAAAAAAAAAAAAAAAAAI2AAA2AAAA2AAA2AAAAAAAAAAAAAAA22
AAAAAA22IAAAAAAAAAAAAAAAAAAAAAAAI2AAA2AAAA2AAA2AAAAAAAAAAAAAAA22
AAAAAA22IAAAAAAAAAAAAAAAAAAAAAAAA2AAA2AAAA2AAA2AAAAAAAAAAAAAAA22
AAAAAA222AAAAAAAAAAAAAAAAAAAAAAAA2AAA2AAAA2AAA2AAAAAAAAAAAAAAA22
AAAAAA222AAAAAAAAAAAAAAAAAAAAAAAA2AAA2AAIA2AAA2AAAAAAAAAAAAAAA22
AAAAAI222AAAAAAAAAAAAAAAAAAAAAAAA2AAA2AAIA2AAA2AAAAAAAAAAAAAAA22
AAAAAI2A2AAAAAAAAAAAAAAAAAAAAAAAA2AAA2AAIA2AAA2AAAAAAAAAAAAAAA22
AAAAAA2A2AAAAAAAAAAAAAAAAAAAAAAAA2AAA2AAIA2AAA2AAAAAAAAAAAAAAA22
AAAAAA2A2AAAAAAAAAAAAAAAAAAAAAAAA2AAA2AAIA2AAA2AAAAAAAAIAAAAAA22
AAAAAI2A2AAAAAAAAAAAAAAAAAAAAAAAA2AAA2AAIA2AAA2AAAAAAAAIAAAAAA22
AAAAAI2A2AAAAAAAAAAAAAAAAAAAAAAAA2AAA2AAIA2AAA2AAAAAAAA2AAAAAA22
AAAAA22A2AAAAAAAAAAAAAAAAAAAAAAAA2AAA2AAIA2AAA2AAAAAAAA2AAAAAA22
AAAAAA2A2AAAAAAAAAAAAAAAAAAAAAAAA2AAA2AAIA2AAA2AAAAAAAA2AAAAAA22
AAIAAA2A2AAAAAAAAAAAAAAAAAAAAAAAA2AAA2AAIA2AAA2AAAAAAAA2AAAAAA22
AAIAAA2A2AAAAAAAAAAAAAAAAAAAAAAAA2AAA2AAAA2AAA2AAAAAAAA2AAAAAA22
AAIAAAAA2AAAAAAAAAAAAAAAAAAAAAAAA2AAA2AAAA2AAA2AAAAAAAA2AAAAAA22
AAIAAAAA2AAAAAAAAAAAIAAAAAAAAAAAA2AAA2AAAA2AAA2AAAAAAAA2AAAAAA22
AAIAAAAA2AAAAAAAAAAA4AAAAAAAAAAAA2AAA2AAAA2AAA2AAAAAAAA2AAAAAA22
AAIAAAIA2AAAAAAAAAAA4AAAAAAAAAAAA2AAA2AAAA2AAA2AAAAAAAA2AAAAAA22
AAIAAAIA2AAAAAAAAAAA4AAAAAAAAAAAI2AAA2AAAA2AAA2AAAAAAAA2AAAAAA22
AAIAAA2A2AAAAAAAAAAA4AAAAAAAAAAAI2AAA2AAAA2AAA2AAAAAAAA2AAAAAA22
AAIAAA2A2AAAAAAAAAAA4AAAAAAAAAAAI2AAA2AAAA2AAA2AAAAAAAA2AAAAAAA2
AAIAAA2A2AAAAAAAAAAA4AAAAAAAAAAAIAAAA2AAAA2AAA2AAAAAAAA2AAAAAAA2
AAIAAA2A2AAAAAAAAAAA4AAAAAAAAAAAIAAAA2AAAI2AAA2AAAAAAAA2AAAAAAA2
AAIAAA2AAAAAAAAAAAAA4AAAAAAAAAAAIAAAA2AAAI2AAA2AAAAAAAA2AAAAAAA2
AAIAAI2AAAAAAAAAAAAA4AAAAAAAAAAAIAAAA2AAAI2AAA2AAAAAAAA2AAAAAAA2
AAIAAI2AAAAAAAAAAAAA4AAAAAAAAAAAIAAAA2AAAI2AAA2AAAAAAAA2AAAIAAA2
AAIAAA2AAAAAAAAAAAAA4AAAAAAAAAAAIAAAA2AAAI2AAA2AAAAAAAA2AAAIAAA2
AAIAAA2AAAAAAAAAAAAA4AAAAAAAAAAA4AAAA2AAAI2AAA2AAAAAAAA2AAAIAAA2
AAIAAA2AAAAAAAAAAAAA4AAAAAAAAAAA4AAAA2AAAA2AAA2AAAAAAAA2AAAIAAA2
AAIAAI2AAAAAAAAAAAAA4AAAAAAAAAAA4AAAA2AAAA2AAA2AAAAAAAA2AAAIAAA2
AAIAAA2AAAAAAAAAAAAA4AAAAAAAAAAA4AAAA2AAAA2AAA2AAAAAAAA2AAAIAAA2
AAIAAA2AAAAAAAAAAAAA4AAAAAAAAAAA4AAAA2AAAA2AAA2AAAAAAAA2AAA2AAA2
AAIAAA2AAAAAAAAAAAAA4AAAAAAAAAAA4AAAA2AAAA2AAA2AAAAAAAI2AAA2AAA2
AAIAAA2AAAAAAAAAAAAA4AAAAAAAAAAA4AAAA2AAAA2AAA2AAAAAAA42AAA2AAA2
AAIAAA2AAAAIAAAAAAAA4AAAAAAAAAAA4AAAA2AAAA2AAA2AAAAAAA42AAA2AAA2
AAIAAA2AAAA2AAAAAAAA4AAAAAAAAAAA4AAAA2AAAA2AAA2AAAAAAA42AAA2AAA2
AAIAAA2IAAA2AAAAAAAA4AAAAAAAAAAA4AAAA2AAAA2AAA2AAAAAAA42AAA2AAA2
AAIAAA2IAAAIAAAAAAAA4AAAAAAAAAAA4AAAA2AAAA2AAA2AAAAAAA42AAA2AAA2
AAIAAA2IAAAIAAAAAAAA4AAAAAAAAAAA4AAAA2AAAA2AAA2AAAAAAA42AAAAAAA2
AAIAAA2IAAAIAAAAAAAA2AAAAAAAAAAA4AAAA2AAAA2AAA2AAAAAAA42AAAAAAA2
AAIAAA22AAA2AAAAAAAA2AAAAAAAAAAA4AAAA2AAAA2AAA2AAAAAAA42AAAAAAA2
AAIAAA22AAA2AAAAAAAAAAAAAAAAAAAA4AAAA2AAAA2AAA2AAAAAAA42AAAAAAA2
AAIAAA22AAA2AAAAAAAAAAAAAAAAAAAA2AAAA2AAAA2AAA2AAAAAAA42AAAAAAA2
AAIAAA22AAA2AAAAAAAAAAAAAAAAAAAAAAAAA2AAAA2AAA2AAAAAAA42AAAAAAA2
AAIAAA22AAA2AAAAAAAAAAAAAAAAAAAAAAAAA2AAAA2AAA2AAAAAAAA2AAAAAAA2
AAIAAA22AAA2AAAAAAAAAAAAAAAAAAAAAAAAA2AAAA2AAA2AAAAAAAI2AAAAAAA2
AAIAAA22AAA2AAAAAIAAAAAAAAAAAAAAAAAAA2AAAA2AAA2AAAAAAAI2AAAAAAA2
AAIAAA22AAA2AAAAAIAAAAAAAAAAAAAAAAAAA2AAAA2AAA2AAAAAAA42AAAAAAA2
AAIAAA2AAAA2AAAAA4AAAAAAAAAAAAAAAAAAA2AAAA2AAA2AAAAAAA42AAAAAAA2
AAIAAA2AAAA2AAAAA4AAAAAAAAAAAAAAAAAAA2AIAA2AAA2AAAAAAA42AAAAAAA2
AAIAAA2AAAA2AAAAA4AAAAAAAAAAAAAAAAAAA2A4AA2AAA2AAAAAAA42AAAAAAA2
AAIAAI2AAAA2AAAAA4AAAAAAAAAAAAAAAAAAA2A4AA2AAA2AAAAAAA42AAAAAAA2
AAIAAI2AAAA2AAAAA4AAAAAAAAAIAAAAAAAAA2A4AA2AAA2AAAAAAA42AAAAAAA2
AAIAAI2AAAA2AAAAA4AAAAAAAAAIAAAAAAAAA2A2AA2AAA2AAAAAAA42AAAAAAA2
AAIAAI2AAAA2AAAAA4AAAAAAAAAIAAAAIAAAA2A2AA2AAA2AAAAAAA42AAAAAAA2
AA2AA22AAAA2AAAAA4AAAAAAAAAIAAAAIAAAA2A2AA2AAA2AAAAAAA42AAAAAAA2
AA2AA22AAAA2AAAAAAAAAAAAAAA4AAAA4AAAA2A2AA2AAA2AAAAAAA42AAAAAAA2
AA2AA22AIAA2AAAAAAAAAAAAAAA4AAAA4AAAA2A2AA2AAA2AAAAAAA42AAAAAAA2
AA2AAA2A2AA2AAAAAAAAAAAAAAA4AAAA4AAAA2A2AA2AAA2AAAAAAA42AAAAAAA2
AA2AAA2A2AA2AAAAAAAAAAAAAAA2AAAA4AAAA2A2AA2AAA2AAAAAAA42AAAAAAA2
AA2AAI2A2AA2AAAAAAAAAAAAAAA2AAAA4AAAA2A2AA2AAA2AAAAAAA42AAAAAAA2
AA2AAI2A2AA2AAAAAAAAAAAAAAAIAAAA4AAAA2A2AA2AAA2AAAAAAA42AAAAAAA2
AA2AAI2A2AA2AAAAAAAAAAAAAAAIAAAA4AAAA2A2AA2AAA2AAAAAAA22AAAAAAA2
AA2AAI2A2AA2AAAAAAAAAAAAAAAIAAAA4AAAA2AAAA2AAA2AAAAAAA22AAAAAAA2
AA2AAA2A2AA2AAAAAAAAAAAAAAAIAAAA4AAAA2AAAA2AAA2AAAAAAA22AAAAAAA2
AA2AAAAA2AA2AAAAAAAAAAAAAAAIAAAA4AAAA2AAAA2AAA2AAAAAAA22AAAAAAA2
AA2AAAAA2AA2AAAAAAAAAAAAAAA2AAAA4AAAA2AAAA2AAA2AAAAAAA22AAAAAAA2
AA2AAAAA2AA2AAAAAAAAAAAAAAA2AAAA4AAAA2IAAA2AAA2AAAAAAA22AAAAAAA2
AA2AAAAA2AA2AAAAAAAAAAAAAAA2AAAA4AAAA2IAAA2AAA2AAAAAAA22AAIAAAA2
AA2AAAAA2AA2AAAAAAAAAAAAAAAAAAAA4AAAA24AAA2AAA2AAAAAAA22AAIAAAA2
AA2AAAAA2AA2AAAAAAAAAAAAAAAAAAAA2AAAA24AAA2AAA2AAAAAAA22AAIAAAA2
AA2AAAAAAAA2AAAAAAAAAAAAAAAAAAAA2AAAA24AAA2AAA2AAAAAAA22AAIAAAA2
AA2AAAAAAAA2AAAAAAAAAAAAAAAAAAAA2AAAA24AAA2AAA2AAAAAAA22AAAAAAA2
AA2AAIAAAAA2AAAAAAAAAAAAAAAAAAAA2AAAA24AAA2AAA2AAAAAAA22AAAAAAA2
AA2AAIAAAAA2AAAAAAAAAAAAAAAAAAAA2AAAA24AAA2AAA2AAAAAAAA2AAAAAAA2
AA2AAIAAAAA2AAAAAAAAAAAAAAAAAAAAAAAAA22AAA2AAA2AAAAAAAA2AAAAAAA2
AA2AAIAAAAA2AAAAAAAAAAAAAAAAAAAAAAAAA2AAAA2AAA2AAAAAAAA2AAAAAAA2
AA2AAAAAAAA2AAAAAAAAAAAAAAAAAAAAAAAAA2AAAA2AAA2AAAAAAAA2AAAAAAA2
AA2AAAAAAAA2AAAAAAAAAAAAAAAAAAAAAIAAA2AAAA2AAA2AAAAAAAA2AAAAAAA2
AA2AAAAAAAA2AAAAAAAAAAAAAAAAAAAAAIAAA2AAAA2AAA2AAAAAAAAAAAAAAAA2
AA2AAAAAAAA2AAAAAAAAAAAAAAAAAAAAAIAAA2AAAA2AAA2AAAAAIAAAAAAAAAA2
AA2AAAAAAAA2AAAAAAAAAAAAAAAAAAAAAIAAA2AAAA2AAA2AAAAAIAAIAAAAAAA2
AA2AAAAAAAA2AAAAAAAAAAAAAAAAAAAAA2AAA2AAAA2AAA2AAAAAIAAIAAAAAAA2
AAAAAAAAAAA2AAAAAAAAAAAAAAAAAAAAA2AAA2AAAA2AAA2AAAAAIAAIAAAAAAA2
AAAAAAAAAAA2AAAAAAAAAAAAAAAAAAAAA2AAA2AAAA2AAA2AAAAAIAA4AAAAAAA2
AAAAAAAAAAA2AAAAAAAAAAAAAAAAAAAAA2AAA2AAAA2AAA2AAAAAIAAAAAAAAAA2
AAAAAAAAAAA2AAAAAAAAAAAAAAAAAAAAA2AAA2AAAA2AAA2AAAAA4AAAAAAAAAA2
AAAAAAAAAAA2AAAAAAAAAAAAAAAAAAAAA2AAA2AAAA2AAAAAAAAA4AAAAAAAAAA2
AAAAAAAAAAA2AAAAAAAAAAAAAAAAAAAAA2AAA2AAAA2AAAAAAAAA2AAAAAAAAAA2
AAAAAAAAAAA2AAAAAAAAAAAAAAAAAAAAA2AAA2AAAA2AAAAAAAAA2AAAAAAAAAAA
AAAAIAAAAAA2AAAAAAAAAAAAAAAAAAAAA2AAA2AAAA2AAAAAAAAA2AAAAAAAAAAA
AAAAIAAAAAA2AAAAAAAAAAAAAAAAAAAAI2AAA2AAAA2AAAAAAAAA2AAAAAAAAAAA
AAAAIAAAAAA2AAAAAAAAAAAAAAAAAAAA42AAA2AAAA2AAAAAAAAA2AAAAAAAAAAA
AAAAIAAAAAA2AAAAAAAAAAAAAAAAAAAA4AAAA2AAAA2AAAAAAAAA2AAAAAAAAAAA
AAAAIAAAAAA2AAAAAAAAAAAAAAIAAAAA4AAAA2AAAA2AAAAAAAAA2AAAAAAAAAAA
AAAA2AAAAAA2AAAAAAAAAAAAAAIAAAAA4AAAA2AAAA2AAAAAAAAA2AAAAAAAAAAA
AAAA2AAAIAA2AAAAAAAAAAAAAAIAAAAA4AAAA2AAAA2AAAAAAAAA2AAAAAAAAAAA
AAAA2AAAIAAAAAAAAAAAAAAAAA4AAAAA4AAAA2AAAA2AAAAAAAAA2AAAAAAAAAAA
AAAA2AAAIAAAAAAAAAAAAAAAAA4AAAAA4AAAA2AAAA2AAAAAAAAA2AAAAIAAAAAA
AAAA2AAAIAAAAAAAAAAAAAAAAA4AAAAA4AAAA2AAAA2AAAAAAAAA2AAAA4AAAAAA
AAAA2AAAIAAIAAAAAAAAAAAAAA4AAAAA4AAAA2AAAA2AAAAAAAAA2AAAA4AAAAAA
AAAA2AAAAAA2AAAAAAAAAAAAAA4AAAAA4AAAA2AAAA2AAAAAAAAA2AAAA4AAAAAA
AAAA2AAAAAA2AAAAAAAAAAAAAA2AAAAA4AAAA2AAAA2AAAAAAAAA2AAAA4AAAAAA
AAAA2AAAAAA2AAAAAAAAAAAAAA2AAAAA4AAAA2AAAA2AAAAAAAAAAAAAA4AAAAAA
AAAA2AAAAAAAAAAAAAAAAAAAAA2AAAAA4AAAA2AAAA2AAAAAAAAAAAAAA4AAAAAA
AAAA2AAAAAIAAAAAAAAAAAAAAA2AAAAA4AAAA2AAAA2AAAAAAAAAAAAAA4AAAAAA
AAAA2AAAAAIAAAAAAAAAAAAAAA2AAAAA4AAAA2AAAA2AAAAAAAAAIAAAA4AAAAAA
AAAA2AAAAAIAAAAAAAAAAAAAAA2AAAAA4AAAA2AAAA2AAAAAAAAAIAAAA2AAAAAA
AAAA2AAAAA2AAAAAAAAAAAAAAA2AAAAA4AAAA2AAAA2AAAAAAAAAIAAAA2AAAAAA
AAAA2AAAAA2AAAAAAAAAAAAAAA2AAAAA4AAAA2AAAA2AAAAAAAAA4AAAA2AAAAAA
AAAA2AAAAA2AAAAAAAAAAAAAAA2AAAAAAAAAA2AAAA2AAAAAAAAA4AAAA2AAAAAA
AAAA2AAAAA2AAAAAAAAAAAAAAA2AAAAAAAAAA2AAAA2AAAAAAAAA4AAAA2AAAIAA
AAAA2AAAAA2AAAAAAAAAAAAAAA2AAAAAAAAAA2AAAA2AAAAAAAAA4AAAA2AAA2AA
AAAA2AAAAA2AAAAAAAAAAAAAAA2AAAAAAAAAA2AAAA2AAAAAAAAA4AAAA2IAA2AA
AAAA2AAAAA2AAAAAAAAAAAAAAA2AAAAAAAAAA2AAAA2IAAAAAAAA4AAAA2IAA2AA
AAAA2AAAAAAAAAAAAAAAAAAAAA2AAAAAAAAAA2AAAA2IAAAAAAAA4AAAA2IAA2AA
AAAA2AAAAAAAAAAAAAAAAAAAAA2AAAAAAAAAAAAAAA2IAAAAAAAA4AAAA2IAA2AA
AAAA2AAAAAAAAAAAAAAAAAAAAA2AAAAAAAAAAAAAAA2AAAAAAAAA4AAAA24AA2AA
AAAA2AAAAAAAAAAAAAAAAAAAAA2AAAAAAAAAAAAAAA2AAAAAAAAA4IAAA24AA2AA
AAAA2AAAAAAAAAAAAAAAAAAAAA2AAAAAAAAAAAAAAA2AAAAAAAAA44AAA24AA2AA
AAAA2AAAAAAAAAAAAAAAAAAAAA2AAAAAAAAAAAAAAA2AAAAAAAAA4AAAA22AA2AA
AAAA2AAAAAAAAAAAAAAAAAAAAA2AAAAAAAAAAAAAAA2AIAAAAAAA4AAAA22AA2AA
AAAA2AAAAAAAAAAAAAAAAAAAAA2AAAAAAAAAAAAAAA2AAAAAAAAA2AAAA22AA2AA
AAAI2AAAAAAAAAAAAAAAAAAAAA2AAAAAAAAAAAAAAA2AAAAAAAAA2AAAA22AA2AA
AAAI2IAAAAAAAAAAAAAAAAAAAA2AAAAAAAAAAAAAAA2AAAAAAAAA2AAAA22AA2AA
AAAI2IAAAAAAAAAAAAAAAAAAAA2AAAAAAAAAAAAAAA2AAAAAAAAA2AAAA2AAA2AA
AAAI2AAAAAAAAAAAAAAAAAAAAA2AAAAAAAAAAAAAAA2AAAAAAAAA2AAAA2AAA2AA
AAAI2AAAAAAAAAAAAAAAAAAAAA2AAAAAAAAAAAAAAA2AIAAAAAAA2AAAA2AAA2AA
AAAI2AAAAAAAAAAAAAAAAAAAAA2AAAAAAAAAAAAAAA2AIAAAAIAA2AAAA2AAA2AA
AAAI2AAAAAAAAAAAAAAAAAAAAA2AAAAAAAAAAAAAAA2A2AAAA4AA2AAAA2AAA2AA
AAAI2AAAAAAAAAAAAIAAAAAAAA2AAAAAAAAAAAAAAA2A2AAAA4AA2AAAA2AAA2AA
AAAI2AAAAAAAAAAAAIAAAAAAAA2AAAAAAAAAAAAAIA2A2AAAA4AA2AAAA2AAA2AA
AAAI2IAAAAAAAAAAAIAAAAAAAA2AAAAAAAAAAAAAIA2A2AAAA4AA2AAAA2AAA2AA
AAAI2AAAAAAAAAAAA4AAAAAAAA2AAAAAAAAAAAAAIA2A2AAAA4AA2AAAA2AAA2AA
AAAIAAAAAAAAAAAAA4AAAAAAAA2AAAAAAAAAAAAAIA2A2AAAA4AA2AAAA2AAA2AA
AAAIAIAAAAAAAAAAA4AAAAAAAA2AAAAAAAAAAAAAIA2A2AAAA4AA2AAAA2AAA2AA
AAAIAIAAAAAAAAAAA4AAAAAAAA2AAAAAAAAAAAAAAA2A2AAAA2AA2AAAA2AAA2AA
AAAIAIAAAAAAAAAAA4AAAAAAAA2AAAAAAAAAAAAAAA2I2AAAA2AA2AAAA2AAA2AA
AAAIAIAAAAAAAAAAA4AAAAAAAA2AAAAAAAAAAAAAAA2I2AAAAIAA2AAAA2AAA2AA
AAAIAIAAAAAAAAAAA2AAAAAAAA2AAAAAAAAAAAAAAA2I2AAAAIAA2AAAA2AAA2AA
AAAIAAAAAAAAAAAAA2AAAAAAAA2AAAAAAAAAAAAAAA2I2AAAAIAA2AAAA2AAA2AA
AAAIAAAAAAAAAAAAA2AAAAAAAA2AAAAAAAAAAAAAAA2I2AAAAAAA2AAAA2AAA2AA
AAAIAAAAAAAAAAAAA2AAAAAAAA2AAAAAAAAAAAAAAA2A2AAAAAAA2AAAA2AAA2AA
AAAIAAAAAAAAAAAAA2AAAAAAAA2AAAAAAAAAAAAAAA2A2AAAAIAA2AAAA2AAA2AA
AAAIAAAAAAAAAAAAA2AAAAAAAA2AAAAAAAAAAAAAAA2A2AAAA4AA2AAAA2AAA2AA
AAAIAAAAAAAAAAAAA2AAAAAAAA2AAAAAAAAAAAAAAA2A2AAAAAAA2AAAA2AAA2AA
AAAIAAAAAIAAAAAAA2AAAAAAAA2AAAAAAAAAAAAAAA2A2AAAAAAA2AAAA2AAA2AA
AAAIAAAAAIAAAAAAA2AAAAAAAA2AAAAAAAAAAAAAAA2A2AAAAAAA2AIAA2AAA2AA
AAAIAAAAAIAAAAAAA2AAAAAAAA2AAAAAAAAAAAAAAA2A2AAAAAAA2AIAA2AAA2AI
AAAIAAAAAIAIAAAAA2AAAAAAAA2AAAAAAAAAAAAAAA2A2AAAAAAA2AIAA2AAA2AI
AAAIAAAAA2AIAAAAA2AAAAAAAA2AAAAAAAAAAAAAAA2A2AAAAAAA2AIAA2AAA2AI
AAAIAAAAA2AIAAAAA2AAAAAAAAAAAAAAAAAAAAAAAA2A2AAAAAAA2AIAA2AAA2AI
AAAIAAAAA2AIAAAAA2AAAAAAAAAAAAAAAAAAAAAAAA2A2AAAAAAA2A4AA2AAA2AI
AAAIAAAAA2AIAAAAA2AAAAAAAAAAAAAAAAAAAAAAAA2A2AAAAAAA2A4AA2AAA2A4
AAAIAAAAA2AIAAAAA2AAAAAAAAAAAAAAAAAAAAAAAA2A2AAAAAAAAA2AA2AAA2A4
AAAIAAAAA2AIAAAAA2AAAAAAAAAAAAAAAAAAAAAAAA2A2AAAAAAAAAAAA2AAA2A4
AAAIAAAAA2AIAAAAA2AAAAAAAAAAAAAAAAAAAAAAAA2A2AAAAAAAAAAAA2AAA2A2
AAAIAAAAA2AIAAAAA2AAAAAAAAAAAAAAAAAAAAAAAA2A2AAAAAAAAAAAA2AAAAA2
AAAIAAAAA2AIAAAAA2AAAAAAAAAAAAAAAAAAAAAAAA2A2AAAAAAAAAAAA2IAAAA2
AAAIAAAAA2AIAAAAA2AAAAIAAAAAAAAAAAAAAAAAAA2A2AAAAAAAAAAAA2IAAAA2
AAAIAAAAA2AIAAAAA2AAAAIAAAAAAAAAAAAAAAAAAA2A2AAAAAAAAAAAA2IAAIA2
AAAIAAAAA2A4AAAAA2AAAAIAAAAAAAAAAAAAAAAAAA2A2AAAAAAAAAAAA2IAAIA2
AAAIAAAAA2A4AAAAA2AAAAIAAAAAAAAAAAAAAAAAAA2A2AAAAAAAAAAAA2IAA4A2
AAAIAAAAA2A4AAAAA2AAAAIAAAAAAAAAAAAAAAAAAA2A2AAAAAAAAAAAA24AA4A2
AAAIAAAAA2A4AAAAA2AAAAIAAAAAAAAAAAAAAAAAAA2A2AAAAAAAAAAAA2AAA4A2
AAAIAAAAA2A4AAAAA2AAAAIAAAAAAAAAAAAAAAAAAA2A2AAAIAAAAAAAA2AAA4A2
AAAIAAAAA2A4AAAAA2AAAAIAAAAAAAAAAAAAAAAAAA2A2AAA2AAAAAAAA2AAA4A2
AAAIAAAAA2A4AAAAA2AAAAIAAAAAAAAAIAAAAAAAAA2A2AAA2AAAAAAAA2AAA4A2
AAAIAAAAA2A4AAAAA2AAAAIAAAAAAAAAIAAAAAAAAA2A2AAA2AAAAAAAA2AAA2A2
AAAIAAAAA2A4AAAAA2AAAAIAAAAAAAAAIAAAAAAAAA2AAAAA2AAAAAAAA2AAA2A2
AAAIAAAAA2A4AAAAA2AAAAIAAAAAAAAAIAAAAAAAAA2AAAAAIAAAAAAAA2AAA2A2
AAAIAAAAA2A4AAAAA2AAAAIAAAAAAAAAIAIAAAAAAA2AAAAAIAAAAAAAA2AAA2A2
AAAIAAAAA2A4AAAAA2AAAAIAAAAAAAAAAAIAAAAAAA2AAAAAIAAAAAAAA2AAA2A2
AAAIAAAAA2A4AAAAA2AAAAIAAAAAAAAAAAIAAAAAAA2AIAAAIAAAAAAAA2AAA2A2
AAAIAAAAA2A4AAAAA2AAAAIAAAAAAAAAIAIAAAAAAA2AIAAAIAAAAAAAA2AAA2A2
AAAIAAAAAAA2AAAAA2AAAAIAAAAAAAAAIAIAAAAAAA2AIAAAIAAAAAAAA2AAA2A2
AAAIAAAAAAA2AAAAA2AAAAIAAAAAAAAAIAIAAAAAAA2A2AAA2AAAAAAAA2AAA2A2
AAAIAAAAAAAIAAAAA2AAAAIAAAAAAAAAIAIAAAAAAA2A2AAA2AAAAAAAA2AAA2A2
AAAIAAAAAAAIAAAAA2AAAAIAAAAAAAAAIA4AAAAAAA2A2AAA2AAAAAAAA2AAA2A2
AAAIAAAAAAAIAAAAA2AAAAIAAAAAAAAAAA4AAAAAAA2A2AAA2AAAAAAAA2AAA2A2
AAAIAAAAAAA2AAAAA2AAAAIAAAAAAAAAAA4AAAAAAA2A2AAA2AAAAAAAA2AAA2A2
AAAIAAAAAAAAAAAAA2AAAA4AAAAAAAAAAA4AAAAAAA2A2AAA2AAAAAAAA2AAA2A2
AAAIAAAAAAAAAAAAA2AAAA4IAAAAAAAAAA4AAAAAAA2A2AAA2AAAAAAAA2AAA2A2
AAAIAAAAAAAAAAAAA2AAAAA2AAAAAAAAAA4AAAAAAA2A2AAA2AAAAAAAA2AAA2A2
AAAIAAAAAAAAAAAAA2AAAAA2AAAAAAAAAA2AAAAAAA2A2AAA2AAAAAAAA2AAA2A2
AAAIAAAAAAAAAAAAA2AAAAA2AAAAAAAAAA2AAAAAAA2A2AAA2AAAAAAAA2AAAAA2
AAAIAAAAAAAAAAAAA2AAAAA2AAAAAAAAAAAAAAAAAA2A2AAA2AAAAAAAA2AAAAA2
AAAIAAAAAAAAAAAAA2AAAAA2AAAAAAAAIAAAAAAAAA2A2AAA2AAAAAAAA2AAAAA2
AAAIAAAAAAAAAAAAA2AAAAA2AAAAAAAAIAIAAAAAAA2A2AAA2AAAAAAAA2AAAAA2
AAAIAAAAAAAAAAAAAAAAAAA2AAAAAAAA4AIAAAAAAA2A2AAA2AAAAAAAA2AAAAA2
AAAIAAAAAAAAAAAAAAAAAAA2AAAAAAAA4AIAAAAAAA2A2AAA2AAAAAAIA2AAAAA2
AAAIAAAAAAAAAAAAAAAAAAA2AAAAAAAA4AIAAAAAAA2A2AAA2AIAAAAIA2AAAAA2
AAAIAAAAAAAAAAAAAAAAAAA2AAAAAAAA2AIAAAAAAA2A2AAA2AIAAAAIA2AAAAA2
AAAIAAAAAAAAAAAAAAAAAAA2AAAAAAAA2AIAAAAAAA2A2AAA2A4AAAA4A2AAAAA2
AAAIAAAAAAAAAAAAAAAAAAA2AAAAAAAA2A2AAAAAAA2A2AAA2A4AAAA4A2AAAAA2
AAAIAAAAAAAAAAAAAAAAAAA2AAAAAAAA2AIAAAAAAA2A2AAA2A4AAAA4A2AAAAA2
AAAIAAAAAAAAAAAAAAAAAAA2AAAAAIAA2AIAAAAAAA2A2AAA2A4AAAA4A2AAAAA2
AAAIAAAAAAAAAAAAAAAAAAA2AAAAAIAA2AIAAAAAAA2A2AAAAA4AAAA4A2AAAAA2
AAAIAAAAAAAAAAAAAAAAAAA2AAAAAIAA2A2AAAAAAA2A2AAAAA4AAAA4A2AAAAA2
AAAIAAAAAAAAAAAAAAAAAAA2AAAAAIAA2AAAAAAAAA2A2AAAAA4AAAA4A2AAAAA2
AAAIAAAAAAAAAAAAAAAAAAA2AAAAAIAA2AAAAAAAAA2A2AAAIA4AAAA4A2AAAAA2
AAAIAAAAAAAAAAAAAAAAAAA2AAAAAIAI2AAAAAAAAA2A2AAAIA4AAAA4A2AAAAA2
AAAIAAAAAAAAAAAAAAAAAAA2AAAAAIAI2AAAAAAAAA2A2AAAAA4AAAA2A2AAAAA2
AAAIAAAAAAAAAAAAAAAAAAA2AAAAAIAI2AAAAAAAAA2A2AAAAA4AAAAAA2AAAAA2
AAAIIAAAAAAAAAAAAAAAAAA2AAAAAIAI2AAAAAAAAA2A2AAAAA4AAAAAA2AAAAA2
AAAIIAAAAAAAAAAAAAAAAAA2AAAAA4A42AAAAAAAAA2A2AAAAA4AAAAAA2AAAAA2
AAA22AAAAAAAAAAAAAAAAAA2AAAAA4A42AAAAAAAAA2A2AAAAA4AAAAAA2AAAAA2
AAAI2AAAAAAAAAAAAAAAAAA2AAAAA4A42AAAAAAAAA2A2AAAAA4AAAAAA2AAAAA2
AAA22AAAAAAAAAAAAAAAAAA2AAAAA4A42AAAAAAAAA2A2AAAAA4AAAAAA2AAAAA2
AAA22AAAAAAAAAAAAAAAAAA2AAAAA4A4AAAAAAAAAA2A2AAAAA4AAAAAA2AAAAA2
AAA2AAAAAAAAAAAAAAAAAAA2AAAAA4A4AAAAAAAAAA2A2AAAAA4AAAAAA2AAAAA2
AAA2AAAAAAAAAAAAAAAAAAA2AAAAA4A4AAAAAAAAAA2A2AAAAA4AAAAAA2IAAAA2
AAA2AAAAAAAAAAAAAAAAAAA2AAAAA4A4AAAAAAAAAA2A2AAAAA4AAAAAA2IAAAAA
AAA2AAAAAAAAAAAAAAAAAAA2AAAAA4A4AAAAAAAAAA2A2AAAAAAAAAAAA24AAAAA
AAA2AAAAAAAAAAAAAAAAAAA2AAAAA4A4AAAAAAAAAA2A2AAAAAAAAAAAA2AAAAAA
AAA2AAAAAAAAAAAAAAAAAAA2AAAAA2A2AAAAAAAAAA2A2AAAAAAAAAAAA2AAAAAA
AAA2AAAAAAAAAAAAAAAAAAA2AAAAA2AIAAAAAAAAAA2A2AAAAAAAAAAAA2AAAAAA
AAA2AAAAAAAAAAAAAAAAAAA2AAAAA2AIAAAAAAAAAI2A2AAAAAAAAAAAA2AAAAAA
AAA2AAAAAAAAAAAAAAAAAAA2AAAAA2AIAAAAAAAAA22A2AAAAAAAAAAAA2AAAAAA
AAA2AAAAAAAAAAAAAAAAAAA2AAAAA2AAAAAAAAAAA22A2AAAAAAAAAAAA2AAAAAA
AAA2AAAAAAAAAAAAAAAAAAA2AAAAA2AAIAAAAAAAA22A2AAAAAAAAAAAA2AAAAAA
AAA2AAAAAAAAAAAAAAAAAAA2AAAAA2AIIAAAAAAAA22A2AAAAAAAAAAAA2AAAAAA
AAA2AAAAAAAAAAAAAAAAAAA2AAAAA2AIIAAAAAAAA22A2AAAIAAAAAAAA2AAAAAA
AAA2AAAAAAAAAAAAAAAAAAA2AAAAA2AIIAAAAAAAA22A2AAAAAAAAAAAA2AAAAAA
AAA2AAAAAAAAAAAAAAAAAAA2AAAAA2A4AAAAAAAAA22A2AAAAAAAAAAAA2AAAAAA
AAA2AAAAAAAAAAAAAAAAAAA2AAAAA2A4AAAAAAAAAA2A2AAAAAAAAAAAA2AAAAAA
AAA2AAAAAAAAAAAAAAAAAAA2AAAAA2A4AAAAAAAAAA2A2AAAAAAAAAAAA2AIAAAA
AAA2AAAAAAAAAAAAAAAAAAA2AAAAA2A4AAAAAAAAAA2A2AAAAAAAAAAAI2AIAAAA
AAA2AAAAAAAAAAAAAAAAAAA2AAAAA2A4AAAAAAAAAA2A2AAAAAAAAAAA42A4AAAA
AAA2AAAAAAAAAAAAAAAAAAAAAAAAA2A4AAAAAAAAAA2A2AAAAAAAAAAA42A4AAAA
AAA2AAAAAAAAAAAAAAAAAAAAAAAAA2A4AAAAAAAAAA2A2AAAAAAAAAAA22A2AAAA
AAA2AAAAAAAAAAAAAAAAAAAAAAAAA2A4AAAAAAAAAI2A2AAAAAAAAAAA22A2AAAA
AAA2AAAAAAAAAAAAAAAAAAAAAAAAA2A4AAAAAAAAAA2A2AAAAAAAAAAA22A2AAAA
AAA2AAAAAAAAAAAAAAAAAAAAAAAAA2A2AAAAAAAAAA2A2AAAAAAAAAAA22A2AAAA
AAA2AAAAAAAAAAAAAAAAAAAAAAAIA2A2AAAAAAAAAA2A2AAAAAAAAAAA22A2AAAA
AAA2AAAAAAAAAAAAAAAAAAAAAAA2A2A2AAAAAAAAAA2A2AAAAAAAAAAA22A2AAAA
AAA2AAAAAAAAAAAAAAAAAAAAAAA2A2A2AAAAAAAAAA2AAAAAAAAAAAAA22A2AAAA
AAA2AAAAAAAAAAAAAAAAAAAAAAA2A2A2AAAAAAAAAA2AAAAAAAAAAAAA22AAAAAA
AAA2AAAAAAAAAAAAAAAAAAAAAAA2A2A2AAAAAAAAAA2AAAAAAAAAAAAA22AIAAAA
AAA2AAAAAAAAAAAAAAAAAAAAAAA2A2A2AAAAAAAAAA2AAAAAAAAAAAAA22A4AAAA
AAA2AAAAAAAAAAAAAAAAAAAAAAA2A2A2AAAAAAAAAA2AAAAAAAAAAAAA22A2AAAA
AAA2AAAAAAAAAAAAAAAAAAAAAAA2A2A2AAAAAAAAAA2IAAAAAAAAAAAA22A2AAAA
AAA2AAAAAAAAAAAAAAAAAAAAAAA2A2A2AAIAAAAAAA2IAAAAAAAAAAAA22A2AAAA
AAA2AAAAAAAAAAAAAAAAAAAAAAA2A2A2AAIAAAAAAA22AAAAAAAAAAAA22A2AAAA
AAA2AAAAAAAAAAAAAAAAAAAAAAA2A2A2AAIAAAAAAA22AAAAAAAAAAAA22I2AAAA
AAA2AAAAAAAAAAAAAAAAAAAAAAA2A2A2AAIIAAAAAA22AAAAAAAAAAAA22I2AAAA
AAA2AAAAAAAAAAAAAAAAAAAAAAA2A2A2AAIIAAAAAA22AAAAAAAAAAAA2222AAAA
AAA2AAAAAAAAAAAAAAAAAAAAAAA2A2A2AAIIAAAAAA22AAAAAAAAAAAA22A2AAAA
AAA2AAAAAAAAAAAAAAAAAAAAAAA2A2A2AAIIAAAAAA22AAAAAAAAAIAA22A2AAAA
AAA2AAAAAAAAAAAAAAAAAAAAAAA2A2A2AAIIAAAAAA22AAAAAAAAAIAA22I2AAAA
AAA2AAAAAAAAAAAAAAAAAAAAAAAAA2A2AAI2AAAAAA22AAAAAAAAAIAA22I2AAAA
AAA2AAAAAAAAAAAAAAAAAAAAAAAAA2A2AAI2AAAAAA22AAAAAAAAAIAA2222AAAA
AAA2AAAAAAAAAAAAAAAAAAAAAAAAA2A2AAI2IAAAAA22AAAAAAAAAIAA2222AAAA
AAA2AAAAAAAAAAAAAAAAAAAAAAAAA2A2AA424AAAAA22AAAAAAAAAIAA2222AAAA
AAA2AAAAAAAAAAAAAAAAAAAAAAAAA2A2AA222AAAAA22AAAAAAAAAIAA2222AAAA
AAA2AAAAAAAAAAAAAAAAAAAAAAAAA2A2AAI22AAAAA22AAAAAAAAAIAA2222AAAA
AAA2AAAAAAAAAAAAAAAAAAAAAAAAA2AAAA222AAAAA22AAAAAAAAAIAA2222AAAA
AAA2AAAAAAAIAAAAAAAAAAAAAAAAA2AAAA222AAAAA22AAAAAAAAAIAA2222AAAA
AAA2AAAAAAAIAAAAAAAAAAAAAAAAA2AIAA222AAAAA22AAAAAAAAAIAA2222AAAA
AAA2AAAAAAA2AAAAAAAAAAAAAAAAA2AIAA222AAAAA22AAAAAAAAAIAA2222AAAA
AAA2AAAAAAA2AAAAAAAAAAAAAAAAA2AIAA222AAAAA22AAAAAAAAAIAA22A2AAAA
AAA2AAAAAAA2AAAAAAAAAAAAAAAAA2A2AA222AAAAA22AAAAAAAAAIAA22A2AAAA
AAA2AAAAAAA2AAAAAAAAAAAAAAAAA2A2AAA22AAAAA22AAAAAAAAAIAA22A2AAAA
AAA2AAAAAAA2AAAAAAAAAAAAAAAAA2A2AAA22AAAAA22AAAAAAAAAIAA22AAAAAA
AAA2AAAAAAA2AAAAAAAAAAAAAIAAA2A2AAA22AAAAA22AAAAAAAAAIAA22AAAAAA
AAA2AAAAAAA2AAAAAAAAAAAAAIAAA2AAAAA22AAAAA22AAAAAAAAAIAA22AAAAAA
AAA2AAAAAAA2AAAAAAAAAAAAA2AAA2AAAAA22AAAAA22AAAAAAAAAIAA22AAAAAA
AAA2AAAAAAA2AAAAAAAAAAAAA2AAA2AAIAA22AAAAA22AAAAAAAAAIAA22AAAAAA
AAA2AAAAAAA2AAAAAAAAAAAAA2AAA2AAAAA22AAAAA22AAAAAAAAAIAA22AAAAAA
AAA2AAAAAAA2AAAAAAAAAAAAA2AAA2AAAAA22AAAAA22AAAAAAAAA4AA22AAAAAA
AAA2AAAIAAA2AAAAAAAAAAAAA2AAA2AAAAA22AAAAA22AAAAAAAAA4AA22AAAAAA
AAA2AAA2AAA2AAAAAAAAAAAAA2AAA2AAAAA22AAAAA22AAAAAAAAA4AA22AAAAAA
AAA2AAAAAAA2AAAAAAAAAAAAA2AAA2AAAAA22AAAAA22AAAAAAAAA4AA22AAAAAA
AAA2AAAAAAA2AAAAAAAAAAAAA2AAA2AAIAA22AAAAA22AAAAAAAAA4AA22AAAAAA
AAA2AAAAAAA2AAAAAAAAAAAAA2AAA2AA4AA22AAAAA22AAAAAAAAA4AA22AAAAAA
AAA2AAAAAAAAAAAAAAAAAAAAA2AAA2AA4AA22AAAAA22AAAAAAAAA4AA22AAAAAA
AAA2AAAAAAAAAAAAAAAAAAAAA2AAA2AA4AA22AAAIA22AAAAAAAAA4AA22AAAAAA
AAA2AAAAAAAAAAAAAAAAAAAAA2AAA2AA4AA22AAA2A22AAAAAAAAA4AA22AAAAAA
AAA2AAAAAAAIAAAAAAAAAAAAA2AAA2AA4AA22AAA2A22AAAAAAAAA4AA22AAAAAA
AAA2AAAAAAAIAAAAAAAAAAAAA2AAA2AA4AA22AIA2A22AAAAAAAAA4AA22AAAAAA
AAA2AAAAAAAIAAAAAAAAAAAAAAAAA2AA4AA22A4A2A22AAAAAAAAA4AA22AAAAAA
AAA2AAAAAAAIAAAAAAAAAAAAAAAAA2AA4AA22A4A2A2AAAAAAAAAA4AA22AAAAAA
AAA2AAAAAAA2AAAAAAAAAAAAAAAAA2AA4AA22A4A2A2AAAAAAAAAA4AA22AAAAAA
AAA2AAAAAAA2AAAAAAAAAAAAAAAAA2AAAAA22A2A2A2AAAAAAAAAA4AA22AAAAAA
AAA2AAAAAAA2AAAAAAAAAAAAAAAAA2AAAAA22A2A2A2AAAAAAAAAA2AA22AAAAAA
AAA2AAAAAAA2AAAAAAAAAAAAAAAAA2AAAAA22A2A2A2AAAAIAAAAA2AA22AAAAAA
AAA2AAAAAAA2AAAAAAAAAAAAAAAAA2AAAAA22AAA2A2AAAAIAAAAA2AA22AAAAAA
AAA2AAAAAAA2AAAAAAAAAAAAAAAAA2AAAAA22AIA2A2AAAAIAAAAA2AA22AAAAAA
AAA2AAAAAAA2AAAAAAAAAAAAAAAAA2AAAAA22AIA2A2AAAA2AAAAA2AA22AAAAAA
AAA2AAAAAAA2AAAAAAAAAAAAAAAAA2AAAAA22A4A2A2AAAA2AAAAA2AA22AAAAAA
AAA2AAAAAAA2AAAAAAAAAAAAAAAAA2AAAAA22A4A2A2AAAA2IAAAA2AA22AAAAAA
[...]
AAAAAAAAAAAAAA2AAAAAA2AAAAAAAA222AAAA2AAAA2AAAAAAAAAAAAAAAAAAAAA
AAAAAAAAAAAAAA2AAAAAAAAAAAAAAA222AAAA2AAAA2AAAAAAAAAAAAAAAAAAAAA
AAAAAAAAAIAAAA2AAAAAAAAAAAAAAA222AAAA2AAAA2AAAAAAAAAAAAAAAAAAAAA
AAAAAAAAAIAAAA2AAAAAAAAAAAAAAA222AAAA2IAAA2AAAAAAAAAAAAAAAAAAAAA
AAAAAAAAAIAAAA2AAAAAAAAAAAAAAA222AAAA24AAA2AAAAAAAAAAAAAAAAAAAAA
AAAAAAAAAIAAAA2AAAAAAAIAAAAAAA222AAAA24AAA2AAAAAAAAAAAAAAAAAAAAA
AAAAAAAAA2AAAA2AAAAAAA4AAAAAAA222AAAA24AAA2AAAAAAAAAAAAAAAAAAAAA
AAAAAIAAA2AAAA2AAAAAAA4AAAAAAA222AAAA24AAA2AAAAAAAAAAAAAAAAAAAAA
AAAAAAAAA2AAAA2AAAAAAA4AAAAAAA222AAAA24AAA2AAAAAAAAAAAAAAAAAAAAA
AAAAAAAAAIAAAA2AAAAAAA4AAAAAAA222AAAA24AAA2AAAAAAAAAAAAAAAAAAAAA
AAAAAAAAA2AAAA2AAAAAAA4AAAAAAA222AAAA24AAA2AAAAAAAAAAAAAAAAAAAAA
AAAAAAAAA2AAAA2AAAAAAA2AAAAAAA222AAAA24AAA2AAAAAAAAAAAAAAAAAAAAA
AAAAAAAAA2AAAA2AAAAAAA2AAAAAAA222AAAA22AAA2AAAAAAAAAAAAAAAAAAAAA
AAAAAAAAA2AAAA2AAAAAAAAAAAAAAA222AAAA22AAA2AAAAAAAAAAAAAAAAAAAAA
AAAAAAAAA2AAAA2AAAAAAAAAAAAAAA222AAAA22AAA2AAAAAAAAAAAAAAAIAAAAA
AAAAAAAAA2AAAA2AAAAAAAAAAAAAAA222AAAA22AAA2AAAAAAAAAAAAAAA4AAAAA
AAAAAAAAA2AAAAAAAAAAAAAAAAAAAA222AAAA22AAA2AAAAAAAAAAAAAAA4AAAAA
AAAAAAAAA2AAAAAAAAAAAAAAAAAAAA222AAAA22AAA2AAAAAAAAAAAAAAA2AAAAA
AAAAAAAAA2AAAAAAAAAAAAAAAAAAAA222AAAA22AAA2AAAAAIAAAAAAAAA2AAAAA
AAAAAAAAA2AAAAAAAAAAAAAAAAAAAA222AAAA22AAI2AAAAAIAAAAAAAAA2AAAAA
AAAAAAAAA2AAAAAAAAAAAAAAAAAAAA222AAAA22AAI2AIAAAIAAAAAAAAA2AAAAA
AAAAAAAAA2AAAAAAAAAAAAAAAAAAAA22AAAAA22AA42A4AAAIAAAAAAAAA2AAAAA
AAAAAAAAA2AAAAAAAAAAAAAAAAAAAA22AAAAA22AA42A4AAA4AAAAAAAAA2AAAAA
AAAAAAAAA2AAAAAAAAAAAAAAAAAAAA22AAAAA22AA22A4AAA4AAAAAAAAA2AAAAA
AAAAAAAAA2AAAAAAAAAAAAAAAAAAAA22AAAAA22AA22A2AAA4AAAAAAAAA2AAAAA
AAAAAAAAA2AAAAAAAAAAAAAAAAAAAA22AAAAA22AAA2A2AAA2AAAAAAAAA2AAAAA
AAAAAAAAA2AAAAIAAAAAAAAAAAAAAA22AAAAA22AAA2A2AAA2AAAAAAAAA2AAAAA
AAAAAAAAA2AAAA2AAAAAAAAAAAAAAA22AAAAA22AAA2A2AAA2AAAAAAAAA2AAAAA
AAAAAAAAA2AAAA2AAAAAAAAAAAAAAAA2AAAAA22AAA2A2AAA2AAAAAAAAA2AAAAA
AAAAAAAAA2AAAA2AAAAAAAAAAAAAAAA2AAAAA22AAA2A2AAA2AAAAAAAAAAAAAAA
AAAAAAAAA2AAAA2AAAAAAAAAAAAAAAA2AAAAA22AAA2A2AAA2AAAAAAAAAIAAAAA
AAAAAAAAA2AAAA2AAAAAAAAAAAAAAAA2AAAAA22AAA2A2AAA2AAAAAAAAA4AAAAA
AAAAAAAAA2AAAA2AAAAAAAAAAAAAAAA2AAAAA22AAA2AAAAA2AAAAAAAAA4AAAAA
AAAAAAAAA2AAAA2AAAAAAAAAAAAAAAA2AAAAA22AAA2IAAAA2AAAAAAAAA4AAAAA
AAAAAAAAA2AAAA2AAAAAAAAAAAAAAAA2AAAAA22AAA2IAAAA2AAAAAAAAAAAAAAA
AAAAAAAAA2AAAA2AAAAAAAAAAAAAAAA2AAAAA2AAAA22AAAA2AAAAAAAAAAAAAAA
AAAAAAAAA2AAAA2AAAAAAAAAAAAAAAA2AAAAA2AAAA22AAAAAAAAAAAAAAAAAAAA
AAAAAAAAA2AAAA2AAAAAAAAAAAAAAAA2AAAAA2AAAA2IAAAAAAAAAAAAAAAAAAAA
AAAAAAAAA2AAAA2AAAAAAAAAAAAAAAA2AAAAA2AAAA2IAAAAAAAAAAAAAAIAAAAA
AAAAAAAAA2AAAA2AAAAAAAAAAAAAAAA2AAAAA2AAAI2IAAAAAAAAAAAAAAIAAAAA
AAAAAAAAAAAAAA2AAAAAAAAAAAAAAAA2AAAAA2AAAI2IAAAAAAAAAAAAAAIAAAAA
AAAAAAAAAAAAAA2AAAAAAAAAAAAAAAA2AAAAA2AAAI2IAAAAAAAAAAAAAA2AAAAA
AAAAAAAAAAAAAA2AAAAAAAAAAAAAAAA2AAAAA2AAAI2IAAAAAAAAAAAAAAAAAAAA
AAAAAAAAAAAAAA2AAAAAAAAAAAAAAAA2AAAAA2AAAI2AAAAAAAAAAAAAAAAAAAAA
AAAAAAAAAAAAAA2AAAAAAAAAAAAAAAA2AAAAA2AAA42AAAAAAAAAAAAAAAAAAAAA
AAAAAAAAAAAAAA2AAAAAAAAAAAAAAAA2AAIAA2AAA42AAAAAAAAAAAAAAAAAAAAA
AAAAAAAAAAAAAA2AAAAAAAAAAAAAAAA2AAIAA2AAA42AAAAAAAAAAAIAAAAAAAAA
AAAAAAAAAAAAAA2AAAAAAAAAAAAAAAA2AAIAA2AAA22AAAAAAAAAAA4AAAAAAAAA
AAAAAAAAAAAAAA2AAAAAAAAAAAAAAAA2AA4AA2AAA22AAAAAAAAAAA4AAAAAAAAA
AAAAAAAAAAAAAA2AAAAAAAAAAAAAAAA2AA4AA2AAA22AAAAAAAAAAAAAAAAAAAAA
AAAAAAAAAAAAAA2AAAAAAAAAIAAAAAA2AA4AA2AAA22AAAAAAAAAAAAAAAAAAAAA
AAAAAAAAAAAAAA2AAAAAAIAAIAAAAAA2AA4AA2AAA22AAAAAAAAAAAAAAAAAAAAA
AAAAAAAAAAAAAA2AAAAAAIAA4AAAAAA2AA4AA2AAA22AAAAAAAAAAAAAAAAAAAAA
AAAAAAAAAAAAAA2AAAAAAIAA4AAAAAA2AA2AA2AAA22AAAAAAAAAAAAAAAAAAAAA
AAAAAAAAAAAAAA2AAAAAAIAA2AAAAAA2AA2AA2AAA22AAAAAAAAAAAAAAAAAAAAA
AAAAAAAAIAAAAA2AAAAAAIAA2AAAAAA2AA2AA2AAA22AAAAAAAAAAAAAAAAAAAAA
AAAAAAAA2AAAAA2AAAAAA4AA2AAAAAA2AA2AA2AAA22AAAAAAAAAAAAAAAAAAAAA
AAAAAAAAAAAAAA2AAAAAA4AA2AAAAAA2AA2AA2AAA22AAAAAAAAAAAAAAAAAAAAA
AAAAAAAAIAAAAA2AAAAAA4AA2AAAAAA2AA2AA2AAA22AAAAAAAAAAAAAAAAAAAAA
AAAAAAAA2AAAAA2AAAAAA4AA2AAAAAA2AA2AA2AAA22AAAAAAAAAAAAAAAAAAAAA
AAAAAAAA2AAAAA2AAAAAA4AA2AAAAAA2AA2AA2AAI22AAAAAAAAAAAAAAAAAAAAA
AAAAAAAA2AAAAA2AAAAAA4AA2AAAAAA2AA2AA2AAI22IAAAAAAAAAAAAAAAAAAAA
AAAAAAAA2AAAAA2AAAAAA4AA2AAAAAA2AA2AA2AA2222AAAAAAAAAAAAAAAAAAAA
AAAAAAAA2AAAAA2AAAAAA4AA2AAAAAAAAA2AA2AA2222AAAAAAAAAAAAAAAAAAAA
AAAAAAAA2AAAAA2AAAAAA2AA2AAAAAAAAA2AA2AA2222AAAAAAAAAAAAAAAAAAAA
AAAAAAAA2AAAAA2AAAAAAIAA2AAAAAAAAA2AA2AA2222AAAAAAAAAAAAAAAAAAAA
AAAAAAAA2AAAAA2AAAAAA4AA2AAAAAAAAA2AA2AA2222AAAAAAAAAAAAAAAAAAAA
AAAAAAAA2AAAAA2AAAAAA2AA2AAAAAAAAA2AA2AA2222AAAAAAAAAAAAAAAAAAAA
AAAAAAAA2AAAAA2AAAAAA2AA2AAAAAAIAA2AA2AA2222AAAAAAAAAAAAAAAAAAAA
AAAAAAAA2AAAAA2AAAAAA2AA2AAAAAAIAA2AA2AA2A22AAAAAAAAAAAAAAAAAAAA
AAAAAAAA2AAAAA2AAAAAA2AA2AAAAAAIAA2AA2AA2A2AAAAAAAAAAAAAAAAAAAAA
AAAAAAAA2AAAAA2AAAAAA2AA2AAAAAA4AA2AA2AA2A2AAAAAAAAAAAAAAAAAAAAA
AAAAAAAA2AAAAA2AAAAAA2AA2AAAAAA4AA2AA2AAAA2AAAAAAAAAAAAAAAAAAAAA
AAAAAAAA2AAAAA2AAAAAA2AA2AAAAAA4AA2AA2AAAA2AAAAAAAAAAAIAAAAAAAAA
AAAAAAAA2AAAAA2AAAAAA2AA2AAAAAA4AA2AAAAAAA2AAAAAAAAAAAIAAAAAAAAA
AAAAAAAA2AAIAA2AAAAAA2AA2AAAAAA4AA2AAAAAAA2AAAAAAAAAAAIAAAAAAAAA
AAAAAAAA2AA2AA2AAAAAA2AA2AAAAAA4AA2AAAAAAA2AAAAAAAAAAAIAAAAAAAAA
AAAAAAAA2AA2AA2AAAAAI2AA2AAAAAA4AA2AAAAAAA2AAAAAAAAAAAIAAAAAAAAA
AAAAAAAA2AA2AA2AAAAA42AA2AAAAAA4AA2AAAAAAA2AAAAAAAAAAAIAAAAAAAAA
AAAAAAAAAAA2AA2AAAAA42AA2AAAAAA4AA2AAAAAAA2AAAAAAAAAAAIAAAAAAAAA
AAAAAAAAAAA2AA2AAAAA42AA2AAAAAA4AA2AAAAAAA2AAAAAAAAAAAAAAAAAAAAA
AAAAAAAAAAA2AA2AAAAA42AA2AAAAAA4AA2AAAAAIA2AAAAAAAAAAAAAAAAAAAAA
AAAAAAAAAAA2AA2AAAAA42AA2AAAAAAAAA2AAAAA4A2AAAAAAAAAAAAAAAAAAAAA
AAAAAAAAAAA2AA2AAAAA42AA2AAAAAAAAA2AAAAA4A2AAAAIAAAAAAAAAAAAAAAA
AAAAAAAAAAA2AA2AAAAA42AA2AAAAAAAAA2AAAIA4A2AAAAIAAAAAAAAAAAAAAAA
AAAAAAAAAAA2AA2AAAAA42AA2AAAAAAAAA2AAA2A2A2AAAA4AAAAAAAAAAAAAAAA
AAAAAAAAAAA2AA2AAAAA42AA2AAAAAAAAA2AAAAA2A2AAAA4AAAAAAAAAAAAAAAA
AAAAAAAAIAA2AA2AAAAA42AA2AAAAAAAAA2AAAAA2A2AAAA4AAAAAAAAAAAAAAAA
AAAAAAAAIAA2AA2AAAAA42AA2AAAAAAAAA2AAAAA2A2AAAA4AAAAAAAAAAIAAAAA
AAAAAAAA2AA2AA2AAAAA42AA2AAAAAAAAA2AAAAA2A2AAAA4AAAAAAAAAAIAAAAA
AAAAAIAA2AA2AA2AAAAA42AA2AAAAAAAAA2AAAAA2A2AAAA4AAAAAAAAAAIAAAAA
AAAAAAAA2AA2AA2AAAAA42AA2AAAAAAAAA2AAAAA2A2AAAA4AAAAAAAAAAIAAAAA
AAAAAAAA2AA2AA2AAAAA4AAA2AAAAAAAAA2AAAAA2A2AAAA4AAAAAAAAAAIAAAAA
AAAAAAAA2AA2AAAAAAAA2AAA2AAAAAAAAA2AAAAA2A2AAAA4AAAAAAAAAAIAAAAA
AAAAAAAA2AA2AAAAAAAA2AAA2AAAAAAAAAAAAAAA2A2AAAA4AAAAAAAAAAIAAAAA
AAAAAAAA2AA2AAAIAAAA2AAA2AAAAAAAAAAAAAAA2A2AAAA4AAAAAAAAAAIAAAAA
AAAAAAAA2AA2AAA2AAAA2AAA2AAAAAAAAAAAAAAA2A2AAAA4AAAAAAAAAAIAAAAA
AAAAAAAA2AA2AAA2AAAA2AAA2AAAAAAIAAAAAAAA2A2AAAA4AAAAAAAAAAIAAAAA
AAAAAAAA2AA2AAA2AAAA2AAA2AAAAAAIAAAAAAAA2A2AAAA4AAAAAAAAAA2AAAAA
AAAAAAAA2AA2AAA2AAAA2AAA2AAAAAA4AAAAAAAA2A2AAAA4AAAAAAAAAA2AAAAA
AAAAAAAA2AA2AAAAAAAA2AAA2AAAAAA4AAAAAAAA2A2AAAA4AAAAAAAAAA2AAAAA
AAAAAAAA2AAAAAAAAAAA2AAA2AAAAAA4AAAAAAAA2A2AAAA4AAAAAAAAAA2AAAAA
AAAAAAAA2AAIAAAAAAAA2AAA2AAAAAA4AAAAAAAA2A2AAAA4AAAAAAAAAA2AAAAA
AAAAAAAA2AA2AAAAAAAA2AAA2AAAAAA4AAAAAAAA2A2AAAA4AAAAAAAAAA2AAAAA
AAAAAAAA2AA2AAAAAAAA2AAA2AAAAAA4AAAAAAAA2A2AAAA2AAAAAAAAAA2AAAAA
AAAAAAAA2AA2AAAAAAAA2AAA2AAAAAA4AAAAAAAAAA2AAAA2AAAAAAAAAA2AAAAA
AAAAAAAA2AA2AAAAAAAA2AAA2AAAAAA4AAAAAAAAIA2AAAA2AAAAAAAAAA2AAAAA
AAAAAAAA2AA2AAAAAAAA2AAA2AAAAAA2AAAAAAAA4A2AAAA2AAAAAAAAAA2AAAAA
AAAAAAAA2AA2AAAAAAAA2AAA2AAAAAA2AAAAAAAA2A2AAAA2AAAAAAAAAA2AAAAA
AAAAAAAA2AA2AAAAAAAA2AAA2AAAAAA2AAAAAAAA2A2AAAA2AAAAAAAAAAAAAAAA
AAAAAAAA2AA2AAAAAAAA2AAA2AAAAAA2AAAAAAAA2A2AAAAAAAAAAAAAAAAAAAAA
AAAAAAAA2AA2AAAAAAAA2AAA2AAAAAA2AAAAAAAA2A2AAAAAAAIAAAAAAAAAAAAA
AAAAAAAA2AA2AAAAAAAA2AAA2AAAAAA2AAAAAAAA2A2AAAAAAA4AAAAAAAAAAAAA
AAAAAAAA2AA2AAAAAAAA2AAA2AAAAAA2AAAAAAAAAA2AAAAAAA4AAAAAAAAAAAAA
AAAAAAAA2AA2AAAAAAAA2AAA2AAAAAA2AAAAAAAAAA2AAAAAAA2AAAAAAAAAAAAA
AAAAAAAA2AA2AAAAAAAA2AAA2AAAAAA2IAAAAAAAAA2AAAAAAA2AAAAAAAAAAAAA
AAAAAAAA2AA2AAAAAAAA2AAA2AAAAAA2IAAAAAAAAA2AAAIAAA2AAAAAAAAAAAAA
AAAAAAAA2AA2AAAAAAAA2AAA2AAAAAA2AAAAAAAAAA2AAA4AAA2AAAAAAAAAAAAA
AAAAAAAA2AA2AAAAAAAA2AAA2AAAAAA2AAAAAAAAAA2AAA4AAA2AAAAAAAIAAAAA
AAAAAAAA2AA2AAAAAAAA2AAA2AAAAAA2AAAAAAAAAA2AAA4AAA2AAAAAAAAAAAAA
AAAAAAAA2AA2AAAAAAAA2AAA2AAAAAA2AAAAAAAAAA2AAA2AAA2AAAAAAAAAAAAA
AAAAAAAA2AA2AAAAAAAA2AAA2AAAAAA2AAAAAAIAAA2AAA2AAA2AAAAAAAAAAAAA
AAAAAAAA2AA2AAAAAAAA2AAA2AAAAAA2AAAAAA2AAA2AAA2AAA2AAAAAAAAAAAAA
AAAAAAAA2AA2AAAAAAAA2AAA2AAAAAA2AIAAAA2AAA2AAA2AAA2AAAAAAAAAAAAA
AAAAAAAA2AA2AAAAAAAA2AAA2AAAAAA2A2AAAA2AAA2AAA2AAA2AAAAAAAAAAAAA
AAAAAAAA2AA2AAAAAAAA2AAA2AAAAAA2A2AAAA2AIA2AAA2AAA2AAAAAAAAAAAAA
AAAAAAAA2AA2AAAAAAAA2AAA2AAAAAA2A2AAAA2AIA2IAA2AAA2AAAAAAAAAAAAA
AAAAAAAA2AA2AAAAAAAA2AAA2AAAAAA2A2AAAA2A4A2IAA2AAA2AAAAAAAAAAAAA
AAAAAAAA2AA2AAAAAAAA2AAA2AAAAAA2A2AAAA2A4A24AA2AAA2AAAAAAAAAAAAA
AAAAAAAA2AA2AAAAAAAA2AAA2AAAAAA2A2AAAA2AAA22AA2AAA2AAAAAAAAAAAAA
AAAAAAAA2AA2AAAAAAAA2AAA2AAAAAA2A2AAAA2AAA22AA2AAI2AAAAAAAAAAAAA
AAIAAAAA2AA2AAAAAAAA2AAA2AAAAAA2A2AAAA2AAA22AA2AAI2AAAAAAAAAAAAA
AAIAAIAA2AA2AAAAAAAA2AAA2AAAAAA2A2AAAA2AAA22AA2AAI2AAAAAAAAAAAAA
AAIAAIAA2AA2AAAAAAAA2AAA2AAAAAA2A2AAAA2AAA22AA2AA42AAAAAAAAAAAAA
AAIAAIAA2AA2AAAAAAAA2AAA2AAAAAA2A2AAAA2AAA2AAA2AA22AAAAAAAAAAAAA
AA2AAIAA2AA2AAAAAAAA2AAA2AAAAAA2A2AAAA2AAA2AAA2AA22AAAAAAAAAAAAA
AA2AAIAA2AA2AAAAAAAA2AAA2AAAAAA2A2AAAA2AAA2AAA2AA22AIAAAAAAAAAAA
AA2AAIAA2AA2AAAAAAAA2AAA2AAAAAA2A2AAAA2AAA2AAA2AA22AIAAAAAIAAAAA
AA2AAIAA2AA2AAAAAAAA2AAA2AAAAAA2A2AAAA2AAA2IAA2AA22AIAAAAAIAAAAA
AA2AAIAA2AA2AAAAAAAA2AAA2AAAAAA2A2AAAAAAAA22AA2AA22A4AAAAAIAAAAA
AA2AAAAA2AA2AAAAAAAA2AAA2AAAAAA2A2AAAAAAAA22AA2AA22A4AAAAAIAAAAA
AA2AAAAA2AA2AAAAAAAAAAAA2AAAAAA2A2AAAAAAAA22AA2AA22A4AAAAAIAAAAA
AA2AAAAA2AA2AAAAAAAAAAAA2AAAAAA2A2AAAAAAAA22AA2AA22AAAAAAA2AAAAA
AA2AAAAA2AA2AAAAAAAAAAAA2AAAAAA2A2AAIAAAAA22AA2AA22AAAAAAA2AAAAA
AA2AAAAA2AA2AAAAAAAAAAAA2AAAAAA2A2AAIIAAAA22AA2AA22AAAAAAA2AAAAA
AA2AAAAA2AA2AAAAAAAAAAAA2AAAAAA2A2AAIIAAAA22AA2AA22AAAAAAA2AAIAA
AA2AAAAA2AA2AAAAAAAAAAAA2AAAAAA2AAAAI2AAAA22AA2AA22AAAAAAA2AAIAA
AA2AAAAA2AA2AAAAAAAAAAAA2AAAAAA2AAAAI2AAAA2AAA2AA22AAAAAAA2AAIAA
AA2AAIAA2AA2AAAAAAAAAAAA2AAAAAA2AAAAI2AAAA2AAA2AA22AAAAAAA2AAIAA
AA2AAIAA2AA2AAAAAAAAAAAA2AAAAAA2AAAAIIAAAA2AAA2AA22AAAAAAA2AAIAA
AA2AAIAA2AA2AAAAAAAAAAAA2AAAAAA2AAAAIIAAAA2IAA2AA22AAAAAAA2AAIAA
AA2AAAAA2AA2AAAAAAAAAAAA2AAAAAA2AAAAIIAAAA2IAA2AA22AAAAAAA2AAIAA
AA2AAAAA2AA2AAAAAAAAAAAA2AAAAAA2AAAAIIAAAA2IAA2AA22AAAAAAA2AA4AA
AAAAAAAA2AA2AAAAAAAAAAAA2AAAAAA2AAAAIIAAAA2IAA2AA22AAAAAAA2AA4AA
AAAAAAAA2AA2AAAAAAAAAAAA2AAAAAA2AAAAA2AAAA2IAA2AA22AAAAAAA2AA4AA
AAAAAAAA2AA2AAAAAAAAAAAA2AAAAAA2AAAAAIAAAA2IAA2AA22AAAAAAA2AA4AA
AAAAAAAA2AA2AAAAAAAAAAAA2AAAAAAAAAAAAIAAAA2IAA2AA22AAAAAAA2AA4AA
AAAAAAAA2AA2AAAAAAAAAAAA2AAAAAAAAAAAA4AAAA24AA2AA22AAAAAAA2AA4AA
AAAAAAAA2AA2AAAAAAAAAAAA2AAAAAAAAAAAA4AAAA22AA2AA22AAAAAAA2AA4AA
AAAAAAAA2AA2AAAAAAAAAAAA2AAAAAAAAAAAA4AAAA22AA2AA2AAAAAAAA2AA4AA
AAAAAAAA2AA2AAAAAAAAAAAA2AAAAAAAAAAAA4AAAA22AA2AA2AAAAAAAA2AA2AA
AAAAAAAA2AA2AAAAAAAAAAAA2AAAAAAAAAAAA4AAAA22AA2AA2AAAAAAAAAAA2AA
AAAAAAAA2AA2AAAAIAAAAAAA2AAAAAAAAAAAA4AAAA22AA2AA2AAAAAAAAAAA2AA
AAAAAAAA2AA2AAAAIAAAAAAA2AAAAAAAAAAAA2AAAA22AA2AA2AAAAAAAAAAA2AA
AAAAAAAA2AA2AAAAIAAAAAAA2AAAAAAAAAAAA2AAAA22AA2AA2AAAAAAAAAAI2AA
AAAAAAAA2AA2AAAAIAAAAAAA2AAAAAAAAAAAA2AAAA2AAA2AA2AAAAAAAAAAI2AA
AAAAAAAA2AA2AAAAIAAAAAAA2AAAAAAAAAAAA2AAAA2AAA2AA2AAAAAIAAAAI2AA
AAAAAAAA2AA2AAAAIAAAAAAA2AAAAAAAAAAAA2AAAA2AAA2AA2AAAAAIAAAII2AA
AAAAAAAA2AA2AAAA4AAAAAAA2AAAAAAAAAAAA2AAAA2AAA2AA2AAAAAIAAAII2AA
AAAAAAAA2AAAAAAA2AAAAAAA2AAAAAAAAAAAA2AAAA2AAA2AA2AAAAAIAAAII2AA
AAAAAAAA2AAAAAAA2AAAAAAA2AAAAAAAAAAAA2AAAA2AAA2AA2AAAAA4AAAII2AA
AAAAAAAA2AAAAAAA2AAAAAAA2AAAAAAAAAAAA2AAAA2AAA2AA2AAAAA4AAA4I2AA
AAAAAAAA2AAAAAAA2AAAAAAA2AAAAAAAAAAAA2AAAA2AAA2AA2AAAAA2AAA222AA
AAAAAAAA2AAAAAAA2AAAAAAA2AAAAAAAAAAAA2AAAA2AAA2AA2AAAAA2AAAI22AA
AAAAAAAA2AAAAAAA2AAAAAAA2AAAAAAAAAAAA2AAAA2AAA2AA2AAAAAAAAAI22AA
AAAAAAAA2AAAAAAA2AAAAAAA2AAAAAAAAAAAA2AAAA2AAA2AA2AAAAAAAAA422AA
AAAAAAAA2AAAAAAA2AAAAAAA2AAAAAAAAAAAA2AAAA2IAA2AA2AAAAAAAAA422AA
AAAAAAAA2AAIAAAA2AAAAAAA2AAAAAAAAAAAA2AAAA2IAA2AA2AAAAAAAAA422AA
AAAAAAAA2AAIAAAA2AAAAAAA2AAAAAAAAAAAA2AAAA22AA2AA2AAAAAAAAA422AA
AAAAAAAA2AAIAAAA2AAAAAAA2AAAAAAAAAAAA2AAAA22AA2AA2AAAAAAAAA222AA
AAAAAAAA2AAIAAAA2AAAAAAA2AAAAAAAAAAAA2AAAA2AAA2AA2AAAAAAAAA222AA
AAAAAAAAAAA2AAAA2AAAAAAA2AAAAAAAAAAAA2AAAA2AAA2AA2AAAAAAAAA222AA
AAAAAAAAAAA2AAAA2AAAAAAA2AAAAAAAAAAAA2AAAA2AAA2AA2AAAAAAAAAA22AA
AAAAAAAAAAAIAAAA2AAAAAAA2AAAAAAAAAAAA2AAAA2AAA2AA2AAAAAAAAAA22AA
AAAAAAAAAAA2AAAA2AAAAAAA2AAAAAAAAAAAA2AAAA2AAA2AA2AAAAAAAAAA22AA
AAAAAAAAAAA2AAAA2AAAAAAA2AAAAAAAAAAAA2AAIA2AAA2AA2AAAAAAAAAA22AA
AAAAAAAAAAAIAAAA2AAAAAAA2AAAAAAAAAAAA2AAIA2AAA2AA2AAAAAAAAAA22AA
AAAAAAAAAAA4AAAA2AAAAAAA2AAAAAAAAAAAA2AAIA2AAA2AA2AAAAAAAAAA22AA
AAAAAAAAAAA4AAAA2AAAAAAA2AAAAAAAAAAAA2AA2A2AAA2AA2AAAAAAAAAA22AA
AAAAAAAAAAA2AAAA2AAAAAAA2AAAAAAAAAAAA2AA2A2AAA2AA2AAAAAAAAAA22AA
AAAAAAAAAAA2AAAA2AAAAAAAAAAAAAAAAAAAA2AA2A2AAA2AA2AAAAAAAAAA22AA
AAAAAAAAAAA2AAAAAAAAAAAAAAAAAAAAAAAAA2AA2A2AAA2AA2AAAAAAAAAA22AA
AAAAAAAAAAA2AAAAAAAAAAAAAAAAAAAAAAAAA2AA2A2AAA2AAAAAAAAAAAAA22AA
AAAAAAAAAAA2AAAAAAAAAAAAAAAAAAAIAAAAA2AA2A2AAA2AAAAAAAAAAAAA22AA
AAAAAAAAAAA2AAAAAAAAAAAAAAAAAAAAAAAAA2AA2A2AAA2AAAAAAAAAAAAA22AA
AAAAAAAAAAA2AAAAAAAAAAAAAAAIAAAAAAAAA2AA2A2AAA2AAAAAAAAAAAAA22AA
AAAAAAAAAAA2AAAAAAAAAAAAAAAIAAAAAAAAA2AA2A2AAA2AAAAAAAAAAAAI22AA
AAAAAAAAAAA2AAAAAAAAAAAAAAAAAAAAAAAAA2AA2A2AAA2AAAAAAAAAAAAI22AA
AAAAAAAAAAA2AAAAAAAAAAAAAAAAAAAAAAAAA2AA2A2AAA2AAAAAAAAAAAA422AA
AAAAAAAAAAA2AAAAAAAAAAAAAAAAAAAAAAAAA2AA2A2AAA2AAAAAAAAAAAA222AA
AAAAAAAAAAA2AAAAAAAAAAAAAAAIAAAAAAAAA2AA2A2AAA2AAAAAAAAAAAA222AA
AAAAAAAAAAA2AAAAAAAAAAAAAAAIAAAAIAAAA2AA2A2AAA2AAAAAAAAAAAA222AA
AAAAAAAAAAA2AAAAAAAAAAAAAAAIAAAAIAAAA2AA2A2AAA2AAAAAAAAAAAAI22AA
AAAAAAAAAAA2AAAAAAAAAAAAAAAIAAAAIAAAA2AA2A2AAA2AAAAAAAAAAAA222AA
AAAAAAAAAAA2AAAAAAAAAAAAAAAIAAAAIAAAA2AA2A2AAA2AAAAAAAAAAAAA22AA
AAAAAAAAAAA2AAAAAAAAAAAAAAAIAAAAIAAAA2AA2A2AAA2AAAAAAAAAAAAI22AA
AAAAAAAAAAA2AAAAAAAAAAAAAAAIAAAA4AAAA2AA2A2AAA2AAAAAAAAAAAAI22AA
AAAAAAAAAAA2AAAAAAAAAAAAAAAIAAAA4AAAA2AA2A2AAA2AAAAAAAAAAAAA22AA
AAAAAAAAAAA2AAAAAAAAAAAAAAAIAAAA2AAAA2AA2A2AAA2AAAAAAAAAAAAA22AA
AAAAAAAAAAA2AAAAAAAAAAAAAAAIAAAA2AAAI2AA2A2AAA2AAAAAAAAAAAAA22AA
AAAAAAAAAAA2AAAAAAAAAAAAAAA4AAAA2AAAI2AA2A2AAA2AAAAAAAAAAAAA22AA
AAAAAAAAAAA2AAAAAAAAAAAAAAA4AAAA2AAAI2AA2A2AAA2AAAAAAAAAAAIA22AA
AAAAAAAAAAA2AAAAAAAAAAAAAAA2AAAA2AAA42AA2A2AAA2AAAAAAAAAAAIA22AA
AAAAAIAAAAA2AAAAAAAAAAAAAAA2AAAA2AAA42AA2A2AAA2AAAAAAAAAAAIA22AA
AAAAAIAAAAA2AAAAAAAAAAAAAAA2AAAA2AAA42AA2A2AAA2AAAAAAAAAAAAA22AA
AAAAAIAAAAA2AAAAAAAAAAAAAAA2AAAA2AAA42AA2A2AAA2AAAAAAAAAAAIA22AA
AAAAA2AAAAA2AAAAAAAAAAAAAAA2AAAA2AAA42AA2A2AAA2AAAAAAAAAAAIA22AA
AAAAA2AAAAA2AAAAAAAAAAAAAAA2AAAAAAAA22AA2A2AAA2AAAAAAAAAAAIA22AA
AAAAA2AAAAA2AAAAAAAAAAAAAAA2AAAAAAAA22AA2A2AAA2AAAAAAAAAAAAA22AA
AAAAA2AAAAA2AAAAAAAAAAAAAAA2AAAAAAAA22AA2A2AAA2AAAAAAAAAAAAA2AAA
AAAAA2AAAAA2AAAAAAAAAAAAAAA2AAAAAAAA22AA2I2AAA2AAAAAAAAAAAAA2AAA
AAAAA2AAAAA2AAAAAAAAAAAAAAA2AAAAAAAA22AA2I2AAA2AAAAAAAAAAAAA2IAA
AAAAA2AAAAA2AAAAAAAAAAAAAAA2AAAAAAAA22AA2I2AAA2AAAAAAAAAAAAA2AAA
AAAAA2AAAAA2AAAAAAAAAAAAAAA2AAAAAAAA22AA2I2AAA2AAAAAAAAAAAAAAAAA
AAAAAAAAAAA2AAAAAAAAAAAAAAA2AAAAAAAA22AA2I2AAA2AAAAAAAAAAAAAAAAA
AAAAAAAAAAA2AAAAAAAAAAAAAAA2AAAAAAAA22AA2I2AAA2AIAAAAAAAAAAAAAAA
AAAAAAAAAAA2AAAAAAAAAAAAAAA2AAAAAAAA22AA242AAA2A4AAAAAAAAAAAAAAA
AAAAAAAAAAA2AAAAAAAAAAAAAAA2AAAAAAAA22AA222AAA2A4AAAAAAAAAAAAAAA
AAAAAAAAAAA2AAAAAAAAAAAAAAA2AAAAAAAA22AA2A2AAA2A2AAAAAAAAAAAAAAA
AAAAAAAAAAA2AAAAAAAAAAIAAAA2AAAAAAAA22AA2A2AAA2A2AAAAAAAAAAAAAAA
AAAAAAAAAAA2AAAAAAAAAAIAAAA2AAAAAAAA22AA2A2AAA2AIAAAAAAAAAAAAAAA
AAAAAAAAAAA2AAAAAAAAAAIAIAA2AAAAAAAA22AA2A2AAA2AIAAAAAAAAAAAAAAA
AAAAAAAAAAA2AAAAAAAAAAIAIAA2AAAAAAAAA2AA2A2AAA2A4AAAAAAAAAAAAAAA
AAAAAAAAAAA2AAAAAAAAAAIAIAA2AAAAAAAAA2AA2A2AAA2A2AAAAAAAAAAAAAAA
AAAAAAAAAAA2AAAAAAAAAAIA4AA2AAAAAAAAA2AA2A2AAA2A2AAAAAAAAAAAAAAA
AAAAAAAAAAA2AAAAAAAAAA4A4AA2AAAAAAAAA2AA2A2AAA2A2AAAAAAAAAAAAAAA
AAAAAAAAAAA2AAAAAAAAAAAA4AA2AAAAAAAAA2AA2A2AAA2A2AAAAAAAAAAAAAAA
AAAAAAAAAAA2AAAAAAAAAAAA4AA2AAAAAAAAAAAA2A2AAA2A2AAAAAAAAAAAAAAA
AAAAAAAAAAA2AAAAAAAAAAAA4AA2AAAAAAAAAAAAAA2AAA2A2AAAAAAAAAAAAAAA
AAAAAAAAAAA2AAAAAAAAAAIA4AA2AAAAAAAAAAAAAA2AAA2A2AAAAAAAAAAAAAAA
AAAAAAAAAAA2AAAAAAAAAAIA4AA2AAAAAAAAAIAAAA2AAA2A2AAAAAAAAAAAAAAA
AAAAAAAAAAA2AAAAAAAAAAIA4AA2AAAAAAAAAIAAAI2AAA2A2AAAAAAAAAAAAAAA
AAAAAAAAAAA2AAAAAAAAAAIA4AA2AAAAAAAAA2AAA42AAA2A2AAAAAAAAAAAAAAA
AAAAAAAAAAA2AAAAAAAAAAIA4AA2AAAAAAIAA2AAA42AAA2A2AAAAAAAAAAAAAAA
AAAAAAAAAAA2AAAAAAAAAAIA4AA2AAAAAAIAA2AAI42AAA2A2AAAAAAAAAAAAAAA
AAAAAAAAAAA2AAAAAAAAAA4A4AA2AAAAAAIAA2AAI42AAA2A2AAAAAAAAAAAAAAA
AAAAAAAAAAA2AAAAAAAAAA4A4AA2AAAAAAIAA2AA442AAA2A2AAAAAAAAAAAAAAA
AAAAAAAAAAA2AAAAAAAAAA4A4AA2AAAAAAIAA2AA4A2AAA2A2AAAAAAAAAAAAAAA
AAAAAAAAAAA2AAAAAAAAAA4A4AA2AAAAAAIAA2AA4A2AAAAA2AAAAAAAAAAAAAAA
AAAAAAAAAAA2AAAAAAAAAA4A4AA2AAAAAAIAA2AA4I2AAAAA2AAAAAAAAAAAAAAA
AAAAAAAAAAA2AAAAAAAAAA4A4AA2AAAAAA2AA2AA222AAAAA2AAAAAAAAAAAAAAA
AAAAAAAAAAA2AAAAAAAAAA4A4AA2AAAAAA2AA2AA2I2AAAAA2AAAAAAAAAAAAAAA
AAAAAAAAAAA2AAAAAAAAAA4A4AA2AAAAAA2AA2AA2I2AAAAA2AAAAAAAAAAIAAAA
AAAAAAAAAAAAAAAAAAAAAA4A4AA2AAAAAA2AA2AA2I2AAAAA2AAAAAAAAAAIAAAA
AAAAAAAAAAAAAAAAAAAAAA4AAAA2AAAAAA2AA2AA2I2AAAAA2AAAAAAAAAAIAAAA
AAAAAAAAAAAAAAAAAAAAAA4AAAA2AAAAAA2AA2AA242AAAAA2AAAAAAAAAAIAAAA
AAAAAAAIAAAAAAAAAAAAAA4AAAA2AAAAAA2AA2AA242AAAAA2AAAAAAAAAAIAAAA
AAAAAAA2AAAAAAAAAAAAAA4AAAA2AAAAAA2AA2AA242AAAAA2AAAAAAAAAAIAAAA
AAAAAAAAAAAAAAAAAAAAAA4AAAA2AAAAAA2AA2AA242AAAAA2AAAAAAAAAAIAAAA
AAAAAAAAAAAAAAAAAAAAAAAAAAA2AAAAAA2AA2AA242AAAAA2AAAAAAAAAAIAAAA
AAAAAAAAIAAAAAAAAAAAAAAAAAA2AAAAAA2AA2AA242AAAAA2AAAAAAAAAAIAAAA
AAAAAAAAIAAAAAAAAAAAAAAAAAA2AAAAAA2AA2AA242AAAAA2AAAAAAAAAAAAAAA
AAAAAAAA2AAAAAAAAAAAAAAAAAA2AAAAAA2AA2AA242AAAAA2AAAAAAAAAAAAAAA
AAAAAAAA2AAAAAAAAAAAAAAAAAA2AAAAAAAAA2AA242AAAAA2AAAAAAAAAAAAAAA
AAAAAAAA2AAAAAAAAAAAAAAAAAA2AAAAAAIAA2AA242AAAAA2AAAAAAAAAAAAAAA
AAAAAAAA2AAAAAAAAAAAAAAAAAA2AAAAAAIAA2AA242IAAAA2AAAAAAAAAAAAAAA
AAAAAAAA2AAAAAAAAAAAAAAAAAA2AAAAAAIAA2AA2222AAAA2AAAAAAAAAAAAAAA
AAAAAAAA2AAAAAAAAAAAAAAAAAA2AAAAAAIAA2AA2222AAAA2AAAAAAAAAAAAIAA
AAAAAAAA2AAAAAAAAAAAAAAAAAA2AAAAAA4AA2AA2222AAAA2AAAAAAAAAAAAIAA
AAAAAAAAAAAAAAAAAAAAAAAAAAA2AAAAAA4AA2AA2222AAAA2AAAAAAAAAAAAIAA
AAAAAAAAAAAAAAAAAAAAAAAAAAAAAAAAAA4AA2AA2222AAAA2AAAAAAAAAAAAIAA
AAAAAAAAAAAAAAAAAAAAAAAAAAAAAAAAAA4AA2AA222AAAAA2AAAAAAAAAAAAIAA
AAAAAAAAAAAAAAAAAAAAAAAAAAAAAAAAAA4AA2AA222AAAAAAAAAAAAAAAAAAIAA
AAAAAAAAAAAAAAAAAAAAAAAAAAAAAAAAAA4AA2AA222AAAAAAAAAAAAAAAAAA2AA
AAAAAAAAAAAAAAAAAAAAAAAAAAAAAAAAAA4AA2AA222AAAAAAAAAAAAAAAAAAAAA
AAAAAAAAAAAAAAAAAAAAAAAAAAAAAAAAAA4AA2AA2A2AAAAAAAAAAAAAAAAAAAAA
AAAAAAAAAAAAAAAAAAAAAAAAAAAAAAAAAA2AA2AA2A2AAAAAAAAAAAAAAAAAAAAA
AAAAAAAAAAAAAAAAAAAAAAAAAAAAAAAAAAIAA2AA2A2AAAAAAAAAAAAAAAAAAAAA
AAAAAAAAAAAAAAAAAAAAAAAAAAAAAAAAIAIAA2AA2A2AAAAAAAAAAAAAAAAAAAAA
AAAAAAAAAAAAAAAAAAAAAAAAAAAAAAAAIAIAA2AAAA2AAAAAAAAAAAAAAAAAAAAA
AAAAAAAAAAAAAAAAAAAAAAAAAAAAAAAAAA2AA2AAAA2AAAAAAAAAAAAAAAAAAAAA
AAAAAAAIAAAAAAAAAAAAAAAAAAAAAAAAAA2AA2AAAA2AAAAAAAAAAAAAAAAAAAAA
AAAAAAA2AAAAAAAAAAAAAAAAAAAAAAAAAA2AA2AAAA2AAAAAAAAAAAAAAAAAAAAA
AAAAAAA2AAAAAAAAAAAAAAAIAAAAAAAAAA2AA2AAAA2AAAAAAAAAAAAAAAAAAAAA
AAAAAIA2AAAAAAAAAAAAAAAIAAAAAAAAAA2AA2AAAA2AAAAAAAAAAAAAAAAAAAAA
AAAAAIA2AAAAAAAAAAAAIAAIAAAAAAAAAA2AA2AAAA2AAAAAAAAAAAAAAAAAAAAA
AAAAAIA2AAAAAAAAAAAAIAAAAAAAAAAAAA2AA2AAAA2AAAAAAAAAAAAAAAAAAAAA
AAAAA2A2AAAAAAAAAAAAIAAAAAAAAAAAAA2AA2AAAA2AAAAAAAAAAAAAAAAAAAAA
AAAAAAA2AAAAAAAAAAAA4AAAAAAAAAAAAA2AA2AAAA2AAAAAAAAAAAAAAAAAAAAA
AAAAAAAAAAAAAAAAAAAA4AAAAAAAAAAAAA2AA2AAAA2AAAAAAAAAAAAAAAAAAAAA
AAAAAAAAAAAAAAAAAAAA4AAAAAAAAAAAAA2AA2AAAA2AAAAAAAAAAAAAAAAAAIAA
AAAAAAAAAAAAAAAAAAAA4AAAAAAAAAAAAA2AA2AAAA2AAAAAAAAAAAAAAAAAA2AA
AAAAAAAAAAAAAAAAAAAA4AAAAAAAAAAAAA2AA2AAAA2AAAAAAAAAAAAAAAIAA2AA
AAAAAAAAAAAAAAAAAAAA2AAAAAAAAAAAAA2AA2AAAA2AAAAAAAAAAAAAAAIAA2AA
AAAAAAAAAAAAAAAAAAAA2AAAAAAAAAAAAA2AA2AAAA2AAAAAAAAAAAAAAA4AA2AA
AAAAAAAAAAAAAAAAAAAA2AAAAAAAAAAAAA2AA2AAAA2AAAAAAAAAAAAAAA2AA2AA
AAAAAAAAAAAAAAAAAAAA2AAAAAAAAAAAAA2AA2AAAA2AAAAAAAAAAAAAAAAAA2AA
AAAAAAAAAAAAAAAAAAAA2AAAAAAAAAAAAA2AA2AAAA2AAAAAAAAAAAAAAAAAAAAA
AAAAAAAAAAAAAAAAAAAA2AAAAAAAAAAIAA2AA2AAAA2AAAAAAAAAAAAAAAAAAAAA
[MLOP] Prefetch Degree Mean: 10.56637
[MLOP] Prefetch Degree SD: 2.31354
[MLOP] Max Score Left Mean (%): 57.21856
[MLOP] Max Score Left SD (%): 9.20496
[MLOP] Max Score Right Mean (%): 85.07222
[MLOP] Max Score Right SD (%): 10.88463

Channel_0_RQ_row_buffer_hit 211849
Channel_0_RQ_row_buffer_miss 916242
Channel_0_WQ_row_buffer_hit 73328
Channel_0_WQ_row_buffer_miss 115300
Channel_0_WQ_full 0
Channel_0_dbus_congested 245246

avg_congested_cycle 9

DRAM_bw_pochs 1118624
DRAM_bw_level_0 1075140
DRAM_bw_level_1 39380
DRAM_bw_level_2 3611
DRAM_bw_level_3 493
