*************************************************
   ChampSim Multicore Out-of-Order Simulator
   Last compiled: Apr  3 2025 20:54:34
*************************************************
parsing config file: /home/zir/Pythia/config/pythia.ini

trace_0 /home/zir/ChampSim/ML-DPC/ChampSimTraces/gap/sssp-3.trace.gz
adding L2C_PREFETCHER: Scooby
Initialize SHIP state
warmup_instructions 10000000
simulation_instructions 50000000
champsim_seed 51
measure_ipc 0
measure_ipc_epoch 1000
measure_dram_bw 1
measure_dram_bw_epoch 256
measure_cache_acc 1
measure_cache_acc_epoch 1024
l1d_perfect 0
l2c_perfect 0
llc_perfect 0
l1d_semi_perfect 0
l2c_semi_perfect 0
llc_semi_perfect 0
semi_perfect_cache_page_buffer_size 64

num_cpus 1
cpu_freq 4000
dram_io_freq 2400
page_size 4096
block_size 64
max_read_per_cycle 8
max_fill_per_cycle 1
dram_channels 1
log2_dram_channels 0
dram_ranks 1
dram_banks 8
dram_rows 65536
dram_columns 128
dram_row_size 8
dram_size 4096
dram_pages 1048576

fetch_width 6
decode_width 6
exec_width 4
lq_width 2
sq_width 2
retire_width 4
scheduler_size 128
branch_mispredict_penalty 20
rob_size 256
lq_size 72
sq_size 56
num_instr_destinations_sparc 4
num_instr_destinations 2
num_instr_sources 4

itlb_set 16
itlb_way 8
itlb_rq_size 16
itlb_wq_size 16
itlb_pq_size 0
itlb_mshr_size 8
itlb_latency 1

dtlb_set 16
dtlb_way 4
dtlb_rq_size 16
dtlb_wq_size 16
dtlb_pq_size 0
dtlb_mshr_size 8
dtlb_latency 1

stlb_set 128
stlb_way 12
stlb_rq_size 32
stlb_wq_size 32
stlb_pq_size 0
stlb_mshr_size 16
stlb_latency 8

l1i_size 32
l1i_set 64
l1i_way 8
l1i_rq_size 64
l1i_wq_size 64
l1i_pq_size 8
l1i_mshr_size 8
l1i_latency 1

l1d_size 32
l1d_set 64
l1d_way 8
l1d_rq_size 64
l1d_wq_size 64
l1d_pq_size 8
l1d_mshr_size 16
l1d_latency 4

l2c_size 256
l2c_set 512
l2c_way 8
l2c_rq_size 32
l2c_wq_size 32
l2c_pq_size 32
l2c_mshr_size 32
l2c_latency 10

llc_size 2048
llc_set 2048
llc_way 16
llc_rq_size 32
llc_wq_size 32
llc_pq_size 32
llc_mshr_size 64
llc_latency 20

dram_channel_width 8
dram_wq_size 64
dram_rq_size 64
tRP 15
tRCD 15
tCAS 12.5
dram_dbus_turn_around_time 30
dram_write_high_wm 56
dram_write_low_wm 48
min_dram_writes_per_switch 16
dram_mtps 2400
dram_dbus_return_time 13

scooby_alpha 0.0065088
scooby_gamma 0.556301
scooby_epsilon 0.00182284
scooby_state_num_bits 10
scooby_max_states 1024
scooby_seed 200
scooby_policy EGreedy
scooby_learning_type SARSA
scooby_actions 1,3,4,5,10,11,12,22,23,30,32,-1,-3,-6,0,
scooby_max_actions 15
scooby_pt_size 256
scooby_st_size 64
scooby_max_pcs 5
scooby_max_offsets 5
scooby_max_deltas 5
scooby_reward_none -4
scooby_reward_incorrect -8
scooby_reward_correct_untimely 12
scooby_reward_correct_timely 20
scooby_brain_zero_init 0
scooby_enable_reward_all 0
scooby_enable_track_multiple 0
scooby_enable_reward_out_of_bounds 1
scooby_reward_out_of_bounds -12
scooby_state_type 1
scooby_state_hash_type 11
scooby_access_debug 0
scooby_print_access_debug 0
scooby_print_access_debug_pc deadbeef
scooby_print_access_debug_pc_count 0
scooby_print_trace 0
scooby_enable_state_action_stats 1
scooby_enable_reward_tracker_hit 0
scooby_reward_tracker_hit -2
scooby_enable_featurewise_engine 1
scooby_pref_degree 1
scooby_enable_dyn_degree 1
scooby_max_to_avg_q_thresholds 0.5,1,2,
scooby_dyn_degrees 1,2,4,4,
scooby_multi_deg_select_type 2
scooby_last_pref_offset_conf_thresholds 1,3,8,
scooby_dyn_degrees_type2 1,2,4,6,
scooby_action_tracker_size 2
scooby_high_bw_thresh 4
scooby_enable_hbw_reward 1
scooby_reward_hbw_correct_timely 20
scooby_reward_hbw_correct_untimely 12
scooby_reward_hbw_incorrect -14
scooby_reward_hbw_none -2
scooby_reward_hbw_out_of_bounds -12
scooby_reward_hbw_tracker_hit -2
scooby_last_pref_offset_conf_thresholds_hbw 1,3,8,
scooby_dyn_degrees_type2_hbw 1,2,4,6,

le_enable_trace 0
le_trace_interval 0
le_trace_file_name 
le_trace_state 0
le_enable_score_plot 0
le_plot_file_name 
le_plot_actions 
le_enable_action_trace 0
le_action_trace_interval 0
le_action_trace_name 
le_enable_action_plot 0

le_featurewise_active_features PC, PC_Delta
le_featurewise_num_tilings 3,3,
le_featurewise_num_tiles 128,128,
le_featurewise_hash_types 2,2,
le_featurewise_enable_tiling_offset 1,1,
le_featurewise_max_q_thresh 0.5
le_featurewise_enable_action_fallback 1
le_featurewise_feature_weights 1,1,
le_featurewise_enable_dynamic_weight 0
le_featurewise_weight_gradient 0.001
le_featurewise_disable_adjust_weight_all_features_align 1
le_featurewise_selective_update 0
le_featurewise_pooling_type 2
le_featurewise_enable_dyn_action_fallback 1
le_featurewise_bw_acc_check_level 1
le_featurewise_acc_thresh 2
le_featurewise_enable_trace 0
le_featurewise_trace_feature_type 0
le_featurewise_trace_feature 
le_featurewise_trace_interval 0
le_featurewise_trace_record_count 0
le_featurewise_trace_file_name 
le_featurewise_enable_score_plot 0
le_featurewise_plot_actions 
le_featurewise_plot_file_name 


Heartbeat CPU  0 instructions:    1000003 cycles:     262536 heartbeat IPC: 3.80901 cumulative IPC: 3.80901 (Simulation time: 0 hr 0 min 1 sec) 
Heartbeat CPU  0 instructions:    2000000 cycles:     771391 heartbeat IPC: 1.96519 cumulative IPC: 2.59272 (Simulation time: 0 hr 0 min 2 sec) 
Heartbeat CPU  0 instructions:    3000000 cycles:    1338273 heartbeat IPC: 1.76404 cumulative IPC: 2.24170 (Simulation time: 0 hr 0 min 4 sec) 
Heartbeat CPU  0 instructions:    4000000 cycles:    1992250 heartbeat IPC: 1.52911 cumulative IPC: 2.00778 (Simulation time: 0 hr 0 min 5 sec) 
Heartbeat CPU  0 instructions:    5000003 cycles:    2788218 heartbeat IPC: 1.25634 cumulative IPC: 1.79326 (Simulation time: 0 hr 0 min 7 sec) 
Heartbeat CPU  0 instructions:    6000000 cycles:    3663433 heartbeat IPC: 1.14257 cumulative IPC: 1.63781 (Simulation time: 0 hr 0 min 9 sec) 
Heartbeat CPU  0 instructions:    7000002 cycles:    4546249 heartbeat IPC: 1.13274 cumulative IPC: 1.53973 (Simulation time: 0 hr 0 min 10 sec) 
Heartbeat CPU  0 instructions:    8000000 cycles:    5428892 heartbeat IPC: 1.13296 cumulative IPC: 1.47360 (Simulation time: 0 hr 0 min 12 sec) 
Heartbeat CPU  0 instructions:    9000000 cycles:    6304651 heartbeat IPC: 1.14187 cumulative IPC: 1.42752 (Simulation time: 0 hr 0 min 14 sec) 
Heartbeat CPU  0 instructions:   10000001 cycles:    7168688 heartbeat IPC: 1.15736 cumulative IPC: 1.39496 (Simulation time: 0 hr 0 min 15 sec) 

Warmup complete CPU  0 instructions:   10000001 cycles:    7168688 (Simulation time: 0 hr 0 min 15 sec) 

Heartbeat CPU  0 instructions:   11000000 cycles:   11091849 heartbeat IPC: 0.25490 cumulative IPC: 0.25490 (Simulation time: 0 hr 0 min 18 sec) 
Heartbeat CPU  0 instructions:   12000000 cycles:   14959987 heartbeat IPC: 0.25852 cumulative IPC: 0.25670 (Simulation time: 0 hr 0 min 20 sec) 
Heartbeat CPU  0 instructions:   13000001 cycles:   18752803 heartbeat IPC: 0.26366 cumulative IPC: 0.25898 (Simulation time: 0 hr 0 min 23 sec) 
Heartbeat CPU  0 instructions:   14000002 cycles:   22520716 heartbeat IPC: 0.26540 cumulative IPC: 0.26055 (Simulation time: 0 hr 0 min 25 sec) 
Heartbeat CPU  0 instructions:   15000001 cycles:   26215223 heartbeat IPC: 0.27067 cumulative IPC: 0.26251 (Simulation time: 0 hr 0 min 28 sec) 
Heartbeat CPU  0 instructions:   16000000 cycles:   29762252 heartbeat IPC: 0.28193 cumulative IPC: 0.26556 (Simulation time: 0 hr 0 min 30 sec) 
Heartbeat CPU  0 instructions:   17000002 cycles:   33194888 heartbeat IPC: 0.29132 cumulative IPC: 0.26896 (Simulation time: 0 hr 0 min 33 sec) 
Heartbeat CPU  0 instructions:   18000000 cycles:   36758201 heartbeat IPC: 0.28064 cumulative IPC: 0.27037 (Simulation time: 0 hr 0 min 35 sec) 
Heartbeat CPU  0 instructions:   19000000 cycles:   39996751 heartbeat IPC: 0.30878 cumulative IPC: 0.27416 (Simulation time: 0 hr 0 min 38 sec) 
Heartbeat CPU  0 instructions:   20000000 cycles:   43549894 heartbeat IPC: 0.28144 cumulative IPC: 0.27487 (Simulation time: 0 hr 0 min 40 sec) 
Heartbeat CPU  0 instructions:   21000000 cycles:   47001439 heartbeat IPC: 0.28973 cumulative IPC: 0.27615 (Simulation time: 0 hr 0 min 43 sec) 
Heartbeat CPU  0 instructions:   22000002 cycles:   50393999 heartbeat IPC: 0.29476 cumulative IPC: 0.27762 (Simulation time: 0 hr 0 min 45 sec) 
Heartbeat CPU  0 instructions:   23000000 cycles:   53728757 heartbeat IPC: 0.29987 cumulative IPC: 0.27921 (Simulation time: 0 hr 0 min 48 sec) 
Heartbeat CPU  0 instructions:   24000000 cycles:   57033468 heartbeat IPC: 0.30260 cumulative IPC: 0.28076 (Simulation time: 0 hr 0 min 50 sec) 
Heartbeat CPU  0 instructions:   25000002 cycles:   60345362 heartbeat IPC: 0.30194 cumulative IPC: 0.28208 (Simulation time: 0 hr 0 min 53 sec) 
Heartbeat CPU  0 instructions:   26000001 cycles:   63664010 heartbeat IPC: 0.30133 cumulative IPC: 0.28321 (Simulation time: 0 hr 0 min 55 sec) 
Heartbeat CPU  0 instructions:   27000003 cycles:   66947353 heartbeat IPC: 0.30457 cumulative IPC: 0.28438 (Simulation time: 0 hr 0 min 58 sec) 
Heartbeat CPU  0 instructions:   28000000 cycles:   70174465 heartbeat IPC: 0.30987 cumulative IPC: 0.28569 (Simulation time: 0 hr 1 min 0 sec) 
Heartbeat CPU  0 instructions:   29000000 cycles:   73359427 heartbeat IPC: 0.31398 cumulative IPC: 0.28705 (Simulation time: 0 hr 1 min 3 sec) 
Heartbeat CPU  0 instructions:   30000001 cycles:   76564426 heartbeat IPC: 0.31201 cumulative IPC: 0.28820 (Simulation time: 0 hr 1 min 5 sec) 
Heartbeat CPU  0 instructions:   31000003 cycles:   79740008 heartbeat IPC: 0.31490 cumulative IPC: 0.28937 (Simulation time: 0 hr 1 min 8 sec) 
Heartbeat CPU  0 instructions:   32000000 cycles:   82964020 heartbeat IPC: 0.31017 cumulative IPC: 0.29026 (Simulation time: 0 hr 1 min 10 sec) 
Heartbeat CPU  0 instructions:   33000002 cycles:   86122187 heartbeat IPC: 0.31664 cumulative IPC: 0.29131 (Simulation time: 0 hr 1 min 13 sec) 
Heartbeat CPU  0 instructions:   34000000 cycles:   89150097 heartbeat IPC: 0.33026 cumulative IPC: 0.29275 (Simulation time: 0 hr 1 min 15 sec) 
Heartbeat CPU  0 instructions:   35000000 cycles:   91926320 heartbeat IPC: 0.36020 cumulative IPC: 0.29496 (Simulation time: 0 hr 1 min 18 sec) 
Heartbeat CPU  0 instructions:   36000000 cycles:   95070396 heartbeat IPC: 0.31806 cumulative IPC: 0.29578 (Simulation time: 0 hr 1 min 20 sec) 
Heartbeat CPU  0 instructions:   37000000 cycles:   98192566 heartbeat IPC: 0.32029 cumulative IPC: 0.29663 (Simulation time: 0 hr 1 min 23 sec) 
Heartbeat CPU  0 instructions:   38000003 cycles:  101275069 heartbeat IPC: 0.32441 cumulative IPC: 0.29754 (Simulation time: 0 hr 1 min 25 sec) 
Heartbeat CPU  0 instructions:   39000002 cycles:  104176771 heartbeat IPC: 0.34462 cumulative IPC: 0.29894 (Simulation time: 0 hr 1 min 28 sec) 
Heartbeat CPU  0 instructions:   40000000 cycles:  106710425 heartbeat IPC: 0.39469 cumulative IPC: 0.30138 (Simulation time: 0 hr 1 min 30 sec) 
Heartbeat CPU  0 instructions:   41000000 cycles:  108990846 heartbeat IPC: 0.43852 cumulative IPC: 0.30445 (Simulation time: 0 hr 1 min 32 sec) 
Heartbeat CPU  0 instructions:   42000002 cycles:  111915556 heartbeat IPC: 0.34191 cumulative IPC: 0.30550 (Simulation time: 0 hr 1 min 35 sec) 
Heartbeat CPU  0 instructions:   43000001 cycles:  115030115 heartbeat IPC: 0.32107 cumulative IPC: 0.30595 (Simulation time: 0 hr 1 min 38 sec) 
Heartbeat CPU  0 instructions:   44000000 cycles:  118073603 heartbeat IPC: 0.32857 cumulative IPC: 0.30657 (Simulation time: 0 hr 1 min 40 sec) 
Heartbeat CPU  0 instructions:   45000001 cycles:  121060722 heartbeat IPC: 0.33477 cumulative IPC: 0.30731 (Simulation time: 0 hr 1 min 43 sec) 
Heartbeat CPU  0 instructions:   46000002 cycles:  123930381 heartbeat IPC: 0.34847 cumulative IPC: 0.30832 (Simulation time: 0 hr 1 min 45 sec) 
Heartbeat CPU  0 instructions:   47000002 cycles:  126878759 heartbeat IPC: 0.33917 cumulative IPC: 0.30908 (Simulation time: 0 hr 1 min 48 sec) 
Heartbeat CPU  0 instructions:   48000000 cycles:  129729994 heartbeat IPC: 0.35072 cumulative IPC: 0.31005 (Simulation time: 0 hr 1 min 50 sec) 
Heartbeat CPU  0 instructions:   49000000 cycles:  132724164 heartbeat IPC: 0.33398 cumulative IPC: 0.31062 (Simulation time: 0 hr 1 min 53 sec) 
Heartbeat CPU  0 instructions:   50000001 cycles:  135655467 heartbeat IPC: 0.34115 cumulative IPC: 0.31132 (Simulation time: 0 hr 1 min 56 sec) 
Heartbeat CPU  0 instructions:   51000002 cycles:  138601128 heartbeat IPC: 0.33948 cumulative IPC: 0.31195 (Simulation time: 0 hr 1 min 58 sec) 
Heartbeat CPU  0 instructions:   52000000 cycles:  141467150 heartbeat IPC: 0.34891 cumulative IPC: 0.31274 (Simulation time: 0 hr 2 min 1 sec) 
Heartbeat CPU  0 instructions:   53000002 cycles:  144399394 heartbeat IPC: 0.34104 cumulative IPC: 0.31334 (Simulation time: 0 hr 2 min 3 sec) 
Heartbeat CPU  0 instructions:   54000003 cycles:  147176423 heartbeat IPC: 0.36010 cumulative IPC: 0.31427 (Simulation time: 0 hr 2 min 6 sec) 
Heartbeat CPU  0 instructions:   55000000 cycles:  150117038 heartbeat IPC: 0.34006 cumulative IPC: 0.31480 (Simulation time: 0 hr 2 min 8 sec) 
Heartbeat CPU  0 instructions:   56000000 cycles:  153047663 heartbeat IPC: 0.34122 cumulative IPC: 0.31533 (Simulation time: 0 hr 2 min 11 sec) 
Heartbeat CPU  0 instructions:   57000003 cycles:  155927034 heartbeat IPC: 0.34730 cumulative IPC: 0.31595 (Simulation time: 0 hr 2 min 14 sec) 
Heartbeat CPU  0 instructions:   58000000 cycles:  158669180 heartbeat IPC: 0.36468 cumulative IPC: 0.31683 (Simulation time: 0 hr 2 min 16 sec) 
Heartbeat CPU  0 instructions:   59000001 cycles:  161533032 heartbeat IPC: 0.34918 cumulative IPC: 0.31743 (Simulation time: 0 hr 2 min 19 sec) 
Heartbeat CPU  0 instructions:   60000000 cycles:  164402069 heartbeat IPC: 0.34855 cumulative IPC: 0.31800 (Simulation time: 0 hr 2 min 21 sec) 
Finished CPU 0 instructions: 50000003 cycles: 157233389 cumulative IPC: 0.31800 (Simulation time: 0 hr 2 min 21 sec) 

ChampSim completed all CPUs

[ROI Statistics]
Core_0_instructions 50000003
Core_0_cycles 157233389
Core_0_IPC 0.31800

Core_0_branch_prediction_accuracy 94.04406
Core_0_branch_MPKI 8.75888
Core_0_average_ROB_occupancy_at_mispredict 103.16727

Core_0_L1D_total_access 13552021
Core_0_L1D_total_hit 10966724
Core_0_L1D_total_miss 2585297
Core_0_L1D_loads 12205234
Core_0_L1D_load_hit 9907947
Core_0_L1D_load_miss 2297287
Core_0_L1D_RFOs 1346787
Core_0_L1D_RFO_hit 1058777
Core_0_L1D_RFO_miss 288010
Core_0_L1D_prefetches 0
Core_0_L1D_prefetch_hit 0
Core_0_L1D_prefetch_miss 0
Core_0_L1D_writebacks 0
Core_0_L1D_writeback_hit 0
Core_0_L1D_writeback_miss 0
Core_0_L1D_prefetch_requested 0
Core_0_L1D_prefetch_dropped 0
Core_0_L1D_prefetch_issued 0
Core_0_L1D_prefetch_filled 0
Core_0_L1D_prefetch_useful 0
Core_0_L1D_prefetch_useless 0
Core_0_L1D_prefetch_late 0
Core_0_L1D_average_miss_latency 81.77315

Core_0_L1D_rq_access 17862980
Core_0_L1D_rq_forward 0
Core_0_L1D_rq_merged 5498345
Core_0_L1D_rq_to_cache 12364631
Core_0_L1D_rq_full 0

Core_0_L1D_wq_access 1463393
Core_0_L1D_wq_forward 4
Core_0_L1D_wq_merged 962
Core_0_L1D_wq_to_cache 1462431
Core_0_L1D_wq_full 0

Core_0_L1D_pq_access 0
Core_0_L1D_pq_forward 0
Core_0_L1D_pq_merged 0
Core_0_L1D_pq_to_cache 0
Core_0_L1D_pq_full 0

Core_0_L1D_acc_epochs 159563
Core_0_L1D_acc_level_0 159563
Core_0_L1D_acc_level_1 0
Core_0_L1D_acc_level_2 0
Core_0_L1D_acc_level_3 0
Core_0_L1D_acc_level_4 0
Core_0_L1D_acc_level_5 0
Core_0_L1D_acc_level_6 0
Core_0_L1D_acc_level_7 0
Core_0_L1D_acc_level_8 0
Core_0_L1D_acc_level_9 0

Core_0_L1I_total_access 7322434
Core_0_L1I_total_hit 7322433
Core_0_L1I_total_miss 1
Core_0_L1I_loads 7322434
Core_0_L1I_load_hit 7322433
Core_0_L1I_load_miss 1
Core_0_L1I_RFOs 0
Core_0_L1I_RFO_hit 0
Core_0_L1I_RFO_miss 0
Core_0_L1I_prefetches 0
Core_0_L1I_prefetch_hit 0
Core_0_L1I_prefetch_miss 0
Core_0_L1I_writebacks 0
Core_0_L1I_writeback_hit 0
Core_0_L1I_writeback_miss 0
Core_0_L1I_prefetch_requested 0
Core_0_L1I_prefetch_dropped 0
Core_0_L1I_prefetch_issued 0
Core_0_L1I_prefetch_filled 0
Core_0_L1I_prefetch_useful 0
Core_0_L1I_prefetch_useless 0
Core_0_L1I_prefetch_late 0
Core_0_L1I_average_miss_latency 231.00000

Core_0_L1I_rq_access 50000119
Core_0_L1I_rq_forward 0
Core_0_L1I_rq_merged 42677685
Core_0_L1I_rq_to_cache 7322434
Core_0_L1I_rq_full 0

Core_0_L1I_wq_access 0
Core_0_L1I_wq_forward 0
Core_0_L1I_wq_merged 0
Core_0_L1I_wq_to_cache 0
Core_0_L1I_wq_full 0

Core_0_L1I_pq_access 0
Core_0_L1I_pq_forward 0
Core_0_L1I_pq_merged 0
Core_0_L1I_pq_to_cache 0
Core_0_L1I_pq_full 0

Core_0_L1I_acc_epochs 159563
Core_0_L1I_acc_level_0 159563
Core_0_L1I_acc_level_1 0
Core_0_L1I_acc_level_2 0
Core_0_L1I_acc_level_3 0
Core_0_L1I_acc_level_4 0
Core_0_L1I_acc_level_5 0
Core_0_L1I_acc_level_6 0
Core_0_L1I_acc_level_7 0
Core_0_L1I_acc_level_8 0
Core_0_L1I_acc_level_9 0

Core_0_L2C_total_access 7017901
Core_0_L2C_total_hit 3087045
Core_0_L2C_total_miss 3930856
Core_0_L2C_loads 2297274
Core_0_L2C_load_hit 607619
Core_0_L2C_load_miss 1689655
Core_0_L2C_RFOs 287974
Core_0_L2C_RFO_hit 157614
Core_0_L2C_RFO_miss 130360
Core_0_L2C_prefetches 3608112
Core_0_L2C_prefetch_hit 1501792
Core_0_L2C_prefetch_miss 2106320
Core_0_L2C_writebacks 824541
Core_0_L2C_writeback_hit 820020
Core_0_L2C_writeback_miss 4521
Core_0_L2C_prefetch_requested 4909570
Core_0_L2C_prefetch_dropped 0
Core_0_L2C_prefetch_issued 4909570
Core_0_L2C_prefetch_filled 2431572
Core_0_L2C_prefetch_useful 485304
Core_0_L2C_prefetch_useless 1944153
Core_0_L2C_prefetch_late 65046
Core_0_L2C_average_miss_latency 113.49824

Core_0_L2C_rq_access 2585297
Core_0_L2C_rq_forward 0
Core_0_L2C_rq_merged 0
Core_0_L2C_rq_to_cache 2585247
Core_0_L2C_rq_full 0

Core_0_L2C_wq_access 824541
Core_0_L2C_wq_forward 70
Core_0_L2C_wq_merged 0
Core_0_L2C_wq_to_cache 824541
Core_0_L2C_wq_full 0

Core_0_L2C_pq_access 4909570
Core_0_L2C_pq_forward 0
Core_0_L2C_pq_merged 428840
Core_0_L2C_pq_to_cache 4480710
Core_0_L2C_pq_full 0

Core_0_L2C_acc_epochs 159563
Core_0_L2C_acc_level_0 6910
Core_0_L2C_acc_level_1 92255
Core_0_L2C_acc_level_2 41304
Core_0_L2C_acc_level_3 10779
Core_0_L2C_acc_level_4 2699
Core_0_L2C_acc_level_5 1789
Core_0_L2C_acc_level_6 1668
Core_0_L2C_acc_level_7 917
Core_0_L2C_acc_level_8 520
Core_0_L2C_acc_level_9 722

Core_0_LLC_total_access 4493255
Core_0_LLC_total_hit 2598941
Core_0_LLC_total_miss 1894314
Core_0_LLC_loads 1625775
Core_0_LLC_load_hit 1054210
Core_0_LLC_load_miss 571565
Core_0_LLC_RFOs 130359
Core_0_LLC_RFO_hit 69608
Core_0_LLC_RFO_miss 60751
Core_0_LLC_prefetches 2170199
Core_0_LLC_prefetch_hit 973157
Core_0_LLC_prefetch_miss 1197042
Core_0_LLC_writebacks 566922
Core_0_LLC_writeback_hit 501966
Core_0_LLC_writeback_miss 64956
Core_0_LLC_prefetch_requested 0
Core_0_LLC_prefetch_dropped 0
Core_0_LLC_prefetch_issued 0
Core_0_LLC_prefetch_filled 1363547
Core_0_LLC_prefetch_useful 102853
Core_0_LLC_prefetch_useless 1249668
Core_0_LLC_prefetch_late 0
Core_0_LLC_average_miss_latency 176.67576

Core_0_LLC_rq_access 1756134
Core_0_LLC_rq_forward 0
Core_0_LLC_rq_merged 0
Core_0_LLC_rq_to_cache 1756133
Core_0_LLC_rq_full 0

Core_0_LLC_wq_access 566922
Core_0_LLC_wq_forward 2
Core_0_LLC_wq_merged 0
Core_0_LLC_wq_to_cache 566922
Core_0_LLC_wq_full 0

Core_0_LLC_pq_access 2496621
Core_0_LLC_pq_forward 0
Core_0_LLC_pq_merged 0
Core_0_LLC_pq_to_cache 2496620
Core_0_LLC_pq_full 0

Core_0_LLC_acc_epochs 160549
Core_0_LLC_acc_level_0 95552
Core_0_LLC_acc_level_1 39729
Core_0_LLC_acc_level_2 15870
Core_0_LLC_acc_level_3 5629
Core_0_LLC_acc_level_4 1482
Core_0_LLC_acc_level_5 1444
Core_0_LLC_acc_level_6 360
Core_0_LLC_acc_level_7 156
Core_0_LLC_acc_level_8 93
Core_0_LLC_acc_level_9 234

Core_0_major_page_fault 0
Core_0_minor_page_fault 8963

scooby_st_lookup 2608084
scooby_st_hit 1899825
scooby_st_evict 708195
scooby_st_insert 708259
scooby_st_streaming 0

scooby_predict_called 2608084
scooby_predict_out_of_bounds 65506
scooby_predict_action_1 1912598
scooby_predict_issue_action_1 1906194
scooby_predict_hit_action_1 6404
scooby_predict_out_of_bounds_action_1 29372
scooby_predict_action_3 17055
scooby_predict_issue_action_3 15931
scooby_predict_hit_action_3 1124
scooby_predict_out_of_bounds_action_3 1034
scooby_predict_action_4 14629
scooby_predict_issue_action_4 13811
scooby_predict_hit_action_4 818
scooby_predict_out_of_bounds_action_4 1368
scooby_predict_action_5 13943
scooby_predict_issue_action_5 13077
scooby_predict_hit_action_5 866
scooby_predict_out_of_bounds_action_5 1578
scooby_predict_action_10 10407
scooby_predict_issue_action_10 9788
scooby_predict_hit_action_10 619
scooby_predict_out_of_bounds_action_10 2925
scooby_predict_action_11 9780
scooby_predict_issue_action_11 9168
scooby_predict_hit_action_11 612
scooby_predict_out_of_bounds_action_11 3084
scooby_predict_action_12 9158
scooby_predict_issue_action_12 8646
scooby_predict_hit_action_12 512
scooby_predict_out_of_bounds_action_12 3217
scooby_predict_action_22 5634
scooby_predict_issue_action_22 5321
scooby_predict_hit_action_22 313
scooby_predict_out_of_bounds_action_22 4661
scooby_predict_action_23 5389
scooby_predict_issue_action_23 5075
scooby_predict_hit_action_23 314
scooby_predict_out_of_bounds_action_23 4675
scooby_predict_action_30 3765
scooby_predict_issue_action_30 3592
scooby_predict_hit_action_30 173
scooby_predict_out_of_bounds_action_30 5413
scooby_predict_action_32 4121
scooby_predict_issue_action_32 3924
scooby_predict_hit_action_32 197
scooby_predict_out_of_bounds_action_32 5586
scooby_predict_action_-1 69848
scooby_predict_issue_action_-1 66723
scooby_predict_hit_action_-1 3125
scooby_predict_out_of_bounds_action_-1 762
scooby_predict_action_-3 35126
scooby_predict_issue_action_-3 30696
scooby_predict_hit_action_-3 4430
scooby_predict_out_of_bounds_action_-3 1064
scooby_predict_action_-6 13530
scooby_predict_issue_action_-6 12575
scooby_predict_hit_action_-6 955
scooby_predict_out_of_bounds_action_-6 767
scooby_predict_action_0 417595
scooby_predict_issue_action_0 0
scooby_predict_hit_action_0 0
scooby_predict_out_of_bounds_action_0 0
scooby_predict_multi_deg_called 850733
scooby_predict_predicted 4909570
scooby_predict_multi_deg 2805049
scooby_predict_multi_deg_2 831572
scooby_predict_multi_deg_3 607238
scooby_predict_multi_deg_4 593291
scooby_predict_multi_deg_5 391395
scooby_predict_multi_deg_6 381553
scooby_predict_multi_deg_7 0
scooby_predict_multi_deg_8 0
scooby_predict_multi_deg_9 0
scooby_predict_multi_deg_10 0
scooby_predict_multi_deg_11 0
scooby_predict_multi_deg_12 0
scooby_predict_multi_deg_13 0
scooby_predict_multi_deg_14 0
scooby_predict_multi_deg_15 0
scooby_predict_multi_deg_16 0

scooby_selected_deg_1 1253788
scooby_selected_deg_2 214335
scooby_selected_deg_3 0
scooby_selected_deg_4 204198
scooby_selected_deg_5 0
scooby_selected_deg_6 432200
scooby_selected_deg_7 0
scooby_selected_deg_8 0
scooby_selected_deg_9 0
scooby_selected_deg_10 0
scooby_selected_deg_11 0
scooby_selected_deg_12 0
scooby_selected_deg_13 0
scooby_selected_deg_14 0
scooby_selected_deg_15 0
scooby_selected_deg_16 0

scooby_state_559889cb1226|0|0 24119,13,18,22,42,9,23,22,16,17,44,11,8,8,7740,32112,
scooby_state_559889cb1226|1|0 23288,18,24,23,30,17,16,23,15,17,29,12,13,14,7726,31265,
scooby_state_559889cb1226|2|0 20753,16,22,23,31,13,25,16,11,10,29,14,14,10,7061,28048,
scooby_state_559889cb1226|3|0 17963,14,23,11,38,11,11,20,11,13,29,11,14,13,6212,24394,
scooby_state_559889cb1226|4|0 17848,12,16,15,17,15,6,20,13,11,21,13,12,15,6101,24135,
scooby_state_559889cb1226|5|0 14749,14,13,13,14,8,12,17,9,8,19,9,9,10,5007,19911,
scooby_state_559889cb1226|6|0 14780,12,16,18,19,12,11,15,14,7,14,10,10,9,4884,19831,
scooby_state_559889cb1226|7|0 13832,10,18,11,19,6,13,13,12,12,20,8,13,7,4634,18628,
scooby_state_559889cb1226|8|0 13313,17,11,14,18,14,11,9,7,8,11,8,5,10,4534,17990,
scooby_state_559889cb1226|10|0 13132,18,10,12,14,10,5,12,5,4,9,13,6,10,4184,17444,
scooby_state_559889cb1226|9|0 12462,10,12,17,14,6,12,15,11,8,12,10,11,3,4113,16716,
scooby_state_559889cb1226|12|0 12353,6,8,8,13,12,12,9,7,5,11,3,9,5,3895,16356,
scooby_state_559889cb1226|11|0 12104,13,10,6,10,10,16,14,13,7,10,10,8,7,3895,16133,
scooby_state_559889cb1226|13|0 11210,7,5,6,7,11,10,10,8,9,13,7,5,12,3454,14774,
scooby_state_559889cb1226|14|0 10520,9,8,5,11,6,8,4,8,6,4,7,1,4,3188,13789,
scooby_state_559889cb1226|15|0 10078,15,10,8,8,4,9,7,5,4,4,1,4,6,3048,13211,
scooby_state_559889cb1226|16|0 9685,10,8,7,9,5,4,5,1,8,9,3,3,3,3038,12798,
scooby_state_559889cb1226|18|0 9577,2,9,9,4,7,13,6,9,9,2,5,3,7,2786,12448,
scooby_state_559889cb1226|21|0 8677,9,9,5,5,7,6,5,4,3,6,4,4,3,2477,11224,
scooby_state_559889cb1226|20|0 8579,6,10,12,5,1,10,8,6,7,3,3,3,3,2417,11073,
scooby_state_559889cb1226|19|0 8422,7,8,8,5,8,3,10,5,4,3,8,5,2,2521,11019,
scooby_state_559889cb1226|17|0 8359,6,4,6,2,9,9,6,4,2,9,4,6,6,2551,10983,
scooby_state_559889cb1226|22|0 7995,9,9,6,8,5,9,5,3,6,1,3,5,3,2264,10331,
scooby_state_559889cb1226|24|0 7753,9,4,7,2,4,7,3,6,4,5,4,3,4,2100,9915,
scooby_state_559889cb1226|26|0 7585,7,7,4,5,4,10,8,6,5,7,2,5,5,2219,9879,
scooby_state_559889cb1226|36|0 7623,9,5,7,5,1,6,3,3,4,4,2,7,1,1941,9621,
scooby_state_559889cb1226|23|0 7181,4,7,5,11,4,4,2,4,4,3,2,5,4,2039,9279,
scooby_state_559889cb1226|25|0 6991,6,5,4,3,6,5,5,4,1,3,2,4,1,1956,8996,
scooby_state_559889cb1226|27|0 6901,7,3,6,3,5,3,4,8,1,1,2,3,5,1856,8808,
scooby_state_559889cb1226|28|0 6571,4,1,6,3,3,2,7,7,4,4,1,3,3,1775,8394,
scooby_state_559889cb1226|31|0 6561,8,6,4,3,2,10,5,4,4,4,0,1,7,1750,8369,
scooby_state_559889cb1226|32|0 6492,4,3,3,3,4,3,4,6,3,4,2,4,7,1674,8216,
scooby_state_559889cb1226|29|0 6467,3,3,7,4,4,3,4,1,3,2,5,4,2,1701,8213,
scooby_state_559889cb1226|30|0 6347,8,3,3,1,5,2,5,4,3,3,2,4,2,1780,8172,
scooby_state_559889cb1226|37|0 6480,5,2,7,0,3,0,5,2,4,5,4,4,2,1600,8123,
scooby_state_559889cb1226|34|0 5788,0,5,3,2,3,3,4,6,2,2,3,4,3,1516,7344,
scooby_state_559889cb1226|33|0 5615,4,8,2,0,3,1,2,3,5,6,3,2,3,1509,7166,
scooby_state_559889cb1226|40|0 5639,2,2,4,3,3,4,3,0,5,0,0,2,5,1337,7009,
scooby_state_559889cb1226|42|0 5562,4,4,7,4,3,1,1,3,3,2,1,2,4,1387,6988,
scooby_state_559889cb1226|48|0 5477,4,1,4,3,3,2,3,3,2,2,3,5,4,1338,6854,
scooby_state_559889cb1226|39|0 5466,8,3,1,5,4,6,4,5,3,4,3,4,4,1313,6833,
scooby_state_559889cb1226|38|0 5270,3,5,5,4,7,0,4,3,5,1,4,2,4,1374,6691,
scooby_state_559889cb1226|41|0 5333,7,2,2,0,2,2,7,3,1,3,2,4,4,1295,6667,
scooby_state_559889cb1226|35|0 5203,6,4,4,4,2,5,2,3,4,2,1,1,2,1362,6605,
scooby_state_559889cb1226|45|0 5191,4,2,5,4,4,4,3,1,3,1,1,2,2,1285,6512,
scooby_state_559889cb1226|47|0 4867,4,1,4,3,3,4,0,4,1,1,2,3,3,1193,6093,
scooby_state_559889cb1226|43|0 4782,3,4,1,5,1,2,3,5,1,2,3,1,4,1249,6066,
scooby_state_559889cb1226|46|0 4820,5,7,1,2,2,2,1,2,2,4,2,2,6,1165,6023,
scooby_state_559889cb1226|55|0 4662,5,5,1,1,4,4,4,3,3,1,1,2,1,1046,5743,
scooby_state_559889cb1226|44|0 4535,2,2,6,4,4,5,1,2,2,2,1,2,2,1125,5695,
scooby_state_559889cb1226|54|0 4572,2,4,4,4,3,2,6,1,6,2,2,2,4,1077,5691,
scooby_state_559889cb1226|49|0 4424,3,2,4,1,6,1,1,2,3,1,3,0,3,1083,5537,
scooby_state_559889cb1226|50|0 4406,4,2,1,2,4,3,3,1,3,2,4,1,2,1094,5532,
scooby_state_559889cb1226|53|0 4435,5,0,3,2,2,2,1,2,2,0,5,0,3,1031,5493,
scooby_state_559889cb1226|51|0 4330,2,2,2,0,1,3,1,4,3,3,2,6,1,1059,5419,
scooby_state_559889cb1226|52|0 4074,4,1,6,3,2,4,1,2,2,3,3,0,3,991,5099,
scooby_state_559889cb1226|56|0 4084,2,4,3,3,3,1,0,0,2,3,1,1,0,963,5070,
scooby_state_559889cb1226|57|0 3932,5,2,4,1,2,2,1,2,2,4,1,2,0,895,4855,
scooby_state_559889cb1226|60|0 3904,0,2,5,1,2,0,2,4,1,0,0,0,1,912,4834,
scooby_state_559889cb1226|61|0 3916,1,3,5,3,1,1,1,1,1,1,0,3,3,886,4826,
scooby_state_559889cb1226|62|0 3825,2,4,2,2,5,2,1,3,1,1,3,1,3,900,4755,
scooby_state_559889cb1226|59|0 3803,1,6,0,2,2,0,2,0,2,3,1,2,1,887,4712,
scooby_state_559889cb1226|58|0 3650,3,1,6,0,3,2,1,4,1,1,0,2,1,865,4540,
scooby_state_559889cb1226|63|0 3634,3,1,2,3,0,3,1,2,4,2,1,2,1,826,4485,
scooby_state_559889cb1200|0|0 4389,2,0,1,0,0,1,0,0,0,0,0,0,0,1,4394,
scooby_state_559889cb1200|28|1 4382,1,0,0,1,0,0,0,0,0,1,0,1,0,0,4386,
scooby_state_559889cb1200|27|1 4375,2,0,1,1,0,1,1,2,0,0,0,0,2,0,4385,
scooby_state_559889cb1200|4|1 4372,2,0,0,1,0,2,1,0,1,0,1,0,1,1,4382,
scooby_state_559889cb1200|51|1 4376,0,0,0,2,0,0,0,1,0,0,0,0,0,1,4380,
scooby_state_559889cb1200|3|1 4369,1,1,0,1,0,2,2,0,0,1,0,0,1,0,4378,
scooby_state_559889cb1200|30|1 4369,0,1,1,1,1,0,1,0,1,0,1,0,1,0,4377,
scooby_state_559889cb1200|5|1 4369,0,1,0,0,1,1,0,1,1,2,0,0,0,1,4377,
scooby_state_559889cb1200|6|1 4373,0,1,0,1,0,0,0,1,0,0,0,1,0,0,4377,
scooby_state_559889cb1200|2|1 4369,0,2,0,1,0,0,0,0,0,1,0,1,0,2,4376,
scooby_state_559889cb1200|44|1 4373,0,0,0,0,1,0,0,0,0,0,0,0,0,1,4375,
scooby_state_559889cb1200|50|1 4370,0,1,1,0,0,0,0,1,0,1,0,1,0,0,4375,
scooby_state_559889cb1200|29|1 4362,1,1,1,2,0,0,1,0,0,2,1,0,1,2,4374,
scooby_state_559889cb1200|37|1 4372,0,0,0,0,0,0,0,0,0,0,0,1,0,1,4374,
scooby_state_559889cb1200|61|1 4366,0,0,0,1,0,1,0,1,1,3,0,1,0,0,4374,
scooby_state_559889cb1200|26|1 4364,0,0,0,3,1,1,0,1,0,0,2,2,0,0,4374,
scooby_state_559889cb1200|31|1 4365,1,0,1,1,2,0,1,0,0,1,0,0,0,1,4373,
scooby_state_559889cb1200|52|1 4367,0,2,0,0,1,0,0,0,1,0,1,1,0,0,4373,
scooby_state_559889cb1200|1|1 4360,0,2,1,0,1,1,3,2,1,0,0,1,0,0,4372,
scooby_state_559889cb1200|40|1 4363,0,0,1,1,1,1,0,0,0,1,1,1,1,1,4372,
scooby_state_559889cb1200|32|1 4368,2,0,0,0,0,0,0,0,0,0,1,0,1,0,4372,
scooby_state_559889cb1200|49|1 4364,1,0,1,2,0,0,0,0,2,0,0,2,0,0,4372,
scooby_state_559889cb1200|36|1 4364,1,0,2,1,0,0,1,2,0,0,0,0,0,0,4371,
scooby_state_559889cb1200|43|1 4367,0,0,0,0,1,1,0,0,0,0,1,1,0,0,4371,
scooby_state_559889cb1200|45|1 4364,0,0,0,0,3,0,1,0,1,1,0,0,1,0,4371,
scooby_state_559889cb1200|23|1 4361,1,1,1,0,0,1,0,0,2,1,1,0,1,0,4370,
scooby_state_559889cb1200|48|1 4362,0,1,0,0,3,0,1,0,1,0,0,1,1,0,4370,
scooby_state_559889cb1200|38|1 4367,0,0,0,0,0,1,0,0,0,0,0,0,0,0,4368,
scooby_state_559889cb1200|7|1 4360,0,0,1,0,1,1,0,0,0,0,0,1,2,2,4368,
scooby_state_559889cb1200|60|1 4360,0,0,2,0,1,2,0,0,1,1,0,0,0,1,4368,
scooby_state_559889cb1200|53|1 4363,1,0,0,0,1,1,0,0,0,0,0,1,0,0,4367,
scooby_state_559889cb1200|54|1 4359,0,0,0,0,0,0,0,1,0,0,1,0,3,1,4365,
scooby_state_559889cb1200|47|1 4359,0,0,0,0,0,0,0,0,0,0,0,1,2,3,4365,
scooby_state_559889cb1200|46|1 4354,1,1,1,0,1,2,1,2,0,0,1,1,0,0,4365,
scooby_state_559889cb1200|63|1 4353,0,0,0,0,0,1,1,2,2,1,1,1,1,1,4364,
scooby_state_559889cb1200|59|1 4359,0,1,0,0,1,1,0,0,0,0,1,0,1,0,4364,
scooby_state_559889cb1200|42|1 4352,0,3,0,1,1,2,0,0,1,1,0,1,0,2,4364,
scooby_state_559889cb1200|25|1 4356,0,0,1,0,1,2,1,0,1,0,1,1,0,0,4364,
scooby_state_559889cb1200|8|1 4354,0,0,0,1,0,1,2,1,0,3,1,0,1,0,4364,
scooby_state_559889cb1200|17|1 4356,0,0,0,0,0,1,2,0,0,2,0,0,2,1,4364,
scooby_state_559889cb1200|18|1 4355,0,2,1,0,1,0,1,0,0,0,1,1,0,0,4362,
scooby_state_559889cb1200|19|1 4354,0,2,0,1,1,0,0,1,0,0,0,0,1,2,4362,
scooby_state_559889cb1200|57|1 4352,0,1,0,0,1,1,1,1,0,1,3,1,0,0,4362,
scooby_state_559889cb1200|24|1 4357,0,0,0,0,0,1,0,0,2,1,0,0,0,0,4361,
scooby_state_559889cb1200|16|1 4356,0,1,0,1,1,0,0,0,0,0,0,1,0,0,4360,
scooby_state_559889cb1200|62|1 4355,0,1,0,0,1,0,0,0,1,0,0,1,1,0,4360,
scooby_state_559889cb1200|58|1 4357,0,1,0,0,0,2,0,0,0,0,0,0,0,0,4360,
scooby_state_559889cb1200|9|1 4351,0,0,0,1,2,1,0,2,0,0,0,0,1,2,4360,
scooby_state_559889cb1200|55|1 4349,1,1,1,1,1,0,0,0,0,0,1,1,1,2,4359,
scooby_state_559889cb1200|22|1 4357,0,0,0,1,0,0,0,0,0,0,0,0,1,0,4359,
scooby_state_559889cb1200|56|1 4353,1,0,0,0,0,1,1,0,1,0,0,0,0,1,4358,
scooby_state_559889cb1200|35|1 4343,1,1,2,0,1,2,0,2,0,0,3,1,1,1,4358,
scooby_state_559889cb1200|39|1 4352,1,0,0,0,1,1,0,0,0,1,1,1,0,0,4358,
scooby_state_559889cb1200|11|1 4351,1,0,0,0,1,0,1,0,2,0,1,0,0,0,4357,
scooby_state_559889cb1200|33|1 4349,2,1,0,0,0,0,0,1,1,1,0,0,0,2,4357,
scooby_state_559889cb1200|20|1 4349,1,1,1,0,0,2,1,1,0,1,0,0,0,0,4357,
scooby_state_559889cb1200|41|1 4350,0,0,0,0,0,0,1,1,0,1,0,1,2,0,4356,
scooby_state_559889cb1200|34|1 4348,1,0,0,1,0,0,1,1,1,1,1,0,1,0,4356,
scooby_state_559889cb1200|21|1 4346,0,0,0,1,1,2,1,0,1,0,1,0,3,0,4356,
scooby_state_559889cb1200|10|1 4345,1,2,0,0,0,0,0,2,1,1,0,1,1,1,4355,
scooby_state_559889cb1200|12|1 4340,0,1,0,1,1,1,1,0,0,1,1,0,0,0,4347,
scooby_state_559889cb1200|15|1 4339,0,0,0,2,1,1,0,0,1,0,0,1,0,1,4346,
scooby_state_559889cb1200|13|1 4338,2,0,1,0,0,0,1,1,2,0,0,0,0,1,4346,
scooby_state_559889cb1200|14|1 4337,2,1,1,0,0,0,0,0,0,1,0,1,0,1,4344,
scooby_state_559889cb1226|5|1 3268,6,10,6,7,6,6,9,3,7,5,10,2,3,686,4034,
scooby_state_559889cb1226|37|1 3331,10,9,10,6,7,7,3,4,3,2,11,1,3,626,4033,
scooby_state_559889cb1226|56|1 3315,18,8,6,14,4,9,7,5,2,8,6,5,2,624,4033,
scooby_state_559889cb1226|11|1 3237,12,12,4,12,6,2,5,4,5,4,13,1,2,622,3941,
scooby_state_559889cb1226|31|1 3287,11,7,9,10,4,7,4,7,1,4,4,6,4,574,3939,
scooby_state_559889cb1226|57|1 3209,11,12,6,10,8,2,2,1,4,3,7,3,4,613,3895,
scooby_state_559889cb1226|13|1 3185,16,8,9,2,5,5,4,6,3,6,4,1,8,610,3872,
scooby_state_559889cb1226|49|1 3097,10,9,6,6,5,2,4,5,6,1,8,2,4,668,3833,
scooby_state_559889cb1226|48|1 3091,16,5,5,14,4,7,2,5,5,4,10,3,3,646,3820,
scooby_state_559889cb1226|4|1 3117,8,7,4,3,5,8,5,6,5,4,14,5,3,617,3811,
scooby_state_559889cb1226|55|1 3076,16,8,7,5,6,3,6,2,3,2,5,6,8,642,3795,
scooby_state_559889cb1226|9|1 3153,15,4,1,7,6,4,5,2,0,0,5,1,0,563,3766,
scooby_state_559889cb1226|28|1 3155,5,9,5,6,5,2,5,0,2,4,2,2,6,553,3761,
scooby_state_559889cb1226|27|1 3177,8,6,0,5,3,1,6,3,2,1,8,4,5,525,3754,
scooby_state_559889cb1226|7|1 3023,11,12,7,10,8,11,2,5,3,1,7,2,4,620,3726,
scooby_state_559889cb1226|62|1 2996,8,7,6,9,5,1,7,7,3,5,7,4,6,631,3702,
scooby_state_559889cb1226|15|1 3106,8,2,6,5,7,6,3,1,3,3,9,5,2,529,3695,
scooby_state_559889cb1226|14|1 3027,11,6,7,6,6,6,3,3,0,6,10,2,5,586,3684,
scooby_state_559889cb1226|22|1 3064,13,6,9,6,7,4,4,4,2,5,11,4,5,536,3680,
scooby_state_559889cb1226|61|1 2974,6,6,5,9,8,7,3,2,0,4,10,6,2,625,3667,
scooby_state_559889cb1226|8|1 2992,7,4,10,6,3,2,5,4,2,3,8,3,3,613,3665,
scooby_state_559889cb1226|63|1 2960,9,9,5,6,6,3,3,3,1,4,10,2,3,620,3644,
scooby_state_559889cb1226|12|1 3035,11,12,9,8,3,6,5,1,4,5,10,6,2,519,3636,
scooby_state_559889cb1226|21|1 3045,9,8,10,7,7,2,3,2,4,6,8,3,0,519,3633,
scooby_state_559889cb1226|1|1 2995,18,2,6,5,5,1,7,3,9,2,7,4,1,560,3625,
scooby_state_559889cb1226|10|1 3024,12,8,6,11,3,6,4,8,1,3,3,4,3,522,3618,
scooby_state_559889cb1226|58|1 2939,13,5,9,10,6,2,4,6,3,0,9,7,7,582,3602,
scooby_state_559889cb1226|29|1 3024,11,4,5,7,2,4,8,2,1,5,6,2,4,497,3582,
scooby_state_559889cb1226|38|1 2985,10,6,6,9,12,5,3,2,3,3,9,5,0,514,3572,
scooby_state_559889cb1226|43|1 2964,10,5,6,7,3,3,2,7,8,5,13,4,2,528,3567,
scooby_state_559889cb1226|45|1 2939,14,11,5,10,4,8,6,1,4,2,6,4,2,528,3544,
scooby_state_559889cb1226|20|1 2949,13,10,9,6,2,6,3,2,2,3,3,2,4,518,3532,
scooby_state_559889cb1226|2|1 2924,14,4,7,8,6,6,7,1,5,5,5,4,1,535,3532,
scooby_state_559889cb1226|19|1 2948,13,9,6,8,4,1,2,5,2,1,4,2,4,520,3529,
scooby_state_559889cb1226|50|1 2857,9,11,4,10,10,3,0,1,2,1,4,2,1,614,3529,
scooby_state_559889cb1226|39|1 2897,13,11,10,9,6,1,4,4,1,1,7,5,2,531,3502,
scooby_state_559889cb1226|54|1 2898,7,12,6,3,3,4,4,4,5,2,7,4,6,534,3499,
scooby_state_559889cb1226|32|1 2940,10,5,6,10,5,7,5,4,1,4,5,2,3,473,3480,
scooby_state_559889cb1226|33|1 2902,12,2,8,5,4,4,6,8,4,4,6,6,5,500,3476,
scooby_state_559889cb1226|52|1 2789,7,9,8,11,6,7,4,7,5,2,13,3,2,602,3475,
scooby_state_559889cb1226|18|1 2894,16,9,5,6,2,4,3,4,3,4,3,2,3,503,3461,
scooby_state_559889cb1226|42|1 2882,9,7,3,2,9,5,3,1,0,5,5,6,1,506,3444,
scooby_state_559889cb1226|16|1 2874,8,6,8,4,5,2,4,1,2,4,7,4,2,492,3423,
scooby_state_559889cb1226|25|1 2871,7,8,2,10,11,2,2,4,1,2,9,3,2,487,3421,
scooby_state_559889cb1226|30|1 2867,17,6,2,6,5,3,2,4,3,1,5,4,1,487,3413,
scooby_state_559889cb1226|47|1 2814,12,8,4,5,6,3,6,3,4,3,5,3,6,529,3411,
scooby_state_559889cb1226|44|1 2806,8,8,3,11,8,5,2,2,3,2,7,3,1,541,3410,
scooby_state_559889cb1226|3|1 2828,6,7,5,4,5,5,3,1,3,4,8,5,4,513,3401,
scooby_state_559889cb1226|17|1 2854,10,4,2,3,5,1,1,3,2,3,8,2,2,497,3397,
scooby_state_559889cb1226|53|1 2792,11,13,9,6,4,5,0,4,3,3,5,2,3,528,3388,
scooby_state_559889cb1226|36|1 2839,12,5,6,5,1,6,5,8,2,1,6,4,1,482,3383,
scooby_state_559889cb1226|23|1 2814,4,3,6,6,5,3,5,2,3,4,6,2,3,510,3376,
scooby_state_559889cb1226|24|1 2834,9,6,7,9,7,3,3,5,1,4,7,3,3,468,3369,
scooby_state_559889cb1226|60|1 2772,10,9,8,4,6,6,5,2,2,2,7,5,2,516,3356,
scooby_state_559889cb1226|41|1 2756,12,6,9,8,3,5,8,4,3,4,5,5,6,515,3349,
scooby_state_559889cb1226|40|1 2769,11,3,5,8,8,3,3,2,0,0,11,3,1,491,3318,
scooby_state_559889cb1226|26|1 2771,8,9,4,9,6,4,3,0,4,3,4,5,1,456,3287,
scooby_state_559889cb1226|35|1 2759,9,5,4,2,3,3,2,1,2,6,8,4,3,456,3267,
scooby_state_559889cb1226|51|1 2717,12,9,2,10,3,5,2,5,2,2,7,4,3,484,3267,
scooby_state_559889cb1226|46|1 2719,9,4,5,7,6,6,2,3,3,5,5,4,5,476,3259,
scooby_state_559889cb1226|6|1 2695,8,11,2,11,4,7,4,4,2,4,5,2,5,475,3239,
scooby_state_559889cb1226|34|1 2734,11,6,2,6,6,2,7,3,2,5,3,2,1,448,3238,
scooby_state_559889cb1226|59|1 2696,11,6,8,3,2,3,1,3,3,4,6,6,5,465,3222,
scooby_state_559889cb1226|36|2 2480,4,13,4,2,4,5,3,3,5,2,2,4,6,609,3146,
scooby_state_559889cb1226|10|2 2295,6,14,6,4,0,7,5,8,3,8,4,4,3,587,2954,
scooby_state_559889cb1226|38|2 2361,2,5,9,2,4,7,4,3,4,0,4,3,2,523,2933,
scooby_state_559889cb1226|14|2 2301,5,11,5,4,8,4,2,6,4,3,1,3,5,536,2898,
scooby_state_559889cb1226|50|2 2273,7,5,11,3,2,9,3,1,3,2,0,1,5,568,2893,
scooby_state_559889cb1226|57|2 2264,5,22,4,6,4,6,2,2,1,1,3,9,1,558,2888,
scooby_state_559889cb1226|4|2 2265,4,7,12,11,2,5,3,4,3,2,4,2,4,537,2865,
scooby_state_559889cb1226|47|2 2269,4,8,4,7,1,5,3,2,2,0,1,2,4,522,2834,
scooby_state_559889cb1226|13|2 2218,3,7,2,9,4,4,5,0,6,1,2,9,2,551,2823,
scooby_state_559889cb1226|44|2 2224,2,7,8,3,1,3,4,3,2,1,2,2,5,504,2771,
scooby_state_559889cb1226|56|2 2186,5,12,5,8,9,5,3,2,4,2,5,4,5,509,2764,
scooby_state_559889cb1226|6|2 2185,5,10,7,3,2,3,4,7,3,3,3,3,1,506,2745,
scooby_state_559889cb1226|55|2 2148,10,8,13,5,3,3,3,1,0,0,5,6,6,531,2742,
scooby_state_559889cb1226|40|2 2154,5,10,7,6,1,4,2,3,7,5,5,5,1,511,2726,
scooby_state_559889cb1226|30|2 2171,2,9,2,5,3,1,3,1,4,2,2,3,7,504,2719,
scooby_state_559889cb1226|12|2 2210,4,10,6,7,3,4,3,3,4,4,3,2,8,446,2717,
scooby_state_559889cb1226|61|2 2120,8,10,5,5,3,4,5,0,6,5,2,3,0,540,2716,
scooby_state_559889cb1226|63|2 2105,7,8,1,8,3,4,1,7,2,5,4,3,2,549,2709,
scooby_state_559889cb1226|21|2 2155,7,14,3,6,0,2,5,0,3,6,6,4,5,491,2707,
scooby_state_559889cb1226|48|2 2135,2,14,1,4,4,4,3,4,2,1,1,1,3,524,2703,
scooby_state_559889cb1226|3|2 2156,4,12,6,2,2,4,3,2,1,4,2,3,5,474,2680,
scooby_state_559889cb1226|8|2 2136,4,8,7,7,2,5,1,9,2,3,3,2,4,487,2680,
scooby_state_559889cb1226|11|2 2113,4,8,3,4,0,3,2,6,4,2,2,5,1,497,2654,
scooby_state_559889cb1226|34|2 2135,4,8,4,2,2,4,2,2,5,3,1,2,1,473,2648,
scooby_state_559889cb1226|22|2 2144,6,6,2,3,3,4,0,3,4,2,2,5,2,457,2643,
scooby_state_559889cb1226|42|2 2103,4,9,7,4,1,5,3,4,1,2,0,5,2,493,2643,
scooby_state_559889cb1226|26|2 2155,3,9,8,3,2,5,3,2,2,1,4,0,2,437,2636,
scooby_state_559889cb1226|2|2 2074,9,3,10,2,2,1,7,1,2,1,3,2,2,515,2634,
scooby_state_559889cb1226|45|2 2125,9,6,6,2,1,8,2,4,1,3,4,2,2,455,2630,
scooby_state_559889cb1226|29|2 2101,7,5,5,6,1,5,3,6,5,2,2,2,3,471,2624,
scooby_state_559889cb1226|15|2 2082,5,8,5,4,3,3,4,5,4,2,2,7,4,482,2620,
scooby_state_559889cb1226|20|2 2089,2,7,5,1,5,6,1,2,3,0,1,3,3,492,2620,
scooby_state_559889cb1226|39|2 2051,6,10,5,4,5,3,4,1,1,2,2,3,5,490,2592,
scooby_state_559889cb1226|27|2 2106,2,8,2,3,2,4,1,2,1,3,1,3,1,450,2589,
scooby_state_559889cb1226|18|2 2046,6,7,4,5,1,5,2,3,1,0,2,0,0,498,2580,
scooby_state_559889cb1226|49|2 2049,5,6,3,3,2,2,0,0,4,3,3,1,5,490,2576,
scooby_state_559889cb1226|51|2 2013,4,8,5,1,7,3,4,1,3,4,5,1,1,516,2576,
scooby_state_559889cb1226|59|2 2026,1,10,5,2,5,8,3,3,0,0,2,2,1,504,2572,
scooby_state_559889cb1226|9|2 2047,3,10,4,4,4,1,3,4,4,6,2,3,2,461,2558,
scooby_state_559889cb1226|32|2 2077,2,7,6,2,0,3,1,1,1,1,4,2,3,445,2555,
scooby_state_559889cb1226|53|2 1992,6,13,6,6,0,2,0,3,4,0,7,2,9,488,2538,
scooby_state_559889cb1226|54|2 1985,4,11,6,5,9,6,5,4,1,1,2,7,2,481,2529,
scooby_state_559889cb1226|43|2 1983,5,9,7,3,3,6,5,5,0,2,1,1,2,494,2526,
scooby_state_559889cb1226|62|2 1983,3,7,3,5,3,2,2,2,5,1,1,3,3,492,2515,
scooby_state_559889cb1226|24|2 2039,5,12,3,2,2,0,2,2,2,3,0,1,2,436,2511,
scooby_state_559889cb1226|28|2 2007,4,6,2,6,1,6,4,2,1,2,3,4,3,460,2511,
scooby_state_559889cb1226|17|2 1991,3,4,5,5,2,7,2,6,0,6,1,6,0,472,2510,
scooby_state_559889cb1226|19|2 1986,6,9,4,8,2,4,2,3,2,0,2,8,2,464,2502,
scooby_state_559889cb1226|23|2 1957,3,15,3,5,2,2,1,1,3,3,2,5,2,463,2467,
scooby_state_559889cb1226|7|2 1984,6,9,2,2,3,1,4,2,2,2,4,3,1,440,2465,
scooby_state_559889cb1226|41|2 1975,1,7,4,7,0,1,4,0,0,4,5,2,5,447,2462,
scooby_state_559889cb1226|35|2 1917,4,11,5,3,2,7,2,1,2,3,2,2,4,480,2445,
scooby_state_559889cb1226|33|2 1936,1,13,2,3,5,4,2,2,6,2,1,3,1,462,2443,
scooby_state_559889cb1226|31|2 1964,1,10,8,2,3,6,1,1,4,3,1,3,2,431,2440,
scooby_state_559889cb1226|58|2 1869,4,7,10,3,4,2,4,3,2,0,1,2,3,496,2410,
scooby_state_559889cb1226|16|2 1914,2,6,7,5,0,4,3,1,0,2,0,5,1,438,2388,
scooby_state_559889cb1226|60|2 1877,5,11,6,3,4,0,1,2,1,2,1,3,3,469,2388,
scooby_state_559889cb1226|4|3 1785,5,9,18,9,11,6,5,2,6,3,8,4,1,497,2369,
scooby_state_559889cb1226|56|3 1731,8,5,13,7,9,4,8,7,2,7,6,6,6,525,2344,
scooby_state_559889cb1226|37|2 1850,7,7,5,7,7,4,1,1,1,4,1,7,4,436,2342,
scooby_state_559889cb1226|25|2 1888,2,8,4,6,6,0,4,0,0,2,2,1,7,412,2342,
scooby_state_559889cb1226|46|2 1844,5,7,5,6,4,7,5,3,4,1,3,3,1,425,2323,
scooby_state_559889cb1226|29|3 1738,10,9,9,6,9,11,5,4,7,2,6,3,5,492,2316,
scooby_state_559889cb1226|52|2 1779,2,5,5,3,7,5,2,2,1,1,4,3,1,475,2295,
scooby_state_559889cb1226|43|3 1756,4,8,11,7,13,3,4,5,2,2,5,3,7,437,2267,
scooby_state_559889cb1226|48|3 1725,6,4,10,7,6,5,3,3,2,9,5,6,2,472,2265,
scooby_state_559889cb1226|21|3 1701,6,4,9,5,10,6,3,3,6,1,8,5,6,473,2246,
scooby_state_559889cb1226|5|2 1790,2,8,5,4,3,2,2,2,1,2,5,3,3,411,2243,
scooby_state_559889cb1226|20|3 1722,6,7,10,5,3,4,4,2,3,0,2,1,4,444,2217,
scooby_state_559889cb1226|42|3 1716,7,4,6,7,8,9,2,6,8,3,2,5,1,423,2207,
scooby_state_559889cb1226|14|3 1702,14,8,13,2,6,5,4,1,6,4,3,2,5,431,2206,
scooby_state_559889cb1226|55|3 1656,8,4,16,2,5,11,7,8,2,2,5,8,3,469,2206,
scooby_state_559889cb1226|45|3 1660,2,7,14,8,7,17,3,2,4,1,6,5,5,460,2201,
scooby_state_559889cb1226|34|3 1652,9,9,6,7,10,7,6,4,7,4,7,3,2,435,2168,
scooby_state_559889cb1226|13|3 1682,5,2,8,7,6,6,4,3,2,5,2,7,7,419,2165,
scooby_state_559889cb1226|24|3 1650,6,6,7,5,8,4,1,6,2,5,5,5,2,450,2162,
scooby_state_559889cb1226|54|3 1654,8,11,12,6,8,4,3,2,2,4,8,6,6,423,2157,
scooby_state_559889cb1226|25|3 1649,9,11,12,7,7,8,2,5,5,3,3,5,2,426,2154,
scooby_state_559889cb1226|48|4 1578,4,7,7,5,6,3,2,2,2,6,3,105,2,411,2143,
scooby_state_559889cb1226|7|3 1622,3,5,11,4,8,4,5,2,8,4,4,5,2,456,2143,
scooby_state_559889cb1226|10|3 1656,9,9,13,8,5,7,2,3,1,2,5,3,3,411,2137,
scooby_state_559889cb1226|11|3 1606,9,3,10,6,2,9,3,0,4,4,9,1,6,445,2117,
scooby_state_559889cb1226|36|3 1653,7,4,13,7,10,7,6,4,1,6,6,6,8,371,2109,
scooby_state_559889cb1226|8|3 1593,6,4,10,6,6,5,2,2,2,2,3,5,6,455,2107,
scooby_state_559889cb1226|40|3 1632,4,0,15,5,5,6,7,3,2,6,4,6,4,404,2103,
scooby_state_559889cb1226|31|3 1625,8,6,6,3,7,8,5,4,7,1,4,3,7,408,2102,
scooby_state_559889cb1226|16|3 1587,11,6,7,5,8,4,4,2,3,1,4,4,1,453,2100,
scooby_state_559889cb1226|32|3 1612,9,3,5,5,7,6,4,3,6,5,8,4,4,413,2094,
scooby_state_559889cb1226|47|3 1590,7,6,10,4,5,4,4,1,1,1,4,7,6,433,2083,
scooby_state_559889cb1226|59|3 1589,7,3,7,12,8,3,3,5,5,4,10,4,4,415,2079,
scooby_state_559889cb1226|12|3 1588,5,3,9,6,7,8,6,4,5,2,7,5,6,414,2075,
scooby_state_559889cb1226|17|3 1578,6,6,19,8,5,5,7,6,2,1,2,2,3,414,2064,
scooby_state_559889cb1226|46|3 1576,5,9,7,4,9,6,5,6,2,5,4,4,5,413,2060,
scooby_state_559889cb1226|15|3 1583,3,5,10,4,8,5,2,3,7,3,4,2,3,414,2056,
scooby_state_559889cb1226|40|4 1530,5,5,9,3,8,6,2,2,2,2,3,97,2,379,2055,
scooby_state_559889cb1226|39|3 1591,2,7,12,2,8,5,4,2,2,1,4,3,3,404,2050,
scooby_state_559889cb1226|61|3 1539,6,7,7,6,5,4,3,1,3,6,2,4,3,448,2044,
scooby_state_559889cb1226|22|3 1602,5,5,12,4,3,4,4,3,6,2,5,2,0,383,2040,
scooby_state_559889cb1226|30|3 1598,8,5,7,6,3,4,3,4,1,2,4,4,1,382,2032,
scooby_state_559889cb1226|60|3 1547,8,6,12,6,8,7,4,5,3,1,4,2,2,416,2031,
scooby_state_559889cb1226|26|3 1565,2,1,7,8,7,4,5,5,6,2,4,3,5,395,2019,
scooby_state_559889cb1226|53|3 1530,9,6,12,5,4,4,5,4,2,5,4,4,6,419,2019,
scooby_state_559889cb1226|28|3 1563,6,2,11,7,6,3,3,3,4,3,2,2,1,402,2018,
scooby_state_559889cb1226|19|3 1568,7,7,8,7,9,9,4,0,0,3,3,2,2,388,2017,
scooby_state_559889cb1226|62|3 1517,8,2,9,7,8,5,5,7,5,4,7,3,2,426,2015,
scooby_state_559889cb1226|49|3 1534,5,8,10,2,4,4,7,4,2,2,5,3,4,419,2013,
scooby_state_559889cb1226|58|3 1527,3,3,9,5,6,7,5,2,2,0,6,3,6,428,2012,
scooby_state_559889cb1226|52|3 1530,7,4,11,7,7,8,4,7,1,2,1,3,3,396,1991,
scooby_state_559889cb1226|23|3 1546,7,6,8,5,6,5,4,3,3,5,8,2,6,371,1985,
scooby_state_559889cb1226|37|3 1555,8,2,15,4,1,5,5,2,2,3,1,8,2,369,1982,
scooby_state_559889cb1226|6|3 1520,7,6,13,5,11,5,2,3,1,6,3,4,3,390,1979,
scooby_state_559889cb1226|18|3 1537,4,6,11,2,2,4,3,2,4,1,7,6,5,378,1972,
scooby_state_559889cb1226|27|3 1510,4,6,17,4,2,9,6,1,3,1,6,3,4,395,1971,
scooby_state_559889cb1226|41|3 1527,5,8,12,3,8,6,5,3,3,4,0,3,3,374,1964,
scooby_state_559889cb1226|57|3 1513,3,6,12,4,6,5,8,4,3,6,6,4,3,380,1963,
scooby_state_559889cb1226|35|3 1511,6,8,7,9,3,11,7,2,6,4,2,2,5,361,1944,
scooby_state_559889cb1226|51|3 1470,8,9,20,5,11,7,4,1,5,2,4,6,4,385,1941,
scooby_state_559889cb1226|6|4 1392,4,9,9,3,6,4,2,6,0,1,4,87,6,405,1938,
scooby_state_559889cb1226|38|3 1511,5,7,10,3,9,7,2,6,3,0,7,4,3,360,1937,
scooby_state_559889cb1226|63|3 1477,10,10,10,3,4,4,1,4,4,1,4,7,2,395,1936,
scooby_state_559889cb1226|14|4 1395,6,11,4,5,4,5,2,6,2,2,5,83,5,397,1932,
scooby_state_559889cb1226|44|3 1480,12,6,10,6,12,6,4,2,8,4,4,5,4,368,1931,
scooby_state_559889cb1226|49|4 1410,3,11,5,3,2,6,2,5,2,4,3,86,5,376,1923,
scooby_state_559889cb1226|33|3 1524,5,5,8,3,4,4,0,2,2,3,5,4,1,351,1921,
scooby_state_559889cb1226|5|3 1500,7,6,7,6,5,4,3,2,0,4,3,6,7,360,1920,
scooby_state_559889cb1226|11|4 1398,5,10,6,4,5,7,4,3,3,5,7,92,2,359,1910,
scooby_state_559889cb1226|57|4 1345,6,10,10,2,9,7,0,6,3,7,4,101,5,390,1905,
scooby_state_559889cb1226|53|4 1334,6,13,5,5,8,3,4,2,3,7,3,75,5,414,1887,
scooby_state_559889cb1226|42|4 1390,8,8,10,4,2,2,6,1,5,3,3,76,4,361,1883,
scooby_state_559889cb1226|60|4 1308,4,14,13,8,4,8,2,3,2,4,7,94,2,408,1881,
scooby_state_559889cb1226|4|4 1347,6,13,6,3,5,3,4,6,4,1,2,106,1,368,1875,
scooby_state_559889cb1226|50|3 1445,8,5,7,3,6,4,5,0,2,3,4,2,5,376,1875,
scooby_state_559889cb1226|9|3 1446,9,5,1,5,7,6,3,2,3,4,5,2,3,373,1874,
scooby_state_559889cb1226|31|4 1366,3,7,10,5,4,7,5,0,2,3,6,75,2,375,1870,
scooby_state_559889cb1226|3|3 1418,4,6,15,7,5,9,10,5,2,3,3,1,3,377,1868,
scooby_state_559889cb1226|26|4 1387,2,6,5,2,5,4,5,5,2,2,2,65,5,364,1861,
scooby_state_559889cb1226|7|4 1356,5,7,3,5,5,7,4,6,3,0,1,74,2,357,1835,
scooby_state_559889cb1226|12|4 1365,6,8,9,4,3,2,1,4,2,0,6,87,0,336,1833,
scooby_state_559889cb1226|15|4 1322,6,7,2,4,4,6,7,4,0,2,2,92,4,357,1819,
scooby_state_559889cb1226|28|4 1275,3,7,2,2,10,3,4,2,2,2,3,98,1,384,1798,
scooby_state_559889cb1226|16|4 1313,2,8,7,3,8,4,1,3,6,0,2,91,4,333,1785,
scooby_state_559889cb1226|44|4 1283,9,6,5,4,6,6,1,4,0,3,8,91,3,352,1781,
scooby_state_559889cb1226|30|4 1310,1,5,5,6,7,4,6,6,3,3,0,74,4,336,1770,
scooby_state_559889cb1226|36|4 1289,9,0,4,7,4,6,5,3,2,1,3,94,6,332,1765,
scooby_state_559889cb1226|52|4 1287,4,11,3,3,4,9,5,4,2,2,4,93,6,322,1759,
scooby_state_559889cb1226|10|4 1290,7,10,10,3,7,3,2,0,2,5,1,84,1,330,1755,
scooby_state_559889cb1226|8|4 1316,2,10,4,4,3,3,5,1,5,3,2,66,1,324,1749,
scooby_state_559889cb1226|19|4 1265,4,7,9,5,4,6,4,1,1,6,3,84,2,321,1722,
scooby_state_559889cb1226|24|4 1270,3,6,3,2,8,3,3,1,3,3,2,83,2,321,1713,
scooby_state_559889cb1226|45|4 1274,2,10,7,1,3,4,2,3,4,0,2,62,1,331,1706,
scooby_state_559889cb1226|18|4 1252,8,8,2,4,6,6,2,1,5,3,7,82,4,312,1702,
scooby_state_559889cb1226|13|4 1224,2,4,6,3,2,2,2,6,2,3,7,84,3,351,1701,
scooby_state_559889cb1226|20|4 1245,3,7,6,3,5,6,1,4,4,1,2,79,1,328,1695,
scooby_state_559889cb1226|62|6 1224,10,10,2,8,11,4,4,7,5,8,90,9,8,281,1681,
scooby_state_559889cb1226|17|4 1252,3,8,6,2,5,2,3,2,0,6,3,65,3,319,1679,
scooby_state_559889cb1226|59|4 1179,4,15,0,4,1,10,5,8,1,3,6,88,5,349,1678,
scooby_state_559889cb1226|9|4 1225,3,6,7,2,4,3,2,2,4,1,5,79,3,332,1678,
scooby_state_559889cb1226|41|4 1223,0,13,8,1,3,6,2,2,2,3,2,89,2,320,1676,
scooby_state_559889cb1226|43|4 1231,1,6,6,3,3,2,0,2,3,2,2,88,3,318,1670,
scooby_state_559889cb1226|54|4 1196,4,10,3,7,5,6,3,4,2,3,4,73,3,341,1664,
scooby_state_559889cb1226|56|4 1156,5,11,3,3,3,3,5,1,1,0,3,99,6,363,1662,
scooby_state_559889cb1226|38|4 1223,4,6,5,5,2,4,3,3,3,2,1,83,1,315,1660,
scooby_state_559889cb1226|55|4 1206,5,7,3,5,1,6,1,4,2,5,3,77,2,331,1658,
scooby_state_559889cb1226|48|5 1188,3,8,12,8,6,6,2,4,1,3,5,53,3,350,1652,
scooby_state_559889cb1226|62|4 1158,4,9,6,5,3,7,2,2,8,1,2,61,2,381,1651,
scooby_state_559889cb1226|5|4 1202,5,5,9,1,4,5,2,2,5,2,3,84,2,312,1643,
scooby_state_559889cb1226|18|5 1195,8,3,6,6,9,2,4,3,3,2,7,59,0,332,1639,
scooby_state_559889cb1226|41|5 1221,4,6,8,5,8,3,4,4,1,5,1,47,8,312,1637,
scooby_state_559889cb1226|51|4 1184,4,3,4,7,3,5,2,4,4,1,6,87,1,312,1627,
scooby_state_559889cb1226|47|4 1186,6,6,11,0,3,3,0,3,2,5,4,95,4,298,1626,
scooby_state_559889cb1226|36|5 1155,10,5,13,6,6,4,4,4,5,7,2,55,5,336,1617,
scooby_state_559889cb1226|46|4 1150,5,8,5,4,3,5,0,1,4,3,2,69,2,342,1603,
scooby_state_559889cb1226|34|4 1169,5,5,2,3,7,4,5,3,2,2,4,68,3,314,1596,
scooby_state_559889cb1226|25|4 1162,2,7,10,3,4,2,2,2,1,6,2,72,3,315,1593,
scooby_state_559889cb1226|53|5 1154,3,6,12,6,6,0,6,2,2,1,3,47,3,340,1591,
scooby_state_559889cb1226|22|4 1176,2,8,2,5,7,4,1,3,3,2,2,72,2,298,1587,
scooby_state_559889cb1226|10|6 1110,10,12,9,7,6,6,4,6,4,10,94,1,7,297,1583,
scooby_state_559889cb1226|61|4 1148,3,5,1,4,5,1,2,2,7,3,6,78,1,316,1582,
scooby_state_559889cb1226|42|5 1150,9,10,5,4,2,2,5,6,5,5,1,53,5,313,1575,
scooby_state_559889cb1226|37|4 1205,3,4,1,1,1,4,1,1,2,2,4,67,0,276,1572,
scooby_state_559889cb1226|45|5 1134,6,5,17,1,6,5,2,3,2,2,2,44,4,336,1569,
scooby_state_559889cb1226|35|4 1143,1,11,4,1,3,3,4,4,3,5,3,62,5,316,1568,
scooby_state_559889cb1226|32|4 1176,1,9,6,4,3,2,4,3,1,1,2,76,5,272,1565,
scooby_state_559889cb1226|31|5 1154,5,7,5,3,7,1,4,2,2,8,0,45,7,300,1550,
scooby_state_559889cb1226|9|5 1131,6,2,6,5,4,5,4,5,4,4,3,47,4,315,1545,
scooby_state_559889cb1226|21|4 1150,1,8,7,4,3,3,2,1,2,3,3,68,1,287,1543,
scooby_state_559889cb1226|27|4 1080,4,4,8,2,9,7,2,4,0,4,4,79,3,332,1542,
scooby_state_559889cb1226|50|4 1124,8,8,2,2,4,6,3,1,2,3,2,71,8,297,1541,
scooby_state_559889cb1226|10|5 1108,4,5,7,5,8,2,0,4,6,0,5,51,5,329,1539,
scooby_state_559889cb1226|61|5 1102,8,5,8,4,3,6,7,4,2,5,6,51,6,319,1536,
scooby_state_559889cb1226|26|5 1122,6,8,9,1,4,6,4,4,2,1,5,49,2,312,1535,
scooby_state_559889cb1226|19|5 1118,7,5,8,2,4,3,2,0,2,5,6,53,5,315,1535,
scooby_state_559889cb1226|16|5 1084,10,5,8,6,4,3,4,6,2,3,3,49,2,345,1534,
scooby_state_559889cb1226|29|4 1138,3,9,3,0,3,3,3,1,3,3,3,83,2,275,1532,
scooby_state_559889cb1226|11|5 1143,3,6,9,3,4,5,4,1,1,2,3,37,6,304,1531,
scooby_state_559889cb1226|54|6 1089,11,10,7,9,7,7,7,6,1,5,110,4,5,251,1529,
scooby_state_559889cb1226|42|6 1100,8,10,5,5,6,8,4,2,6,5,95,2,7,260,1523,
scooby_state_559889cb1226|63|4 1113,5,4,4,1,4,2,6,1,3,1,7,75,1,295,1522,
scooby_state_559889cb1226|58|4 1092,4,7,7,3,3,4,2,5,1,3,3,53,3,324,1514,
scooby_state_559889cb1226|12|5 1124,9,5,2,2,2,4,5,4,2,3,6,41,6,295,1510,
scooby_state_559889cb1226|34|5 1137,7,4,7,4,8,2,5,3,4,1,6,45,3,271,1507,
scooby_state_559889cb1226|36|6 1102,11,4,5,4,6,5,2,5,4,5,101,3,5,238,1500,
scooby_state_559889cb1226|39|4 1093,3,8,5,5,5,8,2,2,0,1,2,62,3,300,1499,
scooby_state_559889cb1226|62|5 1053,9,14,9,4,8,2,2,5,3,3,6,53,3,325,1499,
scooby_state_559889cb1226|7|5 1100,7,7,5,5,4,3,1,4,4,2,2,57,1,296,1498,
scooby_state_559889cb1226|21|5 1077,9,4,5,4,9,1,5,4,5,2,6,51,4,284,1470,
scooby_state_559889cb1226|32|5 1103,8,2,5,2,4,2,5,3,2,5,3,47,6,266,1463,
scooby_state_559889cb1226|23|4 1061,2,7,1,3,2,3,6,5,2,4,5,68,4,284,1457,
scooby_state_559889cb1226|17|5 1058,10,7,5,2,2,4,2,5,5,2,4,51,3,296,1456,
scooby_state_559889cb1226|25|5 1054,5,7,6,5,3,5,3,5,3,6,1,50,2,295,1450,
scooby_state_559889cb1226|55|7 1010,2,7,6,7,10,7,5,10,5,5,7,6,8,353,1448,
scooby_state_559889cb1226|13|5 1056,9,7,6,6,1,2,2,2,3,4,4,36,6,303,1447,
scooby_state_559889cb1226|33|4 1094,4,8,1,1,3,6,2,5,3,3,1,68,1,246,1446,
scooby_state_559889cb1226|60|5 1031,12,6,6,7,3,5,3,3,1,2,4,50,3,307,1443,
scooby_state_559889cb1226|30|5 1063,4,2,9,5,5,3,3,6,6,4,6,36,1,279,1432,
scooby_state_559889cb1226|54|5 1029,7,8,8,3,2,3,4,5,7,6,3,37,4,304,1430,
scooby_state_559889cb1226|24|5 1083,7,2,10,1,5,4,3,0,2,1,1,43,5,261,1428,
scooby_state_559889cb1226|37|5 1040,3,7,8,4,3,1,1,2,6,4,1,49,6,290,1425,
scooby_state_559889cb1226|18|6 1020,6,8,6,8,5,7,3,5,3,7,94,4,2,246,1424,
scooby_state_559889cb1226|28|5 1024,8,5,10,7,5,1,2,0,2,3,4,46,3,296,1416,
scooby_state_559889cb1226|6|5 1027,5,8,10,3,3,2,10,4,4,3,3,40,6,285,1413,
scooby_state_559889cb1226|29|5 1045,5,7,6,6,4,2,2,3,2,2,2,45,2,279,1412,
scooby_state_559889cb1226|15|5 1008,6,2,13,3,5,3,3,2,5,2,4,53,4,292,1405,
scooby_state_559889cb1226|24|6 1011,6,12,5,7,0,7,3,4,2,6,74,6,8,251,1402,
scooby_state_559889cb1226|27|5 1040,11,1,7,5,3,3,2,5,1,1,5,52,4,259,1399,
scooby_state_559889cb1226|59|5 976,8,7,7,6,1,6,5,6,4,0,2,49,2,316,1395,
scooby_state_559889cb1226|47|5 1037,9,7,7,4,8,2,7,5,1,4,0,46,2,255,1394,
scooby_state_559889cb1226|8|6 1007,12,7,5,11,6,7,4,5,4,9,72,6,5,232,1392,
scooby_state_559889cb1226|44|5 995,10,6,4,5,3,2,4,2,11,2,7,50,1,287,1389,
scooby_state_559889cb1226|48|6 991,10,4,6,12,3,5,1,3,1,5,94,8,3,239,1385,
scooby_state_559889cb1226|55|6 990,14,8,9,6,5,2,6,5,4,7,77,2,4,240,1379,
scooby_state_559889cb1226|53|6 992,13,7,7,6,6,2,8,1,1,8,78,4,5,231,1369,
scooby_state_559889cb1226|14|5 1012,6,4,6,5,4,3,4,2,3,1,5,41,2,262,1360,
scooby_state_559889cb1226|35|5 976,7,5,10,3,6,2,3,2,4,2,6,40,1,293,1360,
scooby_state_559889cb1226|38|5 977,2,8,6,2,7,1,3,5,4,4,5,40,4,288,1356,
scooby_state_559889cb1226|57|5 980,12,4,6,4,6,7,2,3,2,6,2,38,5,274,1351,
scooby_state_559889cb1226|27|6 970,7,5,5,7,3,5,3,1,9,9,76,5,3,226,1334,
scooby_state_559889cb1226|43|5 984,7,7,6,1,6,5,3,2,1,0,2,54,5,248,1331,
scooby_state_559889cb1226|40|5 954,8,6,5,3,4,3,4,2,1,1,2,32,4,291,1320,
scooby_state_559889cb1226|22|5 978,6,10,9,4,4,0,2,4,3,0,5,36,1,253,1315,
scooby_state_559889cb1226|11|7 947,3,5,9,2,5,6,3,2,1,4,4,3,8,312,1314,
scooby_state_559889cb1226|43|6 946,11,7,5,7,5,1,4,3,6,5,80,3,2,225,1310,
scooby_state_559889cb1226|55|5 926,14,6,12,1,3,1,5,1,2,2,2,32,4,295,1306,
scooby_state_559889cb1226|33|5 937,6,5,10,4,3,1,2,3,2,1,0,32,0,296,1302,
scooby_state_559889cb1226|8|5 950,9,5,7,1,1,3,2,5,0,4,1,31,1,281,1301,
scooby_state_559889cb1226|23|5 997,6,4,4,2,4,4,3,5,5,1,1,27,2,231,1296,
scooby_state_559889cb1226|14|6 908,13,6,3,7,6,2,4,4,3,4,92,3,3,237,1295,
scooby_state_559889cb1226|16|6 931,9,4,9,8,2,8,2,7,2,2,82,1,9,215,1291,
scooby_state_559889cb1226|63|5 928,7,7,7,7,2,2,3,4,1,4,5,37,5,271,1290,
scooby_state_559889cb1226|31|6 907,13,11,4,6,10,5,6,7,5,0,67,3,7,236,1287,
scooby_state_559889cb1226|58|5 901,9,7,10,7,0,2,1,5,4,4,3,37,2,294,1286,
scooby_state_559889cb1226|7|6 901,18,11,6,1,3,4,2,3,2,2,86,7,8,232,1286,
scooby_state_559889cb1226|56|5 937,8,8,13,1,6,7,3,1,3,0,4,44,4,244,1283,
scooby_state_559889cb1226|20|5 952,8,1,5,4,1,2,3,3,3,4,7,46,2,236,1277,
scooby_state_559889cb1226|61|6 874,18,4,14,6,6,10,6,3,3,5,70,5,5,244,1273,
scooby_state_559889cb1226|46|5 945,7,3,4,3,4,5,3,3,2,1,3,35,6,248,1272,
scooby_state_559889cb1226|56|8 896,6,7,4,8,4,9,4,4,4,3,8,8,5,296,1266,
scooby_state_559889cb1226|39|5 913,6,3,11,1,8,2,0,3,5,5,3,43,3,258,1264,
scooby_state_559889cb1226|49|5 933,8,8,7,3,6,4,3,5,1,0,2,38,2,239,1259,
scooby_state_559889cb1226|25|6 895,8,6,3,9,2,5,7,4,2,3,88,5,8,214,1259,
scooby_state_559889cb1226|6|6 882,13,1,7,4,7,7,3,8,1,9,80,7,2,226,1257,
scooby_state_559889cb1226|51|5 898,5,4,9,2,2,5,2,4,3,4,5,37,2,274,1256,
scooby_state_559889cb1226|62|7 897,6,6,10,5,11,4,6,4,5,1,3,5,9,282,1254,
scooby_state_559889cb1226|22|7 892,6,5,4,5,5,3,7,5,1,5,4,2,5,295,1244,
scooby_state_559889cb1226|50|5 874,7,4,7,5,6,3,3,7,4,3,2,24,2,293,1244,
scooby_state_559889cb1226|46|6 877,11,9,9,3,5,7,2,13,4,1,79,2,5,208,1235,
scooby_state_559889cb1226|45|6 861,11,7,6,6,8,6,2,3,2,2,84,9,2,226,1235,
scooby_state_559889cb1226|21|6 892,11,8,9,5,2,4,5,4,3,7,68,4,4,207,1233,
scooby_state_559889cb1226|63|6 870,11,6,5,4,3,4,3,4,3,4,77,3,3,233,1233,
scooby_state_559889cb1226|51|6 898,9,9,9,4,5,1,2,0,3,7,71,7,3,203,1231,
scooby_state_559889cb1226|30|6 907,11,6,8,2,2,7,3,6,5,4,83,3,2,182,1231,
scooby_state_559889cb1226|59|6 892,13,4,4,4,5,7,5,3,0,5,73,2,3,209,1229,
scooby_state_559889cb1226|25|7 906,4,5,3,7,5,7,6,5,3,4,5,5,7,256,1228,
scooby_state_559889cb1226|13|6 920,9,4,3,3,7,1,5,2,3,5,60,2,6,194,1224,
scooby_state_559889cb1226|49|6 850,10,6,7,4,7,5,4,4,2,10,64,3,6,240,1222,
scooby_state_559889cb1226|12|6 880,5,8,12,6,0,7,2,7,3,4,71,2,7,207,1221,
scooby_state_559889cb1226|26|6 866,14,7,10,4,6,1,1,5,1,7,71,3,2,221,1219,
scooby_state_559889cb1226|52|5 882,7,10,7,3,2,2,2,4,5,1,6,40,6,242,1219,
scooby_state_559889cb1226|38|6 918,9,11,5,6,1,4,1,3,2,4,60,3,2,185,1214,
scooby_state_559889cb1226|40|6 890,10,5,6,4,7,5,3,6,5,4,68,5,5,190,1213,
scooby_state_559889cb1226|10|7 871,10,5,7,8,8,8,1,3,4,1,6,5,3,271,1211,
scooby_state_559889cb1226|34|6 883,11,6,9,2,4,8,4,4,3,2,75,5,1,193,1210,
scooby_state_559889cb1226|56|7 843,9,5,4,4,3,8,4,3,5,2,5,1,10,301,1207,
scooby_state_559889cb1226|28|6 858,10,10,3,2,5,5,2,4,6,5,78,2,1,211,1202,
scooby_state_559889cb1226|20|6 876,5,6,4,4,4,6,4,7,3,5,78,6,3,191,1202,
scooby_state_559889cb1226|56|6 824,3,11,9,5,6,4,3,5,3,7,74,8,1,232,1195,
scooby_state_559889cb1226|32|6 868,15,3,7,8,4,2,3,3,2,5,55,7,3,210,1195,
scooby_state_559889cb1226|37|6 831,10,10,8,10,4,1,3,2,3,4,58,5,7,235,1191,
scooby_state_559889cb1226|12|7 852,7,7,3,3,6,5,6,7,2,2,6,4,5,275,1190,
scooby_state_559889cb1226|49|7 871,5,9,9,2,10,6,2,1,0,7,6,5,4,249,1186,
scooby_state_559889cb1226|19|6 861,6,8,6,3,3,7,5,4,2,1,72,1,4,201,1184,
scooby_state_559889cb1226|43|7 853,6,8,5,4,5,9,3,5,5,2,8,3,2,263,1181,
scooby_state_559889cb1226|22|6 857,14,4,4,4,4,4,3,3,3,5,77,0,3,194,1179,
scooby_state_559889cb1226|17|7 850,5,10,5,5,6,6,5,6,2,2,2,3,11,257,1175,
scooby_state_559889cb1226|52|7 848,8,8,4,9,2,2,1,1,4,1,5,3,6,272,1174,
scooby_state_559889cb1226|5|5 874,2,5,8,0,4,2,4,1,3,4,1,37,3,225,1173,
scooby_state_559889cb1226|36|7 860,1,7,3,3,3,6,6,3,1,3,8,7,5,255,1171,
scooby_state_559889cb1226|60|6 830,17,7,8,3,6,4,4,4,2,1,78,3,2,200,1169,
scooby_state_559889cb1226|12|8 826,10,7,6,4,8,7,5,1,5,5,6,5,9,260,1164,
scooby_state_559889cb1226|14|7 858,5,7,7,5,8,6,5,9,3,2,3,2,8,234,1162,
scooby_state_559889cb1226|15|6 832,13,11,4,4,5,4,4,2,2,3,61,5,4,207,1161,
scooby_state_559889cb1226|38|7 842,7,6,5,4,5,3,0,6,4,2,9,2,4,258,1157,
scooby_state_559889cb1226|39|6 816,13,11,9,3,7,1,3,2,2,6,65,4,3,211,1156,
scooby_state_559889cb1226|63|7 820,5,8,5,4,5,7,6,6,6,2,6,6,10,259,1155,
scooby_state_559889cb1226|18|7 845,1,6,4,4,3,7,4,5,1,5,3,3,3,260,1154,
scooby_state_559889cb1226|9|8 825,4,8,8,7,5,4,3,3,2,4,3,4,4,265,1149,
scooby_state_559889cb1226|13|7 805,6,2,2,8,3,3,7,3,1,5,4,3,6,290,1148,
scooby_state_559889cb1226|47|6 784,12,9,7,4,2,1,5,5,2,3,72,3,4,231,1144,
scooby_state_559889cb1226|48|7 801,9,6,6,7,5,3,5,5,5,4,11,7,7,262,1143,
scooby_state_559889cb1226|8|7 843,11,6,5,2,2,5,1,4,5,1,8,9,4,237,1143,
scooby_state_559889cb1226|45|7 832,5,5,1,6,7,6,2,2,3,3,8,7,5,247,1139,
scooby_state_559889cb1226|63|8 798,7,4,7,6,8,4,5,7,4,3,3,7,6,265,1134,
scooby_state_559889cb1226|26|8 790,5,6,11,4,4,5,4,7,5,7,6,7,8,260,1129,
scooby_state_559889cb1226|9|7 812,9,5,6,7,5,4,3,6,5,3,1,5,3,249,1123,
scooby_state_559889cb1226|50|6 806,7,9,7,2,5,3,1,3,5,4,58,3,6,202,1121,
scooby_state_559889cb1226|11|6 792,8,12,8,1,7,2,1,6,2,11,72,3,1,192,1118,
scooby_state_559889cb1226|21|8 806,3,8,6,11,3,6,6,6,4,2,9,4,9,232,1115,
scooby_state_559889cb1226|17|6 816,9,4,6,6,4,4,3,7,2,1,62,3,2,185,1114,
scooby_state_559889cb1226|44|7 807,4,8,5,5,2,8,2,5,0,1,3,2,6,251,1109,
scooby_state_559889cb1226|28|7 793,8,9,9,3,6,4,6,3,2,5,6,4,4,242,1104,
scooby_state_559889cb1226|44|6 790,10,5,5,4,7,6,3,3,5,4,60,3,7,191,1103,
scooby_state_559889cb1226|21|7 795,7,8,1,4,5,1,8,5,2,3,6,3,6,249,1103,
scooby_state_559889cb1226|32|7 790,5,8,4,5,2,6,3,2,2,2,2,8,6,252,1097,
scooby_state_559889cb1226|20|7 836,4,1,2,4,3,6,3,3,5,3,3,5,12,206,1096,
scooby_state_559889cb1226|52|6 789,12,6,4,1,4,4,2,4,1,2,74,6,3,179,1091,
scooby_state_559889cb1226|9|6 791,11,7,5,1,2,3,1,4,2,4,52,5,1,198,1087,
scooby_state_559889cb1226|57|7 754,10,6,6,3,2,7,4,4,5,1,4,4,5,267,1082,
scooby_state_559889cb1226|19|8 761,4,1,3,5,7,6,5,6,6,6,6,7,3,248,1074,
scooby_state_559889cb1226|33|6 772,11,5,4,2,5,5,3,3,3,5,66,3,2,176,1065,
scooby_state_559889cb1226|37|7 778,4,8,7,4,6,4,7,5,3,3,5,1,12,216,1063,
scooby_state_559889cb1226|35|6 790,6,7,5,4,7,1,1,2,2,2,58,2,3,168,1058,
scooby_state_559889cb1226|10|8 744,12,2,10,6,10,9,1,6,2,2,5,1,6,238,1054,
scooby_state_559889cb1226|19|7 749,4,7,6,5,6,8,5,7,3,4,6,5,3,235,1053,
scooby_state_559889cb1226|61|8 743,7,6,2,9,5,8,4,7,6,6,3,4,3,237,1050,
scooby_state_559889cb1226|45|9 773,10,1,5,5,2,3,3,1,1,1,4,4,1,233,1047,
scooby_state_559889cb1226|60|7 739,6,9,4,5,3,6,3,1,4,3,5,3,6,250,1047,
scooby_state_559889cb1226|61|7 731,10,5,2,11,5,4,3,7,3,6,4,9,5,239,1044,
scooby_state_559889cb1226|55|8 748,12,6,5,3,4,5,3,5,5,1,5,7,3,232,1044,
scooby_state_559889cb1226|27|7 752,8,5,3,5,3,6,4,4,3,4,2,5,9,229,1042,
scooby_state_559889cb1226|47|7 737,5,3,1,2,6,10,3,5,2,5,4,10,5,243,1041,
scooby_state_559889cb1226|31|7 772,3,8,1,4,4,8,3,1,3,4,1,3,6,218,1039,
scooby_state_559889cb1226|44|8 747,9,7,3,3,6,3,6,3,5,3,6,7,3,225,1036,
scooby_state_559889cb1226|33|7 771,2,4,2,2,5,2,2,4,1,2,1,3,5,226,1032,
scooby_state_559889cb1226|41|6 726,14,4,5,2,5,4,4,1,1,3,72,3,3,183,1030,
scooby_state_559889cb1226|54|8 734,5,3,8,6,3,7,6,6,2,3,7,4,3,233,1030,
scooby_state_559889cb1226|36|10 728,5,6,6,5,3,3,5,4,4,2,7,5,3,241,1027,
scooby_state_559889cb1226|7|7 740,2,9,3,2,5,4,7,0,1,3,2,3,12,233,1026,
scooby_state_559889cb1226|11|9 735,2,4,1,7,0,1,3,3,1,0,5,2,3,257,1024,
scooby_state_559889cb1226|26|7 736,5,10,0,6,3,3,4,2,2,1,4,7,6,234,1023,
scooby_state_559889cb1226|29|8 731,10,9,3,5,7,3,7,3,2,2,4,3,1,233,1023,
scooby_state_559889cb1226|42|8 727,2,10,5,7,7,4,5,4,2,6,5,3,7,226,1020,
scooby_state_559889cb1226|53|7 710,6,5,5,1,8,4,4,3,3,4,6,3,4,252,1018,
scooby_state_559889cb1226|24|7 729,5,7,3,5,1,3,1,0,0,4,4,3,3,249,1017,
scooby_state_559889cb1226|58|6 731,8,8,4,6,4,6,10,3,6,3,55,6,3,163,1016,
scooby_state_559889cb1226|57|6 716,8,5,5,7,6,3,1,3,7,1,64,3,6,180,1015,
scooby_state_559889cb1226|32|8 727,7,9,4,5,7,8,6,4,5,1,4,3,7,214,1011,
scooby_state_559889cb1226|29|7 742,6,2,4,5,7,3,3,1,2,2,3,3,7,220,1010,
scooby_state_559889cb1226|18|8 707,7,9,5,6,6,5,8,1,5,3,2,1,8,234,1007,
scooby_state_559889cb1226|20|8 737,7,2,7,7,6,4,4,4,5,4,5,7,6,200,1005,
scooby_state_559889cb1226|36|8 723,7,7,5,5,11,4,2,6,3,2,5,4,4,216,1004,
scooby_state_559889cb1226|41|7 728,2,3,3,2,4,0,2,2,4,3,2,6,8,232,1001,
scooby_state_559889cb1226|55|10 724,8,7,6,6,7,2,5,4,1,2,3,4,8,213,1000,
scooby_state_559889cb1226|16|7 725,8,5,4,5,3,6,3,4,1,3,2,5,5,219,998,
scooby_state_559889cb1226|34|7 729,3,2,6,0,6,4,4,2,3,3,1,3,4,227,997,
scooby_state_559889cb1226|23|6 757,7,2,6,4,1,2,1,3,2,4,52,3,2,150,996,
scooby_state_559889cb1226|42|7 732,5,7,1,3,2,4,5,4,2,3,6,3,7,206,990,
scooby_state_559889cb1226|24|8 702,4,6,2,7,4,6,3,6,2,5,10,4,2,226,989,
scooby_state_559889cb1226|30|7 719,3,3,7,4,3,2,7,7,2,0,2,8,9,213,989,
scooby_state_559889cb1226|58|8 706,4,5,12,4,6,6,4,3,3,2,4,5,1,223,988,
scooby_state_559889cb1226|8|8 709,9,7,6,10,7,5,3,8,2,1,5,1,5,208,986,
scooby_state_559889cb1226|22|8 713,7,5,3,3,6,1,5,4,6,5,2,2,6,218,986,
scooby_state_559889cb1226|39|8 714,6,6,3,4,5,1,3,0,4,2,4,4,3,222,981,
scooby_state_559889cb1226|36|9 730,6,4,4,2,1,2,0,5,3,2,4,1,3,213,980,
scooby_state_559889cb1226|29|6 727,11,6,6,1,7,2,2,3,1,3,57,2,1,146,975,
scooby_state_559889cb1226|45|8 704,10,4,3,3,4,6,3,2,2,3,4,5,8,214,975,
scooby_state_559889cb1226|11|8 691,4,7,8,6,5,4,7,3,2,6,4,7,7,214,975,
scooby_state_559889cb1226|40|7 686,4,2,5,8,6,7,8,2,2,3,6,1,8,225,973,
scooby_state_559889cb1226|47|8 701,10,6,6,7,4,4,3,4,3,3,8,7,3,204,973,
scooby_state_559889cb1226|40|8 713,3,5,9,7,7,4,4,5,3,2,2,5,2,202,973,
scooby_state_559889cb1226|46|8 704,6,6,6,4,6,4,3,3,1,4,4,4,1,214,970,
scooby_state_559889cb1226|21|9 692,5,7,4,6,0,2,3,1,4,4,2,2,1,234,967,
scooby_state_559889cb1226|49|8 678,4,8,9,3,5,3,4,2,6,3,7,4,4,226,966,
scooby_state_559889cb1226|35|7 685,8,6,11,9,1,2,0,5,3,4,5,3,4,218,964,
scooby_state_559889cb1226|23|8 696,2,11,6,5,3,5,3,2,8,3,4,1,1,203,953,
scooby_state_559889cb1226|23|7 699,5,13,4,2,5,5,1,4,4,7,5,3,4,192,953,
scooby_state_559889cb1226|37|8 689,5,7,5,5,1,6,2,1,2,2,2,5,3,218,953,
scooby_state_559889cb1226|27|9 663,11,8,3,3,0,4,2,0,2,0,6,2,3,245,952,
scooby_state_559889cb1226|15|7 677,5,9,6,5,7,1,2,5,4,1,3,3,5,219,952,
scooby_state_559889cb1226|39|7 691,1,4,1,1,5,9,5,3,2,1,6,3,2,214,948,
scooby_state_559889cb1226|57|8 681,13,5,7,7,2,4,3,4,6,3,2,8,6,190,941,
scooby_state_559889cb1226|49|9 668,2,5,5,4,1,2,2,2,2,0,4,1,2,240,940,
scooby_state_559889cb1226|14|11 627,5,5,9,2,10,3,1,3,4,4,77,6,1,182,939,
scooby_state_559889cb1226|48|8 662,6,6,5,5,7,3,4,4,1,4,7,7,3,215,939,
scooby_state_559889cb1226|54|7 671,6,4,3,3,6,9,6,5,4,0,3,2,6,210,938,
scooby_state_559889cb1226|51|7 644,9,6,4,2,7,3,8,1,2,1,5,5,6,234,937,
scooby_state_559889cb1226|58|7 661,5,5,8,6,3,7,8,2,3,6,2,8,9,204,937,
scooby_state_559889cb1226|15|8 649,7,6,9,5,2,5,3,6,5,2,6,3,7,221,936,
scooby_state_559889cb1226|40|9 692,3,3,3,3,5,2,1,1,1,3,2,4,0,212,935,
scooby_state_559889cb1226|20|9 697,2,2,4,5,1,3,3,5,3,1,3,3,1,202,935,
scooby_state_559889cb1226|38|8 672,6,6,6,3,0,6,4,3,2,5,4,7,3,203,930,
scooby_state_559889cb1226|52|8 647,4,3,8,5,1,4,3,3,4,5,3,6,3,229,928,
scooby_state_559889cb1226|28|8 666,8,8,6,3,1,3,7,6,0,2,2,4,4,207,927,
scooby_state_559889cb1226|55|9 622,5,2,5,3,5,3,3,4,0,5,5,6,6,252,926,
scooby_state_559889cb1226|30|8 667,7,5,3,4,5,3,2,1,2,5,7,3,4,207,925,
scooby_state_559889cb1226|53|8 674,12,5,8,6,2,4,7,4,1,3,2,2,5,188,923,
scooby_state_559889cb1226|14|8 665,7,8,3,5,3,6,4,5,1,3,5,1,5,201,922,
scooby_state_559889cb1226|62|8 651,7,7,4,7,2,4,6,4,4,2,4,6,3,208,919,
scooby_state_559889cb1226|50|7 644,5,4,8,5,4,5,2,2,3,1,3,5,3,225,919,
scooby_state_559889cb1226|60|8 649,4,7,4,3,4,3,6,2,3,4,5,7,3,209,913,
scooby_state_559889cb1226|27|8 665,6,3,6,7,5,6,1,1,5,3,3,3,4,194,912,
scooby_state_559889cb1226|62|9 645,8,3,4,7,1,8,1,1,3,3,1,3,2,219,909,
scooby_state_559889cb1226|10|9 617,8,7,4,5,4,3,3,0,7,0,3,2,1,245,909,
scooby_state_559889cb1226|48|9 646,4,4,4,7,1,3,1,2,2,2,2,0,3,226,907,
scooby_state_559889cb1226|59|7 647,2,8,2,2,4,4,2,5,3,0,3,1,7,216,906,
scooby_state_559889cb1226|33|8 642,5,6,4,3,4,1,5,3,4,1,7,4,7,210,906,
scooby_state_559889cb1226|37|9 636,5,5,2,5,3,2,4,0,1,1,5,1,4,221,895,
scooby_state_559889cb1226|54|9 613,10,6,1,10,3,3,3,4,3,2,2,6,3,225,894,
scooby_state_559889cb1226|13|9 645,5,6,5,2,1,4,4,2,1,0,1,1,4,209,890,
scooby_state_559889cb1226|46|7 623,7,5,5,5,3,6,2,0,3,8,3,7,6,205,888,
scooby_state_559889cb1226|50|8 614,3,12,4,2,1,4,3,4,4,5,5,5,3,217,886,
scooby_state_559889cb1226|31|8 628,7,6,3,2,2,6,2,2,1,4,7,5,2,200,877,
scooby_state_559889cb1226|13|8 626,4,7,5,4,2,6,3,6,1,2,3,2,4,199,874,
scooby_state_559889cb1226|25|8 640,8,5,5,5,6,6,2,2,3,3,3,1,5,180,874,
scooby_state_559889cb1226|59|9 615,6,3,4,5,3,1,0,0,1,2,4,2,1,226,873,
scooby_state_559889cb1226|45|13 609,10,9,10,6,9,2,4,6,2,3,6,6,5,186,873,
scooby_state_559889cb1226|34|8 632,10,2,4,0,5,1,5,2,3,2,5,8,2,191,872,
scooby_state_559889cb1226|35|9 616,4,4,5,3,1,2,5,1,2,2,3,2,1,219,870,
scooby_state_559889cb1226|14|9 592,6,4,5,1,2,1,2,4,1,7,5,3,2,233,868,
scooby_state_559889cb1226|16|8 617,2,5,6,4,1,6,6,5,1,1,6,2,4,202,868,
scooby_state_559889cb1226|51|8 607,3,6,5,11,4,2,3,6,5,1,5,5,0,198,861,
scooby_state_559889cb1226|35|8 612,7,3,1,4,3,1,1,1,5,3,5,5,6,201,858,
scooby_state_559889cb1226|53|9 582,5,5,4,7,4,4,5,3,1,2,1,3,2,228,856,
scooby_state_559889cb1226|59|10 600,5,6,10,5,6,6,3,7,1,6,4,4,2,188,853,
scooby_state_559889cb11e3|21|0 263,40,41,42,43,43,44,42,42,42,40,0,49,41,79,851,
scooby_state_559889cb1226|19|9 610,9,3,5,1,1,3,2,1,2,1,4,0,1,208,851,
scooby_state_559889cb1226|43|8 611,4,4,3,4,8,3,2,1,1,2,3,4,2,199,851,
scooby_state_559889cb1226|31|9 619,2,3,2,5,3,3,0,0,1,0,2,6,0,205,851,
scooby_state_559889cb1226|33|9 623,3,3,3,4,2,3,0,4,1,2,1,2,0,199,850,
scooby_state_559889cb1226|51|9 615,4,6,4,2,0,3,2,1,1,1,4,4,0,202,849,
scooby_state_559889cb1226|18|9 594,6,4,4,4,3,4,3,2,1,2,1,3,0,217,848,
scooby_state_559889cb1226|26|9 618,4,2,2,8,1,6,0,2,0,1,2,2,1,198,847,
scooby_state_559889cb1226|24|9 613,6,7,3,7,3,4,1,1,0,0,1,1,1,196,844,
scooby_state_559889cb1226|41|10 612,12,5,9,3,5,4,5,3,2,2,4,3,2,171,842,
scooby_state_559889cb1226|24|10 604,6,3,3,7,3,4,6,3,1,1,1,4,3,192,841,
scooby_state_559889cb1226|17|8 613,2,9,4,4,3,6,2,3,1,2,5,3,3,180,840,
scooby_state_559889cb1226|47|11 569,4,10,1,3,3,2,3,5,1,2,64,2,2,165,836,
scooby_state_559889cb1226|26|12 567,6,5,10,6,2,2,4,4,2,4,8,1,2,213,836,
scooby_state_559889cb1226|56|9 611,6,5,2,3,3,3,2,5,1,2,4,1,1,186,835,
scooby_state_559889cb1226|61|9 598,4,7,4,3,3,3,1,1,2,3,4,0,2,198,833,
scooby_state_559889cb1226|52|9 592,3,4,2,4,3,6,1,2,1,2,2,3,2,205,832,
scooby_state_559889cb1226|31|10 571,8,5,9,3,4,3,3,2,5,2,4,4,5,204,832,
scooby_state_559889cb1226|39|9 590,2,5,2,5,2,6,2,1,3,2,1,3,3,204,831,
scooby_state_559889cb1226|57|9 568,3,5,3,7,1,5,3,2,3,3,3,2,2,219,829,
scooby_state_559889cb1226|15|9 590,1,4,5,4,4,2,0,4,2,1,2,2,2,205,828,
scooby_state_559889cb1226|13|11 564,5,4,1,5,6,3,1,5,1,4,56,2,1,169,827,
scooby_state_559889cb1226|11|10 569,11,4,3,2,5,4,5,1,1,4,2,3,5,207,826,
scooby_state_559889cb1226|25|10 587,4,5,6,4,6,4,2,1,2,2,1,4,7,189,824,
scooby_state_559889cb1226|22|9 601,4,2,0,4,1,8,1,1,0,0,3,4,0,191,820,
scooby_state_559889cb1226|46|9 569,5,6,6,1,2,2,1,4,0,0,1,2,1,219,819,
scooby_state_559889cb1226|59|11 540,3,9,0,4,5,5,3,1,2,5,63,3,5,169,817,
scooby_state_559889cb1226|30|9 586,4,3,2,6,2,1,2,2,2,1,1,3,6,196,817,
scooby_state_559889cb1226|12|9 591,9,4,2,4,5,3,2,1,1,0,2,1,1,190,816,
scooby_state_559889cb1226|36|11 555,2,3,4,3,8,5,3,3,3,3,65,2,3,153,815,
scooby_state_559889cb1226|63|10 533,11,10,8,3,3,4,4,5,3,4,5,5,2,213,813,
scooby_state_559889cb1226|21|11 573,4,3,5,4,2,1,3,5,3,3,48,2,3,154,813,
scooby_state_559889cb1226|32|10 576,2,3,6,3,6,4,6,5,6,1,4,6,1,182,811,
scooby_state_559889cb1226|63|9 538,7,5,2,4,4,1,0,2,2,2,3,2,9,228,809,
scooby_state_559889cb1226|43|11 558,6,4,8,4,5,1,3,4,1,0,66,3,2,140,805,
scooby_state_559889cb1226|53|11 532,6,5,9,2,7,4,4,1,3,5,70,3,3,150,804,
scooby_state_559889cb1226|24|11 531,2,9,6,5,4,1,1,3,6,2,68,4,1,161,804,
scooby_state_559889cb1226|13|10 536,7,3,7,6,6,2,2,5,2,2,4,3,1,217,803,
scooby_state_559889cb1226|34|9 579,2,4,3,3,4,0,2,2,1,0,3,1,1,197,802,
scooby_state_559889cb1226|60|9 566,5,3,0,6,3,2,4,0,3,0,4,3,4,196,799,
scooby_state_559889cb1226|49|11 550,3,5,6,3,5,0,2,2,4,2,55,8,3,149,797,
scooby_state_559889cb1226|14|10 551,11,4,6,4,3,8,4,4,2,1,4,4,0,191,797,
scooby_state_559889cb1226|29|9 574,2,3,4,1,4,2,7,0,1,1,1,1,2,193,796,
scooby_state_559889cb1226|26|10 560,8,5,4,4,3,4,3,2,4,2,4,3,2,187,795,
scooby_state_559889cb1226|32|9 575,2,5,2,2,2,1,1,1,0,0,1,2,2,197,793,
scooby_state_559889cb1226|38|10 551,8,4,2,3,8,3,6,5,4,2,3,4,5,185,793,
scooby_state_559889cb1226|21|10 568,8,3,9,2,1,7,4,4,0,3,4,4,6,168,791,
scooby_state_559889cb1226|41|8 563,4,8,5,5,4,4,1,3,6,2,5,3,3,174,790,
scooby_state_559889cb1226|47|9 587,5,5,1,4,2,2,1,2,2,1,2,3,4,166,787,
scooby_state_559889cb1226|22|10 559,8,7,5,4,1,4,0,1,1,2,5,4,4,180,785,
scooby_state_559889cb1226|16|9 545,7,5,3,3,0,1,2,1,5,2,2,1,4,204,785,
scooby_state_559889cb1226|36|12 567,3,3,3,5,1,4,4,2,3,2,7,2,0,179,785,
scooby_state_559889cb1226|13|12 558,10,1,8,2,4,3,3,0,2,1,6,4,4,178,784,
scooby_state_559889cb1226|20|10 534,2,4,2,5,2,6,5,5,4,4,5,2,1,203,784,
scooby_state_559889cb1226|57|10 544,8,5,4,8,2,3,3,2,4,4,7,4,2,183,783,
scooby_state_559889cb1226|53|10 553,8,3,4,7,3,4,5,4,5,3,5,3,3,172,782,
scooby_state_559889cb1226|59|8 545,5,3,3,2,6,2,6,3,2,9,4,1,4,186,781,
scooby_state_559889cb1226|54|10 565,9,1,4,7,3,5,4,2,3,2,4,1,3,167,780,
scooby_state_559889cb1226|28|9 567,5,3,2,3,2,4,1,1,0,2,1,3,1,185,780,
scooby_state_559889cb1226|58|10 532,4,6,4,2,4,4,4,3,6,1,7,2,6,194,779,
scooby_state_559889cb1226|25|11 554,5,3,4,4,3,2,5,1,2,0,61,1,3,130,778,
scooby_state_559889cb1226|46|10 571,8,5,3,3,6,4,6,2,2,2,3,4,4,154,777,
scooby_state_559889cb1226|37|11 524,5,9,4,4,2,1,1,4,5,1,61,2,3,149,775,
scooby_state_559889cb1226|23|9 535,4,2,2,6,2,3,1,0,1,1,3,2,3,207,772,
scooby_state_559889cb1226|30|10 549,4,8,1,10,3,7,0,1,3,4,3,3,3,169,768,
scooby_state_559889cb1226|12|10 533,9,9,5,3,3,6,3,4,3,2,3,3,4,175,765,
scooby_state_559889cb1226|58|9 563,7,4,3,1,2,1,3,0,1,0,1,5,2,172,765,
scooby_state_559889cb1226|44|9 543,5,3,2,2,1,3,1,1,3,1,2,0,0,198,765,
scooby_state_559889cb1226|22|12 534,6,3,2,6,2,3,2,3,2,3,5,1,3,189,764,
scooby_state_559889cb1226|43|9 545,3,2,1,4,0,3,5,2,1,2,3,1,3,187,762,
scooby_state_559889cb1226|34|10 523,4,8,2,3,5,6,0,2,3,1,8,3,3,185,756,
scooby_state_559889cb1226|61|10 521,5,5,3,4,4,2,3,2,5,2,2,12,6,180,756,
scooby_state_559889cb1226|51|11 520,2,8,1,1,1,3,1,3,3,1,53,2,6,148,753,
scooby_state_559889cb1226|49|13 535,7,3,10,5,5,3,5,8,2,6,3,3,4,154,753,
scooby_state_559889cb1226|12|11 503,4,5,4,2,2,3,1,3,3,0,67,3,0,152,752,
scooby_state_559889cb1226|42|9 522,3,7,1,7,1,1,4,3,1,2,2,2,1,195,752,
scooby_state_559889cb1226|38|9 558,2,3,3,5,2,1,1,3,3,0,1,0,0,170,752,
scooby_state_559889cb1226|40|11 536,4,3,8,7,3,1,3,3,1,2,44,4,1,131,751,
scooby_state_559889cb1226|29|11 499,3,6,4,3,5,4,3,0,5,1,58,6,4,150,751,
scooby_state_559889cb1226|23|10 530,7,5,4,9,4,2,4,3,3,7,4,1,3,164,750,
scooby_state_559889cb1226|45|10 522,6,3,5,6,2,4,2,3,1,3,4,1,2,186,750,
scooby_state_559889cb1226|18|10 512,7,3,3,5,4,6,1,1,1,2,4,3,3,192,747,
scooby_state_559889cb1226|62|10 501,4,2,7,5,6,6,3,5,5,1,4,3,3,187,742,
scooby_state_559889cb1226|9|9 522,4,5,6,3,0,2,1,3,3,1,1,3,0,187,741,
scooby_state_559889cb1226|48|10 514,10,3,4,6,3,3,2,2,5,5,2,3,5,172,739,
scooby_state_559889cb1226|51|10 514,11,4,3,5,2,6,5,5,4,1,3,5,2,165,735,
scooby_state_559889cb1226|15|10 516,8,7,3,9,3,2,5,3,3,1,0,4,2,169,735,
scooby_state_559889cb1226|10|10 535,5,5,3,0,2,5,5,3,0,3,0,1,7,161,735,
scooby_state_559889cb1226|60|12 503,5,7,7,7,1,6,3,3,5,1,4,1,4,178,735,
scooby_state_559889cb1226|23|11 512,4,7,4,2,3,4,3,3,1,2,48,2,5,134,734,
scooby_state_559889cb1226|52|10 506,4,3,2,4,6,5,3,1,1,1,3,4,4,186,733,
scooby_state_559889cb1226|39|10 511,4,4,4,10,3,5,3,2,1,4,4,3,5,170,733,
scooby_state_559889cb1226|61|13 513,7,6,6,3,2,7,1,6,2,1,5,2,5,165,731,
scooby_state_559889cb1226|42|10 495,4,4,4,6,5,8,1,1,4,2,4,1,3,188,730,
scooby_state_559889cb1226|28|10 508,6,3,4,2,7,2,5,2,4,2,4,4,4,172,729,
scooby_state_559889cb1226|56|10 508,10,7,5,4,2,4,5,6,5,1,3,3,3,161,727,
scooby_state_559889cb1226|19|10 512,4,3,2,3,3,7,2,3,5,3,4,4,4,168,727,
scooby_state_559889cb1226|11|11 495,3,2,4,2,5,4,3,4,5,2,47,0,5,144,725,
scooby_state_559889cb1226|48|11 481,4,6,7,4,1,1,2,2,4,2,64,4,1,142,725,
scooby_state_559889cb1226|43|10 518,11,5,4,4,4,6,5,3,2,3,3,1,3,153,725,
scooby_state_559889cb1226|17|9 504,1,6,2,5,2,5,1,1,2,2,0,0,1,192,724,
scooby_state_559889cb1226|56|11 494,1,7,3,3,4,5,2,0,2,3,61,1,4,133,723,
scooby_state_559889cb1226|27|10 511,5,3,1,7,5,6,2,2,4,4,6,1,2,163,722,
scooby_state_559889cb1226|41|9 512,3,3,4,3,3,2,1,1,1,1,2,3,1,180,720,
scooby_state_559889cb1226|27|11 484,3,4,3,3,1,2,4,5,1,1,59,6,4,139,719,
scooby_state_559889cb1226|29|10 500,8,9,5,5,6,2,3,2,1,5,2,1,1,167,717,
scooby_state_559889cb1226|25|9 509,1,3,4,5,0,3,2,1,0,0,3,0,3,182,716,
scooby_state_559889cb1226|60|11 479,4,8,2,4,1,1,2,2,4,4,57,3,3,140,714,
scooby_state_559889cb1226|19|11 486,2,5,5,6,6,0,2,2,1,1,60,7,3,128,714,
scooby_state_559889cb1226|38|11 511,2,6,8,5,1,0,2,2,5,2,40,2,5,122,713,
scooby_state_559889cb1226|49|10 514,8,3,2,5,1,3,2,2,4,2,2,1,1,162,712,
scooby_state_559889cb1226|47|10 501,5,3,6,2,3,0,1,1,3,2,4,3,3,174,711,
scooby_state_559889cb1226|42|12 499,3,3,5,4,0,5,1,1,1,2,3,2,4,175,708,
scooby_state_559889cb1226|12|12 468,4,3,3,5,2,2,1,4,3,5,5,5,1,197,708,
scooby_state_559889cb1226|22|11 472,4,2,1,5,7,11,2,3,3,3,69,4,2,119,707,
scooby_state_559889cb1226|37|10 518,6,4,1,1,5,1,8,4,2,2,2,3,1,148,706,
scooby_state_559889cb1226|26|11 493,5,3,2,5,9,4,0,2,4,4,51,3,3,116,704,
scooby_state_559889cb1226|54|12 504,3,2,6,2,0,1,4,0,4,3,5,3,4,162,703,
scooby_state_559889cb1226|27|13 497,4,3,6,6,3,2,5,5,4,1,3,6,6,151,702,
scooby_state_559889cb1226|54|11 471,5,7,2,5,3,4,1,4,3,1,52,3,0,141,702,
scooby_state_559889cb1226|29|12 496,5,3,5,1,1,7,3,3,0,1,4,1,2,169,701,
scooby_state_559889cb1226|40|10 487,6,4,6,2,6,4,2,2,2,4,0,2,4,170,701,
scooby_state_559889cb1226|63|11 472,6,5,6,2,5,3,2,1,1,5,49,0,6,135,698,
scooby_state_559889cb1226|17|10 497,3,5,3,3,4,4,3,3,4,2,1,3,2,161,698,
scooby_state_559889cb1226|34|12 501,2,7,3,2,3,2,1,3,1,0,5,4,4,158,696,
scooby_state_559889cb1226|60|10 462,6,2,6,5,4,6,4,3,6,3,1,0,8,179,695,
scooby_state_559889cb1226|45|11 471,5,3,10,4,8,5,3,1,5,3,56,1,4,115,694,
scooby_state_559889cb1226|50|11 486,4,4,2,3,4,0,8,1,0,1,35,1,5,139,693,
scooby_state_559889cb1226|51|13 490,6,10,5,10,3,9,4,2,2,0,6,3,5,138,693,
scooby_state_559889cb1226|36|14 481,5,7,2,6,4,8,3,7,4,2,6,4,7,147,693,
scooby_state_559889cb1226|55|12 466,1,3,11,3,5,5,2,2,1,1,4,4,2,179,689,
scooby_state_559889cb1226|55|13 478,6,8,2,8,6,3,4,3,2,3,3,4,5,151,686,
scooby_state_559889cb1226|18|11 470,3,11,7,6,3,3,0,1,3,0,45,2,0,131,685,
scooby_state_559889cb1226|21|12 457,3,0,4,3,2,3,6,2,1,5,3,0,1,194,684,
scooby_state_559889cb1226|33|10 477,5,6,3,6,4,1,3,2,3,2,4,2,3,162,683,
scooby_state_559889cb1226|30|11 469,1,5,2,2,5,1,5,3,1,0,43,2,1,142,682,
scooby_state_559889cb1226|16|10 466,6,2,3,1,6,5,3,5,3,4,1,5,2,169,681,
scooby_state_559889cb1226|34|13 445,10,7,5,2,7,7,1,2,1,4,7,3,9,170,680,
scooby_state_559889cb1226|48|12 477,4,3,0,8,5,2,0,2,2,0,2,1,1,171,678,
scooby_state_559889caf580|58|-3 215,39,40,34,25,26,21,24,25,25,24,35,32,38,74,677,
scooby_state_559889cb1226|14|12 474,3,5,3,1,1,6,4,2,1,6,6,4,6,152,674,
scooby_state_559889cb1226|61|14 471,4,5,3,5,8,9,2,4,5,2,5,2,6,142,673,
scooby_state_14e493a62076|59|0 2,0,0,1,1,1,2,2,1,1,3,7,2,648,2,673,
scooby_state_559889cb1226|59|12 438,9,4,4,4,5,1,0,4,4,2,6,3,5,182,671,
scooby_state_559889cb1226|44|10 493,6,3,2,2,0,6,2,1,1,0,4,3,3,145,671,
scooby_state_559889caf720|61|2 0,0,0,1,2,0,0,1,0,2,0,2,662,0,0,670,
scooby_state_559889cb1226|15|11 449,3,4,4,3,8,1,1,0,3,2,51,3,4,134,670,
scooby_state_559889cb1226|20|11 452,4,4,3,5,3,2,1,5,2,3,46,3,1,136,670,
scooby_state_559889cb1226|58|11 477,7,3,2,8,5,6,0,3,5,2,40,3,4,104,669,
scooby_state_559889caf5b0|59|0 9,14,10,4,6,7,5,6,3,6,4,557,9,15,14,669,
scooby_state_559889cb1226|26|13 461,8,6,1,7,5,7,3,1,4,3,2,3,1,154,666,
scooby_state_559889cb1226|42|11 477,6,1,2,5,2,3,4,2,0,2,41,5,1,114,665,
scooby_state_559889cb1226|15|12 470,2,4,7,5,5,2,3,5,4,2,6,2,3,145,665,
scooby_state_559889cb1226|55|11 433,4,4,2,3,4,3,0,4,1,1,60,2,6,138,665,
scooby_state_559889cb1226|62|11 455,6,7,3,2,2,4,1,3,1,1,51,2,4,122,664,
scooby_state_559889cb1226|50|9 464,3,5,3,7,0,4,1,1,0,1,3,1,0,170,663,
scooby_state_559889cb1226|37|12 463,5,1,4,4,2,0,2,1,2,2,7,2,2,165,662,
scooby_state_559889cb1226|43|12 480,4,2,8,8,1,2,2,2,3,0,4,0,2,144,662,
scooby_state_14e493a6207d|48|0 372,8,6,6,8,9,7,7,8,5,6,160,39,7,13,661,
scooby_state_559889cb1226|16|12 461,7,2,1,1,1,4,2,2,3,1,9,1,3,161,659,
scooby_state_559889cb1226|35|10 467,7,4,5,4,5,4,3,1,0,2,1,5,3,146,657,
scooby_state_559889cb1226|56|17 471,9,3,5,3,2,5,3,4,3,3,4,4,6,132,657,
scooby_state_559889cb1226|42|15 442,6,4,4,4,5,2,4,3,5,1,7,5,3,161,656,
scooby_state_14e493a62e55|10|0 116,17,16,11,14,13,18,10,6,1,0,411,7,10,5,655,
scooby_state_559889cb1226|44|11 454,2,5,4,7,2,2,0,3,2,0,51,0,1,120,653,
scooby_state_559889cb1226|35|11 463,5,4,3,4,1,5,2,0,3,1,49,3,0,109,652,
[...]
scooby_state_14e493a8657e|15|-33 0,0,0,0,1,0,0,0,0,0,0,0,0,0,0,1,
scooby_state_14e493a62cd4|1|-17 1,0,0,0,0,0,0,0,0,0,0,0,0,0,0,1,
scooby_state_14e493a86706|52|14 0,0,0,0,0,0,0,0,0,0,0,1,0,0,0,1,
scooby_state_14e493a6015a|56|0 0,0,0,0,0,0,0,0,0,0,0,1,0,0,0,1,
scooby_state_14e493a5ff46|38|1 1,0,0,0,0,0,0,0,0,0,0,0,0,0,0,1,
scooby_state_14e493a62207|61|3 0,0,0,0,1,0,0,0,0,0,0,0,0,0,0,1,
scooby_state_14e493a62c30|48|8 1,0,0,0,0,0,0,0,0,0,0,0,0,0,0,1,
scooby_state_14e493a5f795|62|-1 0,0,0,1,0,0,0,0,0,0,0,0,0,0,0,1,
scooby_state_14e493a62cb6|18|-16 0,0,0,0,0,0,0,0,0,0,1,0,0,0,0,1,
scooby_state_559889cb12dc|43|10 1,0,0,0,0,0,0,0,0,0,0,0,0,0,0,1,
scooby_state_14e493a5b9de|2|1 1,0,0,0,0,0,0,0,0,0,0,0,0,0,0,1,
scooby_state_14e493a62a39|25|-2 0,1,0,0,0,0,0,0,0,0,0,0,0,0,0,1,
scooby_state_14e493a5fef2|36|10 1,0,0,0,0,0,0,0,0,0,0,0,0,0,0,1,
scooby_state_14e493a5f5a7|10|1 1,0,0,0,0,0,0,0,0,0,0,0,0,0,0,1,
scooby_state_14e493a5f867|53|32 1,0,0,0,0,0,0,0,0,0,0,0,0,0,0,1,
scooby_state_14e493a6298d|12|-1 0,0,0,0,1,0,0,0,0,0,0,0,0,0,0,1,
scooby_state_14e493a62d3b|55|-8 0,0,0,0,0,0,0,0,0,0,0,0,0,1,0,1,
scooby_state_14e493a8670a|22|0 0,0,0,0,0,0,0,0,0,0,0,1,0,0,0,1,
scooby_state_14e493a86650|42|31 1,0,0,0,0,0,0,0,0,0,0,0,0,0,0,1,
scooby_state_14e493a5b9a5|54|4 0,0,0,0,0,0,0,0,0,0,0,0,0,0,1,1,
scooby_state_14e493a866d3|49|15 0,0,0,0,0,0,0,0,0,0,0,1,0,0,0,1,
scooby_state_14e493a865c5|2|-18 0,1,0,0,0,0,0,0,0,0,0,0,0,0,0,1,
scooby_state_14e493a5b99b|1|-45 0,0,0,0,0,0,0,0,0,0,0,0,1,0,0,1,
scooby_state_14e493a5ff46|40|1 0,0,0,0,0,1,0,0,0,0,0,0,0,0,0,1,
scooby_state_559889cb14d3|28|28 0,0,0,0,0,0,0,0,0,0,0,0,0,0,1,1,
scooby_state_14e493a5b99b|52|1 0,0,0,1,0,0,0,0,0,0,0,0,0,0,0,1,
scooby_state_14e493a86477|54|12 0,0,0,0,0,0,0,0,0,0,1,0,0,0,0,1,
scooby_state_14e493a86686|44|-14 1,0,0,0,0,0,0,0,0,0,0,0,0,0,0,1,
scooby_state_559889cb1226|10|-30 0,0,0,0,0,0,0,0,0,0,0,1,0,0,0,1,
scooby_state_14e493a86641|59|16 0,0,0,0,0,0,0,0,0,0,0,1,0,0,0,1,
scooby_state_14e493a60174|43|32 0,0,0,0,0,0,0,0,0,0,0,0,1,0,0,1,
scooby_state_14e493a62d1a|55|5 1,0,0,0,0,0,0,0,0,0,0,0,0,0,0,1,
scooby_state_14e493a62cd4|2|-9 0,0,0,0,0,1,0,0,0,0,0,0,0,0,0,1,
scooby_state_14e493a8664b|58|7 1,0,0,0,0,0,0,0,0,0,0,0,0,0,0,1,
scooby_state_559889cb1226|35|-28 0,0,1,0,0,0,0,0,0,0,0,0,0,0,0,1,
scooby_state_14e493a62d4d|49|16 0,0,0,1,0,0,0,0,0,0,0,0,0,0,0,1,
scooby_state_14e493a5ff10|13|0 0,0,0,0,0,1,0,0,0,0,0,0,0,0,0,1,
scooby_state_14e493a62d43|33|0 0,0,0,0,0,0,0,0,0,0,0,1,0,0,0,1,
scooby_state_14e493a62d1a|23|8 0,0,0,0,0,0,0,0,0,0,0,1,0,0,0,1,
scooby_state_14e493a5ff46|27|1 1,0,0,0,0,0,0,0,0,0,0,0,0,0,0,1,
scooby_state_14e493a5b9de|40|4 1,0,0,0,0,0,0,0,0,0,0,0,0,0,0,1,
scooby_state_14e493a5b959|26|23 0,1,0,0,0,0,0,0,0,0,0,0,0,0,0,1,
scooby_state_14e493a86650|12|-1 1,0,0,0,0,0,0,0,0,0,0,0,0,0,0,1,
scooby_state_14e493a8670e|39|30 0,0,0,0,0,0,0,0,0,0,0,1,0,0,0,1,
scooby_state_14e493a866c4|8|-33 1,0,0,0,0,0,0,0,0,0,0,0,0,0,0,1,
scooby_state_14e493a6015a|7|0 0,0,0,0,0,0,0,0,0,0,0,1,0,0,0,1,
scooby_state_14e493a5f5a7|41|0 1,0,0,0,0,0,0,0,0,0,0,0,0,0,0,1,
scooby_state_14e493a5b99b|53|1 1,0,0,0,0,0,0,0,0,0,0,0,0,0,0,1,
scooby_state_559889cb11d5|7|-56 0,0,0,0,0,0,0,0,0,0,0,1,0,0,0,1,
scooby_state_14e493a5f2d0|11|0 1,0,0,0,0,0,0,0,0,0,0,0,0,0,0,1,
scooby_state_14e493a62cd4|57|7 0,0,0,0,0,0,0,1,0,0,0,0,0,0,0,1,
scooby_state_14e493a62d3b|23|-8 0,0,1,0,0,0,0,0,0,0,0,0,0,0,0,1,
scooby_state_14e493a62d1a|33|3 0,0,0,0,1,0,0,0,0,0,0,0,0,0,0,1,
scooby_state_14e493a62cb6|3|-4 0,0,0,1,0,0,0,0,0,0,0,0,0,0,0,1,
scooby_state_14e493a5f795|57|7 1,0,0,0,0,0,0,0,0,0,0,0,0,0,0,1,
scooby_state_14e493a5f5f4|3|-8 0,0,0,0,0,0,0,0,0,0,0,1,0,0,0,1,
scooby_state_14e493a62a39|9|-32 0,1,0,0,0,0,0,0,0,0,0,0,0,0,0,1,
scooby_state_14e493a62ccc|0|-34 1,0,0,0,0,0,0,0,0,0,0,0,0,0,0,1,
scooby_state_14e493a62d7f|48|0 0,0,0,0,0,0,0,0,0,0,0,0,0,1,0,1,
scooby_state_14e493a62d4d|45|0 0,1,0,0,0,0,0,0,0,0,0,0,0,0,0,1,
scooby_state_14e493a62cde|19|0 0,0,0,0,0,0,0,0,0,0,0,0,1,0,0,1,
scooby_state_14e493a62207|5|-44 0,0,0,0,1,0,0,0,0,0,0,0,0,0,0,1,
scooby_state_14e493a62207|35|9 0,0,0,0,0,0,1,0,0,0,0,0,0,0,0,1,
scooby_state_14e493a866c4|40|2 1,0,0,0,0,0,0,0,0,0,0,0,0,0,0,1,
scooby_state_14e493a62d3b|36|5 0,0,0,0,0,0,0,0,0,1,0,0,0,0,0,1,
scooby_state_14e493a5fe6c|59|7 1,0,0,0,0,0,0,0,0,0,0,0,0,0,0,1,
scooby_state_14e493a62d1a|23|18 0,0,1,0,0,0,0,0,0,0,0,0,0,0,0,1,
scooby_state_14e493a866c4|32|23 1,0,0,0,0,0,0,0,0,0,0,0,0,0,0,1,
scooby_state_14e493a264e8|19|1 1,0,0,0,0,0,0,0,0,0,0,0,0,0,0,1,
scooby_state_559889cb1539|40|-20 1,0,0,0,0,0,0,0,0,0,0,0,0,0,0,1,
scooby_state_14e493a865c5|51|12 1,0,0,0,0,0,0,0,0,0,0,0,0,0,0,1,
scooby_state_559889cb1226|18|-37 0,0,0,0,0,0,0,0,0,1,0,0,0,0,0,1,
scooby_state_14e493a5f6de|52|0 1,0,0,0,0,0,0,0,0,0,0,0,0,0,0,1,
scooby_state_14e493a866c4|7|-32 1,0,0,0,0,0,0,0,0,0,0,0,0,0,0,1,
scooby_state_14e493a60123|42|31 0,0,0,1,0,0,0,0,0,0,0,0,0,0,0,1,
scooby_state_14e493a58370|13|1 1,0,0,0,0,0,0,0,0,0,0,0,0,0,0,1,
scooby_state_14e493a5b959|19|1 0,0,0,0,0,0,0,0,0,0,0,1,0,0,0,1,
scooby_state_559889cb12dc|49|26 0,0,0,0,0,0,0,0,0,0,1,0,0,0,0,1,
scooby_state_14e493a62a39|4|1 0,0,0,1,0,0,0,0,0,0,0,0,0,0,0,1,
scooby_state_14e493a866d3|29|15 0,0,0,0,0,0,0,0,0,0,0,1,0,0,0,1,
scooby_state_559889cb11b8|18|1 0,0,0,0,0,0,0,0,0,0,0,1,0,0,0,1,
scooby_state_559889cb12dc|40|40 1,0,0,0,0,0,0,0,0,0,0,0,0,0,0,1,
scooby_state_14e493a600e6|49|1 0,0,0,0,0,0,0,0,0,0,0,0,1,0,0,1,
scooby_state_14e493a62d1a|40|32 0,0,0,0,0,0,0,0,0,1,0,0,0,0,0,1,
scooby_state_14e493a5b93c|5|-5 1,0,0,0,0,0,0,0,0,0,0,0,0,0,0,1,
scooby_state_14e493a62207|19|-10 0,0,0,0,0,0,0,0,0,0,0,0,1,0,0,1,
scooby_state_14e493a621a0|6|4 1,0,0,0,0,0,0,0,0,0,0,0,0,0,0,1,
scooby_state_14e493a62d1a|59|48 0,0,0,0,0,0,0,0,0,0,0,0,1,0,0,1,
scooby_state_14e493a86477|52|14 0,0,0,0,0,0,0,0,0,0,0,0,0,0,1,1,
scooby_state_14e493a5f795|63|14 0,1,0,0,0,0,0,0,0,0,0,0,0,0,0,1,
scooby_state_14e493a62d4d|53|-5 0,0,0,0,0,0,0,0,0,0,0,1,0,0,0,1,
scooby_state_14e493a866d3|45|0 0,0,0,0,0,0,0,0,0,0,0,1,0,0,0,1,
scooby_state_559889cb12dc|34|-19 0,1,0,0,0,0,0,0,0,0,0,0,0,0,0,1,
scooby_state_14e493a5b9fc|46|10 1,0,0,0,0,0,0,0,0,0,0,0,0,0,0,1,
scooby_state_14e493a62ccc|34|1 1,0,0,0,0,0,0,0,0,0,0,0,0,0,0,1,
scooby_state_14e493a865c5|45|24 0,0,0,0,0,0,0,0,0,0,0,0,1,0,0,1,
scooby_state_14e493a86646|22|-1 0,0,0,0,0,0,0,0,0,0,0,0,1,0,0,1,
scooby_state_14e493a6012d|45|1 0,0,1,0,0,0,0,0,0,0,0,0,0,0,0,1,
scooby_state_14e493a5feb2|53|33 0,0,0,0,0,0,0,1,0,0,0,0,0,0,0,1,
scooby_state_14e493a263c3|15|1 1,0,0,0,0,0,0,0,0,0,0,0,0,0,0,1,
scooby_state_559889cb1226|6|-48 1,0,0,0,0,0,0,0,0,0,0,0,0,0,0,1,
scooby_state_14e493a86703|63|60 0,0,0,0,0,0,0,0,0,0,0,0,1,0,0,1,
scooby_state_14e493a60100|4|1 1,0,0,0,0,0,0,0,0,0,0,0,0,0,0,1,
scooby_state_559889cb11d5|12|-22 1,0,0,0,0,0,0,0,0,0,0,0,0,0,0,1,
scooby_state_14e493a865c5|36|-3 1,0,0,0,0,0,0,0,0,0,0,0,0,0,0,1,
scooby_state_559889cb12dc|55|23 1,0,0,0,0,0,0,0,0,0,0,0,0,0,0,1,
scooby_state_559889cb12dc|52|-4 0,0,0,1,0,0,0,0,0,0,0,0,0,0,0,1,
scooby_state_559889cb12dc|49|18 1,0,0,0,0,0,0,0,0,0,0,0,0,0,0,1,
scooby_state_14e493a62cd4|53|31 0,0,0,0,0,0,0,0,0,0,0,0,0,0,1,1,
scooby_state_14e493a6021e|13|1 1,0,0,0,0,0,0,0,0,0,0,0,0,0,0,1,
scooby_state_14e493a6298d|13|-1 0,1,0,0,0,0,0,0,0,0,0,0,0,0,0,1,
scooby_state_14e493a5b99b|19|-32 1,0,0,0,0,0,0,0,0,0,0,0,0,0,0,1,
scooby_state_14e493a62c6b|34|3 0,1,0,0,0,0,0,0,0,0,0,0,0,0,0,1,
scooby_state_14e493a62cd4|51|0 0,0,0,0,0,0,0,0,1,0,0,0,0,0,0,1,
scooby_state_14e493a5f8e8|15|13 0,0,0,0,0,0,0,0,0,0,0,1,0,0,0,1,
scooby_state_14e493a86650|49|-1 1,0,0,0,0,0,0,0,0,0,0,0,0,0,0,1,
scooby_state_14e493a86593|35|4 0,0,0,0,0,0,0,1,0,0,0,0,0,0,0,1,
scooby_state_14e493a8657e|39|1 0,0,0,0,0,1,0,0,0,0,0,0,0,0,0,1,
scooby_state_14e493a8664b|10|-1 1,0,0,0,0,0,0,0,0,0,0,0,0,0,0,1,
scooby_state_14e493a62d1a|5|2 1,0,0,0,0,0,0,0,0,0,0,0,0,0,0,1,
scooby_state_14e493a6339a|22|1 1,0,0,0,0,0,0,0,0,0,0,0,0,0,0,1,
scooby_state_14e493a5ff10|39|38 0,0,0,0,0,0,0,0,0,0,0,0,1,0,0,1,
scooby_state_14e493a5b9de|27|1 1,0,0,0,0,0,0,0,0,0,0,0,0,0,0,1,
scooby_state_14e493a62d43|14|-48 1,0,0,0,0,0,0,0,0,0,0,0,0,0,0,1,
scooby_state_14e493a5f5f4|9|-1 0,0,0,0,0,0,0,0,0,0,0,0,0,1,0,1,
scooby_state_14e493a62cb6|1|-38 0,0,0,0,1,0,0,0,0,0,0,0,0,0,0,1,
scooby_state_14e493a62d43|23|0 0,0,0,0,0,0,0,0,0,0,0,1,0,0,0,1,
scooby_state_14e493a62207|28|-8 0,0,0,0,0,1,0,0,0,0,0,0,0,0,0,1,
scooby_state_559889cb132f|0|0 0,0,1,0,0,0,0,0,0,0,0,0,0,0,0,1,
scooby_state_14e493a866d3|37|15 0,0,0,0,0,0,0,0,0,0,0,1,0,0,0,1,
scooby_state_14e493a62207|4|-6 0,1,0,0,0,0,0,0,0,0,0,0,0,0,0,1,
scooby_state_14e493a5fc15|47|0 1,0,0,0,0,0,0,0,0,0,0,0,0,0,0,1,
scooby_state_14e493a5f5f4|14|0 0,0,0,0,0,0,0,0,0,0,0,0,1,0,0,1,
scooby_state_14e493a5b9fc|2|0 1,0,0,0,0,0,0,0,0,0,0,0,0,0,0,1,
scooby_state_14e493a5b9f4|48|6 1,0,0,0,0,0,0,0,0,0,0,0,0,0,0,1,
scooby_state_14e493a865cc|34|1 0,0,0,1,0,0,0,0,0,0,0,0,0,0,0,1,
scooby_state_14e493a62cb6|31|-7 0,1,0,0,0,0,0,0,0,0,0,0,0,0,0,1,
scooby_state_14e493a62d1a|12|5 1,0,0,0,0,0,0,0,0,0,0,0,0,0,0,1,
scooby_state_14e493a865c5|48|12 1,0,0,0,0,0,0,0,0,0,0,0,0,0,0,1,
scooby_state_14e493a6298d|44|-5 0,0,0,0,0,0,0,1,0,0,0,0,0,0,0,1,
scooby_state_14e493a5b9a5|37|0 0,0,0,0,0,0,0,0,0,0,0,1,0,0,0,1,
scooby_state_14e493a62d43|55|49 0,0,0,0,0,0,0,0,0,0,0,1,0,0,0,1,
scooby_state_559889cb1226|39|-10 0,0,0,0,0,0,0,0,0,0,0,0,0,1,0,1,
scooby_state_14e493a6339a|58|1 1,0,0,0,0,0,0,0,0,0,0,0,0,0,0,1,
scooby_state_14e493a62cb6|7|-4 1,0,0,0,0,0,0,0,0,0,0,0,0,0,0,1,
scooby_state_14e493a5f581|46|32 0,0,0,0,0,0,0,0,0,0,0,1,0,0,0,1,
scooby_state_14e493a866c4|1|-16 1,0,0,0,0,0,0,0,0,0,0,0,0,0,0,1,
scooby_state_14e493a86477|42|8 0,0,0,0,0,1,0,0,0,0,0,0,0,0,0,1,
scooby_state_14e493a6298d|43|-20 0,0,0,0,0,0,0,0,1,0,0,0,0,0,0,1,
scooby_state_14e493a86703|9|0 0,0,0,0,0,0,0,0,0,0,0,0,1,0,0,1,
scooby_state_559889cb12dc|34|13 0,0,0,0,0,0,0,0,0,0,0,0,0,1,0,1,
scooby_state_14e493a62d1a|57|48 0,0,0,0,0,1,0,0,0,0,0,0,0,0,0,1,
scooby_state_14e493a86703|43|2 0,0,0,0,0,0,0,0,0,0,0,0,1,0,0,1,
scooby_state_14e493a6298d|24|-15 1,0,0,0,0,0,0,0,0,0,0,0,0,0,0,1,
scooby_state_14e493a5fc11|13|1 0,0,0,1,0,0,0,0,0,0,0,0,0,0,0,1,
scooby_state_559889cb11d5|12|-42 0,0,0,0,0,0,0,0,0,0,0,0,1,0,0,1,
scooby_state_14e493a86686|40|-14 1,0,0,0,0,0,0,0,0,0,0,0,0,0,0,1,
scooby_state_14e493a5b965|22|-11 0,0,0,0,0,0,0,0,0,0,0,1,0,0,0,1,
scooby_state_14e493a62d4d|8|8 1,0,0,0,0,0,0,0,0,0,0,0,0,0,0,1,
scooby_state_14e493a866c4|30|-16 1,0,0,0,0,0,0,0,0,0,0,0,0,0,0,1,
scooby_state_14e493a5f867|43|32 1,0,0,0,0,0,0,0,0,0,0,0,0,0,0,1,
scooby_state_14e493a5b959|45|20 0,1,0,0,0,0,0,0,0,0,0,0,0,0,0,1,
scooby_state_14e493a62d4d|15|0 0,0,0,0,0,1,0,0,0,0,0,0,0,0,0,1,
scooby_state_14e493a865c5|47|5 0,0,0,0,0,0,0,0,0,0,0,0,0,0,1,1,
scooby_state_14e493a5ff10|6|0 0,0,0,0,0,0,1,0,0,0,0,0,0,0,0,1,
scooby_state_14e493a8657e|60|1 0,0,0,0,1,0,0,0,0,0,0,0,0,0,0,1,
scooby_state_14e493a62cb6|46|-8 0,0,0,0,0,0,0,1,0,0,0,0,0,0,0,1,
scooby_state_14e493a866c4|52|52 1,0,0,0,0,0,0,0,0,0,0,0,0,0,0,1,
scooby_state_14e493a865c5|45|5 0,0,0,1,0,0,0,0,0,0,0,0,0,0,0,1,
scooby_state_14e493a5f867|9|-32 1,0,0,0,0,0,0,0,0,0,0,0,0,0,0,1,
scooby_state_14e493a5fa00|40|6 1,0,0,0,0,0,0,0,0,0,0,0,0,0,0,1,
scooby_state_559889cb1226|9|-33 0,0,0,0,0,0,0,0,0,0,0,1,0,0,0,1,
scooby_state_14e493a5fbf5|1|-56 1,0,0,0,0,0,0,0,0,0,0,0,0,0,0,1,
scooby_state_14e493a86477|22|-3 0,0,0,0,1,0,0,0,0,0,0,0,0,0,0,1,
scooby_state_14e493a5f60d|47|0 0,0,0,0,0,0,0,0,0,0,0,1,0,0,0,1,
scooby_state_14e493a865d4|0|0 0,0,0,0,0,0,0,0,0,1,0,0,0,0,0,1,
scooby_state_14e493a5f5a7|22|0 1,0,0,0,0,0,0,0,0,0,0,0,0,0,0,1,
scooby_state_14e493a5fe6c|4|3 1,0,0,0,0,0,0,0,0,0,0,0,0,0,0,1,
scooby_state_14e493a62207|57|-2 0,1,0,0,0,0,0,0,0,0,0,0,0,0,0,1,
scooby_state_14e493a5f5f4|3|0 0,0,0,0,0,0,0,0,0,0,1,0,0,0,0,1,
scooby_state_14e493a86686|21|-30 1,0,0,0,0,0,0,0,0,0,0,0,0,0,0,1,
scooby_state_14e493a5fef2|49|0 1,0,0,0,0,0,0,0,0,0,0,0,0,0,0,1,
scooby_state_559889cb11e7|38|20 0,0,1,0,0,0,0,0,0,0,0,0,0,0,0,1,
scooby_state_14e493a62d1a|59|21 0,0,0,0,1,0,0,0,0,0,0,0,0,0,0,1,
scooby_state_14e493a62cb6|38|-11 0,0,0,0,1,0,0,0,0,0,0,0,0,0,0,1,
scooby_state_14e493a6298d|21|19 1,0,0,0,0,0,0,0,0,0,0,0,0,0,0,1,
scooby_state_559889cb12dc|55|-6 0,1,0,0,0,0,0,0,0,0,0,0,0,0,0,1,
scooby_state_14e493a62d4d|59|4 0,0,0,0,0,0,0,0,1,0,0,0,0,0,0,1,
scooby_state_14e493a62d4d|60|-3 0,0,0,0,0,0,0,0,0,0,0,0,0,1,0,1,
scooby_state_14e493a62d3b|15|-8 0,0,0,0,0,0,0,0,0,0,0,0,0,1,0,1,
scooby_state_14e493a62cb6|5|-7 0,0,0,0,0,0,0,0,0,0,0,0,0,0,1,1,
scooby_state_14e493a86650|38|-1 0,0,0,0,0,0,0,0,0,0,0,1,0,0,0,1,
scooby_state_559889cb11d5|34|20 0,0,0,0,0,0,0,0,0,0,0,0,1,0,0,1,
scooby_state_14e493a62d67|18|3 1,0,0,0,0,0,0,0,0,0,0,0,0,0,0,1,
scooby_state_14e493a86703|63|18 0,0,0,0,0,0,0,0,0,0,0,0,1,0,0,1,

scooby_action_0_deg_dist 0,417595,0,0,0,0,0,0,0,0,0,0,0,0,0,0,
scooby_action_-6_deg_dist 0,14262,35,0,0,0,0,0,0,0,0,0,0,0,0,0,
scooby_action_4_deg_dist 0,15889,87,0,21,0,0,0,0,0,0,0,0,0,0,0,
scooby_action_1_deg_dist 0,1108668,215533,0,202772,0,414997,0,0,0,0,0,0,0,0,0,
scooby_action_30_deg_dist 0,9165,12,0,1,0,0,0,0,0,0,0,0,0,0,0,
scooby_action_3_deg_dist 0,18007,69,0,13,0,0,0,0,0,0,0,0,0,0,0,
scooby_action_32_deg_dist 0,9689,18,0,0,0,0,0,0,0,0,0,0,0,0,0,
scooby_action_5_deg_dist 0,15462,58,0,1,0,0,0,0,0,0,0,0,0,0,0,
scooby_action_10_deg_dist 0,13282,41,0,8,0,1,0,0,0,0,0,0,0,0,0,
scooby_action_11_deg_dist 0,12839,25,0,0,0,0,0,0,0,0,0,0,0,0,0,
scooby_action_12_deg_dist 0,12348,23,0,4,0,0,0,0,0,0,0,0,0,0,0,
scooby_action_22_deg_dist 0,10281,14,0,0,0,0,0,0,0,0,0,0,0,0,0,
scooby_action_23_deg_dist 0,10048,16,0,0,0,0,0,0,0,0,0,0,0,0,0,
scooby_action_-1_deg_dist 0,41176,2501,0,4977,0,21956,0,0,0,0,0,0,0,0,0,
scooby_action_-3_deg_dist 0,25418,1490,0,1635,0,7647,0,0,0,0,0,0,0,0,0,

scooby_track_called 2608084
scooby_track_same_address 20462
scooby_track_evict 2587366

scooby_reward_demand_called 2608084
scooby_reward_demand_pt_not_found 2068954
scooby_reward_demand_pt_found 539130
scooby_reward_demand_pt_found_total 539130
scooby_reward_demand_has_reward 86
scooby_reward_train_called 1982913
scooby_reward_assign_reward_called 2587463
scooby_reward_no_pref 417595
scooby_reward_incorrect 1565318
scooby_reward_correct_untimely 448268
scooby_reward_correct_timely 90776
scooby_reward_out_of_bounds 65506
scooby_reward_tracker_hit 0

scooby_reward_none_low_bw 417595
scooby_reward_none_high_bw 0
scooby_reward_incorrect_low_bw 1565318
scooby_reward_incorrect_high_bw 0
scooby_reward_correct_untimely_low_bw 448268
scooby_reward_correct_untimely_high_bw 0
scooby_reward_correct_timely_low_bw 90776
scooby_reward_correct_timely_high_bw 0
scooby_reward_out_of_bounds_low_bw 65506
scooby_reward_out_of_bounds_high_bw 0
scooby_reward_tracker_hit_low_bw 0
scooby_reward_tracker_hit_high_bw 0

scooby_reward_1 0,1424000,402219,79827,29372,0,
scooby_reward_3 0,13756,1280,893,1034,0,
scooby_reward_4 0,12269,1074,468,1368,0,
scooby_reward_5 0,11565,1073,439,1578,0,
scooby_reward_10 0,8704,684,400,2925,0,
scooby_reward_11 0,8146,663,359,3084,0,
scooby_reward_12 0,7727,595,324,3217,0,
scooby_reward_22 0,4772,300,249,4661,0,
scooby_reward_23 0,4555,307,212,4675,0,
scooby_reward_30 0,3216,204,172,5413,0,
scooby_reward_32 0,3556,181,186,5586,0,
scooby_reward_-1 0,32551,29530,4641,762,0,
scooby_reward_-3 0,19307,9099,2285,1064,0,
scooby_reward_-6 0,11194,1059,321,767,0,
scooby_reward_0 417595,0,0,0,0,0,

scooby_train_called 2587365
scooby_train_compute_reward 1982913

scooby_register_fill_called 2431572
scooby_register_fill_set 1442094
scooby_register_fill_set_total 1442094

scooby_register_prefetch_hit_called 1677148
scooby_register_prefetch_hit_set 575681
scooby_register_prefetch_hit_set_total 575681

scooby_pref_issue_scooby 4909570

learning_engine_featurewise.action.called 2608084
learning_engine_featurewise.action.explore 4792
learning_engine_featurewise.action.exploit 2603292
learning_engine_featurewise.action.fallback 1359271
learning_engine_featurewise.action.dyn_fallback_saved_bw 0
learning_engine_featurewise.action.dyn_fallback_saved_bw_acc 800230
learning_engine_featurewise.action.index_1_explored 311
learning_engine_featurewise.action.index_1_exploited 1941659
learning_engine_featurewise.action.index_3_explored 332
learning_engine_featurewise.action.index_3_exploited 17757
learning_engine_featurewise.action.index_4_explored 330
learning_engine_featurewise.action.index_4_exploited 15667
learning_engine_featurewise.action.index_5_explored 286
learning_engine_featurewise.action.index_5_exploited 15235
learning_engine_featurewise.action.index_10_explored 364
learning_engine_featurewise.action.index_10_exploited 12968
learning_engine_featurewise.action.index_11_explored 327
learning_engine_featurewise.action.index_11_exploited 12537
learning_engine_featurewise.action.index_12_explored 321
learning_engine_featurewise.action.index_12_exploited 12054
learning_engine_featurewise.action.index_22_explored 329
learning_engine_featurewise.action.index_22_exploited 9966
learning_engine_featurewise.action.index_23_explored 319
learning_engine_featurewise.action.index_23_exploited 9745
learning_engine_featurewise.action.index_30_explored 314
learning_engine_featurewise.action.index_30_exploited 8864
learning_engine_featurewise.action.index_32_explored 277
learning_engine_featurewise.action.index_32_exploited 9430
learning_engine_featurewise.action.index_-1_explored 321
learning_engine_featurewise.action.index_-1_exploited 70289
learning_engine_featurewise.action.index_-3_explored 326
learning_engine_featurewise.action.index_-3_exploited 35864
learning_engine_featurewise.action.index_-6_explored 302
learning_engine_featurewise.action.index_-6_exploited 13995
learning_engine_featurewise.action.index_0_explored 333
learning_engine_featurewise.action.index_0_exploited 417262
learning_engine_featurewise.learn.called 2587365
learning_engine_featurewise.learn.su_skip_PC 0
learning_engine_featurewise.learn.su_skip_PC_Delta 0

learning_engine_featurewise.q_value_histogram.bucket_0 542971
learning_engine_featurewise.q_value_histogram.bucket_1 37225
learning_engine_featurewise.q_value_histogram.bucket_2 1518215
learning_engine_featurewise.q_value_histogram.bucket_3 100196
learning_engine_featurewise.q_value_histogram.bucket_4 26109
learning_engine_featurewise.q_value_histogram.bucket_5 232208
learning_engine_featurewise.q_value_histogram.bucket_6 146368
learning_engine_featurewise.q_value_histogram.bucket_7 0

learning_engine_featurewise.consensus.total 2603292
learning_engine_featurewise.consensus.feature_align_PC 2005334
learning_engine_featurewise.consensus.feature_align_PC_ratio 0.77
learning_engine_featurewise.consensus.feature_align_PC_Delta 2048680
learning_engine_featurewise.consensus.feature_align_PC_Delta_ratio 0.79
learning_engine_featurewise.consensus.feature_align_all 1984576
learning_engine_featurewise.consensus.feature_align_all_ratio 0.76

learning_engine_featurewise.feature_PC_min_weight 1000000.00000000
learning_engine_featurewise.feature_PC_max_weight 0.00000000
learning_engine_featurewise.feature_PC_Delta_min_weight 1000000.00000000
learning_engine_featurewise.feature_PC_Delta_max_weight 0.00000000
unique_pcs 455
unique_pages 8699
unique_trigger_pcs 192
total_bitmaps_seen 0
unique_bitmaps_seen 0

scooby_bw_epochs 642196
scooby_bw_level_0 339271
scooby_bw_level_1 235239
scooby_bw_level_2 48072
scooby_bw_level_3 19614

scooby_ipc_epochs 0
scooby_ipc_level_0 0
scooby_ipc_level_1 0
scooby_ipc_level_2 0
scooby_ipc_level_3 0

scooby_cache_acc_epochs 159563
scooby_cache_acc_level_0 6910
scooby_cache_acc_level_1 92255
scooby_cache_acc_level_2 41304
scooby_cache_acc_level_3 10779
scooby_cache_acc_level_4 2699
scooby_cache_acc_level_5 1789
scooby_cache_acc_level_6 1668
scooby_cache_acc_level_7 917
scooby_cache_acc_level_8 520
scooby_cache_acc_level_9 722

Channel_0_RQ_row_buffer_hit 670947
Channel_0_RQ_row_buffer_miss 1158382
Channel_0_WQ_row_buffer_hit 195134
Channel_0_WQ_row_buffer_miss 196767
Channel_0_WQ_full 0
Channel_0_dbus_congested 903765

avg_congested_cycle 9

DRAM_bw_pochs 642196
DRAM_bw_level_0 339271
DRAM_bw_level_1 235239
DRAM_bw_level_2 48072
DRAM_bw_level_3 19614
