*************************************************
   ChampSim Multicore Out-of-Order Simulator
   Last compiled: Apr  3 2025 20:54:34
*************************************************
parsing config file: /home/zir/Pythia/config/pythia.ini

trace_0 /home/zir/ChampSim/ML-DPC/ChampSimTraces/gap/bc-0.trace.gz
adding L2C_PREFETCHER: Scooby
Initialize SHIP state
warmup_instructions 10000000
simulation_instructions 50000000
champsim_seed 48
measure_ipc 0
measure_ipc_epoch 1000
measure_dram_bw 1
measure_dram_bw_epoch 256
measure_cache_acc 1
measure_cache_acc_epoch 1024
l1d_perfect 0
l2c_perfect 0
llc_perfect 0
l1d_semi_perfect 0
l2c_semi_perfect 0
llc_semi_perfect 0
semi_perfect_cache_page_buffer_size 64

num_cpus 1
cpu_freq 4000
dram_io_freq 2400
page_size 4096
block_size 64
max_read_per_cycle 8
max_fill_per_cycle 1
dram_channels 1
log2_dram_channels 0
dram_ranks 1
dram_banks 8
dram_rows 65536
dram_columns 128
dram_row_size 8
dram_size 4096
dram_pages 1048576

fetch_width 6
decode_width 6
exec_width 4
lq_width 2
sq_width 2
retire_width 4
scheduler_size 128
branch_mispredict_penalty 20
rob_size 256
lq_size 72
sq_size 56
num_instr_destinations_sparc 4
num_instr_destinations 2
num_instr_sources 4

itlb_set 16
itlb_way 8
itlb_rq_size 16
itlb_wq_size 16
itlb_pq_size 0
itlb_mshr_size 8
itlb_latency 1

dtlb_set 16
dtlb_way 4
dtlb_rq_size 16
dtlb_wq_size 16
dtlb_pq_size 0
dtlb_mshr_size 8
dtlb_latency 1

stlb_set 128
stlb_way 12
stlb_rq_size 32
stlb_wq_size 32
stlb_pq_size 0
stlb_mshr_size 16
stlb_latency 8

l1i_size 32
l1i_set 64
l1i_way 8
l1i_rq_size 64
l1i_wq_size 64
l1i_pq_size 8
l1i_mshr_size 8
l1i_latency 1

l1d_size 32
l1d_set 64
l1d_way 8
l1d_rq_size 64
l1d_wq_size 64
l1d_pq_size 8
l1d_mshr_size 16
l1d_latency 4

l2c_size 256
l2c_set 512
l2c_way 8
l2c_rq_size 32
l2c_wq_size 32
l2c_pq_size 32
l2c_mshr_size 32
l2c_latency 10

llc_size 2048
llc_set 2048
llc_way 16
llc_rq_size 32
llc_wq_size 32
llc_pq_size 32
llc_mshr_size 64
llc_latency 20

dram_channel_width 8
dram_wq_size 64
dram_rq_size 64
tRP 15
tRCD 15
tCAS 12.5
dram_dbus_turn_around_time 30
dram_write_high_wm 56
dram_write_low_wm 48
min_dram_writes_per_switch 16
dram_mtps 2400
dram_dbus_return_time 13

scooby_alpha 0.0065088
scooby_gamma 0.556301
scooby_epsilon 0.00182284
scooby_state_num_bits 10
scooby_max_states 1024
scooby_seed 200
scooby_policy EGreedy
scooby_learning_type SARSA
scooby_actions 1,3,4,5,10,11,12,22,23,30,32,-1,-3,-6,0,
scooby_max_actions 15
scooby_pt_size 256
scooby_st_size 64
scooby_max_pcs 5
scooby_max_offsets 5
scooby_max_deltas 5
scooby_reward_none -4
scooby_reward_incorrect -8
scooby_reward_correct_untimely 12
scooby_reward_correct_timely 20
scooby_brain_zero_init 0
scooby_enable_reward_all 0
scooby_enable_track_multiple 0
scooby_enable_reward_out_of_bounds 1
scooby_reward_out_of_bounds -12
scooby_state_type 1
scooby_state_hash_type 11
scooby_access_debug 0
scooby_print_access_debug 0
scooby_print_access_debug_pc deadbeef
scooby_print_access_debug_pc_count 0
scooby_print_trace 0
scooby_enable_state_action_stats 1
scooby_enable_reward_tracker_hit 0
scooby_reward_tracker_hit -2
scooby_enable_featurewise_engine 1
scooby_pref_degree 1
scooby_enable_dyn_degree 1
scooby_max_to_avg_q_thresholds 0.5,1,2,
scooby_dyn_degrees 1,2,4,4,
scooby_multi_deg_select_type 2
scooby_last_pref_offset_conf_thresholds 1,3,8,
scooby_dyn_degrees_type2 1,2,4,6,
scooby_action_tracker_size 2
scooby_high_bw_thresh 4
scooby_enable_hbw_reward 1
scooby_reward_hbw_correct_timely 20
scooby_reward_hbw_correct_untimely 12
scooby_reward_hbw_incorrect -14
scooby_reward_hbw_none -2
scooby_reward_hbw_out_of_bounds -12
scooby_reward_hbw_tracker_hit -2
scooby_last_pref_offset_conf_thresholds_hbw 1,3,8,
scooby_dyn_degrees_type2_hbw 1,2,4,6,

le_enable_trace 0
le_trace_interval 0
le_trace_file_name 
le_trace_state 0
le_enable_score_plot 0
le_plot_file_name 
le_plot_actions 
le_enable_action_trace 0
le_action_trace_interval 0
le_action_trace_name 
le_enable_action_plot 0

le_featurewise_active_features PC, PC_Delta
le_featurewise_num_tilings 3,3,
le_featurewise_num_tiles 128,128,
le_featurewise_hash_types 2,2,
le_featurewise_enable_tiling_offset 1,1,
le_featurewise_max_q_thresh 0.5
le_featurewise_enable_action_fallback 1
le_featurewise_feature_weights 1,1,
le_featurewise_enable_dynamic_weight 0
le_featurewise_weight_gradient 0.001
le_featurewise_disable_adjust_weight_all_features_align 1
le_featurewise_selective_update 0
le_featurewise_pooling_type 2
le_featurewise_enable_dyn_action_fallback 1
le_featurewise_bw_acc_check_level 1
le_featurewise_acc_thresh 2
le_featurewise_enable_trace 0
le_featurewise_trace_feature_type 0
le_featurewise_trace_feature 
le_featurewise_trace_interval 0
le_featurewise_trace_record_count 0
le_featurewise_trace_file_name 
le_featurewise_enable_score_plot 0
le_featurewise_plot_actions 
le_featurewise_plot_file_name 


Heartbeat CPU  0 instructions:    1000000 cycles:     577283 heartbeat IPC: 1.73225 cumulative IPC: 1.73225 (Simulation time: 0 hr 0 min 2 sec) 
Heartbeat CPU  0 instructions:    2000003 cycles:    1127836 heartbeat IPC: 1.81636 cumulative IPC: 1.77331 (Simulation time: 0 hr 0 min 3 sec) 
Heartbeat CPU  0 instructions:    3000001 cycles:    1811846 heartbeat IPC: 1.46196 cumulative IPC: 1.65577 (Simulation time: 0 hr 0 min 5 sec) 
Heartbeat CPU  0 instructions:    4000000 cycles:    2510644 heartbeat IPC: 1.43103 cumulative IPC: 1.59322 (Simulation time: 0 hr 0 min 7 sec) 
Heartbeat CPU  0 instructions:    5000001 cycles:    3327162 heartbeat IPC: 1.22471 cumulative IPC: 1.50278 (Simulation time: 0 hr 0 min 9 sec) 
Heartbeat CPU  0 instructions:    6000000 cycles:    4234427 heartbeat IPC: 1.10221 cumulative IPC: 1.41696 (Simulation time: 0 hr 0 min 11 sec) 
Heartbeat CPU  0 instructions:    7000002 cycles:    5191105 heartbeat IPC: 1.04529 cumulative IPC: 1.34846 (Simulation time: 0 hr 0 min 13 sec) 
Heartbeat CPU  0 instructions:    8000000 cycles:    6233973 heartbeat IPC: 0.95889 cumulative IPC: 1.28329 (Simulation time: 0 hr 0 min 15 sec) 
Heartbeat CPU  0 instructions:    9000001 cycles:    7204817 heartbeat IPC: 1.03003 cumulative IPC: 1.24916 (Simulation time: 0 hr 0 min 17 sec) 
Heartbeat CPU  0 instructions:   10000002 cycles:    8173899 heartbeat IPC: 1.03191 cumulative IPC: 1.22341 (Simulation time: 0 hr 0 min 19 sec) 

Warmup complete CPU  0 instructions:   10000002 cycles:    8173899 (Simulation time: 0 hr 0 min 19 sec) 

Heartbeat CPU  0 instructions:   11000002 cycles:   15557554 heartbeat IPC: 0.13543 cumulative IPC: 0.13543 (Simulation time: 0 hr 0 min 22 sec) 
Heartbeat CPU  0 instructions:   12000000 cycles:   22405679 heartbeat IPC: 0.14603 cumulative IPC: 0.14053 (Simulation time: 0 hr 0 min 26 sec) 
Heartbeat CPU  0 instructions:   13000000 cycles:   29926900 heartbeat IPC: 0.13296 cumulative IPC: 0.13791 (Simulation time: 0 hr 0 min 29 sec) 
Heartbeat CPU  0 instructions:   14000002 cycles:   37374036 heartbeat IPC: 0.13428 cumulative IPC: 0.13699 (Simulation time: 0 hr 0 min 33 sec) 
Heartbeat CPU  0 instructions:   15000002 cycles:   44972311 heartbeat IPC: 0.13161 cumulative IPC: 0.13588 (Simulation time: 0 hr 0 min 37 sec) 
Heartbeat CPU  0 instructions:   16000000 cycles:   52411315 heartbeat IPC: 0.13443 cumulative IPC: 0.13563 (Simulation time: 0 hr 0 min 40 sec) 
Heartbeat CPU  0 instructions:   17000002 cycles:   60022472 heartbeat IPC: 0.13139 cumulative IPC: 0.13501 (Simulation time: 0 hr 0 min 43 sec) 
Heartbeat CPU  0 instructions:   18000000 cycles:   66876882 heartbeat IPC: 0.14589 cumulative IPC: 0.13628 (Simulation time: 0 hr 0 min 47 sec) 
Heartbeat CPU  0 instructions:   19000003 cycles:   74763080 heartbeat IPC: 0.12680 cumulative IPC: 0.13516 (Simulation time: 0 hr 0 min 51 sec) 
Heartbeat CPU  0 instructions:   20000000 cycles:   82581584 heartbeat IPC: 0.12790 cumulative IPC: 0.13439 (Simulation time: 0 hr 0 min 54 sec) 
Heartbeat CPU  0 instructions:   21000000 cycles:   90395285 heartbeat IPC: 0.12798 cumulative IPC: 0.13379 (Simulation time: 0 hr 0 min 58 sec) 
Heartbeat CPU  0 instructions:   22000003 cycles:   98059043 heartbeat IPC: 0.13048 cumulative IPC: 0.13350 (Simulation time: 0 hr 1 min 1 sec) 
Heartbeat CPU  0 instructions:   23000002 cycles:  105975971 heartbeat IPC: 0.12631 cumulative IPC: 0.13292 (Simulation time: 0 hr 1 min 5 sec) 
Heartbeat CPU  0 instructions:   24000000 cycles:  113778755 heartbeat IPC: 0.12816 cumulative IPC: 0.13257 (Simulation time: 0 hr 1 min 8 sec) 
Heartbeat CPU  0 instructions:   25000001 cycles:  121429137 heartbeat IPC: 0.13071 cumulative IPC: 0.13244 (Simulation time: 0 hr 1 min 12 sec) 
Heartbeat CPU  0 instructions:   26000000 cycles:  129164865 heartbeat IPC: 0.12927 cumulative IPC: 0.13224 (Simulation time: 0 hr 1 min 15 sec) 
Heartbeat CPU  0 instructions:   27000000 cycles:  136862023 heartbeat IPC: 0.12992 cumulative IPC: 0.13210 (Simulation time: 0 hr 1 min 19 sec) 
Heartbeat CPU  0 instructions:   28000000 cycles:  144710991 heartbeat IPC: 0.12741 cumulative IPC: 0.13183 (Simulation time: 0 hr 1 min 22 sec) 
Heartbeat CPU  0 instructions:   29000002 cycles:  152574543 heartbeat IPC: 0.12717 cumulative IPC: 0.13158 (Simulation time: 0 hr 1 min 26 sec) 
Heartbeat CPU  0 instructions:   30000000 cycles:  160341121 heartbeat IPC: 0.12876 cumulative IPC: 0.13143 (Simulation time: 0 hr 1 min 29 sec) 
Heartbeat CPU  0 instructions:   31000002 cycles:  168265306 heartbeat IPC: 0.12620 cumulative IPC: 0.13118 (Simulation time: 0 hr 1 min 33 sec) 
Heartbeat CPU  0 instructions:   32000000 cycles:  175949687 heartbeat IPC: 0.13013 cumulative IPC: 0.13113 (Simulation time: 0 hr 1 min 36 sec) 
Heartbeat CPU  0 instructions:   33000000 cycles:  183135753 heartbeat IPC: 0.13916 cumulative IPC: 0.13146 (Simulation time: 0 hr 1 min 40 sec) 
Heartbeat CPU  0 instructions:   34000001 cycles:  191126714 heartbeat IPC: 0.12514 cumulative IPC: 0.13118 (Simulation time: 0 hr 1 min 43 sec) 
Heartbeat CPU  0 instructions:   35000000 cycles:  198872673 heartbeat IPC: 0.12910 cumulative IPC: 0.13110 (Simulation time: 0 hr 1 min 47 sec) 
Heartbeat CPU  0 instructions:   36000000 cycles:  205959234 heartbeat IPC: 0.14111 cumulative IPC: 0.13146 (Simulation time: 0 hr 1 min 50 sec) 
Heartbeat CPU  0 instructions:   37000000 cycles:  213797458 heartbeat IPC: 0.12758 cumulative IPC: 0.13131 (Simulation time: 0 hr 1 min 54 sec) 
Heartbeat CPU  0 instructions:   38000002 cycles:  221602891 heartbeat IPC: 0.12812 cumulative IPC: 0.13119 (Simulation time: 0 hr 1 min 57 sec) 
Heartbeat CPU  0 instructions:   39000000 cycles:  229439583 heartbeat IPC: 0.12760 cumulative IPC: 0.13106 (Simulation time: 0 hr 2 min 1 sec) 
Heartbeat CPU  0 instructions:   40000000 cycles:  236700343 heartbeat IPC: 0.13773 cumulative IPC: 0.13128 (Simulation time: 0 hr 2 min 4 sec) 
Heartbeat CPU  0 instructions:   41000003 cycles:  244560603 heartbeat IPC: 0.12722 cumulative IPC: 0.13114 (Simulation time: 0 hr 2 min 8 sec) 
Heartbeat CPU  0 instructions:   42000002 cycles:  252355029 heartbeat IPC: 0.12830 cumulative IPC: 0.13105 (Simulation time: 0 hr 2 min 11 sec) 
Heartbeat CPU  0 instructions:   43000002 cycles:  259577821 heartbeat IPC: 0.13845 cumulative IPC: 0.13126 (Simulation time: 0 hr 2 min 15 sec) 
Heartbeat CPU  0 instructions:   44000000 cycles:  267317655 heartbeat IPC: 0.12920 cumulative IPC: 0.13120 (Simulation time: 0 hr 2 min 19 sec) 
Heartbeat CPU  0 instructions:   45000000 cycles:  274676038 heartbeat IPC: 0.13590 cumulative IPC: 0.13133 (Simulation time: 0 hr 2 min 22 sec) 
Heartbeat CPU  0 instructions:   46000002 cycles:  282050064 heartbeat IPC: 0.13561 cumulative IPC: 0.13145 (Simulation time: 0 hr 2 min 26 sec) 
Heartbeat CPU  0 instructions:   47000002 cycles:  290000146 heartbeat IPC: 0.12578 cumulative IPC: 0.13129 (Simulation time: 0 hr 2 min 29 sec) 
Heartbeat CPU  0 instructions:   48000000 cycles:  298105712 heartbeat IPC: 0.12337 cumulative IPC: 0.13107 (Simulation time: 0 hr 2 min 33 sec) 
Heartbeat CPU  0 instructions:   49000002 cycles:  305858485 heartbeat IPC: 0.12899 cumulative IPC: 0.13101 (Simulation time: 0 hr 2 min 36 sec) 
Heartbeat CPU  0 instructions:   50000003 cycles:  314006152 heartbeat IPC: 0.12273 cumulative IPC: 0.13079 (Simulation time: 0 hr 2 min 40 sec) 
Heartbeat CPU  0 instructions:   51000000 cycles:  322061744 heartbeat IPC: 0.12414 cumulative IPC: 0.13062 (Simulation time: 0 hr 2 min 43 sec) 
Heartbeat CPU  0 instructions:   52000000 cycles:  330045814 heartbeat IPC: 0.12525 cumulative IPC: 0.13049 (Simulation time: 0 hr 2 min 47 sec) 
Heartbeat CPU  0 instructions:   53000001 cycles:  337235076 heartbeat IPC: 0.13910 cumulative IPC: 0.13067 (Simulation time: 0 hr 2 min 51 sec) 
Heartbeat CPU  0 instructions:   54000003 cycles:  345209843 heartbeat IPC: 0.12540 cumulative IPC: 0.13055 (Simulation time: 0 hr 2 min 54 sec) 
Heartbeat CPU  0 instructions:   55000003 cycles:  353285492 heartbeat IPC: 0.12383 cumulative IPC: 0.13039 (Simulation time: 0 hr 2 min 58 sec) 
Heartbeat CPU  0 instructions:   56000000 cycles:  361218202 heartbeat IPC: 0.12606 cumulative IPC: 0.13030 (Simulation time: 0 hr 3 min 1 sec) 
Heartbeat CPU  0 instructions:   57000002 cycles:  369085477 heartbeat IPC: 0.12711 cumulative IPC: 0.13023 (Simulation time: 0 hr 3 min 5 sec) 
Heartbeat CPU  0 instructions:   58000002 cycles:  376964794 heartbeat IPC: 0.12691 cumulative IPC: 0.13016 (Simulation time: 0 hr 3 min 8 sec) 
Heartbeat CPU  0 instructions:   59000000 cycles:  384250666 heartbeat IPC: 0.13725 cumulative IPC: 0.13029 (Simulation time: 0 hr 3 min 12 sec) 
Heartbeat CPU  0 instructions:   60000000 cycles:  391491039 heartbeat IPC: 0.13811 cumulative IPC: 0.13044 (Simulation time: 0 hr 3 min 15 sec) 
Finished CPU 0 instructions: 50000000 cycles: 383317167 cumulative IPC: 0.13044 (Simulation time: 0 hr 3 min 15 sec) 

ChampSim completed all CPUs

[ROI Statistics]
Core_0_instructions 50000000
Core_0_cycles 383317167
Core_0_IPC 0.13044

Core_0_branch_prediction_accuracy 87.98641
Core_0_branch_MPKI 22.64718
Core_0_average_ROB_occupancy_at_mispredict 53.92634

Core_0_L1D_total_access 14489936
Core_0_L1D_total_hit 10341769
Core_0_L1D_total_miss 4148167
Core_0_L1D_loads 11831706
Core_0_L1D_load_hit 7712002
Core_0_L1D_load_miss 4119704
Core_0_L1D_RFOs 2658230
Core_0_L1D_RFO_hit 2629767
Core_0_L1D_RFO_miss 28463
Core_0_L1D_prefetches 0
Core_0_L1D_prefetch_hit 0
Core_0_L1D_prefetch_miss 0
Core_0_L1D_writebacks 0
Core_0_L1D_writeback_hit 0
Core_0_L1D_writeback_miss 0
Core_0_L1D_prefetch_requested 0
Core_0_L1D_prefetch_dropped 0
Core_0_L1D_prefetch_issued 0
Core_0_L1D_prefetch_filled 0
Core_0_L1D_prefetch_useful 0
Core_0_L1D_prefetch_useless 0
Core_0_L1D_prefetch_late 0
Core_0_L1D_average_miss_latency 150.05464

Core_0_L1D_rq_access 13363045
Core_0_L1D_rq_forward 0
Core_0_L1D_rq_merged 1402577
Core_0_L1D_rq_to_cache 11960468
Core_0_L1D_rq_full 0

Core_0_L1D_wq_access 2701708
Core_0_L1D_wq_forward 0
Core_0_L1D_wq_merged 0
Core_0_L1D_wq_to_cache 2701708
Core_0_L1D_wq_full 0

Core_0_L1D_pq_access 0
Core_0_L1D_pq_forward 0
Core_0_L1D_pq_merged 0
Core_0_L1D_pq_to_cache 0
Core_0_L1D_pq_full 0

Core_0_L1D_acc_epochs 317131
Core_0_L1D_acc_level_0 317131
Core_0_L1D_acc_level_1 0
Core_0_L1D_acc_level_2 0
Core_0_L1D_acc_level_3 0
Core_0_L1D_acc_level_4 0
Core_0_L1D_acc_level_5 0
Core_0_L1D_acc_level_6 0
Core_0_L1D_acc_level_7 0
Core_0_L1D_acc_level_8 0
Core_0_L1D_acc_level_9 0

Core_0_L1I_total_access 8720494
Core_0_L1I_total_hit 8720494
Core_0_L1I_total_miss 0
Core_0_L1I_loads 8720494
Core_0_L1I_load_hit 8720494
Core_0_L1I_load_miss 0
Core_0_L1I_RFOs 0
Core_0_L1I_RFO_hit 0
Core_0_L1I_RFO_miss 0
Core_0_L1I_prefetches 0
Core_0_L1I_prefetch_hit 0
Core_0_L1I_prefetch_miss 0
Core_0_L1I_writebacks 0
Core_0_L1I_writeback_hit 0
Core_0_L1I_writeback_miss 0
Core_0_L1I_prefetch_requested 0
Core_0_L1I_prefetch_dropped 0
Core_0_L1I_prefetch_issued 0
Core_0_L1I_prefetch_filled 0
Core_0_L1I_prefetch_useful 0
Core_0_L1I_prefetch_useless 0
Core_0_L1I_prefetch_late 0
Core_0_L1I_average_miss_latency -nan

Core_0_L1I_rq_access 49999989
Core_0_L1I_rq_forward 0
Core_0_L1I_rq_merged 41279495
Core_0_L1I_rq_to_cache 8720494
Core_0_L1I_rq_full 0

Core_0_L1I_wq_access 0
Core_0_L1I_wq_forward 0
Core_0_L1I_wq_merged 0
Core_0_L1I_wq_to_cache 0
Core_0_L1I_wq_full 0

Core_0_L1I_pq_access 0
Core_0_L1I_pq_forward 0
Core_0_L1I_pq_merged 0
Core_0_L1I_pq_to_cache 0
Core_0_L1I_pq_full 0

Core_0_L1I_acc_epochs 317131
Core_0_L1I_acc_level_0 317131
Core_0_L1I_acc_level_1 0
Core_0_L1I_acc_level_2 0
Core_0_L1I_acc_level_3 0
Core_0_L1I_acc_level_4 0
Core_0_L1I_acc_level_5 0
Core_0_L1I_acc_level_6 0
Core_0_L1I_acc_level_7 0
Core_0_L1I_acc_level_8 0
Core_0_L1I_acc_level_9 0

Core_0_L2C_total_access 9951835
Core_0_L2C_total_hit 2822994
Core_0_L2C_total_miss 7128841
Core_0_L2C_loads 4119704
Core_0_L2C_load_hit 481395
Core_0_L2C_load_miss 3638309
Core_0_L2C_RFOs 28463
Core_0_L2C_RFO_hit 84
Core_0_L2C_RFO_miss 28379
Core_0_L2C_prefetches 4474535
Core_0_L2C_prefetch_hit 1013027
Core_0_L2C_prefetch_miss 3461508
Core_0_L2C_writebacks 1329133
Core_0_L2C_writeback_hit 1328488
Core_0_L2C_writeback_miss 645
Core_0_L2C_prefetch_requested 6298283
Core_0_L2C_prefetch_dropped 8
Core_0_L2C_prefetch_issued 6298275
Core_0_L2C_prefetch_filled 4172811
Core_0_L2C_prefetch_useful 547461
Core_0_L2C_prefetch_useless 3623717
Core_0_L2C_prefetch_late 81877
Core_0_L2C_average_miss_latency 153.77671

Core_0_L2C_rq_access 4148166
Core_0_L2C_rq_forward 0
Core_0_L2C_rq_merged 0
Core_0_L2C_rq_to_cache 4148166
Core_0_L2C_rq_full 0

Core_0_L2C_wq_access 1329133
Core_0_L2C_wq_forward 0
Core_0_L2C_wq_merged 0
Core_0_L2C_wq_to_cache 1329133
Core_0_L2C_wq_full 0

Core_0_L2C_pq_access 6298275
Core_0_L2C_pq_forward 0
Core_0_L2C_pq_merged 347631
Core_0_L2C_pq_to_cache 5950644
Core_0_L2C_pq_full 0

Core_0_L2C_acc_epochs 317131
Core_0_L2C_acc_level_0 177382
Core_0_L2C_acc_level_1 100256
Core_0_L2C_acc_level_2 28350
Core_0_L2C_acc_level_3 7093
Core_0_L2C_acc_level_4 1135
Core_0_L2C_acc_level_5 1765
Core_0_L2C_acc_level_6 401
Core_0_L2C_acc_level_7 82
Core_0_L2C_acc_level_8 98
Core_0_L2C_acc_level_9 569

Core_0_LLC_total_access 8453915
Core_0_LLC_total_hit 3544035
Core_0_LLC_total_miss 4909880
Core_0_LLC_loads 3557953
Core_0_LLC_load_hit 1628943
Core_0_LLC_load_miss 1929010
Core_0_LLC_RFOs 28379
Core_0_LLC_RFO_hit 254
Core_0_LLC_RFO_miss 28125
Core_0_LLC_prefetches 3541863
Core_0_LLC_prefetch_hit 1236156
Core_0_LLC_prefetch_miss 2305707
Core_0_LLC_writebacks 1325720
Core_0_LLC_writeback_hit 678682
Core_0_LLC_writeback_miss 647038
Core_0_LLC_prefetch_requested 0
Core_0_LLC_prefetch_dropped 0
Core_0_LLC_prefetch_issued 0
Core_0_LLC_prefetch_filled 2832504
Core_0_LLC_prefetch_useful 136693
Core_0_LLC_prefetch_useless 2689194
Core_0_LLC_prefetch_late 0
Core_0_LLC_average_miss_latency 176.33056

Core_0_LLC_rq_access 3586331
Core_0_LLC_rq_forward 0
Core_0_LLC_rq_merged 0
Core_0_LLC_rq_to_cache 3586331
Core_0_LLC_rq_full 0

Core_0_LLC_wq_access 1325719
Core_0_LLC_wq_forward 1
Core_0_LLC_wq_merged 0
Core_0_LLC_wq_to_cache 1325719
Core_0_LLC_wq_full 0

Core_0_LLC_pq_access 4254688
Core_0_LLC_pq_forward 0
Core_0_LLC_pq_merged 0
Core_0_LLC_pq_to_cache 4254687
Core_0_LLC_pq_full 0

Core_0_LLC_acc_epochs 382316
Core_0_LLC_acc_level_0 281479
Core_0_LLC_acc_level_1 69654
Core_0_LLC_acc_level_2 21676
Core_0_LLC_acc_level_3 5711
Core_0_LLC_acc_level_4 895
Core_0_LLC_acc_level_5 2351
Core_0_LLC_acc_level_6 208
Core_0_LLC_acc_level_7 74
Core_0_LLC_acc_level_8 37
Core_0_LLC_acc_level_9 231

Core_0_major_page_fault 0
Core_0_minor_page_fault 10833

scooby_st_lookup 4649924
scooby_st_hit 3049652
scooby_st_evict 1600208
scooby_st_insert 1600272
scooby_st_streaming 0

scooby_predict_called 4649924
scooby_predict_out_of_bounds 105534
scooby_predict_action_1 3238292
scooby_predict_issue_action_1 3234089
scooby_predict_hit_action_1 4203
scooby_predict_out_of_bounds_action_1 51148
scooby_predict_action_3 23072
scooby_predict_issue_action_3 22587
scooby_predict_hit_action_3 485
scooby_predict_out_of_bounds_action_3 1826
scooby_predict_action_4 25612
scooby_predict_issue_action_4 25351
scooby_predict_hit_action_4 261
scooby_predict_out_of_bounds_action_4 2658
scooby_predict_action_5 18260
scooby_predict_issue_action_5 18001
scooby_predict_hit_action_5 259
scooby_predict_out_of_bounds_action_5 2622
scooby_predict_action_10 14116
scooby_predict_issue_action_10 13982
scooby_predict_hit_action_10 134
scooby_predict_out_of_bounds_action_10 4638
scooby_predict_action_11 13054
scooby_predict_issue_action_11 12920
scooby_predict_hit_action_11 134
scooby_predict_out_of_bounds_action_11 4945
scooby_predict_action_12 12773
scooby_predict_issue_action_12 12707
scooby_predict_hit_action_12 66
scooby_predict_out_of_bounds_action_12 5150
scooby_predict_action_22 7313
scooby_predict_issue_action_22 7288
scooby_predict_hit_action_22 25
scooby_predict_out_of_bounds_action_22 7301
scooby_predict_action_23 6904
scooby_predict_issue_action_23 6870
scooby_predict_hit_action_23 34
scooby_predict_out_of_bounds_action_23 7511
scooby_predict_action_30 4848
scooby_predict_issue_action_30 4836
scooby_predict_hit_action_30 12
scooby_predict_out_of_bounds_action_30 8620
scooby_predict_action_32 4230
scooby_predict_issue_action_32 4224
scooby_predict_hit_action_32 6
scooby_predict_out_of_bounds_action_32 8636
scooby_predict_action_-1 17292
scooby_predict_issue_action_-1 16849
scooby_predict_hit_action_-1 443
scooby_predict_out_of_bounds_action_-1 35
scooby_predict_action_-3 17188
scooby_predict_issue_action_-3 16667
scooby_predict_hit_action_-3 521
scooby_predict_out_of_bounds_action_-3 126
scooby_predict_action_-6 17031
scooby_predict_issue_action_-6 16427
scooby_predict_hit_action_-6 604
scooby_predict_out_of_bounds_action_-6 318
scooby_predict_action_0 1124405
scooby_predict_issue_action_0 0
scooby_predict_hit_action_0 0
scooby_predict_out_of_bounds_action_0 0
scooby_predict_multi_deg_called 983063
scooby_predict_predicted 6298283
scooby_predict_multi_deg 2885485
scooby_predict_multi_deg_2 960599
scooby_predict_multi_deg_3 621031
scooby_predict_multi_deg_4 605000
scooby_predict_multi_deg_5 354334
scooby_predict_multi_deg_6 344521
scooby_predict_multi_deg_7 0
scooby_predict_multi_deg_8 0
scooby_predict_multi_deg_9 0
scooby_predict_multi_deg_10 0
scooby_predict_multi_deg_11 0
scooby_predict_multi_deg_12 0
scooby_predict_multi_deg_13 0
scooby_predict_multi_deg_14 0
scooby_predict_multi_deg_15 0
scooby_predict_multi_deg_16 0

scooby_selected_deg_1 2429735
scooby_selected_deg_2 330300
scooby_selected_deg_3 0
scooby_selected_deg_4 257871
scooby_selected_deg_5 0
scooby_selected_deg_6 394892
scooby_selected_deg_7 0
scooby_selected_deg_8 0
scooby_selected_deg_9 0
scooby_selected_deg_10 0
scooby_selected_deg_11 0
scooby_selected_deg_12 0
scooby_selected_deg_13 0
scooby_selected_deg_14 0
scooby_selected_deg_15 0
scooby_selected_deg_16 0

scooby_state_560e8c841ee2|0|0 33897,29,35,21,17,18,25,18,21,60,12,9,14,11,12396,46583,
scooby_state_560e8c841ee2|2|0 30387,26,22,18,16,16,24,13,16,62,10,10,17,14,11549,42200,
scooby_state_560e8c841ee2|1|0 28928,28,25,20,21,21,12,10,20,55,16,15,13,13,10857,40054,
scooby_state_560e8c841ee2|3|0 27303,23,15,15,9,22,24,12,22,50,16,12,10,14,10268,37815,
scooby_state_560e8c841ee2|4|0 25253,21,13,17,8,13,15,15,12,48,9,16,11,13,9490,34954,
scooby_state_560e8c841ee2|5|0 22497,19,18,13,11,16,14,14,15,31,10,10,11,9,8562,31250,
scooby_state_560e8c841ee2|6|0 21822,18,15,7,13,13,12,11,21,28,12,10,11,13,8320,30326,
scooby_state_560e8c841ee2|7|0 21036,19,9,12,17,13,10,15,15,20,10,12,14,5,7759,28966,
scooby_state_560e8c841ee2|9|0 19341,19,9,6,17,18,19,8,14,24,10,7,9,3,7062,26566,
scooby_state_560e8c841ee2|8|0 19303,19,14,9,6,13,6,3,11,13,11,6,10,8,6998,26430,
scooby_state_560e8c841ee2|11|0 18208,16,10,12,7,10,22,10,10,21,8,11,2,4,6480,24831,
scooby_state_560e8c841ee2|10|0 17487,13,10,15,10,11,9,7,12,20,10,7,7,13,6290,23921,
scooby_state_560e8c841ee2|12|0 16214,15,11,9,9,8,8,8,10,18,4,12,6,9,5618,21959,
scooby_state_560e8c841ee2|13|0 15791,13,15,11,7,13,16,8,8,17,6,11,8,8,5547,21479,
scooby_state_560e8c841ee2|14|0 15760,12,12,9,10,1,8,16,12,15,6,8,8,7,5392,21276,
scooby_state_560e8c841eca|0|0 14046,8,9,12,13,9,14,14,9,12,10,17,11,8,5416,19608,
scooby_state_560e8c841ee2|15|0 14388,11,11,15,7,1,6,3,4,10,4,5,13,6,4886,19370,
scooby_state_560e8c841ee2|17|0 14404,15,18,8,14,11,10,8,5,11,5,5,10,3,4826,19353,
scooby_state_560e8c841ee2|16|0 14154,11,7,12,13,6,10,8,5,7,9,6,6,9,4621,18884,
scooby_state_560e8c841ee2|18|0 13686,14,13,7,7,9,7,10,7,12,7,6,13,9,4559,18366,
scooby_state_560e8c841eca|1|0 12781,11,18,18,16,11,13,14,9,9,9,10,12,9,5063,18003,
scooby_state_560e8c841ee2|21|0 13175,7,11,3,7,4,14,6,14,7,4,11,6,5,4432,17706,
scooby_state_560e8c841eca|2|0 12541,13,9,17,11,9,17,11,10,11,8,4,10,8,5010,17689,
scooby_state_560e8c841ee2|20|0 12895,13,9,4,7,11,6,7,7,8,1,6,4,2,4268,17248,
scooby_state_560e8c841eca|3|0 11988,11,13,9,9,7,19,12,12,3,10,7,9,10,4868,16987,
scooby_state_560e8c841ee2|19|0 12548,16,7,2,11,3,8,7,6,8,3,2,6,4,4253,16884,
scooby_state_560e8c841ee2|22|0 12264,11,4,4,10,6,14,10,12,5,12,11,6,4,3986,16359,
scooby_state_560e8c841ee2|26|0 12004,4,3,6,8,7,6,7,5,5,5,7,4,8,3818,15897,
scooby_state_560e8c841eca|4|0 11026,11,20,21,13,18,6,21,14,4,9,3,10,7,4471,15654,
scooby_state_560e8c841ee2|23|0 11521,8,10,7,6,10,4,8,7,8,6,3,5,9,3734,15346,
scooby_state_560e8c841eca|5|0 10558,10,9,9,7,8,14,17,7,6,7,5,8,7,4250,14922,
scooby_state_560e8c841eca|7|0 9820,8,13,11,7,18,13,9,11,10,12,6,9,8,3913,13868,
scooby_state_560e8c841eca|6|0 9548,8,9,15,7,12,11,7,13,8,5,11,8,9,4082,13753,
scooby_state_560e8c841eca|10|0 9603,4,10,13,10,10,13,16,13,2,3,7,14,7,3936,13661,
scooby_state_560e8c841eca|8|0 9471,11,11,14,12,8,14,9,11,7,12,6,7,7,3819,13419,
scooby_state_560e8c841eca|9|0 9358,10,5,8,8,16,6,11,8,8,13,11,7,6,3749,13224,
scooby_state_560e8c841ee2|24|0 9933,8,9,2,5,4,12,6,5,1,1,5,5,8,3189,13193,
scooby_state_560e8c841ee2|25|0 9777,5,7,3,7,3,11,6,6,5,4,8,3,5,3211,13061,
scooby_state_560e8c841ee2|27|0 9530,7,5,2,4,3,6,0,4,4,5,4,9,5,3022,12610,
scooby_state_560e8c841ee2|34|0 9415,6,3,8,4,10,5,8,6,9,5,2,6,7,3042,12536,
scooby_state_560e8c841ee2|28|0 9398,9,5,8,6,6,4,6,2,4,9,6,6,3,3029,12501,
scooby_state_560e8c841ee2|29|0 9406,5,7,10,5,0,3,4,6,5,5,2,8,7,2916,12389,
scooby_state_560e8c841eca|11|0 8689,11,17,6,9,12,9,9,4,10,7,10,6,7,3523,12329,
scooby_state_560e8c841ee2|31|0 9091,8,5,7,7,4,6,6,5,2,1,1,3,2,2887,12035,
scooby_state_560e8c841eca|12|0 8319,10,6,11,6,7,5,8,8,6,8,10,10,4,3376,11794,
scooby_state_560e8c841ee2|30|0 8956,7,8,7,5,6,2,8,6,2,6,4,2,1,2753,11773,
scooby_state_560e8c841ee2|32|0 8821,9,5,1,3,2,3,3,8,5,2,6,5,2,2674,11549,
scooby_state_560e8c841eca|14|0 8097,4,7,8,10,10,10,8,4,7,9,6,7,8,3269,11464,
scooby_state_560e8c841eca|13|0 8099,11,8,12,3,10,8,7,6,6,4,5,4,9,3202,11394,
scooby_state_560e8c841ee2|33|0 8639,13,7,8,1,3,9,3,4,4,5,6,1,1,2644,11348,
scooby_state_560e8c841ee2|37|0 8562,6,8,5,4,4,3,5,1,2,5,6,1,1,2609,11222,
scooby_state_560e8c841ee2|42|0 8490,6,3,2,7,4,4,4,5,2,3,7,2,5,2618,11162,
scooby_state_560e8c841ee2|38|0 8232,7,12,3,6,1,6,4,6,4,1,4,5,7,2526,10824,
scooby_state_560e8c841ee2|35|0 8198,8,6,1,6,2,6,5,2,4,1,5,4,8,2517,10773,
scooby_state_560e8c841eca|16|0 7693,8,4,11,4,8,5,3,12,7,8,9,5,7,2980,10764,
scooby_state_560e8c841eca|17|0 7520,4,6,8,4,10,8,4,7,8,4,9,3,6,3045,10646,
scooby_state_560e8c841eca|18|0 7550,11,7,5,8,10,5,4,2,7,8,5,9,6,2982,10619,
scooby_state_560e8c841ee2|40|0 8103,12,3,3,4,3,7,6,7,3,1,3,4,4,2448,10611,
scooby_state_560e8c841eca|15|0 7530,8,6,5,3,6,5,7,4,3,6,8,5,7,2996,10599,
scooby_state_560e8c841ee2|36|0 8036,4,5,1,5,7,3,8,3,3,6,5,6,4,2463,10559,
scooby_state_560e8c841ee2|39|0 7736,5,9,3,4,4,5,2,8,1,7,3,3,5,2505,10300,
scooby_state_560e8c841eca|19|0 7164,5,7,7,5,7,11,4,3,3,8,3,5,8,2802,10042,
scooby_state_560e8c841eca|20|0 7069,7,6,10,8,7,7,4,3,3,9,4,4,10,2882,10033,
scooby_state_560e8c841ee2|44|0 7369,6,3,4,6,4,2,2,4,2,7,6,7,3,2198,9623,
scooby_state_560e8c841ee2|45|0 7039,4,3,4,3,4,5,3,3,3,2,7,1,3,2240,9324,
scooby_state_560e8c841eca|23|0 6747,10,7,5,3,3,7,4,6,12,9,4,6,6,2492,9321,
scooby_state_560e8c841ee2|47|0 7111,2,0,4,3,3,2,4,5,3,5,2,4,5,2065,9218,
scooby_state_560e8c841ee2|41|0 6916,5,7,4,3,2,5,3,3,3,2,4,7,2,2204,9170,
scooby_state_560e8c841eca|22|0 6535,4,5,5,1,6,6,9,7,2,6,5,9,6,2558,9164,
scooby_state_560e8c841eca|21|0 6489,5,6,6,4,7,3,4,7,4,6,6,12,2,2529,9090,
scooby_state_560e8c841eca|25|0 6315,6,2,13,7,7,5,4,9,3,3,6,6,5,2437,8828,
scooby_state_560e8c841ee2|46|0 6705,4,7,4,4,2,6,2,2,7,3,2,6,5,2021,8780,
scooby_state_560e8c841eca|24|0 6219,4,7,6,2,6,7,4,6,5,9,10,3,5,2389,8682,
scooby_state_560e8c841ee2|43|0 6498,9,7,5,4,3,2,6,1,2,3,2,2,1,1898,8443,
scooby_state_560e8c841eca|26|0 6067,9,6,1,5,7,8,1,3,8,8,2,7,4,2300,8436,
scooby_state_560e8c841eca|28|0 5991,4,3,8,4,7,4,4,6,3,10,6,6,4,2331,8391,
scooby_state_560e8c841ee2|48|0 6291,5,4,3,2,1,0,5,4,2,1,2,6,8,1914,8248,
scooby_state_560e8c841eca|27|0 5899,5,8,5,7,8,5,4,5,9,3,10,5,6,2227,8206,
scooby_state_560e8c841ee2|50|0 6238,3,5,4,5,4,5,2,3,2,3,4,3,4,1909,8194,
scooby_state_560e8c841ee2|56|0 6254,4,3,3,5,2,3,1,2,4,4,4,5,0,1894,8188,
scooby_state_560e8c841eca|29|0 5863,10,3,2,7,3,5,3,6,4,6,7,3,4,2150,8076,
scooby_state_560e8c841eca|30|0 5778,4,4,5,4,3,5,5,2,1,3,7,3,5,2129,7958,
scooby_state_560e8c841ee2|52|0 6027,4,5,1,2,2,4,1,3,2,2,4,5,4,1866,7932,
scooby_state_560e8c841eca|33|0 5761,7,2,9,4,4,6,3,3,5,5,4,5,5,2108,7931,
scooby_state_560e8c841eca|31|0 5645,7,7,8,6,3,7,5,1,1,7,4,1,3,2084,7789,
scooby_state_560e8c841eca|32|0 5681,3,5,4,9,3,6,1,7,3,8,9,3,3,2014,7759,
scooby_state_560e8c841ee2|55|0 5834,5,4,5,2,2,4,1,3,5,5,3,4,3,1841,7721,
scooby_state_560e8c841ee2|49|0 5783,3,4,3,1,4,4,2,2,5,0,3,2,4,1761,7581,
scooby_state_560e8c841eca|34|0 5510,1,6,7,8,2,3,4,4,5,3,3,5,5,1986,7552,
scooby_state_560e8c841ee2|51|0 5698,5,5,4,0,2,3,3,3,3,2,3,2,4,1735,7472,
scooby_state_560e8c841ee2|54|0 5688,2,5,3,3,3,4,2,5,2,3,4,1,3,1737,7465,
scooby_state_560e8c841eca|35|0 5410,4,6,3,5,3,2,6,5,2,4,4,6,9,1934,7403,
scooby_state_560e8c841eca|36|0 5628,5,2,8,5,2,5,4,4,1,4,6,5,6,1713,7398,
scooby_state_560e8c841ee2|59|0 5564,4,0,4,6,4,3,2,4,1,6,2,1,2,1668,7271,
scooby_state_560e8c841ee2|57|0 5490,5,2,2,2,3,1,3,0,2,4,2,7,6,1699,7228,
scooby_state_560e8c841eca|37|0 5476,7,8,6,10,2,6,5,5,4,5,7,5,5,1661,7212,
scooby_state_560e8c841eca|40|0 5154,8,4,5,4,5,8,7,2,2,6,4,4,5,1983,7201,
scooby_state_560e8c841ee2|61|0 5415,4,4,6,2,5,2,2,2,1,3,1,7,3,1635,7092,
scooby_state_560e8c841ee2|53|0 5386,1,2,1,2,3,1,3,3,2,3,4,2,4,1627,7044,
scooby_state_560e8c841ee2|60|0 5357,5,5,0,2,6,2,2,2,3,2,7,2,0,1580,6975,
scooby_state_560e8c841eca|38|0 5020,4,6,7,4,3,6,1,3,5,3,4,6,6,1885,6963,
scooby_state_560e8c841ee2|63|0 5350,3,2,2,5,3,2,0,0,3,2,6,0,2,1571,6951,
scooby_state_560e8c841eca|41|0 5015,7,5,4,2,5,5,3,4,4,4,1,7,7,1804,6877,
scooby_state_560e8c841ee2|58|0 5199,4,4,3,3,0,5,2,2,3,2,3,1,2,1576,6809,
scooby_state_560e8c841eca|39|0 4888,3,4,2,4,6,4,7,3,2,3,2,2,6,1753,6689,
scooby_state_560e8c841eca|43|0 4792,6,6,4,3,2,4,4,6,4,3,2,3,4,1808,6651,
scooby_state_560e8c841eca|48|0 4814,6,3,3,1,1,4,3,4,6,5,5,5,5,1681,6546,
scooby_state_560e8c841eca|44|0 4727,5,5,6,4,3,0,1,5,3,3,2,1,5,1745,6515,
scooby_state_560e8c841eca|46|0 4555,4,4,5,6,4,6,6,2,3,6,2,3,3,1680,6289,
scooby_state_560e8c841eca|42|0 4524,4,3,5,4,5,3,1,3,2,2,2,5,2,1668,6233,
scooby_state_560e8c841eca|51|0 4510,3,4,8,3,3,4,4,3,2,4,4,2,6,1607,6167,
scooby_state_560e8c841eca|45|0 4479,6,3,5,5,3,6,2,3,6,0,2,5,3,1603,6131,
scooby_state_560e8c841eca|49|0 4358,3,1,4,6,4,5,3,2,1,1,4,3,5,1645,6045,
scooby_state_560e8c841eca|47|0 4385,3,4,1,2,4,7,4,8,6,1,2,2,7,1592,6028,
scooby_state_560e8c841eca|54|0 4228,3,8,5,6,5,5,3,3,7,5,2,3,4,1572,5859,
scooby_state_560e8c841eca|50|0 4224,5,4,0,2,5,10,5,3,5,4,2,3,6,1523,5801,
scooby_state_560e8c841eca|57|0 4253,3,3,5,2,6,5,4,2,1,3,4,2,6,1475,5774,
scooby_state_560e8c841eca|53|0 4187,2,6,4,1,3,2,1,3,5,1,3,2,2,1535,5757,
scooby_state_560e8c841eca|55|0 4072,5,2,4,2,2,2,5,3,3,3,5,6,6,1555,5675,
scooby_state_560e8c841eca|56|0 4118,1,7,5,3,3,0,2,2,3,3,4,4,1,1430,5586,
scooby_state_560e8c841eca|52|0 4009,4,4,2,4,3,2,4,3,3,3,7,1,8,1510,5567,
scooby_state_560e8c841ee2|56|1 4045,42,25,9,9,11,9,1,6,5,5,3,2,8,1360,5540,
scooby_state_560e8c841eca|60|0 4018,2,5,6,0,1,5,4,6,2,1,6,3,3,1458,5520,
scooby_state_560e8c841eca|58|0 4039,5,4,3,12,7,5,0,2,2,4,2,2,5,1422,5514,
scooby_state_560e8c841ee2|62|0 4223,0,1,4,1,3,1,5,2,1,3,1,2,4,1199,5450,
scooby_state_560e8c841eca|59|0 3927,5,7,5,3,0,7,7,7,2,3,7,1,1,1407,5389,
scooby_state_560e8c841eca|62|0 3851,3,3,8,7,6,3,3,5,2,5,7,4,5,1410,5322,
scooby_state_560e8c841ee2|34|1 4061,30,20,9,6,3,7,6,4,6,2,5,5,2,1153,5319,
scooby_state_560e8c841ee2|21|1 3893,36,20,11,5,4,9,5,12,4,5,3,1,3,1298,5309,
scooby_state_560e8c841ee2|46|1 3969,48,25,10,5,1,2,6,5,7,2,3,2,5,1219,5309,
scooby_state_560e8c841ee2|45|1 3941,50,20,8,6,2,5,2,5,6,5,2,3,2,1224,5281,
scooby_state_560e8c841ee2|18|1 3879,38,18,10,14,4,5,4,4,2,3,5,10,3,1243,5242,
scooby_state_560e8c841ee2|41|1 3983,57,21,2,3,3,6,4,2,3,2,7,1,2,1129,5225,
scooby_state_560e8c841ee2|61|1 3808,52,26,7,7,8,6,7,3,3,3,8,8,4,1268,5218,
scooby_state_560e8c841eca|63|0 3819,2,4,3,3,3,10,4,2,2,3,6,1,3,1325,5190,
scooby_state_560e8c841ee2|26|1 3735,42,23,6,5,5,8,2,4,1,4,3,3,5,1321,5167,
scooby_state_560e8c841ee2|57|1 3781,46,23,12,6,6,6,2,2,0,3,8,3,7,1246,5151,
scooby_state_560e8c841ee2|19|1 3840,43,16,9,5,5,4,6,2,6,3,6,6,3,1187,5141,
scooby_state_560e8c841ee2|42|1 3815,47,25,5,7,5,7,6,6,1,3,3,5,7,1183,5125,
scooby_state_560e8c841ee2|55|1 3774,32,31,8,6,7,9,4,4,5,3,2,1,5,1219,5110,
scooby_state_560e8c841ee2|47|1 3770,48,23,9,8,7,8,1,7,2,3,3,6,2,1205,5102,
scooby_state_560e8c841ee2|43|1 3775,42,30,6,12,4,5,3,2,1,5,3,3,0,1185,5076,
scooby_state_560e8c841ee2|59|1 3655,42,14,8,8,7,2,4,4,4,1,2,3,4,1288,5046,
scooby_state_560e8c841ee2|39|1 3848,48,32,5,6,4,1,7,4,1,2,3,5,1,1078,5045,
scooby_state_560e8c841ee2|3|1 3885,45,20,7,6,1,3,5,2,4,0,2,1,3,1056,5040,
scooby_state_560e8c841ee2|22|1 3734,31,19,4,7,3,4,5,4,3,3,1,0,6,1216,5040,
scooby_state_560e8c841ee2|5|1 3815,38,22,6,7,3,4,1,2,1,1,4,2,5,1109,5020,
scooby_state_560e8c841ee2|20|1 3725,40,17,14,6,7,4,1,6,6,2,3,3,6,1165,5005,
scooby_state_560e8c841ee2|48|1 3692,41,24,7,12,6,8,1,5,2,3,1,4,3,1193,5002,
scooby_state_560e8c841ee2|4|1 3812,41,16,5,7,4,7,3,7,4,3,3,2,5,1075,4994,
scooby_state_560e8c841ee2|40|1 3752,37,19,7,5,7,8,2,4,6,4,6,1,5,1113,4976,
scooby_state_560e8c841ee2|12|1 3760,25,18,10,5,4,11,2,6,2,7,1,4,5,1115,4975,
scooby_state_560e8c841eca|61|0 3602,3,2,2,2,3,3,1,4,4,1,3,5,1,1323,4959,
scooby_state_560e8c841ee2|27|1 3624,44,21,6,11,5,5,3,6,6,2,3,4,6,1206,4952,
scooby_state_560e8c841ee2|44|1 3691,42,31,7,3,5,4,2,6,6,0,1,2,4,1141,4945,
scooby_state_560e8c841ee2|15|1 3704,32,27,10,14,3,5,3,5,4,3,9,7,4,1109,4939,
scooby_state_560e8c841ee2|29|1 3753,48,25,15,9,3,7,2,1,1,3,1,3,1,1063,4935,
scooby_state_560e8c841ee2|16|1 3769,36,19,7,6,5,4,4,6,5,3,6,3,2,1058,4933,
scooby_state_560e8c841ee2|17|1 3668,36,22,11,4,1,8,3,6,2,4,3,2,6,1135,4911,
scooby_state_560e8c841ee2|6|1 3771,37,14,2,9,8,8,2,1,1,3,3,6,1,1010,4876,
scooby_state_560e8c841ee2|52|1 3516,42,27,14,13,6,9,3,4,5,3,3,4,1,1210,4860,
scooby_state_560e8c841ee2|14|1 3663,36,24,6,15,0,8,5,6,6,5,5,5,3,1060,4847,
scooby_state_560e8c841ee2|60|1 3504,49,26,9,6,10,5,5,5,4,5,4,4,3,1207,4846,
scooby_state_560e8c841ee2|31|1 3658,36,18,3,7,9,6,4,3,6,2,7,6,4,1047,4816,
scooby_state_560e8c841ee2|51|1 3581,45,28,7,8,2,6,5,3,4,3,4,4,2,1112,4814,
scooby_state_560e8c841ee2|7|1 3624,40,17,9,8,7,4,6,2,1,0,4,6,1,1079,4808,
scooby_state_560e8c841ee2|10|1 3616,31,22,10,13,2,4,8,6,1,4,5,4,4,1071,4801,
scooby_state_560e8c841ee2|28|1 3637,48,16,5,8,4,7,5,2,4,0,3,2,4,1055,4800,
scooby_state_560e8c841ee2|37|1 3634,37,20,13,13,3,4,3,3,4,0,5,2,1,1042,4784,
scooby_state_560e8c841ee2|62|1 3525,45,25,8,4,8,4,5,3,3,4,3,2,4,1133,4776,
scooby_state_560e8c841ee2|35|1 3680,28,16,7,5,3,5,1,4,5,4,4,8,1,997,4768,
scooby_state_560e8c841ee2|25|1 3498,37,20,8,6,6,7,8,2,5,2,6,0,4,1157,4766,
scooby_state_560e8c841ee2|38|1 3596,41,30,6,5,6,8,7,6,3,4,5,9,6,1033,4765,
scooby_state_560e8c841ee2|33|1 3566,28,22,11,5,5,6,1,6,3,5,5,3,5,1094,4765,
scooby_state_560e8c841ee2|11|1 3610,30,19,7,7,10,4,3,7,3,1,3,1,1,1050,4756,
scooby_state_560e8c841ee2|32|1 3616,37,14,5,9,7,5,3,3,3,6,6,2,3,1024,4743,
scooby_state_560e8c841ee2|24|1 3508,34,19,5,6,4,3,4,8,3,3,3,6,4,1116,4726,
scooby_state_560e8c841ee2|36|1 3576,33,15,11,6,2,5,0,1,2,2,2,3,1,1060,4719,
scooby_state_560e8c841ee2|63|1 3477,45,28,4,5,5,5,3,2,2,8,2,6,2,1118,4712,
scooby_state_560e8c841ee2|54|1 3478,40,25,6,7,7,2,2,2,5,2,6,3,4,1099,4688,
scooby_state_560e8c841ee2|23|1 3454,37,17,12,8,6,10,5,5,0,1,4,0,2,1082,4643,
scooby_state_560e8c841ee2|53|1 3383,43,26,6,5,10,3,2,9,1,3,4,4,3,1116,4618,
scooby_state_560e8c841ee2|30|1 3516,37,16,10,10,7,9,3,2,4,2,2,4,4,985,4611,
scooby_state_560e8c841ee2|49|1 3438,39,20,5,5,6,7,2,6,1,2,3,1,2,1061,4598,
scooby_state_560e8c841ee2|2|1 3472,25,17,8,6,5,6,8,3,2,3,6,5,3,997,4566,
scooby_state_560e8c841ee2|13|1 3384,31,18,4,7,6,6,6,3,2,3,2,2,1,1004,4479,
scooby_state_560e8c841ee2|1|1 3430,37,17,7,4,7,10,4,2,0,1,3,2,2,953,4479,
scooby_state_560e8c841ee2|9|1 3401,40,22,12,6,4,8,6,4,3,2,1,2,5,961,4477,
scooby_state_560e8c841ee2|58|1 3219,60,18,11,5,3,5,2,2,2,1,3,0,6,1082,4419,
scooby_state_560e8c841ee2|50|1 3249,52,20,8,2,3,5,6,3,4,3,2,5,1,1039,4402,
scooby_state_560e8c841ee2|13|2 3172,16,25,8,13,6,4,8,3,3,6,9,6,8,1067,4354,
scooby_state_560e8c841ee2|44|2 3116,27,35,10,14,8,7,3,3,6,6,13,7,9,1072,4336,
scooby_state_560e8c841ee2|42|2 3136,16,34,12,8,12,11,9,10,6,4,4,6,4,1056,4328,
scooby_state_560e8c841ee2|21|2 3081,16,36,13,9,7,12,3,5,4,7,5,3,3,1100,4304,
scooby_state_560e8c841ee2|46|2 3075,18,27,9,11,2,11,5,1,9,7,5,8,8,1087,4283,
scooby_state_560e8c841ee2|28|2 2997,18,17,12,16,11,14,5,7,7,4,5,4,8,1148,4273,
scooby_state_560e8c841ee2|8|1 3216,27,20,14,6,4,2,6,4,3,4,2,6,0,947,4261,
scooby_state_560e8c841ee2|55|2 2995,14,23,13,6,12,3,8,3,2,5,9,5,4,1105,4207,
scooby_state_560e8c841ee2|63|2 2923,13,35,9,9,16,10,7,6,4,6,6,4,7,1140,4195,
scooby_state_560e8c841ee2|54|2 2927,18,34,8,8,10,13,4,5,6,10,10,5,1,1129,4188,
scooby_state_560e8c841ee2|56|2 2916,19,25,15,13,8,7,5,4,4,8,5,2,6,1139,4176,
scooby_state_560e8c841ee2|57|2 2931,20,34,15,7,6,10,5,5,3,7,9,6,6,1088,4152,
scooby_state_560e8c841ee2|58|2 2844,23,22,12,12,8,13,6,6,5,4,9,9,10,1086,4069,
scooby_state_560e8c841ee2|11|2 2932,25,21,8,11,10,13,10,4,8,6,10,12,2,970,4042,
scooby_state_560e8c841ee2|40|2 2893,15,25,9,4,7,12,2,6,3,5,5,5,6,1023,4020,
scooby_state_560e8c841ee2|47|2 2882,17,25,9,14,12,10,6,2,7,1,10,10,9,994,4008,
scooby_state_560e8c841ee2|48|2 2812,21,27,15,11,5,9,8,3,7,2,6,4,2,1062,3994,
scooby_state_560e8c841ee2|59|2 2759,10,22,9,16,15,11,6,12,3,7,5,7,7,1079,3968,
scooby_state_560e8c841ee2|52|2 2839,16,31,8,6,4,10,4,4,3,1,5,10,6,1020,3967,
scooby_state_560e8c841ee2|50|2 2805,16,25,8,13,7,10,7,5,5,6,8,6,6,1024,3951,
scooby_state_560e8c841ee2|34|2 2856,12,27,8,6,10,6,3,5,9,3,5,9,5,963,3927,
scooby_state_560e8c841ee2|61|2 2713,17,30,9,5,11,12,7,9,7,3,5,7,4,1072,3911,
scooby_state_560e8c841ee2|36|2 2806,17,20,11,9,15,9,7,3,9,5,7,2,7,957,3884,
scooby_state_560e8c841ee2|38|2 2833,14,21,9,12,11,11,4,7,7,6,6,2,1,930,3874,
scooby_state_560e8c841ee2|31|2 2836,9,13,11,13,7,12,5,1,4,5,8,5,8,925,3862,
scooby_state_560e8c841ee2|23|2 2741,17,32,6,8,7,8,5,5,10,4,8,5,6,1000,3862,
scooby_state_560e8c841ee2|17|2 2736,19,18,10,9,10,8,8,6,8,4,7,7,7,998,3855,
scooby_state_560e8c841ee2|49|2 2725,19,23,8,14,10,5,9,5,5,2,7,4,9,1009,3854,
scooby_state_560e8c841ee2|35|2 2785,20,24,13,14,12,7,8,7,4,5,8,5,5,919,3836,
scooby_state_560e8c841ee2|19|2 2673,20,23,12,14,13,12,6,5,5,5,7,4,6,1004,3809,
scooby_state_560e8c841ee2|51|2 2664,13,24,17,15,15,9,10,8,4,3,4,6,8,991,3791,
scooby_state_560e8c841ee2|2|2 2803,15,19,13,10,6,6,3,6,6,9,7,2,5,859,3769,
scooby_state_560e8c841ee2|37|2 2701,15,23,8,14,7,6,5,3,6,1,5,4,7,961,3766,
scooby_state_560e8c841ee2|33|2 2725,12,13,7,10,6,11,4,10,11,7,8,4,2,928,3758,
scooby_state_560e8c841ee2|39|2 2725,19,23,7,10,11,9,11,2,3,2,1,5,9,919,3756,
scooby_state_560e8c841ee2|6|2 2708,21,13,14,8,11,8,9,1,3,2,11,5,3,920,3737,
scooby_state_560e8c841ee2|30|2 2748,15,19,11,8,9,7,5,5,5,4,3,6,5,882,3732,
scooby_state_560e8c841ee2|16|2 2633,12,22,9,11,7,10,5,3,4,4,4,4,5,995,3728,
scooby_state_560e8c841ee2|9|2 2698,22,21,6,9,11,17,8,3,6,6,4,4,5,903,3723,
scooby_state_560e8c841ee2|18|2 2658,12,25,17,16,5,12,4,8,3,5,5,4,3,943,3720,
scooby_state_560e8c841ee2|53|2 2598,15,22,20,10,12,9,6,6,1,1,6,8,6,995,3715,
scooby_state_560e8c841ee2|15|2 2658,16,23,12,9,5,6,5,2,5,3,7,6,6,939,3702,
scooby_state_560e8c841ee2|26|2 2566,12,18,13,12,14,13,5,5,6,6,6,3,3,1009,3691,
scooby_state_560e8c841ee2|25|2 2577,16,23,10,6,10,8,5,12,6,2,5,5,3,996,3684,
scooby_state_560e8c841ee2|43|2 2613,19,22,10,12,8,6,5,4,5,12,10,7,5,941,3679,
scooby_state_560e8c841ee2|14|2 2653,19,21,8,12,8,5,3,2,3,5,10,9,10,910,3678,
scooby_state_560e8c841ee2|18|3 2538,9,13,6,8,6,3,2,6,2,4,0,5,4,1068,3674,
scooby_state_560e8c841ee2|7|2 2667,12,23,8,9,8,8,7,8,6,4,8,3,3,896,3670,
scooby_state_560e8c841ee2|41|2 2644,17,17,9,7,12,10,3,9,7,7,6,9,5,893,3655,
scooby_state_560e8c841ee2|4|2 2689,14,21,16,5,2,7,3,2,4,8,14,6,4,846,3641,
scooby_state_560e8c841ee2|5|2 2638,8,15,8,3,9,9,4,5,7,2,13,7,2,886,3616,
scooby_state_560e8c841ee2|45|2 2599,10,21,11,7,6,6,4,3,5,3,9,8,4,893,3589,
scooby_state_560e8c841ee2|60|2 2465,14,26,6,10,11,10,6,5,2,3,7,5,4,1004,3578,
scooby_state_560e8c841ee2|32|2 2588,14,17,7,9,7,8,7,7,0,2,5,5,6,859,3541,
scooby_state_560e8c841ee2|8|2 2572,13,24,7,5,6,6,7,5,6,5,7,5,4,866,3538,
scooby_state_560e8c841ee2|12|2 2538,16,18,11,5,8,7,5,2,10,2,4,6,5,883,3520,
scooby_state_560e8c841ee2|37|3 2460,15,13,9,6,7,3,3,3,3,1,4,4,2,982,3515,
scooby_state_560e8c841ee2|22|2 2470,14,13,6,9,8,9,7,6,5,3,2,10,4,943,3509,
scooby_state_560e8c841ee2|27|2 2434,13,23,13,14,9,9,9,10,6,3,8,6,5,935,3497,
scooby_state_560e8c841ee2|29|2 2503,21,19,6,8,9,4,9,1,7,6,5,8,12,877,3495,
scooby_state_560e8c841ee2|3|2 2593,8,17,8,5,8,10,5,5,4,4,8,5,5,785,3470,
scooby_state_560e8c841ee2|20|2 2419,16,23,7,8,6,8,5,10,4,2,7,4,2,919,3440,
scooby_state_560e8c841ee2|24|2 2408,17,22,14,10,11,9,9,6,6,3,2,3,9,901,3430,
scooby_state_560e8c841ee2|45|3 2399,10,9,5,11,4,3,3,1,2,4,3,0,1,952,3407,
scooby_state_560e8c841ee2|13|3 2393,11,7,8,5,8,2,3,4,4,1,1,1,2,949,3399,
scooby_state_560e8c841ee2|62|2 2353,13,30,13,7,8,12,4,4,12,4,6,5,3,920,3394,
scooby_state_560e8c841ee2|55|3 2243,10,12,3,8,9,6,3,3,11,3,5,1,5,1047,3369,
scooby_state_560e8c841ee2|44|3 2372,16,16,6,6,7,6,4,2,3,2,2,1,3,906,3352,
scooby_state_560e8c841ee2|10|2 2438,18,13,7,11,7,6,5,3,8,3,4,4,6,806,3339,
scooby_state_560e8c841ee2|41|3 2329,12,7,8,8,3,9,0,3,2,5,8,2,3,913,3312,
scooby_state_560e8c841ee2|42|3 2346,6,12,1,11,7,6,1,4,2,5,1,6,3,886,3297,
scooby_state_560e8c841ed6|0|0 3288,0,1,0,2,1,1,1,1,0,0,0,1,0,0,3296,
scooby_state_560e8c841ed6|14|1 3282,1,0,0,0,0,1,1,1,0,2,1,0,0,0,3289,
scooby_state_560e8c841ed6|17|1 3284,0,0,0,1,0,0,0,0,0,0,0,0,0,0,3285,
scooby_state_560e8c841ed6|16|1 3279,0,0,1,0,0,0,2,0,0,1,0,0,0,0,3283,
scooby_state_560e8c841ed6|37|1 3277,1,1,1,0,0,1,0,0,1,0,0,0,0,0,3282,
scooby_state_560e8c841ed6|25|1 3278,0,0,0,1,0,1,0,0,0,1,0,0,0,0,3281,
scooby_state_560e8c841ed6|22|1 3272,0,3,0,0,0,1,1,1,0,0,1,0,0,2,3281,
scooby_state_560e8c841ed6|15|1 3277,0,0,0,1,0,0,0,1,0,0,0,1,0,0,3280,
scooby_state_560e8c841ed6|11|1 3277,0,1,0,0,0,0,0,0,1,1,0,0,0,0,3280,
scooby_state_560e8c841ed6|13|1 3273,1,0,0,1,0,1,0,0,2,0,0,0,1,0,3279,
scooby_state_560e8c841ed6|29|1 3274,0,0,0,0,0,0,0,0,0,0,1,3,1,0,3279,
scooby_state_560e8c841ed6|24|1 3273,1,0,0,0,0,0,0,1,0,0,0,0,0,1,3276,
scooby_state_560e8c841ed6|19|1 3271,0,0,0,1,0,0,1,1,1,0,0,1,0,0,3276,
scooby_state_560e8c841ed6|30|1 3267,0,0,1,1,1,1,1,0,1,1,0,0,0,1,3275,
scooby_state_560e8c841ed6|31|1 3269,0,1,0,2,1,1,0,0,0,1,0,0,0,0,3275,
scooby_state_560e8c841ed6|36|1 3269,2,0,0,0,0,0,0,1,0,0,0,0,1,1,3274,
scooby_state_560e8c841ed6|32|1 3265,0,0,1,1,2,0,0,2,0,0,2,0,1,0,3274,
scooby_state_560e8c841ed6|33|1 3258,1,0,4,0,2,1,2,0,1,0,0,1,1,3,3274,
scooby_state_560e8c841ed6|18|1 3270,1,0,1,0,0,0,1,0,0,0,0,0,1,0,3274,
scooby_state_560e8c841ed6|20|1 3270,0,0,0,0,0,0,0,0,0,1,0,0,2,0,3273,
scooby_state_560e8c841ed6|12|1 3269,1,0,0,0,0,0,2,0,0,0,0,0,0,0,3272,
scooby_state_560e8c841ed6|28|1 3270,0,0,0,0,0,0,0,0,0,0,0,1,0,1,3272,
scooby_state_560e8c841ed6|10|1 3266,0,0,0,1,0,1,1,1,0,0,0,0,1,0,3271,
scooby_state_560e8c841ed6|21|1 3265,1,0,0,0,1,1,0,1,1,0,0,0,0,1,3271,
scooby_state_560e8c841ed6|23|1 3269,0,0,0,0,0,0,0,1,0,0,0,0,0,1,3271,
scooby_state_560e8c841ed6|26|1 3262,1,0,0,1,0,0,2,1,0,0,1,1,0,0,3269,
scooby_state_560e8c841ed6|8|1 3262,1,0,2,0,1,0,0,0,0,0,1,0,0,0,3267,
scooby_state_560e8c841ed6|27|1 3260,0,1,0,0,1,2,1,0,0,0,1,0,1,0,3267,
scooby_state_560e8c841ed6|9|1 3264,1,0,0,0,0,0,1,0,0,0,0,0,0,0,3266,
scooby_state_560e8c841ed6|1|1 3258,1,2,0,0,1,0,0,1,1,1,0,0,0,0,3265,
scooby_state_560e8c841ed6|35|1 3254,2,1,1,0,3,1,1,0,1,0,0,0,1,0,3265,
scooby_state_560e8c841ed6|6|1 3261,0,0,0,0,1,0,1,0,0,0,0,0,1,0,3264,
scooby_state_560e8c841ed6|34|1 3257,0,0,0,0,1,0,0,1,0,0,1,3,0,0,3263,
scooby_state_560e8c841ed6|5|1 3251,0,0,1,1,3,1,1,0,0,2,0,0,0,1,3261,
scooby_state_560e8c841ed6|7|1 3252,0,1,0,0,1,1,0,0,0,0,0,1,0,0,3256,
scooby_state_560e8c841ee2|42|4 2225,8,13,9,9,6,12,5,3,4,6,2,9,4,939,3254,
scooby_state_560e8c841ed6|38|1 3249,0,0,0,0,1,1,0,1,0,0,2,0,0,0,3254,
scooby_state_560e8c841ed6|41|1 3252,0,0,1,1,0,0,0,0,0,0,0,0,0,0,3254,
scooby_state_560e8c841ed6|40|1 3243,1,0,1,0,0,0,1,0,0,1,2,2,0,0,3251,
scooby_state_560e8c841ed6|39|1 3248,1,2,0,0,0,0,0,0,0,0,0,0,0,0,3251,
scooby_state_560e8c841ed6|2|1 3245,2,0,0,1,0,0,0,0,0,0,0,0,1,1,3250,
scooby_state_560e8c841ed6|62|1 3245,0,0,0,0,0,0,1,0,1,1,0,2,0,0,3250,
scooby_state_560e8c841ed6|3|1 3244,0,0,0,0,0,0,0,1,1,0,1,1,1,0,3249,
scooby_state_560e8c841ee2|15|3 2284,6,13,5,5,9,7,1,3,2,3,2,2,3,902,3247,
scooby_state_560e8c841ed6|63|1 3242,1,0,0,1,0,0,0,0,1,0,1,0,1,0,3247,
scooby_state_560e8c841ee2|29|3 2209,12,11,4,5,5,4,1,3,3,5,4,5,6,970,3247,
scooby_state_560e8c841ed6|4|1 3241,0,0,0,1,0,0,1,1,0,0,0,1,0,1,3246,
scooby_state_560e8c841ed6|42|1 3234,0,2,1,0,1,1,1,2,0,0,1,2,0,0,3245,
scooby_state_560e8c841ed6|61|1 3238,0,1,0,2,1,0,0,0,0,0,1,0,1,0,3244,
scooby_state_560e8c841ee2|59|3 2197,13,14,5,5,7,3,6,1,3,4,7,3,8,967,3243,
scooby_state_560e8c841ed6|58|1 3237,1,0,0,0,0,1,0,0,0,0,0,0,0,1,3240,
scooby_state_560e8c841ed6|60|1 3237,0,0,0,0,0,1,0,0,1,0,0,0,0,0,3239,
scooby_state_560e8c841ed6|59|1 3234,0,0,0,0,0,0,0,0,1,1,2,0,0,1,3239,
scooby_state_560e8c841ed6|43|1 3231,0,0,2,0,0,0,2,1,0,0,1,0,0,1,3238,
scooby_state_560e8c841ee2|38|3 2287,10,6,4,2,3,4,0,2,3,2,3,5,2,899,3232,
scooby_state_560e8c841ed6|45|1 3227,0,0,0,1,0,0,0,2,0,0,0,1,0,0,3231,
scooby_state_560e8c841ed6|53|1 3225,0,2,0,0,0,0,1,0,1,0,0,0,0,0,3229,
scooby_state_560e8c841ed6|44|1 3219,0,1,0,0,0,2,0,1,1,0,1,2,0,1,3228,
scooby_state_560e8c841ed6|57|1 3222,1,0,0,0,1,1,1,0,0,1,0,0,1,0,3228,
scooby_state_560e8c841ed6|47|1 3222,0,0,2,0,0,0,0,1,0,1,1,0,0,0,3227,
scooby_state_560e8c841ed6|52|1 3220,2,0,1,0,0,0,0,1,1,0,1,0,1,0,3227,
scooby_state_560e8c841ed6|46|1 3222,0,0,1,0,0,1,1,0,0,0,1,1,0,0,3227,
scooby_state_560e8c841ed6|55|1 3220,1,2,0,0,0,0,0,0,0,1,0,1,0,0,3225,
scooby_state_560e8c841ed6|56|1 3221,0,0,0,0,0,0,0,0,0,1,0,0,3,0,3225,
scooby_state_560e8c841ed6|48|1 3218,1,0,0,0,0,0,0,0,0,1,0,1,0,0,3221,
scooby_state_560e8c841ed6|54|1 3213,1,0,2,0,0,1,0,0,1,1,0,0,0,0,3219,
scooby_state_560e8c841ed6|51|1 3212,0,0,0,0,0,2,1,0,0,0,1,0,0,2,3218,
scooby_state_560e8c841ee2|11|3 2268,10,12,5,6,4,4,1,3,0,4,1,3,2,894,3217,
scooby_state_560e8c841ed6|50|1 3210,0,1,0,0,0,0,1,0,1,0,0,0,1,0,3214,
scooby_state_560e8c841ed6|49|1 3207,1,1,0,0,0,0,1,0,0,0,1,0,0,2,3213,
scooby_state_560e8c841ee2|31|3 2251,13,5,5,6,8,3,6,3,4,4,0,1,0,888,3197,
scooby_state_560e8c841ee2|21|3 2145,11,14,6,1,8,2,2,2,5,1,2,5,2,987,3193,
scooby_state_560e8c841ee2|60|3 2143,11,12,10,3,7,8,2,2,4,3,2,4,5,976,3192,
scooby_state_560e8c841ee2|50|3 2190,12,21,6,7,7,1,3,3,3,0,4,1,8,923,3189,
scooby_state_560e8c841ee2|14|3 2252,15,8,8,8,6,5,1,3,2,3,4,6,3,861,3185,
scooby_state_560e8c841ee2|40|3 2215,11,7,6,5,8,2,4,4,4,4,4,6,4,894,3178,
scooby_state_560e8c841ee2|61|3 2062,11,14,3,7,7,8,4,3,3,1,3,5,7,1032,3170,
scooby_state_560e8c841ee2|56|4 2110,17,13,5,11,9,6,4,6,6,3,4,3,6,950,3153,
scooby_state_560e8c841ee2|58|3 2088,8,9,4,6,6,4,1,3,2,3,0,1,5,981,3121,
scooby_state_560e8c841ee2|63|3 2038,8,5,3,6,4,2,4,3,0,2,1,2,6,1026,3110,
scooby_state_560e8c841ee2|52|3 2126,13,15,5,7,4,4,0,5,4,3,4,1,5,912,3108,
scooby_state_560e8c841ee2|5|3 2187,5,9,7,4,5,5,3,3,4,2,5,3,4,843,3089,
scooby_state_560e8c841ee2|24|3 2098,14,16,4,9,11,4,2,4,2,4,1,3,3,905,3080,
scooby_state_560e8c841ee2|30|3 2148,9,12,6,2,6,3,4,3,4,1,4,3,2,863,3070,
scooby_state_560e8c841ee2|33|3 2165,13,8,7,7,3,2,3,0,3,3,4,2,3,842,3065,
scooby_state_560e8c841ee2|17|3 2061,8,20,8,9,5,2,0,2,4,0,3,4,4,925,3055,
scooby_state_560e8c841ee2|56|3 2039,15,9,7,7,2,5,4,2,1,1,3,4,4,951,3054,
scooby_state_560e8c841ee2|46|3 2087,9,12,10,6,5,5,2,3,3,4,3,1,3,893,3046,
scooby_state_560e8c841ee2|25|3 2055,6,16,7,12,5,6,1,2,1,4,4,7,2,918,3046,
scooby_state_560e8c841ee2|9|3 2170,9,7,6,4,5,1,4,6,1,3,3,2,6,815,3042,
scooby_state_560e8c841ee2|26|3 2071,15,15,8,9,6,0,1,4,4,2,3,5,4,892,3039,
scooby_state_560e8c841ee2|47|3 2074,9,12,3,6,6,4,2,5,1,2,4,2,2,904,3036,
scooby_state_560e8c841ee2|51|3 2085,5,14,6,5,8,4,3,4,1,2,3,1,4,888,3033,
scooby_state_560e8c841ee2|16|3 2140,8,14,7,6,3,9,5,0,1,2,2,2,3,830,3032,
scooby_state_560e8c841ee2|39|3 2133,6,9,7,8,4,5,2,8,6,2,3,2,3,829,3027,
scooby_state_560e8c841ee2|48|3 2105,6,8,4,5,7,2,3,2,1,0,4,4,0,874,3025,
scooby_state_560e8c841ee2|19|3 2081,10,14,4,5,2,6,1,4,2,1,1,5,5,872,3013,
scooby_state_560e8c841ee2|35|3 2096,13,5,4,4,8,6,2,3,8,3,3,3,2,837,2997,
scooby_state_560e8c841ee2|34|3 2124,12,12,5,5,4,6,2,2,2,0,2,1,5,806,2988,
scooby_state_560e8c841ee2|54|3 2006,10,8,7,4,4,8,1,1,2,2,3,4,2,918,2980,
scooby_state_560e8c841ee2|36|3 2111,9,9,2,8,5,3,1,3,2,3,1,5,4,813,2979,
scooby_state_560e8c841ee2|32|3 2057,19,14,6,6,2,4,2,2,2,5,3,4,5,845,2976,
scooby_state_560e8c841ee2|6|3 2133,9,14,5,3,4,6,2,2,3,5,1,1,1,786,2975,
scooby_state_560e8c841ee2|22|3 1995,11,17,3,8,4,5,1,2,3,2,3,2,4,911,2971,
scooby_state_560e8c841ee2|53|3 1999,17,12,4,5,3,1,2,2,3,5,4,2,2,889,2950,
scooby_state_560e8c841ee2|10|3 2113,5,5,5,8,5,2,4,5,4,1,3,2,2,777,2941,
scooby_state_560e8c841ee2|49|3 2008,8,12,6,6,5,2,3,1,2,3,6,1,5,855,2923,
scooby_state_560e8c841ee2|28|3 1998,9,11,3,9,3,3,4,1,7,1,3,3,1,865,2921,
scooby_state_560e8c841ee2|62|3 2022,12,12,8,6,5,3,3,3,2,5,4,5,4,823,2917,
scooby_state_560e8c841ee2|43|3 1978,10,10,7,7,6,3,4,0,4,2,5,5,3,871,2915,
scooby_state_560e8c841ee2|20|3 2013,8,9,4,8,5,3,2,1,2,5,3,3,7,829,2902,
scooby_state_560e8c841ee2|57|3 1977,14,13,5,5,8,4,4,3,1,1,0,3,4,856,2898,
scooby_state_560e8c841ee2|7|3 2077,10,8,3,3,6,3,4,7,2,3,4,1,2,748,2881,
scooby_state_560e8c841ee2|3|3 2069,9,8,2,4,5,5,0,2,3,1,2,4,2,748,2864,
scooby_state_560e8c841ee2|23|3 1903,12,5,3,5,4,3,6,1,3,4,4,3,2,888,2846,
scooby_state_560e8c841ee2|18|4 1928,6,10,5,10,7,6,5,3,4,4,3,4,6,839,2840,
scooby_state_560e8c841ee2|22|4 1875,13,12,13,7,7,7,4,3,3,2,6,5,5,870,2832,
scooby_state_560e8c841ee2|12|3 1987,10,8,8,5,5,5,2,1,1,2,3,1,7,770,2815,
scooby_state_560e8c841ee2|61|4 1871,14,10,8,10,3,6,2,2,3,4,3,6,2,858,2802,
scooby_state_560e8c841ee2|8|3 1985,7,5,1,7,6,4,6,4,2,3,4,1,2,765,2802,
scooby_state_560e8c841ee2|11|4 1947,11,15,7,12,11,6,8,3,5,2,2,4,1,762,2796,
scooby_state_560e8c841ee2|33|4 1937,10,18,5,6,7,8,5,5,4,2,8,4,2,774,2795,
scooby_state_560e8c841ee2|38|4 1964,6,8,7,6,5,9,5,5,2,2,1,6,2,761,2789,
scooby_state_560e8c841ee2|13|4 1915,7,12,5,10,9,6,5,3,5,5,8,4,5,789,2788,
scooby_state_560e8c841ee2|25|4 1813,14,15,10,13,4,7,7,6,1,3,4,8,7,830,2742,
scooby_state_560e8c841ee2|17|4 1863,4,11,6,8,9,6,2,5,4,6,4,8,3,795,2734,
scooby_state_560e8c841ee2|26|5 1727,15,28,8,10,12,8,2,3,2,5,10,4,5,895,2734,
scooby_state_560e8c841ee2|63|4 1830,5,14,4,4,7,5,2,5,1,2,7,1,8,834,2729,
scooby_state_560e8c841ee2|21|4 1831,5,10,7,2,5,11,3,7,5,4,10,5,5,814,2724,
scooby_state_560e8c841ee2|20|4 1822,10,15,6,4,8,5,2,4,4,7,5,3,3,826,2724,
scooby_state_560e8c841ee2|54|4 1836,6,18,4,9,4,7,4,5,2,2,0,5,5,811,2718,
scooby_state_560e8c841ee2|6|4 1888,8,8,4,7,8,9,2,5,2,3,1,8,1,756,2710,
scooby_state_560e8c841ee2|60|4 1800,14,18,6,6,10,8,5,6,1,5,4,5,0,817,2705,
scooby_state_560e8c841ee2|43|4 1861,7,16,2,9,3,7,4,0,3,4,3,8,3,765,2695,
scooby_state_560e8c841ee2|32|4 1825,8,7,6,7,6,12,1,7,0,5,3,8,2,794,2691,
scooby_state_560e8c841ee2|46|4 1827,9,11,10,9,9,5,4,5,4,0,4,6,7,767,2677,
scooby_state_560e8c841ee2|27|3 1791,13,8,7,3,3,6,1,1,6,5,3,5,3,803,2658,
scooby_state_560e8c841ee2|9|4 1857,5,16,9,3,6,9,3,6,7,0,3,13,6,692,2635,
scooby_state_560e8c841ee2|27|4 1698,7,12,4,7,4,11,4,2,2,5,8,4,4,856,2628,
scooby_state_560e8c841ee2|44|4 1803,7,14,6,7,9,7,4,5,2,3,2,2,2,754,2627,
scooby_state_560e8c841ee2|40|4 1774,5,15,5,7,4,7,3,5,2,4,1,6,3,784,2625,
scooby_state_560e8c841ee2|52|4 1742,6,15,6,5,8,8,5,6,4,4,3,5,8,792,2617,
scooby_state_560e8c841ee2|57|4 1697,8,15,6,9,5,9,4,7,5,5,5,11,2,827,2615,
scooby_state_560e8c841ee2|30|4 1749,13,10,9,7,4,9,8,3,1,2,3,5,3,785,2611,
scooby_state_560e8c841ee2|36|4 1778,9,10,7,5,5,6,4,1,3,6,4,10,4,744,2596,
scooby_state_560e8c841ee2|26|4 1725,10,18,8,3,5,8,4,3,5,2,2,4,5,788,2590,
scooby_state_560e8c841ee2|59|4 1716,8,13,7,5,3,5,4,5,1,3,6,4,5,803,2588,
scooby_state_560e8c841ee2|23|4 1694,8,12,2,3,8,7,3,4,4,4,5,7,4,821,2586,
scooby_state_560e8c841ee2|29|4 1731,10,6,6,8,10,6,7,7,2,5,1,11,5,761,2576,
scooby_state_560e8c841ee2|41|4 1753,7,17,6,6,12,11,3,6,1,8,5,6,8,701,2550,
scooby_state_560e8c841ee2|15|4 1721,11,13,8,8,6,10,5,5,5,7,3,4,1,739,2546,
scooby_state_560e8c841ee2|45|4 1743,5,14,4,6,14,6,2,10,3,9,3,7,3,713,2542,
scooby_state_560e8c841ee2|4|3 1822,12,11,5,4,9,2,3,3,1,3,3,1,2,659,2540,
scooby_state_560e8c841ee2|50|4 1704,7,8,4,11,4,11,3,5,2,1,7,8,4,759,2538,
scooby_state_560e8c841ee2|12|4 1770,7,8,3,6,3,4,3,2,7,4,4,6,6,704,2537,
scooby_state_560e8c841ee2|58|4 1666,7,15,6,9,6,6,4,4,6,7,5,5,5,785,2536,
scooby_state_560e8c841ee2|55|4 1691,4,12,4,5,10,8,3,5,3,4,3,3,9,769,2533,
scooby_state_560e8c841ee2|47|4 1702,9,18,9,3,3,8,7,5,5,1,6,8,4,732,2520,
scooby_state_560e8c841ee2|14|4 1753,9,10,5,3,2,9,4,3,4,1,8,4,5,697,2517,
scooby_state_560e8c841ee2|5|4 1744,7,11,5,1,4,9,2,1,4,3,3,6,1,703,2504,
scooby_state_560e8c841ee2|55|5 1629,6,25,9,8,6,6,4,5,5,4,5,3,9,770,2494,
scooby_state_560e8c841ee2|28|4 1649,8,15,4,10,4,10,4,6,3,3,3,6,3,761,2489,
scooby_state_560e8c841ee2|51|4 1682,10,12,7,10,7,7,5,5,4,4,2,6,2,725,2488,
scooby_state_560e8c841ee2|42|5 1653,10,22,6,4,4,12,0,1,4,3,7,2,10,740,2478,
scooby_state_560e8c841ee2|35|4 1712,9,14,2,10,6,8,4,2,4,1,7,4,4,690,2477,
scooby_state_560e8c841ee2|31|5 1611,9,22,13,8,6,8,5,2,4,0,7,7,7,742,2451,
scooby_state_560e8c841ee2|8|4 1696,7,11,5,7,9,9,4,6,2,3,5,6,5,672,2447,
scooby_state_560e8c841ee2|7|4 1716,6,9,4,4,3,4,6,2,3,8,3,2,2,667,2439,
scooby_state_560e8c841ee2|56|5 1538,13,26,15,8,2,5,6,1,2,4,4,7,4,792,2427,
scooby_state_560e8c841ee2|49|4 1581,10,9,5,4,3,6,5,5,1,2,7,7,5,765,2415,
scooby_state_560e8c841ee2|49|5 1599,5,16,9,7,9,4,6,3,4,3,4,3,5,737,2414,
scooby_state_560e8c841ee2|11|5 1654,10,18,11,5,2,5,1,6,3,4,4,6,7,672,2408,
scooby_state_560e8c841ee2|61|5 1550,6,23,10,0,6,9,1,3,2,5,6,4,6,777,2408,
scooby_state_560e8c841ee2|19|4 1600,8,14,7,7,5,7,1,3,8,1,6,1,3,711,2382,
scooby_state_560e8c841ee2|10|4 1599,11,10,5,7,5,12,2,4,2,4,3,3,2,704,2373,
scooby_state_560e8c841ee2|24|4 1544,4,10,4,9,10,4,3,0,1,1,2,9,3,740,2344,
scooby_state_560e8c841ee2|48|4 1556,6,14,2,9,5,7,5,3,6,4,4,5,4,712,2342,
scooby_state_560e8c841ee2|37|4 1596,6,16,6,2,4,10,6,4,5,1,7,9,2,666,2340,
scooby_state_560e8c841ee2|53|5 1532,4,23,10,3,10,6,6,4,7,6,3,3,4,717,2338,
scooby_state_560e8c841ee2|52|5 1517,4,15,12,4,12,3,3,3,6,5,5,3,11,729,2332,
scooby_state_560e8c841ee2|31|4 1625,9,4,8,3,7,8,1,5,4,3,5,6,5,636,2329,
scooby_state_560e8c841ee2|4|4 1635,8,10,1,5,3,1,5,3,4,5,5,5,7,631,2328,
scooby_state_560e8c841ee2|59|5 1512,7,22,10,5,5,1,1,2,6,2,5,1,4,743,2326,
scooby_state_560e8c841ee2|51|5 1505,10,18,8,9,5,8,8,3,1,1,4,6,5,732,2323,
scooby_state_560e8c841ee2|60|5 1515,3,24,5,4,5,6,6,7,8,4,2,4,4,725,2322,
scooby_state_560e8c841ee2|35|5 1531,12,25,12,6,5,8,4,2,3,5,6,5,3,694,2321,
scooby_state_560e8c841ee2|34|4 1565,8,10,4,7,12,2,7,3,4,3,5,7,4,670,2311,
scooby_state_560e8c841ee2|18|5 1537,13,17,7,4,13,1,5,2,5,3,5,7,3,688,2310,
scooby_state_560e8c841ee2|16|4 1510,7,9,5,5,10,6,3,5,4,2,3,3,4,731,2307,
scooby_state_560e8c841ee2|45|5 1517,8,27,7,6,7,4,5,1,5,4,4,2,2,699,2298,
scooby_state_560e8c841ee2|17|5 1547,8,15,9,6,4,9,3,3,6,2,3,2,10,669,2296,
scooby_state_560e8c841ee2|5|5 1522,4,19,9,7,6,7,6,4,6,3,4,0,6,692,2295,
scooby_state_560e8c841ee2|23|5 1500,5,19,14,5,5,10,5,2,3,4,1,4,2,708,2287,
scooby_state_560e8c841ee2|53|4 1563,7,14,3,5,3,3,1,1,3,1,2,4,1,668,2279,
scooby_state_560e8c841ee2|33|5 1536,8,23,6,7,1,5,5,4,2,3,11,5,3,656,2275,
scooby_state_560e8c841ee2|8|5 1531,10,20,9,8,4,8,4,3,4,5,1,5,5,653,2270,
scooby_state_560e8c841ee2|19|5 1465,9,21,9,5,8,6,3,2,4,4,3,3,5,717,2264,
scooby_state_560e8c841ee2|47|5 1496,8,18,7,7,4,6,7,2,3,1,2,7,7,686,2261,
scooby_state_560e8c841ee2|62|4 1447,4,8,6,6,9,10,7,3,3,7,9,3,5,729,2256,
scooby_state_560e8c841ee2|28|5 1459,7,14,9,14,0,9,3,5,3,1,6,3,8,709,2250,
scooby_state_560e8c841ee2|39|4 1535,10,14,7,6,7,4,3,3,1,2,5,6,7,633,2243,
scooby_state_560e8c841ee2|36|5 1506,6,17,10,4,5,5,4,1,4,0,4,3,1,653,2223,
scooby_state_560e8c841ee2|12|5 1484,9,16,8,6,6,2,0,5,3,3,3,3,3,667,2218,
scooby_state_560e8c841ee2|32|5 1449,8,29,7,12,6,13,4,4,8,3,1,5,2,665,2216,
scooby_state_560e8c841ee2|22|5 1475,10,16,9,10,4,3,7,8,3,5,3,5,4,650,2212,
scooby_state_560e8c841ee2|63|5 1445,10,24,6,5,6,2,8,3,2,8,9,7,9,666,2210,
scooby_state_560e8c841ee2|46|5 1459,8,23,4,4,6,8,2,4,3,5,0,8,2,672,2208,
scooby_state_560e8c841ee2|14|5 1468,7,22,4,6,4,9,3,4,2,4,5,7,3,651,2199,
scooby_state_560e8c841ee2|21|5 1412,6,19,11,6,8,8,5,8,7,4,5,4,3,686,2192,
scooby_state_560e8c841ee2|48|5 1447,9,23,4,9,7,9,5,5,8,4,2,2,3,634,2171,
scooby_state_560e8c841ee2|38|5 1439,5,11,5,6,4,4,3,5,4,3,1,9,3,659,2161,
scooby_state_560e8c841ee2|44|5 1407,3,27,8,8,8,10,4,2,1,2,8,1,4,665,2158,
scooby_state_560e8c841ee2|34|5 1443,9,18,5,8,9,7,5,2,2,2,7,1,2,621,2141,
scooby_state_560e8c841ee2|50|5 1391,5,27,5,5,6,8,3,2,5,4,3,5,2,669,2140,
scooby_state_560e8c841ee2|24|5 1384,9,22,7,8,5,11,3,4,3,2,5,7,5,663,2138,
scooby_state_560e8c841ee2|25|5 1414,8,21,15,5,6,5,6,5,2,2,5,3,5,634,2136,
scooby_state_560e8c841ee2|16|5 1441,7,16,8,8,10,6,1,4,6,1,2,6,6,613,2135,
scooby_state_560e8c841ee2|54|5 1370,10,20,5,2,4,3,7,5,5,2,3,4,3,691,2134,
scooby_state_560e8c841ee2|56|6 1418,6,17,2,2,4,7,3,6,6,3,4,4,4,639,2125,
scooby_state_560e8c841ee2|40|5 1418,5,24,8,6,5,6,4,4,1,4,4,2,7,608,2106,
scooby_state_560e8c841ee2|57|5 1318,7,24,6,11,8,7,5,1,4,5,7,4,6,687,2100,
scooby_state_560e8c841ee2|27|5 1357,7,18,14,4,5,5,3,3,3,3,7,6,1,662,2098,
scooby_state_560e8c841ee2|47|6 1369,8,17,5,12,7,6,3,7,2,8,4,5,5,622,2080,
scooby_state_560e8c841ee2|39|5 1372,5,21,9,7,9,7,5,6,6,3,4,4,3,616,2077,
scooby_state_560e8c841ee2|9|5 1412,6,10,8,4,4,5,5,0,0,1,7,1,5,606,2074,
scooby_state_560e8c841ee2|7|5 1388,4,23,5,8,6,4,1,1,1,3,2,3,3,621,2073,
scooby_state_560e8c841ee2|11|6 1407,11,9,8,5,10,3,3,8,3,2,4,5,6,580,2064,
scooby_state_560e8c841ee2|28|6 1319,10,12,6,9,4,3,4,8,4,4,5,6,2,665,2061,
scooby_state_560e8c841ee2|19|6 1303,9,14,5,9,7,9,1,3,3,3,6,5,1,676,2054,
scooby_state_560e8c841ee2|20|5 1354,10,20,4,7,3,5,7,1,3,2,4,3,1,622,2046,
scooby_state_560e8c841ee2|41|5 1396,4,13,4,4,7,5,1,3,3,0,4,5,3,593,2045,
scooby_state_560e8c841ee2|10|5 1387,5,19,7,4,3,8,3,2,0,3,2,4,4,592,2043,
scooby_state_560e8c841ee2|23|6 1290,8,11,4,13,5,10,4,11,5,4,7,5,4,651,2032,
scooby_state_560e8c841ee2|63|6 1248,12,13,4,11,4,5,2,9,3,2,8,3,6,686,2016,
scooby_state_560e8c841ee2|43|5 1360,6,21,5,11,7,5,2,4,2,2,4,2,2,571,2004,
scooby_state_560e8c841ee2|46|6 1292,9,7,3,9,11,5,7,2,6,5,6,4,3,633,2002,
scooby_state_560e8c841ee2|6|5 1368,8,18,4,5,4,4,1,4,3,1,4,3,3,571,2001,
scooby_state_560e8c841ee2|40|6 1335,12,12,8,3,4,4,4,6,5,10,2,6,7,582,2000,
scooby_state_560e8c841ee2|27|6 1302,7,12,4,7,11,4,3,6,4,1,7,8,7,616,1999,
scooby_state_560e8c841ee2|15|6 1324,10,8,6,6,7,5,3,8,1,0,6,5,5,604,1998,
scooby_state_560e8c841ee2|37|5 1349,5,16,5,6,3,8,2,3,2,1,4,5,4,584,1997,
scooby_state_560e8c841ee2|38|6 1324,10,11,4,10,4,6,9,4,4,2,3,10,5,586,1992,
scooby_state_560e8c841ee2|62|5 1263,5,21,6,7,4,3,2,4,0,3,5,4,8,651,1986,
scooby_state_560e8c841ee2|51|6 1282,8,11,10,5,9,4,3,1,6,2,6,5,5,613,1970,
scooby_state_560e8c841ee2|34|7 1320,10,13,8,6,9,6,5,7,2,3,6,6,9,556,1966,
scooby_state_560e8c841ee2|26|7 1240,12,10,6,5,12,13,5,4,5,2,9,6,7,629,1965,
scooby_state_560e8c841ee2|13|5 1313,5,22,11,8,5,6,4,1,4,6,6,8,0,556,1955,
scooby_state_560e8c841ee2|62|6 1225,4,16,4,6,10,5,4,3,2,4,7,8,5,651,1954,
scooby_state_560e8c841ee2|52|6 1207,11,9,8,11,7,5,1,4,1,6,4,4,6,668,1952,
scooby_state_560e8c841ee2|26|6 1244,7,7,12,5,6,5,2,6,3,5,4,2,3,639,1950,
scooby_state_560e8c841ee2|9|6 1278,5,9,10,5,5,5,8,7,2,5,1,3,5,587,1935,
scooby_state_560e8c841ee2|43|6 1314,8,7,6,2,11,2,5,1,3,1,6,1,6,550,1923,
scooby_state_560e8c841ee2|53|6 1262,4,10,9,8,7,4,5,4,3,4,6,6,3,582,1917,
scooby_state_560e8c841ee2|42|6 1287,6,7,7,6,7,5,2,5,5,1,2,3,2,570,1915,
scooby_state_560e8c841ee2|18|6 1226,9,14,4,3,5,6,3,2,4,4,6,6,4,618,1914,
scooby_state_560e8c841ee2|10|6 1277,8,12,6,5,5,8,4,2,3,3,2,5,5,567,1912,
scooby_state_560e8c841ee2|36|6 1242,4,12,13,8,7,8,4,2,2,0,5,9,0,595,1911,
scooby_state_560e8c841ee2|59|6 1235,10,8,8,13,5,3,5,5,3,3,3,1,4,604,1910,
scooby_state_560e8c841ee2|13|6 1269,7,6,6,5,2,15,4,1,3,3,2,1,5,580,1909,
scooby_state_560e8c841ee2|17|6 1256,10,12,6,4,7,9,2,9,4,3,6,2,4,564,1898,
scooby_state_560e8c841ee2|48|6 1270,6,13,7,6,3,7,5,5,2,2,5,5,3,557,1896,
scooby_state_560e8c841ee2|21|6 1226,10,16,6,7,5,6,3,2,5,4,6,3,6,590,1895,
scooby_state_560e8c841ee2|60|6 1219,11,8,4,5,1,12,4,5,2,4,4,5,5,605,1894,
scooby_state_560e8c841ee2|12|6 1248,11,11,10,7,7,6,3,5,3,5,2,5,3,565,1891,
scooby_state_560e8c841ee2|50|6 1243,9,14,4,8,4,3,5,4,8,1,6,4,7,568,1888,
scooby_state_560e8c841ee2|24|6 1228,5,12,6,4,5,5,6,2,8,2,8,1,3,591,1886,
scooby_state_560e8c841ee2|29|5 1211,10,17,4,5,3,6,1,2,2,3,2,7,3,606,1882,
scooby_state_560e8c841ee2|42|7 1280,9,16,7,8,14,7,3,2,1,4,6,3,2,520,1882,
scooby_state_560e8c841ee2|34|6 1282,7,6,8,9,3,4,3,8,3,3,5,4,6,529,1880,
scooby_state_560e8c841ee2|32|6 1170,6,10,3,10,5,2,3,9,4,3,9,7,7,631,1879,
scooby_state_560e8c841ee2|44|7 1234,7,10,5,5,7,5,4,1,8,5,4,10,12,559,1876,
scooby_state_560e8c841ee2|30|5 1168,8,24,7,4,8,6,4,3,1,3,6,7,3,618,1870,
scooby_state_560e8c841ee2|58|5 1179,9,18,3,5,6,5,6,3,0,2,6,3,4,616,1865,
scooby_state_560e8c841ee2|50|8 1239,6,13,8,9,6,2,2,1,3,3,1,2,1,562,1858,
scooby_state_560e8c841ee2|41|6 1249,8,13,4,5,5,4,6,8,3,6,3,4,2,538,1858,
scooby_state_560e8c841ee2|25|6 1198,10,11,6,5,3,6,5,6,2,5,5,4,4,583,1853,
scooby_state_560e8c841ee2|54|6 1204,5,13,9,5,4,8,1,4,2,1,4,7,6,578,1851,
scooby_state_560e8c841ee2|39|6 1255,8,8,5,6,5,4,3,2,2,0,4,6,1,541,1850,
scooby_state_560e8c841ee2|15|5 1217,12,16,11,4,3,1,4,3,0,3,1,8,1,566,1850,
scooby_state_560e8c841ee2|31|6 1204,7,11,3,2,4,5,7,2,2,3,3,5,1,586,1845,
scooby_state_560e8c841ee2|14|6 1215,5,16,3,2,4,4,4,3,1,2,1,1,1,564,1826,
scooby_state_560e8c841ee2|61|6 1147,13,7,3,3,9,8,2,7,5,5,2,5,8,601,1825,
scooby_state_560e8c841ee2|45|7 1211,8,7,5,9,5,4,4,6,3,2,6,9,8,535,1822,
scooby_state_560e8c841ee2|6|6 1235,7,15,3,4,6,5,3,3,1,5,5,3,4,523,1822,
scooby_state_560e8c841ee2|44|6 1190,7,9,5,7,3,2,6,5,3,4,2,10,5,558,1816,
scooby_state_560e8c841ee2|35|6 1164,6,11,4,7,9,4,3,2,4,7,6,6,6,572,1811,
scooby_state_560e8c841ee2|33|6 1206,1,15,10,8,6,4,3,9,2,5,3,4,2,533,1811,
scooby_state_560e8c841ee2|55|6 1177,4,4,10,5,3,5,4,5,8,2,2,4,3,573,1809,
scooby_state_560e8c841ee2|53|7 1182,7,10,6,9,7,10,3,7,2,1,4,5,4,544,1801,
scooby_state_560e8c841ee2|20|6 1197,8,7,3,6,3,9,3,7,2,3,6,2,4,541,1801,
scooby_state_560e8c841ee2|52|7 1177,10,11,7,4,6,6,2,2,5,5,4,5,9,544,1797,
scooby_state_560e8c841ee2|11|7 1210,6,14,6,6,1,9,11,4,7,4,8,3,6,498,1793,
scooby_state_560e8c841ee2|28|7 1158,9,15,2,7,11,11,7,2,2,4,7,4,9,544,1792,
scooby_state_560e8c841ee2|22|6 1143,5,7,7,5,6,11,4,7,3,3,5,2,7,566,1781,
scooby_state_560e8c841ee2|55|8 1187,6,4,12,6,2,4,4,4,2,4,2,2,3,534,1776,
scooby_state_560e8c841ee2|37|6 1186,8,11,4,3,3,8,4,8,5,2,5,6,4,510,1767,
scooby_state_560e8c841ee2|57|6 1152,6,8,4,9,3,6,2,7,2,3,3,4,3,555,1767,
scooby_state_560e8c841ee2|21|7 1156,9,12,6,9,5,5,7,3,2,4,5,5,8,528,1764,
scooby_state_560e8c841ee2|47|7 1128,8,11,8,9,4,4,6,6,8,4,7,6,5,547,1761,
scooby_state_560e8c841ee2|8|6 1194,6,12,7,5,3,4,0,3,3,5,1,2,3,509,1757,
scooby_state_560e8c841ee2|46|7 1135,3,12,7,14,6,6,5,10,3,4,6,0,10,533,1754,
scooby_state_560e8c841ee2|16|6 1153,5,11,4,6,8,9,6,5,3,3,2,4,5,528,1752,
scooby_state_560e8c841ee2|9|7 1170,7,5,11,7,3,9,4,4,4,6,3,6,12,501,1752,
scooby_state_560e8c841ee2|37|7 1150,8,9,6,4,5,4,5,5,4,3,3,9,14,503,1732,
scooby_state_560e8c841ee2|63|7 1082,7,13,3,11,6,5,5,2,7,6,3,3,8,571,1732,
scooby_state_560e8c841ee2|56|7 1068,12,10,5,8,14,7,3,4,3,6,4,11,9,561,1725,
scooby_state_560e8c841ee2|54|8 1141,5,11,7,6,5,6,3,3,6,1,1,3,2,521,1721,
scooby_state_560e8c841ee2|42|8 1164,7,5,5,2,3,3,5,2,4,1,3,2,2,511,1719,
scooby_state_560e8c841ee2|54|7 1126,6,12,10,6,5,5,5,6,3,3,6,4,6,514,1717,
scooby_state_560e8c841ee2|29|6 1100,4,15,6,9,2,6,2,5,5,2,4,4,6,544,1714,
scooby_state_560e8c841ee2|34|8 1119,6,8,7,9,4,3,2,2,7,2,2,2,4,536,1713,
scooby_state_560e8c841ee2|45|6 1141,9,14,6,3,3,5,2,6,5,2,2,2,2,510,1712,
scooby_state_560e8c841ee2|61|7 1096,4,17,6,5,7,7,6,1,6,6,1,4,11,533,1710,
scooby_state_560e8c841ee2|24|7 1095,14,11,7,3,2,16,1,8,4,2,5,6,14,520,1708,
scooby_state_560e8c841ee2|25|7 1126,9,15,11,7,7,7,4,4,1,7,4,2,11,492,1707,
scooby_state_560e8c841ee2|58|6 1050,6,8,6,9,7,1,7,7,3,4,7,4,6,581,1706,
scooby_state_560e8c841ee2|12|7 1156,4,4,5,4,10,10,5,8,1,5,2,3,4,476,1697,
scooby_state_560e8c841ee2|16|7 1137,10,18,8,5,7,9,7,4,3,1,7,6,6,468,1696,
scooby_state_560e8c841ee2|49|6 1120,3,15,5,5,5,5,5,5,2,1,6,2,3,508,1690,
scooby_state_560e8c841ee2|31|7 1079,9,14,7,9,8,3,4,2,3,4,7,6,6,523,1684,
scooby_state_560e8c841ee2|20|7 1097,2,7,6,5,6,11,6,0,3,5,7,2,9,513,1679,
scooby_state_560e8c841ee2|26|8 1038,8,7,5,8,6,5,1,3,2,3,5,6,5,576,1678,
scooby_state_560e8c841ee2|22|8 1054,7,7,7,5,2,4,1,2,3,1,7,6,5,563,1674,
scooby_state_560e8c841ee2|39|7 1094,4,11,4,6,6,9,9,10,1,3,3,4,11,496,1671,
scooby_state_560e8c841ee2|52|8 1097,7,3,4,8,0,2,7,4,6,2,2,6,4,517,1669,
scooby_state_560e8c841ee2|36|7 1127,6,9,6,5,4,7,3,4,5,3,3,5,8,472,1667,
scooby_state_560e8c841ee2|18|7 1071,9,17,5,5,3,12,6,5,4,5,4,9,8,504,1667,
scooby_state_560e8c841ee2|55|7 1065,8,4,6,5,7,5,11,9,2,4,4,8,11,514,1663,
scooby_state_560e8c841ee2|33|7 1079,7,12,11,10,3,5,7,3,0,2,4,5,4,509,1661,
scooby_state_560e8c841ee2|19|8 1117,6,8,7,3,7,7,2,1,1,4,2,3,5,482,1655,
scooby_state_560e8c841ee2|30|6 1060,7,16,7,5,6,10,3,9,2,3,4,2,4,515,1653,
scooby_state_560e8c841ee2|41|7 1095,9,7,10,5,7,10,6,7,9,3,3,10,9,462,1652,
scooby_state_560e8c841ee2|12|8 1088,9,11,7,6,3,5,1,1,3,1,5,3,0,505,1648,
scooby_state_560e8c841ee2|51|7 1061,9,13,7,5,3,7,3,3,4,5,8,4,3,512,1647,
scooby_state_560e8c841ee2|49|7 1071,6,11,13,3,3,6,3,7,7,7,2,4,3,496,1642,
scooby_state_560e8c841ee2|14|7 1056,9,10,4,7,4,7,6,2,3,3,6,4,5,503,1629,
scooby_state_560e8c841ee2|13|7 1087,9,6,7,7,5,10,4,2,3,3,7,3,9,465,1627,
scooby_state_560e8c841ee2|10|7 1080,8,9,6,4,10,6,2,4,4,7,0,4,8,475,1627,
scooby_state_560e8c841ee2|30|7 1017,12,10,9,2,6,8,4,2,5,6,9,6,7,523,1626,
scooby_state_560e8c841ee2|60|8 1042,3,6,3,3,3,3,3,4,4,1,3,3,1,537,1619,
scooby_state_560e8c841ee2|7|6 1098,6,15,2,5,3,3,5,5,2,3,4,4,1,460,1616,
scooby_state_560e8c841ee2|50|7 1079,9,8,4,1,7,5,4,5,1,2,3,6,7,474,1615,
scooby_state_560e8c841ee2|21|10 1079,12,12,5,3,5,12,8,4,7,5,6,3,6,442,1609,
scooby_state_560e8c841ee2|40|7 1050,8,5,8,10,9,9,3,2,3,5,5,7,10,460,1594,
scooby_state_560e8c841ee2|48|7 1052,4,14,9,6,7,5,8,4,5,2,2,5,4,463,1590,
scooby_state_560e8c841ee2|23|7 1064,8,14,3,5,6,14,1,2,1,5,7,3,9,444,1586,
scooby_state_560e8c841ee2|60|7 983,9,13,8,8,11,4,5,6,4,6,5,2,5,510,1579,
scooby_state_560e8c841ee2|35|7 1054,2,6,6,3,7,5,7,3,3,3,7,7,3,462,1578,
scooby_state_560e8c841ee2|44|8 1018,4,11,2,6,7,3,2,2,3,1,2,2,5,506,1574,
scooby_state_560e8c841ee2|11|8 1064,2,9,4,1,2,6,1,2,4,5,3,6,2,462,1573,
scooby_state_560e8c841ee2|32|7 975,6,11,9,3,7,7,4,8,7,5,3,5,10,512,1572,
scooby_state_560e8c841ee2|15|8 1086,5,2,4,6,1,5,1,1,3,1,3,1,2,443,1564,
scooby_state_560e8c841ee2|15|9 1034,10,12,5,9,5,7,4,4,7,10,8,3,8,438,1564,
scooby_state_560e8c841ee2|63|8 986,2,7,2,8,6,1,5,1,3,1,1,5,9,515,1552,
scooby_state_560e8c841ee2|14|8 1042,8,6,3,4,8,4,3,2,2,3,1,5,3,455,1549,
scooby_state_560e8c841ee2|15|7 1029,4,9,9,5,3,4,5,2,3,2,2,2,10,454,1543,
scooby_state_560e8c841ee2|39|8 998,10,7,3,4,5,7,2,2,3,4,6,5,3,482,1541,
scooby_state_560e8c841ee2|29|7 950,6,13,5,3,10,13,1,3,3,2,8,5,3,513,1538,
scooby_state_560e8c841ee2|56|9 981,13,10,7,9,8,10,7,3,5,1,7,3,5,468,1537,
scooby_state_560e8c841ee2|21|8 972,5,12,8,5,3,1,4,1,2,2,2,7,6,505,1535,
scooby_state_560e8c841ee2|59|7 970,8,18,7,5,4,5,3,4,2,0,3,6,9,490,1534,
scooby_state_560e8c841ee2|27|7 955,5,12,6,4,6,9,7,8,3,6,3,7,8,490,1529,
scooby_state_560e8c841ee2|28|8 993,3,7,1,5,4,3,1,0,1,3,2,3,0,501,1527,
scooby_state_560e8c841ee2|46|10 998,6,10,8,8,8,11,8,7,7,4,7,6,5,433,1526,
scooby_state_560e8c841ee2|30|8 924,4,12,3,2,5,2,4,3,3,2,2,4,4,541,1515,
scooby_state_560e8c841ee2|47|8 986,8,5,5,4,7,0,1,2,3,0,5,3,4,478,1511,
scooby_state_560e8c841ee2|17|8 957,3,8,3,3,4,2,5,1,1,2,3,6,7,505,1510,
scooby_state_560e8c841ee2|11|9 992,6,6,13,7,6,8,4,5,3,5,7,5,6,437,1510,
scooby_state_560e8c841ee2|22|7 956,13,6,7,4,4,10,4,4,4,2,7,2,8,478,1509,
scooby_state_560e8c841ee2|29|8 957,9,8,9,5,5,2,3,1,2,6,3,2,5,491,1508,
scooby_state_560e8c841ee2|58|7 932,4,11,10,7,6,9,6,6,5,5,4,3,9,485,1502,
scooby_state_560e8c841ee2|46|8 974,5,4,7,3,3,3,2,3,3,4,4,2,3,476,1496,
scooby_state_560e8c841ee2|23|8 948,3,6,4,4,5,3,4,4,2,1,3,5,1,502,1495,
scooby_state_560e8c841ee2|36|8 978,1,7,2,7,4,5,2,0,4,1,1,3,1,478,1494,
scooby_state_560e8c841ee2|56|8 953,4,9,5,2,1,2,4,2,3,3,4,3,2,496,1493,
scooby_state_560e8c841ee2|16|9 1028,9,9,6,9,9,7,8,4,5,8,7,5,7,371,1492,
scooby_state_560e8c841ee2|45|8 1007,5,5,2,4,4,2,5,3,2,3,5,2,5,437,1491,
scooby_state_560e8c841ee2|21|9 982,9,7,9,7,7,3,4,5,4,7,5,8,11,420,1488,
scooby_state_560e8c841ee2|59|8 940,5,5,7,5,3,7,3,3,3,2,3,0,4,495,1485,
scooby_state_560e8c841ee2|13|8 955,8,8,5,5,2,3,2,1,2,3,2,9,4,462,1471,
scooby_state_560e8c841ee2|63|9 932,10,13,14,0,4,5,5,6,8,2,2,3,5,461,1470,
scooby_state_560e8c841ee2|17|7 986,7,5,3,5,4,3,2,4,6,3,5,5,6,425,1469,
scooby_state_560e8c841ee2|19|7 922,10,11,8,8,5,4,4,7,2,2,4,10,6,459,1462,
scooby_state_560e8c841ee2|40|8 975,6,6,0,1,2,2,0,2,3,1,4,1,3,455,1461,
scooby_state_560e8c841ee2|62|7 915,6,8,8,4,5,5,5,7,3,2,2,4,6,477,1457,
scooby_state_560e8c841ee2|7|7 972,5,7,4,3,8,7,3,5,6,2,3,5,2,423,1455,
scooby_state_560e8c841ee2|27|9 939,17,10,14,4,9,8,3,6,2,6,5,5,2,422,1452,
scooby_state_560e8c841ee2|18|8 913,10,6,4,4,5,7,3,7,4,2,3,3,2,472,1445,
scooby_state_560e8c841ee2|37|8 941,8,4,5,5,3,3,1,1,4,5,2,3,3,456,1444,
scooby_state_560e8c841ee2|35|9 936,13,6,10,4,6,8,5,6,8,3,6,10,6,414,1441,
scooby_state_560e8c841ee2|13|10 953,7,5,14,6,4,7,3,3,6,3,8,7,4,409,1439,
scooby_state_560e8c841ee2|44|9 941,7,9,12,7,3,6,6,7,4,5,8,4,2,417,1438,
scooby_state_560e8c841ee2|55|9 893,14,7,9,4,9,12,6,8,5,9,5,4,6,444,1435,
scooby_state_560e8c841ee2|58|8 906,3,11,6,3,7,4,4,6,4,0,8,2,3,463,1430,
scooby_state_560e8c841ee2|27|8 902,4,2,4,2,3,4,3,3,3,1,5,3,8,482,1429,
scooby_state_560e8c841ee2|30|9 883,8,8,17,13,7,5,4,4,3,7,5,4,5,454,1427,
scooby_state_560e8c841ee2|53|8 927,2,7,8,3,6,0,2,2,2,2,4,2,5,450,1422,
scooby_state_560e8c841ee2|8|8 966,6,2,0,1,6,3,3,1,2,3,1,3,2,416,1415,
scooby_state_560e8c841ee2|31|9 889,17,10,12,8,11,12,6,3,2,2,6,3,7,425,1413,
scooby_state_560e8c841ee2|25|8 892,3,11,5,5,4,7,3,6,1,3,1,5,2,460,1408,
scooby_state_560e8c841ee2|9|8 923,7,8,3,3,2,1,4,1,5,1,4,1,4,441,1408,
scooby_state_560e8c841ee2|38|7 962,6,10,4,2,6,6,5,5,3,3,1,6,4,385,1408,
scooby_state_560e8c841ee2|32|9 907,7,8,6,11,7,7,4,6,1,2,8,5,5,423,1407,
scooby_state_560e8c841ee2|41|8 959,6,12,8,1,5,2,4,4,4,3,4,3,1,390,1406,
scooby_state_560e8c841ee2|60|9 898,11,5,3,8,6,8,5,5,4,5,11,4,4,422,1399,
scooby_state_560e8c841ee2|29|9 877,9,13,10,7,9,7,5,3,3,6,8,5,4,433,1399,
scooby_state_560e8c841ee2|38|8 895,3,8,1,4,1,1,3,4,2,4,3,3,5,458,1395,
scooby_state_560e8c841ee2|33|8 875,4,8,7,4,6,4,2,4,2,5,2,0,3,466,1392,
scooby_state_560e8c841ee2|57|7 878,6,13,4,2,5,3,6,4,3,5,2,3,7,450,1391,
scooby_state_560e8c841ee2|48|8 894,9,8,2,2,4,4,3,2,1,3,5,3,1,448,1389,
scooby_state_560e8c841ee2|22|9 902,9,17,13,9,9,9,5,8,1,7,6,8,4,381,1388,
scooby_state_560e8c841ee2|43|7 940,6,4,6,5,4,10,3,5,3,1,2,2,4,391,1386,
scooby_state_560e8c841eca|33|1 988,9,6,3,10,3,5,3,2,6,3,4,3,7,331,1383,
scooby_state_560e8c841ee2|61|9 902,11,11,8,4,4,6,3,2,7,6,2,6,5,406,1383,
scooby_state_560e8c841ee2|54|9 916,10,6,13,6,3,8,6,3,2,2,3,8,5,392,1383,
scooby_state_560e8c841ee2|8|7 918,5,7,5,3,6,3,1,3,2,5,5,4,4,412,1383,
scooby_state_560e8c841ee2|51|9 879,11,10,13,5,5,7,5,3,3,3,7,8,7,416,1382,
scooby_state_560e8c841ee2|53|9 893,12,12,13,5,7,2,6,5,3,3,7,3,3,405,1379,
scooby_state_560e8c841ee2|43|9 897,10,7,8,9,6,7,5,7,5,6,3,4,4,397,1375,
scooby_state_560e8c841ee2|10|8 916,7,4,5,4,6,2,3,1,0,0,3,2,3,419,1375,
scooby_state_560e8c841ee2|16|8 870,2,7,3,4,3,7,1,1,3,3,2,1,3,464,1374,
scooby_state_560e8c841ee2|28|9 866,7,4,7,6,11,4,3,6,5,3,1,2,6,443,1374,
scooby_state_560e8c841ee2|24|8 904,6,9,7,2,2,3,3,1,2,2,2,4,4,422,1373,
scooby_state_560e8c841ee2|35|8 884,1,8,5,3,4,2,1,0,0,1,4,0,2,454,1369,
scooby_state_560e8c841ee2|42|9 879,9,10,6,9,6,12,6,4,2,5,4,4,7,403,1366,
scooby_state_560e8c841ee2|45|9 880,6,6,11,7,1,14,2,3,4,8,3,4,5,411,1365,
scooby_state_560e8c841eca|19|1 950,3,14,11,5,7,6,2,4,2,8,2,7,8,335,1364,
scooby_state_560e8c841ee2|20|8 876,2,3,3,8,8,3,5,3,1,2,3,2,4,437,1360,
scooby_state_560e8c841eca|10|1 1002,2,10,4,6,2,3,5,2,1,2,4,3,3,310,1359,
scooby_state_560e8c841ee2|36|10 906,9,5,17,1,5,10,6,3,6,7,4,3,3,374,1359,
scooby_state_560e8c841eca|11|1 990,5,10,6,8,4,8,7,4,4,2,3,2,3,302,1358,
scooby_state_560e8c841ee2|55|11 904,7,3,3,4,1,1,3,1,3,2,3,2,0,420,1357,
scooby_state_560e8c841eca|3|1 1016,9,16,3,1,3,8,3,0,4,5,2,3,5,278,1356,
scooby_state_560e8c841ee2|61|8 849,1,5,4,7,2,3,1,6,1,0,5,0,4,465,1353,
scooby_state_560e8c841ee2|48|10 913,5,7,10,8,7,5,8,3,4,3,4,9,4,362,1352,
scooby_state_560e8c841ee2|22|11 896,3,6,4,2,3,3,1,1,0,2,3,2,2,421,1349,
scooby_state_560e8c841ee2|24|9 916,4,8,13,7,6,6,2,5,6,12,4,4,4,352,1349,
scooby_state_560e8c841ee2|63|11 896,7,2,2,3,4,5,1,1,3,1,2,3,4,413,1347,
scooby_state_560e8c841ee2|32|8 819,5,8,8,1,3,4,1,1,1,1,2,3,4,482,1343,
scooby_state_560e8c841ee2|57|8 875,3,6,5,1,1,6,1,2,3,0,3,2,1,431,1340,
scooby_state_560e8c841eca|41|1 1001,6,11,3,5,2,3,3,3,2,8,8,7,0,274,1336,
scooby_state_560e8c841ee2|31|8 842,4,5,10,2,4,2,4,3,1,1,1,3,3,450,1335,
scooby_state_560e8c841eca|40|1 984,4,7,3,8,5,5,3,3,3,3,5,4,6,290,1333,
scooby_state_560e8c841ee2|40|9 873,7,15,14,4,8,6,2,4,5,4,2,5,2,380,1331,
scooby_state_560e8c841eca|14|1 918,6,13,7,6,3,7,3,6,5,3,2,9,5,338,1331,
scooby_state_560e8c841eca|48|1 948,9,5,2,2,5,7,7,9,4,5,6,4,5,310,1328,
scooby_state_560e8c841ee2|34|9 864,8,12,9,5,2,6,7,5,6,5,5,7,4,382,1327,
scooby_state_560e8c841eca|21|1 975,6,7,11,6,5,6,1,2,6,7,2,3,1,285,1323,
scooby_state_560e8c841ee2|43|8 876,3,5,4,4,1,5,2,1,2,1,8,1,3,404,1320,
scooby_state_560e8c841ee2|56|10 829,13,5,14,4,4,9,6,6,4,5,6,7,8,400,1320,
scooby_state_560e8c841eca|60|1 940,5,8,10,6,8,3,4,6,5,5,0,2,3,313,1318,
scooby_state_560e8c841ee2|14|9 867,11,6,7,4,11,4,2,8,3,5,9,6,6,365,1314,
scooby_state_560e8c841ee2|52|10 856,7,5,7,10,10,8,4,3,4,1,6,2,4,387,1314,
scooby_state_560e8c841eca|2|1 1008,5,9,4,8,6,4,4,4,1,7,0,4,6,240,1310,
scooby_state_560e8c841ee2|46|9 843,15,7,11,9,8,5,4,2,3,8,9,3,5,374,1306,
scooby_state_560e8c841eca|51|1 928,4,4,8,6,2,4,8,7,2,1,9,3,5,311,1302,
scooby_state_560e8c841ee2|59|9 828,8,9,5,6,6,4,5,6,3,3,6,2,4,406,1301,
scooby_state_560e8c841ee2|37|9 849,9,13,10,7,13,9,2,8,4,5,5,7,1,358,1300,
scooby_state_560e8c841eca|4|1 970,8,11,8,6,6,8,2,2,3,2,3,5,2,264,1300,
scooby_state_560e8c841ee2|62|8 810,10,6,6,4,5,1,2,2,0,2,5,4,3,439,1299,
scooby_state_560e8c841eca|27|1 888,8,8,9,3,4,7,2,3,2,2,4,3,4,352,1299,
scooby_state_560e8c841eca|17|1 894,9,13,3,5,5,5,5,2,1,3,6,6,4,336,1297,
scooby_state_560e8c841eca|55|1 933,8,10,5,7,7,4,2,5,5,0,5,7,4,294,1296,
scooby_state_560e8c841eca|30|1 883,9,12,6,7,7,7,8,1,3,1,4,5,1,340,1294,
scooby_state_560e8c841ee2|57|9 832,17,14,10,8,9,5,3,1,8,5,6,6,5,364,1293,
scooby_state_560e8c841ee2|39|12 858,7,9,8,7,10,9,4,3,10,4,4,4,4,347,1288,
scooby_state_560e8c841eca|56|1 920,6,10,6,6,8,5,3,5,2,2,5,2,1,306,1287,
scooby_state_560e8c841ee2|58|9 808,11,9,7,7,5,4,5,6,2,4,5,2,6,406,1287,
scooby_state_560e8c841eca|58|1 923,8,12,8,13,3,10,6,3,1,1,3,0,1,294,1286,
scooby_state_560e8c841eca|20|1 896,3,19,9,5,2,7,1,4,1,1,5,4,5,322,1284,
scooby_state_560e8c841eca|63|1 892,12,12,6,5,3,7,5,4,5,2,6,4,5,316,1284,
scooby_state_560e8c841ee2|18|9 808,10,8,8,9,3,7,6,6,5,3,1,7,7,395,1283,
scooby_state_560e8c841eca|18|1 878,9,6,10,9,6,8,5,4,2,3,3,6,4,327,1280,
scooby_state_560e8c841eca|57|1 931,8,9,6,7,7,9,5,4,6,2,4,2,3,276,1279,
scooby_state_560e8c841eca|52|1 931,9,11,8,9,5,7,6,5,1,5,5,6,2,269,1279,
scooby_state_560e8c841ee2|50|9 847,7,7,7,4,5,6,3,4,4,3,9,7,1,365,1279,
scooby_state_560e8c841ee2|57|10 804,3,5,15,5,4,5,7,7,5,3,3,2,9,401,1278,
scooby_state_560e8c841eca|15|1 897,8,6,2,6,10,6,4,5,4,3,5,6,2,311,1275,
scooby_state_560e8c841ee2|17|11 859,8,5,0,2,1,5,3,4,4,2,0,1,1,379,1274,
scooby_state_560e8c841eca|1|1 954,5,9,9,5,5,2,1,5,3,4,6,3,3,260,1274,
scooby_state_560e8c841eca|34|1 889,2,9,7,9,9,5,6,5,4,2,6,5,12,301,1271,
scooby_state_560e8c841eca|50|1 933,6,3,6,5,5,4,6,3,3,2,9,6,5,274,1270,
scooby_state_560e8c841eca|5|1 945,4,14,8,7,6,6,2,3,6,1,3,6,1,257,1269,
scooby_state_560e8c841eca|9|1 965,4,9,7,4,6,5,4,4,3,4,2,1,6,245,1269,
scooby_state_560e8c841ee2|49|8 789,6,4,5,1,4,2,4,3,2,4,8,3,3,430,1268,
scooby_state_560e8c841ee2|13|9 808,11,5,8,10,14,6,7,7,1,3,2,3,7,376,1268,
scooby_state_560e8c841ee2|26|9 791,5,8,8,6,2,4,5,2,4,2,7,9,6,408,1267,
scooby_state_560e8c841eca|37|1 935,7,12,6,4,7,5,5,3,5,2,2,3,6,264,1266,
scooby_state_560e8c841ee2|23|9 810,12,12,13,3,4,8,4,7,2,3,3,5,3,376,1265,
scooby_state_560e8c841ee2|33|9 799,8,9,10,7,4,10,13,3,2,5,4,3,13,374,1264,
scooby_state_560e8c841ee2|17|9 819,4,8,9,11,3,4,2,3,2,2,2,10,4,381,1264,
scooby_state_560e8c841ee2|55|10 834,6,6,4,8,7,8,1,5,3,1,4,11,7,358,1263,
scooby_state_560e8c841eca|54|1 893,11,7,12,7,2,5,2,5,5,3,8,4,6,292,1262,
scooby_state_560e8c841ee2|19|12 819,8,8,10,5,6,8,4,5,6,3,6,4,12,357,1261,
scooby_state_560e8c841ee2|25|9 852,8,5,3,9,6,5,2,3,5,4,7,4,5,342,1260,
scooby_state_560e8c841ee2|36|9 836,8,8,4,5,4,9,6,4,0,3,4,4,7,357,1259,
scooby_state_560e8c841ee2|26|10 801,5,8,6,6,4,6,6,5,6,4,8,7,5,379,1256,
scooby_state_560e8c841eca|23|1 866,3,12,12,8,3,7,4,7,2,6,3,6,5,311,1255,
scooby_state_560e8c841ee2|39|9 821,4,8,7,10,6,4,3,11,4,2,4,5,4,361,1254,
scooby_state_560e8c841eca|36|1 940,6,11,5,7,5,7,3,3,2,2,3,0,4,255,1253,
scooby_state_560e8c841ee2|12|9 817,7,6,10,8,6,6,4,5,2,4,2,6,6,363,1252,
scooby_state_560e8c841eca|59|1 903,6,9,5,6,7,2,3,3,5,2,6,3,3,289,1252,
scooby_state_560e8c841ee2|38|9 813,6,12,7,10,6,9,5,6,4,4,2,1,3,363,1251,
scooby_state_560e8c841eca|7|1 896,4,8,10,5,7,5,8,4,2,5,1,7,4,282,1248,
scooby_state_560e8c841eca|39|1 954,5,9,4,3,7,3,5,2,6,2,2,3,7,236,1248,
scooby_state_560e8c841eca|6|1 923,7,8,9,7,5,6,1,3,4,5,1,3,5,257,1244,
scooby_state_560e8c841ee2|31|10 802,8,9,9,1,9,5,6,1,5,1,6,4,2,376,1244,
scooby_state_560e8c841eca|49|1 909,5,6,6,2,1,4,5,3,4,4,6,5,3,280,1243,
scooby_state_560e8c841ee2|54|10 790,6,7,9,4,7,8,4,4,6,4,4,5,7,376,1241,
scooby_state_560e8c841ee2|14|10 831,6,5,8,6,5,4,6,3,7,6,7,5,4,338,1241,
scooby_state_560e8c841ee2|12|10 816,4,5,4,5,5,4,6,7,6,3,7,7,5,357,1241,
scooby_state_560e8c841eca|29|1 846,13,10,7,5,4,9,6,4,3,4,4,1,5,318,1239,
scooby_state_560e8c841ee2|51|8 824,6,8,11,5,2,6,0,2,2,1,3,3,3,362,1238,
scooby_state_560e8c841ee2|45|10 818,14,6,8,4,10,11,3,5,5,8,3,4,3,335,1237,
[...]
scooby_state_560e8c841ebf|49|2 1,0,0,0,0,0,0,0,0,0,0,0,0,0,0,1,
scooby_state_14ce07d49090|2|-34 1,0,0,0,0,0,0,0,0,0,0,0,0,0,0,1,
scooby_state_560e8c841ee2|2|-52 1,0,0,0,0,0,0,0,0,0,0,0,0,0,0,1,
scooby_state_560e8c841ed6|4|3 1,0,0,0,0,0,0,0,0,0,0,0,0,0,0,1,
scooby_state_560e8c841ebf|58|21 1,0,0,0,0,0,0,0,0,0,0,0,0,0,0,1,
scooby_state_560e8c841ec6|20|17 1,0,0,0,0,0,0,0,0,0,0,0,0,0,0,1,
scooby_state_560e8c841e77|58|24 0,0,0,1,0,0,0,0,0,0,0,0,0,0,0,1,
scooby_state_560e8c841ed6|48|27 1,0,0,0,0,0,0,0,0,0,0,0,0,0,0,1,
scooby_state_560e8c841eca|10|-16 1,0,0,0,0,0,0,0,0,0,0,0,0,0,0,1,
scooby_state_560e8c841eca|2|-2 0,0,0,0,0,0,0,0,1,0,0,0,0,0,0,1,
scooby_state_560e8c841eca|8|-25 1,0,0,0,0,0,0,0,0,0,0,0,0,0,0,1,
scooby_state_560e8c841ebf|38|13 1,0,0,0,0,0,0,0,0,0,0,0,0,0,0,1,
scooby_state_560e8c841ebf|47|17 1,0,0,0,0,0,0,0,0,0,0,0,0,0,0,1,
scooby_state_560e8c841ebf|10|6 1,0,0,0,0,0,0,0,0,0,0,0,0,0,0,1,
scooby_state_14ce07d48bc5|47|1 1,0,0,0,0,0,0,0,0,0,0,0,0,0,0,1,
scooby_state_560e8c841ec6|14|8 0,0,0,1,0,0,0,0,0,0,0,0,0,0,0,1,
scooby_state_560e8c841e77|49|34 1,0,0,0,0,0,0,0,0,0,0,0,0,0,0,1,
scooby_state_560e8c841d01|14|7 1,0,0,0,0,0,0,0,0,0,0,0,0,0,0,1,
scooby_state_560e8c841e77|20|14 1,0,0,0,0,0,0,0,0,0,0,0,0,0,0,1,
scooby_state_560e8c841f00|60|1 1,0,0,0,0,0,0,0,0,0,0,0,0,0,0,1,
scooby_state_560e8c841ec6|56|8 0,0,0,0,0,0,0,0,0,1,0,0,0,0,0,1,
scooby_state_560e8c841ebf|14|6 1,0,0,0,0,0,0,0,0,0,0,0,0,0,0,1,
scooby_state_560e8c841ed6|28|3 1,0,0,0,0,0,0,0,0,0,0,0,0,0,0,1,
scooby_state_560e8c841eca|0|-15 1,0,0,0,0,0,0,0,0,0,0,0,0,0,0,1,
scooby_state_560e8c841ebf|63|3 0,0,0,0,0,0,0,0,1,0,0,0,0,0,0,1,
scooby_state_560e8c841ebf|63|9 0,0,0,0,0,0,0,0,0,0,1,0,0,0,0,1,
scooby_state_560e8c841ebf|39|5 0,0,0,0,0,0,0,0,0,1,0,0,0,0,0,1,
scooby_state_560e8c841ebf|48|10 0,0,0,0,0,0,0,0,0,0,0,1,0,0,0,1,
scooby_state_560e8c841ec6|34|8 0,0,1,0,0,0,0,0,0,0,0,0,0,0,0,1,
scooby_state_560e8c841ed6|27|16 1,0,0,0,0,0,0,0,0,0,0,0,0,0,0,1,
scooby_state_560e8c841ec6|30|7 1,0,0,0,0,0,0,0,0,0,0,0,0,0,0,1,
scooby_state_560e8c841eca|16|-19 1,0,0,0,0,0,0,0,0,0,0,0,0,0,0,1,
scooby_state_560e8c841ed6|54|26 1,0,0,0,0,0,0,0,0,0,0,0,0,0,0,1,
scooby_state_14ce07d83207|2|-47 1,0,0,0,0,0,0,0,0,0,0,0,0,0,0,1,
scooby_state_560e8c841ebf|44|10 1,0,0,0,0,0,0,0,0,0,0,0,0,0,0,1,
scooby_state_560e8c841ec6|40|1 1,0,0,0,0,0,0,0,0,0,0,0,0,0,0,1,
scooby_state_14ce07d80ef2|59|2 1,0,0,0,0,0,0,0,0,0,0,0,0,0,0,1,
scooby_state_560e8c841e77|52|31 0,0,0,0,0,0,0,0,0,1,0,0,0,0,0,1,
scooby_state_560e8c841ebf|57|42 0,0,0,0,0,0,0,0,0,0,0,0,1,0,0,1,
scooby_state_560e8c841e77|21|13 1,0,0,0,0,0,0,0,0,0,0,0,0,0,0,1,
scooby_state_14ce07d80940|37|1 1,0,0,0,0,0,0,0,0,0,0,0,0,0,0,1,
scooby_state_560e8c841ec6|49|33 1,0,0,0,0,0,0,0,0,0,0,0,0,0,0,1,
scooby_state_560e8c841ebf|48|19 0,0,0,0,0,1,0,0,0,0,0,0,0,0,0,1,
scooby_state_560e8c841ec6|31|10 0,0,0,0,0,0,1,0,0,0,0,0,0,0,0,1,
scooby_state_560e8c842346|13|1 1,0,0,0,0,0,0,0,0,0,0,0,0,0,0,1,
scooby_state_14ce07da7567|21|4 1,0,0,0,0,0,0,0,0,0,0,0,0,0,0,1,
scooby_state_560e8c841dc0|55|1 1,0,0,0,0,0,0,0,0,0,0,0,0,0,0,1,
scooby_state_560e8c841ebf|12|3 0,0,0,0,1,0,0,0,0,0,0,0,0,0,0,1,
scooby_state_14ce07d488b0|34|-6 1,0,0,0,0,0,0,0,0,0,0,0,0,0,0,1,
scooby_state_560e8c841e77|25|5 0,0,0,0,0,0,0,0,1,0,0,0,0,0,0,1,
scooby_state_560e8c841ebf|58|32 1,0,0,0,0,0,0,0,0,0,0,0,0,0,0,1,
scooby_state_560e8c841ed6|63|37 1,0,0,0,0,0,0,0,0,0,0,0,0,0,0,1,
scooby_state_560e8c841eca|1|-59 1,0,0,0,0,0,0,0,0,0,0,0,0,0,0,1,
scooby_state_560e8c841ee2|3|-58 0,0,0,0,0,0,0,0,0,0,1,0,0,0,0,1,
scooby_state_14ce07d83212|8|4 1,0,0,0,0,0,0,0,0,0,0,0,0,0,0,1,
scooby_state_560e8c841f0a|47|0 1,0,0,0,0,0,0,0,0,0,0,0,0,0,0,1,
scooby_state_560e8c841ec6|38|9 1,0,0,0,0,0,0,0,0,0,0,0,0,0,0,1,
scooby_state_560e8c841ec6|43|9 1,0,0,0,0,0,0,0,0,0,0,0,0,0,0,1,
scooby_state_14ce07d0d2c0|11|10 1,0,0,0,0,0,0,0,0,0,0,0,0,0,0,1,
scooby_state_560e8c841ebf|57|4 1,0,0,0,0,0,0,0,0,0,0,0,0,0,0,1,
scooby_state_560e8c841ec6|36|6 1,0,0,0,0,0,0,0,0,0,0,0,0,0,0,1,
scooby_state_560e8c841ed6|57|11 1,0,0,0,0,0,0,0,0,0,0,0,0,0,0,1,
scooby_state_560e8c841ed6|36|7 1,0,0,0,0,0,0,0,0,0,0,0,0,0,0,1,
scooby_state_560e8c841ed6|45|20 1,0,0,0,0,0,0,0,0,0,0,0,0,0,0,1,
scooby_state_560e8c841eca|8|-13 0,0,0,0,0,0,0,0,0,0,0,0,0,0,1,1,
scooby_state_560e8c841ebf|14|3 0,0,0,0,0,0,0,0,0,0,1,0,0,0,0,1,
scooby_state_560e8c841ec6|21|5 0,0,0,0,0,0,0,1,0,0,0,0,0,0,0,1,
scooby_state_560e8c841ed6|54|53 1,0,0,0,0,0,0,0,0,0,0,0,0,0,0,1,
scooby_state_560e8c841ebf|16|8 0,0,0,0,0,0,0,1,0,0,0,0,0,0,0,1,
scooby_state_560e8c841ebf|46|7 0,0,0,0,0,0,0,0,0,0,0,0,0,0,1,1,
scooby_state_560e8c841ec6|5|1 1,0,0,0,0,0,0,0,0,0,0,0,0,0,0,1,
scooby_state_560e8c841e70|59|1 0,1,0,0,0,0,0,0,0,0,0,0,0,0,0,1,
scooby_state_560e8c841eca|20|-2 0,0,0,0,0,0,0,0,1,0,0,0,0,0,0,1,
scooby_state_560e8c841ebf|34|5 1,0,0,0,0,0,0,0,0,0,0,0,0,0,0,1,
scooby_state_560e8c841ebf|60|6 1,0,0,0,0,0,0,0,0,0,0,0,0,0,0,1,
scooby_state_560e8c841ed6|60|11 1,0,0,0,0,0,0,0,0,0,0,0,0,0,0,1,
scooby_state_14ce07d808f4|49|0 1,0,0,0,0,0,0,0,0,0,0,0,0,0,0,1,
scooby_state_560e8c842376|7|1 1,0,0,0,0,0,0,0,0,0,0,0,0,0,0,1,
scooby_state_14ce07d83dc2|55|1 1,0,0,0,0,0,0,0,0,0,0,0,0,0,0,1,
scooby_state_560e8c841e77|18|9 1,0,0,0,0,0,0,0,0,0,0,0,0,0,0,1,
scooby_state_560e8c841f0a|14|0 1,0,0,0,0,0,0,0,0,0,0,0,0,0,0,1,
scooby_state_560e8c841ec6|58|20 1,0,0,0,0,0,0,0,0,0,0,0,0,0,0,1,
scooby_state_560e8c841ed6|8|6 1,0,0,0,0,0,0,0,0,0,0,0,0,0,0,1,
scooby_state_560e8c841ed6|35|2 1,0,0,0,0,0,0,0,0,0,0,0,0,0,0,1,
scooby_state_14ce07da7941|37|1 1,0,0,0,0,0,0,0,0,0,0,0,0,0,0,1,
scooby_state_560e8c841eca|14|-35 1,0,0,0,0,0,0,0,0,0,0,0,0,0,0,1,
scooby_state_560e8c841e77|51|23 1,0,0,0,0,0,0,0,0,0,0,0,0,0,0,1,
scooby_state_560e8c841ebf|21|2 0,0,0,0,0,0,0,0,0,1,0,0,0,0,0,1,
scooby_state_560e8c841ebf|61|22 1,0,0,0,0,0,0,0,0,0,0,0,0,0,0,1,
scooby_state_560e8c841e7b|44|0 0,0,0,0,0,1,0,0,0,0,0,0,0,0,0,1,
scooby_state_560e8c841e77|43|41 0,0,0,0,0,0,0,0,0,0,0,0,1,0,0,1,
scooby_state_560e8c841eca|31|-23 0,0,0,0,0,0,0,0,0,1,0,0,0,0,0,1,
scooby_state_560e8c841e77|40|39 0,1,0,0,0,0,0,0,0,0,0,0,0,0,0,1,
scooby_state_560e8c841ebf|20|5 0,0,0,0,0,0,0,1,0,0,0,0,0,0,0,1,
scooby_state_560e8c841ebf|20|9 1,0,0,0,0,0,0,0,0,0,0,0,0,0,0,1,
scooby_state_560e8c841ebf|35|14 1,0,0,0,0,0,0,0,0,0,0,0,0,0,0,1,
scooby_state_560e8c841ed6|40|9 1,0,0,0,0,0,0,0,0,0,0,0,0,0,0,1,
scooby_state_560e8c841ee2|2|-55 1,0,0,0,0,0,0,0,0,0,0,0,0,0,0,1,
scooby_state_560e8c841f15|45|0 0,0,0,1,0,0,0,0,0,0,0,0,0,0,0,1,
scooby_state_7ffeca1c9e41|57|1 1,0,0,0,0,0,0,0,0,0,0,0,0,0,0,1,
scooby_state_560e8c841f15|59|0 0,1,0,0,0,0,0,0,0,0,0,0,0,0,0,1,
scooby_state_560e8c841ec6|26|7 1,0,0,0,0,0,0,0,0,0,0,0,0,0,0,1,
scooby_state_560e8c841ec6|35|23 1,0,0,0,0,0,0,0,0,0,0,0,0,0,0,1,
scooby_state_560e8c841ebf|37|17 0,0,0,0,0,0,0,0,0,0,0,1,0,0,0,1,
scooby_state_560e8c841eca|13|-17 1,0,0,0,0,0,0,0,0,0,0,0,0,0,0,1,
scooby_state_560e8c841ec6|30|16 0,0,0,0,0,0,0,0,0,0,1,0,0,0,0,1,
scooby_state_14ce0871c6d0|14|-26 1,0,0,0,0,0,0,0,0,0,0,0,0,0,0,1,
scooby_state_560e8c841d7f|5|-5 1,0,0,0,0,0,0,0,0,0,0,0,0,0,0,1,
scooby_state_560e8c841e77|50|30 0,0,0,0,0,0,0,0,0,0,0,0,0,0,1,1,
scooby_state_560e8c841e77|47|28 0,0,1,0,0,0,0,0,0,0,0,0,0,0,0,1,
scooby_state_560e8c841ec6|49|3 1,0,0,0,0,0,0,0,0,0,0,0,0,0,0,1,
scooby_state_560e8c841ec6|62|12 0,0,0,1,0,0,0,0,0,0,0,0,0,0,0,1,
scooby_state_560e8c841ec6|60|4 1,0,0,0,0,0,0,0,0,0,0,0,0,0,0,1,
scooby_state_560e8c841ed6|57|22 1,0,0,0,0,0,0,0,0,0,0,0,0,0,0,1,
scooby_state_560e8c841ebf|45|2 1,0,0,0,0,0,0,0,0,0,0,0,0,0,0,1,
scooby_state_14ce07d7a420|16|5 1,0,0,0,0,0,0,0,0,0,0,0,0,0,0,1,
scooby_state_560e8c841e77|55|26 1,0,0,0,0,0,0,0,0,0,0,0,0,0,0,1,
scooby_state_560e8c841eca|0|-58 0,0,1,0,0,0,0,0,0,0,0,0,0,0,0,1,
scooby_state_560e8c841ee2|0|-22 1,0,0,0,0,0,0,0,0,0,0,0,0,0,0,1,
scooby_state_560e8c841ec6|17|7 1,0,0,0,0,0,0,0,0,0,0,0,0,0,0,1,
scooby_state_560e8c841ec6|29|1 1,0,0,0,0,0,0,0,0,0,0,0,0,0,0,1,
scooby_state_560e8c841f0a|10|0 1,0,0,0,0,0,0,0,0,0,0,0,0,0,0,1,
scooby_state_560e8c841ec6|21|12 1,0,0,0,0,0,0,0,0,0,0,0,0,0,0,1,
scooby_state_560e8c841ebf|32|19 1,0,0,0,0,0,0,0,0,0,0,0,0,0,0,1,
scooby_state_560e8c841ed6|37|15 1,0,0,0,0,0,0,0,0,0,0,0,0,0,0,1,
scooby_state_560e8c841ed6|52|22 1,0,0,0,0,0,0,0,0,0,0,0,0,0,0,1,
scooby_state_560e8c841ec6|12|3 0,0,0,0,0,0,0,0,0,0,0,0,0,1,0,1,
scooby_state_560e8c841ed6|33|4 1,0,0,0,0,0,0,0,0,0,0,0,0,0,0,1,
scooby_state_560e8c841ec6|2|-57 0,0,0,0,0,0,0,1,0,0,0,0,0,0,0,1,
scooby_state_560e8c841eca|10|-21 0,0,1,0,0,0,0,0,0,0,0,0,0,0,0,1,
scooby_state_560e8c841ed6|41|17 1,0,0,0,0,0,0,0,0,0,0,0,0,0,0,1,
scooby_state_560e8c841ebf|38|12 1,0,0,0,0,0,0,0,0,0,0,0,0,0,0,1,
scooby_state_560e8c841eca|0|-19 0,0,0,0,0,0,0,0,0,0,0,0,1,0,0,1,
scooby_state_560e8c841ed6|43|7 1,0,0,0,0,0,0,0,0,0,0,0,0,0,0,1,
scooby_state_560e8c841e77|56|7 0,0,1,0,0,0,0,0,0,0,0,0,0,0,0,1,
scooby_state_560e8c841ed6|51|16 1,0,0,0,0,0,0,0,0,0,0,0,0,0,0,1,
scooby_state_560e8c841ed6|23|4 1,0,0,0,0,0,0,0,0,0,0,0,0,0,0,1,
scooby_state_560e8c841ec6|46|24 0,0,0,0,0,0,0,0,0,0,0,0,1,0,0,1,
scooby_state_560e8c841ebf|33|7 0,0,1,0,0,0,0,0,0,0,0,0,0,0,0,1,
scooby_state_560e8c841e77|14|2 0,0,1,0,0,0,0,0,0,0,0,0,0,0,0,1,
scooby_state_560e8c841ed6|9|5 1,0,0,0,0,0,0,0,0,0,0,0,0,0,0,1,
scooby_state_560e8c841ed6|13|12 1,0,0,0,0,0,0,0,0,0,0,0,0,0,0,1,
scooby_state_560e8c841e77|40|30 0,0,0,0,1,0,0,0,0,0,0,0,0,0,0,1,
scooby_state_14ce07d47682|26|1 1,0,0,0,0,0,0,0,0,0,0,0,0,0,0,1,
scooby_state_560e8c841ebf|4|4 1,0,0,0,0,0,0,0,0,0,0,0,0,0,0,1,
scooby_state_560e8c841ebf|52|8 0,0,0,0,0,0,0,0,0,0,0,1,0,0,0,1,
scooby_state_560e8c841eca|0|-30 0,0,0,0,0,0,0,0,0,0,1,0,0,0,0,1,
scooby_state_560e8c841ed6|56|21 1,0,0,0,0,0,0,0,0,0,0,0,0,0,0,1,
scooby_state_560e8c841ed6|10|6 1,0,0,0,0,0,0,0,0,0,0,0,0,0,0,1,
scooby_state_560e8c841ebf|49|11 0,1,0,0,0,0,0,0,0,0,0,0,0,0,0,1,
scooby_state_560e8c841ed6|47|23 1,0,0,0,0,0,0,0,0,0,0,0,0,0,0,1,
scooby_state_560e8c841ec6|39|2 0,0,0,0,0,0,0,0,0,0,0,0,0,0,1,1,
scooby_state_560e8c841ec6|43|2 1,0,0,0,0,0,0,0,0,0,0,0,0,0,0,1,
scooby_state_560e8c841ec6|44|1 0,1,0,0,0,0,0,0,0,0,0,0,0,0,0,1,
scooby_state_560e8c841ec6|63|33 1,0,0,0,0,0,0,0,0,0,0,0,0,0,0,1,
scooby_state_560e8c841e77|9|2 0,0,0,1,0,0,0,0,0,0,0,0,0,0,0,1,
scooby_state_560e8c841ed6|25|14 1,0,0,0,0,0,0,0,0,0,0,0,0,0,0,1,
scooby_state_560e8c841ec6|42|6 1,0,0,0,0,0,0,0,0,0,0,0,0,0,0,1,
scooby_state_560e8c841f0a|32|0 1,0,0,0,0,0,0,0,0,0,0,0,0,0,0,1,
scooby_state_560e8c841eca|19|-26 1,0,0,0,0,0,0,0,0,0,0,0,0,0,0,1,
scooby_state_560e8c8403f0|15|0 1,0,0,0,0,0,0,0,0,0,0,0,0,0,0,1,
scooby_state_560e8c844280|10|-2 1,0,0,0,0,0,0,0,0,0,0,0,0,0,0,1,
scooby_state_560e8c8403f0|54|0 1,0,0,0,0,0,0,0,0,0,0,0,0,0,0,1,
scooby_state_560e8c841ec6|56|20 0,0,0,0,0,1,0,0,0,0,0,0,0,0,0,1,
scooby_state_14ce07d0d230|8|-3 1,0,0,0,0,0,0,0,0,0,0,0,0,0,0,1,
scooby_state_560e8c841ebf|11|5 0,0,0,0,0,0,0,1,0,0,0,0,0,0,0,1,
scooby_state_560e8c841ed6|15|11 1,0,0,0,0,0,0,0,0,0,0,0,0,0,0,1,
scooby_state_560e8c841ee2|2|-37 1,0,0,0,0,0,0,0,0,0,0,0,0,0,0,1,
scooby_state_560e8c841e77|29|7 0,0,0,0,1,0,0,0,0,0,0,0,0,0,0,1,
scooby_state_560e8c841ec6|14|2 0,0,0,0,0,0,0,0,0,0,1,0,0,0,0,1,
scooby_state_560e8c841e77|48|28 0,0,0,0,0,1,0,0,0,0,0,0,0,0,0,1,
scooby_state_14ce07d476c4|27|1 1,0,0,0,0,0,0,0,0,0,0,0,0,0,0,1,
scooby_state_560e8c840600|59|2 1,0,0,0,0,0,0,0,0,0,0,0,0,0,0,1,
scooby_state_14ce07da7682|26|1 1,0,0,0,0,0,0,0,0,0,0,0,0,0,0,1,
scooby_state_560e8c841ed6|48|37 1,0,0,0,0,0,0,0,0,0,0,0,0,0,0,1,
scooby_state_560e8c841eca|30|-11 1,0,0,0,0,0,0,0,0,0,0,0,0,0,0,1,
scooby_state_14ce07d831f0|7|-36 1,0,0,0,0,0,0,0,0,0,0,0,0,0,0,1,
scooby_state_560e8c841e77|17|9 0,0,0,1,0,0,0,0,0,0,0,0,0,0,0,1,
scooby_state_560e8c841e70|35|1 0,0,0,0,0,0,0,0,0,0,1,0,0,0,0,1,
scooby_state_560e8c841ed6|60|40 1,0,0,0,0,0,0,0,0,0,0,0,0,0,0,1,
scooby_state_560e8c841ebf|41|2 1,0,0,0,0,0,0,0,0,0,0,0,0,0,0,1,
scooby_state_560e8c841f15|8|0 0,0,0,0,1,0,0,0,0,0,0,0,0,0,0,1,
scooby_state_560e8c841f80|10|7 1,0,0,0,0,0,0,0,0,0,0,0,0,0,0,1,
scooby_state_560e8c841e77|39|10 0,0,0,0,0,0,0,0,0,0,0,0,0,0,1,1,
scooby_state_560e8c841ebf|52|13 1,0,0,0,0,0,0,0,0,0,0,0,0,0,0,1,
scooby_state_560e8c841ed6|16|7 1,0,0,0,0,0,0,0,0,0,0,0,0,0,0,1,
scooby_state_14ce07d793c3|15|1 1,0,0,0,0,0,0,0,0,0,0,0,0,0,0,1,
scooby_state_560e8c841eca|8|-14 0,0,0,0,0,0,0,0,0,1,0,0,0,0,0,1,
scooby_state_560e8c841ec6|14|6 1,0,0,0,0,0,0,0,0,0,0,0,0,0,0,1,
scooby_state_560e8c841ec6|34|9 1,0,0,0,0,0,0,0,0,0,0,0,0,0,0,1,
scooby_state_560e8c841ec6|54|11 1,0,0,0,0,0,0,0,0,0,0,0,0,0,0,1,
scooby_state_560e8c841ebf|62|2 1,0,0,0,0,0,0,0,0,0,0,0,0,0,0,1,
scooby_state_560e8c841ed6|50|44 1,0,0,0,0,0,0,0,0,0,0,0,0,0,0,1,
scooby_state_560e8c841ec6|10|1 1,0,0,0,0,0,0,0,0,0,0,0,0,0,0,1,
scooby_state_560e8c841ebf|21|14 1,0,0,0,0,0,0,0,0,0,0,0,0,0,0,1,

scooby_action_0_deg_dist 0,1124405,0,0,0,0,0,0,0,0,0,0,0,0,0,0,
scooby_action_-6_deg_dist 0,17327,20,0,2,0,0,0,0,0,0,0,0,0,0,0,
scooby_action_4_deg_dist 0,26859,515,0,562,0,334,0,0,0,0,0,0,0,0,0,
scooby_action_1_deg_dist 0,2283088,337203,0,263660,0,405489,0,0,0,0,0,0,0,0,0,
scooby_action_30_deg_dist 0,13439,28,0,1,0,0,0,0,0,0,0,0,0,0,0,
scooby_action_3_deg_dist 0,23917,550,0,379,0,52,0,0,0,0,0,0,0,0,0,
scooby_action_32_deg_dist 0,12849,17,0,0,0,0,0,0,0,0,0,0,0,0,0,
scooby_action_5_deg_dist 0,20712,143,0,26,0,1,0,0,0,0,0,0,0,0,0,
scooby_action_10_deg_dist 0,18652,92,0,10,0,0,0,0,0,0,0,0,0,0,0,
scooby_action_11_deg_dist 0,17924,69,0,6,0,0,0,0,0,0,0,0,0,0,0,
scooby_action_12_deg_dist 0,17843,73,0,7,0,0,0,0,0,0,0,0,0,0,0,
scooby_action_22_deg_dist 0,14582,32,0,0,0,0,0,0,0,0,0,0,0,0,0,
scooby_action_23_deg_dist 0,14384,31,0,0,0,0,0,0,0,0,0,0,0,0,0,
scooby_action_-1_deg_dist 0,17293,31,0,3,0,0,0,0,0,0,0,0,0,0,0,
scooby_action_-3_deg_dist 0,17293,20,0,1,0,0,0,0,0,0,0,0,0,0,0,

scooby_track_called 4649924
scooby_track_same_address 7187
scooby_track_evict 4642481

scooby_reward_demand_called 4649924
scooby_reward_demand_pt_not_found 4120830
scooby_reward_demand_pt_found 529094
scooby_reward_demand_pt_found_total 529094
scooby_reward_demand_has_reward 28
scooby_reward_train_called 4007908
scooby_reward_assign_reward_called 4642508
scooby_reward_no_pref 1124294
scooby_reward_incorrect 2883614
scooby_reward_correct_untimely 398437
scooby_reward_correct_timely 130629
scooby_reward_out_of_bounds 105534
scooby_reward_tracker_hit 0

scooby_reward_none_low_bw 1124294
scooby_reward_none_high_bw 0
scooby_reward_incorrect_low_bw 2883614
scooby_reward_incorrect_high_bw 0
scooby_reward_correct_untimely_low_bw 398437
scooby_reward_correct_untimely_high_bw 0
scooby_reward_correct_timely_low_bw 130629
scooby_reward_correct_timely_high_bw 0
scooby_reward_out_of_bounds_low_bw 105534
scooby_reward_out_of_bounds_high_bw 0
scooby_reward_tracker_hit_low_bw 0
scooby_reward_tracker_hit_high_bw 0

scooby_reward_1 0,2716697,393694,123580,51148,0,
scooby_reward_3 0,20418,1076,1093,1826,0,
scooby_reward_4 0,21686,2161,1504,2658,0,
scooby_reward_5 0,16718,519,764,2622,0,
scooby_reward_10 0,12906,281,795,4638,0,
scooby_reward_11 0,11968,235,717,4945,0,
scooby_reward_12 0,11762,230,715,5150,0,
scooby_reward_22 0,6783,82,423,7301,0,
scooby_reward_23 0,6393,73,404,7511,0,
scooby_reward_30 0,4440,34,362,8620,0,
scooby_reward_32 0,3929,24,271,8636,0,
scooby_reward_-1 0,16839,10,0,35,0,
scooby_reward_-3 0,16659,8,0,126,0,
scooby_reward_-6 0,16416,10,1,318,0,
scooby_reward_0 1124294,0,0,0,0,0,

scooby_train_called 4642480
scooby_train_compute_reward 4007908

scooby_register_fill_called 4172811
scooby_register_fill_set 2838113
scooby_register_fill_set_total 2838113

scooby_register_prefetch_hit_called 1407374
scooby_register_prefetch_hit_set 456655
scooby_register_prefetch_hit_set_total 456655

scooby_pref_issue_scooby 6298283

learning_engine_featurewise.action.called 4649924
learning_engine_featurewise.action.explore 8513
learning_engine_featurewise.action.exploit 4641411
learning_engine_featurewise.action.fallback 2703478
learning_engine_featurewise.action.dyn_fallback_saved_bw 0
learning_engine_featurewise.action.dyn_fallback_saved_bw_acc 1654752
learning_engine_featurewise.action.index_1_explored 574
learning_engine_featurewise.action.index_1_exploited 3288866
learning_engine_featurewise.action.index_3_explored 582
learning_engine_featurewise.action.index_3_exploited 24316
learning_engine_featurewise.action.index_4_explored 575
learning_engine_featurewise.action.index_4_exploited 27695
learning_engine_featurewise.action.index_5_explored 543
learning_engine_featurewise.action.index_5_exploited 20339
learning_engine_featurewise.action.index_10_explored 605
learning_engine_featurewise.action.index_10_exploited 18149
learning_engine_featurewise.action.index_11_explored 572
learning_engine_featurewise.action.index_11_exploited 17427
learning_engine_featurewise.action.index_12_explored 597
learning_engine_featurewise.action.index_12_exploited 17326
learning_engine_featurewise.action.index_22_explored 566
learning_engine_featurewise.action.index_22_exploited 14048
learning_engine_featurewise.action.index_23_explored 571
learning_engine_featurewise.action.index_23_exploited 13844
learning_engine_featurewise.action.index_30_explored 571
learning_engine_featurewise.action.index_30_exploited 12897
learning_engine_featurewise.action.index_32_explored 521
learning_engine_featurewise.action.index_32_exploited 12345
learning_engine_featurewise.action.index_-1_explored 568
learning_engine_featurewise.action.index_-1_exploited 16759
learning_engine_featurewise.action.index_-3_explored 548
learning_engine_featurewise.action.index_-3_exploited 16766
learning_engine_featurewise.action.index_-6_explored 555
learning_engine_featurewise.action.index_-6_exploited 16794
learning_engine_featurewise.action.index_0_explored 565
learning_engine_featurewise.action.index_0_exploited 1123840
learning_engine_featurewise.learn.called 4642480
learning_engine_featurewise.learn.su_skip_PC 0
learning_engine_featurewise.learn.su_skip_PC_Delta 0

learning_engine_featurewise.q_value_histogram.bucket_0 1522669
learning_engine_featurewise.q_value_histogram.bucket_1 35725
learning_engine_featurewise.q_value_histogram.bucket_2 2749206
learning_engine_featurewise.q_value_histogram.bucket_3 23091
learning_engine_featurewise.q_value_histogram.bucket_4 28616
learning_engine_featurewise.q_value_histogram.bucket_5 198175
learning_engine_featurewise.q_value_histogram.bucket_6 83929
learning_engine_featurewise.q_value_histogram.bucket_7 0

learning_engine_featurewise.consensus.total 4641411
learning_engine_featurewise.consensus.feature_align_PC 3294445
learning_engine_featurewise.consensus.feature_align_PC_ratio 0.71
learning_engine_featurewise.consensus.feature_align_PC_Delta 3330619
learning_engine_featurewise.consensus.feature_align_PC_Delta_ratio 0.72
learning_engine_featurewise.consensus.feature_align_all 3291355
learning_engine_featurewise.consensus.feature_align_all_ratio 0.71

learning_engine_featurewise.feature_PC_min_weight 1000000.00000000
learning_engine_featurewise.feature_PC_max_weight 0.00000000
learning_engine_featurewise.feature_PC_Delta_min_weight 1000000.00000000
learning_engine_featurewise.feature_PC_Delta_max_weight 0.00000000
unique_pcs 301
unique_pages 9090
unique_trigger_pcs 69
total_bitmaps_seen 0
unique_bitmaps_seen 0

scooby_bw_epochs 1529262
scooby_bw_level_0 765882
scooby_bw_level_1 642337
scooby_bw_level_2 92806
scooby_bw_level_3 28237

scooby_ipc_epochs 0
scooby_ipc_level_0 0
scooby_ipc_level_1 0
scooby_ipc_level_2 0
scooby_ipc_level_3 0

scooby_cache_acc_epochs 317131
scooby_cache_acc_level_0 177382
scooby_cache_acc_level_1 100256
scooby_cache_acc_level_2 28350
scooby_cache_acc_level_3 7093
scooby_cache_acc_level_4 1135
scooby_cache_acc_level_5 1765
scooby_cache_acc_level_6 401
scooby_cache_acc_level_7 82
scooby_cache_acc_level_8 98
scooby_cache_acc_level_9 569

Channel_0_RQ_row_buffer_hit 942106
Channel_0_RQ_row_buffer_miss 3320549
Channel_0_WQ_row_buffer_hit 393607
Channel_0_WQ_row_buffer_miss 773345
Channel_0_WQ_full 0
Channel_0_dbus_congested 2520388

avg_congested_cycle 9

DRAM_bw_pochs 1529262
DRAM_bw_level_0 765882
DRAM_bw_level_1 642337
DRAM_bw_level_2 92806
DRAM_bw_level_3 28237
