*************************************************
   ChampSim Multicore Out-of-Order Simulator
   Last compiled: Apr  3 2025 20:54:34
*************************************************
parsing config file: /home/zir/Pythia/config/mlop.ini

trace_0 /home/zir/ChampSim/ML-DPC/ChampSimTraces/gap/cc-6.trace.gz
adding L2C_PREFETCHER: MLOP
Initialize SHIP state
warmup_instructions 10000000
simulation_instructions 50000000
champsim_seed 54
measure_ipc 0
measure_ipc_epoch 1000
measure_dram_bw 1
measure_dram_bw_epoch 256
measure_cache_acc 1
measure_cache_acc_epoch 1024
l1d_perfect 0
l2c_perfect 0
llc_perfect 0
l1d_semi_perfect 0
l2c_semi_perfect 0
llc_semi_perfect 0
semi_perfect_cache_page_buffer_size 64

num_cpus 1
cpu_freq 4000
dram_io_freq 2400
page_size 4096
block_size 64
max_read_per_cycle 8
max_fill_per_cycle 1
dram_channels 1
log2_dram_channels 0
dram_ranks 1
dram_banks 8
dram_rows 65536
dram_columns 128
dram_row_size 8
dram_size 4096
dram_pages 1048576

fetch_width 6
decode_width 6
exec_width 4
lq_width 2
sq_width 2
retire_width 4
scheduler_size 128
branch_mispredict_penalty 20
rob_size 256
lq_size 72
sq_size 56
num_instr_destinations_sparc 4
num_instr_destinations 2
num_instr_sources 4

itlb_set 16
itlb_way 8
itlb_rq_size 16
itlb_wq_size 16
itlb_pq_size 0
itlb_mshr_size 8
itlb_latency 1

dtlb_set 16
dtlb_way 4
dtlb_rq_size 16
dtlb_wq_size 16
dtlb_pq_size 0
dtlb_mshr_size 8
dtlb_latency 1

stlb_set 128
stlb_way 12
stlb_rq_size 32
stlb_wq_size 32
stlb_pq_size 0
stlb_mshr_size 16
stlb_latency 8

l1i_size 32
l1i_set 64
l1i_way 8
l1i_rq_size 64
l1i_wq_size 64
l1i_pq_size 8
l1i_mshr_size 8
l1i_latency 1

l1d_size 32
l1d_set 64
l1d_way 8
l1d_rq_size 64
l1d_wq_size 64
l1d_pq_size 8
l1d_mshr_size 16
l1d_latency 4

l2c_size 256
l2c_set 512
l2c_way 8
l2c_rq_size 32
l2c_wq_size 32
l2c_pq_size 32
l2c_mshr_size 32
l2c_latency 10

llc_size 2048
llc_set 2048
llc_way 16
llc_rq_size 32
llc_wq_size 32
llc_pq_size 32
llc_mshr_size 64
llc_latency 20

dram_channel_width 8
dram_wq_size 64
dram_rq_size 64
tRP 15
tRCD 15
tCAS 12.5
dram_dbus_turn_around_time 30
dram_write_high_wm 56
dram_write_low_wm 48
min_dram_writes_per_switch 16
dram_mtps 2400
dram_dbus_return_time 13

mlop_pref_degree 16
mlop_num_updates 500
mlop_l1d_thresh 2
mlop_l2c_thresh 0.75
mlop_llc_thresh 0.3
mlop_debug_level 0
mlop_blocks_in_cache 4096
mlop_blocks_in_zone 64
mlop_amt_size 2048
mlop_PF_DEGREE 16
mlop_NUM_UPDATES 500
mlop_L1D_THRESH 1000
mlop_L2C_THRESH 375
mlop_LLC_THRESH 150
mlop_ORIGIN 63
mlop_MAX_OFFSET 63
mlop_MIN_OFFSET -63
mlop_ORIGIN 63
mlop_NUM_OFFSETS 127


Heartbeat CPU  0 instructions:    1000001 cycles:     262107 heartbeat IPC: 3.81524 cumulative IPC: 3.81524 (Simulation time: 0 hr 0 min 1 sec) 
Heartbeat CPU  0 instructions:    2000000 cycles:     742388 heartbeat IPC: 2.08211 cumulative IPC: 2.69401 (Simulation time: 0 hr 0 min 2 sec) 
Heartbeat CPU  0 instructions:    3000002 cycles:    2169395 heartbeat IPC: 0.70077 cumulative IPC: 1.38287 (Simulation time: 0 hr 0 min 3 sec) 
Heartbeat CPU  0 instructions:    4000000 cycles:    3593428 heartbeat IPC: 0.70223 cumulative IPC: 1.11314 (Simulation time: 0 hr 0 min 4 sec) 
Heartbeat CPU  0 instructions:    5000000 cycles:    5075110 heartbeat IPC: 0.67491 cumulative IPC: 0.98520 (Simulation time: 0 hr 0 min 6 sec) 
Heartbeat CPU  0 instructions:    6000002 cycles:    6339793 heartbeat IPC: 0.79071 cumulative IPC: 0.94640 (Simulation time: 0 hr 0 min 7 sec) 
Heartbeat CPU  0 instructions:    7000003 cycles:    7592213 heartbeat IPC: 0.79845 cumulative IPC: 0.92200 (Simulation time: 0 hr 0 min 8 sec) 
Heartbeat CPU  0 instructions:    8000000 cycles:    8946256 heartbeat IPC: 0.73853 cumulative IPC: 0.89423 (Simulation time: 0 hr 0 min 9 sec) 
Heartbeat CPU  0 instructions:    9000003 cycles:   10180081 heartbeat IPC: 0.81049 cumulative IPC: 0.88408 (Simulation time: 0 hr 0 min 10 sec) 
Heartbeat CPU  0 instructions:   10000002 cycles:   11516000 heartbeat IPC: 0.74855 cumulative IPC: 0.86836 (Simulation time: 0 hr 0 min 11 sec) 

Warmup complete CPU  0 instructions:   10000002 cycles:   11516000 (Simulation time: 0 hr 0 min 11 sec) 

Heartbeat CPU  0 instructions:   11000000 cycles:   17855883 heartbeat IPC: 0.15773 cumulative IPC: 0.15773 (Simulation time: 0 hr 0 min 14 sec) 
Heartbeat CPU  0 instructions:   12000000 cycles:   24539323 heartbeat IPC: 0.14962 cumulative IPC: 0.15357 (Simulation time: 0 hr 0 min 16 sec) 
Heartbeat CPU  0 instructions:   13000000 cycles:   30898720 heartbeat IPC: 0.15725 cumulative IPC: 0.15478 (Simulation time: 0 hr 0 min 19 sec) 
Heartbeat CPU  0 instructions:   14000002 cycles:   36867826 heartbeat IPC: 0.16753 cumulative IPC: 0.15778 (Simulation time: 0 hr 0 min 21 sec) 
Heartbeat CPU  0 instructions:   15000000 cycles:   44371537 heartbeat IPC: 0.13327 cumulative IPC: 0.15218 (Simulation time: 0 hr 0 min 23 sec) 
Heartbeat CPU  0 instructions:   16000000 cycles:   51069082 heartbeat IPC: 0.14931 cumulative IPC: 0.15169 (Simulation time: 0 hr 0 min 26 sec) 
Heartbeat CPU  0 instructions:   17000002 cycles:   57049340 heartbeat IPC: 0.16722 cumulative IPC: 0.15373 (Simulation time: 0 hr 0 min 28 sec) 
Heartbeat CPU  0 instructions:   18000002 cycles:   62812874 heartbeat IPC: 0.17350 cumulative IPC: 0.15595 (Simulation time: 0 hr 0 min 30 sec) 
Heartbeat CPU  0 instructions:   19000002 cycles:   68351807 heartbeat IPC: 0.18054 cumulative IPC: 0.15835 (Simulation time: 0 hr 0 min 33 sec) 
Heartbeat CPU  0 instructions:   20000000 cycles:   74598752 heartbeat IPC: 0.16008 cumulative IPC: 0.15852 (Simulation time: 0 hr 0 min 35 sec) 
Heartbeat CPU  0 instructions:   21000001 cycles:   81401303 heartbeat IPC: 0.14700 cumulative IPC: 0.15740 (Simulation time: 0 hr 0 min 37 sec) 
Heartbeat CPU  0 instructions:   22000000 cycles:   87989008 heartbeat IPC: 0.15180 cumulative IPC: 0.15692 (Simulation time: 0 hr 0 min 40 sec) 
Heartbeat CPU  0 instructions:   23000002 cycles:   93952018 heartbeat IPC: 0.16770 cumulative IPC: 0.15770 (Simulation time: 0 hr 0 min 42 sec) 
Heartbeat CPU  0 instructions:   24000000 cycles:   99511659 heartbeat IPC: 0.17987 cumulative IPC: 0.15910 (Simulation time: 0 hr 0 min 44 sec) 
Heartbeat CPU  0 instructions:   25000000 cycles:  105632730 heartbeat IPC: 0.16337 cumulative IPC: 0.15938 (Simulation time: 0 hr 0 min 47 sec) 
Heartbeat CPU  0 instructions:   26000000 cycles:  111795152 heartbeat IPC: 0.16227 cumulative IPC: 0.15955 (Simulation time: 0 hr 0 min 49 sec) 
Heartbeat CPU  0 instructions:   27000000 cycles:  117807871 heartbeat IPC: 0.16631 cumulative IPC: 0.15994 (Simulation time: 0 hr 0 min 51 sec) 
Heartbeat CPU  0 instructions:   28000000 cycles:  123705638 heartbeat IPC: 0.16956 cumulative IPC: 0.16044 (Simulation time: 0 hr 0 min 53 sec) 
Heartbeat CPU  0 instructions:   29000000 cycles:  130453194 heartbeat IPC: 0.14820 cumulative IPC: 0.15975 (Simulation time: 0 hr 0 min 56 sec) 
Heartbeat CPU  0 instructions:   30000000 cycles:  136726027 heartbeat IPC: 0.15942 cumulative IPC: 0.15973 (Simulation time: 0 hr 0 min 58 sec) 
Heartbeat CPU  0 instructions:   31000000 cycles:  142494280 heartbeat IPC: 0.17336 cumulative IPC: 0.16033 (Simulation time: 0 hr 1 min 1 sec) 
Heartbeat CPU  0 instructions:   32000000 cycles:  148323864 heartbeat IPC: 0.17154 cumulative IPC: 0.16081 (Simulation time: 0 hr 1 min 3 sec) 
Heartbeat CPU  0 instructions:   33000000 cycles:  155007749 heartbeat IPC: 0.14961 cumulative IPC: 0.16029 (Simulation time: 0 hr 1 min 6 sec) 
Heartbeat CPU  0 instructions:   34000002 cycles:  160842777 heartbeat IPC: 0.17138 cumulative IPC: 0.16072 (Simulation time: 0 hr 1 min 8 sec) 
Heartbeat CPU  0 instructions:   35000001 cycles:  166397124 heartbeat IPC: 0.18004 cumulative IPC: 0.16141 (Simulation time: 0 hr 1 min 10 sec) 
Heartbeat CPU  0 instructions:   36000000 cycles:  171844611 heartbeat IPC: 0.18357 cumulative IPC: 0.16217 (Simulation time: 0 hr 1 min 13 sec) 
Heartbeat CPU  0 instructions:   37000000 cycles:  178402276 heartbeat IPC: 0.15249 cumulative IPC: 0.16179 (Simulation time: 0 hr 1 min 15 sec) 
Heartbeat CPU  0 instructions:   38000001 cycles:  184317610 heartbeat IPC: 0.16905 cumulative IPC: 0.16204 (Simulation time: 0 hr 1 min 17 sec) 
Heartbeat CPU  0 instructions:   39000000 cycles:  190069215 heartbeat IPC: 0.17386 cumulative IPC: 0.16242 (Simulation time: 0 hr 1 min 20 sec) 
Heartbeat CPU  0 instructions:   40000000 cycles:  196500889 heartbeat IPC: 0.15548 cumulative IPC: 0.16218 (Simulation time: 0 hr 1 min 22 sec) 
Heartbeat CPU  0 instructions:   41000002 cycles:  202884075 heartbeat IPC: 0.15666 cumulative IPC: 0.16199 (Simulation time: 0 hr 1 min 24 sec) 
Heartbeat CPU  0 instructions:   42000000 cycles:  209174169 heartbeat IPC: 0.15898 cumulative IPC: 0.16190 (Simulation time: 0 hr 1 min 27 sec) 
Heartbeat CPU  0 instructions:   43000002 cycles:  215307966 heartbeat IPC: 0.16303 cumulative IPC: 0.16193 (Simulation time: 0 hr 1 min 29 sec) 
Heartbeat CPU  0 instructions:   44000000 cycles:  221617981 heartbeat IPC: 0.15848 cumulative IPC: 0.16183 (Simulation time: 0 hr 1 min 31 sec) 
Heartbeat CPU  0 instructions:   45000000 cycles:  227271609 heartbeat IPC: 0.17688 cumulative IPC: 0.16222 (Simulation time: 0 hr 1 min 34 sec) 
Heartbeat CPU  0 instructions:   46000000 cycles:  232854582 heartbeat IPC: 0.17912 cumulative IPC: 0.16265 (Simulation time: 0 hr 1 min 36 sec) 
Heartbeat CPU  0 instructions:   47000000 cycles:  238512758 heartbeat IPC: 0.17674 cumulative IPC: 0.16300 (Simulation time: 0 hr 1 min 38 sec) 
Heartbeat CPU  0 instructions:   48000000 cycles:  244686393 heartbeat IPC: 0.16198 cumulative IPC: 0.16297 (Simulation time: 0 hr 1 min 41 sec) 
Heartbeat CPU  0 instructions:   49000000 cycles:  250471148 heartbeat IPC: 0.17287 cumulative IPC: 0.16321 (Simulation time: 0 hr 1 min 43 sec) 
Heartbeat CPU  0 instructions:   50000000 cycles:  256538709 heartbeat IPC: 0.16481 cumulative IPC: 0.16325 (Simulation time: 0 hr 1 min 45 sec) 
Heartbeat CPU  0 instructions:   51000002 cycles:  263011795 heartbeat IPC: 0.15449 cumulative IPC: 0.16302 (Simulation time: 0 hr 1 min 48 sec) 
Heartbeat CPU  0 instructions:   52000000 cycles:  268479586 heartbeat IPC: 0.18289 cumulative IPC: 0.16345 (Simulation time: 0 hr 1 min 50 sec) 
Heartbeat CPU  0 instructions:   53000000 cycles:  273801595 heartbeat IPC: 0.18790 cumulative IPC: 0.16394 (Simulation time: 0 hr 1 min 52 sec) 
Heartbeat CPU  0 instructions:   54000002 cycles:  279849942 heartbeat IPC: 0.16533 cumulative IPC: 0.16397 (Simulation time: 0 hr 1 min 55 sec) 
Heartbeat CPU  0 instructions:   55000002 cycles:  285385877 heartbeat IPC: 0.18064 cumulative IPC: 0.16431 (Simulation time: 0 hr 1 min 57 sec) 
Heartbeat CPU  0 instructions:   56000000 cycles:  291170126 heartbeat IPC: 0.17288 cumulative IPC: 0.16449 (Simulation time: 0 hr 1 min 59 sec) 
Heartbeat CPU  0 instructions:   57000001 cycles:  297284044 heartbeat IPC: 0.16356 cumulative IPC: 0.16447 (Simulation time: 0 hr 2 min 2 sec) 
Heartbeat CPU  0 instructions:   58000002 cycles:  302763939 heartbeat IPC: 0.18249 cumulative IPC: 0.16481 (Simulation time: 0 hr 2 min 4 sec) 
Heartbeat CPU  0 instructions:   59000002 cycles:  309198286 heartbeat IPC: 0.15542 cumulative IPC: 0.16461 (Simulation time: 0 hr 2 min 6 sec) 
Heartbeat CPU  0 instructions:   60000000 cycles:  314426148 heartbeat IPC: 0.19128 cumulative IPC: 0.16507 (Simulation time: 0 hr 2 min 8 sec) 
Finished CPU 0 instructions: 50000000 cycles: 302910186 cumulative IPC: 0.16507 (Simulation time: 0 hr 2 min 8 sec) 

ChampSim completed all CPUs

[ROI Statistics]
Core_0_instructions 50000000
Core_0_cycles 302910186
Core_0_IPC 0.16507

Core_0_branch_prediction_accuracy 86.47559
Core_0_branch_MPKI 27.55800
Core_0_average_ROB_occupancy_at_mispredict 31.72119

Core_0_L1D_total_access 11110335
Core_0_L1D_total_hit 7086630
Core_0_L1D_total_miss 4023705
Core_0_L1D_loads 10862594
Core_0_L1D_load_hit 6838889
Core_0_L1D_load_miss 4023705
Core_0_L1D_RFOs 247741
Core_0_L1D_RFO_hit 247741
Core_0_L1D_RFO_miss 0
Core_0_L1D_prefetches 0
Core_0_L1D_prefetch_hit 0
Core_0_L1D_prefetch_miss 0
Core_0_L1D_writebacks 0
Core_0_L1D_writeback_hit 0
Core_0_L1D_writeback_miss 0
Core_0_L1D_prefetch_requested 0
Core_0_L1D_prefetch_dropped 0
Core_0_L1D_prefetch_issued 0
Core_0_L1D_prefetch_filled 0
Core_0_L1D_prefetch_useful 0
Core_0_L1D_prefetch_useless 0
Core_0_L1D_prefetch_late 0
Core_0_L1D_average_miss_latency 78.03026

Core_0_L1D_rq_access 13966324
Core_0_L1D_rq_forward 0
Core_0_L1D_rq_merged 2968089
Core_0_L1D_rq_to_cache 10998235
Core_0_L1D_rq_full 0

Core_0_L1D_wq_access 247741
Core_0_L1D_wq_forward 0
Core_0_L1D_wq_merged 0
Core_0_L1D_wq_to_cache 247741
Core_0_L1D_wq_full 0

Core_0_L1D_pq_access 0
Core_0_L1D_pq_forward 0
Core_0_L1D_pq_merged 0
Core_0_L1D_pq_to_cache 0
Core_0_L1D_pq_full 0

Core_0_L1D_acc_epochs 306684
Core_0_L1D_acc_level_0 306684
Core_0_L1D_acc_level_1 0
Core_0_L1D_acc_level_2 0
Core_0_L1D_acc_level_3 0
Core_0_L1D_acc_level_4 0
Core_0_L1D_acc_level_5 0
Core_0_L1D_acc_level_6 0
Core_0_L1D_acc_level_7 0
Core_0_L1D_acc_level_8 0
Core_0_L1D_acc_level_9 0

Core_0_L1I_total_access 10435592
Core_0_L1I_total_hit 10435592
Core_0_L1I_total_miss 0
Core_0_L1I_loads 10435592
Core_0_L1I_load_hit 10435592
Core_0_L1I_load_miss 0
Core_0_L1I_RFOs 0
Core_0_L1I_RFO_hit 0
Core_0_L1I_RFO_miss 0
Core_0_L1I_prefetches 0
Core_0_L1I_prefetch_hit 0
Core_0_L1I_prefetch_miss 0
Core_0_L1I_writebacks 0
Core_0_L1I_writeback_hit 0
Core_0_L1I_writeback_miss 0
Core_0_L1I_prefetch_requested 0
Core_0_L1I_prefetch_dropped 0
Core_0_L1I_prefetch_issued 0
Core_0_L1I_prefetch_filled 0
Core_0_L1I_prefetch_useful 0
Core_0_L1I_prefetch_useless 0
Core_0_L1I_prefetch_late 0
Core_0_L1I_average_miss_latency -nan

Core_0_L1I_rq_access 50000133
Core_0_L1I_rq_forward 0
Core_0_L1I_rq_merged 39564541
Core_0_L1I_rq_to_cache 10435592
Core_0_L1I_rq_full 0

Core_0_L1I_wq_access 0
Core_0_L1I_wq_forward 0
Core_0_L1I_wq_merged 0
Core_0_L1I_wq_to_cache 0
Core_0_L1I_wq_full 0

Core_0_L1I_pq_access 0
Core_0_L1I_pq_forward 0
Core_0_L1I_pq_merged 0
Core_0_L1I_pq_to_cache 0
Core_0_L1I_pq_full 0

Core_0_L1I_acc_epochs 306684
Core_0_L1I_acc_level_0 306684
Core_0_L1I_acc_level_1 0
Core_0_L1I_acc_level_2 0
Core_0_L1I_acc_level_3 0
Core_0_L1I_acc_level_4 0
Core_0_L1I_acc_level_5 0
Core_0_L1I_acc_level_6 0
Core_0_L1I_acc_level_7 0
Core_0_L1I_acc_level_8 0
Core_0_L1I_acc_level_9 0

Core_0_L2C_total_access 4888764
Core_0_L2C_total_hit 1185743
Core_0_L2C_total_miss 3703021
Core_0_L2C_loads 4023704
Core_0_L2C_load_hit 973584
Core_0_L2C_load_miss 3050120
Core_0_L2C_RFOs 0
Core_0_L2C_RFO_hit 0
Core_0_L2C_RFO_miss 0
Core_0_L2C_prefetches 652728
Core_0_L2C_prefetch_hit 9
Core_0_L2C_prefetch_miss 652719
Core_0_L2C_writebacks 212332
Core_0_L2C_writeback_hit 212150
Core_0_L2C_writeback_miss 182
Core_0_L2C_prefetch_requested 1338696
Core_0_L2C_prefetch_dropped 0
Core_0_L2C_prefetch_issued 1338696
Core_0_L2C_prefetch_filled 724016
Core_0_L2C_prefetch_useful 307408
Core_0_L2C_prefetch_useless 416129
Core_0_L2C_prefetch_late 1178
Core_0_L2C_average_miss_latency 76.79443

Core_0_L2C_rq_access 4023705
Core_0_L2C_rq_forward 0
Core_0_L2C_rq_merged 0
Core_0_L2C_rq_to_cache 4023704
Core_0_L2C_rq_full 0

Core_0_L2C_wq_access 212332
Core_0_L2C_wq_forward 1
Core_0_L2C_wq_merged 0
Core_0_L2C_wq_to_cache 212332
Core_0_L2C_wq_full 0

Core_0_L2C_pq_access 1338696
Core_0_L2C_pq_forward 0
Core_0_L2C_pq_merged 9892
Core_0_L2C_pq_to_cache 1328804
Core_0_L2C_pq_full 0

Core_0_L2C_acc_epochs 306684
Core_0_L2C_acc_level_0 13791
Core_0_L2C_acc_level_1 30399
Core_0_L2C_acc_level_2 47226
Core_0_L2C_acc_level_3 62631
Core_0_L2C_acc_level_4 44490
Core_0_L2C_acc_level_5 33280
Core_0_L2C_acc_level_6 33664
Core_0_L2C_acc_level_7 17315
Core_0_L2C_acc_level_8 11068
Core_0_L2C_acc_level_9 12820

Core_0_LLC_total_access 4384937
Core_0_LLC_total_hit 3202022
Core_0_LLC_total_miss 1182915
Core_0_LLC_loads 3049007
Core_0_LLC_load_hit 2127956
Core_0_LLC_load_miss 921051
Core_0_LLC_RFOs 0
Core_0_LLC_RFO_hit 0
Core_0_LLC_RFO_miss 0
Core_0_LLC_prefetches 1123831
Core_0_LLC_prefetch_hit 862629
Core_0_LLC_prefetch_miss 261202
Core_0_LLC_writebacks 212099
Core_0_LLC_writeback_hit 211437
Core_0_LLC_writeback_miss 662
Core_0_LLC_prefetch_requested 0
Core_0_LLC_prefetch_dropped 0
Core_0_LLC_prefetch_issued 0
Core_0_LLC_prefetch_filled 357388
Core_0_LLC_prefetch_useful 27334
Core_0_LLC_prefetch_useless 324655
Core_0_LLC_prefetch_late 35
Core_0_LLC_average_miss_latency 183.67750

Core_0_LLC_rq_access 3049007
Core_0_LLC_rq_forward 0
Core_0_LLC_rq_merged 0
Core_0_LLC_rq_to_cache 3049007
Core_0_LLC_rq_full 0

Core_0_LLC_wq_access 212099
Core_0_LLC_wq_forward 0
Core_0_LLC_wq_merged 0
Core_0_LLC_wq_to_cache 212099
Core_0_LLC_wq_full 0

Core_0_LLC_pq_access 1315665
Core_0_LLC_pq_forward 0
Core_0_LLC_pq_merged 852
Core_0_LLC_pq_to_cache 1314813
Core_0_LLC_pq_full 0

Core_0_LLC_acc_epochs 307057
Core_0_LLC_acc_level_0 288501
Core_0_LLC_acc_level_1 6558
Core_0_LLC_acc_level_2 5176
Core_0_LLC_acc_level_3 498
Core_0_LLC_acc_level_4 213
Core_0_LLC_acc_level_5 3627
Core_0_LLC_acc_level_6 298
Core_0_LLC_acc_level_7 260
Core_0_LLC_acc_level_8 306
Core_0_LLC_acc_level_9 1620

Core_0_major_page_fault 0
Core_0_minor_page_fault 5512

[MLOP] History of tracked zone:
IIIIIIIIIIIIIIIIIIIIIIIIIIIIIIIIIIIIIIIIIIIIIIIIIIIIIIIIIIIIIIII
IIIIIIAIIIIIIIIIIIIIIIIIIIIIIIIIIIIIIIIIIIIIIIIIIIIIIIIIIIIIIIII
IIIIIIAIIIIIIIIIIIIIIIIIIIIIAIIIIIIIIIIIIIIIIIIIIIIIIIIIIIIIIIII
IIIIIIAIIIIIIIIIIIIIIIIIIIIIAIIIIIIIIIIIIIIIIIAIIIIIIIIIIIIIIIII
IIIIIIAIIIIIIIIIIIIIIIIIIIIIAIIIIIIIIIIIIIIIIIAIIAIIIIIIIIIIIIII
IIIIIIAIIIIIIIIIIIIIIIIIIIIIAIIIIIIIIIIIIIIAIIAIIAIIIIIIIIIIIIII
IIIIIIAIIIIIIIIIIIIIIIIIIIIIAIIIIIIIIIIIIIIAIIAIIAIIAIIIIIIIIIII
IIIAIIAIIIIIIIIIIIIIIIIIIIIIAIIIIIIIIIIIIIIAIIAIIAIIAIIIIIIIIIII
IIIAIIAIIIIAIIIIIIIIIIIIIIIIAIIIIIIIIIIIIIIAIIAIIAIIAIIIIIIIIIII
IIIAIAAIIIIAIIIIIIIIIIIIIIIIAIIIIIIIIIIIIIIAIIAIIAIIAIIIIIIIIIII
IIIAIAAIIIIAIIIIIIIAIIIIIIIIAIIIIIIIIIIIIIIAIIAIIAIIAIIIIIIIIIII
IIIAIAAIIIIAIIIIIIIAIIIIIIIIAAIIIIIIIIIIIIIAIIAIIAIIAIIIIIIIIIII
IIIAIAAIIIIAIIIIIIIAIIIIIIIIAAIIIIIAIIIIIIIAIIAIIAIIAIIIIIIIIIII
IIIAIAAIIIIAIIIIIIIAIIIIIIIIAAIIIIIAIIIIIIIAAIAIIAIIAIIIIIIIIIII
IIIAIAAIIIIAIIIIIIIAIIIIIIIIAAIIIIIAIIIIIIIAAIAAIAIIAIIIIIIIIIII
IIIAIAAIIIIAIIIIIIIAIIIIIIIIAAIIIIIAIIIIIIIAAIAAIAIAAIIIIIIIIIII
IIIAIAAIIIIAIIIIIIIAIIIIIIIIAAIIIIIAIIIIIIIAAIAAIAIAAIIIAIIIIIII
IIIAIAAIIIIAIIIIIIIAIIIIIIIIAAIIIIIAIIIIIIIAAIAAIAIAAIIIAIIIIIAI
IIIAIAAIIIIAIIIIIIIAIIIIIIIIAAIIIIIAIIIIIIIAAIAAIAIAAIIIAIIIIIAA
IIIAIAAIIIIAIIIIIIAAIIIIIIIIAAIIIIIAIIIIIIIAAIAAIAIAAIIIAIIIIIAA
IIIAIAAIIIIAIA4IIIAAIIIIIIIIAAIIIIIAIIIIIIIAAIAAIAIAAIIIAIIIIIAA
IIIAIAAIIIIAIA4IIIAA4IIIIIIIAAIIIIIAIIIIIIIAAIAAIAIAAIIIAIIIIIAA
IIIAIAAIIIIAIA4IIIAA4IIIIIIIAAIIIIIAIIIIIIIAAIAAIAIAAIA4AIIIIIAA
IIIAIAAIIIIAIA4IIIAA4IIIIIIIAAIIIIIAIIIIIAIAA4AAIAIAAIA4AIIIIIAA
IIIAIAAII44AIA4IIIAA4IIIIIIIAAIIIIIAIIIIIAIAA4AAIAIAAIA4AIIIIIAA
IIIAIAAIIA4A4A4IIIAA4IIIIIIIAAIIIIIAIIIIIAIAA4AAIAIAAIA4AIIIIIAA
IIIAIAAIIA4A4A4IIIAA4IIIIIIIAAIIIIIAIIAIIA4AA4AAIAIAAIA4AIIIIIAA
IIAA4AAI4A4A4A4IIIAA4IIIIIIIAAIIIIIAIIAIIA4AA4AAIAIAAIA4AIIIIIAA
IIAA4AAI4A4A4A4II4AA4IIIIIIIAAIIIIIAIIAIIA4AA4AAIAIAAIA4AIIIIIAA
IIAA4AAI4A4A4A4IIAAA4II4IIIIAAIIIIIAIIAIIA4AA4AAIAIAAIA4AIIIIIAA
IIAA4AAI4A4A4A4IIAAA4II4IIIIAAIIIIIAIIAIIAAAA4AA4AIAAIA4AIIIIIAA
IIAA4AAI4A4A4A4IIAAA4II4IIIIAAA44I4AIIAI4AAAA4AA4AIAAIA4AIIIIIAA
IIAA4AAI4A4A4A4IIAAA4II4IIIIAAA44I4AIIAI4AAAA4AA4AIAAIA4AI444IAA
IIAA4AAI4A4A4A4IIAAA4II4IIIIAAA44I4AIIAIAAAAA4AA4AIAAIA4AI444IAA
IIAA4AAI4A4A4A4IIAAA4I4444IIAAA44I4AIIAIAAAAA4AA4AIAAIA4AI444IAA
IIAA4AAI4A4A4A4I4AAA4I4444IIAAA44I4AIIAIAAAAA4AA4AIAAIA4AI444IAA
IIAA4AAI4A4A4A4I4AAA4I4444IIAAA44I4AA4A4AAAAA4AA4AIAAIA4AI444IAA
IIAA4AAI4A4A4A4I4AAA4I4444IIAAA44I4AA4A4AAAAA4AA4AIAAIA4A4444IAA
IIAA4AAI4A4A4A4I4AAA4I4444IIAAA44I4AA4A4AAAAAAAA4AIAAIA4A4444IAA
IIAA4AAI4A4A4A444AAA4I4444IIAAA44I4AA4A4AAAAAAAA4AIAAIA4A4444IAA
IIAA4AAI4A4A4A444AAA4I4444IAAAA4444AA4A4AAAAAAAA4AIAAIA4A4444IAA
IIAA4AAI4A4A4A444AAA4I4444IAAAA4444AA4A4AAAAAAAA4AIAA4A4A44444AA
IIAA4AAA4A4A4A444AAA4I4444IAAAA4444AA4A4AAAAAAAA4AIAA4A4A44444AA
IIAA4AAA4A4A4A444AAA4I4444IAAAA4444AA4A4AAAAAAAA4AIAA4A4A4A444AA
IIAA4AAA4A4A4A444AAA4I4444IAAAA4444AA4A4AAAAAAAA4A4AA4A4A4A444AA
IIAAAAAA4A4A4A444AAA4I4444IAAAA4444AA4A4AAAAAAAA4A4AA4A4A4A444AA
IIAAAAAA4A4A4A444AAA4I44444AAAA4444AA4A4AAAAAAAA4A4AA4A4A4A444AA
IIAAAAAA4A4A4A444AAA4I44444AAAA4444AA4A4AAAAAAAA4A4AA4A4A4AA44AA
IIAAAAAA4A4A4A444AAA4I44444AAAA4444AA4A4AAAAAAAA4A4AAAA4A4AA44AA
IIAAAAAA4A4A4A444AAA4444444AAAA4444AA4A4AAAAAAAA4A4AAAA4A4AA44AA
IIAAAAAAAA4A4A444AAA4444444AAAA4444AA4A4AAAAAAAA4A4AAAA4A4AA44AA
IIAAAAAAAA4A4A444AAA4444444AAAA444AAA4A4AAAAAAAA4A4AAAA4A4AA44AA
IIAAAAAAAA4A4A44AAAA4444444AAAA444AAA4A4AAAAAAAA4A4AAAA4A4AA44AA
A4AAAAAAAA4A4A44AAAA4444444AAAA444AAA4A4AAAAAAAA4A4AAAA4A4AA44AA
A4AAAAAAAA4A4A44AAAA4444444AAAAA44AAA4A4AAAAAAAA4A4AAAA4A4AA44AA
A4AAAAAAAAAA4A44AAAA4444444AAAAA44AAA4A4AAAAAAAA4A4AAAA4A4AA44AA
A4AAAAAAAAAA4A44AAAA2444444AAAAA44AAA4A4AAAAAAAA4A4AAAA4A4AA44AA
A4AAAAAAAAAA4A44AAAAI444444AAAAA44AAA4A4AAAAAAAA4A4AAAA4A4AA44AA
A4AAAAAAAAAA4A44AAAA4444444AAAAA44AAA4A4AAAAAAAA4A4AAAA4A4AA44AA
A4AAAAAAAAAA4A44AAAA2444444AAAAA44AAA4A4AAAAAAAA4A4AAAA4A4AA44AA
A4AAAAAAAAAA4A44AAAA2444444AAAAA44AAA4A4AAAAAAAA4A4AAAA4A4AA44IA
A4AAAAAAAAAA4A44AAAA2444444AAAAA44AAA4A4AAAAAAAA4A4AAAA4A4AA444A
A4AAAAAAAAAA4A44AAAAA444444AAAAA44AAA4A4AAAAAAAA4A4AAAA4A4AA444A
A4AAAAAAAAAA4A44AAAAA444444AAAAA44AAA4A4AAAAAAAA4A4AAAAAA4AA444A
A4AAAAAAAAAA4A44AAAAA444444AAAAA44AAA4A4AAAAAAAA4A4AAAAAA4AA44AA
A4AAAAAAAAAA4I44AAAAA444444AAAAA44AAA4A4AAAAAAAA4A4AAAAAA4AA44AA
A4IAAAAAAAAA4I44AAAAA444444AAAAA44AAA4A4AAAAAAAA4A4AAAAAA4AA44AA
A4IAAAAAAAAA4I44AAAAA44A424AAAAA44AAA4A4AAAAAAAA4A4AAAAAA4AA44AA
A4IAAAAAAAAA4444AAAAA44A424AAAAA44AAA4A4AAAAAAAA4A4AAAAAA4AA44AA
A4IAAAAAAAAA4444IAAAA44A424AAAAA44AAA4A4AAAAAAAA4A4AAAAAA4AA44AA
A4IAAAAAAAAA4444IAAAA44A424AAAAA44AAA4A4AAAAAAAA4A4AAAAAA4AA24AA
A4IAAAAAAAAA4444IAAAA24A424AAAAA44AAA4A4AAAAAAAA4A4AAAAAA4AA24AA
A4IAAAAAAAAA4444IAAAA24A424AAAAA44AIA4A4AAAAAAAA4A4AAAAAA4AA24AA
A4IAAAAAAAAA4444IAAAA24A424AAAAA44AIA4A4AAAAAAAA4A4AAAAAA4AAA4AA
A4IAAAAAAAAA44444AAAA24A424AAAAA44AIA4A4AAAAAAAA4A4AAAAAA4AAA4AA
A4IAAAAAAAAA44444AAAA24A42AAAAAA44A4A4A4AAAAAAAA4A4AAAAAA4AAA4AA
A4IAAAAAAAAA44444AAAA24A42AAAAAA24A4A4A4AAAAAAAA4A4AAAAAA4AAA4AA
A4IAAAAAAAAA44444AAAA24A42AAAAAA22A4A4A4AAAAAAAA4A4AAAAAA4AAA4AA
A4IAAAAAAAAA44444AAAA24A42AAAAAA22A4A4A4AAAAAAAA2A4AAAAAA4AAA4AA
A4IAAAAAAAAA44444AAAA24A42AAAAAA22A4A4A4AAAAAAAA2AAAAAAAA4AAA4AA
A4IAAAAAAAAA44444AAAA24A42AAAAAA22A4A4A4AAAAIAAA2AAAAAAAA4AAA4AA
A4IAAAIAAAAA44444AAAA24A42AAAAAA22A4A4A4AAAAIAAA2AAAAAAAA4AAA4AA
A4IAAAIAAAAA44444AAAA24A42AAAAAA22A4A4A4AAAA4AAA2AAAAAAAA4AAA4AA
A4IAAAIAAAAA44444AAAA2AA42AAAAAA22A4A4A4AAAA4AAA2AAAAAAAA4AAA4AA
A4IAAAIAAAAA44444AAAA2AA42AAAAAA22A4A4A4AAAA4AAA2IAAAAAAA4AAA4AA
A4IAAAIAAAAA44444AAAA2AA22AAAAAA22A4A4A4AAAA4AAA2IAAAAAAA4AAA4AA
A4IAAAIAAAAA44444AAAA2AA22AAAAAA22A4A4A4AAAAAAAA2IAAAAAAA4AAA4AA
A4IAAAIAAAAA44444AAAA2AA22AAAAAA22A4A4A4AAAAAAAA2IAAAAAAA4AAAAAA
A4IAAAIAAAAA44444AAAA2AA22AAAAAA22A4A4A4AAAAAAAA2IAAAAAAA4AAAIAA
A4IAAAIAAAAA44444AAAA2AA22AAAAAA22A4A4A4AAAAAAAA2IAAAAAAA4AAAIIA
A4IAAAAAAAAA44444AAAA2AA22AAAAAA22A4A4A4AAAAAAAA2IAAAAAAA4AAAIIA
A4IAAAAAAAAA44444AAAA2AA22AAAAAA22A4A4A4AAAAAAAA2IAAAAAAA4AAA2IA
A4IAAAAAAAAA44444AAAA2AA2AAAAAAA22A4A4A4AAAAAAAA2IAAAAAAA4AAA2IA
A4IAAAAAAAAA44444AAAA2AA2AAAAAAA22A4A2A4AAAAAAAA2IAAAAAAA4AAA2IA
A4IAAAAAAAAA44444AAAA2AA2AAAAAAA22A4A2A4AAAAAAAA24AAAAAAA4AAA2IA
A4IAAAAAAAAA44444AAAA2AA2AAAAAAA22A4A2A4AAAAAAAA24AAAAAAA4AAAA2A
A4AAAAAAAAAA44444AAAA2AA2AAAAAAA22A4A2A4AAAAAAAA24AAAAAAA4AAAA2A
A4AAAAAAAAAA44444AAAA2AA2AAAAAAA22A4A2A4AAAAAAAA24AAAAAAA4AAAAIA
A4AAAAAAAAAA44444AAAA2AA2AAAAAAA22A4A2A4AAAAAAAA24AAAAAAA4AAAA4A
A4AAAAAAAAAA4444AAAAA2AA2AAAAAAA22A4A2A4AAAAAAAA24AAAAAAA4AAAA4A
A4AAAAAAAAAA44A4AAAAA2AA2AAAAAAA22A4A2A4AAAAAAAA24AAAAAAA4AAAA4A
A4AAAAAAAAAA42A4AAAAA2AA2AAAAAAA22A4A2A4AAAAAAAA24AAAAAAA4AAAA4A
A4AAAAAAAAAA42A4AAAAA2AA2AAAAAAA22A4A2A4AAAAAAAA22AAAAAAA4AAAA4A
A4AAAAAAAAAA42A4AAAAA2AA2AAAAAAA22A4A2A4AAIAAAAA22AAAAAAA4AAAA4A
A4AAAAAAAAAA42A4AAAAA2AA2AAAAAAA22A4A2A4AAIAAAIA22AAAAAAA4AAAA4A
A4AAAAAAAAAA22A4AAAAA2AA2AAAAAAA22A4A2A4AAIAAAIA22AAAAAAA4AAAA4A
A4AAAAAAAAAA22A4AAAAA2AA2AAAAAAA22A4A2A4AA4AAAIA22AAAAAAA4AAAA4A
A4AAAAAAAIAA22A4AAAAA2AA2AAAAAAA22A4A2A4AA4AAAIA22AAAAAAA4AAAA4A
A4AAAAAAAIAA22A4AAAAA2AA2AAAAAAA22A4A2A4AA4AAA4A22AAAAAAA4AAAA4A
A4AAAAAAAIAA22A4AAAAA2AA2AAAAIAA22A4A2A4AA4AAA4A22AAAAAAA4AAAA4A
A4AAAAAAAIAA22A4AAAAA2AA2AAAAIAA22A4A2A4AA4AAA4A22AAAAAAA4AAAA4I
A4AAAAAAAIAA22A4AAAAA2AA2AAAAIAA22A4A2A4AA4AAA4A22AAAAAAA4AAAA2I
A4AAAAAAAIAA22A4AAAAA2AA2AAAAIAA22A4A2A4AA4AAA4A22AAAAAAA4AAAA24
A4AAAAAAAIAA22A4AAAAA2AA2AAAA4AA22A4A2A4AA4AAA4A22AAAAAAA4AAAA24
A4AAAAAAAIAA22A4AAAAA2AA2AAAA4AA22A4A2A4AA4AAAAA22AAAAAAA4AAAA24
A4AAAAAAA4AA22A4AAAAA2AA2AAAA4AA22A4A2A4AA4AAAAA22AAAAAAA4AAAA24
A4AAAAAAA4AA22A4AAAAA2AA2AAAA4AA22A4A2A4AA4AAAAA22AAAAAAA4AAAI24
A4AAAAAAA4AA22A4AAAAA2AA2AAAA4AA22A4A2A4AA4AAAAA2AAAAAAAA4AAA424
A4AAAAAAA4AA22A4AAAAA2AA2AAAA4AA22A4A2A4AA4AAAAA2AAAAAAAA4AAA4A2
A4AAAAAAAAAA22A4AAAAA2AA2AAAA4AA22A4A2A4AA4AAAAA2AAAAAAAA4AAA4A2
A4AAAAAAAAAA22A4AAAAA2AA2AAAA4AA22A4A2AAAA2AAAAA2AAAAAAAA4AAA4A2
A4AAAIAAAAAA22A4AAAAA2AA2AAAA4AA22A4A2AAAA2AAAAA2AAAAAAAA4AAA4A2
A4AAAIAAAAAA22A4AAAAA2AA2AAAA4AA22A4A2AAAA2AAAAAAAAAAAAAA4AAA4A2
A4AAAIAAAAAA22A4AAAAA2AA2AAAA4AA22A4A2AAAA2AAAAAAAAAAAAAA4AAA4AI
A4AAAIAAAAAA22A4AAAAA2AA2AAAA4AA22A4A2AAAAAAAAAAAAAAAAAAA4AAA4AI
A4AAAIAAAAAA22A4AAAAA2AA2AAAA4AA22A4A2AIAAAAAAAAAAAAAAAAA4AAA4AI
A4AAAIAAAAAA22A4AAAAA2AA2AAAA4AA22AAA2A4AAAAAAAAAAAAAAAAA4AAA4AI
A4AAAIAAAAAA22A4AAAAA2AA2AAAA4AA22AAA2A4AAAAAAAAAAAAAAAAA4AAA4II
A4AAAIAAAAAA22A4AAAAA2AA2AAAA4AA22AAA2A4AAAAAAAAAAAAAAAAA4AAA4I4
A4AAAIAAAAAA22A4AAAAA2AA2AAAA4AA22AIA2A4AAAAAAAAAAAAAAAAA4AAA4I4
A4AAAIAAAAAA22A4AAAAA2AA2AAAA4AA22AIA2A4AAAAAAAAIAAAAAAAA4AAA4I4
A4AAAIAAAAAA22A4AAAAA2AA2AAAA4AA22AIA2A4AAAAAAAA4AAAAAAAA4AAA444
A4AAAIAAAAAA22A4AAAAA2AA2AAAA4AA22AIA2A4AAAAAAAA4AAAAAAAA4AAA4A2
A4AAAIAAAAAA2AA2AAAAA2AA2AAAA4AA22AIA2A4AAAAAAAA4AAAAAAAA4AAA4A2
A4AAAIAAAAAA2AA2AAAAA2AA2AAAA4AA22A4A2A4AAAAAAAA4AAAAAAAA4AAA4A2
A4AAAIAAAAAA2AA2AAAAA2AA2AAAA4AA22A4A2A4AAAAAAAA4AAAAAAAA4AAA4I2
A4AAAIAAAAAA2IA2AAAAA2AA2AAAA4AA22A4A2A4AAAAAAAA4AAAAAAAA4AAA4I2
A4AAAIAAAAAA2IA2AAAAA2AA2AAAA4AA22A4A2A4AAAAAAAA4AAAAAAAA4AAA2I2
A4AAA4AAAAAA24A2AAAAA2AA2AAAA4AA22A4A2A4AAAAAAAA4AAAAAAAA4AAA2I2
A4AAA4AAAAAA24A2AAAAA2AA2AAAA4IA22A4A2A4AAAAAAAA4AAAAAAAA4AAA2I2
A4AAA4AAAAAA24A2AAAAA2AA2AAAA4IA22A4A2A4AAAAAAAA4AAAAAAAA4AAAII2
A4AAA4AAAAAA24A2AAAAA2AA2AAAA4IA22A4A2A4AAAAAAAA2AAAAAAAA4AAAI42
A4AAA4AAAAAA24AAAAAAA2AA2AAAA44A22A4A2A4AAAAAAAA2AAAAAAAA4AAAI42
A2AAA4AAAAAA24AAAAAAA2AA2AAAA44A22A4A2A4AAAAAAAA2AAAAAAAA4AAAI42
A2AAA2AAAAAA24AAAAAAA2AA2AAAA44A22A4A2A4AAAAAAAA2AAAAAAAA4AAAI42
A2AAAAAAAAAA24AAAAAAA2AA2AAAA44A22A4A2A4AAAAAAAA2AAAAAAAA4AAAI42
A2AAAAAAAAAA22AAAAAAA2AA2AAAA44A22A4A2A4AAAAAAAA2AAAAAAAA4AAAI42
A2AAAAAAAAAA22AAAAAAA2AA2AAAA24A22A4A2A4AAAAAAAA2AAAAAAAA4AAAI42
A2AAAAAAAAAA22AAAAAAA2AA2AAAA24A22A4A2A4AAAAAAAA2AAAAAAAA4AAA442
A2AAAAAAAAAA22AAAAAAA2AA2AAAA24A22A4A2A4AAAAAAAA2AAAAAAAA4AAA222
A2AAAAAAAAAA22AAAAAAA2AA2AAAA24A22A4A2A4AAAAAAAA2AAAAAAAA4AAA2A2
A2AAAAAAAAAA22AAAAAAA2AA2AAAA24A22A4A2A4AAAAAAIA2AAAAAAAA4AAA2A2
A2AAAAAAAAAA22AAAAAAA2AA2AAAA24A22A4A2A4AAAAAAIA2AAAAAAAA4AAA2I2
A2AAAAAAAAAA22AAAAAAA2AA2AAAA24A22A4I2A4AAAAAAIA2AAAAAAAA4AAA2I2
A2AAAAAAAAAA22AAAAAAA2AA2AAAA24A22A4I2A4AAAAAAIAAAAAAAAAA4AAA242
A2AAAAAAAAAA22AAAAAAA2AA2AAAA24A22A4I2A4AAAIAAIAAAAAAAAAA4AAA242
A2AAAAAAAAAA22AAAAAAA2AA2AAAA24A22A4I2A4AAAIAAIAAAAAAAAAA4AAA2A2
A2AAAAAAAAAA22AAAAAAA2AA2AAAA24A22A442A4AAAIAAIAAAAAAAAAA4AAA2A2
A2AAAAAAAAAA22AAIAAAA2AA2AAAA24A22A442A4AAAIAAIAAAAAAAAAA4AAA2A2
A2AAAAAAAAAA22AAIAAAA2AI2AAAA24A22A442A4AAAIAAIAAAAAAAAAA4AAA2A2
A2AAAAAAAAAA22AAIAAAA2AI2AAAA24A22A442A4AAAIAAIAAAAAAAAAA4IAA2A2
A2AAAAAAAAAA22AAIAAAA2AI2AAAA24A22A4A2A2AAAIAA4AAAAAAAAAA4IAA2A2
A2AAAAAAAAAA22AAIAAAA2A22AAAA24A22A4A2A2AAAIAA4AAAAAAAAAA4IAA2A2
A2AAAAAAAAAA22AAIAAAA2AA2AAAA24A22A4A2A2AAAIAA4AAAAAAAAAA4IAA2A2
A2AAAAAAAAAA22AAIAAAA2AA2AAAA24A22A4A2A2AAAIAAAAAAAAAAAAA44AA2A2
A2AAAAAAAAAA22AAIAAAA2AA2AAAA24A22A4A2A2AAAAAAAAAAAAAAAAA44AA2A2
A2AAAAAAAAAA22AA4AAAA2AA2AAAA24A22A4A2A2AAAAAAAAAAAAAAAAA44AA2A2
A2AAAAAAAAAA22AA4AAAA2AA2AAAA24A22A4A2A2AAAAAAAAAAAAAAAAA44AAAA2
A2AAAAAAAAAA22AA4AAAA2AA2AAAA24A22A4A2A2AAAAAAAAAAAAAAAAA42AAAA2
A2AAAAAAAAAA22AA4AAAA2AA2AAAA24A22A4A2A2AAAAAAAAAAAAAAIAA42AAAA2
A2AAAAAAAAAA22AA4AAAA2AA2AAAA24A22A4A2A2AAAAAAAAAAAAAA2AA42AAAA2
A2AAAAAAAAAA22AA4AAAA2AA2AAAA24A22A4A2A2AAAIAAAAAAAAAA2AA42AAAA2
A2AAAAAAAAAA22AAAAAAA2AA2AAAA24A22A4A2A2AAAIAAAAAAAAAA2AA42AAAA2
A2AAAAAAAAAA22AAAAAAA2AAAAAAA24A22A4A2A2AAAIAAAAAAAAAA2AA42AAAA2
A2AAAAAAAAAA22AAAAAAA2AAAAAAA24A22A4A2A2AAAIAAAAAAAAAA2AA4AAAAA2
A2AAAAAAAAAA22AAAAAAA2AAAAAAA24A22A4A2A2AAA2AAAAAAAAAA2AA4AAAAA2
A2AAAAAAAAAA22AAAAAAA2AAAAAAA2AA22A4A2A2AAA2AAAAAAAAAA2AA4AAAAA2
A2AAAAIAAAAA22AAAAAAA2AAAAAAA2AA22A4A2A2AAA2AAAAAAAAAA2AA4AAAAA2
A2AAAA4AAAAA22AAAAAAA2AAAAAAA2AA22A4A2A2AAA2AAAAAAAAAA2AA4AAAAA2
A2AAAA4AAAAA22AAAAAAA2AAAAAIA2AA22A4A2A2AAA2AAAAAAAAAA2AA4AAAAA2
A2AAAAAAAAAA22AAAAAAA2AAAAAIA2AA22A4A2A2AAA2AAAAAAAAAA2AA4AAAAA2
A2AAAAAAAAAA22AAAAAAA2AAAAAAA2AA22A4A2A2AAA2AAAAAAAAAA2AA4AAAAA2
A2AAAAIAAAAA22AAAAAAA2AAAAAAA2AA22A4A2A2AAA2AAAAAAAAAA2AA4AAAAA2
A2AAAAIAAAAA2AAAAAAAA2AAAAAAA2AA22A4A2A2AAA2AAAAAAAAAA2AA4AAAAA2
A2AAAAIAAAAA2AAAAAAAA2AAAAAAAAAA22A4A2A2AAA2AAAAAAAAAA2AA4AAAAA2
A2AAAAIAAAAA2AAAAAAAA2AAAAAAAAAAA2A2A2A2AAA2AAAAAAAAAA2AA4AAAAA2
A2AAAAIAAAAA2AAAAAAAA2AAAAAAAAAAA2A2A2A2AAA2AAAAAAAAAAAAA2AAAAA2
A2AAAAIAAAAA2AAAAAAAA2AAAAAAAIAAA2A2A2A2AAA2AAAAAAAAAAAAA2AAAAA2
A2AAAAIAAAAA2AAAAAAAA2AAAAAIAIAAA2A2A2A2AAA2AAAAAAAAAAAAA2AAAAA2
A2AAAAIAAAAA2AAAAAAAA2AAAAA2A4AAA2A2A2A2AAA2AAAAAAAAAAAAA2AAAAA2
A2AAAAIAAAAA2AAAAAAAA2AAAAAAA4AAA2A2A2A2AAA2AAAAAAAAAAAAA2AAAAA2
A2AAAA2AAAAA2AAAAAAAA2AAAAAAA4AAA2A2A2A2AAA2AAAAAAAAAAAAA2AAAAA2
A2AAAA2AAAAA2AAAAAAAA2AAAAAAA2AAA2A2A2A2AAA2AAAAAAAAAAAAA2AAAAA2
A2AAAAAAAAAA2AAAAAAAA2AAAAAAA2AAA2A2A2A2AAA2AAAAAAAAAAAAA2AAAAA2
A2AAAAAAAAAA2AAAAAAAA2AAAAAAAIAAA2A2A2A2AAA2AAAAAAAAAAAAA2AAAAA2
A2AAAAAAAAAA2AIAAAAAA2AAAAAAAIAAA2A2A2A2AAA2AAAAAAAAAAAAA2AAAAA2
A2AAAAAAAAAA2AIAAAAAA2AAAAAAAIAAA2A2A2A2AAA2AAAAAIAAAAAAA2AAAAA2
A2AAAAAAAAAA2AIAAAAAA2AAAAAAA4AAA2A2A2A2AAA2AAAAAIAAAAAAA2AAAAA2
A2AAAAAAAAAA2A4AAAAAA2AAAAAAA4AAA2A2A2A2AAA2AAAAAIAAAAAAA2AAAAA2
A2AAAIAAAAAA2A4AAAAAA2AAAAAAA4AAA2A2A2A2AAA2AAAAAIAAAAAAA2AAAAA2
A2AAAIAAAAAA2A4AAAAAA2AIAAAAA4AAA2A2A2A2AAA2AAAAAIAAAAAAA2AAAAA2
A2AAAIAAAAAA2A2AAAAAA2A4AAAAA4AAA2A2A2A2AAA2AAAAAIAAAAAAA2AAAAA2
A2AAAIAAAAAA2AAAAAAAA2A4AAAAA4AAA2A2A2A2AAA2AAAAAIAAAAAAA2AAAAA2
A2AAAAAAAAAA2AAAAAAAA2A4AAAAA4AAA2A2A2A2AAA2AAAAAIAAAAAAA2AAAAA2
A2AAAAAAAAAA2AAAAAAAA2A4AAAAA4AAA2A2A2A2AAA2AAAAA2AAAAAAA2AAAAA2
A2AAAAAAAAAA2AAAAAAAA2AAAAAAA4AAA2A2A2A2AAA2AAAAA2AAAAAAA2AAAAA2
A2AAAAAAAAAA2AAAAAAAA2AIAAAAA4AAA2A2A2A2AAA2AAAAA2AAAAAAA2AAAAA2
A2AAAAAAAAAA2AAAAAAAA2AIAAAAA2AAA2A2A2A2AAA2AAAAA2AAAAAAA2AAAAA2
A2AAAAAAAAAA2AAAAAAAA2AIAAAAA2AAA2A2A2A2AAAAAAAAA2AAAAAAA2AAAAA2
A2AAAAAAAAAA2AAAAAAAA2A2AAAAA2AAA2A2A2A2AAAAAAAAA2AAAAAAA2AAAAA2
A2AAAAAAAAAA2AAAAAAAA2A2AAAAA2AAA2A2A2A2AAAIAAAAA2AAAAAAA2AAAAA2
A2AAAAAAAAAA2AAAAAAAA2A2AAAAA2AAA2A2A2A2AAAIAAAAA2AAAAIAA2AAAAA2
A2AAAAAAAAAA2AAAAAAAA2A2AAAAA2AAA2A2A2A2AAA4AAAAA2AAAAIAA2AAAAA2
A2AAAAAAAAAA2AAAAAAAA2A2AAAAA2AAA2A2AAA2AAA4AAAAA2AAAAIAA2AAAAA2
A2AAAAAAAAAA2AAAAAAAA2A2AAAAA2AAA2A2AAA2AAA4AAAAA2AAAA2AA2AAAAA2
A2AAAAAAAAAA2AAAAAAAA2A2AAAAA2AAA2A2AAA2AAAAAAAAA2AAAA2AA2AAAAA2
A2AAAAAAAAAA2AAAAAAAA2A2AAAAAAAAA2A2AAA2AAAAAAAAA2AAAA2AA2AAAAA2
A2AAAAAAAAAA2AAAAAAAA2A2AAAAAIAAA2A2AAA2AAAAAAAAA2AAAA2AA2AAAAA2
A2AAAAAAAAAA2IAAAAAAA2A2AAAAAIAAA2A2AAA2AAAAAAAAA2AAAA2AA2AAAAA2
A2AAAAAAAAAA2IAAAAAAA2A2AAAAA4AAA2A2AAA2AAAAAAAAA2AAAA2AA2AAAAA2
A2AAAAAAAAAA24AAAAAAA2A2AAAAA4AAA2A2AAA2AAAAAAAAA2AAAA2AA2AAAAA2
A2AAAAAAAAAA24AAAAAAA2A2AAAAA4AAA2A2AAA2AAAAAAAAA2AAAI2AA2AAAAA2
A2AAAAAAAAAA22AAAAAAA2A2AAAAA4AAA2A2AAA2AAAAAAAAA2AAAI2AA2AAAAA2
A2AAAIAAAAAA22AAAAAAA2A2AAAAA4AAA2A2AAA2AAAAAAAAA2AAAI2AA2AAAAA2
A2AAAIAAAAAA22AAAAIAA2A2AAAAA4AAA2A2AAA2AAAAAAAAA2AAAI2AA2AAAAA2
A2AAAIAAAAAA22AAAAIAA2A2AAAAA4AAA2A2AAA2AAAAAAAAA2AAAI2AI2AAAAA2
A2AAAIAAAAAA22AAAAIAA2A2AAAAA2AAA2A2AAA2AAAAAAAAA2AAAI2AI2AAAAA2
A2AAAIAAAAAA22AAAAIAA2AAAAAAA2AAA2A2AAA2AAAAAAAAA2AAAI2AI2AAAAA2
A2AAAIAAAAAA22AAAAIAA2AAAAAAA2AAA2A2AAA2AAAAAAAAAAAAA22AI2AAAAA2
A2AAAIAAAAAA22AAAAIAA2AAAAAAA2AAA2A2AAA2AAAAAAAAAAAAA22A42AAAAA2
A2AAAIAAAAAA22AAAAIAA2AIAAAAA2AAA2A2AAA2AAAAAAAAAAAAA22A42AAAAA2
A2AAAIAAAAAA22AAAA4AA2A4AAAAA2AAA2A2AAA2AAAAAAAAAAAAA22A42AAAAA2
A2AAAIAAAAAA22AAAA4AA2A2AAAAA2AAA2A2AAA2AAAAAAAAAAAAA22A42AAAAA2
A2AAAIAAAAAA22AAAA4AA2A2AAAAA2AAA2A2AAA2AAAAAAAAAAAAAI2A42AAAAA2
A2AAAIAAAAAA22AAAA4AA2A2AAAIA2AAA2A2AAA2AAAAAAAAAAAAAI2A42AAAAA2
A2AAAIAAAAAA2AAAAA4AA2A2AAA4A2AAA2A2AAA2AAAAAAAAAAAAAI2A42AAAAA2
A2AAAIAAAAAA2AAAAA4AA2A2AAA4A2AAA2A2AAA2AAAAAAIAAAAAAI2A42AAAAA2
A2AAAIAAAAAA2AAAAA4AA2A2AAAAA2AAA2A2AAA2AAAAAAIAAAAAAI2A42AAAAA2
AAAAA2AAAAAA2AAAAA4AA2A2AAAAA2AAA2A2AAA2AAAAAAIAAAAAAI2A42AAAAA2
AAAAAAAAAAAA2AAAAA4AA2A2AAAAA2AAA2A2AAA2AAAAAAIAAAAAAI2A42AAAAA2
AAAAAAAAAAAA2AAAAA4AA2A2AAAAA2AAA2A2AAA2AAAAAA4AAAAAAI2A42AAAAA2
AAAAAAAAAAAA2AAAAA4AA2A2AAAAA2AAA2A2AAA2AAAAAA4AAAAAA22A42AAAAA2
AAAAAAAAAAAA2AAAAA4AA2A2AAAAA2AAA2A2AAA2AAAAAA4AAAAAAA2A42AAAAA2
AAAAAAAAAAAA2AAAAA4AA2A2AAAAA2AAA2A2AAA2AAAAAAAAAAAAAA2A42AAAAA2
AAAAAAAAAAAA2AAAAA4AA2A2AAAAA2AAA2A2AAA2AAAAAAAAAAAAAA2A42AAAAAA
AAAAAAAAAAAA2AAAAA4AA2A2AAAAA2AAA2A2AAA2AAAAAAAAAAAAAA2A22AAAAAA
AAAAAAAAAAAA2AAAAA4AA2A2AAAAA2AAA2A2AAA2AAAAAAIAAAAAAA2A22AAAAAA
AAAAAAAAAAAA2AAAAA4AA2AAAAAAA2AAA2A2AAA2AAAAAAIAAAAAAA2A22AAAAAA
AAAAAAAAAAAA2AAAAA4AA2AAAAAAA2AAA2A2AAA2AAAAAAAAAAAAAA2A22AAAAAA
AAAAAAAAAAAA2AAAAA4AA2AAAAAAA2AIA2A2AAA2AAAAAAAAAAAAAA2A22AAAAAA
AAAAAAAAAAAA2AAAAA4AA2AAAAAAA2AIA2A2AAA2AAAAAAAAAAAAAA2A22IAAAAA
AAAAAAAAAAAA2AAAAA4AA2AAAAAAA2AIA2A2AAA2AAAAAAAAAAAAAA2A224AAAAA
AAAAAAAAAIAA2AAAAA4AA2AAAAAAA2AIA2A2AAA2AAAAAAAAAAAAAA2A224AAAAA
AAAAAAAAAIAA2AAAAA4AA2AAAAAAA2A4A2A2AAA2AAAAAAAAAAAAAA2A224AAAAA
AAAAAAAAAIAA2AAAAA4AA2AAAAAAA2A4AAA2AAA2AAAAAAAAAAAAAA2A224AAAAA
AAAAAAAAAIAA2AAAAA4AA2AAAAAAA2A4AAA2AAA2AAAAAIAAAAAAAA2A224AAAAA
AAAAAAAAA2AA2AAAAA4AA2AAAAAAA2A4AAA2AAA2AAAAAIAAAAAAAA2A224AAAAA
AAAAAAAAA2AA2AAAAA4IA2AAAAAAA2A4AAA2AAA2AAAAAIAAAAAAAA2A224AAAAA
AAAAAAAAA2AA2AAAAA4IA2AAAAAAA2A4AIA2AAA2AAAAAIAAAAAAAA2A224AAAAA
AAAAAAAAA2AA2AAAAA44A2AAAAAAA2A4AIA2AAA2AAAAAIAAAAAAAA2A224AAAAA
AAAAAAAAA2AA2AAAAA44A2AAAAAAA2A4AIA2AAA2AAAAAIAAAAAAAA2AA22AAAAA
AAAAAAAAA2AA2AAAAA4AA2AAAAAAA2A4A4A2AAA2AAAAAIAAAAAAAA2AA22AAAAA
AAAAAAAAA2AA2AAAAA2AA2AAAAAAA2A4A4A2AAA2AAAAAIAAAAAAAA2AA22AAAAA
AAAAAAAAA2AA2AAAAA2AA2AAAAAAA2A4A4A2AAA2AAAAA2AAAAAAAA2AA22AAAAA
AAAAAAAAA2AA2AAAAA2AA2AAAAAAA2A2A4A2AAA2AAAAA2AAAAAAAA2AA22AAAAA
AAAAAAAAA2AA2AAAAA2AA2AAAAAAA2A2A4A2AAA2AAAAA2AAAAAAAA2AA2AAAAAA
AAAAAAIAA2AA2AAAAA2AA2AAAAAAA2A2A4A2AAA2AAAAA2AAAAAAAA2AA2AAAAAA
AAAAAAIAA2AA2AAAAAIAA2AAAAAAA2A2A4A2AAA2AAAAA2AAAAAAAA2AA2AAAAAA
AAAAAAIAA2AA2AAAAAIAA2AAAAAAA2AIA4A2AAA2AAAAA2AAAAAAAA2AA2AAAAAA
AAAAAAIAA2AA2AAAAAIAA2AAAAAAA2AIA4A2AAA2AAAAAIAAAAAAAA2AA2AAAAAA
AAAAAAIAA2AA2AAIAAIAA2AAAAAAA2AIA4A2AAA2AAAAAIAAAAAAAA2AA2AAAAAA
AAAAAAIAA2AA2AA2AA4AA2AAAAAAA2AIA4A2AAA2AAAAAIAAAAAAAA2AA2AAAAAA
AAAAAAIAA2AA2AA2AAAAA2AAAAAAA2AIA4A2AAA2AAAAAIAAAAAAAA2AA2AAAAAA
AAAAAAIAA2AA2AA2AAAAA2AAAAAAA2A4A4A2AAA2AAAAAIAAAAAAAA2AA2AAAAAA
AAAAAAIAA2AA2AA2AAAAA2AAAAAAA2A4A4A2AAA2AAAAA2AAAAAAAA2AA2AAAAAA
AAAAAAIAA2AA2AAIAAAAA2AAAAAAA2A4A4A2AAA2AAAAA2AAAAAAAA2AA2AAAAAA
AAAAAAIAA2AA2AA4AAAAA2AAAAAAA2A4A4A2AAA2AAAAA2AAAAAAAA2AA2AAAAAA
AAAAAAIAAAAA2AA4AAAAA2AAAAAAA2A4A4A2AAA2AAAAA2AAAAAAAA2AA2AAAAAA
AAAAAAIAAAAA2AA4AAAAA2AAAAAAA2A4A4A2AAAAAAAAA2AAAAAAAA2AA2AAAAAA
AAAAAAIAAAAA2AAAAAAAA2AAAAAAA2A4A4A2AAAAAAAAA2AAAAAAAA2AA2AAAAAA
AAAAAA4AAAAA2AAAAAAAA2AAAAAAA2A4A4A2AAAAAAAAA2AAAAAAAA2AA2AAAAAA
AAAAAA4AAAAA2AAAAAAAA2AAAAAAA2A4A4AAAAAAAAAAA2AAAAAAAA2AA2AAAAAA
AAAAAA4AAAAA2AAAAAAAA2AAAAAAA2A4I4AAAAAAAAAAA2AAAAAAAA2AA2AAAAAA
AAAAAA4AAAAA2AAAAAAAA2AAAAAAA2A444AAAAAAAAAAA2AAAAAAAA2AA2AAAAAA
AAAAAA4AAAAA2AAAAAAAAAAAAAAAA2A444AAAAAAAAAAA2AAAAAAAA2AA2AAAAAA
AAAAAA4AAAAA2AAAAAAAAAAAAAAAA2A444AAAAAAAAAAA2AAAAAAAA2AAAAAAAAA
AAAAAAAAAAAA2AAAAAAAAAAAAAAAA2A444AAAAAAAAAAA2AAAAAAAA2AAAAAAAAA
AAAAAAAAAAAA2AAAAAAAAAAAAAAAA2A444AAAAAAAAAAA2AAAAAAAA2AAAIAAAAA
AAAAAAIAAAAA2AAAAAAAAAAAAAAAA2A444AAAAAAAAAAA2AAAAAAAA2AAAIAAAAA
AAAAAA4AAAAA2AAAAAAAAAAAAAAAA2A444AAAAAAAAAAA2AAAAAAAA2AAAIAAAAA
AAAAAA4AAAAA2AAAAAAAAAAAAAAAAAA222AAAAAAAAAAA2AAAAAAAA2AAAIAAAAA
AAAAAA4AAAAA2AAAAAAAAAAAAAAAAAA222AAAAAAAAAAA2AAAAAAAA2AAA4AAAAA
AAAAAA4AAAAA2AAAAAAAAAAAAAAAAAA222AAAAAAAAAAA2AAAAAAAA2AAA2AAAAA
AAAAAAAAAAAA2AAAAAAAAAAAAAAAAAA222AAAAAAAAAAA2AAAAAAAA2AAA2AAAAA
AAAAAAAAAAAA2AAAAAAAAAAAAAAAAAA222AAAAAAAAAAA2IAAAAAAA2AAA2AAAAA
AAAAAAAAAAAA2AAAAAAAAAAAAAAAAAA222AAAAAAAAAAA24AAAAAAA2AAA2AAAAA
AAAAAAAAAAAA2AAAAAAAAAAAAAAAAAA222AAAAAAAAAAA2AAAAAAAA2AAA2AAAAA
AAAAAAAAAAAA2AAAAAAAAAAAAAAAAAA222AAAAAAAAAAA2IAAAAAAA2AAA2AAAAA
AAAAAAAAAAAA2AAAAAAAAAAAAAAAAAAA22AAAAAAAAAAA24AAAAAAA2AAA2AAAAA
AAAAAAAAAAAA2AAAAAAAAAAAAAAAAAAI22AAAAAAAAAAA24AAAAAAA2AAA2AAAAA
AAAAAAIAAAAA2AAAAAAAAAAAAAAAAAAI22AAAAAAAAAAA24AAAAAAA2AAA2AAAAA
AAAAAAIAAAAA2AAAAAAAAAAAAAAAAAAI22AAAAAAAAAAA22AAAAAAA2AAA2AAAAA
AAAAAAAAAAAA2AAAAAAAAAAAAAAAAAAI22AAAAAAAAAAA22AAAAAAA2AAA2AAAAA
AAAAAAAAAAAA2AAAAAAAAAAAAAAAAAA422AAAAAAAAAAA22AAAAAAA2AAA2AAAAA
AAAAAAAAAAAA2AAAAAAAAAAAAAAAAAA422AAAAAAAAAAA22AAAAAAA2AIA2AAAAA
AAAAAAAAAAAA2AAAAAAAAAAAAAAAAAA422AAAAAAAAAAA22AAAAAAA2A4A2AAAAA
AAAAAAAAAAAA2AAAAAAAAAAAAAAAAAA222AAAAAAAAAAA22AAAAAAA2A4A2AAAAA
AAAAAAAAAAAA2AAAAAAAAAAAAAAAAAA222AAAAAAAAAAA22AAAAAAA2A2A2AAAAA
AAAAAAAAAAAA2AAAAAAAAAAAAAAAAAA222AAAAAAAAAAA22AAAAAAA2AIA2AAAAA
AAAAAAAAAAAA2AAAAAAAAAAAAAAAAAA222AAAAAAAAAAA22AAIAAAA2AIA2AAAAA
AAAAAAAAAAAA2AAAAAIAAAAAAAAAAAA222AAAAAAAAAAA22AAIAAAA2AIA2AAAAA
AAAAAAAAAAAA2AAAAA4AAAAAAAAAAAA222AAAAAAAAAAA22AAIAAAA2AIA2AAAAA
AAAAAAAAAAAA2AAAAA4AAAAAAAAAAAI222AAAAAAAAAAA22AAIAAAA2AIA2AAAAA
AAAAAAAAAAAI2AAAAA4AAAAAAAAAAAI222AAAAAAAAAAA22AAIAAAA2AIA2AAAAA
AAAAAAAAAAAI2AAAAA4AAAAAAAAAAA4222AAAAAAAAAAA22AAIAAAA2AIA2AAAAA
AAAAAAAAAAAI2AAAAA4AAAAAAAAAAA4222AAAAAAAAAAA22AA2AAAA2A4A2AAAAA
AAAAAAAAAAAI2AAAAA4AAAAAAAAAAA4222AAAAAAAAAAA22AA2AAAA2A2A2AAAAA
AAAAAAIAAAAI2AAAAA4AAAAAAAAAAA4222AAAAAAAAAAA22AA2AAAA2A2A2AAAAA
AAAAAAIAAAAI2AAAAA4AAAAAAAAAAA4222AAAAAAAAAAA22AA2AAAA2AIA2AAAAA
AAAAAAIAAAAI2AAAAA4AAAAAAAAAAA4222AAAAAAAAAAA22AA2AAAA2A4A2AAAAA
AAAAAAIAAAAI2AAAAA4AAAAAAAAAAA4222AAAAAAAAAAA22AA2AAAA2A2A2AAAAA
AAAAAAIAAAAI2AAAIA4AAAAAAAAAAA4222AAAAAAAAAAA22AA2AAAA2A2A2AAAAA
AAAAAAIAAAAI2AAAIA4AAAAAAAAAAA4222AAAAAAAAAAA22AA2AAAA2AIA2AAAAA
AAAAAAIAAAA22AAA4A4AAAAAAAAAAA4222AAAAAAAAAAA22AA2AAAA2AIA2AAAAA
AAAAAAIAAAA22AAA4A4AAAAAAAAAAA2222AAAAAAAAAAA22AA2AAAA2AIA2AAAAA
AAAAAAIAAAA22AAA4A4AAAAAAAAAAA2222AAAAAAAAAAAA2AA2AAAA2A4A2AAAAA
AAAAAAIAAAA22AAA4A4AAAAAAAAAAA2222AAAAAAAAAAAAAAA2AAAA2A4A2AAAAA
AAAAAAIAAAA22AAA4A4AAAAAAAAAAA2222AAAAAAAAAAAAAAA2AAAA2A4AAAAAAA
AAAAAAAAAAA22AAA4A4AAAAAAAAAAA2222AAAAAAAAAAAAAAA2AAAA2A4AAAAAAA
AAAAAAAAAAA22AAAAA2AAAAAAAAAAA2222AAAAAAAAAAAAAAA2AAAA2A4AAAAAAA
AAAAAAAAAAA22AAAAA2AAAAAAAAAAA2222AAAAAAAAAAAAAAAAAAAA2A4AAAAAAA
AAAAAAAAAAA22AAAAA2AAAAAAAAAAA2222AAAAAAAAAAAAAAAAAAAA2A4AAAAAIA
AAAAAAAAAAA22AAAAA2AAAAAAAAAAA2222AAAAAAAAAAAAAAAAAAAA2A2AAAAA4A
AAAAAAAAAAA22AAAAA2AAAAAAAAAAAA222AAAAAAAAAAAAAAAAAAAA2A2AAAAA4A
AAAAAAAAAAA22AAAAA2AAAAAAAAAAAA22AAAAAAAAAAAAAAAAAAAAA2A2AAAAA4A
AAAAAAAAAAA22AAAAA2AAAAAAAAAAAA22AAAAAAAIAAAAAAAAAAAAA2A2AAAAA4A
AAAAAAAAAAA22AAAAA2AAAAAAAAAAAA22AAAAAAAAAAAAAAAAAAAAA2A2AAAAA4A
AAAAAAAAAAA22AAAAA2IAAAAAAAAAAA22AAAAAAAAAAAAAAAAAAAAA2A2AAAAA4A
AAAAAAAAAAA22AAAAA2IAAAAAAIAAAA22AAAAAAAAAAAAAAAAAAAAA2A2AAAAA4A
AAAAAAAAAAA22AAAAA24AAAAAAIAAAA22AAAAAAAAAAAAAAAAAAAAA2A2AAAAA4A
AAAAAAAAAAA22AAAAA24AAAAAAIAAAA22AAAAAAAAAAAAAAAAAAAAA2A2AAAAA2A
AAAAAAAAAAA22AAAAA24AAAAAAIAAAA22AAAAAAAAAAAAAAAAAAAAA2A2AAAAAAA
AAAAAAAAAAA22AAAAA2AAAAAAAIAAAA22AAAAAAAAAAAAAAAAAAAAA2A2AAAAAAA
AAAAAAAAAAA22AAAAAAAAAAAAA4AAAA22AAAAAAAAAAAAAAAAAAAAA2A2AAAAAAA
AAAAAAAAAAA22AAAAAAAAAAAAA4AAAA22AAAAAAAAAAAAAAAAAAAAA2AAAAAAAAA
AAAAAAAAAAAA2AAAAAAAAAAAAA4AAAA22AAAAAAAAAAAAAAAAAAAAA2AAAAAAAAA
AAAAAAAAAAAA2AAAAAAAAAAAAA2AAAA22AAAAAAAAAAAAAAAAAAAAA2AAAAAAAAA
AAAAAAAAAIAA2AAAAAAAAAAAAA2AAAA22AAAAAAAAAAAAAAAAAAAAA2AAAAAAAAA
AAAAAAAAA2AA2AAAAAAAAAAAAA2AAAA22AAAAAAAAAAAAAAAAAAAAA2AAAAAAAAA
AAAAAAAAA2AA2AAAAAAAAAAAAA2AAAAA2AAAAAAAAAAAAAAAAAAAAA2AAAAAAAAA
AAAAAAAAA2AA2AAAAAAAAAAAAA2AAAAA2AAAAAAAAAAAAAAAAAAAAAAAAAAAAAAA
AAAAAAIAA2AA2AAAAAAAAAAAAA2AAAAA2AAAAAAAAAAAAAAAAAAAAAAAAAAAAAAA
AAAAAAAAA2AA2AAAAAAAAAAAAA2AAAAA2AAAAAAAAAAAAAAAAAAAAAAAAAAAAAAA
AAAAAAAAAAAA2AAAAAAAAAAAAA2AAAAA2AAAAAAAAAAAAAAAAAAAAAAAAAAAAAAA
AAAAAAAAAAAA2AAAAAAAAAAAAA2AAAAA2AAAAAAAAAAAAAAAAAAAAAAAIAAAAAAA
AAAAAAAAAAAA2AAAAAAAAAAAAA2AAAAA2AAAAAAAAAAAAAAAAAAAAAAA4AAAAAAA
AAAAAAAAAAAA2AAAAAAAAAAAAA2AAAAA2AAAAAAAAAAAAAAAAAAAAAAAAAAAAAAA
AAAAAAAAAAAA2AAAAAAAAAAAAA2AAAAA2AAAAAAAAAAAAAAAAAAAAAAAIAAAAAAA
AAAAAAAAAAAA2AAAAAAAAAAAAA2AAAAA2AAAAAAAAAAAAAAAAAAAAAAA4AAAAAAA
AAAAAAAAAAAA2AAAIAAAAAAAAA2AAAAA2AAAAAAAAAAAAAAAAAAAAAAA4AAAAAAA
AAAAAAAAAAAA2AAAIAAAAAAAAAAAAAAA2AAAAAAAAAAAAAAAAAAAAAAA4AAAAAAA
AAAAAAAAAAAA2AAAIAAAAAAAAAAAAAAA2AAAAAAAAAAAAAAAAAAAAAAA2AAAAAAA
AAAAAAAAAAAA2AAAIAAAAAAAAAAIAAAA2AAAAAAAAAAAAAAAAAAAAAAA2AAAAAAA
AAAAAAAAAAAA2AAAIAAIAAAAAAAIAAAA2AAAAAAAAAAAAAAAAAAAAAAA2AAAAAAA
AAAAAAAAAAAA2AAA4AAIAAAAAAAIAAAA2AAAAAAAAAAAAAAAAAAAAAAA2AAAAAAA
AAAAAAAAAAAA2AAA4AA4AAAAAAAIAAAA2AAAAAAAAAAAAAAAAAAAAAAA2AAAAAAA
AAAAAIAAAAAA2AAA4AA4AAAAAAAIAAAA2AAAAAAAAAAAAAAAAAAAAAAA2AAAAAAA
AAAAAIAAAAAA2AAA2AA4AAAAAAAIAAAA2AAAAAAAAAAAAAAAAAAAAAAA2AAAAAAA
AAAAAIAAAAAA2AAA2AA4AAAAAAAAAAAA2AAAAAAAAAAAAAAAAAAAAAAA2AAAAAAA
AAAAAIAAAIAA2AAA2AA4AAAAAAAAAAAA2AAAAAAAAAAAAAAAAAAAAAAA2AAAAAAA
AAAAAIAAAIAA2AAA2AA4AAAAAAAAAAAA2AAAAAAAAAAAAAAAAAAAAIAA2AAAAAAA
AAAAAIAAAIAA2AIA2AA4AAAAAAAAAAAA2AAAAAAAAAAAAAAAAAAAAIAA2AAAAAAA
AAAAA2AAA4AA2A4A2AA4AAAAAAAAAAAA2AAAAAAAAAAAAAAAAAAAAIAA2AAAAAAA
AAAAAAAAA4AA2A4A2AA4AAAAAAAAAAAA2AAAAAAAAAAAAAAAAAAAAIAA2AAAAAAA
AAAAAAAAA2AA2A4A2AA4AAAAAAAAAAAA2AAAAAAAAAAAAAAAAAAAAIAA2AAAAAAA
AAAAAAAAAAAA2A2A2AA4AAAAAAAAAAAA2AAAAAAAAAAAAAAAAAAAAIAA2AAAAAAA
AAAAAAAAAAAA2A2A2AA2AAAAAAAAAAAA2AAAAAAAAAAAAAAAAAAAAIAA2AAAAAAA
AAAAAAAAAAAA2A2A2AA2AAAAAAAAAAAA2AAAAAAAAAAAAAAAAAAAA4AA2AAAAAAA
AAAAAAAAAAAA2A2A2AA2AAAAAAAAAAAA2AAAAAAAAAAAAAIAAAAAA4AA2AAAAAAA
AAAAAAAAAAAA2A2A2AA2AAAAAAAAAAAA2AAAAAAAAAAAAA4AAAAAA4AA2AAAAAAA
AAAAAAAAAAAA2A2A2AAAAAAAAAAAAAAA2AAAAAAAAAAAAA4AAAAAA4AA2AAAAAAA
AAAAAAAAAAAA2A2A2AAAAAAAAAAAAAAA2AAAAAAAAAAAAA2AAAAAA4AA2AAAAAAA
AAAAAAAAAAAA2A2AAAAAAAAAAAAAAAAA2AAAAAAAAAAAAA2AAAAAA4AA2AAAAAAA
AAAAAAAAAAAA2A2AAAAAAAAAAAAAAAAA2AAAAAAAAAAAAA2AAAAAA4AI2AAAAAAA
AAAAAAAAAAAA2I2AAAAAAAAAAAAAAAAA2AAAAAAAAAAAAA2AAAAAA4AI2AAAAAAA
AAAAAAAAAAAA2I2AAAAAAAAAAAAAAAAA2AAAAAAAAAAAAA2AAAAAA2A42AAAAAAA
AAAAAAAAAAAA2I2AAAAAAAAAAAAAAAAA2AAAAAAAAAAAAA2AAAAAA2A22AAAAAAA
AAAAAAAAAAAA2I2AAAAIAAAAAAAAAAAA2AAAAAAAAAAAAA2AAAAAA2A22AAAAAAA
AAAAAAAAAAAA242AAAA4AAAAAAAAAAAA2AAAAAAAAAAAAA2AAAAAA2A22AAAAAAA
AAAAAAAAAAAA242AAAAAAAAAAAAAAAAA2AAAAAAAAAAAAA2AAAAAA2A22AAAAAAA
AAAAAAAAAAAA2A2AAAAAAAAAAAAAAAAA2AAAAAAAAAAAAA2AAAAAA2A22AAAAAAA
AAAAAAAAAAAA2A2AAAAAAAAAAAAAAAAA2AAAAAAAAAAAAAAAAAAAA2A22AAAAAAA
AAAAAAAAAAAA2A2AAAAAAAAAAAAAAAAA2AAAAAAAAAAAAAIAAAAAA2A22AAAAAAA
AAAAAAAAAAAA2I2AAAAAAAAAAAAAAAAA2AAAAAAAAAAAAAIAAAAAA2A22AAAAAAA
AAAAAAAAAAAA2I2AAAAAAAAAAAAAAAAA2AAAAAAAAAAIAAIAAAAAA2A22AAAAAAA
AAAAAAAAAAAA2I2AAAAAAAAAAAAAAAAA2AAAAAAAIAAIAAIAAAAAA2A22AAAAAAA
AAAAAAAAAAAA2I2AAAAAAAAAAAAAAAAA2AAAAAAA4AAIAAIAAAAAA2A22AAAAAAA
AAAAAAAAAAAA2I2AAAAAAAAAAAAAAAAA2AAAAAAA2AAIAA4AAAAAA2A22AAAAAAA
AAAAAAAAAAAA2I2AAAAAAAAAAAAAAAAA2AAAAAAA2AAIAAAAAAAAA2A22AAAAAAA
AAAAAAAAAAAA222AAAAAAAAAAAAAAAAA2AAAAAAA2AAIAAAAAAAAA2A22AAAAAAA
AAAAAAAAAAAA222AAAAAAAAAAAAAAAAA2AAAAAAAIAAIAAAAAAAAA2A22AAAAAAA
AAAAAAAAAAAA222AAAAAAAAAAAAAAAAA2AAAAAAAAAA2AAAAAAAAA2A22AAAAAAA
AAAAAAAAAAAA222AAAAIAAAAAAAAAAAA2AAAAAAAAAA2AAAAAAAAA2A22AAAAAAA
AAAAAAAAAAAA222AAAA4AAAAAAAAAAAA2AAAAAAAAAA2AAAAAAAAA2A22AAAAAAA
AAAAAAAAAAAA222AAAA4AAAAAAAAAAAA2AAAAAAAAAA2IAAAAAAAA2A22AAAAAAA
AAAAAAAAAAAA222AAAA4AAAAAAAAAAAA2AAAAAAAAAAIIAAAAAAAA2A22AAAAAAA
AAAAAAAAAAAA222AAAA4AAAAAAAAAAAA2AAAAAAAAAAI4AAAAAAAA2A22AAAAAAA
AAAAAAAAAAAA222AAAA4AAAAAAAAAAAA2AAAAAAAAAAIAAAAAAAAA2A22AAAAAAA
AAAAAAAAAAAA222AAAA4AAAAAAAAAAAA2AAAAAAAAAAIAAAAAAAAA2AA2AAAAAAA
AAAAAAAAAAAA222AAAA4AAAAAAAAAAAA2AAAAAAAAAA4AAAAAAAAA2AA2AAAAAAA
AAAAAAAAAAAA222AAAA4AAAAAAAIAAAA2AAAAAAAAAA4AAAAAAAAA2AA2AAAAAAA
AAAAAAAAAAAA222AAAA4AAAAAAAIAAAA2AAAAAAAAAA2AAAAAAAAA2AA2AAAAAAA
AAAAAAAAAAAA222AAAA4AAAAAAAIAAAA2AAAAAAAAAAAAAAAAAAAA2AA2AAAAAAA
AAAAAAAAAAAA222AAAA4AAAAAIAIAAAA2AAAAAAAAAAAAAAAAAAAA2AA2AAAAAAA
AAAAAAAAAAAA222AAAA4AAAAAIAAAAAA2AAAAAAAAAAAAAAAAAAAA2AA2AAAAAAA
AAAAAAAAAAAA222AAAA4AAAAAIAAAAAA2AAAAAAAAAAAAAAAAAAAA2AI2AAAAAAA
AAAAAAAAAAAA222AAAA4AAAAAIAAAAAA2AAAAAAIAAAAAAAAAAAAA2AI2AAAAAAA
AAAAAAAAAAAA222AAAA4AAAAA2AAAAAA2AAAAAAIAAAAAAAAAAAAA2AI2AAAAAAA
AAAAAAAAAAAA222AAAA4AAAAA2AAAAAA2AAAAAA2AAAAAAAAAAAAA2AI2AAAAAAA
AAAAAAAAAAAA222AAAA4AIAAA2AAAAAA2AAAAAA2AAAAAAAAAAAAA2AI2AAAAAAA
AAAAAAAAAAAA222AAAA4AIAAA2AAAIAA2AAAAAA2AAAAAAAAAAAAA2AI2AAAAAAA
AAAAAAAAAAAA222AAAA4AIAAAIAAAIAA2AAAAAA2AAAAAAAAAAAAA2AI2AAAAAAA
AAAAAAAAAAAA222AAAA4AIAAAIAAAIAA2AAAAAAIAAAAAAAAAAAAA2AI2AAAAAAA
AAAAAAAAAAAA222AAAA4AIAAAIAAAIAA2AAAAAAIAAAAAAAAAAAAA2A22AAAAAAA
AAAAAAAAAAAA222AAAA4AIAAA2AAA4AA2AAAAAAIAAAAAAAAAAAAA2A22AAAAAAA
AAAAAAAAAAAA222AAAAAAIAAA2AAA4AA2AAAAAAIAAAAAAAAAAAAA2A22AAAAAAA
AAAAAAAAAAAA222AAAAAAIAAA2AAA4AA2AAAAAAIAAAAAAAAIAAAA2A22AAAAAAA
AAAAAAAAAAAA222AAAAAA4AAA2AAA4AA2AAAAAAIAAAAAAAAIAAAA2A22AAAAAAA
AAAAAAAAAAAA222AAAAAA4AAA2AAAAAA2AAAAAA4AAAAAAAAIAAAA2A22AAAAAAA
AAAAAAAAAAAA222AAAAAA2AAA2AAAAAA2AAAAAA4AAAAAAAAIAAAA2A22AAAAAAA
AAAAAAAAAAAA222AAAAAA2AAA2AAAAAA2AAAAAA4AAAAAAAAIAAAAAA22AAAAAAA
AAAAAAAAAAAA222AAAAAA2AAA2AAAAIA2AAAAAA4AAAAAAAAIAAAAAA22AAAAAAA
AAAAAAAAAAAA2A2AAAAAA2AAA2AAAAIA2AAAAAA4AAAAAAAAIAAAAAA22AAAAAAA
AAAAAAAAAAAA2A2AAAAAA2AAA2AAAAIA2AAAAAA4AAAAAAAA2AAAAAA22AAAAAAA
AAAAAAAAAAAA2A2AAAAAA2AAA2AAAA4A2AAAAAA4AAAAAAAA2AAAAAA22AAAAAAA
AAAAAAAAAAAA2A2AAAAAA2AAA2AAAAAA2AAAAAA4AAAAAAAA2AAAAAA22AAAAAAA
AAAAAAAAAAAA2A2AAAAAA2AAA2AAAAAA2AAAAAA2AAAAAAAA2AAAAAA22AAAAAAA
AAAAAAAAAAAA2I2AAAAAA2AAA2AAAAAA2AAAAAA2AAAAAAAA2AAAAAA22AAAAAAA
AAAAAAAAAAAA2I2AAAAAA2AAA2AAAAAA2AAIAAA2AAAAAAAA2AAAAAA22AAAAAAA
AAAAAAAAAAAA2I2AAAAAA2AAA2AAAAAA2AA4AAA2AAAAAAAA2AAAAAA22AAAAAAA
AAAAAAAAAAAA2I2AAAAAA2AAA2AAAAAA2AA2AAA2AAAAAAAA2AAAAAA22AAAAAAA
AAAAAAAAAAAA242AAAAAA2AAA2AAAAAA2AA2AAA2AAAAAAAA2AAAAAA22AAAAAAA
AAAAAAIAAAAA242AAAAAA2AAA2AAAAAA2AA2AAA2AAAAAAAA2AAAAAA22AAAAAAA
AAAAAAIAAAAA242AAAAAA2AAA2AAAAAA2AA2IAA2AAAAAAAA2AAAAAA22AAAAAAA
AAAAAAAAAAAA222AAAAAA2AAA2AAAAAA2AA2IAA2AAAAAAAA2AAAAAA22AAAAAAA
AAAAAAAAAAAA222AAAAAA2AAAAAAAAAA2AA24AA2AAAAAAAA2AAAAAA22AAAAAAA
AAAAAAAAAAAA222AAAAAA2AAAAAAAAAA2AA22AA2AAAAAAAA2AAAAAA22AAAAAAA
AAAAAAAAAAAA222AAAAIA2AAAAAAAAAA2AA22AA2AAAAAAAA2AAAAAA22AAAAAAA
AAAAAAAAAAAA222AAAAIA2AAAAAAAAAA2AA22AA2AAAAAAIA2AAAAAA22AAAAAAA
AAAAAAAAAAAA222AAAAIA2AAAAAAAAAA2AA2IAA2AAAAAAIA2AAAAAA22AAAAAAA
AAAAAAAAAAAA222AAAAIA2AAAAAAAAAA2AA24AA2AAAAAAIA2AAAAAA22AAAAAAA
AAAAAAAAAAAA222AAAAIA2AAAAAIAAAA2AA24AA2AAAAAAIA2AAAAAA22AAAAAAA
AAAAAAAAAAAA222AAAAAA2AAAAA4AAAA2AA24AA2AAAAAAIA2AAAAAA22AAAAAAA
AAAAAAAAAAAA2A2AAAAAA2AAAAA4AAAA2AA24AA2AAAAAAIA2AAAAAA22AAAAAAA
AAAAAAAAAAAA2A2AAAAAA2AAAAA2AAAA2AA24AA2AAAAAAIA2AAAAAA22AAAAAAA
AAAAAAAAAAAA2A2AAAAAA2AAAAAAAAAA2AA22AA2AAAAAAIA2AAAAAA22AAAAAAA
AAAAAAAAAAAA2A2AAAAAA2AAAAAAAAAA2AA22AA2AAAAAA4A2AAAAAA22AAAAAAA
AAAAAAAAAAAA2A2AAAAAA2AAAAAAAAAA2AA22AA2AAAAAA2A2AAAAAA22AAAAAAA
AAAAAAAAAAAA2A2AAAAAA2AAAAAAAAAA2AA22AA2AAAAAAAA2AAAAAA22AAAAAAA
AAAAAAAAAAAA2A2AAAAAA2AAAAAAAAAA2AA22AA2AAAAAAAA2AAAAAA2AAAAAAAA
AAAAAAAAAAAA2A2AAAAAA2AAAAAIAAAA2AA22AA2AAAAAAAA2AAAAAA2AAAAAAAA
AAAAAAAAAAAA2A2AAAAAA2AAAAAIAAAA2IA22AA2AAAAAAAA2AAAAAA2AAAAAAAA
AAAAAAAAAAAA2A2AAAAAA2AAAAA4AAAA2IA22AA2AAAAAAAA2AAAAAA2AAAAAAAA
AAAAAAAAAAAA2A2AAAAAA2AAAAA2AAAA24A22AA2AAAAAAAA2AAAAAA2AAAAAAAA
AAAAAAAAAAAA2A2AAAAAA2AAIAA2AAAA24A22AA2AAAAAAAA2AAAAAA2AAAAAAAA
AAAAAAAAAAAA2A2AAAAAA2AAIAAAAAAA22A22AA2AAAAAAAA2AAAAAA2AAAAAAAA
AAAIAAAAAAAA2A2AAAAAA2AAIAAAAAAA22A22AA2AAAAAAAA2AAAAAA2AAAAAAAA
AAAIAAAAAAAA2A2AAAAAA2AAIAAAAAAA22A2AAA2AAAAAAAA2AAAAAA2AAAAAAAA
AAAAAAAAAAAA2A2AAAAAA2AAIAAAAAAA22A2AAA2AAAAAAAA2AAAAAA2AAAAAAAA
AAAAAAAAAAAA2A2AAAAAA2AAIAAIAAAA22A2AAA2AAAAAAAA2AAAAAA2AAAAAAAA
AAAAAAAAAAAA2A2AAAAAA2AAIAAIAAAA22AAAAA2AAAAAAAA2AAAAAA2AAAAAAAA
AAAAAAIAAAAA2A2AAAAAA2AAIAAIAAAA22AAAAA2AAAAAAAA2AAAAAA2AAAAAAAA
AAAAAA2AAAAA2A2AAAAAA2AAIAAIAAAA22AAAAA2AAAAAAAA2AAAAAA2AAAAAAAA
AAAAAA2AAAAA2A2AAAAAA2AA2AA4AAAA22AAAAA2AAAAAAAA2AAAAAA2AAAAAAAA
AAAAAAAAAAAA2A2AAAAAA2AA2AA4AAAA22AAAAA2AAAAAAAA2AAAAAA2AAAAAAAA
AAAAAAAAAAAA2A2AAAAAA2AAIAA4AAAA22AAAAA2AAAAAAAA2AAAAAA2AAAAAAAA
AAAAAAAAAAAA2A2AAAAAA2AAIAA4AAAA22AAAAA2AAAAAAAA2AAAAAAAAAAAAAAA
AAAAAAAAAAAA2A2AAAAAA2AAIAI4AAAA22AAAAA2AAAAAAAA2AAAAAAAAAAAAAAA
AAAAAAAAAAAA2A2AAAAAA2AAIAIAAAAA22AAAAA2AAAAAAAA2AAAAAAAAAAAAAAA
AAAAAAAAAAAA2A2AAAAAA2AAIA4AAAAA22AAAAA2AAAAAAAA2AAAAAAAAAAAAAAA
AAAAAAAAAAAA2A2AAAAAA2AA2A4AAAAA22AAAAA2AAAAAAAA2AAAAAAAAAAAAAAA
AAAAAAAAAAAA2A2AAAAAA2AA2A4AAAAA22AAAAA2AAAAAAAAAAAAAAAAAAAAAAAA
AAAAAAAAAAAA2A2AAAAAA2AA2AAAAAAA22AAAAA2AAAAAAAAAAAAAAAAAAAAAAAA
AAAAAAAAAAAA2A2AAAAAA2AAIAAAAAAA22AAAAA2AAAAAAAAAAAAAAAAAAAAAAAA
AAAAAAAAAAAA2A2AAAAAA2AAIAAIAAAA22AAAAA2AAAAAAAAAAAAAAAAAAAAAAAA
AAAAAAAAAAAA2A2AAAAAA2AAIAAAAAAA22AAAAA2AAAAAAAAAAAAAAAAAAAAAAAA
AAAAAAAAAAAAAA2AAAAAA2AAIAAAAAAA22AAAAA2AAAAAAAAAAAAAAAAAAAAAAAA
AAAAAAAAAAAAAA2AAAAAA2AA4AAAAAAA22AAAAA2AAAAAAAAAAAAAAAAAAAAAAAA
AAAAAAAAAAAAAI2AAAAAA2AA4AAAAAAA22AAAAA2AAAAAAAAAAAAAAAAAAAAAAAA
AAAAAAAAAAAAAI2AAAAIA2AA4AAAAAAA22AAAAA2AAAAAAAAAAAAAAAAAAAAAAAA
AAAAAAAAAAAAAI2AAAAIA2AA4AAAAAAA22AAAAA2AAAAAAAAAAAAAAAAAAIAAAAA
AAAAAAAAAAAAAI2AAAAIA2AA4AAAAAAA22AAAAA2AAIAAAAAAAAAAAAAAAIAAAAA
AAAAAAAAAAAAAI2AAAA4A2AA4AAAAAAA22AAAAA2AAIAAAAAAAAAAAAAAAIAAAAA
AAAAAAAAAAAAA22AAAA2A2AA4AAAAAAA22AAAAA2AAIAAAAAAAAAAAAAAAIAAAAA
AAAAAAAAAAAAA22AAAA2A2AA4AAAAAAA22AAAAA2AAIAAAAAAAAAAAAAAA4AAAAA
AAAAAAAAAAAAA22AAAAIA2AA4AAAAAAA22AAAAA2AAIAAAAAAAAAAAAAAA4AAAAA
AAAAAAAAAAAAA22AAAAIA2AA4AAAAAAA22AAAAA2AAIAAAAAAIAAAAAAAA4AAAAA
AAAAAAAAAAAAA22AAAAIA2AA4AAAAAAA22AAAAA2AA4AAAAAAIAAAAAAAA4AAAAA
AAAAAAAAAAAAA22AAAAIA2AA4AAAAAAA22AAAAA2AA4AAAAAAIAAAAAAAA2AAAAA
AAAAAAAAAAAAA22AAAAIA2AA4AAAAAAA22AAAAA2AA4AAAAAAIAAAAAAAAAAAAAA
AAAAAAAAAAAAA22AAAAIA2AA4AAAAAAA22AAAAA2AA4AAAAAAIAAAAIAAAAAAAAA
AAAAAAAAAAAAA22AAAAAA2AA2AAAAAAA22AAAAA2AA4AAAAAAIAAAAIAAAAAAAAA
AAAAAAAAAAAAA22AAAAAA2AA2AAIAAAA22AAAAA2AA4AAAAAAIAAAAIAAAAAAAAA
AAAAAAAAAAAAA22AAAAAA2AA2AAIAAAA22AAAAA2AA4AAAAAAIAAAAIAAAAAAAIA
AAAAAAAAAAAAA22AAAAAA2AA2AAIAAAA22AAAAA2AA4AAAAAAIAAAAIAAAAAAIIA
AAAAAAAAAAAAA22AAAAAA2AA2AAIAAAA22AAAAA2AA4AAAAAAIAAAA4AAAAAAI4A
AAAAAAAAAAAAA22AAAAAA2AA2AAIAAAA22AAAAA2AA4AAAAAA4AAAA4AAAAAAI4A
AAAAAAAAAAAAA22AAAAAA2AA2AAIAAAA22AAAAA2AA4AAAAAAAAAAA4AAAAAA44A
AAAAAAAAAAAAA22AAAAAA2AA2AAAAAAA22AAAAA2AA4AAAAAAAAAAA4AAAAAA44A
AAAAAAAAAAAAA22AAAAAA2AA2AAAAAAA22AAAAA2AA4AAAAAAAAAAA4AAAAAA4AA
AAAAAAAAAAAAA22IAAAAA2AA2AAAAAAA22AAAAA2AA4AAAAAAAAAAA4AAAAAA4AA
AAAAAAAAAAAAA22IAAAAA2AA2AAIAAAA22AAAAA2AA4AAAAAAAAAAA4AAAAAA4AA
AAAAAAAAAAAAA22IAAAAA2AA2AA2AAAA22AAAAA2AA4AAAAAAAAAAA4AAAAAA4AA
AAAAAAAAAAAAA22IAAAAA2AA2AA2AAAA22AAAAA2AA4AAAAAAAAAAA2AAAAAA4AA
AAAAAAAAAAAAA22IAAAAA2AA2AA2AAAA22AAAAA2AA2AAAAAAAAAAA2AAAAAA4AA
AAAAAAAAAAAAA22IAAAAA2AA2AA2AAAA22AAAAA2AA2AAAAAAAAAAA2AAAAAA4IA
AAAAAAAAAAAAA22IAAAAA2AA2AA2AAAA22AAAAA2AA2AAAAAAAAAAA2AAAAAA4AA
AAAAAAAAAAAAA22IAAAAA2AA2AA2AAAA22AAAAA2AA2AAAAAAAAIAA2AAAAAA4AA
AAAAAAAAAAAAA22IAAAAA2AA2AA2AAAA22AAAAA2AA2AAAAAAAAIAAIAAAAAA4AA
AAAAAAAAAAAAA22IAAAAA2AA2AA2AAAA22AAAAA2AAAAAAAAAAA4AA4AAAAAA4AA
AAAAAAAAAAAAA22IAAAAA2AA2AA2AAAA22AAAAA2AAAAAAAAAAA2AA2AAAAAA4AA
AAAAAAAAAAAAA224AAAAA2AA2AA2AAAA22AAAAA2AAAAAAAAAAA2AA2AAAAAA4AA
AAAAAAAAAAAAA222AAAAA2AA2AA2AAAA22AAAAA2AAAAAAAAAAA2AA2AAAAAA4AA
AAAAAAAAAAAAA22AAAAAA2AA2AA2AAAA22AAAAA2AAAAAAAAAAA2AA2AAAAAA4AA
AAAAAAAAAAAAA22AAAAAA2AA2AAAAAAA22AAAAA2AAAAAAAAAAA2AA2AAAAAA4AA
AAAAAAAAAIAAA22AAAAAA2AA2AAAAAAA22AAAAA2AAAAAAAAAAA2AA2AAAAAA4AA
AAAAAAAAA2AAA22AAAAAA2AA2AAAAAAA22AAAAA2AAAAAAAAAAA2AA2AAAAAA4AA
AAAAAAAAA2AAA22AAAAAA2AA2AAAAAAA22AAAAA2AAAAAAAAAAA2AA2AAAAAA2AA
AAAAAAAAA2AAA22AAAAAA2AA2AAAAAAAA2AAAAA2AAAAAAAAAAA2AA2AAAAAA2AA
AAAAAAAAA2AAA2AAAAAAA2AA2AAAAAAAA2AAAAA2AAAAAAAAAAA2AA2AAAAAA2AA
AAAAAAAAA2AAA2AAAAAAAAAA2AAAAAAAA2AAAAA2AAAAAAAAAAA2AA2AAAAAA2AA
AAAAAAAAA2AAA2AAAAAAAIAA2AAAAAAAA2AAAAA2AAAAAAAAAAA2AA2AAAAAA2AA
AAAAAAAAA2AAA2AAAAAAA2AA2AAAAAAAA2AAAAA2AAAAAAAAAAA2AA2AAAAAA2AA
AAAAAAAAA2AAA2AAAAAAA2AA2AAAAAAAA2AAAAA2AAAAAAIAAAA2AA2AAAAAA2AA
AAAAAAAAA2AAA2AAAAAAA2AA2AAAAAAAA2AAAAA2AAAAAAAAAAA2AA2AAAAAA2AA
AAAAAAAAA2AAA2AAAAAAA2AA2AAAAAAAA2AAAAA2AAAAIAAAAAA2AA2AAAAAA2AA
AAAAAAAAA2AAA2AAAAAAA2AA2AAAAAAAA2AAAAA2AAAA2AAAAAA2AA2AAAAAA2AA
AAAAAAAAA2AAA2AAAAAAA2AA2AAAAAAAA2AAAAA2AAAA2AAAAIA2AA2AAAAAA2AA
AAAAAAAAAAAAA2AAAAAAA2AA2AAAAAAAA2AAAAA2AAAA2AAAAIA2AA2AAAAAA2AA
AAAAAAAAAAAAA2AAAAAAA2AA2AAAAAAAA2AAAAA2AAAA2AIAAIA2AA2AAAAAA2AA
AAAAAAAAAAAAA2AAAAAAA2AA2AAAAAAAA2AAAAA2AAAA2A4AAIA2AA2AAAAAA2AA
AAAAAAAAAAAAA2AAAAAAA2AA2AAAAAAAA2AAAAA2AAAA2AAAA2A2AA2AAAAAA2AA
AAAAAAAAAAAAA2AAAAAAAAAA2AAAAAAAA2AAAAA2AAAA2AAAA2A2AA2AAAAAA2AA
AAAAAAAAAAAAA2AAAAAAAAAA2AAAAAAAA2AAAAA2AAAA2AAAA2A2AA2AAAAAAAAA
AAAAAAIAAAAAA2AAAAAAAAAA2AAAAAAAA2AAAAA2AAAA2AAAA2A2AA2AAAAAAAAA
AAAAAAIAAAAAA2AAAAAAAAAA2AAAAAAAA2AAAAA2AAAA2AAAA2A2AA2AAAAAAAIA
AAAAAAIAAAAAA2AAAAAAAAAA2AAAAAAAA2AAAAA2AAAA2AAAA2A2AA2AAAAAAAAA
AAAAAAIAAAAAA2AAAAAAAAAA2AAAAAAAA2AAAAA2AIAA2AAAA2A2AA2AAAAAAAAA
AAAAAAIAAAAAAAAAAAAAAAAA2AAAAAAAA2AAAAA2AIAA2AAAA2A2AA2AAAAAAAAA
AAAAAA2AAAAAAAAAAAAAAAAA2AAAAAAAA2AAAAA2AIAA2AAAA2A2AA2AAAAAAAAA
AAAAAA2AAAAAAAAAAAAAAAAA2AAAAAAAA2AAAAA2A4AA2AAAA2A2AA2AAAAAAAAA
AAAAAA2AAAAAAAAAAAAAAAAA2AAAAAAAA2AAAAA2A4AA2AAAA2A2AAAAAAAAAAAA
AAAAAA2AAIAAAAAAAAAAAAAA2AAAAAAAA2AAAAA2A4AA2AAAA2A2AAAAAAAAAAAA
AAAAAA2AA2AAAAAAAAAAAAAA2AAAAAAAA2AAAAA2A4AA2AAAA2A2AAAAAAAAAAAA
AAAAAAAAA2AAAAAAAAAAAAAA2AAAAAAAA2AAAAA2A4AA2AAAA2A2AAAAAAAAAAAA
AAAAAAAAA2AAAAAAAAAAAAAA2AAAAAAAA2AAAAA2AAAA2AAAA2A2AAAAAAAAAAAA
AAAAAAAAA2AAAAAAAAAAAAAA2AAAAAAAA2AAAAA2AAAA2AAAA2AAAAAAAAAAAAAA
AAAAAAAAA2AAAAAAAAAAAAAA2AAAAAAAA2AAAAA2AAAA2AAAA2AAAAAAAAAAAAIA
AAAAAAAAA2AAAAAAAAAAAAAA2AAAAAAAA2AAAAA2AAAA2AAAA2AAAAAAAAAAAA4A
AAAAAAAAA2AAAAAAAAAAAAAA2AAAAAAAA2AAAAA2AAAI2AAAA2AAAAAAAAAAAA4A
AAAAAAAAA2AAAAAAAAAAAAAA2AAAAAAAA2AAAAA2AAA42AAAA2AAAAAAAAAAAA4A
AAAAAAAAA2AAAAAAAAAAAAAA2AAAAAAAA2AAIAA2AAA42AAAA2AAAAAAAAAAAA4A
AAAAAAAAA2AAAAAAAAAAAAAA2AAAAAAAA2AAAAA2AAA22AAAA2AAAAAAAAAAAA4A
AAAAAAAAA2AAAAAAAAAAAAAA2AAAAAAAA2AAAAA2AAA22IAAA2AAAAAAAAAAAA4A
AAAAAAAAA2AAAAAAAAAAAAAA2AAAAAAAA2AAAAA2AAA22IAAA2AAAAAAAAAAAA2A
AAAAAAAAA2AAAAAAAAAAAAAA2AAAAAAAA2AAAAA2AAA22IAAA2AAAAAAIAAAAA2A
AAAAAAAAA2AAAAAAAAAAAAAA2AAAAAAAA2AAAAA2AAA224AAA2AAAAAAIAAAAA2A
AAAAAAAAA2AAAAAAAAAAAAAA2AAAAAAAA2AAAAA2AAAA22AAA2AAAAAAIAAAAA2A
AAAAAAAAA2AAAAAAAAAAAAAA2AAAAAAAA2AAAAA2AAAA22AAAAAAAAAA2AAAAA2A
AAAAAAAAA2AAAAAAAAAAAAAA2AAAAAAAA2IAAAA2AAAA22AAAAAAAAAA2AAAAA2A
AAAAAAAAA2AAAAAAAAAAAAAA2AAAAAAAA2IAAAA2AAAA22AAAAAAAAAAAAAAAA2A
AAAAAAAAA2AAAAAAAAAAAAAA2AAAAAAAA2IAAAA2AAAA22IAAAAAAAAAAAAAAA2A
AAAAAAAAA2AAAAAAAAAAAAAA2AAIAAAAA2IAAAA2AAAA22IAAAAAAAAAAAAAAA2A
AAAAAAAAA2AAAAAAAAAAAAAA2AA4AAAAA2IAAAA2AAAA22IAAAAAAAAAAAAAAA2A
AAAAAAAAA2AAAAAAAAAAAAAA2AA4AAAAA24AAAA2AAAA22IAAAAAAAAAAAAAAA2A
AAAAAAAAA2AAAAAAAAAAAAAA2AAAAAAAA22AAAA2AAAA22IAAAAAAAAAAAAAAA2A
AAAAAAAAA2AAAAAAAAAAAAAA2AAAAAAAA22AAAA2AAAA2A2AAAAAAAAAAAAAAA2A
AAAAAAAAA2AAAAAAAAAAAAAA2AAAAAAAA22AAAA2AAAA2I2AAAAAAAAAAAAAAA2A
AAAAAAAAA2AAAAAAAAAAAAAA2AAAAAAAA22AAAA2AAAA242AAAAAAAAAAAAAAA2A
AAAAAAAAA2AAAAAAAAAAAAAA2AAAAAAAA22AAAA2AAAA242AAAAAAAAAAAAAAAAA
AAAAAAAAA2AAAAAAAAAAAAAA2AAAAAAAI22AAAA2AAAA242AAAAAAAAAAAAAAAAA
AAAAAAAAAAAAAAAAAAAAAAAA2AAAAAAAI22AAAA2AAAA242AAAAAAAAAAAAAAAAA
AAAAAAAAAAAAAAAAAAAAAAAA2AAAAAAAI22AAAI2AAAA242AAAAAAAAAAAAAAAAA
AAAAAAAAAAAAAAAAAAAAAAAA2AAAAAAAI22AAA22AAAA222AAAAAAAAAAAAAAAAA
AAAAAAAAAAAAAAAAAAAAAAAA2AAAAAAA222AAA22AAAA222AAAAAAAAAAAAAAAAA
AAAAAAAAAIAAAAAAAAAAAAAA2AAAAAAA222AAA22AAAA222AAAAAAAAAAAAAAAAA
AAAAAAAAAIAAAAAAAAAAAAAA2AAAAAAA222AAA22AAAAA22AAAAAAAAAAAAAAAAA
AAAAAAAAAIAAAAAAAAAAAAAA2AAAAAAA222AAAA2AAAAA22AAAAAAAAAAAAAAAAA
AAAAAAAAAIAAAAAAAAAIAAAA2AAAAAAA222AAAA2AAAAA22AAAAAAAAAAAAAAAAA
AAAAAAAAAIAAAAAAAAAIAIAA2AAAAAAA222AAAA2AAAAA22AAAAAAAAAAAAAAAAA
AAAAAAAAAIAAAAAAAAAIAIAA2AAAAAAA222AAAI2AAAAA22AAAAAAAAAAAAAAAAA
AAAAAAAAAAAAAAAAAAA4AIAA2AAAAAAA222AAAI2AAAAA22AAAAAAAAAAAAAAAAA
AAAAAAAAAAAAAAAAAAA4AIAA2AAAAAAA222AAA42AAAAA22AAAAAAAAAAAAAAAAA
AAAAAAAAAAAAAAAAAAA2A2AA2AAAAAAA222AAA42AAAAA22AAAAAAAAAAAAAAAAA
AAAAAAAAAAAAAAAAAAA2A2AA2AAAAAAA222AAA42AAAAA2AAAAAAAAAAAAAAAAAA
AAAAAAAAAAAAAAAAAAA2A2AA2AAAAAAA222AAA42AAAAAAAAAAAAAAAAAAAAAAAA
AAAAAAAAAAAAAAAAAAAAA2AA2AAAAAAA222AAA42AAAAAAAAAAAAAAAAAAAAAAAA
AAAAAAAAAAAAAAAAAAAAA2AA2AAAAAAA222AAA42AAAAAAIAAAAAAAAAAAAAAAAA
AAAAAAAAAAAAAAAAAAAAA2AA2AAAAAAA222AAA42AAAAAAAAAAAAAAAAAAAAAAAA
AAAAAAAAAAAAAAAAAAAAA2AA2AAAAAAA222AAA42AAAAAAAAAAAAAAAAAAAAAAIA
AAAAAAAAAAAAAAAAAAAAA2AA2AAAAAAA222AAA42AAAAAAAAAAAAAAAAAAAAAA2A
AAAAAAAAAAAAAAAAAAAAA2AA2AAAAAAA222AAA42AAAAAAAAAAAAAAAAAAAAAAAA
AAAAAAAAAAAAAAAAAAAAA2AA2AAAAAAA222AAA22AAAAAAAAAAAAAAAAAAAAAAAA
AAAAAAAAAAAAAAAAAAAAA2AA2AAAAAAA222AAA22AAAAIAAAAAAAAAAAAAAAAAAA
AAAAAAAAAAAAAAAAAAAAA2AA2AAAAAAA222AAA22AAAAIAAAAAAAAAAAAAIAAAAA
AAAAAAAAAAAAAAAAAAAAA2AA2AAAAAAA2A2AAA22AAAA4AAAAAAAAAAAAAIAAAAA
AAAAAAAAAAAAAAAAAAAAA2AA2AAAAAAA2A2AAA22AAAA4AAAAAAAAAAAAA4AAAAA
AAAAAAIAAAAAAAAAAAAAA2AA2AAAAAAA2A2AAA22AAAA4AAAAAAAAAAAAA4AAAAA
AAAAAAIAAAAAAAAAAAAAA2AA2AAAAAAA2I2AAA22AAAA4AAAAAAAAAAAAA4AAAAA
AAAAAAAAAAAAAAAAAAAAA2AA2AAAAAAA2I2AAA22AAAA4AAAAAAAAAAAAA4AAAAA
AAAAAAAAAAAAAAAAAAAAA2AA2AAAAAAA2I2AAA22AAAA4AAAAAAAAAAAAA2AAAAA
AAAAAIAAAAAAAAAAAAAAA2AA2AAAAAAA2I2AAA22AAAA4AAAAAAAAAAAAA2AAAAA
AAAAAAAAAAAAAAAAAAAAA2AA2AAAAAAA2I2AAA22AAAA4AAAAAAAAAAAAA2AAAAA
AAAAAAAAAAAAAAAAAAAAA2AA2AAAAAAA222AAA22AAAA4AAAAAAAAAAAAA2AAAAA
AAAAAAAAAAAIAAAAAAAAA2AA2AAAAAAA222AAA22AAAA4AAAAAAAAAAAAA2AAAAA
AAAAAAAAAAAIAAAAAAAAA2AA2AAAAAAA222AAA22AAAA4AIAAAAAAAAAAA2AAAAA
AAAAAAAAAAAIAAAAAAAAA2AA2AAAAAAA2I2AAA22AAAA4AIAAAAAAAAAAA2AAAAA
AAAAAAAAAAAIAAAAAAAAA2AA2AAAAAAA2I2AAA22AAAA4A4AAAAAAAAAAA2AAAAA
AAAAAAAAAAA2AAAAAAAAA2AA2AAAAAAA2I2AAA22AAAA4A4AAAAAAAAAAA2AAAAA
AAAAAAAAAAA2AAAAAAAAA2AA2AAAAAAA222AAA22AAAA4A4AAAAAAAAAAA2AAAAA
AAAAAAAAAAA2AAAAAAAAA2AA2AAAAAAA2I2AAA22AAAA4A4AAAAAAAAAAA2AAAAA
AAAAAAAAAAA2AAAAAAAAA2AA2AAAAAAA2I2AAA22AAAA4A4AAAAAAAAAAA2AAAIA
AAAAAAAAAAA2AAAAAAAAA2AA2AAAAAAA222AAA22AAAA4A4AAAAAAAAAAA2AAAIA
AAAAAAAAAAA2AAAAAAAAA2AA2AAAAAAA222AAA22AAAA4A4AAAAAAAAAAA2AAA2A
AAAAAAAAAAA2AAAAAAAAA2AA2AAAAAAA2I2AAA22AAAA4A4AAAAAAAAAAA2AAA2A
AAAAAAAAAAA2AAAAAAAAA2AA2AAAAAAA2I2AAA22AAAA4A4AAAAAAAAAAA2AAAAA
AAAAAAAAAAA2AAAAAAAAA2AA2AAAAAAA2I2AAA22AAAA4A4AAAAAAAAAAAAAAAAA
AAAAAAAAAAA2AAAAAAAAA2AA2AAAAAAA2I2AAA22AAAA4A4AAAAAAAAAAAAAAIAA
AAAAAAAAAAA2AAAAAAAAA2AA2AAAAAAA222AAA22AAAA4A4AAAAAAAAAAAAAAIAA
AAAAAAAAAAAAAAAAAAAAA2AA2AAAAAAA222AAA22AAAA4A4AAAAAAAAAAAAAAIAA
AAAAAAAAAAAAAAAAAAAAA2AA2AAAAAAA222AAA22AAAA4A2AAAAAAAAAAAAAA4AA
AAAAAAAAAAAAAAAAAAAAA2AA2AAAAAAA222AAA22AAAA4A2AAAAAAAAAAAAAA2AA
AAAAAAAAAIAAAAAAAAAAA2AA2AAAAAAA222AAA22AAAA4A2AAAAAAAAAAAAAA2AA
AAAAAAAAAIAAAAAAAAAAA2AA2AAAAAAA222AAA22AAAA4AIAAAAAAAAAAAAAA2AA
AAAAAAAAAIAAAAAAAAAAA2AA2AAAAAAA222AAA22AAAAAA2AAAAAAAAAAAAAA2AA
AAAAAAAAAIAAAAAAAAAAA2AA2AAAAAAA222AAA22AAAAAA2AAAAAAAAAAAAAAAAA
AAAAAAAAAIAAAAAAAAAAA2AA2AAAAAAA222AAA22AAAAIA2AAAAAAAAAAAAAAAAA
AAAAAAAAA2AAAAAAAAAAA2AA2AAAAAAA222AAA22AAAAIA2AAAAAAAAAAAAAAAAA
AAAAAAAAAIAAAAAAAAAAA2AA2AAAAAAA222AAA22AAAAIA2AAAAAAAAAAAAAAAAA
AAAAAAAAAIAAAAAAAAAAAAAA2AAAAAAA222AAA22AAAAIA2AAAAAAAAAAAAAAAAA
AAAAAAAAAIAAAAAAAAAAAAAA2AAAAAAA222AAA22AAAA2A2AAAAAAAAAAAAAAAAA
AAAAAAAAAIAAAAAAAAAAAAAA2AAAAAAA222AAA22AAAA2AAAAAAAAAAAAAAAAAAA
AAAAAAAAAIAAAAAAAAAAAAAA2AAAAAAA222AAA22AAAAAAAAAAAAAAAAAAAAAAAA
AAAAAAAAA2AAAAAAAAAAAAAA2AAAAAAA222AAA22AAAAAAAAAAAAAAAAAAAAAAAA
AAAAAAAAA2AAAAAAAAAAAAAA2AAAAAAA222AAA22AAAAAAAAAAAAAAAAAAAAAAIA
AAAAAAAAA2AAAAAAAAAAAAAAAAAAAAAA222AAA22AAAAAAAAAAAAAAAAAAAAAAIA
AAAAAAAAA2AAAAAAAAAAAAAAAAAAAAAA222AAA22AAAAAAAAAAAAAAAAAAAAAA4A
AAAAAAAAA2AAAAAAAAAAAAAAAAAAAAAA222AAA22AAAAAAAAAAAAAAAAAAAAAA2A
AAAAAAAAA2AAAAAAAAAAAAAAAAAAAAAA222AAA22AAAAAAIAAAAAAAAAAAAAAA2A
AAAAAAAAA2AAAAAAAAAAAAAAAAAAAAAA222AAA22AAAAAA4AAAAAAAAAAAAAAA2A
AAAAAAAAA2AAAAAAAAAAAAAAAAAAAAAA222AAA22AAAAAA2AAAAAAAAAAAAAAA2A
AAAAAAAAA2AAAAAAAAAAAAAAAAAAAAAA2A2AAA22AAAAAA2AAAAAAAAAAAAAAA2A
AAAAAAAAA2AAAAAAAAAAAAAAAAAAAAAA2A2AAA22AAAAAAAAAAAAAAAAAAAAAA2A
AAAAAAAAA2AAAAAAAAAAAAAAAAAAAAAA2A2AAA22AAAAAAAAAAAAAAAAIAAAAA2A
AAAAAAAAAAAAAAAAAAAAAAAAAAAAAAAA2A2AAA22AAAAAAAAAAAAAAAAIAAAAA2A
AAAAAAAAAAAAAAAAAAAAAAAAAAAAAAAA2A2AAA22AAAAAAIAAAAAAAAAIAAAAA2A
AAAAAAAAAAAAAAAAAAAAAAAAAAAAAAAA2A2AAA22AAAAAAIAAAAAAAAAIAAAAAAA
AAAAAAAAAAAAAAAAAAAAAAAAAAAAAAAA2A2AAA22AAAAAAAAAAAAAAAA4AAAAAAA
AAAAAAAAAAAAAAAAAAAAAAAAAAAAAAAA2A2AAA22AAAAAAAAAAAAAAAA2AAAAAAA
AAAAAAAAAAAAAAAAAAAAAAAAAAAIAAAA2A2AAA22AAAAAAAAAAAAAAAA2AAAAAAA
AAAAAAAAAAAAAAAAAAAIAAAAAAAIAAAA2A2AAA22AAAAAAAAAAAAAAAA2AAAAAAA
AAAAAAAAAAAAAAAAAAAIAAAAAAAIAAAA2A2AAA22AAAIAAAAAAAAAAAA2AAAAAAA
AAAAAAAAAAAAAAAAAAAIAAAAAAAIAAAA2A2AAA22AAAIAAAAAAAAAAAA2AAAAAIA
AAAAAAAAAAAAAAAAAAAIAAAAAAAIAAAA2A2AAA22AAA2AAAAAAAAAAAA2AAAAAIA
AAAAAAAAAAAAAAAAAAA4AAAAAAAIAAAA2A2AAA22AAA2AAAAAAAAAAAA2AAAAAIA
AAAAAAAAAAAAAAAAAAA4AAAAAAAIAAAA2A2AAA22AAA2AAAAAAAAAAAA2AAAAA2A
AAAAAIAAAAAAAAAAAAA4AAAAAAAIAAAA2A2AAA22AAA2AAAAAAAAAAAA2AAAAA2A
AAAAAIAAAAAAAAAAAAA4AAAAAAAAAAAA2A2AAA22AAA2AAAAAAAAAAAA2AAAAA2A
AAAAA2AAAAAAAAAAAAA4AAAAAAAAAAAA2A2AAA22AAA2AAAAAAAAAAAA2AAAAA2A
AAAAA2AAAAAAAAAAAAA4AAAAAAAAAAAA2A2AAA22AAA2AAAAAAAAAAAA2AAAAAAA
AAAAA2AAAAAAAAAAAAA4AAAAAAAAAAAA2A2AAA22AAI2AAAAAAAAAAAA2AAAAAAA
AAAAA2AAAAAAAAAAAAA4AAAAAAAAAAAA2A2AAA22AAI2AAAAAAAAAAAA2AAAIAAA
AAAAAAAAAAAAAAAAAAA4AAAAAAAAAAAA2A2AAA22AAI2AAAAAAAAAAAA2AAAIAAA
AAAAAAAAAAAAAAAAAAAAAAAAAAAAAAAA2A2AAA22AAI2AAAAAAAAAAAA2AAAIAAA
AAAAAAAAAAAAAAAAAAAAAAAAAAAAAAAA2A2AAA22AAI2AAAAAAAAAAAAAAAAIAAA
AAAAAAAAAAAAAAAAAAAAAAAAAAAAAAAA2A2AAA22AAI2AAAAAAAAAAAAAAAA4AAA
AAAAAAAAAAAAAAAAAAAAAAAAAAAAAAAA2A2AAA22AA22AAAAAAAAAAAAAAAA4AAA
AAAAAIAAAAAAAAAAAAAAAAAAAAAAAAAA2A2AAA22AA22AAAAAAAAAAAAAAAA4AAA
AAAAAIAAAAAAAAAAAAAAAAAAAAAAAAAA2A2AAA22AA22AAAAAAAAAAAAIAAA4AAA
AAAAAIAAAAAAAAAAAAAAAAAAAAAAAAAA2A2AAA22AA22AAAAAAAAAAAA2AAA4AAA
AAAAAIAAAAAAAAAAAAAAAAAAAAAAAAAA2A2AAA22AA22AAAAAAAAAAAA2AAAAAAA
AAAAAAAAAAAAAAAAAAAAAAAAAAAAAAAA2A2AAA22AA22AAAAAAAAAAAA2AAAAAAA
AAAAAAAAAAAAAAAAAAAAAAAAAAAAAAAA2A2AAAA2AA22AAAAAAAAAAAA2AAAAAAA
AAAAAAAAAAAAAAAAAAAAAAAAAAAAAAAA2A2AAAA2AA22AAAAAAAAAAAAAAAAAAAA
AAAAAAAAAAAAAAAAIAAAAAAAAAAAAAAA2A2AAAA2AA22AAAAAAAAAAAAAAAAAAAA
AAAAAAAAIAAAAAAAIAAAAAAAAAAAAAAA2A2AAAA2AA22AAAAAAAAAAAAAAAAAAAA
AAAAAAAAIAAAAAAAIAAAAAAAAAAAAAAA2A2AAAA2AA2AAAAAAAAAAAAAAAAAAAAA
AAAAAAAAIAAAAAAAIAAAAAAAAAAAAAAA2A2AAAA2AAAAAAAAAAAAAAAAAAAAAAAA
AAAAAAAAIAAAAAAAIAAAAAAAAAAAAAAA2A2AAAA2AAAIAAAAAAAAAAAAAAAAAAAA
AAAAAAAAIAAAAAAAIAAAAAAAAAAAAAAA2A2AAAA2AAIIAAAAAAAAAAAAAAAAAAAA
AAAAAAAAIAAAAAAA4AAAAAAAAAAAAAAA2A2AAAA2AAIIAAAAAAAAAAAAAAAAAAAA
AAAAAAAAIAAAAAAA4AAAAAAAAAAAAAAA2A2AAAA2AA44AAAAAAAAAAAAAAAAAAAA
AAAAAAAAIAAAAAAA4AAIAAAAAAAAAAAA2A2AAAA2AA44AAAAAAAAAAAAAAAAAAAA
AAAAAAAAIAAAAAAA4AAIAAAAAAAAAAAA2A2AAAA2AA44AAAAAAAAAAAAAAAAAAIA
AAAAAAAA2AAAAAAA4AA4AAAAAAAAAAAA2A2AAAA2AA44AAAAAAAAAAAAAAAAAAIA
AAAAAAAA2AAAAAAA4AA4AAAAAAAAAAAA2A2AAAA2AA44AAAAAAAAAAAAAAAAAAAA
AAAAAAAA2AAAAAAA4AA4AAAAAAAAIAAA2A2AAAA2AA44AAAAAAAAAAAAAAAAAAAA
AAAAAAIA2AAAAAAA4AA4AAAAAAAAIAAA2A2AAAA2AA44AAAAAAAAAAAAAAAAAAAA
AAAAAAIA2AAAAAAA4AA4AAAAAAAAAAAA2A2AAAA2AA44AAAAAAAAAAAAAAAAAAAA
AAAAAAAA2AAAAAAA4AA4AAAAAAAAAAAA2A2AAAA2AA44AAAAAAAAAAAAAAAAAAAA
AAAAAAAA2AAAAAAA2AA4AAAAAAAAAAAA2A2AAAA2AA44AAAAAAAAAAAAAAAAAAAA
AAAAAAAA2AAAAAAA2AAAAAAAAAAAAAAA2A2AAAA2AA44AAAAAAAAAAAAAAAAAAAA
AAAAAAAA2AAAAAAA2AAAAAAAAAAAAAAA2A2AAAA2AA44AAAAAAAAAAAAAAAAAAIA
AAAAAAAA2AAAAAAA2AAAAAAAAAAAAAAA2A2AAAA2AA44AAAAAAAAAAAAAAAAAA4A
AAAAAAAA2AAAAAAA2AAIAAAAAAAAAAAA2A2AAAA2AA44AAAAAAAAAAAAAAAAAA4A
AAAAAAAA2AAAAAAA2AAIAAAAAAAAAAAA2A2AAAA2AA4AAAAAAAAAAAAAAAAAAA4A
AAAAAAAA2AAAAAAA2AA2AAAAAAAAAAAA2A2AAAA2AA4AAAAAAAAAAAAAAAAAAA4A
AAAAAAAA2AAAAAAA2AA2AAAAAAAAAAAAAA2AAAA2AA4AAAAAAAAAAAAAAAAAAA4A
AAAAAAAA2AAAAAAA2AAAAAAAAAAAAAAAAA2AAAA2AA4AAAAAAAAAAAAAAAAAAA4A
AAAAAAAA2AAAAAAA2AAAAAAAAAAAAAAAAA2AAIA2AA4AAAAAAAAAAAAAAAAAAA4A
AAAAAAAA2AAAAAAA2AAAAAAAAAAAAAAAAA2AAIA2AA2AAAAAAAAAAAAAAAAAAA4A
AAAAAAIA2AAAAAAA2AAAAAAAAAAAAAAAAA2AAIA2AA2AAAAAAAAAAAAAAAAAAA4A
AAAAAAIA2AAAAAAA2AAAAAAAAAAAAAAAAA2AAIA2AI2AAAAAAAAAAAAAAAAAAA4A
AAAAAAIAAAAAAAAA2AAAAAAAAAAAAAAAAA2AAIA2AI2AAAAAAAAAAAAAAAAAAA4A
AAAAAAAAAAAAAAAA2AAAAAAAAAAAAAAAAA2AAIA2AI2AAAAAAAAAAAAAAAAAAA4A
AAAAAAAAAIAAAAAA2AAAAAAAAAAAAAAAAA2AAIA2AI2AAAAAAAAAAAAAAAAAAA4A
AAAAAAAAAIAAAAAA2AAAAAAAAAAAAAAAAA2AAIA2AI2AAAAAAAAAAAAAAAAAAA2A
AAAAAAIAAIAAAAAA2AAAAAAAAAAAAAAAAA2AAIA2AI2AAAAAAAAAAAAAAAAAAA2A
AAAAAAIAAAAAAAAA2AAAAAAAAAAAAAAAAA2AAIA2AI2AAAAAAAAAAAAAAAAAAA2A
AAAAAAAAAAAAAAAA2AAAAAAAAAAAAAAAAA2AAIA2AI2AAAAAAAAAAAAAAAAAAA2A
AAAAAAAAAAAAAAAA2AAAAAAAAAAAAAAAAA2AA4A2AI2AAAAAAAAAAAAAAAAAAA2A
AAAAAAAAAAAAAAAA2AAAAAAAAAAAAAAAAA2AA4A2AI2AAAIAAAAAAAAAAAAAAA2A
AAAAAAAAAAAAAAAA2AAAAAAAAAAAAAAAAA2AA2A2AI2AAA4AAAAAAAAAAAAAAA2A
AAAAAAAAAAAAAAAA2AAAAAAAAAAAAAAAAA2AA2A2AI2AAA4AAAAAAAAAAAIAAA2A
AAAAAAAAAAAAAAAA2AAAAAAAAAAAAAIAAA2AA2A2AI2AAA4AAAAAAAAAAAIAAA2A
AAAAAAAAAAAAAAAA2AAAAAAAAAAAAA4AAA2AA2A2AI2AAA4AAAAAAAAAAAIAAA2A
AAAAAAAAAAAAAAAA2AAAAAAAAAAAAA2AAA2AA2A2AI2AAA4AAAAAAAAAAAIAAA2A
AAAAAAAAAAAAAAAA2AAAAAAAAAAAAAAAAA2AA2A2A42AAA4AAAAAAAAAAAIAAA2A
AAAAAAAAAAAAAAAA2AAAAAAAAAAAAAAAAA2AA2A2A4AAAA2AAAAAAAAAAA4AAA2A
AAAAAAAAAAAAAAAA2AAAAAAAAAAAAAAAAA2AA2A2A4AAAA2AAAAAAAAAAA2AAA2A
AAAAAAAAAAAAAAAA2AAAAAAAAAAAAAAAAA2AA2A2A4AAAA2AAAAAAAAAAA2AAAAA
AAAAAAAAAAAAAAAA2AAAAAAAAAAAAAAAAA2AA2A2A4IAAA2AAAAAAAAAAA2AAAAA
AAAAAAAAAAAAAAAA2AAAAAAAAAAAAAAAAAAAA2A2A22AAA2AAAAAAAAAAA2AAAAA
AAAAAAAAAAAAAAAA2AAAAAAAAAAAAAAAAAAAA2A2A22IAA2AAAAAAAAAAA2AAAAA
AAAAAAAAAAAAAAAA2AAAAAAAAAAAAAAAAAAAA2A2A2A2AA2AAAAAAAAAAA2AAAAA
AAAAAAAAAAAAAAAAAAAAAAAAAAAAAAAAAAAAA2A2A2A2AA2AAAAAAAAAAA2AAAAA
AAAAAAAAAAAAAAAAAAAAAAAAAAAAAAAAAAAAA2A2A2I2AA2AAAAAAAAAAA2AAAAA
AAAAAAAAAAAAAAAAAAAAAAAAAAAAAAAAAAAAA2A2A242AA2AAAAAAAAAAA2AAAAA
AAAAAAAAAAAAAAAAAAAAAAAAAAAIAAAAAAAAA2A2A242AA2AAAAAAAAAAA2AAAAA
AAAAAAAAAAAAAAAAAAAAAAAAAAA4AAAAAAAAA2A2A242AA2AAAAAAAAAAA2AAAAA
AAAAAAAAAAAAAAAAAAAAAAAAAAA2AAAAAAAAA2A2A242AA2AAAAAAAAAAA2AAAAA
AAAAAAIAAAAAAAAAAAAAAAAAAAA2AAAAAAAAA2A2A242AA2AAAAAAAAAAA2AAAAA
AAAAAAIAAAAAAAAAAAAAAAAAAAA2AAAAAAAAA2A2A242AA2AAAAAAIAAAA2AAAAA
AAAAAAIAAAAAAAAAAAAAAAAAAAA2AAAAAAAAA2A2A24AAA2AAAAAA4AAAA2AAAAA
AAAAAAIAAAAAAAAAAAAAAAAAAAA2AAAAAAAAA2A2A22AAA2AAAAAA4AAAA2AAAAA
AAAAAAAAAAAAAAAAAAAAAAAAAAA2AAAAAAAAA2A2A22AAA2AAAAAA4AAAA2AAAAA
AAAAAAAAAAAAAAAAAAAAAAAAAAA2AAAAAAAAA2A2A2AAAA2AAAAAA4AAAA2AAAAA
AAAAAAAAAAAAAAAAAAAAAAAAAAA2AAAAAAAAA2A2A2AAAA2AAAAAA4AAAAAAAAAA
AAAAAAIAAAAAAAAAAAAAAAAAAAA2AAAAAAAAA2A2A2AAAA2AAAAAA4AAAAAAAAAA
AAAAAAIAAAAAAAAAAAAAAAAAAAA2AAAAAAAAA2A2I2AAAA2AAAAAA4AAAAAAAAAA
AAAAAAIAAAAAAAAAAAAAAAAAAAA2AAAAAAAAA2A2I2AAAI2AAAAAA4AAAAAAAAAA
AAAAAAIAAAAAAAAAAAAAAAAAAAA2AAAAAAAAA2A2I2AAAI2AAAAAA4AAAAAAAAIA
AAAAAAIAAAAAAAAAAAAAAAAAAAA2AAAAAAAAA2A2I2AAA22AAAAAA4AAAAAAAAIA
AAAAAAIAAAAAAAAAAAAAAAAAAAA2AAAAAAAAA2A242AAA22AAAAAA4AAAAAAAAIA
AAAAAAIAAAAAAAAAAAAAAAAAAAAAAAAAAAAAA2A242AAA22AAAAAA4AAAAAAAAIA
AAAAAAIAAAAAAAAAAAAAAAAAAAAAAAAAAAAAA2A222AAA22AAAAAA4AAAAAAAAIA
AAAAAAIAAAAAAAAAAAAAAAAAAAAAAAAAAAAAA2AA22AAA22AAAAAA4AAAAAAAAIA
AAAAAAIAAAAAAAAAAAAAAAAAAAAAAAAAAAAAA2AA22AAA2AAAAAAA2AAAAAAAA4A
AAAAAAIAAAAAAAAAAAAAAAAAAAAAAAAAAAAAA2AA22AAA2AAAAAAA2AAAAAAAAAA
AAAAAAIAAAAAAAAAAAAAAAAAAAAAAAAAAAAAA2AA22AAA2AAAAAAA2AAAAAAAAIA
AAAAAAIAAAAAAAAAAAAAAAAAAAAAAAAAAAAAA2AA22AAAIAAAAAAA2AAAAAAAAIA
AAAAAAIAAAAAAAAAAIAAAAAAAAAAAAAAAAAAA2AA22AAAIAAAAAAA2AAAAAAAAIA
AAAAAAIAAAAAAAAAAIAAAAAAAAAAAAAAAAAIA2AA22AAAIAAAAAAA2AAAAAAAAIA
AAAAAA2AAAAAAAAAA4AAAAAAAAAAAAAAAAAIA2AA22AAAIAAAAAAA2AAAAAAAAIA
AAAAAA2AAAAAAAAAA4AAAAAAAAAAAAAAAAAIA2AA22AAA4AAAAAAA2AAAAAAAAIA
AAAAAAAAAAAAAAAAA4AAAAAAAAAAAAAAAAAIA2AA22AAA4AAAAAAA2AAAAAAAAIA
AAAAAAAAAAAAAAAAA4AAAAAAAAAAAAAAAAA4A2AA22AAA4AAAAAAA2AAAAAAAAIA
AAAAAAAAAAAAAAAAA4AIAAAAAAAAAAAAAAA4A2AA22AAA4AAAAAAA2AAAAAAAAIA
AAAAAAAAAAAAAAAAA4AAAAAAAAAAAAAAAAA4A2AA22AAA4AAAAAAA2AAAAAAAAIA
AAAAAAAAAAAAAAAAA4AAAAAAAAAAAAAAAAA4A2AA22AAA4AAAAAAA2AAAAAAAA2A
AAAAAAAAAAAAAAAAA4AAAAAAAAAAAAAAAAA4A2AA22AAA2AAAAAAA2AAAAAAAA2A
AAAAAAAAAAAAAAAAA4AAAAAAAAAAAAAAAAA4A2AA22AAA2AAAAAAAAAAAAAAAA2A
AAAAAAAAAAAAAAAAA4AAAAAAAAAAAAAAAAA4A2AA22AAA2AAAAAAAAAAIAAAAA2A
AAAAAAAAAAAAAAAAA4AAAAAAAAAAAAAAAAA4A2AAA2AAA2AAAAAAAAAA4AAAAA2A
AAAAAAAAAAAAAAAAA4AAAAAAAAAAAAAAAAA2A2AAA2AAA2AAAAAAAAAA4AAAAA2A
AAAAAAAAAAAAAAAAA4AAAAAAAAAAAAAAAAA2A2AAA2AAA2AAAAAAAAAA4AAAAAAA
AAAAAAAAAAAAAAAAA2AAAAAAAAAAAAAAAAA2A2AAA2AAA2AAAAAAAAAA4AAAAAAA
AAAAAAAAAAAAAAAAA2AAAAAAAAAAAAAAAAAIA2AAA2AAA2AAAAAAAAAA4AAAAAAA
AAAAAAAAAAAAAAAAA2AAAAAAAAAAAAAAAAAIA2AAA2AAA2AAAAAAAAAA2AAAAAAA
AAAAAAAAAAAAAAAAA2AAAAAAAAAAAAAAAAAIA2AAA2AAA2IAAAAAAAAA2AAAAAAA
AAAAAAAAAAAAAAAAA2AAAAAAAAAAAAAAAAAIA2AAA2AAA24AAAAAAAAA2AAAAAAA
AAAAAAIAAAAAAAAAA2AAAAAAAAAAAAAAAAAIA2AAA2AAA24AAAAAAAAA2AAAAAAA
AAAAAAIAAAAAAAAAA2AAAAAAAAAAAAAAAAAIA2AAAAAAA22AAAAAAAAA2AAAAAAA
AAAAAAIAAAAAAAAAAAAAAAAAAAAAAAAAAAA4A2AAAAAAA22AAAAAAAAA2AAAAAAA
AAAAAAIAAAAAAAAAAAAAAAAAAAAAAAAAAAAAA2AAAAAAA22AAAAAAAAA2AAAAAAA
AAAAAAIAAAAAAAAAIAAAAAAAAAAAAAAAAAAAA2AAAAAAA22AAAAAAAAA2AAAAAAA
AAAAAA2AAAAAAAAA4AAAAAAAAAAAAAAAAAAAA2AAAAAAA22AAAAAAAAA2AAAAAAA
AAAAAA2AAAAAAAAA4IAAAAAAAAAAAAAAAAAAA2AAAAAAA22AAAAAAAAA2AAAAAAA
AAAAAAAAAAAAAAAA44AAAAAAAAAAAAAAAAAAA2AAAAAAA22AAAAAAAAA2AAAAAAA
AAAAAAAAAAAAAAAA44AAAAAAAAAAAAAAAAIAA2AAAAAAA22AAAAAAAAA2AAAAAAA
AAAAAAAAAAAAAAAA44AAAAAAAAAAAAAAAAIAA2AAAAIAA22AAAAAAAAA2AAAAAAA
AAAAAAAAAAAAAAAAA2AAAAAAAAAAAAAAAAIAA2AAAAIAA22AAAAAAAAA2AAAAAAA
AAAAAAAAAAAAAAAAA2AAAAIAAAAAAAAAAAIAA2AAAAIAA22AAAAAAAAA2AAAAAAA
AAAAAAAAAAAAAAAAA2AAAA2AAAAAAAAAAA4AA2AAAAIAA22AAAAAAAAA2AAAAAAA
AAAAAAAAAAAAAAAAA2AAAA2AAAAAAAAAAA4AA2AAAAIAA22AAAAAAAAA2AAAAAIA
AAAAAAAAAAAAAAAAAIAAAA2AAAAAAAAAAA4AA2AAAAIAA22AAAAAAAAA2AAAAAIA
AAAAAAAAAAAAAAAAAIAAAA2AAAAAAAAAAA4AA2AAAA2AA22AAAAAAAAA2AAAAAIA
AAAAAAAAAAAAAAAAAIAAAA2AAAAAAAAAAA4AA2AAAA2AA22AAAAAAAAA2AAAAA2A
AAAAAAAAAAAAAAAAAIAIAA2AAAAAAAAAAA4AA2AAAA2AA22AAAAAAAAA2AAAAA2A
AAAAAAAAAAAAAAAAAIAIAA2AAAAAAAAAAA2AA2AAAA2AA22AAAAAAAAA2AAAAA2A
AAAAAAAAAAAAAAAAAIAAAA2AAAAAAAAAAA2AA2AAAA2AA22AAAAAAAAA2AAAAA2A
AAAAAAAAAAAAAAAAAIAAAA2AAAAAAAAAAA2AA2AAAA2AA2AAAAAAAAAA2AAAAA2A
AAAAAAAAAAAAAAAAAIAAAA2AAAAAAAAAAA2AA2AAAA2AA2IAAAAAAAAA2AAAAA2A
AAAAAAAAAAAAAAAAAIAIAA2AAAAAAAAAAA2AA2AAAA2AA2IAAAAAAAAA2AAAAA2A
AAAAAAAAAAAAAAAAAIAIAA2AAAAAAAAAAA2AA2AAAA2AA2IAAAAAAAAA2IAAAA2A
AAAAAAAAAAAAAAAAAIAAAA2AAAAAAAAAAA2AA2AAAA2AA2IAAAAAAAAA2IAAAA2A
AAAAAAAAAAAAAAAAAIAAAA2AAAAAAAAAAA2AA2AAAA2AA22AAAAAAAAA2IAAAA2A
AAAAAAAAAAAAAAAAAIAAAA2AAAAAAAAAAA2AA2AAAA2AA22AAAAAAAAA2IAAAAAA
AAAAAIAAAAAAAAAAAIAAAA2AAAAAAAAAAA2AA2AAAA2AA22AAAAAAAAA2IAAAAAA
AAAAAIAAAAAAAAAAAIAAAA2AAAAAAAAAAA2AA2AAAA2AA22AAAAAAAAAAIAAAAAA
AAAAAIAAAAAAAAAAAIAIAA2AAAAAAAAAAA2AA2AAAA2AA22AAAAAAAAAAIAAAAAA
AAAAAIIAAAAAAAAAAIAIAA2AAAAAAAAAAA2AA2AAAA2AA22AAAAAAAAAAIAAAAAA
AAAAAIIAAAAAAAAAAIAIAA2AAAAAAAAAAA2AA2AAAA2AA2AAAAAAAAAAA4AAAAAA
AAAAAIIAAAAAAAAAAIAIAA2AAAAAAAAAAA2AA2AAAA2AA2AAAAAAAAAAA2AAAAAA
AAAAAIIAAAAAAAAAAIAIAA2AAAAAAAAAAA2AA2AAAA2AA2AAAAAAAAAAAIAAAAAA
AAAAAIIAAAAAAAAAAIAIAA2AAAAAAAAAAA2AA2AAAA2AA2AAAAAAAAAAA4AAAAAA
AAAAAAIAAAAAAAAAA4AIAA2AAAAAAAAAAA2AA2AAAA2AA2AAAAAAAAAAA4AAAAAA
AAAAAAIAAAAAAAAAA4AIAA2AAAAAAAAAAA2AA2AAAA2AA2AAAIAAAAAAA4AAAAAA
AAAAAAIAAAAAAAAAA2A2AA2AAAAAAAAAAA2AA2AAAA2AA2AAAIAAAAAAA4AAAAAA
AAAAAAAAAAAAAAAAA2A2AA2AAAAAAAAAAA2AA2AAAA2AA2AAAIAAAAAAA4AAAAAA
AAAAAAAAAAAAAAAAA2A2AA2AAAAAAAAAAA2AA2AAAA2AI2AAAIAAAAAAA4AAAAAA
AAAAAAAAAAAAAAAAA2A2AA2AAAAAAAAAAA2AA2AAAAAA22AAAIAAAAAAA4AAAAAA
AAAAAAAAAAAAAAAAA2A2AA2AAAAAAAAAAA2AA2AAAAAA22AAAIAIAAAAA4AAAAAA
AAAAAAAAAAAAAAAAA2A2AA2AAAAAAAAAAA2AA2AAAAAA22AAAIA4AAAAA4AAAAAA
AAAAAAAAAAAAAAAAA2A2AA2AAAAAAAAAAA2AA2AAAAIA22AAAIA4AAAAA4AAAAAA
AAAAAAAAAAAAAAAAA2AAAA2AAAAAAAAAAA2AA2AAAAIA22AAAIA4AAAAA4AAAAAA
AAAAAAAAAAAAAAAAA2AAAA2AAAAAAAAAAA2AA2AAAA2A22AAA4A4AAAAA4AAAAAA
AAAAAAAAAAAAAAAAA2AAAA2AAAAAAAAAAA2AA2AAAA2A22AAA2A2AAAAA4AAAAAA
AAAAAAAAAAAAAAAAA2AAAA2AAAAAAAAAAA2AA2AAAA2A22AAA2A2AAAAA2AAAAAA
AAAAAAAAAAAAAAAAA2AAAA2AAAAAIAAAAA2AA2AAAA2A22AAA2A2AAAAA2AAAAAA
AAAAAAAAAAAAAAAAA2AAAA2AAAAA4AAAAA2AA2AAAA2A22AAA2A2AAAAA2AAAAAA
AAAAAAAAAAAAAAAAA2AAAA2AAAAA4AAAAA2AA2AAAA2A22AAAAA2AAAAA2AAAAAA
AAAAAAAAAAAAAAAAI2AAAA2AAAAA4AAAAA2AA2AAAA2A22AAAAA2AAAAA2AAAAAA
AAAAAAAAAAAAAAAA42AAAA2AAAAA4AAAAA2AA2AAAA2A22AAAAA2AAAAA2AAAAAA
AAAAAAAAAAAAAAAA22AAAA2AAAAA4AAAAA2AA2AAAA2A22AAAAA2AAAAA2AAAAAA
AAAAAIAAAAAAAAAA22AAAA2AAAAA4AAAAA2AA2AAAA2A22AAAAA2AAAAA2AAAAAA
AAAAAIAAAAAIAAAA22AAAA2AAAAA4AAAAA2AA2AAAA2A22AAAAA2AAAAA2AAAAAA
AAAAAAAAAAA2AAAA22AAAA2AAAAA4AAAAA2AA2AAAA2A22AAAAA2AAAAA2AAAAAA
AAAAAAAAAAA2AAAA22AAAA2AAAAA4AAAAA2AA2AAIA2A22AAAAA2AAAAA2AAAAAA
AAAAAAAAAAA2AAAA22AAAA2AAAAA2AAAAA2AA2AA4A2A22AAAAA2AAAAA2AAAAAA
AAAAAAAAAAA2AAAAA2AAAA2AAAAA2AAAAA2AA2AA4A2A22AAAAA2AAAAA2AAAAAA
AAAAAAAAAAA2AAAAA2AAAA2AAAAAIAAAAA2AA2AA4A2A22AAAAA2AAAAA2AAAAAA
AAAAAAAAAAA2AAAAA2AAAA2AAAAA2AAAAA2AA2AA4A2A22AAAAA2AAAAA2AAAAAA
AAAAAAAAAAA2AAAAAAAAAA2AAAAA2AAAAA2AA2AA4A2A22AAAAA2AAAAA2AAAAAA
AAAAAAAAAAA2AAAAAAAAAA2AAAAA2AAAAA2AA2AA4AAA22AAAAA2AAAAA2AAAAAA
AAAAAAAAIAA2AAAAAAAAAA2AAAAA2AAAAA2AA2AA4AAA22AAAAA2AAAAA2AAAAAA
AAAAAAAAIAA2AAAAAAAAAA2AAAAA2AAAAA2AA2AA4AAA22IAAAA2AAAAA2AAAAAA
AAAAAAAA2AA2AAAAAAAAAA2AAAAA2AAAAA2AA2AA4AAA22IAAAA2AAAAA2AAAAAA
AAAAAAAA2AA2AAAAAAAAAA2AAAAA2AAAAA2AA2AA4AAA222AAAA2AAAAA2AAAAAA
AAAAAAAA2AA2AAAAAAAAAA2AAAAA2AAAAA2AA2AA4AAA22IAAAA2AAAAA2AAAAAA
AAAAAAIA2AA2AAAAAAAAAA2AAAAA2AAAAA2AA2AA4AAA22IAAAA2AAAAA2AAAAAA
AAAAAAAA2AA2AAAAAAAAAA2AAAAA2AAAAA2AA2AA4AAA22IAAAA2AAAAA2AAAAAA
AAAAAAAA2AA2AAAAAAAAAA2AAAAA2AAAAA2AA2AA4AAA2AIAAAA2AAAAA2AAAAAA
AAAAAAAA2AA2AAAAAAAAAA2AAAAA2AAAAA2AA2AA2AAA2A4AAAA2AAAAA2AAAAAA
AAAAAAIA2AA2AAAAAAAAAA2AAAAA2AAAAA2AA2AA2AAA2A4AAAA2AAAAA2AAAAAA
AAAAAAIA2AA2AAAAAAAAAA2AAAAA2AAAAA2AA2AA2AAA2I4AAAA2AAAAA2AAAAAA
AAAAAAAA2AA2AAAAAAAAAA2AAAAA2AAAAA2AA2AA2AAA2I4AAAA2AAAAA2AAAAAA
AAAAAAAA2AA2AAAAAAAAAA2AAAAA2AAAAA2AA2AAAAAA2I2AAAA2AAAAA2AAAAAA
AAAAAAAA2AA2AAAAAAAAAA2AAAAA2AAAAA2AA2AAAAAA242AAAA2AAAAA2AAAAAA
AAAAAAAA2AA2AAAAAAAAAA2AAAAA2AAAAA2AA2AAAAAAA42AAAA2AAAAA2AAAAAA
AAAAAAAA2AA2AAAAAAAAAA2AAAAA2AAAAA2AA2AAAAAAI42AAAA2AAAAA2AAAAAA
AAAAAAAA2AA2AAAAAAAAAA2AAAAA2AAAAA2AA2AAAAAAI42IAAA2AAAAA2AAAAAA
AAAAAAAA2AI2AAAAAAAAAA2AAAAA2AAAAA2AA2AAAAAAI42IAAA2AAAAA2AAAAAA
AAAAAAAA2AI2AAAAAAAAAA2AAAAA2AAAAA2AA2AAAAAAI422AAA2AAAAA2AAAAAA
AAAAAAAA2AI2AAAAAAAAAA2AAAAA2AAAAA2AA2AAAAAAI222AAA2AAAAA2AAAAAA
AAAAAAAA2AI2AAAAAAAAAA2AAAAA2AAAAA2AA2AAAAAAIA22AAA2AAAAA2AAAAAA
AAAAAAAA2AIAAAAAAAAAAA2AAAAA2AAAAA2AA2AAAAAAIA22AAA2AAAAA2AAAAAA
AAAAAAAA2AIAAAAAAAAAAA2AAAAA2AAAAA2AA2AAAAAAIAA2AAA2AAAAA2AAAAAA
AAAAAAAA2AIIAAAAAAAAAA2AAAAA2AAAAA2AA2AAAAAAIAA2AAA2AAAAA2AAAAAA
AAAAAIAA2AIIAAAAAAAAAA2AAAAA2AAAAA2AA2AAAAAAIAA2AAA2AAAAA2AAAAAA
AAAAAAAA2A22AAAAAAAAAA2AAAAA2AAAAA2AA2AAAAAAIAA2AAA2AAAAA2AAAAAA
AAAAAAAA2A22AAAAAAAAAA2AAAAA2AAAAA2AA2AAAAAA4AA2AAA2AAAAA2AAAAAA
AAAAAAAA2A22AAAAAAAAAA2AAAAA2AAAAA2AA2AAAAAA2AA2AAA2AAAAA2AAAAAA
AAAAAAAA2A22AAAAAAAAAA2AAAAA2AAAAA2AA2AAAAAAAAA2AAA2AAAAA2AAAAAA
AAAAAAAA2AI2AAAAAAAAAA2AAAAA2AAAAA2AA2AAAAAAAAA2AAA2AAAAA2AAAAAA
AAAAAAAA2A22AAAAAAAAAA2AAAAA2AAAAA2AA2AAAAAAAAA2AAA2AAAAA2AAAAAA
AAAAAAAA2AI2AAAAAAAAAA2AAAAA2AAAAA2AA2AAAAAAAAA2AAA2AAAAA2AAAAAA
AAAAAAAA2AI2AAAAAAAAAA2AAAAI2AAAAA2AA2AAAAAAAAA2AAA2AAAAA2AAAAAA
AAAAAAAA2AI2AAAAAAAAAA2AAAA22AAAAA2AA2AAAAAAAAA2AAA2AAAAA2AAAAAA
AAAAAAAA2AI2AAAAAAAAAA2AAAAA2AAAAA2AA2AAAAAAAAA2AAA2AAAAA2AAAAAA
AAAAAAAA2AI2AAAAAAAAIA2AAAAA2AAAAA2AA2AAAAAAAAA2AAA2AAAAA2AAAAAA
AAAAAAAA2A22AAAAAAAA4A2AAAAA2AAAAA2AA2AAAAAAAAA2AAA2AAAAA2AAAAAA
AAAAAAAA2A2AAAAAAAAA4A2AAAAA2AAAAA2AA2AAAAAAAAA2AAA2AAAAA2AAAAAA
AAAAAAAA2AIAAAAAAAAA4A2AAAAA2AAAAA2AA2AAAAAAAAA2AAA2AAAAA2AAAAAA
AAAAAAAA2AIAAAAAAAAA2A2AAAAA2AAAAA2AA2AAAAAAAAA2AAA2AAAAA2AAAAAA
AAAAAAAA2A2AAAAAAAAA2A2AAAAA2AAAAA2AA2AAAAAAAAA2AAA2AAAAA2AAAAAA
AAAAAAAA2A2AAAAAAAAA2A2AAAAA2AAAAA2AA2AIAAAAAAA2AAA2AAAAA2AAAAAA
AAAAAAAA2A2AAAAAAAAA2A2AAAAA2AIAAA2AA2AIAAAAAAA2AAA2AAAAA2AAAAAA
AAAAAAAA2A2AAAAAAAAA2A2AAAAA2A4AAA2AA2AIAAAAAAA2AAA2AAAAA2AAAAAA
AAAAAAAA2A2AAAAAAAAA2A2AAAAA2A4AAA2AA2A4AAAAAAA2AAA2AAAAA2AAAAAA
AAAAAAAA2A2AAAAAAAAI2A2AAAAA2A4AAA2AA2A4AAAAAAA2AAA2AAAAA2AAAAAA
AAAAAAAA2A2AAAAAAAA42A2AAAAA2A4AAA2AA2A4AAAAAAA2AAA2AAAAA2AAAAAA
AAAAAAAA2A2AAAAAAAA42A2AAAAA2A4AAA2AA2A4AAAAAAI2AAA2AAAAA2AAAAAA
AAAAAAAA2A2AAAAAAAA42A2AAAAA2A2AAA2AA2A4AAAAAAI2AAA2AAAAA2AAAAAA
AAAAAAAA2A2AAAAAAAAA2A2AAAAA2A2AAA2AA2A4AAAAAAI2AAA2AAAAA2AAAAAA
AAAAAAAA2A2AAAAAAAAA2A2AAAAA2A2AAA2AA2A4AAAAAA22AAA2AAAAA2AAAAAA
AAAAAAAA2A2AAAAAAAAA2A2AAAAA2A2AAA2AA2A4AAAAAAA2AAA2AAAAA2AAAAAA
AAAAAAAA2A2AAAAAAAAA2A2AAAAA2A2AAA2AA2A2AAAAAAA2AAA2AAAAA2AAAAAA
AAAAAAAA2A2AAAAAAAAI2A2AAAAA2A2AAA2AA2A2AAAAAAA2AAA2AAAAA2AAAAAA
AAAAAAAA2A2AAAAAAAAI2A2AAAAA2A2AAA2AA2A2AAAAAAA2AAA2AAAAA2AAAAIA
AAAAAAAA2A2AAAAAAAA42A2AAAAA2A2AAA2AA2A2AAAAAAA2AAA2AAAAA2AAAAIA
AAAAAAAA2A2AAAAAAAA42A2AAAAA2AAAAA2AA2A2AAAAAAA2AAA2AAAAA2AAAAIA
AAAAAAAA2A2AAAAAAAA42A2AAAAA2AAAAA2AA2A2AAAAAAA2AAA2AAAAA2AAAA4A
AAAAAAAA2A2AAAAAAAA42A2AAAAA2AAAAA2AA2A2AAAAAAA2AAA2AAAAA2AAAAAA
AAAAAAAA2A2AAAAAAAAA2A2AAAAA2AAAAA2AA2A2AAAAAAA2AAA2AAAAA2AAAAAA
AAAAAAIA2A2AAAAAAAAA2A2AAAAA2AAAAA2AA2A2AAAAAAA2AAA2AAAAA2AAAAAA
AAAAAAIA2A2AAAAAAAAA2A2AAAAA2AAAAA2AA2A2AAAAAAA2AAA2AIAAA2AAAAAA
AAAAAA2A2A2AAAAAAAAA2A2AAAAA2AAAAA2AA2A2AAAAAAA2AAA2AIAAA2AAAAAA
AAAAAA2A2A2AAAAAAAAA2A2AAAAA2AAIAA2AA2A2AAAAAAA2AAA2AIAAA2AAAAAA
AAAAAI2A2A2AAAAAAAAA2A2AAAAA2AAIAA2AA2A2AAAAAAA2AAA2AIAAA2AAAAAA
AAAAAIAA2A2AAAAAAAAA2A2AAAAA2AAIAA2AA2A2AAAAAAA2AAA2AIAAA2AAAAAA
AAAAAIAAAA2AAAAAAAAA2A2AAAAA2AAIAA2AA2A2AAAAAAA2AAA2AIAAA2AAAAAA
AAAAAIAAAA2AAAAAAAAA2A2AAAAA2AA4AA2AA2A2AAAAAAA2AAA2AIAAA2AAAAAA
AAAAAIAAAA2AAAAAAAAA2A2AAAAA2AA4AA2AA2A2AAAAAAA2AAA2A4AAA2AAAAAA
AAAAAIAAAA2AAAAAAAAA2A2AAAAA2AA4AA2AA2A2AAAAAAA2AAA2AAAAA2AAAAAA
AAAAAIAAAA2AAAAAAAAA2A2AAAAA2AA4AAAAA2A2AAAAAAA2AAA2AAAAA2AAAAAA
AAAAAIAAAA2AAAAAAAAA2A2AAAAA2AA4AAAAA2A2AAAAAAA2AAA2AAAAA2AAAIAA
AAAAAIAAAA2AAAAAAAAA2A2AAAAA2AA4AAAAA2A2AAAAAAA2AAA2AAAAA2AAA4AA
AAAAAIAAAA2AAAAAAAAA2A2AAAAA2AA4AAAAA2A2AAAAAAA2AAA2AAAAA2AAA2AA
AAAAAAAAAA2AAAAAAAAA2A2AAAAA2AA4AAAAA2A2AAAAAAA2AAA2AAAAA2AAA2AA
AAAAAAAAAA2AAAAAAAAA2A2AAAAA2AAAAAAAA2A2AAAAAAA2AAA2AAAAA2AAA2AA
AAAAAAAAAA2AAAAAAAAA2A2AAAAA2AAAAAAAA2A2AAAAAAA2AAAAAAAAA2AAA2AA
AAAAAAAAAA2AAAAAAAAA2A2AAAAA2AAIAAAAA2A2AAAAAAA2AAAAAAAAA2AAA2AA
AAAAAAAAAI2AAAAAAAAA2A2AAAAA2AAIAAAAA2A2AAAAAAA2AAAAAAAAA2AAA2AA
AAAAAAAAAI2AAAAAAAAA2A2AAAAA2AAIAAAAA2A2AAAAAAA2AAAIAAAAA2AAA2AA
AAAAAAAAAI2AAAAAAAAI2A2AAAAA2AAIAAAAA2A2AAAAAAA2AAAIAAAAA2AAA2AA
AAAAAAAAAI2AAAAAAAAA2A2AAAAA2AAIAAAAA2A2AAAAAAA2AAAIAAAAA2AAA2AA
AAAAAAAAAI2AAAAAAAAA2A2AAAAA2AAIAAAAA2A2AAAAAAA2AAAIAAAAA2IAA2AA
AAAAAAAAAI2AAAAAAAAA2A2AAAAA2AA4AAAAA2A2AAAAAAA2AAAIAAAAA2IAA2AA
AAAAAAAAA22AAAAAAAAA2A2AAAAA2AA4AAAAA2A2AAAAAAA2AAAIAAAAA2IAA2AA
AAAAAAAAAA2AAAAAAAAA2A2AAAAA2AA4AAAAA2A2AAAAAAA2AAAIAAAAA2IAA2AA
AAAAAAAAAA2AAAAAAAAA2A2AAAAA2AA4AAAAA2A2AAAAAAA2AAAIAAAAA22AA2AA
AAAAAAAAAA2AAAAAAAAA2A2AAAAA2AA4AAAAA2A2AAAAAAA2AAAIAAAAI22AA2AA
AAAAAAAAAA2AAAAAAAAA2A2AAAAA2AA4AAAAA2A2AAAAAAI2AAAIAAAAI22AA2AA
AAAAAAAAAA2AAAAAAAAA2A2AAAAA2AA4AAAAA2A2AAAAAAI2AAAIAAAA222AA2AA
AAAAAAAAAA2AAAAAAAAA2A2AAAAA2AA4AAAAA2A2AAAAAAI2AAIIAAAA222AA2AA
AAAAAAAAAA2AAAAAAAAA2A2AAAAA2AA4AAAAA2A2AAAAAAIAAA24AAAA222AA2AA
AAAAAAAAAA2AAAAAAAAA2A2AAAAA2AA4AAAAA2A2AAAAAA4AAA24AAAA222AA2AA
AAAAAAAAAA2AAAAAAAAA2A2AAAAA2AA4AAAAA2A2AAAAAA4IAA24AAAA222AA2AA
AAAAAAAAAA2AAAAAAAAA2A2AAAAA2AA4AAAAA2A2AAAAAA4IAAI4AAAA222AA2AA
AAAAAAAAAA2AAAAAAAAA2A2AAAAA2AA4AAAAA2A2AAAAAA4AAA22AAAA222AA2AA
AAAAAAAAAA2AAAAAAAAA2A2AAAAA2AA2AAAAA2A2AAAAAA4AAA22AAAA222AA2AA
AAAAAAAAAA2AAAAAAAAA2A2AAAAA2AA2AAAAA2A2AAAAAA4AAA22AAAAA22AA2AA
AAAAAAAAAA2AAAAAAAAA2A2AAAAA2AA2AAAAA2A2AAAAAA4IAA22AAAAA22AA2AA
AAAAAAAAAA2AAAAAAAAA2A2AAAAA2AA2AAAAA2A2AAAAAA22AA22AAAAA22AA2AA
AAAAAAAAAA2AAAAAAAAA2A2AAAAA2AA2AAAAA2A2AAAAAAI2AA22AAAAA22AA2AA
AAAAAAAAAA2AAAAAAAAA2A2AAAAA2AA2AAAAA2A2AIAAAAI2AA22AAAAA22AA2AA
AAAAAAAAAA2AAAAAAAAA2A2AAAAA2AA2AAAAA2A2AAAAAA22AA22AAAAA22AA2AA
AAAAAAAAAA2AAAAAAAAA2A2AAAAA2AA2AAAAA2AAAAAAAA22AA22AAAAA22AA2AA
AAAAAAAAAA2AAAAAAAAI2A2AAAAA2AA2AAAAA2AAAAAAAA22AA22AAAAA22AA2AA
AAAAAAAAAA2AAAAAAAAI2A2AAAAA2AA2AAAAA2AAAAAAAAI2AA22AAAAA22AA2AA
AAAAAAAAAA2AAAAAAAAI2A2AAAAA2AA2AAAAA2AAAAAAAAI2AA22AAAAA2AAA2AA
AAAAAAAAAA2AAAAAAAAI2A2AAAAA2AA2AAAAA2AAAAAAAA42AA22AAAAA2AAA2AA
AAAAAAAAAA2AAAAAAAAI2A2AAAAA2AA2AAAAA2AAAAAAAA22AA22AAAAA2AAA2AA
AAAAAAAAAA2AAAAAAAAI2A2AAAAA2AA2AAAAA2AAAAAAAAI2AA22AAAAA2AAA2AA
AAAAAAAAAA2AAAAAAAAA2A2AAAAA2AA2AAAAA2AAAAAAAAI2AA22AAAAA2AAA2AA
AAAAAAAAAA2AAAAAAAAA2A2AAAAA2AA2AAAAA2AAAAAAAA22AA22AAAAA2AAA2AA
AAAAAAAAAA2AAAAAAAAA2A2AAAAA2AA2AAAAA2AAAAAAAAI2AA22AAAAA2AAA2AA
AAAAAAAAAA2AAAAAAAAA2A2AAAAA2AA2AAAAA2AAAAAAAA22AA22AAAAA2AAA2AA
AAAAAAAAAA2AAAAAAAAA2A2AAAAA2AA2AAAAA2AAAAAAAA22AA22AAAAA2AAAAAA
AAAAAAAAAA2AAAAAAAAA2A2AAAAAAAA2AAAAA2AAAAAAAA22AA22AAAAA2AAAAAA
AAAAAAAAAA2AAAAAAAAA2A2AAAAAAAA2AAAAA2AAAAAAAA22AA22AAAAA2AAAAIA
AAAAAAAAAA2AAAAAAAAI2A2AAAAAAAA2AAAAA2AAAAAAAA22AA22AAAAA2AAAAIA
AAAAAAAAAA2AAAAAAAAI2A2AAAAAAAA2AAAAA2AAAAAAAI22AA22AAAAA2AAAAIA
AAAAAAAAAA2AAAAAAAAI2A2AAAAIAAA2AAAAA2AAAAAAAI22AA22AAAAA2AAAAIA
[...]
AAAAAAAAAAAAAAAIAA2AAAAAAAAAAAA2AA2AAAAAAAA2AAAAAAA22A2AAAAA2AAA
AAAAAAAAAAAAAAA2AA2AAAAAAAAAAAA2AA2AAAAAAAA2AAAAAAA22A2AAAAA2AAA
AAAAAIAAAAAAAAA2AA2AAAAAAAAAAAA2AA2AAAAAAAA2AAAAAAA22A2AAAAA2AAA
AAAAAAAAAAAAAAA2AA2AAAAAAAAAAAA2AA2AAAAAAAA2AAAAAAA22A2AAAAA2AAA
AAAAAAAAAAAAAAAAAA2AAAAAAAAAAAA2AA2AAAAAAAA2AAAAAAA22A2AAAAA2AAA
AAAAAAAAAAAAAAAAAA2AAAAAIAAAAAA2AA2AAAAAAAA2AAAAAAA22A2AAAAA2AAA
AAAAAAAAAAAAAAAAAA2AAAAAIAAAAAA2AA2AAAAAAAA2AIAAAAA22A2AAAAA2AAA
AAAAAAAAAAAAAAAAAA2AAAAA4AAAAAA2AA2AAAAAAAA2AIAAAAA22A2AAAAA2AAA
AAAAAIAAAAAAAAAAAA2AAAAA4AAAAAA2AA2AAAAAAAA2AIAAAAA22A2AAAAA2AAA
AAAAAIIAAAAAAAAAAA2AAAAA4AAAAAA2AA2AAAAAAAA2AIAAAAA22A2AAAAA2AAA
AAAAAIIAAAAAAAAAAA2AAAAA4AAAAAA2AA2AAAAAAAA2A2AAAAA22A2AAAAA2AAA
AAAAAIIAAAAAAAAAAAAAAAAA2AAAAAA2AA2AAAAAAAA2A2AAAAA22A2AAAAA2AAA
AAAAAIIAAAAAAAAAAAAAAAAA2AAAAAA2AA2AAAAAAAA2A2AAAAA22AAAAAAA2AAA
AAAAAIIAAAAAAAAAAAAAAAAA2AAAAAA2AA2AAAAAAAI2A2AAAAA22AAAAAAA2AAA
AAAAAIIAAAAAAAAAAAAAAAAA2AAAAAA2AA2AAAAAAAI2A2AAAAA22AIAAAAA2AAA
AAAAA22AAAAAAAAAAAAAAAAA2AAAAAA2AA2AAAAAAAI2A2AAAAA22AIAAAAA2AAA
AAAAA2AAAAAAAAAAAAAAAAAA2AAAAAA2AA2AAAAAAAI2A2AAAAA22AIAAAAA2AAA
AAAAA2AAAAAAAAAAAAAAAAAA2AAAAAA2AA2AAAAAAAI2AAAAAAA22A4AAAAA2AAA
AAAAA2AAAAAAAAAAAAAIAAAA2AAAAAA2AA2AAAAAAAI2AAAAAAA22A4AAAAA2AAA
AAAAA2AAAAAAAAAAAAAAAAAA2AAAAAA2AA2AAAAAAAI2AAAAAAA22A4AAAAA2AAA
AAAAA2AAAIAAAAAAAAAAAAAA2AAAAAA2AA2AAAAAAAI2AAAAAAA22A4AAAAA2AAA
AAAAA2AAAIAAAAAAAAAAAAAA2AAAAAA2AA2AAAAAAA22AAAAAAA22A4AAAAA2AAA
AAAAA2AAAIAAAAAAAAAAAAAA2AAAAAA2AA2AAAAAIA22AAAAAAA22A4AAAAA2AAA
AAAAA2AAA2AAAAAAAAAAAAAA2AAAAAA2AA2AAAAAIA22AAAAAAA22A4AAAAA2AAA
AAAAA2AAA2AAAAAAAAAAAAAA2AAAAAI2AA2AAAAAIA22AAAAAAA22A4AAAAA2AAA
AAAAA2AAA2AAAAAAAAAAAAAA2AAAAA42AA2AAAAAIA22AAAAAAA22A4AAAAA2AAA
AAAAA2AAA2AAAAAAAAAAAAAA2AAAAA22AA2AAAAA4A22AAAAAAA22A4AAAAA2AAA
AAAAA2AAAAAAAAAAAAAAAAAA2AAAAA22AA2AAAAA4A22AAAAAAA22A4AAAAA2AAA
AAAAA2AAAAAAAAAAAAAAAAAA2AAAAA22AA2AAAAA2A22AAAAAAA22A4AAAAA2AAA
AAAAA2AAAAAAAAAAAAAAAAAA2AAAAA22AA2AAAAAAA22AAAAAAA22A4AAAAA2AAA
AAAAA2AAAAAAAAAAAAAAAAAA2AAAAA22AA2AAAAAAA22AAAAAAA2AA2AAAAA2AAA
AAAAI2AAAAAAAAAAAAAAAAAA2AAAAA22AA2AAAAAAA22AAAAAAA2AA2AAAAA2AAA
AAAAI2AAAAAAAAAAAAAAAAAA2AAAAA22AA2AAAAAAA22AAAAAAA2IA2AAAAA2AAA
AAAAI2AAAAAAAAAAAAAAAAAA2AAAAA22AA2AAAAAAA22AAAAAAA2IA2AAAAA2AIA
AAAAI2AAAAAAAAAAAAAAAAAA2AAAAA22AA2AAAAAIA22AAAAAAA2IA2AAAAA2AIA
AAAAI2AAAAAAAAAAAAAAAAAA2AAAAAA2AA2AAAAAIA22AAAAAAA2IA2AAAAA2AIA
AAAAI2AAAAAAAAAAAAAAAAAA2AAAAAA2AA2AAAAAIA22AAAAAAA22A2AAAAA2AIA
AAAAI2AAAAAAAAAAAAAAAAAA2AAAAAA2AA2AAAAAIA22AAAAAAA2IA2AAAAA2AIA
AAAAI2AAAAAAAAAAAAAAAAAA2AAAAAA2AA2AAAAAIA22AAAAAAA22A2AAAAA2AIA
AAAAI2AAAAAAAAAAAAAAAAAA2AAAAAA2AA2AAAAAIA22AAAAAAA22A2AAAAA2AAA
AAAAIAAAAAAAAAAAAAAAAAAA2AAAAAA2AA2AAAAAIA22AAAAAAA22A2AAAAA2AAA
AAAAIAAAAAAAAAAAAAAAAAAA2AAAAAA2AA2AAAAA4A22AAAAAAA22A2AAAAA2AAA
AAAAIAAAAAAAAAAAAAAAAAAA2AAAAAAAAA2AAAAA4A22AAAAAAA22A2AAAAA2AAA
AAAAIAIAAAAAAAAAAAAAAAAA2AAAAAAAAA2AAAAA4A22AAAAAAA22A2AAAAA2AAA
AAAAIAIAAAAAAIAAAAAAAAAA2AAAAAAAAA2AAAAA4A22AAAAAAA22A2AAAAA2AAA
AAAAIAIAAAAAAIAAAAAAAAAA2AAAAAAAAA2AAAAA4AA2AAAAAAA22A2AAAAA2AAA
AAAAIAIAAAAAAIAAAAAAAAAA2AAAAAAAAA2AAAAA4AAAAAAAAAA22A2AAAAA2AAA
AAAAIA2AAAAAA4AAAAAAAAAA2AAAAAAAAA2AAAAA4AAAAAAAAAA22A2AAAAA2AAA
AAAAIAAAAAAAA4AAAAAAAAAA2AAAAAAAAA2AAAAA4AAAAAAAAAA22A2AAAAA2AAA
AAAAIAAAAAAAA4AAAAAAAAAA2AAAAAAAAA2AAAAA2AAAAAAAAAA22A2AAAAA2AAA
AAAAIAAAAAAAA4AAAAAAAAAA2AAAAAAAAA2AAAAAAAAAAAAAAAA22A2AAAAA2AAA
AAAAIAAAAAAAA4AAAAAAAAAA2AAAAAAAAA2AAAAAAIAAAAAAAAA22A2AAAAA2AAA
AAAAIAAAAAAAAAAAAAAAAAAA2AAAAAAAAA2AAAAAAIAAAAAAAAA22A2AAAAA2AAA
AAAAIAAAAAAAAAAAAAAAAAAA2AAAAAAAAA2AAAAAAAAAAAAAAAA22A2AAAAA2AAA
AAAA2AAAAAAAAAAAAAAAAAAA2AAAAAAAAA2AAAAAAAAAAAAAAAA22A2AAAAA2AAA
AAAA2AAAAAAAAAAAAAAAAAAA2AAAAAAAAA2AAAAAAIAAAAAAAAA22A2AAAAA2AAA
AAAA2AAAAAAAAAAAAAAAAAAA2AAAAAAAAA2AAAAAA2AAAAAAAAA22A2AAAAA2AAA
AAAA2IAAAAAAAAAAAAAAAAAA2AAAAAAAAA2AAAAAA2AAAAAAAAA22A2AAAAA2AAA
AAAA2IAAAAAAAAAAAAAAAAAA2AAAAAAAAA2AAAAAAIAAAAAAAAA22A2AAAAA2AAA
AAAA2IAAAAAAAAAAAAAAAAAA2AAAAAAAAA2AAAAAA4AAAAAAAAA22A2AAAAA2AAA
AAAA2AAAAAAAAAAAAAAAAAAA2AAAAAAAAA2AAAAAA4AAAAAAAAA22A2AAAAA2AAA
AAAA2AAAAAAAAAAAAAAAAAAA2AAAAAAAAA2AAAAAA2AAAAAAAAA22A2AAAAA2AAA
AAAA2AAAAAAAAAAAAAAAAAAA2AAAAAAAAA2AAAAAA2AAAAAAAAA22A2AAAIA2AAA
AAAA2AAAAAAAAAAAAAAAAAAA2AAAAAAAAA2AAAAAA2AAAAAAAAA22A2AAA4A2AAA
AAAA2AAAAAAAAAAAAAAAAAAA2AAAAAAAAA2AAAAAAAAAAAAAAAA22A2AAA4A2AAA
AAAA2AAAAAAAAAAAAAAAAAAA2AAAAAAAAA2AAAAAAAAAAAAAAAA22A2AAA2A2AAA
AAAA2AIAAAAAAAAAAAAAAAAA2AAAAAAAAA2AAAAAAAAAAAAAAAA22A2AAA2A2AAA
AAAA2AAAAAAAAAAAAAAAAAAA2AAAAAAAAA2AAAAAAAAAAAAAAAA22A2AAA2A2AAA
AAAA2AAAAAAAAAAAAIAAAAAA2AAAAAAAAA2AAAAAAAAAAAAAAAA22A2AAA2A2AAA
AAAA2AAAAAAAAAAAA2AAAAAA2AAAAAAAAA2AAAAAAAAAAAAAAAA22A2AAA2A2AAA
AAAA2AAAAAAAAAAAA2AAAAAA2AAAAAAAAA2AAAAAAAAAAAAAAAA22A2AAA2A2AIA
AAAA2AAAAAAAAAAAA2AAAAAA2AAAAAAAAA2AAAAAAAAAAAAAAAA22A2AAA2A2A2A
AAAA2AAAAAAAAAAAA2AAAAAA2AAAAAAAAA2AAAAAAAAAAAAAAAA22A2AAA2I2A2A
AAAA2AAAAAAAIAAAA2AAAAAA2AAAAAAAAA2AAAAAAAAAAAAAAAA22A2AAA2I2A2A
AAAA2AAAAAAAIAAAA2AAAAAA2AAAAAAAAA2AAAAAAAAAAAIAAAA22A2AAA2I2A2A
AAAA2AAAAAAAIAAAA2AAAAAA2AAAAAAAAA2AAAAAAAAAAAIAAAA22A2AAA222A2A
AAAA2AAAAAAAIAAAA2AAAAAA2AAAAAAAAA2AAAAAAAAAAAAAAAA22A2AAA222A2A
AAAA2AAAAAAA2AAAA2AAAAAA2AAAAAAAAA2AAAAAAAAAAAAAAAA22A2AAA222A2A
AAAA2IAAAAAA2AAAA2AAAAAA2AAAAAAAAA2AAAAAAAAAAAAAAAA22A2AAA222A2A
AAAA2IAAAAAA2AAAA2AAAAAA2AAAAAAAAA2AAAAAAAAAAAAAAAA22A2IAA222A2A
AAAA2AAAAAAA2AAAA2AAAAAA2AAAAAAAAA2AAAAAAAAAAAAAAAA22A2IAA222A2A
AAAA2AAAAAAA2AAAA2AAAAAA2AAAAAAAAA2AAAAAAAAAAAAAAAA22A24AA222A2A
AAAA2AIAAAAA2AAAA2AAAAAA2AAAAAAAAA2AAAAAAAAAAAAAAAA22A24AA222A2A
AAAA2AAAAAAA2AAAA2AAAAAA2AAAAAAAAA2AAAAAAAAAAAAAAAA22A24AA222A2A
AAAA2AAAAAAA2AAAA2AAAAAA2AAAAAAAAA2AAAAAAAAAAAAAAAA22A24AAA22A2A
AAAA2AAAAAAA2AAAA2AAAAAA2AAAAAAAAA2AAAAAAAAAAAAAAAA22A24AAA22AAA
AAAA2AIAAAAA2AAAA2AAAAAA2AAAAAAAAA2AAAAAAAAAAAAAAAA22A24AAA22AAA
AAAA2A2AAAAA2AAAA2AAAAAA2AAAAAAAAA2AAAAAAAAAAAAAAAA22A24AAA22AAA
AAAA2AAAAAAA2AAAA2AAAAAA2AAAAAAAAA2AAAAAAAAAAAAAAAA22A24AAA22AAA
AAAA2AAAAAAA2AAAAAAAAAAA2AAAAAAAAA2AAAAAAAAAAAAAAAA22A24AAA22AAA
AAAA2AAAAAAA2AAAAAAAAAAA2AAAAAAAAA2AAAAAAAAAAAAAAAAA2A24AAA22AAA
AAAA2AAAAAAA2AAAAAAAAAAA2AAAAIAAAA2AAAAAAAAAAAAAAAAA2A24AAA22AAA
AAAA2AAAAAAA2AAAAAAAAAAA2AAAA2AAAA2AAAAAAAAAAAAAAAAA2A24AAA22AAA
AAAA2AAAAAAA2AAAAAAAAAAA2AAAA2AAAA2AAAAAAAAAAAAAAAAA2A22AAA22AAA
AAAA2AAAAAAA2AAAAAAAAAAA2AAIA2AAAA2AAAAAAAAAAAAAAAAA2A22AAA22AAA
AAAA2AAAAAAA2AAAAAAAAAAA2AA4A2AAAA2AAAAAAAAAAAAAAAAA2A22AAA22AAA
AAAA2AAAAAAA2AAAAAAAAAAA2AA4A2AAAA2AAAAAAAAAAAAAAAAA2A22AAI22AAA
AAAA2AAAAAAA2AAAAAAAAAAA2AA4A2AAAA2AAAAAAAAAAAAAAAAA2A22AAA22AAA
AAAA2AAAAAAA2AAAAAAAAAAA2AA4A2AAAA2AAAAAAAAAAAAAAAAA2A22AAA2AAAA
AAAA2AAAAAAA2AAAAAAAAAAA2AA4A2AAAA2AAAAAAAAAAAAAAAAA2A22AAA2IAAA
AAAA2AAAAAAA2AAAAAAAAAAA2AA2A2AAAA2AAAAAAAAAAAAAAAAA2A22AAA2IAAA
AAAA2AAAAAAA2AAAAAAAAAAA2AAAA2AAAA2AAAAAAAAAAAAAAAAA2A22AAA2IAAA
AAAA2AAAAAAA2AAAIAAAAAAA2AAAA2AAAA2AAAAAAAAAAAAAAAAA2A22AAA2IAAA
AAAA2AAAAAAA2AAA4AAAAAAA2AAAA2AAAA2AAAAAAAAAAAAAAAAA2A22AAA2IAAA
AAAA2AAAAAAA2AAA4AAAAAAA2AAAA2AAAA2AAAAAAAAAAAAAAAAA2A22AAA22AAA
AIAA2AAAAAAA2AAA4AAAAAAA2AAAA2AAAA2AAAAAAAAAAAAAAAAA2A22AAA22AAA
AIAA2AAAAAAA2AAA2AAAAAAA2AAAA2AAAA2AAAAAAAAAAAAAAAAA2A22AAA22AAA
AIAA2AAAAAAA2AAA2AAAAAAA2AAAA2AAAA2AAAAAAAAAAAAAAAAA2A22AAA2AAAA
AIAA2AIAAAAA2AAA2AAAAAAA2AAAA2AAAA2AAAAAAAAAAAAAAAAA2A22AAA2AAAA
AIAA2AIAAAAA2AAA2AAAAAAA2AAAA2AAAA2AAAAAAAAAAAIAAAAA2A22AAA2AAAA
A2AA2A2AAAAA2AAA2AAAAAAA2AAAA2AAAA2AAAAAAAAAAAIAAAAA2A22AAA2AAAA
A2AA2AAAAAAA2AAA2AAAAAAA2AAAA2AAAA2AAAAAAAAAAAIAAAAA2A22AAA2AAAA
A2AA2AAAAAAA2AAA2AAAAAAA2AAAA2AAAA2AAAAAAAAAAAAAAAAA2A22AAA2AAAA
A2AA2AAAAAAA2AAA2AAAAAAA2AAAA2AAAA2AAAAAAAIAAAAAAAAA2A22AAA2AAAA
A2AA2AAAAAAA2AAA2AAAAAAA2AAAA2AAAA2AAAAAAAIAAAAAAAAA2A22AAA2AAIA
A2AA2AAAAAAA2AAA2AAAAAAA2AAIA2AAAA2AAAAAAAIAAAAAAAAA2A22AAA2AAIA
A2AA2AAAAAAA2AAA2AAAAAAA2AAIA2AAAA2AAAAAAAIAAAAAAAAA2A22AAAAAAIA
A2AA2AAAAAAA2AAA2AAAAAAA2AA4A2AAAA2AAAAAAAIAAAAAAAAA2A22AAAAAAIA
A2AA2AAAAAAA2AAA2AAAAAAA2AA4A2AAAA2AAAAAAAIAAAAAAAAA2A22AAAAAA4A
A2AA2AAAAAAA2AAA2AAAAAAA2AA4A2AAAA2AAAAAAAIAAAAAAAAA2A22AAAAAA2A
A2AA2AAAAAAA2AAA2AAAAAAA2AA4A2AAAA2AAAAAAAIAAAAAIAAA2A22AAAAAA2A
A2AA2AAAAAAA2AAA2AAAAAAA2AA4A2AAAA2AAAAAAAIAAAAA2AAA2A22AAAAAA2A
A2AA2AAAAAAA2AIA2AAAAAAA2AA4A2AAAA2AAAAAAAIAAAAA2AAA2A22AAAAAA2A
A2AA2AAAAAAA2AIA2AAAAAAA2AA4A2AAAA2AAAAAAAIAAAAA2AAA2A22IAAAAA2A
A2AA2AAAAAAA2A2A2AAAAAAA2AA4A2AAAA2AAAAAAAIAAAAA2AAA2A22IAAAAA2A
A2AA2AAAAAAA2AAA2AAAAAAA2AA4A2AAAA2AAAAAAAIAAAAA2AAA2A22IAAAAA2A
A2AA2AAAAAAA2AAA2AAAAAAA2AA4A2AAAA2AAAAAAAIAAAAA2AAA2A222AAAAA2A
A2AA2AAAAAAA2AAA2AAAAAAA2AA4A2AAAA2AAAAAAAIAAAAA2AAA2A22IAAAAA2A
A2AA2AAAAAAA2AAA2AAAAAAA2AA2A2AAAA2AAAAAAA4AAAAA2AAA2A22IAAAAA2A
A2AA2AAAAAAA2AAA2AAAAAAA2AA2A2AAAA2AAAAAAA4AAAAA2AAA2A22IAAAAAAA
A2AA2AAAAAAA2AAA2AAAAAAA2AA2A2AAAA2AAAAAAA4AAAAA2AAA2A2A2AAAAAAA
A2AA2AAAAAAA2AAA2AAAAAAA2AA2A2AAAA2AAAAAAA2AAAAA2AAA2A2A2AAAAAAA
A2AAAAAAAAAA2AAA2AAAAAAA2AA2A2AAAA2AAAAAAA2AAAAA2AAA2A2A2AAAAAAA
A2AAAAAAAAAA2AAA2AAAAAAA2AA2A2AAAA2AIAAAAA2AAAAA2AAA2A2A2AAAAAAA
A2AAAAAAAAAA2AAA2AAAAAAA2AA2A2AAAA2A4AAAAA2AAAAA2AAA2A2A2AAAAAAA
A2AAAAAAAAAA2AAA2AAAAAAA2AA2A2AAAA2A2AAAAA2AAAAA2AAA2A2A2AAAAAAA
A2AAAAAAAAAA2AAA2AAAAAAA2AA2A2AAAA2A2AAAAA2AAAAA2AAA2AAA2AAAAAAA
A2AAAAAAAAAA2AAA2AAAAAAA2AA2A2AAAI2A2AAAAA2AAAAA2AAA2AAA2AAAAAAA
A2AAAAAAAAAA2AAA2AAAAAAA2AA2A2AAA42A2AAAAA2AAAAA2AAA2AAA2AAAAAAA
A2AAAAAAAAAA2AAA2AIAAAAA2AA2A2AAA42A2AAAAA2AAAAA2AAA2AAA2AAAAAAA
A2AAAAAAAAAA2AAA2AAAAAAA2AA2A2AAA42A2AAAAA2AAAAA2AAA2AAA2AAAAAAA
A2AAAAAAAAAA2AAA2AAAAAAA2AA2A2AAA42A2AAAAA2AAAAAAAAA2AAA2AAAAAAA
A2AAAAAAAAAA2AAA2AIAAAAA2AA2A2AAA42A2AAAAA2AAAAAAAAA2AAA2AAAAAAA
A2AAAAAAAAAA2AAA2A4AAAAA2AA2A2AAA42A2AAAAA2AAAAAAAAA2AAA2AAAAAAA
A2AAAAAAAAAA2AAA2A4AAAAA2AA2A2AAA42A2AAAAA2AAAAAIAAA2AAA2AAAAAAA
A2AAAAAAAAAA2AAA2A4AAAAA2AA2A2AAA42A2AAAAA2AAAAAIAAAAAAA2AAAAAAA
A2AAAAAAAAAA2AAA2A4AAAAA2AA2A2AAA42A2AAAAA2AAAAAAAAAAAAA2AAAAAAA
A2AAAAAAAAAA2AAA2A2AAAAA2AA2A2AAA42A2AAAAA2AAAAAAAAAAAAA2AAAAAAA
A2AAAAAAAAAA2AAA2A2AAAAA2AA2A2AAA42A2AAAAA2AAAAAAAAAIAAA2AAAAAAA
A2AAAAAAAAAA2AAA2A2AAAAA2AA2A2AAA42A2AAAAA2AAAAAAAAA4AAA2AAAAAAA
A2AAAAAAAAAA2AAA2A2AAAAA2AA2A2AAA42A2AAAAA2AAAAAAAAA4AAA2AAAAAIA
A2AAAAAAAAAA2AAA2A2AIAAA2AA2A2AAA42A2AAAAA2AAAAAAAAA4AAA2AAAAAIA
A2AAAAAAAAAA2AAA2AAA2AAA2AA2A2AAA42A2AAAAA2AAAAAAAAA4AAA2AAAAAIA
A2AAAAAAAAAA2AAA2AAA2AAA2AAAA2AAA42A2AAAAA2AAAAAAAAA4AAA2AAAAAIA
A2AAAAAAAAAA2AAA2AAA2AAA2AAAA2AAA42A2AAAAA2AAAAAAAAA4AAA2AAAAAAA
A2AAAAAAAAAA2IAA2AAA2AAA2AAAA2AAA42A2AAAAA2AAAAAAAAA4AAA2AAAAAAA
A2AAAAAAAAAA2IAA2AAAIAAA2AAAA2AAA42A2AAAAA2AAAAAAAAA4AAA2AAAAAAA
A2AAAAAAAAAA22AA2AAA4AAA2AAAA2AAA42A2AAAAA2AAAAAAAAA4AAA2AAAAAAA
A2AAAAAAAAAA22AA2AAA4AAA2AAAA2AAA42A2AAAAA2AAAAAAAAA2AAA2AAAAAAA
A2AAAAAAAAAI22AA2AAA4AAA2AAAA2AAA42A2AAAAA2AAAAAAAAA2AAA2AAAAAAA
A2AAAAAAAAAI22AA2AAA4AAA2AAAA2AAA42A2AAAAA2AAAAAAIAA2AAA2AAAAAAA
A2AAAAAAAAAI22AA2AAA4AAA2AAAA2AAA42A2AAAAA2AAAAAAIAAIAAA2AAAAAAA
A2AAAAAAAAAA22AA2AAA2AAA2AAAA2AAA42A2AAAAA2AAAAAAIAAIAAA2AAAAAAA
A2AAAAAAAAAA22AA2AAA2AAA2AAAA2AAA22A2AAAAA2AAAAAAIAAIAAA2AAAAAAA
A2AAAAAAAAAI22AA2AAA2AAA2AAAA2AAA22A2AAAAA2AAAAAAIAAIAAA2AAAAAAA
A2AAAAAAAAAI22AA2AAA2AAA2AAAA2AAA22A2AAAAA2AAAAAAIAAIAAA2AAAAAIA
A2AAAAAAAAAI22AA2AAAIAAA2AAAA2AAA22A2AAAAA2AAAAAAIAAIAAA2AAAAAIA
A2AAAAAAAAAI22AA2AAA2AAA2AAAA2AAA22A2AAAAA2AAAAAAIAAIAAA2AAAAAIA
A2AAAAAAAAAI22AA2AAA2AAA2AAAA2AAA22A2AAAAA2AAAAAAAAAIAAA2AAAAAIA
A2AAAAAAAAAI22AA2AAA2AAA2AAAA2AAA22A2AAAAA2AAAAAAAAAIAAA2AAAAA4A
A2AAAAAAAAAI22AA2AIA2AAA2AAAA2AAA22A2AAAAA2AAAAAAAAAIAAA2AAAAA4A
A2AAAAAAAAAI22AA2AIA2AAA2AAAA2AAA22A2AAAAA2AAAAAAAAA2AAA2AAAAA4A
A2AAAAAAAAAI22AA2A4A2AAA2AAAA2AAA22A2AAAAA2AAAAAAAAA2AAA2AAAAA4A
A2AAAAAAAAAA22AA2A2A2AAA2AAAA2AAA22A2AAAAA2AAAAAAAAA2AAA2AAAAA4A
A2AAAAAAAAAA22AA2A2A2AAA2AAAA2AAA22AAAAAAA2AAAAAAAAA2AAA2AAAAA4A
A2AAAAAAAAAA22AA2A2A2AAA2AAIA2AAA22AAAAAAA2AAAAAAAAA2AAA2AAAAA4A
A2AAAAAAAAAA22AA2A2A2AAA2AAAA2AAA22AAAAAAA2AAAAAAAAA2AAA2AAAAA4A
A2AAAAAAAAAA22AA2A2A2AAA2AAAA2AAA22AAAAAAA2AAAAAAAAAAAAA2AAAAA4A
A2AAAAAAAAAA22AA2A2I2AAA2AAAA2AAA22AAAAAAA2AAAAAAAAAAAAA2AAAAA4A
A2AAAAAAAAAA2AAA2A2I2AAA2AAAA2AAA22AAAAAAA2AAAAAAAAAAAAA2AAAAA4A
A2AAAAAAAAAA2AAA2A2I2AAA2AAAA2AAA22AAAAAAAAAAAAAAAAAAAAA2AAAAA4A
A2AAAAAAAAAA2AAA2A2I2AAA2AAAA2AAA22AAAAAAAAAAAAAAAAIAAAA2AAAAA4A
A2AAAAAAAAAA2AAA2A2I2AAA2AAAA2AAA22AAAAAAAIAAAAAAAAIAAAA2AAAAA4A
A2AAAAAAAAAA2AAAAA222AAA2AAAA2AAA22AAAAAAAIAAAAAAAAIAAAA2AAAAA4A
A2AAAAAAAAAA2AAAAA222AAA2AAAA2AAA22AAAAAAA4AAAAAAAAIAAAA2AAAAA4A
A2AAAAAAAAAA2AAAAA222AAA2AAAA2AAA22AAAAAAA4AAAAAAAAIAAAA2AAAAAAA
A2AAAAAAAAAA2IAAAA222AAA2AAAA2AAA22AAAAAAA4AAAAAAAAIAAAA2AAAAAAA
A2AAAAAAAAAA22AAAA222AAA2AAAA2AAA22AAAAAAA4AAAAAAAAIAAAA2AAAAAAA
A2AAAAAAAAAA22AAAA222AAA2AAAAAAAA22AAAAAAA4AAAAAAAAIAAAA2AAAAAAA
A2AAAAAAAAAA22AAAA222AAA2AAAAAAAA22AAAAAAA4AAAAAAAA2AAAA2AAAAAAA
A2AAAAAAAAAA22AAAA222AAA2AAAAAAAA22AAAAAAA2AAAAAAAA2AAAA2AAAAAAA
A2AAAAAAAAAA22AAAA222AAA2AAAAAAAA22AAAAAAA2AAAIAAAA2AAAA2AAAAAAA
A2AAAAAAAAAI22AAAA222AAA2AAAAAAAA22AAAAAAA2AAAIAAAA2AAAA2AAAAAAA
A2AAAAAAAAAI22AAAA222AAA2AAAAAAAA22AAAAAAA2AAAIAAAA2AAAAAAAAAAAA
A2AAAAAAAAAI22AAAA222AAA2AAAAAAAA22AAAAAAAAAAA2AAAA2AAAAAAAAAAAA
A2AAAAAAAAAI2AAAAA222AAA2AAAAAAAA22AAAAAAAAAAA2AAAA2AAAAAAAAAAAA
A2AAAAAAAAAI2AAAAAA22AAA2AAAAAAAA22AAAAAAAAAAA2AAAA2AAAAAAAAAAAA
A2AAAAAAAAAI2AAAAAA2AAAA2AAAAAAAA22AAAAAAAAAAA2AAAA2AAAAAAAAAAAA
A2AAAAAAAAAI2AAAAAAAAAAA2AAAAAAAA22AAAAAAAAAAA2AAAA2AAAAAAAAAAAA
A2AAAAAAAAAI2AAAAAAAAAAA2AAAAAAAA22AAAAAAAAIAA2AAAA2AAAAAAAAAAAA
A2AAAAAAAAAI2AAAAAAAAAAA2AAAAAAAA22AAAAAAAAIAAAAAAA2AAAAAAAAAAAA
A2AAAAAAAAA22AAAAAAAAAAA2AAAAAAAA22AAAAAAAAIAAAAAAA2AAAAAAAAAAAA
A2AIAAAAAAA22AAAAAAAAAAA2AAAAAAAA22AAAAAAAAIAAAAAAA2AAAAAAAAAAAA
A2AIAAAAAIA22AAAAAAAAAAA2AAAAAAAA22AAAAAAAAIAAAAAAA2AAAAAAAAAAAA
A2AIAAAAAIA22AAAAAAIAAAA2AAAAAAAA22AAAAAAAAIAAAAAAA2AAAAAAAAAAAA
A2AIAAAAA2A22AAAAAAIAAAA2AAAAAAAA22AAAAAAAAIAAAAAAA2AAAAAAAAAAAA
AAA2AAAAA2A22AAAAAAIAAAA2AAAAAAAA22AAAAAAAAIAAAAAAA2AAAAAAAAAAAA
AAA2AAAAA2A22AAAAAA4AAAA2AAAAAAAA22AAAAAAAAIAAAAAAA2AAAAAAAAAAAA
AAA2AAAAA2A22AAAAAAAAAAA2AAAAAAAA22AAAAAAAAIAAAAAAA2AAAAAAAAAAAA
AAA2AAAAA2A22AAAAAAAAAAA2AAAAAAAA22AAAAAAAA4AAAAAAA2AAAAAAAAAAAA
AAA2AAAAA2A22AAAAAAAAAAA2AAAAAAAA22AAAAAAAA4AAIAAAA2AAAAAAAAAAAA
AAA2AAAAA2A22AAAAAAAAAAA2AAAAAAAAA2AAAAAAAA4AAIAAAA2AAAAAAAAAAAA
AAA2AAAAA2A22AAAAAAAAAAA2AAAAAAAAA2AAAAAAAA4AA4AAAA2AAAAAAAAAAAA
AAA2AAAAAAA22AAAAAAAAAAA2AAAAAAAAA2AAAAAAAA4AA4AAAA2AAAAAAAAAAAA
AAA2AAAAAAA22AAAAAAAAAAA2AAAAAAAAI2AAAAAAAA4AA4AAAA2AAAAAAAAAAAA
AAA2AAAAAAA22AAAAAAAAAAA2AAAAAAAA22AAAAAAAA4AA4AAAA2AAAAAAAAAAAA
AAA2AAAAAAA22AAAAAAAAAAA2AAAAAAAA22AAAAAAAA4AA4IAAA2AAAAAAAAAAAA
AAA2AAAAAAA22AAAAAAAAAAA2AAAAAAAAI2AAAAAAAA4AA4IAAA2AAAAAAAAAAAA
AAA2AAAAAAA22AAAAAAAAAAA2AAAAAAAAA2AAAAAAAA4AA44AAA2AAAAAAAAAAAA
AAA2AAAAAAA22AAAAAAAAAAA2AAIAAAAAA2AAAAAAAA4AA44AAA2AAAAAAAAAAAA
AAA2AAAAAAA22AAAAAAAAAAA2AA2AAAAAA2AAAAAAAA4AA44AAA2AAAAAAAAAAAA
AAA2AAAAAAA22AAAAAAAAAAA2AAAAAAAAA2AAAAAAAA4AA44AAA2AAAAAAAAAAAA
AAA2AAAAAAA22AAAAAAAAAAA2AAAAAAAAA2AAAAAAAA2AA24AAA2AAAAAAAAAAAA
AAA2AAAAAAA22AAAAAAAAAAA2AAAAAAAAA2AAAAAAAA2AA24AAAAAAAAAAAAAAAA
AAA2AAAAAAA22AAAAAAAAAAA2AAIAAAAAA2AAAAAAAA2AA24AAAAAAAAAAAAAAAA
AAA2AAAAAAA22AAAAAAAAAAA2AAIAAAAAA2AAAAAAAA2AA24AAAIAAAAAAAAAAAA
AAA2AAAAAAA22AAAAAAAAAAA2AAIAAAAAA2AAAAAIAA2AA24AAAIAAAAAAAAAAAA
AAA2AAAAAAA22AAAAAAAAAAA2AAAAAAAAA2AAAAA4AA2AA24AAAIAAAAAAAAAAAA
AAA2AAAAAIA22AAAAAAAAAAA2AAAAAAAAA2AAAAA4AA2AA24AAAIAAAAAAAAAAAA
AAA2AAAAAIA22AAAAAAAAAAA2AAIAAAAAA2AAAAA4AA2AA24AAAIAAAAAAAAAAAA
AAA2AAAAAIA22AAAAAAAAAAA2AAIAAAAAA2AAAAAAAA2AA24AAAIAAAAAAAAAAAA
AAA2AAAAAIA22AAAAAAAAAAA2AA2AAAAAA2AAAAAAAA2AA24AAAIAAAAAAAAAAAA
AAA2AAAAAIA22AAAAAAAAAAA2AAIAAAAAA2AAAAAAAA2AA24AAAIAAAAAAAAAAAA
AAA2AAAAAIA22AAAAAAAAAAA2AAIAAAAAA2AAAAAAAA2AA24AAA2AAAAAAAAAAAA
AAA2AAAAAIA22AAAAAAAAAAA2AAAAAAAAA2AAAAAAAA2AA24AAA2AAAAAAAAAAAA
AAA2AAAAAIA22AAAAAAAAAAA2AAAAAAAAA2AAAAAAAA2AA24AAA2AAAAAAAAAAIA
AAA2AAAAA2A22AAAAAAAAAAA2AAAAAAAAA2AAAAAAAA2AA24AAA2AAAAAAAAAAIA
AAA2AAAAAAA22AAAAAAAAAAA2AAAAAAAAA2AAAAAAAA2AA24AAA2AAAAAAAAAAIA
AAA2AAAAAAA22AAAAAAAAAAA2AAAAAAAAA2AAAAAAAA2AA22AAA2AAAAAAAAAAIA
AAA2AAAAAAA22AAAAAAAAAAA2AAAAAAAAA2AAAAAAAA2AA22AAA2AAAAAAAAAAAA
AAA2AAAAAAA22AAAAAAAAAAA2AAAAAAAAA2AAAAAAAA2AAA2AAA2AAAAAAAAAAAA
AAA2AAAAAAA22AAAAAAIAAAA2AAAAAAAAA2AAAAAAAA2AAA2AAA2AAAAAAAAAAAA
AAA2AAAAAAA22AAAAAA4AAAA2AAAAAAAAA2AAAAAAAA2AAA2AAA2AAAAAAAAAAAA
AAA2AAAAAAA22AAAAAA2AAAA2AAAAAAAAA2AAAAAAAA2AAA2AAA2AAAAAAAAAAAA
AAA2AAAAAAA22AAAAAA2AAAA2AAAAAAAAA2AAAAAAAA2AAA2AAA2AAAAAAIAAAAA
AAA2AAAIAAA22AAAAAA2AAAA2AAAAAAAAA2AAAAAAAA2AAA2AAA2AAAAAAIAAAAA
AAA2AAAIAAA22AAAAAA2AAAA2AAAAAAAAA2AAAAAAAA2AAA2AAA2AAAAAA2AAAAA
AAA2AAAIAAA22AAAAAA2AAAA2AAAAAAAAA2AAIAAAAA2AAA2AAA2AAAAAA2AAAAA
AAA2AAA2AAA22AAAAAA2AAAA2AAAAAAAAA2AAIAAAAA2AAA2AAA2AAAAAA2AAAAA
AAA2AAA2AAA22AAAAAAAAAAA2AAAAAAAAA2AAIAAAAA2AAA2AAA2AAAAAA2AAAAA
AAA2AAA2AAA22AAAAAAAAAAA2AAAAAAAAA2AA4AAAAA2AAA2AAA2AAAAAA2AAAAA
AAA2AAA2AAA22AAAAAAAAAAA2AAAAAAAAA2AA4AAAAA2AAA2AAA2AAAAAAAAAAAA
AAA2AAA2AAA22AAAAAAAAAAA2AAAAAAAAA2AA4AAAAA2AAA2AAA2AAAAAAAAAAIA
AAA2AAA2AAA22AAAAAAAAAAA2AAAAAAAAA2AA4AAAAA2AIA2AAA2AAAAAAAAAAIA
AAA2AAA2AAA22AAAAAAAAAAA2AAAAAAAAA2AA2AAAAA2A2A2AAA2AAAAAAAAAAIA
AAA2AAA2AAA22AAAAAAAAAAA2AAAAAAAAA2AA2AAAAA2A2A2AAA2AAAAAAAAAA4A
AAA2AAA2AAA22AIAAAAAAAAA2AAAAAAAAA2AA2AAAAA2A2A2AAA2AAAAAAAAAA4A
AAA2AAA2AAA22AIAAAAAAAAA2AAAAAAAAA2AA2AAAAA2A2I2AAA2AAAAAAAAAA4A
AAA2AAA2AAA22AIAAAAAAAAA2AAAAAAAAA2AA2AAAAA2A2I2AAA2AAAAAAAAAA2A
AAA2AAA2AAA22AIAAAAAAAAA2AAAAAAAAA2AA2AAAAA2A2I2AAA2AAAAAAAAAAAA
AAA2AAA2AAA22AIAAAAAAAAA2AAAAAAAAA2AA2AAAAA2A242AAA2AAAAAAAAAAAA
AAA2AAA2AAA22A2AAAAAAAAA2AAAAAAAAA2AA2AAAAA2A242AAA2AAAAAAAAAAAA
AAA2AAA2AAAA2A2AAAAAAAAA2AAAAAAAAA2AA2AAAAA2A242AAA2AAAAAAAAAAAA
AAA2AAA2AAAA2A2AAAAAAAAA2AAAAAAAAAAAA2AAAAA2A242AAA2AAAAAAAAAAAA
AAA2AAA2AAAA2A2AAAAAAAAA2AAAAAAAAAAAA2AAAAA2A222AAA2AAAAAAAAAAAA
AAA2AAA2AAAA2A2AAAAAAAAA2AAAAAAAAAAAA2AAAAA2AA22AAA2AAAAAAAAAAAA
AAA2AAA2AAAA2A2AAAAAAAAA2AAAAAAAAAAAA2AAAAA2AA22AAAAAAAAAAAAAAAA
AAA2AAA2AAAAAA2AAAAAAAAA2AAAAAAAAAAAA2AAAAA2AA22AAAAAAAAAAAAAAAA
AAA2AAA2AAAAAA2AAAAAAAAA2AAAAAAAAAAAA2AAAAA2AAA2AAAAAAAAAAAAAAAA
AAA2AAI2AAAAAA2AAAAAAAAA2AAAAAAAAAAAA2AAAAA2AAA2AAAAAAAAAAAAAAAA
AAA2AAA2AAAAAA2AAAAAAAAA2AAAAAAAAAAAA2AAAAA2AAA2AAAAAAAAAAAAAAAA
AAA2AAI2AAAAAA2AAAAAAAAA2AAAAAAAAAAAA2AAAAA2AAA2AAAAAAAAAAAAAAAA
AAA2AA22AAAAAA2AAAAAAAAA2AAAAAAAAAAAA2AAAAA2AAA2AAAAAAAAAAAAAAAA
AAA2AAA2AAAAAA2AAAAAAAAA2AAAAAAAAAAAA2AAAAA2AAA2AAAAAAAAAAAAAAAA
AAA2AAA2AAAAAA2AAAIAAAAA2AAAAAAAAAAAA2AAAAA2AAA2AAAAAAAAAAAAAAAA
AAA2AAA2AAAAAA2AAAIIAAAA2AAAAAAAAAAAA2AAAAA2AAA2AAAAAAAAAAAAAAAA
AAA2AAA2AAAAAA2AAAIAAAAA2AAAAAAAAAAAA2AAAAA2AAA2AAAAAAAAAAAAAAAA
AAA2AAA2AAAAAA2AAAIAAAAA2AAAAAAAAAAAA2AAAAAAAAA2AAAAAAAAAAAAAAAA
AAA2AAA2AAAAAA2AAA4AAAAA2AAAAAAAAAAAA2AAAAAAAAA2AAAAAAAAAAAAAAAA
AAA2AAA2AAAAAA2AAA2AAAAA2AAAAAAAAAAAA2AAAAAAAAA2AAAAAAAAAAAAAAAA
AAA2AAA2AAAIAA2AAA2AAAAA2AAAAAAAAAAAA2AAAAAAAAA2AAAAAAAAAAAAAAAA
AAA2AAA2AAAIAA2AAA2AAAAA2AAAAAAAAAAAA2AAAAAAAAA2AAAAAAAAAAAAIAAA
AAA2AAA2AAAIAA2AAA2AAAAA2AAAAAAAAAAAA2AAAAAAAAA2AAAAAAAAAAAAIIAA
AAA2AAA2AAA2AA2AAA2AAAAA2AAAAAAAAAAAA2AAAAAAAAA2AAAAAAAAAAAAIIAA
AAA2AAA2AAA2AA2AAA2AAAAA2AAAAAAAAAAAA2AAAAAAAAA2AAAAAAAAAAAA22AA
AAA2AAA2AAA2AA2AAA2AAAAA2AAAAAAAAAAAA2AAAAAAAAA2AAAAAAAAAAAA2IAA
AAA2AAA2AAA2AA2AAA2AAAAA2AAAAAAAAAAAA2AAAAAAAAA2AAAAAAAAAAAA24AA
AAA2AAA2AAA2AA2AAA2AAAAA2AAAAAAAAAAAA2AAAAAAAAA2AAAAAAAAAAAA2AAA
AAA2AAA2AAA2AA2AAAAAAAAA2AAAAAAAAAAAA2AAAAAAAAA2AAAAAAAAAAAA2AAA
AAA2AAA2AAA2AA2AAAAAAAAA2AAAAAAAAAAAA2AAAAIAAAA2AAAAAAAAAAAA2AAA
AAA2AAA2AAAAAA2AAAAAAAAA2AAAAAAAAAAAA2AAAAIAAAA2AAAAAAAAAAAA2AAA
AAA2AAA2AAAAAA2AAAAAAAAA2AAAAAAAAAAAA2AAAA2AAAA2AAAAAAAAAAAA2AAA
AAA2AAA2AAAAAA2AAAAAAAAA2AAAAAAAAAAAA2AAAA2AAAA2IAAAAAAAAAAA2AAA
AAA2AAA2AAAAAA2AAAAAAAAA2AAAAAAAAAAAA2AAAA2AAAA24AAAAAAAAAAA2AAA
AAA2AAA2AAAAAA2AAAAAAAAA2AAAAAAAAAAAA2AAAA2AAAA22AAAAAAAAAAA2AAA
AAA2AAA2AAAAAA2AIAAAAAAA2AAAAAAAAAAAA2AAAA2AAAA22AAAAAAAAAAA2AAA
AAA2AAA2AAAAAI2AIAAAAAAA2AAAAAAAAAAAA2AAAA2AAAA22AAAAAAAAAAA2AAA
AAA2AAA2AAAAAI2AIAAAAAAA2AAAAAAAAAAAA2AAAA2AAAA22AAAAAAAIAAA2AAA
AAA2AAA2AAAAAI2AIAAAAAAAAAAAAAAAAAAAA2AAAA2AAAA22AAAAAAAIAAA2AAA
[MLOP] Prefetch Degree Mean: 10.70535
[MLOP] Prefetch Degree SD: 2.28043
[MLOP] Max Score Left Mean (%): 57.33743
[MLOP] Max Score Left SD (%): 9.09618
[MLOP] Max Score Right Mean (%): 85.19872
[MLOP] Max Score Right SD (%): 10.49473

Channel_0_RQ_row_buffer_hit 215449
Channel_0_RQ_row_buffer_miss 966797
Channel_0_WQ_row_buffer_hit 72124
Channel_0_WQ_row_buffer_miss 119395
Channel_0_WQ_full 0
Channel_0_dbus_congested 243827

avg_congested_cycle 9

DRAM_bw_pochs 1228228
DRAM_bw_level_0 1180686
DRAM_bw_level_1 43195
DRAM_bw_level_2 3752
DRAM_bw_level_3 595
