*************************************************
   ChampSim Multicore Out-of-Order Simulator
   Last compiled: Apr  3 2025 20:54:34
*************************************************
parsing config file: /home/zir/Pythia/config/nopref.ini

trace_0 /home/zir/ChampSim/ML-DPC/ChampSimTraces/gap/bc-5.trace.gz
adding L2C_PREFETCHER: NONE
Initialize SHIP state
warmup_instructions 10000000
simulation_instructions 50000000
champsim_seed 53
measure_ipc 0
measure_ipc_epoch 1000
measure_dram_bw 1
measure_dram_bw_epoch 256
measure_cache_acc 1
measure_cache_acc_epoch 1024
l1d_perfect 0
l2c_perfect 0
llc_perfect 0
l1d_semi_perfect 0
l2c_semi_perfect 0
llc_semi_perfect 0
semi_perfect_cache_page_buffer_size 64

num_cpus 1
cpu_freq 4000
dram_io_freq 2400
page_size 4096
block_size 64
max_read_per_cycle 8
max_fill_per_cycle 1
dram_channels 1
log2_dram_channels 0
dram_ranks 1
dram_banks 8
dram_rows 65536
dram_columns 128
dram_row_size 8
dram_size 4096
dram_pages 1048576

fetch_width 6
decode_width 6
exec_width 4
lq_width 2
sq_width 2
retire_width 4
scheduler_size 128
branch_mispredict_penalty 20
rob_size 256
lq_size 72
sq_size 56
num_instr_destinations_sparc 4
num_instr_destinations 2
num_instr_sources 4

itlb_set 16
itlb_way 8
itlb_rq_size 16
itlb_wq_size 16
itlb_pq_size 0
itlb_mshr_size 8
itlb_latency 1

dtlb_set 16
dtlb_way 4
dtlb_rq_size 16
dtlb_wq_size 16
dtlb_pq_size 0
dtlb_mshr_size 8
dtlb_latency 1

stlb_set 128
stlb_way 12
stlb_rq_size 32
stlb_wq_size 32
stlb_pq_size 0
stlb_mshr_size 16
stlb_latency 8

l1i_size 32
l1i_set 64
l1i_way 8
l1i_rq_size 64
l1i_wq_size 64
l1i_pq_size 8
l1i_mshr_size 8
l1i_latency 1

l1d_size 32
l1d_set 64
l1d_way 8
l1d_rq_size 64
l1d_wq_size 64
l1d_pq_size 8
l1d_mshr_size 16
l1d_latency 4

l2c_size 256
l2c_set 512
l2c_way 8
l2c_rq_size 32
l2c_wq_size 32
l2c_pq_size 32
l2c_mshr_size 32
l2c_latency 10

llc_size 2048
llc_set 2048
llc_way 16
llc_rq_size 32
llc_wq_size 32
llc_pq_size 32
llc_mshr_size 64
llc_latency 20

dram_channel_width 8
dram_wq_size 64
dram_rq_size 64
tRP 15
tRCD 15
tCAS 12.5
dram_dbus_turn_around_time 30
dram_write_high_wm 56
dram_write_low_wm 48
min_dram_writes_per_switch 16
dram_mtps 2400
dram_dbus_return_time 13


Heartbeat CPU  0 instructions:    1000000 cycles:     577279 heartbeat IPC: 1.73226 cumulative IPC: 1.73226 (Simulation time: 0 hr 0 min 2 sec) 
Heartbeat CPU  0 instructions:    2000001 cycles:    1129059 heartbeat IPC: 1.81232 cumulative IPC: 1.77139 (Simulation time: 0 hr 0 min 5 sec) 
Heartbeat CPU  0 instructions:    3000002 cycles:    1961599 heartbeat IPC: 1.20114 cumulative IPC: 1.52937 (Simulation time: 0 hr 0 min 6 sec) 
Heartbeat CPU  0 instructions:    4000000 cycles:    2974333 heartbeat IPC: 0.98742 cumulative IPC: 1.34484 (Simulation time: 0 hr 0 min 7 sec) 
Heartbeat CPU  0 instructions:    5000000 cycles:    3947486 heartbeat IPC: 1.02759 cumulative IPC: 1.26663 (Simulation time: 0 hr 0 min 8 sec) 
Heartbeat CPU  0 instructions:    6000003 cycles:    4867157 heartbeat IPC: 1.08735 cumulative IPC: 1.23275 (Simulation time: 0 hr 0 min 9 sec) 
Heartbeat CPU  0 instructions:    7000001 cycles:    5763105 heartbeat IPC: 1.11613 cumulative IPC: 1.21462 (Simulation time: 0 hr 0 min 11 sec) 
Heartbeat CPU  0 instructions:    8000000 cycles:    6613268 heartbeat IPC: 1.17624 cumulative IPC: 1.20969 (Simulation time: 0 hr 0 min 12 sec) 
Heartbeat CPU  0 instructions:    9000000 cycles:    7448722 heartbeat IPC: 1.19695 cumulative IPC: 1.20826 (Simulation time: 0 hr 0 min 13 sec) 
Heartbeat CPU  0 instructions:   10000001 cycles:    8242381 heartbeat IPC: 1.25999 cumulative IPC: 1.21324 (Simulation time: 0 hr 0 min 14 sec) 

Warmup complete CPU  0 instructions:   10000001 cycles:    8242381 (Simulation time: 0 hr 0 min 14 sec) 

Heartbeat CPU  0 instructions:   11000003 cycles:   14520735 heartbeat IPC: 0.15928 cumulative IPC: 0.15928 (Simulation time: 0 hr 0 min 17 sec) 
Heartbeat CPU  0 instructions:   12000000 cycles:   20459845 heartbeat IPC: 0.16837 cumulative IPC: 0.16370 (Simulation time: 0 hr 0 min 19 sec) 
Heartbeat CPU  0 instructions:   13000000 cycles:   26493107 heartbeat IPC: 0.16575 cumulative IPC: 0.16438 (Simulation time: 0 hr 0 min 22 sec) 
Heartbeat CPU  0 instructions:   14000001 cycles:   32612061 heartbeat IPC: 0.16343 cumulative IPC: 0.16414 (Simulation time: 0 hr 0 min 24 sec) 
Heartbeat CPU  0 instructions:   15000000 cycles:   38489891 heartbeat IPC: 0.17013 cumulative IPC: 0.16530 (Simulation time: 0 hr 0 min 27 sec) 
Heartbeat CPU  0 instructions:   16000000 cycles:   44636393 heartbeat IPC: 0.16269 cumulative IPC: 0.16486 (Simulation time: 0 hr 0 min 30 sec) 
Heartbeat CPU  0 instructions:   17000001 cycles:   49983794 heartbeat IPC: 0.18701 cumulative IPC: 0.16770 (Simulation time: 0 hr 0 min 32 sec) 
Heartbeat CPU  0 instructions:   18000000 cycles:   56547769 heartbeat IPC: 0.15235 cumulative IPC: 0.16561 (Simulation time: 0 hr 0 min 35 sec) 
Heartbeat CPU  0 instructions:   19000000 cycles:   63078010 heartbeat IPC: 0.15313 cumulative IPC: 0.16413 (Simulation time: 0 hr 0 min 37 sec) 
Heartbeat CPU  0 instructions:   20000000 cycles:   69026532 heartbeat IPC: 0.16811 cumulative IPC: 0.16452 (Simulation time: 0 hr 0 min 40 sec) 
Heartbeat CPU  0 instructions:   21000000 cycles:   74374266 heartbeat IPC: 0.18700 cumulative IPC: 0.16633 (Simulation time: 0 hr 0 min 42 sec) 
Heartbeat CPU  0 instructions:   22000002 cycles:   80251414 heartbeat IPC: 0.17015 cumulative IPC: 0.16665 (Simulation time: 0 hr 0 min 45 sec) 
Heartbeat CPU  0 instructions:   23000000 cycles:   85978660 heartbeat IPC: 0.17460 cumulative IPC: 0.16723 (Simulation time: 0 hr 0 min 48 sec) 
Heartbeat CPU  0 instructions:   24000000 cycles:   91987460 heartbeat IPC: 0.16642 cumulative IPC: 0.16717 (Simulation time: 0 hr 0 min 50 sec) 
Heartbeat CPU  0 instructions:   25000000 cycles:   97641699 heartbeat IPC: 0.17686 cumulative IPC: 0.16779 (Simulation time: 0 hr 0 min 53 sec) 
Heartbeat CPU  0 instructions:   26000001 cycles:  103354240 heartbeat IPC: 0.17505 cumulative IPC: 0.16822 (Simulation time: 0 hr 0 min 55 sec) 
Heartbeat CPU  0 instructions:   27000003 cycles:  109325866 heartbeat IPC: 0.16746 cumulative IPC: 0.16818 (Simulation time: 0 hr 0 min 58 sec) 
Heartbeat CPU  0 instructions:   28000000 cycles:  115233062 heartbeat IPC: 0.16928 cumulative IPC: 0.16824 (Simulation time: 0 hr 1 min 0 sec) 
Heartbeat CPU  0 instructions:   29000003 cycles:  120538802 heartbeat IPC: 0.18848 cumulative IPC: 0.16920 (Simulation time: 0 hr 1 min 3 sec) 
Heartbeat CPU  0 instructions:   30000002 cycles:  126688394 heartbeat IPC: 0.16261 cumulative IPC: 0.16885 (Simulation time: 0 hr 1 min 6 sec) 
Heartbeat CPU  0 instructions:   31000003 cycles:  131845301 heartbeat IPC: 0.19391 cumulative IPC: 0.16990 (Simulation time: 0 hr 1 min 8 sec) 
Heartbeat CPU  0 instructions:   32000000 cycles:  138049594 heartbeat IPC: 0.16118 cumulative IPC: 0.16948 (Simulation time: 0 hr 1 min 11 sec) 
Heartbeat CPU  0 instructions:   33000001 cycles:  143699495 heartbeat IPC: 0.17699 cumulative IPC: 0.16980 (Simulation time: 0 hr 1 min 13 sec) 
Heartbeat CPU  0 instructions:   34000003 cycles:  149614739 heartbeat IPC: 0.16906 cumulative IPC: 0.16976 (Simulation time: 0 hr 1 min 16 sec) 
Heartbeat CPU  0 instructions:   35000001 cycles:  155403402 heartbeat IPC: 0.17275 cumulative IPC: 0.16988 (Simulation time: 0 hr 1 min 19 sec) 
Heartbeat CPU  0 instructions:   36000000 cycles:  161242990 heartbeat IPC: 0.17124 cumulative IPC: 0.16993 (Simulation time: 0 hr 1 min 21 sec) 
Heartbeat CPU  0 instructions:   37000002 cycles:  166392564 heartbeat IPC: 0.19419 cumulative IPC: 0.17072 (Simulation time: 0 hr 1 min 24 sec) 
Heartbeat CPU  0 instructions:   38000002 cycles:  171104817 heartbeat IPC: 0.21221 cumulative IPC: 0.17192 (Simulation time: 0 hr 1 min 26 sec) 
Heartbeat CPU  0 instructions:   39000001 cycles:  175946062 heartbeat IPC: 0.20656 cumulative IPC: 0.17292 (Simulation time: 0 hr 1 min 29 sec) 
Heartbeat CPU  0 instructions:   40000000 cycles:  181901390 heartbeat IPC: 0.16792 cumulative IPC: 0.17275 (Simulation time: 0 hr 1 min 32 sec) 
Heartbeat CPU  0 instructions:   41000000 cycles:  187468663 heartbeat IPC: 0.17962 cumulative IPC: 0.17297 (Simulation time: 0 hr 1 min 34 sec) 
Heartbeat CPU  0 instructions:   42000001 cycles:  193121479 heartbeat IPC: 0.17690 cumulative IPC: 0.17309 (Simulation time: 0 hr 1 min 37 sec) 
Heartbeat CPU  0 instructions:   43000000 cycles:  198237338 heartbeat IPC: 0.19547 cumulative IPC: 0.17369 (Simulation time: 0 hr 1 min 40 sec) 
Heartbeat CPU  0 instructions:   44000000 cycles:  204172664 heartbeat IPC: 0.16848 cumulative IPC: 0.17353 (Simulation time: 0 hr 1 min 42 sec) 
Heartbeat CPU  0 instructions:   45000001 cycles:  209988185 heartbeat IPC: 0.17195 cumulative IPC: 0.17349 (Simulation time: 0 hr 1 min 45 sec) 
Heartbeat CPU  0 instructions:   46000003 cycles:  215821068 heartbeat IPC: 0.17144 cumulative IPC: 0.17343 (Simulation time: 0 hr 1 min 47 sec) 
Heartbeat CPU  0 instructions:   47000001 cycles:  221359640 heartbeat IPC: 0.18055 cumulative IPC: 0.17361 (Simulation time: 0 hr 1 min 50 sec) 
Heartbeat CPU  0 instructions:   48000000 cycles:  226785786 heartbeat IPC: 0.18429 cumulative IPC: 0.17388 (Simulation time: 0 hr 1 min 52 sec) 
Heartbeat CPU  0 instructions:   49000002 cycles:  232781804 heartbeat IPC: 0.16678 cumulative IPC: 0.17369 (Simulation time: 0 hr 1 min 55 sec) 
Heartbeat CPU  0 instructions:   50000000 cycles:  238488693 heartbeat IPC: 0.17523 cumulative IPC: 0.17373 (Simulation time: 0 hr 1 min 58 sec) 
Heartbeat CPU  0 instructions:   51000003 cycles:  243661739 heartbeat IPC: 0.19331 cumulative IPC: 0.17416 (Simulation time: 0 hr 2 min 0 sec) 
Heartbeat CPU  0 instructions:   52000000 cycles:  249473076 heartbeat IPC: 0.17208 cumulative IPC: 0.17411 (Simulation time: 0 hr 2 min 3 sec) 
Heartbeat CPU  0 instructions:   53000002 cycles:  254488159 heartbeat IPC: 0.19940 cumulative IPC: 0.17462 (Simulation time: 0 hr 2 min 5 sec) 
Heartbeat CPU  0 instructions:   54000000 cycles:  260432382 heartbeat IPC: 0.16823 cumulative IPC: 0.17447 (Simulation time: 0 hr 2 min 8 sec) 
Heartbeat CPU  0 instructions:   55000001 cycles:  265877647 heartbeat IPC: 0.18365 cumulative IPC: 0.17467 (Simulation time: 0 hr 2 min 11 sec) 
Heartbeat CPU  0 instructions:   56000000 cycles:  271305237 heartbeat IPC: 0.18424 cumulative IPC: 0.17486 (Simulation time: 0 hr 2 min 13 sec) 
Heartbeat CPU  0 instructions:   57000001 cycles:  276697407 heartbeat IPC: 0.18545 cumulative IPC: 0.17508 (Simulation time: 0 hr 2 min 16 sec) 
Heartbeat CPU  0 instructions:   58000000 cycles:  281473479 heartbeat IPC: 0.20938 cumulative IPC: 0.17568 (Simulation time: 0 hr 2 min 19 sec) 
Heartbeat CPU  0 instructions:   59000003 cycles:  286921080 heartbeat IPC: 0.18357 cumulative IPC: 0.17583 (Simulation time: 0 hr 2 min 21 sec) 
Heartbeat CPU  0 instructions:   60000000 cycles:  292371344 heartbeat IPC: 0.18348 cumulative IPC: 0.17598 (Simulation time: 0 hr 2 min 24 sec) 
Finished CPU 0 instructions: 50000000 cycles: 284128971 cumulative IPC: 0.17598 (Simulation time: 0 hr 2 min 24 sec) 

ChampSim completed all CPUs

[ROI Statistics]
Core_0_instructions 50000000
Core_0_cycles 284128971
Core_0_IPC 0.17598

Core_0_branch_prediction_accuracy 92.88023
Core_0_branch_MPKI 9.66558
Core_0_average_ROB_occupancy_at_mispredict 100.08604

Core_0_L1D_total_access 14900500
Core_0_L1D_total_hit 10995495
Core_0_L1D_total_miss 3905005
Core_0_L1D_loads 10772328
Core_0_L1D_load_hit 6893809
Core_0_L1D_load_miss 3878519
Core_0_L1D_RFOs 4128172
Core_0_L1D_RFO_hit 4101686
Core_0_L1D_RFO_miss 26486
Core_0_L1D_prefetches 0
Core_0_L1D_prefetch_hit 0
Core_0_L1D_prefetch_miss 0
Core_0_L1D_writebacks 0
Core_0_L1D_writeback_hit 0
Core_0_L1D_writeback_miss 0
Core_0_L1D_prefetch_requested 0
Core_0_L1D_prefetch_dropped 0
Core_0_L1D_prefetch_issued 0
Core_0_L1D_prefetch_filled 0
Core_0_L1D_prefetch_useful 0
Core_0_L1D_prefetch_useless 0
Core_0_L1D_prefetch_late 0
Core_0_L1D_average_miss_latency 182.51618

Core_0_L1D_rq_access 14924813
Core_0_L1D_rq_forward 0
Core_0_L1D_rq_merged 3961277
Core_0_L1D_rq_to_cache 10963536
Core_0_L1D_rq_full 0

Core_0_L1D_wq_access 4166785
Core_0_L1D_wq_forward 0
Core_0_L1D_wq_merged 10
Core_0_L1D_wq_to_cache 4166775
Core_0_L1D_wq_full 0

Core_0_L1D_pq_access 0
Core_0_L1D_pq_forward 0
Core_0_L1D_pq_merged 0
Core_0_L1D_pq_to_cache 0
Core_0_L1D_pq_full 0

Core_0_L1D_acc_epochs 218747
Core_0_L1D_acc_level_0 218747
Core_0_L1D_acc_level_1 0
Core_0_L1D_acc_level_2 0
Core_0_L1D_acc_level_3 0
Core_0_L1D_acc_level_4 0
Core_0_L1D_acc_level_5 0
Core_0_L1D_acc_level_6 0
Core_0_L1D_acc_level_7 0
Core_0_L1D_acc_level_8 0
Core_0_L1D_acc_level_9 0

Core_0_L1I_total_access 5270686
Core_0_L1I_total_hit 5270686
Core_0_L1I_total_miss 0
Core_0_L1I_loads 5270686
Core_0_L1I_load_hit 5270686
Core_0_L1I_load_miss 0
Core_0_L1I_RFOs 0
Core_0_L1I_RFO_hit 0
Core_0_L1I_RFO_miss 0
Core_0_L1I_prefetches 0
Core_0_L1I_prefetch_hit 0
Core_0_L1I_prefetch_miss 0
Core_0_L1I_writebacks 0
Core_0_L1I_writeback_hit 0
Core_0_L1I_writeback_miss 0
Core_0_L1I_prefetch_requested 0
Core_0_L1I_prefetch_dropped 0
Core_0_L1I_prefetch_issued 0
Core_0_L1I_prefetch_filled 0
Core_0_L1I_prefetch_useful 0
Core_0_L1I_prefetch_useless 0
Core_0_L1I_prefetch_late 0
Core_0_L1I_average_miss_latency -nan

Core_0_L1I_rq_access 49999986
Core_0_L1I_rq_forward 0
Core_0_L1I_rq_merged 44729300
Core_0_L1I_rq_to_cache 5270686
Core_0_L1I_rq_full 0

Core_0_L1I_wq_access 0
Core_0_L1I_wq_forward 0
Core_0_L1I_wq_merged 0
Core_0_L1I_wq_to_cache 0
Core_0_L1I_wq_full 0

Core_0_L1I_pq_access 0
Core_0_L1I_pq_forward 0
Core_0_L1I_pq_merged 0
Core_0_L1I_pq_to_cache 0
Core_0_L1I_pq_full 0

Core_0_L1I_acc_epochs 218747
Core_0_L1I_acc_level_0 218747
Core_0_L1I_acc_level_1 0
Core_0_L1I_acc_level_2 0
Core_0_L1I_acc_level_3 0
Core_0_L1I_acc_level_4 0
Core_0_L1I_acc_level_5 0
Core_0_L1I_acc_level_6 0
Core_0_L1I_acc_level_7 0
Core_0_L1I_acc_level_8 0
Core_0_L1I_acc_level_9 0

Core_0_L2C_total_access 5879917
Core_0_L2C_total_hit 2080592
Core_0_L2C_total_miss 3799325
Core_0_L2C_loads 3878519
Core_0_L2C_load_hit 105600
Core_0_L2C_load_miss 3772919
Core_0_L2C_RFOs 26486
Core_0_L2C_RFO_hit 125
Core_0_L2C_RFO_miss 26361
Core_0_L2C_prefetches 0
Core_0_L2C_prefetch_hit 0
Core_0_L2C_prefetch_miss 0
Core_0_L2C_writebacks 1974912
Core_0_L2C_writeback_hit 1974867
Core_0_L2C_writeback_miss 45
Core_0_L2C_prefetch_requested 0
Core_0_L2C_prefetch_dropped 0
Core_0_L2C_prefetch_issued 0
Core_0_L2C_prefetch_filled 0
Core_0_L2C_prefetch_useful 0
Core_0_L2C_prefetch_useless 0
Core_0_L2C_prefetch_late 0
Core_0_L2C_average_miss_latency 148.61400

Core_0_L2C_rq_access 3905005
Core_0_L2C_rq_forward 0
Core_0_L2C_rq_merged 0
Core_0_L2C_rq_to_cache 3905005
Core_0_L2C_rq_full 0

Core_0_L2C_wq_access 1974912
Core_0_L2C_wq_forward 0
Core_0_L2C_wq_merged 0
Core_0_L2C_wq_to_cache 1974912
Core_0_L2C_wq_full 0

Core_0_L2C_pq_access 0
Core_0_L2C_pq_forward 0
Core_0_L2C_pq_merged 0
Core_0_L2C_pq_to_cache 0
Core_0_L2C_pq_full 0

Core_0_L2C_acc_epochs 218747
Core_0_L2C_acc_level_0 218747
Core_0_L2C_acc_level_1 0
Core_0_L2C_acc_level_2 0
Core_0_L2C_acc_level_3 0
Core_0_L2C_acc_level_4 0
Core_0_L2C_acc_level_5 0
Core_0_L2C_acc_level_6 0
Core_0_L2C_acc_level_7 0
Core_0_L2C_acc_level_8 0
Core_0_L2C_acc_level_9 0

Core_0_LLC_total_access 5739610
Core_0_LLC_total_hit 3359778
Core_0_LLC_total_miss 2379832
Core_0_LLC_loads 3772917
Core_0_LLC_load_hit 1712285
Core_0_LLC_load_miss 2060632
Core_0_LLC_RFOs 26361
Core_0_LLC_RFO_hit 687
Core_0_LLC_RFO_miss 25674
Core_0_LLC_prefetches 0
Core_0_LLC_prefetch_hit 0
Core_0_LLC_prefetch_miss 0
Core_0_LLC_writebacks 1940332
Core_0_LLC_writeback_hit 1646806
Core_0_LLC_writeback_miss 293526
Core_0_LLC_prefetch_requested 0
Core_0_LLC_prefetch_dropped 0
Core_0_LLC_prefetch_issued 0
Core_0_LLC_prefetch_filled 0
Core_0_LLC_prefetch_useful 0
Core_0_LLC_prefetch_useless 0
Core_0_LLC_prefetch_late 0
Core_0_LLC_average_miss_latency 179.61601

Core_0_LLC_rq_access 3799280
Core_0_LLC_rq_forward 0
Core_0_LLC_rq_merged 0
Core_0_LLC_rq_to_cache 3799278
Core_0_LLC_rq_full 0

Core_0_LLC_wq_access 1940333
Core_0_LLC_wq_forward 2
Core_0_LLC_wq_merged 0
Core_0_LLC_wq_to_cache 1940333
Core_0_LLC_wq_full 0

Core_0_LLC_pq_access 0
Core_0_LLC_pq_forward 0
Core_0_LLC_pq_merged 0
Core_0_LLC_pq_to_cache 0
Core_0_LLC_pq_full 0

Core_0_LLC_acc_epochs 285519
Core_0_LLC_acc_level_0 285519
Core_0_LLC_acc_level_1 0
Core_0_LLC_acc_level_2 0
Core_0_LLC_acc_level_3 0
Core_0_LLC_acc_level_4 0
Core_0_LLC_acc_level_5 0
Core_0_LLC_acc_level_6 0
Core_0_LLC_acc_level_7 0
Core_0_LLC_acc_level_8 0
Core_0_LLC_acc_level_9 0

Core_0_major_page_fault 0
Core_0_minor_page_fault 8863

Channel_0_RQ_row_buffer_hit 275641
Channel_0_RQ_row_buffer_miss 1810611
Channel_0_WQ_row_buffer_hit 443791
Channel_0_WQ_row_buffer_miss 717157
Channel_0_WQ_full 0
Channel_0_dbus_congested 1406308

avg_congested_cycle 10

DRAM_bw_pochs 1142076
DRAM_bw_level_0 883060
DRAM_bw_level_1 244564
DRAM_bw_level_2 13286
DRAM_bw_level_3 1166
