*************************************************
   ChampSim Multicore Out-of-Order Simulator
   Last compiled: Apr  3 2025 20:54:34
*************************************************
parsing config file: /home/zir/Pythia/config/nopref.ini

trace_0 /home/zir/ChampSim/ML-DPC/ChampSimTraces/gap/cc-14.trace.gz
adding L2C_PREFETCHER: NONE
Initialize SHIP state
warmup_instructions 10000000
simulation_instructions 50000000
champsim_seed 101
measure_ipc 0
measure_ipc_epoch 1000
measure_dram_bw 1
measure_dram_bw_epoch 256
measure_cache_acc 1
measure_cache_acc_epoch 1024
l1d_perfect 0
l2c_perfect 0
llc_perfect 0
l1d_semi_perfect 0
l2c_semi_perfect 0
llc_semi_perfect 0
semi_perfect_cache_page_buffer_size 64

num_cpus 1
cpu_freq 4000
dram_io_freq 2400
page_size 4096
block_size 64
max_read_per_cycle 8
max_fill_per_cycle 1
dram_channels 1
log2_dram_channels 0
dram_ranks 1
dram_banks 8
dram_rows 65536
dram_columns 128
dram_row_size 8
dram_size 4096
dram_pages 1048576

fetch_width 6
decode_width 6
exec_width 4
lq_width 2
sq_width 2
retire_width 4
scheduler_size 128
branch_mispredict_penalty 20
rob_size 256
lq_size 72
sq_size 56
num_instr_destinations_sparc 4
num_instr_destinations 2
num_instr_sources 4

itlb_set 16
itlb_way 8
itlb_rq_size 16
itlb_wq_size 16
itlb_pq_size 0
itlb_mshr_size 8
itlb_latency 1

dtlb_set 16
dtlb_way 4
dtlb_rq_size 16
dtlb_wq_size 16
dtlb_pq_size 0
dtlb_mshr_size 8
dtlb_latency 1

stlb_set 128
stlb_way 12
stlb_rq_size 32
stlb_wq_size 32
stlb_pq_size 0
stlb_mshr_size 16
stlb_latency 8

l1i_size 32
l1i_set 64
l1i_way 8
l1i_rq_size 64
l1i_wq_size 64
l1i_pq_size 8
l1i_mshr_size 8
l1i_latency 1

l1d_size 32
l1d_set 64
l1d_way 8
l1d_rq_size 64
l1d_wq_size 64
l1d_pq_size 8
l1d_mshr_size 16
l1d_latency 4

l2c_size 256
l2c_set 512
l2c_way 8
l2c_rq_size 32
l2c_wq_size 32
l2c_pq_size 32
l2c_mshr_size 32
l2c_latency 10

llc_size 2048
llc_set 2048
llc_way 16
llc_rq_size 32
llc_wq_size 32
llc_pq_size 32
llc_mshr_size 64
llc_latency 20

dram_channel_width 8
dram_wq_size 64
dram_rq_size 64
tRP 15
tRCD 15
tCAS 12.5
dram_dbus_turn_around_time 30
dram_write_high_wm 56
dram_write_low_wm 48
min_dram_writes_per_switch 16
dram_mtps 2400
dram_dbus_return_time 13


Heartbeat CPU  0 instructions:    1000001 cycles:     261977 heartbeat IPC: 3.81713 cumulative IPC: 3.81713 (Simulation time: 0 hr 0 min 3 sec) 
Heartbeat CPU  0 instructions:    2000000 cycles:     781979 heartbeat IPC: 1.92307 cumulative IPC: 2.55761 (Simulation time: 0 hr 0 min 4 sec) 
Heartbeat CPU  0 instructions:    3000001 cycles:    2161542 heartbeat IPC: 0.72487 cumulative IPC: 1.38790 (Simulation time: 0 hr 0 min 5 sec) 
Heartbeat CPU  0 instructions:    4000000 cycles:    3502085 heartbeat IPC: 0.74597 cumulative IPC: 1.14218 (Simulation time: 0 hr 0 min 6 sec) 
Heartbeat CPU  0 instructions:    5000000 cycles:    4683165 heartbeat IPC: 0.84668 cumulative IPC: 1.06765 (Simulation time: 0 hr 0 min 7 sec) 
Heartbeat CPU  0 instructions:    6000000 cycles:    5863274 heartbeat IPC: 0.84738 cumulative IPC: 1.02332 (Simulation time: 0 hr 0 min 8 sec) 
Heartbeat CPU  0 instructions:    7000002 cycles:    6961039 heartbeat IPC: 0.91094 cumulative IPC: 1.00560 (Simulation time: 0 hr 0 min 9 sec) 
Heartbeat CPU  0 instructions:    8000000 cycles:    7966091 heartbeat IPC: 0.99497 cumulative IPC: 1.00426 (Simulation time: 0 hr 0 min 10 sec) 
Heartbeat CPU  0 instructions:    9000002 cycles:    8973728 heartbeat IPC: 0.99242 cumulative IPC: 1.00293 (Simulation time: 0 hr 0 min 11 sec) 
Heartbeat CPU  0 instructions:   10000000 cycles:    9918811 heartbeat IPC: 1.05811 cumulative IPC: 1.00819 (Simulation time: 0 hr 0 min 12 sec) 

Warmup complete CPU  0 instructions:   10000001 cycles:    9918812 (Simulation time: 0 hr 0 min 12 sec) 

Heartbeat CPU  0 instructions:   11000000 cycles:   15677645 heartbeat IPC: 0.17365 cumulative IPC: 0.17365 (Simulation time: 0 hr 0 min 14 sec) 
Heartbeat CPU  0 instructions:   12000000 cycles:   21438940 heartbeat IPC: 0.17357 cumulative IPC: 0.17361 (Simulation time: 0 hr 0 min 16 sec) 
Heartbeat CPU  0 instructions:   13000003 cycles:   26670352 heartbeat IPC: 0.19115 cumulative IPC: 0.17909 (Simulation time: 0 hr 0 min 19 sec) 
Heartbeat CPU  0 instructions:   14000001 cycles:   32199663 heartbeat IPC: 0.18085 cumulative IPC: 0.17953 (Simulation time: 0 hr 0 min 21 sec) 
Heartbeat CPU  0 instructions:   15000002 cycles:   38085749 heartbeat IPC: 0.16989 cumulative IPC: 0.17751 (Simulation time: 0 hr 0 min 23 sec) 
Heartbeat CPU  0 instructions:   16000000 cycles:   43817487 heartbeat IPC: 0.17447 cumulative IPC: 0.17700 (Simulation time: 0 hr 0 min 25 sec) 
Heartbeat CPU  0 instructions:   17000000 cycles:   49580615 heartbeat IPC: 0.17352 cumulative IPC: 0.17649 (Simulation time: 0 hr 0 min 27 sec) 
Heartbeat CPU  0 instructions:   18000001 cycles:   55167015 heartbeat IPC: 0.17901 cumulative IPC: 0.17680 (Simulation time: 0 hr 0 min 29 sec) 
Heartbeat CPU  0 instructions:   19000001 cycles:   60685692 heartbeat IPC: 0.18120 cumulative IPC: 0.17728 (Simulation time: 0 hr 0 min 32 sec) 
Heartbeat CPU  0 instructions:   20000000 cycles:   65702095 heartbeat IPC: 0.19935 cumulative IPC: 0.17927 (Simulation time: 0 hr 0 min 34 sec) 
Heartbeat CPU  0 instructions:   21000000 cycles:   71135938 heartbeat IPC: 0.18403 cumulative IPC: 0.17969 (Simulation time: 0 hr 0 min 36 sec) 
Heartbeat CPU  0 instructions:   22000003 cycles:   76744112 heartbeat IPC: 0.17831 cumulative IPC: 0.17957 (Simulation time: 0 hr 0 min 38 sec) 
Heartbeat CPU  0 instructions:   23000001 cycles:   82166729 heartbeat IPC: 0.18441 cumulative IPC: 0.17994 (Simulation time: 0 hr 0 min 40 sec) 
Heartbeat CPU  0 instructions:   24000000 cycles:   87246326 heartbeat IPC: 0.19687 cumulative IPC: 0.18105 (Simulation time: 0 hr 0 min 42 sec) 
Heartbeat CPU  0 instructions:   25000002 cycles:   92176516 heartbeat IPC: 0.20283 cumulative IPC: 0.18235 (Simulation time: 0 hr 0 min 45 sec) 
Heartbeat CPU  0 instructions:   26000000 cycles:   97627408 heartbeat IPC: 0.18346 cumulative IPC: 0.18242 (Simulation time: 0 hr 0 min 47 sec) 
Heartbeat CPU  0 instructions:   27000003 cycles:  103146228 heartbeat IPC: 0.18120 cumulative IPC: 0.18235 (Simulation time: 0 hr 0 min 49 sec) 
Heartbeat CPU  0 instructions:   28000000 cycles:  108506776 heartbeat IPC: 0.18655 cumulative IPC: 0.18258 (Simulation time: 0 hr 0 min 51 sec) 
Heartbeat CPU  0 instructions:   29000002 cycles:  113256588 heartbeat IPC: 0.21054 cumulative IPC: 0.18386 (Simulation time: 0 hr 0 min 53 sec) 
Heartbeat CPU  0 instructions:   30000000 cycles:  118260750 heartbeat IPC: 0.19983 cumulative IPC: 0.18460 (Simulation time: 0 hr 0 min 55 sec) 
Heartbeat CPU  0 instructions:   31000000 cycles:  123745469 heartbeat IPC: 0.18232 cumulative IPC: 0.18449 (Simulation time: 0 hr 0 min 58 sec) 
Heartbeat CPU  0 instructions:   32000000 cycles:  128716194 heartbeat IPC: 0.20118 cumulative IPC: 0.18519 (Simulation time: 0 hr 1 min 0 sec) 
Heartbeat CPU  0 instructions:   33000001 cycles:  133730782 heartbeat IPC: 0.19942 cumulative IPC: 0.18577 (Simulation time: 0 hr 1 min 2 sec) 
Heartbeat CPU  0 instructions:   34000001 cycles:  139073325 heartbeat IPC: 0.18718 cumulative IPC: 0.18582 (Simulation time: 0 hr 1 min 4 sec) 
Heartbeat CPU  0 instructions:   35000000 cycles:  143743256 heartbeat IPC: 0.21414 cumulative IPC: 0.18681 (Simulation time: 0 hr 1 min 6 sec) 
Heartbeat CPU  0 instructions:   36000000 cycles:  148913515 heartbeat IPC: 0.19341 cumulative IPC: 0.18706 (Simulation time: 0 hr 1 min 8 sec) 
Heartbeat CPU  0 instructions:   37000000 cycles:  154081626 heartbeat IPC: 0.19349 cumulative IPC: 0.18729 (Simulation time: 0 hr 1 min 11 sec) 
Heartbeat CPU  0 instructions:   38000000 cycles:  159147144 heartbeat IPC: 0.19741 cumulative IPC: 0.18763 (Simulation time: 0 hr 1 min 13 sec) 
Heartbeat CPU  0 instructions:   39000000 cycles:  164676998 heartbeat IPC: 0.18084 cumulative IPC: 0.18739 (Simulation time: 0 hr 1 min 15 sec) 
Heartbeat CPU  0 instructions:   40000000 cycles:  169694591 heartbeat IPC: 0.19930 cumulative IPC: 0.18776 (Simulation time: 0 hr 1 min 17 sec) 
Heartbeat CPU  0 instructions:   41000000 cycles:  175022956 heartbeat IPC: 0.18767 cumulative IPC: 0.18776 (Simulation time: 0 hr 1 min 19 sec) 
Heartbeat CPU  0 instructions:   42000002 cycles:  180459295 heartbeat IPC: 0.18395 cumulative IPC: 0.18764 (Simulation time: 0 hr 1 min 22 sec) 
Heartbeat CPU  0 instructions:   43000000 cycles:  186010957 heartbeat IPC: 0.18013 cumulative IPC: 0.18740 (Simulation time: 0 hr 1 min 24 sec) 
Heartbeat CPU  0 instructions:   44000000 cycles:  191384883 heartbeat IPC: 0.18608 cumulative IPC: 0.18736 (Simulation time: 0 hr 1 min 26 sec) 
Heartbeat CPU  0 instructions:   45000000 cycles:  196593466 heartbeat IPC: 0.19199 cumulative IPC: 0.18749 (Simulation time: 0 hr 1 min 28 sec) 
Heartbeat CPU  0 instructions:   46000000 cycles:  201658200 heartbeat IPC: 0.19744 cumulative IPC: 0.18775 (Simulation time: 0 hr 1 min 31 sec) 
Heartbeat CPU  0 instructions:   47000001 cycles:  206409207 heartbeat IPC: 0.21048 cumulative IPC: 0.18830 (Simulation time: 0 hr 1 min 33 sec) 
Heartbeat CPU  0 instructions:   48000000 cycles:  211010037 heartbeat IPC: 0.21735 cumulative IPC: 0.18897 (Simulation time: 0 hr 1 min 35 sec) 
Heartbeat CPU  0 instructions:   49000000 cycles:  216049771 heartbeat IPC: 0.19842 cumulative IPC: 0.18920 (Simulation time: 0 hr 1 min 37 sec) 
Heartbeat CPU  0 instructions:   50000002 cycles:  220887338 heartbeat IPC: 0.20672 cumulative IPC: 0.18960 (Simulation time: 0 hr 1 min 40 sec) 
Heartbeat CPU  0 instructions:   51000000 cycles:  226000872 heartbeat IPC: 0.19556 cumulative IPC: 0.18974 (Simulation time: 0 hr 1 min 42 sec) 
Heartbeat CPU  0 instructions:   52000000 cycles:  230785153 heartbeat IPC: 0.20902 cumulative IPC: 0.19016 (Simulation time: 0 hr 1 min 44 sec) 
Heartbeat CPU  0 instructions:   53000002 cycles:  235564019 heartbeat IPC: 0.20926 cumulative IPC: 0.19056 (Simulation time: 0 hr 1 min 47 sec) 
Heartbeat CPU  0 instructions:   54000002 cycles:  240531206 heartbeat IPC: 0.20132 cumulative IPC: 0.19080 (Simulation time: 0 hr 1 min 49 sec) 
Heartbeat CPU  0 instructions:   55000000 cycles:  245325578 heartbeat IPC: 0.20858 cumulative IPC: 0.19116 (Simulation time: 0 hr 1 min 51 sec) 
Heartbeat CPU  0 instructions:   56000000 cycles:  250707213 heartbeat IPC: 0.18582 cumulative IPC: 0.19104 (Simulation time: 0 hr 1 min 53 sec) 
Heartbeat CPU  0 instructions:   57000002 cycles:  255743504 heartbeat IPC: 0.19856 cumulative IPC: 0.19119 (Simulation time: 0 hr 1 min 56 sec) 
Heartbeat CPU  0 instructions:   58000000 cycles:  260903250 heartbeat IPC: 0.19381 cumulative IPC: 0.19125 (Simulation time: 0 hr 1 min 58 sec) 
Heartbeat CPU  0 instructions:   59000003 cycles:  266002631 heartbeat IPC: 0.19610 cumulative IPC: 0.19134 (Simulation time: 0 hr 2 min 0 sec) 
Heartbeat CPU  0 instructions:   60000000 cycles:  271468203 heartbeat IPC: 0.18296 cumulative IPC: 0.19117 (Simulation time: 0 hr 2 min 2 sec) 
Finished CPU 0 instructions: 50000000 cycles: 261549407 cumulative IPC: 0.19117 (Simulation time: 0 hr 2 min 2 sec) 

ChampSim completed all CPUs

[ROI Statistics]
Core_0_instructions 50000000
Core_0_cycles 261549407
Core_0_IPC 0.19117

Core_0_branch_prediction_accuracy 91.20795
Core_0_branch_MPKI 17.50296
Core_0_average_ROB_occupancy_at_mispredict 49.86834

Core_0_L1D_total_access 10393293
Core_0_L1D_total_hit 6693453
Core_0_L1D_total_miss 3699840
Core_0_L1D_loads 10155790
Core_0_L1D_load_hit 6455950
Core_0_L1D_load_miss 3699840
Core_0_L1D_RFOs 237503
Core_0_L1D_RFO_hit 237503
Core_0_L1D_RFO_miss 0
Core_0_L1D_prefetches 0
Core_0_L1D_prefetch_hit 0
Core_0_L1D_prefetch_miss 0
Core_0_L1D_writebacks 0
Core_0_L1D_writeback_hit 0
Core_0_L1D_writeback_miss 0
Core_0_L1D_prefetch_requested 0
Core_0_L1D_prefetch_dropped 0
Core_0_L1D_prefetch_issued 0
Core_0_L1D_prefetch_filled 0
Core_0_L1D_prefetch_useful 0
Core_0_L1D_prefetch_useless 0
Core_0_L1D_prefetch_late 0
Core_0_L1D_average_miss_latency 81.16034

Core_0_L1D_rq_access 13428803
Core_0_L1D_rq_forward 0
Core_0_L1D_rq_merged 2954341
Core_0_L1D_rq_to_cache 10474462
Core_0_L1D_rq_full 0

Core_0_L1D_wq_access 237503
Core_0_L1D_wq_forward 0
Core_0_L1D_wq_merged 0
Core_0_L1D_wq_to_cache 237503
Core_0_L1D_wq_full 0

Core_0_L1D_pq_access 0
Core_0_L1D_pq_forward 0
Core_0_L1D_pq_merged 0
Core_0_L1D_pq_to_cache 0
Core_0_L1D_pq_full 0

Core_0_L1D_acc_epochs 264762
Core_0_L1D_acc_level_0 264762
Core_0_L1D_acc_level_1 0
Core_0_L1D_acc_level_2 0
Core_0_L1D_acc_level_3 0
Core_0_L1D_acc_level_4 0
Core_0_L1D_acc_level_5 0
Core_0_L1D_acc_level_6 0
Core_0_L1D_acc_level_7 0
Core_0_L1D_acc_level_8 0
Core_0_L1D_acc_level_9 0

Core_0_L1I_total_access 9801300
Core_0_L1I_total_hit 9801300
Core_0_L1I_total_miss 0
Core_0_L1I_loads 9801300
Core_0_L1I_load_hit 9801300
Core_0_L1I_load_miss 0
Core_0_L1I_RFOs 0
Core_0_L1I_RFO_hit 0
Core_0_L1I_RFO_miss 0
Core_0_L1I_prefetches 0
Core_0_L1I_prefetch_hit 0
Core_0_L1I_prefetch_miss 0
Core_0_L1I_writebacks 0
Core_0_L1I_writeback_hit 0
Core_0_L1I_writeback_miss 0
Core_0_L1I_prefetch_requested 0
Core_0_L1I_prefetch_dropped 0
Core_0_L1I_prefetch_issued 0
Core_0_L1I_prefetch_filled 0
Core_0_L1I_prefetch_useful 0
Core_0_L1I_prefetch_useless 0
Core_0_L1I_prefetch_late 0
Core_0_L1I_average_miss_latency -nan

Core_0_L1I_rq_access 50000254
Core_0_L1I_rq_forward 0
Core_0_L1I_rq_merged 40198954
Core_0_L1I_rq_to_cache 9801300
Core_0_L1I_rq_full 0

Core_0_L1I_wq_access 0
Core_0_L1I_wq_forward 0
Core_0_L1I_wq_merged 0
Core_0_L1I_wq_to_cache 0
Core_0_L1I_wq_full 0

Core_0_L1I_pq_access 0
Core_0_L1I_pq_forward 0
Core_0_L1I_pq_merged 0
Core_0_L1I_pq_to_cache 0
Core_0_L1I_pq_full 0

Core_0_L1I_acc_epochs 264762
Core_0_L1I_acc_level_0 264762
Core_0_L1I_acc_level_1 0
Core_0_L1I_acc_level_2 0
Core_0_L1I_acc_level_3 0
Core_0_L1I_acc_level_4 0
Core_0_L1I_acc_level_5 0
Core_0_L1I_acc_level_6 0
Core_0_L1I_acc_level_7 0
Core_0_L1I_acc_level_8 0
Core_0_L1I_acc_level_9 0

Core_0_L2C_total_access 3904363
Core_0_L2C_total_hit 892699
Core_0_L2C_total_miss 3011664
Core_0_L2C_loads 3699840
Core_0_L2C_load_hit 688342
Core_0_L2C_load_miss 3011498
Core_0_L2C_RFOs 0
Core_0_L2C_RFO_hit 0
Core_0_L2C_RFO_miss 0
Core_0_L2C_prefetches 0
Core_0_L2C_prefetch_hit 0
Core_0_L2C_prefetch_miss 0
Core_0_L2C_writebacks 204523
Core_0_L2C_writeback_hit 204357
Core_0_L2C_writeback_miss 166
Core_0_L2C_prefetch_requested 0
Core_0_L2C_prefetch_dropped 0
Core_0_L2C_prefetch_issued 0
Core_0_L2C_prefetch_filled 0
Core_0_L2C_prefetch_useful 0
Core_0_L2C_prefetch_useless 0
Core_0_L2C_prefetch_late 0
Core_0_L2C_average_miss_latency 82.25074

Core_0_L2C_rq_access 3699840
Core_0_L2C_rq_forward 0
Core_0_L2C_rq_merged 0
Core_0_L2C_rq_to_cache 3699840
Core_0_L2C_rq_full 0

Core_0_L2C_wq_access 204523
Core_0_L2C_wq_forward 0
Core_0_L2C_wq_merged 0
Core_0_L2C_wq_to_cache 204523
Core_0_L2C_wq_full 0

Core_0_L2C_pq_access 0
Core_0_L2C_pq_forward 0
Core_0_L2C_pq_merged 0
Core_0_L2C_pq_to_cache 0
Core_0_L2C_pq_full 0

Core_0_L2C_acc_epochs 264762
Core_0_L2C_acc_level_0 264762
Core_0_L2C_acc_level_1 0
Core_0_L2C_acc_level_2 0
Core_0_L2C_acc_level_3 0
Core_0_L2C_acc_level_4 0
Core_0_L2C_acc_level_5 0
Core_0_L2C_acc_level_6 0
Core_0_L2C_acc_level_7 0
Core_0_L2C_acc_level_8 0
Core_0_L2C_acc_level_9 0

Core_0_LLC_total_access 3215818
Core_0_LLC_total_hit 2353014
Core_0_LLC_total_miss 862804
Core_0_LLC_loads 3011498
Core_0_LLC_load_hit 2149095
Core_0_LLC_load_miss 862403
Core_0_LLC_RFOs 0
Core_0_LLC_RFO_hit 0
Core_0_LLC_RFO_miss 0
Core_0_LLC_prefetches 0
Core_0_LLC_prefetch_hit 0
Core_0_LLC_prefetch_miss 0
Core_0_LLC_writebacks 204320
Core_0_LLC_writeback_hit 203919
Core_0_LLC_writeback_miss 401
Core_0_LLC_prefetch_requested 0
Core_0_LLC_prefetch_dropped 0
Core_0_LLC_prefetch_issued 0
Core_0_LLC_prefetch_filled 0
Core_0_LLC_prefetch_useful 0
Core_0_LLC_prefetch_useless 0
Core_0_LLC_prefetch_late 0
Core_0_LLC_average_miss_latency 182.34823

Core_0_LLC_rq_access 3011498
Core_0_LLC_rq_forward 0
Core_0_LLC_rq_merged 0
Core_0_LLC_rq_to_cache 3011498
Core_0_LLC_rq_full 0

Core_0_LLC_wq_access 204320
Core_0_LLC_wq_forward 0
Core_0_LLC_wq_merged 0
Core_0_LLC_wq_to_cache 204320
Core_0_LLC_wq_full 0

Core_0_LLC_pq_access 0
Core_0_LLC_pq_forward 0
Core_0_LLC_pq_merged 0
Core_0_LLC_pq_to_cache 0
Core_0_LLC_pq_full 0

Core_0_LLC_acc_epochs 265106
Core_0_LLC_acc_level_0 265106
Core_0_LLC_acc_level_1 0
Core_0_LLC_acc_level_2 0
Core_0_LLC_acc_level_3 0
Core_0_LLC_acc_level_4 0
Core_0_LLC_acc_level_5 0
Core_0_LLC_acc_level_6 0
Core_0_LLC_acc_level_7 0
Core_0_LLC_acc_level_8 0
Core_0_LLC_acc_level_9 0

Core_0_major_page_fault 0
Core_0_minor_page_fault 5185

Channel_0_RQ_row_buffer_hit 108108
Channel_0_RQ_row_buffer_miss 754287
Channel_0_WQ_row_buffer_hit 54206
Channel_0_WQ_row_buffer_miss 114992
Channel_0_WQ_full 0
Channel_0_dbus_congested 126809

avg_congested_cycle 8

DRAM_bw_pochs 1060423
DRAM_bw_level_0 1052532
DRAM_bw_level_1 7891
DRAM_bw_level_2 0
DRAM_bw_level_3 0
