*************************************************
   ChampSim Multicore Out-of-Order Simulator
   Last compiled: Apr  3 2025 20:54:34
*************************************************
parsing config file: /home/zir/Pythia/config/mlop.ini

trace_0 /home/zir/ChampSim/ML-DPC/ChampSimTraces/gap/pr-10.trace.gz
adding L2C_PREFETCHER: MLOP
Initialize SHIP state
warmup_instructions 10000000
simulation_instructions 50000000
champsim_seed 97
measure_ipc 0
measure_ipc_epoch 1000
measure_dram_bw 1
measure_dram_bw_epoch 256
measure_cache_acc 1
measure_cache_acc_epoch 1024
l1d_perfect 0
l2c_perfect 0
llc_perfect 0
l1d_semi_perfect 0
l2c_semi_perfect 0
llc_semi_perfect 0
semi_perfect_cache_page_buffer_size 64

num_cpus 1
cpu_freq 4000
dram_io_freq 2400
page_size 4096
block_size 64
max_read_per_cycle 8
max_fill_per_cycle 1
dram_channels 1
log2_dram_channels 0
dram_ranks 1
dram_banks 8
dram_rows 65536
dram_columns 128
dram_row_size 8
dram_size 4096
dram_pages 1048576

fetch_width 6
decode_width 6
exec_width 4
lq_width 2
sq_width 2
retire_width 4
scheduler_size 128
branch_mispredict_penalty 20
rob_size 256
lq_size 72
sq_size 56
num_instr_destinations_sparc 4
num_instr_destinations 2
num_instr_sources 4

itlb_set 16
itlb_way 8
itlb_rq_size 16
itlb_wq_size 16
itlb_pq_size 0
itlb_mshr_size 8
itlb_latency 1

dtlb_set 16
dtlb_way 4
dtlb_rq_size 16
dtlb_wq_size 16
dtlb_pq_size 0
dtlb_mshr_size 8
dtlb_latency 1

stlb_set 128
stlb_way 12
stlb_rq_size 32
stlb_wq_size 32
stlb_pq_size 0
stlb_mshr_size 16
stlb_latency 8

l1i_size 32
l1i_set 64
l1i_way 8
l1i_rq_size 64
l1i_wq_size 64
l1i_pq_size 8
l1i_mshr_size 8
l1i_latency 1

l1d_size 32
l1d_set 64
l1d_way 8
l1d_rq_size 64
l1d_wq_size 64
l1d_pq_size 8
l1d_mshr_size 16
l1d_latency 4

l2c_size 256
l2c_set 512
l2c_way 8
l2c_rq_size 32
l2c_wq_size 32
l2c_pq_size 32
l2c_mshr_size 32
l2c_latency 10

llc_size 2048
llc_set 2048
llc_way 16
llc_rq_size 32
llc_wq_size 32
llc_pq_size 32
llc_mshr_size 64
llc_latency 20

dram_channel_width 8
dram_wq_size 64
dram_rq_size 64
tRP 15
tRCD 15
tCAS 12.5
dram_dbus_turn_around_time 30
dram_write_high_wm 56
dram_write_low_wm 48
min_dram_writes_per_switch 16
dram_mtps 2400
dram_dbus_return_time 13

mlop_pref_degree 16
mlop_num_updates 500
mlop_l1d_thresh 2
mlop_l2c_thresh 0.75
mlop_llc_thresh 0.3
mlop_debug_level 0
mlop_blocks_in_cache 4096
mlop_blocks_in_zone 64
mlop_amt_size 2048
mlop_PF_DEGREE 16
mlop_NUM_UPDATES 500
mlop_L1D_THRESH 1000
mlop_L2C_THRESH 375
mlop_LLC_THRESH 150
mlop_ORIGIN 63
mlop_MAX_OFFSET 63
mlop_MIN_OFFSET -63
mlop_ORIGIN 63
mlop_NUM_OFFSETS 127


Heartbeat CPU  0 instructions:    1000003 cycles:     405502 heartbeat IPC: 2.46609 cumulative IPC: 2.46609 (Simulation time: 0 hr 0 min 2 sec) 
Heartbeat CPU  0 instructions:    2000000 cycles:     806152 heartbeat IPC: 2.49594 cumulative IPC: 2.48092 (Simulation time: 0 hr 0 min 3 sec) 
Heartbeat CPU  0 instructions:    3000000 cycles:    1206797 heartbeat IPC: 2.49598 cumulative IPC: 2.48592 (Simulation time: 0 hr 0 min 4 sec) 
Heartbeat CPU  0 instructions:    4000000 cycles:    1607446 heartbeat IPC: 2.49595 cumulative IPC: 2.48842 (Simulation time: 0 hr 0 min 6 sec) 
Heartbeat CPU  0 instructions:    5000003 cycles:    2008132 heartbeat IPC: 2.49573 cumulative IPC: 2.48988 (Simulation time: 0 hr 0 min 7 sec) 
Heartbeat CPU  0 instructions:    6000003 cycles:    2408777 heartbeat IPC: 2.49598 cumulative IPC: 2.49089 (Simulation time: 0 hr 0 min 9 sec) 
Heartbeat CPU  0 instructions:    7000000 cycles:    2809426 heartbeat IPC: 2.49594 cumulative IPC: 2.49161 (Simulation time: 0 hr 0 min 10 sec) 
Heartbeat CPU  0 instructions:    8000000 cycles:    3210074 heartbeat IPC: 2.49596 cumulative IPC: 2.49215 (Simulation time: 0 hr 0 min 12 sec) 
Heartbeat CPU  0 instructions:    9000001 cycles:    3610758 heartbeat IPC: 2.49573 cumulative IPC: 2.49255 (Simulation time: 0 hr 0 min 13 sec) 
Heartbeat CPU  0 instructions:   10000003 cycles:    4011405 heartbeat IPC: 2.49597 cumulative IPC: 2.49289 (Simulation time: 0 hr 0 min 15 sec) 

Warmup complete CPU  0 instructions:   10000003 cycles:    4011405 (Simulation time: 0 hr 0 min 15 sec) 

Heartbeat CPU  0 instructions:   11000001 cycles:    4760309 heartbeat IPC: 1.33528 cumulative IPC: 1.33528 (Simulation time: 0 hr 0 min 17 sec) 
Heartbeat CPU  0 instructions:   12000000 cycles:   16189638 heartbeat IPC: 0.08749 cumulative IPC: 0.16423 (Simulation time: 0 hr 0 min 22 sec) 
Heartbeat CPU  0 instructions:   13000000 cycles:   36688693 heartbeat IPC: 0.04878 cumulative IPC: 0.09181 (Simulation time: 0 hr 0 min 30 sec) 
Heartbeat CPU  0 instructions:   14000003 cycles:   56842863 heartbeat IPC: 0.04962 cumulative IPC: 0.07571 (Simulation time: 0 hr 0 min 38 sec) 
Heartbeat CPU  0 instructions:   15000000 cycles:   77134742 heartbeat IPC: 0.04928 cumulative IPC: 0.06838 (Simulation time: 0 hr 0 min 46 sec) 
Heartbeat CPU  0 instructions:   16000000 cycles:   97358990 heartbeat IPC: 0.04945 cumulative IPC: 0.06428 (Simulation time: 0 hr 0 min 55 sec) 
Heartbeat CPU  0 instructions:   17000003 cycles:  117161611 heartbeat IPC: 0.05050 cumulative IPC: 0.06186 (Simulation time: 0 hr 1 min 3 sec) 
Heartbeat CPU  0 instructions:   18000002 cycles:  137023901 heartbeat IPC: 0.05035 cumulative IPC: 0.06014 (Simulation time: 0 hr 1 min 10 sec) 
Heartbeat CPU  0 instructions:   19000001 cycles:  157035609 heartbeat IPC: 0.04997 cumulative IPC: 0.05881 (Simulation time: 0 hr 1 min 18 sec) 
Heartbeat CPU  0 instructions:   20000000 cycles:  177024015 heartbeat IPC: 0.05003 cumulative IPC: 0.05780 (Simulation time: 0 hr 1 min 26 sec) 
Heartbeat CPU  0 instructions:   21000003 cycles:  197066363 heartbeat IPC: 0.04989 cumulative IPC: 0.05698 (Simulation time: 0 hr 1 min 34 sec) 
Heartbeat CPU  0 instructions:   22000000 cycles:  217046058 heartbeat IPC: 0.05005 cumulative IPC: 0.05633 (Simulation time: 0 hr 1 min 42 sec) 
Heartbeat CPU  0 instructions:   23000002 cycles:  237013835 heartbeat IPC: 0.05008 cumulative IPC: 0.05579 (Simulation time: 0 hr 1 min 50 sec) 
Heartbeat CPU  0 instructions:   24000000 cycles:  256817121 heartbeat IPC: 0.05050 cumulative IPC: 0.05538 (Simulation time: 0 hr 1 min 58 sec) 
Heartbeat CPU  0 instructions:   25000001 cycles:  276820925 heartbeat IPC: 0.04999 cumulative IPC: 0.05498 (Simulation time: 0 hr 2 min 6 sec) 
Heartbeat CPU  0 instructions:   26000003 cycles:  296873114 heartbeat IPC: 0.04987 cumulative IPC: 0.05463 (Simulation time: 0 hr 2 min 14 sec) 
Heartbeat CPU  0 instructions:   27000000 cycles:  316967084 heartbeat IPC: 0.04977 cumulative IPC: 0.05432 (Simulation time: 0 hr 2 min 23 sec) 
Heartbeat CPU  0 instructions:   28000000 cycles:  336405486 heartbeat IPC: 0.05144 cumulative IPC: 0.05415 (Simulation time: 0 hr 2 min 30 sec) 
Heartbeat CPU  0 instructions:   29000000 cycles:  356436874 heartbeat IPC: 0.04992 cumulative IPC: 0.05391 (Simulation time: 0 hr 2 min 38 sec) 
Heartbeat CPU  0 instructions:   30000002 cycles:  376342683 heartbeat IPC: 0.05024 cumulative IPC: 0.05372 (Simulation time: 0 hr 2 min 46 sec) 
Heartbeat CPU  0 instructions:   31000000 cycles:  396264554 heartbeat IPC: 0.05020 cumulative IPC: 0.05354 (Simulation time: 0 hr 2 min 55 sec) 
Heartbeat CPU  0 instructions:   32000000 cycles:  415800637 heartbeat IPC: 0.05119 cumulative IPC: 0.05343 (Simulation time: 0 hr 3 min 2 sec) 
Heartbeat CPU  0 instructions:   33000000 cycles:  435898029 heartbeat IPC: 0.04976 cumulative IPC: 0.05325 (Simulation time: 0 hr 3 min 10 sec) 
Heartbeat CPU  0 instructions:   34000002 cycles:  455840125 heartbeat IPC: 0.05015 cumulative IPC: 0.05312 (Simulation time: 0 hr 3 min 18 sec) 
Heartbeat CPU  0 instructions:   35000000 cycles:  475910593 heartbeat IPC: 0.04982 cumulative IPC: 0.05298 (Simulation time: 0 hr 3 min 26 sec) 
Heartbeat CPU  0 instructions:   36000000 cycles:  495796016 heartbeat IPC: 0.05029 cumulative IPC: 0.05287 (Simulation time: 0 hr 3 min 34 sec) 
Heartbeat CPU  0 instructions:   37000000 cycles:  515730657 heartbeat IPC: 0.05016 cumulative IPC: 0.05276 (Simulation time: 0 hr 3 min 42 sec) 
Heartbeat CPU  0 instructions:   38000001 cycles:  535561492 heartbeat IPC: 0.05043 cumulative IPC: 0.05268 (Simulation time: 0 hr 3 min 50 sec) 
Heartbeat CPU  0 instructions:   39000000 cycles:  555695122 heartbeat IPC: 0.04967 cumulative IPC: 0.05257 (Simulation time: 0 hr 3 min 58 sec) 
Heartbeat CPU  0 instructions:   40000000 cycles:  575685608 heartbeat IPC: 0.05002 cumulative IPC: 0.05248 (Simulation time: 0 hr 4 min 6 sec) 
Heartbeat CPU  0 instructions:   41000001 cycles:  595368773 heartbeat IPC: 0.05080 cumulative IPC: 0.05242 (Simulation time: 0 hr 4 min 14 sec) 
Heartbeat CPU  0 instructions:   42000000 cycles:  615048491 heartbeat IPC: 0.05081 cumulative IPC: 0.05237 (Simulation time: 0 hr 4 min 22 sec) 
Heartbeat CPU  0 instructions:   43000001 cycles:  635089522 heartbeat IPC: 0.04990 cumulative IPC: 0.05229 (Simulation time: 0 hr 4 min 30 sec) 
Heartbeat CPU  0 instructions:   44000000 cycles:  655108284 heartbeat IPC: 0.04995 cumulative IPC: 0.05222 (Simulation time: 0 hr 4 min 38 sec) 
Heartbeat CPU  0 instructions:   45000000 cycles:  674345363 heartbeat IPC: 0.05198 cumulative IPC: 0.05221 (Simulation time: 0 hr 4 min 46 sec) 
Heartbeat CPU  0 instructions:   46000000 cycles:  694240341 heartbeat IPC: 0.05026 cumulative IPC: 0.05216 (Simulation time: 0 hr 4 min 54 sec) 
Heartbeat CPU  0 instructions:   47000000 cycles:  714345324 heartbeat IPC: 0.04974 cumulative IPC: 0.05209 (Simulation time: 0 hr 5 min 2 sec) 
Heartbeat CPU  0 instructions:   48000000 cycles:  733927899 heartbeat IPC: 0.05107 cumulative IPC: 0.05206 (Simulation time: 0 hr 5 min 10 sec) 
Heartbeat CPU  0 instructions:   49000001 cycles:  753390157 heartbeat IPC: 0.05138 cumulative IPC: 0.05204 (Simulation time: 0 hr 5 min 18 sec) 
Heartbeat CPU  0 instructions:   50000000 cycles:  773338455 heartbeat IPC: 0.05013 cumulative IPC: 0.05199 (Simulation time: 0 hr 5 min 26 sec) 
Heartbeat CPU  0 instructions:   51000003 cycles:  793372131 heartbeat IPC: 0.04992 cumulative IPC: 0.05194 (Simulation time: 0 hr 5 min 34 sec) 
Heartbeat CPU  0 instructions:   52000000 cycles:  813268466 heartbeat IPC: 0.05026 cumulative IPC: 0.05190 (Simulation time: 0 hr 5 min 42 sec) 
Heartbeat CPU  0 instructions:   53000000 cycles:  833374204 heartbeat IPC: 0.04974 cumulative IPC: 0.05185 (Simulation time: 0 hr 5 min 50 sec) 
Heartbeat CPU  0 instructions:   54000003 cycles:  853266021 heartbeat IPC: 0.05027 cumulative IPC: 0.05181 (Simulation time: 0 hr 5 min 58 sec) 
Heartbeat CPU  0 instructions:   55000003 cycles:  873276147 heartbeat IPC: 0.04997 cumulative IPC: 0.05177 (Simulation time: 0 hr 6 min 6 sec) 
Heartbeat CPU  0 instructions:   56000000 cycles:  893231935 heartbeat IPC: 0.05011 cumulative IPC: 0.05173 (Simulation time: 0 hr 6 min 14 sec) 
Heartbeat CPU  0 instructions:   57000001 cycles:  913171792 heartbeat IPC: 0.05015 cumulative IPC: 0.05170 (Simulation time: 0 hr 6 min 22 sec) 
Heartbeat CPU  0 instructions:   58000002 cycles:  933074514 heartbeat IPC: 0.05024 cumulative IPC: 0.05166 (Simulation time: 0 hr 6 min 30 sec) 
Heartbeat CPU  0 instructions:   59000000 cycles:  953082307 heartbeat IPC: 0.04998 cumulative IPC: 0.05163 (Simulation time: 0 hr 6 min 38 sec) 
Heartbeat CPU  0 instructions:   60000000 cycles:  973104922 heartbeat IPC: 0.04994 cumulative IPC: 0.05159 (Simulation time: 0 hr 6 min 46 sec) 
Finished CPU 0 instructions: 50000001 cycles: 969093553 cumulative IPC: 0.05159 (Simulation time: 0 hr 6 min 46 sec) 

ChampSim completed all CPUs

[ROI Statistics]
Core_0_instructions 50000001
Core_0_cycles 969093553
Core_0_IPC 0.05159

Core_0_branch_prediction_accuracy 96.89645
Core_0_branch_MPKI 5.83534
Core_0_average_ROB_occupancy_at_mispredict 133.80824

Core_0_L1D_total_access 16321669
Core_0_L1D_total_hit 7328516
Core_0_L1D_total_miss 8993153
Core_0_L1D_loads 15743263
Core_0_L1D_load_hit 6758843
Core_0_L1D_load_miss 8984420
Core_0_L1D_RFOs 578406
Core_0_L1D_RFO_hit 569673
Core_0_L1D_RFO_miss 8733
Core_0_L1D_prefetches 0
Core_0_L1D_prefetch_hit 0
Core_0_L1D_prefetch_miss 0
Core_0_L1D_writebacks 0
Core_0_L1D_writeback_hit 0
Core_0_L1D_writeback_miss 0
Core_0_L1D_prefetch_requested 0
Core_0_L1D_prefetch_dropped 0
Core_0_L1D_prefetch_issued 0
Core_0_L1D_prefetch_filled 0
Core_0_L1D_prefetch_useful 0
Core_0_L1D_prefetch_useless 0
Core_0_L1D_prefetch_late 0
Core_0_L1D_average_miss_latency 89.45826

Core_0_L1D_rq_access 19508059
Core_0_L1D_rq_forward 0
Core_0_L1D_rq_merged 3229412
Core_0_L1D_rq_to_cache 16278647
Core_0_L1D_rq_full 0

Core_0_L1D_wq_access 705956
Core_0_L1D_wq_forward 0
Core_0_L1D_wq_merged 0
Core_0_L1D_wq_to_cache 705956
Core_0_L1D_wq_full 0

Core_0_L1D_pq_access 0
Core_0_L1D_pq_forward 0
Core_0_L1D_pq_merged 0
Core_0_L1D_pq_to_cache 0
Core_0_L1D_pq_full 0

Core_0_L1D_acc_epochs 949271
Core_0_L1D_acc_level_0 949271
Core_0_L1D_acc_level_1 0
Core_0_L1D_acc_level_2 0
Core_0_L1D_acc_level_3 0
Core_0_L1D_acc_level_4 0
Core_0_L1D_acc_level_5 0
Core_0_L1D_acc_level_6 0
Core_0_L1D_acc_level_7 0
Core_0_L1D_acc_level_8 0
Core_0_L1D_acc_level_9 0

Core_0_L1I_total_access 9491641
Core_0_L1I_total_hit 9491639
Core_0_L1I_total_miss 2
Core_0_L1I_loads 9491641
Core_0_L1I_load_hit 9491639
Core_0_L1I_load_miss 2
Core_0_L1I_RFOs 0
Core_0_L1I_RFO_hit 0
Core_0_L1I_RFO_miss 0
Core_0_L1I_prefetches 0
Core_0_L1I_prefetch_hit 0
Core_0_L1I_prefetch_miss 0
Core_0_L1I_writebacks 0
Core_0_L1I_writeback_hit 0
Core_0_L1I_writeback_miss 0
Core_0_L1I_prefetch_requested 0
Core_0_L1I_prefetch_dropped 0
Core_0_L1I_prefetch_issued 0
Core_0_L1I_prefetch_filled 0
Core_0_L1I_prefetch_useful 0
Core_0_L1I_prefetch_useless 0
Core_0_L1I_prefetch_late 0
Core_0_L1I_average_miss_latency 237.00000

Core_0_L1I_rq_access 50000006
Core_0_L1I_rq_forward 0
Core_0_L1I_rq_merged 40508363
Core_0_L1I_rq_to_cache 9491643
Core_0_L1I_rq_full 0

Core_0_L1I_wq_access 0
Core_0_L1I_wq_forward 0
Core_0_L1I_wq_merged 0
Core_0_L1I_wq_to_cache 0
Core_0_L1I_wq_full 0

Core_0_L1I_pq_access 0
Core_0_L1I_pq_forward 0
Core_0_L1I_pq_merged 0
Core_0_L1I_pq_to_cache 0
Core_0_L1I_pq_full 0

Core_0_L1I_acc_epochs 949271
Core_0_L1I_acc_level_0 949271
Core_0_L1I_acc_level_1 0
Core_0_L1I_acc_level_2 0
Core_0_L1I_acc_level_3 0
Core_0_L1I_acc_level_4 0
Core_0_L1I_acc_level_5 0
Core_0_L1I_acc_level_6 0
Core_0_L1I_acc_level_7 0
Core_0_L1I_acc_level_8 0
Core_0_L1I_acc_level_9 0

Core_0_L2C_total_access 10513551
Core_0_L2C_total_hit 1930813
Core_0_L2C_total_miss 8582738
Core_0_L2C_loads 8984421
Core_0_L2C_load_hit 1898192
Core_0_L2C_load_miss 7086229
Core_0_L2C_RFOs 8733
Core_0_L2C_RFO_hit 0
Core_0_L2C_RFO_miss 8733
Core_0_L2C_prefetches 1487434
Core_0_L2C_prefetch_hit 16
Core_0_L2C_prefetch_miss 1487418
Core_0_L2C_writebacks 32963
Core_0_L2C_writeback_hit 32605
Core_0_L2C_writeback_miss 358
Core_0_L2C_prefetch_requested 2895881
Core_0_L2C_prefetch_dropped 0
Core_0_L2C_prefetch_issued 2895881
Core_0_L2C_prefetch_filled 1654922
Core_0_L2C_prefetch_useful 859809
Core_0_L2C_prefetch_useless 794666
Core_0_L2C_prefetch_late 8120
Core_0_L2C_average_miss_latency 87.92427

Core_0_L2C_rq_access 8993155
Core_0_L2C_rq_forward 0
Core_0_L2C_rq_merged 0
Core_0_L2C_rq_to_cache 8993154
Core_0_L2C_rq_full 0

Core_0_L2C_wq_access 32963
Core_0_L2C_wq_forward 1
Core_0_L2C_wq_merged 0
Core_0_L2C_wq_to_cache 32963
Core_0_L2C_wq_full 0

Core_0_L2C_pq_access 2895881
Core_0_L2C_pq_forward 0
Core_0_L2C_pq_merged 1
Core_0_L2C_pq_to_cache 2895880
Core_0_L2C_pq_full 0

Core_0_L2C_acc_epochs 949271
Core_0_L2C_acc_level_0 199840
Core_0_L2C_acc_level_1 168890
Core_0_L2C_acc_level_2 139138
Core_0_L2C_acc_level_3 140507
Core_0_L2C_acc_level_4 57160
Core_0_L2C_acc_level_5 105290
Core_0_L2C_acc_level_6 60749
Core_0_L2C_acc_level_7 35386
Core_0_L2C_acc_level_8 15231
Core_0_L2C_acc_level_9 27080

Core_0_LLC_total_access 9801806
Core_0_LLC_total_hit 6378522
Core_0_LLC_total_miss 3423284
Core_0_LLC_loads 7078109
Core_0_LLC_load_hit 4411469
Core_0_LLC_load_miss 2666640
Core_0_LLC_RFOs 8733
Core_0_LLC_RFO_hit 0
Core_0_LLC_RFO_miss 8733
Core_0_LLC_prefetches 2686641
Core_0_LLC_prefetch_hit 1948653
Core_0_LLC_prefetch_miss 737988
Core_0_LLC_writebacks 28323
Core_0_LLC_writeback_hit 18400
Core_0_LLC_writeback_miss 9923
Core_0_LLC_prefetch_requested 0
Core_0_LLC_prefetch_dropped 0
Core_0_LLC_prefetch_issued 0
Core_0_LLC_prefetch_filled 905493
Core_0_LLC_prefetch_useful 40659
Core_0_LLC_prefetch_useless 857114
Core_0_LLC_prefetch_late 622
Core_0_LLC_average_miss_latency 180.26658

Core_0_LLC_rq_access 7086842
Core_0_LLC_rq_forward 0
Core_0_LLC_rq_merged 0
Core_0_LLC_rq_to_cache 7086842
Core_0_LLC_rq_full 0

Core_0_LLC_wq_access 28323
Core_0_LLC_wq_forward 0
Core_0_LLC_wq_merged 0
Core_0_LLC_wq_to_cache 28323
Core_0_LLC_wq_full 0

Core_0_LLC_pq_access 2895854
Core_0_LLC_pq_forward 0
Core_0_LLC_pq_merged 1103
Core_0_LLC_pq_to_cache 2894751
Core_0_LLC_pq_full 0

Core_0_LLC_acc_epochs 950298
Core_0_LLC_acc_level_0 909335
Core_0_LLC_acc_level_1 14846
Core_0_LLC_acc_level_2 11487
Core_0_LLC_acc_level_3 2579
Core_0_LLC_acc_level_4 662
Core_0_LLC_acc_level_5 7835
Core_0_LLC_acc_level_6 1101
Core_0_LLC_acc_level_7 932
Core_0_LLC_acc_level_8 363
Core_0_LLC_acc_level_9 1158

Core_0_major_page_fault 0
Core_0_minor_page_fault 12637

[MLOP] History of tracked zone:
IIIIIIIIIIIIIIIIIIIIIIIIIIIIIIIIIIIIIIIIIIIIIIIIIIIIIIIIIIIIIIII
A2222222222222222IIIIIIIIIIIIIIIIIIIIIIIIIIIIIIIIIIIIIIIIIIIIIII
AA2222222222222222IIIIIIIIIIIIIIIIIIIIIIIIIIIIIIIIIIIIIIIIIIIIII
AAA2222222222222222IIIIIIIIIIIIIIIIIIIIIIIIIIIIIIIIIIIIIIIIIIIII
AAAA2222222222222222IIIIIIIIIIIIIIIIIIIIIIIIIIIIIIIIIIIIIIIIIIII
AAAAA2222222222222222IIIIIIIIIIIIIIIIIIIIIIIIIIIIIIIIIIIIIIIIIII
AAAAAA2222222222222222IIIIIIIIIIIIIIIIIIIIIIIIIIIIIIIIIIIIIIIIII
AAAAAAA2222222222222222IIIIIIIIIIIIIIIIIIIIIIIIIIIIIIIIIIIIIIIII
AAAAAAAA2222222222222222IIIIIIIIIIIIIIIIIIIIIIIIIIIIIIIIIIIIIIII
AAAAAAAAA2222222222222222IIIIIIIIIIIIIIIIIIIIIIIIIIIIIIIIIIIIIII
AAAAAAAAAA2222222222222222IIIIIIIIIIIIIIIIIIIIIIIIIIIIIIIIIIIIII
AAAAAAAAAAA2222222222222222IIIIIIIIIIIIIIIIIIIIIIIIIIIIIIIIIIIII
AAAAAAAAAAAA2222222222222222IIIIIIIIIIIIIIIIIIIIIIIIIIIIIIIIIIII
AAAAAAAAAAAAA2222222222222222IIIIIIIIIIIIIIIIIIIIIIIIIIIIIIIIIII
AAAAAAAAAAAAAA2222222222222222IIIIIIIIIIIIIIIIIIIIIIIIIIIIIIIIII
AAAAAAAAAAAAAAA2222222222222222IIIIIIIIIIIIIIIIIIIIIIIIIIIIIIIII
AAAAAAAAAAAAAAAA2222222222222222IIIIIIIIIIIIIIIIIIIIIIIIIIIIIIII
AAAAAAAAAAAAAAAAA2222222222222222IIIIIIIIIIIIIIIIIIIIIIIIIIIIIII
AAAAAAAAAAAAAAAAAA2222222222222222IIIIIIIIIIIIIIIIIIIIIIIIIIIIII
AAAAAAAAAAAAAAAAAAA2222222222222222IIIIIIIIIIIIIIIIIIIIIIIIIIIII
AAAAAAAAAAAAAAAAAAAA2222222222222222IIIIIIIIIIIIIIIIIIIIIIIIIIII
AAAAAAAAAAAAAAAAAAAAA2222222222222222IIIIIIIIIIIIIIIIIIIIIIIIIII
AAAAAAAAAAAAAAAAAAAAAA2222222222222222IIIIIIIIIIIIIIIIIIIIIIIIII
AAAAAAAAAAAAAAAAAAAAAAA2222222222222222IIIIIIIIIIIIIIIIIIIIIIIII
AAAAAAAAAAAAAAAAAAAAAAAA2222222222222222IIIIIIIIIIIIIIIIIIIIIIII
AAAAAAAAAAAAAAAAAAAAAAAAA2222222222222222IIIIIIIIIIIIIIIIIIIIIII
AAAAAAAAAAAAAAAAAAAAAAAAAA2222222222222222IIIIIIIIIIIIIIIIIIIIII
AAAAAAAAAAAAAAAAAAAAAAAAAAA2222222222222222IIIIIIIIIIIIIIIIIIIII
AAAAAAAAAAAAAAAAAAAAAAAAAAAA2222222222222222IIIIIIIIIIIIIIIIIIII
AAAAAAAAAAAAAAAAAAAAAAAAAAAAA2222222222222222IIIIIIIIIIIIIIIIIII
AAAAAAAAAAAAAAAAAAAAAAAAAAAAAA2222222222222222IIIIIIIIIIIIIIIIII
AAAAAAAAAAAAAAAAAAAAAAAAAAAAAAA2222222222222222IIIIIIIIIIIIIIIII
AAAAAAAAAAAAAAAAAAAAAAAAAAAAAAAA2222222222222222IIIIIIIIIIIIIIII
AAAAAAAAAAAAAAAAAAAAAAAAAAAAAAAAA2222222222222222IIIIIIIIIIIIIII
AAAAAAAAAAAAAAAAAAAAAAAAAAAAAAAAAA2222222222222222IIIIIIIIIIIIII
AAAAAAAAAAAAAAAAAAAAAAAAAAAAAAAAAAA2222222222222222IIIIIIIIIIIII
AAAAAAAAAAAAAAAAAAAAAAAAAAAAAAAAAAAA2222222222222222IIIIIIIIIIII
AAAAAAAAAAAAAAAAAAAAAAAAAAAAAAAAAAAAA2222222222222222IIIIIIIIIII
AAAAAAAAAAAAAAAAAAAAAAAAAAAAAAAAAAAAAA2222222222222222IIIIIIIIII
AAAAAAAAAAAAAAAAAAAAAAAAAAAAAAAAAAAAAAA2222222222222222IIIIIIIII
AAAAAAAAAAAAAAAAAAAAAAAAAAAAAAAAAAAAAAAA2222222222222222IIIIIIII
AAAAAAAAAAAAAAAAAAAAAAAAAAAAAAAAAAAAAAAAA2222222222222222IIIIIII
AAAAAAAAAAAAAAAAAAAAAAAAAAAAAAAAAAAAAAAAAA2222222222222222IIIIII
AAAAAAAAAAAAAAAAAAAAAAAAAAAAAAAAAAAAAAAAAAA2222222222222222IIIII
AAAAAAAAAAAAAAAAAAAAAAAAAAAAAAAAAAAAAAAAAAAA2222222222222222IIII
AAAAAAAAAAAAAAAAAAAAAAAAAAAAAAAAAAAAAAAAAAAAA2222222222222222III
AAAAAAAAAAAAAAAAAAAAAAAAAAAAAAAAAAAAAAAAAAAAAA2222222222222222II
AAAAAAAAAAAAAAAAAAAAAAAAAAAAAAAAAAAAAAAAAAAAAAA2222222222222222I
AAAAAAAAAAAAAAAAAAAAAAAAAAAAAAAAAAAAAAAAAAAAAAAA2222222222222222
AAAAAAAAAAAAAAAAAAAAAAAAAAAAAAAAAAAAAAAAAAAAAAAAA222222222222222
AAAAAAAAAAAAAAAAAAAAAAAAAAAAAAAAAAAAAAAAAAAAAAAAAA22222222222222
AAAAAAAAAAAAAAAAAAAAAAAAAAAAAAAAAAAAAAAAAAAAAAAAAAA2222222222222
AAAAAAAAAAAAAAAAAAAAAAAAAAAAAAAAAAAAAAAAAAAAAAAAAAAA222222222222
AAAAAAAAAAAAAAAAAAAAAAAAAAAAAAAAAAAAAAAAAAAAAAAAAAAAA22222222222
AAAAAAAAAAAAAAAAAAAAAAAAAAAAAAAAAAAAAAAAAAAAAAAAAAAAAA2222222222
AAAAAAAAAAAAAAAAAAAAAAAAAAAAAAAAAAAAAAAAAAAAAAAAAAAAAAA222222222
AAAAAAAAAAAAAAAAAAAAAAAAAAAAAAAAAAAAAAAAAAAAAAAAAAAAAAAA22222222
AAAAAAAAAAAAAAAAAAAAAAAAAAAAAAAAAAAAAAAAAAAAAAAAAAAAAAAAA2222222
AAAAAAAAAAAAAAAAAAAAAAAAAAAAAAAAAAAAAAAAAAAAAAAAAAAAAAAAAA222222
AAAAAAAAAAAAAAAAAAAAAAAAAAAAAAAAAAAAAAAAAAAAAAAAAAAAAAAAAAA22222
AAAAAAAAAAAAAAAAAAAAAAAAAAAAAAAAAAAAAAAAAAAAAAAAAAAAAAAAAAAA2222
AAAAAAAAAAAAAAAAAAAAAAAAAAAAAAAAAAAAAAAAAAAAAAAAAAAAAAAAAAAAA222
AAAAAAAAAAAAAAAAAAAAAAAAAAAAAAAAAAAAAAAAAAAAAAAAAAAAAAAAAAAAAA22
AAAAAAAAAAAAAAAAAAAAAAAAAAAAAAAAAAAAAAAAAAAAAAAAAAAAAAAAAAAAAAA2
AAAAAAAAAAAAAAAAAAAAAAAAAAAAAAAAAAAAAAAAAAAAAAAAAAAAAAAAAAAAAAAA
AIAAAAAAAAAAAAAAAAAAAAAAAAAAAAAAAAAAAAAAAAAAAAAAAAAAAAAAAAAAAAAA
AIIAAAAAAAAAAAAAAAAAAAAAAAAAAAAAAAAAAAAAAAAAAAAAAAAAAAAAAAAAAAAA
AIIIAAAAAAAAAAAAAAAAAAAAAAAAAAAAAAAAAAAAAAAAAAAAAAAAAAAAAAAAAAAA
AIIIIAAAAAAAAAAAAAAAAAAAAAAAAAAAAAAAAAAAAAAAAAAAAAAAAAAAAAAAAAAA
AIIIIIAAAAAAAAAAAAAAAAAAAAAAAAAAAAAAAAAAAAAAAAAAAAAAAAAAAAAAAAAA
AIIIIIIAAAAAAAAAAAAAAAAAAAAAAAAAAAAAAAAAAAAAAAAAAAAAAAAAAAAAAAAA
AIIIIIIIAAAAAAAAAAAAAAAAAAAAAAAAAAAAAAAAAAAAAAAAAAAAAAAAAAAAAAAA
AIIIIIIIIAAAAAAAAAAAAAAAAAAAAAAAAAAAAAAAAAAAAAAAAAAAAAAAAAAAAAAA
AIIIIIIIIIAAAAAAAAAAAAAAAAAAAAAAAAAAAAAAAAAAAAAAAAAAAAAAAAAAAAAA
AIIIIIIIIIIAAAAAAAAAAAAAAAAAAAAAAAAAAAAAAAAAAAAAAAAAAAAAAAAAAAAA
AIIIIIIIIIIIAAAAAAAAAAAAAAAAAAAAAAAAAAAAAAAAAAAAAAAAAAAAAAAAAAAA
AIIIIIIIIIIIIAAAAAAAAAAAAAAAAAAAAAAAAAAAAAAAAAAAAAAAAAAAAAAAAAAA
AIIIIIIIIIIIIIAAAAAAAAAAAAAAAAAAAAAAAAAAAAAAAAAAAAAAAAAAAAAAAAAA
AIIIIIIIIIIIIIIAAAAAAAAAAAAAAAAAAAAAAAAAAAAAAAAAAAAAAAAAAAAAAAAA
AIIIIIIIIIIIIIIIAAAAAAAAAAAAAAAAAAAAAAAAAAAAAAAAAAAAAAAAAAAAAAAA
AIIIIIIIIIIIIIIIIAAAAAAAAAAAAAAAAAAAAAAAAAAAAAAAAAAAAAAAAAAAAAAA
AIIIIIIIIIIIIIIIIIAAAAAAAAAAAAAAAAAAAAAAAAAAAAAAAAAAAAAAAAAAAAAA
AIIIIIIIIIIIIIIIIIIAAAAAAAAAAAAAAAAAAAAAAAAAAAAAAAAAAAAAAAAAAAAA
AIIIIIIIIIIIIIIIIIIIAAAAAAAAAAAAAAAAAAAAAAAAAAAAAAAAAAAAAAAAAAAA
AIIIIIIIIIIIIIIIIIIIIAAAAAAAAAAAAAAAAAAAAAAAAAAAAAAAAAAAAAAAAAAA
AIIIIIIIIIIIIIIIIIIIIIAAAAAAAAAAAAAAAAAAAAAAAAAAAAAAAAAAAAAAAAAA
AIIIIIIIIIIIIIIIIIIIIIIAAAAAAAAAAAAAAAAAAAAAAAAAAAAAAAAAAAAAAAAA
AIIIIIIIIIIIIIIIIIIIIIIIAAAAAAAAAAAAAAAAAAAAAAAAAAAAAAAAAAAAAAAA
AIIIIIIIIIIIIIIIIIIIIIIIIAAAAAAAAAAAAAAAAAAAAAAAAAAAAAAAAAAAAAAA
AIIIIIIIIIIIIIIIIIIIIIIIIIAAAAAAAAAAAAAAAAAAAAAAAAAAAAAAAAAAAAAA
AIIIIIIIIIIIIIIIIIIIIIIIIIIAAAAAAAAAAAAAAAAAAAAAAAAAAAAAAAAAAAAA
AIIIIIIIIIIIIIIIIIIIIIIIIIIIAAAAAAAAAAAAAAAAAAAAAAAAAAAAAAAAAAAA
AIIIIIIIIIIIIIIIIIIIIIIIIIIIIAAAAAAAAAAAAAAAAAAAAAAAAAAAAAAAAAAA
AIIIIIIIIIIIIIIIIIIIIIIIIIIIIIAAAAAAAAAAAAAAAAAAAAAAAAAAAAAAAAAA
AIIIIIIIIIIIIIIIIIIIIIIIIIIIIIIAAAAAAAAAAAAAAAAAAAAAAAAAAAAAAAAA
AIIIIIIIIIIIIIIIIIIIIIIIIIIIIIIIAAAAAAAAAAAAAAAAAAAAAAAAAAAAAAAA
AIIIIIIIIIIIIIIIIIIIIIIIIIIIIIIIIAAAAAAAAAAAAAAAAAAAAAAAAAAAAAAA
AIIIIIIIIIIIIIIIIIIIIIIIIIIIIIIIIIAAAAAAAAAAAAAAAAAAAAAAAAAAAAAA
AIIIIIIIIIIIIIIIIIIIIIIIIIIIIIIIIIIAAAAAAAAAAAAAAAAAAAAAAAAAAAAA
AIIIIIIIIIIIIIIIIIIIIIIIIIIIIIIIIIIIAAAAAAAAAAAAAAAAAAAAAAAAAAAA
AIIIIIIIIIIIIIIIIIIIIIIIIIIIIIIIIIIIIAAAAAAAAAAAAAAAAAAAAAAAAAAA
AIIIIIIIIIIIIIIIIIIIIIIIIIIIIIIIIIIIIIAAAAAAAAAAAAAAAAAAAAAAAAAA
AIIIIIIIIIIIIIIIIIIIIIIIIIIIIIIIIIIIIIIAAAAAAAAAAAAAAAAAAAAAAAAA
AIIIIIIIIIIIIIIIIIIIIIIIIIIIIIIIIIIIIIIIAAAAAAAAAAAAAAAAAAAAAAAA
AIIIIIIIIIIIIIIIIIIIIIIIIIIIIIIIIIIIIIIIIAAAAAAAAAAAAAAAAAAAAAAA
AIIIIIIIIIIIIIIIIIIIIIIIIIIIIIIIIIIIIIIIIIAAAAAAAAAAAAAAAAAAAAAA
AIIIIIIIIIIIIIIIIIIIIIIIIIIIIIIIIIIIIIIIIIIAAAAAAAAAAAAAAAAAAAAA
AIIIIIIIIIIIIIIIIIIIIIIIIIIIIIIIIIIIIIIIIIIIAAAAAAAAAAAAAAAAAAAA
AIIIIIIIIIIIIIIIIIIIIIIIIIIIIIIIIIIIIIIIIIIIIAAAAAAAAAAAAAAAAAAA
AIIIIIIIIIIIIIIIIIIIIIIIIIIIIIIIIIIIIIIIIIIIIIAAAAAAAAAAAAAAAAAA
AIIIIIIIIIIIIIIIIIIIIIIIIIIIIIIIIIIIIIIIIIIIIIIAAAAAAAAAAAAAAAAA
AIIIIIIIIIIIIIIIIIIIIIIIIIIIIIIIIIIIIIIIIIIIIIIIAAAAAAAAAAAAAAAA
AIIIIIIIIIIIIIIIIIIIIIIIIIIIIIIIIIIIIIIIIIIIIIIIIAAAAAAAAAAAAAAA
AIIIIIIIIIIIIIIIIIIIIIIIIIIIIIIIIIIIIIIIIIIIIIIIIIAAAAAAAAAAAAAA
AIIIIIIIIIIIIIIIIIIIIIIIIIIIIIIIIIIIIIIIIIIIIIIIIIIAAAAAAAAAAAAA
AIIIIIIIIIIIIIIIIIIIIIIIIIIIIIIIIIIIIIIIIIIIIIIIIIIIAAAAAAAAAAAA
AIIIIIIIIIIIIIIIIIIIIIIIIIIIIIIIIIIIIIIIIIIIIIIIIIIIIAAAAAAAAAAA
AIIIIIIIIIIIIIIIIIIIIIIIIIIIIIIIIIIIIIIIIIIIIIIIIIIIIIAAAAAAAAAA
AIIIIIIIIIIIIIIIIIIIIIIIIIIIIIIIIIIIIIIIIIIIIIIIIIIIIIIAAAAAAAAA
AIIIIIIIIIIIIIIIIIIIIIIIIIIIIIIIIIIIIIIIIIIIIIIIIIIIIIIIAAAAAAAA
AIIIIIIIIIIIIIIIIIIIIIIIIIIIIIIIIIIIIIIIIIIIIIIIIIIIIIIIIAAAAAAA
AIIIIIIIIIIIIIIIIIIIIIIIIIIIIIIIIIIIIIIIIIIIIIIIIIIIIIIIIIAAAAAA
AIIIIIIIIIIIIIIIIIIIIIIIIIIIIIIIIIIIIIIIIIIIIIIIIIIIIIIIIIIAAAAA
AIIIIIIIIIIIIIIIIIIIIIIIIIIIIIIIIIIIIIIIIIIIIIIIIIIIIIIIIIIIAAAA
AIIIIIIIIIIIIIIIIIIIIIIIIIIIIIIIIIIIIIIIIIIIIIIIIIIIIIIIIIIIIAAA
AIIIIIIIIIIIIIIIIIIIIIIIIIIIIIIIIIIIIIIIIIIIIIIIIIIIIIIIIIIIIIAA
AIIIIIIIIIIIIIIIIIIIIIIIIIIIIIIIIIIIIIIIIIIIIIIIIIIIIIIIIIIIIIIA
AIIIIIIIIIIIIIIIIIIIIIIIIIIIIIIIIIIIIIIIIIIIIIIIIIIIIIIIIIIIIIII
A2222I44I4II44I44IIIIIIIIIIIIIIIIIIIIIIIIIIIIIIIIIIIIIIIIIIIIIII
AA222244444I444444IIIIIIIIIIIIIIIIIIIIIIIIIIIIIIIIIIIIIIIIIIIIII
AAA2222444444444444IIIIIIIIIIIIIIIIIIIIIIIIIIIIIIIIIIIIIIIIIIIII
AAAA2222444444444444IIIIIIIIIIIIIIIIIIIIIIIIIIIIIIIIIIIIIIIIIIII
AAAAA2222444444444444IIIIIIIIIIIIIIIIIIIIIIIIIIIIIIIIIIIIIIIIIII
AAAAAA2222444444444444IIIIIIIIIIIIIIIIIIIIIIIIIIIIIIIIIIIIIIIIII
AAAAAAA2222444444444444IIIIIIIIIIIIIIIIIIIIIIIIIIIIIIIIIIIIIIIII
AAAAAAAA2222444444444444IIIIIIIIIIIIIIIIIIIIIIIIIIIIIIIIIIIIIIII
AAAAAAAAA2222444444444444IIIIIIIIIIIIIIIIIIIIIIIIIIIIIIIIIIIIIII
AAAAAAAAAA2222444444444444IIIIIIIIIIIIIIIIIIIIIIIIIIIIIIIIIIIIII
AAAAAAAAAA2222244444444444IIIIIIIIIIIIIIIIIIIIIIIIIIIIIIIIIIIIII
AAAAAAAAAAA2222244444444444IIIIIIIIIIIIIIIIIIIIIIIIIIIIIIIIIIIII
AAAAAAAAAAAA2222244444444444IIIIIIIIIIIIIIIIIIIIIIIIIIIIIIIIIIII
AAAAAAAAAAAAA2222244444444444IIIIIIIIIIIIIIIIIIIIIIIIIIIIIIIIIII
AAAAAAAAAAAAAA22224444444444444IIIIIIIIIIIIIIIIIIIIIIIIIIIIIIIII
AAAAAAAAAAAAAAA22224444444444444IIIIIIIIIIIIIIIIIIIIIIIIIIIIIIII
AAAAAAAAAAAAAAAA22224444444444444IIIIIIIIIIIIIIIIIIIIIIIIIIIIIII
AAAAAAAAAAAAAAAAA22224444444444444IIIIIIIIIIIIIIIIIIIIIIIIIIIIII
AAAAIAAAAAAAAAAAA22224444444444444IIIIIIIIIIIIIIIIIIIIIIIIIIIIII
AAAAIAAAAAAAAAAAAA2224444444444444IIIIIIIIIIIIIIIIIIIIIIIIIIIIII
AAAAIAAAAAAAAAAAAAA2224444444444444IIIIIIIIIIIIIIIIIIIIIIIIIIIII
AAAAIAAAAAAAAAAAAAAA2224444444444444IIIIIIIIIIIIIIIIIIIIIIIIIIII
AAAAIAAAAAAAAAAAAAAAA2224444444444444IIIIIIIIIIIIIIIIIIIIIIIIIII
AAAAIAAAAAAAAAAAAAAAAA2224444444444444IIIIIIIIIIIIIIIIIIIIIIIIII
AAAAIAAAAAAAAAAAIAAAAA2224444444444444IIIIIIIIIIIIIIIIIIIIIIIIII
AAAAIAAAAAAAAAAAIAAAAA2I24444444444444IIIIIIIIIIIIIIIIIIIIIIIIII
AAAAIAAAAAAAIAAAIAAAAA2I24444444444444IIIIIIIIIIIIIIIIIIIIIIIIII
AAAAIAAAAAAAIAAAIAAAIA2I24444444444444IIIIIIIIIIIIIIIIIIIIIIIIII
AAAAIAAAAAAAIAAAIAAAIA2224444444444444IIIIIIIIIIIIIIIIIIIIIIIIII
AAAAIAAAAAAAIAAAIAAAIAA2224444444444444IIIIIIIIIIIIIIIIIIIIIIIII
AAAAIAAAAAAAIAAAIAAAIAAA2224444444444444IIIIIIIIIIIIIIIIIIIIIIII
AAAAIAAAAAAAIAAAIAAAIAAAA2224444444444444IIIIIIIIIIIIIIIIIIIIIII
AAAAIAAAAAAAIAAAIAAAIAAAAA2224444444444444IIIIIIIIIIIIIIIIIIIIII
AAAAIAAAAAAAIAAAIAAAIAAAAAA2224444444444444IIIIIIIIIIIIIIIIIIIII
AAAAIAAAAAAAIAAAIAAAIAAAAAAA2224444444444444IIIIIIIIIIIIIIIIIIII
AAAAIAAAAAAAIAAAIAAAIAAAAAAAA2224444444444444IIIIIIIIIIIIIIIIIII
AAAAIAAAAAAAIAAAIAAAIAAAAAAAAA2224444444444444IIIIIIIIIIIIIIIIII
AAAAIAAAAAAAIAAAIAAAIAAAAAAAAAA2224444444444444IIIIIIIIIIIIIIIII
AAAAIAAAAAAAIAAAIAAAIAAAAAAAAAA2222444444444444I4IIIIIIIIIIIIIII
AAAAIAAAAAAAIAAAIAAAIAAAAAAAAAAA222244444444444I44IIIIIIIIIIIIII
AAAAIAAAAAAAIAAAIAAAIAAAAAAAAAAAA222244444444444444IIIIIIIIIIIII
AAAAIAAAAAAAIAAAIAAAIAAAAAAAAAAAAA222244444444444444IIIIIIIIIIII
AAAAIAAAAAAAIAAAIAAAIAAAAAAAAAAAAAA222244444444444444IIIIIIIIIII
AAAAIAAAAAAAIAAAIAAAIAAIAAAAAAAAAAA222244444444444444IIIIIIIIIII
AAAAIAAAAAAAIAAAIAAAIAAIAAAAAAAAAAA222224444444444444IIIIIIIIIII
AAAAIAAAAAAAIAAAIAAAIAAIAAAAAAAAAAAA22222444444444444IIIIIIIIIII
AAAAIAAAAAAAIAAAIAAAIAAIIAAAAAAAAAAA22222444444444444IIIIIIIIIII
AAAAIAAAAAAAIAAAIAAAIAAIIAAAAAAAAAAAA2222244444444444IIIIIIIIIII
AAAAIAAAAAAAIAAAIAAAIAAIIAAAAAAAAAAAAA2222244444444444IIIIIIIIII
AAAAIAAAAAAAIAAAIAAAIAAIIAAAAAAAAAAAAAA2222244444444444IIIIIIIII
AAAAIAAAAAAAIAAAIAAAIAAIIAAAAAAAAAAAAAAA2222444444444444IIIIIIII
AAAAIAAAAAAAIAAAIAAAIAAIIAAAAAAAAAAAAAAAA2224444444444444IIIIIII
AAAAIAAAAAAAIAAAIAAAIAAIIAAAAAAAAAAAAAAAAA2224444444444444IIIIII
AAAAIAAAAAAAIAAAIAAAIAIIIAAAAAAAAAAAAAAAAA2224444444444444IIIIII
AAAAIAAAAAAAIAAAIAAAIAIIIAAAAAIAAAAAAAAAAA2224444444444444IIIIII
AAAAIAAAAAAAIAAAIAAAIAIIIAAAAAIAAAAAAAIAAA2224444444444444IIIIII
AAAAIAAAAAAAIAAAIAAAIAIIIAAAAAIAIAAAAAIAAA2224444444444444IIIIII
AAAAIAAAAAAAIAAAIAAAIAIIIAAAAAIAIAAAAAIAAA2224244444444444IIIIII
AAAAIAAAAAAAIAAAIAAAIAIIIAAAAAIAIAAAAAIAAAA2222244444444444IIIII
AAAAIAAAAAAAIAAAIAAAIAIIIAAAAAIAIAAAAAIAAAAA222244444444444I4III
AAAAIAAAAAAAIAAAIAAAIAIIIAAAAAIAIAAAAAIAAAAAA22244444444444I44II
AAAAIAAAAAAAIAAAIAAAIAIIIAAAAAIAIAAAAAIAAAAAAA22444444444444444I
AAAAIAAAAAAAIAAAIAAAIAIIIAAAAAIAIAAAAAIAAAAAAAA22444444444444444
AAAAIAAAAAAAIAAAIAAAIAIIIAAAAAIAIAAAAAIAAAAAAAAA2222444444444444
AAAAIAAAAAAAIAAAIAAAIAIIIAAAAAIAIAAAAAIAAAAAAAAAA222244444444444
AAAAIAAAAAAAIAAAIAAAIAIIIAAAAAIAIAAAAAIAAAAAAIAAA222244444444444
AAAAIAAAAAAAIAAAIAAAIAIIIAAAAAIAIAAAAAIAAAAAAIAAAA22224444444444
AAAAIAAAAAAAIAAAIAAAIAIIIAAAAAIAIAAAAAIAAAAAAIAAAAA2222444444444
AAAAIAAAAAAAIAAAIAAAIAIIIAAAAAIAIAAAAAIAAAAAAIAAAAAA222244444444
AAAAIAAAAAAAIAAAIAAAIAIIIAAAAAIAIAAAAAIAAAAAAIAAAAAAA22244444444
AAAAIAAAAAAAIAAAIAAAIAIIIAAAAAIAIAAAAAIAAAAAAIAAAAAAAA2224444444
AAAAIAAAAAAAIAAAIAAAIAIIIAAAAAIAIAAAAAIAAAAAAIAAAAAAAAA222444444
AAAAIAAAAAAAIAAAIAAAIAIIIAAAAAIAIAAAAAIAAAAAAIAAAAAAAAAA22244444
AAAAIAAAAAAAIAAAIAAAIAIIIAAAAAIAIAAAAAIAAAAAAIAAAAAAAAAAA2224444
AAAAIAAAAAAAIAAAIAAAIAIIIAAAAAIAIAAAAAIAAAAAAIAAAAAAAAAAAA222444
AAAAIAAAAAAAIAAAIAAAIAIIIAAAAAIAIAAAAAIAAAAAAIAAAAAAAAAAAAA22244
AAAAIAAAAAAAIAAAIAAAIAIIIAAAAAIAIAAAAAIAAAAAAIAAAAAAAAAAAAAA2224
AAAAIAAAAAAAIAAAIAAAIAIIIAAAAAIAIAAAAAIAAAAAAIAAAAAAAAAAAAAA2222
AAAAIAAAAAAAIAAAIAAAIAIIIAAAAAIAIAAAAAIAAAAAAIAAAAAAAAAAAAAAA222
AAAAIAAAAAAAIAAAIAAAIAIIIAAAAAIAIAAAAAIAAAAAAIAAAAAAAAAAAAAAAA22
AAAAIAAAAAAAIAAAIAAAIAIIIAAAAAIAIAAAAAIAAAAAAIAAAAAAAAAAAAAAAAA2
AAAAIAAAAAAAIAAAIAAAIAIIIAAAAAIAIAAAAAIAAAAAAIAAAAAAAAAAAAAAAAAA
AAAAIAAAAAAAIAAAIAAAIAIIIAAAAAIAIAAAAAIAAAAAAIAAAAIAAAAAAAAAAAAA
AAAAIAAAAAAAIAAAIAAAIAIIIAAAAAIAIAAAAAIAAAAAAIAAAAIAAAAIAAAAAAAA
AAAAIAAAAAAAIAAAIAAAIAIIIAAAAAIAIAAAAAIAAAAAAIAAAAIAAAAIIAAAAAAA
AAAAIAAAAAAAIAAAIAAAIAIIIAAAAAIAIAAAAAIAAAAAAIAAAAIAAAAIIAAIAAAA
[MLOP] Prefetch Degree Mean: 11.21709
[MLOP] Prefetch Degree SD: 2.53799
[MLOP] Max Score Left Mean (%): 59.77158
[MLOP] Max Score Left SD (%): 8.58629
[MLOP] Max Score Right Mean (%): 86.96408
[MLOP] Max Score Right SD (%): 8.65470

Channel_0_RQ_row_buffer_hit 546262
Channel_0_RQ_row_buffer_miss 2867068
Channel_0_WQ_row_buffer_hit 11075
Channel_0_WQ_row_buffer_miss 28331
Channel_0_WQ_full 0
Channel_0_dbus_congested 293875

avg_congested_cycle 8

DRAM_bw_pochs 3801192
DRAM_bw_level_0 3751546
DRAM_bw_level_1 33544
DRAM_bw_level_2 9862
DRAM_bw_level_3 6240
