*************************************************
   ChampSim Multicore Out-of-Order Simulator
   Last compiled: Apr  3 2025 20:54:34
*************************************************
parsing config file: /home/zir/Pythia/config/pythia.ini

trace_0 /home/zir/ChampSim/ML-DPC/ChampSimTraces/gap/cc-6.trace.gz
adding L2C_PREFETCHER: Scooby
Initialize SHIP state
warmup_instructions 10000000
simulation_instructions 50000000
champsim_seed 54
measure_ipc 0
measure_ipc_epoch 1000
measure_dram_bw 1
measure_dram_bw_epoch 256
measure_cache_acc 1
measure_cache_acc_epoch 1024
l1d_perfect 0
l2c_perfect 0
llc_perfect 0
l1d_semi_perfect 0
l2c_semi_perfect 0
llc_semi_perfect 0
semi_perfect_cache_page_buffer_size 64

num_cpus 1
cpu_freq 4000
dram_io_freq 2400
page_size 4096
block_size 64
max_read_per_cycle 8
max_fill_per_cycle 1
dram_channels 1
log2_dram_channels 0
dram_ranks 1
dram_banks 8
dram_rows 65536
dram_columns 128
dram_row_size 8
dram_size 4096
dram_pages 1048576

fetch_width 6
decode_width 6
exec_width 4
lq_width 2
sq_width 2
retire_width 4
scheduler_size 128
branch_mispredict_penalty 20
rob_size 256
lq_size 72
sq_size 56
num_instr_destinations_sparc 4
num_instr_destinations 2
num_instr_sources 4

itlb_set 16
itlb_way 8
itlb_rq_size 16
itlb_wq_size 16
itlb_pq_size 0
itlb_mshr_size 8
itlb_latency 1

dtlb_set 16
dtlb_way 4
dtlb_rq_size 16
dtlb_wq_size 16
dtlb_pq_size 0
dtlb_mshr_size 8
dtlb_latency 1

stlb_set 128
stlb_way 12
stlb_rq_size 32
stlb_wq_size 32
stlb_pq_size 0
stlb_mshr_size 16
stlb_latency 8

l1i_size 32
l1i_set 64
l1i_way 8
l1i_rq_size 64
l1i_wq_size 64
l1i_pq_size 8
l1i_mshr_size 8
l1i_latency 1

l1d_size 32
l1d_set 64
l1d_way 8
l1d_rq_size 64
l1d_wq_size 64
l1d_pq_size 8
l1d_mshr_size 16
l1d_latency 4

l2c_size 256
l2c_set 512
l2c_way 8
l2c_rq_size 32
l2c_wq_size 32
l2c_pq_size 32
l2c_mshr_size 32
l2c_latency 10

llc_size 2048
llc_set 2048
llc_way 16
llc_rq_size 32
llc_wq_size 32
llc_pq_size 32
llc_mshr_size 64
llc_latency 20

dram_channel_width 8
dram_wq_size 64
dram_rq_size 64
tRP 15
tRCD 15
tCAS 12.5
dram_dbus_turn_around_time 30
dram_write_high_wm 56
dram_write_low_wm 48
min_dram_writes_per_switch 16
dram_mtps 2400
dram_dbus_return_time 13

scooby_alpha 0.0065088
scooby_gamma 0.556301
scooby_epsilon 0.00182284
scooby_state_num_bits 10
scooby_max_states 1024
scooby_seed 200
scooby_policy EGreedy
scooby_learning_type SARSA
scooby_actions 1,3,4,5,10,11,12,22,23,30,32,-1,-3,-6,0,
scooby_max_actions 15
scooby_pt_size 256
scooby_st_size 64
scooby_max_pcs 5
scooby_max_offsets 5
scooby_max_deltas 5
scooby_reward_none -4
scooby_reward_incorrect -8
scooby_reward_correct_untimely 12
scooby_reward_correct_timely 20
scooby_brain_zero_init 0
scooby_enable_reward_all 0
scooby_enable_track_multiple 0
scooby_enable_reward_out_of_bounds 1
scooby_reward_out_of_bounds -12
scooby_state_type 1
scooby_state_hash_type 11
scooby_access_debug 0
scooby_print_access_debug 0
scooby_print_access_debug_pc deadbeef
scooby_print_access_debug_pc_count 0
scooby_print_trace 0
scooby_enable_state_action_stats 1
scooby_enable_reward_tracker_hit 0
scooby_reward_tracker_hit -2
scooby_enable_featurewise_engine 1
scooby_pref_degree 1
scooby_enable_dyn_degree 1
scooby_max_to_avg_q_thresholds 0.5,1,2,
scooby_dyn_degrees 1,2,4,4,
scooby_multi_deg_select_type 2
scooby_last_pref_offset_conf_thresholds 1,3,8,
scooby_dyn_degrees_type2 1,2,4,6,
scooby_action_tracker_size 2
scooby_high_bw_thresh 4
scooby_enable_hbw_reward 1
scooby_reward_hbw_correct_timely 20
scooby_reward_hbw_correct_untimely 12
scooby_reward_hbw_incorrect -14
scooby_reward_hbw_none -2
scooby_reward_hbw_out_of_bounds -12
scooby_reward_hbw_tracker_hit -2
scooby_last_pref_offset_conf_thresholds_hbw 1,3,8,
scooby_dyn_degrees_type2_hbw 1,2,4,6,

le_enable_trace 0
le_trace_interval 0
le_trace_file_name 
le_trace_state 0
le_enable_score_plot 0
le_plot_file_name 
le_plot_actions 
le_enable_action_trace 0
le_action_trace_interval 0
le_action_trace_name 
le_enable_action_plot 0

le_featurewise_active_features PC, PC_Delta
le_featurewise_num_tilings 3,3,
le_featurewise_num_tiles 128,128,
le_featurewise_hash_types 2,2,
le_featurewise_enable_tiling_offset 1,1,
le_featurewise_max_q_thresh 0.5
le_featurewise_enable_action_fallback 1
le_featurewise_feature_weights 1,1,
le_featurewise_enable_dynamic_weight 0
le_featurewise_weight_gradient 0.001
le_featurewise_disable_adjust_weight_all_features_align 1
le_featurewise_selective_update 0
le_featurewise_pooling_type 2
le_featurewise_enable_dyn_action_fallback 1
le_featurewise_bw_acc_check_level 1
le_featurewise_acc_thresh 2
le_featurewise_enable_trace 0
le_featurewise_trace_feature_type 0
le_featurewise_trace_feature 
le_featurewise_trace_interval 0
le_featurewise_trace_record_count 0
le_featurewise_trace_file_name 
le_featurewise_enable_score_plot 0
le_featurewise_plot_actions 
le_featurewise_plot_file_name 


Heartbeat CPU  0 instructions:    1000001 cycles:     262049 heartbeat IPC: 3.81608 cumulative IPC: 3.81608 (Simulation time: 0 hr 0 min 2 sec) 
Heartbeat CPU  0 instructions:    2000000 cycles:     741690 heartbeat IPC: 2.08489 cumulative IPC: 2.69654 (Simulation time: 0 hr 0 min 3 sec) 
Heartbeat CPU  0 instructions:    3000002 cycles:    2167300 heartbeat IPC: 0.70146 cumulative IPC: 1.38421 (Simulation time: 0 hr 0 min 5 sec) 
Heartbeat CPU  0 instructions:    4000000 cycles:    3590209 heartbeat IPC: 0.70278 cumulative IPC: 1.11414 (Simulation time: 0 hr 0 min 7 sec) 
Heartbeat CPU  0 instructions:    5000000 cycles:    5068855 heartbeat IPC: 0.67629 cumulative IPC: 0.98642 (Simulation time: 0 hr 0 min 8 sec) 
Heartbeat CPU  0 instructions:    6000003 cycles:    6333553 heartbeat IPC: 0.79070 cumulative IPC: 0.94734 (Simulation time: 0 hr 0 min 10 sec) 
Heartbeat CPU  0 instructions:    7000003 cycles:    7585514 heartbeat IPC: 0.79875 cumulative IPC: 0.92281 (Simulation time: 0 hr 0 min 12 sec) 
Heartbeat CPU  0 instructions:    8000000 cycles:    8940174 heartbeat IPC: 0.73819 cumulative IPC: 0.89484 (Simulation time: 0 hr 0 min 14 sec) 
Heartbeat CPU  0 instructions:    9000000 cycles:   10174787 heartbeat IPC: 0.80997 cumulative IPC: 0.88454 (Simulation time: 0 hr 0 min 16 sec) 
Heartbeat CPU  0 instructions:   10000002 cycles:   11511212 heartbeat IPC: 0.74827 cumulative IPC: 0.86872 (Simulation time: 0 hr 0 min 18 sec) 

Warmup complete CPU  0 instructions:   10000002 cycles:   11511212 (Simulation time: 0 hr 0 min 18 sec) 

Heartbeat CPU  0 instructions:   11000000 cycles:   17771861 heartbeat IPC: 0.15973 cumulative IPC: 0.15973 (Simulation time: 0 hr 0 min 21 sec) 
Heartbeat CPU  0 instructions:   12000000 cycles:   24342104 heartbeat IPC: 0.15220 cumulative IPC: 0.15587 (Simulation time: 0 hr 0 min 24 sec) 
Heartbeat CPU  0 instructions:   13000000 cycles:   30587252 heartbeat IPC: 0.16012 cumulative IPC: 0.15727 (Simulation time: 0 hr 0 min 27 sec) 
Heartbeat CPU  0 instructions:   14000002 cycles:   36537568 heartbeat IPC: 0.16806 cumulative IPC: 0.15983 (Simulation time: 0 hr 0 min 30 sec) 
Heartbeat CPU  0 instructions:   15000000 cycles:   43804454 heartbeat IPC: 0.13761 cumulative IPC: 0.15483 (Simulation time: 0 hr 0 min 33 sec) 
Heartbeat CPU  0 instructions:   16000000 cycles:   50360457 heartbeat IPC: 0.15253 cumulative IPC: 0.15444 (Simulation time: 0 hr 0 min 36 sec) 
Heartbeat CPU  0 instructions:   17000002 cycles:   56295341 heartbeat IPC: 0.16850 cumulative IPC: 0.15631 (Simulation time: 0 hr 0 min 39 sec) 
Heartbeat CPU  0 instructions:   18000002 cycles:   61981564 heartbeat IPC: 0.17586 cumulative IPC: 0.15851 (Simulation time: 0 hr 0 min 42 sec) 
Heartbeat CPU  0 instructions:   19000002 cycles:   67453202 heartbeat IPC: 0.18276 cumulative IPC: 0.16088 (Simulation time: 0 hr 0 min 45 sec) 
Heartbeat CPU  0 instructions:   20000000 cycles:   73583673 heartbeat IPC: 0.16312 cumulative IPC: 0.16110 (Simulation time: 0 hr 0 min 48 sec) 
Heartbeat CPU  0 instructions:   21000001 cycles:   80246107 heartbeat IPC: 0.15010 cumulative IPC: 0.16004 (Simulation time: 0 hr 0 min 51 sec) 
Heartbeat CPU  0 instructions:   22000000 cycles:   86749775 heartbeat IPC: 0.15376 cumulative IPC: 0.15949 (Simulation time: 0 hr 0 min 54 sec) 
Heartbeat CPU  0 instructions:   23000002 cycles:   92578191 heartbeat IPC: 0.17157 cumulative IPC: 0.16036 (Simulation time: 0 hr 0 min 57 sec) 
Heartbeat CPU  0 instructions:   24000000 cycles:   98070026 heartbeat IPC: 0.18209 cumulative IPC: 0.16174 (Simulation time: 0 hr 1 min 0 sec) 
Heartbeat CPU  0 instructions:   25000000 cycles:  104111368 heartbeat IPC: 0.16553 cumulative IPC: 0.16199 (Simulation time: 0 hr 1 min 3 sec) 
Heartbeat CPU  0 instructions:   26000000 cycles:  110173600 heartbeat IPC: 0.16496 cumulative IPC: 0.16217 (Simulation time: 0 hr 1 min 6 sec) 
Heartbeat CPU  0 instructions:   27000000 cycles:  116081480 heartbeat IPC: 0.16927 cumulative IPC: 0.16257 (Simulation time: 0 hr 1 min 9 sec) 
Heartbeat CPU  0 instructions:   28000000 cycles:  121886010 heartbeat IPC: 0.17228 cumulative IPC: 0.16308 (Simulation time: 0 hr 1 min 12 sec) 
Heartbeat CPU  0 instructions:   29000000 cycles:  128444761 heartbeat IPC: 0.15247 cumulative IPC: 0.16249 (Simulation time: 0 hr 1 min 15 sec) 
Heartbeat CPU  0 instructions:   30000000 cycles:  134629229 heartbeat IPC: 0.16170 cumulative IPC: 0.16245 (Simulation time: 0 hr 1 min 19 sec) 
Heartbeat CPU  0 instructions:   31000000 cycles:  140339520 heartbeat IPC: 0.17512 cumulative IPC: 0.16301 (Simulation time: 0 hr 1 min 22 sec) 
Heartbeat CPU  0 instructions:   32000000 cycles:  146110902 heartbeat IPC: 0.17327 cumulative IPC: 0.16345 (Simulation time: 0 hr 1 min 25 sec) 
Heartbeat CPU  0 instructions:   33000000 cycles:  152634980 heartbeat IPC: 0.15328 cumulative IPC: 0.16298 (Simulation time: 0 hr 1 min 28 sec) 
Heartbeat CPU  0 instructions:   34000000 cycles:  158456410 heartbeat IPC: 0.17178 cumulative IPC: 0.16333 (Simulation time: 0 hr 1 min 31 sec) 
Heartbeat CPU  0 instructions:   35000001 cycles:  163985393 heartbeat IPC: 0.18087 cumulative IPC: 0.16396 (Simulation time: 0 hr 1 min 34 sec) 
Heartbeat CPU  0 instructions:   36000000 cycles:  169350136 heartbeat IPC: 0.18640 cumulative IPC: 0.16472 (Simulation time: 0 hr 1 min 37 sec) 
Heartbeat CPU  0 instructions:   37000000 cycles:  175774851 heartbeat IPC: 0.15565 cumulative IPC: 0.16437 (Simulation time: 0 hr 1 min 40 sec) 
Heartbeat CPU  0 instructions:   38000001 cycles:  181570000 heartbeat IPC: 0.17256 cumulative IPC: 0.16465 (Simulation time: 0 hr 1 min 43 sec) 
Heartbeat CPU  0 instructions:   39000000 cycles:  187247557 heartbeat IPC: 0.17613 cumulative IPC: 0.16502 (Simulation time: 0 hr 1 min 46 sec) 
Heartbeat CPU  0 instructions:   40000000 cycles:  193600088 heartbeat IPC: 0.15742 cumulative IPC: 0.16475 (Simulation time: 0 hr 1 min 49 sec) 
Heartbeat CPU  0 instructions:   41000002 cycles:  199895433 heartbeat IPC: 0.15885 cumulative IPC: 0.16456 (Simulation time: 0 hr 1 min 52 sec) 
Heartbeat CPU  0 instructions:   42000000 cycles:  206088384 heartbeat IPC: 0.16147 cumulative IPC: 0.16446 (Simulation time: 0 hr 1 min 55 sec) 
Heartbeat CPU  0 instructions:   43000002 cycles:  212139121 heartbeat IPC: 0.16527 cumulative IPC: 0.16448 (Simulation time: 0 hr 1 min 59 sec) 
Heartbeat CPU  0 instructions:   44000000 cycles:  218346665 heartbeat IPC: 0.16109 cumulative IPC: 0.16438 (Simulation time: 0 hr 2 min 3 sec) 
Heartbeat CPU  0 instructions:   45000000 cycles:  223894655 heartbeat IPC: 0.18025 cumulative IPC: 0.16480 (Simulation time: 0 hr 2 min 6 sec) 
Heartbeat CPU  0 instructions:   46000000 cycles:  229420008 heartbeat IPC: 0.18098 cumulative IPC: 0.16521 (Simulation time: 0 hr 2 min 10 sec) 
Heartbeat CPU  0 instructions:   47000000 cycles:  235006732 heartbeat IPC: 0.17900 cumulative IPC: 0.16555 (Simulation time: 0 hr 2 min 13 sec) 
Heartbeat CPU  0 instructions:   48000000 cycles:  241100512 heartbeat IPC: 0.16410 cumulative IPC: 0.16551 (Simulation time: 0 hr 2 min 16 sec) 
Heartbeat CPU  0 instructions:   49000000 cycles:  246781465 heartbeat IPC: 0.17603 cumulative IPC: 0.16577 (Simulation time: 0 hr 2 min 19 sec) 
Heartbeat CPU  0 instructions:   50000000 cycles:  252764926 heartbeat IPC: 0.16713 cumulative IPC: 0.16580 (Simulation time: 0 hr 2 min 22 sec) 
Heartbeat CPU  0 instructions:   51000002 cycles:  259076215 heartbeat IPC: 0.15845 cumulative IPC: 0.16561 (Simulation time: 0 hr 2 min 26 sec) 
Heartbeat CPU  0 instructions:   52000000 cycles:  264518762 heartbeat IPC: 0.18374 cumulative IPC: 0.16600 (Simulation time: 0 hr 2 min 29 sec) 
Heartbeat CPU  0 instructions:   53000000 cycles:  269760136 heartbeat IPC: 0.19079 cumulative IPC: 0.16651 (Simulation time: 0 hr 2 min 32 sec) 
Heartbeat CPU  0 instructions:   54000002 cycles:  275716568 heartbeat IPC: 0.16789 cumulative IPC: 0.16654 (Simulation time: 0 hr 2 min 35 sec) 
Heartbeat CPU  0 instructions:   55000002 cycles:  281137153 heartbeat IPC: 0.18448 cumulative IPC: 0.16690 (Simulation time: 0 hr 2 min 38 sec) 
Heartbeat CPU  0 instructions:   56000000 cycles:  286863187 heartbeat IPC: 0.17464 cumulative IPC: 0.16706 (Simulation time: 0 hr 2 min 41 sec) 
Heartbeat CPU  0 instructions:   57000001 cycles:  292882468 heartbeat IPC: 0.16613 cumulative IPC: 0.16704 (Simulation time: 0 hr 2 min 44 sec) 
Heartbeat CPU  0 instructions:   58000002 cycles:  298260754 heartbeat IPC: 0.18593 cumulative IPC: 0.16739 (Simulation time: 0 hr 2 min 47 sec) 
Heartbeat CPU  0 instructions:   59000002 cycles:  304604429 heartbeat IPC: 0.15764 cumulative IPC: 0.16718 (Simulation time: 0 hr 2 min 50 sec) 
Heartbeat CPU  0 instructions:   60000000 cycles:  309770405 heartbeat IPC: 0.19357 cumulative IPC: 0.16764 (Simulation time: 0 hr 2 min 54 sec) 
Finished CPU 0 instructions: 50000000 cycles: 298259231 cumulative IPC: 0.16764 (Simulation time: 0 hr 2 min 54 sec) 

ChampSim completed all CPUs

[ROI Statistics]
Core_0_instructions 50000000
Core_0_cycles 298259231
Core_0_IPC 0.16764

Core_0_branch_prediction_accuracy 86.47559
Core_0_branch_MPKI 27.55800
Core_0_average_ROB_occupancy_at_mispredict 31.72116

Core_0_L1D_total_access 11103355
Core_0_L1D_total_hit 7079654
Core_0_L1D_total_miss 4023701
Core_0_L1D_loads 10855614
Core_0_L1D_load_hit 6831913
Core_0_L1D_load_miss 4023701
Core_0_L1D_RFOs 247741
Core_0_L1D_RFO_hit 247741
Core_0_L1D_RFO_miss 0
Core_0_L1D_prefetches 0
Core_0_L1D_prefetch_hit 0
Core_0_L1D_prefetch_miss 0
Core_0_L1D_writebacks 0
Core_0_L1D_writeback_hit 0
Core_0_L1D_writeback_miss 0
Core_0_L1D_prefetch_requested 0
Core_0_L1D_prefetch_dropped 0
Core_0_L1D_prefetch_issued 0
Core_0_L1D_prefetch_filled 0
Core_0_L1D_prefetch_useful 0
Core_0_L1D_prefetch_useless 0
Core_0_L1D_prefetch_late 0
Core_0_L1D_average_miss_latency 77.83940

Core_0_L1D_rq_access 13966324
Core_0_L1D_rq_forward 0
Core_0_L1D_rq_merged 2976278
Core_0_L1D_rq_to_cache 10990046
Core_0_L1D_rq_full 0

Core_0_L1D_wq_access 247741
Core_0_L1D_wq_forward 0
Core_0_L1D_wq_merged 0
Core_0_L1D_wq_to_cache 247741
Core_0_L1D_wq_full 0

Core_0_L1D_pq_access 0
Core_0_L1D_pq_forward 0
Core_0_L1D_pq_merged 0
Core_0_L1D_pq_to_cache 0
Core_0_L1D_pq_full 0

Core_0_L1D_acc_epochs 302138
Core_0_L1D_acc_level_0 302138
Core_0_L1D_acc_level_1 0
Core_0_L1D_acc_level_2 0
Core_0_L1D_acc_level_3 0
Core_0_L1D_acc_level_4 0
Core_0_L1D_acc_level_5 0
Core_0_L1D_acc_level_6 0
Core_0_L1D_acc_level_7 0
Core_0_L1D_acc_level_8 0
Core_0_L1D_acc_level_9 0

Core_0_L1I_total_access 10440835
Core_0_L1I_total_hit 10440835
Core_0_L1I_total_miss 0
Core_0_L1I_loads 10440835
Core_0_L1I_load_hit 10440835
Core_0_L1I_load_miss 0
Core_0_L1I_RFOs 0
Core_0_L1I_RFO_hit 0
Core_0_L1I_RFO_miss 0
Core_0_L1I_prefetches 0
Core_0_L1I_prefetch_hit 0
Core_0_L1I_prefetch_miss 0
Core_0_L1I_writebacks 0
Core_0_L1I_writeback_hit 0
Core_0_L1I_writeback_miss 0
Core_0_L1I_prefetch_requested 0
Core_0_L1I_prefetch_dropped 0
Core_0_L1I_prefetch_issued 0
Core_0_L1I_prefetch_filled 0
Core_0_L1I_prefetch_useful 0
Core_0_L1I_prefetch_useless 0
Core_0_L1I_prefetch_late 0
Core_0_L1I_average_miss_latency -nan

Core_0_L1I_rq_access 50000133
Core_0_L1I_rq_forward 0
Core_0_L1I_rq_merged 39559298
Core_0_L1I_rq_to_cache 10440835
Core_0_L1I_rq_full 0

Core_0_L1I_wq_access 0
Core_0_L1I_wq_forward 0
Core_0_L1I_wq_merged 0
Core_0_L1I_wq_to_cache 0
Core_0_L1I_wq_full 0

Core_0_L1I_pq_access 0
Core_0_L1I_pq_forward 0
Core_0_L1I_pq_merged 0
Core_0_L1I_pq_to_cache 0
Core_0_L1I_pq_full 0

Core_0_L1I_acc_epochs 302138
Core_0_L1I_acc_level_0 302138
Core_0_L1I_acc_level_1 0
Core_0_L1I_acc_level_2 0
Core_0_L1I_acc_level_3 0
Core_0_L1I_acc_level_4 0
Core_0_L1I_acc_level_5 0
Core_0_L1I_acc_level_6 0
Core_0_L1I_acc_level_7 0
Core_0_L1I_acc_level_8 0
Core_0_L1I_acc_level_9 0

Core_0_L2C_total_access 8873523
Core_0_L2C_total_hit 2573519
Core_0_L2C_total_miss 6300004
Core_0_L2C_loads 4023699
Core_0_L2C_load_hit 833589
Core_0_L2C_load_miss 3190110
Core_0_L2C_RFOs 0
Core_0_L2C_RFO_hit 0
Core_0_L2C_RFO_miss 0
Core_0_L2C_prefetches 4637492
Core_0_L2C_prefetch_hit 1528203
Core_0_L2C_prefetch_miss 3109289
Core_0_L2C_writebacks 212332
Core_0_L2C_writeback_hit 211727
Core_0_L2C_writeback_miss 605
Core_0_L2C_prefetch_requested 5506983
Core_0_L2C_prefetch_dropped 0
Core_0_L2C_prefetch_issued 5506983
Core_0_L2C_prefetch_filled 3666691
Core_0_L2C_prefetch_useful 427565
Core_0_L2C_prefetch_useless 3237371
Core_0_L2C_prefetch_late 9452
Core_0_L2C_average_miss_latency 89.92369

Core_0_L2C_rq_access 4023701
Core_0_L2C_rq_forward 0
Core_0_L2C_rq_merged 0
Core_0_L2C_rq_to_cache 4023699
Core_0_L2C_rq_full 0

Core_0_L2C_wq_access 212332
Core_0_L2C_wq_forward 2
Core_0_L2C_wq_merged 0
Core_0_L2C_wq_to_cache 212332
Core_0_L2C_wq_full 0

Core_0_L2C_pq_access 5506983
Core_0_L2C_pq_forward 0
Core_0_L2C_pq_merged 29350
Core_0_L2C_pq_to_cache 5477633
Core_0_L2C_pq_full 0

Core_0_L2C_acc_epochs 302138
Core_0_L2C_acc_level_0 123313
Core_0_L2C_acc_level_1 151695
Core_0_L2C_acc_level_2 22822
Core_0_L2C_acc_level_3 3130
Core_0_L2C_acc_level_4 608
Core_0_L2C_acc_level_5 367
Core_0_L2C_acc_level_6 49
Core_0_L2C_acc_level_7 38
Core_0_L2C_acc_level_8 42
Core_0_L2C_acc_level_9 74

Core_0_LLC_total_access 6511611
Core_0_LLC_total_hit 4401716
Core_0_LLC_total_miss 2109895
Core_0_LLC_loads 3181221
Core_0_LLC_load_hit 2266600
Core_0_LLC_load_miss 914621
Core_0_LLC_RFOs 0
Core_0_LLC_RFO_hit 0
Core_0_LLC_RFO_miss 0
Core_0_LLC_prefetches 3118176
Core_0_LLC_prefetch_hit 1923393
Core_0_LLC_prefetch_miss 1194783
Core_0_LLC_writebacks 212214
Core_0_LLC_writeback_hit 211723
Core_0_LLC_writeback_miss 491
Core_0_LLC_prefetch_requested 0
Core_0_LLC_prefetch_dropped 0
Core_0_LLC_prefetch_issued 0
Core_0_LLC_prefetch_filled 1408468
Core_0_LLC_prefetch_useful 184477
Core_0_LLC_prefetch_useless 1215346
Core_0_LLC_prefetch_late 0
Core_0_LLC_average_miss_latency 179.13975

Core_0_LLC_rq_access 3181222
Core_0_LLC_rq_forward 0
Core_0_LLC_rq_merged 0
Core_0_LLC_rq_to_cache 3181221
Core_0_LLC_rq_full 0

Core_0_LLC_wq_access 212214
Core_0_LLC_wq_forward 2
Core_0_LLC_wq_merged 0
Core_0_LLC_wq_to_cache 212214
Core_0_LLC_wq_full 0

Core_0_LLC_pq_access 3676144
Core_0_LLC_pq_forward 0
Core_0_LLC_pq_merged 0
Core_0_LLC_pq_to_cache 3676143
Core_0_LLC_pq_full 0

Core_0_LLC_acc_epochs 302511
Core_0_LLC_acc_level_0 140350
Core_0_LLC_acc_level_1 81165
Core_0_LLC_acc_level_2 44054
Core_0_LLC_acc_level_3 19273
Core_0_LLC_acc_level_4 5744
Core_0_LLC_acc_level_5 7831
Core_0_LLC_acc_level_6 2102
Core_0_LLC_acc_level_7 650
Core_0_LLC_acc_level_8 279
Core_0_LLC_acc_level_9 1063

Core_0_major_page_fault 0
Core_0_minor_page_fault 5512

scooby_st_lookup 4622125
scooby_st_hit 1733761
scooby_st_evict 2888300
scooby_st_insert 2888364
scooby_st_streaming 0

scooby_predict_called 4622125
scooby_predict_out_of_bounds 102925
scooby_predict_action_1 3758061
scooby_predict_issue_action_1 3754597
scooby_predict_hit_action_1 3464
scooby_predict_out_of_bounds_action_1 64912
scooby_predict_action_3 15097
scooby_predict_issue_action_3 14659
scooby_predict_hit_action_3 438
scooby_predict_out_of_bounds_action_3 1420
scooby_predict_action_4 13701
scooby_predict_issue_action_4 13301
scooby_predict_hit_action_4 400
scooby_predict_out_of_bounds_action_4 1629
scooby_predict_action_5 13505
scooby_predict_issue_action_5 13113
scooby_predict_hit_action_5 392
scooby_predict_out_of_bounds_action_5 1964
scooby_predict_action_10 11036
scooby_predict_issue_action_10 10599
scooby_predict_hit_action_10 437
scooby_predict_out_of_bounds_action_10 3031
scooby_predict_action_11 10325
scooby_predict_issue_action_11 10048
scooby_predict_hit_action_11 277
scooby_predict_out_of_bounds_action_11 3236
scooby_predict_action_12 9628
scooby_predict_issue_action_12 9368
scooby_predict_hit_action_12 260
scooby_predict_out_of_bounds_action_12 3492
scooby_predict_action_22 6316
scooby_predict_issue_action_22 6083
scooby_predict_hit_action_22 233
scooby_predict_out_of_bounds_action_22 5132
scooby_predict_action_23 6027
scooby_predict_issue_action_23 5851
scooby_predict_hit_action_23 176
scooby_predict_out_of_bounds_action_23 5205
scooby_predict_action_30 4205
scooby_predict_issue_action_30 4042
scooby_predict_hit_action_30 163
scooby_predict_out_of_bounds_action_30 6059
scooby_predict_action_32 3783
scooby_predict_issue_action_32 3680
scooby_predict_hit_action_32 103
scooby_predict_out_of_bounds_action_32 6290
scooby_predict_action_-1 13476
scooby_predict_issue_action_-1 12952
scooby_predict_hit_action_-1 524
scooby_predict_out_of_bounds_action_-1 37
scooby_predict_action_-3 13417
scooby_predict_issue_action_-3 12898
scooby_predict_hit_action_-3 519
scooby_predict_out_of_bounds_action_-3 157
scooby_predict_action_-6 13012
scooby_predict_issue_action_-6 12500
scooby_predict_hit_action_-6 512
scooby_predict_out_of_bounds_action_-6 361
scooby_predict_action_0 627611
scooby_predict_issue_action_0 0
scooby_predict_hit_action_0 0
scooby_predict_out_of_bounds_action_0 0
scooby_predict_multi_deg_called 526128
scooby_predict_predicted 5506983
scooby_predict_multi_deg 1623292
scooby_predict_multi_deg_2 513116
scooby_predict_multi_deg_3 339518
scooby_predict_multi_deg_4 331588
scooby_predict_multi_deg_5 221803
scooby_predict_multi_deg_6 217267
scooby_predict_multi_deg_7 0
scooby_predict_multi_deg_8 0
scooby_predict_multi_deg_9 0
scooby_predict_multi_deg_10 0
scooby_predict_multi_deg_11 0
scooby_predict_multi_deg_12 0
scooby_predict_multi_deg_13 0
scooby_predict_multi_deg_14 0
scooby_predict_multi_deg_15 0
scooby_predict_multi_deg_16 0

scooby_selected_deg_1 3357563
scooby_selected_deg_2 169600
scooby_selected_deg_3 0
scooby_selected_deg_4 115109
scooby_selected_deg_5 0
scooby_selected_deg_6 241419
scooby_selected_deg_7 0
scooby_selected_deg_8 0
scooby_selected_deg_9 0
scooby_selected_deg_10 0
scooby_selected_deg_11 0
scooby_selected_deg_12 0
scooby_selected_deg_13 0
scooby_selected_deg_14 0
scooby_selected_deg_15 0
scooby_selected_deg_16 0

scooby_state_564c2be4a266|1|0 56627,18,23,13,13,18,16,19,14,22,15,14,15,8,11771,68606,
scooby_state_564c2be4a266|2|0 56363,11,16,11,15,11,18,10,14,11,15,10,12,8,10842,67367,
scooby_state_564c2be4a266|5|0 53345,11,9,12,17,11,14,10,16,15,7,15,13,14,10056,63565,
scooby_state_564c2be4a266|0|0 52114,16,13,13,16,5,12,9,13,9,8,13,22,10,11108,63381,
scooby_state_564c2be4a266|4|0 49872,8,14,14,9,5,12,14,12,11,9,13,9,9,9654,59665,
scooby_state_564c2be4a266|12|0 50758,17,9,9,11,13,17,11,17,15,14,16,7,19,8628,59561,
scooby_state_564c2be4a266|3|0 44900,3,10,17,14,11,10,11,11,7,10,9,16,8,9101,54138,
scooby_state_564c2be4a266|7|0 45077,20,13,8,7,19,10,5,13,12,10,7,8,10,8186,53405,
scooby_state_564c2be4a266|8|0 44730,19,14,8,10,10,11,13,5,6,6,12,10,12,7996,52862,
scooby_state_564c2be4a266|16|0 44837,8,15,10,9,19,7,10,8,13,7,13,11,9,7465,52441,
scooby_state_564c2be4a266|10|0 43502,10,13,7,9,14,11,5,14,8,16,8,14,7,7801,51439,
scooby_state_564c2be4a266|6|0 41385,11,7,8,8,10,7,15,12,15,4,7,6,15,7842,49352,
scooby_state_564c2be4a266|9|0 41824,11,12,11,8,9,9,8,5,7,14,15,13,5,7340,49291,
scooby_state_564c2be4a266|11|0 41704,18,5,10,12,14,6,9,15,5,12,8,9,10,7135,48972,
scooby_state_564c2be4a266|23|0 42203,9,14,12,15,5,8,6,10,8,13,9,7,10,6605,48934,
scooby_state_564c2be4a266|21|0 41520,9,10,10,10,13,6,6,10,8,9,12,7,12,6719,48361,
scooby_state_564c2be4a266|15|0 40882,11,8,11,13,9,6,5,9,10,11,16,14,11,6790,47806,
scooby_state_564c2be4a266|18|0 40425,12,7,17,14,8,14,6,5,6,10,12,12,11,6702,47261,
scooby_state_564c2be4a266|37|0 40941,12,9,15,6,9,11,11,9,7,8,5,12,15,6123,47193,
scooby_state_564c2be4a266|22|0 40151,5,10,9,3,6,11,10,14,5,5,10,12,9,6452,46712,
scooby_state_564c2be4a266|14|0 38479,10,10,13,8,7,7,9,11,11,6,6,8,8,6268,44861,
scooby_state_564c2be4a266|19|0 37911,7,13,9,11,4,8,14,10,6,6,7,6,8,6239,44259,
scooby_state_564c2be4a266|24|0 38199,11,8,9,4,8,10,6,14,9,7,8,5,6,5915,44219,
scooby_state_564c2be4a266|13|0 37532,8,9,13,11,5,8,7,9,8,14,9,5,8,6477,44123,
scooby_state_564c2be4a266|39|0 37929,12,11,10,10,10,5,7,14,5,10,7,13,7,5564,43614,
scooby_state_564c2be4a266|27|0 37437,3,3,6,10,7,12,9,9,6,12,6,5,6,5738,43269,
scooby_state_564c2be4a266|17|0 36704,12,10,8,11,7,6,3,12,6,12,5,5,5,5923,42729,
scooby_state_564c2be4a266|26|0 36480,10,8,11,8,10,6,8,7,8,5,4,3,6,5724,42298,
scooby_state_564c2be4a266|36|0 36131,12,6,8,8,8,11,5,6,3,14,6,7,9,5456,41690,
scooby_state_564c2be4a266|25|0 35994,8,8,8,11,7,5,12,10,8,8,11,9,6,5472,41577,
scooby_state_564c2be4a266|31|0 35982,7,9,6,4,9,10,7,8,11,10,7,6,5,5426,41507,
scooby_state_564c2be4a266|20|0 35531,11,8,7,14,11,14,4,9,5,6,12,8,5,5754,41399,
scooby_state_564c2be4a266|34|0 35702,11,6,7,9,10,6,10,11,8,5,6,14,11,5456,41272,
scooby_state_564c2be4a266|46|0 35904,7,4,8,10,9,9,11,4,8,8,7,3,9,5088,41089,
scooby_state_564c2be4a266|29|0 35477,8,6,10,9,6,7,5,11,12,6,5,10,14,5335,40921,
scooby_state_564c2be4a266|33|0 35308,8,10,6,14,5,12,11,8,9,6,5,14,8,5360,40784,
scooby_state_564c2be4a266|43|0 35514,7,2,9,7,6,13,15,11,10,11,11,12,8,4931,40567,
scooby_state_564c2be4a266|44|0 35409,9,10,6,10,8,10,14,4,14,10,6,9,7,5036,40562,
scooby_state_564c2be4a266|40|0 35129,10,7,2,8,5,8,8,8,11,10,14,5,7,5229,40461,
scooby_state_564c2be4a266|30|0 34653,5,11,6,13,9,5,8,9,6,9,5,12,8,5075,39834,
scooby_state_564c2be4a266|28|0 34243,9,13,6,10,12,8,14,7,12,5,11,5,8,5325,39688,
scooby_state_564c2be4a266|32|0 33694,11,13,8,8,7,12,10,6,9,6,9,13,8,5208,39022,
scooby_state_564c2be4a266|42|0 33787,10,8,12,9,7,10,12,5,7,17,4,9,10,4944,38851,
scooby_state_564c2be4a266|56|0 33846,8,7,4,4,10,7,7,6,4,9,12,12,11,4785,38732,
scooby_state_564c2be4a266|61|0 33324,10,9,5,10,8,8,13,6,3,6,8,5,5,4569,37989,
scooby_state_564c2be4a266|63|0 33342,2,9,11,3,6,9,9,8,9,6,11,9,6,4479,37919,
scooby_state_564c2be4a266|35|0 32425,10,9,12,7,4,9,8,7,5,7,6,3,9,4833,37354,
scooby_state_564c2be4a266|50|0 32559,8,6,6,9,7,13,9,7,6,8,7,8,10,4570,37233,
scooby_state_564c2be4a266|62|0 32414,10,11,2,8,7,7,8,11,11,13,8,10,11,4425,36956,
scooby_state_564c2be4a266|38|0 31848,7,7,9,5,7,6,7,12,9,7,12,7,8,4809,36760,
scooby_state_564c2be4a266|41|0 31817,13,12,10,5,6,6,10,7,7,7,6,5,4,4740,36655,
scooby_state_564c2be4a266|48|0 31937,6,10,5,9,7,7,8,12,5,3,7,9,6,4534,36565,
scooby_state_564c2be4a266|55|0 31878,5,10,10,8,6,9,5,10,6,9,4,8,5,4569,36542,
scooby_state_564c2be4a266|53|0 32107,10,1,9,4,10,6,4,6,4,5,5,9,7,4348,36535,
scooby_state_564c2be4a266|58|0 31863,10,6,9,6,6,9,6,4,8,8,5,2,8,4340,36290,
scooby_state_564c2be4a266|47|0 31551,14,2,9,11,11,9,6,4,5,7,7,12,7,4528,36183,
scooby_state_564c2be4a266|52|0 31784,6,7,11,7,9,9,6,4,2,8,11,6,6,4289,36165,
scooby_state_564c2be4a266|60|0 30328,9,9,8,8,11,10,15,6,6,6,8,2,5,4180,34611,
scooby_state_564c2be4a266|51|0 30220,9,6,5,6,11,6,6,8,7,7,6,6,6,4272,34581,
scooby_state_564c2be4a266|57|0 30043,10,7,5,5,9,5,9,8,7,10,7,4,7,4136,34272,
scooby_state_564c2be4a266|49|0 29347,5,3,9,10,7,8,3,7,5,7,5,10,7,4317,33750,
scooby_state_564c2be4a266|45|0 29137,8,11,8,5,9,9,8,10,8,5,10,8,5,4199,33440,
scooby_state_564c2be4a266|59|0 28713,5,8,9,6,3,9,5,13,4,4,7,8,9,4060,32863,
scooby_state_564c2be4a266|54|0 28667,5,10,10,5,6,8,8,3,6,8,9,7,7,3997,32756,
scooby_state_564c2be4a260|4|1 4154,0,1,1,0,0,0,1,1,0,0,2,0,2,0,4162,
scooby_state_564c2be4a260|7|1 4156,0,2,0,0,0,0,2,0,1,1,0,0,0,0,4162,
scooby_state_564c2be4a260|10|1 4153,0,0,0,1,0,0,0,1,2,1,1,0,2,1,4162,
scooby_state_564c2be4a260|11|1 4156,0,1,0,0,0,0,1,0,0,1,0,2,0,1,4162,
scooby_state_564c2be4a260|1|1 4162,0,0,0,0,0,0,0,0,0,0,0,0,0,0,4162,
scooby_state_564c2be4a260|16|1 4153,1,1,0,1,0,0,2,1,1,0,0,1,0,1,4162,
scooby_state_564c2be4a260|3|1 4152,0,0,1,0,0,0,1,1,1,1,1,2,2,0,4162,
scooby_state_564c2be4a260|14|1 4155,1,1,0,1,1,0,2,0,0,0,0,1,0,0,4162,
scooby_state_564c2be4a260|5|1 4154,1,0,0,1,2,0,0,0,0,0,1,1,0,2,4162,
scooby_state_564c2be4a260|13|1 4155,2,1,1,0,0,0,1,1,0,1,0,0,0,0,4162,
scooby_state_564c2be4a260|6|1 4152,0,0,2,1,0,0,1,0,2,1,0,1,2,0,4162,
scooby_state_564c2be4a260|0|0 4155,1,0,0,2,0,0,0,1,0,0,1,1,1,0,4162,
scooby_state_564c2be4a260|8|1 4155,1,0,2,1,1,0,1,0,0,0,0,0,1,0,4162,
scooby_state_564c2be4a260|9|1 4156,3,0,0,0,0,2,0,0,0,0,0,0,1,0,4162,
scooby_state_564c2be4a260|19|1 4159,0,0,0,0,1,0,0,0,1,1,0,0,0,0,4162,
scooby_state_564c2be4a260|12|1 4152,2,2,0,0,0,0,1,1,0,0,2,1,1,0,4162,
scooby_state_564c2be4a260|18|1 4155,0,0,1,0,0,2,1,1,0,1,0,1,0,0,4162,
scooby_state_564c2be4a260|17|1 4156,0,1,0,1,2,0,1,0,0,1,0,0,0,0,4162,
scooby_state_564c2be4a260|15|1 4156,2,0,0,0,0,1,0,1,0,0,0,0,2,0,4162,
scooby_state_564c2be4a260|2|1 4159,0,0,0,1,1,1,0,0,0,0,0,0,0,0,4162,
scooby_state_564c2be4a260|47|1 4153,2,0,3,1,0,1,0,0,0,0,0,0,0,1,4161,
scooby_state_564c2be4a260|61|1 4155,0,0,1,1,0,1,0,0,1,0,0,0,1,1,4161,
scooby_state_564c2be4a260|38|1 4157,0,1,1,0,1,0,0,0,1,0,0,0,0,0,4161,
scooby_state_564c2be4a260|29|1 4157,1,0,0,0,1,0,0,0,0,2,0,0,0,0,4161,
scooby_state_564c2be4a260|30|1 4158,0,0,0,1,0,0,0,0,0,1,0,0,1,0,4161,
scooby_state_564c2be4a260|54|1 4157,0,0,0,0,1,0,0,0,0,1,0,2,0,0,4161,
scooby_state_564c2be4a260|37|1 4156,0,0,0,0,1,0,0,1,0,1,1,1,0,0,4161,
scooby_state_564c2be4a260|45|1 4155,1,0,1,0,2,1,0,0,0,0,1,0,0,0,4161,
scooby_state_564c2be4a260|53|1 4153,0,0,0,1,1,0,0,0,1,1,1,0,1,2,4161,
scooby_state_564c2be4a260|33|1 4154,1,0,0,1,0,1,1,0,2,0,0,0,0,1,4161,
scooby_state_564c2be4a260|34|1 4154,0,0,0,0,0,1,0,0,0,0,0,1,3,2,4161,
scooby_state_564c2be4a260|62|1 4154,0,1,3,0,0,0,0,1,0,0,1,1,0,0,4161,
scooby_state_564c2be4a260|31|1 4155,1,0,0,0,0,0,0,0,2,0,0,3,0,0,4161,
scooby_state_564c2be4a260|22|1 4155,0,0,1,0,0,0,0,2,1,1,0,0,1,0,4161,
scooby_state_564c2be4a260|39|1 4150,0,0,2,0,1,2,1,3,0,0,0,1,0,1,4161,
scooby_state_564c2be4a260|63|1 4155,1,0,0,0,0,1,0,0,1,0,0,0,2,1,4161,
scooby_state_564c2be4a260|40|1 4154,0,1,2,0,1,1,0,0,0,0,0,1,0,1,4161,
scooby_state_564c2be4a260|32|1 4155,0,0,1,0,0,0,1,2,0,1,0,0,1,0,4161,
scooby_state_564c2be4a260|26|1 4156,0,0,0,1,1,0,0,1,0,1,0,0,0,1,4161,
scooby_state_564c2be4a260|43|1 4155,0,0,1,1,0,0,1,0,0,1,0,1,1,0,4161,
scooby_state_564c2be4a260|51|1 4155,0,1,0,1,1,0,0,1,1,0,0,1,0,0,4161,
scooby_state_564c2be4a260|23|1 4155,0,1,0,1,1,0,0,1,1,0,0,1,0,0,4161,
scooby_state_564c2be4a260|27|1 4154,0,0,1,0,0,2,0,0,0,2,1,1,0,0,4161,
scooby_state_564c2be4a260|57|1 4154,0,0,1,1,1,0,0,0,1,1,1,0,0,1,4161,
scooby_state_564c2be4a260|59|1 4154,2,1,1,0,0,1,0,0,0,0,0,0,1,1,4161,
scooby_state_564c2be4a260|48|1 4149,1,0,1,0,2,1,0,0,1,0,1,1,4,0,4161,
scooby_state_564c2be4a260|25|1 4151,0,3,0,1,1,0,1,2,0,0,0,1,1,0,4161,
scooby_state_564c2be4a260|60|1 4155,0,1,1,0,2,0,1,0,0,0,0,1,0,0,4161,
scooby_state_564c2be4a260|55|1 4157,0,0,0,1,0,0,0,0,0,1,1,0,0,1,4161,
scooby_state_564c2be4a260|56|1 4154,0,1,0,0,0,0,1,1,2,0,1,1,0,0,4161,
scooby_state_564c2be4a260|36|1 4151,1,1,1,0,0,1,0,2,2,0,2,0,0,0,4161,
scooby_state_564c2be4a260|28|1 4158,0,0,0,1,1,0,0,0,0,1,0,0,0,0,4161,
scooby_state_564c2be4a260|49|1 4158,0,1,0,0,0,0,0,0,1,0,0,0,1,0,4161,
scooby_state_564c2be4a260|52|1 4149,0,0,1,0,2,1,2,0,3,0,0,3,0,0,4161,
scooby_state_564c2be4a260|41|1 4155,0,1,1,0,0,1,1,0,1,0,1,0,0,0,4161,
scooby_state_564c2be4a260|46|1 4156,0,2,1,1,0,0,0,0,0,0,0,1,0,0,4161,
scooby_state_564c2be4a260|50|1 4150,2,0,0,1,1,0,1,1,3,0,1,0,0,1,4161,
scooby_state_564c2be4a260|44|1 4155,1,1,0,0,1,0,0,0,1,0,1,1,0,0,4161,
scooby_state_564c2be4a260|24|1 4152,0,0,1,0,1,2,1,0,0,2,0,1,0,1,4161,
scooby_state_564c2be4a260|42|1 4156,0,0,0,0,0,0,0,0,0,2,2,1,0,0,4161,
scooby_state_564c2be4a260|21|1 4153,0,1,0,0,1,1,0,0,2,2,0,1,0,0,4161,
scooby_state_564c2be4a260|58|1 4153,0,0,1,1,1,0,2,0,0,1,0,0,0,2,4161,
scooby_state_564c2be4a260|20|1 4149,0,1,1,1,2,0,1,2,0,0,1,1,0,2,4161,
scooby_state_564c2be4a260|35|1 4158,0,1,0,0,1,1,0,0,0,0,0,0,0,0,4161,
scooby_state_564c2be4a27b|25|0 2093,5,5,13,5,9,6,10,4,3,8,10,8,13,463,2655,
scooby_state_564c2be4a27b|16|0 1846,8,8,7,8,9,6,9,9,8,4,8,5,11,437,2383,
scooby_state_564c2be4a27b|49|0 1812,5,4,7,8,7,5,2,6,3,8,5,8,9,437,2326,
scooby_state_564c2be4a240|23|0 1376,57,63,57,52,58,60,56,51,57,55,61,62,54,160,2279,
scooby_state_564c2be4a27b|10|0 1636,8,8,6,10,8,7,5,2,4,5,5,4,5,401,2114,
scooby_state_564c2be4a27b|12|0 1619,9,5,8,4,3,9,8,1,4,3,5,5,3,418,2104,
scooby_state_564c2be4a266|16|1 1480,13,6,7,4,10,5,3,3,1,2,8,7,6,443,1998,
scooby_state_564c2be4a266|62|1 1388,11,10,10,12,13,14,8,11,1,3,3,3,8,500,1995,
scooby_state_564c2be4a266|51|1 1341,19,16,13,10,9,4,6,4,4,5,7,7,2,492,1939,
scooby_state_564c2be4a266|2|1 1365,9,12,12,9,10,7,7,4,8,4,2,3,8,476,1936,
scooby_state_564c2be4a266|15|1 1467,13,10,7,6,11,7,4,4,3,3,4,1,8,376,1924,
scooby_state_564c2be4a27b|4|0 1464,7,5,9,2,5,6,4,2,3,9,5,8,9,353,1891,
scooby_state_564c2be4a266|61|1 1300,15,9,5,5,9,11,2,9,5,3,9,7,2,499,1890,
scooby_state_564c2be4a27b|45|0 1441,4,6,6,4,2,1,2,3,6,5,7,4,5,367,1863,
scooby_state_564c2be4a266|39|1 1334,12,5,6,12,10,3,3,5,8,4,0,6,7,400,1815,
scooby_state_564c2be4a266|37|1 1288,8,10,6,15,10,9,7,3,6,2,4,3,1,438,1810,
scooby_state_564c2be4a266|17|1 1305,15,3,10,12,10,5,3,3,5,1,5,6,3,423,1809,
scooby_state_564c2be4a266|19|1 1332,14,12,8,6,9,5,5,8,5,3,3,7,1,387,1805,
scooby_state_564c2be4a266|23|1 1320,10,8,9,5,7,5,4,2,4,3,5,5,6,405,1798,
scooby_state_564c2be4a266|18|1 1294,13,4,10,7,15,6,2,2,5,5,8,7,1,386,1765,
scooby_state_564c2be4a266|22|1 1282,8,12,8,4,9,5,4,5,5,2,2,2,3,411,1762,
scooby_state_564c2be4a266|40|1 1254,14,8,4,6,6,8,5,3,8,2,3,3,9,428,1761,
scooby_state_564c2be4a266|4|1 1232,14,11,6,9,6,7,10,4,3,5,4,4,5,438,1758,
scooby_state_564c2be4a266|63|1 1166,11,12,10,7,12,16,3,5,1,5,4,8,5,483,1748,
scooby_state_564c2be4a266|63|2 1178,13,6,14,9,8,11,6,6,6,7,3,10,11,457,1745,
scooby_state_564c2be4a266|7|1 1233,12,6,4,7,8,3,7,5,2,1,5,9,2,426,1730,
scooby_state_564c2be4a27b|61|0 1290,4,4,5,6,2,5,6,5,1,2,6,5,2,381,1724,
scooby_state_564c2be4a266|43|3 1241,8,11,6,9,10,4,3,6,2,6,6,5,3,401,1721,
scooby_state_564c2be4a266|39|2 1227,12,6,6,6,3,3,12,5,7,1,6,9,4,411,1718,
scooby_state_564c2be4a266|38|1 1214,14,6,9,11,8,8,5,8,5,2,5,4,6,396,1701,
scooby_state_564c2be4a266|32|1 1212,10,10,9,6,5,7,2,4,7,4,4,4,5,402,1691,
scooby_state_564c2be4a266|28|1 1223,6,5,11,11,8,4,4,4,3,5,7,5,3,388,1687,
scooby_state_564c2be4a266|31|1 1219,12,9,7,8,8,6,10,2,7,3,4,8,1,376,1680,
scooby_state_564c2be4a266|52|2 1193,18,3,5,10,8,4,4,5,4,1,8,2,3,402,1670,
scooby_state_564c2be4a266|42|1 1164,9,9,0,6,10,11,4,4,8,6,2,6,7,422,1668,
scooby_state_564c2be4a266|57|1 1159,13,8,4,9,8,4,8,3,7,5,5,6,7,422,1668,
scooby_state_564c2be4a266|55|1 1149,17,14,5,9,8,7,3,3,4,3,5,4,6,419,1656,
scooby_state_564c2be4a266|1|1 1136,15,6,8,13,6,9,10,4,5,5,3,3,6,424,1653,
scooby_state_564c2be4a266|8|3 1188,5,13,6,7,9,9,5,7,6,4,5,7,4,376,1651,
scooby_state_564c2be4a266|21|1 1163,12,10,3,11,9,9,3,8,6,4,3,4,4,401,1650,
scooby_state_564c2be4a266|53|1 1113,9,12,6,10,12,4,11,7,5,3,8,3,5,441,1649,
scooby_state_564c2be4a266|25|1 1202,12,10,3,5,6,7,3,5,1,7,3,2,5,377,1648,
scooby_state_564c2be4a266|52|1 1120,10,11,5,10,10,3,5,6,7,2,7,8,2,441,1647,
scooby_state_564c2be4a266|47|1 1157,14,10,8,9,6,6,4,4,3,2,5,2,4,405,1639,
scooby_state_564c2be4a266|13|1 1188,9,3,4,10,9,4,6,1,5,4,3,3,5,381,1635,
scooby_state_564c2be4a266|27|2 1211,11,5,11,5,9,5,5,2,4,3,6,9,7,340,1633,
scooby_state_564c2be4a266|56|1 1128,6,18,6,7,10,8,8,9,8,4,3,2,3,413,1633,
scooby_state_564c2be4a266|18|2 1147,16,2,10,6,3,5,6,9,12,7,9,4,2,394,1632,
scooby_state_564c2be4a266|41|1 1149,15,13,7,3,10,7,5,6,3,5,2,7,9,390,1631,
scooby_state_564c2be4a266|59|1 1077,11,10,10,8,13,11,5,4,3,4,5,5,12,452,1630,
scooby_state_564c2be4a266|23|2 1182,11,3,6,3,10,7,10,3,5,3,4,3,5,371,1626,
scooby_state_564c2be4a266|43|4 1180,6,10,6,5,9,1,3,8,3,6,4,5,5,372,1623,
scooby_state_564c2be4a266|44|1 1123,11,3,7,13,8,3,5,2,3,6,7,5,4,419,1619,
scooby_state_564c2be4a266|5|1 1109,19,8,4,15,7,7,7,6,5,2,7,6,6,408,1616,
scooby_state_564c2be4a266|60|1 1083,19,12,9,9,8,10,4,7,10,6,4,7,8,417,1613,
scooby_state_564c2be4a266|36|2 1155,12,5,10,5,7,7,5,6,6,4,5,1,2,358,1588,
scooby_state_564c2be4a266|12|2 1128,5,0,12,5,6,6,7,5,4,4,8,7,7,383,1587,
scooby_state_564c2be4a266|4|2 1072,11,11,9,14,5,7,4,6,5,6,4,8,6,414,1582,
scooby_state_564c2be4a266|46|2 1088,13,3,12,7,6,9,10,2,6,5,9,6,5,401,1582,
scooby_state_564c2be4a266|40|3 1140,10,12,11,14,6,6,8,9,2,6,4,5,2,347,1582,
scooby_state_564c2be4a266|12|1 1143,8,8,5,7,7,6,4,3,4,4,0,6,4,371,1580,
scooby_state_564c2be4a266|62|2 1085,21,11,10,5,8,7,4,6,1,4,3,7,4,400,1576,
scooby_state_564c2be4a266|24|1 1129,14,10,4,9,6,6,5,1,5,2,4,3,2,369,1569,
scooby_state_564c2be4a266|50|1 1089,9,7,6,8,7,13,7,5,3,6,8,4,5,391,1568,
scooby_state_564c2be4a266|7|2 1099,18,9,9,5,5,5,7,4,3,0,8,4,8,381,1565,
scooby_state_564c2be4a27b|54|0 1182,6,5,2,4,6,10,8,5,0,2,6,11,6,309,1562,
scooby_state_564c2be4a266|51|2 1076,13,7,8,11,7,6,6,11,2,4,7,0,1,403,1562,
scooby_state_564c2be4a266|36|1 1092,11,10,10,12,11,7,7,1,4,2,4,6,5,377,1559,
scooby_state_564c2be4a266|50|3 1093,11,15,11,5,9,8,4,6,1,1,6,5,5,375,1555,
scooby_state_564c2be4a266|12|3 1138,9,9,11,5,0,12,4,3,4,4,4,4,2,342,1551,
scooby_state_564c2be4a266|61|2 1051,10,11,11,9,10,13,8,8,2,7,6,8,4,390,1548,
scooby_state_564c2be4a266|22|4 1155,9,9,9,7,5,4,4,2,2,3,3,9,4,321,1546,
scooby_state_564c2be4a266|3|1 1081,7,7,3,6,9,6,8,7,8,3,5,9,6,372,1537,
scooby_state_564c2be4a266|29|1 1103,9,8,8,8,10,6,4,2,7,6,4,5,2,355,1537,
scooby_state_564c2be4a27b|37|0 1174,3,1,5,9,3,2,2,3,3,2,3,9,4,314,1537,
scooby_state_564c2be4a266|57|2 1067,19,8,8,6,8,14,6,7,7,0,8,4,1,373,1536,
scooby_state_564c2be4a27b|41|0 1191,7,4,5,5,5,4,3,6,5,3,8,8,2,277,1533,
scooby_state_564c2be4a27b|11|0 1235,6,3,5,2,2,4,3,2,4,3,4,4,5,249,1531,
scooby_state_564c2be4a266|31|3 1078,9,19,4,6,6,6,6,7,3,8,6,8,5,359,1530,
scooby_state_564c2be4a266|59|2 1029,9,6,9,9,8,9,3,7,9,4,5,4,7,401,1519,
scooby_state_564c2be4a266|38|2 1108,9,3,4,7,9,6,9,7,4,5,11,5,6,325,1518,
scooby_state_564c2be4a266|58|1 1042,10,16,9,15,5,6,5,2,7,3,3,2,3,381,1509,
scooby_state_564c2be4a266|37|2 1066,9,6,12,9,5,7,5,4,5,4,7,4,6,355,1504,
scooby_state_564c2be4a266|55|2 1040,9,7,10,8,7,7,4,1,5,7,6,9,3,381,1504,
scooby_state_564c2be4a266|41|2 1064,10,4,8,6,10,6,4,1,4,8,4,7,9,357,1502,
scooby_state_564c2be4a27b|42|0 1219,6,3,3,2,4,5,3,1,2,7,10,3,4,227,1499,
scooby_state_564c2be4a266|8|1 1071,8,9,6,9,7,4,5,7,6,5,1,1,7,350,1496,
scooby_state_564c2be4a266|33|1 1044,7,6,11,9,4,7,1,6,6,2,1,4,5,372,1485,
scooby_state_564c2be4a266|54|1 994,8,14,10,7,8,8,8,6,3,3,5,5,3,397,1479,
scooby_state_564c2be4a266|43|2 1021,15,3,13,6,11,5,6,1,6,5,7,6,8,356,1469,
scooby_state_564c2be4a266|59|3 973,8,16,17,8,6,10,5,2,7,3,7,10,6,390,1468,
scooby_state_564c2be4a27b|62|0 1127,2,5,2,4,5,6,5,6,2,2,5,6,5,285,1467,
scooby_state_564c2be4a266|21|2 1034,9,5,8,6,7,6,10,2,4,2,4,2,6,361,1466,
scooby_state_564c2be4a266|34|1 1061,14,8,8,10,1,7,1,3,2,3,5,3,3,337,1466,
scooby_state_564c2be4a266|6|1 1014,14,11,4,8,7,4,5,5,2,5,9,7,2,363,1460,
scooby_state_564c2be4a27b|23|0 1156,6,7,2,3,6,4,8,2,7,3,8,1,1,246,1460,
scooby_state_564c2be4a266|24|2 1059,4,6,7,6,3,6,6,7,2,5,6,3,4,336,1460,
scooby_state_564c2be4a266|14|2 1059,10,6,11,6,4,7,5,1,2,2,6,10,7,322,1458,
scooby_state_564c2be4a266|53|5 1026,14,11,6,12,9,9,8,4,3,2,4,8,6,336,1458,
scooby_state_564c2be4a266|26|2 1044,13,6,12,7,9,2,11,4,2,3,6,8,4,324,1455,
scooby_state_564c2be4a266|31|2 1044,4,5,9,2,12,6,6,5,8,7,6,8,2,330,1454,
scooby_state_564c2be4a266|58|2 1006,13,4,10,4,6,9,4,4,5,4,5,8,6,365,1453,
scooby_state_564c2be4a266|34|3 1048,6,12,10,12,5,11,2,7,2,1,6,4,4,323,1453,
scooby_state_564c2be4a266|43|1 1005,10,10,6,5,9,5,8,3,6,5,4,5,4,366,1451,
scooby_state_564c2be4a266|4|3 1000,13,17,6,11,4,8,13,8,3,3,3,5,5,352,1451,
scooby_state_564c2be4a266|10|1 1023,6,12,3,5,10,4,11,1,7,1,4,1,4,356,1448,
scooby_state_564c2be4a266|46|1 1031,12,6,4,9,9,4,2,8,4,2,5,5,4,338,1443,
scooby_state_564c2be4a266|59|4 1001,18,8,9,7,8,4,5,8,5,2,7,5,3,352,1442,
scooby_state_564c2be4a266|5|2 962,17,6,9,10,8,5,6,4,2,4,5,8,6,390,1442,
scooby_state_564c2be4a266|16|2 1035,15,5,9,11,9,5,5,6,2,1,6,5,2,325,1441,
scooby_state_564c2be4a266|19|3 1033,11,12,4,11,3,7,4,9,4,4,5,9,3,320,1439,
scooby_state_564c2be4a266|20|1 1030,10,10,4,8,6,4,8,5,4,3,4,4,6,332,1438,
scooby_state_564c2be4a266|49|1 994,11,4,2,10,7,5,5,2,5,4,3,4,4,376,1436,
scooby_state_564c2be4a266|20|2 1009,12,6,8,4,6,7,4,5,3,4,4,8,2,350,1432,
scooby_state_564c2be4a266|45|1 1003,9,8,6,7,8,7,6,3,3,4,2,1,1,364,1432,
scooby_state_564c2be4a266|11|1 991,15,12,9,7,11,6,6,2,6,4,2,3,6,351,1431,
scooby_state_564c2be4a266|22|3 1032,5,13,7,9,7,3,5,5,2,5,3,9,7,314,1426,
scooby_state_564c2be4a266|60|2 1010,11,6,17,7,9,4,2,8,5,7,2,4,6,328,1426,
scooby_state_564c2be4a266|30|1 1044,5,7,3,6,6,10,4,7,4,3,2,1,1,321,1424,
scooby_state_564c2be4a266|48|1 972,12,5,2,5,8,6,2,5,1,5,6,2,4,389,1424,
scooby_state_564c2be4a266|47|3 1028,8,11,6,7,10,5,4,4,4,4,6,4,1,321,1423,
scooby_state_564c2be4a266|63|3 1015,15,9,5,7,3,4,2,3,1,5,5,5,8,335,1422,
scooby_state_564c2be4a266|25|2 1049,13,3,11,8,6,4,8,4,1,3,8,4,7,293,1422,
scooby_state_564c2be4a266|26|1 1020,13,4,7,5,3,9,5,1,5,1,4,4,1,340,1422,
scooby_state_564c2be4a27b|8|0 1115,2,4,4,3,4,3,1,2,1,5,2,3,1,271,1421,
scooby_state_564c2be4a266|37|3 1040,7,5,8,11,1,5,5,6,2,4,3,0,5,317,1419,
scooby_state_564c2be4a266|28|2 1047,10,4,4,4,8,2,4,5,8,1,8,3,1,309,1418,
scooby_state_564c2be4a266|5|3 980,13,22,6,7,8,5,8,4,3,4,4,3,4,347,1418,
scooby_state_564c2be4a266|35|1 993,11,7,8,6,6,5,8,7,5,9,2,5,2,344,1418,
scooby_state_564c2be4a266|27|3 1034,5,13,4,6,6,7,3,5,3,6,6,2,6,311,1417,
scooby_state_564c2be4a266|44|3 1012,7,15,4,10,2,7,5,5,5,3,2,7,5,327,1416,
scooby_state_564c2be4a27b|2|0 1086,4,5,3,2,4,2,2,5,4,4,7,6,3,279,1416,
scooby_state_564c2be4a266|50|4 1030,5,10,10,5,4,8,6,5,1,4,7,2,7,309,1413,
scooby_state_564c2be4a266|16|4 1010,9,14,9,4,4,5,6,2,4,4,3,5,6,327,1412,
scooby_state_564c2be4a266|27|1 1005,5,4,13,7,5,2,5,3,3,3,5,3,4,341,1408,
scooby_state_564c2be4a266|6|2 992,8,6,9,7,8,5,4,4,6,0,4,2,3,348,1406,
scooby_state_564c2be4a266|56|3 987,12,12,14,6,6,5,4,5,5,5,9,1,6,326,1403,
scooby_state_564c2be4a266|48|2 969,11,10,3,7,6,5,1,2,3,3,6,4,3,368,1401,
scooby_state_564c2be4a266|34|2 1026,6,7,7,4,2,7,3,4,5,2,5,8,6,306,1398,
scooby_state_564c2be4a266|44|2 978,17,6,11,7,5,10,5,3,4,3,9,3,3,328,1392,
scooby_state_564c2be4a266|42|3 1000,7,11,8,8,4,11,2,4,2,3,1,7,7,317,1392,
scooby_state_564c2be4a266|37|4 994,9,16,7,4,7,5,4,1,5,7,7,2,6,315,1389,
scooby_state_564c2be4a266|61|3 962,8,11,9,8,5,5,7,7,8,4,5,6,8,330,1383,
scooby_state_564c2be4a266|29|5 1040,9,10,9,6,10,5,3,2,1,3,6,3,5,271,1383,
scooby_state_564c2be4a266|42|2 990,13,7,5,5,9,7,3,0,0,2,1,2,1,336,1381,
scooby_state_564c2be4a266|30|2 993,10,7,7,5,6,4,3,5,3,3,5,4,3,320,1378,
scooby_state_564c2be4a266|62|3 939,10,11,13,8,8,5,7,6,3,6,9,6,3,341,1375,
scooby_state_564c2be4a266|33|2 1000,8,7,9,3,8,4,2,3,5,4,6,7,6,301,1373,
scooby_state_564c2be4a266|3|2 960,9,7,6,10,8,11,5,2,4,6,8,7,6,323,1372,
scooby_state_564c2be4a266|15|2 987,8,12,8,10,4,5,3,2,2,3,6,5,2,315,1372,
scooby_state_564c2be4a266|29|2 965,7,10,7,8,4,8,2,4,5,3,6,4,4,333,1370,
scooby_state_564c2be4a266|19|2 983,5,5,10,10,7,6,2,3,3,7,7,6,4,309,1367,
scooby_state_564c2be4a266|11|7 1017,4,9,5,9,4,6,7,3,3,4,5,7,2,282,1367,
scooby_state_564c2be4a266|39|3 950,14,7,4,5,7,10,7,4,1,4,5,6,6,336,1366,
scooby_state_564c2be4a266|17|2 990,7,3,12,8,8,3,5,2,3,4,9,6,8,298,1366,
scooby_state_564c2be4a266|54|3 923,15,12,8,9,9,8,3,2,6,4,5,6,2,352,1364,
scooby_state_564c2be4a266|9|1 974,5,8,9,3,3,6,9,9,4,1,5,8,7,313,1364,
scooby_state_564c2be4a266|26|3 986,3,10,6,5,2,9,6,5,0,6,4,1,8,312,1363,
scooby_state_564c2be4a266|10|3 956,4,6,6,4,7,2,4,8,3,6,6,8,4,336,1360,
scooby_state_564c2be4a266|21|3 942,14,9,9,8,3,9,3,3,3,5,1,3,2,346,1360,
scooby_state_564c2be4a266|32|2 972,12,1,11,9,6,5,4,5,3,3,5,7,5,310,1358,
scooby_state_564c2be4a266|55|3 950,14,11,11,6,7,6,4,11,7,2,5,6,8,307,1355,
scooby_state_564c2be4a27b|34|0 1044,3,5,4,5,4,3,2,4,3,1,6,10,2,251,1347,
scooby_state_564c2be4a266|8|4 975,9,7,8,8,7,9,1,3,4,3,10,3,0,298,1345,
scooby_state_564c2be4a266|45|2 967,13,6,10,4,10,7,3,5,2,5,7,7,6,291,1343,
scooby_state_564c2be4a266|61|4 907,7,10,15,2,4,5,3,6,5,9,12,5,6,342,1338,
scooby_state_564c2be4a266|40|2 941,6,5,7,6,11,6,2,3,3,5,2,4,5,332,1338,
scooby_state_564c2be4a266|25|3 961,11,9,9,7,6,9,3,4,5,3,6,8,6,287,1334,
scooby_state_564c2be4a266|22|2 962,7,5,9,7,10,3,5,6,5,5,6,3,2,298,1333,
scooby_state_564c2be4a266|9|2 934,11,8,9,6,10,1,5,2,3,3,5,4,2,324,1327,
scooby_state_564c2be4a266|5|4 933,8,8,11,7,10,3,6,3,5,3,5,8,4,311,1325,
scooby_state_564c2be4a266|35|4 957,8,9,12,6,3,10,4,3,5,5,4,3,5,290,1324,
scooby_state_564c2be4a266|46|3 937,10,17,7,10,4,4,5,7,4,7,4,1,5,300,1322,
scooby_state_564c2be4a266|47|2 948,12,3,10,4,5,6,5,2,3,4,5,2,4,306,1319,
scooby_state_564c2be4a266|2|2 899,16,7,8,7,4,7,5,5,7,4,10,4,8,328,1319,
scooby_state_564c2be4a266|41|4 944,4,12,5,7,4,5,4,4,3,6,4,5,3,309,1319,
scooby_state_564c2be4a266|50|2 923,15,4,8,6,7,5,5,6,4,4,6,2,3,318,1316,
scooby_state_564c2be4a266|53|2 898,19,6,9,9,7,5,4,2,3,5,6,5,6,331,1315,
scooby_state_564c2be4a266|7|6 959,9,6,6,4,7,4,5,4,4,4,4,6,6,281,1309,
scooby_state_564c2be4a266|15|3 903,16,13,10,13,7,6,3,5,3,2,3,6,3,313,1306,
scooby_state_564c2be4a266|49|2 923,8,8,9,13,2,7,1,3,7,5,5,2,3,308,1304,
scooby_state_564c2be4a27b|19|0 1022,5,3,5,4,3,4,2,6,0,5,4,3,1,234,1301,
scooby_state_564c2be4a266|35|2 916,10,6,8,5,8,3,5,8,3,5,2,2,6,311,1298,
scooby_state_564c2be4a27b|13|0 1019,4,3,3,2,2,4,1,3,3,2,4,1,6,239,1296,
scooby_state_564c2be4a266|13|2 919,9,9,1,9,8,5,3,5,4,3,5,3,3,307,1293,
scooby_state_564c2be4a266|16|3 903,6,9,8,7,11,12,3,6,1,4,7,3,5,307,1292,
scooby_state_564c2be4a266|28|5 931,9,7,9,5,7,2,6,5,7,2,2,9,3,285,1289,
scooby_state_564c2be4a266|18|3 916,15,10,8,6,1,5,6,4,5,2,4,3,1,302,1288,
scooby_state_564c2be4a266|30|4 947,8,13,7,2,3,5,7,4,5,4,7,4,4,268,1288,
scooby_state_564c2be4a266|14|1 881,7,5,5,5,3,3,2,5,2,7,2,5,3,351,1286,
scooby_state_564c2be4a266|61|5 894,8,13,11,8,7,6,9,8,9,4,5,4,5,292,1283,
scooby_state_564c2be4a266|49|3 891,13,13,4,8,9,9,7,2,4,5,5,6,7,298,1281,
scooby_state_564c2be4a266|52|4 891,4,10,4,10,6,4,10,8,2,6,6,4,1,312,1278,
scooby_state_564c2be4a266|60|3 880,9,10,8,6,8,4,1,4,3,4,1,3,9,328,1278,
scooby_state_564c2be4a266|54|2 877,18,4,10,5,6,9,5,5,5,3,5,7,5,313,1277,
scooby_state_564c2be4a266|53|3 892,8,11,3,10,5,9,5,3,8,4,4,1,8,304,1275,
scooby_state_564c2be4a266|46|4 906,6,11,10,7,4,7,2,2,3,3,7,6,3,294,1271,
scooby_state_564c2be4a266|36|3 910,14,7,4,4,6,4,4,3,2,2,2,3,6,299,1270,
scooby_state_564c2be4a266|11|2 879,14,11,8,5,8,12,3,7,3,3,3,2,4,307,1269,
scooby_state_564c2be4a266|35|3 917,5,6,6,7,7,9,6,6,3,7,2,8,2,277,1268,
scooby_state_564c2be4a266|57|5 907,14,3,11,9,7,8,3,4,5,2,5,4,2,280,1264,
scooby_state_564c2be4a266|23|7 925,10,5,10,2,5,6,3,4,3,3,3,3,7,272,1261,
scooby_state_564c2be4a266|21|4 915,5,9,4,4,6,4,4,3,4,2,3,3,2,289,1257,
scooby_state_564c2be4a266|9|4 894,7,9,3,7,7,6,4,4,5,3,6,2,10,289,1256,
scooby_state_564c2be4a266|41|3 887,8,14,8,11,12,5,3,3,10,5,4,4,6,274,1254,
scooby_state_564c2be4a266|51|3 875,10,12,11,5,2,6,2,4,2,4,1,5,7,308,1254,
scooby_state_564c2be4a266|58|3 863,11,15,6,6,5,5,7,4,1,5,8,6,3,309,1254,
scooby_state_564c2be4a266|24|3 906,8,5,12,8,3,6,1,7,0,1,4,6,2,283,1252,
scooby_state_564c2be4a266|44|4 898,9,7,10,8,5,2,7,2,4,8,5,5,7,274,1251,
scooby_state_564c2be4a266|23|3 894,6,3,7,6,5,5,3,1,3,3,2,4,1,307,1250,
scooby_state_564c2be4a266|33|4 918,8,10,6,3,4,3,7,1,5,2,2,8,2,269,1248,
scooby_state_564c2be4a266|31|4 917,5,10,7,8,5,6,1,3,4,3,6,4,2,265,1246,
scooby_state_564c2be4a266|45|3 873,8,11,4,5,5,11,4,6,4,9,3,4,5,293,1245,
scooby_state_564c2be4a27b|26|0 920,4,7,7,1,7,9,2,3,2,1,1,1,3,274,1242,
scooby_state_564c2be4a266|63|4 880,17,13,4,4,7,6,8,2,7,6,3,4,6,275,1242,
scooby_state_564c2be4a266|56|4 877,0,11,8,5,7,9,6,8,4,3,4,9,3,286,1240,
scooby_state_564c2be4a266|12|4 859,12,11,8,8,8,4,2,1,2,4,8,10,4,297,1238,
scooby_state_564c2be4a266|52|3 889,6,7,10,3,4,4,3,6,5,3,9,1,4,284,1238,
scooby_state_564c2be4a266|7|3 843,11,11,8,4,8,6,7,5,3,4,5,6,3,308,1232,
scooby_state_564c2be4a266|56|2 834,8,8,8,5,6,7,7,3,2,2,7,4,4,325,1230,
scooby_state_564c2be4a266|26|4 885,9,12,11,3,5,4,1,3,3,4,3,3,4,278,1228,
scooby_state_564c2be4a266|40|4 897,5,15,8,6,6,4,6,3,1,1,1,4,4,264,1225,
scooby_state_564c2be4a266|33|3 869,8,10,6,3,4,7,1,3,3,5,2,2,5,296,1224,
scooby_state_564c2be4a27b|44|0 928,2,3,3,8,5,5,0,5,4,2,4,6,2,246,1223,
scooby_state_564c2be4a266|14|3 859,7,8,12,5,8,7,5,4,2,5,3,6,5,286,1222,
scooby_state_564c2be4a266|58|4 872,8,6,7,5,5,4,2,3,2,8,6,3,8,281,1220,
scooby_state_564c2be4a266|8|2 851,14,7,9,7,5,4,1,5,2,4,6,11,6,287,1219,
scooby_state_564c2be4a266|36|4 896,7,8,10,7,4,6,1,3,5,3,2,5,2,260,1219,
scooby_state_564c2be4a266|62|5 857,18,7,7,10,8,4,3,4,4,5,9,5,10,266,1217,
scooby_state_564c2be4a266|62|4 818,7,5,13,11,6,4,3,4,2,2,5,3,2,326,1211,
scooby_state_564c2be4a266|43|6 888,6,4,10,7,7,7,1,3,3,0,4,8,2,260,1210,
scooby_state_564c2be4a266|52|5 877,7,6,10,4,4,8,4,5,4,3,1,1,6,269,1209,
scooby_state_564c2be4a266|57|3 786,13,16,14,7,9,8,3,3,2,2,7,7,6,323,1206,
scooby_state_564c2be4a266|46|6 851,5,9,15,7,7,8,5,4,1,4,5,5,0,278,1204,
scooby_state_564c2be4a266|63|5 830,17,12,12,3,8,5,2,5,6,4,2,6,6,286,1204,
scooby_state_564c2be4a266|15|4 865,6,11,5,5,6,5,4,1,3,2,4,10,6,270,1203,
scooby_state_564c2be4a266|45|5 866,11,5,9,12,4,6,3,7,9,3,5,8,7,245,1200,
scooby_state_564c2be4a266|53|4 861,6,9,7,4,3,5,5,3,2,4,6,3,5,275,1198,
scooby_state_564c2be4a266|44|5 845,7,4,4,8,6,6,2,6,6,3,4,6,5,284,1196,
scooby_state_564c2be4a266|50|5 833,13,8,3,5,8,8,6,2,4,1,4,6,9,285,1195,
scooby_state_564c2be4a266|27|4 864,6,8,9,3,3,4,4,8,3,3,4,6,4,265,1194,
scooby_state_564c2be4a266|39|4 859,9,8,7,7,6,4,2,3,7,1,4,8,1,268,1194,
scooby_state_564c2be4a266|29|3 856,9,11,8,10,2,5,3,3,5,6,7,1,5,262,1193,
scooby_state_564c2be4a266|61|8 853,12,6,7,9,6,7,8,8,4,2,6,5,8,252,1193,
scooby_state_564c2be4a266|11|3 836,9,4,7,7,10,8,7,4,5,4,4,3,2,282,1192,
scooby_state_564c2be4a266|10|2 838,13,3,8,5,7,7,5,2,2,5,6,5,0,286,1192,
scooby_state_564c2be4a266|55|4 847,6,10,7,4,4,3,4,2,4,4,4,4,4,282,1189,
scooby_state_564c2be4a266|23|5 848,7,6,9,5,8,6,6,4,7,1,3,2,7,270,1189,
scooby_state_564c2be4a266|13|5 865,8,6,4,10,6,4,1,6,4,6,5,5,6,251,1187,
scooby_state_564c2be4a266|32|4 857,7,8,5,7,6,6,3,3,4,4,2,1,1,271,1185,
scooby_state_564c2be4a266|54|4 848,5,10,7,5,7,5,5,7,5,4,4,2,8,263,1185,
scooby_state_564c2be4a266|60|5 828,12,11,8,8,4,8,8,6,1,4,3,4,4,274,1183,
scooby_state_564c2be4a266|12|5 865,12,8,5,10,3,2,4,3,4,1,0,2,8,256,1183,
scooby_state_564c2be4a266|60|4 824,6,9,8,4,5,7,7,4,4,2,3,8,4,288,1183,
scooby_state_564c2be4a266|20|4 867,6,8,6,5,7,2,4,5,4,1,3,8,6,248,1180,
scooby_state_564c2be4a266|22|6 882,6,6,9,3,4,3,4,3,2,3,2,6,7,239,1179,
scooby_state_564c2be4a266|32|3 831,8,4,4,6,0,7,5,6,4,1,3,6,6,287,1178,
scooby_state_564c2be4a266|4|4 824,4,7,5,7,5,8,2,1,3,4,3,5,3,295,1176,
scooby_state_564c2be4a266|3|3 840,6,10,4,5,4,12,3,8,2,6,5,3,8,260,1176,
scooby_state_564c2be4a266|6|5 820,9,8,9,7,4,7,3,5,1,5,3,9,5,280,1175,
scooby_state_564c2be4a266|24|4 864,3,5,7,3,10,3,3,4,6,2,5,6,3,249,1173,
scooby_state_564c2be4a266|61|6 835,7,3,5,6,4,4,5,3,2,3,1,2,11,282,1173,
scooby_state_564c2be4a266|37|5 840,7,12,10,7,4,4,3,3,2,6,4,6,5,258,1171,
scooby_state_564c2be4a266|16|5 813,6,4,14,9,5,4,2,2,2,8,6,5,5,286,1171,
scooby_state_564c2be4a266|28|3 836,12,6,6,6,6,4,2,8,3,2,2,6,4,267,1170,
scooby_state_564c2be4a266|5|5 830,11,11,7,5,9,5,6,3,3,2,3,6,3,264,1168,
scooby_state_564c2be4a266|19|4 858,7,6,8,4,8,4,3,3,0,1,2,4,3,256,1167,
scooby_state_564c2be4a266|24|5 857,5,7,6,4,3,8,5,3,2,3,4,5,2,253,1167,
scooby_state_564c2be4a266|30|3 832,9,11,5,8,4,8,5,4,3,5,2,2,1,266,1165,
scooby_state_564c2be4a27b|63|0 877,4,2,4,2,5,4,2,2,1,4,6,3,4,244,1164,
scooby_state_564c2be4a266|57|4 824,10,4,8,7,5,3,3,7,6,2,5,6,5,269,1164,
scooby_state_564c2be4a266|31|5 838,11,7,6,7,8,4,3,3,4,3,6,4,2,255,1161,
scooby_state_564c2be4a266|42|6 854,6,8,13,4,6,5,0,1,1,3,3,3,3,251,1161,
scooby_state_564c2be4a266|25|4 839,8,12,7,3,2,4,4,2,4,3,4,5,6,256,1159,
scooby_state_564c2be4a266|7|4 853,9,12,6,3,6,7,5,4,5,5,2,3,5,234,1159,
scooby_state_564c2be4a266|56|5 785,13,9,8,7,9,7,3,3,5,7,4,5,6,287,1158,
scooby_state_564c2be4a266|20|3 828,5,2,6,5,6,11,5,8,3,3,3,4,5,263,1157,
scooby_state_564c2be4a266|48|4 818,7,11,4,10,8,5,5,2,6,3,2,2,4,270,1157,
scooby_state_564c2be4a266|21|6 858,9,7,8,1,4,2,2,7,5,5,2,5,5,236,1156,
scooby_state_564c2be4a266|48|3 800,14,8,6,3,2,8,9,6,5,3,6,5,2,279,1156,
scooby_state_564c2be4a266|9|3 805,13,9,7,6,3,5,5,1,4,6,6,6,7,272,1155,
scooby_state_564c2be4a266|26|5 880,8,4,3,6,5,2,5,1,0,2,8,4,8,216,1152,
scooby_state_564c2be4a266|47|4 808,7,8,4,8,7,7,1,3,6,3,4,7,3,275,1151,
scooby_state_564c2be4a266|58|5 808,5,2,7,4,10,6,4,5,3,5,13,3,5,270,1150,
scooby_state_564c2be4a266|11|6 813,10,7,9,5,5,3,2,2,7,8,10,2,3,263,1149,
scooby_state_564c2be4a266|23|4 840,11,4,6,6,3,7,3,1,5,0,3,3,2,255,1149,
scooby_state_564c2be4a266|51|5 825,10,6,9,3,6,3,4,8,1,5,3,2,7,254,1146,
scooby_state_564c2be4a266|56|6 818,7,5,9,4,6,6,4,3,7,5,5,4,9,245,1137,
scooby_state_564c2be4a266|22|5 834,11,7,1,11,6,5,5,5,3,2,3,4,2,235,1134,
scooby_state_564c2be4a266|47|5 806,14,9,5,7,3,6,4,4,2,4,3,6,3,256,1132,
scooby_state_564c2be4a27b|50|0 858,3,2,4,4,0,0,2,3,2,3,3,1,3,244,1132,
scooby_state_564c2be4a266|38|4 830,3,10,4,3,12,3,1,3,5,4,1,3,4,241,1127,
scooby_state_564c2be4a266|15|5 828,15,7,10,4,4,5,7,3,4,2,1,5,1,228,1124,
scooby_state_564c2be4a27b|3|0 870,7,3,2,2,5,1,1,2,1,2,5,2,3,217,1123,
scooby_state_564c2be4a266|48|6 811,9,5,16,4,8,2,4,5,3,0,2,6,4,242,1121,
scooby_state_564c2be4a266|27|5 812,7,4,5,4,5,1,8,3,1,4,8,3,5,244,1114,
scooby_state_564c2be4a266|39|5 798,9,9,8,7,5,3,3,3,3,4,5,6,3,248,1114,
scooby_state_564c2be4a266|13|3 766,6,9,3,5,11,11,2,9,4,5,1,3,3,274,1112,
scooby_state_564c2be4a266|34|4 814,5,8,12,4,3,6,8,3,7,2,6,4,3,226,1111,
scooby_state_564c2be4a266|42|5 807,10,7,4,6,5,7,6,6,1,5,4,4,2,236,1110,
scooby_state_564c2be4a266|50|6 823,4,4,3,9,4,1,4,5,1,4,6,10,6,223,1107,
scooby_state_564c2be4a266|36|5 797,9,8,8,10,3,6,2,7,4,7,4,6,2,234,1107,
scooby_state_564c2be4a266|8|6 824,3,8,10,5,6,4,3,6,6,5,7,6,1,210,1104,
scooby_state_564c2be4a266|10|4 780,3,12,9,11,10,10,1,6,4,3,5,11,10,228,1103,
scooby_state_564c2be4a27b|0|0 832,1,6,5,3,3,0,3,4,4,1,3,1,1,236,1103,
scooby_state_564c2be4a266|28|4 803,7,9,5,7,8,3,0,6,1,4,5,4,2,238,1102,
scooby_state_564c2be4a266|21|5 804,12,5,6,2,4,4,6,9,1,6,4,4,8,226,1101,
scooby_state_564c2be4a266|46|5 796,12,10,7,6,5,3,2,3,7,3,3,3,2,237,1099,
scooby_state_564c2be4a27b|32|0 842,5,3,3,3,4,3,4,1,3,1,4,4,2,216,1098,
scooby_state_564c2be4a266|12|7 817,3,3,5,2,2,6,2,0,2,4,4,2,2,242,1096,
scooby_state_564c2be4a266|42|4 782,8,12,8,5,8,6,2,3,2,1,2,6,2,248,1095,
scooby_state_564c2be4a266|17|3 785,8,5,10,7,2,9,7,3,2,4,1,3,4,245,1095,
scooby_state_564c2be4a266|14|4 777,6,15,6,5,11,6,2,3,2,2,3,6,6,245,1095,
scooby_state_564c2be4a266|16|11 812,13,4,8,8,7,2,5,5,7,7,7,9,9,189,1092,
scooby_state_564c2be4a266|51|4 740,12,11,12,3,7,5,7,3,3,3,7,6,3,268,1090,
scooby_state_564c2be4a266|29|6 800,1,7,10,5,10,4,7,3,4,6,2,1,4,225,1089,
scooby_state_564c2be4a266|45|4 767,12,10,9,3,4,9,2,2,5,6,8,3,8,238,1086,
scooby_state_564c2be4a266|18|4 756,5,11,10,3,4,6,3,8,5,4,2,2,5,262,1086,
scooby_state_564c2be4a266|11|4 766,7,9,8,5,4,4,4,2,2,2,4,5,6,257,1085,
scooby_state_564c2be4a27b|14|0 843,5,4,2,3,3,4,4,1,1,0,4,0,7,204,1085,
scooby_state_564c2be4a266|7|5 754,9,5,13,8,9,6,3,5,0,4,6,4,5,253,1084,
scooby_state_564c2be4a266|52|6 774,3,9,11,2,2,3,4,2,2,5,5,2,4,255,1083,
scooby_state_564c2be4a266|27|6 806,2,2,12,9,7,3,2,6,3,2,3,3,3,219,1082,
scooby_state_564c2be4a266|18|6 785,9,5,9,2,6,9,7,4,0,3,5,3,4,231,1082,
scooby_state_564c2be4a266|29|4 771,7,5,6,5,8,3,5,3,5,2,4,10,4,243,1081,
scooby_state_564c2be4a266|63|6 765,7,5,11,4,4,6,5,8,2,2,6,4,6,246,1081,
scooby_state_564c2be4a266|6|4 758,3,20,3,2,2,5,4,6,2,5,4,8,2,256,1080,
scooby_state_564c2be4a266|14|5 778,7,6,5,8,5,5,6,7,6,1,4,4,7,230,1079,
scooby_state_564c2be4a266|38|3 773,3,6,5,3,7,8,5,6,5,2,3,5,5,241,1077,
scooby_state_564c2be4a266|17|5 771,10,8,9,5,3,5,7,7,7,3,1,3,4,233,1076,
scooby_state_564c2be4a266|62|6 764,5,5,12,7,6,6,7,3,6,4,4,5,5,237,1076,
scooby_state_564c2be4a266|63|7 774,9,6,8,7,2,6,2,5,0,3,3,3,3,245,1076,
scooby_state_564c2be4a266|39|6 789,8,3,6,5,2,2,7,4,1,5,3,4,4,230,1073,
scooby_state_564c2be4a266|54|5 742,9,11,7,13,8,3,8,3,4,1,3,5,7,247,1071,
scooby_state_564c2be4a266|55|5 753,7,7,9,6,7,4,4,2,4,3,2,6,7,244,1065,
scooby_state_564c2be4a266|40|5 767,11,5,6,5,4,6,8,4,4,4,2,8,5,224,1063,
scooby_state_564c2be4a266|33|6 773,4,5,11,6,4,4,5,5,5,4,5,7,3,219,1060,
scooby_state_564c2be4a266|18|8 790,7,9,9,1,3,7,5,3,2,2,4,3,4,211,1060,
scooby_state_564c2be4a266|37|6 778,7,7,2,7,7,3,3,1,3,2,6,3,2,228,1059,
scooby_state_564c2be4a266|13|4 736,8,5,6,6,4,3,2,5,6,5,4,5,4,259,1058,
scooby_state_564c2be4a266|21|9 781,7,10,13,5,8,4,3,5,1,6,2,6,5,199,1055,
scooby_state_564c2be4a266|18|5 752,10,6,6,7,6,5,3,4,2,6,8,1,7,230,1053,
scooby_state_564c2be4a266|47|8 743,13,13,9,7,4,13,5,3,8,2,9,1,5,216,1051,
scooby_state_564c2be4a266|11|5 779,4,5,8,5,8,4,3,4,4,5,2,3,3,214,1051,
scooby_state_564c2be4a266|60|6 731,8,5,6,5,8,4,3,5,4,3,1,1,4,261,1049,
scooby_state_564c2be4a266|48|5 726,9,6,7,11,3,8,7,2,4,3,1,4,4,253,1048,
scooby_state_564c2be4a27b|27|0 782,7,5,3,4,3,1,2,0,6,2,3,6,3,220,1047,
scooby_state_564c2be4a266|62|7 751,5,4,9,9,7,6,3,2,3,5,4,4,3,227,1042,
scooby_state_564c2be4a266|49|6 749,4,10,9,6,5,3,2,2,2,3,2,3,1,241,1042,
scooby_state_564c2be4a266|17|4 743,8,12,3,2,3,4,3,1,3,1,3,5,4,246,1041,
scooby_state_564c2be4a266|58|6 733,5,3,5,5,6,6,3,2,3,4,2,2,4,258,1041,
scooby_state_564c2be4a27b|15|0 749,3,2,1,6,2,4,1,3,1,5,5,3,2,253,1040,
scooby_state_564c2be4a266|41|5 763,8,3,9,4,1,7,2,3,3,1,4,5,2,225,1040,
scooby_state_564c2be4a266|37|7 793,3,6,1,6,5,6,4,1,2,0,4,3,4,201,1039,
scooby_state_564c2be4a266|44|7 751,6,8,7,6,2,4,1,5,3,1,2,6,1,234,1037,
scooby_state_564c2be4a266|51|7 750,3,7,12,3,5,5,5,3,4,3,7,1,4,225,1037,
scooby_state_564c2be4a266|55|6 715,7,7,7,5,6,4,3,1,1,1,6,7,3,263,1036,
scooby_state_564c2be4a266|57|6 746,8,4,11,4,9,6,0,3,4,3,3,3,2,229,1035,
scooby_state_564c2be4a266|10|5 728,7,9,9,10,5,2,8,5,4,4,7,1,4,230,1033,
scooby_state_564c2be4a266|53|7 744,4,7,6,8,5,7,8,3,7,3,2,4,3,222,1033,
scooby_state_564c2be4a266|9|5 714,12,8,5,5,8,2,9,8,3,2,7,1,6,241,1031,
scooby_state_564c2be4a266|20|5 751,9,5,4,4,6,5,1,4,4,1,0,4,3,230,1031,
scooby_state_564c2be4a266|19|7 769,6,3,7,4,3,4,3,3,3,1,0,4,3,217,1030,
scooby_state_564c2be4a266|10|8 761,11,8,6,6,10,5,4,4,1,6,2,3,2,199,1028,
scooby_state_564c2be4a266|13|6 720,7,8,11,2,1,6,1,10,5,5,4,2,5,240,1027,
scooby_state_564c2be4a266|23|6 715,7,7,4,2,7,4,6,5,4,5,3,5,6,247,1027,
scooby_state_564c2be4a266|63|8 712,6,10,14,9,5,5,6,6,2,4,8,8,4,227,1026,
scooby_state_564c2be4a266|25|6 769,6,12,7,3,6,3,2,4,2,1,3,2,2,203,1025,
scooby_state_564c2be4a266|59|6 712,9,8,6,5,6,6,2,3,3,3,4,8,5,245,1025,
scooby_state_564c2be4a266|45|6 741,8,13,4,2,4,4,5,5,3,6,3,3,5,218,1024,
scooby_state_564c2be4a266|6|3 745,4,5,11,1,3,8,3,1,2,8,2,6,1,224,1024,
scooby_state_564c2be4a266|50|18 806,7,8,6,3,4,7,4,1,6,5,7,2,7,151,1024,
scooby_state_564c2be4a266|49|7 748,8,5,6,6,7,4,3,4,2,2,5,4,1,217,1022,
scooby_state_564c2be4a266|31|6 732,6,8,8,8,4,3,2,3,1,3,4,4,2,233,1021,
scooby_state_564c2be4a266|12|8 748,7,8,11,6,5,4,1,4,6,2,3,7,2,207,1021,
scooby_state_564c2be4a266|46|7 741,9,4,8,11,6,2,4,3,7,0,1,3,6,215,1020,
scooby_state_564c2be4a266|28|6 741,7,2,7,3,4,4,8,5,2,7,3,3,2,217,1015,
scooby_state_564c2be4a266|61|7 704,10,6,4,7,7,3,6,5,1,2,4,2,3,251,1015,
scooby_state_564c2be4a266|30|7 749,4,8,5,3,2,4,0,2,1,3,2,4,6,221,1014,
scooby_state_564c2be4a266|49|10 762,7,7,3,5,3,1,2,5,4,5,3,5,3,199,1014,
scooby_state_564c2be4a266|15|6 757,7,8,9,5,2,2,3,2,2,1,3,6,5,199,1011,
scooby_state_564c2be4a266|15|7 748,3,5,5,3,4,6,3,3,2,2,1,3,5,217,1010,
scooby_state_564c2be4a27b|46|0 759,5,4,0,0,2,0,5,1,1,2,2,7,0,221,1009,
scooby_state_564c2be4a266|35|5 702,8,7,7,8,3,5,6,2,4,1,4,3,3,245,1008,
scooby_state_564c2be4a266|50|7 747,2,5,6,1,1,3,1,3,3,1,4,3,5,222,1007,
scooby_state_564c2be4a266|34|5 726,8,5,7,9,8,1,5,5,3,3,3,4,3,217,1007,
scooby_state_564c2be4a266|38|5 728,6,8,9,5,2,3,6,3,7,3,7,5,3,210,1005,
scooby_state_564c2be4a266|49|5 709,5,4,2,4,8,9,8,11,3,1,6,2,4,227,1003,
scooby_state_564c2be4a266|43|5 719,5,5,9,2,7,7,5,2,1,3,5,1,5,227,1003,
scooby_state_564c2be4a266|8|7 715,3,7,10,2,3,4,3,3,1,4,2,5,2,238,1002,
scooby_state_564c2be4a266|25|5 700,8,6,6,4,7,4,6,6,5,3,2,5,3,236,1001,
scooby_state_564c2be4a266|30|5 712,10,10,7,7,7,9,3,6,4,3,3,4,6,209,1000,
scooby_state_564c2be4a266|39|7 745,4,4,6,5,3,1,2,2,0,4,5,3,4,211,999,
scooby_state_564c2be4a266|36|7 735,3,7,8,7,1,5,1,3,1,3,4,4,4,212,998,
scooby_state_564c2be4a266|55|9 736,7,7,5,7,6,6,6,3,9,0,10,4,8,184,998,
scooby_state_564c2be4a266|46|9 733,6,7,6,7,4,6,6,3,4,7,11,10,7,179,996,
scooby_state_564c2be4a266|28|7 717,5,3,7,4,1,5,4,5,2,4,4,2,3,228,994,
scooby_state_564c2be4a266|44|6 692,5,5,7,5,7,3,8,5,4,1,2,3,2,243,992,
scooby_state_564c2be4a266|24|8 733,10,2,7,7,7,4,3,4,3,3,5,4,3,195,990,
scooby_state_564c2be4a266|30|6 739,1,2,9,4,1,2,9,2,4,2,4,6,3,199,987,
scooby_state_564c2be4a266|53|6 732,6,6,5,6,7,6,9,3,2,0,2,5,3,194,986,
scooby_state_564c2be4a266|32|5 720,5,2,3,2,1,5,5,3,4,4,7,4,3,217,985,
scooby_state_564c2be4a266|19|5 708,3,4,4,3,5,5,6,7,4,2,3,3,2,225,984,
scooby_state_564c2be4a266|56|7 692,5,7,10,6,10,3,1,2,1,1,6,4,7,229,984,
scooby_state_564c2be4a266|7|7 720,3,10,7,6,2,5,3,4,3,4,3,4,3,206,983,
scooby_state_564c2be4a266|19|9 711,9,8,11,5,3,3,2,5,4,2,6,7,3,203,982,
scooby_state_564c2be4a266|63|9 707,8,10,6,14,9,7,6,6,4,0,4,5,6,189,981,
scooby_state_564c2be4a266|37|11 707,7,6,12,6,9,6,5,4,7,8,7,8,4,184,980,
scooby_state_564c2be4a266|33|7 719,4,4,4,5,2,6,3,4,2,1,3,3,4,214,978,
scooby_state_564c2be4a266|59|5 675,8,9,9,7,2,3,7,2,5,1,6,6,4,233,977,
scooby_state_564c2be4a266|58|7 683,6,4,5,8,3,3,3,4,4,3,6,1,8,235,976,
scooby_state_564c2be4a266|31|7 736,4,4,5,3,5,1,2,2,1,4,5,2,7,195,976,
scooby_state_564c2be4a266|49|4 680,11,9,5,2,4,5,1,5,2,3,4,2,7,234,974,
scooby_state_564c2be4a266|16|6 739,2,2,6,5,5,1,3,2,3,1,3,2,3,196,973,
scooby_state_564c2be4a266|16|8 711,11,10,5,6,5,6,3,5,6,2,6,6,3,188,973,
scooby_state_564c2be4a266|54|6 698,7,7,5,2,3,5,6,3,2,4,4,1,5,218,970,
scooby_state_564c2be4a266|8|5 711,7,6,5,7,3,3,1,4,5,3,4,3,1,207,970,
scooby_state_564c2be4a27b|22|0 759,2,3,2,3,2,3,2,2,5,3,2,2,3,174,967,
scooby_state_564c2be4a266|22|7 703,4,4,6,6,2,7,2,3,2,1,5,1,5,215,966,
scooby_state_564c2be4a266|14|12 718,13,9,6,13,4,6,8,4,1,4,5,5,10,160,966,
scooby_state_564c2be4a266|41|8 711,16,6,7,7,5,1,4,8,3,3,8,3,4,180,966,
scooby_state_564c2be4a266|37|8 720,9,0,5,6,2,5,6,1,3,4,4,5,4,191,965,
scooby_state_564c2be4a266|44|8 713,8,5,13,6,5,4,3,4,6,5,2,5,2,183,964,
scooby_state_564c2be4a266|40|6 686,4,3,9,5,3,3,2,3,5,4,6,1,5,224,963,
scooby_state_564c2be4a27b|31|0 757,4,3,3,4,4,2,3,5,2,2,1,2,2,168,962,
scooby_state_564c2be4a266|12|10 711,3,10,9,7,2,9,6,2,3,1,3,5,2,186,959,
scooby_state_564c2be4a266|48|7 691,4,6,5,8,3,7,1,5,4,2,5,1,3,214,959,
scooby_state_564c2be4a266|39|9 694,8,9,12,5,6,2,3,6,9,5,3,6,7,183,958,
scooby_state_564c2be4a266|38|7 691,3,3,8,5,3,3,3,2,3,3,4,4,5,217,957,
scooby_state_564c2be4a27b|7|0 709,2,4,1,4,3,4,2,5,5,2,4,5,3,202,955,
scooby_state_564c2be4a266|9|8 683,4,5,6,3,3,7,6,6,6,4,4,2,4,212,955,
scooby_state_564c2be4a266|32|6 695,4,7,6,4,4,7,9,0,1,3,2,3,3,206,954,
scooby_state_564c2be4a266|62|8 679,5,6,6,5,8,4,4,1,5,3,3,5,8,211,953,
scooby_state_564c2be4a266|38|6 667,4,3,11,3,6,4,2,6,3,1,4,5,2,231,952,
scooby_state_564c2be4a266|48|8 694,6,7,5,4,6,5,3,3,3,4,3,4,3,202,952,
scooby_state_564c2be4a266|33|9 712,8,7,7,4,10,10,2,9,4,5,3,5,8,157,951,
scooby_state_564c2be4a266|31|8 699,8,3,8,6,6,5,6,2,3,4,1,4,2,193,950,
scooby_state_564c2be4a266|52|7 703,6,6,10,5,4,5,4,3,4,2,2,3,7,185,949,
scooby_state_564c2be4a266|49|9 687,10,10,13,5,5,3,1,6,2,2,4,9,9,182,948,
scooby_state_564c2be4a266|41|6 685,5,4,6,5,6,5,3,4,1,3,3,6,2,207,945,
scooby_state_564c2be4a266|33|5 684,8,1,5,6,5,4,1,6,7,6,5,5,2,200,945,
scooby_state_564c2be4a266|17|6 666,6,1,12,4,6,3,7,6,1,1,4,2,4,219,942,
scooby_state_564c2be4a266|10|6 684,6,6,2,2,4,2,4,3,0,4,8,5,1,209,940,
scooby_state_564c2be4a266|12|6 665,9,4,7,5,2,3,2,4,1,1,4,2,5,226,940,
scooby_state_564c2be4a266|20|8 666,9,5,7,5,5,3,2,5,7,4,3,8,7,203,939,
scooby_state_564c2be4a266|35|6 707,8,2,7,6,4,4,3,2,3,2,3,5,2,180,938,
scooby_state_564c2be4a266|39|8 704,4,6,7,6,1,2,4,7,2,1,10,3,5,176,938,
scooby_state_564c2be4a27b|51|0 716,2,2,3,3,3,1,3,3,1,1,3,3,5,188,937,
scooby_state_564c2be4a27b|17|0 742,1,4,3,0,5,1,2,3,4,1,5,4,5,157,937,
scooby_state_564c2be4a266|51|12 700,9,6,4,7,2,2,7,5,0,2,7,6,5,175,937,
scooby_state_564c2be4a266|40|8 696,7,9,4,5,5,2,4,4,3,1,5,11,1,179,936,
scooby_state_564c2be4a266|34|6 699,10,4,4,3,5,6,4,5,3,2,3,1,6,180,935,
scooby_state_564c2be4a266|54|8 675,9,4,10,3,7,6,4,3,4,3,6,8,5,187,934,
scooby_state_564c2be4a266|12|11 705,6,5,12,6,6,8,4,7,2,2,4,4,9,153,933,
scooby_state_564c2be4a266|59|9 697,5,4,10,5,5,8,4,7,5,5,7,6,9,156,933,
scooby_state_564c2be4a266|62|10 663,8,6,3,2,1,9,6,4,6,3,5,4,2,209,931,
scooby_state_564c2be4a266|47|7 686,4,3,7,8,1,5,2,3,1,5,1,2,6,196,930,
scooby_state_564c2be4a266|29|7 710,4,3,3,7,5,3,3,4,3,2,1,2,2,177,929,
scooby_state_564c2be4a266|16|7 685,8,2,1,4,4,4,4,3,2,1,5,3,2,201,929,
scooby_state_564c2be4a266|40|7 699,4,4,4,7,7,2,2,2,1,1,4,3,3,185,928,
scooby_state_564c2be4a266|17|7 689,3,4,3,7,5,5,1,2,2,3,4,2,5,189,924,
scooby_state_564c2be4a266|36|6 661,7,4,6,3,5,5,4,3,0,2,2,5,3,214,924,
scooby_state_564c2be4a266|41|7 668,6,4,11,5,3,3,0,2,3,5,2,4,4,200,920,
scooby_state_564c2be4a266|21|7 667,3,5,7,9,5,2,4,4,4,2,6,3,5,193,919,
scooby_state_564c2be4a266|19|6 651,6,5,4,5,6,6,4,1,4,2,6,4,6,209,919,
scooby_state_564c2be4a266|35|8 674,10,7,8,5,3,6,4,1,6,3,2,4,4,182,919,
scooby_state_564c2be4a266|31|9 689,6,6,7,8,9,8,3,5,5,4,4,7,6,151,918,
scooby_state_564c2be4a266|9|7 659,5,1,5,10,7,7,4,6,2,3,4,3,2,200,918,
scooby_state_564c2be4a266|42|9 698,5,5,7,9,5,6,4,2,2,4,1,5,4,159,916,
scooby_state_564c2be4a266|17|8 693,7,5,5,4,5,0,5,2,3,1,7,2,2,175,916,
scooby_state_564c2be4a266|26|7 668,5,4,5,5,0,1,4,3,2,1,3,6,5,204,916,
scooby_state_564c2be4a266|24|12 687,6,4,3,10,7,4,11,2,2,5,5,8,8,153,915,
scooby_state_564c2be4a266|31|10 684,3,6,10,5,8,3,4,4,2,3,2,3,1,175,913,
scooby_state_564c2be4a266|57|7 658,6,7,5,3,2,4,1,1,2,2,2,2,5,212,912,
scooby_state_564c2be4a266|51|8 679,4,2,8,3,4,5,3,3,3,3,2,4,5,184,912,
scooby_state_564c2be4a266|51|6 656,6,5,4,4,6,3,8,0,4,1,3,3,1,207,911,
scooby_state_564c2be4a27b|60|0 712,4,3,4,2,2,1,0,1,3,2,4,3,5,164,910,
scooby_state_564c2be4a266|24|6 669,3,4,7,1,5,2,6,3,3,1,9,3,6,187,909,
scooby_state_564c2be4a266|15|8 638,8,2,8,3,3,5,1,4,1,5,2,4,5,220,909,
scooby_state_564c2be4a266|53|9 685,9,6,10,8,7,6,5,7,1,4,3,10,4,140,905,
scooby_state_564c2be4a266|23|10 658,10,7,8,4,3,9,2,4,4,5,4,3,2,181,904,
scooby_state_564c2be4a266|27|7 657,1,3,6,6,6,5,5,1,4,2,3,5,6,190,900,
scooby_state_564c2be4a266|40|11 680,6,6,8,10,5,4,5,4,1,10,6,6,6,142,899,
scooby_state_564c2be4a266|36|8 655,13,5,7,6,4,6,1,3,5,2,1,1,3,187,899,
scooby_state_564c2be4a266|42|8 672,6,4,3,3,3,4,5,3,4,2,5,4,1,175,894,
scooby_state_564c2be4a27b|29|0 674,5,2,2,2,3,2,5,2,1,0,2,2,2,186,890,
scooby_state_564c2be4a266|26|8 650,9,4,7,6,3,4,5,0,0,1,4,5,5,186,889,
scooby_state_564c2be4a27b|47|0 673,3,1,2,2,2,3,2,1,2,1,4,4,3,186,889,
scooby_state_564c2be4a266|54|7 639,5,5,5,3,4,2,3,0,3,1,4,3,3,206,886,
scooby_state_564c2be4a266|12|9 636,6,7,11,8,2,7,3,4,4,6,5,7,1,177,884,
scooby_state_564c2be4a266|23|8 649,11,7,10,3,6,4,1,1,2,0,1,2,4,182,883,
scooby_state_564c2be4a266|46|8 624,10,5,8,5,3,1,4,4,2,3,2,6,1,205,883,
scooby_state_564c2be4a266|50|9 649,11,8,7,4,8,7,9,4,4,7,5,5,3,152,883,
scooby_state_564c2be4a266|33|11 660,5,9,8,7,7,4,4,4,6,1,6,9,12,138,880,
scooby_state_564c2be4a266|24|7 658,2,1,5,2,2,3,0,2,4,3,2,2,2,192,880,
scooby_state_564c2be4a27b|20|0 693,1,3,3,3,4,3,6,2,1,4,1,8,3,144,879,
scooby_state_564c2be4a266|32|7 655,9,6,3,2,0,4,3,1,3,2,3,3,3,181,878,
scooby_state_564c2be4a266|20|9 657,5,7,6,7,6,10,7,5,3,2,5,6,5,145,876,
scooby_state_564c2be4a266|6|6 607,2,4,11,7,4,5,4,4,2,1,3,1,1,217,873,
scooby_state_564c2be4a266|28|9 671,4,4,2,4,7,3,4,8,2,3,3,7,3,147,872,
scooby_state_564c2be4a266|10|7 639,4,7,4,6,4,3,5,3,4,1,2,3,2,183,870,
scooby_state_564c2be4a266|26|6 641,1,3,3,3,2,2,2,7,2,4,5,4,1,189,869,
scooby_state_564c2be4a266|60|7 619,1,3,3,9,4,2,7,6,0,4,3,4,2,201,868,
scooby_state_564c2be4a266|34|9 634,4,8,4,2,2,5,6,3,7,3,4,5,8,173,868,
scooby_state_564c2be4a266|16|9 631,5,13,6,8,6,5,8,6,4,2,4,5,7,158,868,
scooby_state_564c2be4a266|43|7 623,2,4,7,2,1,2,1,5,1,0,1,2,7,208,866,
scooby_state_564c2be4a266|14|6 624,3,8,6,1,4,4,4,5,5,3,5,4,4,186,866,
scooby_state_564c2be4a27b|52|0 656,2,2,3,1,2,0,4,1,3,1,2,3,2,183,865,
scooby_state_564c2be4a266|60|8 640,6,5,7,3,6,7,4,3,4,1,6,4,1,168,865,
scooby_state_564c2be4a266|55|11 630,14,5,8,8,5,5,8,9,4,1,10,6,4,147,864,
scooby_state_564c2be4a266|37|10 634,7,11,3,4,3,6,1,3,3,0,4,3,7,174,863,
scooby_state_564c2be4a266|22|10 632,2,2,5,8,3,7,4,6,4,2,3,3,5,177,863,
scooby_state_564c2be4a266|52|9 619,7,4,4,9,5,8,2,8,0,6,5,6,7,173,863,
scooby_state_564c2be4a266|50|8 620,8,12,10,3,3,4,4,4,3,5,7,5,6,168,862,
scooby_state_564c2be4a266|47|10 636,6,5,6,4,3,5,3,3,2,1,6,4,6,172,862,
scooby_state_564c2be4a266|9|6 601,6,5,9,2,6,2,1,5,4,3,3,2,1,210,860,
scooby_state_564c2be4a266|20|7 634,3,2,3,3,4,2,4,1,3,0,4,4,4,189,860,
scooby_state_564c2be4a266|63|10 630,6,4,4,11,6,7,4,5,0,3,8,3,3,166,860,
scooby_state_564c2be4a266|61|11 617,9,6,7,7,7,3,5,6,7,4,5,5,6,165,859,
scooby_state_564c2be4a266|58|9 612,13,9,10,5,7,9,5,4,2,6,5,3,2,166,858,
scooby_state_564c2be4a266|56|9 636,12,6,13,6,8,1,3,2,3,3,6,7,3,148,857,
scooby_state_564c2be4a266|52|8 606,9,8,11,5,8,4,2,6,1,4,2,4,2,185,857,
scooby_state_564c2be4a266|25|7 633,6,6,3,7,3,4,1,5,3,0,2,6,4,174,857,
scooby_state_564c2be4a266|23|11 662,11,7,6,6,4,5,4,6,2,2,6,5,4,126,856,
scooby_state_564c2be4a266|50|10 631,3,1,6,2,3,6,2,2,4,2,4,3,4,181,854,
scooby_state_564c2be4a266|44|11 648,7,3,10,9,5,8,4,5,2,5,4,4,7,132,853,
scooby_state_564c2be4a266|56|10 618,7,4,7,9,7,4,3,6,2,1,2,5,1,177,853,
scooby_state_564c2be4a266|47|6 607,4,6,10,4,4,5,6,3,3,3,1,1,3,193,853,
scooby_state_564c2be4a266|61|9 616,12,7,3,8,4,6,3,4,5,3,3,4,7,167,852,
scooby_state_564c2be4a266|57|11 623,9,5,4,8,6,9,2,6,4,1,9,10,7,148,851,
scooby_state_564c2be4a266|34|8 619,5,4,2,4,3,6,8,3,2,3,1,0,5,186,851,
scooby_state_564c2be4a266|44|10 629,2,2,6,6,8,3,0,5,3,2,1,2,2,178,849,
scooby_state_564c2be4a266|45|7 619,4,3,4,4,5,6,1,3,2,4,2,4,6,182,849,
scooby_state_564c2be4a266|61|10 616,4,10,4,9,1,7,5,3,3,0,3,5,4,174,848,
scooby_state_564c2be4a266|62|9 602,12,3,7,6,2,7,7,8,4,6,3,4,6,171,848,
scooby_state_564c2be4a266|18|7 615,1,5,5,1,4,2,4,1,1,2,1,4,2,199,847,
scooby_state_564c2be4a266|58|8 599,8,7,10,3,5,2,4,1,2,4,5,3,6,187,846,
scooby_state_564c2be4a266|8|8 601,11,7,5,9,3,5,3,7,2,2,3,4,5,178,845,
scooby_state_564c2be4a266|59|7 608,4,3,5,2,2,6,3,6,2,2,3,4,6,189,845,
scooby_state_564c2be4a266|16|12 618,9,6,6,6,4,6,5,5,3,5,6,11,1,154,845,
scooby_state_564c2be4a266|34|7 613,11,4,2,2,3,3,1,3,1,2,4,3,1,191,844,
scooby_state_564c2be4a266|36|9 641,10,2,6,4,11,6,7,5,5,2,4,4,4,133,844,
scooby_state_564c2be4a266|50|11 612,8,5,11,9,6,7,4,7,10,8,2,1,6,148,844,
scooby_state_564c2be4a266|55|8 618,3,4,10,4,4,5,8,4,2,6,2,8,4,160,842,
scooby_state_564c2be4a266|56|8 605,5,4,9,4,6,6,6,6,4,3,4,2,5,172,841,
scooby_state_564c2be4a266|38|8 626,8,10,5,7,4,2,5,5,2,6,7,6,2,146,841,
scooby_state_564c2be4a266|33|10 624,5,9,3,8,1,6,2,3,3,3,9,3,1,159,839,
scooby_state_564c2be4a27b|53|0 631,4,0,5,0,1,3,3,3,1,0,5,3,1,179,839,
scooby_state_564c2be4a266|10|10 598,3,9,6,6,8,10,1,5,1,2,3,2,5,180,839,
scooby_state_564c2be4a266|9|9 626,5,6,10,4,3,4,4,1,2,2,6,6,3,155,837,
scooby_state_564c2be4a266|25|8 630,8,5,4,5,8,5,0,3,1,1,2,7,4,154,837,
scooby_state_564c2be4a266|49|8 609,14,5,7,6,2,8,3,2,1,4,1,2,2,171,837,
scooby_state_564c2be4a266|55|7 607,5,9,6,3,6,3,3,4,2,2,3,1,4,176,834,
scooby_state_564c2be4a266|34|10 623,1,8,7,1,3,3,3,0,2,1,1,3,3,174,833,
scooby_state_564c2be4a27b|24|0 664,4,3,3,2,1,0,3,0,2,2,4,0,3,142,833,
scooby_state_564c2be4a266|32|10 637,3,5,1,6,3,10,6,3,1,1,6,5,0,145,832,
scooby_state_564c2be4a266|30|10 639,1,7,2,7,4,10,3,2,3,2,4,1,6,141,832,
scooby_state_564c2be4a266|22|8 621,6,6,7,4,5,4,3,4,2,0,3,4,1,162,832,
scooby_state_564c2be4a266|30|8 629,7,12,3,2,9,6,0,4,1,2,3,2,2,149,831,
scooby_state_564c2be4a266|60|9 585,5,7,4,3,3,3,5,2,7,1,4,2,9,188,828,
scooby_state_564c2be4a266|51|9 597,10,6,11,3,3,4,4,4,5,4,7,6,4,157,825,
scooby_state_564c2be4a266|14|7 609,2,5,6,4,2,5,2,4,2,2,2,3,5,172,825,
scooby_state_564c2be4a266|13|8 580,9,6,9,7,6,4,6,2,3,3,1,2,2,182,822,
scooby_state_564c2be4a266|57|8 599,7,3,9,5,3,9,2,3,1,2,2,2,4,171,822,
scooby_state_564c2be4a266|26|10 626,1,5,2,7,5,6,3,3,1,2,2,3,3,153,822,
scooby_state_564c2be4a27b|48|0 633,1,3,1,3,2,0,2,2,2,1,3,3,3,162,821,
scooby_state_564c2be4a266|25|9 605,8,5,13,2,8,3,3,2,5,5,5,7,3,147,821,
scooby_state_564c2be4a266|34|13 619,2,4,6,2,10,6,10,4,4,5,5,6,1,136,820,
scooby_state_564c2be4a266|14|9 616,5,4,9,6,3,7,3,6,2,5,7,3,4,140,820,
scooby_state_564c2be4a266|19|10 611,3,7,8,4,2,8,3,9,1,3,7,3,1,149,819,
scooby_state_564c2be4a266|41|10 606,4,3,2,1,6,10,3,3,3,3,3,4,5,162,818,
scooby_state_564c2be4a266|24|9 628,6,4,4,2,6,3,0,4,3,2,4,6,2,144,818,
scooby_state_564c2be4a266|28|10 607,4,9,4,4,4,1,8,4,3,1,3,4,2,159,817,
scooby_state_564c2be4a266|47|13 598,4,7,5,4,6,5,6,5,11,5,2,4,9,141,812,
scooby_state_564c2be4a266|29|8 578,9,2,9,9,6,3,1,10,3,1,4,3,3,170,811,
scooby_state_564c2be4a27b|6|0 607,3,3,2,1,3,2,2,3,0,1,4,5,4,171,811,
scooby_state_564c2be4a266|39|12 618,6,5,8,6,9,5,1,2,5,3,3,2,3,134,810,
scooby_state_564c2be4a266|54|10 587,5,4,4,8,4,3,3,1,3,2,1,6,3,176,810,
scooby_state_564c2be4a266|59|8 551,11,6,5,7,6,3,1,2,4,3,3,4,2,201,809,
scooby_state_564c2be4a266|21|20 623,6,11,5,7,9,4,8,5,2,1,7,5,3,112,808,
scooby_state_564c2be4a266|14|10 577,4,3,4,4,5,5,3,3,1,3,3,4,7,181,807,
scooby_state_564c2be4a266|42|7 598,6,5,5,9,4,4,1,0,1,2,3,1,1,165,805,
scooby_state_564c2be4a266|10|9 609,11,5,14,4,6,3,4,4,3,5,3,3,6,125,805,
scooby_state_564c2be4a266|40|10 604,1,3,2,7,1,4,3,0,3,5,0,3,1,167,804,
scooby_state_564c2be4a266|35|7 579,3,2,5,4,3,5,0,4,4,2,1,3,7,182,804,
scooby_state_564c2be4a27b|33|0 602,1,2,4,2,3,1,1,2,0,1,2,3,2,177,803,
scooby_state_564c2be4a266|45|8 589,6,4,9,2,3,5,0,1,4,3,5,3,6,160,800,
scooby_state_564c2be4a266|48|11 586,6,4,4,4,4,3,6,9,8,4,7,4,4,147,800,
scooby_state_564c2be4a266|48|9 574,11,8,4,3,7,6,2,4,4,5,5,4,3,159,799,
scooby_state_564c2be4a266|53|8 567,6,5,5,7,3,3,2,4,3,3,3,1,6,181,799,
scooby_state_564c2be4a266|44|9 568,8,8,10,10,6,5,4,1,3,5,5,4,6,156,799,
scooby_state_564c2be4a266|15|11 588,10,5,8,5,8,3,2,4,3,7,8,4,2,142,799,
scooby_state_564c2be4a266|57|10 581,2,5,3,6,3,3,6,3,2,6,3,3,5,167,798,
scooby_state_564c2be4a266|45|9 574,8,4,4,3,12,3,7,3,5,4,4,5,3,159,798,
scooby_state_564c2be4a266|57|9 577,10,8,13,4,8,2,2,3,2,3,6,3,3,153,797,
scooby_state_564c2be4a266|21|8 568,3,3,8,4,5,5,7,6,4,3,8,0,4,168,796,
scooby_state_564c2be4a266|52|13 585,6,4,4,10,5,8,4,3,2,5,8,4,9,139,796,
scooby_state_564c2be4a266|26|11 592,8,3,6,4,5,4,4,6,2,5,3,4,6,143,795,
scooby_state_564c2be4a266|11|8 567,10,7,10,3,4,1,0,1,7,2,1,3,4,171,791,
scooby_state_564c2be4a266|33|8 572,12,4,8,3,4,3,2,3,4,6,2,3,4,160,790,
scooby_state_564c2be4a266|63|14 580,5,4,10,6,7,5,8,4,2,3,6,8,6,135,789,
scooby_state_564c2be4a266|20|15 594,16,8,7,6,6,8,3,5,3,3,5,4,6,115,789,
scooby_state_564c2be4a266|18|10 567,5,6,6,5,1,8,4,3,5,2,4,4,1,167,788,
scooby_state_564c2be4a266|27|8 550,7,4,9,7,4,5,5,3,3,2,5,1,6,175,786,
scooby_state_564c2be4a266|53|10 589,7,3,3,4,2,4,0,3,2,2,3,2,4,157,785,
scooby_state_564c2be4a266|16|10 593,4,7,4,3,2,5,3,4,1,0,4,2,1,152,785,
scooby_state_564c2be4a266|32|8 560,6,3,8,8,5,4,4,2,2,3,4,3,4,168,784,
scooby_state_564c2be4a266|19|8 588,5,4,3,4,3,5,0,3,4,2,1,6,5,151,784,
scooby_state_564c2be4a266|15|10 579,5,3,6,9,6,8,2,2,2,3,3,5,6,144,783,
scooby_state_564c2be4a266|35|9 587,8,5,5,8,5,4,3,6,3,2,2,4,3,137,782,
scooby_state_564c2be4a266|12|12 575,6,5,9,1,4,3,2,4,7,5,6,3,3,149,782,
scooby_state_564c2be4a266|58|10 571,5,8,5,7,4,3,2,3,2,3,0,3,3,162,781,
scooby_state_564c2be4a266|37|9 575,6,3,5,7,11,3,5,8,7,1,9,5,1,134,780,
scooby_state_564c2be4a266|25|13 597,4,9,9,7,2,7,6,6,5,1,5,5,4,113,780,
scooby_state_564c2be4a266|38|12 597,4,5,7,5,3,3,4,2,2,3,1,5,2,136,779,
scooby_state_564c2be4a266|63|11 556,5,10,4,6,6,7,5,2,5,5,6,4,4,154,779,
scooby_state_564c2be4a266|39|11 588,4,11,6,9,5,9,2,4,3,6,6,3,5,118,779,
scooby_state_564c2be4a266|11|11 567,8,5,6,7,5,7,5,9,2,8,6,7,4,131,777,
scooby_state_564c2be4a266|49|11 569,8,8,5,5,2,6,13,4,3,4,3,2,7,138,777,
scooby_state_564c2be4a266|29|9 581,9,6,7,8,7,5,1,3,3,5,3,6,7,125,776,
scooby_state_564c2be4a266|27|9 569,11,4,14,6,7,3,3,5,3,3,6,3,5,133,775,
scooby_state_564c2be4a266|17|12 580,12,5,5,5,10,5,2,3,1,4,1,4,3,134,774,
scooby_state_564c2be4a266|23|9 579,8,7,3,1,10,3,5,1,4,2,4,4,3,140,774,
scooby_state_564c2be4a266|43|8 570,8,5,6,3,4,2,3,3,0,3,4,2,8,151,772,
scooby_state_564c2be4a266|21|11 599,5,4,2,4,10,2,3,2,0,2,7,4,5,122,771,
scooby_state_564c2be4a266|16|14 593,6,5,4,2,10,9,4,2,2,6,4,8,4,111,770,
scooby_state_564c2be4a266|46|13 586,4,8,5,5,8,4,8,5,4,2,6,5,4,116,770,
scooby_state_564c2be4a266|53|11 589,4,4,6,5,9,6,3,8,3,3,1,2,5,122,770,
scooby_state_564c2be4a266|18|17 581,8,3,2,6,6,6,6,5,2,2,6,3,4,129,769,
scooby_state_564c2be4a266|40|9 571,6,6,4,3,6,6,4,5,3,2,6,4,3,139,768,
scooby_state_564c2be4a266|47|9 574,3,2,10,5,7,3,2,7,1,2,3,3,5,141,768,
scooby_state_564c2be4a266|30|12 570,5,3,8,5,4,6,5,2,2,5,5,7,2,137,766,
scooby_state_564c2be4a266|58|15 583,12,5,4,8,9,9,2,7,6,1,5,7,5,103,766,
scooby_state_564c2be4a266|32|9 551,5,8,7,6,11,1,3,2,3,5,7,5,6,145,765,
scooby_state_564c2be4a266|14|8 563,9,7,3,2,5,2,2,6,3,2,5,1,2,152,764,
scooby_state_564c2be4a266|45|12 586,8,2,7,3,6,7,3,3,4,6,6,2,4,115,762,
scooby_state_564c2be4a266|43|13 583,7,6,5,3,4,3,5,2,3,4,6,3,5,123,762,
scooby_state_564c2be4a266|20|16 576,2,8,6,4,5,6,6,5,3,5,2,4,7,123,762,
scooby_state_564c2be4a266|20|6 545,7,6,6,5,3,3,3,4,2,3,1,2,4,168,762,
scooby_state_564c2be4a266|43|9 565,8,2,6,5,1,6,6,3,3,0,6,3,3,144,761,
scooby_state_564c2be4a266|53|16 593,3,3,4,3,6,5,2,2,1,1,1,6,5,124,759,
scooby_state_564c2be4a27b|38|0 596,1,0,3,4,0,0,0,3,0,3,0,3,2,143,758,
scooby_state_564c2be4a266|18|13 555,6,13,8,3,4,6,2,12,4,6,7,4,7,117,754,
scooby_state_564c2be4a266|11|10 522,2,3,4,10,0,5,1,3,4,3,3,4,4,186,754,
scooby_state_564c2be4a266|37|13 584,3,3,6,2,4,3,5,5,4,2,3,3,5,121,753,
scooby_state_564c2be4a266|46|10 536,5,4,7,9,6,4,3,2,4,3,5,1,2,162,753,
scooby_state_564c2be4a266|46|12 572,2,5,3,4,2,4,5,2,2,4,2,5,9,132,753,
scooby_state_564c2be4a266|50|14 577,9,2,6,3,4,3,4,4,3,3,2,7,4,121,752,
scooby_state_564c2be4a266|18|9 558,8,4,5,2,3,7,1,5,5,5,3,2,5,137,750,
scooby_state_564c2be4a266|25|11 553,7,6,9,9,7,5,4,7,2,1,7,1,6,125,749,
scooby_state_564c2be4a266|50|13 553,8,3,7,7,2,4,6,5,6,3,8,3,6,126,747,
scooby_state_564c2be4a266|18|11 552,6,6,5,4,8,4,2,4,2,4,4,4,3,134,742,
scooby_state_564c2be4a266|24|10 555,5,3,4,3,3,3,2,7,0,1,4,4,8,139,741,
scooby_state_564c2be4a266|30|9 541,7,3,5,2,4,3,3,3,3,4,4,6,6,146,740,
scooby_state_564c2be4a266|29|14 553,4,7,6,2,4,5,4,1,6,3,2,5,7,131,740,
scooby_state_564c2be4a266|21|10 578,4,0,6,3,5,6,2,5,0,1,6,2,3,118,739,
scooby_state_564c2be4a266|58|11 557,4,3,7,7,2,5,4,4,5,2,6,5,4,124,739,
scooby_state_564c2be4a266|43|11 542,8,7,6,4,3,5,4,4,2,3,5,4,3,138,738,
scooby_state_564c2be4a266|38|10 547,5,4,2,4,2,10,2,0,2,1,2,4,4,149,738,
scooby_state_564c2be4a266|44|12 539,11,2,7,7,8,9,3,3,6,3,4,6,4,126,738,
scooby_state_564c2be4a266|13|7 541,2,3,4,3,5,5,2,0,0,5,2,1,5,159,737,
scooby_state_564c2be4a266|22|9 559,3,9,5,3,7,4,0,0,3,5,8,5,2,123,736,
[...]
scooby_state_14698606a390|14|0 1,0,0,0,0,0,0,0,0,0,0,0,0,0,0,1,
scooby_state_564c2be4a263|13|-45 1,0,0,0,0,0,0,0,0,0,0,0,0,0,0,1,
scooby_state_564c2be4a263|9|6 1,0,0,0,0,0,0,0,0,0,0,0,0,0,0,1,
scooby_state_564c2be4a263|56|-7 0,0,0,0,0,0,0,0,0,0,0,0,0,0,1,1,
scooby_state_14698606b8d7|35|1 1,0,0,0,0,0,0,0,0,0,0,0,0,0,0,1,
scooby_state_1469860a3699|26|-9 1,0,0,0,0,0,0,0,0,0,0,0,0,0,0,1,
scooby_state_564c2be494b0|54|0 1,0,0,0,0,0,0,0,0,0,0,0,0,0,0,1,
scooby_state_564c2be4a27b|1|-4 0,0,0,0,0,0,0,0,0,0,0,0,0,0,1,1,
scooby_state_1469860302c0|11|10 1,0,0,0,0,0,0,0,0,0,0,0,0,0,0,1,
scooby_state_1469860a69c3|39|1 1,0,0,0,0,0,0,0,0,0,0,0,0,0,0,1,
scooby_state_1469860a6d83|54|1 1,0,0,0,0,0,0,0,0,0,0,0,0,0,0,1,
scooby_state_564c2be4a263|18|-31 1,0,0,0,0,0,0,0,0,0,0,0,0,0,0,1,
scooby_state_14698609d300|12|0 1,0,0,0,0,0,0,0,0,0,0,0,0,0,0,1,
scooby_state_564c2be4a263|34|10 1,0,0,0,0,0,0,0,0,0,0,0,0,0,0,1,
scooby_state_564c2be4a27b|1|-21 1,0,0,0,0,0,0,0,0,0,0,0,0,0,0,1,
scooby_state_564c2be4a263|13|-16 1,0,0,0,0,0,0,0,0,0,0,0,0,0,0,1,
scooby_state_1469860a744d|17|0 1,0,0,0,0,0,0,0,0,0,0,0,0,0,0,1,
scooby_state_564c2be4a240|23|1 1,0,0,0,0,0,0,0,0,0,0,0,0,0,0,1,
scooby_state_146986141240|9|1 1,0,0,0,0,0,0,0,0,0,0,0,0,0,0,1,
scooby_state_1469860a61a0|6|4 1,0,0,0,0,0,0,0,0,0,0,0,0,0,0,1,
scooby_state_564c2be4a263|48|38 0,0,0,0,0,0,0,0,1,0,0,0,0,0,0,1,
scooby_state_1469860a6d43|53|1 1,0,0,0,0,0,0,0,0,0,0,0,0,0,0,1,
scooby_state_564c2be494c0|19|-14 1,0,0,0,0,0,0,0,0,0,0,0,0,0,0,1,
scooby_state_564c2be4a0c0|3|0 1,0,0,0,0,0,0,0,0,0,0,0,0,0,0,1,
scooby_state_564c2be4a263|25|-6 1,0,0,0,0,0,0,0,0,0,0,0,0,0,0,1,
scooby_state_564c2be4a263|47|23 1,0,0,0,0,0,0,0,0,0,0,0,0,0,0,1,
scooby_state_1469860a3540|21|1 1,0,0,0,0,0,0,0,0,0,0,0,0,0,0,1,
scooby_state_564c2be4a263|4|3 1,0,0,0,0,0,0,0,0,0,0,0,0,0,0,1,
scooby_state_564c2be4a263|44|-11 1,0,0,0,0,0,0,0,0,0,0,0,0,0,0,1,
scooby_state_564c2be4a263|49|14 1,0,0,0,0,0,0,0,0,0,0,0,0,0,0,1,
scooby_state_7fffed38cd82|54|1 1,0,0,0,0,0,0,0,0,0,0,0,0,0,0,1,
scooby_state_564c2be4a263|58|19 1,0,0,0,0,0,0,0,0,0,0,0,0,0,0,1,
scooby_state_1469860a358f|19|-11 1,0,0,0,0,0,0,0,0,0,0,0,0,0,0,1,
scooby_state_1469860a4183|6|-3 1,0,0,0,0,0,0,0,0,0,0,0,0,0,0,1,
scooby_state_14698609bea0|58|0 1,0,0,0,0,0,0,0,0,0,0,0,0,0,0,1,
scooby_state_564c2be4a263|36|-25 0,0,0,0,0,0,0,0,0,0,0,1,0,0,0,1,
scooby_state_564c2be4a27b|29|23 1,0,0,0,0,0,0,0,0,0,0,0,0,0,0,1,
scooby_state_564c2be4a181|62|14 1,0,0,0,0,0,0,0,0,0,0,0,0,0,0,1,
scooby_state_564c2be4a263|43|32 0,0,0,0,0,0,0,1,0,0,0,0,0,0,0,1,
scooby_state_564c2be4a263|40|-19 0,0,0,0,0,0,0,0,1,0,0,0,0,0,0,1,
scooby_state_564c2be4a27b|30|27 1,0,0,0,0,0,0,0,0,0,0,0,0,0,0,1,
scooby_state_14698606a67e|42|-2 1,0,0,0,0,0,0,0,0,0,0,0,0,0,0,1,
scooby_state_564c2be4a0d8|22|-4 1,0,0,0,0,0,0,0,0,0,0,0,0,0,0,1,
scooby_state_564c2be4a263|40|-5 1,0,0,0,0,0,0,0,0,0,0,0,0,0,0,1,
scooby_state_564c2be4a263|21|14 1,0,0,0,0,0,0,0,0,0,0,0,0,0,0,1,
scooby_state_564c2be4a27b|1|-5 1,0,0,0,0,0,0,0,0,0,0,0,0,0,0,1,
scooby_state_146986141346|13|1 1,0,0,0,0,0,0,0,0,0,0,0,0,0,0,1,
scooby_state_1469860a4242|9|4 1,0,0,0,0,0,0,0,0,0,0,0,0,0,0,1,
scooby_state_564c2be4a263|0|-1 1,0,0,0,0,0,0,0,0,0,0,0,0,0,0,1,
scooby_state_564c2be4a263|46|4 0,0,0,1,0,0,0,0,0,0,0,0,0,0,0,1,
scooby_state_14698608d1d8|7|1 1,0,0,0,0,0,0,0,0,0,0,0,0,0,0,1,
scooby_state_564c2be4a263|33|28 1,0,0,0,0,0,0,0,0,0,0,0,0,0,0,1,
scooby_state_564c2be4a263|44|28 1,0,0,0,0,0,0,0,0,0,0,0,0,0,0,1,
scooby_state_564c2be4a263|33|-9 1,0,0,0,0,0,0,0,0,0,0,0,0,0,0,1,
scooby_state_564c2be4a27b|30|29 1,0,0,0,0,0,0,0,0,0,0,0,0,0,0,1,
scooby_state_1469860a6aa0|42|-13 1,0,0,0,0,0,0,0,0,0,0,0,0,0,0,1,
scooby_state_1469860a6ac0|43|1 1,0,0,0,0,0,0,0,0,0,0,0,0,0,0,1,
scooby_state_564c2be4a263|49|3 1,0,0,0,0,0,0,0,0,0,0,0,0,0,0,1,
scooby_state_1469860a60cf|11|-37 1,0,0,0,0,0,0,0,0,0,0,0,0,0,0,1,
scooby_state_564c2be4a263|26|-32 1,0,0,0,0,0,0,0,0,0,0,0,0,0,0,1,
scooby_state_14698606bd44|53|1 1,0,0,0,0,0,0,0,0,0,0,0,0,0,0,1,
scooby_state_564c2be4a263|17|11 1,0,0,0,0,0,0,0,0,0,0,0,0,0,0,1,
scooby_state_564c2be4a263|40|-7 1,0,0,0,0,0,0,0,0,0,0,0,0,0,0,1,
scooby_state_564c2be4a27b|43|43 1,0,0,0,0,0,0,0,0,0,0,0,0,0,0,1,
scooby_state_1469860a3b90|46|30 1,0,0,0,0,0,0,0,0,0,0,0,0,0,0,1,
scooby_state_564c2be4a27b|5|-26 1,0,0,0,0,0,0,0,0,0,0,0,0,0,0,1,
scooby_state_14698609d2a0|10|-3 1,0,0,0,0,0,0,0,0,0,0,0,0,0,0,1,
scooby_state_564c2be49850|61|2 1,0,0,0,0,0,0,0,0,0,0,0,0,0,0,1,
scooby_state_564c2be4a263|57|-1 1,0,0,0,0,0,0,0,0,0,0,0,0,0,0,1,
scooby_state_564c2be4a263|25|16 1,0,0,0,0,0,0,0,0,0,0,0,0,0,0,1,
scooby_state_564c2be4a263|13|-24 0,0,1,0,0,0,0,0,0,0,0,0,0,0,0,1,
scooby_state_564c2be4a263|21|-25 1,0,0,0,0,0,0,0,0,0,0,0,0,0,0,1,
scooby_state_1469860677b0|30|0 1,0,0,0,0,0,0,0,0,0,0,0,0,0,0,1,
scooby_state_564c2be4a263|34|-15 1,0,0,0,0,0,0,0,0,0,0,0,0,0,0,1,
scooby_state_7fffed38ceb2|58|3 1,0,0,0,0,0,0,0,0,0,0,0,0,0,0,1,
scooby_state_146986a403f0|15|0 1,0,0,0,0,0,0,0,0,0,0,0,0,0,0,1,
scooby_state_14698606c8db|35|20 1,0,0,0,0,0,0,0,0,0,0,0,0,0,0,1,
scooby_state_564c2be4a263|32|-16 0,0,0,0,0,0,0,0,1,0,0,0,0,0,0,1,
scooby_state_564c2be4a27b|2|-41 1,0,0,0,0,0,0,0,0,0,0,0,0,0,0,1,
scooby_state_14698606bf60|61|26 1,0,0,0,0,0,0,0,0,0,0,0,0,0,0,1,
scooby_state_564c2be4a263|52|42 0,0,0,0,0,1,0,0,0,0,0,0,0,0,0,1,
scooby_state_564c2be4a263|38|22 0,0,0,0,0,0,0,0,0,1,0,0,0,0,0,1,
scooby_state_564c2be4a27b|56|51 0,0,0,0,0,0,0,1,0,0,0,0,0,0,0,1,
scooby_state_564c2be4a263|45|31 0,0,0,0,0,0,0,0,0,0,0,0,0,1,0,1,
scooby_state_564c2be4a263|61|27 0,0,0,0,0,0,0,0,0,0,0,1,0,0,0,1,
scooby_state_564c2be4a263|39|8 0,1,0,0,0,0,0,0,0,0,0,0,0,0,0,1,
scooby_state_564c2be4a263|43|5 0,0,0,0,0,0,0,0,0,0,0,0,0,0,1,1,
scooby_state_564c2be4a192|61|-1 1,0,0,0,0,0,0,0,0,0,0,0,0,0,0,1,
scooby_state_564c2be4a263|0|-10 1,0,0,0,0,0,0,0,0,0,0,0,0,0,0,1,
scooby_state_14698609d443|17|1 1,0,0,0,0,0,0,0,0,0,0,0,0,0,0,1,
scooby_state_14698606af02|60|1 1,0,0,0,0,0,0,0,0,0,0,0,0,0,0,1,
scooby_state_564c2be4a263|38|3 0,0,0,0,0,0,0,0,0,0,0,1,0,0,0,1,
scooby_state_564c2be4a263|50|34 0,0,0,0,0,0,0,1,0,0,0,0,0,0,0,1,
scooby_state_1469860a6070|1|0 1,0,0,0,0,0,0,0,0,0,0,0,0,0,0,1,
scooby_state_564c2be4a263|52|22 1,0,0,0,0,0,0,0,0,0,0,0,0,0,0,1,
scooby_state_564c2be4a263|39|13 1,0,0,0,0,0,0,0,0,0,0,0,0,0,0,1,
scooby_state_1469860a6d1a|8|0 1,0,0,0,0,0,0,0,0,0,0,0,0,0,0,1,
scooby_state_564c2be4a1c3|7|1 1,0,0,0,0,0,0,0,0,0,0,0,0,0,0,1,
scooby_state_564c2be4a27b|59|54 1,0,0,0,0,0,0,0,0,0,0,0,0,0,0,1,
scooby_state_564c2be4a27b|18|12 1,0,0,0,0,0,0,0,0,0,0,0,0,0,0,1,
scooby_state_564c2be4a27b|7|-36 1,0,0,0,0,0,0,0,0,0,0,0,0,0,0,1,
scooby_state_7fffed38cd40|53|0 1,0,0,0,0,0,0,0,0,0,0,0,0,0,0,1,
scooby_state_564c2be4a263|26|24 1,0,0,0,0,0,0,0,0,0,0,0,0,0,0,1,
scooby_state_14698606bb11|44|-11 1,0,0,0,0,0,0,0,0,0,0,0,0,0,0,1,
scooby_state_1469860a4123|47|0 1,0,0,0,0,0,0,0,0,0,0,0,0,0,0,1,
scooby_state_564c2be4a263|10|-43 1,0,0,0,0,0,0,0,0,0,0,0,0,0,0,1,
scooby_state_564c2be4a240|9|1 1,0,0,0,0,0,0,0,0,0,0,0,0,0,0,1,
scooby_state_564c2be4a27b|1|-43 0,1,0,0,0,0,0,0,0,0,0,0,0,0,0,1,
scooby_state_564c2be4a263|41|33 1,0,0,0,0,0,0,0,0,0,0,0,0,0,0,1,
scooby_state_564c2be4a27b|5|-38 1,0,0,0,0,0,0,0,0,0,0,0,0,0,0,1,
scooby_state_564c2be4a27b|35|29 1,0,0,0,0,0,0,0,0,0,0,0,0,0,0,1,
scooby_state_14698606bdf0|55|12 1,0,0,0,0,0,0,0,0,0,0,0,0,0,0,1,
scooby_state_146986030230|8|-3 1,0,0,0,0,0,0,0,0,0,0,0,0,0,0,1,
scooby_state_564c2be4a263|3|-56 1,0,0,0,0,0,0,0,0,0,0,0,0,0,0,1,
scooby_state_14698611e7c1|31|1 1,0,0,0,0,0,0,0,0,0,0,0,0,0,0,1,
scooby_state_564c2be4a263|25|-5 1,0,0,0,0,0,0,0,0,0,0,0,0,0,0,1,
scooby_state_564c2be4a263|39|-4 1,0,0,0,0,0,0,0,0,0,0,0,0,0,0,1,
scooby_state_14698606a981|38|1 1,0,0,0,0,0,0,0,0,0,0,0,0,0,0,1,
scooby_state_564c2be4a263|37|20 1,0,0,0,0,0,0,0,0,0,0,0,0,0,0,1,
scooby_state_14698606a543|21|-18 1,0,0,0,0,0,0,0,0,0,0,0,0,0,0,1,
scooby_state_564c2be4a263|1|-2 1,0,0,0,0,0,0,0,0,0,0,0,0,0,0,1,
scooby_state_564c2be4a263|43|-12 1,0,0,0,0,0,0,0,0,0,0,0,0,0,0,1,
scooby_state_564c2be4a263|54|4 1,0,0,0,0,0,0,0,0,0,0,0,0,0,0,1,
scooby_state_564c2be4a263|8|-10 1,0,0,0,0,0,0,0,0,0,0,0,0,0,0,1,
scooby_state_564c2be4a263|55|32 0,0,0,1,0,0,0,0,0,0,0,0,0,0,0,1,
scooby_state_564c2be4a263|29|-6 1,0,0,0,0,0,0,0,0,0,0,0,0,0,0,1,
scooby_state_564c2be4a27b|53|52 1,0,0,0,0,0,0,0,0,0,0,0,0,0,0,1,
scooby_state_564c2be4a27b|1|-39 1,0,0,0,0,0,0,0,0,0,0,0,0,0,0,1,
scooby_state_14698606a586|22|1 1,0,0,0,0,0,0,0,0,0,0,0,0,0,0,1,
scooby_state_564c2be4a263|57|39 1,0,0,0,0,0,0,0,0,0,0,0,0,0,0,1,
scooby_state_1469860a6080|2|1 1,0,0,0,0,0,0,0,0,0,0,0,0,0,0,1,
scooby_state_14698609a9c2|39|1 1,0,0,0,0,0,0,0,0,0,0,0,0,0,0,1,
scooby_state_564c2be4a263|9|-6 1,0,0,0,0,0,0,0,0,0,0,0,0,0,0,1,
scooby_state_1469860a6076|59|3 1,0,0,0,0,0,0,0,0,0,0,0,0,0,0,1,
scooby_state_14698606bb44|45|-11 1,0,0,0,0,0,0,0,0,0,0,0,0,0,0,1,
scooby_state_564c2be4a263|55|24 1,0,0,0,0,0,0,0,0,0,0,0,0,0,0,1,
scooby_state_146986067840|33|2 1,0,0,0,0,0,0,0,0,0,0,0,0,0,0,1,
scooby_state_1469860a40e6|3|0 1,0,0,0,0,0,0,0,0,0,0,0,0,0,0,1,
scooby_state_1469860a3d30|52|1 1,0,0,0,0,0,0,0,0,0,0,0,0,0,0,1,
scooby_state_1469860ca440|17|0 1,0,0,0,0,0,0,0,0,0,0,0,0,0,0,1,
scooby_state_564c2be4a27b|60|54 1,0,0,0,0,0,0,0,0,0,0,0,0,0,0,1,
scooby_state_14698606786b|22|-20 1,0,0,0,0,0,0,0,0,0,0,0,0,0,0,1,
scooby_state_564c2be4a263|14|9 0,0,0,1,0,0,0,0,0,0,0,0,0,0,0,1,
scooby_state_564c2be4a263|32|-20 0,0,0,0,0,0,0,0,0,0,0,1,0,0,0,1,
scooby_state_1469860a6c82|50|-7 1,0,0,0,0,0,0,0,0,0,0,0,0,0,0,1,
scooby_state_14698609d420|16|5 1,0,0,0,0,0,0,0,0,0,0,0,0,0,0,1,
scooby_state_14698606c902|36|1 1,0,0,0,0,0,0,0,0,0,0,0,0,0,0,1,
scooby_state_14698606c090|2|-34 1,0,0,0,0,0,0,0,0,0,0,0,0,0,0,1,
scooby_state_564c2be4a263|12|-34 1,0,0,0,0,0,0,0,0,0,0,0,0,0,0,1,
scooby_state_14698608d182|6|1 1,0,0,0,0,0,0,0,0,0,0,0,0,0,0,1,
scooby_state_1469860a35f4|18|-1 1,0,0,0,0,0,0,0,0,0,0,0,0,0,0,1,
scooby_state_564c2be4a263|52|28 1,0,0,0,0,0,0,0,0,0,0,0,0,0,0,1,
scooby_state_1469860a6dc2|55|1 1,0,0,0,0,0,0,0,0,0,0,0,0,0,0,1,
scooby_state_564c2be4a263|53|12 1,0,0,0,0,0,0,0,0,0,0,0,0,0,0,1,
scooby_state_564c2be4a27b|43|12 1,0,0,0,0,0,0,0,0,0,0,0,0,0,0,1,
scooby_state_1469860a6984|38|1 1,0,0,0,0,0,0,0,0,0,0,0,0,0,0,1,
scooby_state_564c2be4a263|33|11 0,0,0,0,0,0,0,0,0,1,0,0,0,0,0,1,
scooby_state_564c2be4a263|53|-7 1,0,0,0,0,0,0,0,0,0,0,0,0,0,0,1,
scooby_state_1469860a698d|7|0 1,0,0,0,0,0,0,0,0,0,0,0,0,0,0,1,
scooby_state_564c2be4a263|61|47 1,0,0,0,0,0,0,0,0,0,0,0,0,0,0,1,
scooby_state_564c2be4a263|11|-14 1,0,0,0,0,0,0,0,0,0,0,0,0,0,0,1,
scooby_state_564c2be4a263|53|37 0,0,0,0,0,0,0,0,0,0,0,0,0,0,1,1,
scooby_state_1469860a3d40|53|1 1,0,0,0,0,0,0,0,0,0,0,0,0,0,0,1,
scooby_state_1469860a6a01|40|1 1,0,0,0,0,0,0,0,0,0,0,0,0,0,0,1,
scooby_state_564c2be4a263|19|-5 0,0,0,0,0,0,0,0,0,0,0,0,1,0,0,1,
scooby_state_1469860a3480|18|1 1,0,0,0,0,0,0,0,0,0,0,0,0,0,0,1,
scooby_state_564c2be4a263|21|7 0,0,0,0,0,0,0,0,0,0,1,0,0,0,0,1,
scooby_state_1469860a6212|8|4 1,0,0,0,0,0,0,0,0,0,0,0,0,0,0,1,
scooby_state_564c2be4a27b|1|-34 1,0,0,0,0,0,0,0,0,0,0,0,0,0,0,1,
scooby_state_1469860a6c30|48|8 1,0,0,0,0,0,0,0,0,0,0,0,0,0,0,1,
scooby_state_1469860a60c1|58|1 1,0,0,0,0,0,0,0,0,0,0,0,0,0,0,1,
scooby_state_146986a3fb30|44|17 1,0,0,0,0,0,0,0,0,0,0,0,0,0,0,1,
scooby_state_1469860a3f73|36|-1 1,0,0,0,0,0,0,0,0,0,0,0,0,0,0,1,
scooby_state_14698606a494|18|1 1,0,0,0,0,0,0,0,0,0,0,0,0,0,0,1,
scooby_state_146986141305|12|1 1,0,0,0,0,0,0,0,0,0,0,0,0,0,0,1,
scooby_state_564c2be4a263|10|10 0,1,0,0,0,0,0,0,0,0,0,0,0,0,0,1,
scooby_state_146986a473b0|14|0 1,0,0,0,0,0,0,0,0,0,0,0,0,0,0,1,
scooby_state_14698606a3c3|15|1 1,0,0,0,0,0,0,0,0,0,0,0,0,0,0,1,
scooby_state_564c2be4a27b|59|50 0,0,0,0,0,0,0,0,0,0,0,0,1,0,0,1,
scooby_state_1469860a731c|10|5 1,0,0,0,0,0,0,0,0,0,0,0,0,0,0,1,
scooby_state_1469860a6d10|52|2 1,0,0,0,0,0,0,0,0,0,0,0,0,0,0,1,
scooby_state_1469860a3603|24|-29 1,0,0,0,0,0,0,0,0,0,0,0,0,0,0,1,
scooby_state_564c2be4a263|46|5 0,0,0,0,0,0,0,0,1,0,0,0,0,0,0,1,
scooby_state_564c2be4a263|44|9 1,0,0,0,0,0,0,0,0,0,0,0,0,0,0,1,
scooby_state_14698606b8b0|34|-6 1,0,0,0,0,0,0,0,0,0,0,0,0,0,0,1,
scooby_state_564c2be4a263|21|6 1,0,0,0,0,0,0,0,0,0,0,0,0,0,0,1,
scooby_state_1469860a6950|37|29 1,0,0,0,0,0,0,0,0,0,0,0,0,0,0,1,
scooby_state_1469860a3cc0|51|13 1,0,0,0,0,0,0,0,0,0,0,0,0,0,0,1,
scooby_state_14698606bd24|52|52 1,0,0,0,0,0,0,0,0,0,0,0,0,0,0,1,
scooby_state_146986a3fb30|22|8 1,0,0,0,0,0,0,0,0,0,0,0,0,0,0,1,
scooby_state_564c2be4a263|62|27 0,0,0,0,0,0,0,0,0,0,1,0,0,0,0,1,
scooby_state_564c2be4a263|60|50 0,0,0,0,0,0,1,0,0,0,0,0,0,0,0,1,
scooby_state_564c2be4a263|42|-10 1,0,0,0,0,0,0,0,0,0,0,0,0,0,0,1,
scooby_state_564c2be4a263|5|-27 1,0,0,0,0,0,0,0,0,0,0,0,0,0,0,1,
scooby_state_1469860a6e55|57|8 1,0,0,0,0,0,0,0,0,0,0,0,0,0,0,1,

scooby_action_0_deg_dist 0,627611,0,0,0,0,0,0,0,0,0,0,0,0,0,0,
scooby_action_-6_deg_dist 0,13351,22,0,0,0,0,0,0,0,0,0,0,0,0,0,
scooby_action_4_deg_dist 0,15265,62,0,3,0,0,0,0,0,0,0,0,0,0,0,
scooby_action_1_deg_dist 0,3282823,174319,0,118969,0,246862,0,0,0,0,0,0,0,0,0,
scooby_action_30_deg_dist 0,10253,11,0,0,0,0,0,0,0,0,0,0,0,0,0,
scooby_action_5_deg_dist 0,15389,64,0,16,0,0,0,0,0,0,0,0,0,0,0,
scooby_action_3_deg_dist 0,16408,98,0,11,0,0,0,0,0,0,0,0,0,0,0,
scooby_action_32_deg_dist 0,10069,4,0,0,0,0,0,0,0,0,0,0,0,0,0,
scooby_action_10_deg_dist 0,14000,58,0,9,0,0,0,0,0,0,0,0,0,0,0,
scooby_action_11_deg_dist 0,13521,35,0,5,0,0,0,0,0,0,0,0,0,0,0,
scooby_action_12_deg_dist 0,13085,34,0,1,0,0,0,0,0,0,0,0,0,0,0,
scooby_action_22_deg_dist 0,11429,13,0,6,0,0,0,0,0,0,0,0,0,0,0,
scooby_action_23_deg_dist 0,11218,13,0,1,0,0,0,0,0,0,0,0,0,0,0,
scooby_action_-1_deg_dist 0,13498,15,0,0,0,0,0,0,0,0,0,0,0,0,0,
scooby_action_-3_deg_dist 0,13544,27,0,3,0,0,0,0,0,0,0,0,0,0,0,

scooby_track_called 4622125
scooby_track_same_address 7898
scooby_track_evict 4613971

scooby_reward_demand_called 4622125
scooby_reward_demand_pt_not_found 4245077
scooby_reward_demand_pt_found 377048
scooby_reward_demand_pt_found_total 377048
scooby_reward_demand_has_reward 30
scooby_reward_train_called 4134051
scooby_reward_assign_reward_called 4613994
scooby_reward_no_pref 627594
scooby_reward_incorrect 3506457
scooby_reward_correct_untimely 302945
scooby_reward_correct_timely 74073
scooby_reward_out_of_bounds 102925
scooby_reward_tracker_hit 0

scooby_reward_none_low_bw 627594
scooby_reward_none_high_bw 0
scooby_reward_incorrect_low_bw 3506457
scooby_reward_incorrect_high_bw 0
scooby_reward_correct_untimely_low_bw 302945
scooby_reward_correct_untimely_high_bw 0
scooby_reward_correct_timely_low_bw 74073
scooby_reward_correct_timely_high_bw 0
scooby_reward_out_of_bounds_low_bw 102925
scooby_reward_out_of_bounds_high_bw 0
scooby_reward_tracker_hit_low_bw 0
scooby_reward_tracker_hit_high_bw 0

scooby_reward_1 0,3384488,299196,70697,64912,0,
scooby_reward_3 0,13539,645,475,1420,0,
scooby_reward_4 0,12360,523,418,1629,0,
scooby_reward_5 0,12155,505,453,1964,0,
scooby_reward_10 0,9834,356,409,3031,0,
scooby_reward_11 0,9334,314,400,3236,0,
scooby_reward_12 0,8751,269,348,3492,0,
scooby_reward_22 0,5671,190,222,5132,0,
scooby_reward_23 0,5464,160,227,5205,0,
scooby_reward_30 0,3793,94,155,6059,0,
scooby_reward_32 0,3465,77,138,6290,0,
scooby_reward_-1 0,12714,198,40,37,0,
scooby_reward_-3 0,12629,217,52,157,0,
scooby_reward_-6 0,12260,201,39,361,0,
scooby_reward_0 627594,0,0,0,0,0,

scooby_train_called 4613970
scooby_train_compute_reward 4134051

scooby_register_fill_called 3666691
scooby_register_fill_set 3101041
scooby_register_fill_set_total 3101041

scooby_register_prefetch_hit_called 1753278
scooby_register_prefetch_hit_set 767737
scooby_register_prefetch_hit_set_total 767737

scooby_pref_issue_scooby 5506983

learning_engine_featurewise.action.called 4622125
learning_engine_featurewise.action.explore 8461
learning_engine_featurewise.action.exploit 4613664
learning_engine_featurewise.action.fallback 3514972
learning_engine_featurewise.action.dyn_fallback_saved_bw 0
learning_engine_featurewise.action.dyn_fallback_saved_bw_acc 806483
learning_engine_featurewise.action.index_1_explored 573
learning_engine_featurewise.action.index_1_exploited 3822400
learning_engine_featurewise.action.index_3_explored 575
learning_engine_featurewise.action.index_3_exploited 15942
learning_engine_featurewise.action.index_4_explored 570
learning_engine_featurewise.action.index_4_exploited 14760
learning_engine_featurewise.action.index_5_explored 538
learning_engine_featurewise.action.index_5_exploited 14931
learning_engine_featurewise.action.index_10_explored 602
learning_engine_featurewise.action.index_10_exploited 13465
learning_engine_featurewise.action.index_11_explored 569
learning_engine_featurewise.action.index_11_exploited 12992
learning_engine_featurewise.action.index_12_explored 593
learning_engine_featurewise.action.index_12_exploited 12527
learning_engine_featurewise.action.index_22_explored 564
learning_engine_featurewise.action.index_22_exploited 10884
learning_engine_featurewise.action.index_23_explored 569
learning_engine_featurewise.action.index_23_exploited 10663
learning_engine_featurewise.action.index_30_explored 566
learning_engine_featurewise.action.index_30_exploited 9698
learning_engine_featurewise.action.index_32_explored 517
learning_engine_featurewise.action.index_32_exploited 9556
learning_engine_featurewise.action.index_-1_explored 564
learning_engine_featurewise.action.index_-1_exploited 12949
learning_engine_featurewise.action.index_-3_explored 544
learning_engine_featurewise.action.index_-3_exploited 13030
learning_engine_featurewise.action.index_-6_explored 554
learning_engine_featurewise.action.index_-6_exploited 12819
learning_engine_featurewise.action.index_0_explored 563
learning_engine_featurewise.action.index_0_exploited 627048
learning_engine_featurewise.learn.called 4613970
learning_engine_featurewise.learn.su_skip_PC 0
learning_engine_featurewise.learn.su_skip_PC_Delta 0

learning_engine_featurewise.q_value_histogram.bucket_0 747931
learning_engine_featurewise.q_value_histogram.bucket_1 11176
learning_engine_featurewise.q_value_histogram.bucket_2 3541377
learning_engine_featurewise.q_value_histogram.bucket_3 21148
learning_engine_featurewise.q_value_histogram.bucket_4 186827
learning_engine_featurewise.q_value_histogram.bucket_5 104282
learning_engine_featurewise.q_value_histogram.bucket_6 923
learning_engine_featurewise.q_value_histogram.bucket_7 0

learning_engine_featurewise.consensus.total 4613664
learning_engine_featurewise.consensus.feature_align_PC 3825399
learning_engine_featurewise.consensus.feature_align_PC_ratio 0.83
learning_engine_featurewise.consensus.feature_align_PC_Delta 3863676
learning_engine_featurewise.consensus.feature_align_PC_Delta_ratio 0.84
learning_engine_featurewise.consensus.feature_align_all 3823081
learning_engine_featurewise.consensus.feature_align_all_ratio 0.83

learning_engine_featurewise.feature_PC_min_weight 1000000.00000000
learning_engine_featurewise.feature_PC_max_weight 0.00000000
learning_engine_featurewise.feature_PC_Delta_min_weight 1000000.00000000
learning_engine_featurewise.feature_PC_Delta_max_weight 0.00000000
unique_pcs 212
unique_pages 5512
unique_trigger_pcs 50
total_bitmaps_seen 0
unique_bitmaps_seen 0

scooby_bw_epochs 1210041
scooby_bw_level_0 975660
scooby_bw_level_1 214400
scooby_bw_level_2 17594
scooby_bw_level_3 2387

scooby_ipc_epochs 0
scooby_ipc_level_0 0
scooby_ipc_level_1 0
scooby_ipc_level_2 0
scooby_ipc_level_3 0

scooby_cache_acc_epochs 302138
scooby_cache_acc_level_0 123313
scooby_cache_acc_level_1 151695
scooby_cache_acc_level_2 22822
scooby_cache_acc_level_3 3130
scooby_cache_acc_level_4 608
scooby_cache_acc_level_5 367
scooby_cache_acc_level_6 49
scooby_cache_acc_level_7 38
scooby_cache_acc_level_8 42
scooby_cache_acc_level_9 74

Channel_0_RQ_row_buffer_hit 567802
Channel_0_RQ_row_buffer_miss 1541580
Channel_0_WQ_row_buffer_hit 80200
Channel_0_WQ_row_buffer_miss 114497
Channel_0_WQ_full 0
Channel_0_dbus_congested 767089

avg_congested_cycle 7

DRAM_bw_pochs 1210041
DRAM_bw_level_0 975660
DRAM_bw_level_1 214400
DRAM_bw_level_2 17594
DRAM_bw_level_3 2387
