*************************************************
   ChampSim Multicore Out-of-Order Simulator
   Last compiled: Apr  3 2025 20:54:34
*************************************************
parsing config file: /home/zir/Pythia/config/pythia.ini

trace_0 /home/zir/ChampSim/ML-DPC/ChampSimTraces/gap/pr-5.trace.gz
adding L2C_PREFETCHER: Scooby
Initialize SHIP state
warmup_instructions 10000000
simulation_instructions 50000000
champsim_seed 53
measure_ipc 0
measure_ipc_epoch 1000
measure_dram_bw 1
measure_dram_bw_epoch 256
measure_cache_acc 1
measure_cache_acc_epoch 1024
l1d_perfect 0
l2c_perfect 0
llc_perfect 0
l1d_semi_perfect 0
l2c_semi_perfect 0
llc_semi_perfect 0
semi_perfect_cache_page_buffer_size 64

num_cpus 1
cpu_freq 4000
dram_io_freq 2400
page_size 4096
block_size 64
max_read_per_cycle 8
max_fill_per_cycle 1
dram_channels 1
log2_dram_channels 0
dram_ranks 1
dram_banks 8
dram_rows 65536
dram_columns 128
dram_row_size 8
dram_size 4096
dram_pages 1048576

fetch_width 6
decode_width 6
exec_width 4
lq_width 2
sq_width 2
retire_width 4
scheduler_size 128
branch_mispredict_penalty 20
rob_size 256
lq_size 72
sq_size 56
num_instr_destinations_sparc 4
num_instr_destinations 2
num_instr_sources 4

itlb_set 16
itlb_way 8
itlb_rq_size 16
itlb_wq_size 16
itlb_pq_size 0
itlb_mshr_size 8
itlb_latency 1

dtlb_set 16
dtlb_way 4
dtlb_rq_size 16
dtlb_wq_size 16
dtlb_pq_size 0
dtlb_mshr_size 8
dtlb_latency 1

stlb_set 128
stlb_way 12
stlb_rq_size 32
stlb_wq_size 32
stlb_pq_size 0
stlb_mshr_size 16
stlb_latency 8

l1i_size 32
l1i_set 64
l1i_way 8
l1i_rq_size 64
l1i_wq_size 64
l1i_pq_size 8
l1i_mshr_size 8
l1i_latency 1

l1d_size 32
l1d_set 64
l1d_way 8
l1d_rq_size 64
l1d_wq_size 64
l1d_pq_size 8
l1d_mshr_size 16
l1d_latency 4

l2c_size 256
l2c_set 512
l2c_way 8
l2c_rq_size 32
l2c_wq_size 32
l2c_pq_size 32
l2c_mshr_size 32
l2c_latency 10

llc_size 2048
llc_set 2048
llc_way 16
llc_rq_size 32
llc_wq_size 32
llc_pq_size 32
llc_mshr_size 64
llc_latency 20

dram_channel_width 8
dram_wq_size 64
dram_rq_size 64
tRP 15
tRCD 15
tCAS 12.5
dram_dbus_turn_around_time 30
dram_write_high_wm 56
dram_write_low_wm 48
min_dram_writes_per_switch 16
dram_mtps 2400
dram_dbus_return_time 13

scooby_alpha 0.0065088
scooby_gamma 0.556301
scooby_epsilon 0.00182284
scooby_state_num_bits 10
scooby_max_states 1024
scooby_seed 200
scooby_policy EGreedy
scooby_learning_type SARSA
scooby_actions 1,3,4,5,10,11,12,22,23,30,32,-1,-3,-6,0,
scooby_max_actions 15
scooby_pt_size 256
scooby_st_size 64
scooby_max_pcs 5
scooby_max_offsets 5
scooby_max_deltas 5
scooby_reward_none -4
scooby_reward_incorrect -8
scooby_reward_correct_untimely 12
scooby_reward_correct_timely 20
scooby_brain_zero_init 0
scooby_enable_reward_all 0
scooby_enable_track_multiple 0
scooby_enable_reward_out_of_bounds 1
scooby_reward_out_of_bounds -12
scooby_state_type 1
scooby_state_hash_type 11
scooby_access_debug 0
scooby_print_access_debug 0
scooby_print_access_debug_pc deadbeef
scooby_print_access_debug_pc_count 0
scooby_print_trace 0
scooby_enable_state_action_stats 1
scooby_enable_reward_tracker_hit 0
scooby_reward_tracker_hit -2
scooby_enable_featurewise_engine 1
scooby_pref_degree 1
scooby_enable_dyn_degree 1
scooby_max_to_avg_q_thresholds 0.5,1,2,
scooby_dyn_degrees 1,2,4,4,
scooby_multi_deg_select_type 2
scooby_last_pref_offset_conf_thresholds 1,3,8,
scooby_dyn_degrees_type2 1,2,4,6,
scooby_action_tracker_size 2
scooby_high_bw_thresh 4
scooby_enable_hbw_reward 1
scooby_reward_hbw_correct_timely 20
scooby_reward_hbw_correct_untimely 12
scooby_reward_hbw_incorrect -14
scooby_reward_hbw_none -2
scooby_reward_hbw_out_of_bounds -12
scooby_reward_hbw_tracker_hit -2
scooby_last_pref_offset_conf_thresholds_hbw 1,3,8,
scooby_dyn_degrees_type2_hbw 1,2,4,6,

le_enable_trace 0
le_trace_interval 0
le_trace_file_name 
le_trace_state 0
le_enable_score_plot 0
le_plot_file_name 
le_plot_actions 
le_enable_action_trace 0
le_action_trace_interval 0
le_action_trace_name 
le_enable_action_plot 0

le_featurewise_active_features PC, PC_Delta
le_featurewise_num_tilings 3,3,
le_featurewise_num_tiles 128,128,
le_featurewise_hash_types 2,2,
le_featurewise_enable_tiling_offset 1,1,
le_featurewise_max_q_thresh 0.5
le_featurewise_enable_action_fallback 1
le_featurewise_feature_weights 1,1,
le_featurewise_enable_dynamic_weight 0
le_featurewise_weight_gradient 0.001
le_featurewise_disable_adjust_weight_all_features_align 1
le_featurewise_selective_update 0
le_featurewise_pooling_type 2
le_featurewise_enable_dyn_action_fallback 1
le_featurewise_bw_acc_check_level 1
le_featurewise_acc_thresh 2
le_featurewise_enable_trace 0
le_featurewise_trace_feature_type 0
le_featurewise_trace_feature 
le_featurewise_trace_interval 0
le_featurewise_trace_record_count 0
le_featurewise_trace_file_name 
le_featurewise_enable_score_plot 0
le_featurewise_plot_actions 
le_featurewise_plot_file_name 


Heartbeat CPU  0 instructions:    1000001 cycles:     406311 heartbeat IPC: 2.46117 cumulative IPC: 2.46117 (Simulation time: 0 hr 0 min 1 sec) 
Heartbeat CPU  0 instructions:    2000001 cycles:     807667 heartbeat IPC: 2.49155 cumulative IPC: 2.47627 (Simulation time: 0 hr 0 min 3 sec) 
Heartbeat CPU  0 instructions:    3000003 cycles:    1209025 heartbeat IPC: 2.49155 cumulative IPC: 2.48134 (Simulation time: 0 hr 0 min 5 sec) 
Heartbeat CPU  0 instructions:    4000000 cycles:    1610385 heartbeat IPC: 2.49152 cumulative IPC: 2.48388 (Simulation time: 0 hr 0 min 6 sec) 
Heartbeat CPU  0 instructions:    5000001 cycles:    2011779 heartbeat IPC: 2.49132 cumulative IPC: 2.48536 (Simulation time: 0 hr 0 min 8 sec) 
Heartbeat CPU  0 instructions:    6000002 cycles:    2413136 heartbeat IPC: 2.49155 cumulative IPC: 2.48639 (Simulation time: 0 hr 0 min 10 sec) 
Heartbeat CPU  0 instructions:    7000002 cycles:    2814494 heartbeat IPC: 2.49154 cumulative IPC: 2.48713 (Simulation time: 0 hr 0 min 12 sec) 
Heartbeat CPU  0 instructions:    8000000 cycles:    3215852 heartbeat IPC: 2.49154 cumulative IPC: 2.48768 (Simulation time: 0 hr 0 min 13 sec) 
Heartbeat CPU  0 instructions:    9000001 cycles:    3617249 heartbeat IPC: 2.49130 cumulative IPC: 2.48808 (Simulation time: 0 hr 0 min 15 sec) 
Heartbeat CPU  0 instructions:   10000001 cycles:    4018605 heartbeat IPC: 2.49155 cumulative IPC: 2.48843 (Simulation time: 0 hr 0 min 17 sec) 

Warmup complete CPU  0 instructions:   10000001 cycles:    4018605 (Simulation time: 0 hr 0 min 17 sec) 

Heartbeat CPU  0 instructions:   11000002 cycles:    4947611 heartbeat IPC: 1.07642 cumulative IPC: 1.07642 (Simulation time: 0 hr 0 min 19 sec) 
Heartbeat CPU  0 instructions:   12000000 cycles:   16780265 heartbeat IPC: 0.08451 cumulative IPC: 0.15672 (Simulation time: 0 hr 0 min 25 sec) 
Heartbeat CPU  0 instructions:   13000000 cycles:   39883735 heartbeat IPC: 0.04328 cumulative IPC: 0.08365 (Simulation time: 0 hr 0 min 36 sec) 
Heartbeat CPU  0 instructions:   14000002 cycles:   62804247 heartbeat IPC: 0.04363 cumulative IPC: 0.06804 (Simulation time: 0 hr 0 min 46 sec) 
Heartbeat CPU  0 instructions:   15000000 cycles:   85808050 heartbeat IPC: 0.04347 cumulative IPC: 0.06113 (Simulation time: 0 hr 0 min 57 sec) 
Heartbeat CPU  0 instructions:   16000000 cycles:  108671178 heartbeat IPC: 0.04374 cumulative IPC: 0.05733 (Simulation time: 0 hr 1 min 7 sec) 
Heartbeat CPU  0 instructions:   17000003 cycles:  131829385 heartbeat IPC: 0.04318 cumulative IPC: 0.05477 (Simulation time: 0 hr 1 min 18 sec) 
Heartbeat CPU  0 instructions:   18000001 cycles:  154745736 heartbeat IPC: 0.04364 cumulative IPC: 0.05308 (Simulation time: 0 hr 1 min 28 sec) 
Heartbeat CPU  0 instructions:   19000002 cycles:  177972461 heartbeat IPC: 0.04305 cumulative IPC: 0.05174 (Simulation time: 0 hr 1 min 39 sec) 
Heartbeat CPU  0 instructions:   20000000 cycles:  200595791 heartbeat IPC: 0.04420 cumulative IPC: 0.05087 (Simulation time: 0 hr 1 min 49 sec) 
Heartbeat CPU  0 instructions:   21000001 cycles:  223757108 heartbeat IPC: 0.04318 cumulative IPC: 0.05006 (Simulation time: 0 hr 2 min 0 sec) 
Heartbeat CPU  0 instructions:   22000003 cycles:  246730267 heartbeat IPC: 0.04353 cumulative IPC: 0.04944 (Simulation time: 0 hr 2 min 10 sec) 
Heartbeat CPU  0 instructions:   23000000 cycles:  269225419 heartbeat IPC: 0.04445 cumulative IPC: 0.04902 (Simulation time: 0 hr 2 min 21 sec) 
Heartbeat CPU  0 instructions:   24000000 cycles:  291442482 heartbeat IPC: 0.04501 cumulative IPC: 0.04871 (Simulation time: 0 hr 2 min 31 sec) 
Heartbeat CPU  0 instructions:   25000003 cycles:  313676269 heartbeat IPC: 0.04498 cumulative IPC: 0.04844 (Simulation time: 0 hr 2 min 41 sec) 
Heartbeat CPU  0 instructions:   26000002 cycles:  336039433 heartbeat IPC: 0.04472 cumulative IPC: 0.04819 (Simulation time: 0 hr 2 min 52 sec) 
Heartbeat CPU  0 instructions:   27000002 cycles:  357435227 heartbeat IPC: 0.04674 cumulative IPC: 0.04810 (Simulation time: 0 hr 3 min 2 sec) 
Heartbeat CPU  0 instructions:   28000000 cycles:  378458349 heartbeat IPC: 0.04757 cumulative IPC: 0.04807 (Simulation time: 0 hr 3 min 12 sec) 
Heartbeat CPU  0 instructions:   29000000 cycles:  401272638 heartbeat IPC: 0.04383 cumulative IPC: 0.04783 (Simulation time: 0 hr 3 min 22 sec) 
Heartbeat CPU  0 instructions:   30000000 cycles:  424531853 heartbeat IPC: 0.04299 cumulative IPC: 0.04756 (Simulation time: 0 hr 3 min 33 sec) 
Heartbeat CPU  0 instructions:   31000002 cycles:  447863989 heartbeat IPC: 0.04286 cumulative IPC: 0.04731 (Simulation time: 0 hr 3 min 43 sec) 
Heartbeat CPU  0 instructions:   32000000 cycles:  470809892 heartbeat IPC: 0.04358 cumulative IPC: 0.04713 (Simulation time: 0 hr 3 min 54 sec) 
Heartbeat CPU  0 instructions:   33000000 cycles:  494194810 heartbeat IPC: 0.04276 cumulative IPC: 0.04692 (Simulation time: 0 hr 4 min 5 sec) 
Heartbeat CPU  0 instructions:   34000003 cycles:  517085727 heartbeat IPC: 0.04369 cumulative IPC: 0.04678 (Simulation time: 0 hr 4 min 15 sec) 
Heartbeat CPU  0 instructions:   35000002 cycles:  538549746 heartbeat IPC: 0.04659 cumulative IPC: 0.04677 (Simulation time: 0 hr 4 min 25 sec) 
Heartbeat CPU  0 instructions:   36000000 cycles:  561420644 heartbeat IPC: 0.04372 cumulative IPC: 0.04664 (Simulation time: 0 hr 4 min 36 sec) 
Heartbeat CPU  0 instructions:   37000001 cycles:  584637576 heartbeat IPC: 0.04307 cumulative IPC: 0.04650 (Simulation time: 0 hr 4 min 46 sec) 
Heartbeat CPU  0 instructions:   38000002 cycles:  607071336 heartbeat IPC: 0.04458 cumulative IPC: 0.04643 (Simulation time: 0 hr 4 min 57 sec) 
Heartbeat CPU  0 instructions:   39000000 cycles:  629917719 heartbeat IPC: 0.04377 cumulative IPC: 0.04633 (Simulation time: 0 hr 5 min 7 sec) 
Heartbeat CPU  0 instructions:   40000000 cycles:  652395245 heartbeat IPC: 0.04449 cumulative IPC: 0.04627 (Simulation time: 0 hr 5 min 18 sec) 
Heartbeat CPU  0 instructions:   41000003 cycles:  675483140 heartbeat IPC: 0.04331 cumulative IPC: 0.04617 (Simulation time: 0 hr 5 min 28 sec) 
Heartbeat CPU  0 instructions:   42000001 cycles:  697897507 heartbeat IPC: 0.04461 cumulative IPC: 0.04612 (Simulation time: 0 hr 5 min 39 sec) 
Heartbeat CPU  0 instructions:   43000003 cycles:  720976692 heartbeat IPC: 0.04333 cumulative IPC: 0.04603 (Simulation time: 0 hr 5 min 49 sec) 
Heartbeat CPU  0 instructions:   44000000 cycles:  744067517 heartbeat IPC: 0.04331 cumulative IPC: 0.04594 (Simulation time: 0 hr 6 min 0 sec) 
Heartbeat CPU  0 instructions:   45000000 cycles:  767185175 heartbeat IPC: 0.04326 cumulative IPC: 0.04586 (Simulation time: 0 hr 6 min 10 sec) 
Heartbeat CPU  0 instructions:   46000001 cycles:  788469169 heartbeat IPC: 0.04698 cumulative IPC: 0.04589 (Simulation time: 0 hr 6 min 20 sec) 
Heartbeat CPU  0 instructions:   47000000 cycles:  811433563 heartbeat IPC: 0.04355 cumulative IPC: 0.04583 (Simulation time: 0 hr 6 min 31 sec) 
Heartbeat CPU  0 instructions:   48000000 cycles:  834664610 heartbeat IPC: 0.04305 cumulative IPC: 0.04575 (Simulation time: 0 hr 6 min 42 sec) 
Heartbeat CPU  0 instructions:   49000000 cycles:  856025979 heartbeat IPC: 0.04681 cumulative IPC: 0.04577 (Simulation time: 0 hr 6 min 52 sec) 
Heartbeat CPU  0 instructions:   50000002 cycles:  879046968 heartbeat IPC: 0.04344 cumulative IPC: 0.04571 (Simulation time: 0 hr 7 min 2 sec) 
Heartbeat CPU  0 instructions:   51000003 cycles:  901814269 heartbeat IPC: 0.04392 cumulative IPC: 0.04567 (Simulation time: 0 hr 7 min 13 sec) 
Heartbeat CPU  0 instructions:   52000000 cycles:  924533153 heartbeat IPC: 0.04402 cumulative IPC: 0.04563 (Simulation time: 0 hr 7 min 23 sec) 
Heartbeat CPU  0 instructions:   53000001 cycles:  947130999 heartbeat IPC: 0.04425 cumulative IPC: 0.04559 (Simulation time: 0 hr 7 min 33 sec) 
Heartbeat CPU  0 instructions:   54000003 cycles:  969389267 heartbeat IPC: 0.04493 cumulative IPC: 0.04558 (Simulation time: 0 hr 7 min 44 sec) 
Heartbeat CPU  0 instructions:   55000002 cycles:  992506909 heartbeat IPC: 0.04326 cumulative IPC: 0.04552 (Simulation time: 0 hr 7 min 54 sec) 
Heartbeat CPU  0 instructions:   56000000 cycles: 1013892902 heartbeat IPC: 0.04676 cumulative IPC: 0.04555 (Simulation time: 0 hr 8 min 4 sec) 
Heartbeat CPU  0 instructions:   57000000 cycles: 1031360192 heartbeat IPC: 0.05725 cumulative IPC: 0.04575 (Simulation time: 0 hr 8 min 13 sec) 
Heartbeat CPU  0 instructions:   58000000 cycles: 1054580180 heartbeat IPC: 0.04307 cumulative IPC: 0.04569 (Simulation time: 0 hr 8 min 24 sec) 
Heartbeat CPU  0 instructions:   59000000 cycles: 1077216311 heartbeat IPC: 0.04418 cumulative IPC: 0.04566 (Simulation time: 0 hr 8 min 34 sec) 
Heartbeat CPU  0 instructions:   60000000 cycles: 1099814965 heartbeat IPC: 0.04425 cumulative IPC: 0.04563 (Simulation time: 0 hr 8 min 45 sec) 
Finished CPU 0 instructions: 50000003 cycles: 1095796417 cumulative IPC: 0.04563 (Simulation time: 0 hr 8 min 45 sec) 

ChampSim completed all CPUs

[ROI Statistics]
Core_0_instructions 50000003
Core_0_cycles 1095796417
Core_0_IPC 0.04563

Core_0_branch_prediction_accuracy 96.83947
Core_0_branch_MPKI 5.93774
Core_0_average_ROB_occupancy_at_mispredict 134.47868

Core_0_L1D_total_access 16353987
Core_0_L1D_total_hit 7388387
Core_0_L1D_total_miss 8965600
Core_0_L1D_loads 15759908
Core_0_L1D_load_hit 6803042
Core_0_L1D_load_miss 8956866
Core_0_L1D_RFOs 594079
Core_0_L1D_RFO_hit 585345
Core_0_L1D_RFO_miss 8734
Core_0_L1D_prefetches 0
Core_0_L1D_prefetch_hit 0
Core_0_L1D_prefetch_miss 0
Core_0_L1D_writebacks 0
Core_0_L1D_writeback_hit 0
Core_0_L1D_writeback_miss 0
Core_0_L1D_prefetch_requested 0
Core_0_L1D_prefetch_dropped 0
Core_0_L1D_prefetch_issued 0
Core_0_L1D_prefetch_filled 0
Core_0_L1D_prefetch_useful 0
Core_0_L1D_prefetch_useless 0
Core_0_L1D_prefetch_late 0
Core_0_L1D_average_miss_latency 103.66138

Core_0_L1D_rq_access 19502924
Core_0_L1D_rq_forward 0
Core_0_L1D_rq_merged 3222713
Core_0_L1D_rq_to_cache 16280211
Core_0_L1D_rq_full 0

Core_0_L1D_wq_access 715742
Core_0_L1D_wq_forward 0
Core_0_L1D_wq_merged 0
Core_0_L1D_wq_to_cache 715742
Core_0_L1D_wq_full 0

Core_0_L1D_pq_access 0
Core_0_L1D_pq_forward 0
Core_0_L1D_pq_merged 0
Core_0_L1D_pq_to_cache 0
Core_0_L1D_pq_full 0

Core_0_L1D_acc_epochs 1073010
Core_0_L1D_acc_level_0 1073010
Core_0_L1D_acc_level_1 0
Core_0_L1D_acc_level_2 0
Core_0_L1D_acc_level_3 0
Core_0_L1D_acc_level_4 0
Core_0_L1D_acc_level_5 0
Core_0_L1D_acc_level_6 0
Core_0_L1D_acc_level_7 0
Core_0_L1D_acc_level_8 0
Core_0_L1D_acc_level_9 0

Core_0_L1I_total_access 9485518
Core_0_L1I_total_hit 9485516
Core_0_L1I_total_miss 2
Core_0_L1I_loads 9485518
Core_0_L1I_load_hit 9485516
Core_0_L1I_load_miss 2
Core_0_L1I_RFOs 0
Core_0_L1I_RFO_hit 0
Core_0_L1I_RFO_miss 0
Core_0_L1I_prefetches 0
Core_0_L1I_prefetch_hit 0
Core_0_L1I_prefetch_miss 0
Core_0_L1I_writebacks 0
Core_0_L1I_writeback_hit 0
Core_0_L1I_writeback_miss 0
Core_0_L1I_prefetch_requested 0
Core_0_L1I_prefetch_dropped 0
Core_0_L1I_prefetch_issued 0
Core_0_L1I_prefetch_filled 0
Core_0_L1I_prefetch_useful 0
Core_0_L1I_prefetch_useless 0
Core_0_L1I_prefetch_late 0
Core_0_L1I_average_miss_latency 402.50000

Core_0_L1I_rq_access 49999781
Core_0_L1I_rq_forward 0
Core_0_L1I_rq_merged 40514261
Core_0_L1I_rq_to_cache 9485520
Core_0_L1I_rq_full 0

Core_0_L1I_wq_access 0
Core_0_L1I_wq_forward 0
Core_0_L1I_wq_merged 0
Core_0_L1I_wq_to_cache 0
Core_0_L1I_wq_full 0

Core_0_L1I_pq_access 0
Core_0_L1I_pq_forward 0
Core_0_L1I_pq_merged 0
Core_0_L1I_pq_to_cache 0
Core_0_L1I_pq_full 0

Core_0_L1I_acc_epochs 1073010
Core_0_L1I_acc_level_0 1073010
Core_0_L1I_acc_level_1 0
Core_0_L1I_acc_level_2 0
Core_0_L1I_acc_level_3 0
Core_0_L1I_acc_level_4 0
Core_0_L1I_acc_level_5 0
Core_0_L1I_acc_level_6 0
Core_0_L1I_acc_level_7 0
Core_0_L1I_acc_level_8 0
Core_0_L1I_acc_level_9 0

Core_0_L2C_total_access 20346786
Core_0_L2C_total_hit 4773399
Core_0_L2C_total_miss 15573387
Core_0_L2C_loads 8956868
Core_0_L2C_load_hit 1594116
Core_0_L2C_load_miss 7362752
Core_0_L2C_RFOs 8734
Core_0_L2C_RFO_hit 0
Core_0_L2C_RFO_miss 8734
Core_0_L2C_prefetches 11347950
Core_0_L2C_prefetch_hit 3148231
Core_0_L2C_prefetch_miss 8199719
Core_0_L2C_writebacks 33234
Core_0_L2C_writeback_hit 31052
Core_0_L2C_writeback_miss 2182
Core_0_L2C_prefetch_requested 12799520
Core_0_L2C_prefetch_dropped 0
Core_0_L2C_prefetch_issued 12799520
Core_0_L2C_prefetch_filled 8367842
Core_0_L2C_prefetch_useful 1136241
Core_0_L2C_prefetch_useless 7229698
Core_0_L2C_prefetch_late 107246
Core_0_L2C_average_miss_latency 114.65637

Core_0_L2C_rq_access 8965602
Core_0_L2C_rq_forward 0
Core_0_L2C_rq_merged 0
Core_0_L2C_rq_to_cache 8965602
Core_0_L2C_rq_full 0

Core_0_L2C_wq_access 33234
Core_0_L2C_wq_forward 0
Core_0_L2C_wq_merged 0
Core_0_L2C_wq_to_cache 33234
Core_0_L2C_wq_full 0

Core_0_L2C_pq_access 12799520
Core_0_L2C_pq_forward 0
Core_0_L2C_pq_merged 16978
Core_0_L2C_pq_to_cache 12782542
Core_0_L2C_pq_full 0

Core_0_L2C_acc_epochs 1073010
Core_0_L2C_acc_level_0 594516
Core_0_L2C_acc_level_1 380071
Core_0_L2C_acc_level_2 77412
Core_0_L2C_acc_level_3 11658
Core_0_L2C_acc_level_4 1475
Core_0_L2C_acc_level_5 1312
Core_0_L2C_acc_level_6 987
Core_0_L2C_acc_level_7 287
Core_0_L2C_acc_level_8 164
Core_0_L2C_acc_level_9 5128

Core_0_LLC_total_access 15601560
Core_0_LLC_total_hit 7695314
Core_0_LLC_total_miss 7906246
Core_0_LLC_loads 7255508
Core_0_LLC_load_hit 3833364
Core_0_LLC_load_miss 3422144
Core_0_LLC_RFOs 8734
Core_0_LLC_RFO_hit 0
Core_0_LLC_RFO_miss 8734
Core_0_LLC_prefetches 8306963
Core_0_LLC_prefetch_hit 3846361
Core_0_LLC_prefetch_miss 4460602
Core_0_LLC_writebacks 30355
Core_0_LLC_writeback_hit 15589
Core_0_LLC_writeback_miss 14766
Core_0_LLC_prefetch_requested 0
Core_0_LLC_prefetch_dropped 0
Core_0_LLC_prefetch_issued 0
Core_0_LLC_prefetch_filled 4628727
Core_0_LLC_prefetch_useful 298397
Core_0_LLC_prefetch_useless 4316331
Core_0_LLC_prefetch_late 0
Core_0_LLC_average_miss_latency 167.39559

Core_0_LLC_rq_access 7264242
Core_0_LLC_rq_forward 0
Core_0_LLC_rq_merged 0
Core_0_LLC_rq_to_cache 7264242
Core_0_LLC_rq_full 0

Core_0_LLC_wq_access 30355
Core_0_LLC_wq_forward 0
Core_0_LLC_wq_merged 0
Core_0_LLC_wq_to_cache 30355
Core_0_LLC_wq_full 0

Core_0_LLC_pq_access 8475089
Core_0_LLC_pq_forward 0
Core_0_LLC_pq_merged 0
Core_0_LLC_pq_to_cache 8475089
Core_0_LLC_pq_full 0

Core_0_LLC_acc_epochs 1074039
Core_0_LLC_acc_level_0 756673
Core_0_LLC_acc_level_1 204562
Core_0_LLC_acc_level_2 75802
Core_0_LLC_acc_level_3 21292
Core_0_LLC_acc_level_4 3489
Core_0_LLC_acc_level_5 9872
Core_0_LLC_acc_level_6 1083
Core_0_LLC_acc_level_7 383
Core_0_LLC_acc_level_8 107
Core_0_LLC_acc_level_9 776

Core_0_major_page_fault 0
Core_0_minor_page_fault 12619

scooby_st_lookup 9127558
scooby_st_hit 3463290
scooby_st_evict 5664204
scooby_st_insert 5664268
scooby_st_streaming 0

scooby_predict_called 9127558
scooby_predict_out_of_bounds 158294
scooby_predict_action_1 8276003
scooby_predict_issue_action_1 8273130
scooby_predict_hit_action_1 2873
scooby_predict_out_of_bounds_action_1 125605
scooby_predict_action_3 12180
scooby_predict_issue_action_3 11894
scooby_predict_hit_action_3 286
scooby_predict_out_of_bounds_action_3 1041
scooby_predict_action_4 11095
scooby_predict_issue_action_4 10908
scooby_predict_hit_action_4 187
scooby_predict_out_of_bounds_action_4 1289
scooby_predict_action_5 10491
scooby_predict_issue_action_5 10419
scooby_predict_hit_action_5 72
scooby_predict_out_of_bounds_action_5 1541
scooby_predict_action_10 8620
scooby_predict_issue_action_10 8467
scooby_predict_hit_action_10 153
scooby_predict_out_of_bounds_action_10 2775
scooby_predict_action_11 8296
scooby_predict_issue_action_11 8178
scooby_predict_hit_action_11 118
scooby_predict_out_of_bounds_action_11 2946
scooby_predict_action_12 7638
scooby_predict_issue_action_12 7333
scooby_predict_hit_action_12 305
scooby_predict_out_of_bounds_action_12 3083
scooby_predict_action_22 4567
scooby_predict_issue_action_22 4364
scooby_predict_hit_action_22 203
scooby_predict_out_of_bounds_action_22 4523
scooby_predict_action_23 4178
scooby_predict_issue_action_23 4148
scooby_predict_hit_action_23 30
scooby_predict_out_of_bounds_action_23 4477
scooby_predict_action_30 3213
scooby_predict_issue_action_30 2798
scooby_predict_hit_action_30 415
scooby_predict_out_of_bounds_action_30 5149
scooby_predict_action_32 2595
scooby_predict_issue_action_32 2578
scooby_predict_hit_action_32 17
scooby_predict_out_of_bounds_action_32 5328
scooby_predict_action_-1 10631
scooby_predict_issue_action_-1 10286
scooby_predict_hit_action_-1 345
scooby_predict_out_of_bounds_action_-1 54
scooby_predict_action_-3 10511
scooby_predict_issue_action_-3 10169
scooby_predict_hit_action_-3 342
scooby_predict_out_of_bounds_action_-3 145
scooby_predict_action_-6 10299
scooby_predict_issue_action_-6 9881
scooby_predict_hit_action_-6 418
scooby_predict_out_of_bounds_action_-6 338
scooby_predict_action_0 588947
scooby_predict_issue_action_0 0
scooby_predict_hit_action_0 0
scooby_predict_out_of_bounds_action_0 0
scooby_predict_multi_deg_called 1296921
scooby_predict_predicted 12799520
scooby_predict_multi_deg 4424967
scooby_predict_multi_deg_2 1267561
scooby_predict_multi_deg_3 926048
scooby_predict_multi_deg_4 906067
scooby_predict_multi_deg_5 670324
scooby_predict_multi_deg_6 654967
scooby_predict_multi_deg_7 0
scooby_predict_multi_deg_8 0
scooby_predict_multi_deg_9 0
scooby_predict_multi_deg_10 0
scooby_predict_multi_deg_11 0
scooby_predict_multi_deg_12 0
scooby_predict_multi_deg_13 0
scooby_predict_multi_deg_14 0
scooby_predict_multi_deg_15 0
scooby_predict_multi_deg_16 0

scooby_selected_deg_1 7077632
scooby_selected_deg_2 329194
scooby_selected_deg_3 0
scooby_selected_deg_4 234316
scooby_selected_deg_5 0
scooby_selected_deg_6 733411
scooby_selected_deg_7 0
scooby_selected_deg_8 0
scooby_selected_deg_9 0
scooby_selected_deg_10 0
scooby_selected_deg_11 0
scooby_selected_deg_12 0
scooby_selected_deg_13 0
scooby_selected_deg_14 0
scooby_selected_deg_15 0
scooby_selected_deg_16 0

scooby_state_55f071ae106a|0|0 135734,44,28,33,28,20,31,30,25,19,26,25,22,31,12990,149086,
scooby_state_55f071ae106a|1|0 123952,35,18,27,23,28,16,24,27,19,19,26,18,26,11539,135797,
scooby_state_55f071ae106a|4|0 114747,43,28,27,25,20,24,24,23,11,15,21,18,26,9511,124563,
scooby_state_55f071ae106a|9|0 108867,36,23,22,13,16,15,15,22,21,14,16,20,14,7824,116938,
scooby_state_55f071ae106a|3|0 104548,36,18,19,18,22,16,26,26,9,17,20,19,17,9410,114221,
scooby_state_55f071ae106a|7|0 104083,39,19,18,22,25,27,29,12,24,11,20,20,13,8264,112626,
scooby_state_55f071ae106a|5|0 102911,28,24,28,21,21,22,18,11,12,16,21,20,26,8546,111725,
scooby_state_55f071ae106a|2|0 100534,33,19,19,27,20,20,22,21,21,14,21,15,18,9193,109997,
scooby_state_55f071ae106a|6|0 99672,32,14,17,15,27,15,13,13,17,15,15,29,16,7954,107864,
scooby_state_55f071ae106a|8|0 99814,33,25,23,26,16,16,18,17,16,19,21,14,25,7602,107685,
scooby_state_55f071ae106a|11|0 96100,26,22,18,20,12,20,14,17,13,16,16,13,18,6621,102946,
scooby_state_55f071ae106a|15|0 96200,30,10,22,20,13,19,20,12,13,21,23,22,15,5700,102140,
scooby_state_55f071ae106a|14|0 94815,30,21,28,16,12,13,15,11,17,26,19,23,24,6154,101224,
scooby_state_55f071ae106a|16|0 95192,21,15,11,21,17,16,14,18,14,18,24,19,23,5688,101111,
scooby_state_55f071ae106a|10|0 92179,31,17,21,14,8,20,10,17,15,16,13,19,16,6413,98809,
scooby_state_55f071ae106a|13|0 91923,29,13,18,12,17,19,20,15,13,15,11,26,21,6250,98402,
scooby_state_55f071ae106a|12|0 91331,14,19,15,18,15,27,10,17,14,14,20,15,18,6144,97691,
scooby_state_55f071ae106a|20|0 91024,35,14,18,15,12,23,10,23,24,18,26,17,18,5287,96564,
scooby_state_55f071ae106a|23|0 90443,16,20,13,19,15,16,20,15,14,10,22,15,17,4933,95588,
scooby_state_55f071ae106a|22|0 89791,21,20,24,14,15,10,20,14,21,21,20,17,14,4847,94869,
scooby_state_55f071ae106a|38|0 89111,34,16,11,25,17,15,10,14,6,11,11,16,13,3900,93210,
scooby_state_55f071ae106a|28|0 87152,30,23,21,13,14,11,13,24,16,17,16,21,19,4445,91835,
scooby_state_55f071ae106a|21|0 85975,17,17,19,10,18,19,22,13,11,18,20,16,13,4649,90837,
scooby_state_55f071ae106a|25|0 84691,32,23,20,17,18,14,21,15,14,19,14,13,23,4505,89439,
scooby_state_55f071ae106a|19|0 84379,25,22,20,18,20,9,7,14,17,13,18,14,20,4792,89388,
scooby_state_55f071ae106a|17|0 82818,19,19,17,7,16,11,12,19,16,12,13,18,9,5025,88031,
scooby_state_55f071ae106a|18|0 82925,17,12,18,17,13,18,18,16,16,9,16,8,17,4738,87858,
scooby_state_55f071ae106a|30|0 83278,17,13,15,18,18,10,23,18,16,18,15,11,10,4065,87545,
scooby_state_55f071ae106a|34|0 82988,20,15,15,18,20,16,16,19,16,17,11,19,16,3763,86969,
scooby_state_55f071ae106a|27|0 82246,23,21,19,7,10,21,9,11,17,11,20,15,17,4310,86757,
scooby_state_55f071ae106a|26|0 82090,11,16,13,18,18,15,10,17,13,20,27,11,24,4163,86466,
scooby_state_55f071ae106a|24|0 81196,26,13,19,26,15,16,9,24,13,17,15,9,13,4048,85459,
scooby_state_55f071ae106a|47|0 80640,17,12,19,19,13,11,10,15,15,12,17,15,16,3108,83939,
scooby_state_55f071ae106a|35|0 80189,15,18,19,12,11,19,10,17,10,5,21,20,12,3417,83795,
scooby_state_55f071ae106a|42|0 76931,17,21,23,14,16,22,9,8,20,16,14,13,16,3186,80326,
scooby_state_55f071ae106a|29|0 75443,24,12,16,15,16,13,12,16,14,14,13,14,15,3731,79368,
scooby_state_55f071ae106a|59|0 76006,30,7,15,15,11,14,14,15,9,18,14,17,20,2700,78905,
scooby_state_55f071ae106a|44|0 75394,22,10,16,14,15,17,13,9,13,11,19,16,12,3142,78723,
scooby_state_55f071ae106a|41|0 74779,13,15,10,18,15,12,12,10,19,9,15,15,14,3090,78046,
scooby_state_55f071ae106a|32|0 74389,23,19,14,19,7,10,22,13,13,17,12,14,10,3427,78009,
scooby_state_55f071ae106a|40|0 74370,12,17,12,14,14,14,9,13,11,11,18,16,7,3055,77593,
scooby_state_55f071ae106a|62|0 74047,11,9,9,13,11,18,16,18,12,9,14,13,17,2620,76837,
scooby_state_55f071ae106a|33|0 73248,20,9,13,8,13,11,20,12,10,9,10,11,12,3425,76831,
scooby_state_55f071ae106a|49|0 71913,13,13,17,18,12,6,9,11,11,9,9,12,12,2828,74893,
scooby_state_55f071ae106a|54|0 71922,14,15,14,7,20,9,12,10,9,16,13,7,10,2657,74735,
scooby_state_55f071ae106a|39|0 71451,17,8,15,10,17,17,13,14,15,11,16,16,10,3081,74711,
scooby_state_55f071ae106a|31|0 71277,17,10,17,19,10,7,11,7,12,8,9,16,7,3224,74651,
scooby_state_55f071ae106a|37|0 70696,19,16,11,13,18,15,9,14,8,12,9,25,15,3192,74072,
scooby_state_55f071ae106a|57|0 71014,16,14,7,19,19,13,11,9,13,12,10,17,11,2650,73835,
scooby_state_55f071ae106a|43|0 70370,20,16,21,17,14,13,6,9,10,19,9,12,15,2887,73438,
scooby_state_55f071ae106a|56|0 70659,10,9,7,12,12,16,17,6,14,17,9,11,7,2619,73425,
scooby_state_55f071ae106a|46|0 69881,13,14,12,14,8,20,12,16,14,10,12,9,14,2646,72695,
scooby_state_55f071ae106a|61|0 69975,17,17,9,12,11,10,10,20,14,12,11,15,12,2441,72586,
scooby_state_55f071ae106a|36|0 68719,11,16,8,12,11,18,17,10,6,11,15,12,12,3094,71972,
scooby_state_55f071ae106a|50|0 68718,20,10,10,14,13,17,15,11,15,16,11,26,13,2530,71439,
scooby_state_55f071ae106a|45|0 67271,14,14,15,11,8,14,7,11,21,7,11,15,16,2604,70039,
scooby_state_55f071ae106a|52|0 66720,7,11,8,16,12,16,19,11,7,15,15,14,11,2481,69363,
scooby_state_55f071ae106a|53|0 66716,20,7,9,8,8,10,17,17,9,10,14,10,16,2356,69227,
scooby_state_55f071ae106a|51|0 66355,10,11,14,14,15,11,15,9,8,13,9,13,13,2551,69061,
scooby_state_55f071ae106a|60|0 65293,7,15,8,10,11,14,7,10,9,6,11,12,10,2361,67784,
scooby_state_55f071ae106a|48|0 63732,14,15,10,10,11,13,12,13,10,13,11,15,11,2569,66459,
scooby_state_55f071ae106a|58|0 63750,6,9,7,12,15,15,8,6,11,15,16,12,17,2201,66100,
scooby_state_55f071ae106a|63|0 63396,17,14,11,8,9,8,11,15,13,14,13,10,12,2340,65891,
scooby_state_55f071ae106a|55|0 62356,13,11,16,9,10,20,13,11,13,8,12,10,10,2332,64844,
scooby_state_55f071ae1060|21|1 8453,2,4,2,3,3,2,0,0,2,1,0,2,1,0,8475,
scooby_state_55f071ae1060|27|1 8458,2,1,0,3,4,0,1,0,1,2,1,0,1,1,8475,
scooby_state_55f071ae1060|12|1 8453,0,2,0,3,3,1,0,2,2,2,2,1,3,1,8475,
scooby_state_55f071ae1060|24|1 8458,2,0,1,2,1,2,1,1,0,2,3,1,1,0,8475,
scooby_state_55f071ae1060|22|1 8459,3,1,0,3,3,0,0,0,3,1,0,2,0,0,8475,
scooby_state_55f071ae1060|9|1 8460,1,1,1,3,3,3,0,0,3,0,0,0,0,0,8475,
scooby_state_55f071ae1060|11|1 8457,1,0,0,3,2,3,1,1,2,0,0,3,0,2,8475,
scooby_state_55f071ae1060|23|1 8457,3,2,2,3,5,0,0,0,0,2,0,1,0,0,8475,
scooby_state_55f071ae1060|13|1 8452,2,0,1,2,3,2,1,4,1,0,2,3,1,1,8475,
scooby_state_55f071ae1060|4|1 8453,2,1,1,3,6,2,0,1,2,0,1,0,0,3,8475,
scooby_state_55f071ae1060|2|1 8459,1,2,0,3,5,2,1,0,0,1,1,0,0,0,8475,
scooby_state_55f071ae1060|17|1 8457,1,2,1,2,5,2,2,0,0,2,1,0,0,0,8475,
scooby_state_55f071ae1060|6|1 8460,1,1,0,3,5,3,1,0,0,0,0,0,1,0,8475,
scooby_state_55f071ae1060|26|1 8464,0,0,0,2,3,0,1,0,0,1,2,1,0,1,8475,
scooby_state_55f071ae1060|5|1 8459,0,2,0,3,6,1,1,0,1,1,1,0,0,0,8475,
scooby_state_55f071ae1060|1|1 8454,0,0,0,5,4,1,0,0,3,1,2,2,2,1,8475,
scooby_state_55f071ae1060|10|1 8461,0,0,2,3,2,0,1,1,0,1,1,0,1,2,8475,
scooby_state_55f071ae1060|18|1 8451,1,1,4,2,3,1,0,4,1,1,1,1,1,3,8475,
scooby_state_55f071ae1060|15|1 8456,0,3,1,3,5,0,1,1,3,1,1,0,0,0,8475,
scooby_state_55f071ae1060|8|1 8454,0,1,1,5,5,2,2,0,1,1,1,0,2,0,8475,
scooby_state_55f071ae1060|20|1 8457,1,0,0,2,3,1,2,3,1,0,0,1,3,1,8475,
scooby_state_55f071ae1060|28|1 8452,2,1,1,2,4,1,1,2,1,1,2,1,3,1,8475,
scooby_state_55f071ae1060|0|0 8466,2,1,1,1,0,0,1,1,0,0,0,0,2,0,8475,
scooby_state_55f071ae1060|3|1 8450,2,0,0,4,7,4,1,1,0,1,3,0,1,1,8475,
scooby_state_55f071ae1060|7|1 8456,0,0,0,5,6,0,0,1,1,3,0,1,2,0,8475,
scooby_state_55f071ae1060|29|1 8438,1,2,3,4,4,3,3,2,2,4,2,3,2,2,8475,
scooby_state_55f071ae1060|16|1 8451,1,0,1,4,5,1,2,1,1,2,2,0,3,1,8475,
scooby_state_55f071ae1060|25|1 8460,1,1,0,3,3,2,1,0,1,1,2,0,0,0,8475,
scooby_state_55f071ae1060|19|1 8455,1,1,0,4,2,1,0,2,0,4,1,2,1,1,8475,
scooby_state_55f071ae1060|14|1 8453,1,1,1,4,3,0,0,0,1,2,5,1,3,0,8475,
scooby_state_55f071ae1060|30|1 8456,0,2,3,3,3,3,0,0,1,2,1,0,0,1,8475,
scooby_state_55f071ae1060|35|1 8442,2,1,2,4,4,3,5,0,2,0,2,2,0,5,8474,
scooby_state_55f071ae1060|54|1 8456,0,2,0,3,3,3,1,0,2,1,0,1,0,2,8474,
scooby_state_55f071ae1060|45|1 8446,2,0,2,3,4,5,1,3,0,3,1,2,2,0,8474,
scooby_state_55f071ae1060|60|1 8448,0,0,0,3,4,1,2,2,4,2,2,4,1,1,8474,
scooby_state_55f071ae1060|31|1 8450,3,1,0,2,4,2,3,0,1,3,2,2,1,0,8474,
scooby_state_55f071ae1060|42|1 8452,1,0,0,4,5,2,2,1,3,1,1,1,1,0,8474,
scooby_state_55f071ae1060|52|1 8453,1,1,1,4,3,1,2,0,2,1,0,0,2,3,8474,
scooby_state_55f071ae1060|39|1 8453,2,0,0,3,3,2,0,1,2,2,0,1,1,4,8474,
scooby_state_55f071ae1060|62|1 8454,2,0,0,4,6,1,0,2,0,1,0,2,1,1,8474,
scooby_state_55f071ae1060|40|1 8453,1,2,2,2,5,2,0,0,0,0,3,2,1,1,8474,
scooby_state_55f071ae1060|51|1 8452,3,1,2,4,3,1,3,0,0,0,0,2,1,2,8474,
scooby_state_55f071ae1060|57|1 8443,0,1,2,3,5,4,1,0,0,3,2,2,2,6,8474,
scooby_state_55f071ae1060|63|1 8456,0,1,0,2,5,1,2,0,0,1,1,3,1,1,8474,
scooby_state_55f071ae1060|44|1 8457,0,1,1,4,3,2,0,1,1,2,0,2,0,0,8474,
scooby_state_55f071ae1060|33|1 8451,1,2,2,2,5,1,3,2,2,1,1,1,0,0,8474,
scooby_state_55f071ae1060|55|1 8453,3,1,1,2,3,1,1,1,4,2,2,0,0,0,8474,
scooby_state_55f071ae1060|61|1 8457,0,1,0,3,6,1,3,0,1,0,2,0,0,0,8474,
scooby_state_55f071ae1060|36|1 8456,0,2,0,2,4,3,1,1,1,0,0,2,1,1,8474,
scooby_state_55f071ae1060|59|1 8451,1,1,1,3,6,2,0,1,1,1,2,1,3,0,8474,
scooby_state_55f071ae1060|56|1 8455,0,1,1,3,3,4,3,0,0,0,1,0,2,1,8474,
scooby_state_55f071ae1060|53|1 8459,1,1,1,2,4,2,1,1,0,0,1,0,0,1,8474,
scooby_state_55f071ae1060|37|1 8455,0,1,1,2,5,1,3,0,2,0,0,0,3,1,8474,
scooby_state_55f071ae1060|34|1 8460,1,1,0,3,3,1,1,0,2,0,0,0,2,0,8474,
scooby_state_55f071ae1060|43|1 8449,0,2,1,4,4,4,3,1,2,0,1,0,0,3,8474,
scooby_state_55f071ae1060|41|1 8457,1,0,2,5,4,3,1,1,0,0,0,0,0,0,8474,
scooby_state_55f071ae1060|46|1 8459,0,1,0,3,3,3,1,0,2,1,0,1,0,0,8474,
scooby_state_55f071ae1060|32|1 8459,1,1,1,2,3,2,0,1,0,0,2,0,1,1,8474,
scooby_state_55f071ae1060|48|1 8454,2,0,0,2,6,1,1,1,0,1,1,0,0,5,8474,
scooby_state_55f071ae1060|38|1 8448,1,2,2,4,5,2,2,0,0,4,1,0,1,2,8474,
scooby_state_55f071ae1060|50|1 8454,1,0,0,3,4,3,0,0,0,0,2,3,2,2,8474,
scooby_state_55f071ae1060|47|1 8455,2,0,0,3,4,2,1,2,1,2,0,1,0,1,8474,
scooby_state_55f071ae1060|49|1 8454,0,0,1,3,3,1,3,2,2,2,1,1,1,0,8474,
scooby_state_55f071ae1060|58|1 8453,1,0,2,2,5,3,1,2,2,1,0,0,0,2,8474,
scooby_state_55f071ae106a|62|1 3886,17,6,7,11,13,8,9,5,3,5,6,6,5,687,4674,
scooby_state_55f071ae106a|23|1 3939,10,6,8,15,7,6,9,7,5,2,2,3,9,541,4569,
scooby_state_55f071ae106a|38|1 3890,7,12,11,14,12,11,4,9,3,5,9,8,7,560,4562,
scooby_state_55f071ae106a|21|1 3821,11,12,16,9,11,6,7,3,3,2,9,6,8,583,4507,
scooby_state_55f071ae106a|39|1 3795,8,11,7,17,8,12,4,11,6,6,5,4,5,605,4504,
scooby_state_55f071ae106a|28|1 3763,8,10,13,10,8,11,8,9,5,2,6,4,4,582,4443,
scooby_state_55f071ae106a|3|1 3674,11,7,9,8,12,9,1,7,4,6,2,2,5,617,4374,
scooby_state_55f071ae106a|1|1 3679,8,9,14,7,8,11,7,6,3,4,9,6,7,594,4372,
scooby_state_55f071ae106a|24|1 3729,4,3,5,9,10,9,11,4,8,5,2,6,7,558,4370,
scooby_state_55f071ae106a|5|1 3701,12,13,8,11,6,6,2,6,9,6,6,5,6,568,4365,
scooby_state_55f071ae106a|20|1 3783,6,9,13,9,3,9,7,4,5,0,8,4,4,496,4360,
scooby_state_55f071ae106a|9|1 3662,6,7,15,13,13,10,6,9,4,6,6,6,7,586,4356,
scooby_state_55f071ae106a|43|1 3676,11,9,8,12,8,9,7,3,4,3,3,3,8,591,4355,
scooby_state_55f071ae106a|25|1 3707,10,3,11,7,6,9,2,6,5,4,5,6,2,548,4331,
scooby_state_55f071ae106a|42|1 3638,12,12,9,9,8,5,6,3,5,5,5,3,8,572,4300,
scooby_state_55f071ae106a|44|1 3617,7,8,7,10,12,7,7,9,1,6,5,4,5,592,4297,
scooby_state_55f071ae106a|35|1 3650,6,8,8,10,6,4,6,7,2,8,4,5,3,561,4288,
scooby_state_55f071ae106a|16|1 3686,6,8,7,5,8,5,4,4,5,3,3,5,4,527,4280,
scooby_state_55f071ae106a|60|1 3480,10,7,5,11,14,10,10,9,13,8,7,4,7,651,4246,
scooby_state_55f071ae106a|57|1 3489,8,7,6,13,9,2,4,8,1,8,3,5,4,641,4208,
scooby_state_55f071ae106a|36|1 3653,9,6,12,8,8,1,7,3,4,9,3,4,6,473,4206,
scooby_state_55f071ae106a|13|1 3601,9,6,6,8,7,6,5,6,7,0,5,8,8,518,4200,
scooby_state_55f071ae106a|15|1 3550,8,8,7,6,8,6,5,5,5,11,4,5,1,568,4197,
scooby_state_55f071ae106a|49|1 3524,10,4,5,7,19,5,7,6,4,6,6,7,1,564,4175,
scooby_state_55f071ae106a|8|1 3523,8,7,12,12,11,11,8,4,5,6,3,7,6,548,4171,
scooby_state_55f071ae106a|2|1 3541,3,7,8,12,6,5,5,2,6,1,2,4,6,561,4169,
scooby_state_55f071ae106a|14|1 3584,6,8,11,6,9,7,3,3,3,3,6,6,6,493,4154,
scooby_state_55f071ae106a|47|1 3514,10,5,9,9,14,7,4,3,6,4,5,3,5,551,4149,
scooby_state_55f071ae106a|4|1 3536,13,9,17,8,4,5,6,5,5,3,3,3,7,517,4141,
scooby_state_55f071ae106a|50|1 3414,14,8,14,13,15,10,4,6,5,3,6,7,4,617,4140,
scooby_state_55f071ae106a|48|1 3456,9,14,8,10,7,11,6,6,8,4,1,7,7,579,4133,
scooby_state_55f071ae106a|29|1 3517,12,6,5,6,5,10,5,7,3,5,5,2,8,535,4131,
scooby_state_55f071ae106a|54|1 3410,12,4,7,11,4,6,7,10,5,3,7,5,5,631,4127,
scooby_state_55f071ae106a|10|1 3450,4,16,7,9,2,13,7,4,2,3,8,10,4,542,4081,
scooby_state_55f071ae106a|52|1 3396,11,8,8,6,14,5,6,5,3,5,4,5,4,590,4070,
scooby_state_55f071ae106a|40|1 3480,6,9,9,13,6,6,9,9,1,6,3,7,4,485,4053,
scooby_state_55f071ae106a|61|1 3343,10,12,10,7,12,4,10,2,2,6,5,6,7,592,4028,
scooby_state_55f071ae106a|7|1 3423,5,8,11,14,8,5,6,6,0,4,3,5,2,516,4016,
scooby_state_55f071ae106a|17|1 3486,9,5,8,7,7,2,3,5,2,3,2,5,3,445,3992,
scooby_state_55f071ae106a|16|2 3384,10,11,6,8,3,3,5,11,4,5,6,4,3,525,3988,
scooby_state_55f071ae106a|27|1 3442,7,10,9,10,7,6,4,3,6,4,8,2,3,457,3978,
scooby_state_55f071ae106a|33|1 3408,9,5,10,9,9,6,4,5,1,2,9,9,4,476,3966,
scooby_state_55f071ae106a|51|1 3301,13,13,13,8,7,5,3,5,5,4,8,2,2,576,3965,
scooby_state_55f071ae106a|63|1 3336,13,6,12,6,7,6,6,4,3,2,6,7,9,535,3958,
scooby_state_55f071ae106a|53|1 3276,11,13,5,10,6,8,4,2,4,5,4,4,7,598,3957,
scooby_state_55f071ae106a|46|1 3338,7,8,9,13,5,5,16,3,6,3,7,8,1,504,3933,
scooby_state_55f071ae106a|37|1 3314,8,8,7,10,4,11,2,7,5,4,6,8,11,521,3926,
scooby_state_55f071ae106a|18|1 3373,7,6,8,8,4,2,6,9,3,1,3,8,3,466,3907,
scooby_state_55f071ae106a|56|1 3242,10,8,7,11,7,5,9,4,6,4,4,6,3,575,3901,
scooby_state_55f071ae106a|55|1 3236,9,4,7,17,4,16,4,9,1,5,9,5,5,568,3899,
scooby_state_55f071ae106a|34|1 3266,2,10,7,9,9,7,5,4,4,5,4,5,6,544,3887,
scooby_state_55f071ae106a|26|1 3321,8,6,5,10,11,5,4,8,5,2,9,7,2,481,3884,
scooby_state_55f071ae106a|41|1 3286,8,7,6,6,7,6,6,6,7,2,8,6,6,509,3876,
scooby_state_55f071ae106a|11|1 3317,3,8,5,11,5,6,3,3,2,6,3,3,3,468,3846,
scooby_state_55f071ae106a|58|1 3141,9,15,4,6,6,13,2,8,4,7,8,6,7,598,3834,
scooby_state_55f071ae106a|32|1 3273,8,5,3,14,2,3,3,5,3,2,6,5,5,492,3829,
scooby_state_55f071ae106a|22|1 3315,3,8,7,6,4,4,3,3,7,3,3,6,6,448,3826,
scooby_state_55f071ae106a|59|1 3135,9,11,11,16,5,14,4,3,5,4,7,5,3,593,3825,
scooby_state_55f071ae106a|12|1 3236,9,13,7,3,5,4,4,2,4,3,3,2,6,479,3780,
scooby_state_55f071ae106a|30|1 3250,8,7,9,5,6,3,9,5,5,4,8,5,2,453,3779,
scooby_state_55f071ae106a|45|1 3194,7,8,8,12,7,11,7,2,7,6,4,7,4,491,3775,
scooby_state_55f071ae106a|25|2 3144,20,4,4,4,4,7,3,3,2,2,6,9,4,542,3758,
scooby_state_55f071ae106a|31|1 3204,6,10,11,7,10,6,1,9,3,5,3,7,7,431,3720,
scooby_state_55f071ae106a|2|2 3073,6,5,4,2,6,5,2,6,2,2,7,7,4,573,3704,
scooby_state_55f071ae106a|19|1 3224,4,10,8,13,3,10,7,7,5,2,8,4,5,392,3702,
scooby_state_55f071ae106a|32|2 3055,15,5,4,7,7,7,10,3,3,1,7,3,6,554,3687,
scooby_state_55f071ae106a|14|2 3085,8,7,5,4,5,2,3,1,1,3,6,2,4,543,3679,
scooby_state_55f071ae106a|6|1 3063,10,10,6,6,8,7,4,5,9,5,3,4,9,506,3655,
scooby_state_55f071ae106a|49|2 3009,16,6,4,5,7,2,6,1,2,5,6,6,4,571,3650,
scooby_state_55f071ae106a|10|2 3045,13,4,4,13,3,4,4,3,6,3,5,2,7,526,3642,
scooby_state_55f071ae106a|23|2 3051,8,4,5,5,4,9,3,2,4,5,11,3,2,521,3637,
scooby_state_55f071ae106a|56|2 2948,14,10,5,9,7,6,4,4,1,4,13,2,6,603,3636,
scooby_state_55f071ae106a|6|2 3037,5,6,10,1,5,7,7,5,4,1,1,5,2,532,3628,
scooby_state_55f071ae106a|5|5 3022,6,5,10,7,5,7,5,5,2,2,3,4,10,523,3616,
scooby_state_55f071ae106a|28|2 2972,17,4,5,4,2,7,4,3,6,2,10,6,6,537,3585,
scooby_state_55f071ae106a|50|3 2894,5,11,6,7,9,7,4,2,4,4,5,2,9,611,3580,
scooby_state_55f071ae106a|18|2 3007,6,5,11,5,6,5,3,2,0,3,11,7,4,488,3563,
scooby_state_55f071ae106a|20|2 2967,10,5,5,6,5,6,5,2,3,5,8,6,5,509,3547,
scooby_state_55f071ae106a|41|2 2940,9,13,3,6,7,3,2,4,1,2,6,1,6,529,3532,
scooby_state_55f071ae106a|59|2 2848,10,7,7,2,8,2,8,2,7,6,5,4,6,610,3532,
scooby_state_55f071ae106a|61|2 2819,15,6,7,5,8,7,4,2,5,4,4,7,5,610,3508,
scooby_state_55f071ae106a|52|2 2852,10,8,5,6,9,8,3,2,2,3,7,4,2,574,3495,
scooby_state_55f071ae106a|62|2 2779,9,9,2,9,6,3,6,3,5,2,6,7,6,639,3491,
scooby_state_55f071ae106a|11|2 2913,10,9,6,5,2,4,2,0,2,2,2,1,3,509,3470,
scooby_state_55f071ae106a|16|3 2857,4,12,3,5,9,5,4,8,6,5,3,5,3,536,3465,
scooby_state_55f071ae106a|26|2 2943,8,1,0,2,6,5,1,5,4,6,9,3,3,459,3455,
scooby_state_55f071ae106a|3|2 2842,20,6,6,7,5,4,6,2,2,2,5,7,3,535,3452,
scooby_state_55f071ae106a|15|2 2898,9,4,4,4,4,5,5,3,4,3,5,7,2,494,3451,
scooby_state_55f071ae106a|38|2 2832,12,6,5,7,4,2,6,7,2,4,11,4,2,545,3449,
scooby_state_55f071ae106a|47|2 2836,9,4,2,10,5,4,2,2,5,1,7,5,5,540,3437,
scooby_state_55f071ae106a|39|2 2851,7,7,6,6,12,4,4,4,1,3,8,5,3,512,3433,
scooby_state_55f071ae106a|13|2 2860,17,8,7,3,4,5,4,6,3,0,3,3,3,505,3431,
scooby_state_55f071ae106a|7|2 2837,13,4,5,4,0,5,0,7,5,1,4,5,5,531,3426,
scooby_state_55f071ae106a|30|2 2823,12,6,4,9,2,5,4,7,4,6,5,7,6,523,3423,
scooby_state_55f071ae106a|23|3 2780,7,9,4,9,7,5,5,6,1,2,3,3,2,578,3421,
scooby_state_55f071ae106a|37|2 2877,8,6,5,8,6,7,1,2,3,4,5,4,1,478,3415,
scooby_state_55f071ae106a|9|2 2816,7,3,3,3,7,6,3,4,4,2,7,2,1,540,3408,
scooby_state_55f071ae106a|24|2 2902,13,2,3,0,4,1,2,1,4,0,5,5,1,463,3406,
scooby_state_55f071ae106a|58|2 2746,16,8,6,7,2,4,3,5,5,1,8,3,9,572,3395,
scooby_state_55f071ae106a|42|2 2780,5,6,6,13,5,4,2,7,3,3,5,4,3,546,3392,
scooby_state_55f071ae106a|35|2 2810,8,3,7,4,5,4,6,4,4,2,4,3,4,484,3352,
scooby_state_55f071ae106a|17|2 2792,7,9,8,8,8,1,2,4,5,2,5,5,5,466,3327,
scooby_state_55f071ae106a|33|2 2798,12,4,3,7,3,1,3,3,2,1,3,5,4,477,3326,
scooby_state_55f071ae106a|4|2 2774,6,8,5,9,6,0,3,3,4,4,2,9,3,488,3324,
scooby_state_55f071ae106a|44|2 2730,14,10,5,4,5,3,5,3,2,6,7,4,3,521,3322,
scooby_state_55f071ae106a|36|2 2808,9,5,7,5,5,4,1,3,4,6,3,0,2,458,3320,
scooby_state_55f071ae106a|54|2 2677,8,6,5,6,5,9,2,5,6,7,11,3,6,558,3314,
scooby_state_55f071ae106a|34|2 2784,8,4,4,6,3,2,4,3,1,6,2,2,3,473,3305,
scooby_state_55f071ae106a|22|2 2743,7,2,2,8,4,2,2,5,4,2,6,3,5,502,3297,
scooby_state_55f071ae1075|46|0 2683,44,46,47,52,42,49,33,31,33,32,41,42,45,77,3297,
scooby_state_55f071ae106a|40|2 2781,10,2,4,5,3,3,4,4,0,2,5,1,7,464,3295,
scooby_state_55f071ae106a|51|2 2699,9,2,6,7,4,4,6,3,5,1,10,3,3,526,3288,
scooby_state_55f071ae106a|63|2 2628,13,7,2,8,1,4,7,4,1,2,5,3,5,594,3284,
scooby_state_55f071ae106a|6|3 2720,4,15,6,8,5,3,5,1,3,3,5,8,5,491,3282,
scooby_state_55f071ae106a|57|3 2626,8,13,6,4,9,8,3,3,2,4,4,6,6,559,3261,
scooby_state_55f071ae106a|46|2 2730,10,2,0,5,4,1,8,0,5,4,8,5,2,454,3238,
scooby_state_55f071ae106a|50|2 2633,10,6,4,8,2,3,7,6,4,2,7,3,4,539,3238,
scooby_state_55f071ae106a|57|2 2592,19,11,7,8,6,3,1,6,3,6,3,2,3,566,3236,
scooby_state_55f071ae106a|43|2 2685,9,11,2,9,4,3,4,2,1,2,7,3,3,479,3224,
scooby_state_55f071ae106a|31|3 2691,4,8,6,7,9,2,3,6,1,1,11,9,3,453,3214,
scooby_state_55f071ae106a|19|2 2696,11,6,5,9,9,3,2,4,1,1,4,1,4,429,3185,
scooby_state_55f071ae106a|59|3 2517,5,11,14,12,6,2,6,6,7,3,1,3,3,580,3176,
scooby_state_55f071ae106a|12|2 2661,14,5,2,6,4,1,2,1,1,1,7,8,5,456,3174,
scooby_state_55f071ae106a|53|2 2633,10,4,6,7,4,5,1,8,3,1,6,6,5,471,3170,
scooby_state_55f071ae106a|26|3 2652,2,13,5,6,15,3,3,3,4,4,7,3,1,446,3167,
scooby_state_55f071ae106a|47|3 2594,6,9,5,8,4,7,6,4,7,7,4,9,2,492,3164,
scooby_state_55f071ae106a|4|4 2607,6,4,4,8,8,4,3,5,4,1,6,9,5,485,3159,
scooby_state_55f071ae106a|29|2 2626,9,8,3,4,8,4,6,2,1,3,3,5,4,470,3156,
scooby_state_55f071ae106a|10|3 2601,8,15,4,6,12,6,2,4,1,2,4,3,5,480,3153,
scooby_state_55f071ae106a|53|3 2603,7,9,10,5,6,3,3,2,9,9,5,5,2,474,3152,
scooby_state_55f071ae106a|41|3 2539,9,13,5,3,7,0,6,6,2,7,5,4,10,531,3147,
scooby_state_55f071ae106a|22|3 2650,9,10,4,5,6,8,8,8,6,2,2,6,6,416,3146,
scooby_state_55f071ae106a|4|3 2531,2,13,9,6,8,4,6,4,4,1,4,6,4,518,3120,
scooby_state_55f071ae106a|27|2 2587,6,2,8,6,1,4,5,5,1,7,6,6,2,466,3112,
scooby_state_55f071ae106a|27|3 2589,7,13,7,4,6,7,6,2,8,5,3,3,10,430,3100,
scooby_state_55f071ae106a|60|2 2463,14,2,10,5,10,3,4,5,3,2,8,2,7,558,3096,
scooby_state_55f071ae106a|8|2 2551,11,7,8,3,2,6,6,5,0,7,9,3,2,471,3091,
scooby_state_55f071ae106a|31|2 2590,14,9,3,3,4,4,2,3,9,4,3,0,4,424,3076,
scooby_state_55f071ae106a|21|2 2619,7,5,3,2,3,7,2,5,1,6,4,2,4,401,3071,
scooby_state_55f071ae106a|45|2 2531,10,6,4,10,6,4,2,5,6,3,4,3,6,428,3028,
scooby_state_55f071ae106a|14|3 2478,8,18,2,7,6,7,7,3,2,7,6,4,2,468,3025,
scooby_state_55f071ae106a|29|3 2569,6,8,3,7,4,5,7,2,2,7,3,7,5,390,3025,
scooby_state_55f071ae106a|24|3 2552,2,7,5,4,3,5,5,3,3,6,6,2,4,403,3010,
scooby_state_55f071ae106a|8|3 2465,4,8,5,4,6,7,5,4,5,3,9,7,5,470,3007,
scooby_state_55f071ae106a|35|3 2574,4,9,6,6,9,4,7,3,2,2,3,5,4,364,3002,
scooby_state_55f071ae106a|9|3 2447,11,10,5,7,10,8,2,5,2,4,3,4,7,476,3001,
scooby_state_55f071ae106a|55|2 2443,7,10,4,7,3,2,1,2,5,2,6,3,2,502,2999,
scooby_state_55f071ae106a|38|3 2463,7,10,4,4,11,6,3,3,5,3,6,6,5,459,2995,
scooby_state_55f071ae106a|25|4 2516,4,6,5,2,6,2,2,8,6,6,8,4,1,413,2989,
scooby_state_55f071ae106a|3|3 2466,3,15,2,6,6,6,2,5,5,8,0,7,3,455,2989,
scooby_state_55f071ae1093|31|0 2488,36,36,36,37,33,35,32,32,36,35,36,35,33,48,2988,
scooby_state_55f071ae106a|55|3 2359,7,7,3,7,6,5,7,3,4,6,6,8,12,529,2969,
scooby_state_55f071ae106a|42|3 2370,4,11,2,5,14,2,6,4,6,5,4,1,3,529,2966,
scooby_state_55f071ae106a|28|3 2459,2,10,4,8,7,1,12,7,6,1,8,2,4,435,2966,
scooby_state_55f071ae106a|62|3 2392,3,6,7,3,3,5,5,8,2,1,4,3,2,514,2958,
scooby_state_55f071ae106a|19|3 2468,3,10,8,2,4,6,4,6,5,2,2,0,7,427,2954,
scooby_state_55f071ae106a|20|3 2444,3,11,8,7,9,9,1,7,4,5,4,5,3,432,2952,
scooby_state_55f071ae106a|13|4 2417,3,10,9,4,3,6,1,4,5,2,5,9,6,450,2934,
scooby_state_55f071ae106a|5|2 2428,8,6,4,5,3,1,1,1,1,6,3,4,5,456,2932,
scooby_state_55f071ae106a|7|3 2384,11,13,7,2,9,8,4,2,5,3,7,3,2,463,2923,
scooby_state_55f071ae106a|25|3 2406,7,6,11,3,8,4,2,5,0,6,3,5,5,448,2919,
scooby_state_55f071ae106a|48|2 2405,5,6,4,7,6,5,6,2,2,0,6,4,1,459,2918,
scooby_state_55f071ae106a|37|4 2413,8,6,6,7,1,4,5,2,4,5,6,8,5,404,2884,
scooby_state_55f071ae106a|54|3 2284,4,12,4,2,9,5,4,5,6,0,6,5,5,509,2860,
scooby_state_55f071ae106a|12|3 2401,12,6,5,7,12,2,4,1,4,4,3,5,7,383,2856,
scooby_state_55f071ae106a|43|3 2341,5,10,6,8,7,5,2,5,5,5,0,7,3,447,2856,
scooby_state_55f071ae106a|34|4 2335,8,7,6,9,7,7,7,9,4,4,2,4,4,428,2841,
scooby_state_55f071ae106a|15|3 2344,6,12,5,5,6,1,4,5,3,4,6,5,8,421,2835,
scooby_state_55f071ae106a|21|5 2385,7,4,8,6,4,0,8,6,4,2,7,5,4,385,2835,
scooby_state_55f071ae106a|46|4 2289,8,6,9,4,7,6,6,4,5,2,9,13,6,456,2830,
scooby_state_55f071ae106a|63|4 2223,7,12,10,5,3,5,9,7,2,5,4,7,7,517,2823,
scooby_state_55f071ae106a|46|3 2304,8,8,6,3,5,9,1,1,2,1,3,2,4,457,2814,
scooby_state_55f071ae106a|20|5 2273,6,3,7,6,10,4,2,1,2,7,5,4,2,475,2807,
scooby_state_55f071ae106a|13|3 2289,6,9,3,7,9,7,2,4,3,4,6,7,4,445,2805,
scooby_state_55f071ae106a|56|4 2264,7,10,8,5,4,5,3,2,3,2,4,5,6,477,2805,
scooby_state_55f071ae106a|38|4 2263,3,9,12,4,5,6,6,5,2,0,5,4,4,470,2798,
scooby_state_55f071ae106a|17|3 2302,8,9,4,2,4,3,4,7,4,3,0,6,6,426,2788,
scooby_state_55f071ae106a|23|4 2283,7,7,7,4,6,11,8,4,4,3,2,3,1,437,2787,
scooby_state_55f071ae106a|32|3 2326,9,13,3,8,9,2,5,3,2,5,2,2,6,391,2786,
scooby_state_55f071ae106a|33|3 2266,8,7,5,4,12,3,4,6,3,5,5,9,6,435,2778,
scooby_state_55f071ae106a|54|4 2203,8,5,7,5,5,8,8,8,2,5,1,5,5,492,2767,
scooby_state_55f071ae106a|40|3 2295,7,12,6,5,6,2,4,6,1,3,3,4,3,400,2757,
scooby_state_55f071ae106a|21|3 2351,4,7,6,5,7,1,4,5,1,4,4,4,4,349,2756,
scooby_state_55f071ae106a|11|3 2245,6,9,6,3,6,4,5,4,2,6,5,3,5,445,2754,
scooby_state_55f071ae106a|49|3 2240,4,11,8,5,6,3,3,8,5,2,4,2,3,449,2753,
scooby_state_55f071ae106a|63|3 2163,6,9,4,7,4,9,5,5,5,5,6,5,9,508,2750,
scooby_state_55f071ae106a|41|6 2421,11,2,5,2,9,8,8,4,6,6,7,4,0,256,2749,
scooby_state_55f071ae106a|52|3 2185,3,6,1,7,8,7,5,1,3,2,5,7,9,497,2746,
scooby_state_55f071ae106a|42|4 2212,6,6,6,2,6,8,7,3,5,5,6,7,5,461,2745,
scooby_state_55f071ae106a|60|3 2165,5,10,9,5,9,7,6,4,3,2,7,3,6,500,2741,
scooby_state_55f071ae106a|39|3 2250,6,4,4,9,3,3,2,9,1,0,5,4,5,429,2734,
scooby_state_55f071ae106a|34|3 2283,3,10,3,6,7,6,2,5,3,2,1,5,4,392,2732,
scooby_state_55f071ae106a|61|3 2171,10,12,6,2,3,5,7,2,8,3,5,8,4,484,2730,
scooby_state_55f071ae106a|61|4 2103,6,10,3,10,4,6,1,4,5,2,1,8,5,537,2705,
scooby_state_55f071ae106a|28|4 2243,3,6,3,1,2,4,4,5,3,4,7,8,4,408,2705,
scooby_state_55f071ae106a|45|3 2202,5,6,6,6,5,8,4,3,2,2,4,2,3,432,2690,
scooby_state_55f071ae106a|47|4 2166,10,7,6,5,4,6,6,4,3,2,3,9,3,455,2689,
scooby_state_55f071ae106a|44|3 2196,2,9,7,3,11,8,2,3,2,4,11,7,2,422,2689,
scooby_state_55f071ae106a|8|4 2209,8,9,9,3,5,6,1,4,5,2,4,6,2,412,2685,
scooby_state_55f071ae106a|30|3 2213,9,8,1,6,5,6,2,5,4,4,6,3,4,405,2681,
scooby_state_55f071ae106a|15|4 2178,3,5,7,5,5,8,4,4,1,11,3,8,4,431,2677,
scooby_state_55f071ae106a|35|5 2220,8,5,6,3,3,2,3,2,3,1,6,2,8,385,2657,
scooby_state_55f071ae106a|38|5 2183,5,4,11,7,4,3,4,2,6,4,8,3,3,396,2643,
scooby_state_55f071ae106a|48|3 2087,7,10,5,7,15,4,3,3,5,1,7,4,5,449,2612,
scooby_state_55f071ae106a|20|4 2143,5,3,10,5,5,5,3,4,2,2,3,6,5,403,2604,
scooby_state_55f071ae106a|5|4 2081,7,2,5,5,4,2,5,3,2,3,6,3,5,464,2597,
scooby_state_55f071ae106a|37|3 2128,5,7,5,8,5,3,3,3,1,3,3,6,3,414,2597,
scooby_state_55f071ae106a|5|3 2123,7,5,4,2,11,5,4,3,5,6,4,1,5,407,2592,
scooby_state_55f071ae106a|18|3 2167,3,8,2,9,6,1,5,3,6,2,3,2,1,363,2581,
scooby_state_55f071ae106a|47|5 2018,7,8,5,5,5,4,3,7,1,2,5,2,4,486,2562,
scooby_state_55f071ae106a|27|4 2068,8,4,4,5,4,12,2,6,1,4,6,8,5,414,2551,
scooby_state_55f071ae106a|59|5 2019,9,8,9,4,4,5,4,2,3,8,5,6,4,450,2540,
scooby_state_55f071ae106a|16|4 2123,6,3,10,9,4,4,4,3,2,2,2,3,3,354,2532,
scooby_state_55f071ae106a|6|4 2116,5,6,3,6,5,3,7,3,1,2,5,4,5,360,2531,
scooby_state_55f071ae106a|35|4 2094,3,7,4,2,3,4,4,1,3,1,4,6,4,390,2530,
scooby_state_55f071ae106a|36|3 2081,9,6,4,3,9,5,4,2,1,2,1,1,3,399,2530,
scooby_state_55f071ae106a|51|4 2000,4,3,8,6,5,6,1,4,1,3,3,8,4,460,2516,
scooby_state_55f071ae106a|11|4 2083,13,3,3,7,5,5,4,3,2,3,5,7,5,367,2515,
scooby_state_55f071ae106a|26|5 2113,6,5,4,4,3,2,5,2,7,1,4,4,6,348,2514,
scooby_state_55f071ae106a|31|4 2095,3,8,2,3,2,7,1,4,4,3,1,5,3,369,2510,
scooby_state_55f071ae106a|35|6 2189,6,4,6,4,7,4,2,2,4,1,7,5,7,262,2510,
scooby_state_55f071ae106a|32|4 2058,7,5,3,5,4,10,5,0,1,2,3,5,5,393,2506,
scooby_state_55f071ae106a|44|6 2027,9,9,7,9,8,9,3,4,2,3,8,9,7,391,2505,
scooby_state_55f071ae106a|56|3 2018,5,7,4,3,8,3,6,1,3,6,3,5,5,424,2501,
scooby_state_55f071ae106a|58|3 1973,4,11,11,3,6,6,4,1,4,5,4,4,2,458,2496,
scooby_state_55f071ae106a|53|4 2005,9,5,7,3,2,8,5,4,2,2,4,12,3,424,2495,
scooby_state_55f071ae106a|61|5 2012,9,5,3,9,6,4,6,2,1,7,4,3,9,414,2494,
scooby_state_55f071ae106a|23|5 2076,8,4,2,7,6,2,3,3,1,2,4,5,4,366,2493,
scooby_state_55f071ae106a|39|4 2041,1,9,6,3,4,5,3,7,1,3,3,4,3,399,2492,
scooby_state_55f071ae106a|19|4 2059,3,2,3,3,2,4,5,4,3,4,4,8,1,383,2488,
scooby_state_55f071ae106a|13|5 2013,10,3,9,5,3,4,4,4,4,1,3,7,2,411,2483,
scooby_state_55f071ae106a|14|4 2038,1,1,8,3,2,8,3,5,3,4,7,1,3,391,2478,
scooby_state_55f071ae106a|59|4 1961,3,5,8,8,3,2,8,3,5,3,9,11,4,445,2478,
scooby_state_55f071ae106a|14|5 1983,2,4,10,4,5,1,6,4,6,0,2,1,1,437,2466,
scooby_state_55f071ae106a|29|4 2025,7,7,6,7,5,1,4,6,10,5,5,4,4,368,2464,
scooby_state_55f071ae106a|7|4 2000,5,5,6,3,2,5,4,2,4,5,5,4,1,411,2462,
scooby_state_55f071ae106a|34|6 2033,9,6,8,4,7,8,3,3,3,5,5,6,4,352,2456,
scooby_state_55f071ae106a|12|4 2010,4,8,5,1,4,8,4,3,2,1,9,8,3,385,2455,
scooby_state_55f071ae106a|54|7 1954,4,5,8,7,3,9,2,4,6,5,10,5,11,420,2453,
scooby_state_55f071ae106a|63|6 1899,12,5,6,10,10,10,3,6,2,6,9,6,4,465,2453,
scooby_state_55f071ae106a|42|5 1987,8,8,7,5,2,6,3,7,1,6,5,4,2,401,2452,
scooby_state_55f071ae106a|22|4 2022,3,6,5,6,8,0,4,2,4,5,7,4,5,361,2442,
scooby_state_55f071ae106a|43|4 1973,8,4,4,5,4,6,5,3,5,1,9,6,4,400,2437,
scooby_state_55f071ae106a|51|3 1952,4,11,3,10,5,3,7,5,4,2,4,2,4,412,2428,
scooby_state_55f071ae106a|36|4 1988,9,6,3,4,5,7,1,2,1,2,5,5,2,387,2427,
scooby_state_55f071ae106a|7|5 1938,4,3,13,6,3,7,5,4,6,7,4,8,3,415,2426,
scooby_state_55f071ae106a|49|4 1921,4,5,9,8,1,4,3,4,2,6,7,10,4,436,2424,
scooby_state_55f071ae106a|28|5 2017,2,7,7,9,1,4,3,6,0,7,6,4,5,344,2422,
scooby_state_55f071ae106a|62|4 1921,7,2,4,6,1,3,4,3,2,0,3,11,5,450,2422,
scooby_state_55f071ae106a|18|4 2019,7,5,7,6,3,2,2,5,3,3,1,4,3,338,2408,
scooby_state_55f071ae106a|33|4 1954,5,5,6,1,5,3,2,4,3,0,2,8,6,404,2408,
scooby_state_55f071ae106a|44|4 1964,8,4,3,2,4,2,3,6,0,4,4,11,4,384,2403,
scooby_state_55f071ae106a|57|5 1892,10,6,7,7,5,3,9,2,3,3,5,3,3,442,2400,
scooby_state_55f071ae106a|9|4 1892,3,7,8,5,4,8,6,6,1,1,3,5,3,443,2395,
scooby_state_55f071ae106a|11|7 1935,10,10,8,5,11,7,5,8,4,5,9,10,13,354,2394,
scooby_state_55f071ae106a|30|4 1941,5,5,2,1,4,4,4,7,4,6,3,5,3,386,2380,
scooby_state_55f071ae106a|48|4 1924,5,0,10,5,7,8,5,5,3,4,5,3,5,388,2377,
scooby_state_55f071ae106a|10|4 1925,5,7,5,5,3,6,4,1,2,2,3,12,5,389,2374,
scooby_state_55f071ae106a|45|7 1950,8,11,4,9,5,4,5,4,8,5,7,4,10,339,2373,
scooby_state_55f071ae106a|39|5 1975,2,2,8,5,3,3,2,3,5,4,1,6,4,349,2372,
scooby_state_55f071ae106a|21|6 2014,8,4,11,5,11,4,4,4,5,4,2,3,7,286,2372,
scooby_state_55f071ae106a|50|4 1943,1,4,5,8,2,11,4,1,1,3,3,7,5,371,2369,
scooby_state_55f071ae106a|24|4 1981,4,4,3,1,3,3,2,3,4,5,1,6,3,346,2369,
scooby_state_55f071ae106a|30|7 1947,3,7,3,9,6,4,3,4,3,4,4,6,13,345,2361,
scooby_state_55f071ae106a|17|4 1964,6,4,3,3,5,5,3,6,2,2,2,5,3,342,2355,
scooby_state_55f071ae106a|26|4 1972,5,2,7,4,0,5,2,3,2,4,5,7,0,337,2355,
scooby_state_55f071ae106a|35|7 1995,6,7,4,5,10,10,3,5,4,4,9,10,5,277,2354,
scooby_state_55f071ae106a|41|4 1922,7,5,9,5,3,6,5,4,1,3,5,8,2,365,2350,
scooby_state_55f071ae106a|11|5 1878,3,4,3,2,1,5,4,3,1,1,3,2,5,433,2348,
scooby_state_55f071ae106a|43|5 1885,7,4,7,7,4,6,2,1,4,5,5,3,4,398,2342,
scooby_state_55f071ae106a|49|5 1889,9,3,7,2,7,8,4,2,2,3,7,4,2,392,2341,
scooby_state_55f071ae106a|30|5 1922,2,6,9,11,7,7,0,5,1,5,7,4,2,353,2341,
scooby_state_55f071ae106a|6|6 1878,4,11,11,6,3,4,4,3,5,5,4,3,9,390,2340,
scooby_state_55f071ae106a|56|7 1871,6,16,9,8,7,1,7,7,6,6,4,8,9,370,2335,
scooby_state_55f071ae106a|52|5 1884,7,5,4,4,4,6,7,0,0,3,5,4,5,385,2323,
scooby_state_55f071ae106a|34|5 1893,7,1,5,8,4,3,2,4,2,2,2,5,6,362,2306,
scooby_state_55f071ae106a|8|7 1868,3,5,11,5,6,10,4,6,7,6,3,4,7,360,2305,
scooby_state_55f071ae106a|40|5 1896,5,11,7,2,3,3,1,4,2,3,4,3,6,348,2298,
scooby_state_55f071ae106a|40|4 1855,1,6,4,2,7,4,4,2,2,2,3,5,4,388,2289,
scooby_state_55f071ae106a|33|5 1877,2,7,5,7,5,4,4,4,1,3,4,1,5,359,2288,
scooby_state_55f071ae106a|49|7 1857,5,13,7,6,5,9,5,4,4,7,7,5,10,344,2288,
scooby_state_55f071ae106a|58|4 1796,8,5,6,5,5,3,3,5,3,4,4,7,8,425,2287,
scooby_state_55f071ae106a|36|6 1850,7,9,6,11,10,9,9,7,6,3,7,10,4,336,2284,
scooby_state_55f071ae106a|14|6 1844,7,7,9,5,12,4,6,8,7,2,6,4,8,354,2283,
scooby_state_55f071ae106a|61|7 1804,10,7,10,3,8,4,5,5,4,7,8,7,10,390,2282,
scooby_state_55f071ae106a|9|5 1860,4,7,4,7,2,4,4,4,2,4,4,2,3,371,2282,
scooby_state_55f071ae106a|46|5 1879,4,6,3,5,1,1,3,2,1,4,4,3,1,364,2281,
scooby_state_55f071ae106a|51|5 1827,3,6,9,1,5,6,4,2,2,3,5,4,1,401,2279,
scooby_state_55f071ae106a|52|4 1795,10,2,4,3,7,4,6,2,5,3,2,6,5,424,2278,
scooby_state_55f071ae106a|12|5 1861,5,5,5,8,8,2,4,2,2,2,4,2,3,364,2277,
scooby_state_55f071ae106a|54|5 1838,6,4,3,4,3,4,0,1,1,1,7,6,2,396,2276,
scooby_state_55f071ae106a|21|4 1882,4,3,4,3,1,4,4,5,3,3,2,3,5,349,2275,
scooby_state_55f071ae106a|55|5 1806,10,10,5,9,9,2,1,5,3,3,4,2,5,397,2271,
scooby_state_55f071ae106a|22|5 1856,5,3,3,2,3,5,1,2,0,4,0,5,1,371,2261,
scooby_state_55f071ae106a|57|4 1774,8,3,9,4,4,4,1,6,7,6,3,9,5,411,2254,
scooby_state_55f071ae106a|7|6 1818,6,13,8,8,7,11,4,7,1,3,7,11,6,343,2253,
scooby_state_55f071ae106a|16|5 1856,1,1,5,4,3,3,1,0,1,3,3,3,8,359,2251,
scooby_state_55f071ae106a|45|4 1841,4,6,5,5,2,2,0,3,1,4,4,6,3,358,2244,
scooby_state_55f071ae106a|15|6 1845,8,11,8,6,9,6,0,2,8,4,2,4,6,322,2241,
scooby_state_55f071ae106a|28|6 1800,9,10,9,6,9,2,3,4,2,4,7,5,6,345,2221,
scooby_state_55f071ae106a|60|4 1729,6,8,2,6,5,4,3,2,3,4,9,4,5,428,2218,
scooby_state_55f071ae106a|12|6 1823,7,5,5,5,7,9,2,6,6,4,3,8,6,321,2217,
scooby_state_55f071ae106a|57|6 1710,10,14,13,5,8,7,6,5,5,4,7,7,6,404,2211,
scooby_state_55f071ae106a|13|12 1860,8,7,8,8,7,6,8,4,9,5,8,6,3,261,2208,
scooby_state_55f071ae106a|11|6 1802,2,14,7,10,10,5,7,4,6,8,7,6,3,314,2205,
scooby_state_55f071ae106a|24|5 1844,5,5,3,5,3,1,3,4,3,2,3,3,1,319,2204,
scooby_state_55f071ae106a|55|6 1746,6,5,20,7,12,7,8,6,2,7,7,10,7,353,2203,
scooby_state_55f071ae106a|22|6 1828,7,1,12,4,9,3,6,8,1,1,1,7,4,311,2203,
scooby_state_55f071ae106a|62|5 1720,7,6,5,3,5,2,1,3,1,0,4,1,7,431,2196,
scooby_state_55f071ae106a|56|6 1793,5,3,9,6,10,5,8,4,5,5,3,5,8,327,2196,
scooby_state_55f071ae106a|19|5 1802,4,4,6,3,2,2,3,1,2,1,3,1,1,358,2193,
scooby_state_55f071ae106a|56|5 1758,2,6,4,0,4,5,6,4,3,6,4,1,5,381,2189,
scooby_state_55f071ae106a|62|6 1769,5,10,9,11,6,4,4,6,7,3,12,6,3,333,2188,
scooby_state_55f071ae106a|55|4 1762,7,2,8,2,3,5,2,1,4,2,6,5,2,375,2186,
scooby_state_55f071ae106a|25|5 1796,4,7,4,9,3,5,3,3,2,1,4,3,3,335,2182,
scooby_state_55f071ae106a|40|6 1798,3,7,2,6,7,4,8,5,8,7,8,3,5,310,2181,
scooby_state_55f071ae106a|7|7 1782,4,5,5,10,9,7,3,4,3,4,4,1,6,333,2180,
scooby_state_55f071ae106a|30|6 1786,3,10,9,3,11,3,4,5,3,3,6,4,6,322,2178,
scooby_state_55f071ae106a|52|6 1781,6,8,4,6,7,4,6,5,3,1,9,7,4,308,2159,
scooby_state_55f071ae106a|38|8 1784,5,8,6,3,2,3,5,6,3,4,2,4,5,318,2158,
scooby_state_55f071ae106a|16|6 1775,9,3,12,7,11,3,4,5,3,4,5,5,4,308,2158,
scooby_state_55f071ae106a|38|6 1759,14,2,9,11,7,2,4,4,7,4,5,3,7,320,2158,
scooby_state_55f071ae106a|53|5 1708,4,4,6,8,3,3,3,8,5,2,4,3,7,387,2155,
scooby_state_55f071ae106a|50|5 1757,3,7,6,5,3,4,3,4,4,2,4,8,2,343,2155,
scooby_state_55f071ae106a|11|11 2046,13,6,4,10,10,11,10,5,5,5,2,8,10,8,2153,
scooby_state_55f071ae106a|9|8 1738,4,4,3,6,5,2,3,4,3,1,4,2,4,365,2148,
scooby_state_55f071ae106a|9|6 1750,3,7,9,5,6,6,5,5,4,4,3,2,4,332,2145,
scooby_state_55f071ae106a|26|6 1787,1,3,8,7,8,9,0,5,4,2,6,9,3,293,2145,
scooby_state_55f071ae106a|23|6 1758,8,5,13,2,8,8,5,6,6,4,5,3,11,303,2145,
scooby_state_55f071ae106a|60|6 1700,6,8,7,5,4,2,9,3,4,4,6,8,9,370,2145,
scooby_state_55f071ae106a|54|6 1722,10,3,3,5,14,5,5,8,4,5,4,7,6,343,2144,
scooby_state_55f071ae106a|25|6 1791,8,5,11,2,14,3,5,4,4,1,7,3,9,275,2142,
scooby_state_55f071ae106a|13|6 1727,4,7,10,3,7,4,2,6,4,3,3,3,6,352,2141,
scooby_state_55f071ae106a|12|7 1743,8,7,10,1,3,3,2,4,3,1,0,4,5,336,2130,
scooby_state_55f071ae106a|44|9 1777,8,10,4,2,10,3,3,4,2,2,6,7,4,286,2128,
scooby_state_55f071ae106a|41|7 1766,10,6,9,5,8,7,10,8,5,4,6,1,10,272,2127,
scooby_state_55f071ae106a|33|7 1777,9,5,9,4,2,7,6,7,3,2,5,7,11,272,2126,
scooby_state_55f071ae106a|53|6 1743,5,8,7,7,7,10,8,1,3,4,8,1,8,302,2122,
scooby_state_55f071ae106a|27|5 1725,1,9,7,6,4,3,1,3,5,4,1,6,1,345,2121,
scooby_state_55f071ae106a|18|6 1784,8,10,8,8,3,4,6,1,2,5,6,5,3,268,2121,
scooby_state_55f071ae106a|6|5 1717,6,9,5,9,2,5,3,0,2,1,1,4,8,345,2117,
scooby_state_55f071ae106a|47|7 1729,5,6,10,7,4,11,3,6,3,1,10,3,7,309,2114,
scooby_state_55f071ae106a|47|6 1728,8,5,8,2,6,4,3,3,5,4,7,3,5,318,2109,
scooby_state_55f071ae106a|20|6 1720,7,10,5,6,6,5,4,9,3,4,5,5,3,314,2106,
scooby_state_55f071ae106a|19|6 1734,7,1,9,3,12,7,4,5,2,4,6,2,4,305,2105,
scooby_state_55f071ae106a|44|5 1711,5,3,11,8,1,4,2,1,6,4,4,4,4,328,2096,
scooby_state_55f071ae106a|39|6 1737,6,6,8,8,7,7,6,2,1,6,6,2,5,287,2094,
scooby_state_55f071ae106a|42|6 1682,8,6,9,11,8,9,2,8,4,2,5,11,3,324,2092,
scooby_state_55f071ae106a|21|7 1716,12,2,3,3,1,5,5,4,3,5,6,4,8,313,2090,
scooby_state_55f071ae106a|28|7 1741,10,6,4,7,7,2,2,6,1,6,4,6,9,275,2086,
scooby_state_55f071ae106a|23|7 1742,5,3,9,6,3,5,6,1,4,5,1,6,5,281,2082,
scooby_state_55f071ae106a|31|6 1725,5,8,9,3,8,3,2,4,4,2,0,2,6,294,2075,
scooby_state_55f071ae106a|59|9 1714,3,6,4,8,3,7,8,3,4,1,4,5,5,300,2075,
scooby_state_55f071ae106a|48|5 1647,3,3,4,4,2,5,8,1,4,2,2,3,2,382,2072,
scooby_state_55f071ae106a|14|7 1692,4,9,5,4,9,7,2,3,1,4,7,4,6,314,2071,
scooby_state_55f071ae106a|32|5 1699,2,3,4,5,6,3,4,1,2,2,3,4,3,329,2070,
scooby_state_55f071ae106a|31|5 1747,1,4,2,1,4,8,3,1,1,3,3,5,1,284,2068,
scooby_state_55f071ae106a|29|6 1713,5,11,6,8,13,7,5,6,2,1,6,5,4,274,2066,
scooby_state_55f071ae106a|27|7 1658,8,4,5,6,7,6,6,4,6,6,9,10,10,312,2057,
scooby_state_55f071ae106a|16|7 1682,4,2,12,8,5,5,2,3,3,3,5,4,6,311,2055,
scooby_state_55f071ae106a|15|5 1693,1,3,6,3,1,2,3,1,2,3,2,1,4,325,2050,
scooby_state_55f071ae1000|21|1 2045,0,1,0,0,0,0,0,1,1,0,0,0,0,0,2048,
scooby_state_55f071ae1000|53|1 2043,1,1,1,0,0,0,1,0,0,0,0,1,0,0,2048,
scooby_state_55f071ae1000|8|1 2043,1,0,0,0,0,1,2,0,0,1,0,0,0,0,2048,
scooby_state_55f071ae1000|7|1 2044,0,0,0,0,0,0,1,0,2,0,0,0,0,1,2048,
scooby_state_55f071ae1000|5|1 2047,0,0,0,0,0,1,0,0,0,0,0,0,0,0,2048,
scooby_state_55f071ae1000|2|1 2044,0,1,0,0,0,0,2,1,0,0,0,0,0,0,2048,
scooby_state_55f071ae1000|1|1 2044,0,0,0,2,0,0,1,1,0,0,0,0,0,0,2048,
scooby_state_55f071ae1000|59|1 2046,1,0,0,0,0,0,0,1,0,0,0,0,0,0,2048,
scooby_state_55f071ae1000|58|1 2044,0,1,0,0,0,0,1,0,0,0,1,1,0,0,2048,
scooby_state_55f071ae1000|57|1 2042,2,0,0,0,0,0,1,0,1,1,0,0,1,0,2048,
scooby_state_55f071ae1000|55|1 2044,2,1,0,0,0,0,0,1,0,0,0,0,0,0,2048,
scooby_state_55f071ae1000|14|1 2045,0,0,0,1,1,0,0,0,0,1,0,0,0,0,2048,
scooby_state_55f071ae1000|61|1 2046,0,1,0,0,0,0,0,0,0,0,0,0,0,1,2048,
scooby_state_55f071ae1000|10|1 2048,0,0,0,0,0,0,0,0,0,0,0,0,0,0,2048,
scooby_state_55f071ae1000|13|1 2044,0,0,1,0,0,0,1,0,0,0,2,0,0,0,2048,
scooby_state_55f071ae1000|18|1 2046,1,0,0,0,0,0,0,0,0,0,0,0,1,0,2048,
scooby_state_55f071ae1000|24|1 2044,1,0,0,1,0,1,0,1,0,0,0,0,0,0,2048,
scooby_state_55f071ae1000|51|1 2045,0,0,0,0,0,0,0,0,0,1,1,0,1,0,2048,
scooby_state_55f071ae1000|60|1 2045,0,0,0,0,0,0,0,1,0,0,1,1,0,0,2048,
scooby_state_55f071ae1000|6|1 2046,0,0,0,1,0,0,0,0,0,0,0,0,1,0,2048,
scooby_state_55f071ae1000|26|1 2044,0,0,0,1,0,0,2,0,0,0,0,1,0,0,2048,
scooby_state_55f071ae1000|38|1 2042,1,2,0,0,0,1,0,0,0,0,0,0,1,1,2048,
scooby_state_55f071ae1000|25|1 2044,0,0,0,0,2,0,1,0,0,0,1,0,0,0,2048,
scooby_state_55f071ae1000|20|1 2045,0,0,0,1,0,1,1,0,0,0,0,0,0,0,2048,
scooby_state_55f071ae1000|19|1 2047,0,0,0,0,0,0,0,0,0,0,0,0,1,0,2048,
scooby_state_55f071ae1000|42|1 2045,0,0,0,1,0,1,1,0,0,0,0,0,0,0,2048,
scooby_state_55f071ae1000|45|1 2042,1,1,0,0,1,1,0,1,0,0,0,0,0,1,2048,
scooby_state_55f071ae1000|27|1 2043,1,1,1,0,0,0,1,0,1,0,0,0,0,0,2048,
scooby_state_55f071ae1000|62|1 2046,0,0,1,0,0,0,0,0,0,0,0,1,0,0,2048,
scooby_state_55f071ae1000|29|1 2046,0,1,0,0,0,0,0,0,0,0,1,0,0,0,2048,
scooby_state_55f071ae1000|39|1 2044,0,1,0,0,0,0,0,0,2,0,0,0,1,0,2048,
scooby_state_55f071ae1000|34|1 2047,0,0,0,0,0,0,0,0,0,0,0,0,0,1,2048,
scooby_state_55f071ae1000|28|1 2043,0,0,0,0,2,0,0,0,0,0,1,0,0,2,2048,
scooby_state_55f071ae1000|3|1 2043,0,1,1,0,0,0,0,0,0,1,0,0,1,1,2048,
scooby_state_55f071ae1000|12|1 2046,0,1,0,0,0,0,0,0,0,0,0,0,0,1,2048,
scooby_state_55f071ae1000|48|1 2047,0,0,0,1,0,0,0,0,0,0,0,0,0,0,2048,
scooby_state_55f071ae1000|31|1 2043,0,0,0,0,0,0,1,0,2,0,0,2,0,0,2048,
scooby_state_55f071ae1000|33|1 2040,0,2,0,0,1,0,2,1,0,1,1,0,0,0,2048,
scooby_state_55f071ae1000|54|1 2044,0,1,0,0,0,0,0,1,1,1,0,0,0,0,2048,
scooby_state_55f071ae1000|16|1 2045,0,0,0,1,0,0,0,1,1,0,0,0,0,0,2048,
scooby_state_55f071ae1000|41|1 2043,1,0,0,0,1,0,0,1,0,0,0,2,0,0,2048,
scooby_state_55f071ae1000|17|1 2044,0,0,0,1,0,2,0,0,0,0,0,1,0,0,2048,
scooby_state_55f071ae1000|52|1 2042,2,1,0,0,1,0,0,0,0,0,1,0,0,1,2048,
scooby_state_55f071ae1000|35|1 2044,0,0,0,0,1,0,0,1,0,0,0,0,2,0,2048,
scooby_state_55f071ae1000|44|1 2044,0,0,0,0,0,1,1,1,1,0,0,0,0,0,2048,
scooby_state_55f071ae1000|36|1 2043,1,0,0,0,1,1,0,0,1,0,0,0,0,1,2048,
scooby_state_55f071ae1000|40|1 2047,0,0,0,0,0,0,0,0,0,0,0,0,0,1,2048,
scooby_state_55f071ae1000|30|1 2039,0,0,2,1,1,1,0,0,0,0,1,1,1,1,2048,
scooby_state_55f071ae1000|4|1 2047,0,0,0,0,0,0,0,0,0,0,0,0,1,0,2048,
scooby_state_55f071ae1000|43|1 2045,0,0,0,0,0,2,0,0,0,0,0,1,0,0,2048,
scooby_state_55f071ae1000|46|1 2044,0,0,1,0,0,0,0,0,1,2,0,0,0,0,2048,
scooby_state_55f071ae1000|47|1 2045,0,0,0,1,0,1,0,0,0,0,0,0,1,0,2048,
scooby_state_55f071ae1000|15|1 2045,1,0,0,0,0,0,0,0,1,0,1,0,0,0,2048,
scooby_state_55f071ae1000|37|1 2044,0,0,0,1,0,0,0,0,2,0,0,1,0,0,2048,
scooby_state_55f071ae1000|22|1 2045,0,0,0,1,1,0,0,0,0,0,0,0,0,1,2048,
scooby_state_55f071ae1000|49|1 2042,0,1,1,1,0,1,1,0,1,0,0,0,0,0,2048,
scooby_state_55f071ae1000|50|1 2044,0,0,0,1,0,0,0,1,1,0,0,0,0,1,2048,
scooby_state_55f071ae1000|32|1 2045,0,0,0,0,0,0,1,0,0,0,0,1,0,1,2048,
scooby_state_55f071ae1000|11|1 2043,1,0,0,0,0,0,1,0,1,1,0,0,1,0,2048,
scooby_state_55f071ae1000|63|1 2045,1,0,0,1,0,0,0,0,0,0,1,0,0,0,2048,
scooby_state_55f071ae1000|23|1 2042,2,0,1,0,1,0,1,0,1,0,0,0,0,0,2048,
scooby_state_55f071ae1000|0|0 2043,0,0,1,1,0,0,1,0,0,1,1,0,0,0,2048,
scooby_state_55f071ae1000|9|1 2044,0,0,0,1,0,0,0,1,0,0,1,0,0,1,2048,
scooby_state_55f071ae1000|56|1 2045,1,0,0,0,0,0,0,0,0,0,0,1,0,1,2048,
scooby_state_55f071ae106a|63|5 1654,5,10,7,5,1,4,4,3,4,1,3,2,0,335,2038,
scooby_state_55f071ae106a|46|8 1697,4,3,5,4,5,2,5,3,3,1,9,6,5,285,2037,
scooby_state_55f071ae106a|20|8 1662,5,3,3,2,5,7,1,4,3,3,2,6,1,328,2035,
scooby_state_55f071ae106a|17|5 1690,5,2,3,4,4,2,3,4,3,3,3,0,3,303,2032,
scooby_state_55f071ae106a|26|7 1695,4,8,8,4,10,8,6,4,5,2,8,5,5,257,2029,
scooby_state_55f071ae106a|8|5 1601,6,4,4,6,4,2,1,3,2,4,2,3,3,381,2026,
scooby_state_55f071ae106a|61|9 1650,4,6,4,3,9,11,4,2,3,4,7,7,4,300,2018,
scooby_state_55f071ae106a|13|7 1656,5,7,6,3,8,3,3,3,2,4,4,4,8,300,2016,
scooby_state_55f071ae106a|43|6 1643,3,6,12,7,6,5,3,3,2,2,5,6,3,309,2015,
scooby_state_55f071ae106a|59|6 1607,10,8,11,5,6,4,3,2,5,8,4,4,2,333,2012,
scooby_state_55f071ae106a|45|6 1618,7,10,7,2,5,4,7,5,6,6,5,7,5,317,2011,
scooby_state_55f071ae106a|24|9 1686,5,7,3,5,1,3,3,4,2,2,3,8,6,273,2011,
scooby_state_55f071ae106a|50|9 1678,5,6,5,8,4,3,6,5,7,3,4,6,9,261,2010,
scooby_state_55f071ae106a|15|10 1700,4,3,3,5,2,5,4,3,4,2,5,2,4,262,2008,
scooby_state_55f071ae106a|41|5 1671,1,3,6,2,4,2,2,1,3,3,1,3,0,305,2007,
scooby_state_55f071ae106a|45|5 1651,3,3,6,5,4,4,3,2,2,1,6,1,3,302,1996,
scooby_state_55f071ae106a|49|6 1578,8,14,6,7,6,4,4,2,5,5,7,8,1,340,1995,
scooby_state_55f071ae106a|37|5 1610,7,5,11,2,2,4,3,6,1,3,2,2,5,332,1995,
scooby_state_55f071ae106a|24|6 1653,8,5,5,7,4,8,4,3,2,1,5,4,2,283,1994,
scooby_state_55f071ae106a|8|8 1609,7,9,4,1,7,6,4,0,4,4,4,5,0,328,1992,
scooby_state_55f071ae106a|61|6 1575,8,4,6,9,4,5,8,5,5,7,4,9,4,339,1992,
scooby_state_55f071ae106a|11|10 1668,6,4,4,6,5,2,3,3,3,0,10,8,5,264,1991,
scooby_state_55f071ae106a|29|5 1623,5,5,5,5,3,2,5,4,2,1,5,7,1,317,1990,
scooby_state_55f071ae106a|10|5 1619,9,7,8,4,1,4,1,0,4,2,3,3,5,319,1989,
scooby_state_55f071ae106a|58|5 1555,5,6,7,4,4,5,1,2,1,5,3,2,1,387,1988,
scooby_state_55f071ae106a|57|7 1561,9,4,9,7,5,11,5,2,5,7,3,6,8,343,1985,
scooby_state_55f071ae106a|27|6 1639,11,5,9,6,9,7,9,5,5,4,2,7,4,261,1983,
scooby_state_55f071ae106a|60|5 1513,3,4,6,9,6,6,6,1,1,8,2,4,4,399,1972,
scooby_state_55f071ae106a|32|6 1647,3,9,6,5,10,7,3,4,2,3,4,3,9,254,1969,
scooby_state_55f071ae106a|40|15 1751,1,7,4,1,2,7,6,4,3,3,4,4,5,157,1959,
scooby_state_55f071ae106a|61|8 1589,7,5,5,5,3,3,3,2,3,1,2,3,3,325,1959,
scooby_state_55f071ae106a|59|8 1558,6,6,7,2,1,6,2,2,4,1,6,9,7,340,1957,
scooby_state_55f071ae106a|9|7 1594,5,4,11,4,8,7,5,8,8,3,6,3,7,283,1956,
scooby_state_55f071ae106a|48|6 1554,8,5,7,5,4,3,4,6,3,8,8,6,9,325,1955,
scooby_state_55f071ae106a|59|7 1528,9,9,7,8,5,3,7,5,9,5,6,11,13,329,1954,
scooby_state_55f071ae106a|50|6 1606,5,4,2,4,6,2,3,2,6,2,6,3,6,296,1953,
scooby_state_55f071ae106a|51|6 1556,4,9,6,5,9,8,4,1,3,2,4,6,4,331,1952,
scooby_state_55f071ae106a|47|8 1557,5,4,7,3,4,4,5,8,2,9,4,9,3,324,1948,
scooby_state_55f071ae106a|51|9 1588,9,4,5,3,5,6,5,1,3,6,6,7,4,294,1946,
scooby_state_55f071ae106a|63|7 1527,5,5,7,10,8,3,6,5,5,3,6,3,8,343,1944,
scooby_state_55f071ae106a|17|6 1598,6,5,4,9,5,3,4,3,4,2,8,3,2,287,1943,
scooby_state_55f071ae106a|25|7 1615,7,3,4,4,6,8,2,4,3,5,6,5,7,264,1943,
scooby_state_55f071ae106a|23|9 1575,15,6,5,6,8,5,6,3,1,2,4,7,5,292,1940,
scooby_state_55f071ae106a|51|7 1555,7,7,11,4,7,8,8,7,4,0,4,5,14,294,1935,
scooby_state_55f071ae106a|38|7 1604,8,4,6,7,5,7,8,5,5,3,4,12,8,248,1934,
scooby_state_55f071ae106a|20|7 1576,6,11,6,3,8,1,1,3,4,4,3,4,5,298,1933,
scooby_state_55f071ae106a|15|7 1611,4,2,6,5,5,3,4,3,4,5,2,6,16,255,1931,
scooby_state_55f071ae106a|38|9 1570,9,6,3,4,4,3,4,4,4,3,3,6,7,301,1931,
scooby_state_55f071ae106a|12|8 1614,4,3,10,2,1,1,5,1,1,1,6,4,1,277,1931,
scooby_state_55f071ae106a|16|9 1604,1,3,2,3,5,6,4,2,3,3,6,3,4,275,1924,
scooby_state_55f071ae106a|60|11 1854,9,8,6,8,1,6,5,5,5,0,0,3,8,5,1923,
scooby_state_55f071ae106a|21|8 1601,4,2,7,4,3,3,5,3,5,2,7,1,4,267,1918,
scooby_state_55f071ae106a|46|6 1546,7,6,5,6,6,5,6,3,5,5,4,6,4,299,1913,
scooby_state_55f071ae106a|50|7 1519,10,7,11,7,8,5,5,5,7,2,5,3,9,308,1911,
scooby_state_55f071ae106a|31|8 1598,2,4,5,3,3,6,2,4,3,2,1,1,3,274,1911,
scooby_state_55f071ae106a|44|7 1601,5,7,6,4,7,5,6,5,1,2,9,3,6,240,1907,
scooby_state_55f071ae106a|16|8 1577,5,2,5,3,7,4,3,1,3,6,5,3,2,280,1906,
scooby_state_55f071ae106a|62|8 1533,9,4,2,7,5,4,6,4,3,4,4,1,4,312,1902,
scooby_state_55f071ae106a|37|7 1564,6,11,6,6,5,6,2,4,3,4,3,9,10,260,1899,
scooby_state_55f071ae106a|62|7 1496,8,7,10,5,5,6,4,5,4,2,1,10,13,322,1898,
scooby_state_55f071ae106a|15|12 1610,5,6,4,7,5,6,3,3,7,11,7,4,6,213,1897,
scooby_state_55f071ae106a|22|8 1554,3,4,4,3,1,3,3,4,3,2,1,7,4,299,1895,
scooby_state_55f071ae106a|34|8 1579,1,6,5,2,4,7,4,1,2,3,4,2,2,273,1895,
scooby_state_55f071ae106a|60|7 1510,16,12,9,7,7,9,7,2,7,3,4,7,9,284,1893,
scooby_state_55f071ae106a|48|7 1526,5,8,7,6,5,6,4,2,2,1,1,6,14,299,1892,
scooby_state_55f071ae106a|22|7 1570,1,5,5,2,3,5,7,2,3,5,4,7,7,263,1889,
scooby_state_55f071ae106a|33|6 1537,16,3,6,4,4,4,4,4,2,2,5,6,3,285,1885,
scooby_state_55f071ae106a|15|8 1566,4,7,5,9,3,2,2,2,3,1,3,4,4,267,1882,
scooby_state_55f071ae106a|37|6 1580,6,3,6,7,4,9,8,2,0,1,2,5,3,242,1878,
scooby_state_55f071ae106a|29|7 1566,5,10,6,0,4,4,3,2,4,7,4,7,4,250,1876,
scooby_state_55f071ae106a|49|9 1569,8,5,3,4,0,2,2,4,6,1,3,4,3,259,1873,
scooby_state_55f071ae106a|42|8 1511,4,7,4,6,0,5,2,3,4,0,3,1,3,319,1872,
scooby_state_55f071ae106a|18|5 1539,6,5,3,5,3,4,4,3,4,2,10,2,3,277,1870,
scooby_state_55f071ae106a|57|9 1487,7,9,3,10,7,4,4,3,5,3,4,3,7,310,1866,
scooby_state_55f071ae106a|40|7 1553,5,5,7,5,6,6,0,2,2,1,2,1,8,261,1864,
scooby_state_55f071ae106a|34|7 1542,7,9,9,5,5,8,5,6,2,4,5,2,6,249,1864,
scooby_state_55f071ae106a|22|9 1531,11,7,2,7,4,7,2,3,4,5,3,7,2,268,1863,
scooby_state_55f071ae106a|34|9 1558,2,5,5,0,6,2,3,2,3,4,4,7,6,255,1862,
scooby_state_55f071ae106a|9|9 1480,5,12,1,4,3,6,7,5,6,7,8,2,7,307,1860,
scooby_state_55f071ae106a|36|5 1547,6,4,4,2,3,0,4,1,2,1,3,1,4,274,1856,
scooby_state_55f071ae106a|58|7 1493,7,3,6,6,5,5,4,3,7,6,4,6,10,291,1856,
scooby_state_55f071ae106a|10|6 1541,4,5,7,5,6,3,3,5,1,2,5,3,2,259,1851,
scooby_state_55f071ae106a|58|6 1474,11,8,3,4,7,4,3,6,4,5,5,3,6,308,1851,
scooby_state_55f071ae106a|24|7 1531,3,3,5,8,2,5,2,2,1,4,3,6,9,258,1842,
scooby_state_55f071ae106a|19|8 1504,6,2,4,3,5,3,1,1,3,4,2,7,7,286,1838,
scooby_state_55f071ae106a|10|9 1521,3,11,5,8,5,0,5,5,4,2,6,5,3,255,1838,
scooby_state_55f071ae106a|10|7 1494,5,6,5,5,5,5,2,3,1,4,5,9,15,266,1830,
scooby_state_55f071ae106a|52|7 1452,9,8,8,7,5,6,5,5,1,5,7,5,18,289,1830,
scooby_state_55f071ae106a|32|7 1536,4,5,5,4,3,3,6,4,5,2,7,7,6,230,1827,
scooby_state_55f071ae106a|37|8 1498,9,7,3,4,4,3,8,4,5,1,4,6,4,266,1826,
scooby_state_55f071ae106a|17|7 1537,5,8,5,4,1,6,2,5,4,3,5,2,11,223,1821,
scooby_state_55f071ae106a|43|7 1463,7,7,6,7,5,7,2,6,5,4,2,6,7,285,1819,
scooby_state_55f071ae106a|42|7 1523,6,4,8,5,6,3,5,2,2,3,4,4,8,236,1819,
scooby_state_55f071ae106a|52|8 1472,5,8,4,2,2,4,0,2,0,2,6,5,6,300,1818,
scooby_state_55f071ae106a|14|14 1528,6,11,9,8,7,12,5,9,9,6,9,6,8,183,1816,
scooby_state_55f071ae106a|27|11 1744,8,2,4,6,7,7,3,2,6,1,6,3,4,12,1815,
scooby_state_55f071ae106a|56|9 1448,6,6,1,9,6,3,0,6,2,5,1,6,4,310,1813,
scooby_state_55f071ae106a|58|9 1458,11,5,7,4,2,5,5,4,2,7,7,5,2,288,1812,
scooby_state_55f071ae106a|60|8 1446,2,3,2,5,6,1,8,0,4,2,4,5,2,319,1809,
scooby_state_55f071ae106a|37|9 1478,6,8,5,7,4,4,5,4,1,2,6,3,8,267,1808,
scooby_state_55f071ae106a|50|8 1488,6,4,7,5,4,7,6,1,2,1,3,0,1,268,1803,
scooby_state_55f071ae106a|57|10 1449,1,10,6,6,5,2,2,1,2,3,4,5,2,299,1797,
scooby_state_55f071ae106a|44|8 1484,4,5,6,3,0,3,2,2,3,1,6,4,1,265,1789,
scooby_state_55f071ae106a|14|10 1451,9,6,6,3,5,1,3,2,1,1,6,9,3,283,1789,
scooby_state_55f071ae106a|8|6 1458,6,6,8,3,8,5,5,5,1,4,4,5,9,262,1789,
scooby_state_55f071ae106a|20|11 1718,9,4,3,8,4,10,3,7,5,2,5,2,2,7,1789,
scooby_state_55f071ae106a|14|8 1416,5,6,5,2,4,5,4,4,3,2,3,0,3,323,1785,
scooby_state_55f071ae106a|55|7 1401,7,2,8,4,4,5,6,5,4,7,6,2,8,312,1781,
scooby_state_55f071ae106a|33|8 1468,4,4,4,4,2,6,5,2,4,2,4,2,2,261,1774,
scooby_state_55f071ae106a|30|9 1502,4,3,5,3,1,6,2,1,2,4,4,4,4,215,1760,
scooby_state_55f071ae106a|12|11 1696,9,8,4,3,4,7,2,3,2,4,2,5,4,7,1760,
scooby_state_55f071ae106a|28|8 1443,2,7,5,1,3,3,4,1,6,0,4,3,4,273,1759,
scooby_state_55f071ae106a|38|10 1469,10,6,7,4,5,2,2,3,1,2,3,5,4,234,1757,
scooby_state_55f071ae106a|35|8 1447,4,6,7,7,4,7,3,2,4,1,2,4,3,249,1750,
scooby_state_55f071ae106a|14|9 1419,10,7,3,3,6,8,4,4,1,2,3,4,2,273,1749,
scooby_state_55f071ae106a|57|8 1397,7,10,7,2,3,3,1,4,5,4,4,3,2,296,1748,
scooby_state_55f071ae106a|30|8 1423,6,5,6,4,3,2,5,3,1,0,3,4,2,277,1744,
scooby_state_55f071ae106a|53|7 1395,7,6,5,6,5,3,5,2,2,3,9,4,8,283,1743,
scooby_state_55f071ae106a|18|8 1468,2,4,7,1,2,1,3,2,5,2,3,2,3,237,1742,
scooby_state_55f071ae106a|48|10 1409,3,2,6,5,6,4,7,7,2,3,3,3,3,277,1740,
scooby_state_55f071ae106a|29|8 1422,4,2,2,7,4,7,3,3,3,1,4,4,4,268,1738,
scooby_state_55f071ae106a|19|7 1414,6,6,7,2,5,7,2,2,6,1,5,4,3,265,1735,
scooby_state_55f071ae106a|63|9 1385,9,6,7,4,3,7,8,5,1,4,6,3,1,286,1735,
scooby_state_55f071ae106a|28|9 1429,5,3,6,7,3,4,1,4,3,3,4,2,8,253,1735,
scooby_state_55f071ae106a|46|7 1360,2,9,6,9,7,4,8,4,7,7,2,3,8,297,1733,
scooby_state_55f071ae106a|41|8 1399,1,7,4,1,3,4,2,7,1,2,4,2,1,290,1728,
scooby_state_55f071ae106a|42|9 1441,9,3,6,3,2,3,4,4,3,2,3,5,3,235,1726,
scooby_state_55f071ae106a|33|9 1435,5,6,5,4,4,5,3,2,2,1,6,2,5,234,1719,
scooby_state_55f071ae106a|27|10 1432,5,5,5,2,3,6,2,4,3,2,8,3,3,235,1718,
scooby_state_55f071ae106a|32|8 1425,1,5,3,6,1,4,2,1,3,3,4,6,3,249,1716,
scooby_state_55f071ae106a|32|9 1417,6,6,3,5,1,3,2,5,5,5,2,4,6,246,1716,
scooby_state_55f071ae106a|43|8 1422,5,4,8,2,4,5,0,2,1,5,3,3,2,250,1716,
scooby_state_55f071ae106a|62|10 1396,6,7,6,5,4,3,3,3,5,1,4,4,4,263,1714,
scooby_state_55f071ae106a|28|12 1392,9,6,7,6,10,6,6,6,7,8,5,6,5,232,1711,
scooby_state_55f071ae106a|49|8 1406,2,1,10,2,9,2,3,6,3,5,4,2,2,254,1711,
scooby_state_55f071ae106a|35|9 1433,5,7,6,4,5,2,4,5,2,4,6,3,1,224,1711,
scooby_state_55f071ae106a|11|8 1391,5,6,4,7,5,5,7,3,1,0,3,7,3,262,1709,
scooby_state_55f071ae106a|17|8 1384,3,6,4,2,6,3,4,3,5,4,6,2,5,268,1705,
scooby_state_55f071ae106a|18|9 1407,5,5,4,3,4,2,0,1,2,5,4,5,3,255,1705,
scooby_state_55f071ae106a|39|7 1393,7,10,9,7,5,6,4,4,5,4,3,4,6,237,1704,
scooby_state_55f071ae106a|20|9 1412,4,4,3,4,5,1,4,4,3,3,3,2,4,247,1703,
scooby_state_55f071ae106a|23|8 1411,7,4,7,2,3,3,3,1,4,0,1,3,4,246,1699,
scooby_state_55f071ae106a|52|9 1383,5,5,5,3,4,4,6,4,2,3,7,7,5,256,1699,
scooby_state_55f071ae106a|59|10 1408,5,4,5,3,2,5,4,3,2,0,2,5,7,243,1698,
scooby_state_55f071ae106a|56|10 1384,5,7,7,8,6,2,1,2,2,3,2,4,5,258,1696,
scooby_state_55f071ae106a|24|8 1392,3,9,7,6,4,5,6,2,2,5,4,2,7,241,1695,
scooby_state_55f071ae106a|54|8 1390,6,7,2,3,3,0,5,1,3,1,2,2,4,266,1695,
scooby_state_55f071ae106a|56|8 1345,4,5,6,3,3,7,3,1,2,0,3,5,2,302,1691,
scooby_state_55f071ae106a|31|7 1413,3,3,7,6,8,6,1,4,3,2,3,5,6,217,1687,
scooby_state_55f071ae106a|36|9 1387,6,3,5,5,5,0,6,7,3,2,3,6,3,238,1679,
scooby_state_55f071ae106a|20|10 1410,4,6,4,1,4,2,5,4,0,6,5,1,3,224,1679,
scooby_state_55f071ae106a|26|8 1415,3,3,3,2,1,7,3,2,2,3,4,3,5,222,1678,
scooby_state_55f071ae106a|21|12 1383,7,3,7,4,6,7,8,3,3,4,3,7,7,224,1676,
scooby_state_55f071ae106a|24|10 1384,3,3,3,7,4,0,3,1,2,4,7,5,3,237,1666,
scooby_state_55f071ae106a|47|9 1356,8,4,11,3,4,3,4,7,1,3,2,3,1,254,1664,
scooby_state_55f071ae106a|59|11 1594,8,3,10,3,10,7,2,4,3,3,1,1,5,9,1663,
scooby_state_55f071ae106a|33|10 1361,8,7,5,5,7,1,3,2,0,3,3,1,0,256,1662,
scooby_state_55f071ae106a|19|10 1404,4,4,4,1,1,2,5,5,2,3,4,1,4,218,1662,
scooby_state_55f071ae106a|30|14 1390,11,12,4,8,11,5,7,9,6,5,7,6,5,175,1661,
scooby_state_55f071ae106a|29|9 1350,6,4,3,11,2,3,0,4,3,2,1,3,5,260,1657,
scooby_state_55f071ae106a|49|11 1566,6,5,6,10,7,5,7,5,4,5,9,8,3,10,1656,
scooby_state_55f071ae106a|42|11 1579,11,9,4,6,4,6,4,8,4,3,8,5,2,3,1656,
scooby_state_55f071ae106a|61|10 1325,8,6,0,7,6,6,1,4,6,1,3,6,6,270,1655,
scooby_state_55f071ae106a|53|9 1328,6,4,6,6,6,3,4,2,6,2,4,3,3,265,1648,
scooby_state_55f071ae106a|22|14 1359,8,13,8,8,8,1,4,6,8,6,4,9,7,196,1645,
scooby_state_55f071ae106a|52|11 1565,9,5,3,7,12,6,3,4,3,2,7,3,3,7,1639,
scooby_state_55f071ae106a|38|13 1562,4,4,7,7,8,11,1,3,8,5,1,5,4,9,1639,
scooby_state_55f071ae106a|36|7 1328,10,4,4,4,6,4,4,1,3,4,2,3,7,253,1637,
scooby_state_55f071ae106a|42|15 1379,14,7,1,10,4,2,5,8,2,6,0,2,7,187,1634,
scooby_state_55f071ae106a|62|11 1566,9,0,8,7,8,6,3,1,3,2,5,5,1,8,1632,
scooby_state_55f071ae106a|45|10 1402,5,4,5,4,4,4,0,4,5,3,2,3,2,183,1630,
scooby_state_55f071ae106a|51|8 1303,3,10,4,4,7,3,3,5,4,3,1,3,1,274,1628,
scooby_state_55f071ae106a|47|12 1364,5,8,9,4,6,10,4,5,8,2,7,5,6,183,1626,
scooby_state_55f071ae106a|25|11 1562,7,6,7,9,7,4,1,0,5,4,4,3,3,4,1626,
scooby_state_55f071ae106a|25|9 1373,8,4,6,3,3,2,1,1,2,6,8,1,3,204,1625,
scooby_state_55f071ae106a|25|8 1349,5,4,3,1,4,1,2,5,3,5,2,3,3,235,1625,
scooby_state_55f071ae106a|27|12 1348,3,10,8,7,2,4,4,6,9,4,9,8,8,195,1625,
scooby_state_55f071ae106a|27|8 1308,5,9,2,2,2,1,4,4,7,3,2,1,4,269,1623,
scooby_state_55f071ae106a|21|9 1373,5,3,3,4,2,3,4,5,3,5,3,4,2,204,1623,
scooby_state_55f071ae106a|45|9 1358,3,4,2,7,6,4,3,1,2,0,3,0,6,222,1621,
scooby_state_55f071ae106a|41|9 1346,2,5,3,5,4,2,3,2,4,2,4,3,3,229,1617,
scooby_state_55f071ae106a|15|9 1362,4,1,2,8,3,3,3,3,0,1,2,6,1,217,1616,
scooby_state_55f071ae106a|61|12 1347,5,3,8,7,3,8,1,4,3,3,5,4,5,208,1614,
scooby_state_55f071ae106a|16|10 1307,9,5,2,2,2,3,2,1,0,1,3,3,7,262,1609,
scooby_state_55f071ae106a|53|8 1295,6,1,3,1,3,3,4,3,5,1,4,0,5,274,1608,
scooby_state_55f071ae106a|39|9 1344,7,2,5,7,7,2,3,2,4,2,4,1,3,213,1606,
scooby_state_55f071ae106a|36|8 1307,4,7,1,1,4,2,4,3,3,3,2,3,1,260,1605,
scooby_state_55f071ae106a|38|12 1326,9,6,7,5,3,11,4,2,5,3,8,4,7,201,1601,
scooby_state_55f071ae106a|10|8 1289,3,3,3,6,4,5,3,3,3,1,1,6,3,265,1598,
scooby_state_55f071ae106a|21|10 1307,4,3,8,6,3,4,5,4,2,7,4,3,4,232,1596,
scooby_state_55f071ae106a|10|10 1347,5,2,2,6,2,3,2,3,4,2,3,3,1,211,1596,
scooby_state_55f071ae106a|63|8 1300,3,5,5,4,3,4,5,2,2,2,4,3,5,247,1594,
scooby_state_55f071ae106a|38|11 1500,7,3,10,9,6,10,4,4,6,6,5,8,3,10,1591,
scooby_state_55f071ae106a|40|8 1311,6,6,3,2,5,6,5,6,2,2,3,2,4,227,1590,
scooby_state_55f071ae106a|30|11 1532,10,5,2,5,8,1,1,4,4,6,2,2,5,2,1589,
scooby_state_55f071ae106a|18|7 1287,3,8,9,3,5,4,3,5,0,1,9,5,3,243,1588,
scooby_state_55f071ae106a|63|15 1324,7,4,7,6,3,5,5,1,5,5,6,3,4,201,1586,
scooby_state_55f071ae106a|11|9 1285,7,1,3,2,3,2,4,2,0,2,4,4,6,260,1585,
scooby_state_55f071ae106a|19|9 1309,8,2,3,3,4,4,3,2,2,3,4,8,5,220,1580,
scooby_state_55f071ae106a|16|11 1509,6,4,5,5,8,6,0,4,4,1,5,3,7,6,1573,
scooby_state_55f071ae106a|13|9 1274,10,4,5,3,3,3,2,2,4,3,0,8,5,242,1568,
scooby_state_55f071ae106a|34|11 1503,6,6,3,7,7,5,3,4,2,1,4,4,5,4,1564,
scooby_state_55f071ae106a|13|8 1245,7,7,6,0,6,3,5,0,0,4,2,2,5,271,1563,
scooby_state_55f071ae106a|25|10 1338,5,2,4,3,5,3,3,6,0,0,6,3,2,182,1562,
scooby_state_55f071ae106a|45|8 1257,7,3,6,6,3,2,0,3,2,2,5,4,5,254,1559,
scooby_state_55f071ae106a|36|11 1493,4,6,5,4,8,7,3,2,2,5,1,3,5,9,1557,
scooby_state_55f071ae106a|54|13 1483,9,5,4,8,7,6,2,4,4,4,4,4,6,6,1556,
scooby_state_55f071ae106a|14|11 1485,7,5,6,6,5,5,1,5,7,2,5,6,2,8,1555,
scooby_state_55f071ae106a|58|8 1244,4,5,3,5,5,4,1,1,3,3,8,1,5,263,1555,
scooby_state_55f071ae106a|60|16 1334,5,7,5,6,5,9,6,2,5,7,5,4,3,152,1555,
scooby_state_55f071ae106a|23|11 1499,7,4,6,3,7,2,2,2,1,2,5,1,2,10,1553,
scooby_state_55f071ae106a|54|10 1261,5,4,8,5,4,8,2,3,2,4,7,3,4,233,1553,
scooby_state_55f071ae106a|39|13 1492,5,5,8,3,7,6,6,1,0,0,2,3,4,11,1553,
scooby_state_55f071ae106a|39|8 1282,3,1,5,1,0,3,4,0,0,1,3,3,4,242,1552,
scooby_state_55f071ae106a|44|10 1316,3,8,3,2,4,7,3,3,2,6,6,4,4,180,1551,
scooby_state_55f071ae106a|38|16 1330,7,5,6,4,11,4,4,4,3,2,2,2,1,165,1550,
scooby_state_55f071ae106a|26|11 1477,3,8,1,8,4,5,3,3,3,2,3,7,7,7,1541,
scooby_state_55f071ae106a|30|10 1269,7,3,2,2,7,5,5,4,4,2,2,6,5,216,1539,
scooby_state_55f071ae106a|60|9 1233,9,2,10,3,2,4,3,3,3,2,6,2,3,253,1538,
scooby_state_55f071ae106a|15|11 1486,3,3,7,3,1,5,2,3,0,2,4,5,3,11,1538,
scooby_state_55f071ae106a|53|15 1296,4,3,6,7,4,5,2,1,4,3,5,3,2,192,1537,
scooby_state_55f071ae106a|40|9 1293,3,5,1,6,6,3,8,4,3,1,3,1,6,194,1537,
scooby_state_55f071ae106a|41|11 1474,5,5,6,5,8,3,2,1,3,2,2,3,4,12,1535,
scooby_state_55f071ae106a|33|11 1469,5,7,3,3,8,3,5,4,2,2,6,4,4,10,1535,
[...]
scooby_state_154f9c6feb83|46|1 1,0,0,0,0,0,0,0,0,0,0,0,0,0,0,1,
scooby_state_154f9c7d024b|29|-4 1,0,0,0,0,0,0,0,0,0,0,0,0,0,0,1,
scooby_state_154f9c6f2a48|41|1 1,0,0,0,0,0,0,0,0,0,0,0,0,0,0,1,
scooby_state_154f9c7350c1|3|-3 1,0,0,0,0,0,0,0,0,0,0,0,0,0,0,1,
scooby_state_154f9c6fadf0|55|12 1,0,0,0,0,0,0,0,0,0,0,0,0,0,0,1,
scooby_state_154f9c735080|2|1 1,0,0,0,0,0,0,0,0,0,0,0,0,0,0,1,
scooby_state_154f9c6fa910|36|19 1,0,0,0,0,0,0,0,0,0,0,0,0,0,0,1,
scooby_state_154f9c6fb442|17|1 1,0,0,0,0,0,0,0,0,0,0,0,0,0,0,1,
scooby_state_154f9c6fd6c0|27|-29 1,0,0,0,0,0,0,0,0,0,0,0,0,0,0,1,
scooby_state_154f9c72c350|13|1 1,0,0,0,0,0,0,0,0,0,0,0,0,0,0,1,
scooby_state_154f9c6bf2c0|11|10 1,0,0,0,0,0,0,0,0,0,0,0,0,0,0,1,
scooby_state_154f9c6fe150|5|0 1,0,0,0,0,0,0,0,0,0,0,0,0,0,0,1,
scooby_state_154f9c72aea0|58|0 1,0,0,0,0,0,0,0,0,0,0,0,0,0,0,1,
scooby_state_154f9c6fe715|28|15 1,0,0,0,0,0,0,0,0,0,0,0,0,0,0,1,
scooby_state_154f9c6fbe08|56|0 1,0,0,0,0,0,0,0,0,0,0,0,0,0,0,1,
scooby_state_154f9c6f686b|22|-22 1,0,0,0,0,0,0,0,0,0,0,0,0,0,0,1,
scooby_state_154f9c6fd1d1|15|14 1,0,0,0,0,0,0,0,0,0,0,0,0,0,0,1,
scooby_state_154f9c73507d|48|47 1,0,0,0,0,0,0,0,0,0,0,0,0,0,0,1,
scooby_state_154f9c732574|50|1 1,0,0,0,0,0,0,0,0,0,0,0,0,0,0,1,
scooby_state_154f9c732699|26|-9 1,0,0,0,0,0,0,0,0,0,0,0,0,0,0,1,
scooby_state_154f9c6fb902|36|1 1,0,0,0,0,0,0,0,0,0,0,0,0,0,0,1,
scooby_state_154f9c6fabb1|46|1 1,0,0,0,0,0,0,0,0,0,0,0,0,0,0,1,
scooby_state_154f9c6f94e8|19|1 1,0,0,0,0,0,0,0,0,0,0,0,0,0,0,1,
scooby_state_154f9c73242a|16|-45 1,0,0,0,0,0,0,0,0,0,0,0,0,0,0,1,
scooby_state_154f9c6fbee7|44|4 1,0,0,0,0,0,0,0,0,0,0,0,0,0,0,1,
scooby_state_154f9c6fc890|34|-29 1,0,0,0,0,0,0,0,0,0,0,0,0,0,0,1,
scooby_state_154f9c7d0247|33|0 1,0,0,0,0,0,0,0,0,0,0,0,0,0,0,1,
scooby_state_154f9c6fb3da|15|-44 1,0,0,0,0,0,0,0,0,0,0,0,0,0,0,1,
scooby_state_55f071ae0fee|48|2 1,0,0,0,0,0,0,0,0,0,0,0,0,0,0,1,
scooby_state_154f9c6fb167|5|-13 1,0,0,0,0,0,0,0,0,0,0,0,0,0,0,1,
scooby_state_154f9c6fab11|44|-11 1,0,0,0,0,0,0,0,0,0,0,0,0,0,0,1,
scooby_state_154f9c6feb44|45|7 1,0,0,0,0,0,0,0,0,0,0,0,0,0,0,1,
scooby_state_154f9c74f143|11|0 1,0,0,0,0,0,0,0,0,0,0,0,0,0,0,1,
scooby_state_154f9c72c2c0|11|1 1,0,0,0,0,0,0,0,0,0,0,0,0,0,0,1,
scooby_state_154f9c71c163|15|0 1,0,0,0,0,0,0,0,0,0,0,0,0,0,0,1,
scooby_state_154f9c732303|12|1 1,0,0,0,0,0,0,0,0,0,0,0,0,0,0,1,
scooby_state_154f9c6fa21b|8|-40 1,0,0,0,0,0,0,0,0,0,0,0,0,0,0,1,
scooby_state_154f9c732323|37|2 1,0,0,0,0,0,0,0,0,0,0,0,0,0,0,1,
scooby_state_154f9c6fbef2|40|-2 1,0,0,0,0,0,0,0,0,0,0,0,0,0,0,1,
scooby_state_154f9c6fad24|52|52 1,0,0,0,0,0,0,0,0,0,0,0,0,0,0,1,
scooby_state_154f9c6fbec0|59|1 1,0,0,0,0,0,0,0,0,0,0,0,0,0,0,1,
scooby_state_154f9c6fad44|53|1 1,0,0,0,0,0,0,0,0,0,0,0,0,0,0,1,
scooby_state_154f9c7ce0b0|22|0 1,0,0,0,0,0,0,0,0,0,0,0,0,0,0,1,
scooby_state_154f9c6faaeb|43|-10 1,0,0,0,0,0,0,0,0,0,0,0,0,0,0,1,
scooby_state_154f9c7299c2|39|1 1,0,0,0,0,0,0,0,0,0,0,0,0,0,0,1,
scooby_state_154f9c6f9601|24|1 1,0,0,0,0,0,0,0,0,0,0,0,0,0,0,1,
scooby_state_154f9c71e340|13|2 1,0,0,0,0,0,0,0,0,0,0,0,0,0,0,1,
scooby_state_154f9c6fcf80|62|10 1,0,0,0,0,0,0,0,0,0,0,0,0,0,0,1,
scooby_state_154f9c729951|30|-2 1,0,0,0,0,0,0,0,0,0,0,0,0,0,0,1,
scooby_state_154f9c6f29f0|39|0 1,0,0,0,0,0,0,0,0,0,0,0,0,0,0,1,
scooby_state_55f071adf510|54|0 1,0,0,0,0,0,0,0,0,0,0,0,0,0,0,1,
scooby_state_154f9c6fd6d6|60|5 1,0,0,0,0,0,0,0,0,0,0,0,0,0,0,1,
scooby_state_154f9c759440|17|0 1,0,0,0,0,0,0,0,0,0,0,0,0,0,0,1,
scooby_state_154f9c6fa8d7|35|1 1,0,0,0,0,0,0,0,0,0,0,0,0,0,0,1,
scooby_state_154f9c6f6840|33|2 1,0,0,0,0,0,0,0,0,0,0,0,0,0,0,1,
scooby_state_154f9c6f9586|22|1 1,0,0,0,0,0,0,0,0,0,0,0,0,0,0,1,
scooby_state_154f9c6ff07e|1|-8 1,0,0,0,0,0,0,0,0,0,0,0,0,0,0,1,
scooby_state_154f9c729180|6|-33 1,0,0,0,0,0,0,0,0,0,0,0,0,0,0,1,
scooby_state_154f9c7324f8|49|38 1,0,0,0,0,0,0,0,0,0,0,0,0,0,0,1,
scooby_state_154f9c6fa418|16|8 1,0,0,0,0,0,0,0,0,0,0,0,0,0,0,1,
scooby_state_154f9c71c1d8|7|1 1,0,0,0,0,0,0,0,0,0,0,0,0,0,0,1,
scooby_state_154f9c6fdb11|44|4 1,0,0,0,0,0,0,0,0,0,0,0,0,0,0,1,
scooby_state_55f071ae1050|21|1 1,0,0,0,0,0,0,0,0,0,0,0,0,0,0,1,
scooby_state_154f9c6fccc2|51|1 1,0,0,0,0,0,0,0,0,0,0,0,0,0,0,1,
scooby_state_154f9c6f967e|42|-1 1,0,0,0,0,0,0,0,0,0,0,0,0,0,0,1,
scooby_state_154f9c733183|6|-3 1,0,0,0,0,0,0,0,0,0,0,0,0,0,0,1,
scooby_state_154f9c6fae03|56|12 1,0,0,0,0,0,0,0,0,0,0,0,0,0,0,1,
scooby_state_154f9c6f95c8|23|3 1,0,0,0,0,0,0,0,0,0,0,0,0,0,0,1,
scooby_state_154f9c6bf100|4|-4 1,0,0,0,0,0,0,0,0,0,0,0,0,0,0,1,
scooby_state_154f9c735212|8|4 1,0,0,0,0,0,0,0,0,0,0,0,0,0,0,1,
scooby_state_154f9c6f9ed7|59|1 1,0,0,0,0,0,0,0,0,0,0,0,0,0,0,1,
scooby_state_154f9c6f9390|14|0 1,0,0,0,0,0,0,0,0,0,0,0,0,0,0,1,
scooby_state_154f9c6fe960|37|3 1,0,0,0,0,0,0,0,0,0,0,0,0,0,0,1,
scooby_state_154f9c6fde90|58|4 1,0,0,0,0,0,0,0,0,0,0,0,0,0,0,1,
scooby_state_154f9c7d0203|8|1 1,0,0,0,0,0,0,0,0,0,0,0,0,0,0,1,
scooby_state_55f071ae102d|50|0 0,1,0,0,0,0,0,0,0,0,0,0,0,0,0,1,
scooby_state_154f9c732998|38|15 1,0,0,0,0,0,0,0,0,0,0,0,0,0,0,1,
scooby_state_55f071ae10c4|46|-3 1,0,0,0,0,0,0,0,0,0,0,0,0,0,0,1,
scooby_state_154f9c6fdb61|45|1 1,0,0,0,0,0,0,0,0,0,0,0,0,0,0,1,
scooby_state_154f9c7325f4|18|-1 1,0,0,0,0,0,0,0,0,0,0,0,0,0,0,1,
scooby_state_55f071ae10c4|3|0 1,0,0,0,0,0,0,0,0,0,0,0,0,0,0,1,
scooby_state_154f9c732b40|45|21 1,0,0,0,0,0,0,0,0,0,0,0,0,0,0,1,
scooby_state_154f9c6f967a|43|0 1,0,0,0,0,0,0,0,0,0,0,0,0,0,0,1,
scooby_state_154f9c6fccd6|21|8 1,0,0,0,0,0,0,0,0,0,0,0,0,0,0,1,
scooby_state_154f9c72c2a0|10|-3 1,0,0,0,0,0,0,0,0,0,0,0,0,0,0,1,
scooby_state_154f9c7330e6|49|1 1,0,0,0,0,0,0,0,0,0,0,0,0,0,0,1,
scooby_state_154f9c6f9f02|60|1 1,0,0,0,0,0,0,0,0,0,0,0,0,0,0,1,
scooby_state_154f9c72c376|12|2 1,0,0,0,0,0,0,0,0,0,0,0,0,0,0,1,
scooby_state_55f071ae103f|31|0 1,0,0,0,0,0,0,0,0,0,0,0,0,0,0,1,
scooby_state_154f9c72c300|12|0 1,0,0,0,0,0,0,0,0,0,0,0,0,0,0,1,
scooby_state_154f9c74f646|31|0 1,0,0,0,0,0,0,0,0,0,0,0,0,0,0,1,
scooby_state_154f9c6f9501|20|1 1,0,0,0,0,0,0,0,0,0,0,0,0,0,0,1,
scooby_state_154f9c6f93bc|57|-4 1,0,0,0,0,0,0,0,0,0,0,0,0,0,0,1,
scooby_state_154f9c7d01d0|7|0 1,0,0,0,0,0,0,0,0,0,0,0,0,0,0,1,
scooby_state_154f9c6fdcc2|51|1 1,0,0,0,0,0,0,0,0,0,0,0,0,0,0,1,
scooby_state_55f071ae0fe0|63|0 1,0,0,0,0,0,0,0,0,0,0,0,0,0,0,1,
scooby_state_154f9c6bf2c0|56|-1 1,0,0,0,0,0,0,0,0,0,0,0,0,0,0,1,
scooby_state_154f9c6fd001|0|-8 1,0,0,0,0,0,0,0,0,0,0,0,0,0,0,1,
scooby_state_154f9c74f120|4|0 1,0,0,0,0,0,0,0,0,0,0,0,0,0,0,1,
scooby_state_154f9c7325c1|23|1 1,0,0,0,0,0,0,0,0,0,0,0,0,0,0,1,
scooby_state_154f9c735102|4|1 1,0,0,0,0,0,0,0,0,0,0,0,0,0,0,1,
scooby_state_154f9c6f18c0|35|25 1,0,0,0,0,0,0,0,0,0,0,0,0,0,0,1,
scooby_state_154f9c74f143|5|1 1,0,0,0,0,0,0,0,0,0,0,0,0,0,0,1,
scooby_state_154f9c75958f|22|1 1,0,0,0,0,0,0,0,0,0,0,0,0,0,0,1,
scooby_state_154f9c71e260|9|0 1,0,0,0,0,0,0,0,0,0,0,0,0,0,0,1,
scooby_state_154f9c733123|48|0 1,0,0,0,0,0,0,0,0,0,0,0,0,0,0,1,
scooby_state_154f9c71c100|4|0 1,0,0,0,0,0,0,0,0,0,0,0,0,0,0,1,
scooby_state_154f9c6f9494|18|1 1,0,0,0,0,0,0,0,0,0,0,0,0,0,0,1,
scooby_state_154f9c72c420|16|5 1,0,0,0,0,0,0,0,0,0,0,0,0,0,0,1,
scooby_state_154f9c71c141|5|1 1,0,0,0,0,0,0,0,0,0,0,0,0,0,0,1,
scooby_state_154f9c6fabc5|47|1 1,0,0,0,0,0,0,0,0,0,0,0,0,0,0,1,
scooby_state_154f9c6fd043|1|1 1,0,0,0,0,0,0,0,0,0,0,0,0,0,0,1,
scooby_state_154f9c6f93cc|32|1 1,0,0,0,0,0,0,0,0,0,0,0,0,0,0,1,
scooby_state_154f9c6fe842|33|1 1,0,0,0,0,0,0,0,0,0,0,0,0,0,0,1,
scooby_state_154f9c735076|59|3 1,0,0,0,0,0,0,0,0,0,0,0,0,0,0,1,
scooby_state_154f9c6f9643|25|1 1,0,0,0,0,0,0,0,0,0,0,0,0,0,0,1,
scooby_state_154f9c6fac02|48|1 1,0,0,0,0,0,0,0,0,0,0,0,0,0,0,1,
scooby_state_154f9c72b490|18|5 1,0,0,0,0,0,0,0,0,0,0,0,0,0,0,1,
scooby_state_154f9c759567|21|4 1,0,0,0,0,0,0,0,0,0,0,0,0,0,0,1,
scooby_state_154f9c6fb42d|16|16 1,0,0,0,0,0,0,0,0,0,0,0,0,0,0,1,
scooby_state_154f9c7d0264|35|0 1,0,0,0,0,0,0,0,0,0,0,0,0,0,0,1,
scooby_state_154f9c7d02c3|11|1 1,0,0,0,0,0,0,0,0,0,0,0,0,0,0,1,
scooby_state_154f9c6fdbe0|47|2 1,0,0,0,0,0,0,0,0,0,0,0,0,0,0,1,
scooby_state_154f9c7328e8|13|-5 1,0,0,0,0,0,0,0,0,0,0,0,0,0,0,1,
scooby_state_154f9c7d0240|9|1 1,0,0,0,0,0,0,0,0,0,0,0,0,0,0,1,
scooby_state_154f9c6fb090|2|-34 1,0,0,0,0,0,0,0,0,0,0,0,0,0,0,1,
scooby_state_55f071ae100d|10|0 1,0,0,0,0,0,0,0,0,0,0,0,0,0,0,1,
scooby_state_154f9c732504|20|1 1,0,0,0,0,0,0,0,0,0,0,0,0,0,0,1,
scooby_state_154f9c729941|37|1 1,0,0,0,0,0,0,0,0,0,0,0,0,0,0,1,
scooby_state_154f9c729930|36|0 1,0,0,0,0,0,0,0,0,0,0,0,0,0,0,1,
scooby_state_154f9c7ce0c2|3|1 1,0,0,0,0,0,0,0,0,0,0,0,0,0,0,1,
scooby_state_154f9c732648|25|-20 1,0,0,0,0,0,0,0,0,0,0,0,0,0,0,1,
scooby_state_154f9c732cc0|51|13 1,0,0,0,0,0,0,0,0,0,0,0,0,0,0,1,
scooby_state_154f9c7d0254|31|2 1,0,0,0,0,0,0,0,0,0,0,0,0,0,0,1,
scooby_state_154f9c6ff760|55|2 1,0,0,0,0,0,0,0,0,0,0,0,0,0,0,1,
scooby_state_154f9c7328c0|35|10 1,0,0,0,0,0,0,0,0,0,0,0,0,0,0,1,
scooby_state_154f9c6fd809|32|1 1,0,0,0,0,0,0,0,0,0,0,0,0,0,0,1,
scooby_state_154f9c759578|1|0 1,0,0,0,0,0,0,0,0,0,0,0,0,0,0,1,
scooby_state_154f9c74f644|25|1 1,0,0,0,0,0,0,0,0,0,0,0,0,0,0,1,
scooby_state_154f9c6fd945|37|1 1,0,0,0,0,0,0,0,0,0,0,0,0,0,0,1,
scooby_state_154f9c6fd848|33|1 1,0,0,0,0,0,0,0,0,0,0,0,0,0,0,1,
scooby_state_154f9c6fd880|34|1 1,0,0,0,0,0,0,0,0,0,0,0,0,0,0,1,
scooby_state_154f9c6fd8c1|35|1 1,0,0,0,0,0,0,0,0,0,0,0,0,0,0,1,
scooby_state_154f9c6fc978|37|3 1,0,0,0,0,0,0,0,0,0,0,0,0,0,0,1,
scooby_state_154f9c6fe7c2|31|1 1,0,0,0,0,0,0,0,0,0,0,0,0,0,0,1,
scooby_state_154f9c6faf60|61|26 1,0,0,0,0,0,0,0,0,0,0,0,0,0,0,1,
scooby_state_154f9c72c540|21|1 1,0,0,0,0,0,0,0,0,0,0,0,0,0,0,1,
scooby_state_154f9c6f125f|9|1 1,0,0,0,0,0,0,0,0,0,0,0,0,0,0,1,
scooby_state_154f9c732f73|61|35 1,0,0,0,0,0,0,0,0,0,0,0,0,0,0,1,
scooby_state_154f9c71e284|10|1 1,0,0,0,0,0,0,0,0,0,0,0,0,0,0,1,
scooby_state_154f9c6fd6e4|61|0 1,0,0,0,0,0,0,0,0,0,0,0,0,0,0,1,
scooby_state_55f071ae1000|10|0 1,0,0,0,0,0,0,0,0,0,0,0,0,0,0,1,
scooby_state_154f9c72b380|14|-4 1,0,0,0,0,0,0,0,0,0,0,0,0,0,0,1,
scooby_state_154f9c6fe350|13|1 1,0,0,0,0,0,0,0,0,0,0,0,0,0,0,1,
scooby_state_154f9c6f9981|38|1 1,0,0,0,0,0,0,0,0,0,0,0,0,0,0,1,
scooby_state_154f9c732f73|36|-1 1,0,0,0,0,0,0,0,0,0,0,0,0,0,0,1,
scooby_state_154f9c6f9400|16|1 1,0,0,0,0,0,0,0,0,0,0,0,0,0,0,1,
scooby_state_154f9c6fe182|6|-44 1,0,0,0,0,0,0,0,0,0,0,0,0,0,0,1,
scooby_state_154f9c733100|4|1 1,0,0,0,0,0,0,0,0,0,0,0,0,0,0,1,
scooby_state_154f9c6fec8e|50|45 1,0,0,0,0,0,0,0,0,0,0,0,0,0,0,1,
scooby_state_154f9c72c443|17|1 1,0,0,0,0,0,0,0,0,0,0,0,0,0,0,1,
scooby_state_154f9c6fa006|0|-61 1,0,0,0,0,0,0,0,0,0,0,0,0,0,0,1,
scooby_state_154f9c6fd204|8|1 1,0,0,0,0,0,0,0,0,0,0,0,0,0,0,1,
scooby_state_154f9c7d0240|61|0 1,0,0,0,0,0,0,0,0,0,0,0,0,0,0,1,
scooby_state_154f9c7350c1|58|1 1,0,0,0,0,0,0,0,0,0,0,0,0,0,0,1,
scooby_state_154f9c72c530|20|2 1,0,0,0,0,0,0,0,0,0,0,0,0,0,0,1,
scooby_state_154f9c6fdda0|54|3 1,0,0,0,0,0,0,0,0,0,0,0,0,0,0,1,
scooby_state_154f9c6f67c0|31|1 1,0,0,0,0,0,0,0,0,0,0,0,0,0,0,1,
scooby_state_154f9c6faa18|40|0 1,0,0,0,0,0,0,0,0,0,0,0,0,0,0,1,
scooby_state_154f9c72b3c3|15|1 1,0,0,0,0,0,0,0,0,0,0,0,0,0,0,1,
scooby_state_154f9c7322d0|11|0 1,0,0,0,0,0,0,0,0,0,0,0,0,0,0,1,
scooby_state_154f9c7d0230|60|0 1,0,0,0,0,0,0,0,0,0,0,0,0,0,0,1,
scooby_state_154f9c7350cf|11|-37 1,0,0,0,0,0,0,0,0,0,0,0,0,0,0,1,
scooby_state_55f071adf510|20|0 1,0,0,0,0,0,0,0,0,0,0,0,0,0,0,1,
scooby_state_154f9c6ff252|9|-20 1,0,0,0,0,0,0,0,0,0,0,0,0,0,0,1,
scooby_state_154f9c6bf100|2|-3 1,0,0,0,0,0,0,0,0,0,0,0,0,0,0,1,
scooby_state_154f9c6fe894|34|1 1,0,0,0,0,0,0,0,0,0,0,0,0,0,0,1,
scooby_state_154f9c7ad7c1|31|1 1,0,0,0,0,0,0,0,0,0,0,0,0,0,0,1,
scooby_state_154f9c729a01|40|34 1,0,0,0,0,0,0,0,0,0,0,0,0,0,0,1,
scooby_state_154f9c6fdc9e|50|2 1,0,0,0,0,0,0,0,0,0,0,0,0,0,0,1,
scooby_state_154f9c73258f|19|-11 1,0,0,0,0,0,0,0,0,0,0,0,0,0,0,1,
scooby_state_154f9c6fd9f0|39|-4 1,0,0,0,0,0,0,0,0,0,0,0,0,0,0,1,
scooby_state_154f9c6bf230|5|-45 1,0,0,0,0,0,0,0,0,0,0,0,0,0,0,1,
scooby_state_154f9c6fda06|40|1 1,0,0,0,0,0,0,0,0,0,0,0,0,0,0,1,
scooby_state_154f9c6fdac8|43|6 1,0,0,0,0,0,0,0,0,0,0,0,0,0,0,1,
scooby_state_154f9c6fe2c0|11|5 1,0,0,0,0,0,0,0,0,0,0,0,0,0,0,1,
scooby_state_154f9c6f19d4|39|4 1,0,0,0,0,0,0,0,0,0,0,0,0,0,0,1,
scooby_state_154f9c6fe78a|30|2 1,0,0,0,0,0,0,0,0,0,0,0,0,0,0,1,
scooby_state_154f9c7ad7b0|30|0 1,0,0,0,0,0,0,0,0,0,0,0,0,0,0,1,
scooby_state_154f9c6f96c4|27|1 1,0,0,0,0,0,0,0,0,0,0,0,0,0,0,1,
scooby_state_154f9c71e2c6|11|1 1,0,0,0,0,0,0,0,0,0,0,0,0,0,0,1,
scooby_state_154f9c7324c1|19|1 1,0,0,0,0,0,0,0,0,0,0,0,0,0,0,1,
scooby_state_154f9c6fcd02|52|1 1,0,0,0,0,0,0,0,0,0,0,0,0,0,0,1,
scooby_state_154f9c6fbeab|58|2 1,0,0,0,0,0,0,0,0,0,0,0,0,0,0,1,
scooby_state_154f9c6fd1c6|56|0 1,0,0,0,0,0,0,0,0,0,0,0,0,0,0,1,
scooby_state_154f9c732450|17|5 1,0,0,0,0,0,0,0,0,0,0,0,0,0,0,1,

scooby_action_0_deg_dist 0,588947,0,0,0,0,0,0,0,0,0,0,0,0,0,0,
scooby_action_4_deg_dist 0,12343,38,0,3,0,0,0,0,0,0,0,0,0,0,0,
scooby_action_3_deg_dist 0,13155,53,0,12,0,1,0,0,0,0,0,0,0,0,0,
scooby_action_32_deg_dist 0,7919,4,0,0,0,0,0,0,0,0,0,0,0,0,0,
scooby_action_5_deg_dist 0,11980,40,0,12,0,0,0,0,0,0,0,0,0,0,0,
scooby_action_1_deg_dist 0,7075125,337835,0,239042,0,749606,0,0,0,0,0,0,0,0,0,
scooby_action_30_deg_dist 0,8359,3,0,0,0,0,0,0,0,0,0,0,0,0,0,
scooby_action_-3_deg_dist 0,10645,11,0,0,0,0,0,0,0,0,0,0,0,0,0,
scooby_action_10_deg_dist 0,11256,22,0,19,0,98,0,0,0,0,0,0,0,0,0,
scooby_action_-1_deg_dist 0,10676,8,0,1,0,0,0,0,0,0,0,0,0,0,0,
scooby_action_23_deg_dist 0,8630,19,0,6,0,0,0,0,0,0,0,0,0,0,0,
scooby_action_-6_deg_dist 0,10623,13,0,1,0,0,0,0,0,0,0,0,0,0,0,
scooby_action_11_deg_dist 0,11072,36,0,31,0,103,0,0,0,0,0,0,0,0,0,
scooby_action_22_deg_dist 0,9084,5,0,1,0,0,0,0,0,0,0,0,0,0,0,
scooby_action_12_deg_dist 0,10675,12,0,6,0,28,0,0,0,0,0,0,0,0,0,

scooby_track_called 9127558
scooby_track_same_address 5764
scooby_track_evict 9121538

scooby_reward_demand_called 9127558
scooby_reward_demand_pt_not_found 8126024
scooby_reward_demand_pt_found 1001534
scooby_reward_demand_pt_found_total 1001534
scooby_reward_demand_has_reward 13
scooby_reward_train_called 7961735
scooby_reward_assign_reward_called 9121550
scooby_reward_no_pref 588939
scooby_reward_incorrect 7372796
scooby_reward_correct_untimely 769974
scooby_reward_correct_timely 231547
scooby_reward_out_of_bounds 158294
scooby_reward_tracker_hit 0

scooby_reward_none_low_bw 588939
scooby_reward_none_high_bw 0
scooby_reward_incorrect_low_bw 7372796
scooby_reward_incorrect_high_bw 0
scooby_reward_correct_untimely_low_bw 769974
scooby_reward_correct_untimely_high_bw 0
scooby_reward_correct_timely_low_bw 231547
scooby_reward_correct_timely_high_bw 0
scooby_reward_out_of_bounds_low_bw 158294
scooby_reward_out_of_bounds_high_bw 0
scooby_reward_tracker_hit_low_bw 0
scooby_reward_tracker_hit_high_bw 0

scooby_reward_1 0,7275805,768856,228235,125605,0,
scooby_reward_3 0,11181,255,458,1041,0,
scooby_reward_4 0,10257,207,444,1289,0,
scooby_reward_5 0,9814,186,419,1541,0,
scooby_reward_10 0,7817,169,481,2775,0,
scooby_reward_11 0,7519,139,520,2946,0,
scooby_reward_12 0,6866,84,382,3083,0,
scooby_reward_22 0,4121,32,211,4523,0,
scooby_reward_23 0,3951,19,178,4477,0,
scooby_reward_30 0,2676,12,110,5149,0,
scooby_reward_32 0,2470,15,93,5328,0,
scooby_reward_-1 0,10277,0,8,54,0,
scooby_reward_-3 0,10164,0,5,145,0,
scooby_reward_-6 0,9878,0,3,338,0,
scooby_reward_0 588939,0,0,0,0,0,

scooby_train_called 9121537
scooby_train_compute_reward 7961735

scooby_register_fill_called 8367842
scooby_register_fill_set 6868116
scooby_register_fill_set_total 6868116

scooby_register_prefetch_hit_called 3842823
scooby_register_prefetch_hit_set 1472700
scooby_register_prefetch_hit_set_total 1472700

scooby_pref_issue_scooby 12799520

learning_engine_featurewise.action.called 9127558
learning_engine_featurewise.action.explore 16512
learning_engine_featurewise.action.exploit 9111046
learning_engine_featurewise.action.fallback 7245598
learning_engine_featurewise.action.dyn_fallback_saved_bw 0
learning_engine_featurewise.action.dyn_fallback_saved_bw_acc 1009569
learning_engine_featurewise.action.index_1_explored 1130
learning_engine_featurewise.action.index_1_exploited 8400478
learning_engine_featurewise.action.index_3_explored 1089
learning_engine_featurewise.action.index_3_exploited 12132
learning_engine_featurewise.action.index_4_explored 1101
learning_engine_featurewise.action.index_4_exploited 11283
learning_engine_featurewise.action.index_5_explored 1069
learning_engine_featurewise.action.index_5_exploited 10963
learning_engine_featurewise.action.index_10_explored 1145
learning_engine_featurewise.action.index_10_exploited 10250
learning_engine_featurewise.action.index_11_explored 1105
learning_engine_featurewise.action.index_11_exploited 10137
learning_engine_featurewise.action.index_12_explored 1141
learning_engine_featurewise.action.index_12_exploited 9580
learning_engine_featurewise.action.index_22_explored 1109
learning_engine_featurewise.action.index_22_exploited 7981
learning_engine_featurewise.action.index_23_explored 1096
learning_engine_featurewise.action.index_23_exploited 7559
learning_engine_featurewise.action.index_30_explored 1080
learning_engine_featurewise.action.index_30_exploited 7282
learning_engine_featurewise.action.index_32_explored 1047
learning_engine_featurewise.action.index_32_exploited 6876
learning_engine_featurewise.action.index_-1_explored 1099
learning_engine_featurewise.action.index_-1_exploited 9586
learning_engine_featurewise.action.index_-3_explored 1096
learning_engine_featurewise.action.index_-3_exploited 9560
learning_engine_featurewise.action.index_-6_explored 1098
learning_engine_featurewise.action.index_-6_exploited 9539
learning_engine_featurewise.action.index_0_explored 1107
learning_engine_featurewise.action.index_0_exploited 587840
learning_engine_featurewise.learn.called 9121537
learning_engine_featurewise.learn.su_skip_PC 0
learning_engine_featurewise.learn.su_skip_PC_Delta 0

learning_engine_featurewise.q_value_histogram.bucket_0 861069
learning_engine_featurewise.q_value_histogram.bucket_1 15178
learning_engine_featurewise.q_value_histogram.bucket_2 7302834
learning_engine_featurewise.q_value_histogram.bucket_3 70588
learning_engine_featurewise.q_value_histogram.bucket_4 48088
learning_engine_featurewise.q_value_histogram.bucket_5 559789
learning_engine_featurewise.q_value_histogram.bucket_6 253500
learning_engine_featurewise.q_value_histogram.bucket_7 0

learning_engine_featurewise.consensus.total 9111046
learning_engine_featurewise.consensus.feature_align_PC 8403778
learning_engine_featurewise.consensus.feature_align_PC_ratio 0.92
learning_engine_featurewise.consensus.feature_align_PC_Delta 8425038
learning_engine_featurewise.consensus.feature_align_PC_Delta_ratio 0.92
learning_engine_featurewise.consensus.feature_align_all 8401816
learning_engine_featurewise.consensus.feature_align_all_ratio 0.92

learning_engine_featurewise.feature_PC_min_weight 1000000.00000000
learning_engine_featurewise.feature_PC_max_weight 0.00000000
learning_engine_featurewise.feature_PC_Delta_min_weight 1000000.00000000
learning_engine_featurewise.feature_PC_Delta_max_weight 0.00000000
unique_pcs 271
unique_pages 12619
unique_trigger_pcs 56
total_bitmaps_seen 0
unique_bitmaps_seen 0

scooby_bw_epochs 4296153
scooby_bw_level_0 3787824
scooby_bw_level_1 428996
scooby_bw_level_2 54649
scooby_bw_level_3 24684

scooby_ipc_epochs 0
scooby_ipc_level_0 0
scooby_ipc_level_1 0
scooby_ipc_level_2 0
scooby_ipc_level_3 0

scooby_cache_acc_epochs 1073010
scooby_cache_acc_level_0 594516
scooby_cache_acc_level_1 380071
scooby_cache_acc_level_2 77412
scooby_cache_acc_level_3 11658
scooby_cache_acc_level_4 1475
scooby_cache_acc_level_5 1312
scooby_cache_acc_level_6 987
scooby_cache_acc_level_7 287
scooby_cache_acc_level_8 164
scooby_cache_acc_level_9 5128

Channel_0_RQ_row_buffer_hit 1872605
Channel_0_RQ_row_buffer_miss 6018856
Channel_0_WQ_row_buffer_hit 17154
Channel_0_WQ_row_buffer_miss 18846
Channel_0_WQ_full 0
Channel_0_dbus_congested 2678627

avg_congested_cycle 4

DRAM_bw_pochs 4296153
DRAM_bw_level_0 3787824
DRAM_bw_level_1 428996
DRAM_bw_level_2 54649
DRAM_bw_level_3 24684
