*************************************************
   ChampSim Multicore Out-of-Order Simulator
   Last compiled: Apr  3 2025 20:54:34
*************************************************
parsing config file: /home/zir/Pythia/config/spp_dev2.ini

trace_0 /home/zir/ChampSim/ML-DPC/ChampSimTraces/gap/cc-13.trace.gz
adding L2C_PREFETCHER: SPP_dev2
Initialize SIGNATURE TABLE
ST_SET: 1
ST_WAY: 256
ST_TAG_BIT: 16
ST_TAG_MASK: ffff

Initialize PATTERN TABLE
PT_SET: 512
PT_WAY: 4
SIG_DELTA_BIT: 7
C_SIG_BIT: 4
C_DELTA_BIT: 4

Initialize PREFETCH FILTER
FILTER_SET: 1024
fill_threshold: 90
pf_threshold: 40

Initialize SHIP state
warmup_instructions 10000000
simulation_instructions 50000000
champsim_seed 100
measure_ipc 0
measure_ipc_epoch 1000
measure_dram_bw 1
measure_dram_bw_epoch 256
measure_cache_acc 1
measure_cache_acc_epoch 1024
l1d_perfect 0
l2c_perfect 0
llc_perfect 0
l1d_semi_perfect 0
l2c_semi_perfect 0
llc_semi_perfect 0
semi_perfect_cache_page_buffer_size 64

num_cpus 1
cpu_freq 4000
dram_io_freq 2400
page_size 4096
block_size 64
max_read_per_cycle 8
max_fill_per_cycle 1
dram_channels 1
log2_dram_channels 0
dram_ranks 1
dram_banks 8
dram_rows 65536
dram_columns 128
dram_row_size 8
dram_size 4096
dram_pages 1048576

fetch_width 6
decode_width 6
exec_width 4
lq_width 2
sq_width 2
retire_width 4
scheduler_size 128
branch_mispredict_penalty 20
rob_size 256
lq_size 72
sq_size 56
num_instr_destinations_sparc 4
num_instr_destinations 2
num_instr_sources 4

itlb_set 16
itlb_way 8
itlb_rq_size 16
itlb_wq_size 16
itlb_pq_size 0
itlb_mshr_size 8
itlb_latency 1

dtlb_set 16
dtlb_way 4
dtlb_rq_size 16
dtlb_wq_size 16
dtlb_pq_size 0
dtlb_mshr_size 8
dtlb_latency 1

stlb_set 128
stlb_way 12
stlb_rq_size 32
stlb_wq_size 32
stlb_pq_size 0
stlb_mshr_size 16
stlb_latency 8

l1i_size 32
l1i_set 64
l1i_way 8
l1i_rq_size 64
l1i_wq_size 64
l1i_pq_size 8
l1i_mshr_size 8
l1i_latency 1

l1d_size 32
l1d_set 64
l1d_way 8
l1d_rq_size 64
l1d_wq_size 64
l1d_pq_size 8
l1d_mshr_size 16
l1d_latency 4

l2c_size 256
l2c_set 512
l2c_way 8
l2c_rq_size 32
l2c_wq_size 32
l2c_pq_size 32
l2c_mshr_size 32
l2c_latency 10

llc_size 2048
llc_set 2048
llc_way 16
llc_rq_size 32
llc_wq_size 32
llc_pq_size 32
llc_mshr_size 64
llc_latency 20

dram_channel_width 8
dram_wq_size 64
dram_rq_size 64
tRP 15
tRCD 15
tCAS 12.5
dram_dbus_turn_around_time 30
dram_write_high_wm 56
dram_write_low_wm 48
min_dram_writes_per_switch 16
dram_mtps 2400
dram_dbus_return_time 13


Heartbeat CPU  0 instructions:    1000001 cycles:     262003 heartbeat IPC: 3.81675 cumulative IPC: 3.81675 (Simulation time: 0 hr 0 min 1 sec) 
Heartbeat CPU  0 instructions:    2000000 cycles:     776074 heartbeat IPC: 1.94525 cumulative IPC: 2.57707 (Simulation time: 0 hr 0 min 2 sec) 
Heartbeat CPU  0 instructions:    3000001 cycles:    2184781 heartbeat IPC: 0.70987 cumulative IPC: 1.37314 (Simulation time: 0 hr 0 min 3 sec) 
Heartbeat CPU  0 instructions:    4000000 cycles:    3573592 heartbeat IPC: 0.72004 cumulative IPC: 1.11932 (Simulation time: 0 hr 0 min 4 sec) 
Heartbeat CPU  0 instructions:    5000000 cycles:    4844593 heartbeat IPC: 0.78678 cumulative IPC: 1.03208 (Simulation time: 0 hr 0 min 5 sec) 
Heartbeat CPU  0 instructions:    6000002 cycles:    6091989 heartbeat IPC: 0.80167 cumulative IPC: 0.98490 (Simulation time: 0 hr 0 min 6 sec) 
Heartbeat CPU  0 instructions:    7000000 cycles:    7295445 heartbeat IPC: 0.83094 cumulative IPC: 0.95950 (Simulation time: 0 hr 0 min 7 sec) 
Heartbeat CPU  0 instructions:    8000000 cycles:    8364044 heartbeat IPC: 0.93580 cumulative IPC: 0.95648 (Simulation time: 0 hr 0 min 8 sec) 
Heartbeat CPU  0 instructions:    9000003 cycles:    9546572 heartbeat IPC: 0.84565 cumulative IPC: 0.94275 (Simulation time: 0 hr 0 min 9 sec) 
Heartbeat CPU  0 instructions:   10000000 cycles:   10687954 heartbeat IPC: 0.87613 cumulative IPC: 0.93563 (Simulation time: 0 hr 0 min 11 sec) 

Warmup complete CPU  0 instructions:   10000001 cycles:   10687977 (Simulation time: 0 hr 0 min 11 sec) 

Heartbeat CPU  0 instructions:   11000002 cycles:   16916664 heartbeat IPC: 0.16055 cumulative IPC: 0.16055 (Simulation time: 0 hr 0 min 13 sec) 
Heartbeat CPU  0 instructions:   12000000 cycles:   22594389 heartbeat IPC: 0.17613 cumulative IPC: 0.16798 (Simulation time: 0 hr 0 min 15 sec) 
Heartbeat CPU  0 instructions:   13000001 cycles:   28637760 heartbeat IPC: 0.16547 cumulative IPC: 0.16713 (Simulation time: 0 hr 0 min 17 sec) 
Heartbeat CPU  0 instructions:   14000000 cycles:   34810460 heartbeat IPC: 0.16200 cumulative IPC: 0.16582 (Simulation time: 0 hr 0 min 20 sec) 
Heartbeat CPU  0 instructions:   15000002 cycles:   41315370 heartbeat IPC: 0.15373 cumulative IPC: 0.16325 (Simulation time: 0 hr 0 min 22 sec) 
Heartbeat CPU  0 instructions:   16000000 cycles:   47076769 heartbeat IPC: 0.17357 cumulative IPC: 0.16489 (Simulation time: 0 hr 0 min 24 sec) 
Heartbeat CPU  0 instructions:   17000001 cycles:   52608181 heartbeat IPC: 0.18079 cumulative IPC: 0.16698 (Simulation time: 0 hr 0 min 26 sec) 
Heartbeat CPU  0 instructions:   18000003 cycles:   58650134 heartbeat IPC: 0.16551 cumulative IPC: 0.16680 (Simulation time: 0 hr 0 min 29 sec) 
Heartbeat CPU  0 instructions:   19000000 cycles:   64600347 heartbeat IPC: 0.16806 cumulative IPC: 0.16694 (Simulation time: 0 hr 0 min 31 sec) 
Heartbeat CPU  0 instructions:   20000000 cycles:   70779072 heartbeat IPC: 0.16185 cumulative IPC: 0.16641 (Simulation time: 0 hr 0 min 33 sec) 
Heartbeat CPU  0 instructions:   21000002 cycles:   76629739 heartbeat IPC: 0.17092 cumulative IPC: 0.16681 (Simulation time: 0 hr 0 min 35 sec) 
Heartbeat CPU  0 instructions:   22000000 cycles:   82558737 heartbeat IPC: 0.16866 cumulative IPC: 0.16697 (Simulation time: 0 hr 0 min 38 sec) 
Heartbeat CPU  0 instructions:   23000000 cycles:   88334772 heartbeat IPC: 0.17313 cumulative IPC: 0.16742 (Simulation time: 0 hr 0 min 40 sec) 
Heartbeat CPU  0 instructions:   24000000 cycles:   93580274 heartbeat IPC: 0.19064 cumulative IPC: 0.16889 (Simulation time: 0 hr 0 min 42 sec) 
Heartbeat CPU  0 instructions:   25000003 cycles:   99521346 heartbeat IPC: 0.16832 cumulative IPC: 0.16886 (Simulation time: 0 hr 0 min 45 sec) 
Heartbeat CPU  0 instructions:   26000002 cycles:  105147461 heartbeat IPC: 0.17774 cumulative IPC: 0.16938 (Simulation time: 0 hr 0 min 47 sec) 
Heartbeat CPU  0 instructions:   27000000 cycles:  110355702 heartbeat IPC: 0.19200 cumulative IPC: 0.17057 (Simulation time: 0 hr 0 min 49 sec) 
Heartbeat CPU  0 instructions:   28000000 cycles:  115938256 heartbeat IPC: 0.17913 cumulative IPC: 0.17102 (Simulation time: 0 hr 0 min 51 sec) 
Heartbeat CPU  0 instructions:   29000002 cycles:  121210872 heartbeat IPC: 0.18966 cumulative IPC: 0.17191 (Simulation time: 0 hr 0 min 54 sec) 
Heartbeat CPU  0 instructions:   30000001 cycles:  126949684 heartbeat IPC: 0.17425 cumulative IPC: 0.17203 (Simulation time: 0 hr 0 min 56 sec) 
Heartbeat CPU  0 instructions:   31000000 cycles:  132590341 heartbeat IPC: 0.17728 cumulative IPC: 0.17227 (Simulation time: 0 hr 0 min 58 sec) 
Heartbeat CPU  0 instructions:   32000000 cycles:  138108753 heartbeat IPC: 0.18121 cumulative IPC: 0.17266 (Simulation time: 0 hr 1 min 1 sec) 
Heartbeat CPU  0 instructions:   33000002 cycles:  143806758 heartbeat IPC: 0.17550 cumulative IPC: 0.17278 (Simulation time: 0 hr 1 min 3 sec) 
Heartbeat CPU  0 instructions:   34000001 cycles:  149252558 heartbeat IPC: 0.18363 cumulative IPC: 0.17320 (Simulation time: 0 hr 1 min 5 sec) 
Heartbeat CPU  0 instructions:   35000002 cycles:  154278011 heartbeat IPC: 0.19899 cumulative IPC: 0.17411 (Simulation time: 0 hr 1 min 7 sec) 
Heartbeat CPU  0 instructions:   36000000 cycles:  160170947 heartbeat IPC: 0.16969 cumulative IPC: 0.17393 (Simulation time: 0 hr 1 min 10 sec) 
Heartbeat CPU  0 instructions:   37000000 cycles:  165648153 heartbeat IPC: 0.18257 cumulative IPC: 0.17424 (Simulation time: 0 hr 1 min 12 sec) 
Heartbeat CPU  0 instructions:   38000001 cycles:  170626742 heartbeat IPC: 0.20086 cumulative IPC: 0.17507 (Simulation time: 0 hr 1 min 14 sec) 
Heartbeat CPU  0 instructions:   39000000 cycles:  176026743 heartbeat IPC: 0.18518 cumulative IPC: 0.17540 (Simulation time: 0 hr 1 min 16 sec) 
Heartbeat CPU  0 instructions:   40000000 cycles:  181819091 heartbeat IPC: 0.17264 cumulative IPC: 0.17530 (Simulation time: 0 hr 1 min 19 sec) 
Heartbeat CPU  0 instructions:   41000001 cycles:  187359994 heartbeat IPC: 0.18048 cumulative IPC: 0.17547 (Simulation time: 0 hr 1 min 21 sec) 
Heartbeat CPU  0 instructions:   42000001 cycles:  192944268 heartbeat IPC: 0.17907 cumulative IPC: 0.17558 (Simulation time: 0 hr 1 min 23 sec) 
Heartbeat CPU  0 instructions:   43000002 cycles:  198791290 heartbeat IPC: 0.17103 cumulative IPC: 0.17544 (Simulation time: 0 hr 1 min 26 sec) 
Heartbeat CPU  0 instructions:   44000000 cycles:  204440654 heartbeat IPC: 0.17701 cumulative IPC: 0.17548 (Simulation time: 0 hr 1 min 28 sec) 
Heartbeat CPU  0 instructions:   45000000 cycles:  210262740 heartbeat IPC: 0.17176 cumulative IPC: 0.17537 (Simulation time: 0 hr 1 min 30 sec) 
Heartbeat CPU  0 instructions:   46000002 cycles:  215644730 heartbeat IPC: 0.18581 cumulative IPC: 0.17565 (Simulation time: 0 hr 1 min 32 sec) 
Heartbeat CPU  0 instructions:   47000001 cycles:  220651494 heartbeat IPC: 0.19973 cumulative IPC: 0.17622 (Simulation time: 0 hr 1 min 35 sec) 
Heartbeat CPU  0 instructions:   48000000 cycles:  226421079 heartbeat IPC: 0.17332 cumulative IPC: 0.17614 (Simulation time: 0 hr 1 min 37 sec) 
Heartbeat CPU  0 instructions:   49000000 cycles:  231806899 heartbeat IPC: 0.18567 cumulative IPC: 0.17638 (Simulation time: 0 hr 1 min 39 sec) 
Heartbeat CPU  0 instructions:   50000000 cycles:  237319521 heartbeat IPC: 0.18140 cumulative IPC: 0.17650 (Simulation time: 0 hr 1 min 41 sec) 
Heartbeat CPU  0 instructions:   51000000 cycles:  243236265 heartbeat IPC: 0.16901 cumulative IPC: 0.17631 (Simulation time: 0 hr 1 min 44 sec) 
Heartbeat CPU  0 instructions:   52000000 cycles:  248902299 heartbeat IPC: 0.17649 cumulative IPC: 0.17631 (Simulation time: 0 hr 1 min 46 sec) 
Heartbeat CPU  0 instructions:   53000002 cycles:  254348797 heartbeat IPC: 0.18360 cumulative IPC: 0.17647 (Simulation time: 0 hr 1 min 48 sec) 
Heartbeat CPU  0 instructions:   54000000 cycles:  260131949 heartbeat IPC: 0.17292 cumulative IPC: 0.17639 (Simulation time: 0 hr 1 min 51 sec) 
Heartbeat CPU  0 instructions:   55000000 cycles:  265525989 heartbeat IPC: 0.18539 cumulative IPC: 0.17658 (Simulation time: 0 hr 1 min 53 sec) 
Heartbeat CPU  0 instructions:   56000000 cycles:  271313878 heartbeat IPC: 0.17277 cumulative IPC: 0.17650 (Simulation time: 0 hr 1 min 55 sec) 
Heartbeat CPU  0 instructions:   57000002 cycles:  276925131 heartbeat IPC: 0.17821 cumulative IPC: 0.17653 (Simulation time: 0 hr 1 min 57 sec) 
Heartbeat CPU  0 instructions:   58000001 cycles:  282799861 heartbeat IPC: 0.17022 cumulative IPC: 0.17640 (Simulation time: 0 hr 2 min 0 sec) 
Heartbeat CPU  0 instructions:   59000003 cycles:  288615744 heartbeat IPC: 0.17194 cumulative IPC: 0.17630 (Simulation time: 0 hr 2 min 2 sec) 
Heartbeat CPU  0 instructions:   60000000 cycles:  294264979 heartbeat IPC: 0.17701 cumulative IPC: 0.17632 (Simulation time: 0 hr 2 min 4 sec) 
Finished CPU 0 instructions: 50000000 cycles: 283577010 cumulative IPC: 0.17632 (Simulation time: 0 hr 2 min 4 sec) 

ChampSim completed all CPUs

[ROI Statistics]
Core_0_instructions 50000000
Core_0_cycles 283577010
Core_0_IPC 0.17632

Core_0_branch_prediction_accuracy 88.98054
Core_0_branch_MPKI 22.11052
Core_0_average_ROB_occupancy_at_mispredict 41.13588

Core_0_L1D_total_access 10805626
Core_0_L1D_total_hit 7001420
Core_0_L1D_total_miss 3804206
Core_0_L1D_loads 10562342
Core_0_L1D_load_hit 6758136
Core_0_L1D_load_miss 3804206
Core_0_L1D_RFOs 243284
Core_0_L1D_RFO_hit 243284
Core_0_L1D_RFO_miss 0
Core_0_L1D_prefetches 0
Core_0_L1D_prefetch_hit 0
Core_0_L1D_prefetch_miss 0
Core_0_L1D_writebacks 0
Core_0_L1D_writeback_hit 0
Core_0_L1D_writeback_miss 0
Core_0_L1D_prefetch_requested 0
Core_0_L1D_prefetch_dropped 0
Core_0_L1D_prefetch_issued 0
Core_0_L1D_prefetch_filled 0
Core_0_L1D_prefetch_useful 0
Core_0_L1D_prefetch_useless 0
Core_0_L1D_prefetch_late 0
Core_0_L1D_average_miss_latency 81.47505

Core_0_L1D_rq_access 13613331
Core_0_L1D_rq_forward 0
Core_0_L1D_rq_merged 2855819
Core_0_L1D_rq_to_cache 10757512
Core_0_L1D_rq_full 0

Core_0_L1D_wq_access 243284
Core_0_L1D_wq_forward 0
Core_0_L1D_wq_merged 0
Core_0_L1D_wq_to_cache 243284
Core_0_L1D_wq_full 0

Core_0_L1D_pq_access 0
Core_0_L1D_pq_forward 0
Core_0_L1D_pq_merged 0
Core_0_L1D_pq_to_cache 0
Core_0_L1D_pq_full 0

Core_0_L1D_acc_epochs 287014
Core_0_L1D_acc_level_0 287014
Core_0_L1D_acc_level_1 0
Core_0_L1D_acc_level_2 0
Core_0_L1D_acc_level_3 0
Core_0_L1D_acc_level_4 0
Core_0_L1D_acc_level_5 0
Core_0_L1D_acc_level_6 0
Core_0_L1D_acc_level_7 0
Core_0_L1D_acc_level_8 0
Core_0_L1D_acc_level_9 0

Core_0_L1I_total_access 9682624
Core_0_L1I_total_hit 9682624
Core_0_L1I_total_miss 0
Core_0_L1I_loads 9682624
Core_0_L1I_load_hit 9682624
Core_0_L1I_load_miss 0
Core_0_L1I_RFOs 0
Core_0_L1I_RFO_hit 0
Core_0_L1I_RFO_miss 0
Core_0_L1I_prefetches 0
Core_0_L1I_prefetch_hit 0
Core_0_L1I_prefetch_miss 0
Core_0_L1I_writebacks 0
Core_0_L1I_writeback_hit 0
Core_0_L1I_writeback_miss 0
Core_0_L1I_prefetch_requested 0
Core_0_L1I_prefetch_dropped 0
Core_0_L1I_prefetch_issued 0
Core_0_L1I_prefetch_filled 0
Core_0_L1I_prefetch_useful 0
Core_0_L1I_prefetch_useless 0
Core_0_L1I_prefetch_late 0
Core_0_L1I_average_miss_latency -nan

Core_0_L1I_rq_access 49999992
Core_0_L1I_rq_forward 0
Core_0_L1I_rq_merged 40317368
Core_0_L1I_rq_to_cache 9682624
Core_0_L1I_rq_full 0

Core_0_L1I_wq_access 0
Core_0_L1I_wq_forward 0
Core_0_L1I_wq_merged 0
Core_0_L1I_wq_to_cache 0
Core_0_L1I_wq_full 0

Core_0_L1I_pq_access 0
Core_0_L1I_pq_forward 0
Core_0_L1I_pq_merged 0
Core_0_L1I_pq_to_cache 0
Core_0_L1I_pq_full 0

Core_0_L1I_acc_epochs 287014
Core_0_L1I_acc_level_0 287014
Core_0_L1I_acc_level_1 0
Core_0_L1I_acc_level_2 0
Core_0_L1I_acc_level_3 0
Core_0_L1I_acc_level_4 0
Core_0_L1I_acc_level_5 0
Core_0_L1I_acc_level_6 0
Core_0_L1I_acc_level_7 0
Core_0_L1I_acc_level_8 0
Core_0_L1I_acc_level_9 0

Core_0_L2C_total_access 4036464
Core_0_L2C_total_hit 939669
Core_0_L2C_total_miss 3096795
Core_0_L2C_loads 3804206
Core_0_L2C_load_hit 713888
Core_0_L2C_load_miss 3090318
Core_0_L2C_RFOs 0
Core_0_L2C_RFO_hit 0
Core_0_L2C_RFO_miss 0
Core_0_L2C_prefetches 22812
Core_0_L2C_prefetch_hit 16480
Core_0_L2C_prefetch_miss 6332
Core_0_L2C_writebacks 209446
Core_0_L2C_writeback_hit 209301
Core_0_L2C_writeback_miss 145
Core_0_L2C_prefetch_requested 738387
Core_0_L2C_prefetch_dropped 0
Core_0_L2C_prefetch_issued 738387
Core_0_L2C_prefetch_filled 7478
Core_0_L2C_prefetch_useful 4856
Core_0_L2C_prefetch_useless 2617
Core_0_L2C_prefetch_late 1
Core_0_L2C_average_miss_latency 82.81596

Core_0_L2C_rq_access 3804206
Core_0_L2C_rq_forward 0
Core_0_L2C_rq_merged 0
Core_0_L2C_rq_to_cache 3804206
Core_0_L2C_rq_full 0

Core_0_L2C_wq_access 209446
Core_0_L2C_wq_forward 0
Core_0_L2C_wq_merged 0
Core_0_L2C_wq_to_cache 209446
Core_0_L2C_wq_full 0

Core_0_L2C_pq_access 738387
Core_0_L2C_pq_forward 0
Core_0_L2C_pq_merged 629
Core_0_L2C_pq_to_cache 737758
Core_0_L2C_pq_full 0

Core_0_L2C_acc_epochs 287014
Core_0_L2C_acc_level_0 281865
Core_0_L2C_acc_level_1 1278
Core_0_L2C_acc_level_2 1083
Core_0_L2C_acc_level_3 737
Core_0_L2C_acc_level_4 297
Core_0_L2C_acc_level_5 842
Core_0_L2C_acc_level_6 419
Core_0_L2C_acc_level_7 239
Core_0_L2C_acc_level_8 126
Core_0_L2C_acc_level_9 128

Core_0_LLC_total_access 3925550
Core_0_LLC_total_hit 2679976
Core_0_LLC_total_miss 1245574
Core_0_LLC_loads 3090317
Core_0_LLC_load_hit 2176184
Core_0_LLC_load_miss 914133
Core_0_LLC_RFOs 0
Core_0_LLC_RFO_hit 0
Core_0_LLC_RFO_miss 0
Core_0_LLC_prefetches 626015
Core_0_LLC_prefetch_hit 295243
Core_0_LLC_prefetch_miss 330772
Core_0_LLC_writebacks 209218
Core_0_LLC_writeback_hit 208549
Core_0_LLC_writeback_miss 669
Core_0_LLC_prefetch_requested 0
Core_0_LLC_prefetch_dropped 0
Core_0_LLC_prefetch_issued 0
Core_0_LLC_prefetch_filled 379577
Core_0_LLC_prefetch_useful 271579
Core_0_LLC_prefetch_useless 106413
Core_0_LLC_prefetch_late 487
Core_0_LLC_average_miss_latency 182.59626

Core_0_LLC_rq_access 3090317
Core_0_LLC_rq_forward 0
Core_0_LLC_rq_merged 0
Core_0_LLC_rq_to_cache 3090317
Core_0_LLC_rq_full 0

Core_0_LLC_wq_access 209218
Core_0_LLC_wq_forward 0
Core_0_LLC_wq_merged 0
Core_0_LLC_wq_to_cache 209218
Core_0_LLC_wq_full 0

Core_0_LLC_pq_access 713909
Core_0_LLC_pq_forward 0
Core_0_LLC_pq_merged 9
Core_0_LLC_pq_to_cache 713900
Core_0_LLC_pq_full 0

Core_0_LLC_acc_epochs 287369
Core_0_LLC_acc_level_0 21050
Core_0_LLC_acc_level_1 23380
Core_0_LLC_acc_level_2 26791
Core_0_LLC_acc_level_3 34901
Core_0_LLC_acc_level_4 27513
Core_0_LLC_acc_level_5 29595
Core_0_LLC_acc_level_6 35802
Core_0_LLC_acc_level_7 27676
Core_0_LLC_acc_level_8 25387
Core_0_LLC_acc_level_9 35274

Core_0_major_page_fault 0
Core_0_minor_page_fault 5303

spp.pref.total 738387
spp.pref.at_L2 7674
spp.pref.at_LLC 730713

spp.depth.max 8
spp.depth.min 0
spp.depth.avg 0

spp.breadth.max 1
spp.breadth.min 0
spp.breadth.avg 0

delta_1 787647
delta_2 454
delta_3 44
delta_4 10
delta_7 10
delta_-4 6
delta_9 2
delta_5 1
delta_11 1
delta_17 1
delta_33 1

depth_1_delta_1 532025
depth_1_delta_2 454
depth_1_delta_3 44
depth_1_delta_4 10
depth_1_delta_7 10
depth_1_delta_-4 6
depth_1_delta_9 2
depth_1_delta_5 1
depth_1_delta_11 1
depth_1_delta_17 1
depth_1_delta_33 1
depth_2_delta_1 208180
depth_3_delta_1 40640
depth_4_delta_1 6462
depth_5_delta_1 290
depth_6_delta_1 31
depth_7_delta_1 13
depth_8_delta_1 6

Channel_0_RQ_row_buffer_hit 208505
Channel_0_RQ_row_buffer_miss 1036390
Channel_0_WQ_row_buffer_hit 75258
Channel_0_WQ_row_buffer_miss 113908
Channel_0_WQ_full 0
Channel_0_dbus_congested 283441

avg_congested_cycle 8

DRAM_bw_pochs 1149473
DRAM_bw_level_0 1095950
DRAM_bw_level_1 52842
DRAM_bw_level_2 675
DRAM_bw_level_3 6
