*************************************************
   ChampSim Multicore Out-of-Order Simulator
   Last compiled: Apr  3 2025 20:54:34
*************************************************
parsing config file: /home/zir/Pythia/config/pythia.ini

trace_0 /home/zir/ChampSim/ML-DPC/ChampSimTraces/gap/cc-5.trace.gz
adding L2C_PREFETCHER: Scooby
Initialize SHIP state
warmup_instructions 10000000
simulation_instructions 50000000
champsim_seed 53
measure_ipc 0
measure_ipc_epoch 1000
measure_dram_bw 1
measure_dram_bw_epoch 256
measure_cache_acc 1
measure_cache_acc_epoch 1024
l1d_perfect 0
l2c_perfect 0
llc_perfect 0
l1d_semi_perfect 0
l2c_semi_perfect 0
llc_semi_perfect 0
semi_perfect_cache_page_buffer_size 64

num_cpus 1
cpu_freq 4000
dram_io_freq 2400
page_size 4096
block_size 64
max_read_per_cycle 8
max_fill_per_cycle 1
dram_channels 1
log2_dram_channels 0
dram_ranks 1
dram_banks 8
dram_rows 65536
dram_columns 128
dram_row_size 8
dram_size 4096
dram_pages 1048576

fetch_width 6
decode_width 6
exec_width 4
lq_width 2
sq_width 2
retire_width 4
scheduler_size 128
branch_mispredict_penalty 20
rob_size 256
lq_size 72
sq_size 56
num_instr_destinations_sparc 4
num_instr_destinations 2
num_instr_sources 4

itlb_set 16
itlb_way 8
itlb_rq_size 16
itlb_wq_size 16
itlb_pq_size 0
itlb_mshr_size 8
itlb_latency 1

dtlb_set 16
dtlb_way 4
dtlb_rq_size 16
dtlb_wq_size 16
dtlb_pq_size 0
dtlb_mshr_size 8
dtlb_latency 1

stlb_set 128
stlb_way 12
stlb_rq_size 32
stlb_wq_size 32
stlb_pq_size 0
stlb_mshr_size 16
stlb_latency 8

l1i_size 32
l1i_set 64
l1i_way 8
l1i_rq_size 64
l1i_wq_size 64
l1i_pq_size 8
l1i_mshr_size 8
l1i_latency 1

l1d_size 32
l1d_set 64
l1d_way 8
l1d_rq_size 64
l1d_wq_size 64
l1d_pq_size 8
l1d_mshr_size 16
l1d_latency 4

l2c_size 256
l2c_set 512
l2c_way 8
l2c_rq_size 32
l2c_wq_size 32
l2c_pq_size 32
l2c_mshr_size 32
l2c_latency 10

llc_size 2048
llc_set 2048
llc_way 16
llc_rq_size 32
llc_wq_size 32
llc_pq_size 32
llc_mshr_size 64
llc_latency 20

dram_channel_width 8
dram_wq_size 64
dram_rq_size 64
tRP 15
tRCD 15
tCAS 12.5
dram_dbus_turn_around_time 30
dram_write_high_wm 56
dram_write_low_wm 48
min_dram_writes_per_switch 16
dram_mtps 2400
dram_dbus_return_time 13

scooby_alpha 0.0065088
scooby_gamma 0.556301
scooby_epsilon 0.00182284
scooby_state_num_bits 10
scooby_max_states 1024
scooby_seed 200
scooby_policy EGreedy
scooby_learning_type SARSA
scooby_actions 1,3,4,5,10,11,12,22,23,30,32,-1,-3,-6,0,
scooby_max_actions 15
scooby_pt_size 256
scooby_st_size 64
scooby_max_pcs 5
scooby_max_offsets 5
scooby_max_deltas 5
scooby_reward_none -4
scooby_reward_incorrect -8
scooby_reward_correct_untimely 12
scooby_reward_correct_timely 20
scooby_brain_zero_init 0
scooby_enable_reward_all 0
scooby_enable_track_multiple 0
scooby_enable_reward_out_of_bounds 1
scooby_reward_out_of_bounds -12
scooby_state_type 1
scooby_state_hash_type 11
scooby_access_debug 0
scooby_print_access_debug 0
scooby_print_access_debug_pc deadbeef
scooby_print_access_debug_pc_count 0
scooby_print_trace 0
scooby_enable_state_action_stats 1
scooby_enable_reward_tracker_hit 0
scooby_reward_tracker_hit -2
scooby_enable_featurewise_engine 1
scooby_pref_degree 1
scooby_enable_dyn_degree 1
scooby_max_to_avg_q_thresholds 0.5,1,2,
scooby_dyn_degrees 1,2,4,4,
scooby_multi_deg_select_type 2
scooby_last_pref_offset_conf_thresholds 1,3,8,
scooby_dyn_degrees_type2 1,2,4,6,
scooby_action_tracker_size 2
scooby_high_bw_thresh 4
scooby_enable_hbw_reward 1
scooby_reward_hbw_correct_timely 20
scooby_reward_hbw_correct_untimely 12
scooby_reward_hbw_incorrect -14
scooby_reward_hbw_none -2
scooby_reward_hbw_out_of_bounds -12
scooby_reward_hbw_tracker_hit -2
scooby_last_pref_offset_conf_thresholds_hbw 1,3,8,
scooby_dyn_degrees_type2_hbw 1,2,4,6,

le_enable_trace 0
le_trace_interval 0
le_trace_file_name 
le_trace_state 0
le_enable_score_plot 0
le_plot_file_name 
le_plot_actions 
le_enable_action_trace 0
le_action_trace_interval 0
le_action_trace_name 
le_enable_action_plot 0

le_featurewise_active_features PC, PC_Delta
le_featurewise_num_tilings 3,3,
le_featurewise_num_tiles 128,128,
le_featurewise_hash_types 2,2,
le_featurewise_enable_tiling_offset 1,1,
le_featurewise_max_q_thresh 0.5
le_featurewise_enable_action_fallback 1
le_featurewise_feature_weights 1,1,
le_featurewise_enable_dynamic_weight 0
le_featurewise_weight_gradient 0.001
le_featurewise_disable_adjust_weight_all_features_align 1
le_featurewise_selective_update 0
le_featurewise_pooling_type 2
le_featurewise_enable_dyn_action_fallback 1
le_featurewise_bw_acc_check_level 1
le_featurewise_acc_thresh 2
le_featurewise_enable_trace 0
le_featurewise_trace_feature_type 0
le_featurewise_trace_feature 
le_featurewise_trace_interval 0
le_featurewise_trace_record_count 0
le_featurewise_trace_file_name 
le_featurewise_enable_score_plot 0
le_featurewise_plot_actions 
le_featurewise_plot_file_name 


Heartbeat CPU  0 instructions:    1000001 cycles:     262019 heartbeat IPC: 3.81652 cumulative IPC: 3.81652 (Simulation time: 0 hr 0 min 1 sec) 
Heartbeat CPU  0 instructions:    2000001 cycles:     810780 heartbeat IPC: 1.82229 cumulative IPC: 2.46676 (Simulation time: 0 hr 0 min 3 sec) 
Heartbeat CPU  0 instructions:    3000000 cycles:    2157458 heartbeat IPC: 0.74257 cumulative IPC: 1.39053 (Simulation time: 0 hr 0 min 5 sec) 
Heartbeat CPU  0 instructions:    4000000 cycles:    3374413 heartbeat IPC: 0.82172 cumulative IPC: 1.18539 (Simulation time: 0 hr 0 min 6 sec) 
Heartbeat CPU  0 instructions:    5000000 cycles:    4496360 heartbeat IPC: 0.89131 cumulative IPC: 1.11201 (Simulation time: 0 hr 0 min 8 sec) 
Heartbeat CPU  0 instructions:    6000001 cycles:    5547713 heartbeat IPC: 0.95116 cumulative IPC: 1.08153 (Simulation time: 0 hr 0 min 10 sec) 
Heartbeat CPU  0 instructions:    7000003 cycles:    6574336 heartbeat IPC: 0.97407 cumulative IPC: 1.06475 (Simulation time: 0 hr 0 min 12 sec) 
Heartbeat CPU  0 instructions:    8000000 cycles:    7594995 heartbeat IPC: 0.97976 cumulative IPC: 1.05333 (Simulation time: 0 hr 0 min 14 sec) 
Heartbeat CPU  0 instructions:    9000000 cycles:    8556122 heartbeat IPC: 1.04045 cumulative IPC: 1.05188 (Simulation time: 0 hr 0 min 16 sec) 
Heartbeat CPU  0 instructions:   10000001 cycles:    9482468 heartbeat IPC: 1.07951 cumulative IPC: 1.05458 (Simulation time: 0 hr 0 min 17 sec) 

Warmup complete CPU  0 instructions:   10000001 cycles:    9482468 (Simulation time: 0 hr 0 min 17 sec) 

Heartbeat CPU  0 instructions:   11000002 cycles:   14629968 heartbeat IPC: 0.19427 cumulative IPC: 0.19427 (Simulation time: 0 hr 0 min 20 sec) 
Heartbeat CPU  0 instructions:   12000000 cycles:   19634178 heartbeat IPC: 0.19983 cumulative IPC: 0.19701 (Simulation time: 0 hr 0 min 23 sec) 
Heartbeat CPU  0 instructions:   13000001 cycles:   24422336 heartbeat IPC: 0.20885 cumulative IPC: 0.20080 (Simulation time: 0 hr 0 min 26 sec) 
Heartbeat CPU  0 instructions:   14000002 cycles:   28686817 heartbeat IPC: 0.23450 cumulative IPC: 0.20829 (Simulation time: 0 hr 0 min 29 sec) 
Heartbeat CPU  0 instructions:   15000002 cycles:   32846551 heartbeat IPC: 0.24040 cumulative IPC: 0.21400 (Simulation time: 0 hr 0 min 32 sec) 
Heartbeat CPU  0 instructions:   16000000 cycles:   37147934 heartbeat IPC: 0.23248 cumulative IPC: 0.21688 (Simulation time: 0 hr 0 min 35 sec) 
Heartbeat CPU  0 instructions:   17000002 cycles:   41750323 heartbeat IPC: 0.21728 cumulative IPC: 0.21693 (Simulation time: 0 hr 0 min 38 sec) 
Heartbeat CPU  0 instructions:   18000001 cycles:   45961841 heartbeat IPC: 0.23744 cumulative IPC: 0.21930 (Simulation time: 0 hr 0 min 40 sec) 
Heartbeat CPU  0 instructions:   19000000 cycles:   50290210 heartbeat IPC: 0.23103 cumulative IPC: 0.22055 (Simulation time: 0 hr 0 min 43 sec) 
Heartbeat CPU  0 instructions:   20000000 cycles:   54657840 heartbeat IPC: 0.22896 cumulative IPC: 0.22136 (Simulation time: 0 hr 0 min 46 sec) 
Heartbeat CPU  0 instructions:   21000001 cycles:   59098744 heartbeat IPC: 0.22518 cumulative IPC: 0.22170 (Simulation time: 0 hr 0 min 49 sec) 
Heartbeat CPU  0 instructions:   22000002 cycles:   63568795 heartbeat IPC: 0.22371 cumulative IPC: 0.22187 (Simulation time: 0 hr 0 min 52 sec) 
Heartbeat CPU  0 instructions:   23000001 cycles:   67964157 heartbeat IPC: 0.22751 cumulative IPC: 0.22229 (Simulation time: 0 hr 0 min 55 sec) 
Heartbeat CPU  0 instructions:   24000000 cycles:   72351717 heartbeat IPC: 0.22792 cumulative IPC: 0.22268 (Simulation time: 0 hr 0 min 58 sec) 
Heartbeat CPU  0 instructions:   25000001 cycles:   76481638 heartbeat IPC: 0.24214 cumulative IPC: 0.22388 (Simulation time: 0 hr 1 min 1 sec) 
Heartbeat CPU  0 instructions:   26000001 cycles:   80798874 heartbeat IPC: 0.23163 cumulative IPC: 0.22435 (Simulation time: 0 hr 1 min 3 sec) 
Heartbeat CPU  0 instructions:   27000003 cycles:   84961775 heartbeat IPC: 0.24022 cumulative IPC: 0.22523 (Simulation time: 0 hr 1 min 6 sec) 
Heartbeat CPU  0 instructions:   28000000 cycles:   89124230 heartbeat IPC: 0.24024 cumulative IPC: 0.22601 (Simulation time: 0 hr 1 min 9 sec) 
Heartbeat CPU  0 instructions:   29000000 cycles:   93311885 heartbeat IPC: 0.23880 cumulative IPC: 0.22665 (Simulation time: 0 hr 1 min 12 sec) 
Heartbeat CPU  0 instructions:   30000001 cycles:   97364984 heartbeat IPC: 0.24673 cumulative IPC: 0.22758 (Simulation time: 0 hr 1 min 15 sec) 
Heartbeat CPU  0 instructions:   31000000 cycles:  101577792 heartbeat IPC: 0.23737 cumulative IPC: 0.22802 (Simulation time: 0 hr 1 min 18 sec) 
Heartbeat CPU  0 instructions:   32000000 cycles:  105843071 heartbeat IPC: 0.23445 cumulative IPC: 0.22831 (Simulation time: 0 hr 1 min 21 sec) 
Heartbeat CPU  0 instructions:   33000003 cycles:  109970594 heartbeat IPC: 0.24228 cumulative IPC: 0.22888 (Simulation time: 0 hr 1 min 24 sec) 
Heartbeat CPU  0 instructions:   34000001 cycles:  114031854 heartbeat IPC: 0.24623 cumulative IPC: 0.22956 (Simulation time: 0 hr 1 min 27 sec) 
Heartbeat CPU  0 instructions:   35000003 cycles:  118195358 heartbeat IPC: 0.24018 cumulative IPC: 0.22996 (Simulation time: 0 hr 1 min 30 sec) 
Heartbeat CPU  0 instructions:   36000000 cycles:  122149084 heartbeat IPC: 0.25293 cumulative IPC: 0.23077 (Simulation time: 0 hr 1 min 33 sec) 
Heartbeat CPU  0 instructions:   37000002 cycles:  126606382 heartbeat IPC: 0.22435 cumulative IPC: 0.23053 (Simulation time: 0 hr 1 min 35 sec) 
Heartbeat CPU  0 instructions:   38000001 cycles:  130720248 heartbeat IPC: 0.24308 cumulative IPC: 0.23095 (Simulation time: 0 hr 1 min 38 sec) 
Heartbeat CPU  0 instructions:   39000001 cycles:  134851643 heartbeat IPC: 0.24205 cumulative IPC: 0.23132 (Simulation time: 0 hr 1 min 41 sec) 
Heartbeat CPU  0 instructions:   40000000 cycles:  138932011 heartbeat IPC: 0.24508 cumulative IPC: 0.23175 (Simulation time: 0 hr 1 min 44 sec) 
Heartbeat CPU  0 instructions:   41000003 cycles:  143375036 heartbeat IPC: 0.22507 cumulative IPC: 0.23153 (Simulation time: 0 hr 1 min 47 sec) 
Heartbeat CPU  0 instructions:   42000000 cycles:  147448208 heartbeat IPC: 0.24551 cumulative IPC: 0.23194 (Simulation time: 0 hr 1 min 50 sec) 
Heartbeat CPU  0 instructions:   43000001 cycles:  151464139 heartbeat IPC: 0.24901 cumulative IPC: 0.23242 (Simulation time: 0 hr 1 min 53 sec) 
Heartbeat CPU  0 instructions:   44000000 cycles:  155318733 heartbeat IPC: 0.25943 cumulative IPC: 0.23314 (Simulation time: 0 hr 1 min 56 sec) 
Heartbeat CPU  0 instructions:   45000001 cycles:  159208122 heartbeat IPC: 0.25711 cumulative IPC: 0.23376 (Simulation time: 0 hr 1 min 59 sec) 
Heartbeat CPU  0 instructions:   46000000 cycles:  162887929 heartbeat IPC: 0.27175 cumulative IPC: 0.23467 (Simulation time: 0 hr 2 min 2 sec) 
Heartbeat CPU  0 instructions:   47000002 cycles:  166997933 heartbeat IPC: 0.24331 cumulative IPC: 0.23490 (Simulation time: 0 hr 2 min 5 sec) 
Heartbeat CPU  0 instructions:   48000000 cycles:  171017433 heartbeat IPC: 0.24879 cumulative IPC: 0.23524 (Simulation time: 0 hr 2 min 7 sec) 
Heartbeat CPU  0 instructions:   49000002 cycles:  175149491 heartbeat IPC: 0.24201 cumulative IPC: 0.23541 (Simulation time: 0 hr 2 min 10 sec) 
Heartbeat CPU  0 instructions:   50000001 cycles:  179124947 heartbeat IPC: 0.25154 cumulative IPC: 0.23579 (Simulation time: 0 hr 2 min 13 sec) 
Heartbeat CPU  0 instructions:   51000002 cycles:  183264721 heartbeat IPC: 0.24156 cumulative IPC: 0.23593 (Simulation time: 0 hr 2 min 16 sec) 
Heartbeat CPU  0 instructions:   52000000 cycles:  187258364 heartbeat IPC: 0.25040 cumulative IPC: 0.23625 (Simulation time: 0 hr 2 min 19 sec) 
Heartbeat CPU  0 instructions:   53000003 cycles:  191660206 heartbeat IPC: 0.22718 cumulative IPC: 0.23603 (Simulation time: 0 hr 2 min 22 sec) 
Heartbeat CPU  0 instructions:   54000000 cycles:  195928209 heartbeat IPC: 0.23430 cumulative IPC: 0.23599 (Simulation time: 0 hr 2 min 25 sec) 
Heartbeat CPU  0 instructions:   55000003 cycles:  200405638 heartbeat IPC: 0.22334 cumulative IPC: 0.23570 (Simulation time: 0 hr 2 min 28 sec) 
Heartbeat CPU  0 instructions:   56000000 cycles:  204518885 heartbeat IPC: 0.24312 cumulative IPC: 0.23585 (Simulation time: 0 hr 2 min 31 sec) 
Heartbeat CPU  0 instructions:   57000000 cycles:  208704933 heartbeat IPC: 0.23889 cumulative IPC: 0.23592 (Simulation time: 0 hr 2 min 34 sec) 
Heartbeat CPU  0 instructions:   58000002 cycles:  212864091 heartbeat IPC: 0.24043 cumulative IPC: 0.23601 (Simulation time: 0 hr 2 min 37 sec) 
Heartbeat CPU  0 instructions:   59000002 cycles:  217074503 heartbeat IPC: 0.23751 cumulative IPC: 0.23604 (Simulation time: 0 hr 2 min 40 sec) 
Heartbeat CPU  0 instructions:   60000000 cycles:  221104994 heartbeat IPC: 0.24811 cumulative IPC: 0.23627 (Simulation time: 0 hr 2 min 43 sec) 
Finished CPU 0 instructions: 50000000 cycles: 211622534 cumulative IPC: 0.23627 (Simulation time: 0 hr 2 min 43 sec) 

ChampSim completed all CPUs

[ROI Statistics]
Core_0_instructions 50000000
Core_0_cycles 211622534
Core_0_IPC 0.23627

Core_0_branch_prediction_accuracy 93.17130
Core_0_branch_MPKI 13.49384
Core_0_average_ROB_occupancy_at_mispredict 63.08087

Core_0_L1D_total_access 10342477
Core_0_L1D_total_hit 6687926
Core_0_L1D_total_miss 3654551
Core_0_L1D_loads 10104227
Core_0_L1D_load_hit 6449676
Core_0_L1D_load_miss 3654551
Core_0_L1D_RFOs 238250
Core_0_L1D_RFO_hit 238250
Core_0_L1D_RFO_miss 0
Core_0_L1D_prefetches 0
Core_0_L1D_prefetch_hit 0
Core_0_L1D_prefetch_miss 0
Core_0_L1D_writebacks 0
Core_0_L1D_writeback_hit 0
Core_0_L1D_writeback_miss 0
Core_0_L1D_prefetch_requested 0
Core_0_L1D_prefetch_dropped 0
Core_0_L1D_prefetch_issued 0
Core_0_L1D_prefetch_filled 0
Core_0_L1D_prefetch_useful 0
Core_0_L1D_prefetch_useless 0
Core_0_L1D_prefetch_late 0
Core_0_L1D_average_miss_latency 78.83009

Core_0_L1D_rq_access 13265238
Core_0_L1D_rq_forward 0
Core_0_L1D_rq_merged 2981286
Core_0_L1D_rq_to_cache 10283952
Core_0_L1D_rq_full 0

Core_0_L1D_wq_access 238250
Core_0_L1D_wq_forward 0
Core_0_L1D_wq_merged 0
Core_0_L1D_wq_to_cache 238250
Core_0_L1D_wq_full 0

Core_0_L1D_pq_access 0
Core_0_L1D_pq_forward 0
Core_0_L1D_pq_merged 0
Core_0_L1D_pq_to_cache 0
Core_0_L1D_pq_full 0

Core_0_L1D_acc_epochs 215587
Core_0_L1D_acc_level_0 215587
Core_0_L1D_acc_level_1 0
Core_0_L1D_acc_level_2 0
Core_0_L1D_acc_level_3 0
Core_0_L1D_acc_level_4 0
Core_0_L1D_acc_level_5 0
Core_0_L1D_acc_level_6 0
Core_0_L1D_acc_level_7 0
Core_0_L1D_acc_level_8 0
Core_0_L1D_acc_level_9 0

Core_0_L1I_total_access 9746205
Core_0_L1I_total_hit 9746205
Core_0_L1I_total_miss 0
Core_0_L1I_loads 9746205
Core_0_L1I_load_hit 9746205
Core_0_L1I_load_miss 0
Core_0_L1I_RFOs 0
Core_0_L1I_RFO_hit 0
Core_0_L1I_RFO_miss 0
Core_0_L1I_prefetches 0
Core_0_L1I_prefetch_hit 0
Core_0_L1I_prefetch_miss 0
Core_0_L1I_writebacks 0
Core_0_L1I_writeback_hit 0
Core_0_L1I_writeback_miss 0
Core_0_L1I_prefetch_requested 0
Core_0_L1I_prefetch_dropped 0
Core_0_L1I_prefetch_issued 0
Core_0_L1I_prefetch_filled 0
Core_0_L1I_prefetch_useful 0
Core_0_L1I_prefetch_useless 0
Core_0_L1I_prefetch_late 0
Core_0_L1I_average_miss_latency -nan

Core_0_L1I_rq_access 50000225
Core_0_L1I_rq_forward 0
Core_0_L1I_rq_merged 40254020
Core_0_L1I_rq_to_cache 9746205
Core_0_L1I_rq_full 0

Core_0_L1I_wq_access 0
Core_0_L1I_wq_forward 0
Core_0_L1I_wq_merged 0
Core_0_L1I_wq_to_cache 0
Core_0_L1I_wq_full 0

Core_0_L1I_pq_access 0
Core_0_L1I_pq_forward 0
Core_0_L1I_pq_merged 0
Core_0_L1I_pq_to_cache 0
Core_0_L1I_pq_full 0

Core_0_L1I_acc_epochs 215587
Core_0_L1I_acc_level_0 215587
Core_0_L1I_acc_level_1 0
Core_0_L1I_acc_level_2 0
Core_0_L1I_acc_level_3 0
Core_0_L1I_acc_level_4 0
Core_0_L1I_acc_level_5 0
Core_0_L1I_acc_level_6 0
Core_0_L1I_acc_level_7 0
Core_0_L1I_acc_level_8 0
Core_0_L1I_acc_level_9 0

Core_0_L2C_total_access 7787281
Core_0_L2C_total_hit 2300458
Core_0_L2C_total_miss 5486823
Core_0_L2C_loads 3654551
Core_0_L2C_load_hit 768829
Core_0_L2C_load_miss 2885722
Core_0_L2C_RFOs 0
Core_0_L2C_RFO_hit 0
Core_0_L2C_RFO_miss 0
Core_0_L2C_prefetches 3927489
Core_0_L2C_prefetch_hit 1326867
Core_0_L2C_prefetch_miss 2600622
Core_0_L2C_writebacks 205241
Core_0_L2C_writeback_hit 204762
Core_0_L2C_writeback_miss 479
Core_0_L2C_prefetch_requested 4833170
Core_0_L2C_prefetch_dropped 17
Core_0_L2C_prefetch_issued 4833153
Core_0_L2C_prefetch_filled 3129936
Core_0_L2C_prefetch_useful 376208
Core_0_L2C_prefetch_useless 2752040
Core_0_L2C_prefetch_late 14017
Core_0_L2C_average_miss_latency 93.57258

Core_0_L2C_rq_access 3654551
Core_0_L2C_rq_forward 0
Core_0_L2C_rq_merged 0
Core_0_L2C_rq_to_cache 3654551
Core_0_L2C_rq_full 0

Core_0_L2C_wq_access 205241
Core_0_L2C_wq_forward 0
Core_0_L2C_wq_merged 0
Core_0_L2C_wq_to_cache 205241
Core_0_L2C_wq_full 0

Core_0_L2C_pq_access 4833153
Core_0_L2C_pq_forward 0
Core_0_L2C_pq_merged 79686
Core_0_L2C_pq_to_cache 4753467
Core_0_L2C_pq_full 0

Core_0_L2C_acc_epochs 215587
Core_0_L2C_acc_level_0 72191
Core_0_L2C_acc_level_1 120919
Core_0_L2C_acc_level_2 18551
Core_0_L2C_acc_level_3 2800
Core_0_L2C_acc_level_4 517
Core_0_L2C_acc_level_5 384
Core_0_L2C_acc_level_6 67
Core_0_L2C_acc_level_7 30
Core_0_L2C_acc_level_8 41
Core_0_L2C_acc_level_9 87

Core_0_LLC_total_access 5691471
Core_0_LLC_total_hit 3849556
Core_0_LLC_total_miss 1841915
Core_0_LLC_loads 2872280
Core_0_LLC_load_hit 2057812
Core_0_LLC_load_miss 814468
Core_0_LLC_RFOs 0
Core_0_LLC_RFO_hit 0
Core_0_LLC_RFO_miss 0
Core_0_LLC_prefetches 2614062
Core_0_LLC_prefetch_hit 1588397
Core_0_LLC_prefetch_miss 1025665
Core_0_LLC_writebacks 205129
Core_0_LLC_writeback_hit 203347
Core_0_LLC_writeback_miss 1782
Core_0_LLC_prefetch_requested 0
Core_0_LLC_prefetch_dropped 0
Core_0_LLC_prefetch_issued 0
Core_0_LLC_prefetch_filled 1227579
Core_0_LLC_prefetch_useful 157330
Core_0_LLC_prefetch_useless 1063260
Core_0_LLC_prefetch_late 0
Core_0_LLC_average_miss_latency 189.60975

Core_0_LLC_rq_access 2872282
Core_0_LLC_rq_forward 0
Core_0_LLC_rq_merged 0
Core_0_LLC_rq_to_cache 2872280
Core_0_LLC_rq_full 0

Core_0_LLC_wq_access 205129
Core_0_LLC_wq_forward 2
Core_0_LLC_wq_merged 0
Core_0_LLC_wq_to_cache 205129
Core_0_LLC_wq_full 0

Core_0_LLC_pq_access 3143953
Core_0_LLC_pq_forward 0
Core_0_LLC_pq_merged 0
Core_0_LLC_pq_to_cache 3143953
Core_0_LLC_pq_full 0

Core_0_LLC_acc_epochs 215923
Core_0_LLC_acc_level_0 92710
Core_0_LLC_acc_level_1 64993
Core_0_LLC_acc_level_2 33853
Core_0_LLC_acc_level_3 13708
Core_0_LLC_acc_level_4 3995
Core_0_LLC_acc_level_5 4196
Core_0_LLC_acc_level_6 1206
Core_0_LLC_acc_level_7 379
Core_0_LLC_acc_level_8 223
Core_0_LLC_acc_level_9 660

Core_0_major_page_fault 0
Core_0_minor_page_fault 5096

scooby_st_lookup 4221426
scooby_st_hit 1594409
scooby_st_evict 2626953
scooby_st_insert 2627017
scooby_st_streaming 0

scooby_predict_called 4221426
scooby_predict_out_of_bounds 92045
scooby_predict_action_1 3210230
scooby_predict_issue_action_1 3207493
scooby_predict_hit_action_1 2737
scooby_predict_out_of_bounds_action_1 49887
scooby_predict_action_3 15170
scooby_predict_issue_action_3 14724
scooby_predict_hit_action_3 446
scooby_predict_out_of_bounds_action_3 1246
scooby_predict_action_4 14525
scooby_predict_issue_action_4 14024
scooby_predict_hit_action_4 501
scooby_predict_out_of_bounds_action_4 1590
scooby_predict_action_5 13672
scooby_predict_issue_action_5 13281
scooby_predict_hit_action_5 391
scooby_predict_out_of_bounds_action_5 1959
scooby_predict_action_10 10940
scooby_predict_issue_action_10 10638
scooby_predict_hit_action_10 302
scooby_predict_out_of_bounds_action_10 3447
scooby_predict_action_11 10558
scooby_predict_issue_action_11 10317
scooby_predict_hit_action_11 241
scooby_predict_out_of_bounds_action_11 3634
scooby_predict_action_12 10025
scooby_predict_issue_action_12 9767
scooby_predict_hit_action_12 258
scooby_predict_out_of_bounds_action_12 3973
scooby_predict_action_22 6282
scooby_predict_issue_action_22 6086
scooby_predict_hit_action_22 196
scooby_predict_out_of_bounds_action_22 5755
scooby_predict_action_23 6057
scooby_predict_issue_action_23 5919
scooby_predict_hit_action_23 138
scooby_predict_out_of_bounds_action_23 5924
scooby_predict_action_30 4518
scooby_predict_issue_action_30 4363
scooby_predict_hit_action_30 155
scooby_predict_out_of_bounds_action_30 6781
scooby_predict_action_32 3891
scooby_predict_issue_action_32 3771
scooby_predict_hit_action_32 120
scooby_predict_out_of_bounds_action_32 7154
scooby_predict_action_-1 15443
scooby_predict_issue_action_-1 14895
scooby_predict_hit_action_-1 548
scooby_predict_out_of_bounds_action_-1 65
scooby_predict_action_-3 15230
scooby_predict_issue_action_-3 14644
scooby_predict_hit_action_-3 586
scooby_predict_out_of_bounds_action_-3 199
scooby_predict_action_-6 14857
scooby_predict_issue_action_-6 14300
scooby_predict_hit_action_-6 557
scooby_predict_out_of_bounds_action_-6 431
scooby_predict_action_0 777983
scooby_predict_issue_action_0 0
scooby_predict_hit_action_0 0
scooby_predict_out_of_bounds_action_0 0
scooby_predict_multi_deg_called 459516
scooby_predict_predicted 4833170
scooby_predict_multi_deg 1488948
scooby_predict_multi_deg_2 448642
scooby_predict_multi_deg_3 311274
scooby_predict_multi_deg_4 304499
scooby_predict_multi_deg_5 214705
scooby_predict_multi_deg_6 209828
scooby_predict_multi_deg_7 0
scooby_predict_multi_deg_8 0
scooby_predict_multi_deg_9 0
scooby_predict_multi_deg_10 0
scooby_predict_multi_deg_11 0
scooby_predict_multi_deg_12 0
scooby_predict_multi_deg_13 0
scooby_predict_multi_deg_14 0
scooby_predict_multi_deg_15 0
scooby_predict_multi_deg_16 0

scooby_selected_deg_1 2884706
scooby_selected_deg_2 134003
scooby_selected_deg_3 0
scooby_selected_deg_4 91198
scooby_selected_deg_5 0
scooby_selected_deg_6 234315
scooby_selected_deg_7 0
scooby_selected_deg_8 0
scooby_selected_deg_9 0
scooby_selected_deg_10 0
scooby_selected_deg_11 0
scooby_selected_deg_12 0
scooby_selected_deg_13 0
scooby_selected_deg_14 0
scooby_selected_deg_15 0
scooby_selected_deg_16 0

scooby_state_5575ed11f266|1|0 43440,8,11,15,12,12,18,14,8,14,13,12,12,9,12808,56406,
scooby_state_5575ed11f266|3|0 43768,12,14,16,12,17,11,10,12,7,10,4,11,7,12126,56037,
scooby_state_5575ed11f266|7|0 43959,15,13,5,11,16,19,9,16,10,12,11,13,8,11436,55553,
scooby_state_5575ed11f266|2|0 42686,10,9,18,9,18,10,8,6,12,7,8,5,8,12211,55025,
scooby_state_5575ed11f266|5|0 41075,23,10,14,8,13,17,17,12,13,8,7,15,15,11569,52816,
scooby_state_5575ed11f266|0|0 40301,15,10,17,8,13,6,14,14,13,9,11,10,8,12170,52619,
scooby_state_5575ed11f266|6|0 39791,9,5,9,12,14,12,9,7,9,12,17,7,8,10624,50545,
scooby_state_5575ed11f266|4|0 38338,11,9,5,11,9,13,12,7,9,11,7,10,17,10813,49282,
scooby_state_5575ed11f266|8|0 37907,9,11,12,10,18,17,8,11,8,10,8,8,16,10191,48244,
scooby_state_5575ed11f266|13|0 38292,12,14,11,7,10,12,11,4,16,4,10,7,6,9705,48121,
scooby_state_5575ed11f266|9|0 37513,10,8,9,18,7,14,10,10,7,4,6,7,10,9912,47545,
scooby_state_5575ed11f266|21|0 37785,12,7,10,18,20,5,14,8,5,8,11,8,10,8512,46433,
scooby_state_5575ed11f266|11|0 36967,9,7,10,8,9,11,6,9,10,7,7,7,11,9198,46276,
scooby_state_5575ed11f266|12|0 36434,9,9,13,13,9,9,9,6,10,8,7,9,13,9301,45859,
scooby_state_5575ed11f266|14|0 36437,10,11,5,12,11,11,6,10,5,8,10,7,10,9180,45733,
scooby_state_5575ed11f266|10|0 35563,8,5,10,16,7,10,8,5,8,9,20,8,12,9402,45091,
scooby_state_5575ed11f266|15|0 34551,10,7,12,14,12,11,8,9,4,7,7,6,7,8512,43177,
scooby_state_5575ed11f266|18|0 34616,13,7,8,6,9,11,9,13,7,8,6,13,14,8273,43013,
scooby_state_5575ed11f266|17|0 34076,12,10,4,13,8,7,12,4,11,7,8,5,9,8230,42416,
scooby_state_5575ed11f266|25|0 34224,9,14,16,10,11,10,8,7,12,6,6,12,8,7865,42218,
scooby_state_5575ed11f266|20|0 33922,9,10,8,6,6,7,4,8,11,4,10,8,15,8120,42148,
scooby_state_5575ed11f266|24|0 34003,11,10,11,4,6,10,10,12,11,8,12,12,9,7921,42050,
scooby_state_5575ed11f266|19|0 33445,10,8,6,7,11,8,8,9,10,8,5,8,11,8025,41579,
scooby_state_5575ed11f266|36|0 33444,10,9,9,6,6,8,7,12,8,7,4,10,6,7348,40894,
scooby_state_5575ed11f266|26|0 32675,9,11,14,7,10,10,7,12,7,12,9,9,9,7424,40225,
scooby_state_5575ed11f266|16|0 31963,6,17,4,9,7,10,11,3,5,8,6,8,5,7858,39920,
scooby_state_5575ed11f266|32|0 32920,6,12,14,9,8,9,4,11,7,10,7,8,13,6853,39891,
scooby_state_5575ed11f266|22|0 32162,11,10,12,4,11,3,3,6,13,7,6,12,11,7495,39766,
scooby_state_5575ed11f266|23|0 31734,7,12,10,10,10,10,10,10,6,11,7,8,9,7228,39082,
scooby_state_5575ed11f266|40|0 31743,10,17,5,11,12,14,3,5,8,7,8,14,12,6695,38564,
scooby_state_5575ed11f266|33|0 31252,6,15,11,6,5,7,11,2,10,18,5,9,12,7038,38407,
scooby_state_5575ed11f266|30|0 31214,15,10,3,3,6,12,8,9,2,12,2,10,7,6845,38158,
scooby_state_5575ed11f266|38|0 31289,14,12,10,6,6,7,5,10,7,16,8,5,14,6724,38133,
scooby_state_5575ed11f266|62|0 31337,9,7,9,9,4,4,3,5,13,9,14,6,10,6117,37556,
scooby_state_5575ed11f266|28|0 29926,8,6,6,11,6,11,7,7,8,7,8,6,3,6764,36784,
scooby_state_5575ed11f266|35|0 29949,11,11,8,8,10,5,3,7,7,11,10,6,7,6698,36751,
scooby_state_5575ed11f266|27|0 29461,7,6,6,10,7,4,10,8,12,7,4,8,8,6720,36278,
scooby_state_5575ed11f266|60|0 30101,12,7,5,6,6,12,10,11,8,9,8,8,12,5844,36059,
scooby_state_5575ed11f266|42|0 29655,16,4,7,7,8,7,8,8,7,8,7,4,8,6039,35793,
scooby_state_5575ed11f266|29|0 28816,1,7,11,4,13,8,8,5,3,10,10,7,8,6462,35373,
scooby_state_5575ed11f266|45|0 29082,5,9,8,5,11,5,7,14,6,5,7,7,10,6185,35366,
scooby_state_5575ed11f266|44|0 28876,12,7,4,7,11,4,6,11,7,3,11,7,10,6353,35329,
scooby_state_5575ed11f266|47|0 28838,8,8,9,7,10,6,4,7,10,6,8,7,10,6137,35075,
scooby_state_5575ed11f266|55|0 29073,5,4,3,4,5,10,5,2,9,7,9,10,10,5898,35054,
scooby_state_5575ed11f266|34|0 27966,8,6,1,6,10,7,7,7,7,12,5,6,6,6315,34369,
scooby_state_5575ed11f266|57|0 28175,10,10,9,7,4,7,5,7,7,4,11,8,9,5733,34006,
scooby_state_5575ed11f266|37|0 27183,8,8,6,4,6,9,7,4,9,9,4,5,10,5824,33096,
scooby_state_5575ed11f266|52|0 27410,9,11,7,9,9,9,7,5,6,7,8,6,7,5568,33078,
scooby_state_5575ed11f266|39|0 27065,5,11,2,7,3,7,13,4,8,8,5,11,5,5825,32979,
scooby_state_5575ed11f266|31|0 26914,7,2,6,7,10,6,4,3,6,7,11,1,6,5917,32907,
scooby_state_5575ed11f266|61|0 27285,7,10,7,5,3,6,7,9,5,9,9,19,4,5165,32550,
scooby_state_5575ed11f266|46|0 26756,8,9,8,9,5,8,7,8,6,9,8,5,6,5602,32454,
scooby_state_5575ed11f266|58|0 26618,9,4,4,8,9,5,6,9,9,9,7,11,5,5556,32269,
scooby_state_5575ed11f266|43|0 26450,6,9,2,9,7,4,6,7,10,7,6,10,4,5722,32259,
scooby_state_5575ed11f266|53|0 26649,8,9,7,6,6,4,9,10,10,11,7,6,8,5258,32008,
scooby_state_5575ed11f266|51|0 26326,13,7,8,6,9,13,8,3,8,7,9,8,10,5567,32002,
scooby_state_5575ed11f266|49|0 26282,3,5,7,5,9,7,14,6,4,8,9,4,9,5543,31915,
scooby_state_5575ed11f266|56|0 26346,5,5,5,7,7,9,1,9,3,4,8,8,8,5470,31895,
scooby_state_5575ed11f266|59|0 26424,9,7,5,0,5,14,4,9,6,7,6,10,10,5282,31798,
scooby_state_5575ed11f266|48|0 26079,15,8,5,8,5,9,3,3,6,12,11,9,9,5470,31652,
scooby_state_5575ed11f266|41|0 25854,7,4,10,8,9,6,6,3,2,5,8,7,8,5603,31540,
scooby_state_5575ed11f266|50|0 25975,10,4,5,5,8,9,7,9,9,7,11,7,11,5355,31432,
scooby_state_5575ed11f266|54|0 25203,5,8,6,4,5,6,5,6,12,7,6,4,6,5439,30722,
scooby_state_5575ed11f266|63|0 25052,6,9,7,6,7,11,6,3,6,7,9,5,5,5046,30185,
scooby_state_5575ed11f260|48|1 3763,1,0,1,1,1,1,2,0,1,1,1,0,1,0,3774,
scooby_state_5575ed11f260|1|1 3770,0,0,0,0,0,0,0,2,0,0,1,0,1,0,3774,
scooby_state_5575ed11f260|46|1 3770,0,0,0,0,0,0,1,1,0,0,1,1,0,0,3774,
scooby_state_5575ed11f260|40|1 3768,0,0,0,1,1,0,0,0,1,0,0,0,3,0,3774,
scooby_state_5575ed11f260|24|1 3770,0,1,0,0,0,0,0,0,1,0,0,2,0,0,3774,
scooby_state_5575ed11f260|23|1 3770,0,0,0,0,2,0,1,0,1,0,0,0,0,0,3774,
scooby_state_5575ed11f260|21|1 3772,0,0,0,0,0,0,0,1,0,0,0,0,1,0,3774,
scooby_state_5575ed11f260|35|1 3767,1,0,1,2,1,0,0,0,1,0,0,0,1,0,3774,
scooby_state_5575ed11f260|43|1 3765,0,2,0,1,1,0,0,1,1,0,1,1,0,1,3774,
scooby_state_5575ed11f260|22|1 3765,0,0,1,0,1,0,2,0,1,1,2,1,0,0,3774,
scooby_state_5575ed11f260|19|1 3769,1,0,0,0,0,0,0,1,2,0,0,0,1,0,3774,
scooby_state_5575ed11f260|17|1 3763,0,1,0,0,2,2,0,0,2,0,1,1,1,1,3774,
scooby_state_5575ed11f260|15|1 3763,0,0,4,0,1,0,3,0,1,1,0,0,1,0,3774,
scooby_state_5575ed11f260|9|1 3767,1,1,2,1,0,0,0,0,1,0,0,0,1,0,3774,
scooby_state_5575ed11f260|32|1 3769,0,0,0,1,0,0,0,1,0,0,2,0,0,1,3774,
scooby_state_5575ed11f260|29|1 3770,0,0,0,0,0,0,1,0,0,0,1,1,0,1,3774,
scooby_state_5575ed11f260|34|1 3768,1,0,0,0,0,1,0,0,2,0,0,1,1,0,3774,
scooby_state_5575ed11f260|42|1 3768,0,1,0,0,1,0,1,0,1,1,0,1,0,0,3774,
scooby_state_5575ed11f260|7|1 3774,0,0,0,0,0,0,0,0,0,0,0,0,0,0,3774,
scooby_state_5575ed11f260|8|1 3761,0,0,1,0,2,0,3,0,2,0,2,0,1,2,3774,
scooby_state_5575ed11f260|4|1 3767,0,0,2,0,0,1,1,0,1,1,0,0,0,1,3774,
scooby_state_5575ed11f260|39|1 3771,0,0,0,0,1,0,1,0,0,1,0,0,0,0,3774,
scooby_state_5575ed11f260|11|1 3771,0,0,0,0,0,0,0,0,0,2,0,0,1,0,3774,
scooby_state_5575ed11f260|14|1 3768,1,0,0,1,1,2,0,0,1,0,0,0,0,0,3774,
scooby_state_5575ed11f260|41|1 3762,0,0,3,0,0,2,1,1,1,0,0,0,0,4,3774,
scooby_state_5575ed11f260|20|1 3767,1,0,0,0,0,1,0,0,0,3,0,0,1,1,3774,
scooby_state_5575ed11f260|51|1 3770,1,0,0,0,0,0,0,1,0,0,0,1,0,1,3774,
scooby_state_5575ed11f260|31|1 3770,0,0,0,0,0,1,0,1,0,0,1,1,0,0,3774,
scooby_state_5575ed11f260|45|1 3768,0,2,0,3,0,0,0,0,0,0,0,1,0,0,3774,
scooby_state_5575ed11f260|25|1 3770,0,0,0,0,0,0,0,1,1,0,1,0,0,1,3774,
scooby_state_5575ed11f260|36|1 3765,0,0,1,1,0,1,2,0,1,1,1,0,0,1,3774,
scooby_state_5575ed11f260|44|1 3767,0,0,0,1,1,0,1,1,0,2,0,0,0,1,3774,
scooby_state_5575ed11f260|10|1 3764,0,0,0,1,1,2,1,0,1,0,2,0,1,1,3774,
scooby_state_5575ed11f260|50|1 3763,2,0,2,2,1,0,0,1,0,1,1,0,0,1,3774,
scooby_state_5575ed11f260|30|1 3770,2,0,1,0,0,0,1,0,0,0,0,0,0,0,3774,
scooby_state_5575ed11f260|37|1 3770,1,0,0,0,0,2,0,0,1,0,0,0,0,0,3774,
scooby_state_5575ed11f260|0|0 3770,0,0,0,0,0,0,0,0,1,0,0,1,2,0,3774,
scooby_state_5575ed11f260|18|1 3768,0,0,0,1,2,1,1,0,1,0,0,0,0,0,3774,
scooby_state_5575ed11f260|3|1 3769,1,2,0,0,0,0,0,0,1,0,0,0,0,1,3774,
scooby_state_5575ed11f260|13|1 3771,0,0,0,0,0,0,0,1,0,1,1,0,0,0,3774,
scooby_state_5575ed11f260|2|1 3764,0,0,1,0,0,1,0,3,2,0,0,1,1,1,3774,
scooby_state_5575ed11f260|27|1 3768,0,0,1,0,0,1,2,0,0,1,0,0,0,1,3774,
scooby_state_5575ed11f260|28|1 3771,0,0,0,1,0,0,0,0,0,0,0,1,1,0,3774,
scooby_state_5575ed11f260|5|1 3768,0,2,0,0,0,1,0,1,1,0,0,0,1,0,3774,
scooby_state_5575ed11f260|38|1 3764,1,0,0,0,0,0,0,1,1,2,3,1,0,1,3774,
scooby_state_5575ed11f260|26|1 3763,2,0,0,0,1,1,0,2,2,0,0,2,0,1,3774,
scooby_state_5575ed11f260|47|1 3765,0,0,0,1,2,2,1,0,0,0,0,1,1,1,3774,
scooby_state_5575ed11f260|49|1 3769,1,0,1,1,0,0,0,0,0,0,2,0,0,0,3774,
scooby_state_5575ed11f260|6|1 3769,0,0,0,0,1,0,1,1,1,0,0,1,0,0,3774,
scooby_state_5575ed11f260|12|1 3766,2,0,0,0,0,0,1,0,1,0,1,1,1,1,3774,
scooby_state_5575ed11f260|33|1 3771,0,0,0,0,1,0,0,0,0,0,2,0,0,0,3774,
scooby_state_5575ed11f260|16|1 3768,0,0,0,2,0,1,0,0,1,0,0,0,1,1,3774,
scooby_state_5575ed11f260|60|1 3768,1,0,0,0,0,0,0,3,0,0,0,1,0,0,3773,
scooby_state_5575ed11f260|54|1 3770,0,1,0,0,1,1,0,0,0,0,0,0,0,0,3773,
scooby_state_5575ed11f260|55|1 3766,0,1,0,0,1,1,0,1,2,0,0,0,1,0,3773,
scooby_state_5575ed11f260|63|1 3760,0,1,1,0,0,2,1,3,0,1,2,1,1,0,3773,
scooby_state_5575ed11f260|61|1 3768,0,0,0,2,0,1,1,1,0,0,0,0,0,0,3773,
scooby_state_5575ed11f260|57|1 3766,1,0,0,1,0,1,0,1,0,3,0,0,0,0,3773,
scooby_state_5575ed11f260|58|1 3764,1,0,1,1,0,2,0,0,0,2,1,1,0,0,3773,
scooby_state_5575ed11f260|56|1 3765,0,0,1,1,1,1,0,0,0,1,1,0,1,1,3773,
scooby_state_5575ed11f260|52|1 3768,0,0,0,1,0,1,1,0,0,1,1,0,0,0,3773,
scooby_state_5575ed11f260|62|1 3766,0,0,0,0,0,1,0,2,0,0,2,1,0,1,3773,
scooby_state_5575ed11f260|59|1 3757,2,4,0,0,2,1,1,1,0,1,1,1,0,2,3773,
scooby_state_5575ed11f260|53|1 3766,3,2,0,0,1,0,0,0,0,0,0,0,0,1,3773,
scooby_state_5575ed11f27b|33|0 2181,7,11,15,12,9,8,7,8,10,9,9,19,8,754,3067,
scooby_state_5575ed11f27b|52|0 1687,12,13,4,5,8,8,9,12,0,3,9,4,5,759,2538,
scooby_state_5575ed11f27b|5|0 1582,13,9,8,10,5,8,5,8,5,9,10,9,12,794,2487,
scooby_state_5575ed11f27b|46|0 1431,6,4,13,9,7,6,8,8,1,4,6,9,6,639,2157,
scooby_state_5575ed11f27b|7|0 1453,5,12,7,3,6,5,5,5,13,3,5,10,6,602,2140,
scooby_state_5575ed11f27b|47|0 1379,3,11,7,7,7,9,5,8,6,7,6,8,4,561,2028,
scooby_state_5575ed11f27b|23|0 1339,6,6,14,6,10,12,3,4,5,7,2,6,6,568,1994,
scooby_state_5575ed11f266|7|1 1333,10,10,9,8,9,6,9,4,6,4,5,7,6,538,1964,
scooby_state_5575ed11f27b|63|0 1272,12,8,7,8,5,5,5,4,7,4,6,1,9,539,1892,
scooby_state_5575ed11f266|22|1 1292,11,9,11,11,7,9,1,9,4,1,4,4,5,491,1869,
scooby_state_5575ed11f266|62|1 1260,7,4,4,7,2,6,8,4,6,6,9,6,3,526,1858,
scooby_state_5575ed11f266|36|1 1197,8,8,2,7,6,5,5,5,6,9,7,4,4,514,1787,
scooby_state_5575ed11f27b|57|0 1245,4,3,6,3,5,5,5,2,6,4,6,1,4,485,1784,
scooby_state_5575ed11f27b|10|0 1199,8,5,5,4,7,6,2,5,5,2,7,4,5,505,1769,
scooby_state_5575ed11f266|21|1 1185,3,4,8,11,5,3,6,3,2,7,2,4,6,454,1703,
scooby_state_5575ed11f240|48|0 815,64,54,54,53,63,62,39,40,38,33,54,63,71,182,1685,
scooby_state_5575ed11f27b|48|0 1148,8,3,6,2,2,3,6,4,4,4,7,4,5,462,1668,
scooby_state_5575ed11f266|60|1 1123,4,9,4,6,5,5,4,4,3,4,9,6,4,469,1659,
scooby_state_5575ed11f266|49|1 1130,3,6,5,10,14,7,4,7,3,4,7,6,6,444,1656,
scooby_state_5575ed11f266|34|1 1097,5,7,6,11,7,4,5,1,4,2,2,3,4,480,1638,
scooby_state_5575ed11f266|58|1 1094,7,8,7,9,3,6,10,2,0,6,3,6,3,468,1632,
scooby_state_5575ed11f266|25|1 1137,3,11,5,3,4,2,5,9,3,1,7,4,5,431,1630,
scooby_state_5575ed11f266|1|1 1106,7,7,5,9,6,4,7,1,4,2,8,8,4,444,1622,
scooby_state_5575ed11f266|37|1 1085,9,11,3,5,9,5,3,4,3,3,9,5,4,452,1610,
scooby_state_5575ed11f266|33|1 1079,7,10,10,10,7,4,6,3,2,3,1,4,4,450,1600,
scooby_state_5575ed11f266|18|1 1074,5,5,7,5,10,4,4,3,4,7,1,4,7,454,1594,
scooby_state_5575ed11f266|15|1 1067,6,4,4,6,6,6,1,3,3,3,7,4,4,469,1593,
scooby_state_5575ed11f266|63|1 1105,6,2,7,7,8,7,2,5,5,5,4,4,4,421,1592,
scooby_state_5575ed11f266|42|1 1051,3,6,5,7,8,3,3,8,5,2,4,7,3,476,1591,
scooby_state_5575ed11f266|8|1 1091,9,3,6,8,3,3,4,6,4,5,5,5,10,428,1590,
scooby_state_5575ed11f266|26|1 1100,8,6,5,5,4,4,3,4,7,2,3,6,2,428,1587,
scooby_state_5575ed11f266|3|1 1066,9,4,8,10,5,5,3,1,6,3,7,8,7,445,1587,
scooby_state_5575ed11f27b|45|0 1089,1,6,10,4,5,1,2,6,4,0,3,4,7,442,1584,
scooby_state_5575ed11f266|48|1 1082,7,4,7,3,1,6,3,4,3,8,7,3,7,438,1583,
scooby_state_5575ed11f266|30|1 1071,5,6,7,5,2,4,6,4,6,1,2,3,4,448,1574,
scooby_state_5575ed11f266|54|1 1044,6,2,9,5,7,8,1,5,4,6,3,5,7,457,1569,
scooby_state_5575ed11f266|40|2 1037,6,6,3,3,5,2,4,1,1,4,9,1,6,470,1558,
scooby_state_5575ed11f27b|29|0 1052,3,8,5,9,10,6,3,3,2,1,6,5,3,442,1558,
scooby_state_5575ed11f266|11|1 1062,5,6,8,6,3,4,3,4,6,1,3,2,2,437,1552,
scooby_state_5575ed11f266|13|1 1056,8,9,6,7,11,4,4,2,4,1,7,5,6,414,1544,
scooby_state_5575ed11f266|59|1 1010,12,7,8,5,8,5,7,7,2,8,5,1,6,453,1544,
scooby_state_5575ed11f266|44|1 1034,4,5,5,5,8,6,9,4,4,2,5,5,7,440,1543,
scooby_state_5575ed11f266|47|1 1026,4,8,8,6,5,5,3,3,5,3,5,6,7,446,1540,
scooby_state_5575ed11f266|61|1 1028,13,7,6,7,2,4,4,4,4,6,7,3,3,433,1531,
scooby_state_5575ed11f266|32|1 1055,6,5,4,9,1,6,8,3,5,4,2,3,9,411,1531,
scooby_state_5575ed11f266|50|1 1061,3,5,4,12,4,11,5,5,3,3,4,1,3,405,1529,
scooby_state_5575ed11f266|14|1 1014,5,10,7,3,7,6,4,3,2,1,4,3,2,457,1528,
scooby_state_5575ed11f266|60|2 1036,0,4,7,5,0,1,3,2,5,3,4,8,8,442,1528,
scooby_state_5575ed11f266|37|2 1045,7,1,9,7,5,4,6,5,4,2,3,10,5,414,1527,
scooby_state_5575ed11f266|20|1 1072,5,2,8,7,4,4,6,7,5,0,4,7,3,387,1521,
scooby_state_5575ed11f266|53|1 996,7,4,8,6,5,6,5,5,5,1,6,3,3,458,1518,
scooby_state_5575ed11f266|4|1 1024,5,7,7,9,6,4,4,4,2,1,3,3,3,432,1514,
scooby_state_5575ed11f266|23|1 1035,4,6,2,8,4,6,3,3,1,2,6,7,3,419,1509,
scooby_state_5575ed11f266|19|1 1061,3,6,4,7,3,4,7,4,5,2,4,4,5,389,1508,
scooby_state_5575ed11f266|35|1 1022,8,11,7,3,4,3,3,8,1,3,1,3,4,427,1508,
scooby_state_5575ed11f266|17|1 1039,5,6,6,7,2,4,1,4,9,3,2,3,5,412,1508,
scooby_state_5575ed11f266|62|2 974,2,3,3,6,6,5,3,6,2,4,8,8,8,451,1489,
scooby_state_5575ed11f266|46|1 988,3,8,9,3,6,8,3,2,2,4,1,4,6,440,1487,
scooby_state_5575ed11f27b|21|0 994,6,4,6,5,6,3,4,4,4,6,7,5,8,418,1480,
scooby_state_5575ed11f266|43|1 1005,3,8,4,8,3,8,1,5,7,2,3,4,1,412,1474,
scooby_state_5575ed11f266|52|1 950,5,7,7,6,5,4,8,4,4,2,3,4,6,457,1472,
scooby_state_5575ed11f266|28|1 991,8,6,5,7,4,5,5,4,5,5,1,4,1,420,1471,
scooby_state_5575ed11f266|40|1 1012,9,8,5,6,4,4,2,3,2,1,6,2,7,395,1466,
scooby_state_5575ed11f266|10|1 1023,5,7,7,3,6,2,4,2,5,0,5,4,4,388,1465,
scooby_state_5575ed11f266|38|1 1019,9,10,2,7,11,7,3,5,4,5,4,3,6,370,1465,
scooby_state_5575ed11f266|47|2 986,5,2,3,6,4,3,3,3,4,2,4,1,3,435,1464,
scooby_state_5575ed11f27b|60|0 1007,2,3,5,5,7,4,4,3,7,2,8,6,7,394,1464,
scooby_state_5575ed11f266|38|2 948,3,1,6,3,7,2,4,3,3,2,7,1,2,459,1451,
scooby_state_5575ed11f266|21|2 970,4,2,3,2,3,3,3,4,3,4,13,3,5,426,1448,
scooby_state_5575ed11f266|57|1 954,5,6,3,3,4,5,4,2,2,2,7,7,6,430,1440,
scooby_state_5575ed11f27b|27|0 979,5,6,4,3,3,3,2,5,4,3,9,2,5,404,1437,
scooby_state_5575ed11f266|27|1 995,5,6,7,4,5,4,6,4,4,6,3,4,2,382,1437,
scooby_state_5575ed11f266|55|1 956,3,5,5,3,4,2,2,5,3,3,3,4,4,429,1431,
scooby_state_5575ed11f27b|19|0 944,6,6,1,2,4,5,2,6,3,5,5,11,5,421,1426,
scooby_state_5575ed11f266|13|2 961,8,2,6,3,3,5,3,3,2,4,3,6,2,415,1426,
scooby_state_5575ed11f266|23|2 988,4,6,3,4,7,3,1,1,4,3,7,1,4,390,1426,
scooby_state_5575ed11f266|12|1 985,6,5,4,4,7,4,9,5,4,0,2,3,4,379,1421,
scooby_state_5575ed11f266|32|2 953,6,3,2,4,3,2,0,3,4,6,2,7,4,422,1421,
scooby_state_5575ed11f266|57|2 954,7,5,3,6,2,4,3,3,3,4,1,3,2,419,1419,
scooby_state_5575ed11f266|51|2 934,2,3,5,2,0,4,4,6,4,4,2,1,3,442,1416,
scooby_state_5575ed11f266|14|3 949,8,3,1,5,8,7,3,2,4,1,7,5,6,407,1416,
scooby_state_5575ed11f266|45|1 957,3,11,7,7,4,3,4,4,5,4,3,4,4,396,1416,
scooby_state_5575ed11f266|41|1 952,11,4,11,5,5,1,4,1,4,2,5,2,2,406,1415,
scooby_state_5575ed11f266|55|2 930,7,4,5,5,4,5,2,2,5,5,11,6,4,416,1411,
scooby_state_5575ed11f266|30|3 952,2,3,3,6,3,6,9,6,5,7,8,6,7,384,1407,
scooby_state_5575ed11f266|8|2 955,6,5,9,3,5,7,3,2,0,1,4,4,0,399,1403,
scooby_state_5575ed11f266|9|1 973,3,6,3,7,4,4,5,2,3,1,4,3,3,379,1400,
scooby_state_5575ed11f266|15|2 923,5,1,6,9,6,4,5,1,4,4,5,6,2,418,1399,
scooby_state_5575ed11f266|2|1 954,4,6,2,4,7,6,2,4,3,0,4,4,3,392,1395,
scooby_state_5575ed11f266|6|1 962,1,7,8,7,7,4,7,4,9,4,0,3,5,364,1392,
scooby_state_5575ed11f266|12|2 926,5,2,0,7,5,4,4,5,4,2,12,1,4,409,1390,
scooby_state_5575ed11f266|34|2 926,5,4,2,4,8,8,4,3,4,3,2,4,3,410,1390,
scooby_state_5575ed11f266|25|3 924,10,3,8,5,3,4,6,6,3,5,5,7,6,392,1387,
scooby_state_5575ed11f266|24|2 941,9,2,6,3,2,5,2,5,3,5,6,1,3,392,1385,
scooby_state_5575ed11f266|24|1 951,3,3,0,6,1,4,5,2,0,2,2,4,2,400,1385,
scooby_state_5575ed11f27b|54|0 973,3,5,6,4,2,3,4,2,5,7,4,3,6,349,1376,
scooby_state_5575ed11f266|36|2 905,3,4,5,6,5,5,4,1,3,1,6,4,4,419,1375,
scooby_state_5575ed11f266|52|2 901,2,2,7,8,7,2,2,5,1,4,5,4,1,423,1374,
scooby_state_5575ed11f266|29|4 919,9,8,10,6,5,3,5,10,5,5,4,5,6,370,1370,
scooby_state_5575ed11f266|42|2 942,6,4,5,2,7,3,1,0,5,2,7,3,2,381,1370,
scooby_state_5575ed11f266|61|2 928,3,6,2,1,5,2,3,6,1,1,10,2,3,389,1362,
scooby_state_5575ed11f266|30|2 924,8,6,3,5,4,2,1,1,1,1,5,3,3,393,1360,
scooby_state_5575ed11f266|51|1 918,2,3,3,8,4,3,3,6,1,5,4,6,7,387,1360,
scooby_state_5575ed11f266|44|2 881,4,5,8,4,5,4,4,4,5,4,6,2,1,421,1358,
scooby_state_5575ed11f266|5|1 936,1,7,3,10,5,2,2,2,7,5,6,3,2,363,1354,
scooby_state_5575ed11f266|56|2 908,5,5,4,4,3,7,2,4,5,4,5,3,3,389,1351,
scooby_state_5575ed11f266|5|2 922,3,5,5,4,3,5,5,5,3,2,4,3,4,375,1348,
scooby_state_5575ed11f266|41|2 900,8,5,5,4,5,4,3,1,3,3,5,5,1,393,1345,
scooby_state_5575ed11f266|29|1 926,7,5,4,3,0,3,3,5,2,2,7,3,2,371,1343,
scooby_state_5575ed11f266|39|1 924,6,5,6,4,0,4,5,1,5,2,5,6,4,362,1339,
scooby_state_5575ed11f266|44|4 910,4,7,2,3,6,3,2,4,4,3,6,9,6,368,1337,
scooby_state_5575ed11f266|14|2 905,7,6,1,1,4,6,1,5,4,3,4,4,7,379,1337,
scooby_state_5575ed11f266|31|1 947,3,9,1,6,1,4,5,5,3,4,2,2,5,337,1334,
scooby_state_5575ed11f266|51|3 883,10,5,7,4,0,6,6,2,3,3,4,6,7,387,1333,
scooby_state_5575ed11f266|49|2 875,3,2,4,7,2,6,2,2,2,2,6,4,4,411,1332,
scooby_state_5575ed11f266|62|3 881,4,7,6,4,4,4,4,3,2,6,2,1,9,394,1331,
scooby_state_5575ed11f266|26|2 909,5,2,5,7,5,6,3,0,2,2,9,3,4,366,1328,
scooby_state_5575ed11f266|21|4 915,7,8,4,6,7,5,2,8,1,7,3,13,3,339,1328,
scooby_state_5575ed11f266|54|2 875,3,2,5,6,2,3,2,4,1,2,5,3,1,409,1323,
scooby_state_5575ed11f266|56|1 872,7,8,10,10,4,3,4,2,6,0,2,5,5,381,1319,
scooby_state_5575ed11f266|9|2 913,5,3,3,6,3,3,3,4,3,2,7,3,4,355,1317,
scooby_state_5575ed11f266|18|2 949,5,1,3,5,2,2,0,2,5,2,4,3,1,331,1315,
scooby_state_5575ed11f266|22|2 887,3,3,5,1,4,3,3,3,2,5,5,7,7,376,1314,
scooby_state_5575ed11f266|59|2 868,5,3,2,7,6,10,2,8,1,4,4,2,6,383,1311,
scooby_state_5575ed11f266|17|2 865,5,4,6,2,4,4,4,4,3,2,1,5,1,399,1309,
scooby_state_5575ed11f266|7|2 887,5,5,5,4,5,4,2,3,2,1,7,8,5,363,1306,
scooby_state_5575ed11f266|16|1 898,3,6,4,6,10,4,6,0,4,0,3,2,3,357,1306,
scooby_state_5575ed11f266|20|2 887,6,4,5,9,6,2,1,1,1,4,3,3,2,369,1303,
scooby_state_5575ed11f266|36|3 866,4,1,3,4,4,4,3,3,2,6,3,4,6,385,1298,
scooby_state_5575ed11f266|60|3 851,8,9,7,7,5,5,6,2,3,1,5,5,2,381,1297,
scooby_state_5575ed11f266|27|3 861,7,6,4,4,7,7,4,6,5,5,6,3,10,362,1297,
scooby_state_5575ed11f266|63|3 867,4,6,5,5,4,7,7,1,7,1,6,3,6,366,1295,
scooby_state_5575ed11f266|11|4 846,3,2,5,6,5,7,4,3,3,2,8,7,2,392,1295,
scooby_state_5575ed11f266|10|3 868,4,9,11,4,5,8,1,5,1,4,11,9,9,344,1293,
scooby_state_5575ed11f27b|15|0 850,7,4,1,5,2,2,12,2,6,1,4,8,2,382,1288,
scooby_state_5575ed11f266|11|2 891,7,4,5,4,5,2,6,7,2,1,2,3,0,348,1287,
scooby_state_5575ed11f266|56|3 860,4,5,5,6,6,5,1,1,2,1,5,4,5,375,1285,
scooby_state_5575ed11f266|40|3 825,4,6,8,9,3,6,1,4,4,5,3,3,9,394,1284,
scooby_state_5575ed11f266|45|2 849,5,8,4,4,4,5,5,2,5,0,4,3,3,383,1284,
scooby_state_5575ed11f266|33|6 857,6,7,10,9,10,12,4,8,5,5,7,6,3,335,1284,
scooby_state_5575ed11f266|33|2 847,5,1,2,4,7,6,3,4,2,7,3,5,4,383,1283,
scooby_state_5575ed11f266|6|2 862,5,3,5,4,8,8,4,1,1,3,9,3,3,364,1283,
scooby_state_5575ed11f266|20|3 853,7,4,6,3,4,7,4,4,3,3,4,4,3,374,1283,
scooby_state_5575ed11f266|25|2 869,4,4,2,1,7,4,2,0,4,3,10,2,2,368,1282,
scooby_state_5575ed11f266|39|2 868,0,5,3,2,4,3,0,3,2,3,10,7,2,369,1281,
scooby_state_5575ed11f266|45|3 877,5,3,4,4,6,2,1,4,3,6,6,6,3,350,1280,
scooby_state_5575ed11f266|50|3 864,4,10,4,3,4,2,5,6,3,2,4,5,4,359,1279,
scooby_state_5575ed11f266|6|3 852,3,8,4,3,4,1,1,5,7,1,4,2,4,379,1278,
scooby_state_5575ed11f266|4|3 836,8,3,8,4,6,3,0,9,1,1,6,8,5,379,1277,
scooby_state_5575ed11f266|3|2 866,4,4,1,7,8,1,2,3,1,3,3,1,6,366,1276,
scooby_state_5575ed11f266|21|3 850,8,9,5,3,8,8,2,5,3,4,6,2,6,352,1271,
scooby_state_5575ed11f266|29|2 842,4,5,3,6,4,5,2,3,2,6,3,2,5,373,1265,
scooby_state_5575ed11f266|24|3 848,5,9,3,3,8,5,1,4,5,9,3,3,6,349,1261,
scooby_state_5575ed11f27b|16|0 847,4,5,4,4,6,5,3,5,5,6,2,4,6,355,1261,
scooby_state_5575ed11f266|28|2 820,9,6,6,3,2,3,2,2,2,3,2,2,3,392,1257,
scooby_state_5575ed11f266|35|4 837,4,5,9,3,4,8,2,0,5,4,2,5,4,365,1257,
scooby_state_5575ed11f266|35|2 828,3,3,2,2,6,3,5,5,3,2,2,5,5,380,1254,
scooby_state_5575ed11f266|4|2 847,3,4,2,3,4,3,2,3,3,4,4,2,5,365,1254,
scooby_state_5575ed11f266|17|4 826,4,2,6,3,1,4,2,6,7,4,2,5,6,374,1252,
scooby_state_5575ed11f266|48|3 832,2,5,3,1,4,2,3,2,1,3,6,4,5,378,1251,
scooby_state_5575ed11f266|47|3 817,5,2,6,5,6,2,1,2,2,2,5,7,10,379,1251,
scooby_state_5575ed11f266|46|2 800,5,6,1,2,12,2,1,0,5,4,6,4,3,397,1248,
scooby_state_5575ed11f266|16|2 831,1,4,0,5,2,2,2,1,0,2,5,5,5,381,1246,
scooby_state_5575ed11f266|53|2 824,6,3,3,2,7,8,5,2,3,2,4,3,3,369,1244,
scooby_state_5575ed11f266|10|2 821,6,2,3,8,1,5,3,3,1,0,2,3,1,385,1244,
scooby_state_5575ed11f266|50|2 840,2,4,4,4,8,1,1,3,3,1,4,4,5,359,1243,
scooby_state_5575ed11f266|19|2 868,5,2,3,3,2,3,4,2,2,1,3,6,3,334,1241,
scooby_state_5575ed11f266|27|2 807,5,4,4,5,0,4,4,2,2,1,6,0,3,389,1236,
scooby_state_5575ed11f266|33|3 799,3,6,2,9,2,3,0,2,4,1,4,4,3,392,1234,
scooby_state_5575ed11f266|8|3 830,6,6,10,2,3,6,3,4,6,4,5,7,2,339,1233,
scooby_state_5575ed11f266|39|3 792,5,3,6,3,6,2,3,4,6,0,4,2,3,389,1228,
scooby_state_5575ed11f266|23|4 837,3,4,7,4,2,5,5,3,5,5,5,8,8,324,1225,
scooby_state_5575ed11f266|58|3 794,7,5,5,10,4,2,3,5,3,4,3,3,5,372,1225,
scooby_state_5575ed11f266|63|2 799,5,7,8,3,6,0,4,4,5,1,4,4,2,369,1221,
scooby_state_5575ed11f266|11|3 811,6,4,7,3,5,4,7,5,3,3,2,2,6,352,1220,
scooby_state_5575ed11f266|32|4 802,2,5,7,7,0,2,3,5,1,3,6,6,4,365,1218,
scooby_state_5575ed11f266|12|3 807,7,6,6,6,4,1,2,6,2,2,5,2,5,346,1207,
scooby_state_5575ed11f266|13|3 781,9,5,6,3,0,8,4,5,5,8,4,4,5,357,1204,
scooby_state_5575ed11f27b|39|0 842,4,6,5,2,3,0,2,5,2,0,4,3,0,324,1202,
scooby_state_5575ed11f266|53|3 815,1,4,4,2,6,7,3,4,2,5,6,2,2,339,1202,
scooby_state_5575ed11f266|18|3 796,2,5,6,3,9,4,3,8,4,2,1,3,0,349,1195,
scooby_state_5575ed11f266|3|3 765,8,9,4,2,6,1,5,3,2,4,3,3,4,372,1191,
scooby_state_5575ed11f266|7|3 803,8,0,4,5,5,3,6,4,2,4,3,6,4,333,1190,
scooby_state_5575ed11f266|23|3 798,8,7,2,6,3,2,1,5,5,5,5,4,5,331,1187,
scooby_state_5575ed11f266|55|3 766,4,4,9,3,2,2,3,5,4,3,5,4,5,367,1186,
scooby_state_5575ed11f266|2|2 776,7,4,1,3,9,6,7,2,1,2,4,3,2,359,1186,
scooby_state_5575ed11f27b|42|0 826,3,6,3,6,3,3,6,1,2,2,5,1,3,315,1185,
scooby_state_5575ed11f266|43|3 768,5,8,5,2,6,3,4,5,2,7,2,1,3,364,1185,
scooby_state_5575ed11f266|26|3 786,4,2,4,3,3,5,3,5,1,2,9,2,5,351,1185,
scooby_state_5575ed11f266|17|3 790,4,6,7,2,4,7,2,5,6,2,7,3,3,334,1182,
scooby_state_5575ed11f266|9|3 793,7,7,4,4,6,10,6,4,3,3,2,2,3,324,1178,
scooby_state_5575ed11f266|43|2 798,1,4,3,4,4,4,2,3,3,3,4,4,3,338,1178,
scooby_state_5575ed11f266|9|4 834,4,3,5,2,0,7,7,7,3,4,2,3,1,296,1178,
scooby_state_5575ed11f266|18|4 777,5,2,7,5,2,9,3,5,6,3,3,8,3,334,1172,
scooby_state_5575ed11f266|51|4 750,5,1,6,7,2,6,6,1,4,3,4,9,4,362,1170,
scooby_state_5575ed11f266|59|3 760,6,4,8,2,3,5,2,4,6,2,4,4,4,352,1166,
scooby_state_5575ed11f266|40|4 778,4,7,3,2,3,4,3,6,5,1,7,4,1,337,1165,
scooby_state_5575ed11f266|7|4 787,3,4,6,5,3,7,7,4,5,6,5,6,4,313,1165,
scooby_state_5575ed11f266|58|2 767,5,3,3,5,4,2,6,5,3,4,9,5,6,336,1163,
scooby_state_5575ed11f266|57|3 760,4,6,4,5,7,8,6,6,3,5,7,6,3,333,1163,
scooby_state_5575ed11f27b|0|0 817,3,4,11,3,6,2,3,4,2,2,1,4,3,295,1160,
scooby_state_5575ed11f266|28|3 791,5,5,4,3,1,2,2,2,6,3,3,8,3,321,1159,
scooby_state_5575ed11f266|31|2 776,2,2,5,7,2,3,2,4,3,5,2,3,2,338,1156,
scooby_state_5575ed11f266|59|4 721,3,3,4,5,8,2,3,6,1,1,6,4,4,384,1155,
scooby_state_5575ed11f266|48|2 758,2,1,2,3,2,5,0,3,2,3,6,5,1,360,1153,
scooby_state_5575ed11f266|25|4 769,9,5,2,8,4,3,12,5,4,2,4,5,5,314,1151,
scooby_state_5575ed11f266|32|3 770,5,4,1,5,5,3,2,4,5,6,2,2,7,330,1151,
scooby_state_5575ed11f266|57|6 753,4,5,5,6,3,7,2,4,9,3,7,6,5,330,1149,
scooby_state_5575ed11f266|38|3 747,4,6,7,2,1,3,2,5,4,1,4,3,3,354,1146,
scooby_state_5575ed11f266|36|4 742,1,7,4,3,3,7,4,7,4,2,4,10,5,341,1144,
scooby_state_5575ed11f266|61|4 747,5,5,2,6,5,4,8,2,4,2,7,6,5,335,1143,
scooby_state_5575ed11f266|42|3 731,8,4,3,5,4,2,6,5,3,2,7,7,6,345,1138,
scooby_state_5575ed11f266|33|4 743,4,5,8,3,3,8,2,5,3,0,6,15,5,327,1137,
scooby_state_5575ed11f27b|4|0 757,10,5,2,0,6,2,7,3,3,3,5,5,4,324,1136,
scooby_state_5575ed11f266|37|3 784,3,2,4,3,2,4,4,7,3,2,4,3,3,305,1133,
scooby_state_5575ed11f266|52|3 754,4,4,5,3,3,5,2,3,4,4,1,2,7,332,1133,
scooby_state_5575ed11f266|45|5 746,4,9,3,6,2,5,7,5,4,1,3,8,7,317,1127,
scooby_state_5575ed11f266|48|4 740,4,3,5,3,7,2,2,3,1,5,3,9,3,333,1123,
scooby_state_5575ed11f266|5|3 750,6,5,3,4,2,4,4,1,1,4,5,5,4,325,1123,
scooby_state_5575ed11f266|39|4 732,8,6,7,8,4,0,3,3,6,9,0,4,7,323,1120,
scooby_state_5575ed11f266|29|3 737,10,6,6,2,2,4,1,3,2,4,2,6,3,330,1118,
scooby_state_5575ed11f266|13|4 729,5,2,7,6,1,9,2,9,1,3,2,9,4,326,1115,
scooby_state_5575ed11f266|60|4 713,5,7,10,3,8,3,2,4,3,7,7,7,5,327,1111,
scooby_state_5575ed11f266|44|3 746,5,3,5,4,5,4,1,2,1,6,2,1,3,322,1110,
scooby_state_5575ed11f266|20|4 758,2,3,8,3,3,2,1,3,3,4,2,6,5,307,1110,
scooby_state_5575ed11f266|4|4 739,7,6,4,3,5,8,4,2,3,8,7,5,5,303,1109,
scooby_state_5575ed11f266|52|4 726,5,4,4,6,7,3,5,5,4,4,4,10,5,315,1107,
scooby_state_5575ed11f266|35|3 747,3,8,1,1,2,6,6,4,3,2,4,6,3,309,1105,
scooby_state_5575ed11f266|53|6 755,9,9,9,8,5,5,8,3,5,2,4,3,6,271,1102,
scooby_state_5575ed11f266|61|3 712,6,5,1,6,2,3,4,4,5,3,6,3,3,339,1102,
scooby_state_5575ed11f27b|11|0 768,3,6,3,1,1,4,3,2,0,0,5,4,5,293,1098,
scooby_state_5575ed11f266|40|5 724,4,12,4,7,8,4,0,2,4,3,5,2,2,315,1096,
scooby_state_5575ed11f266|50|4 702,16,4,3,3,5,3,4,1,1,0,7,5,4,337,1095,
scooby_state_5575ed11f266|55|4 697,6,8,7,8,6,8,6,10,2,3,4,6,3,316,1090,
scooby_state_5575ed11f27b|40|0 747,2,5,6,2,4,4,3,0,2,2,4,3,5,300,1089,
scooby_state_5575ed11f266|61|6 714,3,9,2,6,5,4,3,4,2,6,10,6,9,305,1088,
scooby_state_5575ed11f266|9|7 697,2,8,4,3,8,8,0,7,7,7,7,5,11,313,1087,
scooby_state_5575ed11f266|30|4 720,6,4,4,6,4,3,4,6,2,6,3,4,6,304,1082,
scooby_state_5575ed11f266|47|5 702,2,5,5,7,5,2,3,0,6,4,5,3,4,327,1080,
scooby_state_5575ed11f266|46|4 697,5,6,2,6,5,6,2,3,7,8,3,5,5,319,1079,
scooby_state_5575ed11f266|22|3 692,7,7,0,5,3,3,3,3,2,4,1,2,3,343,1078,
scooby_state_5575ed11f266|14|5 685,3,5,2,3,4,9,11,3,6,2,6,4,3,329,1075,
scooby_state_5575ed11f27b|58|0 734,2,6,3,3,3,3,1,1,1,2,1,2,5,307,1074,
scooby_state_5575ed11f266|49|3 702,8,2,1,4,5,6,5,3,3,3,2,3,5,321,1073,
scooby_state_5575ed11f266|16|3 716,3,4,6,2,3,3,2,2,2,5,0,5,6,313,1072,
scooby_state_5575ed11f27b|59|0 756,5,3,2,3,1,3,2,3,6,1,7,5,2,270,1069,
scooby_state_5575ed11f266|42|6 696,5,7,4,9,5,3,3,6,3,5,8,7,7,300,1068,
scooby_state_5575ed11f27b|51|0 694,2,6,2,3,2,4,1,3,3,2,2,4,5,333,1066,
scooby_state_5575ed11f266|39|6 709,7,5,8,5,6,5,5,4,3,3,3,6,4,293,1066,
scooby_state_5575ed11f266|32|6 721,10,4,8,10,4,8,6,4,2,5,5,8,9,262,1066,
scooby_state_5575ed11f266|41|3 693,5,4,5,5,9,4,3,3,5,0,3,1,0,325,1065,
scooby_state_5575ed11f266|47|4 719,6,11,2,5,7,3,1,6,2,5,2,8,1,285,1063,
scooby_state_5575ed11f266|53|4 699,5,4,4,1,4,5,2,5,1,6,6,5,5,311,1063,
scooby_state_5575ed11f266|21|6 722,9,7,8,6,4,7,1,3,6,1,2,5,3,277,1061,
scooby_state_5575ed11f266|58|4 693,6,7,2,2,6,3,3,4,3,5,4,4,5,313,1060,
scooby_state_5575ed11f266|31|3 716,2,4,2,4,2,5,5,4,6,3,6,4,0,297,1060,
scooby_state_5575ed11f266|34|4 691,11,2,7,1,6,3,5,3,5,2,9,3,6,306,1060,
scooby_state_5575ed11f266|57|4 695,5,5,5,6,3,1,5,6,6,2,3,4,3,310,1059,
scooby_state_5575ed11f266|62|4 682,4,9,4,3,4,4,6,5,2,2,5,5,3,316,1054,
scooby_state_5575ed11f266|54|3 688,3,7,2,0,6,2,2,2,4,2,1,5,2,327,1053,
scooby_state_5575ed11f266|8|4 690,3,2,8,7,3,3,5,3,2,1,1,6,3,314,1051,
scooby_state_5575ed11f266|38|6 699,10,8,8,4,9,5,2,3,7,2,5,4,7,277,1050,
scooby_state_5575ed11f266|19|3 699,1,5,4,3,4,2,5,5,6,1,4,5,6,294,1044,
scooby_state_5575ed11f27b|24|0 687,5,4,4,5,3,5,2,0,4,3,2,6,7,307,1044,
scooby_state_5575ed11f266|12|6 686,7,6,2,5,6,6,4,3,4,1,5,6,5,298,1044,
scooby_state_5575ed11f266|15|4 698,3,2,7,3,5,3,5,4,3,2,3,4,5,297,1044,
scooby_state_5575ed11f266|19|5 709,3,5,3,3,2,5,1,5,1,4,6,4,4,289,1044,
scooby_state_5575ed11f266|12|4 680,4,4,3,7,3,4,1,2,3,3,6,4,6,313,1043,
scooby_state_5575ed11f266|54|4 667,9,3,8,6,1,7,4,1,2,3,2,3,4,322,1042,
scooby_state_5575ed11f266|60|5 699,6,4,6,1,0,8,5,8,5,1,2,6,2,286,1039,
scooby_state_5575ed11f266|26|5 665,3,5,0,5,9,10,3,7,6,5,5,7,4,305,1039,
scooby_state_5575ed11f266|37|4 664,12,5,3,4,3,4,2,2,2,4,4,8,5,316,1038,
scooby_state_5575ed11f266|15|3 685,7,8,1,2,2,3,4,2,1,7,3,3,1,307,1036,
scooby_state_5575ed11f266|14|4 683,4,4,5,6,4,2,4,0,4,4,3,3,5,305,1036,
scooby_state_5575ed11f266|46|3 652,4,5,1,5,4,6,7,8,3,4,2,1,4,329,1035,
scooby_state_5575ed11f266|24|5 673,3,3,11,2,4,3,4,3,6,5,3,5,5,304,1034,
scooby_state_5575ed11f266|19|4 689,5,5,9,3,3,3,5,3,5,5,1,8,1,289,1034,
scooby_state_5575ed11f266|10|4 647,6,4,4,5,9,5,2,3,6,2,8,6,4,320,1031,
scooby_state_5575ed11f266|42|4 678,5,2,4,4,2,2,6,4,3,6,6,4,2,302,1030,
scooby_state_5575ed11f266|49|5 671,4,7,4,6,2,8,3,2,3,2,4,3,7,303,1029,
scooby_state_5575ed11f266|20|5 668,5,4,7,6,3,5,5,5,2,1,5,2,10,301,1029,
scooby_state_5575ed11f266|62|5 677,3,6,6,4,4,6,6,3,5,2,1,2,3,297,1025,
scooby_state_5575ed11f266|13|10 704,8,6,7,5,5,5,7,6,6,2,5,10,7,241,1024,
scooby_state_5575ed11f266|47|7 663,4,4,4,5,7,3,4,6,3,2,6,10,7,295,1023,
scooby_state_5575ed11f266|35|5 674,5,5,8,0,9,4,3,6,2,2,6,7,4,286,1021,
scooby_state_5575ed11f266|7|6 654,10,5,7,9,7,8,7,9,3,2,3,11,4,281,1020,
scooby_state_5575ed11f266|6|4 686,3,4,2,4,3,6,1,5,3,3,2,11,4,281,1018,
scooby_state_5575ed11f27b|53|0 659,4,6,1,3,0,2,1,1,2,6,1,2,4,322,1014,
scooby_state_5575ed11f266|45|4 653,1,11,2,2,2,3,2,6,3,2,3,7,6,310,1013,
scooby_state_5575ed11f266|9|6 670,7,9,5,8,8,4,4,3,5,7,5,3,2,273,1013,
scooby_state_5575ed11f266|27|4 665,6,6,4,5,5,3,2,5,2,5,4,7,4,289,1012,
scooby_state_5575ed11f266|16|4 673,9,1,6,2,5,4,3,4,1,1,4,3,0,295,1011,
scooby_state_5575ed11f266|63|4 647,5,5,3,3,5,4,4,4,3,4,2,3,3,315,1010,
scooby_state_5575ed11f266|49|4 651,2,4,2,4,5,4,5,2,6,1,5,3,2,314,1010,
scooby_state_5575ed11f266|37|5 697,4,6,5,4,7,3,5,3,4,6,3,4,4,254,1009,
scooby_state_5575ed11f266|24|4 654,7,7,0,4,4,6,4,2,6,2,4,2,4,303,1009,
scooby_state_5575ed11f266|44|5 654,3,3,3,1,7,4,3,4,3,3,7,4,4,306,1009,
scooby_state_5575ed11f27b|44|0 653,1,1,5,2,2,0,1,2,1,4,2,3,1,329,1007,
scooby_state_5575ed11f266|30|6 664,12,9,5,7,5,5,2,6,5,3,1,6,5,272,1007,
scooby_state_5575ed11f266|22|4 653,2,5,8,4,5,4,3,4,1,2,7,4,3,302,1007,
scooby_state_5575ed11f266|40|6 688,15,7,2,9,5,0,3,3,5,5,3,3,1,252,1001,
scooby_state_5575ed11f266|26|4 685,4,7,6,1,4,2,4,4,2,1,1,6,2,270,999,
scooby_state_5575ed11f27b|56|0 680,3,3,6,2,3,2,6,1,3,2,6,8,3,267,995,
scooby_state_5575ed11f266|45|7 669,4,6,5,6,3,9,2,6,5,3,1,7,8,261,995,
scooby_state_5575ed11f266|28|7 659,3,6,4,1,9,3,7,3,2,4,3,6,3,280,993,
scooby_state_5575ed11f266|38|5 662,6,2,3,7,4,3,5,2,3,8,4,5,6,273,993,
scooby_state_5575ed11f266|34|3 655,3,4,3,3,2,5,1,4,0,0,2,4,5,302,993,
scooby_state_5575ed11f266|18|5 659,4,4,5,10,2,8,4,1,2,0,3,1,5,285,993,
scooby_state_5575ed11f266|58|11 712,9,9,5,6,4,8,4,3,4,1,5,3,3,216,992,
scooby_state_5575ed11f266|5|4 667,3,5,4,6,6,2,3,8,3,3,3,3,0,276,992,
scooby_state_5575ed11f266|53|7 665,7,7,7,5,3,7,5,6,3,3,4,2,4,263,991,
scooby_state_5575ed11f266|50|5 644,2,5,6,6,2,2,5,6,5,3,3,7,7,288,991,
scooby_state_5575ed11f266|13|5 659,2,4,2,6,2,4,1,4,3,1,2,3,5,287,985,
scooby_state_5575ed11f266|53|5 640,4,2,3,7,4,5,2,5,4,4,4,7,8,282,981,
scooby_state_5575ed11f266|56|5 651,7,8,6,4,6,5,2,2,5,1,2,2,4,275,980,
scooby_state_5575ed11f266|48|8 648,5,7,4,3,3,4,6,7,4,5,5,9,8,262,980,
scooby_state_5575ed11f266|41|5 643,4,4,5,6,2,4,5,5,6,5,2,6,3,279,979,
scooby_state_5575ed11f266|55|6 599,8,3,6,5,8,5,1,7,3,4,3,4,2,320,978,
scooby_state_5575ed11f266|63|6 630,5,2,8,9,8,9,6,7,2,3,5,4,5,270,973,
scooby_state_5575ed11f266|52|5 659,6,5,2,5,6,3,2,3,1,1,8,5,5,260,971,
scooby_state_5575ed11f266|13|6 686,0,4,4,2,8,3,3,1,4,2,5,6,2,239,969,
scooby_state_5575ed11f27b|62|0 646,3,4,5,2,3,0,2,2,0,1,5,5,3,282,963,
scooby_state_5575ed11f266|54|5 618,6,2,9,3,5,6,3,2,2,2,1,5,7,291,962,
scooby_state_5575ed11f266|12|5 625,2,5,3,5,6,3,0,7,1,6,7,5,3,283,961,
scooby_state_5575ed11f266|32|7 650,4,2,6,5,5,6,4,8,1,1,5,3,9,251,960,
scooby_state_5575ed11f266|38|4 623,2,2,3,4,5,2,2,1,5,1,3,4,1,301,959,
scooby_state_5575ed11f266|56|4 633,8,6,4,3,1,2,2,1,2,1,2,3,3,286,957,
scooby_state_5575ed11f266|32|5 635,6,10,5,9,4,1,8,2,2,2,4,2,2,265,957,
scooby_state_5575ed11f266|59|6 619,7,6,4,3,9,6,1,3,3,3,4,5,3,280,956,
scooby_state_5575ed11f266|44|6 629,1,10,3,9,4,3,4,3,3,2,4,3,3,275,956,
scooby_state_5575ed11f266|55|5 594,6,5,6,6,7,4,2,1,3,3,4,3,2,307,953,
scooby_state_5575ed11f266|49|6 610,6,5,6,11,5,6,2,4,4,4,5,1,2,282,953,
scooby_state_5575ed11f266|23|5 629,4,4,2,3,4,6,2,1,2,1,8,3,5,277,951,
scooby_state_5575ed11f266|24|6 644,6,4,3,5,3,5,7,2,3,4,4,4,6,249,949,
scooby_state_5575ed11f266|19|6 629,9,8,4,4,2,3,3,4,11,4,1,5,5,257,949,
scooby_state_5575ed11f266|22|5 618,5,8,8,2,7,5,6,7,4,2,4,3,6,263,948,
scooby_state_5575ed11f266|25|6 625,5,7,6,8,2,6,5,3,3,4,7,10,4,251,946,
scooby_state_5575ed11f266|11|5 601,3,5,2,3,4,5,6,1,5,4,9,3,5,290,946,
scooby_state_5575ed11f266|25|5 633,5,4,5,3,4,7,4,2,1,5,4,4,6,259,946,
scooby_state_5575ed11f266|6|5 626,4,3,1,3,6,5,4,3,1,3,7,2,2,276,946,
scooby_state_5575ed11f266|58|8 645,4,5,7,4,4,3,5,6,4,4,4,1,3,246,945,
scooby_state_5575ed11f266|18|6 615,6,7,7,7,8,7,6,4,0,6,4,9,3,255,944,
scooby_state_5575ed11f266|51|5 618,10,6,8,5,1,4,1,1,3,5,8,5,4,265,944,
scooby_state_5575ed11f266|62|8 623,13,3,5,2,3,8,5,7,2,2,4,6,7,253,943,
scooby_state_5575ed11f266|59|5 609,2,5,5,10,0,3,4,4,2,5,3,4,7,280,943,
scooby_state_5575ed11f266|42|5 603,8,5,4,4,5,10,3,6,1,3,2,4,4,281,943,
scooby_state_5575ed11f266|63|5 617,6,6,1,4,6,4,2,7,3,2,5,2,9,268,942,
scooby_state_5575ed11f266|62|7 619,8,2,6,5,1,6,3,1,6,5,2,4,5,268,941,
scooby_state_5575ed11f266|36|6 630,9,4,3,9,4,5,2,6,2,2,3,9,6,246,940,
scooby_state_5575ed11f266|36|5 626,3,8,3,2,4,5,3,3,1,1,3,3,4,271,940,
scooby_state_5575ed11f266|33|7 609,1,6,5,3,7,5,2,3,3,2,4,6,3,280,939,
scooby_state_5575ed11f266|27|5 593,9,7,3,6,1,5,5,1,2,3,8,3,3,287,936,
scooby_state_5575ed11f266|23|6 602,10,4,15,8,2,1,4,5,2,3,3,9,3,261,932,
scooby_state_5575ed11f266|7|5 622,9,2,2,2,6,7,3,3,2,5,3,4,4,257,931,
scooby_state_5575ed11f266|8|5 612,2,6,2,4,1,2,4,3,3,4,3,9,3,271,929,
scooby_state_5575ed11f27b|61|0 610,8,3,1,3,6,3,0,3,2,4,3,1,4,277,928,
scooby_state_5575ed11f266|35|9 603,4,5,9,7,7,6,4,3,5,5,3,3,4,260,928,
scooby_state_5575ed11f27b|34|0 633,6,1,4,5,4,2,2,3,1,5,3,5,4,246,924,
scooby_state_5575ed11f266|5|5 623,2,4,4,2,4,4,7,2,5,5,7,4,3,246,922,
scooby_state_5575ed11f266|55|7 612,2,2,6,4,6,7,8,3,3,4,5,3,7,249,921,
scooby_state_5575ed11f266|29|5 577,5,5,4,6,3,7,3,5,2,5,3,1,4,291,921,
scooby_state_5575ed11f266|16|6 598,4,6,3,0,6,8,3,3,3,4,2,8,5,268,921,
scooby_state_5575ed11f266|58|6 605,5,4,2,5,5,4,4,6,5,4,6,5,6,254,920,
scooby_state_5575ed11f27b|2|0 639,4,4,1,1,3,4,0,1,3,0,2,5,1,250,918,
scooby_state_5575ed11f266|57|8 600,6,6,2,6,9,5,2,5,3,6,9,6,4,249,918,
scooby_state_5575ed11f266|17|6 594,8,4,8,5,3,5,6,4,3,5,7,3,4,259,918,
scooby_state_5575ed11f266|62|6 578,6,11,4,4,2,5,5,4,3,5,3,6,4,276,916,
scooby_state_5575ed11f266|60|7 600,6,1,8,6,2,11,3,0,2,2,1,2,4,268,916,
scooby_state_5575ed11f266|28|5 612,4,4,4,9,3,4,4,3,6,2,5,6,7,242,915,
scooby_state_5575ed11f266|58|7 585,6,3,7,4,2,4,3,1,0,2,8,4,12,274,915,
scooby_state_5575ed11f266|13|8 605,7,7,4,5,3,9,4,2,6,1,1,6,4,250,914,
scooby_state_5575ed11f266|43|7 602,4,5,6,3,2,3,4,3,3,3,6,3,10,256,913,
scooby_state_5575ed11f266|21|7 605,7,7,11,5,3,6,6,2,2,0,3,1,7,246,911,
scooby_state_5575ed11f266|43|5 601,4,3,3,4,3,4,4,1,4,5,4,7,6,257,910,
scooby_state_5575ed11f266|57|9 599,7,7,11,5,7,7,5,4,5,3,5,3,3,239,910,
scooby_state_5575ed11f266|20|6 575,5,9,4,4,3,4,6,4,4,4,8,3,2,274,909,
scooby_state_5575ed11f266|30|5 605,5,0,5,4,5,4,3,8,5,2,6,2,1,253,908,
scooby_state_5575ed11f266|14|7 587,9,6,5,3,5,3,4,5,2,3,5,1,6,263,907,
scooby_state_5575ed11f266|33|5 591,3,2,3,3,5,4,3,4,4,3,5,6,5,264,905,
scooby_state_5575ed11f266|60|8 610,9,7,3,7,5,5,4,5,4,2,7,3,3,230,904,
scooby_state_5575ed11f266|41|4 587,3,4,3,0,1,3,4,1,1,3,4,7,6,276,903,
scooby_state_5575ed11f266|17|5 597,1,6,2,2,3,3,1,2,6,3,5,4,1,266,902,
scooby_state_5575ed11f266|51|7 591,8,7,4,2,1,7,2,3,7,7,5,2,6,248,900,
scooby_state_5575ed11f27b|20|0 579,2,3,3,5,4,3,2,2,2,4,6,3,1,281,900,
scooby_state_5575ed11f27b|18|0 624,4,3,2,2,4,0,4,3,2,2,4,2,3,239,898,
scooby_state_5575ed11f266|26|6 574,11,4,4,4,4,4,7,5,4,4,9,2,7,255,898,
scooby_state_5575ed11f266|59|7 593,4,3,5,6,3,7,4,6,3,2,4,4,6,246,896,
scooby_state_5575ed11f266|36|9 575,7,4,7,3,4,2,4,4,4,3,3,4,6,265,895,
scooby_state_5575ed11f266|14|6 584,5,7,8,8,9,6,2,1,3,2,5,5,1,247,893,
scooby_state_5575ed11f266|56|6 572,8,5,5,9,6,4,5,4,3,1,5,2,4,255,888,
scooby_state_5575ed11f266|52|7 584,7,5,10,3,3,2,2,7,1,7,3,5,2,247,888,
scooby_state_5575ed11f266|51|6 574,1,3,11,8,5,9,5,5,4,7,3,3,5,244,887,
scooby_state_5575ed11f266|61|5 552,4,11,8,5,6,6,4,3,2,2,3,4,9,267,886,
scooby_state_5575ed11f266|25|7 613,3,4,3,6,3,5,2,7,4,1,2,5,8,219,885,
scooby_state_5575ed11f266|21|5 585,5,2,4,6,2,4,4,5,2,1,6,6,3,250,885,
scooby_state_5575ed11f266|11|6 575,8,1,5,4,2,7,4,1,5,1,1,3,2,265,884,
scooby_state_5575ed11f266|50|6 567,4,3,4,4,2,3,8,0,0,4,6,4,6,268,883,
scooby_state_5575ed11f266|28|4 556,4,4,3,1,6,2,3,5,6,3,7,9,7,265,881,
scooby_state_5575ed11f266|29|6 604,6,4,4,4,4,3,3,2,1,4,3,4,5,228,879,
scooby_state_5575ed11f266|39|5 571,5,5,6,3,3,4,2,1,4,6,2,8,3,255,878,
scooby_state_5575ed11f266|58|5 573,3,2,10,8,3,1,2,5,2,4,3,3,5,253,877,
scooby_state_5575ed11f266|13|7 562,5,3,8,1,3,6,6,2,1,2,5,3,2,266,875,
scooby_state_5575ed11f266|10|7 551,3,1,7,4,3,4,4,4,5,2,4,8,4,271,875,
scooby_state_5575ed11f27b|9|0 620,1,3,4,5,2,1,6,4,2,3,1,7,0,215,874,
scooby_state_5575ed11f266|57|5 531,4,6,7,6,2,3,3,3,4,4,4,2,2,292,873,
scooby_state_5575ed11f266|36|11 574,4,9,4,5,4,5,6,5,4,3,7,0,0,241,871,
scooby_state_5575ed11f266|31|5 576,10,3,7,4,6,8,5,1,4,3,3,1,3,237,871,
scooby_state_5575ed11f266|35|6 578,5,8,11,9,5,4,5,6,4,1,3,4,8,220,871,
scooby_state_5575ed11f266|52|6 564,3,2,5,4,7,4,1,5,5,3,3,5,4,255,870,
scooby_state_5575ed11f27b|28|0 597,2,4,3,1,3,5,4,0,0,1,3,5,4,238,870,
scooby_state_5575ed11f266|18|8 535,13,6,6,6,3,4,6,6,3,1,2,7,2,270,870,
scooby_state_5575ed11f266|10|5 568,6,4,3,2,5,7,6,0,4,3,3,2,4,252,869,
scooby_state_5575ed11f266|40|7 556,6,5,4,5,6,3,4,2,0,3,10,6,5,254,869,
scooby_state_5575ed11f27b|25|0 555,4,0,4,2,5,5,5,3,0,3,5,3,3,271,868,
scooby_state_5575ed11f266|17|8 571,4,6,5,2,5,5,4,0,3,5,3,5,3,247,868,
scooby_state_5575ed11f266|26|7 589,3,4,5,3,4,3,8,5,4,4,4,3,5,223,867,
scooby_state_5575ed11f266|46|6 531,9,5,6,3,6,1,3,6,5,3,7,7,3,272,867,
scooby_state_5575ed11f266|55|9 549,4,6,12,7,9,3,4,1,9,1,3,5,4,249,866,
scooby_state_5575ed11f266|63|10 579,7,9,5,6,6,3,2,4,4,4,7,1,6,223,866,
scooby_state_5575ed11f266|39|7 584,5,5,1,5,3,4,1,4,5,0,7,4,10,227,865,
scooby_state_5575ed11f266|48|5 554,5,3,5,6,1,7,3,2,3,4,4,0,2,266,865,
scooby_state_5575ed11f266|32|8 586,2,6,8,1,4,3,3,0,6,5,5,3,1,232,865,
scooby_state_5575ed11f266|30|9 575,4,8,10,7,5,5,4,4,2,5,4,5,4,222,864,
scooby_state_5575ed11f266|29|8 570,3,5,7,2,3,5,3,2,3,3,1,3,3,249,862,
scooby_state_5575ed11f266|28|6 560,2,4,3,2,4,4,3,3,3,5,3,2,1,263,862,
scooby_state_5575ed11f266|43|4 551,5,4,9,4,2,2,1,4,3,3,6,3,5,259,861,
scooby_state_5575ed11f266|36|8 580,5,2,9,7,3,7,4,4,4,3,4,6,6,216,860,
scooby_state_5575ed11f266|40|10 599,4,3,5,5,6,6,5,3,3,7,5,5,3,200,859,
scooby_state_5575ed11f266|11|7 569,4,6,5,2,4,3,2,3,2,5,5,4,4,241,859,
scooby_state_5575ed11f266|54|7 538,2,6,4,3,5,2,0,4,4,5,3,11,4,267,858,
scooby_state_5575ed11f266|46|5 553,2,3,3,6,5,4,1,0,5,4,6,8,2,254,856,
scooby_state_5575ed11f266|42|9 543,5,8,8,11,5,7,6,5,3,4,1,3,6,240,855,
scooby_state_5575ed11f266|24|7 560,5,4,3,4,5,3,1,2,2,2,4,2,8,248,853,
scooby_state_5575ed11f266|62|9 587,6,5,4,3,3,2,9,4,4,5,9,1,7,201,850,
scooby_state_5575ed11f266|31|6 568,4,1,3,3,4,2,2,2,1,3,6,3,2,246,850,
scooby_state_5575ed11f266|34|6 555,13,8,5,1,5,3,8,4,2,3,8,7,6,221,849,
scooby_state_5575ed11f266|47|6 551,9,5,4,5,6,2,3,3,4,2,4,2,6,243,849,
scooby_state_5575ed11f266|34|5 566,1,4,3,3,1,5,0,4,2,3,1,4,5,247,849,
scooby_state_5575ed11f266|63|7 560,6,4,4,5,3,4,3,4,2,2,5,6,5,234,847,
scooby_state_5575ed11f266|61|7 542,2,7,3,4,2,6,3,1,2,2,1,2,6,263,846,
scooby_state_5575ed11f266|21|9 537,6,6,6,5,6,7,5,5,5,2,3,4,5,243,845,
scooby_state_5575ed11f266|22|7 560,6,4,2,4,6,1,3,1,2,2,5,3,4,242,845,
scooby_state_5575ed11f266|16|5 555,1,4,4,5,7,1,3,4,1,3,4,3,6,243,844,
scooby_state_5575ed11f266|37|7 570,3,8,5,2,4,3,0,3,4,3,2,4,8,224,843,
scooby_state_5575ed11f266|8|6 549,6,9,5,5,5,2,8,7,4,4,5,3,3,228,843,
scooby_state_5575ed11f266|41|6 560,5,6,6,4,7,3,3,5,5,3,4,1,4,226,842,
scooby_state_5575ed11f266|22|9 575,2,7,5,4,5,10,6,6,2,4,2,3,7,201,839,
scooby_state_5575ed11f266|7|7 544,5,7,7,2,4,1,2,1,1,5,4,2,8,246,839,
scooby_state_5575ed11f266|44|8 572,1,6,7,7,1,5,0,3,3,3,2,4,4,221,839,
scooby_state_5575ed11f266|47|9 565,6,5,5,7,4,5,2,2,4,2,3,4,5,220,839,
scooby_state_5575ed11f266|61|8 575,4,2,3,5,4,5,2,3,3,1,8,1,6,216,838,
scooby_state_5575ed11f266|22|6 553,1,4,2,8,6,6,4,8,1,5,4,4,11,221,838,
scooby_state_5575ed11f266|9|5 543,2,2,9,2,4,2,1,2,1,1,6,5,4,254,838,
scooby_state_5575ed11f27b|55|0 546,4,2,2,1,6,3,2,2,5,0,6,5,1,253,838,
scooby_state_5575ed11f266|10|6 541,5,6,4,3,3,3,2,3,2,3,4,5,5,248,837,
scooby_state_5575ed11f266|27|6 564,4,2,5,5,4,2,8,2,2,4,6,8,8,212,836,
scooby_state_5575ed11f266|10|8 546,4,3,6,3,4,2,4,2,2,2,3,8,2,244,835,
scooby_state_5575ed11f266|17|7 550,5,6,7,3,3,6,0,3,0,2,3,6,8,232,834,
scooby_state_5575ed11f266|15|6 552,3,2,4,4,3,5,5,3,2,5,3,4,3,236,834,
scooby_state_5575ed11f266|45|6 527,10,4,4,8,5,1,2,4,2,2,5,8,2,247,831,
scooby_state_5575ed11f266|29|7 552,3,4,4,3,8,4,2,0,2,0,3,3,2,241,831,
scooby_state_5575ed11f266|54|6 548,5,3,6,2,4,2,4,4,4,5,2,3,4,233,829,
scooby_state_5575ed11f266|60|6 532,6,4,12,3,8,8,4,4,5,2,4,1,6,230,829,
scooby_state_5575ed11f266|25|8 546,8,9,2,6,7,4,4,1,2,4,3,4,4,225,829,
scooby_state_5575ed11f266|18|7 541,1,5,3,4,5,8,1,1,3,2,2,2,6,239,823,
scooby_state_5575ed11f266|20|7 531,3,4,7,2,6,2,4,4,0,3,2,4,4,246,822,
scooby_state_5575ed11f266|31|7 547,5,1,6,5,3,5,4,2,3,1,4,5,3,228,822,
scooby_state_5575ed11f266|50|8 550,5,9,5,2,7,5,3,6,4,1,4,8,5,207,821,
scooby_state_5575ed11f266|45|9 536,9,5,8,4,4,4,2,4,8,3,5,4,5,218,819,
scooby_state_5575ed11f266|21|8 545,3,6,7,4,5,4,0,7,4,2,5,3,5,218,818,
scooby_state_5575ed11f266|12|7 533,4,4,5,3,2,6,3,3,3,2,4,3,8,233,816,
scooby_state_5575ed11f266|20|8 548,4,7,3,0,5,4,6,5,1,5,1,2,7,217,815,
scooby_state_5575ed11f266|55|8 545,5,7,4,6,4,3,4,4,6,3,3,7,5,208,814,
scooby_state_5575ed11f266|41|7 545,5,5,5,4,4,7,2,2,5,4,4,3,3,214,812,
scooby_state_5575ed11f266|15|8 529,3,7,7,3,2,4,6,6,7,1,6,3,8,220,812,
scooby_state_5575ed11f266|17|10 530,2,6,5,5,5,3,3,4,2,2,6,6,1,232,812,
scooby_state_5575ed11f266|15|5 517,2,6,4,5,5,0,0,3,2,1,4,7,3,252,811,
scooby_state_5575ed11f266|12|9 521,3,4,6,3,10,4,9,2,5,2,5,2,6,228,810,
scooby_state_5575ed11f266|35|7 541,8,0,5,3,5,1,3,4,2,2,4,7,4,221,810,
scooby_state_5575ed11f266|36|7 533,3,4,5,4,0,4,4,2,4,4,4,3,6,230,810,
scooby_state_5575ed11f266|56|7 525,1,7,2,2,6,5,3,4,2,1,4,5,2,239,808,
scooby_state_5575ed11f266|33|8 521,5,3,5,3,3,3,6,1,4,4,5,5,7,233,808,
scooby_state_5575ed11f266|37|14 569,6,2,1,2,3,4,4,2,5,6,4,4,3,192,807,
scooby_state_5575ed11f266|14|9 537,4,9,7,6,7,4,6,6,5,3,5,3,10,193,805,
scooby_state_5575ed11f266|24|9 545,7,5,5,2,6,4,5,6,1,6,3,3,8,198,804,
scooby_state_5575ed11f266|63|8 519,2,4,6,4,1,2,3,2,7,1,5,0,4,244,804,
scooby_state_5575ed11f266|41|8 530,9,8,5,3,0,4,1,3,1,8,7,6,5,213,803,
scooby_state_5575ed11f266|34|7 512,2,4,2,2,4,2,3,3,4,3,3,2,5,252,803,
scooby_state_5575ed11f266|13|12 507,6,5,5,1,2,9,4,6,5,4,7,7,4,229,801,
scooby_state_5575ed11f266|59|9 521,8,6,2,2,12,1,1,1,0,3,5,6,4,227,799,
scooby_state_5575ed11f266|9|8 549,4,1,3,4,3,4,3,4,3,2,4,4,4,207,799,
scooby_state_5575ed11f266|40|15 536,11,7,6,9,5,3,8,5,4,2,3,7,6,187,799,
scooby_state_5575ed11f266|43|6 524,5,5,7,6,8,5,3,2,3,2,4,5,3,216,798,
scooby_state_5575ed11f266|38|8 522,4,8,8,1,5,6,4,4,3,5,2,4,5,216,797,
scooby_state_5575ed11f266|17|9 516,7,3,3,7,9,5,3,6,2,3,0,8,3,221,796,
scooby_state_5575ed11f266|31|9 527,5,1,8,2,10,2,1,2,4,1,5,5,8,214,795,
scooby_state_5575ed11f27b|12|0 588,2,1,1,3,2,2,2,1,1,3,4,4,1,179,794,
scooby_state_5575ed11f266|30|7 530,4,3,8,3,3,3,3,2,2,4,4,3,5,215,792,
scooby_state_5575ed11f266|43|8 488,6,9,2,5,2,1,5,3,3,3,3,4,2,253,789,
scooby_state_5575ed11f266|48|6 520,4,7,6,3,4,3,3,5,3,2,6,3,8,210,787,
scooby_state_5575ed11f266|33|9 503,3,4,11,7,3,6,1,6,4,5,5,5,4,220,787,
scooby_state_5575ed11f266|52|8 497,5,5,3,7,3,1,1,3,3,4,6,5,4,239,786,
scooby_state_5575ed11f266|40|8 504,0,8,4,3,1,7,2,4,6,3,3,2,4,232,783,
scooby_state_5575ed11f266|50|10 517,6,8,7,6,3,5,1,7,3,6,5,6,4,198,782,
scooby_state_5575ed11f266|42|8 518,2,3,3,3,5,3,2,3,4,3,5,4,3,221,782,
scooby_state_5575ed11f266|57|7 539,4,8,0,3,5,2,2,3,1,5,3,1,6,199,781,
scooby_state_5575ed11f266|27|7 507,4,3,1,3,2,1,4,4,3,0,3,2,7,236,780,
scooby_state_5575ed11f266|60|14 548,3,8,5,3,4,5,3,9,9,2,2,3,9,166,779,
scooby_state_5575ed11f266|19|8 508,4,3,3,4,4,3,2,0,3,2,4,6,3,229,778,
scooby_state_5575ed11f266|37|6 523,6,5,1,9,5,4,3,2,3,5,6,4,2,200,778,
scooby_state_5575ed11f266|44|7 525,3,3,4,6,4,2,3,3,1,1,2,3,8,208,776,
scooby_state_5575ed11f266|32|9 536,4,6,6,7,4,6,6,1,2,4,3,3,3,184,775,
scooby_state_5575ed11f266|31|4 499,4,7,1,2,6,2,4,0,0,3,2,3,2,239,774,
scooby_state_5575ed11f266|19|12 521,10,5,5,2,6,6,3,8,1,3,4,5,4,191,774,
scooby_state_5575ed11f266|47|8 510,9,7,7,5,8,5,3,3,5,3,3,4,6,192,770,
scooby_state_5575ed11f266|40|12 471,10,9,6,7,8,7,3,3,6,4,3,4,4,225,770,
scooby_state_5575ed11f266|60|9 490,8,5,6,3,3,4,4,2,8,5,4,3,5,216,766,
scooby_state_5575ed11f266|30|10 515,8,1,4,5,1,4,1,2,2,5,8,5,3,201,765,
scooby_state_5575ed11f266|49|9 493,5,5,2,5,3,3,7,4,2,4,7,3,2,218,763,
scooby_state_5575ed11f266|20|9 481,4,6,4,2,1,10,2,2,0,6,4,7,4,229,762,
scooby_state_5575ed11f266|55|10 478,7,6,6,6,2,5,2,6,1,5,8,6,5,218,761,
scooby_state_5575ed11f266|42|7 500,2,2,6,5,2,4,3,2,1,3,1,6,2,220,759,
scooby_state_5575ed11f266|19|7 485,4,4,2,4,6,2,5,3,1,2,0,5,7,229,759,
scooby_state_5575ed11f266|15|7 492,4,4,2,1,0,4,4,2,3,1,4,1,2,234,758,
scooby_state_5575ed11f266|61|9 498,4,4,2,2,6,4,7,3,4,8,5,3,4,202,756,
scooby_state_5575ed11f266|54|9 524,3,7,7,4,4,6,3,4,3,5,6,3,2,174,755,
scooby_state_5575ed11f266|12|8 491,2,5,1,7,7,0,5,2,6,2,3,6,5,213,755,
scooby_state_5575ed11f266|25|11 503,5,6,6,5,6,0,5,3,5,2,3,5,3,198,755,
scooby_state_5575ed11f27b|35|0 497,3,4,3,2,4,1,4,3,2,2,2,1,4,222,754,
scooby_state_5575ed11f266|26|8 507,4,4,7,1,4,2,4,2,5,1,3,5,4,201,754,
scooby_state_5575ed11f266|51|9 519,4,4,4,6,7,4,2,0,2,1,3,5,3,190,754,
scooby_state_5575ed11f266|54|10 480,4,4,5,5,4,4,5,7,4,2,3,8,3,215,753,
scooby_state_5575ed11f266|25|12 521,10,3,4,5,4,3,4,8,1,3,8,5,5,169,753,
scooby_state_5575ed11f266|62|15 524,8,5,0,4,6,8,4,6,4,3,7,5,5,164,753,
scooby_state_5575ed11f266|40|11 504,6,8,4,2,5,2,5,2,2,5,4,3,4,197,753,
scooby_state_5575ed11f27b|14|0 502,2,3,4,2,4,3,1,2,2,1,4,2,0,219,751,
scooby_state_5575ed11f266|23|7 492,6,2,4,2,5,5,2,2,2,1,3,3,1,221,751,
scooby_state_5575ed11f266|11|8 495,4,4,3,4,2,2,4,4,1,5,6,3,2,212,751,
scooby_state_5575ed11f266|47|11 495,0,4,3,3,5,2,5,4,5,4,5,5,5,205,750,
scooby_state_5575ed11f266|60|10 482,4,8,7,5,5,6,8,1,3,8,6,2,3,202,750,
scooby_state_5575ed11f266|44|11 516,3,3,4,5,4,2,3,4,2,3,4,5,8,183,749,
scooby_state_5575ed11f266|24|11 493,2,5,6,7,5,1,2,6,0,3,3,4,2,210,749,
scooby_state_5575ed11f266|31|8 495,2,3,2,3,3,2,3,3,5,4,2,1,4,216,748,
scooby_state_5575ed11f266|49|7 471,4,6,4,1,7,5,3,3,2,4,4,3,7,224,748,
scooby_state_5575ed11f27b|50|0 483,4,1,3,2,2,1,2,1,5,2,6,1,4,229,746,
scooby_state_5575ed11f266|16|9 503,7,4,5,6,3,4,5,5,3,1,1,3,3,192,745,
scooby_state_5575ed11f266|46|7 498,0,4,6,3,4,6,3,5,2,1,3,5,2,202,744,
scooby_state_5575ed11f266|12|10 509,2,5,4,3,4,9,3,7,4,0,5,6,6,177,744,
scooby_state_5575ed11f266|12|11 471,2,5,10,3,9,4,4,4,1,1,3,5,6,216,744,
scooby_state_5575ed11f266|24|8 492,2,4,1,5,5,2,1,5,0,0,6,3,4,213,743,
scooby_state_5575ed11f266|48|9 495,1,6,4,7,4,6,5,4,4,2,5,4,5,191,743,
scooby_state_5575ed11f266|16|7 491,0,2,4,7,4,3,3,3,2,1,1,2,7,213,743,
scooby_state_5575ed11f266|28|8 508,5,6,7,3,3,1,3,2,5,3,4,2,2,189,743,
scooby_state_5575ed11f266|8|7 481,5,9,4,2,3,3,3,1,4,4,1,3,2,217,742,
scooby_state_5575ed11f266|34|9 489,7,3,7,5,5,2,6,2,4,4,5,5,2,195,741,
scooby_state_5575ed11f27b|49|0 480,1,1,2,1,0,3,0,1,3,2,3,0,3,241,741,
scooby_state_5575ed11f266|22|8 473,0,3,5,8,4,5,4,5,3,1,4,6,3,215,739,
scooby_state_5575ed11f266|45|8 496,7,7,6,1,1,1,3,2,0,2,1,2,4,205,738,
scooby_state_5575ed11f266|34|8 473,3,2,4,2,8,0,4,2,0,2,6,6,4,222,738,
scooby_state_5575ed11f27b|22|0 447,5,5,2,5,3,3,1,0,2,2,4,2,2,255,738,
scooby_state_5575ed11f266|43|9 477,2,2,10,2,3,1,1,5,3,1,2,2,7,220,738,
scooby_state_5575ed11f266|56|9 497,4,5,6,3,2,4,0,3,5,4,3,3,4,191,734,
scooby_state_5575ed11f266|63|9 456,5,3,7,10,5,8,3,3,3,1,6,6,6,212,734,
scooby_state_5575ed11f266|19|9 513,8,1,4,2,3,2,2,3,1,6,1,6,4,175,731,
scooby_state_5575ed11f266|24|12 483,5,9,4,4,7,1,3,3,2,6,8,7,3,186,731,
scooby_state_5575ed11f27b|41|0 456,2,1,1,1,3,2,3,2,1,3,4,5,0,246,730,
scooby_state_5575ed11f266|26|9 498,5,9,7,4,3,2,0,4,6,1,4,4,7,176,730,
scooby_state_5575ed11f266|18|11 514,3,5,7,2,5,4,5,1,6,3,3,6,5,161,730,
scooby_state_5575ed11f266|62|11 492,6,2,7,3,6,6,1,4,3,1,1,1,2,195,730,
scooby_state_5575ed11f266|48|7 455,3,7,4,4,6,2,9,1,2,6,3,5,6,216,729,
scooby_state_5575ed11f266|41|9 484,5,3,3,4,6,0,4,6,2,5,6,1,2,198,729,
scooby_state_5575ed11f266|30|8 499,5,5,4,2,3,3,3,2,3,1,5,7,2,184,728,
scooby_state_5575ed11f266|22|10 480,5,4,3,4,5,5,5,4,2,3,6,4,7,190,727,
scooby_state_5575ed11f266|38|10 484,5,5,0,6,4,7,3,4,5,2,4,3,3,190,725,
scooby_state_5575ed11f266|28|9 489,8,0,4,4,5,4,1,4,3,2,6,3,3,189,725,
scooby_state_5575ed11f266|50|7 459,2,5,5,4,2,4,5,3,7,4,4,2,5,213,724,
scooby_state_5575ed11f266|18|9 499,6,6,3,3,2,3,4,3,1,1,5,5,5,178,724,
scooby_state_5575ed11f266|48|12 499,7,3,2,7,8,4,3,4,6,2,1,4,6,168,724,
scooby_state_5575ed11f266|43|11 479,7,6,3,5,3,2,3,5,8,7,5,6,5,179,723,
scooby_state_5575ed11f266|23|10 477,6,1,6,2,4,5,4,5,5,3,6,4,3,191,722,
scooby_state_5575ed11f266|38|7 477,5,3,3,2,2,3,3,4,5,2,3,5,5,199,721,
scooby_state_5575ed11f266|27|8 479,5,4,6,1,4,2,2,1,4,6,5,3,4,195,721,
scooby_state_5575ed11f266|16|10 483,6,2,3,2,4,4,1,3,4,4,5,2,5,193,721,
scooby_state_5575ed11f266|58|9 473,8,4,8,5,0,2,1,4,3,5,3,3,4,198,721,
scooby_state_5575ed11f27b|43|0 479,2,1,3,3,2,3,0,0,2,2,2,0,1,220,720,
scooby_state_5575ed11f266|24|10 476,2,6,5,2,3,5,4,3,2,5,7,5,2,193,720,
scooby_state_5575ed11f266|35|11 484,3,3,3,5,3,0,4,1,5,5,3,1,5,194,719,
scooby_state_5575ed11f266|16|11 486,3,4,5,7,7,4,1,2,1,4,6,5,4,179,718,
scooby_state_5575ed11f266|13|9 451,4,3,8,6,6,6,3,3,2,4,5,2,6,207,716,
scooby_state_5575ed11f266|54|11 472,3,4,2,3,4,7,3,3,1,7,4,2,1,197,713,
scooby_state_5575ed11f266|6|6 457,5,4,2,9,4,2,2,3,2,0,2,5,5,210,712,
scooby_state_5575ed11f266|38|9 480,5,5,4,3,4,3,3,2,2,3,1,5,0,192,712,
scooby_state_5575ed11f266|9|9 479,4,1,2,1,5,6,3,1,4,4,7,6,5,184,712,
scooby_state_5575ed11f266|57|11 478,3,3,7,3,4,3,4,2,2,3,7,4,2,185,710,
scooby_state_5575ed11f266|44|12 470,6,5,2,2,4,5,3,4,1,1,4,7,7,187,708,
scooby_state_5575ed11f266|27|9 471,4,4,0,4,7,2,3,0,4,2,6,4,2,194,707,
scooby_state_5575ed11f266|32|11 473,5,4,3,5,3,0,3,1,6,3,6,3,3,188,706,
scooby_state_5575ed11f266|37|8 454,4,1,6,4,5,7,1,2,4,1,3,4,3,206,705,
scooby_state_5575ed11f27b|26|0 485,2,5,3,3,1,2,3,4,4,1,0,3,3,186,705,
scooby_state_5575ed11f266|53|8 475,2,6,4,3,1,6,5,2,2,4,3,3,3,185,704,
scooby_state_5575ed11f266|11|10 486,5,4,3,4,4,4,4,3,6,4,2,3,8,164,704,
scooby_state_5575ed11f266|62|12 480,2,7,4,3,5,5,4,5,1,2,7,6,5,168,704,
scooby_state_5575ed11f266|49|8 437,7,6,9,4,3,4,2,3,5,4,5,2,1,211,703,
scooby_state_5575ed11f266|35|10 474,6,2,9,5,4,4,3,7,6,2,5,4,4,165,700,
scooby_state_5575ed11f266|53|9 484,6,2,3,3,5,1,0,4,3,4,2,6,2,174,699,
scooby_state_5575ed11f266|19|10 467,7,4,5,5,9,5,1,5,6,0,3,5,2,175,699,
scooby_state_5575ed11f266|36|12 462,14,4,5,5,6,0,3,3,3,4,3,3,5,178,698,
scooby_state_5575ed11f266|56|8 440,6,4,3,7,6,3,2,0,0,4,1,3,4,214,697,
scooby_state_5575ed11f266|34|11 462,6,4,5,1,1,2,3,4,4,2,5,4,7,185,695,
scooby_state_5575ed11f266|46|8 473,6,2,6,2,1,3,4,0,1,3,1,3,1,189,695,
scooby_state_5575ed11f266|21|11 456,3,4,7,5,3,5,3,4,2,3,3,4,1,191,694,
scooby_state_5575ed11f266|43|10 463,4,4,3,5,4,6,2,4,3,1,5,4,6,179,693,
scooby_state_5575ed11f266|16|8 461,8,2,3,4,4,2,1,4,0,1,1,6,6,189,692,
scooby_state_5575ed11f266|23|8 442,4,5,4,4,1,6,3,2,1,3,2,3,5,207,692,
scooby_state_5575ed11f266|60|11 479,3,3,2,4,7,3,2,4,2,3,3,5,2,170,692,
scooby_state_5575ed11f266|57|10 457,3,6,5,2,1,7,4,3,1,2,5,8,6,181,691,
scooby_state_5575ed11f266|20|10 458,6,3,4,4,6,5,2,3,2,3,8,2,2,183,691,
scooby_state_5575ed11f27b|36|0 451,1,2,3,4,3,1,2,3,0,0,2,2,3,214,691,
scooby_state_5575ed11f266|19|14 483,5,7,2,4,5,7,1,5,3,1,0,3,3,162,691,
scooby_state_5575ed11f266|60|15 438,8,7,6,9,4,9,3,5,2,1,3,7,6,182,690,
scooby_state_5575ed11f266|59|8 440,4,6,6,4,1,3,3,1,4,2,3,5,2,205,689,
scooby_state_5575ed11f266|39|9 440,8,3,8,7,7,4,3,4,1,4,4,2,6,188,689,
scooby_state_5575ed11f266|59|10 458,3,4,6,4,3,1,6,6,2,2,5,6,3,179,688,
scooby_state_5575ed11f266|23|9 452,3,6,2,2,7,4,2,3,0,4,5,6,3,189,688,
scooby_state_5575ed11f266|55|15 458,2,8,4,4,6,9,5,9,6,4,5,7,3,157,687,
scooby_state_5575ed11f266|40|16 471,11,1,4,5,6,3,5,0,1,1,1,7,3,168,687,
scooby_state_5575ed11f266|61|10 427,4,6,4,6,2,1,4,7,1,1,4,6,9,204,686,
scooby_state_5575ed11f266|15|10 444,2,6,0,6,5,3,2,4,6,3,2,3,2,198,686,
scooby_state_5575ed11f266|38|13 499,5,7,5,3,6,2,4,0,4,1,6,3,3,138,686,
scooby_state_5575ed11f266|23|11 448,2,3,4,4,7,2,3,4,6,3,4,6,4,186,686,
scooby_state_5575ed11f266|54|8 424,6,7,2,5,6,5,6,4,6,0,5,3,6,200,685,
scooby_state_5575ed11f27b|31|0 428,2,4,3,2,5,3,0,1,2,2,6,2,2,222,684,
scooby_state_5575ed11f266|46|10 448,7,7,3,3,8,7,5,1,1,3,3,6,5,177,684,
scooby_state_5575ed11f266|62|10 452,6,3,4,5,3,1,6,3,3,2,3,2,7,182,682,
scooby_state_5575ed11f266|14|8 457,1,1,6,2,4,4,4,0,3,3,3,5,3,186,682,
scooby_state_5575ed11f27b|13|0 481,2,1,4,4,2,2,2,2,0,2,3,5,1,170,681,
scooby_state_5575ed11f266|52|10 455,3,6,1,13,6,2,2,5,7,3,2,2,3,171,681,
scooby_state_5575ed11f266|49|10 444,3,4,9,5,3,5,3,3,1,2,2,4,6,186,680,
scooby_state_5575ed11f266|49|11 477,3,5,4,2,5,4,3,2,1,1,2,4,0,164,677,
scooby_state_5575ed11f266|29|11 435,6,5,5,3,5,4,5,3,1,2,4,0,2,196,676,
scooby_state_5575ed11f266|32|10 454,2,4,5,5,6,5,2,3,4,5,4,4,4,168,675,
scooby_state_5575ed11f266|30|12 441,6,5,3,5,5,4,3,3,1,7,5,6,7,173,674,
scooby_state_5575ed11f27b|37|0 456,2,1,4,1,1,4,1,2,4,1,2,3,1,191,674,
scooby_state_5575ed11f266|56|13 465,9,5,7,7,3,1,7,2,3,5,0,4,7,148,673,
scooby_state_5575ed11f266|57|14 462,9,3,6,2,5,3,4,3,3,2,5,4,4,158,673,
scooby_state_5575ed11f266|34|10 460,6,6,6,2,3,3,3,3,1,2,6,0,9,162,672,
scooby_state_5575ed11f266|38|12 463,7,3,5,4,4,4,2,3,3,4,6,5,5,153,671,
scooby_state_5575ed11f266|55|13 449,6,7,4,6,5,6,2,5,3,4,7,0,3,164,671,
scooby_state_5575ed11f266|31|10 442,3,4,5,5,1,5,3,5,0,5,1,4,9,179,671,
scooby_state_5575ed11f266|51|8 452,3,6,5,1,0,4,2,2,3,5,2,0,1,184,670,
scooby_state_5575ed11f266|56|11 442,3,7,6,4,6,5,3,2,3,3,2,6,6,171,669,
scooby_state_5575ed11f266|56|10 443,7,5,3,2,4,5,3,3,1,4,2,3,6,178,669,
scooby_state_5575ed11f266|33|12 451,8,3,3,5,4,3,1,3,6,4,2,4,8,164,669,
scooby_state_5575ed11f266|29|9 430,4,6,8,2,1,2,4,3,3,1,5,5,2,192,668,
scooby_state_5575ed11f266|49|13 437,3,5,4,4,1,3,4,2,5,2,6,10,7,174,667,
scooby_state_5575ed11f266|21|10 455,4,4,3,4,3,3,2,6,2,2,8,2,6,162,666,
scooby_state_5575ed11f266|51|13 433,4,2,4,1,9,4,5,6,5,4,5,9,4,171,666,
scooby_state_5575ed11f266|50|14 451,4,7,3,5,5,3,3,2,2,3,6,9,2,158,663,
scooby_state_5575ed11f266|51|12 461,4,6,1,4,4,5,1,5,2,6,5,3,4,152,663,
scooby_state_5575ed11f266|30|11 444,3,5,4,3,1,4,2,3,2,3,1,2,3,182,662,
scooby_state_5575ed11f266|35|8 422,2,6,3,4,7,1,3,2,0,2,4,1,3,202,662,
scooby_state_5575ed11f266|51|15 443,8,4,3,3,8,3,8,4,4,3,10,5,3,151,660,
scooby_state_5575ed11f266|10|9 440,2,3,2,4,6,8,4,2,2,4,6,5,4,167,659,
scooby_state_5575ed11f266|20|11 444,4,5,2,3,5,6,6,3,1,5,8,6,3,157,658,
scooby_state_5575ed11f266|25|13 448,8,4,6,6,2,5,5,5,2,4,3,5,7,147,657,
scooby_state_5575ed11f266|35|12 424,9,5,10,5,2,1,3,5,3,5,2,4,3,176,657,
scooby_state_5575ed11f266|53|11 418,6,6,3,2,2,2,5,5,2,5,5,2,5,188,656,
scooby_state_5575ed11f266|28|11 414,2,4,6,7,6,6,3,1,5,1,8,4,4,185,656,
scooby_state_5575ed11f266|17|12 438,9,6,5,4,4,4,6,4,4,4,4,6,3,155,656,
scooby_state_5575ed11f266|61|13 427,7,6,5,5,4,7,3,2,3,3,4,4,3,173,656,
scooby_state_5575ed11f266|57|13 460,10,7,5,2,7,3,2,0,6,2,3,2,7,139,655,
scooby_state_5575ed11f266|60|12 453,6,6,2,7,6,2,2,3,4,2,8,3,2,148,654,
[...]
scooby_state_149a48621c40|49|1 1,0,0,0,0,0,0,0,0,0,0,0,0,0,0,1,
scooby_state_5575ed11f263|43|24 0,0,0,0,0,0,0,0,0,0,0,0,1,0,0,1,
scooby_state_7ffd88bd4eb2|58|3 1,0,0,0,0,0,0,0,0,0,0,0,0,0,0,1,
scooby_state_5575ed11f181|62|14 1,0,0,0,0,0,0,0,0,0,0,0,0,0,0,1,
scooby_state_149a485e5706|28|1 1,0,0,0,0,0,0,0,0,0,0,0,0,0,0,1,
scooby_state_5575ed11f263|9|-23 0,1,0,0,0,0,0,0,0,0,0,0,0,0,0,1,
scooby_state_5575ed11f263|17|-41 1,0,0,0,0,0,0,0,0,0,0,0,0,0,0,1,
scooby_state_149a485e53bc|57|-4 1,0,0,0,0,0,0,0,0,0,0,0,0,0,0,1,
scooby_state_149a485e5643|25|1 1,0,0,0,0,0,0,0,0,0,0,0,0,0,0,1,
scooby_state_149a4861eb40|45|21 1,0,0,0,0,0,0,0,0,0,0,0,0,0,0,1,
scooby_state_149a485e567e|42|-2 1,0,0,0,0,0,0,0,0,0,0,0,0,0,0,1,
scooby_state_5575ed11f263|11|-50 1,0,0,0,0,0,0,0,0,0,0,0,0,0,0,1,
scooby_state_5575ed11f263|6|-43 1,0,0,0,0,0,0,0,0,0,0,0,0,0,0,1,
scooby_state_5575ed11f263|52|48 1,0,0,0,0,0,0,0,0,0,0,0,0,0,0,1,
scooby_state_5575ed11f27b|6|-31 0,0,0,0,0,0,0,0,0,1,0,0,0,0,0,1,
scooby_state_149a48621212|8|4 1,0,0,0,0,0,0,0,0,0,0,0,0,0,0,1,
scooby_state_149a485e53c3|57|-3 1,0,0,0,0,0,0,0,0,0,0,0,0,0,0,1,
scooby_state_149a48621d43|53|1 1,0,0,0,0,0,0,0,0,0,0,0,0,0,0,1,
scooby_state_5575ed11f263|32|10 1,0,0,0,0,0,0,0,0,0,0,0,0,0,0,1,
scooby_state_5575ed11f263|50|41 0,0,1,0,0,0,0,0,0,0,0,0,0,0,0,1,
scooby_state_149a485e6d24|52|52 1,0,0,0,0,0,0,0,0,0,0,0,0,0,0,1,
scooby_state_5575ed11f263|32|7 1,0,0,0,0,0,0,0,0,0,0,0,0,0,0,1,
scooby_state_5575ed11f27b|35|29 0,0,0,0,0,0,0,0,0,0,0,1,0,0,0,1,
scooby_state_5575ed11f263|37|18 0,1,0,0,0,0,0,0,0,0,0,0,0,0,0,1,
scooby_state_149a485ab2c0|56|-1 1,0,0,0,0,0,0,0,0,0,0,0,0,0,0,1,
scooby_state_5575ed11f27b|25|19 0,0,0,0,0,0,0,0,0,0,0,0,1,0,0,1,
scooby_state_149a485e5682|26|1 1,0,0,0,0,0,0,0,0,0,0,0,0,0,0,1,
scooby_state_5575ed11f263|26|-4 1,0,0,0,0,0,0,0,0,0,0,0,0,0,0,1,
scooby_state_5575ed11f263|29|-16 1,0,0,0,0,0,0,0,0,0,0,0,0,0,0,1,
scooby_state_149a485e6b11|44|-11 1,0,0,0,0,0,0,0,0,0,0,0,0,0,0,1,
scooby_state_5575ed11f263|38|16 1,0,0,0,0,0,0,0,0,0,0,0,0,0,0,1,
scooby_state_5575ed11f263|51|-6 1,0,0,0,0,0,0,0,0,0,0,0,0,0,0,1,
scooby_state_5575ed11f263|11|-35 1,0,0,0,0,0,0,0,0,0,0,0,0,0,0,1,
scooby_state_149a48fc4240|9|-2 1,0,0,0,0,0,0,0,0,0,0,0,0,0,0,1,
scooby_state_149a48622310|12|11 1,0,0,0,0,0,0,0,0,0,0,0,0,0,0,1,
scooby_state_5575ed11f263|35|-24 1,0,0,0,0,0,0,0,0,0,0,0,0,0,0,1,
scooby_state_5575ed11f263|43|21 1,0,0,0,0,0,0,0,0,0,0,0,0,0,0,1,
scooby_state_5575ed11f263|30|11 1,0,0,0,0,0,0,0,0,0,0,0,0,0,0,1,
scooby_state_149a4861f143|5|1 1,0,0,0,0,0,0,0,0,0,0,0,0,0,0,1,
scooby_state_5575ed11f263|25|-24 0,0,0,0,0,0,0,0,0,1,0,0,0,0,0,1,
scooby_state_149a4861e2d0|11|0 1,0,0,0,0,0,0,0,0,0,0,0,0,0,0,1,
scooby_state_5575ed11f263|48|30 0,0,0,0,0,0,0,0,1,0,0,0,0,0,0,1,
scooby_state_5575ed11f263|55|31 1,0,0,0,0,0,0,0,0,0,0,0,0,0,0,1,
scooby_state_5575ed11f263|17|-46 1,0,0,0,0,0,0,0,0,0,0,0,0,0,0,1,
scooby_state_5575ed11f263|59|38 1,0,0,0,0,0,0,0,0,0,0,0,0,0,0,1,
scooby_state_5575ed11f263|59|13 1,0,0,0,0,0,0,0,0,0,0,0,0,0,0,1,
scooby_state_149a485e27b0|30|0 1,0,0,0,0,0,0,0,0,0,0,0,0,0,0,1,
scooby_state_149a4861e323|37|2 1,0,0,0,0,0,0,0,0,0,0,0,0,0,0,1,
scooby_state_149a486210c1|3|-3 1,0,0,0,0,0,0,0,0,0,0,0,0,0,0,1,
scooby_state_5575ed11f263|20|-18 1,0,0,0,0,0,0,0,0,0,0,0,0,0,0,1,
scooby_state_5575ed11f263|22|-17 1,0,0,0,0,0,0,0,0,0,0,0,0,0,0,1,
scooby_state_5575ed11f263|26|-20 1,0,0,0,0,0,0,0,0,0,0,0,0,0,0,1,
scooby_state_5575ed11f263|35|3 1,0,0,0,0,0,0,0,0,0,0,0,0,0,0,1,
scooby_state_149a4863b120|4|0 1,0,0,0,0,0,0,0,0,0,0,0,0,0,0,1,
scooby_state_5575ed11f27b|13|9 1,0,0,0,0,0,0,0,0,0,0,0,0,0,0,1,
scooby_state_149a485e6aeb|43|-10 1,0,0,0,0,0,0,0,0,0,0,0,0,0,0,1,
scooby_state_149a485e6b44|45|-11 1,0,0,0,0,0,0,0,0,0,0,0,0,0,0,1,
scooby_state_5575ed11f263|7|-18 1,0,0,0,0,0,0,0,0,0,0,0,0,0,0,1,
scooby_state_5575ed11f263|28|-20 1,0,0,0,0,0,0,0,0,0,0,0,0,0,0,1,
scooby_state_5575ed11f263|61|-2 1,0,0,0,0,0,0,0,0,0,0,0,0,0,0,1,
scooby_state_149a485ab230|8|-3 1,0,0,0,0,0,0,0,0,0,0,0,0,0,0,1,
scooby_state_149a485e5fea|63|1 1,0,0,0,0,0,0,0,0,0,0,0,0,0,0,1,
scooby_state_149a485e6bc5|47|1 1,0,0,0,0,0,0,0,0,0,0,0,0,0,0,1,
scooby_state_149a48645440|17|0 1,0,0,0,0,0,0,0,0,0,0,0,0,0,0,1,
scooby_state_5575ed11f263|40|21 1,0,0,0,0,0,0,0,0,0,0,0,0,0,0,1,
scooby_state_149a48618530|20|2 1,0,0,0,0,0,0,0,0,0,0,0,0,0,0,1,
scooby_state_149a4861e5f4|18|-1 1,0,0,0,0,0,0,0,0,0,0,0,0,0,0,1,
scooby_state_149a486173c3|15|1 1,0,0,0,0,0,0,0,0,0,0,0,0,0,0,1,
scooby_state_5575ed11f263|11|-18 0,0,0,0,0,0,0,0,0,1,0,0,0,0,0,1,
scooby_state_149a48615941|37|1 1,0,0,0,0,0,0,0,0,0,0,0,0,0,0,1,
scooby_state_149a485e27c0|31|1 1,0,0,0,0,0,0,0,0,0,0,0,0,0,0,1,
scooby_state_149a485e6f60|61|26 1,0,0,0,0,0,0,0,0,0,0,0,0,0,0,1,
scooby_state_5575ed11f263|60|57 1,0,0,0,0,0,0,0,0,0,0,0,0,0,0,1,
scooby_state_149a486219c3|39|1 1,0,0,0,0,0,0,0,0,0,0,0,0,0,0,1,
scooby_state_5575ed11f263|39|16 0,0,0,0,0,0,0,0,0,0,0,1,0,0,0,1,
scooby_state_149a48608182|6|1 1,0,0,0,0,0,0,0,0,0,0,0,0,0,0,1,
scooby_state_5575ed11f27b|4|-9 1,0,0,0,0,0,0,0,0,0,0,0,0,0,0,1,
scooby_state_149a4861e8f4|47|0 1,0,0,0,0,0,0,0,0,0,0,0,0,0,0,1,
scooby_state_5575ed11f263|58|32 1,0,0,0,0,0,0,0,0,0,0,0,0,0,0,1,
scooby_state_5575ed11f281|10|1 1,0,0,0,0,0,0,0,0,0,0,0,0,0,0,1,
scooby_state_149a48621e55|8|0 1,0,0,0,0,0,0,0,0,0,0,0,0,0,0,1,
scooby_state_5575ed11f263|1|-25 1,0,0,0,0,0,0,0,0,0,0,0,0,0,0,1,
scooby_state_5575ed11f263|7|-40 1,0,0,0,0,0,0,0,0,0,0,0,0,0,0,1,
scooby_state_5575ed11f263|33|-23 1,0,0,0,0,0,0,0,0,0,0,0,0,0,0,1,
scooby_state_5575ed11f263|48|41 0,0,0,0,0,0,0,0,1,0,0,0,0,0,0,1,
scooby_state_5575ed11f263|21|-23 1,0,0,0,0,0,0,0,0,0,0,0,0,0,0,1,
scooby_state_5575ed11f263|11|-40 1,0,0,0,0,0,0,0,0,0,0,0,0,0,0,1,
scooby_state_5575ed11f263|35|-20 1,0,0,0,0,0,0,0,0,0,0,0,0,0,0,1,
scooby_state_149a486bc230|8|1 1,0,0,0,0,0,0,0,0,0,0,0,0,0,0,1,
scooby_state_149a48616ea0|58|0 1,0,0,0,0,0,0,0,0,0,0,0,0,0,0,1,
scooby_state_5575ed11f263|25|-9 1,0,0,0,0,0,0,0,0,0,0,0,0,0,0,1,
scooby_state_149a485e5543|21|-18 1,0,0,0,0,0,0,0,0,0,0,0,0,0,0,1,
scooby_state_149a485e7028|0|-2 1,0,0,0,0,0,0,0,0,0,0,0,0,0,0,1,
scooby_state_149a48fbad00|52|0 1,0,0,0,0,0,0,0,0,0,0,0,0,0,0,1,
scooby_state_149a48645567|21|4 1,0,0,0,0,0,0,0,0,0,0,0,0,0,0,1,
scooby_state_149a48621950|37|29 1,0,0,0,0,0,0,0,0,0,0,0,0,0,0,1,
scooby_state_5575ed11f27b|6|-56 1,0,0,0,0,0,0,0,0,0,0,0,0,0,0,1,
scooby_state_5575ed11f263|25|-26 1,0,0,0,0,0,0,0,0,0,0,0,0,0,0,1,
scooby_state_5575ed11f263|24|-17 1,0,0,0,0,0,0,0,0,0,0,0,0,0,0,1,
scooby_state_149a485e286b|22|-20 1,0,0,0,0,0,0,0,0,0,0,0,0,0,0,1,
scooby_state_5575ed11f263|48|3 1,0,0,0,0,0,0,0,0,0,0,0,0,0,0,1,
scooby_state_5575ed11f263|51|-12 1,0,0,0,0,0,0,0,0,0,0,0,0,0,0,1,
scooby_state_5575ed11f263|6|-12 1,0,0,0,0,0,0,0,0,0,0,0,0,0,0,1,
scooby_state_149a4861e648|25|-20 1,0,0,0,0,0,0,0,0,0,0,0,0,0,0,1,
scooby_state_5575ed11f263|25|7 1,0,0,0,0,0,0,0,0,0,0,0,0,0,0,1,
scooby_state_149a485ab230|5|-45 1,0,0,0,0,0,0,0,0,0,0,0,0,0,0,1,
scooby_state_5575ed11f263|36|5 1,0,0,0,0,0,0,0,0,0,0,0,0,0,0,1,
scooby_state_5575ed11f263|19|-3 1,0,0,0,0,0,0,0,0,0,0,0,0,0,0,1,
scooby_state_149a48621e55|57|8 1,0,0,0,0,0,0,0,0,0,0,0,0,0,0,1,
scooby_state_5575ed11f263|33|26 1,0,0,0,0,0,0,0,0,0,0,0,0,0,0,1,
scooby_state_149a486159ea|10|-1 1,0,0,0,0,0,0,0,0,0,0,0,0,0,0,1,
scooby_state_149a485e2840|33|2 1,0,0,0,0,0,0,0,0,0,0,0,0,0,0,1,
scooby_state_5575ed11f263|27|11 0,0,0,0,0,0,1,0,0,0,0,0,0,0,0,1,
scooby_state_5575ed11f263|63|30 0,0,0,0,1,0,0,0,0,0,0,0,0,0,0,1,
scooby_state_149a48615951|30|-2 1,0,0,0,0,0,0,0,0,0,0,0,0,0,0,1,
scooby_state_149a485e6006|0|-61 1,0,0,0,0,0,0,0,0,0,0,0,0,0,0,1,
scooby_state_149a4861f123|47|0 1,0,0,0,0,0,0,0,0,0,0,0,0,0,0,1,
scooby_state_5575ed11f263|62|43 0,0,0,0,0,0,1,0,0,0,0,0,0,0,0,1,
scooby_state_5575ed11f263|27|23 0,0,0,0,0,1,0,0,0,0,0,0,0,0,0,1,
scooby_state_5575ed11f263|33|-13 0,0,1,0,0,0,0,0,0,0,0,0,0,0,0,1,
scooby_state_149a48621dc2|55|1 1,0,0,0,0,0,0,0,0,0,0,0,0,0,0,1,
scooby_state_5575ed11f263|22|-10 1,0,0,0,0,0,0,0,0,0,0,0,0,0,0,1,
scooby_state_5575ed11f263|44|11 0,0,0,1,0,0,0,0,0,0,0,0,0,0,0,1,
scooby_state_149a486bc280|10|1 1,0,0,0,0,0,0,0,0,0,0,0,0,0,0,1,
scooby_state_5575ed11f240|48|1 1,0,0,0,0,0,0,0,0,0,0,0,0,0,0,1,
scooby_state_5575ed11f27b|55|23 1,0,0,0,0,0,0,0,0,0,0,0,0,0,0,1,
scooby_state_149a48618350|13|1 1,0,0,0,0,0,0,0,0,0,0,0,0,0,0,1,
scooby_state_5575ed11f263|38|10 0,0,0,0,0,0,0,0,0,0,0,1,0,0,0,1,
scooby_state_149a48618443|17|1 1,0,0,0,0,0,0,0,0,0,0,0,0,0,0,1,
scooby_state_149a486bc26f|35|0 1,0,0,0,0,0,0,0,0,0,0,0,0,0,0,1,
scooby_state_149a48fba6d0|27|-25 1,0,0,0,0,0,0,0,0,0,0,0,0,0,0,1,
scooby_state_5575ed11f263|36|31 1,0,0,0,0,0,0,0,0,0,0,0,0,0,0,1,
scooby_state_149a4861e58f|19|-11 1,0,0,0,0,0,0,0,0,0,0,0,0,0,0,1,
scooby_state_149a485e7902|36|1 1,0,0,0,0,0,0,0,0,0,0,0,0,0,0,1,
scooby_state_5575ed11f27b|32|10 1,0,0,0,0,0,0,0,0,0,0,0,0,0,0,1,
scooby_state_149a485e5945|37|1 1,0,0,0,0,0,0,0,0,0,0,0,0,0,0,1,
scooby_state_5575ed11f263|55|44 1,0,0,0,0,0,0,0,0,0,0,0,0,0,0,1,
scooby_state_149a486bc24b|29|-4 1,0,0,0,0,0,0,0,0,0,0,0,0,0,0,1,
scooby_state_5575ed11f27b|32|17 0,0,0,0,0,0,0,0,0,1,0,0,0,0,0,1,
scooby_state_5575ed11f263|2|-13 0,0,0,0,0,1,0,0,0,0,0,0,0,0,0,1,
scooby_state_149a485e6e03|56|12 1,0,0,0,0,0,0,0,0,0,0,0,0,0,0,1,
scooby_state_149a48621c82|50|-7 1,0,0,0,0,0,0,0,0,0,0,0,0,0,0,1,
scooby_state_5575ed11f263|43|31 1,0,0,0,0,0,0,0,0,0,0,0,0,0,0,1,
scooby_state_149a486bc254|31|2 1,0,0,0,0,0,0,0,0,0,0,0,0,0,0,1,
scooby_state_5575ed11f263|35|27 0,1,0,0,0,0,0,0,0,0,0,0,0,0,0,1,
scooby_state_5575ed121137|51|8 1,0,0,0,0,0,0,0,0,0,0,0,0,0,0,1,
scooby_state_149a485e59c0|39|1 1,0,0,0,0,0,0,0,0,0,0,0,0,0,0,1,
scooby_state_149a486bc247|33|0 1,0,0,0,0,0,0,0,0,0,0,0,0,0,0,1,
scooby_state_5575ed11f263|20|-41 1,0,0,0,0,0,0,0,0,0,0,0,0,0,0,1,
scooby_state_5575ed11f263|49|41 0,1,0,0,0,0,0,0,0,0,0,0,0,0,0,1,
scooby_state_149a486bc240|61|0 1,0,0,0,0,0,0,0,0,0,0,0,0,0,0,1,
scooby_state_149a485e5601|24|1 1,0,0,0,0,0,0,0,0,0,0,0,0,0,0,1,
scooby_state_7ffd88bd4dc3|55|17 1,0,0,0,0,0,0,0,0,0,0,0,0,0,0,1,
scooby_state_5575ed11f263|18|-34 1,0,0,0,0,0,0,0,0,0,0,0,0,0,0,1,
scooby_state_5575ed11f263|58|18 0,0,0,0,0,0,0,0,0,0,0,1,0,0,0,1,
scooby_state_149a485e5930|36|-27 1,0,0,0,0,0,0,0,0,0,0,0,0,0,0,1,
scooby_state_149a48fbab30|44|17 1,0,0,0,0,0,0,0,0,0,0,0,0,0,0,1,
scooby_state_149a48fbad00|26|0 1,0,0,0,0,0,0,0,0,0,0,0,0,0,0,1,
scooby_state_5575ed11f0d8|47|-4 1,0,0,0,0,0,0,0,0,0,0,0,0,0,0,1,
scooby_state_5575ed11f263|10|-32 1,0,0,0,0,0,0,0,0,0,0,0,0,0,0,1,
scooby_state_149a48618300|12|0 1,0,0,0,0,0,0,0,0,0,0,0,0,0,0,1,
scooby_state_5575ed11f263|36|14 1,0,0,0,0,0,0,0,0,0,0,0,0,0,0,1,
scooby_state_5575ed11f263|46|10 1,0,0,0,0,0,0,0,0,0,0,0,0,0,0,1,
scooby_state_5575ed11f263|9|-47 1,0,0,0,0,0,0,0,0,0,0,0,0,0,0,1,
scooby_state_149a486bc305|12|1 1,0,0,0,0,0,0,0,0,0,0,0,0,0,0,1,
scooby_state_149a48621076|59|3 1,0,0,0,0,0,0,0,0,0,0,0,0,0,0,1,
scooby_state_5575ed11f263|44|7 0,0,0,1,0,0,0,0,0,0,0,0,0,0,0,1,
scooby_state_149a48618376|12|2 1,0,0,0,0,0,0,0,0,0,0,0,0,0,0,1,
scooby_state_5575ed11f263|59|-1 1,0,0,0,0,0,0,0,0,0,0,0,0,0,0,1,
scooby_state_149a486211a0|6|4 1,0,0,0,0,0,0,0,0,0,0,0,0,0,0,1,
scooby_state_5575ed11f263|13|-44 1,0,0,0,0,0,0,0,0,0,0,0,0,0,0,1,
scooby_state_149a485e5f02|60|1 1,0,0,0,0,0,0,0,0,0,0,0,0,0,0,1,
scooby_state_149a48621d1a|8|0 1,0,0,0,0,0,0,0,0,0,0,0,0,0,0,1,
scooby_state_149a485e5ed7|59|1 1,0,0,0,0,0,0,0,0,0,0,0,0,0,0,1,
scooby_state_149a486997b0|30|0 1,0,0,0,0,0,0,0,0,0,0,0,0,0,0,1,
scooby_state_149a4862198d|7|0 1,0,0,0,0,0,0,0,0,0,0,0,0,0,0,1,
scooby_state_149a486159c2|39|1 1,0,0,0,0,0,0,0,0,0,0,0,0,0,0,1,
scooby_state_5575ed11f263|34|9 1,0,0,0,0,0,0,0,0,0,0,0,0,0,0,1,
scooby_state_149a4861f183|6|-3 1,0,0,0,0,0,0,0,0,0,0,0,0,0,0,1,
scooby_state_5575ed11f263|47|30 1,0,0,0,0,0,0,0,0,0,0,0,0,0,0,1,
scooby_state_5575ed11f27b|17|11 1,0,0,0,0,0,0,0,0,0,0,0,0,0,0,1,
scooby_state_5575ed11f263|54|51 1,0,0,0,0,0,0,0,0,0,0,0,0,0,0,1,
scooby_state_5575ed11f263|18|-24 1,0,0,0,0,0,0,0,0,0,0,0,0,0,0,1,
scooby_state_149a4861e540|21|1 1,0,0,0,0,0,0,0,0,0,0,0,0,0,0,1,
scooby_state_149a485e5494|18|1 1,0,0,0,0,0,0,0,0,0,0,0,0,0,0,1,
scooby_state_5575ed11f263|16|8 1,0,0,0,0,0,0,0,0,0,0,0,0,0,0,1,
scooby_state_149a48621080|2|1 1,0,0,0,0,0,0,0,0,0,0,0,0,0,0,1,
scooby_state_149a4861e4f8|49|38 1,0,0,0,0,0,0,0,0,0,0,0,0,0,0,1,
scooby_state_149a485e5501|20|1 1,0,0,0,0,0,0,0,0,0,0,0,0,0,0,1,
scooby_state_5575ed11e4b0|54|0 1,0,0,0,0,0,0,0,0,0,0,0,0,0,0,1,
scooby_state_5575ed11f263|34|-1 1,0,0,0,0,0,0,0,0,0,0,0,0,0,0,1,
scooby_state_5575ed11f263|43|22 0,0,1,0,0,0,0,0,0,0,0,0,0,0,0,1,
scooby_state_5575ed11f263|8|-32 1,0,0,0,0,0,0,0,0,0,0,0,0,0,0,1,
scooby_state_5575ed11f263|59|43 1,0,0,0,0,0,0,0,0,0,0,0,0,0,0,1,
scooby_state_5575ed11f263|14|-36 1,0,0,0,0,0,0,0,0,0,0,0,0,0,0,1,

scooby_action_0_deg_dist 0,777983,0,0,0,0,0,0,0,0,0,0,0,0,0,0,
scooby_action_-6_deg_dist 0,15271,17,0,0,0,0,0,0,0,0,0,0,0,0,0,
scooby_action_4_deg_dist 0,16087,26,0,2,0,0,0,0,0,0,0,0,0,0,0,
scooby_action_1_deg_dist 0,2789504,137637,0,93512,0,239464,0,0,0,0,0,0,0,0,0,
scooby_action_30_deg_dist 0,11292,7,0,0,0,0,0,0,0,0,0,0,0,0,0,
scooby_action_5_deg_dist 0,15604,25,0,2,0,0,0,0,0,0,0,0,0,0,0,
scooby_action_3_deg_dist 0,16390,25,0,1,0,0,0,0,0,0,0,0,0,0,0,
scooby_action_32_deg_dist 0,11043,2,0,0,0,0,0,0,0,0,0,0,0,0,0,
scooby_action_10_deg_dist 0,14356,28,0,3,0,0,0,0,0,0,0,0,0,0,0,
scooby_action_11_deg_dist 0,14172,18,0,2,0,0,0,0,0,0,0,0,0,0,0,
scooby_action_12_deg_dist 0,13983,13,0,2,0,0,0,0,0,0,0,0,0,0,0,
scooby_action_22_deg_dist 0,12033,4,0,0,0,0,0,0,0,0,0,0,0,0,0,
scooby_action_23_deg_dist 0,11975,5,0,1,0,0,0,0,0,0,0,0,0,0,0,
scooby_action_-1_deg_dist 0,15492,16,0,0,0,0,0,0,0,0,0,0,0,0,0,
scooby_action_-3_deg_dist 0,15414,15,0,0,0,0,0,0,0,0,0,0,0,0,0,

scooby_track_called 4221426
scooby_track_same_address 7176
scooby_track_evict 4213994

scooby_reward_demand_called 4221426
scooby_reward_demand_pt_not_found 3879955
scooby_reward_demand_pt_found 341471
scooby_reward_demand_pt_found_total 341471
scooby_reward_demand_has_reward 11
scooby_reward_train_called 3780506
scooby_reward_assign_reward_called 4214011
scooby_reward_no_pref 777957
scooby_reward_incorrect 3002549
scooby_reward_correct_untimely 285291
scooby_reward_correct_timely 56169
scooby_reward_out_of_bounds 92045
scooby_reward_tracker_hit 0

scooby_reward_none_low_bw 777957
scooby_reward_none_high_bw 0
scooby_reward_incorrect_low_bw 3002549
scooby_reward_incorrect_high_bw 0
scooby_reward_correct_untimely_low_bw 285291
scooby_reward_correct_untimely_high_bw 0
scooby_reward_correct_timely_low_bw 56169
scooby_reward_correct_timely_high_bw 0
scooby_reward_out_of_bounds_low_bw 92045
scooby_reward_out_of_bounds_high_bw 0
scooby_reward_tracker_hit_low_bw 0
scooby_reward_tracker_hit_high_bw 0

scooby_reward_1 0,2871633,281212,54436,49887,0,
scooby_reward_3 0,13955,584,184,1246,0,
scooby_reward_4 0,13270,552,202,1590,0,
scooby_reward_5 0,12619,464,198,1959,0,
scooby_reward_10 0,10039,392,207,3447,0,
scooby_reward_11 0,9754,357,206,3634,0,
scooby_reward_12 0,9237,325,205,3973,0,
scooby_reward_22 0,5801,188,97,5755,0,
scooby_reward_23 0,5606,200,113,5924,0,
scooby_reward_30 0,4126,162,75,6781,0,
scooby_reward_32 0,3585,113,73,7154,0,
scooby_reward_-1 0,14571,253,71,65,0,
scooby_reward_-3 0,14311,270,63,199,0,
scooby_reward_-6 0,14042,219,39,431,0,
scooby_reward_0 777957,0,0,0,0,0,

scooby_train_called 4213993
scooby_train_compute_reward 3780506

scooby_register_fill_called 3129936
scooby_register_fill_set 2642508
scooby_register_fill_set_total 2642508

scooby_register_prefetch_hit_called 1538263
scooby_register_prefetch_hit_set 673126
scooby_register_prefetch_hit_set_total 673126

scooby_pref_issue_scooby 4833170

learning_engine_featurewise.action.called 4221426
learning_engine_featurewise.action.explore 7688
learning_engine_featurewise.action.exploit 4213738
learning_engine_featurewise.action.fallback 2943988
learning_engine_featurewise.action.dyn_fallback_saved_bw 0
learning_engine_featurewise.action.dyn_fallback_saved_bw_acc 1020905
learning_engine_featurewise.action.index_1_explored 521
learning_engine_featurewise.action.index_1_exploited 3259596
learning_engine_featurewise.action.index_3_explored 525
learning_engine_featurewise.action.index_3_exploited 15891
learning_engine_featurewise.action.index_4_explored 517
learning_engine_featurewise.action.index_4_exploited 15598
learning_engine_featurewise.action.index_5_explored 482
learning_engine_featurewise.action.index_5_exploited 15149
learning_engine_featurewise.action.index_10_explored 552
learning_engine_featurewise.action.index_10_exploited 13835
learning_engine_featurewise.action.index_11_explored 517
learning_engine_featurewise.action.index_11_exploited 13675
learning_engine_featurewise.action.index_12_explored 528
learning_engine_featurewise.action.index_12_exploited 13470
learning_engine_featurewise.action.index_22_explored 511
learning_engine_featurewise.action.index_22_exploited 11526
learning_engine_featurewise.action.index_23_explored 522
learning_engine_featurewise.action.index_23_exploited 11459
learning_engine_featurewise.action.index_30_explored 519
learning_engine_featurewise.action.index_30_exploited 10780
learning_engine_featurewise.action.index_32_explored 466
learning_engine_featurewise.action.index_32_exploited 10579
learning_engine_featurewise.action.index_-1_explored 516
learning_engine_featurewise.action.index_-1_exploited 14992
learning_engine_featurewise.action.index_-3_explored 501
learning_engine_featurewise.action.index_-3_exploited 14928
learning_engine_featurewise.action.index_-6_explored 496
learning_engine_featurewise.action.index_-6_exploited 14792
learning_engine_featurewise.action.index_0_explored 515
learning_engine_featurewise.action.index_0_exploited 777468
learning_engine_featurewise.learn.called 4213993
learning_engine_featurewise.learn.su_skip_PC 0
learning_engine_featurewise.learn.su_skip_PC_Delta 0

learning_engine_featurewise.q_value_histogram.bucket_0 930391
learning_engine_featurewise.q_value_histogram.bucket_1 28964
learning_engine_featurewise.q_value_histogram.bucket_2 2970170
learning_engine_featurewise.q_value_histogram.bucket_3 19493
learning_engine_featurewise.q_value_histogram.bucket_4 170309
learning_engine_featurewise.q_value_histogram.bucket_5 91126
learning_engine_featurewise.q_value_histogram.bucket_6 3285
learning_engine_featurewise.q_value_histogram.bucket_7 0

learning_engine_featurewise.consensus.total 4213738
learning_engine_featurewise.consensus.feature_align_PC 3262980
learning_engine_featurewise.consensus.feature_align_PC_ratio 0.77
learning_engine_featurewise.consensus.feature_align_PC_Delta 3297812
learning_engine_featurewise.consensus.feature_align_PC_Delta_ratio 0.78
learning_engine_featurewise.consensus.feature_align_all 3260791
learning_engine_featurewise.consensus.feature_align_all_ratio 0.77

learning_engine_featurewise.feature_PC_min_weight 1000000.00000000
learning_engine_featurewise.feature_PC_max_weight 0.00000000
learning_engine_featurewise.feature_PC_Delta_min_weight 1000000.00000000
learning_engine_featurewise.feature_PC_Delta_max_weight 0.00000000
unique_pcs 212
unique_pages 5096
unique_trigger_pcs 50
total_bitmaps_seen 0
unique_bitmaps_seen 0

scooby_bw_epochs 863692
scooby_bw_level_0 603501
scooby_bw_level_1 228579
scooby_bw_level_2 24247
scooby_bw_level_3 7365

scooby_ipc_epochs 0
scooby_ipc_level_0 0
scooby_ipc_level_1 0
scooby_ipc_level_2 0
scooby_ipc_level_3 0

scooby_cache_acc_epochs 215587
scooby_cache_acc_level_0 72191
scooby_cache_acc_level_1 120919
scooby_cache_acc_level_2 18551
scooby_cache_acc_level_3 2800
scooby_cache_acc_level_4 517
scooby_cache_acc_level_5 384
scooby_cache_acc_level_6 67
scooby_cache_acc_level_7 30
scooby_cache_acc_level_8 41
scooby_cache_acc_level_9 87

Channel_0_RQ_row_buffer_hit 471678
Channel_0_RQ_row_buffer_miss 1368430
Channel_0_WQ_row_buffer_hit 88402
Channel_0_WQ_row_buffer_miss 97996
Channel_0_WQ_full 0
Channel_0_dbus_congested 746382

avg_congested_cycle 8

DRAM_bw_pochs 863692
DRAM_bw_level_0 603501
DRAM_bw_level_1 228579
DRAM_bw_level_2 24247
DRAM_bw_level_3 7365
