*************************************************
   ChampSim Multicore Out-of-Order Simulator
   Last compiled: Apr  3 2025 20:54:34
*************************************************
parsing config file: /home/zir/Pythia/config/nopref.ini

trace_0 /home/zir/ChampSim/ML-DPC/ChampSimTraces/gap/cc-13.trace.gz
adding L2C_PREFETCHER: NONE
Initialize SHIP state
warmup_instructions 10000000
simulation_instructions 50000000
champsim_seed 100
measure_ipc 0
measure_ipc_epoch 1000
measure_dram_bw 1
measure_dram_bw_epoch 256
measure_cache_acc 1
measure_cache_acc_epoch 1024
l1d_perfect 0
l2c_perfect 0
llc_perfect 0
l1d_semi_perfect 0
l2c_semi_perfect 0
llc_semi_perfect 0
semi_perfect_cache_page_buffer_size 64

num_cpus 1
cpu_freq 4000
dram_io_freq 2400
page_size 4096
block_size 64
max_read_per_cycle 8
max_fill_per_cycle 1
dram_channels 1
log2_dram_channels 0
dram_ranks 1
dram_banks 8
dram_rows 65536
dram_columns 128
dram_row_size 8
dram_size 4096
dram_pages 1048576

fetch_width 6
decode_width 6
exec_width 4
lq_width 2
sq_width 2
retire_width 4
scheduler_size 128
branch_mispredict_penalty 20
rob_size 256
lq_size 72
sq_size 56
num_instr_destinations_sparc 4
num_instr_destinations 2
num_instr_sources 4

itlb_set 16
itlb_way 8
itlb_rq_size 16
itlb_wq_size 16
itlb_pq_size 0
itlb_mshr_size 8
itlb_latency 1

dtlb_set 16
dtlb_way 4
dtlb_rq_size 16
dtlb_wq_size 16
dtlb_pq_size 0
dtlb_mshr_size 8
dtlb_latency 1

stlb_set 128
stlb_way 12
stlb_rq_size 32
stlb_wq_size 32
stlb_pq_size 0
stlb_mshr_size 16
stlb_latency 8

l1i_size 32
l1i_set 64
l1i_way 8
l1i_rq_size 64
l1i_wq_size 64
l1i_pq_size 8
l1i_mshr_size 8
l1i_latency 1

l1d_size 32
l1d_set 64
l1d_way 8
l1d_rq_size 64
l1d_wq_size 64
l1d_pq_size 8
l1d_mshr_size 16
l1d_latency 4

l2c_size 256
l2c_set 512
l2c_way 8
l2c_rq_size 32
l2c_wq_size 32
l2c_pq_size 32
l2c_mshr_size 32
l2c_latency 10

llc_size 2048
llc_set 2048
llc_way 16
llc_rq_size 32
llc_wq_size 32
llc_pq_size 32
llc_mshr_size 64
llc_latency 20

dram_channel_width 8
dram_wq_size 64
dram_rq_size 64
tRP 15
tRCD 15
tCAS 12.5
dram_dbus_turn_around_time 30
dram_write_high_wm 56
dram_write_low_wm 48
min_dram_writes_per_switch 16
dram_mtps 2400
dram_dbus_return_time 13


Heartbeat CPU  0 instructions:    1000001 cycles:     262007 heartbeat IPC: 3.81670 cumulative IPC: 3.81670 (Simulation time: 0 hr 0 min 1 sec) 
Heartbeat CPU  0 instructions:    2000000 cycles:     776664 heartbeat IPC: 1.94304 cumulative IPC: 2.57512 (Simulation time: 0 hr 0 min 2 sec) 
Heartbeat CPU  0 instructions:    3000001 cycles:    2187383 heartbeat IPC: 0.70886 cumulative IPC: 1.37150 (Simulation time: 0 hr 0 min 3 sec) 
Heartbeat CPU  0 instructions:    4000000 cycles:    3577008 heartbeat IPC: 0.71962 cumulative IPC: 1.11825 (Simulation time: 0 hr 0 min 4 sec) 
Heartbeat CPU  0 instructions:    5000000 cycles:    4848586 heartbeat IPC: 0.78642 cumulative IPC: 1.03123 (Simulation time: 0 hr 0 min 5 sec) 
Heartbeat CPU  0 instructions:    6000002 cycles:    6096458 heartbeat IPC: 0.80137 cumulative IPC: 0.98418 (Simulation time: 0 hr 0 min 6 sec) 
Heartbeat CPU  0 instructions:    7000000 cycles:    7300397 heartbeat IPC: 0.83061 cumulative IPC: 0.95885 (Simulation time: 0 hr 0 min 7 sec) 
Heartbeat CPU  0 instructions:    8000000 cycles:    8369574 heartbeat IPC: 0.93530 cumulative IPC: 0.95584 (Simulation time: 0 hr 0 min 8 sec) 
Heartbeat CPU  0 instructions:    9000003 cycles:    9552888 heartbeat IPC: 0.84509 cumulative IPC: 0.94212 (Simulation time: 0 hr 0 min 9 sec) 
Heartbeat CPU  0 instructions:   10000000 cycles:   10694782 heartbeat IPC: 0.87574 cumulative IPC: 0.93504 (Simulation time: 0 hr 0 min 10 sec) 

Warmup complete CPU  0 instructions:   10000001 cycles:   10694805 (Simulation time: 0 hr 0 min 10 sec) 

Heartbeat CPU  0 instructions:   11000002 cycles:   17103912 heartbeat IPC: 0.15603 cumulative IPC: 0.15603 (Simulation time: 0 hr 0 min 13 sec) 
Heartbeat CPU  0 instructions:   12000000 cycles:   23006460 heartbeat IPC: 0.16942 cumulative IPC: 0.16245 (Simulation time: 0 hr 0 min 15 sec) 
Heartbeat CPU  0 instructions:   13000001 cycles:   29250749 heartbeat IPC: 0.16015 cumulative IPC: 0.16167 (Simulation time: 0 hr 0 min 17 sec) 
Heartbeat CPU  0 instructions:   14000000 cycles:   35628213 heartbeat IPC: 0.15680 cumulative IPC: 0.16043 (Simulation time: 0 hr 0 min 19 sec) 
Heartbeat CPU  0 instructions:   15000002 cycles:   42367946 heartbeat IPC: 0.14837 cumulative IPC: 0.15786 (Simulation time: 0 hr 0 min 21 sec) 
Heartbeat CPU  0 instructions:   16000000 cycles:   48386759 heartbeat IPC: 0.16615 cumulative IPC: 0.15919 (Simulation time: 0 hr 0 min 23 sec) 
Heartbeat CPU  0 instructions:   17000001 cycles:   54136146 heartbeat IPC: 0.17393 cumulative IPC: 0.16114 (Simulation time: 0 hr 0 min 25 sec) 
Heartbeat CPU  0 instructions:   18000003 cycles:   60381555 heartbeat IPC: 0.16012 cumulative IPC: 0.16101 (Simulation time: 0 hr 0 min 28 sec) 
Heartbeat CPU  0 instructions:   19000000 cycles:   66570359 heartbeat IPC: 0.16158 cumulative IPC: 0.16107 (Simulation time: 0 hr 0 min 30 sec) 
Heartbeat CPU  0 instructions:   20000000 cycles:   72985450 heartbeat IPC: 0.15588 cumulative IPC: 0.16054 (Simulation time: 0 hr 0 min 32 sec) 
Heartbeat CPU  0 instructions:   21000002 cycles:   79030894 heartbeat IPC: 0.16541 cumulative IPC: 0.16097 (Simulation time: 0 hr 0 min 34 sec) 
Heartbeat CPU  0 instructions:   22000000 cycles:   85160604 heartbeat IPC: 0.16314 cumulative IPC: 0.16115 (Simulation time: 0 hr 0 min 36 sec) 
Heartbeat CPU  0 instructions:   23000000 cycles:   91187246 heartbeat IPC: 0.16593 cumulative IPC: 0.16151 (Simulation time: 0 hr 0 min 38 sec) 
Heartbeat CPU  0 instructions:   24000000 cycles:   96703491 heartbeat IPC: 0.18128 cumulative IPC: 0.16277 (Simulation time: 0 hr 0 min 41 sec) 
Heartbeat CPU  0 instructions:   25000003 cycles:  102896256 heartbeat IPC: 0.16148 cumulative IPC: 0.16269 (Simulation time: 0 hr 0 min 43 sec) 
Heartbeat CPU  0 instructions:   26000002 cycles:  108741325 heartbeat IPC: 0.17108 cumulative IPC: 0.16319 (Simulation time: 0 hr 0 min 45 sec) 
Heartbeat CPU  0 instructions:   27000000 cycles:  114220955 heartbeat IPC: 0.18249 cumulative IPC: 0.16421 (Simulation time: 0 hr 0 min 47 sec) 
Heartbeat CPU  0 instructions:   28000000 cycles:  120035126 heartbeat IPC: 0.17199 cumulative IPC: 0.16462 (Simulation time: 0 hr 0 min 49 sec) 
Heartbeat CPU  0 instructions:   29000002 cycles:  125554603 heartbeat IPC: 0.18118 cumulative IPC: 0.16542 (Simulation time: 0 hr 0 min 51 sec) 
Heartbeat CPU  0 instructions:   30000001 cycles:  131508246 heartbeat IPC: 0.16796 cumulative IPC: 0.16554 (Simulation time: 0 hr 0 min 54 sec) 
Heartbeat CPU  0 instructions:   31000000 cycles:  137404232 heartbeat IPC: 0.16961 cumulative IPC: 0.16573 (Simulation time: 0 hr 0 min 56 sec) 
Heartbeat CPU  0 instructions:   32000000 cycles:  143166985 heartbeat IPC: 0.17353 cumulative IPC: 0.16607 (Simulation time: 0 hr 0 min 58 sec) 
Heartbeat CPU  0 instructions:   33000002 cycles:  149087984 heartbeat IPC: 0.16889 cumulative IPC: 0.16619 (Simulation time: 0 hr 1 min 0 sec) 
Heartbeat CPU  0 instructions:   34000001 cycles:  154787275 heartbeat IPC: 0.17546 cumulative IPC: 0.16656 (Simulation time: 0 hr 1 min 2 sec) 
Heartbeat CPU  0 instructions:   35000002 cycles:  160102458 heartbeat IPC: 0.18814 cumulative IPC: 0.16733 (Simulation time: 0 hr 1 min 5 sec) 
Heartbeat CPU  0 instructions:   36000000 cycles:  166217308 heartbeat IPC: 0.16354 cumulative IPC: 0.16718 (Simulation time: 0 hr 1 min 7 sec) 
Heartbeat CPU  0 instructions:   37000000 cycles:  171914251 heartbeat IPC: 0.17553 cumulative IPC: 0.16747 (Simulation time: 0 hr 1 min 9 sec) 
Heartbeat CPU  0 instructions:   38000001 cycles:  177210826 heartbeat IPC: 0.18880 cumulative IPC: 0.16815 (Simulation time: 0 hr 1 min 11 sec) 
Heartbeat CPU  0 instructions:   39000000 cycles:  182879821 heartbeat IPC: 0.17640 cumulative IPC: 0.16842 (Simulation time: 0 hr 1 min 13 sec) 
Heartbeat CPU  0 instructions:   40000000 cycles:  188911285 heartbeat IPC: 0.16580 cumulative IPC: 0.16833 (Simulation time: 0 hr 1 min 15 sec) 
Heartbeat CPU  0 instructions:   41000000 cycles:  194709953 heartbeat IPC: 0.17245 cumulative IPC: 0.16846 (Simulation time: 0 hr 1 min 18 sec) 
Heartbeat CPU  0 instructions:   42000001 cycles:  200530945 heartbeat IPC: 0.17179 cumulative IPC: 0.16857 (Simulation time: 0 hr 1 min 20 sec) 
Heartbeat CPU  0 instructions:   43000002 cycles:  206581674 heartbeat IPC: 0.16527 cumulative IPC: 0.16846 (Simulation time: 0 hr 1 min 22 sec) 
Heartbeat CPU  0 instructions:   44000000 cycles:  212468674 heartbeat IPC: 0.16987 cumulative IPC: 0.16851 (Simulation time: 0 hr 1 min 24 sec) 
Heartbeat CPU  0 instructions:   45000000 cycles:  218499146 heartbeat IPC: 0.16582 cumulative IPC: 0.16843 (Simulation time: 0 hr 1 min 26 sec) 
Heartbeat CPU  0 instructions:   46000002 cycles:  224140384 heartbeat IPC: 0.17727 cumulative IPC: 0.16866 (Simulation time: 0 hr 1 min 29 sec) 
Heartbeat CPU  0 instructions:   47000001 cycles:  229448850 heartbeat IPC: 0.18838 cumulative IPC: 0.16914 (Simulation time: 0 hr 1 min 31 sec) 
Heartbeat CPU  0 instructions:   48000000 cycles:  235494068 heartbeat IPC: 0.16542 cumulative IPC: 0.16904 (Simulation time: 0 hr 1 min 33 sec) 
Heartbeat CPU  0 instructions:   49000000 cycles:  241110858 heartbeat IPC: 0.17804 cumulative IPC: 0.16926 (Simulation time: 0 hr 1 min 35 sec) 
Heartbeat CPU  0 instructions:   50000000 cycles:  246828647 heartbeat IPC: 0.17489 cumulative IPC: 0.16940 (Simulation time: 0 hr 1 min 37 sec) 
Heartbeat CPU  0 instructions:   51000000 cycles:  252950780 heartbeat IPC: 0.16334 cumulative IPC: 0.16924 (Simulation time: 0 hr 1 min 39 sec) 
Heartbeat CPU  0 instructions:   52000000 cycles:  258817304 heartbeat IPC: 0.17046 cumulative IPC: 0.16927 (Simulation time: 0 hr 1 min 42 sec) 
Heartbeat CPU  0 instructions:   53000002 cycles:  264484633 heartbeat IPC: 0.17645 cumulative IPC: 0.16943 (Simulation time: 0 hr 1 min 44 sec) 
Heartbeat CPU  0 instructions:   54000000 cycles:  270505851 heartbeat IPC: 0.16608 cumulative IPC: 0.16935 (Simulation time: 0 hr 1 min 46 sec) 
Heartbeat CPU  0 instructions:   55000000 cycles:  276165444 heartbeat IPC: 0.17669 cumulative IPC: 0.16951 (Simulation time: 0 hr 1 min 49 sec) 
Heartbeat CPU  0 instructions:   56000000 cycles:  282205311 heartbeat IPC: 0.16557 cumulative IPC: 0.16942 (Simulation time: 0 hr 1 min 51 sec) 
Heartbeat CPU  0 instructions:   57000002 cycles:  288064528 heartbeat IPC: 0.17067 cumulative IPC: 0.16945 (Simulation time: 0 hr 1 min 53 sec) 
Heartbeat CPU  0 instructions:   58000001 cycles:  294213485 heartbeat IPC: 0.16263 cumulative IPC: 0.16930 (Simulation time: 0 hr 1 min 55 sec) 
Heartbeat CPU  0 instructions:   59000003 cycles:  300267013 heartbeat IPC: 0.16519 cumulative IPC: 0.16922 (Simulation time: 0 hr 1 min 57 sec) 
Heartbeat CPU  0 instructions:   60000000 cycles:  306243324 heartbeat IPC: 0.16733 cumulative IPC: 0.16918 (Simulation time: 0 hr 2 min 0 sec) 
Finished CPU 0 instructions: 50000000 cycles: 295548527 cumulative IPC: 0.16918 (Simulation time: 0 hr 2 min 0 sec) 

ChampSim completed all CPUs

[ROI Statistics]
Core_0_instructions 50000000
Core_0_cycles 295548527
Core_0_IPC 0.16918

Core_0_branch_prediction_accuracy 88.98054
Core_0_branch_MPKI 22.11052
Core_0_average_ROB_occupancy_at_mispredict 41.13591

Core_0_L1D_total_access 10683273
Core_0_L1D_total_hit 6879105
Core_0_L1D_total_miss 3804168
Core_0_L1D_loads 10439989
Core_0_L1D_load_hit 6635821
Core_0_L1D_load_miss 3804168
Core_0_L1D_RFOs 243284
Core_0_L1D_RFO_hit 243284
Core_0_L1D_RFO_miss 0
Core_0_L1D_prefetches 0
Core_0_L1D_prefetch_hit 0
Core_0_L1D_prefetch_miss 0
Core_0_L1D_writebacks 0
Core_0_L1D_writeback_hit 0
Core_0_L1D_writeback_miss 0
Core_0_L1D_prefetch_requested 0
Core_0_L1D_prefetch_dropped 0
Core_0_L1D_prefetch_issued 0
Core_0_L1D_prefetch_filled 0
Core_0_L1D_prefetch_useful 0
Core_0_L1D_prefetch_useless 0
Core_0_L1D_prefetch_late 0
Core_0_L1D_average_miss_latency 80.83245

Core_0_L1D_rq_access 13613346
Core_0_L1D_rq_forward 0
Core_0_L1D_rq_merged 2912081
Core_0_L1D_rq_to_cache 10701265
Core_0_L1D_rq_full 0

Core_0_L1D_wq_access 243284
Core_0_L1D_wq_forward 0
Core_0_L1D_wq_merged 0
Core_0_L1D_wq_to_cache 243284
Core_0_L1D_wq_full 0

Core_0_L1D_pq_access 0
Core_0_L1D_pq_forward 0
Core_0_L1D_pq_merged 0
Core_0_L1D_pq_to_cache 0
Core_0_L1D_pq_full 0

Core_0_L1D_acc_epochs 298712
Core_0_L1D_acc_level_0 298712
Core_0_L1D_acc_level_1 0
Core_0_L1D_acc_level_2 0
Core_0_L1D_acc_level_3 0
Core_0_L1D_acc_level_4 0
Core_0_L1D_acc_level_5 0
Core_0_L1D_acc_level_6 0
Core_0_L1D_acc_level_7 0
Core_0_L1D_acc_level_8 0
Core_0_L1D_acc_level_9 0

Core_0_L1I_total_access 9693917
Core_0_L1I_total_hit 9693917
Core_0_L1I_total_miss 0
Core_0_L1I_loads 9693917
Core_0_L1I_load_hit 9693917
Core_0_L1I_load_miss 0
Core_0_L1I_RFOs 0
Core_0_L1I_RFO_hit 0
Core_0_L1I_RFO_miss 0
Core_0_L1I_prefetches 0
Core_0_L1I_prefetch_hit 0
Core_0_L1I_prefetch_miss 0
Core_0_L1I_writebacks 0
Core_0_L1I_writeback_hit 0
Core_0_L1I_writeback_miss 0
Core_0_L1I_prefetch_requested 0
Core_0_L1I_prefetch_dropped 0
Core_0_L1I_prefetch_issued 0
Core_0_L1I_prefetch_filled 0
Core_0_L1I_prefetch_useful 0
Core_0_L1I_prefetch_useless 0
Core_0_L1I_prefetch_late 0
Core_0_L1I_average_miss_latency -nan

Core_0_L1I_rq_access 49999992
Core_0_L1I_rq_forward 0
Core_0_L1I_rq_merged 40306075
Core_0_L1I_rq_to_cache 9693917
Core_0_L1I_rq_full 0

Core_0_L1I_wq_access 0
Core_0_L1I_wq_forward 0
Core_0_L1I_wq_merged 0
Core_0_L1I_wq_to_cache 0
Core_0_L1I_wq_full 0

Core_0_L1I_pq_access 0
Core_0_L1I_pq_forward 0
Core_0_L1I_pq_merged 0
Core_0_L1I_pq_to_cache 0
Core_0_L1I_pq_full 0

Core_0_L1I_acc_epochs 298712
Core_0_L1I_acc_level_0 298712
Core_0_L1I_acc_level_1 0
Core_0_L1I_acc_level_2 0
Core_0_L1I_acc_level_3 0
Core_0_L1I_acc_level_4 0
Core_0_L1I_acc_level_5 0
Core_0_L1I_acc_level_6 0
Core_0_L1I_acc_level_7 0
Core_0_L1I_acc_level_8 0
Core_0_L1I_acc_level_9 0

Core_0_L2C_total_access 4013614
Core_0_L2C_total_hit 919351
Core_0_L2C_total_miss 3094263
Core_0_L2C_loads 3804168
Core_0_L2C_load_hit 710050
Core_0_L2C_load_miss 3094118
Core_0_L2C_RFOs 0
Core_0_L2C_RFO_hit 0
Core_0_L2C_RFO_miss 0
Core_0_L2C_prefetches 0
Core_0_L2C_prefetch_hit 0
Core_0_L2C_prefetch_miss 0
Core_0_L2C_writebacks 209446
Core_0_L2C_writeback_hit 209301
Core_0_L2C_writeback_miss 145
Core_0_L2C_prefetch_requested 0
Core_0_L2C_prefetch_dropped 0
Core_0_L2C_prefetch_issued 0
Core_0_L2C_prefetch_filled 0
Core_0_L2C_prefetch_useful 0
Core_0_L2C_prefetch_useless 0
Core_0_L2C_prefetch_late 0
Core_0_L2C_average_miss_latency 81.95300

Core_0_L2C_rq_access 3804168
Core_0_L2C_rq_forward 0
Core_0_L2C_rq_merged 0
Core_0_L2C_rq_to_cache 3804168
Core_0_L2C_rq_full 0

Core_0_L2C_wq_access 209446
Core_0_L2C_wq_forward 0
Core_0_L2C_wq_merged 0
Core_0_L2C_wq_to_cache 209446
Core_0_L2C_wq_full 0

Core_0_L2C_pq_access 0
Core_0_L2C_pq_forward 0
Core_0_L2C_pq_merged 0
Core_0_L2C_pq_to_cache 0
Core_0_L2C_pq_full 0

Core_0_L2C_acc_epochs 298712
Core_0_L2C_acc_level_0 298712
Core_0_L2C_acc_level_1 0
Core_0_L2C_acc_level_2 0
Core_0_L2C_acc_level_3 0
Core_0_L2C_acc_level_4 0
Core_0_L2C_acc_level_5 0
Core_0_L2C_acc_level_6 0
Core_0_L2C_acc_level_7 0
Core_0_L2C_acc_level_8 0
Core_0_L2C_acc_level_9 0

Core_0_LLC_total_access 3303336
Core_0_LLC_total_hit 2412035
Core_0_LLC_total_miss 891301
Core_0_LLC_loads 3094118
Core_0_LLC_load_hit 2203240
Core_0_LLC_load_miss 890878
Core_0_LLC_RFOs 0
Core_0_LLC_RFO_hit 0
Core_0_LLC_RFO_miss 0
Core_0_LLC_prefetches 0
Core_0_LLC_prefetch_hit 0
Core_0_LLC_prefetch_miss 0
Core_0_LLC_writebacks 209218
Core_0_LLC_writeback_hit 208795
Core_0_LLC_writeback_miss 423
Core_0_LLC_prefetch_requested 0
Core_0_LLC_prefetch_dropped 0
Core_0_LLC_prefetch_issued 0
Core_0_LLC_prefetch_filled 0
Core_0_LLC_prefetch_useful 0
Core_0_LLC_prefetch_useless 0
Core_0_LLC_prefetch_late 0
Core_0_LLC_average_miss_latency 180.34439

Core_0_LLC_rq_access 3094118
Core_0_LLC_rq_forward 0
Core_0_LLC_rq_merged 0
Core_0_LLC_rq_to_cache 3094118
Core_0_LLC_rq_full 0

Core_0_LLC_wq_access 209218
Core_0_LLC_wq_forward 0
Core_0_LLC_wq_merged 0
Core_0_LLC_wq_to_cache 209218
Core_0_LLC_wq_full 0

Core_0_LLC_pq_access 0
Core_0_LLC_pq_forward 0
Core_0_LLC_pq_merged 0
Core_0_LLC_pq_to_cache 0
Core_0_LLC_pq_full 0

Core_0_LLC_acc_epochs 299066
Core_0_LLC_acc_level_0 299066
Core_0_LLC_acc_level_1 0
Core_0_LLC_acc_level_2 0
Core_0_LLC_acc_level_3 0
Core_0_LLC_acc_level_4 0
Core_0_LLC_acc_level_5 0
Core_0_LLC_acc_level_6 0
Core_0_LLC_acc_level_7 0
Core_0_LLC_acc_level_8 0
Core_0_LLC_acc_level_9 0

Core_0_major_page_fault 0
Core_0_minor_page_fault 5303

Channel_0_RQ_row_buffer_hit 117419
Channel_0_RQ_row_buffer_miss 773456
Channel_0_WQ_row_buffer_hit 49658
Channel_0_WQ_row_buffer_miss 123646
Channel_0_WQ_full 0
Channel_0_dbus_congested 112573

avg_congested_cycle 8

DRAM_bw_pochs 1196264
DRAM_bw_level_0 1191071
DRAM_bw_level_1 5190
DRAM_bw_level_2 3
DRAM_bw_level_3 0
