*************************************************
   ChampSim Multicore Out-of-Order Simulator
   Last compiled: Apr  3 2025 20:54:34
*************************************************
parsing config file: /home/zir/Pythia/config/pythia.ini

trace_0 /home/zir/ChampSim/ML-DPC/ChampSimTraces/gap/sssp-14.trace.gz
adding L2C_PREFETCHER: Scooby
Initialize SHIP state
warmup_instructions 10000000
simulation_instructions 50000000
champsim_seed 101
measure_ipc 0
measure_ipc_epoch 1000
measure_dram_bw 1
measure_dram_bw_epoch 256
measure_cache_acc 1
measure_cache_acc_epoch 1024
l1d_perfect 0
l2c_perfect 0
llc_perfect 0
l1d_semi_perfect 0
l2c_semi_perfect 0
llc_semi_perfect 0
semi_perfect_cache_page_buffer_size 64

num_cpus 1
cpu_freq 4000
dram_io_freq 2400
page_size 4096
block_size 64
max_read_per_cycle 8
max_fill_per_cycle 1
dram_channels 1
log2_dram_channels 0
dram_ranks 1
dram_banks 8
dram_rows 65536
dram_columns 128
dram_row_size 8
dram_size 4096
dram_pages 1048576

fetch_width 6
decode_width 6
exec_width 4
lq_width 2
sq_width 2
retire_width 4
scheduler_size 128
branch_mispredict_penalty 20
rob_size 256
lq_size 72
sq_size 56
num_instr_destinations_sparc 4
num_instr_destinations 2
num_instr_sources 4

itlb_set 16
itlb_way 8
itlb_rq_size 16
itlb_wq_size 16
itlb_pq_size 0
itlb_mshr_size 8
itlb_latency 1

dtlb_set 16
dtlb_way 4
dtlb_rq_size 16
dtlb_wq_size 16
dtlb_pq_size 0
dtlb_mshr_size 8
dtlb_latency 1

stlb_set 128
stlb_way 12
stlb_rq_size 32
stlb_wq_size 32
stlb_pq_size 0
stlb_mshr_size 16
stlb_latency 8

l1i_size 32
l1i_set 64
l1i_way 8
l1i_rq_size 64
l1i_wq_size 64
l1i_pq_size 8
l1i_mshr_size 8
l1i_latency 1

l1d_size 32
l1d_set 64
l1d_way 8
l1d_rq_size 64
l1d_wq_size 64
l1d_pq_size 8
l1d_mshr_size 16
l1d_latency 4

l2c_size 256
l2c_set 512
l2c_way 8
l2c_rq_size 32
l2c_wq_size 32
l2c_pq_size 32
l2c_mshr_size 32
l2c_latency 10

llc_size 2048
llc_set 2048
llc_way 16
llc_rq_size 32
llc_wq_size 32
llc_pq_size 32
llc_mshr_size 64
llc_latency 20

dram_channel_width 8
dram_wq_size 64
dram_rq_size 64
tRP 15
tRCD 15
tCAS 12.5
dram_dbus_turn_around_time 30
dram_write_high_wm 56
dram_write_low_wm 48
min_dram_writes_per_switch 16
dram_mtps 2400
dram_dbus_return_time 13

scooby_alpha 0.0065088
scooby_gamma 0.556301
scooby_epsilon 0.00182284
scooby_state_num_bits 10
scooby_max_states 1024
scooby_seed 200
scooby_policy EGreedy
scooby_learning_type SARSA
scooby_actions 1,3,4,5,10,11,12,22,23,30,32,-1,-3,-6,0,
scooby_max_actions 15
scooby_pt_size 256
scooby_st_size 64
scooby_max_pcs 5
scooby_max_offsets 5
scooby_max_deltas 5
scooby_reward_none -4
scooby_reward_incorrect -8
scooby_reward_correct_untimely 12
scooby_reward_correct_timely 20
scooby_brain_zero_init 0
scooby_enable_reward_all 0
scooby_enable_track_multiple 0
scooby_enable_reward_out_of_bounds 1
scooby_reward_out_of_bounds -12
scooby_state_type 1
scooby_state_hash_type 11
scooby_access_debug 0
scooby_print_access_debug 0
scooby_print_access_debug_pc deadbeef
scooby_print_access_debug_pc_count 0
scooby_print_trace 0
scooby_enable_state_action_stats 1
scooby_enable_reward_tracker_hit 0
scooby_reward_tracker_hit -2
scooby_enable_featurewise_engine 1
scooby_pref_degree 1
scooby_enable_dyn_degree 1
scooby_max_to_avg_q_thresholds 0.5,1,2,
scooby_dyn_degrees 1,2,4,4,
scooby_multi_deg_select_type 2
scooby_last_pref_offset_conf_thresholds 1,3,8,
scooby_dyn_degrees_type2 1,2,4,6,
scooby_action_tracker_size 2
scooby_high_bw_thresh 4
scooby_enable_hbw_reward 1
scooby_reward_hbw_correct_timely 20
scooby_reward_hbw_correct_untimely 12
scooby_reward_hbw_incorrect -14
scooby_reward_hbw_none -2
scooby_reward_hbw_out_of_bounds -12
scooby_reward_hbw_tracker_hit -2
scooby_last_pref_offset_conf_thresholds_hbw 1,3,8,
scooby_dyn_degrees_type2_hbw 1,2,4,6,

le_enable_trace 0
le_trace_interval 0
le_trace_file_name 
le_trace_state 0
le_enable_score_plot 0
le_plot_file_name 
le_plot_actions 
le_enable_action_trace 0
le_action_trace_interval 0
le_action_trace_name 
le_enable_action_plot 0

le_featurewise_active_features PC, PC_Delta
le_featurewise_num_tilings 3,3,
le_featurewise_num_tiles 128,128,
le_featurewise_hash_types 2,2,
le_featurewise_enable_tiling_offset 1,1,
le_featurewise_max_q_thresh 0.5
le_featurewise_enable_action_fallback 1
le_featurewise_feature_weights 1,1,
le_featurewise_enable_dynamic_weight 0
le_featurewise_weight_gradient 0.001
le_featurewise_disable_adjust_weight_all_features_align 1
le_featurewise_selective_update 0
le_featurewise_pooling_type 2
le_featurewise_enable_dyn_action_fallback 1
le_featurewise_bw_acc_check_level 1
le_featurewise_acc_thresh 2
le_featurewise_enable_trace 0
le_featurewise_trace_feature_type 0
le_featurewise_trace_feature 
le_featurewise_trace_interval 0
le_featurewise_trace_record_count 0
le_featurewise_trace_file_name 
le_featurewise_enable_score_plot 0
le_featurewise_plot_actions 
le_featurewise_plot_file_name 


Heartbeat CPU  0 instructions:    1000003 cycles:     262018 heartbeat IPC: 3.81654 cumulative IPC: 3.81654 (Simulation time: 0 hr 0 min 1 sec) 
Heartbeat CPU  0 instructions:    2000001 cycles:     775347 heartbeat IPC: 1.94806 cumulative IPC: 2.57949 (Simulation time: 0 hr 0 min 2 sec) 
Heartbeat CPU  0 instructions:    3000002 cycles:    1355705 heartbeat IPC: 1.72308 cumulative IPC: 2.21287 (Simulation time: 0 hr 0 min 4 sec) 
Heartbeat CPU  0 instructions:    4000000 cycles:    2062477 heartbeat IPC: 1.41488 cumulative IPC: 1.93942 (Simulation time: 0 hr 0 min 6 sec) 
Heartbeat CPU  0 instructions:    5000002 cycles:    2836380 heartbeat IPC: 1.29215 cumulative IPC: 1.76281 (Simulation time: 0 hr 0 min 7 sec) 
Heartbeat CPU  0 instructions:    6000003 cycles:    3702820 heartbeat IPC: 1.15415 cumulative IPC: 1.62039 (Simulation time: 0 hr 0 min 9 sec) 
Heartbeat CPU  0 instructions:    7000001 cycles:    4558397 heartbeat IPC: 1.16880 cumulative IPC: 1.53563 (Simulation time: 0 hr 0 min 10 sec) 
Heartbeat CPU  0 instructions:    8000000 cycles:    5427853 heartbeat IPC: 1.15014 cumulative IPC: 1.47388 (Simulation time: 0 hr 0 min 12 sec) 
Heartbeat CPU  0 instructions:    9000000 cycles:    6293432 heartbeat IPC: 1.15530 cumulative IPC: 1.43006 (Simulation time: 0 hr 0 min 14 sec) 
Heartbeat CPU  0 instructions:   10000000 cycles:    7157025 heartbeat IPC: 1.15795 cumulative IPC: 1.39723 (Simulation time: 0 hr 0 min 15 sec) 

Warmup complete CPU  0 instructions:   10000001 cycles:    7157028 (Simulation time: 0 hr 0 min 15 sec) 

Heartbeat CPU  0 instructions:   11000003 cycles:   11115846 heartbeat IPC: 0.25260 cumulative IPC: 0.25260 (Simulation time: 0 hr 0 min 18 sec) 
Heartbeat CPU  0 instructions:   12000000 cycles:   14990752 heartbeat IPC: 0.25807 cumulative IPC: 0.25531 (Simulation time: 0 hr 0 min 20 sec) 
Heartbeat CPU  0 instructions:   13000002 cycles:   18653707 heartbeat IPC: 0.27300 cumulative IPC: 0.26095 (Simulation time: 0 hr 0 min 23 sec) 
Heartbeat CPU  0 instructions:   14000001 cycles:   22135693 heartbeat IPC: 0.28719 cumulative IPC: 0.26705 (Simulation time: 0 hr 0 min 25 sec) 
Heartbeat CPU  0 instructions:   15000001 cycles:   25845978 heartbeat IPC: 0.26952 cumulative IPC: 0.26754 (Simulation time: 0 hr 0 min 28 sec) 
Heartbeat CPU  0 instructions:   16000000 cycles:   29478669 heartbeat IPC: 0.27528 cumulative IPC: 0.26880 (Simulation time: 0 hr 0 min 30 sec) 
Heartbeat CPU  0 instructions:   17000003 cycles:   32717957 heartbeat IPC: 0.30871 cumulative IPC: 0.27386 (Simulation time: 0 hr 0 min 32 sec) 
Heartbeat CPU  0 instructions:   18000000 cycles:   35256601 heartbeat IPC: 0.39391 cumulative IPC: 0.28470 (Simulation time: 0 hr 0 min 35 sec) 
Heartbeat CPU  0 instructions:   19000000 cycles:   38200388 heartbeat IPC: 0.33970 cumulative IPC: 0.28992 (Simulation time: 0 hr 0 min 37 sec) 
Heartbeat CPU  0 instructions:   20000000 cycles:   41711855 heartbeat IPC: 0.28478 cumulative IPC: 0.28940 (Simulation time: 0 hr 0 min 39 sec) 
Heartbeat CPU  0 instructions:   21000002 cycles:   45183564 heartbeat IPC: 0.28804 cumulative IPC: 0.28927 (Simulation time: 0 hr 0 min 42 sec) 
Heartbeat CPU  0 instructions:   22000001 cycles:   48602842 heartbeat IPC: 0.29246 cumulative IPC: 0.28953 (Simulation time: 0 hr 0 min 44 sec) 
Heartbeat CPU  0 instructions:   23000000 cycles:   51973852 heartbeat IPC: 0.29665 cumulative IPC: 0.29007 (Simulation time: 0 hr 0 min 47 sec) 
Heartbeat CPU  0 instructions:   24000000 cycles:   55095916 heartbeat IPC: 0.32030 cumulative IPC: 0.29204 (Simulation time: 0 hr 0 min 49 sec) 
Heartbeat CPU  0 instructions:   25000000 cycles:   58361284 heartbeat IPC: 0.30624 cumulative IPC: 0.29294 (Simulation time: 0 hr 0 min 52 sec) 
Heartbeat CPU  0 instructions:   26000003 cycles:   61606532 heartbeat IPC: 0.30814 cumulative IPC: 0.29385 (Simulation time: 0 hr 0 min 54 sec) 
Heartbeat CPU  0 instructions:   27000002 cycles:   64905542 heartbeat IPC: 0.30312 cumulative IPC: 0.29438 (Simulation time: 0 hr 0 min 57 sec) 
Heartbeat CPU  0 instructions:   28000000 cycles:   68146157 heartbeat IPC: 0.30858 cumulative IPC: 0.29513 (Simulation time: 0 hr 0 min 59 sec) 
Heartbeat CPU  0 instructions:   29000001 cycles:   71354066 heartbeat IPC: 0.31173 cumulative IPC: 0.29596 (Simulation time: 0 hr 1 min 2 sec) 
Heartbeat CPU  0 instructions:   30000001 cycles:   74609726 heartbeat IPC: 0.30716 cumulative IPC: 0.29650 (Simulation time: 0 hr 1 min 4 sec) 
Heartbeat CPU  0 instructions:   31000003 cycles:   77786779 heartbeat IPC: 0.31476 cumulative IPC: 0.29733 (Simulation time: 0 hr 1 min 7 sec) 
Heartbeat CPU  0 instructions:   32000000 cycles:   80903377 heartbeat IPC: 0.32086 cumulative IPC: 0.29832 (Simulation time: 0 hr 1 min 9 sec) 
Heartbeat CPU  0 instructions:   33000002 cycles:   83928472 heartbeat IPC: 0.33057 cumulative IPC: 0.29959 (Simulation time: 0 hr 1 min 12 sec) 
Heartbeat CPU  0 instructions:   34000003 cycles:   87080579 heartbeat IPC: 0.31725 cumulative IPC: 0.30029 (Simulation time: 0 hr 1 min 14 sec) 
Heartbeat CPU  0 instructions:   35000002 cycles:   90257359 heartbeat IPC: 0.31478 cumulative IPC: 0.30084 (Simulation time: 0 hr 1 min 17 sec) 
Heartbeat CPU  0 instructions:   36000000 cycles:   93254158 heartbeat IPC: 0.33369 cumulative IPC: 0.30198 (Simulation time: 0 hr 1 min 19 sec) 
Heartbeat CPU  0 instructions:   37000002 cycles:   96310600 heartbeat IPC: 0.32718 cumulative IPC: 0.30285 (Simulation time: 0 hr 1 min 22 sec) 
Heartbeat CPU  0 instructions:   38000003 cycles:   99399919 heartbeat IPC: 0.32370 cumulative IPC: 0.30355 (Simulation time: 0 hr 1 min 24 sec) 
Heartbeat CPU  0 instructions:   39000001 cycles:  102471072 heartbeat IPC: 0.32561 cumulative IPC: 0.30426 (Simulation time: 0 hr 1 min 27 sec) 
Heartbeat CPU  0 instructions:   40000000 cycles:  105512834 heartbeat IPC: 0.32876 cumulative IPC: 0.30502 (Simulation time: 0 hr 1 min 29 sec) 
Heartbeat CPU  0 instructions:   41000000 cycles:  108516101 heartbeat IPC: 0.33297 cumulative IPC: 0.30584 (Simulation time: 0 hr 1 min 32 sec) 
Heartbeat CPU  0 instructions:   42000002 cycles:  111556398 heartbeat IPC: 0.32892 cumulative IPC: 0.30652 (Simulation time: 0 hr 1 min 35 sec) 
Heartbeat CPU  0 instructions:   43000000 cycles:  114599842 heartbeat IPC: 0.32857 cumulative IPC: 0.30714 (Simulation time: 0 hr 1 min 37 sec) 
Heartbeat CPU  0 instructions:   44000000 cycles:  117612086 heartbeat IPC: 0.33198 cumulative IPC: 0.30782 (Simulation time: 0 hr 1 min 40 sec) 
Heartbeat CPU  0 instructions:   45000001 cycles:  120608575 heartbeat IPC: 0.33372 cumulative IPC: 0.30850 (Simulation time: 0 hr 1 min 42 sec) 
Heartbeat CPU  0 instructions:   46000003 cycles:  123603839 heartbeat IPC: 0.33386 cumulative IPC: 0.30915 (Simulation time: 0 hr 1 min 45 sec) 
Heartbeat CPU  0 instructions:   47000001 cycles:  126626582 heartbeat IPC: 0.33082 cumulative IPC: 0.30970 (Simulation time: 0 hr 1 min 47 sec) 
Heartbeat CPU  0 instructions:   48000000 cycles:  129565678 heartbeat IPC: 0.34024 cumulative IPC: 0.31044 (Simulation time: 0 hr 1 min 50 sec) 
Heartbeat CPU  0 instructions:   49000000 cycles:  132535638 heartbeat IPC: 0.33670 cumulative IPC: 0.31106 (Simulation time: 0 hr 1 min 52 sec) 
Heartbeat CPU  0 instructions:   50000000 cycles:  135461750 heartbeat IPC: 0.34175 cumulative IPC: 0.31176 (Simulation time: 0 hr 1 min 55 sec) 
Heartbeat CPU  0 instructions:   51000001 cycles:  138416375 heartbeat IPC: 0.33845 cumulative IPC: 0.31236 (Simulation time: 0 hr 1 min 58 sec) 
Heartbeat CPU  0 instructions:   52000000 cycles:  141333341 heartbeat IPC: 0.34282 cumulative IPC: 0.31302 (Simulation time: 0 hr 2 min 0 sec) 
Heartbeat CPU  0 instructions:   53000001 cycles:  144210608 heartbeat IPC: 0.34755 cumulative IPC: 0.31375 (Simulation time: 0 hr 2 min 3 sec) 
Heartbeat CPU  0 instructions:   54000000 cycles:  146994285 heartbeat IPC: 0.35924 cumulative IPC: 0.31465 (Simulation time: 0 hr 2 min 5 sec) 
Heartbeat CPU  0 instructions:   55000003 cycles:  149708300 heartbeat IPC: 0.36846 cumulative IPC: 0.31568 (Simulation time: 0 hr 2 min 8 sec) 
Heartbeat CPU  0 instructions:   56000000 cycles:  152679410 heartbeat IPC: 0.33657 cumulative IPC: 0.31610 (Simulation time: 0 hr 2 min 10 sec) 
Heartbeat CPU  0 instructions:   57000002 cycles:  155577157 heartbeat IPC: 0.34510 cumulative IPC: 0.31667 (Simulation time: 0 hr 2 min 13 sec) 
Heartbeat CPU  0 instructions:   58000001 cycles:  158378749 heartbeat IPC: 0.35694 cumulative IPC: 0.31741 (Simulation time: 0 hr 2 min 16 sec) 
Heartbeat CPU  0 instructions:   59000000 cycles:  161231361 heartbeat IPC: 0.35056 cumulative IPC: 0.31803 (Simulation time: 0 hr 2 min 18 sec) 
Heartbeat CPU  0 instructions:   60000000 cycles:  163957680 heartbeat IPC: 0.36679 cumulative IPC: 0.31888 (Simulation time: 0 hr 2 min 21 sec) 
Finished CPU 0 instructions: 50000003 cycles: 156800665 cumulative IPC: 0.31888 (Simulation time: 0 hr 2 min 21 sec) 

ChampSim completed all CPUs

[ROI Statistics]
Core_0_instructions 50000003
Core_0_cycles 156800665
Core_0_IPC 0.31888

Core_0_branch_prediction_accuracy 94.06209
Core_0_branch_MPKI 8.73346
Core_0_average_ROB_occupancy_at_mispredict 102.93958

Core_0_L1D_total_access 12568574
Core_0_L1D_total_hit 9982677
Core_0_L1D_total_miss 2585897
Core_0_L1D_loads 11222493
Core_0_L1D_load_hit 8922088
Core_0_L1D_load_miss 2300405
Core_0_L1D_RFOs 1346081
Core_0_L1D_RFO_hit 1060589
Core_0_L1D_RFO_miss 285492
Core_0_L1D_prefetches 0
Core_0_L1D_prefetch_hit 0
Core_0_L1D_prefetch_miss 0
Core_0_L1D_writebacks 0
Core_0_L1D_writeback_hit 0
Core_0_L1D_writeback_miss 0
Core_0_L1D_prefetch_requested 0
Core_0_L1D_prefetch_dropped 0
Core_0_L1D_prefetch_issued 0
Core_0_L1D_prefetch_filled 0
Core_0_L1D_prefetch_useful 0
Core_0_L1D_prefetch_useless 0
Core_0_L1D_prefetch_late 0
Core_0_L1D_average_miss_latency 81.82571

Core_0_L1D_rq_access 17864410
Core_0_L1D_rq_forward 0
Core_0_L1D_rq_merged 6496812
Core_0_L1D_rq_to_cache 11367594
Core_0_L1D_rq_full 0

Core_0_L1D_wq_access 1461202
Core_0_L1D_wq_forward 4
Core_0_L1D_wq_merged 994
Core_0_L1D_wq_to_cache 1460208
Core_0_L1D_wq_full 0

Core_0_L1D_pq_access 0
Core_0_L1D_pq_forward 0
Core_0_L1D_pq_merged 0
Core_0_L1D_pq_to_cache 0
Core_0_L1D_pq_full 0

Core_0_L1D_acc_epochs 159116
Core_0_L1D_acc_level_0 159116
Core_0_L1D_acc_level_1 0
Core_0_L1D_acc_level_2 0
Core_0_L1D_acc_level_3 0
Core_0_L1D_acc_level_4 0
Core_0_L1D_acc_level_5 0
Core_0_L1D_acc_level_6 0
Core_0_L1D_acc_level_7 0
Core_0_L1D_acc_level_8 0
Core_0_L1D_acc_level_9 0

Core_0_L1I_total_access 7325839
Core_0_L1I_total_hit 7325838
Core_0_L1I_total_miss 1
Core_0_L1I_loads 7325839
Core_0_L1I_load_hit 7325838
Core_0_L1I_load_miss 1
Core_0_L1I_RFOs 0
Core_0_L1I_RFO_hit 0
Core_0_L1I_RFO_miss 0
Core_0_L1I_prefetches 0
Core_0_L1I_prefetch_hit 0
Core_0_L1I_prefetch_miss 0
Core_0_L1I_writebacks 0
Core_0_L1I_writeback_hit 0
Core_0_L1I_writeback_miss 0
Core_0_L1I_prefetch_requested 0
Core_0_L1I_prefetch_dropped 0
Core_0_L1I_prefetch_issued 0
Core_0_L1I_prefetch_filled 0
Core_0_L1I_prefetch_useful 0
Core_0_L1I_prefetch_useless 0
Core_0_L1I_prefetch_late 0
Core_0_L1I_average_miss_latency 231.00000

Core_0_L1I_rq_access 49999998
Core_0_L1I_rq_forward 0
Core_0_L1I_rq_merged 42674159
Core_0_L1I_rq_to_cache 7325839
Core_0_L1I_rq_full 0

Core_0_L1I_wq_access 0
Core_0_L1I_wq_forward 0
Core_0_L1I_wq_merged 0
Core_0_L1I_wq_to_cache 0
Core_0_L1I_wq_full 0

Core_0_L1I_pq_access 0
Core_0_L1I_pq_forward 0
Core_0_L1I_pq_merged 0
Core_0_L1I_pq_to_cache 0
Core_0_L1I_pq_full 0

Core_0_L1I_acc_epochs 159116
Core_0_L1I_acc_level_0 159116
Core_0_L1I_acc_level_1 0
Core_0_L1I_acc_level_2 0
Core_0_L1I_acc_level_3 0
Core_0_L1I_acc_level_4 0
Core_0_L1I_acc_level_5 0
Core_0_L1I_acc_level_6 0
Core_0_L1I_acc_level_7 0
Core_0_L1I_acc_level_8 0
Core_0_L1I_acc_level_9 0

Core_0_L2C_total_access 6907490
Core_0_L2C_total_hit 3012999
Core_0_L2C_total_miss 3894491
Core_0_L2C_loads 2300390
Core_0_L2C_load_hit 587832
Core_0_L2C_load_miss 1712558
Core_0_L2C_RFOs 285464
Core_0_L2C_RFO_hit 157664
Core_0_L2C_RFO_miss 127800
Core_0_L2C_prefetches 3506697
Core_0_L2C_prefetch_hit 1456585
Core_0_L2C_prefetch_miss 2050112
Core_0_L2C_writebacks 814939
Core_0_L2C_writeback_hit 810918
Core_0_L2C_writeback_miss 4021
Core_0_L2C_prefetch_requested 4738408
Core_0_L2C_prefetch_dropped 0
Core_0_L2C_prefetch_issued 4738408
Core_0_L2C_prefetch_filled 2390481
Core_0_L2C_prefetch_useful 471255
Core_0_L2C_prefetch_useless 1917716
Core_0_L2C_prefetch_late 61314
Core_0_L2C_average_miss_latency 112.29471

Core_0_L2C_rq_access 2585898
Core_0_L2C_rq_forward 0
Core_0_L2C_rq_merged 0
Core_0_L2C_rq_to_cache 2585854
Core_0_L2C_rq_full 0

Core_0_L2C_wq_access 814939
Core_0_L2C_wq_forward 62
Core_0_L2C_wq_merged 0
Core_0_L2C_wq_to_cache 814939
Core_0_L2C_wq_full 0

Core_0_L2C_pq_access 4738408
Core_0_L2C_pq_forward 0
Core_0_L2C_pq_merged 360704
Core_0_L2C_pq_to_cache 4377686
Core_0_L2C_pq_full 0

Core_0_L2C_acc_epochs 159116
Core_0_L2C_acc_level_0 6292
Core_0_L2C_acc_level_1 91636
Core_0_L2C_acc_level_2 41845
Core_0_L2C_acc_level_3 9984
Core_0_L2C_acc_level_4 2526
Core_0_L2C_acc_level_5 1801
Core_0_L2C_acc_level_6 2034
Core_0_L2C_acc_level_7 1291
Core_0_L2C_acc_level_8 706
Core_0_L2C_acc_level_9 1001

Core_0_LLC_total_access 4450843
Core_0_LLC_total_hit 2585778
Core_0_LLC_total_miss 1865065
Core_0_LLC_loads 1652678
Core_0_LLC_load_hit 1075217
Core_0_LLC_load_miss 577461
Core_0_LLC_RFOs 127794
Core_0_LLC_RFO_hit 67860
Core_0_LLC_RFO_miss 59934
Core_0_LLC_prefetches 2109991
Core_0_LLC_prefetch_hit 947852
Core_0_LLC_prefetch_miss 1162139
Core_0_LLC_writebacks 560380
Core_0_LLC_writeback_hit 494849
Core_0_LLC_writeback_miss 65531
Core_0_LLC_prefetch_requested 0
Core_0_LLC_prefetch_dropped 0
Core_0_LLC_prefetch_issued 0
Core_0_LLC_prefetch_filled 1339535
Core_0_LLC_prefetch_useful 104186
Core_0_LLC_prefetch_useless 1225732
Core_0_LLC_prefetch_late 0
Core_0_LLC_average_miss_latency 174.96248

Core_0_LLC_rq_access 1780478
Core_0_LLC_rq_forward 0
Core_0_LLC_rq_merged 0
Core_0_LLC_rq_to_cache 1780472
Core_0_LLC_rq_full 0

Core_0_LLC_wq_access 560380
Core_0_LLC_wq_forward 7
Core_0_LLC_wq_merged 0
Core_0_LLC_wq_to_cache 560380
Core_0_LLC_wq_full 0

Core_0_LLC_pq_access 2451795
Core_0_LLC_pq_forward 0
Core_0_LLC_pq_merged 0
Core_0_LLC_pq_to_cache 2451794
Core_0_LLC_pq_full 0

Core_0_LLC_acc_epochs 160115
Core_0_LLC_acc_level_0 94548
Core_0_LLC_acc_level_1 40212
Core_0_LLC_acc_level_2 16127
Core_0_LLC_acc_level_3 5506
Core_0_LLC_acc_level_4 1511
Core_0_LLC_acc_level_5 1369
Core_0_LLC_acc_level_6 342
Core_0_LLC_acc_level_7 152
Core_0_LLC_acc_level_8 84
Core_0_LLC_acc_level_9 264

Core_0_major_page_fault 0
Core_0_minor_page_fault 8845

scooby_st_lookup 2609705
scooby_st_hit 1914693
scooby_st_evict 694948
scooby_st_insert 695012
scooby_st_streaming 0

scooby_predict_called 2609705
scooby_predict_out_of_bounds 65059
scooby_predict_action_1 1878478
scooby_predict_issue_action_1 1872031
scooby_predict_hit_action_1 6447
scooby_predict_out_of_bounds_action_1 30147
scooby_predict_action_3 16859
scooby_predict_issue_action_3 15917
scooby_predict_hit_action_3 942
scooby_predict_out_of_bounds_action_3 1134
scooby_predict_action_4 14026
scooby_predict_issue_action_4 13284
scooby_predict_hit_action_4 742
scooby_predict_out_of_bounds_action_4 1334
scooby_predict_action_5 13720
scooby_predict_issue_action_5 12962
scooby_predict_hit_action_5 758
scooby_predict_out_of_bounds_action_5 1656
scooby_predict_action_10 10635
scooby_predict_issue_action_10 10082
scooby_predict_hit_action_10 553
scooby_predict_out_of_bounds_action_10 2758
scooby_predict_action_11 9942
scooby_predict_issue_action_11 9359
scooby_predict_hit_action_11 583
scooby_predict_out_of_bounds_action_11 2886
scooby_predict_action_12 9549
scooby_predict_issue_action_12 9057
scooby_predict_hit_action_12 492
scooby_predict_out_of_bounds_action_12 3082
scooby_predict_action_22 5728
scooby_predict_issue_action_22 5428
scooby_predict_hit_action_22 300
scooby_predict_out_of_bounds_action_22 4541
scooby_predict_action_23 5466
scooby_predict_issue_action_23 5201
scooby_predict_hit_action_23 265
scooby_predict_out_of_bounds_action_23 4685
scooby_predict_action_30 3559
scooby_predict_issue_action_30 3416
scooby_predict_hit_action_30 143
scooby_predict_out_of_bounds_action_30 5365
scooby_predict_action_32 3212
scooby_predict_issue_action_32 3089
scooby_predict_hit_action_32 123
scooby_predict_out_of_bounds_action_32 5568
scooby_predict_action_-1 81242
scooby_predict_issue_action_-1 77261
scooby_predict_hit_action_-1 3981
scooby_predict_out_of_bounds_action_-1 1100
scooby_predict_action_-3 13896
scooby_predict_issue_action_-3 12456
scooby_predict_hit_action_-3 1440
scooby_predict_out_of_bounds_action_-3 251
scooby_predict_action_-6 14077
scooby_predict_issue_action_-6 12958
scooby_predict_hit_action_-6 1119
scooby_predict_out_of_bounds_action_-6 552
scooby_predict_action_0 464257
scooby_predict_issue_action_0 0
scooby_predict_hit_action_0 0
scooby_predict_out_of_bounds_action_0 0
scooby_predict_multi_deg_called 826031
scooby_predict_predicted 4738408
scooby_predict_multi_deg 2675907
scooby_predict_multi_deg_2 808250
scooby_predict_multi_deg_3 580350
scooby_predict_multi_deg_4 566756
scooby_predict_multi_deg_5 364818
scooby_predict_multi_deg_6 355733
scooby_predict_multi_deg_7 0
scooby_predict_multi_deg_8 0
scooby_predict_multi_deg_9 0
scooby_predict_multi_deg_10 0
scooby_predict_multi_deg_11 0
scooby_predict_multi_deg_12 0
scooby_predict_multi_deg_13 0
scooby_predict_multi_deg_14 0
scooby_predict_multi_deg_15 0
scooby_predict_multi_deg_16 0

scooby_selected_deg_1 1236470
scooby_selected_deg_2 218513
scooby_selected_deg_3 0
scooby_selected_deg_4 205268
scooby_selected_deg_5 0
scooby_selected_deg_6 402250
scooby_selected_deg_7 0
scooby_selected_deg_8 0
scooby_selected_deg_9 0
scooby_selected_deg_10 0
scooby_selected_deg_11 0
scooby_selected_deg_12 0
scooby_selected_deg_13 0
scooby_selected_deg_14 0
scooby_selected_deg_15 0
scooby_selected_deg_16 0

scooby_state_560385bcc226|0|0 23996,47,16,22,24,12,57,18,15,12,14,19,13,9,8604,32878,
scooby_state_560385bcc226|1|0 20312,45,6,22,15,5,39,29,17,19,8,18,5,14,7339,27893,
scooby_state_560385bcc226|2|0 19649,40,21,13,15,12,37,19,11,18,10,10,15,11,7218,27099,
scooby_state_560385bcc226|3|0 19080,40,12,12,18,9,40,22,15,11,10,15,13,2,6971,26270,
scooby_state_560385bcc226|4|0 15287,31,7,15,13,6,27,22,15,9,9,9,6,8,5710,21174,
scooby_state_560385bcc226|5|0 15287,15,6,9,8,11,31,10,10,14,7,8,8,9,5723,21156,
scooby_state_560385bcc226|6|0 13820,33,7,14,11,9,17,16,12,12,9,14,10,8,5099,19091,
scooby_state_560385bcc226|7|0 13812,29,7,14,10,7,20,15,13,11,7,11,6,7,4897,18866,
scooby_state_560385bcc226|8|0 13556,13,18,7,19,11,24,5,13,4,6,16,6,9,4952,18659,
scooby_state_560385bcc226|9|0 12403,15,3,12,10,3,20,7,10,13,4,10,7,10,4381,16908,
scooby_state_560385bcc226|10|0 12352,10,11,9,6,7,17,9,14,12,8,8,8,7,4346,16824,
scooby_state_560385bcc226|11|0 11178,13,9,4,6,10,14,13,14,7,6,8,9,6,3914,15211,
scooby_state_560385bcc226|12|0 11016,14,8,13,10,4,6,12,7,7,12,10,6,6,3708,14839,
scooby_state_560385bcc226|13|0 10879,10,9,4,10,6,12,9,8,7,16,17,7,14,3596,14604,
scooby_state_560385bcc226|14|0 10808,16,4,9,7,8,13,13,12,6,8,7,7,2,3659,14579,
scooby_state_560385bcc226|16|0 9740,13,3,7,6,8,8,8,9,5,11,5,8,5,3198,13034,
scooby_state_560385bcc226|15|0 9262,9,10,10,9,7,7,11,12,9,5,7,5,5,3079,12447,
scooby_state_560385bcc226|17|0 9274,11,2,8,6,12,7,8,9,9,4,3,4,4,2916,12277,
scooby_state_560385bcc226|18|0 8910,10,7,5,3,7,7,12,7,8,5,8,3,2,2954,11948,
scooby_state_560385bcc226|20|0 8470,6,6,9,5,7,7,5,4,7,5,7,6,6,2812,11362,
scooby_state_560385bcc226|19|0 8456,6,4,8,3,4,7,5,6,9,7,4,5,4,2693,11221,
scooby_state_560385bcc226|23|0 8542,6,5,7,7,9,2,5,2,8,5,12,7,4,2574,11195,
scooby_state_560385bcc226|21|0 7908,7,3,8,5,3,5,9,6,7,4,8,11,3,2481,10468,
scooby_state_560385bcc226|27|0 7547,3,4,6,6,4,4,5,10,2,6,5,4,6,2259,9871,
scooby_state_560385bcc226|22|0 7450,11,5,4,2,6,8,10,7,6,8,2,5,1,2296,9821,
scooby_state_560385bcc226|24|0 7494,7,7,4,6,2,5,2,8,2,3,6,4,5,2253,9808,
scooby_state_560385bcc226|25|0 7055,3,2,4,6,1,8,5,4,9,2,7,1,5,2193,9305,
scooby_state_560385bcc226|26|0 6913,6,6,9,6,3,2,5,4,0,5,5,5,3,2043,9015,
scooby_state_560385bcc226|33|0 6469,5,4,6,4,6,2,5,4,2,3,2,5,4,1807,8328,
scooby_state_560385bcc226|29|0 6418,3,3,0,1,5,6,3,3,6,7,6,4,4,1850,8319,
scooby_state_560385bcc226|30|0 6308,11,4,8,7,7,7,1,4,7,2,7,2,0,1873,8248,
scooby_state_560385bcc226|34|0 6265,5,6,2,7,3,3,0,2,4,3,4,4,2,1795,8105,
scooby_state_560385bcc226|28|0 6142,4,5,1,2,7,3,3,4,2,4,2,3,6,1901,8089,
scooby_state_560385bcc226|38|0 5961,4,4,1,4,4,3,3,1,3,2,11,5,1,1711,7718,
scooby_state_560385bcc226|36|0 5908,4,4,3,8,7,4,1,5,1,4,2,4,2,1659,7616,
scooby_state_560385bcc226|37|0 5814,3,5,7,7,5,3,1,3,5,1,1,3,1,1612,7471,
scooby_state_560385bcc226|43|0 5803,3,1,5,1,4,3,4,2,3,1,4,6,1,1595,7436,
scooby_state_560385bcc226|32|0 5603,4,3,5,3,3,4,1,4,5,3,1,3,0,1649,7291,
scooby_state_560385bcc226|31|0 5600,3,4,0,4,4,7,2,1,2,3,3,3,4,1619,7259,
scooby_state_560385bcc226|35|0 5161,4,5,2,6,3,5,3,3,2,0,3,5,3,1526,6731,
scooby_state_560385bcc226|39|0 5184,4,3,5,6,8,2,3,4,4,0,3,2,5,1366,6599,
scooby_state_560385bcc226|40|0 5047,5,3,3,3,1,7,3,3,3,2,3,1,3,1390,6477,
scooby_state_560385bcc226|48|0 4781,2,3,4,3,1,1,6,2,3,4,3,3,2,1374,6192,
scooby_state_560385bcc226|42|0 4752,6,5,3,3,3,3,4,2,3,2,5,5,3,1328,6127,
scooby_state_560385bcc226|45|0 4691,2,1,4,4,2,3,3,3,2,3,1,3,2,1311,6035,
scooby_state_560385bcc226|44|0 4736,5,4,2,5,6,1,2,4,2,2,2,0,3,1238,6012,
scooby_state_560385bcc226|41|0 4698,2,6,3,6,2,0,4,4,3,1,4,4,2,1240,5979,
scooby_state_560385bcc226|50|0 4668,4,2,5,2,3,2,3,4,1,4,4,2,1,1186,5891,
scooby_state_560385bcc226|47|0 4578,4,2,2,3,6,0,3,2,1,3,4,5,2,1181,5796,
scooby_state_560385bcc226|52|0 4361,7,3,3,2,2,5,2,2,0,1,1,2,2,1164,5557,
scooby_state_560385bcc226|54|0 4360,4,0,2,5,3,4,0,4,2,0,1,3,3,1120,5511,
scooby_state_560385bcc226|49|0 4259,2,2,3,1,3,1,2,2,0,0,3,3,3,1127,5411,
scooby_state_560385bcc226|46|0 4199,4,5,2,1,3,1,0,1,1,2,2,1,0,1166,5388,
scooby_state_560385bcc226|53|0 4173,1,1,2,4,2,4,0,4,1,0,0,2,3,1074,5271,
scooby_state_560385bcc226|56|0 4027,3,4,5,5,2,1,4,3,2,3,3,1,3,965,5031,
scooby_state_560385bcc226|55|0 3943,2,2,3,3,0,0,5,4,2,3,7,2,3,1036,5015,
scooby_state_560385bcc226|60|0 3743,4,2,1,1,2,2,4,1,0,1,4,2,2,943,4712,
scooby_state_560385bcc226|51|0 3695,6,3,1,1,2,1,1,2,1,1,6,2,2,985,4709,
scooby_state_560385bcc226|57|0 3653,5,2,1,1,1,3,5,2,2,4,2,3,1,958,4643,
scooby_state_560385bcc226|63|0 3632,2,5,5,5,2,6,1,3,0,1,1,3,1,900,4567,
scooby_state_560385bcc226|61|0 3500,1,2,2,1,1,2,2,1,0,1,5,0,1,889,4408,
scooby_state_560385bcc200|53|1 4390,0,1,0,1,0,1,1,1,0,1,0,0,0,0,4396,
scooby_state_560385bcc200|51|1 4389,1,0,0,1,0,0,1,1,1,1,0,0,0,0,4395,
scooby_state_560385bcc200|50|1 4382,1,1,1,0,1,1,0,1,2,1,0,0,0,3,4394,
scooby_state_560385bcc200|48|1 4383,0,1,1,1,0,1,0,2,0,0,1,0,1,0,4391,
scooby_state_560385bcc200|49|1 4382,0,0,0,1,1,0,1,1,0,1,1,1,0,1,4390,
scooby_state_560385bcc200|44|1 4387,0,0,0,0,0,1,0,1,0,1,0,0,0,0,4390,
scooby_state_560385bcc200|52|1 4378,0,0,0,3,1,1,1,1,0,1,1,3,0,0,4390,
scooby_state_560385bcc200|45|1 4383,0,0,2,0,1,1,0,0,0,0,2,0,1,0,4390,
scooby_state_560385bcc200|54|1 4383,1,1,0,0,1,0,0,1,0,1,0,1,0,0,4389,
scooby_state_560385bcc200|42|1 4383,0,0,0,0,0,2,0,0,1,0,1,1,0,0,4388,
scooby_state_560385bcc200|43|1 4380,0,0,0,0,0,0,0,2,1,2,0,0,0,0,4385,
scooby_state_560385bcc200|41|1 4381,1,0,0,1,0,1,0,0,0,0,0,1,0,0,4385,
scooby_state_560385bcc200|28|1 4377,0,2,1,1,0,1,0,1,0,0,0,1,1,0,4385,
scooby_state_560385bcc200|47|1 4375,2,1,0,1,2,0,0,0,0,0,0,2,0,0,4383,
scooby_state_560385bcc200|27|1 4373,2,0,1,1,1,0,0,1,1,0,0,1,1,0,4382,
scooby_state_560385bcc200|26|1 4375,2,1,0,0,1,0,0,1,1,0,0,0,0,0,4381,
scooby_state_560385bcc200|55|1 4373,2,1,2,1,0,0,0,1,0,0,0,0,0,1,4381,
scooby_state_560385bcc200|25|1 4369,0,0,0,0,1,2,1,0,0,1,0,1,1,3,4379,
scooby_state_560385bcc200|56|1 4367,0,0,1,0,2,1,1,0,0,1,0,1,1,3,4378,
scooby_state_560385bcc200|29|1 4368,0,0,1,1,0,0,1,0,1,2,2,0,1,0,4377,
scooby_state_560385bcc200|46|1 4370,0,0,2,0,0,0,0,0,1,0,1,1,0,1,4376,
scooby_state_560385bcc200|57|1 4369,0,1,0,1,1,0,0,0,0,0,1,1,1,0,4375,
scooby_state_560385bcc200|40|1 4365,0,0,1,0,0,0,1,2,0,1,0,1,1,2,4374,
scooby_state_560385bcc200|0|0 4369,0,1,1,1,0,0,0,1,0,0,0,0,0,0,4373,
scooby_state_560385bcc200|60|1 4366,1,0,0,0,1,1,0,1,0,0,0,2,0,0,4372,
scooby_state_560385bcc200|30|1 4362,0,1,1,1,0,1,1,0,1,0,0,0,2,0,4370,
scooby_state_560385bcc200|6|1 4362,0,0,0,1,0,1,1,1,0,0,0,2,1,1,4370,
scooby_state_560385bcc200|59|1 4363,0,0,1,0,0,1,1,1,0,0,0,0,1,0,4368,
scooby_state_560385bcc200|58|1 4359,0,0,2,1,1,1,1,0,0,0,1,0,0,1,4367,
scooby_state_560385bcc200|7|1 4357,0,1,1,0,0,0,1,0,0,0,0,0,2,4,4366,
scooby_state_560385bcc200|8|1 4358,2,0,0,1,2,0,0,1,0,0,0,0,0,1,4365,
scooby_state_560385bcc200|39|1 4357,1,1,0,1,1,0,0,2,1,0,0,0,0,1,4365,
scooby_state_560385bcc200|5|1 4358,1,1,0,0,0,0,0,1,0,1,1,0,2,0,4365,
scooby_state_560385bcc200|32|1 4358,1,0,0,0,0,0,0,1,0,0,0,0,3,1,4364,
scooby_state_560385bcc200|33|1 4355,1,0,2,0,1,1,0,0,0,1,0,1,1,0,4363,
scooby_state_560385bcc200|61|1 4351,0,0,0,0,0,1,1,0,3,0,1,3,2,1,4363,
scooby_state_560385bcc200|38|1 4359,1,0,0,0,0,0,0,1,1,0,0,1,0,0,4363,
scooby_state_560385bcc200|24|1 4358,0,1,0,2,0,1,0,0,0,0,0,0,0,1,4363,
scooby_state_560385bcc200|31|1 4353,0,0,0,1,1,1,0,1,0,0,0,0,4,1,4362,
scooby_state_560385bcc200|22|1 4354,1,2,0,0,1,0,0,0,0,0,0,1,2,0,4361,
scooby_state_560385bcc200|36|1 4356,1,0,0,0,0,1,1,0,0,0,0,0,1,1,4361,
scooby_state_560385bcc200|37|1 4354,1,1,0,0,0,0,1,0,0,0,1,1,0,2,4361,
scooby_state_560385bcc200|23|1 4355,0,0,0,1,1,1,1,0,1,0,0,0,0,0,4360,
scooby_state_560385bcc200|4|1 4349,0,0,0,1,0,1,0,1,0,3,0,0,1,1,4357,
scooby_state_560385bcc200|62|1 4347,0,0,1,3,1,0,1,0,0,0,3,0,0,0,4356,
scooby_state_560385bcc200|34|1 4346,2,0,1,1,1,0,1,0,1,0,1,0,1,0,4355,
scooby_state_560385bcc200|35|1 4349,1,1,0,1,1,0,0,0,0,2,0,0,0,0,4355,
scooby_state_560385bcc200|9|1 4347,0,1,1,1,0,0,1,0,0,1,1,0,0,1,4354,
scooby_state_560385bcc200|63|1 4345,0,1,0,2,0,0,1,1,0,0,0,0,0,0,4350,
scooby_state_560385bcc200|12|1 4343,0,1,0,1,1,0,1,0,1,0,0,0,0,1,4349,
scooby_state_560385bcc200|10|1 4342,1,0,0,1,1,0,1,0,0,1,0,0,0,1,4348,
scooby_state_560385bcc200|11|1 4338,0,1,1,2,0,0,2,0,0,0,1,0,2,1,4348,
scooby_state_560385bcc200|3|1 4339,1,1,2,0,0,0,1,0,0,2,0,0,1,1,4348,
scooby_state_560385bcc200|2|1 4339,1,0,1,0,0,1,0,1,2,0,0,3,0,0,4348,
scooby_state_560385bcc200|13|1 4340,2,0,1,0,1,0,0,1,1,1,0,0,0,0,4347,
scooby_state_560385bcc200|1|1 4341,1,0,2,0,0,0,1,0,2,0,0,0,0,0,4347,
scooby_state_560385bcc200|14|1 4333,1,0,1,1,4,1,0,1,0,0,0,0,1,1,4344,
scooby_state_560385bcc200|21|1 4334,0,1,0,0,0,1,0,1,2,1,1,0,0,1,4342,
scooby_state_560385bcc200|15|1 4333,0,1,0,0,0,0,1,0,0,0,1,0,0,1,4337,
scooby_state_560385bcc200|16|1 4331,0,0,1,0,0,1,1,0,1,0,0,0,2,0,4337,
scooby_state_560385bcc200|17|1 4321,2,1,1,1,1,0,2,0,0,2,0,2,1,0,4334,
scooby_state_560385bcc200|20|1 4321,1,0,0,0,1,1,1,0,0,2,0,2,1,1,4331,
scooby_state_560385bcc200|19|1 4321,0,0,1,2,0,0,0,2,0,2,3,0,0,0,4331,
scooby_state_560385bcc200|18|1 4319,1,1,0,2,1,0,1,0,1,0,0,0,1,0,4327,
scooby_state_560385bcc226|59|0 3376,1,0,2,2,2,2,4,0,0,1,2,0,1,875,4268,
scooby_state_560385bcc226|62|0 3293,3,2,5,4,1,1,1,1,2,3,0,2,0,885,4203,
scooby_state_560385bcc226|58|0 3188,0,5,1,2,4,1,0,2,2,1,3,3,2,853,4067,
scooby_state_560385bcc226|53|1 3006,9,7,13,9,9,8,4,7,3,2,6,6,7,731,3827,
scooby_state_560385bcc226|44|1 3001,5,7,8,9,6,6,7,5,6,3,1,5,2,679,3750,
scooby_state_560385bcc226|52|1 2921,10,5,9,8,6,8,4,6,4,3,2,2,3,740,3731,
scooby_state_560385bcc226|49|1 2939,2,5,14,10,8,9,4,3,4,6,4,6,5,696,3715,
scooby_state_560385bcc226|48|1 2902,15,10,13,8,7,6,9,7,4,3,2,4,4,711,3705,
scooby_state_560385bcc226|2|1 2975,9,7,15,10,9,11,2,6,6,3,6,2,5,638,3704,
scooby_state_560385bcc226|8|1 2973,7,12,10,8,6,7,8,9,3,1,7,4,4,639,3698,
scooby_state_560385bcc226|17|1 2938,5,15,14,10,7,0,3,3,2,5,2,5,2,669,3680,
scooby_state_560385bcc226|37|1 2903,7,7,14,13,6,7,5,4,4,2,6,4,2,693,3677,
scooby_state_560385bcc226|50|1 2881,13,10,11,10,5,9,4,3,4,7,5,5,7,702,3676,
scooby_state_560385bcc226|43|1 2965,6,5,16,12,8,8,4,5,2,2,5,4,2,629,3673,
scooby_state_560385bcc226|55|1 2903,9,9,13,9,4,4,3,3,3,4,2,2,3,696,3667,
scooby_state_560385bcc226|24|1 2872,7,6,11,6,9,10,7,3,3,4,10,3,4,691,3646,
scooby_state_560385bcc226|27|1 2909,10,10,11,5,7,10,2,5,6,3,8,7,3,634,3630,
scooby_state_560385bcc226|54|1 2826,11,6,13,9,5,11,1,3,3,2,4,3,6,715,3618,
scooby_state_560385bcc226|13|1 2911,10,6,11,10,5,5,1,3,1,4,4,5,5,620,3601,
scooby_state_560385bcc226|23|1 2872,9,10,10,14,6,11,5,2,3,2,11,10,1,629,3595,
scooby_state_560385bcc226|63|1 2829,6,11,10,11,9,6,5,3,6,7,5,6,2,676,3592,
scooby_state_560385bcc226|45|1 2873,10,5,11,3,11,15,6,3,1,3,1,1,3,628,3574,
scooby_state_560385bcc226|3|1 2840,8,3,5,11,6,6,5,3,3,4,6,3,4,655,3562,
scooby_state_560385bcc226|57|1 2804,7,8,16,8,9,6,6,6,2,3,8,7,5,662,3557,
scooby_state_560385bcc226|38|1 2824,7,9,13,5,8,6,8,4,5,2,8,6,8,635,3548,
scooby_state_560385bcc226|39|1 2826,10,7,10,11,8,4,3,10,1,4,5,4,7,636,3546,
scooby_state_560385bcc226|61|1 2743,10,9,10,9,7,6,6,4,5,9,2,5,5,694,3524,
scooby_state_560385bcc226|15|1 2819,8,5,8,13,8,5,5,2,4,2,2,5,5,621,3512,
scooby_state_560385bcc226|14|1 2789,8,5,13,8,14,9,2,5,2,2,4,4,8,637,3510,
scooby_state_560385bcc226|41|1 2781,9,3,12,8,8,5,5,3,2,3,5,3,3,659,3509,
scooby_state_560385bcc226|21|1 2809,4,3,11,12,10,4,2,5,3,8,3,2,4,616,3496,
scooby_state_560385bcc226|16|1 2850,6,9,11,6,6,3,2,3,6,1,4,5,6,564,3482,
scooby_state_560385bcc226|40|1 2768,4,12,9,7,6,3,4,7,5,4,5,3,8,622,3467,
scooby_state_560385bcc226|36|1 2805,6,5,14,9,5,9,4,5,2,3,4,6,3,571,3451,
scooby_state_560385bcc226|1|1 2735,9,7,9,9,7,7,2,2,11,8,5,6,1,626,3444,
scooby_state_560385bcc226|12|1 2728,3,11,9,9,4,5,4,2,0,3,4,7,5,647,3441,
scooby_state_560385bcc226|51|1 2688,15,5,10,8,8,9,6,6,4,6,6,4,5,660,3440,
scooby_state_560385bcc226|11|1 2764,12,1,7,8,4,8,6,2,3,2,4,6,4,594,3425,
scooby_state_560385bcc226|18|1 2782,5,6,9,9,8,9,4,2,0,3,4,4,2,567,3414,
scooby_state_560385bcc226|34|1 2747,6,7,10,5,6,1,5,4,1,5,5,5,5,595,3407,
scooby_state_560385bcc226|20|1 2752,4,5,8,7,3,9,4,3,3,3,6,3,6,589,3405,
scooby_state_560385bcc226|46|1 2659,9,10,8,4,5,8,4,6,5,2,4,0,4,666,3394,
scooby_state_560385bcc226|5|1 2687,10,7,12,4,3,9,1,6,2,0,1,4,6,641,3393,
scooby_state_560385bcc226|60|1 2681,8,12,8,4,6,9,3,4,5,2,9,4,1,619,3375,
scooby_state_560385bcc226|25|1 2713,8,13,6,8,3,5,7,2,1,4,4,9,4,569,3356,
scooby_state_560385bcc226|19|1 2684,7,5,8,5,5,6,4,3,5,3,5,3,3,598,3344,
scooby_state_560385bcc226|33|1 2700,8,7,4,6,9,5,4,5,4,1,3,1,5,579,3341,
scooby_state_560385bcc226|42|1 2732,9,6,7,7,7,3,6,6,2,1,2,4,3,535,3330,
scooby_state_560385bcc226|28|1 2737,5,11,7,9,11,9,4,2,4,1,6,2,2,517,3327,
scooby_state_560385bcc226|56|1 2596,9,8,9,8,5,2,7,4,7,2,4,5,4,646,3316,
scooby_state_560385bcc226|58|1 2602,10,10,12,6,12,2,5,3,0,3,7,5,1,635,3313,
scooby_state_560385bcc226|62|1 2623,9,7,11,17,7,4,10,5,4,8,5,5,5,587,3307,
scooby_state_560385bcc226|7|1 2643,10,9,9,11,7,4,7,5,1,3,3,6,6,580,3304,
scooby_state_560385bcc226|30|1 2662,4,9,3,10,7,7,7,2,3,3,3,3,4,569,3296,
scooby_state_560385bcc226|47|1 2636,6,2,17,7,6,5,6,2,5,2,2,2,1,585,3284,
scooby_state_560385bcc226|9|1 2652,5,5,6,8,6,6,2,5,0,6,4,4,3,571,3283,
scooby_state_560385bcc226|6|1 2614,9,8,9,5,4,12,3,3,3,3,5,7,5,592,3282,
scooby_state_560385bcc226|4|1 2591,9,8,11,7,9,6,1,3,3,5,2,1,3,612,3271,
scooby_state_560385bcc226|10|1 2653,8,0,9,9,5,10,5,2,2,4,3,6,6,547,3269,
scooby_state_560385bcc226|22|1 2630,10,7,8,12,3,2,1,3,4,0,4,2,3,538,3227,
scooby_state_560385bcc226|35|1 2595,8,7,11,4,9,6,5,6,3,8,4,3,3,546,3218,
scooby_state_560385bcc226|29|1 2612,3,2,11,12,3,6,2,3,2,1,4,3,2,544,3210,
scooby_state_560385bcc226|31|1 2622,8,11,9,13,7,5,5,5,4,2,9,0,3,500,3203,
scooby_state_560385bcc226|26|1 2586,7,5,13,11,3,4,2,5,3,3,4,4,5,536,3191,
scooby_state_560385bcc226|32|1 2616,7,7,7,10,3,11,4,2,3,5,7,2,1,462,3147,
scooby_state_560385bcc226|59|1 2366,7,11,10,10,4,2,4,4,2,2,6,7,4,513,2952,
scooby_state_560385bcc226|40|2 2250,9,7,5,4,10,6,5,6,3,3,11,1,3,620,2943,
scooby_state_560385bcc226|7|2 2219,6,5,14,6,11,1,7,4,5,3,11,7,4,622,2925,
scooby_state_560385bcc226|52|2 2209,9,11,4,4,8,6,8,7,5,3,14,8,6,622,2924,
scooby_state_560385bcc226|54|2 2161,12,13,10,8,6,7,2,4,0,6,10,3,3,658,2903,
scooby_state_560385bcc226|22|2 2192,9,10,8,6,6,4,8,3,7,2,10,5,3,597,2870,
scooby_state_560385bcc226|48|2 2157,6,9,12,12,12,12,5,4,3,5,13,10,4,601,2865,
scooby_state_560385bcc226|16|2 2196,8,6,9,5,5,7,6,0,4,1,15,6,2,587,2857,
scooby_state_560385bcc226|35|2 2213,7,11,9,8,6,6,6,4,2,2,7,5,6,554,2846,
scooby_state_560385bcc226|63|2 2085,10,14,10,5,5,8,3,5,2,5,11,8,4,643,2818,
scooby_state_560385bcc226|51|2 2065,10,16,13,7,8,4,5,5,0,1,14,5,8,596,2757,
scooby_state_560385bcc226|29|2 2111,4,9,8,7,11,6,3,4,5,3,11,9,4,556,2751,
scooby_state_560385bcc226|50|2 2037,8,12,7,3,12,11,4,4,5,4,6,11,3,617,2744,
scooby_state_560385bcc226|45|2 2106,8,5,7,6,10,4,4,1,3,2,12,4,4,566,2742,
scooby_state_560385bcc226|56|2 2131,6,10,3,9,4,8,8,6,4,1,16,4,4,522,2736,
scooby_state_560385bcc226|36|2 2066,8,9,9,6,10,8,2,4,4,5,11,2,5,575,2724,
scooby_state_560385bcc226|20|2 2069,15,9,10,7,7,4,6,4,2,1,7,3,2,541,2687,
scooby_state_560385bcc226|39|2 2037,8,10,6,4,5,9,4,4,4,8,7,6,7,565,2684,
scooby_state_560385bcc226|38|2 2050,5,8,6,3,4,3,4,1,3,1,8,6,3,578,2683,
scooby_state_560385bcc226|58|2 1980,9,13,7,5,8,7,5,5,5,3,16,6,4,573,2646,
scooby_state_560385bcc226|43|2 2007,4,8,16,3,3,6,9,3,4,4,8,5,8,542,2630,
scooby_state_560385bcc226|23|2 2055,3,10,6,7,6,6,5,6,7,3,6,4,4,495,2623,
scooby_state_560385bcc226|46|2 1967,5,11,8,4,6,7,3,4,1,3,11,2,4,580,2616,
scooby_state_560385bcc226|10|2 2028,6,12,7,4,4,8,8,1,3,2,15,3,1,512,2614,
scooby_state_560385bcc226|27|2 2034,7,4,9,4,1,9,4,3,2,1,10,5,0,513,2606,
scooby_state_560385bcc226|61|2 1900,16,9,10,7,10,9,4,7,6,4,15,9,7,577,2590,
scooby_state_560385bcc226|41|2 1980,5,7,7,3,5,9,6,1,4,4,9,5,3,542,2590,
scooby_state_560385bcc226|18|2 2025,5,11,9,4,4,3,1,4,1,3,8,7,1,502,2588,
scooby_state_560385bcc226|14|2 1959,5,5,8,3,10,14,8,7,6,1,12,4,1,537,2580,
scooby_state_560385bcc226|57|2 1952,14,9,9,6,5,8,2,7,7,1,7,1,5,546,2579,
scooby_state_560385bcc226|19|2 1978,2,7,9,6,5,5,1,6,4,1,5,5,3,535,2572,
scooby_state_560385bcc226|49|2 1976,3,5,11,4,4,6,3,3,2,1,7,4,3,535,2567,
scooby_state_560385bcc226|62|2 1925,9,7,5,5,6,5,6,2,9,2,12,6,5,559,2563,
scooby_state_560385bcc226|25|2 2011,9,9,3,7,8,7,3,3,4,2,8,6,3,464,2547,
scooby_state_560385bcc226|24|2 1990,8,6,4,3,5,5,8,3,1,1,10,0,4,486,2534,
scooby_state_560385bcc226|47|2 1971,6,7,4,3,8,9,4,1,3,3,11,3,4,496,2533,
scooby_state_560385bcc226|21|2 1980,6,6,6,5,5,5,6,3,2,3,4,6,2,489,2528,
scooby_state_560385bcc226|42|2 1936,4,8,5,2,7,3,5,8,4,2,13,4,5,515,2521,
scooby_state_560385bcc226|5|2 1929,4,6,6,4,9,6,4,4,3,1,10,2,5,527,2520,
scooby_state_560385bcc226|8|2 1926,7,5,4,1,5,7,4,2,5,2,12,4,3,531,2518,
scooby_state_560385bcc226|12|2 1941,3,10,9,4,7,3,4,3,5,3,5,0,2,510,2509,
scooby_state_560385bcc226|53|2 1897,5,7,4,8,6,5,4,4,2,4,9,7,5,523,2490,
scooby_state_560385bcc226|3|2 1857,8,13,9,8,7,2,5,8,5,1,3,4,6,546,2482,
scooby_state_560385bcc226|15|2 1926,6,8,7,4,1,9,1,4,2,0,6,3,5,493,2475,
scooby_state_560385bcc226|17|2 1934,7,6,3,3,2,5,2,0,4,2,7,3,9,484,2471,
scooby_state_560385bcc226|2|2 1887,9,5,5,5,7,8,7,6,5,2,7,7,7,501,2468,
scooby_state_560385bcc226|30|2 1898,8,5,3,4,5,8,6,4,1,3,5,0,3,507,2460,
scooby_state_560385bcc226|32|2 1893,5,10,5,3,3,7,6,6,5,9,8,2,4,494,2460,
scooby_state_560385bcc226|55|3 1767,15,15,8,12,5,12,4,3,4,8,1,6,3,593,2456,
scooby_state_560385bcc226|33|2 1870,4,5,7,9,4,6,3,3,3,3,10,10,6,512,2455,
scooby_state_560385bcc226|34|2 1854,4,11,10,6,6,4,7,3,4,5,6,5,2,525,2452,
scooby_state_560385bcc226|13|2 1890,6,6,8,6,4,10,1,4,2,3,16,5,3,486,2450,
scooby_state_560385bcc226|9|2 1871,3,6,7,8,6,0,3,6,1,5,6,9,0,510,2441,
scooby_state_560385bcc226|44|2 1894,8,3,10,7,3,4,1,8,3,5,10,4,4,476,2440,
scooby_state_560385bcc226|59|2 1802,3,9,10,6,5,8,5,8,4,3,9,5,1,557,2435,
scooby_state_560385bcc226|4|2 1828,8,8,8,4,6,3,4,6,0,3,8,3,3,531,2423,
scooby_state_560385bcc226|55|2 1846,10,8,7,7,11,6,3,5,1,1,8,4,5,498,2420,
scooby_state_560385bcc226|11|2 1843,5,8,5,8,5,4,4,6,3,4,10,4,4,477,2390,
scooby_state_560385bcc226|37|2 1827,9,7,4,2,6,7,4,7,1,4,11,6,6,479,2380,
scooby_state_560385bcc226|28|2 1821,3,3,6,10,3,8,7,5,2,0,3,4,4,483,2362,
scooby_state_560385bcc226|26|2 1786,7,14,6,8,2,2,2,4,5,6,10,2,4,493,2351,
scooby_state_560385bcc226|60|2 1766,9,7,4,7,8,6,7,3,5,2,10,3,2,508,2347,
scooby_state_560385bcc226|20|3 1727,9,8,8,9,9,6,2,4,9,2,0,4,4,516,2317,
scooby_state_560385bcc226|46|3 1697,7,6,11,9,9,3,6,9,0,3,6,4,3,523,2296,
scooby_state_560385bcc226|21|3 1711,8,7,11,9,4,5,7,5,7,1,3,2,7,502,2289,
scooby_state_560385bcc226|5|3 1672,18,7,6,4,7,6,1,4,3,5,6,5,4,530,2278,
scooby_state_560385bcc226|6|2 1760,9,7,9,5,6,3,4,5,0,7,11,2,4,439,2271,
scooby_state_560385bcc226|52|3 1682,10,9,8,4,9,5,5,4,7,8,2,4,6,491,2254,
scooby_state_560385bcc226|31|2 1752,12,7,7,4,5,2,4,6,3,1,5,2,4,428,2242,
scooby_state_560385bcc226|37|3 1683,8,9,7,5,8,7,5,6,3,3,2,2,2,480,2230,
scooby_state_560385bcc226|39|3 1662,8,9,4,8,9,9,5,2,3,4,4,9,5,483,2224,
scooby_state_560385bcc226|11|3 1641,9,8,7,6,8,5,5,3,3,4,3,4,5,509,2220,
scooby_state_560385bcc226|27|3 1676,12,4,8,6,11,7,1,1,3,4,7,0,1,467,2208,
scooby_state_560385bcc226|57|3 1603,7,12,9,8,6,4,6,3,3,6,3,4,7,526,2207,
scooby_state_560385bcc226|56|3 1615,7,11,10,7,8,6,5,7,5,5,5,5,3,508,2207,
scooby_state_560385bcc226|45|3 1614,12,6,6,7,6,6,2,4,4,2,5,2,3,516,2195,
scooby_state_560385bcc226|42|3 1656,4,8,7,5,6,7,0,5,5,0,1,7,1,469,2181,
scooby_state_560385bcc226|18|3 1638,10,7,6,4,2,7,5,5,6,1,2,4,6,470,2173,
scooby_state_560385bcc226|26|3 1603,18,7,11,7,4,9,2,5,1,4,2,3,4,490,2170,
scooby_state_560385bcc226|48|3 1605,7,11,6,7,6,8,4,3,3,5,4,5,7,488,2169,
scooby_state_560385bcc226|14|3 1608,8,9,9,8,6,2,4,8,2,4,5,2,2,463,2140,
scooby_state_560385bcc226|22|3 1584,11,6,5,9,9,4,5,0,1,2,4,7,4,480,2131,
scooby_state_560385bcc226|8|3 1583,6,6,9,1,7,13,3,5,4,3,5,2,6,477,2130,
scooby_state_560385bcc226|63|3 1571,7,3,8,9,4,10,3,1,5,4,5,7,2,480,2119,
scooby_state_560385bcc226|53|3 1565,5,9,4,7,7,5,5,7,11,5,4,6,3,475,2118,
scooby_state_560385bcc226|6|3 1567,7,9,10,7,6,6,3,4,5,5,4,2,3,468,2106,
scooby_state_560385bcc226|47|3 1549,13,6,14,7,9,5,4,4,8,3,5,1,2,471,2101,
scooby_state_560385bcc226|23|3 1573,8,12,6,9,7,8,3,5,4,3,8,6,5,441,2098,
scooby_state_560385bcc226|36|3 1574,9,5,5,6,7,15,1,4,5,7,8,6,3,435,2090,
scooby_state_560385bcc226|10|3 1542,6,7,9,5,5,2,4,2,5,5,3,0,2,489,2086,
scooby_state_560385bcc226|17|3 1538,9,6,6,10,7,3,7,4,4,3,5,2,3,470,2077,
scooby_state_560385bcc226|19|3 1573,6,4,11,6,4,7,6,5,4,5,2,2,3,438,2076,
scooby_state_560385bcc226|50|3 1514,9,9,6,5,4,7,1,1,1,2,2,4,4,504,2073,
scooby_state_560385bcc226|13|3 1510,13,5,6,5,8,6,1,5,3,1,6,4,5,493,2071,
scooby_state_560385bcc226|24|3 1552,6,7,6,6,4,6,2,4,3,4,3,4,5,450,2062,
scooby_state_560385bcc226|25|3 1556,10,4,6,5,6,4,7,4,3,1,3,5,6,441,2061,
scooby_state_560385bcc226|12|3 1540,12,5,10,5,6,6,2,4,2,1,5,6,7,448,2059,
scooby_state_560385bcc226|44|3 1526,7,5,17,3,6,4,7,7,2,4,4,6,4,456,2058,
scooby_state_560385bcc226|49|3 1479,12,8,11,7,4,7,4,2,5,1,3,6,2,500,2051,
scooby_state_560385bcc226|60|3 1468,6,12,9,8,7,8,11,5,6,8,5,3,5,490,2051,
scooby_state_560385bcc226|41|3 1562,4,9,10,5,3,9,3,5,6,2,3,4,5,418,2048,
scooby_state_560385bcc226|16|3 1552,6,8,4,8,4,3,4,4,5,6,5,1,2,435,2047,
scooby_state_560385bcc226|43|3 1522,6,9,9,4,8,8,4,5,3,3,3,3,3,452,2042,
scooby_state_560385bcc226|41|4 1469,5,5,2,2,1,0,1,4,0,2,4,0,5,541,2041,
scooby_state_560385bcc226|30|3 1530,7,9,10,5,6,6,5,10,6,7,7,3,5,416,2032,
scooby_state_560385bcc226|54|4 1452,9,3,8,4,1,3,1,1,2,3,3,4,4,529,2027,
scooby_state_560385bcc226|42|4 1445,1,7,5,3,5,3,1,2,3,1,8,2,3,524,2013,
scooby_state_560385bcc226|40|4 1427,2,3,9,5,6,3,1,2,2,3,2,2,3,514,1984,
scooby_state_560385bcc226|51|3 1451,6,3,6,6,9,9,6,9,5,6,1,2,5,454,1978,
scooby_state_560385bcc226|4|3 1441,6,7,7,5,9,7,4,2,2,3,2,5,6,466,1972,
scooby_state_560385bcc226|40|3 1475,5,8,10,10,8,7,3,4,1,1,4,4,2,426,1968,
scooby_state_560385bcc226|38|3 1475,8,6,4,9,7,9,1,4,4,1,6,4,6,423,1967,
scooby_state_560385bcc226|58|3 1453,10,11,13,7,5,4,3,5,1,6,0,7,1,437,1963,
scooby_state_560385bcc226|32|3 1481,12,8,3,5,8,2,5,4,1,0,2,5,1,420,1957,
scooby_state_560385bcc226|54|3 1438,9,12,6,6,7,5,1,5,5,1,8,6,3,440,1952,
scooby_state_560385bcc226|59|3 1462,6,10,8,6,9,6,4,5,3,1,4,3,4,414,1945,
scooby_state_560385bcc226|52|4 1376,4,1,3,3,1,1,0,2,4,2,3,1,3,537,1941,
scooby_state_560385bcc226|38|4 1430,3,2,5,0,3,5,1,1,3,0,0,4,4,479,1940,
scooby_state_560385bcc226|33|3 1445,9,9,11,7,5,0,0,4,2,3,3,3,3,431,1935,
scooby_state_560385bcc226|35|3 1468,7,9,4,5,1,8,4,3,2,2,4,6,5,406,1934,
scooby_state_560385bcc226|27|4 1396,2,2,4,1,1,2,2,0,5,1,7,3,2,503,1931,
scooby_state_560385bcc226|15|3 1416,13,1,7,7,8,5,4,6,5,2,2,4,4,433,1917,
scooby_state_560385bcc226|34|3 1450,13,11,5,8,6,7,3,5,2,3,3,3,4,393,1916,
scooby_state_560385bcc226|28|3 1443,5,5,8,6,3,5,0,6,4,1,4,5,2,414,1911,
scooby_state_560385bcc226|62|3 1398,6,11,6,6,6,8,2,6,1,8,1,4,5,443,1911,
scooby_state_560385bcc226|59|4 1368,5,4,4,4,3,5,0,0,1,1,3,2,1,508,1909,
scooby_state_560385bcc226|7|4 1375,1,2,4,3,0,3,1,4,0,6,2,5,2,494,1902,
scooby_state_560385bcc226|57|4 1325,2,4,5,5,5,3,2,1,1,1,3,2,0,530,1889,
scooby_state_560385bcc226|3|3 1368,8,5,9,6,4,9,7,4,2,4,3,5,5,449,1888,
scooby_state_560385bcc226|31|3 1362,8,6,6,9,6,8,6,2,4,1,2,6,3,448,1877,
scooby_state_560385bcc226|23|4 1371,0,3,4,5,1,2,2,2,2,2,4,2,2,475,1877,
scooby_state_560385bcc226|43|4 1328,3,1,6,0,6,3,1,2,1,3,3,2,2,488,1849,
scooby_state_560385bcc226|61|3 1344,7,14,13,4,6,4,1,4,3,6,1,3,2,428,1840,
scooby_state_560385bcc226|39|4 1311,2,4,3,1,3,3,3,0,3,2,5,1,1,489,1831,
scooby_state_560385bcc226|10|4 1348,5,3,5,3,2,5,2,3,0,2,6,2,2,435,1823,
scooby_state_560385bcc226|47|4 1308,3,4,6,5,2,3,2,1,2,2,6,4,2,470,1820,
scooby_state_560385bcc226|7|3 1352,5,9,13,4,5,6,4,5,2,2,1,1,7,402,1818,
scooby_state_560385bcc226|37|4 1307,2,1,2,3,3,2,2,4,0,2,3,5,5,476,1817,
scooby_state_560385bcc226|9|3 1344,11,8,8,2,4,6,3,2,2,3,3,3,5,411,1815,
scooby_state_560385bcc226|14|4 1315,3,5,3,4,1,3,4,4,1,0,4,3,2,447,1799,
scooby_state_560385bcc226|56|4 1289,2,4,5,3,6,1,1,1,1,2,0,1,1,476,1793,
scooby_state_560385bcc226|18|4 1306,2,6,6,3,4,1,1,1,0,1,4,0,0,452,1787,
scooby_state_560385bcc226|11|4 1285,0,2,3,5,3,3,2,1,3,2,3,2,2,470,1786,
scooby_state_560385bcc226|50|4 1293,0,3,4,2,5,4,0,1,0,6,5,3,3,455,1784,
scooby_state_560385bcc226|20|4 1302,4,4,1,2,2,4,1,0,2,3,2,2,1,449,1779,
scooby_state_560385bcc226|28|4 1282,4,1,5,2,3,6,1,2,2,1,2,5,1,452,1769,
scooby_state_560385bcc226|49|4 1257,1,1,4,1,4,2,0,2,1,0,2,1,0,492,1768,
scooby_state_560385bcc226|16|4 1300,1,4,2,3,2,1,2,4,0,2,6,0,2,437,1766,
scooby_state_560385bcc226|60|4 1232,5,1,6,2,0,2,3,1,0,0,4,2,2,502,1762,
scooby_state_560385bcc226|12|4 1252,2,7,5,2,5,1,3,4,1,3,1,3,2,468,1759,
scooby_state_560385bcc226|29|3 1333,9,6,10,7,7,3,4,3,7,4,3,2,2,358,1758,
scooby_state_560385bcc226|33|4 1298,1,1,6,3,6,4,1,2,0,1,3,4,2,417,1749,
scooby_state_560385bcc226|25|4 1288,3,2,6,3,1,2,2,3,0,4,1,3,3,422,1743,
scooby_state_560385bcc226|45|4 1261,2,3,3,7,1,1,2,1,0,4,1,0,2,438,1726,
scooby_state_560385bcc226|23|5 1225,7,6,9,7,3,4,3,5,0,6,7,3,4,424,1713,
scooby_state_560385bcc226|44|4 1256,4,3,9,0,0,2,0,2,2,1,3,1,0,430,1713,
scooby_state_560385bcc226|55|4 1243,7,1,4,3,6,2,0,2,5,0,3,2,3,424,1705,
scooby_state_560385bcc226|43|5 1223,4,2,10,6,3,6,3,2,4,5,5,5,4,420,1702,
scooby_state_560385bcc226|13|5 1216,8,6,8,5,3,2,4,3,3,1,6,4,1,429,1699,
scooby_state_560385bcc226|8|5 1211,2,4,6,9,8,7,3,5,5,7,2,6,5,417,1697,
scooby_state_560385bcc226|34|5 1231,5,2,6,12,6,2,5,3,4,2,6,4,2,394,1684,
scooby_state_560385bcc226|32|5 1225,3,4,10,4,6,3,2,2,2,3,6,4,1,404,1679,
scooby_state_560385bcc226|5|4 1192,3,5,3,3,2,1,0,2,1,0,4,1,1,456,1674,
scooby_state_560385bcc226|63|4 1147,2,6,6,5,2,5,2,1,2,2,2,2,3,487,1674,
scooby_state_560385bcc226|17|4 1231,3,5,4,2,3,2,2,3,0,0,5,1,2,409,1672,
scooby_state_560385bcc226|29|4 1227,1,2,4,1,2,1,0,2,1,4,5,2,2,418,1672,
scooby_state_560385bcc226|21|4 1227,4,2,2,4,1,1,3,2,1,1,2,1,0,421,1672,
scooby_state_560385bcc226|19|4 1214,4,4,3,0,5,3,0,0,2,2,2,4,2,425,1670,
scooby_state_560385bcc226|34|4 1226,3,5,0,5,2,3,2,4,2,1,1,3,4,406,1667,
scooby_state_560385bcc226|4|4 1173,4,4,3,4,3,3,0,1,2,1,2,2,1,457,1660,
scooby_state_560385bcc226|61|4 1180,4,3,1,4,2,7,6,3,1,1,2,1,0,443,1658,
scooby_state_560385bcc226|53|4 1174,4,3,8,3,4,4,1,1,1,0,5,1,3,444,1656,
scooby_state_560385bcc226|35|5 1175,7,7,8,3,3,4,4,1,1,2,7,2,3,425,1652,
scooby_state_560385bcc226|48|4 1202,4,3,3,2,5,2,0,1,0,0,2,2,5,420,1651,
scooby_state_560385bcc226|50|5 1174,5,7,8,3,3,1,1,3,2,4,4,3,3,430,1651,
scooby_state_560385bcc226|31|4 1236,2,1,6,0,4,4,1,2,1,0,3,2,1,387,1650,
scooby_state_560385bcc226|55|5 1188,9,4,8,6,3,3,3,2,0,3,9,3,7,401,1649,
scooby_state_560385bcc226|48|5 1152,9,3,10,5,4,4,4,6,0,5,6,3,4,432,1647,
scooby_state_560385bcc226|22|4 1230,4,5,3,4,1,3,2,5,1,3,6,0,1,375,1643,
scooby_state_560385bcc226|27|5 1202,6,6,6,2,2,5,3,2,1,4,4,3,2,394,1642,
scooby_state_560385bcc226|24|4 1207,2,2,2,2,2,1,1,1,2,2,4,2,0,411,1641,
scooby_state_560385bcc226|9|4 1165,3,2,5,1,3,0,0,5,2,2,5,2,2,443,1640,
scooby_state_560385bcc226|13|4 1203,7,2,3,4,2,2,4,1,1,0,4,2,1,399,1635,
scooby_state_560385bcc226|44|6 1145,8,7,5,6,6,5,2,3,1,3,4,4,7,424,1630,
scooby_state_560385bcc226|36|4 1173,1,2,5,3,2,1,1,5,1,1,2,4,2,427,1630,
scooby_state_560385bcc226|58|4 1151,2,2,5,0,1,2,1,6,0,0,1,1,2,447,1621,
scooby_state_560385bcc226|30|4 1171,5,8,3,0,2,2,0,1,2,1,1,3,1,418,1618,
scooby_state_560385bcc226|46|4 1151,0,1,6,2,2,2,0,2,2,1,6,2,3,436,1616,
scooby_state_560385bcc226|15|4 1207,1,5,2,6,3,4,1,0,0,0,1,3,2,381,1616,
scooby_state_560385bcc226|30|5 1166,5,6,9,3,5,3,3,3,4,3,4,0,4,393,1611,
scooby_state_560385bcc226|43|7 1147,8,7,11,13,8,7,7,5,2,0,3,6,3,383,1610,
scooby_state_560385bcc226|8|4 1162,2,6,6,3,2,1,0,1,0,3,3,0,3,418,1610,
scooby_state_560385bcc226|26|4 1144,4,5,1,2,2,3,2,2,1,2,4,2,2,415,1591,
scooby_state_560385bcc226|14|5 1156,1,3,6,4,2,6,5,1,1,2,4,3,9,380,1583,
scooby_state_560385bcc226|51|4 1164,1,2,5,2,2,0,1,5,3,0,1,2,2,393,1583,
scooby_state_560385bcc226|57|5 1073,2,6,13,3,4,1,5,5,4,5,7,1,5,435,1569,
scooby_state_560385bcc226|7|5 1097,4,3,9,5,4,7,2,5,2,5,3,3,4,414,1567,
scooby_state_560385bcc226|60|5 1117,6,7,11,9,3,2,4,3,2,5,4,2,0,390,1565,
scooby_state_560385bcc226|59|5 1081,6,8,12,6,5,4,2,6,5,2,5,6,1,399,1548,
scooby_state_560385bcc226|52|5 1081,7,7,13,7,4,2,2,3,3,3,2,5,4,401,1544,
scooby_state_560385bcc226|49|5 1092,6,8,11,9,5,4,4,5,0,5,2,2,4,383,1540,
scooby_state_560385bcc226|61|5 1063,5,6,12,6,3,5,7,3,3,3,5,4,6,409,1540,
scooby_state_560385bcc226|56|6 1055,9,8,4,5,9,3,6,2,3,1,5,6,7,416,1539,
scooby_state_560385bcc226|32|4 1158,3,4,4,3,1,2,1,4,1,1,2,0,0,352,1536,
scooby_state_560385bcc226|22|5 1103,6,5,11,4,4,4,5,4,0,1,3,4,3,377,1534,
scooby_state_560385bcc226|53|5 1087,7,6,6,9,5,4,0,3,5,4,3,4,4,382,1529,
scooby_state_560385bcc226|16|5 1094,4,8,7,6,8,3,1,1,2,5,2,3,6,377,1527,
scooby_state_560385bcc226|19|5 1099,1,7,8,7,2,1,4,1,2,6,5,4,5,371,1523,
scooby_state_560385bcc226|6|4 1110,1,5,5,5,2,0,1,3,0,1,2,2,4,367,1508,
scooby_state_560385bcc226|42|5 1072,7,3,12,6,3,3,4,5,4,5,1,4,8,371,1508,
scooby_state_560385bcc226|35|4 1124,1,1,5,1,2,3,0,1,3,1,1,2,0,359,1504,
scooby_state_560385bcc226|29|5 1090,8,3,6,2,2,3,3,1,0,3,5,4,4,353,1487,
scooby_state_560385bcc226|55|7 1045,10,11,8,4,3,8,6,8,3,2,8,4,9,357,1486,
scooby_state_560385bcc226|25|5 1076,2,6,11,4,4,4,1,4,2,3,3,2,1,363,1486,
scooby_state_560385bcc226|12|5 1063,9,1,7,5,3,1,2,2,4,6,4,3,3,369,1482,
scooby_state_560385bcc226|24|5 1095,3,0,13,5,0,1,3,3,3,3,5,2,2,340,1478,
scooby_state_560385bcc226|18|5 1059,4,5,8,11,2,4,7,4,3,4,3,2,4,358,1478,
scooby_state_560385bcc226|39|5 1066,7,6,12,2,3,2,4,4,2,2,6,2,1,359,1478,
scooby_state_560385bcc226|21|5 1086,4,6,9,2,3,2,4,3,3,4,4,3,2,342,1477,
scooby_state_560385bcc226|62|4 1025,3,3,4,2,5,2,2,0,2,3,3,1,0,419,1474,
scooby_state_560385bcc226|45|5 1051,5,4,11,5,1,4,3,2,1,0,3,1,3,374,1468,
scooby_state_560385bcc226|37|5 1024,8,2,12,8,1,6,4,5,2,4,6,2,9,371,1464,
scooby_state_560385bcc226|17|5 1030,5,9,6,8,3,6,4,2,2,1,4,3,2,371,1456,
scooby_state_560385bcc226|54|5 1014,3,6,11,6,2,2,7,9,3,5,6,1,3,376,1454,
scooby_state_560385bcc226|49|6 984,4,7,4,2,12,4,7,4,5,4,9,2,5,399,1452,
scooby_state_560385bcc226|50|6 1032,4,6,5,7,5,4,9,6,1,5,8,1,3,355,1451,
scooby_state_560385bcc226|10|5 1068,6,3,9,8,3,2,3,4,4,6,6,3,2,323,1450,
scooby_state_560385bcc226|38|5 1027,3,3,7,7,4,2,1,5,3,5,5,1,6,371,1450,
scooby_state_560385bcc226|41|5 1033,12,4,8,6,6,4,1,4,0,3,2,5,5,356,1449,
scooby_state_560385bcc226|26|5 1045,5,10,11,2,1,1,5,2,1,1,6,4,0,344,1438,
scooby_state_560385bcc226|5|5 1001,1,6,10,4,2,4,2,2,3,2,2,5,4,362,1410,
scooby_state_560385bcc226|16|6 1002,5,4,3,4,9,2,3,7,1,3,3,4,3,353,1406,
scooby_state_560385bcc226|20|5 1035,4,4,5,6,7,4,4,1,2,1,4,5,6,317,1405,
scooby_state_560385bcc226|52|7 954,10,5,7,6,10,4,5,6,6,5,7,8,9,361,1403,
scooby_state_560385bcc226|28|5 1022,5,3,5,1,1,6,4,1,1,2,0,2,3,347,1403,
scooby_state_560385bcc226|36|6 1004,2,3,11,7,3,3,3,3,2,1,4,5,2,346,1399,
scooby_state_560385bcc226|47|5 976,5,5,10,2,4,4,3,4,3,3,7,7,3,359,1395,
scooby_state_560385bcc226|56|5 994,3,3,6,4,2,2,4,5,6,4,3,4,4,347,1391,
scooby_state_560385bcc226|14|6 989,9,5,7,1,5,1,3,2,4,4,3,7,1,348,1389,
scooby_state_560385bcc226|58|5 1000,6,2,13,3,3,4,2,4,4,2,6,8,1,326,1384,
scooby_state_560385bcc226|48|6 970,6,10,3,7,10,6,7,5,4,2,5,8,5,334,1382,
scooby_state_560385bcc226|36|5 980,9,9,11,5,5,4,0,1,2,0,5,1,9,336,1377,
scooby_state_560385bcc226|33|5 1025,1,4,10,3,2,6,0,2,2,1,2,5,2,311,1376,
scooby_state_560385bcc226|17|6 988,5,9,8,3,3,6,4,6,3,3,5,1,1,329,1374,
scooby_state_560385bcc226|19|6 966,5,10,7,6,8,4,3,2,3,4,2,2,5,346,1373,
scooby_state_560385bcc226|44|5 1001,7,5,7,4,2,4,1,4,4,0,10,7,2,315,1373,
scooby_state_560385bcc226|23|6 998,8,5,3,8,3,2,1,1,3,3,2,2,3,329,1371,
scooby_state_560385bcc226|46|5 996,7,5,4,5,5,1,4,4,0,2,3,1,2,325,1364,
scooby_state_560385bcc226|15|5 998,3,8,6,9,3,3,6,2,2,2,4,1,3,312,1362,
scooby_state_560385bcc226|60|6 941,5,11,5,4,6,6,3,5,6,3,3,4,3,353,1358,
scooby_state_560385bcc226|63|5 962,5,4,13,8,3,3,3,8,3,7,4,4,5,326,1358,
scooby_state_560385bcc226|54|6 947,10,5,5,3,4,6,2,4,2,4,7,5,2,350,1356,
scooby_state_560385bcc226|7|7 947,9,8,12,7,4,3,4,4,5,5,2,2,4,334,1350,
scooby_state_560385bcc226|40|6 956,3,8,10,4,7,3,3,4,4,3,8,3,5,325,1346,
scooby_state_560385bcc226|9|6 959,6,4,6,4,3,3,3,2,2,5,3,4,6,335,1345,
scooby_state_560385bcc226|34|6 959,8,6,1,5,5,3,4,7,7,1,2,3,2,331,1344,
scooby_state_560385bcc226|9|5 944,6,2,6,4,2,2,4,2,3,4,0,7,2,354,1342,
scooby_state_560385bcc226|30|7 948,5,6,8,9,7,6,5,5,4,2,5,3,3,326,1342,
scooby_state_560385bcc226|53|6 940,7,5,8,6,5,2,1,1,1,2,3,4,2,353,1340,
scooby_state_560385bcc226|63|6 911,8,4,4,5,8,2,5,5,3,4,8,4,2,362,1335,
scooby_state_560385bcc226|6|5 972,1,4,10,8,3,2,3,2,2,1,5,4,3,315,1335,
scooby_state_560385bcc226|43|6 939,6,9,6,4,6,3,1,5,1,2,2,6,7,337,1334,
scooby_state_560385bcc226|33|6 969,7,10,3,1,11,2,4,1,3,4,0,8,3,305,1331,
scooby_state_560385bcc226|24|6 935,2,12,4,1,10,1,2,0,4,0,8,3,7,340,1329,
scooby_state_560385bcc226|62|5 916,2,7,11,6,3,2,3,4,4,3,4,1,5,350,1321,
scooby_state_560385bcc226|47|6 921,7,10,7,9,8,4,4,3,4,6,8,3,2,319,1315,
scooby_state_560385bcc226|38|6 958,8,8,8,3,5,4,3,4,2,7,0,5,3,297,1315,
scooby_state_560385bcc226|39|6 883,5,7,7,3,4,1,2,4,2,3,5,2,5,379,1312,
scooby_state_560385bcc226|13|6 940,9,5,3,5,1,5,1,4,3,4,7,6,3,313,1309,
scooby_state_560385bcc226|31|5 934,12,4,7,1,5,3,6,4,3,3,6,2,2,316,1308,
scooby_state_560385bcc226|40|5 914,3,5,7,3,4,3,2,3,3,0,5,5,4,344,1305,
scooby_state_560385bcc226|63|8 904,4,6,10,7,8,6,2,11,1,2,8,4,2,328,1303,
scooby_state_560385bcc226|8|6 911,6,4,6,4,7,5,3,0,0,4,4,4,5,338,1301,
scooby_state_560385bcc226|52|6 909,11,6,6,3,6,7,6,1,3,2,3,2,7,325,1297,
scooby_state_560385bcc226|18|6 929,5,10,3,8,2,4,1,0,1,1,3,5,2,323,1297,
scooby_state_560385bcc226|61|6 890,4,4,3,6,4,6,4,3,2,4,2,5,6,351,1294,
scooby_state_560385bcc226|12|7 897,13,2,9,7,4,4,2,5,3,2,3,2,11,330,1294,
scooby_state_560385bcc226|56|7 865,4,4,13,6,5,8,6,3,5,3,5,9,7,342,1285,
scooby_state_560385bcc226|48|7 899,8,6,6,7,1,3,5,2,1,3,3,3,7,330,1284,
scooby_state_560385bcc226|7|6 915,13,6,4,5,6,3,2,7,3,2,3,4,1,310,1284,
scooby_state_560385bcc226|51|5 871,7,1,6,8,3,5,3,2,1,3,6,3,1,364,1284,
scooby_state_560385bcc226|50|7 894,6,5,8,6,3,2,4,3,1,3,6,6,7,328,1282,
scooby_state_560385bcc226|15|6 905,8,3,7,4,3,2,1,2,3,1,2,4,3,327,1275,
scooby_state_560385bcc226|29|6 913,4,6,6,4,8,3,3,4,3,0,3,7,2,307,1273,
scooby_state_560385bcc226|27|6 907,2,12,7,6,3,2,4,2,1,4,3,4,3,312,1272,
scooby_state_560385bcc226|62|7 890,7,8,6,5,6,4,4,6,2,6,9,2,6,306,1267,
scooby_state_560385bcc226|22|6 901,9,7,5,1,6,3,2,4,2,0,1,4,6,314,1265,
scooby_state_560385bcc226|51|6 888,4,8,6,2,2,3,2,1,3,2,4,2,2,334,1263,
scooby_state_560385bcc226|12|6 894,11,7,4,4,4,2,6,5,2,2,2,5,0,315,1263,
scooby_state_560385bcc226|55|6 877,8,3,5,5,5,3,3,2,2,4,4,4,4,325,1254,
scooby_state_560385bcc226|37|6 917,12,7,6,5,5,5,2,3,2,3,1,2,2,282,1254,
scooby_state_560385bcc226|45|6 888,5,2,5,2,5,4,2,0,2,3,5,4,6,319,1252,
scooby_state_560385bcc226|30|6 891,8,3,5,5,7,1,2,1,2,4,2,1,1,318,1251,
scooby_state_560385bcc226|28|6 908,4,5,4,5,8,4,1,0,3,2,4,3,5,288,1244,
scooby_state_560385bcc226|42|6 881,10,2,3,6,5,5,0,4,2,5,7,3,2,308,1243,
scooby_state_560385bcc226|11|5 886,8,2,11,6,10,3,1,2,1,3,2,3,3,300,1241,
scooby_state_560385bcc226|34|7 914,6,3,9,1,1,2,6,3,3,2,5,2,6,276,1239,
scooby_state_560385bcc226|46|6 869,5,10,4,6,5,1,1,1,5,4,3,2,2,312,1230,
scooby_state_560385bcc226|20|7 860,7,10,6,11,8,3,6,5,4,6,4,2,4,288,1224,
scooby_state_560385bcc226|35|6 886,5,2,6,7,6,2,2,0,2,2,5,3,5,283,1216,
scooby_state_560385bcc226|58|6 839,8,6,5,2,5,6,3,4,0,2,3,4,3,324,1214,
scooby_state_560385bcc226|25|6 838,5,6,3,7,3,3,3,3,6,4,3,2,4,323,1213,
scooby_state_560385bcc226|63|7 808,6,3,7,4,7,3,7,0,6,4,7,6,8,332,1208,
scooby_state_560385bcc226|23|7 867,4,6,8,9,4,3,1,3,5,1,10,1,4,282,1208,
scooby_state_560385bcc226|20|6 868,5,6,5,3,5,3,2,5,5,5,7,3,2,283,1207,
scooby_state_560385bcc226|31|6 847,4,1,10,1,4,4,1,2,2,2,2,4,5,316,1205,
scooby_state_560385bcc226|27|7 858,5,6,9,6,7,2,6,5,2,5,5,7,7,272,1202,
scooby_state_560385bcc226|24|7 854,6,5,15,7,5,3,1,3,4,4,5,4,5,279,1200,
scooby_state_560385bcc226|62|6 872,10,6,4,1,5,1,3,4,2,1,4,1,2,283,1199,
scooby_state_560385bcc226|6|6 833,5,5,8,7,4,2,2,5,1,2,5,2,6,307,1194,
scooby_state_560385bcc226|17|7 837,5,5,15,7,6,1,2,0,1,1,6,4,6,293,1189,
scooby_state_560385bcc226|26|6 826,5,7,4,3,5,6,6,3,2,3,3,1,6,307,1187,
scooby_state_560385bcc226|32|6 840,10,10,3,1,1,1,5,1,3,3,2,5,4,297,1186,
scooby_state_560385bcc226|49|7 838,4,6,13,6,7,2,4,5,1,4,8,3,3,281,1185,
scooby_state_560385bcc226|37|7 838,3,8,11,9,5,5,4,6,3,2,7,5,5,265,1176,
scooby_state_560385bcc226|57|7 782,15,6,7,6,7,8,6,8,7,5,6,7,3,302,1175,
scooby_state_560385bcc226|36|7 826,7,6,5,12,3,5,4,2,5,4,7,5,5,272,1168,
scooby_state_560385bcc226|9|7 819,7,10,6,6,4,4,3,3,5,5,4,4,8,276,1164,
scooby_state_560385bcc226|13|7 823,3,9,11,5,4,2,3,0,5,3,0,9,9,271,1157,
scooby_state_560385bcc226|59|6 835,7,4,6,6,4,2,1,3,4,0,6,6,2,270,1156,
scooby_state_560385bcc226|15|7 827,7,6,7,8,3,6,1,5,2,5,4,9,8,254,1152,
scooby_state_560385bcc226|52|9 796,5,9,9,7,2,9,8,5,6,5,0,7,5,271,1144,
scooby_state_560385bcc226|41|6 815,0,6,6,3,8,3,3,3,5,2,4,5,1,276,1140,
scooby_state_560385bcc226|59|7 773,8,5,3,9,11,7,6,5,2,2,7,8,6,284,1136,
scooby_state_560385bcc226|57|6 782,8,8,10,3,4,3,4,0,2,2,6,5,6,292,1135,
scooby_state_560385bcc226|53|7 802,8,5,6,7,7,3,4,11,4,6,6,8,4,252,1133,
scooby_state_560385bcc226|21|7 789,10,5,10,6,2,4,4,4,6,4,2,1,7,278,1132,
scooby_state_560385bcc226|10|6 809,8,5,4,4,1,0,3,3,1,4,7,1,2,279,1131,
scooby_state_560385bcc226|42|7 797,8,7,14,6,4,3,3,7,3,1,5,6,3,259,1126,
scooby_state_560385bcc226|11|6 801,4,1,1,3,7,1,2,1,6,3,8,3,3,282,1126,
scooby_state_560385bcc226|60|7 771,8,7,13,5,5,5,2,5,6,6,0,0,5,284,1122,
scooby_state_560385bcc226|47|7 772,8,3,6,4,7,4,9,2,1,6,4,6,7,279,1118,
scooby_state_560385bcc226|21|6 792,4,2,6,3,4,5,3,1,1,1,4,3,0,285,1114,
scooby_state_560385bcc226|61|7 757,11,7,5,5,5,3,1,5,3,5,6,2,10,289,1114,
scooby_state_560385bcc226|44|7 784,4,5,15,6,5,3,1,2,1,4,1,0,7,275,1113,
scooby_state_560385bcc226|22|7 794,8,4,6,5,6,5,3,2,2,2,5,1,9,258,1110,
scooby_state_560385bcc226|50|8 815,8,4,5,3,7,2,1,5,2,3,4,5,2,242,1108,
scooby_state_560385bcc226|11|8 750,6,6,5,4,4,5,4,2,3,7,5,5,2,298,1106,
scooby_state_560385bcc226|48|8 767,3,8,5,7,4,4,4,3,3,7,4,7,5,270,1101,
scooby_state_560385bcc226|33|8 758,11,11,2,5,3,7,1,6,8,1,7,2,6,268,1096,
scooby_state_560385bcc226|60|8 762,2,7,4,9,6,7,7,2,3,1,4,8,7,264,1093,
scooby_state_560385bcc226|14|7 752,8,2,7,4,5,5,4,7,0,0,9,3,1,285,1092,
scooby_state_560385bcc226|10|7 774,5,9,5,11,3,4,3,5,2,3,3,6,4,255,1092,
scooby_state_560385bcc226|45|7 759,6,4,10,6,5,4,5,4,1,3,2,4,5,273,1091,
scooby_state_560385bcc226|16|7 747,6,3,6,10,5,6,2,6,5,3,5,5,3,276,1088,
scooby_state_560385bcc226|12|8 762,6,5,9,7,8,5,3,3,2,2,5,5,4,262,1088,
scooby_state_560385bcc226|51|7 761,11,5,7,5,6,5,5,1,4,3,4,2,4,265,1088,
scooby_state_560385bcc226|18|8 746,8,6,12,3,2,4,3,5,4,8,5,6,5,267,1084,
scooby_state_560385bcc226|25|7 740,4,8,4,5,7,2,1,1,7,3,4,5,13,279,1083,
scooby_state_560385bcc226|41|7 757,8,5,10,8,2,3,3,2,4,3,1,9,4,257,1076,
scooby_state_560385bcc226|54|7 756,10,11,10,7,3,3,1,5,5,3,5,6,3,247,1075,
scooby_state_560385bcc226|40|7 759,11,8,9,3,2,3,1,2,3,2,2,5,6,259,1075,
scooby_state_560385bcc226|51|8 753,4,8,3,4,3,3,1,5,5,5,1,3,5,269,1072,
scooby_state_560385bcc226|9|8 756,1,7,6,7,5,3,2,4,3,4,6,5,3,258,1070,
scooby_state_560385bcc226|46|7 737,8,7,7,7,4,5,5,7,4,1,4,7,3,260,1066,
scooby_state_560385bcc226|19|7 754,4,5,6,6,5,5,3,2,2,2,2,2,9,256,1063,
scooby_state_560385bcc226|43|9 746,11,5,4,6,1,3,3,2,2,2,3,6,5,261,1060,
scooby_state_560385bcc226|11|7 729,3,9,7,8,6,7,3,4,4,4,5,3,4,264,1060,
scooby_state_560385bcc226|28|7 747,5,10,6,11,6,3,4,2,3,3,2,7,4,245,1058,
scooby_state_560385bcc226|45|8 753,9,3,5,5,1,3,4,4,1,3,7,6,5,249,1058,
scooby_state_560385bcc226|15|8 760,7,5,1,2,6,4,3,4,2,4,5,3,3,248,1057,
scooby_state_560385bcc226|21|8 769,4,10,6,7,4,2,5,4,9,1,7,4,4,220,1056,
scooby_state_560385bcc226|38|8 730,4,8,2,1,4,6,1,2,5,3,5,4,6,271,1052,
scooby_state_560385bcc226|53|8 749,4,7,9,5,2,4,1,6,2,0,6,2,7,246,1050,
scooby_state_560385bcc226|38|7 725,3,4,8,6,3,3,7,8,2,1,3,3,4,263,1043,
scooby_state_560385bcc226|31|8 733,6,6,4,3,5,3,11,3,4,2,3,4,1,254,1042,
scooby_state_560385bcc226|42|8 716,8,13,6,7,4,6,4,2,4,5,8,4,1,251,1039,
scooby_state_560385bcc226|31|7 720,3,4,14,3,6,4,3,4,3,2,3,5,5,253,1032,
scooby_state_560385bcc226|26|7 712,5,6,5,3,7,0,1,2,2,1,4,7,2,270,1027,
scooby_state_560385bcc226|34|9 706,7,2,2,5,2,6,5,4,4,5,3,5,4,264,1024,
scooby_state_560385bcc226|35|8 730,4,8,3,2,1,3,1,4,1,1,4,7,8,244,1021,
scooby_state_560385bcc226|24|8 717,3,3,6,7,6,4,4,2,3,4,8,2,3,245,1017,
scooby_state_560385bcc226|47|8 690,2,9,7,3,5,3,3,5,2,2,0,4,5,276,1016,
scooby_state_560385bcc226|39|7 712,10,10,6,8,5,6,3,4,3,2,4,3,5,234,1015,
scooby_state_560385bcc226|23|9 696,5,5,6,2,7,5,5,2,5,3,5,6,2,260,1014,
scooby_state_560385bcc226|33|7 706,6,10,4,4,6,6,2,5,4,4,4,4,1,243,1009,
scooby_state_560385bcc226|44|8 690,9,3,5,8,9,4,5,5,1,3,4,2,2,258,1008,
scooby_state_560385bcc226|58|7 686,5,7,10,6,3,5,2,5,4,2,7,2,6,256,1006,
scooby_state_560385bcc226|18|7 695,6,6,8,7,2,1,3,7,3,3,6,6,8,244,1005,
scooby_state_560385bcc226|29|8 715,1,9,12,4,6,4,5,3,4,5,2,2,4,227,1003,
scooby_state_560385bcc226|43|10 707,1,5,6,6,5,7,2,4,5,1,2,1,5,246,1003,
scooby_state_560385bcc226|43|8 701,8,10,1,3,1,7,0,1,2,3,1,9,6,249,1002,
scooby_state_560385bcc226|10|8 702,5,6,6,2,6,5,5,5,3,4,6,9,2,234,1000,
scooby_state_560385bcc226|8|7 691,6,4,9,7,5,7,7,5,3,3,4,7,8,234,1000,
scooby_state_560385bcc226|32|7 697,5,6,10,7,7,3,1,7,3,4,1,2,5,241,999,
scooby_state_560385bcc226|35|7 696,5,4,5,3,2,2,3,2,1,4,1,3,6,260,997,
scooby_state_560385bcc226|32|8 709,7,5,4,4,8,1,1,3,2,3,2,3,6,238,996,
scooby_state_560385bcc226|49|8 705,4,6,2,8,4,5,1,4,3,3,2,4,4,240,995,
scooby_state_560385bcc226|62|8 666,7,7,9,5,6,5,2,4,4,3,2,4,6,260,990,
scooby_state_560385bcc226|36|9 683,7,2,7,7,1,2,1,3,4,3,4,1,10,254,989,
scooby_state_560385bcc226|29|7 713,5,5,8,4,7,4,3,5,1,3,2,3,6,220,989,
scooby_state_560385bcc226|13|8 690,9,7,3,8,4,3,5,3,3,3,5,4,6,233,986,
scooby_state_560385bcc226|8|8 676,3,4,9,7,6,2,2,1,7,3,8,3,2,253,986,
scooby_state_560385bcc226|19|8 694,5,4,10,5,3,3,1,4,3,3,6,3,3,238,985,
scooby_state_560385bcc226|52|8 675,3,12,7,4,7,6,3,1,7,0,3,5,4,245,982,
scooby_state_560385bcc226|59|8 688,12,7,9,2,1,5,1,4,3,4,3,3,2,235,979,
scooby_state_560385bcc226|10|9 661,6,10,5,1,4,4,5,2,3,6,2,2,9,259,979,
scooby_state_560385bcc226|9|9 701,5,6,4,3,1,2,5,2,3,2,3,1,1,239,978,
scooby_state_560385bcc226|37|10 651,6,10,2,5,5,4,2,3,3,3,12,2,1,266,975,
scooby_state_560385bcc226|60|9 633,13,5,4,4,5,4,6,2,4,4,2,10,7,272,975,
scooby_state_560385bcc226|56|8 684,4,5,6,8,7,2,3,2,5,5,4,4,3,230,972,
scooby_state_560385bcc226|53|10 654,8,5,2,6,3,3,4,5,3,4,5,5,6,258,971,
scooby_state_560385bcc226|46|8 683,2,8,4,1,3,6,5,2,5,4,6,5,6,228,968,
scooby_state_560385bcc226|16|8 654,2,4,8,6,6,4,6,4,3,6,2,1,1,260,967,
scooby_state_560385bcc226|27|8 685,4,6,7,3,3,5,4,5,3,2,1,8,2,227,965,
scooby_state_560385bcc226|36|8 668,4,5,11,2,3,4,5,2,2,3,1,2,1,251,964,
scooby_state_560385bcc226|61|9 655,5,4,8,5,2,4,4,2,4,1,3,5,4,258,964,
scooby_state_560385bcc226|41|8 684,6,4,2,3,12,0,4,7,2,5,4,1,8,221,963,
scooby_state_560385bcc226|48|9 656,6,5,8,2,9,7,2,2,6,5,3,7,4,240,962,
scooby_state_560385bcc226|59|9 663,1,5,4,8,2,6,8,4,5,2,1,0,3,248,960,
scooby_state_560385bcc226|26|8 653,10,4,4,7,5,6,3,3,3,2,0,5,3,250,958,
scooby_state_560385bcc226|27|9 658,8,3,6,1,5,4,3,2,4,3,3,4,6,244,954,
scooby_state_560385bcc226|63|9 667,4,4,6,4,6,6,4,1,5,5,5,3,2,230,952,
scooby_state_560385bcc226|30|8 658,5,6,3,3,8,3,8,1,4,6,1,4,6,234,950,
scooby_state_560385bcc226|37|8 652,7,9,6,6,3,5,3,1,5,0,2,2,5,242,948,
scooby_state_560385bcc226|23|10 658,10,3,2,4,1,5,2,1,8,1,8,4,4,235,946,
scooby_state_560385bcc226|12|9 645,9,5,7,4,8,3,1,2,3,5,2,4,7,235,940,
scooby_state_560385bcc226|49|9 657,6,9,6,4,5,3,1,7,4,4,3,2,7,222,940,
scooby_state_560385bcc226|38|9 663,5,10,6,6,2,4,4,4,0,3,4,6,2,217,936,
scooby_state_560385bcc226|16|9 663,2,3,3,13,4,6,0,8,4,2,3,1,3,220,935,
scooby_state_560385bcc226|20|9 634,5,4,3,5,0,5,4,4,3,4,5,3,8,248,935,
scooby_state_560385bcc226|25|9 670,6,6,4,4,5,3,4,1,5,4,5,2,7,208,934,
scooby_state_560385bcc226|48|11 650,15,7,5,4,3,1,3,4,2,0,0,2,4,230,930,
scooby_state_560385bcc226|34|10 651,12,4,5,2,3,2,2,3,3,3,4,0,2,233,929,
scooby_state_560385bcc226|22|8 665,6,6,4,2,2,2,6,1,5,1,6,2,5,215,928,
scooby_state_560385bcc226|33|10 627,5,5,3,1,7,4,6,2,4,3,6,1,2,252,928,
scooby_state_560385bcc226|34|8 670,3,7,3,3,7,2,4,8,3,0,7,3,2,204,926,
scooby_state_560385bcc226|50|9 631,7,8,6,3,2,4,4,5,2,1,3,3,4,242,925,
scooby_state_560385bcc226|55|8 630,6,6,2,7,4,4,8,3,3,3,4,1,5,238,924,
scooby_state_560385bcc226|58|8 607,7,8,6,1,9,5,5,6,4,3,3,5,3,248,920,
scooby_state_560385bcc226|61|8 624,6,3,5,3,6,7,4,2,4,1,7,2,0,243,917,
scooby_state_560385bcc226|23|8 661,2,7,4,3,2,5,3,1,4,2,4,5,3,208,914,
scooby_state_560385bcc226|41|9 637,7,5,3,4,7,4,5,3,6,0,2,5,2,224,914,
scooby_state_560385bcc226|20|8 621,2,7,4,5,4,1,2,11,2,5,5,4,8,232,913,
scooby_state_560385bcc226|24|10 649,4,2,5,4,2,8,4,0,3,2,7,4,4,214,912,
scooby_state_560385bcc226|38|11 637,11,9,4,5,7,3,6,4,3,2,1,7,3,209,911,
scooby_state_560385bcc226|39|9 648,2,6,5,6,4,5,2,7,4,4,1,6,5,206,911,
scooby_state_560385bcc226|62|9 617,7,1,2,9,7,10,4,1,3,4,2,4,7,231,909,
scooby_state_560385bcc226|29|9 632,10,4,3,7,4,3,3,3,2,4,2,3,6,222,908,
scooby_state_560385bcc226|18|9 638,7,6,7,3,7,1,8,0,2,4,5,5,5,210,908,
scooby_state_560385bcc226|57|9 638,9,4,3,3,4,3,2,7,0,2,4,2,6,219,906,
scooby_state_560385bcc226|63|10 616,5,5,5,2,3,6,6,3,2,0,11,1,3,232,900,
scooby_state_560385bcc226|17|9 619,4,6,7,6,5,5,3,3,4,4,1,5,9,218,899,
scooby_state_560385bcc226|23|11 609,12,3,3,7,2,8,1,1,2,2,0,1,3,244,898,
scooby_state_560385bcc226|42|9 611,6,6,3,6,2,6,4,6,2,1,3,6,3,229,894,
scooby_state_560385bcc226|47|10 620,6,6,4,2,4,5,3,3,1,1,6,4,3,224,892,
scooby_state_560385bcc226|25|8 605,5,7,4,5,3,3,1,3,6,4,8,6,4,228,892,
scooby_state_560385bcc226|54|9 617,5,7,3,5,7,7,3,1,8,1,3,3,5,216,891,
scooby_state_560385bcc226|33|9 628,4,5,4,2,2,8,4,3,4,2,2,3,6,213,890,
scooby_state_560385bcc226|57|8 610,2,6,9,3,3,5,7,0,0,3,6,3,3,230,890,
scooby_state_560385bcc226|13|9 634,5,7,4,6,4,6,2,2,4,2,3,1,3,206,889,
scooby_state_560385bcc226|54|8 613,4,5,2,7,5,9,5,4,2,4,2,5,4,216,887,
scooby_state_560385bcc226|26|9 598,3,1,3,3,1,5,5,3,3,6,5,5,7,233,881,
scooby_state_560385bcc226|59|10 624,5,3,6,4,5,1,3,2,2,5,6,0,5,210,881,
scooby_state_560385bcc226|56|9 607,3,7,4,5,3,4,2,3,3,3,6,5,5,221,881,
scooby_state_560385bcc226|53|9 604,3,5,4,3,3,4,4,3,5,4,4,3,5,224,878,
scooby_state_560385bcc226|44|9 611,3,4,6,5,3,7,5,8,3,2,3,2,4,208,874,
scooby_state_560385bcc226|45|9 591,5,5,8,5,6,8,3,4,0,3,3,6,2,223,872,
scooby_state_560385bcc226|37|9 595,4,5,8,2,3,4,4,2,2,4,4,4,3,228,872,
scooby_state_560385bcc226|40|8 626,3,2,4,6,5,2,2,2,0,1,3,4,5,206,871,
scooby_state_560385bcc226|47|9 604,6,8,0,1,7,6,5,3,4,4,4,4,8,207,871,
scooby_state_560385bcc226|17|10 607,8,1,3,2,1,1,3,2,3,2,10,4,3,221,871,
scooby_state_560385bcc226|22|9 613,3,5,5,6,3,1,6,6,2,3,1,5,3,207,869,
scooby_state_560385bcc226|19|9 630,7,2,4,5,4,5,4,1,3,6,2,4,2,189,868,
scooby_state_560385bcc226|39|8 624,2,7,4,2,4,3,1,1,0,2,3,3,3,208,867,
scooby_state_560385bcc226|11|9 606,6,4,2,5,6,3,5,2,6,3,2,4,1,212,867,
scooby_state_560385bcc226|55|10 619,5,6,2,4,1,1,3,3,1,1,7,1,4,207,865,
scooby_state_560385bcc226|14|8 612,8,3,6,4,5,1,0,3,2,0,1,2,4,213,864,
scooby_state_560385bcc226|14|9 586,6,7,10,6,6,5,4,5,1,3,1,2,3,216,861,
scooby_state_560385bcc226|54|10 616,10,5,3,3,2,7,2,1,1,3,9,3,1,193,859,
scooby_state_560385bcc226|14|11 605,7,3,3,3,3,2,1,3,2,2,0,4,2,218,858,
scooby_state_560385bcc226|60|10 605,6,2,5,1,4,3,4,3,1,5,6,1,4,207,857,
scooby_state_560385bcc226|50|10 592,4,5,1,4,8,2,7,3,3,2,8,1,2,207,849,
scooby_state_560385bcc226|28|9 567,4,5,4,1,4,4,3,3,7,5,4,4,2,231,848,
scooby_state_560385bcc226|63|11 581,7,6,5,2,3,4,1,4,5,2,0,7,6,210,843,
scooby_state_560385bcc226|48|10 595,8,7,1,0,4,1,0,3,0,2,6,0,4,212,843,
scooby_state_560385bcc226|46|9 576,5,6,7,2,7,3,4,2,6,5,3,3,2,211,842,
scooby_state_560385bcc226|24|9 581,7,7,7,5,3,8,2,5,3,5,2,3,1,197,836,
scooby_state_560385bcc226|20|10 567,9,3,6,2,3,4,7,3,3,1,4,2,2,220,836,
scooby_state_560385bcc226|55|11 545,7,6,8,2,5,3,5,1,6,2,1,1,5,239,836,
scooby_state_560385bcc226|19|11 589,3,2,1,3,4,2,2,5,6,1,2,3,2,210,835,
scooby_state_560385bcc226|32|9 581,7,7,6,4,8,5,4,3,2,2,6,7,2,188,832,
scooby_state_560385bcc226|10|10 577,3,3,2,2,3,1,3,1,2,1,10,5,5,214,832,
scooby_state_560385bcc226|51|9 592,7,5,3,7,1,10,1,3,2,0,1,7,3,188,830,
scooby_state_560385bcc226|18|11 593,7,4,5,2,0,5,0,4,2,2,0,1,3,202,830,
scooby_state_560385bcc226|28|8 568,5,2,4,9,9,1,2,6,2,2,3,1,2,212,828,
scooby_state_560385bcc226|50|11 545,11,5,2,5,3,3,4,6,3,2,2,3,7,227,828,
scooby_state_560385bcc226|30|9 583,3,5,2,4,5,5,1,3,1,4,2,5,7,194,824,
scooby_state_560385bcc226|57|10 568,5,1,5,7,4,5,5,1,0,1,13,4,2,202,823,
scooby_state_560385bcc226|49|10 549,2,5,5,3,4,3,7,1,2,4,9,2,6,219,821,
scooby_state_560385bcc226|35|9 588,7,2,3,2,2,4,2,2,1,4,1,1,6,196,821,
scooby_state_560385bcc226|11|11 552,4,9,6,7,4,1,2,5,4,3,1,4,5,211,818,
scooby_state_560385bcc226|21|9 566,7,5,2,2,8,5,4,4,2,3,2,2,4,198,814,
scooby_state_560385bcc226|14|10 595,5,2,2,0,2,4,2,1,3,2,9,1,2,184,814,
scooby_state_560385bcc226|13|11 552,6,8,0,4,5,2,5,7,3,3,1,2,4,212,814,
scooby_state_560385bcc226|62|10 562,6,0,3,3,8,2,2,6,1,1,4,5,2,208,813,
scooby_state_560385bcc226|13|10 551,2,3,1,3,3,4,4,3,4,1,7,3,3,220,812,
scooby_state_560385bcc226|17|8 569,4,6,4,3,1,3,3,2,5,3,7,4,1,196,811,
scooby_state_560385bcc1e3|22|0 312,32,30,32,31,32,32,31,32,31,34,14,32,29,106,810,
scooby_state_560385bcc226|30|10 588,8,4,4,2,2,3,2,3,2,5,10,0,0,176,809,
scooby_state_560385bcc226|31|9 549,3,3,1,5,1,4,0,4,4,3,3,3,4,222,809,
scooby_state_560385bcc226|15|9 557,7,7,6,6,5,5,5,2,4,0,1,5,3,195,808,
scooby_state_560385bcc226|19|10 548,8,4,5,1,3,0,3,3,0,3,7,6,4,212,807,
scooby_state_560385bcc226|35|11 584,6,2,3,3,7,0,1,3,2,3,1,3,3,185,806,
scooby_state_560385bcc226|22|10 567,6,7,2,2,3,3,1,2,2,2,5,7,6,191,806,
scooby_state_560385bcc226|52|10 565,11,2,1,5,3,4,2,2,3,4,4,5,0,193,804,
scooby_state_560385bcc226|44|10 578,1,3,6,2,3,1,0,2,5,2,3,2,3,193,804,
scooby_state_560385bcc226|55|9 546,6,5,3,5,5,2,2,2,4,3,5,2,2,211,803,
scooby_state_560385bcc226|18|10 541,5,2,0,6,3,3,2,1,2,2,6,2,4,222,801,
scooby_state_560385bcc226|45|11 545,10,7,5,6,6,4,4,2,6,2,1,4,5,191,798,
scooby_state_560385bcc226|49|11 545,6,6,6,2,8,5,3,2,2,4,1,0,4,204,798,
scooby_state_560385bcc226|46|10 553,7,4,6,3,4,0,4,2,2,3,6,3,4,194,795,
scooby_state_560385bcc226|52|11 552,9,9,3,2,3,4,2,1,6,4,0,4,4,191,794,
scooby_state_560385bcc226|38|10 539,10,8,3,5,3,1,1,1,1,1,9,3,2,207,794,
scooby_state_560385bcc226|35|10 542,6,2,5,5,2,4,3,2,4,3,7,2,6,194,787,
scooby_state_560385bcc226|12|10 558,2,5,3,7,2,6,1,3,1,1,5,5,1,186,786,
scooby_state_560385bcc226|38|15 545,4,8,3,7,6,2,4,3,2,3,8,5,10,175,785,
scooby_state_560385bcc226|11|10 528,5,3,1,1,6,1,1,1,6,0,5,3,4,219,784,
scooby_state_560385bcc226|41|10 559,5,6,6,4,5,1,3,1,0,0,4,1,6,180,781,
scooby_state_560385bcc226|61|10 525,7,4,3,2,3,4,0,4,6,2,9,5,5,200,779,
scooby_state_560385bcc226|40|9 525,4,4,3,4,4,4,5,5,0,5,4,2,5,200,774,
scooby_state_560385bcc226|51|10 508,9,5,4,4,4,5,1,4,3,1,6,5,3,210,772,
scooby_state_560385bcc226|60|11 535,7,3,5,3,4,4,4,1,5,3,1,4,2,190,771,
scooby_state_560385bcc226|50|12 511,2,11,5,9,7,0,3,5,6,5,5,7,4,187,767,
scooby_state_560385bcc226|27|10 556,3,4,3,1,2,3,1,1,3,2,4,2,4,178,767,
scooby_state_560385bcc226|16|10 531,5,3,2,5,5,1,3,3,2,3,4,2,2,195,766,
scooby_state_560385bcc226|34|11 519,6,7,6,4,4,4,5,5,1,4,1,4,3,191,764,
scooby_state_560385bcc226|61|11 514,3,6,3,0,3,4,2,3,3,0,0,3,6,213,763,
scooby_state_560385bcc226|37|11 518,4,2,6,4,6,1,2,1,5,1,1,4,5,202,762,
scooby_state_560385bcc226|21|10 524,4,2,2,1,4,4,0,1,6,2,11,2,4,195,762,
scooby_state_560385bcc226|58|9 523,4,3,7,7,1,3,1,4,1,7,6,3,4,183,757,
scooby_state_560385bcc226|44|11 540,6,2,4,6,4,5,2,3,0,2,0,1,2,177,754,
scooby_state_560385bcc226|16|11 504,5,3,5,1,4,1,4,3,3,5,1,5,0,208,752,
scooby_state_560385bcc226|29|10 518,5,0,4,2,4,2,2,1,2,1,13,0,1,195,750,
scooby_state_560385bcc226|34|13 516,8,2,6,6,7,6,3,0,2,1,58,1,2,129,747,
scooby_state_560385bcc226|40|10 512,6,5,1,1,3,5,0,2,3,3,5,3,2,194,745,
scooby_state_560385bcc226|15|12 532,4,5,8,3,3,6,4,1,3,4,7,6,2,155,743,
scooby_state_560385bcc226|54|11 520,8,6,3,2,1,5,2,4,2,3,0,0,4,183,743,
scooby_state_560385bcc226|28|10 514,2,1,2,1,1,0,2,2,1,2,7,2,1,204,742,
scooby_state_560385bcc226|27|11 508,8,4,4,1,3,2,5,2,5,0,1,3,3,190,739,
scooby_state_560385bcc226|20|11 510,14,6,5,4,3,3,2,3,1,3,0,0,3,178,735,
scooby_state_560385bcc226|26|10 513,8,7,4,2,2,0,1,1,0,3,6,5,1,179,732,
scooby_state_560385bcc226|42|10 514,5,0,1,2,9,3,1,1,1,1,9,7,1,177,732,
scooby_state_560385bcc226|30|11 529,7,5,3,1,4,7,2,3,2,3,0,3,5,157,731,
scooby_state_560385bcc226|52|12 504,1,11,4,6,1,2,5,3,1,4,8,6,0,173,729,
scooby_state_560385bcc226|49|12 477,5,5,4,6,1,5,3,6,1,1,10,5,5,194,728,
scooby_state_560385bcc226|36|10 510,5,2,4,4,5,2,0,4,3,3,6,0,2,178,728,
scooby_state_560385bcc226|24|11 518,4,6,7,4,8,1,5,2,4,2,0,4,6,156,727,
scooby_state_560385bcc226|60|12 494,8,7,5,4,4,2,0,5,2,1,6,6,4,179,727,
scooby_state_560385bcc226|45|10 512,3,4,6,5,1,2,4,1,2,3,7,4,5,167,726,
scooby_state_560385bcc226|48|13 498,6,5,5,4,7,0,3,3,0,0,64,2,2,126,725,
scooby_state_560385bcc226|38|12 488,3,6,4,2,2,5,5,3,2,2,13,3,5,181,724,
scooby_state_560385bcc226|54|12 498,4,9,7,0,5,3,6,7,0,1,7,4,4,168,723,
scooby_state_560385bcc226|36|12 501,2,4,7,5,3,5,1,5,3,4,16,1,4,161,722,
scooby_state_560385bcc226|36|13 472,2,2,5,5,6,3,2,4,3,2,65,1,2,148,722,
scooby_state_560385bcc226|50|15 520,9,3,5,6,7,7,6,0,3,6,9,3,10,128,722,
scooby_state_560385bcc226|25|10 488,4,2,5,2,1,4,5,1,3,4,3,5,3,191,721,
scooby_state_560385bcc226|45|12 479,4,9,4,6,3,1,5,2,1,4,5,1,3,194,721,
scooby_state_560385bcc226|12|11 490,6,3,2,2,5,3,3,0,6,1,2,2,1,193,719,
scooby_state_560385bcc226|32|10 487,10,9,3,5,2,4,2,4,1,4,7,2,3,175,718,
scooby_state_560385bcc226|39|10 495,3,3,4,3,3,5,5,3,2,0,1,0,2,188,717,
scooby_state_560385bcc226|23|12 486,1,8,4,5,2,5,1,2,2,2,8,3,2,185,716,
scooby_state_560385bcc226|43|13 482,5,2,4,3,5,4,3,2,5,2,55,3,1,134,710,
scooby_state_560385bcc226|23|14 488,5,1,5,2,4,6,1,3,1,6,5,8,9,165,709,
scooby_state_560385bcc226|16|12 488,3,8,6,10,5,4,4,5,4,2,7,5,4,154,709,
scooby_state_560385bcc226|41|11 473,4,2,1,4,9,3,2,5,2,4,1,8,6,183,707,
scooby_state_560385bcc226|31|10 504,6,2,3,5,1,1,0,2,3,2,4,5,3,164,705,
scooby_state_560385bcc226|58|10 486,5,3,1,2,3,1,0,2,3,1,7,1,4,185,704,
scooby_state_560385bcc226|40|11 493,6,6,2,5,5,2,3,4,2,3,1,3,1,168,704,
scooby_state_560385bcc226|56|10 481,2,2,4,3,3,1,1,3,6,6,8,0,2,182,704,
scooby_state_560385bcc226|32|11 495,6,2,6,1,3,4,1,5,3,4,0,3,3,166,702,
scooby_state_560385bcc226|43|14 495,4,6,5,6,2,5,6,1,2,3,2,1,4,160,702,
scooby_state_560385bcc226|55|12 484,3,7,6,4,6,4,6,1,5,4,7,4,0,161,702,
scooby_state_560385bcc226|26|12 466,4,9,3,1,1,6,5,4,2,5,8,8,8,171,701,
scooby_state_560385bcc226|55|13 481,5,2,6,2,3,2,1,1,2,3,46,3,6,137,700,
scooby_state_560385bcc226|21|11 486,4,3,3,4,6,1,0,2,3,0,0,4,4,178,698,
scooby_state_560385bcc226|33|11 504,6,7,0,5,1,7,2,3,1,3,0,5,1,153,698,
scooby_state_560385bcc226|36|11 474,5,3,1,5,3,3,4,2,0,3,1,2,3,188,697,
scooby_state_560385bcc226|63|15 452,7,8,6,3,9,3,7,3,5,6,16,8,8,156,697,
scooby_state_560385bcc226|43|12 467,6,11,5,7,6,5,2,3,4,0,7,4,6,162,695,
scooby_state_560385bcc226|53|11 488,6,5,3,4,4,1,4,1,3,1,1,2,5,165,693,
scooby_state_560385bcc226|26|11 473,2,6,4,6,3,2,2,2,1,0,0,3,3,183,690,
scooby_state_560385bcc226|35|12 461,6,3,4,4,2,6,5,3,5,3,13,2,4,166,687,
scooby_state_560385bcc226|16|13 479,1,5,1,3,1,3,1,3,1,1,52,3,3,129,686,
scooby_state_560385bcc226|18|12 465,5,3,9,2,4,5,5,3,2,6,7,5,1,162,684,
scooby_state_560385bcc226|37|14 456,5,5,6,7,11,4,5,4,7,1,1,1,9,160,682,
scooby_state_560385bcc226|47|11 476,4,9,3,5,6,5,3,0,2,2,0,0,3,163,681,
scooby_state_560385bcc226|46|11 486,5,4,5,6,2,3,5,1,5,3,0,3,2,151,681,
scooby_state_560385bcc226|43|11 474,7,1,3,2,7,4,1,5,2,2,2,4,1,166,681,
scooby_state_560385bcc226|25|11 466,3,5,5,4,2,3,1,3,4,3,2,2,1,176,680,
scooby_state_560385bcc226|52|15 482,9,10,4,6,3,6,7,8,4,3,9,5,3,121,680,
scooby_state_560385bcc226|59|11 474,1,1,2,2,1,2,1,3,4,3,2,0,3,180,679,
scooby_state_560385bcc226|13|12 472,3,5,7,6,5,4,1,1,3,1,7,3,4,156,678,
scooby_state_560385bcc226|42|12 467,5,9,0,4,5,0,2,0,2,1,5,3,5,170,678,
scooby_state_560385bcc226|63|12 449,8,6,7,2,3,9,3,7,4,3,8,2,4,163,678,
scooby_state_560385bcc226|33|12 460,3,3,6,1,3,2,4,3,6,2,8,1,2,173,677,
scooby_state_560385bcc226|20|12 437,4,6,7,1,4,5,5,2,2,2,4,2,5,190,676,
scooby_state_560385bcc226|24|12 454,3,8,2,5,6,1,4,4,3,6,4,3,3,170,676,
scooby_state_560385bcc226|54|14 468,3,3,7,2,5,3,2,4,0,2,3,3,2,168,675,
scooby_state_560385bcc226|26|13 451,4,3,8,6,2,1,2,0,4,5,52,4,0,132,674,
scooby_state_560385bcc226|15|11 470,9,2,3,6,4,2,0,5,5,1,1,2,5,159,674,
scooby_state_560385bcc226|33|13 458,5,2,8,8,2,2,1,2,1,1,53,2,4,124,673,
scooby_state_560385bcc226|53|12 439,4,2,2,6,7,4,4,6,3,2,11,2,4,174,670,
[...]
scooby_state_560385bcc2dc|42|9 1,0,0,0,0,0,0,0,0,0,0,0,0,0,0,1,
scooby_state_1493ffbc75c5|14|11 0,0,0,0,0,0,0,0,0,1,0,0,0,0,0,1,
scooby_state_1493ffbc7686|0|-39 1,0,0,0,0,0,0,0,0,0,0,0,0,0,0,1,
scooby_state_1493ffba3207|12|5 0,0,0,0,0,0,0,0,0,0,0,0,0,0,1,1,
scooby_state_560385bcc226|13|-15 0,0,0,0,0,0,1,0,0,0,0,0,0,0,0,1,
scooby_state_1493ffbc75c8|24|1 0,1,0,0,0,0,0,0,0,0,0,0,0,0,0,1,
scooby_state_1493ffba3d3b|18|-4 0,0,0,0,0,1,0,0,0,0,0,0,0,0,0,1,
scooby_state_1493ffba3cb6|25|-6 0,0,0,0,0,0,0,0,0,0,0,1,0,0,0,1,
scooby_state_1493ffb9c965|26|1 1,0,0,0,0,0,0,0,0,0,0,0,0,0,0,1,
scooby_state_1493ffbc75c5|26|4 1,0,0,0,0,0,0,0,0,0,0,0,0,0,0,1,
scooby_state_1493ffba0f2b|45|0 0,0,0,0,0,0,0,0,0,0,0,1,0,0,0,1,
scooby_state_1493ffbc7686|10|-2 1,0,0,0,0,0,0,0,0,0,0,0,0,0,0,1,
scooby_state_1493ffbc75c5|54|52 0,0,0,0,1,0,0,0,0,0,0,0,0,0,0,1,
scooby_state_1493ffbc7646|12|3 0,0,0,0,0,0,0,0,0,0,0,1,0,0,0,1,
scooby_state_1493ffba3207|17|-42 1,0,0,0,0,0,0,0,0,0,0,0,0,0,0,1,
scooby_state_1493ffbc764b|31|-1 0,0,0,0,0,0,0,0,0,0,0,1,0,0,0,1,
scooby_state_1493ffba3cde|52|0 0,0,0,0,0,0,0,0,0,0,0,1,0,0,0,1,
scooby_state_1493ffbc75cc|29|10 0,0,0,1,0,0,0,0,0,0,0,0,0,0,0,1,
scooby_state_1493ffbc770e|36|0 0,0,0,0,0,0,0,0,0,0,0,1,0,0,0,1,
scooby_state_1493ffba115a|4|1 0,0,0,0,0,0,0,0,0,0,0,0,0,0,1,1,
scooby_state_1493ffbc770a|63|11 0,0,0,0,0,0,0,0,0,0,0,1,0,0,0,1,
scooby_state_1493ffba398d|14|-2 0,0,0,1,0,0,0,0,0,0,0,0,0,0,0,1,
scooby_state_1493ffba3c6b|16|15 0,0,0,0,0,0,0,0,0,0,0,1,0,0,0,1,
scooby_state_1493ffb9c93c|47|0 0,0,0,0,0,0,0,0,0,0,0,0,0,0,1,1,
scooby_state_560385bcc226|21|-42 0,0,0,0,0,0,0,0,0,0,0,1,0,0,0,1,
scooby_state_1493ffba3d1a|14|13 0,1,0,0,0,0,0,0,0,0,0,0,0,0,0,1,
scooby_state_14940053cd00|26|0 1,0,0,0,0,0,0,0,0,0,0,0,0,0,0,1,
scooby_state_560385bcaeab|24|0 1,0,0,0,0,0,0,0,0,0,0,0,0,0,0,1,
scooby_state_1493ffb9f9b1|57|4 1,0,0,0,0,0,0,0,0,0,0,0,0,0,0,1,
scooby_state_1493ffbc770e|34|6 0,0,0,0,0,0,0,0,0,0,0,1,0,0,0,1,
scooby_state_1493ffba398d|40|0 0,0,0,1,0,0,0,0,0,0,0,0,0,0,0,1,
scooby_state_1493ffba398d|9|-15 0,0,0,0,0,0,0,0,0,0,0,1,0,0,0,1,
scooby_state_1493ffba3102|4|1 1,0,0,0,0,0,0,0,0,0,0,0,0,0,0,1,
scooby_state_1493ffbc7477|22|3 0,0,0,0,0,0,0,1,0,0,0,0,0,0,0,1,
scooby_state_1493ffba3d1a|0|-14 0,1,0,0,0,0,0,0,0,0,0,0,0,0,0,1,
scooby_state_1493ffba3cde|58|15 0,0,0,0,0,0,0,0,0,0,0,0,1,0,0,1,
scooby_state_1493ffbc764b|3|3 1,0,0,0,0,0,0,0,0,0,0,0,0,0,0,1,
scooby_state_1493ffba060d|0|0 0,0,0,0,0,1,0,0,0,0,0,0,0,0,0,1,
scooby_state_1493ffb9c9a5|29|-16 0,0,0,0,0,0,0,0,0,0,0,1,0,0,0,1,
scooby_state_560385bcc145|5|1 1,0,0,0,0,0,0,0,0,0,0,0,0,0,0,1,
scooby_state_1493ffba0f10|33|18 1,0,0,0,0,0,0,0,0,0,0,0,0,0,0,1,
scooby_state_1493ffbc7686|0|-33 1,0,0,0,0,0,0,0,0,0,0,0,0,0,0,1,
scooby_state_1493ffb9c93c|44|-2 0,0,0,0,0,0,0,0,0,0,1,0,0,0,0,1,
scooby_state_1493ffbc7593|20|0 1,0,0,0,0,0,0,0,0,0,0,0,0,0,0,1,
scooby_state_560385bcc226|31|-23 1,0,0,0,0,0,0,0,0,0,0,0,0,0,0,1,
scooby_state_1493ffba3c6b|2|1 0,0,0,0,0,0,1,0,0,0,0,0,0,0,0,1,
scooby_state_560385bcc2dc|42|25 1,0,0,0,0,0,0,0,0,0,0,0,0,0,0,1,
scooby_state_1493ffba3d1a|54|4 1,0,0,0,0,0,0,0,0,0,0,0,0,0,0,1,
scooby_state_1493ffba3a39|21|-42 1,0,0,0,0,0,0,0,0,0,0,0,0,0,0,1,
scooby_state_1493ffba3d1a|39|6 0,0,0,0,0,0,1,0,0,0,0,0,0,0,0,1,
scooby_state_1493ffbc770e|11|0 0,0,0,0,0,0,0,0,0,0,0,1,0,0,0,1,
scooby_state_1493ffb8a1d8|7|1 1,0,0,0,0,0,0,0,0,0,0,0,0,0,0,1,
scooby_state_1493ffba120e|8|0 1,0,0,0,0,0,0,0,0,0,0,0,0,0,0,1,
scooby_state_560385bcc226|4|-34 0,0,0,0,0,0,0,0,0,0,0,0,0,1,0,1,
scooby_state_1493ffbc7477|32|-27 1,0,0,0,0,0,0,0,0,0,0,0,0,0,0,1,
scooby_state_560385bcc539|36|1 1,0,0,0,0,0,0,0,0,0,0,0,0,0,0,1,
scooby_state_1493ffba3207|5|1 0,0,0,1,0,0,0,0,0,0,0,0,0,0,0,1,
scooby_state_1493ffb9c93c|9|5 0,0,0,0,0,0,0,0,0,0,1,0,0,0,0,1,
scooby_state_1493ffbc76c4|47|42 1,0,0,0,0,0,0,0,0,0,0,0,0,0,0,1,
scooby_state_1493ffba0ef2|20|0 0,0,0,0,0,0,0,0,0,0,0,1,0,0,0,1,
scooby_state_1493ffbc75c8|26|13 1,0,0,0,0,0,0,0,0,0,0,0,0,0,0,1,
scooby_state_560385bcc2dc|52|29 0,0,0,0,0,0,1,0,0,0,0,0,0,0,0,1,
scooby_state_1493ffbc75c5|3|-26 1,0,0,0,0,0,0,0,0,0,0,0,0,0,0,1,
scooby_state_1493ffba3d1a|30|30 0,0,0,0,0,0,0,0,0,1,0,0,0,0,0,1,
scooby_state_560385bcd858|33|1 1,0,0,0,0,0,0,0,0,0,0,0,0,0,0,1,
scooby_state_1493ffba1174|15|0 0,0,0,0,0,0,0,0,0,0,0,1,0,0,0,1,
scooby_state_1493ffb9c9de|12|-43 1,0,0,0,0,0,0,0,0,0,0,0,0,0,0,1,
scooby_state_1493ffba3cd4|42|-16 1,0,0,0,0,0,0,0,0,0,0,0,0,0,0,1,
scooby_state_1493ffbc7477|0|0 0,0,0,0,0,0,0,0,0,1,0,0,0,0,0,1,
scooby_state_560385bcc2d8|56|56 1,0,0,0,0,0,0,0,0,0,0,0,0,0,0,1,
scooby_state_1493ffba3cb6|13|-5 1,0,0,0,0,0,0,0,0,0,0,0,0,0,0,1,
scooby_state_1493ffba3207|24|-15 0,0,0,1,0,0,0,0,0,0,0,0,0,0,0,1,
scooby_state_1493ffbc770e|43|2 0,0,0,0,0,0,1,0,0,0,0,0,0,0,0,1,
scooby_state_1493ffba3d4d|25|-6 1,0,0,0,0,0,0,0,0,0,0,0,0,0,0,1,
scooby_state_1493ffbc7583|26|-16 0,0,1,0,0,0,0,0,0,0,0,0,0,0,0,1,
scooby_state_560385bcc2dc|25|-20 0,0,0,0,0,0,0,0,0,0,0,1,0,0,0,1,
scooby_state_1493ffba3207|50|7 0,0,1,0,0,0,0,0,0,0,0,0,0,0,0,1,
scooby_state_560385bcc226|19|-28 0,0,0,0,0,0,0,0,0,0,0,0,0,0,1,1,
scooby_state_1493ffba0f2b|46|-13 1,0,0,0,0,0,0,0,0,0,0,0,0,0,0,1,
scooby_state_1493ffb99300|12|0 1,0,0,0,0,0,0,0,0,0,0,0,0,0,0,1,
scooby_state_1493ffba3d43|59|0 0,0,0,0,0,0,0,0,0,0,0,0,0,0,1,1,
scooby_state_1493ffb97a01|40|34 1,0,0,0,0,0,0,0,0,0,0,0,0,0,0,1,
scooby_state_1493ffb9c9a5|46|0 0,0,0,0,0,0,0,0,0,0,0,1,0,0,0,1,
scooby_state_1493ffb9c9de|49|2 1,0,0,0,0,0,0,0,0,0,0,0,0,0,0,1,
scooby_state_1493ffbc7477|34|0 0,0,0,0,0,0,0,0,0,0,0,0,1,0,0,1,
scooby_state_1493ffbc7477|3|-23 0,0,0,0,0,0,0,0,1,0,0,0,0,0,0,1,
scooby_state_1493ffba3a39|11|-1 0,0,0,0,0,0,0,1,0,0,0,0,0,0,0,1,
scooby_state_560385bcc3c3|15|1 1,0,0,0,0,0,0,0,0,0,0,0,0,0,0,1,
scooby_state_1493ffb9c93c|40|0 0,0,0,0,1,0,0,0,0,0,0,0,0,0,0,1,
scooby_state_560385bcc2dc|45|27 0,0,0,1,0,0,0,0,0,0,0,0,0,0,0,1,
scooby_state_7fff0f33fdc3|55|17 1,0,0,0,0,0,0,0,0,0,0,0,0,0,0,1,
scooby_state_1493ffba3d7f|21|0 0,0,0,0,0,0,0,0,0,1,0,0,0,0,0,1,
scooby_state_1493ffba3cb6|35|-11 0,0,0,0,0,0,0,0,0,0,0,1,0,0,0,1,
scooby_state_560385bcc2dc|33|25 0,0,0,0,0,0,0,1,0,0,0,0,0,0,0,1,
scooby_state_1493ffbc76c7|19|1 1,0,0,0,0,0,0,0,0,0,0,0,0,0,0,1,
scooby_state_1493ffba0f19|59|1 0,1,0,0,0,0,0,0,0,0,0,0,0,0,0,1,
scooby_state_1493ffbc7593|19|14 1,0,0,0,0,0,0,0,0,0,0,0,0,0,0,1,
scooby_state_1493ffba3cb6|44|-5 0,0,0,0,0,0,0,0,0,0,0,1,0,0,0,1,
scooby_state_1493ffbc7593|30|2 1,0,0,0,0,0,0,0,0,0,0,0,0,0,0,1,
scooby_state_1493ffb979c2|39|1 1,0,0,0,0,0,0,0,0,0,0,0,0,0,0,1,
scooby_state_1493ffba0c11|44|1 0,0,0,0,0,0,0,0,0,0,0,0,0,0,1,1,
scooby_state_1493ffbc75c5|1|-32 1,0,0,0,0,0,0,0,0,0,0,0,0,0,0,1,
scooby_state_1493ffbc75c5|24|7 0,0,0,0,0,0,0,0,0,1,0,0,0,0,0,1,
scooby_state_1493ffbc75c5|19|1 1,0,0,0,0,0,0,0,0,0,0,0,0,0,0,1,
scooby_state_1493ffbc76c4|9|-43 1,0,0,0,0,0,0,0,0,0,0,0,0,0,0,1,
scooby_state_1493ffc3e280|10|1 1,0,0,0,0,0,0,0,0,0,0,0,0,0,0,1,
scooby_state_1493ffba0e6c|5|-13 1,0,0,0,0,0,0,0,0,0,0,0,0,0,0,1,
scooby_state_1493ffb9c93c|36|-4 0,0,0,0,0,0,0,0,0,0,1,0,0,0,0,1,
scooby_state_1493ffba3cd4|47|13 0,0,1,0,0,0,0,0,0,0,0,0,0,0,0,1,
scooby_state_1493ffba110a|19|-1 0,0,0,0,0,0,0,0,0,0,0,0,0,0,1,1,
scooby_state_1493ffbc75c5|32|-4 0,0,0,0,0,0,0,0,0,1,0,0,0,0,0,1,
scooby_state_1493ffbc7703|8|-34 0,0,0,0,0,0,0,0,0,0,0,1,0,0,0,1,
scooby_state_560385bcc226|0|-34 0,0,0,0,0,0,0,0,0,1,0,0,0,0,0,1,
scooby_state_1493ffba4583|22|1 0,0,0,0,0,0,0,0,0,0,0,1,0,0,0,1,
scooby_state_1493ffba3d1a|18|6 0,0,0,0,0,0,0,0,0,0,0,0,0,0,1,1,
scooby_state_560385bcc226|29|-29 1,0,0,0,0,0,0,0,0,0,0,0,0,0,0,1,
scooby_state_1493ffbc7646|16|7 0,0,0,0,0,0,0,0,0,0,0,1,0,0,0,1,
scooby_state_1493ffbc75c5|13|6 0,0,0,0,0,0,0,1,0,0,0,0,0,0,0,1,
scooby_state_1493ffbc7477|45|5 0,0,0,0,0,0,0,0,0,0,0,0,1,0,0,1,
scooby_state_1493ffba1123|36|31 0,0,0,0,0,0,0,0,0,0,0,1,0,0,0,1,
scooby_state_560385bcc226|0|-19 1,0,0,0,0,0,0,0,0,0,0,0,0,0,0,1,
scooby_state_1493ffba3cd4|23|0 0,0,0,0,1,0,0,0,0,0,0,0,0,0,0,1,
scooby_state_1493ffba3d4d|12|-33 1,0,0,0,0,0,0,0,0,0,0,0,0,0,0,1,
scooby_state_1493ffba0795|58|-4 0,0,0,0,0,0,0,0,0,0,0,0,0,0,1,1,
scooby_state_1493ffba3a39|2|1 0,0,0,0,0,0,0,0,0,0,0,0,0,0,1,1,
scooby_state_1493ffbc757e|37|-12 0,0,0,0,0,0,0,0,0,0,1,0,0,0,0,1,
scooby_state_1493ffba3cd4|30|-3 0,0,0,0,0,0,0,0,0,0,0,0,0,0,1,1,
scooby_state_1493ffbc75c5|16|-27 0,0,0,0,0,0,0,1,0,0,0,0,0,0,0,1,
scooby_state_1493ffba3207|59|56 0,0,0,0,0,0,0,1,0,0,0,0,0,0,0,1,
scooby_state_1493ffb9c959|0|0 1,0,0,0,0,0,0,0,0,0,0,0,0,0,0,1,
scooby_state_1493ffb8a141|5|1 1,0,0,0,0,0,0,0,0,0,0,0,0,0,0,1,
scooby_state_1493ffb9c9fc|62|0 0,0,0,0,0,0,0,0,0,0,0,0,0,0,1,1,
scooby_state_1493ffba398d|47|-8 0,1,0,0,0,0,0,0,0,0,0,0,0,0,0,1,
scooby_state_560385bcc226|1|-19 1,0,0,0,0,0,0,0,0,0,0,0,0,0,0,1,
scooby_state_1493ffba398d|46|12 0,0,0,0,0,0,0,0,0,0,0,1,0,0,0,1,
scooby_state_1493ffbc75c5|19|10 1,0,0,0,0,0,0,0,0,0,0,0,0,0,0,1,
scooby_state_560385bcc226|5|-49 1,0,0,0,0,0,0,0,0,0,0,0,0,0,0,1,
scooby_state_1493ffbc7593|50|11 1,0,0,0,0,0,0,0,0,0,0,0,0,0,0,1,
scooby_state_560385bcc1b8|19|1 0,0,0,0,0,0,0,1,0,0,0,0,0,0,0,1,
scooby_state_1493ffba3d43|0|0 0,0,0,0,0,0,0,0,0,0,1,0,0,0,0,1,
scooby_state_1493ffb9c959|2|-1 1,0,0,0,0,0,0,0,0,0,0,0,0,0,0,1,
scooby_state_1493ffba3a39|47|2 0,0,0,0,0,0,1,0,0,0,0,0,0,0,0,1,
scooby_state_560385bcc226|11|-43 0,0,0,0,0,1,0,0,0,0,0,0,0,0,0,1,
scooby_state_1493ffbc7477|33|17 1,0,0,0,0,0,0,0,0,0,0,0,0,0,0,1,
scooby_state_1493ffba05f4|4|-10 1,0,0,0,0,0,0,0,0,0,0,0,0,0,0,1,
scooby_state_1493ffbc75c5|4|0 1,0,0,0,0,0,0,0,0,0,0,0,0,0,0,1,
scooby_state_1493ffba3207|61|52 0,1,0,0,0,0,0,0,0,0,0,0,0,0,0,1,
scooby_state_560385bcc226|19|-33 1,0,0,0,0,0,0,0,0,0,0,0,0,0,0,1,
scooby_state_1493ffba0f10|9|-5 0,0,0,0,1,0,0,0,0,0,0,0,0,0,0,1,
scooby_state_1493ffbc7682|24|-2 0,0,0,0,0,0,1,0,0,0,0,0,0,0,0,1,
scooby_state_1493ffb9c959|3|-5 1,0,0,0,0,0,0,0,0,0,0,0,0,0,0,1,
scooby_state_1493ffba0795|57|3 0,0,0,0,0,0,0,0,0,0,0,0,1,0,0,1,
scooby_state_560385bcc226|7|-44 0,0,0,0,0,0,0,0,0,0,0,0,0,0,1,1,
scooby_state_1493ffbc7477|45|-5 0,0,0,0,0,0,0,0,0,0,0,1,0,0,0,1,
scooby_state_560385bcc2d8|19|-35 1,0,0,0,0,0,0,0,0,0,0,0,0,0,0,1,
scooby_state_1493ffbc75c5|3|-3 1,0,0,0,0,0,0,0,0,0,0,0,0,0,0,1,
scooby_state_1493ffb9c93c|61|17 0,0,0,0,0,0,0,0,0,0,1,0,0,0,0,1,
scooby_state_1493ffbc7477|47|12 0,0,0,0,0,0,0,0,0,0,0,0,0,0,1,1,
scooby_state_1493ffba3207|48|15 0,0,0,0,0,0,0,0,1,0,0,0,0,0,0,1,
scooby_state_1493ffba3cb6|33|-18 0,0,0,0,0,0,0,0,0,0,0,1,0,0,0,1,
scooby_state_1493ffbc75c8|23|1 0,0,0,0,0,0,0,0,0,0,0,0,0,0,1,1,
scooby_state_1493ffba398d|7|-1 0,0,0,0,0,0,0,0,0,0,1,0,0,0,0,1,
scooby_state_1493ffbc747a|51|1 0,0,0,0,0,0,0,0,1,0,0,0,0,0,0,1,
scooby_state_1493ffba3c6b|32|3 0,0,0,0,0,0,0,0,0,0,0,0,1,0,0,1,
scooby_state_1493ffba3cd4|11|-4 1,0,0,0,0,0,0,0,0,0,0,0,0,0,0,1,
scooby_state_1493ffba3207|18|0 0,0,0,0,0,0,0,0,0,0,0,0,0,0,1,1,
scooby_state_1493ffbc75c5|42|0 0,0,0,0,0,0,0,0,0,0,1,0,0,0,0,1,
scooby_state_1493ffbc763e|49|21 1,0,0,0,0,0,0,0,0,0,0,0,0,0,0,1,
scooby_state_1493ffba0795|53|-8 0,0,0,0,1,0,0,0,0,0,0,0,0,0,0,1,
scooby_state_1493ffb9c9a5|5|0 0,0,0,0,0,0,0,0,0,0,0,1,0,0,0,1,
scooby_state_1493ffb9c99b|51|1 0,0,0,0,0,1,0,0,0,0,0,0,0,0,0,1,
scooby_state_1493ffb9c9de|37|3 1,0,0,0,0,0,0,0,0,0,0,0,0,0,0,1,
scooby_state_1493ffbc7593|41|1 1,0,0,0,0,0,0,0,0,0,0,0,0,0,0,1,
scooby_state_1493ffba3d1a|8|2 0,0,0,0,0,0,0,0,0,1,0,0,0,0,0,1,
scooby_state_1493ffbc75d0|23|1 0,0,0,0,0,0,0,1,0,0,0,0,0,0,0,1,
scooby_state_1493ffba3207|39|-6 0,0,0,0,0,0,0,1,0,0,0,0,0,0,0,1,
scooby_state_560385bcc226|39|-2 1,0,0,0,0,0,0,0,0,0,0,0,0,0,0,1,
scooby_state_1493ffba0e6c|7|4 1,0,0,0,0,0,0,0,0,0,0,0,0,0,0,1,
scooby_state_1493ffba3207|50|-2 0,0,1,0,0,0,0,0,0,0,0,0,0,0,0,1,
scooby_state_1493ffbc76d3|56|3 0,0,0,0,0,0,0,0,0,0,0,1,0,0,0,1,
scooby_state_1493ffba3cb6|30|-9 1,0,0,0,0,0,0,0,0,0,0,0,0,0,0,1,
scooby_state_1493ffba0581|51|-12 1,0,0,0,0,0,0,0,0,0,0,0,0,0,0,1,
scooby_state_1493ffba0f10|46|0 0,0,0,0,0,0,0,0,0,0,0,0,0,0,1,1,
scooby_state_1493ffba3cb6|18|-6 0,0,0,0,0,0,0,0,0,0,0,1,0,0,0,1,
scooby_state_1493ffba3a39|43|-8 0,0,0,1,0,0,0,0,0,0,0,0,0,0,0,1,
scooby_state_1493ffbc75c5|41|28 1,0,0,0,0,0,0,0,0,0,0,0,0,0,0,1,
scooby_state_1493ffbc75c5|1|-45 0,0,0,0,0,0,1,0,0,0,0,0,0,0,0,1,
scooby_state_1493ffba3d1a|39|35 0,0,0,0,0,0,0,0,0,0,0,0,0,1,0,1,
scooby_state_1493ffbc757e|1|-1 1,0,0,0,0,0,0,0,0,0,0,0,0,0,0,1,
scooby_state_1493ffbc75d0|9|1 0,0,0,0,1,0,0,0,0,0,0,0,0,0,0,1,
scooby_state_1493ffbc757e|38|9 0,0,1,0,0,0,0,0,0,0,0,0,0,0,0,1,
scooby_state_1493ffba3d1a|29|1 1,0,0,0,0,0,0,0,0,0,0,0,0,0,0,1,
scooby_state_1493ffba3cd4|62|2 1,0,0,0,0,0,0,0,0,0,0,0,0,0,0,1,
scooby_state_1493ffbc7477|46|5 0,0,0,0,0,0,0,0,0,0,0,1,0,0,0,1,
scooby_state_1493ffba3d3b|5|-41 0,0,0,0,0,0,0,0,0,0,0,0,1,0,0,1,

scooby_action_0_deg_dist 0,464257,0,0,0,0,0,0,0,0,0,0,0,0,0,0,
scooby_action_-6_deg_dist 0,14533,93,0,3,0,0,0,0,0,0,0,0,0,0,0,
scooby_action_4_deg_dist 0,15266,81,0,13,0,0,0,0,0,0,0,0,0,0,0,
scooby_action_1_deg_dist 0,1100405,220074,0,204344,0,383802,0,0,0,0,0,0,0,0,0,
scooby_action_30_deg_dist 0,8910,13,0,1,0,0,0,0,0,0,0,0,0,0,0,
scooby_action_5_deg_dist 0,15321,51,0,4,0,0,0,0,0,0,0,0,0,0,0,
scooby_action_3_deg_dist 0,17260,110,0,139,0,484,0,0,0,0,0,0,0,0,0,
scooby_action_32_deg_dist 0,8759,20,0,1,0,0,0,0,0,0,0,0,0,0,0,
scooby_action_10_deg_dist 0,13321,53,0,19,0,0,0,0,0,0,0,0,0,0,0,
scooby_action_11_deg_dist 0,12782,44,0,2,0,0,0,0,0,0,0,0,0,0,0,
scooby_action_12_deg_dist 0,12582,47,0,2,0,0,0,0,0,0,0,0,0,0,0,
scooby_action_22_deg_dist 0,10255,14,0,0,0,0,0,0,0,0,0,0,0,0,0,
scooby_action_23_deg_dist 0,10128,19,0,4,0,0,0,0,0,0,0,0,0,0,0,
scooby_action_-1_deg_dist 0,42738,3545,0,6450,0,29609,0,0,0,0,0,0,0,0,0,
scooby_action_-3_deg_dist 0,14108,33,0,5,0,1,0,0,0,0,0,0,0,0,0,

scooby_track_called 2609705
scooby_track_same_address 17888
scooby_track_evict 2591561

scooby_reward_demand_called 2609705
scooby_reward_demand_pt_not_found 2082568
scooby_reward_demand_pt_found 527137
scooby_reward_demand_pt_found_total 527137
scooby_reward_demand_has_reward 74
scooby_reward_train_called 1999479
scooby_reward_assign_reward_called 2591601
scooby_reward_no_pref 464197
scooby_reward_incorrect 1535282
scooby_reward_correct_untimely 439862
scooby_reward_correct_timely 87201
scooby_reward_out_of_bounds 65059
scooby_reward_tracker_hit 0

scooby_reward_none_low_bw 464197
scooby_reward_none_high_bw 0
scooby_reward_incorrect_low_bw 1535282
scooby_reward_incorrect_high_bw 0
scooby_reward_correct_untimely_low_bw 439862
scooby_reward_correct_untimely_high_bw 0
scooby_reward_correct_timely_low_bw 87201
scooby_reward_correct_timely_high_bw 0
scooby_reward_out_of_bounds_low_bw 65059
scooby_reward_out_of_bounds_high_bw 0
scooby_reward_tracker_hit_low_bw 0
scooby_reward_tracker_hit_high_bw 0

scooby_reward_1 0,1401397,392935,77546,30147,0,
scooby_reward_3 0,13551,1791,575,1134,0,
scooby_reward_4 0,11812,1072,399,1334,0,
scooby_reward_5 0,11574,940,448,1656,0,
scooby_reward_10 0,8978,678,426,2758,0,
scooby_reward_11 0,8377,604,378,2886,0,
scooby_reward_12 0,8111,598,348,3082,0,
scooby_reward_22 0,4896,292,240,4541,0,
scooby_reward_23 0,4672,256,273,4685,0,
scooby_reward_30 0,3141,110,165,5365,0,
scooby_reward_32 0,2827,113,149,5568,0,
scooby_reward_-1 0,32792,38645,5822,1100,0,
scooby_reward_-3 0,11616,768,72,251,0,
scooby_reward_-6 0,11538,1060,360,552,0,
scooby_reward_0 464197,0,0,0,0,0,

scooby_train_called 2591560
scooby_train_compute_reward 1999479

scooby_register_fill_called 2390481
scooby_register_fill_set 1420808
scooby_register_fill_set_total 1420808

scooby_register_prefetch_hit_called 1636910
scooby_register_prefetch_hit_set 554415
scooby_register_prefetch_hit_set_total 554415

scooby_pref_issue_scooby 4738408

learning_engine_featurewise.action.called 2609705
learning_engine_featurewise.action.explore 4792
learning_engine_featurewise.action.exploit 2604913
learning_engine_featurewise.action.fallback 1380024
learning_engine_featurewise.action.dyn_fallback_saved_bw 0
learning_engine_featurewise.action.dyn_fallback_saved_bw_acc 804278
learning_engine_featurewise.action.index_1_explored 311
learning_engine_featurewise.action.index_1_exploited 1908314
learning_engine_featurewise.action.index_3_explored 332
learning_engine_featurewise.action.index_3_exploited 17661
learning_engine_featurewise.action.index_4_explored 330
learning_engine_featurewise.action.index_4_exploited 15030
learning_engine_featurewise.action.index_5_explored 286
learning_engine_featurewise.action.index_5_exploited 15090
learning_engine_featurewise.action.index_10_explored 364
learning_engine_featurewise.action.index_10_exploited 13029
learning_engine_featurewise.action.index_11_explored 327
learning_engine_featurewise.action.index_11_exploited 12501
learning_engine_featurewise.action.index_12_explored 321
learning_engine_featurewise.action.index_12_exploited 12310
learning_engine_featurewise.action.index_22_explored 329
learning_engine_featurewise.action.index_22_exploited 9940
learning_engine_featurewise.action.index_23_explored 319
learning_engine_featurewise.action.index_23_exploited 9832
learning_engine_featurewise.action.index_30_explored 314
learning_engine_featurewise.action.index_30_exploited 8610
learning_engine_featurewise.action.index_32_explored 277
learning_engine_featurewise.action.index_32_exploited 8503
learning_engine_featurewise.action.index_-1_explored 321
learning_engine_featurewise.action.index_-1_exploited 82021
learning_engine_featurewise.action.index_-3_explored 326
learning_engine_featurewise.action.index_-3_exploited 13821
learning_engine_featurewise.action.index_-6_explored 302
learning_engine_featurewise.action.index_-6_exploited 14327
learning_engine_featurewise.action.index_0_explored 333
learning_engine_featurewise.action.index_0_exploited 463924
learning_engine_featurewise.learn.called 2591560
learning_engine_featurewise.learn.su_skip_PC 0
learning_engine_featurewise.learn.su_skip_PC_Delta 0

learning_engine_featurewise.q_value_histogram.bucket_0 578074
learning_engine_featurewise.q_value_histogram.bucket_1 32197
learning_engine_featurewise.q_value_histogram.bucket_2 1510174
learning_engine_featurewise.q_value_histogram.bucket_3 79543
learning_engine_featurewise.q_value_histogram.bucket_4 23404
learning_engine_featurewise.q_value_histogram.bucket_5 248892
learning_engine_featurewise.q_value_histogram.bucket_6 132629
learning_engine_featurewise.q_value_histogram.bucket_7 0

learning_engine_featurewise.consensus.total 2604913
learning_engine_featurewise.consensus.feature_align_PC 1970494
learning_engine_featurewise.consensus.feature_align_PC_ratio 0.76
learning_engine_featurewise.consensus.feature_align_PC_Delta 2011062
learning_engine_featurewise.consensus.feature_align_PC_Delta_ratio 0.77
learning_engine_featurewise.consensus.feature_align_all 1950581
learning_engine_featurewise.consensus.feature_align_all_ratio 0.75

learning_engine_featurewise.feature_PC_min_weight 1000000.00000000
learning_engine_featurewise.feature_PC_max_weight 0.00000000
learning_engine_featurewise.feature_PC_Delta_min_weight 1000000.00000000
learning_engine_featurewise.feature_PC_Delta_max_weight 0.00000000
unique_pcs 452
unique_pages 8601
unique_trigger_pcs 196
total_bitmaps_seen 0
unique_bitmaps_seen 0

scooby_bw_epochs 640460
scooby_bw_level_0 339907
scooby_bw_level_1 238521
scooby_bw_level_2 43983
scooby_bw_level_3 18049

scooby_ipc_epochs 0
scooby_ipc_level_0 0
scooby_ipc_level_1 0
scooby_ipc_level_2 0
scooby_ipc_level_3 0

scooby_cache_acc_epochs 159116
scooby_cache_acc_level_0 6292
scooby_cache_acc_level_1 91636
scooby_cache_acc_level_2 41845
scooby_cache_acc_level_3 9984
scooby_cache_acc_level_4 2526
scooby_cache_acc_level_5 1801
scooby_cache_acc_level_6 2034
scooby_cache_acc_level_7 1291
scooby_cache_acc_level_8 706
scooby_cache_acc_level_9 1001

Channel_0_RQ_row_buffer_hit 659213
Channel_0_RQ_row_buffer_miss 1140297
Channel_0_WQ_row_buffer_hit 195542
Channel_0_WQ_row_buffer_miss 193825
Channel_0_WQ_full 0
Channel_0_dbus_congested 867503

avg_congested_cycle 9

DRAM_bw_pochs 640460
DRAM_bw_level_0 339907
DRAM_bw_level_1 238521
DRAM_bw_level_2 43983
DRAM_bw_level_3 18049
