*************************************************
   ChampSim Multicore Out-of-Order Simulator
   Last compiled: Apr  3 2025 20:54:34
*************************************************
parsing config file: /home/zir/Pythia/config/nopref.ini

trace_0 /home/zir/ChampSim/ML-DPC/ChampSimTraces/gap/bfs-10.trace.gz
adding L2C_PREFETCHER: NONE
Initialize SHIP state
warmup_instructions 10000000
simulation_instructions 50000000
champsim_seed 97
measure_ipc 0
measure_ipc_epoch 1000
measure_dram_bw 1
measure_dram_bw_epoch 256
measure_cache_acc 1
measure_cache_acc_epoch 1024
l1d_perfect 0
l2c_perfect 0
llc_perfect 0
l1d_semi_perfect 0
l2c_semi_perfect 0
llc_semi_perfect 0
semi_perfect_cache_page_buffer_size 64

num_cpus 1
cpu_freq 4000
dram_io_freq 2400
page_size 4096
block_size 64
max_read_per_cycle 8
max_fill_per_cycle 1
dram_channels 1
log2_dram_channels 0
dram_ranks 1
dram_banks 8
dram_rows 65536
dram_columns 128
dram_row_size 8
dram_size 4096
dram_pages 1048576

fetch_width 6
decode_width 6
exec_width 4
lq_width 2
sq_width 2
retire_width 4
scheduler_size 128
branch_mispredict_penalty 20
rob_size 256
lq_size 72
sq_size 56
num_instr_destinations_sparc 4
num_instr_destinations 2
num_instr_sources 4

itlb_set 16
itlb_way 8
itlb_rq_size 16
itlb_wq_size 16
itlb_pq_size 0
itlb_mshr_size 8
itlb_latency 1

dtlb_set 16
dtlb_way 4
dtlb_rq_size 16
dtlb_wq_size 16
dtlb_pq_size 0
dtlb_mshr_size 8
dtlb_latency 1

stlb_set 128
stlb_way 12
stlb_rq_size 32
stlb_wq_size 32
stlb_pq_size 0
stlb_mshr_size 16
stlb_latency 8

l1i_size 32
l1i_set 64
l1i_way 8
l1i_rq_size 64
l1i_wq_size 64
l1i_pq_size 8
l1i_mshr_size 8
l1i_latency 1

l1d_size 32
l1d_set 64
l1d_way 8
l1d_rq_size 64
l1d_wq_size 64
l1d_pq_size 8
l1d_mshr_size 16
l1d_latency 4

l2c_size 256
l2c_set 512
l2c_way 8
l2c_rq_size 32
l2c_wq_size 32
l2c_pq_size 32
l2c_mshr_size 32
l2c_latency 10

llc_size 2048
llc_set 2048
llc_way 16
llc_rq_size 32
llc_wq_size 32
llc_pq_size 32
llc_mshr_size 64
llc_latency 20

dram_channel_width 8
dram_wq_size 64
dram_rq_size 64
tRP 15
tRCD 15
tCAS 12.5
dram_dbus_turn_around_time 30
dram_write_high_wm 56
dram_write_low_wm 48
min_dram_writes_per_switch 16
dram_mtps 2400
dram_dbus_return_time 13


Heartbeat CPU  0 instructions:    1000001 cycles:    1394691 heartbeat IPC: 0.71701 cumulative IPC: 0.71701 (Simulation time: 0 hr 0 min 1 sec) 
Heartbeat CPU  0 instructions:    2000000 cycles:    2787555 heartbeat IPC: 0.71794 cumulative IPC: 0.71747 (Simulation time: 0 hr 0 min 1 sec) 
Heartbeat CPU  0 instructions:    3000003 cycles:    4185024 heartbeat IPC: 0.71558 cumulative IPC: 0.71684 (Simulation time: 0 hr 0 min 2 sec) 
Heartbeat CPU  0 instructions:    4000000 cycles:    5578635 heartbeat IPC: 0.71756 cumulative IPC: 0.71702 (Simulation time: 0 hr 0 min 3 sec) 
Heartbeat CPU  0 instructions:    5000000 cycles:    6969394 heartbeat IPC: 0.71903 cumulative IPC: 0.71742 (Simulation time: 0 hr 0 min 4 sec) 
Heartbeat CPU  0 instructions:    6000000 cycles:    8364847 heartbeat IPC: 0.71661 cumulative IPC: 0.71729 (Simulation time: 0 hr 0 min 5 sec) 
Heartbeat CPU  0 instructions:    7000002 cycles:    9760911 heartbeat IPC: 0.71630 cumulative IPC: 0.71715 (Simulation time: 0 hr 0 min 5 sec) 
Heartbeat CPU  0 instructions:    8000000 cycles:   11160677 heartbeat IPC: 0.71440 cumulative IPC: 0.71680 (Simulation time: 0 hr 0 min 6 sec) 
Heartbeat CPU  0 instructions:    9000000 cycles:   12549471 heartbeat IPC: 0.72005 cumulative IPC: 0.71716 (Simulation time: 0 hr 0 min 7 sec) 
Heartbeat CPU  0 instructions:   10000001 cycles:   13953015 heartbeat IPC: 0.71248 cumulative IPC: 0.71669 (Simulation time: 0 hr 0 min 8 sec) 

Warmup complete CPU  0 instructions:   10000001 cycles:   13953015 (Simulation time: 0 hr 0 min 8 sec) 

Heartbeat CPU  0 instructions:   11000000 cycles:   18752872 heartbeat IPC: 0.20834 cumulative IPC: 0.20834 (Simulation time: 0 hr 0 min 10 sec) 
Heartbeat CPU  0 instructions:   12000000 cycles:   23754842 heartbeat IPC: 0.19992 cumulative IPC: 0.20404 (Simulation time: 0 hr 0 min 11 sec) 
Heartbeat CPU  0 instructions:   13000002 cycles:   28419377 heartbeat IPC: 0.21438 cumulative IPC: 0.20738 (Simulation time: 0 hr 0 min 13 sec) 
Heartbeat CPU  0 instructions:   14000000 cycles:   32923492 heartbeat IPC: 0.22202 cumulative IPC: 0.21085 (Simulation time: 0 hr 0 min 15 sec) 
Heartbeat CPU  0 instructions:   15000003 cycles:   37440674 heartbeat IPC: 0.22138 cumulative IPC: 0.21288 (Simulation time: 0 hr 0 min 17 sec) 
Heartbeat CPU  0 instructions:   16000000 cycles:   41900980 heartbeat IPC: 0.22420 cumulative IPC: 0.21468 (Simulation time: 0 hr 0 min 18 sec) 
Heartbeat CPU  0 instructions:   17000000 cycles:   46388885 heartbeat IPC: 0.22282 cumulative IPC: 0.21581 (Simulation time: 0 hr 0 min 20 sec) 
Heartbeat CPU  0 instructions:   18000001 cycles:   50853394 heartbeat IPC: 0.22399 cumulative IPC: 0.21680 (Simulation time: 0 hr 0 min 22 sec) 
Heartbeat CPU  0 instructions:   19000000 cycles:   55383147 heartbeat IPC: 0.22076 cumulative IPC: 0.21723 (Simulation time: 0 hr 0 min 23 sec) 
Heartbeat CPU  0 instructions:   20000000 cycles:   59902540 heartbeat IPC: 0.22127 cumulative IPC: 0.21763 (Simulation time: 0 hr 0 min 25 sec) 
Heartbeat CPU  0 instructions:   21000001 cycles:   64373292 heartbeat IPC: 0.22368 cumulative IPC: 0.21817 (Simulation time: 0 hr 0 min 27 sec) 
Heartbeat CPU  0 instructions:   22000001 cycles:   68845048 heartbeat IPC: 0.22363 cumulative IPC: 0.21861 (Simulation time: 0 hr 0 min 28 sec) 
Heartbeat CPU  0 instructions:   23000000 cycles:   73316747 heartbeat IPC: 0.22363 cumulative IPC: 0.21899 (Simulation time: 0 hr 0 min 30 sec) 
Heartbeat CPU  0 instructions:   24000000 cycles:   77830229 heartbeat IPC: 0.22156 cumulative IPC: 0.21917 (Simulation time: 0 hr 0 min 32 sec) 
Heartbeat CPU  0 instructions:   25000001 cycles:   82308464 heartbeat IPC: 0.22330 cumulative IPC: 0.21944 (Simulation time: 0 hr 0 min 33 sec) 
Heartbeat CPU  0 instructions:   26000000 cycles:   86829537 heartbeat IPC: 0.22119 cumulative IPC: 0.21955 (Simulation time: 0 hr 0 min 35 sec) 
Heartbeat CPU  0 instructions:   27000001 cycles:   91297524 heartbeat IPC: 0.22381 cumulative IPC: 0.21980 (Simulation time: 0 hr 0 min 37 sec) 
Heartbeat CPU  0 instructions:   28000000 cycles:   95759204 heartbeat IPC: 0.22413 cumulative IPC: 0.22003 (Simulation time: 0 hr 0 min 38 sec) 
Heartbeat CPU  0 instructions:   29000000 cycles:  100192298 heartbeat IPC: 0.22558 cumulative IPC: 0.22032 (Simulation time: 0 hr 0 min 40 sec) 
Heartbeat CPU  0 instructions:   30000002 cycles:  104670089 heartbeat IPC: 0.22332 cumulative IPC: 0.22047 (Simulation time: 0 hr 0 min 42 sec) 
Heartbeat CPU  0 instructions:   31000000 cycles:  109160872 heartbeat IPC: 0.22268 cumulative IPC: 0.22057 (Simulation time: 0 hr 0 min 44 sec) 
Heartbeat CPU  0 instructions:   32000000 cycles:  113621814 heartbeat IPC: 0.22417 cumulative IPC: 0.22073 (Simulation time: 0 hr 0 min 45 sec) 
Heartbeat CPU  0 instructions:   33000001 cycles:  118080084 heartbeat IPC: 0.22430 cumulative IPC: 0.22088 (Simulation time: 0 hr 0 min 47 sec) 
Heartbeat CPU  0 instructions:   34000002 cycles:  122560866 heartbeat IPC: 0.22318 cumulative IPC: 0.22098 (Simulation time: 0 hr 0 min 49 sec) 
Heartbeat CPU  0 instructions:   35000000 cycles:  127061958 heartbeat IPC: 0.22217 cumulative IPC: 0.22103 (Simulation time: 0 hr 0 min 50 sec) 
Heartbeat CPU  0 instructions:   36000000 cycles:  131555330 heartbeat IPC: 0.22255 cumulative IPC: 0.22108 (Simulation time: 0 hr 0 min 52 sec) 
Heartbeat CPU  0 instructions:   37000000 cycles:  136002953 heartbeat IPC: 0.22484 cumulative IPC: 0.22122 (Simulation time: 0 hr 0 min 54 sec) 
Heartbeat CPU  0 instructions:   38000000 cycles:  140484510 heartbeat IPC: 0.22314 cumulative IPC: 0.22129 (Simulation time: 0 hr 0 min 55 sec) 
Heartbeat CPU  0 instructions:   39000000 cycles:  144975699 heartbeat IPC: 0.22266 cumulative IPC: 0.22134 (Simulation time: 0 hr 0 min 57 sec) 
Heartbeat CPU  0 instructions:   40000000 cycles:  149459072 heartbeat IPC: 0.22305 cumulative IPC: 0.22139 (Simulation time: 0 hr 0 min 59 sec) 
Heartbeat CPU  0 instructions:   41000000 cycles:  153946657 heartbeat IPC: 0.22284 cumulative IPC: 0.22144 (Simulation time: 0 hr 1 min 0 sec) 
Heartbeat CPU  0 instructions:   42000000 cycles:  158438380 heartbeat IPC: 0.22263 cumulative IPC: 0.22148 (Simulation time: 0 hr 1 min 2 sec) 
Heartbeat CPU  0 instructions:   43000000 cycles:  162906971 heartbeat IPC: 0.22378 cumulative IPC: 0.22154 (Simulation time: 0 hr 1 min 4 sec) 
Heartbeat CPU  0 instructions:   44000000 cycles:  167385062 heartbeat IPC: 0.22331 cumulative IPC: 0.22160 (Simulation time: 0 hr 1 min 6 sec) 
Heartbeat CPU  0 instructions:   45000000 cycles:  171884079 heartbeat IPC: 0.22227 cumulative IPC: 0.22162 (Simulation time: 0 hr 1 min 7 sec) 
Heartbeat CPU  0 instructions:   46000001 cycles:  176370814 heartbeat IPC: 0.22288 cumulative IPC: 0.22165 (Simulation time: 0 hr 1 min 9 sec) 
Heartbeat CPU  0 instructions:   47000000 cycles:  180862490 heartbeat IPC: 0.22263 cumulative IPC: 0.22168 (Simulation time: 0 hr 1 min 11 sec) 
Heartbeat CPU  0 instructions:   48000000 cycles:  185377405 heartbeat IPC: 0.22149 cumulative IPC: 0.22167 (Simulation time: 0 hr 1 min 12 sec) 
Heartbeat CPU  0 instructions:   49000000 cycles:  189860057 heartbeat IPC: 0.22308 cumulative IPC: 0.22171 (Simulation time: 0 hr 1 min 14 sec) 
Heartbeat CPU  0 instructions:   50000001 cycles:  194376954 heartbeat IPC: 0.22139 cumulative IPC: 0.22170 (Simulation time: 0 hr 1 min 16 sec) 
Heartbeat CPU  0 instructions:   51000003 cycles:  198887727 heartbeat IPC: 0.22169 cumulative IPC: 0.22170 (Simulation time: 0 hr 1 min 17 sec) 
Heartbeat CPU  0 instructions:   52000000 cycles:  203409427 heartbeat IPC: 0.22116 cumulative IPC: 0.22169 (Simulation time: 0 hr 1 min 19 sec) 
Heartbeat CPU  0 instructions:   53000000 cycles:  207943389 heartbeat IPC: 0.22056 cumulative IPC: 0.22166 (Simulation time: 0 hr 1 min 21 sec) 
Heartbeat CPU  0 instructions:   54000000 cycles:  212447423 heartbeat IPC: 0.22202 cumulative IPC: 0.22167 (Simulation time: 0 hr 1 min 22 sec) 
Heartbeat CPU  0 instructions:   55000000 cycles:  217405065 heartbeat IPC: 0.20171 cumulative IPC: 0.22118 (Simulation time: 0 hr 1 min 24 sec) 
Heartbeat CPU  0 instructions:   56000000 cycles:  224615771 heartbeat IPC: 0.13868 cumulative IPC: 0.21836 (Simulation time: 0 hr 1 min 26 sec) 
Heartbeat CPU  0 instructions:   57000003 cycles:  231878840 heartbeat IPC: 0.13768 cumulative IPC: 0.21567 (Simulation time: 0 hr 1 min 28 sec) 
Heartbeat CPU  0 instructions:   58000002 cycles:  239193354 heartbeat IPC: 0.13671 cumulative IPC: 0.21311 (Simulation time: 0 hr 1 min 30 sec) 
Heartbeat CPU  0 instructions:   59000000 cycles:  246424168 heartbeat IPC: 0.13830 cumulative IPC: 0.21078 (Simulation time: 0 hr 1 min 32 sec) 
Heartbeat CPU  0 instructions:   60000000 cycles:  253668643 heartbeat IPC: 0.13804 cumulative IPC: 0.20858 (Simulation time: 0 hr 1 min 35 sec) 
Finished CPU 0 instructions: 50000001 cycles: 239715642 cumulative IPC: 0.20858 (Simulation time: 0 hr 1 min 35 sec) 

ChampSim completed all CPUs

[ROI Statistics]
Core_0_instructions 50000001
Core_0_cycles 239715642
Core_0_IPC 0.20858

Core_0_branch_prediction_accuracy 87.16968
Core_0_branch_MPKI 26.28968
Core_0_average_ROB_occupancy_at_mispredict 36.70523

Core_0_L1D_total_access 10593104
Core_0_L1D_total_hit 7790497
Core_0_L1D_total_miss 2802607
Core_0_L1D_loads 9687981
Core_0_L1D_load_hit 6895726
Core_0_L1D_load_miss 2792255
Core_0_L1D_RFOs 905123
Core_0_L1D_RFO_hit 894771
Core_0_L1D_RFO_miss 10352
Core_0_L1D_prefetches 0
Core_0_L1D_prefetch_hit 0
Core_0_L1D_prefetch_miss 0
Core_0_L1D_writebacks 0
Core_0_L1D_writeback_hit 0
Core_0_L1D_writeback_miss 0
Core_0_L1D_prefetch_requested 0
Core_0_L1D_prefetch_dropped 0
Core_0_L1D_prefetch_issued 0
Core_0_L1D_prefetch_filled 0
Core_0_L1D_prefetch_useful 0
Core_0_L1D_prefetch_useless 0
Core_0_L1D_prefetch_late 0
Core_0_L1D_average_miss_latency 61.82201

Core_0_L1D_rq_access 13122942
Core_0_L1D_rq_forward 0
Core_0_L1D_rq_merged 3031408
Core_0_L1D_rq_to_cache 10091534
Core_0_L1D_rq_full 0

Core_0_L1D_wq_access 932376
Core_0_L1D_wq_forward 0
Core_0_L1D_wq_merged 57
Core_0_L1D_wq_to_cache 932319
Core_0_L1D_wq_full 191480

Core_0_L1D_pq_access 0
Core_0_L1D_pq_forward 0
Core_0_L1D_pq_merged 0
Core_0_L1D_pq_to_cache 0
Core_0_L1D_pq_full 0

Core_0_L1D_acc_epochs 244229
Core_0_L1D_acc_level_0 244229
Core_0_L1D_acc_level_1 0
Core_0_L1D_acc_level_2 0
Core_0_L1D_acc_level_3 0
Core_0_L1D_acc_level_4 0
Core_0_L1D_acc_level_5 0
Core_0_L1D_acc_level_6 0
Core_0_L1D_acc_level_7 0
Core_0_L1D_acc_level_8 0
Core_0_L1D_acc_level_9 0

Core_0_L1I_total_access 9745214
Core_0_L1I_total_hit 9745176
Core_0_L1I_total_miss 38
Core_0_L1I_loads 9745214
Core_0_L1I_load_hit 9745176
Core_0_L1I_load_miss 38
Core_0_L1I_RFOs 0
Core_0_L1I_RFO_hit 0
Core_0_L1I_RFO_miss 0
Core_0_L1I_prefetches 0
Core_0_L1I_prefetch_hit 0
Core_0_L1I_prefetch_miss 0
Core_0_L1I_writebacks 0
Core_0_L1I_writeback_hit 0
Core_0_L1I_writeback_miss 0
Core_0_L1I_prefetch_requested 0
Core_0_L1I_prefetch_dropped 0
Core_0_L1I_prefetch_issued 0
Core_0_L1I_prefetch_filled 0
Core_0_L1I_prefetch_useful 0
Core_0_L1I_prefetch_useless 0
Core_0_L1I_prefetch_late 0
Core_0_L1I_average_miss_latency 334.21053

Core_0_L1I_rq_access 50000017
Core_0_L1I_rq_forward 0
Core_0_L1I_rq_merged 40254790
Core_0_L1I_rq_to_cache 9745227
Core_0_L1I_rq_full 0

Core_0_L1I_wq_access 0
Core_0_L1I_wq_forward 0
Core_0_L1I_wq_merged 0
Core_0_L1I_wq_to_cache 0
Core_0_L1I_wq_full 0

Core_0_L1I_pq_access 0
Core_0_L1I_pq_forward 0
Core_0_L1I_pq_merged 0
Core_0_L1I_pq_to_cache 0
Core_0_L1I_pq_full 0

Core_0_L1I_acc_epochs 244229
Core_0_L1I_acc_level_0 244229
Core_0_L1I_acc_level_1 0
Core_0_L1I_acc_level_2 0
Core_0_L1I_acc_level_3 0
Core_0_L1I_acc_level_4 0
Core_0_L1I_acc_level_5 0
Core_0_L1I_acc_level_6 0
Core_0_L1I_acc_level_7 0
Core_0_L1I_acc_level_8 0
Core_0_L1I_acc_level_9 0

Core_0_L2C_total_access 2904322
Core_0_L2C_total_hit 2088943
Core_0_L2C_total_miss 815379
Core_0_L2C_loads 2792293
Core_0_L2C_load_hit 1985363
Core_0_L2C_load_miss 806930
Core_0_L2C_RFOs 10352
Core_0_L2C_RFO_hit 1904
Core_0_L2C_RFO_miss 8448
Core_0_L2C_prefetches 0
Core_0_L2C_prefetch_hit 0
Core_0_L2C_prefetch_miss 0
Core_0_L2C_writebacks 101677
Core_0_L2C_writeback_hit 101676
Core_0_L2C_writeback_miss 1
Core_0_L2C_prefetch_requested 0
Core_0_L2C_prefetch_dropped 0
Core_0_L2C_prefetch_issued 0
Core_0_L2C_prefetch_filled 0
Core_0_L2C_prefetch_useful 0
Core_0_L2C_prefetch_useless 0
Core_0_L2C_prefetch_late 0
Core_0_L2C_average_miss_latency 163.25638

Core_0_L2C_rq_access 2802645
Core_0_L2C_rq_forward 0
Core_0_L2C_rq_merged 0
Core_0_L2C_rq_to_cache 2802645
Core_0_L2C_rq_full 0

Core_0_L2C_wq_access 101677
Core_0_L2C_wq_forward 0
Core_0_L2C_wq_merged 0
Core_0_L2C_wq_to_cache 101677
Core_0_L2C_wq_full 0

Core_0_L2C_pq_access 0
Core_0_L2C_pq_forward 0
Core_0_L2C_pq_merged 0
Core_0_L2C_pq_to_cache 0
Core_0_L2C_pq_full 0

Core_0_L2C_acc_epochs 244229
Core_0_L2C_acc_level_0 244229
Core_0_L2C_acc_level_1 0
Core_0_L2C_acc_level_2 0
Core_0_L2C_acc_level_3 0
Core_0_L2C_acc_level_4 0
Core_0_L2C_acc_level_5 0
Core_0_L2C_acc_level_6 0
Core_0_L2C_acc_level_7 0
Core_0_L2C_acc_level_8 0
Core_0_L2C_acc_level_9 0

Core_0_LLC_total_access 916660
Core_0_LLC_total_hit 150129
Core_0_LLC_total_miss 766531
Core_0_LLC_loads 806930
Core_0_LLC_load_hit 101847
Core_0_LLC_load_miss 705083
Core_0_LLC_RFOs 8448
Core_0_LLC_RFO_hit 2095
Core_0_LLC_RFO_miss 6353
Core_0_LLC_prefetches 0
Core_0_LLC_prefetch_hit 0
Core_0_LLC_prefetch_miss 0
Core_0_LLC_writebacks 101282
Core_0_LLC_writeback_hit 46187
Core_0_LLC_writeback_miss 55095
Core_0_LLC_prefetch_requested 0
Core_0_LLC_prefetch_dropped 0
Core_0_LLC_prefetch_issued 0
Core_0_LLC_prefetch_filled 0
Core_0_LLC_prefetch_useful 0
Core_0_LLC_prefetch_useless 0
Core_0_LLC_prefetch_late 0
Core_0_LLC_average_miss_latency 141.68257

Core_0_LLC_rq_access 815378
Core_0_LLC_rq_forward 0
Core_0_LLC_rq_merged 0
Core_0_LLC_rq_to_cache 815378
Core_0_LLC_rq_full 0

Core_0_LLC_wq_access 101282
Core_0_LLC_wq_forward 0
Core_0_LLC_wq_merged 0
Core_0_LLC_wq_to_cache 101282
Core_0_LLC_wq_full 0

Core_0_LLC_pq_access 0
Core_0_LLC_pq_forward 0
Core_0_LLC_pq_merged 0
Core_0_LLC_pq_to_cache 0
Core_0_LLC_pq_full 0

Core_0_LLC_acc_epochs 247724
Core_0_LLC_acc_level_0 247724
Core_0_LLC_acc_level_1 0
Core_0_LLC_acc_level_2 0
Core_0_LLC_acc_level_3 0
Core_0_LLC_acc_level_4 0
Core_0_LLC_acc_level_5 0
Core_0_LLC_acc_level_6 0
Core_0_LLC_acc_level_7 0
Core_0_LLC_acc_level_8 0
Core_0_LLC_acc_level_9 0

Core_0_major_page_fault 0
Core_0_minor_page_fault 27074

Channel_0_RQ_row_buffer_hit 254558
Channel_0_RQ_row_buffer_miss 456878
Channel_0_WQ_row_buffer_hit 21281
Channel_0_WQ_row_buffer_miss 72539
Channel_0_WQ_full 450
Channel_0_dbus_congested 31966

avg_congested_cycle 8

DRAM_bw_pochs 990894
DRAM_bw_level_0 990025
DRAM_bw_level_1 580
DRAM_bw_level_2 192
DRAM_bw_level_3 97
