*************************************************
   ChampSim Multicore Out-of-Order Simulator
   Last compiled: Apr  3 2025 20:54:34
*************************************************
parsing config file: /home/zir/Pythia/config/mlop.ini

trace_0 /home/zir/ChampSim/ML-DPC/ChampSimTraces/gap/sssp-14.trace.gz
adding L2C_PREFETCHER: MLOP
Initialize SHIP state
warmup_instructions 10000000
simulation_instructions 50000000
champsim_seed 101
measure_ipc 0
measure_ipc_epoch 1000
measure_dram_bw 1
measure_dram_bw_epoch 256
measure_cache_acc 1
measure_cache_acc_epoch 1024
l1d_perfect 0
l2c_perfect 0
llc_perfect 0
l1d_semi_perfect 0
l2c_semi_perfect 0
llc_semi_perfect 0
semi_perfect_cache_page_buffer_size 64

num_cpus 1
cpu_freq 4000
dram_io_freq 2400
page_size 4096
block_size 64
max_read_per_cycle 8
max_fill_per_cycle 1
dram_channels 1
log2_dram_channels 0
dram_ranks 1
dram_banks 8
dram_rows 65536
dram_columns 128
dram_row_size 8
dram_size 4096
dram_pages 1048576

fetch_width 6
decode_width 6
exec_width 4
lq_width 2
sq_width 2
retire_width 4
scheduler_size 128
branch_mispredict_penalty 20
rob_size 256
lq_size 72
sq_size 56
num_instr_destinations_sparc 4
num_instr_destinations 2
num_instr_sources 4

itlb_set 16
itlb_way 8
itlb_rq_size 16
itlb_wq_size 16
itlb_pq_size 0
itlb_mshr_size 8
itlb_latency 1

dtlb_set 16
dtlb_way 4
dtlb_rq_size 16
dtlb_wq_size 16
dtlb_pq_size 0
dtlb_mshr_size 8
dtlb_latency 1

stlb_set 128
stlb_way 12
stlb_rq_size 32
stlb_wq_size 32
stlb_pq_size 0
stlb_mshr_size 16
stlb_latency 8

l1i_size 32
l1i_set 64
l1i_way 8
l1i_rq_size 64
l1i_wq_size 64
l1i_pq_size 8
l1i_mshr_size 8
l1i_latency 1

l1d_size 32
l1d_set 64
l1d_way 8
l1d_rq_size 64
l1d_wq_size 64
l1d_pq_size 8
l1d_mshr_size 16
l1d_latency 4

l2c_size 256
l2c_set 512
l2c_way 8
l2c_rq_size 32
l2c_wq_size 32
l2c_pq_size 32
l2c_mshr_size 32
l2c_latency 10

llc_size 2048
llc_set 2048
llc_way 16
llc_rq_size 32
llc_wq_size 32
llc_pq_size 32
llc_mshr_size 64
llc_latency 20

dram_channel_width 8
dram_wq_size 64
dram_rq_size 64
tRP 15
tRCD 15
tCAS 12.5
dram_dbus_turn_around_time 30
dram_write_high_wm 56
dram_write_low_wm 48
min_dram_writes_per_switch 16
dram_mtps 2400
dram_dbus_return_time 13

mlop_pref_degree 16
mlop_num_updates 500
mlop_l1d_thresh 2
mlop_l2c_thresh 0.75
mlop_llc_thresh 0.3
mlop_debug_level 0
mlop_blocks_in_cache 4096
mlop_blocks_in_zone 64
mlop_amt_size 2048
mlop_PF_DEGREE 16
mlop_NUM_UPDATES 500
mlop_L1D_THRESH 1000
mlop_L2C_THRESH 375
mlop_LLC_THRESH 150
mlop_ORIGIN 63
mlop_MAX_OFFSET 63
mlop_MIN_OFFSET -63
mlop_ORIGIN 63
mlop_NUM_OFFSETS 127


Heartbeat CPU  0 instructions:    1000003 cycles:     262101 heartbeat IPC: 3.81533 cumulative IPC: 3.81533 (Simulation time: 0 hr 0 min 1 sec) 
Heartbeat CPU  0 instructions:    2000001 cycles:     775291 heartbeat IPC: 1.94859 cumulative IPC: 2.57968 (Simulation time: 0 hr 0 min 2 sec) 
Heartbeat CPU  0 instructions:    3000000 cycles:    1355293 heartbeat IPC: 1.72413 cumulative IPC: 2.21354 (Simulation time: 0 hr 0 min 3 sec) 
Heartbeat CPU  0 instructions:    4000000 cycles:    2061852 heartbeat IPC: 1.41531 cumulative IPC: 1.94000 (Simulation time: 0 hr 0 min 5 sec) 
Heartbeat CPU  0 instructions:    5000002 cycles:    2836660 heartbeat IPC: 1.29064 cumulative IPC: 1.76264 (Simulation time: 0 hr 0 min 6 sec) 
Heartbeat CPU  0 instructions:    6000003 cycles:    3703709 heartbeat IPC: 1.15334 cumulative IPC: 1.62000 (Simulation time: 0 hr 0 min 7 sec) 
Heartbeat CPU  0 instructions:    7000001 cycles:    4561071 heartbeat IPC: 1.16637 cumulative IPC: 1.53473 (Simulation time: 0 hr 0 min 8 sec) 
Heartbeat CPU  0 instructions:    8000000 cycles:    5432191 heartbeat IPC: 1.14795 cumulative IPC: 1.47270 (Simulation time: 0 hr 0 min 10 sec) 
Heartbeat CPU  0 instructions:    9000000 cycles:    6298243 heartbeat IPC: 1.15467 cumulative IPC: 1.42897 (Simulation time: 0 hr 0 min 11 sec) 
Heartbeat CPU  0 instructions:   10000000 cycles:    7165113 heartbeat IPC: 1.15358 cumulative IPC: 1.39565 (Simulation time: 0 hr 0 min 12 sec) 

Warmup complete CPU  0 instructions:   10000001 cycles:    7165116 (Simulation time: 0 hr 0 min 12 sec) 

Heartbeat CPU  0 instructions:   11000003 cycles:   11405023 heartbeat IPC: 0.23585 cumulative IPC: 0.23585 (Simulation time: 0 hr 0 min 14 sec) 
Heartbeat CPU  0 instructions:   12000000 cycles:   15569201 heartbeat IPC: 0.24014 cumulative IPC: 0.23798 (Simulation time: 0 hr 0 min 16 sec) 
Heartbeat CPU  0 instructions:   13000002 cycles:   19886120 heartbeat IPC: 0.23165 cumulative IPC: 0.23583 (Simulation time: 0 hr 0 min 18 sec) 
Heartbeat CPU  0 instructions:   14000001 cycles:   24154466 heartbeat IPC: 0.23428 cumulative IPC: 0.23544 (Simulation time: 0 hr 0 min 20 sec) 
Heartbeat CPU  0 instructions:   15000001 cycles:   28100343 heartbeat IPC: 0.25343 cumulative IPC: 0.23883 (Simulation time: 0 hr 0 min 22 sec) 
Heartbeat CPU  0 instructions:   16000000 cycles:   31954282 heartbeat IPC: 0.25947 cumulative IPC: 0.24204 (Simulation time: 0 hr 0 min 24 sec) 
Heartbeat CPU  0 instructions:   17000003 cycles:   35890867 heartbeat IPC: 0.25403 cumulative IPC: 0.24368 (Simulation time: 0 hr 0 min 26 sec) 
Heartbeat CPU  0 instructions:   18000000 cycles:   40162307 heartbeat IPC: 0.23411 cumulative IPC: 0.24244 (Simulation time: 0 hr 0 min 28 sec) 
Heartbeat CPU  0 instructions:   19000000 cycles:   44420144 heartbeat IPC: 0.23486 cumulative IPC: 0.24158 (Simulation time: 0 hr 0 min 30 sec) 
Heartbeat CPU  0 instructions:   20000000 cycles:   48120215 heartbeat IPC: 0.27027 cumulative IPC: 0.24417 (Simulation time: 0 hr 0 min 32 sec) 
Heartbeat CPU  0 instructions:   21000002 cycles:   51826409 heartbeat IPC: 0.26982 cumulative IPC: 0.24630 (Simulation time: 0 hr 0 min 34 sec) 
Heartbeat CPU  0 instructions:   22000001 cycles:   55484988 heartbeat IPC: 0.27333 cumulative IPC: 0.24835 (Simulation time: 0 hr 0 min 37 sec) 
Heartbeat CPU  0 instructions:   23000000 cycles:   59100790 heartbeat IPC: 0.27656 cumulative IPC: 0.25031 (Simulation time: 0 hr 0 min 39 sec) 
Heartbeat CPU  0 instructions:   24000000 cycles:   62898980 heartbeat IPC: 0.26328 cumulative IPC: 0.25119 (Simulation time: 0 hr 0 min 41 sec) 
Heartbeat CPU  0 instructions:   25000000 cycles:   66422861 heartbeat IPC: 0.28378 cumulative IPC: 0.25313 (Simulation time: 0 hr 0 min 43 sec) 
Heartbeat CPU  0 instructions:   26000003 cycles:   69904094 heartbeat IPC: 0.28726 cumulative IPC: 0.25502 (Simulation time: 0 hr 0 min 45 sec) 
Heartbeat CPU  0 instructions:   27000002 cycles:   73387062 heartbeat IPC: 0.28711 cumulative IPC: 0.25671 (Simulation time: 0 hr 0 min 47 sec) 
Heartbeat CPU  0 instructions:   28000000 cycles:   76891222 heartbeat IPC: 0.28537 cumulative IPC: 0.25815 (Simulation time: 0 hr 0 min 49 sec) 
Heartbeat CPU  0 instructions:   29000001 cycles:   80309051 heartbeat IPC: 0.29258 cumulative IPC: 0.25976 (Simulation time: 0 hr 0 min 51 sec) 
Heartbeat CPU  0 instructions:   30000001 cycles:   83806702 heartbeat IPC: 0.28591 cumulative IPC: 0.26095 (Simulation time: 0 hr 0 min 53 sec) 
Heartbeat CPU  0 instructions:   31000003 cycles:   87186717 heartbeat IPC: 0.29586 cumulative IPC: 0.26243 (Simulation time: 0 hr 0 min 55 sec) 
Heartbeat CPU  0 instructions:   32000000 cycles:   90519349 heartbeat IPC: 0.30006 cumulative IPC: 0.26393 (Simulation time: 0 hr 0 min 57 sec) 
Heartbeat CPU  0 instructions:   33000002 cycles:   94091643 heartbeat IPC: 0.27993 cumulative IPC: 0.26459 (Simulation time: 0 hr 0 min 59 sec) 
Heartbeat CPU  0 instructions:   34000003 cycles:   97501040 heartbeat IPC: 0.29331 cumulative IPC: 0.26568 (Simulation time: 0 hr 1 min 1 sec) 
Heartbeat CPU  0 instructions:   35000002 cycles:  100801912 heartbeat IPC: 0.30295 cumulative IPC: 0.26699 (Simulation time: 0 hr 1 min 3 sec) 
Heartbeat CPU  0 instructions:   36000000 cycles:  104242663 heartbeat IPC: 0.29063 cumulative IPC: 0.26783 (Simulation time: 0 hr 1 min 6 sec) 
Heartbeat CPU  0 instructions:   37000002 cycles:  107585598 heartbeat IPC: 0.29914 cumulative IPC: 0.26887 (Simulation time: 0 hr 1 min 8 sec) 
Heartbeat CPU  0 instructions:   38000003 cycles:  110851588 heartbeat IPC: 0.30619 cumulative IPC: 0.27004 (Simulation time: 0 hr 1 min 10 sec) 
Heartbeat CPU  0 instructions:   39000001 cycles:  114101273 heartbeat IPC: 0.30772 cumulative IPC: 0.27119 (Simulation time: 0 hr 1 min 12 sec) 
Heartbeat CPU  0 instructions:   40000000 cycles:  117302240 heartbeat IPC: 0.31241 cumulative IPC: 0.27239 (Simulation time: 0 hr 1 min 14 sec) 
Heartbeat CPU  0 instructions:   41000000 cycles:  120494496 heartbeat IPC: 0.31326 cumulative IPC: 0.27354 (Simulation time: 0 hr 1 min 16 sec) 
Heartbeat CPU  0 instructions:   42000002 cycles:  123770767 heartbeat IPC: 0.30523 cumulative IPC: 0.27443 (Simulation time: 0 hr 1 min 18 sec) 
Heartbeat CPU  0 instructions:   43000000 cycles:  126981962 heartbeat IPC: 0.31141 cumulative IPC: 0.27542 (Simulation time: 0 hr 1 min 20 sec) 
Heartbeat CPU  0 instructions:   44000000 cycles:  130176153 heartbeat IPC: 0.31307 cumulative IPC: 0.27640 (Simulation time: 0 hr 1 min 23 sec) 
Heartbeat CPU  0 instructions:   45000001 cycles:  133360499 heartbeat IPC: 0.31404 cumulative IPC: 0.27735 (Simulation time: 0 hr 1 min 25 sec) 
Heartbeat CPU  0 instructions:   46000003 cycles:  136504956 heartbeat IPC: 0.31802 cumulative IPC: 0.27834 (Simulation time: 0 hr 1 min 27 sec) 
Heartbeat CPU  0 instructions:   47000001 cycles:  139710362 heartbeat IPC: 0.31197 cumulative IPC: 0.27915 (Simulation time: 0 hr 1 min 29 sec) 
Heartbeat CPU  0 instructions:   48000000 cycles:  142806485 heartbeat IPC: 0.32298 cumulative IPC: 0.28015 (Simulation time: 0 hr 1 min 31 sec) 
Heartbeat CPU  0 instructions:   49000000 cycles:  145947245 heartbeat IPC: 0.31839 cumulative IPC: 0.28102 (Simulation time: 0 hr 1 min 33 sec) 
Heartbeat CPU  0 instructions:   50000000 cycles:  149037867 heartbeat IPC: 0.32356 cumulative IPC: 0.28194 (Simulation time: 0 hr 1 min 35 sec) 
Heartbeat CPU  0 instructions:   51000001 cycles:  152130449 heartbeat IPC: 0.32335 cumulative IPC: 0.28283 (Simulation time: 0 hr 1 min 38 sec) 
Heartbeat CPU  0 instructions:   52000000 cycles:  155216302 heartbeat IPC: 0.32406 cumulative IPC: 0.28369 (Simulation time: 0 hr 1 min 40 sec) 
Heartbeat CPU  0 instructions:   53000001 cycles:  158293737 heartbeat IPC: 0.32495 cumulative IPC: 0.28453 (Simulation time: 0 hr 1 min 42 sec) 
Heartbeat CPU  0 instructions:   54000000 cycles:  161506148 heartbeat IPC: 0.31129 cumulative IPC: 0.28508 (Simulation time: 0 hr 1 min 44 sec) 
Heartbeat CPU  0 instructions:   55000003 cycles:  164757544 heartbeat IPC: 0.30756 cumulative IPC: 0.28555 (Simulation time: 0 hr 1 min 46 sec) 
Heartbeat CPU  0 instructions:   56000000 cycles:  167841227 heartbeat IPC: 0.32429 cumulative IPC: 0.28629 (Simulation time: 0 hr 1 min 48 sec) 
Heartbeat CPU  0 instructions:   57000002 cycles:  170875393 heartbeat IPC: 0.32958 cumulative IPC: 0.28709 (Simulation time: 0 hr 1 min 50 sec) 
Heartbeat CPU  0 instructions:   58000001 cycles:  174072652 heartbeat IPC: 0.31277 cumulative IPC: 0.28758 (Simulation time: 0 hr 1 min 53 sec) 
Heartbeat CPU  0 instructions:   59000000 cycles:  177123725 heartbeat IPC: 0.32775 cumulative IPC: 0.28831 (Simulation time: 0 hr 1 min 55 sec) 
Heartbeat CPU  0 instructions:   60000000 cycles:  180231938 heartbeat IPC: 0.32173 cumulative IPC: 0.28891 (Simulation time: 0 hr 1 min 57 sec) 
Finished CPU 0 instructions: 50000003 cycles: 173066835 cumulative IPC: 0.28891 (Simulation time: 0 hr 1 min 57 sec) 

ChampSim completed all CPUs

[ROI Statistics]
Core_0_instructions 50000003
Core_0_cycles 173066835
Core_0_IPC 0.28891

Core_0_branch_prediction_accuracy 94.06209
Core_0_branch_MPKI 8.73346
Core_0_average_ROB_occupancy_at_mispredict 102.94132

Core_0_L1D_total_access 12517380
Core_0_L1D_total_hit 9931489
Core_0_L1D_total_miss 2585891
Core_0_L1D_loads 11168990
Core_0_L1D_load_hit 8868603
Core_0_L1D_load_miss 2300387
Core_0_L1D_RFOs 1348390
Core_0_L1D_RFO_hit 1062886
Core_0_L1D_RFO_miss 285504
Core_0_L1D_prefetches 0
Core_0_L1D_prefetch_hit 0
Core_0_L1D_prefetch_miss 0
Core_0_L1D_writebacks 0
Core_0_L1D_writeback_hit 0
Core_0_L1D_writeback_miss 0
Core_0_L1D_prefetch_requested 0
Core_0_L1D_prefetch_dropped 0
Core_0_L1D_prefetch_issued 0
Core_0_L1D_prefetch_filled 0
Core_0_L1D_prefetch_useful 0
Core_0_L1D_prefetch_useless 0
Core_0_L1D_prefetch_late 0
Core_0_L1D_average_miss_latency 92.87411

Core_0_L1D_rq_access 17864519
Core_0_L1D_rq_forward 0
Core_0_L1D_rq_merged 6492593
Core_0_L1D_rq_to_cache 11371923
Core_0_L1D_rq_full 0

Core_0_L1D_wq_access 1461202
Core_0_L1D_wq_forward 3
Core_0_L1D_wq_merged 1004
Core_0_L1D_wq_to_cache 1460198
Core_0_L1D_wq_full 0

Core_0_L1D_pq_access 0
Core_0_L1D_pq_forward 0
Core_0_L1D_pq_merged 0
Core_0_L1D_pq_to_cache 0
Core_0_L1D_pq_full 0

Core_0_L1D_acc_epochs 175009
Core_0_L1D_acc_level_0 175009
Core_0_L1D_acc_level_1 0
Core_0_L1D_acc_level_2 0
Core_0_L1D_acc_level_3 0
Core_0_L1D_acc_level_4 0
Core_0_L1D_acc_level_5 0
Core_0_L1D_acc_level_6 0
Core_0_L1D_acc_level_7 0
Core_0_L1D_acc_level_8 0
Core_0_L1D_acc_level_9 0

Core_0_L1I_total_access 7328816
Core_0_L1I_total_hit 7328815
Core_0_L1I_total_miss 1
Core_0_L1I_loads 7328816
Core_0_L1I_load_hit 7328815
Core_0_L1I_load_miss 1
Core_0_L1I_RFOs 0
Core_0_L1I_RFO_hit 0
Core_0_L1I_RFO_miss 0
Core_0_L1I_prefetches 0
Core_0_L1I_prefetch_hit 0
Core_0_L1I_prefetch_miss 0
Core_0_L1I_writebacks 0
Core_0_L1I_writeback_hit 0
Core_0_L1I_writeback_miss 0
Core_0_L1I_prefetch_requested 0
Core_0_L1I_prefetch_dropped 0
Core_0_L1I_prefetch_issued 0
Core_0_L1I_prefetch_filled 0
Core_0_L1I_prefetch_useful 0
Core_0_L1I_prefetch_useless 0
Core_0_L1I_prefetch_late 0
Core_0_L1I_average_miss_latency 231.00000

Core_0_L1I_rq_access 49999998
Core_0_L1I_rq_forward 0
Core_0_L1I_rq_merged 42671182
Core_0_L1I_rq_to_cache 7328816
Core_0_L1I_rq_full 0

Core_0_L1I_wq_access 0
Core_0_L1I_wq_forward 0
Core_0_L1I_wq_merged 0
Core_0_L1I_wq_to_cache 0
Core_0_L1I_wq_full 0

Core_0_L1I_pq_access 0
Core_0_L1I_pq_forward 0
Core_0_L1I_pq_merged 0
Core_0_L1I_pq_to_cache 0
Core_0_L1I_pq_full 0

Core_0_L1I_acc_epochs 175009
Core_0_L1I_acc_level_0 175009
Core_0_L1I_acc_level_1 0
Core_0_L1I_acc_level_2 0
Core_0_L1I_acc_level_3 0
Core_0_L1I_acc_level_4 0
Core_0_L1I_acc_level_5 0
Core_0_L1I_acc_level_6 0
Core_0_L1I_acc_level_7 0
Core_0_L1I_acc_level_8 0
Core_0_L1I_acc_level_9 0

Core_0_L2C_total_access 3872481
Core_0_L2C_total_hit 1466837
Core_0_L2C_total_miss 2405644
Core_0_L2C_loads 2300376
Core_0_L2C_load_hit 468291
Core_0_L2C_load_miss 1832085
Core_0_L2C_RFOs 285477
Core_0_L2C_RFO_hit 185671
Core_0_L2C_RFO_miss 99806
Core_0_L2C_prefetches 471693
Core_0_L2C_prefetch_hit 300
Core_0_L2C_prefetch_miss 471393
Core_0_L2C_writebacks 814935
Core_0_L2C_writeback_hit 812575
Core_0_L2C_writeback_miss 2360
Core_0_L2C_prefetch_requested 1095603
Core_0_L2C_prefetch_dropped 0
Core_0_L2C_prefetch_issued 1095603
Core_0_L2C_prefetch_filled 495382
Core_0_L2C_prefetch_useful 247803
Core_0_L2C_prefetch_useless 246767
Core_0_L2C_prefetch_late 3679
Core_0_L2C_average_miss_latency 95.45780

Core_0_L2C_rq_access 2585892
Core_0_L2C_rq_forward 0
Core_0_L2C_rq_merged 0
Core_0_L2C_rq_to_cache 2585853
Core_0_L2C_rq_full 0

Core_0_L2C_wq_access 814935
Core_0_L2C_wq_forward 40
Core_0_L2C_wq_merged 0
Core_0_L2C_wq_to_cache 814935
Core_0_L2C_wq_full 0

Core_0_L2C_pq_access 1095603
Core_0_L2C_pq_forward 0
Core_0_L2C_pq_merged 17843
Core_0_L2C_pq_to_cache 1077759
Core_0_L2C_pq_full 0

Core_0_L2C_acc_epochs 175009
Core_0_L2C_acc_level_0 31801
Core_0_L2C_acc_level_1 3120
Core_0_L2C_acc_level_2 8727
Core_0_L2C_acc_level_3 17872
Core_0_L2C_acc_level_4 24110
Core_0_L2C_acc_level_5 21775
Core_0_L2C_acc_level_6 17716
Core_0_L2C_acc_level_7 16636
Core_0_L2C_acc_level_8 12591
Core_0_L2C_acc_level_9 20661

Core_0_LLC_total_access 3383885
Core_0_LLC_total_hit 2212735
Core_0_LLC_total_miss 1171150
Core_0_LLC_loads 1828435
Core_0_LLC_load_hit 1083112
Core_0_LLC_load_miss 745323
Core_0_LLC_RFOs 99802
Core_0_LLC_RFO_hit 43158
Core_0_LLC_RFO_miss 56644
Core_0_LLC_prefetches 924986
Core_0_LLC_prefetch_hit 594153
Core_0_LLC_prefetch_miss 330833
Core_0_LLC_writebacks 530662
Core_0_LLC_writeback_hit 492312
Core_0_LLC_writeback_miss 38350
Core_0_LLC_prefetch_requested 0
Core_0_LLC_prefetch_dropped 0
Core_0_LLC_prefetch_issued 0
Core_0_LLC_prefetch_filled 424522
Core_0_LLC_prefetch_useful 70238
Core_0_LLC_prefetch_useless 346584
Core_0_LLC_prefetch_late 1362
Core_0_LLC_average_miss_latency 181.60802

Core_0_LLC_rq_access 1928239
Core_0_LLC_rq_forward 0
Core_0_LLC_rq_merged 0
Core_0_LLC_rq_to_cache 1928237
Core_0_LLC_rq_full 0

Core_0_LLC_wq_access 530662
Core_0_LLC_wq_forward 3
Core_0_LLC_wq_merged 0
Core_0_LLC_wq_to_cache 530662
Core_0_LLC_wq_full 0

Core_0_LLC_pq_access 1050176
Core_0_LLC_pq_forward 0
Core_0_LLC_pq_merged 1126
Core_0_LLC_pq_to_cache 1049049
Core_0_LLC_pq_full 0

Core_0_LLC_acc_epochs 176008
Core_0_LLC_acc_level_0 138883
Core_0_LLC_acc_level_1 9144
Core_0_LLC_acc_level_2 6820
Core_0_LLC_acc_level_3 1814
Core_0_LLC_acc_level_4 1287
Core_0_LLC_acc_level_5 3930
Core_0_LLC_acc_level_6 1423
Core_0_LLC_acc_level_7 1748
Core_0_LLC_acc_level_8 2095
Core_0_LLC_acc_level_9 8864

Core_0_major_page_fault 0
Core_0_minor_page_fault 8845

[MLOP] History of tracked zone:
IIIIIIIIIIIIIIIIIIIIIIIIIIIIIIIIIIIIIIIIIIIIIIIIIIIIIIIIIIIIIIII
IIAIIIIIIIIIIIIIIIIIIIIIIIIIIIIIIIIIIIIIIIIIIIIIIIIIIIIIIIIIIIII
IIAIIIIIIIIIIIIIIIIIIIIIIIIIIIIIIIIIIIIIIIIIIIIIIIIIIIAIIIIIIIII
IIAIIIIIIIIIIIIAIIIIIIIIIIIIIIIIIIIIIIIIIIIIIIIIIIIIIIAIIIIIIIII
IIAIIAIIIIIIIIIAIIIIIIIIIIIIIIIIIIIIIIIIIIIIIIIIIIIIIIAIIIIIIIII
IIAIIAIIIIIIIIIAIIIIIIIIIIIIIAIIIIIIIIIIIIIIIIIIIIIIIIAIIIIIIIII
IAAIIAIIIIIIIIIAIIIIIIIIIIIIIAIIIIIIIIIIIIIIIIIIIIIIIIAIIIIIIIII
IAAIIAIIIIIAIIIAIIIIIIIIIIIIIAIIIIIIIIIIIIIIIIIIIIIIIIAIIIIIIIII
IAAIIAIIIIIAIAIAIIIIIIIIIIIIIAIIIIIIIIIIIIIIIIIIIIIIIIAIIIIIIIII
IAAIIAIIIIIAIAIAAIIIIIIIIIIIIAIIIIIIIIIIIIIIIIIIIIIIIIAIIIIIIIII
IAAIIAIIIIIAIAIAAIIIIIIIIIIAIAIIIIIIIIIIIIIIIIIIIIIIIIAIIIIIIIII
IAAIIAIIIIIAIAIAAIIIIIIIIIIAIAIIIIIIIIIIIIIIIIAIIIIIIIAIIIIIIIII
IAAIIAIIIIIAIAIAAIIIIIIIIIIAIAIIIIIIIIIIIIIIIIAIIIAIIIAIIIIIIIII
IAAIIAIIIIIAIAIAAIIIIIIIIIIAIAIIIIIIIIIIIIIIIIAIIIAIIIAIAIIIIIII
IAAIIA4444IAIAIAAIIIIIIIIIIAIAIIIIIIIIIIIIIIIIAIIIAIIIAIAIIIIIII
IAAIIA4444IAIAIAAIIIIIIIIIIAIAIIIIIIIIIIIIIIIIAIIIAIIIAIAIIAIIII
IAAIIAA4444AIAIAAIIIIIIIIIIAIAIIIIIIIIIIIIIIIIAIIIAIIIAIAIIAIIII
IAAIIAAA444A4A4AAIIIIIIIIIIAIAIIIIIIIIIIIIIIIIAIIIAIIIAIAIIAIIII
IAAIIAAA444A4A4AAI4IIIIIIIIAIAIIIIIIIIIIIIIIIIAIIIAIIIAIAIIAIIII
IAAIIAAA444A4A4AAI4IIIIIIIIAIAIIIIIIAI4444I4IIAIIIAIIIAIAIIAIIII
IAAIIAAA444A4A4AAI4IIIIIIIIAIAIIIIIIAI4444I4IIAIIIAI44A4A4IAIIII
IAAIIAAA444A4A4AAI4IIIIIIIIAIAIIIIIIAI4444I4IIAIIIAI44A4A4IAIIAI
IAAIAAAA444A4A4AAI44IIIIIIIAIAIIIIIIAI4444I4IIAIIIAI44A4A4IAIIAI
IAAIAAAA444A4A4AAI44IIIIIIIAIA4II44IA4444444IIAIIIAI44A4A4IAIIAI
IAAIAAAA444A4A4AAI44IIIIIIIAAA44444IA4444444IIAIIIAI44A4A4IAIIAI
IAAIAAAA444A4A4AAI44IIIIIIIAAA44444IA4444444IIAA44AI44A4A44A4IAI
IAAIAAAA444A4A4AAI44IIIIIIIAAA44444IA4444444IIAAA4A444A4A44A4IA4
IAAIAAAA444A4A4AAI44IIIIIIIAAA44444IA4444444IIAAA4A444A4A4AA44A4
IAAIAAAA444A4A4AAI4444IIIIIAAA44444IA4444444IIAAA4A444A4A4AA44A4
IAAIAAAA444A4A4AAI4444III44AAA44444IA4444444IIAAA4A444A4A4AA44A4
IAAIAAAA444A4A4AAI4444III44AAA444A4IA4444444IIAAA4A444A4A4AA44A4
IAA4AAAA444A4A4AA44444III44AAA444A4IA4444444IIAAA4A444A4A4AA44A4
IAA4AAAA444A4A4AA4444444I44AAA444A4IA4444444IIAAA4A444A4A4AA44A4
IAA4AAAA444A4AAAA4444444I44AAA444A4IA4444444IIAAA4A444A4A4AA44A4
IAA4AAAA444A4AAAA4444444444AAA444A4IA4444444IIAAA4A444A4A4AA44A4
IAA4AAAA444A4AAAA4444444444AAA444A4IA4444444IAAAA4A444A4A4AA44A4
IAA4AAAA444A4AAAAA444444444AAA444A4IA4444444IAAAA4A444A4A4AA44A4
IAA4AAAA444A4AAAAA444444444AAA444A4AA44444444AAAA4A444A4A4AA44A4
AAA4AAAA444A4AAAAA444444444AAA444A4AA44444444AAAA4A444A4A4AA44A4
AAAAAAAA444A4AAAAA444444444AAA444A4AA44444444AAAA4A444A4A4AA44A4
AAAAAAAA444A4AAAAA44A444444AAA444A4AA44444444AAAA4A444A4A4AA44A4
AAAAAAAA444A4AAAAA44A444444AAA444A4AA44A44444AAAA4A444A4A4AA44A4
AAAAAAAA444A4AAAAA44A444444AAA444A4AA44A44444AAAA4A4A4A4A4AA44A4
AAAAAAAA444A4AAAAA44A444444AAA444A4AA44A44444AAAA4A4A4A4A4AAA4A4
AAAAAAAA444A4AAAAA44A444444AAA44AA4AA44A44444AAAA4A4A4A4A4AAA4A4
AAAAAAAA444A4AAAAAA4A444444AAA44AA4AA44A44444AAAA4A4A4A4A4AAA4A4
AAAAAAAA444A4AAAAAA4A4444A4AAA44AA4AA44A44444AAAA4A4A4A4A4AAA4A4
AAAAAAAA4A4A4AAAAAA4A4444A4AAA44AA4AA44A44444AAAA4A4A4A4A4AAA4A4
AAAAAAAA4A4A4AAAAAA4A4444A4AAA44AA4AA44A44444AAAA4AAA4A4A4AAA4A4
AIAAAAAA4A4A4AAAAAA4A4444A4AAA44AA4AA44A44444AAAA4AAA4A4A4AAA4A4
AIAAAIAA4A4A4AAAAAA4A4444A4AAA44AA4AA44A44444AAAA4AAA4A4A4AAA4A4
AIAAIIAA4A4A4AAAAAA4A4444A4AAA44AA4AA44A44444AAAA4AAA4A4A4AAA4A4
AIAAIIAA4A4A4AAAAAA4A4444AAAAA44AA4AA44A44444AAAA4AAA4A4A4AAA4A4
AAAA44AA4A4A4AAAAAA4A4444AAAAA44AA4AA44A44444AAAA4AAA4A4A4AAA4A4
AAAA44AA4A4AAAAAAAA4A4444AAAAA44AA4AA44A44444AAAA4AAA4A4A4AAA4A4
AAAA44AA4A4AAAAAAAA4A4444AAAAA44AA4AA44AA4444AAAA4AAA4A4A4AAA4A4
AAAA4AAA4A4AAAAAAAA4A4444AAAAA44AA4AA44AA4444AAAA4AAA4A4A4AAA4A4
AAAA4AAA4A4AAAAAAAA4A4444AAAAA44AAAAA44AA4444AAAA4AAA4A4A4AAA4A4
AAAA4AAA4A4AAAAAAAA4A4444AAAAA44AAAAA44AA44A4AAAA4AAA4A4A4AAA4A4
AAAA4AAA4A4AAAAAAAA4A444AAAAAA44AAAAA44AA44A4AAAA4AAA4A4A4AAA4A4
AAAA4AAA2A4AAAAAAAA4A444AAAAAA44AAAAA44AA44A4AAAA4AAA4A4A4AAA4A4
AAAA4AAA2A4AAAAAAAA4A444AIAAAA44AAAAA44AA44A4AAAA4AAA4A4A4AAA4A4
AAAA4AAA2A4AAAAAAAA4A444AIAAAA44AAAAA44AA44A4AAAA4AAA4A4A4IAA4A4
AAAA4AAA2A4AAAAAAAA4A444AIAAAA44AAAAA44AA44A4AAAA4AAA4A4A44AA4A4
AAAA4AAAAA4AAAAAAAA4A444AIAAAA44AAAAA44AA44A4AAAA4AAA4A4A44AA4A4
AAAA4AAAAA2AAAAAAAA4A444A4AAAA44AAAAA44AA44A4AAAA4AAA4A4A44AA4A4
AAAA4AAAAA2AAAAAAAA2A444A4AAAA44AAAAA44AA44A4AAAA4AAA4A4A44AA4A4
AAAA4AAAAA2AAAAAAAA2A444AAAAAA44AAAAA44AA44A4AAAA4AAA4A4A44AA4A4
AAAA4AAAIA2AAAAAAAA2A444AAAAAA44AAAAA44AA44A4AAAA4AAA4A4A44AA4A4
AAAA4AAAIAIAAAAAAAA2A444AAAAAA44AAAAA44AA44A4AAAA4AAA4A4A44AA4A4
AAAA4AAA4A4AAAAAAAA2A444AAAAAA44AAAAA44AA44A4AAAA4AAA4A4A44AA4A4
AAAA4AAA4I4AAAAAAAA2A444AAAAAA44AAAAA44AA44A4AAAA4AAA4A4A44AA4A4
AAAA4AAA4I4AAAAAAAA2A444AAAAAA44AAAAA44AA44A4AAAA4AAA4A4A24AA4A4
AAAA4AAA4I4AAAAAAAA2A444AAAAAI44AAAAA44AA44A4AAAA4AAA4A4A24AA4A4
AAAA4AAA444AAAAAAAA2A444AAAAAI44AAAAA44AA44A4AAAA4AAA4A4A24AA4A4
AAAA4AAA4A4AAAAAAAA2A444AAAAAI44AAAAA44AA44A4AAAA4AAA4A4A24AA4A4
AAAA4AAA4A4AAAAAAAA2A444AAAAAI24AAAAA44AA44A4AAAA4AAA4A4A24AA4A4
AAAA4AAA4I4AAAAAAAA2A444AAAAAI24AAAAA44AA44A4AAAA4AAA4A4A24AA4A4
AAIA4AAA4I4AAAAAAAA2A444AAAAAI24AAAAA44AA44A4AAAA4AAA4A4A24AA4A4
AAIA4AAA4I4AAAAAAAA2A444AAAIAI24AAAAA44AA44A4AAAA4AAA4A4A24AA4A4
AAIA4AAA4I4AAAAAAAA2A444AAAIAII4AAAAA44AA44A4AAAA4AAA4A4A24AA4A4
AAIA4AAA444AAAAAAAA2A444AAAIAII4AAAAA44AA44A4AAAA4AAA4A4A24AA4A4
AAIA4AAA444AAAAAAAA2A444AAA4A4I4AAAAA44AA44A4AAAA4AAA4A4A24AA4A4
AAIA4AAA444AAAAAAAA2A444AAA4A4I4AAAAA44AA44A4AAAAAAAA4A4A24AA4A4
AAIA4IAA444AAAAAAAA2A444AAA4A4I4AAAAA44AA44A4AAAAAAAA4A4A24AA4A4
AAIA4IAA444AAAAIAAA2A444AAA4A4I4AAAAA44AA44A4AAAAAAAA4A4A24AA4A4
AAIA4IAA444AAAAIAAA2A444AAA4A4I4AAAAA44AA44A4AAAAAAAA2A4A24AA4A4
AA2A44AA444AAAA4AAA2A444AAA4A4I4AAAAA44AA44A4AAAAAAAA2A4A24AA4A4
AA2A24AA444AAAA4AAA2A444AAA4A4I4AAAAA44AA44A4AAAAAAAA2A4A24AA4A4
AA2A24AA244AAAA4AAA2A444AAA4A4I4AAAAA44AA44A4AAAAAAAA2A4A24AA4A4
AA2A24AA2A2AAAA4AAA2A444AAA4A4I4AAAAA44AA44A4AAAAAAAA2A4A24AA4A4
AA2A24AA2A2AAAA2AAA2A444AAA4A444AAAAA44AA44A4AAAAAAAA2A4A24AA4A4
AA2A24AA2A2AAAAAAAA2A444AAA4A444AAAAA44AA44A4AAAAAAAA2A4A24AA4A4
AA2A24AA2A2AAAAAAAA2A444AAA4A444AAAAAA2AA44A4AAAAAAAA2A4A24AA4A4
AA2A24AA2A2AAAAAAAA2A444AAA4A444AAAAAA2AA44A4AAAAAAAA2AAA24AA4A4
AA2A24AA2A2AAAAAAAA2A444AAA4A444AAAAAA2AA44A4AAAAAAAA2AAA24AA4A2
AA2A24AA2AIAAAAAAAA2A444AAA4A444AAAAAA2AA44A4AAAAAAAA2AAA24AA4A2
AI2A24AA2AIAAAAAAAA2A444AAA4A444AAAAAA2AA44A4AAAAAAAA2AAA24AA4A2
AI2A24AA2AIAAAAAIAA2A444AAA4A444AAAAAA2AA44A4AAAAAAAA2AAA24AA4A2
AIIA24AA2AIAAAAAIAA2A444AAA4A444AAAAAA2AA44A4AAAAAAAA2AAA24AA4A2
AIIA24AA2AIAAAAAIAA2A444AAA4A444AAAAAA2AA44A4AAAAAAAAIAAA24AA4A2
AIIA24AA2AIAAAAAIAA2A444AAA4A444AAAAAA2AA44A2AAAAAAAAIAAA24AA4A2
AIIA24AA2AAAAAAA4AA2A444AAA4A444AAAAAA2AA44A2AAAAAAAAIAAA24AA4A2
AIIA24AA2AAAAAAAAAA2A444AAA4A444AAAAAA2AA44A2AAAAAAAAIAAA24AA4A2
AIIA24AA2AAAAAAAAAA2A444AAA4A4A2AAAAAA2AA44A2AAAAAAAAIAAA24AA4A2
AIIA24AA2AAAAAAAIAA2A444AAA4A4A2AAAAAA2AA44A2AAAAAAAAIAAA24AA4A2
AAIA24AA2AAAAAAAIAA2A444AAA4A4A2AAAAAA2AA44A2AAAAAAAAIAAA24AA4A2
AAIAA4AA2AAAAAAA4AA2A444AAA4A4A2AAAAAA2AA44A2AAAAAAAAIAAA24AA4A2
AAIAA4AA2AAAAAAAAAA2A444AAA4A4A2AAAAAA2AA44A2AAAAAAAAIAAA24AA4A2
AAIAA4AA2AAAAAAAAAA2A444AAAAA2A2AAAAAA2AA44A2AAAAAAAAIAAA24AA4A2
AAIAA4AA2AAAAAAAAAA2A444AAAAA2A2AAAAAA2AA24A2AAAAAAAAIAAA24AA4A2
AAIAA4AA2AAAAAAAAAA2A444AAAAA2A2AAAAAA2AA24A2AAAAAAAA4AAA24AA4A2
AAIAA4AA2AAAAAAAAAA2A444AAAAA2A2AAAAAA2AA24A2AAAAIAAA4AAA24AA4A2
AAIAA4AA2AAAAAAAAAA2A444AAAAA2A2AAAAAA2AA24A2AAAAIAAA4IAA24AA4A2
AAIAAAAA2AAAAAAAAAA2A444AAAAA2A2AAAAAA2AA24A2AAAAIAAA4IAA24AA4A2
AAIAAAAA2AAAAAAAAAA2A444AAAAA2A2AAAAAA2AA24A2AAAA4AAA4IAA24AA4A2
AAIAAAAA2AAAAAAAAAA2A444AAAAA2A2AAAAAA2AA24A2AAAA4AAA4IAA24AA4I2
AAIAAAAA2AAAAAAAAAA2A444AAAAA2A2AAAAAA2AA24A2AAAA4AAA4AAA24AA442
AAIAAAAA2AAAAAAAAAA2A444AAAAA2A2AAAAAA2AAA2A2AAAA4AAA4AAA24AA442
AAIAAAAA2AAAAAAAAAA2A444AAAAA2A2AAAAAA2AAA2A2AAAA4AAA2AAA24AA442
AAIAAAAA2AAAAAAAAAA2A244AAAAA2A2AAAAAA2AAA2A2AAAA4AAA2AAA24AA442
AAIAAAAA2AAAAAAAAAA2A244AAAAA2A2AAAAAA2AAA2A2AAAA4AAAIAAA24AA442
AAIAAAAA2AAAAAAAAAA2A244AAAAA2A2AAAAAA2AAA2A2AAAA4AAIIAAA24AA442
AAIAAAAA2AAAAAAAAAI2A244AAAAA2A2AAAAAA2AAA2A2AAAA4AAIIAAA24AA442
AAIAAAAA2AAAAAAAAA42A244AAAAA2A2AAAAAA2AAA2A2AAAA4AAIIAAA24AA442
AAIAAAAA2AAAAAAAAA42A244AAAAAAA2AAAAAA2AAA2A2AAAA4AAIIAAA24AA442
AAIAAAAA2AAAAAAAAA42A244AAAAAAA2AAAAAA2AAA2A2AAAA4AAI4AAA24AA442
AAIAAAAA2AAAAAAAAA42A244AAAAAAA2AAAAAA2AAA2A2AAAA4AA44AAA24AA442
AAIAAAAA2AAAAAAAAA42A244AAAAAAA2AAAAAA2AAA2A2AAAAAAA44AAA24AA442
AAIAAAAA2AAAAAAAAA42A244AAAAAAA2AAAAAA2AAA2A2AAAAAAA44IAA24AA442
AAIAAAAA2AAAAAAAAA42A244AAAAAAA2AAAAAA2AAA2A2AAAAAAA244AA24AA442
AAIAAAAA2AAAAAAAAA42A244AAAAAAA2AAAAAA2AAAAA2AAAAAAA244AA24AA442
AAIAAAAA2AAAAAAAAA22A244AAAAAAA2AAAAAA2AAAAA2AAAAAAA244AA24AA442
AAAAAAAA2AAAAAAAAA22A244AAAAAAA2AAAAAA2AAAAA2AAAAAAA244AA24AA442
AAAAAAAA2AAAAAAAAA22A244AAAAAAA2AAAAAA2AAAAA2AAAAAAA242AA24AA442
AAAAAAAA2AAAAAAAAA22A244AAAAAAA2AAAAAA2AAAAA2AAAAAAA242AA24AA242
AAAAAAAA2AAAAAAAAA22A244AAAAAAA2AAAAAA2AAAAA2AAAAAAA242AA24IA242
AAAAAAAA2AAAAAAAAAI2A244AAAAAAA2AAAAAA2AAAAA2AAAAAAA242AA24IA242
AAAAAAAA2AAAAAAAAA42A244AAAAAAA2AAAAAA2AAAAA2AAAAAAA242AA24IA242
AAAAAAAA2AAAAAAAAA42A244AAAAAAA2AAAAAA2AAAAA2AAAAAAA242AA24IA24A
AAAAAAAA2AAAAAAAAA22A244AAAAAAA2AAAAAA2AAAAA2AAAAAAA242AA24IA24A
AAAAAAAA2AAAIAAAAA22A244AAAAAAA2AAAAAA2AAAAA2AAAAAAA242AA24IA24A
AAAAAAAA2AAA2AAAAA22A244AAAAAAA2AAAAAA2AAAAA2AAAAAAA242AA24IA24A
AAAAAAAA2AAA2AAAAA22A244AAAAAAA2AAAAAA2AAAAA2AAAAAAA222AA244A24A
AAAAAAAA2AAAAAAAAA22A244AAAAAAA2AAAAAA2AAAAA2AAAAAAA222AA244A24A
AAAAAAAA2AAAAAAAAA2AA244AAAAAAA2AAAAAA2AAAAA2AAAAAAA222AA244A24A
AAAAAAAA2AAAAAAAAA2AA2A2AAAAAAA2AAAAAA2AAAAA2AAAAAAA222AA244A24A
AAAAAAAA2AAAAAAAAA2AA2A2AAAAAAA2AAAAAA2AAAAA2AAAAAAAA22AA244A24A
AAAAAAAA2AAAAAAAAA2AA2A2AAAAAAA2AAAAAA2AAAAA2AAAAAAAA2AAA244A24A
AAAAAAAA2AAAAAAAAA2AA2AIAAAAAAA2AAAAAA2AAAAA2AAAAAAAA2AAA244A24A
AAAAAAAA2AAAAAAAAA2AA2A4AAAAAAA2AAAAAA2AAAAA2AAAAAAAA2AAA244A24A
AAAAAAAA2AAAAAAAAA2AA2A4AAAAAAA2AAAAAA2AAAAA2AAAAAAAA2AAA2A4A24A
AAAAAAAA2AAAAAAAAA2AA2A4AAAAAAA2AAAAAA2AAAAA2AAAAAAAA2AAA2I4A24A
AAAAAAAA2AAAAAAAAA2AA2A4AAAAAAA2AAAAAA2AAAAAAAAAAAAAA2AAA244A24A
AAAAAAAA2AAAAAAAAA2AA2A4AAAAAAA2AAAAAA2AAAAAAAAAAAAAA2AAA224A24A
AAAAAAAA2AAAAAAAAA2AA2A4AAAAAAA2AAAAAA2AAAAAAAAAAAAAAAAAA224A24A
AAAAAAAA2AAAAAAAAA2AA2A4AAAAAAA2AAAAAA2AAAAAAAAAAAAAAAAAA222A24A
AAAAAAAA2AAAAAAAAA2AA2A4AAAAAAA2AAAAAA2AAAAAAAAAAAAAAAAAA222A2AA
AAAAAAAA2AAAAAAAIA2AA2A4AAAAAAA2AAAAAA2AAAAAAAAAAAAAAAAAA222A2AA
AAAAAAAA2AAAAAAAIA2AA2A4AAAAAAA2AAAAAA2AAAAAAAAAAAAAAIAAA222A2AA
AAAAAAAA2AAAAAAAIA2AA2A4AAAAAAA2AAAAAA2AAAAAAAAAAAAAAIAAI222A2AA
AAAAAAAA2AAAAAAAIA2AA2A4AAAAAAA2AAAAAA2AAAAAAAAIAAAAAIAAI222A2AA
AAAAAAAA2AAAAAAAIA2AA2A4AAAAAAA2AAAAAA2AAAAAAAAAAAAAA4AAI222A2AA
AAAAAAAA2AAAAAAA4A2AA2A4AAAAAAA2AAAAAA2AAAAAAAAAAAAAA4AAI222A2AA
AAAAAAAA2AAAAAAA4A2AA2A4AAAAAAA2AAAAAA2AAAAAAAAAAAAAA4AA4222A2AA
AAAAAAAA2AAAAAAAAA2AA2A4AAAAAAA2AAAAAA2AAAAAAAAAAAAAA4AA4222A2AA
AAAAAAAA2AAAAAAAAA2AA2A2AAAAAAA2AAAAAA2AAAAAAAAAAAAAA4AA4222A2AA
AAAAAAAA2AAAAAAAAA2AA2A2AAAAAAA2AAAAAA2AAAAAAAAAAAAAA4AA422AA2AA
AAAAAAAA2AAAAAAAAA2AA2A2AAAAAAA2AAAAAA2AAAAAAAAAAAAAA4AA222AA2AA
AAAAAAIA2AAAAAAAAA2AA2A2AAAAAAA2AAAAAA2AAAAAAAAAAAAAA4AA222AA2AA
AAAAAAIA2AAAAAAAAA2AA2A2AAAAAAA2AAAAAA2AAAAAAAAAAAAAA4AA2A2AA2AA
AAAAAA2A2AAAAAAAAA2AA2A2AAAAAAA2AAAAAA2AAAAAAAAAAAAAA4AA2A2AA2AA
AAAAAA2A2AAAAAAAAA2AA2A2AAAAAAA2AAAAAA2AAAAAAAAAAAAAA4AAAA2AA2AA
AAAAAAIA2AAAAAAAAA2AA2A2AAAAAAA2AAAAAA2AAAAAAAAAAAAAA4AAAA2AA2AA
AAAAAA2A2AAAAAAAAA2AA2A2AAAAAAA2AAAAAA2AAAAAAAAAAAAAA4AAAA2AA2AA
AAAAAA2A2AAAAAAAAA2AA2A2AAAAAAA2AAAAAA2AAAAAAAAAAAAAAAAAAA2AA2AA
AAAAAAAA2AAAAAAAAA2AA2A2AAAAAAA2AAAAAA2AAAAAAAAAAAAAAAAAAA2AA2AA
AAAAAAAAAAAAAAAAAA2AA2A2AAAAAAA2AAAAAA2AAAAAAAAAAAAAAAAAAA2AA2AA
AAAAAAAAAAAAAAAAAA2AA2A2AAAAAAA2AAAAAA2AAAAAAAAAAAAAAAAAAI2AA2AA
AAAAAAAAAAAAAAAAAA2AA2A2AAAAAAA2AAAAAA2AAAAAAAAAAAAAAAAAA42AA2AA
AAAAAAAAAAAAAAAAAA2AA2A2AAAAAAA2AAAAAA2AAAAAAAAAAAAAAAAAA22AA2AA
AAAAAAAAAAAAAAAAAA2AA2A2AAAAAAA2AAAAAA2AAAAAAAAAAAAAAAAAAA2AA2AA
AAAAAAAAIAAAAAAAAA2AA2A2AAAAAAA2AAAAAA2AAAAAAAAAAAAAAAAAAA2AA2AA
AAAAAAAAIAAAAAAAAA2AA2A2AAAAAAA2AAAAAA2AAAAAAAAAAAAIAAAAAA2AA2AA
AAAAAAAAIAAAAAAAAA2AA2A2AAAAAAA2AAAAAA2AAAAAAAAAAAAIAAAAAI2AA2AA
AAAAAAAA2AAAAAAAAA2AA2A2AAAAAAA2AAAAAA2AAAAAAAAAAAAIAAAAAI2AA2AA
AAAAAAAA2AAAAAAAAA2AA2AAAAAAAAA2AAAAAA2AAAAAAAAAAAAIAAAAAI2AA2AA
AAAAAAAA2AAAAAAAAA2AA2AAAAAAAAA2AAAAAA2AAAAAAAAAAAA2AAAAAI2AA2AA
AAAAAAAA2AAAAAAAAAAAA2AAAAAAAAA2AAAAAA2AAAAAAAAAAAA2AAAAAI2AA2AA
AAAAAAAA2AAAAAAAAAAAA2AAAAAAAAAAAAAAAA2AAAAAAAAAAAA2AAAAAI2AA2AA
AAAAAAAA2AAAAAAAAAAAA2AAAAAAAAAAAAAAAA2AAAAAAAAAAAA2AAAAA42AA2AA
AAAAAAAA2AAAAAAAAAAAA2AAAAAAAAAAAAAAAA2AAAAAAAAAAAA2AAAAA22AA2AA
AAAAAAAA2AAAAAAAAAAAA2AAAAAAAAAAAAAAAA2AAAAAAAAAAAA2AAAAA2AAA2AA
AAAAAAAA2AIAAAAAAAAAA2AAAAAAAAAAAAAAAA2AAAAAAAAAAAA2AAAAA2AAA2AA
AAAAAAAA2AIAAAAAAAIAA2AAAAAAAAAAAAAAAA2AAAAAAAAAAAA2AAAAA2AAA2AA
AAAAAAAA2AIAAAAAAAIAA2AAAIAAAAAAAAAAAA2AAAAAAAAAAAA2AAAAA2AAA2AA
AAAAAAAA2AIAAAAAAAIAA2AAAIAAAAAAAIAAAA2AAAAAAAAAAAA2AAAAA2AAA2AA
AAAAAAAA2AIAAAAAAAIAA2AAAIAAAAAAAIAIAA2AAAAAAAAAAAA2AAAAA2AAA2AA
AAAAAAAA2AIAAAAAAAIAA2AAAIAAAAAAAIAIAI2AAAAAAAAAAAA2AAAAA2AAA2AA
AAAAAAAA2AIAAAAAAAIAA2AAAIAAAAAAAIAIAI2AAAAAAAAAAAA2AIAAA2AAA2AA
AAAAAAAA2AIAAAAAAAIAA2AAAIAAAAAAAIAIAI2AAAAAAAAAAAA2AIAAA2AAA2IA
AAAAAAAA2AIAAAAAAAIAA2AAAIAAAAAAAIAIAI2AAAAAAAAAAAA2AIAAA2IAA2IA
AAAAAAAA2A2AAAAAAA4AA2AAAIAAAAAAAIAIAI2AAAAAAAAAAAA2AIAAA2IAA2IA
AAAAAAAA2A2AAAAAAA4AA2AAAIAAAAAAAIAIAI2AAAAAAAAAAAA2AIAAA2IAA22A
AAAAIAAA2A2AAAAAAA4AA2AAAIAAAAAAAIAIAI2AAAAAAAAAAAA2AIAAA2IAA22A
AAAAIIAA2A2AAAAAAA4AA2AAAIAAAAAAAIAIAI2AAAAAAAAAAAA2AIAAA2IAA22A
AAAAIIAA2A2AAAAAAA4AA2AAAIAAAAAAAIAIA22AAAAAAAAAAAA2AIAAA2IAA22A
AAAAIIAA2A2AAAAAAA4AA2AAAIAAAAAAAIAIA22AAAAAAAAAAAA2AIIAA2IAA22A
AAAAIIAA2A2AAAAAAA4AA2AAAIAAAAAAA4A4A22AAAAAAAAAAAA2AIIAA2IAA22A
AAAAIIAA2A2AAAAAAA4AA2AAAIAAAAAAA4A4A22AAAAAAAAAAAA2AI4AA2IAA22A
AAAAIIAA2A2AAAAAAA4AA2AAAIAAAAAAA4A4A22AAAAAAAAAAAA2AI2AA24AA22A
AAAAIIAA2A2AAAAAAA4AA2AAAIAAAAAAA4A4A22AAAAAAAAAAAA2AIIAA24AA22A
AAAAIIAA2A2AAAAAAA4AA2AAA4AAAAAAA4A4A22AAAAAAAAAAAA2AIIAA24AA22A
AAAAIAAA2A2AAAAAAA4AA2AAA4AAAAAAA4A4A22AAAAAAAAAAAA2AIIAA24AA22A
AAAAIAAA2A2AAAAAAA4AA2AAA4AAAAAAA4A4A22AAAAAAAAAAAA2AIAAA22AA22A
AAAA4AAA2A2AAAAAAA4AA2AAA4AAAAAAA4A4A22AAAAAAAAAAAA2AIAAA22AA22A
AAAA4AAA2A2AAAAAAA2AA2AAA4AAAAAAA4A4A22AAAAAAAAAAAA2AIAAA22AA22A
AAAA4AAA2A2AAAAAAA2AA2AAA4AAAAAAA4A4A22AAAAAAAAAAAA2AIAAA22AA2AA
AAAA4AAA2A2AAAAAAA2AA2AAA4AAAAAAA4A4A22AAAAAAAAAAAA2A2AAA22AA2AA
AAIA4AAA2A2AAAAAAA2AA2AAA4AAAAAAA4A4A22AAAAAAAAAAAA2A2AAA22AA2AA
AAIAAAAA2A2AAAAAAA2AA2AAA4AAAAAAA4A4A22AAAAAAAAAAAA2A2AAA22AA2AA
AAIAAAAA2A2AAAAAAA2AA2AAAAAAAAAAA4A4A22AAAAAAAAAAAA2A2AAA22AA2AA
AAIAAAAA2A2AAAAAAA2AA2AAAAAAAAAAA4A4A22AAAAAAAAAAAA2A2AAA22AAAAA
AAIAAAAA2A2AAAAAAA2AA2AAAAAAAAAAA4A4A22AAAAAAAAIAAA2A2AAA22AAAAA
AAIAAAAA2A2AAAAAAA2AA2AAAAAAAAAAA4A4A22AAAAAAAAIAAAAA2AAA22AAAAA
AA2AAAAA2A2AAAAAAA2AA2AAAAAAAAAAA4A4A22AAAAAAAAIAAAAA2AAA22AAAAA
AA2AAAAA2A2AAAIAAA2AA2AAAAAAAAAAA4A4A22AAAAAAAAIAAAAA2AAA22AAAAA
AA2AAAAA2A2AAAIAIA2AA2AAAAAAAAAAA4A4A22AAAAAAAAIAAAAA2AAA22AAAAA
AA2AAAAA2A2AAA4AIA2AA2AAAAAAAAAAA4A4A22AAAAAAAAIAAAAA2AAA22AAAAA
AA2AAAAA2A2AAA4A4A2AA2AAAAAAAAAAA4A4A22AAAAAAAAIAAAAA2AAA22AAAAA
AA2AAAAA2A2AAA4AAA2AA2AAAAAAAAAAA4A4A22AAAAAAAAIAAAAA2AAA22AAAAA
AA2AAAAA2A2AAA4AIA2AA2AAAAAAAAAAA4A4A22AAAAAAAAIAAAAA2AAA22AAAAA
AA2AAAAAAA2AAA4A4A2AA2AAAAAAAAAAA4A4A22AAAAAAAAIAAAAA2AAA22AAAAA
AA2AAAAAAA2AAAAA4A2AA2AAAAAAAAAAA4A4A22AAAAAAAAIAAAAA2AAA22AAAAA
AA2AAAAAAA2AAAAAAA2AA2AAAAAAAAAAA4A4A22AAAAAAAAIAAAAA2AAA22AAAAA
AA2AAAAAAA2AAAAAAA2AA2AAAAAAAAAAA4A4A22AAAAAAAA4AAAAA2AAA22AAAAA
AA2AAAAAIA2AAAAAAA2AA2AAAAAAAAAAA4A4A22AAAAAAAA4AAAAA2AAA22AAAAA
AA2AAAAA2A2AAAAAAA2AA2AAAAAAAAAAA4A4A22AAAAAAAA4AAAAA2AAA22AAAAA
AA2AAAAA2A2AAAAAAA2AA2AAAAAAAAAAA4AAA22AAAAAAAA4AAAAA2AAA22AAAAA
AA2AAAAA2A2AAAAAAA2AA2AAAAAAAAAAA4AAA22AAAAAAAA4AAAAA2AAA22AAAAI
AA2AAAAA2A2AAAAAAA2AA2AAAAAAAAAAA4AAA22AAAAAAAA4AAAAA2AAA22AAAA2
AA2AAAAAAA2AAAAAAA2AA2AAAAAAAAAAA4AAA22AAAAAAAA4AAAAA2AAA22AAAA2
AA2AAAAAAA2AAAAAAA2AAAAAAAAAAAAAA4AAA22AAAAAAAA4AAAAA2AAA22AAAA2
AA2AAAAAAA2AAAAAAA2AAAAAAAAAAAAAA4AAA22AAAAAAAA4AAAAA2AAI22AAAA2
AA2AAAAAIA2AAAAAAA2AAAAAAAAAAAAAA4AAA22AAAAAAAA4AAAAA2AAI22AAAA2
AA2AAAAAIA2IAAAAAA2AAAAAAAAAAAAAA4AAA22AAAAAAAA4AAAAA2AAI22AAAA2
AA2AAAAAIA2IAAAAAA2AIAAAAAAAAAAAA4AAA22AAAAAAAA4AAAAA2AAI22AAAA2
AA2AAAAA4A24AAAAAA2AIAAAAAAAAAAAA4AAA22AAAAAAAA4AAAAA2AAI22AAAA2
AA2AAAAA4A24AAAAAA2A4AAAAAAAAAAAA4AAA22AAAAAAAA4AAAAA2AAI22AAAA2
AA2AAAAA4A24AAAAAA2A2AAAAAAAAAAAA4AAA22AAAAAAAA4AAAAA2AAI22AAAA2
AA2AAAAA4A24AAAAAA2AAAAAAAAAAAAAA4AAA22AAAAAAAA4AAAAA2AAI22AAAA2
AA2AAAAA4A24AAAAAA2AAAAAAAAAAAAAA4AAA22AAAAAAAA4AAAAA2AA422AAAA2
AA2AAAAA4A24AAAAAA2AAAAAAAAAAAAAA4AAA22AAAAAAAA4AAAAA2AA222AAAA2
AA2AAAAA4A24AAAAAA2AAAAAAAAAAAAAA4AAA22AAAAAAAA4AAAAA2IA222AAAA2
AA2AAAAA4A24AAAAAA2AAAAAAAAAAAAAA4AAA22AAAAAAAA4AAAAA2AA222AAAA2
AA2AAAAA4A24AAAAAA2AAAAAAAAAAAAAA4IAA22AAAAAAAA4AAAAA2AA222AAAA2
AA2AAAAA4A24AAAAAA2AAAAAAAAAAAAAA4IAA22AAAAAAAA4AAAAA2IA222AAAA2
AA2AAAAA4A22AAAAAA2AAAAAAAAAAAAAA4IAA22AAAAAAAA4AAAAA2IA222AAAA2
AA2AAAAA4A22AAAAAA2AAAAAAAAAAAAAA44AA22AAAAAAAA4AAAAA2IA222AAAA2
AA2AAAAA4A22AAAAAA2AAAAAAAAAAAAAA44AA22AAAAAAAA4AAAAA2AA222AAAA2
AA2AAAAA4AA2AAAAAA2AAAAAAAAAAAAAA44AA22AAAAAAAA4AAAAA2AA222AAAA2
AA2AAAAA4AA2AAAAAA2AAAAAAAAAAAAAA44AA22AAAAAAAA4AAAAA2AAA22AAAA2
AA2AAAAA4AA2AAAAAA2AAAAAAAAAAAAAA44AA22AAAAAAAA4AAAAA2IAA22AAAA2
AA2AAIAA4AA2AAAAAA2AAAAAAAAAAAAAA44AA22AAAAAAAA4AAAAA2IAA22AAAA2
AA2AAIAA4AI2AAAAAA2AAAAAAAAAAAAAA44AA22AAAAAAAA4AAAAA2IAA22AAAA2
AA2AAIAA2A22AAAAAA2AAAAAAAAAAAAAA44AA22AAAAAAAA4AAAAA2IAA22AAAA2
AA2AA2AA2A22AAAAAA2AAAAAAAAAAAAAA44AA22AAAAAAAA4AAAAA2IAA22AAAA2
AA2AA2AA2A22AAAAAA2AAAAAAAAAAAAAA44AA22AAAAAAAA2AAAAA2IAA22AAAA2
AA2AA2AA2A22AAAAAA2AAAAAAAAAAAAAA44AA22AAAAAAAAIAAAAA2IAA22AAAA2
AA2AA2AA2A22AAAAAA2AAAAAAAAAAAAAA24AA22AAAAAAAAIAAAAA2IAA22AAAA2
AA2AA2AA2A22AAAAAA2AAAAAAAAAAAAAA2AAA22AAAAAAAAIAAAAA2IAA22AAAA2
AA2AA2AA2A22AAAAAA2AAAAAAAAAAAAAA2AAA22AAAAAAAAAAAAAA24AA22AAAA2
AA2AI2AA2A22AAAAAA2AAAAAAAAAAAAAA2AAA22AAAAAAAAAAAAAA24AA22AAAA2
AA2AI2AA2A22AAAAAA2AAAAAAAAAAAAAA2AAA22AAAAAAAAAAAAAA24AI22AAAA2
AA2AI2AA2A22AAAAAA2AAAAAAAAAAAAAA2AAA22AAAAAAAAIAAAAA24AI22AAAA2
AA2A22AA2A22AAAAAA2AAAAAAAAAAAAAA2AAA22AAAAAAAAIAAAAA24AI22AAAA2
AA2A22AA2A22AAAAAA2AAAAAAAAAAAAAA2AAA22AAAAAAAAIAAAAA24AI22AAAI2
AI2A22AA2A22AAAAAA2AAAAAAAAAAAAAA2AAA22AAAAAAAAIAAAAA24AI22AAAI2
AI2A22AA2A22AAAAAA2AAAAAAAAAAIAAA2AAA22AAAAAAAAIAAAAA24AI22AAAI2
AI2A22AA2A22AAAAAA2AAAAAAAAAA2AAA2AAA22AAAAAAAAIAAAAA24AI22AAAI2
AI2A22AA2A22AAAAAA2AAAAAAAAAA2AAA2AAA22AAAAAAAAIAAAAA24A222AAA42
AI2A22AA2A22AAAAAA2AAAAAAAAAA2AAA2AAA22AAAAAAAAIAAAAA2AA222AAA42
AI2A22AA2A22AAAAAA2AAAAAAIAAA2AAA2AAA22AAAAAAAAIAAAAA2AA222AAA42
AI2A22AA2A22AAAAAA2AAAAAAIAAA2AAA2AAA22AAAAAAAA4AAAAA2AA222AAA42
AI2A22AA2A22AAAAAA2AAAAAA4AAA2AAA2AAA22AAAAAAAA4AAAAA2AA222AAA42
AI2A22AA2A22AAAAAA2AAAAAA2AAA2AAA2AAA22AAAAAAAA4AAAAA2AA222AAA42
AI2A22AA2A22AAAAAA2AAAAAA2AAA2AAA2AAA22AAAAAAAA4AAAAA2AA222AAA22
AI2A22AA2A22AAAAAA2AAAAAA2AAA2AAA2AAA22AAAAAAAA4AAAAA2AA222AAAA2
AI2A22AA2A22AAAAIA2AAAAAA2AAA2AAA2AAA22AAAAAAAA4AAAAA2AA222AAAA2
A22A22AA2A22AAAA4A2AAAAAA2AAA2AAA2AAA22AAAAAAAA4AAAAA2AA222AAAA2
AA2A22AA2A22AAAA4A2AAAAAA2AAA2AAA2AAA22AAAAAAAA4AAAAA2AA222AAAA2
AA2A2AAA2A22AAAA4A2AAAAAA2AAA2AAA2AAA22AAAAAAAA4AAAAA2AA222AAAA2
AA2A2AAA2A22AAAA4AAAAAAAA2AAA2AAA2AAA22AAAAAAAA4AAAAA2AA222AAAA2
AA2A2AAA2A22AAAA4AAAAAAAA2AAAAAAA2AAA22AAAAAAAA4AAAAA2AA222AAAA2
AA2A2IAA2A22AAAA4AAAAAAAA2AAAAAAA2AAA22AAAAAAAA4AAAAA2AA222AAAA2
AAAA2IAA2A22AAAA4AAAAAAAA2AAAAAAA2AAA22AAAAAAAA4AAAAA2AA222AAAA2
AAAA22AA2A22AAAA4AAAAAAAA2AAAAAAA2AAA22AAAAAAAA4AAAAA2AA222AAAA2
AAAAA2AA2A22AAAA4AAAAAAAA2AAAAAAA2AAA22AAAAAAAA4AAAAA2AA222AAAA2
AAAAAAAA2A22AAAA4AAAAAAAA2AAAAAAA2AAA22AAAAAAAA4AAAAA2AA222AAAA2
AAAAAAAAAA22AAAA4AAAAAAAA2AAAAAAA2AAA22AAAAAAAA4AAAAA2AA222AAAA2
AAAAAAAAAA22AAAA2AAAAAAAA2AAAAAAA2AAA22AAAAAAAA4AAAAA2AA222AAAA2
AAAAAAAAAA22AAAAAAAAAAAAA2AAAAAAA2AAA22AAAAAAAA4AAAAA2AA222AAAA2
AAAAAAAAAA22AAAAAAAAAAAAA2AAAAAAA2AAA22AAAAAAAAAAAAAA2AA222AAAA2
AAAAAAAAAA22AAAAAAAAAAAAA2AAAAAAA2AAA22AAAAAAAAAAAAAA2AA2A2AAAA2
AAAAAAAIAA22AAAAAAAAAAAAA2AAAAAAA2AAA22AAAAAAAAAAAAAA2AA2A2AAAA2
AAAAAAA2AA22AAAAAAAAAAAAA2AAAAAAA2AAA22AAAAAAAAAAAAAA2AA2A2AAAA2
AAAAAAAAAA22AAAAAAAAAAAAA2AAAAAAA2AAA22AAAAAAAAAAAAAA2AA2A2AAAA2
AAAAAAAAAA22AAAAIAAAAAAAA2AAAAAAA2AAA22AAAAAAAAAAAAAA2AA2A2AAAA2
AAAAAAAAAA22AAAA2AAAAAAAA2AAAAAAA2AAA22AAAAAAAAAAAAAA2AA2A2AAAA2
AAAAAAAAAA22AAAAAAAAAAAAA2AAAAAAA2AAA22AAAAAAAAAAAAAA2AA2A2AAAA2
AAAAAAAAAA22AAAAIAAAAAAAA2AAAAAAA2AAA22AAAAAAAAAAAAAA2AA2A2AAAA2
AAAAAAAAAA22AAAA4AAAAAAAA2AAAAAAA2AAA22AAAAAAAAAAAAAA2AA2A2AAAA2
AAAAAAAAAA22AAAAAAAAAAAAA2AAAAAAA2AAA22AAAAAAAAAAAAAA2AA2A2AAAA2
AAAAAAAAAA22AAAAAAAAAAAAAAAAAAAAA2AAA22AAAAAAAAAAAAAA2AA2A2AAAA2
AAAAAAAAAA22AAAAAAAAAAAAAAAAAAAAI2AAA22AAAAAAAAAAAAAA2AA2A2AAAA2
AAAAAAAAAA22AAAAAAAAAAAAAAAAAAAAI2AAA22AAAAAAAAAAAAAAAAA2A2AAAA2
AAAAAAAAAA22AAAAAAAAAAAAAAAAAAAAI2AAA22AAAAAAAAAAAAAAAAAAA2AAAA2
AAAAIAAAAA22AAAAAAAAAAAAAAAAAAAAI2AAA22AAAAAAAAAAAAAAAAAAA2AAAA2
AAAAIAAAAA22AAAAAAAAAAAAAAAAAAAAI2AAA22AAAAAAAAAAAAAAAAAIA2AAAA2
AAAAIAAAAA22AAAAAAAAAAAAAAAAAAAAI2AAA22AAAAAAAAAAAAAAAAAIA2AIAA2
AAAAIAAAAA22AAAAAAAAAAAAAAAAAAAA42AAA22AAAAAAAAAAAAAAAAAIA2AIAA2
AAAAIAAAAA22AAAAAAAAAAAAAAAAAAAA22AAA22AAAAAAAAAAAAAAAAAIA2AIAA2
AAAAIAAAAA22AAAAAAAAAAAAAAAAAAAA22AAA22AAAAAAAAAAAAAAAAA4A2A4AA2
AAAAIAAAAA22AAAAAAAAAAAAAAAAAAAA22AAA22AAAAAAAAAAAAAAAAA4AAA4AA2
AAAAAAAAAA22AAAAAAAAAAAAAAAAAAAA22AAA22AAAAAAAAAAAAAAAAA4AAA4AA2
AAAAAAAAAA22AAAAAAAAAAAAAAAAAAAA2AAAA22AAAAAAAAAAAAAAAAA4AAA4AA2
AAAAAAAAAA22AAAAAAAAAAAAAAAAAAAA2AAAA22AAAAAAAAAAAAAAAAA2AAA4AA2
AAAAAAAAAA22AAAAAAAAAAAAAAAAAAAA2AAAA22AAAAAAAAAAAAAAAAAIAAA4AA2
AAAAAAAAAA22AAAAAAAAAAAAAAIAAAAA2AAAA22AAAAAAAAAAAAAAAAAIAAA4AA2
AAAAAAAAAA22AAAAAAAAAAAAAA4AAAAA2AAAA22AAAAAAAAAAAAAAAAAIAAA4AA2
AAAAAAAAAA22AAAAAAAAAAAAAA4AAAAA2AAAA22AAAAAAAAAAAAAAAAA4AAA4AA2
AAAAAAAAAA22AAAAAAAAAAAAAA4AAAAA2AAAA22AAAAAAAAAAAAAAAAA4AAA4AAA
AAAAAAAAAA22AAAAAAAAAAAAAA4AAAAA2AAAI22AAAAAAAAAAAAAAAAA4AAA4AAA
AAAAAAAAAA22IAAAAAAAAAAAAA4AAAAA2AAAI22AAAAAAAAAAAAAAAAA4AAA4AAA
AAAAAAAAAA22IAAAAAAAAAAAAA4AAAAA2AAAI22AAAAAAAAAAAAAAAAA2AAA4AAA
AAAAAAAAAA224AAAAAAAAAAAAA4AAAAA2AAAI22AAAAAAAAAAAAAAAAA2AAA4AAA
AAAAAAAAAA224AAAAAAAAAAAAA2AAAAA2AAAI22AAAAAAAAAAAAAAAAA2AAA4AAA
AAAAAAAAAA224IAAAAAAAAAAAA2AAAAA2AAAI22AAAAAAAAAAAAAAAAA2AAA4AAA
AIAAAAAAAA224IAAAAAAAAAAAA2AAAAA2AAAI22AAAAAAAAAAAAAAAAA2AAA4AAA
AIAAAAAAAA224IAAAAAAAAAAAAIAAAAA2AAAI22AAAAAAAAAAAAAAAAA2AAA4AAA
AIAAAAAAAA2224AAAAAAAAAAAAIAAAAA2AAAI22AAAAAAAAAAAAAAAAA2AAA4AAA
AIAAAAAAAA2222AAAAAAAAAAAAIAAAAA2AAAI22AAAAAAAAAAAAAAAAA2AAA4AAA
AIAAAAAAAA2A22AAAAAAAAAAAA4AAAAA2AAAI22AAAAAAAAAAAAAAAAA2AAA4AAA
AIAAAAAAAA2A22AAAAAAAAAAAA4AAAAA2AAA222AAAAAAAAAAAAAAAAA2AAA4AAA
AIAAAAAAAA2A22AAAAAAAAAAAA4AAAAA2AAA222AAAAAAAAAAIAAAAAA2AAA4AAA
AIAAAAAAAA2A22AAAAAAAAAAAA4AAAAA2AAA222AAAAAAAAAAAAAAAAA2AAA4AAA
AAAAAAAAAA2A22AAAAAAAAAAAA4AAAAA2AAA222AAAAAAAAAAAAAAAAA2AAA4AAA
AAAAAAAAAA2A22AAAAAAAAAAAA4AAAAA2AAA222AAAAAAAAAAAAAAAAA2AAAAAAA
AAAAAAAAAA2A22AAAAAAAAAAAA4AAAAA2AAI222AAAAAAAAAAAAAAAAA2AAAAAAA
AAAAAAAAAA2A22AAAAAAAAAAAA4AAAAAAAA2222AAAAAAAAAAAAAAAAA2AAAAAAA
AAAAAAAAAA2A22AAAAAAAAAAAA4AAAAAAAA22A2AAAAAAAAAAAAAAAAA2AAAAAAA
AAAAAAAAAA2A22AAAAAAAAAAAA4AAAAAAAA22I2AAAAAAAAAAAAAAAAA2AAAAAAA
AAAAAAAAAA2A2AAAAAAAAAAAAA4AAAAAAAA22I2AAAAAAAAAAAAAAAAA2AAAAAAA
AAAAAAAAAA2A2AAAAAAAAAAAAA4AAAAAAAA2242AAAAAAAAAAAAAAAAA2AAAAAAA
AAAAAAAAAA2A2AAAAAAAAAAAAA4AAAAAAAA2242AAAIAAAAAAAAAAAAA2AAAAAAA
AAAAAAAAAA2A2AAAAAAAAAAAAA4AAAAAAAA2242AAAIAAAAAAAAAAAAA2IAAAAAA
AAAAAAAAAA2AAAAAAAAAAAAAAA4AAAAAAAA2242AAAIAAAAAAAAAAAAA2IAAAAAA
AAAAAAAAAA2AAAAAAAAAAAAAAA4AAAAAAAAA222AAAIAAAAAAAAAAAAA2IAAAAAA
AAAAAAAAAA2AAAAAAAAAAAAAAA4AAAAAAAAA222AAA2AAAAAAAAAAAAA2IAAAAAA
AAAAAAAAAA2AAAAAAAAAAAAAAA4AAAAAAAAA222AAAIAAAAAAAAAAAAA2IAAAAAA
AAAAAAAAAA2AAAAAAAAAAAAAAA4AAAAAAAAA2I2AAAIAAAAAAAAAAAAA2IAAAAAA
AAAAAAAAAA2AAAAAAAAAAAAAAA2AAAAAAAAA242AAAIAAAAAAAAAAAAA2IAAAAAA
AAAAAAAAAA2AAAAAAAAAAAAAAA2AAAAAAAAAA22AAA4AAAAAAAAAAAAA2IAAAAAA
AAAAAAAAAA2AAAAAAAAAAAAAAAIAAAAAAAAAA22AAA4AAAAAAAAAAAAA2IAAAAAA
AAAAAAAAAA2AAAAAAAAAAAAAAAIAAAAAAAAAI22AAA4AAAAAAAAAAAAA2IAAAAAA
AAAAAAAAAA2AAAAAAAAAAAAAAAIAAAAAAAAAI22AAA4AAAAAAAAAAAAA2IIAAAAA
AAAAAAAAAA2AAAAAAAAAAAAAAAIAAAAAAAAAI22AAA2AAAAAAAAAAAAA2I4AAAAA
AAAAAAAAAA2AAAAAAAAAAAAAAAIAAAAAAAAAI22AAA2AAAAAAAAAAAAA222AAAAA
AAAAAAAAAA2AAAAAAAAAAAAAAA4AAAAAAAAAI22AAA2AAAAAAAAAAAAA222AAAAA
AAAAAAAAAA2AAAAAAAAAAAAAAA4AAAAAAAAAA22AAA2AAAAAAAAAAAAA222AAAAA
AAAAAAAAAA2AAAAAAAAAAAAAAA4AAAAAAAAAA22AAA2AAAAAAAAAAAAA2I2AAAAA
AAAAAAAAAA2AAAAAAAAAAAAAAA4AAAAAAAAAA22AAI2AAAAAAAAAAAAA2I2AAAAA
AAAAAAAAAA2AAAAAAAAAAAAAAA4AAAAAAAAAA22AAIIAAAAAAAAAAAAA2I2AAAAA
AAAAAAAAAA2AAAAAAAAAAAAAAAAAAAAAAAAAA22AA44AAAAAAAAAAAAA2I2AAAAA
AAAAAAAAAA2AAAAAAAAAAAAAAAAAAAAAAAAAA22AA44AAAAAAAAAAAAA242AAAAA
AAAAAAAAAA2AAAAAAAAAAAAAAAAAAAAAAAAAA22AA44AAAAAAAAAAAAA222AAAAA
AAAAAAAAAA2AAAAAAAAAAAAAAAAAAAAAAAAAA22AA44AAAAAAAAAAAAAA22AAAAA
AAAAAAAAAA2AAAAAAAAAAAAAAAAAAAAAAAAAA22AA44AAAAAAAAAAAAAI22AAAAA
AAAAAAAAAA2AAAAAAAAAAAAAAAAAAAAAAAAAA22AA44AAAAAAAAAAAAAII2AAAAA
AAAAAAAAAA2AAAAAAAAAAAAAAAAAAAAAAAAAA22AA44AAAAAAAAAAAAA442AAAAA
AAAAAAAAAA2AAAAAAAAAAAAAAAAAAAAAAAAAA22AA44AAAAAAAAAAAAA422AAAAA
AAAAIAAAAA2AAAAAAAAAAAAAAAAAAAAAAAAAA22AA44AAAAAAAAAAAAA422AAAAA
AAAAIAAIAA2AAAAAAAAAAAAAAAAAAAAAAAAAA22AA44AAAAAAAAAAAAA422AAAAA
AAAAIAAIAA2AAAAAIAAAAAAAAAAAAAAAAAAAA22AA44AAAAAAAAAAAAA422AAAAA
AAAA2AA4AA2AAAAA4AAAAAAAAAAAAAAAAAAAA22AA44AAAAAAAAAAAAA422AAAAA
AAAA2AA4AA2AAAAAAAAAAAAAAAAAAAAAAAAAA22AA44AAAAAAAAAAAAA422AAAAA
AAAA2AA4AA2AAAAAAAAAAAAAAAAAAAAAAAAAA22AAA2AAAAAAAAAAAAA422AAAAA
AAAAIAA4AA2AAAAAAAAAAAAAAAAAAAAAAAAAA22AAA2AAAAAAAAAAAAA422AAAAA
AAAAIAA2AA2AAAAAAAAAAAAAAAAAAAAAAAAAA22AAA2AAAAAAAAAAAAA422AAAAA
AAAAIAA2AA2AAAAAAAAAAAAAAAAAAIAAAAAAA22AAA2AAAAAAAAAAAAA422AAAAA
AAAAIAA2AA2AAAAAAAAAAAAAAAAAAIAAAAAAA22AAAAAAAAAAAAAAAAA422AAAAA
AAAAIAA2AA2AAAAAAAAAAAAAAAAAA4AAAAAAA22AAAAAAAAAAAAAAAAA422AAAAA
AAAA2AA2AA2AAAAAAAAAAAAAAAAAA4AAAAAAA22AAAAAAAAAAAAAAAAA422AAAAA
AAAA2AA2AA2AIAAAAAAAAAAAAAAAA4AAAAAAA22AAAAAAAAAAAAAAAAA422AAAAA
AAAA2AA2AA2AIAAAAAAAAAAAAIAAA4AAAAAAA22AAAAAAAAAAAAAAAAA422AAAAA
AAAA2AA2AA2A4AAAAAAAAAAAAIAAA4AAAAAAA22AAAAAAAAAAAAAAAAA422AAAAA
AAAA2AA2AA2A4AAAAAAAAAAAA4AAA4AAAAAAA22AAAAAAAAAAAAAAAAA422AAAAA
AAAA2AA2AA2A4AAAAAAAAAAAA4AAA4AAAAAAAA2AAAAAAAAAAAAAAAAA422AAAAA
AAAA2AA2AA2A4AAAAAAAAAAAA4AAA4AAAAAAAA2AAAAAAAAAAAAAAAAA222AAAAA
AAAA2AA2AA2A4AAAAAAAAAAAA4AAA4AAAAAAAI2AAAAAAAAAAAAAAAAA222AAAAA
AAAA2AAAAA2A4AAAAAAAAAAAA4AAA4AAAAAAAI2AAAAAAAAAAAAAAAAA222AAAAA
AAAA2AAAAA2A4AAAAAAAAAAAA4AAA4AAAAAAAI2AAAAAAAAAAAAAAAIA222AAAAA
AAAA2AAAAA2A4AAAAAAAAAAAA4AAA4AAAAAAAI2AAAAAAAAAAAAAAAIA222AAAIA
AAAA2AAAAA2A4AAIAAAAAAAAA4AAA4AAAAAAAI2AAAAAAAAAAAAAAAIA222AAAIA
AAAA2AAAAA2A4AA2AAAAAAAAA4AAA4AAAAAAAI2AAAAAAAAAAAAAAAIA222AAAIA
AAAA2AAAAA2A4AA2AAAAAAAAA4AAA4AAAAAAAI2AAAAAAAAAAAAAAAAA222AAA2A
AAAA2AAAAA2A4AA2AAAAAAAAA4AAA4AAAAAAAI2AAAAAAAAAAAAAAAAA222AAAAA
AAAA2AAAAAAA4AA2AAAAAAAAA4AAA4AAAAAAAI2AAAAAAAAAAAAAAAAA222AAAAA
AAAA2AAAAAAI4AA2AAAAAAAAA4AAA4AAAAAAAI2AAAAAAAAAAAAAAAAA222AAAAA
AAAA2AAAAAAI4AAIAAAAAAAAA4AAA4AAAAAAAI2AAAAAAAAAAAAAAAAA222AAAAA
AAAA2AAAAAAI4AAIAAAAAAAAA4AAA4AAAAAAAI2AAAAAAAAAAAAAAAAA222AAAIA
AAAA2AAAAAA44AA4AAAAAAAAA4AAA4AAAAAAAI2AAAAAAAAAAAAAAAAA222AAAIA
AAAA2AAAAAA44AA4AAAAAAAAA4AAA4AAAAAAAI2AAAAAAAAAAAAAAAAA222AAA4A
AAAA2AAAAAA44AA4AAAAAAAAA4AAA4AAAAAAAI2AAAAAAAAAAAAAAAAA222AAA2A
AAAA2AAAAAAA4AA2AAAAAAAAA4AAA4AAAAAAAI2AAAAAAAAAAAAAAAAA222AAA2A
AAAA2AAAAAAA4AAAAAAAAAAAA4AAA4AAAAAAAI2AAAAAAAAAAAAAAAAA222AAA2A
AAAA2AAAAAAA4AAAAAAAAAAAAAAAA2AAAAAAA42AAAAAAAAAAAAAAAAA222AAA2A
AAAA2AAAAAAA4AAAAAAAAAAAAAAAA2AAAAAAAA2AAAAAAAAAAAAAAAAA222AAA2A
AAAA2AAAAAAA4AAAAAAAAAAAAAAAA2AAAAAAAA2AAAAAAAAAAAIAAAAA222AAA2A
AAAA2AAAAAAA4AAAAAAAAAAAAAAAA2AAAAAAAA2AAAAAAAAAAAIAAAAA222AAAAA
AAAA2AAAAAAA2AAAAAAAAAAAAAAAA2AAAAAAAA2AAAAAAAAAAAIAAAAA222AAAAA
AAAA2AAAAAAA2AAAAAAAAAAAAAAAA2AAAAAAAA2AAAAAAAAAAAIAAAIA222AAAAA
AAAA2AAAAAAA2AAAAAAAAAAAAAAAA2AAAAAAAA2AAAAAAAAAAA4AAAIA222AAAAA
AAAA2AAAAAAA2AAAAAAAAAAAAAAAA2AAAAAAAA2AAAAAAAAAAA2AAA4A222AAAAA
AAAA2AAAAAAA2AAAAAAAAAAAAAAAA2AAAAAAAA2AAIAAAAAAAA2AAA4A222AAAAA
AAAA2AAAAAAI2AAAAAAAAAAAAAAAA2AAAAAAAA2AAIAAAAAAAA2AAA4A222AAAAA
AAAA2AAAAAAI2AAAAAAAAAAAAAAAA2AAIAAAAA2AAIAAAAAAAA2AAA4A222AAAAA
AAAA2AAAAAAI2AAAAAAAAAAAAAAAA2AA4AAAAA2AAIAAAAAAAA2AAA4A222AAAAA
AAAA2AAAAAAI2AAAAAAAAAAAAAAAA2AA4AAAAA2AA4AAAAAAAA2AAA4A222AAAAA
AAAA2AAAAAAI2AAAAAAAAAAAAAAAAAAA4AAAAA2AA4AAAAAAAA2AAA4A222AAAAA
AAAA2AAAAAAI2AAAAAAAAAAAAAAAAAAA4AAAAAAAA4AAAAAAAA2AAA4A222AAAAA
AAAA2AAAAAAI2AAAAAAAAAAAAAAAAAAA4AAAAAAAA4AAAAAAAA2AAAAA222AAAAA
AAAA2AAAAAAI2AAAAAAAAAAAAIAAAAAA4AAAAAAAA4AAAAAAAA2AAAAA222AAAAA
AAAA2AAAAAAI2AAAAAAAAAAAAIAAAAAA4AAIAAAAA4AAAAAAAA2AAAAA222AAAAA
AAAA2AAAAAAI2AAAAAAAAAAAAIAAAAAA4AAIAAIAA4AAAAAAAA2AAAAA222AAAAA
AAAA2AAAAAAI2AAAAAAAAAAAAIAAAAAA4AAIAAIAA4AAAAAIAA2AAAAA222AAAAA
AAAA2AAAAAA42AAAAAAAAAAAAIAAAAAA4AAIAAIAA4AAAAAIAA2AAAAA222AAAAA
AAAA2AAAAAA42AAAAAAAAAAAA4AAAAAA4AAIAAIAA4AAAAAIAA2AAAAA222AAAAA
AAAA2AAAAAA42AAAAAAAAAAAA4AAAAAA4AAIAA4AA4AAAAAIAA2AAAAA222AAAAA
AAAA2AAAAAA42AIAAAAAAAAAA4AAAAAA4AAIAA4AA4AAAAAIAA2AAAAA222AAAAA
AAAA2AAAAAA22AIAAAAAAAAAA4AAAAAA4AAIAA4AA4AAAAAIAA2AAAAA222AAAAA
AAAA2AAAAAA22AIAAAAAAAAAA2AAAAAA4AAIAA4AA4AAAAAIAA2AAAAA222AAAAA
AAAA2AAAAAA22AIAAAAAAAAAA2AAAAAA4AA4AA4AA4AAAAAIAA2AAAAA222AAAAA
AAAA2AAIAAA22AIAAAAAAAAAA2AAAAAA4AA4AA4AA4AAAAAIAA2AAAAA222AAAAA
AAAA2AAIAAAI2AIAAAAAAAAAA2AAAAAA4AA4AA4AA4AAAAAIAA2AAAAA222AAAAA
AAAA2AA2AAA22A4AAAAAAAAAA2AAAAAA4AA4AA4AA4AAAAAIAA2AAAAA222AAAAA
AAAA2AA2AAA22A4AAAAAAAAAA2AAAAAA4AA4AA4AA4AAAAAIAA2AAAAAA22AAAAA
AAAA2AA2AAA22A4AAAAAAAAAA2AAAAAA4AA4AA4AA4AAAAAIAA2AAAAAAA2AAAAA
AAAA2AA2AAAI2A4AAAAAAAAAA2AAAAAA4AA4AA4AA4AAAAAIAA2AAAAAAA2AAAAA
AAAA2AAAAAA22A2AAAAAAAAAA2AAAAAA4AA4AA4AA4AAAAAIAA2AAAAAAA2AAAAA
AAAA2AAAAAA22A2AAAAAAAAAA2AAAAAA4AA4AA4AA4AAAAAIAA2AAAAAAI2AAAAA
AAAA2AAAAAA22A2AAAAAAAAAA2AAAAAA4AA4AA4AA4AAAAAIAA2AAAAAII2AAAAA
AAAA2AAAAAA22A2AAAAAAAAAAAAAAAAA4AA4AA4AA4AAAAAIAA2AAAAAII2AAAAA
AAAA2AAIAAA22A2AAAAAAAAAAAAAAAAA4AA4AA4AA4AAAAAIAA2AAAAAII2AAAAA
AAAA2AA4AAA22A2AAAAAAAAAAAAAAAAA4AA4AA4AA4AAAAAIAA2AAAAAII2AAAAA
AAAA2AA4AAA22A2AAAAAAAAAAAAAAAAA2AA4AA4AA4AAAAAIAA2AAAAAII2AAAAA
AAAA2AA4AAA22A2AAAAAAAAAAAAAAAAA2AA4AA4AA4AAAAAAAA2AAAAA442AAAAA
AAAA2AA4AAA22A2AAAAAAAAAAAAAAAAA2AA4AA4AA4AAAAAAAA2AAAAA222AAAAA
AAAA2AA4AAA22A2AAAAAAAAAAAAAAAAA2AA4AA4AA4AAAAAAAA2AAAAAA22AAAAA
AAAA2AAAAAA22A2AAAAAAAAAAAAAAAAA2AA4AA4AA4AAAAAAAA2AAAAAA22AAAAA
AAAA2AAAAAAA2A2AAAAAAAAAAAAAAAAA2AA4AA4AA4AAAAAAAA2AAAAAA22AAAAA
AAAA2AAAAAAI2A2AAAAAAAAAAAAAAAAA2AA4AA4AA4AAAAAAAA2AAAAAA22AAAAA
AAAA2AAAAAAI2A2AAAAIAAAAAAAAAAAA2AA4AA4AA4AAAAAAAA2AAAAAA22AAAAA
AAAA2AAAAAA42A2AAAAIAAAAAAAAAAAA2AA4AA4AA4AAAAAAAA2AAAAAA22AAAAA
AAAAAAAAAAA42A2AAAA4AAAAAAAAAAAA2AA4AA4AA4AAAAAAAA2AAAAAA22AAAAA
AAAAAAAAAAA22A2AAAA4AAAAAAAAAAAA2AA4AA4AA4AAAAAAAA2AAAAAA22AAAAA
AAAAAAAAAAA22AAAAAA2AAAAAAAAAAAA2AA4AA4AA4AAAAAAAA2AAAAAA22AAAAA
AAAAAAAAAAA22AAAAAA2AAAAAAAAAAAAAAA4AA2AA4AAAAAAAA2AAAAAA22AAAAA
AAAAAAAAAAA22AAAAAA2AAAAAAAAAAAAAAAAAA2AA2AAAAAAAA2AAAAAA22AAAAA
AAAAAAAAAAAI2AAAAAA2AAAAAAAAAAAAAAAAAA2AA2AAAAAAAA2AAAAAA22AAAAA
AAAAAAAAAAAI2AAAAAA2AAAAAAAAAAAAIAAAAA2AA2AAAAAAAA2AAAAAA22AAAAA
AAAAAAAAAAAI2AAAAAA2AAAAAAAAAAAA2AAAAA2AA2AAAAAAAA2AAAAAA22AAAAA
AAAAAAAAAAA42AAAAAA2AAAAAAAAAAAA2AAAAA2AA2AAAAAAAA2AAAAAA22AAAAA
AAAAIAAAAAA42AAAAAA2AAAAAAAAAAAA2AAAAA2AA2AAAAAAAA2AAAAAA22AAAAA
AAAAIAAAAAAA2AAAAAA2AAAAAAAAAAAA2AAAAA2AA2AAAAAAAA2AAAAAA22AAAAA
AAAA2AAAAAAA2AAAAAA2AAAAAAAAAAAA2AAAAA2AA2AAAAAAAA2AAAAAA22AAAAA
AAAAAAAAAAAA2AAAAAA2AAAAAAAAAAAA2AAAAA2AA2AAAAAAAA2AAAAAA22AAAAA
AAAAAAAAAAAA2AIAAAA2AAAAAAAAAAAA2AAAAA2AA2AAAAAAAA2AAAAAA22AAAAA
AAAAAAAAAAAA2AIAIAA2AAAAAAAAAAAA2AAAAA2AA2AAAAAAAA2AAAAAA22AAAAA
AAAAAAAAAAAA2AIAIAA2AAAAAAAAAAAA2AAAAA2AA2AAAAAAAI2AAAAAA22AAAAA
AAAAAAAAAAAA2AIAIAA2AAAAAAAAAAAA2AAAAA2AA2AAAAAAAI2AAAAAA22AAAIA
AAAAAAAAAAAA2AIAIAA2AAAAAAAAAAAA2AAAAA2AA2AAAAAAAA2AAAAAA22AAA4A
AAAAAAAAAAAA2AIAIIA2AAAAAAAAAAAA2AAAAA2AA2AAAAAAAA2AAAAAA22AAA4A
AAAAAAAAAAAA2A4A44A2AAAAAAAAAAAA2AAAAA2AA2AAAAAAAA2AAAAAA22AAA4A
AAAAAAAAAAAA2A4A24A2AAAAAAAAAAAA2AAAAA2AA2AAAAAAAA2AAAAAA22AAA4A
AAAAAAAAAAAA2A4AA2A2AAAAAAAAAAAA2AAAAA2AA2AAAAAAAA2AAAAAA22AAA4A
AAAAAAAAAAAA2A2AA2A2AAAAAAAAAAAA2AAAAA2AA2AAAAAAAA2AAAAAA22AAA4A
AAAAAAAAAAAA2AAAA2A2AAAAAAAAAAAA2AAAAA2AA2AAAAAAAA2AAAAAA22AAA4A
AAAAAAAAAAAA2AAAAAA2AAAAAAAAAAAA2AAAAA2AA2AAAAAAAA2AAAAAA22AAA4A
AAAAAAAAAAAA2AAAAAA2AAAAAAAAAAAA2AAAAA2AA2AAAAAAAAAAAAAAA22AAA4A
AAAAAAAAAAAA2AAAAAA2AAAAAAAAAAAA2AAAAA2AA2AAAAAAAAAAAAAAA2AAAA4A
AIAAAAAAAAAA2AAAAAA2AAAAAAAAAAAA2AAAAA2AA2AAAAAAAAAAAAAAA2AAAA4A
AIAIAAAAAAAA2AAAAAA2AAAAAAAAAAAA2AAAAA2AA2AAAAAAAAAAAAAAA2AAAA4A
AIAIAAAAAAAA2AAAIAA2AAAAAAAAAAAA2AAAAA2AA2AAAAAAAAAAAAAAA2AAAA4A
AIAIAAAAAAAA2AAA2AA2AAAAAAAAAAAA2AAAAA2AA2AAAAAAAAAAAAAAA2AAAA4A
AIAIAAAAAAAA2AAAAAA2AAAAAAAAAAAA2AAAAA2AA2AAAAAAAAAAAAAAA2AAAA4A
AIAIAAAAAAAA2AAAAAA2AAAAAAAAAAAA2AAAAA2AA2AAAAAAAAAAAAAAA2AAAA2A
AIAIAAAAAAAA2AAAAAA2AAAAAAAAAAAA2AAAAA2AA2AAAAAAAAAAIAAAA2AAAA2A
AIAIAAAAAAAA2AAAAAA2AAAAAIAAAAAA2AAAAA2AA2AAAAAAAAAAIAAAA2AAAA2A
AIAIAIAAAAAA2AAAAAA2AAAAAIAAAAAA2AAAAA2AA2AAAAAAAAAAIAAAA2AAAA2A
AIAIAIAAAAAA2AAAAAA2AAAAA4AAAAAA2AAAAA2AA2AAAAAAAAAAIAAAA2AAAA2A
AIAIAIAAAAAA2AAAAAA2AIAAA4AAAAAA2AAAAA2AA2AAAAAAAAAAIAAAA2AAAA2A
AIAIAAAAAAAA2AAAAAA2A4AAA4AAAAAA2AAAAA2AA2AAAAAAAAAAIAAAA2AAAA2A
AIAIAAAAAAAA2AAAAAA2A4AAA4AAAAAA2AAAAA2AA2AAAAAAAAAAIAIAA2AAAA2A
AIAIAAAAAAAA2AAAAIA2A4AAA4AAAAAA2AAAAA2AA2AAAAAAAAAAIAIAA2AAAA2A
AAAIAAAAAAAA2AAAA4A2A4AAA4AAAAAA2AAAAA2AA2AAAAAAAAAAIAIAA2AAAA2A
AAAIAAAAAAAA2AAAA2A2A4AAA4AAAAAA2AAAAA2AA2AAAAAAAAAAIAIAA2AAAA2A
AAAIAAAAAAAA2AAAA2A2A4AAA4AAAAAA2AAAAA2AA2AAAAAAAAAA4AIAA2AAAA2A
AAAIAAAAAAAA2AAAA2A2A4AAA4AAAAAA2AAAAA2AA2AAAAAAAAAA4AIAA2AAIA2A
AAAIAAAAAAAA2AAAAIA2A4AAA4AAAAAA2AAAAA2AA2AAAAAAAAAA4AIAA2AAIA2A
AAAIIAAAAAAA2AAAAIA2A4AAA4AAAAAA2AAAAA2AA2AAAAAAAAAA4AIAA2AAIA2A
AAA22AAAAAAA2AAAA4A2A4AAA4AAAAAA2AAAAA2AA2AAAAAAAAAA4AIAA2AAIA2A
AAA2AAAAAAAA2AAAA4A2A4AAA4AAAAAA2AAAAA2AA2AAAAAAAAAA4AIAA2AAIA2A
AAA2AAAAAAAA2AAAA2A2A4AAA4AAAAAA2AAAAA2AA2AAAAAAAAAA4AIAA2AAIA2A
AAA2AAAAAAAA2AAAA2A2A4AAA4AAAAAA2AAAAA2AA2AAAAAAAAAA4AIAA2AA4A2A
AAA2IAAAAAAA2AAAA2A2A4AAA4AAAAAA2AAAAA2AA2AAAAAAAAAA4AIAA2AA4A2A
AAA2IAAAAAAA2AAAA2A2A2AAA4AAAAAA2AAAAA2AA2AAAAAAAAAA4AIAA2AA4A2A
AAA2IAAAAAAA2AAAA2A2A2AAA4AAAAAA2AAAAA2AA2AAAAAAAAAA4A4AA2AA4A2A
AAA2AAAAAAAA2AAAA2A2A2AAA4AAAAAA2AAAAA2AA2AAAAAAAAAA4A4AA2AA4A2A
AAA2AAAAAAAA2AAAA2A2A2AAAAAAAAAA2AAAAA2AA2AAAAAAAAAA4A4AA2AA4A2A
AAA2AAAAAAAA2AAAA2A2A2AAAAAAAAAA2AAAAA2AA2AAAAAAAAAAAA2AA2AA4A2A
AAA2AAAAAAAA2AAAA2A2A2AAAAAAAAAAAAAAAA2AA2AAAAAAAAAAAA2AA2AA4A2A
AAA2AAAAAAAA2AAAA2A2A2AAAAAAAAAAAAAAAA2AA2AAAAAAAAAAAA2AA2AA2A2A
AAA2AAAAAAAA2AAAAAA2A2AAAAAAAAAAAAAAAA2AA2AAAAAAAAAAAA2AA2AA2A2A
AAA2AAAAAAAA2AAAAAA2A2AAAAAAAAAAAAAAAA2AAAAAAAAAAAAAAA2AA2AA2A2A
AAA2AAAAAAAA2AAAAAA2A2AAAAAAAAAAAAAAAA2AAAAAAAAAAAAAAA2AA2AAAA2A
AAA2AAAAAAAA2AAAAAA2A2AAAAAAAAAAAAAAAA2AAIAAAAAAAAAAAA2AA2AAAA2A
AAA2AAAAAAAA2AAAAIA2A2AAAAAAAAAAAAAAAA2AAIAAAAAAAAAAAA2AA2AAAA2A
AAA2AAAAAAAA2AAAA4A2A2AAAAAAAAAAAAAAAA2AAIAAAAAAAAAAAA2AA2AAAA2A
AAA2AAAAAAAA2AAAA4A2A2AAAAAAAAAAAAAAAA2AAIAAAAAAAAAAAA2AA2AAAAAA
AAA2AAAAAAAA2AAAAAA2A2AAAAAAAAAAAAAAAA2AAIAAAAAAAAAAAA2AA2AAAAAA
AAA2AAAAAAAA2AAAAIA2A2AAAAAAAAAAAAAAAA2AAIAAAAAAAAAAAA2AA2AAAAAA
AAA2AAAAAAAA2AAAA4A2A2AAAAAAAAAAAAAAAA2AAIAAAAAAAAAAAA2AA2AAAAAA
AAA2AAAAAAAA2AAAA2A2A2AAAAAAAAAAAAAAAA2AAIAAAAAAAAAAAA2AA2AAAAAA
AAA2AAAAAAAA2AAAA2A2A2AAAAAAAAAAAAAAAA2AA2AAAAAAAAAAAA2AA2AAAAAA
AAA2AAAAAAAA2AAAA2A2A2AAAAAAAAAAAAAAAA2AA2AAAAAAAAAAAA2AA2AIAAAA
AAA2AAAAAAAA2AAAA2A2A2AAAAAAAAAAAAAAAA2AAAAAAAAAAAAAAA2AA2AIAAAA
AAA2AAAAAAAA2AAAA2A2A2AAAAAAAAAAAAAAAA2AAAAAAAAAAAAAAA2AA2AIAAAI
AAA2AAAAAAAA2AAAA2A2A2AAAAAAAAAAAAAAAA2AAIAAAAAAAAAAAA2AA2AIAAAI
AAA2AAAAAAAA2AAAA2A2A2AAAAAAAAAAAAAAAA2AAIAAAAAAAAAAAA2AA2A4AAA4
AAA2AAAAAAAA2AAAI2A2A2AAAAAAAAAAAAAAAA2AAIAAAAAAAAAAAA2AA2A4AAA4
AAA2AAAAAAAA2AAAI2A2A2AAAAAAAAAAAAAAAA2AAIAAAAAAAAAAAA2AA2A2AAA4
AAA2AAAAAAAA2AAA42A2A2AAAAAAAAAAAAAAAA2AAIAAAAAAAAAAAA2AA2A2AAA4
AAA2AAAAAAAA2AAA42A2A2AAAAAAAAAAAAAAAA2AAIAAAAAAAIAAAA2AA2A2AAA4
AAA2AAAAAAAA2AAA4AA2A2AAAAAAAAAAAAAAAA2AAIAAAAAAAIAAAA2AA2A2AAA4
AAA2AAAAAAAA2AAA4AA2A2AAAAAAAAAAAAAAAA2AA2AAAAAAA4AAAA2AA2A2AAA4
AAA2AAAAAAAA2AAA4AA2A2AAAAAAAAAAAAAAAA2AA2AAAAAAAAAAAA2AA2A2AAA4
AAA2AAAAAAAA2AAA4AA2A2AAAAAAAAAAAAAAAA2AAIAAAAAAAAAAAA2AA2A2AAA4
AAA2AAAAAAAA2AAA4AA2A2AAAAAAAAAAAAAAAA2AAIAAAAAAAAAAAA2AA2AIAAA4
AAA2AAAAAAAA2AAA4AA2A2AAAAAAAAAAAAAAAA2AAIAAAAAAAIAAAA2AA2AIAAA4
AAA2AAAAAAAA2AAA2AA2A2AAAAAAAAAAAAAAAA2AAIAAAAAAAIAAAA2AA2AIAAA4
AAA2AAAAAAAA2AAAAAA2A2AAAAAAAAAAAAAAAA2AAIAAAAAAAIAAAA2AA2AIAAA4
AAA2AAAAAAAA2AAAAAA2A2AAAAAAAAAAAAAAAA2AAAAAAAAAA2AAAA2AA2A4AAA4
AAA2AAAAAAAA2AAAAAA2A2AAAAAAAAAAAAAAAA2AAAAAAAAAA2AAAA2AA2AAAAA2
AAA2AAAAAAAA2AAAAAA2A2AAAAAAAAAAAAAAAA2AAAAAAAAAAIAAAA2AA2AAAAA2
AAA2AAAAAAAA2AAAAAA2A2AAAAAAAAAAAAAAAA2AAIAAAAAAAIAAAA2AA2AAAAA2
AAA2AAAAAAAA2AAAAAA2A2AAAAAAAAAAAAAAAA2AA4AAAAAAAIAAAA2AA2AAAAA2
AAA2AAAAAAAA2AAAAAA2A2AAAAAAAAAAAAAAAA2AA4AAAAAAAIAAAA2AA2AIAAA2
AAA2AAAAAAAA2AAAAAA2A2IAAAAAAAAAAAAAAA2AA4AAAAAAAIAAAA2AA2AIAAA2
AAA2AAAAAAAA2AAAAAA2A2IAAAAAAAAAAAAAAA2AA2AAAAAAA4AAAA2AA2AIAAA2
AAA2AAAAAAAA2AAAAAA2A2IAAAAAAAAAAAAAAA2AAAAAAAAAA4AAAA2AA2AIAAA2
AAA2AAAAAAAA2AAAAAA2A2IAAAAAAAAAAAAAAA2AAAAAAAAAA4AAAAAAA2A2AAA2
AAA2AAAAAAAA2AAAAAA2A24AAAAAAAAAAAAAAA2AAAAAAAAAA4AAAAAAA2A2AAA2
AAA2AAAAAAAA2AAAAAA2A24AAAAAAAAAAAAAAA2AAAAAAAAAA4AAAAIAA2A2AAA2
AAA2AAAAAAAA2AAAAAA2A24AAAAAAAAAAAAAAA2AAAAAAAAAA4AAAA2AA2A2AAA2
AAA2AAAAAAAA2AAAAAA2A24AAAAAAAAAAAAAAA2AAAAAAAAAA4AAAAAAA2A2AAA2
AAA2AAAAAAAA2AAAAAA2A22AAAAAAAAAAAAAAA2AAAAAAAAAA4AAAAAAA2A2AAA2
AAA2AAAAAAAAAAAAAAA2A22AAAAAAAAAAAAAAA2AAAAAAAAAA4AAAAAAA2A2AAA2
AAA2AAAAAAAAAAAAAAA2A22AAAAAAAAAAAAAAA2AAAAAAAAAAAAAAAAAA2A2AAA2
AAA2AAAAAAAAAAIAAAA2A22AAAAAAAAAAAAAAA2AAAAAAAAAAAAAAAAAA2A2AAA2
AAA2AAAAAAAAAAIAAAA2A22AAAAAAAAAAAAAAA2AAAAAAAAAAAAAAAIAA2A2AAA2
AAA2AAAAAAAAAAIAAAA2A22AAAAAAAAAAAAAAA2AAAAAAAAAAAAAAA4AA2A2AAA2
AAA2AAAAAAAAAA4AAAA2A22AAAAAAAAAAAAAAA2AAAAAAAAAAAAAAA4AA2A2AAA2
AAA2AAAAAAAAAA4AAAA2A22AAAAAAAAAAAAAAA2AAAAAAAAAAAAAAA2AA2A2AAA2
AAA2AAAAAAAAAA4AAAA2A22AAAAAAAAAAAAAAA2AAAAAAAAAAAAAAAAAA2A2AAA2
AAA2AAAAAAAAAA4AAAA2A22AAAAAAIAAAAAAAA2AAAAAAAAAAAAAAAAAA2A2AAA2
AAA2AAAAAAAAAA4AAAA2A22AAAAAA2AAAAAAAA2AAAAAAAAAAAAAAAAAA2A2AAA2
AAA2AAAAAAAAAA2AAAA2A22AAAAAA2AAAAAAAA2AAAAAAAAAAAAAAAAAA2A2AAA2
AAA2AAAAAAAAAA2AAAA2A22AAAAAA2AAAAAAAA2AAAAAAAAAAAAAIAAAA2A2AAA2
AAA2AAAAAAAAAA2AAAA2A22AAAAAI2AAAAAAAA2AAAAAAAAAAAAAIAAAA2A2AAA2
AAA2AAAAAAAAAI2AAAA2A22AAAAAI2AAAAAAAA2AAAAAAAAAAAAAIAAAA2A2AAA2
AAA2AAAAAAAAAI2AAAA2A22AAAAAI2AAAAAAAA2AAAAAAAAAAAAAAAAAA2A2AAA2
AAA2AAAAAAAAA42AAAA2A22AAAAAI2AAAAAAAA2AAAAAAAAAAAAAAAAAA2A2AAA2
AAA2AAAAAAAAA42AAAA2A22AAAAAA2AAAAAAAA2AAAAAAAAAAAAAAAAAA2A2AAA2
AAA2AAAAAAAAA22AAAA2A22AAAAAA2AAAAAAAA2AAAAAAAAAAAAAAAAAA2A2AAA2
AAA2AAAAAAAAA22AAAA2AA2AAAAAA2AAAAAAAA2AAAAAAAAAAAAAAAAAA2A2AAA2
AAA2AAAAAAAAA22AAAA2AA2AAAAAAAAAAAAAAA2AAAAAAAAAAAAAAAAAA2A2AAA2
AAA2AAAAAAAAA22AIAA2AA2AAAAAAAAAAAAAAA2AAAAAAAAAAAAAAAAAA2A2AAA2
AAA2AAAAAAAAA22AIAA2AA2AAAAAAAAAAAAIAA2AAAAAAAAAAAAAAAAAA2A2AAA2
AAA2AAAIAAAAA22AIAA2AA2AAAAAAAAAAAAIAA2AAAAAAAAAAAAAAAAAA2A2AAA2
AAA2AAA2AAAAA22A4AA2AA2AAAAAAAAAAAAIAA2AAAAAAAAAAAAAAAAAA2A2AAA2
AAA2AAA2AAAAA22AAAA2AA2AAAAAAAAAAAAIAA2AAAAAAAAAAAAAAAAAA2A2AAA2
AAA2AAA2AAAAA22AAAA2AA2AAAAAAAAAAAA2AA2AAAAAAAAAAAAAAAAAA2A2AAA2
AAA2AAA2AAAAA22AAAA2AA2AAAAAAAAAAAAAAA2AAAAAAAAAAAAAAAAAA2A2AAA2
AAA2AAA2AAAAA22AAAA2AA2AAAAAAAAAAAAAAA2AAAAAAAAAAAAAAAAAAAA2AAA2
AAAAAAA2AAAAA22AAAA2AA2AAAAAAAAAAAAAAA2AAAAAAAAAAAAAAAAAAAA2AAA2
AAAAAAAAAAAAA22AAAA2AA2AAAAAAAAAAAAAAA2AAAAAAAAAAAAAAAAAAAA2AAA2
AAAAAAAAAAAAA22AAAA2IA2AAAAAAAAAAAAAAA2AAAAAAAAAAAAAAAAAAAA2AAA2
AAAAAAAAAAAAA22AAAA2IA2AAAAAAAAAAAAAAA2AAAAAAAAAAAAAAAAAAAA2AAAA
AAAAAAAAAAAAA22AAAA22A2AAAAAAAAAAAAAAA2AAAAAAAAAAAAAAAAAAAA2AAAA
AAAAAAAAAAAAA22AAAA2IA2AAAAAAAAAAAAAAA2AAAAAAAAAAAAAAAAAAAA2AAAA
AAAAAIAAAAAAA22AAAA2IA2AAAAAAAAAAAAAAA2AAAAAAAAAAAAAAAAAAAA2AAAA
AAAAAIAAAAAAA22AAAA2IA2AAAAAAAAAAAAAIA2AAAAAAAAAAAAAAAAAAAA2AAAA
AAAAAIAAAAAAA22AAAA2IA2AAAAAAAAAAAAAIA2AAAAAAAAAAIAAAAAAAAA2AAAA
AAAAAIAAAAAAA22AAAA24A2AAAAAAAAAAAAAIA2AAAAAAAAAAIAAAAAAAAA2AAAA
AAAAAIAAAAAAA22AAAA24A2AAAAAAAAAAAAA2A2AAAAAAAAAAIAAAAAAAAA2AAAA
AAAAAIAAAAAAA22AAAA24A2AAAAIAAAAAAAA2A2AAAAAAAAAAIAAAAAAAAA2AAAA
AAAAAIAAAAAAA22AAAA22A2AAAA4AAAAAAAA2A2AAAAAAAAAAIAAAAAAAAA2AAAA
AAAAAIAAAAAAA22AAAA22A2AAAA4AAAAAAAA2A2AAAAAAAAAA4AAAAAAAAA2AAAA
AAAAAIAAAAAAA22AAAA2IA2AAAA4AAAAAAAA2A2AAAAAAAAAA4AAAAAAAAA2AAAA
AAAAAIAAAAAAA22AAAA24A2AAAA4AAAAAAAA2A2AAAAAAAAAA4AAAAAAAAA2AAAA
AAAAAIAAAAAAA22AAAA24A2AAAAAAAAAAAAA2A2AAAAAAAAAA4AAAAAAAAA2AAAA
AAAAAIAAAAAAA22AAAA24A2AAAAAAAAAAAAA2A2AAAAAAAAAA2AAAAAAAAA2AAAA
AAAAAIAAAIAAA22AAAA24A2AAAAAAAAAAAAA2A2AAAAAAAAAA2AAAAAAAAA2AAAA
AAAAAIAAAIAIA22AAAA24A2AAAAAAAAAAAAA2A2AAAAAAAAAA2AAAAAAAAA2AAAA
AAAAAIAAAIAIA22AAAA24A2AAAAAAAAAAAIA2A2AAAAAAAAAA2AAAAAAAAA2AAAA
AAAAAIAAAIAIA22AAAA24A2AAAAAAAAAAAIA2A2AAAAAAAAAAIAAAAAAAAA2AAAA
AAAAAIAAAIAIA22AAAA24A2AAAAAAAAAAAIA2A2AAAAAAAAAAIAAAAAAAAI2AAAA
AAAAAIAAAIAIA22AAAA2AA2AAAAAAAAAAA4A2A2AAAAAAAAAAIAAAAAAAAI2AAAA
AAAAAIAAAIAIA22AAAA2AA2AAAAAAAAAAA4A2A2AAAAAAAAAA4AAAAAAAAI2AAAA
AAAAA2AAA2A4A22AAAA2AA2AAAAAAAAAAA4A2A2AAAAAAAAAA4AAAAAAAAI2AAAA
AAAAA2AAAAA4A22AAAA2AA2AAAAAAAAAAA4A2A2AAAAAAAAAA4AAAAAAAAI2AAAA
AAAAA2AAAAAAA22AAAA2AA2AAAAAAAAAAA4A2A2AAAAAAAAAA4AAAAAAAAI2AAAA
AAAAA2AAAAAAA2AAAAA2AA2AAAAAAAAAAA4A2A2AAAAAAAAAA4AAAAAAAAI2AAAA
AAAAAIAAAAAAA2AAAAA2AA2AAAAAAAAAAA4A2A2AAAAAAAAAA4AAAAAAAAI2AAAA
AAAAAIAAAAAAA2AAAAA2IA2AAAAAAAAAAA4A2A2AAAAAAAAAA4AAAAAAAAI2AAAA
AAAAAAAAAAAAA2AAAAA24A2AAAAAAAAAAA4A2A2AAAAAAAAAA4AAAAAAAAI2AAAA
AAAAAIAAAAAAA2AAAAA24A2AAAAAAAAAAA4A2A2AAAAAAAAAA4AAAAAAAAI2AAAA
AAAAAIAAAAAAA2AAAAA24A2AAAAAAAAAAA4A2A2AAAAAAAAAA4AAAAAAAA22AAAA
AAAAAIAAAAAAA2AAAAA24A2AAAAAAAAAAA2A2A2AAAAAAAAAA4AAAAAAAA22AAAA
AAAAAAAAAAAAA2AAAAA24A2AAAAAAAAAAA2A2A2AAAAAAAAAA4AAAAAAAA22AAAA
AAAAAAAAAAAAA2AAAAA22A2AAAAAAAAAAA2A2A2AAAAAAAAAA4AAAAAAAA22AAAA
AAAAAAAAAAAAA2AAAAA22A2AAAAAAAAAAA2A2A2AAAAAAAAAAAAAAAAAAA22AAAA
AAAAAAAAAAAAA2AAAAA22A2AAAAAAAAAAA2A2A2AAAAAAAAAAAAAAAAAAA22AAIA
AAAAAAAIAAAAA2AAAAA22A2AAAAAAAAAAA2A2A2AAAAAAAAAAAAAAAAAAA22AAIA
AAAAAAAIAAAAA2AAAAA22A2AAAAAAAAAAA2A2A2AAAAAAAAAAAAAAAAAAI22AAIA
AAAAAAAIAAAAA2AAAAA22A2AAAAAAAAAAA2A2A2AAAAAAAAAAAAAAAAAA222AA4A
AAAAAAAAAAAAA2AAAAA22A2AAAAAAAAAAA2A2A2AAAAAAAAAAAAAAAAAA222AA4A
AAAAAAAAAAAAA2AAAAA22A2AAAAAAAAAAA2A2A2AAAAAAAAAAAAAAAAAAI22AA4A
AAAAAAAAAAAAA2AAAAA22A2AAAAAAAAAAA2A2A2AAAAAAAAAAAAAAAAAA422AA4A
AAAAAAAAAAAAA2AAAAA22A2AAAAAAAAAAA2A2A2AAAAAAAAAAAAAAAAAA222AA4A
AAAAAAAAAAAAA2AAIAA22A2AAAAAAAAAAA2A2A2AAAAAAAAAAAAAAAAAA222AA4A
AAAAAAAAAAAAA2AAIAA22AAAAAAAAAAAAA2A2A2AAAAAAAAAAAAAAAAAA222AA4A
AAAAAAAAAAAAA2AA4AA22AAAAAAAAAAAAA2A2A2AAAAAAAAAAAAAAAAAA222AA4A
AAAAAAAAAAAAA2AA4AA22AIAAAAAAAAAAA2A2A2AAAAAAAAAAAAAAAAAA222AA4A
AAAAAAAAAAAAA2AA4AA22A4AAAAAAAAAAA2A2A2AAAAAAAAAAAAAAAAAA222AA4A
AAAAAAAAAAAAA2AA4AA22A4AAAAAAIAAAA2A2A2AAAAAAAAAAAAAAAAAA222AA4A
AAAAAAAAAAAAA2AA2AA22A4AAAAAA4AAAA2A2A2AAAAAAAAAAAAAAAAAA222AA4A
AAAAAAAAAAAAA2AA2AA22A4AAAAAAAAAAA2A2A2AAAAAAAAAAAAAAAAAA222AA4A
AAAAAAAAAAAAA2AAAAA22A4AAAAAAAAAAA2A2A2AAAAAAAAAAAAAAAAAA222AA4A
AAAAAAAAAAAAA2AAAAA22A4AAAAAAAAAAA2A2A2AAAAAAAAAAAAAAAAAA2A2AA4A
AIAAAAAAAAAAA2AAAAA22A4AAAAAAAAAAA2A2A2AAAAAAAAAAAAAAAAAA2A2AA4A
AIAAAAAAAAAAA2AIAAA22A4AAAAAAAAAAA2A2A2AAAAAAAAAAAAAAAAAA2A2AA4A
AIAAAAAAAAAAA2AIAAA2AA2AAAAAAAAAAA2A2A2AAAAAAAAAAAAAAAAAA2A2AA4A
AIAAAAAAAAAAA2AIAAA2AA2AAAAAAAAAAA2A2A2AAAAAAAAAAAAAAAAAA2I2AA4A
AIAAAAAAAAAAA2A4AAA2AA2AAAAAAAAAAA2A2A2AAAAAAAAAAAAAAAAAA2I2AA4A
AIAAAAAAAAAAA2A2AAA2AA2AAAAAAAAAAA2A2A2AAAAAAAAAAAAAAAAAA2I2AA4A
AIAAAAAAAAAAAAA2AAA2AA2AAAAAAAAAAA2A2A2AAAAAAAAAAAAAAAAAA2I2AA4A
AIAAAAAAAAAAAAAAAAA2AA2AAAAAAAAAAA2A2A2AAAAAAAAAAAAAAAAAA2I2AA4A
AIAAAAAAAAAAAAAAAAA2AA2AAAAAAAAAAA2A2A2AAAAAAAAAAAAAAAAAA2I2AAAA
AIAAAAAAAAAAAAAIAAA2AA2AAAAAAAAAAA2A2A2AAAAAAAAAAAAAAAAAA2I2AAAA
AIAAAAAAAAAAAAAIAAA2IA2AAAAAAAAAAA2A2A2AAAAAAAAAAAAAAAAAA2I2AAAA
AIAAAAAAAAAAAAAIAAA24A2AAAAAAAAAAA2A2A2AAAAAAAAAAAAAAAAAA2I2AAAA
AIAAAAAAAAAAAAA2AAA24A2AAAAAAAAAAA2A2A2AAAAAAAAAAAAAAAAAA2I2AAAA
AIAAAAAAAAAAAAA2AAA22A2AAAAAAAAAAA2A2A2AAAAAAAAAAAAAAAAAA2I2AAAA
AIAAAAAAAAAAAAA2AAA22AAAAAAAAAAAAA2A2A2AAAAAAAAAAAAAAAAAA2I2AAAA
AIAAAAAAAAAAAAA2AAA22AAAAAAAAAAAAA2A2A2AAAAAAAAAAAAAAAAAA242AAAA
AIAAAAAAAAAAAAA2AAA22AAAAAAAAAAAAA2A2A2AAAAAAAAAAAAAAAAAA222AAAA
AIAAAAAAAAAAAAA2AAA22AAAAAAAAAAAAA2A2A2AAAAAAAAAAAAAIAAAA222AAAA
AIAAAAAAAAAAAAA2AAA22AAAAAAAAAAAAA2A2A2AAAAAAAAAAAAAIAAAA2I2AAAA
AIAAAAAAAAAAAAA2AAA22AIAAAAAAAAAAA2A2A2AAAAAAAAAAAAAIAAAA2I2AAAA
AIAAAAAAAAAAAAA2AAI22AIAAAAAAAAAAA2A2A2AAAAAAAAAAAAAIAAAA2I2AAAA
AIAAAAAAAAAAAAA2AAI2IAIAAAAAAAAAAA2A2A2AAAAAAAAAAAAAIAAAA2I2AAAA
AAAAAAAAAAAAAAA2AAI2IAIAAAAAAAAAAA2A2A2AAAAAAAAAAAAAIAAAA2I2AAAA
AAAAAAAAAAAAAAA2AA42IAIAAAAAAAAAAA2A2A2AAAAAAAAAAAAAIAAAA2I2AAAA
AAAAAAAAAAAAAAA2AA424A4AAAAAAAAAAA2A2A2AAAAAAAAAAAAAIAAAA2I2AAAA
AAAAAAAAAAAAIAA2AA424A4AAAAAAAAAAA2A2A2AAAAAAAAAAAAAIAAAA2I2AAAA
AAAAAAAAAAAAIAA2AA222A2AAAAAAAAAAA2A2A2AAAAAAAAAAAAAIAAAA2I2AAAA
AAAAAAAAAAAAIAA2AA222AAAAAAAAAAAAA2A2A2AAAAAAAAAAAAAIAAAA2I2AAAA
AAAAAAAAAAAA2AA2AA222AAAAAAAAAAAAA2A2A2AAAAAAAAAAAAAIAAAA2I2AAAA
AAAAAAAAAAAA2AA2AA222AAAAAAAAAAAAA2A2A2AAAAAAAAAAAAA2AAAA242AAAA
AAAAAAAAAAAA2AA2AA222AAAAAAAAAAAAA2A2A2AAAAAAAAAAAAA2AAAA222AAAA
AAAAAAAAAAAA2IA2AA222AAAAAAAAAAAAA2A2A2AAAAAAAAAAAAA2AAAA222AAAA
AAAAAAAAAAAA24A2AA222AAAAAAAAAAAAA2A2A2AAAAAAAAAAAAA2AAAA222AAAA
AAAAAIAAAAAA24A2AA222AAAAAAAAAAAAA2A2A2AAAAAAAAAAAAA2AAAA222AAAA
AAAAAIAAAAAA24A2AA222AAAAAAAAAAAAA2A2A2AAAAAAIAAAAAA2AAAA222AAAA
AAAAAIAAAAAA24A2AA222AAAAAAAAAAAAA2A2A2AAAAAAIAAAAAAAAAAA222AAAA
AAAAAIAAAAAA22A2AA222AAAAAAAAAAAAA2A2A2AAAAAAIAAAAAAAAAAA222AAAA
AAAAAIAAAAAA22A2AA222AAAAAAAAAAAAA2A2A2AAAAAAAAAAAAAAAAAA222AAAA
AAAAAIAAAAAA22A2AA222AAAAAAAAAAAAA2A2A2AAAAAAAAAAAAAAAIAA222AAAA
AAAAA2AAAAAA22A2AA222AAAAAAAAAAAAA2A2A2AAAAAAAAAAAAAAAIAA222AAAA
AAAAAIAAAAAA22A2AA222AAAAAAAAAAAAA2A2A2AAAAAAAAAAAAAAAIAA222AAAA
AAAAAAAAAAAA22A2AA222AAAAAAAAAAAAA2A2A2AAAAAAAAAAAAAAAIAA222AAAA
AAAAAAAAAAAA22AAAA222AAAAAAAAAAAAA2A2A2AAAAAAAAAAAAAAAIAA222AAAA
AAAAAAAAAAAA22AAAA222AAAAAAAAAAAAA2A2A2AAAAAAAAAAAAAAA4AA222AAAA
AAAAAAAAAAAA22AAAA222AAAAAAAAAAAAA2A2A2AAAAAAAAAAAAAAA4AA222AAIA
AAAAAAAAAAAA22AAAA222AAAAAAAAAAAAA2A2A2AAAAAAAAAAAAAAAAAA222AAIA
AAIAAAAAAAAA22AAAA222AAAAAAAAAAAAA2A2A2AAAAAAAAAAAAAAAAAA222AAIA
AAIAAAAIAAAA22AAAA222AAAAAAAAAAAAA2A2A2AAAAAAAAAAAAAAAAAA222AAIA
AAIAAAA2AAAA22AAAA222AAAAAAAAAAAAA2A2A2AAAAAAAAAAAAAAAAAA222AAIA
AAIAAAA2AAAA22AAAA222AAAAAAAAAAAAA2AAA2AAAAAAAAAAAAAAAAAA222AAIA
AAIAAAAIAAAA22AAAA222AAAAAAAAAAAAA2AAA2AAAAAAAAAAAAAAAAAA222AAIA
AAIAAAA2AAAA22AAAA222AAAAAAAAAAAAA2AAA2AAAAAAAAAAAAAAAAAA222AAIA
AAAAAAA2AAAA22AAAA222AAAAAAAAAAAAA2AAA2AAAAAAAAAAAAAAAAAA222AAIA
AAAAAAA2AAAA22AAAA222AAAAAAAAAAAAA2AAA2AAAAAAAAAAAAAAAAAA222AA4A
AAAAAAA2AAAI22AAAA222AAAAAAAAAAAAA2AAA2AAAAAAAAAAAAAAAAAA222AA4A
AAAAAIA2AAAI22AAAA222AAAAAAAAAAAAA2AAA2AAAAAAAAAAAAAAAAAA222AA4A
AAAAAIAAAAAI22AAAA222AAAAAAAAAAAAA2AAA2AAAAAAAAAAAAAAAAAA222AA4A
AAAAAIAIAAAI22AAAA222AAAAAAAAAAAAA2AAA2AAAAAAAAAAAAAAAAAA222AA4A
AAAAAIAIAAAI22IAAA222AAAAAAAAAAAAA2AAA2AAAAAAAAAAAAAAAAAA222AA4A
AAAAA2A2AAAI224AAA222AAAAAAAAAAAAA2AAA2AAAAAAAAAAAAAAAAAA222AA4A
AAAAA2A2AAA4224AAA222AAAAAAAAAAAAA2AAA2AAAAAAAAAAAAAAAAAA222AA4A
AAAAA2A2AAAA222AAA222AAAAAAAAAAAAA2AAA2AAAAAAAAAAAAAAAAAA222AA4A
AAAAA2A2AAAA2A2AAA222AAAAAAAAAAAAA2AAA2AAAAAAAAAAAAAAAAAA222AA4A
AAAAA2A2AAAA2AAAAA222AAAAAAAAAAAAA2AAA2AAAAAAAAAAAAAAAAAA222AA4A
AAAAA2A2AAAA2AAAAA222AAAAAAAAAAAAA2AAA2AAAAAAAAAAAAAAAIAA222AA4A
AAAAAAA2AAAA2AAAAA222AAAAAAAAAAAAA2AAA2AAAAAAAAAAAAAAAIAA222AA4A
AAAAAAA2AAAAAAAAAA222AAAAAAAAAAAAA2AAA2AAAAAAAAAAAAAAAIAA222AA4A
AAAAAAA2AAAAAAAAAA222AAAAAAAAAAAAA2AIA2AAAAAAAAAAAAAAAIAA222AA4A
AAAAAAA2AAAAAAAAAA222AAAAAAAAAAAAA2AIA2AAAAAAAAAAAAAAAIAA222AAAA
AAAAAAA2AAIAAAAAAA222AAAAAAAAAAAAA2AIA2AAAAAAAAAAAAAAAIAA222AAAA
AAAAAAA2AA4AAAAAAA222AAAAAAAAAAAAA2AIA2AAAAAAAAAAAAAAAIAA222AAAA
AAAAAAA2AA4AAAAAAA222AAAAAAAAAAAAA2A4A2AAAAAAAAAAAAAAAIAA222AAAA
AAAAAIA2AA4AAAAAAA222AAAAAAAAAAAAA2A4A2AAAAAAAAAAAAAAAIAA222AAAA
AAAAAIA2AA4AAAAAAA222AAAAAAAAAAAAA2AAA2AAAAAAAAAAAAAAAIAA222AAAA
AAAAAIA2AA4AAAAAAA222AAAAAAAAAAAAA2AAA2AAAAAAAAAAAAAAA2AA222AAAA
AAAAAIA2AI4AAAAAAA222AAAAAAAAAAAAA2AAA2AAAAAAAAAAAAAAA2AA222AAAA
AAAAAIA2AI4AAAAAAA222AAAAAAAAIAAAA2AAA2AAAAAAAAAAAAAAA2AA222AAAA
AAAAAAA2A22AAAAAAA222AAAAAAAAIAAAA2AAA2AAAAAAAAAAAAAAA2AA222AAAA
AAAAAAA2A22AAAAAAA222AAAAAAAA4AAAA2AAA2AAAAAAAAAAAAAAA2AA222AAAA
AAAAAIA2A22AAAAAAA222AAAAAAAA4AAAA2AAA2AAAAAAAAAAAAAAA2AA222AAAA
AAAAAIA2A22AAAAAAA222AAAAAAAAAAAAA2AAA2AAAAAAAAAAAAAAA2AA222AAAA
AAAAA4A2A22AAAAAAA222AAAAAAAAAAAAA2AAA2AAAAAAAAAAAAAAA2AA222AAAA
AAAAA4A2AA2AAAAAAA222AAAAAAAAAAAAA2AAA2AAAAAAAAAAAAAAA2AA222AAAA
AAAAA4A2AA2AAAAAAA222AAAAAAAAAAAIA2AAA2AAAAAAAAAAAAAAA2AA222AAAA
AAAAA4A2AAAAAAAAAA222AAAAAAAAAAAIA2AAA2AAAAAAAAAAAAAAA2AA222AAAA
AAAAA4A2AAAAAAAAAA222AAAAAAAAAAA4A2AAA2AAAAAAAAAAAAAAA2AA222AAAA
AAAAA4A2AAAAAAAAAA22AAAAAAAAAAAA4A2AAA2AAAAAAAAAAAAAAA2AA222AAAA
AAAAA2A2AAAAAAAAAA22AAAAAAAAAAAA4A2AAA2AAAAAAAAAAAAAAA2AA222AAAA
AAAAAAA2AAAAAAAAAA22AAAAAAAAAAAA4A2AAA2AAAAAAAAAAAAAAA2AA222AAAA
AAAAAAA2AAAAAAAAAA2AAAAAAAAAAAAA4A2AAA2AAAAAAAAAAAAAAA2AA222AAAA
AAAAAAA2AAAAAAAAAA2AAAAAAAAAAAAA4A2AAA2AAAAAAAAAAAAAAA2AA222AAIA
AAAAAAA2AAAAAAAAAA2AAAAAAAAAAAAA2A2AAA2AAAAAAAAAAAAAAA2AA222AAIA
AAAAAAA2AAAAAAAAAA2AAAAAAAAAAAAA2A2AAA2AAAAAAAAAAAAAAA2AA222AA4A
AAAAAAA2AAAAAAAAAA2AAAAAAAAAAAAA2A2AAA2AAAAAAAAAAAAAAAAAA222AA4A
AAAAAAA2AAAAAAAAAA2AAAAAAAAAAAAA2A2AAA2AAAAAAAAAAAAAAAAAA222AAAA
AAAAAAA2AAAAAAAAAA2AAAAAAAAAAAAA2A2AAA2AAIAAAAAAAAAAAAAAA222AAAA
AAAAAAA2AAAAAAAAAA2AAAAAAAAAAAAA2A2AAA2AA4AAAAAAAAAAAAAAA222AAAA
AAAAAAA2AAAAAAAAAA2AIAAAAAAAAAAA2A2AAA2AA4AAAAAAAAAAAAAAA222AAAA
AAAAAAA2AAAAAAAAAA2AIAAAAAAAAAAA2A2IAA2AA4AAAAAAAAAAAAAAA222AAAA
AAAAAAA2AAAAAAAAAA2A2AAAAAAAAAAA2A2IAA2AA4AAAAAAAAAAAAAAA222AAAA
AAAAAAA2AAAAAAAAAA2A2AAIAAAAAAAA2A2IAA2AA4AAAAAAAAAAAAAAA222AAAA
AAAAAAA2AAAAAAAAAA2A2AA4AAAAAAAA2A2IAA2AA4AAAAAAAAAAAAAAA222AAAA
AAAAAAA2AAAAAAAAAA2A2AA4AAAAAAAA2A24AA2AA4AAAAAAAAAAAAAAA222AAAA
AAAAAAA2AAAAAAAAAA2A2AA4AAAAAAAA2A2AAA2AA4AAAAAAAAAAAAAAA222AAAA
AAAAAAA2AAAAAAAAAA2A2AA4AAAAAAAA2A2AAA2AA4AAAAAAAAAIAAAAA222AAAA
AAAAAAA2AAAAAAAAAA2A2AA4AAAAAAAA2A2AAA2AA4AAAAAAAAA4AAAAA222AAAA
AAAAAAA2AAAAAAAAAA2A2AA4AAAAAAAA2A2AAA2AA4AAAAAIAAA4AAAAA222AAAA
AAAAAAAAAAAAAAAAAA2A2AA4AAAAAAAA2A2AAA2AA4AAAAAIAAA4AAAAA222AAAA
AAAAAAAAAAAAAAAAAA2A2AA4AAAAAAAA2A2AAA2AA4AAAAA2AAA2AAAAA222AAAA
AAAAAAAAAAAAAAAAAA2A2AA4AAAAAAAA2A2AAA2AAAAAAAA2AAA2AAAAA222AAAA
AAAAAAAAAAAAAAAAAA2A2AA4AAAAAAAA2A2AAA2AAIAAAAA2AAA2AAAAA222AAAA
AAAAAAAAAAAAAAAAAA2A2AA4AAAAAAAA2A2AAA2AAIAAAAAAAAA2AAAAA222AAAA
AAAAAAAAAAAAAAAAIA2A2AA4AAAAAAAA2A2AAA2AAIAAAAAAAAA2AAAAA222AAAA
AAAAAAAAAAAAAAAAIA2A2AA4AAAAAAAA2A2AAA2AAIAAAAAIAAA2AAAAA222AAAA
AAAAAAAAAAAAAAAA4A2A2AA4AAAAAAAA2A2AAA2AAIAAAAAIAAA2AAAAA222AAAA
AAAAAAAAAAAAAAAA4A2A2AA4AAAAAAAA2A2AAA2AAAAAAAA4AAA2AAAAA222AAAA
AAAAAAAAAAAAAAAA4A2A2AA4AAAAAAAA2A2AAA2AAAAAAAA4AAA2AAAAA2A2AAAA
AAAAAAAAAAAAAAAA4A2A2AA4AAAAAAAA2A2AAA2AAAAAAAA4AAAAAAAAA2A2AAAA
AAAAAAAAAAAAAAAA2A2A2AA4AAAAAAAA2A2AAA2AAAAAAAA4AAAAAAAAA2A2AAAA
AAAAAAAAAAAAAAAA2A2A2AA4AAAAAAAA2A2AAA2AAAAAAAA2AAAAAAAAA2A2AAAA
AAAAAAAAAAAAAAAA2A2A2AA4AAAAAAAA2A2AAA2AAAAAAAA2AAAAAAAAA2I2AAAA
AAAAAAAAAAAAAAAI2A2A2AA4AAAAAAAA2A2AAA2AAAAAAAA2AAAAAAAAA2I2AAAA
AAAAAAAAAAAAAAA42A2A2AA4AAAAAAAA2A2AAA2AAAAAAAA2AAAAAAAAA2I2AAAA
AAAAAAAAAAAAAAAA2A2A2AA4AAAAAAAA2A2AAA2AAAAAAAA2AAAAAAAAA2I2AAAA
AAAAAAAAAAAAAAAA2A2A2AA4AAAIAAAA2A2AAA2AAAAAAAA2AAAAAAAAA2I2AAAA
AAAAAAAAAAAAAAAA2A2A2AA4AAA4AAAA2A2AAA2AAAAAAAA2AAAAAAAAA2I2AAAA
AAAAAAAAAAAAAAAAAA2A2AA2AAA4AAAA2A2AAA2AAAAAAAA2AAAAAAAAA2I2AAAA
AAAAAAAAAAAAAAAAAA2AAAA2AAA2AAAA2A2AAA2AAAAAAAA2AAAAAAAAA2I2AAAA
AAAAAAAAAAAAAAAAAA2AAAA2AAA2AAAA2A2AAA2AAAAAAAAAAAAAAAAAA242AAAA
AAAAAAAAAAAAAAAAAA2AAAA2AAA2AAAA2A2AAA2AAAAAAAAAAAAAAAAAA222AAAA
AAAAAAAAAAAAAAAAAA2AAAA2AAA2AAAA2A2AAA2AAAAAAAAAAAAAAAAAAA22AAAA
AAAAAIAAAAAAAAAAAA2AAAA2AAA2AAAA2A2AAA2AAAAAAAAAAAAAAAAAAA22AAAA
AAAAAAAAAAAAAAAAAA2AAAA2AAA2AAAA2A2AAA2AAAAAAAAAAAAAAAAAAA22AAAA
AAAAAAAAAAAAAAAAAA2AAAA2AAA2AAAAAA2AAA2AAAAAAAAAAAAAAAAAAA22AAAA
AAAAAAAAAAAAAAAAAA2AAAA2AAAAAAAAAA2AAA2AAAAAAAAAAAAAAAAAAA22AAAA
AAAAAAAAAAAAAAAAAA2AAAA2AAAAAAAAAA2AAA2AAAAAAAAAAAAAAAAAIA22AAAA
AAAAAAAAAAAAAAAAAI2AAAA2AAAAAAAAAA2AAA2AAAAAAAAAAAAAAAAAIA22AAAA
AAAAAIAAAAAAAAAAAI2AAAA2AAAAAAAAAA2AAA2AAAAAAAAAAAAAAAAAIA22AAAA
AAAAAIAAAAAAAAAAAI2AAAA2AAAAAAAAIA2AAA2AAAAAAAAAAAAAAAAAIA22AAAA
AAAAAIAAAAAAAAAAA22AAAA2AAAAAAAA4A2AAA2AAAAAAAAAAAAAAAAAIA22AAAA
AAAAAIAAAAAAAAAAI22AAAA2AAAAAAAA4A2AAA2AAAAAAAAAAAAAAAAAIA22AAAA
AAAAA2AAAAAAAAAA422AAAA2AAAAAAAA4A2AAA2AAAAAAAAAAAAAAAAAIA22AAAA
AAAAAAAAAAAAAAAA422AAAA2AAAAAAAA4A2AAA2AAAAAAAAAAAAAAAAAIA22AAAA
AAAAAAAAAAAAAAAAA22AAAA2AAAAAAAA4A2AAA2AAAAAAAAAAAAAAAAAIA22AAAA
AAAAAAAAAAAAAAAAA22AAAA2AAAAAAAA2A2AAA2AAAAAAAAAAAAAAAAAIA22AAAA
AAAAAAAAAAAAAAAAA22AAAA2AAAAAAAA2A2AAA2AAAAAAAAAAAAAAAAAIAA2AAAA
AAAAAAAAAAAAAAAAA22AAAA2AAAAAIAA2A2AAA2AAAAAAAAAAAAAAAAAIAA2AAAA
AAAAAAAAAAAAAAAAA22AAAA2AAAAA4AA2A2AAA2AAAAAAAAAAAAAAAAAIAA2AAAA
AAAAAAAAAAAAAAAAA22AAAAAAAAAA4AA2A2AAA2AAAAAAAAAAAAAAAAAIAA2AAAA
AAAAAAAAAAAAAAAAA22AAAAAAAAAA4AA2A2AAA2AAAAAAAAAAAAAAAAA2AA2AAAA
AAAAAAAAAAAAAAIAA22AAAAAAAAAA4AA2A2AAA2AAAAAAAAAAAAAAAAA2AA2AAAA
AAAAAAAAAAAAAAIAA22AAAAAAAAAA4AA2A2AAA2AAAAAAAAAAAAAIAAA2AA2AAAA
AAAAAAAIAAAAAAIAA22AAAAAAAAAA4AA2A2AAA2AAAAAAAAAAAAAIAAA2AA2AAAA
AAAAAAAIAAAAAAIAA22AAAAIAAAAA4AA2A2AAA2AAAAAAAAAAAAAIAAA2AA2AAAA
AAAAAAAIAAAAAAIAA22AAAA4AAAAA4AA2A2AAA2AAAAAAAAAAAAAIAAA2AA2AAAA
AAAAAAAIAAAAAAIAA22AAAA4AAAAA4AA2A2IAA2AAAAAAAAAAAAAIAAA2AA2AAAA
AAAAAAA2AAAAAA4AA22AAAA4AAAAA4AA2A2IAA2AAAAAAAAAAAAAIAAA2AA2AAAA
AAAAAAA2AAAAAA2AA22AAAA4AAAAA4AA2A2IAA2AAAAAAAAAAAAAIAAA2AA2AAAA
AAAAAAA2AAAAAA2AA22AAAA4AAAAA2AA2A24AA2AAAAAAAAAAAAAIAAA2AA2AAAA
AAAAAAA2AAAAAA2AA22AAAA4AAAAA2AA2AA4AA2AAAAAAAAAAAAAIAAA2AA2AAAA
AAAAAAA2AAAAAA2AA22AAAA4AAAAA2AA2AA4AA2AAAAAAAAAAAAA2AAA2AA2AAAA
AAAAAAA2AAAAAA2AA22AAAA4AAAAA2AA2AA4AA2AAAAAAAAAAAAAAAAA2AA2AAAA
AAAAAAA2AAAAAA2AA22AAAA4AAAAA2AA2AA4AA2AAAAAAAAAAIAAAAAA2AA2AAAA
AAAAAAA2AAAAAA2AA22AAAA4AAAAA2AA2AI4AA2AAAAAAAAAAIAAAAAA2AA2AAAA
AAAAAAA2AAAAAA2AA22AAAA4AAAAAIAA2AI4AA2AAAAAAAAAAIAAAAAA2AA2AAAA
AAAAAAA2AAAAAA2AA22AAAA4AAAAAIAA2AI4AA2AAAAAAAAAA4AAAAAA2AA2AAAA
AAAAAAA2AAAAAA2AA22AAAA4AAAAAAAA2A22AA2AAAAAAAAAA4AAAAAA2AA2AAAA
AAAAAAA2AAAAAA2AA22AAAA4AAAAAAAA2A22AA2AAAAAAAAAA2AAAAAA2AA2AAAA
AAAAAAA2AAAAAA2AA22AAAA4AAAAAAAA2A22AA2AAAAAAAAAAIAAAAAA2AA2AAAA
AAAAAAA2AAAAAA2AA22AAAA4AAAAAAAA2A22AA2AAAAIAAAAAIAAAAAA2AA2AAAA
AAAAAAA2AAAAAAAAA22AAAA4AAAAAAAA2A22AA2AAAAIAAAAAIAAAAAA2AA2AAAA
AAAAAAA2AAAAAAAAA22AAAA2AAAAAAAA2AA2AA2AAAAIAAAAAIAAAAAA2AA2AAAA
AAAAAAA2AAAAAAAAA22AAAA2AAAAAAAA2AA2AA2AAAAIAAAAA4AAAAAA2AA2AAAA
AAAAAAA2AAAAAAAAA22AAAA2AAAAAAAA2AA2AA2AAAAIAAAAAAAAAAAA2AA2AAAA
AAAAAAA2AAAAAAAAA22AAAA2AAAAAAAA2AA2AA2IAAAIAAAAAAAAAAAA2AA2AAAA
AAAAAAA2AAAAAAAAI22AAAA2AAAAAAAA2AA2AA2IAAAIAAAAAAAAAAAA2AA2AAAA
AAAAAAA2AAAAAAAAI22AAAA2AAAAAAAA2AA2AA2IAAAIAAAAAIAAAAAA2AA2AAAA
AAAAAAA2AAAAAAAA222AAAA2AAAAAAAA2AA2AA2IAAAIAAAAAIAAAAAA2AA2AAAA
AAAAAAA2AAAAAAAA222AAAA2AAAAAAAA2AA2AA24AAA4AAAAAIAAAAAA2AA2AAAA
AAAAAAA2AAAAAAAAA22AAAA2AAAAAAAA2AA2AA24AAA4AAAAAIAAAAAA2AA2AAAA
AAAAAAA2AAAAAAAAA22AAAA2AAAAAAAA2AAAAA24AAA4AAAAA4AAAAAA2AA2AAAA
AAAAAAA2AAAAAAAAA22AAAA2AAAAAAAA2AAAAA24AAA4AAAAA4AAAAAAAAA2AAAA
AAAAAAA2AAAAAAAAA2AAAAA2AAAAAAAA2AAAAA24AAA4AAAAA4AAAAAAAAA2AAAA
AAAAAAA2AAAAAAAAAAAAAAA2AAAAAAAA2AAAAA24AAA4AAAAA4AAAAAAAAA2AAAA
AAAAAAA2AAAAAAAAAAAAAAA2AAAAAAAA2AAAAA24AAA4AAAAA4AAAAIAAAA2AAAA
AAAAAAA2AAAAAAAAAAAAAAA2AAAAAAAA2AAAAA24AAA4AAAAA2AAAAIAAAA2AAAA
AAAAAAAAAAAAAAAAAAAAAAA2AAAAAAAA2AAAAA24AAA4AAAAA2AAAAIAAAA2AAAA
AAAAAAAAAAAAAAAAAAAAAAA2AAAAAAAA2AAAAA22AAA2AAAAA2AAAAIAAAA2AAAA
AAAAAAAAAAAAAAAAAAAAAAA2AAAAAAAA2AAAAA2IAAA2AAAAA2AAAAIAAAA2AAAA
AAAAAAAAAAAAAAAAAAAAAAA2AAAAAAAA2AAAAA24AAA2AAAAA2AAAAIAAAA2AAAA
AAAAAAAAAAAAAAAAAAAAAAA2AAAAAAAAAAAAAA24AAA2AAAAA2AAAAIAAAA2AAAA
AAAAAAAAAAAAAAAAAAAAAAA2AAAAAAAAAAAAAA2AAAA2AAAAA2AAAA4AAAA2AAAA
AAAAAAAAAAAAAAAAAAAAAAA2AAAAAAAAAAAAAA2AAAA2AAAAA2AAAAAAAAA2AAAA
AAAAAAAAIAAAAAAAAAAAAAA2AAAAAAAAAAAAAA2AAAA2AAAAA2AAAAAAAAA2AAAA
AAAAIAAAIAAAAAAAAAAAAAA2AAAAAAAAAAAAAA2AAAA2AAAAA2AAAAAAAAA2AAAA
AAAA4AAAIAAAAAAAAAAAAAA2AAAAAAAAAAAAAA2AAAA2AAAAA2AAAAAAAAA2AAAA
AAAA4AAAIAAAAAAAAAAAAAAAAAAAAAAAAAAAAA2AAAA2AAAAA2AAAAAAAAA2AAAA
AAAA4AAAIAAAAAAAAAAAAAAIAAAAAAAAAAAAAA2AAAA2AAAAA2AAAAAAAAA2AAAA
AAAA4AAAIAAAAAAIAAAAAAAIAAAAAAAAAAAAAA2AAAA2AAAAA2AAAAAAAAA2AAAA
AAAA4AAA2AAAAAA4AAAAAAAIAAAAAAAAAAAAAA2AAAA2AAAAA2AAAAAAAAA2AAAA
AAAA4AAAAAAAAAA4AAAAAAAIAAAAAAAAAAAAAA2AAAA2AAAAA2AAAAAAAAA2AAAA
AAAA4AAAAAAAAAAAAAAAAAAIAAAAAAAAAAAAAA2AAAA2AAAAA2AAAAAAAAA2AAAA
AAAA4AAAAAAAAAAAAAAAAAAAAAAAAAAAAAAAAA2AAAA2AAAAA2AAAAAAAAA2AAAA
AAAA4AAAAAAAAAAAAAAAAAAAAAAAAAAAAAAAAA2AAAA2AAAAA2AAAAAAAAA2AAIA
AAAA4AAAAAAAAAAIAAAAAAAAAAAAAAAAAAAAAA2AAAA2AAAAA2AAAAAAAAA2AAIA
AAAA2AAAAAAAAAA4AAAAAAAAAAAAAAAAAAAAAA2AAAA2AAAAA2AAAAAAAAA2AAIA
AAAA2AAAAAAAAAAAAAAAAAAAAAAAAAAAAAAAAA2AAAA2AAAAA2AAAAAAAAA2AAIA
AAAA2AAAAAAAAAAAAAAAAAAAAAAAAAAAAAAAAA2AAAA2AAAAA2AAAAAAAAA2AA4A
AAAA2AAAAAAAAAAAAAAAAAAAAAAAAAAAAAAAAA2AAAA2AAAAA2AAAAAAAAA2AA2A
AAAA2AAAAAAAAAAAAAAAAAAAAAAAAAAAAAAAAA2AAAA2AAAAA2AAAAAAAAA2AAAA
AAAA2AAAAAAAAAAAAAAAAAAAAAAAAAAAAAAAAA2AAAI2AAAAA2AAAAAAAAA2AAAA
AAAA2AAAAAAAAAAAAAAAAAAAAAAAAAAAAAAAAA2AAA42AAAAA2AAAAAAAAA2AAAA
AAAA2AIAAAAAAAAAAAAAAAAAAAAAAAAAAAAAAA2AAA42AAAAA2AAAAAAAAA2AAAA
AAAA2AIAAAAAAAAAAAAAAAAAAAAAAAAAAAAAAA2AAA42AAAAA2AAIAAAAAA2AAAA
AAAA2AIAAAAAAAAAAAAAAAAAAAAAAAAAAAIAAA2AAA42AAAAA2AAIAAAAAA2AAAA
AAAA2AIAAAAAAAIAAAAAAAAAAAAAAAAAAAIAAA2AAA42AAAAA2AAIAAAAAA2AAAA
AAAA2AIAAAAAAAIAAAAAAAAAAAAAAAAAAA4AAA2AAA42AAAAA2AAIAAAAAA2AAAA
AAAA2AIAAAAAAAIAAAAAAAAAAAAAAAAAAA4AAA2AAA42AAAAA2AAIAAAAAA2AAIA
AAAA2AIAAAAAAAIAAAAAAAAAAAIAAAAAAA4AAA2AAA42AAAAA2AAIAAAAAA2AAIA
AAAA2A2AAAAAAA4AAAAAAAAAAAIAAAAAAA4AAA2AAA42AAAAA2AAIAAAAAA2AAIA
AAAAAA2AAAAAAA2AAAAAAAAAAAIAAAAAAA4AAA2AAA42AAAAA2AAIAAAAAA2AAIA
AAAAAAAAAAAAAA2AAAAAAAAAAAIAAAAAAA4AAA2AAA42AAAAA2AAIAAAAAA2AAIA
AAAAAAAAAAAAAA2AAAAAAAAAAA2AAAAAAA4AAA2AAA42AAAAA2AAIAAAAAA2AAIA
AAAAAAAAAAAAAA2AAAAAAAAAAA2AAAAAAA2AAA2AAA42AAAAA2AAIAAAAAA2AAIA
AAAAAAAAAAAAAA2AAAAAAAAAAA2AAAAAAAAAAA2AAA42AAAAA2AAIAAAAAA2AAIA
AAAAAAAAAAAAAA2AAAAAAAAAAA2AAAAAAAAAAA2AAA22AAAAA2AA4AAAAAA2AAIA
AAAAAAAAAAAAAA2AAAAAAAAAAA2AAAAAAAAAAA2AAA22AAAAAAAA4AAAAAA2AA4A
AAAAAAAAAAAAAA2AAAAAAAAAAA2AAAAAAAAAAA2AAA22AAAAAAAAAAAAAAA2AA2A
AAAAAAAAAAAAAA2AAAAAAAAAAA2AAAAAAAAAAA2AAA22AAAAAAAAAAAAAAA2AAAA
AAAAAAAAAAAAAA2AIAAAAAAAAA2AAAAAAAAAAA2AAA22AAAAAAAAAAAAAAA2AAAA
AAAAAAAAAAAAAA2AIAAAAAAAAA2AAAAAAAAAAA2AAA22AAAAAIAAAAAAAAA2AAAA
AAAAAAIAAAAAAA2AIAAAAAAAAA2AAAAAAAAAAA2AAA22AAAAAIAAAAAAAAA2AAAA
AAAAAAIAAAAAAA2AIAAAAAAAAA2AAAAAAAAAAA2AAA22AAAAAIAAAAAAAAA2AAIA
AAAAAAIAAAAAAA2AIAAAAAAAAA2AAAAAAAAAAA2AAA22AAAAAIAAAAAAAIA2AAIA
AAAAAAIAAAAAAAAAIAAAAAAAAA2AAAAAAAAAAA2AAA22AAAAAIAAAAAAAIA2AAIA
AAAAAAAAAAAAAAAAIAAAAAAAAA2AAAAAAAAAAA2AAA22AAAAAIAAAAAAAIA2AAIA
AAAAAAAAAAAAAAAAAAAAAAAAAA2AAAAAAAAAAA2AAA22AAAAAIAAAAAAAIA2AAIA
[MLOP] Prefetch Degree Mean: 10.97538
[MLOP] Prefetch Degree SD: 2.56023
[MLOP] Max Score Left Mean (%): 53.02613
[MLOP] Max Score Left SD (%): 9.96495
[MLOP] Max Score Right Mean (%): 82.18454
[MLOP] Max Score Right SD (%): 12.69237

Channel_0_RQ_row_buffer_hit 315582
Channel_0_RQ_row_buffer_miss 817194
Channel_0_WQ_row_buffer_hit 198308
Channel_0_WQ_row_buffer_miss 197928
Channel_0_WQ_full 0
Channel_0_dbus_congested 409548

avg_congested_cycle 10

DRAM_bw_pochs 704032
DRAM_bw_level_0 617929
DRAM_bw_level_1 70226
DRAM_bw_level_2 8496
DRAM_bw_level_3 7381
