*************************************************
   ChampSim Multicore Out-of-Order Simulator
   Last compiled: Apr  3 2025 20:54:34
*************************************************
parsing config file: /home/zir/Pythia/config/nopref.ini

trace_0 /home/zir/ChampSim/ML-DPC/ChampSimTraces/gap/sssp-14.trace.gz
adding L2C_PREFETCHER: NONE
Initialize SHIP state
warmup_instructions 10000000
simulation_instructions 50000000
champsim_seed 101
measure_ipc 0
measure_ipc_epoch 1000
measure_dram_bw 1
measure_dram_bw_epoch 256
measure_cache_acc 1
measure_cache_acc_epoch 1024
l1d_perfect 0
l2c_perfect 0
llc_perfect 0
l1d_semi_perfect 0
l2c_semi_perfect 0
llc_semi_perfect 0
semi_perfect_cache_page_buffer_size 64

num_cpus 1
cpu_freq 4000
dram_io_freq 2400
page_size 4096
block_size 64
max_read_per_cycle 8
max_fill_per_cycle 1
dram_channels 1
log2_dram_channels 0
dram_ranks 1
dram_banks 8
dram_rows 65536
dram_columns 128
dram_row_size 8
dram_size 4096
dram_pages 1048576

fetch_width 6
decode_width 6
exec_width 4
lq_width 2
sq_width 2
retire_width 4
scheduler_size 128
branch_mispredict_penalty 20
rob_size 256
lq_size 72
sq_size 56
num_instr_destinations_sparc 4
num_instr_destinations 2
num_instr_sources 4

itlb_set 16
itlb_way 8
itlb_rq_size 16
itlb_wq_size 16
itlb_pq_size 0
itlb_mshr_size 8
itlb_latency 1

dtlb_set 16
dtlb_way 4
dtlb_rq_size 16
dtlb_wq_size 16
dtlb_pq_size 0
dtlb_mshr_size 8
dtlb_latency 1

stlb_set 128
stlb_way 12
stlb_rq_size 32
stlb_wq_size 32
stlb_pq_size 0
stlb_mshr_size 16
stlb_latency 8

l1i_size 32
l1i_set 64
l1i_way 8
l1i_rq_size 64
l1i_wq_size 64
l1i_pq_size 8
l1i_mshr_size 8
l1i_latency 1

l1d_size 32
l1d_set 64
l1d_way 8
l1d_rq_size 64
l1d_wq_size 64
l1d_pq_size 8
l1d_mshr_size 16
l1d_latency 4

l2c_size 256
l2c_set 512
l2c_way 8
l2c_rq_size 32
l2c_wq_size 32
l2c_pq_size 32
l2c_mshr_size 32
l2c_latency 10

llc_size 2048
llc_set 2048
llc_way 16
llc_rq_size 32
llc_wq_size 32
llc_pq_size 32
llc_mshr_size 64
llc_latency 20

dram_channel_width 8
dram_wq_size 64
dram_rq_size 64
tRP 15
tRCD 15
tCAS 12.5
dram_dbus_turn_around_time 30
dram_write_high_wm 56
dram_write_low_wm 48
min_dram_writes_per_switch 16
dram_mtps 2400
dram_dbus_return_time 13


Heartbeat CPU  0 instructions:    1000003 cycles:     262101 heartbeat IPC: 3.81533 cumulative IPC: 3.81533 (Simulation time: 0 hr 0 min 1 sec) 
Heartbeat CPU  0 instructions:    2000001 cycles:     775265 heartbeat IPC: 1.94869 cumulative IPC: 2.57976 (Simulation time: 0 hr 0 min 3 sec) 
Heartbeat CPU  0 instructions:    3000000 cycles:    1354795 heartbeat IPC: 1.72553 cumulative IPC: 2.21436 (Simulation time: 0 hr 0 min 4 sec) 
Heartbeat CPU  0 instructions:    4000000 cycles:    2060223 heartbeat IPC: 1.41758 cumulative IPC: 1.94154 (Simulation time: 0 hr 0 min 5 sec) 
Heartbeat CPU  0 instructions:    5000002 cycles:    2833750 heartbeat IPC: 1.29278 cumulative IPC: 1.76445 (Simulation time: 0 hr 0 min 7 sec) 
Heartbeat CPU  0 instructions:    6000003 cycles:    3699045 heartbeat IPC: 1.15568 cumulative IPC: 1.62204 (Simulation time: 0 hr 0 min 8 sec) 
Heartbeat CPU  0 instructions:    7000001 cycles:    4554586 heartbeat IPC: 1.16885 cumulative IPC: 1.53691 (Simulation time: 0 hr 0 min 9 sec) 
Heartbeat CPU  0 instructions:    8000000 cycles:    5423825 heartbeat IPC: 1.15043 cumulative IPC: 1.47497 (Simulation time: 0 hr 0 min 10 sec) 
Heartbeat CPU  0 instructions:    9000000 cycles:    6287837 heartbeat IPC: 1.15739 cumulative IPC: 1.43133 (Simulation time: 0 hr 0 min 11 sec) 
Heartbeat CPU  0 instructions:   10000000 cycles:    7152732 heartbeat IPC: 1.15621 cumulative IPC: 1.39807 (Simulation time: 0 hr 0 min 12 sec) 

Warmup complete CPU  0 instructions:   10000001 cycles:    7152735 (Simulation time: 0 hr 0 min 12 sec) 

Heartbeat CPU  0 instructions:   11000003 cycles:   11772861 heartbeat IPC: 0.21644 cumulative IPC: 0.21644 (Simulation time: 0 hr 0 min 14 sec) 
Heartbeat CPU  0 instructions:   12000000 cycles:   16308345 heartbeat IPC: 0.22048 cumulative IPC: 0.21845 (Simulation time: 0 hr 0 min 16 sec) 
Heartbeat CPU  0 instructions:   13000002 cycles:   20969393 heartbeat IPC: 0.21454 cumulative IPC: 0.21713 (Simulation time: 0 hr 0 min 18 sec) 
Heartbeat CPU  0 instructions:   14000001 cycles:   25606053 heartbeat IPC: 0.21567 cumulative IPC: 0.21676 (Simulation time: 0 hr 0 min 20 sec) 
Heartbeat CPU  0 instructions:   15000001 cycles:   29966853 heartbeat IPC: 0.22932 cumulative IPC: 0.21916 (Simulation time: 0 hr 0 min 22 sec) 
Heartbeat CPU  0 instructions:   16000000 cycles:   34231538 heartbeat IPC: 0.23448 cumulative IPC: 0.22158 (Simulation time: 0 hr 0 min 24 sec) 
Heartbeat CPU  0 instructions:   17000003 cycles:   38606586 heartbeat IPC: 0.22857 cumulative IPC: 0.22255 (Simulation time: 0 hr 0 min 26 sec) 
Heartbeat CPU  0 instructions:   18000000 cycles:   43313395 heartbeat IPC: 0.21246 cumulative IPC: 0.22123 (Simulation time: 0 hr 0 min 28 sec) 
Heartbeat CPU  0 instructions:   19000000 cycles:   47938698 heartbeat IPC: 0.21620 cumulative IPC: 0.22066 (Simulation time: 0 hr 0 min 30 sec) 
Heartbeat CPU  0 instructions:   20000000 cycles:   52097261 heartbeat IPC: 0.24047 cumulative IPC: 0.22250 (Simulation time: 0 hr 0 min 33 sec) 
Heartbeat CPU  0 instructions:   21000002 cycles:   56231280 heartbeat IPC: 0.24190 cumulative IPC: 0.22413 (Simulation time: 0 hr 0 min 35 sec) 
Heartbeat CPU  0 instructions:   22000001 cycles:   60321636 heartbeat IPC: 0.24448 cumulative IPC: 0.22570 (Simulation time: 0 hr 0 min 37 sec) 
Heartbeat CPU  0 instructions:   23000000 cycles:   64363010 heartbeat IPC: 0.24744 cumulative IPC: 0.22723 (Simulation time: 0 hr 0 min 39 sec) 
Heartbeat CPU  0 instructions:   24000000 cycles:   68592246 heartbeat IPC: 0.23645 cumulative IPC: 0.22787 (Simulation time: 0 hr 0 min 41 sec) 
Heartbeat CPU  0 instructions:   25000000 cycles:   72572653 heartbeat IPC: 0.25123 cumulative IPC: 0.22929 (Simulation time: 0 hr 0 min 43 sec) 
Heartbeat CPU  0 instructions:   26000003 cycles:   76458196 heartbeat IPC: 0.25737 cumulative IPC: 0.23086 (Simulation time: 0 hr 0 min 45 sec) 
Heartbeat CPU  0 instructions:   27000002 cycles:   80404404 heartbeat IPC: 0.25341 cumulative IPC: 0.23208 (Simulation time: 0 hr 0 min 47 sec) 
Heartbeat CPU  0 instructions:   28000000 cycles:   84276556 heartbeat IPC: 0.25825 cumulative IPC: 0.23339 (Simulation time: 0 hr 0 min 49 sec) 
Heartbeat CPU  0 instructions:   29000001 cycles:   88164905 heartbeat IPC: 0.25718 cumulative IPC: 0.23453 (Simulation time: 0 hr 0 min 51 sec) 
Heartbeat CPU  0 instructions:   30000001 cycles:   92078159 heartbeat IPC: 0.25554 cumulative IPC: 0.23550 (Simulation time: 0 hr 0 min 53 sec) 
Heartbeat CPU  0 instructions:   31000003 cycles:   95897689 heartbeat IPC: 0.26181 cumulative IPC: 0.23663 (Simulation time: 0 hr 0 min 55 sec) 
Heartbeat CPU  0 instructions:   32000000 cycles:   99651876 heartbeat IPC: 0.26637 cumulative IPC: 0.23784 (Simulation time: 0 hr 0 min 57 sec) 
Heartbeat CPU  0 instructions:   33000002 cycles:  103665948 heartbeat IPC: 0.24912 cumulative IPC: 0.23831 (Simulation time: 0 hr 0 min 59 sec) 
Heartbeat CPU  0 instructions:   34000003 cycles:  107519140 heartbeat IPC: 0.25953 cumulative IPC: 0.23912 (Simulation time: 0 hr 1 min 1 sec) 
Heartbeat CPU  0 instructions:   35000002 cycles:  111299456 heartbeat IPC: 0.26453 cumulative IPC: 0.24005 (Simulation time: 0 hr 1 min 3 sec) 
Heartbeat CPU  0 instructions:   36000000 cycles:  115168033 heartbeat IPC: 0.25849 cumulative IPC: 0.24071 (Simulation time: 0 hr 1 min 6 sec) 
Heartbeat CPU  0 instructions:   37000002 cycles:  118912470 heartbeat IPC: 0.26706 cumulative IPC: 0.24159 (Simulation time: 0 hr 1 min 8 sec) 
Heartbeat CPU  0 instructions:   38000003 cycles:  122622717 heartbeat IPC: 0.26952 cumulative IPC: 0.24249 (Simulation time: 0 hr 1 min 10 sec) 
Heartbeat CPU  0 instructions:   39000001 cycles:  126327600 heartbeat IPC: 0.26991 cumulative IPC: 0.24334 (Simulation time: 0 hr 1 min 12 sec) 
Heartbeat CPU  0 instructions:   40000000 cycles:  129989063 heartbeat IPC: 0.27311 cumulative IPC: 0.24423 (Simulation time: 0 hr 1 min 14 sec) 
Heartbeat CPU  0 instructions:   41000000 cycles:  133622867 heartbeat IPC: 0.27519 cumulative IPC: 0.24512 (Simulation time: 0 hr 1 min 16 sec) 
Heartbeat CPU  0 instructions:   42000002 cycles:  137255398 heartbeat IPC: 0.27529 cumulative IPC: 0.24596 (Simulation time: 0 hr 1 min 18 sec) 
Heartbeat CPU  0 instructions:   43000000 cycles:  140941093 heartbeat IPC: 0.27132 cumulative IPC: 0.24666 (Simulation time: 0 hr 1 min 20 sec) 
Heartbeat CPU  0 instructions:   44000000 cycles:  144602634 heartbeat IPC: 0.27311 cumulative IPC: 0.24736 (Simulation time: 0 hr 1 min 22 sec) 
Heartbeat CPU  0 instructions:   45000001 cycles:  148229184 heartbeat IPC: 0.27574 cumulative IPC: 0.24809 (Simulation time: 0 hr 1 min 25 sec) 
Heartbeat CPU  0 instructions:   46000003 cycles:  151862648 heartbeat IPC: 0.27522 cumulative IPC: 0.24877 (Simulation time: 0 hr 1 min 27 sec) 
Heartbeat CPU  0 instructions:   47000001 cycles:  155479054 heartbeat IPC: 0.27652 cumulative IPC: 0.24945 (Simulation time: 0 hr 1 min 29 sec) 
Heartbeat CPU  0 instructions:   48000000 cycles:  159045298 heartbeat IPC: 0.28041 cumulative IPC: 0.25018 (Simulation time: 0 hr 1 min 31 sec) 
Heartbeat CPU  0 instructions:   49000000 cycles:  162629306 heartbeat IPC: 0.27902 cumulative IPC: 0.25084 (Simulation time: 0 hr 1 min 33 sec) 
Heartbeat CPU  0 instructions:   50000000 cycles:  166168522 heartbeat IPC: 0.28255 cumulative IPC: 0.25155 (Simulation time: 0 hr 1 min 35 sec) 
Heartbeat CPU  0 instructions:   51000001 cycles:  169724285 heartbeat IPC: 0.28123 cumulative IPC: 0.25220 (Simulation time: 0 hr 1 min 37 sec) 
Heartbeat CPU  0 instructions:   52000000 cycles:  173260742 heartbeat IPC: 0.28277 cumulative IPC: 0.25285 (Simulation time: 0 hr 1 min 39 sec) 
Heartbeat CPU  0 instructions:   53000001 cycles:  176772929 heartbeat IPC: 0.28472 cumulative IPC: 0.25351 (Simulation time: 0 hr 1 min 42 sec) 
Heartbeat CPU  0 instructions:   54000000 cycles:  180500245 heartbeat IPC: 0.26829 cumulative IPC: 0.25383 (Simulation time: 0 hr 1 min 44 sec) 
Heartbeat CPU  0 instructions:   55000003 cycles:  184241069 heartbeat IPC: 0.26732 cumulative IPC: 0.25411 (Simulation time: 0 hr 1 min 46 sec) 
Heartbeat CPU  0 instructions:   56000000 cycles:  187778191 heartbeat IPC: 0.28271 cumulative IPC: 0.25467 (Simulation time: 0 hr 1 min 48 sec) 
Heartbeat CPU  0 instructions:   57000002 cycles:  191291045 heartbeat IPC: 0.28467 cumulative IPC: 0.25524 (Simulation time: 0 hr 1 min 50 sec) 
Heartbeat CPU  0 instructions:   58000001 cycles:  194959460 heartbeat IPC: 0.27260 cumulative IPC: 0.25558 (Simulation time: 0 hr 1 min 52 sec) 
Heartbeat CPU  0 instructions:   59000000 cycles:  198471575 heartbeat IPC: 0.28473 cumulative IPC: 0.25612 (Simulation time: 0 hr 1 min 55 sec) 
Heartbeat CPU  0 instructions:   60000000 cycles:  202094001 heartbeat IPC: 0.27606 cumulative IPC: 0.25649 (Simulation time: 0 hr 1 min 57 sec) 
Finished CPU 0 instructions: 50000003 cycles: 194941279 cumulative IPC: 0.25649 (Simulation time: 0 hr 1 min 57 sec) 

ChampSim completed all CPUs

[ROI Statistics]
Core_0_instructions 50000003
Core_0_cycles 194941279
Core_0_IPC 0.25649

Core_0_branch_prediction_accuracy 94.06209
Core_0_branch_MPKI 8.73346
Core_0_average_ROB_occupancy_at_mispredict 102.94443

Core_0_L1D_total_access 11987951
Core_0_L1D_total_hit 9402127
Core_0_L1D_total_miss 2585824
Core_0_L1D_loads 10639428
Core_0_L1D_load_hit 8339060
Core_0_L1D_load_miss 2300368
Core_0_L1D_RFOs 1348523
Core_0_L1D_RFO_hit 1063067
Core_0_L1D_RFO_miss 285456
Core_0_L1D_prefetches 0
Core_0_L1D_prefetch_hit 0
Core_0_L1D_prefetch_miss 0
Core_0_L1D_writebacks 0
Core_0_L1D_writeback_hit 0
Core_0_L1D_writeback_miss 0
Core_0_L1D_prefetch_requested 0
Core_0_L1D_prefetch_dropped 0
Core_0_L1D_prefetch_issued 0
Core_0_L1D_prefetch_filled 0
Core_0_L1D_prefetch_useful 0
Core_0_L1D_prefetch_useless 0
Core_0_L1D_prefetch_late 0
Core_0_L1D_average_miss_latency 99.56453

Core_0_L1D_rq_access 17864605
Core_0_L1D_rq_forward 0
Core_0_L1D_rq_merged 6453600
Core_0_L1D_rq_to_cache 11411003
Core_0_L1D_rq_full 0

Core_0_L1D_wq_access 1461202
Core_0_L1D_wq_forward 2
Core_0_L1D_wq_merged 1004
Core_0_L1D_wq_to_cache 1460198
Core_0_L1D_wq_full 0

Core_0_L1D_pq_access 0
Core_0_L1D_pq_forward 0
Core_0_L1D_pq_merged 0
Core_0_L1D_pq_to_cache 0
Core_0_L1D_pq_full 0

Core_0_L1D_acc_epochs 196359
Core_0_L1D_acc_level_0 196359
Core_0_L1D_acc_level_1 0
Core_0_L1D_acc_level_2 0
Core_0_L1D_acc_level_3 0
Core_0_L1D_acc_level_4 0
Core_0_L1D_acc_level_5 0
Core_0_L1D_acc_level_6 0
Core_0_L1D_acc_level_7 0
Core_0_L1D_acc_level_8 0
Core_0_L1D_acc_level_9 0

Core_0_L1I_total_access 7356325
Core_0_L1I_total_hit 7356324
Core_0_L1I_total_miss 1
Core_0_L1I_loads 7356325
Core_0_L1I_load_hit 7356324
Core_0_L1I_load_miss 1
Core_0_L1I_RFOs 0
Core_0_L1I_RFO_hit 0
Core_0_L1I_RFO_miss 0
Core_0_L1I_prefetches 0
Core_0_L1I_prefetch_hit 0
Core_0_L1I_prefetch_miss 0
Core_0_L1I_writebacks 0
Core_0_L1I_writeback_hit 0
Core_0_L1I_writeback_miss 0
Core_0_L1I_prefetch_requested 0
Core_0_L1I_prefetch_dropped 0
Core_0_L1I_prefetch_issued 0
Core_0_L1I_prefetch_filled 0
Core_0_L1I_prefetch_useful 0
Core_0_L1I_prefetch_useless 0
Core_0_L1I_prefetch_late 0
Core_0_L1I_average_miss_latency 231.00000

Core_0_L1I_rq_access 49999998
Core_0_L1I_rq_forward 0
Core_0_L1I_rq_merged 42643673
Core_0_L1I_rq_to_cache 7356325
Core_0_L1I_rq_full 0

Core_0_L1I_wq_access 0
Core_0_L1I_wq_forward 0
Core_0_L1I_wq_merged 0
Core_0_L1I_wq_to_cache 0
Core_0_L1I_wq_full 0

Core_0_L1I_pq_access 0
Core_0_L1I_pq_forward 0
Core_0_L1I_pq_merged 0
Core_0_L1I_pq_to_cache 0
Core_0_L1I_pq_full 0

Core_0_L1I_acc_epochs 196359
Core_0_L1I_acc_level_0 196359
Core_0_L1I_acc_level_1 0
Core_0_L1I_acc_level_2 0
Core_0_L1I_acc_level_3 0
Core_0_L1I_acc_level_4 0
Core_0_L1I_acc_level_5 0
Core_0_L1I_acc_level_6 0
Core_0_L1I_acc_level_7 0
Core_0_L1I_acc_level_8 0
Core_0_L1I_acc_level_9 0

Core_0_L2C_total_access 3400685
Core_0_L2C_total_hit 1256551
Core_0_L2C_total_miss 2144134
Core_0_L2C_loads 2300368
Core_0_L2C_load_hit 253701
Core_0_L2C_load_miss 2046667
Core_0_L2C_RFOs 285448
Core_0_L2C_RFO_hit 189991
Core_0_L2C_RFO_miss 95457
Core_0_L2C_prefetches 0
Core_0_L2C_prefetch_hit 0
Core_0_L2C_prefetch_miss 0
Core_0_L2C_writebacks 814869
Core_0_L2C_writeback_hit 812859
Core_0_L2C_writeback_miss 2010
Core_0_L2C_prefetch_requested 0
Core_0_L2C_prefetch_dropped 0
Core_0_L2C_prefetch_issued 0
Core_0_L2C_prefetch_filled 0
Core_0_L2C_prefetch_useful 0
Core_0_L2C_prefetch_useless 0
Core_0_L2C_prefetch_late 0
Core_0_L2C_average_miss_latency 102.74744

Core_0_L2C_rq_access 2585825
Core_0_L2C_rq_forward 0
Core_0_L2C_rq_merged 0
Core_0_L2C_rq_to_cache 2585816
Core_0_L2C_rq_full 0

Core_0_L2C_wq_access 814869
Core_0_L2C_wq_forward 9
Core_0_L2C_wq_merged 0
Core_0_L2C_wq_to_cache 814869
Core_0_L2C_wq_full 0

Core_0_L2C_pq_access 0
Core_0_L2C_pq_forward 0
Core_0_L2C_pq_merged 0
Core_0_L2C_pq_to_cache 0
Core_0_L2C_pq_full 0

Core_0_L2C_acc_epochs 196359
Core_0_L2C_acc_level_0 196359
Core_0_L2C_acc_level_1 0
Core_0_L2C_acc_level_2 0
Core_0_L2C_acc_level_3 0
Core_0_L2C_acc_level_4 0
Core_0_L2C_acc_level_5 0
Core_0_L2C_acc_level_6 0
Core_0_L2C_acc_level_7 0
Core_0_L2C_acc_level_8 0
Core_0_L2C_acc_level_9 0

Core_0_LLC_total_access 2665607
Core_0_LLC_total_hit 1786578
Core_0_LLC_total_miss 879029
Core_0_LLC_loads 2046667
Core_0_LLC_load_hit 1260097
Core_0_LLC_load_miss 786570
Core_0_LLC_RFOs 95457
Core_0_LLC_RFO_hit 37869
Core_0_LLC_RFO_miss 57588
Core_0_LLC_prefetches 0
Core_0_LLC_prefetch_hit 0
Core_0_LLC_prefetch_miss 0
Core_0_LLC_writebacks 523483
Core_0_LLC_writeback_hit 488612
Core_0_LLC_writeback_miss 34871
Core_0_LLC_prefetch_requested 0
Core_0_LLC_prefetch_dropped 0
Core_0_LLC_prefetch_issued 0
Core_0_LLC_prefetch_filled 0
Core_0_LLC_prefetch_useful 0
Core_0_LLC_prefetch_useless 0
Core_0_LLC_prefetch_late 0
Core_0_LLC_average_miss_latency 177.29425

Core_0_LLC_rq_access 2142124
Core_0_LLC_rq_forward 0
Core_0_LLC_rq_merged 0
Core_0_LLC_rq_to_cache 2142124
Core_0_LLC_rq_full 0

Core_0_LLC_wq_access 523483
Core_0_LLC_wq_forward 0
Core_0_LLC_wq_merged 0
Core_0_LLC_wq_to_cache 523483
Core_0_LLC_wq_full 0

Core_0_LLC_pq_access 0
Core_0_LLC_pq_forward 0
Core_0_LLC_pq_merged 0
Core_0_LLC_pq_to_cache 0
Core_0_LLC_pq_full 0

Core_0_LLC_acc_epochs 197358
Core_0_LLC_acc_level_0 197358
Core_0_LLC_acc_level_1 0
Core_0_LLC_acc_level_2 0
Core_0_LLC_acc_level_3 0
Core_0_LLC_acc_level_4 0
Core_0_LLC_acc_level_5 0
Core_0_LLC_acc_level_6 0
Core_0_LLC_acc_level_7 0
Core_0_LLC_acc_level_8 0
Core_0_LLC_acc_level_9 0

Core_0_major_page_fault 0
Core_0_minor_page_fault 8845

Channel_0_RQ_row_buffer_hit 154285
Channel_0_RQ_row_buffer_miss 689868
Channel_0_WQ_row_buffer_hit 121813
Channel_0_WQ_row_buffer_miss 214108
Channel_0_WQ_full 0
Channel_0_dbus_congested 191088

avg_congested_cycle 10

DRAM_bw_pochs 789430
DRAM_bw_level_0 775748
DRAM_bw_level_1 7198
DRAM_bw_level_2 2277
DRAM_bw_level_3 4207
