*************************************************
   ChampSim Multicore Out-of-Order Simulator
   Last compiled: Apr  3 2025 20:54:34
*************************************************
parsing config file: /home/zir/Pythia/config/mlop.ini

trace_0 /home/zir/ChampSim/ML-DPC/ChampSimTraces/gap/sssp-3.trace.gz
adding L2C_PREFETCHER: MLOP
Initialize SHIP state
warmup_instructions 10000000
simulation_instructions 50000000
champsim_seed 51
measure_ipc 0
measure_ipc_epoch 1000
measure_dram_bw 1
measure_dram_bw_epoch 256
measure_cache_acc 1
measure_cache_acc_epoch 1024
l1d_perfect 0
l2c_perfect 0
llc_perfect 0
l1d_semi_perfect 0
l2c_semi_perfect 0
llc_semi_perfect 0
semi_perfect_cache_page_buffer_size 64

num_cpus 1
cpu_freq 4000
dram_io_freq 2400
page_size 4096
block_size 64
max_read_per_cycle 8
max_fill_per_cycle 1
dram_channels 1
log2_dram_channels 0
dram_ranks 1
dram_banks 8
dram_rows 65536
dram_columns 128
dram_row_size 8
dram_size 4096
dram_pages 1048576

fetch_width 6
decode_width 6
exec_width 4
lq_width 2
sq_width 2
retire_width 4
scheduler_size 128
branch_mispredict_penalty 20
rob_size 256
lq_size 72
sq_size 56
num_instr_destinations_sparc 4
num_instr_destinations 2
num_instr_sources 4

itlb_set 16
itlb_way 8
itlb_rq_size 16
itlb_wq_size 16
itlb_pq_size 0
itlb_mshr_size 8
itlb_latency 1

dtlb_set 16
dtlb_way 4
dtlb_rq_size 16
dtlb_wq_size 16
dtlb_pq_size 0
dtlb_mshr_size 8
dtlb_latency 1

stlb_set 128
stlb_way 12
stlb_rq_size 32
stlb_wq_size 32
stlb_pq_size 0
stlb_mshr_size 16
stlb_latency 8

l1i_size 32
l1i_set 64
l1i_way 8
l1i_rq_size 64
l1i_wq_size 64
l1i_pq_size 8
l1i_mshr_size 8
l1i_latency 1

l1d_size 32
l1d_set 64
l1d_way 8
l1d_rq_size 64
l1d_wq_size 64
l1d_pq_size 8
l1d_mshr_size 16
l1d_latency 4

l2c_size 256
l2c_set 512
l2c_way 8
l2c_rq_size 32
l2c_wq_size 32
l2c_pq_size 32
l2c_mshr_size 32
l2c_latency 10

llc_size 2048
llc_set 2048
llc_way 16
llc_rq_size 32
llc_wq_size 32
llc_pq_size 32
llc_mshr_size 64
llc_latency 20

dram_channel_width 8
dram_wq_size 64
dram_rq_size 64
tRP 15
tRCD 15
tCAS 12.5
dram_dbus_turn_around_time 30
dram_write_high_wm 56
dram_write_low_wm 48
min_dram_writes_per_switch 16
dram_mtps 2400
dram_dbus_return_time 13

mlop_pref_degree 16
mlop_num_updates 500
mlop_l1d_thresh 2
mlop_l2c_thresh 0.75
mlop_llc_thresh 0.3
mlop_debug_level 0
mlop_blocks_in_cache 4096
mlop_blocks_in_zone 64
mlop_amt_size 2048
mlop_PF_DEGREE 16
mlop_NUM_UPDATES 500
mlop_L1D_THRESH 1000
mlop_L2C_THRESH 375
mlop_LLC_THRESH 150
mlop_ORIGIN 63
mlop_MAX_OFFSET 63
mlop_MIN_OFFSET -63
mlop_ORIGIN 63
mlop_NUM_OFFSETS 127


Heartbeat CPU  0 instructions:    1000003 cycles:     262639 heartbeat IPC: 3.80752 cumulative IPC: 3.80752 (Simulation time: 0 hr 0 min 1 sec) 
Heartbeat CPU  0 instructions:    2000000 cycles:     771324 heartbeat IPC: 1.96585 cumulative IPC: 2.59294 (Simulation time: 0 hr 0 min 3 sec) 
Heartbeat CPU  0 instructions:    3000000 cycles:    1337776 heartbeat IPC: 1.76537 cumulative IPC: 2.24253 (Simulation time: 0 hr 0 min 4 sec) 
Heartbeat CPU  0 instructions:    4000000 cycles:    1991542 heartbeat IPC: 1.52960 cumulative IPC: 2.00849 (Simulation time: 0 hr 0 min 5 sec) 
Heartbeat CPU  0 instructions:    5000003 cycles:    2787856 heartbeat IPC: 1.25579 cumulative IPC: 1.79349 (Simulation time: 0 hr 0 min 7 sec) 
Heartbeat CPU  0 instructions:    6000000 cycles:    3663315 heartbeat IPC: 1.14225 cumulative IPC: 1.63786 (Simulation time: 0 hr 0 min 8 sec) 
Heartbeat CPU  0 instructions:    7000002 cycles:    4546811 heartbeat IPC: 1.13187 cumulative IPC: 1.53954 (Simulation time: 0 hr 0 min 9 sec) 
Heartbeat CPU  0 instructions:    8000000 cycles:    5430491 heartbeat IPC: 1.13163 cumulative IPC: 1.47316 (Simulation time: 0 hr 0 min 10 sec) 
Heartbeat CPU  0 instructions:    9000000 cycles:    6307834 heartbeat IPC: 1.13981 cumulative IPC: 1.42680 (Simulation time: 0 hr 0 min 12 sec) 
Heartbeat CPU  0 instructions:   10000001 cycles:    7172642 heartbeat IPC: 1.15633 cumulative IPC: 1.39419 (Simulation time: 0 hr 0 min 13 sec) 

Warmup complete CPU  0 instructions:   10000001 cycles:    7172642 (Simulation time: 0 hr 0 min 13 sec) 

Heartbeat CPU  0 instructions:   11000000 cycles:   11362514 heartbeat IPC: 0.23867 cumulative IPC: 0.23867 (Simulation time: 0 hr 0 min 15 sec) 
Heartbeat CPU  0 instructions:   12000000 cycles:   15510585 heartbeat IPC: 0.24108 cumulative IPC: 0.23987 (Simulation time: 0 hr 0 min 17 sec) 
Heartbeat CPU  0 instructions:   13000001 cycles:   19628996 heartbeat IPC: 0.24281 cumulative IPC: 0.24084 (Simulation time: 0 hr 0 min 19 sec) 
Heartbeat CPU  0 instructions:   14000002 cycles:   23655581 heartbeat IPC: 0.24835 cumulative IPC: 0.24268 (Simulation time: 0 hr 0 min 21 sec) 
Heartbeat CPU  0 instructions:   15000001 cycles:   27630398 heartbeat IPC: 0.25158 cumulative IPC: 0.24441 (Simulation time: 0 hr 0 min 23 sec) 
Heartbeat CPU  0 instructions:   16000000 cycles:   31694058 heartbeat IPC: 0.24608 cumulative IPC: 0.24468 (Simulation time: 0 hr 0 min 25 sec) 
Heartbeat CPU  0 instructions:   17000002 cycles:   35757834 heartbeat IPC: 0.24608 cumulative IPC: 0.24488 (Simulation time: 0 hr 0 min 28 sec) 
Heartbeat CPU  0 instructions:   18000000 cycles:   39571667 heartbeat IPC: 0.26220 cumulative IPC: 0.24692 (Simulation time: 0 hr 0 min 30 sec) 
Heartbeat CPU  0 instructions:   19000000 cycles:   43777859 heartbeat IPC: 0.23774 cumulative IPC: 0.24587 (Simulation time: 0 hr 0 min 32 sec) 
Heartbeat CPU  0 instructions:   20000000 cycles:   47571475 heartbeat IPC: 0.26360 cumulative IPC: 0.24753 (Simulation time: 0 hr 0 min 34 sec) 
Heartbeat CPU  0 instructions:   21000000 cycles:   51218761 heartbeat IPC: 0.27418 cumulative IPC: 0.24974 (Simulation time: 0 hr 0 min 36 sec) 
Heartbeat CPU  0 instructions:   22000002 cycles:   54832606 heartbeat IPC: 0.27671 cumulative IPC: 0.25178 (Simulation time: 0 hr 0 min 38 sec) 
Heartbeat CPU  0 instructions:   23000000 cycles:   58382530 heartbeat IPC: 0.28170 cumulative IPC: 0.25386 (Simulation time: 0 hr 0 min 40 sec) 
Heartbeat CPU  0 instructions:   24000000 cycles:   61921243 heartbeat IPC: 0.28259 cumulative IPC: 0.25571 (Simulation time: 0 hr 0 min 42 sec) 
Heartbeat CPU  0 instructions:   25000002 cycles:   65475310 heartbeat IPC: 0.28137 cumulative IPC: 0.25728 (Simulation time: 0 hr 0 min 45 sec) 
Heartbeat CPU  0 instructions:   26000001 cycles:   69025429 heartbeat IPC: 0.28168 cumulative IPC: 0.25868 (Simulation time: 0 hr 0 min 47 sec) 
Heartbeat CPU  0 instructions:   27000003 cycles:   72498561 heartbeat IPC: 0.28793 cumulative IPC: 0.26023 (Simulation time: 0 hr 0 min 49 sec) 
Heartbeat CPU  0 instructions:   28000000 cycles:   75941553 heartbeat IPC: 0.29044 cumulative IPC: 0.26175 (Simulation time: 0 hr 0 min 51 sec) 
Heartbeat CPU  0 instructions:   29000000 cycles:   79335562 heartbeat IPC: 0.29464 cumulative IPC: 0.26329 (Simulation time: 0 hr 0 min 53 sec) 
Heartbeat CPU  0 instructions:   30000001 cycles:   82765581 heartbeat IPC: 0.29154 cumulative IPC: 0.26457 (Simulation time: 0 hr 0 min 55 sec) 
Heartbeat CPU  0 instructions:   31000003 cycles:   86111924 heartbeat IPC: 0.29883 cumulative IPC: 0.26603 (Simulation time: 0 hr 0 min 57 sec) 
Heartbeat CPU  0 instructions:   32000000 cycles:   89547980 heartbeat IPC: 0.29103 cumulative IPC: 0.26707 (Simulation time: 0 hr 0 min 59 sec) 
Heartbeat CPU  0 instructions:   33000002 cycles:   92882443 heartbeat IPC: 0.29990 cumulative IPC: 0.26835 (Simulation time: 0 hr 1 min 2 sec) 
Heartbeat CPU  0 instructions:   34000000 cycles:   96371131 heartbeat IPC: 0.28664 cumulative IPC: 0.26906 (Simulation time: 0 hr 1 min 4 sec) 
Heartbeat CPU  0 instructions:   35000000 cycles:  100049787 heartbeat IPC: 0.27184 cumulative IPC: 0.26917 (Simulation time: 0 hr 1 min 6 sec) 
Heartbeat CPU  0 instructions:   36000000 cycles:  103298267 heartbeat IPC: 0.30784 cumulative IPC: 0.27048 (Simulation time: 0 hr 1 min 8 sec) 
Heartbeat CPU  0 instructions:   37000000 cycles:  106607229 heartbeat IPC: 0.30221 cumulative IPC: 0.27154 (Simulation time: 0 hr 1 min 10 sec) 
Heartbeat CPU  0 instructions:   38000003 cycles:  109936150 heartbeat IPC: 0.30040 cumulative IPC: 0.27247 (Simulation time: 0 hr 1 min 12 sec) 
Heartbeat CPU  0 instructions:   39000002 cycles:  113382808 heartbeat IPC: 0.29014 cumulative IPC: 0.27304 (Simulation time: 0 hr 1 min 14 sec) 
Heartbeat CPU  0 instructions:   40000000 cycles:  116932099 heartbeat IPC: 0.28175 cumulative IPC: 0.27332 (Simulation time: 0 hr 1 min 16 sec) 
Heartbeat CPU  0 instructions:   41000000 cycles:  120583214 heartbeat IPC: 0.27389 cumulative IPC: 0.27334 (Simulation time: 0 hr 1 min 18 sec) 
Heartbeat CPU  0 instructions:   42000002 cycles:  124187888 heartbeat IPC: 0.27742 cumulative IPC: 0.27347 (Simulation time: 0 hr 1 min 21 sec) 
Heartbeat CPU  0 instructions:   43000001 cycles:  127478185 heartbeat IPC: 0.30392 cumulative IPC: 0.27430 (Simulation time: 0 hr 1 min 23 sec) 
Heartbeat CPU  0 instructions:   44000000 cycles:  130667388 heartbeat IPC: 0.31356 cumulative IPC: 0.27532 (Simulation time: 0 hr 1 min 25 sec) 
Heartbeat CPU  0 instructions:   45000001 cycles:  133836778 heartbeat IPC: 0.31552 cumulative IPC: 0.27632 (Simulation time: 0 hr 1 min 27 sec) 
Heartbeat CPU  0 instructions:   46000000 cycles:  137131907 heartbeat IPC: 0.30348 cumulative IPC: 0.27701 (Simulation time: 0 hr 1 min 29 sec) 
Heartbeat CPU  0 instructions:   47000002 cycles:  140301021 heartbeat IPC: 0.31555 cumulative IPC: 0.27793 (Simulation time: 0 hr 1 min 31 sec) 
Heartbeat CPU  0 instructions:   48000000 cycles:  143574479 heartbeat IPC: 0.30549 cumulative IPC: 0.27859 (Simulation time: 0 hr 1 min 34 sec) 
Heartbeat CPU  0 instructions:   49000000 cycles:  146730653 heartbeat IPC: 0.31684 cumulative IPC: 0.27945 (Simulation time: 0 hr 1 min 36 sec) 
Heartbeat CPU  0 instructions:   50000001 cycles:  149841639 heartbeat IPC: 0.32144 cumulative IPC: 0.28037 (Simulation time: 0 hr 1 min 38 sec) 
Heartbeat CPU  0 instructions:   51000002 cycles:  152908548 heartbeat IPC: 0.32606 cumulative IPC: 0.28133 (Simulation time: 0 hr 1 min 40 sec) 
Heartbeat CPU  0 instructions:   52000000 cycles:  155936256 heartbeat IPC: 0.33028 cumulative IPC: 0.28233 (Simulation time: 0 hr 1 min 42 sec) 
Heartbeat CPU  0 instructions:   53000002 cycles:  159061517 heartbeat IPC: 0.31997 cumulative IPC: 0.28310 (Simulation time: 0 hr 1 min 44 sec) 
Heartbeat CPU  0 instructions:   54000003 cycles:  162275562 heartbeat IPC: 0.31113 cumulative IPC: 0.28368 (Simulation time: 0 hr 1 min 47 sec) 
Heartbeat CPU  0 instructions:   55000000 cycles:  165362607 heartbeat IPC: 0.32393 cumulative IPC: 0.28447 (Simulation time: 0 hr 1 min 49 sec) 
Heartbeat CPU  0 instructions:   56000000 cycles:  168392976 heartbeat IPC: 0.32999 cumulative IPC: 0.28532 (Simulation time: 0 hr 1 min 51 sec) 
Heartbeat CPU  0 instructions:   57000003 cycles:  171438828 heartbeat IPC: 0.32832 cumulative IPC: 0.28612 (Simulation time: 0 hr 1 min 53 sec) 
Heartbeat CPU  0 instructions:   58000000 cycles:  174611961 heartbeat IPC: 0.31514 cumulative IPC: 0.28667 (Simulation time: 0 hr 1 min 55 sec) 
Heartbeat CPU  0 instructions:   59000001 cycles:  177611862 heartbeat IPC: 0.33334 cumulative IPC: 0.28749 (Simulation time: 0 hr 1 min 57 sec) 
Heartbeat CPU  0 instructions:   60000000 cycles:  180750324 heartbeat IPC: 0.31863 cumulative IPC: 0.28806 (Simulation time: 0 hr 2 min 0 sec) 
Finished CPU 0 instructions: 50000003 cycles: 173577690 cumulative IPC: 0.28806 (Simulation time: 0 hr 2 min 0 sec) 

ChampSim completed all CPUs

[ROI Statistics]
Core_0_instructions 50000003
Core_0_cycles 173577690
Core_0_IPC 0.28806

Core_0_branch_prediction_accuracy 94.04406
Core_0_branch_MPKI 8.75888
Core_0_average_ROB_occupancy_at_mispredict 103.16607

Core_0_L1D_total_access 13495481
Core_0_L1D_total_hit 10910160
Core_0_L1D_total_miss 2585321
Core_0_L1D_loads 12145685
Core_0_L1D_load_hit 9848386
Core_0_L1D_load_miss 2297299
Core_0_L1D_RFOs 1349796
Core_0_L1D_RFO_hit 1061774
Core_0_L1D_RFO_miss 288022
Core_0_L1D_prefetches 0
Core_0_L1D_prefetch_hit 0
Core_0_L1D_prefetch_miss 0
Core_0_L1D_writebacks 0
Core_0_L1D_writeback_hit 0
Core_0_L1D_writeback_miss 0
Core_0_L1D_prefetch_requested 0
Core_0_L1D_prefetch_dropped 0
Core_0_L1D_prefetch_issued 0
Core_0_L1D_prefetch_filled 0
Core_0_L1D_prefetch_useful 0
Core_0_L1D_prefetch_useless 0
Core_0_L1D_prefetch_late 0
Core_0_L1D_average_miss_latency 93.08060

Core_0_L1D_rq_access 17863072
Core_0_L1D_rq_forward 0
Core_0_L1D_rq_merged 5491986
Core_0_L1D_rq_to_cache 12371086
Core_0_L1D_rq_full 0

Core_0_L1D_wq_access 1463393
Core_0_L1D_wq_forward 0
Core_0_L1D_wq_merged 975
Core_0_L1D_wq_to_cache 1462418
Core_0_L1D_wq_full 0

Core_0_L1D_pq_access 0
Core_0_L1D_pq_forward 0
Core_0_L1D_pq_merged 0
Core_0_L1D_pq_to_cache 0
Core_0_L1D_pq_full 0

Core_0_L1D_acc_epochs 175528
Core_0_L1D_acc_level_0 175528
Core_0_L1D_acc_level_1 0
Core_0_L1D_acc_level_2 0
Core_0_L1D_acc_level_3 0
Core_0_L1D_acc_level_4 0
Core_0_L1D_acc_level_5 0
Core_0_L1D_acc_level_6 0
Core_0_L1D_acc_level_7 0
Core_0_L1D_acc_level_8 0
Core_0_L1D_acc_level_9 0

Core_0_L1I_total_access 7325670
Core_0_L1I_total_hit 7325669
Core_0_L1I_total_miss 1
Core_0_L1I_loads 7325670
Core_0_L1I_load_hit 7325669
Core_0_L1I_load_miss 1
Core_0_L1I_RFOs 0
Core_0_L1I_RFO_hit 0
Core_0_L1I_RFO_miss 0
Core_0_L1I_prefetches 0
Core_0_L1I_prefetch_hit 0
Core_0_L1I_prefetch_miss 0
Core_0_L1I_writebacks 0
Core_0_L1I_writeback_hit 0
Core_0_L1I_writeback_miss 0
Core_0_L1I_prefetch_requested 0
Core_0_L1I_prefetch_dropped 0
Core_0_L1I_prefetch_issued 0
Core_0_L1I_prefetch_filled 0
Core_0_L1I_prefetch_useful 0
Core_0_L1I_prefetch_useless 0
Core_0_L1I_prefetch_late 0
Core_0_L1I_average_miss_latency 231.00000

Core_0_L1I_rq_access 50000119
Core_0_L1I_rq_forward 0
Core_0_L1I_rq_merged 42674449
Core_0_L1I_rq_to_cache 7325670
Core_0_L1I_rq_full 0

Core_0_L1I_wq_access 0
Core_0_L1I_wq_forward 0
Core_0_L1I_wq_merged 0
Core_0_L1I_wq_to_cache 0
Core_0_L1I_wq_full 0

Core_0_L1I_pq_access 0
Core_0_L1I_pq_forward 0
Core_0_L1I_pq_merged 0
Core_0_L1I_pq_to_cache 0
Core_0_L1I_pq_full 0

Core_0_L1I_acc_epochs 175528
Core_0_L1I_acc_level_0 175528
Core_0_L1I_acc_level_1 0
Core_0_L1I_acc_level_2 0
Core_0_L1I_acc_level_3 0
Core_0_L1I_acc_level_4 0
Core_0_L1I_acc_level_5 0
Core_0_L1I_acc_level_6 0
Core_0_L1I_acc_level_7 0
Core_0_L1I_acc_level_8 0
Core_0_L1I_acc_level_9 0

Core_0_L2C_total_access 3875704
Core_0_L2C_total_hit 1482193
Core_0_L2C_total_miss 2393511
Core_0_L2C_loads 2297287
Core_0_L2C_load_hit 472633
Core_0_L2C_load_miss 1824654
Core_0_L2C_RFOs 287986
Core_0_L2C_RFO_hit 187298
Core_0_L2C_RFO_miss 100688
Core_0_L2C_prefetches 465875
Core_0_L2C_prefetch_hit 345
Core_0_L2C_prefetch_miss 465530
Core_0_L2C_writebacks 824556
Core_0_L2C_writeback_hit 821917
Core_0_L2C_writeback_miss 2639
Core_0_L2C_prefetch_requested 1095030
Core_0_L2C_prefetch_dropped 0
Core_0_L2C_prefetch_issued 1095030
Core_0_L2C_prefetch_filled 492331
Core_0_L2C_prefetch_useful 247706
Core_0_L2C_prefetch_useless 244489
Core_0_L2C_prefetch_late 3628
Core_0_L2C_average_miss_latency 96.23318

Core_0_L2C_rq_access 2585321
Core_0_L2C_rq_forward 0
Core_0_L2C_rq_merged 0
Core_0_L2C_rq_to_cache 2585273
Core_0_L2C_rq_full 0

Core_0_L2C_wq_access 824556
Core_0_L2C_wq_forward 49
Core_0_L2C_wq_merged 0
Core_0_L2C_wq_to_cache 824556
Core_0_L2C_wq_full 0

Core_0_L2C_pq_access 1095030
Core_0_L2C_pq_forward 0
Core_0_L2C_pq_merged 17180
Core_0_L2C_pq_to_cache 1077849
Core_0_L2C_pq_full 0

Core_0_L2C_acc_epochs 175528
Core_0_L2C_acc_level_0 33485
Core_0_L2C_acc_level_1 3102
Core_0_L2C_acc_level_2 8775
Core_0_L2C_acc_level_3 17898
Core_0_L2C_acc_level_4 23782
Core_0_L2C_acc_level_5 20648
Core_0_L2C_acc_level_6 17262
Core_0_L2C_acc_level_7 16332
Core_0_L2C_acc_level_8 12616
Core_0_L2C_acc_level_9 21628

Core_0_LLC_total_access 3377456
Core_0_LLC_total_hit 2201260
Core_0_LLC_total_miss 1176196
Core_0_LLC_loads 1821043
Core_0_LLC_load_hit 1069534
Core_0_LLC_load_miss 751509
Core_0_LLC_RFOs 100682
Core_0_LLC_RFO_hit 44279
Core_0_LLC_RFO_miss 56403
Core_0_LLC_prefetches 921029
Core_0_LLC_prefetch_hit 585498
Core_0_LLC_prefetch_miss 335531
Core_0_LLC_writebacks 534702
Core_0_LLC_writeback_hit 501949
Core_0_LLC_writeback_miss 32753
Core_0_LLC_prefetch_requested 0
Core_0_LLC_prefetch_dropped 0
Core_0_LLC_prefetch_issued 0
Core_0_LLC_prefetch_filled 432153
Core_0_LLC_prefetch_useful 74095
Core_0_LLC_prefetch_useless 351145
Core_0_LLC_prefetch_late 1233
Core_0_LLC_average_miss_latency 182.09336

Core_0_LLC_rq_access 1921730
Core_0_LLC_rq_forward 0
Core_0_LLC_rq_merged 0
Core_0_LLC_rq_to_cache 1921725
Core_0_LLC_rq_full 0

Core_0_LLC_wq_access 534702
Core_0_LLC_wq_forward 9
Core_0_LLC_wq_merged 0
Core_0_LLC_wq_to_cache 534702
Core_0_LLC_wq_full 0

Core_0_LLC_pq_access 1050617
Core_0_LLC_pq_forward 0
Core_0_LLC_pq_merged 1062
Core_0_LLC_pq_to_cache 1049551
Core_0_LLC_pq_full 0

Core_0_LLC_acc_epochs 176514
Core_0_LLC_acc_level_0 136807
Core_0_LLC_acc_level_1 9582
Core_0_LLC_acc_level_2 7233
Core_0_LLC_acc_level_3 2036
Core_0_LLC_acc_level_4 1480
Core_0_LLC_acc_level_5 4130
Core_0_LLC_acc_level_6 1536
Core_0_LLC_acc_level_7 1829
Core_0_LLC_acc_level_8 2175
Core_0_LLC_acc_level_9 9706

Core_0_major_page_fault 0
Core_0_minor_page_fault 8963

[MLOP] History of tracked zone:
IIIIIIIIIIIIIIIIIIIIIIIIIIIIIIIIIIIIIIIIIIIIIIIIIIIIIIIIIIIIIIII
IIIIIIIIIIIIIIIIIIIIIIIIIIIIIIIIIIIAIIIIIIIIIIIIIIIIIIIIIIIIIIII
IIIIIIIIIIIIIIIIIIIIIIIIIIIIIIIIIIIAIIIIIIIIIIIIIIIIIIIIIIIIIIAI
IIIIIIIIIIIIIIIIIIIIIIAIIIIIIIIIIIIAIIIIIIIIIIIIIIIIIIIIIIIIIIAI
IIIIIIIIIIIIIIIIIIIIIIAIIIIIIIIIIIIAIIIAIIIIIIIIIIIIIIIIIIIIIIAI
IIIIIIIIIIIIIIIIIIIIIIAIIIIIIIIIIIIAIIIAIIIIIIIIIIIIAIIIIIIIIIAI
IIIIIIIIIIIIIIIIIIIIIIAIIIIIIIIIIIIAIIIAIIIIIIIIIIIIAIAIIIIIIIAI
IIIIIIIIIIIIIIIIIIIIIIAIIIIIIIIIIIIAIIIAIIIIIIIIIIIIAIAIAIIIIIAI
IIIIIIIIIIIIIIIIIIIIIIAIIIIIIIIIIIIAIIIAIIIIIIIIIIIAAIAIAIIIIIAI
IA4IIIIIIIIIIIIIIIIIIIAIIIIIIIIIIIIAIIIAIIIIIIIIIIIAAIAIAIIIIIAI
IA4IIIIA4IIIIIIIIIIIIIAIIIIIIIIIIIIAIIIAIIIIIIIIIIIAAIAIAIIIIIAI
IA4IIIIA4IIIIIIIIIIIIIAIIIIA4IIIIIIAIIIAIIIIIIIIIIIAAIAIAIIIIIAI
IA4IIIIA4IIIIIIIIIIIIIAIIIIA4IIIIIIAIA4AIIIIIIIIIIIAAIAIAIIIIIAI
IA4IIIIA4IIIIIIIIIIIIIAIIIIA4IIIIIIAIA4AIIIIIIIIIIIAAIA4AIIIIIAI
IA4IIIIA4IIIIIIIIIIIIIAIIIIA4IIIIIIAIA4AIIIIIIIIIIIAAIA4A4IIIIAI
IA4IIIIA4IIIIIIIIIIIIIAIIIIA4IIIIIIAIA4AIIIIIIIIIIIAAIA4A4IIIIA4
IA4IIA4A4II44IIIIIIIIIAIIIIA4IIIIIIAIA4AIIIIIIIIIIIAAIA4A4IIIIA4
IA4IIAAA44I444IIIIIIIIAIIIIA4IIIIIIAIA4AIIIIIIIIIIIAAIA4A4IIIIA4
IA4IIAAA44A444II44IIIIAIIIIA4IIIIIIAIA4AIIIIIIIIIIIAAIA4A4IIIIA4
IA4IIAAA44A444II44A4I4AI44IA4IIIIIIAIA4AIIIIIIIIIIIAAIA4A4IIIIA4
IA4IIAAA44A444II44A4I4A444IA44IIIIIAIA4AIIIIIIIIIIIAAIA4A4IIIIA4
IA4IIAAA44A444II44A4I4A444AA44II44IAIA4AIIIIIIIIIIIAAIA4A4IIIIA4
IA4IIAAA44A444II44A4I4A444AA44II44IA4A4AI44IIIIIIIIAAIA4A4IIIIA4
IA4IIAAA44A444II44A4I4A444AA44II44IA4A4A444II44IIIIAAIA4A4IIIIA4
IA4IIAAA44A444II44A4I4A444AA44II44IA4A4A444II44IIIIAAIA4A4I4IIA4
IA4IIAAA44A444II44A4I4A444AA44II44IA4A4A444II44IIIIAAIA4AA444IA4
IA4IIAAA44A444II44A4I4A444AA44II44IA4A4A444II44IIIIAAIA4AA444AA4
IA4IIAAA44A444II44A4I4A444AA44II44IA4A4A4444444I4IIAAIA4AA444AA4
IA4IIAAA44A444II44A4I4A444AA44II44IA4A4A4444444I44IAAIA4AA444AA4
IA4IIAAA44A444II44A4I4A444AA44II44IA4A4A4444444444IAAIA4AA444AA4
IAA4IAAA44A4444I44A4I4A444AA44II44IA4A4A4444444444IAAIA4AA444AA4
IAA4AAAA44A4444I44A4I4A444AA44II44IA4A4A4444444444IAAIA4AA444AA4
IAA4AAAA44A4444444A4I4A444AA44II44IA4A4A4444444444IAAIA4AA444AA4
IAA4AAAA44A4444A44A4I4A444AA44II44IA4A4A4444444444IAAIA4AA444AA4
IAA4AAAA44A4444A44A4I4A444AA44A444IA4A4A4444444444IAAIA4AA444AA4
IAA4AAAA44A4444A44A4I4A444AA44A444IA4A4A4444444444IAAIAAAA444AA4
IAA4AAAA44A444AA44A444A444AA44A444IA4A4A4444444444IAAIAAAA444AA4
IAA4AAAA44A444AA44AA44A444AA44A4444A4A4A4444444444IAAIAAAA444AA4
IAA4AAAA44A444AA44AA44AA44AA44A4444A4A4A4444444444IAAIAAAA444AA4
IAA4AAAA44A444AA44AA44AAA4AA44A4444A4A4A4444444444IAAIAAAA444AA4
IAA4AAAA44A444AA44AA44AAA4AA44A4444A4A4A44444444444AAIAAAA444AA4
IAA4AAAA44A444AA44AA44AAA4AA44A4444A4A4A4444A444444AA4AAAA444AA4
IAA4AAAA44A444AA44AA44AAA4AA44A4444A4A4A4444A44A444AA4AAAA444AA4
IAA4AAAA44A444AA44AA44AAA4AA44A4444A4A4A4444A44A444AA4AAAA44AAA4
AAA4AAAA44A444AA44AA44AAA4AA44A4444A4A4A4444A44A444AA4AAAA44AAA4
AAA4AAAA44A444AA44AA44AAA4AA44A444AA4A4A4444A44A444AA4AAAA44AAA4
AAA4AAAA44A444AA44AA44AAA4AA44A444AA4A4AA444A44A444AA4AAAA44AAA4
AAA4AAAA44A444AA44AA44AAA4AA44A4A4AA4A4AA444A44A444AA4AAAA44AAA4
AAA4AAAA44A444AA44AA44AAA4AA44A4A4AA4AAAA444A44A444AA4AAAA44AAA4
AAA4AAAA44A444AA44AA44AAA4AAA4A4A4AA4AAAA444A44A444AA4AAAA44AAA4
AAA4AAAA44A444AA44AA44AAA4AAA4A4A4AA4AAAA444A44A444AA4AAAA4AAAA4
AAA4AAAA44A444AA4AAA44AAA4AAA4A4A4AA4AAAA444A44A444AA4AAAA4AAAA4
AAA4AAAA44A444AA4AAA44AAA2AAA4A4A4AA4AAAA444A44A444AA4AAAA4AAAA4
AAA4AAAA44A444AA4AAA44AAAAAAA4A4A4AA4AAAA444A44A444AA4AAAA4AAAA4
AAA4AAAA44A444AA4AAA44AAAAAAA4A4A4AA4AAAA444A44A444AA4AAAA4AAAA2
AAA4AAAA44A444AA4AAA44AAAAAAA4A4A4AA4AAAAA44A44A444AA4AAAA4AAAA2
AAA4AAAA44AA44AA4AAA44AAAAAAA4A4A4AA4AAAAA44A44A444AA4AAAA4AAAA2
AAA4AAAA44AA44AA4AAA44AAAAAAA4A4I4AA4AAAAA44A44A444AA4AAAA4AAAA2
AAA4AAAA44AA44AA4AAA44AAAAAAA4A4I4AA4AAAAA44A44A444AA4AAIA4AAAA2
AAA4AAAA44AA44AA4AAA44AAAAAAA4A4I4AA4IAAAA44A44A444AA4AAIA4AAAA2
AAA4AAAA44AA44AA4AAA44AAAAAAA4A2I4AA44AAAA44A44A444AA4AAIA4AAAA2
AAA4AAAA44AA44AA4AAA44AAAAAAA4A2A2AA44AAAA44A44A444AA4AAIA4AAAA2
AAA4AAAA44AA44AA4AAA44AAAAAAA4A2A2AA44AAAA44A44A444AA4AAAA4AAAA2
AAA4IAAA44AA44AA4AAA44AAAAAAA4A2A2AA44AAAA44A44A444AA4AAAA4AAAA2
AAA4IAAA44AA44AA4AAA44AAAAAAA4A2A2AA44AIAA44A44A444AA4AAAA4AAAA2
AAA4IAAA44AA44AA4AAA24AAAAAAA4A2A2AA44AIAA44A44A444AA4AAAA4AAAA2
AAA4IAAA44AA44AA4AAA24AAAAAAA4A2A2AA44AIAA44A44A444AA4AAAA2AAAA2
AAA4IAAA44AA44AA4AAA24AAAAAAA4A2A2AA44AIAA44A44AA24AA4AAAA2AAAA2
AAA4IAAA44AA44AA4AIA24AAAAAAA4A2A2AA44AIAA44A44AA24AA4AAAA2AAAA2
AAA4IAAA44AA44AA4AIA24AAAAAAA4A2A2AA44AIAA44A44AI24AA4AAAA2AAAA2
AAA4IAAA44AA44AA4AIA24AAAAAAA4A2A2AA24A4AA44A44A424AA4AAAA2AAAA2
AAA44AAA44AA44AA4A4A24AAAAAAA4A2A2AA24A4AA44A44A424AA4AAAA2AAAA2
AAA44AAA44AA44AA4A4A24AAAAAAA4A2A2AI24A4AA44A44A424AA4AAAA2AAAA2
AAA44AAA44AA44AA4A4A24AAAAAAA4A2A2AI24A4AA44A44A424AA4AAIA2AAAA2
AAA44AAA44AA44AA4A4A24AAAAAAA4A2A2AI24A4AA44A44A424AA4AAAA2AAAA2
AAA44AAA44AA44AA4A4A24AAAAAAA4A2A2AA24A4AA44A44A424AA4AAAA2AAAA2
AAA44AAA44AA44AA4A4A24AAAAAAA4A2A2AA24A4AA44A44A424AA4AAAA2AAIA2
AAA44AAA44AA44AA4A4A24AAAAAAA4A2A2AA24A4AA44A44A424AA4AAAA2AA4A2
AAA44AAA44AA44AI4A4A24AAAAAAA4A2A2AA24A4AA44A44A424AA4AAAA2AA4A2
AAA44AAA44AA44AI4A4A24AAAIAAA4A2A2AA24A4AA44A44A424AA4AAAA2AA4A2
AAA4AAAA44AA44A44A4A24AAAIAAA4A2A2AA24A4AA44A44A424AA4AAAA2AA4A2
AAA4AAAA44AA44A44A4A24AAA4AAA4A2A2AA24A4AA44A44A424AA4AAAA2AA4A2
AAA2AAAA44AA44A44A4A24AAA4AAA4A2A2AA24A4AA44A44A424AA4AAAA2AA4A2
AAA2AAAA44AA44A44A4A24AAA4AAA4AAA2AA24A4AA44A44A424AA4AAAA2AA4A2
AAA2AAAA44AA44A44A4A24AAA4AAA4AAA2AA24AAAA44A44A424AA4AAAA2AA4A2
AAA2AAAA44AA44A44A4A24AAA2AAA4AAA2AA24AAAA44A44A424AA4AAAA2AA4A2
AAA2AAAA44AA44A44A4A24AAAIAAA4AAA2AA24AAAA44A44A424AA4AAAA2AA4A2
AAA2AAAA44AA44A44A4A24AAAIAAA4AAA2AA24AAAA44A44A424AA4AAAA2AA4I2
AAA2AAAA44AA44A44A4A24AAAIAAA4AAA2AA24AAAA44A44A424AA4AAIA2AA4I2
AAA2AAAA44AA44A44A4A24AAAIAAA4AAA2AA24AAAA44A44A424AA4AAAA2AA442
AAA2AAAA44AA44A44A4A24AAA4AAA4AAA2AA24AAAA44A44A424AA4AAAA2AA442
AAA2AAAA44AA44A44AAA24AAA4AAA4AAA2AA24AAAA44A44A424AA4AAAA2AA442
AAA2AAAA44AA44A44AAA24AAA4AAA4AAA2AA24AAAA44A44A424AA4AAAA2AA4A2
AAA2AAAA44AA44A44AIA24AAA4AAA4AAA2AA24AAAA44A44A424AA4AAAA2AA4A2
AAA2IAAA44AA44A44AIA24AAA4AAA4AAA2AA24AAAA44A44A424AA4AAAA2AA4A2
AAA2IAAA44IA44A44AIA24AAA4AAA4AAA2AA24AAAA44A44A424AA4AAAA2AA4A2
AAA2IAAA44IA44A44AIA24AAA4AAA4AAA2AA24AAAA24A44A424AA4AAAA2AA4A2
AAA2IAAA44IA44A44AIA24AAA4AAA4AAA2AA24AAAA24A44A424AA4AAAA2AA2A2
AAA2IAAA44IA44A44AIA24AAA4AAA4AAA2IA24AAAA24A44A424AA4AAAA2AA2A2
AAA2IAAA44IA44A44AIA24AAA4AAA4AAA24A24AAAA24A44A424AA4AAAA2AA2A2
AAA2AAAA44IA44A44A4A24AAA4AAA4AAA24A24AAAA24A44A424AA4AAAA2AA2A2
AAA2AAAA44IA44A44AAA24AAA4AAA4AAA24A24AAAA24A44A424AA4AAAA2AA2A2
AAA2AAAA44IA44A44AAA24AAA2AAA4AAA24A24AAAA24A44A424AA4AAAA2AA2A2
AAA2AAAA444A44A44AAA24AAA2AAA4AAA24A24AAAA24A44A424AA4AAAA2AA2A2
AAA2IAAA444A44A44AAA24AAA2AAA4AAA24A24AAAA24A44A424AA4AAAA2AA2A2
AAA2AAAA444A44A44AAA24AAA2AAA4AAA24A24AAAA24A44A424AA4AAAA2AA2A2
AAA2AAAA444A44A44AAA24AAA2AAA4AAA24A24AAAA24A44A424AA2AAAA2AA2A2
AAA2AAAA244A44A44AAA24AAA2AAA4AAA24A24AAAA24A44A424AA2AAAA2AA2A2
AAA2AAAA24AA22A44AAA24AAA2AAA4AAA24A24AAAA24A44A424AA2AAAA2AA2A2
AAA2AAAA24AA22A24AAA24AAA2AAA4AAA24A24AAAA24A44A424AA2AAAA2AA2A2
AAA2AAAA24AA22A24AAA22AAA2AAA4AAA24A24AAAA24A44A424AA2AAAA2AA2A2
AAA2AAAA24AA22AA2AAA22AAA2AAA4AAA24A24AAAA24A44A424AA2AAAA2AA2A2
AAA2AAAA24AA22AAIAAA22AAA2AAA4AAA24A24AAAA24A44A424AA2AAAA2AA2A2
AAA2AAAA24AA22AAIAAA22IAA2AAA4AAA24A24AAAA24A44A424AA2AAAA2AA2A2
AAA2AAAA24AA22AAIAAA22IAA2AAA4AAA2AA24AAAA24A44A424AA2AAAA2AA2A2
AAA2AAAA24AA22AAIAAA22IAA2AAA4AAA2IA24AAAA24A44A424AA2AAAA2AA2A2
AAA2AAAA24AA22AAIAAA22AAA2AAA4AAA2IA24AAAA24A44A424AA2AAAA2AA2A2
AAA2AAAA24AA22AA4AAA22AAA2AAA4AAA2IA24AAAA24A44A424AA2AAAA2AA2A2
AAA2AAAA24AA22AA4AAA22AAA2AAA4AAA24A24AAAA24A44A424AA2AAAA2AA2A2
AAA2AAAA24AA22AA4AAI22AAA2AAA4AAA24A24AAAA24A44A424AA2AAAA2AA2A2
AAA2AAAA24AA22AA4AAI22AAA2AAA4AAA24A22AAAA24A44A424AA2AAAA2AA2A2
AAA2AAAA24AA22AA4AAI22AAA2AAA4AAA22A22AAAA24A44A424AA2AAAA2AA2A2
AAA2AAAA24AA22AA4AAI22AAA2AAA4AAA22A22AAAA24A44A424AA2AAAA2AA2AA
AAA2AAAA24AA22AA4AAI2AAAA2AAA4AAA22A22AAAA24A44A424AA2AAAA2AA2AA
AAA2AAAA24AA22AA4AAI2AAAA2AAA4AAA22A22AAAA24A44A424AA2AAIA2AA2AA
AAA2AAAA24AA22AA4AAI2AAAA2AAA4AAA22A22AAAA24A44A424AA2AAAA2AA2AA
AAA2AAAA24AA22AA4AAI2AAAA2AAA4AAA22A22AAAA24A44A424AA2AAAA2AA2IA
AAA2AAAA24AA22AA4AAI2AAAAAAAA2AAA22A22AAAA24A44A424AA2AAAA2AA2IA
AAA2AAAA24AA22AA4AAI2AAAAAAAA2AAA22A22AAAA24A44A424AA2AAAA2AA22A
AAA2AAAA24AA22AA4AAI2AAAAAAAA2AAA22A22AAAA24A44A424AA2AAIA2AA22A
AAA2AAAA24AA22AA4AA42AAAAAAAA2AAA22A22AAAA24A44A424AA2AAIA2AA22A
AAA2AAAA24AA22AA4AA42AAAAAAAA2AAA22A22AAAA24A44A424AA2AAAA2AA22A
AAA2AAAA24AA22AA4AA42AAAAAAAA2AAA22A22AAAA24A44A424AA2AAAA2AAA2A
AAA2AAAA24AA22AA4AA42AAAAAAAA2AAA22A22AAAA24A44A424AA2AAAA2AAAAA
AAA2AAAA24AA22AA4AA22AAAAAAAA2AAA22A22AAAA24A44A424AA2AAAA2AAAAA
AAA2AAAA24AA22AI4AA22AAAAAAAA2AAA22A22AAAA24A44A424AA2AAAA2AAAAA
AAA2AAAA24AA22AI4AA22AAAAAAAA2IAA22A22AAAA24A44A424AA2AAAA2AAAAA
AAA2AAAA24AA22A44AA22AAAAAAAA2IAA22A22AAAA24A44A424AA2AAAA2AAAAA
AAA2AAAA24AA22AA4AA22AAAAAAAA24AA22A22AAAA24A44A424AA2AAAA2AAAAA
AAA2AAAA24AA22AA4AA22AAAAAAAA22AA22A22AAAA24A44A424AA2AAAA2AAAAA
AAA2AAAA24AA22AA4AA22AAAAAAAA22AA22A2AAAAA24A44A424AA2AAAA2AAAAA
AAA2AAAA24AA22AA4AA22AAAAAAAA22AA22A2AAAAA24A44A4A4AA2AAAA2AAAAA
AAA2AAAA24AA22AI4AA22AAAAAAAA22AA22A2AAAAA24A44A4A4AA2AAAA2AAAAA
AAA2AAAA24AA22AI4AA22AAAAAAAA22AA22A2AAAAA24A44A4A4AA2AAIA2AAAAA
AAA2AAAA24AA22AI4AA22AAAAAAAA22AA22A2AAAAA24A44A4A4AA2AAAA2AAAAA
AAA2AAAA24AA22AI4AI22AAAAAAAA22AA22A2AAAAA24A44A4A4AA2AAAA2AAAAA
AAA2AAAA24AA22A44AI22AAAAAAAA22AA22A2AAAAA24A44A4A4AA2AAAA2AAAAA
AAA2AAAA22AA22A44A422AAAAAAAA22AA22A2AAAAA24A44A4A4AA2AAAA2AAAAA
AAA2AAAA22AA22A44A4A2AAAAAAAA22AA22A2AAAAA24A44A4A4AA2AAAA2AAAAA
AAA2AAAA22AA22A44A4A2AAAAAAAA22AA2AA2AAAAA24A44A4A4AA2AAAA2AAAAA
AAA2AAAA22AA22A44A4A2AAAAAAAA22AA2AA2AAAAA24A44A4A4AA2IAAA2AAAAA
AAA2AAAA22AA22A44A4A2AAAAAAAA22AA2AA2AAAAA24A44A4A4AA2IAAI2AAAAA
AAA2AAAA22AA22A44A4A2AIAAAAAA22AA2AA2AAAAA24A44A4A4AA2IAAI2AAAAA
AAA2AAAA22AA22A44A4A2AIAAAAAA22AA2AA2AAAAA24A44A4A4AA24AAI2AAAAA
AAA2AAAA22AA22A44A4A2AIAAAAAA22AA2AA2AAAAA24A44A4A4AA24AA42AAAAA
AAA2AAIA22AA22A44A4A2AIAAAAAA22AA2AA2AAAAA24A44A4A4AA24AA42AAAAA
AAA2AAIA22AA22A44A4A2A4AAAAAA22AA2AA2AAAAA24A44A4A4AA24AA42AAAAA
AAA2AAIA22AA22A44A4A2A4AAAAAAA2AA2AA2AAAAA24A44A4A4AA24AA42AAAAA
AAA2AAIA22AA22A44A4A2A4AAAAAAA2AA2AA2AAAAA24A44AAA4AA24AA42AAAAA
AAA2AAII22AA22A44A4A2A4AAAAAAA2AA2AA2AAAAA24A44AAA4AA24AA42AAAAA
AAA2AAII22AA22I44A4A2A4AAAAAAA2AA2AA2AAAAA24A44AAA4AA24AA42AAAAA
AAA2AAII22AA22I44A4A2A4AAAAAAI2AA2AA2AAAAA24A44AAA4AA24AA42AAAAA
AAA2AAII22AA22IA2A4A2A4AAAAAA42AA2AA2AAAAA24A44AAA4AA24AA42AAAAA
AAA2AAII22AA22IA2A4A2A4AAAAAA4AAA2AA2AAAAA24A44AAA4AA24AA42AAAAA
AAA2AAII22AA22IA2A4A2A4AAAAAA4AAA2AA2AAAAA24A44AAA4AA24AA22AAAAA
AAA2AAII22AA22IA2A4A2A4AAAAAA4AAA2AA2AAAAA24A44AAA4AA24AA22AAAIA
AAA2AAII22AA22IA2A4A2A4AAAAAA4IAA2AA2AAAAA24A44AAA4AA24AA22AAAIA
AAA2AAII22AA222A2A4A2A4AAAAAA4IAA2AA2AAAAA24A44AAA4AA24AA22AAAIA
AAA2AAII22AA222A2A4A2AAAAAAAA44AA2AA2AAAAA24A44AAA4AA24AA22AAAIA
AAA2AAII22AA222A2A4A2AAAAAAAA42AA2AA2AAAAA24A44AAA4AA24AA22AAAIA
AAA2AAII22AA222A2A4A2AAAAAAAA42AA2AA2AAAAA24A44AAA4AA2AAA22AAA4A
AAA2AAII22AA222A2A4A2AAAAAAAA42AA2AA2AAAAA24A44AAA4AA2AAA22AAA2A
AAA2AAII22AA222A2A4A2AAAAAAAA42AA2AA2AAAAA24A44AAA4AA2AAA22AAAAA
AAA2AA4I22AA222A2A4A2AAAAAAAA42AA2AA2AAAAA24A44AAA4AA2AAA22AAAAA
AAA2AA4I22AA222A2A2A2AAAAAAAA42AA2AA2AAAAA24A44AAA4AA2AAA22AAAAA
AAA2AA4I22AA222A2AAA2AAAAAAAA42AA2AA2AAAAA24A44AAA4AA2AAA22AAAAA
AAA2AA4I22AA222A2AAA2AAAAAAAA42AA2AA2AAAAA24A44AAA4AA2AAAA2AAAAA
AAA2AA4I22AA222A2AAA2AAAAAAAA4AAA2AA2AAAAA24A44AAA4AA2AAAA2AAAAA
AAA2AA2222AA222A2AAA2AAAAAAAA4AAA2AA2AAAAA24A44AAA4AA2AAAA2AAAAA
AAA2AA2222AA222A2AAA2AAAAAAAA2AAA2AA2AAAAA24A44AAA4AA2AAAA2AAAAA
AAA2AA2222AA222A2AAA2AAAAAAAAIAAA2AA2AAAAA24A44AAA4AA2AAAA2AAAAA
AAA2AA2222AA222A2AAA2AAAAIAAAIAAA2AA2AAAAA24A44AAA4AA2AAAA2AAAAA
AAA2AA2222AA222A2AAA2AAAAIAAAIIAA2AA2AAAAA24A44AAA4AA2AAAA2AAAAA
AAA2AA2222AA222A2AAA2AAAA4AAA4IAA2AA2AAAAA24A44AAA4AA2AAAA2AAAAA
AAA2AAA222AA222A2AAA2AAAA4AAA4IAA2AA2AAAAA24A44AAA4AA2AAAA2AAAAA
AAA2AAA222AA222A2AAA2AAAA4AAA4IAA2AA2IAAAA24A44AAA4AA2AAAA2AAAAA
AAA2AAAA22AA222A2AAA2AAAA4AAA4IAA2AA2IAAAA24A44AAA4AA2AAAA2AAAAA
AAA2AAAA22AA222A2AAA2AAAA2AAA44AA2AA24AAAA24A44AAA4AA2AAAA2AAAAA
AAA2AAAA22AA222A2AAA2IAAA2AAA44AA2AA24AAAA24A44AAA4AA2AAAA2AAAAA
AAA2AAAA22AA222A2AAA2IAAA2AAA44AA2AA24AAAA24A44AAA4AA2AAAA2AAIAA
AAA2AAAA22AA222A2AAA2IAAA2AAA44AA2AA24AAAA24A44AAA2AA2AAAA2AAIAA
AAA2AAAA22AA222A2AAA2IAAA2AAA44AA2AA24AAAA24A44AAA2AA2AAAA2AA2AA
AAA2AAAA22AA222A2AAA2IAAA2AAA44AA2IA24AAAA24A44AAA2AA2AAAA2AA2AA
AAA2AAAA22AA222A2AAA24AAA2AAA44AA2IA24AAAA24A44AAA2AA2AAAA2AA2AA
AAA2AAAA22AA222A2AAA24AAA2AAA44AA2IA24AAAA22A22AAA2AA2AAAA2AA2AA
AAA2AAAA22AA222A2AAA24AAA2AAA44AA24A24AAAA22A22AAA2AA2AAAA2AA2AA
AAA2AAAA22AA222A2AAA24AAA2AAA44AA2AA24AAAA22A22AAA2AA2AAAA2AA2AA
AAA2IAAA22AA222A2AAA24AAA2AAA44AA2AA24AAAA22A22AAA2AA2AAAA2AA2AA
AAA2IAAA22AA222A2AAA2AAAA2AAA44AA2AA24AAAA22A22AAA2AA2AAAA2AA2AA
AAA2IAAA22AA222A2AAA2IAAA2AAA44AA2AA24AAAA22A22AAA2AA2AAAA2AA2AA
AAA22AAA22AA222A2AAA2IAAA2AAA44AA2AA24AAAA22A22AAA2AA2AAAA2AA2AA
AAA2AAAA22AA222A2AAA2IAAA2AAA44AA2AA24AAAA22A22AAA2AA2AAAA2AA2AA
AAA2AAAA22AA222A2AAA2IAAA2AAA44AA2AA22AAAA22A22AAA2AA2AAAA2AA2AA
AIA2AAAA22AA222A2AAA2IAAA2AAA44AA2AA22AAAA22A22AAA2AA2AAAA2AA2AA
AIA2AAAA22AA222A2AAA2IAAA2AAA44AA2IA22AAAA22A22AAA2AA2AAAA2AA2AA
AIA2AAAA22AA22AA2AAA24AAA2AAA44AA2IA22AAAA22A22AAA2AA2AAAA2AA2AA
AIA2AAAA22AA22AA2AAA24AAA2AAA44AA24A22AAAA22A22AAA2AA2AAAA2AA2AA
A2A2AAAA22AA22AA2AAA24AAA2AAA44AA24A22AAAA22A22AAA2AA2AAAA2AA2AA
AAA2AAAA22AA22AA2AAA24AAA2AAA44AA24A22AAAA22A22AAA2AA2AAAA2AA2AA
AAA2AAAA22AA22AA2AAA24AAA2AAA44AA24AA2AAAA22A22AAA2AA2AAAA2AA2AA
AAA2AAAA22AA22AA2AAA24AAA2AAA44AA24AAAAAAA22A22AAA2AA2AAAA2AA2AA
AAA2AAAA22AA22AA2AAA24AAA2AAA44AA24AAAAAAA22A2AAAA2AA2AAAA2AA2AA
AAA2AAAA22AI22AA2AAA24AAA2AAA44AA24AAAAAAA22A2AAAA2AA2AAAA2AA2AA
AAA2AAAA22AI22AA2AAA24AAA2AAA44AA24IAAAAAA22A2AAAA2AA2AAAA2AA2AA
AAA2AAAA22AI22AA2AAA24AAA2AAA44AA24IAAAAAA22A2AAIA2AA2AAAA2AA2AA
AAA2AAAA22A422AA2AAA24AAA2AAA44AA24IAAAAAA22A2AAIA2AA2AAAA2AA2AA
AAA2AAAAA2A422AA2AAA24AAA2AAA44AA24IAAAAAA22A2AAIA2AA2AAAA2AA2AA
AAA2AAAAA2AA22AA2AAA24AAA2AAA44AA24IAAAAAA22A2AAIA2AA2AAAA2AA2AA
AAA2AAAAA2AA22AA2AAA24AAA2AAA44AA24IAAAAAA22A2AA4A2AA2AAAA2AA2AA
AAA2AAAAA2AA22AA2AAA24AAA2AAA44AA24IAAIAAA22A2AA4A2AA2AAAA2AA2AA
AAA2AAAAA2AA22AA2AAA24AAA2AAA44AA24IIAIAAA22A2AA4A2AA2AAAA2AA2AA
AAA2AAAAA2AA22AA2AAA24AAA2AAA44AA24IIAIIAA22A2AA4A2AA2AAAA2AA2AA
AAA2AAAAA2AA22AA2AAA24AAA2AAA44AA24IIAIAAA22A2AA4A2AA2AAAA2AA2AA
AAA2AAAAA2AA22AA2AAA24AAA2AAA44AA244IAIAAA22A2AA4A2AA2AAAA2AA2AA
AAA2AAAAA2AA22AA2AAA24AAA2AAA44AA244IAIIAA22A2AA4A2AA2AAAA2AA2AA
AAA2AAAAA2AA22AA2AAA24AAA2AAA44AA244IAIAAA22A2AA4A2AA2AAAA2AA2AA
AAA2AAAAA2AA22AA2AAA24AAA2AAA44AA2A22A4AAA22A2AA4A2AA2AAAA2AA2AA
AAA2AAAAA2AA22AA2AAA24AAA2AAA44AA2A22A2AAA22A2AA4A2AA2AAAA2AA2AA
AAA2AAAAA2AA22AA2AAA24AAA2AAA44AA2A22A2AAA22A2AA4A2AA2AAAA2AA2IA
AAA2AAAAA2AA22AA2AAA24AAA2AAA44AA2A22A2AAA22A2AA4A2AAAAAAA2AA2IA
AAA2AAAAA2AA22AA2AAA24AAA2AAA44AA2A22AIAAA22A2AA4A2AAAAAAA2AA2IA
AAA2AAAAA2AA22AA2AAA24AAA2AAA44AA2A22AIAAA22A2AA4A2AAAAAAA2AA24A
AAA2AAAAA2AA22AA2AAA24AAA2AAA44AA2A22AIAAA22A2AA4A2AAAAAAA2AA2AA
AAA2AAAAAAAA22AA2AAA24AAA2AAA44AA2A22AIAAA22A2AA4A2AAAAAAA2AA2AA
AAA2AAAAAAAA22AA2AAA24AAA2AAA4AAA2A22AIAAA22A2AA4A2AAAAAAA2AA2AA
AAA2AAAAAAAA22AA2AAA24AAA2AAA4AAA2A22A4AAA22A2AA4A2AAAAAAA2AA2AA
AAA2AAAAAAAA22AA2AAA24AAA2AAA4IAA2A22A4AAA22A2AA4A2AAAAAAA2AA2AA
AAA2AAAAAAAA22AA2AAA24AAA2AAA4IAA2A22A4AAA22A2AA2A2AAAAAAA2AA2AA
AAA2AAAAAAAA22AA2AAA24AAA2AAA44AA2A22A4AAA22A2AA2A2AAAAAAA2AA2AA
AAA2AAAAAAAA2AAA2AAA24AAA2AAA44AA2A22A4AAA22A2AA2A2AAAAAAA2AA2AA
AAA2AAAAAAAA2AAA2AAA2AAAA2AAA44AA2A22A4AAA22A2AA2A2AAAAAAA2AA2AA
AAA2AAAAAAAA2AAA2AAA2AAAA2AAA24AA2A22A4AAA22A2AA2A2AAAAAAA2AA2AA
AAA2AAAAAAAA2AAA2AAA2AAAA2AAA24AA2AA2A2AAA22A2AA2A2AAAAAAA2AA2AA
AAA2AAAAAAAA2AAA2AAA2AAAA2AAA24AA2AA2A2AAA22A2AAAA2AAAAAAA2AA2AA
AAA2AAAAAAAA2AAA2AAA2AAAA2AAA24AA2AA2A2AAA22A2AAIA2AAAAAAA2AA2AA
AAA2AAAAAAAA2AAA2AAA2AAAA2IAA24AA2AA2A2AAA22A2AAIA2AAAAAAA2AA2AA
AAA2AAAAAAAA2AAA2AAA2AAAA2IAA24AA2AA2A2AAA22A2AA4A2AAAAAAA2AA2AA
AAA2AAAAAAAA2AAA2AAA2AAAA2IAA24AA2AA2A2AAA22A2AA4A2AAAAAIA2AA2AA
AAA2AAAAAAAA2AAA2AAA2AAAA24AA24AA2AA2A2AAA22A2AA4A2AAAAAIA2AA2AA
AAA2AAAAAAAA2AAA2AAA2AAAA24AA24AA2AA2A2AAA22A2AA4A2AAAAAAA2AA2AA
AAA2AAAAAAAA2AAA2AAA2AAAA22AA24AA2AA2A2AAA22A2AA4A2AAAAAAA2AA2AA
AAA2AAAAAAAA2AAA2AAA2AAAA22AA24AA2AI2A2AAA22A2AA4A2AAAAAAA2AA2AA
AAA2AAAAAAAA2AAA2AAA2AAAA22AA24AA2AA2A2AAA22A2AA4A2AAAAAAA2AA2AA
AAA2AAAAAAAA2AAA2AAA2AAAA22AA24AA2AA2A2AAA22A2AA4A2AAAAAIA2AA2AA
AAA2AAAAAAAA2AAA2AAA2AAAA22AA24AA2AA2A2AAA22A2AA4A2AAAAAAA2AA2AA
AAA2AAAAAAAA2AAA2AAA2AAAA22AA24AA2AA2I2AAA22A2AA4A2AAAAAAA2AA2AA
AAA2AAAAAAAA2AAA2AAA2AAAA22AA24AA2AA2I2AAA22A2AA4A2AAAAAAA2AA2IA
AAA2AAAAAAAA2AAA2AAAAAAAA22AA24AA2AA2I2AAA22A2AA4A2AAAAAAA2AA2IA
AAA2AAAAAAAA2AAA2AAAAAAAA22AA24AA2AA242AAA22A2AA4A2AAAAAAA2AA2IA
AAA2AAAAAAAA2AAA2AAAAAAAA2AAA24AA2AA242AAA22A2AA4A2AAAAAAA2AA2IA
AAA2AAAAAAAA2AAA2AAAAAAAA2AAA22AA2AA242AAA22A2AA4A2AAAAAAA2AA2IA
AAA2AAAAAAAA2AAA2AAAAAAAA2AAA22AA2AA24AAAA22A2AA4A2AAAAAAA2AA2IA
AAA2AAAAAAAA2AAA2AAAAAAAA2AAA22AA2AA24AAAA22A2AA2A2AAAAAAA2AA24A
AAA2AAAAAAAA2AAA2AAAAAAAA2AAA22AA2AA24AAAA22A2AAAA2AAAAAAA2AA24A
AAA2AAAAAAAA2AAA2AAAAAAAA2AAA22AA2AA24AAAA22A2AAAA2AAAAAAA2AA2AA
AAA2AAAAAAAA2AAI2AAAAAAAA2AAA22AA2AA24AAAA22A2AAAA2AAAAAAA2AA2AA
AAA2AAAAAAAA2AAI2AIAAAAAA2AAA22AA2AA24AAAA22A2AAAA2AAAAAAA2AA2AA
AAA2AAAAAAAA2AAI2AIAAAAAA2AAA22AA2AA24AAIA22A2AAAA2AAAAAAA2AA2AA
AAA2AAAAAAAA2AAI2AIAAAAAA2AAA22AA2AA24AA2A22A2AAAA2AAAAAAA2AA2AA
AAA2AAIAAAAA2AAI2AIAAAAAA2AAA22AA2AA24AA2A22A2AAAA2AAAAAAA2AA2AA
AAA2AAIAAAAA2AAI2AIAAAAAA2AAA22AA2AA22AA2A22A2AAAA2AAAAAAA2AA2AA
AAA2AAIAAAAA2AAI2AIAAAAAA2AAA22AA2AA22AA2A22A2AAAA2AAAIAAA2AA2AA
AAA2AAIAAAAA2AAI2AIAAAAAA2AAA22AA2AA2IAA2A22A2AAAA2AAAIAAA2AA2AA
AAA2AAIAAAAA2AAI2AIAAAAAA2AAA22AA2AA2IAI2A22A2AAAA2AAAIAAA2AA2AA
AAA2AAIAAAAA2AAA2A4AAAAAA2AAA22AA2AA2IAI2A22A2AAAA2AAAIAAA2AA2AA
AAA2AAIAAAAA2AAA2AAAAAAAA2AAA22AA2AA2IAI2A22A2AAAA2AAAIAAA2AA2AA
AAA2AAIAAAAA2AAA2AAAAAAAA2AAA22AA2AA22A22A22A2AAAA2AAAIAAA2AA2AA
AAA2AAIAAAAA2AAA2AAAAAAAA2AAA22AA2AA22A22A22A2AAAA2AAAAAAA2AA2AA
AAA2AAIAAAAA2AAI2AAAAAAAA2AAA22AA2AA22A22A22A2AAAA2AAAAAAA2AA2AA
AAA2AAIAAAAA2AAI2AAAAAAAA2AAA22AA2AA22A22A22A2AAAA2AAAAAIA2AA2AA
AAA2AA2AAAAA2AA42AAAAAAAA2AAA22AA2AA22A22A22A2AAAA2AAAAAIA2AA2AA
AAA2AA2AAAAA2AAA2AAAAAAAA2AAA22AA2AA22A22A22A2AAAA2AAAAAIA2AA2AA
AAA2AA2AAAAA2AAA2AAAAAAAA2AAA22AA2AA22A22A22A2AAAA2AAAAAAA2AA2AA
AAA2AA2AAAAA2AAA2AAAAAAAA2AAI22AA2AA22A22A22A2AAAA2AAAAAAA2AA2AA
AAA2AA2AAAAA2AAA2AAAAAAAA2AAI22AA2AI22A22A22A2AAAA2AAAAAAA2AA2AA
AAA2AA2AAAAA2AAA2AAAAAAAA2AA422AA2A422A22A22A2AAAA2AAAAAAA2AA2AA
AAA2AA2AAAAA2AAA2AAAAAAAA2AA222AA2A422A22A22A2AAAA2AAAAAAA2AA2AA
AAA2AA2AAAAA2AAA2AAAAAAAA2AA222AA2AA22A22A22A2AAAA2AAAAAAA2AA2AA
AAA2AA2AAAAA2AAA2AAAAAAAA2IA222AA2AA22A22A22A2AAAA2AAAAAAA2AA2AA
AAA2AA2AAAAA2AAA2AAAAAAAA24A222AA2AA22A22A22A2AAAA2AAAAAAA2AA2AA
AAA2AA2AAAAA2AAA2AAAAAAAA2AA222AA2AA22A22A22A2AAAA2AAAAAAA2AA2AA
AAA2AA2AAAAA2AAA2AAAAAAAA2AAA22AA2AA22A22A22A2AAAA2AAAAAAA2AA2AA
AAA2AA2AAAAA2AAA2AAAAAAAA2AAA2AAA2AA22A22A22A2AAAA2AAAAAAA2AA2AA
AAA2AA2AAAAA2AAA2AAAAAAAA2AAA2AAA2AA22AA2A22A2AAAA2AAAAAAA2AA2AA
AAA2AA2AAAAA2AAA2AAAAAAAA2AAA2AAA2AA22AA2A22A2AAAA2AAAAAAA2AA2IA
AAA2AA2AAAAA2AAA2AAAAAIAA2AAA2AAA2AA22AA2A22A2AAAA2AAAAAAA2AA2IA
AAA2AA2AAAAA2AAA2AAAAAIAA2AAA2AAA2AA22AA2A22A2AAAA2AAAAAAA2AA24A
AAA2AA2AAAAA2AAA2AAAAAIAA2AAA2AAA2AA22AA2A22A2AAAA2AAAAAAA2AA2AA
AAA2AA2AAAAA2AAA2AAAAAIAA2AAA2AAA2AA22AA2A22A2AAAA2AAAAAAA2AAAAA
AAA2AA2AAAAA2AAA2AAAAAIAA2AAA2AAA2AA22AA2A22A2AAAA2AAAAAIA2AAAAA
AAA2AA2AAAAA2AAA2AAAAAIAA2AAA2AAA2AA22AA2A22A2AAAA2AAAAAIA2AAIAA
AAA2AAAAAAAA2AAA2AAAAA4AA2AAA2AAA2AA22AA2A22A2AAAA2AAAAAIA2AAIAA
AAA2AAAAAAAA2AAA2AAAAA2AA2AAA2AAA2AA22AA2A22A2AAAA2AAAAAIA2AAIAA
AAA2AAAAAAAA2AAA2AAAAA2AA2AAA2AAA2AA22AA2A22A2AAAA2AAAAAIA2AA2AA
AAA2AAAAAAAA2AAA2AAAAA2AA2AAA2AAA2AA22AA2A22A2AAAA2AAAAAAA2AA2AA
AAA2AAAAAAAA2AAA2AAAAA2AA2AAA2AAA2AA22AA2A22A2AIAA2AAAAAAA2AA2AA
AAA2AAAAAAAA2AAA2AAAAA2AA2AAA2AAA2AA22AA2A22A2AIAA2AAAAAAA2AAIAA
AAAAAAAAAAAA2AAA2AAAAA2AA2AAA2AAA2AA22AA2A22A2AIAA2AAAAAAA2AAIAA
AAAAAAAAAAAAAAAA2AAAAA2AA2AAA2AAA2AA22AA2A22A2AIAA2AAAAAAA2AAIAA
AAAAAAAAAAAAAAAA2AAAAAAAA2AAA2AAA2AA22AA2A22A2AIAA2AAAAAAA2AAIAA
AAAAAAAAAAAAAAAA2AAAAAAAA2AAA2AAA2AA22AA2A22A2A4AA2AAAAAAA2AAIAA
AAAAAAAAAAAAAAAA2AAAAAAAA2AAA2AAA2AAA2AA2A22A2A4AA2AAAAAAA2AAIAA
AAAAAAAAAAAAAAAA2AAAAAAAA2AAA2AAA2AAA2AA2A2AA2A4AA2AAAAAAA2AAIAA
AAAAAAAAAAAAAAAA2AAAAAAAA2AAA2AAA2AAA2AA2A2AA2A4AA2AAAAAAA2AA4AA
AAAAAAAAAAAAAAAA2AAAAAAAA2AAA2AAA2AAA2AA2A2IA2A4AA2AAAAAAA2AA4AA
AAAAAAAAAAAAAAAA2AAAAAAAA2AAA2AAA2AIA2AA2A2IA2A4AA2AAAAAAA2AA4AA
AAAAAAAAAAAAAAAA2AAAAAAAA2AAA2AAA2A4A2AA2A2IA2A4AA2AAAAAAA2AA4AA
AAAAAAAAAAAAAAAA2AAAAAAAA2AAA2AAA2A2A2AA2A24A2A4AA2AAAAAAA2AA4AA
AAAAAAAAAAAAAAAA2AAAAAAAA2AAA2AAA2A2AAAA2A24A2A4AA2AAAAAAA2AA4AA
AAAAAAAAAAAAAAAA2AAAAAAAA2AAA2AAA2A2AAAA2A24A2A4AA2AAAAAAA2AA2AA
AAAAAAAAAAAAAAIA2AAAAAAAA2AAA2AAA2A2AAAA2A24A2A4AA2AAAAAAA2AA2AA
AAAAAAAAAAAAAA4A2AAAAAAAA2AAA2AAA2A2AAAA2A24A2A4AA2AAAAAAA2AA2AA
AAAAIAAAAAAAAA4A2AAAAAAAA2AAA2AAA2A2AAAA2A24A2A4AA2AAAAAAA2AA2AA
AAAAIAAAAAAAAA4A2AAAAAAAA2AAA2AAA2A2AAAA2A24A2A4AA2AIAAAAA2AA2AA
AAAAIAAAAAAAAA4A2AAAAAAAA2AAA2AAA2AAAAAA2A24A2A4AA2AIAAAAA2AA2AA
AAAAIAAAAAAAAA4A2AAAAAAAA2AAA2AAA2AAAAAA2A22A2A4AA2A4AAAAA2AA2AA
AAAAIAAAAAAAAA4AAAAAAAAAA2AAA2AAA2AAAAAA2A22A2A4AA2A4AAAAA2AA2AA
AAAAIAAAAAAAAA2AAAAAAAAAA2AAA2AAA2AAAAAA2A22A2A4AA2A4AAAAA2AA2AA
AAAAIAAAAAAAAA2AAAAAAAAAA2AAA2AAA2AAAAAA2A22A2A4AA2A2AAAAA2AA2AA
AAAAIAAAAAAAAA2AAAAAAAIAA2AAA2AAA2AAAAAA2A22A2A4AA2A2AAAAA2AA2AA
AAAAIAAAAAAAAAIAAAAAAAIAA2AAA2AAA2AAAAAA2A22A2A4AA2A2AAAAA2AA2AA
AAAA2AAAAAAAAAIAAAAAAAIAA2AAA2AAA2AAAAAA2A22A2A4AA2A2AAAAA2AA2AA
AAAA2AAAAAAAAAIAAAAAAAIAA2AAA2AAA2AAAAAA2A22A2A4AA2A2AAAAA2AA2IA
AAAA2AAAAAAAAA4AAAAAAAIAA2AAA2AAA2AAAAAA2A22A2A4AA2A2AAAAA2AA2IA
AAAA2AAAAAAAAA4AAAAAAAIAA2AAA2AAA2AAAAAA2A22A2AAAA2A2AAAAA2AA24A
AAAA2AAAAAAAAA4AAAAAAAIAA2AAA2AAA2AAAAAA2A22A2AAAA2A2AAAAA2AA2AA
AAAA2AAAAAAAAA4AAAAAAAIAA2AAA2AAA2AAAAAA2A22A2AAAA2A2AAAAA2AA2AI
AAAA2AAAAAAAAA4AAAAAAAIAA2AAA2AAA2AAAAAA2A22A2AAAA2A2AAAAA2AA2A4
AAAA2AAAAAAAAA4AAAAAAA2AA2AAA2AAA2AAAAAA2A22A2AAAA2A2AAAAA2AA2A4
AAAA2AAAAAAAAA4AAAAAAAAAA2AAA2AAA2AAAAAA2A22A2AAAA2A2AAAAA2AA2A4
AAAA2AAAAAAAAA4AAAAAAAAAA2AAA2AAA2AAAAAA2A22A2AAAA2A2AAAAA2AA2A2
AAAA2AAAAAAAAA4AAAAAAAAAA2AAA2AAA2AAAAAA2A22A2AAAA2A2AAAAA2AA2AI
AAAA2AAAAAAAAA4AAAAAAAAAA2AAA2IAA2AAAAAA2A22A2AAAA2A2AAAAA2AA2AI
AAAA2AAAAAAAAA4AAAAAAAAAA2AAA2IAA2AAAAAAAA22A2AAAA2A2AAAAA2AA2AI
AAAA2AAAAAAAAA4AAAAAAAAAA2AAA2IAA2AAAAAAAA22A2AAAA2A2AAAAA2AA2A4
AAAA2AAAAAAAAA4AAAAAAAAAA2AAA2IAA2AAAAAAAA22A2AAAA2A2AAAAA2AA2A2
AAAA2AAAAAAAAA4AAAAAAAAAA2AAA2IAA2AAAAAAAA22A2AAAA2A2AAAAA2AA2I2
AAAA2AAAAAAAAA4AAAAAAAAAA2AAA2IAA2AAAAAAAA22A2IAAA2A2AAAAA2AA2I2
AAAA2AAAAAAAAA4AAAAAAAAAA2AAA2IAA2AAAAAAAA22A2IAAA2A2AAAIA2AA2I2
AAAA2AAAAAAAAA4AAAAAAAAAA2AAA2IAA2AAAAAAAA22A2IAAA2A2AAAAA2AA222
AAAA2AAAAAAAAA4AAAAAAAAAA2AAA2IAA2AAAAAAAA22A2IAAA2A2AAAAA2AA2A2
AAAA2AAAAAAAAA4AAAAAAAAAA2AAA24AA2AAAAAAAA22A2IAAA2A2AAAAA2AA2A2
AAAA2AAAAAAAAA4AAAAAAAAAA2AAA24AA2AAAAAAAA22A2IAAA2A2AAAAI2AA2A2
AAAAAAAAAAAAAA4AAAAAAAAAA2AAA24AA2AAAAAAAA22A2IAAA2A2AAAAI2AA2A2
AAAAAAAAAAAAAA4AAAAAAAAAA2AAA22AA2AAAAAAAA22A2IAAA2A2AAAAI2AA2A2
AAAAAAAAAAAAAA4AAAAAAAAAA2AAA2AAA2AAAAAAAA22A24AAA2A2AAAAI2AA2A2
AAAAAAAAAAAAAA4AAAAAAAAAA2AAI2AAA2AAAAAAAA22A24AAA2A2AAAAI2AA2A2
AAAAAAIAAAAAAA4AAAAAAAAAA2AAI2AAA2AAAAAAAA22A24AAA2A2AAAAI2AA2A2
AAAAAAIAAAAAAA4AAAAAAAAAI2AAI2AAA2AAAAAAAA22A24AAA2A2AAAAI2AA2A2
AAAAAAIAAAAAAA4AAAAAAAAAI2AAI2AAA2AAAAAIAA22A24AAA2A2AAAAI2AA2A2
AAAAAAIAAAAAAA4AAAAAAAAAI2AA42AAA2AAAAAIAA22A24AAA2A2AAAAI2AA2A2
AAAAAAIAAAAAAA4AAAAAAAAAI2AA42AAA2AAAAA4AA22A24AAA2A2AAAAI2AA2A2
AAAAAAIAAAAAAA4AAAAAAAAAI2AA42AAA2AAAAAAAA22A24AAA2A2AAAAI2AA2A2
AAAAAAIAAAAAAA4AAAAAAAAAI2AA42AAA2AAAAAAAA22A24AAA2A2AAAA42AA2A2
AAAAAAIAAAAAAA4AAAAAAAAAI2AA42AAA2AAAAAAAA22A24AAA2A2AAAA22AA2A2
AAAAAAIAAAAAAA4AAAAAAAIAI2AA42AAA2AAAAAAAA22A24AAA2A2AAAA22AA2A2
AAAAAAIAAAAAAA4AAAAAAAIAI2AA42AIA2AAAAAAAA22A24AAA2A2AAAA22AA2A2
AAAAAA2AAAAAAA4AAAAAAAIAI2AA42AIA2AAAAAAAA22A24AAA2A2AAAA22AA2A2
AAAAAA2AAAAAAA2AAAAAAAIA42AA42AIA2AAAAAAAA22A24AAA2A2AAAA22AA2A2
AAAAAA2AAAAAAA2AAAAAAAIA42AA42A2A2AAAAAAAA22A24AAA2A2AAAA22AA2A2
AAAAIA2AAAAAAA2AAAAAAAIA42AA42A2A2AAAAAAAA22A24AAA2A2AAAA22AA2A2
AAAA2A2AAAAAAA2AAAAAAAIA42AA42A2A2AAAAAAAA22A24AAA2A2AAAA22AA2A2
AAAAAA2AAAAAAA2AAAAAAAIA42AA42A2A2AAAAAAAA22A24AAA2A2AAAA22AA2A2
AAAAAA2AAAAAAA2AAAAAAAIAA2AA22A2A2AAAAAAAA22A24AAA2A2AAAA22AA2A2
AAAAAA2AAAAAAA2AAAAAAAIAA2AA22A2A2AAAAAAAA22A24AAA2A2AAAI22AA2A2
AAAAAA2AAAAAAA2AAAAAAAIAA2AA22A2A2AAAAAAAA22A24AAA2A2AAA422AA2A2
AAAAAA2AAAAAAA2AAAAAAAIAA2AA22A2A2AAAAAAAA22A24AAA2A2AAAA22AA2A2
AAAAAA2AAAAAAA2AAAAAAAIAA2AA22A2A2AAAAAAAA22A24AAA2A2AAAA22AA2AA
AAAAAI2AAAAAAA2AAAAAAAIAA2AA22A2A2AAAAAAAA22A24AAA2A2AAAA22AA2AA
AAAAA42AAAAAAA2AAAAAAAIAA2AA22A2A2AAAAAAAA22A24AAA2A2AAAA22AA2AA
AAAAA42AAAAAAA2AAAAAAAIAA2AA22A2A2AAAAAAAA22A24AAA2A2AAAA22AA2IA
AAAAA42AAAAAAA2AAAAAAAIAA2AA22A2A2AAAAAAAA22A24AIA2A2AAAA22AA2IA
AAAAA4AAAAAAAA2AAAAAAA4AA2AA22A2A2AAAAAAAA22A24AIA2A2AAAA22AA2IA
AAAAA4AAAAAAAA2AAAAAAA4AA2AA22A2A2AAAAAAAA22A24AIA2A2AAAA22AA24A
AAAAA4AAAAAAAA2AAAAAAA4AA2AA22A2A2AAAAAAAA22A24AIA2A2AAAA22AA2AA
AAAAA4AAAAAAAA2AAAAAAA2AA2AA22A2A2AAAAAAAA22A24AIA2A2AAAA22AA2AA
AAAAA4AAAAAAAA2AAAAAAA2AA2AA22A2A2AAAAAIAA22A24AIA2A2AAAA22AA2AA
AAAAA4AAAAAAAA2AAAAAAA2AA2AA22A2A2AAAAA2AA22A24A4A2A2AAAA22AA2AA
AAAAA4AAAAAAAA2AAAAAAA2AA2AA22A2A2AAAAA2AA22A24A4A2A2AAAI22AA2AA
AAAAA4AAAAAAAA2AAAAAAA2AA2AA22A2A2AAAAA2AA22A24A4A2A2AAAA22AA2AA
AAAAA4AAAAAAAA2AAAAAAAAAA2AA22A2A2AAAAA2AA22A24A4A2A2AAAA22AA2AA
AAAAA4AAAAAAAA2AAAAAAAAAA2AA22A2A2AAAAA2AA22A24A4A2A2AAAI22AA2AA
AAAAA4AAAAAAAA2AAAAAAAAAA2AA22A2A2AAAAAAAA22A24A4A2A2AAA422AA2AA
AAAAA4AAAAAAAA2AAAAAAAAAA2AA22A2A2AAAAAAAA22A24A4A2A2AAAA22AA2AA
AAAAA4AAAAAAAA2AAAAAAAAAA2AA22A2A2AAAAAIAA22A24A4A2A2AAAA22AA2AA
AAAAA4AIAAAAAA2AAAAAAAAAA2AA22A2A2AAAAAIAA22A24A4A2A2AAAA22AA2AA
AAAAA2A2AAAAAA2AAAAAAAAAA2AA22A2A2AAAAAIAA22A24A4A2A2AAAA22AA2AA
AAAAA2A2AAAAAA2AAAAAAAAAA2AA22A2A2AAAAA2AA22A24A4A2A2AAAA22AA2AA
AAAAA2A2AAAAAA2AAAAAAAAAA2AA22A2A2AAAAA2AA22A24A2A2A2AAAA22AA2AA
AAAAA2AIAAAAAA2AAAAAAAAAA2AA22A2A2AAAAA2AA22A24A2A2A2AAAA22AA2AA
AAAAA2AIAAAAAA2AAAAAAAAAA2AA22A2A2AAAAA2AA22A24A2A2A2AAAA22AA2IA
AAAAA2AIAAAAAA2AAAAAAAAAA2AA22A2A2AAAAA2AA22A24A2A2A2AAAA22AA22A
AAAAA2AIAAAAAA2AAAAAAAAAA2AA22A2A2AAAAA2AA22A24I2A2A2AAAA22AA22A
AAAAA2A2AAAAAA2AAAAAAAAAA2AA22A2A2AAAAA2AA22A24I2A2A2AAAA22AA22A
AAAAA2A2AAAAAA2AAAAAAAAAA2AA22A2A2AAAAA2AA22A2442A2A2AAAA22AA22A
AAAAA2A2AAAAAA2AAAAAAAAAA2AA22A2A2AAAAA2AA22A2442A2A2AAAAA2AA22A
AAAAA2A2AAAAAA2AAAAAAAAAA2AA22A2A2AAAAA2AA22A2442A2A2AAAAA2AA2AA
AAAAA2A2AAAAAA2AAAAAAAAAA2AA22A2A2AAAAAAAA22A2222A2A2AAAAA2AA2AA
AAAAA2A2AAAAAA2AAAAAAAAAA2AA22A2A2AAAAAAAA22AA222A2A2AAAAA2AA2AA
AAAAA2A2AAAAAA2AAAAAAAAAA2AA22A2A2AAAAAAAA22AA22AA2A2AAAAA2AA2AA
AAAAA2A2AAAAAA2AAAAAAAAAA2AA22A2A2IAAAAAAA22AA22AA2A2AAAAA2AA2AA
AAAAA2A2AAAAAA2AAAAAAAAAA2AA22A2A2IAAAAAAA22AA22AA2A2AAAIA2AA2AA
AAAAA2A2AAAAAA2AAAAAAAAAA2AA22A2A2IAAAAAAA22AAA2AA2A2AAAIA2AA2AA
AAAAA2A2AAAAAA2AAAAAAAAAA2AA22A2A2IAAAAAAA22AAA2AA2A2AAAIA2AAAAA
AAAAA2A2AAAAAA2AAAAAAAAAA2AA22A2A2IAAAAAAA22AAA2AA2A2AAA2A2AAAAA
AAAAA2A2AAAAAA2AAAAAAAAAA2AA22A2A24AAAAAAA22AAA2AA2A2AAA2A2AAAAA
AAAAA2A2AAAAAA2AAAAAAAAAA2AA22A2A24AAAAAAA22AAA2AA2A2AAAAA2AAAAA
AAAAA2A2AAAAAA2AAAAAAAAAA2AA22A2A24AAAAAAA22AAA2AA2A2AAAIA2AAAAA
AAAAA2A2AAAAAA2AAAAAAAAAA2AA22A2A22AAAAAAA22AAA2AA2A2AAAIA2AAAAA
AAAAA2A2AAAAAA2AAAAAAAAAA2AA22A2A22AAAAAAA22AAA2AA2A2AAA2A2AAAAA
AAAAA2A2AAAAAA2AAAAAAAAAA2AAA2A2A22AAAAAAA22AAA2AA2A2AAA2A2AAAAA
AAAAA2A2AAAAAA2AAAAAAAAAA2AAI2A2A22AAAAAAA22AAA2AA2A2AAA2A2AAAAA
AAAAA2A2AAAAAA2AAAAAAAAAA2AAI2A2A2IAAAAAAA22AAA2AA2A2AAA2A2AAAAA
AAAAA2A2AAAAAA2AAAAAAAAAA2AAI2A2A2IAAAAAAA22AAA2AA2A2AAAAA2AAAAA
AAAAA2A2AAAAAA2AAAAAAAAAA2AAI2A2A2IAAAAAAA22AAA2AA2A2AIAAA2AAAAA
AAAAA2A2AAAAAA2AAAAAAAAAA2AA22A2A24AAAAAAA22AAA2AA2A2AIAAA2AAAAA
AAAAA2A2AAAAAA2AAAAAAAAAA2AA22A2A24AAAAAAA22AAA2AA2A2A2AAA2AAAAA
AAAAA2A2AAAAAA2AAAAAAAAAA2AA22A2A24AAIAAAA22AAA2AA2A2A2AAA2AAAAA
AAAAA2A2AAAAAA2AAAAAAAIAA2AA22A2A24AAIAAAA22AAA2AA2A2A2AAA2AAAAA
AAAAA2A2AAAAAA2AAAAAAA4AA2AA22A2A24AAIAAAA22AAA2AA2A2A2AAA2AAAAA
AAAAA2A2AAAAAA2AAAAAAA4AA2AA22A2A24AAAAAAA22AAA2AA2A2A2AAA2AAAAA
AAAAA2A2AAAAAA2AAAAAAA4AA2AA22A2A24AAAAAAA22AAAAAA2A2A2AAA2AAAAA
AAAAA2A2AAAAAA2AAAAAAA4AA2AA22A2A24AAAAAAA22AAAAIA2A2A2AAA2AAAAA
AAAAA2A2AAAAAA2AAAAAAA4AA2AA22A2A24AAAAAAA22AAAA4A2A2A2AAA2AAAAA
AAAAA2A2AAAAAA2AAAAAAA4AA2AA22A2A24AAAAAAA22IAAA4A2A2A2AAA2AAAAA
AAAAA2A2AAAAAA2AAAAAAA2AA2AA22A2A24AAAAAAA22IAAA4A2A2A2AAA2AAAAA
AAAAA2A2AAAAAA2AAAAAAA2AA2AA22A2A22AAAAAAA224AAA4A2A2A2AAA2AAAAA
AAAAA2A2AAAAAA2AAAIAAA2AA2AA22A2A22AAAAAAA224AAA4A2A2A2AAA2AAAAA
AAAAA2A2AAAAAA2AAAIAAAIAA2AA22A2A22AAAAAAA224AAA4A2A2A2AAA2AAAAA
AAAAA2A2AAAAAA2AAAIAAAIAI2AA22A2A22AAAAAAA224AAA4A2A2A2AAA2AAAAA
AAAAA2A2AAAAAA2AAAIAAAIAI2AA22A2A22AIAAAAA224AAA4A2A2A2AAA2AAAAA
AAAAA2A2AAAAAA2AAAIAAAIAA2AA22A2A22A4AAAAA224AAA4A2A2A2AAA2AAAAA
AAAAA2A2AAAAAAAAAAIAAA4AA2AA22A2A22A4AAAAA224AAA4A2A2A2AAA2AAAAA
AAAAA2A2AAAAAAAAAAIAAA2AA2AA22A2A22A4AAAAA224AAA4A2A2A2AAA2AAAAA
AAAAA2A2AAAAAAAAAAIAAAIAA2AA22A2A22A4AAAAA224AAA4A2A2A2AAA2AAAAA
AAAAA2A2AAAAAAAAAAIAAA4AA2AA22A2A22A4AAAAA224AAA4A2A2A2AAA2AAAAA
AAAAA2A2AAAAAAAAAA4AAA4AA2AA22A2A22A4AAAAA224AAA4A2A2A2AAA2AAAAA
AAAAA2A2AAAAAAAAAA4AAA4AA2AA22A2A22A4AAAAA224AAA2A2A2A2AAA2AAAAA
AAAAA2A2AAAAAAAAAA4AAA4AA2AA22A2A22A4AAAAA224AAA2A2A2AAAAA2AAAAA
AAAAA2A2AAAAAAAAAAAAAA4AA2AA22A2A22A4AAAAA224AAA2A2A2AAAAA2AAAAA
AAAAA2A2AAAAAAAAAAAAAAAAA2AA22A2A22A4AAAAA224AAA2A2A2AAAAA2AAAAA
AAAAA2A2AAAAAAAAAAAAAAAAA2AA22A2A22A4AAAAA224AAAAA2A2AAAAA2AAAAA
AAAAA2A2AAAAAAAAAAAAAAAAA2AA22A2A22A4AAAAA224AAAAA2A2AAAAA2AAIAA
AAAAA2A2AAAAAAAAAAAAAAAAA2AAA2A2A22A2AAAAA224AAAAA2A2AAAAA2AAIAA
AAAAA2A2AAAAAAAAAAAAAAAAA2AAA2A2A22A2AAAAA222AAAAA2A2AAAAA2AAIAA
AAAAA2A2AAAAAAAAAAAAAAIAA2AAA2A2A22A2AAAAA222AAAAA2A2AAAAA2AAIAA
AAAAA2A2AAAAAAAAAAAAAAIAA2AAA2A2A22A2AAAIA222AAAAA2A2AAAAA2AAIAA
AAAAA2A2AAAAAAAAAAAAAAIAA2AAA2A2A2AA2AAAIA222AAAAA2A2AAAAA2AAIAA
AAAAA2A2AAAAAAAAAAAAAAIAA2AAA2A2A2AA2AAAIA222AAAAA2A2AAAAA2AA2AA
AAAAA2A2AAAAAAAAAAAAAAIAA2AAA2A2A2AA2AAAIA22IAAAAA2A2AAAAA2AA2AA
AAAAA2A2AAAAAAAAAAAAAAIAA2AAI2A2A2AA2AAAIA22IAAAAA2A2AAAAA2AA2AA
AAAAA2A2AAAAAAAAAAAAAAIAA2AAI2A2A2AA2AAAIA22IAAAAA2A2AAAAA2AAIAA
AAAAAAA2AAAAAAAAAAAAAAIAA2AAI2A2A2AA2AAAIA22IAAAAA2A2AAAAA2AAIAA
AAAAAAA2AAAAAAAAAAAAAA2AA2AA42A2A2AA2AAAIA22IAAAAA2A2AAAAA2AAIAA
AAAAAAA2AAAAAAAAAAAAAA2AA2AA42A2A2AA2AAA4A224AAAAA2A2AAAAA2AAIAA
AAAAAAA2AAAAAAAAAAAAAA2AA2AA42A2A2AA2AAA2A222AAAAA2A2AAAAA2AAIAA
AAAAAAA2AAAAAAAAAAAAAA2AA2AA42A2A2AA2AAA2A222AAAAA2A2AAAAA2AA2AA
AAAAAAA2AAAAAAAAAAAAAA2AA2AA42A2A2AA2AAA2A222AAAAA2A2AAAAA2AAIAA
AAAAAAA2AAAAAAAAAAAAAA2AA2AA42A2A2AA2AAA2A222AAAAA2A2AIAAA2AAIAA
AAAAAAA2AAAAAAAAAAAAAA2AA2AA42I2A2AA2AAA2A222AAAAA2A2AIAAA2AAIAA
AAAAAAA2AAAAAAAAAAAAAA2AA2AA4242A2AA2AAA2A222AAAAA2A2AIAAA2AAIAA
AAAAAAA2AAAAAAAAAAAAAA2AA2AA4242A2AA2AAA2A222AAAAA2A2AAAAA2AA4AA
AAAAAAA2AAAAAAAAAAAAAA2AA2AA4A22A2AA2AAA2A222AAAAA2A2AAAAA2AA4AA
AAAAAAA2AAAAAAAAAAAAAAAAA2AA4A22A2AA2AAA2A222AAAAA2A2AAAAA2AA4AA
AAAAAAA2AAAAAAAAAAAAAAAAA2AA2A22A2AA2AAA2A222AAAAA2A2AAAAA2AA4AA
AAAAAAA2AAAAAAAAAAAAAAAAA2AA2A22A2AA2AAAAA222AAAAA2A2AAAAA2AA4AA
AAAAAAA2AAAAAAAAAAAAAAAAA2AA2A22A2AA2AAAAA22AAAAAA2A2AAAAA2AA4AA
AAAAAAA2AAAAAAAAAAAAAAAAA2AA2A22A2AA2AAAAA22AAAAAA2A2AAAAA2AA2AA
AAAAAAA2AAAAAAAAAAAAAAAAA2AA2I22A2AA2AAAAA22AAAAAA2A2AAAAA2AA2AA
AAAAAAA2AAAAAAAAAAAAAAAAA2AA2IA2A2AA2AAAAA22AAAAAA2A2AAAAA2AA2AA
AAAAAAA2AAAAAAAAAAAAAAAAA2AA2IA2A2AI2AAAAA22AAAAAA2A2AAAAA2AA2AA
AAAAAAA2AAAAAAAAAAAAAAAAA2AA2IA2A2A42AAAAA22AAAAAA2A2AAAAA2AA2AA
AAAAAAA2AAAAAAAAAAAAAAAAA2AA22A2A2A42AAAAA22AAAAAA2A2AAAAA2AA2AA
AAAAAAA2AAAAAAAAAAAAAAAAA2AA22A2A2A22AAAAA22AAAAAA2A2AAAAA2AA2AA
AAAAAAA2AAAAAAAAAAAAAAAAA2AA22A2A2AA2AAAAA22AAAAAA2A2AAAAA2AA2AA
AAAAAAA2AAAAAAAAAAAAAAAAA2AA22A2A2AA2AAIAA22AAAAAA2A2AAAAA2AA2AA
AAAAAAA2AAAAAAAAAAAAAAAAA2AA22A2A2AA2AA2AA22AAAAAA2A2AAAAA2AA2AA
AAAAAAA2AAIAAAAAAAAAAAAAA2AA22A2A2AA2AA2AA22AAAAAA2A2AAAAA2AA2AA
AAAAAAA2AAIAAAAAAAAAAAAAA2AA22A2A2AA2AA2AA22AAAAAA2A2AAAIA2AA2AA
AAAAAAA2AA2AAAAAAAAAAAAAA2AA22A2A2AA2AA2AA22AAAAAA2A2AAAIA2AA2AA
AAAAAAA2AA2AAAAAAAAAAAAAA2AA22A2A2AA2AAAAA22AAAAAA2A2AAAIA2AA2AA
AAAAAAA2AA2AAAAAAAAAAAAAA2AA22A2A2AA2AAAAA22AAAAAA2A2AAAAA2AA2AA
AAAAAAA2AA2AAAAAAAAAAAAAA2AA22A2A2AA2AAIAA22AAAAAA2A2AAAAA2AA2AA
AAAAAAA2AA2AAAAAAAAAAAAAA2AA22A2A2AA2AAIAA22AAAAAA2A2AAAAA2AA2IA
AAAAAAA2AA2AAAAAAAAAAAAAA2AA22A2A2AA2AAIAA22AAAAAA2A2AAAAA2AA22A
AAAAAAA2AA2AAAAAAAAAAAAAA2AA22A2A2AA2AAIAA22AAAAAA2A2AAAAA2AA2AA
AAAAAAA2AA2AAAAAAAAAAAAAA2IA22A2A2AA2AAIAA22AAAAAA2A2AAAAA2AA2AA
AAAAAAA2AA2AAAAAAAAAAAAAA2AA22A2A2AA2AAIAA22AAAAAA2A2AAAAA2AA2AA
AAAAAAA2AA2AAAAAAAAAAAAAA2AA22A2A2AA2AAAAA22AAAAAA2A2AAAAA2AA2AA
AAAAAAA2AA2AAAAAAAAAAAAAA2IA22A2A2AA2AAAAA22AAAAAA2A2AAAAA2AA2AA
AAAAAAA2AA2AAAAAAAAAAAAAAAIA22A2A2AA2AAAAA22AAAAAA2A2AAAAA2AA2AA
AAAAAAA2AA2AAAAAAAAAAAAAAA4A22A2A2AA2AAAAA22AAAAAA2A2AAAAA2AA2AA
AAAAAAA2AA2AAAAAAAAAAAAAAI4A22A2A2AA2AAAAA22AAAAAA2A2AAAAA2AA2AA
AAAAAAA2AA2AAAAIAAAAAAAAAI4A22A2A2AA2AAAAA22AAAAAA2A2AAAAA2AA2AA
AAAAAAA2AA2AAAAIAAAAAAAAA24A22A2A2AA2AAAAA22AAAAAA2A2AAAAA2AA2AA
AAAAAAA2AA2AAAA4AAAAAAAAA24A22A2A2AA2AAAAA22AAAAAA2A2AAAAA2AA2AA
AAAAAAA2AA2AAAA2AAAAAAAAA24A22A2A2AA2AAAAA22AAAAAA2A2AAAAA2AA2AA
AAAAAAA2AA2AAAA2AAAAAAAAA24A22A2A2AA2AAAAA22AAAAAA2A2AAAAA2AA2IA
AAAAAAA2AA2AAAA2AAAAAAAAA24A22A2A2AA2AAAAA22AAAAAA2A2AAAAA2AA22A
AAAAAAA2AA2AAAA2AAAAAAAAA24A22A2A2AA2AAAAA22AAAAAA2A2AAAAA2AA2AA
AAAAAAA2AA2AAAA2AAIAAAAAA24A22A2A2AA2AAAAA22AAAAAA2A2AAAAA2AA2AA
AAAAAAA2AA2AAAA2AA4AAAAAA24A22A2A2AA2AAAAA22AAAAAA2A2AAAAA2AA2AA
AAAAIAA2AA2AAAA2AA4AAAAAA24A22A2A2AA2AAAAA22AAAAAA2A2AAAAA2AA2AA
AAAAIAA2AA2AAAAAAA2AAAAAA24A22A2A2AA2AAAAA22AAAAAA2A2AAAAA2AA2AA
AAAAAAA2AA2AAAAAAA2AAAAAA24A22A2A2AA2AAAAA22AAAAAA2A2AAAAA2AA2AA
AAAAIAA2AA2AAAAAAA2AAAAAA24A22A2A2AA2AAAAA22AAAAAA2A2AAAAA2AA2AA
AAAAIAA2AA2AAAAAAAAAAAAAA24A22A2A2AA2AAAAA22AAAAAA2A2AAAAA2AA2AA
AAAAIAA2AA2AAAAAAAAAAAAAA24A2AA2A2AA2AAAAA22AAAAAA2A2AAAAA2AA2AA
AAAAIAA2AA2AAAAAAAIAAAAAA24A2AA2A2AA2AAAAA22AAAAAA2A2AAAAA2AA2AA
AAAAIAA2AA2AAAAAAAIAAAAAA24A2AA2A2AA2AAIAA22AAAAAA2A2AAAAA2AA2AA
AAAAIAA2AA2AAAAAAAIAAAAAA24A2AA2A2AA2AA2AA22AAAAAA2A2AAAAA2AA2AA
AAAAAAA2AA2AAAAAAA4AAAAAA24A2AA2A2AA2AA2AA22AAAAAA2A2AAAAA2AA2AA
AAAAAAA2AAAAAAAAAA4AAAAAA24A2AA2A2AA2AA2AA22AAAAAA2A2AAAAA2AA2AA
AAAAAAA2AAAAAAAAAA4AAAAAA2AA2AA2A2AA2AA2AA22AAAAAA2A2AAAAA2AA2AA
AAAAAAA2AAAAAAAAAA4AAAAAA2AA2AA2A2AAAAA2AA22AAAAAA2A2AAAAA2AA2AA
AAAAAAA2AAAAAAAAAA4AAAAAA2AA2AA2A2AAAAA2AA2AAAAAAA2A2AAAAA2AA2AA
AAAAAAA2AAAAAAAAAAAAAAAAA2AA2AA2A2AAAAA2AA2AAAAAAA2A2AAAAA2AA2AA
AAAAAAA2AAAAAAAAAAAAAAAAA2AA2AA2A2AAAAA2AA2AAIAAAA2A2AAAAA2AA2AA
AAAAAAA2AAAAAAAAAAAAAAAAA2AA2AA2A2AAAAA2AA2AAIAAAA2A2AAAAA2AA2IA
AAAAAAA2AAAAAAAAAAAAAAAAA2AA2AA2A2AAAAA2AA2AAIAAAA2A2AAAAA2AA22A
AAAAAAA2AAAAAAAAAAAAAAAAA2AA2AA2A2AAAAA2AA2AAIAAAA2A2AAAAA2AA2AA
AAAAAAA2AAAAAAAAAAAAAIAAA2AA2AA2A2AAAAA2AA2AAIAAAA2A2AAAAA2AA2AA
AAAAAAA2AAAAAAAAAAAAAIAAA2AA2AA2A2AAAAA2AA2AA2AAAA2A2AAAAA2AA2AA
AAAAAAA2AAAAAAAAAAAAA2AAA2AA2AA2A2AAAAA2AA2AA2AAAA2A2AAAAA2AA2AA
AAAAAAA2AAAAAAAAAAAAA2AAA2AA2AA2A2AAAAA2AA2AA2AAAA2A2AAAAA2AA2AI
AAAAAAA2AAAAAAAAAAAAA2AAA2AA2AA2A2AAAAAAAA2AA2AAAA2A2AAAAA2AA2AI
AAAAAAA2AAAAAAAAAAAAA2AAA2AA2AA2A2AAAAAAAA2AA2AAAA2A2AAAAA2AA2A4
AAAAAAA2AAAAAAAAAAAAA2AAA2AA2AA2A2AAAAAAAA2AA2AAAA2A2AAAAA2AA2A2
AAAAAAA2AAAAAAAAAAAAA2AAA2AA2AA2A2AIAAAAAA2AA2AAAA2A2AAAAA2AA2A2
AAAAAAA2AAAAAAAAAAAAA2AAA2AA2AA2A2AAAAAAAA2AA2AAAA2A2AAAAA2AA2A2
AAAAAAA2AAAAAAAAAAIAA2AAA2AA2AA2A2AAAAAAAA2AA2AAAA2A2AAAAA2AA2A2
AAAAAAA2AAAAAAAAAAIAA2AAA2AA2AA2A2AAAAAAAA2AA2AAAA2I2AAAAA2AA2A2
AAAAAAA2AAAAAAAAAA4AA2AAA2AA2AA2A2AAAAAAAA2AA2AAAA2I2AAAAA2AA2A2
AAAAAAA2AAAAAAAAAA2AA2AAA2AA2AA2A2AAAAAAAA2AA2AAAA2I2AAAAA2AA2A2
AAAAAAA2AAAAAAAAAAIAA2AAA2AA2AA2A2AAAAAAAA2AA2AAAA2I2AAAAA2AA2A2
AAAAAAA2AAAAAAAAAA2AA2AAA2AA2AA2A2AAAAAAAA2AA2AAAA2I2AAAAA2AA2A2
AAAAAAA2AAAAAAAAAA2AA2AAA2AA2AA2A2AAAAAAAA2AA2AAAA242AAAAA2AA2A2
AAAAAAA2AAAAAAAAIA2AA2AAA2AA2AA2A2AAAAAAAA2AA2AAAA242AAAAA2AA2A2
AAAAAAA2AAAAAAAAIA2AA2AAI2AA2AA2A2AAAAAAAA2AA2AAAA242AAAAA2AA2A2
AAAAAAA2AAAAAAAAIA2AA2AAI2AA2AI2A2AAAAAAAA2AA2AAAA242AAAAA2AA2A2
AAAAAAA2AAAAAAIAIA2AA2AAI2AA2AI2A2AAAAAAAA2AA2AAAA242AAAAA2AA2A2
AAAAAAA2AAAAAAIAIA2AA2AAI2AA2AA2A2AAAAAAAA2AA2AAAA242AAAAA2AA2A2
AAAAAAA2AAAAAAIAIA2AA2AAI2AA2AA2A2AAAAAAAA2AA2AAAA242AAAIA2AA2A2
AAAAAAA2AAAAAA4A4A2AA2AAI2AA2AA2A2AAAAAAAA2AA2AAAA242AAAIA2AA2A2
AAAAAAA2AAAAAA4A4A2AA2AA42AA2AA2A2AAAAAAAA2AA2AAAA242AAAIA2AA2A2
AAAAAAA2AAAAAA4A4A2AAAAA42AA2AA2A2AAAAAAAA2AA2AAAA242AAAIA2AA2A2
AAAAAAA2AAAAAA4A4A2AAAAA4AAA2AA2A2AAAAAAAA2AA2AAAA242AAAIA2AA2A2
AAAAAAA2AAAAAA4A4A2AAAAA4AAA2AA2A2AAAAAAAA2AA2AAAA242AAA2A2AA2A2
AAAAAAA2AAAAAA4A4A2AAAAA4AAA2AA2A2AAAAAAAA2AA2AAAA242AAAAA2AA2A2
AAAAAAA2AAAAAA4A4A2AAAAA4AAA2AA2A2AIAAAAAA2AA2AAAA242AAAAA2AA2A2
AAAAAAA2AAAAAA4A4A2AAAAA4AAA2AA2A2AAAAAAAA2AA2AAAA242AAAAA2AA2A2
AAAAIAA2AAAAAA4A4A2AAAAA4AAA2AA2A2AAAAAAAA2AA2AAAA242AAAAA2AA2A2
AAAAIAA2AAAAAA4A4A2AAAAA4AAA2AA2A2AAAAAAAA2AA2AAAA242AAAAA2AA2AA
AAAAIAA2AAAAAAAA2A2AAAAA4AAA2AA2A2AAAAAAAA2AA2AAAA242AAAAA2AA2AA
AAAA2AA2AAAAAAAA2A2AAAAA4AAA2AA2A2AAAAAAAA2AA2AAAA242AAAAA2AA2AA
AAAAAAA2AAAAAAAA2A2AAAAA4AAA2AA2A2AAAAAAAA2AA2AAAA242AAAAA2AA2AA
AAAAAAA2AAAAAAAA2A2AAAAA4AAA2AAAA2AAAAAAAA2AA2AAAA242AAAAA2AA2AA
AAAAAAA2AAAAAAAA2A2AAAAA4AAA2AAAA2AAAAAAAA2AA2AAAA242AAAAI2AA2AA
AAAAAAA2AAAAAAAA2A2AAAAA2AAA2AAAA2AAAAAAAA2AA2AAAA242AAAAI2AA2AA
AAAAAAA2AAAAAAAA2A2AAAAA2AAA2AAAA2AAAAAAAA2AA2AAAA242AAAA22AA2AA
AAAAAAA2AAAAAAAA2A2AAAAAIAAA2AAAA2AAAAAAAA2AA2AAAA242AAAA22AA2AA
AAAAAAA2AAAAAAAA2A2AAAAAIAAA2AAAA2AAAAAAAA2AA2AAAA242AAAA22AA2IA
AAAAAAA2AAAAAAAA2A2AAAAAIAAA2AAAA2AAAAAAAA2AA2AAAA242AAAI22AA2IA
AAAAAAA2AAAAAAAA2A2AAAAAIAAA2AAAA2AAAAAAAA2AA2AAAA242AAAA22AA2IA
AAAAAAA2AAAAAAAA2AAAAAAAIAAA2AAAA2AAAAAAAA2AA2AAAA242AAAA22AA2IA
AAAAAAA2AAAAAAAA2AAAAAAA2AAA2AAAA2AAAAAAAA2AA2AAAA242AAAA22AA2IA
AAAAAAA2AAAAAAAA2AAAAAAA2AAA2AAAA2AAAAAAAA2AA2AAAA242AAAA22AA2AA
AAAAAAA2AAAAAAAA2AAAAAAAIAAA2AAAA2AAAAAAAA2AA2AAAA242AAAA22AA2AA
AAAAAAA2AAAAAAAA2AAAAAAA4AAA2AAAA2AAAAAAAA2AA2AAAA242AAAA22AA2AA
AAAAAAA2AAAAAAAA2AAAAAAA4AAA2AAAA2AAAAAAAA2AA2AAAA2A2AAAA22AA2AA
AAAAAAA2AAAAAAAA2AAAAAAA4AAA2AAAA2AAAAAIAA2AA2AAAA2A2AAAA22AA2AA
AAAAAAA2AAAAAAAA2AAIAAAA4AAA2AAAA2AAAAAIAA2AA2AAAA2A2AAAA22AA2AA
AAAAAAA2AAAAAAAA2AAIAAAA4AAA2AAAA2IAAAAIAA2AA2AAAA2A2AAAA22AA2AA
AAAAAAA2AAAAAAAA2AAIAAAA4AAA2AAAA2IAAAA2AA2AA2AAAA2A2AAAA22AA2AA
AAAAAAA2AAAAAAAA2AAIAAAA4AAA2AAAA2IAAAA2AI2AA2AAAA2A2AAAA22AA2AA
AAAAAAA2AAAAAAAA2AA4AAAA4AAA2AAAA2IAAAA2AI2AA2AAAA2A2AAAA22AA2AA
AAAAAAA2AAAAAAAA2AA4AAAA4AAA2AAAA24AAAA2A42AA2AAAA2A2AAAA22AA2AA
AAAAAAA2AAAAAAAA2AA4AAAA4AAA2AAAA24AAAA2A42AA2AAAA2I2AAAA22AA2AA
AAAAAAA2AAAAAAAA2AA4AAAA4AAA2AAAA2AAAAA2A42AA2AAAA2I2AAAA22AA2AA
AAAAAAA2AAAAAAAA2AA4AAAA4AAA2AAAA2AAAAA2A42AA2AAAA222AAAA22AA2AA
AAAAAAA2AAAAAAAA2AA4AAAA4AAA2AAAA2IAAAA2A42AA2AAAA222AAAA22AA2AA
AAAAAAA2AAAAAAAA2AA4AAAA2AAA2AAAA2IAAAA2A42AA2AAAA222AAAA22AA2AA
AAAAAAA2AAAAAAAA2AA4AAAAAAAA2AAAA24AAAA2A42AA2AAAA222AAAA22AA2AA
AAAAAAA2AAAAAAAA2AA4AAAAAAAA2AAAA24AAAA2A42AA2AAAA2A2AAAA22AA2AA
AAAAAAA2AAAAAAAA2AA4AAAAAAAA2AAAA24AAAA2A42AA2AAAA2A2AAAI22AA2AA
AAAAAAAAAAAAAAAA2AA4AAAAAAAA2AAAA24AAAA2A42AA2AAAA2A2AAAI22AA2AA
AAAAAAAAAAAAAAAA2AA4AAAAAAAA2AAAA24AAAA2A42AA2AAAA2A2AAAA22AA2AA
AAAAAAAAAAAAAAAA2AAAAAAAAAAA2AAAA24AAAA2A42AA2AAAA2A2AAAA22AA2AA
AAAAAAAAAAAAAAAA2AAAAAAAAAAA2AAAA24AAAA2A42AA2AAAA2A2AAAI22AA2AA
AAAAAAAAAAAAAAAA2AAAAAAAAAAA2AAAA24AAAAAA42AA2AAAA2A2AAA422AA2AA
AAAAAAAAAAAAAAAA2AAAAAAAAAAA2AAAA24AAAAAA42AA2AAAA2A2AAAA22AA2AA
AAAAAAAAAAAAAAAA2AAAAAAAAAAA2AAAI24AAAAAA42AA2AAAA2A2AAAA22AA2AA
AAAAAAAAAAAAAAAA2AAAAAAAAAAA2AAAI24AAAAAA42AA2AAAA2A2AAAI22AA2AA
AAAAAAAAAAAAAAAA2AAAAAAAAAAA2AAA222AAAAAA42AA2AAAA2A2AAAI22AA2AA
AAAAAAAAAAAAAAAA2AAAAAAAAAAA2AAA222AAAAAA42AA2AAAA2A2AAAA22AA2AA
AAAAAAAAAAAAAAAA2AAAAAAAAAAA2AAA222AAAAAA42AA2AAAA2A2AAAI22AA2AA
AAAAAAAAAAAAAAAA2AAAAAAAAAAA2AAA222AAAAAA42AA2AAAA2A2AAAA22AA2AA
AAAAAAAAAAAAAAAA2AAAAAAAAAAA2IAA222AAAAAA42AA2AAAA2A2AAAA22AA2AA
AAAAAAAAAAAAAAAA2AAAAAAAAAAA2IAA222AAAAAA42AA2AAAA2A2AIAA22AA2AA
AAAAAAAAAAAAAAAA2AAAAAAAAAAA2IAA222AAAAAA42AA2AIAA2A2AIAA22AA2AA
AAAAAAAAAAAAAAAA2AAAAAAAAAAA2IAA222AAAAAA42AA2AIAA2A2AIAAA2AA2AA
AAAAAAAAAAAAAAAA2AAAAAAAAAAA2IAA22AAAAAAA42AA2A4AA2A2AIAAA2AA2AA
AAAAAAAAAAAAAAAA2AAAAAAAAAAA2IAA22AAAAAAA42AA2A4AA2A2AIAAA2AA2IA
AAAAAAAAAAAAAAAA2AAAAAAAAAAA24AA22AAAAAAA42AA2A4AA2A2AIAAA2AA2IA
AAAAAAAAAAAAAAAA2AAAAAAAAAAA24AA22AAAAAAA42AA2A4AA2A2A4AAA2AA2IA
AAAAAAAAAAAAAAAA2AAAAAAAAAAA24AA22AAAAAAA42AA2A4AA2A2A2AAA2AA2IA
AAAAAAAAAAAAAAAA2AAAAAAAAAAA24AA22AAAAAAA42AA2A4AA2A2AAAAA2AA24A
AAAAAAAAAAAAAAAA2AAAAAAAAAAA24AA22AAAAAAA42AA2A4AA2A2AAAAA2AA2AA
AAAAAAAIAAAAAAAA2AAAAAAAAAAA24AA22AAAAAAA42AA2A4AA2A2AAAAA2AA2AA
AAAAAAAIAAAAAAAA2AAAAAAAAAAA24AA22AAAAAAA42AA2A4AA2A2AAAAA2AA2IA
AAAAAAAIAAAAAAAA2AAAAAAAAAAA24AA22AAAAAAA42AA2A4AA2A2AAAAA2AA2II
AAAAAAAIAAAAAAAA2AAAAAAAAAAA24AA22AAAAAAA42AA2A4AA2A2AAAAA2AA24I
AAAAAAAIAAAAAAAA2AAAAAAAAAAA24AA22AAAAAAA42AA2A4AA2A2AAAAA2AA2AI
AAAAAAA4AAAAAAAA2AAAAAAAAAAA24AA22AAAAAAA42AA2A4AA2A2AAAAA2AA2AI
AAAAAAA2AAAAAAAA2AAAAAAAAAAA24AA22AAAAAAA42AA2A4AA2A2AAAAA2AA2AI
AAAAAAA2AAAAAAAA2AAAAAAAAAAA24AA22AAAAAAA42AA2A4AA2A2AAAAA2AA2A4
AAAAAAA2AAAAAAAA2AAAAAAAAAAA24AA22AAAAAAA42AA2A4AA2A2AAAAA2AA2A2
AAAAAAA2AAAAAAAA2AAAAAAAAAAA24AA22AAAAAAI42AA2A4AA2A2AAAAA2AA2A2
AAAAAAA2AAAAAAAA2AAAAAAAAAAA24AAA2AAAAAAI42AA2A4AA2A2AAAAA2AA2A2
AAAAAAA2AAAAAAAA2AAAAAAAAAAA24AAA2AAAAAA442AA2A4AA2A2AAAAA2AA2A2
AAAAAAA2AAAAAAAA2AAAAAAAAAAA24AAA2AAAAAAA42AA2A4AA2A2AAAAA2AA2A2
AAAAIAA2AAAAAAAA2AAAAAAAAAAA24AAA2AAAAAAA42AA2A4AA2A2AAAAA2AA2A2
AAAAAAA2AAAAAAAA2AAAAAAAAAAA24AAA2AAAAAAA42AA2A4AA2A2AAAAA2AA2A2
AAAAAAA2AAAAAAAA2AAAAAAAAAAAA4AAA2AAAAAAA42AA2A4AA2A2AAAAA2AA2A2
AAAAAAA2AAAAAAAA2AAAAAAAAAAAA4AAA2AAAAAAA22AA2A4AA2A2AAAAA2AA2A2
AAAAAAA2AAAAAAAA2AAAAAAAAAAAA4AAA2AAAAAAA22AA2A2AA2A2AAAAA2AA2A2
AAAAAAA2AAAAAAAA2AAAAAAAAAAAA2AAA2AAAAAAA22AA2A2AA2A2AAAAA2AA2A2
AAAAAAA2AAAAAAAA2AAAAAAAAAAAAIAAA2AAAAAAA22AA2A2AA2A2AAAAA2AA2A2
AAAAAAA2AAAAAAAA2AAAAAAAAAAAAIAAA2AAAAAAA22AA2A2AA2A2AAAIA2AA2A2
AAAAAAAAAAAAAAAA2AAAAAAAAAAAAIAAA2AAAAAAA22AA2A2AA2A2AAAIA2AA2A2
AAAAAAAAAAAAAAAA2AAAAAAAAAAAA4AAA2AAAAAAA22AA2A2AA2A2AAAIA2AA2A2
AAAAAAAAAAAAAAAA2AAAAAAAAAAAA2AAA2AAAAAAA22AA2A2AA2A2AAAIA2AA2A2
AAAAAAAAAAAAAAAA2AAAAAAAAAAAA2AAA2AAAAAAA22AA2A2AA2A2AAAAA2AA2A2
AAAAAAAAAAAAAAAA2AIAAAAAAAAAA2AAA2AAAAAAA22AA2A2AA2A2AAAAA2AA2A2
AAAAAAAAAAAAAAAA2AIAAAAAAAAAA2AAA2AAAAAAA22AA2A2AA2A2AAAIA2AA2A2
AAAAAAAAAAAAAAAA2A4AAAAAAAAAA2AAA2AAAAAAA22AA2A2AA2A2AAAIA2AA2A2
AAAAAAAAAAAAAAAA2A4AAAAAAAAAA2AAA2AAAAAAA22AA2A2AA2A2AAA4A2AA2A2
AAAAAAAAAAAAAAAA2A4AAAAAAAAAA2AAA2AAAAAAA22AA2A2AA2A2AAAAA2AA2A2
AAAAAAAAAAAAAAAA2A4AAAAAAAAAA2AAA2AAAAAAA22AA2A2AA2A2AAAAA2AAAA2
AAAAAAAAAAAAAAAA2A4AAAAAAAIAA2AAA2AAAAAAA22AA2A2AA2A2AAAAA2AAAA2
AAAAAAAAAAAAAAAA2AAAAAAAAA4AA2AAA2AAAAAAA22AA2A2AA2A2AAAAA2AAAA2
AAAAAAAAAAAAAAAA2AIAAAAAAA4AA2AAA2AAAAAAA22AA2A2AA2A2AAAAA2AAAA2
AAAAAAIAAAAAAAAA2AIAAAAAAA4AA2AAA2AAAAAAA22AA2A2AA2A2AAAAA2AAAA2
AAAAAAIAAAAIAAAA2AIAAAAAAA4AA2AAA2AAAAAAA22AA2A2AA2A2AAAAA2AAAA2
AAAAAAIAAAAIAAAA2AIAAAAAAA4AA2AAA2AIAAAAA22AA2A2AA2A2AAAAA2AAAA2
AAAAAAIAAAA2AAAA2A4AAAAAAA4AA2AAA2AIAAAAA22AA2A2AA2A2AAAAA2AAAA2
AAAAAAIAAAA2AAAA2A4AAAAAAA4AA2AAA2AAAAAAA22AA2A2AA2A2AAAAA2AAAA2
AAAAAAIAAAA2AAAA2A4AAAAAAA4AA2IAA2AAAAAAA22AA2A2AA2A2AAAAA2AAAA2
AAAAAA2AAAA2AAAA2A4AAAAAAA4AA2IAA2AAAAAAA22AA2A2AA2A2AAAAA2AAAA2
AAAAAAIAAAA2AAAA2A4AAAAAAA4AA2IAA2AAAAAAA22AA2A2AA2A2AAAAA2AAAA2
AAAAAA4AAAA2AAAA2A4AAAAAAA4AA2IAA2AAAAAAA22AA2A2AA2A2AAAAA2AAAA2
AAAAAAAAAAA2AAAA2A4AAAAAAA4AA2IAA2AAAAAAA22AA2A2AA2A2AAAAA2AAAA2
AAAAAAAAAAAAAAAA2A4AAAAAAA4AA2IAA2AAAAAAA22AA2A2AA2A2AAAAA2AAAA2
AAAAAAAAAAAAAAAA2A4AAAAAAA4AA24AA2AAAAAAA22AA2A2AA2A2AAAAA2AAAA2
AAAAAAAAAAAAAAAA2AAAAAAAAA4AA24AA2AAAAAAA22AA2A2AA2A2AAAAA2AAAA2
AAAAAAAAAAAAAAAA2AAAAAAAAAAAA24AA2AAAAAAA22AA2A2AA2A2AAAAA2AAAA2
AAAAAAAAAAAAAAAA2AAAAAAAAAAAA2AAA2AAAAAAA22AA2A2AA2A2AAAAA2AAAA2
AAAAAAAAAAAAAAAA2AAAAAAAAAAAA2AAA2AAAAAAA2AAA2A2AA2A2AAAAA2AAAA2
AAAAAAAAAAAAAAAA2AAAAAAAAAAAA2AAA2AAAAAAA2AAA2AAAA2A2AAAAA2AAAA2
AAAAAAAAAAAAAAAA2AAAAAAAAAAAA2AAA2AAAAAAA2AAA2AAAA2AAAAAAA2AAAA2
AAAAAAAAAAAAAAAA2AAAAAAAAAAAA2AAA2AAAAAAA2AAA2AAAA2AAAAAAA2AAAAA
AAAAAAAAAAAAAAAA2AAAAAAAAAIAA2AAA2AAAAAAA2AAA2AAAA2AAAAAAA2AAAAA
AAAAAAAAAAAAAAAAAAAAAAAAAAIAA2AAA2AAAAAAA2AAA2AAAA2AAAAAAA2AAAAA
AAAAAAAAAAAAAAAAAAAAAAAAAA4AA2AAA2AAAAAAA2AAA2AAAA2AAAAAAA2AAAAA
AAAAAAAAAAAAAAAAAAAAAAAAAAAAA2AAA2AAAAAAA2AAA2AAAA2AAAAAAA2AAAAA
AAAAAAAAAAAAAAAAAAAAAAAAAAAAA2AAA2AIAAAAA2AAA2AAAA2AAAAAAA2AAAAA
AAAAAAIAAAAAAAAAAAAAAAAAAAAAA2AAA2AIAAAAA2AAA2AAAA2AAAAAAA2AAAAA
AAAAAIIAAAAAAAAAAAAAAAAAAAAAA2AAA2AIAAAAA2AAA2AAAA2AAAAAAA2AAAAA
AAAAAIIAAIAAAAAAAAAAAAAAAAAAA2AAA2AIAAAAA2AAA2AAAA2AAAAAAA2AAAAA
AAAAAIIAAIAAAAAAAAAAAIAAAAAAA2AAA2AIAAAAA2AAA2AAAA2AAAAAAA2AAAAA
AAAAAIIAAIAAAAAAAAAAAIAAAAAAA2AAA2AIAAAIA2AAA2AAAA2AAAAAAA2AAAAA
AAAAAI2AA2AAAAAAAAAAAIAAAAAAA2AAA2AIAAAIA2AAA2AAAA2AAAAAAA2AAAAA
AAAAAI2AA2AAAAAAAAAAAIAAAAAAA2AAA2AIAAAAA2AAA2AAAA2AAAAAAA2AAAAA
AAAAAIIAA2AAAAAAAAAAAIAAAAAAA2AAA2AIAAAAA2AAA2AAAA2AAAAAAA2AAAAA
AAAAAIIAA2AAAAAAAAAAA4AAAAAAA2AAA2AIAAAAA2AAA2AAAA2AAAAAAA2AAAAA
AAAIAIIAA2AAAAAAAAAAA4AAAAAAA2AAA2AIAAAAA2AAA2AAAA2AAAAAAA2AAAAA
AAAIAIIAA2AAAAIAAAAAA4AAAAAAA2AAA2AIAAAAA2AAA2AAAA2AAAAAAA2AAAAA
AAAIAIIAA2AAAAIAAAAAA4AAAAAAA2AAA2AIAAAAA2AAA2AAAA2AAAAAAI2AAAAA
AAAIAIIAA2IAAAIAAAAAA4AAAAAAA2AAA2AIAAAAA2AAA2AAAA2AAAAAAI2AAAAA
AAAIAIAAA2IAAAIAAAAAA4AAAAAAA2AAA2AIAAAAA2AAA2AAAA2AAAAAAI2AAAAA
AAAIAIAAA2AAAAIAAAAAA4AAAAAAA2AAA2AIAAAAA2AAA2AAAA2AAAAAAI2AAAAA
AAAIAIAAA2AAAAIAAAAAA4AAAAAAA2AAA2A4AAAAA2AAA2AAAA2AAAAAAI2AAAAA
AAAIAIAAA2AAAAIAAAAAAAAAAAAAA2AAA2A4AAAAA2AAA2AAAA2AAAAAAI2AAAAA
AAAIAIAAA2AAAAIAAAAAAAAAAAAAA2AAA2A2AAAAA2AAA2AAAA2AAAAAAI2AAAAA
AAAIAIAAA2AAAAIAAAAAAAAAAAAAA2AAA2A2AAAAA2AAA2AAAA2AAAAAA22AAAAA
AAAIAIAAA2AAAAIAAAAAAAIAAAAAA2AAA2A2AAAAA2AAA2AAAA2AAAAAA22AAAAA
AAAIAIAAA2AAAAIAAAAAAAIAAAAAA2AAA2A2AAAIA2AAA2AAAA2AAAAAA22AAAAA
AAAIAIAAA2AAAAIAAAAAAAIAAAAAA2AAA2A2AAAIA2AAA2AAAA2AAAAAA22AAAIA
AAAIAIAAA2AAAAIAAAAAAIIAAAAAA2AAA2A2AAAIA2AAA2AAAA2AAAAAA22AAAIA
AAAIAIAAA2AAAAIAAAAAAIIAAAAAA2AAA2AIAAAIA2AAA2AAAA2AAAAAA22AAAIA
AAAIAIAAA2AAAAIAAAAAAIIAAAAAA2AAA2AIAAAIA2AAA2AAAA2AAAAAA22AAA4A
AAAIAIAAA2AAAAIAAAAAA22AAAAAA2AAA2AIAAAIA2AAA2AAAA2AAAAAA22AAA4A
AAAIAIAAA2AAAAIAAAAAA22AAAAAA2AAA2A2AAAIA2AAA2AAAA2AAAAAA22AAA4A
AAAIAIAAA2AAAAIAAAAAA22AAAAAA2AAA2A2AAAAA2AAA2AAAA2AAAAAA22AAA4A
AAAIAIAAA2AAAAIAAAAAA22AAAAAA2AAA2A2AAAAA2AAA2AAAA2AAAAAA22AAAAA
AAAIAIAAA2AAAAIAAAAAA22AAAAAA2AAA2AIAAAAA2AAA2AAAA2AAAAAA22AAAAA
AAAIAIAAA2AAAAIAAAAAA22AAAAAA2AAA2AIAAAAA2AAA2AAAA2AAAIAA22AAAAA
AAAIAIAAA2AAAAIAAAIAA22AAAAAA2AAA2AIAAAAA2AAA2AAAA2AAAIAA22AAAAA
AAAIAIAAA2AAAAIAAAAAA22AAAAAA2AAA2AIAAAAA2AAA2AAAA2AAAIAA22AAAAA
AAAIAIAAA2AAAAIAAAAAA2AAAAAAA2AAA2A4AAAAA2AAA2AAAA2AAAIAA22AAAAA
AAA2A2AAA2AAAA4AAAAAA2AAAAAAA2AAA2A4AAAAA2AAA2AAAA2AAAIAA22AAAAA
AAA2A2AAA2AAAA4AAAAAAAAAAAAAA2AAA2A4AAAAA2AAA2AAAA2AAAIAA22AAAAA
AAA2A2AAA2AAAA4AAAAAAAAAAAAAA2AAA2A2AAAAA2AAA2AAAA2AAAIAA22AAAAA
AAA2A2AAA2AAAA4AAAAAAAAAAAAAA2AAA2AAAAAAA2AAA2AAAA2AAAIAA22AAAAA
AAA2A2AAA2AAAA4AAAAAAAAAAAAAA2AAA2AAAAAAA2AAA2AAAA2AAAIIA22AAAAA
AAAIA2AAA2AAAA4AAAAAAAAAAAAAA2AAA2AAAAAAA2AAA2AAAA2AAAIIA22AAAAA
AAA2A2AAA2AAAA4AAAAAAAAAAAAAA2AAA2AAAAAAA2AAA2AAAA2AAAIIA22AAAAA
AAA2AIAAA2AAAA4AAAAAAAAAAAAAA2AAA2AAAAAAA2AAA2AAAA2AAAIIA22AAAAA
AAA2AIAAA2AAAA4AAAAAAAAAAAAAAAAAA2AAAAAAA2AAA2AAAA2AAAIIA22AAAAA
AAA2A2AAA2AAAA4AAAAAAAAAAAAAAAAAA2AAAAAAA2AAA2AAAA2AAAIIA22AAAAA
AAA2A2AAA2AAAI4AAAAAAAAAAAAAAAAAA2AAAAAAA2AAA2AAAA2AAAIIA22AAAAA
AAA2A2AAA2AAAI4AAAAAAAAAAAAAAAAAA2AAAAAAA2AAA2AAAA2AAA4IA22AAAAA
AAA2A2AAA2AAAI4AAAAAAAAAAAAAAAAAA2AAAAAAA2AAA2AAAA2AAA4II22AAAAA
AAA2A2AAA2AAAI4AAAAAAAAAAAAAAAAAA2AAAAAAA2AAA2AAAA2AAA4II22AAAAI
AAA2A2AAAAAAA22AAAAAAAAAAAAAAAAAA2AAAAAAA2AAA2AAAA2AAA4II22AAAAI
AAA2A2AAAAAAA22AAAAAAAAAAAAAAAAAA2AAAAAAA2AAA2AAAA2AAA4IA22AAAA2
AAA2A2AAAAAAA22AAAAAAIAAAAAAAAAAA2AAAAAAA2AAA2AAAA2AAA4IA22AAAA2
AAA2A2AAAAAAA22AAAAAAIAAAAAAAAAAA2AAAAAAA2AAA2AAAA2AAA2IA22AAAA2
AAA2A2AAAAAAA22AAAAAAIAAAAAAAAAAA2AIAAAAA2AAA2AAAA2AAA2IA22AAAA2
AAA2A2AAAAAAA22AAAAAAIAAAAAAAAAAA2A4AAAAA2AAA2AAAA2AAA2IA22AAAA2
AAA2A2AAAAAAA22AAAAAAIAAAAAAAAAAA2AAAAAAA2AAA2AAAA2AAA2IA22AAAA2
AAA2A2AAAAAAA22AAAAAAIAAAAAAAAAAA2AAAAAAA2AAA2AAAA2AAA24A22AAAA2
AAA2A2AAAAAAA22AAAAAAIAAAAAAAAAAA2AAAAAAA2AAA2AAAAAAAA24A22AAAA2
AAA2A2AAAAAAA22AAAAAAIAAAAAAAAAAA2AAAAAAA2AAA2AAAAAAAA24AA2AAAA2
AAA2I2AAAAAAA22AAAAAAIAAAAAAAAAAA2AAAAAAA2AAA2AAAAAAAA24AA2AAAA2
AAA2I2AAAAAAA22AAAAAAIAAAAAAAAAAA2AAAIAAA2AAA2AAAAAAAA24AA2AAAA2
AAA2I2AAAAAAA22AAAAAAIAAAAAAAAAAA2AAAIAAA2AAA2AAIAAAAA24AA2AAAA2
AAA2I2AAAAAAA22AAAAAAIAAAAAAAAAAA2AAAIAAA2AAA2AAIAAAAA24AA2AIAA2
AAA2I2AAAAAAA22AAAAAA4AAAAAAAAAAA2AAAIAAA2AAA2AAIAAAAA24AA2AIAA2
AAA2I2AAAAAAA22AAAAAA4AAAAAAAAAAA2AAAIAAA2AAA2AAIAAAAA24AA2A2AA2
AAA2I2AAAAAAA22AAAAAA4AAAAAAAAAAA2AAAIAAA2AAA2AAIAAAAA24AA2AIAA2
AAA2A2AAAAAAA22AAAAAA4AAAAAAAAAAA2AAAIAAA2AAA2AAIAAAAA24AA2AIAA2
AAA2A2AAAAAAA22AAAAAA2AAAAAAAAAAA2AAAIAAA2AAA2AAIAAAAA24AA2AIAA2
AAA2A2AAAAAAA22AAAAAA2AAAAAAAAAAA2AAAIAAA2AAA2AA4AAAAA24AA2AIAA2
AAA2A2AAAAAAA22AAAAAA2AAAAAAAAAAA2AAAIAAA2AAA2AA4AAAAA24AA2A4AA2
AAA2A2AAAAAAA22AAAAAA2AAAAAAAAAAA2AAAIAAA2AAA2AA4AAAAA24AA2AAAA2
AAA2A2AAAAAAA22AAAAAA2AAAAAAAAAAA2AAAIAAA2AAA2AA4AAAAA24IA2AAAA2
AAA2A2AAAAAAA22AAAAAA2AAAAAAAAAAA2AAAAAAA2AAA2AA4AAAAA24IA2AAAA2
AAA2A2AAAAAAA22AAAAAA2AAAAAAAAAAA2AAAAAAA2AAA2AA4AAAAA24AA2AAAA2
AAA2A2AAAAAAA22AAAAAA2AAAAAAAAAAA2AAAAAAA2AAA2AA4AAAAA24AA2AIAA2
AAA2A2AAAAAAA22AAAAAAAAAAAAAAAAAA2AAAAAAA2AAA2AA4AAAAA24AA2AIAA2
AAA2A2AAAAAAA22AAAAAAAAAAAAIAAAAA2AAAAAAA2AAA2AA4AAAAA24AA2AIAA2
AAA2A2AAAAAAA2AAAAAAAAAAAAA4AAAAA2AAAAAAA2AAA2AA4AAAAA24AA2AIAA2
AAA2A2AAAAAAA2AAAAAAAAAAAAA4AAAAA2AAAAAAA2AAA2AA4AAAAA24AA2A2AA2
AAA2A2AAAAAAA2AAAAIAAAAAAAA4AAAAA2AAAAAAA2AAA2AA4AAAAA24AA2A2AA2
AAA2A2AAAAAAA2AAAA2AAAAAAAA4AAAAA2AAAAAAA2AAA2AA4AAAAA24AA2A2AA2
AAA2A2AAAAAAA2AAAAAAAAAAAAA4AAAAA2AAAAAAA2AAA2AA4AAAAA24AA2A2AA2
AAA2A2AAAAAAA2AAAAAAAAAAAAA4AAAAA2AAAAAAA2AAA2AAAAAAAA24AA2A2AA2
AAA2A2AAAAAAA2AAAAAAAAAAAAA4AAAAA2AAAAAAA2AAA2AAAAAAAA24AA2A2AAA
AAA2A2AAAAAAA2AAAAIAAAAAAAA4AAAAA2AAAAAAA2AAA2AAAAAAAA24AA2A2AAA
AAA2A2AAAAAAA2AAAAIAAAAAAAA4AAAAA2AAAAAAA2AAA2AAIAAAAA24AA2A2AAA
AAA2A2AAAAAAA2AAAAAAAAAAAAA4AAAAA2AAAAAAA2AAA2AAIAAAAA24AA2A2AAA
AAA2A2AAAAAAA2AAAAAAAAAAAAA4AAAAA2AAAAAAA2AAA2AA4AAAAA24AA2A2AAA
AAA2A2AAAAAAA2AAAAAAAAAAAAA4AAAAA2AAAAAAA2AAA2AA4AAAAA24AA2A2AIA
AAA2A2AAAAAAA2AAAAIAAAAAAAA4AAAAA2AAAAAAA2AAA2AA4AAAAA24AA2A2AIA
AAA2A2AAAAAAA2AAAAAAAAAAAAA4AAAAA2AAAAAAA2AAA2AA4AAAAA24AA2A2AIA
AAA2A2AAAAAAA2AAAAAAAAAAAAA4AAAAA2AAAAAAA2AAA2AA4AAAAA22AA2A2AIA
AAA2A2AAAAAAA2AAAAAAAAAAAAA4AAAAA2AAAAAAA2AAA2AA4AAAAA22AA2A2A2A
AAA2A2AAAAAAA2AAAAAAAAAAAAA4AAAAA2AAAAAAA2AAA2AA4AAAAA22AA2A2AAA
AAAAA2AAAAAAA2AAAAAAAAAAAAA4AAAAA2AAAAAAA2AAA2AA4AAAAA22AA2A2AAA
AAAAA2AAAAAAA2AAAAAAAAAAAAA4AAAAA2AAIAAAA2AAA2AA4AAAAA22AA2A2AAA
AAAAA2AAAAAAA2AAAAAAAAAAAAA2AAAAA2AA4AAAA2AAA2AA4AAAAA22AA2A2AAA
AAAAA2AAAAAAA2AAAAAAAAAAAAA2AAAAA2AA4AAAA2AAA2AAAAAAAA22AA2A2AAA
AAAAA2AAAAAAA2AAAAAAAAAIAAA2AAAAA2AA4AAAA2AAA2AAAAAAAA22AA2A2AAA
AAAAA2AAAAAAA2AAAAAAAAA4AAA2AAAAA2AA4AAAA2AAA2AAAAAAAA22AA2A2AAA
AAAAA2AAAAAAA2AAAAAAAAA2AAA2AAAAA2AA4AAAA2AAA2AAAAAAAA22AA2A2AAA
AAAAA2AAAAAAA2AAAAAAAAAAAAA2AAAAA2AA4AAAA2AAA2AAAAAAAA22AA2A2AAA
AAAAA2AAAAAAA2AAAAAAAAAAAAA2AAAAA2AA2AAAA2AAA2AAAAAAAA22AA2A2AAA
AAAAA2AAAAAAA2AAAAAAAAAAAAA2AAAAA2AA2AAAA2AAAAAAAAAAAA22AA2A2AAA
AAAAA2AAAAAAA2AAAAAAAAAAAAA2AAAAA2AA2AAAA2AAAAAAAAAAAAA2AA2A2AAA
AAAAA2AAAAAAAAAAAAAAAAAAAAA2AAAAA2AA2AAAA2AAAAAAAAAAAAA2AA2A2AAA
AAAAA2AAAAAAAAAAAAAAAAAAAAA2AAAAA2AA2AAAA2AAAAAAAAAAAAAAAA2A2AAA
AAAAA2AAAAAAAAAAAAAAAAAAAAA2AAAAA2AA2AAAA2AAAAAAAAAAAAAAAA2AAAAA
AAAAA2AAAAAAAAAAAAAAAAAAAAA2AAAAA2AA2AAAA2AAAAAIAAAAAAAAAA2AAAAA
AAAAA2AAAAAAAAAAAAAAAAAAAAA2AAAAA2AA2AAAA2AAAAA4AAAAAAAAAA2AAAAA
AAAAA2AAAAAAAAAAAAAAAAAAAAA2AAAAA2AA2AAAA2AAAAA2AAAAAAAAAA2AAAAA
AAAAA2AAAAAAAAAAAAAAAAAAAAA2AAAAA2AA2AAAA2AAAAAIAAAAAAAAAA2AAAAA
AAAAA2AAAAAAAAAAAAAAAAAIAAA2AAAAA2AA2AAAA2AAAAAIAAAAAAAAAA2AAAAA
AAAAA2AAAAAAAAAAAAIAAAAIAAA2AAAAA2AA2AAAA2AAAAAIAAAAAAAAAA2AAAAA
AAAAA2AAAAAAAAAAAA4AAAA4AAA2AAAAA2AA2AAAA2AAAAAIAAAAAAAAAA2AAAAA
AAAAA2AAAAAAAAAAAA4AAAA2AAA2AAAAA2AA2AAAA2AAAAAIAAAAAAAAAA2AAAAA
AAAAA2AAAAAAAAAAAA2AAAA2AAA2AAAAA2AA2AAAA2AAAAAIAAAAAAAAAA2AAAAA
AAAAA2AAAAAAAAAAAAAAAAA2AAA2AAAAA2AA2AAAA2AAAAAIAAAAAAAAAA2AAAAA
AAAAA2AAAAAAAAAAAAAAAAA2AAA2AAAAA2AA2AAAA2AAAAA4AAAAAAAAAA2AAAAA
AAAAA2AAAAAAAAAAAAAAAAAAAAA2AAAAA2AA2AAAA2AAAAA4AAAAAAAAAA2AAAAA
AAAAA2AAAAAAAAAAAAAAAAAAAAA2AAAAA2AA2AAAA2AAAAA2AAAAAAAAAA2AAAAA
AAAAA2AAAAAAAAAAAAAAAAAAAAA2AAAAA2AAAAAAA2AAAAA2AAAAAAAAAA2AAAAA
AAAAA2AAAAAAAAAAAAAAAAAAAAA2AAAAA2AAAAAAA2AAAAAAAAAAAAAAAA2AAAAA
AAAAA2AAAAAAAAAAAAAAAIAAAAA2AAAAA2AAAAAAA2AAAAAAAAAAAAAAAA2AAAAA
AAAAA2AAAAAAAAAAAAAAAIAAAAA2AAAAA2AAAAAAA2AAAAAAAAAAAAAIAA2AAAAA
AAAAA2AAAAAAAAAAAAAAAIAAAAA2AAAAA2AAAAAAA2AAAAAAAAAAAAA4AA2AAAAA
AAAAA2AAAAAAAAAAAAAAA4AAAAA2AAAAA2AAAAAAA2AAAAAAAAAAAAA4AA2AAAAA
AAAAA2AAAAAAAAAAAAAAA4AAAAA2AAAAA2AAAAAAA2AAAAAIAAAAAAA4AA2AAAAA
AAAAA2AAAAAAAAAAAAAAA4AAAAA2AAAAA2AAAAAAA2AAAAAIAAAAAAA2AA2AAAAA
AAAAA2AAAAAAAAAAAAAAA4AAAAA2AAAAA2AAAAAAA2AAAAA4AAAAAAA2AA2AAAAA
AAAAA2AAAAAAAAAAAAAAA4AAAAA2AAAAA2AAAAAAA2AAAAA4AAAAAAI2AA2AAAAA
AAAAA2AAAAAAAAAAAAAAA2AAAAA2AAAAA2AAAAAAA2AAAAA4AAAAAAI2AA2AAAAA
AAAAA2AAAAAAAAAAAAAAAAAAAAA2AAAAA2AAAAAAA2AAAAA4AAAAAAI2AA2AAAAA
AAAAA2AAAAAAAAAAAAAAAAAAAAA2AAAAA2AAAAAAA2AAAAA4AAAAAA42AA2AAAAA
AAAAA2AAAAAAAAAAAAAAAAAAAAA2AAAAA2AAAAAAA2AAAAAAAAAAAA42AA2AAAAA
AAAAA2AAAAAAAAAAAAAAAAAAAAA2AAAAA2AAAAAAA2AAAAAAAAAAAAA2AA2AAAAA
AAAAA2AAAAAAAAAAAAAAAAAAAAA2AAAAA2AAAAAAA2AAAAAAAAAAAAA2IA2AAAAA
AAAAA2AAAAIAAAAAAAAAAAAAAAA2AAAAA2AAAAAAA2AAAAAAAAAAAAA2IA2AAAAA
AAAAA2AAAAIAAAAAAAAAAIAAAAA2AAAAA2AAAAAAA2AAAAAAAAAAAAA2IA2AAAAA
AAAAA2AAAAIAAAAAAAAAAIAAAAA2AAAAA2IAAAAAA2AAAAAAAAAAAAA2IA2AAAAA
AAAAA2AAAAIAAAAAAAAAAIAAAAA2AAAAA24AAAAAA2AAAAAAAAAAAAA2IA2AAAAA
AAAAA2AAAAIAAAAAAAAAAIAAAAA2AAAAA24AAAAAA2AAAAAAAAAAAAA2AA2AAAAA
AAAAA2AAAA4AAAAAAAAAAIAAAAA2AAAAA24AAAAAA2AAAAAAAAAAAAA2AA2AAAAA
AAAAA2AAAA4AAAAAAAAAAIAAAAA2AAAAA24AAAAAA2AAAAAAAAAAAAA2IA2AAAAA
AAAAA2AAAA2AAAAAAAAAAIAAAAA2AAAAA24AAAAAA2AAAAAAAAAAAAA2IA2AAAAA
AAAAA2AAAAAAAAAAAAAAA4AAAAA2AAAAA24AAAAAA2AAAAAAAAAAAAA2IA2AAAAA
AAAAA2AAAAAAAAAAAAAAA2AAAAA2AAAAA24AAAAAA2AAAAAAAAAAAAA2IA2AAAAA
AAAAA2AAAAAAAAAAAAAAA2AAAAA2AAAAA22AAAAAA2AAAAAAAAAAAAA2IA2AAAAA
AAAAA2AAAAAAAAAAAAAAA2AAAAA2AAAAAA2AAAAAA2AAAAAAAAAAAAA2IA2AAAAA
AAAAA2AAAAAAAAAAAAAAA2AAAAA2AAAAAAAAAAAAA2AAAAAAAAAAAAA2IA2AAAAA
AAAAA2AAAAAAAAAAAAAAA2AAAAA2AAAAAAAAAAAAA2AAAAAAAAAAAAA22A2AAAAA
AAAAA2AAAAAAAAAAAAAAA2AAAAA2AAAAAAAAAAAAA2AAAAAAAAAAAAA2AA2AAAAA
AAAAA2AAAAAAAAAAAAAAA2AAAAA2AAAAAIAAAAAAA2AAAAAAAAAAAAA2AA2AAAAA
AAAAA2AAAAAAAAAAAAAAAIAAAAA2AAAAAIAAAAAAA2AAAAAAAAAAAAA2AA2AAAAA
AAAAA2AAAAAAAAAAAAAAA4AAAAA2AAAAA4AAAAAAA2AAAAAAAAAAAAA2AA2AAAAA
AAAAA2AAAAAAAAAAAAAAA2AAAAA2AAAAA4AAAAAAA2AAAAAAAAAAAAA2AA2AAAAA
AAAAA2AAAAAAAAAAAAAAA2AAAAAAAAAAA2AAAAAAA2AAAAAAAAAAAAA2AA2AAAAA
AAAAA2AAAAAAAAAAAAAAA2AAAAAAAAAAA2AAAAAAA2AAAAAAAAAIAAA2AA2AAAAA
AAAAA2AAAAAAAAAAAAAAA2AAAAAAAAAAA2IAAAAAA2AAAAAAAAAIAAA2AA2AAAAA
AAAAA2AAAAAAAAAAAAAAAIAAAAAAAAAAA2IAAAAAA2AAAAAAAAAIAAA2AA2AAAAA
AAAAA2AAAAAAAAAAAAIAAIAAAAAAAAAAA2IAAAAAA2AAAAAAAAAIAAA2AA2AAAAA
AAAAA2AAAAAAAAAAAAIAAIAAAAAAIAAAA2IAAAAAA2AAAAAAAAAIAAA2AA2AAAAA
AAAAA2AAAAAAAAAAAAIAA4AAAAAAIAAAA2IAAAAAA2AAAAAAAAAIAAA2AA2AAAAA
AAAAA2AAAAAAAAAAAA2AA2AAAAAA4AAAA2IAAAAAA2AAAAAAAAAIAAA2AA2AAAAA
AAAAA2AAAAAAAAAAAA2AA2AAAAAA4AAAA22AAAAAA2AAAAAAAAAIAAA2AA2AAAAA
AAAAA2AAAAAAAAAAAA2AA2AAAAAA4AAAA22AAAAAA2AAAAAAAAA4AAA2AA2AAAAA
AAAAA2AAAAAAAAAAAA2AA2AAAAAA4AAAA2IAAAAAA2AAAAAAAAA4AAA2AA2AAAAA
AAAAA2IAAAAAAAAAAA2AA2AAAAAA4AAAA2IAAAAAA2AAAAAAAAA4AAA2AA2AAAAA
AAAAA22AAAAAAAAAAA2AA2AAAAAA4AAAA2IAAAAAA2AAAAAAAAA4AAA2AA2AAAAA
AAAAA22AAAIAAAAAAA2AA2AAAAAA4AAAA2IAAAAAA2AAAAAAAAA4AAA2AA2AAAAA
AAAAA22AAA4AAAAAAA2AA2AAAAAA4AAAA2IAAAAAA2AAAAAAAAA4AAA2AA2AAAAA
AAAAA22AAA4AAAAAAA2AA2AAAAAA2AAAA2IAAAAAA2AAAAAAAAA4AAA2AA2AAAAA
AAAAA22AAA4AAAAAAA2AA2AAAAAA2AAAA24AAAAAA2AAAAAAAAA4AAA2AA2AAAAA
AAAAA22AAA4AAAAAAA2AA2AAAAAAAAAAA24AAAAAA2AAAAAAAAA4AAA2AA2AAAAA
AAAAA22AAA4AAAAAAA2AA2AAAAAAAAAAA24AAAAAA2AAAAAAAAAAAAA2AA2AAAAA
AAAAA22AAA4AAAAAAA2AA2AAAAAAAAAAA24AAAAAA2AAAAAAAAAAAAA2AA2AIAAA
AAAAA22AAA4AAAAAAA2AA2AAAAAAAAAAA24AAAAAA2AAAAAAAAAAAAA2IA2AIAAA
AAAAA22IAA4AAAAAAA2AA2AAAAAAAAAAA24AAAAAA2AAAAAAAAAAAAA2IA2AIAAA
AAAAA22IAA4AAAAAAA2AA2AAAAAAAAAAA24AAAAAI2AAAAAAAAAAAAA2IA2AIAAA
AAAAA22IAA4AAAAAAA2AA2AAAAAAAAAAA24AAAAAI2AAAAAAAAAAAAA2AA2AIAAA
AAAAA22IAA4AAAAAAA2AA2AAAAAAAAAAA2AAAAAA22AAAAAAAAAAAAA2AA2AIAAA
AAAAA22IAA4AAAAAAA2AA2AAAAAAAAAAA2AAAAAA22AAAAAAAAAAAAA2AA2A2AAA
AAAAA22IAA4AAAAAAA2AA2AAAAAAAAAAA2IAAAAA22AAAAAAAAAAAAA2AA2A2AAA
AAAAA222AA2AAAAAAA2AA2AAAAAAAAAAA2IAAAAA22AAAAAAAAAAAAA2AA2A2AAA
AAAAA222AA2AAAAAAA2AAAAAAAAAAAAAA24AAAAA22AAAAAAAAAAAAA2AA2A2AAA
AAAAA222AA2AAAAAAA2AAAAAAAAAAAAAA24AAAAA22AAAAAAAAAAAAA2AA2AAAAA
AAAAA222AAIAAAAAAA2AAAAAAAAAAAAAA24AAAAA22AAAAAAAAAAAAA2AA2AAAAA
AAAAA222AAIAAAAAAA2AAAAAAAAAAAAAA24AAAAA22AAAAAAAAAAAAA2AI2AAAAA
AAAAA222AAIAAAAAAA2AAAAAAAAAAAAAA24AAAAA22AAAAAAAAAAAAA2AI2AAAIA
AAAAA222AAIAAAAAAA2AAAAAAAAAAAAAA24AAAAA22AAAAAAAAAAAAA2AI2AIAIA
AAAAA222AAIAAAAAAA2AAAAAAAAAAAAAA24AAAAA22AAAAAAAAAAAAA2A22A2AIA
AAAAA222AAIAAAAAAA2AAAAAAAAAAAAAA24AAAAA22AAAAAAAAAAAAA2A22A2AAA
AAAAA222AAIAAAAAAA2AAAAAAAAAAAAAA24AAAAA22AAAAAAAAAAAAI2A22A2AAA
AAAAA222AA4AAAAAAA2AAAAAAAAAAAAAA24AAAAA22AAAAAAAAAAAAI2A22A2AAA
AAAAA222AA4AAAAAAA2AAAAAAAAAAAAAA24AAAAA22AAAAAAAAAAAAI2I22A2AAA
AAAAA222AA4AAAAAAAAAAAAAAAAAAAAAA24AAAAA22AAAAAAAAAAAAI2I22A2AAA
AAAAA222AA4AAAAAAAAAAAAAAAAAAAAAA24AAAAA22AAAAAAAAAAAA22422A2AAA
AAAAA222AA4AAAAAAAAAAAAAAAAAAAAAA24AAAAA22AAAAAAAAAAAA22A22A2AAA
AAAAA222AA4AAAAAAAIAAAAAAAAAAAAAA24AAAAA22AAAAAAAAAAAA22A22A2AAA
AAAAA222AAAAAAAAAA4AAAAAAAAAAAAAA24AAAAA22AAAAAAAAAAAA22A22A2AAA
AAAAA222AAAIAAAAAA4AAAAAAAAAAAAAA24AAAAA22AAAAAAAAAAAA22A22A2AAA
AAAAA222AAA2AAAAAA2AAAAAAAAAAAAAA24AAAAA22AAAAAAAAAAAA22A22A2AAA
AAAAA222AAA2AAAAAA2AAAAAAAAAAAAAA22AAAAA22AAAAAAAAAAAA22A22A2AAA
AAAAA222AAA2AAAAAA2AAAAAAAAAAAAAA22AAAAA22AAAAAAAAAAAAA2A22A2AAA
AAAAA222AAA2AAAAAA2AAAAAAAAAAAAAA22AAAAA22AAAAAAAAAAAAA2A22AAAAA
AAAAA222AAA2AAAAAA2AAAAAAAAAAAAAA2IAAAAA22AAAAAAAAAAAAA2A22AAAAA
AAAAA222AAA2AAAAAA2AAAAAAAAAAAAAA2IAAAAA22AAAAAAAAAAAAA2A22AIAAA
AAAAI222AAA2AAAAAA2AAAAAAAAAAAAAA2IAAAAA22AAAAAAAAAAAAA2A22AIAAA
AAAAI222AAA2AAAAAA2AAAAAAAAAAAAAA22AAAAA22AAAAAAAAAAAAA2A22AIAAA
AAAAI222AAA2AAAAAA2AAAAAAAAAAAAAA22AAAAA22AAAAAAAAAAAAA2A22A2AAA
AAAAI22AAAA2AAAAAA2AAAAAAAAAAAAAA22AAAAA22AAAAAAAAAAAAA2A22A2AAA
AAAAI22AAAA2AAAAAA2AAAAAAAAAAAAAA22AAAAA22AAAAAAAAAAAAA2A22A2AAI
AAAA222AAAA2AAAAAA2AAAAAAAAAAAAAA22AAAAA22AAAAAAAAAAAAA2A22A2AAI
AAAA222AAAA2AAAAAA2AAAAAAAAAAAAAA22AAAAA22AAAAAAAAAAAAA2A22A2AA4
AAAA222AAAA2AAAAAA2AAAAAAAAAAAAAA22AAAAA22AAAAAAAAAAAAA2A22A2AA2
AAAAI22AAAA2AAAAAA2AAAAAAAAAAAAAA22AAAAA22AAAAAAAAAAAAA2A22A2AA2
AAAAI22AAAA2AAAAAA2AAAAAAAAAAAAAA22AAAAA22AAAAAAAAAAAAA2A22A2AAI
AAAA222AAAA2AAAAAA2AAAAAAAAAAAAAA22AAAAA22AAAAAAAAAAAAA2A22A2AAI
AAAA222AAAA2AAAAAA2AAAAAAAAAAAAAA2AAAAAA22AAAAAAAAAAAAA2A22A2AAI
AAAA222AAAA2AAAAAA2AAAAAAAAAAAAAA2AAAAAA22AAAAAAAAAAAAA2A22A2AA4
AAAA222AAAA2AAAAAA2AAAAAAAAAAAAAA2AAAAAA22AAAAAAAAAAAAA2A22AAAA4
AAAA222AAAA2AAAAAA2AAAAAAAAAAAAAA2AAAAAA22AAAAAAAAAAAAA2A22AAAA2
AAAA222AAAA2AAAAAA2AAAAAAAAAAAAAA2AAAAAA22AAAAAAAAAAAAA2A22AIAA2
AAAA222AAAA2AAAAAA2AAAAAAAAAAAAAA2AAAAAA22AAAAAAAAAAAAA2A22A4AA2
AAAA222AAAA2AAAAAA2AAAAAAAAAAAAAA2AAAAAA22AAAAAAAAAAAAA2A22A2AA2
AAAA222AAAA2AAAAAA2AAAAAAAAAAAAAA2AAAAAA22AAAAAAAAAAAAA2A22AIAA2
AAAA222AAAA2AAAAAI2AAAAAAAAAAAAAA2AAAAAA22AAAAAAAAAAAAA2A22AIAA2
AAAA222AAAA2AAAAAI2AAAAAAAAAAAAAA2AAAAAA22AAAAAAAAAAAAA2I22AIAA2
AAAA222AAAA2AAAAA42AAAAAAAAAAAAAA2AAAAAA22AAAAAAAAAAAAA2I22AIAA2
AAAA222AAAAAAAAAA42AAAAAAAAAAAAAA2AAAAAA22AAAAAAAAAAAAA2I22AIAA2
AAAA222AAAAAAAAAA42AAAAAAAAAAAAAA2AAAAAA22AAAAAAAAAAAAA2422AIAA2
AAAA222AAAAAAAAAA42AAAAAAAAAAAAAA2AAAAAA22AAAAAAAAAAAAA2422A4AA2
AAAA222AAAAAAAAAA42AAAAAAAAAAAAAA2AAAAAA22AAAAAAAAAAAAA2222A4AA2
AAAA222AAAAAAAAAA42AAAAAAAAAAAAAA2AAAAAA22AAAAAAAAAAAAA2A22A2AA2
AAAA222AAAAAAAAAA42AAAAAAAAAAAAAA2AAAAAA22AAAAAAAAAAAAA2I22A2AA2
AAAA222AAAAAAAAAA42AAAAAAAAAAAAAA2AAAAAA22AAAAAAAAAAAAA2I22A2AI2
AAAA222AAAAAAAAAA42AAAAAAAAAAAAAA2AAAAAA22AAAAAAAAAAAAA2I22A2AA2
AAAAA22AAAAAAAAAA42AAAAAAAAAAAAAA2AAAAAA22AAAAAAAAAAAAA2I22A2AA2
AAAAA22AAAAAAAAAA42AAAAAAAAAAAAAA2AAAAAA22AAAAAAAAAAAAA2A22A2AA2
AAAAA22AAAAAAAAAA42AAAAAAAAAAAAAA2AAAAAA22AAAAAAAAAAAAA2A22AAAA2
AAAAA22AAAAAAAAAA42AAAAAAAAAAAAAA2AAAAAA22AAAAAAAAAAAAA2A22AAAI2
AAAAA22AAAAAAAAAA42AAAAAAAAAAAAAA2AAAAAA22AAAAAAAAAAAAA2A22AAAA2
AAAAA22AAAAAAAAAA42AAAAAAAAAAAAAA2AAAAAA22AAAAAAAAAAAAA2A22AAAAA
AAAAA22AAAAAAAAAA42AAAAAAAAAAAAAA2AAAAAA22AAAAAAAAAAAAA2A22AAAIA
AAAIA22AAAAAAAAAA42AAAAAAAAAAAAAA2AAAAAA22AAAAAAAAAAAAA2A22AAAIA
AAAIA22AAAAAAAAAA42AAAAAAAAAAAAAA2AAAAAA22AAAAAAAAAAAAA2A22AAA2A
AAAIA22AAAAAAAAAA42AAAAAAAAAAAAAA2AAAAAA22AAAAAAAAAAAAA2A22AAAIA
AAA2A22AAAAAAAAAA42AAAAAAAAAAAAAA2AAAAAA22AAAAAAAAAAAAA2A22AAAIA
AAA2A22AAAAAAAAAA42AAAAAAAAAAAAAA2AAAAAA22AAAAAAAAAAAAA2A22AAAAA
AAA2A22AAAAAAAAAA4AAAAAAAAAAAAAAA2AAAAAA22AAAAAAAAAAAAA2A22AAAAA
AAA2A22AAAAAAAAAA4AAAAAAAAAAAAAAA2AAAAAA22AAAAAAAAAAAAA2A22AAAAI
AAA2A22AAAAAAAAAA4AAAAAAAAAAAAAAA2AAAAAA22AAAAAAAAAAAAA2A22AAAA2
AAA2A2AAAAAAAAAAA4AAAAAAAAAAAAAAA2AAAAAA22AAAAAAAAAAAAA2A22AAAA2
AAA2A2AAAAAAAAAAA4IAAAAAAAAAAAAAA2AAAAAA22AAAAAAAAAAAAA2A22AAAA2
AAA2A2AAAAAAAAAAA44AAAAAAAAAAAAAA2AAAAAA22AAAAAAAAAAAAA2A22AAAA2
AAA2A2AAAAAAAAAAA4AAAAAAAAAAAAAAA2AAAAAA22AAAAAAAAAAAAA2A22AAAA2
AAA2A2AAAAAAAAAAAAAAAAAAAAAAAAAAA2AAAAAA22AAAAAAAAAAAAA2A22AAAA2
AAA2A2AAAAAAAAAAAAAAAAAAAAAAAAAAA2AAAAAA22AAAAAAAAAAAAA2AA2AAAA2
AAA2A2AAAAAAAAAAAAAAIAAAAAAAAAAAA2AAAAAA22AAAAAAAAAAAAA2AA2AAAA2
AAA2A2AAAAAAAAAAAIAAIAAAAAAAAAAAA2AAAAAA22AAAAAAAAAAAAA2AA2AAAA2
AAA2A2AAAAAAAAAAAIAAIAAAAAAAAAAAA2AIAAAA22AAAAAAAAAAAAA2AA2AAAA2
AAA2A2AAAAAAAAAAAIAAIAAAAAAAAAAAA2AIAAAA22AAAAAIAAAAAAA2AA2AAAA2
AAA2A2AAAAAAAAAAAIAAIAAAAAAAAAAAA2AAAAAA22AAAAAIAAAAAAA2AA2AAAA2
AAA2A2AAAAAAAAAAA4AA4AAAAAAAAAAAA2AAAAAA22AAAAAIAAAAAAA2AA2AAAA2
AAA2A2AAAAAAAAAAA2AA2AAAAAAAAAAAA2AAAAAA22AAAAAIAAAAAAA2AA2AAAA2
AAA2A2AAAAAAAAAAA2AAAAAAAAAAAAAAA2AAAAAA22AAAAAIAAAAAAA2AA2AAAA2
AAA2A2AAAAAAAAAAA2AAAAAAAAAAAAAAA2AAAAAA22AAAAA2AAAAAAA2AA2AAAA2
AAA2A2AAAAAAAAAAA2AAAAAAAAAAAAAAA2AAAAAA22AAAAA2AAAAAAI2AA2AAAA2
AAA2A2AAAAAAAAAAA2AAIAAAAAAAAAAAA2AAAAAA22AAAAA2AAAAAAI2AA2AAAA2
AAA2A2AAAAAAAAAAA2AAIAAAAAAAIAAAA2AAAAAA22AAAAA2AAAAAAI2AA2AAAA2
AAA2A2AAAAAAAAAAA2AAIAAAAAAAIAAAA2AAAAAA22AAAAAIAAAAAAI2AA2AAAA2
AAA2A2AAAAAAAAAAA2AAIAAAAAAAIAAAA2AAAAAA22AAAAA4AAAAAA22AA2AAAA2
AAA2A2AAAAAAAAAAA2AAIAAAAAAAIAAAA2AAAAAA22AAAAA2AAAAAA22AA2AAAA2
AAA2A2AAAAAAAAAAA2AAIAAAAAAAIAAAA2AAAAAA22AAAAA2AAAAAA22AA2AAAI2
AAA2A2AAAAAAAAAAA2AAIAAAAAAAIAAAA2AAAAAA22AAAAA2AAAAAA22AA2AAAA2
AAA2A2AAAAAAAAAAA2AAIAAAAAAAIAAAA2AAAAAA22AAAAA2AAAAAAI2AA2AAAA2
AAA2A2AAAAAAAAAAA2AAIAAAAAAAIAAAA2AAAAAA22AAAAAIAAAAAAI2AA2AAAA2
AAA2A2AAAAAAAAAAA2AAIAAAAAAAIAAAA2AAAAAA22AAAAAIAAAAAAI2AA2AAAI2
AAA2A2AAAAAAAAAAA2AAIAAAAAAAIAAAA2AAAAAA22AAAAAIAAAAAAI2AA2AAAA2
AAA2A2AAAAAAAAAAA2AAIAAAAAAA4AAAA2AAAAAA22AAAAAIAAAAAAI2AA2AAAA2
AAA2A2AAAAAAAAAAA2AAIAAAAAAA4AAAA2AAAAAA22AAAAA4AAAAAAI2AA2AAAA2
AAA2A2AAAAAAAAAAA2AAIAAAAAAA4AAAA2AIAAAA22AAAAA4AAAAAAI2AA2AAAA2
AAA2A2AAAAAAAAAAA2AA4AAAAAAA4AAAA2AIAAAA22AAAAA4AAAAAAI2AA2AAAA2
AAA2A2AAAAAAAAAAA2AA4AAAAAAA4AAAA2A4AAAA22AAAAA4AAAAAAI2AA2AAAA2
AAA2A2AAAAAAAAAAA2AA4AAAAAAA4AAAA2A4AAAAA2AAAAA4AAAAAA42AA2AAAA2
AAA2A2AAAAAAAAAAA2AA4AAAAAAA4AAAA2AAAAAAA2AAAAA4AAAAAA42AA2AAAA2
AAA2A2AAAAAAAAAAA2AA4AAAAAAA2AAAA2AAAAAAA2AAAAA4AAAAAA42AA2AAAA2
AAA2A2AAAAAAAAAAA2AA4AAAAAAA2AAAA2AAAAAAA2AAAAAAAAAAAA22AA2AAAA2
AAA2A2AAAAAAAAAAA2AA4AAAAAAA2AAAA2AAAAAAA2AAAAAAAAAAAAA2AA2AAAA2
[...]
AAA2A2AAAAAAAAAAA2AA2AAA2AAAAAAAA2AAAAAAA2AIAAA4AAAAAAA2AAAAAAAA
AAA2A2AAAAAAAAAAA2AA2AAA2AAAAAAAA2AAAAAAA2AIAAA4AAAAAAA2AAAAAAIA
AAA2A2AAAAAAAAAAA2AA2AAA2AAAAAAAA2AAAAAAA2A4AAA4AAAAAAA2AAAAAAIA
AAA2A2AAAAAAAAAAA2AA2AAA2AAAAAAAA2AAAAAAA2A4AAA4AAAAAAA2AAAAAAAA
AAA2A2AAAAAAAAAAA2AA2AAA2AAAAAAAA2AAAAAAA2A4IAA4AAAAAAA2AAAAAAAA
AAA2A2AAAAAAAAAAA2AA2AAA2AAAAAAAA2AAAAAAA2A4IAA4AAAAAAA2AAAAAAIA
AAA2A2AAAAAAAAAAA2AA2AAA2AAAAAAAA2AAAAAAA2A4IAA4AAAAAAA2AAAAAA2A
AAA2A2AAAAAAAAAAA2AA2AAA2AAAAAAAA2AAAAAAA2A4IAA4AAAAAAA2AAAAAAIA
AAA2A2AAAAAAAAAAA2AA2AAA2AAAAAAAA2AAAAAAA2A44AA4AAAAAAA2AAAAAAIA
AAA2A2AAAAAAAAAAA2AA2AAA2AAAAAAAA2AAAAAAA2A44AA4AAAAAAA2AAAAAA4A
AAA2A2AAAAAAAAAAA2AA2AAA2AAAAAAAA2AAAAAAA2A44AA4AAAAAAA2AAAAAA2A
AAA2A2AAAAAAAAAAA2AA2AAA2AAAAAAAA2AAAAAAA2A44AA4AAAAAAA2AAAAAAAA
AAA2A2AAAAAAAAAAA2AA2AAA2AAAAAAAA2AAAAAAA2A44AA4AAAAAAA2IAAAAAAA
AAA2A2AAAAAAAAAAA2IA2AAA2AAAAAAAA2AAAAAAA2A44AA4AAAAAAA2IAAAAAAA
AAA2A2AAAAAAAAAAA22A2AAA2AAAAAAAA2AAAAAAA2A44AA4AAAAAAA2IAAAAAAA
AAA2A2AAAAAAAAAAA22A2AAA2AAAAAAAA2AAAAAAA2A44AA4AAAAAAA2AAAAAAAA
AAA2A2AAAAAAAAAAA22A2AAA2AAAAAAAA2AAAAAAA2A44AA4AAAAAAA2AAAAAAIA
AAA2A2AAAAAAAAAAA22A2AAA2AAAAAAAA2AAAAAAA2A24AA4AAAAAAA2AAAAAAIA
AAA2A2AAAAAAAAAAA22A2AAA2AAAAAAAA2AAAAAAA2A24AA4AAAAAAA2AAAAAA2A
AAA2A2AAAAAAAAAAA2AA2AAA2AAAAAAAA2AAAAAAA2A24AA4AAAAAAA2AAAAAA2A
AAA2A2AAAAAAAAAAA2AA2AAA2AAAAAAAA2AAAAAAA2A22AA4AAAAAAA2AAAAAA2A
AAA2A2AAAAAAAAAAA2AA2AAA2AAAAAAAA2AAAAAAA2A22AA4AAAAAAA2AAAAAAAA
AAA2A2AAAAAAAAAAA2AA2AAA2AAAAAAAA2AAAAAAA2AI2AA4AAAAAAA2AAAAAAAA
AAA2A2AAAAAAAAAAA2IA2AAA2AAAAAAAA2AAAAAAA2AI2AA4AAAAAAA2AAAAAAAA
AAA2A2AAAAAAAAAAA22A2AAA2AAAAAAAA2AAAAAAA2AI2AA4AAAAAAA2AAAAAAAA
AAA2A2AAAAAAAAAAA22A2AAA2AAAAAAAA2AAAAAAA2A22AA4AAAAAAA2AAAAAAAA
AAA2A2AAAAAAAAAAA22A2AAA2AAAAAAAA2IAAAAAA2A22AA4AAAAAAA2AAAAAAAA
AAA2A2AAAAAAAAAAA22A2AAA2AAAAAAAA2IAAAAAA2A22AA4AAAAAAAAAAAAAAAA
AAA2A2AAAAAAAAAAA22A2AAA2AAAAAAAA2IAAAAAA2A22AA4AAAAAAAIAAAAAAAA
AAA2A2AAAAAAAAAAA22A2AAA2AAAAAAAA2IAAAAAA2A22AA4AAAAAAAIAAAAIAAA
AAA2A2AAAAAAAAAAA22A2AAA2AAAAAAAA2IAAAAAA2A22AA4AAAAAAAIAAAAIAIA
AAA2A2AAAAAAAAAAA22A2AAA2AAAAAAAA2AAAAAAA2A22AA4AAAAAAAIAAAAIAIA
AAA2A2AAAAAAAAAAA22A2AAA2AAAAAAAA2AAAAAAA2A22AA4AAAAAAAIAAAAAA2A
AAA2A2AAAAAAAAAAA22A2AAA2AAAAAAAA2AAAAAAA2A22AA4AAAAAAAIAAAAAAAA
AAA2A2AIAAAAAAAAA22A2AAA2AAAAAAAA2AAAAAAA2A22AA4AAAAAAAIAAAAAAAA
AAA2A2AIAAIAAAAAA22A2AAA2AAAAAAAA2AAAAAAA2A22AA4AAAAAAAIAAAAAAAA
AAA2A2A2AA4AAAAAA22A2AAA2AAAAAAAA2AAAAAAA2A22AA4AAAAAAAIAAAAAAAA
AAA2A2A2AA4AAAAAA22A2AAA2AAAAAAAA2AAAAAAA2A22AA4AAAAAAA2AAAAAAAA
AAA2A2A2AA2AAAAAA22A2AAA2AAAAAAAA2AAAAAAA2A22AA4AAAAAAA2AAAAAAAA
AAA2A2A2AA2AAAAAA2AA2AAA2AAAAAAAA2AAAAAAA2A22AA4AAAAAAA2AAAAAAAA
AAA2A2I2AA2AAAAAA2AA2AAA2AAAAAAAA2AAAAAAA2A22AA4AAAAAAA2AAAAAAAA
AAA2A2I2AAAAAAAAA2AA2AAA2AAAAAAAA2AAAAAAA2A22AA4AAAAAAA2AAAAAAAA
AAA2A2I2AAAAAAAAA2AA2AAA2AAAAAAAA2AAAAAAA2A22AA4IAAAAAA2AAAAAAAA
AAA2A2I2AAAAAAAAA2AA2AAA2AAAAAAAA2AAAAAIA2A22AA4IAAAAAA2AAAAAAAA
AAA2A242AAAAAAAAA2AA2AAA2AAAAAAAA2AAAAAIA2A22AA4IAAAAAA2AAAAAAAA
AAA2AA22AAAAAAAAA2AA2AAA2AAAAAAAA2AAAAAIA2A22AA4IAAAAAA2AAAAAAAA
AAA2AA2AAAAAAAAAA2AA2AAA2AAAAAAAA2AAAAAIA2A22AA4IAAAAAA2AAAAAAAA
AAA2AA2AAAAAAAAAAAAA2AAA2AAAAAAAA2AAAAAIA2A22AA4IAAAAAA2AAAAAAAA
AAA2AA2AAAAAAAAAAAAAAAAA2AAAAAAAA2AAAAAIA2A22AA4IAAAAAA2AAAAAAAA
AAA2AA2AAAAAAAAAAAAAAAAAAAAAAAAAA2AAAAAIA2A22AA4IAAAAAA2AAAAAAAA
AAA2AA2AAAAAAAAAAAAAAAAAAAAAAAAAA2AAAAA4A2A22AA4IAAAAAA2AAAAAAAA
AAA2AA2AAAAAAAAAAAAAAAAAAAAAAAAAA2AAAAA2A2A22AA44AAAAAA2AAAAAAAA
AAA2AA2AAAAAAAAAAAAAAAAAAAAAAAAAA2AAAAAAA2A22AA44AAAAAA2AAAAAAAA
AAA2AA2AAAAAAAAAAAAAAAAAAAAAAAAAA2AAAAAAA2A2AAA42AAAAAA2AAAAAAAA
AAA2AA2AAAAAAAAAAAAAAAAAAAAAAAAAA2AAAAAAA2A2IAA42AAAAAA2AAAAAAAA
AAA2AA2AAAAAAAAAAAIAAAAAAAAAAAAAA2AAAAAAA2A2IAA42AAAAAA2AAAAAAAA
AAA2AA2AAAAAAAAAAAIAAAAAAAAAAAAAA2AAAAAAA2A2IAA4IAAAAAA2AAAAAAAA
AAA2AA2AAAAAAAAAAAIAAAAAAAAAAAAAA2AAAAAAA2A24AA4IAAAAAA2AAAAAAAA
AAA2AA2AAAAAAAAAAAIAAAAAAAAAAAAAA2AAAAAAA2A22AA4IAAAAAA2AAAAAAAA
AAA2AA2AAAAAAAAAAAIAAAAAAAAAAAAAA2AAAAAAA2A22AA44AAAAAA2AAAAAAAA
AAA2AA2AAAAAAAAAAAIAAAAAAAAIAAAAA2AAAAAAA2A22AA44AAAAAA2AAAAAAAA
AAA2AA2AAAAAAAAAAAIAAAAAAAAIAAIAA2AAAAAAA2A22AA44AAAAAA2AAAAAAAA
AAA2AA2AAAAAAAAAAA2AAAAAAAA4AA4AA2AAAAAAA2A22AA44AAAAAA2AAAAAAAA
AAA2AA2AAAAAAAAAAA2AAAAAAAA4AA4AA2AAAAAAA2A22AAA2AAAAAA2AAAAAAAA
AAA2AA2AAAAAAAAAAA2AAAAAAAA4AA4AA2IAAAAAA2A22AAA2AAAAAA2AAAAAAAA
AAA2AA2AAAAAAAAAAAIAAAAAAAA4AA4AA2IAAAAAA2A22AAA2AAAAAA2AAAAAAAA
AAA2AA2AAAAAAAAAAAIAAAAAAAA4AA4AA2IAAAAAA2A22AAI2AAAAAA2AAAAAAAA
AAA2AA2AAAAAAAAAAA4AAAAAAAA4AA4AA2IAAAAAA2A22AAI2AAAAAA2AAAAAAAA
AAA2AA2AAAAAAAAAAA2AAAAAAAA4AA4AA2IAAAAAA2A22AAI2AAAAAA2AAAAAAAA
AAA2AA2AAAAAAAAAAAAAAAAAAAA4AA4AA2IAAAAAA2A22AAI2AAAAAA2AAAAAAAA
AAA2AA2AAAAAAAAAAAAAAAAAAAA2AA4AA24AAAAAA2A22AAI2AAAAAA2AAAAAAAA
AAA2AA2AAAAAAAAAAAAAAAAAAAA2AA4AA24AAAAAA2A22AA42AAAAAA2AAAAAAAA
AAA2AA2AAAIAAAAAAAAAAAAAAAA2AA4AA24AAAAAA2A22AA42AAAAAA2AAAAAAAA
AAA2AA2AAAIAAAAAAAAAAAAAAAA2AA4AA24AAAAAA2A22AA42AAIAAA2AAAAAAAA
AAA2AA2AAAIAAAAAAAAAAAAAAAA2AA4AA24AAAAAA2A22AAA2AA2AAA2AAAAAAAA
AAA2AA2AAAIAAAAAAAAAAAAAAAA2AA4AA24AAAAAA2A22AAAAAA2AAA2AAAAAAAA
AAA2AA2AAA4AAAAAAAAAAAAAAAA2AA4AA24AAAAAA2A22AAAAAA2AAA2AAAAAAAA
AAA2AA2AAAAAAAAAAAAAAAAAAAA2AA4AA24AAAAAA2A22AAAAAA2AAA2AAAAAAAA
AAA2AA2AAAAAAAAAAAAAAAAAAAA2AA4AA24AAAAAA2A22AAAAAA2AAA2AAAAIAAA
AAA2AA2AAAAAAAAAAAAAAAAIAAA2AA4AA24AAAAAA2A22AAAAAA2AAA2AAAAIAAA
AAA2IA2AAAAAAAAAAAAAAAAIAAA2AA4AA24AAAAAA2A22AAAAAA2AAA2AAAAIAAA
AAA2IA2AAAAAAAAAAAAAAAAIAAA2AA4AA24AAAAAA2A22AAAAAA2AAA2AIAAIAAA
AAA2IA2AAAAAAAAAAAAAAAAIAAA2AA4AA24AAAAAA2A22AAAAAA2AAA2AIAAIAIA
AAA2IA2AAAAAAAAAAAAAAAAIAAA2AA4AA22AAAAAA2A22AAAAAA2AAA2AIAAIAIA
AAA2IA2AAAAAAAAAAAAAAAAIAAA2AA4AA22AAAAAA2A22AAAAAA2AAA2AIAAIAAA
AAA2IA2AAAAAAAAAAAAAAAA2AAA2AA4AA22AAAAAA2A22AAAAAA2AAA2AIAAIAAA
AAA2IA2AAAAAAAAAAAAAAAA2AAA2AA4AA2AAAAAAA2A22AAAAAA2AAA2AIAAIAAA
AAA2IA2AAAAAAAAAAAAAAAA2AAA2AA4AA2AAAAAAA2A22AAAAAA2AAA2AIAA2AAA
AAA2IA2AAAAAAAAAAAAAAAA2AAA2AA4AI2AAAAAAA2A22AAAAAA2AAA2AIAA2AAA
AAA2IA2AAAAAAAAAAAAAAAA2AAA2AA4AI2IAAAAAA2A22AAAAAA2AAA2AIAA2AAA
AAA2IA2AAAAAAAAAAAAAAAA2AAA2AA4AI2IAAAAAA2A22AAAAAA2AAA2IIAA2AAA
AAA2IA2AAAAAAAAAAAAAAAA2AAA2AA4AI2IAAAAAA2A22AAAAAA2AAA2AIAA2AAA
AAA2AA2AAAAAAAAAAAAAAAA2AAA2AA4AI2IAAAAAA2A22AAAAAA2AAA2AIAA2AAA
AAA2AA2AAAAAAAAAAAAAAAA2AAA2AA2A222AAAAAA2A22AAAAAA2AAA2AIAA2AAA
AAA2AA2AAAAAAAAAAAAAAAA2AAA2AA2A222AAAAAA2A22AAAAAA2AAA2A2AA2AAA
AAA2AA2AAIAAAAAAAAAAAAA2AAA2AA2A222AAAAAA2A22AAAAAA2AAA2A2AA2AAA
AAA2AA2AAIAAAAAAAAAAAAA2AAA2AI2A222AAAAAA2A22AAAAAA2AAA2A2AA2AAA
AAA2AA2AAIAAAAAAAAAAAAA2AAA2A42A222AAAAAA2A22AAAAAA2AAA2A2AA2AAA
AAA2AAAAAIAAAAAAAAAAAAA2AAA2A42A222AAAAAA2A22AAAAAA2AAA2A2AA2AAA
AAA2AAAAAIAAAAAAAAAAAAAAAAA2A22A222AAAAAA2A22AAAAAA2AAA2A2AA2AAA
AAA2AAIAAIAAAAAAAAAAAAAAAAA2A22A222AAAAAA2A22AAAAAA2AAA2A2AA2AAA
AAA2AAIAAIAAAAAAAAAAAAAAAAA2A22A222AAAAAA2A2AAAAAAA2AAA2A2AA2AAA
AAA2AAIAAIAAAAAAAAAAAAAAAAA2AI2A222AAAAAA2A2AAAAAAA2AAA2A2AA2AAA
AAA2AA2AA2AAAAAAAAAAAAAAAAA2AI2A222AAAAAA2A2AAAAAAA2AAA2A2AA2AAA
AAA2AAAAA2AAAAAAAAAAAAAAAAA2AI2A222AAAAAA2A2AAAAAAA2AAA2A2AA2AAA
AAA2AAAAA2AAAAAAAAAAAAAAAAA2A22A222AAAAAA2A2AAAAAAA2AAA2A2AA2AAA
AAA2AAIAA2AAAAAAAAAAAAAAAAA2A22A222AAAAAA2A2AAAAAAA2AAA2A2AA2AAA
AAA2AIIAA2AAAAAAAAAAAAAAAAA2A22A222AAAAAA2A2AAAAAAA2AAA2A2AA2AAA
AAA2AIIAA2AAAAAAAAAAAAIAAAA2A22A222AAAAAA2A2AAAAAAA2AAA2A2AA2AAA
AAA2AIIAA2AAAAAAAAAAAAIAAAA2A22AA22AAAAAA2A2AAAAAAA2AAA2A2AA2AAA
AAA2AIIAA2AAAAAAAAAAAA4AAAA2A22AA22AAAAAA2A2AAAAAAA2AAA2A2AA2AAA
AAA2AIIAA2AAAAAAAAAAAA4AAAA2A22AA22AAAAAA2A2AAAAAAA2AAA2AAAA2AAA
AAA2AIIAA2AAAAAAAAAAAA4AAAA2A22AA22AAAAAA2A2AAAAAAA2AAA2AAAAAAAA
AAA2AIIAA2AAAAAAAAAAAA4AIAA2A22AA22AAAAAA2A2AAAAAAA2AAA2AAAAAAAA
AAA2AIIAA2AAAAAAAAAAAA4AIAA2A22AA22AAAAAA2A2AAAAAAA2AAA2AAAAIAAA
AAA2AIIAA2AAAAAAAAAAAA4AIAA2A22AA22AAAAAA2A2AAAAAAAAAAA2AAAAIAAA
AAA2AIIAA2AAAAAAAAAAAA4AIAA2A22AA22AAAAAA2A2AAAAAAAAAAA2AAAA2AAA
AAA2A2IAA2AAAAAAAAAAAA4AIAA2A22AA22AAAAAA2A2AAAAAAAAAAA2AAAA2AAA
AAA2A2IAA2AAAAAAAAAAAA4AIAA2A22AA22AAAAAA2A2AAAAAAAAAAA2AIAA2AAA
AAA2A2IAA2AAAAAAAAAAAA4A4AA2A22AA22AAAAAA2A2AAAAAAAAAAA2AIAA2AAA
AAA2A22AA2AAAAAAAAAAAA4A4AA2A22AA22AAAAAA2A2AAAAAAAAAAA2AIAA2AAA
AAA2A22AA2AAAAAAAAAAAA4A4AA2A22AA22AAAAAA2A2AAAAAAAAAAA2IIAA2AAA
AAA2A22AA2AAAAAAAAAAAA4A4AA2A22AA22AAAAAA2A2AAAAAAAAAAA244AA2AAA
AAA2A22AA2AAAAAAAAAAAA4A4AA2A22AA22AAAAAA2A2AAAAAAAIAAA244AA2AAA
AAA2A22AA2AAAAAAAAAAAA4A4AA2A22AA22AAAAAA2A2AAAAAAAIAAA2A2AA2AAA
AAA2A22AA2AAAAAAAAAAAA4A4AA2A22AA22AAAAAA2A2AAAAAAAIAAA2A2AA2AIA
AAA2A2AAA2AAAAAAAAAAAA4A4AA2A22AA22AAAAAA2A2AAAAAAAIAAA2A2AA2AIA
AAA2A2AAA2AAAAAAAAAAAA2A4AA2A22AA22AAAAAA2A2AAAAAAAIAAA2A2AA2AIA
AAA2A2AAA2AAAAAAAAAAAAAA2AA2A22AA22AAAAAA2A2AAAAAAAIAAA2A2AA2AIA
AAA2A2AAA2AAAAAAAAAAAAAAAAA2A22AA22AAAAAA2A2AAAAAAAIAAA2A2AA2AIA
AAA2A2AAA2AAAAAAAAAAAAAAAAA2A22AA22AAAAAA2A2AAAAAAA4AAA2A2AA2AIA
AAA2A2AAA2AAAAAAAAAAAAAAAAA2A22AA22AAAAAA2A2AAAAAAA2AAA2A2AA2A4A
AAA2A2AAA2AAAAAAAAAAAAAAAAA2A22AA22AAAAAA2A2AAAAAAA2AAA2AAAA2A4A
AAA2A2AAA2AAAAAAAAAAAAAAAAA2A22AA22AAAAAA2A2AAAAAAA2AAA2AAAA2A2A
AAA2A2AAA2AAAAAAAAAAAAAAAAA2A22AA22AAAAAA2A2AAAAAAA2AAA2AAAA2AAA
AAAAA2AAA2AAAAAAAAAAAAAAAAA2A22AA22AAAAAA2A2AAAAAAA2AAA2AAAA2AAA
AAAAA2AAA2AAAAAAAAAAAAAAAAA2A22AA22AAAAAA2A2AAAAAAA2AAA2AIAA2AAA
AAAAA2AAA2AAAAAAAAAAAAAAAAA2AA2AA22AAAAAA2A2AAAAAAA2AAA2AIAA2AAA
AAAAA2AAA2AAAAAAAAAAAAAAAAA2AAAAA22AAAAAA2A2AAAAAAA2AAA2AIAA2AAA
AAAAA2AAA2AAAAAAAAAAAAAAAAA2AAAAA2AAAAAAA2A2AAAAAAA2AAA2AIAA2AAA
AAAAA2AAA2AAAAAAAAAAAAAAAAA2AAAAA2AAAAAAA2A2AAAAAAA2AAA2A2AA2AAA
AAAAA2AAA2AAAAAAAAAAAAAAAAA2AAAAA2AAAAAAA2A2AAAAAAA2AAA2A2AA2AIA
AAAAA2AAA2AAAAAAAAAAAAAAAAA2AAAAA2AAAAAAA2A2AAAAAAA2AAA2A2AA2A4A
AAAAA2AAA2AAAAAAAAAAAAAAAAA2AAAAA2AAAAAAA2A2AAAAAAA2AAA2A2AA2AAA
AAAAA2AAA2AAAAAAAAAAAAAAAAA2AAAAA2AAAAAAA2A2AAAAAAA2AAA2AIAA2AAA
AAAAA2AAA2AAAAAAAAAAAAAAAAA2AAAAA2AAAAAAA2A2AAAAAAA2AAA2A4AA2AAA
AAAAA2AAA2AAAAAAAAAAAAAAAAA2AAAAA2AAAAAAA2A2AAAAAAA2AAA2A2AA2AAA
AAAAA2AAA2AAAAAAAAAAAAAAAAA2AAAAA2AAAAAAA2A2AAAAAAA2AAA2AIAA2AAA
AAAAA2AAA2AAAAAAAAAAAAAAAAA2AAAAA2AAAAAAA2A2AAAAAAA2AAA2A2AA2AAA
AAAAA2AAA2AAAAAAAAIAAAAAAAA2AAAAA2AAAAAAA2A2AAAAAAA2AAA2A2AA2AAA
AAAAA2AAA2AAAAAAAA4AAAAAAAA2AAAAA2AAAAAAA2A2AAAAAAA2AAA2A2AA2AAA
AAAAA2AAA2AAAAAAAAAAAAAAAAA2AAAAA2AAAAAAA2A2AAAAAAA2AAA2A2AA2AAA
AAAAA2AAA2AAAAAAAAAAAAAAAAAAAAAAA2AAAAAAA2A2AAAAAAA2AAA2A2AA2AAA
AAAAA2AAA2AAAAAAAAAAAAAAAAAAAAAAA2AAAAAAA2A2AAAAAAA2AAA2AAAA2AAA
AAAAA2AAA2AAAAAAAAAAAAAAAAAAAAAAA2AAAAAAA2A2AAAAAAA2AAA2AAAA2AIA
AAAAAAAAA2AAAAAAAAAAAAAAAAAAAAAAA2AAAAAAA2A2AAAAAAA2AAA2AAAA2AIA
AAAAAAAAA2AAAAAAAAAAAAAAAAAAAAAAA2AAAAAAA2A2AAAAAAA2AAA2AAAA2AAA
AAAAAAAAAAAAAAAAAAAAAAAAAAAAAAAAA2AAAAAAA2A2AAAAAAA2AAA2AAAA2AAA
AAAAAAAAAAAAAAAAAAAAAAAAAAAAAAAAA2AAAAAAA2A2AAAAAAAAAAA2AAAA2AAA
AAAAAAAAAAAAAAAAAAAAAAAAAAAAAAAAA2AAAAAAA2A2AAAAAAAAAAI2AAAA2AAA
AAAAAAIAAAAAAAAAAAAAAAAAAAAAAAAAA2AAAAAAA2A2AAAAAAAAAAI2AAAA2AAA
AAAAAAIAAAAAAAAAAAAAAAAAAAAAAAAAA2AAAAAAA2A2AAAAAAAAAAI2AIAA2AAA
AAAAAAIAAAAAAAAAAAAAAAAAAAAAAAAAA2AAAAAAA2A2AAAAAAAAAAI2AIAA2AIA
AAAAAA2AAAAAAAAAAAAAAAAAAAAAAAAAA2AAAAAAA2A2AAAAAAAAAAI2AIAA2AIA
AAAAAA2AAAAAAAAAAAAAAAAAAAAAAAAAA2AAAAAAA2A2AAAAAAAAAAA2AIAA2AIA
AAAAAA2AAAAAAAAAAAAAAAAAAAAAAAAAA2AAAAAAA2A2AAAAAAAAAAA2AIAA2AAA
AAAAAA2AAAAAAAAAAAAAAAAAAAAAAAAAA2AAAAAAA2A2AAAAAAAAAAA2A4AA2AAA
AAAAAA2AAAAAAAAAAAAAIAAAAAAAAAAAA2AAAAAAA2A2AAAAAAAAAAA2A4AA2AAA
AAAAAA2AAAAAAAAAAAAAIAAAAAAAAAAAA2AAAAAAA2A2AAAAAAAAAAA2A2AA2AAA
AAAAAA2AAAAAAAAAAAAAIAAAAAAAAAAAAAAAAAAAA2A2AAAAAAAAAAA2A2AA2AAA
AAAAAA2AAAAAAAAAAAAA4AAAAAAAAAAAAAAAAAAAA2A2AAAAAAAAAAA2A2AA2AAA
AAAAAA2AAAAAAAAAAAAA4AAAAAAIAAAAAAAAAAAAA2A2AAAAAAAAAAA2A2AA2AAA
AAAAAA2AAAAAAAAAAAAA4AAAAAAIAAAAAAIAAAAAA2A2AAAAAAAAAAA2A2AA2AAA
AAAAAA2AAAAAAAAAAAAA4AAAAAAIAAAAAAIAAAAAA2A2AAAAAAAAAAA2AAAA2AAA
AAAAAA2AAAAAAAAAAAAA4AAAAAAIAAAAAAIAAAAAA2A2AAAAAAAAAAA2AAAA2AIA
AAAAAA2AAAAAAAAAAAAA4AAAAAAIAAAAAAIAAAAAA2A2AAAAAAAAAAA2IAAA2AIA
AAAAAA2AAAAAAAAAAAAA4AAAAAAIAAAAAAIAAAAAA2A2AAAAAAAAAAA2IAAA2AAA
AAAAAA2AAAAAAAAAAAAA4AAAAAA4AAAAAA4AAAAAA2A2AAAAAAAAAAA2IAAA2AAA
AAAAAAAAAAAAAAAAAAAA4AAAAAA4AAAAAA4AAAAAA2A2AAAAAAAAAAA2IAAA2AAA
AAAAAAAAAAAAAAAAAAAA2AAAAAA4AAAAAA4AAAAAA2A2AAAAAAAAAAA2IAAA2AAA
AAAAAAAAAAAAAAAAAAAA2AAAAAA2AAAAAA4AAAAAA2A2AAAAAAAAAAA2IAAA2AAA
AAAAAAAAAAAAAAAAAAAA2AAAAAA2AAAAAA2AAAAAA2A2AAAAAAAAAAA2IAAA2AAA
AAAAAAAAAAAAAAAAAAAA2AAAAAA2AAAAAA2AAAAAA2A2AAAAAAAAAAA24AAA2AAA
AAAAAAAAAAAAAAAAAAAA2AAAAAA2AAAAAA2AAAAAA2A2AAAAAAAAAAA2AAAA2AAA
AAAAAAAAAAAAAAAAAAAA2AAAAAA2AAAAAA2AAAAAA2A2AAAAAAAAAAA2AAAA2AIA
AAAAAAAAAAAAAAAAAAAA2AAAAAA2AAAAAAIAAAAAA2A2AAAAAAAAAAA2AAAA2AIA
AAAAAAAAAAAAAAAAAAAAIAAAAAA2AAAAAAIAAAAAA2A2AAAAAAAAAAA2AAAA2AIA
AAAAAAAAAAAAAAAAAAAAIIAAAAA2AAAAAAIAAAAAA2A2AAAAAAAAAAA2AAAA2AIA
AAAAAAAAAAAAAAAAAAAAI4AAAAA2AAAAAAIAAAAAA2A2AAAAAAAAAAA2AAAA2AIA
AAAAAAAAAAAAAAAAAAAAI4AAAAA2AAAAAAIAAAAAA2A2AAAAAAAAAAA2AAAA2A4A
AAAAAAAAAAAAAAAAAAAAI4AAAAA2AAAAAAIAAAAAA2A2AAAAAAAAAAA2IAAA2A4A
AAAAAAAAAAAAAAAAAAAA44AAAAA2AAAAAAIAAAAAA2A2AAAAAAAAAAA2IAAA2A4A
AAAAAAAAAAAAAAAAAAAA44AAAAA2AAAAAAIAAAAAA2A2AAAAAAAAAAAAIAAA2A4A
AAAAAAAAAAAAAAAAAAAA44AAAAA2AAAAAAIAAAAAA2A2AAAAAAAAAAAAAAAA2A2A
AAAAAAAAAAAAAAAAAAAA44AAAAA2AAAAAAIAAAAAA2A2AAAAAAAAAAAAAAAA2AAA
AAAAAAAAAAAAAAAAAAAA44AAAAA2AAAAAAAAAAAAA2A2AAAAAAAAAAAAAAAA2AAA
AAAAAAAAAAAAAAAAAAAA44AAAAA2AAAAAAIAAAAAA2A2AAAAAAAAAAAAAAAA2AAA
AAAAAAAAAAAAAAAAAAAA44AAAAA2AAAAAAAAAAAAA2A2AAAAAAAAAAAAAAAA2AAA
AAAAAAAAAAAAAAAAAAAA42AAAAA2AAAAAAAAAAAAA2A2AAAAAAAAAAAAAAAA2AAA
AAAAAAAAAAAAAAAAAAAA42AAAIA2AAAAAAAAAAAAA2A2AAAAAAAAAAAAAAAA2AAA
AAAAAAAAAAAAAAAAAAAA42AAA4A2AAAAAAAAAAAAA2A2AAAAAAAAAAAAAAAA2AAA
AAAAAAAAAAIAAAAAAAAA42AAA4A2AAAAAAAAAAAAA2A2AAAAAAAAAAAAAAAA2AAA
AAAAAAAAAA4AAAAAAAAA42AAA4A2AAAAAAAAAAAAA2A2AAAAAAAAAAAAAAAA2AAA
AAAAAAAAAA4AAAAAAAAA42AAA2A2AAAAAAAAAAAAA2A2AAAAAAAAAAAAAAAA2AAA
AAAAAAAAAAAAAAAAAAAA42AAA2A2AAAAAAAAAAAAA2A2AAAAAAAAAAAAAAAA2AAA
AAAAAAAAAAIAAAAAAAAA42AAA2A2AAAAAAAAAAAAA2A2AAAAAAAAAAAAAAAA2AAA
AAAAAAAAAAIAAAAAAAAA4AAAA2A2AAAAAAAAAAAAA2A2AAAAAAAAAAAAAAAA2AAA
AAAAAAAAAAIAAAAAAAAA4AAAA2A2AAAAAAAAAAAAA2A2AAAAAAAIAAAAAAAA2AAA
AAAAAAAAAA4AAAAAAAAA4AAAA2A2AAAAAAAAAAAAA2A2AAAAAAAIAAAAAAAA2AAA
AAAAAAAAAA2AAAAAAAAA4AAAA2A2AAAAAAAAAAAAA2A2AAAAAAAIAAAAAAAA2AAA
AAAAAAAAAAAAAAAAAAAA4AAAA2A2AAAAAAAAAAAAA2A2AAAAAAAIAAAAAAAA2AAA
AAAAAAAAAAAAAAAAAAAA2AAAA2A2AAAAAAAAAAAAA2A2AAAAAAAIAAAAAAAA2AAA
AAAAAAAAAAAAAAAAAAAA2AAAA2A2AAAAAAAAAAAAA2A2AAAAAAA4AAAAAAAA2AAA
AAAAAAAAAAAAAAAAAAAA2AAAA2A2AAAAAAAAAAAAA2A2AAAAAAA2AAAAAAAA2AAA
AAAAAAAAAAAAAAAAAAAA2AAAA2A2AAAAAAAAAAAAA2A2AAAAAAA2AAAAAAAI2AAA
AAAAAAAAAAAAAAAAAAAA2AAAA2A2AAAAAAAAAAAAA2A2AAAAAAA2AAAAAAA22AAA
AAAAAAAAAAAAAAAAAAAA2AAAA2A2AAAAAAAAAAAAA2A2AAAAAAA2AAAAAAA22AIA
AAAAAAAAAAAAAAAAAAAA2AAAA2A2AAAAAAAAAAAAA2A2AAAAAAA2AAAAAAA22AAA
AAAAAAAAAAAAAAAAAAAA2AAAA2A2AAAAAAIAAAAAA2A2AAAAAAA2AAAAAAA22AAA
AAAAAAAAAAAAAAAAAAAA2AAAA2I2AAAAAAIAAAAAA2A2AAAAAAA2AAAAAAA22AAA
AAAAAAAAAAAAAAAAAAAA2AAAA2I2AAAAAAIAAAAAA2A2AAAAAAA2AAAAAAA22AIA
AAAAAAAAAAIAAAAAAAAA2AAAA2I2AAAAAAIAAAAAA2A2AAAAAAA2AAAAAAA22AIA
AAAAAAAAAAIAAAAAAAAA2AAAA222AAAAAA4AAAAAA2A2AAAAAAA2AAAAAAA22AIA
AAAAAAAAAA4AAAAAAAAA2AAAA222AAAAAA4AAAAAA2A2AAAAAAA2AAAAAAA22AIA
AAAAAAAAAAAAAAAAAAAA2AAAA222AAAAAA4AAAAAA2A2AAAAAAA2AAAAAAA22AIA
AAAAAAAAAAAAAAAAAAAA2AAAA222AAAAAA4AAAAAA2A2AAAAAAA2AAAAAAA22AAA
AAAAAAAAAAAAAAAAAAAA2AAAA222AAAAAA4AAAAAA2A2AAAAAAA2AAAAIAA22AAA
AAAAAAAAAAAAAAAAAAAA2AAAA222AAAAAA2AAAAAA2A2AAAAAAA2AAAAIAA22AAA
AAAAAAAAAAAAAAAAAAAA2AAAA222AAAAAA2AAAAAA2A2AAAAAAA2AAAAAAA22AAA
AAAAAAAAAAAAAAAAAAAA2AAAA222AAAAAA2AAAAAA2A2AAAAAAA2AAAAAAA22AIA
AAAAAAAAAAAAAAAAAAIA2AAAA222AAAAAA2AAAAAA2A2AAAAAAA2AAAAAAA22AIA
AAAAAAAAAAAAAAAAAA2A2AAAA222AAAAAA2AAAAAA2A2AAAAAAA2AAAAAAA22AIA
AAAAAAAAAAAAAAAAAA2A2AAAA222AAAAAA2AAAAAA2A2AAAAAAA2AAAAAAA22AAA
AAAAAAAAAAAAAAAAAA2A2AAAA222AAAAAA2AAAAAA2A2AAAAAAA2AAAAAAA22AIA
AAAAAAAAAAAAAAAAAA2A2AAAA222AAAAAA2AAAAAA2A2AAAAAAAAAAAAAAA22AIA
AAAAAAAAAAAAAAAAAA2A2AAAA222AAAAAA2AAAAAA2A2AAAAAAAAAAAAAAA22AAA
AAAAAAAAAAAAAAAAAAAA2AAAA222AAAAAA2AAAAAA2A2AAAAAAAAAAAAAAA22AAA
AAAAAAAAAAAAAAAAAAAA2AAAA222AAAAAAAAAAAAA2A2AAAAAAAAAAAAAAA22AAA
AAAAAAAAAAAAAAAAAAAA2AAAA222AAAAAAAAAAAAA2A2AAAAAAAAAAAAAAA2AAAA
AAAAAAAAAAAAAAAAAAIA2AAAA222AAAAAAAAAAAAA2A2AAAAAAAAAAAAAAA2AAAA
AAAAAAAAAAAAAAAAAAIA2AAIA222AAAAAAAAAAAAA2A2AAAAAAAAAAAAAAA2AAAA
AAAAAAAAAAAAAAAAAAIA2AAII222AAAAAAAAAAAAA2A2AAAAAAAAAAAAAAA2AAAA
AAAAAAAAAAAAAAAAAAIA2AAII222AAAAAAAIAAAAA2A2AAAAAAAAAAAAAAA2AAAA
AAAAAAAAAAAAAAAAAAIA2AAII222AAAAAAAIAAAIA2A2AAAAAAAAAAAAAAA2AAAA
AAAAAAAAAAAAAAAAAA4A2AAII222AAAAAAAIAAAIA2A2AAAAAAAAAAAAAAA2AAAA
AAAAAAAAAAAAAAAAAA2A2AA44222AAAAAAAIAAAIA2A2AAAAAAAAAAAAAAA2AAAA
AAAAAAAAAAAAAAAAAAAA2AA44222AAAAAAA4AAAIA2A2AAAAAAAAAAAAAAA2AAAA
AAAAAAAAAAAAAAAAAAAAAAA22222AAAAAAA4AAAIA2A2AAAAAAAAAAAAAAA2AAAA
AAAAAAAAAAAAAAAAAAAAAAA22222AAAAAAA4AAA4A2A2AAAAAAAAAAAAAAA2AAAA
AAAAAAAAAAAAAAAAAAAAAAA22222AAAAAAA2AAA2A2A2AAAAAAAAAAAAAAA2AAAA
AAAAAAAAAAAAAAAAAAAAAAA22222AAAAAAAAAAA2A2A2AAAAAAAAAAAAAAA2AAAA
AAAAAAAAAAAAAAAAAAAAAAA22222AAAAAAAAAAA2A2A2AAAAAAAAAAAAAAA2AAIA
AAAAAAAAAAAAAAAAAAAAAAA22222AAAAAAAAAAA2A2A2AAAAAAAAAAAAAAA2AIIA
AAAAAAAAAAAAAAAAAAAAIAA22222AAAAAAAAAAA2A2A2AAAAAAAAAAAAAAA2AIIA
AAAAAAAAAAAAAAAAAAAAIAA2I222AAAAAAAAAAA2A2A2AAAAAAAAAAAAAAA2AIIA
AAAAAAAAAAAAAAAAAAAAIAA2I222AAAAAAAAAAAIA2A2AAAAAAAAAAAAAAA2AIIA
AAAAAAAAAAAAAAAAAAAAIAA2I222AAAAAAAAAAAIA2A2AAAAAAAAAAAAAAA2A44A
AAAAAAAAAAAAAAAAAAAAIAA2I222AAAAAAAAAAAIA2A2AAAAAAAAAAAAAAA2A4AA
AAAAAAAAAAAAAAAAAAAAIAA24222AAAAAAAAAAAIA2A2AAAAAAAAAAAAAAA2A4AA
AAAAAAAAAAAAAAAAAAAA4AA24222AAAAAAAAAAAIA2A2AAAAAAAAAAAAAAA2A4AA
AAAAAAAAAAAAAAAAAAAA4AA24222AAAAAAAAAAA4A2A2AAAAAAAAAAAAAAA2A4AA
AAAAAAAAAAAAAAAAAAAA4AA24222AAAAAAAAAAA4A2A2AAAAAAAAAAAAAAA2A2AA
AAAAAAAAAAAAAAAAAAAA4AA24222AAAAAAAAAAA4A2A2AAAAAAAAAAAAIAA2A2AA
AAAAAAAAAAAAAAAAAAAA4AA22222AAAAAAAAAAA4A2A2AAAAAAAAAAAAIAA2A2AA
AAAAAAAAAAAAAAAAAAAA4AA22222AAAAAAAAAAA4A2A2AAAAAAAAAAAAAAA2A2AA
AAAAAAAAAAAAAAAAAAAA4AA22222AAAAAAAIAAA4A2A2AAAAAAAAAAAAAAA2A2AA
AAAAAAAAAAAAAAAAAAAA4AA22222AAAAAAAIAAAAA2A2AAAAAAAAAAAAAAA2A2AA
AAAAAAAAAAAAAAAAAAAA4AA222A2AAAAAAAIAAAAA2A2AAAAAAAAAAAAAAA2A2AA
AAAAAAAAAAAAAAAAAAAA4AA222A2AAAAAAA4AAAAA2A2AAAAAAAAAAAAAAA2A2AA
AAAAAAAAAAAAAAAAAAAA4AA222A2AAAAAAA4AAAAA2A2AAAAAAAAAAAAAAA2AAAA
AAAAAAAAAAAAAAAAAAAA4AA222A2AAAAAAA4AAAAA2A2AAAAAAAAAAAAAAA2AAIA
AAAAAAAAAAAAAAAAAAAA4AA222A2AAAAAAA4AAAAA2A2AAAAAAAAAAAAAAA2AAII
AAAAAAAAAAIAAAAAAAAA4AA222A2AAAAAAA4AAAAA2A2AAAAAAAAAAAAAAA2AAII
AAAAAAAAAAIAAAAAAAAA4AA2A2A2AAAAAAA4AAAAA2A2AAAAAAAAAAAAAAA2AAII
AAAAAAAAAAIAAAAAAAAA4AA2A2A2AAAAAAA4AAAAA2A2AAAAAAAAAAAAAAA2AA44
AAAAAAAAAAIAAAAAAAAA4AA2A2A2AAAAAAA4AAAAA2A2AAAAAAAAAAAAAAA2AAA2
AAAAAAAAAA2AAAAAAAAA4AA2A2A2AAAAAAA4AAAAA2A2AAAAAAAAAAAAAAA2AAA2
AAAAAAAAAA2AAAAAAAAA2AA2A2A2AAAAAAA4AAAAA2A2AAAAAAAAAAAAAAA2AAA2
AAAAAAAAAA2AAAAAAAAAIAA2A2A2AAAAAAA4AAAAA2A2AAAAAAAAAAAAAAA2AAA2
AAAAAAAAAA2IAAAAAAAAIAA2A2A2AAAAAAA4AAAAA2A2AAAAAAAAAAAAAAA2AAA2
AAAAAAAAAA2IAAAAAAAA4AA2A2A2AAAAAAA4AAAAA2A2AAAAAAAAAAAAAAA2AAA2
AAAAAAAAAA24AAAAAAAA4AA2A2A2AAAAAAA4AAAAA2A2AAAAAAAAAAAAAAA2AAA2
AAAAAAAAAAA2AAAAAAAA4AA2A2A2AAAAAAA4AAAAA2A2AAAAAAAAAAAAAAA2AAA2
AAAAAAAAAAA2AAAAAAAA4AA2A2A2AAAAAAAAAAAAA2A2AAAAAAAAAAAAAAA2AAA2
AAAAAAAAAAAIAAAAAAAA4AA2A2A2AAAAAAAAAAAAA2A2AAAAAAAAAAAAAAA2AAA2
AAAAAAAAAAAIAAAAAAAA4AA2A2A2AAAAAAAAAAAAA2A2AAAAAAAAAAAAAAA2AIA2
AAAAAAAAAAAIAAAAAAAA4AA2A2A2AAAAAAAAAAAAA2A2AAAAAAAAAAAAAAA2A2A2
AAAAAAAAAAAIAAAAAAAA4AA2A2A2AAAAAAAAAAAAA2AAAAAAAAAAAAAAAAA2A2A2
AAAAAAAAAAA4AAAAAAAA4AA2A2A2AAAAAAAAAAAAA2AAAAAAAAAAAAAAAAA2A2A2
AAAAAAAAAAA4AAAAAAAA4AA2A2A2AAAAAAAAAAAAA2AIAAAAAAAAAAAAAAA2A2A2
AAAAAAAAAAAAAAAAAAAA4AA2A2A2AAAAAAAAAAAAA2AIAAAAAAAAAAAAAAA2A2A2
AAAAAAAAAAAAAAAAAAAA4AAAA2A2AAAAAAAAAAAAA2AIAAAAAAAAAAAAAAA2A2A2
AAAAAAAAAAAAAAAAAAAA4AAAA2A2AAAAAAAAAAAAA2A4AAAAAAAAAAAAAAA2A2A2
AAAAAAAAAAAAAAAAAAAA4AAAA2A2AAAAAAAAAAAAA2A4AAAAAAAAAAAAAAA2AAA2
AAAAAAAAAAAAAAAAAAAA4AAAA2A2AAAAAAAAAAAAA2A4AAAAAAAAAAAAAAA2AAAA
AAAAAAAAAAAAAAAAAAAA4AAAA2A2AAAAAAAAAAAAA2A4AAAAAAAAAAAAAAA2AAAI
AAAAIAAAAAAAAAAAAAAA4AAAA2A2AAAAAAAAAAAAA2A4AAAAAAAAAAAAAAA2AAAI
AAAAIAAAAAAAAAAAAAAA4IAAA2A2AAAAAAAAAAAAA2A4AAAAAAAAAAAAAAA2AAAI
AAAAIAAAAAAAAAAAAAAA4IAAA2A2AIAAAAAAAAAAA2A4AAAAAAAAAAAAAAA2AAAI
[MLOP] Prefetch Degree Mean: 11.02128
[MLOP] Prefetch Degree SD: 2.65085
[MLOP] Max Score Left Mean (%): 52.59506
[MLOP] Max Score Left SD (%): 10.00592
[MLOP] Max Score Right Mean (%): 82.09293
[MLOP] Max Score Right SD (%): 12.66413

Channel_0_RQ_row_buffer_hit 322902
Channel_0_RQ_row_buffer_miss 820515
Channel_0_WQ_row_buffer_hit 197301
Channel_0_WQ_row_buffer_miss 200059
Channel_0_WQ_full 0
Channel_0_dbus_congested 416207

avg_congested_cycle 10

DRAM_bw_pochs 706056
DRAM_bw_level_0 616869
DRAM_bw_level_1 72971
DRAM_bw_level_2 8811
DRAM_bw_level_3 7405
