*************************************************
   ChampSim Multicore Out-of-Order Simulator
   Last compiled: Apr  3 2025 20:54:34
*************************************************
parsing config file: /home/zir/Pythia/config/nopref.ini

trace_0 /home/zir/ChampSim/ML-DPC/ChampSimTraces/gap/sssp-3.trace.gz
adding L2C_PREFETCHER: NONE
Initialize SHIP state
warmup_instructions 10000000
simulation_instructions 50000000
champsim_seed 51
measure_ipc 0
measure_ipc_epoch 1000
measure_dram_bw 1
measure_dram_bw_epoch 256
measure_cache_acc 1
measure_cache_acc_epoch 1024
l1d_perfect 0
l2c_perfect 0
llc_perfect 0
l1d_semi_perfect 0
l2c_semi_perfect 0
llc_semi_perfect 0
semi_perfect_cache_page_buffer_size 64

num_cpus 1
cpu_freq 4000
dram_io_freq 2400
page_size 4096
block_size 64
max_read_per_cycle 8
max_fill_per_cycle 1
dram_channels 1
log2_dram_channels 0
dram_ranks 1
dram_banks 8
dram_rows 65536
dram_columns 128
dram_row_size 8
dram_size 4096
dram_pages 1048576

fetch_width 6
decode_width 6
exec_width 4
lq_width 2
sq_width 2
retire_width 4
scheduler_size 128
branch_mispredict_penalty 20
rob_size 256
lq_size 72
sq_size 56
num_instr_destinations_sparc 4
num_instr_destinations 2
num_instr_sources 4

itlb_set 16
itlb_way 8
itlb_rq_size 16
itlb_wq_size 16
itlb_pq_size 0
itlb_mshr_size 8
itlb_latency 1

dtlb_set 16
dtlb_way 4
dtlb_rq_size 16
dtlb_wq_size 16
dtlb_pq_size 0
dtlb_mshr_size 8
dtlb_latency 1

stlb_set 128
stlb_way 12
stlb_rq_size 32
stlb_wq_size 32
stlb_pq_size 0
stlb_mshr_size 16
stlb_latency 8

l1i_size 32
l1i_set 64
l1i_way 8
l1i_rq_size 64
l1i_wq_size 64
l1i_pq_size 8
l1i_mshr_size 8
l1i_latency 1

l1d_size 32
l1d_set 64
l1d_way 8
l1d_rq_size 64
l1d_wq_size 64
l1d_pq_size 8
l1d_mshr_size 16
l1d_latency 4

l2c_size 256
l2c_set 512
l2c_way 8
l2c_rq_size 32
l2c_wq_size 32
l2c_pq_size 32
l2c_mshr_size 32
l2c_latency 10

llc_size 2048
llc_set 2048
llc_way 16
llc_rq_size 32
llc_wq_size 32
llc_pq_size 32
llc_mshr_size 64
llc_latency 20

dram_channel_width 8
dram_wq_size 64
dram_rq_size 64
tRP 15
tRCD 15
tCAS 12.5
dram_dbus_turn_around_time 30
dram_write_high_wm 56
dram_write_low_wm 48
min_dram_writes_per_switch 16
dram_mtps 2400
dram_dbus_return_time 13


Heartbeat CPU  0 instructions:    1000003 cycles:     262639 heartbeat IPC: 3.80752 cumulative IPC: 3.80752 (Simulation time: 0 hr 0 min 1 sec) 
Heartbeat CPU  0 instructions:    2000000 cycles:     771291 heartbeat IPC: 1.96597 cumulative IPC: 2.59306 (Simulation time: 0 hr 0 min 2 sec) 
Heartbeat CPU  0 instructions:    3000000 cycles:    1337212 heartbeat IPC: 1.76703 cumulative IPC: 2.24347 (Simulation time: 0 hr 0 min 4 sec) 
Heartbeat CPU  0 instructions:    4000000 cycles:    1990001 heartbeat IPC: 1.53189 cumulative IPC: 2.01005 (Simulation time: 0 hr 0 min 5 sec) 
Heartbeat CPU  0 instructions:    5000003 cycles:    2784645 heartbeat IPC: 1.25843 cumulative IPC: 1.79556 (Simulation time: 0 hr 0 min 6 sec) 
Heartbeat CPU  0 instructions:    6000000 cycles:    3658188 heartbeat IPC: 1.14476 cumulative IPC: 1.64016 (Simulation time: 0 hr 0 min 7 sec) 
Heartbeat CPU  0 instructions:    7000002 cycles:    4539569 heartbeat IPC: 1.13459 cumulative IPC: 1.54200 (Simulation time: 0 hr 0 min 8 sec) 
Heartbeat CPU  0 instructions:    8000000 cycles:    5421028 heartbeat IPC: 1.13448 cumulative IPC: 1.47573 (Simulation time: 0 hr 0 min 10 sec) 
Heartbeat CPU  0 instructions:    9000000 cycles:    6296318 heartbeat IPC: 1.14248 cumulative IPC: 1.42941 (Simulation time: 0 hr 0 min 11 sec) 
Heartbeat CPU  0 instructions:   10000001 cycles:    7158925 heartbeat IPC: 1.15928 cumulative IPC: 1.39686 (Simulation time: 0 hr 0 min 12 sec) 

Warmup complete CPU  0 instructions:   10000001 cycles:    7158925 (Simulation time: 0 hr 0 min 12 sec) 

Heartbeat CPU  0 instructions:   11000000 cycles:   11751926 heartbeat IPC: 0.21772 cumulative IPC: 0.21772 (Simulation time: 0 hr 0 min 14 sec) 
Heartbeat CPU  0 instructions:   12000000 cycles:   16286986 heartbeat IPC: 0.22050 cumulative IPC: 0.21910 (Simulation time: 0 hr 0 min 16 sec) 
Heartbeat CPU  0 instructions:   13000001 cycles:   20722218 heartbeat IPC: 0.22547 cumulative IPC: 0.22119 (Simulation time: 0 hr 0 min 18 sec) 
Heartbeat CPU  0 instructions:   14000002 cycles:   25154495 heartbeat IPC: 0.22562 cumulative IPC: 0.22228 (Simulation time: 0 hr 0 min 20 sec) 
Heartbeat CPU  0 instructions:   15000001 cycles:   29492555 heartbeat IPC: 0.23052 cumulative IPC: 0.22388 (Simulation time: 0 hr 0 min 22 sec) 
Heartbeat CPU  0 instructions:   16000000 cycles:   33976508 heartbeat IPC: 0.22302 cumulative IPC: 0.22373 (Simulation time: 0 hr 0 min 24 sec) 
Heartbeat CPU  0 instructions:   17000002 cycles:   38431236 heartbeat IPC: 0.22448 cumulative IPC: 0.22384 (Simulation time: 0 hr 0 min 26 sec) 
Heartbeat CPU  0 instructions:   18000000 cycles:   42623039 heartbeat IPC: 0.23856 cumulative IPC: 0.22558 (Simulation time: 0 hr 0 min 28 sec) 
Heartbeat CPU  0 instructions:   19000000 cycles:   47210757 heartbeat IPC: 0.21797 cumulative IPC: 0.22471 (Simulation time: 0 hr 0 min 30 sec) 
Heartbeat CPU  0 instructions:   20000000 cycles:   51390775 heartbeat IPC: 0.23923 cumulative IPC: 0.22608 (Simulation time: 0 hr 0 min 32 sec) 
Heartbeat CPU  0 instructions:   21000000 cycles:   55494163 heartbeat IPC: 0.24370 cumulative IPC: 0.22758 (Simulation time: 0 hr 0 min 34 sec) 
Heartbeat CPU  0 instructions:   22000002 cycles:   59532316 heartbeat IPC: 0.24764 cumulative IPC: 0.22912 (Simulation time: 0 hr 0 min 36 sec) 
Heartbeat CPU  0 instructions:   23000000 cycles:   63473872 heartbeat IPC: 0.25371 cumulative IPC: 0.23084 (Simulation time: 0 hr 0 min 38 sec) 
Heartbeat CPU  0 instructions:   24000000 cycles:   67408885 heartbeat IPC: 0.25413 cumulative IPC: 0.23237 (Simulation time: 0 hr 0 min 40 sec) 
Heartbeat CPU  0 instructions:   25000002 cycles:   71362684 heartbeat IPC: 0.25292 cumulative IPC: 0.23363 (Simulation time: 0 hr 0 min 42 sec) 
Heartbeat CPU  0 instructions:   26000001 cycles:   75321673 heartbeat IPC: 0.25259 cumulative IPC: 0.23473 (Simulation time: 0 hr 0 min 44 sec) 
Heartbeat CPU  0 instructions:   27000003 cycles:   79247576 heartbeat IPC: 0.25472 cumulative IPC: 0.23582 (Simulation time: 0 hr 0 min 46 sec) 
Heartbeat CPU  0 instructions:   28000000 cycles:   83110570 heartbeat IPC: 0.25887 cumulative IPC: 0.23699 (Simulation time: 0 hr 0 min 48 sec) 
Heartbeat CPU  0 instructions:   29000000 cycles:   86926866 heartbeat IPC: 0.26203 cumulative IPC: 0.23819 (Simulation time: 0 hr 0 min 50 sec) 
Heartbeat CPU  0 instructions:   30000001 cycles:   90771085 heartbeat IPC: 0.26013 cumulative IPC: 0.23920 (Simulation time: 0 hr 0 min 52 sec) 
Heartbeat CPU  0 instructions:   31000003 cycles:   94570408 heartbeat IPC: 0.26321 cumulative IPC: 0.24024 (Simulation time: 0 hr 0 min 55 sec) 
Heartbeat CPU  0 instructions:   32000000 cycles:   98453376 heartbeat IPC: 0.25753 cumulative IPC: 0.24098 (Simulation time: 0 hr 0 min 57 sec) 
Heartbeat CPU  0 instructions:   33000002 cycles:  102262577 heartbeat IPC: 0.26252 cumulative IPC: 0.24184 (Simulation time: 0 hr 0 min 59 sec) 
Heartbeat CPU  0 instructions:   34000000 cycles:  106174324 heartbeat IPC: 0.25564 cumulative IPC: 0.24239 (Simulation time: 0 hr 1 min 1 sec) 
Heartbeat CPU  0 instructions:   35000000 cycles:  110306104 heartbeat IPC: 0.24203 cumulative IPC: 0.24237 (Simulation time: 0 hr 1 min 3 sec) 
Heartbeat CPU  0 instructions:   36000000 cycles:  114021458 heartbeat IPC: 0.26915 cumulative IPC: 0.24330 (Simulation time: 0 hr 1 min 5 sec) 
Heartbeat CPU  0 instructions:   37000000 cycles:  117778079 heartbeat IPC: 0.26620 cumulative IPC: 0.24408 (Simulation time: 0 hr 1 min 7 sec) 
Heartbeat CPU  0 instructions:   38000003 cycles:  121540441 heartbeat IPC: 0.26579 cumulative IPC: 0.24479 (Simulation time: 0 hr 1 min 9 sec) 
Heartbeat CPU  0 instructions:   39000002 cycles:  125449612 heartbeat IPC: 0.25581 cumulative IPC: 0.24516 (Simulation time: 0 hr 1 min 11 sec) 
Heartbeat CPU  0 instructions:   40000000 cycles:  129462242 heartbeat IPC: 0.24921 cumulative IPC: 0.24529 (Simulation time: 0 hr 1 min 13 sec) 
Heartbeat CPU  0 instructions:   41000000 cycles:  133689823 heartbeat IPC: 0.23654 cumulative IPC: 0.24500 (Simulation time: 0 hr 1 min 15 sec) 
Heartbeat CPU  0 instructions:   42000002 cycles:  137658669 heartbeat IPC: 0.25196 cumulative IPC: 0.24521 (Simulation time: 0 hr 1 min 17 sec) 
Heartbeat CPU  0 instructions:   43000001 cycles:  141394569 heartbeat IPC: 0.26767 cumulative IPC: 0.24584 (Simulation time: 0 hr 1 min 19 sec) 
Heartbeat CPU  0 instructions:   44000000 cycles:  145037736 heartbeat IPC: 0.27449 cumulative IPC: 0.24659 (Simulation time: 0 hr 1 min 21 sec) 
Heartbeat CPU  0 instructions:   45000001 cycles:  148639325 heartbeat IPC: 0.27766 cumulative IPC: 0.24738 (Simulation time: 0 hr 1 min 24 sec) 
Heartbeat CPU  0 instructions:   46000000 cycles:  152426275 heartbeat IPC: 0.26406 cumulative IPC: 0.24782 (Simulation time: 0 hr 1 min 26 sec) 
Heartbeat CPU  0 instructions:   47000002 cycles:  156044498 heartbeat IPC: 0.27638 cumulative IPC: 0.24851 (Simulation time: 0 hr 1 min 28 sec) 
Heartbeat CPU  0 instructions:   48000000 cycles:  159807349 heartbeat IPC: 0.26576 cumulative IPC: 0.24894 (Simulation time: 0 hr 1 min 30 sec) 
Heartbeat CPU  0 instructions:   49000000 cycles:  163421895 heartbeat IPC: 0.27666 cumulative IPC: 0.24958 (Simulation time: 0 hr 1 min 32 sec) 
Heartbeat CPU  0 instructions:   50000001 cycles:  166961923 heartbeat IPC: 0.28248 cumulative IPC: 0.25031 (Simulation time: 0 hr 1 min 34 sec) 
Heartbeat CPU  0 instructions:   51000002 cycles:  170535343 heartbeat IPC: 0.27984 cumulative IPC: 0.25095 (Simulation time: 0 hr 1 min 36 sec) 
Heartbeat CPU  0 instructions:   52000000 cycles:  174026416 heartbeat IPC: 0.28644 cumulative IPC: 0.25170 (Simulation time: 0 hr 1 min 38 sec) 
Heartbeat CPU  0 instructions:   53000002 cycles:  177568036 heartbeat IPC: 0.28236 cumulative IPC: 0.25233 (Simulation time: 0 hr 1 min 41 sec) 
Heartbeat CPU  0 instructions:   54000003 cycles:  181266896 heartbeat IPC: 0.27035 cumulative IPC: 0.25272 (Simulation time: 0 hr 1 min 43 sec) 
Heartbeat CPU  0 instructions:   55000000 cycles:  184760072 heartbeat IPC: 0.28627 cumulative IPC: 0.25338 (Simulation time: 0 hr 1 min 45 sec) 
Heartbeat CPU  0 instructions:   56000000 cycles:  188285838 heartbeat IPC: 0.28363 cumulative IPC: 0.25397 (Simulation time: 0 hr 1 min 47 sec) 
Heartbeat CPU  0 instructions:   57000003 cycles:  191760091 heartbeat IPC: 0.28783 cumulative IPC: 0.25460 (Simulation time: 0 hr 1 min 49 sec) 
Heartbeat CPU  0 instructions:   58000000 cycles:  195410002 heartbeat IPC: 0.27398 cumulative IPC: 0.25498 (Simulation time: 0 hr 1 min 51 sec) 
Heartbeat CPU  0 instructions:   59000001 cycles:  198906585 heartbeat IPC: 0.28599 cumulative IPC: 0.25554 (Simulation time: 0 hr 1 min 53 sec) 
Heartbeat CPU  0 instructions:   60000000 cycles:  202462634 heartbeat IPC: 0.28121 cumulative IPC: 0.25601 (Simulation time: 0 hr 1 min 56 sec) 
Finished CPU 0 instructions: 50000003 cycles: 195303717 cumulative IPC: 0.25601 (Simulation time: 0 hr 1 min 56 sec) 

ChampSim completed all CPUs

[ROI Statistics]
Core_0_instructions 50000003
Core_0_cycles 195303717
Core_0_IPC 0.25601

Core_0_branch_prediction_accuracy 94.04406
Core_0_branch_MPKI 8.75888
Core_0_average_ROB_occupancy_at_mispredict 103.17193

Core_0_L1D_total_access 12952131
Core_0_L1D_total_hit 10366893
Core_0_L1D_total_miss 2585238
Core_0_L1D_loads 11602264
Core_0_L1D_load_hit 9304988
Core_0_L1D_load_miss 2297276
Core_0_L1D_RFOs 1349867
Core_0_L1D_RFO_hit 1061905
Core_0_L1D_RFO_miss 287962
Core_0_L1D_prefetches 0
Core_0_L1D_prefetch_hit 0
Core_0_L1D_prefetch_miss 0
Core_0_L1D_writebacks 0
Core_0_L1D_writeback_hit 0
Core_0_L1D_writeback_miss 0
Core_0_L1D_prefetch_requested 0
Core_0_L1D_prefetch_dropped 0
Core_0_L1D_prefetch_issued 0
Core_0_L1D_prefetch_filled 0
Core_0_L1D_prefetch_useful 0
Core_0_L1D_prefetch_useless 0
Core_0_L1D_prefetch_late 0
Core_0_L1D_average_miss_latency 99.74964

Core_0_L1D_rq_access 17863101
Core_0_L1D_rq_forward 0
Core_0_L1D_rq_merged 5460368
Core_0_L1D_rq_to_cache 12402733
Core_0_L1D_rq_full 0

Core_0_L1D_wq_access 1463393
Core_0_L1D_wq_forward 0
Core_0_L1D_wq_merged 978
Core_0_L1D_wq_to_cache 1462415
Core_0_L1D_wq_full 0

Core_0_L1D_pq_access 0
Core_0_L1D_pq_forward 0
Core_0_L1D_pq_merged 0
Core_0_L1D_pq_to_cache 0
Core_0_L1D_pq_full 0

Core_0_L1D_acc_epochs 196732
Core_0_L1D_acc_level_0 196732
Core_0_L1D_acc_level_1 0
Core_0_L1D_acc_level_2 0
Core_0_L1D_acc_level_3 0
Core_0_L1D_acc_level_4 0
Core_0_L1D_acc_level_5 0
Core_0_L1D_acc_level_6 0
Core_0_L1D_acc_level_7 0
Core_0_L1D_acc_level_8 0
Core_0_L1D_acc_level_9 0

Core_0_L1I_total_access 7353608
Core_0_L1I_total_hit 7353607
Core_0_L1I_total_miss 1
Core_0_L1I_loads 7353608
Core_0_L1I_load_hit 7353607
Core_0_L1I_load_miss 1
Core_0_L1I_RFOs 0
Core_0_L1I_RFO_hit 0
Core_0_L1I_RFO_miss 0
Core_0_L1I_prefetches 0
Core_0_L1I_prefetch_hit 0
Core_0_L1I_prefetch_miss 0
Core_0_L1I_writebacks 0
Core_0_L1I_writeback_hit 0
Core_0_L1I_writeback_miss 0
Core_0_L1I_prefetch_requested 0
Core_0_L1I_prefetch_dropped 0
Core_0_L1I_prefetch_issued 0
Core_0_L1I_prefetch_filled 0
Core_0_L1I_prefetch_useful 0
Core_0_L1I_prefetch_useless 0
Core_0_L1I_prefetch_late 0
Core_0_L1I_average_miss_latency 231.00000

Core_0_L1I_rq_access 50000119
Core_0_L1I_rq_forward 0
Core_0_L1I_rq_merged 42646511
Core_0_L1I_rq_to_cache 7353608
Core_0_L1I_rq_full 0

Core_0_L1I_wq_access 0
Core_0_L1I_wq_forward 0
Core_0_L1I_wq_merged 0
Core_0_L1I_wq_to_cache 0
Core_0_L1I_wq_full 0

Core_0_L1I_pq_access 0
Core_0_L1I_pq_forward 0
Core_0_L1I_pq_merged 0
Core_0_L1I_pq_to_cache 0
Core_0_L1I_pq_full 0

Core_0_L1I_acc_epochs 196732
Core_0_L1I_acc_level_0 196732
Core_0_L1I_acc_level_1 0
Core_0_L1I_acc_level_2 0
Core_0_L1I_acc_level_3 0
Core_0_L1I_acc_level_4 0
Core_0_L1I_acc_level_5 0
Core_0_L1I_acc_level_6 0
Core_0_L1I_acc_level_7 0
Core_0_L1I_acc_level_8 0
Core_0_L1I_acc_level_9 0

Core_0_L2C_total_access 3409707
Core_0_L2C_total_hit 1272290
Core_0_L2C_total_miss 2137417
Core_0_L2C_loads 2297276
Core_0_L2C_load_hit 258630
Core_0_L2C_load_miss 2038646
Core_0_L2C_RFOs 287950
Core_0_L2C_RFO_hit 191472
Core_0_L2C_RFO_miss 96478
Core_0_L2C_prefetches 0
Core_0_L2C_prefetch_hit 0
Core_0_L2C_prefetch_miss 0
Core_0_L2C_writebacks 824481
Core_0_L2C_writeback_hit 822188
Core_0_L2C_writeback_miss 2293
Core_0_L2C_prefetch_requested 0
Core_0_L2C_prefetch_dropped 0
Core_0_L2C_prefetch_issued 0
Core_0_L2C_prefetch_filled 0
Core_0_L2C_prefetch_useful 0
Core_0_L2C_prefetch_useless 0
Core_0_L2C_prefetch_late 0
Core_0_L2C_average_miss_latency 103.26392

Core_0_L2C_rq_access 2585238
Core_0_L2C_rq_forward 0
Core_0_L2C_rq_merged 0
Core_0_L2C_rq_to_cache 2585226
Core_0_L2C_rq_full 0

Core_0_L2C_wq_access 824481
Core_0_L2C_wq_forward 12
Core_0_L2C_wq_merged 0
Core_0_L2C_wq_to_cache 824481
Core_0_L2C_wq_full 0

Core_0_L2C_pq_access 0
Core_0_L2C_pq_forward 0
Core_0_L2C_pq_merged 0
Core_0_L2C_pq_to_cache 0
Core_0_L2C_pq_full 0

Core_0_L2C_acc_epochs 196732
Core_0_L2C_acc_level_0 196732
Core_0_L2C_acc_level_1 0
Core_0_L2C_acc_level_2 0
Core_0_L2C_acc_level_3 0
Core_0_L2C_acc_level_4 0
Core_0_L2C_acc_level_5 0
Core_0_L2C_acc_level_6 0
Core_0_L2C_acc_level_7 0
Core_0_L2C_acc_level_8 0
Core_0_L2C_acc_level_9 0

Core_0_LLC_total_access 2662905
Core_0_LLC_total_hit 1786314
Core_0_LLC_total_miss 876591
Core_0_LLC_loads 2038646
Core_0_LLC_load_hit 1250705
Core_0_LLC_load_miss 787941
Core_0_LLC_RFOs 96478
Core_0_LLC_RFO_hit 37885
Core_0_LLC_RFO_miss 58593
Core_0_LLC_prefetches 0
Core_0_LLC_prefetch_hit 0
Core_0_LLC_prefetch_miss 0
Core_0_LLC_writebacks 527781
Core_0_LLC_writeback_hit 497724
Core_0_LLC_writeback_miss 30057
Core_0_LLC_prefetch_requested 0
Core_0_LLC_prefetch_dropped 0
Core_0_LLC_prefetch_issued 0
Core_0_LLC_prefetch_filled 0
Core_0_LLC_prefetch_useful 0
Core_0_LLC_prefetch_useless 0
Core_0_LLC_prefetch_late 0
Core_0_LLC_average_miss_latency 178.50237

Core_0_LLC_rq_access 2135124
Core_0_LLC_rq_forward 0
Core_0_LLC_rq_merged 0
Core_0_LLC_rq_to_cache 2135124
Core_0_LLC_rq_full 0

Core_0_LLC_wq_access 527781
Core_0_LLC_wq_forward 0
Core_0_LLC_wq_merged 0
Core_0_LLC_wq_to_cache 527781
Core_0_LLC_wq_full 0

Core_0_LLC_pq_access 0
Core_0_LLC_pq_forward 0
Core_0_LLC_pq_merged 0
Core_0_LLC_pq_to_cache 0
Core_0_LLC_pq_full 0

Core_0_LLC_acc_epochs 197718
Core_0_LLC_acc_level_0 197718
Core_0_LLC_acc_level_1 0
Core_0_LLC_acc_level_2 0
Core_0_LLC_acc_level_3 0
Core_0_LLC_acc_level_4 0
Core_0_LLC_acc_level_5 0
Core_0_LLC_acc_level_6 0
Core_0_LLC_acc_level_7 0
Core_0_LLC_acc_level_8 0
Core_0_LLC_acc_level_9 0

Core_0_major_page_fault 0
Core_0_minor_page_fault 8963

Channel_0_RQ_row_buffer_hit 156427
Channel_0_RQ_row_buffer_miss 690100
Channel_0_WQ_row_buffer_hit 121411
Channel_0_WQ_row_buffer_miss 214512
Channel_0_WQ_full 0
Channel_0_dbus_congested 192166

avg_congested_cycle 10

DRAM_bw_pochs 790870
DRAM_bw_level_0 776433
DRAM_bw_level_1 7828
DRAM_bw_level_2 2281
DRAM_bw_level_3 4328
