*************************************************
   ChampSim Multicore Out-of-Order Simulator
   Last compiled: Apr  3 2025 20:54:34
*************************************************
parsing config file: /home/zir/Pythia/config/nopref.ini

trace_0 /home/zir/ChampSim/ML-DPC/ChampSimTraces/gap/bfs-3.trace.gz
adding L2C_PREFETCHER: NONE
Initialize SHIP state
warmup_instructions 10000000
simulation_instructions 50000000
champsim_seed 51
measure_ipc 0
measure_ipc_epoch 1000
measure_dram_bw 1
measure_dram_bw_epoch 256
measure_cache_acc 1
measure_cache_acc_epoch 1024
l1d_perfect 0
l2c_perfect 0
llc_perfect 0
l1d_semi_perfect 0
l2c_semi_perfect 0
llc_semi_perfect 0
semi_perfect_cache_page_buffer_size 64

num_cpus 1
cpu_freq 4000
dram_io_freq 2400
page_size 4096
block_size 64
max_read_per_cycle 8
max_fill_per_cycle 1
dram_channels 1
log2_dram_channels 0
dram_ranks 1
dram_banks 8
dram_rows 65536
dram_columns 128
dram_row_size 8
dram_size 4096
dram_pages 1048576

fetch_width 6
decode_width 6
exec_width 4
lq_width 2
sq_width 2
retire_width 4
scheduler_size 128
branch_mispredict_penalty 20
rob_size 256
lq_size 72
sq_size 56
num_instr_destinations_sparc 4
num_instr_destinations 2
num_instr_sources 4

itlb_set 16
itlb_way 8
itlb_rq_size 16
itlb_wq_size 16
itlb_pq_size 0
itlb_mshr_size 8
itlb_latency 1

dtlb_set 16
dtlb_way 4
dtlb_rq_size 16
dtlb_wq_size 16
dtlb_pq_size 0
dtlb_mshr_size 8
dtlb_latency 1

stlb_set 128
stlb_way 12
stlb_rq_size 32
stlb_wq_size 32
stlb_pq_size 0
stlb_mshr_size 16
stlb_latency 8

l1i_size 32
l1i_set 64
l1i_way 8
l1i_rq_size 64
l1i_wq_size 64
l1i_pq_size 8
l1i_mshr_size 8
l1i_latency 1

l1d_size 32
l1d_set 64
l1d_way 8
l1d_rq_size 64
l1d_wq_size 64
l1d_pq_size 8
l1d_mshr_size 16
l1d_latency 4

l2c_size 256
l2c_set 512
l2c_way 8
l2c_rq_size 32
l2c_wq_size 32
l2c_pq_size 32
l2c_mshr_size 32
l2c_latency 10

llc_size 2048
llc_set 2048
llc_way 16
llc_rq_size 32
llc_wq_size 32
llc_pq_size 32
llc_mshr_size 64
llc_latency 20

dram_channel_width 8
dram_wq_size 64
dram_rq_size 64
tRP 15
tRCD 15
tCAS 12.5
dram_dbus_turn_around_time 30
dram_write_high_wm 56
dram_write_low_wm 48
min_dram_writes_per_switch 16
dram_mtps 2400
dram_dbus_return_time 13


Heartbeat CPU  0 instructions:    1000000 cycles:    1391075 heartbeat IPC: 0.71887 cumulative IPC: 0.71887 (Simulation time: 0 hr 0 min 1 sec) 
Heartbeat CPU  0 instructions:    2000001 cycles:    2787550 heartbeat IPC: 0.71609 cumulative IPC: 0.71748 (Simulation time: 0 hr 0 min 2 sec) 
Heartbeat CPU  0 instructions:    3000000 cycles:    4189049 heartbeat IPC: 0.71352 cumulative IPC: 0.71615 (Simulation time: 0 hr 0 min 3 sec) 
Heartbeat CPU  0 instructions:    4000000 cycles:    5590461 heartbeat IPC: 0.71357 cumulative IPC: 0.71550 (Simulation time: 0 hr 0 min 4 sec) 
Heartbeat CPU  0 instructions:    5000000 cycles:    6980618 heartbeat IPC: 0.71934 cumulative IPC: 0.71627 (Simulation time: 0 hr 0 min 5 sec) 
Heartbeat CPU  0 instructions:    6000002 cycles:    8382465 heartbeat IPC: 0.71335 cumulative IPC: 0.71578 (Simulation time: 0 hr 0 min 6 sec) 
Heartbeat CPU  0 instructions:    7000001 cycles:    9771882 heartbeat IPC: 0.71973 cumulative IPC: 0.71634 (Simulation time: 0 hr 0 min 6 sec) 
Heartbeat CPU  0 instructions:    8000000 cycles:   11158736 heartbeat IPC: 0.72106 cumulative IPC: 0.71693 (Simulation time: 0 hr 0 min 7 sec) 
Heartbeat CPU  0 instructions:    9000001 cycles:   12549843 heartbeat IPC: 0.71885 cumulative IPC: 0.71714 (Simulation time: 0 hr 0 min 8 sec) 
Heartbeat CPU  0 instructions:   10000003 cycles:   13931111 heartbeat IPC: 0.72397 cumulative IPC: 0.71782 (Simulation time: 0 hr 0 min 9 sec) 

Warmup complete CPU  0 instructions:   10000003 cycles:   13931111 (Simulation time: 0 hr 0 min 9 sec) 

Heartbeat CPU  0 instructions:   11000001 cycles:   19058613 heartbeat IPC: 0.19503 cumulative IPC: 0.19503 (Simulation time: 0 hr 0 min 11 sec) 
Heartbeat CPU  0 instructions:   12000000 cycles:   25015914 heartbeat IPC: 0.16786 cumulative IPC: 0.18043 (Simulation time: 0 hr 0 min 12 sec) 
Heartbeat CPU  0 instructions:   13000002 cycles:   30550618 heartbeat IPC: 0.18068 cumulative IPC: 0.18051 (Simulation time: 0 hr 0 min 14 sec) 
Heartbeat CPU  0 instructions:   14000000 cycles:   36040172 heartbeat IPC: 0.18216 cumulative IPC: 0.18092 (Simulation time: 0 hr 0 min 16 sec) 
Heartbeat CPU  0 instructions:   15000000 cycles:   41508037 heartbeat IPC: 0.18289 cumulative IPC: 0.18131 (Simulation time: 0 hr 0 min 18 sec) 
Heartbeat CPU  0 instructions:   16000000 cycles:   46993301 heartbeat IPC: 0.18231 cumulative IPC: 0.18148 (Simulation time: 0 hr 0 min 19 sec) 
Heartbeat CPU  0 instructions:   17000002 cycles:   52467151 heartbeat IPC: 0.18269 cumulative IPC: 0.18165 (Simulation time: 0 hr 0 min 21 sec) 
Heartbeat CPU  0 instructions:   18000000 cycles:   57937488 heartbeat IPC: 0.18280 cumulative IPC: 0.18179 (Simulation time: 0 hr 0 min 23 sec) 
Heartbeat CPU  0 instructions:   19000000 cycles:   63422483 heartbeat IPC: 0.18232 cumulative IPC: 0.18185 (Simulation time: 0 hr 0 min 25 sec) 
Heartbeat CPU  0 instructions:   20000000 cycles:   68891622 heartbeat IPC: 0.18284 cumulative IPC: 0.18195 (Simulation time: 0 hr 0 min 26 sec) 
Heartbeat CPU  0 instructions:   21000001 cycles:   74323895 heartbeat IPC: 0.18409 cumulative IPC: 0.18214 (Simulation time: 0 hr 0 min 28 sec) 
Heartbeat CPU  0 instructions:   22000000 cycles:   79802342 heartbeat IPC: 0.18253 cumulative IPC: 0.18217 (Simulation time: 0 hr 0 min 30 sec) 
Heartbeat CPU  0 instructions:   23000002 cycles:   85252538 heartbeat IPC: 0.18348 cumulative IPC: 0.18227 (Simulation time: 0 hr 0 min 32 sec) 
Heartbeat CPU  0 instructions:   24000000 cycles:   90695750 heartbeat IPC: 0.18371 cumulative IPC: 0.18238 (Simulation time: 0 hr 0 min 33 sec) 
Heartbeat CPU  0 instructions:   25000001 cycles:   96176217 heartbeat IPC: 0.18247 cumulative IPC: 0.18238 (Simulation time: 0 hr 0 min 35 sec) 
Heartbeat CPU  0 instructions:   26000001 cycles:  101637683 heartbeat IPC: 0.18310 cumulative IPC: 0.18243 (Simulation time: 0 hr 0 min 37 sec) 
Heartbeat CPU  0 instructions:   27000003 cycles:  107091956 heartbeat IPC: 0.18334 cumulative IPC: 0.18248 (Simulation time: 0 hr 0 min 38 sec) 
Heartbeat CPU  0 instructions:   28000000 cycles:  112567066 heartbeat IPC: 0.18264 cumulative IPC: 0.18249 (Simulation time: 0 hr 0 min 40 sec) 
Heartbeat CPU  0 instructions:   29000000 cycles:  118039656 heartbeat IPC: 0.18273 cumulative IPC: 0.18250 (Simulation time: 0 hr 0 min 42 sec) 
Heartbeat CPU  0 instructions:   30000000 cycles:  123525689 heartbeat IPC: 0.18228 cumulative IPC: 0.18249 (Simulation time: 0 hr 0 min 44 sec) 
Heartbeat CPU  0 instructions:   31000000 cycles:  128981166 heartbeat IPC: 0.18330 cumulative IPC: 0.18253 (Simulation time: 0 hr 0 min 45 sec) 
Heartbeat CPU  0 instructions:   32000000 cycles:  134435100 heartbeat IPC: 0.18335 cumulative IPC: 0.18257 (Simulation time: 0 hr 0 min 47 sec) 
Heartbeat CPU  0 instructions:   33000000 cycles:  139929915 heartbeat IPC: 0.18199 cumulative IPC: 0.18254 (Simulation time: 0 hr 0 min 49 sec) 
Heartbeat CPU  0 instructions:   34000002 cycles:  145396860 heartbeat IPC: 0.18292 cumulative IPC: 0.18256 (Simulation time: 0 hr 0 min 51 sec) 
Heartbeat CPU  0 instructions:   35000001 cycles:  150876505 heartbeat IPC: 0.18249 cumulative IPC: 0.18255 (Simulation time: 0 hr 0 min 52 sec) 
Heartbeat CPU  0 instructions:   36000000 cycles:  156345683 heartbeat IPC: 0.18284 cumulative IPC: 0.18257 (Simulation time: 0 hr 0 min 54 sec) 
Heartbeat CPU  0 instructions:   37000000 cycles:  161813966 heartbeat IPC: 0.18287 cumulative IPC: 0.18258 (Simulation time: 0 hr 0 min 56 sec) 
Heartbeat CPU  0 instructions:   38000000 cycles:  167279152 heartbeat IPC: 0.18298 cumulative IPC: 0.18259 (Simulation time: 0 hr 0 min 58 sec) 
Heartbeat CPU  0 instructions:   39000003 cycles:  172745166 heartbeat IPC: 0.18295 cumulative IPC: 0.18260 (Simulation time: 0 hr 0 min 59 sec) 
Heartbeat CPU  0 instructions:   40000000 cycles:  178230207 heartbeat IPC: 0.18231 cumulative IPC: 0.18259 (Simulation time: 0 hr 1 min 1 sec) 
Heartbeat CPU  0 instructions:   41000000 cycles:  183702494 heartbeat IPC: 0.18274 cumulative IPC: 0.18260 (Simulation time: 0 hr 1 min 3 sec) 
Heartbeat CPU  0 instructions:   42000000 cycles:  189183148 heartbeat IPC: 0.18246 cumulative IPC: 0.18259 (Simulation time: 0 hr 1 min 5 sec) 
Heartbeat CPU  0 instructions:   43000000 cycles:  194643284 heartbeat IPC: 0.18315 cumulative IPC: 0.18261 (Simulation time: 0 hr 1 min 6 sec) 
Heartbeat CPU  0 instructions:   44000000 cycles:  200158785 heartbeat IPC: 0.18131 cumulative IPC: 0.18257 (Simulation time: 0 hr 1 min 8 sec) 
Heartbeat CPU  0 instructions:   45000002 cycles:  205859451 heartbeat IPC: 0.17542 cumulative IPC: 0.18236 (Simulation time: 0 hr 1 min 10 sec) 
Heartbeat CPU  0 instructions:   46000001 cycles:  213694691 heartbeat IPC: 0.12763 cumulative IPC: 0.18021 (Simulation time: 0 hr 1 min 12 sec) 
Heartbeat CPU  0 instructions:   47000000 cycles:  221529817 heartbeat IPC: 0.12763 cumulative IPC: 0.17823 (Simulation time: 0 hr 1 min 14 sec) 
Heartbeat CPU  0 instructions:   48000000 cycles:  229386390 heartbeat IPC: 0.12728 cumulative IPC: 0.17637 (Simulation time: 0 hr 1 min 16 sec) 
Heartbeat CPU  0 instructions:   49000001 cycles:  237200130 heartbeat IPC: 0.12798 cumulative IPC: 0.17468 (Simulation time: 0 hr 1 min 18 sec) 
Heartbeat CPU  0 instructions:   50000003 cycles:  245018141 heartbeat IPC: 0.12791 cumulative IPC: 0.17309 (Simulation time: 0 hr 1 min 20 sec) 
Heartbeat CPU  0 instructions:   51000000 cycles:  252850306 heartbeat IPC: 0.12768 cumulative IPC: 0.17161 (Simulation time: 0 hr 1 min 22 sec) 
Heartbeat CPU  0 instructions:   52000000 cycles:  260753579 heartbeat IPC: 0.12653 cumulative IPC: 0.17016 (Simulation time: 0 hr 1 min 24 sec) 
Heartbeat CPU  0 instructions:   53000001 cycles:  268588995 heartbeat IPC: 0.12763 cumulative IPC: 0.16885 (Simulation time: 0 hr 1 min 26 sec) 
Heartbeat CPU  0 instructions:   54000000 cycles:  276418663 heartbeat IPC: 0.12772 cumulative IPC: 0.16763 (Simulation time: 0 hr 1 min 29 sec) 
Heartbeat CPU  0 instructions:   55000003 cycles:  284281340 heartbeat IPC: 0.12718 cumulative IPC: 0.16645 (Simulation time: 0 hr 1 min 31 sec) 
Heartbeat CPU  0 instructions:   56000000 cycles:  292154248 heartbeat IPC: 0.12702 cumulative IPC: 0.16533 (Simulation time: 0 hr 1 min 33 sec) 
Heartbeat CPU  0 instructions:   57000000 cycles:  299994005 heartbeat IPC: 0.12755 cumulative IPC: 0.16430 (Simulation time: 0 hr 1 min 35 sec) 
Heartbeat CPU  0 instructions:   58000000 cycles:  307826397 heartbeat IPC: 0.12767 cumulative IPC: 0.16332 (Simulation time: 0 hr 1 min 37 sec) 
Heartbeat CPU  0 instructions:   59000000 cycles:  315474212 heartbeat IPC: 0.13076 cumulative IPC: 0.16250 (Simulation time: 0 hr 1 min 39 sec) 
Heartbeat CPU  0 instructions:   60000000 cycles:  321013639 heartbeat IPC: 0.18052 cumulative IPC: 0.16282 (Simulation time: 0 hr 1 min 40 sec) 
Finished CPU 0 instructions: 50000000 cycles: 307082543 cumulative IPC: 0.16282 (Simulation time: 0 hr 1 min 40 sec) 

ChampSim completed all CPUs

[ROI Statistics]
Core_0_instructions 50000000
Core_0_cycles 307082543
Core_0_IPC 0.16282

Core_0_branch_prediction_accuracy 81.55113
Core_0_branch_MPKI 36.85764
Core_0_average_ROB_occupancy_at_mispredict 26.74310

Core_0_L1D_total_access 11816303
Core_0_L1D_total_hit 9493687
Core_0_L1D_total_miss 2322616
Core_0_L1D_loads 10476889
Core_0_L1D_load_hit 8166925
Core_0_L1D_load_miss 2309964
Core_0_L1D_RFOs 1339414
Core_0_L1D_RFO_hit 1326762
Core_0_L1D_RFO_miss 12652
Core_0_L1D_prefetches 0
Core_0_L1D_prefetch_hit 0
Core_0_L1D_prefetch_miss 0
Core_0_L1D_writebacks 0
Core_0_L1D_writeback_hit 0
Core_0_L1D_writeback_miss 0
Core_0_L1D_prefetch_requested 0
Core_0_L1D_prefetch_dropped 0
Core_0_L1D_prefetch_issued 0
Core_0_L1D_prefetch_filled 0
Core_0_L1D_prefetch_useful 0
Core_0_L1D_prefetch_useless 0
Core_0_L1D_prefetch_late 0
Core_0_L1D_average_miss_latency 88.35664

Core_0_L1D_rq_access 13745780
Core_0_L1D_rq_forward 0
Core_0_L1D_rq_merged 3073155
Core_0_L1D_rq_to_cache 10672625
Core_0_L1D_rq_full 0

Core_0_L1D_wq_access 1372974
Core_0_L1D_wq_forward 0
Core_0_L1D_wq_merged 402
Core_0_L1D_wq_to_cache 1372572
Core_0_L1D_wq_full 204517

Core_0_L1D_pq_access 0
Core_0_L1D_pq_forward 0
Core_0_L1D_pq_merged 0
Core_0_L1D_pq_to_cache 0
Core_0_L1D_pq_full 0

Core_0_L1D_acc_epochs 308228
Core_0_L1D_acc_level_0 308228
Core_0_L1D_acc_level_1 0
Core_0_L1D_acc_level_2 0
Core_0_L1D_acc_level_3 0
Core_0_L1D_acc_level_4 0
Core_0_L1D_acc_level_5 0
Core_0_L1D_acc_level_6 0
Core_0_L1D_acc_level_7 0
Core_0_L1D_acc_level_8 0
Core_0_L1D_acc_level_9 0

Core_0_L1I_total_access 9726210
Core_0_L1I_total_hit 9726172
Core_0_L1I_total_miss 38
Core_0_L1I_loads 9726210
Core_0_L1I_load_hit 9726172
Core_0_L1I_load_miss 38
Core_0_L1I_RFOs 0
Core_0_L1I_RFO_hit 0
Core_0_L1I_RFO_miss 0
Core_0_L1I_prefetches 0
Core_0_L1I_prefetch_hit 0
Core_0_L1I_prefetch_miss 0
Core_0_L1I_writebacks 0
Core_0_L1I_writeback_hit 0
Core_0_L1I_writeback_miss 0
Core_0_L1I_prefetch_requested 0
Core_0_L1I_prefetch_dropped 0
Core_0_L1I_prefetch_issued 0
Core_0_L1I_prefetch_filled 0
Core_0_L1I_prefetch_useful 0
Core_0_L1I_prefetch_useless 0
Core_0_L1I_prefetch_late 0
Core_0_L1I_average_miss_latency 318.92105

Core_0_L1I_rq_access 49999989
Core_0_L1I_rq_forward 0
Core_0_L1I_rq_merged 40273768
Core_0_L1I_rq_to_cache 9726221
Core_0_L1I_rq_full 0

Core_0_L1I_wq_access 0
Core_0_L1I_wq_forward 0
Core_0_L1I_wq_merged 0
Core_0_L1I_wq_to_cache 0
Core_0_L1I_wq_full 0

Core_0_L1I_pq_access 0
Core_0_L1I_pq_forward 0
Core_0_L1I_pq_merged 0
Core_0_L1I_pq_to_cache 0
Core_0_L1I_pq_full 0

Core_0_L1I_acc_epochs 308228
Core_0_L1I_acc_level_0 308228
Core_0_L1I_acc_level_1 0
Core_0_L1I_acc_level_2 0
Core_0_L1I_acc_level_3 0
Core_0_L1I_acc_level_4 0
Core_0_L1I_acc_level_5 0
Core_0_L1I_acc_level_6 0
Core_0_L1I_acc_level_7 0
Core_0_L1I_acc_level_8 0
Core_0_L1I_acc_level_9 0

Core_0_L2C_total_access 2474936
Core_0_L2C_total_hit 1381939
Core_0_L2C_total_miss 1092997
Core_0_L2C_loads 2310002
Core_0_L2C_load_hit 1227010
Core_0_L2C_load_miss 1082992
Core_0_L2C_RFOs 12652
Core_0_L2C_RFO_hit 2651
Core_0_L2C_RFO_miss 10001
Core_0_L2C_prefetches 0
Core_0_L2C_prefetch_hit 0
Core_0_L2C_prefetch_miss 0
Core_0_L2C_writebacks 152282
Core_0_L2C_writeback_hit 152278
Core_0_L2C_writeback_miss 4
Core_0_L2C_prefetch_requested 0
Core_0_L2C_prefetch_dropped 0
Core_0_L2C_prefetch_issued 0
Core_0_L2C_prefetch_filled 0
Core_0_L2C_prefetch_useful 0
Core_0_L2C_prefetch_useless 0
Core_0_L2C_prefetch_late 0
Core_0_L2C_average_miss_latency 157.64342

Core_0_L2C_rq_access 2322654
Core_0_L2C_rq_forward 0
Core_0_L2C_rq_merged 0
Core_0_L2C_rq_to_cache 2322654
Core_0_L2C_rq_full 0

Core_0_L2C_wq_access 152282
Core_0_L2C_wq_forward 0
Core_0_L2C_wq_merged 0
Core_0_L2C_wq_to_cache 152282
Core_0_L2C_wq_full 0

Core_0_L2C_pq_access 0
Core_0_L2C_pq_forward 0
Core_0_L2C_pq_merged 0
Core_0_L2C_pq_to_cache 0
Core_0_L2C_pq_full 0

Core_0_L2C_acc_epochs 308228
Core_0_L2C_acc_level_0 308228
Core_0_L2C_acc_level_1 0
Core_0_L2C_acc_level_2 0
Core_0_L2C_acc_level_3 0
Core_0_L2C_acc_level_4 0
Core_0_L2C_acc_level_5 0
Core_0_L2C_acc_level_6 0
Core_0_L2C_acc_level_7 0
Core_0_L2C_acc_level_8 0
Core_0_L2C_acc_level_9 0

Core_0_LLC_total_access 1246210
Core_0_LLC_total_hit 255219
Core_0_LLC_total_miss 990991
Core_0_LLC_loads 1082992
Core_0_LLC_load_hit 185165
Core_0_LLC_load_miss 897827
Core_0_LLC_RFOs 10001
Core_0_LLC_RFO_hit 3314
Core_0_LLC_RFO_miss 6687
Core_0_LLC_prefetches 0
Core_0_LLC_prefetch_hit 0
Core_0_LLC_prefetch_miss 0
Core_0_LLC_writebacks 153217
Core_0_LLC_writeback_hit 66740
Core_0_LLC_writeback_miss 86477
Core_0_LLC_prefetch_requested 0
Core_0_LLC_prefetch_dropped 0
Core_0_LLC_prefetch_issued 0
Core_0_LLC_prefetch_filled 0
Core_0_LLC_prefetch_useful 0
Core_0_LLC_prefetch_useless 0
Core_0_LLC_prefetch_late 0
Core_0_LLC_average_miss_latency 140.72012

Core_0_LLC_rq_access 1092993
Core_0_LLC_rq_forward 0
Core_0_LLC_rq_merged 0
Core_0_LLC_rq_to_cache 1092993
Core_0_LLC_rq_full 0

Core_0_LLC_wq_access 153217
Core_0_LLC_wq_forward 0
Core_0_LLC_wq_merged 0
Core_0_LLC_wq_to_cache 153217
Core_0_LLC_wq_full 0

Core_0_LLC_pq_access 0
Core_0_LLC_pq_forward 0
Core_0_LLC_pq_merged 0
Core_0_LLC_pq_to_cache 0
Core_0_LLC_pq_full 0

Core_0_LLC_acc_epochs 313490
Core_0_LLC_acc_level_0 313490
Core_0_LLC_acc_level_1 0
Core_0_LLC_acc_level_2 0
Core_0_LLC_acc_level_3 0
Core_0_LLC_acc_level_4 0
Core_0_LLC_acc_level_5 0
Core_0_LLC_acc_level_6 0
Core_0_LLC_acc_level_7 0
Core_0_LLC_acc_level_8 0
Core_0_LLC_acc_level_9 0

Core_0_major_page_fault 0
Core_0_minor_page_fault 27001

Channel_0_RQ_row_buffer_hit 308959
Channel_0_RQ_row_buffer_miss 595554
Channel_0_WQ_row_buffer_hit 29196
Channel_0_WQ_row_buffer_miss 107207
Channel_0_WQ_full 172
Channel_0_dbus_congested 35165

avg_congested_cycle 8

DRAM_bw_pochs 1253960
DRAM_bw_level_0 1252653
DRAM_bw_level_1 982
DRAM_bw_level_2 252
DRAM_bw_level_3 73
