*************************************************
   ChampSim Multicore Out-of-Order Simulator
   Last compiled: Apr  3 2025 20:54:34
*************************************************
parsing config file: /home/zir/Pythia/config/mlop.ini

trace_0 /home/zir/ChampSim/ML-DPC/ChampSimTraces/gap/cc-14.trace.gz
adding L2C_PREFETCHER: MLOP
Initialize SHIP state
warmup_instructions 10000000
simulation_instructions 50000000
champsim_seed 101
measure_ipc 0
measure_ipc_epoch 1000
measure_dram_bw 1
measure_dram_bw_epoch 256
measure_cache_acc 1
measure_cache_acc_epoch 1024
l1d_perfect 0
l2c_perfect 0
llc_perfect 0
l1d_semi_perfect 0
l2c_semi_perfect 0
llc_semi_perfect 0
semi_perfect_cache_page_buffer_size 64

num_cpus 1
cpu_freq 4000
dram_io_freq 2400
page_size 4096
block_size 64
max_read_per_cycle 8
max_fill_per_cycle 1
dram_channels 1
log2_dram_channels 0
dram_ranks 1
dram_banks 8
dram_rows 65536
dram_columns 128
dram_row_size 8
dram_size 4096
dram_pages 1048576

fetch_width 6
decode_width 6
exec_width 4
lq_width 2
sq_width 2
retire_width 4
scheduler_size 128
branch_mispredict_penalty 20
rob_size 256
lq_size 72
sq_size 56
num_instr_destinations_sparc 4
num_instr_destinations 2
num_instr_sources 4

itlb_set 16
itlb_way 8
itlb_rq_size 16
itlb_wq_size 16
itlb_pq_size 0
itlb_mshr_size 8
itlb_latency 1

dtlb_set 16
dtlb_way 4
dtlb_rq_size 16
dtlb_wq_size 16
dtlb_pq_size 0
dtlb_mshr_size 8
dtlb_latency 1

stlb_set 128
stlb_way 12
stlb_rq_size 32
stlb_wq_size 32
stlb_pq_size 0
stlb_mshr_size 16
stlb_latency 8

l1i_size 32
l1i_set 64
l1i_way 8
l1i_rq_size 64
l1i_wq_size 64
l1i_pq_size 8
l1i_mshr_size 8
l1i_latency 1

l1d_size 32
l1d_set 64
l1d_way 8
l1d_rq_size 64
l1d_wq_size 64
l1d_pq_size 8
l1d_mshr_size 16
l1d_latency 4

l2c_size 256
l2c_set 512
l2c_way 8
l2c_rq_size 32
l2c_wq_size 32
l2c_pq_size 32
l2c_mshr_size 32
l2c_latency 10

llc_size 2048
llc_set 2048
llc_way 16
llc_rq_size 32
llc_wq_size 32
llc_pq_size 32
llc_mshr_size 64
llc_latency 20

dram_channel_width 8
dram_wq_size 64
dram_rq_size 64
tRP 15
tRCD 15
tCAS 12.5
dram_dbus_turn_around_time 30
dram_write_high_wm 56
dram_write_low_wm 48
min_dram_writes_per_switch 16
dram_mtps 2400
dram_dbus_return_time 13

mlop_pref_degree 16
mlop_num_updates 500
mlop_l1d_thresh 2
mlop_l2c_thresh 0.75
mlop_llc_thresh 0.3
mlop_debug_level 0
mlop_blocks_in_cache 4096
mlop_blocks_in_zone 64
mlop_amt_size 2048
mlop_PF_DEGREE 16
mlop_NUM_UPDATES 500
mlop_L1D_THRESH 1000
mlop_L2C_THRESH 375
mlop_LLC_THRESH 150
mlop_ORIGIN 63
mlop_MAX_OFFSET 63
mlop_MIN_OFFSET -63
mlop_ORIGIN 63
mlop_NUM_OFFSETS 127


Heartbeat CPU  0 instructions:    1000001 cycles:     261977 heartbeat IPC: 3.81713 cumulative IPC: 3.81713 (Simulation time: 0 hr 0 min 1 sec) 
Heartbeat CPU  0 instructions:    2000000 cycles:     781866 heartbeat IPC: 1.92349 cumulative IPC: 2.55798 (Simulation time: 0 hr 0 min 2 sec) 
Heartbeat CPU  0 instructions:    3000001 cycles:    2160338 heartbeat IPC: 0.72544 cumulative IPC: 1.38867 (Simulation time: 0 hr 0 min 3 sec) 
Heartbeat CPU  0 instructions:    4000000 cycles:    3499886 heartbeat IPC: 0.74652 cumulative IPC: 1.14289 (Simulation time: 0 hr 0 min 4 sec) 
Heartbeat CPU  0 instructions:    5000000 cycles:    4679620 heartbeat IPC: 0.84765 cumulative IPC: 1.06846 (Simulation time: 0 hr 0 min 6 sec) 
Heartbeat CPU  0 instructions:    6000000 cycles:    5858010 heartbeat IPC: 0.84862 cumulative IPC: 1.02424 (Simulation time: 0 hr 0 min 7 sec) 
Heartbeat CPU  0 instructions:    7000002 cycles:    6953777 heartbeat IPC: 0.91260 cumulative IPC: 1.00665 (Simulation time: 0 hr 0 min 8 sec) 
Heartbeat CPU  0 instructions:    8000000 cycles:    7956515 heartbeat IPC: 0.99727 cumulative IPC: 1.00547 (Simulation time: 0 hr 0 min 9 sec) 
Heartbeat CPU  0 instructions:    9000002 cycles:    8961793 heartbeat IPC: 0.99475 cumulative IPC: 1.00426 (Simulation time: 0 hr 0 min 10 sec) 
Heartbeat CPU  0 instructions:   10000000 cycles:    9904743 heartbeat IPC: 1.06050 cumulative IPC: 1.00962 (Simulation time: 0 hr 0 min 11 sec) 

Warmup complete CPU  0 instructions:   10000001 cycles:    9904744 (Simulation time: 0 hr 0 min 11 sec) 

Heartbeat CPU  0 instructions:   11000000 cycles:   15289149 heartbeat IPC: 0.18572 cumulative IPC: 0.18572 (Simulation time: 0 hr 0 min 14 sec) 
Heartbeat CPU  0 instructions:   12000000 cycles:   20700181 heartbeat IPC: 0.18481 cumulative IPC: 0.18526 (Simulation time: 0 hr 0 min 16 sec) 
Heartbeat CPU  0 instructions:   13000003 cycles:   25536896 heartbeat IPC: 0.20675 cumulative IPC: 0.19191 (Simulation time: 0 hr 0 min 18 sec) 
Heartbeat CPU  0 instructions:   14000001 cycles:   30674473 heartbeat IPC: 0.19464 cumulative IPC: 0.19259 (Simulation time: 0 hr 0 min 20 sec) 
Heartbeat CPU  0 instructions:   15000002 cycles:   36167530 heartbeat IPC: 0.18205 cumulative IPC: 0.19038 (Simulation time: 0 hr 0 min 22 sec) 
Heartbeat CPU  0 instructions:   16000000 cycles:   41513788 heartbeat IPC: 0.18705 cumulative IPC: 0.18982 (Simulation time: 0 hr 0 min 25 sec) 
Heartbeat CPU  0 instructions:   17000000 cycles:   46890841 heartbeat IPC: 0.18598 cumulative IPC: 0.18926 (Simulation time: 0 hr 0 min 27 sec) 
Heartbeat CPU  0 instructions:   18000001 cycles:   52091288 heartbeat IPC: 0.19229 cumulative IPC: 0.18963 (Simulation time: 0 hr 0 min 29 sec) 
Heartbeat CPU  0 instructions:   19000001 cycles:   57220218 heartbeat IPC: 0.19497 cumulative IPC: 0.19021 (Simulation time: 0 hr 0 min 31 sec) 
Heartbeat CPU  0 instructions:   20000000 cycles:   61837677 heartbeat IPC: 0.21657 cumulative IPC: 0.19256 (Simulation time: 0 hr 0 min 34 sec) 
Heartbeat CPU  0 instructions:   21000000 cycles:   66904110 heartbeat IPC: 0.19738 cumulative IPC: 0.19298 (Simulation time: 0 hr 0 min 36 sec) 
Heartbeat CPU  0 instructions:   22000003 cycles:   72145883 heartbeat IPC: 0.19078 cumulative IPC: 0.19280 (Simulation time: 0 hr 0 min 38 sec) 
Heartbeat CPU  0 instructions:   23000001 cycles:   77206314 heartbeat IPC: 0.19761 cumulative IPC: 0.19316 (Simulation time: 0 hr 0 min 40 sec) 
Heartbeat CPU  0 instructions:   24000000 cycles:   81889264 heartbeat IPC: 0.21354 cumulative IPC: 0.19449 (Simulation time: 0 hr 0 min 43 sec) 
Heartbeat CPU  0 instructions:   25000002 cycles:   86420391 heartbeat IPC: 0.22070 cumulative IPC: 0.19604 (Simulation time: 0 hr 0 min 45 sec) 
Heartbeat CPU  0 instructions:   26000000 cycles:   91480189 heartbeat IPC: 0.19764 cumulative IPC: 0.19614 (Simulation time: 0 hr 0 min 47 sec) 
Heartbeat CPU  0 instructions:   27000003 cycles:   96611022 heartbeat IPC: 0.19490 cumulative IPC: 0.19606 (Simulation time: 0 hr 0 min 49 sec) 
Heartbeat CPU  0 instructions:   28000000 cycles:  101567398 heartbeat IPC: 0.20176 cumulative IPC: 0.19637 (Simulation time: 0 hr 0 min 52 sec) 
Heartbeat CPU  0 instructions:   29000002 cycles:  105906890 heartbeat IPC: 0.23044 cumulative IPC: 0.19791 (Simulation time: 0 hr 0 min 54 sec) 
Heartbeat CPU  0 instructions:   30000000 cycles:  110543387 heartbeat IPC: 0.21568 cumulative IPC: 0.19873 (Simulation time: 0 hr 0 min 56 sec) 
Heartbeat CPU  0 instructions:   31000000 cycles:  115619972 heartbeat IPC: 0.19698 cumulative IPC: 0.19865 (Simulation time: 0 hr 0 min 58 sec) 
Heartbeat CPU  0 instructions:   32000000 cycles:  120162435 heartbeat IPC: 0.22014 cumulative IPC: 0.19953 (Simulation time: 0 hr 1 min 1 sec) 
Heartbeat CPU  0 instructions:   33000001 cycles:  124779579 heartbeat IPC: 0.21658 cumulative IPC: 0.20022 (Simulation time: 0 hr 1 min 3 sec) 
Heartbeat CPU  0 instructions:   34000001 cycles:  129711699 heartbeat IPC: 0.20275 cumulative IPC: 0.20032 (Simulation time: 0 hr 1 min 5 sec) 
Heartbeat CPU  0 instructions:   35000000 cycles:  133960460 heartbeat IPC: 0.23536 cumulative IPC: 0.20152 (Simulation time: 0 hr 1 min 8 sec) 
Heartbeat CPU  0 instructions:   36000000 cycles:  138716493 heartbeat IPC: 0.21026 cumulative IPC: 0.20184 (Simulation time: 0 hr 1 min 10 sec) 
Heartbeat CPU  0 instructions:   37000000 cycles:  143459540 heartbeat IPC: 0.21083 cumulative IPC: 0.20216 (Simulation time: 0 hr 1 min 12 sec) 
Heartbeat CPU  0 instructions:   38000000 cycles:  148125720 heartbeat IPC: 0.21431 cumulative IPC: 0.20257 (Simulation time: 0 hr 1 min 14 sec) 
Heartbeat CPU  0 instructions:   39000000 cycles:  153241589 heartbeat IPC: 0.19547 cumulative IPC: 0.20232 (Simulation time: 0 hr 1 min 17 sec) 
Heartbeat CPU  0 instructions:   40000000 cycles:  157870647 heartbeat IPC: 0.21603 cumulative IPC: 0.20275 (Simulation time: 0 hr 1 min 19 sec) 
Heartbeat CPU  0 instructions:   41000000 cycles:  162806456 heartbeat IPC: 0.20260 cumulative IPC: 0.20274 (Simulation time: 0 hr 1 min 21 sec) 
Heartbeat CPU  0 instructions:   42000002 cycles:  167857668 heartbeat IPC: 0.19797 cumulative IPC: 0.20259 (Simulation time: 0 hr 1 min 24 sec) 
Heartbeat CPU  0 instructions:   43000000 cycles:  172967887 heartbeat IPC: 0.19569 cumulative IPC: 0.20238 (Simulation time: 0 hr 1 min 26 sec) 
Heartbeat CPU  0 instructions:   44000000 cycles:  177966026 heartbeat IPC: 0.20007 cumulative IPC: 0.20231 (Simulation time: 0 hr 1 min 28 sec) 
Heartbeat CPU  0 instructions:   45000000 cycles:  182808765 heartbeat IPC: 0.20649 cumulative IPC: 0.20242 (Simulation time: 0 hr 1 min 30 sec) 
Heartbeat CPU  0 instructions:   46000000 cycles:  187470184 heartbeat IPC: 0.21453 cumulative IPC: 0.20274 (Simulation time: 0 hr 1 min 33 sec) 
Heartbeat CPU  0 instructions:   47000001 cycles:  191813059 heartbeat IPC: 0.23026 cumulative IPC: 0.20340 (Simulation time: 0 hr 1 min 35 sec) 
Heartbeat CPU  0 instructions:   48000000 cycles:  196006007 heartbeat IPC: 0.23850 cumulative IPC: 0.20419 (Simulation time: 0 hr 1 min 37 sec) 
Heartbeat CPU  0 instructions:   49000000 cycles:  200657982 heartbeat IPC: 0.21496 cumulative IPC: 0.20445 (Simulation time: 0 hr 1 min 40 sec) 
Heartbeat CPU  0 instructions:   50000002 cycles:  205038715 heartbeat IPC: 0.22827 cumulative IPC: 0.20499 (Simulation time: 0 hr 1 min 42 sec) 
Heartbeat CPU  0 instructions:   51000000 cycles:  209770065 heartbeat IPC: 0.21136 cumulative IPC: 0.20514 (Simulation time: 0 hr 1 min 44 sec) 
Heartbeat CPU  0 instructions:   52000000 cycles:  214125731 heartbeat IPC: 0.22959 cumulative IPC: 0.20566 (Simulation time: 0 hr 1 min 47 sec) 
Heartbeat CPU  0 instructions:   53000002 cycles:  218464434 heartbeat IPC: 0.23048 cumulative IPC: 0.20618 (Simulation time: 0 hr 1 min 49 sec) 
Heartbeat CPU  0 instructions:   54000002 cycles:  223044738 heartbeat IPC: 0.21833 cumulative IPC: 0.20644 (Simulation time: 0 hr 1 min 51 sec) 
Heartbeat CPU  0 instructions:   55000000 cycles:  227446446 heartbeat IPC: 0.22718 cumulative IPC: 0.20686 (Simulation time: 0 hr 1 min 53 sec) 
Heartbeat CPU  0 instructions:   56000000 cycles:  232441810 heartbeat IPC: 0.20019 cumulative IPC: 0.20671 (Simulation time: 0 hr 1 min 56 sec) 
Heartbeat CPU  0 instructions:   57000002 cycles:  237045178 heartbeat IPC: 0.21723 cumulative IPC: 0.20692 (Simulation time: 0 hr 1 min 58 sec) 
Heartbeat CPU  0 instructions:   58000000 cycles:  241800514 heartbeat IPC: 0.21029 cumulative IPC: 0.20699 (Simulation time: 0 hr 2 min 0 sec) 
Heartbeat CPU  0 instructions:   59000003 cycles:  246437825 heartbeat IPC: 0.21564 cumulative IPC: 0.20716 (Simulation time: 0 hr 2 min 3 sec) 
Heartbeat CPU  0 instructions:   60000000 cycles:  251507549 heartbeat IPC: 0.19725 cumulative IPC: 0.20695 (Simulation time: 0 hr 2 min 5 sec) 
Finished CPU 0 instructions: 50000000 cycles: 241602821 cumulative IPC: 0.20695 (Simulation time: 0 hr 2 min 5 sec) 

ChampSim completed all CPUs

[ROI Statistics]
Core_0_instructions 50000000
Core_0_cycles 241602821
Core_0_IPC 0.20695

Core_0_branch_prediction_accuracy 91.20795
Core_0_branch_MPKI 17.50296
Core_0_average_ROB_occupancy_at_mispredict 49.86574

Core_0_L1D_total_access 10601699
Core_0_L1D_total_hit 6901819
Core_0_L1D_total_miss 3699880
Core_0_L1D_loads 10364196
Core_0_L1D_load_hit 6664316
Core_0_L1D_load_miss 3699880
Core_0_L1D_RFOs 237503
Core_0_L1D_RFO_hit 237503
Core_0_L1D_RFO_miss 0
Core_0_L1D_prefetches 0
Core_0_L1D_prefetch_hit 0
Core_0_L1D_prefetch_miss 0
Core_0_L1D_writebacks 0
Core_0_L1D_writeback_hit 0
Core_0_L1D_writeback_miss 0
Core_0_L1D_prefetch_requested 0
Core_0_L1D_prefetch_dropped 0
Core_0_L1D_prefetch_issued 0
Core_0_L1D_prefetch_filled 0
Core_0_L1D_prefetch_useful 0
Core_0_L1D_prefetch_useless 0
Core_0_L1D_prefetch_late 0
Core_0_L1D_average_miss_latency 78.89809

Core_0_L1D_rq_access 13428759
Core_0_L1D_rq_forward 0
Core_0_L1D_rq_merged 2895869
Core_0_L1D_rq_to_cache 10532890
Core_0_L1D_rq_full 0

Core_0_L1D_wq_access 237503
Core_0_L1D_wq_forward 0
Core_0_L1D_wq_merged 0
Core_0_L1D_wq_to_cache 237503
Core_0_L1D_wq_full 0

Core_0_L1D_pq_access 0
Core_0_L1D_pq_forward 0
Core_0_L1D_pq_merged 0
Core_0_L1D_pq_to_cache 0
Core_0_L1D_pq_full 0

Core_0_L1D_acc_epochs 245269
Core_0_L1D_acc_level_0 245269
Core_0_L1D_acc_level_1 0
Core_0_L1D_acc_level_2 0
Core_0_L1D_acc_level_3 0
Core_0_L1D_acc_level_4 0
Core_0_L1D_acc_level_5 0
Core_0_L1D_acc_level_6 0
Core_0_L1D_acc_level_7 0
Core_0_L1D_acc_level_8 0
Core_0_L1D_acc_level_9 0

Core_0_L1I_total_access 9753986
Core_0_L1I_total_hit 9753986
Core_0_L1I_total_miss 0
Core_0_L1I_loads 9753986
Core_0_L1I_load_hit 9753986
Core_0_L1I_load_miss 0
Core_0_L1I_RFOs 0
Core_0_L1I_RFO_hit 0
Core_0_L1I_RFO_miss 0
Core_0_L1I_prefetches 0
Core_0_L1I_prefetch_hit 0
Core_0_L1I_prefetch_miss 0
Core_0_L1I_writebacks 0
Core_0_L1I_writeback_hit 0
Core_0_L1I_writeback_miss 0
Core_0_L1I_prefetch_requested 0
Core_0_L1I_prefetch_dropped 0
Core_0_L1I_prefetch_issued 0
Core_0_L1I_prefetch_filled 0
Core_0_L1I_prefetch_useful 0
Core_0_L1I_prefetch_useless 0
Core_0_L1I_prefetch_late 0
Core_0_L1I_average_miss_latency -nan

Core_0_L1I_rq_access 50000254
Core_0_L1I_rq_forward 0
Core_0_L1I_rq_merged 40246268
Core_0_L1I_rq_to_cache 9753986
Core_0_L1I_rq_full 0

Core_0_L1I_wq_access 0
Core_0_L1I_wq_forward 0
Core_0_L1I_wq_merged 0
Core_0_L1I_wq_to_cache 0
Core_0_L1I_wq_full 0

Core_0_L1I_pq_access 0
Core_0_L1I_pq_forward 0
Core_0_L1I_pq_merged 0
Core_0_L1I_pq_to_cache 0
Core_0_L1I_pq_full 0

Core_0_L1I_acc_epochs 245269
Core_0_L1I_acc_level_0 245269
Core_0_L1I_acc_level_1 0
Core_0_L1I_acc_level_2 0
Core_0_L1I_acc_level_3 0
Core_0_L1I_acc_level_4 0
Core_0_L1I_acc_level_5 0
Core_0_L1I_acc_level_6 0
Core_0_L1I_acc_level_7 0
Core_0_L1I_acc_level_8 0
Core_0_L1I_acc_level_9 0

Core_0_L2C_total_access 4505806
Core_0_L2C_total_hit 1091276
Core_0_L2C_total_miss 3414530
Core_0_L2C_loads 3699880
Core_0_L2C_load_hit 886941
Core_0_L2C_load_miss 2812939
Core_0_L2C_RFOs 0
Core_0_L2C_RFO_hit 0
Core_0_L2C_RFO_miss 0
Core_0_L2C_prefetches 601403
Core_0_L2C_prefetch_hit 7
Core_0_L2C_prefetch_miss 601396
Core_0_L2C_writebacks 204523
Core_0_L2C_writeback_hit 204328
Core_0_L2C_writeback_miss 195
Core_0_L2C_prefetch_requested 1238891
Core_0_L2C_prefetch_dropped 0
Core_0_L2C_prefetch_issued 1238891
Core_0_L2C_prefetch_filled 667661
Core_0_L2C_prefetch_useful 282830
Core_0_L2C_prefetch_useless 384412
Core_0_L2C_prefetch_late 1532
Core_0_L2C_average_miss_latency 77.57992

Core_0_L2C_rq_access 3699880
Core_0_L2C_rq_forward 0
Core_0_L2C_rq_merged 0
Core_0_L2C_rq_to_cache 3699880
Core_0_L2C_rq_full 0

Core_0_L2C_wq_access 204523
Core_0_L2C_wq_forward 0
Core_0_L2C_wq_merged 0
Core_0_L2C_wq_to_cache 204523
Core_0_L2C_wq_full 0

Core_0_L2C_pq_access 1238891
Core_0_L2C_pq_forward 0
Core_0_L2C_pq_merged 10953
Core_0_L2C_pq_to_cache 1227938
Core_0_L2C_pq_full 0

Core_0_L2C_acc_epochs 245269
Core_0_L2C_acc_level_0 8813
Core_0_L2C_acc_level_1 18119
Core_0_L2C_acc_level_2 34889
Core_0_L2C_acc_level_3 49201
Core_0_L2C_acc_level_4 40233
Core_0_L2C_acc_level_5 27776
Core_0_L2C_acc_level_6 26828
Core_0_L2C_acc_level_7 16067
Core_0_L2C_acc_level_8 10222
Core_0_L2C_acc_level_9 13121

Core_0_LLC_total_access 4046935
Core_0_LLC_total_hit 2954294
Core_0_LLC_total_miss 1092641
Core_0_LLC_loads 2811502
Core_0_LLC_load_hit 1961048
Core_0_LLC_load_miss 850454
Core_0_LLC_RFOs 0
Core_0_LLC_RFO_hit 0
Core_0_LLC_RFO_miss 0
Core_0_LLC_prefetches 1031054
Core_0_LLC_prefetch_hit 789510
Core_0_LLC_prefetch_miss 241544
Core_0_LLC_writebacks 204379
Core_0_LLC_writeback_hit 203736
Core_0_LLC_writeback_miss 643
Core_0_LLC_prefetch_requested 0
Core_0_LLC_prefetch_dropped 0
Core_0_LLC_prefetch_issued 0
Core_0_LLC_prefetch_filled 335819
Core_0_LLC_prefetch_useful 26532
Core_0_LLC_prefetch_useless 303715
Core_0_LLC_prefetch_late 53
Core_0_LLC_average_miss_latency 186.09829

Core_0_LLC_rq_access 2811502
Core_0_LLC_rq_forward 0
Core_0_LLC_rq_merged 0
Core_0_LLC_rq_to_cache 2811502
Core_0_LLC_rq_full 0

Core_0_LLC_wq_access 204379
Core_0_LLC_wq_forward 0
Core_0_LLC_wq_merged 0
Core_0_LLC_wq_to_cache 204379
Core_0_LLC_wq_full 0

Core_0_LLC_pq_access 1213824
Core_0_LLC_pq_forward 0
Core_0_LLC_pq_merged 1058
Core_0_LLC_pq_to_cache 1212766
Core_0_LLC_pq_full 0

Core_0_LLC_acc_epochs 245613
Core_0_LLC_acc_level_0 227165
Core_0_LLC_acc_level_1 6612
Core_0_LLC_acc_level_2 5129
Core_0_LLC_acc_level_3 553
Core_0_LLC_acc_level_4 189
Core_0_LLC_acc_level_5 3523
Core_0_LLC_acc_level_6 315
Core_0_LLC_acc_level_7 295
Core_0_LLC_acc_level_8 316
Core_0_LLC_acc_level_9 1516

Core_0_major_page_fault 0
Core_0_minor_page_fault 5185

[MLOP] History of tracked zone:
IIIIIIIIIIIIIIIIIIIIIIIIIIIIIIIIIIIIIIIIIIIIIIIIIIIIIIIIIIIIIIII
IIIIIIAIIIIIIIIIIIIIIIIIIIIIIIIIIIIIIIIIIIIIIIIIIIIIIIIIIIIIIIII
IIIIIIAIIIIAIIIIIIIIIIIIIIIIIIIIIIIIIIIIIIIIIIIIIIIIIIIIIIIIIIII
IIIIIIAIIIIAIIIIIIIIIIIIIIIIIIIIAIIIIIIIIIIIIIIIIIIIIIIIIIIIIIII
IIIIIIAIIIIAIIIIIIIIIIIIIIIIIIIIAAIIIIIIIIIIIIIIIIIIIIIIIIIIIIII
IIIIIIAIIIIA4IIIIIIIIIIIIIIIIIIIAAIIIIIIIIIIIIIIIIIIIIIIIIIIIIII
IIIIIAAIIIIA4IIIIIIIIIIIIIIIIIIIAAIIIIIIIIIIIIIIIIIIIIIIIIIIIIII
IIIIIAAIIIIA4IIIIIIIIIIIIIIIIIIIAAIIIIIIIIAIIIIIIIIIIIIIIIIIIIII
IIIIIAAIIIIA4IIIIIIIIIIIIIIIIIAIAAIIIIIIIIAIIIIIIIIIIIIIIIIIIIII
IIIIIAAIIIIA4IIIIIIIIIIIIIIIIIAIAAIIIIIIIIAIIIIIIIIIIIIIIIIIIIIA
IIIIIAAIIIIA4IIIIIIIIIIIIIIIIIAIAAAIIIIIIIAIIIIIIIIIIIIIIIIIIIIA
IIIIIAAIAIIA4IIIIIIIIIIIIIIIIIAIAAAIIIIIIIAIIIIIIIIIIIIIIIIIIIIA
IIIIIAAIAIIA4IIIIIIIAIIIIIIIIIAIAAAIIIIIIIAIIIIIIIIIIIIIIIIIIIIA
IIIIIAAIAIIA44IIIIIIAIIIIIIIIIAIAAAIIIIIIIAIIIIIIIIIIIIIIIIIIIIA
IIIIIAAIAIIA44IIIIIIAIIIIIIIIIAIAAAIIIIIIIAIIIIIIIIIIIIIIAI4IIIA
IIIIIAAIAIIA44II4I4IAIIIIIIIIIAIAAAIIIIIIIAIIIIIIIIIIIIIIAI4IIIA
IIIIIAAIAIIA444I4I4IAIIIIIIIIIAIAAAIIIIIIIAIIIIIIIIIIIIIIAI4IIIA
IIIIIAAIAIIA444I4I4IAIIIIIA4I4AIAAAIIIIIIIAIIIIIIIIIIIIIIAI4IIIA
IIIIIAAIAIIA444I4I4IAIIIIIA4I4AIAAAIIIIIIIAIIIIIIA4I4IIIIAI4IIIA
IIIIIAAIAIIA444I4I4IAIIIIIA4I4AIAAAIII4IIIAIIIIIIA4I4IIIIAI4IIIA
IIIIIAAIAIIA444I4I4IAIIIIIA4I4AIAAA4II44IIAIIIIIIA4I4IIIIAI4IIIA
IIIIIAAIAIIA444I444IAIIIIIA4I4AIAAA4II44IIAIIIIIIA4I4IIIIAI4IIIA
IIIIIAA4AIIA444I444IAIIIIIA4I4AIAAA4II44IIAIIIIIIA4I4IIIIAI4IIIA
IIIIIAA4AIIA444I444IAIIIIIA4I4A4AAA4I444IIAIIIIIIA4I4IIIIAI4IIIA
IIIIIAA4AIIA444I444IAIIIIIA4I4AAAAA4I444IIAIIIIIIA4I4IIIIAI4IIIA
IIIIIAA4AIIA444I444IAIIIIIA4I4AAAAA4I444IIA44IIIIA4I4IIIIAI4IIIA
IIIIIAA4AIIA44444444AIIIIIA4I4AAAAA4I444IIA44IIIIA4I4IIIIAI4IIIA
IIIIIAA4AIIA44444444AIIIIIA4I4AAAAAA4444IIA44IIIIA4I4IIIIAI4IIIA
IIIIIAA4AIIA44444444AIIIIIA4IAAAAAAA4444IIA44IIIIA4I4IIIIAI4IIIA
IIIIIAA4AIIA4A444444AIIIIIA4IAAAAAAA4444IIA44IIIIA4I4IIIIAI4IIIA
IIIIIAA4AIIA4A444A44AII44IA4IAAAAAAA4444IIA44IIIIA4I4IIIIAI4IIIA
IAI4IAA4A4IA4A444A44AII44IA4IAAAAAAA4444IIA44IIIIA4I4IIIIAI4IIIA
IAI4IAA4A4IA4A444A44A4I44IA4IAAAAAAA4444IIA44IIIIA4I4IIIIAI4IIIA
IAI4IAA4A4IA4A444A44A4I44IA4IAAAAAAA4444I4A44IIIIA4I4IIIIAI4IIIA
IAI4IAA4A4IA4A444A44A4I44IA4IAAAAAAA4444I4A44IIIIA4A44II4A4444IA
IAI4IAA4A4IA4A444A44A4I44IA4IAAAAAAA4444IAA444II4A4A44II4A4444IA
IAI4IAA4A44A4A444A44A4I44IA4IAAAAAAA4444IAA444II4A4A44II4A4444IA
IAI4IAA4A44A4A444A44A4I44IA4IAAAAAAA4444IAA444I44A4A44II4A4444IA
IAI4IAA4A44A4A444A44A4I44IA4IAAAAAAA4444IAA444444A4A44II4A4444IA
IAI4IAA4A44A4A444A44A4I44IA4IAAAAAAA4444IAA444444A4A44II4A4444AA
IAI4IAA4A44A4A444A44A4I44AA4IAAAAAAA4444IAA444444A4A44II4A4444AA
IAI4IAA4A44A4A444A44A4I44AA4IAAAAAAA4444IAA444444A4A44II4A44A4AA
IAI4IAA4A44A4A444A44A4444AA4IAAAAAAA4444IAA444444A4A44II4A44A4AA
IAI4IAA4A44A4A444A44A4444AA4IAAAAAAA4444IAA444444A4A44I44A44A4AA
IAI4IAA4A44A4A444A44A4444AA4IAAAAAAA4444IAA44444AA4A44444A44A4AA
IAI4IAA4A44A4A444A44A4444AAA4AAAAAAA44444AA44444AA4A44444A44A4AA
IAI4IAA4A44A4AA44A44A4444AAA4AAAAAAA44444AA44444AA4A44444A44A4AA
IAI4IAA4A44A4AA44A44A444AAAA4AAAAAAA44444AA44444AA4A44444A44A4AA
IAA44AA4A44A4AA44A44A444AAAA4AAAAAAA44444AA44444AA4A44444A44A4AA
IAA44AA4A44A4AA44A44A444AAAA4AAAAAAA4A444AA44444AA4A44444A44A4AA
IAA44AA4AA4A4AA44A44A444AAAA4AAAAAAA4A444AA44444AA4A44444A44A4AA
IAA44AA4AAAA4AA44A44A444AAAA4AAAAAAA4A444AA44444AA4A44444A44A4AA
IAA44AA4AAAA4AA44A44A444AAAA4AAAAAAA4A444AA44444AA4A44444A44AAAA
IAA44AA4AAAA4AA44A44A444AAAA4AAAAAAA4A444AA44444AAAA44444A44AAAA
AAA44AA4AAAA4AA44A44A444AAAA4AAAAAAA4A444AA44444AAAA44444A44AAAA
AAA44AA4AAAA4AA44A44A444AAAA4AAAAAAA4AA44AA44444AAAA44444A44AAAA
AAA44AAAAAAA4AA44A44A444AAAA4AAAAAAA4AA44AA44444AAAA44444A44AAAA
AAA44AAAAAAA4AA44A44A4A4AAAA4AAAAAAA4AA44AA44444AAAA44444A44AAAA
AAA44AAAAAAA4AA44A4AA4A4AAAA4AAAAAAA4AA44AA44444AAAA44444A44AAAA
AAA44AAAAAAA4AA44AAAA4A4AAAA4AAAAAAA4AA44AA44444AAAA44444A44AAAA
AAA44AAAAAAA4AA44AIAA4A4AAAA4AAAAAAA4AA44AA44444AAAA44444A44AAAA
AAA44AAAAAAA4AA44A4AA4A4AAAA4AAAAAAA4AA44AA44444AAAA44444A44AAAA
AAA44AAAAAAA4AA44A4AA2A4AAAA4AAAAAAA4AA44AA44444AAAA44444A44AAAA
AAA44AAAAAAA4AA44A4AA2A4AAAA4AAAAAAA4AA44AA24444AAAA44444A44AAAA
AAA44AAAAAAA4AA44A4AA2A4AAAA4AIAAAAA4AA44AA24444AAAA44444A44AAAA
AAA44AAAAAAA4AA4AA4AA2A4AAAA4AIAAAAA4AA44AA24444AAAA44444A44AAAA
AAA44AAAAAAA4AA4AA4AA2A4AAAAAA4AAAAA4AA44AA24444AAAA44444A44AAAA
AAA44AAAAAAA4AA4AA4AA2A4AAAAAA4AAAAA4AA44AA24444AAAA4444AA44AAAA
AAA44AAAAAAA2AA4AA4AA2A4AAAAAA4AAAAA4AA44AA24444AAAA4444AA44AAAA
AAA44AAAAAAA2AA4AA4AA2A4AAAAAA4AAAAA4AA44AAA2444AAAA4444AA44AAAA
AAA44AAAAAAA2AA4AA4AA2A4AAAAAA4AAAAA4AA44AAA2444AAAA444AAA44AAAA
AAA44AAAAAAA2AA4AA4AA2A4AAAAAA4AAAAA2AA44AAA2444AAAA444AAA44AAAA
AAA44AAAAAAA2AA4AA4AA2A4AAAAAA4AAAAA2AA44AAA2444AAAA444AAA24AAAA
AAA44AAAAAAA2AA4AA4AA2A4AAAAAA4AAAAA2AA44AAA2444AAAA444IAA24AAAA
AAA44AAAAAAA2AA4AA4AA2A4AAAAAA4AAAAI2AA44AAA2444AAAA444IAA24AAAA
AAA44AAAAAAA2AA4AA4AA2A4AAAAAA4AAAAA2AA44AAA2444AAAA444IAA24AAAA
AAI44AAAAAAA2AA4AA4AA2A4AAAAAA4AAAAA2AA44AAA2444AAAA444IAA24AAAA
AAI44AAAAAAA2AA4AA4AA2A4AAAAAI4AAAAA2AA44AAA2444AAAA444IAA24AAAA
AAI44AAAAAAA2AA4AA4AA2A4AAAAAI4AAAAA2AA44AAA2444AIAA444IAA24AAAA
AAI44AAAAAAA2AA4AA4AA2A4AAAAAI4AAAAA2AA44AAA2444AIAA444IAI24AAAA
AAI44AAAAAAA2AA4AA4AA2A4AAAAAI4AAAAA2AA44AAA2444AIAA444IAII4AAAA
AAI44AAAAAAA2AA4AA4AA2A4AAAAAI4AAAAA2AA44AAA2444AIAA444IA444AAAA
AAI44AAAAAAA2AA4AA4AA2A4AAAAAI4AAAAA2AA44AAA2444AAAA444IA444AAAA
AAI44AAAAAAA2AA4AA4AA2A4AAAAAI4AAAAA2AA44AAA2444AAAA444IAA44AAAA
AAI44AAAAAAA2AA4AA4AA2A4AAAAAA4AAAAA2AA44AAA2444AAAA444IAA44AAAA
AAI44AAAAAAA2AA4AA4AA2A4AAAAAA4AAAAA2AA44AAA2444AAAA4444AA44AAAA
AAI44AAAAAAA2AA4AA4AA2A4AAAAAA4AAAAA2AA44AAA2444AAAA4444AI44AAAA
AAI44AAAAAAA2AA4AA2AA2A4AAAAAA4AAAAA2AA44AAA2444AAAA4444AI44AAAA
AAI44AAAAAAA2AA4AA2AA2A4AAAAAA4AAAAA2AA44AAA2444AAAA4444A444AAAA
AA244AAAAAAA2AA4AA2AA2A4AAAAAA4AAAAA2AA44AAA2444AAAA4444A444AAAA
AA244IAAAAAA2AA4AA2AA2A4AAAAAA4AAAAA2AA44AAA2444AAAA4444A444AAAA
AA244IAAAAAA2AA4AA2AA2A4AAAAAA4AAAAA2AA44AAA2A22AAAA4444A444AAAA
AA244IAAAAAA2AA2AA2AA2A4AAAAAA4AAAAA2AA44AAA2A22AAAA4444A444AAAA
AA244IAAAAAA2AAIAA2AA2A4AAAAAA4AAAAA2AA44AAA2A22AAAA4444A444AAAA
AA244IAAAAAA2AAIAA2AA2A4AAAAAA4AAAAA2AA44AAA2A22AAAA4444AA24AAAA
AA244IAAAAAA2AA4AA2AA2A4AAAAAA4AAAAA2AA44AAA2A22AAAA4444AA24AAAA
AA244IAAAAAA2AA4AA2AA2A4AAAAAA4AAAAA2AA44AIA2A22AAAA4444AA24AAAA
AA244IAAAAAI2AA4AA2AA2A4AAAAAA4AAAAA2AA44AIA2A22AAAA4444AA24AAAA
AA244IAAAAAA2AA4AA2AA2A4AAAAAA4AAAAA2AA44AIA2A22AAAA4444AA24AAAA
AA244IAAAAAA2AA4AA2AA2A4AAAAAA4AAAAA2AA44A4A2A22AAAA4444AA24AAAA
AA244IAAAAAI2AA4AA2AA2A4AAAAAA4AAAAA2AA44A4A2A22AAAA4444AA24AAAA
AA244IAAAAAA2AA4AA2AA2A4AAAAAA4AAAAA2AA44A4A2A22AAAA4444AA24AAAA
AA244AAAAAAA2AA4AA2AA2A4AAAAAA4AAAAA2AA44A4A2A22AAAA4444AA24AAAA
AA244AAAAAAAAAA4AA2AA2A4AAAAAA4AAAAA2AA44A4A2A22AAAA4444AA24AAAA
AA244AAAAAAAAAA2AA2AA2A4AAAAAA4AAAAA2AA44A4A2A22AAAA4444AA24AAAA
AA244AAAAAAAAAA2AA2AA2A4AAAAAA2AAAAA2AA44A4A2A22AAAA4444AA24AAAA
AA244AAAAAAAAAA2AA2AA2A4AAAAAA2AAAAA2AA44AAA2A22AAAA4444AA24AAAA
AA24AAAAAAAAAAA2AA2AA2A4AAAAAA2AAAAA2AA44AAA2A22AAAA4444AA24AAAA
AA24AAIAAAAAAAA2AA2AA2A4AAAAAA2AAAAA2AA44AAA2A22AAAA4444AA24AAAA
AA24AAIAAAAAAAA2AAAAA2A4AAAAAA2AAAAA2AA44AAA2A22AAAA4444AA24AAAA
AA24AAIAAAAAAAA2AAAAA2A4AAAAAAAAAAAA2AA44AAA2A22AAAA4444AA24AAAA
AA24AAAAAAAAAAA2AAAAA2A4AAAAAAAAAAAA2AA44AAA2A22AAAA4444AA24AAAA
AA24AAAAAAAIAAA2AAAAA2A4AAAAAAAAAAAA2AA44AAA2A22AAAA4444AA24AAAA
AA24AAAAAAAAAAA2AAAAA2A4AAAAAAAAAAAA2AA44AAA2A22AAAA4444AA24AAAA
AA24AAAAAAAAAAA2AAAAA2A4AAAAAAAAAAAA2AA44AAA2A22AAAA4444AA22AAAA
AA24AAAAAAAAAAA2AAAAA2A2AAAAAAAAAAAA2AA44AAA2A22AAAA4444AA22AAAA
AA24AAAAAAAAAAA2AAAAA2A2AAAAAAAAAAAA2AA44AAA2A22AAAA4A22AA22AAAA
AA24AAAAAAAAAAA2AAAAA2A2AAAAAAAAAAAA2AA44AAA2A22AAAA4I22AA22AAAA
AA24AAIAAAAAAAA2AAAAA2A2AAAAAAAAAAAA2AA44AAA2A22AAAA4I22AA22AAAA
AA24AAIAAAAAAAA2AAAAA2A2AAAAAAAAAAAA2AA44AIA2A22AAAA4I22AA22AAAA
AA24AAAAAAAAAAA2AAAAA2A2AAAAAAAAAAAA2AA44AIA2A22AAAA4I22AA22AAAA
AA24AAAAAAAAAAA2AAAAA2A2AAAAAAAAAAAA2AA44AIA2A22AAAA2I22AA22AAAA
AA24AAAAAAAAAAA2AAAAA2A2AAIAAAAAAAAA2AA44AIA2A22AAAA2I22AA22AAAA
AA24AAAAAAAAAAA2AAAAA2A2AAIAAAAAAAAA2AA44AAA2A22AAAA2I22AA22AAAA
AA24AAAAAAAAAAA2AAAAA2A2AAIAAAAAAAAA2AA44AAA2A22AAAA2A22AA22AAAA
AA24AAAAAAAAAAA2AAAAA2A2AA2AAAAAAAAA2AA44AAA2A22AAAA2A22AA22AAAA
AA24AAAAAAAAAAA2AAAAA2A2AA2AAAAAAAAA2AA44AAA2A22AAAA2A22AA22AAAI
AA24AAAAAAAIAAA2AAAAA2A2AA2AAAAAAAAA2AA44AAA2A22AAAA2A22AA22AAAI
AA24AAAAAAAAAAA2AAAAA2A2AA2AAAAAAAAA2AA44AAA2A22AAAA2A22AA22AAAI
AA24AAAAAAAAAAA2AAAAA2A2AA2AAAAAAAAA2AA44AAA2A22AAAA2A22AA22AAAA
AA24AAAAAAAIAAA2AAAAA2A2AA2AAAAAAAAA2AA44AAA2A22AAAA2A22AA22AAAA
AA24AAAAAAA4AAA2AAAAA2A2AA2AAAAAAAAA2AA44AAA2A22AAAA2A22AA22AAAA
AA24AAAAAAA4AAA2AAAAA2A2AA2AAAAAIAAA2AA44AAA2A22AAAA2A22AA22AAAA
AA24AAAAAAAAAAA2AAAAA2A2AA2AAAAAIAAA2AA44AAA2A22AAAA2A22AA22AAAA
AA24AAAAAAAAAAA2AAAAA2A2AA2AAAAAIAAA2AA42AAA2A22AAAA2A22AA22AAAA
AA24AAAAAAAAAAA2AAAAA2A2AA2AAAAAAAAA2AA42AAA2A22AAAA2A22AA22AAAA
AA24AAAAAAAAAAA2AAAAA2A2AA2AAAAAIAAA2AA42AAA2A22AAAA2A22AA22AAAA
AA24AAAAAAAAAAA2AAAAA2A2AA2AAAAA4AAA2AA42AAA2A22AAAA2A22AA22AAAA
AA24AAAAAAAAAAA2AAAAA2A2AA2AAAAA4AAA2AA42AAA2A22AAAA2AA2AA22AAAA
AA24AAAAAAAAAAI2AAAAA2A2AA2AAAAA4AAA2AA42AAA2A22AAAA2AA2AA22AAAA
AA24AAAAAAAAAA22AAAAA2A2AA2AAAAA4AAA2AA42AAA2A22AAAA2AA2AA22AAAA
AA22AAAAAAAAAA22AAAAA2A2AA2AAAAA4AAA2AA42AAA2A22AAAA2AA2AA22AAAA
AA22AAAAAAAAAA22AAAAA2A2AA2AAAAAAAAA2AA42AAA2A22AAAA2AA2AA22AAAA
AA22AAIAAAAAAA22AAAAA2A2AA2AAAAAAAAA2AA42AAA2A22AAAA2AA2AA22AAAA
AA22AAAAAAAAAA22AAAAA2A2AA2AAAAAAAAA2AA42AAA2A22AAAA2AA2AA22AAAA
AA22AAAAAAAAAA22AAAAA2A2AA2AAAAAIAAA2AA42AAA2A22AAAA2AA2AA22AAAA
AA22AAAAAAAAAA22AAAAA2A2AA2AAAAA4AAA2AA42AAA2A22AAAA2AA2AA22AAAA
AA22AAAAAAAAAA22AAAAAAA2AA2AAAAA4AAA2AA42AAA2A22AAAA2AA2AA22AAAA
AA22AAAAAAAAAA22AAAAAAA2AA2AAAAAAAAA2AA42AAA2A22AAAA2AA2AA22AAAA
AA2AAAAAAAAAAA22AAAAAAA2AA2AAAAAAAAA2AA42AAA2A22AAAA2AA2AA22AAAA
AA2AAAAAAAAAAAA2AAAAAAA2AA2AAAAAAAAA2AA42AAA2A22AAAA2AA2AA22AAAA
AA2AAAAAAAAAAAA2AAAAAAAAAA2AAAAAAAAA2AA42AAA2A22AAAA2AA2AA22AAAA
AA2AAAAAAAAAAAA2AAAAAAAAAA2AAAAAAAAA2AA42IAA2A22AAAA2AA2AA22AAAA
AA2AAAAAAAAAAAA2AAAAIAAAAA2AAAAAAAAA2AA42IAA2A22AAAA2AA2AA22AAAA
AA2AAAAAAAAAAAA2AAAAIAAAAA2AAAAAIAAA2AA42IAA2A22AAAA2AA2AA22AAAA
AA2AAAAAAAAAAAA2AAAAIAAAAA2AAAAAIAAA2IA42IAA2A22AAAA2AA2AA22AAAA
AA2AAAAAAAAAAAA2AAAAIAAAAA2AAAAAIAAA2IA42IAA2A22AAIA2AA2AA22AAAA
AA2AAAAAAAAAAAA2AAAAIAAAAA2AAAAA4AAA2IA42IAA2A22AAIA2AA2AA22AAAA
AA2AAAAAAAAAAAA2AAAA4AAAAA2AAAAA4AAA2IA42IAA2A22AAIA2AA2AA22AAAA
AA2AAAAAAAAAAAA2AAAA4AAAAA2AAAAA4AAA2IA42IAAAA22AA4A2AA2AA22AAAA
AA2AAAAAAAAAAAA2AAAA4AAAAA2AAAAAAAAA24A424AAAA22AA4A2AA2AA22AAAA
AA2AAAAAAAAAAAA2AAAAAAAAAA2AAAAAAAAA24A424AAAA22AA4A2AA2AA22AAAA
AA2AAAIAAAAAAAA2AAAAAAAAAA2AAAAAAAAA24A424AAAA22AA4A2AA2AA22AAAA
AA2AAAIAAAAAAAA2AAAAAAAAAA2AAAAAAAAA24A424IAAA22AA4A2AA2AA22AAAA
AA2AAAAAAAAAAAA2AAAAAAAAAA2AAAAAAAAA24A424IAAA22AA4A2AA2AA22AAAA
AA2AAAAAAAAAAAA2AAAAAAAAAA2AAAAAAAAA24A424AAAA22AA4A2AA2AA22AAAA
AA2AAAAAAAAAAAA2AAAAAAAAAA2AAAAAAAAA24A224AAAA22AA4A2AA2AA22AAAA
AA2AAAAAAAAAAAA2AAAAIAAAAA2AAAAAAAAA24A224AAAA22AA4A2AA2AA22AAAA
AAAAAAAAAAAAAAA2AAAAIAAAAA2AAAAAAAAA24A224AAAA22AA4A2AA2AA22AAAA
AAAAAAAAAAAAAAA2AAAAIAAAAA2AAAAAAIAA24A224AAAA22AA4A2AA2AA22AAAA
AAAAAAAAAAAAAAA2AAAAIAAAAA2AAAAAA2AA24A224AAAA22AA4A2AA2AA22AAAA
AAAAAAAAAAAAAAA2AAAAIAAAAA2AAAAAAAAA22A224AAAA22AA4A2AA2AA22AAAA
AAAAAAAAAAAAAAA2AAAA4AAAAA2AAAAAAAAA22A224AAAA22AA4A2AA2AA22AAAA
AAAAAAAAAAAAAAA2AAAA4AAAAAAAAAAAAAAA22A224AAAA22AA4A2AA2AA22AAAA
AAAAAAAAAAAAAAA2AAAA4AAAAAAAAAAAAAAA22A224AIAA22AA4A2AA2AA22AAAA
AAAAAAAAAAAAAAA2AAAA4AAAAAAAAAAAAAAA22A224AIAA22AA4A2AA2AA22AIAA
AAAAAAAAAAAAAAA2AAAA4AAAAAAAAAAAAAAA22A224A4AA22AA4A2AA2AA22AIAA
AAAAAAAAAAAAAAA2AAAA4AAAAAAAAAAAAAAA22A224A4AA22AA4A2AA2AA2AA2AA
AAAAAAAAAAAAAAA2AAAA4AAAAAAAAAAAAAAA22A22AA2AA22AA4A2AA2AA2AA2AA
AAAAAAAAAAAAAAA2AAAA4AAAAAAAAAAAAAAA22A22AA2AAA2AA4A2AA2AA2AA2AA
AAAAAAAAAAAAAAA2AAAA4AAAAAAAAAAAAAAA22A22AAAAAA2AA4A2AA2AA2AA2AA
AAAAAAAAAAAAAAA2AAAA4AAAAAAAAAAAAAAA22A22AAAAAA2AA2A2AA2AA2AA2AA
AAAAAAAAAAAAAAA2AAAA4AAAAAAAAAAAAAAA22A22AAAAAA2AA2A2AA2AA2AAAAA
AAAAAAAAAAAIAAA2AAAA4AAAAAAAAAAAAAAA22A22AAAAAA2AA2A2AA2AA2AAAAA
AAAAAAAAAAAAAAA2AAAA4AAAAAAAAAAAAAAA22A22AAAAAA2AA2A2AA2AA2AAAAA
AAAAAAAAAAAAAAA2AAAA4AAAAAAAAAAAAAAA22A22AAAAAA2AA2A2AA2AA2AAIAA
AAAAAAAAAAAAAAA2AAAA4AAAAAAAAAAAAAAA22A22AAAAAA2AAIA2AA2AA2AAIAA
AAAAAAAAAAAAAAA2AAAAAAAAAAAAAAAAAAAA22A22AAAAAA2AAIA2AA2AA2AAIAA
AAAAAAAAAAAAAAA2AAAAAAAAAAIAAAAAAAAA22A22AAAAAA2AAIA2AA2AA2AAIAA
AAAAAAAAAAAIAAA2AAAAAAAAAAIAAAAAAAAA22A22AAAAAA2AAIA2AA2AA2AAIAA
AAAAAAAAAAA4AAA2AAAAAAAAAAIAAAAAAAAA22A22AAAAAA2AAIA2AA2AA2AAIAA
AAAAAAAAAAA4AAA2AAAAAAAAAAIAAAAAAAAA22A22AAAAAA2AAIA2AA2AA2AA4AA
AAAAAAAAAAA2AAA2AAAAAAAAAAIAAAAAAAAA22A22AAAAAA2AAIA2AA2AA2AA4AA
AAAAAAAAAAAAAAA2AAAAAAAAAAIAAAAAAAAA22A22AAAAAA2AAIA2AA2AA2AA4AA
AAAAAAAAAAAAAAA2AAAAAAAAAAIAAAAAAAAA22A22AAAAAA2AA4A2AA2AA2AA4AA
AAAAAAAAAAAAAAA2AAAAAAAAAA4AAAAAAAAA22A22AAAAAA2AA4A2AA2AA2AA4AA
AAAAAAAAAAAIAAA2AAAAAAAAAA4AAAAAAAAA22A22AAAAAA2AA4A2AA2AA2AA4AA
AAAAAAAAAAAAAAA2AAAAAAAAAA4AAAAAAAAA22A22AAAAAA2AA4A2AA2AA2AA4AA
AAAAAAAAAAAIAAA2AAAAAAAAAA4AAAAAAAAA22A22AAAAAA2AA4A2AA2AA2AA4AA
AAAAAAAAAAAAAAA2AAAAAAAAAA4AAAAAAAAA22A22AAAAAA2AA4A2AA2AA2AA4AA
AAAAAAAAAAAAAAA2AAAAAAAAAA2AAAAAAAAA22A22AAAAAA2AA4A2AA2AA2AA4AA
AAAAAAAAAAAAAAI2AAAAAAAAAA2AAAAAAAAA22A22AAAAAA2AA4A2AA2AA2AA4AA
AAAAAAAAAAAAAAI2AAAAAAAAAA2AAAAAAAAI22A22AAAAAA2AA4A2AA2AA2AA4AA
AAAAAAAAAAAAAAI2AAAAAAAAAA2AAAAAIAAI22A22AAAAAA2AA4A2AA2AA2AA4AA
AAAAAAAAAAAAAAI2AAIAAAAAAA2AAAAAIAAI22A22AAAAAA2AA4A2AA2AA2AA4AA
AAAAAAAAAAAAAA22AA4AAAAAAA2AAAAAIAAI22A22AAAAAA2AA4A2AA2AA2AA4AA
AAAAAAAAAAAAAAA2AA2AAAAAAA2AAAAAIAAI22A22AAAAAA2AA4A2AA2AA2AA4AA
AAAAAAAAAAAAAAA2AA2AAAAAAA2AAAAAIAA422A22AAAAAA2AA4A2AA2AA2AA4AA
AAAAAAAAAAAAAAA2AA2AAAAAAA2AAAAAAAA222A22AAAAAA2AA4A2AA2AA2AA4AA
AAAAAAAAAAAAAAA2AA2AAAAAAA2AAAAAAAA2A2A22AAAAAA2AA4A2AA2AA2AA4AA
AAAAAAAAAAAAAAI2AA2AAAAAAA2AAAAAAAA2A2A22AAAAAA2AA4A2AA2AA2AA4AA
AAAAAAAAAAAAAAI2AA2AAAAAAA2AAAAAAAAAA2A22AAAAAA2AA4A2AA2AA2AA4AA
AAAAAAAAAAAAAA42AA2AAAAAAA2AAAAAAAAAA2A22AAAAAA2AA4A2AA2AA2AA4AA
AAAAAAAAAAAAAA42AA2AAAAAAA2AAAAAAAAAA2A22AAAAAA2AA4A2AA2AAAAA2AA
AAAAAAAAAAAAAA42AA2AAAAAAAAAAAAAAAAAA2A22AAAAAA2AA4A2AA2AAAAA2AA
AAAAAAAAAAAAAA42AA2AAAAAAAAAAAAAAAAAA2A22AAAAAA2AA4A2AA2AAAAAIAA
AAAAAAAAAAAAAAA2AA2AAAAAAAAAAAAAAAAAA2A22AAAAAA2AA4A2AA2AAAAAIAA
AAAAAAAAAAAAAAA2IA2AAAAAAAAAAAAAAAAAA2A22AAAAAA2AA4A2AA2AAAAAIAA
AAAAAAAAAAAAAAA24A2AAAAAAAAAAAAAAAAAA2A22AAAAAA2AA4A2AA2AAAAAIAA
AAAAAAAAAAAAAAA24A2AAAAAAAAAAAAAAIAAA2A22AAAAAA2AA4A2AA2AAAAAIAA
AAAAAAAAAAAIAAA24A2AAAAAAAAAAAAAAIAAA2A22AAAAAA2AA4A2AA2AAAAAIAA
AAAAAAAAAAAAAAA24A2AAAAAAAAAAAAAAIAAA2A22AAAAAA2AA4A2AA2AAAAAIAA
AAAAAAAAAAAAAAA24A2AAAAAAAAAAAAAA2AAA2A22AAAAAA2AA4A2AA2AAAAAIAA
AAAAAAAAAAAAAAA24A2AAAAAAAAAAAAAAAAAA2A22AAAAAA2AA4A2AA2AAAAAIAA
AAAAAAAAAAAAAAA24A2AAAAAAAAAAAAAAAAAA2A22AAAAAA2AA2A2AA2AAAAA4AA
AAAAAAAAAAAAAAA24A2AAAAAAAAAAAAAAAAAA2A22AAAAAA2AI2A2AA2AAAAA4AA
AAAAAAAAAAAAAAA24A2AAAAAAAAAAAAAIAAAA2A22AAAAAA2AI2A2AA2AAAAA4AA
AAAAAAAAAAAAAAA24A2AAAAAAAAAAAAAIAAAA2A22AAAAAA2A22A2AA2AAAAA4AA
AAAAAAAAAAAAAAA22A2AAAAAAAAAAAAAIAAAA2A22AAAAAA2A22A2AA2AAAAA4AA
AAAAAAIAAAAAAAA22A2AAAAAAAAAAAAAIAAAA2A22AAAAAA2A22A2AA2AAAAA4AA
AAAAAA4AAAAAAAA22A2AAAAAAAAAAAAAIAAAA2A22AAAAAA2A22A2AA2AAAAA4AA
AAAAAAAAAAAAAAA22A2AAAAAAAAAAAAAIAAAA2A22AAAAAA2A22A2AA2AAAAA4AA
AAAAAAAAAAAAAAA22A2AAAAAAAAAAAAA4AAAA2A22AAAAAA2A22A2AA2AAAAA4AA
AAAAAAAAAAAAAAA22A2AAAAAAAAAAAAA2AAAA2A22AAAAAA2A22A2AA2AAAAA4AA
AAAAAAAAAAAAAAA22A2AAAAAAAAAAAAAAAAAA2A22AAAAAA2A22A2AA2AAAAA4AA
AAAAAAAAAAAAAAA22A2AAAAAAAAAAAAAAAAAA2A22AAAAAA2AA2A2AA2AAAAA4AA
AAAAAAAAAAAAAAA22A2AAAAAAAAAAAAAAAAAA2A22AAAAAA2AA2A2AA2AAAAA2AA
AAAAAAAAAAAAAAA22A2AAAAAAAAAAAAAAAAAA2A22AAAAAA2AA2A2AA2AAAAI2AA
AAAAAAAAAAAAAAA22A2AAAAAAAAAAAAAAAAAA2I22AAAAAA2AA2A2AA2AAAAI2AA
AAAAAAAAAIAAAAA22A2AAAAAAAAAAAAAAAAAA2I22AAAAAA2AA2A2AA2AAAAI2AA
AAAAAAAAAIAAAAA22A2AAAAAAAAAAAAAAAAAA2I22AIAAAA2AA2A2AA2AAAAI2AA
AAAAAAAAA2AAAAA22A2AAAAAAAAAAAAAAAAAA2I22AIAAAA2AA2A2AA2AAAAI2AA
AAAAAAAAA2AAAAA22A2AAAAAAAAAAAAAAAAAA2I22A2AAAA2AA2A2AA2AAAAI2AA
AAAAAAAAA2AAAAA22A2AAAAAAAAAAAAAAAAAA2422A2AAAA2AA2A2AA2AAAAI2AA
AAAAAAAAA2AAAAA22A2AAAAAAAAAAAAAAAAAA2422A2AAAA2AA2A2AA2AAAA42AA
AAAAAAAAA2AAAAA22A2AAAAAAAAAAAAAAAAAA2422AAAAAA2AA2A2AA2AAAA42AA
AAAIAAAAA2AAAAA22A2AAAAAAAAAAAAAAAAAA2422AAAAAA2AA2A2AA2AAAA42AA
AAAIAAAAA2AAAAA22A2AAAAAAAAAAAAAAAAAA242AAAAAAA2AA2A2AA2AAAA42AA
AAAIAAAAA2AAAAA2AA2AAAAAAAAAAAAAAAAAA242AAAAAAA2AA2A2AA2AAAA42AA
AAAIAAAAA2AAAAA2AA2AAAAAAAIAAAAAAAAAA242AAAAAAA2AA2A2AA2AAAA42AA
AAAIAAAAA2AAAAA2AA2AAAAAAAIAAAAAAAAAA242IAAAAAA2AA2A2AA2AAAA42AA
AAAIAAAAA2AAAAA2AA2AAAAAAA4AAAAAAAAAA242IAAAAAA2AA2A2AA2AAAA42AA
AAAIAAAAA2AAAAA2AA2AAAAAAA4AAAAAAAAAA222IAAAAAA2AA2A2AA2AAAA42AA
AAAIAAAAA2AAAAA2AA2AAAAAAA4AAAAAAAAAA2224AAAAAA2AA2A2AA2AAAA42AA
AAAIAAAAA2AAAAA2AA2AAAAAAA4AAAAAAAAAA2A24AAAAAA2AA2A2AA2AAAA42AA
AAAIAAAAA2AAAAA2AA2AAAAAAA2AAAAAAAAAA2A24AAAAAA2AA2A2AA2AAAA42AA
AAAIAAAAA2AAAAA2AAAAAAAAAA2AAAAAAAAAA2A24AAAAAA2AA2A2AA2AAAA42AA
AAAIAAAAA2AAAAA2AAAAAAAAAA2AAAAAAAAAA2A22AAAAAA2AA2A2AA2AAAA42AA
AAAIAAAAA2AAAAA2AAIAAAAAAA2AAAAAAAAAA2A22AAAAAA2AA2A2AA2AAAA42AA
AAAIAAIAA2AAAAA2AAIAAAAAAA2AAAAAAAAAA2A22AAAAAA2AA2A2AA2AAAA42AA
AAAIAAIAA2AAAAA2AA4AAAAAAA2AAAAAAAAAA2A22AAAAAA2AA2A2AA2AAAA42AA
AAAIAAIAA2AAAAA2AA4AAAAAAA2AAAAAAAAAA2A22AAAAAA2AA2A2AA2AAAA4AAA
AAAIAAIAA2AAAAA2AA4AAAAAAAAAAAAAAAAAA2A22AAAAAA2AA2A2AA2AAAA4AAA
AAAIAAIAA2AAAAA2AA2AAAAAAAAAAAAAAAAAA2A22AAAAAA2AA2A2AA2AAAA4AAA
AAAIAAIAA2AAAAA2AA2AAAAAAAAAAIAAAAAAA2A22AAAAAA2AA2A2AA2AAAA4AAA
AAAIAAAAA2AAAAA2AA2AAAAAAAAAAIAAAAAAA2A22AAAAAA2AA2A2AA2AAAA4AAA
AAAIAAAAA2AAAAA2AA2AAAAAAAAAAIAAAAAAAAA22AAAAAA2AA2A2AA2AAAA4AAA
AAAIAAAAA2AAAAA2AA2AAAAAAAAAAIAAAAAAAAA22AAAAAA2AA2A2AAAAAAA2AAA
AAAIAAAAA2AIAAA2AA2AAAAAAAAAAIAAAAAAAAA22AAAAAA2AA2A2AAAAAAA2AAA
AAAIAAAAA2AIAAA2AA2AAAAAAAAAAIIAAAAAAAA22AAAAAA2AA2A2AAAAAAA2AAA
AAA4AAAAA2A4AAA2AA2AAAAAAAAAAIIAAAAAAAA22AAAAAA2AA2A2AAAAAAA2AAA
AAA4AAAAA2AAAAA2AA2AAAAAAAAAAIIAAAAAAAA22AAAAAA2AA2A2AAAAAAA2AAA
AAA4AAAAA2AAAAA2AA2AAAAAAAAAAIAAAAAAAAA22AAAAAA2AA2A2AAAAAAA2AAA
AAA4AAAAA2AAAAA2AA2AAAAAAAAAAIAAIAAAAAA22AAAAAA2AA2A2AAAAAAA2AAA
AAA4AAAAA2AAAAA2AA2AAAAAAAAAAIAAAAAAAAA22AAAAAA2AA2A2AAAAAAA2AAA
AAA4AAAAA2AAAAA2AA2AAAAAAAAAA4AAAAAAAAA22AAAAAA2AA2A2AAAAAAA2AAA
AAA4AAAAA2AAAAI2AA2AAAAAAAAAA4AAAAAAAAA22AAAAAA2AA2A2AAAAAAA2AAA
AAA4AAAAA2AAAA42AA2AAAAAAAAAA4AAAAAAAAA22AAAAAA2AA2A2AAAAAAA2AAA
AAA4AAAAA2AAAA4AAA2AAAAAAAAAA4AAAAAAAAA22AAAAAA2AA2A2AAAAAAA2AAA
AAA4AAAAA2AAAA2AAA2AAAAAAAAAA4AAAAAAAAA22AAAAAA2AA2A2AAAAAAA2AAA
AAA4AAAAA2AAAA2AAA2AAAAAAAAAA4AAIAAAAAA22AAAAAA2AA2A2AAAAAAA2AAA
AAA4AAAAA2AAAA2AAA2AAAAAAAAAA4AAAAAAAAA22AAAAAA2AA2A2AAAAAAA2AAA
AAA4AAAAA2AIAA2AAA2AAAAAAAAAA4AAAAAAAAA22AAAAAA2AA2A2AAAAAAA2AAA
AAA4AAAAA2A2AA2AAA2AAAAAAAAAA4AAAAAAAAA22AAAAAA2AA2A2AAAAAAA2AAA
AAA4AAAAA2A2AA2AAA2AAAAAAAAAA4AAAAAAAAA22AAAAAA2AA2A2AAIAAAA2AAA
AAA4AAAAA2A2AA2AAA2AAAAAAAAAA4AAAAAAAAA22AAAAAA2AA2A2AAIAAIA2AAA
AAA4AAAAA2AAAA2AAA2AAAAAAAAAA4AAAAAAAAA22AAAAAA2AA2A2AAIAAIA2AAA
AAA4AAAAA2AAAA2AAA2AAAAAAAAAA4AAAAAAAAA22AAAAAA2AA2A2AAIAA4A2AAA
AAA4AAAAA2AAAA2AAAAAAAAAAAAAA4AAAAAAAAA22AAAAAA2AA2A2AAIAA4A2AAA
AAA4AAAAA2AAAA2AAAAAAAAAAAAAA4AAAAAAAAA22AAAAAA2AA2A2AA4AA4A2AAA
AAA4AAAAA2AAAA2AAAAAAAAAAAAAAAAAAAAAAAA22AAAAAA2AA2A2AA4AA4A2AAA
AAA4AAAAA2AAAA2AAAAAAAAAAAAAAAAAAAAAAIA22AAAAAA2AA2A2AA4AA4A2AAA
AAA4AAAAA2AAAA2AAAAAIAAAAAAAAAAAAAAAAIA22AAAAAA2AA2A2AA4AA4A2AAA
AAA4AAAAA2AAAA2AAAAAAAAAAAAAAAAAAAAAAIA22AAAAAA2AA2A2AA4AA4A2AAA
AAA4AAAAA2AAAA2AAAAAAAAAAAAAAAAAAAAAAIA22AAAAAA2AA2A2AA4AA2A2AAA
AAA4AAAAA2AAAA2AAAAAAAAAAAAAAAAAAAAAA4A22AAAAAA2AA2A2AA4AA2A2AAA
AAA4AAAAA2AAAA2AAAAAAAAAAAAAAAAAAAAAA4AA2AAAAAA2AA2A2AA4AA2A2AAA
AAA4AAAAA2AAAA2AAAAAAAAAAAAAAAAAAAAAA4AA2AAAAAA2AA2A2AA2AA2A2AAA
AAA4AAAAA2AAAA2AAAAAAAAAAAAAAAAAAAAAA4AA2AAAAAA2AA2A2AAAAA2A2AAA
AAA4AAIAA2AAAA2AAAAAAAAAAAAAAAAAAAAAA4AA2AAAAAA2AA2A2AAAAA2A2AAA
AAA4AAIAA2AAAA2AAAAAAAAAAAAAAAAAAAAAA4AA2AAAAAA2AAAA2AAAAA2A2AAA
AAA4AAAAA2AAAA2AAAAAAAAAAAAAAAAAAAAAA4AA2AAAAAA2AAAA2AAAAA2A2AAA
AAA4AAAAA2AAAA2AAAAAAAAAAAAAAAAAAAAAAAAA2AAAAAA2AAAA2AAAAA2A2AAA
AAA4AAAAA2AAAAAAAAAAAAAAAAAAAAAAAAAAAAAA2AAAAAA2AAAA2AAAAA2A2AAA
AAA4AAAAA2AAAAAAIAAAAAAAAAAAAAAAAAAAAAAA2AAAAAA2AAAA2AAAAA2A2AAA
AAA4AAAAA2AAAAAA4AAAAAAAAAAAAAAAAAAAAAAA2AAAAAA2AAAA2AAAAA2A2AAA
AAA4AAIAA2AAAAAA4AAAAAAAAAAAAAAAAAAAAAAA2AAAAAA2AAAA2AAAAA2A2AAA
AAA4AAAAA2AAAAAA4AAAAAAAAAAAAAAAAAAAAAAA2AAAAAA2AAAA2AAAAA2A2AAA
AAA4AAAAA2AAAAAA2AAAAAAAAAAAAAAAAAAAAAAA2AAAAAA2AAAA2AAAAA2A2AAA
AAA4AAAAA2AAAAAAAAAAAAAAAAAAAAAAAAAAAAAA2AAAAAA2AAAA2AAAAA2A2AAA
AAA4AAAAA2AAAAAAAAAAAAAAAAIAAAAAAAAAAAAA2AAAAAA2AAAA2AAAAA2A2AAA
AAA4AAAAA2AAAAAAAAAAAIAAAAIAAAAAAAAAAAAA2AAAAAA2AAAA2AAAAA2A2AAA
AAA4AAAAA2AAAAAAAAAAAIAAAA4AAAAAAAAAAAAA2AAAAAA2AAAA2AAAAA2A2AAA
AAA4AAAAA2AAAAAAAAAAA4AAAA4AAAAAAAAAAAAA2AAAAAA2AAAA2AAAAA2A2AAA
AAAAAAAAA2AAAAAAAAAAA4AAAA4AAAAAAAAAAAAA2AAAAAA2AAAA2AAAAA2A2AAA
AAAAAAAAA2AAAAAAAAAAA4AAAA2AAAAAAAAAAAAA2AAAAAA2AAAA2AAAAA2A2AAA
AAAAAAAAA2AAAAAAAAAAA4AAAA2AAAAAAAAIAAAA2AAAAAA2AAAA2AAAAA2A2AAA
AAAAAAAAA2AAAAAAAAAAA2AAAA2AAAAAAAAIAAAA2AAAAAA2AAAA2AAAAA2A2AAA
AAAAAAAAA2AAAAAAAAAAA2AAAA2AAAAAAAA4AAAA2AAAAAA2AAAA2AAAAA2A2AAA
AAAAAAAAA2AAAAAAAAAAA2AAAA2AAAAAAAA4AAAA2AAAAAA2AIAA2AAAAA2A2AAA
AAAAAAAAA2AAAAAAAAAAA2AAAAIAAAAAAAA4AAAA2AAAAAA2AIAA2AAAAA2A2AAA
AAAAAAAAA2AAAAAAAAAAA2AAAAIIAAAAAAA4AAAA2AAAAAA2AIAA2AAAAA2A2AAA
AAAAAAAAA2AAAAAAAAAAA2AAAAIIAAAAAAA4AAAA2AAAAAA2AIAA2AAAAI2A2AAA
AAAAAAAAA2AAAAAAAAAAA2AAAAI4AAAAAAA4AAAA2AAAAAA2AIAA2AAAAI2A2AAA
AAAAAAAAA2AAAAAAAAAAA2AAAAI4AAAAAAA4AAAA2AAAAAA2A4AA2AAAAI2A2AAA
AAAAAAAAA2AAAAAAAAAAA2AAAA44AAAAAAA4AAAA2AAAAAA2A4AA2AAAAI2A2AAA
AAAAAAAAA2AAAAAAAAAAA2AAAA44AAAAAAA4AAAA2AAAAAA2A4AA2AAAAI2AAAAA
AAAAAAAAA2AAAAAAAAAAA2AAAA4AAAAAAAA4AAAA2AAAAAA2A4AA2AAAAI2AAAAA
AAAAAAAAAAAAAAAAAAAAA2AAAA4AAAAAAAA4AAAA2AAAAAA2A4AA2AAAAI2AAAAA
AAAAAAAAAAAAAAAAAAAAA2AAAA2AAAAAAAA4AAAA2AAAAAA2A4AA2AAAAI2AAAAA
AAAAAAAAAAAAAAAAAAAAA2AAAA2AAAAAAAA2AAAA2AAAAAA2A4AA2AAAAI2AAAAA
AAAAAAAAAAAAAAAAAAAAA2AAAAAAAAAAAAA2AAAA2AAAAAA2A4AA2AAAAI2AAAAA
AAAAAAAAAAAAAAAAAAAAA2AAAAAAAAAAAAAIAAAA2AAAAAA2A4AA2AAAAI2AAAAA
AAAAAAAAAAAAAAAAAAAAA2AAAAAAAAAAAAAIAAAA2AAAAAA2A2AA2AAAA42AAAAA
AAAAAAAAAAAAAAAAAAAAA2AAAAIAAAAAAAAIAAAA2AAAAAA2A2AA2AAAA42AAAAA
AAAAAAAAAAAAAAAAAAAAA2AAAAIAAAAAAAA4AAAA2AAAAAA2A2AA2AAAA42AAAAA
AAAAAAAAAAAAAAAAAAAAA2AAAA4AAAAAAAA4AAAA2AAAAAA2A2AA2AAAA42AAAAA
AAAAAAAAAAAAAAAAAAAAA2AAAA4AAAAAAAA4AAAA2AAAAAA2AAAA2AAAA22AAAAA
AAAAAAAAAAAAAAAAAAAAA2AAAA4AAAAAAAA4AAAA2AAAAAA2AAAA2AAAAA2AAAAA
AAAAAAAAAAAIAAAAAAAAA2AAAA4AAAAAAAA4AAAA2AAAAAA2AAAA2AAAAA2AAAAA
AAAAAAAAAAAIAAAAAAAAA2AAAA4AAAAAAAA4AAAA2AAAAAA2AIAA2AAAAA2AAAAA
AAAAAAAAAAAIAAAAAAAAA2AAAA4AAAAAAAAAAAAA2AAAAAA2AIAA2AAAAA2AAAAA
AAAAAAAAAAAIAAAAAAAAA2AAAA4AAAAAAAAAAAAA2AAAAAA2AAAA2AAAAA2AAAAA
AAAAAAAAAAAIAAAAAAAAA2AAAA2AAAAAAAAAAAAA2AAAAAA2AAAA2AAAAA2AAAAA
AAAAAAAAAAAAAAAAAAAAA2AAAA2AAAAAAAAAAAAA2AAAAAA2AAAA2AAAAA2AAAAA
AAAAAAAAAAAAAAAAAAAAA2AAAA2AAAAAAAAAAAAA2AAIAAA2AAAA2AAAAA2AAAAA
AAAAAAAAAAAAAAAAAAAAA2AAAAAAAAAAAAAAAAAA2AAIAAA2AAAA2AAAAA2AAAAA
AAAAAAAAAAAAAAAAAAAAA2AAAAAAAAAAAAAAAAAA2AA2AAA2AAAA2AAAAA2AAAAA
AAAAAAAAAAAAAAAAAAAAI2AAAAAAAAAAAAAAAAAA2AA2AAA2AAAA2AAAAA2AAAAA
AAAAAAAAAAAAAAAAAAAA42AAAAAAAAAAAAAAAAAA2AA2AAA2AAAA2AAAAA2AAAAA
AAAAAAAAAAAAAAAAAAAA42AAAAAAAIAAAAAAAAAA2AA2AAA2AAAA2AAAAA2AAAAA
AAAAAAAAAAAAAAAAAAAA42AAAAAAAIAAIAAAAAAA2AA2AAA2AAAA2AAAAA2AAAAA
AAAAAAAAAAAAAAAAAAAAA2AAAAAAA4AAIAAAAAAA2AA2AAA2AAAA2AAAAA2AAAAA
AAAAAAAAAAAAAAAAAAAAA2AAAAAAA4AAAAAAAAAA2AA2AAA2AAAA2AAAAA2AAAAA
AAAAAAAAAAAAAAAAAAAAI2AAAAAAA4AAAAAAAAAA2AA2AAA2AAAA2AAAAA2AAAAA
AAAAAAAAAAAAAAAAAAAAIAAAAAAAA4AAAAAAAAAA2AA2AAA2AAAA2AAAAA2AAAAA
AAAAAAAAAAAAAAAAAAAA4AAAAAAAA4AAAAAAAAAA2AA2AAA2AAAA2AAAAA2AAAAA
AAAAAAAAAAAAAAAAAAAA4IAAAAAAA4AAAAAAAAAA2AA2AAA2AAAA2AAAAA2AAAAA
AAAAAAAAAAAAAAAAAAAA4IAAAAAAA4AAAAIAAAAA2AA2AAA2AAAA2AAAAA2AAAAA
AAAAAAAAAAAAAAAAAAAA44AAAAAAA4AAAAIAAAAA2AA2AAA2AAAA2AAAAA2AAAAA
AAAAAAAAAAAAAAAAAAAA44AAAAAAA2AAAA4AAAAA2AA2AAA2AAAA2AAAAA2AAAAA
AAAAAAAAAAAAAAAAAAAA44AAAAAAA2IAAA4AAAAA2AA2AAA2AAAA2AAAAA2AAAAA
AAAAAAAAAAAAAAAAAAAAA2AAAAAAA2IAAA4AAAAA2AA2AAA2AAAA2AAAAA2AAAAA
AAAAAAAAAAAAAAAAAAAAA2AAAAAAA2IAAA2AAAAA2AA2AAA2AAAA2AAAAA2AAAAA
AAAAAAAAAAAAAAAAAAAAAIAAAAAAA2IAAA2AAAAA2AA2AAA2AAAA2AAAAA2AAAAA
AAAAAAAAAAAAAAAAAAAAA4AAAAAAA2IAAA2AAAAA2AA2AAA2AAAA2AAAAA2AAAAA
AAAAAAAAAAAAAAAAAAAAA2AAAAAAA24AAA2AAAAA2AA2AAA2AAAA2AAAAA2AAAAA
AAAAAAAAAAAAAAAAAAAAAIAAAAAAA24AAA2AAAAA2AA2AAA2AAAA2AAAAA2AAAAA
AAAAAAAAAAAAAAAAAAAAAIAAAAAAA24AAI2AAAAA2AA2AAA2AAAA2AAAAA2AAAAA
AAAAAAAAAAAAAAAAAAAAA4AAAAAAA24AAI2AAAAA2AA2AAA2AAAA2AAAAA2AAAAA
AAAAAAAAAAAAAAAAAAAAAAAAAAAAA24AAI2AAAAA2AA2AAA2AAAA2AAAAA2AAAAA
AAAAAAAAAAAAAAAAAAAAAAAAAAAAA24AA22AAAAA2AA2AAA2AAAA2AAAAA2AAAAA
AAAAAAAAAAAAAAAAAAAAAAAAAAAAA24AAA2AAAAA2AA2AAA2AAAA2AAAAA2AAAAA
AAAAAAAAAAAAAAAAAIAAAAAAAAAAA24AAA2AAAAA2AA2AAA2AAAA2AAAAA2AAAAA
AAAAAAAAAAAAAAAAA2AAAAAAAAAAA24AAA2AAAAA2AA2AAA2AAAA2AAAAA2AAAAA
AAAAAAAAAAAAAAAAA2AAAAAAAAAAA24AAA2AAAAAAAA2AAA2AAAA2AAAAA2AAAAA
AAAAAAAAAAAIAAAAA2AAAAAAAAAAA24AAA2AAAAAAAA2AAA2AAAA2AAAAA2AAAAA
AAAAAAAAAAAIAAAAA2AAAAAAAAAAA24AIA2AAAAAAAA2AAA2AAAA2AAAAA2AAAAA
AAAAAAAAAAAAAAAAA2AAAAAAAAAAA24AIA2AAAAAAAA2AAA2AAAA2AAAAA2AAAAA
AAAAAAAAAAAAAAAAA2AAAAAAAAAAA24AAA2AAAAAAAA2AAA2AAAA2AAAAA2AAAAA
AAAAAAAAAAAAAAAAAAAAAAAAAAAAA24AAA2AAAAAAAA2AAA2AAAA2AAAAA2AAAAA
AAAAAAAAAAAAAAAAAAAAAAAAAAAAA22AAA2AAAAAAAA2AAA2AAAA2AAAAA2AAAAA
AAAAAIAAAAAAAAAAAAAAAAAAAAAAA22AAA2AAAAAAAA2AAA2AAAA2AAAAA2AAAAA
AAAAAIAAAAAAAAAAAAAAIAAAAAAAA22AAA2AAAAAAAA2AAA2AAAA2AAAAA2AAAAA
AAAAAIAAAAAAAAAAAAAA4AAAAAAAA22AAA2AAAAAAAA2AAA2AAAA2AAAAA2AAAAA
AAAAAIAAAAAAAAAAAAAAAAAAAAAAA22AAA2AAAAAAAA2AAA2AAAA2AAAAA2AAAAA
AAAAAIAAAAAAAAAAAAAAAAAAAAAAA22AAA2AAAAAAAI2AAA2AAAA2AAAAA2AAAAA
AAAAAIAAAAAIAAAAAAAAAAAAAAAAA22AAA2AAAAAAAI2AAA2AAAA2AAAAA2AAAAA
AAAAAIAAAAAIAAAAAAAAAAAAAAAAA22AIA2AAAAAAAI2AAA2AAAA2AAAAA2AAAAA
AAAAAIAAAAAIAAAAAAAAAAAAAAAAA22AIA2AAAAAAAI2AAA2AAAA2AAIAA2AAAAA
AAAAAIAAAAAIAAAAAAAAAAAAAAAAA22AAA2AAAAAAA42AAA2AAAA2AAIAA2AAAAA
AAAAAIAAAAAAAAAAAAAAAAAAAAAAA22AAA2AAAAAAA42AAA2AAAA2AAIAA2AAAAA
AAAAAIAAAAAAAAAAAAAAAAAAAAAAA22AAA2AAAAAAAA2AAA2AAAA2AA4AA2AAAAA
AAAAAIAAAAAAAAAAAAAAAAAAAAAAA2AAAA2AAAAAAAA2AAA2AAAA2AA4AA2AAAAA
AAAAAIAAAAAAAAAAAAAAAAAAAAAAA2AAAA2AAAAAAAI2AAA2AAAA2AA4AA2AAAAA
AAAAAIIAAAAAAAAAAAAAAAAAAAAAA2AAAA2AAAAAAAI2AAA2AAAA2AA4AA2AAAAA
AAAAAIAAAAAAAAAAAAAAAAAAAAAAA2AAAA2AAAAAAAI2AAA2AAAA2AA4AA2AAAAA
AAAAAIAAAAAIAAAAAAAAAAAAAAAAA2AAAA2AAAAAAAI2AAA2AAAA2AA4AA2AAAAA
AAAAAIAAAAAAAAAAAAAAAAAAAAAAA2AAAA2AAAAAAAI2AAA2AAAA2AA4AA2AAAAA
AAAAAIAAAAAAAAAAAAAAAAAAAAAAA2AAAA2AAAAAAA42AAA2AAAA2AA4AA2AAAAA
AAAAAIAAAAAAAAAAAAAAAAAAAIAAA2AAAA2AAAAAAA42AAA2AAAA2AA4AA2AAAAA
AAAAAIAAAAAAAAAAAAAAAAAAA4AAA2AAAA2AAAAAAA42AAA2AAAA2AA4AA2AAAAA
AAAAAIAAAAAAAAAAAAAAAAAAA4AAA2AAAA2AAAAAAAA2AAA2AAAA2AA4AA2AAAAA
AAAAAIAAAAAAAAAAAAAAAAAAA4AAA2AAIA2AAAAAAAA2AAA2AAAA2AA4AA2AAAAA
AAAAAIAAAAAAAAAAAAAAAAAAA4AAA2AAIA2AAAAAAAI2AAA2AAAA2AA4AA2AAAAA
AAAAAIAAAAAAAAAAAAAAAAAAA4AAA2AAAA2AAAAAAA42AAA2AAAA2AA4AA2AAAAA
AAAAAIAAAAAAAAAAAAAAAAAAAAAAA2AAAA2AAAAAAA42AAA2AAAA2AA4AA2AAAAA
AAAAAIAAAAAAAAAAAAAAAAAAAAAAA2AAAA2AAAAAAAA2AAA2AAAA2AA4AA2AAAAA
AAAAAAAAAAAAAAAAAAAAAAAAAAAAA2AAAA2AAAAAAAA2AAA2AAAA2AA4AA2AAAAA
AAAAAAAAAAAAAAAAAAAAAAAAAAAAA2AAAAAAAAAAAAA2AAA2AAAA2AA4AA2AAAAA
AAAAAAAAAAAAAAAAAAAAAAAAAAAAA2AAAAAAAAAAAAI2AAA2AAAA2AA4AA2AAAAA
AAAAAAIAAAAAAAAAAAAAAAAAAAAAA2AAAAAAAAAAAAI2AAA2AAAA2AA4AA2AAAAA
AAAAAAAAAAAAAAAAAAAAAAAAAAAAA2AAAAAAAAAAAAI2AAA2AAAA2AA4AA2AAAAA
AAAAAAAAAAAAAAAAAAAAAAAAAAAAA2AAAAAAAAAAAA42AAA2AAAA2AA4AA2AAAAA
AAAAAAAIAAAAAAAAAAAAAAAAAAAAA2AAAAAAAAAAAA42AAA2AAAA2AA4AA2AAAAA
AAAAAAAAAAAAAAAAAAAAAAAAAAAAA2AAAAAAAAAAAA42AAA2AAAA2AA4AA2AAAAA
AAAAAAAAAAAAAAAAAAAAAAAAAAAAAAAAAAAAAAAAAA42AAA2AAAA2AA4AA2AAAAA
AAAAAAAAAAAIAAAAAAAAAAAAAAAAAAAAAAAAAAAAAA42AAA2AAAA2AA4AA2AAAAA
AAAAAAIAAAAIAAAAAAAAAAAAAAAAAAAAAAAAAAAAAA42AAA2AAAA2AA4AA2AAAAA
AAAAAAIAAAAAAAAAAAAAAAAAAAAAAAAAAAAAAAAAAA42AAA2AAAA2AA4AA2AAAAA
AAAAAAIAAAAAAAAAAAAAAAAAAAAAAAAAAAAAAAAAAA42AAA2AAAA2AA2AA2AAAAA
AAAAAAAAAAAAAAAAAAAAAAAAAAAAAAAAAAAAAAAAAA42AAA2AAAA2AA2AA2AAAAA
AAAAAAAAAAAAAAAAAAAAAAAAAAAAAAAAAIAAAAAAAA42AAA2AAAA2AA2AA2AAAAA
AAAAAAAAAAAAAAAAAAAAAAAAAAAAAAAAIIAAAAAAAA42AAA2AAAA2AA2AA2AAAAA
AAAAAAAAAAAAAAAAAAAAAAAAAAAAAAAAIIAAAAAAAAA2AAA2AAAA2AA2AA2AAAAA
AAAAAAAAAAAAAAAAAAAAAAAAAAAAAAAAI4AAAAAAAAA2AAA2AAAA2AA2AA2AAAAA
AAAAAAAAAAAAAAAAAAAAAAAAAAAAAAAAA2AAAAAAAAA2AAA2AAAA2AA2AA2AAAAA
AAAAAAAAAAAAAAAAAAAAAAAAAAAAAAAAAAAAAAAAAAA2AAA2AAAA2AA2AA2AAAAA
AAAAAAAAAAAAAAAAAAAAAAAAAAAAAAAAAIAAAAAAAAA2AAA2AAAA2AA2AA2AAAAA
AAAAAAAAAAAAAAAAAAAAAAAAAAAAAAAAA2AAAAAAAAA2AAA2AAAA2AA2AA2AAAAA
AAAAAAAAAAAAAAAAAAAAAAAAAAAAAAAAAAAAAAAAAAA2AAA2AAAA2AA2AA2AAAAA
AAAAAAAAAAAAAAAAAAAAAAAAAIAAAAAAAAAAAAAAAAA2AAA2AAAA2AA2AA2AAAAA
AAAAAAAAAAAAAAAAAAAAAAAAAIAAAAAAIAAAAAAAAAA2AAA2AAAA2AA2AA2AAAAA
AAAAAAAAAAAAAAAAAAAAAAAAAIAAAAAAIAAAAAAAAAA2AAA2AAAA2AA2AI2AAAAA
AAAAAAAAAAAAAAAAAAAAAAAAA4AAAAAAIAAAAAAAAAA2AAA2AAAA2AA2AI2AAAAA
AAAAAAAAAAAAAAAAAAAAAAAAA4AAAAAAAAAAAAAAAAA2AAA2AAAA2AA2AI2AAAAA
AAAAAAAAAAAAAAAAAAAAAAAAA4AAAAAAAAAAAAAAAAI2AAA2AAAA2AA2AI2AAAAA
AAAAAAAAAAAAAAAAAAAAAAAAA4AAAAAAAAAAAAAAAA42AAA2AAAA2AA2AI2AAAAA
AAAAAAAAAAAAAAAAAAAAAAAAA4AAAAAAAAAAAAAAAA42AAA2AAAA2AA2A42AAAAA
AAAAAAAAAAAAAAAAAAAAAAAAA4AAAAAAAAAAAAAAAAA2AAA2AAAA2AA2A42AAAAA
AAAAAAAAAAAAAAAAAAAAAAAAA4AAAAAAIAAAAAAAAAA2AAA2AAAA2AA2A42AAAAA
AAAAAAAAAAAAAAAAAAAAAAAAA4AAAAAAAAAAAAAAAAA2AAA2AAAA2AA2A42AAAAA
AAAAAAAAAAAAAAAAAAAAAAAAA4AAAAAAAAAAAAAAAAA2AAA2AAAA2AA2A22AAAAA
AAAAAAAAAAAAAAAAAAAAAAAAA4AAAAIAAAAAAAAAAAA2AAA2AAAA2AA2A22AAAAA
AAAAAAAAAAAAAAAAAAAAAAAAA4AAAA4AAAAAAAAAAAA2AAA2AAAA2AA2A22AAAAA
AAAAAAAAAAAAAAAAAAAAAAAAA2AAAA2AAAAAAAAAAAA2AAA2AAAA2AA2A22AAAAA
AAAAAAAAAAAAAAAAAAAAAAIAA2AAAA2AAAAAAAAAAAA2AAA2AAAA2AA2A22AAAAA
AAAAAAAAAAAAAAAAAAAAAA4AA2AAAA2AAAAAAAAAAAA2AAA2AAAA2AA2A22AAAAA
AAAAAAAAAAAAAAAAAAAAAA4AAAAAAA2AAAAAAAAAAAA2AAA2AAAA2AA2A22AAAAA
AAAAAAAAAAAAAAAAAAAAAA4AAAAAAA2AAAAAAAAAAAA2AAA2AAAA2AAAA22AAAAA
AAAAAAAAAAAAAAAAAAAAAA4IAAAAAA2AAAAAAAAAAAA2AAA2AAAA2AAAA22AAAAA
AAAAAAAAAAAAAAAAAAAAAA44AAAAAA2AAAAAAAAAAAA2AAA2AAAA2AAAA22AAAAA
AAAAAAAAAAAAAAAAAAAAAA44AAAAAAAAAAAAAAAAAAA2AAA2AAAA2AAAA22AAAAA
AAAAAAIAAAAAAAAAAAAAAA44AAAAAAAAAAAAAAAAAAA2AAA2AAAA2AAAA22AAAAA
AAAAAAIAAAAAAAAAAAAAAA44AAAAAAAAIAAAAAAAAAA2AAA2AAAA2AAAA22AAAAA
AAAAAAIAAAAAAAAAAAAAAA44AAAAAAAAIAAAAAAAAAI2AAA2AAAA2AAAA22AAAAA
AAAAAAIAAAAAAAAAAAAAAA42AAAAAAAA4AAAAAAAAAI2AAA2AAAA2AAAA22AAAAA
AAAAAAIAAAAAAAAAAAAAAA42AAAAAAAAAAAAAAAAAA42AAA2AAAA2AAAA22AAAAA
AAAAAAIAAAAAAAAAAAAAAA22AAAAAAAAAAAAAAAAAA42AAA2AAAA2AAAA22AAAAA
AAAAAAIAAAAAAAAAIAAAAA22AAAAAAAAAAAAAAAAAA42AAA2AAAA2AAAA22AAAAA
AAAAAAIAAAAAAAAAIAAAAAI2AAAAAAAAAAAAAAAAAA42AAA2AAAA2AAAA22AAAAA
AAAAAAIAAAAAAAAAIAAAAAIIAAAAAAAAAAAAAAAAAA42AAA2AAAA2AAAA22AAAAA
AAAAAAAAAAAAAAAAIAAAAA4IAAAAAAAAAAAAAAAAAA42AAA2AAAA2AAAA22AAAAA
AAAAAAAAAAAAAAAAIAAAAAA2AAAAAAAAAAAAAAAAAA42AAA2AAAA2AAAA22AAAAA
AAAAAAAAAAAAAAAAIAAAAAA2AAAAAAAAIAAAAAAAAA42AAA2AAAA2AAAA22AAAAA
AAAAAAAAAAAAAAAA4AAAAAA2AAAAAAAAIAAAAAAAAA42AAA2AAAA2AAAA22AAAAA
AAAAAAAAAAAAAAAA4AAAAAA2AAAAAAAAAAAAAAAAAA42AAA2AAAA2AAAA22AAAAA
AAAAAAAAAAAAAAAA4AAAAAA2AAAAAAAIAAAAAAAAAA42AAA2AAAA2AAAA22AAAAA
AAAAAAAAAAAAAAAA4AAAAAA2AAAAAAA2AAAAAAAAAA42AAA2AAAA2AAAA22AAAAA
AAAAAAAAAAAAAAAA2AAAAAA2AAAAAAA2AAAAAAAAAA42AAA2AAAA2AAAA22AAAAA
AAAAAAAAAAAAAAAA2AAAAAA2AAAAAAA2AAAAAAAAAA42AAA2AAAA2AAAAA2AAAAA
AAAAAAAAAAAAAAAA2AAAAAA2AAAAAAA2AAAAAAAAAA42AAA2AAAA2AAAAA2IAAAA
AAAAAAAAIAAAAAAA2AAAAAA2AAAAAAA2AAAAAAAAAA42AAA2AAAA2AAAAA2IAAAA
AAAAAAAAIAAAAAAA2AAAAAA2AAAAAAA2AAAAAAAAAA22AAA2AAAA2AAAAA2IAAAA
AAAAAAAA2AAAAAAA2AAAAAA2AAAAAAA2AAAAAAAAAA22AAA2AAAA2AAAAA2IAAAA
AAAAAAAA2AAIAAAA2AAAAAA2AAAAAAA2AAAAAAAAAA22AAA2AAAA2AAAAA2IAAAA
AAAAAAAA2AA2AAAA2AAAAAA2AAAAAAA2AAAAAAAAAA22AAA2AAAA2AAAAA2IAAAA
AAAAAAAA2AAAAAAA2AAAAAA2AAAAAAA2AAAAAAAAAA22AAA2AAAA2AAAAA2IAAAA
AAAAAAAAIAAAAAAA2AAAAAA2AAAAAAA2AAAAAAAAAA22AAA2AAAA2AAAAA2IAAAA
AAAAAAAA2AAAAAAA2AAAAAA2AAAAAAA2AAAAAAAAAA22AAA2AAAA2AAAAA2IAAAA
AAAAAAAA2AAAAAAA2AAAAAAAAAAAAAA2AAAAAAAAAA22AAA2AAAA2AAAAA2IAAAA
AAAAAAAA2AAAAAAA2AAAAAAAAAAAAAA2AAAAAAAAAA22AAA2AAAA2AAAAA22AAAA
AAAAAAAA2AAAAAAA2AAAIAAAAAAAAAA2AAAAAAAAAA22AAA2AAAA2AAAAA22AAAA
AAAAAAAA2AAAAAAA2AAA4AAAAAAAAAA2AAAAAAAAAA22AAA2AAAA2AAAAA22AAAA
AAAAAAAA2AAAAAAA2AAA4AAAAAAAAAA2AAAAAAAAAA22AAA2AAAA2AAAAA2IAAAA
AAAAAAAA2AAIAAAA2AAA4AAAAAAAAAA2AAAAAAAAAA22AAA2AAAA2AAAAA2IAAAA
AAAAAAAA2AAIAAAA2AAA4AAAAAAAAAA2AAAAAAAAAAA2AAA2AAAA2AAAAA2IAAAA
AAAAAAAA2AAAAAAA2AAA4AAAAAAAAAA2AAAAAAAAAAA2AAA2AAAA2AAAAA2IAAAA
AAAAAAAA2AAAAAAA2AAA4AAAAAAAAAA2AAAAAAAAAAI2AAA2AAAA2AAAAA2IAAAA
AAAAAAAA2AAAAAAA2AAA2AAAAAAAAAA2AAAAAAAAAAI2AAA2AAAA2AAAAA2IAAAA
AAAAAAAA2AAAAAAA2AAA2AAAAAAAAAA2AAAAAAAAAA42AAA2AAAA2AAAAA2IAAAA
AAAAAAAA2AAAAAAA2AAA2AAAAAAAAAA2AAAAAAAAAA42AAA2AAAA2AAAAAAIAAAA
AAAAAAAA2AAAAAAA2AAA2AAAAAAAAAA2AAAAAAAAAAA2AAA2AAAA2AAAAAAIAAAA
AAAAAAAA2AAAAAAA2AAA2AAAAAAAAAA2AAAAAAAAAAA2AAA2AAAA2AAAAAA4AAAA
AAAAAAAA2AAAAAAAAAAA2AAAAAAAAAA2AAAAAAAAAAA2AAA2AAAA2AAAAAA4AAAA
AAAAAAAA2AAAAAAAAAAA2AAAAAAAAAA2AAAAAAAAAAAAAAA2AAAA2AAAAAA4AAAA
AAAAAAAA2AAAAAAAAAAA2AAAAAAAAAA2AAAAAAAAAAAIAAA2AAAA2AAAAAA4AAAA
AAAAAAAA2AAAAAAAAAAA2AAAAAAAAAA2AAAAAAAAAAIIAAA2AAAA2AAAAAA4AAAA
AAAAAAAA2AAAAAAAAAAA2AAAAAAAAAA2AAAAAAAAAA44AAA2AAAA2AAAAAA4AAAA
AAAAAAAA2AAAAAAAAAAAAAAAAAAAAAA2AAAAAAAAAA44AAA2AAAA2AAAAAA4AAAA
AAAAAAAA2AAAAAAAAAAAAAAAAAAAAAA2AAAAAAAAAA24AAA2AAAA2AAAAAA4AAAA
AAAAAAAA2AAAAAAAAAAAAAAAAAAAAAA2AAAAAAAAAAI4AAA2AAAA2AAAAAA4AAAA
AAAAAAAA2AAAAAAAAAAAAAAAIAAAAAA2AAAAAAAAAAI4AAA2AAAA2AAAAAA4AAAA
AAAAAAAA2AAAAAAAAAAAAAAAIAAAAAA2AAAAAAAAAA44AAA2AAAA2AAAAAA4AAAA
AAAAAAAA2AAAAAAAAAAAAAAAIAAAAAA2AAAAAAAAAA44AAA2AAAA2AAAAAA4IAAA
AAAAAAAA2AAAAAAAAAAAAAAA4AAAAAA2AAAAAAAAAA44AAA2AAAA2AAAAAA4IAAA
AAAAAAAA2AAAAAAAAAAAAAAA4AAAAAA2AAAAAAAAAAA4AAA2AAAA2AAAAAA4IAAA
AAAAAAAA2AAIAAAAAAAAAAAA4AAAAAA2AAAAAAAAAAA4AAA2AAAA2AAAAAA4IAAA
AAAAAAAA2AA2AAAAAAAAAAAA4AAAAAA2AAAAAAAAAAA4AAA2AAAA2AAAAAA4IAAA
AAAAAAAA2AAAAAAAAAAAAAAA4AAAAAA2AAAAAAAAAAA4AAA2AAAA2AAAAAA4IAAA
AAAAAAAA2AAAAAAIAAAAAAAA4AAAAAA2AAAAAAAAAAA4AAA2AAAA2AAAAAA4IAAA
AAAAAAAA2AAAAAAIAAAAAAAA4AAAAAA2IAAAAAAAAAA4AAA2AAAA2AAAAAA4IAAA
AAAAAAAA2AAAAAAIAAAAAAAA4AAAAAA2AAAAAAAAAAA4AAA2AAAA2AAAAAA4IAAA
AAAAAAAA2AAAAAA4AAAAAAAA4AAAAAA2AAAAAAAAAAA4AAA2AAAA2AAAAAA4IAAA
AAAAAAAA2AAAAAA4AAAAAAAA4AAAAAAAAAAAAAAAAAA4AAA2AAAA2AAAAAA4IAAA
AAAAAAAA2AAAAAA4AAAAAAAA4AAAAAAAAAAAAAAAAAA4AAA2AAAA2AAAAAA44AAA
AAAAAAIA2AAAAAA4AAAAAAAA4AAAAAAAAAAAAAAAAAA4AAA2AAAA2AAAAAA44AAA
AAAAAAIA2AAAAAA4AAAAAAAA4AAAAAAIAAAAAAAAAAA4AAA2AAAA2AAAAAA44AAA
AAAAAAIA2AAAAAA4AAAAAAAA4AAAAAAIAAAAAAAAAAA4AAA2AAAI2AAAAAA44AAA
AAAAAAIA2AAAAAA4AAAAAAAA4AAAAAAIAAAAAAAAAAI4AAA2AAAI2AAAAAA44AAA
AAAAAAIA2AAAAAA4AAAAIAAA4AAAAAAIAAAAAAAAAAI4AAA2AAAI2AAAAAA44AAA
AAAAAAIA2AAAAAA2AAAA4AAA4AAAAAAIAAAAAAAAAAI4AAA2AAAI2AAAAAA44AAA
AAAAAAIA2AAAAAA2AAAA4AAA4AAAAAAIAAAAAAAAAAI4AAA2AAAI2AAAAAA24AAA
AAAAAAIA2AAAAAA2AAAAAAAA4AAAAAAIAAAAAAAAAAI4AAA2AAAI2AAAAAA24AAA
AAAAAAIA2AAAAAA2AAAAAAAA4AAAAAAIAAAAAAAAAA24AAA2AAAI2AAAAAA24AAA
AAAAAAAA2AAAAAA2AAAAAAAA4AAAAAAIAAAAAAAAAA24AAA2AAAI2AAAAAA24AAA
AAAAAAAA2AAAAAA2AAAAAAAA4AAAAAA4AAAAAAAAAA24AAA2AAAI2AAAAAA24AAA
AAAAAAIA2AAAAAA2AAAAAAAA4AAAAAA4AAAAAAAAAA24AAA2AAAI2AAAAAA24AAA
AAAAAAIA2AAAAAA2AAAAAAAA4AAAAAA4AAAAAAAAAAA2AAA2AAAI2AAAAAA24AAA
AAAAAAIA2AAAAAA2AAAAAAAA4AAAAAA2AAAAAAAAAAA2AAA2AAAI2AAAAAA24AAA
AAAAAAAA2AAAAAA2AAAAAAAA4AAAAAA2AAAAAAAAAAA2AAA2AAAI2AAAAAA24AAA
AAAAAAAA2AAAAAA2AAAAAAAA4AAAAAA2AIAAAAAAAAA2AAA2AAAI2AAAAAA24AAA
AAAAAAAA2AAAAAA2IAAAAAAA4AAAAAA2AIAAAAAAAAA2AAA2AAAI2AAAAAA24AAA
AAAAAAAA2AAIAAA2IAAAAAAA4AAAAAA2AIAAAAAAAAA2AAA2AAAI2AAAAAA24AAA
AAAAAAAA2AAIAAA2IAAAAAAA4AIAAAA2AIAAAAAAAAA2AAA2AAAI2AAAAAA24AAA
AAAAAAAA2AAIAAA2IAAAAAAA4A2AAAA2A4AAAAAAAAA2AAA2AAAI2AAAAAA24AAA
AAAAAAAA2AA2AAA2IAAAAAAA4A2AAAA2A4AAAAAAAAA2AAA2AAAI2AAAAAA24AAA
AAAAAAAA2AA2AAA24AAAAAAA4A2AAAA2A4AAAAAAAAA2AAA2AAAI2AAAAAA24AAA
AAAAAAAA2AAAAAA24AAAAAAA4A2AAAA2A4AAAAAAAAA2AAA2AAAI2AAAAAA24AAA
AAAAAAAA2AAAAAA24AAAAAAA4AIAAAA2A4AAAAAAAAA2AAA2AAAI2AAAAAA24AAA
AAAAAAAA2AAAAAA24AAAAAAA4AIAAAA2A2AAAAAAAAA2AAA2AAAI2AAAAAA24AAA
AAAAAAAA2AAAAAA24AAAAAAA4A2AAAA2A2AAAAAAAAA2AAA2AAAI2AAAAAA24AAA
AAAAAAAA2AAAAAA24AAAAAAA4A2AAAA2A2AAAAAAAAA2AAA2AAA42AAAAAA24AAA
AAAAAAAA2AAAAAA24AAAAAAA4A2AAAA2A2AAAAAAAAA2AAA2AAA42AAAAAA2AAAA
AAAAAAAA2AAAAAA22AAAAAAA4A2AAAA2A2AAAAAAAAA2AAA2AAA42AAAAAA2AAAA
AAAAAAAA2AAAAAA2IAAAAAAA4A2AAAA2A2AAAAAAAAA2AAA2AAA42AAAAAA2AAAA
AAAAAAAA2AAAAAA2IAAAAAAA4A2AAAA2AAAAAAAAAAA2AAA2AAA42AAAAAA2AAAA
AAAAAAAA2AAAAAA2IAAAAAAA2A2AAAA2AAAAAAAAAAA2AAA2AAA42AAAAAA2AAAA
AAAAAAAA2AAAAAA2IAAAAAAA2A2AAAA2AAAAAAAAAAA2AAA2AAA22AAAAAA2AAAA
AAAAAAAA2AAAAAA2IAAAAIAA2A2AAAA2AAAAAAAAAAA2AAA2AAA22AAAAAA2AAAA
AAAAAAAA2AAAAAA2IAAAA4AA2A2AAAA2AAAAAAAAAAA2AAA2AAA22AAAAAA2AAAA
AAAAAAAA2AAAAAA22AAAA4AA2A2AAAA2AAAAAAAAAAA2AAA2AAA22AAAAAA2AAAA
AAAAAAAA2AAAAAA22AAAA4AA2A2AAAA2AAAAAAAAAAA2AIA2AAA22AAAAAA2AAAA
AAAAAAAA2AAAAAA22AAAA4AA2A2AAAA2AAAAAAAAAAA2A2A2AAA22AAAAAA2AAAA
AAAAAAAA2AAAAAA22AAAA4AA2A2AAAA2AAAAAAAAAAA2A2A2AAA22AAAAAA2AIAA
AAAAAAAA2AAAAAA22AAAA4AA2A2AAAA2AAAAAAAAAAA2A2A2AAA22AAAAAA2AAAA
AAAAAAAA2AAAAAA22AAAA4AA2A2AAAAAAAAAAAAAAAA2A2A2AAA22AAAAAA2AAAA
AAAAAAAA2AAAAAA22AAAA4AA2AAAAAAAAAAAAAAAAAA2A2A2AAA22AAAAAA2AAAA
AAAAAAAA2AAAAAA22AAAA4AA2AAAAAAAIAAAAAAAAAA2A2A2AAA22AAAAAA2AAAA
AAAAAAAA2AAAAAA22AAAA4AA2AAAAAAAIAAAAAAAAAA2AIA2AAA22AAAAAA2AAAA
AAAAAAAA2AAAAAA22AAAA4AA2AAAAAAAAAAAAAAAAAA2A4A2AAA22AAAAAA2AAAA
AAAAAAAA2AAAAAA22AAAA4AA2AAAAAAAAAAAAAAAAAA2A2A2AAA22AAAAAA2AAAA
AAAAAAIA2AAAAAA22AAAA4AA2AAAAAAAAAAAAAAAAAA2A2A2AAA22AAAAAA2AAAA
AAAAAAIA2AAAAAA22AAAA4AA2AAAAAAAAAAAAAAAAAI2A2A2AAA22AAAAAA2AAAA
AAAAAAIA2AAAAAA22AAAA4AA2AAAAAAAAAAAAAAAAAI2AIA2AAA22AAAAAA2AAAA
AAAAAAIA2AAAAAA22AAAA4AA2AAAAAAAAAAAAAAAAA42A4A2AAA22AAAAAA2AAAA
AAAAAAIA2AAIAAA22AAAA4AA2AAAAAAAAAAAAAAAAA42A4A2AAA22AAAAAA2AAAA
AAAAAAIA2AAAAAA22AAAA4AA2AAAAAAAAAAAAAAAAA42A4A2AAA22AAAAAA2AAAA
AAAAAAAA2AAAAAA22AAAA4AA2AAAAAAAAAAAAAAAAA42A4A2AAA22AAAAAA2AAAA
AAAAAAAA2AAAAAA22AAAA4AA2AAAAAAAAAAAAAAAAAA2A2A2AAA22AAAAAA2AAAA
AAAAAAAA2AAAAAA22AAAA2AA2AAAAAAAAAAAAAAAAAA2A2A2AAA22AAAAAA2AAAA
AAAAAAAA2AAAAAA2AAAAA2AA2AAAAAAAAAAAAAAAAAA2A2A2AAA22AAAAAA2AAAA
AAAAAAAA2AAAAAA2AAAAA2AAAAAAAAAAAAAAAAAAAAA2A2A2AAA22AAAAAA2AAAA
AAAAAAAA2AAAAAA2AAAAA2AAAAAAAAAAAAAAAAAAAAA2A2A2AAA22AIAAAA2AAAA
AAAAAAAA2AAAAAA2AAAAA2AAAAAAAAAAAAAAAAAAAAA2A2A2AAA22A4AAAA2AAAA
AAAAAAAA2AAAAAA2AAAAA2AAAAAAAAAAAAAAAAAAAAA2A2A2AAA22A2AAAA2AAAA
AAAAAAAA2AAIAAA2AAAAA2AAAAAAAAAAAAAAAAAAAAA2A2A2AAA22A2AAAA2AAAA
AAAAAAAA2AAAAAA2AAAAA2AAAAAAAAAAAAAAAAAAAAA2A2A2AAA22A2AAAA2AAAA
AAAAAAAA2AAAAAA2AAAAA2AAAAAAAAAAAIAAAAAAAAA2A2A2AAA22A2AAAA2AAAA
AAAAAAAA2AAAAAA2AAAAI2AAAAAAAAAAAIAAAAAAAAA2A2A2AAA22A2AAAA2AAAA
AAAAAAAA2AAAAAA2AAAAI2AAAAAAAAAAA2AAAAAAAAA2A2A2AAA22A2AAAA2AAAA
AAAAAAIA2AAAAAA2AAAAI2AAAAAAAAAAA2AAAAAAAAA2A2A2AAA22A2AAAA2AAAA
AAAAAAAA2AAAAAA2AAAA42AAAAAAAAAAA2AAAAAAAAA2A2A2AAA22A2AAAA2AAAA
AAAAAAAA2AAAAAA2AAAA22AAAAAAAAAAA2AAAAAAAAA2A2A2AAA22A2AAAA2AAAA
AAAAAAAA2AAIAAA2AAAA22AAAAAAAAAAA2AAAAAAAAA2A2A2AAA22A2AAAA2AAAA
AAAAAAAA2AAIAAA2AAAA22AAAAAAAAAAAAAAAAAAAAA2A2A2AAA22A2AAAA2AAAA
AAAAAAAA2AAAAAA2AAAA22AAAAAAAAAAAAAAAAAAAAA2A2A2AAA22A2AAAA2AAAA
AAAAAAAA2AAAAAA2AAAAA2AAAAAAAAAAAAAAAAAAAAA2A2A2AAA22A2AAAA2AAAA
AAAAAAAA2AAAAAA2AAAAA2AAAAAAAAAAAAAAAAAAAAA2A2A2AAA2AA2AAAA2AAAA
AAAAAAAA2AAAAAA2AAAAA2AAAAAAAAAAAAAAAAAAAAA2A2A2AAA2AAAAAAA2AAAA
AAAAAAAA2AAAAAA2AAAAA2AAAAAAAAAAAAAAAAAAAAA2A2A2AIA2AAAAAAA2AAAA
AAAAAAAA2AAIAAA2AAAAA2AAAAAAAAAAAAAAAAAAAAA2A2A2AIA2AAAAAAA2AAAA
AAAAAAAA2AAAAAA2AAAAA2AAAAAAAAAAAAAAAAAAAAA2A2A2AIA2AAAAAAA2AAAA
AAAAAAAA2AAAAAA2AAAAA2AAAAAAAAAAAAAAAAAAAAA2A2A2A4A2AAAAAAA2AAAA
AAAAAAAA2AAAAAA2AAAAA2AAAAAAAAAAAAAAAAAAAAA2A2A2A2A2AAAAAAA2AAAA
AAAAAAAA2AAAAAA2AAAAA2AAAAAAAAAAAAAAAAAAAAA2A2A2AAA2AAAAAAA2AAAA
AAAAAAAA2AAAAAA2AAAAI2AAAAAAAAAAAAAAAAAAAAA2A2A2AAA2AAAAAAA2AAAA
AAAAAAAA2AAAAAA2AAAA42AAAAAAAAAAAAAAAAAAAAA2A2A2AAA2AAAAAAA2AAAA
AAAAAAAA2AAAAAA2AAAA42AAAAAAAAAAAAAAAAAAAAA2A2AAAAA2AAAAAAA2AAAA
AAAAAAAA2AAAAAA2AAAA42AAAAAAAAAAAIAAAAAAAAA2A2AAAAA2AAAAAAA2AAAA
AAAAAAAA2AAAAAA2AAAA42AAAAAAAAAAAAAAAAAAAAA2A2AAAAA2AAAAAAA2AAAA
AAAAAAAA2AAAAAA2AAAA22AAAAAAAAAAAAAAAAAAAAA2A2AAAAA2AAAAAAA2AAAA
AAAAAAAA2AAAAAA2AAAA22AAAAAAAAAAAIAAAAAAAAA2A2AAAAA2AAAAAAA2AAAA
AAAAAAAA2AAAAAA2AAAA22AAAAAAAAAAAIAAAAAAAAA2A2AAAAA2AAAAAAA2AAAI
AAAAAAAA2AAAAAA2AAAA22AAAAAAAAAAA2AAAAAAAAA2A2AAAAA2AAAAAAA2AAAI
AAAAAAAA2AAAAAA2AAAA22AAAAAAAAAAAAAAAAAAAAA2A2AAAAA2AAAAAAA2AAAI
AAAAAAAA2AAAAAA2AAAA22AAAAAAAAAAAAAAAIAAAAA2A2AAAAA2AAAAAAA2AAAI
AAAAAAAA2AAAAAA2AAAA22AAAAAAAAAAAAAAAIAAAAA2A2AAAIA2AAAAAAA2AAAI
AAAAAAAA2AAAAAA2AAAA22AAAAAAAAAAAAAAAIAAAAA2A2AAAIA2AAAAAAA2AAA2
AAAAAAAA2AAAAAA2AAAA22AAAAAAAAAAAAAAAIAAAAA2A2AAA4A2AAAAAAA2AAA2
AAAAAAAA2AAAAAA2AAAA22AAAAAAAAAAAAAAA4AAAAA2A2AAA4A2AAAAAAA2AAA2
AAAAAAAA2AAAAAA2AAAA22AAAAAAAAAAAAAAA4AAAAA2A2AAA4A2AAAAAAA2AAAI
AAAAAAAA2AAAAAA2AAAA22AAAAAAAAAAAAAAAAAAAAA2A2AAA4A2AAAAAAA2AAAI
AAAAAAAA2AAAAAA2AAAA22AAAAIAAAAAAAAAAAAAAAA2A2AAA4A2AAAAAAA2AAAI
AAAAAAAA2AAAAAA2AAAA22AAAAIAAAAAAAAAAAAAAAA2A2AAA4A2AAAAAAA2AAA4
AAAAAAAA2AAIAAA2AAAA22AAAAIAAAAAAAAAAAAAAAA2A2AAA4A2AAAAAAA2AAA4
AAAAAAAA2AAAAAA2AAAA22AAAA4AAAAAAAAAAAAAAAA2A2AAA4A2AAAAAAA2AAA4
AAAAAAAA2AAAAAA2AAAAA2AAAA4AAAAAAAAAAAAAAAA2A2AAA4A2AAAAAAA2AAA4
AAIAAAAA2AAAAAA2AAAAA2AAAA4AAAAAAAAAAAAAAAA2A2AAA4A2AAAAAAA2AAA4
AAIAAAAA2AAAAAA2AAAAA2AAAAAAAAAAAAAAAAAAAAA2A2AAA4A2AAAAAAA2AAA4
AAIAAAAA2AAAAAA2AAAAA2AAAAAAAAAAAAIAAAAAAAA2A2AAA4A2AAAAAAA2AAA4
AAIAAAAA2AAAAAA2AAAAA2AAAAAAAAAAAAIAAAAAAAA2A2AAA2A2AAAAAAA2AAA4
AAIAAAAA2AAAAAA2AAAAA2AAAAAAAAAAAA4AAAAAAAA2A2AAA2A2AAAAAAA2AAA4
AAIAAAAA2AAAAAA2AAAAA2AAAAAAAAAAAA4AAAAAAAA2A2AAA2A2AAAAAAA2AIA4
AAIAAAAA2AAAAAA2AAAAA2AAAAAAAAAAAA4AAAAAAAA2A2AAA2A2AAAAAAA2AIA2
AAIAAAAA2AAAAAAAAAAAA2AAAAAAAAAAAA4AAAAAAAA2A2AAA2A2AAAAAAA2AIA2
AAIAAAAA2AAAAAAAAAAAA2AAAAAAAAAAAA2AAAAAAAA2A2AAA2A2AAAAAAA2AIA2
AAIAAAAA2AAAAAAIAAAAA2AAAAAAAAAAAA2AAAAAAAA2A2AAA2A2AAAAAAA2AIA2
AA2AAAAA2AAAAAA4AAAAA2AAAAAAAAAAAA2AAAAAAAA2A2AAA2A2AAAAAAA2AIA2
AA2AAAAA2AAAAAA2AAAAA2AAAAAAAAAAAA2AAAAAAAA2A2AAA2A2AAAAAAA2AIA2
AI2AAAAA2AAAAAA2AAAAA2AAAAAAAAAAAA2AAAAAAAA2A2AAA2A2AAAAAAA2AIA2
AIIAAAAA2AAAAAA2AAAAA2AAAAAAAAAAAA2AAAAAAAA2A2AAA2A2AAAAAAA2AIA2
AIIAAAAA2AAAAAA2AAAAA2AAAAAAAAAAAA2AAAAAAAA2A2AAAAA2AAAAAAA2AIA2
AIIAAAAA2AAAAAA2AAAAA2AAAAAAAAAAAA2AAAAAAAA2A2AAAAA2AAAAAAA2A4A2
AIIAAAAA2AAAAAA2AAAAA2AAAAAAAAAAAA2AAAAAAAA2A2AAAAAAAAAAAAA2A4A2
A22AAAAA2AAAAAA2AAAAA2AAAAAAAAAAAA2AAAAAAAA2A2AAAAAAAAAAAAA2A4A2
A22AAAAA2AAAAAA2AAAAA2AAAAAAAAAAAAAAAAAAAAA2A2AAAAAAAAAAAAA2A4A2
A22AAAAA2AAIAAA2AAAAA2AAAAAAAAAAAAAAAAAAAAA2A2AAAAAAAAAAAAA2A4A2
A22AAAAA2AAAAAA2AAAAA2AAAAAAAAAAAAAAAAAAAAA2A2AAAAAAAAAAAAA2A4A2
A22AAAAA2AAAAAA2AAAAA2AAIAAAAAAAAAAAAAAAAAA2A2AAAAAAAAAAAAA2A4A2
A22AAAAA2AAAAAA2AAAAA2AA4AAAAAAAAAAAAAAAAAA2A2AAAAAAAAAAAAA2A4A2
A22AAIAA2AAAAAA2AAAAA2AA4AAAAAAAAAAAAAAAAAA2A2AAAAAAAAAAAAA2A4A2
A22AAIAA2AAAAAA2AAAAA2AA4AAAAAAAAAAAAAAAAAA2A2AAAAAAAAAAAAA2A2A2
A22AAIAA2AAAAAAAAAAAA2AA4AAAAAAAAAAAAAAAAAA2A2AAAAAAAAAAAAA2A2A2
A22AAIAAAAAAAAAAAAAAA2AA4AAAAAAAAAAAAAAAAAA2A2AAAAAAAAAAAAA2A2A2
A22AAIAAAAAAAAAAAAAAA2AA4AAAAAAAAAAAAAAAAAA2A2AAAAAAAAAAAAAAA2A2
A22AAIAAAAAAAAAAAAAAA2AA2AAAAAAAAAAAAAAAAAA2A2AAAAAAAAAAAAAAA2A2
A22AAIAAAAAAAAAAAAAAA2AA2AAAAAAAAAAAAAAAAAA2A2AAAIAAAAAAAAAAA2A2
A22AAIAAAAAAAAAAAAAAA2AA2AAAAAAAAAAAAAAAAAA2A2AAAIAAAAAAAAAIA2A2
A22AAIAAAAAAAAAAAAAAI2AA2AAAAAAAAAAAAAAAAAA2A2AAAIAAAAAAAAAIA2A2
A22AAIAAAAAAAAAAAAAA22AA2AAAAAAAAAAAAAAAAAA2A2AAAIAAAAAAAAAIA2A2
A22AAIAAIAAAAAAAAAAA22AA2AAAAAAAAAAAAAAAAAA2A2AAAIAAAAAAAAAIA2A2
A22AAIAA2AAAAAAAAAAA22AA2AAAAAAAAAAAAAAAAAA2A2AAAIAAAAAAAAAIA2A2
A22AAIAA2AAAAAAAAAAA22AA2AAAAAAAAAAAAAAAAAA2A2AAAIAAAAAAAAAIAAA2
A2AAAIAA2AAAAAAAAAAA22AA2AAAAAAAAAAAAAAAAAA2A2AAAIAAAAAAAAAIAAA2
A2AAAIAA2AAAAAAAAAAA22AA2AAAAAAAAAAAAAAAAAA2A2AAA4AAAAAAAAAIAAA2
A2AAAIAA2AAIAAAAAAAA22AA2AAAAAAAAAAAAAAAAAA2A2AAA4AAAAAAAAAIAAA2
A2AAAIAA2AAAAAAAAAAA22AA2AAAAAAAAAAAAAAAAAA2A2AAA4AAAAAAAAAIAAA2
A2AAAIAA2AAAIAAAAAAA22AA2AAAAAAAAAAAAAAAAAA2A2AAA4AAAAAAAAAIAAA2
A2AAAIAA2AAAIAAAAAAAA2AA2AAAAAAAAAAAAAAAAAA2A2AAA4AAAAAAAAAIAAA2
A2AAAIAA2AAAIAAAAAAAAAAA2AAAAAAAAAAAAAAAAAA2A2AAA4AAAAAAAAAIAAA2
A2AAAIAA2AAIIAAAAAAAAAAA2AAAAAAAAAAAAAAAAAA2A2AAA4AAAAAAAAAIAAA2
A2AAAIAA2AAA2AAAAAAAAAAA2AAAAAAAAAAAAAAAAAA2A2AAA4AAAAAAAAAIAAA2
A2AAAIAA2AAA2AAAAAAAAAAAAAAAAAAAAAAAAAAAAAA2A2AAA4AAAAAAAAAIAAA2
A2AAAIAA2AAA2AAAAAAAAAAAAAAAAAAAAAAAAAAAAAI2A2AAA4AAAAAAAAAIAAA2
A2AAAIAA2AAA2AAAAAAAAAAAAAAAAAAAAAAAAAAAAAI2A2AAAAAAAAAAAAA4AAA2
A2AAAIAA2AAA2AAAAAAAAAAAAAAAAAAAAAAAAAAAAA42A2AAAAAAAAAAAAA4AAA2
A2AAAIAA2AAA2AAAAAAAAAAAAAAAAAAAAAAAAAAAAAA2A2AAAAAAAAAAAAA4AAA2
A2AAAIAA2AAA2AAAAAAAAAAAAAAAAAAAAAAAAAAAAAI2A2AAAAAAAAAAAAA4AAA2
A2AAAIAA2AAA2AAAAAAAAAAAAAAAAAAAAAAAAAAAAAA2A2AAAAAAAAAAAAA4AAA2
A2AAAIIA2AAA2AAAAAAAAAAAAAAAAAAAAAAAAAAAAAA2A2AAAAAAAAAAAAA4AAA2
A2AAAIAA2AAA2AAAAAAAAAAAAAAAAAAAAAAAAAAAAAA2A2AAAAAAAAAAAAA4AAA2
A2AAAIAA2AAA2AAAAAAAAAIAAAAAAAAAAAAAAAAAAAA2A2AAAAAAAAAAAAA4AAA2
A2AAAIAA2AAA2AAAAAAAAAIAAAAAAAAAAIAAAAAAAAA2A2AAAAAAAAAAAAA4AAA2
A2AAAIAA2AAA2AAAAAAAAAIAAAAAAAAAA2AAAAAAAAA2A2AAAAAAAAAAAAA4AAA2
A2AAAIAA2AAA2AAAAAAAAA4AAAAAAAAAA2AAAAAAAAA2A2AAAAAAAAAAAAA4AAA2
A2AAAIAA2AAA2AAAAAAAAA4AAAAAAAAAAAAAAAAAAAA2A2AAAAAAAAAAAAA4AAA2
A2AAAIAA2AAA2AAAAAAAAA4AAAAAAAAAAAAAAAAAAAA2A2AAAAAAAAAAAAA2AAA2
A2AAAIAA2AAI2AAAAAAAAA4AAAAAAAAAAAAAAAAAAAA2A2AAAAAAAAAAAAA2AAA2
A2AAAIAA2AAI2AAAAAAAAA4AAAAAAAAAAIAAAAAAAAA2A2AAAAAAAAAAAAA2AAA2
A2AAAIAA2AAA2AAAAAAAAA4AAAAAAAAAAIAAAAAAAAA2A2AAAAAAAAAAAAA2AAA2
A2AAAIAA2AAA2AAAAAAAAA4AAAAAAAAAA2AAAAAAAAA2A2AAAAAAAAAAAAA2AAA2
A2AAAIAA2AAA2AAAAAAAAA4AAAAAAAAAAAAAAAAAAAA2A2AAAAAAAAAAAAA2AAA2
A2AAAIAA2AAA2AAAAAAAAA4AAAAAAAAAAAAAAAAAAAA2A2AAAAAAAAAAAIA2AAA2
A2AAAIAA2AAA2AAAAAAAAA4AAAAAAAAAAAAAAAAAAAA2A2AAAAAAAAAAA4A2AAA2
A2AAA2AA2AAA2AAAAAAAAA4AAAAAAAAAAAAAAAAAAAA2A2AAAAAAAAAAA4A2AAA2
A2AAA2AA2AAI2AAAAAAAAA4AAAAAAAAAAAAAAAAAAAA2A2AAAAAAAAAAA4A2AAA2
A2AAA2AA2AAA2AAAAAAAAA4AAAAAAAAAAAAAAAAAAAA2A2AAAAAAAAAAA4A2AAA2
A2AIA2AA2AAA2AAAAAAAAA4AAAAAAAAAAAAAAAAAAAA2A2AAAAAAAAAAA4A2AAA2
A2AIA2AA2AAA2AAAAAAAAA4AAAAAAAAAAAAAAAAAAAA2A2AIAAAAAAAAA4A2AAA2
A2AIA2AA2AAA2AAAAAAAAA4AAAAAAAAAAAAAAAAAAAA2A2A4AAAAAAAAA4A2AAA2
A2AIA2AA2AAA2AAAAAAAAA4AAIAAAAAAAAAAAAAAAAA2A2A4AAAAAAAAA4A2AAA2
A2AIA2AA2AAA2AAAAAAAAA2AAIAAAAAAAAAAAAAAAAA2A2A4AAAAAAAAA4A2AAA2
A2AIA2AA2AAA2AAAAAAAAA2AAIAAAAAAAAAAAAAAAAA2A2A4AAAAAAAAA4A2AIA2
A2AIA2AA2AAA2AAAAAAAAA2AA4AAAAAAAAAAAAAAAAA2A2A4AAAAAAAAA4A2AIA2
A2AIA2AA2AAA2AAAAAAAAA2AA4AAAAAAAAAAAAAAAAA2A2A2AAAAAAAAA4A2AIA2
A2AIA2AA2AAA2AAAAAAAAA2AA4AAAAAAAAAAAAAAAAA2A2A2AAAAAAAAAAA2A2A2
A2AIA2AA2AAA2AAAAAAAAA2AA4AAAAAAAAAAAAAAAAA2A2A2AAAAAAAAAAA2A2AA
A2AIA2AA2AAA2AAAAAAAAA2AA4AAAAAAAAAAAAAAAAA2A2A2AAAAAAAAAAA2AIAA
A2AIA2AA2AAA2AAAAAAAAA2AA2AAAAAAAAAAAAAAAAA2A2A2AAAAAAAAAAA2AIAA
A2AIA2AA2AAI2AAAAAAAAA2AA2AAAAAAAAAAAAAAAAA2A2A2AAAAAAAAAAA2AIAA
A2AIA2AA2AAI2AAAAAAAIA2AA2AAAAAAAAAAAAAAAAA2A2A2AAAAAAAAAAA2AIAA
A2AIA2AA2AAI2AAAAAAAIA2AA2AAAAAAAAIAAAAAAAA2A2A2AAAAAAAAAAA2AIAA
A2AIAAAA2AA22AAAAAAAIA2AA2AAAAAAAAIAAAAAAAA2A2A2AAAAAAAAAAA2AIAA
A2AIAAAA2AA22AAAAAAA4A2AA2AAAAAAAAIAAAAAAAA2A2A2AAAAAAAAAAA2AIAA
A2AIAAAA2AAA2AAAAAAA4A2AA2AAAAAAAAIAAAAAAAA2A2A2AAAAAAAAAAA2AIAA
A2AIAAAA2AAA2AAAAAAA4A2AA2AAAAAAAA2AAAAAAAA2A2A2AAAAAAAAAAA2AIAA
A2AIAAIA2AAA2AAAAAAA4A2AA2AAAAAAAA2AAAAAAAA2A2A2AAAAAAAAAAA2AIAA
A2AIAAIA2AAA2AAAAAAA4A2AA2AAAAAAAAIAAAAAAAA2A2A2AAAAAAAAAAA2AIAA
A2AIAAIA2AAA2AAAAAAA4A2AA2AAAAAAAAIAAAAAAAA2A2A2AAAAAAAAAAA2AAAA
A2AIAAIA2AAA2AAAAAAA4AAAA2AAAAAAAAIAAAAAAAA2A2A2AAAAAAAAAAA2AAAA
A2AIAAIA2AAA2AAAAAAA4AAAA2AAAAAAAA2AAAAAAAA2A2A2AAAAAAAAAAA2AAAA
A2AIAAIA2AAA2AAAAAAA4AIAA2AAAAAAAA2AAAAAAAA2A2A2AAAAAAAAAAA2AAAA
A2AIAAIA2AAA2AAAAAAA2A4AA2AAAAAAAA2AAAAAAAA2A2A2AAAAAAAAAAA2AAAA
A2AIAA2A2AAA2AAAAAAA2A4AA2AAAAAAAA2AAAAAAAA2A2A2AAAAAAAAAAA2AAAA
A2AIAA2A2AAA2AAAAAAA2A4AA2IAAAAAAA2AAAAAAAA2A2A2AAAAAAAAAAA2AAAA
A2AIAA2A2AAA2AAAAAAA2A4AA24AAAAAAA2AAAAAAAA2A2A2AAAAAAAAAAA2AAAA
A2AIAAAA2AAA2AAAAAAA2A4AA24AAAAAAA2AAAAAAAA2A2A2AAAAAAAAAAA2AAAA
A2AIAAAA2AAA2AAAAAAA2A4AA24AAAAAAA2AAAAAAAA2A2A2AAAAAAAAAAA2AIAA
A2AIAAAA2AAA2AAAAAAA2A4AA24AAAAAAA2AAAAAAAA2A2A2AAAAAAAAAAA2A2AA
A2AIAAAA2AAA2AAAAAAA2A4AA24AAAAAAA2AAAAAAAA2A2A2AAAAAAAAAAA2AIAA
A2AIAAAA2AAA2AAAAAAA2A4AA24AAAAAAI2AAAAAAAA2A2A2AAAAAAAAAAA2AIAA
A2AIAAAA2AAA2AAAAAAA2A4AA24AAAAAAA2AAAAAAAA2A2A2AAAAAAAAAAA2AIAA
A2AIAAAA2AAA2AAAAAAA2A4AA24AAAAAAA2AAAAAAAA2A2A2AAAAAAAAAAA2IIAA
A2AIAAAA2AAA2AAAAAAA2A4AA22AAAAAAA2AAAAAAAA2A2A2AAAAAAAAAAA2IIAA
A2AIAAAA2AAA2AAAAAAA2A4AA22AAAAAAA2AAAAAAAA2A2A2AAAAAAAAAAA2IAAA
A2AIAAAA2AAA2AAAAAAA2A4AA2IAAAAAAA2AAAAAAAA2A2A2AAAAAAAAAAA2IAAA
A2AIAAAA2AAI2AAAAAAA2A4AA2IAAAAAAA2AAAAAAAA2A2A2AAAAAAAAAAA2IAAA
A2AIAAAA2AAI2AAAAAAAAA4AA22AAAAAAA2AAAAAAAA2A2A2AAAAAAAAAAA2IAAA
A2AIAAAA2AAI2AAAAAAAAA4AA22AAAAAAA2AAAAAAAA2A2A2AAAAAAAAAAA2IIAA
A2AIAAAA2AAA2AAAAAAAAA4AA22AAAAAAA2AAAAAAAA2A2A2AAAAAAAAAAA2IIAA
A2AIAAAA2AAA2AAAAAAAIA4AA22AAAAAAA2AAAAAAAA2A2A2AAAAAAAAAAA2IIAA
A2AIAAAA2AAA2AAAAAAA4A4AA22AAAAAAA2AAAAAAAA2A2A2AAAAAAAAAAA2IIAA
A2AIAAAA2AAA2AAAAAAA4A4AA22AAAAAAA2AAAAAAAA2A2A2AAAAAAAAAAA244AA
A2AIAAAA2AAA2AAAAAAA2A2AA22AAAAAAA2AAAAAAAA2A2A2AAAAAAAAAAA244AA
A2AIAAAA2AAI2AAAAAAA2A2AA22AAAAAAA2AAAAAAAA2A2A2AAAAAAAAAAA244AA
A2AIAAAA2AAI2AAAAAAA2A2AA22AAAAAAA2AAAAAAAA2A2A2AAAAAAAAAAA2A2AA
A2AIAAAA2AAI2AAAAAAA2A2AAA2AAAAAAA2AAAAAAAA2A2A2AAAAAAAAAAA2A2AA
A2AIAAAA2AAI2AAAAAAA2A2AAI2AAAAAAA2AAAAAAAA2A2A2AAAAAAAAAAA2A2AA
A2AIAAAA2AA22AAAAAAA2A2AAI2AAAAAAA2AAAAAAAA2A2A2AAAAAAAAAAA2A2AA
A2AIAAAA2AA22AAAAAAA2A2AA22AAAAAAA2AAAAAAAA2A2A2AAAAAAAAAAA2A2AA
A2AIAAAA2AAA2AAAAAAA2A2AA22AAAAAAA2AAAAAAAA2A2A2AAAAAAAAAAA2A2AA
A2AIAAAA2AAA2AAAAAAA2A2AAI2AAAAAAA2AAAAAAAA2A2A2AAAAAAAAAAA2A2AA
A2AIAAAA2AAA2AAAAAAA2A2AII2AAAAAAA2AAAAAAAA2A2A2AAAAAAAAAAA2A2AA
A2AIAAAA2AAA2AAAAAAA2A2AII2AAAAAAAAAAAAAAAA2A2A2AAAAAAAAAAA2A2AA
A2AIAAAA2AAA2AAAAAAA2A2AII2AAAAAIAAAAAAAAAA2A2A2AAAAAAAAAAA2A2AA
A2AIAAAA2AAA2AAAAAAA2A2AII2AAAAAIAIAAAAAAAA2A2A2AAAAAAAAAAA2A2AA
A2AIAAAA2AAA2AAAAAAA2A2A442AAAAAIAIAAAAAAAA2A2A2AAAAAAAAAAA2A2AA
A2AIAAAA2AAA2AAAAAAA2A2A442AAAAAIAIAAAAAAAAAA2A2AAAAAAAAAAA2A2AA
A2AIAAIA2AAA2AAAAAAA2A2A442AAAAAIAIAAAAAAAAAA2A2AAAAAAAAAAA2A2AA
A2AIAAIA2AAA2AAAAAAA2A2A442AAAAAIA4AAAAAAAAAA2A2AAAAAAAAAAA2A2AA
A2AIAAIA2AAA2AAAAAAAAA2A242AAAAA4A4AAAAAAAAAA2A2AAAAAAAAAAA2A2AA
A2AIAAIA2AAA2AAAAAAAAA2A242AAAAA4A4AAAAAAAAIA2A2AAAAAAAAAAA2A2AA
A2AIAA2A2AAA2AAAAAAAAA2A242AAAAA4A4AAAAAAAAIA2A2AAAAAAAAAAA2A2AA
A2AIAAAA2AAA2AAAAAAAAA2A242AAAAA4A4AAAAAAAAIA2A2AAAAAAAAAAA2A2AA
A2AIAAAA2AAA2AAAAAAAAA2A242AAAAA4A2AAAAAAAA4A2A2AAAAAAAAAAA2A2AA
A2AIAAAA2AAA2AAAAAAAAA2A242IAAAA4A2AAAAAAAA4A2A2AAAAAAAAAAA2A2AA
A2AIAAAA2AAA2AAAAAAAAA2A2424AAAA4A2AAAAAAAA4A2A2AAAAAAAAAAA2A2AA
A2AIAAAA2AAA2AAAAAAAAA2A2224AAAA4A2AAAAAAAA4A2A2AAAAAAAAAAA2A2AA
A2AIAAIA2AAA2AAAAAAAAA2A2224AAAA4A2AAAAAAAA4A2A2AAAAAAAAAAA2A2AA
A2AIAAAA2AAA2AAAAAAAAA2A2224AAAA4A2AAAAAAAA4A2A2AAAAAAAAAAA2A2AA
A2AIAAAA2AAA2AAAAAAAAA2A2222AAAA4A2AAAAAAAA4A2A2AAAAAAAAAAA2A2AA
A2AIAAAA2AAA2AAAAAAAAA2A2222AAAA4I2AAAAAAAA4A2A2AAAAAAAAAAA2A2AA
A2AIAAAA2AAA2AAAAAAAAA2AA222AAAA4I2AAAAAAAA4A2A2AAAAAAAAAAA2A2AA
A2AIAAAA2AAA2AAAAAAAAA2AA222AAAA442AAAAAAAA4A2A2AAAAAAAAAAA2A2AA
A2AIAAAA2AAI2AAAAAAAAA2AA222AAAA442AAAAAAAA4A2A2AAAAAAAAAAA2A2AA
A2AIAAAA2AAA2AAAAAAAAA2AA222AAAA442AAAAAAAA4A2A2AAAAAAAAAAA2A2AA
A2AIAAAA2AAA2AAAAAAAAA2AA222AAAAA42AAAAAAAA4A2A2AAAAAAAAAAA2A2AA
A2AIAAAA2AAA2AAAAAAAAA2AA2A2AAAAA22AAAAAAAA4A2A2AAAAAAAAAAA2A2AA
A2AIAAAA2AAA2AAAAAAAAA2AA2A2AAAAAA2AAAAAAAA4A2A2AAAAAAAAAAA2A2AA
A2AIAAAA2AAA2AAAAAAAAI2AA2A2AAAAAA2AAAAAAAA4A2A2AAAAAAAAAAA2A2AA
A2AIAAAA2AAA2AAAAAAAAI2AA2A2AAAAAA2AAAAAAAA4A2A2AAAAAAAAAAA2AAAA
A2AIAAAA2AAA2AAAAAAAA42AA2A2AAAAAA2AAAAAAAA4A2A2AAAAAAAAAAA2AAAA
A2AIAAAA2AAA2AAAAAAAA42AA2A2AAAAAA2AAAAAAAA2A2A2AAAAAAAAAAA2AAAA
A2AIAAAA2AAA2AAAAAAAA22AA2A2AAAAAA2AAAAAAAA2A2A2AAAAAAAAAAA2AAAA
A2AIAAAA2AAA2AAAAAAAA22AA2A2AAAAAI2AAAAAAAA2A2A2AAAAAAAAAAA2AAAA
A2AIAAAA2AAA2AAAAAAAAA2AA2A2AAAAA42AAAAAAAA2A2A2AAAAAAAAAAA2AAAA
A2AIAAAA2AAI2AAAAAAAAA2AA2A2AAAAA42AAAAAAAA2A2A2AAAAAAAAAAA2AAAA
A2AIAAAA2AAA2AAAAAAAAA2AA2A2AAAAA42AAAAAAAA2A2A2AAAAAAAAAAA2AAAA
A2AIAAAA2AAA2AAAAAAAAA2AA2A2AAAAAA2AAAAAAAA2A2A2AAAAAAAAAAA2AAAA
A2IIAAAA2AAA2AAAAAAAAA2AA2A2AAAAAA2AAAAAAAA2A2A2AAAAAAAAAAA2AAAA
A2IIAAAA2AAA2AAAAAAAAA2AA2A2AAAAAAAAAAAAAAA2A2A2AAAAAAAAAAA2AAAA
A2IIAAAA2AAA2AAAAAAAAA2AA2A2AAAAAAAAAIAAAAA2A2A2AAAAAAAAAAA2AAAA
A2IIAAAA2AAA2AAAAAAAAA2AA2A2AAAAAAAAA4AAAAA2A2A2AAAAAAAAAAA2AAAA
A2IIAAAA2AAA2AAAAAAAIA2AA2A2AAAAAAAAA4AAAAA2A2A2AAAAAAAAAAA2AAAA
A2IIAAAA2AAA2AAAAAAAIA2AA2A2AAAAAAAAA2AAAAA2A2A2AAAAAAAAAAA2AAAA
A2IIAAAA2AAA2AAAAAAA4A2AA2A2AAAAAAAAA2AAAAA2A2A2AAAAAAAAAAA2AAAA
A2IIAAAA2AAA2AAAAAAA2A2AA2A2AAAAAAAAA2AAAAA2A2A2AAAAAAAAAAA2AAAA
A2IIAAAA2AAA2AAAAAAA2A2AI2A2AAAAAAAAA2AAAAA2A2A2AAAAAAAAAAA2AAAA
A2IIAAAA2AAA2AAAIAAA2A2AI2A2AAAAAAAAA2AAAAA2A2A2AAAAAAAAAAA2AAAA
A2IIAAAA2AAA2AAAIAAAIA2AI2A2AAAAAAAAA2AAAAA2A2A2AAAAAAAAAAA2AAAA
A2IIAAAA2AAA2AAAIAAAIA2AI2A2AIAAAAAAA2AAAAA2A2A2AAAAAAAAAAA2AAAA
A2IIAAAA2AAA2AAAIAAAIA2AIAA2A2AAAAAAA2AAAAA2A2A2AAAAAAAAAAA2AAAA
A2IIAAAA2AAA2AAAIAAAIA2AIAA2A2AAAAAAAIAAAAA2A2A2AAAAAAAAAAA2AAAA
A2IIAAAA2AAA2AAA2AAAIA2AIAA2A2AAAAAAAIAAAAA2A2A2AAAAAAAAAAA2AAAA
A2IIAAAA2AAA2AAA2AAAIA2AIAA2A2AAAAAAA2AAAAA2A2A2AAAAAAAAAAA2AAAA
A2IIAAAA2AAA2AAA2AAAIA2AIAA2A2AAAAAAA2AAAAI2A2A2AAAAAAAAAAA2AAAA
A2IIAAAA2AAA2AAA2AAAIA2AIAA2A2AAAAAAAIAAAAI2A2A2AAAAAAAAAAA2AAAA
A2IIAAAA2AAA2AAA2AAA4A2A4AA2A2AAAAAAAIAAAAI2A2A2AAAAAAAAAAA2AAAA
A2IIAAAA2AAA2AAA2AAAAA2A2AA2A2AAAAAAAIAAAAI2A2A2AAAAAAAAAAA2AAAA
A2IIAAAA2AAA2AAA2AAAAA2A2AA2A2AAAAAAA2AAAAI2A2A2AAAAAAAAAAA2AAAA
A2IIAAAA2AAA2AAA2AAAAA2A2AA2A2AAAAAAA2AAAA42A2A2AAAAAAAAAAA2AAAA
A2IIAAAA2AAA2AAA2AAAAA2A2AA2A2AAIAAAA2AAAA42A2A2AAAAAAAAAAA2AAAA
A2IIAAAA2AAA2AAAAAAAAA2A2AA2A2AAIAAAA2AAAA42A2A2AAAAAAAAAAA2AAAA
A2A2AAAA2AAA2AAAAAAAAA2A2AA2A2AAIAAAA2AAAA42A2A2AAAAAAAAAAA2AAAA
A2A2AAAA2AAA2AAAAAAAAA2A2AA2A2AAAAAAA2AAAA42A2A2AAAAAAAAAAA2AAAA
A2A2AAAA2AAA2AAAAAAAAA2A2AA2A2AAAAAAA2AAAAA2A2A2AAAAAAAAAAA2AAAA
A2A2AAAA2AAA2AAAAAAAAA2A2AA2A2AAAAAAAAAAAAA2A2A2AAAAAAAAAAA2AAAA
A2A2AAAA2AAA2AAAAAAAAA2A2AA2A2AAAAAIAAAAAAA2A2A2AAAAAAAAAAA2AAAA
A2A2AAAA2AAA2AAAAAAAAA2A2AA2A2AAAAAIAAAAAAI2A2A2AAAAAAAAAAA2AAAA
A2A2AAAA2AAA2AAAAAAAAA2A2AA2A2AAAAAIAIAAAAI2A2A2AAAAAAAAAAA2AAAA
A2A2AAAA2AAA2AAAAAAAAA2A2AA2A2AAAAAIAIAAAAA2A2A2AAAAAAAAAAA2AAAA
A2A2AAAA2AAA2AAAAAAAAA2A2AA2A2AAAAA2AIAAAAA2A2A2AAAAAAAAAAA2AAAA
A2A2AAAA2AAA2AAAAAAAAA2A2AA2A2AAAAA2A2AAAAA2A2A2AAAAAAAAAAA2AAAA
A2A2AAAA2AAI2AAAAAAAAA2A2AA2A2AAAAA2A2AAAAA2A2A2AAAAAAAAAAA2AAAA
A2A2AAAA2AAA2AAAAAAAAA2A2AA2A2AAAAA2A2AAAAA2A2A2AAAAAAAAAAA2AAAA
A2A2AAAA2AAA2AAAAAAAAA2A2AA2A2AAAAA2AIAAAAA2A2A2AAAAAAAAAAA2AAAA
A2A2AAAAAAAA2AAAAAAAAA2A2AA2A2AAAAA2AIAAAAA2A2A2AAAAAAAAAAA2AAAA
A2A2AAAAAAAA2AAAAAAAAA2A2AA2A2AAIAA2AIAAAAA2A2A2AAAAAAAAAAA2AAAA
A2A2AAIAAAAA2AAAAAAAAA2A2AA2A2AAIAA2AIAAAAA2A2A2AAAAAAAAAAA2AAAA
A2A2AAAAAAAA2AAAAAAAAA2A2AA2A2AAIAA2AIAAAAA2A2A2AAAAAAAAAAA2AAAA
A2A2AAAAAAAA2AAAAAAAAA2A2AA2A2AAAAA2A2AAAAA2A2A2AAAAAAAAAAA2AAAA
A2A2AAAAIAAA2AAAAAAAAA2A2AA2A2AAAAA2A2AAAAA2A2A2AAAAAAAAAAA2AAAA
A2A2AAAAIAAA2AAAAAAAAA2A2AA2A2AAAAA2AIAAAAA2A2A2AAAAAAAAAAA2AAAA
A2A2AAAAIAAA2AAAAAAAAA2A2AA2A2AAAAA2AIAAAAA2A2A2AAAAAAAAAIA2AAAA
A2A2AAAAIAAA2AAAAAAAAA2A2AA2A2AAAAA2A2AAAAA2A2A2AAAAAAAAAIA2AAAA
A2A2AAAAIAAA2AAAAAAAAA2A2AA2A2AAAAA2A2AAAAA2A2A2AAAAAAAAA4A2AAAA
A2A2AAAAIAAA2AAAAAAAAA2A2AA2A2AAAAA2AIAAAAA2A2A2AAAAAAAAA4A2AAAA
A2A2AAAAIAAA2AAAAAAAAA2A2AA2A2AAAIA2AIAAAAA2A2A2AAAAAAAAA4A2AAAA
A2A2AAAAIAAA2AAAAAAAAA2A2AA2A2AAAIA2AIAAAAA2A2A2AAAAAAAAA2A2AAAA
A2A2AAAAIAAA2AAAAAAAAA2A2AA2A2AAAIA2AIAAAAA2A2A2AAAAAAAAAIA2AAAA
A2A2AAAAIAAI2AAAAAAAAA2A2AA2A2AAAIA2AIAAAAA2A2A2AAAAAAAAAIA2AAAA
A2A2AAAA2AA22AAAAAAAAA2A2AA2A2AAAIA2AIAAAAA2A2A2AAAAAAAAAIA2AAAA
A2A2AAAA2AAA2AAAAAAAAA2A2AA2A2AAAIA2AIAAAAA2A2A2AAAAAAAAAIA2AAAA
A2A2AAAA2AAA2AAAAAAAAA2A2AA2A2AAA2A2A2AAAAA2A2A2AAAAAAAAAIA2AAAA
A2A2AAAA2AAA2AAAAAAAAA2A2AA2A2AAA2A2A2AAAAA2A2A2AAAAAAAAA2A2AAAA
A2A2AAAA2AAA2AAAAAAAAA2A2AA2A2AAA2A2AAAAAAA2A2A2AAAAAAAAA2A2AAAA
A2A2AAAAIAAA2AAAAAAAAA2A2AA2A2AAA2A2AAAAAAA2A2A2AAAAAAAAA2A2AAAA
A2A2AAAAIAAA2AAAAAAAAA2A2AA2A2AAA2A2AAAAAAA2A2A2AAAAIAAAA2A2AAAA
AAA2AAAA2AAA2AAAAAAAAA2A2AA2A2AAA2A2AAAAAAA2A2A2AAAAIAAAA2A2AAAA
AAA2AAAA2AAA2AAAAAAAAA2A2AA2A2AAAAA2AAAAAAA2A2A2AAAAIAAAA2A2AAAA
AAA2AAAA2AAA2AAAAAAAAA2A2AA2A2AAAAA2AAAAAAA2A2A2AAAA2AAAA2A2AAAA
AIA2AAAA2AAA2AAAAAAAAA2A2AA2A2AAAAA2AAAAAAA2A2A2AAAA2AAAA2A2AAAA
AIA2AAAAIAAA2AAAAAAAAA2A2AA2A2AAAAA2AAAAAAA2A2A2AAAA2AAAA2A2AAAA
AIA2AAAAIAAA2AAAAAAAAA2A2AA2A2AAAAAAAAAAAAA2A2A2AAAA2AAAA2A2AAAA
AIA2AAAAIAAA2AAAAAAAAA2A2AA2A2AAAAAAAAAAAAA2A2I2AAAA2AAAA2A2AAAA
AIA2AAAAIAAA2AAAAAAAAA2A2AA2A2AAAAAAAAAAAAA2A222AAAA2AAAA2A2AAAA
AIA2AAAAIAAA2AAAAAAAAA2A2AA2A2AAAAAAAAAAAAA2A222AAAAIAAAA2A2AAAA
AIA2AAAAIAAA2AAAAAAAAA2A2AA2AAAAAAAAAAAAAAA2A222AAAAIAAAA2A2AAAA
AIA2AAAAIAAA2AAAAAAAAA2A2AA2AAAAAIAAAAAAAAA2A222AAAAIAAAA2A2AAAA
AIA2AAAA2AAA2AAAAAAAAA2A2AA2AAAAAIAAAAAAAAA2A222AAAAIAAAA2A2AAAA
AIA2AAAA2AAA2AAAAAAAAA2A2AA2AAAAAIAAAAAAAAA2A222AAAA4AAAA2A2AAAA
AIA2AAAA2AAA2AAAAAAAAA2A2AA2AAAAA4AAAAAAAAA2A222AAAA4AAAA2A2AAAA
AIA2AAIA2AAA2AAAAAAAAA2A2AA2AAAAA4AAAAAAAAA2A222AAAA4AAAA2A2AAAA
AIA2AAIA2AAA2AAAAAAAAA2A2AA2AAAAA4AAAAAIAAA2A222AAAA4AAAA2A2AAAA
AIA2AAIA2AAA2AIAAAAAAA2A2AA2AAAAA4AAAAAIAAA2A222AAAA4AAAA2A2AAAA
AIA2AAIA2AAA2AIAAAAAAA2A2AA2AAAAA4AAAAAIAAA2A222AAAA4AAAA2I2AAAA
AIA2AAIA2AAA2A2AAAAAAA2A2AA2AAAAA4AAAAAIAAA2A222AAAA4AAAA2I2AAAA
AIA2AAAA2AAA2A2AAAAAAA2A2AA2AAAAA4AAAAAIAAA2A222AAAA4AAAA2I2AAAA
AIA2AAAA2AAA2A2AAAAAAAAA2AA2AAAAA4AAAAA4AAA2A222AAAA4AAAA2I2AAAA
AIA2AAAA2AAA2A2AAAAAAAAA2AA2AAAAA4AAAAA2AAA2A222AAAA4AAAA2I2AAAA
AIA2AAAA2AAA2A2AAAAAAAAA2AA2AAAAA4AAAAA2AAA2AA22AAAA4AAAA242AAAA
AIA2AAAA2AAA2A2AAAAAAAAA2AA2AAAAA2AAAAA2AAA2AA22AAAA4AAAA242AAAA
AIA2AAAA2AAA2A2AAAAAAAAA2AA2AAAAA2AAAAA2AAA2AA22AAAA4AAAA222AAAA
AIA2AAAA2AAA2A2AAAAAAAAA2AA2AAAAAAAAAAA2AAA2AA22AAAA4AAAA222AAAA
AIA2AAIA2AAA2A2AAAAAAAAA2AA2AAAAAAAAAAA2AAA2AA22AAAA4AAAA222AAAA
A2A2AAIA2AAA2A2AAAAAAAAA2AA2AAAAAAAAAAA2AAA2AA22AAAA4AAAA222AAAA
A2A2AAIA2AAA2I2AAAAAAAAA2AA2AAAAAAAAAAA2AAA2AA22AAAA4AAAA222AAAA
A2A2AAIA2AAA222AAAAAAAAA2AA2AAAAAAAAAAA2AAA2AA22AAAA4AAAA222AAAA
A2AAAAIA2AAA222AAAAAAAAA2AA2AAAAAAAAAAA2AAA2AA22AAAA4AAAA222AAAA
A2AAAAIA2AAA222AAAAAAAAA2AA2AAAAAAAAAAA2AAA2AA22AAAA4AAAA222AIAA
A2AAAAIA2AAA222AAAAAAAAA2AA2AAAAAAAAAAA2AAA2AA22AAAA4AAAA222AAAA
A2AAAAIA2AAA2I2AAAAAAAAA2AA2AAAAAAAAAAA2AAA2AA22AAAA4AAAA222AAAA
A2AAAAIA2AAA222AAAAAAAAA2AA2AAAAAAAAAAA2AAA2AA22AAAA4AAAA222AAAA
A2AAAAIA2AAA222AAAAAAAAA2AA2AAAAAAAAAAA2AAA2AA22AAAA4AAAA222AIAA
A2AAAAAA2AAA222AAAAAAAAA2AA2AAAAAAAAAAA2AAA2AA22AAAA4AAAA222AIAA
A2AAAAAA2AAA222AAAAAAAAA2AA2AAAAAIAAAAA2AAA2AA22AAAA4AAAA222AIAA
A2AAAAAA2AAA222AAAAAAAAA2AA2AAAAA2AAAAA2AAA2AA22AAAA4AAAA222AIAA
A2AAAAAA2AAA222AAAAAAAAA2AA2AAAAA2AAAAA2AAA2AA22AAAA2AAAA222A4AA
A2AAAAAA2AAA222AAAAAAAAA2AA2AAAAAIAAAAA2AAA2AA22AAAA2AAAA222A4AA
A2AAAAAA2AAA222AAAAAAAAA2AA2AAAAA4AAAAA2AAA2AA22AAAA2AAAA222A4AA
A2AAAAAA2AAA22AAAAAAAAAA2AA2AAAAA4AAAAA2AAA2AA22AAAA2AAAA222A4AA
A2AAAAAAAAAA22AAAAAAAAAA2AA2AAAAA4AAAAA2AAA2AA22AAAA2AAAA222A4AA
A2AAAAAAAAAA22AAAAAAAAAA2AA2AAAAA4AAAAA2AAA2AA22AIAA2AAAA222A4AA
A2AAAAAAAAAA22IAAAAAAAAA2AA2AAAAA4AAAAA2AAA2AA22AIAA2AAAA222A4AA
A2AAAAAAAAAA22IAAAAAAAAA2AA2AAAAA2AAAAA2AAA2AA22AIAA2AAAA222A4AA
A2AAAAAAAAAA222AAAAAAAAA2AA2AAAAA2AAAAA2AAA2AA22AIAA2AAAA222A4AA
A2AAAAAAAAAA222AAAAAAAAA2AA2AAAAA2AAAAA2AAA2AA22A4AA2AAAA222A4AA
A2AAAAAAAAAA222AAAAAAAAA2AA2AAAAA2AAAAA2AAAAAA22A4AA2AAAA222A4AA
A2AAAAAAAAAA222AAAAAAAAA2AA2AAAAA2AAAAA2AAAAAAA2A4AA2AAAA222A4AA
A2AAAAAAAAAA222AAAAAAAAA2AA2AAAAA2AAAAA2AAAAAAI2A4AA2AAAA222A4AA
A2AAAAAAAAAA222AAAAAAAAA2AA2AAAAA2AAAAA2AAAAAAI2AAAA2AAAA222A4AA
A2AAAAAAAAAA222AAAAAAAAA2AA2AAAAA2AAAAA2AAAAAAI2AIAA2AAAA222A4AA
A2AAAAAAAAAA222AAAAAAAAA2AA2AAAAAAAAAAA2AAAAAA42A4AA2AAAA222A4AA
A2AAAAAAAAAA222AAAAAAAAA2AA2AAAAAAAAAAA2AAAAAA42AAAA2AAAA222A4AA
A2AAAAIAAAAA222AAAAAAAAA2AA2AAAAAAAAAAA2AAAAAA42AAAA2AAAA222A4AA
A2AAAAAAAAAA222AAAAAAAAA2AA2AAAAAAAAAAA2AAAAAA42AAAA2AAAA222A4AA
A2AAAAAAAAAA222AAAAAAAAA2AA2AAAAAAAAAAA2AAAAAA22AAAA2AAAA222A4AA
A2AAAAAAAAAA222AAAAAAAAA2AA2AAAAAIAAAAA2AAAAAA22AAAA2AAAA222A4AA
A2AAAAAAAAAA222AAAAAAAAA2AA2AAAAAIIAAAA2AAAAAA22AAAA2AAAA222A4AA
A2AAAAAAAAAA222AAAAAAAAA2AA2AAAAA2IAAAA2AAAAAA22AAAA2AAAA222A4AA
A2AAAAAAAAAA222AAAAAAAAA2AA2AAAAA2IAAAA2AAAAAA22AAAA2AAAAA22A2AA
A2AAAAAAAAAA222AAAAAAAAA2AA2AAAAA2IAAAA2AAIAAA22AAAA2AAAAA22A2AA
A2AAAAIAAAAA222AAAAAAAAA2AA2AAAAA2IAAAA2AAIAAA22AAAA2AAAAA22A2AA
A2AAAAIAAAAA222AAAAAAAAA2AA2AAAAAIIAAAA2AAIAAA22AAAA2AAAAA22A2AA
A2AAAAAAAAAA222AAAAAAAAA2AA2AAAAAIIAAAA2AAIAAA22AAAA2AAAAA22A2AA
A2AAAAAAAAAA222AAAAAAAAA2AA2AAAAAIIAAAA2AA4AAA22AAAA2AAAAA22A2AA
A2AAAAAAAAAA222AAAAAAAAA2AA2AAAAA22AAAA2AA4AAA22AAAA2AAAAA22A2AA
A2AAAAAAAAAA222AAAAAAAAA2AA2AAAAA2AAAAA2AA4AAA22AAAA2AAAAA22A2AA
A2AAAAAAAAAA222AAAAAAAAA2AA2AAAAA2AAAAA2AAAAAA22AAAA2AAAAA22A2AA
A2AAAAIAAAAA222AAAAAAAAA2AA2AAAAA2AAAAA2AAAAAA22AAAA2AAAAA22A2AA
A2AAAAIAAAAA222AAAAAAAAA2AA2AAAAI2AAAAA2AAAAAA22AAAA2AAAAA22A2AA
A2AAAAIAAAAA222AAAAAAAIA2AA2AAAAI2AAAAA2AAAAAA22AAAA2AAAAA22A2AA
A2AAAAAAAAAA222AAAAAAAIA2AA2AAAAI2AAAAA2AAAAAA22AAAA2AAAAA22A2AA
A2AAAAAAAAAA222AAAAAAAIA2AA2AAAA22AAAAA2AAAAAA22AAAA2AAAAA22A2AA
A2AAAAAAAAAA222AAAAAAAIA2AA2AAAA2AAAAAA2AAAAAA22AAAA2AAAAA22A2AA
A2AAAAAAAAAA222AAAAAAAIA2AA2AAAAIAAAAAA2AAAAAA22AAAA2AAAAA22A2AA
A2AAAAAAAAAA22AAAAAAAA4A2AA2AAAA4AAAAAA2AAAAAA22AAAA2AAAAA22A2AA
A2AAAAAAAAAA22AAAAAAAA4A2AA2AAAA4AAAAAA2AAAAAAA2AAAA2AAAAA22A2AA
AAAAAAAAAAAA22AAAAAAAA4A2AA2AAAA4AAAAAA2AAAAAAA2AAAA2AAAAA22A2AA
AAAAAAAAAAAI22AAAAAAAA4A2AA2AAAA4AAAAAA2AAAAAAA2AAAA2AAAAA22A2AA
AAAAAAAAAAA422AAAAAAAA4A2AA2AAAA4AAAAAA2AAAAAAA2AAAA2AAAAA22A2AA
AAAAAAAAAAA222AAAAAAAA4A2AA2AAAA4AAAAAA2AAAAAAA2AAAA2AAAAA22A2AA
AAAAAAAAAAA222AAAAAAAAAA2AA2AAAA4AAAAAA2AAAAAAA2AAAA2AAAAA22A2AA
AAAAAAAAAAAA22AAAAAAAAAA2AA2AAAA4AAAAAA2AAAAAAA2AAAA2AAAAA22A2AA
AAAAAAAAAAAA22AAAAAAAAAA2AA2AAAA4AAAAAA2AAIAAAA2AAAA2AAAAA22A2AA
AAAAAAAAAAAA22AAAAAAAAAA2AA2AAAA2AAAAAA2AAIAAAA2AAAA2AAAAA22A2AA
AAAAAAAAAAIA22AAAAAAAAAA2AA2AAAA2AAAAAA2AAIAAAA2AAAA2AAAAA22A2AA
AAAAAAAAAA2A22AAAAAAAAAA2AA2AAAA2AAAAAA2AAIAAAA2AAAA2AAAAA22A2AA
AAAAAAAAAA2A22AAAAAAAAAA2AA2AAAA2AAAAAA2AAAAAAA2AAAA2AAAAA22A2AA
AAAAAAAAIA2A22AAAAAAAAAA2AA2AAAA2AAAAAA2AAAAAAA2AAAA2AAAAA22A2AA
AAAAAAAAIA2A22AAAAAAAAAA2AA2AAAAAAAAAAA2AAAAAAA2AAAA2AAAAA22A2AA
AAAAAAAA2A2A22AAAAAAAAAA2AA2AAAAAAAAAAA2AAAAAAA2AAAA2AAAAA22A2AA
AAAAAAAA2A2A22AAAAAAAAAA2AA2AAAAAAAAAAA2AAAAAAA2AAAA2AAAAA22AAAA
AAAAAAAA2A2I22AAAAAAAAAA2AA2AAAAAAAAAAA2AAAAAAA2AAAA2AAAAA22AAAA
AAAAAAAA2A2222AAAAAAAAAA2AA2AAAAAAAAAAA2AAAAAAA2AAAA2AAAAA22AAAA
AAAAAAAA2A2A22AAAAAAAAAA2AA2AAAAAAAAAAA2AAAAAAA2AAAA2AAAAA22AAAA
AAAAAAAA2A2A22AAAAAAAAAI2AA2AAAAAAAAAAA2AAAAAAA2AAAA2AAAAA22AAAA
AAAAAAAA2A2A22AAAAAAAAA42AA2AAAAAAAAAAA2AAAAAAA2AAAA2AAAAA22AAAA
AAAAAAAA2A2I22AAAAAAAAA42AA2AAAAAAAAAAA2AAAAAAA2AAAA2AAAAA22AAAA
AAAAAAAA2A2A22AAAAAAAAA42AA2AAAAAAAAAAA2AAAAAAA2AAAA2AAAAA22AAAA
AAAAAAAA2A2A22AAAAAAAAA22AA2AAAAAAAAAAA2AAAAAAA2AAAA2AAAAA22AAAA
AAAAAAAA2A2A2AAAAAAAAAA22AA2AAAAAAAAAAA2AAAAAAA2AAAA2AAAAA22AAAA
AAAAAIAA2A2A2AAAAAAAAAA22AA2AAAAAAAAAAA2AAAAAAA2AAAA2AAAAA22AAAA
AAAAAIAA2A2A2AAAAAAAAAAA2AA2AAAAAAAAAAA2AAAAAAA2AAAA2AAAAA22AAAA
AAAAAIAA2A2I2AAAAAAAAAAA2AA2AAAAAAAAAAA2AAAAAAA2AAAA2AAAAA22AAAA
AAAAAIAA2A2A2AAAAAAAAAAA2AA2AAAAAAAAAAA2AAAAAAA2AAAA2AAAAA22AAAA
AAAAAIAA2A2A2AAAAAAAAAAA2AA2AAIAAAAAAAA2AAAAAAA2AAAA2AAAAA22AAAA
AAAAAIAA2A2A2AAAAAAAAAAA2AA2AA4AAAAAAAA2AAAAAAA2AAAA2AAAAA22AAAA
AAAAA2AA2A2A2AAAAAAAAAAA2AA2AA4AAAAAAAA2AAAAAAA2AAAA2AAAAA22AAAA
AAAAA2AA2A2A2AAAAAAAAAAA2AA2AA4AAAAAAAA2AAAAAAA2AAAA2AAAAA22AIAA
AAAAA2AA2A2A2AAAAAAAAAAA2AA2AA2AAAAAAAA2AAAAAAA2AAAA2AAAAA22AIAA
AAAAA2AA2A2A2AAAAAAAAAAA2AA2AA2AAAAAAAA2AAAAAAA2AAAA2AAAAA22A4AA
AAAAA2AA2A2A2AAAAAAAAAAA2IA2AA2AAAAAAAA2AAAAAAA2AAAA2AAAAA22A4AA
AAAAA2AA2A2A2AAAAAAAAAAA2IA2AA2AAAAAAAA2AAAAAAA2AIAA2AAAAA22A4AA
AAAAA2AA2A2A2AAAAAAAAAAA24A2AA2AAAAAAAA2AAAAAAA2AIAA2AAAAA22A4AA
AAAAA2AA2A2A2AAAAAAAAAAA24A2AA2AAAAAAAA2AAIAAAA2AIAA2AAAAA22A4AA
AAAAA2AA2A2A2AAAAAAAAAAA24A2AA2AAAAAAAA2AA4AAAA2AIAA2AAAAA22A4AA
AAAAA2AA2A2A2AAAAAAAAAAA24A2AA2AAAAAAAA2AA2AAAA2AIAA2AAAAA22A4AA
AAAAA2AA2A2A2AAAAAAAAAAA2AA2AA2AAAAAAAA2AA2AAAA2AIAA2AAAAA22A4AA
AAAAA2AA2A2A2AAAAAAAAAAA2AA2AA2AAAAAAAA2AA2AAAA2A2AA2AAAAA22A4AA
AAAAA2AA2A2I2AAAAAAAAAAA2AA2AA2AAAAAAAA2AA2AAAA2A2AA2AAAAA22A4AA
AAAAA2AA2A2A2AAAAAAAAAAA2AA2AA2AAAAAAAA2AA2AAAA2A2AA2AAAAA22A4AA
AAAAA2AA2A2A2AAAAAAAAAAA2AA2AA2AAAAAAAA2AA2AAAA2A2AA2AAAAA22A2AA
AAAAA2AA2AAA2AAAAAAAAAAA2AA2AA2AAAAAAAA2AA2AAAA2A2AA2AAAAA22A2AA
[...]
AAA2AAAAAAAIA2A2AAAAAAAAAAAAA2AAAAAAAA222IAAAAA2AA2AAAA2AA2AAA2A
AAA2AAAAAAAAA2A2AAAAAAAAAAAAA2AAAAAAAA222IAAAAA2AA2AAAA2AA2AAA2A
AAA2AAAAAAAAA2A2AAAAAAAAAAAAA2AAAAAAAA2224AAAAA2AA2AAAA2AA2AAA2A
AAA2AAAAAAAAA2A2AAAAAAAAAAAAA2AAAAAAAA2224AAAAA2AA2AAAA2AA2AAI2A
AAA2AAAAAAAAA2A2AAAAAAAAAAAAA2AAAAAAAA22A2AAAAA2AA2AAAA2AA2AAI2A
AAA2AAAAAAAAA2A2AAAAAAAAAAAAA2AAAAAAAAA2A2AAAAA2AA2AAAA2AA2AAI2A
AAA2AAAAAAAAA2A2AAAAAAAAAAAAA2AAAAAAAAA2I2AAAAA2AA2AAAA2AA2AAI2A
AAA2AAAAAAAAA2A2AAAAAAAAAAAAA2AAAAAAAAA242AAAAA2AA2AAAA2AA2AAI2A
AAA2AAAAAAAAA2A2AAAAAAAAAAAAAAAAAAAAAAA242AAAAA2AA2AAAA2AA2AAI2A
AAA2AAAAAAAAA2A2AAAAAAAAAAAAAAAAAAAAAAA222AAAAA2AA2AAAA2AA2AAI2A
AAA2AAAAAAAAA2A2AAAAAAAAAAIAAAAAAAAAAAA222AAAAA2AA2AAAA2AA2AAI2A
AAA2AAAAAAAAA2A2AAAAAAAAAA4AAAAAAAAAAAA222AAAAA2AA2AAAA2AA2AAI2A
AAA2AAAAAAAAA2A2AAAAAAAAAAAAAAAAAAAAAAA222AAAAA2AA2AAAA2AA2AAI2A
AAA2AAAAAAAAA2A2AAAAAAAAAAAAAAAAAAAAAAA222AAAAA2AA2AAAA2AA2AA22A
AAA2AAAAAAAAA2A2AAAAAAAAAAAAAAAAAAAAAAA222IAAAA2AA2AAAA2AA2AA22A
AAA2AAAAAAAIA2A2AAAAAAAAAAAAAAAAAAAAAAA222IAAAA2AA2AAAA2AA2AA22A
AAA2AAAAAAAIA2A2AAAAAAAAAAAAAAAAAAAAAAA222AAAAA2AA2AAAA2AA2AA22A
AAA2AAAAAAA2A2A2AAAAAAAAAAAAAAAAAAAAAAA222AAAAA2AA2AAAA2AA2AA22A
AAA2AAAAAAAAA2A2AAAAAAAAAAAAAAAAAAAAAAA222AAAAA2AA2AAAA2AA2AA22A
AAA2AAAAAAAAA2A2AAAAAAAAAAAAAAAAAAAAAAA222AAAAA2AA2AAAA2AA2AAA2A
AAA2AAIAAAAAA2A2AAAAAAAAAAAAAAAAAAAAAAA222AAAAA2AA2AAAA2AA2AAA2A
AAA2AAIAAAAAA2A2AAAAAAAAAAAAAAIAAAAAAAA222AAAAA2AA2AAAA2AA2AAA2A
AAA2AAIAAAAAA2A2AAAAAAAAAAAAAAAAAAAAAAA222AAAAA2AA2AAAA2AA2AAA2A
AAA2AAIAAAAAA2AAAAAAAAAAAAAAAAAAAAAAAAA222AAAAA2AA2AAAA2AA2AAA2A
AAA2AAAAAAAAA2AAAAAAAAAAAAAAAAAAAAAAAAA222AAAAA2AA2AAAA2AA2AAA2A
AAA2AAAAAAAAA2AAIAAAAAAAAAAAAAAAAAAAAAA222AAAAA2AA2AAAA2AA2AAA2A
AAA2AAAAAAAAA2AAIAAAAAAAAAAAAAAAAAAAAAA222AAAAA2AA2AAAA2AAAAAA2A
AAA2AAAAAAAAA2AA4AAAAAAAAAAAAAAAAAAAAAA222AAAAA2AA2AAAA2AAAAAA2A
AAA2AAIAAAAAA2AA4AAAAAAAAAAAAAAAAAAAAAA222AAAAA2AA2AAAA2AAAAAA2A
AAA2AAIAAAAAA2AA4AAAAAAAAAAAAIAAAAAAAAA222AAAAA2AA2AAAA2AAAAAA2A
AAA2AAAAAAAAA2AA4AAAAAAAAAAAAIAAAAAAAAA222AAAAA2AA2AAAA2AAAAAA2A
AAA2AAAAAAAAA2AA4AAAAAAAAAAAA4AAAAAAAAA222AAAAA2AA2AAAA2AAAAAA2A
AAA2AAAAAAAAA2AA2AAAAAAAAAAAA4AAAAAAAAA222AAAAA2AA2AAAA2AAAAAA2A
AAA2AAAAAAAAA2AA2AAAAAAAAAAAA4AAAAAAAAA222AAAAA2AAAAAAA2AAAAAA2A
AAA2AAAAAAAAA2AA2AAAAAAAAAAAA4AAAAAAAAA222AAAAA2AAIAAAA2AAAAAA2A
AAA2AAAAAAAAA2AA2AAAAAAAAAAAA4AAAAAAAAA222AAAAA2AA4AAAA2AAAAAA2A
AAA2AAAAAAAAA2AA2AAAAAAAAAAAA4AAAAAAAAA22AAAAAA2AA4AAAA2AAAAAA2A
AAA2AAAAAAAAA2AA2AAAAAAAAAAAA2AAAAAAAAA22AAAAAA2AA4AAAA2AAAAAA2A
AAA2AAAAAAAAA2AA2AAAAAAAAAAAA2AAAAAAAAA22AAAAAA2AA2AAAA2AAAAAA2A
AAA2AAAAAAAAA2AAAAAAAAAAAAAAA2AAAAAAAAA22AAAAAA2AA2AAAA2AAAAAA2A
AAA2AAAAAAAAA2AAAAAAAAAAAAAAA2AAAAIAAAA22AAAAAA2AA2AAAA2AAAAAA2A
AAA2AAAAAAAAA2AAAAAAAAAAAAAAA2AAAA2AAAA22AAAAAA2AA2AAAA2AAAAAA2A
AAA2AAAAAAAAA2AAAAAAAAAAAAIAA2AAAA2AAAA22AAAAAA2AA2AAAA2AAAAAA2A
AAA2AAAAAAAAA2AAAAAAAAAAAA4AA2AAAA2AAAA22AAAAAA2AA2AAAA2AAAAAA2A
AAA2AAAAAAAAA2AAAAAAAAAAAA4AA2AAIA2AAAA22AAAAAA2AA2AAAA2AAAAAA2A
AAAAAAAAAAAAA2AAAAAAAAAAAA4AA2AAIA2AAAA22AAAAAA2AA2AAAA2AAAAAA2A
AAAAAAAAAAAAA2AAAAAAAAAAAA4AA2AAIAAAAAA22AAAAAA2AA2AAAA2AAAAAA2A
AAAAAAIAAAAAA2AAAAAAAAAAAA4AA2AAIAAAAAA22AAAAAA2AA2AAAA2AAAAAA2A
AAAAAAIAAAAAA2AAAAAAAAAAAA4AA2AAIAAAAAA22IAAAAA2AA2AAAA2AAAAAA2A
AAAAAAAAAAAAA2AAAAAAAAAAAA4AA2AAIAAAAAA22IAAAAA2AA2AAAA2AAAAAA2A
AAAAAAAAAAAAA2AAAAAAAAAAAA2AA2AA4AAAAAA22IAAAAA2AA2AAAA2AAAAAA2A
AAAAAAAAAAAAA2AAAAAAAAAAAA2AA2AAAAAAAAA224AAAAA2AA2AAAA2AAAAAA2A
AAAAAAAAAAAAA2AAAAAAAAAAAA2AA2AAAAAAAAA22AAAAAA2AA2AAAA2AAAAAA2A
AAAAAAAAAAAAA2AAAAAAAAAAAA2AA2AAIAAAAAA22AAAAAA2AA2AAAA2AAAAAA2A
AAAAAAAAAAAIA2AAAAAAAAAAAA2AA2AAIAAAAAA22AAAAAA2AA2AAAA2AAAAAA2A
AAAAAAAAAAAAA2AAAAAAAAAAAA2AA2AAIAAAAAA22AAAAAA2AA2AAAA2AAAAAA2A
AAAAAAAAAAAAA2AAAAAAAAAAAA2AA2AAAAAAAAA22AAAAAA2AA2AAAA2AAAAAA2A
AAAAAAAAAAAAA2AAAAAAAAAAAA2AA2AAAAAAAAA22AIAAAA2AA2AAAA2AAAAAA2A
AAAAAAAAAAAAA2AAAAAAAAAAAA2AA2AAAAAAAAA22AAAAAA2AA2AAAA2AAAAAA2A
AAAAAAAAAAAAA2AAAAAAAAAAAA2AAAAAAAAAAAA22AAAAAA2AA2AAAA2AAAAAA2A
AAAAAAAAAAAAA2AAAAAAAAAAAA2AAAAAAAAAAAA22AAAAAA2AA2AAIA2AAAAAA2A
AAAAAAAAAAAAI2AAAAAAAAAAAA2AAAAAAAAAAAA22AAAAAA2AA2AAIA2AAAAAA2A
AAAAAAAAAAAA42AAAAAAAAAAAA2AAAAAAAAAAAA22AAAAAA2AA2AAIA2AAAAAA2A
AAAAAAAAAAAA22AAAAAAAAAAAA2AAAAAAAAAAAA22AAAAAA2AA2AAIA2AAAAAA2A
AAAAAAAAAAAA22AAAAAAAAAAAA2AAIAAAAAAAAA22AAAAAA2AA2AAIA2AAAAAA2A
AAAAAAAAAAAI22AAAAAAAAAAAA2AAIAAAAAAAAA22AAAAAA2AA2AAIA2AAAAAA2A
AAAAAAAAAAAI22IAAAAAAAAAAA2AAIAAAAAAAAA22AAAAAA2AA2AAIA2AAAAAA2A
AAAAAAAAAAAI22IAAIAAAAAAAA2AAIAAAAAAAAA22AAAAAA2AA2AAIA2AAAAAA2A
AAAAAAAAAAAI22IAAIAAAAAAAA2AAAAAAAAAAAA22AAAAAA2AA2AAIA2AAAAAA2A
AAAAAAAAAAAI22IAAIAAAAAAAA2AAAAAAAAAAAA22AAAAAA2AA2AA2A2AAAAAA2A
AAAAAAAAAAAI22IAAIAAAAAAAA2AAAAAAAAAAAA22AAAAAA2AA2AAIA2AAAAAA2A
AAAAAAAAAAAA222AA2AAAAAAAA2AAAAAAAAAAAA22AAAAAA2AA2AAIA2AAAAAA2A
AAAAAAAAAAAA222AA2IAAAAAAA2AAAAAAAAAAAA22AAAAAA2AA2AAIA2AAAAAA2A
AAAAAAAAAAAA222AA24AAAAAAA2AAAAAAAAAAAA22AAAAAA2AA2AAIA2AAAAAA2A
AAAAAAAAAAAA222AA24AAAAAAA2AAAAAAAAAAAA22AAAAAA2AA2AA4A2AAAAAA2A
AAAAAAAAAAAA222AA22AAAAAAA2AAAAAAAAAAAA22AAAAAA2AA2AA4A2AAAAAA2A
AAAAAAAAAAAA222AAI2AAAAAAA2AAAAAAAAAAAA22AAAAAA2AA2AA4A2AAAAAA2A
AAAAAAAAAAAA222AA42AAAAAAA2AAAAAAAAAAAA22AAAAAA2AA2AA4A2AAAAAA2A
AAAAAAAAAAAA222AA22AAAAAAA2AAAAAAAAAAAA22AAAAAA2AA2AA4A2AAAAAA2A
AAAAAAIAAAAA222AA22AAAAAAA2AAAAAAAAAAAA22AAAAAA2AA2AA4A2AAAAAA2A
AAAAAAAAAAAA222AA22AAAAAAA2AAAAAAAAAAAA22AAAAAA2AA2AA4A2AAAAAA2A
AAAAAAAAAAAA22AAA22AAAAAAA2AAAAAAAAAAAA22AAAAAA2AA2AA4A2AAAAAA2A
AAAAAAAAAAAI22AAA22AAAAAAA2AAAAAAAAAAAA22AAAAAA2AA2AA4A2AAAAAA2A
AAAAAAAAAAA422AAA22AAAAAAA2AAAAAAAAAAAA22AAAAAA2AA2AA4A2AAAAAA2A
AAAAAAAAAAAA22AAA22AAAAAAA2AAAAAAAAAAAA22AAAAAA2AA2AA4A2AAAAAA2A
AAAAAAAAAAAA22AAI22AAAAAAA2AAAAAAAAAAAA22AAAAAA2AA2AA4A2AAAAAA2A
AAAAAAAAAAAA22AA222AAAAAAA2AAAAAAAAAAAA22AAAAAA2AA2AA4A2AAAAAA2A
AAAAAAAAAAAA22AA2A2AAAAAAA2AAAAAAAAAAAA22AAAAAA2AA2AA4A2AAAAAA2A
AAAAAAAAAAAA22AA2I2AAAAAAA2AAAAAAAAAAAA22AAAAAA2AA2AA4A2AAAAAA2A
AAAAAAAAAAAA22AA242AAAAAAA2AAAAAAAAAAAA22AAAAAA2AA2AA4A2AAAAAA2A
AAAAAAAAAAAA22AA222AAAAAAA2AAAAAAAAAAAA22AAAAAA2AA2AA4A2AAAAAA2A
AAAAAAAAAAAA22AA2A2AAAAAAA2AAAAAAAAAAAA22AAAAAA2AA2AA4A2AAAAAA2A
AAAAAAAAAAAA22AA2A2AIAAAAA2AAAAAAAAAAAA22AAAAAA2AA2AA4A2AAAAAA2A
AAAAAAAAAAAA22AA2A2AAAAAAA2AAAAAAAAAAAA22AAAAAA2AA2AA4A2AAAAAA2A
AAAAAAAAAAAI22AA2A2AAAAAAA2AAAAAAAAAAAA22AAAAAA2AA2AA4A2AAAAAA2A
AAAAAAAAAAA222AA2A2AAAAAAA2AAAAAAAAAAAA22AAAAAA2AA2AA4A2AAAAAA2A
AAAAAAAAAAAA22AA2A2AAAAAAA2AAAAAAAAAAAA22AAAAAA2AA2AA4A2AAAAAA2A
AAAAAAAAAAAA22AA2A2AAAAAAA2AAAAAAAAAAAA22AAAAAA2AA2AA2A2AAAAAA2A
AAAAAAAAAAAA22AA2A2AIAAAAA2AAAAAAAAAAAA22AAAAAA2AA2AA2A2AAAAAA2A
AAAAAAAAAAAA22AI2A2AIAAAAA2AAAAAAAAAAAA22AAAAAA2AA2AA2A2AAAAAA2A
AAAAAAAAAAAA22A22A2AIAAAAA2AAAAAAAAAAAA22AAAAAA2AA2AA2A2AAAAAA2A
AAAAAAAAAAAA22AI2A2AIAAAAA2AAAAAAAAAAAA22AAAAAA2AA2AA2A2AAAAAA2A
AAAAAAAAAAAA22A42A2AIAAAAA2AAAAAAAAAAAA22AAAAAA2AA2AA2A2AAAAAA2A
AAAAAAAAAAAA22A22A2A4AAAAA2AAAAAAAAAAAA22AAAAAA2AA2AA2A2AAAAAA2A
AAAAAAAAAAAA22A22A2A4AAAAAAAAAAAAAAAAAA22AAAAAA2AA2AA2A2AAAAAA2A
AAAAAAAAAAAA22A22A2A4AAAAAAAAAAAAAAAAAA22AAAAAA2AA2AA2A2AAAAAAAA
AAAAAAAAAAAA22A22A2A4AAAAAIAAAAAAAAAAAA22AAAAAA2AA2AA2A2AAAAAAAA
AAAAAAAAAAAA22A22A2AAAAAAA2AAAAAAAAAAAA22AAAAAA2AA2AA2A2AAAAAAAA
AAAAAAAAAAAA22A22A2AAAAAAAIAAAAAAAAAAAA22AAAAAA2AA2AA2A2AAAAAAAA
AAAAAAAAAAAA22A22A2AAAAAAA4AAAAAAAAAAAA22AAAAAA2AA2AA2A2AAAAAAAA
AAAAAAAAAAAA22A2AA2AAAAAAA4AAAAAAAAAAAA22AAAAAA2AA2AA2A2AAAAAAAA
AAAAAAAAAAAA22A2AA2AAAAAAA4AAAAAAAAAAAA22AIAAAA2AA2AA2A2AAAAAAAA
AAAAAAAAAAAA22A2IA2AAAAAAA4AAAAAAAAAAAA22AIAAAA2AA2AA2A2AAAAAAAA
AAAAAAAAAAAA22A2IA2AAAAAAA2AAAAAAAAAAAA22AIAAAA2AA2AA2A2AAAAAAAA
AAAAAAAAAAAA22A22A2AAAAAAA2AAAAAAAAAAAA22AIAAAA2AA2AA2A2AAAAAAAA
AAAAAAAAAAAA22A22A2AAAAAAAAAAAAAAAAAAAA22AIAAAA2AA2AA2A2AAAAAAAA
AAAAAAAAAAAA22A22A2AAAAAAAAAAAAAAAAAAAA22A2AAAA2AA2AA2A2AAAAAAAA
AAAAAAAAAAAA22A22A2AAAAAAAIAAAAAAAAAAAA22A2AAAA2AA2AA2A2AAAAAAAA
AAAAAAAAAAAA22A22A2AAAAAAAIAAAAAAAAAAAA22A2AAAA2AA2AAAA2AAAAAAAA
AAAAAAAAAAAA22A22A2AAAAAAAIAAAAAAAAAAAA22A2AAAA2AA2AAIA2AAAAAAAA
AAAAAAAAAAAA22A22A2AAAAAAA4AAAAAAAAAAAA22A2AAAA2AA2AAIA2AAAAAAAA
AAAAAAAAAAAA22A22A2AAAAAAA4AAAAAAAAAAAA22A2AAAA2AA2AA2A2AAAAAAAA
AAAAAAAAAAAA22I22A2AAAAAAA4AAAAAAAAAAAA22A2AAAA2AA2AA2A2AAAAAAAA
AAAAAAAAAAAA22222A2AAAAAAA4AAAAAAAAAAAA22A2AAAA2AA2AA2A2AAAAAAAA
AAAAAAAAAAAA22A22A2AAAAAAA4AAAAAAAAAAAA22A2AAAA2AA2AA2A2AAAAAAAA
AAAAAAAAAAAA22A22A2AAAAAAA4AAAAAAAAAAAA22AAAAAA2AA2AA2A2AAAAAAAA
AAAAAAAAAAAA22A22A2AAAAAAA4AAAAAAAAAAAA22AIAAAA2AA2AA2A2AAAAAAAA
AAAAAAAAAAAA22A22A2AAAAAAA4AAAAAAAAAAAA22AIAAAA2AI2AA2A2AAAAAAAA
AAAAAAAAAAAA22A22A2AAAAAAA4AAAAAAAAAAAA22AIAAAA2AIAAA2A2AAAAAAAA
AAAAAAAAAAAA22A22A2AAAAAAA4AAAAAAAAAAAA22A4AAAA2AIAAA2A2AAAAAAAA
AAAAAAAAAAAA22A22A2AAAAAAA4AAAAAAAAAAAA22AAAAAA2A2AAA2A2AAAAAAAA
AAAAAAAAAAAA22A22A2AAAAAAA4AAAAAAAAAAAA22AAAAAA2A2AAAAA2AAAAAAAA
AAAAAAAAAAAA22A22A2AAAAAAA2AAAAAAAAAAAA22AAAAAA2A2AAAAA2AAAAAAAA
AAAAAAIAAAAA22A22A2AAAAAAA2AAAAAAAAAAAA22AAAAAA2A2AAAAA2AAAAAAAA
AAAAAAIAAAAA22A22A2AAAAAAA2AAAAAAAAAAAA22AIAAAA2A2AAAAA2AAAAAAAA
AAAAAAIAAAAA22A22A2AAAAAAA2AAAAAAAAAAAA22AAAAAA2A2AAAAA2AAAAAAAA
AAAAAAIAAAAA22A22A2AAAAAAA2AAAAAAAAAAAA22AIAAAA2A2AAAAA2AAAAAAAA
AAAAAAIAAAAA22A22A2AAAAAAA2AAAAAAAAAAAA22A4AAAA2A2AAAAA2AAAAAAAA
AAAAAAIAAAAA22A22A2AAAAAAA2AAAAAAAAAAAA22AAAAAA2A2AAAAA2AAAAAAAA
AAAAAAIAAAAA22A22A2AAAAAIA2AAAAAAAAAAAA22AAAAAA2A2AAAAA2AAAAAAAA
AAAAAAAAAAAA22A22A2AAAAAIA2AAAAAAAAAAAA22AAAAAA2A2AAAAA2AAAAAAAA
AAAAAAAAAAAA22A22A2AAAAAIA2AAAAAAAAAAAA22AAAAAA2A2AAAAA2AIAAAAAA
AAAAAAAAAAAA22A22A2AAAAAIA2AAAAAAAAAAAA22AAAIAA2A2AAAAA2AIAAAAAA
AAAAAAAAAAAA22A22A2AAAAAIAAAAAAAAAAAAAA22AAAIAA2A2AAAAA2AIAAAAAA
AAAAAAAAAAAA22A22A2AAAAA4AAAAAAAAAAAAAA22AAAIAA2A2AAAAA2AIAAAAAA
AAAAAAAAAAAA22A22A2AAAAA4AAAAAAAAAAAAAA22AAA4AA2A2AAAAA2AIAAAAAA
AAAAAAAAAAAA22A22A2AAAAA4AAAAAAAIAAAAAA22AAA4AA2A2AAAAA2AIAAAAAA
AAAAAAAAAAAA22A22A2AAAAA4AAAAAAAIAAAAAA22AAA2AA2A2AAAAA2A4AAAAAA
AAAAAAAAAAAA22A22A2AAAAA2AAAAAAAIAAAAAA22AAA2AA2A2AAAAA2A4AAAAAA
AAAAAAAAAAAA22A22A2AAAAA2AAAAAAA2AAAAAA22AAA2AA2A2AAAAA2A4AAAAAA
AAAAAAAAAAAA22A22A2AAAAA2AAAAAAA2AAAAAA22AAA2AA2A2AAAAA2AAAAAAAA
AAAAAAAAAAAA22A22AAAAAAA2AAAAAAA2AAAAAA22AAA2AA2A2AAAAA2AAAAAAAA
AAAAAAAAAAAA22A22AAAAAAA2AAAAAAA2AAAAAA22AAAAAA2A2AAAAA2AAAAAAAA
AAAAAAAAAAAI22A22AAAAAAA2AAAAAAA2AAAAAA22AAAAAA2A2AAAAA2AAAAAAAA
AAAAAAAAAAAI22A22AAAAAAA2AAAAAAA2AAAAAA22AAAIAA2A2AAAAA2AAAAAAAA
AAAAAAIAAAAI22A22AAAAAAA2AAAAAAA2AAAAAA22AAAIAA2A2AAAAA2AAAAAAAA
AAAAAAAAAAAI22A22AAAAAAA2AAAAAAA2AAAAAA22AAAIAA2A2AAAAA2AAAAAAAA
AAAAAAAAAAAA22A22AAAAAAA2AAAAAAA2AAAAAA22AAAIAA2A2AAAAA2AAAAAAAA
AAAAAAAAAAAA22A22AAAAAAA2AAAAAAAAAAAAAA22AAAIAA2A2AAAAA2AAAAAAAA
AAAAAAAAAAAA22A22AAAAAAA2AAAAAAAAAAAAAA22AAA2AA2A2AAAAA2AAAAAAAA
AAAAAAAAAAAA22A22AAAAAAA2AAAAAAAAAAAAAA22AAAIAA2A2AAAAA2AAAAAAAA
AAAAAAAAAAAA22A22AAAAAAA2AAAAAAAAAAAAAA22AAA2AA2A2AAAAA2AAAAAAAA
AAAAAAAAAAAA22A22AAAAAAA2AAAAAAAAAAAAAA22AIA2AA2A2AAAAA2AAAAAAAA
AAAAAAAAAAAA22A22AAAAAAA2AAAAAAAAAAAAAA22AAA2AA2A2AAAAA2AAAAAAAA
AAAAAAAAAAAA22A22AAAAAAA2AAAAAAAAAAAAAA22AAA2AA2A2AAAAA2AAAAAIAA
AAAAAAAAAAAA22A22AAAAAAA2AAAAAAAAAAAAAA22AAA2AA2A2AAAAA2AAAAAAAA
AAAAAAIAAAAA22A22AAAAAAA2AAAAAAAAAAAAAA22AAA2AA2A2AAAAA2AAAAAAAA
AAAAAAIAAAAA22A22AAAAAAA2AAAAAAAAAAAAAA2AAAA2AA2A2AAAAA2AAAAAAAA
AAAAAAAAAAAA22A22AAAAAAA2AAAAAAAAAAAAAA2AAAA2AA2A2AAAAA2AAAAAAAA
AAAAAAAAAAAA22A22AAAAAAA2AAAAAAAAAAAAAA2AAIA2AA2A2AAAAA2AAAAAAAA
AAAAAAAAAAAA22A22AAAAAAA2AAAAAAAAAAAAAA2AA4A2AA2A2AAAAA2AAAAAAAA
AAAAAAAAAAAA22A22AAAAAAA2AAAAAAAAAAAAAA2AAAA2AA2A2AAAAA2AAAAAAAA
AAAAAAAAAAAA22A2AAAAAAAA2AAAAAAAAAAAAAA2AAAA2AA2A2AAAAA2AAAAAAAA
AAAAAAAAAAAA22A2AAAAAAAA2AAAAAAAAIAAAAA2AAAA2AA2A2AAAAA2AAAAAAAA
AAAAAAAAAAAA22A2IAAAAAAA2AAAAAAAAIAAAAA2AAAA2AA2A2AAAAA2AAAAAAAA
AAAAAAAAAAAA22A22AAAAAAA2AAAAAAAAIAAAAA2AAAA2AA2A2AAAAA2AAAAAAAA
AAAAAAAAAAAA22A22AAAAAAA2AAAAAAAA4AAAAA2AAAA2AA2A2AAAAA2AAAAAAAA
AAAAAAAAAAAA22A22AAAAAAA2AAAAAAAAAAAAAA2AAAA2AA2A2AAAAA2AAAAAAAA
AAAAAAAAAAAA22A22AAAAAAAAAAAAAAAAAAAAAA2AAAA2AA2A2AAAAA2AAAAAAAA
AAAAAAAAAAAAA2A22AAAAAAAAAAAAAAAAAAAAAA2AAAA2AA2A2AAAAA2AAAAAAAA
AAAAAAAAAAAAA2A2AAAAAAAAAAAAAAAAAAAAAAA2AAAA2AA2A2AAAAA2AAAAAAAA
AAAAAAAAAAAAA2A2AAAAAAAAAAAAAAAAAAAAAAA2AAAA2AA2A2AAAAAAAAAAAAAA
AAAAAAAAAAAAA2A2IAAAAAAAAAAAAAAAAAAAAAA2AAAA2AA2A2AAAAAAAAAAAAAA
AAAAAAAAAAAAA2A2IAAAAAAAAAAAAIAAAAAAAAA2AAAA2AA2A2AAAAAAAAAAAAAA
AAAAAAAAAAAAA2A2IAAAAAAAAAAAAIAAAAAAAAA2AAIA2AA2A2AAAAAAAAAAAAAA
AAAAAAAAAAAAA2A22AAAAAAAAAAAAIAAAAAAAAA2AAIA2AA2A2AAAAAAAAAAAAAA
AAAAAAAAAAAAA2A22AAAAAAAAAAAAIAAAAAAAAA2AAAA2AA2A2AAAAAAAAAAAAAA
AAAAAAAAAAAAA2A22AAAAAAAAAAAAAAAAAAAAAA2AAAA2AA2A2AAAAAAAAAAAAAA
AAAAAAAAAAAAA2A22AAAAAAAAAAAAAAAAAAAAAA2AAIA2AA2A2AAAAAAAAAAAAAA
AAAAAAAAAAAAA2A22AAAAAAAAAAAAAAAAAAAAAA2AA4A2AA2A2AAAAAAAAAAAAAA
AAAAAAAAAAAAA2A22AAAAAAAAAAAAAAAAAAAAAA2AAAA2AA2A2AAAAAAAAAAAAAA
AAAAAAAAAAAAA2A2AAAAAAAAAAAAAAAAAAAAAAA2AAAA2AA2A2AAAAAAAAAAAAAA
AAAAAAAAAAAAA2A2AAAAAAAAAAAAAAAAAAAAAAA2AAAA2AAAA2AAAAAAAAAAAAAA
AAAAAAAAAAAAA2A2AAAAAAAAAAAAAAAAAAAAAAA2AAAA2AAAA2AAAAAAIAAAAAAA
AAAAAAAAAAAAA2A2AAAAIAAAAAAAAAAAAAAAAAA2AAAA2AAAA2AAAAAAIAAAAAAA
AAAAAAAAAAAAA2A2AAAAIAAAAAAAAAAAAAAAAAA2AAAA2AAIA2AAAAAAIAAAAAAA
AAAAAAAAAAAAA2A2AAAA4AAAAAAAAAAAAAAAAAA2AAAA2AAIA2AAAAAAIAAAAAAA
AAAAAAAAAAAAA2A2AAAA4AAAAAAAAAAAAAAAAAA2AAAA2AA4A2AAAAAAIAAAAAAA
AAAAAAAAAAAAA2A2AAAA4AAAAAAAAAAAAAAAAAA2AAAA2AA2A2AAAAAAIAAAAAAA
AAAAAAAAAAAAA2A2AAAA4AAAAAAAAAAAAAAAAAA2AAAA2AA2A2AAAAAA2AAAAAAA
AAAAAAAAAAAAA2A2AAAA4AAAAAAAAAAAAAAAAAA2AAAA2AA2A2AIAAAA2AAAAAAA
AAAAAAAAAAAAA2A2AAAA4AAAAAAAAAAAAAAAAAA2AAAA2AA2A2AIAAAAIAAAAAAA
AAAAAAAAAAAAA2A2AAAA4AAAAAAAAAAAAAAAAAA2AAAA2AA2A2AIAAAA2AAAAAAA
AAAAAAAAAAAAA2A2AAAA4AAAAAAAAAAAAAAAAAA2AAAA2AA2AAA2AAAA2AAAAAAA
AAAAAAAAAAAAA2A2AAAA4AAAAAAAAAAAAAAAAAA2AAAA2AA2AIA2AAAA2AAAAAAA
AAAAAAAAAAAAA2A2AAAA4AAAAAAAAAAAAAAAAAA2AAAA2AA2AIA2AAAAIAAAAAAA
AAAAAAAAAAAAA2A2AAAA4AAAAAAAAAAAAAAAAAA2AAAA2AA2A4A2AAAAIAAAAAAA
AAAAAAAAAAAAA2A2AAAA4AAAAAAAAAAAAAAAAAA2AAAA2AA2A2A2AAAA4AAAAAAA
AAAAAAAAAAAAA2A2AAAA4AAAAAAAAAAAAAAAAAI2AAAA2AA2A2A2AAAA4AAAAAAA
AAAAAAAAAAAAA2A2AAAA4AIAAAAAAAAAAAAAAAI2AAAA2AA2A2A2AAAA4AAAAAAA
AAAAAAAAAAAAA2A2AAAA4A4AAAAAAAAAAAAAAAI2AAAA2AA2A2A2AAAA4AAAAAAA
AAAAAAAAAAAAA2A2AAAAAA2AAAAAAAAAAAAAAAI2AAAA2AA2A2A2AAAA4AAAAAAA
AAAAAAAAAAAAA2A2AAAAAA2AAAAAAAAAAAAAAA22AAAA2AA2A2A2AAAA4AAAAAAA
AAAAAAAAAAAAA2A2AAAAAA2AAAAAAAAAAAAAAA22AAAA2AA2A2AAAAAA2AAAAAAA
AAAAAAAAAAAAA2A2AAAAIA2AAAAAAAAAAAAAAA22AAAA2AA2A2AAAAAA2AAAAAAA
AAAAAAAAAAAAA2A2AAAAIA2AAAAAAAAAAAAAAAI2AAAA2AA2A2AAAAAA2AAAAAAA
AAAAAAAAAAAAA2A2AAAA4A2AAAAAAAAAAAAAAAI2AAAA2AA2A2AAAAAA2AAAAAAA
AAAAAAAAAAAAA2A2AAAA4A2AAAAAAAAAAAAAAA42AAAA2AA2A2AAAAAA2AAAAAAA
AAAAAAAAAAAAA2A2AAAA4A2AAAAAAAAAAAAAAA22AAAA2AA2A2AAAAAA2AAAAAAA
AAAAAAAAAAAAA2A2AAAA4A2AAAAAAAAAAAAAAA22AAAA2AA2AAAAAAAA2AAAAAAA
AAAAAAAAAAAAA2A2AAAA2A2AAAAAAAAAAAAAAA22AAAA2AA2AAAAAAAA2AAAAAAA
AAAAAAAAAAAAA2A2AAAAIA2AAAAAAAAAAAAAAA22AAAA2AA2AAAAAAAA2AAAAAAA
AAAAAAAAAAAAA2A2AAAAIA2AAAAAAAAAAIAAAA22AAAA2AA2AAAAAAAA2AAAAAAA
AAAAAAAAAAAAA2A2AAAAIA2AAAAAAAAAAIAAAA22IAAA2AA2AAAAAAAA2AAAAAAA
AAAAAAAAAAAAA2A2AAAA4A2AAAAAAAAAAIAAAA22IAAA2AA2AAAAAAAA2AAAAAAA
AAAAAAAAAAAAA2A2AAAA4A2AAAAAAAAAA2AAAA224AAA2AA2AAAAAAAA2AAAAAAA
AAAAAAAAAAAAA2A2AAAA4A2AAAAAAAAAA2AAAA222AAA2AA2AAAAAAAA2AAAAAAA
AAAAAAAAAAAAA2A2AAAA4A2AAAAAAAAAAAAAAA222AAA2AA2AAAAAAAA2AAAAAAA
AAIAAAAAAAAAA2A2AAAA4A2AAAAAAAAAAAAAAA222AAA2AA2AAAAAAAA2AAAAAAA
AAIAAAAAAAAAA2A2AAAA4A2AAAAAAAAIAAAAAA222AAA2AA2AAAAAAAA2AAAAAAA
AAIAAAAAAAAAA2A2AAAA4A2AAAAAAAA4AAAAAA222AAA2AA2AAAAAAAA2AAAAAAA
AAIAAAAAAAAAA2A2AAAA2A2AAAAAAAA4AAAAAA222AAA2AA2AAAAAAAA2AAAAAAA
AAIAAAAAAAAIA2A2AAAA2A2AAAAAAAA4AAAAAA222AAA2AA2AAAAAAAA2AAAAAAA
AAIAAAAAAAAAA2A2AAAA2A2AAAAAAAA4AAAAAA222AAA2AA2AAAAAAAA2AAAAAAA
AAIAAAAAAAAAA2A2AAAAIA2AAAAAAAA4AAAAAA222AAA2AA2AAAAAAAA2AAAAAAA
AAIAAAAAAAAAA2A2AAAAIA2AAAAAAAA2AAAAAA222AAA2AA2AAAAAAAA2AAAAAAA
AAIAAAAAAAAAAAA2AAAA2A2AAAAAAAA2AAAAAA222AAA2AA2AAAAAAAA2AAAAAAA
AAIAAAAAAAAIAAA2AAAA2A2AAAAAAAA2AAAAAA222AAA2AA2AAAAAAAA2AAAAAAA
AAIAAAAAAAAIAAA2AAAA2A2AIAAAAAA2AAAAAA222AAA2AA2AAAAAAAA2AAAAAAA
AAIAAAAAAAA2AAA2AAAA2A2AIAAAAAA2AAAAAA222AAA2AA2AAAAAAAA2AAAAAAA
AAIAAAAAAAAAAAA2AAAA2A2AIAAAAAA2AAAAAA222AAA2AA2AAAAAAAA2AAAAAAA
AAIAAAAAAAAAAAA2AAAA2A2A2AAAAAA2AAAAAA222AAA2AA2AAAAAAAA2AAAAAAA
AAIAAAAAAAAAAAA2AAAAAA2A2AAAAAA2AAAAAA222AAA2AA2AAAAAAAA2AAAAAAA
AAIAAAAAAAAAAAA2AAAAAA2A2AAAAAAAAAAAAA222AAA2AA2AAAAAAAA2AAAAAAA
AAIAAAAAAAAAAAA2AAAAAA2A2AAAAAAAAAAAAA2A2AAA2AA2AAAAAAAA2AAAAAAA
AAIAAAAAAAAAAAA2AAAAAA2A2AAAAAAAAAAAAA2A2AAI2AA2AAAAAAAA2AAAAAAA
AAIAAAAAAAAAAAA2AAAAAA2AIAAAAAAAAAAAAA2A2AAI2AA2AAAAAAAA2AAAAAAA
AAIAAAAAAAAAAAA2AAAAAA2A4AAAAAAAAAAAAA2A2AAI2AA2AAAAAAAA2AAAAAAA
AAIAAAAAAAAAAAA2AAAAAA2A2AAAAAAAAAAAAA2A2AAI2AA2AAAAAAAA2AAAAAAA
AAIAAAAAAAAAAAA2AAAAAA2A2AAAAAAAAAIAAA2A2AAI2AA2AAAAAAAA2AAAAAAA
AA2AAAAAAAAAAAA2AAAAAA2A2AAAAAAAAAIAAA2A2AAI2AA2AAAAAAAA2AAAAAAA
AA2AAAAAAAAAAAA2AAAAAA2A2AAAAAAAAAAAAA2A2AA42AA2AAAAAAAA2AAAAAAA
AA2AAAIAAAAAAAA2AAAAAA2A2AAAAAAAAAAAAA2A2AA42AA2AAAAAAAA2AAAAAAA
AA2AAAIAAAAAAAA2AAAAAA2A2AAAAAAAAAIAAA2A2AA42AA2AAAAAAAA2AAAAAAA
AA2AAAIAAAAAAAA2AAAAAA2AAAAAAAAAAAIAAA2A2AA42AA2AAAAAAAA2AAAAAAA
AA2AAAIAAAAAAAA2AAAAAA2AAAAAAAAAAA2AAA2A2AA42AA2AAAAAAAA2AAAAAAA
AA2AAAIAAAAAAAA2AAAAAA2AAAAAAAAAAA2AAA2A2AA22AA2AAAAAAAA2AAAAAAA
AA2AAAIAAAAAAAA2AAAAAA2AAAAAAAAAAA2AAA2A2AA22AA2AAAAAAAI2AAAAAAA
AA2AAAIAAAAAAAA2AAAAAA2AAAAAAAAAAA2AAA2A2IA22AA2AAAAAAAI2AAAAAAA
AA2AAAIAAAAAAAA2AAAAAA2AAAAAAAAAAA2AAA2A2IAI2AA2AAAAAAAI2AAAAAAA
AA2AAAIAAAAAAAA2AAAAAA2AAAAAAAAAAA2AAA2A2IAI2AA2AAAAAAA42AAAAAAA
AA2AAAIAAAAAAAA2AAAAAA2AAAAAAAAAAA2AAA2A24A42AA2AAAAAAA42AAAAAAA
AA2AAAIAAAAAAAA2AAAAIA2AAAAAAAAAAA2AAA2A24A42AA2AAAAAAA42AAAAAAA
AA2AAAIAAAAAAAA2AAAA4A2AAAAAAAAAAA2AAA2A24A42AA2AAAAAAA42AAAAAAA
AA2AAAIAAAAAAAA2AAAA2A2AAAAAAAAAAA2AAA2A24A42AA2AAAAAAA42AAAAAAA
AA2AAAAAAAAAAAA2AAAA2A2AAAAAAAAAAA2AAA2A24A42AA2AAAAAAA42AAAAAAA
AA2AAAAAAAAAAAA2AAAA2A2AAAAAAAAAAA2AAA2A24A42AA2AAAAAAA42IAAAAAA
AA2AAAAAAAAAAAA2AAAA2A2AAAAAAAAAAA2AAA2A24A42AA2AAAAAAA42IAAAIAA
AA2AAAAAAAAAAAA2AAAAIA2AAAAAAAAAAA2AAA2A24A42AA2AAAAAAA42IAAAIAA
AA2AAAAAAAAAAAA2AAAAIA2AAAAAAAAAAA2AAA2A22A42AA2AAAAAAA42IAAAIAA
AA2AAAAAAAAAAAAAAAAA2A2AAAAAAAAAAA2AAA2A22A42AA2AAAAAAA42IAAAIAA
AA2AAAAAAAAAAAAAAAAA2A2AAAAAAAAAAA2AAA2A22A42AA2AAAAAAA42IAAA2AA
AA2AAAAAAAAAAAAAAAAA2A2AAAAAAAAAAA2AAA2A2IA42AA2AAAAAAA42IAAA2AA
AA2AAAAAAAAAAAAAAAAA2A2AAAAAAAAAAA2AAA2A2IA42AA2AAAAAAA42IAAA2AI
AA2AAAAAAAAAAAAAAAAA2A2AAAAAAAAAAA2AAA2A24A42AA2AAAAAAA42IAAA2AI
AA2AAAAAAAAAAAAAAAAA2A2AAAAAAAAAAA2AAA2A24A22AA2AAAAAAA424AAA2AI
AA2AAAAAAAAAAAAAAAAA2A2AAAAAAAAAAA2AAA2A24A22AA2AAAAAAA224AAA2AI
AA2AAAAAAAAAAAAAAAAA2A2AAAAAAAAAAA2AAA2A24A22AA2AAAAAAA22AAAA2A2
AA2AAAAAAAAAAAAAAAAA2A2AAAAAAAAAIA2AAA2A24A22AA2AAAAAAA22AAAA2A2
AA2AAAAAAAAAAAAAAAAA2A2AAAAAAAAAAA2AAA2A24A22AA2AAAAAAA22AAAA2A2
AA2AAAAAAAAAAAAAAAAA2A2AAAAAAAAAAA2AAA2A24AA2AA2AAAAAAA22AAAA2A2
AA2AAAAAIAAAAAAAAAAA2A2AAAAAAAAAAA2AAA2A24AA2AA2AAAAAAA22AAAA2A2
AA2AAAAA2AAAAAAAAAAA2A2AAAAAAAAAAA2AAA2A24AA2AA2AAAAAAA22AAAA2A2
AA2AAAAA2AAAAAAAAAAA2A2AAAAAAAAAAA2AAA2A22AA2AA2AAAAAAA22AAAA2A2
AA2AAAIA2AAAAAAAAAAA2A2AAAAAAAAAAA2AAA2A22AA2AA2AAAAAAA22AAAA2A2
AA2AAAIA2AAAAAAAAAAA2A2AAIAAAAAAAA2AAA2A22AA2AA2AAAAAAA22AAAA2A2
AA2AAAIA2AAAAAAAAAAA2A2AAIAAAAAAAA2AAA2A2IAA2AA2AAAAAAA22AAAA2A2
AA2AAAIA2AAAAAAAAAAA2A2AA4AAAAAAAA2AAA2A2IAA2AA2AAAAAAA22AAAA2A2
AA2AAAAA2AAAAAAAAAAA2A2AA4AAAAAAAA2AAA2A2IAA2AA2AAAAAAA22AAAA2A2
AA2AAAAA2AAAAAAAAAAA2A2AA4AAAAAAAA2AAA2A2AAA2AA2AAAAAAA22AAAA2A2
AA2AAAAA2AAAAAAAAAAAAA2AA4AAAAAAAA2AAA2A2AAA2AA2AAAAAAA22AAAA2A2
AA2AAAAA2AAIAAAAAAAAAA2AA4AAAAAAAA2AAA2A2AAA2AA2AAAAAAA22AAAA2A2
AA2AAAAA2AAIAAAAAAAAIA2AA4AAAAAAAA2AAA2A2AAA2AA2AAAAAAA22AAAA2A2
AA2AAAAA2AAAAAAAAAAA4A2AA4AAAAAAAA2AAA2A2AAA2AA2AAAAAAA22AAAA2A2
AA2AAAAA2AAAAAAAAAAAAA2AA4AAAAAAAA2AAA2A2AAA2AA2AAAAAAA22AAAA2A2
AA2AAAAA2AAAAAAAAAAAAA2AA4AAAAAAIA2AAA2A2AAA2AA2AAAAAAA22AAAA2A2
AA2AAAIA2AAAAAAAAAAAAA2AA4AAAAAAIA2AAA2A2AAA2AA2AAAAAAA22AAAA2A2
AA2AAAIA2AAAAAAAAAAAAA2AA4AAAAAIIA2AAA2A2AAA2AA2AAAAAAA22AAAA2A2
AA2AAAIA2AAAAAAAAAAAAA2AA4AAAAAIIA2AAA2A2AAA2AA2AAAAAAA22AAAA2AA
[MLOP] Prefetch Degree Mean: 10.66128
[MLOP] Prefetch Degree SD: 2.33469
[MLOP] Max Score Left Mean (%): 57.06682
[MLOP] Max Score Left SD (%): 9.31276
[MLOP] Max Score Right Mean (%): 85.02216
[MLOP] Max Score Right SD (%): 11.06227

Channel_0_RQ_row_buffer_hit 197286
Channel_0_RQ_row_buffer_miss 894703
Channel_0_WQ_row_buffer_hit 77730
Channel_0_WQ_row_buffer_miss 106391
Channel_0_WQ_full 0
Channel_0_dbus_congested 259528

avg_congested_cycle 9

DRAM_bw_pochs 982452
DRAM_bw_level_0 927061
DRAM_bw_level_1 51042
DRAM_bw_level_2 3746
DRAM_bw_level_3 603
