*************************************************
   ChampSim Multicore Out-of-Order Simulator
   Last compiled: Apr  3 2025 20:54:34
*************************************************
parsing config file: /home/zir/Pythia/config/pythia.ini

trace_0 /home/zir/ChampSim/ML-DPC/ChampSimTraces/gap/bc-5.trace.gz
adding L2C_PREFETCHER: Scooby
Initialize SHIP state
warmup_instructions 10000000
simulation_instructions 50000000
champsim_seed 53
measure_ipc 0
measure_ipc_epoch 1000
measure_dram_bw 1
measure_dram_bw_epoch 256
measure_cache_acc 1
measure_cache_acc_epoch 1024
l1d_perfect 0
l2c_perfect 0
llc_perfect 0
l1d_semi_perfect 0
l2c_semi_perfect 0
llc_semi_perfect 0
semi_perfect_cache_page_buffer_size 64

num_cpus 1
cpu_freq 4000
dram_io_freq 2400
page_size 4096
block_size 64
max_read_per_cycle 8
max_fill_per_cycle 1
dram_channels 1
log2_dram_channels 0
dram_ranks 1
dram_banks 8
dram_rows 65536
dram_columns 128
dram_row_size 8
dram_size 4096
dram_pages 1048576

fetch_width 6
decode_width 6
exec_width 4
lq_width 2
sq_width 2
retire_width 4
scheduler_size 128
branch_mispredict_penalty 20
rob_size 256
lq_size 72
sq_size 56
num_instr_destinations_sparc 4
num_instr_destinations 2
num_instr_sources 4

itlb_set 16
itlb_way 8
itlb_rq_size 16
itlb_wq_size 16
itlb_pq_size 0
itlb_mshr_size 8
itlb_latency 1

dtlb_set 16
dtlb_way 4
dtlb_rq_size 16
dtlb_wq_size 16
dtlb_pq_size 0
dtlb_mshr_size 8
dtlb_latency 1

stlb_set 128
stlb_way 12
stlb_rq_size 32
stlb_wq_size 32
stlb_pq_size 0
stlb_mshr_size 16
stlb_latency 8

l1i_size 32
l1i_set 64
l1i_way 8
l1i_rq_size 64
l1i_wq_size 64
l1i_pq_size 8
l1i_mshr_size 8
l1i_latency 1

l1d_size 32
l1d_set 64
l1d_way 8
l1d_rq_size 64
l1d_wq_size 64
l1d_pq_size 8
l1d_mshr_size 16
l1d_latency 4

l2c_size 256
l2c_set 512
l2c_way 8
l2c_rq_size 32
l2c_wq_size 32
l2c_pq_size 32
l2c_mshr_size 32
l2c_latency 10

llc_size 2048
llc_set 2048
llc_way 16
llc_rq_size 32
llc_wq_size 32
llc_pq_size 32
llc_mshr_size 64
llc_latency 20

dram_channel_width 8
dram_wq_size 64
dram_rq_size 64
tRP 15
tRCD 15
tCAS 12.5
dram_dbus_turn_around_time 30
dram_write_high_wm 56
dram_write_low_wm 48
min_dram_writes_per_switch 16
dram_mtps 2400
dram_dbus_return_time 13

scooby_alpha 0.0065088
scooby_gamma 0.556301
scooby_epsilon 0.00182284
scooby_state_num_bits 10
scooby_max_states 1024
scooby_seed 200
scooby_policy EGreedy
scooby_learning_type SARSA
scooby_actions 1,3,4,5,10,11,12,22,23,30,32,-1,-3,-6,0,
scooby_max_actions 15
scooby_pt_size 256
scooby_st_size 64
scooby_max_pcs 5
scooby_max_offsets 5
scooby_max_deltas 5
scooby_reward_none -4
scooby_reward_incorrect -8
scooby_reward_correct_untimely 12
scooby_reward_correct_timely 20
scooby_brain_zero_init 0
scooby_enable_reward_all 0
scooby_enable_track_multiple 0
scooby_enable_reward_out_of_bounds 1
scooby_reward_out_of_bounds -12
scooby_state_type 1
scooby_state_hash_type 11
scooby_access_debug 0
scooby_print_access_debug 0
scooby_print_access_debug_pc deadbeef
scooby_print_access_debug_pc_count 0
scooby_print_trace 0
scooby_enable_state_action_stats 1
scooby_enable_reward_tracker_hit 0
scooby_reward_tracker_hit -2
scooby_enable_featurewise_engine 1
scooby_pref_degree 1
scooby_enable_dyn_degree 1
scooby_max_to_avg_q_thresholds 0.5,1,2,
scooby_dyn_degrees 1,2,4,4,
scooby_multi_deg_select_type 2
scooby_last_pref_offset_conf_thresholds 1,3,8,
scooby_dyn_degrees_type2 1,2,4,6,
scooby_action_tracker_size 2
scooby_high_bw_thresh 4
scooby_enable_hbw_reward 1
scooby_reward_hbw_correct_timely 20
scooby_reward_hbw_correct_untimely 12
scooby_reward_hbw_incorrect -14
scooby_reward_hbw_none -2
scooby_reward_hbw_out_of_bounds -12
scooby_reward_hbw_tracker_hit -2
scooby_last_pref_offset_conf_thresholds_hbw 1,3,8,
scooby_dyn_degrees_type2_hbw 1,2,4,6,

le_enable_trace 0
le_trace_interval 0
le_trace_file_name 
le_trace_state 0
le_enable_score_plot 0
le_plot_file_name 
le_plot_actions 
le_enable_action_trace 0
le_action_trace_interval 0
le_action_trace_name 
le_enable_action_plot 0

le_featurewise_active_features PC, PC_Delta
le_featurewise_num_tilings 3,3,
le_featurewise_num_tiles 128,128,
le_featurewise_hash_types 2,2,
le_featurewise_enable_tiling_offset 1,1,
le_featurewise_max_q_thresh 0.5
le_featurewise_enable_action_fallback 1
le_featurewise_feature_weights 1,1,
le_featurewise_enable_dynamic_weight 0
le_featurewise_weight_gradient 0.001
le_featurewise_disable_adjust_weight_all_features_align 1
le_featurewise_selective_update 0
le_featurewise_pooling_type 2
le_featurewise_enable_dyn_action_fallback 1
le_featurewise_bw_acc_check_level 1
le_featurewise_acc_thresh 2
le_featurewise_enable_trace 0
le_featurewise_trace_feature_type 0
le_featurewise_trace_feature 
le_featurewise_trace_interval 0
le_featurewise_trace_record_count 0
le_featurewise_trace_file_name 
le_featurewise_enable_score_plot 0
le_featurewise_plot_actions 
le_featurewise_plot_file_name 


Heartbeat CPU  0 instructions:    1000000 cycles:     577209 heartbeat IPC: 1.73247 cumulative IPC: 1.73247 (Simulation time: 0 hr 0 min 2 sec) 
Heartbeat CPU  0 instructions:    2000001 cycles:    1129261 heartbeat IPC: 1.81143 cumulative IPC: 1.77107 (Simulation time: 0 hr 0 min 4 sec) 
Heartbeat CPU  0 instructions:    3000002 cycles:    1962165 heartbeat IPC: 1.20062 cumulative IPC: 1.52892 (Simulation time: 0 hr 0 min 6 sec) 
Heartbeat CPU  0 instructions:    4000000 cycles:    2972560 heartbeat IPC: 0.98971 cumulative IPC: 1.34564 (Simulation time: 0 hr 0 min 8 sec) 
Heartbeat CPU  0 instructions:    5000000 cycles:    3941880 heartbeat IPC: 1.03165 cumulative IPC: 1.26843 (Simulation time: 0 hr 0 min 10 sec) 
Heartbeat CPU  0 instructions:    6000003 cycles:    4860141 heartbeat IPC: 1.08902 cumulative IPC: 1.23453 (Simulation time: 0 hr 0 min 12 sec) 
Heartbeat CPU  0 instructions:    7000001 cycles:    5755512 heartbeat IPC: 1.11685 cumulative IPC: 1.21623 (Simulation time: 0 hr 0 min 14 sec) 
Heartbeat CPU  0 instructions:    8000000 cycles:    6601657 heartbeat IPC: 1.18183 cumulative IPC: 1.21182 (Simulation time: 0 hr 0 min 16 sec) 
Heartbeat CPU  0 instructions:    9000000 cycles:    7436587 heartbeat IPC: 1.19771 cumulative IPC: 1.21023 (Simulation time: 0 hr 0 min 18 sec) 
Heartbeat CPU  0 instructions:   10000001 cycles:    8226388 heartbeat IPC: 1.26614 cumulative IPC: 1.21560 (Simulation time: 0 hr 0 min 20 sec) 

Warmup complete CPU  0 instructions:   10000001 cycles:    8226388 (Simulation time: 0 hr 0 min 20 sec) 

Heartbeat CPU  0 instructions:   11000003 cycles:   14519031 heartbeat IPC: 0.15892 cumulative IPC: 0.15892 (Simulation time: 0 hr 0 min 24 sec) 
Heartbeat CPU  0 instructions:   12000000 cycles:   20503738 heartbeat IPC: 0.16709 cumulative IPC: 0.16290 (Simulation time: 0 hr 0 min 27 sec) 
Heartbeat CPU  0 instructions:   13000001 cycles:   26547700 heartbeat IPC: 0.16545 cumulative IPC: 0.16374 (Simulation time: 0 hr 0 min 31 sec) 
Heartbeat CPU  0 instructions:   14000001 cycles:   32662280 heartbeat IPC: 0.16354 cumulative IPC: 0.16369 (Simulation time: 0 hr 0 min 34 sec) 
Heartbeat CPU  0 instructions:   15000000 cycles:   38241224 heartbeat IPC: 0.17925 cumulative IPC: 0.16658 (Simulation time: 0 hr 0 min 38 sec) 
Heartbeat CPU  0 instructions:   16000000 cycles:   44447219 heartbeat IPC: 0.16113 cumulative IPC: 0.16565 (Simulation time: 0 hr 0 min 42 sec) 
Heartbeat CPU  0 instructions:   17000001 cycles:   49542075 heartbeat IPC: 0.19628 cumulative IPC: 0.16943 (Simulation time: 0 hr 0 min 45 sec) 
Heartbeat CPU  0 instructions:   18000001 cycles:   56123445 heartbeat IPC: 0.15194 cumulative IPC: 0.16702 (Simulation time: 0 hr 0 min 49 sec) 
Heartbeat CPU  0 instructions:   19000000 cycles:   62649977 heartbeat IPC: 0.15322 cumulative IPC: 0.16537 (Simulation time: 0 hr 0 min 52 sec) 
Heartbeat CPU  0 instructions:   20000000 cycles:   68623588 heartbeat IPC: 0.16740 cumulative IPC: 0.16557 (Simulation time: 0 hr 0 min 56 sec) 
Heartbeat CPU  0 instructions:   21000000 cycles:   73748923 heartbeat IPC: 0.19511 cumulative IPC: 0.16788 (Simulation time: 0 hr 1 min 0 sec) 
Heartbeat CPU  0 instructions:   22000002 cycles:   79671999 heartbeat IPC: 0.16883 cumulative IPC: 0.16796 (Simulation time: 0 hr 1 min 3 sec) 
Heartbeat CPU  0 instructions:   23000002 cycles:   85421086 heartbeat IPC: 0.17394 cumulative IPC: 0.16841 (Simulation time: 0 hr 1 min 7 sec) 
Heartbeat CPU  0 instructions:   24000000 cycles:   91408305 heartbeat IPC: 0.16702 cumulative IPC: 0.16831 (Simulation time: 0 hr 1 min 10 sec) 
Heartbeat CPU  0 instructions:   25000000 cycles:   97042926 heartbeat IPC: 0.17747 cumulative IPC: 0.16889 (Simulation time: 0 hr 1 min 14 sec) 
Heartbeat CPU  0 instructions:   26000001 cycles:  102780906 heartbeat IPC: 0.17428 cumulative IPC: 0.16921 (Simulation time: 0 hr 1 min 17 sec) 
Heartbeat CPU  0 instructions:   27000003 cycles:  108743399 heartbeat IPC: 0.16772 cumulative IPC: 0.16913 (Simulation time: 0 hr 1 min 21 sec) 
Heartbeat CPU  0 instructions:   28000000 cycles:  114636143 heartbeat IPC: 0.16970 cumulative IPC: 0.16916 (Simulation time: 0 hr 1 min 24 sec) 
Heartbeat CPU  0 instructions:   29000003 cycles:  119790647 heartbeat IPC: 0.19401 cumulative IPC: 0.17031 (Simulation time: 0 hr 1 min 28 sec) 
Heartbeat CPU  0 instructions:   30000002 cycles:  125964614 heartbeat IPC: 0.16197 cumulative IPC: 0.16987 (Simulation time: 0 hr 1 min 31 sec) 
Heartbeat CPU  0 instructions:   31000003 cycles:  131001082 heartbeat IPC: 0.19855 cumulative IPC: 0.17105 (Simulation time: 0 hr 1 min 35 sec) 
Heartbeat CPU  0 instructions:   32000000 cycles:  137151471 heartbeat IPC: 0.16259 cumulative IPC: 0.17064 (Simulation time: 0 hr 1 min 38 sec) 
Heartbeat CPU  0 instructions:   33000001 cycles:  142785495 heartbeat IPC: 0.17749 cumulative IPC: 0.17093 (Simulation time: 0 hr 1 min 42 sec) 
Heartbeat CPU  0 instructions:   34000000 cycles:  148689758 heartbeat IPC: 0.16937 cumulative IPC: 0.17086 (Simulation time: 0 hr 1 min 45 sec) 
Heartbeat CPU  0 instructions:   35000001 cycles:  154496292 heartbeat IPC: 0.17222 cumulative IPC: 0.17092 (Simulation time: 0 hr 1 min 49 sec) 
Heartbeat CPU  0 instructions:   36000000 cycles:  160288756 heartbeat IPC: 0.17264 cumulative IPC: 0.17098 (Simulation time: 0 hr 1 min 52 sec) 
Heartbeat CPU  0 instructions:   37000003 cycles:  165337585 heartbeat IPC: 0.19807 cumulative IPC: 0.17185 (Simulation time: 0 hr 1 min 56 sec) 
Heartbeat CPU  0 instructions:   38000003 cycles:  169039547 heartbeat IPC: 0.27013 cumulative IPC: 0.17412 (Simulation time: 0 hr 1 min 59 sec) 
Heartbeat CPU  0 instructions:   39000001 cycles:  172662294 heartbeat IPC: 0.27603 cumulative IPC: 0.17636 (Simulation time: 0 hr 2 min 2 sec) 
Heartbeat CPU  0 instructions:   40000000 cycles:  178648260 heartbeat IPC: 0.16706 cumulative IPC: 0.17603 (Simulation time: 0 hr 2 min 6 sec) 
Heartbeat CPU  0 instructions:   41000000 cycles:  184223648 heartbeat IPC: 0.17936 cumulative IPC: 0.17614 (Simulation time: 0 hr 2 min 10 sec) 
Heartbeat CPU  0 instructions:   42000003 cycles:  189882350 heartbeat IPC: 0.17672 cumulative IPC: 0.17616 (Simulation time: 0 hr 2 min 13 sec) 
Heartbeat CPU  0 instructions:   43000000 cycles:  194993659 heartbeat IPC: 0.19564 cumulative IPC: 0.17669 (Simulation time: 0 hr 2 min 16 sec) 
Heartbeat CPU  0 instructions:   44000000 cycles:  200920468 heartbeat IPC: 0.16872 cumulative IPC: 0.17645 (Simulation time: 0 hr 2 min 20 sec) 
Heartbeat CPU  0 instructions:   45000001 cycles:  206695179 heartbeat IPC: 0.17317 cumulative IPC: 0.17635 (Simulation time: 0 hr 2 min 24 sec) 
Heartbeat CPU  0 instructions:   46000003 cycles:  212528273 heartbeat IPC: 0.17144 cumulative IPC: 0.17621 (Simulation time: 0 hr 2 min 27 sec) 
Heartbeat CPU  0 instructions:   47000001 cycles:  218073671 heartbeat IPC: 0.18033 cumulative IPC: 0.17632 (Simulation time: 0 hr 2 min 31 sec) 
Heartbeat CPU  0 instructions:   48000000 cycles:  223508959 heartbeat IPC: 0.18398 cumulative IPC: 0.17651 (Simulation time: 0 hr 2 min 34 sec) 
Heartbeat CPU  0 instructions:   49000002 cycles:  229492147 heartbeat IPC: 0.16714 cumulative IPC: 0.17626 (Simulation time: 0 hr 2 min 38 sec) 
Heartbeat CPU  0 instructions:   50000001 cycles:  235229415 heartbeat IPC: 0.17430 cumulative IPC: 0.17621 (Simulation time: 0 hr 2 min 41 sec) 
Heartbeat CPU  0 instructions:   51000003 cycles:  240310306 heartbeat IPC: 0.19682 cumulative IPC: 0.17666 (Simulation time: 0 hr 2 min 45 sec) 
Heartbeat CPU  0 instructions:   52000000 cycles:  246139493 heartbeat IPC: 0.17155 cumulative IPC: 0.17654 (Simulation time: 0 hr 2 min 48 sec) 
Heartbeat CPU  0 instructions:   53000000 cycles:  251163847 heartbeat IPC: 0.19903 cumulative IPC: 0.17700 (Simulation time: 0 hr 2 min 52 sec) 
Heartbeat CPU  0 instructions:   54000000 cycles:  257097746 heartbeat IPC: 0.16852 cumulative IPC: 0.17680 (Simulation time: 0 hr 2 min 55 sec) 
Heartbeat CPU  0 instructions:   55000001 cycles:  262544992 heartbeat IPC: 0.18358 cumulative IPC: 0.17694 (Simulation time: 0 hr 2 min 59 sec) 
Heartbeat CPU  0 instructions:   56000000 cycles:  267987432 heartbeat IPC: 0.18374 cumulative IPC: 0.17709 (Simulation time: 0 hr 3 min 2 sec) 
Heartbeat CPU  0 instructions:   57000000 cycles:  273388078 heartbeat IPC: 0.18516 cumulative IPC: 0.17725 (Simulation time: 0 hr 3 min 6 sec) 
Heartbeat CPU  0 instructions:   58000000 cycles:  278177777 heartbeat IPC: 0.20878 cumulative IPC: 0.17781 (Simulation time: 0 hr 3 min 10 sec) 
Heartbeat CPU  0 instructions:   59000003 cycles:  283686238 heartbeat IPC: 0.18154 cumulative IPC: 0.17788 (Simulation time: 0 hr 3 min 13 sec) 
Heartbeat CPU  0 instructions:   60000000 cycles:  289136951 heartbeat IPC: 0.18346 cumulative IPC: 0.17799 (Simulation time: 0 hr 3 min 17 sec) 
Finished CPU 0 instructions: 50000000 cycles: 280910571 cumulative IPC: 0.17799 (Simulation time: 0 hr 3 min 17 sec) 

ChampSim completed all CPUs

[ROI Statistics]
Core_0_instructions 50000000
Core_0_cycles 280910571
Core_0_IPC 0.17799

Core_0_branch_prediction_accuracy 92.88023
Core_0_branch_MPKI 9.66558
Core_0_average_ROB_occupancy_at_mispredict 102.69272

Core_0_L1D_total_access 14939043
Core_0_L1D_total_hit 11034035
Core_0_L1D_total_miss 3905008
Core_0_L1D_loads 10812984
Core_0_L1D_load_hit 6934462
Core_0_L1D_load_miss 3878522
Core_0_L1D_RFOs 4126059
Core_0_L1D_RFO_hit 4099573
Core_0_L1D_RFO_miss 26486
Core_0_L1D_prefetches 0
Core_0_L1D_prefetch_hit 0
Core_0_L1D_prefetch_miss 0
Core_0_L1D_writebacks 0
Core_0_L1D_writeback_hit 0
Core_0_L1D_writeback_miss 0
Core_0_L1D_prefetch_requested 0
Core_0_L1D_prefetch_dropped 0
Core_0_L1D_prefetch_issued 0
Core_0_L1D_prefetch_filled 0
Core_0_L1D_prefetch_useful 0
Core_0_L1D_prefetch_useless 0
Core_0_L1D_prefetch_late 0
Core_0_L1D_average_miss_latency 193.13960

Core_0_L1D_rq_access 14895430
Core_0_L1D_rq_forward 0
Core_0_L1D_rq_merged 3935144
Core_0_L1D_rq_to_cache 10960286
Core_0_L1D_rq_full 0

Core_0_L1D_wq_access 4166785
Core_0_L1D_wq_forward 0
Core_0_L1D_wq_merged 12
Core_0_L1D_wq_to_cache 4166773
Core_0_L1D_wq_full 0

Core_0_L1D_pq_access 0
Core_0_L1D_pq_forward 0
Core_0_L1D_pq_merged 0
Core_0_L1D_pq_to_cache 0
Core_0_L1D_pq_full 0

Core_0_L1D_acc_epochs 215588
Core_0_L1D_acc_level_0 215588
Core_0_L1D_acc_level_1 0
Core_0_L1D_acc_level_2 0
Core_0_L1D_acc_level_3 0
Core_0_L1D_acc_level_4 0
Core_0_L1D_acc_level_5 0
Core_0_L1D_acc_level_6 0
Core_0_L1D_acc_level_7 0
Core_0_L1D_acc_level_8 0
Core_0_L1D_acc_level_9 0

Core_0_L1I_total_access 5271041
Core_0_L1I_total_hit 5271041
Core_0_L1I_total_miss 0
Core_0_L1I_loads 5271041
Core_0_L1I_load_hit 5271041
Core_0_L1I_load_miss 0
Core_0_L1I_RFOs 0
Core_0_L1I_RFO_hit 0
Core_0_L1I_RFO_miss 0
Core_0_L1I_prefetches 0
Core_0_L1I_prefetch_hit 0
Core_0_L1I_prefetch_miss 0
Core_0_L1I_writebacks 0
Core_0_L1I_writeback_hit 0
Core_0_L1I_writeback_miss 0
Core_0_L1I_prefetch_requested 0
Core_0_L1I_prefetch_dropped 0
Core_0_L1I_prefetch_issued 0
Core_0_L1I_prefetch_filled 0
Core_0_L1I_prefetch_useful 0
Core_0_L1I_prefetch_useless 0
Core_0_L1I_prefetch_late 0
Core_0_L1I_average_miss_latency -nan

Core_0_L1I_rq_access 49999986
Core_0_L1I_rq_forward 0
Core_0_L1I_rq_merged 44728945
Core_0_L1I_rq_to_cache 5271041
Core_0_L1I_rq_full 0

Core_0_L1I_wq_access 0
Core_0_L1I_wq_forward 0
Core_0_L1I_wq_merged 0
Core_0_L1I_wq_to_cache 0
Core_0_L1I_wq_full 0

Core_0_L1I_pq_access 0
Core_0_L1I_pq_forward 0
Core_0_L1I_pq_merged 0
Core_0_L1I_pq_to_cache 0
Core_0_L1I_pq_full 0

Core_0_L1I_acc_epochs 215588
Core_0_L1I_acc_level_0 215588
Core_0_L1I_acc_level_1 0
Core_0_L1I_acc_level_2 0
Core_0_L1I_acc_level_3 0
Core_0_L1I_acc_level_4 0
Core_0_L1I_acc_level_5 0
Core_0_L1I_acc_level_6 0
Core_0_L1I_acc_level_7 0
Core_0_L1I_acc_level_8 0
Core_0_L1I_acc_level_9 0

Core_0_L2C_total_access 9701590
Core_0_L2C_total_hit 3169062
Core_0_L2C_total_miss 6532528
Core_0_L2C_loads 3878522
Core_0_L2C_load_hit 386948
Core_0_L2C_load_miss 3491574
Core_0_L2C_RFOs 26486
Core_0_L2C_RFO_hit 81
Core_0_L2C_RFO_miss 26405
Core_0_L2C_prefetches 3821670
Core_0_L2C_prefetch_hit 807884
Core_0_L2C_prefetch_miss 3013786
Core_0_L2C_writebacks 1974912
Core_0_L2C_writeback_hit 1974149
Core_0_L2C_writeback_miss 763
Core_0_L2C_prefetch_requested 5865943
Core_0_L2C_prefetch_dropped 5774
Core_0_L2C_prefetch_issued 5860169
Core_0_L2C_prefetch_filled 3757238
Core_0_L2C_prefetch_useful 407030
Core_0_L2C_prefetch_useless 3348650
Core_0_L2C_prefetch_late 120756
Core_0_L2C_average_miss_latency 207.76794

Core_0_L2C_rq_access 3905008
Core_0_L2C_rq_forward 0
Core_0_L2C_rq_merged 0
Core_0_L2C_rq_to_cache 3905008
Core_0_L2C_rq_full 0

Core_0_L2C_wq_access 1974912
Core_0_L2C_wq_forward 0
Core_0_L2C_wq_merged 0
Core_0_L2C_wq_to_cache 1974912
Core_0_L2C_wq_full 0

Core_0_L2C_pq_access 5860169
Core_0_L2C_pq_forward 0
Core_0_L2C_pq_merged 596986
Core_0_L2C_pq_to_cache 5263183
Core_0_L2C_pq_full 0

Core_0_L2C_acc_epochs 215588
Core_0_L2C_acc_level_0 133019
Core_0_L2C_acc_level_1 56359
Core_0_L2C_acc_level_2 15532
Core_0_L2C_acc_level_3 4007
Core_0_L2C_acc_level_4 1750
Core_0_L2C_acc_level_5 2666
Core_0_L2C_acc_level_6 1029
Core_0_L2C_acc_level_7 408
Core_0_L2C_acc_level_8 198
Core_0_L2C_acc_level_9 620

Core_0_LLC_total_access 8492501
Core_0_LLC_total_hit 3561261
Core_0_LLC_total_miss 4931240
Core_0_LLC_loads 3372466
Core_0_LLC_load_hit 1435439
Core_0_LLC_load_miss 1937027
Core_0_LLC_RFOs 26405
Core_0_LLC_RFO_hit 21
Core_0_LLC_RFO_miss 26384
Core_0_LLC_prefetches 3132893
Core_0_LLC_prefetch_hit 798342
Core_0_LLC_prefetch_miss 2334551
Core_0_LLC_writebacks 1960737
Core_0_LLC_writeback_hit 1327459
Core_0_LLC_writeback_miss 633278
Core_0_LLC_prefetch_requested 0
Core_0_LLC_prefetch_dropped 0
Core_0_LLC_prefetch_issued 0
Core_0_LLC_prefetch_filled 2850258
Core_0_LLC_prefetch_useful 102549
Core_0_LLC_prefetch_useless 2741304
Core_0_LLC_prefetch_late 0
Core_0_LLC_average_miss_latency 229.41111

Core_0_LLC_rq_access 3398872
Core_0_LLC_rq_forward 0
Core_0_LLC_rq_merged 0
Core_0_LLC_rq_to_cache 3398871
Core_0_LLC_rq_full 0

Core_0_LLC_wq_access 1960737
Core_0_LLC_wq_forward 1
Core_0_LLC_wq_merged 0
Core_0_LLC_wq_to_cache 1960737
Core_0_LLC_wq_full 0

Core_0_LLC_pq_access 3877994
Core_0_LLC_pq_forward 0
Core_0_LLC_pq_merged 0
Core_0_LLC_pq_to_cache 3877994
Core_0_LLC_pq_full 0

Core_0_LLC_acc_epochs 282361
Core_0_LLC_acc_level_0 224649
Core_0_LLC_acc_level_1 37055
Core_0_LLC_acc_level_2 12148
Core_0_LLC_acc_level_3 3580
Core_0_LLC_acc_level_4 574
Core_0_LLC_acc_level_5 3212
Core_0_LLC_acc_level_6 262
Core_0_LLC_acc_level_7 201
Core_0_LLC_acc_level_8 59
Core_0_LLC_acc_level_9 621

Core_0_major_page_fault 0
Core_0_minor_page_fault 8863

scooby_st_lookup 4457304
scooby_st_hit 3112760
scooby_st_evict 1344480
scooby_st_insert 1344544
scooby_st_streaming 0

scooby_predict_called 4457304
scooby_predict_out_of_bounds 97209
scooby_predict_action_1 2885059
scooby_predict_issue_action_1 2881486
scooby_predict_hit_action_1 3573
scooby_predict_out_of_bounds_action_1 43479
scooby_predict_action_3 22667
scooby_predict_issue_action_3 22246
scooby_predict_hit_action_3 421
scooby_predict_out_of_bounds_action_3 1739
scooby_predict_action_4 22837
scooby_predict_issue_action_4 22525
scooby_predict_hit_action_4 312
scooby_predict_out_of_bounds_action_4 2276
scooby_predict_action_5 20845
scooby_predict_issue_action_5 20610
scooby_predict_hit_action_5 235
scooby_predict_out_of_bounds_action_5 2630
scooby_predict_action_10 15623
scooby_predict_issue_action_10 15430
scooby_predict_hit_action_10 193
scooby_predict_out_of_bounds_action_10 4541
scooby_predict_action_11 14637
scooby_predict_issue_action_11 14544
scooby_predict_hit_action_11 93
scooby_predict_out_of_bounds_action_11 4774
scooby_predict_action_12 13309
scooby_predict_issue_action_12 13172
scooby_predict_hit_action_12 137
scooby_predict_out_of_bounds_action_12 5114
scooby_predict_action_22 8707
scooby_predict_issue_action_22 8617
scooby_predict_hit_action_22 90
scooby_predict_out_of_bounds_action_22 7339
scooby_predict_action_23 8222
scooby_predict_issue_action_23 8165
scooby_predict_hit_action_23 57
scooby_predict_out_of_bounds_action_23 7617
scooby_predict_action_30 5339
scooby_predict_issue_action_30 5328
scooby_predict_hit_action_30 11
scooby_predict_out_of_bounds_action_30 8384
scooby_predict_action_32 4743
scooby_predict_issue_action_32 4734
scooby_predict_hit_action_32 9
scooby_predict_out_of_bounds_action_32 8626
scooby_predict_action_-1 17183
scooby_predict_issue_action_-1 16752
scooby_predict_hit_action_-1 431
scooby_predict_out_of_bounds_action_-1 73
scooby_predict_action_-3 16924
scooby_predict_issue_action_-3 16444
scooby_predict_hit_action_-3 480
scooby_predict_out_of_bounds_action_-3 197
scooby_predict_action_-6 16797
scooby_predict_issue_action_-6 16154
scooby_predict_hit_action_-6 643
scooby_predict_out_of_bounds_action_-6 420
scooby_predict_action_0 1287203
scooby_predict_issue_action_0 0
scooby_predict_hit_action_0 0
scooby_predict_out_of_bounds_action_0 0
scooby_predict_multi_deg_called 952730
scooby_predict_predicted 5865943
scooby_predict_multi_deg 2799736
scooby_predict_multi_deg_2 930304
scooby_predict_multi_deg_3 601326
scooby_predict_multi_deg_4 586308
scooby_predict_multi_deg_5 345784
scooby_predict_multi_deg_6 336014
scooby_predict_multi_deg_7 0
scooby_predict_multi_deg_8 0
scooby_predict_multi_deg_9 0
scooby_predict_multi_deg_10 0
scooby_predict_multi_deg_11 0
scooby_predict_multi_deg_12 0
scooby_predict_multi_deg_13 0
scooby_predict_multi_deg_14 0
scooby_predict_multi_deg_15 0
scooby_predict_multi_deg_16 0

scooby_selected_deg_1 2113477
scooby_selected_deg_2 320247
scooby_selected_deg_3 0
scooby_selected_deg_4 246143
scooby_selected_deg_5 0
scooby_selected_deg_6 386340
scooby_selected_deg_7 0
scooby_selected_deg_8 0
scooby_selected_deg_9 0
scooby_selected_deg_10 0
scooby_selected_deg_11 0
scooby_selected_deg_12 0
scooby_selected_deg_13 0
scooby_selected_deg_14 0
scooby_selected_deg_15 0
scooby_selected_deg_16 0

scooby_state_55a0b2944ee2|0|0 22099,11,17,28,99,16,11,19,14,20,11,24,11,10,11773,34163,
scooby_state_55a0b2944ee2|1|0 20783,23,18,24,81,24,20,17,15,22,22,10,26,13,11348,32446,
scooby_state_55a0b2944eca|0|0 20215,16,24,36,18,13,25,72,68,15,10,22,7,13,9625,30179,
scooby_state_55a0b2944ee2|2|0 17704,20,13,29,61,15,13,16,11,18,11,14,13,11,9581,27530,
scooby_state_55a0b2944eca|1|0 18160,9,15,20,19,17,22,53,66,15,8,12,7,9,8895,27327,
scooby_state_55a0b2944ee2|3|0 16843,16,9,18,72,23,15,8,10,18,20,19,16,21,9116,26224,
scooby_state_55a0b2944ee2|4|0 15952,15,10,16,51,16,13,13,12,18,17,14,12,4,8177,24340,
scooby_state_55a0b2944eca|2|0 15941,12,5,22,6,14,18,40,58,9,9,12,9,9,7675,23839,
scooby_state_55a0b2944eca|3|0 15668,8,15,33,9,11,12,40,56,11,8,24,4,15,7856,23770,
scooby_state_55a0b2944ee2|5|0 14378,14,8,9,55,17,19,15,10,7,14,14,20,14,7572,22166,
scooby_state_55a0b2944ee2|6|0 14425,16,14,17,38,15,11,14,17,16,13,15,15,10,7457,22093,
scooby_state_55a0b2944eca|4|0 14088,12,8,22,20,15,22,43,43,11,4,18,7,17,7046,21376,
scooby_state_55a0b2944ee2|8|0 13453,4,11,17,40,14,5,15,12,12,17,12,11,12,6703,20338,
scooby_state_55a0b2944ee2|7|0 13172,12,10,15,26,8,11,8,14,22,14,9,22,9,6712,20064,
scooby_state_55a0b2944eca|5|0 12700,9,11,26,14,10,10,35,42,8,7,15,5,7,6198,19097,
scooby_state_55a0b2944eca|7|0 12686,14,16,17,16,13,14,22,37,8,6,13,8,7,6001,18878,
scooby_state_55a0b2944eca|6|0 12423,8,12,11,11,17,13,23,31,8,8,7,8,5,6013,18598,
scooby_state_55a0b2944ee2|9|0 12101,13,9,17,37,7,18,11,11,10,8,14,5,5,6019,18285,
scooby_state_55a0b2944ee2|10|0 11388,12,6,10,32,10,8,19,6,11,10,9,5,6,5479,17011,
scooby_state_55a0b2944ee2|12|0 11557,10,11,7,27,10,12,10,8,11,10,13,8,10,5284,16988,
scooby_state_55a0b2944eca|9|0 10988,6,10,12,8,8,13,21,30,6,7,9,13,4,5147,16282,
scooby_state_55a0b2944eca|8|0 10866,7,13,15,9,6,9,18,25,7,5,6,8,11,5101,16106,
scooby_state_55a0b2944ee2|11|0 10701,5,6,15,36,13,8,11,12,9,9,9,9,10,5036,15889,
scooby_state_55a0b2944ee2|15|0 10904,13,8,9,25,4,16,7,14,14,10,15,14,6,4720,15779,
scooby_state_55a0b2944eca|10|0 10508,11,8,12,10,13,10,24,21,6,6,2,12,11,4741,15395,
scooby_state_55a0b2944ee2|13|0 10036,12,13,12,24,9,7,11,10,11,7,12,8,5,4579,14756,
scooby_state_55a0b2944eca|11|0 9962,10,5,17,7,5,6,20,26,5,6,13,3,6,4425,14516,
scooby_state_55a0b2944ee2|14|0 9960,13,5,8,16,12,6,9,6,9,10,9,10,10,4337,14420,
scooby_state_55a0b2944eca|13|0 9607,11,10,10,7,5,9,18,23,7,8,8,4,4,4209,13940,
scooby_state_55a0b2944eca|12|0 9410,7,9,10,5,13,11,19,20,11,6,10,6,8,4213,13758,
scooby_state_55a0b2944eca|14|0 9161,8,6,6,7,13,6,10,20,8,4,9,5,6,3812,13081,
scooby_state_55a0b2944ee2|18|0 9008,13,6,12,18,9,13,4,8,9,3,8,4,4,3687,12806,
scooby_state_55a0b2944eca|15|0 8777,12,8,11,5,5,7,8,15,8,9,8,5,4,3734,12616,
scooby_state_55a0b2944eca|16|0 8818,4,9,9,5,5,5,13,8,8,8,7,4,6,3603,12512,
scooby_state_55a0b2944ee2|16|0 8557,10,8,7,11,7,10,5,6,8,8,1,6,5,3501,12150,
scooby_state_55a0b2944ee2|17|0 8421,6,10,10,12,6,5,8,5,8,7,5,7,8,3395,11913,
scooby_state_55a0b2944ee2|20|0 8081,3,6,6,10,8,8,13,2,13,4,9,3,3,3345,11514,
scooby_state_55a0b2944eca|17|0 7893,7,8,12,3,14,9,11,17,4,6,2,10,7,3194,11197,
scooby_state_55a0b2944eca|19|0 7882,7,3,7,12,3,3,6,4,3,7,11,7,4,3210,11169,
scooby_state_55a0b2944ee2|19|0 7817,5,12,3,12,7,7,9,6,12,12,8,9,14,3192,11125,
scooby_state_55a0b2944eca|18|0 7703,3,5,5,11,9,8,10,12,3,3,8,4,10,3158,10952,
scooby_state_55a0b2944ee2|23|0 7617,6,6,7,8,6,5,6,4,6,7,8,11,10,3172,10879,
scooby_state_55a0b2944eca|20|0 7742,4,6,3,5,5,7,13,10,7,4,7,8,6,2969,10796,
scooby_state_55a0b2944ee2|24|0 7591,4,6,12,10,8,5,12,7,8,10,7,16,8,3085,10789,
scooby_state_55a0b2944eca|21|0 7670,10,5,11,6,6,8,6,11,8,5,6,11,3,3014,10780,
scooby_state_55a0b2944ee2|21|0 7600,3,8,8,8,7,8,13,11,8,6,4,8,6,3002,10700,
scooby_state_55a0b2944ee2|22|0 7266,6,9,6,7,3,6,9,5,1,3,5,5,8,2887,10226,
scooby_state_55a0b2944eca|22|0 7274,6,9,8,7,7,5,9,8,6,7,6,6,8,2793,10159,
scooby_state_55a0b2944eca|23|0 7248,5,7,3,10,7,5,7,8,0,3,5,8,5,2576,9897,
scooby_state_55a0b2944ee2|26|0 6665,6,7,5,8,7,9,5,7,8,6,3,7,0,2724,9467,
scooby_state_55a0b2944ee2|25|0 6744,10,4,10,5,4,4,5,6,7,3,9,7,6,2552,9376,
scooby_state_55a0b2944eca|24|0 6657,7,2,8,4,3,5,9,10,5,2,7,6,2,2529,9256,
scooby_state_55a0b2944ee2|29|0 6531,7,7,3,8,6,6,3,7,8,4,4,4,5,2509,9112,
scooby_state_55a0b2944eca|25|0 6429,6,5,7,8,5,9,5,7,7,7,3,5,4,2602,9109,
scooby_state_55a0b2944eca|26|0 6491,5,5,8,5,5,2,5,6,4,10,5,7,3,2500,9061,
scooby_state_55a0b2944eca|28|0 6494,5,5,8,3,6,3,4,2,4,2,1,2,6,2322,8867,
scooby_state_55a0b2944eca|30|0 6235,6,9,4,5,6,7,5,6,6,6,6,6,5,2230,8542,
scooby_state_55a0b2944ee2|30|0 6101,6,5,6,9,6,6,7,4,6,4,5,5,2,2312,8484,
scooby_state_55a0b2944ee2|28|0 6152,9,4,6,3,9,3,3,6,7,6,6,4,6,2248,8472,
scooby_state_55a0b2944ee2|27|0 6067,3,6,3,5,7,6,3,5,8,5,7,6,9,2305,8445,
scooby_state_55a0b2944eca|29|0 5920,4,6,4,3,8,3,5,10,5,2,4,3,6,2153,8136,
scooby_state_55a0b2944eca|27|0 5861,6,8,7,6,5,3,7,9,2,3,7,2,2,2207,8135,
scooby_state_55a0b2944ee2|31|0 5844,7,7,8,6,5,6,7,7,7,1,4,8,4,2101,8022,
scooby_state_55a0b2944ee2|32|0 5713,2,5,5,6,5,2,4,4,4,6,3,3,10,2216,7988,
scooby_state_55a0b2944ee2|35|0 5762,6,11,4,3,2,5,4,3,1,4,5,5,5,2034,7854,
scooby_state_55a0b2944ee2|33|0 5620,9,5,7,5,7,8,4,2,5,4,4,4,4,2092,7780,
scooby_state_55a0b2944eca|32|0 5663,6,3,4,3,6,6,4,8,7,4,4,2,1,2012,7733,
scooby_state_55a0b2944eca|31|0 5612,0,6,4,3,9,3,5,4,2,1,6,3,5,1955,7618,
scooby_state_55a0b2944eca|33|0 5581,3,3,3,7,5,3,4,10,2,3,2,7,11,1939,7583,
scooby_state_55a0b2944ee2|38|0 5475,5,4,2,4,2,4,3,7,10,5,7,8,6,1909,7451,
scooby_state_55a0b2944ee2|34|0 5316,6,4,5,5,5,2,9,1,4,3,4,6,0,1992,7362,
scooby_state_55a0b2944eca|35|0 5376,4,10,6,6,4,7,1,5,1,2,3,3,4,1879,7311,
scooby_state_55a0b2944eca|38|0 5329,6,8,1,1,2,3,5,3,4,2,6,5,3,1867,7245,
scooby_state_55a0b2944eca|34|0 5316,5,4,9,6,5,1,4,4,2,5,4,3,5,1807,7180,
scooby_state_55a0b2944ee2|36|0 5036,12,10,3,5,3,2,7,3,6,4,3,5,4,1890,6993,
scooby_state_55a0b2944ee2|37|0 5024,10,4,4,3,4,4,5,2,3,1,5,2,6,1807,6884,
scooby_state_55a0b2944ee2|40|0 4899,7,6,2,6,2,4,2,6,3,2,7,1,1,1819,6767,
scooby_state_55a0b2944ee2|43|0 4873,5,6,4,6,11,4,0,3,1,1,5,9,2,1701,6631,
scooby_state_55a0b2944eca|36|0 4877,4,2,3,5,4,3,3,3,2,2,1,4,4,1676,6593,
scooby_state_55a0b2944ee2|41|0 4703,6,8,5,5,3,4,3,3,4,7,3,2,2,1764,6522,
scooby_state_55a0b2944eca|39|0 4839,3,1,4,2,6,0,7,2,4,2,3,7,6,1594,6480,
scooby_state_55a0b2944ee2|39|0 4636,4,6,6,7,6,5,10,5,2,6,6,8,2,1697,6406,
scooby_state_55a0b2944ee2|42|0 4611,3,3,7,2,5,6,3,2,6,4,7,3,5,1719,6386,
scooby_state_55a0b2944eca|41|0 4779,1,5,4,2,8,2,2,4,1,4,1,4,4,1553,6374,
scooby_state_55a0b2944eca|44|0 4761,7,4,1,2,3,6,2,3,0,2,2,3,6,1559,6361,
scooby_state_55a0b2944eca|37|0 4656,0,5,4,2,8,7,5,2,0,2,8,6,2,1613,6320,
scooby_state_55a0b2944eca|42|0 4645,4,3,1,6,6,1,4,4,4,3,4,5,2,1525,6217,
scooby_state_55a0b2944eca|40|0 4613,5,9,0,5,4,3,4,1,4,2,3,3,3,1549,6208,
scooby_state_55a0b2944eca|47|0 4635,2,4,7,2,1,4,3,1,3,3,5,3,2,1480,6155,
scooby_state_55a0b2944ee2|55|0 4286,4,6,2,2,5,4,1,3,2,1,6,5,2,1589,5918,
scooby_state_55a0b2944eca|43|0 4419,6,4,2,3,1,1,3,3,5,3,3,3,1,1430,5887,
scooby_state_55a0b2944ee2|52|0 4282,4,4,3,3,1,5,2,4,7,3,5,5,3,1547,5878,
scooby_state_55a0b2944ee2|49|0 4327,4,1,2,4,4,2,2,6,3,3,3,1,4,1439,5805,
scooby_state_55a0b2944ee2|45|0 4245,4,1,6,5,3,6,0,2,4,2,4,2,4,1412,5700,
scooby_state_55a0b2944ee2|46|0 4150,3,4,4,1,4,5,1,2,1,4,3,6,0,1418,5606,
scooby_state_55a0b2944ee2|44|0 4056,4,2,8,2,3,4,3,6,5,4,2,3,2,1472,5576,
scooby_state_55a0b2944eca|52|0 4231,3,6,1,2,5,3,5,4,2,1,8,3,4,1287,5565,
scooby_state_55a0b2944ee2|47|0 4031,5,6,3,7,5,2,4,3,3,4,0,2,4,1445,5524,
scooby_state_55a0b2944eca|46|0 4138,3,1,4,2,5,1,3,4,3,2,1,3,1,1335,5506,
scooby_state_55a0b2944eca|45|0 4118,2,5,3,5,3,2,4,1,2,2,3,2,5,1282,5439,
scooby_state_55a0b2944eca|54|0 4018,4,1,1,5,4,2,3,2,0,3,5,5,1,1331,5385,
scooby_state_55a0b2944eca|48|0 4019,2,6,3,2,3,1,2,4,2,3,1,4,3,1235,5290,
scooby_state_55a0b2944ee2|48|0 3844,6,4,2,3,4,3,3,3,5,2,1,4,3,1394,5281,
scooby_state_55a0b2944ee2|50|0 3871,2,5,3,3,1,7,4,0,1,6,0,4,1,1320,5228,
scooby_state_55a0b2944eca|56|0 3965,0,1,2,4,2,7,4,3,3,1,7,2,4,1213,5218,
scooby_state_55a0b2944eca|49|0 3919,1,2,3,2,5,3,1,3,3,2,3,1,2,1255,5205,
scooby_state_55a0b2944ee2|53|0 3782,7,6,1,2,2,5,5,2,3,2,3,1,2,1337,5160,
scooby_state_55a0b2944eca|57|0 3840,4,3,6,8,3,2,0,3,4,2,4,7,4,1251,5141,
scooby_state_55a0b2944eca|50|0 3880,7,3,3,3,4,3,3,3,1,2,2,4,3,1192,5113,
scooby_state_55a0b2944ee2|57|0 3647,5,5,4,6,1,3,1,1,4,1,7,5,2,1323,5015,
scooby_state_55a0b2944eca|51|0 3745,0,2,2,4,3,1,0,7,2,1,3,0,3,1158,4931,
scooby_state_55a0b2944ee2|51|0 3563,5,0,2,7,1,5,4,2,2,0,3,2,3,1324,4923,
scooby_state_55a0b2944ee2|61|0 3527,6,3,1,6,2,2,1,2,2,1,4,2,0,1325,4884,
scooby_state_55a0b2944eca|61|0 3612,1,3,2,3,3,3,1,4,4,3,5,2,1,1095,4742,
scooby_state_55a0b2944eca|53|0 3586,2,7,2,5,4,2,1,1,1,1,2,4,4,1111,4733,
scooby_state_55a0b2944ee2|56|0 3406,4,4,3,5,1,4,5,3,1,1,2,2,3,1205,4649,
scooby_state_55a0b2944eca|55|0 3531,3,1,2,0,1,4,3,1,5,2,1,2,1,1073,4630,
scooby_state_55a0b2944ee2|59|0 3473,2,4,2,2,3,1,4,3,2,2,1,2,1,1107,4609,
scooby_state_55a0b2944ee2|54|0 3304,2,3,3,6,2,3,1,4,2,2,3,5,2,1234,4576,
scooby_state_55a0b2944eca|58|0 3454,3,5,3,4,3,3,3,0,1,8,3,4,2,1041,4537,
scooby_state_55a0b2944ee2|62|0 3357,1,4,6,1,1,1,4,2,1,2,5,3,3,1115,4506,
scooby_state_55a0b2944eca|59|0 3308,2,2,0,2,1,3,2,2,2,4,0,2,5,1133,4468,
scooby_state_55a0b2944ee2|58|0 3269,3,5,3,2,4,2,5,3,2,2,4,2,2,1158,4466,
scooby_state_55a0b2944ee2|53|1 2892,15,10,7,7,3,6,3,3,3,7,2,5,4,1460,4427,
scooby_state_55a0b2944ee2|60|0 3272,3,2,2,3,3,3,1,2,3,1,0,4,2,1109,4410,
scooby_state_55a0b2944ee2|63|0 3208,3,1,4,2,7,5,2,1,6,2,2,0,3,1049,4295,
scooby_state_55a0b2944eca|62|0 3290,0,4,5,1,3,1,6,0,0,4,1,1,3,964,4283,
scooby_state_55a0b2944eca|63|0 3257,4,0,0,2,2,4,4,3,2,2,4,3,2,985,4274,
scooby_state_55a0b2944ee2|39|1 2860,17,16,12,5,4,9,7,4,2,8,1,5,5,1305,4260,
scooby_state_55a0b2944eca|60|0 3181,2,2,2,1,3,3,0,2,0,6,2,1,1,1020,4226,
scooby_state_55a0b2944ee2|24|1 2909,10,8,8,6,5,4,8,2,2,5,4,4,7,1197,4179,
scooby_state_55a0b2944ee2|15|1 2840,15,6,8,2,7,8,6,7,6,3,3,4,1,1208,4124,
scooby_state_55a0b2944ee2|16|1 2932,9,7,14,5,7,3,5,7,0,6,1,8,2,1103,4109,
scooby_state_55a0b2944ee2|18|1 2892,18,15,8,1,4,3,7,6,9,2,1,2,6,1053,4027,
scooby_state_55a0b2944ee2|43|1 2667,16,7,9,6,4,4,8,5,4,4,6,5,3,1249,3997,
scooby_state_55a0b2944ee2|38|1 2688,9,15,10,9,10,2,5,2,2,3,4,6,4,1209,3978,
scooby_state_55a0b2944ee2|57|1 2580,10,11,6,8,5,9,8,9,5,1,5,4,8,1288,3957,
scooby_state_55a0b2944ee2|30|1 2675,12,8,7,13,4,8,3,5,1,4,5,4,4,1173,3926,
scooby_state_55a0b2944ee2|52|1 2589,10,8,10,12,3,4,7,6,3,3,6,3,6,1247,3917,
scooby_state_55a0b2944ee2|35|1 2684,7,10,6,9,4,6,5,3,2,2,1,8,3,1167,3917,
scooby_state_55a0b2944ee2|50|1 2509,17,10,8,11,5,3,4,5,3,5,6,3,4,1287,3880,
scooby_state_55a0b2944ee2|11|1 2620,11,11,13,7,8,7,4,6,1,3,3,2,3,1179,3878,
scooby_state_55a0b2944ee2|47|1 2633,10,14,6,5,7,7,7,7,6,6,5,3,4,1156,3876,
scooby_state_55a0b2944ee2|63|1 2607,14,11,9,6,5,7,4,8,7,3,0,6,3,1177,3867,
scooby_state_55a0b2944ee2|10|1 2627,17,10,12,3,8,7,5,5,5,2,1,0,4,1155,3861,
scooby_state_55a0b2944ee2|31|1 2664,9,10,7,10,5,4,4,7,4,4,9,4,3,1114,3858,
scooby_state_55a0b2944ee2|36|1 2656,13,10,11,4,8,5,6,5,6,3,5,3,2,1100,3837,
scooby_state_55a0b2944ee2|61|1 2496,7,12,5,11,7,4,9,3,3,3,5,3,1,1257,3826,
scooby_state_55a0b2944ee2|56|1 2520,13,11,3,10,2,5,6,2,5,5,10,4,7,1212,3815,
scooby_state_55a0b2944ee2|42|1 2569,14,7,7,7,14,8,6,4,4,2,5,4,4,1151,3806,
scooby_state_55a0b2944ee2|7|1 2568,13,7,5,8,6,3,3,3,4,3,6,6,4,1165,3804,
scooby_state_55a0b2944ee2|37|1 2574,13,9,6,4,4,6,4,8,2,4,6,7,7,1141,3795,
scooby_state_55a0b2944ee2|32|1 2645,9,5,6,9,8,8,5,6,2,4,8,2,2,1066,3785,
scooby_state_55a0b2944ee2|21|1 2682,13,5,10,6,9,4,7,2,4,4,1,3,4,1027,3781,
scooby_state_55a0b2944ee2|28|1 2629,9,15,13,4,5,8,5,6,4,4,2,4,3,1066,3777,
scooby_state_55a0b2944ee2|27|1 2652,12,9,9,3,5,6,3,7,8,6,5,4,4,1040,3773,
scooby_state_55a0b2944ee2|44|1 2485,8,6,12,6,4,4,8,7,5,6,8,6,1,1179,3745,
scooby_state_55a0b2944ee2|51|1 2445,18,12,7,8,5,5,10,1,5,4,6,3,6,1191,3726,
scooby_state_55a0b2944ee2|34|1 2626,18,6,4,5,2,4,3,4,1,3,1,2,1,1034,3714,
scooby_state_55a0b2944ee2|17|1 2657,17,10,0,8,4,5,7,3,4,3,3,2,8,981,3712,
scooby_state_55a0b2944ee2|13|1 2559,10,9,9,11,2,5,2,4,4,6,3,9,2,1069,3704,
scooby_state_55a0b2944ee2|40|1 2456,7,13,8,3,14,5,4,3,3,0,5,6,10,1144,3681,
scooby_state_55a0b2944ee2|62|1 2447,11,15,13,8,12,3,4,5,0,7,4,2,1,1146,3678,
scooby_state_55a0b2944ee2|20|1 2678,12,6,7,5,5,4,2,6,3,4,1,3,3,929,3668,
scooby_state_55a0b2944ee2|59|1 2470,13,10,8,7,7,7,5,5,2,3,3,2,3,1116,3661,
scooby_state_55a0b2944ee2|48|1 2456,11,11,6,5,6,3,5,7,5,8,4,5,3,1124,3659,
scooby_state_55a0b2944ee2|2|1 2502,15,8,7,6,5,3,5,9,7,2,8,4,3,1069,3653,
scooby_state_55a0b2944ee2|1|1 2464,11,15,7,5,8,2,7,6,4,1,3,2,2,1099,3636,
scooby_state_55a0b2944ee2|5|1 2528,12,9,7,6,6,9,5,4,2,5,3,6,4,1016,3622,
scooby_state_55a0b2944ee2|46|1 2451,14,13,7,3,7,9,5,6,2,2,4,4,8,1082,3617,
scooby_state_55a0b2944ee2|19|1 2574,14,8,3,5,4,10,5,0,4,2,2,1,4,980,3616,
scooby_state_55a0b2944ee2|58|1 2389,14,12,7,7,6,3,2,6,2,3,4,5,4,1142,3606,
scooby_state_55a0b2944ee2|60|1 2427,9,10,4,6,12,6,3,1,5,3,6,3,3,1102,3600,
scooby_state_55a0b2944ee2|8|1 2493,4,12,7,7,7,2,3,5,2,5,4,3,4,1038,3596,
scooby_state_55a0b2944ee2|22|1 2567,10,7,12,4,4,6,7,2,5,2,2,1,4,954,3587,
scooby_state_55a0b2944ee2|29|1 2524,10,5,4,6,6,5,7,7,1,4,4,3,3,993,3582,
scooby_state_55a0b2944ee2|6|1 2489,15,8,3,4,4,4,2,4,4,4,6,7,7,1019,3580,
scooby_state_55a0b2944eca|21|1 2424,15,10,7,7,9,6,3,3,3,2,3,2,2,1080,3576,
scooby_state_55a0b2944ee2|12|1 2506,8,6,13,5,11,6,2,1,2,4,3,4,4,994,3569,
scooby_state_55a0b2944ee2|33|1 2518,15,15,5,9,2,5,2,5,2,4,2,3,3,978,3568,
scooby_state_55a0b2944ee2|25|1 2569,13,6,7,7,4,4,7,3,1,1,4,0,6,925,3557,
scooby_state_55a0b2944ee2|55|1 2390,10,12,9,10,6,11,4,2,2,4,5,3,3,1083,3554,
scooby_state_55a0b2944eca|23|1 2443,13,14,7,6,9,2,2,6,1,3,6,6,5,1024,3547,
scooby_state_55a0b2944ee2|41|1 2439,14,8,5,2,7,7,6,3,4,2,3,6,2,1037,3545,
scooby_state_55a0b2944ee2|54|1 2386,12,12,7,6,7,5,3,4,3,4,5,4,5,1079,3542,
scooby_state_55a0b2944ee2|49|1 2300,13,5,8,3,5,3,9,4,6,6,5,9,7,1142,3525,
scooby_state_55a0b2944ee2|23|1 2533,6,6,5,6,2,5,6,1,4,7,3,3,3,919,3509,
scooby_state_55a0b2944ee2|4|1 2492,9,15,13,2,3,6,0,4,4,2,5,8,3,938,3504,
scooby_state_55a0b2944ee2|14|1 2445,13,10,4,3,8,6,2,6,3,4,8,4,3,980,3499,
scooby_state_55a0b2944ee2|26|1 2466,9,6,11,5,5,6,5,2,6,3,3,2,4,941,3474,
scooby_state_55a0b2944eca|54|1 2437,11,8,8,4,7,3,2,0,3,4,4,2,0,919,3412,
scooby_state_55a0b2944eca|39|1 2368,10,6,10,4,5,6,2,9,3,5,7,5,3,956,3399,
scooby_state_55a0b2944ee2|3|1 2408,14,11,10,5,4,4,2,2,1,4,9,4,2,915,3395,
scooby_state_55a0b2944ee2|9|1 2380,6,7,5,9,3,5,1,5,2,1,9,0,3,954,3390,
scooby_state_55a0b2944eca|24|1 2290,7,9,6,6,7,9,1,4,2,2,4,3,3,1000,3353,
scooby_state_55a0b2944eca|36|1 2233,5,3,8,12,13,3,2,4,2,4,2,5,4,1046,3346,
scooby_state_55a0b2944ee2|45|1 2276,10,5,6,5,7,7,5,3,5,5,4,7,2,992,3339,
scooby_state_55a0b2944eca|42|1 2308,7,5,9,5,4,2,4,4,0,3,6,7,3,953,3320,
scooby_state_55a0b2944eca|56|1 2338,13,8,10,10,6,5,3,7,1,5,2,1,3,905,3317,
scooby_state_55a0b2944ee2|55|2 2011,18,10,10,6,7,7,6,4,7,5,4,2,8,1201,3306,
scooby_state_55a0b2944eca|44|1 2316,10,11,1,5,4,1,0,2,3,2,2,0,2,941,3300,
scooby_state_55a0b2944eca|38|1 2218,5,6,11,11,8,9,7,3,1,1,3,2,3,999,3287,
scooby_state_55a0b2944eca|55|1 2321,11,4,6,7,7,4,4,6,2,3,2,4,3,897,3281,
scooby_state_55a0b2944eca|16|1 2278,11,6,5,8,7,6,2,8,6,2,7,9,2,912,3269,
scooby_state_55a0b2944eca|53|1 2289,12,8,8,6,3,8,2,2,4,4,3,4,3,909,3265,
scooby_state_55a0b2944ee2|20|2 2226,10,4,12,8,5,9,7,2,2,5,2,7,5,941,3245,
scooby_state_55a0b2944eca|48|1 2321,4,7,6,7,9,9,2,3,3,2,1,3,4,859,3240,
scooby_state_55a0b2944eca|52|1 2349,7,8,7,3,8,2,2,2,4,2,3,3,1,831,3232,
scooby_state_55a0b2944ee2|61|2 2030,13,10,10,11,11,8,5,6,3,7,6,2,3,1104,3229,
scooby_state_55a0b2944eca|57|1 2273,11,5,8,6,3,8,3,7,3,2,1,4,3,891,3228,
scooby_state_55a0b2944eca|14|1 2282,12,8,7,4,8,7,2,2,3,3,4,3,3,873,3221,
scooby_state_55a0b2944eca|20|1 2261,14,6,10,4,9,2,1,4,0,4,3,3,1,861,3183,
scooby_state_55a0b2944ee2|40|2 2025,10,3,7,5,6,1,7,6,5,7,4,3,4,1089,3182,
scooby_state_55a0b2944eca|13|1 2273,14,10,2,6,2,2,4,4,1,3,1,1,3,845,3171,
scooby_state_55a0b2944eca|30|1 2192,10,7,10,6,6,6,7,5,2,2,3,2,5,896,3159,
scooby_state_55a0b2944eca|33|1 2184,5,5,11,5,11,6,6,5,1,1,1,2,2,912,3157,
scooby_state_55a0b2944ee2|57|2 1913,18,13,9,7,9,3,4,6,5,3,6,2,1,1151,3150,
scooby_state_55a0b2944eca|62|1 2282,8,9,7,3,6,5,3,2,0,1,3,4,3,811,3147,
scooby_state_55a0b2944eca|25|1 2161,10,8,6,3,8,9,5,4,3,4,3,1,4,912,3141,
scooby_state_55a0b2944eca|61|1 2258,3,7,3,3,4,3,5,1,3,2,1,2,4,835,3134,
scooby_state_55a0b2944ee2|26|2 2059,10,4,12,14,7,7,5,3,3,3,6,7,4,979,3123,
scooby_state_55a0b2944eca|47|1 2146,9,6,9,2,3,3,2,1,1,1,1,4,5,924,3117,
scooby_state_55a0b2944eca|35|1 2093,11,9,10,7,6,8,3,9,1,2,4,1,2,948,3114,
scooby_state_55a0b2944ee2|59|2 1910,13,4,16,4,6,10,5,7,3,5,7,2,5,1108,3105,
scooby_state_55a0b2944eca|43|1 2178,6,3,5,5,7,5,3,5,4,1,5,4,3,866,3100,
scooby_state_55a0b2944eca|8|1 2262,9,10,8,4,3,1,6,6,0,5,4,2,1,771,3092,
scooby_state_55a0b2944eca|3|1 2224,7,4,3,7,5,7,2,4,2,2,4,6,3,811,3091,
scooby_state_55a0b2944ee2|14|2 1990,12,9,8,7,2,4,7,3,8,0,5,9,2,1023,3089,
scooby_state_55a0b2944eca|22|1 2147,15,7,7,10,4,5,3,0,0,2,4,1,2,880,3087,
scooby_state_55a0b2944eca|26|1 2125,14,6,9,8,9,5,4,3,4,3,1,6,4,885,3086,
scooby_state_55a0b2944eca|37|1 2078,12,9,10,7,7,4,6,7,2,4,5,2,1,931,3085,
scooby_state_55a0b2944eca|15|1 2117,6,5,6,9,4,3,5,5,2,3,2,4,5,909,3085,
scooby_state_55a0b2944eca|51|1 2193,10,8,4,6,7,2,5,3,1,0,2,4,5,825,3075,
scooby_state_55a0b2944eca|29|1 2106,14,5,5,6,7,4,4,2,4,6,4,4,1,898,3070,
scooby_state_55a0b2944eca|27|1 2138,15,7,10,8,7,4,2,4,4,5,6,5,3,847,3065,
scooby_state_55a0b2944ee2|38|2 1973,10,10,12,6,3,5,3,4,3,5,5,8,4,1012,3063,
scooby_state_55a0b2944ee2|43|2 1921,10,6,13,9,5,5,7,5,2,3,6,7,2,1058,3059,
scooby_state_55a0b2944eca|31|1 2133,14,8,8,6,4,11,3,2,3,7,3,1,2,849,3054,
scooby_state_55a0b2944ee2|54|2 1851,8,13,11,10,5,5,3,6,3,2,6,3,5,1121,3052,
scooby_state_55a0b2944eca|32|1 2117,3,6,6,6,4,5,7,6,0,3,3,4,2,875,3047,
scooby_state_55a0b2944eca|41|1 2096,7,7,3,7,5,6,1,4,4,4,2,5,3,890,3044,
scooby_state_55a0b2944eca|34|1 2061,17,13,9,3,11,5,3,7,1,2,2,5,6,889,3034,
scooby_state_55a0b2944ee2|39|2 1891,10,9,5,3,6,4,8,3,3,5,6,3,2,1071,3029,
scooby_state_55a0b2944eca|40|1 2126,16,6,8,6,4,5,3,4,2,1,5,0,3,838,3027,
scooby_state_55a0b2944eca|4|1 2199,9,6,11,0,9,2,0,3,6,4,3,0,1,771,3024,
scooby_state_55a0b2944eca|63|1 2206,12,5,9,2,8,7,3,3,4,3,3,4,2,750,3021,
scooby_state_55a0b2944ee2|13|2 1935,4,6,7,9,6,7,6,2,3,1,7,3,6,1018,3020,
scooby_state_55a0b2944ee2|24|2 1981,9,8,7,8,10,6,3,4,1,4,3,4,1,970,3019,
scooby_state_55a0b2944eca|7|1 2213,5,2,8,3,6,3,4,2,1,4,2,4,3,757,3017,
scooby_state_55a0b2944eca|17|1 2138,7,7,5,10,3,1,1,1,2,3,4,3,3,814,3002,
scooby_state_55a0b2944eca|1|1 2229,10,4,4,2,6,2,2,6,1,1,3,1,0,731,3002,
scooby_state_55a0b2944eca|19|1 2119,9,8,8,7,5,7,4,4,0,2,4,1,4,818,3000,
scooby_state_55a0b2944eca|18|1 2146,5,6,8,3,10,6,2,3,2,2,0,1,1,802,2997,
scooby_state_55a0b2944ee2|50|2 1828,14,9,13,7,4,4,2,3,7,5,6,3,1,1089,2995,
scooby_state_55a0b2944ee2|35|2 1940,11,4,8,11,8,4,6,2,3,4,3,3,7,980,2994,
scooby_state_55a0b2944ee2|37|2 1966,7,9,5,6,4,3,5,1,3,2,1,4,4,968,2988,
scooby_state_55a0b2944eca|2|1 2166,6,3,5,5,6,10,2,2,2,3,3,4,2,761,2980,
scooby_state_55a0b2944eca|10|1 2160,9,6,6,4,7,5,3,2,7,2,2,3,2,762,2980,
scooby_state_55a0b2944eca|12|1 2142,14,7,5,7,2,6,4,4,1,3,3,0,4,775,2977,
scooby_state_55a0b2944eca|28|1 2059,12,6,8,5,7,6,3,1,3,2,0,5,4,853,2974,
scooby_state_55a0b2944ee2|42|2 1907,9,4,10,9,4,7,7,5,1,3,3,3,3,985,2960,
scooby_state_55a0b2944ee2|52|2 1784,13,15,8,11,2,5,3,2,2,4,4,5,8,1091,2957,
scooby_state_55a0b2944ee2|4|2 1886,8,7,10,9,4,7,7,2,5,4,4,4,7,990,2954,
scooby_state_55a0b2944ee2|30|2 1939,4,8,8,10,3,6,6,1,3,2,2,5,2,954,2953,
scooby_state_55a0b2944eca|60|1 2066,6,2,7,5,4,5,2,3,2,5,1,4,1,838,2951,
scooby_state_55a0b2944eca|49|1 2079,15,6,6,9,8,3,4,3,1,5,1,3,2,805,2950,
scooby_state_55a0b2944eca|46|1 2042,14,6,11,4,9,6,2,4,5,2,1,2,3,836,2947,
scooby_state_55a0b2944ee2|23|2 1954,12,7,2,5,5,9,2,4,3,1,5,5,5,928,2947,
scooby_state_55a0b2944eca|5|1 2153,7,4,7,2,4,2,5,4,3,4,2,1,4,737,2939,
scooby_state_55a0b2944ee2|31|2 1890,13,7,8,9,4,6,7,5,0,4,7,2,6,971,2939,
scooby_state_55a0b2944ee2|33|2 1892,12,10,9,8,6,3,5,6,5,2,3,7,1,964,2933,
scooby_state_55a0b2944eca|50|1 2119,9,6,2,5,2,5,4,6,2,1,1,1,1,763,2927,
scooby_state_55a0b2944ee2|22|2 2019,12,9,6,3,6,5,5,1,5,2,3,1,3,842,2922,
scooby_state_55a0b2944ee2|3|2 1904,7,6,6,11,5,2,5,3,0,2,5,7,3,954,2920,
scooby_state_55a0b2944eca|9|1 2108,6,7,8,2,6,4,2,4,0,4,4,2,2,756,2915,
scooby_state_55a0b2944ee2|34|2 1876,7,7,11,3,13,5,5,2,1,4,5,2,8,959,2908,
scooby_state_55a0b2944ee2|46|2 1869,10,9,16,10,5,8,5,4,2,1,8,4,1,950,2902,
scooby_state_55a0b2944ee2|17|2 1951,2,5,12,4,8,4,4,2,7,6,3,5,2,884,2899,
scooby_state_55a0b2944eca|58|1 2075,6,5,8,4,5,4,1,5,2,2,3,8,2,755,2885,
scooby_state_55a0b2944ee2|41|2 1865,13,6,9,10,5,8,3,3,4,2,4,2,2,946,2882,
scooby_state_55a0b2944ee2|49|2 1819,13,11,11,17,11,3,7,1,5,3,8,3,3,966,2881,
scooby_state_55a0b2944ee2|63|2 1801,7,8,6,2,10,7,3,4,6,4,8,3,3,1001,2873,
scooby_state_55a0b2944eca|45|1 2004,10,11,8,5,1,5,3,3,2,3,3,1,1,812,2872,
scooby_state_55a0b2944ee2|12|2 1908,5,8,8,4,1,3,2,4,3,1,3,3,3,913,2869,
scooby_state_55a0b2944ee2|29|2 1858,10,7,11,6,8,6,4,7,5,3,7,2,5,930,2869,
scooby_state_55a0b2944eca|11|1 2062,14,6,6,3,6,5,5,2,1,2,1,2,3,746,2864,
scooby_state_55a0b2944ee2|15|2 1915,11,8,11,5,4,5,4,2,3,3,4,5,2,867,2849,
scooby_state_55a0b2944ee2|53|2 1716,11,11,10,12,6,6,5,6,3,1,5,5,4,1046,2847,
scooby_state_55a0b2944ee2|28|2 1886,6,9,8,5,3,4,3,4,1,1,6,1,5,902,2844,
scooby_state_55a0b2944eca|59|1 2010,9,2,6,5,5,1,2,2,2,3,6,3,2,781,2839,
scooby_state_55a0b2944ee2|8|2 1846,4,5,6,4,4,3,8,4,3,1,3,3,0,932,2826,
scooby_state_55a0b2944ee2|62|2 1727,17,6,14,9,6,2,3,4,5,1,7,6,4,1011,2822,
scooby_state_55a0b2944ee2|25|2 1906,8,9,5,5,6,5,8,3,3,1,3,7,7,840,2816,
scooby_state_55a0b2944ee2|9|2 1810,8,6,8,8,7,4,4,8,1,6,6,2,6,922,2806,
scooby_state_55a0b2944eca|56|2 1832,8,9,5,7,4,8,7,1,2,2,6,5,5,900,2801,
scooby_state_55a0b2944ee2|45|2 1790,6,6,12,8,4,3,5,5,2,1,5,2,2,947,2798,
scooby_state_55a0b2944ee2|6|2 1832,6,4,11,7,5,3,7,4,4,3,4,3,7,893,2793,
scooby_state_55a0b2944eca|6|1 2007,11,7,7,4,5,5,2,1,4,4,5,2,4,719,2787,
scooby_state_55a0b2944ee2|32|2 1777,4,4,8,8,2,5,5,4,4,1,3,10,2,943,2780,
scooby_state_55a0b2944ee2|47|2 1749,9,8,9,8,9,5,2,1,2,4,4,4,0,966,2780,
scooby_state_55a0b2944ee2|48|2 1715,16,5,11,6,4,4,4,5,4,5,6,5,2,979,2771,
scooby_state_55a0b2944ee2|5|2 1801,5,5,7,11,9,5,2,2,1,1,3,2,3,907,2764,
scooby_state_55a0b2944ee2|2|2 1848,5,6,5,8,2,4,2,3,3,2,3,3,3,866,2763,
scooby_state_55a0b2944ee2|38|3 2390,8,15,16,10,7,7,6,3,4,4,8,1,4,277,2760,
scooby_state_55a0b2944ee2|18|2 1876,7,5,4,3,6,5,6,3,6,4,1,2,1,819,2748,
scooby_state_55a0b2944ee2|58|2 1660,7,9,14,6,7,2,2,4,4,6,6,7,3,1008,2745,
scooby_state_55a0b2944ee2|7|2 1794,5,11,8,7,10,6,3,4,2,0,4,1,3,887,2745,
scooby_state_55a0b2944ee2|51|2 1688,14,10,5,5,4,4,5,4,4,4,3,0,1,985,2736,
scooby_state_55a0b2944ee2|10|2 1748,9,7,8,4,6,6,4,2,2,3,3,2,4,906,2714,
scooby_state_55a0b2944ee2|21|2 1813,10,4,11,7,7,5,2,5,1,0,3,5,4,796,2673,
scooby_state_55a0b2944ee2|27|2 1818,5,6,9,7,7,4,5,0,5,5,5,6,4,771,2657,
scooby_state_55a0b2944ee2|60|2 1667,10,13,9,5,5,3,8,5,5,5,5,7,6,896,2649,
scooby_state_55a0b2944ee2|19|2 1779,7,6,7,8,4,1,0,3,2,2,4,5,4,783,2615,
scooby_state_55a0b2944eca|16|2 1680,8,4,8,7,4,3,8,4,3,2,3,3,5,871,2613,
scooby_state_55a0b2944eca|54|2 1740,7,8,12,6,3,3,8,7,3,1,6,4,8,796,2612,
scooby_state_55a0b2944ee2|31|3 2261,12,11,11,9,8,9,3,4,2,0,1,4,7,269,2611,
scooby_state_55a0b2944ee2|56|2 1649,6,5,9,4,5,5,4,8,3,3,4,6,2,898,2611,
scooby_state_55a0b2944eca|61|2 1749,7,6,6,3,5,5,4,1,5,1,3,5,4,799,2603,
scooby_state_55a0b2944eca|23|2 1684,5,4,1,6,5,10,6,4,1,2,2,2,1,852,2585,
scooby_state_55a0b2944eca|52|2 1703,7,4,4,6,9,1,3,4,4,3,6,3,2,825,2584,
scooby_state_55a0b2944ee2|16|2 1753,6,6,7,10,2,2,5,1,5,7,1,1,3,770,2579,
scooby_state_55a0b2944eca|28|2 1641,8,4,8,7,8,6,2,5,8,5,3,2,5,866,2578,
scooby_state_55a0b2944ee2|37|3 2216,9,8,14,5,5,4,7,6,6,2,2,11,3,269,2567,
scooby_state_55a0b2944ee2|44|2 1616,8,8,5,8,6,4,3,4,4,4,7,7,0,881,2565,
scooby_state_55a0b2944ee2|4|3 2247,5,15,17,7,4,7,3,3,5,1,4,2,4,241,2565,
scooby_state_55a0b2944eca|35|2 1629,9,10,8,2,3,2,9,6,6,5,1,2,2,869,2563,
scooby_state_55a0b2944eca|47|2 1717,4,5,4,2,8,3,6,2,2,1,6,6,1,793,2560,
scooby_state_55a0b2944ee2|29|3 2229,6,8,13,3,7,4,2,2,4,2,5,5,4,264,2558,
scooby_state_55a0b2944eca|14|2 1604,8,12,8,4,7,3,10,7,1,4,3,2,4,860,2537,
scooby_state_55a0b2944eca|6|2 1661,16,12,6,6,8,8,2,4,4,2,1,5,1,775,2511,
scooby_state_55a0b2944ee2|21|3 2231,5,3,9,1,5,3,1,4,3,2,8,1,4,231,2511,
scooby_state_55a0b2944eca|30|2 1600,12,6,6,3,3,4,8,3,3,3,2,3,3,850,2509,
scooby_state_55a0b2944eca|41|2 1618,9,5,4,5,7,6,6,7,2,3,4,3,2,825,2506,
scooby_state_55a0b2944ee2|41|3 2185,10,7,9,9,7,9,5,3,3,1,4,1,3,248,2504,
scooby_state_55a0b2944eca|25|2 1591,7,8,8,5,10,4,7,1,1,3,3,5,3,839,2495,
scooby_state_55a0b2944eca|20|2 1636,7,10,6,5,6,7,5,6,4,4,3,1,4,773,2477,
scooby_state_55a0b2944eca|44|2 1557,6,11,4,6,4,2,4,9,2,4,5,3,5,855,2477,
scooby_state_55a0b2944ee2|46|3 2152,6,13,11,6,3,6,5,0,2,6,6,1,5,253,2475,
scooby_state_55a0b2944ee2|11|2 1620,4,8,11,3,10,3,6,1,3,0,1,6,3,794,2473,
scooby_state_55a0b2944eca|46|2 1588,7,9,8,1,9,3,5,8,3,3,4,1,6,807,2462,
scooby_state_55a0b2944eca|58|2 1677,5,7,2,5,4,5,5,8,1,4,5,2,1,725,2456,
scooby_state_55a0b2944ee2|27|3 2157,9,7,16,5,6,5,4,3,3,8,3,4,3,223,2456,
scooby_state_55a0b2944ee2|9|3 2140,10,5,10,7,7,4,4,5,3,4,5,3,5,242,2454,
scooby_state_55a0b2944eca|37|2 1545,11,6,5,6,8,5,10,9,7,6,1,1,5,824,2449,
scooby_state_55a0b2944ee2|15|3 2138,9,17,12,0,7,2,5,1,3,1,7,2,2,241,2447,
scooby_state_55a0b2944eca|7|2 1659,8,5,7,11,7,7,9,8,1,1,3,3,1,715,2445,
scooby_state_55a0b2944ee2|12|3 2113,6,7,8,2,9,2,2,3,4,2,2,5,7,272,2444,
scooby_state_55a0b2944eca|57|2 1604,17,2,6,7,6,2,6,4,2,1,8,2,2,774,2443,
scooby_state_55a0b2944ee2|52|3 2103,10,5,11,5,6,3,5,2,3,4,2,5,8,261,2433,
scooby_state_55a0b2944eca|32|2 1570,8,9,8,4,5,6,3,5,3,6,2,5,3,788,2425,
scooby_state_55a0b2944ee2|18|3 2125,5,9,8,3,2,5,5,4,6,3,3,5,5,236,2424,
scooby_state_55a0b2944eca|2|2 1679,9,8,3,7,5,4,2,6,5,2,2,3,0,689,2424,
scooby_state_55a0b2944eca|26|2 1527,10,11,7,3,7,5,2,5,2,5,2,2,2,834,2424,
scooby_state_55a0b2944ee2|36|2 1566,3,8,12,7,6,2,4,2,5,1,3,4,2,792,2417,
scooby_state_55a0b2944ee2|42|3 2058,8,7,9,6,3,8,6,5,7,2,2,5,3,288,2417,
scooby_state_55a0b2944eca|59|2 1589,12,3,8,7,7,6,0,9,0,1,7,4,6,757,2416,
scooby_state_55a0b2944eca|3|2 1625,5,8,4,3,5,1,2,7,2,3,7,2,5,734,2413,
scooby_state_55a0b2944ed6|35|1 2399,0,0,2,1,1,0,2,0,0,0,0,0,0,0,2405,
scooby_state_55a0b2944ed6|38|1 2397,1,1,1,0,0,1,0,1,0,0,0,0,0,0,2402,
scooby_state_55a0b2944ed6|36|1 2396,0,2,0,0,0,0,1,0,0,0,0,0,2,1,2402,
scooby_state_55a0b2944ee2|60|3 2081,3,7,15,3,7,5,6,3,2,1,3,5,6,255,2402,
scooby_state_55a0b2944eca|43|2 1528,9,7,7,5,8,6,6,5,2,2,3,3,3,807,2401,
scooby_state_55a0b2944eca|15|2 1631,5,7,6,5,5,9,5,5,3,2,5,2,3,707,2400,
scooby_state_55a0b2944eca|63|2 1606,6,5,5,6,8,7,4,2,1,1,4,6,2,737,2400,
scooby_state_55a0b2944ed6|37|1 2397,0,0,0,1,0,0,0,0,0,0,0,0,1,0,2399,
scooby_state_55a0b2944ee2|57|3 2093,7,11,9,3,5,4,6,5,5,4,2,3,8,232,2397,
scooby_state_55a0b2944ed6|34|1 2391,0,0,0,0,0,0,0,0,1,0,0,0,1,1,2394,
scooby_state_55a0b2944eca|24|2 1551,8,11,4,3,5,2,10,3,2,1,4,2,3,782,2391,
scooby_state_55a0b2944ee2|55|3 2064,9,7,9,2,10,7,4,7,5,3,3,6,3,251,2390,
scooby_state_55a0b2944ed6|33|1 2387,0,0,0,1,0,0,0,0,0,0,1,0,0,0,2389,
scooby_state_55a0b2944ed6|39|1 2386,0,0,0,0,1,0,0,0,1,0,0,0,1,0,2389,
scooby_state_55a0b2944ed6|49|1 2384,0,0,0,0,0,0,0,0,0,0,1,0,0,0,2385,
scooby_state_55a0b2944ed6|40|1 2378,0,1,1,0,0,0,2,0,1,0,0,1,0,0,2384,
scooby_state_55a0b2944ed6|32|1 2382,0,0,0,0,0,0,0,1,0,0,0,0,0,1,2384,
scooby_state_55a0b2944eca|49|2 1565,8,5,4,3,7,2,4,2,3,3,6,3,2,764,2381,
scooby_state_55a0b2944ed6|52|1 2377,0,0,0,0,0,0,1,0,2,0,0,0,0,0,2380,
scooby_state_55a0b2944ed6|31|1 2373,1,0,0,0,0,0,0,1,0,1,0,1,1,1,2379,
scooby_state_55a0b2944ed6|51|1 2377,0,0,0,0,0,1,0,1,0,0,0,0,0,0,2379,
scooby_state_55a0b2944ed6|47|1 2378,0,0,0,0,0,1,0,0,0,0,0,0,0,0,2379,
scooby_state_55a0b2944ed6|43|1 2374,1,1,0,1,0,0,1,1,0,0,0,0,0,0,2379,
scooby_state_55a0b2944ed6|45|1 2376,0,0,0,0,0,0,0,0,0,0,0,1,0,1,2378,
scooby_state_55a0b2944ed6|48|1 2374,0,0,0,0,0,1,1,0,0,0,0,0,0,1,2377,
scooby_state_55a0b2944ed6|46|1 2374,0,0,0,2,0,1,0,0,0,0,0,0,0,0,2377,
scooby_state_55a0b2944ed6|0|0 2371,0,0,0,0,0,0,1,0,0,0,1,1,0,1,2375,
scooby_state_55a0b2944ed6|50|1 2371,1,0,0,0,1,0,0,0,0,0,0,0,0,1,2374,
scooby_state_55a0b2944ed6|42|1 2367,0,1,0,0,0,1,3,0,1,0,0,0,0,0,2373,
scooby_state_55a0b2944ed6|44|1 2371,0,0,0,0,1,0,0,0,1,0,0,0,0,0,2373,
scooby_state_55a0b2944ed6|53|1 2371,0,0,0,1,0,0,0,0,0,1,0,0,0,0,2373,
scooby_state_55a0b2944ed6|8|1 2367,0,0,1,1,0,0,0,1,1,2,0,0,0,0,2373,
scooby_state_55a0b2944ee2|7|3 2051,7,6,12,7,4,10,3,2,3,4,4,6,3,250,2372,
scooby_state_55a0b2944ed6|41|1 2369,0,0,0,0,0,0,0,0,0,1,0,1,1,0,2372,
scooby_state_55a0b2944eca|22|2 1525,10,10,2,5,5,6,6,3,2,4,2,2,6,782,2370,
scooby_state_55a0b2944ed6|30|1 2365,1,0,0,0,0,0,0,0,0,0,0,1,1,1,2369,
scooby_state_55a0b2944eca|18|2 1545,9,6,5,4,4,6,2,3,2,2,4,3,5,769,2369,
scooby_state_55a0b2944ed6|9|1 2367,0,0,0,0,0,0,0,0,0,0,0,0,0,0,2367,
scooby_state_55a0b2944ed6|55|1 2359,1,0,1,0,0,1,0,1,0,1,2,0,0,0,2366,
scooby_state_55a0b2944ed6|59|1 2361,0,0,0,0,1,0,1,0,1,0,0,0,1,0,2365,
scooby_state_55a0b2944ed6|57|1 2361,0,0,0,1,0,0,2,0,1,0,0,0,0,0,2365,
scooby_state_55a0b2944ee2|11|3 2076,6,10,6,3,4,2,5,5,2,3,5,2,3,232,2364,
scooby_state_55a0b2944ee2|28|3 2062,10,4,10,7,1,6,3,5,3,3,3,5,4,237,2363,
scooby_state_55a0b2944ed6|54|1 2357,0,0,1,0,1,1,1,0,0,1,0,1,0,0,2363,
scooby_state_55a0b2944ed6|58|1 2361,0,0,0,0,1,0,0,0,1,0,0,0,0,0,2363,
scooby_state_55a0b2944ee2|23|3 2096,6,4,4,6,2,3,5,7,3,5,7,4,6,205,2363,
scooby_state_55a0b2944ed6|29|1 2359,1,1,0,0,1,0,0,0,0,0,0,0,0,0,2362,
scooby_state_55a0b2944ed6|13|1 2359,0,0,1,0,1,0,0,0,0,0,0,0,0,0,2361,
scooby_state_55a0b2944ed6|56|1 2356,1,0,1,0,0,0,0,2,0,0,0,0,0,0,2360,
scooby_state_55a0b2944ed6|10|1 2353,0,0,1,0,1,0,1,0,0,0,1,0,2,0,2359,
scooby_state_55a0b2944ed6|61|1 2353,0,0,1,1,0,0,0,1,1,0,0,0,1,1,2359,
scooby_state_55a0b2944ed6|11|1 2354,0,0,1,0,1,0,0,2,0,0,0,0,0,0,2358,
scooby_state_55a0b2944ed6|12|1 2358,0,0,0,0,0,0,0,0,0,0,0,0,0,0,2358,
scooby_state_55a0b2944eca|40|2 1462,8,6,12,3,8,3,3,3,6,3,1,2,4,834,2358,
scooby_state_55a0b2944ed6|5|1 2354,0,0,0,0,0,1,0,1,0,0,2,0,0,0,2358,
scooby_state_55a0b2944ed6|6|1 2352,0,0,0,0,0,0,0,0,1,0,2,1,0,1,2357,
scooby_state_55a0b2944ed6|62|1 2355,0,0,0,0,1,0,0,0,0,0,0,0,0,0,2356,
scooby_state_55a0b2944ed6|60|1 2353,0,0,0,0,1,0,1,0,0,1,0,0,0,0,2356,
scooby_state_55a0b2944ed6|63|1 2349,0,0,0,0,2,0,1,1,1,0,0,0,0,2,2356,
scooby_state_55a0b2944ed6|3|1 2352,0,0,0,0,0,0,0,1,1,1,0,0,0,0,2355,
scooby_state_55a0b2944ee2|62|3 2007,9,14,12,8,5,8,5,4,8,2,0,5,4,264,2355,
scooby_state_55a0b2944ed6|25|1 2353,0,0,0,0,0,0,0,1,0,0,0,0,0,0,2354,
scooby_state_55a0b2944ed6|7|1 2349,0,1,0,1,0,0,1,0,0,1,0,0,0,0,2353,
scooby_state_55a0b2944ed6|26|1 2346,1,0,1,1,0,1,0,0,0,0,0,1,1,1,2353,
scooby_state_55a0b2944ed6|24|1 2351,0,0,0,0,0,0,0,0,0,0,0,0,0,1,2352,
scooby_state_55a0b2944ed6|28|1 2346,0,0,0,0,1,1,2,0,0,0,0,1,0,0,2351,
scooby_state_55a0b2944ed6|4|1 2348,0,1,0,0,0,0,1,0,0,0,0,0,0,1,2351,
scooby_state_55a0b2944ed6|14|1 2345,1,0,0,1,0,0,0,0,1,0,0,1,0,1,2350,
scooby_state_55a0b2944eca|33|2 1548,6,10,9,5,8,6,2,4,2,1,6,4,3,734,2348,
scooby_state_55a0b2944ee2|17|3 2062,10,6,10,3,5,6,4,6,2,2,5,6,7,214,2348,
scooby_state_55a0b2944ed6|1|1 2344,0,0,0,0,1,0,0,0,1,1,0,1,0,0,2348,
scooby_state_55a0b2944eca|12|2 1536,11,5,9,6,6,4,5,4,2,3,3,5,3,744,2346,
scooby_state_55a0b2944ed6|23|1 2343,1,0,1,0,0,0,0,0,0,0,0,0,0,0,2345,
scooby_state_55a0b2944ed6|2|1 2341,0,0,0,0,1,0,0,0,1,0,1,1,0,0,2345,
scooby_state_55a0b2944ed6|16|1 2342,0,0,0,0,0,0,0,0,1,0,1,0,0,0,2344,
scooby_state_55a0b2944ed6|27|1 2343,0,0,0,0,0,0,0,0,0,1,0,0,0,0,2344,
scooby_state_55a0b2944ed6|20|1 2338,0,0,1,2,0,0,0,0,3,0,0,0,0,0,2344,
scooby_state_55a0b2944ed6|17|1 2336,0,0,0,0,1,0,0,2,0,2,1,0,1,0,2343,
scooby_state_55a0b2944ed6|19|1 2336,1,1,0,0,0,2,0,0,0,0,1,1,0,0,2342,
scooby_state_55a0b2944ed6|18|1 2338,1,0,0,0,0,0,0,2,0,0,0,0,0,0,2341,
scooby_state_55a0b2944ed6|21|1 2337,0,1,0,0,0,1,1,0,0,0,0,0,0,1,2341,
scooby_state_55a0b2944ed6|22|1 2335,0,0,1,1,0,1,0,1,0,0,0,0,0,1,2340,
scooby_state_55a0b2944ed6|15|1 2333,0,0,0,1,0,0,0,2,1,0,0,0,1,0,2338,
scooby_state_55a0b2944eca|21|2 1473,11,11,7,6,2,8,3,2,2,1,3,3,4,797,2333,
scooby_state_55a0b2944ee2|53|3 1997,9,12,12,4,4,3,0,6,3,3,6,2,2,269,2332,
scooby_state_55a0b2944ee2|45|3 2006,11,7,12,10,7,2,6,6,2,0,4,3,2,253,2331,
scooby_state_55a0b2944eca|55|2 1545,11,7,5,7,4,4,5,3,2,1,4,2,2,724,2326,
scooby_state_55a0b2944ee2|54|3 1982,7,5,10,7,4,5,4,5,4,3,5,7,5,265,2318,
scooby_state_55a0b2944eca|29|2 1496,8,8,8,5,7,2,4,4,5,4,4,1,6,750,2312,
scooby_state_55a0b2944ee2|20|3 2066,12,11,7,3,2,2,1,6,3,5,2,3,1,188,2312,
scooby_state_55a0b2944ee2|40|3 2001,14,7,10,6,5,6,6,3,5,0,4,5,6,232,2310,
scooby_state_55a0b2944eca|38|2 1474,9,8,5,3,4,8,5,1,2,5,4,7,4,771,2310,
scooby_state_55a0b2944eca|10|2 1578,11,5,4,7,8,7,2,3,3,3,4,5,6,662,2308,
scooby_state_55a0b2944ee2|24|3 2002,5,3,10,7,8,5,6,3,0,2,0,2,7,248,2308,
scooby_state_55a0b2944ee2|43|3 1993,7,12,12,5,3,4,3,5,4,4,1,1,3,246,2303,
scooby_state_55a0b2944eca|34|2 1474,11,10,4,3,10,3,3,4,2,4,2,3,6,753,2292,
scooby_state_55a0b2944ee2|10|3 2007,5,9,14,5,3,7,6,4,4,2,6,2,5,211,2290,
scooby_state_55a0b2944eca|36|2 1441,12,7,3,3,9,2,5,4,1,3,7,4,1,787,2289,
scooby_state_55a0b2944ee2|46|4 1311,15,12,15,7,13,10,3,5,3,4,4,4,2,880,2288,
scooby_state_55a0b2944eca|42|2 1468,9,6,6,6,6,2,2,9,6,1,3,5,2,753,2284,
scooby_state_55a0b2944eca|39|2 1437,11,3,9,2,5,6,7,4,0,1,4,3,2,789,2283,
scooby_state_55a0b2944ee2|13|3 1983,5,7,19,7,7,5,0,7,3,3,6,5,1,225,2283,
scooby_state_55a0b2944eca|51|2 1501,6,3,5,5,0,5,1,1,3,4,1,2,3,741,2281,
scooby_state_55a0b2944eca|16|3 1397,15,20,12,9,5,9,8,1,5,7,1,8,6,776,2279,
scooby_state_55a0b2944ee2|36|3 1980,16,7,11,2,3,6,3,5,2,2,8,8,5,221,2279,
scooby_state_55a0b2944ee2|16|3 1988,6,4,13,3,4,5,2,5,3,2,0,4,3,237,2279,
scooby_state_55a0b2944eca|53|2 1558,2,4,7,2,5,2,2,6,1,2,2,6,3,677,2279,
scooby_state_55a0b2944ee2|58|3 1961,8,9,11,7,6,6,4,2,0,5,3,2,8,244,2276,
scooby_state_55a0b2944eca|31|2 1494,10,4,7,6,7,3,1,3,5,0,4,2,3,726,2275,
scooby_state_55a0b2944ee2|30|3 1980,7,8,6,5,6,6,5,2,3,2,5,2,2,234,2273,
scooby_state_55a0b2944ee2|35|3 1973,5,10,11,4,6,5,7,5,3,3,3,2,3,232,2272,
scooby_state_55a0b2944ee2|50|3 1958,7,8,17,6,2,6,3,3,5,1,2,4,2,245,2269,
scooby_state_55a0b2944eca|19|2 1509,8,10,2,4,5,2,2,1,1,5,2,3,1,704,2259,
scooby_state_55a0b2944eca|13|2 1512,6,6,5,4,15,5,8,5,4,1,4,3,0,680,2258,
scooby_state_55a0b2944eca|9|2 1534,7,5,8,7,2,7,4,2,3,4,3,2,2,668,2258,
scooby_state_55a0b2944ee2|56|3 1962,13,11,13,5,4,6,2,3,3,1,4,5,1,225,2258,
scooby_state_55a0b2944ee2|3|3 1986,2,7,8,8,2,8,5,2,4,2,2,2,1,218,2257,
scooby_state_55a0b2944ee2|49|3 1922,10,8,10,7,3,4,2,3,3,4,4,4,5,266,2255,
scooby_state_55a0b2944eca|11|2 1514,8,7,7,4,8,3,5,4,5,1,1,2,1,683,2253,
scooby_state_55a0b2944eca|50|2 1476,6,5,5,7,1,6,2,0,1,2,2,3,3,731,2250,
scooby_state_55a0b2944eca|45|2 1480,14,8,10,4,7,2,2,4,4,2,7,4,4,677,2229,
scooby_state_55a0b2944ee2|48|3 1917,6,7,9,2,7,4,2,5,1,5,5,3,4,237,2214,
scooby_state_55a0b2944ee2|51|3 1913,8,12,9,5,3,10,1,3,3,2,5,5,3,221,2203,
scooby_state_55a0b2944ee2|59|3 1908,9,13,11,5,3,5,0,1,1,2,2,7,3,230,2200,
scooby_state_55a0b2944eca|4|2 1536,10,9,3,6,6,1,6,5,4,2,9,2,3,595,2197,
scooby_state_55a0b2944ee2|19|3 1973,5,6,11,3,2,4,3,2,3,2,2,2,1,175,2194,
scooby_state_55a0b2944ee2|61|4 1200,12,14,14,7,8,12,4,2,5,3,3,7,3,897,2191,
scooby_state_55a0b2944ee2|34|3 1905,8,8,9,5,3,4,4,3,2,4,4,4,2,226,2191,
scooby_state_55a0b2944ee2|39|3 1882,7,6,13,5,5,4,6,2,4,0,7,4,1,243,2189,
scooby_state_55a0b2944ee2|32|3 1925,14,7,9,6,5,3,3,0,1,1,1,1,4,209,2189,
scooby_state_55a0b2944eca|60|2 1475,8,11,4,4,7,6,6,2,2,2,2,4,1,654,2188,
scooby_state_55a0b2944eca|6|3 1384,11,10,7,6,8,4,13,5,6,3,5,5,3,708,2178,
scooby_state_55a0b2944ee2|47|3 1887,6,10,12,3,8,5,5,1,3,3,4,4,2,223,2176,
scooby_state_55a0b2944eca|62|2 1457,1,6,3,3,2,6,6,1,0,0,5,4,2,678,2174,
scooby_state_55a0b2944ee2|14|3 1904,5,7,7,6,4,6,4,3,1,2,1,3,2,215,2170,
scooby_state_55a0b2944ee2|63|3 1855,9,9,7,5,3,2,7,2,0,2,6,8,1,246,2162,
scooby_state_55a0b2944eca|5|2 1449,8,8,5,7,6,6,3,0,4,2,3,3,0,657,2161,
scooby_state_55a0b2944ee2|6|3 1886,6,5,9,7,1,7,3,3,2,4,1,5,5,215,2159,
scooby_state_55a0b2944ee2|25|3 1881,7,5,8,5,7,11,2,3,2,1,2,2,2,218,2156,
scooby_state_55a0b2944ee2|8|3 1884,2,9,5,0,4,4,0,3,3,3,5,0,6,224,2152,
scooby_state_55a0b2944ee2|35|4 1281,12,9,8,5,7,6,0,5,5,3,3,5,6,794,2149,
scooby_state_55a0b2944eca|47|3 1331,8,6,9,3,7,7,5,7,3,3,7,3,5,739,2143,
scooby_state_55a0b2944ee2|33|3 1885,12,7,7,5,6,10,2,4,1,4,2,3,1,190,2139,
scooby_state_55a0b2944ee2|61|3 1828,10,5,9,5,8,6,3,4,5,4,6,5,5,233,2136,
scooby_state_55a0b2944ee2|49|4 1229,18,15,12,10,6,6,3,3,4,3,2,7,4,814,2136,
scooby_state_55a0b2944eca|8|2 1451,5,5,4,5,7,5,3,3,3,5,3,3,1,628,2131,
scooby_state_55a0b2944eca|27|2 1420,4,8,6,4,9,5,3,2,2,2,2,3,1,660,2131,
scooby_state_55a0b2944ee2|37|4 1237,15,14,14,11,6,7,6,7,5,0,7,5,6,790,2130,
scooby_state_55a0b2944eca|42|3 1225,13,17,11,6,3,6,5,3,6,4,2,7,8,802,2118,
scooby_state_55a0b2944eca|57|3 1314,6,11,9,10,12,7,4,5,4,3,3,6,6,718,2118,
scooby_state_55a0b2944eca|26|3 1277,11,9,12,6,10,6,6,3,7,5,3,5,1,755,2116,
scooby_state_55a0b2944eca|48|2 1406,8,5,7,6,5,4,6,3,2,2,3,3,4,649,2113,
scooby_state_55a0b2944ee2|50|4 1218,9,17,15,6,11,8,3,2,6,3,8,5,6,790,2107,
scooby_state_55a0b2944ee2|18|4 1293,9,13,8,8,5,8,3,2,7,3,3,10,4,727,2103,
scooby_state_55a0b2944ee2|52|5 1191,10,8,12,5,2,8,4,5,7,7,5,6,6,827,2103,
scooby_state_55a0b2944ee2|34|4 1234,10,13,10,4,7,9,4,5,5,2,2,7,10,780,2102,
scooby_state_55a0b2944ee2|12|4 1259,10,8,10,7,10,5,7,2,3,1,5,7,0,768,2102,
scooby_state_55a0b2944ee2|22|3 1828,15,8,5,4,3,9,4,3,2,1,1,4,3,208,2098,
scooby_state_55a0b2944eca|17|2 1372,8,9,3,2,5,3,1,3,2,1,2,4,0,683,2098,
scooby_state_55a0b2944ee2|17|4 1289,14,7,8,7,8,4,4,5,4,1,6,8,5,726,2096,
scooby_state_55a0b2944ee2|26|3 1849,8,6,11,1,7,3,2,2,1,5,3,2,3,193,2096,
scooby_state_55a0b2944eca|50|3 1316,12,7,7,6,7,6,6,9,3,1,4,3,6,699,2092,
scooby_state_55a0b2944ee2|5|3 1827,6,9,8,2,3,6,3,0,0,3,8,2,3,212,2092,
scooby_state_55a0b2944ee2|33|4 1237,15,15,6,6,6,8,6,8,5,4,4,11,5,747,2083,
scooby_state_55a0b2944ee2|26|4 1310,9,13,6,5,6,1,3,5,4,4,7,14,4,685,2076,
scooby_state_55a0b2944ee2|21|4 1305,6,4,12,3,10,5,3,5,0,4,5,4,2,696,2064,
scooby_state_55a0b2944eca|38|3 1228,16,13,10,6,7,7,7,5,7,3,2,1,6,746,2064,
scooby_state_55a0b2944eca|22|3 1247,8,10,11,7,10,4,7,0,6,7,6,4,4,731,2062,
scooby_state_55a0b2944eca|24|3 1218,11,9,9,12,5,5,6,5,5,7,9,1,3,749,2054,
scooby_state_55a0b2944eca|23|3 1245,11,7,9,5,8,7,5,2,5,5,4,8,2,731,2054,
scooby_state_55a0b2944ee2|42|4 1232,10,13,8,5,2,5,6,5,5,1,4,6,7,742,2051,
scooby_state_55a0b2944eca|55|3 1311,6,6,8,11,10,7,2,4,1,4,3,3,5,668,2049,
scooby_state_55a0b2944eca|59|3 1260,15,9,14,9,7,10,9,5,4,4,3,8,3,686,2046,
scooby_state_55a0b2944ee2|47|4 1170,18,13,12,8,9,4,8,5,2,5,4,6,10,772,2046,
scooby_state_55a0b2944ee2|44|3 1765,7,7,11,3,4,4,5,2,3,5,6,4,3,215,2044,
scooby_state_55a0b2944ee2|30|4 1254,9,7,9,3,8,8,4,3,8,1,5,5,2,701,2027,
scooby_state_55a0b2944eca|41|3 1162,8,12,7,8,5,11,9,9,4,4,4,5,4,775,2027,
scooby_state_55a0b2944ee2|56|4 1109,13,9,8,5,4,7,4,8,5,6,5,2,7,834,2026,
scooby_state_55a0b2944ee2|52|4 1153,12,9,9,3,11,6,3,5,5,4,5,8,5,782,2020,
scooby_state_55a0b2944ee2|20|5 1236,7,11,6,7,4,9,7,3,5,3,3,3,5,708,2017,
scooby_state_55a0b2944eca|28|3 1192,10,14,11,8,3,3,8,3,6,6,6,3,5,727,2005,
scooby_state_55a0b2944eca|19|3 1206,6,8,8,8,10,5,9,6,4,1,4,11,6,712,2004,
scooby_state_55a0b2944eca|14|3 1251,3,6,9,12,13,9,4,5,5,5,6,5,3,665,2001,
scooby_state_55a0b2944eca|53|3 1224,3,7,8,8,10,5,4,8,2,7,4,4,3,701,1998,
scooby_state_55a0b2944eca|33|3 1194,3,6,5,3,9,7,8,2,5,9,10,3,1,725,1990,
scooby_state_55a0b2944eca|43|3 1191,8,10,7,16,9,10,6,8,3,4,5,6,4,702,1989,
scooby_state_55a0b2944eca|13|3 1273,12,11,11,7,6,6,12,5,6,6,4,1,1,628,1989,
scooby_state_55a0b2944eca|36|3 1173,14,8,10,10,5,8,6,2,8,3,6,4,7,722,1986,
scooby_state_55a0b2944ee2|63|4 1116,10,14,13,4,13,1,5,6,3,5,6,7,1,781,1985,
scooby_state_55a0b2944eca|46|3 1202,5,14,10,7,8,9,2,6,7,3,5,5,5,694,1982,
scooby_state_55a0b2944eca|3|3 1276,3,12,9,13,8,8,11,3,8,2,6,4,6,612,1981,
scooby_state_55a0b2944ee2|6|4 1220,8,11,6,8,10,5,5,6,2,3,6,11,3,676,1980,
scooby_state_55a0b2944ee2|44|4 1145,15,15,4,9,9,6,4,7,6,7,5,1,2,741,1976,
scooby_state_55a0b2944ee2|19|4 1208,5,9,8,7,3,4,3,2,4,3,3,4,4,708,1975,
scooby_state_55a0b2944eca|31|3 1146,12,12,6,9,9,10,4,7,6,1,7,6,2,736,1973,
scooby_state_55a0b2944ee2|62|4 1125,5,13,9,9,5,6,8,7,3,2,1,4,5,770,1972,
scooby_state_55a0b2944eca|10|3 1262,4,13,15,8,6,2,2,6,5,2,4,3,4,631,1967,
scooby_state_55a0b2944eca|29|3 1202,13,7,8,6,5,6,6,6,6,6,1,4,8,681,1965,
scooby_state_55a0b2944eca|54|3 1224,7,14,8,8,8,6,5,4,6,1,1,5,5,662,1964,
scooby_state_55a0b2944ee2|43|4 1128,14,15,8,2,6,4,3,6,4,4,4,3,6,746,1953,
scooby_state_55a0b2944ee2|57|4 1099,3,12,10,8,6,8,5,5,4,2,1,2,4,782,1951,
scooby_state_55a0b2944ee2|39|4 1142,10,12,7,3,5,6,6,4,3,2,7,5,4,734,1950,
scooby_state_55a0b2944eca|25|3 1151,9,9,11,3,8,6,9,3,4,7,6,10,5,708,1949,
scooby_state_55a0b2944ee2|40|5 1144,11,14,9,9,4,9,5,10,8,5,4,7,6,701,1946,
scooby_state_55a0b2944ee2|29|4 1215,10,10,7,8,5,6,3,2,2,4,3,2,5,663,1945,
scooby_state_55a0b2944eca|63|3 1228,5,10,5,6,8,6,4,6,7,4,3,4,4,644,1944,
scooby_state_55a0b2944ee2|23|4 1170,8,6,5,4,6,4,2,4,3,1,2,4,2,722,1943,
scooby_state_55a0b2944eca|52|3 1223,12,9,3,12,3,5,5,3,2,6,1,6,5,642,1937,
scooby_state_55a0b2944ee2|59|4 1102,15,7,9,6,6,7,7,10,2,3,7,5,3,745,1934,
scooby_state_55a0b2944ee2|32|4 1171,9,13,9,5,4,9,3,3,2,4,7,4,3,683,1929,
scooby_state_55a0b2944eca|17|3 1203,6,3,13,9,9,5,4,4,4,6,2,3,5,648,1924,
scooby_state_55a0b2944eca|60|3 1220,7,13,8,4,7,5,5,5,2,2,6,3,8,629,1924,
scooby_state_55a0b2944eca|30|3 1134,5,8,8,7,9,9,6,8,3,6,7,1,4,706,1921,
scooby_state_55a0b2944eca|35|3 1156,10,16,13,7,5,6,9,8,4,1,3,7,5,664,1914,
scooby_state_55a0b2944ee2|28|4 1155,6,7,13,6,8,6,5,3,3,2,4,7,2,687,1914,
scooby_state_55a0b2944ee2|41|4 1090,10,8,11,11,5,5,5,2,2,6,5,4,6,743,1913,
scooby_state_55a0b2944eca|4|3 1238,3,13,4,5,5,5,5,1,4,3,2,2,5,615,1910,
scooby_state_55a0b2944eca|56|4 1140,10,13,14,4,7,5,5,4,6,3,3,2,4,689,1909,
scooby_state_55a0b2944ee2|53|4 1057,9,14,9,7,4,6,9,6,8,6,5,8,2,757,1907,
scooby_state_55a0b2944eca|39|3 1115,11,11,8,7,9,5,3,3,3,4,0,7,5,716,1907,
scooby_state_55a0b2944ee2|22|4 1212,8,6,5,4,10,6,5,2,3,1,1,5,2,635,1905,
scooby_state_55a0b2944ee2|31|4 1179,5,9,8,5,7,4,5,5,2,11,3,3,6,653,1905,
scooby_state_55a0b2944eca|49|3 1177,10,9,7,6,5,3,2,4,4,3,2,6,4,663,1905,
scooby_state_55a0b2944eca|7|3 1245,3,7,8,4,8,8,1,4,4,4,6,6,2,588,1898,
scooby_state_55a0b2944eca|44|3 1131,12,18,6,6,10,3,6,1,7,6,4,2,3,681,1896,
scooby_state_55a0b2944eca|21|3 1151,6,9,3,8,9,7,5,4,2,6,4,8,2,672,1896,
scooby_state_55a0b2944eca|34|3 1100,14,8,14,10,9,2,4,5,1,5,2,3,3,715,1895,
scooby_state_55a0b2944ee2|13|4 1144,9,12,5,5,3,6,5,7,1,2,6,5,7,672,1889,
scooby_state_55a0b2944ee2|16|4 1175,3,12,6,5,11,4,4,5,3,4,8,6,3,634,1883,
scooby_state_55a0b2944ee2|18|6 1062,13,10,16,9,8,6,7,9,5,2,12,6,8,704,1877,
scooby_state_55a0b2944ee2|11|4 1167,8,13,10,5,4,5,7,5,4,4,4,4,5,629,1874,
scooby_state_55a0b2944eca|27|3 1126,11,9,8,5,4,8,8,8,9,2,4,8,5,656,1871,
scooby_state_55a0b2944eca|32|3 1126,6,16,9,8,3,8,7,4,6,3,4,6,5,657,1868,
scooby_state_55a0b2944ee2|8|4 1132,8,12,6,7,5,4,1,7,0,3,7,4,3,668,1867,
scooby_state_55a0b2944ee2|27|4 1145,14,16,5,3,8,5,5,5,3,6,2,5,3,640,1865,
scooby_state_55a0b2944ee2|7|4 1158,8,11,10,1,3,1,3,3,3,3,5,5,5,645,1864,
scooby_state_55a0b2944eca|45|3 1110,6,15,9,6,2,3,5,7,2,5,9,4,4,673,1860,
scooby_state_55a0b2944eca|61|3 1191,5,5,6,10,5,9,7,5,3,2,5,5,4,596,1858,
scooby_state_55a0b2944ee2|55|4 1058,12,11,10,2,7,7,7,7,0,4,2,5,4,720,1856,
scooby_state_55a0b2944ee2|24|4 1143,7,13,9,9,5,4,4,3,2,5,5,7,6,633,1855,
scooby_state_55a0b2944ee2|51|4 1055,7,8,9,5,4,7,5,7,6,3,5,7,6,720,1854,
scooby_state_55a0b2944ee2|38|4 1091,13,12,9,5,4,9,5,4,3,5,4,4,10,675,1853,
scooby_state_55a0b2944eca|15|3 1157,8,14,5,7,4,4,3,2,5,5,3,2,2,632,1853,
scooby_state_55a0b2944eca|5|3 1239,9,11,6,6,7,4,2,4,2,10,8,2,5,536,1851,
scooby_state_55a0b2944ee2|55|5 1011,11,13,11,14,3,1,7,3,8,7,10,6,8,737,1850,
scooby_state_55a0b2944ee2|5|4 1134,4,6,7,6,6,2,1,5,1,3,4,4,4,660,1847,
scooby_state_55a0b2944ee2|25|4 1122,6,8,13,6,8,4,3,4,2,0,5,4,6,653,1844,
scooby_state_55a0b2944ee2|40|4 1077,9,10,8,2,7,10,8,2,3,4,2,3,2,695,1842,
scooby_state_55a0b2944ee2|36|4 1120,12,12,5,2,7,5,4,4,3,5,2,0,2,651,1834,
scooby_state_55a0b2944ee2|35|5 1084,10,4,11,12,4,9,9,7,3,3,6,5,4,660,1831,
scooby_state_55a0b2944ee2|58|4 1030,8,9,9,9,11,2,2,4,3,3,2,7,2,721,1822,
scooby_state_55a0b2944ee2|57|5 981,11,7,14,5,8,8,4,4,6,4,7,7,4,751,1821,
scooby_state_55a0b2944ee2|4|4 1092,8,16,6,5,5,5,1,6,1,3,2,2,1,667,1820,
scooby_state_55a0b2944eca|8|3 1121,7,9,8,5,10,3,5,3,4,5,4,7,5,622,1818,
scooby_state_55a0b2944ee2|14|4 1082,13,11,8,2,3,10,4,1,2,4,4,5,4,663,1816,
scooby_state_55a0b2944ee2|62|5 997,7,8,14,4,4,6,4,3,4,2,2,2,6,750,1813,
scooby_state_55a0b2944ee2|38|5 1059,12,7,12,11,3,5,6,6,3,3,6,5,5,669,1812,
scooby_state_55a0b2944ee2|60|4 1005,13,15,8,5,4,2,2,4,4,3,5,4,2,735,1811,
scooby_state_55a0b2944eca|23|4 1042,13,14,5,7,15,5,3,7,3,4,6,4,7,673,1808,
scooby_state_55a0b2944ee2|45|4 1041,15,10,15,10,4,4,7,4,2,2,5,5,1,682,1807,
scooby_state_55a0b2944eca|38|4 1015,9,14,12,6,6,7,4,4,2,4,5,8,5,702,1803,
scooby_state_55a0b2944ee2|28|5 1073,17,6,3,13,1,8,5,4,5,3,6,5,5,637,1791,
scooby_state_55a0b2944eca|58|3 1134,10,8,7,4,3,8,7,5,6,4,1,4,5,579,1785,
scooby_state_55a0b2944eca|20|3 1119,9,12,6,5,4,5,6,5,5,4,2,4,1,597,1784,
scooby_state_55a0b2944eca|62|3 1112,8,7,7,2,7,8,4,2,2,4,5,1,3,610,1782,
scooby_state_55a0b2944ee2|15|5 1058,13,3,10,8,3,4,7,8,6,3,6,2,4,647,1782,
scooby_state_55a0b2944eca|9|3 1114,7,10,7,3,6,4,3,3,2,4,4,5,2,605,1779,
scooby_state_55a0b2944ee2|20|4 1147,9,5,1,4,7,7,7,4,1,3,3,3,1,576,1778,
scooby_state_55a0b2944eca|48|3 1075,5,15,8,10,9,5,6,2,2,6,2,5,6,613,1769,
scooby_state_55a0b2944eca|18|3 1078,6,8,6,7,6,11,6,3,2,4,2,4,3,622,1768,
scooby_state_55a0b2944eca|51|3 1124,11,10,5,8,6,5,8,6,2,2,5,3,4,567,1766,
scooby_state_55a0b2944ee2|54|4 987,16,5,7,7,11,6,1,2,4,2,2,6,6,701,1763,
scooby_state_55a0b2944eca|61|4 1066,11,14,4,6,6,7,9,4,1,1,3,3,3,625,1763,
scooby_state_55a0b2944eca|12|3 1120,4,6,7,9,8,4,4,6,5,5,5,3,1,561,1748,
scooby_state_55a0b2944eca|56|3 1112,11,3,3,4,4,4,2,3,7,5,2,4,7,574,1745,
scooby_state_55a0b2944eca|20|4 1038,10,6,8,11,3,3,3,6,4,2,3,3,2,641,1743,
scooby_state_55a0b2944eca|7|4 1053,11,9,13,4,6,4,2,3,3,4,6,2,5,612,1737,
scooby_state_55a0b2944eca|29|4 998,12,10,10,6,8,6,3,11,8,5,7,7,6,638,1735,
scooby_state_55a0b2944eca|37|3 1013,9,7,4,4,6,3,2,4,6,3,5,7,6,655,1734,
scooby_state_55a0b2944ee2|15|4 1092,6,5,7,6,3,3,6,2,1,3,5,4,4,586,1733,
scooby_state_55a0b2944ee2|43|5 977,8,9,11,10,9,8,7,5,3,3,8,6,6,663,1733,
scooby_state_55a0b2944ee2|12|5 1023,16,13,7,7,3,3,8,3,8,3,3,6,7,620,1730,
scooby_state_55a0b2944ee2|6|5 1002,12,7,10,2,5,8,2,4,2,1,3,4,9,641,1712,
scooby_state_55a0b2944ee2|10|4 1029,12,11,3,6,6,3,6,2,4,1,3,5,5,616,1712,
scooby_state_55a0b2944ee2|13|5 995,6,18,14,7,8,8,3,5,5,7,3,8,7,617,1711,
scooby_state_55a0b2944eca|25|4 999,10,10,7,7,5,5,7,5,7,4,4,3,5,624,1702,
scooby_state_55a0b2944ee2|9|4 1026,6,5,7,7,6,5,6,4,1,2,3,8,6,610,1702,
scooby_state_55a0b2944ee2|58|5 909,4,12,12,9,12,5,6,7,1,2,5,5,9,704,1702,
scooby_state_55a0b2944ee2|51|5 947,19,12,8,4,7,9,4,6,1,2,7,10,5,660,1701,
scooby_state_55a0b2944eca|42|4 985,10,13,11,5,7,5,7,9,8,3,5,6,0,625,1699,
scooby_state_55a0b2944eca|47|4 973,8,15,11,5,9,7,5,2,2,4,3,5,4,645,1698,
scooby_state_55a0b2944eca|11|3 1094,8,10,7,8,5,5,5,5,5,6,8,2,2,527,1697,
scooby_state_55a0b2944ee2|31|5 1041,4,7,5,7,4,6,5,7,2,3,3,3,4,596,1697,
scooby_state_55a0b2944eca|48|4 1008,9,11,6,5,5,4,4,8,4,4,5,4,5,614,1696,
scooby_state_55a0b2944eca|27|4 970,19,7,5,13,2,5,6,9,3,2,5,4,3,643,1696,
scooby_state_55a0b2944eca|43|4 967,9,10,8,3,4,6,3,4,2,0,3,5,4,664,1692,
scooby_state_55a0b2944eca|40|3 985,6,8,4,12,10,8,2,5,6,4,11,2,4,623,1690,
scooby_state_55a0b2944ee2|48|5 953,8,11,3,5,10,3,2,10,3,4,5,5,6,660,1688,
scooby_state_55a0b2944eca|35|4 1014,10,14,6,6,6,5,2,5,0,4,4,6,3,601,1686,
scooby_state_55a0b2944eca|39|4 896,6,14,11,7,9,8,5,8,2,2,2,4,4,706,1684,
scooby_state_55a0b2944ee2|25|5 1031,11,8,13,3,9,7,5,5,4,7,6,0,5,568,1682,
scooby_state_55a0b2944eca|15|4 1033,5,9,8,8,4,5,6,4,5,4,6,7,2,572,1678,
scooby_state_55a0b2944eca|33|4 959,10,9,6,4,3,6,5,8,1,3,6,7,5,642,1674,
scooby_state_55a0b2944eca|34|4 967,4,6,5,7,3,6,2,5,4,1,3,5,8,647,1673,
scooby_state_55a0b2944ee2|38|6 949,9,8,11,11,9,8,7,5,6,2,3,6,0,635,1669,
scooby_state_55a0b2944eca|19|4 959,12,7,8,5,6,3,1,5,4,4,7,8,7,631,1667,
scooby_state_55a0b2944eca|31|4 962,10,15,8,8,4,8,8,5,3,4,9,5,5,613,1667,
scooby_state_55a0b2944eca|28|4 967,7,9,7,10,10,7,3,7,5,2,5,7,2,615,1663,
scooby_state_55a0b2944ee2|34|5 981,7,5,6,11,9,1,6,9,8,6,5,6,1,596,1657,
scooby_state_55a0b2944ee2|26|5 1044,10,6,8,8,5,3,5,4,1,3,2,6,5,546,1656,
scooby_state_55a0b2944eca|52|4 1031,6,4,6,5,7,6,5,3,1,6,3,1,1,562,1647,
scooby_state_55a0b2944ee2|9|5 1008,17,10,13,6,4,10,4,4,6,1,2,4,2,552,1643,
scooby_state_55a0b2944ee2|60|5 890,8,9,11,10,3,13,6,5,3,6,9,6,7,653,1639,
scooby_state_55a0b2944ee2|55|6 903,10,14,13,12,9,6,4,8,4,9,7,3,8,629,1639,
scooby_state_55a0b2944eca|32|4 930,18,5,8,5,4,3,7,5,6,0,2,5,5,635,1638,
scooby_state_55a0b2944eca|5|4 1024,2,12,5,5,6,3,5,3,2,3,1,2,8,556,1637,
scooby_state_55a0b2944ee2|53|5 885,10,7,11,9,8,5,6,5,10,7,3,5,4,659,1634,
scooby_state_55a0b2944ee2|54|5 921,6,13,11,6,5,7,4,6,3,3,0,5,9,635,1634,
scooby_state_55a0b2944eca|4|4 1048,7,9,4,9,4,3,6,8,2,4,1,3,3,521,1632,
scooby_state_55a0b2944eca|16|4 991,11,10,12,4,4,4,9,3,4,4,6,2,5,554,1623,
scooby_state_55a0b2944ee2|10|6 937,13,10,9,6,6,3,4,3,6,3,6,4,4,608,1622,
scooby_state_55a0b2944ee2|7|5 946,13,10,10,6,5,5,3,10,6,7,5,1,6,584,1617,
scooby_state_55a0b2944eca|44|4 923,12,8,8,7,4,7,11,5,0,5,6,2,4,614,1616,
scooby_state_55a0b2944ee2|41|5 897,3,11,12,6,11,2,8,6,8,0,6,4,3,638,1615,
scooby_state_55a0b2944eca|26|4 923,13,12,1,5,2,2,7,7,6,2,1,4,2,627,1614,
scooby_state_55a0b2944ee2|37|5 937,11,10,5,9,5,5,4,3,4,1,7,7,4,597,1609,
scooby_state_55a0b2944ee2|30|5 987,9,6,8,11,11,5,4,2,3,2,2,7,5,547,1609,
scooby_state_55a0b2944ee2|61|5 893,13,11,9,9,8,7,6,7,3,3,3,5,5,625,1607,
scooby_state_55a0b2944eca|54|4 981,8,8,6,2,5,4,3,5,4,4,5,4,2,565,1606,
scooby_state_55a0b2944ee2|36|5 907,13,9,8,3,6,6,3,4,1,2,5,5,5,629,1606,
scooby_state_55a0b2944ee2|45|5 920,10,14,10,10,4,3,6,9,3,4,3,3,4,602,1605,
scooby_state_55a0b2944eca|36|4 926,9,12,13,6,4,8,5,3,3,7,3,0,0,606,1605,
scooby_state_55a0b2944eca|11|4 991,15,8,6,2,5,3,1,6,3,3,2,13,3,542,1603,
scooby_state_55a0b2944eca|63|4 921,3,7,18,6,4,6,4,5,4,5,4,4,2,610,1603,
scooby_state_55a0b2944eca|30|4 942,12,14,3,3,4,8,11,5,3,2,3,2,3,588,1603,
scooby_state_55a0b2944ee2|50|5 886,14,7,10,9,8,6,7,7,5,8,7,5,4,615,1598,
scooby_state_55a0b2944ee2|8|5 929,13,3,8,6,9,5,5,2,5,5,6,4,2,595,1597,
scooby_state_55a0b2944ee2|46|5 915,8,9,12,4,4,9,7,6,8,3,6,3,8,595,1597,
scooby_state_55a0b2944ee2|24|5 960,10,7,11,10,6,1,4,6,8,5,5,5,3,553,1594,
scooby_state_55a0b2944ee2|29|5 949,10,6,10,6,6,6,4,5,4,5,8,5,5,564,1593,
scooby_state_55a0b2944ee2|17|5 997,11,4,9,8,4,2,2,4,1,6,1,2,7,535,1593,
scooby_state_55a0b2944ee2|49|5 879,8,6,7,4,5,6,3,5,5,2,5,9,4,645,1593,
scooby_state_55a0b2944ee2|56|5 840,13,10,10,9,10,5,7,6,4,8,4,5,3,658,1592,
scooby_state_55a0b2944ee2|11|5 924,13,6,4,5,3,11,4,3,3,2,2,4,5,601,1590,
scooby_state_55a0b2944eca|35|5 834,7,12,13,9,12,6,11,4,0,5,6,7,4,659,1589,
scooby_state_55a0b2944eca|6|4 1005,7,7,7,6,6,6,4,6,3,4,2,6,5,513,1587,
scooby_state_55a0b2944ee2|42|5 916,14,9,9,8,9,2,4,7,3,4,9,6,3,583,1586,
scooby_state_55a0b2944ee2|26|6 943,6,9,8,9,10,9,7,3,4,3,4,6,2,563,1586,
scooby_state_55a0b2944eca|50|4 929,5,9,11,7,5,5,4,2,8,4,5,5,4,579,1582,
scooby_state_55a0b2944eca|46|4 894,8,5,11,5,4,4,3,3,2,4,2,5,4,628,1582,
scooby_state_55a0b2944eca|37|4 922,8,9,6,8,2,2,7,6,2,3,7,2,2,595,1581,
scooby_state_55a0b2944eca|13|4 961,8,15,5,4,5,4,3,6,3,2,4,6,2,552,1580,
scooby_state_55a0b2944ee2|21|5 990,11,10,5,4,3,4,9,4,2,6,2,5,2,522,1579,
scooby_state_55a0b2944ee2|5|5 923,11,11,6,4,6,6,4,4,2,6,5,2,4,584,1578,
scooby_state_55a0b2944eca|59|4 981,9,9,7,3,10,4,0,2,3,1,5,3,3,536,1576,
scooby_state_55a0b2944eca|58|4 957,9,7,5,8,5,8,7,1,4,8,2,5,1,547,1574,
scooby_state_55a0b2944ee2|39|5 931,9,5,12,4,4,7,5,4,5,3,3,3,5,573,1573,
scooby_state_55a0b2944ee2|23|5 1016,7,9,4,7,0,4,5,5,3,0,1,5,4,503,1573,
scooby_state_55a0b2944eca|22|4 896,10,10,6,8,7,2,4,5,6,2,3,9,3,602,1573,
scooby_state_55a0b2944eca|24|4 899,9,15,9,2,8,9,5,3,6,4,3,6,5,589,1572,
scooby_state_55a0b2944eca|61|5 962,7,8,7,2,9,9,7,3,2,2,4,3,5,541,1571,
scooby_state_55a0b2944eca|51|4 949,3,10,9,7,15,8,6,5,4,2,2,4,5,540,1569,
scooby_state_55a0b2944ee2|35|6 929,7,13,8,4,8,11,9,8,3,3,2,3,2,557,1567,
scooby_state_55a0b2944ee2|57|6 856,4,14,11,9,6,7,10,5,4,8,4,5,1,617,1561,
scooby_state_55a0b2944eca|14|4 946,6,11,7,4,8,5,6,6,2,4,1,5,4,544,1559,
scooby_state_55a0b2944ee2|63|5 819,10,12,13,11,13,4,7,8,6,3,5,1,12,632,1556,
scooby_state_55a0b2944ee2|49|6 862,10,9,12,8,12,5,3,5,5,3,2,6,10,603,1555,
scooby_state_55a0b2944ee2|44|5 861,8,16,10,5,9,7,7,8,5,4,3,3,6,603,1555,
scooby_state_55a0b2944eca|12|4 969,8,11,5,4,6,4,3,6,3,1,4,4,5,521,1554,
scooby_state_55a0b2944ee2|46|6 855,8,5,12,8,8,9,7,4,10,5,6,1,4,612,1554,
scooby_state_55a0b2944eca|10|4 932,9,11,8,7,5,1,4,7,2,4,2,5,6,547,1550,
scooby_state_55a0b2944ee2|59|5 845,13,9,6,7,5,8,6,3,2,3,9,3,8,623,1550,
scooby_state_55a0b2944eca|40|4 873,9,11,4,8,3,7,4,4,1,4,6,7,7,601,1549,
scooby_state_55a0b2944ee2|10|5 887,12,9,12,6,8,3,4,6,3,2,2,6,5,583,1548,
scooby_state_55a0b2944eca|17|4 945,13,6,10,3,10,4,4,5,5,5,5,8,2,521,1546,
scooby_state_55a0b2944eca|26|5 896,1,10,12,7,14,7,9,7,4,5,7,7,4,555,1545,
scooby_state_55a0b2944ee2|15|7 927,9,4,6,3,8,2,5,6,3,7,6,11,7,539,1543,
scooby_state_55a0b2944ee2|16|5 945,10,7,5,6,2,4,7,2,4,2,2,5,2,537,1540,
scooby_state_55a0b2944ee2|48|4 878,4,14,9,2,5,3,2,4,1,0,6,8,4,600,1540,
scooby_state_55a0b2944eca|8|4 956,9,7,2,3,5,5,5,5,2,1,6,4,3,526,1539,
scooby_state_55a0b2944eca|49|4 933,7,9,4,10,2,2,3,5,2,4,3,3,1,551,1539,
scooby_state_55a0b2944ee2|26|7 920,3,7,9,14,9,4,6,6,4,2,3,3,9,540,1539,
scooby_state_55a0b2944ee2|33|5 884,11,11,13,6,3,8,6,5,3,3,5,5,5,569,1537,
scooby_state_55a0b2944eca|60|4 938,6,7,11,1,5,2,6,3,5,1,5,5,4,537,1536,
scooby_state_55a0b2944eca|38|5 877,9,10,6,14,9,10,7,8,4,3,9,5,4,561,1536,
scooby_state_55a0b2944eca|21|5 876,5,10,6,7,10,10,5,8,6,3,9,6,6,569,1536,
scooby_state_55a0b2944eca|9|4 905,10,12,8,5,11,6,1,5,3,1,10,5,4,548,1534,
scooby_state_55a0b2944eca|41|4 890,12,9,8,4,4,2,3,8,2,4,5,4,4,573,1532,
scooby_state_55a0b2944ee2|29|6 892,14,3,9,12,10,5,3,6,7,6,3,5,6,548,1529,
scooby_state_55a0b2944ee2|18|5 935,4,7,11,6,6,4,1,5,1,6,2,4,2,534,1528,
scooby_state_55a0b2944ee2|48|6 871,13,9,12,13,7,4,7,6,3,6,3,9,3,558,1524,
scooby_state_55a0b2944ee2|20|6 894,17,9,12,10,6,11,7,5,2,2,5,6,6,531,1523,
scooby_state_55a0b2944ee2|30|6 908,10,7,12,12,3,7,4,9,7,1,6,4,8,525,1523,
scooby_state_55a0b2944ee2|14|5 899,12,3,8,8,3,2,7,5,0,3,3,3,3,563,1522,
scooby_state_55a0b2944eca|59|5 892,6,7,4,8,8,7,3,2,5,5,8,4,7,556,1522,
scooby_state_55a0b2944ee2|7|6 917,13,6,8,13,4,7,6,8,7,6,4,4,3,515,1521,
scooby_state_55a0b2944eca|20|5 844,7,10,12,7,8,7,3,2,2,6,6,6,8,588,1516,
scooby_state_55a0b2944ee2|12|7 872,10,9,16,10,7,7,5,3,4,1,4,4,9,555,1516,
scooby_state_55a0b2944eca|21|4 904,6,13,5,8,6,2,6,4,1,3,5,3,3,541,1510,
scooby_state_55a0b2944eca|62|4 916,8,6,11,3,1,4,3,5,4,1,6,3,3,535,1509,
scooby_state_55a0b2944eca|45|4 844,12,15,5,3,5,5,7,6,3,1,5,4,4,586,1505,
scooby_state_55a0b2944eca|18|4 869,8,16,10,6,3,3,7,8,6,2,2,2,5,558,1505,
scooby_state_55a0b2944ee2|43|6 865,9,10,9,8,10,8,3,5,3,6,3,3,6,547,1495,
scooby_state_55a0b2944eca|57|4 853,4,7,7,5,1,3,3,11,4,3,4,8,2,575,1490,
scooby_state_55a0b2944ee2|22|5 944,8,5,9,5,4,4,6,4,3,2,3,3,5,485,1490,
scooby_state_55a0b2944ee2|22|7 903,5,10,7,5,7,4,8,5,4,5,6,5,4,507,1485,
scooby_state_55a0b2944ee2|50|7 794,12,11,9,9,5,8,3,6,6,0,12,6,7,597,1485,
scooby_state_55a0b2944eca|52|5 843,9,5,9,6,10,4,3,5,2,8,5,7,4,561,1481,
scooby_state_55a0b2944eca|57|5 871,7,13,8,9,11,3,4,6,4,3,4,3,3,531,1480,
scooby_state_55a0b2944ee2|59|6 781,13,8,7,10,6,8,7,6,5,6,5,6,7,598,1473,
scooby_state_55a0b2944ee2|14|7 876,8,8,13,11,4,6,8,6,7,2,8,6,8,501,1472,
scooby_state_55a0b2944ee2|9|6 856,11,8,11,8,4,6,4,3,2,3,11,2,4,534,1467,
scooby_state_55a0b2944eca|55|4 887,10,8,10,4,3,5,8,7,3,5,2,6,6,501,1465,
scooby_state_55a0b2944ee2|52|6 838,14,9,6,11,7,7,4,5,3,3,8,8,4,536,1463,
scooby_state_55a0b2944ee2|32|5 914,6,5,4,11,1,3,5,0,1,2,6,3,6,495,1462,
scooby_state_55a0b2944ee2|17|6 862,3,5,7,10,12,4,6,3,4,4,3,1,7,530,1461,
scooby_state_55a0b2944ee2|15|6 854,10,6,11,8,6,6,3,2,3,6,6,3,1,536,1461,
scooby_state_55a0b2944ee2|19|5 922,6,5,9,7,6,7,5,3,6,3,5,3,1,472,1460,
scooby_state_55a0b2944eca|40|5 814,6,17,7,10,10,5,6,9,3,2,11,6,6,542,1454,
scooby_state_55a0b2944ee2|27|5 898,11,9,4,9,3,4,1,7,3,3,5,2,4,490,1453,
[...]
scooby_state_55a0b2944ec6|29|19 1,0,0,0,0,0,0,0,0,0,0,0,0,0,0,1,
scooby_state_14ff016faa01|40|34 1,0,0,0,0,0,0,0,0,0,0,0,0,0,0,1,
scooby_state_14ff01704040|1|1 1,0,0,0,0,0,0,0,0,0,0,0,0,0,0,1,
scooby_state_14ff016cafea|63|1 1,0,0,0,0,0,0,0,0,0,0,0,0,0,0,1,
scooby_state_7ffd205f6dc3|55|17 1,0,0,0,0,0,0,0,0,0,0,0,0,0,0,1,
scooby_state_14ff016cb8b0|34|-6 1,0,0,0,0,0,0,0,0,0,0,0,0,0,0,1,
scooby_state_14ff017038e8|16|-1 1,0,0,0,0,0,0,0,0,0,0,0,0,0,0,1,
scooby_state_55a0b2944d78|8|5 1,0,0,0,0,0,0,0,0,0,0,0,0,0,0,1,
scooby_state_14ff0172a97f|6|-6 1,0,0,0,0,0,0,0,0,0,0,0,0,0,0,1,
scooby_state_14ff017035a7|25|1 1,0,0,0,0,0,0,0,0,0,0,0,0,0,0,1,
scooby_state_55a0b2944ebf|19|5 1,0,0,0,0,0,0,0,0,0,0,0,0,0,0,1,
scooby_state_55a0b2945346|13|1 1,0,0,0,0,0,0,0,0,0,0,0,0,0,0,1,
scooby_state_55a0b2944ec6|53|6 0,1,0,0,0,0,0,0,0,0,0,0,0,0,0,1,
scooby_state_14ff0172a97f|6|-13 1,0,0,0,0,0,0,0,0,0,0,0,0,0,0,1,
scooby_state_55a0b2944ebf|27|6 1,0,0,0,0,0,0,0,0,0,0,0,0,0,0,1,
scooby_state_55a0b2944ebf|39|17 0,0,0,0,0,0,0,0,0,1,0,0,0,0,0,1,
scooby_state_55a0b2944ebf|50|3 1,0,0,0,0,0,0,0,0,0,0,0,0,0,0,1,
scooby_state_55a0b2944e7b|51|1 0,0,1,0,0,0,0,0,0,0,0,0,0,0,0,1,
scooby_state_55a0b2944ebf|58|6 1,0,0,0,0,0,0,0,0,0,0,0,0,0,0,1,
scooby_state_14ff016fa9b8|38|1 1,0,0,0,0,0,0,0,0,0,0,0,0,0,0,1,
scooby_state_14ff01704143|5|1 1,0,0,0,0,0,0,0,0,0,0,0,0,0,0,1,
scooby_state_14ff0172a97f|6|-2 1,0,0,0,0,0,0,0,0,0,0,0,0,0,0,1,
scooby_state_55a0b2944ee2|1|-27 1,0,0,0,0,0,0,0,0,0,0,0,0,0,0,1,
scooby_state_55a0b2944eca|27|-33 0,0,0,0,0,0,0,0,0,0,0,0,0,1,0,1,
scooby_state_55a0b2944f0a|22|0 1,0,0,0,0,0,0,0,0,0,0,0,0,0,0,1,
scooby_state_55a0b2944ebf|31|30 1,0,0,0,0,0,0,0,0,0,0,0,0,0,0,1,
scooby_state_55a0b2944ebf|39|8 0,0,0,0,0,0,0,1,0,0,0,0,0,0,0,1,
scooby_state_55a0b2944ee2|10|-51 0,0,0,0,0,0,0,0,0,0,0,0,0,0,1,1,
scooby_state_7ffd205f6d82|54|1 1,0,0,0,0,0,0,0,0,0,0,0,0,0,0,1,
scooby_state_14ff016fd540|21|1 1,0,0,0,0,0,0,0,0,0,0,0,0,0,0,1,
scooby_state_14ff01703303|12|1 1,0,0,0,0,0,0,0,0,0,0,0,0,0,0,1,
scooby_state_55a0b2944ed6|42|22 1,0,0,0,0,0,0,0,0,0,0,0,0,0,0,1,
scooby_state_55a0b29435d0|23|-1 1,0,0,0,0,0,0,0,0,0,0,0,0,0,0,1,
scooby_state_55a0b2944e42|57|1 1,0,0,0,0,0,0,0,0,0,0,0,0,0,0,1,
scooby_state_14ff0170620e|0|-1 1,0,0,0,0,0,0,0,0,0,0,0,0,0,0,1,
scooby_state_14ff016fa9c2|39|1 1,0,0,0,0,0,0,0,0,0,0,0,0,0,0,1,
scooby_state_55a0b2944ebf|43|25 1,0,0,0,0,0,0,0,0,0,0,0,0,0,0,1,
scooby_state_55a0b2944ebf|42|5 0,1,0,0,0,0,0,0,0,0,0,0,0,0,0,1,
scooby_state_55a0b2944e77|31|9 0,0,0,0,0,0,1,0,0,0,0,0,0,0,0,1,
scooby_state_55a0b2944ff8|63|0 1,0,0,0,0,0,0,0,0,0,0,0,0,0,0,1,
scooby_state_14ff017061f4|1|0 1,0,0,0,0,0,0,0,0,0,0,0,0,0,0,1,
scooby_state_55a0b2944f0a|53|0 1,0,0,0,0,0,0,0,0,0,0,0,0,0,0,1,
scooby_state_55a0b2944e77|28|3 0,0,0,0,0,0,0,1,0,0,0,0,0,0,0,1,
scooby_state_55a0b2944ee2|4|-45 0,0,0,0,0,0,0,1,0,0,0,0,0,0,0,1,
scooby_state_14ff016fc300|12|0 1,0,0,0,0,0,0,0,0,0,0,0,0,0,0,1,
scooby_state_55a0b2943b3a|19|1 1,0,0,0,0,0,0,0,0,0,0,0,0,0,0,1,
scooby_state_14ff016ca6c4|27|1 1,0,0,0,0,0,0,0,0,0,0,0,0,0,0,1,
scooby_state_14ff01703998|38|15 1,0,0,0,0,0,0,0,0,0,0,0,0,0,0,1,
scooby_state_55a0b2944ed6|61|4 1,0,0,0,0,0,0,0,0,0,0,0,0,0,0,1,
scooby_state_55a0b2944f80|62|1 1,0,0,0,0,0,0,0,0,0,0,0,0,0,0,1,
scooby_state_55a0b2944cf0|51|0 1,0,0,0,0,0,0,0,0,0,0,0,0,0,0,1,
scooby_state_14ff016cbb11|44|-11 1,0,0,0,0,0,0,0,0,0,0,0,0,0,0,1,
scooby_state_55a0b2944ebf|12|4 0,0,0,0,0,0,0,0,0,0,0,0,0,0,1,1,
scooby_state_14ff017a11d0|7|0 1,0,0,0,0,0,0,0,0,0,0,0,0,0,0,1,
scooby_state_55a0b2944ed6|45|33 1,0,0,0,0,0,0,0,0,0,0,0,0,0,0,1,
scooby_state_55a0b2944ebf|52|8 1,0,0,0,0,0,0,0,0,0,0,0,0,0,0,1,
scooby_state_14ff016cc902|36|1 1,0,0,0,0,0,0,0,0,0,0,0,0,0,0,1,
scooby_state_14ff01706d1a|10|0 1,0,0,0,0,0,0,0,0,0,0,0,0,0,0,1,
scooby_state_55a0b2945376|8|1 1,0,0,0,0,0,0,0,0,0,0,0,0,0,0,1,
scooby_state_55a0b2944ed6|58|52 1,0,0,0,0,0,0,0,0,0,0,0,0,0,0,1,
scooby_state_55a0b2944ed6|38|8 1,0,0,0,0,0,0,0,0,0,0,0,0,0,0,1,
scooby_state_14ff017035c1|23|1 1,0,0,0,0,0,0,0,0,0,0,0,0,0,0,1,
scooby_state_55a0b2944ee2|31|-30 1,0,0,0,0,0,0,0,0,0,0,0,0,0,0,1,
scooby_state_55a0b2944ed6|54|50 1,0,0,0,0,0,0,0,0,0,0,0,0,0,0,1,
scooby_state_55a0b2944e77|49|15 0,0,0,0,0,0,0,0,0,0,0,0,0,1,0,1,
scooby_state_55a0b2944ed6|32|23 1,0,0,0,0,0,0,0,0,0,0,0,0,0,0,1,
scooby_state_14ff017061f0|7|-36 1,0,0,0,0,0,0,0,0,0,0,0,0,0,0,1,
scooby_state_14ff0170342a|16|-45 1,0,0,0,0,0,0,0,0,0,0,0,0,0,0,1,
scooby_state_55a0b2944e77|32|9 1,0,0,0,0,0,0,0,0,0,0,0,0,0,0,1,
scooby_state_14ff017060c1|58|1 1,0,0,0,0,0,0,0,0,0,0,0,0,0,0,1,
scooby_state_14ff016ca390|14|0 1,0,0,0,0,0,0,0,0,0,0,0,0,0,0,1,
scooby_state_55a0b2944ed6|63|60 1,0,0,0,0,0,0,0,0,0,0,0,0,0,0,1,
scooby_state_55a0b2944d05|60|2 1,0,0,0,0,0,0,0,0,0,0,0,0,0,0,1,
scooby_state_55a0b2944ee2|3|-36 0,0,0,0,0,0,0,0,1,0,0,0,0,0,0,1,
scooby_state_55a0b2945791|30|19 1,0,0,0,0,0,0,0,0,0,0,0,0,0,0,1,
scooby_state_55a0b29451c5|7|1 1,0,0,0,0,0,0,0,0,0,0,0,0,0,0,1,
scooby_state_55a0b2943760|61|1 1,0,0,0,0,0,0,0,0,0,0,0,0,0,0,1,
scooby_state_14ff016ed182|6|1 1,0,0,0,0,0,0,0,0,0,0,0,0,0,0,1,
scooby_state_14ff01706d43|53|1 1,0,0,0,0,0,0,0,0,0,0,0,0,0,0,1,
scooby_state_14ff017a1280|10|1 1,0,0,0,0,0,0,0,0,0,0,0,0,0,0,1,
scooby_state_55a0b2944ec6|39|3 1,0,0,0,0,0,0,0,0,0,0,0,0,0,0,1,
scooby_state_14ff0170365b|18|5 1,0,0,0,0,0,0,0,0,0,0,0,0,0,0,1,
scooby_state_14ff017061a0|6|4 1,0,0,0,0,0,0,0,0,0,0,0,0,0,0,1,
scooby_state_14ff01703d30|52|1 1,0,0,0,0,0,0,0,0,0,0,0,0,0,0,1,
scooby_state_14ff016fa180|6|-33 1,0,0,0,0,0,0,0,0,0,0,0,0,0,0,1,
scooby_state_55a0b2944ed6|63|11 1,0,0,0,0,0,0,0,0,0,0,0,0,0,0,1,
scooby_state_14ff01706212|8|4 1,0,0,0,0,0,0,0,0,0,0,0,0,0,0,1,
scooby_state_14ff016ca3cc|32|1 1,0,0,0,0,0,0,0,0,0,0,0,0,0,0,1,
scooby_state_14ff017a12c3|11|1 1,0,0,0,0,0,0,0,0,0,0,0,0,0,0,1,
scooby_state_55a0b2944ebf|15|5 1,0,0,0,0,0,0,0,0,0,0,0,0,0,0,1,
scooby_state_14ff01690230|8|-3 1,0,0,0,0,0,0,0,0,0,0,0,0,0,0,1,
scooby_state_14ff016ca440|17|1 1,0,0,0,0,0,0,0,0,0,0,0,0,0,0,1,
scooby_state_14ff017a1230|60|0 1,0,0,0,0,0,0,0,0,0,0,0,0,0,0,1,
scooby_state_55a0b2947240|9|1 1,0,0,0,0,0,0,0,0,0,0,0,0,0,0,1,
scooby_state_55a0b2944d98|10|2 1,0,0,0,0,0,0,0,0,0,0,0,0,0,0,1,
scooby_state_14ff01703540|21|1 1,0,0,0,0,0,0,0,0,0,0,0,0,0,0,1,
scooby_state_55a0b2944e77|12|8 1,0,0,0,0,0,0,0,0,0,0,0,0,0,0,1,
scooby_state_14ff016ca706|28|1 1,0,0,0,0,0,0,0,0,0,0,0,0,0,0,1,
scooby_state_14ff016902c0|56|-1 1,0,0,0,0,0,0,0,0,0,0,0,0,0,0,1,
scooby_state_14ff0172a884|34|1 1,0,0,0,0,0,0,0,0,0,0,0,0,0,0,1,
scooby_state_14ff016ca3c3|57|-3 1,0,0,0,0,0,0,0,0,0,0,0,0,0,0,1,
scooby_state_14ff016ca945|37|1 1,0,0,0,0,0,0,0,0,0,0,0,0,0,0,1,
scooby_state_55a0b2944ebf|21|2 1,0,0,0,0,0,0,0,0,0,0,0,0,0,0,1,
scooby_state_14ff01706207|2|-47 0,1,0,0,0,0,0,0,0,0,0,0,0,0,0,1,
scooby_state_14ff016cbd24|52|52 1,0,0,0,0,0,0,0,0,0,0,0,0,0,0,1,
scooby_state_14ff017040e6|3|0 1,0,0,0,0,0,0,0,0,0,0,0,0,0,0,1,
scooby_state_14ff016cbb44|45|-11 1,0,0,0,0,0,0,0,0,0,0,0,0,0,0,1,
scooby_state_14ff016ca9c0|39|1 1,0,0,0,0,0,0,0,0,0,0,0,0,0,0,1,
scooby_state_55a0b2944f15|43|0 0,0,0,0,0,0,0,0,0,1,0,0,0,0,0,1,
scooby_state_14ff01703b90|46|30 1,0,0,0,0,0,0,0,0,0,0,0,0,0,0,1,
scooby_state_14ff016cbc02|48|1 1,0,0,0,0,0,0,0,0,0,0,0,0,0,0,1,
scooby_state_14ff0172a567|21|4 1,0,0,0,0,0,0,0,0,0,0,0,0,0,0,1,
scooby_state_55a0b2944ebf|51|10 1,0,0,0,0,0,0,0,0,0,0,0,0,0,0,1,
scooby_state_55a0b2944ec6|39|-8 1,0,0,0,0,0,0,0,0,0,0,0,0,0,0,1,
scooby_state_55a0b2943dbc|54|39 1,0,0,0,0,0,0,0,0,0,0,0,0,0,0,1,
scooby_state_14ff01706aa0|42|-13 1,0,0,0,0,0,0,0,0,0,0,0,0,0,0,1,
scooby_state_14ff0172a440|17|0 1,0,0,0,0,0,0,0,0,0,0,0,0,0,0,1,
scooby_state_14ff016ca400|16|1 1,0,0,0,0,0,0,0,0,0,0,0,0,0,0,1,
scooby_state_55a0b2943760|29|-15 1,0,0,0,0,0,0,0,0,0,0,0,0,0,0,1,
scooby_state_55a0b29436a0|60|6 1,0,0,0,0,0,0,0,0,0,0,0,0,0,0,1,
scooby_state_55a0b2944ed6|11|8 1,0,0,0,0,0,0,0,0,0,0,0,0,0,0,1,
scooby_state_14ff016ed163|45|0 1,0,0,0,0,0,0,0,0,0,0,0,0,0,0,1,
scooby_state_14ff016cc167|5|5 1,0,0,0,0,0,0,0,0,0,0,0,0,0,0,1,
scooby_state_14ff016ca5c8|23|3 1,0,0,0,0,0,0,0,0,0,0,0,0,0,0,1,
scooby_state_14ff016cc028|0|-2 1,0,0,0,0,0,0,0,0,0,0,0,0,0,0,1,
scooby_state_14ff0170702c|0|-17 1,0,0,0,0,0,0,0,0,0,0,0,0,0,0,1,
scooby_state_55a0b2944ee2|14|-44 1,0,0,0,0,0,0,0,0,0,0,0,0,0,0,1,
scooby_state_14ff016cbdf0|55|12 1,0,0,0,0,0,0,0,0,0,0,0,0,0,0,1,
scooby_state_14ff017069c3|39|1 1,0,0,0,0,0,0,0,0,0,0,0,0,0,0,1,
scooby_state_14ff020a92f0|11|0 1,0,0,0,0,0,0,0,0,0,0,0,0,0,0,1,
scooby_state_55a0b2945142|5|1 1,0,0,0,0,0,0,0,0,0,0,0,0,0,0,1,
scooby_state_14ff016c77b0|30|0 1,0,0,0,0,0,0,0,0,0,0,0,0,0,0,1,
scooby_state_14ff016ca543|21|-18 1,0,0,0,0,0,0,0,0,0,0,0,0,0,0,1,
scooby_state_14ff01706dc2|55|1 1,0,0,0,0,0,0,0,0,0,0,0,0,0,0,1,
scooby_state_14ff01706076|59|3 1,0,0,0,0,0,0,0,0,0,0,0,0,0,0,1,
scooby_state_14ff0209fd00|26|0 1,0,0,0,0,0,0,0,0,0,0,0,0,0,0,1,
scooby_state_55a0b2944ec6|21|21 1,0,0,0,0,0,0,0,0,0,0,0,0,0,0,1,
scooby_state_14ff016c7840|33|2 1,0,0,0,0,0,0,0,0,0,0,0,0,0,0,1,
scooby_state_14ff016fd2c0|11|1 1,0,0,0,0,0,0,0,0,0,0,0,0,0,0,1,
scooby_state_55a0b294516d|14|7 1,0,0,0,0,0,0,0,0,0,0,0,0,0,0,1,
scooby_state_55a0b2944e77|61|30 0,0,0,0,0,0,1,0,0,0,0,0,0,0,0,1,
scooby_state_14ff01706c82|50|-7 1,0,0,0,0,0,0,0,0,0,0,0,0,0,0,1,
scooby_state_55a0b2944ee2|4|-53 0,0,0,0,0,0,0,0,0,0,0,0,0,0,1,1,
scooby_state_55a0b2945284|10|1 1,0,0,0,0,0,0,0,0,0,0,0,0,0,0,1,
scooby_state_14ff01703450|17|5 1,0,0,0,0,0,0,0,0,0,0,0,0,0,0,1,
scooby_state_14ff01703323|37|2 1,0,0,0,0,0,0,0,0,0,0,0,0,0,0,1,
scooby_state_14ff016fa9ea|10|-1 1,0,0,0,0,0,0,0,0,0,0,0,0,0,0,1,
scooby_state_14ff016ca682|26|1 1,0,0,0,0,0,0,0,0,0,0,0,0,0,0,1,
scooby_state_55a0b2944ebf|47|9 1,0,0,0,0,0,0,0,0,0,0,0,0,0,0,1,
scooby_state_55a0b2944ec6|20|4 1,0,0,0,0,0,0,0,0,0,0,0,0,0,0,1,
scooby_state_14ff017041c6|7|1 1,0,0,0,0,0,0,0,0,0,0,0,0,0,0,1,
scooby_state_55a0b29433f0|15|0 1,0,0,0,0,0,0,0,0,0,0,0,0,0,0,1,
scooby_state_14ff01703504|20|1 1,0,0,0,0,0,0,0,0,0,0,0,0,0,0,1,
scooby_state_14ff01703f00|60|1 1,0,0,0,0,0,0,0,0,0,0,0,0,0,0,1,
scooby_state_55a0b2947200|8|0 1,0,0,0,0,0,0,0,0,0,0,0,0,0,0,1,
scooby_state_14ff017032d0|11|0 1,0,0,0,0,0,0,0,0,0,0,0,0,0,0,1,
scooby_state_14ff01703f73|61|35 1,0,0,0,0,0,0,0,0,0,0,0,0,0,0,1,
scooby_state_14ff01706950|37|29 1,0,0,0,0,0,0,0,0,0,0,0,0,0,0,1,
scooby_state_55a0b2944ebf|20|7 1,0,0,0,0,0,0,0,0,0,0,0,0,0,0,1,
scooby_state_14ff016cc3da|15|0 1,0,0,0,0,0,0,0,0,0,0,0,0,0,0,1,
scooby_state_55a0b2944ec6|27|15 0,0,0,0,0,0,0,0,1,0,0,0,0,0,0,1,
scooby_state_7ffd205f6980|38|1 1,0,0,0,0,0,0,0,0,0,0,0,0,0,0,1,
scooby_state_14ff01703603|24|-29 1,0,0,0,0,0,0,0,0,0,0,0,0,0,0,1,
scooby_state_14ff01706ac0|43|1 1,0,0,0,0,0,0,0,0,0,0,0,0,0,0,1,
scooby_state_14ff016fc3c3|15|1 1,0,0,0,0,0,0,0,0,0,0,0,0,0,0,1,
scooby_state_14ff0177e7c1|31|1 1,0,0,0,0,0,0,0,0,0,0,0,0,0,0,1,
scooby_state_55a0b2944e7b|45|1 0,0,0,0,0,0,0,0,0,0,0,1,0,0,0,1,
scooby_state_14ff017a1240|61|0 1,0,0,0,0,0,0,0,0,0,0,0,0,0,0,1,
scooby_state_55a0b2949f01|60|1 1,0,0,0,0,0,0,0,0,0,0,0,0,0,0,1,
scooby_state_55a0b2944ebf|40|5 0,0,0,1,0,0,0,0,0,0,0,0,0,0,0,1,
scooby_state_55a0b2944d41|53|1 1,0,0,0,0,0,0,0,0,0,0,0,0,0,0,1,
scooby_state_14ff016caeb8|58|30 1,0,0,0,0,0,0,0,0,0,0,0,0,0,0,1,
scooby_state_14ff016ed100|4|0 1,0,0,0,0,0,0,0,0,0,0,0,0,0,0,1,
scooby_state_14ff016ca5e5|25|-10 1,0,0,0,0,0,0,0,0,0,0,0,0,0,0,1,
scooby_state_14ff01706d83|54|1 1,0,0,0,0,0,0,0,0,0,0,0,0,0,0,1,
scooby_state_55a0b2944ee2|41|-17 1,0,0,0,0,0,0,0,0,0,0,0,0,0,0,1,
scooby_state_55a0b2944ebf|39|28 0,0,0,1,0,0,0,0,0,0,0,0,0,0,0,1,
scooby_state_55a0b2944ec6|43|10 1,0,0,0,0,0,0,0,0,0,0,0,0,0,0,1,
scooby_state_14ff01704123|49|0 1,0,0,0,0,0,0,0,0,0,0,0,0,0,0,1,
scooby_state_14ff016c77c0|31|1 1,0,0,0,0,0,0,0,0,0,0,0,0,0,0,1,
scooby_state_14ff0170607d|48|47 1,0,0,0,0,0,0,0,0,0,0,0,0,0,0,1,
scooby_state_55a0b2944ebf|39|3 1,0,0,0,0,0,0,0,0,0,0,0,0,0,0,1,
scooby_state_14ff017a1264|35|0 1,0,0,0,0,0,0,0,0,0,0,0,0,0,0,1,
scooby_state_14ff016ca4e8|19|1 1,0,0,0,0,0,0,0,0,0,0,0,0,0,0,1,
scooby_state_55a0b2944ebf|48|43 1,0,0,0,0,0,0,0,0,0,0,0,0,0,0,1,
scooby_state_14ff016fd530|20|2 1,0,0,0,0,0,0,0,0,0,0,0,0,0,0,1,
scooby_state_14ff016ca501|20|1 1,0,0,0,0,0,0,0,0,0,0,0,0,0,0,1,
scooby_state_55a0b2944ec6|28|26 0,0,0,0,0,0,0,0,0,0,0,0,1,0,0,1,
scooby_state_55a0b2943b41|12|-7 1,0,0,0,0,0,0,0,0,0,0,0,0,0,0,1,
scooby_state_7ffd205f6e3d|56|2 1,0,0,0,0,0,0,0,0,0,0,0,0,0,0,1,
scooby_state_14ff016c786b|22|-20 1,0,0,0,0,0,0,0,0,0,0,0,0,0,0,1,
scooby_state_14ff016fd376|12|2 1,0,0,0,0,0,0,0,0,0,0,0,0,0,0,1,
scooby_state_14ff016fd420|16|5 1,0,0,0,0,0,0,0,0,0,0,0,0,0,0,1,
scooby_state_7ffd205f6eb2|58|3 1,0,0,0,0,0,0,0,0,0,0,0,0,0,0,1,
scooby_state_55a0b2944ed6|61|36 1,0,0,0,0,0,0,0,0,0,0,0,0,0,0,1,
scooby_state_55a0b2944e77|20|20 0,0,0,0,0,0,0,0,1,0,0,0,0,0,0,1,

scooby_action_0_deg_dist 0,1287203,0,0,0,0,0,0,0,0,0,0,0,0,0,0,
scooby_action_-6_deg_dist 0,17175,41,0,1,0,0,0,0,0,0,0,0,0,0,0,
scooby_action_4_deg_dist 0,24885,193,0,35,0,0,0,0,0,0,0,0,0,0,0,
scooby_action_1_deg_dist 0,1953267,326864,0,251697,0,396710,0,0,0,0,0,0,0,0,0,
scooby_action_30_deg_dist 0,13695,27,0,1,0,0,0,0,0,0,0,0,0,0,0,
scooby_action_5_deg_dist 0,23313,151,0,11,0,0,0,0,0,0,0,0,0,0,0,
scooby_action_3_deg_dist 0,24147,222,0,37,0,0,0,0,0,0,0,0,0,0,0,
scooby_action_32_deg_dist 0,13340,28,0,1,0,0,0,0,0,0,0,0,0,0,0,
scooby_action_10_deg_dist 0,20058,100,0,6,0,0,0,0,0,0,0,0,0,0,0,
scooby_action_11_deg_dist 0,19294,95,0,19,0,3,0,0,0,0,0,0,0,0,0,
scooby_action_12_deg_dist 0,18360,61,0,2,0,0,0,0,0,0,0,0,0,0,0,
scooby_action_22_deg_dist 0,16001,44,0,1,0,0,0,0,0,0,0,0,0,0,0,
scooby_action_23_deg_dist 0,15780,50,0,9,0,0,0,0,0,0,0,0,0,0,0,
scooby_action_-1_deg_dist 0,17190,55,0,11,0,0,0,0,0,0,0,0,0,0,0,
scooby_action_-3_deg_dist 0,17069,48,0,4,0,0,0,0,0,0,0,0,0,0,0,

scooby_track_called 4457304
scooby_track_same_address 6685
scooby_track_evict 4450363

scooby_reward_demand_called 4457304
scooby_reward_demand_pt_not_found 3967698
scooby_reward_demand_pt_found 489606
scooby_reward_demand_pt_found_total 489606
scooby_reward_demand_has_reward 35
scooby_reward_train_called 3863594
scooby_reward_assign_reward_called 4450374
scooby_reward_no_pref 1287118
scooby_reward_incorrect 2576476
scooby_reward_correct_untimely 383666
scooby_reward_correct_timely 105905
scooby_reward_out_of_bounds 97209
scooby_reward_tracker_hit 0

scooby_reward_none_low_bw 1287118
scooby_reward_none_high_bw 0
scooby_reward_incorrect_low_bw 2576476
scooby_reward_incorrect_high_bw 0
scooby_reward_correct_untimely_low_bw 383666
scooby_reward_correct_untimely_high_bw 0
scooby_reward_correct_timely_low_bw 105905
scooby_reward_correct_timely_high_bw 0
scooby_reward_out_of_bounds_low_bw 97209
scooby_reward_out_of_bounds_high_bw 0
scooby_reward_tracker_hit_low_bw 0
scooby_reward_tracker_hit_high_bw 0

scooby_reward_1 0,2404826,377889,98613,43479,0,
scooby_reward_3 0,20179,1159,908,1739,0,
scooby_reward_4 0,19718,1862,945,2276,0,
scooby_reward_5 0,18714,963,933,2630,0,
scooby_reward_10 0,14061,519,849,4541,0,
scooby_reward_11 0,13251,464,829,4774,0,
scooby_reward_12 0,12041,391,740,5114,0,
scooby_reward_22 0,7832,152,633,7339,0,
scooby_reward_23 0,7365,135,665,7617,0,
scooby_reward_30 0,4860,59,409,8384,0,
scooby_reward_32 0,4299,56,379,8626,0,
scooby_reward_-1 0,16745,7,0,73,0,
scooby_reward_-3 0,16438,3,2,197,0,
scooby_reward_-6 0,16147,7,0,420,0,
scooby_reward_0 1287118,0,0,0,0,0,

scooby_train_called 4450362
scooby_train_compute_reward 3863594

scooby_register_fill_called 3757238
scooby_register_fill_set 2566849
scooby_register_fill_set_total 2566849

scooby_register_prefetch_hit_called 942359
scooby_register_prefetch_hit_set 324269
scooby_register_prefetch_hit_set_total 324269

scooby_pref_issue_scooby 5865943

learning_engine_featurewise.action.called 4457304
learning_engine_featurewise.action.explore 8164
learning_engine_featurewise.action.exploit 4449140
learning_engine_featurewise.action.fallback 2301364
learning_engine_featurewise.action.dyn_fallback_saved_bw 0
learning_engine_featurewise.action.dyn_fallback_saved_bw_acc 1928905
learning_engine_featurewise.action.index_1_explored 549
learning_engine_featurewise.action.index_1_exploited 2927989
learning_engine_featurewise.action.index_3_explored 554
learning_engine_featurewise.action.index_3_exploited 23852
learning_engine_featurewise.action.index_4_explored 547
learning_engine_featurewise.action.index_4_exploited 24566
learning_engine_featurewise.action.index_5_explored 520
learning_engine_featurewise.action.index_5_exploited 22955
learning_engine_featurewise.action.index_10_explored 582
learning_engine_featurewise.action.index_10_exploited 19582
learning_engine_featurewise.action.index_11_explored 549
learning_engine_featurewise.action.index_11_exploited 18862
learning_engine_featurewise.action.index_12_explored 566
learning_engine_featurewise.action.index_12_exploited 17857
learning_engine_featurewise.action.index_22_explored 544
learning_engine_featurewise.action.index_22_exploited 15502
learning_engine_featurewise.action.index_23_explored 556
learning_engine_featurewise.action.index_23_exploited 15283
learning_engine_featurewise.action.index_30_explored 544
learning_engine_featurewise.action.index_30_exploited 13179
learning_engine_featurewise.action.index_32_explored 498
learning_engine_featurewise.action.index_32_exploited 12871
learning_engine_featurewise.action.index_-1_explored 549
learning_engine_featurewise.action.index_-1_exploited 16707
learning_engine_featurewise.action.index_-3_explored 528
learning_engine_featurewise.action.index_-3_exploited 16593
learning_engine_featurewise.action.index_-6_explored 531
learning_engine_featurewise.action.index_-6_exploited 16686
learning_engine_featurewise.action.index_0_explored 547
learning_engine_featurewise.action.index_0_exploited 1286656
learning_engine_featurewise.learn.called 4450362
learning_engine_featurewise.learn.su_skip_PC 0
learning_engine_featurewise.learn.su_skip_PC_Delta 0

learning_engine_featurewise.q_value_histogram.bucket_0 1716833
learning_engine_featurewise.q_value_histogram.bucket_1 105645
learning_engine_featurewise.q_value_histogram.bucket_2 2346302
learning_engine_featurewise.q_value_histogram.bucket_3 17990
learning_engine_featurewise.q_value_histogram.bucket_4 18911
learning_engine_featurewise.q_value_histogram.bucket_5 124903
learning_engine_featurewise.q_value_histogram.bucket_6 118556
learning_engine_featurewise.q_value_histogram.bucket_7 0

learning_engine_featurewise.consensus.total 4449140
learning_engine_featurewise.consensus.feature_align_PC 2933360
learning_engine_featurewise.consensus.feature_align_PC_ratio 0.66
learning_engine_featurewise.consensus.feature_align_PC_Delta 2964803
learning_engine_featurewise.consensus.feature_align_PC_Delta_ratio 0.67
learning_engine_featurewise.consensus.feature_align_all 2926727
learning_engine_featurewise.consensus.feature_align_all_ratio 0.66

learning_engine_featurewise.feature_PC_min_weight 1000000.00000000
learning_engine_featurewise.feature_PC_max_weight 0.00000000
learning_engine_featurewise.feature_PC_Delta_min_weight 1000000.00000000
learning_engine_featurewise.feature_PC_Delta_max_weight 0.00000000
unique_pcs 304
unique_pages 6969
unique_trigger_pcs 67
total_bitmaps_seen 0
unique_bitmaps_seen 0

scooby_bw_epochs 1129442
scooby_bw_level_0 425154
scooby_bw_level_1 438026
scooby_bw_level_2 160163
scooby_bw_level_3 106099

scooby_ipc_epochs 0
scooby_ipc_level_0 0
scooby_ipc_level_1 0
scooby_ipc_level_2 0
scooby_ipc_level_3 0

scooby_cache_acc_epochs 215588
scooby_cache_acc_level_0 133019
scooby_cache_acc_level_1 56359
scooby_cache_acc_level_2 15532
scooby_cache_acc_level_3 4007
scooby_cache_acc_level_4 1750
scooby_cache_acc_level_5 2666
scooby_cache_acc_level_6 1029
scooby_cache_acc_level_7 408
scooby_cache_acc_level_8 198
scooby_cache_acc_level_9 620

Channel_0_RQ_row_buffer_hit 1077109
Channel_0_RQ_row_buffer_miss 3220660
Channel_0_WQ_row_buffer_hit 347564
Channel_0_WQ_row_buffer_miss 948954
Channel_0_WQ_full 0
Channel_0_dbus_congested 3091498

avg_congested_cycle 10

DRAM_bw_pochs 1129442
DRAM_bw_level_0 425154
DRAM_bw_level_1 438026
DRAM_bw_level_2 160163
DRAM_bw_level_3 106099
