*************************************************
   ChampSim Multicore Out-of-Order Simulator
   Last compiled: Apr  3 2025 20:54:34
*************************************************
parsing config file: /home/zir/Pythia/config/mlop.ini

trace_0 /home/zir/ChampSim/ML-DPC/ChampSimTraces/gap/bc-5.trace.gz
adding L2C_PREFETCHER: MLOP
Initialize SHIP state
warmup_instructions 10000000
simulation_instructions 50000000
champsim_seed 53
measure_ipc 0
measure_ipc_epoch 1000
measure_dram_bw 1
measure_dram_bw_epoch 256
measure_cache_acc 1
measure_cache_acc_epoch 1024
l1d_perfect 0
l2c_perfect 0
llc_perfect 0
l1d_semi_perfect 0
l2c_semi_perfect 0
llc_semi_perfect 0
semi_perfect_cache_page_buffer_size 64

num_cpus 1
cpu_freq 4000
dram_io_freq 2400
page_size 4096
block_size 64
max_read_per_cycle 8
max_fill_per_cycle 1
dram_channels 1
log2_dram_channels 0
dram_ranks 1
dram_banks 8
dram_rows 65536
dram_columns 128
dram_row_size 8
dram_size 4096
dram_pages 1048576

fetch_width 6
decode_width 6
exec_width 4
lq_width 2
sq_width 2
retire_width 4
scheduler_size 128
branch_mispredict_penalty 20
rob_size 256
lq_size 72
sq_size 56
num_instr_destinations_sparc 4
num_instr_destinations 2
num_instr_sources 4

itlb_set 16
itlb_way 8
itlb_rq_size 16
itlb_wq_size 16
itlb_pq_size 0
itlb_mshr_size 8
itlb_latency 1

dtlb_set 16
dtlb_way 4
dtlb_rq_size 16
dtlb_wq_size 16
dtlb_pq_size 0
dtlb_mshr_size 8
dtlb_latency 1

stlb_set 128
stlb_way 12
stlb_rq_size 32
stlb_wq_size 32
stlb_pq_size 0
stlb_mshr_size 16
stlb_latency 8

l1i_size 32
l1i_set 64
l1i_way 8
l1i_rq_size 64
l1i_wq_size 64
l1i_pq_size 8
l1i_mshr_size 8
l1i_latency 1

l1d_size 32
l1d_set 64
l1d_way 8
l1d_rq_size 64
l1d_wq_size 64
l1d_pq_size 8
l1d_mshr_size 16
l1d_latency 4

l2c_size 256
l2c_set 512
l2c_way 8
l2c_rq_size 32
l2c_wq_size 32
l2c_pq_size 32
l2c_mshr_size 32
l2c_latency 10

llc_size 2048
llc_set 2048
llc_way 16
llc_rq_size 32
llc_wq_size 32
llc_pq_size 32
llc_mshr_size 64
llc_latency 20

dram_channel_width 8
dram_wq_size 64
dram_rq_size 64
tRP 15
tRCD 15
tCAS 12.5
dram_dbus_turn_around_time 30
dram_write_high_wm 56
dram_write_low_wm 48
min_dram_writes_per_switch 16
dram_mtps 2400
dram_dbus_return_time 13

mlop_pref_degree 16
mlop_num_updates 500
mlop_l1d_thresh 2
mlop_l2c_thresh 0.75
mlop_llc_thresh 0.3
mlop_debug_level 0
mlop_blocks_in_cache 4096
mlop_blocks_in_zone 64
mlop_amt_size 2048
mlop_PF_DEGREE 16
mlop_NUM_UPDATES 500
mlop_L1D_THRESH 1000
mlop_L2C_THRESH 375
mlop_LLC_THRESH 150
mlop_ORIGIN 63
mlop_MAX_OFFSET 63
mlop_MIN_OFFSET -63
mlop_ORIGIN 63
mlop_NUM_OFFSETS 127


Heartbeat CPU  0 instructions:    1000000 cycles:     577279 heartbeat IPC: 1.73226 cumulative IPC: 1.73226 (Simulation time: 0 hr 0 min 2 sec) 
Heartbeat CPU  0 instructions:    2000001 cycles:    1129061 heartbeat IPC: 1.81231 cumulative IPC: 1.77138 (Simulation time: 0 hr 0 min 4 sec) 
Heartbeat CPU  0 instructions:    3000002 cycles:    1961663 heartbeat IPC: 1.20106 cumulative IPC: 1.52932 (Simulation time: 0 hr 0 min 5 sec) 
Heartbeat CPU  0 instructions:    4000000 cycles:    2974017 heartbeat IPC: 0.98779 cumulative IPC: 1.34498 (Simulation time: 0 hr 0 min 7 sec) 
Heartbeat CPU  0 instructions:    5000000 cycles:    3946397 heartbeat IPC: 1.02840 cumulative IPC: 1.26698 (Simulation time: 0 hr 0 min 8 sec) 
Heartbeat CPU  0 instructions:    6000003 cycles:    4865580 heartbeat IPC: 1.08793 cumulative IPC: 1.23315 (Simulation time: 0 hr 0 min 9 sec) 
Heartbeat CPU  0 instructions:    7000001 cycles:    5761017 heartbeat IPC: 1.11677 cumulative IPC: 1.21506 (Simulation time: 0 hr 0 min 11 sec) 
Heartbeat CPU  0 instructions:    8000000 cycles:    6610307 heartbeat IPC: 1.17745 cumulative IPC: 1.21023 (Simulation time: 0 hr 0 min 12 sec) 
Heartbeat CPU  0 instructions:    9000000 cycles:    7445538 heartbeat IPC: 1.19727 cumulative IPC: 1.20878 (Simulation time: 0 hr 0 min 13 sec) 
Heartbeat CPU  0 instructions:   10000001 cycles:    8238754 heartbeat IPC: 1.26069 cumulative IPC: 1.21378 (Simulation time: 0 hr 0 min 14 sec) 

Warmup complete CPU  0 instructions:   10000001 cycles:    8238754 (Simulation time: 0 hr 0 min 14 sec) 

Heartbeat CPU  0 instructions:   11000003 cycles:   14664449 heartbeat IPC: 0.15563 cumulative IPC: 0.15563 (Simulation time: 0 hr 0 min 17 sec) 
Heartbeat CPU  0 instructions:   12000000 cycles:   20682011 heartbeat IPC: 0.16618 cumulative IPC: 0.16073 (Simulation time: 0 hr 0 min 20 sec) 
Heartbeat CPU  0 instructions:   13000003 cycles:   26794104 heartbeat IPC: 0.16361 cumulative IPC: 0.16168 (Simulation time: 0 hr 0 min 23 sec) 
Heartbeat CPU  0 instructions:   14000001 cycles:   33010788 heartbeat IPC: 0.16086 cumulative IPC: 0.16147 (Simulation time: 0 hr 0 min 26 sec) 
Heartbeat CPU  0 instructions:   15000000 cycles:   38895067 heartbeat IPC: 0.16994 cumulative IPC: 0.16310 (Simulation time: 0 hr 0 min 29 sec) 
Heartbeat CPU  0 instructions:   16000000 cycles:   45199772 heartbeat IPC: 0.15861 cumulative IPC: 0.16233 (Simulation time: 0 hr 0 min 32 sec) 
Heartbeat CPU  0 instructions:   17000002 cycles:   50692753 heartbeat IPC: 0.18205 cumulative IPC: 0.16488 (Simulation time: 0 hr 0 min 35 sec) 
Heartbeat CPU  0 instructions:   18000000 cycles:   57411765 heartbeat IPC: 0.14883 cumulative IPC: 0.16269 (Simulation time: 0 hr 0 min 37 sec) 
Heartbeat CPU  0 instructions:   19000000 cycles:   63984494 heartbeat IPC: 0.15214 cumulative IPC: 0.16145 (Simulation time: 0 hr 0 min 40 sec) 
Heartbeat CPU  0 instructions:   20000000 cycles:   70034176 heartbeat IPC: 0.16530 cumulative IPC: 0.16182 (Simulation time: 0 hr 0 min 43 sec) 
Heartbeat CPU  0 instructions:   21000000 cycles:   75535965 heartbeat IPC: 0.18176 cumulative IPC: 0.16345 (Simulation time: 0 hr 0 min 46 sec) 
Heartbeat CPU  0 instructions:   22000002 cycles:   81496961 heartbeat IPC: 0.16776 cumulative IPC: 0.16380 (Simulation time: 0 hr 0 min 49 sec) 
Heartbeat CPU  0 instructions:   23000000 cycles:   87369259 heartbeat IPC: 0.17029 cumulative IPC: 0.16429 (Simulation time: 0 hr 0 min 51 sec) 
Heartbeat CPU  0 instructions:   24000000 cycles:   93469436 heartbeat IPC: 0.16393 cumulative IPC: 0.16426 (Simulation time: 0 hr 0 min 54 sec) 
Heartbeat CPU  0 instructions:   25000000 cycles:   99162205 heartbeat IPC: 0.17566 cumulative IPC: 0.16497 (Simulation time: 0 hr 0 min 57 sec) 
Heartbeat CPU  0 instructions:   26000001 cycles:  104954432 heartbeat IPC: 0.17265 cumulative IPC: 0.16543 (Simulation time: 0 hr 1 min 0 sec) 
Heartbeat CPU  0 instructions:   27000002 cycles:  110974481 heartbeat IPC: 0.16611 cumulative IPC: 0.16547 (Simulation time: 0 hr 1 min 2 sec) 
Heartbeat CPU  0 instructions:   28000000 cycles:  116954059 heartbeat IPC: 0.16724 cumulative IPC: 0.16557 (Simulation time: 0 hr 1 min 5 sec) 
Heartbeat CPU  0 instructions:   29000003 cycles:  122416519 heartbeat IPC: 0.18307 cumulative IPC: 0.16641 (Simulation time: 0 hr 1 min 8 sec) 
Heartbeat CPU  0 instructions:   30000003 cycles:  128631005 heartbeat IPC: 0.16091 cumulative IPC: 0.16612 (Simulation time: 0 hr 1 min 11 sec) 
Heartbeat CPU  0 instructions:   31000003 cycles:  133918623 heartbeat IPC: 0.18912 cumulative IPC: 0.16709 (Simulation time: 0 hr 1 min 14 sec) 
Heartbeat CPU  0 instructions:   32000000 cycles:  140235871 heartbeat IPC: 0.15830 cumulative IPC: 0.16667 (Simulation time: 0 hr 1 min 17 sec) 
Heartbeat CPU  0 instructions:   33000001 cycles:  145997181 heartbeat IPC: 0.17357 cumulative IPC: 0.16696 (Simulation time: 0 hr 1 min 19 sec) 
Heartbeat CPU  0 instructions:   34000000 cycles:  151976405 heartbeat IPC: 0.16725 cumulative IPC: 0.16697 (Simulation time: 0 hr 1 min 22 sec) 
Heartbeat CPU  0 instructions:   35000001 cycles:  157841466 heartbeat IPC: 0.17050 cumulative IPC: 0.16711 (Simulation time: 0 hr 1 min 25 sec) 
Heartbeat CPU  0 instructions:   36000000 cycles:  163826482 heartbeat IPC: 0.16708 cumulative IPC: 0.16711 (Simulation time: 0 hr 1 min 28 sec) 
Heartbeat CPU  0 instructions:   37000002 cycles:  169127927 heartbeat IPC: 0.18863 cumulative IPC: 0.16782 (Simulation time: 0 hr 1 min 31 sec) 
Heartbeat CPU  0 instructions:   38000002 cycles:  173549300 heartbeat IPC: 0.22617 cumulative IPC: 0.16938 (Simulation time: 0 hr 1 min 33 sec) 
Heartbeat CPU  0 instructions:   39000001 cycles:  178098397 heartbeat IPC: 0.21982 cumulative IPC: 0.17073 (Simulation time: 0 hr 1 min 36 sec) 
Heartbeat CPU  0 instructions:   40000000 cycles:  184302140 heartbeat IPC: 0.16119 cumulative IPC: 0.17039 (Simulation time: 0 hr 1 min 39 sec) 
Heartbeat CPU  0 instructions:   41000000 cycles:  190001067 heartbeat IPC: 0.17547 cumulative IPC: 0.17055 (Simulation time: 0 hr 1 min 42 sec) 
Heartbeat CPU  0 instructions:   42000003 cycles:  195709032 heartbeat IPC: 0.17519 cumulative IPC: 0.17069 (Simulation time: 0 hr 1 min 45 sec) 
Heartbeat CPU  0 instructions:   43000000 cycles:  200940421 heartbeat IPC: 0.19115 cumulative IPC: 0.17125 (Simulation time: 0 hr 1 min 48 sec) 
Heartbeat CPU  0 instructions:   44000000 cycles:  206942107 heartbeat IPC: 0.16662 cumulative IPC: 0.17111 (Simulation time: 0 hr 1 min 50 sec) 
Heartbeat CPU  0 instructions:   45000001 cycles:  212858571 heartbeat IPC: 0.16902 cumulative IPC: 0.17105 (Simulation time: 0 hr 1 min 53 sec) 
Heartbeat CPU  0 instructions:   46000003 cycles:  218749288 heartbeat IPC: 0.16976 cumulative IPC: 0.17101 (Simulation time: 0 hr 1 min 56 sec) 
Heartbeat CPU  0 instructions:   47000001 cycles:  224367060 heartbeat IPC: 0.17801 cumulative IPC: 0.17119 (Simulation time: 0 hr 1 min 59 sec) 
Heartbeat CPU  0 instructions:   48000000 cycles:  229926104 heartbeat IPC: 0.17989 cumulative IPC: 0.17141 (Simulation time: 0 hr 2 min 1 sec) 
Heartbeat CPU  0 instructions:   49000002 cycles:  235911730 heartbeat IPC: 0.16707 cumulative IPC: 0.17130 (Simulation time: 0 hr 2 min 4 sec) 
Heartbeat CPU  0 instructions:   50000001 cycles:  241705867 heartbeat IPC: 0.17259 cumulative IPC: 0.17133 (Simulation time: 0 hr 2 min 7 sec) 
Heartbeat CPU  0 instructions:   51000003 cycles:  247026291 heartbeat IPC: 0.18796 cumulative IPC: 0.17170 (Simulation time: 0 hr 2 min 10 sec) 
Heartbeat CPU  0 instructions:   52000000 cycles:  253031431 heartbeat IPC: 0.16652 cumulative IPC: 0.17157 (Simulation time: 0 hr 2 min 13 sec) 
Heartbeat CPU  0 instructions:   53000000 cycles:  258204309 heartbeat IPC: 0.19332 cumulative IPC: 0.17202 (Simulation time: 0 hr 2 min 16 sec) 
Heartbeat CPU  0 instructions:   54000000 cycles:  264196733 heartbeat IPC: 0.16688 cumulative IPC: 0.17190 (Simulation time: 0 hr 2 min 18 sec) 
Heartbeat CPU  0 instructions:   55000001 cycles:  269709848 heartbeat IPC: 0.18139 cumulative IPC: 0.17210 (Simulation time: 0 hr 2 min 21 sec) 
Heartbeat CPU  0 instructions:   56000000 cycles:  275202894 heartbeat IPC: 0.18205 cumulative IPC: 0.17231 (Simulation time: 0 hr 2 min 24 sec) 
Heartbeat CPU  0 instructions:   57000001 cycles:  280680506 heartbeat IPC: 0.18256 cumulative IPC: 0.17251 (Simulation time: 0 hr 2 min 27 sec) 
Heartbeat CPU  0 instructions:   58000000 cycles:  285688919 heartbeat IPC: 0.19966 cumulative IPC: 0.17300 (Simulation time: 0 hr 2 min 30 sec) 
Heartbeat CPU  0 instructions:   59000003 cycles:  291312378 heartbeat IPC: 0.17783 cumulative IPC: 0.17310 (Simulation time: 0 hr 2 min 33 sec) 
Heartbeat CPU  0 instructions:   60000000 cycles:  296840290 heartbeat IPC: 0.18090 cumulative IPC: 0.17325 (Simulation time: 0 hr 2 min 35 sec) 
Finished CPU 0 instructions: 50000000 cycles: 288601544 cumulative IPC: 0.17325 (Simulation time: 0 hr 2 min 35 sec) 

ChampSim completed all CPUs

[ROI Statistics]
Core_0_instructions 50000000
Core_0_cycles 288601544
Core_0_IPC 0.17325

Core_0_branch_prediction_accuracy 92.88023
Core_0_branch_MPKI 9.66558
Core_0_average_ROB_occupancy_at_mispredict 101.10950

Core_0_L1D_total_access 14910001
Core_0_L1D_total_hit 11004994
Core_0_L1D_total_miss 3905007
Core_0_L1D_loads 10783166
Core_0_L1D_load_hit 6904645
Core_0_L1D_load_miss 3878521
Core_0_L1D_RFOs 4126835
Core_0_L1D_RFO_hit 4100349
Core_0_L1D_RFO_miss 26486
Core_0_L1D_prefetches 0
Core_0_L1D_prefetch_hit 0
Core_0_L1D_prefetch_miss 0
Core_0_L1D_writebacks 0
Core_0_L1D_writeback_hit 0
Core_0_L1D_writeback_miss 0
Core_0_L1D_prefetch_requested 0
Core_0_L1D_prefetch_dropped 0
Core_0_L1D_prefetch_issued 0
Core_0_L1D_prefetch_filled 0
Core_0_L1D_prefetch_useful 0
Core_0_L1D_prefetch_useless 0
Core_0_L1D_prefetch_late 0
Core_0_L1D_average_miss_latency 192.58884

Core_0_L1D_rq_access 14911544
Core_0_L1D_rq_forward 0
Core_0_L1D_rq_merged 3948796
Core_0_L1D_rq_to_cache 10962748
Core_0_L1D_rq_full 0

Core_0_L1D_wq_access 4166785
Core_0_L1D_wq_forward 0
Core_0_L1D_wq_merged 13
Core_0_L1D_wq_to_cache 4166772
Core_0_L1D_wq_full 0

Core_0_L1D_pq_access 0
Core_0_L1D_pq_forward 0
Core_0_L1D_pq_merged 0
Core_0_L1D_pq_to_cache 0
Core_0_L1D_pq_full 0

Core_0_L1D_acc_epochs 223111
Core_0_L1D_acc_level_0 223111
Core_0_L1D_acc_level_1 0
Core_0_L1D_acc_level_2 0
Core_0_L1D_acc_level_3 0
Core_0_L1D_acc_level_4 0
Core_0_L1D_acc_level_5 0
Core_0_L1D_acc_level_6 0
Core_0_L1D_acc_level_7 0
Core_0_L1D_acc_level_8 0
Core_0_L1D_acc_level_9 0

Core_0_L1I_total_access 5273915
Core_0_L1I_total_hit 5273915
Core_0_L1I_total_miss 0
Core_0_L1I_loads 5273915
Core_0_L1I_load_hit 5273915
Core_0_L1I_load_miss 0
Core_0_L1I_RFOs 0
Core_0_L1I_RFO_hit 0
Core_0_L1I_RFO_miss 0
Core_0_L1I_prefetches 0
Core_0_L1I_prefetch_hit 0
Core_0_L1I_prefetch_miss 0
Core_0_L1I_writebacks 0
Core_0_L1I_writeback_hit 0
Core_0_L1I_writeback_miss 0
Core_0_L1I_prefetch_requested 0
Core_0_L1I_prefetch_dropped 0
Core_0_L1I_prefetch_issued 0
Core_0_L1I_prefetch_filled 0
Core_0_L1I_prefetch_useful 0
Core_0_L1I_prefetch_useless 0
Core_0_L1I_prefetch_late 0
Core_0_L1I_average_miss_latency -nan

Core_0_L1I_rq_access 49999986
Core_0_L1I_rq_forward 0
Core_0_L1I_rq_merged 44726071
Core_0_L1I_rq_to_cache 5273915
Core_0_L1I_rq_full 0

Core_0_L1I_wq_access 0
Core_0_L1I_wq_forward 0
Core_0_L1I_wq_merged 0
Core_0_L1I_wq_to_cache 0
Core_0_L1I_wq_full 0

Core_0_L1I_pq_access 0
Core_0_L1I_pq_forward 0
Core_0_L1I_pq_merged 0
Core_0_L1I_pq_to_cache 0
Core_0_L1I_pq_full 0

Core_0_L1I_acc_epochs 223111
Core_0_L1I_acc_level_0 223111
Core_0_L1I_acc_level_1 0
Core_0_L1I_acc_level_2 0
Core_0_L1I_acc_level_3 0
Core_0_L1I_acc_level_4 0
Core_0_L1I_acc_level_5 0
Core_0_L1I_acc_level_6 0
Core_0_L1I_acc_level_7 0
Core_0_L1I_acc_level_8 0
Core_0_L1I_acc_level_9 0

Core_0_L2C_total_access 5921489
Core_0_L2C_total_hit 2087158
Core_0_L2C_total_miss 3834331
Core_0_L2C_loads 3878521
Core_0_L2C_load_hit 111826
Core_0_L2C_load_miss 3766695
Core_0_L2C_RFOs 26486
Core_0_L2C_RFO_hit 59
Core_0_L2C_RFO_miss 26427
Core_0_L2C_prefetches 41571
Core_0_L2C_prefetch_hit 623
Core_0_L2C_prefetch_miss 40948
Core_0_L2C_writebacks 1974911
Core_0_L2C_writeback_hit 1974650
Core_0_L2C_writeback_miss 261
Core_0_L2C_prefetch_requested 1428135
Core_0_L2C_prefetch_dropped 0
Core_0_L2C_prefetch_issued 1428135
Core_0_L2C_prefetch_filled 61499
Core_0_L2C_prefetch_useful 9571
Core_0_L2C_prefetch_useless 51928
Core_0_L2C_prefetch_late 2267
Core_0_L2C_average_miss_latency 162.16837

Core_0_L2C_rq_access 3905007
Core_0_L2C_rq_forward 0
Core_0_L2C_rq_merged 0
Core_0_L2C_rq_to_cache 3905007
Core_0_L2C_rq_full 0

Core_0_L2C_wq_access 1974911
Core_0_L2C_wq_forward 0
Core_0_L2C_wq_merged 0
Core_0_L2C_wq_to_cache 1974911
Core_0_L2C_wq_full 0

Core_0_L2C_pq_access 1428135
Core_0_L2C_pq_forward 0
Core_0_L2C_pq_merged 1207
Core_0_L2C_pq_to_cache 1426928
Core_0_L2C_pq_full 0

Core_0_L2C_acc_epochs 223111
Core_0_L2C_acc_level_0 221365
Core_0_L2C_acc_level_1 278
Core_0_L2C_acc_level_2 199
Core_0_L2C_acc_level_3 267
Core_0_L2C_acc_level_4 242
Core_0_L2C_acc_level_5 186
Core_0_L2C_acc_level_6 167
Core_0_L2C_acc_level_7 94
Core_0_L2C_acc_level_8 91
Core_0_L2C_acc_level_9 222

Core_0_LLC_total_access 6860964
Core_0_LLC_total_hit 3333397
Core_0_LLC_total_miss 3527567
Core_0_LLC_loads 3764444
Core_0_LLC_load_hit 1673748
Core_0_LLC_load_miss 2090696
Core_0_LLC_RFOs 26427
Core_0_LLC_RFO_hit 1139
Core_0_LLC_RFO_miss 25288
Core_0_LLC_prefetches 1129601
Core_0_LLC_prefetch_hit 153854
Core_0_LLC_prefetch_miss 975747
Core_0_LLC_writebacks 1940492
Core_0_LLC_writeback_hit 1504656
Core_0_LLC_writeback_miss 435836
Core_0_LLC_prefetch_requested 0
Core_0_LLC_prefetch_dropped 0
Core_0_LLC_prefetch_issued 0
Core_0_LLC_prefetch_filled 1167708
Core_0_LLC_prefetch_useful 228739
Core_0_LLC_prefetch_useless 935569
Core_0_LLC_prefetch_late 21647
Core_0_LLC_average_miss_latency 217.76287

Core_0_LLC_rq_access 3790872
Core_0_LLC_rq_forward 0
Core_0_LLC_rq_merged 0
Core_0_LLC_rq_to_cache 3790871
Core_0_LLC_rq_full 0

Core_0_LLC_wq_access 1940493
Core_0_LLC_wq_forward 1
Core_0_LLC_wq_merged 0
Core_0_LLC_wq_to_cache 1940493
Core_0_LLC_wq_full 0

Core_0_LLC_pq_access 1382022
Core_0_LLC_pq_forward 0
Core_0_LLC_pq_merged 94
Core_0_LLC_pq_to_cache 1381928
Core_0_LLC_pq_full 0

Core_0_LLC_acc_epochs 289884
Core_0_LLC_acc_level_0 184512
Core_0_LLC_acc_level_1 42789
Core_0_LLC_acc_level_2 26276
Core_0_LLC_acc_level_3 13839
Core_0_LLC_acc_level_4 5019
Core_0_LLC_acc_level_5 7728
Core_0_LLC_acc_level_6 3799
Core_0_LLC_acc_level_7 1512
Core_0_LLC_acc_level_8 1030
Core_0_LLC_acc_level_9 3380

Core_0_major_page_fault 0
Core_0_minor_page_fault 8863

[MLOP] History of tracked zone:
IIIIIIIIIIIIIIIIIIIIIIIIIIIIIIIIIIIIIIIIIIIIIIIIIIIIIIIIIIIIIIII
IIIIIIIIIIIIIIIIIIIIIIIIIIIIIIIIIIIIIIIIIIIIIIIIIIIIIIIAIIIIIIII
IIIIIIIIIIIIIIIIIIIIIIIIIIIIIIIIIIIIIIIIIIIIIIIIIIIIIIIAIAIIIIII
IIIIIIIIIIIIIIIIIIIIIIIIIIIIIIIIIIIIIIIIIIIIIIIIIIIIIIIAIAIIIAII
IIIIIIIIIIIIIIIIIIIIIIIIIIIIIIIIIIIIIIIIIIIIIIIIIIIIIIIAIAIIIA4I
IIIIIIIIIIIIIIIIIIIIIIIAIIIIIIIIIIIIIIIIIIIIIIIIIIIIIIIAIAIIIA4I
IIIIIIIIIIIIIIIIIIIIIIIAIIIIIIIIIIIIIIIAIIIIIIIIIIIIIIIAIAIIIA4I
IIIIAIIIIIIIIIIIIIIIIIIAIIIIIIIIIIIIIIIAIIIIIIIIIIIIIIIAIAIIIA4I
IIIIAIIIIIIIIIIIIIIAIIIAIIIIIIIIIIIIIIIAIIIIIIIIIIIIIIIAIAIIIA4I
IIIIAIIIIIIIIIIIIIIAIIAAIIIIIIIIIIIIIIIAIIIIIIIIIIIIIIIAIAIIIA4I
IIIIAIIIIIIIIIIIIIIAIIAAIIAIIIIIIIIIIIIAIIIIIIIIIIIIIIIAIAIIIA4I
IIIIAIIIIIIIIIIIIIIAIIAAIIAIIAIIIIIIIIIAIIIIIIIIIIIIIIIAIAIIIA4I
IIIIAIIIIIIIIIIIIIIAIIAAIIAIIAIIAIIIIIIAIIIIIIIIIIIIIIIAIAIIIA4I
IIIIAIIIIIIIIIIIIIIAIIAAIIAIIAIIAIIAIIIAIIIIIIIIIIIIIIIAIAIIIA4I
IIIIAIIIIIIIIIIIIIIAIIAAIIAIIAIIAIIAIIAAIIIIIIIIIIIIIIIAIAIIIA4I
IIIIAIIIIIIIIIIIIIIAIIAAIIAIIAIIAIIAIIAAIIIIIIIIAIIIIIIAIAIIIA4I
IIIIAIIIIIIIIIIIIIIAIIAAIIAIIAIIAIIAIIAAIIIIIIIIAIIIIAIAIAIIIA4I
IIIIIIIIIIIIIIIIIIIIIIIIIIIIIIAIIIIIIIIIIIIIIIIIIIIIIIIIIIIIIIII
IIIIIIIIIIIIIIIIIIIIIIIIIIIIIIAIIIIIIIIIIIIIIIIIIIIIIIIIAIIIIIII
IIIIIIIIIIIIIIIIIIIIIIIIIIIIIIAIIIIIIIIIIIIIIIIIIIIIIIIIAAIIIIII
IIIIIIIIIIIIIIIIAIIIIIIIIIIIIIAIIIIIIIIIIIIIIIIIIIIIIIIIAAIIIIII
IIIIIIIIIIIIIIIIAIAIIIIIIIIIIIAIIIIIIIIIIIIIIIIIIIIIIIIIAAIIIIII
IIIIIIIIIIIIIIIIAIAIIIIIIIIIIIAIIIIIIIIIIIIIIIAIIIIIIIIIAAIIIIII
IIIIIIIIIIIIIIIIAIAIIAIIIIIIIIAIIIIIIIIIIIIIIIAIIIIIIIIIAAIIIIII
IIIIIIIIIIIIIIIIAIAIIAIIIIIIIIAIIIAIIIIIIIIIIIAIIIIIIIIIAAIIIIII
IIIIIIIIIIIIIIIIAIAIIAIIIIIIIIAIIIAIIIIIIIIIIIAIIIIIIIIIAAIIIIAI
IIIIIIIIIIIIIIIIAIAIIAIIIIIIIIAIIIAIIA4IIIIIIIAIIIIIIIIIAAIIIIAI
IIIIIIIIIIIIIIIIAIAIIAIIIIIIIIAIIIAIIA4IIIIIIIAIIIIIIIIIAAIIIAAI
IIIIIIIIIIIIIIIIAIAIIAIIIIIIIIAIIAAIIA4IIIIIIIAIIIIIIIIIAAIIIAAI
IIIIIIIIIIIIIIIIAIAIIAIIIIIIIIIIIAAIIA4IIIIIIIAIIIIIIIIIAAIIIAAI
IIIIA44444444I44A4A44AIIIIIIIIIIIAAIIA4IIIIIIIAIIIIIIIIIAAIIIAAI
IIIIA44444444A44A4A44AI44I4I44IIIAAIIA4IIIIIIIAIIIIIIIIIAAIIIAAI
IIIIA44444444A4AA4A44A44444I4444IAAIIA4IIIIIIIAIIIIIIIIIAAIIIAAI
IIIIA44444444A4AA4A44A4444A444444AAI4A44I44IIIAIIIIIIIIIAAIIIAAI
IIIIA44444444A4AA4A44A4444A444444AAI4AA4444444AI44I4I44IAAIIIAAI
IIIIIIIIAIIIIIIIIIIIIIIIIIIIIIIIIIIIIIIIIIIIIIIIIIIIIIIIIIIIIIII
IIIIIIIIAIIIIIIIIAIIIIIIIIIIIIIIIIIIIIIIIIIIIIIIIIIIIIIIIIIIIIII
IIIIIIIIAIIIIIIIIAIIIIIIIIIIIIIIIIIAIIIIIIIIIIIIIIIIIIIIIIIIIIII
IIIIIIIIAIIIIIIIIAIIIIAIIIIIIIIIIIIAIIIIIIIIIIIIIIIIIIIIIIIIIIII
IIIIIIIIAIIIIIIIIAIIIIAIIIIIIIIIIIIAIIIIIIIIIIIIIIIIIIIIIAIIIIII
IIIIIIIIIIIIIIIIIIIIIIIIIIIIIIAIIIIIIIIIIIIIIIIIIIIIIIIIIIIIIIII
IIIIIIIIIIIIIIIIIIIIIIIIIIIIIIAIIIIIIIAIIIIIIIIIIIIIIIIIIIIIIIII
IIIIIIIIIIIIIIIIIIIIIIIIIIIIIIAIIIIIIIAIIIIIIIIIIAIIIIIIIIIIIIII
IIIIIIIIIIIIIIIIIAIIIIIIIIIIIIAIIIIIIIAIIIIIIIIIIAIIIIIIIIIIIIII
IIIIIIIIIIIIIIIIIAIIIIIIIIIIIIAI4IIIIIAIIIIIIIIIIAIIIIIIIIIIIIII
IIIIIIIIIIIIIIIIIAIIIIIIIIIIAIAI4IIIIIAIIIIIIIIIIAIIIIIIIIIIIIII
IIIIIIIIIIIIIIIIIAIIIIIIIIIIAIAI4IIIIIAIIIIIIIIIIAIIIIIIIIIIIAII
IIIIIIIIIIIIIIIIIAIIIIIIIIIIAIAI4IIIIIAIIIIIIIIIIAIAIIIIIIIIIAII
IIIIA4IIIIIIIIIIIAIIIIIIIIIIAIAI4IIIIIAIIIIIIIIIIAIAIIIIIIIIIAII
IIIIA4IIIIIA4IIIIAIIIIIIIIIIAIAI4IIIIIAIIIIIIIIIIAIAIIIIIIIIIAII
IIIIA4IIIIIA4IIIIAIIIIA4IIIIAIAI4IIIIIAIIIIIIIIIIAIAIIIIIIIIIAII
IIIIA4IIIIIA4IIIIAIIIIA4IIIIAIAIA4IIIIAIIIIIIIIIIAIAIIIIIIIIIAII
IIIIA4IIIIIA4IIIIAIIIIA4IIIIAIAIA4IIIIA4IIIIIIIIIAIAIIIIIIIIIAII
IIIIA4IIIIIA4IIIIAIIIIA4IIIIAIAIA4IIIIA4IIIIIA4IIAIAIIIIIIIIIAII
IIIIA4IIIIIA4IIIIAIIIIA4IIIIAIAIA4IIIIA4IIIIIA4IIAIA4IIIIIIIIAII
IIIIA4IIIIIA4IIIIAIIIIA4IIIIAIAIA4IIIIA4IIIIIA4IIAIA4IIA4IIIIAII
IIIIA4IIIIIA4IIIIAIIIIA4IIIIAIAIA4IIIIA4IIIIIA4IIAIA4IIA4A4IIAII
IIIIA4IIIIIA4IIIIAIIIIA4IIIIAIAIA4IIIIA4IIIIIA4IIAIA4IIA4A4IIA4I
A2222222222222222IIIIIIIIIIIIIIIIIIIIIIIIIIIIIIIIIIIIIIIIIIIIIII
A222A2222222222222222IIIIIIIIIIIIIIIIIIIIIIIIIIIIIIIIIIIIIIIIIII
A222AA2222222222222222IIIIIIIIIIIIIIIIIIIIIIIIIIIIIIIIIIIIIIIIII
A222AA2222222222222222IIIA2222222222222222IIIIIIIIIIIIIIIIIIIIII
A222AA2222222222222222IIIA222222222222A2222222222222222IIIIIIIII
A222AA2222222222222222IIIA222222222222A2222222222222222IIA222222
A222AA22222222222222I2IIIA222222222222A2222222222222222IIA222222
A222AA2A222222222222I2IIIA222222222222A2222222222222222IIA222222
A222AA2A222222222222I2IIIA222222222222A222222222222222AI4A222222
A222AA2A222222222222I2IIIA222222222222A222222222222222AI4A222A22
IIIIIIIIIIIIIIIIIIIIIIIIIIIIIIIIIIIIIIIIIIIIIIIIIIIIIIIIIIIIIA4I
IIIIIIIIIIIIIIAI4IIIIIIIIIIIIIIIIIIIIIIIIIIIIIIIIIIIIIIIIIIIIIII
IIIIIIIIIIIIIIAI4IIIIIIIIIIIIAI4IIIIIIIIIIIIIIIIIIIIIIIIIIIIIIII
IIIIIIIIIIIIIIAI4IIIIIIIIIIIIAI4IIIIIIIIIIIIIIIIIIIIIIIIIIIIIAI4
IIIIIIIIIAI4III4IIIIIIIIIIIIIIIIIIIIIIIIIIIIIIIIIIIIIIIIIIIIIIII
IIIIIA4I4AI4III4IIIIIIIIIIIIIIIIIIIIIIIIIIIIIIIIIIIIIIIIIIIIIIII
IIIIIA4I4AI4III4IIIIIIIIIIIIIIA4I4IIIIIIIIIIIIIIIIIIIIIIIIIIIIII
IIIIIA4I4AI4III4IIIIIIIIIIIIIIA4I4IIIIIIIIIIIIIIIIIIIIIIIIIIIA4I
IIAI4A4I4A44III4IIIIIIIIIIIIIIA4I4IIIIIIIIIIIIIIIIIIIIIIIIIIIA4I
IIAI4A4I4A44III4IAI4I4III4IIIIA4I4IIIIIIIIIIIIIIIIIIIIIIIIIIIA4I
IIAI4A4I4A44III4IAI4I4III4IIIIA4I4IIIIIIIIIIIIIIIIIIIIIIIIIIIA44
IIIIIIIIIIIIIIIAI4II4IIIIIIIIIIIIIIIIIIIIIIIIIIIIIIIIIIIIIIIIIII
IIIIIIIIIIIIIIIAI4II4IIIIIIIIIAI4II4IIIIIIIIIIIIIIIIIIIIIIIIIIII
IIIIIIIIIIIIIIIAI4II4IIIIIIIIIAI4II4IIAI4II4IIIIIIIIIIIIIIIIIIII
IIIIIIIIIIIIIIIAI4II4IIIIIIIIIAI4II4IIAI4II4IIIIIIIIIIIIIAI4II4I
IIIIIIIIIIIIIIIIIIIIIIIIIIIIIIIIIIIIIIIIIIIIIIIIIIIIIIIIIAIIIIII
IIIIIIIIIAI4IIIIIIIIIIIIIIIIIIIIIIIIIIIIIIIIIIIIIIIIIIIIIAIIIIII
IIIIIIIIIAI4IIIIIIIIIIIIIIIIIIAI4IIIIIIIIIIIIIIIIIIIIIIIIAIIIIII
IIIIIIIIIAI4IIIIIIIIIIIIIIIIIIAI4IIIIIAI4IIIIIIIIIIIIIIIIAIIIIII
IIIIIIIIIAI4IIIIIIIIIIIIIIIIIIAI4IIIIIAI4IIIIIIIIIIIIIIAIAIIIIII
IIIIIIIIIAI4IIIIIIIIIIIIIIIIIIAI4IIIIIAI4IIIIIIIIIIIIIIAIAIIIAI4
IIIIIIIIIIIIIIIIIIIIIIIIIIIIIIAIII4IIIIIIIIIIIIIIIIIIIIIIIIIIIII
IIIIIIIIIIIIIIIIIIIIIIIIIIIIIIAIII4AIII4IIIIIIIIIIIIIIIIIIIIIIII
IIIIIIIIIIIIIIIIIIIIIIIIIIIIIIAIII4AIII4IIIIIIAIII4IIIIIIIIIIIII
IIIIIIIIIIIIIIIIIIIIIIIIIIIIIIAIII4AIII4IIIIIIAIII4IIIIIIAIII4II
IIIIIIIIIIIIIIIIIIIIIIIIIIIIIIAIII4AIII4IIIIIIAIII4IIIIIIAIII4AI
IIIIA2222222222222224IIIIIIIIIIIIIIIIIIIIIIIIIIIIIIIIIIIIIIIIIII
IIIIA222222A2222222222222224IIIIIIIIIIIIIIIIIIIIIIIIIIIIIIIIIIII
IIIIA222222A2A2222222222222224IIIIIIIIIIIIIIIIIIIIIIIIIIIIIIIIII
IIIIA222222A2A22222A2222222222222224IIIIIIIIIIIIIIIIIIIIIIIIIIII
IIIIA222222A2A22222A2222222222A2222222222222224IIIIIIIIIIIIIIIII
IIIIA222222A2A22222A2222222222A2222A2222222222222224IIIIIIIIIIII
IIIIA222222A2A22222A2222222222A2222A22222A2222222224IIIIIIIIIIII
IIIIA222222A2A22222A2222222222A2222A22222A2222222224IIIA22222222
IIIIA222222A2A22222A2222222222A2222A22222A2222222224IIIA2A222222
IIIIA222222A2A22222A2222222222A2222A22222A2222222224IIIA2A22A222
IIIIA222222A2A22222A2222222222A2222A22222A2222222224IIIA2A22AA22
IIIIA222222A2A22222A2222222222A2222A22222A2222222224IIIA2A22AAA2
IIIIIIIIIIIIIIIIIIIIIIIAIIIIIIIIIIIIIIIIIIIIIIIIIIIIIIIIIIIIIIII
IIIIIIIIIIIIIIIIIIIIIIIAIIIIIIIIIIIAIIIIIIIIIIIIIIIIIIIIIIIIIIII
IIIIIIIIIIIIIIIIIIIIIIIAIIIIIIIIIIIAIIIIIIIIIIIIIIIIIIIAIIIIIIII
IIIIIIIIIIIIIIIIIIIIIIIAIIIIIIIIIIIAIIIIIIIIIIIIIIIIIIIAIAIIIIII
IIIIIIIIIIIIIIIIIIIIIIIAIIIIIIIIIIIAIIIIIIIIIIIIIIIIIIIAIAIIIAII
IIIIA4IIIIIIIIIIIIIIIIIIIIIIIIIIIIIIIIIIIIIIIIIIIIIIIIIIIIIIIIII
IIIIA4IIIIIIIIIIIIIIIIIIIIIIIIIIIIIIIIIIIIIIIIIIIIIIIIIA4IIIIIII
IIIIA4IIIIIIIIIIIIIIIIIAIIIIIIIIIIIIIIIIIIIIIIIIIIIIIIIA4IIIIIII
IIIIA4IIIIIIIIIIIIIIIIIAAIIIIIIIIIIIIIIIIIIIIIIIIIIIIIIA4IIIIIII
IIIIA4IIIIIIIIIIIIIIIIIAAIIIIIIIIIAIIIIIIIIIIIIIIIIIIIIA4IIIIIII
IIIIA4IIIIIIIIIIIIIIIIIAAIIIIIIIIIAIIIAIIIIIIIIIIIIIIIIA4IIIIIII
IIIIA4IIIIIIIIIIIIIIIIIAAIIIIIIIIIAIIIAAIIIIIIIIIIIIIIIA4IIIIIII
IIIIA4IIIIIIIIIIIIIIIIIAAIIIIIIIIIAIIIAAIIIIIIIIAIIIIIIA4IIIIIII
IIIIA4IIIIIIIIIIIIIIIIIAAIIIIIIIIIAIIIAAIIIIIIIIAIIIIIIA4IIIIAII
IIIIIIIIIIIIIIIIIIIIIAIIIIIIIIIIIIIIIIIIIIIIIIIIIIIIIIIIIIIIIIII
IIIIIIIIIIIIIIIIIIIIIAIIIIIIIIIIIIIAIIIIIIIIIIIIIIIIIIIIIIIIIIII
IIIIIIIIIIIIIIIIIIIIIAIIIIIIIIIIIIIAIIIIIIIIIIIIIIIIIAIIIIIIIIII
IIIIIIIIIIIIIIIIIIIIIAIIIIIIIA4IIIIAIIIIIIIIIIIIIIIIIAIIIIIIIIII
IIIIIIIIIIIIIIIIIIIIIAIIIIIIIA4IIIIAIIIIIIIIIIIIIIIIIAIIA4IIIIII
IIIIIIIIIIIIIIIIIIIIIAIIIIIIIA4IIIIAIIIIIIIIIIIIIIIIIAIIAA4IIIII
IIIIIIIIIIIIIIIIIIIIIIIIIIIIIIIIIIIIIIIIIIIIIIIIIIIIIIIIIIIIIAI4
IIIIIIIIIIIIIIIIIIIIIIIIIIIIIIIIIIIIIIIIIIIIIIIIIIIA4IIIIIIIIAI4
IIIIIIIIIIIIIIIIIIIIIIIIIIIIIIIIIIIIIIIIIIIIIIIIIIIA4IIIIA4IIAI4
IIIIIIIIIIIIIIIIIIIIIIIIIIIIIIIIIIIIIIIIIIIIIIIIIIIA4IIIIAA4IAI4
IIIAIIII4IIIIIIIIIIIIIIIIIIIIIIIIIIIIIIIIIIIIIIIIIIIIIIIIIIIIIII
IIIAIIAI4II4IIIIIIIIIIIIIIIIIIIIIIIIIIIIIIIIIIIIIIIIIIIIIIIIIIII
IIIAIIAI4II4IIIIIIIIIIIIIIIIIAIIII4IIIIIIIIIIIIIIIIIIIIIIIIIIIII
IIIAIIAI4II4IIIIIIIIIIIIIIIIIAIIII4IIIIIIIIIIAIIII4IIIIIIIIIIIII
IIIAIIAI4II4IIIIIIIIIIIIIIIIIAIIII4IIIIIIIIIIAAIII44IIIIIIIIIIII
IIIAIIAI4II4IIIIIIIIIIIIIIIIIAIIII4IIIIIIIIIIAAIII44IIIIIIIIIAII
IIIAIIAI4II4IIIIIIIIIAII4IIIIAIIII4IIIIIIIIIIAAIII44IIIIIIIIIAII
IIIAIIAI4II4IIIIIIIIIAII4IIIIAIIII4IIIAII4IIIAAIII44IIIIIIIIIAII
IIIAIIAI4II4IIIIIIIIIAII4IIIIAIIII4IIIAII4IIIAAIII44IIIAII4IIAII
IIIAIIAI4II4IIIIIIIIIAII4IA4IAIIII4IIIAII4IIIAAIII44IIIAII4IIAII
IIIAIIAI4II4IIIIIIIIIAII4IA4IAIIII4IIIA4I4IIIAAIII44IIIAII4IIAII
IIIAIIAI4II4IIIIIIIIIAII4IA4IAIIII4IIIA4I4IIIAAIII44IIIAIA4IIAII
IIIAIIAI4II4IIIIIIIIIAII4IA4IAIIII4IIIA4I4IIIAAIII44IIIAIA4IIA4I
IIIIIIIIIIIIIIIIIIIIIIIIIIIIIIIIIIIIIIAIIIIIIIIIIIIIIIIIIIIIIIII
IIIIIIIIIIIIIIIIIIIIIIIIIIIIIIIIIIIIIIAIIIIIIIIIIIIIIIIAIIIIIIII
IIIIIIIIIIIIIIIIIIIIIIIIIIIIIIIIIIIIIIAIIIIIIIIIIIIIIIIAIIIIIAII
IIIIAI4IIIIIIIIIIIIIIIIIIIIIIIIIIIIIIIAIIIIIIIIIIIIIIIIAIIIIIAII
IIIIAI4IIIIIIIIIIIIIIIIIIIIIIIIAIIIIIIAIIIIIIIIIIIIIIIIAIIIIIAII
IIIIAI4IIIIIIIIIIIIIIIIIIIIIIIIAIIIIIIAIIIIIIIIIIIIIIIIAIAIIIAII
IIIIAI4IIIIIIIIIIIIIIIIIIIIIIIIAIIIIIIAIIIIIIAII4IIIIIIAIAIIIAII
IIIIAI4IIIIIIIIIIIIIIIIIIIIIIIIAIAI4IIAIIIIIIAII4IIIIIIAIAIIIAII
IIIIAI4IIIIIIIIIIIIIIIIIIIIIIIIAIAIAI4AIIIIIIAII4IIIIIIAIAIIIAII
IIIIAI4IIIIIIIIIIIIIIIIIIIIIIIIAIAIAI4AI4IIIIAII4IIIIIIAIAIIIAII
IIIIAI4IIIIIIIIIIIIIIIIIIIIIIIIAIAIAI4AI4IIIIAI44IIIIIIAIAIIIAII
IIIIAI4IIIIIIIIIIIIIIIIIIIIIIIIAIAIAI4AI4IIIIAIA4II4IIIAIAIIIAII
IIIIAI4IIIIIIIIIIIIIIIIIIIIIIIIAIAIAI4AI4IIIIAAA4II4IIIAIAIIIAII
IIIIAI4IIIIIIIIIIIIIIAI4IIIIIIIAIAIAI4AI4IIIIAAA4II4IIIAIAIIIAII
IIIIAI4IIIIIIIIIIIIIIAI4IIIIIIAA4AIAI4AI4IIIIAAA4II4IIIAIAIIIAII
IIIIAI4IIIIIIIIIIIIIIAI4IIIIIIAA4AIAA4AI4IIIIAAA4II4IIIAIAIIIAII
IIIIAI4IIIIIIIIIIIIIIAI4IIIIIIAA4AIAA4AI4IIIIAAA4II4IIIAIAI4IAII
IIIIAI4IIIIIIIIIIIIIIAI4IIIIIIAA4AIAA4AI4IIIIAAA4II4IIIAIAI4IAAI
IIIIIIIIIIIIIIIIIIIIIIIIIIIIIIIIIIIIIIIIIIIIIIIIIIIIIIIIIAI4IIII
IIIIIIIIIIIIIIIAI4IIIIIIIIIIIIIIIIIIIIIIIIIIIIIIIIIIIIIIIAI4IIII
IIIIIIIIIIIIIIIAI4IIIIIIAI4IIIIIIIIIIIIIIIIIIIIIIIIIIIIIIAI4IIII
IIIIIIIIIIIIIIIAI4IIIIIIAI4IIIIIAII4IIIIIIIIIIIIIIIIIIIIIAI4IIII
IIIIIIIIIAI4IIIAI4IIIIIIAI4IIIIIAII4IIIIIIIIIIIIIIIIIIIIIAI4IIII
IIIIIIIIIAI4IIIAIAI4IIIIAI4IIIIIAII4IIIIIIIIIIIIIIIIIIIIIAI4IIII
IIIIIIIIIAI4IIIAIAI4IIIIAI4IIIIAA4I4IIIIIIIIIIIIIIIIIIIIIAI4IIII
IIIIIIIIIAI4IIIAIAI4IIIIAI4IIIIAA4IAI4IIIIIIIIIIIIIIIIIIIAI4IIII
IIIIIIIIIAI4IIIAIAI4IIIIAI4IIIIAA4IAI4IIIIIIIIIIIIIIIIIAIAI4IIII
IIIIIIIIIAI4IIIAIAIAIIIIAI44IIIAA4IAI4IIIIIIIIIIIIIIIIIAIAI4IIII
IIIIIIIIIAI4IIIAIAIAIIIAAI44IIIAA4IAI4IIIIIIIIIIIIIIIIIAIAI4IIII
IIIIIIIIIAI4IIIAIAIAIIIAAIA4IIIAA44AI4IIIIIIIIIIIIIIIIIAIAI4IIII
IIIIIIIIIAI4IIIAIAIAIIIAAIA4IIIAA44AI4IIIIIIIAIIIIIII4IAIAI4IIII
IIIIIIIIIAI4IIIAIAIAIIIAAIA4IIIAA44AI4IIIIIIIAAIIIIII44AIAI4IIII
IIIIIIIIIAI4IIIAIAIAIIIAAIA4IIIAA44AI4IIIIIIIAAIIIIII44AIAI4IAII
IIIIIIIIIIIIIIIIIIIIIIAIIIIIIIIIIIIIIIIIIIIIIIIIIIIIIIIIIIIIIIII
IIIIIIIIIIIIIIIIIIIIIIAIIIIIIIIIIIIIIIIAI4IIIIIIIIIIIIIIIIIIIIII
IIIIIIIIIIIIIIIIIIIIIIAIIIIIIIIIIIIIIIIAI4IIIIIIIIIIIIIIIAIIIIII
IIIIIIIIIIIIIIIIIIIIIIIIIIIIIIIIIIIIIIIIIIIIIIIIIIIIIIIIIAIIIIII
IIIIIIIIIIIIIIIIIIIIIIIIIIIIIIIIIIIIIIIIIIIIIAIIIIIIIIIIIAIIIIII
IIIIIIIIIIIIIIIIIIIIIIIIIIIIIIIIIIIIIIIIIIIIIAIIIIIIIIIAIAIIIIII
IIIIIIIIIIIIIIIIIIIIIIIIIIIIIIIIIIIIIIIIIIIIIAIIIIIIIIIAAAIIIIII
IIIIIIIIIIIIIIIIIAII4III4IIIIIIIIIIIIIIIIIIIIAIIIIIIIIIAAAIIIIII
IIIIIIIIIIIIIIIIIAII4III4IIIIIIIIIIIIIIIIIIIIAIIIIIIIAIAAAII4III
IIIIIIIIIIIIIIIIIAII4III4IIIIIIIIIIIIIIIIIIIIAIIIIIIIAIAAA4I4I4I
IIIIIIIIIIIIIIIIIAII4III4IIIIIIIIIIIIIIIIIIIIAIIIIIIIAIAAA4I4A4I
IIIIIAIIIIIIIIIIIAII4III4IIIIIIIIIIIIIIIIIIIIAIIIIIIIAIAAA4I4A4I
IIIIIAIIIIIIIIIIIAII4A4I4IIIIIIIIIIIIIIIIIIIIAIIIIIIIAIAAA4I4A4I
IIIIIAIIIIIIIIIIIAII4A4I4IIIIIIIIIIA4IIIIIIIIAIIIIIIIAIAAA4I4A4I
IIIIIAIIIIIIIIIIIAII4A4I4IIIIIIIIIIA4IA4IIIIIAIIIIIIIAIAAA4I4A4I
IIIIIAIIIIIIIIIIIAII4A4I4IIIIIIIIIIA4IAA4IIIIAIIIIIIIAIAAA4I4A4I
IIIIIAIIIIIIIIIIIAIIAA4I4IIIIIIIIIIA4IAA4IIIIAIIIIIIIAIAAA4I4A4I
IIIIIAIIIIIIIIIIIAIIAA4I4IIIIIIIIIIA4IAA4IIIIAIIIIIIIA4AAA4I4A4I
IIIIIIIIIIIIIIIIIIIIIIA4IIIIIIIIIIIIIIIIIIIIIIIIIIIIIIIIIIIIIIII
IIIIIIIA4IIIIIIIIIIIIIA4IIIIIIIIIIIIIIIIIIIIIIIIIIIIIIIIIIIIIIII
IIIIIIIAA4IIIIIIIIIIIIA4IIIIIIIIIIIIIIIIIIIIIIIIIIIIIIIIIIIIIIII
IIIIIIIAA4IIIIIIIIIIIAA4IIIIIIIIIIIIIIIIIIIIIIIIIIIIIIIIIIIIIIII
IIIIIIIAA4IIIIIIIIIIIAA4IIIIIIIIIA4IIIIIIIIIIIIIIIIIIIIIIIIIIIII
IIIIIIIAA4IIIIIIIIIIIAA4IIIIIIIIIA4A4IIIIIIIIIIIIIIIIIIIIIIIIIII
IIIIIIIAA4IIIIIIIIIIIAA4IIIIIIIIIA4A4IA4IIIIIIIIIIIIIIIIIIIIIIII
IIIIIIIAA4IIIIIIIIIIIAA4IIIIIIIIIA4A4IA4IIA4IIIIIIIIIIIIIIIIIIII
IIIIIIIAA4IIIIIIIIIIIAA4IIIIIIIIIA4A4IA4IIA4A4IIIIIIIIIIIIIIIIII
IIIIIIIAA4IIIIIIIIIIIAA4IIIIIIIIIA4A4IA4IIA4A4IA4IIIIIIIIIIIIIII
IIIIIIIAA4IIIIIIIIIIIAA4IIIIIIIIIA4A4IA4IIA4A4IA4IIIIIIIIA4IIIII
IIIIIIIAA4IIIIIIIIIIIAA4IIIIIIIIIA4A4IA4IIA4A4IA4IIIIIIIIA4IIA4I
IIIIIIIAA4IIIIIIIIIIIAA4IIIIIIIIIA4A4IA4IIA4A4IA4IIIIIIIIA4IIAA4
IIIIIIIIIIIIIIIIIIIIIAIII4IIIIIIIIIIIIIIIIIIIIIIIIIIIIIIIIIIIIII
IIIIIIIIIIIIIIIIIIIIIAIII4IIIIIIAIII4IIIIIIIIIIIIIIIIIIIIIIIIIII
IIIIIIIIIIIIIIIIIIIIIAIII4IIIIIIAIII4IAIII4IIIIIIIIIIIIIIIIIIIII
IIIIIIIIIIIIIIIIIIIIIAIII4IIIIIIAIII4IAIII4IIIIIIIIIIIIIIIIIIAII
IIIIIIIIIIIIIIIIIIIIIAIA44I4IIIIAIII4IAIII4IIIIIIIIIIIIIIIIIIAII
IIIIIIIIIIIIIIIIIIIIIAIA4444I4IIAIII4IAIII4IIIIIIIIIIIIIIIIIIAII
IIIIIIIIIIIIIIIIIIIIIAIA4444I4A4A4II4IAIII4IIIIIIIIIIIIIIIIIIAII
IIIIIIIIIIIIIIIIIIIIIAIA4444I4A4A4A444AI4I4IIIIIIIIIIIIIIIIIIAII
IIIIIIIIIIIIIIIIIIIIIAIA4444I4A4A4A444A4444I4IIIIIIIIIIIIIIIIAII
IIIIIIIIIIIIIIIIIIIIIAIA4444I4A4A4A444A4444IA444II4IIIIIIIIIIAII
IIIIIIIIIIIIIIIIIIIIIAIA4444I4A4A4A444A4444IAA444I44IIIIIIIIIAII
IIIIIIIIIIIIIIIIIIIIIAIA4444I4A4A4A444A4444IAA4A4444I4IIIIIIIAII
IIIIIIIIIIIIIIIIIIIIIAIA4444I4A4A4A444A4444IAA4A4444IA444II4IAII
IIIIIIIIIIIIIIIIIIIIIAIA4444I4A4A4A444A4444IAA4A4444IAA444I44AII
IIIIIIIIIIIIIIIIIIIIIAIA4444I4A4A4A444A4444IAA4A4444IAA44A444AI4
IIIIIIIIIIIIIIIIIIIIIIIIIIIIIIIIIIIIIIIIIIIIIIIIIIIIIIIA4II4IIII
IIIIIIIIIIIIIIIIIIIIIIIIIIIIIIIIIIIIIIIIIIIIIIIIIIIIIIIA4II4IIIA
IIIIIIIIIIIIIIIIIIIIIIIIIIIIIIIIIIIIIIIIIIIIIAIIIIIIIIIIIIIIIIII
IIIIIIIIIIIIIIIIIIIIIIIIIIIIIIIIIIIIIIIIIIIIIAIIIIIIIIIIIIIIIIAI
IIIIIIIIIIIIIIIIIIIIIIIIIIIIIIIIIIIIIIIIIIIIIAIIIIIIIIIIIIIIIIAA
IIIIIIIIIIIIIIIIIIIIIIIIIIIIIIIIIIIIIIIIIIIIIIIIIIIIIIIIIAIIIIII
IIIIIIIIIIIIIIIIIIIIIIIIIIIIIIIIIIIA4IIIIIIIIIIIIIIIIIIIIAIIIIII
IIIIIIIIIIIIIIIIIIIIIIIIIIIIIIIIIIIA4IIIIIIIIIIIIIIIIIIIIA4IIIII
IIIIIIIIIIIIIIIIIIIIIIIIIIIIIIIIIIIA4IIIIIIIIIIIIIIIIIIIIAA4IIII
IIIIIIIIIIIIIIIIIIIIIIIIIIIIIIAII4IA4IIIIIIIIIIIIIIIIIIIIAA4IIII
IIIIIIIIIIIIIIIIIIIIIIIIIIIIIIAAI44A4IIIIIIIIIIIIIIIIIIIIAA4IIII
IIIIIIIIIIIIIIIIIIIIIIIIIIIIIIAAI44A4IAII4IIIIIIIIIIIIIIIAA4IIII
IIIIIIIA4II4IIIIIIIIIIIIIIIIIIAAI44A4IAII4IIIIIIIIIIIIIIIAA4IIII
IIAIII4A4II4IIIIIIIIIIIIIIIIIIAAI44A4IAII4IIIIIIIIIIIIIIIAA4IIII
IIAAII4A4II4IIIIIIIIIIIIIIIIIIAAI44A4IAII4IIIIIIIIIIIIIIIAA4IIII
IIAAII4A4II4IIIIIIIIIIIIIIIIAIAA444A4IAII4IIIIIIIIIIIIIIIAA4IIII
IIAAII4A4II4IIIIIIIIIIIIIIIIAIAA444A4IA4I4IIIIIIIIIIIIIIIAA4IIII
IIAAII4A4II4IIIIIIIIIIIIIIIIAIAA444A4IA4I44IIIIIIIIIIIIIIAA4IIII
IIIIIIIIIIIIIIIIIIIIIIIIIIIIIIA4IIIIIIIIIIIIIIIIIIIIIIIIIIIIIIII
IIIIIIIIIIIIIIIIIIIIIIIIIIIIIIA4IIIIIIIIIIIIIIIIIIIIIIIIIA4IIIII
IIIIIIIIIIIIIIIIIIIIIIIIIIIIIIA4IIIIIIIIIIIIIIIIIIIIIIIIIA4IIA4I
IIIIIIIIIIIIIIIIIIIIIIIIIIIIIIA4IIIIIIIIIIIIIIIIIIIIIAI4IA4IIA4I
IIIIIIIIIIIIIIIIIIIIIIIIIIIIIIA4IIIAIIIIIIIIIIIIIIIIIAI4IA4IIA4I
IIIIIIIIIIIIIIIIIIIIIIIIIIIIIIA4IIIAIIAIIIIIIIIIIIIIIAI4IA4IIA4I
IIIIIIIIIIIIIIIIIIIIIIIIIIIIIIA4IIIIIIIIIIIIIIIIIIIIIIIIIIIIIIII
IIIIIIIIIIIIIIIIIIIIIIIIIIIIIIAA4IIIIIIIIIIIIIIIIIIIIIIIIIIIIIII
IIIIIIIIIIIIIIIIIIIIIIIIIIIIIIAA4IIIA4IIIIIIIIIIIIIIIIIIIIIIIIII
IIIIIIIIIIIIIIIIIIIIIIIIIIIIIIAA4IIIA4IIIIA4IIIIIIIIIIIIIIIIIIII
IIIIIIIIIIIIIIIIIIIIIIIIIIIIIIAA4IIIA4IIIIA4IIIIIIIIIIIIIA4IIIII
IIIIIIIIIIIIIIIIIIIIIIIIIIIIIIAA4IIIA4IIIIA4IIIIIIIIIIIIIA4IIA4I
IIIIIIIIIIIIIIIIIIIIIIIIIIIIIIIIAI4IIIIIIIIIIIIIIIIIIIIIIIIIIIII
IIIIIIAII4IIIIIIIIIIIIIIIIIIIIIIAI4IIIIIIIIIIIIIIIIIIIIIIIIIIIII
IIIIIIAII4IIIIIIIIIIIIIIIIIIIIIIAI4IIIIIIIIIIIIIIIIIIIIIIAII4III
IIIIIIAII4IIIIIIIIIIIIIIIIIIIIIIAIAIIIIIIIIIIIIIIIIIIIIIIAII4III
IIIIIIAII4IIIIIIIIIIIIIIIIIIIIIIAIAIIIAIIIIIIIIIIIIIIIIIIAII4III
IIIIIIAII4IIIIIIIIIIIIIIIIIIIIIIAIAIIIAIIIIIIIIIIIIIIIIAIAII4III
IIIIIIAII4IIIIIIIIIIIIIIIIIIIIIIAIAIIIAIIIIIIIIIIIIIIIIAIAII4AII
IIIIIIIIIIIIIIIIIIIIIIIIIIIIIIIIIIIIIIAIII4IIIIIIIIIIIIIIIIIIIII
IIIIA4IIIIIIIIIIIIIIIIIIIIIIIIIIIIIIIIAIII4IIIIIIIIIIIIIIIIIIIII
IIIIA4A4IIIIIIIIIIIIIIIIIIIIIIIIIIIIIIAIII4IIIIIIIIIIIIIIIIIIIII
IIIIA4A4A4IIIIIIIIIIIIIIIIIIIIIIIIIIIIAIII4IIIIIIIIIIIIIIIIIIIII
IIIIA4A4AA4IIIIIIIIIIIIIIIIIIIIIIIIIIIAIII4IIIIIIIIIIIIIIIIIIIII
IIIIA4A4AA4IIIIIIIIIIIIA4IIIIIIIIIIIIIAIII4IIIIIIIIIIIIIIIIIIIII
IIIIA4A4AA4IIIIIIIIIIIIA4IIIIIIIIIIIIIAIII4IIIIIIIIIIIIIIA4IIIII
IIIIIIIIIIIIIIIIIIIIIIIIIIIIIIIIIIIIIIIIIIIIIIIIIIIIIIIIIAII4III
IIIIIIIIIIIIIIIIIIIIIIIIIIIAIIIIIIIIIIIIIIIIIIIIIIIIIIIIIAII4III
IIIIIIIIIIIIIIIIIIIIIIIIIIIAIIIIIIIIIIAIIIIIIIIIIIIIIIIIIAII4III
IIIAIIIII4IIIIIIIIIIIIIIIIIIIIIIIIIIIIIIIIIIIIIIIIIIIIIIIIIIIIII
IIIAIIIII4IIIIIIIIIIIIIIIIIIIIIIAIIIII4IIIIIIIIIIIIIIIIIIIIIIIII
IIIAIIIII4IIIIIIIIIIIIIIIIIIIIIIAIIAII4II4IIIIIIIIIIIIIIIIIIIIII
IIIAIIIII4IIIIIIIIIIIIIIIIIIIIIIAIIAIIAII4II4IIIIIIIIIIIIIIIIIII
IIIAIIIII4IIIIIIIIIIIIIIIIIIIIIIAIIAIIAII4II4IAIIIII4IIIIIIIIIII
IIIAIIIII4IIIIIIIIIIIIIIIIIIIIIIAIIAIIAII4II4IAIIIII4IIAIIIII4II
IIIAIIIII4IIIIIIIIIIIIIIIIIIIIIIAIIAIIAII4II4IAIIIII4IIAIIAII4II
IIIAIIIII4IIIIIIIIIIIIIIIIIIIIIIAIIAIIAII4II4IAIIIII4IIAIIAIIAII
IIIIIIIIIIIIIIIIIIIIIIAIIIIIIIIIIIIIIIIIIIIIIIIIIIIIIIIIIIIIIIII
IIIIIIIIIIIIIIIIIIIIIIAIIIIIAIIIIIIIIIIIIIIIIIIIIIIIIIIIIIIIIIII
IIIIIIIIIIIIIIIIIIIIIIAIIIIIAIIIIIIIIIAIIIIIIIIIIIIIIIIIIIIIIIII
IIIIIIIIIIIIIIIIIIIIIIAIIIIIAIIIIIIIIIAIIIIIIAIIIIIIIIIIIIIIIIII
IIIIIIIIIIIIIIIIIIIIIIAIIIIIAIIIIIIIIIAIIIIIIAAIIIIIIIIIIIIIIIII
IIIIIIIIIIIIIIIIIIIIIIAIIIIIAIIIIIIIIIAIIIIIIAAIIIIIIAIIIIIIIIII
IIIIIIIIIIIIIIIIIIIIIIAIIIIIAIIIIIIIIIAIIIIIIAAIIIIIIAIIIAIIIIII
IIIIIIIIIIIIIIIIIIIIIIAIIIIIAIIIIIIIIIAIIIIIIAAIIIIIIAIIIAIIIAII
IIIIIIIIIIIIIIIIIIIIIIIIIIIIIIIIIAIIIIIIIIIIIIIIIIIIIIIIIIIIIIII
IIIIIIIIIIIIIIIIIIIIIIIIIIIIIIIIIAIIIIIIIIIIIIIIIIIIIIIIIAIIIIII
IIIIAIII4IIIIIIIIIIIIIIIIIIIIIIIIAIIIIIIIIIIIIIIIIIIIIIIIAIIIIII
IIIIAIIIAIII4IIIIIIIIIIIIIIIIIIIIAIIIIIIIIIIIIIIIIIIIIIIIAIIIIII
IIIIAIIIAIII4IIIIIIIIIAIII4IIIIIIAIIIIIIIIIIIIIIIIIIIIIIIAIIIIII
IIIIAIIIAIII4IIIIIIIIIAIII4IIIIIAAII4IIIIIIIIIIIIIIIIIIIIAIIIIII
IIIIAIIIAIII4IIIIIIIIIAIII4IIIIIAAII4IAIII4IIIIIIIIIIIIIIAIIIIII
IIIIAIIIAIII4IIIIIIIIIAIII4IIIIIAAII4IAIII4IIIIIIIIIIIIAIAI4IIII
IIIIAIIIAIII4IIIIIIIIIAIII4IIIIIAAII4IAIII4IIIIIIIIIIIIAIAI4I4II
IIIIAIIIAIII4IIIIIIIIIAIII4IIIIIAAII4IAIII4IIIIIIIIIIIIAIAI4IAII
IIIIAIIIAIII4IIIIIIIIIAIII4IIIIIAAII4IAIII4IIIIIIIIIIIIAIAI4IAIA
IIIIAI4IIIIIIIIIIIIIIIIIIIIIIIIIIIIIIIIIIIIIIIIIIIIIIIIIIIIIIIII
IIIIAI4IIIIIIIIIIIIAI4IIIIIIIIIIIIIIIIIIIIIIIIIIIIIIIIIIIIIIIIII
IIIIAI4IIIIIIIIIIIIAI4IIIIIIIIIIAI4IIIIIIIIIIIIIIIIIIIIIIIIIIIII
IIIIAI4IIIIIIIIIIIIAI4IIIIIIIIIIAA44IIIIIIIIIIIIIIIIIIIIIIIIIIII
IIIIAI4IIIIIIIIIIIIAI4IIIIIIIIIIAA4AI4IIIIIIIIIIIIIIIIIIIIIIIIII
IIIIAI4IIIIIIIIIIIIAI4IIIIIIIIIIAA4AI4IIIIIIIIIIIIIIIIIIIIIIIAI4
IIIIIIIIIIIIIIIIIIIIIIIIIIIIIIIIIIIIIIAIIIIIIIIIIIIIIIIIIIIIIIII
IIIIIIIIIIIIIIIIIIIIIIIIIIIIIIIIIIIIIIAIIIIIIIIIIIIIIIIIIIIIIAII
IIIIIIAIIIIIIIIIIIIIIIIIIIIIIIIIIIIIIIAIIIIIIIIIIIIIIIIIIIIIIAII
IIIIIIAIIIIIIIA4IIIIIIIIIIIIIIIIIIIIIIAIIIIIIIIIIIIIIIIIIIIIIAII
IIIIIIAIIIIIIIA4IIIIIIIIIIIIIIIIIIIIIIA4IIIIIIIIIIIIIIIIIIIIIAII
IIIIIIAIIIIIAIA4IIIIIIIIIIIIIIIIIIIIIIA4IIIIIIIIIIIIIIIIIIIIIAII
IIIIIIAIIIIIAIA4IIIIIIIIIIIIAI4IIIIIIIA4IIIIIIIIIIIIIIIIIIIIIAII
IIIIIIAIIIIIAIA4IIIIIIIIIIIIAI4IIIIIIIA4IIIIIIAI4IIIIIIIIIIIIAII
IIIIIIAIIIIIAIA4IIIIIIIIA4IIAI4IIIIIIIA4IIIIIIAI4IIIIIIIIIIIIAII
IIIIIIAIIIIIAIA4IIIIIIIIA4IIAI4IIIIIIIAA4IIIIIAI4IIIIIIIIIIIIAII
IIIIIIAIIIIIAIA4IIIIIIIIA4IIAI4IIIIIIIAA4IIIIIAI4IIIIIIIIA4IIAII
IIIIIIAIIIIIAIA4IIIAIIIIA4IIAI4IIIIIIIAA4IIIIIAI4IIIIIIIIA4IIAII
IIIIIIAIIIIIAIA4IIIAIIIIA4IIAIAIIIIIIIAA4IIIIIAI4IIIIIIIIA4IIAII
IIIIIIAIIIIIAIA4IIIAIIIIA4IIAIAIIIIIIIAA4IIIIIAI4IIIIIIAIA4IIAII
IIIIIIIIIIIIIIIIIIIIIIIIIIIIIIIIIIIIIIIIIIIIIIIIIIIIIIIIIIIIIAI4
IIIIIIIIIIIIIIIIIIIIIIIIIIIIAI4IIIIIIIIIIIIIIIIIIIIIIIIIIIIIIAI4
IIIIIIIIIIIIIIIIIIIIIIIIIIIIAI4IIIIIAIIIIIIIIIIIIIIIIIIIIIIIIAI4
IIIIIIIIIIIIIIIIIIIIIIIAIIIIAI4IIIIIAIIIIIIIIIIIIIIIIIIIIIIIIAI4
IIIIIIIIIIIIIIIIIIIIIIIAIIIIAI4IIIIIAIIIIIIIIIIIIIIIIIIIIIIIIAA4
IIA4IIIIIIIIIIIIIIIIIIIIIIIIIIIIIIIIIIIIIIIIIIIIIIIIIIIIIIIIIIII
IIA4IIIA4IIIIIIIIIIIIIIIIIIIIIIIIIIIIIIIIIIIIIIIIIIIIIIIIIIIIIII
IIA4IIIA4IIIIIIIIIIIIIA4IIIIIIIIIIIIIIIIIIIIIIIIIIIIIIIIIIIIIIII
IIA4IIIA4IIIIIIIIIIIIIA4A4IIIIIIIIIIIIIIIIIIIIIIIIIIIIIIIIIIIIII
IIA4IIIA4IIIIIIIIIIIIIA4AA4IIIIIIIIIIIIIIIIIIIIIIIIIIIIIIIIIIIII
IIA4IIIA4IIIIIIIIIIIIIA4AA4IIIIIIIIIIIA4IIIIIIIIIIIIIIIIIIIIIIII
IIA4IIIA4IIIIIIIIIIIIIA4AA4IIIIIIIIIIIA4IIIIIA4IIIIIIIIIIIIIIIII
IIA4IIIA4IIIIIIIIIIIIIA4AA4IIIIIIIIIIIA4IIIIIAA4IIIIIIIIIIIIIIII
IIA4IIIA4IIIIIIIIIIIIIA4AA4IIIIIIIIIIIA4IIIIIAA4IIIA4IIIIIIIIIII
IIA4IIIA4IIIIIIIIIIIIIA4AA4IIIIIIIIIIIA4IIIIIAA4IIIA4IIIIA4IIIII
IIA4IIIA4IIIIIIIIIIIIIA4AA4IIIIIIIIIIIA4IIIIIAA4IIIA4IIIIA4IA4II
IIIIIIIIIIIIIIIIIIIIIIIIIIIIIIIIIIIIIIIAIIII4IIIIIIIIIIIIIIIIIII
IIIIIIIIIIIIIIIIIIIIIIIIIIIIIIAIIII4IIIAIIII4IIIIIIIIIIIIIIIIIII
IIIIIIIIIIIIIIIIIIIIIIIIIIIIIIAIIII4IIAAIII44IIIIIIIIIIIIIIIIIII
IIIIIIIIIIIIIIIIIIIIIIIIIIIIIIAI4II4IIAAIII44IIIIIIIIIIIIIIIIIII
IIIIIIIIIIIIIIIIIIIIIIIIIIIIIIAA44I4IIAAIII44IIIIIIIIIIIIIIIIIII
IIIIIIIIIIIIIIIIIIIIIIIIIIIIIIAA44I4IIAA4II44IIIIIIIIIIIIIIIIIII
IIIIIIIIIIIIIIIIIIIIIIIIIIIIIIAA44I4IIAA4II44IIIIIIAI4IIIIIIIIII
IIIIIIIIIIIIIIIIIIIIIIIIIIIIIIAA44I4IIAA4II44IIIIIIAIAI4IIIIIIII
IIIIIIIIIIIIIIIIIIIIIIIIIIIIIIAA44I4IIAA4II44IIIIIIAIAI4IAI4IIII
IIIIIIIIIIIIIIIIIIIIIIIIIIIIIIAA44I4IIAA4II44IIIIIIAIAI4IAI4AI4I
IIIIIIIIIIIIIIIIIIIIIIIIIIIIIIAA44I4IIAA4II44IIIIIIAIAI4IAI4AA44
IIIIA444I444IIIIIIIIIIIIIIIIIIIIIIIIIIIIIIIIIIIIIIIIIIIIIIIIIIII
IIIIA444I444IIIIIIIIIIIIIIIIIIIIIIIIIIA444I444IIIIIIIIIIIIIIIIII
IIIIA444I444IIIIIIIIIIA4III4IIIIIIIIIIA444I444IIIIIIIIIIIIIIIIII
IIIIA444I444IIIIIIIIIIA4III4IIIIIIIIIIA444I444IIIIIIIIIIIIIIIA4I
IIIIA444I444IIIIIIIIA4A4III4IIIIIIIIIIA444I444IIIIIIIIIIIIIIIA4I
IIIIA444I444IIIIIIIIA4A4III4IIIA4I4IIIA444I444IIIIIIIIIIIIIIIA4I
IIIIA444I444IIIIIIIIA4A4III4IIIA4I4IIIAA444444IIIIIIIIIIIIIIIA4I
IIIIA444I444IIIIIIIIA4A4III4IIIA4I4IIIAA44444A4I4IIIIIIIIIIIIA4I
IIIIA444I444IIIIIIIIA4A4III4IIIA4I4IIIAA44444A4I4IIIIIIIIA4I4A4I
IIIIIIIIIIIIIA4IIII4IIIIIIIIIIIIIIIIIIIIIIIIIIIIIIIIIIIIIIIIIIII
IIIIIIIIIIIIIA4IIIIA4IIII4IIIIIIIIIIIIIIIIIIIIIIIIIIIIIIIIIIIIII
IIIIIIIIIIIIIA4IIIIA4IIIIA4IIII4IIIIIIIIIIIIIIIIIIIIIIIIIIIIIIII
IIIIIIIIIIIIIA4IIIIA4IIIIA4IIII4IIIIIIA4IIII4IIIIIIIIIIIIIIIIIII
IIIIIIIIIIIIIA4IIIIA4IIIIA4IIII4IIIIIIA4IIA44III4IIIIIIIIIIIIIII
IIIIIIIIIIIIIA4IIIIA4IIIIA4IIII4IIIIIIA4IIA44III4IIIIIIA4IIII4II
IIIIIIIIIIIIIA4IIIIA4IIIIA4IIII4IIIIIIA4IIA44III4IIIIIIA4IIIIA4I
IIIIIIIIIIIIIIIIIIIIIIIIIIA4IIIIIIIIIIIIIIIIIIIIIIIIIIIIIIIIIIII
IIIIIIIIIIIIIIIIIIIIIIIIIIA4IIIIIIIIIIIIIIIIIIA4IIIIIIIIIIIIIIII
IIIIIIIIIIIIIIIIIIIIIIIIIIA4IIIIIIIIIIIIIIIIIIA4IIIIIIIIIA4IIIII
IIIA4IIIIIIIIIIIIIIIIIIIIIA4IIIIIIIIIIIIIIIIIIA4IIIIIIIIIA4IIIII
IIIA4IIIIIIIIIIIIIIIIIIIA4A4IIIIIIIIIIIIIIIIIIA4IIIIIIIIIA4IIIII
IIIA4IIIIIIIIIIIIIIIIIIIA4A4IIIIIIIIA4IIIIIIIIA4IIIIIIIIIA4IIIII
IIIA4IIIIIIIIIIIIIIIIIIIA4A4IIIIIIIIAA4IIIIIIIA4IIIIIIIIIA4IIIII
IIIA4IIIIIIIIIIIIIIIIIIIA4A4IIIIIIIIAAA4IIIIIIA4IIIIIIIIIA4IIIII
IIIA4IIIIIIIIIIIIIIIIIIIA4A4IIIIIIIIAAAA4IIIIIA4IIIIIIIIIA4IIIII
IIIA4IIIIIIIIIIIIIIIIIIIA4A4IIIIIIIIAAAA4IIIIAA4IIIIIIIIIA4IIIII
IIIA4IIIIIIIIIIIIIIIIIIIA4A4IIIIIIIIAAAA4IIIIAA4IIIIIIIIIA4IA4II
IIIA4IIIIIIIIIIIIIIIIIIIA4A4IIIIIIIIAAAA4IIIIAA4IIIIIIIIIA4IAA4I
IIIIIA4IIIIIIIIIIIIIIIIIIIIIIIIIIIIIIIIIIIIIIIIIIIIIIIIIIIIIIIII
IIIIIA4IIIIIIIIIIIIIIIIIIIIIA4IIIIIIIIIIIIIIIIIIIIIIIIIIIIIIIIII
IIIIIA4IIIIIIIIIIIIIIIIIIIIIA4IIIIIA4IIIIIIIIIIIIIIIIIIIIIIIIIII
IIIIIA4IIIIIIIIIIIIIIIIIIIIIA4IIIIIA4IA4IIIIIIIIIIIIIIIIIIIIIIII
IIIIIA4IIIIIIIIIIIIIIIIIIIIIA4IIIIIA4IA4IIIIIIIIIIIIIIIIIA4IIIII
IIIIIIIIIIIIIIIIIIIIIIIIIIIIIIIIIIIIIAIIIIIIIIIIIIIIIIIIIIIIIIII
IIIIIIIIIIIIIIIIIIIIIAIIIII4IIIIIIIIIAIIIIIIIIIIIIIIIIIIIIIIIIII
IIIIIIIIIIIIIIIIIIIIIAIIIII4IIIIIIIIAAIIII4IIIIIIIIIIIIIIIIIIIII
IIIIIIIIIIIIIIIIIIIIIAIIIII4IIIIIIIIAAAIII4I4IIIIIIIIIIIIIIIIIII
IIIIIIIIIIIIIIIIIIIIIAIIIII4IIIIIIIIAAAIII4I4IIIIIIIIIIIIAIIIII4
IIIIIIIIIIIIIIIIIIIIIIIA4IIIIIIIIIIIIIIIIIIIIIIIIIIIIIIIIIIIIIII
IIIIIIIIIIIIIIIIIIIIIIIA4IIIIIA4IIIIIIIIIIIIIIIIIIIIIIIIIIIIIIII
IIIIIIIIIIIIIIIIIIIIIIIA4IIIIIA4IIA4IIIIIIIIIIIIIIIIIIIIIIIIIIII
IIIIIIIIIIIIIIIIIIIIIIIA4IIIIIA4IIAA4IIIIIIIIIIIIIIIIIIIIIIIIIII
IIIIIIIIIIIIIIIIIIIIIIIA4IIIIIA4IIAA4IIIIIIIIIA4IIIIIIIIIIIIIIII
IIIIIIIIIIIIIIIIIIIIIIIA4IIIIIA4IIAA4IIIIIIIIIA4IIIIIIA4IIIIIIII
IIIIIIIIIIIIIIIIIIIIIIIA4IIIIIA4IIAA4IIIIIIIIIA4IIIIIIAA4IIIIIII
IIIIIIIIIIIIIIIIIIIIIIIA4IIIIIA4IIAA4IIIIIIIIIA4IIIIIIAA4A4IIIII
IIIIIIIIIIIIIIIIIIIIIIIA4IIIIIA4IIAA4IIIIIIIIIA4IIIIIIAA4A4IIA4I
IIIIIIIIIIIIIIIIIIIIIIIIA4IIIIIIIIIIIIIIIIIIIIIIIIIIIIIIIIIIIIII
IIIIIIIIIIIIIIIIIIIIIIIIA4IIIIIIIIIIIIIIIIIIIIIIIIIIIIIIIAIIII4I
IIIIIIIIIIIIIIIIIIIIA4IIA4IIIIIIIIIIIIIIIIIIIIIIIIIIIIIIIAIIII4I
IIIIAIIIIIIIIIIIIIIIA4IIA4IIIIIIIIIIIIIIIIIIIIIIIIIIIIIIIAIIII4I
IIIIAIIIIIIIIIIIIIIIA4IIA4IIIIIIAIIIIIIIIIIIIIIIIIIIIIIIIAIIII4I
IIIIAIIIIIIIIIIIIIIIA4IIA4IIIIIIAIAIIIIIIIIIIIIIIIIIIIIIIAIIII4I
IIIIAIIIIIIIIIIIIIIIA4IIA4IIIIIIAIAIIIAIIIIIIIIIIIIIIIIIIAIIII4I
IIIIAIIIIIIIIIIIIIIIA4IIA4IIIIIIAIAIIIAIIIIIIIIIIIIIIIIIIAIIIA4I
IIIIIIIIIIIIIIIIIIIIIIIIIIIIIIIIAII4IIIIIIIIIIIIIIIIIIIIIIIIIIII
IIIIIIIIIIIIIIIIIIIIIAII4IIIIIIIAII4IIIIIIIIIIIIIIIIIIIIIIIIIIII
IIIIIAIIIIIIIIIIIIIIIAII4IIIIIIIAII4IIIIIIIIIIIIIIIIIIIIIIIIIIII
IIIIIAIIAIIIIIIIIIIIIAII4IIIIIIIAII4IIIIIIIIIIIIIIIIIIIIIIIIIIII
IIIIIAIIAIIIIAIIIIIIIAII4IIIIIIIAII4IIIIIIIIIIIIIIIIIIIIIIIIIIII
IIIIIAIIAIIIIAIIIIIIIAII4IIIIIIIAII4IAIIIIIIIIIIIIIIIIIIIIIIIIII
IIIIIAIIAIIIIAIIIIIIIAII4IIIIIIIAII4IAAIIIIIIIIIIIIIIIIIIIIIIIII
IIIIIAIIAIIIIAIIIIIIIAII4IIIIIIIAII4IAAAIIIIIIIIIIIIIIIIIIIIIIII
IIIIIAIIAIIIIAIIIIIIIAII4IIIIIIIAII4IAAAIIAIIIIIIIIIIIIIIIIIIIII
IIIIIAIIAIIIIAIIIIIIIAII4IIIIIIIAII4IAAAIIAIIIIIIIIIIIIAIIIIIIII
IIIIIAIIAIIIIAIIIIIIIAII4IIIIIIIAII4IAAAIIAIIIIIIIIIIIIAAIIIIIII
IIIIIAIIAIIIIAIIIIIIIAII4IIIIIIIAII4IAAAIIAIIIIIIIIIIIIAAAIIIIII
IIIIIAIIAIIIIAIIIIIIIAII4IIIIIIIAII4IAAAIIAIIIIIIIIIIIIAAAIIIAII
IIIIIIIIIIIIIIIIIIIIIIAI4IIIIIIIIIIIIIIIIIIIIIIIIIIIIIIIIIIIIIII
IIIIIIIIIIIIIIIIIIIIIIAI4IIIIIIIAI4IIIIIIIIIIIIIIIIIIIIIIIIIIIII
IIIIIIIIIIIIIIIIIIIIIIAI4IIIIIIIAI4IIIAI4IIIIIIIIIIIIIIIIIIIIIII
IIIIIIIIIIIIIIIIIIIIIIAI4IIIIIIIAI4IIIAI4AI4IIIIIIIIIIIIIIIIIIII
IIIIIIIIIIIIIIIIIIIIIIAI4IIIIIIIAI4IIIAI4AI4IAI4IIIIIIIIIIIIIIII
IIIIIIIIIIIIIIIIIIIIIIAI4IIIIIIIAI4IIIAI4AI4IAI4IIIIIIIIIAI4IIII
IIIIIIIIIIIIIIIIIIIIIIAI4IIIIIIIAI4IIIAI4AI4IAI4IIIIIIIIIAI4IAI4
IIIIA4IIIIIIIIIIIIIIIIIIIIIIIIIIIIIIIIIIIIIIIIIIIIIIIIIIIIIIIIII
IIIIA4IIIIIIIIIIIIIIIIAI4IIIIIIIIIIIIIIIIIIIIIIIIIIIIIIIIIIIIIII
IIIIA4IIIIIIIIIIIIIIIIAI4IIIIIIIIIIIIIAI4IIIIIIIIIIIIIIIIIIIIIII
IIIIA4IIIIIIIIIIIIIIIIAI4IIIIIIIIIIIIIAI4IIIIIIIIIIIIIIAI4IIIIII
IIIIA4IIIIIIIIIIIIIIIIAI4IIIIIIIIIIIIIAI4IIIIIIIIIIIIIIAIAI4IIII
IIIIIIAI4IIIIIIIIIIIIIIIIIIIIIIIIIIIIIIIIIIIIIIIIIIIIIIIIIIIIIII
IIIIIIAI4IIIIIIIIIIAI4IIIIIIIIIIIIIIIIIIIIIIIIIIIIIIIIIIIIIIIIII
IIIIIIAI4IIIIIIIIIIAI4IIIAI4IIIIIIIIIIIIIIIIIIIIIIIIIIIIIIIIIIII
IIIIIIAI4IIIIIIIIIIAI4IIIAI4AI4IIIIIIIIIIIIIIIIIIIIIIIIIIIIIIIII
IIIIIIAI4IIIIIIIIIIAI4IIIAI4AIAI4IIIIIIIIIIIIIIIIIIIIIIIIIIIIIII
IIIIIIAI4IIIIIIIIIIAI4IIIAI4AIAIAI4IIIIIIIIIIIIIIIIIIIIIIIIIIIII
IIIIIIAI4IIIIIIIIIIAI4IIIAI4AIAIAI4AI4IIIIIIIIIIIIIIIIIIIIIIIIII
IIIIIIAI4IIIIIIIIIIAI4IIIAI4AIAIAI4AI4AI4IIIIIIIIIIIIIIIIIIIIIII
IIIIIIAI4IIIIIIIIIIAI4IIIAI4AIAIAI4AI4AI4IIIIAI4IIIIIIIIIIIIIIII
IIIIIIAI4IIIIIIIIIIAI4IIIAI4AIAIAI4AI4AI4IIIIAI4IIIAI4IIIIIIIIII
IIIIIIAI4IIIIIIIIIIAI4IIIAI4AIAIAI4AI4AI4IIIIAI4IIIAI4AI4IIIIIII
IIIIIIAI4IIIIIIIIIIAI4IIIAI4AIAIAI4AI4AI4IIIIAI4IIIAI4AA44IIIIII
IIIIIIAI4IIIIIIIIIIAI4IIIAI4AIAIAI4AI4AI4IIIIAI4IIIAI4AA44IIIAI4
IIIIIIIIIIIIIIIIIIIIIIIA4IIIIIIIII4IIIIIIIIIIIIIIIIIIIIIIIIIIIII
IAII4IIIIIIIIIIIIIIIIIIA4IIIIIIIII4IIIIIIIIIIIIIIIIIIIIIIIIIIIII
IAIIAII4IIIIIIIIIIIIIIIA4IIIIIIIII4IIIIIIIIIIIIIIIIIIIIIIIIIIIII
IAIIAII4IIIIIIIIIIIIIIIA4IIIIIIIII4IIIIIIIIIIIIIIIIIIIIIIIIIIAII
IIIIIIIIIIIIIIIAIIIIIIIIIIIIIIIIIIIIIIIIIIIIIIIIIIIIIIIIIIIIIIII
IIIIIIIIIIIIIIIAIIIIIIIIAIIIIIIIIIIIIIIIIIIIIIIIIIIIIIIIIIIIIIII
IIIIIIIIIIIIIIIAIIIIIIIIAIIIIIIIIIIIIIIIIIIIIIIIIIIIIIIIIAIIIIII
IIIIIIIIIIIIIIIAIIIIIIIIAIIIIIIIIIIIIIIIIIIIIIIIIIIIIIIIIAIIIAII
IIIIIIIIIIIIIIIIIIIIAIII4IIIIIIIIIIIIIIIIIIIIIIIIIIIIIIIIIIIIIII
IIIIIIIIIIIIIA4IIIIIAIII4IIIIIIIIIIIIIIIIIIIIIIIIIIIIIIIIIIIIIII
IIIIIIIIIIIIIA4IIIIIAIII4IIIIIA4IIIIIIIIIIIIIIIIIIIIIIIIIIIIIIII
IIIIIIIIIIIIIA4IIIIIAIII4IIIIIA4A4IIIIIIIIIIIIIIIIIIIIIIIIIIIIII
IIIIIIIIIIIIIIIIIIIIIIIIIIIIIIIIIIIIIIIIIIIIIIIIIIIIIIIA4IIIIIII
IIIIIIIIIIIIIIIIIIIAI4IIIIIIIIIIIIIIIIIIIIIIIIIIIIIIIIIA4IIIIIII
IIIIIIIIIIIIIIIIIIIAI4IIIIIIIIIIIIIIIIIIIIIIIIIIIIIIIIIA44IIIIII
IIIIIIIIIIIIIIIIIIIAI4IIIIIIIIIIIIIIIIIIIIIIIIIIIIIIIIIA44IIIAI4
IIIIIIIIIIIIIIIIIIIAI4IIIIIIIIA4IIIIIIIIIIIIIIIIIIIIIIIA44IIIAI4
IIIIIIIIIIIIIIIIIIIAI4IIIIIIIAA4IIIIIIIIIIIIIIIIIIIIIIIA44IIIAI4
IIIIIIIIA4IIIIIIIIIAI4IIIIIIIAA4IIIIIIIIIIIIIIIIIIIIIIIA44IIIAI4
IIIIIIIIA4IIIIIIIIIAI4IIIIIIIAA4A4IIIIIIIIIIIIIIIIIIIIIA44IIIAI4
IIIIIIIIA4IIIIIIIIIAI4IIIIIIIAA4A4IIIIIIIIIIIIIIIIIIIIAA44IIIAI4
IIIIIIIIA4IIIIIIIIIAI4IIIIIIIAA4A4IIIIIIIIIIIIIIIIIIIIAA44IIIA44
IIIAI4IIIIIIIIIIIIIIIIIIIIIIIIIIIIIIIIIIIIIIIIIIIIIIIIIIIIIIIIII
IIIAA44IIIIIIIIIIIIIIIIIIIIIIIIIIIIIIIIIIIIIIIIIIIIIIIIIIIIIIIII
IIIAA44IAI4IIIIIIIIIIIIIIIIIIIIIIIIIIIIIIIIIIIIIIIIIIIIIIIIIIIII
IIIAA44IAI4AI4IIIIIIIIIIIIIIIIIIIIIIIIIIIIIIIIIIIIIIIIIIIIIIIIII
IIIAA44IAI4AI4IIIIIAI4IIIIIIIIIIIIIIIIIIIIIIIIIIIIIIIIIIIIIIIIII
IIIAA44IAI4AI4IIIIIAA44IIIIIIIIIIIIIIIIIIIIIIIIIIIIIIIIIIIIIIIII
IIIAA44IAI4AI4IIIIIAA4AI4IIIIIIIIIIIIIIIIIIIIIIIIIIIIIIIIIIIIIII
IIIAA44IAI4AI4IIIIIAA4AA44IIIIIIIIIIIIIIIIIIIIIIIIIIIIIIIIIIIIII
IIIAA44IAI4AI4IIIIIAA4AA44AI4IIIIIIIIIIIIIIIIIIIIIIIIIIIIIIIIIII
IIIAA44IAI4AI4IIIIIAA4AA44AI4IIIAI4IIIIIIIIIIIIIIIIIIIIIIIIIIIII
IIIAA44IAI4AI4IIIIIAA4AA44AI4IIIAI4AI4IIIIIIIIIIIIIIIIIIIIIIIIII
IIIAA44IAI4AI4IIIIIAA4AA44AI4IIIAI4AI4AI4IIIIIIIIIIIIIIIIIIIIIII
IIIAA44IAI4AI4IIIIIAA4AA44AI4IIIAI4AI4AI4IAI4IIIIIIIIIIIIIIIIIII
IIIAA44IAI4AI4IIIIIAA4AA44AI4IIIAI4AI4AI4IAI4IAI4IIIIIIIIIIIIIII
IIIAA44IAI4AI4IIIIIAA4AA44AI4IIIAI4AI4AI4IAI4IAI4IIIAI4IIIIIIIII
IIIAA44IAI4AI4IIIIIAA4AA44AI4IIIAI4AI4AI4IAI4IAI4IIIAIAI4IIIIIII
IIIAA44IAI4AI4IIIIIAA4AA44AI4IIIAI4AI4AI4IAI4IAI4IIIAIAA44IIIIII
IIIAA44IAI4AI4IIIIIAA4AA44AI4IIIAI4AI4AI4IAI4IAI4IIIAIAA4AI4IIII
IIIAA44IAI4AI4IIIIIAA4AA44AI4IIIAI4AI4AI4IAI4IAI4IIIAIAA4AI4IAI4
IIIIIIIIIIIIIIIIIAI4IIIII4IIII4II4IIIIIIIIIIIIIIIIIIIIIIIIIIIIII
IIIIIIIIIIIIIIIIIAI4IIIIA44III4I44III4II4IIIIIIIIIIIIIIIIIIIIIII
IIIIIIIIIIIIIIIIIAI4IIAIA44III4I44I4I4II4IIIIIIIIIIIIIIIIIIIIIII
IIIIIIIIIIIIIIIIIAI4IIAIA44III4I44A444II4I4I4II4IIIIIIIIIIIIIIII
IIIIIIIA44I444IIIAI4IIAIA44III4I44A444II4I4I4II4IIIIIIIIIIIIIIII
IIIIA4IA44I444IIIAI4IIAIA44III4I44A444II4I4I4II4IIIIIIIIIIIIIIII
IIIIA4IA44I444IIIAI4IIA4A44III4I44A444II4I4I4II4IIIIIIIIIIIIIIII
IIIIA4IA44I444IIIAI4IIA4A44IIA4I44A444II4I4I4II4IIIIIIIIIIIIIIII
IIIIA4IA44I444IIIAI4IIA4A44IIA4I44A444A44I4I4II4IIIIIIIIIIIIIIII
IIIIA4IA44I444IIIAI4IIA4A44IIA4I44A444A44I4I4II4IIIA4IIIIIIIIIII
IIIIA4IA44I444IIIAI4IIA4A44IIA4I44A444A44I4I4II4IIIA4IA4IIIIIIII
IIIIA4IA44I444IIIAI4IIA4A44IIA4I44A444A44I4I4II4IIIA4IAA4IIIIIII
IIIIA4IA44I444IIIAI4IIA4A44IIA4I44A444A44I4I4II4IIIA4IAA4A4IIIII
IIIIA4IA44I444IIIAI4IIA4A44IIA4I44A444A44I4I4II4IIIA4IAA4A4IA4II
IIIIA4IA44I444IIIAI4IIA4A44IIA4I44A444A44I4I4II4IIIA4IAA4A4IAA4I
IIIIIIIIIIIIIIIIIIIIAII4IIIIIIIIIIIIIIIIIIIIIIIIIIIIIIIIIIIIIIII
IIIIIIIIIIIIIIIIIIIIAII4IIIIIIIIIIIIIIIIIIIIIIIIIIIIIIIIIAII4III
IIIIIIIIIIIIIIIIIIIIAII4IIIIIIIIIIIIIIIIIIIIIIIIIIIIIIIIIAIIAII4
IIIIIIIIIIIIIIIIIIIIAII4IIIIIIIIIIIAIIIIIIIIIIIIIIIIIIIIIAIIAII4
IIIIIIIIIIIIIIIIIIIIAII4IIIIIIIIIAIAIIIIIIIIIIIIIIIIIIIIIAIIAII4
IIIIIIIIIIIIIIIIIIIIAII4IIIIIIIIIAIAIIAIIIIIIIIIIIIIIIIIIAIIAII4
IIIIIIIIIIIIIIIIIIIIAII4IIIIIIIIIAIAIIAIIIIIIAIIIIIIIIIIIAIIAII4
IIIIIIIIIIIIIIIIIIIIAII4IIIIIIIIIAIAIIAIIIIIIAAIIIIIIIIIIAIIAII4
IIIIIIIIIIIIIIIIIIIIAII4IIIIIIIIIAIAIIAIIIIIIAAIIIIIIIAIIAIIAII4
IIIIIIIIIIIIIIAIII4IIIIIIIIIIIIIIIIIIIIIIIIIIIIIIIIIIIIIIIIIIIII
IIIIIIIIIIIIIIAIII4IIIIIIIIIIIIIIIIIIIIIIIIIIIIIIIIIIIIIIAIII4II
IIIIIIIIIIIIIIAIII4IIIIIIIIIIIIIIIIIIIIIIIIIIIIIIIIIIIIIIAIIIAII
IIIIIIIIIIIIIIIIIIIIIIIAIIIIIIIIIIIIIIIIIIIIIIIIIIIIIIIIIIIIIIII
IIIIIIIIIIIIIIIIIIIIIIIAIIIIIIIIIIIIIIIIIIIIIIIIIIIIIIIIIIIIIAII
IIIIIIIIIAIIIIIIIIIIIIIAIIIIIIIIIIIIIIIIIIIIIIIIIIIIIIIIIIIIIAII
IIIIIIIIIAIIIIIIIIIIIIIAIIIIIIIIAII4IIIIIIIIIIIIIIIIIIIIIIIIIAII
IIIIIIIIIAIIIIIIIIIIIIIAIIIIIIIIAII4IIAIIIIIIIIIIIIIIIIIIIIIIAII
IIIIIIIIIAIIIIIIIIIIIIIAIIIIIIIIAII4IIAIIIIIIIIIIIIIIIIIIAIIIAII
IIIIIIIIIIIIIIIIIIIIIIIIIIIIIIIAIIIIIIIIIIIIIIIIIIIIIIIIIIIIIIII
IIIIIIIIIIIIIIIIIIIIIIIIIIIIIIIAIAIIIIIIIIIIIIIIIIIIIIIIIIIIIIII
IIIIIIIIIIIIIIIIIIIIIIIIIIIIIIIAIAIAIIIIIIIIIIIIIIIIIIIIIIIIIIII
IIIIIIIIIIIIIIIIIIIIIIIIIIIIIIIAIAIAIIAIIIIIIIIIIIIIIIIIIIIIIIII
IIIIIIIIIIIIIIIIIIIIIIIIIIIIIIIAIAIAIIAIIIIIIIIIIIIIIIIIIAIIIIII
IIIAI4IIIIIIIIIIIIIIIIIIIIIIIIIAIAIAIIAIIIIIIIIIIIIIIIIIIAIIIIII
IIIAA44IIIIIIIIIIIIIIIIIIIIIIIIAIAIAIIAIIIIIIIIIIIIIIIIIIAIIIIII
IIIAA4AI4IIIIIIIIIIIIIIIIIIIIIIAIAIAIIAIIIIIIIIIIIIIIIIIIAIIIIII
IIIAA4AI4IIIIIIIAI4IIIIIIIIIIIIAIAIAIIAIIIIIIIIIIIIIIIIIIAIIIIII
IIIAA4AI4IIIIIIIAI4IAI4IIIIIIIIAIAIAIIAIIIIIIIIIIIIIIIIIIAIIIIII
IIIAA4AI4IIIIIIIAI4IAI4IIAI4IIIAIAIAIIAIIIIIIIIIIIIIIIIIIAIIIIII
IIIAA4AI4IIIIIIIAI4IAI4IIAI4IAIAIAIAIIAIIIIIIIIIIIIIIIIIIAIIIIII
IIIAA4AI4IIIIIIIAI4IAI4IIAI4IAAA4AIAIIAIIIIIIIIIIIIIIIIIIAIIIIII
IIIAA4AI4IIIIIIIAI4IAI4IIAI4IAAAAA4AIIAIIIIIIIIIIIIIIIIIIAIIIIII
IIIAA4AI4IIIIIIIAI4IAI4IIAI4IAAAAAAA4IAIIIIIIIIIIIIIIIIIIAIIIIII
IIIAA4AI4IIIIIIIAI4IAI4IIAI4IAAAAAAA44AIIIIIIIIIIIIIIIIIIAIIIIII
IIIAA4AI4IIIIIIIAI4IAI4IIAI4IAAAAAAAA4AIIIIIIIIIIIIIIIIIIAIIIIII
IIIAA4AI4IIIIIIIAI4IAI4IIAI4IAAAAAAAA4AI4IIIIIIIIIIIIIIIIAIIIIII
IIIAA4AI4IIIIIIIAI4IAI4IIAI4IAAAAAAAA4AI4IIIIAI4IIIIIIIIIAIIIIII
IIIAA4AI4IIIIIIIAI4IAI4IIAI4IAAAAAAAA4AI4IIIIAA44IIIIIIIIAIIIIII
IIIAA4AI4IIIIIIIAI4IAI4IIAI4IAAAAAAAA4AI4IIIIAAA44IIIIIIIAIIIIII
IIIAA4AI4IIIIIIIAI4IAI4IIAI4IAAAAAAAA4AI4IIIIAAA44IIIIAI4AIIIIII
IIIAA4AI4IIIIIIIAI4IAI4IIAI4IAAAAAAAA4AI4IIIIAAA44IIIIAA4AIIIIII
IIIAA4AI4IIIIIIIAI4IAI4IIAI4IAAAAAAAA4AI4IIIIAAA44IIIIAA4AI4IIII
IIIAA4AI4IIIIIIIAI4IAI4IIAI4IAAAAAAAA4AI4IIIIAAA44IIIIAA4AA44III
IIIAA4AI4IIIIIIIAI4IAI4IIAI4IAAAAAAAA4AI4IIIIAAA44IIIIAA4AA4AI4I
IIIAA4AI4IIIIIIIAI4IAI4IIAI4IAAAAAAAA4AI4IIIIAAA44IIIIAA4AA4AA44
IIIAA4AI4IIIIIIIAI4IAI4IIAI4IAAAAAAAA4AI4IIIIAAA44IIIIAA4AA4AAA4
IAI4IIIII4I444IIIIII4I4IIIIIIIIIIIIIIIIIIIIIIIIIIIIIIIIIIIIIIIII
IAI4AI4II4I444444III4I44I4IIIIIIIIIIIIIIIIIIIIIIIIIIIIIIIIIIIIII
IAI4AI4II4I4A4444III4I4444IIIII4I4IIIIIIIIIIIIIIIIIIIIIIIIIIIIII
IAI4AI4II4I4A4444AI44I4444I444I4I4II4I4IIIIIIIIIIIIIIIIIIIIIIIII
IAI4AI4II4I4A4444AI44I4444I444I4A44I4I4I4I444IIIIII4I4IIIIIIIIII
IAI4AI4II4I4A4444AI44I4444I444I4A44A444I4I444444III4I44I4IIIIIII
IAI4AI4II4I4A4444AI44I4444I444I4A44A44AI4I4444444444I44I44I4IIII
IAI4AI4II4I4A4444AI44I4444I444I4A44A44AIAI4444444444444I44I4I4II
IAI4AI4II4I4A4444AI44I4444I444I4A44A44AIAI4444444444444A44I4I4I4
IAI4AI4II4I4A4444AI44I4444I444I4A44A44AIAI4444444444444A4AI4I4I4
IAI4AI4II4I4A4444AI44I4444I444I4A44A44AIAI4444444444444A4AI4IAI4
IIIIIIIIIIIIIIIIIIIIIIIIIIIIIIIIIIIIIIIIIIIIIIIIIIIIIIIAI4I4IIII
IIIIIIA4IIIIIIIIIIIIIIIIIIIIIIIIIIIIIIIIIIIIIIIIIIIIIIIAI4I4IIII
IIIIIIA4IIIIIIIIIIIIIIIIIIIIIIIIIIIA4IIIIIIIIIIIIIIIIIIAI4I4IIII
IIIIIIA4IIIIIIIIIIIIIIIIIIIIIIIIIIIA4IIIIIA4IIIIIIIIIIIAI4I4IIII
IIIIIIA4IIIIIA444IIIIIIIIIIIIIIIIIIA4IIIIIA4IIIIIIIIIIIAI4I4IIII
IIIIIIA4IIIIIA444IIIIIIA444IIIIIIIIA4IIIIIA4IIIIIIIIIIIAI4I4IIII
IIIIIIA4IIIIIA444IIIIIIA44A444IIIIIA4IIIIIA4IIIIIIIIIIIAI4I4IIII
IIIIIIA4IIIIIA444IIIIIIA44A444IIIIIA4IIIIIA4IIIIIIIIIIAA44I4IIII
IIIIAIA4IIIIIA444IIIIIIA44A444IIIIIA4IIIIIA4IIIIIIIIIIAA44I4IIII
IIIIAIA4IIIIIA444IIIIIIA44A444IIIIIA4IIIIIA4IIIIIIIIIIAA4AI44III
IIIIAIA4IIIIIA444IIAIIIA44A444IIIIIA4IIIIIA4IIIIIIIIIIAA4AI44III
IIIIAIA4IIIIIA444IIAIIIA44A444IIIIIA4IIAIIA4IIIIIIIIIIAA4AI44III
IIIIAIA4IIIIIA444IIAAI4A44A444IIIIIA4IIAIIA4IIIIIIIIIIAA4AI44III
IIIIAIA4IIIIIA444IIAAI4A44A444IIIIIA4IAAIIA4IIIIIIIIIIAA4AI44III
IIIIAIA4IIIIIA444IIAAI4A44A444IIIIIA4IAAIIA4IIIIIIIIIIAA4AI44AII
IIIA4IIIIIIIIIIIIIIIIIIIIIIIIIIIIIIIIIIIIIIIIIIIIIIIIIIIIIIIIIII
IIIA4IIIIIIIIIIIIIIIIIIIIIIIIIIIIIIIIIIIIIIIIIIIIIIIIAIIIIIIIIII
IIIA4IIIIIIIIIIIIIIIIIIIIIIIIIIIIIIIIIIIIIIIIIIIIIIIIAIIIAI4IIII
IIIA4IIIIIIIIIIIIIIIIIIIIIIIIIIIIIIIIIIIIIIIIIAI4IIIIAIIIAI4IIII
IIIA4IIIIIIIIIIIIIIIIIIIIIIIIIIIIIIIIIIIIIIIIIAI4IIIIAIIIAI4IAII
IIIA4IIIIIIIIIIIIIIIIIIIIIIIIIIIIIIIIIIIIIIIIIAI4IIIIAIAIAI4IAII
IIIA4IIIIIIIIIIIIIIIIIIIIIIIIIIIIIIIIIIIIIIIIIAI4IIIIAIAIAI4IIII
IIIIIIIIIIIIIIAIIIIIIIIIIIIIIIIIIIIIIIIIIIIIIIIIIIIIIIIIIIIIIIII
IIIIIIIIIIIIIIAIIAIIIIIIIIIIIIIIIIIIIIIIIIIIIIIIIIIIIIIIIIIIIIII
IIIIIIIIIIIIIIAIIAIIIIIIIIIIIIIIIIIIIIAIIIIIIIIIIIIIIIIIIIIIIIII
IIIIIIIIIIIIIIIIIIIIIIIIIIIIIIIIIIAIIIIIIIIIIIIIIIIIIIIIIIIIIIII
IIIIIIIIIIIIIIIIIIIIIIIIIIIIIIIIIIAIIIAIIIIIIIIIIIIIIIIIIIIIIIII
IIIIIIIIIIIIIIIIIIIIIIIIIIIIIIIIIIAIIIAIIIIIIIIIIIIIIIIAIIIIIIII
IIIIIIIIIIIIIIIIIIIIIIIIIIIIIIIIIIIIIIAIIIIIIIIIIIIIIIIIIIIIIIII
IIIIIIIIIIIIIIIIIIIIIIIIIIIIIIIIIIIAIIAIIIIIIIIIIIIIIIIIIIIIIIII
IIIIIIIIIIIIIIIIIIIIIIIIIIIIIIIIIIIAIIAIIIIIIIIIIAIIIIIIIIIIIIII
IIIIIIIIIIIIIIIIIIIIIIIIIIIIIIIIIIIAIIAIIIIIIIIIIAIIIAIIIIIIIIII
IIIIIIIIIIIIIIIIIIIIIIIIIIIIIIIIIIIAIIAIIIIIIIIIIAIIIAIIIIIIIAII
IIIIIIIIIIIIIIIIIIIIIIIAIIIIIIIIIIIAIIAIIIIIIIIIIAIIIAIIIIIIIAII
IIIIIIIIIIIIIIIIIIIIIIIAIIIIIIIIIIIAIAAIIIIIIIIIIAIIIAIIIIIIIAII
IIIIIIIIIIIIIIIIIIIIIIIAIIIIIIIIIIIAIAAIIIIIIAIIIAIIIAIIIIIIIAII
IIIIIIIIIIIIIIIIIIIIIIIAIIIIIIIIIIIAIAAIIIIIIAIAIAIIIAIIIIIIIAII
IIIIIIIIIIIIIIIIIIIIIIIAIIIIIIIIIIIAIAAIIIIIIAIAIAIIIAIIIAIIIAII
IIIIIIIIIIIIIIIIIIIIIIIIIIIIIIIIIIAIIIIIIIIIIIIIIIIIIIIIIIIIIIII
IIIIIIIIIIIIIAIIIIIIIIIIIIIIIIIIIIAIIIIIIIIIIIIIIIIIIIIIIIIIIIII
IIIIIIAIIIIIIAIIIIIIIIIIIIIIIIIIIIAIIIIIIIIIIIIIIIIIIIIIIIIIIIII
IIIIIIAIIIIIIAIIIIIIIIIIAIIIIIIIIIAIIIIIIIIIIIIIIIIIIIIIIIIIIIII
IIIIIIAIIIIIIAIIIIIIIIIIAIIIIIAIIIAIIIIIIIIIIIIIIIIIIIIIIIIIIIII
IIIIIIAIIIIIIAIIIIIIIIIIAIIIIIAIIIAIIIIIIIIIIIIIIIIAIIIIIIIIIIII
IIIIIIAIIIIIIAIIIIIIIIIIAIIIIIAIIIAIIIIIIIIIIIIIIIIAIIAIIIIIIIII
IIIIIIAIIIIIIAIIIIIIIIIIAIIIIIAIIIAIIIIIIIIIIAIIIIIAIIAIIIIIIIII
IIIIIIAIIIIIIAIIIIIIIIIIAIIIIIAIIIAIIIIIIIIIIAIIIIIAIIAIIAIIIIII
IIIIIIAIIIIIIAIIIIIIIIIIAIIIIIAIIIAIIIIIIIIIIAIIIIIAIIAAIAIIIIII
IIIIIIAIIIIAIAIIIIIIIIIIAIIIIIAIIIAIIIIIIIIIIAIIIIIAIIAAIAIIIIII
IIIIIIAIIIIAIAIIIIIIIIIIAIIIIIAIIIAIIIIIIIIIIAIIAIIAIIAAIAIIIIII
IIIIIIAIIIIAIAIIIIIIIIIIAIIIIIAIIAAI4IIIIIIIIAIIAIIAIIAAIAIIIIII
IIIIIIAIIIIAIAIIIIIIIIIIAIIIIIAIIAAA4I4IIIIIIAIIAIIAIIAAIAIIIIII
IAIIIIAIIIIAIAIIIIIIIIIIAIIIIIAIIAAA4I4IIIIIIAIIAIIAIIAAIAIIIIII
IAIIAIAIIIIAIAIIIIIIIIIIAIIIIIAIIAAA4I4IIIIIIAIIAIIAIIAAIAIIIIII
IAIIAIAIIIIAIAIIIIIIIAIIAIIIIIAIIAAA4I4IIIIIIAIIAIIAIIAAIAIIIIII
IAIIAIAIIIIAIAIIIIIIIAIIAIIIIIAIIAAA4IAIIIIIIAIIAIIAIIAAIAIIIIII
IAIIAIAIIIIAIAIIIIIIIAIIAIIIIIAIIAAA4IAIIIIIIAIIAIIAIIAAIAIIIIAI
IAIIAIAIIIIAIAIIAIIIIAIIAIIIIIAIIAAA4IAIIIIIIAIIAIIAIIAAIAIIIIAI
IAIIAIAIIIIAIAIIAAIIIAIIAIIIIIAIIAAA4IAIIIIIIAIIAIIAIIAAIAIIIIAI
IAIIAIAIIIIAIAIIAAIIIAAIAIIIIIAIIAAA4IAIIIIIIAIIAIIAIIAAIAIIIIAI
IAIIAIAIIIIAIAIIAAIIIAAIAIIIIIAIIAAA4IAIIIIIIAIIAIIAIIAAIAIIIAAI
IIIIIIIIIIIIIIIIIIIIIIIIIIIIIIIIIIIIIIAIIIIIIIIIIIIIIIIIIIIIIIII
IIIIIIIIIIIIIIIIIIIIIIIIIIIIIIIIIIIIIIAIIIIIIIIIIIIIIAIIIIIIIIII
IIIIIIIIIIIIIIIAIIIIIIIIIIIIIIIIIIIIIIAIIIIIIIIIIIIIIAIIIIIIIIII
IIIIIIIIIIIIIIIAIIIIIAIIIIIIIIIIIIIIIIAIIIIIIIIIIIIIIAIIIIIIIIII
IIIIIIIIIIIIIIIAIIIIIAIIIIIIIIAIIIIIIIAIIIIIIIIIIIIIIAIIIIIIIIII
IIIIIIIIIIIIIIIAAIIIIAIIIIIIIIAIIIIIIIAIIIIIIIIIIIIIIAIIIIIIIIII
IIIIIIIIIIIIIIIAAIIIIAIIIIIIIIAIIIIIIIAIIIIIIIIIIIIIIAIAIIIIIIII
IIIIIIIIIIIIIIIAAIIIIAIIIIIIIIAIIIIIIIAIIIIIIIIIIIIIIAIAIIIIIAII
IIIIIIIIIIIIIIIIIIIIIIIIIIIIIIIIIIIIIIIIIIIIIIIIIIIIIIIIIIIIIAII
IIIIIIIIIIIIIIIIIIIIIIIIIIIIIIIIIAIIIIIIIIIIIIIIIIIIIIIIIIIIIAII
IIIIIIIIIIIIIIIIIIIIIIIIIIIIIIIIIAIIIIIIIIIIIIIIIIIIIIIIIAIIIAII
IIIIIIIIIIIIIIIIIIIIIIIIIIIIIIIIIAIIIIIIIIIIIIIIIIIIIIIIIAIIAAII
IIIIIAIIIIIIIIIIIIIIIIIIIIIIIIIIIAIIIIIIIIIIIIIIIIIIIIIIIAIIAAII
IIIIIAAIIIIIIIIIIIIIIIIIIIIIIIIIIAIIIIIIIIIIIIIIIIIIIIIIIAIIAAII
IIIIIAAIIIIIIIAIIIIIIIIIIIIIIIIIIAIIIIIIIIIIIIIIIIIIIIIIIAIIAAII
IIIIIAAIIIIIIIAIIIIIIIIIAIIIIIIIIAIIIIIIIIIIIIIIIIIIIIIIIAIIAAII
IIIIIAAIIIIIIIAIIIIIIIIIAIIIIIAIIAIIIIIIIIIIIIIIIIIIIIIIIAIIAAII
IIIIIAAIIIIIIIAIIIIIIIIIAIIIIIAAIAIIIIIIIIIIIIIIIIIIIIIIIAIIAAII
IIIIIAAIIIIIIIAIIIIIIIIIAIIIIIAAAAIIIIIIIIIIIIIIIIIIIIIIIAIIAAII
IIIIIAAIIIIIIIAIIIIIIIIIAIIIIIAAAAIAIIIIIIIIIIIIIIIIIIIIIAIIAAII
IIIIIAAIIIIIIIAIIIIIIIIIAIIIIIAAAAIAAIIIIIIIIIIIIIIIIIIIIAIIAAII
IIIIIAAIIIIIIIAIIIIIIIIIAIIIIIAAAAIAAIAIIIIIIIIIIIIIIIIIIAIIAAII
IIIIIAAIIIIIIIAIIIIIIIIIAIIIIIAAAAIAAIAIIIIIIIIIIIIIAIIIIAIIAAII
IIIIIAAIIIIIIIAIIIIIIIIIAIIIIIAAAAIAAIAIIIIIIIIIIIIIAAIIIAIIAAII
IIIIIAAIIIIIIIAIIIIIIIIIAIIIIIAAAAIAAIAIIIIIIIIIIIIIAAIAIAIIAAII
IIIIIIIIIIIIIIIIIIIIIIIIIIIIIIIIIIIIIIAIIIIIIIIIIIIIIIIIIIIIIIII
IIIIIIIIIIIIIIIIIIIIIIIIIIIIIIIIIIIIIIA4IIIIIIIIIIIIIIIIIIIIIIII
IIIIIIIIIIIIIIIIIIIIIIAIIII4IIIIIIIIIIA4IIIIIIIIIIIIIIIIIIIIIIII
IIIIIIIIIIIIIIIIIIIIIIAIIII4IIIIIIIIIIA4IIIIIAI4IIIIIIIIIIIIIIII
IIIIIIIIIIIIIIIIIIIIIIAIIII4IIIIIIIIIIA4IIIIIAI4IIIIIIIIIAI4IIII
IIIIIIIIIIIIIIIIIIIIIIAIIII4IIIIIIIIIIA4IIIIIAI4IIIIIIIIIAI4IAI4
IIIIIIIIIIIIIIIIIIIIIIAIIII4IIIIAIIIIIA4IIIIIAI4IIIIIIIIIAI4IAI4
IIIIIIIIIIIIIIIIIIIIIIAIIII4IIIIAIIIIIA44IIIIAI4IIIIIIIIIAI4IAI4
IIIIIIIIIIIIIIIIIIIIIIAIIII4IIIIAIIIIIA44IIIIAI4IIIIIIIIIAA44AI4
IIIIIIIIIIIIIIIIIIIIIIAIIII4IIIIAIIIIIA44IIIIAA4III4IIIIIAA44AI4
IIIIIIIIIIIIIIIIIIIIIIAIIII4IIIIAIIAI4A44IIIIAA4III4IIIIIAA44AI4
IIIIIIIIIIIIIIIIIIIIIIAIIII4IIIIAIIAI4A44IIIIAA4III4IIIIIAA4AA44
IIIIIIIIIIIIIIIIIIIIIIIIIIIIIIIIIIIIIIIIIIIIIIIIIIIIIIIA4IIIIIII
IIIIIIIIIIIIIIIIIIIIIIIIIIIIIIIIIIIIIIIIIIIIIIIIIIIIIIIA4IIIIA4I
IIIIIIIIIIIIIIIIIIIIIIIIIIIIIIIIIIAIIIIIIIIIIIIIIIIIIIIA4IIIIA4I
IIIIIIIIIIIIIIIIIIIIIIIIIIIIIIIIIIAIIIAIIIIIIIIIIIIIIIIA4IIIIA4I
IIIIIIIIIIIIIIIIIIIIIIIIIIIIIIIIIIAIIIAIIIIIIIIIIIIAIIIA4IIIIA4I
IIIIIIIIIIIIIIIIIIIIIIIIIIIIIIIIIIIIIIIIIIIIIIIIIIIIIIIIIIIIIIAI
IIIIAI4IIIIIIIIIIIIIIIIIIIIIIIIIIIIIIIIIIIIIIIIIIIIIIIIIIIIIIIAI
IIIIAA44IIIIIIIIIIIIIIIIIIIIIIIIIIIIIIIIIIIIIIIIIIIIIIIIIIIIIIAI
IIIIAA44AI4IIIIIIIIIIIIIIIIIIIIIIIIIIIIIIIIIIIIIIIIIIIIIIIIIIIAI
IIIIAA44AA44IIIIIIIIIIIIIIIIIIIIIIIIIIIIIIIIIIIIIIIIIIIIIIIIIIAI
IIIIAA44AA44IIIIIIIIAI4IIIIIIIIIIIIIIIIIIIIIIIIIIIIIIIIIIIIIIIAI
IIIIAA44AA44IIIIIIIIAI4IIIAI4IIIIIIIIIIIIIIIIIIIIIIIIIIIIIIIIIAI
IIIIAA44AA44IIIIIIIIAI4IIIAA44IIIIIIIIIIIIIIIIIIIIIIIIIIIIIIIIAI
IIIIAA44AA44IIIIIIIIAI4IIIAA44IIIIIIIIAI4IIIIIIIIIIIIIIIIIIIIIAI
IIIIAA44AA44IIIIIIIIAI4IIIAA44IIIIIIIIAI4IIIIIIIIIIAI4IIIIIIIIAI
IIIIAA44AA44IIIIIIIIAI4IIIAA44IIIIIIIIAI4IIIIIIIIIIAI4IIIAI4IIAI
IIIIAA44AA44IIIIIIIIAI4IIIAA44IIIIIIIIAI4IIIIIIIIIIAI4IIIAI4IAA4
IIIIAI4IIIIIIIIIIIIIIIIIIIIIIIIIIIIIIIIIIIIIIIIIIIIIIIIIIIIIIIII
IIIIAIAI4IIIIIIIIIIIIIIIIIIIIIIIIIIIIIIIIIIIIIIIIIIIIIIIIIIIIIII
IIIIAIAI4IIIIAI4IIIIIIIIIIIIIIIIIIIIIIIIIIIIIIIIIIIIIIIIIIIIIIII
IIIIAIAI4IIIIAA44IIIIIIIIIIIIIIIIIIIIIIIIIIIIIIIIIIIIIIIIIIIIIII
IIIIAIAI4IIIIAA4AI4IIIIIIIIIIIIIIIIIIIIIIIIIIIIIIIIIIIIIIIIIIIII
IIIIAIAI4IIIIAA4AA44IIIIIIIIIIIIIIIIIIIIIIIIIIIIIIIIIIIIIIIIIIII
IIIIAIAI4IIIIAA4AA4AI4IIIIIIIIIIIIIIIIIIIIIIIIIIIIIIIIIIIIIIIIII
IIIIAIAI4IIIIAA4AA4AA44IIIIIIIIIIIIIIIIIIIIIIIIIIIIIIIIIIIIIIIII
IIIIAIAI4IIIIAA4AA4AA44AI4IIIIIIIIIIIIIIIIIIIIIIIIIIIIIIIIIIIIII
IIIIAIAI4IIIIAA4AA4AA44AA44IIIIIIIIIIIIIIIIIIIIIIIIIIIIIIIIIIIII
IIIIAIAI4IIIIAA4AA4AA44AAA44IIIIIIIIIIIIIIIIIIIIIIIIIIIIIIIIIIII
IIIIAIAI4IIIIAA4AA4AA44AAA44AI4IIIIIIIIIIIIIIIIIIIIIIIIIIIIIIIII
IIIIAIAI4IIIIAA4AA4AA44AAA44AIAI4IIIIIIIIIIIIIIIIIIIIIIIIIIIIIII
IIIIAIAI4IIIIAA4AA4AA44AAA44AIAI4IIAI4IIIIIIIIIIIIIIIIIIIIIIIIII
IIIIAIAI4IIIIAA4AA4AA44AAA44AIAI4IIAI4AI4IIIIIIIIIIIIIIIIIIIIIII
IIIIAIAI4IIIIAA4AA4AA44AAA44AIAI4IIAI4AI4IIAI4IIIIIIIIIIIIIIIIII
IIIIAIAI4IIIIAA4AA4AA44AAA44AIAI4IIAI4AI4IIAI4AI4IIIIIIIIIIIIIII
IIIIAIAI4IIIIAA4AA4AA44AAA44AIAI4IIAI4AI4IIAI4AI4IIAI4IIIIIIIIII
IIIIAIAI4IIIIAA4AA4AA44AAA44AIAI4IIAI4AI4IIAI4AI4IIAIAI4IIIIIIII
IIIIAIAI4IIIIAA4AA4AA44AAA44AIAI4IIAI4AI4IIAI4AI4IIAIAIAI4IIIIII
IIIIAIAI4IIIIAA4AA4AA44AAA44AIAI4IIAI4AI4IIAI4AI4IIAIAIAIAI4IIII
IIIIAIAI4IIIIAA4AA4AA44AAA44AIAI4IIAI4AI4IIAI4AI4IIAIAIAIAIAI4II
IIIIAIAI4IIIIAA4AA4AA44AAA44AIAI4IIAI4AI4IIAI4AI4IIAIAIAIAIAA44I
IIIIAIAI4IIIIAA4AA4AA44AAA44AIAI4IIAI4AI4IIAI4AI4IIAIAIAIAIAAA44
IIIIAIAI4IIIIAA4AA4AA44AAA44AIAI4IIAI4AI4IIAI4AI4IIAIAIAIAIAAAA4
IIIIIIIA4IIIIII4IIIII44IIIIIIIIIIIIIIIIIIIIIIIIIIIIIIIIIIIIIIIII
IIIIIIIA4IIIIIA4IIIII44IIIII44IIIIIIIIIIIIIIIIIIIIIIIIIIIIIIIIII
IIIIIIIA4IIIIIA4IIIII44IIA4I44III4IIIII44IIIIIIIIIIIIIIIIIIIIIII
IIIIIIIA4IIIIIA4IIIII44IIA4I44A4I4IIII444III44IIIIIIIIIIIIIIIIII
IIIIIIIA4IIIIIA4IIIII44IIA4I44A4I4IIII444III44IIIIIIIIIIA4IIIIII
IIIIIIIA4IIIIIA4IIIII44IIA4I44A4I4IIII444III44IIIIIIIIIIAA4IIIII
IIIIA4I4IIIIIIIIIIIIIIIIIIIIIIIIIIIIIIIIIIIIIIIIIIIIIIIIIIIIIIII
IIIIAA444IIIIIIIIIIIIIIIIIIIIIIIIIIIIIIIIIIIIIIIIIIIIIIIIIIIIIII
IIIIAA444IIIIIIIA4I4IIIIIIIIIIIIIIIIIIIIIIIIIIIIIIIIIIIIIIIIIIII
IIIIAA444IIIIIIIA4I4IIIIIIIA4I4IIIIIIIIIIIIIIIIIIIIIIIIIIIIIIIII
IIIIAA444IIIIIIIA4I4IIIIIIIA4I4IIIIIIIA4I4IIIIIIIIIIIIIIIIIIIIII
IIIIAA444IIIIIIIA4I4IIIIIIIA4I4IIIIIIIA4I4IIIIIIIIIA4I4IIIIIIIII
IIIIAA444IIIIIIIA4I4IIIIIIIA4I4IIIIIIIA4I4IIIIIIIIIA4I4IA4I4IIII
IIIIAA444IIIIIIIA4I4IIIIIIIA4I4IIIIIIIA4I4IIIIIIIIIA4I4IA4I4IA4I
IIIIAA444IIIIIIIA4I4IIIIIIIA4I4IIIIIIIA4I4IIIIIIIIIA4I4IA4I4IAA4
IIIIAAA44IIIIIIIA4I4IIIIIIIA4I4IIIIIIIA4I4IIIIIIIIIA4I4IA4I4IAA4
IIIIAAA44IIIIIIIA4I4IAIIIIIA4I4IIIIIIIA4I4IIIIIIIIIA4I4IA4I4IAA4
IIIIAAA44IIIIIIIA4I4IAIIIIIAAI4IIIIIIIA4I4IIIIIIIIIA4I4IA4I4IAA4
IIIIAAA44IIIIIIIA4I4IAIIIIIAAIAIIIIIIIA4I4IIIIIIIIIA4I4IA4I4IAA4
IIIIAAA44IIIIIIIA4I4IAIIIIIAAIAIIIIIAIA4I4IIIIIIIIIA4I4IA4I4IAA4
IIIIAAA44IIIIIIIA4I4IAIIIIIAAIAIIIIIAIA4I4IIIIIIIIIAAI4IA4I4IAA4
IIIIAAA44IIIIIIIA4I4IAIIIIIAAIAIIIIIAIA4I4IIIIIIIIIAAA4IA4I4IAA4
IIIIAAA44IIIIIIIA4I4IAIIIIIAAIAIIIIIAIA4I4IIIIIIIIIAAA4IAAI4IAA4
IIIIIIIIIIIIIIIIIIIIIIIIIIIIIIIIIIIIIIAIII4IIIIIIIIIIIIIIIIIIIII
IIIAIII4IIIIIIIIIIIIIIIIIIIIIIIIIIIIIIAIII4IIIIIIIIIIIIIIIIIIIII
IIIAIII4IIIIIIIIIIIIIIIIIIIIIIIIIIIIIIAIII4IIIIIIIIAIII4IIIIIIII
IIIAIII4IIIIIIIIIIIIIIIIIIIIIIIIIIIIIIAIII4IIIIIIIIAIII4IAIII4II
IIIIIIIIIIIIIIIIIIIIIIIIIIIIIAIIIIIIIIIIIIIIIIIIIIIIIIIIIIIIIIII
IIIIIIIIIIIIIIIIIIIIIIIIIIIIIAIIIIIIIIIIIIIIIIIIIIIIIIIIIAIIIIII
IIIIIIIIIIIIIIIIIAIIIIIIIIIIIAIIIIIIIIIIIIIIIIIIIIIIIIIIIAIIIIII
IIAIIIIIIIIIIIIIIAIIIIIIIIIIIAIIIIIIIIIIIIIIIIIIIIIIIIIIIAIIIIII
IIAIIIIIIIIIIIIIIAIAIIIIIIIIIAIIIIIIIIIIIIIIIIIIIIIIIIIIIAIIIIII
IIAIIIIIIIIIIIIIIAIAIIIIIIIIIAAIIIIIIIIIIIIIIIIIIIIIIIIIIAIIIIII
IIAIIIIIIIIIIIIIIAIAIIIIIIIIIAAAIIIIIIIIIIIIIIIIIIIIIIIIIAIIIIII
IIAIIIIIIIIIIIIIIAIAIIIIIIIIIAAAAIIIIIIIIIIIIIIIIIIIIIIIIAIIIIII
IIAIIIIIIIIIIIIIIAIAIIIIIIIIIAAAAIIAIIIIIIIIIIIIIIIIIIIIIAIIIIII
IIAIIIIIIIIIIIIIIAIAIIIIIIIIIAAAAIIAIIAIIIIIIIIIIIIIIIIIIAIIIIII
IIAIIIIIIIIIIIIIIAIAIIIIIIIIIAAAAIIAIIAIIIIIIAIIIIIIIIIIIAIIIIII
IIAIIIIIIIIIIIIIIAIAIIIIIIIIIAAAAIIAIIAIIIIIIAIIIIIAIIIIIAIIIIII
IIAIIIIIIIIIIIIIIAIAIIIIIIIIIAAAAIIAIIAIIIIIIAIIIIIAIIIIAAIIIIII
IIAIIIIIIIIIIIIIIAIAIIIIIIIIIAAAAIIAIIAIIIIIIAIIIIIAIIIIAAIIAIII
IIIIIIIIIIIIIIIIIIIIIIIIIIIIIAI44IIIIIIIIIIIIIIIIIIIIIIIIIIIIIII
IIIIIIIIIIIIIIIIIIIIIIIIIIIIIAI44IIIIIAI44IIIIIIIIIIIIIIIIIIIIII
IIIIIIIIIIIIIIIIIIIIIIIIIIIIIAI44IIIIIAIA444IIIIIIIIIIIIIIIIIIII
IIIIIIIIIIIIIIIIIIIIIIIIIIIIIAI44IIIIIAIA444IIIIIIIIIIIIIAI44III
IIIIIIIIIIIIIIIIIIIIIIIIIIIIIIIIIIIIIIIIIIAII4IIIIIIIIIIIIIIIIII
IIIIIIIIIIIIIIIIIIIIIIIIIIIIIIIIIIIIIIIIIIAII4A44IIIIIIIIIIIIIII
IIIIIIIIIIIIIIIIIIIIIIIIIIIIIIIIIIIIIIIIIIAII4A44IIIIIIIIIIIIA44
IIIIIIIIIIIIIIIIIIIIIIIIIIIIIIIIIIIIAIIIIIAII4A44IIIIIIIIIIIIA44
IIIIIIIIIIIIIIIAII4IIIIIIIIIIIIIIIIIAIIIIIAII4A44IIIIIIIIIIIIA44
IIIIIIIIIIIIIIIAII4IIIIIIIIIIIAIIIIIAIIIIIAII4A44IIIIIIIIIIIIA44
IIIIIIIIIIIIIIIAII4IIIIIIIIIIIAIIIIIAIAIIIAII4A44IIIIIIIIIIIIA44
IIIIIIIIIIIIIIIAII4IIIIIIIIIIIAIIIIIAIAIIIAII4A44IIIIIIIIAIIIA44
IIIIIIAIIIIIIIIAII4IIIIIIIIIIIAIIIIIAIAIIIAII4A44IIIIIIIIAIIIA44
IIIIIIAIIIIIIIIAII4AIIIIIIIIIIAIIIIIAIAIIIAII4A44IIIIIIIIAIIIA44
IIIIIIAIIIIIIIIAII4AAIIIIIIIIIAIIIIIAIAIIIAII4A44IIIIIIIIAIIIA44
IIIIIIAIIIIAIIIAII4AAIIIIIIIIIAIIIIIAIAIIIAII4A44IIIIIIIIAIIIA44
IIIIIIAIIIIAIIIAII4AAIIIIIAIIIAIIIIIAIAIIIAII4A44IIIIIIIIAIIIA44
IIIIIIAIIIIAIIIAII4AAIIIIIAAIIAIIIIIAIAIIIAII4A44IIIIIIIIAIIIA44
IIIIIIAIIIIAIIIAII4AAIIIIIAAIIAIIIAIAIAIIIAII4A44IIIIIIIIAIIIA44
IIIIIIAIIIIAIIIAII4AAIIIIIAAIIAIIIAAAIAIIIAII4A44IIIIIIIIAIIIA44
IIIIIIAIIIIAIIIAII4AAIIIIIAAIIAIIIAAAIAIIIAIIAA44IIIIIIIIAIIIA44
IIIIIIAIIIIAIIIAII4AAIIIIIAAIIAIIIAAAIAIIIAIIAA44AIIIIIIIAIIIA44
IIIIIIAIIIIAIIIAII4AAIIIIIAAIIAIIIAAAIAIIIAIIAA44AIIIIIAIAIIIA44
IIIIIIIIIIIIIAIIIIIIIIIIIIIIIIIIIIIIIIIIIIIIIIIIIIIIIIIIIIIIIIII
IIIIIIIIIIIIIAIIIIIIIIIIIIIIIIIIIIIIIIIIIIIIIIIIIIIIIIIIIIIIIAII
IIIIIIIIIIIIIAIIIIIIIIIIIAI44IIIIIIIIIIIIIIIIIIIIIIIIIIIIIIIIAII
IIIIIIIIIIIIIAIIIIIIIIIIIAI44IIIIIIIIIIIIIIIIIIIIIIIIIIAI44IIAII
IIIIIIIIIIIIIAIIIIIIIIIIIAI44IIIIIIIIIIIIIIIIIIIIIIIIIIAI44IIAI4
IIIIIIIA4IIIIAII4IIIIIIIIAI44IIIIIIIIIIIIIIIIIIIIIIIIIIAI44IIAI4
IIIIIIIA4IIIIAII4IIIIIIIAAI44IIII4IIIIIIIIIIIIIIIIIIIIIAI44IIAI4
IIIIIIIA4IIIIAII4IIIIIIIAAI44IIII4A4IIIIIII4IIIIIIIIIIIAI44IIAI4
IIIIIIIA4IIIIAII4IIIIIIIAAI44IIII4A4IIIIIII4IIIIIIIIIIIAA44IIAI4
IIIIIIIA4IIIIAII4IIAIIIIAAI44IIII4A4IIIIIII4IIIIIIIIIIIAA44IIAI4
IIIIIIIA4IIIIAII4IIAIIIIAAI44IIII4AAIIIIIII4IIIIIIIIIIIAA44IIAI4
IIIIIIIA4IIIIAII4IIAIIIIAAI44IIII4AAIIAIIII4IIIIIIIIIIIAA44IIAI4
IIAIIIIA4IIIIAII4IIAIIIIAAI44IIII4AAIIAIIII4IIIIIIIIIIIAA44IIAI4
IIAIIIIA4IIIIAAI4IIAIIIIAAI44IIII4AAIIAIIII4IIIIIIIIIIIAA44IIAI4
IIAIIIIA4IIIIAAI4AIAIIIIAAI44IIII4AAIIAIIII4IIIIIIIIIIIAA44IIAI4
IIAIIIIA4IIIIAAI4AIAIIIAAAI44IIII4AAIIAIIII4IIIIIIIIIIIAA44IIAI4
IIAIIIIA4IIIIAAI4AIAIIIAAAI44IIII4AAIIAIIII4IIAIIIIIIIIAA44IIAI4
IIAIIIIA4IIIIAAI4AIAIIIAAAI44IIII4AAIIAIIII4IIAIIIIIIIAAA44IIAI4
IIAIIIIA4IIIIAAI4AIAIIIAAAI44IIII4AAIIAIIII4IIAIIIIIIIAAAA4IIAI4
IIAIIIIA4IIIIAAI4AIAIIIAAAI44IIII4AAIIAIIII4IIAIIIIIIIAAAA4IIAIA
IIIIIIIIIIIIIIIIIIIIIIIIIIIIIIIIIIIIIIA4IIIIIIIIIIIIIIIIIIIIIIII
IIIIIIIIIIIIIIIIIIIIIIIIIIIIIIIIIIIIIIA4IIIIIIIIIIIIIIIIIA4IIIII
IIIIIIIIIIIIIIIIIIIIIIIIIIIIIIAI4IIIIIA4IIIIIIIIIIIIIIIIIA4IIIII
IIIIIIIIIIIIIIIAIIIIIIIIIIIIIIAI4IIIIIA4IIIIIIIIIIIIIIIIIA4IIIII
IIIIIIIIIIIIIIIAIIIIIIIIIIIIIIAI4IIIIIA4IIIIIIAIIIIIIIIIIA4IIIII
IAIIIIIIIIIIIIIIIIIIIIIIIIIIIIIIIIIIIIIIIIIIIIIIIIIIIIIIIIIIIIII
IAIIAIIIIIIIIIIIIIIIIIIIIIIIIIIIIIIIIIIIIIIIIIIIIIIIIIIIIIIIIIII
IAIIAIIIIIIIIIIIIIIIAIIIIIIIIIIIIIIIIIIIIIIIIIIIIIIIIIIIIIIIIIII
IAIIAIIIIIIIIIIIIIIIAAIIIIIIIIIIIIIIIIIIIIIIIIIIIIIIIIIIIIIIIIII
IAIIAIIIIIIIIIIIIIIIAAIIIIIIIIIAIIIIIIIIIIIIIIIIIIIIIIIIIIIIIIII
IAIIAIIIIIIIIIIIIIIIAAIIIIIIIIIAIIIAIIIIIIIIIIIIIIIIIIIIIIIIIIII
IAIIAIIIIIIIIIIIIIIIAAIIIIIIIIIAIIIAIIAIIIIIIIIIIIIIIIIIIIIIIIII
IAIIAIIIIIIIIIIIIIIIAAIIIIIIIIIAIIIAIIAIIIIIIIIIIIIIAIIIIIIIIIII
IAIIAIIIIIIIIIIIIIIIAAIIIIIIIIIAIIIAIIAIIIIIIIIIIIIIAAIIIIIIIIII
IAIIAIIIIIIIIIIIIIIIAAIIIIIIIIIAIIIAIIAIIIIIIIIIIIIIAAIIIIIIAIII
IAIIAIIIIIIIIIIIIIIIAAIIIIIIIIIAIIIAIIAIIIIIIIIIIIIIAAIIIIIIAAII
IIIIIIIIIIIIIIIIIIIIIIIIIIIIIIIIIIIIIIIIIIIIIIIIIIIIIIIIIIIIIAII
IIIIIIIIIIIIIIIIIIIIIIIIIIIIIIIIIIIA4IIIIIII4IIIIIIIIIIIIIIIIAII
AIIII4IIIIIIIIIIIIIIIIIIIIIIIIIIIIIA4IIIIIII4IIIIIIIIIIIIIIIIAII
AIIII4IIIIIIIIIIIIIIIIIIIIIIIIAIIIIA4IIIIIII4IIIIIIIIIIIIIIIIAII
AIIII4AIIIIIIIIIIIIIIIIIIIIIIIAIIIIA4IIIIIII4IIIIIIIIIIIIIIIIAII
AIIII4AAIIIIIIIIIIIIIIIIIIIIIIAIIIIA4IIIIIII4IIIIIIIIIIIIIIIIAII
AIIII4AAIIIIIIIIIIIIIIIIIIIIIIAIIAIA4IIIIIII4IIIIIIIIIIIIIIIIAII
AIIII4AAIIIIIIIIIIIIIIIIIIIIIIAIIAIA4IIAIIII4IIIIIIIIIIIIIIIIAII
AIIII4AAIIIIIIIIIIIIIIIIIIIIIIAIIAIA4IIAIIII4IIAIIIIIIIIIIIIIAII
AIIII4AAIIIIIIIIIIIIIIIIIIIIIIAIIAIA4IIAIIII4IIAAIIIIIIIIIIIIAII
AIIII4AAIIIIIIIIIIIIIIIIIIIIIIAIIAIA4IIAIIII4IIAAIIIIIIIIAIIIAII
IIIIIIIIIIIIIIAI4IIIIIIIIIIIIIIIIIIIIIIIIIIIIIIIIIIIIIIIIIIIIIII
IIIIIIIIIIIIIIAI4IIIIIIIIIIIIIIIIIIIIIIIIIIIIIIIIIIIIIIIAI4IIIII
IIIIIIIIIIIIIIAI4IIIIIIIIIIIIIIIIIIIIIIIIIIIIIIIIIIIIIIIAA44IIII
IIIIIIIIIIIIIIAI4IIIIIIIIIIIIIIIIIIAII4IIIIIIIIIIIIIIIIIAA44IIII
IIIIIIIIIIIIIIAI4IIIIIIIIIIIIIIIIIIAIIAIIIIIIIIIIIIIIIIIAA44IIII
IIIIIIIIIIIIIIAI4IIIIIIIIIIIIIIIIIIAIIAIIIIAIIIIIIIIIIIIAA44IIII
IIIIIIIIIIIIIIAI4IIIIIIIIIIIIIIIIIIAIIAIIIIAIIAIIIIIIIIIAA44IIII
IIIIIIIIIIIIIIAI4IIIA4IIIIIIIIIIIIIAIIAIIIIAIIAIIIIIIIIIAA44IIII
IIIIIIIIIIIIIIAI4IIIA4IIIIIIIIA4IIIAIIAIIIIAIIAIIIIIIIIIAA44IIII
A22222IIIIIIIIAI4IIIA4IIIIIIIIA4IIIAIIAIIIIAIIAIIIIIIIIIAA44IIII
A22222IIIIIIIIAI4IIIA4IIIIIIIIA4IIIAIIAIIIIAIIAIIIIIIIIIAA44IA22
A22222IIIIIIIIAI4IIIA4IIIIIIIIA4IIIAIIAIIIIAIAAIIIIIIIIIAA44IA22
A22222IIIIIIIIAI4IIIA4IIIIIIIIA4AI4AIIAIIIIAIAAIIIIIIIIIAA44IA22
A22222IIIIIIIIAI4IIIA4IIIIIIIIA4AI4AIIAIIIAA4AAIIIIIIIIIAA44IA22
A22222IIIIIIIIAI4IIIA4IIIIIIIIA4AI4AIIAIIIAA4AA4IIIIIIIIAA44IA22
A22222IIIIIIIIAI4IIIA4IIIIIIIIA4AI4AIIAIIIAA4AA4IIIIIIIAAA44IA22
IIIIIIIIIIIIIIIIIIIIIIIIIIIIIIIIIIIIIIAI4IIIIIIIIIIIIIIIIIIIIIII
IIIIIIIIIIIIIIIIIIIIIIIIIIIIIIIIIIIIIIAI4IIIIIIIIIIIIIIIIIIIAIII
IIIIIIIIIIIIIIIIIIIIIIIIIIIIIIIIIIIIIIAI4IIIIIIIIIIIIIIIIIIIAAII
IIIIIIIIIIIIIIIIIIIIIIIIIIAI4I4IIIIIIIAI4IIIIIIIIIIIIIIIIIIIAAII
IIIIIIIIIIIIIIIIIIIIIIIAIIAI4I4IIIIIIIAI4IIIIIIIIIIIIIIIIIIIAAII
IIIIIIIIIIIIIIIIIIIIIIIAIIAI4IAIIIIIIIAI4IIIIIIIIIIIIIIIIIIIAAII
IIIIIIIIIIIIIIIIIIIIIIIAIIAI4IAIIIIIIIAI4IIIIIIIIIIIIIIIIIIIAAAI
IIIIIIIIIIIIIIIIIIIIIIIIIIIIIIIIIIIIIIIIIAIIII4IIIIIIIIIIIIIIIII
IIIIIIIIIIIIIIIIIIIIIIIIIIIIIIIIIIIIIIIIIAIIII4IIIIIIAIIII4IIIII
IIIIIIIIIIIIIIIIIIIIIIIIIIIIIIIIIIIIIIIIIAIIII4IIIIIIAIIIA4III4I
IIIIIIAIIIIIIIIIIIIIIIIIIIIIIIIIIIIIIIIIIAIIII4IIIIIIAIIIA4III4I
IIIIIIAIIIIIIIIIIIIIIIIIIIIIIIIIIIIIIIAIIAIIII4IIIIIIAIIIA4III4I
IIIIIIAIIIIIIIIIIIIIIIIIIIIIIIIIIIIIIIAIIAIIII4IIIIIIAIAIA4III4I
IIIIIIAIIIIIIIIIIIIIIIIIIIIIIIIIIIIIIIAIIAIIII4IIIIIIAIAIA4IIA4I
IIIIIIIIIIIAII4IIIIIIIIIIIIIIIIIIIIIIIIIIIIIIIIIIIIIIIIIIIIIIIII
IIIIIIIIIIIAII4IIIIIIIIIIIAII4IIIIIIIIIIIIIIIIIIIIIIIIIIIIIIIIII
IIIIIIIIIIIAII4IIIIIIIIIIIAII4AII4IIIIIIIIIIIIIIIIIIIIIIIIIIIIII
IIIIIIIIIIIAIA4I4IIIIIIIIIAII4AII4IIIIIIIIIIIIIIIIIIIIIIIIIIIIII
IIIIIIIIIIIAIA4I4IIIIIIIIIAII4AII4IIAII4IIIIIIIIIIIIIIIIIIIIIIII
IIIIIIIIIIIAIA4I4IIIIIIIIIAII4AII4IIAIA4I4IIIIIIIIIIIIIIIIIIIIII
IIIIIIIIIIIAIA4I4IIIIIIIIIAII4AII4IIAIAAI44IIIIIIIIIIIIIIIIIIIII
IIIIIIIIIIIAIA4I4IIIIIIIIIAII4AII4IIAIAAI44IIIIIIIIAII4IIIIIIIII
IIIIIIIIIIIAIA4I4IIIIIIIIIAII4AII4IIAIAAI44IIIIIIIIAII4AII4IIIII
IIIIIIIIIIIAIA4I4IIIIIIIIIAII4AII4IIAIAAI44IIIIIIIIAII4AIA4I4III
IIIIIIIIIIIAIA4I4IIIIIIIIIAII4AII4IIAIAAI44IIIIIIIIAII4AIA4I4AII
IIIIAIIIIIIIIIIIIIIIIIIIIIIIIIIIIIIIIIIIIIIIIIIIIIIIIIIIIIIIIIII
IIIIAIIIIIIIIIIIIIIIIIIAIIIIIIIIIIIIIIIIIIIIIIIIIIIIIIIIIIIIIIII
IIIIAIIIIIIIIIIIIIIIIIIAIIIIIIIIIIIIAIIIIIIIIIIIIIIIIIIIIIIIIIII
IIIIAIIIIIIIIIIIIIIIIIIAIIIIIIIIIIIIAIAIIIIIIIIIIIIIIIIIIIIIIIII
IIIIAIIIIIIIIIIIIIIIIIIAIIIIIIIIIIIIAIAAIIIIIIIIIIIIIIIIIIIIIIII
IIIIAIIIIIIIIIIIIIIIIIIAIIIIIIIIIIIIAIAAIIIIIIIAIIIIIIIIIIIIIIII
IIIIAIIIIIIIIIIIIIIIIIIAIIIIIIIIIIIIAIAAIIIIIIIAIIIIIIIIAIIIIIII
IIIIAIIIIIIIIIIIIIIIIIIAIIIIIIIIIIIIAIAAIIIIIIIAIIIIIIIIAAIIIIII
IIIIAIIIIIIIIIIIIIIIIIIAIIIIIIIIIIIIAIAAIIIIIIIAIIIIIIIIAAIIIAII
IIIIIIIIIIIIIIIIIA4IIIIIIIIIIIIIIIIIIIIIIIIIIIIIIIIIIIIIIIIIIIII
IIIIIIIIIIIIIIIIIA4IIA4IIIIIIIIIIIIIIIIIIIIIIIIIIIIIIIIIIIIIIIII
IIIIIIIIIIIIIIIIIA4IIA4IIIIIIIIIIIIIIIIIIIIIIIIIIIIIIIIIIIIIIA4I
IIIIAI4IIIIIIIIIIIIIIIIIIIIIIIIIIIIIIIIIIIIIIIIIIIIIIIIIIIIIIIII
IIIIAI4IIIIIIIIIIAI4IIIIIIIIIIIIIIIIIIIIIIIIIIIIIIIIIIIIIIIIIIII
IIIIAI4IIIIIIIIIIAI4IIIIIIAI4IIIIIIIIIIIIIIIIIIIIIIIIIIIIIIIIIII
IIIIAI4IIIIIIIIIIAI4IIIIIIAI4IIIIIIAI4IIIIIIIIIIIIIIIIIIIIIIIIII
IIIIAI4IIIIIIIIIIAI4IIIIIIAI4IIIIIIAI4IIAI4IIIIIIIIIIIIIIIIIIIII
IIIIAI4IIIIIIIIIIAI4IIIIIIAI4IIIIIIAI4IIAI4IIIIIIIIIAI4IIIIIIIII
IIIIAI4IIIIIIIIIIAI4IIIIIIAI4IIIIIIAI4IIAI4IIIIIIIIIAA44IIIIIIII
IIIIAI4IIIIIIIIIIAI4IIIIIIAI4IIIIIIAI4IIAI4IIIIIIIIIAA44IAI4IIII
IIIIAI4IIIIIIIIIIAI4IIIIIIAI4IIIIIIAI4IIAI4IIIIIIIIIAA44IAI4IAI4
IIIIIIIIIIIIIIIIIIIIIIIIIIIIIIIIIIIIIIIIIIIIIA44IIIIIIIIIIIIIIII
IIIIIIIIIIIIIIIIIIIIIIIIIIIIIIIIIIIIIIIIIIIIIA44IIIIIIAIIIIIIIII
IIIIIIIIIIIIIIIIIIIIIIIIIIIIIIIIIIIIIIIIIIIIIA44IIIIIIAIIAIIIIII
IIIIIIIIIIIIIIIIIIIIIIIIIIIIIIIIIIIIAI4IIIIIIA44IIIIIIAIIAIIIIII
IIIIIIIIIIIIIIIIIIIIIIIIIIIIIIIIIIIIAI4IIIIIIA44IIIIIIAIIAI4IIII
IIIIIIIIIIIIIIIIIIIIIIIIIIIIIIIIIIIIAI4IIIIIIA44IIIIIIAIIAI4IAII
IIIIIIAIIIIIIIIIIIIIIIIIIIIIIIIIIIIIAI4IIIIIIA44IIIIIIAIIAI4IAII
IIIIIIAIIIIIIIIIIIIIIIIIIIIIIIIIIIIIAIAIIIIIIA44IIIIIIAIIAI4IAII
IIIIIIAIIIIIIIIIIIIIIIIIIIIIIIIIIIIIAIAIIIAIIA44IIIIIIAIIAI4IAII
IIIIIIAAIIIIIIIIIIIIIIIIIIIIIIIIIIIIAIAIIIAIIA44IIIIIIAIIAI4IAII
IIIAIIIIIIIIIIIIIIIIIIIIIIIIIIIIIIIIIIIIIIIIIIIIIIIIIIIIIIIIIIII
IIIAIIAIIIIIIIIIIIIIIIIIIIIIIIIIIIIIIIIIIIIIIIIIIIIIIIIIIIIIIIII
IIIAIIAAIIIIIIIIIIIIIIIIIIIIIIIIIIIIIIIIIIIIIIIIIIIIIIIIIIIIIIII
IIIAIIAAIIIIIIIIIIIIAIIIIIIIIIIIIIIIIIIIIIIIIIIIIIIIIIIIIIIIIIII
IIIAIIAAIIIIIIIIIIIIAAIIIIIIIIIIIIIIIIIIIIIIIIIIIIIIIIIIIIIIIIII
IIIAIIAAIIIIIIIIIIIIAAIIIIIAIIIIIIIIIIIIIIIIIIIIIIIIIIIIIIIIIIII
IIIAIIAAIIIIIIIIIIIIAAIIIIIAIIIIIIIIIIAIIIIIIIIIIIIIIIIIIIIIIIII
IIIAIIAAIIIIIIIIIIIIAAIIIIIAIIIIIIIIIIAAIIIIIIIIIIIIIIIIIIIIIIII
IIIAIIAAIIIIIIIIIIIIAAIIIIIAIIIIIIIIIIAAIIIIIIIAIIIIIIIIIIIIIIII
IIIAIIAAIIIIIIIIIIIIAAIIIIIAIIIIIIIIIIAAIIIIIIIAIIIIIAIIIIIIIIII
IIIAIIAAIIIIIIIIIIIIAAIIIIIAIIIIIIIIIIAAIIIIIIIAIIIIIAIIIAIIIIII
IIIAIIAAIIIIIIIIIIIIAAIIIIIAIIIIIIIIIIAAIIIIIIIAIIIIIAIIIAIIAIII
IIIAIIAAIIIIIIIIIIIIAAIIIIIAIIIIIIIIIIAAIIIIIIIAIIIIIAIIIAIIAAII
IIIAIIAAIIIIIIIIIIIIAAIIIIIAIIIIIIIIIIAAIIA4IIIAIIIIIAIIIAIIAAII
IIIAIIAAIIIIIIIIIIIIAAIIIIIAIIIIIIIIIIAAIIA4IIIAIIIIIAIIIAIIAA4I
IIIAIIAAIIIIIIIIIIIIAAIIIIIAIIIIIIIIAIAAIIA4IIIAIIIIIAIIIAIIAA4I
IIIAIIAAIIIIIIIIIIIIAAIIIIIAIIIIIIIIAIAA4IA4IIIAIIIIIAIIIAIIAA4I
IIIAIIAAIIIIIIIIIIIIAAIIIIIAIIIIIIIIAIAA4IA44IIAIIIIIAIIIAIIAA4I
IIIAIIAAIIIIIIIIIIIIAAIIIIIAIIIIIIIIAIAA4IA44IIAIIIAIAIIIAIIAA4I
IIIAIIAAIIIIIIIIIIIIAAIIIIIAIIIIIIIIAIAA4IA44IIAIIIAIAIIIAI4AA4I
IIIAIIAAIIIIIIIIIIIIAAIIIIIAIIIIIIIIAIAA4IA44IIAIIIAIAIIIAI4AA44
IIIAIIAAIIIIIIIIIA4IAAIIIIIAIIIIIIIIAIAA4IA44IIAIIIAIAIIIAI4AA44
IIIAIIAAIIIIIIIIIA4IAAIIIIIAIIIIIIIAAIAA4IA44IIAIIIAIAIIIAI4AA44
IIIAIIAAIIIIIIIIIA4IAAIIIIIAIIIIIIIAAIAA4IA44IIAIIIAIAIA4AI4AA44
IIIAIIAAIIIIIIIIIA4AAAIIIIIAIIIIIIIAAIAA4IA44IIAIIIAIAIA4AI4AA44
IIIAIIAAIIIIIIIIIA4AAAIIIIIAIIIIIIIAAIAA4IA44IIAIIIAIAIA4AI4AAA4
IIIAIIAAIIIIIIIIIA4AAAIIIIIAIIIIIIIAAIAA4IA44IIAIIIAAAIA4AI4AAA4
IIIAIIAAIIIIIIIIIA4AAAAIIIIAIIIIIIIAAIAA4IA44IIAIIIAAAIA4AI4AAA4
IIIAIIAAIIIIIIIIIA4AAAAIIIIAIIIIIIIAAIAA4IA44AIAIIIAAAIA4AI4AAA4
IIIAIIAAIIIIIIIIIA4AAAAIIIIAIIIIIIIAAIAA4IA44AAAIIIAAAIA4AI4AAA4
IAIAI4AAIIIIIIIIIA4AAAAIIIIAIIIIIIIAAIAA4IA44AAAIIIAAAIA4AI4AAA4
IAIAI4AAIIIIIIIIIA4AAAAIIIAAIIIIIIIAAIAA4IA44AAAIIIAAAIA4AI4AAA4
IAIAI4AAIIIIIIIIIA4AAAAIIIAAIIA4IIIAAIAA4IA44AAAIIIAAAIA4AI4AAA4
IAIAI4AAIIIIIIIIIA4AAAAIAIAAIIA4IIIAAIAA4IA44AAAIIIAAAIA4AI4AAA4
IAIAI4AAIIIIIIIIIA4AAAAIAIAAIIA4IIIAAIAA4IA44AAAIIIAAAIAAAI4AAA4
IAIAI4AAIIAIIIIIIA4AAAAIAIAAIIA4IIIAAIAA4IA44AAAIIIAAAIAAAI4AAA4
IAIAI4AAIIAIIIIIIA4AAAAIAIAAIIA4AI4AAIAA4IA44AAAIIIAAAIAAAI4AAA4
IAIAA4AAIIAIIIIIIA4AAAAIAIAAIIA4AI4AAIAA4IA44AAAIIIAAAIAAAI4AAA4
IAIAA4AAAIAIIIIIIA4AAAAIAIAAIIA4AI4AAIAA4IA44AAAIIIAAAIAAAI4AAA4
IAIAA4AAAIAIIIAIIA4AAAAIAIAAIIA4AI4AAIAA4IA44AAAIIIAAAIAAAI4AAA4
IAIAAAAAAIAIIIAIIA4AAAAIAIAAIIA4AI4AAIAA4IA44AAAIIIAAAIAAAI4AAA4
IAIAAAAAAIAIIIAIIA4AAAAIAIAAIIA4AI4AAIAAAIA44AAAIIIAAAIAAAI4AAA4
IAIAAAAAAIAIIAAIIA4AAAAIAIAAIIA4AI4AAIAAAIA44AAAIIIAAAIAAAI4AAA4
IAIAAAAAAIAIIAAIIA4AAAAIAIAAIAA4AI4AAIAAAIA44AAAIIIAAAIAAAI4AAA4
IAIAAAAAAIAIIAAIIA4AAAAIAIAAIAA4A44AAIAAAIA44AAAIIIAAAIAAAI4AAA4
IAAAAAAAAIAIIAAIIA4AAAAIAIAAIAA4A44AAIAAAIA44AAAIIIAAAIAAAI4AAA4
IAAAAAAAAIAIIAAIIA4AAAAIAIAAIAA4AA4AAIAAAIA44AAAIIIAAAIAAAI4AAA4
IIIIIIIIIAIIIIIIIIIIIIIIIIIIIIIIIIIIIIIIIIIIIIIIIIIIIIIIIIIIIIII
IIIIIIIIIAIIIIIIIIIIIIIIIIIIIIIIIIIIIIIIIIIIIIIIIIIIIIIIIA4IIIII
IIIIIIIIIAIIIIIIIIIIIIIIIIIIIIIIIIIIIIIIIIIIIIIIIIIIIIIIIA4IIA4I
IIIIIIIIIAIIIIIIIIIIIIIIIIIIIIIIIIIAI4IIIIIIIIIIIIIIIIIIIA4IIA4I
IIIIIIIIIAIIIIIIIIIIIIIIIIIIIIIIIIIAI4AI4IIIIIIIIIIIIIIIIA4IIA4I
IIIIIIIIIAIIIIIIIIIIIIIIIIIIIIIIIAIAI4AI4IIIIIIIIIIIIIIIIA4IIA4I
IIIIIIIIIAIIIIIIIIIIIIIIIIIIIIIIIAIAI4AI4IIAIIIIIIIIIIIIIA4IIA4I
IIIIIIIIIAIIIIIIIIIIIIIIIIIIIIIIIAIAI4AI4IIAIIIIIIIIIIIAIA4IIA4I
IIIIIIIIIAIIIIIIIIIIIIIIIIIIIIIIIAIAI4AI4A4AIIIIIIIIIIIAIA4IIA4I
IIIA4IIIIAIIIIIIIIIIIIIIIIIIIIIIIAIAI4AI4A4AIIIIIIIIIIIAIA4IIA4I
IIIA4A4IIAI4IIIIIIIIIIIIIIIIIIIIIAIAI4AI4A4AIIIIIIIIIIIAIA4IIA4I
IIIAAA4IIA44IIIIIIIIIIIIIIIIIIIIIAIAI4AI4A4AIIIIIIIIIIIAIA4IIA4I
IIIAAA4IIA4A4IIII4IIIIIIIIIIIIIIIAIAI4AI4A4AIIIIIIIIIIIAIA4IIA4I
IIIAAA4IIA4A4IIA44III4IIIIIIIIIIIAIAI4AI4A4AIIIIIIIIIIIAIA4IIA4I
IIIAAA4IIA4A4IIAA4III44IIIIIIIIIIAIAI4AI4A4AIIIIIIIIIIIAIA4IIA4I
IIIAAA4IIA4A4IIAA4IA444II4IIIIIIIAIAI4AI4A4AIIIIIIIIIIIAIA4IIA4I
IIIAAA4IIA4A4IIAA4IA444A44III4IIIAIAI4AI4A4AIIIIIIIIIIIAIA4IIA4I
IIIAAA4IIA4A4IIAA4IA444AA4III44IIAIAI4AI4A4AIIIIIIIIIIIAIA4IIA4I
IIIAAA4IIA4A4IIAA4IA444AA4A4I44I4AIAI4AI4A4AIIIIIIIIIIIAIA4IIA4I
IIIAAA4IIA4A4IIAA4IA444AA4A4I4A44AIA44AI4A4AIIIIIIIIIIIAIA4IIA4I
IIIAAA4IIA4A4IIAA4IA444AA4A4I4A4AAIA44AI4A4AIIIIIIIIIIIAIA4IIA4I
IIIAAA4IIA4A4IIAA4IA444AA4A4I4A4AAIA44A44A4A4IIIIIIIIIIAIA4IIA4I
IIIAAA4IIA4A4IIAA4IA444AA4A4I4A4AAIA44A44AAA4III4IIIIIIAIA4IIA4I
IIIAAA4IIA4A4IIAA4IA444AA4A4I4A4AAIA44A44AAA4IA44III4IIAIA4IIA4I
IIIAAA4IIA4A4IIAA4IA444AA4A4I4A4AAIA44A44AAA4IAA4III44IAIA4IIA4I
IIIAAA4IIA4A4IIAA4IA444AA4A4I4A4AAIA44A44AAA4IAA4IIA44IAIA4IIA4I
IIIAAA4IIA4A4IIAA4IA444AA4A4I4A4AAIA44A44AAA4IAA4IIA44AAIA4I4A4I
IIIAAA4IIA4A4IIAA4IA444AA4A4I4A4AAIA44A44AAA4IAA4IIA44AAAA4I4A4I
IIIAAA4IIA4A4IIAA4IA444AA4A4I4A4AAIA44A44AAA4IAA4IIA44AAAA4I4A44
IIIAAA4IIA4A4IIAA4IA444AA4A4I4A4AAIA44A44AAA4IAA4IIA44AAAA4IAA44
IIIAAA4IIA4A4IIAA4IA444AA4A4I4A4AAIA44A44AAA4IAA4IIA44AAAA4IAA4A
IIIAAA4IIA4A4IIAA4IA444AA4A4I4A4AAIA44A44AAA4IAA4IIA44AAAA44AA4A
IIIAAA4IIA4A4IAAA4IA444AA4A4I4A4AAIA44A44AAA4IAA4IIA44AAAA44AA4A
IIIAAA4IIA4A4IAAA4IA444AA4A4I4A4AAIA44AA4AAA4IAA4IIA44AAAA44AA4A
IIIAAA4IIA4A4AAAA4IA444AA4A4I4A4AAIA44AA4AAA4IAA4IIA44AAAA44AA4A
IIIAAA4IIA4A4AAAA4IAA44AA4A4I4A4AAIA44AA4AAA4IAA4IIA44AAAA44AA4A
IIIAAA4IIA4A4AAAA4IAA44AA4AAI4A4AAIA44AA4AAA4IAA4IIA44AAAA44AA4A
IIIAAA4IIA4A4AAAA4IAA44AA4AAI4A4AA4A44AA4AAA4IAA4IIA44AAAA44AA4A
IIIAAA4IIA4A4AAAA4IAA44AA4AAI4A4AA4A44AA4AAAAIAA4IIA44AAAA44AA4A
IIIAAA4IIA4A4AAAA4IAA44AA4AAI4A4AA4A44AA4AAAAIAA4IIA44AAAA44AAAA
IIIAAA4IIA4A4AAAA4IAA44AA4AAI4A4AA4A44AA4AAAAIAA4IIA4AAAAA44AAAA
IIIAAA4IIA4A4AAAA4IAA44AA4AAI4A4AA4A44AA4AAAAIAA44IA4AAAAA44AAAA
IIIIIIIIIIIIIIAIIII4IIIIIIIIIIIIIIIIIIIIIIIIIIIIIIIIIIIIIIIIIIII
IIIIIIIIIIIIIIAIIII4IIIIIIIIIIIIIIIIIIIIIIIIIIIIIIIIIIIIIIIIIA44
IIIA4IIIIIIIIIA4III4IIIIIIIIIIIIIIIIIIIIIIIIIIIIIIIIIIIIIIIIIA44
IIIA4IA4IIIIIIA4II44IIIIIIIIIIIIIIIIIIIIIIIIIIIIIIIIIIIIIIIIIA44
[...]
IIIAAAAIIIIAIIIIIIIAIA4IIIIIIIAIIIIIIIA4I4IIIAAI4IIA4IIA4AIIIA44
IIIAAAAIIIIAIIIIIIIAIA4IIIIIIIAIIIIAIIA4I4IIIAAI4IIA4IIA4AIIIA44
IIIAAAAIIIIAIIIIIIIAIA4IIIIIIIAIIIIAIAA4I4IIIAAI4IIA4IIA4AIIIA44
IIIAAAAIIIIAIIIIIIIAIA4IIIIIIIAIIIIAIAA4I4AIIAAI4IIA4IIA4AIIIA44
IIIAAAAIIIIAIIIIIIIAIA4IIIIIIIAIIIIAIAA4I4AIAAAI4IIA4IIA4AIIIA44
IIIAAAAI4IIAIIIIIIIAIA4IIIIIIIAIIIIAIAA4I4AIAAAI4IIA4IIA4AIIIA44
IIIAAAAI4IIAIIIIIIIAIA4IIIIIIIAIIIIAIAA444AIAAAI4IIA4IIA4AIIIA44
IIIAAAAI4IIAIIIIIIIAIA4IIIIIIIAIIIIAIAA44AAIAAAI4IIA4IIA4AIIIA44
IIIAAAAI4IIAIIIIIA4AIA4IIIIIIIAIIIIAIAA44AAIAAAI4IIA4IIA4AIIIA44
IIIAAAAI4IIAIIA4IA4AIA4IIIIIIIAIIIIAIAA44AAIAAAI4IIA4IIA4AIIIA44
IIIAAAAI4IIAIIAA4A4AIA4IIIIIIIAIIIIAIAA44AAIAAAI4IIA4IIA4AIIIA44
IIIAAAAI4IIAIIAA4A4AIA4IA4IIIIAIIIIAIAA44AAIAAAI4IIA4IIA4AIIIA44
IIIAAAAI4IIAIIAA4A4AIA4IA4IIIIAIIIIA4AA44AAIAAAI4IIA4IIA4AIIIA44
IIIAAAAI4IIAIIAA4A4AIA4IA4IIIIAIIIIA4AAA4AAIAAAI4IIA4IIA4AIIIA44
IIIAAAAI4IIAIIAA4A4AIA4IA4IIIIAIIIIA4AAA4AAIAAAI4IIA4IIA4A4IIA44
IA4AAAAI4IIAIIAA4A4AIA4IA4IIIIAIIIIA4AAA4AAIAAAI4IIA4IIA4A4IIA44
IA4AAAAI4IIAIIAA4A4AIAA4A44IIIAIIIIA4AAA4AAIAAAI4IIA4IIA4A4IIA44
IA4AAAAI4IIAIIAA4A4AIAA4A44IIIAIIIIA4AAA4AAIAAAI4IIA4IIA4A44IA44
IA4AAAAI4IIAIIAA4A4AIAA4A44IIIAIIIIA4AAA4AAIAAAI4AIA4IIA4A44IA44
IA4AAAAI4IIAIIAA4A4AIAA4A44IIIAIIIIA4AAA4AAIAAAI4AIA4IIA4A444A44
IA4AAAAI4IIAIIAA4A4AIAA4A44IIIAIIIIA4AAA4AAIAAAI4AIA4AIA4A444A44
IA4AAAAI4IIAIIAA4A4AIAA4A44IIIAIIIIAAAAA4AAIAAAI4AIA4AIA4A444A44
IA4AAAAI4IIAIIAA4A4AIAA4A44IIIAIIIIAAAAA4AAIAAAI4AIA4AAA4A444A44
IA4AAAA44IIAIIAA4A4AIAA4A44IIIAIIIIAAAAA4AAIAAAI4AIA4AAA4A444A44
IA4AAAA44IIAIIAA4A4AIAA4A44IIIAIIA4AAAAA4AAIAAAI4AIA4AAA4A444A44
IA4AAAA44IIAIIAA4A4AIAA4A44IIIAIIA4AAAAA4AAIAAA44AIA4AAA4A444A44
IAAAAAA44IIAIIAA4A4AIAA4A44IIIAIIA4AAAAA4AAIAAA44AIA4AAA4A444A44
IAAAAAA44IIAIIAA4A4AIAA4A44IIIAIIA4AAAAA4AA4AAA44AIA4AAA4A444A44
IAAAAAA44IIAIIAA4A4AIAA4A44IIIAIIA4AAAAA4AA4AAA44AIAAAAA4A444A44
IAAAAAA44IIAIIAA4A4AIAA4A44IIIA44A4AAAAA4AA4AAA44AIAAAAA4A444A44
IAAAAAA44AIAIIAA4A4AIAA4A44IIIA44A4AAAAA4AA4AAA44AIAAAAA4A444A44
IAAAAAA44AIAIAAA4A4AIAA4A44IIIA44A4AAAAA4AA4AAA44AIAAAAA4A444A44
IAAAAAA44AIAIAAA4A4AIAAAA44IIIA44A4AAAAA4AA4AAA44AIAAAAA4A444A44
IAAAAAA44AIAAAAA4A4AIAAAA44IIIA44A4AAAAA4AA4AAA44AIAAAAA4A444A44
IAAAAAA44AIAAAAA4A4AIAAAA4AIIIA44A4AAAAA4AA4AAA44AIAAAAA4A444A44
IAAAAAA44AIAAAAA4A4AIAAAA4AIIIA44A4AAAAA4AA4AAA4AAIAAAAA4A444A44
IAAAAAA44AIAAAAA4A4AIAAAA4AIIIA44A4AAAAA4AA4AAA4AAIAAAAAAA444A44
IAAAAAA44AIAAAAA4A4AIAAAA4AIIIA44A4AAAAA4AA4AAA4AA4AAAAAAA444A44
IAAAAAA44AIAAAAA4A4AIAAAA4AIIIA44A4AAAAA4AA4AAA4AA4AAAAAAA444AA4
IAAAAAA44AIAAAAA4A4AIAAAA4AIIIA44A4AAAAAAAA4AAA4AA4AAAAAAA444AA4
IAAAAAA44AIAAAAA4A4AIAAAA4AIIIA4AA4AAAAAAAA4AAA4AA4AAAAAAA444AA4
IAAAAAA4AAIAAAAA4A4AIAAAA4AIIIA4AA4AAAAAAAA4AAA4AA4AAAAAAA444AA4
IIIIIIIIIIIIIIIIIIIIIIIIIIIIIIIIIIIIIIAIIIIIIIIIIIIIIIIIIIIIIIII
IIIIIIIIIIIIIIIIIIIIIIIIIIIIIIIIIIIIIIAIIIIIIIIIIIIIIIIIIIIIIIIA
IIIIIIIIIIIIIIIAIIIIIIIIIIIIIIIIIIIIIIAIIIIIIIIIIIIIIIIIIIIIIIIA
IIIIIIIIIIIIIIIAIIIIIIIIIIIIIIIIIIIIIIAIIIIIIIIIIIIIIIIIIIIIIAIA
IIIIIIIIIIIIIIIAIIIIIIIIIIIIIIIIIIIIIIAIIIIIIIIIIIIIIIAIIIIIIAIA
IIIIIIIIIIIIIIIAIIIIIIIIIIIIIIIIIIIIIIAIIIIIIIIIIIIIIIAIIAIIIAIA
IIIIIIIIAIIIIIIIIIIIIIIIIIIIIIIIIIIIIIIIIIIIIIIIIIIIIIIIIIIIIIII
AIIIIIIIAIIIIIIIIIIIIIIIIIIIIIIIIIIIIIIIIIIIIIIIIIIIIIIIIIIIIIII
AIIIIIIIAIIIIIIIIIIIAIIIIIIIIIIIIIIIIIIIIIIIIIIIIIIIIIIIIIIIIIII
AIIIIIIIAIIIIIIIIIIIAIIIIIIIIIAIIIIIIIIIIIIIIIIIIIIIIIIIIIIIIIII
AIIIIIIIAIIIIIIIIIIIAIIIIIIIIIAIIIIIIIIIIIIIIIIIIIIIIIIAIIIIIIII
AIIIIIIIAIIIIIIIIIIIAIIIIIIIIIAIIIIIIIIIIIIIIIIIIIIIIIIAIAIIIIII
AIIIIIIIAIIIIIIIIIIAAIIIIIIIIIAIIIIIIIIIIIIIIIIIIIIIIIIAIAIIIIII
AIIIAIIIAIIIIIIIIIIAAIIIIIIIIIAIIIIIIIIIIIIIIIIIIIIIIIIAIAIIIIII
AIIIAIIIAIIIIIIIIIIAAIIIIIIIIIAAIIIIIIIIIIIIIIIIIIIIIIIAIAIIIIII
AIIIAIIIAIIIIIIIIIIAAIIIIIIIIIAAAIIIIIIIIIIIIIIIIIIIIIIAIAIIIIII
AIIIAIIIAIIIIIIIIIIAAIIIIIIIIIAAAIIAIIIIIIIIIIIIIIIIIIIAIAIIIIII
AIIIAIIIAIIIIIIIIIIAAIIIIIIIIIAAAIIAAIIIIIIIIIIIIIIIIIIAIAIIIIII
AIIIAIIIAIIIIIIIIIIAAIIIIIIIIIAAAIIAAIIIIIAIIIIIIIIIIIIAIAIIIIII
AIIIAIIIAIIIIIIIIIIAAIIIIIIIIIAAAIIAAIIIIIAIIIAIIIIIIIIAIAIIIIII
AIIIAIIIAIIIIIIIIIIAAIIIIIIIIIAAAIIAAIIIIIAIIIAIIIIIIIIAIAIIIAII
AIIIAIIIAIIIIIIIIIIAAIIIIIIIIIAAAIIAAIIIIIAIIIAIIIIIIIIAIAIIIAAI
AIIIAIIIAIAIIIIIIIIAAIIIIIIIIIAAAIIAAIIIIIAIIIAIIIIIIIIAIAIIIAAI
AIIIAIIIAIAIIIIIIIIAAIIIIIIIIIAAA4IAAIIIIIAIIIAIIIIIIIIAIAIIIAAI
AIIIAIIIAIAIIIIIIIIAAIIIIIIIIIAAA4IAAI4IIIAIIIAIIIIIIIIAIAIIIAAI
AIIIAIIIAIAIIIIIIIIAAIIIIIIIIIAAA4IAAI4A4IAIIIAIIIIIIIIAIAIIIAAI
AIIIAIIIAIAIIIIIIIIAAIIIIIIIIIAAA4IAAI4A4IAIIIAIIIIIIIIAIA4I4AAI
AIIIAIIIAIAIIIIIIIIAAIIIIIIIIIAAA4IAAI4A4IA4IIAIIIIIIIIAIA4I4AAI
AA4IAIIIAIAIIIIIIIIAAIIIIIIIIIAAA4IAAI4A4IA4IIAIIIIIIIIAIA4I4AAI
AA4IAIIIAIAIIIIIIIIAAIIIIIIIIIAAA4IAAI4A4IA4IIAIIIIA4IIAIA4I4AAI
AA4IAIIIAIAIIIIIIIIAAIIIIIIIIIAAAAIAAI4A4IA4IIAIIIIA4IIAIA4I4AAI
AA4IAIIIAIAIIIIIIIIAAIIIIIIIIIAAAAIAAI4A4IA4IAA4IIIA4IIAIA4I4AAI
AA4IAIIIAIAIIIIIIIIAAIIIIIIIIIAAAAIAAIAA4IA4IAA4IIIA4IIAIA4I4AAI
AA4IAIIIAIAIIIIIIIIAAIIIIIIIIIAAAAIAAIAA4IA4IAA4IIIA4IIA4A4I4AAI
AA4IAIIIAIAIIIIIIIIAAIIIAIIIIIAAAAIAAIAA4IA4IAA4IIIA4IIA4A4I4AAI
AAAIAIIIAIAIIIIIIIIAAIIIAIIIIIAAAAIAAIAA4IA4IAA4IIIA4IIA4A4I4AAI
AAAIAAIIAIAIIIIIIIIAAIIIAIIIIIAAAAIAAIAA4IA4IAA4IIIA4IIA4A4I4AAI
AAAIAAAIAIAIIIIIIIIAAIIIAIIIIIAAAAIAAIAA4IA4IAA4IIIA4IIA4A4I4AAI
AAAIAAAAAIAIIIIIIIIAAIIIAIIIIIAAAAIAAIAA4IA4IAA4IIIA4IIA4A4I4AAI
AAAIAAAAAIAIIIAIIIIAAIIIAIIIIIAAAAIAAIAA4IA4IAA4IIIA4IIA4A4I4AAI
AAAIAAAAAIAIIIAAIIIAAIIIAIIIIIAAAAIAAIAA4IA4IAA4IIIA4IIA4A4I4AAI
AAAIAAAAAIAIIIAAAIIAAIIIAIIIIIAAAAIAAIAA4IA4IAA4IIIA4IIA4A4I4AAI
AAAIAAAAAIAIIIAAAAIAAIIIAIIIIIAAAAIAAIAA4IA4IAA4IIIA4IIA4A4I4AAI
AAAIAAAAAIAIIIAAAAAAAIIIAIIIIIAAAAIAAIAA4IA4IAA4IIIA4IIA4A4I4AAI
AAAIAAAAAIAIIIAAAAAAAAIIAIIIIIAAAAIAAIAA4IA4IAA4IIIA4IIA4A4I4AAI
AAAIAAAAAIAIIIAAAAAAAAAIAIIIIIAAAAIAAIAA4IA4IAA4IIIA4IIA4A4I4AAI
AAAIAAAAAIAIIIAAAAAAAAAAAIIIIIAAAAIAAIAA4IA4IAA4IIIA4IIA4A4I4AAI
AAAIAAAAAIAIIIAAAAAAAAAAAAIIIIAAAAIAAIAA4IA4IAA4IIIA4IIA4A4I4AAI
AAAIAAAAAIAIIIAAAAAAAAAAAAAIIIAAAAIAAIAA4IA4IAA4IIIA4IIA4A4I4AAI
AAAIAAAAAIAIIIAAAAAAAAAAAAAIIIAAAAIAAIAA4IA4IAAAIIIA4IIA4A4I4AAI
AAAIAAAAAIAIIIAAAAAAAAAAAAAIIIAAAAIAAIAA4IA4IAAAIIIA4IAA4A4I4AAI
AAAIAAAAAIAIIIAAAAAAAAAAAAAIIIAAAAIAAIAA4IA4IAAAIIIA44AA4A4I4AAI
AAAIAAAAAIAIIIAAAAAAAAAAAAAIIIAAAAIAAIAA4IA4IAAAI4IA44AA4A444AAI
AAAIAAAAAIAIIIAAAAAAAAAAAAAIIIAAAAIAAIAA4IA4IAAAI4IA44AA4A444AA4
AAAIAAAAAIAIIIAAAAAAAAAAAAAIIIAAAAIAAIIA4IA4IAAAI4IA44AA4A444AA4
AAAIAAAAAIAIIIAAAAAAAAAAAAAIIIAAAAIAAIIA4IA4IAIAI4IA44AA4A444AA4
AAAIAAAAAIAI44AAAAAAAAAAAAAIIIAAAAIAAIIA4IA4IAIAI4IA44AA4A444AA4
AAAIAAAAAIAI44AAAAAAAAAAAAAIIIAAAAIAAIAA4IA4IAIAI4IA44AA4A444AA4
AAAIAAAAAIAI44AAAAAAAAAAAAAIIIAAAAIAAIAA4IA4IAIAI4IA44AAAA444AA4
AAAIAAAAAIAI44AAAAAAAAAAAAAIIIAAAAIAAIAA4IA4IAIAI4IA4AAAAA444AA4
AAAIAAAAAIAA44AAAAAAAAAAAAAIIIAAAAIAAIAA4IA4IAIAI4IA4AAAAA444AA4
AAAIAAAAAIAA4AAAAAAAAAAAAAAIIIAAAAIAAIAA4IA4IAIAI4IA4AAAAA444AA4
AAAIAAAAAIAA4AAAAAAAAAAAAAAIIIAAAAIAAIAA4IA4IAIAI4IAAAAAAA444AA4
AAAIAAAAAIAA4AAAAAAAAAAAAAAIIIAAAAIAAIAA4IA4IAIAI4IAAAAAAAA44AA4
AAAIAAAAAIAA4AAAAAAAAAAAAAAIIIAAAAIAAIAA4IA4IAAAI4IAAAAAAAA44AA4
AAAIAAAAAIAA4AAAAAAAAAAAAAAIIIAAAAAAAIAA4IA4IAAAI4IAAAAAAAA44AA4
AAAAAAAAAIAA4AAAAAAAAAAAAAAIIIAAAAAAAIAA4IA4IAAAI4IAAAAAAAA44AA4
AAAAAAAAA4AA4AAAAAAAAAAAAAAIIIAAAAAAAIAA4IA4IAAAI4IAAAAAAAA44AA4
AAAAAAAAA4AA4AAAAAAAAAAAAAAI4IAAAAAAAIAA4IA4IAAAI4IAAAAAAAA44AA4
AAAAAAAAA4AA4AAAAAAAAAAAAAAI4IAAAAAAAIAA4IA44AAAI4IAAAAAAAA44AA4
AAAAAAAAA4AA4AAAAAAAAAAAAAAI4IAAAAAAAIAA4IA44AAA44IAAAAAAAA44AA4
AAAAAAAAA4AA4AAAAAAAAAAAAAAI4IAAAAAAAIAA4IA44AAA444AAAAAAAA44AA4
AAAAAAAAA4AA4AAAAAAAAAAAAAAI4IAAAAAAAIAA4IA44AAA444AAAAAAAA4AAA4
AAAAAAAAA4AA4AAAAAAAAAAAAAA44IAAAAAAAIAA4IA44AAA444AAAAAAAA4AAA4
AAAAAAAAA4AA4AAAAAAAAAAAAAA44IAAAAAAA4AA4IA44AAA444AAAAAAAA4AAA4
IIIIIIA4IIIIIIIIIIIIIIIIIIIIIIIIIIIIIIIIIIIIIIIIIIIIIIIIIIIIIIII
IIA44IA4IIIIIIIIIIIIIIIIIIIIIIIIIIIIIIIIIIIIIIIIIIIIIIIIIIIIIIII
IIA44IA4IIIIIIA44I4IIIIIIIIIIIIIIIIIIIIIIIIIIIIIIIIIIIIIIIIIIIII
IIA44IAA44I4IIA44I4IIIIIIIIIIIIIIIIIIIIIIIIIIIIIIIIIIIIIIIIIIIII
IIA44IAA44I4IIA4A44I4IIIIIIIIIIIIIIIIIIIIIIIIIIIIIIIIIIIIIIIIIII
IIA44IAA44I4IIA4AA4444IIIIIIIIIIIIIIIIIIIIIIIIIIIIIIIIIIIIIIIIII
IIA44IAA44I4IIA4AA4444A44I4IIIIIIIIIIIIIIIIIIIIIIIIIIIIIIIIIIIII
IIA44IAA44I4IIA4AA4444A44I4IIIIIA44I4IIIIIIIIIIIIIIIIIIIIIIIIIII
IIA44IAA44I4IIA4AA4444A44I4IIIIIA4A44I4IIIIIIIIIIIIIIIIIIIIIIIII
IIA44IAA44I4IIA4AA4444A44I4IIIIIA4AA4444IIIIIIIIIIIIIIIIIIIIIIII
IIA44IAA44I4IIA4AA4444A44I4IIIIIA4AA44A44I4IIIIIIIIIIIIIIIIIIIII
IIA44IAA44I4IIA4AA4444A44I4IIIIIA4AA44A44I4IIIA44I4IIIIIIIIIIIII
IIA44IAA44I4IIA4AA4444A44I4IIIIIA4AA44A44I4IIIA4A44I4IIIIIIIIIII
IIA44IAA44I4IIA4AA4444A44I4IIIIIA4AA44A44I4IIIA4A44I4A44I4IIIIII
IIA44IAA44I4IIA4AA4444A44I4IIIIIA4AA44A44I4IIIA4A44I4A44IA44I4II
IIA44IAA44I4IIA4AA4444A44I4IIIIIA4AA44A44I4IIIA4A44I4A44IA44IA44
IIA44IAA44I4IIA4AA4444A44I4IIIA4A4AA44A44I4IIIA4A44I4A44IA44IA44
IIA44IAA44I4IIA4AA4444A44I4IIIA4A4AA44A44I4IIIA4A44I4A44IA44IAA4
IIA44IAA44I4IIA4AA4444AA4I4IIIA4A4AA44A44I4IIIA4A44I4A44IA44IAA4
IIA44IAA4AI4IIA4AA4444AA4I4IIIA4A4AA44A44I4IIIA4A44I4A44IA44IAA4
IIA44IAA4AI4IIA4AA4444AA4IAIIIA4A4AA44A44I4IIIA4A44I4A44IA44IAA4
IIA44IAA4AI4IAA4AA4444AA4IAIIIA4A4AA44A44I4IIIA4A44I4A44IA44IAA4
IIA44IAA4AI4IAAAAA4444AA4IAIIIA4A4AA44A44I4IIIA4A44I4A44IA44IAA4
IIA44IAA4AI4IAAAAA4444AA4IAIIIA4A4AA44AA4I4IIIA4A44I4A44IA44IAA4
IIA44IAA4AI4IAAAAA4444AA4IAIIIA4A4AA44AA4I4IIAA4A44I4A44IA44IAA4
IIA44IAA4AI4IAAAAA4444AA4IAIIIA4A4AA44AA444IIAA4A44I4A44IA44IAA4
IIA44IAA4AI4IAAAAA4A44AA4IAIIIA4A4AA44AA444IIAA4A44I4A44IA44IAA4
IIA44IAA4AI4IAAAAA4A44AA4AAIIIA4A4AA44AA444IIAA4A44I4A44IA44IAA4
IIA44IAA4AI4IAAAAA4A44AA4AAIIIAAA4AA44AA444IIAA4A44I4A44IA44IAA4
IIA44IAA4AI4IAAAAA4A44AA4AAIIIAAA4AA44AA444IIAA4A44I4A4AIA44IAA4
IIA44IAA4AI4IAAAAA4A44AA4AAIIIAAA4AA44AA444IIAA4A44I4A4AAA44IAA4
IIA44IAA4AI4IAAAAA4A44AAAAAIIIAAA4AA44AA444IIAA4A44I4A4AAA44IAA4
IIA44IAA4AI4IAAAAA4A44AAAAAIIIAAA4AA44AA444IIAAAA44I4A4AAA44IAA4
IIA44IAA4AI4IAAAAA4A44AAAAAIIIAAA4AA44AA444IIAAAAA444A4AAA44IAA4
IIIIIIIIIIIAIIIIIIIIIIIIIIIIIIIIIIIIIIIIIIIIIIIIIIIIIIIIIIIIIIII
IIIIIIIIIIIAIIIIIIIIIIIIIIIIIIIIAIIIIIIIIIIIIIIIIIIIIIIIIIIIIIII
IIIIIIIIIIIAIIIIIIIIIIIIIIIIIIIIAIIIIIIIIIIIIIIIIIIIIIIIIIIIIAII
IIIIIIIIIIIAIIIIIIIIIIIIIIIIIIIIAIIIIIIIIIIIIIIIIIIIIIIIIIIIIAAI
IIIIIIIIIIIAIIIIIIIIIIIIIIIIIIIIAIIIIIIIIIIIIIIIIIIIIIIA4IIIIAAI
IIIIIIIIIIIAIIIIIIIIIIIIIIIIIIIIAIIIIIIIIIIIIIIIIIIIIIIA4A4IIAAI
IIIIIIIIIIIAIIIIIIIIIIIIIIIIIIIIAIIAIIIIIIIIIIIIIIIIIIIA4A4IIAAI
IIIIIIIIIIIAIIIIIIIIIIIIIIIIIIIIAIIAIIAIIIIIIIIIIIIIIIIA4A4IIAAI
IIIIIIIIIIIAIIIIIIIIIIIIIIIIIIIIAIIAIIAIIIIIIIIIIIIIIAIA4A4IIAAI
IIIIIIIIIIIAIIIIIIIIIIIIIAIIIIIIAIIAIIAIIIIIIIIIIIIIIAIA4A4IIAAI
IIIIIIIIIIIAIIIA44IIIIIIIAIIIIIIAIIAIIAIIIIIIIIIIIIIIAIA4A4IIAAI
IIIIIIIIIIIAIIIA44IIIIIA4AIIIIIIAIIAIIAIIIIIIIIIIIIIIAIA4A4IIAAI
IIIIIIIIIIIAIIIA44IIIIIA4AIIIIA4AIIAIIAIIIIIIIIIIIIIIAIA4A4IIAAI
IIIIIIIIIIIAIIIA44IIIIIA4AIIIIA4AA4AIIAIIIIIIIIIIIIIIAIA4A4IIAAI
IIIIIIIIIIIAIIIA44IIIIIA4AIIIIA4AA4AIIAIIIIIIIIIIIIIIAIA4A44IAAI
IIIIIIIIIIIAIIIA44IIIIIA4AIIIIA4AA4AIIAIIIIIIIIIIIIIIAIA4A44IAA4
IIIIIIIIIIIAIIIA4AIIIIIA4AIIIIA4AA4AIIAIIIIIIIIIIIIIIAIA4A44IAA4
IIIIIIIIIIIAIIIA4AIIIIIA4AIIIIA4AA4AIIAIIIIIIIIIIIIIIAAA4A44IAA4
IIIAIIII4IIAIIIA4AIIIIIA4AIIIIA4AA4AIIAIIIIIIIIIIIIIIAAA4A44IAA4
IIIAIIII4IIAIIIA4AIIIIIA4AAIIIA4AA4AIIAIIIIIIIIIIIIIIAAA4A44IAA4
IIIAIIII4IIAIIIA4AIIIIIA4AAIIIA4AA4AI4AIIIIIIIIIIIIIIAAA4A44IAA4
IIIAIIII4IIAIIIA4AIIIIIA4AAIIIA4AA4AI4AI4IIIIIIIIIIIIAAA4A44IAA4
IIIAIIII4IIAIIIA4AIIIIIA4AAIIIA4AA4AI4AI4II4IIIIIIIIIAAA4A44IAA4
IIIAIIII4IIAIIIA4AIIIIIA4AAIIIA4AA4AI4AI4IA4III4IIIIIAAA4A44IAA4
IIIAIIII4IIAIIIA4AIIIIIA4AAIIIA4AA4AI4AI4IA4IIA4III4IAAA4A44IAA4
IIIAIIII4IIAIIIA4AIIIIIA4AAIIIA4AA4AI4AI4IA4IIA4III4IAAA4A444AA4
IIIAIIIA44IAIIIA4AIIIIIA4AAIIIA4AA4AI4AI4IA4IIA4III4IAAA4A444AA4
IIIAIIIA44IAIIIA4AIIIIIA4AAIIIA4AA4AI4AI4IA4IAA4III4IAAA4A444AA4
IIIAIIIA44IAIIIA4AIIAI4A4AAIIIA4AA4AI4AI4IA4IAA4III4IAAA4A444AA4
IIIAA4IA44IAIIIA4AIIAI4A4AAIIIA4AA4AI4AI4IA4IAA4III4IAAA4A444AA4
IIIAA4IA44IAIIIA4AIIAI4A4AAIA4A4AA4AI4AI4IA4IAA4III4IAAA4A444AA4
IIIAA4IA44IAIIIA4AIIAI4A4AAIA4A4AA4AI4AI4IA4IAAAIII4IAAA4A444AA4
IIIAA4AA44IAIIIA4AIIAI4A4AAIA4A4AA4AI4AI4IA4IAAAIII4IAAA4A444AA4
IIIAA4AA44IAIIIA4AIIAI4A4AAIA4A4AA4AI4AI4IA4IAAAIIIAIAAA4A444AA4
IIIAA4AA44IAIIIA4AIIAIAA4AAIA4A4AA4AI4AI4IA4IAAAIIIAIAAA4A444AA4
IIIAA4AA44IAIIIA4AIIAIAA4AAIA4A4AA4AI4AI44A4IAAAIIIAIAAA4A444AA4
IIIAA4AA44IAIIIA4AIIAIAA4AAIA4A4AA4AI4AI44A4IAAAIIIAIAAAAA444AA4
IIIAA4AA44IAIIIA4AIIAIAA4AAIA4A4AA4AI4AI44A4IAAAIIIAIAAAAA44AAA4
IIIAA4AA44IAIIIA4AIIAIAA4AAIA4A4AA4AI4AI44A4IAAAIIIAIAAAAA44AAAA
IIIAA4AA44IAIIIA4AIIAIAA4AAIA4A4AA4AI4A444A4IAAAIIIAIAAAAA44AAAA
IIIAA4AA44IAIIAA4AIIAIAA4AAIA4A4AA4AI4A444A4IAAAIIIAIAAAAA44AAAA
IIIAA4AA44IAIIAA4AIIAIAA4AAIA4A4AA4AI4AA44A4IAAAIIIAIAAAAA44AAAA
IIIAA4AA44IAIIAA4AIIAIAAAAAIA4A4AA4AI4AA44A4IAAAIIIAIAAAAA44AAAA
IIIAA4AA44IAIIAA4AIIAIAAAAAAA4A4AA4AI4AA44A4IAAAIIIAIAAAAA44AAAA
IIIAA4AA44IAIIAA4AIIAIAAAAAAA4A4AA4AI4AA44A4IAAAIIIAAAAAAA44AAAA
IIIAA4AA44IAIIAA4AIIAIAAAAAAA4A4AA4AI4AA44A4IAAAAI4AAAAAAA44AAAA
IIIIIIIIIIIIIIIIIIIIIIIIIIIIIIIAIIIIIIIIIIIIIIIIIIIIIIIIIIIIIIII
IIIIIIIIIIIIIIIIIIIIIIIIIIIIIIIAIIIAIIIIIIIIIIIIIIIIIIIIIIIIIIII
IIIIIIIIIIIIIIIIIIIIIIIIIIIIIIIAIIIAIIIIIIIIIAIIIIIIIIIIIIIIIIII
IIIIIIIIIIIIIIIIIIIIIIIIIIIIIIIAIIIAIIIIIIIIIAIIIIIIIIIIIAIIIIII
IIIIIIIIIIIIIIIIIIIIIIIIIIIIIIIAIIIAIIIIIIIIIAIIIIIIIIIIIAIIIAII
IIIIIIIIIIIIIIIIAIIIIIIIIIIIIIIAIIIAIIIIIIIIIAIIIIIIIIIIIAIIIAII
IIIIIIIIIIIIIIIAAIIIIIIIIIIIIIIAIIIAIIIIIIIIIAIIIIIIIIIIIAIIIAII
IIIIIIIIIIIIIIIAAIIIIIIIIIAIIIIAIIIAIIIIIIIIIAIIIIIIIIIIIAIIIAII
IIIIIIIIIIIIIIIAAIIIAIIIIIAIIIIAIIIAIIIIIIIIIAIIIIIIIIIIIAIIIAII
IIIIIIIIIIIIIIIAAIIIAAIIIIAIIIIAIIIAIIIIIIIIIAIIIIIIIIIIIAIIIAII
IIIIIIIIIIIIIIIAAIIIAAIAIIAIIIIAIIIAIIIIIIIIIAIIIIIIIIIIIAIIIAII
IIIIIIIIIIIIIIIAAIIIAAIAIIAIIIIAAIIAIIIIIIIIIAIIIIIIIIIIIAIIIAII
IIIIIIIIIIIIIIIAAIIIAAIAIIAIIIIAAIIAIIAIIIIIIAIIIIIIIIIIIAIIIAII
IIIIIIIIIIIIIIIAAIIIAAIAIIAIIIIAAIIAIIAIIIIIIAIIIIIIIIIAIAIIIAII
IIIIIIIIIIIIIIIAAIIIAAIAIIAIIIIAAIIAIIAIIIIIIAIIIIIIIIIAIAIIAAII
IIIIIIIIIAI4IIIAAIIIAAIAIIAIIIIAAIIAIIAIIIIIIAIIIIIIIIIAIAIIAAII
IIIIIIIIIAA44IIAAIIIAAIAIIAIIIIAAIIAIIAIIIIIIAIIIIIIIIIAIAIIAAII
IIIIIIIIIAA44AIAAIIIAAIAIIAIIIIAAIIAIIAIIIIIIAIIIIIIIIIAIAIIAAII
IIIIIIIIIAA44AAAAIIIAAIAIIAIIIIAAIIAIIAIIIIIIAIIIIIIIIIAIAIIAAII
IIIIIIIIIAA44AAAA4IIAAIAIIAIIIIAAIIAIIAIIIIIIAIIIIIIIIIAIAIIAAII
IIIIIIIIIAA44AAAA44IAAIAIIAIIIIAAIIAIIAIIIIIIAIIIIIIIIIAIAIIAAII
IIIIIIIIIAA44AAAA44IAAIAI4AIIIIAAIIAIIAIIIIIIAIIIIIIIIIAIAIIAAII
IIIIIIIIIAA44AAAA44IAAIAI4AIIAIAAIIAIIAIIIIIIAIIIIIIIIIAIAIIAAII
IIIIIIIIIAA44AAAA44IAAIAI4AIIAAAAIIAIIAIIIIIIAIIIIIIIIIAIAIIAAII
IIIIIIIIIAA44AAAA44IAAIAI4AIIAAAAAIAIIAIIIIIIAIIIIIIIIIAIAIIAAII
IIIIIIIIIAA44AAAA44IAAIAI4AIIAAAAAIAI4AIIIIIIAIIIIIIIIIAIAIIAAII
IIIIIIIIIAA44AAAA44IAAIAI4AIIAAAAAIAI4AI4IIIIAIIIIIIIIIAIAIIAAII
IIIIIIIIIAA44AAAA44IAAIAI4AIIAAAAAIAI4AA44IIIAIIIIIIIIIAIAIIAAII
IIIIIIIIIAA44AAAA44IAAIAI4AIIAAAAAIAI4AA44IIIAI4IIIIIIIAIAIIAAII
IIIIIIIIIAA44AAAA44IAAIAI4AIIAAAAAIAI4AA44IIIAA44IIIIIIAIAIIAAII
IIIIIIIIIAA44AAAA44IAAIAI4AIIAAAAAIAI4AA44IIIAA44IIIIAIAIAIIAAII
IIIIIIIIIAA44AAAA44IAAIAI4AIIAAAAAIAI4AA44IIIAA44IIIIAAA4AIIAAII
IIIIIIIIIAA44AAAA44IAAIAI4AIIAAAAAIAI4AA44IIIAA44IIIIAAAAA4IAAII
IIIIIIIIIAA44AAAA44IAAIAI4AIIAAAAAIAI4AA44IIIAA44IIIIAAAAA44AAII
IIIIIIIIIAA44AAAA44IAAIAI4AIIAAAAAIAI4AA44IIIAA44IIIIAAAAA44AA4I
IIIIIIIIIAA44AAAA44IAAIAI4AIIAAAAAIAI4AA44IIIAA44IIIIAAAAA44AA44
IIIIIIIIIAA44AAAA44IAAIAI4AIIAAAAAIAI4AA44IIIAA44IIIIAAAAA44AAA4
IIIIIA4IIAA44AAAA44IAA4AI4AIIAAAAAIAI4AA44IIIAA44IIIIAAAAA44AAA4
IIIIIA4IIAA44AAAA44IAA4AI4AIIAAAAAIAI4AA44IIIAA44A4IIAAAAA44AAA4
IIIA4A4IIAA44AAAA44IAA4AI4AIIAAAAAIAI4AA44IIIAA44A4IIAAAAA44AAA4
IIIAAA44IAA44AAAA44IAA4AI4AIIAAAAAIAI4AA44IIIAA44A4IIAAAAA44AAA4
IIIAAA44AAA44AAAA444AA4AI4AIIAAAAAIAI4AA44IIIAA44A4IIAAAAA44AAA4
IIIAAA44AAA44AAAA444AA4AI4AIIAAAAAIA44AA444IIAA44A4IIAAAAA44AAA4
IIIAAA44AAA44AAAA444AA4AI4AIIAAAAAIA44AA444I4AA44A4IIAAAAA44AAA4
IIIAAA44AAA44AAAA444AA4AI4AIIAAAAAIA44AA44A44AA44A4IIAAAAA44AAA4
IIIAAA44AAA44AAAA444AA4AI4AIIAAAAAIA44AA44A44AA44A444AAAAA44AAA4
IIIAAA44AAA44AAAA444AA4AI4AIIAAAAAIA44AA44A44AA44A4A4AAAAA44AAA4
IIIIIIIIIIIIIIIIAIIIIIIIIIIIIIIIIIIIIIIIIIIIIIIIIIIIIIIIIIIIIIII
IIIIIIIIIIIIIIIIAIIIIIIIIIIIIIIIIIIIIIAIIIIIIIIIIIIIIIIIIIIIIIII
IIIIIIIIIIIIIIIIAIIIIIIIIIIIIIIIIIIIIIAIIIIIIAIIIIIIIIIIIIIIIIII
IIIIIIIIIIIIIIIIAIIIIIIIIIIIIIIIIIIIIIAIIIIIIAIIIIIIAIIIIIIIIIII
IIIIIIIIIIIIIIIIAIIIIIIIIIIIIIIIIIIIIIAIIIIIIAIIIIIIAAIIIIIIIIII
IIIIIIIIIIIIIIIIAIIIIIIIIIIIIIIIIIIIIIAIIIIIIAIIIIIIAAIIAIIIIIII
IIIIIIIIIIIIIIIIAIIIIIIIIIIIIIIIIIIIIIAAIIIIIAIIIIIIAAIIAIIIIIII
IIIIIIIIIIIIIIIIAIIIIIIIIIIIIIIIIIIIIIAAIIIIIAAIIIIIAAIIAIIIIIII
IIIIIIIIIIIIIIIIAIIIIIIIIIIIIIIIIIIIIIAAIIIIIAAIIIIIAAIAAIIIIIII
IIIIIIIIIIIIIIIIAIIIIIIIIIIIIIAIIIIIIIAAIIIIIAAIIIIIAAIAAIIIIIII
IIIAIIIIIIIIIIIIAIIIIIIIIIIIIIAIIIIIIIAAIIIIIAAIIIIIAAIAAIIIIIII
IIIAAIIIIIIIIIIIAIIIIIIIIIIIIIAIIIIIIIAAIIIIIAAIIIIIAAIAAIIIIIII
IIIAAIIIIIIIIAIIAIIIIIIIIIIIIIAIIIIIIIAAIIIIIAAIIIIIAAIAAIIIIIII
IIIAAIIIIIIIIAIAAIIIIIIIIIIIIIAIIIIIIIAAIIIIIAAIIIIIAAIAAIIIIIII
IIIAAIIIIIIIIAIAAIIIIIIIAIIIIIAIIIIIIIAAIIIIIAAIIIIIAAIAAIIIIIII
IIIAAIIIIIIIIAIAAIIIIIIIAIAIIIAIIIIIIIAAIIIIIAAIIIIIAAIAAIIIIIII
IIIAAIIIIIIIIAIAAIIIIIIIAIAIIIAIIIIIIIAAIIIIIAAIIIIIAAIAAAIIIIII
IIIAAIIIIIIIIAIAAIIIIIIIAIAIIIAIIIIIIIAAIIIIIAAIIIIIAAIAAAIIAIII
IIIAAIIIIIIIIAIAAIIIIIIIAIAIIIAIIIIIIIAAIIIIIAAIIIIIAAIAAAIIAAII
IIIAAIIIIIIIIAIAAIIIIIIIAIAIIIAIIII4IIAAIIIIIAAIIIIIAAIAAAIIAAII
IIIAAIIIIIIIIAIAAIIIIIIIAIAIIIAIIIIAIIAA4IIIIAAIIIIIAAIAAAIIAAII
IIIAAIIIIIIIIAIAAIIIIIIIAIAIIIAIIIIAIIAA4II4IAAIIIIIAAIAAAIIAAII
IIIAAIIIIIIIIAIAAIIIIIIIAIAIIIAIIIIAIIAA4II4IAAIIII4AAIAAAIIAAII
IIIAAIIAIIIIIAIAAIIIIIIIAIAIIIAIIIIAIIAA4II4IAAIIII4AAIAAAIIAAII
IIIAAIIAIIIIIAIAAIIIIIAIAIAIIIAIIIIAIIAA4II4IAAIIII4AAIAAAIIAAII
IIIAA4IAIIIIIAIAAIIIIIAIAIAIIIAIIIIAIIAA4II4IAAIIII4AAIAAAIIAAII
IIIAA4IAIIIIIAIAA4IIIIAIAIAIIIAIIIIAIIAA4II4IAAIIII4AAIAAAIIAAII
IIIAA4IAIIIIIAIAAA4IIIAIAIAIIIAIIIIAIIAA4II4IAAIIII4AAIAAAIIAAII
IIIAA4IAIIIIIAIAAA4IA4AIAIAIIIAIIIIAIIAA4II4IAAIIII4AAIAAAIIAAII
IIIAA4IAIIIIIAIAAA4IA4A4AIAIIIAIIIIAIIAA4II4IAAIIII4AAIAAAIIAAII
IIIAA4IAIIIIIAIAAA4IA4AAAIAIIIAIIIIAIIAA4II4IAAIIII4AAIAAAIIAAII
IIIAA4IAIIIIIAIAAA4IA4AAAIA4IIAIIIIAIIAA4II4IAAIIII4AAIAAAIIAAII
IIIAA4IAIIIIIAIAAA4IA4AAAIA4IIAIA4IAIIAA4II4IAAIIII4AAIAAAIIAAII
IIIAA4IAIIIIIAIAAA4IA4AAAIA4IIAIA4IAIIAA4A44IAAIIII4AAIAAAIIAAII
IIIAA4IAIIIIIAIAAA4IA4AAAIA4IIAIA4IAIIAA4A44IAA4III4AAIAAAIIAAII
IIIAA4IAIIIIIAIAAA4IA4AAAIA4IIAIA4IAIIAA4A44IAA4III4AA4AAAIIAAII
IIIAA4IAIIIIIAIAAA4IA4AAAIA4IIAIA4IAIIAA4A44IAA4III4AA4AAA4IAAII
IIIAA4IAIIIIIAIAAA4IA4AAAIA4IIAIA4IAIIAA4A44IAA4III4AA4AAA4AAAII
IIIAA4IAIIIIIAIAAA4IA4AAAIA4IIAIA4IAIIAA4A44IAA4III4AA4AAA4AAA4I
IIIAA4IAIAIIIAIAAA4IA4AAAIA4IIAIA4IAIIAA4A44IAA4III4AA4AAA4AAA4I
IIIAA4IAIAIIIAAAAA4IA4AAAIA4IIAIA4IAIIAA4A44IAA4III4AA4AAA4AAA4I
IIIAA4IAIAIIIAAAAA4IA4AAAIA4IIAIA4AAIIAA4A44IAA4III4AA4AAA4AAA4I
IIIAA4IAIAIIIAAAAA4IA4AAAIA4IIAIA4AAIIAA4A44IAA4II44AA4AAA4AAA4I
IIIAA4IAIAIIIAAAAA4IA4AAAIA4IIAIA4AAIIAA4A44IAA4II44AA4AAA4AAAA4
IIAAA4IAIAIIIAAAAA4IA4AAAIA4IIAIA4AAIIAA4A44IAA4II44AA4AAA4AAAA4
IIAAA4IAIAIIIAAAAA4IA4AAAIA4IIAIA4AA4IAA4A44IAA4II44AA4AAA4AAAA4
IIAAA4IAIAI4IAAAAA4IA4AAAIA4IIAIA4AA4IAA4A44IAA4II44AA4AAA4AAAA4
IIAAA4IAIAI4IAAAAA4IA4AAAIA4IIAIAAAA4IAA4A44IAA4II44AA4AAA4AAAA4
IIAAA4IAIAI4IAAAAA4IA4AAAIA4IIA4AAAA4IAA4A44IAA4II44AA4AAA4AAAA4
IIAAA4IAIAI4IAAAAA4IA4AAAIA4IIA4AAAA4IAA4A44IAAA4I44AA4AAA4AAAA4
IIAAA4IAIAI4IAAAAA4IA4AAAIA4IIA4AAAA4IAA4A44IAAA4I44AAAAAA4AAAA4
IIAAA4IAIAI4IAAAAA4IA4AAAIA4IIA4AAAA44AA4A44IAAA4I44AAAAAA4AAAA4
IIAAA4IAIAI4IAAAAA4IA4AAAIA4IIA4AAAA44AA4A44IAAA4A44AAAAAA4AAAA4
IIAAA4IAIAI4IAAAAA4AA4AAAIA4IIA4AAAA44AA4A44IAAA4A44AAAAAA4AAAA4
[MLOP] Prefetch Degree Mean: 1.53748
[MLOP] Prefetch Degree SD: 2.77233
[MLOP] Max Score Left Mean (%): 13.18447
[MLOP] Max Score Left SD (%): 7.79553
[MLOP] Max Score Right Mean (%): 33.76252
[MLOP] Max Score Right SD (%): 10.79605

Channel_0_RQ_row_buffer_hit 689168
Channel_0_RQ_row_buffer_miss 2402435
Channel_0_WQ_row_buffer_hit 398798
Channel_0_WQ_row_buffer_miss 865073
Channel_0_WQ_full 0
Channel_0_dbus_congested 2213398

avg_congested_cycle 10

DRAM_bw_pochs 1159533
DRAM_bw_level_0 689176
DRAM_bw_level_1 344230
DRAM_bw_level_2 85514
DRAM_bw_level_3 40613
