*************************************************
   ChampSim Multicore Out-of-Order Simulator
   Last compiled: Apr  3 2025 20:54:34
*************************************************
parsing config file: /home/zir/Pythia/config/mlop.ini

trace_0 /home/zir/ChampSim/ML-DPC/ChampSimTraces/gap/sssp-5.trace.gz
adding L2C_PREFETCHER: MLOP
Initialize SHIP state
warmup_instructions 10000000
simulation_instructions 50000000
champsim_seed 53
measure_ipc 0
measure_ipc_epoch 1000
measure_dram_bw 1
measure_dram_bw_epoch 256
measure_cache_acc 1
measure_cache_acc_epoch 1024
l1d_perfect 0
l2c_perfect 0
llc_perfect 0
l1d_semi_perfect 0
l2c_semi_perfect 0
llc_semi_perfect 0
semi_perfect_cache_page_buffer_size 64

num_cpus 1
cpu_freq 4000
dram_io_freq 2400
page_size 4096
block_size 64
max_read_per_cycle 8
max_fill_per_cycle 1
dram_channels 1
log2_dram_channels 0
dram_ranks 1
dram_banks 8
dram_rows 65536
dram_columns 128
dram_row_size 8
dram_size 4096
dram_pages 1048576

fetch_width 6
decode_width 6
exec_width 4
lq_width 2
sq_width 2
retire_width 4
scheduler_size 128
branch_mispredict_penalty 20
rob_size 256
lq_size 72
sq_size 56
num_instr_destinations_sparc 4
num_instr_destinations 2
num_instr_sources 4

itlb_set 16
itlb_way 8
itlb_rq_size 16
itlb_wq_size 16
itlb_pq_size 0
itlb_mshr_size 8
itlb_latency 1

dtlb_set 16
dtlb_way 4
dtlb_rq_size 16
dtlb_wq_size 16
dtlb_pq_size 0
dtlb_mshr_size 8
dtlb_latency 1

stlb_set 128
stlb_way 12
stlb_rq_size 32
stlb_wq_size 32
stlb_pq_size 0
stlb_mshr_size 16
stlb_latency 8

l1i_size 32
l1i_set 64
l1i_way 8
l1i_rq_size 64
l1i_wq_size 64
l1i_pq_size 8
l1i_mshr_size 8
l1i_latency 1

l1d_size 32
l1d_set 64
l1d_way 8
l1d_rq_size 64
l1d_wq_size 64
l1d_pq_size 8
l1d_mshr_size 16
l1d_latency 4

l2c_size 256
l2c_set 512
l2c_way 8
l2c_rq_size 32
l2c_wq_size 32
l2c_pq_size 32
l2c_mshr_size 32
l2c_latency 10

llc_size 2048
llc_set 2048
llc_way 16
llc_rq_size 32
llc_wq_size 32
llc_pq_size 32
llc_mshr_size 64
llc_latency 20

dram_channel_width 8
dram_wq_size 64
dram_rq_size 64
tRP 15
tRCD 15
tCAS 12.5
dram_dbus_turn_around_time 30
dram_write_high_wm 56
dram_write_low_wm 48
min_dram_writes_per_switch 16
dram_mtps 2400
dram_dbus_return_time 13

mlop_pref_degree 16
mlop_num_updates 500
mlop_l1d_thresh 2
mlop_l2c_thresh 0.75
mlop_llc_thresh 0.3
mlop_debug_level 0
mlop_blocks_in_cache 4096
mlop_blocks_in_zone 64
mlop_amt_size 2048
mlop_PF_DEGREE 16
mlop_NUM_UPDATES 500
mlop_L1D_THRESH 1000
mlop_L2C_THRESH 375
mlop_LLC_THRESH 150
mlop_ORIGIN 63
mlop_MAX_OFFSET 63
mlop_MIN_OFFSET -63
mlop_ORIGIN 63
mlop_NUM_OFFSETS 127


Heartbeat CPU  0 instructions:    1000002 cycles:     261794 heartbeat IPC: 3.81980 cumulative IPC: 3.81980 (Simulation time: 0 hr 0 min 1 sec) 
Heartbeat CPU  0 instructions:    2000002 cycles:     759445 heartbeat IPC: 2.00944 cumulative IPC: 2.63350 (Simulation time: 0 hr 0 min 2 sec) 
Heartbeat CPU  0 instructions:    3000002 cycles:    1328387 heartbeat IPC: 1.75765 cumulative IPC: 2.25838 (Simulation time: 0 hr 0 min 3 sec) 
Heartbeat CPU  0 instructions:    4000000 cycles:    2021452 heartbeat IPC: 1.44286 cumulative IPC: 1.97878 (Simulation time: 0 hr 0 min 5 sec) 
Heartbeat CPU  0 instructions:    5000001 cycles:    2792348 heartbeat IPC: 1.29719 cumulative IPC: 1.79061 (Simulation time: 0 hr 0 min 6 sec) 
Heartbeat CPU  0 instructions:    6000001 cycles:    3634495 heartbeat IPC: 1.18744 cumulative IPC: 1.65085 (Simulation time: 0 hr 0 min 7 sec) 
Heartbeat CPU  0 instructions:    7000000 cycles:    4501403 heartbeat IPC: 1.15352 cumulative IPC: 1.55507 (Simulation time: 0 hr 0 min 8 sec) 
Heartbeat CPU  0 instructions:    8000000 cycles:    5379077 heartbeat IPC: 1.13938 cumulative IPC: 1.48724 (Simulation time: 0 hr 0 min 10 sec) 
Heartbeat CPU  0 instructions:    9000000 cycles:    6247273 heartbeat IPC: 1.15181 cumulative IPC: 1.44063 (Simulation time: 0 hr 0 min 11 sec) 
Heartbeat CPU  0 instructions:   10000000 cycles:    7109370 heartbeat IPC: 1.15996 cumulative IPC: 1.40659 (Simulation time: 0 hr 0 min 12 sec) 

Warmup complete CPU  0 instructions:   10000004 cycles:    7109371 (Simulation time: 0 hr 0 min 12 sec) 

Heartbeat CPU  0 instructions:   11000000 cycles:   11457483 heartbeat IPC: 0.22998 cumulative IPC: 0.22998 (Simulation time: 0 hr 0 min 14 sec) 
Heartbeat CPU  0 instructions:   12000000 cycles:   15551319 heartbeat IPC: 0.24427 cumulative IPC: 0.23691 (Simulation time: 0 hr 0 min 16 sec) 
Heartbeat CPU  0 instructions:   13000003 cycles:   19958238 heartbeat IPC: 0.22692 cumulative IPC: 0.23348 (Simulation time: 0 hr 0 min 18 sec) 
Heartbeat CPU  0 instructions:   14000000 cycles:   23995734 heartbeat IPC: 0.24768 cumulative IPC: 0.23688 (Simulation time: 0 hr 0 min 20 sec) 
Heartbeat CPU  0 instructions:   15000000 cycles:   28031199 heartbeat IPC: 0.24780 cumulative IPC: 0.23898 (Simulation time: 0 hr 0 min 22 sec) 
Heartbeat CPU  0 instructions:   16000000 cycles:   31858912 heartbeat IPC: 0.26125 cumulative IPC: 0.24243 (Simulation time: 0 hr 0 min 25 sec) 
Heartbeat CPU  0 instructions:   17000001 cycles:   35750802 heartbeat IPC: 0.25694 cumulative IPC: 0.24440 (Simulation time: 0 hr 0 min 27 sec) 
Heartbeat CPU  0 instructions:   18000003 cycles:   39456320 heartbeat IPC: 0.26987 cumulative IPC: 0.24732 (Simulation time: 0 hr 0 min 29 sec) 
Heartbeat CPU  0 instructions:   19000000 cycles:   43139425 heartbeat IPC: 0.27151 cumulative IPC: 0.24979 (Simulation time: 0 hr 0 min 31 sec) 
Heartbeat CPU  0 instructions:   20000000 cycles:   46827900 heartbeat IPC: 0.27111 cumulative IPC: 0.25177 (Simulation time: 0 hr 0 min 33 sec) 
Heartbeat CPU  0 instructions:   21000003 cycles:   50519102 heartbeat IPC: 0.27092 cumulative IPC: 0.25340 (Simulation time: 0 hr 0 min 35 sec) 
Heartbeat CPU  0 instructions:   22000003 cycles:   54444498 heartbeat IPC: 0.25475 cumulative IPC: 0.25351 (Simulation time: 0 hr 0 min 37 sec) 
Heartbeat CPU  0 instructions:   23000002 cycles:   58000111 heartbeat IPC: 0.28125 cumulative IPC: 0.25545 (Simulation time: 0 hr 0 min 39 sec) 
Heartbeat CPU  0 instructions:   24000000 cycles:   61621536 heartbeat IPC: 0.27613 cumulative IPC: 0.25682 (Simulation time: 0 hr 0 min 41 sec) 
Heartbeat CPU  0 instructions:   25000002 cycles:   65147177 heartbeat IPC: 0.28364 cumulative IPC: 0.25845 (Simulation time: 0 hr 0 min 43 sec) 
Heartbeat CPU  0 instructions:   26000002 cycles:   68730703 heartbeat IPC: 0.27905 cumulative IPC: 0.25965 (Simulation time: 0 hr 0 min 45 sec) 
Heartbeat CPU  0 instructions:   27000003 cycles:   72187853 heartbeat IPC: 0.28926 cumulative IPC: 0.26122 (Simulation time: 0 hr 0 min 47 sec) 
Heartbeat CPU  0 instructions:   28000000 cycles:   75664516 heartbeat IPC: 0.28763 cumulative IPC: 0.26256 (Simulation time: 0 hr 0 min 49 sec) 
Heartbeat CPU  0 instructions:   29000001 cycles:   79095150 heartbeat IPC: 0.29149 cumulative IPC: 0.26394 (Simulation time: 0 hr 0 min 51 sec) 
Heartbeat CPU  0 instructions:   30000003 cycles:   82596721 heartbeat IPC: 0.28559 cumulative IPC: 0.26495 (Simulation time: 0 hr 0 min 54 sec) 
Heartbeat CPU  0 instructions:   31000000 cycles:   85960015 heartbeat IPC: 0.29733 cumulative IPC: 0.26633 (Simulation time: 0 hr 0 min 56 sec) 
Heartbeat CPU  0 instructions:   32000000 cycles:   89320990 heartbeat IPC: 0.29753 cumulative IPC: 0.26760 (Simulation time: 0 hr 0 min 58 sec) 
Heartbeat CPU  0 instructions:   33000001 cycles:   92712270 heartbeat IPC: 0.29487 cumulative IPC: 0.26868 (Simulation time: 0 hr 1 min 0 sec) 
Heartbeat CPU  0 instructions:   34000000 cycles:   96051032 heartbeat IPC: 0.29951 cumulative IPC: 0.26984 (Simulation time: 0 hr 1 min 2 sec) 
Heartbeat CPU  0 instructions:   35000000 cycles:   99362478 heartbeat IPC: 0.30198 cumulative IPC: 0.27099 (Simulation time: 0 hr 1 min 4 sec) 
Heartbeat CPU  0 instructions:   36000000 cycles:  102618212 heartbeat IPC: 0.30715 cumulative IPC: 0.27223 (Simulation time: 0 hr 1 min 6 sec) 
Heartbeat CPU  0 instructions:   37000000 cycles:  105920898 heartbeat IPC: 0.30278 cumulative IPC: 0.27325 (Simulation time: 0 hr 1 min 8 sec) 
Heartbeat CPU  0 instructions:   38000003 cycles:  109144316 heartbeat IPC: 0.31023 cumulative IPC: 0.27442 (Simulation time: 0 hr 1 min 10 sec) 
Heartbeat CPU  0 instructions:   39000003 cycles:  112397934 heartbeat IPC: 0.30735 cumulative IPC: 0.27543 (Simulation time: 0 hr 1 min 13 sec) 
Heartbeat CPU  0 instructions:   40000000 cycles:  115903566 heartbeat IPC: 0.28525 cumulative IPC: 0.27575 (Simulation time: 0 hr 1 min 15 sec) 
Heartbeat CPU  0 instructions:   41000001 cycles:  119266799 heartbeat IPC: 0.29733 cumulative IPC: 0.27640 (Simulation time: 0 hr 1 min 17 sec) 
Heartbeat CPU  0 instructions:   42000003 cycles:  122469349 heartbeat IPC: 0.31225 cumulative IPC: 0.27739 (Simulation time: 0 hr 1 min 19 sec) 
Heartbeat CPU  0 instructions:   43000003 cycles:  125666338 heartbeat IPC: 0.31279 cumulative IPC: 0.27835 (Simulation time: 0 hr 1 min 21 sec) 
Heartbeat CPU  0 instructions:   44000000 cycles:  128839096 heartbeat IPC: 0.31518 cumulative IPC: 0.27931 (Simulation time: 0 hr 1 min 23 sec) 
Heartbeat CPU  0 instructions:   45000001 cycles:  131992125 heartbeat IPC: 0.31716 cumulative IPC: 0.28026 (Simulation time: 0 hr 1 min 25 sec) 
Heartbeat CPU  0 instructions:   46000001 cycles:  135152921 heartbeat IPC: 0.31638 cumulative IPC: 0.28115 (Simulation time: 0 hr 1 min 28 sec) 
Heartbeat CPU  0 instructions:   47000001 cycles:  138353042 heartbeat IPC: 0.31249 cumulative IPC: 0.28192 (Simulation time: 0 hr 1 min 30 sec) 
Heartbeat CPU  0 instructions:   48000000 cycles:  141610510 heartbeat IPC: 0.30699 cumulative IPC: 0.28253 (Simulation time: 0 hr 1 min 32 sec) 
Heartbeat CPU  0 instructions:   49000002 cycles:  144909781 heartbeat IPC: 0.30310 cumulative IPC: 0.28302 (Simulation time: 0 hr 1 min 34 sec) 
Heartbeat CPU  0 instructions:   50000002 cycles:  148068408 heartbeat IPC: 0.31659 cumulative IPC: 0.28377 (Simulation time: 0 hr 1 min 36 sec) 
Heartbeat CPU  0 instructions:   51000000 cycles:  151236960 heartbeat IPC: 0.31560 cumulative IPC: 0.28447 (Simulation time: 0 hr 1 min 38 sec) 
Heartbeat CPU  0 instructions:   52000000 cycles:  154339563 heartbeat IPC: 0.32231 cumulative IPC: 0.28527 (Simulation time: 0 hr 1 min 40 sec) 
Heartbeat CPU  0 instructions:   53000001 cycles:  157400423 heartbeat IPC: 0.32671 cumulative IPC: 0.28611 (Simulation time: 0 hr 1 min 42 sec) 
Heartbeat CPU  0 instructions:   54000001 cycles:  160465828 heartbeat IPC: 0.32622 cumulative IPC: 0.28691 (Simulation time: 0 hr 1 min 45 sec) 
Heartbeat CPU  0 instructions:   55000001 cycles:  163521771 heartbeat IPC: 0.32723 cumulative IPC: 0.28770 (Simulation time: 0 hr 1 min 47 sec) 
Heartbeat CPU  0 instructions:   56000000 cycles:  166588811 heartbeat IPC: 0.32605 cumulative IPC: 0.28844 (Simulation time: 0 hr 1 min 49 sec) 
Heartbeat CPU  0 instructions:   57000000 cycles:  169628006 heartbeat IPC: 0.32903 cumulative IPC: 0.28920 (Simulation time: 0 hr 1 min 51 sec) 
Heartbeat CPU  0 instructions:   58000003 cycles:  172705899 heartbeat IPC: 0.32490 cumulative IPC: 0.28986 (Simulation time: 0 hr 1 min 53 sec) 
Heartbeat CPU  0 instructions:   59000000 cycles:  175740331 heartbeat IPC: 0.32955 cumulative IPC: 0.29058 (Simulation time: 0 hr 1 min 55 sec) 
Heartbeat CPU  0 instructions:   60000000 cycles:  178708595 heartbeat IPC: 0.33690 cumulative IPC: 0.29138 (Simulation time: 0 hr 1 min 58 sec) 
Finished CPU 0 instructions: 50000003 cycles: 171599242 cumulative IPC: 0.29138 (Simulation time: 0 hr 1 min 58 sec) 

ChampSim completed all CPUs

[ROI Statistics]
Core_0_instructions 50000003
Core_0_cycles 171599242
Core_0_IPC 0.29138

Core_0_branch_prediction_accuracy 94.23893
Core_0_branch_MPKI 8.47752
Core_0_average_ROB_occupancy_at_mispredict 105.79482

Core_0_L1D_total_access 12076995
Core_0_L1D_total_hit 9451889
Core_0_L1D_total_miss 2625106
Core_0_L1D_loads 10765794
Core_0_L1D_load_hit 8424661
Core_0_L1D_load_miss 2341133
Core_0_L1D_RFOs 1311201
Core_0_L1D_RFO_hit 1027228
Core_0_L1D_RFO_miss 283973
Core_0_L1D_prefetches 0
Core_0_L1D_prefetch_hit 0
Core_0_L1D_prefetch_miss 0
Core_0_L1D_writebacks 0
Core_0_L1D_writeback_hit 0
Core_0_L1D_writeback_miss 0
Core_0_L1D_prefetch_requested 0
Core_0_L1D_prefetch_dropped 0
Core_0_L1D_prefetch_issued 0
Core_0_L1D_prefetch_filled 0
Core_0_L1D_prefetch_useful 0
Core_0_L1D_prefetch_useless 0
Core_0_L1D_prefetch_late 0
Core_0_L1D_average_miss_latency 91.50590

Core_0_L1D_rq_access 17920261
Core_0_L1D_rq_forward 0
Core_0_L1D_rq_merged 6954415
Core_0_L1D_rq_to_cache 10965846
Core_0_L1D_rq_full 0

Core_0_L1D_wq_access 1422672
Core_0_L1D_wq_forward 0
Core_0_L1D_wq_merged 960
Core_0_L1D_wq_to_cache 1421712
Core_0_L1D_wq_full 0

Core_0_L1D_pq_access 0
Core_0_L1D_pq_forward 0
Core_0_L1D_pq_merged 0
Core_0_L1D_pq_to_cache 0
Core_0_L1D_pq_full 0

Core_0_L1D_acc_epochs 173485
Core_0_L1D_acc_level_0 173485
Core_0_L1D_acc_level_1 0
Core_0_L1D_acc_level_2 0
Core_0_L1D_acc_level_3 0
Core_0_L1D_acc_level_4 0
Core_0_L1D_acc_level_5 0
Core_0_L1D_acc_level_6 0
Core_0_L1D_acc_level_7 0
Core_0_L1D_acc_level_8 0
Core_0_L1D_acc_level_9 0

Core_0_L1I_total_access 7372822
Core_0_L1I_total_hit 7372821
Core_0_L1I_total_miss 1
Core_0_L1I_loads 7372822
Core_0_L1I_load_hit 7372821
Core_0_L1I_load_miss 1
Core_0_L1I_RFOs 0
Core_0_L1I_RFO_hit 0
Core_0_L1I_RFO_miss 0
Core_0_L1I_prefetches 0
Core_0_L1I_prefetch_hit 0
Core_0_L1I_prefetch_miss 0
Core_0_L1I_writebacks 0
Core_0_L1I_writeback_hit 0
Core_0_L1I_writeback_miss 0
Core_0_L1I_prefetch_requested 0
Core_0_L1I_prefetch_dropped 0
Core_0_L1I_prefetch_issued 0
Core_0_L1I_prefetch_filled 0
Core_0_L1I_prefetch_useful 0
Core_0_L1I_prefetch_useless 0
Core_0_L1I_prefetch_late 0
Core_0_L1I_average_miss_latency 231.00000

Core_0_L1I_rq_access 50000058
Core_0_L1I_rq_forward 0
Core_0_L1I_rq_merged 42627236
Core_0_L1I_rq_to_cache 7372822
Core_0_L1I_rq_full 0

Core_0_L1I_wq_access 0
Core_0_L1I_wq_forward 0
Core_0_L1I_wq_merged 0
Core_0_L1I_wq_to_cache 0
Core_0_L1I_wq_full 0

Core_0_L1I_pq_access 0
Core_0_L1I_pq_forward 0
Core_0_L1I_pq_merged 0
Core_0_L1I_pq_to_cache 0
Core_0_L1I_pq_full 0

Core_0_L1I_acc_epochs 173485
Core_0_L1I_acc_level_0 173485
Core_0_L1I_acc_level_1 0
Core_0_L1I_acc_level_2 0
Core_0_L1I_acc_level_3 0
Core_0_L1I_acc_level_4 0
Core_0_L1I_acc_level_5 0
Core_0_L1I_acc_level_6 0
Core_0_L1I_acc_level_7 0
Core_0_L1I_acc_level_8 0
Core_0_L1I_acc_level_9 0

Core_0_L2C_total_access 3911879
Core_0_L2C_total_hit 1476030
Core_0_L2C_total_miss 2435849
Core_0_L2C_loads 2341110
Core_0_L2C_load_hit 482177
Core_0_L2C_load_miss 1858933
Core_0_L2C_RFOs 283935
Core_0_L2C_RFO_hit 183865
Core_0_L2C_RFO_miss 100070
Core_0_L2C_prefetches 474931
Core_0_L2C_prefetch_hit 260
Core_0_L2C_prefetch_miss 474671
Core_0_L2C_writebacks 811903
Core_0_L2C_writeback_hit 809728
Core_0_L2C_writeback_miss 2175
Core_0_L2C_prefetch_requested 1107226
Core_0_L2C_prefetch_dropped 0
Core_0_L2C_prefetch_issued 1107226
Core_0_L2C_prefetch_filled 500922
Core_0_L2C_prefetch_useful 248270
Core_0_L2C_prefetch_useless 252377
Core_0_L2C_prefetch_late 3392
Core_0_L2C_average_miss_latency 94.02492

Core_0_L2C_rq_access 2625107
Core_0_L2C_rq_forward 0
Core_0_L2C_rq_merged 0
Core_0_L2C_rq_to_cache 2625045
Core_0_L2C_rq_full 0

Core_0_L2C_wq_access 811903
Core_0_L2C_wq_forward 63
Core_0_L2C_wq_merged 0
Core_0_L2C_wq_to_cache 811903
Core_0_L2C_wq_full 0

Core_0_L2C_pq_access 1107226
Core_0_L2C_pq_forward 0
Core_0_L2C_pq_merged 17825
Core_0_L2C_pq_to_cache 1089400
Core_0_L2C_pq_full 0

Core_0_L2C_acc_epochs 173485
Core_0_L2C_acc_level_0 31228
Core_0_L2C_acc_level_1 2920
Core_0_L2C_acc_level_2 8349
Core_0_L2C_acc_level_3 17964
Core_0_L2C_acc_level_4 24110
Core_0_L2C_acc_level_5 22610
Core_0_L2C_acc_level_6 18706
Core_0_L2C_acc_level_7 17007
Core_0_L2C_acc_level_8 12701
Core_0_L2C_acc_level_9 17890

Core_0_LLC_total_access 3415812
Core_0_LLC_total_hit 2266977
Core_0_LLC_total_miss 1148835
Core_0_LLC_loads 1855576
Core_0_LLC_load_hit 1119319
Core_0_LLC_load_miss 736257
Core_0_LLC_RFOs 100066
Core_0_LLC_RFO_hit 44424
Core_0_LLC_RFO_miss 55642
Core_0_LLC_prefetches 936419
Core_0_LLC_prefetch_hit 604528
Core_0_LLC_prefetch_miss 331891
Core_0_LLC_writebacks 523751
Core_0_LLC_writeback_hit 498706
Core_0_LLC_writeback_miss 25045
Core_0_LLC_prefetch_requested 0
Core_0_LLC_prefetch_dropped 0
Core_0_LLC_prefetch_issued 0
Core_0_LLC_prefetch_filled 426499
Core_0_LLC_prefetch_useful 68106
Core_0_LLC_prefetch_useless 350636
Core_0_LLC_prefetch_late 1239
Core_0_LLC_average_miss_latency 183.85103

Core_0_LLC_rq_access 1955644
Core_0_LLC_rq_forward 0
Core_0_LLC_rq_merged 0
Core_0_LLC_rq_to_cache 1955642
Core_0_LLC_rq_full 0

Core_0_LLC_wq_access 523751
Core_0_LLC_wq_forward 9
Core_0_LLC_wq_merged 0
Core_0_LLC_wq_to_cache 523751
Core_0_LLC_wq_full 0

Core_0_LLC_pq_access 1062096
Core_0_LLC_pq_forward 0
Core_0_LLC_pq_merged 1104
Core_0_LLC_pq_to_cache 1060985
Core_0_LLC_pq_full 0

Core_0_LLC_acc_epochs 174521
Core_0_LLC_acc_level_0 138769
Core_0_LLC_acc_level_1 8545
Core_0_LLC_acc_level_2 6286
Core_0_LLC_acc_level_3 1578
Core_0_LLC_acc_level_4 1279
Core_0_LLC_acc_level_5 3586
Core_0_LLC_acc_level_6 1272
Core_0_LLC_acc_level_7 1739
Core_0_LLC_acc_level_8 2097
Core_0_LLC_acc_level_9 9370

Core_0_major_page_fault 0
Core_0_minor_page_fault 9155

[MLOP] History of tracked zone:
IIIIIIIIIIIIIIIIIIIIIIIIIIIIIIIIIIIIIIIIIIIIIIIIIIIIIIIIIIIIIIII
IIIIIA4IIIIIIIIIIIIIIIIIIIIIIIIIIIIIIIIIIIIIIIIIIIIIIIIIIIIIIIII
IIIIIAA4IIIIIIIIIIIIIIIIIIIIIIIIIIIIIIIIIIIIIIIIIIIIIIIIIIIIIIII
IIIIIAA4IIIIIIIIIIIIIIIA4IIIIIIIIIIIIIIIIIIIIIIIIIIIIIIIIIIIIIII
IIIIIAA4IIIIIIIIIIIIIIIA4IIIIIIIIIIIIIIIIIIIIIIIA4IIIIIIIIIIIIII
IIIIIAA4IIIIIIIIIIIIIIIA4IIIIIIIIIIIIIIIIIIIIIIIAA4IIIIIIIIIIIII
IIIIIAA4IIIIIIIIIIIIIIIA4IIIIIIIIIIIIIIIIIIIIIIIAA4IIIIIIIIIA4II
IIA4IAA4IIIIIIIIIIIIIIIA4IIIIIIIIIIIIIIIIIIIIIIIAA4IIIIIIIIIA4II
IIA4IAA4IIIA4IIIIIIIIIIA4IIIIIIIIIIIIIIIIIIIIIIIAA4IIIIIIIIIA4II
IIA4IAA4IIIA4IIIIIIIIIIA4IIIIIIIIIIIIIIIIIIIIIIIAA4IA4IIIIIIA4II
IIA4IAA4IIIA4IIIIIIAI4IA4IIIIIIIIIIIIIIIIIIIIIIIAA4IA4IIIIIIA4II
IIA4IAA4IIIA4IIIIIIAI4IA44IIIIIIIIIIIIIIIIIIIIIIAA4IA4IIIIIIA4II
IAA44AA4IIIA4IIIIIIAI4IA44IIIIIIIIIIIIIIIIIIIIIIAA4IA4IIIIIIA4II
IAA44AA444IA4IIIIIIAI4IA44IIIIIIIIIIIIIIIIIIIIIIAA4IA4IIIIIIA4II
IAA44AA444IA4AI444IAI4IA44IIIIIIIIIIIIIIIIIIIIIIAA4IA4IIIIIIA4II
IAA44AA444IA4AIA444AI4IA44IIIIIIIIIIIIIIIIIIIIIIAA4IA4IIIIIIA4II
IAA44AA444IA4AIA444AA44A44IIIIIIIIIIIIIIIIIIIIIIAA4IA4IIIIIIA4II
IAA44AA444IA4AIA444AA44A44IIIAI444IIIIIIIIIIIIIIAA4IA4IIIIIIA4II
IAA44AA444IA4AIA444AA44A44IIIAA4444IIIIIIIIIIIIIAA4IA4IIIIIIA4II
IAA44AA444IA4AIA444AA44A44IIIAA444AI444IIIIIIIIIAA4IA4IIIIIIA4II
IAA44AA444IA4AIA444AA44A44IIIAA444AI444AI444IIIIAA4IA4IIIIIIA4II
IAA44AA444IA4AIA444AA44A44IIIAA444AI444AI444IAI4AA4IA4IIIIIIA4II
IAA44AA444IA4AIA444AA44A44IIIAA444AI444AI444IAI4AA44A4IIIIIIA4II
IAA44AA444IA4AIA444AA44A44IIIAA444AI444AI444IAI4AA44AAI444IIA4II
IAA44AA444IA4AIA444AA44A44IIIAA444AI444AI444IAI4AA44AAI444IIA4IA
IAA44AA444IA4AIA444AA44A44IIIAA444AI444AI444IAI4AA4AAAI444I4A44A
IAA44AA444IA4AIA444AA44A4AI44AA444AI444AI444IAI4AA4AAAI444I4A44A
IAA44AA444IA4AIA444AA44A4AI4AAA444AI444AI444IAI4AA4AAAI444I4A44A
IAA44AA444IA4AIA444AA44A4AI4AAA444AI4A4A4444IA44AA4AAAI444I4A44A
IAA44AA444AA4AIA444AA44A4AI4AAA444AI4A4A4444IA44AA4AAAI444I4A44A
IAA44AA444AA4AIA4A4AA44A4AI4AAA444AI4A4A4444IA44AA4AAAI444I4A44A
IAA44AA444AA4AIA4A4AA44A4AI4AAA44AAI4A4A44444A44AA4AAAI444I4A44A
IAA44AA444AA4AIA4A4AA44A4AI4AAA44AAI4A4A44444A44AA4AAAI44444A44A
IAAA4AA444AA4AIA4A4AA44A4AI4AAA44AAI4A4A44444A44AA4AAAI44444A44A
IAAA4AA444AA4A4A4A4AA44A4AI4AAA44AAI4A4A44444A44AA4AAAI44444A44A
IAAA4AA444AA4A4A4A4AA44A4AI4AAA44AAI4A4A44444A44AA4AAA444444A44A
IAAA4AA444AA4A4A4A4AA44A4AI4AAA44AA44A4A44444A44AA4AAA444444A44A
IAAA4AA444AA4A4A4A4AAA4A4AI4AAA44AA44A4A44444A44AA4AAA444444A44A
IAAA4AA444AA4A4A4A4AAA4A4AI4AAA44AA44A4A44444AA4AA4AAA444444A44A
IAAA4AA444AA4A4A4A4AAA4A4AI4AAA44AA44A4A44444AA4AA4AAA444A44A44A
IAAA4AA444AA4A4A4A4AAA4A4A44AAA44AA44A4A44444AA4AA4AAA444A44A44A
IAAA4AA444AA4A4A4A4AAA4A4A44AAA4AAA44A4A44444AA4AA4AAA444A44A44A
IAAA4AA444AA4A4A4A4AAA4A4A44AAA4AAA44AAA44444AA4AA4AAA444A44A44A
IAAA4AA444AA4A4A4A4AAA4A4A44AAA4AAA44AAA44444AAAAA4AAA444A44A44A
IAAA4AA444AA4A4A4A4AAA4A4A44AAA4AAA44AAA44444AAAAAAAAA444A44A44A
IAAA4AA444AA4A4A4A4AAA4A4A44AAA4AAA44AAA4A444AAAAAAAAA444A44A44A
IAAA4AA444AA4A4A4A4AAA4A4A4AAAA4AAA44AAA4A444AAAAAAAAA444A44A44A
IAAA4AA444AA4A4A4A4AAA4A4A4AAAA4AAA44AAA4A444AAAAAAAAA444A44AA4A
IAAA4AA444AA4A4A4A4AAA4A4A4AAAA4AAAA4AAA4A444AAAAAAAAA444A44AA4A
IAAA4AA444AA4A4A4A4AAA4AAA4AAAA4AAAA4AAA4A444AAAAAAAAA444A44AA4A
IAAA4AA244AA4A4A4A4AAA4AAA4AAAA4AAAA4AAA4A444AAAAAAAAA444A44AA4A
IAAA4AA244AA4A4A4A4AAA4AAA4AAAAAAAAA4AAA4A444AAAAAAAAA444A44AA4A
IAAA4AA244AA4A4A4A4AAA4AAA4AAAAAAAAA4AAA4A444AAAAAAAAA444A42AA4A
IAAA4AA244AA4A4A4A4AAA4AAA4AAAAAAAAA4AAA4A444AAAAAAAAA444A4AAA4A
IAAA4AA244AA4A4A4A4AAA4AAA4AAAAAAAAA2AAA4A444AAAAAAAAA444A4AAA4A
IAAA4AA244AA4A4A4A4AAA4AAA4AAAAAAAAA2AAA4A244AAAAAAAAA444A4AAA4A
IAAA4AA244AA4A4A4A4AAA4AAA4AAAAAAAAA2AAA4A244AAAAAAAAA244A4AAA4A
IAAA4IA244AA4A4A4A4AAA4AAA4AAAAAAAAA2AAA4A244AAAAAAAAA244A4AAA4A
IAAA4IA244AA4A4A4A4AAA4IAA4AAAAAAAAA2AAA4A244AAAAAAAAA244A4AAA4A
IAAA4IA244AA4A4A4A4AAA4IAA4AAAAAAAAI2AAA4A244AAAAAAAAA244A4AAA4A
IAAA4IA244AA4A4A4A4AAA4IAA4AAAAAAAAIIAAA4A244AAAAAAAAA244A4AAA4A
IAAA4AA244AA4A4A4A4AAA4IAA4AAAAAAAAIIAAA4A244AAAAAAAAA244A4AAA4A
IAAA4AA2A4AA4A4A4A4AAA44AA4AAAAAAAAIIAAA4A244AAAAAAAAA244A4AAA4A
IAAA4AA2A4AA4A4A4A4AAA44AA4AAAAAAAAIIAAA4A244AAAAAAAAA244AAAAA4A
IAAAAAA2A4AA4A4A4A4AAA44AA4AAAAAAAAIIAAA4A244AAAAAAAAA244AAAAA4A
IAAAAAA2A4AA4A4A4A4AAA4AAA4AAAAAAAAI4AAA4A244AAAAAAAAA244AAAAA4A
IAAAAAA2A4AA4AAA4A4AAA4AAA4AAAAAAAAI4AAA4A244AAAAAAAAA244AAAAA4A
IAAAAAA2A4AA4AAA4A4AAA4AAA4AAAAAAAAI4AAA4A244AAAAAAAAA244AAAAAAA
IAAAAAA2A4AA4AAA4A4AAA4AAA4AAAAAAAA44AAA4A244AAAAAAAAA244AAAAAAA
IAAAAAA2A4AA4AAA4A4AAA4AAA4AAAAAAAAA4AAA4A244AAAAAAAAA244AAAAAAA
IAAAAAA2A4AA4AAA4A4AAA4AAA4AAAAAAAAA4AAA4A244AAIAAAAAA244AAAAAAA
IAAAAAA2A4AA4AAA4A4AAA4AAA4AAAAAAAAA4AAA4A244AA4AAAAAA244AAAAAAA
IAAAAAA2A4AA4AAA4A4AAA4AAA4AAAAAAAAA4AAAAA244AA4AAAAAA244AAAAAAA
IAAAAAA2A4AA4AAA4A4AAA4AAA4AAAAAAAAA4AAAAA244AAAAAAAAA244AAAAAAA
IAAAAAA2A2AA4AAA4A4AAA4AAA4AAAAAAAAA4AAAAA244AAAAAAAAA244AAAAAAA
IAAAAAA2A2AA4AAA4A2AAA4AAA4AAAAAAAAA4AAAAA244AAAAAAAAA244AAAAAAA
IAAAAAI2A2AA4AAA4A2AAA4AAA4AAAAAAAAA4AAAAA244AAAAAAAAA244AAAAAAA
IAAAAAI2A2AA4AAA4I2AAA4AAA4AAAAAAAAA4AAAAA244AAAAAAAAA244AAAAAAA
IAAAAAI2A2AA4AAA442AAA4AAA4AAAAAAAAA4AAAAA244AAAAAAAAA244AAAAAAA
IAAAAAI2A2AA4AAA442AAA4AAI4AAAAAAAAA4AAAAA244AAAAAAAAA244AAAAAAA
IAAAAAI2A2AA4AAA442AAA4AAI4AAAAAAAAA4AAAAA244AAAAAAAAA24AAAAAAAA
AAAAAAI2A2AA4AAA442AAA4AAI4AAAAAAAAA4AAAAA244AAAAAAAAA24AAAAAAAA
AAAAAAI2A2AA4AAA442AAA4AAI4AAAAAAAAA4AAAAA244AAAAAAAAAA4AAAAAAAA
AAAAAAI2A2AA4AAA442AAA4AA44AAAAAAAAA4AAAAA244AAAAAAAAAA4AAAAAAAA
AAAAAAI2A2AA4AAA442AAA4AA44AAAAAAIAA4AAAAA244AAAAAAAAAA4AAAAAAAA
AAAAAAI2A2AI4AAA442AAA4AA44AAAAAAIAA4AAAAA244AAAAAAAAAA4AAAAAAAA
AAAAAAI2A2AA4AAA442AAA4AA44AAAAAAIAA4AAAAA244AAAAAAAAAA4AAAAAAAA
AAAAAAI2A2AA4AAA242AAA4AA44AAAAAAIAA4AAAAA244AAAAAAAAAA4AAAAAAAA
AAAAAA42A2AA4AAA242AAA4AA44AAAAAAIAA4AAAAA244AAAAAAAAAA4AAAAAAAA
AAAAAA42A2AA4AAA2A2AAA4AA44AAAAAA4AA4AAAAA244AAAAAAAAAA4AAAAAAAA
AAAAAA42A2AA4AAA2A2AAA4AA44AAAAAA4AA4AAAAA244AAAAAAAAAA4AAAAAIAA
AAAAAA42A2AA4AAA2A2AAA4AA42AAAAAA4AA4AAAAA244AAAAAAAAAA4AAAAAIAA
AAAAAA42A2AA2AAA2A2AAA4AA42AAAAAA4AA4AAAAA244AAAAAAAAAA4AAAAAIAA
AAAAAA42A2AA2AAA2A2AAA4AA42AAAAAA4AA4AAAAA244AAAAAAAAAA4AAAAA4AA
AAAAAA42A2AA2AAA2A2AAA4AI42AAAAAA4AA4AAAAA244AAAAAAAAAA4AAAAA4AA
AAAAAA42A2AA2AAA2A2AAA4A442AAAAAA4AA4AAAAA244AAAAAAAAAA4AAAAA4AA
AAAAAA42A2AAAAAA2A2AAA4A442AAAAAA4AA4AAAAA244AAAAAAAAAA4AAAAA4AA
AAAAAA42A2AAAIAA2A2AAA4A442AAAAAA4AA4AAAAA244AAAAAAAAAA4AAAAA4AA
AAAAAA22A2AAAIAA2A2AAA4A442AAAAAA4AA4AAAAA244AAAAAAAAAA4AAAAA4AA
AAAAAA22A2AAAIAA2A2AAA4A442AAAAAA4AA4AAAAA244AAIAAAAAAA4AAAAA4AA
AAAAAA22A2AAA4AA2A2AAA4A442AAAAAA4AA4AAAAA244AAIAAAAAAA4AAAAA4AA
AAAAAA22A2AAA4AA2A2AAA4A4A2AAAAAA4AA4AAAAA244AAIAAAAAAA4AAAAA4AA
AAAAAA22A2AAA4AA2A2AAA4A4A2AAAAAA4AA4AAAAA244AA4AAAAAAA4AAAAA4AA
AAAAAA22A2AAA4AA2A2AAA4A4A2AAAAAAAAA4AAAAA244AA4AAAAAAA4AAAAA4AA
AAAAAA22A2AAA4AA2A2AAA4A4A2AAAAAAAAA4AAAAA224AA4AAAAAAA4AAAAA4AA
AAAAAA22A2AAA4AA2A2AAA4A4A2AAAAAAAAA4AAAAA224AA4AAAAAAA2AAAAA4AA
AAAAAA22A2AAA4AA2A2AAA4A4A2AAAAAAAAA4AAAAA224AA4AAAAAAA2AAAAAAAA
AAAAAA22A2AAA4AA2A2AAA4A4A2AAAAAAAAA4AAAAA224AA4IAAAAAA2AAAAAAAA
AAAAAA22A2AAA4AA2A2AAA4A4I2AAAAAAAAA4AAAAA224AA4IAAAAAA2AAAAAAAA
AAAAAA22A2AAA4AA2A2AAA4A4I2AAAAAAAAA4AAAAA224AA4IAAAAAA2AAAAAIAA
AAAAAA22A2AAA4AA2A2AAA4A4I2AAAAAAAAA4AAAAA224AA44AAAAAA2AAAAAIAA
AAAAAA22A2AAA4AA2A2AAA4A4I2AAAAAAAAA4AAAAA224AA4AAAAAAA2AAAAA4AA
AAAAAA22A2AAA4AA2A2AAA4AA42AAAAAAAAA4AAAAA224AA4AAAAAAA2AAAAA4AA
AAAAAA22A2AAA4AA2A2AAA4AAA2AAAAAAAAA4AAAAA224AA4AAAAAAA2AAAAA4AA
AAAAAA22A2AAA4AA2A2AAA4AAAAAAAAAAAAA4AAAAA224AA4AAAAAAA2AAAAA4AA
AAAAAI22A2AAA4AA2A2AAA4AAAAAAAAAAAAA4AAAAA224AA4AAAAAAA2AAAAA4AA
AAAAAI22A2AAA4AA2A2AAA4AAAAAAIAAAAAA4AAAAA224AA4AAAAAAA2AAAAA4AA
AAAAAI22A2AAA4AA2A2AAA4AAAAAAIAAAAAA4AAAAA224AA4AAAAAAA2AAIAA4AA
AAAAAI22A2AAA4AA2A2AAA4AAAAAA4AAAAAA4AAAAA224AA4AAAAAAA2AAIAA4AA
AAAAAI22A2AAA4AA2A2AAA4AAAAAA2AAAAAA4AAAAA224AA4AAAAAAA2AAIAA4AA
AAAAAI22A2AAA4AA2A2AAA4AAAAAA2AAAAAA2AAAAA224AA4AAAAAAA2AAIAA4AA
AAAAAI22A2AAA4AA2A2AAA4AAAAAA2AAAAAA2AAAAA224AA4AAAAAAA2AA4AA4AA
AAAAAI22A2AAA4AA2A2AAA4AAAAAA2AAAAAAIAAAAA224AA4AAAAAAA2AA4AA4AA
AAAAAA22A2AAA4AA2A2AAA4AAAAAA2AAAAAAIAAAAA224AA4AAAAAAA2AA4AA4AA
AAAAAA22A2AAA4AA2A2AAA4AAAAAA2AAAAAA4AAAAA224AA4AAAAAAA2AA4AA4AA
AAAAAI22A2AAA4AA2A2AAA4AAAAAA2AAAAAA4AAAAA224AA4AAAAAAA2AA4AA4AA
AAAAAI22A2AAA2AA2A2AAA4AAAAAA2AAAAAA4AAAAA224AA4AAAAAAA2AA4AA4AA
AAAAAI22A2AAA2AA2A2AAA2AAAAAA2AAAAAA4AAAAA224AA4AAAAAAA2AA4AA4AA
AAAAAA22A2AAA2AA2A2AAA2AAAAAA2AAAAAA4AAAAA224AA4AAAAAAA2AA4AA4AA
AAAAAA22A2AAA2AA2A2AAA2AAAAAA2AAAAAA4AAAAA224AA4AAAAAAA2AA2AA2AA
AAAAAA22A2AAA2AA2A2AAA2AAAAAA2AAAAAA4AIAAA224AA4AAAAAAA2AA2AA2AA
AAAAAA22A2AAA2AA2A2AAA2AAAAAA2AAAAAA4AIAAA224AA4AAAAAAA2AA2AAIAA
AAAAAA22A2AAA2AA2A2AAAAAAAAAA2AAAAAA4A4AAA224AA4AAAAAAA2AA2AAIAA
AAAAAA22A2AAA2AA2A2AAAAAAAAAA2AAAAAA2A4AAA224AA4AAAAAAA2AA2AAIAA
AAAAAA22A2AAA2AA2A2AAAAAAAAAA2AAAAAA2A2AAA224AA4AAAAAAA2AA2AAIAA
AAAAAA22A2AAA2AA2A2AAAAAAAAAA2AAAAAA2A2AAA222AA4AAAAAAA2AA2AAIAA
AAAAAA22A2AAA2AA2A2AAAAAAAAAA2AAAAAA2A2AAA222AA2AAAAAAA2AA2AAIAA
AAAAAA22A2AAA2AA2A2AAAAAAAAAA2AAAAAA2A2AAA222AAAAAAAAAA2AA2AA4AA
AAAAAA22A2AAA2AA2A2AAAAAAAAAA2AAAAAA2A2AAA222AAAAAAAAAAAAA2AA4AA
AAAAAA22A2AAA2AA2A2AAAAAAAAAA2AAAAAA2A2AAA222AAAAAAAAAAAAA2AA2AA
AAAAAA22A2AAA2AA2A2AAAAAAIAAA2AAAAAA2A2AAA222AAAAAAAAAAAAA2AA2AA
AAAAAA22A2AAA2AA2A2AAAAAAIAAA2AAAAAA2AIAAA222AAAAAAAAAAAAA2AA2AA
AAAAAA22A2AAA2AA2A2AAAAAAIAAA2AAAAAA2AIAAA222AAAAAAAAAAAAA2AI2AA
AAAAAA22A2AAA2AA2A2AAAAAAIAAA2AAAAAA2AIAAA222AAAAAAAAAAAAA2AI2AI
AAAAAA22A2AAA2AA2A2AAAAAA4AAA2AAAAAA2AIAAA222AAAAAAAAAAAAA2AI2AI
AAAAAA22A2AAA2AA2A2AAAAAA4AAA2AAAAAA2AIAAA222AAAAAAAAAAAAA2A42A4
AAAAAA22A2AAA2AA2A2AAAAAA4AAA2AAAAAA2AIAAA222AAAAAAAAAAAAAAA22A4
AAAAAA22A2AAA2AA2A2AAAAAA4AAA2AAAAAA2AIAAA222AAAAAAAAAAAAAAAI2A4
AAAAAA22A2AIA2AA2A2AAAAAA4AAA2AAAAAA2AIAAA222AAAAAAAAAAAAAAAI2A4
AAAAAA22A2AAA2AA2A2AAAAAA4AAA2AAAAAA2AIAAA222AAAAAAAAAAAAAAAI2A4
AAAAAA22A2AAA2AA2A2AAAAAA4AAA2AAAAAA2AAAAA222AAAAAAAAAAAAAAAI2A4
AAAAAA22A2AAA2AA2A2AAAAAA2AAA2AAAAAA2AAAAA222AAAAAAAAAAAAAAAI2A4
AAAAAA22A2AAA2AA2A2AAAAAA2AAA2AAAAAA2AAAAA222AAAAAAAAAAAAAAA42A4
AAAAAA22A2AAA2AA2A2AAAAAA2AAI2AAAAAA2AAAAA222AAAAAAAAAAAAAAA42A4
AAAAAA22A2AAA2AA2A2AAAAAA2AA42AAAAAA2AAAAA222AAAAAAAAAAAAAAA42A4
AAAAAA22A2AAA2AA2A2AAAAAA2AA42AAAAAA2AAAAA222AAAAAAAIAAAAAAA42A4
AAAAAA22A2AAAAAA2A2AAAAAA2AA42AAAAAA2AAAAA222AAAAAAAIAAAAAAA42A4
AAAAAA22A2AAAAAA2A2AAAAAA2AAA2AAAAAA2AAAAA222AAAAAAAIAAAAAAA42A4
AAAAAA22A2AAAAAA2A2AAAAAA2AAA2AAAAAA2AAAAA222AAAAAAA4AAAAAAA42A4
AAAAAA22A2AAAAAA2A2AAAAAA2AAA2AAAAAA2AAAAA222AAAAAAA2AAAAAAA42A4
AAAAAA22A2AAAAAA2A2AAAAAA2AAA2AAAAAA2AAAAA222AAAAAAA2AAAAAAAA2A4
AAAAAA22A2AAAAAA2A2AAAAAA2AAA2AAAAAA2AAAAA222AAIAAAA2AAAAAAAA2A4
AAAAAA22A2AAAAAA2A2AAAAAA2AAA2AAAAAA2AAAAA222AAIAAAAAAAAAAAAA2A4
AAAAAA22A2AAAAAA2A2AAAAAAAAAA2AAAAAA2AAAAA222AAIAAAAAAAAAAAAA2A4
AAAAAA22A2AAAAAA2A2AAAAAAAAAA2AAAAAA2AAAAA222AA4AAAAAAAAAAAAA2A4
AAAAAA22A2AIAAAA2A2AAAAAAAAAA2AAAAAA2AAAAA222AA4AAAAAAAAAAAAA2A4
AAAAAA22A2AIAAAA2A2AAAAAAAAAA2AAAAAA2AAAAA222AA4AAAAIAAAAAAAA2A4
AAAAAA22A2AIAAAA2A2AAAAAAAAAA2AAAAAA2AAAAA222AA4AAAAIIAAAAAAA2A4
AAAAAA22A2AIAAAA2A2AAAAAAAAAA2AAAAAA2AAAAA222AA4AAAAIIAAAAAAI2A4
AAAAAA22A2AIAAAA2A2AAAAAAAIAA2AAAAAA2AAAAA222AA4AAAAIIAAAAAAI2A4
AAAAAA22A2AIAAAA2A2AAAAAAAIAA2AAAAAA2AAAAA222AA4AAAAIIAAAAAAA2A2
AAAAAA22A2AIAAAA2A2AAAAAAAIIA2AAAAAA2AAAAA222AA4AAAAIIAAAAAAA2A2
AAAAAA22A2AIAAAA2A2AAAAAAAIII2AAAAAA2AAAAA222AA4AAAAIIAAAAAAA2A2
AAAAAA22A2AIAAAA2A2AAAAAAAIII2AAAAAA2AAAAA222AA4AAAAIIAAAAAAI2A2
AAAAAA22A2A4AAAA2A2AAAAAAAIII2AAAAAA2AAAAA222AA4AAAAIIAAAAAAI2A2
AAAAAA22A2AAAAAA2A2AAAAAAA4I42AAAAAA2AAAAA222AA4AAAAIIAAAAAAI2A2
AAAAAA22A2AAAAAA2A2AAAAAAA4A42AAAAAA2AAAAA222AA4AAAAIIAAAAAAI2A2
AAAAAA22A2AAAAAA2A2AAAAAAA4A42AAAAAA2AAAAA222AA4AAAA44AAAAAAI2A2
AAAAAA22A2AAAAAA2A2AAAAAAA4A42AAAAAA2AAAAA222AA4AAAA44AAAAAA42A2
AAAAAA22A2AAAAAA2A2AAAAAAA4A42AAAAAA2AAAAA222AAAAAAA44AAAAAA42A2
AAAAAA22A2AAAAAA2A2AAAAAAA4A42AAAAAA2AAAAA222AAAAAAA44AAAAAAA2A2
AAAAAA22A2AAAAAA2AAAAAAAAA4A42AAAAAA2AAAAA222AAAAAAA44AAAAAAA2A2
AAAAAA22A2AAAAAA2AAAAAAAAA4A42AAAAAA2AAAAA222IAAAAAA44AAAAAAA2A2
AAAAAA22A2AAAAAA2AAAAAAAAA4AA2AAAAAA2AAAAA222IAAAAAA44AAAAAAA2A2
AAAAAA22A2AAAAAA2AAAAAAAAA4AA2AAAAAA2AAAAA2222AAAAAA44AAAAAAA2A2
AAAAAAA2A2AAAAAA2AAAAAAAAA4AA2AAAAAA2AAAAA2222AAAAAA44AAAAAAA2A2
AAAAAAA2A2AAAAAA2AAAAAAAAA4AA2AAAAAA2AAAAA2222AAAAAAA2AAAAAAA2A2
AAAAAAA2A2AAAAAA2AAAAAAAAA4AI2AAAAAA2AAAAA2222AAAAAAA2AAAAAAA2A2
AAAAAAA2A2AAAAAA2AAAAAAAAA4A42AAAAAA2AAAAA2222AAAAAAA2AAAAAAA2A2
AAAAAAA2A2AAAAAA2AAAAAAAAA4A42AAAAAA2AAAAA222AAAAAAAA2AAAAAAA2A2
AAAAAIA2A2AAAAAA2AAAAAAAAA4A42AAAAAA2AAAAA222AAAAAAAA2AAAAAAA2A2
AAAAAIA2A2AAAAAA2AAAAAAAAA4A42AAAAAA2AAAAI222AAAAAAAA2AAAAAAA2A2
AAAAAAA2A2AAAAAA2AAAAAAAAA4A42AAAAAA2AAAAI222AAAAAAAA2AAAAAAA2A2
AAAAAAA2A2AAAAAA2AAAAAAAAA2A42AAAAAA2AAAAI222AAAAAAAA2AAAAAAA2A2
AAAAAAA2A2AAAAAA2AAAAAAAAA2A42AAAAAA2AAAA4222AAAAAAAA2AAAAAAA2A2
AAAAAAA2A2AAAAAA2AAAAAAAAA2A42AAAAAA2AAAA4222AAAAAAAA2AAAAAAAAA2
AAAAAAA2A2AAAAAA2AAAAAAAAA2A42AAAAAA2AAAA2222AAAAAAAA2AAAAAAAAA2
AAAAAAA2A2AAAAAA2AAAAAAAAA2A22AAAAAA2AAAA2222AAAAAAAA2AAAAAAAAA2
AAAAAAA2A2AAAAAA2AAAAAAAAA2A22AAAAAA2AAAA222AAAAAAAAA2AAAAAAAAA2
AAAAAAA2A2AAAAAA2AAAAAAAAA2A22AAAAAA2AAAA222AAAAAAAAAAAAAAAAAAA2
AAAAAAA2A2AAAAAA2AAAAAAAAA2A22AAAAAA2AAAA222AAAAAAAAAAAAAAAAAAI2
AAAAAAA2A2AAAAAA2AAAAAAAAA2A22AAAAAA2AAAA222AAAAIAAAAAAAAAAAAAI2
AAAAAAA2A2AAAAAA2AAAAAAAAA2A22AAAAAA2AAAA222AAAAAAAAAAAAAAAAAA42
AAAAAIA2A2AAAAAA2AAAAAAAAA2A22AAAAAA2AAAA222AAAAAAAAAAAAAAAAAA42
AAAAAIA2A2AAAAAA2AAAAAAAAA2A22AAIAAA2AAAA222AAAAAAAAAAAAAAAAAA42
AAAAAIAAA2AAAAAA2AAAAAAAAA2A22AAIAAA2AAAA222AAAAAAAAAAAAAAAAAA42
AAAAAIAAA2AAAAAA2AAAAAAAAA2A22AA4AAA2AAAA222AAAAAAAAAAAAAAAAAA42
AAAAAIAAA2AAAAAA2AAAAAAAAA2A22AA4AAI2AAAA222AAAAAAAAAAAAAAAAAA42
AAAAAIAIA2AAAAAA2AAAAAAAAA2A22AA4AAI2AAAA222AAAAAAAAAAAAAAAAAA42
AAAAA2AIA2AAAAAA2AAAAAAAAA2A22AA4AAI2AAAA222AAAAAAAAAAAAAAAAAA42
AAAAA2AIA2AAAAAA2AAAAAAAAA2A2AAA2AA22AAAA222AAAAAAAAAAAAAAAAAA42
AAAAA2A2A2AAAAAA2AAAAAAAAA2A2AAA2AA22AAAA222AAAAAAAAAAAAAAAAAA42
AAAAA2A2A2AAAAAA2AAAAAAAAA2A2AAA2AA22AAAAA22AAAAAAAAAAAAAAAAAA42
AAAAAAA2A2AAAAAA2AAAAAAAAA2A2AAA2AA22AAAAA22AAAAAAAAAAAAAAAAAA42
AIAAAAA2A2AAAAAA2AAAAAAAAA2A2AAA2AA22AAAAA22AAAAAAAAAAAAAAAAAA42
AIIAAAA2A2AAAAAA2AAAAAAAAA2A2AAA2AA22AAAAA22AAAAAAAAAAAAAAAAAA42
AIIAAAA2A2AAAAAA2AAAAAAAAA2A2IAA2AA22AAAAA22AAAAAAAAAAAAAAAAAA42
AIIAAAA2A2AAAAAA2AAAAAAAAA2A2IAA2AA22AAAAI22AAAAAAAAAAAAAAAAAA42
AIIAAAA2A2AAAAAA2AAAAAAAAA2A2IAA2AA22AAAA422AAAAAAAAAAAAAAAAAA42
AIIAAAA2A2AAAAAA2AAAAAAAAA2A2IAA2AA22AAAA222AAAAAAAAAAAAAAAAAA42
AIIAAAA2A2AAAAAA2AAAAAAAAA2A2IAA2AA22AAAA222AAIAAAAAAAAAAAAAAA42
AIIAAAA2A2AAAAAA2AAAAAAAAA2A2IAA2AA22AAAAI22AAIAAAAAAAAAAAAAAA42
AIIAAAA2A2AAAAAA2AAAAAAAAA2AA2AA2AA22AAAAI22AAIAAAAAAAAAAAAAAA42
AIIAAAA2A2AAAAAA2AAAAAAAAA2AI2AA2AA22AAAAI22AAIAAAAAAAAAAAAAAA42
AIIAAAA2A2AAAAAA2AAAAAAAAA2AIIAA2AA22AAAAI22AAIAAAAAAAAAAAAAAA42
AIIAAAA2A2AAAAAA2AAAAAAAAA2A44AA2AA22AAAAI22AAIAAAAAAAAAAAAAAA42
AIIAAAA2A2AAAAAA2AAAAAAAAA2A24AA2AA22AAAAI22AAIAAAAAAAAAAAAAAA42
AIIAAAA2A2AAAAAA2AIAAAAAAA2A24AA2AA22AAAAI22AAIAAAAAAAAAAAAAAA42
AIIAAAA2A2AAAAAA2AIAAAAAAA2A24AA2AA22AAAA222AA4AAAAAAAAAAAAAAA42
AIIAAAA2A2AAAAAA2A4AAAAAAA2A24AA2AA22AAAA222AA4AAAAAAAAAAAAAAA42
AIIAAAA2A2AAAAAA2A4AAAAIAA2A24AA2AA22AAAA222AA4AAAAAAAAAAAAAAA42
AIIAAAAAA2AAAAAA2A4AAAA4AA2A24AA2AA22AAAA222AA4AAAAAAAAAAAAAAA42
AIIAAAAAA2AAAAAA2A4AAAA4AA2AA4AA2AA22AAAA222AA4AAAAAAAAAAAAAAA42
AIIAAAAAA2AAAAAA2A4AAAA4AA2AA4AAAAA22AAAA222AA4AAAAAAAAAAAAAAA42
AIIAAAAAA2AAAAAA2A4AAAA4AA2AA4AAAAA22AAAAA22AA2AAAAAAAAAAAAAAA42
AIIAAAAAA2AAAAAA2A4AAAA4AA2AA4AAAAA22AAAAA22AA2AAAAAAAAAAAAAAA4A
AI2AAAAAA2AAAAAA2A4AAAA4AA2AA4AAAAA22AAAAA22AA2AAAAAAAAAAAAAAA4A
AI2AAAAAA2AAAAAA2A4AAAA4AA2AI4AAAAA22AAAAA22AA2AAAAAAAAAAAAAAA4A
AI2AAAAAA2AAAAAA2AAAAAA4AA2A44AAAAA22AAAAA22AA2AAAAAAAAAAAAAAA4A
AI2AAAAAA2AAAAAA2AIAAAA4AA2A44AAAAA22AAAAA22AA2AAAAAAAAAAAAAAA4A
AI2AAAAAA2AAAAAA2A4AAAA4AA2A44AAAAA22AAAAA22AA2AAAAAAAAAAAAAAA4A
AI2AAAAAA2AAAAAA2A4AAAA2AA2A24AAAAA22AAAAA22AA2AAAAAAAAAAAAAAA4A
AI2AAAAAA2AAAAAA2AAAAAA2AA2A24AAAAA22AAAAA22AA2AAAAAAAAAAAAAAA4A
AA2AAAAAA2AAAAAA2AAAAAA2AA2A24AAAAA22AAAAA22AA2AAAAAAAAAAAAAAA4A
AAAAAAAAA2AAAAAA2AAAAAA2AA2A24AAAAA22AAAAA22AA2AAAAAAAAAAAAAAA4A
AAAAAIAAA2AAAAAA2AAAAAA2AA2A24AAAAA22AAAAA22AA2AAAAAAAAAAAAAAA4A
AAAAAIAAA2AAAAAA2AIAAAA2AA2A24AAAAA22AAAAA22AA2AAAAAAAAAAAAAAA4A
AAAAAIAAA2AAAAAA2AIAAAA2AA2A24AAAAA22AAAAA22AA2AIAAAAAAAAAAAAA4A
AAAAAIAAA2AAAAAA2AIAAAA2AA2A24AAAAA22AAAAA22AA2A4AAAAAAAAAAAAA4A
AAAAAIAAA2AAAAAA2A4AAAA2AA2A24AAAAA22AAAAA22AA2A4AAAAAAAAAAAAA4A
AAAAAIAAA2AAAAAA2A4AAAA2AA2A24AAAAA22AAAAA22AA2AAAAAAAAAAAAAAA4A
AAAAAIAAA2AAAAAA2A4AAAA2AA2A24AAAAA22AAAAA22AA2AIAAAAAAAAAAAAA4A
AAAAAIAAA2AAAAAA2A4AAAA2AA2A24AAAAA22AAAAA22AA2AIAIAAAAAAAAAAA4A
AAAAAIAAA2AAAAAA2A4AAAA2AA2A24AAAAA22AAAAA22AA2AAA2AAAAAAAAAAA4A
AAAAAIAAA2AAAAAA2A4AAAA2AA2A2AAAAAA22AAAAA22AA2AAA2AAAAAAAAAAA4A
AAAAAIAAA2AAAAAA2A4AAAA2AA2A2AAAAAA22AAAAA2AAA2AAA2AAAAAAAAAAA4A
AAAAAIAAA2AAAAAA2A4AAAA2AA2A2AAAAAA22AAAAA2AAA2AAA2AAAAAAAAAAA2A
AAAAAIAAA2AAAAAA2A4AAAA2AA2A2AAAAAA22AAAAA2AAA2AAAAAAAAAAAAAAA2A
AAAAA4AAA2AAAAAA2A4AAAA2AA2A2AAAAAA22AAAAA2AAA2AAAAAAAAAAAAAAA2A
AAAAA4AAA2AAAAAA2A4AAAA2AA2AAAAAAAA22AAAAA2AAA2AAAAAAAAAAAAAAA2A
AAAAA4AAA2AAAAAA2A4AAAA2AA2AAAAAAAA22AAAAA2AAA2AAAAAAAAAAIAAAA2A
AAAAA4AAA2AAAAAA2A4AAAA2AA2AAAAAAAA22AAAAA2AAA2AAAAAAAAAA4AAAA2A
AAAAA4AAA2AAAAAA2A4AAAA2AA2AAAAAAAA22AAAAA2AAA2AAAAAAAAAAAAAAA2A
AAAAA2AAA2AAAAAA2A4AAAA2AA2AAAAAAAA22AAAAA2AAA2AAAAAAAAAAAAAAA2A
AAAAA2AAA2AAAAAA2A4AAAA2AA2AAAAAAAAA2AAAAA2AAA2AAAAAAAAAAAAAAA2A
AAAAA2AAA2AAAAAA2A4AAAA2AA2AAAAAAAAI2AAAAA2AAA2AAAAAAAAAAAAAAA2A
AAAAAAAAA2AAAAAA2A4AAAA2AA2AAAAAAAAI2AAAAA2AAA2AAAAAAAAAAAAAAA2A
AAAAAAAAA2AAAAAA2A4AAAA2AA2AAAAAAAA22AAAAA2AAA2AAAAAAAAAAAAAAA2A
AAAAAAAAA2AAAAAA2A4AAAA2AA2AAAAAAAAI2AAAAA2AAA2AAAAAAAAAAAAAAA2A
AAAAAAAAA2AAAAAA2A4AAAAAAA2AAAAAAAA42AAAAA2AAA2AAAAAAAAAAAAAAA2A
AAAAAAAAA2AAAAAA2A2AAAAAAA2AAAAAAAA42AAAAA2AAA2AAAAAAAAAAAAAAA2A
AAAAAAAAA2AAAAAA2A2AAAAAAAAAAAAAAAA42AAAAA2AAA2AAAAAAAAAAAAAAA2A
AAAAAIAAA2AAAAAA2A2AAAAAAAAAAAAAAAA42AAAAA2AAA2AAAAAAAAAAAAAAA2A
AAAAAIAAA2AAAAAA2A2AAAAAAAAAAAAAAAA42AAAAA2AAAAAAAAAAAAAAAAAAA2A
AAAAAIAAA2AAAAAA2A2AAAAAAAAAAAAAAAA42AAAAA2AAAAAAAAAAAAAAAAAIA2A
AAAAAAAAA2AAAAAA2A2AAAAAAAAAAAAAAAA42AAAAA2AAAAAAAAAAAAAAAAAIA2A
AAAAAAAAA2AAAAAA2A2AAAAIAAAAAAAAAAA42AAAAA2AAAAAAAAAAAAAAAAAIA2A
AAAAAAAAA2AAAAAA2A2AAAAIAAAAAAAAAAA22AAAAA2AAAAAAAAAAAAAAAAAIA2A
AAAAAAAAA2AAAAAA2A2AAAA4AAAAAAAAAAA22AAAAA2AAAAAAAAAAAAAAAAAIA2A
AAAAAAAAA2AAAAAA2A2AAAA4AAAAAAAAAAA22AAAAA2AAAAAAAAAAAAAAAAA4A2A
AAAAAAAAA2AAAAAI2A2AAAA4AAAAAAAAAAA22AAAAA2AAAAAAAAAAAAAAAAA4A2A
AAAAAAAAA2AAAAAI2A2AAAA4AAAAAAAAAAA22AAAAA2AAAAAIAAAAAAAAAAA4A2A
AAAAAAAAA2AAAAA42A2AAAA4AAAAAAAAAAA22AAAAA2AAAAAIAAAAAAAAAAA4A2A
AAAAAAAAA2AAAAA42A2AAAA4AAAAAAAAAAA22AAAAA2AAAAA4AAAAAAAAAAA4A2A
AAAAAAAAA2AAAAA22A2AAAA4AAAAAAAAAAA22AAAAA2AAAAA4AAAAAAAAAAA4A2A
AAAAAAAAA2AAAAA22A2AAAA4AAAAAAAAAAA22AAAAA2AAAAA2AAAAAAAAAAA4A2A
AAAAAAAAA2AAAAA22A2AAAA4AAAAAAAAAAA22AAAAA2AAAAA2AAAAAAAAAAAAA2A
AAAAAAAAA2AAAAA22A2AAAA4AAAAAAAAAAI22AAAAA2AAAAA2AAAAAAAAAAAAA2A
AAAAAAAAA2AAAAAI2A2AAAA4AAAAAAAAAAI22AAAAA2AAAAA2AAAAAAAAAAAAA2A
AAAAAAAAA2AAAAA42A2AAAA4AAAAAAAAAAI22AAAAA2AAAAA2AAAAAAAAAAAAA2A
AAAAAAAAA2AAAAA42A2AAAA4AAAAAAAAAAA22AAAAA2AAAAA2AAAAAAAAAAAAA2A
AAAAAAAAA2AAAAA22A2AAAA4AAAAAAAAAAA22AAAAA2AAAAA2AAAAAAAAAAAAA2A
AAAAAAAAA2AAAAA22A2AAAA2AAAAAAAAAAA22AAAAA2AAAAA2AAAAAAAAAAAAA2A
AAAAAAAAA2AAAAA22A2AAAA2AAAAAAAAAAAA2AAAAA2AAAAA2AAAAAAAAAAAAA2A
AAAAAAAAA2AAAAA22A2AAAAIAAAAAAAAAAAA2AAAAA2AAAAA2AAAAAAAAAAAAA2A
AAAAAAAAA2AAAAA22A2AAAAIAAAAAAAAAAAA2AAAAA2AAAAAAAAAAAAAAAAAAA2A
AAAAAAAAA2AAAAA22A2AAAAIAAAAAAAAAAAA2AAAAA2AAAAAAAAAAAAAAAAAAAAA
AAAAAAAAA2AAAAA22A2AAAAIAAAAAAAAAAAA2AAAAA2AAAAAAAAAAAAAAAAAAAIA
AAAAAAAAA2AAAAA22A2AAAAIAAAAAAAAAAAA2AAAAA2AAAAAAAAAAAAAAAAAAA4A
AAAAAAAAA2AAAAA22A2AAAA4AAAAAAAAAAAA2AAAAA2AAAAAAAAAAAAAAAAAAA4A
AAAAAAAAA2AAAAA22AAAAAA2AAAAAAAAAAAA2AAAAA2AAAAAAAAAAAAAAAAAAA4A
AAAAAAAAA2AAAAA22AAAAAA2AAAAAAAAAAAA2AAAAI2AAAAAAAAAAAAAAAAAAA4A
AAAAAAAAA2AIAAA22AAAAAA2AAAAAAAAAAAA2AAAAI2AAAAAAAAAAAAAAAAAAA4A
AAAAAAAAA2AIAAA22AAAAAAIAAAAAAAAAAAA2AAAAI2AAAAAAAAAAAAAAAAAAA4A
AAAAAAAAA2A4AAA22AAAAAAIAAAAAAAAAAAA2AAAAI2AAAAAAAAAAAAAAAAAAA4A
AAAAAAAAA2AAAAA22AAAAAA4AAAAAAAAAAAA2AAAAI2AAAAAAAAAAAAAAAAAAA4A
AAAAAAAAA2AAAAAA2AAAAAA4AAAAAAAAAAAA2AAAAI2AAAAAAAAAAAAAAAAAAA4A
AAAAAAAAA2AAAAAA2AAAAAAAAAAAAAAAAAAA2AAAAI2AAAAAAAAAAAAAAAAAAA4A
AAAAAAAAA2AAAAAA2AAAAAAAAAAAAAAAAAAA2AAAA42AAAAAAAAAAAAAAAAAAA4A
AAAAAAAAA2AAAAAA2AAAAAAAAAAAAAAAAAAA2AAAAA2AAAAAAAAAAAAAAAAAAA4A
AAAAAAAAA2AAAAAA2AAAAAAAAAAAAAAAAAAA2AAAAA2AAAAAAAAAAAAAAAAAAA2A
AAAAAAAAA2AAAAAI2AAAAAAAAAAAAAAAAAAA2AAAAA2AAAAAAAAAAAAAAAAAAA2A
AAAAAAAAA2AAAAAI2AAAAAAAAAAAAAAAAAAA2AAAAA2AAAAIAAAAAAAAAAAAAA2A
AAAAAAAAA2AAAAAI2AAAAAAAAAAAAAAAAAAA2AAAAA2AAAAIAAAIAAAAAAAAAA2A
AAAAAAAAA2AAAAAI2AAAAAAAAAAAAAAAAAAA2AAAAA2AAAAIAAAIAAAAAAAAAA2I
AAAAAAAAA2AAAAAI2AAAAAAAAAAAAAAAAAAA2AAAAA2AAAAIAAAIAAAAAIAAAA2I
AAAAAAAAA2AAAAA42AAAAAAAAAAAAAAAAAAA2AAAAA2AAAAIAAAIAAAAAIAAAA2I
AAAAAAAAA2AAAAA42AAAAAAAAAAAAAAAAAAA2AAAAA2AAAA2AAAIAAAAA4AAAA2I
AAAAAAAAA2AAAAA42AAAAAAAAAAAAAAAAAAA2AAAAA2AAAAAAAA2AAAAA4AAAA24
AAAAAAAAA2AAAAA42AAAAAAAAAAAAAAAAAAA2AAAAA2AAAAAAAA2IAAAA4AAAA24
AAAAAAAAA2AAAAA42AAAAAAAAAAAAIAAAAAA2AAAAA2AAAAAAAA2IAAAA4AAAA24
AAAAAAAAA2AAAAA42AAAAAAAAAAAAIAAAAAA2AAAAA2AAAAAAAA2IAAAA4AAIA24
AAAAAAAAA2AAAAA42AAAAAAAAAAAAIAAAAAA2AAAAA2AAAAAAAA24AAAA4AAIA24
AAAAAAAAA2AAAAA42AAAAAAAAIAAAIAAAAAA2AAAAA2AAAAAAAA24AAAA4AAIA24
AAAAAAAAA2AAAAA42AAAAAAAAIAAAIAAAAAA2AAAAA2AAAAAAAA24AAAA4AA4A24
AAAAAAAAA2AAAAA42AAAAAAAAIAAAIAAAAAA2AAAAA2AAAAAIAA24AAAA4AA4A24
AAAAAAAAA2AAAAA42AAAAAAAAIAAA2AAAAAA2AAAAA2AAAAAIAA24AAAA4AA4A24
AAAAAAAAA2AAAAA42AAAAAAAAIAAA2AAAAAA2AAAAA2AAAAAAAA24AAAA4AA4A24
AAAAAAAAA2AAAAA42AAAAAAAAIAAA2AAAAAA2AAAAA2AAAAAAAA22AAAA4AA4A24
AAAAAAAAA2AAAAA42AAAAAAAAIAAA2AAAAAA2AAAAA2AAAAAAAA2AAAAA2AA4A24
AAAAAAAAA2AAAAA42AAAAAAAAIAAA2AAAAAA2AAAAA2AAAAAIAA2AAAAA2AA4A24
AAAAAIAAA2AAAAA42AAAAAAAAIAAA2AAAAAA2AAAAA2AAAAAIAA2AAAAA2AA4A24
AAAAAIAAA2AAAAA42AAAAAAAAIAAA2AAAAAA2AAAAA2AAAAAAAA2AAAAA2AA4A24
AAAAAIAAA2AAAAA42AAAAAAAAIAAA2AAAAAA2AAAAA2AAAAAAAA2AAAAA2AAAA22
AAAAAIAAA2AAAAA42AAAAAAAAIAAA2AAAAAA2AAAAA2AAAAAIAA2AAAAA2AAAA22
AAAAAAAAA2AAAAA42AAAAAAAAIAAA2AAAAAA2AAAAA2AAAAAIAA2AAAAA2AAAA22
AAAAAAAAA2AAAAA42AAAAAAAAIAAA2AAAAAA2AAAAA2AAAAAAAA2AAAAA2AAAA22
AAAAAAAAA2AAAAA22AAAAAAAA4AAA2AAAAAA2AAAAA2AAAAAAAA2AAAAA2AAAA22
AAAAAAAAA2AAAAA22AAAAAAIA4AAA2AAAAAA2AAAAA2AAAAAAAA2AAAAA2AAAA22
AAAAAAAAA2AAAAA22AAAAAA4A4AAA2AAAAAA2AAAAA2AAAAAAAA2AAAAA2AAAA22
AAAAAAAAA2AAAAA22AAAAAA2A4AAA2AAAAAA2AAAAA2AAAAAAAA2AAAAA2AAAA22
AAAAAAAAA2AAAAA22AAAAAA2A4AAAAAAAAAA2AAAAA2AAAAAAAA2AAAAA2AAAA22
AAAAAAAAA2AAAAA22AAAAAAAA4AAAAAAAAAA2AAAAA2AAAAAAAA2AAAAA2AAAA22
AAAAAAIAA2AAAAA22AAAAAAAA4AAAAAAAAAA2AAAAA2AAAAAAAA2AAAAA2AAAA22
AAAAAA2AA2AAAAA22AAAAAAAA4AAAAAAAAAA2AAAAA2AAAAAAAA2AAAAA2AAAA22
AAAAAA2AA2AAAAA22AAAAAAAA4AAAAAAAAAA2AAAAA2AAAAAAAAAAAAAA2AAAA22
AAAAAA2AA2AAAAA22AAAAAAAA4AAAAAAAAAA2AAAAA2AAAAAAAAAAAAAAAAAAA22
AAAAAA2AA2AAAAA22AAAAAAAA4AAAAAAAAAA2AAAAA2AAAAAIAAAAAAAAAAAAA22
AAAAAA2AA2AAAAA22AAAAAAAA4AAAAAAAAAA2AAAAA2AAAAAIAAAAAAAAAAAIA22
AAAAAA2AA2AAAAA22AAAAAAAA2AAAAAAAAAA2AAAAA2AAAAAIAAAAAAAAAAAIA22
AAAAAA2AA2AAAAA22AAAAAAAAAAAAAAAAAAA2AAAAA2AAAAAIAAAAAAAAAAAIA22
AAAAAA2AA2AAAAA22AAAAAAAAAAAAAAAAAAA2AAAAA2AAAAA4AAAAAAAAAAAIA22
AAAAAA2AA2AAAAA22AAAAAAAAAAAAAAAAAAA2AAAAA2AAAAA2AAAAAAAAAAAIA22
AAAAAA2AA2AAAAA22AAAAAAAAAAAAAAAAAAA2AAAAA2AAAAA2AAAAAAAAAAAAA22
AAAAAA2AA2AAAAA22AAAAAAAAAAAIAAAAAAA2AAAAA2AAAAA2AAAAAAAAAAAAA22
AAAAAA2AA2AAAAA22AAAAAAAAAAAIAAAAAAA2AAAAA2AAAAAAAAAAAAAAAAAAA22
AAAAAA2AA2AAAAA22AAAAAAAAAAA4AAAAAAA2AAAAA2AAAAAAAAAAAAAAAAAAA22
AAAAAA2AA2AAAAA22AAAAAAAAAAA2AAAAAAA2AAAAA2AAAAAAAAAAAAAAAAAAA22
AAAAAA2AA2AAAAA22AAAAAAAAAAA2AAAAAAA2AAIAA2AAAAAAAAAAAAAAAAAAA22
AAAAAA2AA2AAAAA22AAAAAAAAAAAIAAAAAAA2AAIAA2AAAAAAAAAAAAAAAAAAA22
AAAAAA2AA2AAAAA22AAAAAAAAAAAIAAAAAAA2AAIAA2AAAAAAAIAAAAAAAAAAA22
AAAAAI2AA2AAAAA22AAAAAAAAAAAIAAAAAAA2AAIAA2AAAAAAAIAAAAAAAAAAA22
AAAAAA2AA2AAAAA22AAAAAAAAAAAIAAAAAAA2AAIAA2AAAAAAAIAAAAAAAAAAA22
AAAAAA2AA2AAAAA22AAAAAAAAAAAIAAAAAAA2AAIAA2AAAAAAA4AAAAAAAAAAA22
AAAAAA2AA2AAAAA22AAAAAAAAAAAIAAAAAAA2AAIAA2AAAAAIA4AAAAAAAAAAA22
AAAAAA2AA2AAAAA22AAAAAAAAAAAIAAAAAAA2AA4AA2AAAAAIA4AAAAAAAAAAA22
AAAAAA2AA2AAAAA22AAAAAAAAAAAIAAAAAAA2AA4AA2AAAAA4A4AAAAAAAAAAA22
AAAAAA2AA2AAAAA22AAAAAAAAAAAIAAAAAAA2AA4AA2AAAAA4A2AAAAAAAAAAA22
AAAAAA2AA2AAAAA22AAAAAAAAAAAIAAAAAAA2AA4AA2AAAAAAA2AAAAAAAAAAA22
AAAAAA2AA2AAAAA22AAAAAAAAAAAAAAAAAAA2AA4AA2AAAAAAA2AAAAAAAAAAA22
AAAAAI2AA2AAAAA22AAAAAAAAAAAAAAAAAAA2AA4AA2AAAAAAA2AAAAAAAAAAA22
AAAAAA2AA2AAAAA22AAAAAAAAAAAAAAAAAAA2AA4AA2AAAAAAA2AAAAAAAAAAA22
AAAAAA2AA2AAAAA22AAAAAAAAAAAAAAAAAAA2AA4AA2AAAAAIA2AAAAAAAAAAA22
AAAAAA2AA2AAAAA22AAAAAAAAAAAAAAAAAAA2AA4AA2AAAAA4A2AAAAAAAAAAA22
AAAAAA2AA2AAAAA22AAAAAAAAAAAAAAAAAAA2AA4AA2AAAAA2A2AAAAAAAAAAA22
AAAAAA2AA2AAAAA22AAAAAAAAAAAAAAAAAAA2AA4AA2AAAAAAA2AAAAAAAAAAA22
AAAAAA2AA2AAAAA22AAAAAAAAAAAAAAAAAAA2AA2AA2AAAAAAA2AAAAAAAAAAA22
AAAAAA2AA2AAAAA22AAAAAAAAAAAAAAAAAAA2AA2AA2AAAAAAA2AIAAAAAAAAA22
AAAAAA2AA2AAAAA22AAIAAAAAAAAAAAAAAAA2AA2AA2AAAAAAA2AIAAAAAAAAA22
AAAAAA2AA2AAAAA22AAIAAAAAAAAAAAAAIAA2AA2AA2AAAAAAA2AIAAAAAAAAA22
AAAAAA2AA2AAAAA22AAIAAAAAAAAAAAAAIAA2AA2AA2AAAAAAA2AIAAAAAAAIA22
AAAAAA2AA2AAAAA22AA4AAAAAAAAAAAAAIAA2AA2AA2AAAAAAA2AIAAAAAAAIA22
AAAAAA2AA2AAAAA22AA4AAAAAAAAAAAAA4AA2AA2AA2AAAAAAA2AIAAAAAAAIA22
AAAAAA2AA2AAAAA22AA4AAAAAAAAAAAAAAAA2AA2AA2AAAAAAA2AIAAAAAAAIA22
AAAAAA2AA2AAAAA22AA4AAAAAAAAAAAAAAAA2AA2AA2AAAAAAA2A4AAAAAAA4A22
AAAAAA2AA2AAAAA22AA4AAAAAAAAAAAAAAAA2AA2AA2AAAAAAA2AAAAAAAAA4A22
AAAAAA2AA2AAAAAA2AA2AAAAAAAAAAAAAAAA2AA2AA2AAAAAAA2AAAAAAAAA4A22
AAAAAA2AA2AAAAAI2AA2AAAAAAAAAAAAAAAA2AA2AA2AAAAAAA2AAAAAAAAA4A22
AAAAAA2AA2AAAAAI2AA2AAAAAAAAAAAAAAAA2AA2AI2AAAAAAA2AAAAAAAAA4A22
AAAAAA2AA2AAAAAI2AA2AAAAAAAAAAAAAAAA2AA2AI2AAIAAAA2AAAAAAAAA4A22
AAAAAA2AA2AAAAAI2AA2AAAAAAAAAAAAAAAA2AA2AI2AAIAAIA2AAAAAAAAA4A22
AAAAAA2AA2AAAAAI2AA2AAAAAAAAAAAAAAAA2AA2AI2AAIAAIA2AIAAAAAAA4A22
AAAAAA2AA2AAAAAI2AAIAAAAAAAAAAAAAAAA2AA2AI2AAIAAIA2AIAAAAAAA4A22
AAAAAA2AA2AAAAAI2AAIAAAAAAAAAAAAAAAA2AA2AI2AAAAA2A2AIAAAAAAA4A22
AAAAAA2AA2AAAAAI2AAIAAAAAAAAAAAAAAAA2AA2AI2AAAAA2A2AIAAAAAAA2A22
AAAAAA2AA2AAAAAI2AAIAAAAAAAAAAAAAAAA2AA2AI2AAAAAAA2A2AAAAAAA2A22
AAAAAA2AA2AAAAAI2AAIAAAAAAAAAAAAAAAA2AA2AI2AAAAAAA2A2AAAAAAA2A2A
AAAAAA2AA2AAAAAI2AAIAAAAAAAAAAAAAAAA2AA2AI2AAAAAAA2A2AAAIAAA2A2A
AAAAAA2AA2AAAAA42AAIAAAAAAAAAAAAAAAA2AA2AI2AAAAAAA2A2AAAIAAA2A2A
AAAAAA2AA2AAAAA42AA4AAAAAAAAAAAAAAAA2AA2AI2AAAAAAA2A2AAAIAAA2A2A
AAAAAA2AA2AAAAA42AA2AAAAAAAAAAAAAAAA2AA2AI2AAAAAAA2A2AAAIAAA2A2A
AAAAAA2AA2AAAAA42AA2AAAAAAAAAAAAAAAA2AA2AI2AAAAAAA2A2AAA2AAA2A2A
AAAAAA2AA2AAAAA42AA2AAAAAAAAAAAAAAAA2AA2AI2AAAAAAA2A2AAA2AAAAA2A
AAAAAA2AA2AAAAA42AA2AAAAAAAAAAAAAAAA2AA2AI2AAAAAAA2A2AAA2AAAIA2A
AAAAAA2AA2AAAAA42AA2AAAAAAAAAAAAAAAA2AA2AI2AAAAAAA2A2AAA2AAA4A2A
AAAAAA2AA2AAAAA42AA2AAAAAAAAAAAAIAAA2AA2AI2AAAAAAA2A2AAA2AAA4A2A
AAAAAA2AA2AAAAA42AA2AAAAAAAAAAAA4AAA2AA2A42AAAAAAA2A2AAA2AAA4A2A
AAAAIA2AA2AAAAA42AA2AAAAAAAAAAAA4AAA2AA2A42AAAAAAA2A2AAA2AAA4A2A
AAAAIA2AA2AAAAAA2AA2AAAAAAAAAAAA4AAA2AA2A42AAAAAAA2A2AAA2AAA4A2A
AAAAIA2AA2AAAAAA2AA2AAAAAAAAAAAAAAAA2AA2A42AAAAAAA2A2AAA2AAA4A2A
AAAAIA2AA2AAAAAA2AA2AAAAAAAAAAAAAAAA2AA2AA2AAAAAAA2A2AAA2AAA4A2A
AAAAIA2AA2AAAAAA2AA2AAAAAAAAAAAAAAAA2AA2AA2AAAAAAA2AAAAA2AAA4A2A
AAAAIA2AA2AAAAAA2AA2AAAAAIAAAAAAAAAA2AA2AA2AAAAAAA2AAAAA2AAA4A2A
AAAAIA2AA2AAAAAI2AA2AAAAAIAAAAAAAAAA2AA2AA2AAAAAAA2AAAAA2AAA4A2A
AAAAIA2AA2AAAAAI2AA2AAAAAIAAAAAAAAAA2AA2AI2AAAAAAA2AAAAA2AAA4A2A
AAAAIA2AA2AAAAAI2AA2AAAAAIAAAAAAAAAA2AA2AI2AAAAAAA2AAAAA2AAA2A2A
AAAAIA2AA2AAAAAI2AA2AAAAA2AAAAAAAAAA2AA2AI2AAAAAAA2AAAAA2AAA2A2A
AAAAIA2AA2AAAAAI2AA2AAAAA2AAAAAAAAAA2AA2AI2AAAAAAA2AAIAA2AAA2A2A
AAAAIA2AA2AAAAAI2AA2AAAAA2AAAAAAAAAA2AA2A42AAAAAAA2AAIAA2AAA2A2A
AAAAIA2AA2AAAAAI2AA2AAAAAIAAAAAAAAAA2AA2A42AAAAAAA2AAIAA2AAA2A2A
AAAAII2AA2AAAAAI2AA2AAAAAIAAAAAAAAAA2AA2A42AAAAAAA2AAIAA2AAA2A2A
AAAAII2AA2AIAAAI2AA2AAAAAIAAAAAAAAAA2AA2A42AAAAAAA2AAIAA2AAA2A2A
AAAAII2AA2AIAAAI2AA2AAAAAIAAIAAAAAAA2AA2A42AAAAAAA2AAIAA2AAA2A2A
AAAAIA2AA2A2AAAI2AA2AAAAAIAAIAAAAAAA2AA2A42AAAAAAA2AAIAA2AAA2A2A
AAAAIA2AA2AAAAAI2AA2AAAAA4AAIAAAAAAA2AA2A42AAAAAAA2AAIAA2AAA2A2A
AAAAIA2AA2AAAAAI2AA2AAAAA2AAIAAAAAAA2AA2A42AAAAAAA2AAIAA2AAA2A2A
AAAAIA2AA2AAAAAI2AA2AAAAA2AA2AAAAAAA2AA2A42AAAAAAA2AAIAA2AAA2A2A
AAAAIA2AA2AAAAAI2AA2AAAAA2AA2AAAAAAA2AA2A22AAAAAAA2AAIAA2AAA2A2A
AAAAIA2AA2AAAAAI2AA2AAAAA2AA2AAAAAAA2AA2A22AAAAAAA2AA4AA2AAA2A2A
AAAAIA2AA2AAAAAI2AA2AAAAA2AA2AAAAAAA2AA2A22AAAAAAA2AA2AA2AAA2A2A
AAAAIA2AA2AIAAAI2AA2AAAAA2AA2AAAAAAA2AA2A22AAAAAAA2AA2AA2AAA2A2A
AAAAIA2AA2AIAAAI2IA2AAAAA2AA2AAAAAAA2AA2A22AAAAAAA2AA2AA2AAA2A2A
AAAAIA2AA2AIAAAI2IA2AAAAA2AA2AAAAAAA2AA2A22AAAIAAA2AA2AA2AAA2A2A
AAAAII2AA2AIAAAI2IA2AAAAA2AA2AAAAAAA2AA2A22AAAIAAA2AA2AA2AAA2A2A
AAAA4A2AA2AIAAAI2IA2AAAAA2AA2AAAAAAA2AA2A22AAAIAAA2AA2AA2AAA2A2A
AAAA4A2AA2AIAAAI2IA2AAAAA2AA2AAAAAAA2AA2A22AAAIAAAAAA2AA2AAA2A2A
AAAA4A2AA2AIAAA424A2AAAAA2AA2AAAAAAA2AA2A22AAAIAAAAAA2AA2AAA2A2A
AAAA4A2AA2AIAAA424A2AAAAA2AA2AAAAAAA2AA2A22AAA2AAAAAA2AA2AAA2A2A
AAAA4I2AA2AIAAA424A2AAAAA2AA2AAAAAAA2AA2A22AAA2AAAAAA2AA2AAA2A2A
AAAA4I2AA2AIAAA424A2AAAAA2AA2AAAAAAA2IA2A22AAA2AAAAAA2AA2AAA2A2A
AAAA4A2AA2A2AAA424A2AAAAA2AA2AAAAAAA2IA2A22AAA2AAAAAA2AA2AAA2A2A
AAAA4A2AA2AAAAA224A2AAAAA2AA2AAAAAAA2IA2A22AAA2AAAAAA2AA2AAA2A2A
AAAA4A2AA2AAAAA224A2AAAAA2AA2AAAAAAA2IA2A22AAA2AAAAAA2AA2AAAAA2A
AAAA4A2AA2AAAAA222A2AAAAA2AA2AAAAAAA2IA2A22AAA2AAAAAA2AA2AAAAA2A
AAAA4A2AA2AAAAA222A2AAAAA2AA2AAAAAAA2IA2A22AAA2AAAAAA2AA2AAAIA2A
AAAA4A2AA2AAAAA222A2AAAAAAAA2AAAAAAA24A2A22AAA2AAAAAA2AA2AAAIA2A
AAAA4A2AA2AAAAA222A2AAAAAAAA2AAAAAAA24A2AA2AAA2AAAAAA2AA2AAAIA2A
AAAA4A2AA2AAAAA222A2AAAAAAAA2AAAAAAA24A2AA2AAA2AAAAAAAAA2AAA4A2A
AAAA4A2AA2AAAAA222AAAAAAAAAA2AAAAAAA24A2AA2AAA2AAAAAAAAA2AAA4A2A
AAAA4A2AA2AAAAA222AAAAAAAAAA2AAAAAAA22A2AA2AAA2AAAAAAAAA2AAA4A2A
AAAA4A2AA2AAAAA222AIAAAAAAAA2AAAAAAA22A2AA2AAA2AAAAAAAAA2AAA4A2A
AAAA4A2AA2AAAAA222A4AAAAAAAA2AAAAAAA22A2AA2AAA2AAAAAAAAA2AAA4A2A
AAAA2A2AA2AAAAA222A4AAAAAAAA2AAAAAAA22A2AA2AAA2AAAAAAAAA2AAA4A2A
AAAA2A2AA2AIAAA222A4AAAAAAAA2AAAAAAA22A2AA2AAA2AAAAAAAAA2AAA4A2A
AAAA2A2AA2A4AAA222A4AAAAAAAA2AAAAAAA22A2AA2AAA2AAAAAAAAA2AAA4A2A
AAAA2A2AA2A4AAA222A4AAAAAAAA2AAAAAAA22A2AA2AAA2AAAAAAAAAAAAA2A2A
AAAA2A2AA2A4AAA2A2A4AAAAAAAA2AAAAAAA22A2AA2AAA2AAAAAAAAAAAAA2A2A
AAAA2A2AA2A2AAA2A2A4AAAAAAAA2AAAAAAA22A2AA2AAA2AAAAAAAAAAAAA2A2A
AAAA2A2AA2A2AAA2A2A4AAAAAAAAAAAAAAAA22A2AA2AAA2AAAAAAAAAAAAA2A2A
AAAA2A2AA2A2AAA2A2A4AAAAAAAAAAAAAAAA2AA2AA2AAA2AAAAAAAAAAAAA2A2A
AAAA2A2AA2A2AAA2A2A4AAAAAAAAAAAAAAAA2IA2AA2AAA2AAAAAAAAAAAAA2A2A
AAAA2A2AA2AAAAA2A2A4AAAAAAAAAAAAAAAA2IA2AA2AAA2AAAAAAAAAAAAA2A2A
AAAA2A2AA2AAAAA2A2A4AAAAAAAAAAAAAAAA2AA2AA2AAA2AAAAAAAAAAAAA2A2A
AAAA2A2AA2AIAAA2A2A4AAAAAAAAAAAAAAAA2AA2AA2AAA2AAAAAAAAAAAAA2A2A
AAAA2A2AA2A4AAA2A2A4AAAAAAAAAAAAAAAA2AA2AA2AAA2AAAAAAAAAAAAA2A2A
AAAA2A2AA2AAAAA2A2A2AAAAAAAAAAAAAAAA2AA2AA2AAA2AAAAAAAAAAAAA2A2A
AAIA2A2AA2AAAAA2A2A2AAAAAAAAAAAAAAAA2AA2AA2AAA2AAAAAAAAAAAAA2A2A
AAIA2A2AA2AAAIA2A2A2AAAAAAAAAAAAAAAA2AA2AA2AAA2AAAAAAAAAAAAA2A2A
AAIA2A2AA2AAAIA2A2AIAAAAAAAAAAAAAAAA2AA2AA2AAA2AAAAAAAAAAAAA2A2A
AAIA2A2AA2AAAIA2A2AIAAAAAAAAAAAAAAAA2IA2AA2AAA2AAAAAAAAAAAAA2A2A
AAIA2A2AA2AAAIA2A2AIAAAAAAAAAAAAAAAA2IA2AA2AAI2AAAAAAAAAAAAA2A2A
AAIA2A2AA2AAAIA2A2AIAAAAAAAAAAAAAAAA2IA2AA2AAI2AIAAAAAAAAAAA2A2A
AAIA2A2AA2AAAIA2A2AIAAAAAAAAAAAAAAAA2AA2AA2AA42A4AAAAAAAAAAA2A2A
AAIA2A2AA2AAAIA2A2AIAAAAAAAAAAAAAAAA2AA2AA2AA22A4AAAAAAAAAAA2A2A
AA4AAA2AA2AAAIA2A2AIAAAAAAAAAAAAAAAA2AA2AA2AA22A4AAAAAAAAAAA2A2A
AA4AAAAAA2AAAIA2A2AIAAAAAAAAAAAAAAAA2AA2AA2AA22A4AAAAAAAAAAA2A2A
AA4AAAAAA2AAAAA2A2AIAAAAAAAAAAAAAAAA2AA2AA2AA22A4AAAAAAAAAAA2A2A
AA4AAAAAA2AAAAAAA2AIAAAAAAAAAAAAAAAA2AA2AA2AA22A4AAAAAAAAAAA2A2A
AA4AAAAAA2AAAAAAAAAIAAAAAAAAAAAAAAAA2AA2AA2AA22A4AAAAAAAAAAA2A2A
AA4AAAAAA2AAAAAAAAA4AAAAAAAAAAAAAAAA2AA2AA2AA22A4AAAAAAAAAAA2A2A
AA4AAAAAA2AAAAAAAAA4AAAAAAAAAAAAAAAA2AA2AA2AA22AAAAAAAAAAAAA2A2A
AA4AAAAAA2AAAAAAAAA4AAAAAAAAAAAAAAAA2AA2AA2AA22AAAAAAAAAAAAAAA2A
AA4AAAAAA2AAAAAAAAA4AAAAAAAAAAAAAAAA2IA2AA2AA22AAAAAAAAAAAAAAA2A
AA2AAAAAA2AAAAAAAAA4AAAAAAAAAAAAAAAA2IA2AA2AA22AAAAAAAAAAAAAAA2A
AAAAAAAAA2AAAAAAAAA4AAAAAAAAAAAAAAAA2IA2AA2AA22AAAAAAAAAAAAAAA2A
AAAAAAAAA2AAAAAAAAAAAAAAAAAAAAAAAAAA2IA2AA2AA22AAAAAAAAAAAAAAA2A
AAAAAAAAA2AAAAAAAAAAAAAAAAAAAAAAAAAA24A2AA2AA22AAAAAAAAAAAAAAA2A
AAAAAAAAA2AAAAAAAAAAAAAAAAAAAAAAAAAA22A2AA2AA22AAAAAAAAAAAAAAA2A
AAAAAAAAA2AAAAAAAAAAAAAAAAAAAAAAAAAA22AAAA2AA22AAAAAAAAAAAAAAA2A
AAAAAAAAA2AAAAAIAAAAAAAAAAAAAAAAAAAA22AAAA2AA22AAAAAAAAAAAAAAA2A
AAAAAAAAA2AAAAAIAAIAAAAAAAAAAAAAAAAA22AAAA2AA22AAAAAAAAAAAAAAA2A
AAAAAAAAA2AAAAAIAAIAAAAAAAAAAAAAAAAI22AAAA2AA22AAAAAAAAAAAAAAA2A
AAAAAAAAA2AAAAAIAAIAAAAAAAAAAAAAAAAI22AAAA2AA22AIAAAAAAAAAAAAA2A
AAAAAAAAA2AAAAAIAAIAAAAAAAAAAAAAAAAI22AAAA2AA22AAAAAAAAAAAAAAA2A
AAAAAAAAA2AAAAAIAAIAAAAAAAAAAAAAAAA422AAAA2AA22AAAAAAAAAAAAAAA2A
AAAAAAAAA2AAAAAIAAIAAAAAAAAAAIAAAAA422AAAA2AA22AAAAAAAAAAAAAAA2A
AAAAAAAAA2AAAAA2AA2AAAAAAAAAAIAAAAA422AAAA2AA22AAAAAAAAAAAAAAA2A
AAAAAAAAA2AAAAA2AA2AAAAAAAAAAIAAAAAA22AAAA2AA22AAAAAAAAAAAAAAA2A
AAAAAAAAA2AAAAAIAA2AAAAAAAAAAIAAAAAA22AAAA2AA22AAAAAAAAAAAAAAA2A
AAAAAAAAA2AAAAAIAA2AAAAAAAAAAIAAAAAA22AAAA2AA22AAAAAAAAAAAAIAA2A
AAAAAAAAA2AAAAAIAA2AAAAAAAAAAIAAAAAA22AAAA2AA22AAAAAAAAAAAAIIA2A
AAAAAAAAA2AAAAAIAA2AAAAAAAAAAAAAAAAA22AAAA2AA22AAAAAAAAAAAAIIA2A
AAAAAAAAA2AAAAAIAA2AAAAAAAAAAAAAAAAA22AAAA2AA22AAAAAAAAAAAA4IA2A
AAAAAAAAA2AAAAAIAA2AAAAAAAAAAAAAAAAA22AAAA2AA22AAAAAAAAAAAA44A2A
AAAAAAAAA2AAAAAIAA2IAAAAAAAAAAAAAAAA22AAAA2AA22AAAAAAAAAAAA44A2A
AAAAAAAAA2AAAAAIAA2IAAAAAAAAAAAAAAAA22AAAI2AA22AAAAAAAAAAAA44A2A
AAAAAAAAA2AAAAAIAA2IAAAAAAAAAAAAAAAA22AAAI2AA22IAAAAAAAAAAA44A2A
AAAAAAAAA2AAAAAIAA2IAAAAAAAAAAAAAAAA22AAAI2AA22IIAAAAAAAAAA44A2A
AAAAAAAAA2AAAAAIAA24AAAAAAAAAAAAAAAA22AAAI2AA22IIAAAAAAAAAA44A2A
AAAAAAAAA2AAAAAIAA24AAAAAAAAAAAAAAAA22AAA42AA22IIAAAAAAAAAA44A2A
AAAAAAAAA2AAAAAIAA24AAAIAAAAAAAAAAAA22AAA42AA22IIAAAAAAAAAA44A2A
AAAAAAAAA2AAAAA4AA24AAAIAAAAAAAAAAAA22AAA42AA22IIAAAAAAAAAA44A2A
AAAAAAAAA2AAAAA4AA24AAAIAAAAAAAAAAAA2AAAA22AA2244AAAAAAAAAA44A2A
AAAAAAAAA2AAAAA4AA24AAAIAAAAAAAAAAAA2AAAA22AA2244AAAAAAAAAA22A2A
AAAAAAAAA2AAAAA4AA24AAAIAAAAAAAAAAAA2AAAA22AA224AAAAAAAAAAA22A2A
AIAAAAAAA2AAAAA4AA24AAAIAAAAAAAAAAAA2AAAA22AA224AAAAAAAAAAA22A2A
AIAAAAAAA2AAAAA4AA24AAAIAAAAAAAAAAAA2AAAA22AA224AAAAAAAAAIA22A2A
AIAAAAAAA2AAAAA4AA24AAAIAAAAAAAAAAAA2AAAA22AA224AAAAAAAAA2A22A2A
AIAAAAAAA2AAAAA4AA24AAAIAAAAAAAAAAAA2AAAA22AA224AAAAAAAAA2AI2A2A
AIAAAAAAA2AAAAA4AA24AAAIAAAAAAAAAAAA2AAAA22AA224AAAAAAAAA2A42A2A
AIAAAAAAA2AAAAA4AA24AAAIAAAAAAAAAAAA2AAAA22AA224AAAAAAAAI2A42A2A
AIAAAAAAA2AAAAA2AA22AAA4AAAAAAAAAAAA2AAAA22AA224AAAAAAAAI2A42A2A
AIAAAAAAA2AAAAA2AA22AAA4AAAAAAAAAAAA2AAAA22AA224AAAAAAAA42A42A2A
AIAAAAAAA2AAAAA2AA22AAAAAAAAAAAAAAAA2AAAA22AA224AAAAAAAA42A42A2A
AIAAAAAAA2AIAAA2AA22AAAAAAAAAAAAAAAA2AAAA22AA224AAAAAAAA42A42A2A
AIAAAAAAA2AIAAA2AA22AAAAAAAAAAAAAAAA2AAAA22AA224IAAAAAAA42A42A2A
AIAAAAAAA2AIAAAIAA22AAAAAAAAAAAAAAAA2AAAA22AA224IAAAAAAA42A42A2A
AIAAAAAAA2AIAAAIAA22AAAAAAAAAAAAAAAA2AIAA22AA224IAAAAAAA42A42A2A
AIAAAAAAA2AIAAAIAA22AAAAAAAAAAAAAAAA2A4AA22AA224IAAAAAAA42A42A2A
AIAAAAAAA2AIAAAIAA22AAAAAAAAAAAAAAAA2A2AA22AA2244AAAAAAA42A42A2A
AIAAAAAAA2AIAAAIAA22AAAAAAAAAAAAAAAA2A2AA22AA2244AAAAAAA22A42A2A
A4AAAAAAA2AAAAAIAA22AAAAAAAAAAAAAAAA2A2AA22AA2244AAAAAAA22A42A2A
A4AAAAAAA2AAAAAIAA22AAAAAAAAAAAAAAAA2AAAA22AA2244AAAAAAA22A42A2A
A4AAAAAAA2AAAAAIAA22AAAAAAAAAAAAAAAA2AAAAA2AA2244AAAAAAA22A42A2A
A4AAAAAAA2AAAAAIAA22AAAAAAAAAAAAAAAA2AAAAA2AA224AAAAAAAA22A42A2A
A2AAAAAAA2AAAAA4AA22AAAAAAAAAAAAAAAA2AAAAA2AA224AAAAAAAA22A42A2A
A2AAAAAAA2AAAAA4AA22AAAIAAAAAAAAAAAA2AAAAA2AA224AAAAAAAA22A42A2A
A2AAAAAAA2AAAAA2AA22AAAIAAAAAAAAAAAA2AAAAA2AA224AAAAAAAA22A42A2A
A2AAAAAAA2AAAAAAAA22AAA4AAAAAAAAAAAA2AAAAA2AA224AAAAAAAA22A42A2A
A2AAAIAAA2AAAAAAAA22AAA4AAAAAAAAAAAA2AAAAA2AA224AAAAAAAA22A42A2A
A2AAAAAAA2AAAAAAAA22AAA4AAAAAAAAAAAA2AAAAA2AA224AAAAAAAA22A42A2A
A2AAAAAAA2AAAAAAAA22AAAAAAAAAAAAAAAA2AAAAA2AA224AAAAAAAA22A42A2A
A2AAAAAAA2AAAAAAAA22AAAAAAAAAAAAAAAA2AAAAA2AA224AAAAAAAAA2A42A2A
A2AAAAAAA2AAAIAAAA22AAAAAAAAAAAAAAAA2AAAAA2AA224AAAAAAAAA2A42A2A
A2AAAAAAA2AAAIAAAA22AAAAAAAAAAAAAIAA2AAAAA2AA224AAAAAAAAA2A42A2A
A2AAAAAAA2AAAIAAAA22AAAIAAAAAAAAAIAA2AAAAA2AA224AAAAAAAAA2A42A2A
A2AAAAAAA2AAA4AAAA22AAAIAAAAAAAAAIAA2AAAAA2AA224AAAAAAAAA2A42A2A
A2AAAAAAA2AAA4AAAA22AAAIAAAAAAAAAAAA2AAAAA2AA224AAAAAAAAA2A42A2A
A2AAAAAAA2AAA4AAAA22AAAIAAAAAAAAAAAA2AAAAA2AA224AAAAAAAAA2A4AA2A
A2AAAAAAA2AAA4AAAA22AAAIAAAAAAAAAAAA2AIAAA2AA224AAAAAAAAA2A4AA2A
A2IAAAAAA2AAA4AAAA22AAAIAAAAAAAAAAAA2AIAAA2AA224AAAAAAAAA2A4AA2A
A22AAAAAA2AAA4AAAA22AAAIAAAAAAAAAAAA2AIAAA2AA224AAAAAAAAA2A4AA2A
A2AAAAAAA2AAA4AAAA22AAAIAAAAAAAAAAAA2AIAAA2AA224AAAAAAAAA2A4AA2A
A2AAAAAAA2AAA2AAAA22AAAIAAAAAAAAAAAA2AIAAA2AA224AAAAAAAAA2A4AA2A
A2AAAAAAA2AAA2AAAA22AAAIAAAAAAAAAAAA2A2AAA2AA224AAAAAAAAA2A4AA2A
A2AAAAAAA2AAAAAAAA22AAA4AAAAAAAAAAAA2A2AAA2AA224AAAAAAAAA2A4AA2A
A2AAAAAAA2AAAAAAAA22AAA4AAAAAAAAAIAA2A2AAA2AA224AAAAAAAAA2A4AA2A
A2AAAAAAA2AAAAAAAA22AAA4AAAAAAAAA4AA2A2AAA2AA224AAAAAAAAA2A4AA2A
A2AAAAAAA2AAAAAAAAA2AAA2AAAAAAAAA4AA2A2AAA2AA224AAAAAAAAA2A4AA2A
A2AAAAAAA2AAAAAAAAA2AAA2AAAAAAAAA4AA2A2AAA2AA224IAAAAAAAA2A4AA2A
A2AAAAAAA2AAAAAAAAA2AAA2AAAAAAAAA4AA2A2AAA2AA2244AAAAAAAA2A4AA2A
A2AAAAAAA2AAAAAAAAA2AAA2AAAAAAAAA2AA2A2AAA2AA2244AAAAAAAA2A4AA2A
A2AAAAAAA2AAAAAAAAA2AAA2AAAAAAAAA2AA2A2AAA2AA224AAAAAAAAA2A4AA2A
A2AAAAAAA2AAAAAAAAA2AAA2AAAAAAAAAIAA2A2AAA2AA224AAAAAAAAA2A4AA2A
A2AAAAAAA2AAAAAAAAA2AAA2AAAAAAAAAIAA2A2AAA2AA2A2AAAAAAAAA2A4AA2A
A2AAAAAAA2AAAAAAAAA2AAA2AAAAAAAAAIAA2A2AAA2AA2I2AAAAAAAAA2A4AA2A
A2AAAAAAA2AAAAAAAAA2AAA2AAAAAAAAA4AA2A2AAA2AA2I2AAAAAAAAA2A4AA2A
A2AAAAAAA2AAAAAAAAA2AAA2AAAAAAAAA2AA2A2AAA2AA242AAAAAAAAA2A4AA2A
A2AAAAAAA2AAAAAAAAA2AAA2AAAAAAAAA2AA2AAAAA2AA242AAAAAAAAA2A4AA2A
A2AAAAAAA2AIAAAAAAA2AAA2AAAAAAAAA2AA2AAAAA2AA242AAAAAAAAA2A4AA2A
A2AAAAAAA2AIAAAAAAA2AAA2AAAAAAAAAIAA2AAAAA2AA242AAAAAAAAA2A4AA2A
A2AAAAAAA2A2AAAAAAA2AAA2AAAAAAAAAIAA2AAAAA2AA242AAAAAAAAA2A4AA2A
A2AAAAAAA2AAAAAAAAA2AAA2AAAAAAAAAIAA2AAAAA2AA242AAAAAAAAA2A4AA2A
A2AAAAAAA2AAAAAAAAA2AAAAAAAAAAAAA4AA2AAAAA2AA242AAAAAAAAA2A4AA2A
A2AAAAAAA2AAAAAAAAA2AAAAAAAAAAAAA2AA2AAAAA2AA242AAAAAAAAA2A4AA2A
A2AAAAAAA2AAAAAAAAA2AAAAAAAAAAAAA2AA2AAAAA2AA2A2AAAAAAAAA2A4AA2A
A2AAAAAAA2AIAAAAAAA2AAAAAAAAAAAAA2AA2AAAAA2AA2A2AAAAAAAAA2A4AA2A
A2AAAAAAA2AIAAAAAAA2AAAIAAAAAAAAA2AA2AAAAA2AA2A2AAAAAAAAA2A4AA2A
A2AAAAAAA2AIAAAAAAA2AAAIAAAAAAAAA2AA2AAAAA2AA2A2AAIAAAAAA2A4AA2A
A2AAAAAAA2AIAAAAAAA2AAAIAAAAAAAAA2AA2AAAAA2AA2A2AAIAAAAAA2A4AAAA
A2AAAAAAA2A4AAAAAAA2AAAIAAAAAAAAA2AA2AAAAA2AA2A2AAIAAAAAA2A4AAAA
A2AAAAAAA2A2AAAAAAA2AAAIAAAAAAAAA2AA2AAAAA2AA2A2AAIAAAAAA2A4AAAA
A2AAAAAAA2A2AAAAAAA2AAA4AAAAAAAAA2AA2AAAAA2AA2A2AAIAAAAAA2A4AAAA
A2AAAAAAA2AAAAAAAAA2AAA4AAAAAAAAA2AA2AAAAA2AA2A2AAIAAAAAA2A4AAAA
A2AAAAAAA2AAAAAAAAAAAAA2AAAAAAAAA2AA2AAAAA2AA2A2AAIAAAAAA2A4AAAA
A2AAAAAAA2AAAAAAAAAAAAAAAAAAAAAAA2AA2AAAAA2AA2A2AAIAAAAAA2A4AAAA
A2AAAAAAA2AAAAAAAAAAAAAAAAAAAAAAA2AA2AAAAA2AA2A2AA2AAAAAA2A4AAAA
A2AAAAAAA2AAAAAAAAAAAAAAAAAAAAAAA2AA2AAAAA2AA2A2AA2AAAAAA2AAAAAA
A2AAAAIAA2AAAAAAAAAAAAAAAAAAAAAAA2AA2AAAAA2AA2A2AA2AAAAAA2AAAAAA
A2AAAAIAA2AAAAAAAAAIAAAAAAAAAAAAA2AA2AAAAA2AA2A2AA2AAAAAA2AAAAAA
A2AAAAIAA2AAAAAAAAAIAAAAAAAAAIAAA2AA2AAAAA2AA2A2AA2AAAAAA2AAAAAA
A2AAAAIAA2AAAAAAAAAIAAAAAAAAAIAAA2AA2AAAAA2AA2A2AAIAAAAAA2AAAAAA
A2AAAAIAA2AAAAAAAAAIAAAAAAAAAIAAA2AA2AAAAA2AA2A2AAIAAAAAA2AIAAAA
A2AAAAIAA2AAAAAAAAA4AAAAAAAAAIAAA2AA2AAAAA2AA2A2AAIAAAAAA2AIAAAA
A2AAAAIAA2AAAAAAAAAAAAAAAAAAA4AAA2AA2AAAAA2AA2A2AAIAAAAAA2AIAAAA
A2AAAAIAA2AAAAAAAAAAAAAAAAAAA2AAA2AA2AAAAA2AA2A2AAIAAAAAA2AIAAAA
A2AAAAIAA2AAAAAAAAAAAAAAAAAAA2AAA2AA2AAAAA2AA2A2AA2AAAAAA2AIAAAA
A2AAAAIAA2AAAAAAAAAAAAAAAAAAA2AAA2AA2AAAAA2AA2A2AAIAAAAAA2AIAAAA
A2AAAA2AA2AAAAAAAAAAAAAAAAAAA2AAA2AA2AAAAA2AA2A2AAIAAAAAA2AIAAAA
A2AAAA2AA2AAAAAAAAAAAAAAAAAAA2AAA2AA2AAAAA2AAAA2AAIAAAAAA2A4AAAA
A2AAAA2AA2AAAAAAAAAAAAAAAAAAA2AAA2AA2AAAAA2AAAA2AA2AAAAAA2A4AAAA
A2AAAA2AA2AAAAAAAAAAAAAAAAAAA2AAA2AA2AAAAA2AAAA2AA2AAAAAA2A2AAAA
A2AAAA2AA2AAAAAAAAAAAAAAAAAAA2AAAAAA2AAAAA2AAAA2AA2AAAAAA2A2AAAA
A2AAAA2AA2AAAAAAAAAAAAAAAAAAA2AIAAAA2AAAAA2AAAA2AA2AAAAAA2A2AAAA
A2AAAI2AA2AAAAAAAAAAAAAAAAAAA2AIAAAA2AAAAA2AAAA2AA2AAAAAA2A2AAAA
A2AAAA2AA2AAAAAAAAAAAAAAAAAAA2AIAAAA2AAAAA2AAAA2AA2AAAAAA2A2AAAA
A2AAAA2AA2AAAAAAAAAAAAAAAAAAA2A4AAAA2AAAAA2AAAA2AA2AAAAAA2A2AAAA
A2AAAA2AA2AAAAAAAAAAAAAAAAAAAAA2AAAA2AAAAA2AAAA2AA2AAAAAA2A2AAAA
A2AAAA2AA2AAAAAAAAAAAAAAAAAAAAA2AAAA2AAAAA2AAAA2AA2AAAAAAAA2AAAA
A2AAAA2AA2AAAAAAAAAAAAAAIAAAAAA2AAAA2AAAAA2AAAA2AA2AAAAAAAA2AAAA
A2AAAA2AA2AAAAAAAAAAAAAAIAAAAAA2AAAA2IAAAA2AAAA2AA2AAAAAAAA2AAAA
A2AAAI2AA2AAAAAAAAAAAAAAIAAAAAA2AAAA2IAAAA2AAAA2AA2AAAAAAAA2AAAA
A2AAAI2AA2AAAAAAAAAAAAAA4AAAAAA2AAAA2IAAAA2AAAA2AA2AAAAAAAA2AAAA
A2AAAI2AA2AIAAAAAAAAAAAA4AAAAAA2AAAA2IAAAA2AAAA2AA2AAAAAAAA2AAAA
A2AAA22AA2A2AAAAAAAAAAAA4AAAAAA2AAAA2IAAAA2AAAA2AA2AAAAAAAA2AAAA
A2AAA22AA2AAAAAAAAAAAAAA2AAAAAA2AAAA2IAAAA2AAAA2AA2AAAAAAAA2AAAA
A2AAA22AA2AAAAAAAAAAAAAA2AAAAAA2AAAA22AAAA2AAAA2AA2AAAAAAAA2AAAA
A2AAA22AA2AAAAAAAAAAAAAAAAAAAAA2AAAA22AAAA2AAAA2AA2AAAAAAAA2AAAA
A2AAA22AA2AAAAAAAAAAAAAAAAAAAAA2AAAA2IAAAA2AAAA2AA2AAAAAAAA2AAAA
A2AAAA2AA2AAAAAAAAAAAAAAAAAAAAA2AAAA2IAAAA2AAAA2AA2AAAAAAAA2AAAA
A2AAAAAAA2AAAAAAAAAAAAAAAAAAAAA2AAAA2IAAAA2AAAA2AA2AAAAAAAA2AAAA
A2AAAAAAA2AAAAAAAAAAAAAAAAAAAAA2AAAA24AAAA2AAAA2AA2AAAAAAAA2AAAA
A2AAAAAAA2AAAAAAAAAAAAAAAAAAIAA2AAAA24AAAA2AAAA2AA2AAAAAAAA2AAAA
A2AAAAAAA2AAAAAAAAAAAAAAAAAAIAA2AAAA2AAAAA2AAAA2AA2AAAAAAAA2AAAA
A2AAAAAAA2AAAAAAAAAAAAAAAAAA2AA2AAAA2AAAAA2AAAA2AA2AAAAAAAA2AAAA
A2AAAAAAA2AAAAAAAAAAAAAAAAAAAAA2AAAA2AAAAA2AAAA2AA2AAAAAAAA2AAAA
A2AAAAAAA2AAAAAAAAAAAAAAAIAAAAA2AAAA2AAAAA2AAAA2AA2AAAAAAAA2AAAA
A2AAAAAAA2AAAAAAAAAAAAAAAAAAAAA2AAAA2AAAAA2AAAA2AA2AAAAAAAA2AAAA
A2AAAAAAA2AAAAAAAAAAAAAAAAAAAAA2AAAA2AAAAAAAAAA2AA2AAAAAAAA2AAAA
A2AAAIAAA2AAAAAAAAAAAAAAAAAAAAA2AAAA2AAAAAAAAAA2AA2AAAAAAAA2AAAA
A2AAAIAAA2AAAAAAAAAAAAAAAAAAAAA2AAAA2AAAAAAAAAA2AA2AAAAAAIA2AAAA
A2AAAAAAA2AAAAAAAAAAAAAAAAAAAAA2AAAA2AAAAAAAAAA2AA2AAAAAAIA2AAAA
A2AAAAAAA2AAAAAAAAAAAAAAAAAAAAA2AAAA2AAAAAAAAAA2AA2AAAAAA4A2AAAA
A2AAAAAAA2AAAAAAAAAAIAAAAAAAAAA2AAAA2AAAAAAAAAA2AA2AAAAAA4A2AAAA
A2AAAAAAA2AAAAAAAAAA4AAAAAAAAAA2AAAA2AAAAAAAAAA2AA2AAAAAA4A2AAAA
A2AAAAAAA2AAAAAAAAAA4AAAIAAAAAA2AAAA2AAAAAAAAAA2AA2AAAAAA4A2AAAA
A2AAAAAAA2AAAAAAAAAA4AAAIAAAAAA2AAAA2AAAAAAAAIA2AA2AAAAAA4A2AAAA
A2AAAAAAA2AAAAAAAAAA4AAAIAAAAAA2AAAA2AAAAAAAAIA2AI2AAAAAA4A2AAAA
A2AAAAAAA2AAAAAAAAAA4AAAIAAAAAA2AAAA2AAAAAAAA4A2A42AAAAAA4A2AAAA
A2AAAAAAA2AAAAAAAAAA4AAAIAAAAAA2AAAA2AAAAAAAA4A2A22AAAAAA4A2AAAA
A2AAAAAAA2AAAAAAAAAA4AAAIAAAAAA2AAAA2AAAAAAAA4A2A22AAAAAA2A2AAAA
A2AAAIAAA2AAAAAAAAAA4AAAIAAAAAA2AAAA2AAAAAAAA4A2A22AAAAAA2A2AAAA
A2AAAAAAA2AAAAAAAAAA4AAAIAAAAAA2AAAA2AAAAAAAA4A2A22AAAAAA2A2AAAA
A2AAAAAAA2AAAAAAAAAA4AAAAAAAAAA2AAAA2AAAAAAAA4A2A22AAAAAA2A2AAAA
A2AAAAAAA2AAAAAAAAAA4AAAAAAAAAA2AAAA2AAAAAAAA2A2A22AAAAAA2A2AAAA
A2AAAAAAA2AAAAAAAAAA4AAAAAAAAAA2AAAI2AAAAAAAA2A2A22AAAAAA2A2AAAA
A2AAAAAAA2AAAAAAAAAA4AAAAAAAAAA2AAA22AAAAAAAA2A2A22AAAAAA2A2AAAA
A2AAAAAAA2AAAAAAAAAA4AAAAAAAAIA2AAA22AAAAAAAA2A2A22AAAAAA2A2AAAA
A2AAAAAAA2AAAAAAAAAA4AAAAAAAAIA2AAAA2AAAAAAAA2A2A22AAAAAA2A2AAAA
A2AAAAAAA2AAAAAAAAAA2AAAAAAAA4A2AAAA2AAAAAAAA2A2A22AAAAAA2A2AAAA
A2AAAAAAA2AAAAAAAAAA2AAAAAAAA4A2AAAA2AAAAAAAA2A2A22AAAAAA2AAAAAA
A2AAAAAAA2AAAAAAAAAA2AAAAAAAA4A2AAAA2AAAAAAAA2A2I22AAAAAA2AAAAAA
A2AAAAAAA2AAAAAAAAAA2AAAAAAAA4A2AAAA2AAAAAAAA2A2I22AAAAAA2AAAAAI
A2AAAAAAA2AAAAAAAAAA2AAAAAAAA4A2AAAA2AAAAAAAA2A2422AAAAAA2AAAAAI
A2AAAAAAA2AAAAAAAAAA2AAAAAAAA4A2AAAA2AAAAAAAA2A2A22AAAAAA2AAAAA4
A2AAAAAAA2AAAAAAAAAA2AAAAAAAA4A2AAAA2AAAAAAAA2A2AA2AAAAAA2AAAAA4
A2AAAAAAA2AAAAAAAAAA2AAAAAAAA4A2AAAA2AAAAAAAA2A2AA2AAAAAA2AAAAAA
A2AAAAAAA2AAAAAAAAAA2AAAAAAAA2A2AAAA2AAAAAAAA2A2AA2AAAAAA2AAAAAA
A2AAAAAAA2AAAAAAAAAA2AAAAAAAA2AAAAAA2AAAAAAAA2A2AA2AAAAAA2AAAAAA
A2AAAAAAA2AAAAAAAAAA2AAAAAAAA2AIAAAA2AAAAAAAA2A2AA2AAAAAA2AAAAAA
A2AAAAAAA2AAAAAAAAAA2AAAAAAAA2AIAAAA2AAAAAAAA2A2AA2AAAAAA2AAAIAA
A2AAAAAAA2AAAAAAAAAA2AAAAAAAA2A2AAAA2AAAAAAAA2A2AA2AAAAAA2AAAIAA
A2AAAAAAA2AAAAAAAAAA2AAAAAAAA2A2AAAA2AAAAAAAA2A2AA2AAAAAA2AAA4AA
A2AAAAAAA2AAAAAAAAAA2AAAAAAAA2A2AAAA2AAAAAAAA2A2IA2AAAAAA2AAA4AA
A2AAAAAAA2AAAAAAAAAA2AAAAAAAA2A2AAAA2AAAAAAAA2A2IA2AAIAAA2AAA4AA
A2AAAAAAA2AAAAAAAAAA2AAAAAAAA2A2AAAA2AAAAAAAA2A2IA2AAIAAA2AAI4AA
A2AAAAAAA2AAAAAAAAAA2AAAAAAAA2A2AAAA2AAAAAAAA2A2AA2AA2AAA2AA44AA
A2AAAAAAA2AAAIAAAAAA2AAAAAAAA2A2AAAA2AAAAAAAA2A2AA2AA2AAA2AA44AA
A2AAAAAAA2AAA4AAAAAA2AAAAAAAA2A2AAAA2AAAAAAAA2A2AA2AA2AAA2AA44AA
A2AAAAAAA2AAA4AAAAAA2AAAAAAAA2A2AAAA2AAAAAAAA2A2AA2AAAAAA2AA24AA
A2AAAAAAA2AAA4AAAAAA2AAAAAAAA2A2AAAA2AAAAAAAA2A2AA2AAIAAA2AA24AA
A2AAAAAAA2AAA4AAAAAA2AAAAAAAA2A2AAAA2AAAAAIAA2A2AA2AAIAAA2AA24AA
A2AAAAAAA2AAA2AAAAAA2AAAAAAAA2A2AAAA2AAAAAIAA2A2AA2AAIAAA2AA24AA
A2AAAAAAA2AAA2AAAAAAAAAAAAAAA2A2AAAA2AAAAAIAA2A2AA2AAIAAA2AA24AA
A2AAAAAAA2AAA2AAAAAAAAAAAAAAA2A2AAAA2AAAAA2AA2A2AA2AA4AAA2AA24AA
A2AAAAAAA2AAA2AAAAAAAAAIAAAAA2A2AAAA2AAAAA2AA2A2AA2AA4AAA2AA24AA
A2AAAAAAA2AAA2AAAAAAIAAIAAAAA2A2AAAA2AAAAA2AA2A2AA2AA4AAA2AA24AA
AAAAAAAAA2AAA2AAAAAAIAAIAAAAA2A2AAAA2AAAAA2AA2A2AA2AA4AAA2AA24AA
AAAAAAAAA2AAA2AAAAAAIAAIAAAAA2A2AAAA2AAAAA2AA2A2AA2AA2AAA2AA24AA
AAAAAAAAA2AAA2AAAAAAIAAIAAAAA2A2AAAA2AAAAA2AA2A2AA2AA2AAA2AAA2AA
AAAAAAAAA2AAA2AAAAAAIAAIAAAAA2A2AAAA2AAAAA2AA2I2AA2AA2AAA2AAA2AA
AAAAAAAAA2AAA2AAAAAAIAAIAAAAA2A2AAAA2AAAAA2AA2I2AA2AA2AAA2AAI2AA
AAAAAAAAA2AAA2AAAAAAIAAIAAAAA2A2AAAA2AAAAA2AA2I2AA2AA2AAA2AAIIAA
AAAAAAAAA2AAA2AAAAAA4AAIAAAAA2A2AAAA2AAAAA2AA2I2AA2AA2AAA2AAIIAA
AAAAAAAAA2AAA2AAAAAA4AAAAAAAA2A2AAAA2AAAAA2AA2I2AA2AA2AAA2AAIIAA
AAAAAAAAA2AAA2AAAAAA4AAAAAAAA2A2AAAA2AAAAA2AA242AA2AA2AAA2AAIIAA
AAAAAAAAA2AAA2AAAAAA4AAAAAAAA2A2AAAA2AAAAA2AA222AA2AA2AAA2AAIIAA
AAAAAAAAA2AAA2AAAAAA4AAAAAAAA2A2AAAA2AAAAA2AA2A2AA2AA2AAA2AAI4AA
AAAAAAAAA2AAA2AAAAAA4AAAAAAAA2A2AAAA2AAAAA2AA2A2AA2AA2AAA2AA44AA
AAAAAAAAA2AAA2AAAAAA4AAAAAAAA2A2AAAA2AAAAA2AA2A2AA2AA2AAAAAA24AA
AAAAAAAAA2AAA2AAAAAA4AAAAAAAA2A2AAAA2AAAAA2AA2A2AA2AA2AAAIAA24AA
AAAAAAAAA2AAA2AAAAAA2AAAAAAAA2A2AAAA2AAAAA2AA2A2AA2AA2AAAIAA24AA
AAAAAAAAA2AAAAAAAAAA2AAAAAAAA2A2AAAA2AAAAA2AA2A2AA2AA2AAAIAA24AA
AAAAAAAAA2AAAAAAAAAA2AAAAAAAA2A2AAAA2AAAAA2AA2A2AA2AA2AAA4AA24AA
AAAAAAAAA2AAAAAAAAAA2AAAAAAAA2A2AAAA2AAAAA2AA2A2AA2AAAAAA2AA24AA
AAAAAAAAA2AAAAAAAAAA2AAAAAAAAAA2AAAA2AAAAA2AA2A2AA2AAAAAA2AA24AA
AAAAAAAAA2AAAAAAAAAAIAAAAAAAAAA2AAAA2AAAAA2AA2A2AA2AAAAAA2AA24AA
AAAAAAAAA2AAAAAAAAAA4AAAAAAAAAA2AAAA2AAAAA2AA2A2AA2AAAAAA2AA24AA
AAAAAAAAA2AAAAAAAAAA4AAAAAAAAAA2AAAA2AAAAA2AA2A2IA2AAAAAA2AA24AA
AAAAAIAAA2AAAAAAAAAA4AAAAAAAAAA2AAAA2AAAAA2AA2A2IA2AAAAAA2AA24AA
AAAAAIAAA2AAAAAAAAAA4AAAAAAAAAA2IAAA2AAAAA2AA2A2IA2AAAAAA2AA24AA
AAAAAAAAA2AAAAAAAAAA4AAAAAAAAAA2IAAA2AAAAA2AA2A2IA2AAAAAA2AA24AA
AAAAAAAAA2AAAAAAAAAA4AAAAAAAAAA24AAA2AAAAA2AA2A2IA2AAAAAA2AA24AA
AAAAAAAAA2AAAAAAAAAAAAAAAAAAAAA24AAA2AAAAA2AA2A2IA2AAAAAA2AA24AA
AAAAAAAAA2AAAAAAAAAAAAAAAAAAAAA22AAA2AAAAA2AA2A2IA2AAAAAA2AA24AA
AAAAAAAAA2AAAAAAAAAAAAAAAAAAAAA22AAA2AAAAA2AA2A24A2AAAAAA2AA24AA
AAAAAAAAA2AAAAAAAAAAAAAAAAAAAAA22AAA2AAAAA2AAAA24A2AAAAAA2AA24AA
AAAAAAAAA2AAAAAAAAAAAAAAAAAAAAA22AAA2AAAAA2AAAA22A2AAAAAA2AA24AA
AAAAAAAAA2AAAAAAAAAAAAAAAAAAAAA22AAA2AAAAA2AAAAA2A2AAAAAA2AA24AA
AAAAAAAAA2AAAAAAAAAAAAAAAAAAAAA22AAA2AAAAA2AAAAAAA2AAAAAA2AA24AA
AAAAAAAAA2AAAAAAAAAAAAAAAAAAAAA22AAA2AAAAA2AAAAAAA2AAAAAA2AA22AA
AAAAAAAAA2AAAAAAAAAAAAAAAAAAAAA22AAA2AAAAA2AAAAAAA2AAAAAA2AAA2AA
AAAAAAAAA2AAAAAAAAAAAAAAAAAAAAA22AAA2AAAAA2AAIAAAA2AAAAAA2AAA2AA
AAAAAAAAA2AAAAAAAAAAAAAAAAAAAIA22AAA2AAAAA2AAIAAAA2AAAAAA2AAA2AA
AAAAAAAAA2AAAAAAAAAAAAAAAAAAAIA22AAA2AAAAA2AAIAAAA2AAAAAA2IAA2AA
AAAAAAAAA2AAAAAAAAAAAAAAAAAAAIA22AAA2AAAAA2AAIAAAA2AAAAAA2IIA2AA
AAAAAAAAA2AAAAAAAAAAAAAAAAAAAIA22AAA2AAAAA2AAIAAAA2AAAAAA2IIA2AI
AAAAAAAAA2AAAAAAAAAAAAAAAAAAAIA22AAA2AAAAA2AAIAIAA2AAAAAA2IIA2AI
AAAAAAAAA2AAAAAAAAAAAAAAAAAAAIA22AAA2AAAAA2AAIAIAA2AAAAAA22IA2AI
AAAAAAAAA2AAAAAAAAAAAAAAAAAAAIA22AAA2AAAAA2AAIAIAA2AAAAAA224A2AI
AAAAAAAAA2AAAAAAAAAAAAAAAAAAAIA2AAAA2AAAAA2AA4AIAA2AAAAAA224A2AI
AAAAAAAAA2AAAAAAAAAAAAAAAAAAAIA2AAAA2AAAAA2AA4AAAA2AAAAAA224A2A4
AAAAAAAAA2AAAAAAAAAAAAAAAAAAAIA2AAAA2AAAAA2AA4AAAA2AAAAAA2I4A2A4
AAAAAAAAA2AAAAAAAAAAAAAAAAAAAIA2AAAA2AAAAA2AAAAAAA2AAAAAA2I4A2A4
AAAAAAAAA2AAAAAAAAAAAAAAAAAAA2A2AAAA2AAAAA2AAAAAAA2AAAAAA2I4A2A4
AAAAAAAAA2AAAAAAAAAAAAAAAAAAAAA2AAAA2AAAAA2AAAAAAA2AAAAAA2I4A2A4
AAAAAAAAA2AAAAAAAAAAAAAAAAAAAAAAAAAA2AAAAA2AAAAAAA2AAAAAA2I4A2A4
AAAAAAAAA2AAAAAAAAAAAAAAAAAAAAAAAAAA2AAAAA2AAAAAAA2AAAAAA244A2A4
AAAAAAAAA2AAAAAAAAAAAAAAAAAAAAAAAAAA2AAAAA2AAAAAAA2AAAAAA224A2A4
AAAAAAAAA2AAAAAAAAAAAAAAAAAAAAAAAAAA2AAAAA2AAAAAAA2AAAAAA22AA2A2
AAAAAAAAA2AAAAAAAAAAAAAAAAAAAAAAAAAA2AAAAA2AAAAAAA2AAAAAA22AA2AA
AAAAAAAAA2AAAAAAAAAAAAAAAAAAAAAAAAAA2AAAAA2AAAAAAA2AAAAAA22AA2IA
AAAAAAAAA2AAAAAAAAAAAAAAAAAAAAAAAAAA2AAIAA2AAAAAAA2AAAAAA22AA2IA
AAAAAAAAA2AAAAAAAAAAAAAAAAAAAAAAAAAA2AAIAA2AAAAAIA2AAAAAA22AA2IA
AAAAAAAAA2AAAAAAAAAAAAAAAAAAAAAAAAAA2AAIAA2AAAAA4A2AAAAAA22AA2IA
AAAAAAAAA2AAAAAAAAAAAAAAAAAAAAAAAAAA2AAIAA2AAAAA2A2AAAAAA22AA24A
AAAAAAAAA2AAAAAAAAAAAAAAAAAAAAAAAAAA2AAIAA2AAAAA2A2AAAAAA22AAA4A
AAAAAAAAA2AAAAAAAAAAAAAAAAAAAAAAAAAA2AAIAA2AAIAA2A2AAAAAA22AAA4A
AAAAAAAAA2AAAAAAAAAAAAAAAAAAAAAAAAAA2AAIAA2AAIAAAA2AAAAAA22AAA4A
AAAAAAAAA2AAAAAAAAAAAAAAAAAAAAAAAAAA2AA4AA2AAIAAAA2AAAAAA22AAA4A
AAAAAAAAA2AAAAAAAAAAAAAAAAAAAAAAAAAA2AA4AA2AAIIAAA2AAAAAA22AAA4A
AAAAAAAAA2AAAAAAAAAAAAAAAAAAAAAAAAAA2AA2AA2AA4IAAA2AAAAAA22AAA4A
AAAAAAAAA2AAAAAAAAAAAAAAAAAAAAAAAAAA2AA2AA2AA4IAAA2AAAAAA22AAA2A
AAAAAAAAA2AAAAAAAAAAAAAAAAAAAAAAAAAA2AA2AA2AA44AAA2AAAAAA22AAA2A
AAAAAAAAA2AAAAAAAAAAAAAAAAAAAAAAAAAA2AA2AA2AA22AAA2AAAAAA22AAA2A
AAAAAAAAA2AAAAAAAAAAAAAAAAAAAAAAAAAA2AAAAA2AA22AAA2AAAAAA22AAA2A
AAAAAAAAA2AAAAAAAAAAAAAAAAAAAAAAAAAA2AAAAA2AAA2AAA2AAAAAA22AAA2A
AAAAAAAAA2AAAAAAAAAAAAAAAAAAAAAAAAAA2AAAAA2AAA2AAA2AAAAAA2AAAA2A
AAAAAAAAA2AAAAAAAAAAAAAAAAAAAAAAAAAA2AAIAA2AAA2AAA2AAAAAA2AAAA2A
AAAAAAAAA2AAAAAAAAAAAAAAAAAAAAAAAAAA2AAIAA2AAAIAAA2AAAAAA2AAAA2A
AAAAAAAAA2AAAAAAAAAAAAAAAAAAAAAAAAAA2AAIAA2AAAIAAA2AIAAAA2AAAA2A
AAAAAAAAA2AAAAAAAAAIAAAAAAAAAAAAAAAA2AAIAA2AAAIAAA2AIAAAA2AAAA2A
AAAAAAAAA2AAAAAAAAA4AAAAAAAAAAAAAAAA2AAIAA2AAAIAAA2AIAAAA2AAAA2A
AAAAAAAAA2AAAAAAAAA4AAAAAAAAAAAAAAAA2AA2AA2AAA4AAA2AIAAAA2AAAA2A
AAAAAAAAA2AAAAAAAAA4AAAAAAAAAAAAAAAA2AAAAA2AAA2AAA2A4AAAA2AAAA2A
AAAAAAAAA2AAAAAAAAA2AAAAAAAAAAAAAAAA2AAAAA2AAA2AAA2A4AAAA2AAAA2A
AAAAAIAAA2AAAAAAAAA2AAAAAAAAAAAAAAAA2AAAAA2AAA2AAA2A4AAAA2AAAA2A
AAAAAAAAA2AAAAAAAAA2AAAAAAAAAAAAAAAA2AAAAA2AAA2AAA2A4AAAA2AAAA2A
AAAAAAAAA2AAAAAAAAA2AAAAAAAAAAAAAAAA2AAAAA2AAA2AAA2A2AAAA2AAAA2A
AAAAAAAAA2AAAAAIAAA2AAAAAAAAAAAAAAAA2AAAAA2AAA2AAA2A2AAAA2AAAA2A
AAAAAAAAA2AAAAAIAAA2AAAAAAAAAAAAAAAA2AAAAA2AAAAAAA2A2AAAA2AAAA2A
AAAAAAAAA2AAAAAIAAA2AAAAAAAAAAAAAAAA2AAAAA2AAAAAAA2AIAAAA2AAAA2A
AAAAAAAAA2AAAAA2AAA2AAAAAAAAAAAAAAAA2AAAAA2AAAAAAA2AIAAAA2AAAA2A
AAAAAAAAA2AAAAA2AAA2AAAAAAAAAAAAAAAA2AAAAA2AAAAAAA2A4AAAA2AAAA2A
AAAAAAAAA2AIAAA2AAA2AAAAAAAAAAAAAAAA2AAAAA2AAAAAAA2A4AAAA2AAAA2A
AAAAAAAAA2AIAAAIAAA2AAAAAAAAAAAAAAAA2AAAAA2AAAAAAA2A4AAAA2AAAA2A
AAAAAAAAA2A4AAA4AAA2AAAAAAAAAAAAAAAA2AAAAA2AAAAAAA2A4AAAA2AAAA2A
AAAAAAAAA2A4AAA4AAA2AAAAAAAAAAAAAAAA2AAAAI2AAAAAAA2A4AAAA2AAAA2A
AAAAAAAAA2A4AAA4AAA2AAAAAAAAAAAAAAAA2AAAA42AAAAAAA2A4AAAA2AAAA2A
AAAAAAAAA2A4AAA4AAA2AAAAAAAAAAAAAAAA2AAAA22AAAAAAA2A4AAAA2AAAA2A
AAAAAAAAA2A2AAA4AAA2AAAAAAAAAAAAAAAA2AAAA22AAAAAAA2A4AAAA2AAAA2A
AAAAAIAAA2A2AAA4AAA2AAAAAAAAAAAAAAAA2AAAA22AAAAAAA2A4AAAA2AAAA2A
AAAAAIAAI2A2AAA4AAA2AAAAAAAAAAAAAAAA2AAAA22AAAAAAA2A4AAAA2AAAA2A
AAAAAIAAI2A2AAI4AAA2AAAAAAAAAAAAAAAA2AAAA22AAAAAAA2A4AAAA2AAAA2A
AAAAAAAA22A2AA24AAA2AAAAAAAAAAAAAAAA2AAAA22AAAAAAA2A4AAAA2AAAA2A
AAAAAAAA22A2AA24AAA2AAAAAAAAAAAAAAAA2AAAA22AAAAAAA2A4AAAA2AAAAAA
AAAAAAAA22A2AA24AAA2AAAAAAAAAAAAAAAA2AAAA22AAAAAIA2A4AAAA2AAAAAA
AAAAAAAA22A2AA24AAA2AAAAAAAAAAAAAAAA2AAAA22AAAAAIA2A4AAAA2AAAAIA
AAAAAAAA22AAAA24AAA2AAAAAAAAAAAAAAAA2AAAA22AAAAAIA2A4AAAA2AAAAIA
AAAAAAAA22AAAA24AAA2AAAAAAAAAAAAAAAA2AAAA22AAAAA4A2A4AAAA2AAAAIA
AAAAAAAA22AAAA24AAA2AAAAAAAAAAAAAAAA2AAAA22AAAAA2A2A4AAAA2AAAAIA
AAAAAAAA22AAAA24AAA2AAAAAAAAAAAAAAAA2AAAA22AAAAAAA2A4AAAA2AAAA4A
AAAAAAAA22AAAA24AAA2AAAAAAAAAAAAAAAA2AAAA22AAAAAAA2A2AAAA2AAAA4A
AAAAAAAA22AAAA24AAA2AAAAAAAAAAAAAAAA2AAAA22AAAAAAA2AIAAAA2AAAA4A
AAAAAAAA22AAAA24AAA2AAAAAAAAAAAAAAAA2AAAA22AAAAAAA2A4AAAA2AAAA4A
AAAAAAAA22AAAA24AAA2AAAAAAAAAAAAAAAA2AAAA22AAAAAAA2A2AAAA2AAAA4A
AAAAAAAA22AAAA24AAA2AAAAAAAAAAAAAAAA2AAAA22AAAAAAA2A2AAAA2AAAA2A
AAAAAAAA22AAAA24AAA2AAAAAAAAAAAAAAAA2AAAA22AAAAAAAAA2AAAA2AAAA2A
AAAAAAAA22AAAA24AAA2AAAAAAAAAAAAAAIA2AAAA22AAAAAAAAA2AAAA2AAAA2A
AAAAAAAA22AAAA24AAA2AAAAAAAAAAAAAA2A2AAAA22AAAAAAAAA2AAAA2AAAA2A
AAAAAAAA22AAAA24AAA2AAAAAAAAAAAAAA2A2AAAAA2AAAAAAAAA2AAAA2AAAA2A
AAAAAAAA22AAAA24AAA2AAAAAAAAAAAAAA2A2AAAAA2AAAAAAAAA2AAAA2AAAAIA
AAAAAAAA22AAAA24AAAAAAAAAAAAAAAAAA2A2AAAAA2AAAAAAAAA2AAAA2AAAAIA
AAAAAAAA22AAAA24AAAAAAAAAAAAAAAAAA2A2AAAAA2AAAAAAAAA2AAAA2AAAA2A
AAAAAAAA22AAAA24AAAAAAAAAAAAIAAAAA2A2AAAAA2AAAAAAAAA2AAAA2AAAA2A
AAAAAAAA22AAAA24AAAAAAAAAAAAIAAAAI2A2AAAAA2AAAAAAAAA2AAAA2AAAA2A
AAAAAAAA22AAAA24AAAAAAAAAAAAIAAAA42A2AAAAA2AAAAAAAAA2AAAA2AAAA2A
AAAAIAAA22AAAA24AAAAAAAAAAAAIAAAA42A2AAAAA2AAAAAAAAA2AAAA2AAAA2A
AAAA2AAA22AAAA24AAAAAAAAAAAAIAAAA42A2AAAAA2AAAAAAAAA2AAAA2AAAA2A
AAAA2AAA22AIAA24AAAAAAAAAAAAIAAAA42A2AAAAA2AAAAAAAAA2AAAA2AAAA2A
AAAA2AAA22AIAA24AAAAAAAAAAAAIAAAA42A2AAAAA2AAAAAIAAA2AAAA2AAAA2A
AAAA2AAA22AIAA24AAAAAAAAAAAAIAAAAA2A2AAAAA2AAAAAIAAA2AAAA2AAAA2A
AAAA2AAA22A4AA24AAAAAAAAAAAAIAAAAA2A2AAAAA2AAAAAIAAA2AAAA2AAAA2A
AAAA2AAA22A4AA24AAAAAAAAAAAA2AAAAA2A2AAAAA2AAAAAIAAA2AAAA2AAAA2A
AAAA2AAA22A4AA24AAAAAAAAAAAA2AAAAA2A2AAAAA2AAAAA2AAA2AAAA2AAAA2A
AAAA2AAA22AAAA22AAAAAAAAAAAA2AAAAA2A2AAAAA2AAAAA2AAA2AAAA2AAAA2A
AAAA2AAA22AAAA22AAAAAAAAAAAAAAAAAA2A2AAAAA2AAAAA2AAA2AAAA2AAAA2A
AAAA2AAA22AAAA22AAAAAAAAAAAAAAAAAA2A2AAAAA2AAAAAAAAA2AAAA2AAAA2A
AAAA2AAA22AAAA2IAAAAAAAAAAAAAAAAAA2A2AAAAA2AAAAAAAAA2AAAA2AAAA2A
AAAA2AAA22AAAA2IAAAAAAAAAAAAAAAAAI2A2AAAAA2AAAAAAAAA2AAAA2AAAA2A
AAAA2AAA22AAAA24AAAAAAAAAAAAAAAAAI2A2AAAAA2AAAAAAAAA2AAAA2AAAA2A
AAAA2AAA22AAAA24AAAAAAAAAAAAAAAAA42A2AAAAA2AAAAAAAAA2AAAA2AAAA2A
AAAA2AAA22AAAA24AAAAAAAAAAAAAAAAA22A2AAAAA2AAAAAAAAA2AAAA2AAAA2A
AAAA2AAA22AAAA24AAAAAAAAAAAAAAAAA22A2AAAAI2AAAAAAAAA2AAAA2AAAA2A
AAAA2AAA22AAAA24AAAAAAAAAAIAAAAAA22A2AAAAI2AAAAAAAAA2AAAA2AAAA2A
AAAA2AAA22AAAA24AAAAAAAAAAIAAAAAAA2A2AAAAI2AAAAAAAAA2AAAA2AAAA2A
AAAA2AAA22AAAA24AAAAAAAAAAIAAAAAAA2A2AAAAI2AAAAAAAAA2AAAAAAAAA2A
AAAA2AAA22AAAA24AAAAAAAAAAIAAAAAAA2A2AAAAI2AAAAAAAAA2AAAAAAAAAAA
AAAA2AAA22AAAA24AAAAAAAAAAIAAAAAAA2A2AAAA42AAAAAAAAA2AAAAAAAAAAA
AAAA2IAA22AAAA24AAAAAAAAAAIAAAAAAA2A2AAAA42AAAAAAAAA2AAAAAAAAAAA
AAAA2IAA22AAAA2AAAAAAAAAAAIAAAAAAA2A2AAAA42AAAAAAAAA2AAAAAAAAAAA
AAAA2IAAA2AAAA2AAAAAAAAAAAIAAAAAAA2A2AAAA42AAAAAAAAA2AAAAAAAAAAA
AAAA2IAAA2AAAA2AAAAAAAAAAA2AAAAAAA2A2AAAA42AAAAAAAAA2AAAAAAAAAAA
AAAA2AAAA2AAAA2AAAAAAAAAAA2AAAAAAA2A2AAAA42AAAAAAAAA2AAAAAAAAAAA
AAAA2AAAA2AAAA2AAAAAAAAAAI2AAAAAAA2A2AAAA42AAAAAAAAA2AAAAAAAAAAA
AAAA2AAAA2AAAA2AAAAAAAAAAI2AAAAAAA2A2AAAA22AAAAAAAAA2AAAAAAAAAAA
AAAA2AAAA2AIAA2AAAAAAAAAAI2AAAAAAA2A2AAAA22AAAAAAAAA2AAAAAAAAAAA
AAAA2AAAA2AIAA2AAAAAAAAAAI2AAAAIAA2A2AAAA22AAAAAAAAA2AAAAAAAAAAA
AAAA2AAAA2AIAA2AAAAAAAAAA22AAAAIAA2A2AAAA22AAAAAAAAA2AAAAAAAAAAA
AAAA2AAAA2AIAA2AAAAAAAAAA22AAAAIAI2A2AAAA22AAAAAAAAA2AAAAAAAAAAA
AAAA2AAAA2AIAA2AAAAAAAAAA22AAAA2AI2A2AAAA22AAAAAAAAA2AAAAAAAAAAA
AAAA2AAAA2AIAA2AAAAAAAAAA22AAAAAA22A2AAAA22AAAAAAAAA2AAAAAAAAAAA
AAAA2AAAA2AIAA2AAAAAAAAAA22AIAAAA22A2AAAA22AAAAAAAAA2AAAAAAAAAAA
AAAA2AAAA2A2AA2AAAAAAAAAA22AIAAAA22A2AAAA22AAAAAAAAA2AAAAAAAAAAA
AAAA2AAAA2AAAA2AAAAAAAAAA22A4AAAA22A2AAAA22AAAAAAAAA2AAAAAAAAAAA
AAAA2AAAA2AAAA2AAAAAAAAIA22A4AAAA22A2AAAA22AAAAAAAAA2AAAAAAAAAAA
AAAA2IAAA2AAAA2AAAAAAAAIA22A4AAAA22A2AAAA22AAAAAAAAA2AAAAAAAAAAA
AAAA2AAAA2AAAA2AAAAAAAAIA22A4AAAA22A2AAAA22AAAAAAAAA2AAAAAAAAAAA
AAAA2AAAA2AAAA2AAAAAAAAIA22A4AAAA22A2AAAA22AAAAAAAAAAAAAAAAAAAAA
AAAA2AAAA2AAAA2AAAAAAAA4A22A4AAAA22A2AAAA22AAAAAAAAAAAAAAAAAAAAA
AAAA2AAAA2AAAA2AAAAAAAA2A22A4AAAA22A2AAAA22AAAAAAAAAAAAAAAAAAAAA
AAAA2AAAA2AAAA2AAAAAAAA2A22A4AAAAA2A2AAAA22AAAAAAAAAAAAAAAAAAAAA
AAAA2AAAA2AAAA2AAAAAAAA2A22A4AAAAAAA2AAAA22AAAAAAAAAAAAAAAAAAAAA
AAAA2AAAA2AAAA2AAAAAAAA2A22A4AAAAAAA2AAAA22AAAAAAAAAAAAAAAAAIAAA
AAAA2AAAA2AAAA2AAAAAIAA2A22A4AAAAAAA2AAAA22AAAAAAAAAAAAAAAAAIAAA
AAAA2AAAA2AAAA2AAAAAIAAAA22A4AAAAAAA2AAAA22AAAAAAAAAAAAAAAAAIAAA
AAAA2AAAA2AAAA2AAAAAIAAAA22A4AAAAAAA2AAAA22AAAAAAAAAAAAAAAAA4AAA
AAAA2AAAA2AAAA2AAAAAIAAAA22A4AAAAAAA2AAAA22AAAAAAAAAAIAAAAAA4AAA
AAAA2AAAA2AAAA2AAAAAIAAAA22A2AAAAAAA2AAAA22AAAAAAAAAAIAAAAAA4AAA
AAAA2AAAA2AAAA2AAAAAIAAAA22A2AAAAAAA2AAAA22AAAAAAAAAAIAAAAAA2AAA
AAAA2AAAA2AAAA2AAAAAIAAAA22A2AAAAAAA2AAAA22AAAAAAAAAAIAAAAAAAAAA
AAAA2AAAA2AAAA2AAAAAIAAAA22A2AAAAAAA2AAAA22AAAAAAAAAAIAAAAIAAAAA
AAAA2AAAA2AAAA2AAAAAIAAAA22A2AAAAAAA2AAAA22AAAAAAAAAAIAAAAIAIAAA
AAAA2AAAA2AAAA2AAAAAIAAAA22A2AAAAAAA2AAAA22AAAAAAAAAAIAAAA4AIAAA
AAAA2AAAA2AAAA2AAAAAIAAAA22A2AAAAAAA2AAAA22AAAAAAAAAAIAAAA4AAAAA
AAAA2AAAA2AAAA2AAAAA4AAAA22A2AAAAAAA2AAAA22AAAAAAAAAAIAAAA4AAAAA
AAAA2AAAA2AAAA2AAAAA4AAAAA2A2AAAAAAA2AAAA22AAAAAAAAAAIAAAA4AAAAA
AAAA2AAAA2AAAA2AAAAA4AAAAA2A2AAAAAAA2AAAAA2AAAAAAAAAAIAAAA4AAAAA
AAAA2AAAA2AAAA2AAAAA4AAAAAAA2AAAAAAA2AAAAA2AAAAAAAAAAIAAAA4AAAAA
AAAA2AAAA2AAAA2AAAAA4AAAAAAA2AAAAAAA2AAAAA2AAAAAAAAAA4AAAA4AAAAA
AAAA2AAAA2AAAA2AAAAA4AAAAAAA2IAAAAAA2AAAAA2AAAAAAAAAA4AAAA4AAAAA
AAAA2AAAA2AAAA2AAAAA4AAAAAAA22AAAAAA2AAAAA2AAAAAAAAAA4AAAA4AAAAA
AAAA2AAAA2AAAA2AAAAA4AAAAAAA22AAAAAA2AAAAA2AAAAAAAAAA2AAAA4AAAAA
AAAA2AAAA2AAAA2AAAAA4IAAAAAA22AAAAAA2AAAAA2AAAAAAAAAA2AAAA4AAAAA
AAAA2AAAA2AAAA2AAAAA4IAAAAAA22AAAAAA2AAAAA2AAAAAIAAAA2AAAA4AAAAA
AAAA2AAAA2AAAA2AAAAA44AAAAAA22AAAAAA2AAAAA2AAAAAIAAAA2AAAA4AAAAA
AAAA2AAAA2AAAA2AAAAA4AAAAAAA22AAAAAA2AAAAA2AAAAAIAAAA2AAAA4AAAAA
AAAA2AAAA2AAAA2AAAAA4AAAAAAAA2AAAAAA2AAAAA2AAAAAIAAAA2AAAA4AAAAA
AAAA2AAAA2AAAA2AAAAA4AAAAAAAAAAAAAAA2AAAAA2AAAAAIAAAA2AAAA4AAAAA
AAAA2AAAA2AAAA2AAAAA4AAAAAAAAAAAAAAA2AAAAA2AAAAA4AAAA2AAAA4AAAAA
AAAA2AAAA2AAAA2AAAAA4AAAAAAAAAAAAAAA2AAAAA2AAAAA2AAAA2AAAA4AAAAA
AAAA2AAAA2AAAA2AAAAA4AAAAAAAAAAAAAAA2AAAAA2AAAAAAAAAA2AAAA4AAAAA
AAAA2AAAA2AAAA2AAAAA4AAAAAAAAAAAAAAA2AAAAA2AAAAAAAAAA2AAAA2AAAAA
AAAA2AAAA2AAAA2AAAAA4AAAAAAAAAAAAAAA2AAAAA2AAAAAAAAAA2AAAAAAAAAA
AAAA2AAAA2AAIA2AAAAA4AAAAAAAAAAAAAAA2AAAAA2AAAAAAAAAA2AAAAAAAAAA
AAAA2AAAA2AAIA2AAAAA4AAAAAAAAAAAAAAA2AAAAA2AAAIAAAAAA2AAAAAAAAAA
AAAA2AAAA2AAIA2AAAAA4AAIAAAAAAAAAAAA2AAAAA2AAAIAAAAAA2AAAAAAAAAA
AAAA2AAAA2AAIA2AAAAA4AAIAAAAAAAAAAAA2AAAAA2AAAIAAAAAA2AAAAAAAIAA
AAAA2IAAA2AAIA2AAAAA4AAIAAAAAAAAAAAA2AAAAA2AAAIAAAAAA2AAAAAAAIAA
AAAA22AAA2AA4A2AAAAA4AAIAAAAAAAAAAAA2AAAAA2AAAIAAAAAA2AAAAAAAIAA
AAAA2AAAA2AA4A2AAAAA4AAIAAAAAAAAAAAA2AAAAA2AAAIAAAAAA2AAAAAAAIAA
AAAA2AAAA2AA4A2AAAAA4AAAAAAAAAAAAAAA2AAAAA2AAAIAAAAAA2AAAAAAAIAA
AAAA2AAAA2AA4A2AAAAA4AAAAAAAAAAAAAAA2AAAAA2AAAIAAAAAA2AAAAAAA4AA
AAAA2AAAA2AA4A2AAAAA2AAAAAAAAAAAAAAA2AAAAA2AAAIAAAAAA2AAAAAAA4AA
AAAA2AAAA2AA4A2AAAAA2AAAAAAAAAAAAAAA2AAAAA2AAA4AAAAAA2AAAAAAA4AA
AAAA2AAAA2AA4A2AAAAA2AAAAAAAAAAAAAAA2AAAAA2AAAAAAAAAA2AAAAAAA4AA
AAAA2AAAA2AA2A2AAAAA2AAAAAAAAAAAAAAA2AAAAA2AAAAAAAAAA2AAAAAAA4AA
AAAA2AAAA2AA2A2AAAAA2AAAAAAAAAAAAAAA2AAAAA2AAAAAAAAAA2AAAAAAA2AA
AAAA2AAAA2AA2A2AAAAA2AAAAAAAAAAAAAAA2AAAAA2AAAAAAAAAA2AAIAAAA2AA
AAAA2IAAA2AA2A2AAAAA2AAAAAAAAAAAAAAA2AAAAA2AAAAAAAAAA2AAIAAAA2AA
AAAA2IAAA2AI2A2AAAAA2AAAAAAAAAAAAAAA2AAAAA2AAAAAAAAAA2AAIAAAA2AA
AAAA2IAAA2AI2A2AAAAI2AAAAAAAAAAAAAAA2AAAAA2AAAAAAAAAA2AAIAAAA2AA
AAAA2IAAA2AI2A2AAAAI2AAAAAAAAAAAAAAA2AAIAA2AAAAAAAAAA2AAIAAAA2AA
AAAA2IAAA2AI2A2AAAAI2AAAAAAAAAAAAAAA2AAIAA2AAAAAAAAAI2AAIAAAA2AA
AAAA2IAAA2AI2A2AAAAI2AAAAAAAAAAAAAAA2AAIAA2AAAAAAAAAI2AAIAIAA2AA
AAAA22AAA2AI2A2AAAAI2AAAAAAAAAAAAAAA2AAIAA2AAAAAAAAAI2AAIAIAA2AA
AAAA2AAAA2A42A2AAAA42AAAAAAAAAAAAAAA2AAIAA2AAAAAAAAAI2AAIAIAA2AA
AAAA2AAAA2AA2A2AAAA42AAAAAAAAAAAAAAA2AAIAA2AAAAAAAAAI2AAIAIAA2AA
AAAA2AAAA2AA2A2AAAA42AAAAAAAAAAAAAAA2AAIAA2AAAAAAAAA42AAIAIAA2AA
AAAA2AAAA2AA2A2AAAA42AAAAAAAAAAAAAAA2AA4AA2AAAAAAAAA42AAIAIAA2AA
AAAA2AAAA2AA2A2AAAA42AAAAAAAAAAAAAAA2AA4AA2AAAAAAAAA42AA4A4AA2AA
AAAA2AAAA2AA2A2AAAA42AAAAAAAAAAAAAAA2AA4AA2AAAAAAAAA42AA4AAAA2AA
AAAA2AAAA2AA2A2AAAA42AAAAAAAAAAAAAAA2AA4AA2AAAAAAAAA42AA4AAAI2AA
AAAA2IAAA2AA2A2AAAA42AAAAAAAAAAAAAAA2AA4AA2AAAAAAAAA42AA4AAAI2AA
AAAA2IAAA2AA2A2AAAA42AAAAAAAAAAAAAAA2AA2AA2AAAAAAAAA42AA4AAAI2AA
AAAA2AAAA2AA2A2AAAA42AAAAAAAAAAAAAAA2AA2AA2AAAAAAAAA42AA4AAAI2AA
AAAA2AAAA2AA2A2AAAA42AAAAAAAIAAAAAAA2AA2AA2AAAAAAAAA42AA4AAAI2AA
AAAA2AAAA2AA2A2AAAA42AAAAAAAIIAAAAAA2AA2AA2AAAAAAAAA42AA4AAAI2AA
AAAA2AIAA2AA2A2AAAA42AAAAAAAIIAAAAAA2AA2AA2AAAAAAAAA42AA4AAAI2AA
AAAA2AAAA2AA2A2AAAA42AAAAAAAIIAAAAAA2AA2AA2AAAAAAAAA42AA4AAAI2AA
AAAA2AAAA2AA2A2AAAA42AAAAAAAIIAAAAAA2AA2AA2AAAAAAAAA42AA4AAA42AA
AAAA2AAAA2AA2A2AAAA42AAAAAAAIIAAAAAA2AAAAA2AAAAAAAAA42AA4AAA42AA
AAAA2AAAAAAA2A2AAAA42AAAAAAAIIAAAAAA2AAAAA2AAAAAAAAA42AA4AAA42AA
AAAA2AAAAAAA2A2AAAA42AAAAAAAIIAAAAAA2AAAAA2AAAAAAAAA22AA2AAA42AA
AAAA2AAAAAAA2A2AAAA42AAAAAAA4IAAAAAA2AAAAA2AAAAAAAAA22AA2AAA42AA
AAAA2AAAAAAA2AAAAAA22AAAAAAA44AAAAAA2AAAAA2AAAAAAAAA22AA2AAA42AA
AAAA2AAAAAAA2AAAAAA22AAAAAAA44AAAAAA2AAAAA2AAAAAAAAA22AA2AAAA2AA
AAAA2AAAAAAA2AAAAAA22AAAAAAA44AIAAAA2AAAAA2AAAAAAAAA22AA2AAAA2AA
AAAA2AAAAAAI2AAAAAA22AAAAAAA44AIAAAA2AAAAA2AAAAAAAAA22AA2AAAA2AA
AAAA2AAAAAAI2AAAAAA22AAAAAAA44AIAAAA2AAAAA2AAAAAAAAAI2AA2AAAA2AA
AAAA2AAAAAAI2AAAAAA22AAAAAAA44AIAAAA2AAAAA2AAAIAAAAAI2AA2AAAA2AA
AAAA2AAAAAA42AAAAAA22AAAAAAA44AIAAAA2AAAAA2AAAIAAAAAI2AA2AAAA2AA
AAAA2AAAAAAA2AAAAAA22AAAAAAA44AIAAAA2AAAAA2AAAIAAAAAI2AA2AAAA2AA
AAAA2AAAAAAA2AAAAAA22AAAAAAA44A4AAAA2AAAAA2AAAIAAAAAI2AA2AAAA2AA
AAAA2AAAAAAA2AAAAAA22AAAAAAA22A4AAAA2AAAAA2AAAIAAAAAI2AA2AAAA2AA
AAAA2AAAAAAA2AAAAAA22AAAAAAA2AA2AAAA2AAAAA2AAA4AAAAAI2AA2AAAA2AA
AAAA2AAAAAAA2AAAAAA22AAAAAAA2AAAAAAA2AAAAA2AAA4AAAAAI2AA2AAAA2AA
AAAA2AAAAAAA2AAAAAA22AAAAAAA2AAAAAAA2AAAAA2AAA4AAAAA42AA2AAAA2AA
AAAA2AAAAAAA2AAAAAA22AAAAAAA2AAAAAAA2AAAAA2AAA4AAAAA22AA2AAAA2AA
AAAA2AAAAAAA2AAAAAA22AAAAAAA2AAAAAAA2AAAAA2AAA4AAAAA22AAAAAAA2AA
AIAA2AAAAAAA2AAAAAA22AAAAAAA2AAAAAAA2AAAAA2AAA4AAAAA22AAAAAAA2AA
AIAA2AAAAAAA2AAAAAA22AAAAAAA2AAAAAIA2AAAAA2AAA4AAAAA22AAAAAAA2AA
AIIA2AAAAAAA2AAAAAA22AAAAAAA2AAAAAIA2AAAAA2AAA4AAAAA22AAAAAAA2AA
AIIA2AAAAAAA2AAAAAA22AAAAIAA2AAAAAIA2AAAAA2AAA4AAAAA22AAAAAAA2AA
AIIA2AAAAAAA2AAAAAA22AAAAIAA2IAAAAIA2AAAAA2AAA4AAAAA22AAAAAAA2AA
AIIA2AAAAAAA2AAAAAA22AAAAIAA2IIAAAIA2AAAAA2AAA4AAAAA22AAAAAAA2AA
AIIA2AAAAAAA2AAAAAA22AAAAIAA2IIAIAIA2AAAAA2AAA4AAAAA22AAAAAAA2AA
AIIA2AAAAAAA2AAAAAA22AAAAIAA2IIAIAII2AAAAA2AAA4AAAAA22AAAAAAA2AA
AIAA2AAAAAAA2AAAAAA22AAAAIAA2IIAIAII2AAAAA2AAA4AAAAA22AAAAAAA2AA
AIAA2AAAAAAA2AAAAAA22AAAA4AA2I4AIAII2AAAAA2AAA4AAAAA22AAAAAAA2AA
AIAA2AAAAAAA2AAAAAA22AAAA4AA2A4A2AII2AAAAA2AAA4AAAAA22AAAAAAA2AA
AIAA2AAAAAAA2AAAAAA22AAAA4AA2A4AAAI22AAAAA2AAA4AAAAA22AAAAAAA2AA
AIAA2AAAAAAA2AAAAAA22AAAA4AA2A4AAAI22AAAAA2AAAAAAAAA22AAAAAAA2AA
AIAA2AAAAAAA2AAAAAA22AAAA4AA2A4AAAI22AAAAA2AAAAAAAAAA2AAAAAAA2AA
AIAA2AAAAAAA2AAAAAA22AAAA4AA2A4AAAI22AAAAA2AAAAAIAAAA2AAAAAAA2AA
AIAA2AAAAAAA2AAAAAA22AAAA4AA2A4AIAI22AAAAA2AAAAAIAAAA2AAAAAAA2AA
AIAA2AAAAAAA2AAAAAA22AAAA4AA2A4AIAI22AAAAA2AAAIAIAAAA2AAAAAAA2AA
AIAA2AAAAAAA2AAAAAA22AAAA4AA2A4AIAII2AAAAA2AAAIAIAAAA2AAAAAAA2AA
AIAA2AAAAAAA2AAAAAA22AAAA4AA2A4A4AII2AAAAA2AAAIAIAAAA2AAAAAAA2AA
AIAA2AAAAAAA2AAAAAA22AAAA4AA2A4A4AII2AAAAA2AAA2A4AAAA2AAAAAAA2AA
AIAA2AAAAAAA2AAAAAAA2AAAA4AA2A4A4A442AAAAA2AAA2A4AAAA2AAAAAAA2AA
AIAA2AAAAAAA2AAAAAAA2AAAA2AA2A4A4A442AAAAA2AAA2A4AAAA2AAAAAAA2AA
AIAA2AAAAAAAAAAAAAAA2AAAA2AA2A4A4A442AAAAA2AAA2A4AAAA2AAAAAAA2AA
AIAA2AAAAAAAAAAAAAAA2AAAA2AAAA4A2A442AAAAA2AAA2A4AAAA2AAAAAAA2AA
AIAA2AAAAAAAAAAAAAAA2AAAA2AAAA2A2A242AAAAA2AAA2A4AAAA2AAAAAAA2AA
AIAA2AAAAAAAAAAAAAAA2AAAA2AAAA2A2A222AAAAA2AAA2A4AAAA2AAAAAAA2AA
AIAA2AAAAAAAAAAAAAAA2AAAA2AAAA2A2A222AAAAA2AAA2AAAAAA2AAAAAAA2AA
AIAA2AAAAAAAAAAAAAAA2AAAA2AAAI2A2A222AAAAA2AAA2AAAAAA2AAAAAAA2AA
AIAA2AAAAAAAIAAAAAAA2AAAA2AAAI2A2A222AAAAA2AAA2AAAAAA2AAAAAAA2AA
AIAA2AAAAAAAIAAAAAAA2AAAA2AAAI2A2A222AAAAA2AAA2AIAAAA2AAAAAAA2AA
AIAA2AAAAAAAIAAAAAAA2AAAA2AAAI2A2A2I2AAAAA2AAA2AIAAAA2AAAAAAA2AA
AIAA2AAAAAAAIAAAAAAA2AAAAIAAAI2A2A2I2AAAAA2AAA2AIAAAA2AAAAAAA2AA
A4AA2AAAAAAAIAAAAAAA2AAAAIAAAI2A2A2I2AAAAA2AAA2AIAAAA2AAAAAAA2AA
A4AA2AAAAAAAIAAAAAAA2AAAA4AAA42A2AAI2AAAAA2AAA2AIAAAA2AAAAAAA2AA
A4AA2AAAAAAAIAAAAAAA2AAAA4AAA42A2AA42AAAAA2AAA2AIAAAA2AAAAAAA2AA
A4AA2AAAAAAAIAAAAAAA2AAAA4AAA42A2AA42AAAAA2AAA2AAAAAA2AAAAAAA2AA
AAAA2AAAAAAA4AAAAAAA2AAAA4AAA42A2AA42AAAAA2AAA2AAAAAA2AAAAAAA2AA
AAAA2AAAAAAAAAAAAAAA2AAAA4AAA42A2AA42AAAAA2AAA2AAAAAA2AAAAAAA2AA
AAAA2AAAAAAAAAAAAAAA2AAAA4AAA22A2AA42AAAAA2AAA2AAAAAA2AAAAAAA2AA
AAAA2AAAAAAAAAAAAAAA2AAAA4AAA22A2AA22AAAAA2AAA2AAAAAA2AAAAAAA2AA
AAAA2AAAAAAAAAAAAAAA2AAAA4AAA22A2AA22AAAAA2AAAAAAAAAA2AAAAAAA2AA
AAAA2AAAAAAAAAAAAAAA2AAAA4AIA22A2AA22AAAAA2AAAAAAAAAA2AAAAAAA2AA
AAAA2IAAAAAAAAAAAAAA2AAAA4AIA22A2AA22AAAAA2AAAAAAAAAA2AAAAAAA2AA
AAAA22AAAAAAAAAAAAAA2AAAA4AIA22A2AA22AAAAA2AAAAAAAAAA2AAAAAAA2AA
AAAA2AAAAAAAAAAAAAAA2AAAA4AIA22A2AA22AAAAA2AAAAAAAAAA2AAAAAAA2AA
AAAA2AAAAAAAAAAAAAAA2AAAA4A2A22A2AA22AAAAA2AAAAAAAAAA2AAAAAAA2AA
AAAA2AAAAAAAAAAAAAAA2AAAA4AIA22A2AA22AAAAA2AAAAAAAAAA2AAAAAAA2AA
AAAA2IAAAAAAAAAAAAAA2AAAA4AIA22A2AA22AAAAA2AAAAAAAAAA2AAAAAAA2AA
AAAA2IAAAAAAAAAAAAAI2AAAA4AIA22A2AA22AAAAA2AAAAAAAAAA2AAAAAAA2AA
AAAA2IAAAAAAAAAAAAAA2AAAA2A4A22A2AA22AAAAA2AAAAAAAAAA2AAAAAAA2AA
AAAA2IAAAAAAAAAAAAAI2AAAA2A4A22A2AA22AAAAA2AAAAAAAAAA2AAAAAAA2AA
AAAA2IAAAAAAAAAAAAAI2AAAAIA4A22A2AA22AAAAA2AAAAAAAAAA2AAAAAAA2AA
AAAA22AAAAAAAAAAAAA42AAAAIA4A22A2AA22AAAAA2AAAAAAAAAA2AAAAAAA2AA
AAAA2AAAAAAAAAAAAAA42AAAAIA4A22A2AA22AAAAA2AAAAAAAAAA2AAAAAAA2AA
AAAA2AAAAAAAAAAAAAA42AAAAIA4A22A2AAA2AAAAA2AAAAAAAAAA2AAAAAAA2AA
AAAA2AAAAAAAAAAAAAA42AAAAIA4I22A2AAA2AAAAA2AAAAAAAAAA2AAAAAAA2AA
AAAA2AAAAAAAAAAAAAA42AAAAAA2I22A2AAA2AAAAA2AAAAAAAAAA2AAAAAAA2AA
AAAA2AAAAAAAAAAAAAA42AAAAAA2IA2A2AAA2AAAAA2AAAAAAAAAA2AAAAAAA2AA
AAAA2AAAAAAAAAAAAAA42AAAAAA2IA2AAAAA2AAAAA2AAAAAAAAAA2AAAAAAA2AA
AAAA2AAAAAAAAAAAAAA42AAAAAA2IA2AAAAA2AAAAA2AAAAAAAAAA2AAAIAAA2AA
AAAA2AAAAAAAAAAAAAA42AAAAAA2IA2AAAAA2AAAAA2AAAAAAAAAA2AAA4AAA2AA
AAAA2AAAAAAAAAAAAAA22AAAAAA24A2AAAAA2AAAAA2AAAAAAAAAA2AAA4AAA2AA
AAAA2AAAAAAAAAAAAAAA2AAAAAA24A2AAAAA2AAAAA2AAAAAAAAAA2AAA4AAA2AA
AAAA2AAAAAAAAAAAAAAI2AAAAAA24A2AAAAA2AAAAA2AAAAAAAAAA2AAA4AAA2AA
AAAA2AAAAAAAAAAAAAA42AAAAAA24A2AAAAA2AAAAA2AAAAAAAAAA2AAA4AAA2AA
AAAA2AAAAAAAAAAAAAA42AAAAAA24A2AAAAA2AAAAA2AAAAAAAAAA2AAA4AAI2AA
AAAA2AAAAAAAAAAAAAA42AAAAAA24A2AAAAA2AAAAA2AAAAAAAAAA2AAA2AAI2AA
AAAA2AAAAAAIAAAAAAA42AAAAAA24A2AAAAA2AAAAA2AAAAAAAAAA2AAA2AAI2AA
AAAA2AAAAAAIAAAAAAA42AAAAAA24A2AAAAA2AAAAA2AAAAAAAAAI2AAA2AAI2AA
AAAA2AAAAAAIAAAAAAA42AAAAAA24A2AAAAA2AAAAA2AAAAAAAAAI2AAA2AA42AA
AAAA2AAAAAAIAAAAAAA22AAAAAA24A2AAAAA2AAAAA2AAAAAAAAAI2AAA2AA42AA
AAAA2AAAAAA4AAAAAAA22AAAAAA24A2AAAAA2AAAAA2AAAAAAAAAI2AAA2AA42AA
AAAA2AAAAAA2AAAAAAA22AAAAAA24A2AAAAA2AAAAA2AAAAAAAAAI2AAA2AA42AA
AAAA2AAAAAAAAAAAAAA22AAAAAA24A2AAAAA2AAAAA2AAAAAAAAAI2AAA2AA42AA
AAAA2AAAAAAAAAAAAAA22AAAAAA22A2AAAAA2AAAAA2AAAAAAAAAI2AAA2AA42AA
AAAA2AAAAAAAAAAAAAA22AAAAAA22A2AAAAA2AAAAA2AAAAAAAAA22AAA2AA42AA
AAAA2AAAAAAAAAAAAAAI2AAAAAA22A2AAAAA2AAAAA2AAAAAAAAA22AAA2AA42AA
AAAA2AAAAAAIAAAAAAAI2AAAAAA22A2AAAAA2AAAAA2AAAAAAAAA22AAA2AA42AA
AAAA2AAAAAAIAAAAAAAI2AAAAAA22A2AAAAA2AAAAA2AAAAAIAAA22AAA2AA42AA
AAAA2AAAAAAIAAAAAAAI2AAAAAA22A2AAAAA2AAAAA2AAAAAIAAAI2AAA2AA42AA
AAAA2AAAAAA2AAAAAAA42AAAAAA22A2AAAAA2AAAAA2AAAAAIAAAI2AAA2AA42AA
AAAA2AAAAAAAAAAAAAA22AAAAAA22A2AAAAA2AAAAA2AAAAAIAAAI2AAA2AA42AA
AAAA2AAAAAAAAAAAAAA22AAAAAA2AA2AAAAA2AAAAA2AAAAAIAAAI2AAA2AA42AA
AAAA2AAAAAAAAAAAAAA22AAAAAA2AA2AAAAA2AAAAA2AAAAAIAAA22AAA2AA42AA
AAAA2AAAAAAAAAAAAAA22AAAAAA2AA2AAAAA2AAAAA2AAAAAAAAA22AAA2AA42AA
AAAA2AAAAAAAAAAAAAA22AAAAAA2AA2AAAAA2AAAAA2AAAAIAAAA22AAA2AA42AA
AAAA2AAAAAAAAAAAAAA22AAAAAA2AA2AAAAA2AAAAA2AAAAIAAAAI2AAA2AA42AA
AAAA2AAAAAAAAIAAAAA22AAAAAA2AA2AAAAA2AAAAA2AAAAIAAAAI2AAA2AA42AA
AAAA2AAAAAAAAIAAAAA22AAAAAA2AA2AAAAA2AIAAA2AAAAIAAAAI2AAA2AA42AA
AAAA2AAAAAAAA4AAAAA22AAAAAA2AA2AAAAA2AIAAA2AAAAIAAAAI2AAA2AA42AA
AAAA2AAAAAAAA4AAAAA22AAAAAAAAA2AAAAA2A4AAA2AAAAIAAAAI2AAA2AA42AA
AAAA2AAAAAAAA4AAAAA22AAAAAAAAA2AAAAA2A4AAA2AAAA2AAAA42AAA2AA42AA
AAAA2AAAAAAAA4AAAAA22AAAAAAAAA2AAAAA2A4AAA2AAAA2AAAA22AAA2AA42AA
AAAA2AAAAAAAA4AAAAA22AAAAAAAAA2AAAAA2A4AAI2AAAA2AAAA22AAA2AA42AA
AAAA2AAAAAAAA2AAAAA22AAAAAAAAA2AAAAA2A4AAI2AAAA2AAAA22AAA2AA42AA
AAAA2AAAAAAAA2AAAAA22AAAAAAAAA2AAAAA2A2AAI2AAAA2AAAA22AAA2AA42AA
AAAA2AAAAAAAA2AAAAA22AAAAAAAAA2AAAAA2A2AAI2AAAA2AAAAA2AAA2AA42AA
AAAA2AAAAAAAA2AAAAA22AAAAAAAAA2AAAAA2A2AAI2AAAA2AAAAA2AAAAAA22AA
AAAA2AAAIAAAA2AAAAA22AAAAAAAAA2AAAAA2A2AAI2AAAA2AAAAA2AAAAAA22AA
AAAA2AAAIAAAA2AAAAA22AAAAAAAAA2AAAAA2A2AAI2AAAI2AAAAA2AAAAAA22AA
AAAA2AAAIAAAA2AAAAA22AAAAAAAAA2AAAAA2A2AAI2AAA42AAAAA2AAAAAA22AA
AAAA2AAA2AAAA2AAAAA22AAAAAAAAA2AAAAA2A2AAI2AAA42AAAAA2AAAAAA22AA
AAAA2AAA2AAAA2AAAAA22AAAAAAAAA2AAAAA2A2AAI2AAA42AAAIA2AAAAAA22AA
AAAA2AAAIAAAA2AAAAA22AAAAAAAAA2AAAAA2A2AAI2AAA42AAAIA2AAAAAA22AA
AAAA2AAA2AAAA2AAAAA22AAAAAAAAA2AAAAA2A2AAI2AAA42AAAIA2AAAAAA22AA
AAAA2AAA2AAAA2AAAAA22AAAAAAAAA2AAAAA2A2AAI2AAA42AAA2A2AAAAAA22AA
AAAA2AAA2AAAA2AAAAA22AAAAAAAAA2AAAAA2A2AAI2AAA42AAAAA2AAAAAA22AA
AAAA2AAA2AAAA2AAAAA22AAAAAAAAA2AAAAA2AAAAI2AAA22AAAAA2AAAAAA22AA
AAAA2AAA2AAAA2AAAAA22AAAAAAAAA2AAAAAAAAAAI2AAA22AAAAA2AAAAAA22AA
AAAA2AAA2AAAA2AAAAA22AAAAAAAAA2AAAAAAAAAA22AAA2AAAAAA2AAAAAA22AA
AAAA2AAA2AAAA2AAAAA22AAAAAAAAA2AAAAAAAAAA22AAAIAAAAAA2AAAAAA22AA
AAAA2AAA2AAAA2AAAAA22AAAAAAAAA2AAAAAAAAAA22AAAIAAAAAA2AAAAAAA2AA
AAAA2AAA2AAAA2AAAAAA2AAAAAAAAA2AAAAAAAAAA22AAAIAAAAAA2AAAAAAA2AA
AAAA2AAA2AAAA2AAAAAA2AAAAAAAAA2AAAAAAAAAA22AAAIAAAAAA2AAAAAAA2IA
AAAA2AAA2AAAA2AAAAAA2AAAAAIAAA2AAAAAAAAAA22AAAIAAAAAA2AAAAAAA2IA
AAAA2AAA2AAAA2AAAAAA2AAAAAIAAA2AAAAAAAAAA22AAA4AAAAAA2AAAAAAA2IA
AAAA2AAA2AAAA2AAAAAA2AAAAAIAAA2AAAAAAAAAAA2AAA2AAAAAA2AAAAAAA2IA
AAAA2AAA2AAAA2AAAAAA2AAAAAIAAA2AAAAAAAAAAA2AAA2AAAAAA2AAAAAAA24A
AAAA2AAA2AAAA2AAAAAA2AAAAAIAAA2AAAAAAAAAAA2AAA2AAAAAA2AAAAAAA22A
AAAA2AAA2AAAA2AAAAAA2AAAAAIAAA2AAAAAAAAAAA2AAA2AAAAAA2AAAAAAA2IA
AAAA2AAA2AAAA2AAAAAA2AAAAAIAAA2AAAAAAAAAAA2AAA2AAAAAA2AAAAAAA22A
AAAA2IAA2AAAA2AAAAAA2AAAAAIAAA2AAAAAAAAAAA2AAA2AAAAAA2AAAAAAA22A
AAAA2IAA2AAAA2AAAAAA2AAAAA4AAA2AAAAAAAAAAA2AAA2AAAAAA2AAAAAAA22A
AAAA2IAA2AAAA2AAAAAA2AAAAA4AAA2AAAAAAIAAAA2AAA2AAAAAA2AAAAAAA22A
AAAA2IAA2AAAA2AAAAAA2AAAAA4AAA2AAAAAAIAAAI2AAA2AAAAAA2AAAAAAA22A
AAAA2IAA2AAAA2AAAAAA2AAAAA4IAA2AAAAAAIAAAI2AAA2AAAAAA2AAAAAAA22A
AAAA22AA2AAAA2AAAAAA2AAAAA4IAA2AAAAAAIAAAI2AAA2AAAAAA2AAAAAAA22A
AAAA22AA2AAAA2AAAAAA2AAAAA4IAA2AAAAAAIAAAI2AAA2AAAAAA2AAAIAAA22A
AAAA2AAA2AAAA2AAAAAA2AAAAA4IAA2AAAAAAIAAAI2AAA2AAAAAA2AAAIAAA22A
AAAA2AAA2AAAA2AAAAAA2AAAAA4AAA2AAAAAAIAAA42AAA2AAAAAA2AAAIAAA22A
AAAA2AAA2AAAA2AAAAAA2AAAAA4AAA2AAAAAA4AAA42AAA2AAAAAA2AAAIAAA22A
AAAA2AAA2AAAA2AAAAAA2AAAAA4AAA2AAAAAA2AAA42AAA2AAAAAA2AAAIAAA22A
AAAA2AAA2AAAA2AAAAAA2AAAAA4AAA2AAAAAA2AAA22AAA2AAAAAA2AAAIAAA22A
AAAA2AAA2AAAA2AAAAAA2AAAAA4AAA2AAAAAA2AAAA2AAA2AAAAAA2AAAIAAA22A
AAAA2AAA2AAAA2AAAAAA2AAAAA4AAA2AAAAAA2AAAA2AAA2AAAAAA2AAA4AAA22A
AAAA2AAA2AAAA2AAAAAA2AAAAA4AAA2AAAAAA2AAAA2AAA2AAAAAA2AAA2AAA22A
AAAA2AAA2AAAA2AAAAAA2AAAAA4AAA2AAAAAA2AAAA2AAA2AAAAAA2AAA2AAAA2A
AAAA2AAA2AAAA2AAAAAA2AAAAA4AAA2AAAAAA2AAAA2AAA2AAAAAA2AAA2AAAAAA
AAAA2AAA2AAAA2AAAAAA2AAAAA4AAA2AAAAAA2AAAA2AAA2AAAAAA2AAI2AAAAAA
AAAA2AAA2AAAA2AAAAAA2AAAAA4AAA2AAAAAA2AAAA2AAA2AAAAAA2AA42AAAAAA
AAAA2AAA2AAAA2AAAAAA2AAAAA4AAA2AAAAAA2AAAA2AAA2IAAAAA2AA42AAAAAA
AAAAAAAA2AAAA2AAAAAA2AAAAA4AAA2AAAAAA2AAAA2AAA2IAAAAA2AA42AAAAAA
AAAAAAAA2AAAA2AAAAAA2AAAAA4AAA2AAAAAA2AAAA2AAA24AAAAA2AA42AAAAAA
AAAAAAAA2AAAA2AAAAAA2AAAAA4AAA2AAAAAA2AAAA2AAA22AAAAA2AA42AAAAAA
AAAAAAAA2AAAA2AAAAAA2AAAAA4AAA2AAAAAA2AAAA2AAAA2AAAAA2AA42AAAAAA
AAAAAAAA2AAAA2AAAAAA2AAAAA4AAA2AAAAAA2AAAA2AAAA2AAAAA2AA22AAAAAA
AAAAIAAA2AAAA2AAAAAA2AAAAA4AAA2AAAAAA2AAAA2AAAA2AAAAA2AA22AAAAAA
AAAAIAAAAAAAA2AAAAAA2AAAAA4AAA2AAAAAA2AAAA2AAAA2AAAAA2AA22AAAAAA
AAAAIAAAAAAAI2AAAAAA2AAAAA4AAA2AAAAAA2AAAA2AAAA2AAAAA2AA22AAAAAA
AAAAIIAAAAAAI2AAAAAA2AAAAA4AAA2AAAAAA2AAAA2AAAA2AAAAA2AA22AAAAAA
AAAAIIAAIAAAI2AAAAAA2AAAAA4AAA2AAAAAA2AAAA2AAAA2AAAAA2AA22AAAAAA
AAAAIIAAIAAAI2AAAAAA2AAAAA4AAA2AAAAAAAAAAA2AAAA2AAAAA2AA22AAAAAA
AAAAIAAAIAAAI2AAAAAA2AAAAA4AAA2AAAAAAAAAAA2AAAA2AAAAA2AA22AAAAAA
AAAAIAAAIAAA22AAAAAA2AAAAA4AAA2AAAAAAAAAAA2AAAA2AAAAA2AA22AAAAAA
AAAAIAAA2AAA22AAAAAA2AAAAA4AAA2AAAAAAAAAAA2AAAA2AAAAA2AA22AAAAAA
AAAAIAAAAAAA22AAAAAA2AAAAA4AAA2AAAAAAAAAAA2AAAA2AAAAA2AA22AAAAAA
AAAAIAAAAAAAA2AAAAAA2AAAAA4AAA2AAAAAAAAAAA2AAAA2AAAAA2AA22AAAAAA
AAAAIAAAAAAAA2AAAAAA2AAAAA2AAA2AAAAAAAAAAA2AAAA2AAAAA2AA22AAAAAA
AAAAIAAAAAAAA2AAAAAA2AAAAA2AAA2AAAAAAAAAAA2AAAA2AAAAA2AAA2AAAAAA
AAAAIAAAAAAAA2AAAAAA2AAAAA2AAA2AAAAAAAAAAA2AAAA2AAAAA2AAI2AAAAAA
AAAAIAAAAAAAA2AAAAAA2AAAAA2AAA2AAAAAAAIAAA2AAAA2AAAAA2AAI2AAAAAA
AAAAIAAAAAAAA2AAAAAA2AAAAA2AAA2AAAAAAAIAAA2AAAA2IAAAA2AAI2AAAAAA
AAAA2AAAAAAAA2AAAAAA2AAAAA2AAA2AAAAAAAIAAA2AAAA2IAAAA2AAI2AAAAAA
AAAA2AAAAAAAA2AAAAAA2AAAAA2AAA2AAAAAAA4AAA2AAAA2IAAAA2AAI2AAAAAA
AAAA2AAAAAAAA2AAAAAA2AAAAA2AAA2AAAAAAA4AAA2AAAA24AAAA2AAI2AAAAAA
AAAA2AAAAAAAA2AAAAAA2AAAAA2AAA2AAAAAAA4AAA2AAAA24AAAA2AA42AAAAAA
AAAA2AAAAAAAA2AAAAAA2AAAAA2AAA2AAAAAAA4AAA2AAAA2AAAAA2AA42AAAAAA
AAAA2AAAAAAAA2AAAAAA2AAAAA2AAA2AAAAAAA4AAA2AAAA2IAAAA2AA42AAAAAA
AAAA2AAAAAAAA2AAAAAA2AAAAA2AIA2AAAAAAA4AAA2AAAA2IAAAA2AA42AAAAAA
AAAA2AAAAAAAA2AAAAAA2AAAAA2A2A2AAAAAAA4AAA2AAAA2IAAAA2AA42AAAAAA
AAAA2AAAAAAAA2AAAAAA2AAAAA2A2A2AAAAAAA4AAA2AAAA24AAAA2AA42AAAAAA
AAAA2AAAAAAAA2AAAAAA2AAAAA2A2A2AAAAAAA4AAA2AAAA2AAAAA2AA42AAAAAA
AAAA2AAAAAAAA2AAAAAA2AAAAA2A2A2AAAAAAA4AAA2AAAA2AAAAA2AA4AAAAAAA
AAAA2AAAAAAAA2AAAAAA2AAAAA2A2A2AIAAAAA4AAA2AAAA2AAAAA2AA4AAAAAAA
AAAA2AAAAAAAA2AAAAAA2AAAAA2A2A2AIAAAAA4AAA2AAAA2IAAAA2AA4AAAAAAA
AAAA2AAAAAAAA2AAAAAA2AAAAAAA2A2AIAAAAA4AAA2AAAA2IAAAA2AA4AAAAAAA
AAAA2AAAAAAAA2AAAAAA2AAAAAAAAA2A2AAAAA4AAA2AAAA2IAAAA2AA4AAAAAAA
AAAA2AAAAAAAA2AAAAAA2AAAAAAAAA2A2AAAAA2AAA2AAAA24AAAA2AA4AAAAAAA
AAAA2AAAAAAAA2AAAAAA2AAAAAAAAA2A2AAAAA2AAA2AAAA24AAAA2AA2AAAAAAA
AAAA2AAAAAAAA2AAAAAA2AAAAAIAAA2A2AAAAA2AAA2AAAA24AAAA2AA2AAAAAAA
AAAA2AAAAAAAA2AAAAAA2AAAAAIAIA2A2AAAAA2AAA2AAAA24AAAA2AA2AAAAAAA
AAAA2AAAAAAAA2AAAAAA2AAAAAIAIA2A2IAAAA2AAA2AAAA24AAAA2AA2AAAAAAA
AAAA2AAAAAAAA2AAAAAA2AAAAAIAIA2A2IAAAA2AAI2AAAA24AAAA2AA2AAAAAAA
AAAA2AAAAAAAA2AAAAAA2AAAAAIAAA2A2IAAAA2AA42AAAA24AAAA2AA2AAAAAAA
AAAA2AAAAAAAA2AAAAAA2AAAAA2AAA2A24AAAA2AA42AAAA24AAAA2AA2AAAAAAA
AAAA2AAAAAAAA2AAAAAA2AAAAA2AAA2A24AAAA2AA22AAAA24AAAA2AA2AAAAAAA
AAAA2AAAAAAAA2AAAAAA2AAAAA2AAA2A24AAAA2AA22AAAA2AAAAA2AA2AAAAAAA
AAAA2AAAAAAAA2AAAAAA2AAAAA2AAA2A24AAAA2AA22AAAA2AAAAA2AA2AIAAAAA
AAAA2AAAAAAAA2AAAAAA2AAAAA2AAA2A24AAAA2AAI2AAAA2AAAAA2AA2AIAAAAA
AAAA2AAAAAAAA2AAAAAA2AAAAA2AAA2AA4AAAA2AAI2AAAA2AAAAA2AA2AIAAAAA
AAAA2IAAAAAAA2AAAAAA2AAAAA2AAA2AA4AAAA2AAI2AAAA2AAAAA2AA2AIAAAAA
AAAA2IAAAAAAA2AAAAAA2AAAAA2AAA2AA2AAAA2AA42AAAA2AAAAA2AA2AIAAAAA
AAAA2IAAAAAAA2AAAAAA2AAAAA2AAA2AI2AAAA2AA42AAAA2AAAAA2AA2AIAAAAA
AAAA2IAAAAAAA2AAAAAA2AAAAA2AAA2AI2AAAA2AA22AAAA2AAAAA2AA2AIAAAAA
AAAA2IAAAAAAA2AAAAAA2AAAAA2AAA2AI2AAAA2AAA2AAAA2AAAAA2AA2AIAAAAA
AAAA2IAAAAAAA2AAAAAAAAAAAA2AAA2A42AAAA2AAA2AAAA2AAAAA2AA2AIAAAAA
AAAA2IAAAAAAA2AAAAAAAAAAAA2AAA2A4AAAAA2AAA2AAAA2AAAAA2AA2AIAAAAA
AAAA2IAAAAAAA2AAAAAAAAAAAA2AAA2A4AAAAA2AAA2AAAA2AAAAA2AA2A4AAAAA
AAAA2IAAAAAAA2AAAAAAAAAAAA2AAA2A2AAAAA2AAA2AAAA2AAAAA2AA2A4AAAAA
AAAA2AAAAAAAA2AAAAAAAAAAAA2AAA2A2AAAAA2AAA2AAAA2AAAAA2AA2A4AAAAA
AAAA2AAAAAAAA2AAAAAAAAAAAA2AIA2A2AAAAA2AAA2AAAA2AAAAA2AA2A4AAAAA
AAAA2IAAAAAAA2AAAAAAAAAAAA2AIA2A2AAAAA2AAA2AAAA2AAAAA2AA2A4AAAAA
AAAA2IAAAAAIA2AAAAAAAAAAAA2AIA2A2AAAAA2AAA2AAAA2AAAAA2AA2A4AAAAA
AAAA2IAAAAAIA2AAAAAAAAAAAA2AIA2A2AAAAA2AAA2AAAA2AIAAA2AA2A4AAAAA
AAAA2IAAAAAIA2AAAAAAAAAAAA2A2A2A2AAAAA2AAA2AAAA2AIAAA2AA2A4AAAAA
AAAA2AAAAAA2A2AAAAAAAAAAAA2A2A2A2AAAAA2AAA2AAAA2AIAAA2AA2A4AAAAA
AAAA2AAAAAAAA2AAAAAAAAAAAA2A2A2A2AAAAA2AAA2AAAA2AIAAA2AA2A4AAAAA
AAAA2AAAAAAAA2AAAAAAAAAIAA2A2A2A2AAAAA2AAA2AAAA2AIAAA2AA2A4AAAAA
AAAA2IAAAAAAA2AAAAAAAAAIAA2A2A2A2AAAAA2AAA2AAAA2AIAAA2AA2A4AAAAA
AAAA2IAAAAAIA2AAAAAAAAAIAA2A2A2A2AAAAA2AAA2AAAA2AIAAA2AA2A4AAAAA
AAAA2AAAAAAIA2AAAAAAAAAIAA2A2A2A2AAAAA2AAA2AAAA2AIAAA2AA2A4AAAAA
AAAA2AAAAAAIA2AAAAAAAAAIAA2A2A2A2AAAAA2AAA2AAAA2AAAAA2AA2A4AAAAA
AAAA2AAAAAAIA2AAAAAAAAAIAA2A2A2AAAAAAA2AAA2AAAA2AAAAA2AA2A4AAAAA
AAAA2AAAAAAIA2AAAAAAAAAIAA2A2A2AAIAAAA2AAA2AAAA2AAAAA2AA2A4AAAAA
AAAA2AAAAAAIA2AAAAAAAAAIAA2A2A2AAIAAAA2AAA2AAAA2AIAAA2AA2A4AAAAA
AAAA2AAAAAAIA2AAAAAAAAAIAA2A2A2AAIAAAA2AAA2AAAA2A4AAA2AA2A4AAAAA
AAAA2AAAAAAIA2AAAAAAAAAIAA2A2A2AIIAAAA2AAA2AAAA2A4AAA2AA2A4AAAAA
AAAA2AAAAAAIA2AAAAAAAAAIAA2A2A2AI4AAAA2AAA2AAAA2A4AAA2AA2A4AAAAA
AAAA2AAAAAAAA2AAAAAAAAA4AA2A2A2AI4AAAA2AAA2AAAA2A4AAA2AA2A4AAAAA
AAAA2AAAAAAAA2AAAAAAAAA4AA2A2A2AI4AAAA2AAA2AAAA2A2AAA2AA2A4AAAAA
AAAA2AAAAAAAA2AAAAAAAAA4AA2A2A2AI4AAAA2IAA2AAAA2A2AAA2AA2A4AAAAA
AAAA2AAAAAAIA2AAAAAAAAA4AA2A2A2AI4AAAA2IAA2AAAA2A2AAA2AA2A4AAAAA
AAAA2AAAAAAIA2AAAAAAAAA4AA2A2A2AI4AAAA2IAA2AAAA2A2AAA2AA2A2AAAAA
AAAA2AAAAAA4A2AAAAAAAAA4AA2A2A2AI4AAAA2IAA2AAAA2A2AAA2AA2A2AAAAA
AAAA2AAAAAA2A2AAAAAAAAA4AA2A2A2AI4AAAA2IAA2AAAA2A2AAA2AA2A2AAAAA
AAAA2AAAAAAAA2AAAAAAAAA4AA2A2A2AI4AAAA2IAA2AAAA2A2AAA2AA2A2AAAAA
AAAA2AAAAAAAA2AAAAAAAAA2AA2A2A2A44AAAA2IAA2AAAA2A2AAA2AA2A2AAAAA
AAAA2AAAAAAAA2AAAAAAAAA2AA2A2A2A42AAAA2IAA2AAAA2A2AAA2AA2A2AAAAA
AAAA2AAAAAAAA2AAAAAAAAA2AA2A2A2AA2AAAA24AA2AAAA2A2AAA2AA2A2AAAAA
AAAA2AAAAAAAA2AAAAAAAAA2AA2A2A2AA2AAAA24AA2AAAAAA2AAA2AA2A2AAAAA
AAAA2AAAAAAAA2AAAAAAAAA2AA2A2A2AA2AAAA24AA2AAAAAAAAAA2AA2A2AAAAA
AAAA2AAAAAAAA2AAAAAAAAA2AA2A2A2AA2AAAA24AA2AAAAAAAAAA2AA2AIAAAAA
AAAA2AAAAAAAA2AAAAAAAAA2AA2A2A2AA2AAAA24AA2AAAAIAAAAA2AA2AIAAAAA
AAAA2AAAAAAAA2AAAAAAAAA2AA2A2A2AA2AAAA24AA2AAAAIAAAAA2AA2AIIAAAA
AAAA2AAAAAAAA2AAAAAAAAA2AA2A2A2AA2AAAA24AA2AAAAAAAAAA2AA2AIIAAAA
AAAA2AAAAAAAA2AAAAAAAAA2AA2A2A2AA2AAAA24AA2AAAAAAAAAA2AA2A44AAAA
AAAA2AAAAAAAA2AAAAAAAAA2AA2A2A2AA2AAAA22AA2AAAAAAAAAA2AA2A44AAAA
AAAA2AAAAAAAA2AAAAAAAAA2AA2A2A2AA2AAAA22AA2AAAAAAAAAA2AA2A24AAAA
AAAA2AAAAAAAA2AAAAAAAAA2AA2A2A2AA2AAAA22AA2AAAAAAAAAA2AA2AI4AAAA
AAAA2AAAAAAAA2AAAAAAAAA2AA2A2A2AA2AAAA22AA2AAAAAIAAAA2AA2AI4AAAA
AAAA2AAAAAAAA2AAAAAAAAA2AA2A2A2AA2AAAA22AA2AAAAAIAAAA2AA2AI4AIAA
AAAA2IAAAAAAA2AAAAAAAAA2AA2A2A2AA2AAAA22AA2AAAAAIAAAA2AA2AI4AIAA
AAAA22AAAAAAA2AAAAAAAAA2AA2A2A2AA2AAAA22AA2AAAAAIAAAA2AA2AI4AIAA
AAAA2AAAAAAAA2AAAAAAAAA2AA2A2A2AA2AAAA22AA2AAAAAIAAAA2AA2AI4AIAA
AAAA2AAAAAAAA2AAAAAAAAAAAA2A2A2AA2AAAA22AA2AAAAAIAAAA2AA2AI4AIAA
AAAA2AAAAAAAA2AAAAAAAAAAAA2AAA2AA2AAAA22AA2AAAAAIAAAA2AA2AI4AIAA
AAAA2AAAAAAAA2AAAAAAAAAAAA2AAAAAA2AAAA22AA2AAAAAIAAAA2AA2AI4AIAA
AAAA2AAAAAAAA2AAAAAAAAAAAA2AAAAAA2AAAA22AA2AAAAA4AAAA2AA2AI4AIAA
AAAA2AAAAAAAA2AAAAAAAAAAAA2AAAAAA2AAAA22AA2AAAAAAAAAA2AA2A44A4AA
AAAA2AAAAAAAA2AAAAAAAAAAAA2AAAAAA2AAAA22AA2AAAAAAAAAAAAA2A42A4AA
AAAA2AAAAAAAA2AAAAAAAAAAAA2AAAAAA2AAAA22AA2AAAAAAAAAAAAA2A42A2AA
AAAA2AAAAAAAA2AAAAAAAAAAAA2AAAAAA2AAAA22AA2AAAAAAAAAAAAA2A42AIAA
AAAAAAAAAAAAA2AAAAAAAAAAAA2AAAAAA2AAAA22AA2AAAAAAAAAAAAA2A42AIAA
AAAAAAAAAAAAA2AAAAAAAAAAAA2AAAAAA2AAAA22AA2AAAAAAAAAAAAA2A42A4AA
AAAAAAAAAAAAA2AAAAAAAAAAAA2AAAAAA2AAAA22AA2AAAAAAAAAAAAAAA22A2AA
AAAAAAAAAAAAI2AAAAAAAAAAAA2AAAAAA2AAAA22AA2AAAAAAAAAAAAAAA22A2AA
AAAAAAAAAAAAI2AAAAAIAAAAAA2AAAAAA2AAAA22AA2AAAAAAAAAAAAAAA22A2AA
AAAAAAAAAAAII2AAAAAIAAAAAA2AAAAAA2AAAA22AA2AAAAAAAAAAAAAAA22A2AA
AAAAAAAAAAAII2AAAAAIAAAAAA2AAAAAA2AAAA22AA2AAAAAAAAAAAAAAA22AIAA
AAAAAAAAAAA442AAAAAIAAAAAA2AAAAAA2AAAA22AA2AAAAAAAAAAAAAAA22AIAA
AAAAAAAAAAAA22AAAAA4AAAAAA2AAAAAA2AAAA22AA2AAAAAAAAAAAAAAA22AIAA
AAAAAAAAAAAA22AAAAA4AAAAAA2AAAAAA2AAAA22AA2AAAAAAAAAAAAAAA22AAAA
AAAAAAAAAAAA22AAAAA4AAAAAA2AAAAAA2AAAA22AA2AAAAAAAIAAAAAAA22AAAA
AAAAAAAAAAAA22AAAAA4AAAAAA2AAAAAA2AAAI22AA2AAAAAAAIAAAAAAA22AAAA
AAAAAAAAAAAA22AAAAA4AAAAAA2AAAAAA2AAAA22AA2AAAAAAAIAAAAAAA22AAAA
AAAAAAAAAAAA22AAAAA4AAAAAA2AAAAAA2AAAI22AA2AAAAAAAIAAAAAAA22AAAA
AAAAAAAAAAAA22AAAAA4AAAAAA2AAAAAA2AAAI22AA2AAAAAAA2AAAAAAA22AAAA
AAAAAAAAAAAA22AAAAA2AAAAAA2AAAAAA2AAAI22AA2AAAAAAA2AAAAAAA22AAAA
AAAAAAAAAAAA22AAAAA2AAAAAA2AAAAAA2AAA422AA2AAAAAAA2AAAAAAA22AAAA
AAAAAAAAAAAA22AAAAA2AAAAAA2AAAAAAAAAA222AA2AAAAAAA2AAAAAAA22AAAA
AAAAAAAAAAAA22AAAAA2AAAAAA2AAAAAAAAAA222AA2AAAAAAA2AAAAAAAA2AAAA
AAAAAAAAAAAA22AAAAA2AAAAAA2AAAAAAAAAAA22AA2AAAAAAA2AAAAAAAA2AAAA
AAIAAAAAAAAA22AAAAA2AAAAAA2AAAAAAAAAAA22AA2AAAAAAA2AAAAAAAA2AAAA
AAIAAIAAAAAA22AAAAA2AAAAAA2AAAAAAAAAAA22AA2AAAAAAA2AAAAAAAA2AAAA
AAIAAIAAAAAA22AAAAA2AAAAAA2AAIAAAAAAAA22AA2AAAAAAA2AAAAAAAA2AAAA
AAIAAIAAAAAA22AAAAA2AAAAAA2AA2AAAAAAAA22AA2AAAAAAA2AAAAAAAA2AAAA
AAIAAAAAAAAA22AAAAA2AAAAAA2AA2AAAAAAAA22AA2AAAAAAA2AAAAAAAA2AAAA
AAIAAAAAAAAA22AAAAA2AAAAAA2AA2AAAAIAAA22AA2AAAAAAA2AAAAAAAA2AAAA
AAIAAAAAAAAA22AAAAA2AAAAAA2AA2AAAA2AAA22AA2AAAAAAA2AAAAAAAA2AAAA
AAIAAAAAAAAI22AAAAA2AAAAAA2AA2AAAA2AAA22AA2AAAAAAA2AAAAAAAA2AAAA
AAIAAAAAAAAI22AAAAA2AAAAAA2AA2AAAA2AAA22AA2AAAAAAA2AAAAAAAI2AAAA
AAIAAAAAAAA222AAAAA2AAAAAA2AA2AAAA2AAA22AA2AAAAAAA2AAAAAAAI2AAAA
AAIAAIAAAAA222AAAAA2AAAAAA2AA2AAAA2AAA22AA2AAAAAAA2AAAAAAAI2AAAA
AAIAAIAAAAA222AAAAA2AAAAAA2AA2AAAA2AAA22AAAAAAAAAA2AAAAAAA42AAAA
AAIAAIAAAAAA22AAAAA2AAAAAA2AA2AAAA2AAA22AAAAAAAAAA2AAAAAAA42AAAA
AAIAAIAAAAAA22AAAAAAAAAAAA2AA2AAAA2AAA22AAAAAAAAAA2AAAAAAA42AAAA
AAIAAIAAAAAA22AAAAAAAAAAAA2AA2AAAAAAAA22AAAAAAAAAA2AAAAAAA42AAAA
AAIAAIAAAAAA22AAAAAAAAAAAA2AA2AAAAAAAA22AAAAAAAAAA2AAAAAAAA2AAAA
AAIAAIAAAAAA22AAAAAAAAAAAA2AA2AAAAAAAA22AAAAAAAAAA2IAAAAAAA2AAAA
AAIAAIAAAAAA22AAAAAAAAAAAA2AA2AAAAAAAA22AAAAAAAAIA2IAAAAAAA2AAAA
[MLOP] Prefetch Degree Mean: 10.99659
[MLOP] Prefetch Degree SD: 2.61897
[MLOP] Max Score Left Mean (%): 52.92520
[MLOP] Max Score Left SD (%): 10.00014
[MLOP] Max Score Right Mean (%): 82.26172
[MLOP] Max Score Right SD (%): 12.33650

Channel_0_RQ_row_buffer_hit 308852
Channel_0_RQ_row_buffer_miss 814921
Channel_0_WQ_row_buffer_hit 192416
Channel_0_WQ_row_buffer_miss 195603
Channel_0_WQ_full 0
Channel_0_dbus_congested 402474

avg_congested_cycle 10

DRAM_bw_pochs 698081
DRAM_bw_level_0 613282
DRAM_bw_level_1 68718
DRAM_bw_level_2 8502
DRAM_bw_level_3 7579
