*************************************************
   ChampSim Multicore Out-of-Order Simulator
   Last compiled: Apr  3 2025 20:54:34
*************************************************
parsing config file: /home/zir/Pythia/config/pythia.ini

trace_0 /home/zir/ChampSim/ML-DPC/ChampSimTraces/spec06/433.milc-s1.trace.gz
adding L2C_PREFETCHER: Scooby
Initialize SHIP state
warmup_instructions 10000000
simulation_instructions 50000000
champsim_seed 164
measure_ipc 0
measure_ipc_epoch 1000
measure_dram_bw 1
measure_dram_bw_epoch 256
measure_cache_acc 1
measure_cache_acc_epoch 1024
l1d_perfect 0
l2c_perfect 0
llc_perfect 0
l1d_semi_perfect 0
l2c_semi_perfect 0
llc_semi_perfect 0
semi_perfect_cache_page_buffer_size 64

num_cpus 1
cpu_freq 4000
dram_io_freq 2400
page_size 4096
block_size 64
max_read_per_cycle 8
max_fill_per_cycle 1
dram_channels 1
log2_dram_channels 0
dram_ranks 1
dram_banks 8
dram_rows 65536
dram_columns 128
dram_row_size 8
dram_size 4096
dram_pages 1048576

fetch_width 6
decode_width 6
exec_width 4
lq_width 2
sq_width 2
retire_width 4
scheduler_size 128
branch_mispredict_penalty 20
rob_size 256
lq_size 72
sq_size 56
num_instr_destinations_sparc 4
num_instr_destinations 2
num_instr_sources 4

itlb_set 16
itlb_way 8
itlb_rq_size 16
itlb_wq_size 16
itlb_pq_size 0
itlb_mshr_size 8
itlb_latency 1

dtlb_set 16
dtlb_way 4
dtlb_rq_size 16
dtlb_wq_size 16
dtlb_pq_size 0
dtlb_mshr_size 8
dtlb_latency 1

stlb_set 128
stlb_way 12
stlb_rq_size 32
stlb_wq_size 32
stlb_pq_size 0
stlb_mshr_size 16
stlb_latency 8

l1i_size 32
l1i_set 64
l1i_way 8
l1i_rq_size 64
l1i_wq_size 64
l1i_pq_size 8
l1i_mshr_size 8
l1i_latency 1

l1d_size 32
l1d_set 64
l1d_way 8
l1d_rq_size 64
l1d_wq_size 64
l1d_pq_size 8
l1d_mshr_size 16
l1d_latency 4

l2c_size 256
l2c_set 512
l2c_way 8
l2c_rq_size 32
l2c_wq_size 32
l2c_pq_size 32
l2c_mshr_size 32
l2c_latency 10

llc_size 2048
llc_set 2048
llc_way 16
llc_rq_size 32
llc_wq_size 32
llc_pq_size 32
llc_mshr_size 64
llc_latency 20

dram_channel_width 8
dram_wq_size 64
dram_rq_size 64
tRP 15
tRCD 15
tCAS 12.5
dram_dbus_turn_around_time 30
dram_write_high_wm 56
dram_write_low_wm 48
min_dram_writes_per_switch 16
dram_mtps 2400
dram_dbus_return_time 13

scooby_alpha 0.0065088
scooby_gamma 0.556301
scooby_epsilon 0.00182284
scooby_state_num_bits 10
scooby_max_states 1024
scooby_seed 200
scooby_policy EGreedy
scooby_learning_type SARSA
scooby_actions 1,3,4,5,10,11,12,22,23,30,32,-1,-3,-6,0,
scooby_max_actions 15
scooby_pt_size 256
scooby_st_size 64
scooby_max_pcs 5
scooby_max_offsets 5
scooby_max_deltas 5
scooby_reward_none -4
scooby_reward_incorrect -8
scooby_reward_correct_untimely 12
scooby_reward_correct_timely 20
scooby_brain_zero_init 0
scooby_enable_reward_all 0
scooby_enable_track_multiple 0
scooby_enable_reward_out_of_bounds 1
scooby_reward_out_of_bounds -12
scooby_state_type 1
scooby_state_hash_type 11
scooby_access_debug 0
scooby_print_access_debug 0
scooby_print_access_debug_pc deadbeef
scooby_print_access_debug_pc_count 0
scooby_print_trace 0
scooby_enable_state_action_stats 1
scooby_enable_reward_tracker_hit 0
scooby_reward_tracker_hit -2
scooby_enable_featurewise_engine 1
scooby_pref_degree 1
scooby_enable_dyn_degree 1
scooby_max_to_avg_q_thresholds 0.5,1,2,
scooby_dyn_degrees 1,2,4,4,
scooby_multi_deg_select_type 2
scooby_last_pref_offset_conf_thresholds 1,3,8,
scooby_dyn_degrees_type2 1,2,4,6,
scooby_action_tracker_size 2
scooby_high_bw_thresh 4
scooby_enable_hbw_reward 1
scooby_reward_hbw_correct_timely 20
scooby_reward_hbw_correct_untimely 12
scooby_reward_hbw_incorrect -14
scooby_reward_hbw_none -2
scooby_reward_hbw_out_of_bounds -12
scooby_reward_hbw_tracker_hit -2
scooby_last_pref_offset_conf_thresholds_hbw 1,3,8,
scooby_dyn_degrees_type2_hbw 1,2,4,6,

le_enable_trace 0
le_trace_interval 0
le_trace_file_name 
le_trace_state 0
le_enable_score_plot 0
le_plot_file_name 
le_plot_actions 
le_enable_action_trace 0
le_action_trace_interval 0
le_action_trace_name 
le_enable_action_plot 0

le_featurewise_active_features PC, PC_Delta
le_featurewise_num_tilings 3,3,
le_featurewise_num_tiles 128,128,
le_featurewise_hash_types 2,2,
le_featurewise_enable_tiling_offset 1,1,
le_featurewise_max_q_thresh 0.5
le_featurewise_enable_action_fallback 1
le_featurewise_feature_weights 1,1,
le_featurewise_enable_dynamic_weight 0
le_featurewise_weight_gradient 0.001
le_featurewise_disable_adjust_weight_all_features_align 1
le_featurewise_selective_update 0
le_featurewise_pooling_type 2
le_featurewise_enable_dyn_action_fallback 1
le_featurewise_bw_acc_check_level 1
le_featurewise_acc_thresh 2
le_featurewise_enable_trace 0
le_featurewise_trace_feature_type 0
le_featurewise_trace_feature 
le_featurewise_trace_interval 0
le_featurewise_trace_record_count 0
le_featurewise_trace_file_name 
le_featurewise_enable_score_plot 0
le_featurewise_plot_actions 
le_featurewise_plot_file_name 


Heartbeat CPU  0 instructions:    1000002 cycles:     406778 heartbeat IPC: 2.45835 cumulative IPC: 2.45835 (Simulation time: 0 hr 0 min 2 sec) 
Heartbeat CPU  0 instructions:    2000002 cycles:     840001 heartbeat IPC: 2.30828 cumulative IPC: 2.38095 (Simulation time: 0 hr 0 min 3 sec) 
Heartbeat CPU  0 instructions:    3000003 cycles:    1329285 heartbeat IPC: 2.04380 cumulative IPC: 2.25685 (Simulation time: 0 hr 0 min 6 sec) 
Heartbeat CPU  0 instructions:    4000000 cycles:    1818600 heartbeat IPC: 2.04367 cumulative IPC: 2.19949 (Simulation time: 0 hr 0 min 8 sec) 
Heartbeat CPU  0 instructions:    5000000 cycles:    2276261 heartbeat IPC: 2.18502 cumulative IPC: 2.19658 (Simulation time: 0 hr 0 min 11 sec) 
Heartbeat CPU  0 instructions:    6000003 cycles:    2689695 heartbeat IPC: 2.41877 cumulative IPC: 2.23074 (Simulation time: 0 hr 0 min 12 sec) 
Heartbeat CPU  0 instructions:    7000002 cycles:    3103045 heartbeat IPC: 2.41925 cumulative IPC: 2.25585 (Simulation time: 0 hr 0 min 14 sec) 
Heartbeat CPU  0 instructions:    8000000 cycles:    3516463 heartbeat IPC: 2.41885 cumulative IPC: 2.27501 (Simulation time: 0 hr 0 min 16 sec) 
Heartbeat CPU  0 instructions:    9000003 cycles:    3929844 heartbeat IPC: 2.41908 cumulative IPC: 2.29017 (Simulation time: 0 hr 0 min 18 sec) 
Heartbeat CPU  0 instructions:   10000002 cycles:    4343248 heartbeat IPC: 2.41894 cumulative IPC: 2.30242 (Simulation time: 0 hr 0 min 20 sec) 

Warmup complete CPU  0 instructions:   10000002 cycles:    4343248 (Simulation time: 0 hr 0 min 20 sec) 

Heartbeat CPU  0 instructions:   11000002 cycles:    5963901 heartbeat IPC: 0.61704 cumulative IPC: 0.61704 (Simulation time: 0 hr 0 min 22 sec) 
Heartbeat CPU  0 instructions:   12000000 cycles:    7585994 heartbeat IPC: 0.61649 cumulative IPC: 0.61676 (Simulation time: 0 hr 0 min 24 sec) 
Heartbeat CPU  0 instructions:   13000003 cycles:    9211466 heartbeat IPC: 0.61521 cumulative IPC: 0.61624 (Simulation time: 0 hr 0 min 27 sec) 
Heartbeat CPU  0 instructions:   14000002 cycles:   10834137 heartbeat IPC: 0.61627 cumulative IPC: 0.61625 (Simulation time: 0 hr 0 min 29 sec) 
Heartbeat CPU  0 instructions:   15000001 cycles:   12455737 heartbeat IPC: 0.61667 cumulative IPC: 0.61633 (Simulation time: 0 hr 0 min 31 sec) 
Heartbeat CPU  0 instructions:   16000000 cycles:   14077467 heartbeat IPC: 0.61662 cumulative IPC: 0.61638 (Simulation time: 0 hr 0 min 34 sec) 
Heartbeat CPU  0 instructions:   17000002 cycles:   15700597 heartbeat IPC: 0.61609 cumulative IPC: 0.61634 (Simulation time: 0 hr 0 min 36 sec) 
Heartbeat CPU  0 instructions:   18000000 cycles:   17325107 heartbeat IPC: 0.61557 cumulative IPC: 0.61624 (Simulation time: 0 hr 0 min 38 sec) 
Heartbeat CPU  0 instructions:   19000002 cycles:   18944284 heartbeat IPC: 0.61760 cumulative IPC: 0.61639 (Simulation time: 0 hr 0 min 40 sec) 
Heartbeat CPU  0 instructions:   20000000 cycles:   20566964 heartbeat IPC: 0.61626 cumulative IPC: 0.61638 (Simulation time: 0 hr 0 min 43 sec) 
Heartbeat CPU  0 instructions:   21000002 cycles:   22188407 heartbeat IPC: 0.61674 cumulative IPC: 0.61641 (Simulation time: 0 hr 0 min 45 sec) 
Heartbeat CPU  0 instructions:   22000000 cycles:   23815941 heartbeat IPC: 0.61443 cumulative IPC: 0.61625 (Simulation time: 0 hr 0 min 47 sec) 
Heartbeat CPU  0 instructions:   23000002 cycles:   25437961 heartbeat IPC: 0.61652 cumulative IPC: 0.61627 (Simulation time: 0 hr 0 min 50 sec) 
Heartbeat CPU  0 instructions:   24000000 cycles:   27062102 heartbeat IPC: 0.61571 cumulative IPC: 0.61623 (Simulation time: 0 hr 0 min 52 sec) 
Heartbeat CPU  0 instructions:   25000001 cycles:   28679483 heartbeat IPC: 0.61828 cumulative IPC: 0.61636 (Simulation time: 0 hr 0 min 54 sec) 
Heartbeat CPU  0 instructions:   26000002 cycles:   30306412 heartbeat IPC: 0.61466 cumulative IPC: 0.61626 (Simulation time: 0 hr 0 min 57 sec) 
Heartbeat CPU  0 instructions:   27000002 cycles:   31929739 heartbeat IPC: 0.61602 cumulative IPC: 0.61624 (Simulation time: 0 hr 0 min 59 sec) 
Heartbeat CPU  0 instructions:   28000000 cycles:   33537185 heartbeat IPC: 0.62210 cumulative IPC: 0.61657 (Simulation time: 0 hr 1 min 1 sec) 
Heartbeat CPU  0 instructions:   29000002 cycles:   35164441 heartbeat IPC: 0.61453 cumulative IPC: 0.61646 (Simulation time: 0 hr 1 min 4 sec) 
Heartbeat CPU  0 instructions:   30000000 cycles:   36790796 heartbeat IPC: 0.61487 cumulative IPC: 0.61638 (Simulation time: 0 hr 1 min 6 sec) 
Heartbeat CPU  0 instructions:   31000000 cycles:   38416506 heartbeat IPC: 0.61512 cumulative IPC: 0.61632 (Simulation time: 0 hr 1 min 8 sec) 
Heartbeat CPU  0 instructions:   32000000 cycles:   40045657 heartbeat IPC: 0.61382 cumulative IPC: 0.61620 (Simulation time: 0 hr 1 min 11 sec) 
Heartbeat CPU  0 instructions:   33000000 cycles:   41673846 heartbeat IPC: 0.61418 cumulative IPC: 0.61612 (Simulation time: 0 hr 1 min 13 sec) 
Heartbeat CPU  0 instructions:   34000000 cycles:   43299069 heartbeat IPC: 0.61530 cumulative IPC: 0.61608 (Simulation time: 0 hr 1 min 15 sec) 
Heartbeat CPU  0 instructions:   35000002 cycles:   44925507 heartbeat IPC: 0.61484 cumulative IPC: 0.61603 (Simulation time: 0 hr 1 min 18 sec) 
Heartbeat CPU  0 instructions:   36000000 cycles:   46554177 heartbeat IPC: 0.61400 cumulative IPC: 0.61595 (Simulation time: 0 hr 1 min 20 sec) 
Heartbeat CPU  0 instructions:   37000000 cycles:   48185625 heartbeat IPC: 0.61295 cumulative IPC: 0.61584 (Simulation time: 0 hr 1 min 22 sec) 
Heartbeat CPU  0 instructions:   38000000 cycles:   49812804 heartbeat IPC: 0.61456 cumulative IPC: 0.61580 (Simulation time: 0 hr 1 min 25 sec) 
Heartbeat CPU  0 instructions:   39000003 cycles:   51440884 heartbeat IPC: 0.61422 cumulative IPC: 0.61574 (Simulation time: 0 hr 1 min 27 sec) 
Heartbeat CPU  0 instructions:   40000000 cycles:   53066550 heartbeat IPC: 0.61513 cumulative IPC: 0.61572 (Simulation time: 0 hr 1 min 29 sec) 
Heartbeat CPU  0 instructions:   41000002 cycles:   54692521 heartbeat IPC: 0.61502 cumulative IPC: 0.61570 (Simulation time: 0 hr 1 min 32 sec) 
Heartbeat CPU  0 instructions:   42000003 cycles:   56320349 heartbeat IPC: 0.61432 cumulative IPC: 0.61566 (Simulation time: 0 hr 1 min 34 sec) 
Heartbeat CPU  0 instructions:   43000000 cycles:   57946255 heartbeat IPC: 0.61504 cumulative IPC: 0.61564 (Simulation time: 0 hr 1 min 36 sec) 
Heartbeat CPU  0 instructions:   44000000 cycles:   59577057 heartbeat IPC: 0.61320 cumulative IPC: 0.61556 (Simulation time: 0 hr 1 min 39 sec) 
Heartbeat CPU  0 instructions:   45000000 cycles:   61203654 heartbeat IPC: 0.61478 cumulative IPC: 0.61554 (Simulation time: 0 hr 1 min 41 sec) 
Heartbeat CPU  0 instructions:   46000000 cycles:   62830799 heartbeat IPC: 0.61457 cumulative IPC: 0.61552 (Simulation time: 0 hr 1 min 43 sec) 
Heartbeat CPU  0 instructions:   47000002 cycles:   64461349 heartbeat IPC: 0.61329 cumulative IPC: 0.61546 (Simulation time: 0 hr 1 min 45 sec) 
Heartbeat CPU  0 instructions:   48000000 cycles:   66085938 heartbeat IPC: 0.61554 cumulative IPC: 0.61546 (Simulation time: 0 hr 1 min 48 sec) 
Heartbeat CPU  0 instructions:   49000001 cycles:   67715120 heartbeat IPC: 0.61381 cumulative IPC: 0.61541 (Simulation time: 0 hr 1 min 50 sec) 
Heartbeat CPU  0 instructions:   50000002 cycles:   69342114 heartbeat IPC: 0.61463 cumulative IPC: 0.61540 (Simulation time: 0 hr 1 min 52 sec) 
Heartbeat CPU  0 instructions:   51000002 cycles:   70974901 heartbeat IPC: 0.61245 cumulative IPC: 0.61532 (Simulation time: 0 hr 1 min 55 sec) 
Heartbeat CPU  0 instructions:   52000000 cycles:   73026509 heartbeat IPC: 0.48742 cumulative IPC: 0.61150 (Simulation time: 0 hr 1 min 58 sec) 
Heartbeat CPU  0 instructions:   53000001 cycles:   74750166 heartbeat IPC: 0.58016 cumulative IPC: 0.61074 (Simulation time: 0 hr 2 min 1 sec) 
Heartbeat CPU  0 instructions:   54000001 cycles:   76388593 heartbeat IPC: 0.61034 cumulative IPC: 0.61073 (Simulation time: 0 hr 2 min 3 sec) 
Heartbeat CPU  0 instructions:   55000002 cycles:   78303577 heartbeat IPC: 0.52220 cumulative IPC: 0.60843 (Simulation time: 0 hr 2 min 6 sec) 
Heartbeat CPU  0 instructions:   56000000 cycles:   80230072 heartbeat IPC: 0.51908 cumulative IPC: 0.60617 (Simulation time: 0 hr 2 min 9 sec) 
Heartbeat CPU  0 instructions:   57000000 cycles:   82120562 heartbeat IPC: 0.52896 cumulative IPC: 0.60429 (Simulation time: 0 hr 2 min 12 sec) 
Heartbeat CPU  0 instructions:   58000003 cycles:   84073236 heartbeat IPC: 0.51212 cumulative IPC: 0.60203 (Simulation time: 0 hr 2 min 15 sec) 
Heartbeat CPU  0 instructions:   59000001 cycles:   85894539 heartbeat IPC: 0.54906 cumulative IPC: 0.60085 (Simulation time: 0 hr 2 min 18 sec) 
Heartbeat CPU  0 instructions:   60000000 cycles:   87606267 heartbeat IPC: 0.58420 cumulative IPC: 0.60051 (Simulation time: 0 hr 2 min 20 sec) 
Finished CPU 0 instructions: 50000003 cycles: 83263035 cumulative IPC: 0.60051 (Simulation time: 0 hr 2 min 20 sec) 

ChampSim completed all CPUs

[ROI Statistics]
Core_0_instructions 50000003
Core_0_cycles 83263035
Core_0_IPC 0.60051

Core_0_branch_prediction_accuracy 99.99810
Core_0_branch_MPKI 0.00032
Core_0_average_ROB_occupancy_at_mispredict 93.75000

Core_0_L1D_total_access 15934385
Core_0_L1D_total_hit 15029752
Core_0_L1D_total_miss 904633
Core_0_L1D_loads 4771289
Core_0_L1D_load_hit 3866661
Core_0_L1D_load_miss 904628
Core_0_L1D_RFOs 11163096
Core_0_L1D_RFO_hit 11163091
Core_0_L1D_RFO_miss 5
Core_0_L1D_prefetches 0
Core_0_L1D_prefetch_hit 0
Core_0_L1D_prefetch_miss 0
Core_0_L1D_writebacks 0
Core_0_L1D_writeback_hit 0
Core_0_L1D_writeback_miss 0
Core_0_L1D_prefetch_requested 0
Core_0_L1D_prefetch_dropped 0
Core_0_L1D_prefetch_issued 0
Core_0_L1D_prefetch_filled 0
Core_0_L1D_prefetch_useful 0
Core_0_L1D_prefetch_useless 0
Core_0_L1D_prefetch_late 0
Core_0_L1D_average_miss_latency 103.83074

Core_0_L1D_rq_access 11596824
Core_0_L1D_rq_forward 0
Core_0_L1D_rq_merged 6606958
Core_0_L1D_rq_to_cache 4986092
Core_0_L1D_rq_full 0

Core_0_L1D_wq_access 11163109
Core_0_L1D_wq_forward 3774
Core_0_L1D_wq_merged 0
Core_0_L1D_wq_to_cache 11163109
Core_0_L1D_wq_full 0

Core_0_L1D_pq_access 0
Core_0_L1D_pq_forward 0
Core_0_L1D_pq_merged 0
Core_0_L1D_pq_to_cache 0
Core_0_L1D_pq_full 0

Core_0_L1D_acc_epochs 77716
Core_0_L1D_acc_level_0 77716
Core_0_L1D_acc_level_1 0
Core_0_L1D_acc_level_2 0
Core_0_L1D_acc_level_3 0
Core_0_L1D_acc_level_4 0
Core_0_L1D_acc_level_5 0
Core_0_L1D_acc_level_6 0
Core_0_L1D_acc_level_7 0
Core_0_L1D_acc_level_8 0
Core_0_L1D_acc_level_9 0

Core_0_L1I_total_access 11900009
Core_0_L1I_total_hit 11899997
Core_0_L1I_total_miss 12
Core_0_L1I_loads 11900009
Core_0_L1I_load_hit 11899997
Core_0_L1I_load_miss 12
Core_0_L1I_RFOs 0
Core_0_L1I_RFO_hit 0
Core_0_L1I_RFO_miss 0
Core_0_L1I_prefetches 0
Core_0_L1I_prefetch_hit 0
Core_0_L1I_prefetch_miss 0
Core_0_L1I_writebacks 0
Core_0_L1I_writeback_hit 0
Core_0_L1I_writeback_miss 0
Core_0_L1I_prefetch_requested 0
Core_0_L1I_prefetch_dropped 0
Core_0_L1I_prefetch_issued 0
Core_0_L1I_prefetch_filled 0
Core_0_L1I_prefetch_useful 0
Core_0_L1I_prefetch_useless 0
Core_0_L1I_prefetch_late 0
Core_0_L1I_average_miss_latency 152.75000

Core_0_L1I_rq_access 50000007
Core_0_L1I_rq_forward 0
Core_0_L1I_rq_merged 38099992
Core_0_L1I_rq_to_cache 11900015
Core_0_L1I_rq_full 0

Core_0_L1I_wq_access 0
Core_0_L1I_wq_forward 0
Core_0_L1I_wq_merged 0
Core_0_L1I_wq_to_cache 0
Core_0_L1I_wq_full 0

Core_0_L1I_pq_access 0
Core_0_L1I_pq_forward 0
Core_0_L1I_pq_merged 0
Core_0_L1I_pq_to_cache 0
Core_0_L1I_pq_full 0

Core_0_L1I_acc_epochs 77716
Core_0_L1I_acc_level_0 77716
Core_0_L1I_acc_level_1 0
Core_0_L1I_acc_level_2 0
Core_0_L1I_acc_level_3 0
Core_0_L1I_acc_level_4 0
Core_0_L1I_acc_level_5 0
Core_0_L1I_acc_level_6 0
Core_0_L1I_acc_level_7 0
Core_0_L1I_acc_level_8 0
Core_0_L1I_acc_level_9 0

Core_0_L2C_total_access 2991599
Core_0_L2C_total_hit 2080697
Core_0_L2C_total_miss 910902
Core_0_L2C_loads 904640
Core_0_L2C_load_hit 480010
Core_0_L2C_load_miss 424630
Core_0_L2C_RFOs 5
Core_0_L2C_RFO_hit 0
Core_0_L2C_RFO_miss 5
Core_0_L2C_prefetches 1671564
Core_0_L2C_prefetch_hit 1185308
Core_0_L2C_prefetch_miss 486256
Core_0_L2C_writebacks 415390
Core_0_L2C_writeback_hit 415379
Core_0_L2C_writeback_miss 11
Core_0_L2C_prefetch_requested 3319398
Core_0_L2C_prefetch_dropped 0
Core_0_L2C_prefetch_issued 3319398
Core_0_L2C_prefetch_filled 683498
Core_0_L2C_prefetch_useful 673888
Core_0_L2C_prefetch_useless 9407
Core_0_L2C_prefetch_late 188872
Core_0_L2C_average_miss_latency 236.02091

Core_0_L2C_rq_access 904644
Core_0_L2C_rq_forward 0
Core_0_L2C_rq_merged 0
Core_0_L2C_rq_to_cache 904644
Core_0_L2C_rq_full 0

Core_0_L2C_wq_access 415390
Core_0_L2C_wq_forward 0
Core_0_L2C_wq_merged 0
Core_0_L2C_wq_to_cache 415390
Core_0_L2C_wq_full 0

Core_0_L2C_pq_access 3319398
Core_0_L2C_pq_forward 0
Core_0_L2C_pq_merged 285236
Core_0_L2C_pq_to_cache 3034162
Core_0_L2C_pq_full 0

Core_0_L2C_acc_epochs 77716
Core_0_L2C_acc_level_0 1
Core_0_L2C_acc_level_1 0
Core_0_L2C_acc_level_2 3
Core_0_L2C_acc_level_3 29
Core_0_L2C_acc_level_4 195
Core_0_L2C_acc_level_5 855
Core_0_L2C_acc_level_6 3220
Core_0_L2C_acc_level_7 8461
Core_0_L2C_acc_level_8 12398
Core_0_L2C_acc_level_9 52554

Core_0_LLC_total_access 1326287
Core_0_LLC_total_hit 12699
Core_0_LLC_total_miss 1313588
Core_0_LLC_loads 243234
Core_0_LLC_load_hit 4
Core_0_LLC_load_miss 243230
Core_0_LLC_RFOs 5
Core_0_LLC_RFO_hit 0
Core_0_LLC_RFO_miss 5
Core_0_LLC_prefetches 667653
Core_0_LLC_prefetch_hit 2
Core_0_LLC_prefetch_miss 667651
Core_0_LLC_writebacks 415395
Core_0_LLC_writeback_hit 12693
Core_0_LLC_writeback_miss 402702
Core_0_LLC_prefetch_requested 0
Core_0_LLC_prefetch_dropped 0
Core_0_LLC_prefetch_issued 0
Core_0_LLC_prefetch_filled 872015
Core_0_LLC_prefetch_useful 3
Core_0_LLC_prefetch_useless 869258
Core_0_LLC_prefetch_late 0
Core_0_LLC_average_miss_latency 153.59490

Core_0_LLC_rq_access 243238
Core_0_LLC_rq_forward 0
Core_0_LLC_rq_merged 0
Core_0_LLC_rq_to_cache 243238
Core_0_LLC_rq_full 0

Core_0_LLC_wq_access 415395
Core_0_LLC_wq_forward 0
Core_0_LLC_wq_merged 0
Core_0_LLC_wq_to_cache 415395
Core_0_LLC_wq_full 0

Core_0_LLC_pq_access 872371
Core_0_LLC_pq_forward 0
Core_0_LLC_pq_merged 0
Core_0_LLC_pq_to_cache 872371
Core_0_LLC_pq_full 0

Core_0_LLC_acc_epochs 85554
Core_0_LLC_acc_level_0 85552
Core_0_LLC_acc_level_1 1
Core_0_LLC_acc_level_2 1
Core_0_LLC_acc_level_3 0
Core_0_LLC_acc_level_4 0
Core_0_LLC_acc_level_5 0
Core_0_LLC_acc_level_6 0
Core_0_LLC_acc_level_7 0
Core_0_LLC_acc_level_8 0
Core_0_LLC_acc_level_9 0

Core_0_major_page_fault 0
Core_0_minor_page_fault 89944

scooby_st_lookup 1143374
scooby_st_hit 1049513
scooby_st_evict 93797
scooby_st_insert 93861
scooby_st_streaming 0

scooby_predict_called 1143374
scooby_predict_out_of_bounds 103538
scooby_predict_action_1 727967
scooby_predict_issue_action_1 642358
scooby_predict_hit_action_1 85609
scooby_predict_out_of_bounds_action_1 8740
scooby_predict_action_3 299
scooby_predict_issue_action_3 285
scooby_predict_hit_action_3 14
scooby_predict_out_of_bounds_action_3 3
scooby_predict_action_4 296
scooby_predict_issue_action_4 289
scooby_predict_hit_action_4 7
scooby_predict_out_of_bounds_action_4 4
scooby_predict_action_5 300
scooby_predict_issue_action_5 287
scooby_predict_hit_action_5 13
scooby_predict_out_of_bounds_action_5 2
scooby_predict_action_10 67134
scooby_predict_issue_action_10 67086
scooby_predict_hit_action_10 48
scooby_predict_out_of_bounds_action_10 11698
scooby_predict_action_11 159428
scooby_predict_issue_action_11 159419
scooby_predict_hit_action_11 9
scooby_predict_out_of_bounds_action_11 10
scooby_predict_action_12 755
scooby_predict_issue_action_12 177
scooby_predict_hit_action_12 578
scooby_predict_out_of_bounds_action_12 11
scooby_predict_action_22 152
scooby_predict_issue_action_22 152
scooby_predict_hit_action_22 0
scooby_predict_out_of_bounds_action_22 72
scooby_predict_action_23 104
scooby_predict_issue_action_23 104
scooby_predict_hit_action_23 0
scooby_predict_out_of_bounds_action_23 47
scooby_predict_action_30 111
scooby_predict_issue_action_30 111
scooby_predict_hit_action_30 0
scooby_predict_out_of_bounds_action_30 96
scooby_predict_action_32 82795
scooby_predict_issue_action_32 82795
scooby_predict_hit_action_32 0
scooby_predict_out_of_bounds_action_32 82805
scooby_predict_action_-1 123
scooby_predict_issue_action_-1 39
scooby_predict_hit_action_-1 84
scooby_predict_out_of_bounds_action_-1 14
scooby_predict_action_-3 117
scooby_predict_issue_action_-3 51
scooby_predict_hit_action_-3 66
scooby_predict_out_of_bounds_action_-3 22
scooby_predict_action_-6 112
scooby_predict_issue_action_-6 50
scooby_predict_hit_action_-6 62
scooby_predict_out_of_bounds_action_-6 14
scooby_predict_action_0 143
scooby_predict_issue_action_0 0
scooby_predict_hit_action_0 0
scooby_predict_out_of_bounds_action_0 0
scooby_predict_multi_deg_called 574483
scooby_predict_predicted 3319398
scooby_predict_multi_deg 2366195
scooby_predict_multi_deg_2 554000
scooby_predict_multi_deg_3 504745
scooby_predict_multi_deg_4 484545
scooby_predict_multi_deg_5 416110
scooby_predict_multi_deg_6 406795
scooby_predict_multi_deg_7 0
scooby_predict_multi_deg_8 0
scooby_predict_multi_deg_9 0
scooby_predict_multi_deg_10 0
scooby_predict_multi_deg_11 0
scooby_predict_multi_deg_12 0
scooby_predict_multi_deg_13 0
scooby_predict_multi_deg_14 0
scooby_predict_multi_deg_15 0
scooby_predict_multi_deg_16 0

scooby_selected_deg_1 378720
scooby_selected_deg_2 28925
scooby_selected_deg_3 0
scooby_selected_deg_4 69713
scooby_selected_deg_5 0
scooby_selected_deg_6 475845
scooby_selected_deg_7 0
scooby_selected_deg_8 0
scooby_selected_deg_9 0
scooby_selected_deg_10 0
scooby_selected_deg_11 0
scooby_selected_deg_12 0
scooby_selected_deg_13 0
scooby_selected_deg_14 0
scooby_selected_deg_15 0
scooby_selected_deg_16 0

scooby_state_419400|12|1 33,35,40,40,41,42,40,36,7,38,82740,13,15,4,13,83137,
scooby_state_4193e0|11|11 82987,7,15,8,10,11,6,15,14,11,9,12,10,12,10,83137,
scooby_state_419400|44|1 36,33,34,39,43,44,41,37,9,36,82752,6,7,9,10,83136,
scooby_state_4193e0|43|11 82998,9,7,12,6,8,11,11,11,13,8,11,9,11,11,83136,
scooby_state_415270|0|0 221,12,6,16,9,79636,10,11,6,12,12,13,18,6,12,80000,
scooby_state_415270|32|20 150,42,45,35,22,79623,12,11,9,10,7,9,8,8,9,80000,
scooby_state_414cc8|0|0 3133,0,0,1,0,0,0,0,0,0,0,1,1,0,1,3137,
scooby_state_414cc8|32|20 552,2,0,0,1989,0,566,17,8,0,1,1,0,0,0,3136,
scooby_state_41872c|49|1 1851,1,1,0,2,0,0,0,0,1,0,0,1,0,1,1858,
scooby_state_41872c|17|1 1836,1,0,0,0,0,0,0,0,0,0,0,0,0,0,1837,
scooby_state_41872c|5|1 1728,0,0,0,0,0,0,0,0,0,2,0,0,0,0,1730,
scooby_state_41872c|63|1 1266,0,0,1,0,0,0,0,2,0,1,0,0,0,0,1270,
scooby_state_41872c|8|1 1246,0,1,1,0,1,0,0,0,0,0,0,1,0,0,1250,
scooby_state_4186d0|31|1 1249,0,0,0,0,0,0,0,0,0,0,0,0,0,1,1250,
scooby_state_4186d0|63|1 1247,0,0,0,0,0,0,0,0,0,1,0,0,1,0,1249,
scooby_state_41872c|31|1 1235,0,0,0,0,0,0,1,0,0,0,0,0,0,0,1236,
scooby_state_41872c|58|1 1221,0,0,0,0,1,0,0,0,0,0,0,0,0,0,1222,
scooby_state_41872c|26|1 1200,0,0,0,0,0,0,0,0,0,0,0,0,0,0,1200,
scooby_state_41872c|6|1 1161,0,0,0,0,0,0,0,0,0,2,0,0,0,0,1163,
scooby_state_41872c|1|1 1161,0,0,0,0,0,0,0,0,0,0,0,0,0,0,1161,
scooby_state_41872c|40|1 1146,0,0,0,0,0,0,0,0,0,0,0,1,0,1,1148,
scooby_state_4175a8|4|1 35,35,35,39,524,0,0,0,0,0,2,0,0,0,0,670,
scooby_state_417409|34|30 669,0,0,1,0,0,0,0,0,0,0,0,0,0,0,670,
scooby_state_417409|2|0 669,0,0,0,0,0,0,0,0,0,1,0,0,0,0,670,
scooby_state_417418|35|1 668,0,0,1,0,0,0,0,0,0,1,0,0,0,0,670,
scooby_state_4175a8|36|1 35,35,34,40,526,0,0,0,0,0,0,0,0,0,0,670,
scooby_state_417418|3|1 670,0,0,0,0,0,0,0,0,0,0,0,0,0,0,670,
scooby_state_418e00|24|1 649,0,0,0,0,0,0,0,0,0,0,1,0,0,0,650,
scooby_state_418e00|18|1 648,1,0,0,0,0,0,0,0,0,0,0,1,0,0,650,
scooby_state_418f47|22|1 649,0,0,0,0,0,0,0,1,0,0,0,0,0,0,650,
scooby_state_418dd0|24|1 650,0,0,0,0,0,0,0,0,0,0,0,0,0,0,650,
scooby_state_418df1|23|1 650,0,0,0,0,0,0,0,0,0,0,0,0,0,0,650,
scooby_state_418dd0|23|1 650,0,0,0,0,0,0,0,0,0,0,0,0,0,0,650,
scooby_state_418dd0|20|1 650,0,0,0,0,0,0,0,0,0,0,0,0,0,0,650,
scooby_state_418df1|22|1 647,0,0,0,0,0,1,1,0,0,0,1,0,0,0,650,
scooby_state_418e91|9|1 0,0,0,1,649,0,0,0,0,0,0,0,0,0,0,650,
scooby_state_418dd9|25|1 648,0,0,1,0,0,0,0,0,1,0,0,0,0,0,650,
scooby_state_418e91|24|1 0,0,0,0,650,0,0,0,0,0,0,0,0,0,0,650,
scooby_state_418df1|14|1 647,1,0,0,0,0,0,0,0,0,1,0,0,0,1,650,
scooby_state_418df1|26|1 650,0,0,0,0,0,0,0,0,0,0,0,0,0,0,650,
scooby_state_418e00|27|1 647,1,1,0,0,0,0,1,0,0,0,0,0,0,0,650,
scooby_state_418dd0|26|1 650,0,0,0,0,0,0,0,0,0,0,0,0,0,0,650,
scooby_state_418dd9|28|1 650,0,0,0,0,0,0,0,0,0,0,0,0,0,0,650,
scooby_state_418e91|27|1 0,0,0,0,650,0,0,0,0,0,0,0,0,0,0,650,
scooby_state_418f47|11|1 649,0,0,0,0,0,0,0,1,0,0,0,0,0,0,650,
scooby_state_418f47|2|1 645,0,0,0,0,2,0,0,3,0,0,0,0,0,0,650,
scooby_state_418f47|28|1 648,0,1,0,0,0,0,0,0,1,0,0,0,0,0,650,
scooby_state_418e00|30|1 649,0,0,0,0,0,0,0,0,0,0,0,1,0,0,650,
scooby_state_418f47|53|1 649,0,0,0,0,0,0,0,0,0,0,0,0,1,0,650,
scooby_state_418dd0|8|1 649,0,0,0,0,0,0,1,0,0,0,0,0,0,0,650,
scooby_state_418df1|5|1 648,0,0,0,0,1,0,0,0,0,0,0,0,0,1,650,
scooby_state_418f47|4|1 648,0,0,1,0,0,0,0,0,0,0,0,0,0,1,650,
scooby_state_418e00|6|1 650,0,0,0,0,0,0,0,0,0,0,0,0,0,0,650,
scooby_state_418dd0|5|1 648,0,0,0,1,0,0,0,0,0,0,0,1,0,0,650,
scooby_state_418e91|18|1 0,0,1,0,647,0,0,0,1,0,0,0,1,0,0,650,
scooby_state_418dd9|4|1 648,2,0,0,0,0,0,0,0,0,0,0,0,0,0,650,
scooby_state_418e91|6|1 0,0,0,0,649,0,0,1,0,0,0,0,0,0,0,650,
scooby_state_418f47|19|1 649,0,0,0,0,0,0,0,0,0,0,1,0,0,0,650,
scooby_state_418df1|8|1 648,0,0,0,1,0,1,0,0,0,0,0,0,0,0,650,
scooby_state_418df1|10|1 647,0,0,0,1,0,0,0,0,0,0,0,0,1,1,650,
scooby_state_418e91|1|1 0,1,0,0,649,0,0,0,0,0,0,0,0,0,0,650,
scooby_state_418f47|7|1 649,0,0,0,0,0,0,0,0,0,0,0,0,1,0,650,
scooby_state_418dd9|16|1 648,0,0,1,0,0,0,0,0,1,0,0,0,0,0,650,
scooby_state_418f47|16|1 649,0,0,0,0,0,1,0,0,0,0,0,0,0,0,650,
scooby_state_418df1|11|1 650,0,0,0,0,0,0,0,0,0,0,0,0,0,0,650,
scooby_state_418f47|10|1 649,0,0,0,1,0,0,0,0,0,0,0,0,0,0,650,
scooby_state_418e00|12|1 649,0,0,0,0,0,0,0,0,1,0,0,0,0,0,650,
scooby_state_418dd0|11|1 647,0,1,0,0,0,0,0,0,0,0,1,0,1,0,650,
scooby_state_418dd9|13|1 649,0,0,0,0,0,0,0,0,0,0,0,1,0,0,650,
scooby_state_418e91|62|1 0,0,0,0,649,0,0,0,0,0,0,0,1,0,0,650,
scooby_state_418e91|12|1 0,0,1,0,649,0,0,0,0,0,0,0,0,0,0,650,
scooby_state_418dd0|12|1 650,0,0,0,0,0,0,0,0,0,0,0,0,0,0,650,
scooby_state_418f47|41|1 649,1,0,0,0,0,0,0,0,0,0,0,0,0,0,650,
scooby_state_418f47|13|1 649,0,0,0,0,0,0,0,0,1,0,0,0,0,0,650,
scooby_state_418e00|15|1 649,0,0,0,0,0,0,0,0,0,0,1,0,0,0,650,
scooby_state_418e91|40|1 0,0,0,0,649,1,0,0,0,0,0,0,0,0,0,650,
scooby_state_418df1|17|1 649,0,0,0,0,0,1,0,0,0,0,0,0,0,0,650,
scooby_state_418e91|21|1 0,0,0,0,649,0,1,0,0,0,0,0,0,0,0,650,
scooby_state_418df1|59|1 650,0,0,0,0,0,0,0,0,0,0,0,0,0,0,650,
scooby_state_418dd9|61|1 650,0,0,0,0,0,0,0,0,0,0,0,0,0,0,650,
scooby_state_418df1|41|1 650,0,0,0,0,0,0,0,0,0,0,0,0,0,0,650,
scooby_state_418e00|60|1 647,0,0,1,1,0,0,0,1,0,0,0,0,0,0,650,
scooby_state_418e00|20|1 650,0,0,0,0,0,0,0,0,0,0,0,0,0,0,650,
scooby_state_418e91|15|1 0,0,0,0,650,0,0,0,0,0,0,0,0,0,0,650,
scooby_state_418f47|5|1 650,0,0,0,0,0,0,0,0,0,0,0,0,0,0,650,
scooby_state_418f47|1|1 650,0,0,0,0,0,0,0,0,0,0,0,0,0,0,650,
scooby_state_418dd0|63|1 648,0,0,0,0,0,0,0,0,0,2,0,0,0,0,650,
scooby_state_418e91|31|1 0,0,0,0,650,0,0,0,0,0,0,0,0,0,0,650,
scooby_state_418e91|0|0 1,0,0,0,649,0,0,0,0,0,0,0,0,0,0,650,
scooby_state_418dd9|22|1 645,1,1,0,0,0,0,1,1,1,0,0,0,0,0,650,
scooby_state_418df1|47|1 650,0,0,0,0,0,0,0,0,0,0,0,0,0,0,650,
scooby_state_418dd9|19|1 650,0,0,0,0,0,0,0,0,0,0,0,0,0,0,650,
scooby_state_418e91|25|1 0,0,0,0,648,0,0,0,0,1,0,0,1,0,0,650,
scooby_state_418dd0|14|1 650,0,0,0,0,0,0,0,0,0,0,0,0,0,0,650,
scooby_state_418dd0|2|1 650,0,0,0,0,0,0,0,0,0,0,0,0,0,0,650,
scooby_state_418dd0|3|1 648,0,0,0,0,0,0,0,0,0,0,2,0,0,0,650,
scooby_state_418e91|34|1 0,0,0,0,648,0,0,0,0,0,0,1,0,1,0,650,
scooby_state_418dd0|42|1 650,0,0,0,0,0,0,0,0,0,0,0,0,0,0,650,
scooby_state_418dd0|33|1 650,0,0,0,0,0,0,0,0,0,0,0,0,0,0,650,
scooby_state_418df1|28|1 649,0,0,0,0,0,0,0,0,0,0,0,1,0,0,650,
scooby_state_418e00|33|1 650,0,0,0,0,0,0,0,0,0,0,0,0,0,0,650,
scooby_state_418f47|35|1 648,0,0,0,0,0,0,1,0,0,0,0,1,0,0,650,
scooby_state_418f47|25|1 649,0,1,0,0,0,0,0,0,0,0,0,0,0,0,650,
scooby_state_418f47|17|1 650,0,0,0,0,0,0,0,0,0,0,0,0,0,0,650,
scooby_state_418e91|13|1 0,0,1,0,649,0,0,0,0,0,0,0,0,0,0,650,
scooby_state_418df1|29|1 649,0,0,0,0,0,0,0,0,0,0,0,1,0,0,650,
scooby_state_418df1|44|1 649,0,0,1,0,0,0,0,0,0,0,0,0,0,0,650,
scooby_state_418dd9|30|1 646,0,0,1,0,1,0,0,1,1,0,0,0,0,0,650,
scooby_state_418dd9|31|1 650,0,0,0,0,0,0,0,0,0,0,0,0,0,0,650,
scooby_state_418e00|11|1 650,0,0,0,0,0,0,0,0,0,0,0,0,0,0,650,
scooby_state_418df1|32|1 648,1,0,0,1,0,0,0,0,0,0,0,0,0,0,650,
scooby_state_418e00|36|1 649,0,0,0,1,0,0,0,0,0,0,0,0,0,0,650,
scooby_state_418df1|38|1 648,0,0,0,0,0,0,0,1,0,0,0,0,0,1,650,
scooby_state_418dd9|10|1 650,0,0,0,0,0,0,0,0,0,0,0,0,0,0,650,
scooby_state_418df1|19|1 650,0,0,0,0,0,0,0,0,0,0,0,0,0,0,650,
scooby_state_418dd0|51|1 649,0,0,1,0,0,0,0,0,0,0,0,0,0,0,650,
scooby_state_418dd0|39|1 650,0,0,0,0,0,0,0,0,0,0,0,0,0,0,650,
scooby_state_418e00|39|1 649,0,0,0,0,0,0,0,0,0,1,0,0,0,0,650,
scooby_state_418dd9|40|1 649,0,0,0,1,0,0,0,0,0,0,0,0,0,0,650,
scooby_state_418dd9|43|1 646,0,0,1,1,0,0,0,0,0,0,1,0,1,0,650,
scooby_state_418dd0|29|1 648,1,0,0,0,0,0,0,0,1,0,0,0,0,0,650,
scooby_state_418e00|45|1 650,0,0,0,0,0,0,0,0,0,0,0,0,0,0,650,
scooby_state_418e91|55|1 0,0,0,0,650,0,0,0,0,0,0,0,0,0,0,650,
scooby_state_418dd9|46|1 648,0,0,0,0,1,0,1,0,0,0,0,0,0,0,650,
scooby_state_418e00|9|1 650,0,0,0,0,0,0,0,0,0,0,0,0,0,0,650,
scooby_state_418df1|50|1 647,0,0,0,1,0,0,0,0,0,0,0,0,0,2,650,
scooby_state_418dd9|52|1 649,0,0,1,0,0,0,0,0,0,0,0,0,0,0,650,
scooby_state_418df1|53|1 648,0,0,0,0,0,0,0,0,0,0,0,2,0,0,650,
scooby_state_418e00|23|1 648,0,0,0,0,0,1,1,0,0,0,0,0,0,0,650,
scooby_state_418e91|19|1 0,0,0,0,650,0,0,0,0,0,0,0,0,0,0,650,
scooby_state_418dd9|55|1 650,0,0,0,0,0,0,0,0,0,0,0,0,0,0,650,
scooby_state_418df1|56|1 650,0,0,0,0,0,0,0,0,0,0,0,0,0,0,650,
scooby_state_418e00|57|1 646,0,1,1,0,0,0,0,0,0,0,1,0,1,0,650,
scooby_state_418e00|54|1 649,0,0,0,0,0,0,0,0,0,0,0,0,1,0,650,
scooby_state_418dd9|3|1 649,0,0,0,0,0,0,0,0,0,0,0,1,0,0,650,
scooby_state_418dd0|48|1 649,0,0,0,0,0,0,0,0,0,0,0,0,0,1,650,
scooby_state_418f47|23|1 650,0,0,0,0,0,0,0,0,0,0,0,0,0,0,650,
scooby_state_418dd9|18|1 648,0,0,0,1,0,0,0,0,1,0,0,0,0,0,650,
scooby_state_418dd9|7|1 650,0,0,0,0,0,0,0,0,0,0,0,0,0,0,650,
scooby_state_418df1|16|1 650,0,0,0,0,0,0,0,0,0,0,0,0,0,0,650,
scooby_state_418dd9|15|1 648,0,0,0,0,0,0,0,0,0,0,0,0,2,0,650,
scooby_state_418e00|14|1 648,0,1,0,0,0,0,0,0,1,0,0,0,0,0,650,
scooby_state_418df1|13|1 650,0,0,0,0,0,0,0,0,0,0,0,0,0,0,650,
scooby_state_418f47|26|1 648,0,0,0,1,0,0,0,0,0,0,1,0,0,0,650,
scooby_state_418e91|28|1 1,0,0,0,649,0,0,0,0,0,0,0,0,0,0,650,
scooby_state_418e00|5|1 649,0,0,0,0,0,0,0,0,1,0,0,0,0,0,650,
scooby_state_418df1|4|1 649,0,0,0,0,0,1,0,0,0,0,0,0,0,0,650,
scooby_state_418dd9|21|1 650,0,0,0,0,0,0,0,0,0,0,0,0,0,0,650,
scooby_state_418df1|1|1 649,0,0,0,0,0,0,1,0,0,0,0,0,0,0,650,
scooby_state_418e00|2|1 648,0,0,0,0,1,1,0,0,0,0,0,0,0,0,650,
scooby_state_418dd9|0|0 649,0,0,0,0,0,0,0,0,0,0,0,0,1,0,650,
scooby_state_418dd0|30|1 649,0,0,0,1,0,0,0,0,0,0,0,0,0,0,650,
scooby_state_418e91|52|1 0,0,0,0,649,0,0,0,0,0,0,0,0,0,1,650,
scooby_state_418e91|58|1 0,0,0,0,650,0,0,0,0,0,0,0,0,0,0,650,
scooby_state_418f47|32|1 647,1,0,0,0,0,0,0,1,0,0,0,1,0,0,650,
scooby_state_418dd0|36|1 648,1,0,0,0,0,0,1,0,0,0,0,0,0,0,650,
scooby_state_418e00|56|1 650,0,0,0,0,0,0,0,0,0,0,0,0,0,0,650,
scooby_state_418dd0|17|1 650,0,0,0,0,0,0,0,0,0,0,0,0,0,0,650,
scooby_state_418df1|7|1 649,0,1,0,0,0,0,0,0,0,0,0,0,0,0,650,
scooby_state_418e91|37|1 0,0,0,1,649,0,0,0,0,0,0,0,0,0,0,650,
scooby_state_418df1|62|1 649,0,0,0,0,0,0,0,0,0,0,0,0,0,1,650,
scooby_state_418dd0|6|1 650,0,0,0,0,0,0,0,0,0,0,0,0,0,0,650,
scooby_state_418e91|4|1 0,0,0,0,650,0,0,0,0,0,0,0,0,0,0,650,
scooby_state_418df1|35|1 650,0,0,0,0,0,0,0,0,0,0,0,0,0,0,650,
scooby_state_418e00|63|1 649,0,0,0,0,0,0,1,0,0,0,0,0,0,0,650,
scooby_state_418dd0|0|0 650,0,0,0,0,0,0,0,0,0,0,0,0,0,0,650,
scooby_state_418f47|63|1 649,0,1,0,0,0,0,0,0,0,0,0,0,0,0,650,
scooby_state_418e00|48|1 647,0,0,2,0,0,0,0,0,0,0,0,1,0,0,650,
scooby_state_418dd9|9|1 649,0,0,0,0,0,0,0,0,0,0,0,0,0,1,650,
scooby_state_418dd9|6|1 649,0,0,0,0,0,0,0,0,0,0,0,0,1,0,650,
scooby_state_418e00|29|1 649,0,0,0,0,0,1,0,0,0,0,0,0,0,0,650,
scooby_state_418e91|16|1 0,0,1,0,648,0,0,0,1,0,0,0,0,0,0,650,
scooby_state_418f47|8|1 649,0,0,0,0,0,0,0,0,0,0,0,0,1,0,650,
scooby_state_418df1|20|1 650,0,0,0,0,0,0,0,0,0,0,0,0,0,0,650,
scooby_state_418dd0|9|1 648,0,0,0,0,1,0,0,1,0,0,0,0,0,0,650,
scooby_state_418e91|10|1 0,0,0,0,649,0,0,0,1,0,0,0,0,0,0,650,
scooby_state_418f47|14|1 646,0,0,0,1,0,1,0,1,0,0,1,0,0,0,650,
scooby_state_418dd0|15|1 649,0,0,0,0,0,0,0,1,0,0,0,0,0,0,650,
scooby_state_418f47|29|1 647,0,0,0,0,0,0,1,1,1,0,0,0,0,0,650,
scooby_state_418e00|26|1 650,0,0,0,0,0,0,0,0,0,0,0,0,0,0,650,
scooby_state_418dd0|18|1 648,0,0,0,0,0,0,0,1,0,0,0,0,0,1,650,
scooby_state_418f47|20|1 648,0,0,0,0,0,0,0,0,1,0,1,0,0,0,650,
scooby_state_418dd0|21|1 648,0,0,0,0,0,0,0,0,0,1,1,0,0,0,650,
scooby_state_418dd9|27|1 645,1,0,0,0,1,1,0,1,0,0,0,0,1,0,650,
scooby_state_418df1|25|1 649,0,0,0,0,0,0,0,1,0,0,0,0,0,0,650,
scooby_state_418e91|22|1 0,0,0,0,650,0,0,0,0,0,0,0,0,0,0,650,
scooby_state_418f47|50|1 650,0,0,0,0,0,0,0,0,0,0,0,0,0,0,650,
scooby_state_418e91|7|1 0,0,0,0,649,0,0,1,0,0,0,0,0,0,0,650,
scooby_state_418e00|8|1 650,0,0,0,0,0,0,0,0,0,0,0,0,0,0,650,
scooby_state_418dd9|49|1 649,0,0,0,0,0,0,0,0,0,1,0,0,0,0,650,
scooby_state_418e91|46|1 0,0,0,0,650,0,0,0,0,0,0,0,0,0,0,650,
scooby_state_418f47|47|1 649,1,0,0,0,0,0,0,0,0,0,0,0,0,0,650,
scooby_state_418dd9|58|1 650,0,0,0,0,0,0,0,0,0,0,0,0,0,0,650,
scooby_state_418e00|42|1 649,0,1,0,0,0,0,0,0,0,0,0,0,0,0,650,
scooby_state_418e91|49|1 0,1,0,0,648,0,0,0,1,0,0,0,0,0,0,650,
scooby_state_418e00|0|0 648,0,1,0,0,1,0,0,0,0,0,0,0,0,0,650,
scooby_state_418f47|38|1 650,0,0,0,0,0,0,0,0,0,0,0,0,0,0,650,
scooby_state_418dd9|24|1 649,0,0,0,1,0,0,0,0,0,0,0,0,0,0,650,
scooby_state_418dd0|60|1 650,0,0,0,0,0,0,0,0,0,0,0,0,0,0,650,
scooby_state_418dd9|34|1 650,0,0,0,0,0,0,0,0,0,0,0,0,0,0,650,
scooby_state_418e91|61|1 0,0,0,0,649,0,0,0,0,1,0,0,0,0,0,650,
scooby_state_418dd0|54|1 649,0,0,0,0,0,0,0,0,1,0,0,0,0,0,650,
scooby_state_418f47|59|1 650,0,0,0,0,0,0,0,0,0,0,0,0,0,0,650,
scooby_state_418f47|56|1 650,0,0,0,0,0,0,0,0,0,0,0,0,0,0,650,
scooby_state_418dd0|57|1 648,0,0,0,1,0,1,0,0,0,0,0,0,0,0,650,
scooby_state_418dd0|27|1 648,0,0,0,0,0,0,1,0,0,0,0,0,1,0,650,
scooby_state_418dd9|1|1 648,0,0,0,0,0,0,0,0,0,0,0,1,1,0,650,
scooby_state_418e91|43|1 0,0,0,0,648,0,0,0,0,0,0,1,0,1,0,650,
scooby_state_418dd9|12|1 649,1,0,0,0,0,0,0,0,0,0,0,0,0,0,650,
scooby_state_418f47|44|1 649,0,0,0,1,0,0,0,0,0,0,0,0,0,0,650,
scooby_state_418f47|62|1 650,0,0,0,0,0,0,0,0,0,0,0,0,0,0,650,
scooby_state_418df1|31|1 649,0,0,0,0,0,0,0,0,0,0,0,1,0,0,650,
scooby_state_418e00|51|1 648,0,0,0,0,0,0,0,1,0,1,0,0,0,0,650,
scooby_state_418e00|17|1 650,0,0,0,0,0,0,0,0,0,0,0,0,0,0,650,
scooby_state_418e00|21|1 648,0,1,0,0,0,0,0,1,0,0,0,0,0,0,650,
scooby_state_418dd0|45|1 650,0,0,0,0,0,0,0,0,0,0,0,0,0,0,650,
scooby_state_418df1|2|1 648,0,0,0,0,0,0,0,0,1,0,1,0,0,0,650,
scooby_state_418e00|3|1 649,0,0,0,0,0,0,1,0,0,0,0,0,0,0,650,
scooby_state_418e91|3|1 0,0,0,0,649,0,0,1,0,0,0,0,0,0,0,650,
scooby_state_418dd9|37|1 648,0,0,0,0,0,0,0,0,0,0,0,1,1,0,650,
scooby_state_418e00|19|1 648,0,0,0,0,0,0,0,0,0,1,0,0,0,0,649,
scooby_state_418e00|13|1 648,0,0,0,0,0,0,1,0,0,0,0,0,0,0,649,
scooby_state_418df1|12|1 647,0,0,0,0,0,0,0,0,0,0,1,0,1,0,649,
scooby_state_418dd9|11|1 648,0,0,0,0,0,0,0,1,0,0,0,0,0,0,649,
scooby_state_418e00|16|1 648,0,0,0,0,1,0,0,0,0,0,0,0,0,0,649,
scooby_state_418e00|61|1 648,0,0,0,0,0,0,1,0,0,0,0,0,0,0,649,
scooby_state_418df1|63|1 649,0,0,0,0,0,0,0,0,0,0,0,0,0,0,649,
scooby_state_418dd0|28|1 649,0,0,0,0,0,0,0,0,0,0,0,0,0,0,649,
scooby_state_418df1|60|1 648,0,0,0,1,0,0,0,0,0,0,0,0,0,0,649,
scooby_state_418f47|34|1 648,1,0,0,0,0,0,0,0,0,0,0,0,0,0,649,
scooby_state_418df1|21|1 647,0,0,0,0,0,0,1,0,0,0,0,0,1,0,649,
scooby_state_418df1|61|1 649,0,0,0,0,0,0,0,0,0,0,0,0,0,0,649,
scooby_state_418e91|36|1 0,0,0,1,647,0,0,0,0,1,0,0,0,0,0,649,
scooby_state_418dd9|17|1 647,0,0,0,0,1,0,1,0,0,0,0,0,0,0,649,
scooby_state_418f47|46|1 648,0,0,0,0,0,0,0,0,0,0,0,0,1,0,649,
scooby_state_418df1|55|1 648,0,0,0,0,0,0,1,0,0,0,0,0,0,0,649,
scooby_state_418dd0|58|1 647,0,0,0,1,0,1,0,0,0,0,0,0,0,0,649,
scooby_state_418e91|26|1 0,0,0,0,649,0,0,0,0,0,0,0,0,0,0,649,
scooby_state_418e91|56|1 0,0,0,0,649,0,0,0,0,0,0,0,0,0,0,649,
scooby_state_418df1|57|1 647,0,0,0,0,0,0,0,0,0,0,1,0,0,1,649,
scooby_state_418dd0|47|1 648,0,0,0,0,0,0,0,0,0,0,0,1,0,0,649,
scooby_state_418e91|29|1 0,0,0,0,648,0,0,0,1,0,0,0,0,0,0,649,
scooby_state_418e00|34|1 649,0,0,0,0,0,0,0,0,0,0,0,0,0,0,649,
scooby_state_418f47|58|1 649,0,0,0,0,0,0,0,0,0,0,0,0,0,0,649,
scooby_state_418e00|49|1 646,0,0,0,0,0,0,0,1,0,0,1,1,0,0,649,
scooby_state_418dd9|39|1 648,0,0,0,0,0,0,0,0,1,0,0,0,0,0,649,
scooby_state_418e91|8|1 0,0,0,0,648,0,1,0,0,0,0,0,0,0,0,649,
scooby_state_418f47|3|1 649,0,0,0,0,0,0,0,0,0,0,0,0,0,0,649,
scooby_state_418dd9|62|1 649,0,0,0,0,0,0,0,0,0,0,0,0,0,0,649,
scooby_state_418e00|10|1 647,0,1,0,0,0,0,0,0,0,1,0,0,0,0,649,
scooby_state_418dd9|32|1 647,0,0,0,0,1,0,0,0,0,1,0,0,0,0,649,
scooby_state_418e00|28|1 649,0,0,0,0,0,0,0,0,0,0,0,0,0,0,649,
scooby_state_418dd9|29|1 648,0,0,0,0,0,0,0,0,0,1,0,0,0,0,649,
scooby_state_418dd0|44|1 646,0,0,1,2,0,0,0,0,0,0,0,0,0,0,649,
scooby_state_418dd9|47|1 649,0,0,0,0,0,0,0,0,0,0,0,0,0,0,649,
scooby_state_418dd9|56|1 647,0,0,0,0,0,0,0,0,1,0,1,0,0,0,649,
scooby_state_418e91|42|1 0,0,0,0,648,0,0,0,0,0,0,0,1,0,0,649,
scooby_state_418f47|42|1 648,1,0,0,0,0,0,0,0,0,0,0,0,0,0,649,
scooby_state_418dd0|41|1 646,0,1,0,0,0,1,1,0,0,0,0,0,0,0,649,
scooby_state_418f47|40|1 649,0,0,0,0,0,0,0,0,0,0,0,0,0,0,649,
scooby_state_418df1|30|1 649,0,0,0,0,0,0,0,0,0,0,0,0,0,0,649,
scooby_state_418dd0|56|1 648,0,0,1,0,0,0,0,0,0,0,0,0,0,0,649,
scooby_state_418dd9|50|1 649,0,0,0,0,0,0,0,0,0,0,0,0,0,0,649,
scooby_state_418dd0|32|1 648,0,0,0,0,1,0,0,0,0,0,0,0,0,0,649,
scooby_state_418f47|49|1 649,0,0,0,0,0,0,0,0,0,0,0,0,0,0,649,
scooby_state_418f47|31|1 648,0,0,0,1,0,0,0,0,0,0,0,0,0,0,649,
scooby_state_418dd9|35|1 648,0,0,0,0,0,0,0,1,0,0,0,0,0,0,649,
scooby_state_418f47|39|1 648,0,0,0,0,0,0,0,1,0,0,0,0,0,0,649,
scooby_state_418e91|30|1 0,0,0,0,649,0,0,0,0,0,0,0,0,0,0,649,
scooby_state_418e00|37|1 649,0,0,0,0,0,0,0,0,0,0,0,0,0,0,649,
scooby_state_418e00|43|1 647,0,0,0,0,0,0,0,0,1,0,0,1,0,0,649,
scooby_state_418dd9|41|1 646,0,0,0,0,0,1,0,1,0,0,0,0,0,1,649,
scooby_state_418dd9|38|1 649,0,0,0,0,0,0,0,0,0,0,0,0,0,0,649,
scooby_state_418e91|57|1 0,0,0,0,648,0,0,0,0,0,0,1,0,0,0,649,
scooby_state_418e00|58|1 649,0,0,0,0,0,0,0,0,0,0,0,0,0,0,649,
scooby_state_418f47|37|1 648,0,0,1,0,0,0,0,0,0,0,0,0,0,0,649,
scooby_state_418df1|15|1 649,0,0,0,0,0,0,0,0,0,0,0,0,0,0,649,
scooby_state_418dd0|35|1 646,0,0,0,1,0,1,0,1,0,0,0,0,0,0,649,
scooby_state_418f47|61|1 648,0,1,0,0,0,0,0,0,0,0,0,0,0,0,649,
scooby_state_418dd9|23|1 646,1,0,0,0,0,0,1,0,0,0,0,0,0,1,649,
scooby_state_418e91|60|1 0,0,0,0,648,0,0,0,0,1,0,0,0,0,0,649,
scooby_state_418e00|55|1 648,0,0,0,1,0,0,0,0,0,0,0,0,0,0,649,
scooby_state_418e00|52|1 649,0,0,0,0,0,0,0,0,0,0,0,0,0,0,649,
scooby_state_418dd0|59|1 648,0,0,0,0,0,0,0,0,0,0,0,0,0,1,649,
scooby_state_418df1|24|1 649,0,0,0,0,0,0,0,0,0,0,0,0,0,0,649,
scooby_state_418e00|22|1 646,1,0,1,0,0,0,0,0,0,0,0,0,1,0,649,
scooby_state_418e91|39|1 1,1,0,0,646,0,0,0,1,0,0,0,0,0,0,649,
scooby_state_418e00|47|1 648,0,0,0,1,0,0,0,0,0,0,0,0,0,0,649,
scooby_state_418e00|25|1 648,0,0,0,0,0,0,0,0,0,0,0,0,0,1,649,
scooby_state_418f47|55|1 647,0,0,1,0,0,0,0,0,0,1,0,0,0,0,649,
scooby_state_418dd9|26|1 649,0,0,0,0,0,0,0,0,0,0,0,0,0,0,649,
scooby_state_418e91|54|1 0,0,0,0,649,0,0,0,0,0,0,0,0,0,0,649,
scooby_state_418df1|27|1 647,0,1,0,1,0,0,0,0,0,0,0,0,0,0,649,
scooby_state_418df1|51|1 646,2,0,0,0,0,1,0,0,0,0,0,0,0,0,649,
scooby_state_418dd0|53|1 646,0,0,1,0,0,0,0,2,0,0,0,0,0,0,649,
scooby_state_418f47|52|1 648,0,0,0,0,0,0,0,0,0,0,0,1,0,0,649,
scooby_state_418e00|31|1 648,0,0,0,1,0,0,0,0,0,0,0,0,0,0,649,
scooby_state_418e91|53|1 0,0,0,0,648,1,0,0,0,0,0,0,0,0,0,649,
scooby_state_418df1|36|1 647,0,1,0,0,0,0,0,0,0,0,0,1,0,0,649,
scooby_state_418e91|59|1 0,0,0,0,649,0,0,0,0,0,0,0,0,0,0,649,
scooby_state_418e91|63|1 0,0,0,0,648,0,0,1,0,0,0,0,0,0,0,649,
scooby_state_418f47|43|1 649,0,0,0,0,0,0,0,0,0,0,0,0,0,0,649,
scooby_state_418e91|2|1 0,0,0,0,649,0,0,0,0,0,0,0,0,0,0,649,
scooby_state_418df1|37|1 647,0,0,0,0,0,0,1,0,0,0,0,0,0,1,649,
scooby_state_418df1|9|1 649,0,0,0,0,0,0,0,0,0,0,0,0,0,0,649,
scooby_state_418dd0|25|1 648,0,0,0,0,0,0,0,0,0,0,1,0,0,0,649,
scooby_state_418dd0|16|1 648,0,0,0,0,1,0,0,0,0,0,0,0,0,0,649,
scooby_state_418dd9|14|1 648,0,0,0,0,0,0,0,0,1,0,0,0,0,0,649,
scooby_state_418e91|33|1 0,0,0,0,648,0,0,0,0,0,0,0,0,0,1,649,
scooby_state_418e00|46|1 649,0,0,0,0,0,0,0,0,0,0,0,0,0,0,649,
scooby_state_418e91|41|1 0,0,0,0,649,0,0,0,0,0,0,0,0,0,0,649,
scooby_state_418f47|30|1 648,0,0,0,0,0,0,0,0,0,0,1,0,0,0,649,
scooby_state_418f47|60|1 648,0,0,0,0,0,1,0,0,0,0,0,0,0,0,649,
scooby_state_418dd0|52|1 648,0,0,0,0,0,0,0,0,0,1,0,0,0,0,649,
scooby_state_418e00|1|1 646,0,0,0,0,0,0,0,1,0,1,0,1,0,0,649,
scooby_state_418dd0|19|1 647,0,0,0,0,0,0,0,0,0,1,0,0,0,1,649,
scooby_state_418dd0|50|1 646,0,1,0,0,0,1,0,0,0,0,0,0,1,0,649,
scooby_state_418e91|48|1 0,0,0,0,647,0,1,0,0,0,0,0,0,1,0,649,
scooby_state_418e91|17|1 0,0,0,0,649,0,0,0,0,0,0,0,0,0,0,649,
scooby_state_418df1|6|1 648,0,0,0,0,0,0,0,0,0,0,1,0,0,0,649,
scooby_state_418dd9|42|1 647,1,0,0,0,0,0,0,0,0,1,0,0,0,0,649,
scooby_state_418e91|38|1 0,0,0,0,647,0,0,0,0,1,1,0,0,0,0,649,
scooby_state_418e00|35|1 649,0,0,0,0,0,0,0,0,0,0,0,0,0,0,649,
scooby_state_418dd0|61|1 649,0,0,0,0,0,0,0,0,0,0,0,0,0,0,649,
scooby_state_418dd0|7|1 648,0,0,0,0,0,0,0,0,0,0,0,1,0,0,649,
scooby_state_418dd9|60|1 649,0,0,0,0,0,0,0,0,0,0,0,0,0,0,649,
scooby_state_418dd0|4|1 649,0,0,0,0,0,0,0,0,0,0,0,0,0,0,649,
scooby_state_418e91|32|1 0,0,0,0,648,0,0,0,0,0,0,1,0,0,0,649,
scooby_state_418df1|52|1 648,0,0,0,0,0,0,0,1,0,0,0,0,0,0,649,
scooby_state_418dd9|36|1 647,0,2,0,0,0,0,0,0,0,0,0,0,0,0,649,
scooby_state_418dd0|1|1 649,0,0,0,0,0,0,0,0,0,0,0,0,0,0,649,
scooby_state_418df1|42|1 649,0,0,0,0,0,0,0,0,0,0,0,0,0,0,649,
scooby_state_418dd9|2|1 647,0,0,0,0,0,1,0,0,0,1,0,0,0,0,649,
scooby_state_418df1|34|1 648,0,1,0,0,0,0,0,0,0,0,0,0,0,0,649,
scooby_state_418df1|45|1 648,0,0,0,1,0,0,0,0,0,0,0,0,0,0,649,
scooby_state_418df1|0|0 648,0,0,0,0,0,1,0,0,0,0,0,0,0,0,649,
scooby_state_418df1|18|1 649,0,0,0,0,0,0,0,0,0,0,0,0,0,0,649,
scooby_state_418dd9|45|1 648,0,0,1,0,0,0,0,0,0,0,0,0,0,0,649,
scooby_state_418dd9|5|1 647,0,0,0,0,1,1,0,0,0,0,0,0,0,0,649,
scooby_state_418f47|24|1 649,0,0,0,0,0,0,0,0,0,0,0,0,0,0,649,
scooby_state_418e91|50|1 0,0,0,0,648,0,0,0,0,0,1,0,0,0,0,649,
scooby_state_418dd0|13|1 646,1,0,0,1,0,0,0,0,0,1,0,0,0,0,649,
scooby_state_418f47|27|1 648,0,0,0,0,0,1,0,0,0,0,0,0,0,0,649,
scooby_state_418e91|51|1 0,0,0,0,649,0,0,0,0,0,0,0,0,0,0,649,
scooby_state_418e91|20|1 0,0,0,0,648,0,1,0,0,0,0,0,0,0,0,649,
scooby_state_418df1|48|1 649,0,0,0,0,0,0,0,0,0,0,0,0,0,0,649,
scooby_state_418dd9|48|1 647,0,0,0,1,0,0,1,0,0,0,0,0,0,0,649,
scooby_state_418f47|54|1 648,0,0,0,1,0,0,0,0,0,0,0,0,0,0,649,
scooby_state_418f47|12|1 647,0,1,0,0,0,0,1,0,0,0,0,0,0,0,649,
scooby_state_418e00|41|1 649,0,0,0,0,0,0,0,0,0,0,0,0,0,0,649,
scooby_state_418dd0|10|1 647,0,0,1,0,0,0,0,1,0,0,0,0,0,0,649,
scooby_state_418dd0|37|1 647,1,0,0,0,1,0,0,0,0,0,0,0,0,0,649,
scooby_state_418dd0|38|1 649,0,0,0,0,0,0,0,0,0,0,0,0,0,0,649,
scooby_state_418f47|9|1 649,0,0,0,0,0,0,0,0,0,0,0,0,0,0,649,
scooby_state_418dd9|20|1 649,0,0,0,0,0,0,0,0,0,0,0,0,0,0,649,
scooby_state_418e91|14|1 0,1,0,1,646,0,0,0,0,0,0,0,0,0,1,649,
scooby_state_418f47|18|1 646,0,0,0,0,0,1,0,0,1,1,0,0,0,0,649,
scooby_state_418e91|11|1 0,0,0,0,649,0,0,0,0,0,0,0,0,0,0,649,
scooby_state_418f47|0|0 648,0,0,0,0,0,1,0,0,0,0,0,0,0,0,649,
scooby_state_418e91|45|1 0,0,0,1,648,0,0,0,0,0,0,0,0,0,0,649,
scooby_state_418df1|54|1 649,0,0,0,0,0,0,0,0,0,0,0,0,0,0,649,
scooby_state_418dd9|54|1 648,1,0,0,0,0,0,0,0,0,0,0,0,0,0,649,
scooby_state_418dd0|49|1 648,0,0,0,0,0,0,0,0,0,0,1,0,0,0,649,
scooby_state_418df1|49|1 648,1,0,0,0,0,0,0,0,0,0,0,0,0,0,649,
scooby_state_418dd9|53|1 648,0,0,0,0,0,0,1,0,0,0,0,0,0,0,649,
scooby_state_418dd0|55|1 648,0,1,0,0,0,0,0,0,0,0,0,0,0,0,649,
scooby_state_418df1|46|1 647,0,0,0,0,0,0,0,0,1,0,0,1,0,0,649,
scooby_state_418e00|7|1 648,0,0,0,0,0,0,0,0,0,0,0,0,1,0,649,
scooby_state_418f47|45|1 649,0,0,0,0,0,0,0,0,0,0,0,0,0,0,649,
scooby_state_418dd0|46|1 647,0,1,0,0,0,0,0,0,0,0,0,0,0,1,649,
scooby_state_418dd0|43|1 648,0,0,0,0,0,0,0,0,1,0,0,0,0,0,649,
scooby_state_418e91|47|1 0,0,0,0,647,1,0,0,0,1,0,0,0,0,0,649,
scooby_state_418e00|50|1 648,0,0,0,0,0,0,0,1,0,0,0,0,0,0,649,
scooby_state_418e91|35|1 0,0,0,0,648,0,0,0,0,0,0,1,0,0,0,649,
scooby_state_418f47|6|1 649,0,0,0,0,0,0,0,0,0,0,0,0,0,0,649,
scooby_state_418dd9|51|1 648,0,0,0,0,1,0,0,0,0,0,0,0,0,0,649,
scooby_state_418f47|51|1 648,0,0,0,0,0,0,0,0,1,0,0,0,0,0,649,
scooby_state_418e00|53|1 646,0,0,0,0,0,0,0,0,0,1,1,1,0,0,649,
scooby_state_418dd9|44|1 648,0,0,0,0,0,0,0,0,0,0,1,0,0,0,649,
scooby_state_418f47|48|1 649,0,0,0,0,0,0,0,0,0,0,0,0,0,0,649,
scooby_state_418e00|40|1 649,0,0,0,0,0,0,0,0,0,0,0,0,0,0,649,
scooby_state_418dd9|57|1 647,0,0,0,0,0,0,0,0,0,0,0,0,0,2,649,
scooby_state_418df1|58|1 648,0,0,0,0,0,0,0,0,0,0,0,0,1,0,649,
scooby_state_418f47|21|1 649,0,0,0,0,0,0,0,0,0,0,0,0,0,0,649,
scooby_state_418dd9|59|1 649,0,0,0,0,0,0,0,0,0,0,0,0,0,0,649,
scooby_state_418e00|38|1 648,0,0,0,0,0,0,0,0,0,0,0,0,0,1,649,
scooby_state_418f47|57|1 649,0,0,0,0,0,0,0,0,0,0,0,0,0,0,649,
scooby_state_418e00|59|1 648,0,0,0,0,0,1,0,0,0,0,0,0,0,0,649,
scooby_state_418dd9|63|1 646,0,0,0,1,0,0,1,0,1,0,0,0,0,0,649,
scooby_state_418df1|3|1 648,0,0,0,0,0,0,0,0,1,0,0,0,0,0,649,
scooby_state_418e00|4|1 648,1,0,0,0,0,0,0,0,0,0,0,0,0,0,649,
scooby_state_418dd9|8|1 649,0,0,0,0,0,0,0,0,0,0,0,0,0,0,649,
scooby_state_418dd0|22|1 648,0,0,0,0,0,0,0,0,0,1,0,0,0,0,649,
scooby_state_418dd0|31|1 649,0,0,0,0,0,0,0,0,0,0,0,0,0,0,649,
scooby_state_418dd9|33|1 649,0,0,0,0,0,0,0,0,0,0,0,0,0,0,649,
scooby_state_418e00|62|1 648,0,0,0,0,0,1,0,0,0,0,0,0,0,0,649,
scooby_state_418f47|33|1 649,0,0,0,0,0,0,0,0,0,0,0,0,0,0,649,
scooby_state_418f47|15|1 648,0,0,0,1,0,0,0,0,0,0,0,0,0,0,649,
scooby_state_418e00|32|1 646,1,0,0,0,0,1,0,0,0,0,0,0,1,0,649,
scooby_state_418dd0|34|1 649,0,0,0,0,0,0,0,0,0,0,0,0,0,0,649,
scooby_state_418f47|36|1 647,0,0,0,0,1,0,0,0,1,0,0,0,0,0,649,
scooby_state_418e91|23|1 0,1,0,0,647,0,0,1,0,0,0,0,0,0,0,649,
scooby_state_418df1|40|1 648,0,0,0,0,0,0,1,0,0,0,0,0,0,0,649,
scooby_state_418dd0|40|1 648,0,0,0,0,0,0,0,0,0,0,1,0,0,0,649,
scooby_state_418e00|44|1 649,0,0,0,0,0,0,0,0,0,0,0,0,0,0,649,
scooby_state_418df1|43|1 648,0,0,0,1,0,0,0,0,0,0,0,0,0,0,649,
scooby_state_418e91|44|1 0,0,0,0,649,0,0,0,0,0,0,0,0,0,0,649,
scooby_state_418df1|33|1 649,0,0,0,0,0,0,0,0,0,0,0,0,0,0,649,
scooby_state_418e91|5|1 0,1,1,0,645,0,0,0,0,0,0,0,0,2,0,649,
scooby_state_418df1|39|1 649,0,0,0,0,0,0,0,0,0,0,0,0,0,0,649,
scooby_state_418dd0|62|1 647,1,0,0,0,0,0,0,0,0,0,0,0,0,0,648,
scooby_state_41872c|3|1 629,0,0,1,0,0,0,0,0,0,0,0,0,0,0,630,
scooby_state_413a4b|40|1 624,0,0,0,0,0,0,0,0,0,1,0,0,0,0,625,
scooby_state_4186d0|11|1 624,0,0,0,0,0,0,0,0,0,0,0,0,0,1,625,
scooby_state_413a4b|9|1 624,0,0,0,0,0,0,0,0,0,0,0,0,0,1,625,
scooby_state_413a4b|2|1 623,0,0,0,0,1,0,1,0,0,0,0,0,0,0,625,
scooby_state_413a4b|29|1 623,0,0,0,1,0,0,0,0,0,0,1,0,0,0,625,
scooby_state_413a4b|4|1 625,0,0,0,0,0,0,0,0,0,0,0,0,0,0,625,
scooby_state_4186d0|35|1 625,0,0,0,0,0,0,0,0,0,0,0,0,0,0,625,
scooby_state_4186d0|33|1 625,0,0,0,0,0,0,0,0,0,0,0,0,0,0,625,
scooby_state_413a4b|21|1 625,0,0,0,0,0,0,0,0,0,0,0,0,0,0,625,
scooby_state_413a4b|10|1 625,0,0,0,0,0,0,0,0,0,0,0,0,0,0,625,
scooby_state_418719|54|1 625,0,0,0,0,0,0,0,0,0,0,0,0,0,0,625,
scooby_state_4186d0|42|1 625,0,0,0,0,0,0,0,0,0,0,0,0,0,0,625,
scooby_state_413a4b|6|1 625,0,0,0,0,0,0,0,0,0,0,0,0,0,0,625,
scooby_state_4186f3|54|1 623,0,0,0,0,0,0,0,0,0,0,0,0,2,0,625,
scooby_state_418719|44|1 624,0,0,0,0,0,0,0,0,0,0,0,1,0,0,625,
scooby_state_413a4b|46|1 624,0,0,0,0,0,0,0,0,0,1,0,0,0,0,625,
scooby_state_418719|2|1 623,0,0,0,0,1,0,0,0,0,0,0,0,1,0,625,
scooby_state_418719|39|1 621,0,1,0,1,0,1,0,0,0,0,0,0,1,0,625,
scooby_state_413a4b|62|1 625,0,0,0,0,0,0,0,0,0,0,0,0,0,0,625,
scooby_state_4186f3|51|1 625,0,0,0,0,0,0,0,0,0,0,0,0,0,0,625,
scooby_state_418719|29|1 625,0,0,0,0,0,0,0,0,0,0,0,0,0,0,625,
scooby_state_413a4b|7|1 625,0,0,0,0,0,0,0,0,0,0,0,0,0,0,625,
scooby_state_413a4b|44|1 624,0,0,0,1,0,0,0,0,0,0,0,0,0,0,625,
scooby_state_4186d0|37|1 625,0,0,0,0,0,0,0,0,0,0,0,0,0,0,625,
scooby_state_4186d0|23|1 623,0,0,0,1,0,0,0,0,0,0,0,1,0,0,625,
scooby_state_413a4b|50|1 624,0,0,0,0,0,1,0,0,0,0,0,0,0,0,625,
scooby_state_418719|23|1 622,0,0,0,0,0,0,2,0,1,0,0,0,0,0,625,
scooby_state_413a4b|13|1 624,0,0,1,0,0,0,0,0,0,0,0,0,0,0,625,
scooby_state_413a4b|56|1 624,0,0,0,0,0,1,0,0,0,0,0,0,0,0,625,
scooby_state_4186d0|14|1 624,0,0,0,0,0,0,0,0,0,1,0,0,0,0,625,
scooby_state_418719|5|1 622,0,0,0,0,1,1,0,1,0,0,0,0,0,0,625,
scooby_state_413a4b|32|1 625,0,0,0,0,0,0,0,0,0,0,0,0,0,0,625,
scooby_state_413a4b|8|1 624,0,1,0,0,0,0,0,0,0,0,0,0,0,0,625,
scooby_state_413a4b|37|1 623,0,0,0,0,0,0,0,0,0,0,0,0,0,2,625,
scooby_state_4186d0|44|1 624,0,0,0,0,0,0,0,0,0,0,0,0,0,1,625,
scooby_state_4186d0|16|1 625,0,0,0,0,0,0,0,0,0,0,0,0,0,0,625,
scooby_state_4186d0|28|1 624,0,0,0,1,0,0,0,0,0,0,0,0,0,0,625,
scooby_state_413a4b|59|1 625,0,0,0,0,0,0,0,0,0,0,0,0,0,0,625,
scooby_state_4186d0|9|1 625,0,0,0,0,0,0,0,0,0,0,0,0,0,0,625,
scooby_state_413a4b|35|1 625,0,0,0,0,0,0,0,0,0,0,0,0,0,0,625,
scooby_state_413a4b|42|1 624,0,1,0,0,0,0,0,0,0,0,0,0,0,0,625,
scooby_state_4186d0|51|1 624,0,0,0,0,0,0,0,0,0,1,0,0,0,0,625,
scooby_state_4186d0|5|1 624,0,0,0,1,0,0,0,0,0,0,0,0,0,0,625,
scooby_state_4186d0|15|1 623,1,0,0,0,0,0,0,0,0,0,0,0,1,0,625,
scooby_state_413a4b|49|1 621,0,0,0,0,0,0,0,0,2,0,1,0,1,0,625,
scooby_state_4186d8|61|1 0,0,0,0,622,0,1,0,1,0,0,0,0,1,0,625,
scooby_state_413a4b|54|1 625,0,0,0,0,0,0,0,0,0,0,0,0,0,0,625,
scooby_state_413a4b|16|1 622,0,0,0,0,0,2,0,1,0,0,0,0,0,0,625,
scooby_state_413a4b|57|1 623,0,0,0,0,1,0,0,0,1,0,0,0,0,0,625,
scooby_state_4186f3|58|1 624,0,0,0,0,0,0,0,0,0,1,0,0,0,0,625,
scooby_state_4186d8|2|1 0,0,0,0,624,0,0,0,0,0,0,0,1,0,0,625,
scooby_state_413a4b|25|1 625,0,0,0,0,0,0,0,0,0,0,0,0,0,0,625,
scooby_state_413a4b|33|1 625,0,0,0,0,0,0,0,0,0,0,0,0,0,0,625,
scooby_state_4186f3|16|1 625,0,0,0,0,0,0,0,0,0,0,0,0,0,0,625,
scooby_state_413a4b|31|1 621,1,0,0,0,0,1,1,0,0,0,0,1,0,0,625,
scooby_state_413a4b|41|1 624,0,0,0,0,1,0,0,0,0,0,0,0,0,0,625,
scooby_state_413a4b|5|1 624,0,0,0,0,0,1,0,0,0,0,0,0,0,0,625,
scooby_state_418719|58|1 625,0,0,0,0,0,0,0,0,0,0,0,0,0,0,625,
scooby_state_413a4b|63|1 624,0,0,0,0,0,0,0,0,0,0,0,0,1,0,625,
scooby_state_4186f3|3|1 624,0,0,0,0,0,0,0,0,0,0,0,0,0,1,625,
scooby_state_4186d0|25|1 624,0,0,0,0,0,0,0,0,1,0,0,0,0,0,625,
scooby_state_413a4b|22|1 623,1,0,0,0,0,0,0,0,0,0,1,0,0,0,625,
scooby_state_413a4b|12|1 624,0,0,0,0,0,0,0,0,0,0,0,1,0,0,625,
scooby_state_413a4b|48|1 623,0,0,0,0,1,0,0,0,0,0,0,1,0,0,625,
scooby_state_418719|50|1 624,0,0,0,0,0,0,1,0,0,0,0,0,0,0,625,
scooby_state_418719|27|1 624,0,0,0,0,0,0,0,0,0,0,0,0,1,0,625,
scooby_state_4186f3|14|1 623,1,0,0,0,0,1,0,0,0,0,0,0,0,0,625,
scooby_state_413a4b|36|1 624,0,1,0,0,0,0,0,0,0,0,0,0,0,0,625,
scooby_state_4186f3|57|1 623,0,0,0,0,1,0,0,1,0,0,0,0,0,0,625,
scooby_state_418719|62|1 624,0,0,0,0,0,0,0,0,0,0,0,1,0,0,625,
scooby_state_413a4b|53|1 621,1,0,0,1,1,0,0,0,0,0,0,0,1,0,625,
scooby_state_4186f3|36|1 624,0,0,0,0,0,0,0,0,0,0,1,0,0,0,625,
scooby_state_4186f3|17|1 625,0,0,0,0,0,0,0,0,0,0,0,0,0,0,625,
scooby_state_418719|24|1 625,0,0,0,0,0,0,0,0,0,0,0,0,0,0,625,
scooby_state_4186f3|44|1 625,0,0,0,0,0,0,0,0,0,0,0,0,0,0,625,
scooby_state_4186d0|4|1 622,0,1,0,0,0,1,0,0,0,0,1,0,0,0,625,
scooby_state_4186f3|10|1 622,0,1,0,0,0,0,0,0,0,0,0,0,0,2,625,
scooby_state_418719|0|0 624,0,0,0,0,0,0,0,0,0,1,0,0,0,0,625,
scooby_state_418719|32|1 624,0,0,0,0,0,1,0,0,0,0,0,0,0,0,625,
scooby_state_413a4b|47|1 623,0,0,0,0,0,0,1,0,0,1,0,0,0,0,625,
scooby_state_413a4b|19|1 624,0,0,0,1,0,0,0,0,0,0,0,0,0,0,625,
scooby_state_413a4b|38|1 623,1,0,0,0,1,0,0,0,0,0,0,0,0,0,625,
scooby_state_413a4b|34|1 623,0,0,0,1,0,1,0,0,0,0,0,0,0,0,625,
scooby_state_4186d0|36|1 623,0,0,0,0,1,0,0,0,0,0,1,0,0,0,625,
scooby_state_418719|28|1 624,0,0,0,0,0,0,0,0,0,0,0,0,1,0,625,
scooby_state_4186f3|21|1 624,0,0,0,0,0,0,0,0,0,0,0,0,0,1,625,
scooby_state_4186f3|33|1 624,0,0,0,0,0,1,0,0,0,0,0,0,0,0,625,
scooby_state_413a4b|39|1 624,0,0,0,0,0,0,0,1,0,0,0,0,0,0,625,
scooby_state_413a4b|1|1 625,0,0,0,0,0,0,0,0,0,0,0,0,0,0,625,
scooby_state_418727|10|1 625,0,0,0,0,0,0,0,0,0,0,0,0,0,0,625,
scooby_state_4186d0|57|1 624,0,1,0,0,0,0,0,0,0,0,0,0,0,0,625,
scooby_state_413a4b|14|1 621,1,0,0,0,1,0,1,0,1,0,0,0,0,0,625,
scooby_state_418719|11|1 625,0,0,0,0,0,0,0,0,0,0,0,0,0,0,625,
scooby_state_4186d0|24|1 624,0,0,0,0,0,0,1,0,0,0,0,0,0,0,625,
scooby_state_413a4b|43|1 624,0,0,0,0,0,0,0,1,0,0,0,0,0,0,625,
scooby_state_4186f3|25|1 623,0,0,0,0,0,0,0,1,0,0,0,0,0,1,625,
scooby_state_413a4b|17|1 625,0,0,0,0,0,0,0,0,0,0,0,0,0,0,625,
scooby_state_4186f3|62|1 625,0,0,0,0,0,0,0,0,0,0,0,0,0,0,625,
scooby_state_418719|21|1 623,1,0,1,0,0,0,0,0,0,0,0,0,0,0,625,
scooby_state_4186d0|43|1 625,0,0,0,0,0,0,0,0,0,0,0,0,0,0,625,
scooby_state_418719|7|1 623,1,0,0,0,0,0,0,0,0,0,0,1,0,0,625,
scooby_state_413a4b|23|1 625,0,0,0,0,0,0,0,0,0,0,0,0,0,0,625,
scooby_state_413a4b|55|1 624,1,0,0,0,0,0,0,0,0,0,0,0,0,0,625,
scooby_state_418719|16|1 624,0,0,0,0,0,1,0,0,0,0,0,0,0,0,625,
scooby_state_4186d0|12|1 623,0,1,0,1,0,0,0,0,0,0,0,0,0,0,625,
scooby_state_4186f3|4|1 625,0,0,0,0,0,0,0,0,0,0,0,0,0,0,625,
scooby_state_418719|60|1 623,0,0,0,0,0,0,1,0,0,0,0,1,0,0,625,
scooby_state_413a4b|26|1 625,0,0,0,0,0,0,0,0,0,0,0,0,0,0,625,
scooby_state_4186f3|32|1 625,0,0,0,0,0,0,0,0,0,0,0,0,0,0,625,
scooby_state_4186d0|38|1 623,0,0,0,1,0,0,0,0,0,0,0,0,0,1,625,
scooby_state_418719|47|1 624,0,0,0,0,0,0,1,0,0,0,0,0,0,0,625,
scooby_state_4186d0|46|1 621,0,1,0,1,0,0,1,0,0,0,0,0,1,0,625,
scooby_state_413a4b|52|1 624,0,0,0,0,0,0,0,0,0,0,0,0,0,1,625,
scooby_state_4186d8|12|1 0,0,0,0,624,0,0,0,1,0,0,0,0,0,0,625,
scooby_state_413a4b|18|1 624,0,0,0,0,0,0,0,0,0,0,0,0,1,0,625,
scooby_state_413a4b|58|1 625,0,0,0,0,0,0,0,0,0,0,0,0,0,0,625,
scooby_state_413a4b|30|1 625,0,0,0,0,0,0,0,0,0,0,0,0,0,0,625,
scooby_state_4186f3|43|1 624,0,1,0,0,0,0,0,0,0,0,0,0,0,0,625,
scooby_state_4186f3|61|1 625,0,0,0,0,0,0,0,0,0,0,0,0,0,0,625,
scooby_state_413a4b|61|1 625,0,0,0,0,0,0,0,0,0,0,0,0,0,0,625,
scooby_state_4186d0|41|1 625,0,0,0,0,0,0,0,0,0,0,0,0,0,0,625,
scooby_state_418719|41|1 625,0,0,0,0,0,0,0,0,0,0,0,0,0,0,625,
scooby_state_413a4b|3|1 622,0,0,0,0,0,0,0,0,2,0,0,0,1,0,625,
scooby_state_4186fc|7|1 625,0,0,0,0,0,0,0,0,0,0,0,0,0,0,625,
scooby_state_4186d0|21|1 624,0,0,0,0,0,0,0,0,0,0,0,1,0,0,625,
scooby_state_4186f3|42|1 625,0,0,0,0,0,0,0,0,0,0,0,0,0,0,625,
scooby_state_4186d0|58|1 623,0,0,0,0,0,0,0,0,1,0,0,0,0,1,625,
scooby_state_413a4b|60|1 625,0,0,0,0,0,0,0,0,0,0,0,0,0,0,625,
scooby_state_4186d8|11|1 0,1,0,0,624,0,0,0,0,0,0,0,0,0,0,625,
scooby_state_4186f3|9|1 625,0,0,0,0,0,0,0,0,0,0,0,0,0,0,625,
scooby_state_4186f3|19|1 624,0,1,0,0,0,0,0,0,0,0,0,0,0,0,625,
scooby_state_413a4b|51|1 624,0,0,0,0,0,0,0,0,0,0,1,0,0,0,625,
scooby_state_413a4b|28|1 624,0,0,0,0,0,0,0,0,0,0,0,1,0,0,625,
scooby_state_4186f3|37|1 623,1,0,1,0,0,0,0,0,0,0,0,0,0,0,625,
scooby_state_4186fc|14|1 624,1,0,0,0,0,0,0,0,0,0,0,0,0,0,625,
scooby_state_4186d0|29|1 622,0,0,0,0,0,0,0,0,2,0,0,1,0,0,625,
scooby_state_4186fc|13|1 625,0,0,0,0,0,0,0,0,0,0,0,0,0,0,625,
scooby_state_413a4b|20|1 624,0,0,0,1,0,0,0,0,0,0,0,0,0,0,625,
scooby_state_4186d0|2|1 624,0,0,0,0,0,1,0,0,0,0,0,0,0,0,625,
scooby_state_4186fc|9|1 622,0,0,1,0,1,0,0,0,0,1,0,0,0,0,625,
scooby_state_4186f3|46|1 623,0,0,1,0,0,0,0,0,0,0,1,0,0,0,625,
scooby_state_4186fc|35|1 624,0,0,0,0,0,1,0,0,0,0,0,0,0,0,625,
scooby_state_418719|18|1 625,0,0,0,0,0,0,0,0,0,0,0,0,0,0,625,
scooby_state_418719|15|1 624,0,0,0,0,1,0,0,0,0,0,0,0,0,0,625,
scooby_state_4186d0|48|1 623,0,0,0,2,0,0,0,0,0,0,0,0,0,0,625,
scooby_state_418727|13|1 622,0,1,0,0,0,0,1,0,0,0,0,1,0,0,625,
scooby_state_4186d0|13|1 625,0,0,0,0,0,0,0,0,0,0,0,0,0,0,625,
scooby_state_418719|12|1 624,0,0,0,0,1,0,0,0,0,0,0,0,0,0,625,
scooby_state_4186f3|11|1 625,0,0,0,0,0,0,0,0,0,0,0,0,0,0,625,
scooby_state_4186f3|31|1 624,0,0,0,0,0,0,1,0,0,0,0,0,0,0,625,
scooby_state_4186f3|29|1 625,0,0,0,0,0,0,0,0,0,0,0,0,0,0,625,
scooby_state_4186f3|49|1 625,0,0,0,0,0,0,0,0,0,0,0,0,0,0,625,
scooby_state_4186d8|8|1 0,0,0,0,622,0,0,1,0,0,1,0,0,1,0,625,
scooby_state_4186f3|24|1 624,1,0,0,0,0,0,0,0,0,0,0,0,0,0,625,
scooby_state_418719|9|1 625,0,0,0,0,0,0,0,0,0,0,0,0,0,0,625,
scooby_state_4186d0|52|1 623,0,0,0,0,0,1,0,0,1,0,0,0,0,0,625,
scooby_state_4186f3|13|1 622,0,0,0,0,0,0,1,0,0,0,1,0,1,0,625,
scooby_state_418719|26|1 624,0,0,0,0,1,0,0,0,0,0,0,0,0,0,625,
scooby_state_4186f3|8|1 623,0,0,0,1,0,0,1,0,0,0,0,0,0,0,625,
scooby_state_418719|25|1 624,0,0,0,0,0,0,0,0,0,0,1,0,0,0,625,
scooby_state_4186d0|54|1 624,0,0,0,0,0,0,0,0,0,0,0,0,0,1,625,
scooby_state_418719|33|1 624,0,0,0,1,0,0,0,0,0,0,0,0,0,0,625,
scooby_state_418719|30|1 624,1,0,0,0,0,0,0,0,0,0,0,0,0,0,625,
scooby_state_4186d0|27|1 625,0,0,0,0,0,0,0,0,0,0,0,0,0,0,625,
scooby_state_4186d0|17|1 623,0,0,0,0,0,0,0,0,1,1,0,0,0,0,625,
scooby_state_418719|57|1 624,0,0,0,0,0,1,0,0,0,0,0,0,0,0,625,
scooby_state_4186f3|18|1 625,0,0,0,0,0,0,0,0,0,0,0,0,0,0,625,
scooby_state_418719|19|1 623,0,0,0,0,0,0,0,1,0,0,1,0,0,0,625,
scooby_state_4186d0|45|1 623,0,0,0,0,0,0,0,0,0,0,0,1,1,0,625,
scooby_state_4186d0|20|1 625,0,0,0,0,0,0,0,0,0,0,0,0,0,0,625,
scooby_state_418719|34|1 624,0,0,0,1,0,0,0,0,0,0,0,0,0,0,625,
scooby_state_4186d0|22|1 623,0,0,0,0,0,0,0,1,1,0,0,0,0,0,625,
scooby_state_418719|14|1 623,1,0,0,0,0,0,0,0,0,0,0,0,0,1,625,
scooby_state_4186f3|15|1 624,0,1,0,0,0,0,0,0,0,0,0,0,0,0,625,
scooby_state_4186fc|21|1 624,0,0,0,0,0,0,0,0,0,0,0,0,0,1,625,
scooby_state_4186d8|20|1 0,0,0,0,624,0,0,0,1,0,0,0,0,0,0,625,
scooby_state_418719|22|1 625,0,0,0,0,0,0,0,0,0,0,0,0,0,0,625,
scooby_state_4186d8|13|1 0,0,0,0,624,0,0,0,0,0,1,0,0,0,0,625,
scooby_state_4186f3|20|1 624,0,0,0,1,0,0,0,0,0,0,0,0,0,0,625,
scooby_state_4186d0|19|1 623,0,0,1,0,0,0,0,0,0,1,0,0,0,0,625,
scooby_state_4186d0|32|1 623,0,0,0,0,0,0,0,1,0,1,0,0,0,0,625,
scooby_state_418719|55|1 624,0,0,0,0,1,0,0,0,0,0,0,0,0,0,625,
scooby_state_4186f3|30|1 624,0,0,0,0,0,0,0,0,0,0,1,0,0,0,625,
scooby_state_4186d0|53|1 623,0,0,1,1,0,0,0,0,0,0,0,0,0,0,625,
scooby_state_4186f3|7|1 623,0,0,0,0,0,0,0,0,0,0,0,1,0,1,625,
scooby_state_418719|52|1 625,0,0,0,0,0,0,0,0,0,0,0,0,0,0,625,
scooby_state_4186d0|50|1 622,0,0,1,0,0,0,0,0,1,0,0,0,0,1,625,
scooby_state_418719|49|1 624,0,0,0,0,0,0,0,0,0,0,0,0,0,1,625,
scooby_state_4186f3|48|1 622,0,0,0,0,0,0,1,0,1,1,0,0,0,0,625,
scooby_state_4186d0|47|1 624,0,0,0,0,0,0,0,0,0,0,0,0,1,0,625,
scooby_state_418719|46|1 625,0,0,0,0,0,0,0,0,0,0,0,0,0,0,625,
scooby_state_4186f3|41|1 624,0,1,0,0,0,0,0,0,0,0,0,0,0,0,625,
scooby_state_4186f3|45|1 624,0,0,0,0,0,0,0,0,1,0,0,0,0,0,625,
scooby_state_4186d0|0|0 623,0,0,0,1,0,0,1,0,0,0,0,0,0,0,625,
scooby_state_4186f3|1|1 621,0,1,0,0,1,1,0,0,1,0,0,0,0,0,625,
scooby_state_418719|43|1 624,0,0,0,0,1,0,0,0,0,0,0,0,0,0,625,
scooby_state_4186d0|3|1 625,0,0,0,0,0,0,0,0,0,0,0,0,0,0,625,
scooby_state_4186f3|35|1 622,0,1,1,0,0,0,0,0,0,0,1,0,0,0,625,
scooby_state_418719|40|1 625,0,0,0,0,0,0,0,0,0,0,0,0,0,0,625,
scooby_state_418719|37|1 624,1,0,0,0,0,0,0,0,0,0,0,0,0,0,625,
scooby_state_4186f3|52|1 625,0,0,0,0,0,0,0,0,0,0,0,0,0,0,625,
scooby_state_4186f3|2|1 625,0,0,0,0,0,0,0,0,0,0,0,0,0,0,625,
scooby_state_418719|1|1 622,0,0,1,0,1,0,0,1,0,0,0,0,0,0,625,
scooby_state_4186d0|7|1 624,0,0,0,0,0,0,0,0,0,0,0,1,0,0,625,
scooby_state_418719|6|1 625,0,0,0,0,0,0,0,0,0,0,0,0,0,0,625,
scooby_state_4186f3|5|1 625,0,0,0,0,0,0,0,0,0,0,0,0,0,0,625,
scooby_state_4186d8|9|1 0,0,1,0,620,0,2,0,0,0,0,0,0,2,0,625,
scooby_state_4186d0|26|1 624,0,0,1,0,0,0,0,0,0,0,0,0,0,0,625,
scooby_state_418727|4|1 624,0,0,0,0,0,0,0,0,0,1,0,0,0,0,625,
scooby_state_418719|3|1 624,0,0,0,0,0,0,1,0,0,0,0,0,0,0,625,
scooby_state_4186fc|3|1 624,0,1,0,0,0,0,0,0,0,0,0,0,0,0,625,
scooby_state_418727|22|1 625,0,0,0,0,0,0,0,0,0,0,0,0,0,0,625,
scooby_state_4186d0|1|1 625,0,0,0,0,0,0,0,0,0,0,0,0,0,0,625,
scooby_state_4186f3|63|1 623,0,0,0,0,0,0,0,0,1,0,0,0,0,1,625,
scooby_state_4186d0|62|1 623,1,0,0,0,0,0,0,0,0,0,1,0,0,0,625,
scooby_state_418719|61|1 622,0,0,0,0,0,0,0,1,1,0,0,1,0,0,625,
scooby_state_4186d0|59|1 625,0,0,0,0,0,0,0,0,0,0,0,0,0,0,625,
scooby_state_4186f3|27|1 625,0,0,0,0,0,0,0,0,0,0,0,0,0,0,625,
scooby_state_418719|8|1 623,0,0,0,0,0,0,0,0,0,1,0,0,1,0,625,
scooby_state_418719|53|1 623,0,0,0,1,1,0,0,0,0,0,0,0,0,0,625,
scooby_state_4186d0|56|1 625,0,0,0,0,0,0,0,0,0,0,0,0,0,0,625,
scooby_state_413a4b|27|1 623,0,0,0,1,0,0,0,0,1,0,0,0,0,0,625,
scooby_state_418719|42|1 624,0,0,0,0,0,0,0,0,0,0,1,0,0,0,625,
scooby_state_4186fc|10|1 622,0,0,0,0,0,1,0,2,0,0,0,0,0,0,625,
scooby_state_418719|45|1 625,0,0,0,0,0,0,0,0,0,0,0,0,0,0,625,
scooby_state_4186f3|47|1 625,0,0,0,0,0,0,0,0,0,0,0,0,0,0,625,
scooby_state_4186f3|0|0 624,1,0,0,0,0,0,0,0,0,0,0,0,0,0,625,
scooby_state_4186d0|39|1 622,0,1,1,0,0,0,0,0,0,1,0,0,0,0,625,
scooby_state_413a4b|15|1 625,0,0,0,0,0,0,0,0,0,0,0,0,0,0,625,
scooby_state_418719|10|1 623,1,0,1,0,0,0,0,0,0,0,0,0,0,0,625,
scooby_state_418719|20|1 625,0,0,0,0,0,0,0,0,0,0,0,0,0,0,625,
scooby_state_418719|48|1 625,0,0,0,0,0,0,0,0,0,0,0,0,0,0,625,
scooby_state_413a4b|24|1 624,0,0,0,0,0,1,0,0,0,0,0,0,0,0,625,
scooby_state_4186d0|49|1 623,0,0,0,0,1,0,0,0,0,0,1,0,0,0,625,
scooby_state_4186f3|50|1 625,0,0,0,0,0,0,0,0,0,0,0,0,0,0,625,
scooby_state_418719|51|1 623,0,0,0,1,0,0,0,0,1,0,0,0,0,0,625,
scooby_state_413a4b|11|1 624,0,0,0,1,0,0,0,0,0,0,0,0,0,0,625,
scooby_state_4186d0|10|1 622,0,0,0,0,0,0,0,1,0,0,1,0,0,1,625,
scooby_state_4186f3|22|1 624,0,0,0,0,0,0,0,0,0,0,0,0,0,1,625,
scooby_state_4186d0|8|1 625,0,0,0,0,0,0,0,0,0,0,0,0,0,0,625,
scooby_state_4186f3|53|1 625,0,0,0,0,0,0,0,0,0,0,0,0,0,0,625,
scooby_state_4186d0|55|1 624,0,0,0,0,0,0,0,1,0,0,0,0,0,0,625,
scooby_state_4186f3|6|1 624,0,0,0,0,0,0,0,1,0,0,0,0,0,0,625,
scooby_state_4186f3|56|1 625,0,0,0,0,0,0,0,0,0,0,0,0,0,0,625,
scooby_state_418719|38|1 625,0,0,0,0,0,0,0,0,0,0,0,0,0,0,625,
scooby_state_418719|4|1 623,0,1,0,0,0,0,0,0,1,0,0,0,0,0,625,
scooby_state_418727|2|1 623,0,1,0,0,1,0,0,0,0,0,0,0,0,0,625,
scooby_state_4186f3|59|1 624,1,0,0,0,0,0,0,0,0,0,0,0,0,0,625,
scooby_state_4186d0|30|1 623,1,0,0,0,0,0,0,0,0,0,0,1,0,0,625,
scooby_state_4186d0|61|1 624,0,0,0,0,0,0,0,0,1,0,0,0,0,0,625,
scooby_state_4186f3|60|1 623,0,0,0,0,0,0,1,0,0,1,0,0,0,0,625,
scooby_state_4186f3|55|1 624,0,1,0,0,0,0,0,0,0,0,0,0,0,0,625,
scooby_state_4186f3|34|1 623,0,0,0,1,1,0,0,0,0,0,0,0,0,0,625,
scooby_state_418719|59|1 625,0,0,0,0,0,0,0,0,0,0,0,0,0,0,625,
scooby_state_4186f3|12|1 624,0,0,0,0,1,0,0,0,0,0,0,0,0,0,625,
scooby_state_4186f3|38|1 625,0,0,0,0,0,0,0,0,0,0,0,0,0,0,625,
scooby_state_4186d0|60|1 623,0,0,0,0,0,0,0,1,0,0,0,0,1,0,625,
scooby_state_4186f3|26|1 625,0,0,0,0,0,0,0,0,0,0,0,0,0,0,625,
scooby_state_418719|17|1 624,1,0,0,0,0,0,0,0,0,0,0,0,0,0,625,
scooby_state_4186f3|39|1 625,0,0,0,0,0,0,0,0,0,0,0,0,0,0,625,
scooby_state_4186d0|18|1 623,1,0,0,1,0,0,0,0,0,0,0,0,0,0,625,
scooby_state_4186f3|23|1 625,0,0,0,0,0,0,0,0,0,0,0,0,0,0,625,
scooby_state_4186d0|6|1 622,0,0,0,0,0,0,2,0,0,0,0,0,1,0,625,
scooby_state_418719|13|1 625,0,0,0,0,0,0,0,0,0,0,0,0,0,0,625,
scooby_state_4186d0|40|1 623,0,0,0,0,1,0,1,0,0,0,0,0,0,0,625,
scooby_state_418719|36|1 623,1,0,0,0,0,0,0,0,1,0,0,0,0,0,625,
scooby_state_413a4b|45|1 625,0,0,0,0,0,0,0,0,0,0,0,0,0,0,625,
scooby_state_4186f3|28|1 622,0,0,0,1,0,0,0,0,0,0,0,0,0,2,625,
scooby_state_4186d0|34|1 624,0,1,0,0,0,0,0,0,0,0,0,0,0,0,625,
scooby_state_418719|56|1 622,0,1,0,0,0,0,1,0,1,0,0,0,0,0,625,
scooby_state_4186f3|40|1 624,0,0,1,0,0,0,0,0,0,0,0,0,0,0,625,
scooby_state_41872c|35|1 625,0,0,0,0,0,0,0,0,0,0,0,0,0,0,625,
scooby_state_418719|35|1 624,0,1,0,0,0,0,0,0,0,0,0,0,0,0,625,
scooby_state_4186fc|54|1 620,1,1,0,0,0,0,0,0,0,0,0,2,0,0,624,
scooby_state_4186d8|18|1 0,0,0,0,624,0,0,0,0,0,0,0,0,0,0,624,
scooby_state_418727|14|1 623,0,0,0,0,0,0,1,0,0,0,0,0,0,0,624,
scooby_state_4186d8|1|1 0,0,0,0,622,0,0,1,0,0,0,0,0,1,0,624,
scooby_state_418727|11|1 622,0,1,0,0,1,0,0,0,0,0,0,0,0,0,624,
scooby_state_418727|9|1 620,1,0,1,0,0,0,0,0,1,0,0,0,0,1,624,
scooby_state_4186d8|16|1 0,0,0,0,623,0,1,0,0,0,0,0,0,0,0,624,
scooby_state_4186fc|18|1 623,0,0,0,0,0,0,0,0,0,0,0,0,1,0,624,
scooby_state_4186d8|10|1 0,0,0,0,624,0,0,0,0,0,0,0,0,0,0,624,
scooby_state_418727|16|1 623,1,0,0,0,0,0,0,0,0,0,0,0,0,0,624,
scooby_state_4186fc|15|1 624,0,0,0,0,0,0,0,0,0,0,0,0,0,0,624,
scooby_state_4186d8|14|1 0,0,0,0,624,0,0,0,0,0,0,0,0,0,0,624,
scooby_state_4186fc|11|1 624,0,0,0,0,0,0,0,0,0,0,0,0,0,0,624,
scooby_state_418727|18|1 624,0,0,0,0,0,0,0,0,0,0,0,0,0,0,624,
scooby_state_418727|12|1 623,0,0,0,0,0,0,0,0,0,0,0,0,0,0,623,
scooby_state_418727|36|1 621,0,0,0,0,0,0,1,0,0,0,0,1,0,0,623,
scooby_state_4186d8|21|1 0,0,0,0,623,0,0,0,0,0,0,0,0,0,0,623,
scooby_state_418727|45|1 623,0,0,0,0,0,0,0,0,0,0,0,0,0,0,623,
scooby_state_418727|19|1 618,0,1,0,1,1,0,0,0,0,1,0,1,0,0,623,
scooby_state_4186fc|19|1 622,0,0,0,0,0,0,0,0,0,0,0,0,0,0,622,
scooby_state_4186fc|2|1 621,0,0,0,0,0,0,1,0,0,0,0,0,0,0,622,
scooby_state_4186fc|45|1 618,0,2,1,0,0,0,0,0,1,0,0,0,0,0,622,
scooby_state_418727|20|1 622,0,0,0,0,0,0,0,0,0,0,0,0,0,0,622,
scooby_state_4186d8|4|1 0,0,0,0,621,0,0,0,0,0,0,0,0,0,0,621,
scooby_state_4186fc|22|1 621,0,0,0,0,0,0,0,0,0,0,0,0,0,0,621,
scooby_state_418727|62|1 620,0,0,0,0,0,0,0,0,0,0,0,0,1,0,621,
scooby_state_4186fc|62|1 620,0,0,0,0,0,0,0,0,0,1,0,0,0,0,621,
scooby_state_418727|27|1 618,0,1,0,1,0,1,0,0,0,0,0,0,0,0,621,
scooby_state_418727|59|1 618,0,1,0,0,0,0,0,0,0,0,0,0,0,0,619,
scooby_state_418727|50|1 616,0,0,0,0,1,0,0,0,0,1,0,1,0,0,619,
scooby_state_4186d8|44|1 0,0,0,0,617,0,0,0,0,0,0,0,2,0,0,619,
scooby_state_418727|3|1 617,0,0,1,0,0,0,0,0,0,0,0,0,0,0,618,
scooby_state_4186fc|48|1 617,0,0,0,0,0,0,0,0,0,0,0,0,1,0,618,
scooby_state_418727|15|1 616,0,0,1,0,0,0,0,1,0,0,0,0,0,0,618,
scooby_state_4186d8|57|1 0,0,0,0,614,0,1,0,1,0,0,0,0,0,1,617,
scooby_state_418727|43|1 614,0,0,0,0,0,0,0,0,0,0,1,0,0,0,615,
scooby_state_4186d8|22|1 0,0,0,0,615,0,0,0,0,0,0,0,0,0,0,615,
scooby_state_4186d8|43|1 0,0,0,0,613,0,0,0,0,0,0,0,0,0,1,614,
scooby_state_418727|32|1 613,0,0,0,0,0,0,0,0,0,0,1,0,0,0,614,
scooby_state_4186fc|30|1 610,0,0,0,0,1,0,0,0,0,0,1,0,0,0,612,
scooby_state_4186d8|52|1 0,0,0,0,612,0,0,0,0,0,0,0,0,0,0,612,
scooby_state_4186d8|0|0 1,0,1,0,610,0,0,0,0,0,0,0,0,0,0,612,
scooby_state_418727|0|0 609,0,0,0,0,1,0,0,0,0,0,0,0,0,0,610,
scooby_state_4186fc|0|0 608,0,0,0,0,0,0,0,0,0,0,0,0,0,0,608,
scooby_state_418727|23|1 604,0,0,0,1,0,1,0,1,0,0,0,0,0,0,607,
scooby_state_418727|21|1 607,0,0,0,0,0,0,0,0,0,0,0,0,0,0,607,
scooby_state_4186fc|36|1 606,0,0,0,0,1,0,0,0,0,0,0,0,0,0,607,
scooby_state_4186d8|29|1 0,0,0,0,605,0,0,0,1,0,0,0,0,1,0,607,
scooby_state_4186d8|19|1 0,0,0,0,606,0,1,0,0,0,0,0,0,0,0,607,
scooby_state_4186fc|20|1 606,0,0,0,0,0,1,0,0,0,0,0,0,0,0,607,
scooby_state_4186d8|33|1 0,0,0,0,607,0,0,0,0,0,0,0,0,0,0,607,
scooby_state_4186fc|59|1 603,1,0,0,0,0,0,0,0,0,1,0,0,1,0,606,
scooby_state_4186d8|53|1 0,0,1,0,604,0,0,0,0,0,0,0,0,0,0,605,
scooby_state_4186d8|63|1 0,0,0,0,603,0,0,0,0,0,0,0,0,0,0,603,
scooby_state_418727|35|1 602,0,0,0,0,0,0,0,0,0,0,0,0,0,0,602,
scooby_state_41872c|12|1 601,0,0,0,0,0,0,0,0,0,0,0,0,0,0,601,
scooby_state_4186d8|62|1 0,0,0,0,600,0,0,0,1,0,0,0,0,0,0,601,
scooby_state_4186fc|41|1 600,0,0,0,0,0,0,0,0,0,0,0,0,0,0,600,
scooby_state_4186d8|47|1 0,0,0,0,600,0,0,0,0,0,0,0,0,0,0,600,
scooby_state_4186fc|43|1 599,0,1,0,0,0,0,0,0,0,0,0,0,0,0,600,
scooby_state_418727|52|1 598,0,0,0,0,1,0,0,0,0,0,0,1,0,0,600,
scooby_state_418727|44|1 598,0,0,0,1,0,0,0,0,0,0,0,0,0,0,599,
scooby_state_418727|41|1 596,1,0,1,0,0,0,0,0,0,0,0,0,0,0,598,
scooby_state_418727|57|1 597,1,0,0,0,0,0,0,0,0,0,0,0,0,0,598,
scooby_state_4186fc|27|1 597,0,0,0,0,0,0,0,0,0,0,0,0,0,0,597,
scooby_state_4186d8|56|1 0,0,0,0,595,0,0,0,0,0,0,0,0,0,0,595,
scooby_state_418727|58|1 595,0,0,0,0,0,0,0,0,0,0,0,0,0,0,595,
scooby_state_4186d8|30|1 0,0,0,0,593,0,0,0,0,0,0,0,1,0,0,594,
scooby_state_4186d8|37|1 0,0,0,0,593,0,0,0,1,0,0,0,0,0,0,594,
scooby_state_4186fc|57|1 592,1,0,0,0,0,0,0,0,0,0,0,1,0,0,594,
scooby_state_4186fc|44|1 592,1,0,0,0,0,0,0,0,0,0,0,0,0,0,593,
scooby_state_4186d8|40|1 0,0,0,0,588,0,0,1,0,0,0,0,0,0,0,589,
scooby_state_4186d8|41|1 0,0,0,0,589,0,0,0,0,0,0,0,0,0,0,589,
scooby_state_4186fc|42|1 586,1,0,0,0,0,0,0,0,0,0,0,0,0,0,587,
scooby_state_4186fc|53|1 584,0,0,0,0,1,0,0,0,0,0,0,1,1,0,587,
scooby_state_4186d8|51|1 0,0,0,0,586,0,0,1,0,0,0,0,0,0,0,587,
scooby_state_4186d8|15|1 0,0,0,0,585,0,0,0,0,0,1,0,0,0,0,586,
scooby_state_4186fc|16|1 584,0,0,0,0,0,0,0,1,0,0,1,0,0,0,586,
scooby_state_4186d8|7|1 0,0,0,0,585,0,0,0,0,0,0,0,0,0,0,585,
scooby_state_4186d8|48|1 0,0,0,1,582,0,0,0,0,0,0,1,0,0,0,584,
scooby_state_4186d8|42|1 0,0,0,0,581,0,0,0,0,0,0,2,0,0,0,583,
scooby_state_418727|7|1 580,0,1,0,1,0,0,0,0,0,0,0,0,0,0,582,
scooby_state_418727|54|1 580,0,0,1,0,0,0,0,0,0,0,0,0,0,0,581,
scooby_state_4186d8|50|1 0,0,0,0,579,0,0,0,0,1,0,0,0,0,0,580,
scooby_state_4186d8|46|1 0,0,0,0,577,0,0,0,0,0,0,0,0,0,0,577,
scooby_state_4186fc|47|1 575,0,1,0,0,0,0,0,1,0,0,0,0,0,0,577,
scooby_state_4186fc|34|1 572,0,0,0,0,1,0,0,0,0,1,0,0,0,1,575,
scooby_state_418727|53|1 575,0,0,0,0,0,0,0,0,0,0,0,0,0,0,575,
scooby_state_4186d8|25|1 0,0,0,0,573,0,0,1,0,0,0,0,0,0,0,574,
scooby_state_418727|26|1 571,0,0,0,0,0,1,0,0,0,0,0,0,0,1,573,
scooby_state_4186d8|36|1 0,0,0,0,568,0,0,0,0,0,2,0,0,0,1,571,
scooby_state_418727|39|1 569,0,0,0,0,0,0,0,0,0,0,0,0,0,1,570,
scooby_state_418727|61|1 569,0,0,0,0,0,0,0,1,0,0,0,0,0,0,570,
scooby_state_4186d8|24|1 0,0,0,0,569,0,0,0,0,0,0,0,0,0,0,569,
scooby_state_4186d8|59|1 0,0,1,0,568,0,0,0,0,0,0,0,0,0,0,569,
scooby_state_41872c|4|1 566,0,0,0,0,0,1,0,0,0,0,0,0,1,0,568,
scooby_state_418727|48|1 567,0,0,0,0,0,0,0,0,0,0,0,0,0,0,567,
scooby_state_4186fc|38|1 567,0,0,0,0,0,0,0,0,0,0,0,0,0,0,567,
scooby_state_418727|24|1 567,0,0,0,0,0,0,0,0,0,0,0,0,0,0,567,
scooby_state_4186d8|6|1 0,0,0,1,564,0,0,0,0,0,0,0,0,1,1,567,
scooby_state_4186fc|25|1 562,0,0,1,0,0,0,0,0,0,0,0,0,0,0,563,
scooby_state_4186d8|39|1 1,0,0,0,560,0,0,0,0,0,0,0,0,0,1,562,
scooby_state_418727|56|1 562,0,0,0,0,0,0,0,0,0,0,0,0,0,0,562,
scooby_state_4186fc|50|1 559,0,0,1,0,0,0,0,0,1,0,0,0,0,0,561,
scooby_state_4186d8|54|1 0,0,0,0,558,0,0,1,0,0,0,0,0,0,0,559,
scooby_state_4186fc|52|1 556,0,0,0,0,0,0,1,0,0,0,0,0,0,1,558,
scooby_state_418727|47|1 546,0,0,0,0,0,0,0,0,0,1,0,0,0,0,547,
scooby_state_418727|42|1 545,0,0,1,0,0,0,0,0,0,0,0,0,0,0,546,
scooby_state_4186d8|38|1 0,0,0,1,541,1,0,0,0,0,0,0,1,0,0,544,
scooby_state_418727|29|1 533,1,0,0,0,1,1,1,0,3,0,0,0,0,0,540,
scooby_state_4186fc|39|1 538,0,0,0,0,0,0,0,1,0,0,0,0,0,0,539,
scooby_state_418727|55|1 538,0,0,0,0,0,0,0,0,0,0,0,0,0,0,538,
scooby_state_418727|37|1 536,0,0,1,0,0,0,0,0,0,0,0,0,0,0,537,
scooby_state_4186d8|27|1 0,0,0,0,533,0,0,0,0,0,0,0,0,0,1,534,
scooby_state_4186d8|34|1 0,1,0,0,533,0,0,0,0,0,0,0,0,0,0,534,
scooby_state_4186fc|55|1 532,0,0,0,0,0,0,0,0,1,0,0,0,0,0,533,
scooby_state_4186d8|55|1 0,0,0,0,529,0,0,0,0,0,0,0,0,1,0,530,
scooby_state_4186fc|60|1 527,0,0,0,0,0,0,0,0,0,0,0,0,0,0,527,
scooby_state_4186fc|28|1 521,0,1,0,0,0,0,0,0,0,0,0,0,0,0,522,
scooby_state_418727|33|1 520,0,0,0,0,0,0,0,0,0,0,0,0,0,0,520,
scooby_state_4186d8|28|1 0,0,0,0,518,0,0,0,0,0,0,0,0,0,0,518,
scooby_state_418727|34|1 516,0,0,0,0,0,1,0,0,0,0,0,0,0,0,517,
scooby_state_4186fc|56|1 514,0,0,0,0,0,0,0,0,0,0,0,0,0,0,514,
scooby_state_4186fc|24|1 512,0,0,0,0,0,0,0,0,1,0,0,0,0,0,513,
scooby_state_4186d8|23|1 0,0,0,0,513,0,0,0,0,0,0,0,0,0,0,513,
scooby_state_4186d8|31|1 0,0,0,0,510,0,0,0,0,0,0,1,0,0,0,511,
scooby_state_4186fc|61|1 511,0,0,0,0,0,0,0,0,0,0,0,0,0,0,511,
scooby_state_4186d8|45|1 0,0,0,0,510,0,0,0,0,0,0,0,0,0,0,510,
scooby_state_418727|28|1 510,0,0,0,0,0,0,0,0,0,0,0,0,0,0,510,
scooby_state_418727|25|1 509,0,0,0,0,0,0,0,0,0,0,0,0,0,0,509,
scooby_state_4186fc|32|1 508,0,0,0,0,0,0,0,0,0,0,0,0,1,0,509,
scooby_state_4186fc|51|1 508,0,0,0,0,0,0,0,0,1,0,0,0,0,0,509,
scooby_state_413a5b|60|1 506,0,1,0,0,0,0,0,0,0,0,0,0,0,0,507,
scooby_state_413a3c|59|1 503,1,0,0,0,0,0,0,0,0,0,1,0,0,0,505,
scooby_state_413a3c|60|1 503,1,0,0,0,0,0,0,0,0,0,0,0,0,0,504,
scooby_state_413a5b|61|1 504,0,0,0,0,0,0,0,0,0,0,0,0,0,0,504,
scooby_state_413a5b|1|1 502,0,0,0,0,0,0,0,0,0,0,0,0,0,0,502,
scooby_state_413a5b|59|1 500,0,0,0,0,0,0,0,0,0,0,0,0,0,0,500,
scooby_state_413a3c|61|1 498,0,0,0,0,0,0,1,0,0,0,0,0,0,0,499,
scooby_state_413a3c|58|1 498,0,0,0,0,0,0,0,0,0,0,0,0,0,0,498,
scooby_state_4186d8|60|1 0,0,0,0,498,0,0,0,0,0,0,0,0,0,0,498,
scooby_state_413a3c|63|1 497,0,1,0,0,0,0,0,0,0,0,0,0,0,0,498,
scooby_state_413a3c|1|1 496,0,0,0,0,0,0,0,0,0,0,0,0,0,0,496,
scooby_state_413a3c|62|1 495,0,0,0,0,0,0,0,0,0,0,0,1,0,0,496,
scooby_state_418727|38|1 496,0,0,0,0,0,0,0,0,0,0,0,0,0,0,496,
scooby_state_413a5b|58|1 494,0,0,0,0,0,0,0,1,0,0,0,0,0,0,495,
scooby_state_413a5b|62|1 495,0,0,0,0,0,0,0,0,0,0,0,0,0,0,495,
scooby_state_413a5b|63|1 494,0,0,0,0,0,0,0,0,0,0,0,0,0,0,494,
scooby_state_413a5b|2|1 492,0,0,0,0,0,0,0,0,0,0,0,0,0,0,492,
scooby_state_4186fc|33|1 489,0,0,0,0,0,0,0,0,0,0,0,0,1,0,490,
scooby_state_4186d8|32|1 0,0,0,0,487,0,0,1,0,0,0,0,0,1,0,489,
scooby_state_418727|60|1 487,0,0,0,0,0,0,0,0,0,0,0,0,0,0,487,
scooby_state_4186fc|23|1 475,0,0,0,0,0,0,0,0,0,0,0,0,0,0,475,
scooby_state_4186fc|29|1 461,0,0,0,0,0,0,0,0,0,0,0,0,0,0,461,
scooby_state_413a3c|14|1 454,0,0,0,0,0,0,0,0,0,0,0,0,0,0,454,
scooby_state_413a3c|44|1 454,0,0,0,0,0,0,0,0,0,0,0,0,0,0,454,
scooby_state_413a3c|4|1 453,0,0,0,1,0,0,0,0,0,0,0,0,0,0,454,
scooby_state_413a3c|34|1 452,0,0,0,0,0,0,0,1,0,0,1,0,0,0,454,
scooby_state_418727|30|1 453,0,0,0,0,0,0,0,0,0,0,0,1,0,0,454,
scooby_state_413a3c|10|1 452,0,0,0,0,1,0,0,0,0,0,0,0,0,0,453,
scooby_state_4186fc|46|1 453,0,0,0,0,0,0,0,0,0,0,0,0,0,0,453,
scooby_state_413a3c|54|1 453,0,0,0,0,0,0,0,0,0,0,0,0,0,0,453,
scooby_state_413a3c|38|1 452,0,0,0,0,0,0,0,0,0,0,0,0,0,0,452,
scooby_state_413a3c|20|1 452,0,0,0,0,0,0,0,0,0,0,0,0,0,0,452,
scooby_state_418727|46|1 451,0,0,0,0,0,1,0,0,0,0,0,0,0,0,452,
scooby_state_413a3c|28|1 451,0,0,0,0,0,0,0,0,0,0,0,0,0,0,451,
scooby_state_413a3c|24|1 450,0,0,0,0,0,0,1,0,0,0,0,0,0,0,451,
scooby_state_413a3c|30|1 449,0,0,0,0,0,0,0,0,0,0,1,0,0,1,451,
scooby_state_413a3c|50|1 450,0,0,0,0,0,0,0,0,0,0,0,0,0,0,450,
scooby_state_413a3c|48|1 449,0,0,0,0,1,0,0,0,0,0,0,0,0,0,450,
scooby_state_413a3c|18|1 447,0,0,1,0,0,0,1,1,0,0,0,0,0,0,450,
scooby_state_418727|51|1 447,0,0,0,0,0,0,2,0,0,0,0,0,0,0,449,
scooby_state_413a3c|40|1 448,0,0,0,0,0,0,0,0,0,0,0,0,0,0,448,
scooby_state_413a3c|52|1 447,0,0,0,0,0,0,0,0,0,0,0,1,0,0,448,
scooby_state_413a3c|6|1 448,0,0,0,0,0,0,0,0,0,0,0,0,0,0,448,
scooby_state_413a3c|26|1 446,0,0,0,1,0,0,0,0,0,0,0,0,0,0,447,
scooby_state_413a3c|22|1 446,0,0,0,1,0,0,0,0,0,0,0,0,0,0,447,
scooby_state_413a3c|8|1 446,0,0,0,0,0,0,0,1,0,0,0,0,0,0,447,
scooby_state_413a3c|42|1 445,0,1,0,0,0,0,0,0,1,0,0,0,0,0,447,
scooby_state_413a3c|36|1 445,0,0,0,0,0,1,0,0,0,0,0,0,0,0,446,
scooby_state_413a3c|2|1 445,0,0,0,0,0,0,0,0,0,0,1,0,0,0,446,
scooby_state_413a3c|46|1 444,0,0,0,0,0,1,0,0,0,0,0,0,0,1,446,
scooby_state_413a3c|12|1 446,0,0,0,0,0,0,0,0,0,0,0,0,0,0,446,
scooby_state_413a3c|16|1 443,0,0,0,0,1,0,0,0,0,0,0,0,1,0,445,
scooby_state_413a3c|32|1 444,0,0,0,0,1,0,0,0,0,0,0,0,0,0,445,
scooby_state_413a3c|56|1 443,0,0,0,0,0,0,0,0,0,0,0,0,1,0,444,
scooby_state_413a3c|49|1 442,0,0,0,0,0,0,0,0,0,0,0,0,1,0,443,
scooby_state_413a5b|10|1 441,0,0,0,0,0,0,0,0,0,0,0,0,0,2,443,
scooby_state_413a5b|20|1 443,0,0,0,0,0,0,0,0,0,0,0,0,0,0,443,
scooby_state_413a5b|35|1 443,0,0,0,0,0,0,0,0,0,0,0,0,0,0,443,
scooby_state_413a5b|25|1 443,0,0,0,0,0,0,0,0,0,0,0,0,0,0,443,
scooby_state_413a5b|54|1 440,0,1,0,0,0,0,0,0,0,1,0,0,0,0,442,
scooby_state_413a5b|55|1 441,0,0,0,0,0,1,0,0,0,0,0,0,0,0,442,
scooby_state_413a5b|15|1 441,0,0,1,0,0,0,0,0,0,0,0,0,0,0,442,
scooby_state_413a5b|30|1 442,0,0,0,0,0,0,0,0,0,0,0,0,0,0,442,
scooby_state_413a3c|5|1 441,1,0,0,0,0,0,0,0,0,0,0,0,0,0,442,
scooby_state_413a5b|50|1 442,0,0,0,0,0,0,0,0,0,0,0,0,0,0,442,
scooby_state_413a5b|40|1 442,0,0,0,0,0,0,0,0,0,0,0,0,0,0,442,
scooby_state_413a5b|5|1 440,0,1,0,0,0,0,1,0,0,0,0,0,0,0,442,
scooby_state_413a3c|25|1 442,0,0,0,0,0,0,0,0,0,0,0,0,0,0,442,
scooby_state_413a3c|15|1 442,0,0,0,0,0,0,0,0,0,0,0,0,0,0,442,
scooby_state_413a3c|29|1 441,0,0,0,0,0,0,0,0,0,0,0,0,0,1,442,
scooby_state_413a5b|44|1 440,0,0,1,0,0,0,0,0,0,0,0,0,0,1,442,
scooby_state_413a3c|39|1 441,0,0,0,0,0,1,0,0,0,0,0,0,0,0,442,
scooby_state_413a5b|45|1 440,0,0,0,1,0,1,0,0,0,0,0,0,0,0,442,
scooby_state_413a3c|19|1 442,0,0,0,0,0,0,0,0,0,0,0,0,0,0,442,
scooby_state_413a3c|9|1 440,1,0,0,0,0,0,0,0,0,0,0,0,0,0,441,
scooby_state_413a5b|49|1 441,0,0,0,0,0,0,0,0,0,0,0,0,0,0,441,
scooby_state_413a3c|35|1 441,0,0,0,0,0,0,0,0,0,0,0,0,0,0,441,
scooby_state_413a5b|11|1 441,0,0,0,0,0,0,0,0,0,0,0,0,0,0,441,
scooby_state_413a5b|34|1 440,0,0,0,0,0,0,0,0,1,0,0,0,0,0,441,
scooby_state_413a5b|39|1 439,0,0,1,0,0,0,0,0,0,0,0,0,0,0,440,
scooby_state_413a5b|24|1 440,0,0,0,0,0,0,0,0,0,0,0,0,0,0,440,
scooby_state_413a5b|6|1 440,0,0,0,0,0,0,0,0,0,0,0,0,0,0,440,
scooby_state_413a3c|45|1 439,0,0,0,0,0,0,1,0,0,0,0,0,0,0,440,
scooby_state_413a5b|21|1 439,0,0,0,0,1,0,0,0,0,0,0,0,0,0,440,
scooby_state_413a3c|55|1 439,0,0,0,0,0,0,0,0,0,0,0,0,0,0,439,
scooby_state_413a5b|31|1 439,0,0,0,0,0,0,0,0,0,0,0,0,0,0,439,
scooby_state_413a5b|16|1 437,0,1,0,0,0,0,0,0,0,0,0,1,0,0,439,
scooby_state_413a5b|29|1 438,0,0,0,0,0,1,0,0,0,0,0,0,0,0,439,
scooby_state_413a5b|14|1 438,0,0,0,0,0,0,0,0,0,0,1,0,0,0,439,
scooby_state_413a3c|53|1 439,0,0,0,0,0,0,0,0,0,0,0,0,0,0,439,
scooby_state_413a5b|41|1 436,0,0,0,1,0,0,0,1,0,0,0,0,0,0,438,
scooby_state_413a3c|43|1 436,0,0,0,0,0,0,0,0,0,2,0,0,0,0,438,
scooby_state_413a5b|26|1 438,0,0,0,0,0,0,0,0,0,0,0,0,0,0,438,
scooby_state_413a5b|19|1 438,0,0,0,0,0,0,0,0,0,0,0,0,0,0,438,
scooby_state_413a5b|4|1 437,0,0,0,0,0,1,0,0,0,0,0,0,0,0,438,
scooby_state_413a5b|36|1 437,0,0,0,0,0,0,0,0,0,0,0,0,0,0,437,
scooby_state_413a3c|33|1 436,0,0,1,0,0,0,0,0,0,0,0,0,0,0,437,
scooby_state_413a3c|11|1 437,0,0,0,0,0,0,0,0,0,0,0,0,0,0,437,
scooby_state_413a5b|9|1 437,0,0,0,0,0,0,0,0,0,0,0,0,0,0,437,
scooby_state_413a5b|51|1 436,1,0,0,0,0,0,0,0,0,0,0,0,0,0,437,
scooby_state_413a3c|23|1 436,0,0,0,0,0,0,0,0,0,0,0,0,0,0,436,
scooby_state_413a5b|46|1 436,0,0,0,0,0,0,0,0,0,0,0,0,0,0,436,
scooby_state_413a3c|21|1 434,0,0,0,0,1,0,0,1,0,0,0,0,0,0,436,
scooby_state_413a5b|48|1 435,0,1,0,0,0,0,0,0,0,0,0,0,0,0,436,
scooby_state_413a5b|38|1 433,0,0,1,0,0,0,0,0,1,0,0,0,0,0,435,
scooby_state_413a5b|56|1 435,0,0,0,0,0,0,0,0,0,0,0,0,0,0,435,
scooby_state_413a3c|31|1 434,0,0,0,0,0,0,0,0,0,0,0,1,0,0,435,
[...]
scooby_state_4174cd|50|1 5,0,0,0,0,0,0,0,0,0,0,0,0,0,0,5,
scooby_state_417458|48|1 5,0,0,0,0,0,0,0,0,0,0,0,0,0,0,5,
scooby_state_4174cd|18|1 5,0,0,0,0,0,0,0,0,0,0,0,0,0,0,5,
scooby_state_417496|12|1 5,0,0,0,0,0,0,0,0,0,0,0,0,0,0,5,
scooby_state_4174cd|1|1 5,0,0,0,0,0,0,0,0,0,0,0,0,0,0,5,
scooby_state_417496|18|1 5,0,0,0,0,0,0,0,0,0,0,0,0,0,0,5,
scooby_state_417496|15|1 5,0,0,0,0,0,0,0,0,0,0,0,0,0,0,5,
scooby_state_417496|5|1 5,0,0,0,0,0,0,0,0,0,0,0,0,0,0,5,
scooby_state_417458|30|1 5,0,0,0,0,0,0,0,0,0,0,0,0,0,0,5,
scooby_state_417496|10|1 5,0,0,0,0,0,0,0,0,0,0,0,0,0,0,5,
scooby_state_417496|51|1 5,0,0,0,0,0,0,0,0,0,0,0,0,0,0,5,
scooby_state_417458|1|1 5,0,0,0,0,0,0,0,0,0,0,0,0,0,0,5,
scooby_state_417496|58|1 5,0,0,0,0,0,0,0,0,0,0,0,0,0,0,5,
scooby_state_4174cd|40|1 5,0,0,0,0,0,0,0,0,0,0,0,0,0,0,5,
scooby_state_417458|11|1 5,0,0,0,0,0,0,0,0,0,0,0,0,0,0,5,
scooby_state_4174cd|7|1 5,0,0,0,0,0,0,0,0,0,0,0,0,0,0,5,
scooby_state_417458|13|1 5,0,0,0,0,0,0,0,0,0,0,0,0,0,0,5,
scooby_state_4174cd|8|1 5,0,0,0,0,0,0,0,0,0,0,0,0,0,0,5,
scooby_state_417458|63|1 5,0,0,0,0,0,0,0,0,0,0,0,0,0,0,5,
scooby_state_417496|22|1 5,0,0,0,0,0,0,0,0,0,0,0,0,0,0,5,
scooby_state_417496|37|1 5,0,0,0,0,0,0,0,0,0,0,0,0,0,0,5,
scooby_state_41872c|49|2 4,0,0,0,0,0,0,0,0,0,0,0,0,0,0,4,
scooby_state_4186d8|38|2 0,0,0,0,4,0,0,0,0,0,0,0,0,0,0,4,
scooby_state_418727|62|2 4,0,0,0,0,0,0,0,0,0,0,0,0,0,0,4,
scooby_state_4186d8|30|2 0,0,0,0,4,0,0,0,0,0,0,0,0,0,0,4,
scooby_state_4186d8|24|2 0,0,0,0,4,0,0,0,0,0,0,0,0,0,0,4,
scooby_state_41872c|57|1 4,0,0,0,0,0,0,0,0,0,0,0,0,0,0,4,
scooby_state_41872c|16|1 4,0,0,0,0,0,0,0,0,0,0,0,0,0,0,4,
scooby_state_4186fc|48|2 4,0,0,0,0,0,0,0,0,0,0,0,0,0,0,4,
scooby_state_418727|23|2 4,0,0,0,0,0,0,0,0,0,0,0,0,0,0,4,
scooby_state_41872c|60|-1 4,0,0,0,0,0,0,0,0,0,0,0,0,0,0,4,
scooby_state_41872c|47|-1 4,0,0,0,0,0,0,0,0,0,0,0,0,0,0,4,
scooby_state_418727|6|1 3,0,0,0,0,0,0,0,0,0,0,0,0,0,0,3,
scooby_state_41872c|38|2 3,0,0,0,0,0,0,0,0,0,0,0,0,0,0,3,
scooby_state_4186fc|61|2 3,0,0,0,0,0,0,0,0,0,0,0,0,0,0,3,
scooby_state_418727|48|2 3,0,0,0,0,0,0,0,0,0,0,0,0,0,0,3,
scooby_state_418727|20|2 3,0,0,0,0,0,0,0,0,0,0,0,0,0,0,3,
scooby_state_41872c|33|-1 3,0,0,0,0,0,0,0,0,0,0,0,0,0,0,3,
scooby_state_418727|37|2 3,0,0,0,0,0,0,0,0,0,0,0,0,0,0,3,
scooby_state_4186fc|37|2 3,0,0,0,0,0,0,0,0,0,0,0,0,0,0,3,
scooby_state_418727|27|2 3,0,0,0,0,0,0,0,0,0,0,0,0,0,0,3,
scooby_state_4186d8|28|2 0,0,0,0,3,0,0,0,0,0,0,0,0,0,0,3,
scooby_state_4186fc|47|2 3,0,0,0,0,0,0,0,0,0,0,0,0,0,0,3,
scooby_state_41872c|42|2 3,0,0,0,0,0,0,0,0,0,0,0,0,0,0,3,
scooby_state_418727|5|1 3,0,0,0,0,0,0,0,0,0,0,0,0,0,0,3,
scooby_state_4180ae|58|0 1,1,0,0,0,0,0,0,0,0,0,0,0,0,0,2,
scooby_state_41872c|54|-1 2,0,0,0,0,0,0,0,0,0,0,0,0,0,0,2,
scooby_state_419412|54|0 2,0,0,0,0,0,0,0,0,0,0,0,0,0,0,2,
scooby_state_4186d8|47|2 0,0,0,0,2,0,0,0,0,0,0,0,0,0,0,2,
scooby_state_4186fc|52|2 2,0,0,0,0,0,0,0,0,0,0,0,0,0,0,2,
scooby_state_4186fc|55|2 2,0,0,0,0,0,0,0,0,0,0,0,0,0,0,2,
scooby_state_41872c|46|2 2,0,0,0,0,0,0,0,0,0,0,0,0,0,0,2,
scooby_state_4186fc|34|2 2,0,0,0,0,0,0,0,0,0,0,0,0,0,0,2,
scooby_state_4186d8|4|2 0,0,0,0,2,0,0,0,0,0,0,0,0,0,0,2,
scooby_state_41872c|17|-1 2,0,0,0,0,0,0,0,0,0,0,0,0,0,0,2,
scooby_state_418dd9|63|0 2,0,0,0,0,0,0,0,0,0,0,0,0,0,0,2,
scooby_state_4186fc|56|2 2,0,0,0,0,0,0,0,0,0,0,0,0,0,0,2,
scooby_state_41872c|37|2 2,0,0,0,0,0,0,0,0,0,0,0,0,0,0,2,
scooby_state_4186d8|21|2 0,0,0,0,2,0,0,0,0,0,0,0,0,0,0,2,
scooby_state_4186fc|43|2 2,0,0,0,0,0,0,0,0,0,0,0,0,0,0,2,
scooby_state_418727|6|2 2,0,0,0,0,0,0,0,0,0,0,0,0,0,0,2,
scooby_state_418727|3|2 2,0,0,0,0,0,0,0,0,0,0,0,0,0,0,2,
scooby_state_418727|53|2 2,0,0,0,0,0,0,0,0,0,0,0,0,0,0,2,
scooby_state_4180c2|46|-8 2,0,0,0,0,0,0,0,0,0,0,0,0,0,0,2,
scooby_state_41872c|2|-1 2,0,0,0,0,0,0,0,0,0,0,0,0,0,0,2,
scooby_state_41872c|16|2 1,0,0,0,0,0,0,0,0,0,0,0,0,0,0,1,
scooby_state_418f82|62|1 1,0,0,0,0,0,0,0,0,0,0,0,0,0,0,1,
scooby_state_41872c|35|2 1,0,0,0,0,0,0,0,0,0,0,0,0,0,0,1,
scooby_state_418dd0|62|0 1,0,0,0,0,0,0,0,0,0,0,0,0,0,0,1,
scooby_state_414c23|27|-1 1,0,0,0,0,0,0,0,0,0,0,0,0,0,0,1,
scooby_state_4186fc|15|2 1,0,0,0,0,0,0,0,0,0,0,0,0,0,0,1,
scooby_state_414bfe|0|0 1,0,0,0,0,0,0,0,0,0,0,0,0,0,0,1,
scooby_state_414c43|49|1 1,0,0,0,0,0,0,0,0,0,0,0,0,0,0,1,
scooby_state_41872c|9|1 1,0,0,0,0,0,0,0,0,0,0,0,0,0,0,1,
scooby_state_4184c0|19|1 1,0,0,0,0,0,0,0,0,0,0,0,0,0,0,1,
scooby_state_418fc2|63|1 1,0,0,0,0,0,0,0,0,0,0,0,0,0,0,1,
scooby_state_418f02|60|1 1,0,0,0,0,0,0,0,0,0,0,0,0,0,0,1,
scooby_state_418727|12|2 1,0,0,0,0,0,0,0,0,0,0,0,0,0,0,1,
scooby_state_418ec4|59|1 1,0,0,0,0,0,0,0,0,0,0,0,0,0,0,1,
scooby_state_414c87|50|-1 1,0,0,0,0,0,0,0,0,0,0,0,0,0,0,1,
scooby_state_418dd0|61|0 1,0,0,0,0,0,0,0,0,0,0,0,0,0,0,1,
scooby_state_41872c|20|2 1,0,0,0,0,0,0,0,0,0,0,0,0,0,0,1,
scooby_state_41dcc0|62|0 1,0,0,0,0,0,0,0,0,0,0,0,0,0,0,1,
scooby_state_4180c2|3|1 1,0,0,0,0,0,0,0,0,0,0,0,0,0,0,1,
scooby_state_4185c0|23|1 1,0,0,0,0,0,0,0,0,0,0,0,0,0,0,1,
scooby_state_41872c|61|-1 1,0,0,0,0,0,0,0,0,0,0,0,0,0,0,1,
scooby_state_41872c|50|2 1,0,0,0,0,0,0,0,0,0,0,0,0,0,0,1,
scooby_state_4186d8|19|2 0,0,0,0,1,0,0,0,0,0,0,0,0,0,0,1,
scooby_state_41872c|19|1 1,0,0,0,0,0,0,0,0,0,0,0,0,0,0,1,
scooby_state_418727|18|2 1,0,0,0,0,0,0,0,0,0,0,0,0,0,0,1,
scooby_state_4186d8|59|2 0,0,0,0,1,0,0,0,0,0,0,0,0,0,0,1,
scooby_state_4186d8|62|2 0,0,0,0,1,0,0,0,0,0,0,0,0,0,0,1,
scooby_state_41872c|11|1 1,0,0,0,0,0,0,0,0,0,0,0,0,0,0,1,
scooby_state_418540|21|1 1,0,0,0,0,0,0,0,0,0,0,0,0,0,0,1,
scooby_state_4186fc|41|2 1,0,0,0,0,0,0,0,0,0,0,0,0,0,0,1,
scooby_state_4186d8|5|1 0,0,0,0,1,0,0,0,0,0,0,0,0,0,0,1,
scooby_state_4186fc|42|2 1,0,0,0,0,0,0,0,0,0,0,0,0,0,0,1,
scooby_state_418727|19|2 1,0,0,0,0,0,0,0,0,0,0,0,0,0,0,1,
scooby_state_414bc4|47|0 1,0,0,0,0,0,0,0,0,0,0,0,0,0,0,1,
scooby_state_418090|2|-22 1,0,0,0,0,0,0,0,0,0,0,0,0,0,0,1,
scooby_state_418141|5|1 1,0,0,0,0,0,0,0,0,0,0,0,0,0,0,1,
scooby_state_414bbf|26|0 1,0,0,0,0,0,0,0,0,0,0,0,0,0,0,1,
scooby_state_4174c3|19|1 1,0,0,0,0,0,0,0,0,0,0,0,0,0,0,1,
scooby_state_415192|6|1 1,0,0,0,0,0,0,0,0,0,0,0,0,0,0,1,
scooby_state_4139df|39|0 1,0,0,0,0,0,0,0,0,0,0,0,0,0,0,1,
scooby_state_414c05|48|1 1,0,0,0,0,0,0,0,0,0,0,0,0,0,0,1,
scooby_state_41872c|10|-1 1,0,0,0,0,0,0,0,0,0,0,0,0,0,0,1,
scooby_state_43f4c0|19|1 1,0,0,0,0,0,0,0,0,0,0,0,0,0,0,1,
scooby_state_417401|16|1 1,0,0,0,0,0,0,0,0,0,0,0,0,0,0,1,
scooby_state_417389|14|0 1,0,0,0,0,0,0,0,0,0,0,0,0,0,0,1,
scooby_state_417582|22|1 1,0,0,0,0,0,0,0,0,0,0,0,0,0,0,1,
scooby_state_4186d8|22|2 0,0,0,0,1,0,0,0,0,0,0,0,0,0,0,1,
scooby_state_417441|17|1 1,0,0,0,0,0,0,0,0,0,0,0,0,0,0,1,
scooby_state_417483|18|1 1,0,0,0,0,0,0,0,0,0,0,0,0,0,0,1,
scooby_state_4175c0|23|1 1,0,0,0,0,0,0,0,0,0,0,0,0,0,0,1,
scooby_state_417458|18|0 1,0,0,0,0,0,0,0,0,0,0,0,0,0,0,1,
scooby_state_417340|13|1 1,0,0,0,0,0,0,0,0,0,0,0,0,0,0,1,
scooby_state_419483|18|1 1,0,0,0,0,0,0,0,0,0,0,0,0,0,0,1,
scooby_state_43f15f|46|1 1,0,0,0,0,0,0,0,0,0,0,0,0,0,0,1,
scooby_state_41dc98|50|2 1,0,0,0,0,0,0,0,0,0,0,0,0,0,0,1,
scooby_state_41dcc0|51|1 1,0,0,0,0,0,0,0,0,0,0,0,0,0,0,1,
scooby_state_41dce8|23|0 1,0,0,0,0,0,0,0,0,0,0,0,0,0,0,1,
scooby_state_417604|24|1 1,0,0,0,0,0,0,0,0,0,0,0,0,0,0,1,
scooby_state_43fb55|45|26 1,0,0,0,0,0,0,0,0,0,0,0,0,0,0,1,
scooby_state_418701|28|1 1,0,0,0,0,0,0,0,0,0,0,0,0,0,0,1,
scooby_state_414cc8|51|2 1,0,0,0,0,0,0,0,0,0,0,0,0,0,0,1,
scooby_state_417604|23|0 1,0,0,0,0,0,0,0,0,0,0,0,0,0,0,1,
scooby_state_41dd60|53|0 1,0,0,0,0,0,0,0,0,0,0,0,0,0,0,1,
scooby_state_43f4a9|18|0 1,0,0,0,0,0,0,0,0,0,0,0,0,0,0,1,
scooby_state_4173c2|15|1 1,0,0,0,0,0,0,0,0,0,0,0,0,0,0,1,
scooby_state_417502|20|1 1,0,0,0,0,0,0,0,0,0,0,0,0,0,0,1,
scooby_state_418583|22|1 0,0,0,0,1,0,0,0,0,0,0,0,0,0,0,1,
scooby_state_4186d0|27|0 1,0,0,0,0,0,0,0,0,0,0,0,0,0,0,1,
scooby_state_4186fc|63|1 1,0,0,0,0,0,0,0,0,0,0,0,0,0,0,1,
scooby_state_41872c|20|-1 1,0,0,0,0,0,0,0,0,0,0,0,0,0,0,1,
scooby_state_4186fc|19|2 1,0,0,0,0,0,0,0,0,0,0,0,0,0,0,1,
scooby_state_418727|50|2 1,0,0,0,0,0,0,0,0,0,0,0,0,0,0,1,
scooby_state_41872c|29|2 1,0,0,0,0,0,0,0,0,0,0,0,0,0,0,1,
scooby_state_4186d8|63|2 0,0,0,0,1,0,0,0,0,0,0,0,0,0,0,1,
scooby_state_414b83|46|1 1,0,0,0,0,0,0,0,0,0,0,0,0,0,0,1,
scooby_state_4186fc|51|2 1,0,0,0,0,0,0,0,0,0,0,0,0,0,0,1,
scooby_state_43f4a0|18|13 1,0,0,0,0,0,0,0,0,0,0,0,0,0,0,1,
scooby_state_41872c|14|1 1,0,0,0,0,0,0,0,0,0,0,0,0,0,0,1,
scooby_state_414b69|45|0 1,0,0,0,0,0,0,0,0,0,0,0,0,0,0,1,
scooby_state_414b69|28|0 1,0,0,0,0,0,0,0,0,0,0,0,0,0,0,1,
scooby_state_41872c|57|-1 1,0,0,0,0,0,0,0,0,0,0,0,0,0,0,1,
scooby_state_4186fc|4|1 1,0,0,0,0,0,0,0,0,0,0,0,0,0,0,1,
scooby_state_418103|4|1 1,0,0,0,0,0,0,0,0,0,0,0,0,0,0,1,
scooby_state_4186d0|62|0 1,0,0,0,0,0,0,0,0,0,0,0,0,0,0,1,
scooby_state_418719|63|1 1,0,0,0,0,0,0,0,0,0,0,0,0,0,0,1,
scooby_state_413a1e|24|1 1,0,0,0,0,0,0,0,0,0,0,0,0,0,0,1,
scooby_state_415270|9|1 1,0,0,0,0,0,0,0,0,0,0,0,0,0,0,1,
scooby_state_41872c|2|1 1,0,0,0,0,0,0,0,0,0,0,0,0,0,0,1,
scooby_state_413a43|41|1 1,0,0,0,0,0,0,0,0,0,0,0,0,0,0,1,
scooby_state_413a17|8|3 1,0,0,0,0,0,0,0,0,0,0,0,0,0,0,1,
scooby_state_413a03|40|0 1,0,0,0,0,0,0,0,0,0,0,0,0,0,0,1,
scooby_state_418e42|57|1 1,0,0,0,0,0,0,0,0,0,0,0,0,0,0,1,
scooby_state_43f578|21|-4 1,0,0,0,0,0,0,0,0,0,0,0,0,0,0,1,
scooby_state_41872c|56|2 1,0,0,0,0,0,0,0,0,0,0,0,0,0,0,1,
scooby_state_4145e3|23|0 1,0,0,0,0,0,0,0,0,0,0,0,0,0,0,1,
scooby_state_4139df|5|0 1,0,0,0,0,0,0,0,0,0,0,0,0,0,0,1,
scooby_state_41dc10|48|0 1,0,0,0,0,0,0,0,0,0,0,0,0,0,0,1,
scooby_state_442c99|63|0 1,0,0,0,0,0,0,0,0,0,0,0,0,0,0,1,
scooby_state_43f64e|25|14 1,0,0,0,0,0,0,0,0,0,0,0,0,0,0,1,
scooby_state_442c80|50|0 1,0,0,0,0,0,0,0,0,0,0,0,0,0,0,1,
scooby_state_418e84|58|1 1,0,0,0,0,0,0,0,0,0,0,0,0,0,0,1,
scooby_state_4186fc|6|1 1,0,0,0,0,0,0,0,0,0,0,0,0,0,0,1,
scooby_state_4186d8|51|2 0,0,0,0,1,0,0,0,0,0,0,0,0,0,0,1,
scooby_state_43f629|24|16 1,0,0,0,0,0,0,0,0,0,0,0,0,0,0,1,
scooby_state_4186fc|18|2 1,0,0,0,0,0,0,0,0,0,0,0,0,0,0,1,
scooby_state_43f181|6|-39 1,0,0,0,0,0,0,0,0,0,0,0,0,0,0,1,
scooby_state_41872c|14|-1 1,0,0,0,0,0,0,0,0,0,0,0,0,0,0,1,
scooby_state_419444|17|1 1,0,0,0,0,0,0,0,0,0,0,0,0,0,0,1,
scooby_state_415283|10|0 1,0,0,0,0,0,0,0,0,0,0,0,0,0,0,1,
scooby_state_413a7f|24|0 1,0,0,0,0,0,0,0,0,0,0,0,0,0,0,1,
scooby_state_442c80|43|0 1,0,0,0,0,0,0,0,0,0,0,0,0,0,0,1,
scooby_state_413a87|25|1 1,0,0,0,0,0,0,0,0,0,0,0,0,0,0,1,
scooby_state_418502|20|1 1,0,0,0,0,0,0,0,0,0,0,0,0,0,0,1,
scooby_state_43f010|0|0 1,0,0,0,0,0,0,0,0,0,0,0,0,0,0,1,
scooby_state_43f043|1|1 1,0,0,0,0,0,0,0,0,0,0,0,0,0,0,1,
scooby_state_43f140|5|4 1,0,0,0,0,0,0,0,0,0,0,0,0,0,0,1,
scooby_state_43f200|8|2 1,0,0,0,0,0,0,0,0,0,0,0,0,0,0,1,
scooby_state_43f2a2|10|-14 1,0,0,0,0,0,0,0,0,0,0,0,0,0,0,1,
scooby_state_43f65d|44|-2 1,0,0,0,0,0,0,0,0,0,0,0,0,0,0,1,
scooby_state_43f584|22|1 1,0,0,0,0,0,0,0,0,0,0,0,0,0,0,1,
scooby_state_415174|5|0 1,0,0,0,0,0,0,0,0,0,0,0,0,0,0,1,
scooby_state_4145e3|28|3 1,0,0,0,0,0,0,0,0,0,0,0,0,0,0,1,
scooby_state_415198|0|-5 1,0,0,0,0,0,0,0,0,0,0,0,0,0,0,1,
scooby_state_415200|8|1 1,0,0,0,0,0,0,0,0,0,0,0,0,0,0,1,
scooby_state_4193e0|15|0 1,0,0,0,0,0,0,0,0,0,0,0,0,0,0,1,
scooby_state_419400|16|1 1,0,0,0,0,0,0,0,0,0,0,0,0,0,0,1,
scooby_state_418dd0|55|0 1,0,0,0,0,0,0,0,0,0,0,0,0,0,0,1,
scooby_state_4139e7|8|0 1,0,0,0,0,0,0,0,0,0,0,0,0,0,0,1,
scooby_state_43fb55|0|0 1,0,0,0,0,0,0,0,0,0,0,0,0,0,0,1,
scooby_state_43f19a|15|0 1,0,0,0,0,0,0,0,0,0,0,0,0,0,0,1,
scooby_state_415174|26|-2 1,0,0,0,0,0,0,0,0,0,0,0,0,0,0,1,
scooby_state_413a3c|38|0 1,0,0,0,0,0,0,0,0,0,0,0,0,0,0,1,
scooby_state_4184b0|18|6 1,0,0,0,0,0,0,0,0,0,0,0,0,0,0,1,
scooby_state_43f2c2|11|1 1,0,0,0,0,0,0,0,0,0,0,0,0,0,0,1,
scooby_state_418310|12|-51 1,0,0,0,0,0,0,0,0,0,0,0,0,0,0,1,
scooby_state_4186d8|60|2 0,0,0,0,1,0,0,0,0,0,0,0,0,0,0,1,
scooby_state_418601|24|1 1,0,0,0,0,0,0,0,0,0,0,0,0,0,0,1,
scooby_state_4186fc|11|2 1,0,0,0,0,0,0,0,0,0,0,0,0,0,0,1,
scooby_state_4151c7|7|1 1,0,0,0,0,0,0,0,0,0,0,0,0,0,0,1,
scooby_state_4145ef|27|1 1,0,0,0,0,0,0,0,0,0,0,0,0,0,0,1,
scooby_state_4159f8|39|0 1,0,0,0,0,0,0,0,0,0,0,0,0,0,0,1,
scooby_state_417320|12|-12 1,0,0,0,0,0,0,0,0,0,0,0,0,0,0,1,
scooby_state_43f05b|48|5 1,0,0,0,0,0,0,0,0,0,0,0,0,0,0,1,
scooby_state_41dcc7|57|0 1,0,0,0,0,0,0,0,0,0,0,0,0,0,0,1,
scooby_state_415a02|40|1 1,0,0,0,0,0,0,0,0,0,0,0,0,0,0,1,
scooby_state_43f4c0|45|0 1,0,0,0,0,0,0,0,0,0,0,0,0,0,0,1,
scooby_state_413a0e|5|0 1,0,0,0,0,0,0,0,0,0,0,0,0,0,0,1,
scooby_state_418f43|61|1 1,0,0,0,0,0,0,0,0,0,0,0,0,0,0,1,
scooby_state_413a80|42|0 1,0,0,0,0,0,0,0,0,0,0,0,0,0,0,1,
scooby_state_418727|59|2 1,0,0,0,0,0,0,0,0,0,0,0,0,0,0,1,
scooby_state_414bda|28|2 0,0,0,0,1,0,0,0,0,0,0,0,0,0,0,1,
scooby_state_418727|16|2 1,0,0,0,0,0,0,0,0,0,0,0,0,0,0,1,
scooby_state_41872c|24|2 1,0,0,0,0,0,0,0,0,0,0,0,0,0,0,1,
scooby_state_415192|5|0 1,0,0,0,0,0,0,0,0,0,0,0,0,0,0,1,
scooby_state_41872c|18|-1 1,0,0,0,0,0,0,0,0,0,0,0,0,0,0,1,
scooby_state_417543|21|1 1,0,0,0,0,0,0,0,0,0,0,0,0,0,0,1,

scooby_action_0_deg_dist 0,143,0,0,0,0,0,0,0,0,0,0,0,0,0,0,
scooby_action_12_deg_dist 0,766,0,0,0,0,0,0,0,0,0,0,0,0,0,0,
scooby_action_4_deg_dist 0,300,0,0,0,0,0,0,0,0,0,0,0,0,0,0,
scooby_action_1_deg_dist 0,201891,21638,0,50592,0,462586,0,0,0,0,0,0,0,0,0,
scooby_action_30_deg_dist 0,207,0,0,0,0,0,0,0,0,0,0,0,0,0,0,
scooby_action_5_deg_dist 0,302,0,0,0,0,0,0,0,0,0,0,0,0,0,0,
scooby_action_10_deg_dist 0,15275,7914,0,19378,0,36265,0,0,0,0,0,0,0,0,0,
scooby_action_-6_deg_dist 0,126,0,0,0,0,0,0,0,0,0,0,0,0,0,0,
scooby_action_3_deg_dist 0,302,0,0,0,0,0,0,0,0,0,0,0,0,0,0,
scooby_action_32_deg_dist 0,165600,0,0,0,0,0,0,0,0,0,0,0,0,0,0,
scooby_action_23_deg_dist 0,151,0,0,0,0,0,0,0,0,0,0,0,0,0,0,
scooby_action_-1_deg_dist 0,137,0,0,0,0,0,0,0,0,0,0,0,0,0,0,
scooby_action_-3_deg_dist 0,139,0,0,0,0,0,0,0,0,0,0,0,0,0,0,
scooby_action_11_deg_dist 0,159438,0,0,0,0,0,0,0,0,0,0,0,0,0,0,
scooby_action_22_deg_dist 0,224,0,0,0,0,0,0,0,0,0,0,0,0,0,0,

scooby_track_called 1143374
scooby_track_same_address 86490
scooby_track_evict 1056628

scooby_reward_demand_called 1143374
scooby_reward_demand_pt_not_found 207529
scooby_reward_demand_pt_found 935845
scooby_reward_demand_pt_found_total 935845
scooby_reward_demand_has_reward 0
scooby_reward_train_called 17441
scooby_reward_assign_reward_called 1056824
scooby_reward_no_pref 143
scooby_reward_incorrect 17298
scooby_reward_correct_untimely 713689
scooby_reward_correct_timely 222156
scooby_reward_out_of_bounds 103538
scooby_reward_tracker_hit 0

scooby_reward_none_low_bw 143
scooby_reward_none_high_bw 0
scooby_reward_incorrect_low_bw 17298
scooby_reward_incorrect_high_bw 0
scooby_reward_correct_untimely_low_bw 713689
scooby_reward_correct_untimely_high_bw 0
scooby_reward_correct_timely_low_bw 222156
scooby_reward_correct_timely_high_bw 0
scooby_reward_out_of_bounds_low_bw 103538
scooby_reward_out_of_bounds_high_bw 0
scooby_reward_tracker_hit_low_bw 0
scooby_reward_tracker_hit_high_bw 0

scooby_reward_1 0,12938,563194,66190,8740,0,
scooby_reward_3 0,211,51,23,3,0,
scooby_reward_4 0,219,41,29,4,0,
scooby_reward_5 0,233,27,27,2,0,
scooby_reward_10 0,3152,8523,55388,11698,0,
scooby_reward_11 0,105,139802,19512,10,0,
scooby_reward_12 0,98,19,60,11,0,
scooby_reward_22 0,90,7,55,72,0,
scooby_reward_23 0,44,6,54,47,0,
scooby_reward_30 0,71,2,38,96,0,
scooby_reward_32 0,0,2015,80779,82805,0,
scooby_reward_-1 0,38,0,1,14,0,
scooby_reward_-3 0,50,1,0,22,0,
scooby_reward_-6 0,49,1,0,14,0,
scooby_reward_0 143,0,0,0,0,0,

scooby_train_called 1056627
scooby_train_compute_reward 17441

scooby_register_fill_called 683498
scooby_register_fill_set 230731
scooby_register_fill_set_total 230731

scooby_register_prefetch_hit_called 1768578
scooby_register_prefetch_hit_set 709303
scooby_register_prefetch_hit_set_total 709303

scooby_pref_issue_scooby 3319398

learning_engine_featurewise.action.called 1143374
learning_engine_featurewise.action.explore 2108
learning_engine_featurewise.action.exploit 1141266
learning_engine_featurewise.action.fallback 0
learning_engine_featurewise.action.dyn_fallback_saved_bw 0
learning_engine_featurewise.action.dyn_fallback_saved_bw_acc 0
learning_engine_featurewise.action.index_1_explored 138
learning_engine_featurewise.action.index_1_exploited 736569
learning_engine_featurewise.action.index_3_explored 153
learning_engine_featurewise.action.index_3_exploited 149
learning_engine_featurewise.action.index_4_explored 144
learning_engine_featurewise.action.index_4_exploited 156
learning_engine_featurewise.action.index_5_explored 136
learning_engine_featurewise.action.index_5_exploited 166
learning_engine_featurewise.action.index_10_explored 153
learning_engine_featurewise.action.index_10_exploited 78679
learning_engine_featurewise.action.index_11_explored 135
learning_engine_featurewise.action.index_11_exploited 159303
learning_engine_featurewise.action.index_12_explored 142
learning_engine_featurewise.action.index_12_exploited 624
learning_engine_featurewise.action.index_22_explored 149
learning_engine_featurewise.action.index_22_exploited 75
learning_engine_featurewise.action.index_23_explored 144
learning_engine_featurewise.action.index_23_exploited 7
learning_engine_featurewise.action.index_30_explored 149
learning_engine_featurewise.action.index_30_exploited 58
learning_engine_featurewise.action.index_32_explored 121
learning_engine_featurewise.action.index_32_exploited 165479
learning_engine_featurewise.action.index_-1_explored 136
learning_engine_featurewise.action.index_-1_exploited 1
learning_engine_featurewise.action.index_-3_explored 139
learning_engine_featurewise.action.index_-3_exploited 0
learning_engine_featurewise.action.index_-6_explored 126
learning_engine_featurewise.action.index_-6_exploited 0
learning_engine_featurewise.action.index_0_explored 143
learning_engine_featurewise.action.index_0_exploited 0
learning_engine_featurewise.learn.called 1056627
learning_engine_featurewise.learn.su_skip_PC 0
learning_engine_featurewise.learn.su_skip_PC_Delta 0

learning_engine_featurewise.q_value_histogram.bucket_0 0
learning_engine_featurewise.q_value_histogram.bucket_1 0
learning_engine_featurewise.q_value_histogram.bucket_2 0
learning_engine_featurewise.q_value_histogram.bucket_3 0
learning_engine_featurewise.q_value_histogram.bucket_4 5385
learning_engine_featurewise.q_value_histogram.bucket_5 5816
learning_engine_featurewise.q_value_histogram.bucket_6 1130065
learning_engine_featurewise.q_value_histogram.bucket_7 0

learning_engine_featurewise.consensus.total 1141266
learning_engine_featurewise.consensus.feature_align_PC 1137146
learning_engine_featurewise.consensus.feature_align_PC_ratio 1.00
learning_engine_featurewise.consensus.feature_align_PC_Delta 1140291
learning_engine_featurewise.consensus.feature_align_PC_Delta_ratio 1.00
learning_engine_featurewise.consensus.feature_align_all 1136171
learning_engine_featurewise.consensus.feature_align_all_ratio 1.00

learning_engine_featurewise.feature_PC_min_weight 1000000.00000000
learning_engine_featurewise.feature_PC_max_weight 0.00000000
learning_engine_featurewise.feature_PC_Delta_min_weight 1000000.00000000
learning_engine_featurewise.feature_PC_Delta_max_weight 0.00000000
unique_pcs 122
unique_pages 89944
unique_trigger_pcs 56
total_bitmaps_seen 0
unique_bitmaps_seen 0

scooby_bw_epochs 342213
scooby_bw_level_0 176695
scooby_bw_level_1 144112
scooby_bw_level_2 13144
scooby_bw_level_3 8262

scooby_ipc_epochs 0
scooby_ipc_level_0 0
scooby_ipc_level_1 0
scooby_ipc_level_2 0
scooby_ipc_level_3 0

scooby_cache_acc_epochs 77716
scooby_cache_acc_level_0 1
scooby_cache_acc_level_1 0
scooby_cache_acc_level_2 3
scooby_cache_acc_level_3 29
scooby_cache_acc_level_4 195
scooby_cache_acc_level_5 855
scooby_cache_acc_level_6 3220
scooby_cache_acc_level_7 8461
scooby_cache_acc_level_8 12398
scooby_cache_acc_level_9 52554

Channel_0_RQ_row_buffer_hit 365266
Channel_0_RQ_row_buffer_miss 545620
Channel_0_WQ_row_buffer_hit 185168
Channel_0_WQ_row_buffer_miss 225063
Channel_0_WQ_full 0
Channel_0_dbus_congested 449888

avg_congested_cycle 10

DRAM_bw_pochs 342213
DRAM_bw_level_0 176695
DRAM_bw_level_1 144112
DRAM_bw_level_2 13144
DRAM_bw_level_3 8262
