*************************************************
   ChampSim Multicore Out-of-Order Simulator
   Last compiled: Apr  3 2025 20:54:34
*************************************************
parsing config file: /home/zir/Pythia/config/nopref.ini

trace_0 /home/zir/ChampSim/ML-DPC/ChampSimTraces/spec17/620.omnetpp-s1.trace.xz
adding L2C_PREFETCHER: NONE
Initialize SHIP state
warmup_instructions 10000000
simulation_instructions 50000000
champsim_seed 164
measure_ipc 0
measure_ipc_epoch 1000
measure_dram_bw 1
measure_dram_bw_epoch 256
measure_cache_acc 1
measure_cache_acc_epoch 1024
l1d_perfect 0
l2c_perfect 0
llc_perfect 0
l1d_semi_perfect 0
l2c_semi_perfect 0
llc_semi_perfect 0
semi_perfect_cache_page_buffer_size 64

num_cpus 1
cpu_freq 4000
dram_io_freq 2400
page_size 4096
block_size 64
max_read_per_cycle 8
max_fill_per_cycle 1
dram_channels 1
log2_dram_channels 0
dram_ranks 1
dram_banks 8
dram_rows 65536
dram_columns 128
dram_row_size 8
dram_size 4096
dram_pages 1048576

fetch_width 6
decode_width 6
exec_width 4
lq_width 2
sq_width 2
retire_width 4
scheduler_size 128
branch_mispredict_penalty 20
rob_size 256
lq_size 72
sq_size 56
num_instr_destinations_sparc 4
num_instr_destinations 2
num_instr_sources 4

itlb_set 16
itlb_way 8
itlb_rq_size 16
itlb_wq_size 16
itlb_pq_size 0
itlb_mshr_size 8
itlb_latency 1

dtlb_set 16
dtlb_way 4
dtlb_rq_size 16
dtlb_wq_size 16
dtlb_pq_size 0
dtlb_mshr_size 8
dtlb_latency 1

stlb_set 128
stlb_way 12
stlb_rq_size 32
stlb_wq_size 32
stlb_pq_size 0
stlb_mshr_size 16
stlb_latency 8

l1i_size 32
l1i_set 64
l1i_way 8
l1i_rq_size 64
l1i_wq_size 64
l1i_pq_size 8
l1i_mshr_size 8
l1i_latency 1

l1d_size 32
l1d_set 64
l1d_way 8
l1d_rq_size 64
l1d_wq_size 64
l1d_pq_size 8
l1d_mshr_size 16
l1d_latency 4

l2c_size 256
l2c_set 512
l2c_way 8
l2c_rq_size 32
l2c_wq_size 32
l2c_pq_size 32
l2c_mshr_size 32
l2c_latency 10

llc_size 2048
llc_set 2048
llc_way 16
llc_rq_size 32
llc_wq_size 32
llc_pq_size 32
llc_mshr_size 64
llc_latency 20

dram_channel_width 8
dram_wq_size 64
dram_rq_size 64
tRP 15
tRCD 15
tCAS 12.5
dram_dbus_turn_around_time 30
dram_write_high_wm 56
dram_write_low_wm 48
min_dram_writes_per_switch 16
dram_mtps 2400
dram_dbus_return_time 13


Heartbeat CPU  0 instructions:    1000003 cycles:     824037 heartbeat IPC: 1.21354 cumulative IPC: 1.21354 (Simulation time: 0 hr 0 min 1 sec) 
Heartbeat CPU  0 instructions:    2000002 cycles:    1615931 heartbeat IPC: 1.26279 cumulative IPC: 1.23768 (Simulation time: 0 hr 0 min 3 sec) 
Heartbeat CPU  0 instructions:    3000003 cycles:    2411273 heartbeat IPC: 1.25732 cumulative IPC: 1.24416 (Simulation time: 0 hr 0 min 5 sec) 
Heartbeat CPU  0 instructions:    4000000 cycles:    3209891 heartbeat IPC: 1.25216 cumulative IPC: 1.24615 (Simulation time: 0 hr 0 min 6 sec) 
Heartbeat CPU  0 instructions:    5000000 cycles:    4010711 heartbeat IPC: 1.24872 cumulative IPC: 1.24666 (Simulation time: 0 hr 0 min 8 sec) 
Heartbeat CPU  0 instructions:    6000002 cycles:    4807083 heartbeat IPC: 1.25570 cumulative IPC: 1.24816 (Simulation time: 0 hr 0 min 10 sec) 
Heartbeat CPU  0 instructions:    7000003 cycles:    5611260 heartbeat IPC: 1.24351 cumulative IPC: 1.24749 (Simulation time: 0 hr 0 min 12 sec) 
Heartbeat CPU  0 instructions:    8000000 cycles:    6399976 heartbeat IPC: 1.26788 cumulative IPC: 1.25000 (Simulation time: 0 hr 0 min 13 sec) 
Heartbeat CPU  0 instructions:    9000003 cycles:    7192895 heartbeat IPC: 1.26117 cumulative IPC: 1.25124 (Simulation time: 0 hr 0 min 15 sec) 
Heartbeat CPU  0 instructions:   10000000 cycles:    7986691 heartbeat IPC: 1.25977 cumulative IPC: 1.25208 (Simulation time: 0 hr 0 min 17 sec) 

Warmup complete CPU  0 instructions:   10000001 cycles:    7986692 (Simulation time: 0 hr 0 min 17 sec) 

Heartbeat CPU  0 instructions:   11000000 cycles:   12078652 heartbeat IPC: 0.24438 cumulative IPC: 0.24438 (Simulation time: 0 hr 0 min 20 sec) 
Heartbeat CPU  0 instructions:   12000000 cycles:   16249742 heartbeat IPC: 0.23975 cumulative IPC: 0.24204 (Simulation time: 0 hr 0 min 22 sec) 
Heartbeat CPU  0 instructions:   13000002 cycles:   20282288 heartbeat IPC: 0.24798 cumulative IPC: 0.24399 (Simulation time: 0 hr 0 min 25 sec) 
Heartbeat CPU  0 instructions:   14000002 cycles:   24405160 heartbeat IPC: 0.24255 cumulative IPC: 0.24363 (Simulation time: 0 hr 0 min 28 sec) 
Heartbeat CPU  0 instructions:   15000000 cycles:   28428610 heartbeat IPC: 0.24854 cumulative IPC: 0.24460 (Simulation time: 0 hr 0 min 31 sec) 
Heartbeat CPU  0 instructions:   16000000 cycles:   32406366 heartbeat IPC: 0.25140 cumulative IPC: 0.24570 (Simulation time: 0 hr 0 min 34 sec) 
Heartbeat CPU  0 instructions:   17000001 cycles:   36603936 heartbeat IPC: 0.23823 cumulative IPC: 0.24461 (Simulation time: 0 hr 0 min 36 sec) 
Heartbeat CPU  0 instructions:   18000001 cycles:   40730964 heartbeat IPC: 0.24231 cumulative IPC: 0.24432 (Simulation time: 0 hr 0 min 39 sec) 
Heartbeat CPU  0 instructions:   19000003 cycles:   45006593 heartbeat IPC: 0.23388 cumulative IPC: 0.24311 (Simulation time: 0 hr 0 min 42 sec) 
Heartbeat CPU  0 instructions:   20000000 cycles:   49322782 heartbeat IPC: 0.23169 cumulative IPC: 0.24192 (Simulation time: 0 hr 0 min 45 sec) 
Heartbeat CPU  0 instructions:   21000000 cycles:   53394611 heartbeat IPC: 0.24559 cumulative IPC: 0.24225 (Simulation time: 0 hr 0 min 48 sec) 
Heartbeat CPU  0 instructions:   22000000 cycles:   57422026 heartbeat IPC: 0.24830 cumulative IPC: 0.24274 (Simulation time: 0 hr 0 min 50 sec) 
Heartbeat CPU  0 instructions:   23000001 cycles:   61751222 heartbeat IPC: 0.23099 cumulative IPC: 0.24180 (Simulation time: 0 hr 0 min 53 sec) 
Heartbeat CPU  0 instructions:   24000000 cycles:   65845040 heartbeat IPC: 0.24427 cumulative IPC: 0.24197 (Simulation time: 0 hr 0 min 56 sec) 
Heartbeat CPU  0 instructions:   25000000 cycles:   69877263 heartbeat IPC: 0.24800 cumulative IPC: 0.24236 (Simulation time: 0 hr 0 min 59 sec) 
Heartbeat CPU  0 instructions:   26000000 cycles:   74182657 heartbeat IPC: 0.23227 cumulative IPC: 0.24171 (Simulation time: 0 hr 1 min 2 sec) 
Heartbeat CPU  0 instructions:   27000002 cycles:   78249188 heartbeat IPC: 0.24591 cumulative IPC: 0.24195 (Simulation time: 0 hr 1 min 5 sec) 
Heartbeat CPU  0 instructions:   28000000 cycles:   82495985 heartbeat IPC: 0.23547 cumulative IPC: 0.24158 (Simulation time: 0 hr 1 min 7 sec) 
Heartbeat CPU  0 instructions:   29000002 cycles:   86707172 heartbeat IPC: 0.23746 cumulative IPC: 0.24136 (Simulation time: 0 hr 1 min 10 sec) 
Heartbeat CPU  0 instructions:   30000001 cycles:   91027994 heartbeat IPC: 0.23144 cumulative IPC: 0.24084 (Simulation time: 0 hr 1 min 13 sec) 
Heartbeat CPU  0 instructions:   31000003 cycles:   95178511 heartbeat IPC: 0.24093 cumulative IPC: 0.24085 (Simulation time: 0 hr 1 min 16 sec) 
Heartbeat CPU  0 instructions:   32000000 cycles:   99449497 heartbeat IPC: 0.23414 cumulative IPC: 0.24053 (Simulation time: 0 hr 1 min 19 sec) 
Heartbeat CPU  0 instructions:   33000002 cycles:  103598326 heartbeat IPC: 0.24103 cumulative IPC: 0.24056 (Simulation time: 0 hr 1 min 22 sec) 
Heartbeat CPU  0 instructions:   34000002 cycles:  107739078 heartbeat IPC: 0.24150 cumulative IPC: 0.24060 (Simulation time: 0 hr 1 min 24 sec) 
Heartbeat CPU  0 instructions:   35000000 cycles:  112001798 heartbeat IPC: 0.23459 cumulative IPC: 0.24035 (Simulation time: 0 hr 1 min 27 sec) 
Heartbeat CPU  0 instructions:   36000000 cycles:  116155379 heartbeat IPC: 0.24076 cumulative IPC: 0.24037 (Simulation time: 0 hr 1 min 30 sec) 
Heartbeat CPU  0 instructions:   37000000 cycles:  120441808 heartbeat IPC: 0.23329 cumulative IPC: 0.24010 (Simulation time: 0 hr 1 min 33 sec) 
Heartbeat CPU  0 instructions:   38000000 cycles:  124770035 heartbeat IPC: 0.23104 cumulative IPC: 0.23976 (Simulation time: 0 hr 1 min 36 sec) 
Heartbeat CPU  0 instructions:   39000003 cycles:  129092362 heartbeat IPC: 0.23136 cumulative IPC: 0.23946 (Simulation time: 0 hr 1 min 39 sec) 
Heartbeat CPU  0 instructions:   40000000 cycles:  133000530 heartbeat IPC: 0.25587 cumulative IPC: 0.23997 (Simulation time: 0 hr 1 min 42 sec) 
Heartbeat CPU  0 instructions:   41000000 cycles:  136956703 heartbeat IPC: 0.25277 cumulative IPC: 0.24037 (Simulation time: 0 hr 1 min 44 sec) 
Heartbeat CPU  0 instructions:   42000001 cycles:  141169227 heartbeat IPC: 0.23739 cumulative IPC: 0.24027 (Simulation time: 0 hr 1 min 47 sec) 
Heartbeat CPU  0 instructions:   43000000 cycles:  145395779 heartbeat IPC: 0.23660 cumulative IPC: 0.24016 (Simulation time: 0 hr 1 min 50 sec) 
Heartbeat CPU  0 instructions:   44000000 cycles:  149605097 heartbeat IPC: 0.23757 cumulative IPC: 0.24008 (Simulation time: 0 hr 1 min 53 sec) 
Heartbeat CPU  0 instructions:   45000000 cycles:  153970202 heartbeat IPC: 0.22909 cumulative IPC: 0.23975 (Simulation time: 0 hr 1 min 56 sec) 
Heartbeat CPU  0 instructions:   46000000 cycles:  158142786 heartbeat IPC: 0.23966 cumulative IPC: 0.23975 (Simulation time: 0 hr 1 min 59 sec) 
Heartbeat CPU  0 instructions:   47000000 cycles:  162448116 heartbeat IPC: 0.23227 cumulative IPC: 0.23954 (Simulation time: 0 hr 2 min 1 sec) 
Heartbeat CPU  0 instructions:   48000000 cycles:  166786440 heartbeat IPC: 0.23050 cumulative IPC: 0.23930 (Simulation time: 0 hr 2 min 4 sec) 
Heartbeat CPU  0 instructions:   49000002 cycles:  170847658 heartbeat IPC: 0.24623 cumulative IPC: 0.23947 (Simulation time: 0 hr 2 min 7 sec) 
Heartbeat CPU  0 instructions:   50000000 cycles:  175157299 heartbeat IPC: 0.23204 cumulative IPC: 0.23928 (Simulation time: 0 hr 2 min 10 sec) 
Heartbeat CPU  0 instructions:   51000002 cycles:  179243923 heartbeat IPC: 0.24470 cumulative IPC: 0.23941 (Simulation time: 0 hr 2 min 13 sec) 
Heartbeat CPU  0 instructions:   52000000 cycles:  183709435 heartbeat IPC: 0.22394 cumulative IPC: 0.23901 (Simulation time: 0 hr 2 min 16 sec) 
Heartbeat CPU  0 instructions:   53000001 cycles:  188106428 heartbeat IPC: 0.22743 cumulative IPC: 0.23873 (Simulation time: 0 hr 2 min 19 sec) 
Heartbeat CPU  0 instructions:   54000000 cycles:  192130039 heartbeat IPC: 0.24853 cumulative IPC: 0.23894 (Simulation time: 0 hr 2 min 22 sec) 
Heartbeat CPU  0 instructions:   55000000 cycles:  196123189 heartbeat IPC: 0.25043 cumulative IPC: 0.23919 (Simulation time: 0 hr 2 min 24 sec) 
Heartbeat CPU  0 instructions:   56000000 cycles:  200298537 heartbeat IPC: 0.23950 cumulative IPC: 0.23919 (Simulation time: 0 hr 2 min 27 sec) 
Heartbeat CPU  0 instructions:   57000003 cycles:  204528510 heartbeat IPC: 0.23641 cumulative IPC: 0.23913 (Simulation time: 0 hr 2 min 30 sec) 
Heartbeat CPU  0 instructions:   58000000 cycles:  208681916 heartbeat IPC: 0.24077 cumulative IPC: 0.23917 (Simulation time: 0 hr 2 min 33 sec) 
Heartbeat CPU  0 instructions:   59000003 cycles:  212964157 heartbeat IPC: 0.23352 cumulative IPC: 0.23905 (Simulation time: 0 hr 2 min 36 sec) 
Heartbeat CPU  0 instructions:   60000000 cycles:  217051511 heartbeat IPC: 0.24466 cumulative IPC: 0.23916 (Simulation time: 0 hr 2 min 39 sec) 
Finished CPU 0 instructions: 50000002 cycles: 209064827 cumulative IPC: 0.23916 (Simulation time: 0 hr 2 min 39 sec) 

ChampSim completed all CPUs

[ROI Statistics]
Core_0_instructions 50000002
Core_0_cycles 209064827
Core_0_IPC 0.23916

Core_0_branch_prediction_accuracy 96.80251
Core_0_branch_MPKI 4.75522
Core_0_average_ROB_occupancy_at_mispredict 94.56354

Core_0_L1D_total_access 21829627
Core_0_L1D_total_hit 20830332
Core_0_L1D_total_miss 999295
Core_0_L1D_loads 12781312
Core_0_L1D_load_hit 11907564
Core_0_L1D_load_miss 873748
Core_0_L1D_RFOs 9048315
Core_0_L1D_RFO_hit 8922768
Core_0_L1D_RFO_miss 125547
Core_0_L1D_prefetches 0
Core_0_L1D_prefetch_hit 0
Core_0_L1D_prefetch_miss 0
Core_0_L1D_writebacks 0
Core_0_L1D_writeback_hit 0
Core_0_L1D_writeback_miss 0
Core_0_L1D_prefetch_requested 0
Core_0_L1D_prefetch_dropped 0
Core_0_L1D_prefetch_issued 0
Core_0_L1D_prefetch_filled 0
Core_0_L1D_prefetch_useful 0
Core_0_L1D_prefetch_useless 0
Core_0_L1D_prefetch_late 0
Core_0_L1D_average_miss_latency 124.67093

Core_0_L1D_rq_access 15963159
Core_0_L1D_rq_forward 0
Core_0_L1D_rq_merged 3115920
Core_0_L1D_rq_to_cache 12847195
Core_0_L1D_rq_full 0

Core_0_L1D_wq_access 9281774
Core_0_L1D_wq_forward 44
Core_0_L1D_wq_merged 30489
Core_0_L1D_wq_to_cache 9251285
Core_0_L1D_wq_full 0

Core_0_L1D_pq_access 0
Core_0_L1D_pq_forward 0
Core_0_L1D_pq_merged 0
Core_0_L1D_pq_to_cache 0
Core_0_L1D_pq_full 0

Core_0_L1D_acc_epochs 191336
Core_0_L1D_acc_level_0 191336
Core_0_L1D_acc_level_1 0
Core_0_L1D_acc_level_2 0
Core_0_L1D_acc_level_3 0
Core_0_L1D_acc_level_4 0
Core_0_L1D_acc_level_5 0
Core_0_L1D_acc_level_6 0
Core_0_L1D_acc_level_7 0
Core_0_L1D_acc_level_8 0
Core_0_L1D_acc_level_9 0

Core_0_L1I_total_access 16906992
Core_0_L1I_total_hit 16888960
Core_0_L1I_total_miss 18032
Core_0_L1I_loads 16906992
Core_0_L1I_load_hit 16888960
Core_0_L1I_load_miss 18032
Core_0_L1I_RFOs 0
Core_0_L1I_RFO_hit 0
Core_0_L1I_RFO_miss 0
Core_0_L1I_prefetches 0
Core_0_L1I_prefetch_hit 0
Core_0_L1I_prefetch_miss 0
Core_0_L1I_writebacks 0
Core_0_L1I_writeback_hit 0
Core_0_L1I_writeback_miss 0
Core_0_L1I_prefetch_requested 0
Core_0_L1I_prefetch_dropped 0
Core_0_L1I_prefetch_issued 0
Core_0_L1I_prefetch_filled 0
Core_0_L1I_prefetch_useful 0
Core_0_L1I_prefetch_useless 0
Core_0_L1I_prefetch_late 0
Core_0_L1I_average_miss_latency 28.92580

Core_0_L1I_rq_access 50000138
Core_0_L1I_rq_forward 0
Core_0_L1I_rq_merged 33080032
Core_0_L1I_rq_to_cache 16920106
Core_0_L1I_rq_full 0

Core_0_L1I_wq_access 0
Core_0_L1I_wq_forward 0
Core_0_L1I_wq_merged 0
Core_0_L1I_wq_to_cache 0
Core_0_L1I_wq_full 0

Core_0_L1I_pq_access 0
Core_0_L1I_pq_forward 0
Core_0_L1I_pq_merged 0
Core_0_L1I_pq_to_cache 0
Core_0_L1I_pq_full 0

Core_0_L1I_acc_epochs 191336
Core_0_L1I_acc_level_0 191336
Core_0_L1I_acc_level_1 0
Core_0_L1I_acc_level_2 0
Core_0_L1I_acc_level_3 0
Core_0_L1I_acc_level_4 0
Core_0_L1I_acc_level_5 0
Core_0_L1I_acc_level_6 0
Core_0_L1I_acc_level_7 0
Core_0_L1I_acc_level_8 0
Core_0_L1I_acc_level_9 0

Core_0_L2C_total_access 1501758
Core_0_L2C_total_hit 773554
Core_0_L2C_total_miss 728204
Core_0_L2C_loads 891746
Core_0_L2C_load_hit 266685
Core_0_L2C_load_miss 625061
Core_0_L2C_RFOs 125541
Core_0_L2C_RFO_hit 23973
Core_0_L2C_RFO_miss 101568
Core_0_L2C_prefetches 0
Core_0_L2C_prefetch_hit 0
Core_0_L2C_prefetch_miss 0
Core_0_L2C_writebacks 484471
Core_0_L2C_writeback_hit 482896
Core_0_L2C_writeback_miss 1575
Core_0_L2C_prefetch_requested 0
Core_0_L2C_prefetch_dropped 0
Core_0_L2C_prefetch_issued 0
Core_0_L2C_prefetch_filled 0
Core_0_L2C_prefetch_useful 0
Core_0_L2C_prefetch_useless 0
Core_0_L2C_prefetch_late 0
Core_0_L2C_average_miss_latency 148.02837

Core_0_L2C_rq_access 1017327
Core_0_L2C_rq_forward 0
Core_0_L2C_rq_merged 0
Core_0_L2C_rq_to_cache 1017287
Core_0_L2C_rq_full 0

Core_0_L2C_wq_access 484471
Core_0_L2C_wq_forward 40
Core_0_L2C_wq_merged 0
Core_0_L2C_wq_to_cache 484471
Core_0_L2C_wq_full 0

Core_0_L2C_pq_access 0
Core_0_L2C_pq_forward 0
Core_0_L2C_pq_merged 0
Core_0_L2C_pq_to_cache 0
Core_0_L2C_pq_full 0

Core_0_L2C_acc_epochs 191336
Core_0_L2C_acc_level_0 191336
Core_0_L2C_acc_level_1 0
Core_0_L2C_acc_level_2 0
Core_0_L2C_acc_level_3 0
Core_0_L2C_acc_level_4 0
Core_0_L2C_acc_level_5 0
Core_0_L2C_acc_level_6 0
Core_0_L2C_acc_level_7 0
Core_0_L2C_acc_level_8 0
Core_0_L2C_acc_level_9 0

Core_0_LLC_total_access 1092829
Core_0_LLC_total_hit 580923
Core_0_LLC_total_miss 511906
Core_0_LLC_loads 625060
Core_0_LLC_load_hit 212408
Core_0_LLC_load_miss 412652
Core_0_LLC_RFOs 101568
Core_0_LLC_RFO_hit 53849
Core_0_LLC_RFO_miss 47719
Core_0_LLC_prefetches 0
Core_0_LLC_prefetch_hit 0
Core_0_LLC_prefetch_miss 0
Core_0_LLC_writebacks 366201
Core_0_LLC_writeback_hit 314666
Core_0_LLC_writeback_miss 51535
Core_0_LLC_prefetch_requested 0
Core_0_LLC_prefetch_dropped 0
Core_0_LLC_prefetch_issued 0
Core_0_LLC_prefetch_filled 0
Core_0_LLC_prefetch_useful 0
Core_0_LLC_prefetch_useless 0
Core_0_LLC_prefetch_late 0
Core_0_LLC_average_miss_latency 162.73225

Core_0_LLC_rq_access 726629
Core_0_LLC_rq_forward 0
Core_0_LLC_rq_merged 0
Core_0_LLC_rq_to_cache 726628
Core_0_LLC_rq_full 0

Core_0_LLC_wq_access 366201
Core_0_LLC_wq_forward 1
Core_0_LLC_wq_merged 0
Core_0_LLC_wq_to_cache 366201
Core_0_LLC_wq_full 0

Core_0_LLC_pq_access 0
Core_0_LLC_pq_forward 0
Core_0_LLC_pq_merged 0
Core_0_LLC_pq_to_cache 0
Core_0_LLC_pq_full 0

Core_0_LLC_acc_epochs 211965
Core_0_LLC_acc_level_0 211965
Core_0_LLC_acc_level_1 0
Core_0_LLC_acc_level_2 0
Core_0_LLC_acc_level_3 0
Core_0_LLC_acc_level_4 0
Core_0_LLC_acc_level_5 0
Core_0_LLC_acc_level_6 0
Core_0_LLC_acc_level_7 0
Core_0_LLC_acc_level_8 0
Core_0_LLC_acc_level_9 0

Core_0_major_page_fault 0
Core_0_minor_page_fault 45760

Channel_0_RQ_row_buffer_hit 51554
Channel_0_RQ_row_buffer_miss 408816
Channel_0_WQ_row_buffer_hit 45238
Channel_0_WQ_row_buffer_miss 169464
Channel_0_WQ_full 0
Channel_0_dbus_congested 133856

avg_congested_cycle 10

DRAM_bw_pochs 847858
DRAM_bw_level_0 844340
DRAM_bw_level_1 3517
DRAM_bw_level_2 1
DRAM_bw_level_3 0
