*************************************************
   ChampSim Multicore Out-of-Order Simulator
   Last compiled: Apr  3 2025 20:54:34
*************************************************
parsing config file: /home/zir/Pythia/config/nopref.ini

trace_0 /home/zir/ChampSim/ML-DPC/ChampSimTraces/spec17/649.fotonik3d-s1.trace.xz
adding L2C_PREFETCHER: NONE
Initialize SHIP state
warmup_instructions 10000000
simulation_instructions 50000000
champsim_seed 164
measure_ipc 0
measure_ipc_epoch 1000
measure_dram_bw 1
measure_dram_bw_epoch 256
measure_cache_acc 1
measure_cache_acc_epoch 1024
l1d_perfect 0
l2c_perfect 0
llc_perfect 0
l1d_semi_perfect 0
l2c_semi_perfect 0
llc_semi_perfect 0
semi_perfect_cache_page_buffer_size 64

num_cpus 1
cpu_freq 4000
dram_io_freq 2400
page_size 4096
block_size 64
max_read_per_cycle 8
max_fill_per_cycle 1
dram_channels 1
log2_dram_channels 0
dram_ranks 1
dram_banks 8
dram_rows 65536
dram_columns 128
dram_row_size 8
dram_size 4096
dram_pages 1048576

fetch_width 6
decode_width 6
exec_width 4
lq_width 2
sq_width 2
retire_width 4
scheduler_size 128
branch_mispredict_penalty 20
rob_size 256
lq_size 72
sq_size 56
num_instr_destinations_sparc 4
num_instr_destinations 2
num_instr_sources 4

itlb_set 16
itlb_way 8
itlb_rq_size 16
itlb_wq_size 16
itlb_pq_size 0
itlb_mshr_size 8
itlb_latency 1

dtlb_set 16
dtlb_way 4
dtlb_rq_size 16
dtlb_wq_size 16
dtlb_pq_size 0
dtlb_mshr_size 8
dtlb_latency 1

stlb_set 128
stlb_way 12
stlb_rq_size 32
stlb_wq_size 32
stlb_pq_size 0
stlb_mshr_size 16
stlb_latency 8

l1i_size 32
l1i_set 64
l1i_way 8
l1i_rq_size 64
l1i_wq_size 64
l1i_pq_size 8
l1i_mshr_size 8
l1i_latency 1

l1d_size 32
l1d_set 64
l1d_way 8
l1d_rq_size 64
l1d_wq_size 64
l1d_pq_size 8
l1d_mshr_size 16
l1d_latency 4

l2c_size 256
l2c_set 512
l2c_way 8
l2c_rq_size 32
l2c_wq_size 32
l2c_pq_size 32
l2c_mshr_size 32
l2c_latency 10

llc_size 2048
llc_set 2048
llc_way 16
llc_rq_size 32
llc_wq_size 32
llc_pq_size 32
llc_mshr_size 64
llc_latency 20

dram_channel_width 8
dram_wq_size 64
dram_rq_size 64
tRP 15
tRCD 15
tCAS 12.5
dram_dbus_turn_around_time 30
dram_write_high_wm 56
dram_write_low_wm 48
min_dram_writes_per_switch 16
dram_mtps 2400
dram_dbus_return_time 13


Heartbeat CPU  0 instructions:    1000001 cycles:     429795 heartbeat IPC: 2.32669 cumulative IPC: 2.32669 (Simulation time: 0 hr 0 min 2 sec) 
Heartbeat CPU  0 instructions:    2000002 cycles:     859864 heartbeat IPC: 2.32521 cumulative IPC: 2.32595 (Simulation time: 0 hr 0 min 3 sec) 
Heartbeat CPU  0 instructions:    3000002 cycles:    1290045 heartbeat IPC: 2.32460 cumulative IPC: 2.32550 (Simulation time: 0 hr 0 min 5 sec) 
Heartbeat CPU  0 instructions:    4000000 cycles:    1720061 heartbeat IPC: 2.32549 cumulative IPC: 2.32550 (Simulation time: 0 hr 0 min 7 sec) 
Heartbeat CPU  0 instructions:    5000000 cycles:    2150056 heartbeat IPC: 2.32561 cumulative IPC: 2.32552 (Simulation time: 0 hr 0 min 8 sec) 
Heartbeat CPU  0 instructions:    6000001 cycles:    2580086 heartbeat IPC: 2.32542 cumulative IPC: 2.32550 (Simulation time: 0 hr 0 min 10 sec) 
Heartbeat CPU  0 instructions:    7000001 cycles:    3010149 heartbeat IPC: 2.32524 cumulative IPC: 2.32547 (Simulation time: 0 hr 0 min 11 sec) 
Heartbeat CPU  0 instructions:    8000000 cycles:    3440256 heartbeat IPC: 2.32500 cumulative IPC: 2.32541 (Simulation time: 0 hr 0 min 13 sec) 
Heartbeat CPU  0 instructions:    9000003 cycles:    3870440 heartbeat IPC: 2.32459 cumulative IPC: 2.32532 (Simulation time: 0 hr 0 min 14 sec) 
Heartbeat CPU  0 instructions:   10000001 cycles:    4300538 heartbeat IPC: 2.32505 cumulative IPC: 2.32529 (Simulation time: 0 hr 0 min 16 sec) 

Warmup complete CPU  0 instructions:   10000001 cycles:    4300538 (Simulation time: 0 hr 0 min 16 sec) 

Heartbeat CPU  0 instructions:   11000001 cycles:    6155026 heartbeat IPC: 0.53923 cumulative IPC: 0.53923 (Simulation time: 0 hr 0 min 18 sec) 
Heartbeat CPU  0 instructions:   12000000 cycles:    8008487 heartbeat IPC: 0.53953 cumulative IPC: 0.53938 (Simulation time: 0 hr 0 min 20 sec) 
Heartbeat CPU  0 instructions:   13000003 cycles:    9854755 heartbeat IPC: 0.54163 cumulative IPC: 0.54013 (Simulation time: 0 hr 0 min 22 sec) 
Heartbeat CPU  0 instructions:   14000000 cycles:   11705417 heartbeat IPC: 0.54035 cumulative IPC: 0.54018 (Simulation time: 0 hr 0 min 24 sec) 
Heartbeat CPU  0 instructions:   15000000 cycles:   13448360 heartbeat IPC: 0.57374 cumulative IPC: 0.54658 (Simulation time: 0 hr 0 min 26 sec) 
Heartbeat CPU  0 instructions:   16000000 cycles:   15270561 heartbeat IPC: 0.54879 cumulative IPC: 0.54694 (Simulation time: 0 hr 0 min 28 sec) 
Heartbeat CPU  0 instructions:   17000003 cycles:   17080882 heartbeat IPC: 0.55239 cumulative IPC: 0.54772 (Simulation time: 0 hr 0 min 31 sec) 
Heartbeat CPU  0 instructions:   18000003 cycles:   18864488 heartbeat IPC: 0.56066 cumulative IPC: 0.54930 (Simulation time: 0 hr 0 min 33 sec) 
Heartbeat CPU  0 instructions:   19000000 cycles:   20689801 heartbeat IPC: 0.54785 cumulative IPC: 0.54914 (Simulation time: 0 hr 0 min 35 sec) 
Heartbeat CPU  0 instructions:   20000000 cycles:   22552783 heartbeat IPC: 0.53677 cumulative IPC: 0.54788 (Simulation time: 0 hr 0 min 37 sec) 
Heartbeat CPU  0 instructions:   21000001 cycles:   24407852 heartbeat IPC: 0.53906 cumulative IPC: 0.54706 (Simulation time: 0 hr 0 min 39 sec) 
Heartbeat CPU  0 instructions:   22000002 cycles:   26243854 heartbeat IPC: 0.54466 cumulative IPC: 0.54686 (Simulation time: 0 hr 0 min 41 sec) 
Heartbeat CPU  0 instructions:   23000002 cycles:   28057176 heartbeat IPC: 0.55147 cumulative IPC: 0.54722 (Simulation time: 0 hr 0 min 43 sec) 
Heartbeat CPU  0 instructions:   24000000 cycles:   29882578 heartbeat IPC: 0.54782 cumulative IPC: 0.54726 (Simulation time: 0 hr 0 min 45 sec) 
Heartbeat CPU  0 instructions:   25000000 cycles:   31699965 heartbeat IPC: 0.55024 cumulative IPC: 0.54746 (Simulation time: 0 hr 0 min 47 sec) 
Heartbeat CPU  0 instructions:   26000000 cycles:   33551622 heartbeat IPC: 0.54006 cumulative IPC: 0.54699 (Simulation time: 0 hr 0 min 49 sec) 
Heartbeat CPU  0 instructions:   27000001 cycles:   35313346 heartbeat IPC: 0.56763 cumulative IPC: 0.54816 (Simulation time: 0 hr 0 min 51 sec) 
Heartbeat CPU  0 instructions:   28000000 cycles:   37117230 heartbeat IPC: 0.55436 cumulative IPC: 0.54850 (Simulation time: 0 hr 0 min 54 sec) 
Heartbeat CPU  0 instructions:   29000000 cycles:   38965727 heartbeat IPC: 0.54098 cumulative IPC: 0.54810 (Simulation time: 0 hr 0 min 56 sec) 
Heartbeat CPU  0 instructions:   30000003 cycles:   40827879 heartbeat IPC: 0.53701 cumulative IPC: 0.54754 (Simulation time: 0 hr 0 min 58 sec) 
Heartbeat CPU  0 instructions:   31000002 cycles:   42664533 heartbeat IPC: 0.54447 cumulative IPC: 0.54739 (Simulation time: 0 hr 1 min 0 sec) 
Heartbeat CPU  0 instructions:   32000000 cycles:   44493210 heartbeat IPC: 0.54684 cumulative IPC: 0.54736 (Simulation time: 0 hr 1 min 2 sec) 
Heartbeat CPU  0 instructions:   33000002 cycles:   46348699 heartbeat IPC: 0.53894 cumulative IPC: 0.54699 (Simulation time: 0 hr 1 min 4 sec) 
Heartbeat CPU  0 instructions:   34000002 cycles:   48208060 heartbeat IPC: 0.53782 cumulative IPC: 0.54660 (Simulation time: 0 hr 1 min 6 sec) 
Heartbeat CPU  0 instructions:   35000001 cycles:   50055155 heartbeat IPC: 0.54139 cumulative IPC: 0.54639 (Simulation time: 0 hr 1 min 8 sec) 
Heartbeat CPU  0 instructions:   36000000 cycles:   51887749 heartbeat IPC: 0.54567 cumulative IPC: 0.54637 (Simulation time: 0 hr 1 min 10 sec) 
Heartbeat CPU  0 instructions:   37000000 cycles:   53725707 heartbeat IPC: 0.54408 cumulative IPC: 0.54628 (Simulation time: 0 hr 1 min 12 sec) 
Heartbeat CPU  0 instructions:   38000001 cycles:   55536556 heartbeat IPC: 0.55223 cumulative IPC: 0.54649 (Simulation time: 0 hr 1 min 14 sec) 
Heartbeat CPU  0 instructions:   39000000 cycles:   57401721 heartbeat IPC: 0.53615 cumulative IPC: 0.54613 (Simulation time: 0 hr 1 min 16 sec) 
Heartbeat CPU  0 instructions:   40000000 cycles:   59201818 heartbeat IPC: 0.55553 cumulative IPC: 0.54644 (Simulation time: 0 hr 1 min 18 sec) 
Heartbeat CPU  0 instructions:   41000001 cycles:   61058835 heartbeat IPC: 0.53850 cumulative IPC: 0.54618 (Simulation time: 0 hr 1 min 21 sec) 
Heartbeat CPU  0 instructions:   42000000 cycles:   62910274 heartbeat IPC: 0.54012 cumulative IPC: 0.54598 (Simulation time: 0 hr 1 min 23 sec) 
Heartbeat CPU  0 instructions:   43000000 cycles:   64766009 heartbeat IPC: 0.53887 cumulative IPC: 0.54577 (Simulation time: 0 hr 1 min 25 sec) 
Heartbeat CPU  0 instructions:   44000000 cycles:   66518487 heartbeat IPC: 0.57062 cumulative IPC: 0.54647 (Simulation time: 0 hr 1 min 27 sec) 
Heartbeat CPU  0 instructions:   45000002 cycles:   68369428 heartbeat IPC: 0.54027 cumulative IPC: 0.54629 (Simulation time: 0 hr 1 min 29 sec) 
Heartbeat CPU  0 instructions:   46000002 cycles:   70238801 heartbeat IPC: 0.53494 cumulative IPC: 0.54597 (Simulation time: 0 hr 1 min 31 sec) 
Heartbeat CPU  0 instructions:   47000001 cycles:   72099121 heartbeat IPC: 0.53754 cumulative IPC: 0.54573 (Simulation time: 0 hr 1 min 33 sec) 
Heartbeat CPU  0 instructions:   48000000 cycles:   73886606 heartbeat IPC: 0.55944 cumulative IPC: 0.54609 (Simulation time: 0 hr 1 min 35 sec) 
Heartbeat CPU  0 instructions:   49000001 cycles:   75747599 heartbeat IPC: 0.53735 cumulative IPC: 0.54586 (Simulation time: 0 hr 1 min 37 sec) 
Heartbeat CPU  0 instructions:   50000001 cycles:   77548382 heartbeat IPC: 0.55531 cumulative IPC: 0.54609 (Simulation time: 0 hr 1 min 39 sec) 
Heartbeat CPU  0 instructions:   51000001 cycles:   79401470 heartbeat IPC: 0.53964 cumulative IPC: 0.54593 (Simulation time: 0 hr 1 min 41 sec) 
Heartbeat CPU  0 instructions:   52000000 cycles:   81246429 heartbeat IPC: 0.54202 cumulative IPC: 0.54584 (Simulation time: 0 hr 1 min 43 sec) 
Heartbeat CPU  0 instructions:   53000001 cycles:   83099244 heartbeat IPC: 0.53972 cumulative IPC: 0.54569 (Simulation time: 0 hr 1 min 46 sec) 
Heartbeat CPU  0 instructions:   54000001 cycles:   84898471 heartbeat IPC: 0.55579 cumulative IPC: 0.54592 (Simulation time: 0 hr 1 min 48 sec) 
Heartbeat CPU  0 instructions:   55000000 cycles:   86760343 heartbeat IPC: 0.53709 cumulative IPC: 0.54572 (Simulation time: 0 hr 1 min 50 sec) 
Heartbeat CPU  0 instructions:   56000000 cycles:   88578192 heartbeat IPC: 0.55010 cumulative IPC: 0.54581 (Simulation time: 0 hr 1 min 52 sec) 
Heartbeat CPU  0 instructions:   57000000 cycles:   90445147 heartbeat IPC: 0.53563 cumulative IPC: 0.54559 (Simulation time: 0 hr 1 min 54 sec) 
Heartbeat CPU  0 instructions:   58000003 cycles:   92277598 heartbeat IPC: 0.54572 cumulative IPC: 0.54560 (Simulation time: 0 hr 1 min 56 sec) 
Heartbeat CPU  0 instructions:   59000003 cycles:   94138165 heartbeat IPC: 0.53747 cumulative IPC: 0.54543 (Simulation time: 0 hr 1 min 58 sec) 
Heartbeat CPU  0 instructions:   60000000 cycles:   95943536 heartbeat IPC: 0.55390 cumulative IPC: 0.54560 (Simulation time: 0 hr 2 min 0 sec) 
Finished CPU 0 instructions: 50000001 cycles: 91643006 cumulative IPC: 0.54560 (Simulation time: 0 hr 2 min 0 sec) 

ChampSim completed all CPUs

[ROI Statistics]
Core_0_instructions 50000001
Core_0_cycles 91643006
Core_0_IPC 0.54560

Core_0_branch_prediction_accuracy 99.97505
Core_0_branch_MPKI 0.00438
Core_0_average_ROB_occupancy_at_mispredict 254.53881

Core_0_L1D_total_access 10246281
Core_0_L1D_total_hit 9584605
Core_0_L1D_total_miss 661676
Core_0_L1D_loads 6737705
Core_0_L1D_load_hit 6076792
Core_0_L1D_load_miss 660913
Core_0_L1D_RFOs 3508576
Core_0_L1D_RFO_hit 3507813
Core_0_L1D_RFO_miss 763
Core_0_L1D_prefetches 0
Core_0_L1D_prefetch_hit 0
Core_0_L1D_prefetch_miss 0
Core_0_L1D_writebacks 0
Core_0_L1D_writeback_hit 0
Core_0_L1D_writeback_miss 0
Core_0_L1D_prefetch_requested 0
Core_0_L1D_prefetch_dropped 0
Core_0_L1D_prefetch_issued 0
Core_0_L1D_prefetch_filled 0
Core_0_L1D_prefetch_useful 0
Core_0_L1D_prefetch_useless 0
Core_0_L1D_prefetch_late 0
Core_0_L1D_average_miss_latency 164.20628

Core_0_L1D_rq_access 17541479
Core_0_L1D_rq_forward 0
Core_0_L1D_rq_merged 10169535
Core_0_L1D_rq_to_cache 7371944
Core_0_L1D_rq_full 0

Core_0_L1D_wq_access 3510266
Core_0_L1D_wq_forward 0
Core_0_L1D_wq_merged 0
Core_0_L1D_wq_to_cache 3510266
Core_0_L1D_wq_full 0

Core_0_L1D_pq_access 0
Core_0_L1D_pq_forward 0
Core_0_L1D_pq_merged 0
Core_0_L1D_pq_to_cache 0
Core_0_L1D_pq_full 0

Core_0_L1D_acc_epochs 93032
Core_0_L1D_acc_level_0 93032
Core_0_L1D_acc_level_1 0
Core_0_L1D_acc_level_2 0
Core_0_L1D_acc_level_3 0
Core_0_L1D_acc_level_4 0
Core_0_L1D_acc_level_5 0
Core_0_L1D_acc_level_6 0
Core_0_L1D_acc_level_7 0
Core_0_L1D_acc_level_8 0
Core_0_L1D_acc_level_9 0

Core_0_L1I_total_access 10020553
Core_0_L1I_total_hit 10020553
Core_0_L1I_total_miss 0
Core_0_L1I_loads 10020553
Core_0_L1I_load_hit 10020553
Core_0_L1I_load_miss 0
Core_0_L1I_RFOs 0
Core_0_L1I_RFO_hit 0
Core_0_L1I_RFO_miss 0
Core_0_L1I_prefetches 0
Core_0_L1I_prefetch_hit 0
Core_0_L1I_prefetch_miss 0
Core_0_L1I_writebacks 0
Core_0_L1I_writeback_hit 0
Core_0_L1I_writeback_miss 0
Core_0_L1I_prefetch_requested 0
Core_0_L1I_prefetch_dropped 0
Core_0_L1I_prefetch_issued 0
Core_0_L1I_prefetch_filled 0
Core_0_L1I_prefetch_useful 0
Core_0_L1I_prefetch_useless 0
Core_0_L1I_prefetch_late 0
Core_0_L1I_average_miss_latency -nan

Core_0_L1I_rq_access 50000007
Core_0_L1I_rq_forward 0
Core_0_L1I_rq_merged 39979454
Core_0_L1I_rq_to_cache 10020553
Core_0_L1I_rq_full 0

Core_0_L1I_wq_access 0
Core_0_L1I_wq_forward 0
Core_0_L1I_wq_merged 0
Core_0_L1I_wq_to_cache 0
Core_0_L1I_wq_full 0

Core_0_L1I_pq_access 0
Core_0_L1I_pq_forward 0
Core_0_L1I_pq_merged 0
Core_0_L1I_pq_to_cache 0
Core_0_L1I_pq_full 0

Core_0_L1I_acc_epochs 93032
Core_0_L1I_acc_level_0 93032
Core_0_L1I_acc_level_1 0
Core_0_L1I_acc_level_2 0
Core_0_L1I_acc_level_3 0
Core_0_L1I_acc_level_4 0
Core_0_L1I_acc_level_5 0
Core_0_L1I_acc_level_6 0
Core_0_L1I_acc_level_7 0
Core_0_L1I_acc_level_8 0
Core_0_L1I_acc_level_9 0

Core_0_L2C_total_access 1100941
Core_0_L2C_total_hit 439907
Core_0_L2C_total_miss 661034
Core_0_L2C_loads 660913
Core_0_L2C_load_hit 533
Core_0_L2C_load_miss 660380
Core_0_L2C_RFOs 763
Core_0_L2C_RFO_hit 109
Core_0_L2C_RFO_miss 654
Core_0_L2C_prefetches 0
Core_0_L2C_prefetch_hit 0
Core_0_L2C_prefetch_miss 0
Core_0_L2C_writebacks 439265
Core_0_L2C_writeback_hit 439265
Core_0_L2C_writeback_miss 0
Core_0_L2C_prefetch_requested 0
Core_0_L2C_prefetch_dropped 0
Core_0_L2C_prefetch_issued 0
Core_0_L2C_prefetch_filled 0
Core_0_L2C_prefetch_useful 0
Core_0_L2C_prefetch_useless 0
Core_0_L2C_prefetch_late 0
Core_0_L2C_average_miss_latency 150.30983

Core_0_L2C_rq_access 661676
Core_0_L2C_rq_forward 0
Core_0_L2C_rq_merged 0
Core_0_L2C_rq_to_cache 661676
Core_0_L2C_rq_full 0

Core_0_L2C_wq_access 439265
Core_0_L2C_wq_forward 0
Core_0_L2C_wq_merged 0
Core_0_L2C_wq_to_cache 439265
Core_0_L2C_wq_full 0

Core_0_L2C_pq_access 0
Core_0_L2C_pq_forward 0
Core_0_L2C_pq_merged 0
Core_0_L2C_pq_to_cache 0
Core_0_L2C_pq_full 0

Core_0_L2C_acc_epochs 93032
Core_0_L2C_acc_level_0 93032
Core_0_L2C_acc_level_1 0
Core_0_L2C_acc_level_2 0
Core_0_L2C_acc_level_3 0
Core_0_L2C_acc_level_4 0
Core_0_L2C_acc_level_5 0
Core_0_L2C_acc_level_6 0
Core_0_L2C_acc_level_7 0
Core_0_L2C_acc_level_8 0
Core_0_L2C_acc_level_9 0

Core_0_LLC_total_access 1100005
Core_0_LLC_total_hit 223766
Core_0_LLC_total_miss 876239
Core_0_LLC_loads 660380
Core_0_LLC_load_hit 221926
Core_0_LLC_load_miss 438454
Core_0_LLC_RFOs 654
Core_0_LLC_RFO_hit 654
Core_0_LLC_RFO_miss 0
Core_0_LLC_prefetches 0
Core_0_LLC_prefetch_hit 0
Core_0_LLC_prefetch_miss 0
Core_0_LLC_writebacks 438971
Core_0_LLC_writeback_hit 1186
Core_0_LLC_writeback_miss 437785
Core_0_LLC_prefetch_requested 0
Core_0_LLC_prefetch_dropped 0
Core_0_LLC_prefetch_issued 0
Core_0_LLC_prefetch_filled 0
Core_0_LLC_prefetch_useful 0
Core_0_LLC_prefetch_useless 0
Core_0_LLC_prefetch_late 0
Core_0_LLC_average_miss_latency 90.68094

Core_0_LLC_rq_access 661034
Core_0_LLC_rq_forward 0
Core_0_LLC_rq_merged 0
Core_0_LLC_rq_to_cache 661034
Core_0_LLC_rq_full 0

Core_0_LLC_wq_access 438971
Core_0_LLC_wq_forward 0
Core_0_LLC_wq_merged 0
Core_0_LLC_wq_to_cache 438971
Core_0_LLC_wq_full 0

Core_0_LLC_pq_access 0
Core_0_LLC_pq_forward 0
Core_0_LLC_pq_merged 0
Core_0_LLC_pq_to_cache 0
Core_0_LLC_pq_full 0

Core_0_LLC_acc_epochs 93695
Core_0_LLC_acc_level_0 93695
Core_0_LLC_acc_level_1 0
Core_0_LLC_acc_level_2 0
Core_0_LLC_acc_level_3 0
Core_0_LLC_acc_level_4 0
Core_0_LLC_acc_level_5 0
Core_0_LLC_acc_level_6 0
Core_0_LLC_acc_level_7 0
Core_0_LLC_acc_level_8 0
Core_0_LLC_acc_level_9 0

Core_0_major_page_fault 0
Core_0_minor_page_fault 8285

Channel_0_RQ_row_buffer_hit 32188
Channel_0_RQ_row_buffer_miss 406266
Channel_0_WQ_row_buffer_hit 263139
Channel_0_WQ_row_buffer_miss 175157
Channel_0_WQ_full 0
Channel_0_dbus_congested 165030

avg_congested_cycle 11

DRAM_bw_pochs 374780
DRAM_bw_level_0 374780
DRAM_bw_level_1 0
DRAM_bw_level_2 0
DRAM_bw_level_3 0
