*************************************************
   ChampSim Multicore Out-of-Order Simulator
   Last compiled: Apr  3 2025 20:54:34
*************************************************
parsing config file: /home/zir/Pythia/config/mlop.ini

trace_0 /home/zir/ChampSim/ML-DPC/ChampSimTraces/spec17/602.gcc-s1.trace.xz
adding L2C_PREFETCHER: MLOP
Initialize SHIP state
warmup_instructions 10000000
simulation_instructions 50000000
champsim_seed 164
measure_ipc 0
measure_ipc_epoch 1000
measure_dram_bw 1
measure_dram_bw_epoch 256
measure_cache_acc 1
measure_cache_acc_epoch 1024
l1d_perfect 0
l2c_perfect 0
llc_perfect 0
l1d_semi_perfect 0
l2c_semi_perfect 0
llc_semi_perfect 0
semi_perfect_cache_page_buffer_size 64

num_cpus 1
cpu_freq 4000
dram_io_freq 2400
page_size 4096
block_size 64
max_read_per_cycle 8
max_fill_per_cycle 1
dram_channels 1
log2_dram_channels 0
dram_ranks 1
dram_banks 8
dram_rows 65536
dram_columns 128
dram_row_size 8
dram_size 4096
dram_pages 1048576

fetch_width 6
decode_width 6
exec_width 4
lq_width 2
sq_width 2
retire_width 4
scheduler_size 128
branch_mispredict_penalty 20
rob_size 256
lq_size 72
sq_size 56
num_instr_destinations_sparc 4
num_instr_destinations 2
num_instr_sources 4

itlb_set 16
itlb_way 8
itlb_rq_size 16
itlb_wq_size 16
itlb_pq_size 0
itlb_mshr_size 8
itlb_latency 1

dtlb_set 16
dtlb_way 4
dtlb_rq_size 16
dtlb_wq_size 16
dtlb_pq_size 0
dtlb_mshr_size 8
dtlb_latency 1

stlb_set 128
stlb_way 12
stlb_rq_size 32
stlb_wq_size 32
stlb_pq_size 0
stlb_mshr_size 16
stlb_latency 8

l1i_size 32
l1i_set 64
l1i_way 8
l1i_rq_size 64
l1i_wq_size 64
l1i_pq_size 8
l1i_mshr_size 8
l1i_latency 1

l1d_size 32
l1d_set 64
l1d_way 8
l1d_rq_size 64
l1d_wq_size 64
l1d_pq_size 8
l1d_mshr_size 16
l1d_latency 4

l2c_size 256
l2c_set 512
l2c_way 8
l2c_rq_size 32
l2c_wq_size 32
l2c_pq_size 32
l2c_mshr_size 32
l2c_latency 10

llc_size 2048
llc_set 2048
llc_way 16
llc_rq_size 32
llc_wq_size 32
llc_pq_size 32
llc_mshr_size 64
llc_latency 20

dram_channel_width 8
dram_wq_size 64
dram_rq_size 64
tRP 15
tRCD 15
tCAS 12.5
dram_dbus_turn_around_time 30
dram_write_high_wm 56
dram_write_low_wm 48
min_dram_writes_per_switch 16
dram_mtps 2400
dram_dbus_return_time 13

mlop_pref_degree 16
mlop_num_updates 500
mlop_l1d_thresh 2
mlop_l2c_thresh 0.75
mlop_llc_thresh 0.3
mlop_debug_level 0
mlop_blocks_in_cache 4096
mlop_blocks_in_zone 64
mlop_amt_size 2048
mlop_PF_DEGREE 16
mlop_NUM_UPDATES 500
mlop_L1D_THRESH 1000
mlop_L2C_THRESH 375
mlop_LLC_THRESH 150
mlop_ORIGIN 63
mlop_MAX_OFFSET 63
mlop_MIN_OFFSET -63
mlop_ORIGIN 63
mlop_NUM_OFFSETS 127


Heartbeat CPU  0 instructions:    1000003 cycles:     514423 heartbeat IPC: 1.94393 cumulative IPC: 1.94393 (Simulation time: 0 hr 0 min 1 sec) 
Heartbeat CPU  0 instructions:    2000002 cycles:    1030508 heartbeat IPC: 1.93766 cumulative IPC: 1.94079 (Simulation time: 0 hr 0 min 3 sec) 
Heartbeat CPU  0 instructions:    3000001 cycles:    1544938 heartbeat IPC: 1.94390 cumulative IPC: 1.94183 (Simulation time: 0 hr 0 min 4 sec) 
Heartbeat CPU  0 instructions:    4000000 cycles:    2060558 heartbeat IPC: 1.93941 cumulative IPC: 1.94122 (Simulation time: 0 hr 0 min 6 sec) 
Heartbeat CPU  0 instructions:    5000001 cycles:    2576074 heartbeat IPC: 1.93981 cumulative IPC: 1.94094 (Simulation time: 0 hr 0 min 7 sec) 
Heartbeat CPU  0 instructions:    6000003 cycles:    3092311 heartbeat IPC: 1.93710 cumulative IPC: 1.94030 (Simulation time: 0 hr 0 min 9 sec) 
Heartbeat CPU  0 instructions:    7000000 cycles:    3606893 heartbeat IPC: 1.94332 cumulative IPC: 1.94073 (Simulation time: 0 hr 0 min 10 sec) 
Heartbeat CPU  0 instructions:    8000000 cycles:    4122088 heartbeat IPC: 1.94101 cumulative IPC: 1.94076 (Simulation time: 0 hr 0 min 12 sec) 
Heartbeat CPU  0 instructions:    9000002 cycles:    4637361 heartbeat IPC: 1.94072 cumulative IPC: 1.94076 (Simulation time: 0 hr 0 min 13 sec) 
Heartbeat CPU  0 instructions:   10000000 cycles:    5151336 heartbeat IPC: 1.94562 cumulative IPC: 1.94124 (Simulation time: 0 hr 0 min 15 sec) 

Warmup complete CPU  0 instructions:   10000004 cycles:    5151337 (Simulation time: 0 hr 0 min 15 sec) 

Heartbeat CPU  0 instructions:   11000000 cycles:    7961720 heartbeat IPC: 0.35582 cumulative IPC: 0.35582 (Simulation time: 0 hr 0 min 18 sec) 
Heartbeat CPU  0 instructions:   12000000 cycles:   10781569 heartbeat IPC: 0.35463 cumulative IPC: 0.35522 (Simulation time: 0 hr 0 min 20 sec) 
Heartbeat CPU  0 instructions:   13000001 cycles:   13587959 heartbeat IPC: 0.35633 cumulative IPC: 0.35559 (Simulation time: 0 hr 0 min 23 sec) 
Heartbeat CPU  0 instructions:   14000000 cycles:   16427206 heartbeat IPC: 0.35221 cumulative IPC: 0.35474 (Simulation time: 0 hr 0 min 25 sec) 
Heartbeat CPU  0 instructions:   15000003 cycles:   19241396 heartbeat IPC: 0.35534 cumulative IPC: 0.35486 (Simulation time: 0 hr 0 min 28 sec) 
Heartbeat CPU  0 instructions:   16000000 cycles:   22078080 heartbeat IPC: 0.35252 cumulative IPC: 0.35447 (Simulation time: 0 hr 0 min 30 sec) 
Heartbeat CPU  0 instructions:   17000000 cycles:   24883046 heartbeat IPC: 0.35651 cumulative IPC: 0.35476 (Simulation time: 0 hr 0 min 33 sec) 
Heartbeat CPU  0 instructions:   18000003 cycles:   27705425 heartbeat IPC: 0.35431 cumulative IPC: 0.35470 (Simulation time: 0 hr 0 min 35 sec) 
Heartbeat CPU  0 instructions:   19000000 cycles:   30544084 heartbeat IPC: 0.35228 cumulative IPC: 0.35443 (Simulation time: 0 hr 0 min 38 sec) 
Heartbeat CPU  0 instructions:   20000000 cycles:   33368675 heartbeat IPC: 0.35403 cumulative IPC: 0.35439 (Simulation time: 0 hr 0 min 40 sec) 
Heartbeat CPU  0 instructions:   21000001 cycles:   36182858 heartbeat IPC: 0.35534 cumulative IPC: 0.35448 (Simulation time: 0 hr 0 min 43 sec) 
Heartbeat CPU  0 instructions:   22000000 cycles:   38998907 heartbeat IPC: 0.35511 cumulative IPC: 0.35453 (Simulation time: 0 hr 0 min 45 sec) 
Heartbeat CPU  0 instructions:   23000000 cycles:   41840298 heartbeat IPC: 0.35194 cumulative IPC: 0.35433 (Simulation time: 0 hr 0 min 48 sec) 
Heartbeat CPU  0 instructions:   24000000 cycles:   44649871 heartbeat IPC: 0.35593 cumulative IPC: 0.35444 (Simulation time: 0 hr 0 min 51 sec) 
Heartbeat CPU  0 instructions:   25000000 cycles:   47425134 heartbeat IPC: 0.36033 cumulative IPC: 0.35483 (Simulation time: 0 hr 0 min 53 sec) 
Heartbeat CPU  0 instructions:   26000000 cycles:   50198336 heartbeat IPC: 0.36059 cumulative IPC: 0.35518 (Simulation time: 0 hr 0 min 56 sec) 
Heartbeat CPU  0 instructions:   27000000 cycles:   52990746 heartbeat IPC: 0.35811 cumulative IPC: 0.35536 (Simulation time: 0 hr 0 min 58 sec) 
Heartbeat CPU  0 instructions:   28000000 cycles:   55759856 heartbeat IPC: 0.36113 cumulative IPC: 0.35567 (Simulation time: 0 hr 1 min 1 sec) 
Heartbeat CPU  0 instructions:   29000000 cycles:   58537934 heartbeat IPC: 0.35996 cumulative IPC: 0.35589 (Simulation time: 0 hr 1 min 3 sec) 
Heartbeat CPU  0 instructions:   30000000 cycles:   61353006 heartbeat IPC: 0.35523 cumulative IPC: 0.35586 (Simulation time: 0 hr 1 min 6 sec) 
Heartbeat CPU  0 instructions:   31000000 cycles:   64162873 heartbeat IPC: 0.35589 cumulative IPC: 0.35586 (Simulation time: 0 hr 1 min 8 sec) 
Heartbeat CPU  0 instructions:   32000000 cycles:   66942870 heartbeat IPC: 0.35971 cumulative IPC: 0.35604 (Simulation time: 0 hr 1 min 11 sec) 
Heartbeat CPU  0 instructions:   33000000 cycles:   69740707 heartbeat IPC: 0.35742 cumulative IPC: 0.35610 (Simulation time: 0 hr 1 min 13 sec) 
Heartbeat CPU  0 instructions:   34000002 cycles:   72526365 heartbeat IPC: 0.35898 cumulative IPC: 0.35622 (Simulation time: 0 hr 1 min 16 sec) 
Heartbeat CPU  0 instructions:   35000000 cycles:   75295964 heartbeat IPC: 0.36106 cumulative IPC: 0.35641 (Simulation time: 0 hr 1 min 18 sec) 
Heartbeat CPU  0 instructions:   36000000 cycles:   78083771 heartbeat IPC: 0.35870 cumulative IPC: 0.35649 (Simulation time: 0 hr 1 min 21 sec) 
Heartbeat CPU  0 instructions:   37000002 cycles:   80855145 heartbeat IPC: 0.36083 cumulative IPC: 0.35665 (Simulation time: 0 hr 1 min 23 sec) 
Heartbeat CPU  0 instructions:   38000003 cycles:   83674399 heartbeat IPC: 0.35470 cumulative IPC: 0.35658 (Simulation time: 0 hr 1 min 26 sec) 
Heartbeat CPU  0 instructions:   39000000 cycles:   86506259 heartbeat IPC: 0.35312 cumulative IPC: 0.35646 (Simulation time: 0 hr 1 min 28 sec) 
Heartbeat CPU  0 instructions:   40000000 cycles:   89322867 heartbeat IPC: 0.35504 cumulative IPC: 0.35642 (Simulation time: 0 hr 1 min 31 sec) 
Heartbeat CPU  0 instructions:   41000000 cycles:   92160355 heartbeat IPC: 0.35242 cumulative IPC: 0.35628 (Simulation time: 0 hr 1 min 33 sec) 
Heartbeat CPU  0 instructions:   42000001 cycles:   94916056 heartbeat IPC: 0.36288 cumulative IPC: 0.35649 (Simulation time: 0 hr 1 min 36 sec) 
Heartbeat CPU  0 instructions:   43000000 cycles:   97740401 heartbeat IPC: 0.35406 cumulative IPC: 0.35641 (Simulation time: 0 hr 1 min 38 sec) 
Heartbeat CPU  0 instructions:   44000000 cycles:  100569968 heartbeat IPC: 0.35341 cumulative IPC: 0.35632 (Simulation time: 0 hr 1 min 41 sec) 
Heartbeat CPU  0 instructions:   45000000 cycles:  103398674 heartbeat IPC: 0.35352 cumulative IPC: 0.35624 (Simulation time: 0 hr 1 min 44 sec) 
Heartbeat CPU  0 instructions:   46000002 cycles:  106215287 heartbeat IPC: 0.35504 cumulative IPC: 0.35621 (Simulation time: 0 hr 1 min 46 sec) 
Heartbeat CPU  0 instructions:   47000000 cycles:  109012592 heartbeat IPC: 0.35749 cumulative IPC: 0.35624 (Simulation time: 0 hr 1 min 49 sec) 
Heartbeat CPU  0 instructions:   48000000 cycles:  111834877 heartbeat IPC: 0.35432 cumulative IPC: 0.35619 (Simulation time: 0 hr 1 min 51 sec) 
Heartbeat CPU  0 instructions:   49000002 cycles:  114647227 heartbeat IPC: 0.35558 cumulative IPC: 0.35618 (Simulation time: 0 hr 1 min 54 sec) 
Heartbeat CPU  0 instructions:   50000003 cycles:  117483829 heartbeat IPC: 0.35253 cumulative IPC: 0.35609 (Simulation time: 0 hr 1 min 56 sec) 
Heartbeat CPU  0 instructions:   51000001 cycles:  120295547 heartbeat IPC: 0.35565 cumulative IPC: 0.35608 (Simulation time: 0 hr 1 min 59 sec) 
Heartbeat CPU  0 instructions:   52000000 cycles:  123124692 heartbeat IPC: 0.35346 cumulative IPC: 0.35601 (Simulation time: 0 hr 2 min 1 sec) 
Heartbeat CPU  0 instructions:   53000002 cycles:  125957269 heartbeat IPC: 0.35304 cumulative IPC: 0.35594 (Simulation time: 0 hr 2 min 4 sec) 
Heartbeat CPU  0 instructions:   54000003 cycles:  128748996 heartbeat IPC: 0.35820 cumulative IPC: 0.35599 (Simulation time: 0 hr 2 min 6 sec) 
Heartbeat CPU  0 instructions:   55000000 cycles:  131593349 heartbeat IPC: 0.35157 cumulative IPC: 0.35589 (Simulation time: 0 hr 2 min 9 sec) 
Heartbeat CPU  0 instructions:   56000000 cycles:  134429959 heartbeat IPC: 0.35253 cumulative IPC: 0.35582 (Simulation time: 0 hr 2 min 11 sec) 
Heartbeat CPU  0 instructions:   57000000 cycles:  137237767 heartbeat IPC: 0.35615 cumulative IPC: 0.35583 (Simulation time: 0 hr 2 min 14 sec) 
Heartbeat CPU  0 instructions:   58000002 cycles:  140050602 heartbeat IPC: 0.35551 cumulative IPC: 0.35582 (Simulation time: 0 hr 2 min 16 sec) 
Heartbeat CPU  0 instructions:   59000001 cycles:  142878515 heartbeat IPC: 0.35362 cumulative IPC: 0.35578 (Simulation time: 0 hr 2 min 19 sec) 
Heartbeat CPU  0 instructions:   60000000 cycles:  145722930 heartbeat IPC: 0.35157 cumulative IPC: 0.35569 (Simulation time: 0 hr 2 min 21 sec) 
Finished CPU 0 instructions: 50000000 cycles: 140571610 cumulative IPC: 0.35569 (Simulation time: 0 hr 2 min 21 sec) 

ChampSim completed all CPUs

[ROI Statistics]
Core_0_instructions 50000000
Core_0_cycles 140571610
Core_0_IPC 0.35569

Core_0_branch_prediction_accuracy 99.55550
Core_0_branch_MPKI 1.57028
Core_0_average_ROB_occupancy_at_mispredict 201.42733

Core_0_L1D_total_access 9136657
Core_0_L1D_total_hit 5511873
Core_0_L1D_total_miss 3624784
Core_0_L1D_loads 8410658
Core_0_L1D_load_hit 4787235
Core_0_L1D_load_miss 3623423
Core_0_L1D_RFOs 725999
Core_0_L1D_RFO_hit 724638
Core_0_L1D_RFO_miss 1361
Core_0_L1D_prefetches 0
Core_0_L1D_prefetch_hit 0
Core_0_L1D_prefetch_miss 0
Core_0_L1D_writebacks 0
Core_0_L1D_writeback_hit 0
Core_0_L1D_writeback_miss 0
Core_0_L1D_prefetch_requested 0
Core_0_L1D_prefetch_dropped 0
Core_0_L1D_prefetch_issued 0
Core_0_L1D_prefetch_filled 0
Core_0_L1D_prefetch_useful 0
Core_0_L1D_prefetch_useless 0
Core_0_L1D_prefetch_late 0
Core_0_L1D_average_miss_latency 16.87609

Core_0_L1D_rq_access 17944934
Core_0_L1D_rq_forward 0
Core_0_L1D_rq_merged 9472261
Core_0_L1D_rq_to_cache 8472673
Core_0_L1D_rq_full 0

Core_0_L1D_wq_access 726008
Core_0_L1D_wq_forward 0
Core_0_L1D_wq_merged 5
Core_0_L1D_wq_to_cache 726003
Core_0_L1D_wq_full 0

Core_0_L1D_pq_access 0
Core_0_L1D_pq_forward 0
Core_0_L1D_pq_merged 0
Core_0_L1D_pq_to_cache 0
Core_0_L1D_pq_full 0

Core_0_L1D_acc_epochs 135879
Core_0_L1D_acc_level_0 135879
Core_0_L1D_acc_level_1 0
Core_0_L1D_acc_level_2 0
Core_0_L1D_acc_level_3 0
Core_0_L1D_acc_level_4 0
Core_0_L1D_acc_level_5 0
Core_0_L1D_acc_level_6 0
Core_0_L1D_acc_level_7 0
Core_0_L1D_acc_level_8 0
Core_0_L1D_acc_level_9 0

Core_0_L1I_total_access 17873602
Core_0_L1I_total_hit 17873602
Core_0_L1I_total_miss 0
Core_0_L1I_loads 17873602
Core_0_L1I_load_hit 17873602
Core_0_L1I_load_miss 0
Core_0_L1I_RFOs 0
Core_0_L1I_RFO_hit 0
Core_0_L1I_RFO_miss 0
Core_0_L1I_prefetches 0
Core_0_L1I_prefetch_hit 0
Core_0_L1I_prefetch_miss 0
Core_0_L1I_writebacks 0
Core_0_L1I_writeback_hit 0
Core_0_L1I_writeback_miss 0
Core_0_L1I_prefetch_requested 0
Core_0_L1I_prefetch_dropped 0
Core_0_L1I_prefetch_issued 0
Core_0_L1I_prefetch_filled 0
Core_0_L1I_prefetch_useful 0
Core_0_L1I_prefetch_useless 0
Core_0_L1I_prefetch_late 0
Core_0_L1I_average_miss_latency -nan

Core_0_L1I_rq_access 50000169
Core_0_L1I_rq_forward 0
Core_0_L1I_rq_merged 32126567
Core_0_L1I_rq_to_cache 17873602
Core_0_L1I_rq_full 0

Core_0_L1I_wq_access 0
Core_0_L1I_wq_forward 0
Core_0_L1I_wq_merged 0
Core_0_L1I_wq_to_cache 0
Core_0_L1I_wq_full 0

Core_0_L1I_pq_access 0
Core_0_L1I_pq_forward 0
Core_0_L1I_pq_merged 0
Core_0_L1I_pq_to_cache 0
Core_0_L1I_pq_full 0

Core_0_L1I_acc_epochs 135879
Core_0_L1I_acc_level_0 135879
Core_0_L1I_acc_level_1 0
Core_0_L1I_acc_level_2 0
Core_0_L1I_acc_level_3 0
Core_0_L1I_acc_level_4 0
Core_0_L1I_acc_level_5 0
Core_0_L1I_acc_level_6 0
Core_0_L1I_acc_level_7 0
Core_0_L1I_acc_level_8 0
Core_0_L1I_acc_level_9 0

Core_0_L2C_total_access 7297686
Core_0_L2C_total_hit 3555140
Core_0_L2C_total_miss 3742546
Core_0_L2C_loads 3623423
Core_0_L2C_load_hit 3541102
Core_0_L2C_load_miss 82321
Core_0_L2C_RFOs 1361
Core_0_L2C_RFO_hit 1317
Core_0_L2C_RFO_miss 44
Core_0_L2C_prefetches 3660181
Core_0_L2C_prefetch_hit 0
Core_0_L2C_prefetch_miss 3660181
Core_0_L2C_writebacks 12721
Core_0_L2C_writeback_hit 12721
Core_0_L2C_writeback_miss 0
Core_0_L2C_prefetch_requested 7131447
Core_0_L2C_prefetch_dropped 0
Core_0_L2C_prefetch_issued 7131447
Core_0_L2C_prefetch_filled 4401349
Core_0_L2C_prefetch_useful 4097888
Core_0_L2C_prefetch_useless 303222
Core_0_L2C_prefetch_late 8037
Core_0_L2C_average_miss_latency 97.74969

Core_0_L2C_rq_access 3624784
Core_0_L2C_rq_forward 0
Core_0_L2C_rq_merged 0
Core_0_L2C_rq_to_cache 3624784
Core_0_L2C_rq_full 0

Core_0_L2C_wq_access 12721
Core_0_L2C_wq_forward 0
Core_0_L2C_wq_merged 0
Core_0_L2C_wq_to_cache 12721
Core_0_L2C_wq_full 0

Core_0_L2C_pq_access 7131447
Core_0_L2C_pq_forward 0
Core_0_L2C_pq_merged 26829
Core_0_L2C_pq_to_cache 7104618
Core_0_L2C_pq_full 0

Core_0_L2C_acc_epochs 135879
Core_0_L2C_acc_level_0 52
Core_0_L2C_acc_level_1 22
Core_0_L2C_acc_level_2 194
Core_0_L2C_acc_level_3 473
Core_0_L2C_acc_level_4 1058
Core_0_L2C_acc_level_5 2305
Core_0_L2C_acc_level_6 3439
Core_0_L2C_acc_level_7 5690
Core_0_L2C_acc_level_8 9671
Core_0_L2C_acc_level_9 112975

Core_0_LLC_total_access 4821307
Core_0_LLC_total_hit 1085008
Core_0_LLC_total_miss 3736299
Core_0_LLC_loads 74489
Core_0_LLC_load_hit 1838
Core_0_LLC_load_miss 72651
Core_0_LLC_RFOs 22
Core_0_LLC_RFO_hit 1
Core_0_LLC_RFO_miss 21
Core_0_LLC_prefetches 4741117
Core_0_LLC_prefetch_hit 1080501
Core_0_LLC_prefetch_miss 3660616
Core_0_LLC_writebacks 5679
Core_0_LLC_writeback_hit 2668
Core_0_LLC_writeback_miss 3011
Core_0_LLC_prefetch_requested 0
Core_0_LLC_prefetch_dropped 0
Core_0_LLC_prefetch_issued 0
Core_0_LLC_prefetch_filled 4391182
Core_0_LLC_prefetch_useful 1433
Core_0_LLC_prefetch_useless 4357587
Core_0_LLC_prefetch_late 7
Core_0_LLC_average_miss_latency 110.46552

Core_0_LLC_rq_access 74511
Core_0_LLC_rq_forward 0
Core_0_LLC_rq_merged 0
Core_0_LLC_rq_to_cache 74511
Core_0_LLC_rq_full 0

Core_0_LLC_wq_access 5679
Core_0_LLC_wq_forward 0
Core_0_LLC_wq_merged 0
Core_0_LLC_wq_to_cache 5679
Core_0_LLC_wq_full 0

Core_0_LLC_pq_access 7102210
Core_0_LLC_pq_forward 0
Core_0_LLC_pq_merged 1607
Core_0_LLC_pq_to_cache 7100603
Core_0_LLC_pq_full 0

Core_0_LLC_acc_epochs 142308
Core_0_LLC_acc_level_0 142261
Core_0_LLC_acc_level_1 29
Core_0_LLC_acc_level_2 10
Core_0_LLC_acc_level_3 1
Core_0_LLC_acc_level_4 0
Core_0_LLC_acc_level_5 7
Core_0_LLC_acc_level_6 0
Core_0_LLC_acc_level_7 0
Core_0_LLC_acc_level_8 0
Core_0_LLC_acc_level_9 0

Core_0_major_page_fault 0
Core_0_minor_page_fault 48029

[MLOP] History of tracked zone:
IIIIIIIIIIIIIIIIIIIIIIIIIIIIIIIIIIIIIIIIIIIIIIIIIIIIIIIIIIIIIIII
A2222222222222224IIIIIIIIIIIIIIIIIIIIIIIIIIIIIIIIIIIIIIIIIIIIIII
AA2222222222222224IIIIIIIIIIIIIIIIIIIIIIIIIIIIIIIIIIIIIIIIIIIIII
AAA2222222222222224IIIIIIIIIIIIIIIIIIIIIIIIIIIIIIIIIIIIIIIIIIIII
AAAA2222222222222224IIIIIIIIIIIIIIIIIIIIIIIIIIIIIIIIIIIIIIIIIIII
AAAAA2222222222222224IIIIIIIIIIIIIIIIIIIIIIIIIIIIIIIIIIIIIIIIIII
AAAAAA2222222222222224IIIIIIIIIIIIIIIIIIIIIIIIIIIIIIIIIIIIIIIIII
AAAAAAA2222222222222224IIIIIIIIIIIIIIIIIIIIIIIIIIIIIIIIIIIIIIIII
AAAAAAAA2222222222222224IIIIIIIIIIIIIIIIIIIIIIIIIIIIIIIIIIIIIIII
AAAAAAAAA2222222222222224IIIIIIIIIIIIIIIIIIIIIIIIIIIIIIIIIIIIIII
AAAAAAAAAA2222222222222224IIIIIIIIIIIIIIIIIIIIIIIIIIIIIIIIIIIIII
AAAAAAAAAAA2222222222222224IIIIIIIIIIIIIIIIIIIIIIIIIIIIIIIIIIIII
AAAAAAAAAAAA2222222222222224IIIIIIIIIIIIIIIIIIIIIIIIIIIIIIIIIIII
AAAAAAAAAAAAA2222222222222224IIIIIIIIIIIIIIIIIIIIIIIIIIIIIIIIIII
AAAAAAAAAAAAAA2222222222222224IIIIIIIIIIIIIIIIIIIIIIIIIIIIIIIIII
AAAAAAAAAAAAAAA2222222222222224IIIIIIIIIIIIIIIIIIIIIIIIIIIIIIIII
AAAAAAAAAAAAAAAA2222222222222224IIIIIIIIIIIIIIIIIIIIIIIIIIIIIIII
AAAAAAAAAAAAAAAAA2222222222222224IIIIIIIIIIIIIIIIIIIIIIIIIIIIIII
AAAAAAAAAAAAAAAAAA2222222222222224IIIIIIIIIIIIIIIIIIIIIIIIIIIIII
AAAAAAAAAAAAAAAAAAA2222222222222224IIIIIIIIIIIIIIIIIIIIIIIIIIIII
AAAAAAAAAAAAAAAAAAAA2222222222222224IIIIIIIIIIIIIIIIIIIIIIIIIIII
AAAAAAAAAAAAAAAAAAAAA2222222222222224IIIIIIIIIIIIIIIIIIIIIIIIIII
AAAAAAAAAAAAAAAAAAAAAA2222222222222224IIIIIIIIIIIIIIIIIIIIIIIIII
AAAAAAAAAAAAAAAAAAAAAAA2222222222222224IIIIIIIIIIIIIIIIIIIIIIIII
AAAAAAAAAAAAAAAAAAAAAAAA2222222222222224IIIIIIIIIIIIIIIIIIIIIIII
AAAAAAAAAAAAAAAAAAAAAAAAA2222222222222224IIIIIIIIIIIIIIIIIIIIIII
AAAAAAAAAAAAAAAAAAAAAAAAAA2222222222222224IIIIIIIIIIIIIIIIIIIIII
AAAAAAAAAAAAAAAAAAAAAAAAAAA2222222222222224IIIIIIIIIIIIIIIIIIIII
AAAAAAAAAAAAAAAAAAAAAAAAAAAA2222222222222224IIIIIIIIIIIIIIIIIIII
AAAAAAAAAAAAAAAAAAAAAAAAAAAAA2222222222222224IIIIIIIIIIIIIIIIIII
AAAAAAAAAAAAAAAAAAAAAAAAAAAAAA2222222222222224IIIIIIIIIIIIIIIIII
AAAAAAAAAAAAAAAAAAAAAAAAAAAAAAA2222222222222224IIIIIIIIIIIIIIIII
AAAAAAAAAAAAAAAAAAAAAAAAAAAAAAAA2222222222222224IIIIIIIIIIIIIIII
AAAAAAAAAAAAAAAAAAAAAAAAAAAAAAAAA2222222222222224IIIIIIIIIIIIIII
AAAAAAAAAAAAAAAAAAAAAAAAAAAAAAAAAA2222222222222224IIIIIIIIIIIIII
AAAAAAAAAAAAAAAAAAAAAAAAAAAAAAAAAAA2222222222222224IIIIIIIIIIIII
AAAAAAAAAAAAAAAAAAAAAAAAAAAAAAAAAAAA2222222222222224IIIIIIIIIIII
AAAAAAAAAAAAAAAAAAAAAAAAAAAAAAAAAAAAA2222222222222224IIIIIIIIIII
AAAAAAAAAAAAAAAAAAAAAAAAAAAAAAAAAAAAAA2222222222222224IIIIIIIIII
AAAAAAAAAAAAAAAAAAAAAAAAAAAAAAAAAAAAAAA2222222222222224IIIIIIIII
AAAAAAAAAAAAAAAAAAAAAAAAAAAAAAAAAAAAAAAA2222222222222224IIIIIIII
AAAAAAAAAAAAAAAAAAAAAAAAAAAAAAAAAAAAAAAAA2222222222222224IIIIIII
AAAAAAAAAAAAAAAAAAAAAAAAAAAAAAAAAAAAAAAAAA2222222222222224IIIIII
AAAAAAAAAAAAAAAAAAAAAAAAAAAAAAAAAAAAAAAAAAA2222222222222224IIIII
AAAAAAAAAAAAAAAAAAAAAAAAAAAAAAAAAAAAAAAAAAAA2222222222222224IIII
AAAAAAAAAAAAAAAAAAAAAAAAAAAAAAAAAAAAAAAAAAAAA2222222222222224III
AAAAAAAAAAAAAAAAAAAAAAAAAAAAAAAAAAAAAAAAAAAAAA2222222222222224II
AAAAAAAAAAAAAAAAAAAAAAAAAAAAAAAAAAAAAAAAAAAAAAA2222222222222224I
AAAAAAAAAAAAAAAAAAAAAAAAAAAAAAAAAAAAAAAAAAAAAAAA2222222222222224
AAAAAAAAAAAAAAAAAAAAAAAAAAAAAAAAAAAAAAAAAAAAAAAA2A22222222222222
AAAAAAAAAAAAAAAAAAAAAAAAAAAAAAAAAAAAAAAAAAAAAAAAAA22222222222222
AAAAAAAAAAAAAAAAAAAAAAAAAAAAAAAAAAAAAAAAAAAAAAAAAAA2222222222222
AAAAAAAAAAAAAAAAAAAAAAAAAAAAAAAAAAAAAAAAAAAAAAAAAAAA222222222222
AAAAAAAAAAAAAAAAAAAAAAAAAAAAAAAAAAAAAAAAAAAAAAAAAAAAA22222222222
AAAAAAAAAAAAAAAAAAAAAAAAAAAAAAAAAAAAAAAAAAAAAAAAAAAAAA2222222222
AAAAAAAAAAAAAAAAAAAAAAAAAAAAAAAAAAAAAAAAAAAAAAAAAAAAAAA222222222
AAAAAAAAAAAAAAAAAAAAAAAAAAAAAAAAAAAAAAAAAAAAAAAAAAAAAAAA22222222
AAAAAAAAAAAAAAAAAAAAAAAAAAAAAAAAAAAAAAAAAAAAAAAAAAAAAAAAA2222222
AAAAAAAAAAAAAAAAAAAAAAAAAAAAAAAAAAAAAAAAAAAAAAAAAAAAAAAAAA222222
AAAAAAAAAAAAAAAAAAAAAAAAAAAAAAAAAAAAAAAAAAAAAAAAAAAAAAAAAAA22222
AAAAAAAAAAAAAAAAAAAAAAAAAAAAAAAAAAAAAAAAAAAAAAAAAAAAAAAAAAAA2222
AAAAAAAAAAAAAAAAAAAAAAAAAAAAAAAAAAAAAAAAAAAAAAAAAAAAAAAAAAAAA222
AAAAAAAAAAAAAAAAAAAAAAAAAAAAAAAAAAAAAAAAAAAAAAAAAAAAAAAAAAAAAA22
AAAAAAAAAAAAAAAAAAAAAAAAAAAAAAAAAAAAAAAAAAAAAAAAAAAAAAAAAAAAAAA2
AAAAAAAAAAAAAAAAAAAAAAAAAAAAAAAAAAAAAAAAAAAAAAAAAAAAAAAAAAAAAAAA
AAAAAAAAAAAAAAAAAAAAAAAAAAAAAAAAAAAAAAAAAAAAAAAAAAAIAAAAAAAAAAAA
AAAAAAAAAAAAAAAAAAAAAAAAAAAAAAAAAAAAAAAAAAAAAAAAAAAIAIAAAAAAAAAA
AAAAAAAAAAAAAAAAAAAAAAAAAAAAAAAAAAAAAAAAAAAAAAAAAAAIAIIAAAAAAAAA
AAAAAAAAAAAAAAAAAAAAAAAAAAAAAAAAAAAAAAAAAAAAAAAAAAAIAIIIAAAAAAAA
AAAAAAAAAAAAAAAAAAAAAAAAAAAAAAAAAAAAAAAAAAAAAAAAAAAIAIIIIAAAAAAA
AAAAAAAAAAAAAAAAAAAAAAAAAAAAAAAAAAAAAAAAAAAAAAAAAAAIAIIIIIAAAAAA
AAAAAAAAAAAAAAAAAAAAAAAAAAAAAAAAAAAAAAAAAAAAAAAAAAAIAIIIIIIAAAAA
AAAAAAAAAAAAAAAAAAAAAAAAAAAAAAAAAAAAAAAAAAAAAAAAAAAIAIIIIIIIAAAA
AAAAAAAAAAAAAAAAAAAAAAAAAAAAAAAAAAAAAAAAAAAAAAAAAAAIAIIIIIIIIAAA
AAAAAAAAAAAAAAAAAAAAAAAAAAAAAAAAAAAAAAAAAAAAAAAAAAAIAIIIIIIIIIAA
AAAAAAAAAAAAAAAAAAAAAAAAAAAAAAAAAAAAAAAAAAAAAAAAAAAIAIIIIIIIIIIA
AAAAAAAAAAAAAAAAAAAAAAAAAAAAAAAAAAAAAAAAAAAAAAAAAAAIAIIIIIIIIIII
AIAAAAAAAAAAAAAAAAAAAAAAAAAAAAAAAAAAAAAAAAAAAAAAAAAIAIIIIIIIIIII
AIIAAAAAAAAAAAAAAAAAAAAAAAAAAAAAAAAAAAAAAAAAAAAAAAAIAIIIIIIIIIII
AIIIAAAAAAAAAAAAAAAAAAAAAAAAAAAAAAAAAAAAAAAAAAAAAAAIAIIIIIIIIIII
AIIIIAAAAAAAAAAAAAAAAAAAAAAAAAAAAAAAAAAAAAAAAAAAAAAIAIIIIIIIIIII
AIIIIIAAAAAAAAAAAAAAAAAAAAAAAAAAAAAAAAAAAAAAAAAAAAAIAIIIIIIIIIII
AIIIIIIAAAAAAAAAAAAAAAAAAAAAAAAAAAAAAAAAAAAAAAAAAAAIAIIIIIIIIIII
AIIIIIIIAAAAAAAAAAAAAAAAAAAAAAAAAAAAAAAAAAAAAAAAAAAIAIIIIIIIIIII
AIIIIIIIIAAAAAAAAAAAAAAAAAAAAAAAAAAAAAAAAAAAAAAAAAAIAIIIIIIIIIII
AIIIIIIIIIAAAAAAAAAAAAAAAAAAAAAAAAAAAAAAAAAAAAAAAAAIAIIIIIIIIIII
AIIIIIIIIIIAAAAAAAAAAAAAAAAAAAAAAAAAAAAAAAAAAAAAAAAIAIIIIIIIIIII
AIIIIIIIIIIIAAAAAAAAAAAAAAAAAAAAAAAAAAAAAAAAAAAAAAAIAIIIIIIIIIII
AIIIIIIIIIIIIAAAAAAAAAAAAAAAAAAAAAAAAAAAAAAAAAAAAAAIAIIIIIIIIIII
AIIIIIIIIIIIIIAAAAAAAAAAAAAAAAAAAAAAAAAAAAAAAAAAAAAIAIIIIIIIIIII
AIIIIIIIIIIIIIIAAAAAAAAAAAAAAAAAAAAAAAAAAAAAAAAAAAAIAIIIIIIIIIII
AIIIIIIIIIIIIIIIAAAAAAAAAAAAAAAAAAAAAAAAAAAAAAAAAAAIAIIIIIIIIIII
AIIIIIIIIIIIIIIIIAAAAAAAAAAAAAAAAAAAAAAAAAAAAAAAAAAIAIIIIIIIIIII
AIIIIIIIIIIIIIIIIIAAAAAAAAAAAAAAAAAAAAAAAAAAAAAAAAAIAIIIIIIIIIII
AIIIIIIIIIIIIIIIIIIAAAAAAAAAAAAAAAAAAAAAAAAAAAAAAAAIAIIIIIIIIIII
AIIIIIIIIIIIIIIIIIIIAAAAAAAAAAAAAAAAAAAAAAAAAAAAAAAIAIIIIIIIIIII
AIIIIIIIIIIIIIIIIIIIIAAAAAAAAAAAAAAAAAAAAAAAAAAAAAAIAIIIIIIIIIII
AIIIIIIIIIIIIIIIIIIIIAAAAAAAAAAAAAIAAAAAAAAAAAAAAAAIAIIIIIIIIIII
AIIIIIIIIIIIIIIIIIIIIAAAAAAAAAAAAAIIAAAAAAAAAAAAAAAIAIIIIIIIIIII
AIIIIIIIIIIIIIIIIIIIIAAAAAAAAAAAAAIIIAAAAAAAAAAAAAAIAIIIIIIIIIII
AIIIIIIIIIIIIIIIIIIIIAAAAAAAAAAAAAIIIIAAAAAAAAAAAAAIAIIIIIIIIIII
AIIIIIIIIIIIIIIIIIIIIAAAAAAAAAAAAAIIIIIAAAAAAAAAAAAIAIIIIIIIIIII
AIIIIIIIIIIIIIIIIIIIIAAAAAAAAAAAAAIIIIIIAAAAAAAAAAAIAIIIIIIIIIII
AIIIIIIIIIIIIIIIIIIIIAAAAAAAAAAAAAIIIIIIIAAAAAAAAAAIAIIIIIIIIIII
AIIIIIIIIIIIIIIIIIIIIAAAAAAAAAAAAAIIIIIIIIAAAAAAAAAIAIIIIIIIIIII
AIIIIIIIIIIIIIIIIIIIIAAAAAAAAAAAAAIIIIIIIIIAAAAAAAAIAIIIIIIIIIII
AIIIIIIIIIIIIIIIIIIIIAAAAAAAAAAAAAIIIIIIIIIIAAAAAAAIAIIIIIIIIIII
AIIIIIIIIIIIIIIIIIIIIAAAAAAAAAAAAAIIIIIIIIIIIAAAAAAIAIIIIIIIIIII
AIIIIIIIIIIIIIIIIIIIIAAAAAAAAAAAAAIIIIIIIIIIIIAAAAAIAIIIIIIIIIII
AIIIIIIIIIIIIIIIIIIIIAAAAAAAAAAAAAIIIIIIIIIIIIIAAAAIAIIIIIIIIIII
AIIIIIIIIIIIIIIIIIIIIAAAAAAAAAAAAAIIIIIIIIIIIIIIAAAIAIIIIIIIIIII
AIIIIIIIIIIIIIIIIIIIIAAAAAAAAAAAAAIIIIIIIIIIIIIIIAAIAIIIIIIIIIII
AIIIIIIIIIIIIIIIIIIIIAAAAAAAAAAAAAIIIIIIIIIIIIIIIIAIAIIIIIIIIIII
AIIIIIIIIIIIIIIIIIIIIAAAAAAAAAAAAAIIIIIIIIIIIIIIIIIIAIIIIIIIIIII
AIIIIIIIIIIIIIIIIIIIIAAAAAAAAAAAAAIIIIIIIIIIIIIIIIIIIIIIIIIIIIII
AIIIIIIIIIIIIIIIIIIIIIAAAAAAAAAAAAIIIIIIIIIIIIIIIIIIIIIIIIIIIIII
AIIIIIIIIIIIIIIIIIIIIIIAAAAAAAAAAAIIIIIIIIIIIIIIIIIIIIIIIIIIIIII
AIIIIIIIIIIIIIIIIIIIIIIIAAAAAAAAAAIIIIIIIIIIIIIIIIIIIIIIIIIIIIII
AIIIIIIIIIIIIIIIIIIIIIIIIAAAAAAAAAIIIIIIIIIIIIIIIIIIIIIIIIIIIIII
AIIIIIIIIIIIIIIIIIIIIIIIIIAAAAAAAAIIIIIIIIIIIIIIIIIIIIIIIIIIIIII
AIIIIIIIIIIIIIIIIIIIIIIIIIIAAAAAAAIIIIIIIIIIIIIIIIIIIIIIIIIIIIII
AIIIIIIIIIIIIIIIIIIIIIIIIIIIAAAAAAIIIIIIIIIIIIIIIIIIIIIIIIIIIIII
AIIIIIIIIIIIIIIIIIIIIIIIIIIIIAAAAAIIIIIIIIIIIIIIIIIIIIIIIIIIIIII
AIIIIIIIIIIIIIIIIIIIIIIIIIIIIIAAAAIIIIIIIIIIIIIIIIIIIIIIIIIIIIII
AIIIIIIIIIIIIIIIIIIIIIIIIIIIIIIAAAIIIIIIIIIIIIIIIIIIIIIIIIIIIIII
AIIIIIIIIIIIIIIIIIIIIIIIIIIIIIIIAAIIIIIIIIIIIIIIIIIIIIIIIIIIIIII
AIIIIIIIIIIIIIIIIIIIIIIIIIIIIIIIIAIIIIIIIIIIIIIIIIIIIIIIIIIIIIII
AIIIIIIIIIIIIIIIIIIIIIIIIIIIIIIIIIIIIIIIIIIIIIIIIIIIIIIIIIIIIIII
A2222222222222222IIIIIIIIIIIIIIIIIIIIIIIIIIIIIIIIIIIIIIIIIIIIIII
AA2222222222222222IIIIIIIIIIIIIIIIIIIIIIIIIIIIIIIIIIIIIIIIIIIIII
AAA2222222222222222IIIIIIIIIIIIIIIIIIIIIIIIIIIIIIIIIIIIIIIIIIIII
AAAA2222222222222222IIIIIIIIIIIIIIIIIIIIIIIIIIIIIIIIIIIIIIIIIIII
AAAAA2222222222222222IIIIIIIIIIIIIIIIIIIIIIIIIIIIIIIIIIIIIIIIIII
AAAAAA2222222222222222IIIIIIIIIIIIIIIIIIIIIIIIIIIIIIIIIIIIIIIIII
AAAAAAA2222222222222222IIIIIIIIIIIIIIIIIIIIIIIIIIIIIIIIIIIIIIIII
AAAAAAAA2222222222222222IIIIIIIIIIIIIIIIIIIIIIIIIIIIIIIIIIIIIIII
AAAAAAAAA2222222222222222IIIIIIIIIIIIIIIIIIIIIIIIIIIIIIIIIIIIIII
AAAAAAAAAA2222222222222222IIIIIIIIIIIIIIIIIIIIIIIIIIIIIIIIIIIIII
AAAAAAAAAAA2222222222222222IIIIIIIIIIIIIIIIIIIIIIIIIIIIIIIIIIIII
AAAAAAAAAAAA2222222222222222IIIIIIIIIIIIIIIIIIIIIIIIIIIIIIIIIIII
AAAAAAAAAAAAA2222222222222222IIIIIIIIIIIIIIIIIIIIIIIIIIIIIIIIIII
AAAAAAAAAAAAAA2222222222222222IIIIIIIIIIIIIIIIIIIIIIIIIIIIIIIIII
AAAAAAAAAAAAAAA2222222222222222IIIIIIIIIIIIIIIIIIIIIIIIIIIIIIIII
AAAAAAAAAAAAAAAA2222222222222222IIIIIIIIIIIIIIIIIIIIIIIIIIIIIIII
AAAAAAAAAAAAAAAAA2222222222222222IIIIIIIIIIIIIIIIIIIIIIIIIIIIIII
AAAAAAAAAAAAAAAAAA2222222222222222IIIIIIIIIIIIIIIIIIIIIIIIIIIIII
AAAAAAAAAAAAAAAAAAA2222222222222222IIIIIIIIIIIIIIIIIIIIIIIIIIIII
AAAAAAAAAAAAAAAAAAAA2222222222222222IIIIIIIIIIIIIIIIIIIIIIIIIIII
AAAAAAAAAAAAAAAAAAAAA2222222222222222IIIIIIIIIIIIIIIIIIIIIIIIIII
AAAAAAAAAAAAAAAAAAAAAA2222222222222222IIIIIIIIIIIIIIIIIIIIIIIIII
AAAAAAAAAAAAAAAAAAAAAAA2222222222222222IIIIIIIIIIIIIIIIIIIIIIIII
AAAAAAAAAAAAAAAAAAAAAAAA2222222222222222IIIIIIIIIIIIIIIIIIIIIIII
AAAAAAAAAAAAAAAAAAAAAAAAA2222222222222222IIIIIIIIIIIIIIIIIIIIIII
AAAAAAAAAAAAAAAAAAAAAAAAAA2222222222222222IIIIIIIIIIIIIIIIIIIIII
AAAAAAAAAAAAAAAAAAAAAAAAAAA2222222222222222IIIIIIIIIIIIIIIIIIIII
AAAAAAAAAAAAAAAAAAAAAAAAAAAA2222222222222222IIIIIIIIIIIIIIIIIIII
AAAAAAAAAAAAAAAAAAAAAAAAAAAAA2222222222222222IIIIIIIIIIIIIIIIIII
AAAAAAAAAAAAAAAAAAAAAAAAAAAAAA2222222222222222IIIIIIIIIIIIIIIIII
AAAAAAAAAAAAAAAAAAAAAAAAAAAAAAA2222222222222222IIIIIIIIIIIIIIIII
AAAAAAAAAAAAAAAAAAAAAAAAAAAAAAAA2222222222222222IIIIIIIIIIIIIIII
AAAAAAAAAAAAAAAAAAAAAAAAAAAAAAAAA2222222222222222IIIIIIIIIIIIIII
AAAAAAAAAAAAAAAAAAAAAAAAAAAAAAAAAA2222222222222222IIIIIIIIIIIIII
AAAAAAAAAAAAAAAAAAAAAAAAAAAAAAAAAAA2222222222222222IIIIIIIIIIIII
AAAAAAAAAAAAAAAAAAAAAAAAAAAAAAAAAAAA2222222222222222IIIIIIIIIIII
AAAAAAAAAAAAAAAAAAAAAAAAAAAAAAAAAAAAA2222222222222222IIIIIIIIIII
AAAAAAAAAAAAAAAAAAAAAAAAAAAAAAAAAAAAAA2222222222222222IIIIIIIIII
AAAAAAAAAAAAAAAAAAAAAAAAAAAAAAAAAAAAAAA2222222222222222IIIIIIIII
AAAAAAAAAAAAAAAAAAAAAAAAAAAAAAAAAAAAAAAA2222222222222222IIIIIIII
AAAAAAAAAAAAAAAAAAAAAAAAAAAAAAAAAAAAAAAAA2222222222222222IIIIIII
AAAAAAAAAAAAAAAAAAAAAAAAAAAAAAAAAAAAAAAAAA2222222222222222IIIIII
AAAAAAAAAAAAAAAAAAAAAAAAAAAAAAAAAAAAAAAAAAA2222222222222222IIIII
AAAAAAAAAAAAAAAAAAAAAAAAAAAAAAAAAAAAAAAAAAAA2222222222222222IIII
AAAAAAAAAAAAAAAAAAAAAAAAAAAAAAAAAAAAAAAAAAAAA2222222222222222III
AAAAAAAAAAAAAAAAAAAAAAAAAAAAAAAAAAAAAAAAAAAAAA2222222222222222II
AAAAAAAAAAAAAAAAAAAAAAAAAAAAAAAAAAAAAAAAAAAAAAA2222222222222222I
AAAAAAAAAAAAAAAAAAAAAAAAAAAAAAAAAAAAAAAAAAAAAAAA2222222222222222
AAAAAAAAAAAAAAAAAAAAAAAAAAAAAAAAAAAAAAAAAAAAAAAA2A22222222222222
AAAAAAAAAAAAAAAAAAAAAAAAAAAAAAAAAAAAAAAAAAAAAAAAAA22222222222222
AAAAAAAAAAAAAAAAAAAAAAAAAAAAAAAAAAAAAAAAAAAAAAAAAAA2222222222222
AAAAAAAAAAAAAAAAAAAAAAAAAAAAAAAAAAAAAAAAAAAAAAAAAAAA222222222222
AAAAAAAAAAAAAAAAAAAAAAAAAAAAAAAAAAAAAAAAAAAAAAAAAAAAA22222222222
AAAAAAAAAAAAAAAAAAAAAAAAAAAAAAAAAAAAAAAAAAAAAAAAAAAAAA2222222222
AAAAAAAAAAAAAAAAAAAAAAAAAAAAAAAAAAAAAAAAAAAAAAAAAAAAAAA222222222
AAAAAAAAAAAAAAAAAAAAAAAAAAAAAAAAAAAAAAAAAAAAAAAAAAAAAAAA22222222
AAAAAAAAAAAAAAAAAAAAAAAAAAAAAAAAAAAAAAAAAAAAAAAAAAAAAAAAA2222222
AAAAAAAAAAAAAAAAAAAAAAAAAAAAAAAAAAAAAAAAAAAAAAAAAAAAAAAAAA222222
AAAAAAAAAAAAAAAAAAAAAAAAAAAAAAAAAAAAAAAAAAAAAAAAAAAAAAAAAAA22222
AAAAAAAAAAAAAAAAAAAAAAAAAAAAAAAAAAAAAAAAAAAAAAAAAAAAAAAAAAAA2222
AAAAAAAAAAAAAAAAAAAAAAAAAAAAAAAAAAAAAAAAAAAAAAAAAAAAAAAAAAAAA222
AAAAAAAAAAAAAAAAAAAAAAAAAAAAAAAAAAAAAAAAAAAAAAAAAAAAAAAAAAAAAA22
AAAAAAAAAAAAAAAAAAAAAAAAAAAAAAAAAAAAAAAAAAAAAAAAAAAAAAAAAAAAAAA2
AAAAAAAAAAAAAAAAAAAAAAAAAAAAAAAAAAAAAAAAAAAAAAAAAAAAAAAAAAAAAAAA
AAAAAAAAAAAAAAAAAAAAAAAAAAAAAAAAAAAAAAAAAAAAAAAAAAAIAAAAAAAAAAAA
AAAAAAAAAAAAAAAAAAAAAAAAAAAAAAAAAAAAAAAAAAAAAAAAAAAIAIAAAAAAAAAA
AIAAAAAAAAAAAAAAAAAAAAAAAAAAAAAAAAAAAAAAAAAAAAAAAAAIAIAAAAAAAAAA
AIIAAAAAAAAAAAAAAAAAAAAAAAAAAAAAAAAAAAAAAAAAAAAAAAAIAIAAAAAAAAAA
AIIIAAAAAAAAAAAAAAAAAAAAAAAAAAAAAAAAAAAAAAAAAAAAAAAIAIAAAAAAAAAA
AIIIAIAAAAAAAAAAAAAAAAAAAAAAAAAAAAAAAAAAAAAAAAAAAAAIAIAAAAAAAAAA
AIIIAIIAAAAAAAAAAAAAAAAAAAAAAAAAAAAAAAAAAAAAAAAAAAAIAIAAAAAAAAAA
AIIIAIIIAAAAAAAAAAAAAAAAAAAAAAAAAAAAAAAAAAAAAAAAAAAIAIAAAAAAAAAA
AIIIAIIIIAAAAAAAAAAAAAAAAAAAAAAAAAAAAAAAAAAAAAAAAAAIAIAAAAAAAAAA
AIIIAIIIIIAAAAAAAAAAAAAAAAAAAAAAAAAAAAAAAAAAAAAAAAAIAIAAAAAAAAAA
AIIIAIIIIIIAAAAAAAAAAAAAAAAAAAAAAAAAAAAAAAAAAAAAAAAIAIAAAAAAAAAA
AIIIAIIIIIIIAAAAAAAAAAAAAAAAAAAAAAAAAAAAAAAAAAAAAAAIAIAAAAAAAAAA
AIIIAIIIIIIIAIAAAAAAAAAAAAAAAAAAAAAAAAAAAAAAAAAAAAAIAIAAAAAAAAAA
AIIIAIIIIIIIAIIAAAAAAAAAAAAAAAAAAAAAAAAAAAAAAAAAAAAIAIAAAAAAAAAA
AIIIAIIIIIIIAIIIAAAAAAAAAAAAAAAAAAAAAAAAAAAAAAAAAAAIAIAAAAAAAAAA
AIIIAIIIIIIIAIIIIAAAAAAAAAAAAAAAAAAAAAAAAAAAAAAAAAAIAIAAAAAAAAAA
AIIIAIIIIIIIAIIIIIAAAAAAAAAAAAAAAAAAAAAAAAAAAAAAAAAIAIAAAAAAAAAA
AIIIAIIIIIIIAIIIIIIAAAAAAAAAAAAAAAAAAAAAAAAAAAAAAAAIAIAAAAAAAAAA
AIIIAIIIIIIIAIIIIIIIAAAAAAAAAAAAAAAAAAAAAAAAAAAAAAAIAIAAAAAAAAAA
AIIIAIIIIIIIIIIIIIIIAAAAAAAAAAAAAAAAAAAAAAAAAAAAAAAIAIAAAAAAAAAA
AIIIAIIIIIIIIIIIIIIIIAAAAAAAAAAAAAAAAAAAAAAAAAAAAAAIAIAAAAAAAAAA
AIIIAIIIIIIIIIIIIIIIIAAAAAAAAAAAAAIAAAAAAAAAAAAAAAAIAIAAAAAAAAAA
AIIIAIIIIIIIIIIIIIIIIAAAAAAAAAAAAAIIAAAAAAAAAAAAAAAIAIAAAAAAAAAA
AIIIAIIIIIIIIIIIIIIIIAAAAAAAAAAAAAIIIAAAAAAAAAAAAAAIAIAAAAAAAAAA
AIIIAIIIIIIIIIIIIIIIIAAAAAAAAAAAAAIIIIAAAAAAAAAAAAAIAIAAAAAAAAAA
AIIIAIIIIIIIIIIIIIIIIAAAAAAAAAAAAAIIIIAAIAAAAAAAAAAIAIAAAAAAAAAA
AIIIAIIIIIIIIIIIIIIIIAAAAAAAAAAAAAIIIIAAIIAAAAAAAAAIAIAAAAAAAAAA
AIIIAIIIIIIIIIIIIIIIIAAAAAAAAAAAAAIIIIAAIIIAAAAAAAAIAIAAAAAAAAAA
AIIIAIIIIIIIIIIIIIIIIAAAAAAAAAAAAAIIIIAAIIIIAAAAAAAIAIAAAAAAAAAA
AIIIAIIIIIIIIIIIIIIIIAAAAAAAAAAAAAIIIIAAIIIIIAAAAAAIAIAAAAAAAAAA
AIIIAIIIIIIIIIIIIIIIIAAAAAAAAAAAAAIIIIAAIIIIIIAAAAAIAIAAAAAAAAAA
AIIIAIIIIIIIIIIIIIIIIAAAAAAAAAAAAAIIIIAAIIIIIIIAAAAIAIAAAAAAAAAA
AIIIAIIIIIIIIIIIIIIIIAAAAAAAAAAAAAIIIIAAIIIIIIIIAAAIAIAAAAAAAAAA
AIIIAIIIIIIIIIIIIIIIIAAAAAAAAAAAAAIIIIAAIIIIIIIIIAAIAIAAAAAAAAAA
AIIIAIIIIIIIIIIIIIIIIAAAAAAAAAAAAAIIIIAAIIIIIIIIIIAIAIAAAAAAAAAA
AIIIAIIIIIIIIIIIIIIIIAAAAAAAAAAAAAIIIIAAIIIIIIIIIIIIAIAAAAAAAAAA
AIIIAIIIIIIIIIIIIIIIIAAAAAAAAAAAAAIIIIAAIIIIIIIIIIIIIIAAAAAAAAAA
AIIIAIIIIIIIIIIIIIIIIAAAAAAAAAAAAAIIIIAAIIIIIIIIIIIIIIIAAAAAAAAA
AIIIAIIIIIIIIIIIIIIIIAAAAAAAAAAAAAIIIIAAIIIIIIIIIIIIIIIIAAAAAAAA
AIIIAIIIIIIIIIIIIIIIIAAAAAAAAAAAAAIIIIAAIIIIIIIIIIIIIIIIAIAAAAAA
AIIIAIIIIIIIIIIIIIIIIAAAAAAAAAAAAAIIIIAAIIIIIIIIIIIIIIIIAIIAAAAA
AIIIAIIIIIIIIIIIIIIIIAAAAAAAAAAAAAIIIIAAIIIIIIIIIIIIIIIIAIIIAAAA
AIIIAIIIIIIIIIIIIIIIIAAAAAAAAAAAAAIIIIAAIIIIIIIIIIIIIIIIAIIIIAAA
AIIIAIIIIIIIIIIIIIIIIAAAAAAAAAAAAAIIIIAAIIIIIIIIIIIIIIIIAIIIIIAA
AIIIAIIIIIIIIIIIIIIIIAAAAAAAAAAAAAIIIIAAIIIIIIIIIIIIIIIIAIIIIIIA
AIIIAIIIIIIIIIIIIIIIIAAAAAAAAAAAAAIIIIAAIIIIIIIIIIIIIIIIAIIIIIII
AIIIAIIIIIIIIIIIIIIIIAAAAAAAAAAAAAIIIIAAIIIIIIIIIIIIIIIIIIIIIIII
AIIIAIIIIIIIIIIIIIIIIAAAAAAAAAAAAAIIIIIAIIIIIIIIIIIIIIIIIIIIIIII
AIIIAIIIIIIIIIIIIIIIIAAAAAAAAAAAAAIIIIIIIIIIIIIIIIIIIIIIIIIIIIII
AIIIAIIIIIIIIIIIIIIIIIAAAAAAAAAAAAIIIIIIIIIIIIIIIIIIIIIIIIIIIIII
AIIIAIIIIIIIIIIIIIIIIIIAAAAAAAAAAAIIIIIIIIIIIIIIIIIIIIIIIIIIIIII
AIIIAIIIIIIIIIIIIIIIIIIIAAAAAAAAAAIIIIIIIIIIIIIIIIIIIIIIIIIIIIII
AIIIAIIIIIIIIIIIIIIIIIIIIAAAAAAAAAIIIIIIIIIIIIIIIIIIIIIIIIIIIIII
AIIIAIIIIIIIIIIIIIIIIIIIIIAAAAAAAAIIIIIIIIIIIIIIIIIIIIIIIIIIIIII
AIIIAIIIIIIIIIIIIIIIIIIIIIIAAAAAAAIIIIIIIIIIIIIIIIIIIIIIIIIIIIII
AIIIAIIIIIIIIIIIIIIIIIIIIIIIAAAAAAIIIIIIIIIIIIIIIIIIIIIIIIIIIIII
AIIIAIIIIIIIIIIIIIIIIIIIIIIIIAAAAAIIIIIIIIIIIIIIIIIIIIIIIIIIIIII
AIIIAIIIIIIIIIIIIIIIIIIIIIIIIIAAAAIIIIIIIIIIIIIIIIIIIIIIIIIIIIII
AIIIAIIIIIIIIIIIIIIIIIIIIIIIIIIAAAIIIIIIIIIIIIIIIIIIIIIIIIIIIIII
AIIIAIIIIIIIIIIIIIIIIIIIIIIIIIIIAAIIIIIIIIIIIIIIIIIIIIIIIIIIIIII
AIIIAIIIIIIIIIIIIIIIIIIIIIIIIIIIIAIIIIIIIIIIIIIIIIIIIIIIIIIIIIII
AIIIAIIIIIIIIIIIIIIIIIIIIIIIIIIIIIIIIIIIIIIIIIIIIIIIIIIIIIIIIIII
[MLOP] Prefetch Degree Mean: 15.99915
[MLOP] Prefetch Degree SD: 0.02915
[MLOP] Max Score Left Mean (%): 72.35367
[MLOP] Max Score Left SD (%): 2.38349
[MLOP] Max Score Right Mean (%): 99.19679
[MLOP] Max Score Right SD (%): 0.36761

Channel_0_RQ_row_buffer_hit 3534476
Channel_0_RQ_row_buffer_miss 198812
Channel_0_WQ_row_buffer_hit 384
Channel_0_WQ_row_buffer_miss 5246
Channel_0_WQ_full 0
Channel_0_dbus_congested 1357860

avg_congested_cycle 11

DRAM_bw_pochs 569231
DRAM_bw_level_0 80449
DRAM_bw_level_1 76805
DRAM_bw_level_2 127465
DRAM_bw_level_3 284512
