*************************************************
   ChampSim Multicore Out-of-Order Simulator
   Last compiled: Apr  3 2025 20:54:34
*************************************************
parsing config file: /home/zir/Pythia/config/pythia.ini

trace_0 /home/zir/ChampSim/ML-DPC/ChampSimTraces/spec06/459.GemsFDTD-s1.trace.gz
adding L2C_PREFETCHER: Scooby
Initialize SHIP state
warmup_instructions 10000000
simulation_instructions 50000000
champsim_seed 164
measure_ipc 0
measure_ipc_epoch 1000
measure_dram_bw 1
measure_dram_bw_epoch 256
measure_cache_acc 1
measure_cache_acc_epoch 1024
l1d_perfect 0
l2c_perfect 0
llc_perfect 0
l1d_semi_perfect 0
l2c_semi_perfect 0
llc_semi_perfect 0
semi_perfect_cache_page_buffer_size 64

num_cpus 1
cpu_freq 4000
dram_io_freq 2400
page_size 4096
block_size 64
max_read_per_cycle 8
max_fill_per_cycle 1
dram_channels 1
log2_dram_channels 0
dram_ranks 1
dram_banks 8
dram_rows 65536
dram_columns 128
dram_row_size 8
dram_size 4096
dram_pages 1048576

fetch_width 6
decode_width 6
exec_width 4
lq_width 2
sq_width 2
retire_width 4
scheduler_size 128
branch_mispredict_penalty 20
rob_size 256
lq_size 72
sq_size 56
num_instr_destinations_sparc 4
num_instr_destinations 2
num_instr_sources 4

itlb_set 16
itlb_way 8
itlb_rq_size 16
itlb_wq_size 16
itlb_pq_size 0
itlb_mshr_size 8
itlb_latency 1

dtlb_set 16
dtlb_way 4
dtlb_rq_size 16
dtlb_wq_size 16
dtlb_pq_size 0
dtlb_mshr_size 8
dtlb_latency 1

stlb_set 128
stlb_way 12
stlb_rq_size 32
stlb_wq_size 32
stlb_pq_size 0
stlb_mshr_size 16
stlb_latency 8

l1i_size 32
l1i_set 64
l1i_way 8
l1i_rq_size 64
l1i_wq_size 64
l1i_pq_size 8
l1i_mshr_size 8
l1i_latency 1

l1d_size 32
l1d_set 64
l1d_way 8
l1d_rq_size 64
l1d_wq_size 64
l1d_pq_size 8
l1d_mshr_size 16
l1d_latency 4

l2c_size 256
l2c_set 512
l2c_way 8
l2c_rq_size 32
l2c_wq_size 32
l2c_pq_size 32
l2c_mshr_size 32
l2c_latency 10

llc_size 2048
llc_set 2048
llc_way 16
llc_rq_size 32
llc_wq_size 32
llc_pq_size 32
llc_mshr_size 64
llc_latency 20

dram_channel_width 8
dram_wq_size 64
dram_rq_size 64
tRP 15
tRCD 15
tCAS 12.5
dram_dbus_turn_around_time 30
dram_write_high_wm 56
dram_write_low_wm 48
min_dram_writes_per_switch 16
dram_mtps 2400
dram_dbus_return_time 13

scooby_alpha 0.0065088
scooby_gamma 0.556301
scooby_epsilon 0.00182284
scooby_state_num_bits 10
scooby_max_states 1024
scooby_seed 200
scooby_policy EGreedy
scooby_learning_type SARSA
scooby_actions 1,3,4,5,10,11,12,22,23,30,32,-1,-3,-6,0,
scooby_max_actions 15
scooby_pt_size 256
scooby_st_size 64
scooby_max_pcs 5
scooby_max_offsets 5
scooby_max_deltas 5
scooby_reward_none -4
scooby_reward_incorrect -8
scooby_reward_correct_untimely 12
scooby_reward_correct_timely 20
scooby_brain_zero_init 0
scooby_enable_reward_all 0
scooby_enable_track_multiple 0
scooby_enable_reward_out_of_bounds 1
scooby_reward_out_of_bounds -12
scooby_state_type 1
scooby_state_hash_type 11
scooby_access_debug 0
scooby_print_access_debug 0
scooby_print_access_debug_pc deadbeef
scooby_print_access_debug_pc_count 0
scooby_print_trace 0
scooby_enable_state_action_stats 1
scooby_enable_reward_tracker_hit 0
scooby_reward_tracker_hit -2
scooby_enable_featurewise_engine 1
scooby_pref_degree 1
scooby_enable_dyn_degree 1
scooby_max_to_avg_q_thresholds 0.5,1,2,
scooby_dyn_degrees 1,2,4,4,
scooby_multi_deg_select_type 2
scooby_last_pref_offset_conf_thresholds 1,3,8,
scooby_dyn_degrees_type2 1,2,4,6,
scooby_action_tracker_size 2
scooby_high_bw_thresh 4
scooby_enable_hbw_reward 1
scooby_reward_hbw_correct_timely 20
scooby_reward_hbw_correct_untimely 12
scooby_reward_hbw_incorrect -14
scooby_reward_hbw_none -2
scooby_reward_hbw_out_of_bounds -12
scooby_reward_hbw_tracker_hit -2
scooby_last_pref_offset_conf_thresholds_hbw 1,3,8,
scooby_dyn_degrees_type2_hbw 1,2,4,6,

le_enable_trace 0
le_trace_interval 0
le_trace_file_name 
le_trace_state 0
le_enable_score_plot 0
le_plot_file_name 
le_plot_actions 
le_enable_action_trace 0
le_action_trace_interval 0
le_action_trace_name 
le_enable_action_plot 0

le_featurewise_active_features PC, PC_Delta
le_featurewise_num_tilings 3,3,
le_featurewise_num_tiles 128,128,
le_featurewise_hash_types 2,2,
le_featurewise_enable_tiling_offset 1,1,
le_featurewise_max_q_thresh 0.5
le_featurewise_enable_action_fallback 1
le_featurewise_feature_weights 1,1,
le_featurewise_enable_dynamic_weight 0
le_featurewise_weight_gradient 0.001
le_featurewise_disable_adjust_weight_all_features_align 1
le_featurewise_selective_update 0
le_featurewise_pooling_type 2
le_featurewise_enable_dyn_action_fallback 1
le_featurewise_bw_acc_check_level 1
le_featurewise_acc_thresh 2
le_featurewise_enable_trace 0
le_featurewise_trace_feature_type 0
le_featurewise_trace_feature 
le_featurewise_trace_interval 0
le_featurewise_trace_record_count 0
le_featurewise_trace_file_name 
le_featurewise_enable_score_plot 0
le_featurewise_plot_actions 
le_featurewise_plot_file_name 


Heartbeat CPU  0 instructions:    1000001 cycles:     620147 heartbeat IPC: 1.61252 cumulative IPC: 1.61252 (Simulation time: 0 hr 0 min 3 sec) 
Heartbeat CPU  0 instructions:    2000001 cycles:    1239226 heartbeat IPC: 1.61530 cumulative IPC: 1.61391 (Simulation time: 0 hr 0 min 5 sec) 
Heartbeat CPU  0 instructions:    3000000 cycles:    1858877 heartbeat IPC: 1.61381 cumulative IPC: 1.61388 (Simulation time: 0 hr 0 min 8 sec) 
Heartbeat CPU  0 instructions:    4000000 cycles:    2478364 heartbeat IPC: 1.61424 cumulative IPC: 1.61397 (Simulation time: 0 hr 0 min 10 sec) 
Heartbeat CPU  0 instructions:    5000001 cycles:    3098069 heartbeat IPC: 1.61367 cumulative IPC: 1.61391 (Simulation time: 0 hr 0 min 13 sec) 
Heartbeat CPU  0 instructions:    6000001 cycles:    3717337 heartbeat IPC: 1.61481 cumulative IPC: 1.61406 (Simulation time: 0 hr 0 min 15 sec) 
Heartbeat CPU  0 instructions:    7000000 cycles:    4336640 heartbeat IPC: 1.61472 cumulative IPC: 1.61415 (Simulation time: 0 hr 0 min 17 sec) 
Heartbeat CPU  0 instructions:    8000000 cycles:    4955757 heartbeat IPC: 1.61520 cumulative IPC: 1.61428 (Simulation time: 0 hr 0 min 20 sec) 
Heartbeat CPU  0 instructions:    9000001 cycles:    5575463 heartbeat IPC: 1.61367 cumulative IPC: 1.61422 (Simulation time: 0 hr 0 min 22 sec) 
Heartbeat CPU  0 instructions:   10000002 cycles:    6194616 heartbeat IPC: 1.61511 cumulative IPC: 1.61431 (Simulation time: 0 hr 0 min 25 sec) 

Warmup complete CPU  0 instructions:   10000002 cycles:    6194616 (Simulation time: 0 hr 0 min 25 sec) 

Heartbeat CPU  0 instructions:   11000001 cycles:    7655153 heartbeat IPC: 0.68468 cumulative IPC: 0.68468 (Simulation time: 0 hr 0 min 28 sec) 
Heartbeat CPU  0 instructions:   12000000 cycles:    9116118 heartbeat IPC: 0.68448 cumulative IPC: 0.68458 (Simulation time: 0 hr 0 min 31 sec) 
Heartbeat CPU  0 instructions:   13000000 cycles:   10576263 heartbeat IPC: 0.68486 cumulative IPC: 0.68467 (Simulation time: 0 hr 0 min 34 sec) 
Heartbeat CPU  0 instructions:   14000003 cycles:   12058633 heartbeat IPC: 0.67460 cumulative IPC: 0.68213 (Simulation time: 0 hr 0 min 37 sec) 
Heartbeat CPU  0 instructions:   15000001 cycles:   13546948 heartbeat IPC: 0.67190 cumulative IPC: 0.68006 (Simulation time: 0 hr 0 min 40 sec) 
Heartbeat CPU  0 instructions:   16000000 cycles:   15020791 heartbeat IPC: 0.67850 cumulative IPC: 0.67980 (Simulation time: 0 hr 0 min 43 sec) 
Heartbeat CPU  0 instructions:   17000000 cycles:   16492033 heartbeat IPC: 0.67970 cumulative IPC: 0.67978 (Simulation time: 0 hr 0 min 46 sec) 
Heartbeat CPU  0 instructions:   18000002 cycles:   17970837 heartbeat IPC: 0.67622 cumulative IPC: 0.67934 (Simulation time: 0 hr 0 min 49 sec) 
Heartbeat CPU  0 instructions:   19000000 cycles:   19455094 heartbeat IPC: 0.67374 cumulative IPC: 0.67871 (Simulation time: 0 hr 0 min 52 sec) 
Heartbeat CPU  0 instructions:   20000000 cycles:   20923916 heartbeat IPC: 0.68082 cumulative IPC: 0.67892 (Simulation time: 0 hr 0 min 55 sec) 
Heartbeat CPU  0 instructions:   21000002 cycles:   22376561 heartbeat IPC: 0.68840 cumulative IPC: 0.67977 (Simulation time: 0 hr 0 min 58 sec) 
Heartbeat CPU  0 instructions:   22000002 cycles:   23837184 heartbeat IPC: 0.68464 cumulative IPC: 0.68017 (Simulation time: 0 hr 1 min 1 sec) 
Heartbeat CPU  0 instructions:   23000002 cycles:   25304360 heartbeat IPC: 0.68158 cumulative IPC: 0.68028 (Simulation time: 0 hr 1 min 4 sec) 
Heartbeat CPU  0 instructions:   24000000 cycles:   26768504 heartbeat IPC: 0.68299 cumulative IPC: 0.68047 (Simulation time: 0 hr 1 min 7 sec) 
Heartbeat CPU  0 instructions:   25000000 cycles:   28232050 heartbeat IPC: 0.68327 cumulative IPC: 0.68066 (Simulation time: 0 hr 1 min 10 sec) 
Heartbeat CPU  0 instructions:   26000002 cycles:   29697366 heartbeat IPC: 0.68245 cumulative IPC: 0.68077 (Simulation time: 0 hr 1 min 13 sec) 
Heartbeat CPU  0 instructions:   27000002 cycles:   31142358 heartbeat IPC: 0.69205 cumulative IPC: 0.68142 (Simulation time: 0 hr 1 min 16 sec) 
Heartbeat CPU  0 instructions:   28000000 cycles:   32638043 heartbeat IPC: 0.66859 cumulative IPC: 0.68070 (Simulation time: 0 hr 1 min 19 sec) 
Heartbeat CPU  0 instructions:   29000001 cycles:   34131400 heartbeat IPC: 0.66963 cumulative IPC: 0.68011 (Simulation time: 0 hr 1 min 22 sec) 
Heartbeat CPU  0 instructions:   30000003 cycles:   35624800 heartbeat IPC: 0.66961 cumulative IPC: 0.67957 (Simulation time: 0 hr 1 min 25 sec) 
Heartbeat CPU  0 instructions:   31000001 cycles:   37093769 heartbeat IPC: 0.68075 cumulative IPC: 0.67963 (Simulation time: 0 hr 1 min 28 sec) 
Heartbeat CPU  0 instructions:   32000000 cycles:   38576613 heartbeat IPC: 0.67438 cumulative IPC: 0.67939 (Simulation time: 0 hr 1 min 31 sec) 
Heartbeat CPU  0 instructions:   33000000 cycles:   40060622 heartbeat IPC: 0.67385 cumulative IPC: 0.67915 (Simulation time: 0 hr 1 min 34 sec) 
Heartbeat CPU  0 instructions:   34000002 cycles:   41534267 heartbeat IPC: 0.67859 cumulative IPC: 0.67912 (Simulation time: 0 hr 1 min 37 sec) 
Heartbeat CPU  0 instructions:   35000000 cycles:   43002335 heartbeat IPC: 0.68117 cumulative IPC: 0.67921 (Simulation time: 0 hr 1 min 40 sec) 
Heartbeat CPU  0 instructions:   36000000 cycles:   44486170 heartbeat IPC: 0.67393 cumulative IPC: 0.67900 (Simulation time: 0 hr 1 min 43 sec) 
Heartbeat CPU  0 instructions:   37000001 cycles:   45931652 heartbeat IPC: 0.69181 cumulative IPC: 0.67947 (Simulation time: 0 hr 1 min 46 sec) 
Heartbeat CPU  0 instructions:   38000002 cycles:   47408151 heartbeat IPC: 0.67728 cumulative IPC: 0.67939 (Simulation time: 0 hr 1 min 49 sec) 
Heartbeat CPU  0 instructions:   39000000 cycles:   48872944 heartbeat IPC: 0.68269 cumulative IPC: 0.67950 (Simulation time: 0 hr 1 min 52 sec) 
Heartbeat CPU  0 instructions:   40000000 cycles:   50345044 heartbeat IPC: 0.67930 cumulative IPC: 0.67950 (Simulation time: 0 hr 1 min 55 sec) 
Heartbeat CPU  0 instructions:   41000003 cycles:   51811400 heartbeat IPC: 0.68196 cumulative IPC: 0.67957 (Simulation time: 0 hr 1 min 58 sec) 
Heartbeat CPU  0 instructions:   42000000 cycles:   53290705 heartbeat IPC: 0.67599 cumulative IPC: 0.67946 (Simulation time: 0 hr 2 min 1 sec) 
Heartbeat CPU  0 instructions:   43000000 cycles:   54774775 heartbeat IPC: 0.67382 cumulative IPC: 0.67929 (Simulation time: 0 hr 2 min 4 sec) 
Heartbeat CPU  0 instructions:   44000000 cycles:   56242327 heartbeat IPC: 0.68141 cumulative IPC: 0.67935 (Simulation time: 0 hr 2 min 7 sec) 
Heartbeat CPU  0 instructions:   45000003 cycles:   57726373 heartbeat IPC: 0.67384 cumulative IPC: 0.67919 (Simulation time: 0 hr 2 min 10 sec) 
Heartbeat CPU  0 instructions:   46000002 cycles:   59198414 heartbeat IPC: 0.67933 cumulative IPC: 0.67920 (Simulation time: 0 hr 2 min 13 sec) 
Heartbeat CPU  0 instructions:   47000001 cycles:   60671617 heartbeat IPC: 0.67879 cumulative IPC: 0.67919 (Simulation time: 0 hr 2 min 16 sec) 
Heartbeat CPU  0 instructions:   48000000 cycles:   62141197 heartbeat IPC: 0.68047 cumulative IPC: 0.67922 (Simulation time: 0 hr 2 min 19 sec) 
Heartbeat CPU  0 instructions:   49000002 cycles:   63596973 heartbeat IPC: 0.68692 cumulative IPC: 0.67941 (Simulation time: 0 hr 2 min 22 sec) 
Heartbeat CPU  0 instructions:   50000001 cycles:   65059670 heartbeat IPC: 0.68367 cumulative IPC: 0.67952 (Simulation time: 0 hr 2 min 25 sec) 
Heartbeat CPU  0 instructions:   51000002 cycles:   66520212 heartbeat IPC: 0.68468 cumulative IPC: 0.67965 (Simulation time: 0 hr 2 min 28 sec) 
Heartbeat CPU  0 instructions:   52000000 cycles:   67965908 heartbeat IPC: 0.69171 cumulative IPC: 0.67993 (Simulation time: 0 hr 2 min 31 sec) 
Heartbeat CPU  0 instructions:   53000000 cycles:   69424110 heartbeat IPC: 0.68578 cumulative IPC: 0.68006 (Simulation time: 0 hr 2 min 34 sec) 
Heartbeat CPU  0 instructions:   54000000 cycles:   70885407 heartbeat IPC: 0.68432 cumulative IPC: 0.68016 (Simulation time: 0 hr 2 min 37 sec) 
Heartbeat CPU  0 instructions:   55000000 cycles:   72354282 heartbeat IPC: 0.68079 cumulative IPC: 0.68017 (Simulation time: 0 hr 2 min 40 sec) 
Heartbeat CPU  0 instructions:   56000000 cycles:   73835444 heartbeat IPC: 0.67515 cumulative IPC: 0.68006 (Simulation time: 0 hr 2 min 43 sec) 
Heartbeat CPU  0 instructions:   57000000 cycles:   75315816 heartbeat IPC: 0.67551 cumulative IPC: 0.67997 (Simulation time: 0 hr 2 min 46 sec) 
Heartbeat CPU  0 instructions:   58000002 cycles:   76779247 heartbeat IPC: 0.68333 cumulative IPC: 0.68003 (Simulation time: 0 hr 2 min 49 sec) 
Heartbeat CPU  0 instructions:   59000002 cycles:   78263300 heartbeat IPC: 0.67383 cumulative IPC: 0.67991 (Simulation time: 0 hr 2 min 52 sec) 
Heartbeat CPU  0 instructions:   60000000 cycles:   79737547 heartbeat IPC: 0.67831 cumulative IPC: 0.67987 (Simulation time: 0 hr 2 min 55 sec) 
Finished CPU 0 instructions: 50000001 cycles: 73542949 cumulative IPC: 0.67987 (Simulation time: 0 hr 2 min 55 sec) 

ChampSim completed all CPUs

[ROI Statistics]
Core_0_instructions 50000001
Core_0_cycles 73542949
Core_0_IPC 0.67987

Core_0_branch_prediction_accuracy 98.19283
Core_0_branch_MPKI 0.35540
Core_0_average_ROB_occupancy_at_mispredict 146.82791

Core_0_L1D_total_access 17431766
Core_0_L1D_total_hit 15509554
Core_0_L1D_total_miss 1922212
Core_0_L1D_loads 12655796
Core_0_L1D_load_hit 10733588
Core_0_L1D_load_miss 1922208
Core_0_L1D_RFOs 4775970
Core_0_L1D_RFO_hit 4775966
Core_0_L1D_RFO_miss 4
Core_0_L1D_prefetches 0
Core_0_L1D_prefetch_hit 0
Core_0_L1D_prefetch_miss 0
Core_0_L1D_writebacks 0
Core_0_L1D_writeback_hit 0
Core_0_L1D_writeback_miss 0
Core_0_L1D_prefetch_requested 0
Core_0_L1D_prefetch_dropped 0
Core_0_L1D_prefetch_issued 0
Core_0_L1D_prefetch_filled 0
Core_0_L1D_prefetch_useful 0
Core_0_L1D_prefetch_useless 0
Core_0_L1D_prefetch_late 0
Core_0_L1D_average_miss_latency 45.36387

Core_0_L1D_rq_access 22453354
Core_0_L1D_rq_forward 0
Core_0_L1D_rq_merged 8848057
Core_0_L1D_rq_to_cache 13605297
Core_0_L1D_rq_full 0

Core_0_L1D_wq_access 4792472
Core_0_L1D_wq_forward 0
Core_0_L1D_wq_merged 16484
Core_0_L1D_wq_to_cache 4775988
Core_0_L1D_wq_full 0

Core_0_L1D_pq_access 0
Core_0_L1D_pq_forward 0
Core_0_L1D_pq_merged 0
Core_0_L1D_pq_to_cache 0
Core_0_L1D_pq_full 0

Core_0_L1D_acc_epochs 75489
Core_0_L1D_acc_level_0 75489
Core_0_L1D_acc_level_1 0
Core_0_L1D_acc_level_2 0
Core_0_L1D_acc_level_3 0
Core_0_L1D_acc_level_4 0
Core_0_L1D_acc_level_5 0
Core_0_L1D_acc_level_6 0
Core_0_L1D_acc_level_7 0
Core_0_L1D_acc_level_8 0
Core_0_L1D_acc_level_9 0

Core_0_L1I_total_access 11254680
Core_0_L1I_total_hit 11254680
Core_0_L1I_total_miss 0
Core_0_L1I_loads 11254680
Core_0_L1I_load_hit 11254680
Core_0_L1I_load_miss 0
Core_0_L1I_RFOs 0
Core_0_L1I_RFO_hit 0
Core_0_L1I_RFO_miss 0
Core_0_L1I_prefetches 0
Core_0_L1I_prefetch_hit 0
Core_0_L1I_prefetch_miss 0
Core_0_L1I_writebacks 0
Core_0_L1I_writeback_hit 0
Core_0_L1I_writeback_miss 0
Core_0_L1I_prefetch_requested 0
Core_0_L1I_prefetch_dropped 0
Core_0_L1I_prefetch_issued 0
Core_0_L1I_prefetch_filled 0
Core_0_L1I_prefetch_useful 0
Core_0_L1I_prefetch_useless 0
Core_0_L1I_prefetch_late 0
Core_0_L1I_average_miss_latency -nan

Core_0_L1I_rq_access 50000006
Core_0_L1I_rq_forward 0
Core_0_L1I_rq_merged 38745326
Core_0_L1I_rq_to_cache 11254680
Core_0_L1I_rq_full 0

Core_0_L1I_wq_access 0
Core_0_L1I_wq_forward 0
Core_0_L1I_wq_merged 0
Core_0_L1I_wq_to_cache 0
Core_0_L1I_wq_full 0

Core_0_L1I_pq_access 0
Core_0_L1I_pq_forward 0
Core_0_L1I_pq_merged 0
Core_0_L1I_pq_to_cache 0
Core_0_L1I_pq_full 0

Core_0_L1I_acc_epochs 75489
Core_0_L1I_acc_level_0 75489
Core_0_L1I_acc_level_1 0
Core_0_L1I_acc_level_2 0
Core_0_L1I_acc_level_3 0
Core_0_L1I_acc_level_4 0
Core_0_L1I_acc_level_5 0
Core_0_L1I_acc_level_6 0
Core_0_L1I_acc_level_7 0
Core_0_L1I_acc_level_8 0
Core_0_L1I_acc_level_9 0

Core_0_L2C_total_access 8906427
Core_0_L2C_total_hit 6835708
Core_0_L2C_total_miss 2070719
Core_0_L2C_loads 1922200
Core_0_L2C_load_hit 1728128
Core_0_L2C_load_miss 194072
Core_0_L2C_RFOs 4
Core_0_L2C_RFO_hit 4
Core_0_L2C_RFO_miss 0
Core_0_L2C_prefetches 6262767
Core_0_L2C_prefetch_hit 4386233
Core_0_L2C_prefetch_miss 1876534
Core_0_L2C_writebacks 721456
Core_0_L2C_writeback_hit 721343
Core_0_L2C_writeback_miss 113
Core_0_L2C_prefetch_requested 11732735
Core_0_L2C_prefetch_dropped 326404
Core_0_L2C_prefetch_issued 11406331
Core_0_L2C_prefetch_filled 2282814
Core_0_L2C_prefetch_useful 2096820
Core_0_L2C_prefetch_useless 185675
Core_0_L2C_prefetch_late 153737
Core_0_L2C_average_miss_latency 582.97785

Core_0_L2C_rq_access 1922212
Core_0_L2C_rq_forward 0
Core_0_L2C_rq_merged 0
Core_0_L2C_rq_to_cache 1922204
Core_0_L2C_rq_full 0

Core_0_L2C_wq_access 721456
Core_0_L2C_wq_forward 8
Core_0_L2C_wq_merged 0
Core_0_L2C_wq_to_cache 721456
Core_0_L2C_wq_full 0

Core_0_L2C_pq_access 11406331
Core_0_L2C_pq_forward 0
Core_0_L2C_pq_merged 81112
Core_0_L2C_pq_to_cache 11325219
Core_0_L2C_pq_full 0

Core_0_L2C_acc_epochs 75489
Core_0_L2C_acc_level_0 1
Core_0_L2C_acc_level_1 0
Core_0_L2C_acc_level_2 7
Core_0_L2C_acc_level_3 143
Core_0_L2C_acc_level_4 702
Core_0_L2C_acc_level_5 2131
Core_0_L2C_acc_level_6 4445
Core_0_L2C_acc_level_7 7797
Core_0_L2C_acc_level_8 13524
Core_0_L2C_acc_level_9 46739

Core_0_LLC_total_access 2788246
Core_0_LLC_total_hit 7836
Core_0_LLC_total_miss 2780410
Core_0_LLC_loads 40349
Core_0_LLC_load_hit 95
Core_0_LLC_load_miss 40254
Core_0_LLC_RFOs 0
Core_0_LLC_RFO_hit 0
Core_0_LLC_RFO_miss 0
Core_0_LLC_prefetches 2030257
Core_0_LLC_prefetch_hit 590
Core_0_LLC_prefetch_miss 2029667
Core_0_LLC_writebacks 717640
Core_0_LLC_writeback_hit 7151
Core_0_LLC_writeback_miss 710489
Core_0_LLC_prefetch_requested 0
Core_0_LLC_prefetch_dropped 0
Core_0_LLC_prefetch_issued 0
Core_0_LLC_prefetch_filled 2430332
Core_0_LLC_prefetch_useful 14
Core_0_LLC_prefetch_useless 2428677
Core_0_LLC_prefetch_late 0
Core_0_LLC_average_miss_latency 441.72534

Core_0_LLC_rq_access 40349
Core_0_LLC_rq_forward 0
Core_0_LLC_rq_merged 0
Core_0_LLC_rq_to_cache 40349
Core_0_LLC_rq_full 0

Core_0_LLC_wq_access 717640
Core_0_LLC_wq_forward 0
Core_0_LLC_wq_merged 0
Core_0_LLC_wq_to_cache 717640
Core_0_LLC_wq_full 0

Core_0_LLC_pq_access 2436567
Core_0_LLC_pq_forward 0
Core_0_LLC_pq_merged 0
Core_0_LLC_pq_to_cache 2436567
Core_0_LLC_pq_full 0

Core_0_LLC_acc_epochs 77869
Core_0_LLC_acc_level_0 77869
Core_0_LLC_acc_level_1 0
Core_0_LLC_acc_level_2 0
Core_0_LLC_acc_level_3 0
Core_0_LLC_acc_level_4 0
Core_0_LLC_acc_level_5 0
Core_0_LLC_acc_level_6 0
Core_0_LLC_acc_level_7 0
Core_0_LLC_acc_level_8 0
Core_0_LLC_acc_level_9 0

Core_0_major_page_fault 0
Core_0_minor_page_fault 29749

scooby_st_lookup 2306702
scooby_st_hit 2267246
scooby_st_evict 39392
scooby_st_insert 39456
scooby_st_streaming 0

scooby_predict_called 2306702
scooby_predict_out_of_bounds 36604
scooby_predict_action_1 2265710
scooby_predict_issue_action_1 2263766
scooby_predict_hit_action_1 1944
scooby_predict_out_of_bounds_action_1 35871
scooby_predict_action_3 827
scooby_predict_issue_action_3 291
scooby_predict_hit_action_3 536
scooby_predict_out_of_bounds_action_3 13
scooby_predict_action_4 271
scooby_predict_issue_action_4 271
scooby_predict_hit_action_4 0
scooby_predict_out_of_bounds_action_4 25
scooby_predict_action_5 753
scooby_predict_issue_action_5 753
scooby_predict_hit_action_5 0
scooby_predict_out_of_bounds_action_5 26
scooby_predict_action_10 260
scooby_predict_issue_action_10 260
scooby_predict_hit_action_10 0
scooby_predict_out_of_bounds_action_10 58
scooby_predict_action_11 237
scooby_predict_issue_action_11 236
scooby_predict_hit_action_11 1
scooby_predict_out_of_bounds_action_11 46
scooby_predict_action_12 216
scooby_predict_issue_action_12 216
scooby_predict_hit_action_12 0
scooby_predict_out_of_bounds_action_12 65
scooby_predict_action_22 172
scooby_predict_issue_action_22 171
scooby_predict_hit_action_22 1
scooby_predict_out_of_bounds_action_22 108
scooby_predict_action_23 185
scooby_predict_issue_action_23 185
scooby_predict_hit_action_23 0
scooby_predict_out_of_bounds_action_23 100
scooby_predict_action_30 154
scooby_predict_issue_action_30 154
scooby_predict_hit_action_30 0
scooby_predict_out_of_bounds_action_30 122
scooby_predict_action_32 109
scooby_predict_issue_action_32 109
scooby_predict_hit_action_32 0
scooby_predict_out_of_bounds_action_32 130
scooby_predict_action_-1 398
scooby_predict_issue_action_-1 110
scooby_predict_hit_action_-1 288
scooby_predict_out_of_bounds_action_-1 7
scooby_predict_action_-3 272
scooby_predict_issue_action_-3 33
scooby_predict_hit_action_-3 239
scooby_predict_out_of_bounds_action_-3 14
scooby_predict_action_-6 244
scooby_predict_issue_action_-6 23
scooby_predict_hit_action_-6 221
scooby_predict_out_of_bounds_action_-6 19
scooby_predict_action_0 290
scooby_predict_issue_action_0 0
scooby_predict_hit_action_0 0
scooby_predict_out_of_bounds_action_0 0
scooby_predict_multi_deg_called 2145552
scooby_predict_predicted 11732735
scooby_predict_multi_deg 9466157
scooby_predict_multi_deg_2 2109754
scooby_predict_multi_deg_3 1993699
scooby_predict_multi_deg_4 1956419
scooby_predict_multi_deg_5 1721007
scooby_predict_multi_deg_6 1685278
scooby_predict_multi_deg_7 0
scooby_predict_multi_deg_8 0
scooby_predict_multi_deg_9 0
scooby_predict_multi_deg_10 0
scooby_predict_multi_deg_11 0
scooby_predict_multi_deg_12 0
scooby_predict_multi_deg_13 0
scooby_predict_multi_deg_14 0
scooby_predict_multi_deg_15 0
scooby_predict_multi_deg_16 0

scooby_selected_deg_1 121026
scooby_selected_deg_2 78968
scooby_selected_deg_3 0
scooby_selected_deg_4 202603
scooby_selected_deg_5 0
scooby_selected_deg_6 1863981
scooby_selected_deg_7 0
scooby_selected_deg_8 0
scooby_selected_deg_9 0
scooby_selected_deg_10 0
scooby_selected_deg_11 0
scooby_selected_deg_12 0
scooby_selected_deg_13 0
scooby_selected_deg_14 0
scooby_selected_deg_15 0
scooby_selected_deg_16 0

scooby_state_47e143|0|0 4411,1,0,1,0,0,0,0,0,0,1,0,0,0,0,4414,
scooby_state_47e18b|0|0 4384,0,3,0,0,0,0,1,1,2,1,0,1,0,0,4393,
scooby_state_47e103|0|0 4373,1,0,0,1,0,0,0,1,0,1,1,1,0,0,4379,
scooby_state_47e103|3|1 4297,0,0,1,0,0,2,0,0,0,0,0,0,0,1,4301,
scooby_state_47e103|4|1 4291,0,0,1,0,1,0,2,0,1,0,1,1,1,1,4300,
scooby_state_47e103|49|1 4288,0,2,2,1,0,0,2,2,0,1,0,1,0,1,4300,
scooby_state_47e103|33|1 4291,1,0,0,1,0,2,0,0,1,1,0,1,0,1,4299,
scooby_state_47e103|5|1 4295,0,0,0,2,0,0,0,0,0,0,0,0,0,2,4299,
scooby_state_47e103|32|1 4291,2,0,0,0,0,1,1,1,1,0,0,0,0,1,4298,
scooby_state_47e103|7|1 4291,0,1,0,2,0,0,2,0,0,1,0,1,0,0,4298,
scooby_state_47e103|6|1 4293,0,0,0,0,0,0,1,1,1,0,0,1,0,1,4298,
scooby_state_47e103|8|1 4292,0,1,0,0,0,0,0,2,1,0,0,0,0,2,4298,
scooby_state_47e103|13|1 4295,0,0,0,1,1,0,0,0,0,0,0,1,0,0,4298,
scooby_state_47e103|31|1 4291,0,1,0,0,0,0,2,0,0,1,0,0,1,2,4298,
scooby_state_47e103|21|1 4290,1,0,1,0,2,1,0,0,0,0,1,1,1,0,4298,
scooby_state_47e103|12|1 4291,1,2,0,0,0,0,0,1,1,0,0,1,0,0,4297,
scooby_state_47e103|38|1 4292,0,2,0,0,0,0,0,1,0,1,0,1,0,0,4297,
scooby_state_47e103|51|1 4293,1,1,0,0,0,0,0,0,0,0,0,1,0,1,4297,
scooby_state_47e103|11|1 4288,0,1,1,0,2,1,0,0,0,0,3,0,0,1,4297,
scooby_state_47e103|48|1 4285,2,1,0,0,1,1,1,0,3,0,1,0,0,2,4297,
scooby_state_47e103|9|1 4290,0,0,1,0,0,1,1,0,2,0,0,0,0,2,4297,
scooby_state_47e103|24|1 4288,0,1,0,1,0,2,0,0,1,0,0,1,2,1,4297,
scooby_state_47e103|28|1 4289,2,1,0,2,0,0,1,0,0,0,1,1,0,0,4297,
scooby_state_47e103|35|1 4287,0,2,0,2,0,1,0,1,0,1,0,0,3,0,4297,
scooby_state_47e103|15|1 4292,0,0,1,0,0,0,1,0,0,1,0,0,1,1,4297,
scooby_state_47e103|10|1 4288,0,1,2,1,1,1,0,0,0,0,1,0,1,1,4297,
scooby_state_47e103|34|1 4290,0,0,1,0,0,0,0,1,0,1,1,0,1,2,4297,
scooby_state_47e103|58|1 4289,0,0,1,1,0,0,0,1,1,0,1,0,1,2,4297,
scooby_state_47e103|43|1 4290,1,0,0,0,0,1,0,0,3,2,0,0,0,0,4297,
scooby_state_47e103|14|1 4293,1,1,0,0,1,0,0,0,0,0,0,0,0,1,4297,
scooby_state_47e103|44|1 4292,1,0,2,0,0,1,0,0,0,0,0,0,0,1,4297,
scooby_state_47e103|40|1 4286,1,1,0,1,0,0,0,0,1,1,0,3,0,3,4297,
scooby_state_47e103|1|1 4290,2,0,0,1,1,0,0,2,0,0,0,0,0,1,4297,
scooby_state_47e103|46|1 4291,0,0,1,0,1,0,1,0,0,0,2,0,0,1,4297,
scooby_state_47e103|59|1 4287,0,3,0,0,0,2,1,0,1,0,0,0,1,1,4296,
scooby_state_47e103|30|1 4289,1,0,2,1,1,0,0,0,0,0,0,1,0,1,4296,
scooby_state_47e103|36|1 4289,0,0,0,2,1,0,0,4,0,0,0,0,0,0,4296,
scooby_state_47e103|52|1 4291,0,0,0,1,0,0,1,1,0,0,1,1,0,0,4296,
scooby_state_47e103|50|1 4288,0,0,0,0,1,0,0,1,1,0,3,1,0,1,4296,
scooby_state_47e18b|5|1 4295,0,0,0,0,1,0,0,0,0,0,0,0,0,0,4296,
scooby_state_47e103|2|1 4293,1,1,0,0,0,1,0,0,0,0,0,0,0,0,4296,
scooby_state_47e103|47|1 4290,0,0,0,0,1,1,1,0,0,0,0,1,0,2,4296,
scooby_state_47e103|37|1 4289,0,1,0,2,0,0,0,1,0,0,0,0,0,3,4296,
scooby_state_47e103|27|1 4293,0,0,0,0,0,0,0,1,0,0,0,0,1,1,4296,
scooby_state_47e103|17|1 4290,0,0,0,2,1,0,0,0,0,1,0,0,1,1,4296,
scooby_state_47e103|42|1 4290,0,0,1,0,1,0,0,0,2,2,0,0,0,0,4296,
scooby_state_47e103|26|1 4280,0,2,1,4,0,0,2,0,1,0,1,2,0,3,4296,
scooby_state_47e103|22|1 4290,1,1,0,0,1,0,0,1,0,1,0,0,1,0,4296,
scooby_state_47e103|16|1 4284,1,0,1,0,2,1,1,0,1,0,2,0,1,1,4295,
scooby_state_47e103|54|1 4287,3,1,1,0,0,1,0,1,0,0,0,0,0,1,4295,
scooby_state_47e103|25|1 4287,1,2,1,0,1,1,0,2,0,0,0,0,0,0,4295,
scooby_state_47e18b|4|1 4287,0,1,0,2,0,0,0,1,0,0,1,1,1,1,4295,
scooby_state_47e103|29|1 4290,1,1,1,0,0,0,1,0,0,0,0,1,0,0,4295,
scooby_state_47e18b|6|1 4291,0,0,0,3,0,0,0,0,0,1,0,0,0,0,4295,
scooby_state_47e103|53|1 4290,0,0,2,1,0,0,0,0,1,0,0,0,0,1,4295,
scooby_state_47e103|61|1 4289,0,0,0,0,2,0,0,1,1,0,0,1,1,0,4295,
scooby_state_47e103|60|1 4289,0,2,0,0,1,0,2,0,0,0,1,0,0,0,4295,
scooby_state_47e103|56|1 4291,0,1,0,1,1,0,1,0,0,0,0,0,0,0,4295,
scooby_state_47e103|39|1 4285,1,0,0,0,0,0,2,0,2,1,0,2,1,1,4295,
scooby_state_47e103|45|1 4288,1,0,0,0,1,0,1,0,0,1,1,0,0,2,4295,
scooby_state_47e103|23|1 4284,1,1,0,0,1,0,0,1,2,2,2,1,0,0,4295,
scooby_state_47e18b|1|1 4286,1,1,1,2,0,1,1,0,1,0,0,0,0,1,4295,
scooby_state_47e103|55|1 4283,1,1,1,2,0,0,2,0,0,1,1,0,1,1,4294,
scooby_state_47e18b|3|1 4291,0,0,0,1,0,0,0,0,0,0,2,0,0,0,4294,
scooby_state_47e18b|53|1 4284,1,0,0,0,1,0,0,4,0,0,2,0,2,0,4294,
scooby_state_47e103|20|1 4290,0,0,0,0,0,0,1,0,0,0,1,0,1,1,4294,
scooby_state_47e103|41|1 4286,2,0,0,1,0,0,0,2,1,0,1,0,0,0,4293,
scooby_state_47e18b|52|1 4283,1,0,1,0,1,1,2,1,0,1,0,0,0,2,4293,
scooby_state_47e103|57|1 4285,3,1,1,0,0,0,0,0,0,1,1,1,0,0,4293,
scooby_state_47e103|63|1 4286,0,1,0,1,0,0,1,1,0,0,1,2,0,0,4293,
scooby_state_47e103|62|1 4286,1,0,0,2,0,1,0,0,0,1,1,1,0,0,4293,
scooby_state_47e18b|15|1 4286,0,2,0,0,1,0,1,0,0,0,1,0,1,0,4292,
scooby_state_47e18b|44|1 4287,1,1,1,0,0,1,1,0,0,0,0,0,0,0,4292,
scooby_state_47e18b|24|1 4283,0,2,0,0,0,1,2,0,0,2,0,2,0,0,4292,
scooby_state_47e18b|7|1 4286,0,0,0,0,0,0,0,1,1,1,0,0,0,2,4291,
scooby_state_47e18b|23|1 4286,1,1,0,0,1,0,0,0,1,0,1,0,0,0,4291,
scooby_state_47e103|19|1 4288,0,0,1,0,0,0,0,1,1,0,0,0,0,0,4291,
scooby_state_47e18b|28|1 4286,1,0,0,0,0,0,0,0,1,0,1,0,2,0,4291,
scooby_state_47e18b|31|1 4286,0,0,0,0,1,0,0,0,0,1,1,1,1,0,4291,
scooby_state_47e103|18|1 4285,0,1,0,0,0,1,0,1,0,1,1,1,0,0,4291,
scooby_state_47e18b|43|1 4289,1,0,0,0,0,0,0,1,0,0,0,0,0,0,4291,
scooby_state_47e18b|12|1 4275,1,0,0,1,3,4,1,1,2,0,1,2,0,0,4291,
scooby_state_47e18b|49|1 4286,0,1,0,0,0,1,0,0,0,2,1,0,0,0,4291,
scooby_state_47e18b|13|1 4282,0,0,1,0,1,1,1,0,0,0,1,1,2,1,4291,
scooby_state_47e18b|17|1 4286,0,0,0,0,0,0,1,0,1,1,0,2,0,0,4291,
scooby_state_47e18b|56|1 4283,1,1,1,1,0,0,1,0,0,1,0,1,1,0,4291,
scooby_state_47e18b|51|1 4288,1,0,1,0,0,0,0,0,0,0,1,0,0,0,4291,
scooby_state_47e18b|14|1 4282,0,0,1,1,1,0,0,1,0,0,1,1,2,0,4290,
scooby_state_47e18b|32|1 4283,1,0,2,0,1,0,0,0,0,0,0,1,0,2,4290,
scooby_state_47e18b|54|1 4284,0,1,0,0,1,0,1,0,0,1,0,1,1,0,4290,
scooby_state_47e18b|8|1 4288,0,1,0,0,0,0,0,0,0,0,0,0,0,1,4290,
scooby_state_47e18b|16|1 4284,0,1,1,1,0,0,0,0,1,0,2,0,0,0,4290,
scooby_state_47e18b|33|1 4281,1,1,0,3,0,0,1,1,0,1,1,0,0,0,4290,
scooby_state_47e18b|27|1 4288,0,0,0,0,0,0,0,0,0,0,0,0,0,1,4289,
scooby_state_47e18b|26|1 4283,0,1,0,0,0,2,0,0,1,0,0,1,0,1,4289,
scooby_state_47e18b|42|1 4281,1,0,0,0,0,2,1,3,1,0,0,0,0,0,4289,
scooby_state_47e18b|38|1 4285,1,1,0,0,0,0,0,0,0,0,1,0,1,0,4289,
scooby_state_47e18b|50|1 4282,0,0,0,0,0,0,0,1,0,0,2,0,4,0,4289,
scooby_state_47e18b|25|1 4284,0,1,0,0,0,0,1,0,1,0,0,1,1,0,4289,
scooby_state_47e18b|2|1 4275,0,1,0,2,1,1,1,1,2,1,2,1,0,0,4288,
scooby_state_47e18b|45|1 4284,0,0,1,1,0,0,1,0,0,0,0,1,0,0,4288,
scooby_state_47e18b|11|1 4276,1,0,2,0,0,2,1,1,1,0,2,0,1,1,4288,
scooby_state_47e18b|30|1 4279,0,1,1,0,1,0,0,1,1,1,1,0,2,0,4288,
scooby_state_47e18b|58|1 4274,2,1,1,1,0,2,1,1,0,1,0,0,2,2,4288,
scooby_state_47e18b|29|1 4274,0,0,1,0,1,2,0,2,2,2,0,1,2,1,4288,
scooby_state_47e18b|22|1 4282,0,0,0,0,0,0,0,1,3,0,1,0,1,0,4288,
scooby_state_47e18b|55|1 4278,0,2,2,1,0,1,1,1,0,0,0,1,1,0,4288,
scooby_state_47e18b|9|1 4276,2,2,1,0,0,0,1,0,3,0,1,1,0,1,4288,
scooby_state_47e18b|40|1 4282,1,2,1,0,0,1,0,1,0,0,0,0,0,0,4288,
scooby_state_47e18b|20|1 4281,0,0,0,0,0,0,1,1,0,1,0,1,0,2,4287,
scooby_state_47e143|1|1 4285,0,0,0,0,1,0,0,0,0,0,1,0,0,0,4287,
scooby_state_47e18b|59|1 4279,0,0,0,0,0,1,0,1,2,0,1,1,2,0,4287,
scooby_state_47e18b|37|1 4279,1,0,0,2,0,1,1,0,0,1,0,0,0,2,4287,
scooby_state_47e18b|21|1 4279,2,0,0,0,1,0,1,1,1,0,1,1,0,0,4287,
scooby_state_47e18b|35|1 4281,0,0,1,1,0,1,0,0,0,0,1,1,1,0,4287,
scooby_state_47e18b|10|1 4278,2,0,0,2,1,1,1,0,0,1,0,0,1,0,4287,
scooby_state_47e18b|34|1 4284,0,0,0,0,0,0,0,0,0,0,1,1,1,0,4287,
scooby_state_47e18b|19|1 4275,1,1,1,0,0,0,2,1,0,0,0,0,3,2,4286,
scooby_state_47e18b|57|1 4278,1,0,1,1,0,0,0,1,0,0,0,1,0,3,4286,
scooby_state_47e18b|60|1 4278,0,2,0,0,2,2,0,1,0,0,1,0,0,0,4286,
scooby_state_47e18b|39|1 4278,0,0,2,0,0,0,1,2,1,0,0,0,1,0,4285,
scooby_state_47e18b|61|1 4276,1,0,0,2,1,0,0,0,1,1,0,3,0,0,4285,
scooby_state_47e18b|36|1 4277,1,0,0,2,0,0,1,0,0,1,2,1,0,0,4285,
scooby_state_47e18b|48|1 4275,1,0,2,0,1,1,0,1,0,0,1,0,0,2,4284,
scooby_state_47e18b|41|1 4280,0,0,1,1,0,1,0,0,0,0,0,0,1,0,4284,
scooby_state_47e18b|18|1 4275,1,1,0,0,2,0,0,1,1,0,0,3,0,0,4284,
scooby_state_47e18b|46|1 4276,1,1,0,1,0,0,1,1,0,2,1,0,0,0,4284,
scooby_state_47e18b|63|1 4275,0,1,1,0,1,1,0,1,1,0,1,0,0,1,4283,
scooby_state_47e18b|62|1 4276,1,2,0,0,0,2,1,0,0,0,0,1,0,0,4283,
scooby_state_47e18b|47|1 4273,1,1,0,1,1,1,1,0,0,0,0,0,1,1,4281,
scooby_state_47e143|40|1 4264,1,0,5,1,1,1,0,2,2,0,0,0,1,0,4278,
scooby_state_47e143|5|1 4269,1,1,0,1,0,1,1,0,0,1,1,0,1,1,4278,
scooby_state_47e143|12|1 4270,0,0,0,0,0,1,0,1,3,0,0,0,1,1,4277,
scooby_state_47e143|44|1 4269,1,0,0,1,1,0,1,2,0,1,0,0,0,1,4277,
scooby_state_47e143|3|1 4269,0,0,0,1,1,0,1,1,1,1,1,0,0,1,4277,
scooby_state_47e143|49|1 4269,0,0,0,1,2,1,0,1,0,1,0,1,1,0,4277,
scooby_state_47e143|30|1 4269,0,0,1,0,1,0,2,1,1,2,0,0,0,0,4277,
scooby_state_47e143|24|1 4264,0,0,0,1,3,1,0,0,0,1,3,1,1,2,4277,
scooby_state_47e143|42|1 4265,1,1,2,1,0,1,0,1,1,1,0,1,2,0,4277,
scooby_state_47e143|33|1 4270,2,0,1,1,0,0,0,0,1,0,1,1,0,0,4277,
scooby_state_47e143|4|1 4268,0,1,3,0,1,0,0,0,1,0,1,1,1,0,4277,
scooby_state_47e143|25|1 4274,0,0,0,0,1,0,0,0,0,0,1,1,0,0,4277,
scooby_state_47e143|11|1 4263,0,0,1,1,0,0,1,0,3,2,1,2,3,0,4277,
scooby_state_47e143|26|1 4271,2,0,0,1,1,1,0,0,0,0,0,0,1,0,4277,
scooby_state_47e143|29|1 4269,0,1,1,0,0,1,0,0,1,0,1,1,1,0,4276,
scooby_state_47e143|6|1 4267,2,2,0,0,0,0,0,1,1,0,2,0,1,0,4276,
scooby_state_47e143|8|1 4268,2,1,0,1,0,1,0,0,1,1,1,0,0,0,4276,
scooby_state_47e143|46|1 4268,1,1,0,0,1,0,2,1,0,1,1,0,0,0,4276,
scooby_state_47e143|45|1 4270,1,1,0,0,1,0,0,0,1,1,1,0,0,0,4276,
scooby_state_47e143|31|1 4271,0,0,0,2,0,0,1,0,1,0,0,0,1,0,4276,
scooby_state_47e143|53|1 4270,1,2,0,0,1,1,0,0,0,0,0,1,0,0,4276,
scooby_state_47e143|51|1 4268,0,0,0,0,2,1,2,0,1,0,0,0,2,0,4276,
scooby_state_47e143|22|1 4271,0,2,1,0,0,0,1,0,0,0,0,0,1,0,4276,
scooby_state_47e143|7|1 4266,1,1,1,0,0,0,1,2,1,0,1,1,1,0,4276,
scooby_state_47e143|10|1 4267,2,1,1,2,0,0,0,2,0,1,0,0,0,0,4276,
scooby_state_47e143|41|1 4272,0,1,0,1,1,0,1,0,0,0,0,0,0,0,4276,
scooby_state_47e143|21|1 4269,0,1,0,1,0,2,1,0,2,0,0,0,0,0,4276,
scooby_state_47e143|52|1 4272,0,0,0,1,0,0,0,0,0,2,0,1,0,0,4276,
scooby_state_47e143|19|1 4270,0,1,0,0,0,2,0,0,0,1,0,0,1,0,4275,
scooby_state_47e143|32|1 4267,1,0,0,1,0,0,0,0,1,1,2,1,0,1,4275,
scooby_state_47e143|43|1 4269,0,1,2,0,0,1,0,0,0,1,0,0,0,1,4275,
scooby_state_47e143|27|1 4270,0,1,0,0,1,0,0,0,0,0,1,1,1,0,4275,
scooby_state_47e143|56|1 4269,0,0,0,2,0,0,0,1,0,0,0,1,0,2,4275,
scooby_state_47e143|9|1 4267,1,1,0,1,0,0,0,1,0,1,1,1,1,0,4275,
scooby_state_47e143|28|1 4266,1,0,0,1,2,0,2,1,1,0,1,0,0,0,4275,
scooby_state_47e143|34|1 4267,0,1,0,1,0,1,0,0,1,1,1,2,0,0,4275,
scooby_state_47e143|48|1 4267,0,0,1,0,1,1,0,1,0,1,1,1,1,0,4275,
scooby_state_47e143|13|1 4268,0,0,0,1,3,0,0,0,2,0,0,1,0,0,4275,
scooby_state_47e143|38|1 4267,0,1,0,0,1,0,0,1,0,2,0,0,3,0,4275,
scooby_state_47e143|23|1 4266,1,0,0,1,1,0,0,0,1,0,1,1,3,0,4275,
scooby_state_47e143|35|1 4266,0,1,1,1,1,0,1,2,0,1,0,1,0,0,4275,
scooby_state_47e143|37|1 4266,1,1,0,0,0,1,1,0,1,0,2,0,1,0,4274,
scooby_state_47e143|20|1 4263,0,0,1,3,1,0,0,2,0,0,0,1,1,2,4274,
scooby_state_47e143|47|1 4262,1,0,2,0,3,2,0,1,1,1,1,0,0,0,4274,
scooby_state_47e143|2|1 4262,0,0,0,2,2,1,0,0,2,0,2,2,1,0,4274,
scooby_state_47e143|36|1 4269,0,0,0,1,0,1,0,1,1,0,0,0,0,1,4274,
scooby_state_47e143|58|1 4264,2,0,1,0,1,1,0,1,2,0,0,1,1,0,4274,
scooby_state_47e143|54|1 4267,0,0,0,1,2,3,1,0,0,0,0,0,0,0,4274,
scooby_state_47e143|57|1 4267,0,0,1,0,0,1,0,2,0,0,1,0,2,0,4274,
scooby_state_47e143|61|1 4266,3,0,0,0,0,0,2,0,0,1,0,0,0,1,4273,
scooby_state_47e143|15|1 4266,1,0,0,1,0,0,0,1,1,1,0,1,0,1,4273,
scooby_state_47e143|17|1 4265,1,1,0,1,0,2,0,0,0,0,0,1,1,1,4273,
scooby_state_47e143|63|1 4269,0,1,0,0,0,0,0,0,0,0,0,0,2,1,4273,
scooby_state_47e143|50|1 4261,1,0,1,0,1,0,0,1,4,1,1,0,1,1,4273,
scooby_state_47e143|16|1 4268,0,1,0,1,0,1,1,1,0,0,0,0,0,0,4273,
scooby_state_47e143|39|1 4265,0,0,1,0,1,0,0,0,3,0,2,1,0,0,4273,
scooby_state_47e143|62|1 4267,1,1,0,0,0,0,1,0,0,1,0,0,0,1,4272,
scooby_state_47e143|60|1 4268,0,0,0,0,0,0,0,1,0,1,0,0,2,0,4272,
scooby_state_47e143|59|1 4264,2,0,0,0,0,2,1,1,1,0,0,0,1,0,4272,
scooby_state_47e143|14|1 4265,1,1,1,0,0,0,0,1,0,0,1,0,0,1,4271,
scooby_state_47e143|18|1 4264,1,0,0,1,1,0,0,0,2,0,2,0,0,0,4271,
scooby_state_47e143|55|1 4263,1,1,0,1,1,0,0,0,0,0,0,1,1,1,4270,
scooby_state_47e10f|0|0 2254,0,0,0,0,0,0,2,0,0,0,0,1,0,1,2258,
scooby_state_47e0c2|0|0 2239,1,1,0,0,0,1,0,0,0,0,1,0,0,0,2243,
scooby_state_47e0e4|0|0 2236,0,1,0,0,0,2,0,0,0,0,1,0,0,2,2242,
scooby_state_47e0b6|0|0 2168,0,0,0,0,1,0,1,0,0,1,0,0,0,0,2171,
scooby_state_47e0c2|2|1 2161,0,0,0,0,0,0,0,0,1,2,0,0,0,0,2164,
scooby_state_47e0ef|9|1 2163,0,0,0,0,0,0,0,0,0,0,0,0,0,0,2163,
scooby_state_47e0c2|60|1 2163,0,0,0,0,0,0,0,0,0,0,0,0,0,0,2163,
scooby_state_47e0d2|12|1 2160,0,0,0,1,0,0,0,0,1,1,0,0,0,0,2163,
scooby_state_47e115|6|1 2161,0,0,0,0,1,0,1,0,0,0,0,0,0,0,2163,
scooby_state_47e0c2|1|1 2159,0,0,0,1,0,2,0,0,0,0,1,0,0,0,2163,
scooby_state_47e0c2|58|1 2160,0,0,0,1,0,1,0,0,1,0,0,0,0,0,2163,
scooby_state_47e0d2|6|1 2161,0,0,0,0,1,0,0,0,0,0,0,0,1,0,2163,
scooby_state_47e115|12|1 2160,1,0,0,0,0,0,0,0,0,0,1,1,0,0,2163,
scooby_state_47e0c2|3|1 2160,0,0,0,0,1,0,0,0,0,0,1,0,1,0,2163,
scooby_state_47e0d2|5|1 2156,1,1,0,0,0,1,1,1,0,1,0,0,0,0,2162,
scooby_state_47e0ef|8|1 2160,0,0,0,1,0,1,0,0,0,0,0,0,0,0,2162,
scooby_state_47e115|5|1 2160,0,0,0,0,1,0,1,0,0,0,0,0,0,0,2162,
scooby_state_47e0d2|7|1 2160,0,0,0,0,1,1,0,0,0,0,0,0,0,0,2162,
scooby_state_47e0ef|3|1 2157,0,0,1,0,0,1,1,0,0,0,0,0,0,2,2162,
scooby_state_47e115|13|1 2159,0,1,1,0,0,0,0,0,0,1,0,0,0,0,2162,
scooby_state_47e0c2|54|1 2159,0,2,0,0,0,1,0,0,0,0,0,0,0,0,2162,
scooby_state_47e0d2|13|1 2160,1,0,0,0,0,0,0,0,0,0,0,1,0,0,2162,
scooby_state_47e0c2|56|1 2157,1,0,0,1,0,0,0,0,0,0,0,2,0,1,2162,
scooby_state_47e0ef|10|1 2157,0,3,0,0,0,0,0,0,0,0,0,1,0,1,2162,
scooby_state_47e115|20|1 2160,0,0,0,1,0,0,0,0,0,0,0,0,0,1,2162,
scooby_state_47e0d2|20|1 2157,1,0,0,1,0,0,1,0,0,0,1,0,1,0,2162,
scooby_state_47e115|7|1 2161,0,1,0,0,0,0,0,0,0,0,0,0,0,0,2162,
scooby_state_47e0e4|5|1 2157,0,0,1,0,1,0,0,0,0,1,1,1,0,0,2162,
scooby_state_47e0cc|9|1 2157,0,0,0,1,1,2,0,0,1,0,0,0,0,0,2162,
scooby_state_47e0e4|3|1 2155,0,1,0,1,1,1,1,0,0,0,0,0,1,0,2161,
scooby_state_47e0cc|7|1 2159,0,0,0,1,0,0,0,1,0,0,0,0,0,0,2161,
scooby_state_47e0ef|5|1 2159,0,2,0,0,0,0,0,0,0,0,0,0,0,0,2161,
scooby_state_47e0ef|27|1 2158,0,0,0,0,1,0,1,0,0,0,0,0,0,1,2161,
scooby_state_47e0d2|14|1 2155,1,0,0,0,0,1,1,0,1,1,0,0,1,0,2161,
scooby_state_47e0d2|11|1 2159,0,0,0,0,0,0,0,1,0,0,1,0,0,0,2161,
scooby_state_47e0cc|10|1 2157,0,1,0,0,0,0,1,0,0,1,0,0,1,0,2161,
scooby_state_47e0c2|7|1 2159,0,1,0,0,0,0,0,1,0,0,0,0,0,0,2161,
scooby_state_47e0c2|63|1 2158,0,0,1,0,1,0,0,0,0,0,0,0,0,1,2161,
scooby_state_47e0d2|27|1 2159,0,0,0,0,0,0,0,0,0,0,1,1,0,0,2161,
scooby_state_47e0c2|53|1 2161,0,0,0,0,0,0,0,0,0,0,0,0,0,0,2161,
scooby_state_47e0c2|55|1 2160,0,0,0,0,1,0,0,0,0,0,0,0,0,0,2161,
scooby_state_47e115|19|1 2154,1,0,0,1,2,0,1,0,0,0,0,0,0,2,2161,
scooby_state_47e0cc|62|1 2158,1,0,0,0,0,1,0,0,0,1,0,0,0,0,2161,
scooby_state_47e0c2|51|1 2154,0,0,0,1,0,1,1,0,2,0,0,1,1,0,2161,
scooby_state_47e0c2|47|1 2154,0,1,1,1,2,0,1,0,1,0,0,0,0,0,2161,
scooby_state_47e115|11|1 2158,0,0,0,1,0,0,0,0,1,0,0,0,0,1,2161,
scooby_state_47e115|27|1 2158,0,0,0,1,0,0,0,1,0,0,0,0,0,1,2161,
scooby_state_47e0e4|4|1 2159,0,0,0,0,0,0,0,0,0,1,0,0,0,1,2161,
scooby_state_47e0ef|7|1 2160,0,0,0,1,0,0,0,0,0,0,0,0,0,0,2161,
scooby_state_47e115|62|1 2157,0,0,0,0,0,0,2,0,0,1,0,0,0,1,2161,
scooby_state_47e115|31|1 2155,1,0,1,0,1,0,0,0,1,0,0,1,1,0,2161,
scooby_state_47e0c2|52|1 2157,0,0,0,0,0,1,1,2,0,0,0,0,0,0,2161,
scooby_state_47e0cc|27|1 2156,0,0,0,1,0,1,0,1,0,0,1,1,0,0,2161,
scooby_state_47e0d2|19|1 2156,0,0,2,0,0,1,0,0,0,1,0,1,0,0,2161,
scooby_state_47e115|14|1 2159,0,0,0,0,0,0,0,0,1,0,1,0,0,0,2161,
scooby_state_47e0c2|49|1 2154,0,1,0,0,3,0,0,0,0,1,0,0,0,2,2161,
scooby_state_47e0d2|62|1 2155,0,0,0,1,0,1,0,0,2,0,1,0,1,0,2161,
scooby_state_47e0cc|16|1 2159,1,0,0,0,0,0,1,0,0,0,0,0,0,0,2161,
scooby_state_47e0cc|8|1 2160,0,1,0,0,0,0,0,0,0,0,0,0,0,0,2161,
scooby_state_47e0d2|31|1 2155,0,0,0,1,0,0,0,1,0,1,0,1,2,0,2161,
scooby_state_47e0ef|2|1 2159,0,0,0,0,0,0,0,1,0,1,0,0,0,0,2161,
scooby_state_47e0ef|16|1 2157,0,1,0,0,0,2,0,0,0,0,0,1,0,0,2161,
scooby_state_47e0ef|11|1 2159,0,1,1,0,0,0,0,0,0,0,0,0,0,0,2161,
scooby_state_47e115|18|1 2158,0,0,0,0,0,0,0,0,0,0,0,1,1,1,2161,
scooby_state_47e0c2|62|1 2155,0,1,0,1,0,0,0,1,1,0,0,0,1,1,2161,
scooby_state_47e0c2|5|1 2159,0,1,0,0,1,0,0,0,0,0,0,0,0,0,2161,
scooby_state_47e0c2|59|1 2155,0,1,2,0,0,0,1,0,0,0,1,0,1,0,2161,
scooby_state_47e0d2|18|1 2158,0,0,0,0,0,0,1,0,0,0,0,1,1,0,2161,
scooby_state_47e0c2|61|1 2156,0,0,0,0,0,0,1,0,0,2,1,0,1,0,2161,
scooby_state_47e0ef|4|1 2158,0,0,0,0,0,0,0,0,0,1,0,1,0,0,2160,
scooby_state_47e0ef|18|1 2154,1,0,1,0,0,0,0,1,0,1,1,1,0,0,2160,
scooby_state_47e0c2|41|1 2159,0,0,0,0,0,0,0,0,0,0,0,1,0,0,2160,
scooby_state_47e0d2|3|1 2156,0,2,0,0,0,0,0,0,0,1,0,1,0,0,2160,
scooby_state_47e115|25|1 2155,0,0,1,0,0,0,3,0,0,0,0,1,0,0,2160,
scooby_state_47e0ef|1|1 2158,0,0,0,1,0,1,0,0,0,0,0,0,0,0,2160,
scooby_state_47e115|8|1 2157,0,1,0,0,0,0,0,0,1,0,0,1,0,0,2160,
scooby_state_47e0c2|8|1 2157,0,0,0,1,1,0,1,0,0,0,0,0,0,0,2160,
scooby_state_47e0ef|22|1 2156,1,0,0,1,0,0,0,0,0,0,0,0,0,2,2160,
scooby_state_47e0ef|12|1 2158,0,0,0,0,0,0,0,0,0,0,1,1,0,0,2160,
scooby_state_47e0c2|42|1 2155,0,0,0,2,1,0,1,0,0,0,1,0,0,0,2160,
scooby_state_47e115|40|1 2156,1,0,0,0,0,0,1,0,0,0,1,0,0,1,2160,
scooby_state_47e0c2|43|1 2158,0,0,1,0,0,0,0,0,1,0,0,0,0,0,2160,
scooby_state_47e115|34|1 2158,0,0,0,0,0,1,1,0,0,0,0,0,0,0,2160,
scooby_state_47e0d2|61|1 2155,0,1,0,0,1,0,0,0,0,1,0,0,2,0,2160,
scooby_state_47e0cc|63|1 2151,1,1,2,0,0,0,2,0,1,1,0,0,0,1,2160,
scooby_state_47e0d2|8|1 2158,0,0,0,0,1,0,0,0,0,1,0,0,0,0,2160,
scooby_state_47e0e4|27|1 2156,1,1,0,0,0,0,1,0,0,0,1,0,0,0,2160,
scooby_state_47e0cc|60|1 2152,0,0,0,1,0,0,1,0,3,1,1,0,1,0,2160,
scooby_state_47e115|3|1 2158,0,0,0,1,0,0,0,0,0,0,0,0,0,1,2160,
scooby_state_47e0c2|57|1 2159,0,0,0,0,1,0,0,0,0,0,0,0,0,0,2160,
scooby_state_47e0d2|17|1 2158,0,0,0,0,0,1,0,0,0,0,1,0,0,0,2160,
scooby_state_47e115|60|1 2152,0,3,1,0,1,0,0,1,0,0,1,1,0,0,2160,
scooby_state_47e0ef|20|1 2154,0,0,0,0,1,0,2,1,0,1,0,1,0,0,2160,
scooby_state_47e0d2|25|1 2155,1,0,1,0,1,1,0,0,0,0,0,0,0,1,2160,
scooby_state_47e0d2|10|1 2156,0,0,0,1,1,1,0,0,0,1,0,0,0,0,2160,
scooby_state_47e115|63|1 2154,1,0,0,1,1,1,0,0,0,0,0,0,0,2,2160,
scooby_state_47e0d2|63|1 2157,0,0,0,1,0,0,0,0,0,0,1,0,0,1,2160,
scooby_state_47e0d2|34|1 2156,0,0,0,1,0,0,0,0,0,2,0,1,0,0,2160,
scooby_state_47e0d2|16|1 2156,1,0,0,1,0,0,0,0,1,0,1,0,0,0,2160,
scooby_state_47e0c2|45|1 2155,0,1,0,0,0,0,3,1,0,0,0,0,0,0,2160,
scooby_state_47e0ef|29|1 2159,0,0,0,0,0,0,0,0,0,0,0,0,1,0,2160,
scooby_state_47e115|10|1 2156,0,0,0,0,0,0,0,0,1,0,1,1,1,0,2160,
scooby_state_47e115|61|1 2157,0,0,1,0,0,1,0,0,0,0,0,1,0,0,2160,
scooby_state_47e0cc|11|1 2159,0,0,0,0,0,0,0,1,0,0,0,0,0,0,2160,
scooby_state_47e115|16|1 2155,0,1,1,0,0,0,1,1,0,0,1,0,0,0,2160,
scooby_state_47e0d2|9|1 2157,0,1,0,1,0,0,0,0,1,0,0,0,0,0,2160,
scooby_state_47e0c2|36|1 2155,0,0,1,2,0,0,0,0,1,1,0,0,0,0,2160,
scooby_state_47e0d2|40|1 2158,1,0,0,0,0,1,0,0,0,0,0,0,0,0,2160,
scooby_state_47e0cc|61|1 2159,0,0,0,0,0,0,0,1,0,0,0,0,0,0,2160,
scooby_state_47e0d2|60|1 2153,0,0,2,1,0,1,0,0,1,1,0,1,0,0,2160,
scooby_state_47e0ef|0|0 2156,0,0,1,0,0,2,0,0,0,0,0,0,0,1,2160,
scooby_state_47e115|17|1 2158,0,0,0,0,1,0,0,0,0,0,0,0,0,1,2160,
scooby_state_47e115|9|1 2158,1,0,0,1,0,0,0,0,0,0,0,0,0,0,2160,
scooby_state_47e0ef|14|1 2155,0,0,0,0,0,1,0,2,0,0,0,0,1,1,2160,
scooby_state_47e0cc|15|1 2152,0,0,2,0,1,0,0,2,0,0,1,1,0,0,2159,
scooby_state_47e0ef|28|1 2155,1,0,0,0,0,1,1,0,0,0,0,0,0,1,2159,
scooby_state_47e0ef|15|1 2156,2,0,0,0,1,0,0,0,0,0,0,0,0,0,2159,
scooby_state_47e0c2|6|1 2152,1,2,1,0,1,0,0,0,1,0,0,0,1,0,2159,
scooby_state_47e0cc|33|1 2156,0,0,0,0,0,0,0,0,0,1,2,0,0,0,2159,
scooby_state_47e115|38|1 2158,0,0,0,1,0,0,0,0,0,0,0,0,0,0,2159,
scooby_state_47e0d2|4|1 2156,0,0,0,1,1,0,0,1,0,0,0,0,0,0,2159,
scooby_state_47e0c2|38|1 2157,0,0,0,0,0,0,0,0,1,0,1,0,0,0,2159,
scooby_state_47e0d2|21|1 2151,1,0,1,0,1,1,1,1,0,0,1,1,0,0,2159,
scooby_state_47e0e4|7|1 2157,0,1,0,0,1,0,0,0,0,0,0,0,0,0,2159,
scooby_state_47e0d2|36|1 2155,1,0,0,0,0,0,1,0,1,1,0,0,0,0,2159,
scooby_state_47e115|30|1 2154,0,0,0,1,0,0,1,1,1,0,0,1,0,0,2159,
scooby_state_47e0ef|13|1 2154,0,1,0,0,0,1,0,1,0,1,0,0,0,1,2159,
scooby_state_47e0d2|49|1 2157,0,0,0,1,0,0,0,0,1,0,0,0,0,0,2159,
scooby_state_47e0d2|38|1 2157,0,0,0,0,1,0,0,0,0,0,0,1,0,0,2159,
scooby_state_47e115|41|1 2150,0,0,1,2,1,0,0,2,0,1,2,0,0,0,2159,
scooby_state_47e115|4|1 2158,0,0,0,0,0,0,0,1,0,0,0,0,0,0,2159,
scooby_state_47e115|28|1 2158,1,0,0,0,0,0,0,0,0,0,0,0,0,0,2159,
scooby_state_47e0cc|4|1 2156,0,0,1,0,0,0,1,0,0,1,0,0,0,0,2159,
scooby_state_47e0d2|1|1 2156,0,1,2,0,0,0,0,0,0,0,0,0,0,0,2159,
scooby_state_47e0c2|50|1 2154,0,1,1,0,0,2,0,0,0,0,0,1,0,0,2159,
scooby_state_47e0cc|32|1 2153,0,1,0,0,1,2,1,0,0,0,1,0,0,0,2159,
scooby_state_47e0ef|21|1 2155,0,0,2,0,0,0,0,0,2,0,0,0,0,0,2159,
scooby_state_47e0d2|26|1 2153,0,0,0,0,0,0,2,0,0,1,0,1,1,1,2159,
scooby_state_47e0c2|48|1 2156,1,0,0,0,0,0,0,0,0,0,1,0,1,0,2159,
scooby_state_47e115|36|1 2154,1,0,0,0,0,0,0,1,1,1,0,0,1,0,2159,
scooby_state_47e115|32|1 2155,1,0,1,0,0,0,0,1,0,1,0,0,0,0,2159,
scooby_state_47e115|26|1 2156,0,0,0,0,0,1,0,0,1,0,0,0,1,0,2159,
scooby_state_47e115|21|1 2156,1,0,1,0,0,0,0,0,0,0,1,0,0,0,2159,
scooby_state_47e115|29|1 2157,0,0,0,0,0,0,0,0,0,0,1,0,0,1,2159,
scooby_state_47e0ef|19|1 2156,1,0,0,0,0,0,0,1,1,0,0,0,0,0,2159,
scooby_state_47e10f|1|1 2157,0,0,0,1,0,0,1,0,0,0,0,0,0,0,2159,
scooby_state_47e0c2|46|1 2154,0,0,1,1,0,1,1,0,0,0,0,1,0,0,2159,
scooby_state_47e0c2|14|1 2156,0,0,1,1,0,0,0,1,0,0,0,0,0,0,2159,
scooby_state_47e0c2|40|1 2156,0,0,0,0,0,0,1,0,0,1,0,0,0,1,2159,
scooby_state_47e0d2|42|1 2157,0,0,0,0,1,0,0,0,0,0,0,1,0,0,2159,
scooby_state_47e0c2|10|1 2154,1,0,0,0,1,0,0,0,0,0,0,2,0,1,2159,
scooby_state_47e0ef|23|1 2154,0,1,0,0,0,0,0,0,0,0,0,1,2,1,2159,
scooby_state_47e0d2|32|1 2154,1,0,0,0,0,1,0,2,0,0,1,0,0,0,2159,
scooby_state_47e0cc|0|0 2157,0,0,0,0,0,1,0,0,0,1,0,0,0,0,2159,
scooby_state_47e0d2|28|1 2157,0,0,0,0,0,0,0,0,0,1,1,0,0,0,2159,
scooby_state_47e0cc|17|1 2157,0,0,0,0,1,0,0,0,0,0,0,1,0,0,2159,
scooby_state_47e0cc|25|1 2154,0,2,1,0,0,0,0,0,2,0,0,0,0,0,2159,
scooby_state_47e0ef|25|1 2156,0,0,0,0,1,0,0,1,0,1,0,0,0,0,2159,
scooby_state_47e0d2|30|1 2158,0,0,0,0,0,0,0,0,0,0,0,0,0,1,2159,
scooby_state_47e0c2|9|1 2156,0,0,1,0,0,0,0,0,0,1,1,0,0,0,2159,
scooby_state_47e0e4|6|1 2154,1,0,0,0,0,0,0,0,0,0,1,0,2,1,2159,
scooby_state_47e0e4|2|1 2155,0,1,0,1,0,0,0,1,0,0,0,1,0,0,2159,
scooby_state_47e0cc|3|1 2157,1,0,0,0,0,0,0,0,0,0,0,0,0,1,2159,
scooby_state_47e0e4|12|1 2153,1,0,0,1,1,0,1,0,2,0,0,0,0,0,2159,
scooby_state_47e115|56|1 2156,0,0,0,1,0,0,0,0,0,2,0,0,0,0,2159,
scooby_state_47e0d2|0|0 2156,0,0,0,1,0,0,0,0,1,0,1,0,0,0,2159,
scooby_state_47e115|33|1 2153,0,0,0,0,2,0,0,1,1,1,0,0,0,1,2159,
scooby_state_47e0ef|17|1 2158,0,0,0,0,0,0,1,0,0,0,0,0,0,0,2159,
scooby_state_47e0cc|14|1 2156,0,1,0,0,1,0,0,0,0,0,1,0,0,0,2159,
scooby_state_47e115|1|1 2158,0,0,0,0,0,0,0,1,0,0,0,0,0,0,2159,
scooby_state_47e0d2|56|1 2156,0,0,0,0,0,1,0,1,0,0,0,0,1,0,2159,
scooby_state_47e0c2|4|1 2152,0,1,0,2,1,0,0,0,0,0,2,0,1,0,2159,
scooby_state_47e0e4|1|1 2151,1,0,0,0,0,0,0,2,1,0,1,2,1,0,2159,
scooby_state_47e0c2|12|1 2156,0,0,2,0,0,0,0,0,0,1,0,0,0,0,2159,
scooby_state_47e0cc|6|1 2156,1,1,0,0,0,0,0,0,0,0,0,0,0,1,2159,
scooby_state_47e0d2|41|1 2157,0,0,0,0,0,0,0,0,0,0,0,1,0,1,2159,
scooby_state_47e115|49|1 2153,1,0,0,0,0,1,1,0,1,1,0,1,0,0,2159,
scooby_state_47e0cc|51|1 2157,0,0,0,0,0,0,0,0,1,0,0,0,0,1,2159,
scooby_state_47e0d2|33|1 2157,0,0,0,0,0,0,0,0,0,0,1,0,1,0,2159,
scooby_state_47e0ef|6|1 2150,1,0,0,0,1,0,1,1,1,1,1,0,2,0,2159,
scooby_state_47e115|42|1 2156,0,1,1,0,0,0,0,1,0,0,0,0,0,0,2159,
scooby_state_47e0c2|44|1 2158,0,0,0,0,0,0,0,0,0,0,0,0,0,1,2159,
scooby_state_47e115|0|0 2153,0,0,0,1,0,0,1,0,0,1,0,0,2,1,2159,
scooby_state_47e0cc|18|1 2154,1,0,0,0,0,1,1,0,0,0,0,1,0,1,2159,
scooby_state_47e0d2|29|1 2156,1,0,1,0,0,0,0,1,0,0,0,0,0,0,2159,
scooby_state_47e0cc|24|1 2155,0,0,0,0,0,0,0,0,0,0,0,0,2,1,2158,
scooby_state_47e0e4|11|1 2156,0,0,0,1,0,0,1,0,0,0,0,0,0,0,2158,
scooby_state_47e0c2|13|1 2153,0,0,0,0,1,0,0,0,1,0,1,1,0,1,2158,
scooby_state_47e0c2|30|1 2154,0,1,0,0,0,0,0,0,0,0,0,3,0,0,2158,
scooby_state_47e115|47|1 2156,0,0,0,1,0,0,1,0,0,0,0,0,0,0,2158,
scooby_state_47e0e4|20|1 2156,0,1,0,0,0,0,1,0,0,0,0,0,0,0,2158,
scooby_state_47e0c2|31|1 2154,1,0,0,0,1,0,1,0,0,0,0,1,0,0,2158,
scooby_state_47e0cc|58|1 2153,0,1,1,0,0,0,0,1,0,0,0,1,1,0,2158,
scooby_state_47e0ef|24|1 2151,1,0,0,0,1,0,1,0,1,0,0,1,2,0,2158,
scooby_state_47e0c2|16|1 2153,0,1,0,0,0,0,0,1,1,0,0,1,0,1,2158,
scooby_state_47e0d2|55|1 2156,0,0,0,0,0,0,0,2,0,0,0,0,0,0,2158,
scooby_state_47e0e4|10|1 2154,0,0,0,0,1,0,0,1,0,0,0,1,1,0,2158,
scooby_state_47e115|59|1 2154,0,0,0,0,0,2,0,0,1,0,0,0,1,0,2158,
scooby_state_47e115|39|1 2154,0,1,0,0,1,0,0,0,0,0,0,1,0,1,2158,
scooby_state_47e0d2|24|1 2153,0,0,0,1,1,0,1,1,1,0,0,0,0,0,2158,
scooby_state_47e0c2|25|1 2157,0,0,0,0,0,1,0,0,0,0,0,0,0,0,2158,
scooby_state_47e0cc|31|1 2155,0,0,0,1,0,0,0,0,1,0,0,1,0,0,2158,
scooby_state_47e0d2|39|1 2153,0,1,1,0,0,0,0,1,0,0,1,0,1,0,2158,
scooby_state_47e0cc|55|1 2156,2,0,0,0,0,0,0,0,0,0,0,0,0,0,2158,
scooby_state_47e0cc|12|1 2158,0,0,0,0,0,0,0,0,0,0,0,0,0,0,2158,
scooby_state_47e115|54|1 2157,1,0,0,0,0,0,0,0,0,0,0,0,0,0,2158,
scooby_state_47e115|35|1 2152,1,0,0,1,0,0,1,1,0,1,1,0,0,0,2158,
scooby_state_47e0cc|26|1 2149,0,0,1,2,2,1,0,0,0,0,0,1,1,1,2158,
scooby_state_47e0d2|35|1 2153,1,1,1,0,0,0,0,1,0,0,0,1,0,0,2158,
scooby_state_47e0cc|5|1 2154,0,0,0,1,0,0,0,0,0,1,0,0,1,1,2158,
scooby_state_47e0cc|20|1 2157,0,0,0,0,0,0,0,0,0,0,0,0,0,1,2158,
scooby_state_47e0cc|22|1 2155,0,0,1,0,1,0,0,0,0,0,1,0,0,0,2158,
scooby_state_47e0e4|13|1 2154,0,1,1,0,0,0,1,0,1,0,0,0,0,0,2158,
scooby_state_47e115|15|1 2156,0,0,0,0,0,0,0,0,0,2,0,0,0,0,2158,
scooby_state_47e0c2|37|1 2152,1,0,1,0,1,0,0,0,0,1,0,1,0,1,2158,
scooby_state_47e0cc|53|1 2157,0,1,0,0,0,0,0,0,0,0,0,0,0,0,2158,
scooby_state_47e0c2|35|1 2153,0,1,1,0,0,0,1,0,0,0,0,1,1,0,2158,
scooby_state_47e0cc|29|1 2153,0,0,0,0,1,0,1,1,0,0,1,1,0,0,2158,
scooby_state_47e0cc|34|1 2158,0,0,0,0,0,0,0,0,0,0,0,0,0,0,2158,
scooby_state_47e0d2|47|1 2153,0,0,0,1,1,0,0,1,1,0,0,0,0,1,2158,
scooby_state_47e115|24|1 2152,0,1,0,0,0,0,1,1,0,1,0,0,0,2,2158,
scooby_state_47e0d2|48|1 2155,0,0,0,0,0,0,1,0,0,0,1,1,0,0,2158,
scooby_state_47e0e4|9|1 2155,1,0,0,0,0,1,0,0,1,0,0,0,0,0,2158,
scooby_state_47e115|48|1 2155,2,0,0,0,0,0,0,0,0,0,0,0,0,1,2158,
scooby_state_47e115|55|1 2157,0,0,0,0,0,0,0,0,0,0,1,0,0,0,2158,
scooby_state_47e115|2|1 2155,0,1,0,0,0,0,0,0,0,0,0,1,1,0,2158,
scooby_state_47e0d2|59|1 2157,0,0,0,0,0,0,0,0,0,0,1,0,0,0,2158,
scooby_state_47e0c2|32|1 2157,0,0,0,0,0,0,0,0,0,1,0,0,0,0,2158,
scooby_state_47e0d2|23|1 2153,0,0,0,0,1,0,0,0,0,2,1,0,1,0,2158,
scooby_state_47e0cc|38|1 2155,0,0,0,1,1,0,1,0,0,0,0,0,0,0,2158,
scooby_state_47e0ef|26|1 2154,0,0,0,0,1,0,0,0,0,0,0,1,2,0,2158,
scooby_state_47e115|23|1 2152,0,1,0,0,1,1,0,0,1,0,0,1,0,1,2158,
scooby_state_47e0c2|34|1 2152,1,0,0,2,0,0,1,0,0,0,2,0,0,0,2158,
scooby_state_47e0c2|11|1 2156,1,0,0,1,0,0,0,0,0,0,0,0,0,0,2158,
scooby_state_47e0d2|15|1 2153,0,2,0,0,0,2,0,0,0,1,0,0,0,0,2158,
scooby_state_47e0e4|26|1 2157,0,0,0,0,0,0,0,0,1,0,0,0,0,0,2158,
scooby_state_47e0d2|54|1 2154,0,0,0,1,1,1,0,0,0,0,0,1,0,0,2158,
scooby_state_47e115|45|1 2151,0,0,0,0,0,1,1,0,1,1,1,0,0,1,2157,
scooby_state_47e0cc|44|1 2153,1,0,1,0,0,0,1,0,0,0,0,1,0,0,2157,
scooby_state_47e0c2|18|1 2153,1,0,0,0,1,0,0,1,0,0,0,0,0,1,2157,
scooby_state_47e115|58|1 2153,1,0,1,0,0,1,1,0,0,0,0,0,0,0,2157,
scooby_state_47e0cc|54|1 2155,0,1,0,0,0,1,0,0,0,0,0,0,0,0,2157,
scooby_state_47e0cc|35|1 2156,0,0,0,0,0,0,0,0,0,0,1,0,0,0,2157,
scooby_state_47e0c2|33|1 2152,0,0,0,1,0,0,0,2,0,0,0,2,0,0,2157,
scooby_state_47e0cc|56|1 2150,1,0,1,1,1,1,0,0,1,0,1,0,0,0,2157,
scooby_state_47e0d2|45|1 2154,0,0,0,0,0,0,0,2,0,0,1,0,0,0,2157,
scooby_state_47e0d2|58|1 2155,0,0,0,0,0,1,1,0,0,0,0,0,0,0,2157,
scooby_state_47e115|53|1 2151,0,1,0,0,1,0,1,0,0,0,1,2,0,0,2157,
scooby_state_47e0c2|20|1 2156,0,0,0,0,0,0,0,1,0,0,0,0,0,0,2157,
scooby_state_47e0e4|28|1 2156,0,0,0,0,0,0,1,0,0,0,0,0,0,0,2157,
scooby_state_47e0e4|29|1 2154,2,0,0,0,0,0,0,1,0,0,0,0,0,0,2157,
scooby_state_47e0d2|22|1 2153,0,0,0,0,1,0,1,0,0,0,1,0,0,1,2157,
scooby_state_47e0cc|13|1 2155,0,0,0,1,0,0,0,0,0,0,1,0,0,0,2157,
scooby_state_47e0d2|53|1 2156,0,0,0,0,0,0,0,0,1,0,0,0,0,0,2157,
scooby_state_47e0c2|19|1 2154,0,0,0,0,1,0,0,0,0,0,0,0,0,2,2157,
scooby_state_47e0d2|37|1 2154,0,0,0,1,0,0,0,1,0,0,0,0,1,0,2157,
scooby_state_47e0e4|25|1 2154,0,0,0,0,0,2,0,0,0,0,0,0,0,1,2157,
scooby_state_47e0cc|21|1 2153,0,0,0,0,0,0,1,2,0,1,0,0,0,0,2157,
scooby_state_47e0e4|16|1 2155,0,0,0,1,0,0,0,0,0,0,1,0,0,0,2157,
scooby_state_47e115|22|1 2154,1,0,0,0,0,0,0,0,0,0,1,1,0,0,2157,
scooby_state_47e0cc|59|1 2156,0,0,0,0,1,0,0,0,0,0,0,0,0,0,2157,
scooby_state_47e0cc|30|1 2155,0,0,0,0,0,0,1,1,0,0,0,0,0,0,2157,
scooby_state_47e0cc|52|1 2151,0,0,0,0,0,1,1,0,1,1,1,0,0,1,2157,
scooby_state_47e0c2|24|1 2151,0,0,1,0,0,1,1,0,1,0,0,0,2,0,2157,
scooby_state_47e0cc|28|1 2155,0,0,1,1,0,0,0,0,0,0,0,0,0,0,2157,
scooby_state_47e0c2|15|1 2153,1,1,0,0,0,1,0,1,0,0,0,0,0,0,2157,
scooby_state_47e0e4|21|1 2152,1,1,0,0,0,0,1,0,1,0,0,0,1,0,2157,
scooby_state_47e115|37|1 2155,1,0,0,0,0,0,0,0,0,0,1,0,0,0,2157,
scooby_state_47e0c2|27|1 2155,1,0,0,0,0,0,0,0,0,1,0,0,0,0,2157,
scooby_state_47e0e4|18|1 2155,0,1,0,1,0,0,0,0,0,0,0,0,0,0,2157,
scooby_state_47e0c2|23|1 2151,0,1,0,1,0,0,0,1,0,1,1,0,1,0,2157,
scooby_state_47e0c2|29|1 2152,1,1,2,0,0,0,0,0,0,0,0,1,0,0,2157,
scooby_state_47e0cc|23|1 2156,0,0,0,0,0,0,0,0,0,0,0,1,0,0,2157,
scooby_state_47e0c2|39|1 2154,0,0,0,0,1,0,0,1,0,1,0,0,0,0,2157,
scooby_state_47e0c2|21|1 2148,2,0,0,2,0,0,0,0,1,0,1,0,1,2,2157,
scooby_state_47e0e4|14|1 2156,0,0,0,0,0,0,0,0,0,0,0,1,0,0,2157,
scooby_state_47e0cc|36|1 2151,0,1,0,0,0,0,0,0,0,1,1,2,0,1,2157,
scooby_state_47e0d2|50|1 2154,0,0,1,0,0,0,0,0,0,1,0,0,0,0,2156,
scooby_state_47e115|43|1 2155,0,0,0,0,0,0,0,0,0,1,0,0,0,0,2156,
scooby_state_47e0cc|19|1 2153,0,0,0,1,0,0,0,0,0,0,0,1,0,1,2156,
scooby_state_47e0cc|45|1 2151,0,0,1,1,1,0,0,0,0,0,0,0,1,1,2156,
scooby_state_47e0e4|24|1 2154,0,0,0,0,1,0,0,0,0,1,0,0,0,0,2156,
scooby_state_47e115|51|1 2155,0,0,0,0,0,0,0,0,0,0,0,0,1,0,2156,
scooby_state_47e0c2|26|1 2153,0,0,0,0,0,0,1,0,0,0,0,1,1,0,2156,
scooby_state_47e0cc|43|1 2151,0,1,0,1,0,1,0,0,0,0,1,1,0,0,2156,
scooby_state_47e0d2|51|1 2152,0,0,0,0,0,0,1,1,0,0,0,0,1,1,2156,
scooby_state_47e0e4|8|1 2153,1,0,1,0,0,0,0,0,1,0,0,0,0,0,2156,
scooby_state_47e0cc|46|1 2152,0,0,0,0,0,0,0,0,0,0,1,0,1,2,2156,
scooby_state_47e0c2|22|1 2154,0,0,0,0,0,1,0,0,0,0,0,0,0,1,2156,
scooby_state_47e10f|2|1 2149,0,0,0,0,3,2,0,0,0,1,0,0,0,1,2156,
scooby_state_47e0cc|47|1 2151,0,0,2,0,0,0,0,0,0,0,1,1,1,0,2156,
scooby_state_47e0e4|17|1 2149,2,1,1,0,0,1,1,0,0,0,0,1,0,0,2156,
scooby_state_47e0e4|22|1 2153,0,0,0,0,1,0,0,1,0,0,0,0,1,0,2156,
scooby_state_47e0d2|43|1 2154,1,0,0,0,0,0,0,0,1,0,0,0,0,0,2156,
scooby_state_47e0d2|2|1 2149,0,0,1,2,0,1,0,0,0,1,1,1,0,0,2156,
scooby_state_47e0c2|17|1 2149,0,0,0,2,0,1,0,2,0,0,0,1,1,0,2156,
scooby_state_47e0cc|42|1 2153,1,0,0,1,0,0,0,1,0,0,0,0,0,0,2156,
scooby_state_47e0e4|15|1 2149,1,1,0,1,1,1,0,0,0,0,0,0,1,1,2156,
scooby_state_47e0e4|23|1 2152,0,1,0,1,0,2,0,0,0,0,0,0,0,0,2156,
scooby_state_47e0cc|2|1 2155,1,0,0,0,0,0,0,0,0,0,0,0,0,0,2156,
scooby_state_47e0e4|19|1 2151,0,3,0,0,0,0,0,0,0,0,1,0,0,1,2156,
scooby_state_47e0cc|1|1 2151,1,0,0,1,1,0,0,0,0,0,0,0,1,1,2156,
scooby_state_47e115|50|1 2153,1,0,0,1,0,0,0,0,0,0,0,0,0,1,2156,
scooby_state_47e115|52|1 2152,0,1,0,0,0,0,0,1,0,1,0,1,0,0,2156,
scooby_state_47e0d2|52|1 2151,0,0,0,1,0,0,0,1,0,0,3,0,0,0,2156,
scooby_state_47e0d2|57|1 2153,1,0,0,0,0,0,0,0,1,0,0,0,0,0,2155,
scooby_state_47e0cc|41|1 2150,1,1,0,1,0,0,0,0,0,0,0,0,2,0,2155,
scooby_state_47e115|46|1 2149,0,0,0,0,0,1,2,0,0,0,1,1,0,1,2155,
scooby_state_47e0cc|37|1 2150,2,0,0,1,0,1,1,0,0,0,0,0,0,0,2155,
scooby_state_47e115|57|1 2151,0,2,0,1,0,0,0,0,0,0,0,0,1,0,2155,
scooby_state_47e0cc|57|1 2151,1,1,1,0,0,0,0,0,0,0,0,0,0,1,2155,
scooby_state_47e0cc|50|1 2152,0,0,0,0,0,0,1,0,0,1,0,1,0,0,2155,
scooby_state_47e0d2|44|1 2152,1,0,0,0,0,1,0,1,0,0,0,0,0,0,2155,
scooby_state_47e0d2|46|1 2154,1,0,0,0,0,0,0,0,0,0,0,0,0,0,2155,
scooby_state_47e115|44|1 2153,0,0,0,0,1,1,0,0,0,0,0,0,0,0,2155,
scooby_state_47e0c2|28|1 2150,0,0,0,0,0,0,2,2,0,0,0,0,1,0,2155,
scooby_state_47e10f|63|1 2151,0,1,0,0,0,0,0,0,0,1,1,0,0,0,2154,
scooby_state_47e0cc|40|1 2152,0,0,0,0,0,0,0,1,0,0,0,0,0,1,2154,
scooby_state_47e0af|4|1 2150,0,0,0,1,1,0,0,0,0,2,0,0,0,0,2154,
scooby_state_47e10f|56|1 2151,0,1,1,1,0,0,0,0,0,0,0,0,0,0,2154,
scooby_state_47e10f|45|1 2149,1,1,0,0,0,0,1,0,1,0,0,0,0,1,2154,
scooby_state_47e10f|54|1 2152,0,0,0,0,1,0,0,0,0,0,1,0,0,0,2154,
scooby_state_47e0cc|39|1 2146,1,0,2,0,2,1,1,0,1,0,0,0,0,0,2154,
scooby_state_47e0e4|62|1 2149,0,1,1,0,0,0,0,0,1,0,1,0,0,0,2153,
scooby_state_47e0af|15|1 2149,1,0,0,0,1,0,1,0,1,0,0,0,0,0,2153,
scooby_state_47e0af|24|1 2149,0,0,0,0,0,1,0,0,1,0,1,0,0,1,2153,
scooby_state_47e0cc|49|1 2152,0,0,0,0,0,0,0,1,0,0,0,0,0,0,2153,
scooby_state_47e0af|14|1 2148,0,1,1,0,0,1,0,0,0,1,0,1,0,0,2153,
scooby_state_47e10f|47|1 2152,0,0,0,0,0,0,0,0,1,0,0,0,0,0,2153,
scooby_state_47e0af|6|1 2150,1,0,0,0,0,0,0,0,0,0,0,0,0,1,2152,
scooby_state_47e10f|46|1 2149,0,1,0,0,0,0,1,1,0,0,0,0,0,0,2152,
scooby_state_47e0e4|56|1 2150,0,0,0,0,0,1,0,0,1,0,0,0,0,0,2152,
scooby_state_47e0e4|40|1 2150,1,0,1,0,0,0,0,0,0,0,0,0,0,0,2152,
scooby_state_47e0af|5|1 2149,0,0,0,0,0,0,1,0,0,0,0,1,0,1,2152,
scooby_state_47e0af|16|1 2148,1,0,0,0,0,1,0,1,1,0,0,0,0,0,2152,
scooby_state_47e10f|36|1 2149,0,0,0,0,0,1,0,0,0,0,0,1,0,1,2152,
scooby_state_47e0af|3|1 2151,0,0,0,0,0,0,0,0,0,0,0,0,0,1,2152,
scooby_state_47e0e4|33|1 2149,0,0,1,1,1,0,0,0,0,0,0,0,0,0,2152,
scooby_state_47e10f|3|1 2151,0,0,0,0,0,0,0,1,0,0,0,0,0,0,2152,
scooby_state_47e0e4|38|1 2147,0,0,0,0,0,1,1,0,0,1,1,0,1,0,2152,
scooby_state_47e10f|49|1 2145,1,1,0,0,1,1,0,0,0,1,1,1,0,0,2152,
scooby_state_47e0e4|60|1 2149,0,0,0,2,0,0,0,0,1,0,0,0,0,0,2152,
scooby_state_47e0e4|32|1 2149,0,0,0,0,0,0,1,1,0,0,0,1,0,0,2152,
scooby_state_47e0e4|49|1 2151,0,0,0,0,0,0,0,0,0,0,0,0,0,0,2151,
scooby_state_47e10f|53|1 2148,0,0,0,0,0,0,1,0,1,0,0,0,0,1,2151,
scooby_state_47e0af|22|1 2148,1,0,0,0,0,0,1,1,0,0,0,0,0,0,2151,
scooby_state_47e0e4|63|1 2145,1,0,1,0,1,0,0,1,0,0,1,0,1,0,2151,
scooby_state_47e0e4|61|1 2149,0,0,1,0,0,0,1,0,0,0,0,0,0,0,2151,
scooby_state_47e0e4|39|1 2146,0,0,1,0,0,2,0,0,0,1,1,0,0,0,2151,
scooby_state_47e0e4|54|1 2147,1,1,0,1,0,0,0,1,0,0,0,0,0,0,2151,
scooby_state_47e10f|62|1 2147,0,0,0,0,0,0,0,0,0,0,1,1,1,1,2151,
scooby_state_47e0b6|55|1 2145,2,1,0,0,1,0,0,0,1,0,0,0,0,1,2151,
scooby_state_47e0af|13|1 2147,1,0,1,1,0,0,0,0,1,0,0,0,0,0,2151,
scooby_state_47e0af|0|0 2146,0,0,0,1,0,0,0,0,0,1,2,0,1,0,2151,
scooby_state_47e0e4|55|1 2146,0,0,1,0,0,1,0,0,1,0,1,0,0,1,2151,
scooby_state_47e10f|48|1 2150,0,0,0,0,0,0,0,0,0,0,0,1,0,0,2151,
scooby_state_47e0cc|48|1 2149,0,0,0,0,0,0,0,0,0,0,0,1,1,0,2151,
scooby_state_47e0e4|34|1 2148,1,0,1,0,1,0,0,0,0,0,0,0,0,0,2151,
scooby_state_47e0af|23|1 2146,0,0,2,0,0,0,1,0,0,0,0,1,1,0,2151,
scooby_state_47e10f|38|1 2148,0,0,0,0,1,0,0,0,0,1,1,0,0,0,2151,
scooby_state_47e0e4|47|1 2150,1,0,0,0,0,0,0,0,0,0,0,0,0,0,2151,
scooby_state_47e10f|55|1 2146,0,0,1,1,0,0,1,1,0,1,0,0,0,0,2151,
scooby_state_47e0af|7|1 2145,1,0,0,1,1,0,1,0,0,1,0,0,0,0,2150,
scooby_state_47e0af|11|1 2149,0,0,0,0,0,0,0,0,0,0,0,0,1,0,2150,
scooby_state_47e0e4|45|1 2148,0,1,0,0,0,0,0,0,0,0,0,1,0,0,2150,
scooby_state_47e0ef|58|1 2145,0,0,0,0,1,1,0,0,1,0,2,0,0,0,2150,
scooby_state_47e0e4|42|1 2149,1,0,0,0,0,0,0,0,0,0,0,0,0,0,2150,
scooby_state_47e10f|29|1 2146,0,0,0,1,0,0,0,0,2,0,0,0,0,1,2150,
scooby_state_47e10f|37|1 2148,0,0,1,0,0,0,0,1,0,0,0,0,0,0,2150,
scooby_state_47e10f|28|1 2142,0,2,0,1,1,0,0,0,2,0,0,1,0,1,2150,
scooby_state_47e0e4|31|1 2148,0,0,0,0,1,0,1,0,0,0,0,0,0,0,2150,
scooby_state_47e0e4|46|1 2146,0,0,0,1,1,0,0,1,0,0,0,1,0,0,2150,
scooby_state_47e10f|58|1 2144,0,1,1,1,0,0,1,0,0,1,0,1,0,0,2150,
scooby_state_47e0e4|53|1 2148,0,1,0,0,0,0,0,0,0,0,0,1,0,0,2150,
scooby_state_47e0af|2|1 2143,0,1,0,2,0,0,0,1,0,0,0,1,0,1,2149,
scooby_state_47e0b6|56|1 2145,0,0,0,1,0,0,1,0,0,0,1,0,0,1,2149,
scooby_state_47e0ef|36|1 2146,0,0,0,0,0,0,0,1,1,0,1,0,0,0,2149,
scooby_state_47e0ef|63|1 2145,0,0,0,0,0,0,1,0,0,0,1,1,1,0,2149,
scooby_state_47e0e4|41|1 2143,0,1,0,0,1,1,0,0,1,0,0,1,0,1,2149,
scooby_state_47e0e4|57|1 2146,0,0,2,0,0,0,0,1,0,0,0,0,0,0,2149,
scooby_state_47e10f|39|1 2145,0,0,1,0,0,0,1,1,0,1,0,0,0,0,2149,
scooby_state_47e0ef|30|1 2146,0,0,0,1,0,0,0,0,0,1,0,0,0,1,2149,
scooby_state_47e0e4|58|1 2144,0,0,0,1,0,0,0,0,0,0,2,1,1,0,2149,
scooby_state_47e0ef|31|1 2147,0,0,0,0,0,1,0,0,0,0,0,1,0,0,2149,
scooby_state_47e10f|27|1 2144,0,0,0,1,1,0,1,0,0,1,0,1,0,0,2149,
scooby_state_47e0af|9|1 2144,0,0,0,0,2,0,0,1,1,0,0,1,0,0,2149,
scooby_state_47e10f|8|1 2144,1,0,0,1,0,0,0,1,0,1,0,0,1,0,2149,
scooby_state_47e0af|25|1 2142,1,0,1,1,0,2,0,0,1,1,0,0,0,0,2149,
scooby_state_47e10f|57|1 2142,0,1,0,1,0,0,1,1,0,0,0,1,2,0,2149,
scooby_state_47e0e4|48|1 2145,0,0,0,0,0,0,0,0,1,0,0,1,2,0,2149,
scooby_state_47e0ef|62|1 2144,0,0,0,0,0,1,1,1,0,1,0,1,0,0,2149,
scooby_state_47e10f|20|1 2146,0,0,0,0,0,1,0,1,0,0,0,0,1,0,2149,
scooby_state_47e0ef|51|1 2147,1,0,0,0,0,0,0,0,1,0,0,0,0,0,2149,
scooby_state_47e0af|8|1 2143,0,0,0,2,0,1,0,0,0,2,0,1,0,0,2149,
scooby_state_47e0e4|35|1 2144,0,1,0,1,2,0,0,0,0,0,1,0,0,0,2149,
scooby_state_47e0af|12|1 2147,0,0,0,0,0,0,0,1,1,0,0,0,0,0,2149,
scooby_state_47e0ef|60|1 2144,0,0,0,0,0,0,0,0,0,2,0,0,0,2,2148,
scooby_state_47e0b6|47|1 2147,0,0,1,0,0,0,0,0,0,0,0,0,0,0,2148,
scooby_state_47e10f|44|1 2143,0,1,0,1,0,0,2,0,0,0,0,1,0,0,2148,
scooby_state_47e0ef|33|1 2143,0,1,0,0,1,0,0,0,0,0,0,2,1,0,2148,
scooby_state_47e0e4|52|1 2146,0,0,0,0,0,0,0,0,1,1,0,0,0,0,2148,
scooby_state_47e10f|9|1 2145,0,0,0,2,0,1,0,0,0,0,0,0,0,0,2148,
scooby_state_47e0b6|38|1 2146,0,0,0,0,0,0,0,0,0,0,0,0,1,1,2148,
scooby_state_47e10f|30|1 2143,1,0,0,0,0,0,2,1,0,0,1,0,0,0,2148,
scooby_state_47e0ef|61|1 2144,0,1,0,0,0,1,1,0,0,0,1,0,0,0,2148,
scooby_state_47e0e4|51|1 2143,2,1,1,1,0,0,0,0,0,0,0,0,0,0,2148,
scooby_state_47e0e4|37|1 2145,0,1,0,0,0,0,0,0,0,0,0,1,0,1,2148,
scooby_state_47e0ef|38|1 2142,0,1,0,0,1,0,1,0,0,0,0,1,2,0,2148,
scooby_state_47e10f|17|1 2145,0,1,0,0,1,0,0,0,0,0,0,0,0,1,2148,
scooby_state_47e0b6|57|1 2141,0,2,2,1,0,1,0,0,0,0,1,0,0,0,2148,
scooby_state_47e10f|21|1 2145,0,0,1,0,0,0,0,0,1,0,1,0,0,0,2148,
scooby_state_47e0af|10|1 2146,0,0,0,0,0,2,0,0,0,0,0,0,0,0,2148,
scooby_state_47e0ef|57|1 2147,0,0,0,0,1,0,0,0,0,0,0,0,0,0,2148,
scooby_state_47e0ef|56|1 2142,0,1,0,0,0,1,1,1,0,0,0,0,1,1,2148,
scooby_state_47e0e4|59|1 2142,0,1,1,0,0,3,0,0,0,0,0,0,1,0,2148,
scooby_state_47e0e4|36|1 2144,1,0,0,1,1,0,0,0,0,1,0,0,0,0,2148,
scooby_state_47e0af|21|1 2143,0,0,0,0,1,0,0,0,3,0,0,0,0,1,2148,
scooby_state_47e0af|27|1 2145,0,0,0,0,0,0,0,0,1,0,0,1,0,1,2148,
scooby_state_47e0ef|32|1 2142,0,0,0,1,1,0,1,2,0,0,0,0,0,0,2147,
scooby_state_47e10f|18|1 2140,0,0,1,1,1,0,0,2,0,0,0,1,1,0,2147,
scooby_state_47e0ef|44|1 2143,2,0,0,0,2,0,0,0,0,0,0,0,0,0,2147,
scooby_state_47e0ef|35|1 2144,0,0,0,0,0,0,0,0,1,1,1,0,0,0,2147,
scooby_state_47e0ef|43|1 2145,1,0,0,0,0,0,0,0,0,0,1,0,0,0,2147,
scooby_state_47e0ef|34|1 2140,0,0,0,1,0,0,0,0,1,1,0,2,0,2,2147,
scooby_state_47e0b6|11|1 2144,0,0,0,0,0,1,0,0,0,0,1,0,0,1,2147,
scooby_state_47e0ef|42|1 2143,0,0,0,2,0,0,0,1,0,1,0,0,0,0,2147,
scooby_state_47e0ef|40|1 2145,0,1,1,0,0,0,0,0,0,0,0,0,0,0,2147,
scooby_state_47e0b6|1|1 2141,0,1,1,1,0,0,0,1,1,0,0,0,1,0,2147,
scooby_state_47e0e4|43|1 2142,0,1,0,0,0,0,0,1,1,0,0,1,0,1,2147,
scooby_state_47e0b6|37|1 2138,0,1,0,1,1,1,1,2,0,0,2,0,0,0,2147,
scooby_state_47e0ef|59|1 2145,0,1,1,0,0,0,0,0,0,0,0,0,0,0,2147,
scooby_state_47e0ef|37|1 2147,0,0,0,0,0,0,0,0,0,0,0,0,0,0,2147,
scooby_state_47e0b6|45|1 2147,0,0,0,0,0,0,0,0,0,0,0,0,0,0,2147,
scooby_state_47e0ef|50|1 2144,0,1,0,0,0,0,1,0,0,0,0,1,0,0,2147,
scooby_state_47e0ef|52|1 2146,0,0,0,0,0,0,0,1,0,0,0,0,0,0,2147,
scooby_state_47e0b6|3|1 2145,0,1,0,0,0,0,0,0,0,0,0,1,0,0,2147,
scooby_state_47e10f|52|1 2144,0,0,0,0,0,0,0,0,1,0,0,0,1,1,2147,
scooby_state_47e0b6|58|1 2144,0,0,0,1,0,0,0,1,0,1,0,0,0,0,2147,
scooby_state_47e10f|59|1 2143,1,0,1,1,0,0,0,0,1,0,0,0,0,0,2147,
scooby_state_47e0e4|44|1 2142,0,0,1,2,1,0,1,0,0,0,0,0,0,0,2147,
scooby_state_47e0af|29|1 2139,1,0,0,0,0,0,0,0,1,1,0,0,1,3,2146,
scooby_state_47e0ef|55|1 2141,0,0,2,0,0,0,1,1,0,0,0,1,0,0,2146,
scooby_state_47e0ef|53|1 2144,0,0,0,0,0,0,0,0,0,0,1,0,0,1,2146,
scooby_state_47e0ef|39|1 2142,0,0,0,0,0,1,1,0,0,0,0,1,1,0,2146,
scooby_state_47e0ef|41|1 2145,0,1,0,0,0,0,0,0,0,0,0,0,0,0,2146,
scooby_state_47e10f|26|1 2145,0,0,0,0,0,0,0,1,0,0,0,0,0,0,2146,
scooby_state_47e0af|20|1 2137,1,0,1,2,0,0,0,0,1,1,0,1,1,1,2146,
scooby_state_47e0af|18|1 2141,0,2,0,0,1,0,0,0,2,0,0,0,0,0,2146,
scooby_state_47e10f|35|1 2142,0,0,1,0,0,0,0,0,0,1,2,0,0,0,2146,
scooby_state_47e0e4|30|1 2144,0,0,0,0,1,0,0,0,1,0,0,0,0,0,2146,
scooby_state_47e0ef|49|1 2143,0,0,2,0,1,0,0,0,0,0,0,0,0,0,2146,
scooby_state_47e0b6|63|1 2143,0,1,1,0,0,0,0,0,0,0,1,0,0,0,2146,
scooby_state_47e0e4|50|1 2144,0,0,0,0,1,0,0,0,1,0,0,0,0,0,2146,
scooby_state_47e0af|17|1 2142,0,0,0,1,0,0,1,0,0,0,0,1,0,1,2146,
scooby_state_47e0ef|45|1 2140,0,1,0,0,0,1,0,0,0,0,1,0,2,1,2146,
scooby_state_47e10f|19|1 2144,0,0,0,1,0,0,0,0,0,0,0,0,0,1,2146,
scooby_state_47e10f|61|1 2139,0,0,0,0,1,0,2,2,0,0,0,1,1,0,2146,
scooby_state_47e0b6|46|1 2141,0,0,1,0,1,0,0,1,0,0,1,1,0,0,2146,
scooby_state_47e0b6|54|1 2142,0,0,0,0,0,0,0,1,0,0,1,1,0,1,2146,
scooby_state_47e0b6|48|1 2142,2,0,0,0,0,1,0,0,0,1,0,0,0,0,2146,
scooby_state_47e0ef|47|1 2143,0,0,0,0,0,2,0,0,0,0,0,0,0,0,2145,
scooby_state_47e0b6|29|1 2142,0,0,2,0,1,0,0,0,0,0,0,0,0,0,2145,
scooby_state_47e0b6|39|1 2144,0,0,0,0,1,0,0,0,0,0,0,0,0,0,2145,
scooby_state_47e0b6|49|1 2141,0,0,0,1,0,1,0,0,1,1,0,0,0,0,2145,
scooby_state_47e09f|0|0 2141,0,0,0,0,0,0,1,0,0,0,1,1,0,1,2145,
scooby_state_47e0ef|54|1 2140,1,1,1,0,1,0,0,0,0,0,0,0,0,1,2145,
scooby_state_47e0b6|10|1 2143,0,0,0,1,1,0,0,0,0,0,0,0,0,0,2145,
scooby_state_47e10f|50|1 2140,0,1,1,0,0,2,0,0,0,0,0,0,1,0,2145,
scooby_state_47e10f|16|1 2144,0,0,0,0,0,0,0,0,0,0,0,0,0,1,2145,
scooby_state_47e0b6|12|1 2138,0,0,1,2,1,0,0,0,1,0,1,1,0,0,2145,
scooby_state_47e0b6|2|1 2139,0,0,0,0,0,1,0,0,2,1,0,1,0,1,2145,
scooby_state_47e10f|7|1 2141,2,0,1,0,0,0,0,1,0,0,0,0,0,0,2145,
scooby_state_47e0b6|28|1 2143,0,0,0,0,1,0,0,0,0,0,0,0,1,0,2145,
scooby_state_47e0af|26|1 2140,0,0,0,0,0,0,1,0,0,0,1,0,1,1,2144,
scooby_state_47e0b6|62|1 2142,0,0,1,0,1,0,0,0,0,0,0,0,0,0,2144,
scooby_state_47e0b6|9|1 2142,0,1,0,0,1,0,0,0,0,0,0,0,0,0,2144,
scooby_state_47e0b6|20|1 2139,0,2,0,0,0,0,0,1,1,0,1,0,0,0,2144,
scooby_state_47e10f|51|1 2142,0,0,0,0,0,1,0,0,0,0,0,0,0,1,2144,
scooby_state_47e10f|10|1 2142,0,0,0,0,1,0,0,0,0,0,0,0,1,0,2144,
scooby_state_47e10f|25|1 2138,1,0,1,1,0,0,0,2,0,0,1,0,0,0,2144,
scooby_state_47e0b6|21|1 2137,0,0,3,0,0,0,0,2,1,1,0,0,0,0,2144,
scooby_state_47e0b6|27|1 2142,1,0,0,0,0,0,0,0,0,1,0,0,0,0,2144,
scooby_state_47e10f|40|1 2140,0,0,0,1,0,0,1,0,0,1,1,0,0,0,2144,
scooby_state_47e0ef|46|1 2138,1,0,0,1,0,0,1,0,1,0,0,0,1,1,2144,
scooby_state_47e10f|60|1 2138,0,0,2,1,0,0,0,0,1,2,0,0,0,0,2144,
scooby_state_47e10f|31|1 2137,0,0,3,1,1,0,1,0,0,0,0,0,0,0,2143,
scooby_state_47e0b6|59|1 2140,1,1,0,0,0,1,0,0,0,0,0,0,0,0,2143,
scooby_state_47e0af|28|1 2138,1,1,1,0,0,1,0,0,0,0,0,1,0,0,2143,
scooby_state_47e0af|19|1 2137,0,1,2,0,1,1,0,0,0,0,1,0,0,0,2143,
scooby_state_47e10f|24|1 2143,0,0,0,0,0,0,0,0,0,0,0,0,0,0,2143,
scooby_state_47e0af|1|1 2141,0,0,0,0,0,0,0,0,0,0,0,0,1,1,2143,
scooby_state_47e0ef|48|1 2140,1,0,1,0,0,0,0,0,0,0,0,0,1,0,2143,
scooby_state_47e0b6|40|1 2138,3,1,0,0,0,0,0,0,0,0,0,0,0,1,2143,
scooby_state_47e10f|43|1 2141,0,0,0,0,0,0,0,0,0,0,1,0,0,1,2143,
scooby_state_47e0b6|19|1 2139,0,2,0,0,0,1,0,1,0,0,0,0,0,0,2143,
scooby_state_47e0af|60|1 2140,0,0,1,0,0,1,0,0,0,0,0,0,0,0,2142,
scooby_state_47e0af|51|1 2137,0,1,0,0,0,0,1,0,1,0,1,0,0,1,2142,
scooby_state_47e0b6|51|1 2135,0,0,0,0,1,1,1,0,1,1,0,1,1,0,2142,
scooby_state_47e0b6|53|1 2139,0,1,0,0,0,0,0,1,0,0,0,0,0,1,2142,
scooby_state_47e0b6|50|1 2137,0,0,0,0,0,0,1,0,1,0,0,2,0,0,2141,
scooby_state_47e10f|32|1 2135,1,1,1,0,0,0,0,1,0,0,0,0,2,0,2141,
scooby_state_47e0b6|4|1 2135,2,0,1,0,0,1,0,0,0,0,0,1,1,0,2141,
scooby_state_47e10f|23|1 2140,0,0,0,0,1,0,0,0,0,0,0,0,0,0,2141,
scooby_state_47e10f|34|1 2138,1,0,0,1,0,0,1,0,0,0,0,0,0,0,2141,
scooby_state_47e10f|42|1 2136,0,0,1,1,1,1,0,0,0,0,0,1,0,0,2141,
scooby_state_47e0b6|31|1 2137,0,1,0,0,0,0,0,1,1,0,0,0,0,1,2141,
scooby_state_47e0b6|60|1 2136,0,0,0,2,0,0,0,1,0,1,0,0,1,0,2141,
scooby_state_47e0b6|18|1 2140,0,0,0,0,0,0,0,0,0,0,1,0,0,0,2141,
scooby_state_47e10f|33|1 2138,0,0,0,1,1,1,0,0,0,0,0,0,0,0,2141,
scooby_state_47e0b6|26|1 2140,0,0,0,0,0,1,0,0,0,0,0,0,0,0,2141,
scooby_state_47e0b6|36|1 2139,0,1,0,0,1,0,0,0,0,0,0,0,0,0,2141,
scooby_state_47e0b6|44|1 2138,0,1,0,0,0,0,0,0,0,0,0,0,1,1,2141,
scooby_state_47e10f|22|1 2139,0,0,1,0,0,0,0,1,0,0,0,0,0,0,2141,
scooby_state_47e0b6|35|1 2133,2,0,1,1,0,1,0,0,0,0,1,2,0,0,2141,
scooby_state_47e10f|41|1 2137,0,1,1,0,0,1,0,1,0,0,0,0,0,0,2141,
scooby_state_47e0af|42|1 2136,0,1,0,1,0,0,1,0,1,0,0,0,0,1,2141,
scooby_state_47e0af|61|1 2137,0,0,0,0,1,1,0,0,0,1,1,0,0,0,2141,
scooby_state_47e10f|15|1 2136,1,1,1,0,0,0,0,0,1,0,0,0,0,1,2141,
scooby_state_47e0af|32|1 2138,0,2,0,0,0,0,0,0,0,0,1,0,0,0,2141,
scooby_state_47e0af|33|1 2136,0,0,0,0,0,1,0,1,1,0,0,1,0,0,2140,
scooby_state_47e0b6|7|1 2135,0,1,0,1,0,0,0,0,0,0,2,0,0,1,2140,
scooby_state_47e0b6|61|1 2139,0,0,0,1,0,0,0,0,0,0,0,0,0,0,2140,
scooby_state_47e0af|58|1 2138,0,0,0,0,1,0,0,0,0,0,0,0,0,1,2140,
scooby_state_47e0b6|17|1 2136,0,0,0,0,1,0,1,0,0,0,1,1,0,0,2140,
scooby_state_47e0b6|42|1 2134,1,0,0,1,1,0,0,0,1,1,0,0,1,0,2140,
scooby_state_47e0b6|32|1 2136,1,1,0,0,0,0,0,0,0,1,0,0,0,1,2140,
scooby_state_47e0b6|13|1 2135,1,0,0,2,0,0,0,0,0,0,1,0,1,0,2140,
scooby_state_47e0af|31|1 2136,1,0,0,2,0,0,0,0,1,0,0,0,0,0,2140,
scooby_state_47e0b6|41|1 2138,0,1,0,0,1,0,0,0,0,0,0,0,0,0,2140,
scooby_state_47e0b6|34|1 2137,0,1,0,0,0,1,0,0,0,0,0,0,1,0,2140,
scooby_state_47e0b6|22|1 2133,0,0,0,1,0,0,2,1,1,0,0,1,1,0,2140,
scooby_state_47e0b6|6|1 2138,1,0,0,0,0,0,0,0,0,1,0,0,0,0,2140,
scooby_state_47e0b6|5|1 2134,0,0,0,0,0,0,3,0,1,0,1,0,0,0,2139,
scooby_state_47e09f|7|1 2133,2,0,0,1,0,2,0,0,0,0,0,0,1,0,2139,
scooby_state_47e09f|27|1 2136,0,0,1,0,0,0,0,0,0,1,0,0,0,1,2139,
scooby_state_47e10f|14|1 2137,0,0,0,0,1,0,1,0,0,0,0,0,0,0,2139,
scooby_state_47e0af|52|1 2136,0,0,0,0,0,1,0,0,1,0,1,0,0,0,2139,
scooby_state_47e0b6|8|1 2137,0,0,0,0,0,1,0,0,0,0,0,0,0,1,2139,
scooby_state_47e0b6|52|1 2134,0,0,0,1,1,1,1,0,0,0,1,0,0,0,2139,
scooby_state_47e0b6|30|1 2135,1,0,0,1,0,0,0,0,0,0,0,1,1,0,2139,
scooby_state_47e0af|50|1 2133,1,0,0,0,0,0,1,1,0,0,0,1,1,1,2139,
scooby_state_47e09f|10|1 2133,1,0,1,0,0,0,0,1,1,1,0,0,0,0,2138,
scooby_state_47e09f|1|1 2137,0,0,0,0,0,0,0,0,0,0,1,0,0,0,2138,
scooby_state_47e0af|59|1 2134,0,1,1,0,0,0,0,0,0,1,0,0,0,1,2138,
scooby_state_47e0af|34|1 2135,0,0,0,0,2,0,0,0,0,0,0,1,0,0,2138,
scooby_state_47e0af|40|1 2136,0,0,1,0,0,0,0,0,0,1,0,0,0,0,2138,
scooby_state_47e0b6|14|1 2133,1,0,0,0,1,0,1,1,0,0,0,0,0,1,2138,
scooby_state_47e0b6|43|1 2135,0,0,0,0,0,0,0,0,0,0,0,1,1,1,2138,
scooby_state_47e0b6|33|1 2135,0,0,1,0,0,1,0,1,0,0,0,0,0,0,2138,
scooby_state_47e0af|41|1 2134,0,1,0,0,0,1,0,0,2,0,0,0,0,0,2138,
scooby_state_47e0af|62|1 2129,0,1,0,1,0,0,0,0,1,1,2,0,0,2,2137,
scooby_state_47e0af|30|1 2133,1,0,1,1,0,0,0,1,0,0,0,0,0,0,2137,
scooby_state_47e0b6|23|1 2136,0,0,0,0,0,0,0,0,0,0,1,0,0,0,2137,
scooby_state_47e0af|43|1 2136,1,0,0,0,0,0,0,0,0,0,0,0,0,0,2137,
scooby_state_47e0b6|25|1 2130,0,0,2,1,1,0,0,0,1,0,1,0,1,0,2137,
scooby_state_47e0b6|16|1 2131,0,0,0,0,0,4,0,0,1,0,0,0,0,1,2137,
scooby_state_47e09f|26|1 2135,1,0,0,0,0,0,1,0,0,0,0,0,0,0,2137,
scooby_state_47e0af|44|1 2133,0,0,0,1,0,3,0,0,0,0,0,0,0,0,2137,
scooby_state_47e09f|3|1 2135,0,0,1,0,0,0,0,0,0,0,0,0,1,0,2137,
scooby_state_47e0b6|15|1 2135,0,0,0,1,0,0,0,1,0,0,0,0,0,0,2137,
scooby_state_47e0af|49|1 2132,0,0,0,0,0,1,0,0,1,1,0,0,0,1,2136,
scooby_state_47e0b6|24|1 2131,0,0,0,0,1,0,0,0,0,1,0,1,1,1,2136,
scooby_state_47e10f|11|1 2133,0,0,0,1,0,0,0,0,0,0,0,1,1,0,2136,
scooby_state_47e09f|9|1 2132,0,2,0,0,0,2,0,0,0,0,0,0,0,0,2136,
scooby_state_47e09f|18|1 2132,0,0,0,1,1,0,1,0,0,1,0,0,0,0,2136,
scooby_state_47e09f|8|1 2135,1,0,0,0,0,0,0,0,0,0,0,0,0,0,2136,
scooby_state_47e10f|4|1 2134,1,1,0,0,0,0,0,0,0,0,0,0,0,0,2136,
scooby_state_47e0af|63|1 2130,0,1,0,1,0,1,1,0,1,0,0,1,0,0,2136,
scooby_state_47e09f|16|1 2133,0,1,0,0,0,0,0,0,0,0,1,1,0,0,2136,
scooby_state_47e09f|5|1 2133,0,0,0,0,0,1,2,0,0,0,0,0,0,0,2136,
scooby_state_47e09f|17|1 2131,0,0,0,0,2,0,0,0,2,0,0,0,1,0,2136,
scooby_state_47e09f|19|1 2133,1,0,0,1,1,0,0,0,0,0,0,0,0,0,2136,
scooby_state_47e09f|6|1 2135,0,0,0,0,0,0,0,0,0,0,0,0,0,1,2136,
scooby_state_47e0af|36|1 2133,0,0,0,0,0,0,0,0,0,1,0,1,1,0,2136,
scooby_state_47e10f|6|1 2133,0,0,0,1,0,0,0,0,1,0,0,0,0,0,2135,
scooby_state_47e0af|53|1 2132,0,0,0,0,1,0,0,0,0,1,1,0,0,0,2135,
scooby_state_47e09f|28|1 2130,1,0,1,0,0,0,1,0,0,1,0,0,0,1,2135,
scooby_state_47e09f|12|1 2129,1,0,0,0,1,0,2,2,0,0,0,0,0,0,2135,
scooby_state_47e09f|2|1 2132,0,0,0,0,0,0,0,1,2,0,0,0,0,0,2135,
scooby_state_47e09f|29|1 2127,1,0,0,0,0,0,1,1,1,1,2,0,0,1,2135,
scooby_state_47e0af|57|1 2132,0,0,0,1,1,0,0,0,0,0,1,0,0,0,2135,
scooby_state_47e0af|39|1 2132,1,0,1,1,0,0,0,0,0,0,0,0,0,0,2135,
scooby_state_47e09f|15|1 2133,0,0,0,0,0,1,0,0,0,0,1,0,0,0,2135,
scooby_state_47e0af|38|1 2129,0,0,1,1,0,0,0,0,1,1,0,0,1,1,2135,
scooby_state_47e0af|37|1 2130,1,1,0,0,0,0,0,0,1,0,0,0,1,0,2134,
scooby_state_47e09f|4|1 2133,0,1,0,0,0,0,0,0,0,0,0,0,0,0,2134,
scooby_state_47e09f|24|1 2131,0,1,0,0,0,0,1,0,0,0,0,0,0,1,2134,
scooby_state_47e0af|35|1 2131,1,0,0,1,0,0,0,0,0,0,0,0,0,1,2134,
scooby_state_47e09f|21|1 2130,0,0,1,1,0,0,0,2,0,0,0,0,0,0,2134,
scooby_state_47e09f|22|1 2132,0,0,0,0,0,0,0,1,0,0,0,0,0,0,2133,
scooby_state_47e0af|45|1 2131,0,0,0,0,0,0,2,0,0,0,0,0,0,0,2133,
scooby_state_47e09f|11|1 2130,1,0,0,0,0,0,1,0,1,0,0,0,0,0,2133,
scooby_state_47e09f|25|1 2131,0,0,0,0,0,0,0,0,0,0,0,2,0,0,2133,
scooby_state_47e09f|62|1 2124,0,0,1,0,0,1,0,0,0,1,2,3,0,0,2132,
scooby_state_47e09f|14|1 2129,0,0,0,0,2,0,0,1,0,0,0,0,0,0,2132,
scooby_state_47e09f|55|1 2131,0,0,1,0,0,0,0,0,0,0,0,0,0,0,2132,
scooby_state_47e09f|23|1 2127,1,0,0,0,0,1,1,1,0,0,0,0,1,0,2132,
scooby_state_47e10f|5|1 2127,1,0,0,1,1,0,0,0,0,1,1,0,0,0,2132,
scooby_state_47e0af|55|1 2127,0,0,0,0,1,1,0,0,0,0,1,0,1,1,2132,
scooby_state_47e0af|47|1 2129,0,0,0,0,1,0,1,0,0,0,0,0,0,0,2131,
scooby_state_47e09f|13|1 2130,0,0,1,0,0,0,0,0,0,0,0,0,0,0,2131,
scooby_state_47e09f|63|1 2131,0,0,0,0,0,0,0,0,0,0,0,0,0,0,2131,
scooby_state_47e0af|56|1 2126,0,0,0,0,0,0,0,0,0,1,2,2,0,0,2131,
scooby_state_47e09f|53|1 2131,0,0,0,0,0,0,0,0,0,0,0,0,0,0,2131,
scooby_state_47e09f|54|1 2127,0,1,1,0,0,0,1,1,0,0,0,0,0,0,2131,
scooby_state_47e10f|13|1 2124,1,0,1,0,0,2,0,1,0,0,0,1,0,0,2130,
scooby_state_47e09f|20|1 2126,0,0,0,1,0,0,0,1,1,0,1,0,0,0,2130,
scooby_state_47e09f|45|1 2128,0,0,0,0,0,0,1,0,0,0,0,1,0,0,2130,
scooby_state_47e10f|12|1 2124,0,2,0,0,0,0,0,1,0,1,0,2,0,0,2130,
scooby_state_47e0af|48|1 2128,0,0,0,1,0,1,0,0,0,0,0,0,0,0,2130,
scooby_state_47e0af|54|1 2125,0,0,0,0,2,0,1,0,0,0,0,0,1,1,2130,
scooby_state_47e09f|47|1 2125,1,0,1,0,0,0,0,1,0,0,0,0,0,1,2129,
scooby_state_47e09f|34|1 2123,0,1,0,0,0,1,0,0,1,0,0,1,2,0,2129,
scooby_state_47e09f|46|1 2122,0,1,0,0,1,1,1,0,2,0,0,1,0,0,2129,
scooby_state_47e0af|46|1 2124,0,0,0,0,1,0,0,0,1,0,1,0,1,0,2128,
scooby_state_47e09f|33|1 2124,0,0,0,0,0,0,0,0,1,0,1,2,0,0,2128,
scooby_state_47e09f|61|1 2127,0,1,0,0,0,0,0,0,0,0,0,0,0,0,2128,
scooby_state_47e09f|35|1 2126,1,0,0,0,0,1,0,0,0,0,0,0,0,0,2128,
scooby_state_47e09f|37|1 2121,0,0,1,0,0,1,1,1,0,0,0,1,2,0,2128,
scooby_state_47e09f|60|1 2126,0,0,0,0,0,0,0,1,0,0,0,1,0,0,2128,
scooby_state_47e09f|38|1 2123,0,0,0,1,0,0,1,0,0,1,1,0,0,0,2127,
scooby_state_47e09f|44|1 2122,0,0,0,1,0,1,0,0,0,1,0,0,0,2,2127,
scooby_state_47e09f|52|1 2121,0,1,0,0,0,2,0,0,0,0,0,0,3,0,2127,
scooby_state_47e09f|32|1 2124,0,0,0,0,1,0,0,1,0,0,1,0,0,0,2127,
scooby_state_47e09f|39|1 2121,1,0,0,0,0,0,0,1,2,0,1,0,0,0,2126,
scooby_state_47e09f|56|1 2125,1,0,0,0,0,0,0,0,0,0,0,0,0,0,2126,
scooby_state_47e09f|36|1 2122,0,1,1,0,1,0,1,0,0,0,0,0,0,0,2126,
scooby_state_47e09f|57|1 2124,0,0,1,1,0,0,0,0,0,0,0,0,0,0,2126,
scooby_state_47e09f|42|1 2119,0,0,0,0,0,2,1,0,0,0,1,0,0,3,2126,
scooby_state_47e09f|43|1 2123,0,1,0,0,0,0,0,0,1,0,0,1,0,0,2126,
scooby_state_47e09f|58|1 2121,0,0,0,1,0,1,0,0,0,0,0,0,1,1,2125,
scooby_state_47e09f|49|1 2120,1,1,1,0,0,0,1,1,0,0,0,0,0,0,2125,
scooby_state_47e09f|51|1 2122,0,0,0,1,1,0,0,0,0,0,0,1,0,0,2125,
scooby_state_47e09f|40|1 2122,0,0,0,0,0,0,1,0,0,1,1,0,0,0,2125,
scooby_state_47e09f|41|1 2117,1,0,0,0,0,1,0,0,1,0,2,0,1,1,2124,
scooby_state_47e09f|50|1 2118,0,0,1,0,0,0,1,0,0,0,0,1,0,2,2123,
scooby_state_47e09f|31|1 2122,0,0,0,0,0,0,0,0,1,0,0,0,0,0,2123,
scooby_state_47e09f|59|1 2119,1,0,0,0,0,1,0,1,0,0,1,0,0,0,2123,
scooby_state_47e09f|48|1 2121,0,1,0,0,0,0,0,0,1,0,0,0,0,0,2123,
scooby_state_47e09f|30|1 2116,0,2,0,1,0,0,0,0,1,0,0,0,1,1,2122,
scooby_state_47e1bf|58|1 1364,1,0,0,0,0,0,0,0,0,0,0,0,0,0,1365,
scooby_state_47e1b7|55|-3 174,534,0,484,0,0,0,0,0,0,0,0,0,2,0,1194,
scooby_state_47e1b3|57|-3 984,0,0,0,1,0,0,0,0,0,0,0,0,0,0,985,
scooby_state_47e3b5|60|-1 551,0,0,0,0,0,0,0,0,0,1,0,0,0,0,552,
scooby_state_47e017|60|-1 540,0,0,0,0,0,0,0,0,0,0,0,0,0,1,541,
scooby_state_47e421|61|6 455,0,0,0,0,0,1,0,0,0,0,0,0,1,0,457,
scooby_state_47e06d|61|6 398,0,0,0,0,0,0,0,0,0,0,54,0,0,0,452,
scooby_state_47e1b3|57|-4 382,0,0,0,0,0,0,0,0,0,0,0,0,0,0,382,
scooby_state_47e1b7|55|-5 171,0,0,35,0,0,0,0,0,0,0,0,0,0,0,206,
scooby_state_47e017|60|5 190,0,0,0,0,0,0,0,0,0,1,0,0,0,0,191,
scooby_state_47e3b5|60|5 189,0,0,0,0,1,0,0,0,0,0,0,0,0,0,190,
scooby_state_47e06d|61|1 187,0,0,0,0,0,0,0,0,0,0,0,0,0,0,187,
scooby_state_47e421|61|1 180,0,0,0,0,0,0,0,0,0,0,0,0,0,0,180,
scooby_state_47e1b3|57|2 147,0,0,0,0,0,0,0,0,0,0,0,0,0,1,148,
scooby_state_47e421|61|3 131,0,0,0,0,0,0,0,0,0,0,0,0,0,0,131,
scooby_state_47e143|2|0 131,0,0,0,0,0,0,0,0,0,0,0,0,0,0,131,
scooby_state_47e143|1|0 131,0,0,0,0,0,0,0,0,0,0,0,0,0,0,131,
scooby_state_47e1b7|55|-2 128,0,0,0,0,0,0,0,0,0,0,0,0,0,0,128,
scooby_state_47e1bf|58|3 109,0,0,0,0,0,0,0,0,0,0,0,0,0,0,109,
scooby_state_47e18b|1|0 108,0,0,0,0,0,0,0,0,0,0,0,0,0,0,108,
scooby_state_47e06d|61|3 32,1,1,1,1,1,1,1,1,1,1,66,0,0,0,108,
scooby_state_47e10f|1|0 107,0,0,0,0,0,0,0,0,0,0,0,0,0,0,107,
scooby_state_47e18b|2|0 104,0,0,0,0,0,0,0,0,0,0,0,0,0,0,104,
scooby_state_47e10f|2|0 100,0,0,0,0,0,0,0,0,0,0,0,0,0,0,100,
scooby_state_47e10f|6|3 89,0,0,0,0,0,0,0,0,0,0,0,0,0,0,89,
scooby_state_47e10f|8|3 88,0,0,0,0,0,0,0,0,0,0,0,0,0,0,88,
scooby_state_47e10f|7|3 87,0,0,0,0,0,0,0,0,0,0,0,0,0,0,87,
scooby_state_47e10f|5|3 87,0,0,0,0,0,0,0,0,0,0,0,0,0,0,87,
scooby_state_47e10f|15|3 85,0,0,0,0,0,0,0,0,0,1,0,0,0,0,86,
scooby_state_47e103|1|0 85,0,0,0,0,0,0,0,0,0,0,0,0,0,0,85,
scooby_state_47e0e4|1|0 85,0,0,0,0,0,0,0,0,0,0,0,0,0,0,85,
scooby_state_47de4c|1|0 84,0,0,0,0,0,0,0,0,0,0,0,0,0,0,84,
scooby_state_47de3e|1|0 84,0,0,0,0,0,0,0,0,0,0,0,0,0,0,84,
scooby_state_47de8d|2|0 84,0,0,0,0,0,0,0,0,0,0,0,0,0,0,84,
scooby_state_47de8d|0|0 84,0,0,0,0,0,0,0,0,0,0,0,0,0,0,84,
scooby_state_47de34|1|0 84,0,0,0,0,0,0,0,0,0,0,0,0,0,0,84,
scooby_state_47de61|1|0 84,0,0,0,0,0,0,0,0,0,0,0,0,0,0,84,
scooby_state_47e10f|4|3 84,0,0,0,0,0,0,0,0,0,0,0,0,0,0,84,
scooby_state_47de3e|2|0 83,0,0,0,0,0,0,0,0,0,0,0,0,0,0,83,
scooby_state_47e0e4|2|0 83,0,0,0,0,0,0,0,0,0,0,0,0,0,0,83,
scooby_state_47de61|2|0 83,0,0,0,0,0,0,0,0,0,0,0,0,0,0,83,
scooby_state_47de4c|0|0 83,0,0,0,0,0,0,0,0,0,0,0,0,0,0,83,
scooby_state_47e0c2|1|0 83,0,0,0,0,0,0,0,0,0,0,0,0,0,0,83,
scooby_state_47e0c2|2|0 83,0,0,0,0,0,0,0,0,0,0,0,0,0,0,83,
scooby_state_47e103|2|0 83,0,0,0,0,0,0,0,0,0,0,0,0,0,0,83,
scooby_state_47de34|2|0 82,0,0,0,0,0,0,0,0,0,1,0,0,0,0,83,
scooby_state_47de4c|2|0 83,0,0,0,0,0,0,0,0,0,0,0,0,0,0,83,
scooby_state_47e10f|16|3 82,0,0,0,0,0,0,0,0,0,0,0,0,0,0,82,
scooby_state_47de8d|1|0 82,0,0,0,0,0,0,0,0,0,0,0,0,0,0,82,
scooby_state_47e10f|9|3 81,0,0,0,0,0,0,0,0,0,0,0,0,0,0,81,
scooby_state_47e10f|44|3 81,0,0,0,0,0,0,0,0,0,0,0,0,0,0,81,
scooby_state_47de3e|0|0 81,0,0,0,0,0,0,0,0,0,0,0,0,0,0,81,
scooby_state_47de34|0|0 81,0,0,0,0,0,0,0,0,0,0,0,0,0,0,81,
scooby_state_47de61|0|0 81,0,0,0,0,0,0,0,0,0,0,0,0,0,0,81,
scooby_state_47e10f|17|3 79,0,0,0,0,0,0,0,0,0,0,0,0,0,0,79,
scooby_state_47e10f|13|3 78,0,0,0,0,0,0,0,0,0,0,0,0,0,0,78,
scooby_state_47e124|0|0 78,0,0,0,0,0,0,0,0,0,0,0,0,0,0,78,
scooby_state_47e10f|18|3 77,0,0,0,0,0,0,0,0,0,0,0,0,0,0,77,
scooby_state_47e10f|12|3 76,0,0,0,0,0,0,0,0,0,0,0,0,0,0,76,
scooby_state_47e10f|10|3 76,0,0,0,0,0,0,0,0,0,0,0,0,0,0,76,
scooby_state_47e10f|11|3 76,0,0,0,0,0,0,0,0,0,0,0,0,0,0,76,
scooby_state_47e10f|53|3 76,0,0,0,0,0,0,0,0,0,0,0,0,0,0,76,
scooby_state_47e10f|3|3 76,0,0,0,0,0,0,0,0,0,0,0,0,0,0,76,
scooby_state_47e10f|30|3 76,0,0,0,0,0,0,0,0,0,0,0,0,0,0,76,
scooby_state_47e10f|54|3 75,0,0,0,0,0,0,0,0,0,0,0,0,0,0,75,
scooby_state_47e10f|35|3 75,0,0,0,0,0,0,0,0,0,0,0,0,0,0,75,
scooby_state_47e10f|63|3 75,0,0,0,0,0,0,0,0,0,0,0,0,0,0,75,
scooby_state_47e10f|55|3 74,0,0,0,0,0,0,1,0,0,0,0,0,0,0,75,
scooby_state_47e10f|26|3 75,0,0,0,0,0,0,0,0,0,0,0,0,0,0,75,
[...]
scooby_state_47e103|52|-1 1,0,0,0,0,0,0,0,0,0,0,0,0,0,0,1,
scooby_state_47dec4|25|0 1,0,0,0,0,0,0,0,0,0,0,0,0,0,0,1,
scooby_state_47e0b6|62|4 1,0,0,0,0,0,0,0,0,0,0,0,0,0,0,1,
scooby_state_47e0e4|40|32 1,0,0,0,0,0,0,0,0,0,0,0,0,0,0,1,
scooby_state_47e15d|51|0 1,0,0,0,0,0,0,0,0,0,0,0,0,0,0,1,
scooby_state_47e103|38|-1 1,0,0,0,0,0,0,0,0,0,0,0,0,0,0,1,
scooby_state_47e143|29|0 1,0,0,0,0,0,0,0,0,0,0,0,0,0,0,1,
scooby_state_47e10f|23|0 1,0,0,0,0,0,0,0,0,0,0,0,0,0,0,1,
scooby_state_47de5b|53|0 1,0,0,0,0,0,0,0,0,0,0,0,0,0,0,1,
scooby_state_47e103|9|0 1,0,0,0,0,0,0,0,0,0,0,0,0,0,0,1,
scooby_state_47e173|7|1 1,0,0,0,0,0,0,0,0,0,0,0,0,0,0,1,
scooby_state_47e15d|36|0 1,0,0,0,0,0,0,0,0,0,0,0,0,0,0,1,
scooby_state_47dee0|28|0 1,0,0,0,0,0,0,0,0,0,0,0,0,0,0,1,
scooby_state_47e15d|16|0 1,0,0,0,0,0,0,0,0,0,0,0,0,0,0,1,
scooby_state_47dece|12|-30 1,0,0,0,0,0,0,0,0,0,0,0,0,0,0,1,
scooby_state_47de8d|28|0 1,0,0,0,0,0,0,0,0,0,0,0,0,0,0,1,
scooby_state_47e0e4|58|0 1,0,0,0,0,0,0,0,0,0,0,0,0,0,0,1,
scooby_state_47e16e|6|-30 1,0,0,0,0,0,0,0,0,0,0,0,0,0,0,1,
scooby_state_47e0e4|9|0 1,0,0,0,0,0,0,0,0,0,0,0,0,0,0,1,
scooby_state_47de61|27|0 1,0,0,0,0,0,0,0,0,0,0,0,0,0,0,1,
scooby_state_47e15d|59|1 1,0,0,0,0,0,0,0,0,0,0,0,0,0,0,1,
scooby_state_47e0a9|13|-30 1,0,0,0,0,0,0,0,0,0,0,0,0,0,0,1,
scooby_state_47e0b6|58|0 1,0,0,0,0,0,0,0,0,0,0,0,0,0,0,1,
scooby_state_47e15d|24|0 1,0,0,0,0,0,0,0,0,0,0,0,0,0,0,1,
scooby_state_47e15d|25|0 1,0,0,0,0,0,0,0,0,0,0,0,0,0,0,1,
scooby_state_47e10f|43|0 1,0,0,0,0,0,0,0,0,0,0,0,0,0,0,1,
scooby_state_47e124|15|0 1,0,0,0,0,0,0,0,0,0,0,0,0,0,0,1,
scooby_state_47e12f|33|30 1,0,0,0,0,0,0,0,0,0,0,0,0,0,0,1,
scooby_state_47e15d|14|1 1,0,0,0,0,0,0,0,0,0,0,0,0,0,0,1,
scooby_state_47e0e4|61|32 1,0,0,0,0,0,0,0,0,0,0,0,0,0,0,1,
scooby_state_47de8d|4|0 1,0,0,0,0,0,0,0,0,0,0,0,0,0,0,1,
scooby_state_47de61|26|0 1,0,0,0,0,0,0,0,0,0,0,0,0,0,0,1,
scooby_state_47e15d|33|1 1,0,0,0,0,0,0,0,0,0,0,0,0,0,0,1,
scooby_state_47dee0|36|0 1,0,0,0,0,0,0,0,0,0,0,0,0,0,0,1,
scooby_state_47e09f|44|4 1,0,0,0,0,0,0,0,0,0,0,0,0,0,0,1,
scooby_state_47e16e|41|0 1,0,0,0,0,0,0,0,0,0,0,0,0,0,0,1,
scooby_state_47de61|18|0 1,0,0,0,0,0,0,0,0,0,0,0,0,0,0,1,
scooby_state_47e0e4|48|32 1,0,0,0,0,0,0,0,0,0,0,0,0,0,0,1,
scooby_state_47e10f|51|0 1,0,0,0,0,0,0,0,0,0,0,0,0,0,0,1,
scooby_state_47dea3|36|0 1,0,0,0,0,0,0,0,0,0,0,0,0,0,0,1,
scooby_state_47de61|32|0 1,0,0,0,0,0,0,0,0,0,0,0,0,0,0,1,
scooby_state_47e09f|15|4 1,0,0,0,0,0,0,0,0,0,0,0,0,0,0,1,
scooby_state_47e103|0|-1 1,0,0,0,0,0,0,0,0,0,0,0,0,0,0,1,
scooby_state_47dece|53|0 1,0,0,0,0,0,0,0,0,0,0,0,0,0,0,1,
scooby_state_47e445|17|1 1,0,0,0,0,0,0,0,0,0,0,0,0,0,0,1,
scooby_state_47de3e|34|0 1,0,0,0,0,0,0,0,0,0,0,0,0,0,0,1,
scooby_state_47de4c|22|0 1,0,0,0,0,0,0,0,0,0,0,0,0,0,0,1,
scooby_state_47e124|63|32 1,0,0,0,0,0,0,0,0,0,0,0,0,0,0,1,
scooby_state_47de8d|46|0 1,0,0,0,0,0,0,0,0,0,0,0,0,0,0,1,
scooby_state_47dee0|21|0 1,0,0,0,0,0,0,0,0,0,0,0,0,0,0,1,
scooby_state_47de5b|11|-29 1,0,0,0,0,0,0,0,0,0,0,0,0,0,0,1,
scooby_state_47de8d|21|0 1,0,0,0,0,0,0,0,0,0,0,0,0,0,0,1,
scooby_state_47e143|59|0 1,0,0,0,0,0,0,0,0,0,0,0,0,0,0,1,
scooby_state_47e001|0|-18 1,0,0,0,0,0,0,0,0,0,0,0,0,0,0,1,
scooby_state_47de61|39|0 1,0,0,0,0,0,0,0,0,0,0,0,0,0,0,1,
scooby_state_47e0e4|51|0 1,0,0,0,0,0,0,0,0,0,0,0,0,0,0,1,
scooby_state_47e143|13|0 1,0,0,0,0,0,0,0,0,0,0,0,0,0,0,1,
scooby_state_47de3e|62|0 1,0,0,0,0,0,0,0,0,0,0,0,0,0,0,1,
scooby_state_47de3e|53|0 1,0,0,0,0,0,0,0,0,0,0,0,0,0,0,1,
scooby_state_47de5b|25|-29 1,0,0,0,0,0,0,0,0,0,0,0,0,0,0,1,
scooby_state_47e10f|46|0 1,0,0,0,0,0,0,0,0,0,0,0,0,0,0,1,
scooby_state_47e173|22|1 1,0,0,0,0,0,0,0,0,0,0,0,0,0,0,1,
scooby_state_47e0e4|47|32 1,0,0,0,0,0,0,0,0,0,0,0,0,0,0,1,
scooby_state_47e103|62|0 1,0,0,0,0,0,0,0,0,0,0,0,0,0,0,1,
scooby_state_47e103|49|-1 1,0,0,0,0,0,0,0,0,0,0,0,0,0,0,1,
scooby_state_47e10f|54|0 1,0,0,0,0,0,0,0,0,0,0,0,0,0,0,1,
scooby_state_47e103|13|0 1,0,0,0,0,0,0,0,0,0,0,0,0,0,0,1,
scooby_state_47e103|53|2 1,0,0,0,0,0,0,0,0,0,0,0,0,0,0,1,
scooby_state_47e10f|5|0 1,0,0,0,0,0,0,0,0,0,0,0,0,0,0,1,
scooby_state_47de3e|55|0 1,0,0,0,0,0,0,0,0,0,0,0,0,0,0,1,
scooby_state_47de61|60|0 1,0,0,0,0,0,0,0,0,0,0,0,0,0,0,1,
scooby_state_47dde8|55|0 1,0,0,0,0,0,0,0,0,0,0,0,0,0,0,1,
scooby_state_47e0bb|29|1 1,0,0,0,0,0,0,0,0,0,0,0,0,0,0,1,
scooby_state_47dece|61|0 1,0,0,0,0,0,0,0,0,0,0,0,0,0,0,1,
scooby_state_47e16e|49|0 1,0,0,0,0,0,0,0,0,0,0,0,0,0,0,1,
scooby_state_47dec4|46|0 1,0,0,0,0,0,0,0,0,0,0,0,0,0,0,1,
scooby_state_47e143|30|0 1,0,0,0,0,0,0,0,0,0,0,0,0,0,0,1,
scooby_state_47e103|31|0 1,0,0,0,0,0,0,0,0,0,0,0,0,0,0,1,
scooby_state_47e09f|2|-4 1,0,0,0,0,0,0,0,0,0,0,0,0,0,0,1,
scooby_state_47e16e|21|-30 1,0,0,0,0,0,0,0,0,0,0,0,0,0,0,1,
scooby_state_47e103|30|-1 1,0,0,0,0,0,0,0,0,0,0,0,0,0,0,1,
scooby_state_47dece|26|-29 1,0,0,0,0,0,0,0,0,0,0,0,0,0,0,1,
scooby_state_47de3e|60|0 1,0,0,0,0,0,0,0,0,0,0,0,0,0,0,1,
scooby_state_47de34|60|0 1,0,0,0,0,0,0,0,0,0,0,0,0,0,0,1,
scooby_state_47de5b|10|-29 1,0,0,0,0,0,0,0,0,0,0,0,0,0,0,1,
scooby_state_47e0bb|7|1 1,0,0,0,0,0,0,0,0,0,0,0,0,0,0,1,
scooby_state_47dea3|8|0 1,0,0,0,0,0,0,0,0,0,0,0,0,0,0,1,
scooby_state_47de61|54|0 1,0,0,0,0,0,0,0,0,0,0,0,0,0,0,1,
scooby_state_47e1c4|58|-2 1,0,0,0,0,0,0,0,0,0,0,0,0,0,0,1,
scooby_state_47dece|25|-29 1,0,0,0,0,0,0,0,0,0,0,0,0,0,0,1,
scooby_state_47de4c|58|0 1,0,0,0,0,0,0,0,0,0,0,0,0,0,0,1,
scooby_state_47de3e|18|0 1,0,0,0,0,0,0,0,0,0,0,0,0,0,0,1,
scooby_state_47dee0|50|0 1,0,0,0,0,0,0,0,0,0,0,0,0,0,0,1,
scooby_state_47e0bb|22|1 1,0,0,0,0,0,0,0,0,0,0,0,0,0,0,1,
scooby_state_47de3e|40|0 1,0,0,0,0,0,0,0,0,0,0,0,0,0,0,1,
scooby_state_47dea3|44|0 1,0,0,0,0,0,0,0,0,0,0,0,0,0,0,1,
scooby_state_47e10f|9|0 1,0,0,0,0,0,0,0,0,0,0,0,0,0,0,1,
scooby_state_47de34|55|0 1,0,0,0,0,0,0,0,0,0,0,0,0,0,0,1,
scooby_state_47e18b|13|0 1,0,0,0,0,0,0,0,0,0,0,0,0,0,0,1,
scooby_state_47e0e4|24|0 1,0,0,0,0,0,0,0,0,0,0,0,0,0,0,1,
scooby_state_47de34|19|0 1,0,0,0,0,0,0,0,0,0,0,0,0,0,0,1,
scooby_state_47de61|62|29 1,0,0,0,0,0,0,0,0,0,0,0,0,0,0,1,
scooby_state_47e0a9|60|0 1,0,0,0,0,0,0,0,0,0,0,0,0,0,0,1,
scooby_state_47e103|59|0 1,0,0,0,0,0,0,0,0,0,0,0,0,0,0,1,
scooby_state_47e143|25|0 1,0,0,0,0,0,0,0,0,0,0,0,0,0,0,1,
scooby_state_47dec4|43|0 1,0,0,0,0,0,0,0,0,0,0,0,0,0,0,1,
scooby_state_47de8d|50|0 1,0,0,0,0,0,0,0,0,0,0,0,0,0,0,1,
scooby_state_47de5b|18|-29 1,0,0,0,0,0,0,0,0,0,0,0,0,0,0,1,
scooby_state_47de4c|38|0 1,0,0,0,0,0,0,0,0,0,0,0,0,0,0,1,
scooby_state_47e173|8|1 1,0,0,0,0,0,0,0,0,0,0,0,0,0,0,1,
scooby_state_47de3e|5|0 1,0,0,0,0,0,0,0,0,0,0,0,0,0,0,1,
scooby_state_47dee0|54|-1 1,0,0,0,0,0,0,0,0,0,0,0,0,0,0,1,
scooby_state_47e15d|8|1 1,0,0,0,0,0,0,0,0,0,0,0,0,0,0,1,
scooby_state_47e173|1|1 1,0,0,0,0,0,0,0,0,0,0,0,0,0,0,1,
scooby_state_47e16e|34|0 1,0,0,0,0,0,0,0,0,0,0,0,0,0,0,1,
scooby_state_47e103|55|2 1,0,0,0,0,0,0,0,0,0,0,0,0,0,0,1,
scooby_state_47e18b|38|0 1,0,0,0,0,0,0,0,0,0,0,0,0,0,0,1,
scooby_state_47dece|18|-29 1,0,0,0,0,0,0,0,0,0,0,0,0,0,0,1,
scooby_state_47de4c|51|0 1,0,0,0,0,0,0,0,0,0,0,0,0,0,0,1,
scooby_state_47e143|5|0 1,0,0,0,0,0,0,0,0,0,0,0,0,0,0,1,
scooby_state_47dee0|4|0 1,0,0,0,0,0,0,0,0,0,0,0,0,0,0,1,
scooby_state_47e103|41|2 1,0,0,0,0,0,0,0,0,0,0,0,0,0,0,1,
scooby_state_47e182|6|1 1,0,0,0,0,0,0,0,0,0,0,0,0,0,0,1,
scooby_state_47e09f|26|0 1,0,0,0,0,0,0,0,0,0,0,0,0,0,0,1,
scooby_state_47e0a9|34|0 1,0,0,0,0,0,0,0,0,0,0,0,0,0,0,1,
scooby_state_47e124|52|0 1,0,0,0,0,0,0,0,0,0,0,0,0,0,0,1,
scooby_state_47e16e|14|-30 1,0,0,0,0,0,0,0,0,0,0,0,0,0,0,1,
scooby_state_47e124|51|0 1,0,0,0,0,0,0,0,0,0,0,0,0,0,0,1,
scooby_state_47e124|44|0 1,0,0,0,0,0,0,0,0,0,0,0,0,0,0,1,
scooby_state_47e15d|44|0 1,0,0,0,0,0,0,0,0,0,0,0,0,0,0,1,
scooby_state_47e103|7|-1 1,0,0,0,0,0,0,0,0,0,0,0,0,0,0,1,
scooby_state_47de81|58|1 1,0,0,0,0,0,0,0,0,0,0,0,0,0,0,1,
scooby_state_47e10f|47|0 1,0,0,0,0,0,0,0,0,0,0,0,0,0,0,1,
scooby_state_47e0a9|14|-30 1,0,0,0,0,0,0,0,0,0,0,0,0,0,0,1,
scooby_state_47e0c2|47|0 1,0,0,0,0,0,0,0,0,0,0,0,0,0,0,1,
scooby_state_47de8d|54|0 1,0,0,0,0,0,0,0,0,0,0,0,0,0,0,1,
scooby_state_47e0c2|4|0 1,0,0,0,0,0,0,0,0,0,0,0,0,0,0,1,
scooby_state_47e0b6|33|4 1,0,0,0,0,0,0,0,0,0,0,0,0,0,0,1,
scooby_state_47e103|27|2 1,0,0,0,0,0,0,0,0,0,0,0,0,0,0,1,
scooby_state_47e15d|23|0 1,0,0,0,0,0,0,0,0,0,0,0,0,0,0,1,
scooby_state_47de4c|44|0 1,0,0,0,0,0,0,0,0,0,0,0,0,0,0,1,
scooby_state_47e124|48|32 1,0,0,0,0,0,0,0,0,0,0,0,0,0,0,1,
scooby_state_47e10f|39|0 1,0,0,0,0,0,0,0,0,0,0,0,0,0,0,1,
scooby_state_47e0b6|24|4 1,0,0,0,0,0,0,0,0,0,0,0,0,0,0,1,
scooby_state_47e143|23|0 1,0,0,0,0,0,0,0,0,0,0,0,0,0,0,1,
scooby_state_47de3e|32|0 1,0,0,0,0,0,0,0,0,0,0,0,0,0,0,1,
scooby_state_47e103|6|2 1,0,0,0,0,0,0,0,0,0,0,0,0,0,0,1,
scooby_state_47e103|61|-1 1,0,0,0,0,0,0,0,0,0,0,0,0,0,0,1,
scooby_state_47de4c|43|0 1,0,0,0,0,0,0,0,0,0,0,0,0,0,0,1,
scooby_state_47e103|24|0 1,0,0,0,0,0,0,0,0,0,0,0,0,0,0,1,
scooby_state_47dee0|57|0 1,0,0,0,0,0,0,0,0,0,0,0,0,0,0,1,
scooby_state_47e18b|30|0 1,0,0,0,0,0,0,0,0,0,0,0,0,0,0,1,
scooby_state_47e1c4|58|0 1,0,0,0,0,0,0,0,0,0,0,0,0,0,0,1,
scooby_state_47e0c2|60|0 1,0,0,0,0,0,0,0,0,0,0,0,0,0,0,1,
scooby_state_47de61|40|0 1,0,0,0,0,0,0,0,0,0,0,0,0,0,0,1,
scooby_state_47e103|32|-1 1,0,0,0,0,0,0,0,0,0,0,0,0,0,0,1,
scooby_state_47e103|32|2 1,0,0,0,0,0,0,0,0,0,0,0,0,0,0,1,
scooby_state_47de4c|8|0 1,0,0,0,0,0,0,0,0,0,0,0,0,0,0,1,
scooby_state_47dee0|53|0 1,0,0,0,0,0,0,0,0,0,0,0,0,0,0,1,
scooby_state_47e18b|18|0 1,0,0,0,0,0,0,0,0,0,0,0,0,0,0,1,
scooby_state_47de34|4|0 1,0,0,0,0,0,0,0,0,0,0,0,0,0,0,1,
scooby_state_47dea3|57|0 1,0,0,0,0,0,0,0,0,0,0,0,0,0,0,1,
scooby_state_47de5b|24|-29 1,0,0,0,0,0,0,0,0,0,0,0,0,0,0,1,
scooby_state_47de4c|57|0 1,0,0,0,0,0,0,0,0,0,0,0,0,0,0,1,
scooby_state_47e143|63|0 1,0,0,0,0,0,0,0,0,0,0,0,0,0,0,1,
scooby_state_47de34|53|0 1,0,0,0,0,0,0,0,0,0,0,0,0,0,0,1,
scooby_state_47de3e|4|0 1,0,0,0,0,0,0,0,0,0,0,0,0,0,0,1,
scooby_state_47dece|39|0 1,0,0,0,0,0,0,0,0,0,0,0,0,0,0,1,
scooby_state_47de61|33|0 1,0,0,0,0,0,0,0,0,0,0,0,0,0,0,1,
scooby_state_47de5b|39|0 1,0,0,0,0,0,0,0,0,0,0,0,0,0,0,1,
scooby_state_47dec4|35|0 1,0,0,0,0,0,0,0,0,0,0,0,0,0,0,1,
scooby_state_47e124|33|32 1,0,0,0,0,0,0,0,0,0,0,0,0,0,0,1,
scooby_state_47e103|62|2 1,0,0,0,0,0,0,0,0,0,0,0,0,0,0,1,
scooby_state_47e0a9|21|-30 1,0,0,0,0,0,0,0,0,0,0,0,0,0,0,1,
scooby_state_47e16e|60|0 1,0,0,0,0,0,0,0,0,0,0,0,0,0,0,1,
scooby_state_47e16e|35|0 1,0,0,0,0,0,0,0,0,0,0,0,0,0,0,1,
scooby_state_47e4d8|19|18 1,0,0,0,0,0,0,0,0,0,0,0,0,0,0,1,
scooby_state_47e10f|4|0 1,0,0,0,0,0,0,0,0,0,0,0,0,0,0,1,
scooby_state_47e0c2|33|0 1,0,0,0,0,0,0,0,0,0,0,0,0,0,0,1,
scooby_state_47e0c2|55|0 1,0,0,0,0,0,0,0,0,0,0,0,0,0,0,1,
scooby_state_47de61|42|33 1,0,0,0,0,0,0,0,0,0,0,0,0,0,0,1,
scooby_state_47e16e|28|-30 1,0,0,0,0,0,0,0,0,0,0,0,0,0,0,1,
scooby_state_47e173|29|1 1,0,0,0,0,0,0,0,0,0,0,0,0,0,0,1,
scooby_state_47e10f|61|0 1,0,0,0,0,0,0,0,0,0,0,0,0,0,0,1,
scooby_state_47e0a9|0|-30 1,0,0,0,0,0,0,0,0,0,0,0,0,0,0,1,
scooby_state_47e0c2|10|0 1,0,0,0,0,0,0,0,0,0,0,0,0,0,0,1,
scooby_state_47e103|29|2 1,0,0,0,0,0,0,0,0,0,0,0,0,0,0,1,
scooby_state_47e18b|55|0 1,0,0,0,0,0,0,0,0,0,0,0,0,0,0,1,
scooby_state_47e0c2|61|0 1,0,0,0,0,0,0,0,0,0,0,0,0,0,0,1,
scooby_state_47e103|53|-1 1,0,0,0,0,0,0,0,0,0,0,0,0,0,0,1,
scooby_state_47e09f|24|4 1,0,0,0,0,0,0,0,0,0,0,0,0,0,0,1,
scooby_state_47e103|63|0 1,0,0,0,0,0,0,0,0,0,0,0,0,0,0,1,
scooby_state_47e143|37|0 1,0,0,0,0,0,0,0,0,0,0,0,0,0,0,1,
scooby_state_47e15d|37|0 1,0,0,0,0,0,0,0,0,0,0,0,0,0,0,1,
scooby_state_47dece|10|-29 1,0,0,0,0,0,0,0,0,0,0,0,0,0,0,1,
scooby_state_47e0e4|62|32 1,0,0,0,0,0,0,0,0,0,0,0,0,0,0,1,
scooby_state_47e0e4|38|0 1,0,0,0,0,0,0,0,0,0,0,0,0,0,0,1,
scooby_state_47e0bb|16|1 1,0,0,0,0,0,0,0,0,0,0,0,0,0,0,1,
scooby_state_47de00|56|1 1,0,0,0,0,0,0,0,0,0,0,0,0,0,0,1,
scooby_state_47de34|48|0 1,0,0,0,0,0,0,0,0,0,0,0,0,0,0,1,
scooby_state_47e124|37|0 1,0,0,0,0,0,0,0,0,0,0,0,0,0,0,1,
scooby_state_47e0a9|63|0 1,0,0,0,0,0,0,0,0,0,0,0,0,0,0,1,
scooby_state_47e0c2|32|0 1,0,0,0,0,0,0,0,0,0,0,0,0,0,0,1,
scooby_state_47e0bb|28|1 1,0,0,0,0,0,0,0,0,0,0,0,0,0,0,1,
scooby_state_47e103|63|2 1,0,0,0,0,0,0,0,0,0,0,0,0,0,0,1,
scooby_state_47e18b|62|0 1,0,0,0,0,0,0,0,0,0,0,0,0,0,0,1,
scooby_state_47de61|61|0 1,0,0,0,0,0,0,0,0,0,0,0,0,0,0,1,
scooby_state_47de8d|39|0 1,0,0,0,0,0,0,0,0,0,0,0,0,0,0,1,
scooby_state_47e15d|57|0 1,0,0,0,0,0,0,0,0,0,0,0,0,0,0,1,
scooby_state_47e103|25|-1 1,0,0,0,0,0,0,0,0,0,0,0,0,0,0,1,
scooby_state_47e173|28|1 1,0,0,0,0,0,0,0,0,0,0,0,0,0,0,1,
scooby_state_47de45|57|1 1,0,0,0,0,0,0,0,0,0,0,0,0,0,0,1,
scooby_state_47e16e|27|-30 1,0,0,0,0,0,0,0,0,0,0,0,0,0,0,1,
scooby_state_47e10f|33|0 1,0,0,0,0,0,0,0,0,0,0,0,0,0,0,1,
scooby_state_47e0e4|57|0 1,0,0,0,0,0,0,0,0,0,0,0,0,0,0,1,
scooby_state_47e103|9|2 1,0,0,0,0,0,0,0,0,0,0,0,0,0,0,1,
scooby_state_47de3e|11|0 1,0,0,0,0,0,0,0,0,0,0,0,0,0,0,1,
scooby_state_47e0e4|55|32 1,0,0,0,0,0,0,0,0,0,0,0,0,0,0,1,
scooby_state_47e10f|31|0 1,0,0,0,0,0,0,0,0,0,0,0,0,0,0,1,
scooby_state_47e103|48|2 1,0,0,0,0,0,0,0,0,0,0,0,0,0,0,1,
scooby_state_47e18b|4|2 1,0,0,0,0,0,0,0,0,0,0,0,0,0,0,1,

scooby_action_0_deg_dist 0,290,0,0,0,0,0,0,0,0,0,0,0,0,0,0,
scooby_action_4_deg_dist 0,296,0,0,0,0,0,0,0,0,0,0,0,0,0,0,
scooby_action_3_deg_dist 0,840,0,0,0,0,0,0,0,0,0,0,0,0,0,0,
scooby_action_32_deg_dist 0,239,0,0,0,0,0,0,0,0,0,0,0,0,0,0,
scooby_action_5_deg_dist 0,779,0,0,0,0,0,0,0,0,0,0,0,0,0,0,
scooby_action_1_deg_dist 0,118249,79004,0,202745,0,1901583,0,0,0,0,0,0,0,0,0,
scooby_action_30_deg_dist 0,276,0,0,0,0,0,0,0,0,0,0,0,0,0,0,
scooby_action_-3_deg_dist 0,286,0,0,0,0,0,0,0,0,0,0,0,0,0,0,
scooby_action_10_deg_dist 0,318,0,0,0,0,0,0,0,0,0,0,0,0,0,0,
scooby_action_-1_deg_dist 0,405,0,0,0,0,0,0,0,0,0,0,0,0,0,0,
scooby_action_23_deg_dist 0,285,0,0,0,0,0,0,0,0,0,0,0,0,0,0,
scooby_action_-6_deg_dist 0,263,0,0,0,0,0,0,0,0,0,0,0,0,0,0,
scooby_action_11_deg_dist 0,283,0,0,0,0,0,0,0,0,0,0,0,0,0,0,
scooby_action_22_deg_dist 0,280,0,0,0,0,0,0,0,0,0,0,0,0,0,0,
scooby_action_12_deg_dist 0,281,0,0,0,0,0,0,0,0,0,0,0,0,0,0,

scooby_track_called 2306702
scooby_track_same_address 3230
scooby_track_evict 2303216

scooby_reward_demand_called 2306702
scooby_reward_demand_pt_not_found 130415
scooby_reward_demand_pt_found 2176287
scooby_reward_demand_pt_found_total 2176287
scooby_reward_demand_has_reward 2
scooby_reward_train_called 90566
scooby_reward_assign_reward_called 2303455
scooby_reward_no_pref 290
scooby_reward_incorrect 90276
scooby_reward_correct_untimely 1900193
scooby_reward_correct_timely 276092
scooby_reward_out_of_bounds 36604
scooby_reward_tracker_hit 0

scooby_reward_none_low_bw 290
scooby_reward_none_high_bw 0
scooby_reward_incorrect_low_bw 90276
scooby_reward_incorrect_high_bw 0
scooby_reward_correct_untimely_low_bw 1900193
scooby_reward_correct_untimely_high_bw 0
scooby_reward_correct_timely_low_bw 276092
scooby_reward_correct_timely_high_bw 0
scooby_reward_out_of_bounds_low_bw 36604
scooby_reward_out_of_bounds_high_bw 0
scooby_reward_tracker_hit_low_bw 0
scooby_reward_tracker_hit_high_bw 0

scooby_reward_1 0,89910,1899382,274457,35871,0,
scooby_reward_3 0,23,160,108,13,0,
scooby_reward_4 0,20,103,148,25,0,
scooby_reward_5 0,122,467,164,26,0,
scooby_reward_10 0,25,0,235,58,0,
scooby_reward_11 0,23,0,213,46,0,
scooby_reward_12 0,16,0,200,65,0,
scooby_reward_22 0,22,1,148,108,0,
scooby_reward_23 0,12,0,173,100,0,
scooby_reward_30 0,9,0,145,122,0,
scooby_reward_32 0,8,0,101,130,0,
scooby_reward_-1 0,30,80,0,7,0,
scooby_reward_-3 0,33,0,0,14,0,
scooby_reward_-6 0,23,0,0,19,0,
scooby_reward_0 290,0,0,0,0,0,

scooby_train_called 2303215
scooby_train_compute_reward 90566

scooby_register_fill_called 2282814
scooby_register_fill_set 289702
scooby_register_fill_set_total 289702

scooby_register_prefetch_hit_called 5918650
scooby_register_prefetch_hit_set 1866015
scooby_register_prefetch_hit_set_total 1866015

scooby_pref_issue_scooby 11732735

learning_engine_featurewise.action.called 2306702
learning_engine_featurewise.action.explore 4194
learning_engine_featurewise.action.exploit 2302508
learning_engine_featurewise.action.fallback 0
learning_engine_featurewise.action.dyn_fallback_saved_bw 0
learning_engine_featurewise.action.dyn_fallback_saved_bw_acc 167
learning_engine_featurewise.action.index_1_explored 271
learning_engine_featurewise.action.index_1_exploited 2301310
learning_engine_featurewise.action.index_3_explored 298
learning_engine_featurewise.action.index_3_exploited 542
learning_engine_featurewise.action.index_4_explored 294
learning_engine_featurewise.action.index_4_exploited 2
learning_engine_featurewise.action.index_5_explored 259
learning_engine_featurewise.action.index_5_exploited 520
learning_engine_featurewise.action.index_10_explored 316
learning_engine_featurewise.action.index_10_exploited 2
learning_engine_featurewise.action.index_11_explored 281
learning_engine_featurewise.action.index_11_exploited 2
learning_engine_featurewise.action.index_12_explored 279
learning_engine_featurewise.action.index_12_exploited 2
learning_engine_featurewise.action.index_22_explored 278
learning_engine_featurewise.action.index_22_exploited 2
learning_engine_featurewise.action.index_23_explored 283
learning_engine_featurewise.action.index_23_exploited 2
learning_engine_featurewise.action.index_30_explored 274
learning_engine_featurewise.action.index_30_exploited 2
learning_engine_featurewise.action.index_32_explored 237
learning_engine_featurewise.action.index_32_exploited 2
learning_engine_featurewise.action.index_-1_explored 285
learning_engine_featurewise.action.index_-1_exploited 120
learning_engine_featurewise.action.index_-3_explored 286
learning_engine_featurewise.action.index_-3_exploited 0
learning_engine_featurewise.action.index_-6_explored 263
learning_engine_featurewise.action.index_-6_exploited 0
learning_engine_featurewise.action.index_0_explored 290
learning_engine_featurewise.action.index_0_exploited 0
learning_engine_featurewise.learn.called 2303215
learning_engine_featurewise.learn.su_skip_PC 0
learning_engine_featurewise.learn.su_skip_PC_Delta 0

learning_engine_featurewise.q_value_histogram.bucket_0 0
learning_engine_featurewise.q_value_histogram.bucket_1 0
learning_engine_featurewise.q_value_histogram.bucket_2 0
learning_engine_featurewise.q_value_histogram.bucket_3 0
learning_engine_featurewise.q_value_histogram.bucket_4 1720
learning_engine_featurewise.q_value_histogram.bucket_5 4283
learning_engine_featurewise.q_value_histogram.bucket_6 2296505
learning_engine_featurewise.q_value_histogram.bucket_7 0

learning_engine_featurewise.consensus.total 2302508
learning_engine_featurewise.consensus.feature_align_PC 2300446
learning_engine_featurewise.consensus.feature_align_PC_ratio 1.00
learning_engine_featurewise.consensus.feature_align_PC_Delta 2301753
learning_engine_featurewise.consensus.feature_align_PC_Delta_ratio 1.00
learning_engine_featurewise.consensus.feature_align_all 2299691
learning_engine_featurewise.consensus.feature_align_all_ratio 1.00

learning_engine_featurewise.feature_PC_min_weight 1000000.00000000
learning_engine_featurewise.feature_PC_max_weight 0.00000000
learning_engine_featurewise.feature_PC_Delta_min_weight 1000000.00000000
learning_engine_featurewise.feature_PC_Delta_max_weight 0.00000000
unique_pcs 68
unique_pages 29749
unique_trigger_pcs 42
total_bitmaps_seen 0
unique_bitmaps_seen 0

scooby_bw_epochs 311475
scooby_bw_level_0 53660
scooby_bw_level_1 58910
scooby_bw_level_2 67475
scooby_bw_level_3 131430

scooby_ipc_epochs 0
scooby_ipc_level_0 0
scooby_ipc_level_1 0
scooby_ipc_level_2 0
scooby_ipc_level_3 0

scooby_cache_acc_epochs 75489
scooby_cache_acc_level_0 1
scooby_cache_acc_level_1 0
scooby_cache_acc_level_2 7
scooby_cache_acc_level_3 143
scooby_cache_acc_level_4 702
scooby_cache_acc_level_5 2131
scooby_cache_acc_level_6 4445
scooby_cache_acc_level_7 7797
scooby_cache_acc_level_8 13524
scooby_cache_acc_level_9 46739

Channel_0_RQ_row_buffer_hit 1186275
Channel_0_RQ_row_buffer_miss 883647
Channel_0_WQ_row_buffer_hit 119960
Channel_0_WQ_row_buffer_miss 597731
Channel_0_WQ_full 0
Channel_0_dbus_congested 2132899

avg_congested_cycle 10

DRAM_bw_pochs 311475
DRAM_bw_level_0 53660
DRAM_bw_level_1 58910
DRAM_bw_level_2 67475
DRAM_bw_level_3 131430
