*************************************************
   ChampSim Multicore Out-of-Order Simulator
   Last compiled: Apr  3 2025 20:54:34
*************************************************
parsing config file: /home/zir/Pythia/config/nopref.ini

trace_0 /home/zir/ChampSim/ML-DPC/ChampSimTraces/spec06/429.mcf-s2.trace.gz
adding L2C_PREFETCHER: NONE
Initialize SHIP state
warmup_instructions 10000000
simulation_instructions 50000000
champsim_seed 165
measure_ipc 0
measure_ipc_epoch 1000
measure_dram_bw 1
measure_dram_bw_epoch 256
measure_cache_acc 1
measure_cache_acc_epoch 1024
l1d_perfect 0
l2c_perfect 0
llc_perfect 0
l1d_semi_perfect 0
l2c_semi_perfect 0
llc_semi_perfect 0
semi_perfect_cache_page_buffer_size 64

num_cpus 1
cpu_freq 4000
dram_io_freq 2400
page_size 4096
block_size 64
max_read_per_cycle 8
max_fill_per_cycle 1
dram_channels 1
log2_dram_channels 0
dram_ranks 1
dram_banks 8
dram_rows 65536
dram_columns 128
dram_row_size 8
dram_size 4096
dram_pages 1048576

fetch_width 6
decode_width 6
exec_width 4
lq_width 2
sq_width 2
retire_width 4
scheduler_size 128
branch_mispredict_penalty 20
rob_size 256
lq_size 72
sq_size 56
num_instr_destinations_sparc 4
num_instr_destinations 2
num_instr_sources 4

itlb_set 16
itlb_way 8
itlb_rq_size 16
itlb_wq_size 16
itlb_pq_size 0
itlb_mshr_size 8
itlb_latency 1

dtlb_set 16
dtlb_way 4
dtlb_rq_size 16
dtlb_wq_size 16
dtlb_pq_size 0
dtlb_mshr_size 8
dtlb_latency 1

stlb_set 128
stlb_way 12
stlb_rq_size 32
stlb_wq_size 32
stlb_pq_size 0
stlb_mshr_size 16
stlb_latency 8

l1i_size 32
l1i_set 64
l1i_way 8
l1i_rq_size 64
l1i_wq_size 64
l1i_pq_size 8
l1i_mshr_size 8
l1i_latency 1

l1d_size 32
l1d_set 64
l1d_way 8
l1d_rq_size 64
l1d_wq_size 64
l1d_pq_size 8
l1d_mshr_size 16
l1d_latency 4

l2c_size 256
l2c_set 512
l2c_way 8
l2c_rq_size 32
l2c_wq_size 32
l2c_pq_size 32
l2c_mshr_size 32
l2c_latency 10

llc_size 2048
llc_set 2048
llc_way 16
llc_rq_size 32
llc_wq_size 32
llc_pq_size 32
llc_mshr_size 64
llc_latency 20

dram_channel_width 8
dram_wq_size 64
dram_rq_size 64
tRP 15
tRCD 15
tCAS 12.5
dram_dbus_turn_around_time 30
dram_write_high_wm 56
dram_write_low_wm 48
min_dram_writes_per_switch 16
dram_mtps 2400
dram_dbus_return_time 13


Heartbeat CPU  0 instructions:    1000001 cycles:     989255 heartbeat IPC: 1.01086 cumulative IPC: 1.01086 (Simulation time: 0 hr 0 min 1 sec) 
Heartbeat CPU  0 instructions:    2000002 cycles:    1964274 heartbeat IPC: 1.02562 cumulative IPC: 1.01819 (Simulation time: 0 hr 0 min 2 sec) 
Heartbeat CPU  0 instructions:    3000000 cycles:    2842811 heartbeat IPC: 1.13825 cumulative IPC: 1.05529 (Simulation time: 0 hr 0 min 4 sec) 
Heartbeat CPU  0 instructions:    4000000 cycles:    3695295 heartbeat IPC: 1.17304 cumulative IPC: 1.08246 (Simulation time: 0 hr 0 min 5 sec) 
Heartbeat CPU  0 instructions:    5000000 cycles:    4648079 heartbeat IPC: 1.04956 cumulative IPC: 1.07571 (Simulation time: 0 hr 0 min 6 sec) 
Heartbeat CPU  0 instructions:    6000003 cycles:    5617703 heartbeat IPC: 1.03133 cumulative IPC: 1.06805 (Simulation time: 0 hr 0 min 8 sec) 
Heartbeat CPU  0 instructions:    7000002 cycles:    6409096 heartbeat IPC: 1.26359 cumulative IPC: 1.09220 (Simulation time: 0 hr 0 min 9 sec) 
Heartbeat CPU  0 instructions:    8000000 cycles:    7378938 heartbeat IPC: 1.03109 cumulative IPC: 1.08417 (Simulation time: 0 hr 0 min 10 sec) 
Heartbeat CPU  0 instructions:    9000001 cycles:    8275415 heartbeat IPC: 1.11548 cumulative IPC: 1.08756 (Simulation time: 0 hr 0 min 12 sec) 
Heartbeat CPU  0 instructions:   10000001 cycles:    9073863 heartbeat IPC: 1.25243 cumulative IPC: 1.10207 (Simulation time: 0 hr 0 min 13 sec) 

Warmup complete CPU  0 instructions:   10000001 cycles:    9073863 (Simulation time: 0 hr 0 min 13 sec) 

Heartbeat CPU  0 instructions:   11000002 cycles:   23406724 heartbeat IPC: 0.06977 cumulative IPC: 0.06977 (Simulation time: 0 hr 0 min 18 sec) 
Heartbeat CPU  0 instructions:   12000000 cycles:   31099862 heartbeat IPC: 0.12999 cumulative IPC: 0.09080 (Simulation time: 0 hr 0 min 21 sec) 
Heartbeat CPU  0 instructions:   13000000 cycles:   41227782 heartbeat IPC: 0.09874 cumulative IPC: 0.09330 (Simulation time: 0 hr 0 min 25 sec) 
Heartbeat CPU  0 instructions:   14000003 cycles:   57610933 heartbeat IPC: 0.06104 cumulative IPC: 0.08241 (Simulation time: 0 hr 0 min 31 sec) 
Heartbeat CPU  0 instructions:   15000000 cycles:   65200437 heartbeat IPC: 0.13176 cumulative IPC: 0.08908 (Simulation time: 0 hr 0 min 34 sec) 
Heartbeat CPU  0 instructions:   16000000 cycles:   72382047 heartbeat IPC: 0.13924 cumulative IPC: 0.09477 (Simulation time: 0 hr 0 min 38 sec) 
Heartbeat CPU  0 instructions:   17000002 cycles:   88908862 heartbeat IPC: 0.06051 cumulative IPC: 0.08768 (Simulation time: 0 hr 0 min 43 sec) 
Heartbeat CPU  0 instructions:   18000000 cycles:   97135309 heartbeat IPC: 0.12156 cumulative IPC: 0.09085 (Simulation time: 0 hr 0 min 47 sec) 
Heartbeat CPU  0 instructions:   19000001 cycles:  104840495 heartbeat IPC: 0.12978 cumulative IPC: 0.09398 (Simulation time: 0 hr 0 min 50 sec) 
Heartbeat CPU  0 instructions:   20000000 cycles:  120899996 heartbeat IPC: 0.06227 cumulative IPC: 0.08942 (Simulation time: 0 hr 0 min 56 sec) 
Heartbeat CPU  0 instructions:   21000001 cycles:  138242049 heartbeat IPC: 0.05766 cumulative IPC: 0.08516 (Simulation time: 0 hr 1 min 1 sec) 
Heartbeat CPU  0 instructions:   22000002 cycles:  145600454 heartbeat IPC: 0.13590 cumulative IPC: 0.08789 (Simulation time: 0 hr 1 min 5 sec) 
Heartbeat CPU  0 instructions:   23000001 cycles:  152758592 heartbeat IPC: 0.13970 cumulative IPC: 0.09048 (Simulation time: 0 hr 1 min 8 sec) 
Heartbeat CPU  0 instructions:   24000000 cycles:  167202135 heartbeat IPC: 0.06924 cumulative IPC: 0.08854 (Simulation time: 0 hr 1 min 13 sec) 
Heartbeat CPU  0 instructions:   25000002 cycles:  177631385 heartbeat IPC: 0.09588 cumulative IPC: 0.08899 (Simulation time: 0 hr 1 min 17 sec) 
Heartbeat CPU  0 instructions:   26000000 cycles:  184793931 heartbeat IPC: 0.13961 cumulative IPC: 0.09105 (Simulation time: 0 hr 1 min 21 sec) 
Heartbeat CPU  0 instructions:   27000000 cycles:  196570785 heartbeat IPC: 0.08491 cumulative IPC: 0.09067 (Simulation time: 0 hr 1 min 25 sec) 
Heartbeat CPU  0 instructions:   28000000 cycles:  210067959 heartbeat IPC: 0.07409 cumulative IPC: 0.08955 (Simulation time: 0 hr 1 min 30 sec) 
Heartbeat CPU  0 instructions:   29000001 cycles:  218090141 heartbeat IPC: 0.12465 cumulative IPC: 0.09090 (Simulation time: 0 hr 1 min 33 sec) 
Heartbeat CPU  0 instructions:   30000000 cycles:  228215433 heartbeat IPC: 0.09876 cumulative IPC: 0.09127 (Simulation time: 0 hr 1 min 37 sec) 
Heartbeat CPU  0 instructions:   31000001 cycles:  243495921 heartbeat IPC: 0.06544 cumulative IPC: 0.08958 (Simulation time: 0 hr 1 min 42 sec) 
Heartbeat CPU  0 instructions:   32000000 cycles:  251307047 heartbeat IPC: 0.12802 cumulative IPC: 0.09082 (Simulation time: 0 hr 1 min 46 sec) 
Heartbeat CPU  0 instructions:   33000001 cycles:  261055657 heartbeat IPC: 0.10258 cumulative IPC: 0.09128 (Simulation time: 0 hr 1 min 50 sec) 
Heartbeat CPU  0 instructions:   34000000 cycles:  277490620 heartbeat IPC: 0.06085 cumulative IPC: 0.08941 (Simulation time: 0 hr 1 min 55 sec) 
Heartbeat CPU  0 instructions:   35000000 cycles:  287036949 heartbeat IPC: 0.10475 cumulative IPC: 0.08994 (Simulation time: 0 hr 1 min 59 sec) 
Heartbeat CPU  0 instructions:   36000000 cycles:  296583444 heartbeat IPC: 0.10475 cumulative IPC: 0.09043 (Simulation time: 0 hr 2 min 3 sec) 
Heartbeat CPU  0 instructions:   37000002 cycles:  308737914 heartbeat IPC: 0.08227 cumulative IPC: 0.09010 (Simulation time: 0 hr 2 min 7 sec) 
Heartbeat CPU  0 instructions:   38000000 cycles:  322037683 heartbeat IPC: 0.07519 cumulative IPC: 0.08947 (Simulation time: 0 hr 2 min 12 sec) 
Heartbeat CPU  0 instructions:   39000000 cycles:  329544610 heartbeat IPC: 0.13321 cumulative IPC: 0.09049 (Simulation time: 0 hr 2 min 15 sec) 
Heartbeat CPU  0 instructions:   40000000 cycles:  338381816 heartbeat IPC: 0.11316 cumulative IPC: 0.09110 (Simulation time: 0 hr 2 min 18 sec) 
Heartbeat CPU  0 instructions:   41000000 cycles:  354473229 heartbeat IPC: 0.06214 cumulative IPC: 0.08975 (Simulation time: 0 hr 2 min 24 sec) 
Heartbeat CPU  0 instructions:   42000001 cycles:  362543525 heartbeat IPC: 0.12391 cumulative IPC: 0.09053 (Simulation time: 0 hr 2 min 27 sec) 
Heartbeat CPU  0 instructions:   43000000 cycles:  369863911 heartbeat IPC: 0.13660 cumulative IPC: 0.09147 (Simulation time: 0 hr 2 min 30 sec) 
Heartbeat CPU  0 instructions:   44000000 cycles:  384711114 heartbeat IPC: 0.06735 cumulative IPC: 0.09051 (Simulation time: 0 hr 2 min 35 sec) 
Heartbeat CPU  0 instructions:   45000001 cycles:  394762196 heartbeat IPC: 0.09949 cumulative IPC: 0.09075 (Simulation time: 0 hr 2 min 39 sec) 
Heartbeat CPU  0 instructions:   46000001 cycles:  402203039 heartbeat IPC: 0.13439 cumulative IPC: 0.09157 (Simulation time: 0 hr 2 min 42 sec) 
Heartbeat CPU  0 instructions:   47000002 cycles:  413781074 heartbeat IPC: 0.08637 cumulative IPC: 0.09142 (Simulation time: 0 hr 2 min 46 sec) 
Heartbeat CPU  0 instructions:   48000000 cycles:  427330652 heartbeat IPC: 0.07380 cumulative IPC: 0.09085 (Simulation time: 0 hr 2 min 51 sec) 
Heartbeat CPU  0 instructions:   49000000 cycles:  435301539 heartbeat IPC: 0.12546 cumulative IPC: 0.09150 (Simulation time: 0 hr 2 min 54 sec) 
Heartbeat CPU  0 instructions:   50000001 cycles:  444652088 heartbeat IPC: 0.10695 cumulative IPC: 0.09183 (Simulation time: 0 hr 2 min 58 sec) 
Heartbeat CPU  0 instructions:   51000001 cycles:  460711415 heartbeat IPC: 0.06227 cumulative IPC: 0.09078 (Simulation time: 0 hr 3 min 3 sec) 
Heartbeat CPU  0 instructions:   52000000 cycles:  469286223 heartbeat IPC: 0.11662 cumulative IPC: 0.09126 (Simulation time: 0 hr 3 min 7 sec) 
Heartbeat CPU  0 instructions:   53000000 cycles:  477076098 heartbeat IPC: 0.12837 cumulative IPC: 0.09188 (Simulation time: 0 hr 3 min 10 sec) 
Heartbeat CPU  0 instructions:   54000002 cycles:  493875715 heartbeat IPC: 0.05953 cumulative IPC: 0.09076 (Simulation time: 0 hr 3 min 16 sec) 
Heartbeat CPU  0 instructions:   55000002 cycles:  502285894 heartbeat IPC: 0.11890 cumulative IPC: 0.09124 (Simulation time: 0 hr 3 min 19 sec) 
Heartbeat CPU  0 instructions:   56000000 cycles:  510141371 heartbeat IPC: 0.12730 cumulative IPC: 0.09180 (Simulation time: 0 hr 3 min 23 sec) 
Heartbeat CPU  0 instructions:   57000000 cycles:  525062767 heartbeat IPC: 0.06702 cumulative IPC: 0.09109 (Simulation time: 0 hr 3 min 27 sec) 
Heartbeat CPU  0 instructions:   58000000 cycles:  535547406 heartbeat IPC: 0.09538 cumulative IPC: 0.09117 (Simulation time: 0 hr 3 min 32 sec) 
Heartbeat CPU  0 instructions:   59000002 cycles:  543509519 heartbeat IPC: 0.12560 cumulative IPC: 0.09169 (Simulation time: 0 hr 3 min 35 sec) 
Heartbeat CPU  0 instructions:   60000000 cycles:  557072595 heartbeat IPC: 0.07373 cumulative IPC: 0.09124 (Simulation time: 0 hr 3 min 40 sec) 
Finished CPU 0 instructions: 50000000 cycles: 547998745 cumulative IPC: 0.09124 (Simulation time: 0 hr 3 min 40 sec) 

ChampSim completed all CPUs

[ROI Statistics]
Core_0_instructions 50000000
Core_0_cycles 547998745
Core_0_IPC 0.09124

Core_0_branch_prediction_accuracy 95.13898
Core_0_branch_MPKI 13.10176
Core_0_average_ROB_occupancy_at_mispredict 63.15075

Core_0_L1D_total_access 12927963
Core_0_L1D_total_hit 6887501
Core_0_L1D_total_miss 6040462
Core_0_L1D_loads 10418349
Core_0_L1D_load_hit 4557539
Core_0_L1D_load_miss 5860810
Core_0_L1D_RFOs 2509614
Core_0_L1D_RFO_hit 2329962
Core_0_L1D_RFO_miss 179652
Core_0_L1D_prefetches 0
Core_0_L1D_prefetch_hit 0
Core_0_L1D_prefetch_miss 0
Core_0_L1D_writebacks 0
Core_0_L1D_writeback_hit 0
Core_0_L1D_writeback_miss 0
Core_0_L1D_prefetch_requested 0
Core_0_L1D_prefetch_dropped 0
Core_0_L1D_prefetch_issued 0
Core_0_L1D_prefetch_filled 0
Core_0_L1D_prefetch_useful 0
Core_0_L1D_prefetch_useless 0
Core_0_L1D_prefetch_late 0
Core_0_L1D_average_miss_latency 216.46719

Core_0_L1D_rq_access 17622400
Core_0_L1D_rq_forward 0
Core_0_L1D_rq_merged 6971265
Core_0_L1D_rq_to_cache 10651135
Core_0_L1D_rq_full 0

Core_0_L1D_wq_access 2809770
Core_0_L1D_wq_forward 0
Core_0_L1D_wq_merged 213585
Core_0_L1D_wq_to_cache 2596185
Core_0_L1D_wq_full 0

Core_0_L1D_pq_access 0
Core_0_L1D_pq_forward 0
Core_0_L1D_pq_merged 0
Core_0_L1D_pq_to_cache 0
Core_0_L1D_pq_full 0

Core_0_L1D_acc_epochs 480028
Core_0_L1D_acc_level_0 480028
Core_0_L1D_acc_level_1 0
Core_0_L1D_acc_level_2 0
Core_0_L1D_acc_level_3 0
Core_0_L1D_acc_level_4 0
Core_0_L1D_acc_level_5 0
Core_0_L1D_acc_level_6 0
Core_0_L1D_acc_level_7 0
Core_0_L1D_acc_level_8 0
Core_0_L1D_acc_level_9 0

Core_0_L1I_total_access 10980954
Core_0_L1I_total_hit 10980954
Core_0_L1I_total_miss 0
Core_0_L1I_loads 10980954
Core_0_L1I_load_hit 10980954
Core_0_L1I_load_miss 0
Core_0_L1I_RFOs 0
Core_0_L1I_RFO_hit 0
Core_0_L1I_RFO_miss 0
Core_0_L1I_prefetches 0
Core_0_L1I_prefetch_hit 0
Core_0_L1I_prefetch_miss 0
Core_0_L1I_writebacks 0
Core_0_L1I_writeback_hit 0
Core_0_L1I_writeback_miss 0
Core_0_L1I_prefetch_requested 0
Core_0_L1I_prefetch_dropped 0
Core_0_L1I_prefetch_issued 0
Core_0_L1I_prefetch_filled 0
Core_0_L1I_prefetch_useful 0
Core_0_L1I_prefetch_useless 0
Core_0_L1I_prefetch_late 0
Core_0_L1I_average_miss_latency -nan

Core_0_L1I_rq_access 50000250
Core_0_L1I_rq_forward 0
Core_0_L1I_rq_merged 39019296
Core_0_L1I_rq_to_cache 10980954
Core_0_L1I_rq_full 0

Core_0_L1I_wq_access 0
Core_0_L1I_wq_forward 0
Core_0_L1I_wq_merged 0
Core_0_L1I_wq_to_cache 0
Core_0_L1I_wq_full 0

Core_0_L1I_pq_access 0
Core_0_L1I_pq_forward 0
Core_0_L1I_pq_merged 0
Core_0_L1I_pq_to_cache 0
Core_0_L1I_pq_full 0

Core_0_L1I_acc_epochs 480028
Core_0_L1I_acc_level_0 480028
Core_0_L1I_acc_level_1 0
Core_0_L1I_acc_level_2 0
Core_0_L1I_acc_level_3 0
Core_0_L1I_acc_level_4 0
Core_0_L1I_acc_level_5 0
Core_0_L1I_acc_level_6 0
Core_0_L1I_acc_level_7 0
Core_0_L1I_acc_level_8 0
Core_0_L1I_acc_level_9 0

Core_0_L2C_total_access 7388547
Core_0_L2C_total_hit 2799751
Core_0_L2C_total_miss 4588796
Core_0_L2C_loads 5860715
Core_0_L2C_load_hit 1369844
Core_0_L2C_load_miss 4490871
Core_0_L2C_RFOs 179648
Core_0_L2C_RFO_hit 81939
Core_0_L2C_RFO_miss 97709
Core_0_L2C_prefetches 0
Core_0_L2C_prefetch_hit 0
Core_0_L2C_prefetch_miss 0
Core_0_L2C_writebacks 1348184
Core_0_L2C_writeback_hit 1347968
Core_0_L2C_writeback_miss 216
Core_0_L2C_prefetch_requested 0
Core_0_L2C_prefetch_dropped 0
Core_0_L2C_prefetch_issued 0
Core_0_L2C_prefetch_filled 0
Core_0_L2C_prefetch_useful 0
Core_0_L2C_prefetch_useless 0
Core_0_L2C_prefetch_late 0
Core_0_L2C_average_miss_latency 262.93400

Core_0_L2C_rq_access 6040462
Core_0_L2C_rq_forward 0
Core_0_L2C_rq_merged 0
Core_0_L2C_rq_to_cache 6040363
Core_0_L2C_rq_full 0

Core_0_L2C_wq_access 1348184
Core_0_L2C_wq_forward 99
Core_0_L2C_wq_merged 0
Core_0_L2C_wq_to_cache 1348184
Core_0_L2C_wq_full 0

Core_0_L2C_pq_access 0
Core_0_L2C_pq_forward 0
Core_0_L2C_pq_merged 0
Core_0_L2C_pq_to_cache 0
Core_0_L2C_pq_full 0

Core_0_L2C_acc_epochs 480028
Core_0_L2C_acc_level_0 480028
Core_0_L2C_acc_level_1 0
Core_0_L2C_acc_level_2 0
Core_0_L2C_acc_level_3 0
Core_0_L2C_acc_level_4 0
Core_0_L2C_acc_level_5 0
Core_0_L2C_acc_level_6 0
Core_0_L2C_acc_level_7 0
Core_0_L2C_acc_level_8 0
Core_0_L2C_acc_level_9 0

Core_0_LLC_total_access 5594335
Core_0_LLC_total_hit 2341992
Core_0_LLC_total_miss 3252343
Core_0_LLC_loads 4490840
Core_0_LLC_load_hit 1673562
Core_0_LLC_load_miss 2817278
Core_0_LLC_RFOs 97709
Core_0_LLC_RFO_hit 51432
Core_0_LLC_RFO_miss 46277
Core_0_LLC_prefetches 0
Core_0_LLC_prefetch_hit 0
Core_0_LLC_prefetch_miss 0
Core_0_LLC_writebacks 1005786
Core_0_LLC_writeback_hit 616998
Core_0_LLC_writeback_miss 388788
Core_0_LLC_prefetch_requested 0
Core_0_LLC_prefetch_dropped 0
Core_0_LLC_prefetch_issued 0
Core_0_LLC_prefetch_filled 0
Core_0_LLC_prefetch_useful 0
Core_0_LLC_prefetch_useless 0
Core_0_LLC_prefetch_late 0
Core_0_LLC_average_miss_latency 325.54989

Core_0_LLC_rq_access 4588580
Core_0_LLC_rq_forward 0
Core_0_LLC_rq_merged 0
Core_0_LLC_rq_to_cache 4588549
Core_0_LLC_rq_full 0

Core_0_LLC_wq_access 1005786
Core_0_LLC_wq_forward 31
Core_0_LLC_wq_merged 0
Core_0_LLC_wq_to_cache 1005786
Core_0_LLC_wq_full 0

Core_0_LLC_pq_access 0
Core_0_LLC_pq_forward 0
Core_0_LLC_pq_merged 0
Core_0_LLC_pq_to_cache 0
Core_0_LLC_pq_full 0

Core_0_LLC_acc_epochs 544017
Core_0_LLC_acc_level_0 544017
Core_0_LLC_acc_level_1 0
Core_0_LLC_acc_level_2 0
Core_0_LLC_acc_level_3 0
Core_0_LLC_acc_level_4 0
Core_0_LLC_acc_level_5 0
Core_0_LLC_acc_level_6 0
Core_0_LLC_acc_level_7 0
Core_0_LLC_acc_level_8 0
Core_0_LLC_acc_level_9 0

Core_0_major_page_fault 0
Core_0_minor_page_fault 39248

Channel_0_RQ_row_buffer_hit 57880
Channel_0_RQ_row_buffer_miss 2805591
Channel_0_WQ_row_buffer_hit 207779
Channel_0_WQ_row_buffer_miss 411453
Channel_0_WQ_full 0
Channel_0_dbus_congested 701724

avg_congested_cycle 11

DRAM_bw_pochs 2176065
DRAM_bw_level_0 1960002
DRAM_bw_level_1 216040
DRAM_bw_level_2 23
DRAM_bw_level_3 0
