*************************************************
   ChampSim Multicore Out-of-Order Simulator
   Last compiled: Apr  3 2025 20:54:34
*************************************************
parsing config file: /home/zir/Pythia/config/pythia.ini

trace_0 /home/zir/ChampSim/ML-DPC/ChampSimTraces/spec17/654.roms-s6.trace.xz
adding L2C_PREFETCHER: Scooby
Initialize SHIP state
warmup_instructions 10000000
simulation_instructions 50000000
champsim_seed 169
measure_ipc 0
measure_ipc_epoch 1000
measure_dram_bw 1
measure_dram_bw_epoch 256
measure_cache_acc 1
measure_cache_acc_epoch 1024
l1d_perfect 0
l2c_perfect 0
llc_perfect 0
l1d_semi_perfect 0
l2c_semi_perfect 0
llc_semi_perfect 0
semi_perfect_cache_page_buffer_size 64

num_cpus 1
cpu_freq 4000
dram_io_freq 2400
page_size 4096
block_size 64
max_read_per_cycle 8
max_fill_per_cycle 1
dram_channels 1
log2_dram_channels 0
dram_ranks 1
dram_banks 8
dram_rows 65536
dram_columns 128
dram_row_size 8
dram_size 4096
dram_pages 1048576

fetch_width 6
decode_width 6
exec_width 4
lq_width 2
sq_width 2
retire_width 4
scheduler_size 128
branch_mispredict_penalty 20
rob_size 256
lq_size 72
sq_size 56
num_instr_destinations_sparc 4
num_instr_destinations 2
num_instr_sources 4

itlb_set 16
itlb_way 8
itlb_rq_size 16
itlb_wq_size 16
itlb_pq_size 0
itlb_mshr_size 8
itlb_latency 1

dtlb_set 16
dtlb_way 4
dtlb_rq_size 16
dtlb_wq_size 16
dtlb_pq_size 0
dtlb_mshr_size 8
dtlb_latency 1

stlb_set 128
stlb_way 12
stlb_rq_size 32
stlb_wq_size 32
stlb_pq_size 0
stlb_mshr_size 16
stlb_latency 8

l1i_size 32
l1i_set 64
l1i_way 8
l1i_rq_size 64
l1i_wq_size 64
l1i_pq_size 8
l1i_mshr_size 8
l1i_latency 1

l1d_size 32
l1d_set 64
l1d_way 8
l1d_rq_size 64
l1d_wq_size 64
l1d_pq_size 8
l1d_mshr_size 16
l1d_latency 4

l2c_size 256
l2c_set 512
l2c_way 8
l2c_rq_size 32
l2c_wq_size 32
l2c_pq_size 32
l2c_mshr_size 32
l2c_latency 10

llc_size 2048
llc_set 2048
llc_way 16
llc_rq_size 32
llc_wq_size 32
llc_pq_size 32
llc_mshr_size 64
llc_latency 20

dram_channel_width 8
dram_wq_size 64
dram_rq_size 64
tRP 15
tRCD 15
tCAS 12.5
dram_dbus_turn_around_time 30
dram_write_high_wm 56
dram_write_low_wm 48
min_dram_writes_per_switch 16
dram_mtps 2400
dram_dbus_return_time 13

scooby_alpha 0.0065088
scooby_gamma 0.556301
scooby_epsilon 0.00182284
scooby_state_num_bits 10
scooby_max_states 1024
scooby_seed 200
scooby_policy EGreedy
scooby_learning_type SARSA
scooby_actions 1,3,4,5,10,11,12,22,23,30,32,-1,-3,-6,0,
scooby_max_actions 15
scooby_pt_size 256
scooby_st_size 64
scooby_max_pcs 5
scooby_max_offsets 5
scooby_max_deltas 5
scooby_reward_none -4
scooby_reward_incorrect -8
scooby_reward_correct_untimely 12
scooby_reward_correct_timely 20
scooby_brain_zero_init 0
scooby_enable_reward_all 0
scooby_enable_track_multiple 0
scooby_enable_reward_out_of_bounds 1
scooby_reward_out_of_bounds -12
scooby_state_type 1
scooby_state_hash_type 11
scooby_access_debug 0
scooby_print_access_debug 0
scooby_print_access_debug_pc deadbeef
scooby_print_access_debug_pc_count 0
scooby_print_trace 0
scooby_enable_state_action_stats 1
scooby_enable_reward_tracker_hit 0
scooby_reward_tracker_hit -2
scooby_enable_featurewise_engine 1
scooby_pref_degree 1
scooby_enable_dyn_degree 1
scooby_max_to_avg_q_thresholds 0.5,1,2,
scooby_dyn_degrees 1,2,4,4,
scooby_multi_deg_select_type 2
scooby_last_pref_offset_conf_thresholds 1,3,8,
scooby_dyn_degrees_type2 1,2,4,6,
scooby_action_tracker_size 2
scooby_high_bw_thresh 4
scooby_enable_hbw_reward 1
scooby_reward_hbw_correct_timely 20
scooby_reward_hbw_correct_untimely 12
scooby_reward_hbw_incorrect -14
scooby_reward_hbw_none -2
scooby_reward_hbw_out_of_bounds -12
scooby_reward_hbw_tracker_hit -2
scooby_last_pref_offset_conf_thresholds_hbw 1,3,8,
scooby_dyn_degrees_type2_hbw 1,2,4,6,

le_enable_trace 0
le_trace_interval 0
le_trace_file_name 
le_trace_state 0
le_enable_score_plot 0
le_plot_file_name 
le_plot_actions 
le_enable_action_trace 0
le_action_trace_interval 0
le_action_trace_name 
le_enable_action_plot 0

le_featurewise_active_features PC, PC_Delta
le_featurewise_num_tilings 3,3,
le_featurewise_num_tiles 128,128,
le_featurewise_hash_types 2,2,
le_featurewise_enable_tiling_offset 1,1,
le_featurewise_max_q_thresh 0.5
le_featurewise_enable_action_fallback 1
le_featurewise_feature_weights 1,1,
le_featurewise_enable_dynamic_weight 0
le_featurewise_weight_gradient 0.001
le_featurewise_disable_adjust_weight_all_features_align 1
le_featurewise_selective_update 0
le_featurewise_pooling_type 2
le_featurewise_enable_dyn_action_fallback 1
le_featurewise_bw_acc_check_level 1
le_featurewise_acc_thresh 2
le_featurewise_enable_trace 0
le_featurewise_trace_feature_type 0
le_featurewise_trace_feature 
le_featurewise_trace_interval 0
le_featurewise_trace_record_count 0
le_featurewise_trace_file_name 
le_featurewise_enable_score_plot 0
le_featurewise_plot_actions 
le_featurewise_plot_file_name 


Heartbeat CPU  0 instructions:    1000000 cycles:     502852 heartbeat IPC: 1.98866 cumulative IPC: 1.98866 (Simulation time: 0 hr 0 min 2 sec) 
Heartbeat CPU  0 instructions:    2000001 cycles:    1005593 heartbeat IPC: 1.98910 cumulative IPC: 1.98888 (Simulation time: 0 hr 0 min 4 sec) 
Heartbeat CPU  0 instructions:    3000002 cycles:    1508499 heartbeat IPC: 1.98845 cumulative IPC: 1.98873 (Simulation time: 0 hr 0 min 6 sec) 
Heartbeat CPU  0 instructions:    4000000 cycles:    2011007 heartbeat IPC: 1.99001 cumulative IPC: 1.98905 (Simulation time: 0 hr 0 min 8 sec) 
Heartbeat CPU  0 instructions:    5000001 cycles:    2513500 heartbeat IPC: 1.99008 cumulative IPC: 1.98926 (Simulation time: 0 hr 0 min 10 sec) 
Heartbeat CPU  0 instructions:    6000002 cycles:    3016232 heartbeat IPC: 1.98913 cumulative IPC: 1.98924 (Simulation time: 0 hr 0 min 12 sec) 
Heartbeat CPU  0 instructions:    7000003 cycles:    3519013 heartbeat IPC: 1.98894 cumulative IPC: 1.98919 (Simulation time: 0 hr 0 min 14 sec) 
Heartbeat CPU  0 instructions:    8000000 cycles:    4021515 heartbeat IPC: 1.99004 cumulative IPC: 1.98930 (Simulation time: 0 hr 0 min 16 sec) 
Heartbeat CPU  0 instructions:    9000002 cycles:    4524122 heartbeat IPC: 1.98963 cumulative IPC: 1.98934 (Simulation time: 0 hr 0 min 18 sec) 
Heartbeat CPU  0 instructions:   10000003 cycles:    5026814 heartbeat IPC: 1.98929 cumulative IPC: 1.98933 (Simulation time: 0 hr 0 min 20 sec) 

Warmup complete CPU  0 instructions:   10000003 cycles:    5026814 (Simulation time: 0 hr 0 min 20 sec) 

Heartbeat CPU  0 instructions:   11000001 cycles:    5906920 heartbeat IPC: 1.13622 cumulative IPC: 1.13622 (Simulation time: 0 hr 0 min 23 sec) 
Heartbeat CPU  0 instructions:   12000000 cycles:    6788183 heartbeat IPC: 1.13473 cumulative IPC: 1.13548 (Simulation time: 0 hr 0 min 25 sec) 
Heartbeat CPU  0 instructions:   13000002 cycles:    7669467 heartbeat IPC: 1.13471 cumulative IPC: 1.13522 (Simulation time: 0 hr 0 min 27 sec) 
Heartbeat CPU  0 instructions:   14000000 cycles:    8554762 heartbeat IPC: 1.12956 cumulative IPC: 1.13380 (Simulation time: 0 hr 0 min 30 sec) 
Heartbeat CPU  0 instructions:   15000001 cycles:    9438452 heartbeat IPC: 1.13162 cumulative IPC: 1.13337 (Simulation time: 0 hr 0 min 32 sec) 
Heartbeat CPU  0 instructions:   16000000 cycles:   10321350 heartbeat IPC: 1.13263 cumulative IPC: 1.13324 (Simulation time: 0 hr 0 min 34 sec) 
Heartbeat CPU  0 instructions:   17000003 cycles:   11205793 heartbeat IPC: 1.13066 cumulative IPC: 1.13287 (Simulation time: 0 hr 0 min 37 sec) 
Heartbeat CPU  0 instructions:   18000001 cycles:   12087537 heartbeat IPC: 1.13411 cumulative IPC: 1.13303 (Simulation time: 0 hr 0 min 39 sec) 
Heartbeat CPU  0 instructions:   19000002 cycles:   12970174 heartbeat IPC: 1.13297 cumulative IPC: 1.13302 (Simulation time: 0 hr 0 min 41 sec) 
Heartbeat CPU  0 instructions:   20000000 cycles:   13853388 heartbeat IPC: 1.13223 cumulative IPC: 1.13294 (Simulation time: 0 hr 0 min 44 sec) 
Heartbeat CPU  0 instructions:   21000001 cycles:   14732604 heartbeat IPC: 1.13738 cumulative IPC: 1.13334 (Simulation time: 0 hr 0 min 46 sec) 
Heartbeat CPU  0 instructions:   22000002 cycles:   15614795 heartbeat IPC: 1.13354 cumulative IPC: 1.13336 (Simulation time: 0 hr 0 min 48 sec) 
Heartbeat CPU  0 instructions:   23000003 cycles:   16494457 heartbeat IPC: 1.13680 cumulative IPC: 1.13362 (Simulation time: 0 hr 0 min 51 sec) 
Heartbeat CPU  0 instructions:   24000000 cycles:   17374052 heartbeat IPC: 1.13688 cumulative IPC: 1.13386 (Simulation time: 0 hr 0 min 53 sec) 
Heartbeat CPU  0 instructions:   25000001 cycles:   18255435 heartbeat IPC: 1.13458 cumulative IPC: 1.13390 (Simulation time: 0 hr 0 min 55 sec) 
Heartbeat CPU  0 instructions:   26000002 cycles:   19136604 heartbeat IPC: 1.13486 cumulative IPC: 1.13396 (Simulation time: 0 hr 0 min 58 sec) 
Heartbeat CPU  0 instructions:   27000003 cycles:   20016822 heartbeat IPC: 1.13608 cumulative IPC: 1.13409 (Simulation time: 0 hr 1 min 0 sec) 
Heartbeat CPU  0 instructions:   28000000 cycles:   20897660 heartbeat IPC: 1.13528 cumulative IPC: 1.13415 (Simulation time: 0 hr 1 min 2 sec) 
Heartbeat CPU  0 instructions:   29000001 cycles:   21778499 heartbeat IPC: 1.13528 cumulative IPC: 1.13421 (Simulation time: 0 hr 1 min 5 sec) 
Heartbeat CPU  0 instructions:   30000002 cycles:   22659209 heartbeat IPC: 1.13545 cumulative IPC: 1.13428 (Simulation time: 0 hr 1 min 7 sec) 
Heartbeat CPU  0 instructions:   31000001 cycles:   23541795 heartbeat IPC: 1.13303 cumulative IPC: 1.13422 (Simulation time: 0 hr 1 min 9 sec) 
Heartbeat CPU  0 instructions:   32000000 cycles:   24423262 heartbeat IPC: 1.13447 cumulative IPC: 1.13423 (Simulation time: 0 hr 1 min 12 sec) 
Heartbeat CPU  0 instructions:   33000002 cycles:   25304526 heartbeat IPC: 1.13474 cumulative IPC: 1.13425 (Simulation time: 0 hr 1 min 14 sec) 
Heartbeat CPU  0 instructions:   34000003 cycles:   26184925 heartbeat IPC: 1.13585 cumulative IPC: 1.13432 (Simulation time: 0 hr 1 min 16 sec) 
Heartbeat CPU  0 instructions:   35000002 cycles:   27065526 heartbeat IPC: 1.13559 cumulative IPC: 1.13437 (Simulation time: 0 hr 1 min 18 sec) 
Heartbeat CPU  0 instructions:   36000000 cycles:   27947568 heartbeat IPC: 1.13373 cumulative IPC: 1.13434 (Simulation time: 0 hr 1 min 21 sec) 
Heartbeat CPU  0 instructions:   37000003 cycles:   28830518 heartbeat IPC: 1.13257 cumulative IPC: 1.13428 (Simulation time: 0 hr 1 min 23 sec) 
Heartbeat CPU  0 instructions:   38000000 cycles:   29710174 heartbeat IPC: 1.13680 cumulative IPC: 1.13437 (Simulation time: 0 hr 1 min 25 sec) 
Heartbeat CPU  0 instructions:   39000001 cycles:   30589478 heartbeat IPC: 1.13726 cumulative IPC: 1.13447 (Simulation time: 0 hr 1 min 28 sec) 
Heartbeat CPU  0 instructions:   40000000 cycles:   31471713 heartbeat IPC: 1.13348 cumulative IPC: 1.13443 (Simulation time: 0 hr 1 min 30 sec) 
Heartbeat CPU  0 instructions:   41000000 cycles:   32352252 heartbeat IPC: 1.13567 cumulative IPC: 1.13447 (Simulation time: 0 hr 1 min 32 sec) 
Heartbeat CPU  0 instructions:   42000002 cycles:   33232888 heartbeat IPC: 1.13555 cumulative IPC: 1.13451 (Simulation time: 0 hr 1 min 35 sec) 
Heartbeat CPU  0 instructions:   43000001 cycles:   34112329 heartbeat IPC: 1.13708 cumulative IPC: 1.13459 (Simulation time: 0 hr 1 min 37 sec) 
Heartbeat CPU  0 instructions:   44000000 cycles:   34994003 heartbeat IPC: 1.13420 cumulative IPC: 1.13457 (Simulation time: 0 hr 1 min 39 sec) 
Heartbeat CPU  0 instructions:   45000002 cycles:   35874809 heartbeat IPC: 1.13533 cumulative IPC: 1.13460 (Simulation time: 0 hr 1 min 42 sec) 
Heartbeat CPU  0 instructions:   46000003 cycles:   36755699 heartbeat IPC: 1.13522 cumulative IPC: 1.13461 (Simulation time: 0 hr 1 min 44 sec) 
Heartbeat CPU  0 instructions:   47000000 cycles:   37638606 heartbeat IPC: 1.13262 cumulative IPC: 1.13456 (Simulation time: 0 hr 1 min 46 sec) 
Heartbeat CPU  0 instructions:   48000000 cycles:   38518962 heartbeat IPC: 1.13590 cumulative IPC: 1.13459 (Simulation time: 0 hr 1 min 49 sec) 
Heartbeat CPU  0 instructions:   49000003 cycles:   39398769 heartbeat IPC: 1.13662 cumulative IPC: 1.13465 (Simulation time: 0 hr 1 min 51 sec) 
Heartbeat CPU  0 instructions:   50000001 cycles:   40279940 heartbeat IPC: 1.13485 cumulative IPC: 1.13465 (Simulation time: 0 hr 1 min 53 sec) 
Heartbeat CPU  0 instructions:   51000000 cycles:   41159720 heartbeat IPC: 1.13665 cumulative IPC: 1.13470 (Simulation time: 0 hr 1 min 56 sec) 
Heartbeat CPU  0 instructions:   52000000 cycles:   42041191 heartbeat IPC: 1.13447 cumulative IPC: 1.13469 (Simulation time: 0 hr 1 min 58 sec) 
Heartbeat CPU  0 instructions:   53000001 cycles:   42921452 heartbeat IPC: 1.13603 cumulative IPC: 1.13473 (Simulation time: 0 hr 2 min 0 sec) 
Heartbeat CPU  0 instructions:   54000000 cycles:   43801417 heartbeat IPC: 1.13641 cumulative IPC: 1.13476 (Simulation time: 0 hr 2 min 3 sec) 
Heartbeat CPU  0 instructions:   55000002 cycles:   44681438 heartbeat IPC: 1.13634 cumulative IPC: 1.13480 (Simulation time: 0 hr 2 min 5 sec) 
Heartbeat CPU  0 instructions:   56000000 cycles:   45563526 heartbeat IPC: 1.13367 cumulative IPC: 1.13477 (Simulation time: 0 hr 2 min 7 sec) 
Heartbeat CPU  0 instructions:   57000000 cycles:   46441716 heartbeat IPC: 1.13871 cumulative IPC: 1.13486 (Simulation time: 0 hr 2 min 10 sec) 
Heartbeat CPU  0 instructions:   58000001 cycles:   47323702 heartbeat IPC: 1.13381 cumulative IPC: 1.13484 (Simulation time: 0 hr 2 min 12 sec) 
Heartbeat CPU  0 instructions:   59000003 cycles:   48201882 heartbeat IPC: 1.13872 cumulative IPC: 1.13491 (Simulation time: 0 hr 2 min 14 sec) 
Heartbeat CPU  0 instructions:   60000000 cycles:   49082862 heartbeat IPC: 1.13510 cumulative IPC: 1.13492 (Simulation time: 0 hr 2 min 17 sec) 
Finished CPU 0 instructions: 50000000 cycles: 44056069 cumulative IPC: 1.13492 (Simulation time: 0 hr 2 min 17 sec) 

ChampSim completed all CPUs

[ROI Statistics]
Core_0_instructions 50000000
Core_0_cycles 44056069
Core_0_IPC 1.13492

Core_0_branch_prediction_accuracy 99.92835
Core_0_branch_MPKI 0.03598
Core_0_average_ROB_occupancy_at_mispredict 243.21123

Core_0_L1D_total_access 14411850
Core_0_L1D_total_hit 13475790
Core_0_L1D_total_miss 936060
Core_0_L1D_loads 12736931
Core_0_L1D_load_hit 11806081
Core_0_L1D_load_miss 930850
Core_0_L1D_RFOs 1674919
Core_0_L1D_RFO_hit 1669709
Core_0_L1D_RFO_miss 5210
Core_0_L1D_prefetches 0
Core_0_L1D_prefetch_hit 0
Core_0_L1D_prefetch_miss 0
Core_0_L1D_writebacks 0
Core_0_L1D_writeback_hit 0
Core_0_L1D_writeback_miss 0
Core_0_L1D_prefetch_requested 0
Core_0_L1D_prefetch_dropped 0
Core_0_L1D_prefetch_issued 0
Core_0_L1D_prefetch_filled 0
Core_0_L1D_prefetch_useful 0
Core_0_L1D_prefetch_useless 0
Core_0_L1D_prefetch_late 0
Core_0_L1D_average_miss_latency 20.05125

Core_0_L1D_rq_access 19112547
Core_0_L1D_rq_forward 0
Core_0_L1D_rq_merged 6312416
Core_0_L1D_rq_to_cache 12800131
Core_0_L1D_rq_full 0

Core_0_L1D_wq_access 1699875
Core_0_L1D_wq_forward 0
Core_0_L1D_wq_merged 0
Core_0_L1D_wq_to_cache 1699875
Core_0_L1D_wq_full 14791

Core_0_L1D_pq_access 0
Core_0_L1D_pq_forward 0
Core_0_L1D_pq_merged 0
Core_0_L1D_pq_to_cache 0
Core_0_L1D_pq_full 0

Core_0_L1D_acc_epochs 46344
Core_0_L1D_acc_level_0 46344
Core_0_L1D_acc_level_1 0
Core_0_L1D_acc_level_2 0
Core_0_L1D_acc_level_3 0
Core_0_L1D_acc_level_4 0
Core_0_L1D_acc_level_5 0
Core_0_L1D_acc_level_6 0
Core_0_L1D_acc_level_7 0
Core_0_L1D_acc_level_8 0
Core_0_L1D_acc_level_9 0

Core_0_L1I_total_access 12386362
Core_0_L1I_total_hit 12386362
Core_0_L1I_total_miss 0
Core_0_L1I_loads 12386362
Core_0_L1I_load_hit 12386362
Core_0_L1I_load_miss 0
Core_0_L1I_RFOs 0
Core_0_L1I_RFO_hit 0
Core_0_L1I_RFO_miss 0
Core_0_L1I_prefetches 0
Core_0_L1I_prefetch_hit 0
Core_0_L1I_prefetch_miss 0
Core_0_L1I_writebacks 0
Core_0_L1I_writeback_hit 0
Core_0_L1I_writeback_miss 0
Core_0_L1I_prefetch_requested 0
Core_0_L1I_prefetch_dropped 0
Core_0_L1I_prefetch_issued 0
Core_0_L1I_prefetch_filled 0
Core_0_L1I_prefetch_useful 0
Core_0_L1I_prefetch_useless 0
Core_0_L1I_prefetch_late 0
Core_0_L1I_average_miss_latency -nan

Core_0_L1I_rq_access 50000008
Core_0_L1I_rq_forward 0
Core_0_L1I_rq_merged 37613646
Core_0_L1I_rq_to_cache 12386362
Core_0_L1I_rq_full 0

Core_0_L1I_wq_access 0
Core_0_L1I_wq_forward 0
Core_0_L1I_wq_merged 0
Core_0_L1I_wq_to_cache 0
Core_0_L1I_wq_full 0

Core_0_L1I_pq_access 0
Core_0_L1I_pq_forward 0
Core_0_L1I_pq_merged 0
Core_0_L1I_pq_to_cache 0
Core_0_L1I_pq_full 0

Core_0_L1I_acc_epochs 46344
Core_0_L1I_acc_level_0 46344
Core_0_L1I_acc_level_1 0
Core_0_L1I_acc_level_2 0
Core_0_L1I_acc_level_3 0
Core_0_L1I_acc_level_4 0
Core_0_L1I_acc_level_5 0
Core_0_L1I_acc_level_6 0
Core_0_L1I_acc_level_7 0
Core_0_L1I_acc_level_8 0
Core_0_L1I_acc_level_9 0

Core_0_L2C_total_access 5713125
Core_0_L2C_total_hit 5021036
Core_0_L2C_total_miss 692089
Core_0_L2C_loads 930737
Core_0_L2C_load_hit 906880
Core_0_L2C_load_miss 23857
Core_0_L2C_RFOs 5210
Core_0_L2C_RFO_hit 454
Core_0_L2C_RFO_miss 4756
Core_0_L2C_prefetches 4582033
Core_0_L2C_prefetch_hit 3918557
Core_0_L2C_prefetch_miss 663476
Core_0_L2C_writebacks 195145
Core_0_L2C_writeback_hit 195145
Core_0_L2C_writeback_miss 0
Core_0_L2C_prefetch_requested 5541677
Core_0_L2C_prefetch_dropped 8325
Core_0_L2C_prefetch_issued 5533352
Core_0_L2C_prefetch_filled 797472
Core_0_L2C_prefetch_useful 736684
Core_0_L2C_prefetch_useless 60438
Core_0_L2C_prefetch_late 2184
Core_0_L2C_average_miss_latency 150.44186

Core_0_L2C_rq_access 936060
Core_0_L2C_rq_forward 0
Core_0_L2C_rq_merged 0
Core_0_L2C_rq_to_cache 935947
Core_0_L2C_rq_full 0

Core_0_L2C_wq_access 195145
Core_0_L2C_wq_forward 737
Core_0_L2C_wq_merged 0
Core_0_L2C_wq_to_cache 195145
Core_0_L2C_wq_full 0

Core_0_L2C_pq_access 5533352
Core_0_L2C_pq_forward 0
Core_0_L2C_pq_merged 1853
Core_0_L2C_pq_to_cache 5530875
Core_0_L2C_pq_full 0

Core_0_L2C_acc_epochs 46344
Core_0_L2C_acc_level_0 1
Core_0_L2C_acc_level_1 0
Core_0_L2C_acc_level_2 0
Core_0_L2C_acc_level_3 1
Core_0_L2C_acc_level_4 2
Core_0_L2C_acc_level_5 49
Core_0_L2C_acc_level_6 2082
Core_0_L2C_acc_level_7 4866
Core_0_L2C_acc_level_8 9262
Core_0_L2C_acc_level_9 30081

Core_0_LLC_total_access 697439
Core_0_LLC_total_hit 101795
Core_0_LLC_total_miss 595644
Core_0_LLC_loads 21674
Core_0_LLC_load_hit 3355
Core_0_LLC_load_miss 18319
Core_0_LLC_RFOs 4756
Core_0_LLC_RFO_hit 40
Core_0_LLC_RFO_miss 4716
Core_0_LLC_prefetches 665659
Core_0_LLC_prefetch_hit 98259
Core_0_LLC_prefetch_miss 567400
Core_0_LLC_writebacks 5350
Core_0_LLC_writeback_hit 141
Core_0_LLC_writeback_miss 5209
Core_0_LLC_prefetch_requested 0
Core_0_LLC_prefetch_dropped 0
Core_0_LLC_prefetch_issued 0
Core_0_LLC_prefetch_filled 682198
Core_0_LLC_prefetch_useful 113
Core_0_LLC_prefetch_useless 650862
Core_0_LLC_prefetch_late 0
Core_0_LLC_average_miss_latency 139.94843

Core_0_LLC_rq_access 26430
Core_0_LLC_rq_forward 0
Core_0_LLC_rq_merged 0
Core_0_LLC_rq_to_cache 26430
Core_0_LLC_rq_full 0

Core_0_LLC_wq_access 5350
Core_0_LLC_wq_forward 0
Core_0_LLC_wq_merged 0
Core_0_LLC_wq_to_cache 5350
Core_0_LLC_wq_full 0

Core_0_LLC_pq_access 799656
Core_0_LLC_pq_forward 0
Core_0_LLC_pq_merged 0
Core_0_LLC_pq_to_cache 799656
Core_0_LLC_pq_full 0

Core_0_LLC_acc_epochs 47933
Core_0_LLC_acc_level_0 47923
Core_0_LLC_acc_level_1 10
Core_0_LLC_acc_level_2 0
Core_0_LLC_acc_level_3 0
Core_0_LLC_acc_level_4 0
Core_0_LLC_acc_level_5 0
Core_0_LLC_acc_level_6 0
Core_0_LLC_acc_level_7 0
Core_0_LLC_acc_level_8 0
Core_0_LLC_acc_level_9 0

Core_0_major_page_fault 0
Core_0_minor_page_fault 19810

scooby_st_lookup 1117088
scooby_st_hit 1093471
scooby_st_evict 23553
scooby_st_insert 23617
scooby_st_streaming 0

scooby_predict_called 1117088
scooby_predict_out_of_bounds 17473
scooby_predict_action_1 1095148
scooby_predict_issue_action_1 1092411
scooby_predict_hit_action_1 2737
scooby_predict_out_of_bounds_action_1 17156
scooby_predict_action_3 149
scooby_predict_issue_action_3 146
scooby_predict_hit_action_3 3
scooby_predict_out_of_bounds_action_3 6
scooby_predict_action_4 143
scooby_predict_issue_action_4 143
scooby_predict_hit_action_4 0
scooby_predict_out_of_bounds_action_4 4
scooby_predict_action_5 133
scooby_predict_issue_action_5 133
scooby_predict_hit_action_5 0
scooby_predict_out_of_bounds_action_5 4
scooby_predict_action_10 133
scooby_predict_issue_action_10 133
scooby_predict_hit_action_10 0
scooby_predict_out_of_bounds_action_10 19
scooby_predict_action_11 114
scooby_predict_issue_action_11 113
scooby_predict_hit_action_11 1
scooby_predict_out_of_bounds_action_11 21
scooby_predict_action_12 121
scooby_predict_issue_action_12 121
scooby_predict_hit_action_12 0
scooby_predict_out_of_bounds_action_12 21
scooby_predict_action_22 1029
scooby_predict_issue_action_22 1029
scooby_predict_hit_action_22 0
scooby_predict_out_of_bounds_action_22 40
scooby_predict_action_23 91
scooby_predict_issue_action_23 91
scooby_predict_hit_action_23 0
scooby_predict_out_of_bounds_action_23 48
scooby_predict_action_30 70
scooby_predict_issue_action_30 70
scooby_predict_hit_action_30 0
scooby_predict_out_of_bounds_action_30 78
scooby_predict_action_32 63
scooby_predict_issue_action_32 63
scooby_predict_hit_action_32 0
scooby_predict_out_of_bounds_action_32 57
scooby_predict_action_-1 2039
scooby_predict_issue_action_-1 1916
scooby_predict_hit_action_-1 123
scooby_predict_out_of_bounds_action_-1 4
scooby_predict_action_-3 130
scooby_predict_issue_action_-3 12
scooby_predict_hit_action_-3 118
scooby_predict_out_of_bounds_action_-3 5
scooby_predict_action_-6 112
scooby_predict_issue_action_-6 11
scooby_predict_hit_action_-6 101
scooby_predict_out_of_bounds_action_-6 10
scooby_predict_action_0 140
scooby_predict_issue_action_0 0
scooby_predict_hit_action_0 0
scooby_predict_out_of_bounds_action_0 0
scooby_predict_multi_deg_called 1013708
scooby_predict_predicted 5541677
scooby_predict_multi_deg 4445285
scooby_predict_multi_deg_2 997152
scooby_predict_multi_deg_3 937127
scooby_predict_multi_deg_4 920969
scooby_predict_multi_deg_5 802611
scooby_predict_multi_deg_6 787426
scooby_predict_multi_deg_7 0
scooby_predict_multi_deg_8 0
scooby_predict_multi_deg_9 0
scooby_predict_multi_deg_10 0
scooby_predict_multi_deg_11 0
scooby_predict_multi_deg_12 0
scooby_predict_multi_deg_13 0
scooby_predict_multi_deg_14 0
scooby_predict_multi_deg_15 0
scooby_predict_multi_deg_16 0

scooby_selected_deg_1 82684
scooby_selected_deg_2 44244
scooby_selected_deg_3 0
scooby_selected_deg_4 106106
scooby_selected_deg_5 0
scooby_selected_deg_6 863358
scooby_selected_deg_7 0
scooby_selected_deg_8 0
scooby_selected_deg_9 0
scooby_selected_deg_10 0
scooby_selected_deg_11 0
scooby_selected_deg_12 0
scooby_selected_deg_13 0
scooby_selected_deg_14 0
scooby_selected_deg_15 0
scooby_selected_deg_16 0

scooby_state_41a558|0|0 1982,0,0,0,0,0,0,0,0,0,0,1,0,1,0,1984,
scooby_state_41a566|0|0 1980,0,0,0,0,0,0,0,1,0,1,1,0,1,0,1984,
scooby_state_41a5aa|0|0 1954,0,1,0,0,1,2,0,1,0,1,0,1,1,0,1962,
scooby_state_41a596|0|0 1961,0,0,0,0,0,0,0,1,0,0,0,0,0,0,1962,
scooby_state_41a573|0|0 1956,0,1,0,1,0,0,0,1,0,1,1,0,1,0,1962,
scooby_state_41a566|47|1 1939,0,1,0,0,0,0,1,0,2,0,0,0,0,0,1943,
scooby_state_41a573|26|1 1941,1,0,0,0,0,0,1,0,0,0,0,0,0,0,1943,
scooby_state_41a566|43|1 1941,1,0,0,0,0,0,0,0,0,0,0,0,0,1,1943,
scooby_state_41a566|48|1 1938,0,1,0,1,0,0,0,0,0,1,1,0,1,0,1943,
scooby_state_41a566|57|1 1940,0,0,0,2,0,0,0,1,0,0,0,0,0,0,1943,
scooby_state_41a596|31|1 1942,0,0,0,0,0,0,0,0,0,0,0,1,0,0,1943,
scooby_state_41a558|51|1 1939,0,0,1,1,0,0,0,1,0,0,0,1,0,0,1943,
scooby_state_41a4b8|21|0 1936,0,1,0,0,0,0,0,2,0,1,1,0,0,2,1943,
scooby_state_41a5aa|21|1 1938,0,1,0,0,0,1,0,1,0,1,0,1,0,0,1943,
scooby_state_41a566|55|1 1942,0,0,0,0,0,0,0,0,0,0,0,1,0,0,1943,
scooby_state_41a558|46|1 1941,0,0,0,0,1,0,0,0,0,0,0,0,1,0,1943,
scooby_state_41a573|21|1 1935,0,4,1,1,0,0,0,0,0,0,1,1,0,0,1943,
scooby_state_41a596|28|1 1940,1,1,0,1,0,0,0,0,0,0,0,0,0,0,1943,
scooby_state_41a596|26|1 1939,1,0,0,0,0,0,0,0,0,2,0,0,0,1,1943,
scooby_state_41a5aa|29|1 1940,1,0,0,0,0,0,0,0,1,0,0,1,0,0,1943,
scooby_state_41a558|52|1 1940,1,0,0,0,1,0,1,0,0,0,0,0,0,0,1943,
scooby_state_41a5aa|31|1 1938,0,0,0,0,0,1,0,1,0,0,1,0,0,2,1943,
scooby_state_41a596|23|1 1942,0,1,0,0,0,0,0,0,0,0,0,0,0,0,1943,
scooby_state_41a566|50|1 1940,0,0,0,1,1,0,0,0,0,0,1,0,0,0,1943,
scooby_state_41a596|29|1 1938,0,0,0,0,1,1,2,1,0,0,0,0,0,0,1943,
scooby_state_41a573|22|1 1940,0,1,0,0,0,0,0,0,1,0,1,0,0,0,1943,
scooby_state_41a596|20|1 1938,0,0,0,1,1,0,0,0,1,2,0,0,0,0,1943,
scooby_state_41a558|55|1 1940,0,1,1,0,0,0,0,1,0,0,0,0,0,0,1943,
scooby_state_41a566|51|1 1940,0,0,0,0,0,0,0,0,1,1,0,1,0,0,1943,
scooby_state_41a5aa|26|1 1941,0,0,0,0,0,0,0,1,0,0,0,1,0,0,1943,
scooby_state_41a573|20|1 1941,0,0,0,1,0,1,0,0,0,0,0,0,0,0,1943,
scooby_state_41a596|21|1 1936,1,1,0,0,0,0,1,0,0,1,1,1,1,0,1943,
scooby_state_41a573|29|1 1937,1,0,0,0,2,0,0,1,0,0,0,0,1,1,1943,
scooby_state_41a566|54|1 1942,0,0,0,0,0,0,0,0,0,0,0,0,0,1,1943,
scooby_state_41a558|54|1 1937,1,1,0,1,1,0,0,0,0,0,1,1,0,0,1943,
scooby_state_41a596|30|1 1942,0,0,0,1,0,0,0,0,0,0,0,0,0,0,1943,
scooby_state_41a558|50|1 1940,0,0,1,0,1,0,0,1,0,0,0,0,0,0,1943,
scooby_state_41a5aa|28|1 1942,0,0,1,0,0,0,0,0,0,0,0,0,0,0,1943,
scooby_state_41a558|47|1 1939,0,1,0,0,1,0,0,0,1,0,0,0,1,0,1943,
scooby_state_41a573|28|1 1938,0,1,0,1,0,0,0,1,0,0,0,0,1,1,1943,
scooby_state_41a5aa|20|1 1940,0,0,0,0,0,0,0,1,0,0,1,0,0,1,1943,
scooby_state_41a558|53|1 1942,0,0,0,0,0,0,0,0,0,1,0,0,0,0,1943,
scooby_state_41a566|49|1 1940,0,1,0,1,0,0,1,0,0,0,0,0,0,0,1943,
scooby_state_41a573|31|1 1938,0,0,0,0,0,1,0,3,0,0,1,0,0,0,1943,
scooby_state_41a573|27|1 1941,0,0,0,0,0,1,1,0,0,0,0,0,0,0,1943,
scooby_state_41a596|27|1 1943,0,0,0,0,0,0,0,0,0,0,0,0,0,0,1943,
scooby_state_41a566|52|1 1942,1,0,0,0,0,0,0,0,0,0,0,0,0,0,1943,
scooby_state_41a573|23|1 1940,0,0,0,0,0,1,0,0,0,0,0,1,0,1,1943,
scooby_state_41a5aa|23|1 1940,0,0,0,1,0,0,0,1,1,0,0,0,0,0,1943,
scooby_state_41a558|57|1 1938,1,0,1,0,0,0,0,0,1,1,0,0,0,1,1943,
scooby_state_41a596|25|1 1939,1,0,1,1,0,0,0,0,0,0,0,0,1,0,1943,
scooby_state_41a573|25|1 1937,0,0,0,1,0,1,0,0,0,1,0,2,0,1,1943,
scooby_state_41a566|53|1 1940,0,1,1,1,0,0,0,0,0,0,0,0,0,0,1943,
scooby_state_41a558|56|1 1941,0,1,0,0,0,0,1,0,0,0,0,0,0,0,1943,
scooby_state_41a5aa|27|1 1937,1,0,0,0,0,0,1,0,1,1,0,1,1,0,1943,
scooby_state_41a5aa|24|1 1941,0,0,0,1,0,1,0,0,0,0,0,0,0,0,1943,
scooby_state_41a558|48|1 1938,0,0,2,1,0,0,0,0,0,0,1,0,0,1,1943,
scooby_state_41a573|30|1 1938,0,1,0,1,0,0,0,0,0,2,0,0,1,0,1943,
scooby_state_41a566|58|1 1940,0,0,1,0,1,0,0,0,1,0,0,0,0,0,1943,
scooby_state_41a596|24|1 1937,0,1,0,0,1,0,1,0,0,0,1,0,2,0,1943,
scooby_state_41a5aa|25|1 1939,1,1,0,1,0,0,0,0,0,1,0,0,0,0,1943,
scooby_state_41a573|24|1 1940,0,0,0,0,1,1,0,0,0,0,0,1,0,0,1943,
scooby_state_41a4c0|11|0 1012,2,1,1,1,1,1,923,1,0,0,0,0,0,0,1943,
scooby_state_41a5aa|22|1 1940,0,0,1,0,0,0,0,1,0,0,1,0,0,0,1943,
scooby_state_41a596|22|1 1940,1,0,0,0,0,0,0,0,0,0,0,0,1,1,1943,
scooby_state_41a558|49|1 1941,0,0,0,0,0,0,0,0,1,0,0,0,1,0,1943,
scooby_state_41a5aa|30|1 1940,1,1,0,0,0,0,0,0,0,0,1,0,0,0,1943,
scooby_state_41a566|56|1 1937,0,0,1,1,0,0,0,2,0,1,0,1,0,0,1943,
scooby_state_41a573|39|1 1934,0,0,0,1,0,0,2,0,1,0,0,1,2,1,1942,
scooby_state_41a566|14|1 1938,0,0,0,0,1,0,0,1,0,0,1,0,1,0,1942,
scooby_state_41a573|45|1 1939,1,1,1,0,0,0,0,0,0,0,0,0,0,0,1942,
scooby_state_41a558|11|1 1939,0,0,0,0,0,2,0,0,0,0,0,0,0,1,1942,
scooby_state_41a5aa|32|1 1938,0,0,0,1,1,0,0,1,1,0,0,0,0,0,1942,
scooby_state_41a566|7|1 1938,0,0,0,2,0,0,0,0,0,1,0,1,0,0,1942,
scooby_state_41a558|20|1 1939,0,0,0,0,0,0,0,1,0,1,0,0,0,1,1942,
scooby_state_41a558|60|1 1936,0,1,0,0,0,0,0,0,1,1,1,2,0,0,1942,
scooby_state_41a558|12|1 1938,0,0,0,1,0,1,1,0,0,0,0,0,0,1,1942,
scooby_state_41a573|6|1 1940,0,0,0,0,0,0,1,0,0,0,0,1,0,0,1942,
scooby_state_41a5aa|50|1 1936,1,1,0,0,2,0,0,1,0,0,0,0,1,0,1942,
scooby_state_41a558|27|1 1940,0,0,0,1,0,0,0,0,0,0,0,0,0,1,1942,
scooby_state_41a596|32|1 1936,1,1,0,1,0,1,0,0,1,0,0,0,0,1,1942,
scooby_state_41a5aa|55|1 1936,1,1,1,1,0,0,0,1,0,1,0,0,0,0,1942,
scooby_state_41a5aa|59|1 1941,0,0,0,0,0,0,0,0,0,0,1,0,0,0,1942,
scooby_state_41a573|58|1 1938,0,1,1,0,0,0,0,0,0,0,1,1,0,0,1942,
scooby_state_41a573|5|1 1936,0,2,0,1,0,0,0,1,1,0,0,0,0,1,1942,
scooby_state_41a566|35|1 1938,1,0,1,1,0,0,1,0,0,0,0,0,0,0,1942,
scooby_state_41a596|50|1 1940,0,0,0,0,0,0,0,0,1,1,0,0,0,0,1942,
scooby_state_41a566|38|1 1942,0,0,0,0,0,0,0,0,0,0,0,0,0,0,1942,
scooby_state_41a573|60|1 1938,1,0,0,0,0,1,1,0,0,0,1,0,0,0,1942,
scooby_state_41a566|12|1 1937,0,1,0,0,1,0,1,0,1,1,0,0,0,0,1942,
scooby_state_41a558|5|1 1939,0,0,0,0,0,0,1,0,1,0,1,0,0,0,1942,
scooby_state_41a5aa|58|1 1940,0,0,0,0,0,1,0,0,1,0,0,0,0,0,1942,
scooby_state_41a573|19|1 1939,0,0,0,1,0,0,1,0,0,0,0,0,1,0,1942,
scooby_state_41a573|35|1 1941,0,0,0,0,0,0,1,0,0,0,0,0,0,0,1942,
scooby_state_41a573|33|1 1941,0,0,0,0,0,0,0,0,1,0,0,0,0,0,1942,
scooby_state_41a558|45|1 1937,2,0,1,0,0,0,0,1,0,1,0,0,0,0,1942,
scooby_state_41a566|37|1 1940,0,0,0,0,0,0,0,1,0,0,0,0,0,1,1942,
scooby_state_41a596|39|1 1940,0,0,0,0,0,0,0,0,0,0,0,0,0,2,1942,
scooby_state_41a558|32|1 1936,0,0,0,0,1,1,0,2,1,0,0,0,1,0,1942,
scooby_state_41a566|18|1 1941,0,0,0,1,0,0,0,0,0,0,0,0,0,0,1942,
scooby_state_41a5aa|13|1 1936,2,0,0,0,0,0,1,2,0,0,0,0,1,0,1942,
scooby_state_41a558|40|1 1940,0,0,0,0,0,0,0,0,0,0,1,0,1,0,1942,
scooby_state_41a5aa|18|1 1940,0,0,0,0,0,1,0,1,0,0,0,0,0,0,1942,
scooby_state_41a573|44|1 1938,0,0,0,0,0,0,1,2,0,0,1,0,0,0,1942,
scooby_state_41a558|8|1 1939,0,0,0,0,1,1,0,0,0,0,0,0,1,0,1942,
scooby_state_41a566|21|1 1939,0,0,1,0,0,0,0,0,2,0,0,0,0,0,1942,
scooby_state_41a573|8|1 1938,0,0,0,0,0,1,0,0,0,1,1,1,0,0,1942,
scooby_state_41a558|59|1 1939,0,0,0,0,0,0,0,1,1,0,0,0,1,0,1942,
scooby_state_41a5aa|1|1 1936,1,1,0,0,0,0,0,1,1,0,1,0,0,1,1942,
scooby_state_41a5aa|49|1 1938,0,0,0,1,1,0,0,0,0,0,2,0,0,0,1942,
scooby_state_41a5aa|35|1 1942,0,0,0,0,0,0,0,0,0,0,0,0,0,0,1942,
scooby_state_41a5aa|17|1 1941,0,0,0,0,0,0,0,0,0,1,0,0,0,0,1942,
scooby_state_41a558|29|1 1937,1,1,0,0,0,1,0,0,1,0,0,0,1,0,1942,
scooby_state_41a573|9|1 1939,0,0,1,0,0,0,0,0,0,0,0,1,0,1,1942,
scooby_state_41a558|18|1 1938,0,2,1,0,0,0,0,0,0,0,1,0,0,0,1942,
scooby_state_41a596|59|1 1940,2,0,0,0,0,0,0,0,0,0,0,0,0,0,1942,
scooby_state_41a558|41|1 1940,0,0,0,0,0,0,0,0,0,0,1,0,0,1,1942,
scooby_state_41a573|42|1 1939,0,2,0,0,0,1,0,0,0,0,0,0,0,0,1942,
scooby_state_41a566|17|1 1940,0,1,0,0,0,0,0,0,0,0,0,1,0,0,1942,
scooby_state_41a596|19|1 1936,0,0,1,1,2,0,1,0,0,0,0,0,1,0,1942,
scooby_state_41a5aa|53|1 1935,1,1,0,1,0,0,0,1,0,1,0,0,0,2,1942,
scooby_state_41a596|52|1 1939,0,0,1,0,0,0,0,0,0,0,1,0,1,0,1942,
scooby_state_41a558|39|1 1939,1,0,0,0,1,0,0,1,0,0,0,0,0,0,1942,
scooby_state_41a558|25|1 1939,0,0,0,0,1,1,0,0,0,0,0,0,1,0,1942,
scooby_state_41a5aa|33|1 1940,0,1,0,0,1,0,0,0,0,0,0,0,0,0,1942,
scooby_state_41a5aa|60|1 1937,1,1,0,0,0,1,0,1,0,0,1,0,0,0,1942,
scooby_state_41a573|52|1 1941,0,0,0,0,0,0,0,0,0,0,0,0,0,1,1942,
scooby_state_41a558|34|1 1939,1,1,1,0,0,0,0,0,0,0,0,0,0,0,1942,
scooby_state_41a5aa|52|1 1936,0,0,0,0,0,0,3,1,0,1,0,0,1,0,1942,
scooby_state_41a558|35|1 1939,1,0,0,0,1,0,0,0,0,0,0,0,1,0,1942,
scooby_state_41a573|34|1 1940,1,0,0,0,0,1,0,0,0,0,0,0,0,0,1942,
scooby_state_41a558|14|1 1939,1,0,0,0,1,0,0,0,0,0,0,1,0,0,1942,
scooby_state_41a566|23|1 1941,0,0,0,0,0,0,0,0,0,0,0,1,0,0,1942,
scooby_state_41a558|21|1 1938,1,0,1,1,0,0,0,0,0,0,1,0,0,0,1942,
scooby_state_41a558|3|1 1941,0,0,1,0,0,0,0,0,0,0,0,0,0,0,1942,
scooby_state_41a573|49|1 1935,0,2,0,0,1,0,0,1,0,0,0,2,0,1,1942,
scooby_state_41a5aa|4|1 1935,1,0,1,0,0,0,0,0,1,1,2,0,0,1,1942,
scooby_state_41a566|46|1 1939,0,0,0,0,0,0,1,0,0,0,0,1,1,0,1942,
scooby_state_41a596|57|1 1941,0,0,0,0,0,1,0,0,0,0,0,0,0,0,1942,
scooby_state_41a566|61|1 1936,0,1,1,0,0,1,0,0,2,0,1,0,0,0,1942,
scooby_state_41a573|54|1 1937,0,0,0,0,0,1,1,1,0,1,0,0,0,1,1942,
scooby_state_41a573|53|1 1936,1,0,0,1,1,0,0,0,0,0,0,1,1,1,1942,
scooby_state_41a596|11|1 1938,2,0,0,0,0,1,0,0,0,1,0,0,0,0,1942,
scooby_state_41a573|56|1 1941,0,0,1,0,0,0,0,0,0,0,0,0,0,0,1942,
scooby_state_41a558|58|1 1935,1,3,0,0,0,0,0,0,0,0,0,1,1,1,1942,
scooby_state_41a558|43|1 1937,0,1,0,0,1,0,1,0,1,0,0,0,0,1,1942,
scooby_state_41a573|38|1 1941,0,0,0,0,0,0,1,0,0,0,0,0,0,0,1942,
scooby_state_41a5aa|45|1 1940,0,0,0,0,0,0,0,0,0,1,0,1,0,0,1942,
scooby_state_41a566|15|1 1939,0,0,0,0,0,0,0,0,0,0,0,0,1,2,1942,
scooby_state_41a596|51|1 1937,1,0,1,1,0,0,1,0,0,1,0,0,0,0,1942,
scooby_state_41a566|33|1 1935,0,1,0,1,1,0,3,0,0,0,0,0,0,1,1942,
scooby_state_41a566|4|1 1938,0,1,1,0,0,0,0,1,0,0,0,0,0,1,1942,
scooby_state_41a5aa|43|1 1941,0,0,1,0,0,0,0,0,0,0,0,0,0,0,1942,
scooby_state_41a596|17|1 1941,0,1,0,0,0,0,0,0,0,0,0,0,0,0,1942,
scooby_state_41a573|48|1 1938,1,0,0,0,0,0,0,0,0,1,1,0,1,0,1942,
scooby_state_41a558|6|1 1939,0,0,0,0,0,1,1,0,0,0,0,0,1,0,1942,
scooby_state_41a5aa|62|1 1938,0,0,0,0,1,1,0,0,1,0,1,0,0,0,1942,
scooby_state_41a566|59|1 1938,1,0,0,0,1,1,1,0,0,0,0,0,0,0,1942,
scooby_state_41a573|13|1 1938,0,1,0,0,1,0,0,1,0,0,0,0,0,1,1942,
scooby_state_41a566|60|1 1939,0,0,1,1,0,1,0,0,0,0,0,0,0,0,1942,
scooby_state_41a5aa|8|1 1936,1,2,0,0,0,0,0,1,0,0,0,1,0,1,1942,
scooby_state_41a558|16|1 1940,0,0,0,0,0,0,0,0,0,0,1,0,1,0,1942,
scooby_state_41a566|8|1 1938,1,1,0,0,0,0,0,0,1,0,0,0,1,0,1942,
scooby_state_41a573|57|1 1937,1,1,1,0,0,1,0,0,0,0,0,0,0,1,1942,
scooby_state_41a566|2|1 1938,0,1,1,0,0,0,0,0,0,1,0,1,0,0,1942,
scooby_state_41a596|14|1 1938,0,0,1,0,1,0,1,0,0,0,0,0,1,0,1942,
scooby_state_41a5aa|61|1 1940,0,0,0,0,0,0,0,0,1,0,0,0,0,1,1942,
scooby_state_41a596|55|1 1940,0,0,0,0,0,0,0,0,1,1,0,0,0,0,1942,
scooby_state_41a573|4|1 1940,0,0,0,0,1,1,0,0,0,0,0,0,0,0,1942,
scooby_state_41a573|41|1 1938,0,0,1,0,0,0,1,1,0,0,0,0,0,1,1942,
scooby_state_41a558|31|1 1938,1,0,0,0,0,2,0,0,0,0,1,0,0,0,1942,
scooby_state_41a558|1|1 1941,0,1,0,0,0,0,0,0,0,0,0,0,0,0,1942,
scooby_state_41a558|36|1 1937,1,0,2,0,0,0,0,1,1,0,0,0,0,0,1942,
scooby_state_41a5aa|9|1 1940,0,0,0,0,0,0,1,0,0,0,0,0,0,1,1942,
scooby_state_41a573|11|1 1938,0,0,0,1,0,0,0,0,1,0,0,2,0,0,1942,
scooby_state_41a596|44|1 1937,1,0,0,1,1,0,0,1,1,0,0,0,0,0,1942,
scooby_state_41a566|1|1 1938,0,0,0,2,0,1,0,1,0,0,0,0,0,0,1942,
scooby_state_41a558|24|1 1941,1,0,0,0,0,0,0,0,0,0,0,0,0,0,1942,
scooby_state_41a5aa|3|1 1937,0,0,0,2,1,0,0,0,1,0,0,0,0,1,1942,
scooby_state_41a5aa|6|1 1940,0,0,0,1,0,0,0,0,0,0,1,0,0,0,1942,
scooby_state_41a573|51|1 1940,0,0,1,0,0,0,0,0,0,0,0,0,0,1,1942,
scooby_state_41a558|28|1 1939,0,0,1,1,0,0,0,0,0,0,0,0,1,0,1942,
scooby_state_41a573|3|1 1941,0,0,1,0,0,0,0,0,0,0,0,0,0,0,1942,
scooby_state_41a5aa|57|1 1937,0,0,0,0,1,1,0,0,1,1,0,0,0,1,1942,
scooby_state_41a558|13|1 1939,0,0,0,0,0,0,0,0,0,1,1,0,0,1,1942,
scooby_state_41a596|56|1 1941,0,0,0,0,0,0,0,0,0,0,1,0,0,0,1942,
scooby_state_41a573|63|1 1941,0,0,0,0,0,0,0,0,0,1,0,0,0,0,1942,
scooby_state_41a566|16|1 1938,1,0,0,0,1,0,0,0,1,0,0,0,0,1,1942,
scooby_state_41a5aa|14|1 1937,1,0,0,0,0,0,2,0,1,0,0,0,1,0,1942,
scooby_state_41a566|41|1 1938,0,0,0,0,1,1,0,0,0,2,0,0,0,0,1942,
scooby_state_41a596|8|1 1939,0,0,0,0,0,0,1,0,1,0,0,0,0,1,1942,
scooby_state_41a573|40|1 1940,0,0,0,0,0,0,0,0,1,0,0,1,0,0,1942,
scooby_state_41a5aa|38|1 1940,0,0,0,0,1,0,0,0,0,1,0,0,0,0,1942,
scooby_state_41a596|53|1 1937,0,1,0,0,2,0,0,0,1,0,0,0,1,0,1942,
scooby_state_41a573|46|1 1941,0,0,0,0,1,0,0,0,0,0,0,0,0,0,1942,
scooby_state_41a573|1|1 1939,0,0,0,1,0,0,0,1,0,1,0,0,0,0,1942,
scooby_state_41a596|4|1 1938,0,0,1,0,0,0,2,0,0,0,0,1,0,0,1942,
scooby_state_41a596|45|1 1940,0,0,0,0,0,0,0,0,0,1,1,0,0,0,1942,
scooby_state_41a558|61|1 1940,1,0,0,1,0,0,0,0,0,0,0,0,0,0,1942,
scooby_state_41a596|13|1 1938,0,0,0,1,0,1,0,0,0,1,0,0,1,0,1942,
scooby_state_41a596|63|1 1940,0,0,0,0,0,0,1,0,0,1,0,0,0,0,1942,
scooby_state_41a596|42|1 1938,0,1,0,0,1,0,0,2,0,0,0,0,0,0,1942,
scooby_state_41a558|26|1 1936,0,0,1,1,0,0,1,0,0,1,0,0,1,1,1942,
scooby_state_41a5aa|54|1 1940,0,0,0,0,0,0,0,0,1,0,0,1,0,0,1942,
scooby_state_41a573|43|1 1939,0,0,0,1,0,0,0,1,0,1,0,0,0,0,1942,
scooby_state_41a566|6|1 1938,0,0,1,0,1,0,0,0,0,0,0,2,0,0,1942,
scooby_state_41a566|62|1 1940,0,0,0,0,1,0,0,0,0,0,1,0,0,0,1942,
scooby_state_41a5aa|11|1 1940,0,0,1,0,0,0,0,0,0,0,1,0,0,0,1942,
scooby_state_41a566|36|1 1939,0,0,0,0,0,0,0,0,1,0,0,1,1,0,1942,
scooby_state_41a5aa|10|1 1939,1,0,0,0,1,0,1,0,0,0,0,0,0,0,1942,
scooby_state_41a566|63|1 1942,0,0,0,0,0,0,0,0,0,0,0,0,0,0,1942,
scooby_state_41a558|38|1 1937,1,0,1,0,1,0,0,0,0,1,1,0,0,0,1942,
scooby_state_41a596|16|1 1937,0,0,2,0,0,0,1,0,0,0,1,0,1,0,1942,
scooby_state_41a566|11|1 1934,0,0,0,1,0,1,3,1,0,0,1,0,1,0,1942,
scooby_state_41a5aa|12|1 1940,0,0,0,0,0,0,0,0,0,1,0,0,1,0,1942,
scooby_state_41a566|10|1 1941,0,0,0,0,0,0,0,1,0,0,0,0,0,0,1942,
scooby_state_41a558|7|1 1937,0,0,0,0,1,1,2,0,0,0,0,1,0,0,1942,
scooby_state_41a566|26|1 1938,0,0,1,0,0,1,0,0,1,0,0,0,1,0,1942,
scooby_state_41a566|9|1 1941,0,0,0,0,0,0,0,0,1,0,0,0,0,0,1942,
scooby_state_41a566|25|1 1938,0,0,1,1,0,0,1,0,1,0,0,0,0,0,1942,
scooby_state_41a566|42|1 1936,1,0,0,1,1,0,0,0,1,1,0,1,0,0,1942,
scooby_state_41a5aa|44|1 1939,0,1,0,0,0,0,0,0,1,0,0,0,1,0,1942,
scooby_state_41a596|15|1 1935,0,1,0,1,1,0,2,0,0,1,0,0,0,1,1942,
scooby_state_41a566|28|1 1942,0,0,0,0,0,0,0,0,0,0,0,0,0,0,1942,
scooby_state_41a558|2|1 1941,0,1,0,0,0,0,0,0,0,0,0,0,0,0,1942,
scooby_state_41a596|10|1 1939,1,0,0,0,0,1,0,0,1,0,0,0,0,0,1942,
scooby_state_41a573|7|1 1939,1,0,0,0,0,0,0,0,1,1,0,0,0,0,1942,
scooby_state_41a566|39|1 1938,1,0,0,0,0,0,0,1,0,0,1,1,0,0,1942,
scooby_state_41a596|12|1 1938,0,0,0,0,0,0,1,1,0,0,1,1,0,0,1942,
scooby_state_41a573|10|1 1939,1,1,0,1,0,0,0,0,0,0,0,0,0,0,1942,
scooby_state_41a566|27|1 1940,0,0,0,0,1,1,0,0,0,0,0,0,0,0,1942,
scooby_state_41a573|50|1 1936,0,0,0,1,1,0,1,1,0,0,1,1,0,0,1942,
scooby_state_41a573|37|1 1938,0,0,0,1,0,0,1,0,0,1,0,0,0,1,1942,
scooby_state_41a573|32|1 1937,1,1,0,0,0,0,0,1,0,0,1,0,0,1,1942,
scooby_state_41a5aa|34|1 1937,0,1,1,0,1,1,0,1,0,0,0,0,0,0,1942,
scooby_state_41a5aa|15|1 1941,0,0,0,0,0,1,0,0,0,0,0,0,0,0,1942,
scooby_state_41a596|1|1 1940,0,0,0,1,0,0,0,0,0,1,0,0,0,0,1942,
scooby_state_41a5aa|19|1 1942,0,0,0,0,0,0,0,0,0,0,0,0,0,0,1942,
scooby_state_41a566|13|1 1939,1,0,1,0,0,1,0,0,0,0,0,0,0,0,1942,
scooby_state_41a5aa|16|1 1940,0,0,1,0,0,0,0,0,0,0,1,0,0,0,1942,
scooby_state_41a5aa|5|1 1939,1,1,0,0,0,0,0,0,1,0,0,0,0,0,1942,
scooby_state_41a573|2|1 1940,0,0,0,0,0,0,1,0,0,0,1,0,0,0,1942,
scooby_state_41a596|35|1 1938,0,0,0,0,0,0,0,1,0,1,1,0,0,1,1942,
scooby_state_41a596|3|1 1940,0,0,0,1,0,0,0,0,0,0,1,0,0,0,1942,
scooby_state_41a573|62|1 1939,0,0,0,1,1,0,0,0,1,0,0,0,0,0,1942,
scooby_state_41a596|37|1 1939,0,0,0,1,0,0,0,0,0,0,1,0,0,1,1942,
scooby_state_41a566|5|1 1937,0,0,1,0,0,1,0,0,1,1,0,0,1,0,1942,
scooby_state_41a5aa|46|1 1941,1,0,0,0,0,0,0,0,0,0,0,0,0,0,1942,
scooby_state_41a573|15|1 1940,0,0,0,0,0,0,1,0,0,0,0,0,0,1,1942,
scooby_state_41a596|6|1 1937,0,1,0,0,0,1,0,0,2,1,0,0,0,0,1942,
scooby_state_41a596|7|1 1940,0,0,1,0,0,0,0,0,0,0,0,1,0,0,1942,
scooby_state_41a596|34|1 1938,0,0,0,0,1,1,0,0,1,0,1,0,0,0,1942,
scooby_state_41a596|48|1 1937,0,1,0,0,0,2,0,1,0,0,0,0,1,0,1942,
scooby_state_41a573|36|1 1937,0,1,0,0,1,1,0,0,0,0,0,2,0,0,1942,
scooby_state_41a596|33|1 1936,1,0,2,0,0,0,1,0,0,1,0,1,0,0,1942,
scooby_state_41a5aa|42|1 1938,0,0,0,0,0,0,0,1,1,0,1,0,0,1,1942,
scooby_state_41a596|38|1 1938,0,1,0,0,0,1,0,0,1,0,0,0,1,0,1942,
scooby_state_41a558|63|1 1938,0,0,0,1,0,0,0,1,2,0,0,0,0,0,1942,
scooby_state_41a573|12|1 1937,0,0,0,2,0,0,0,0,2,1,0,0,0,0,1942,
scooby_state_41a5aa|40|1 1940,0,0,0,1,0,0,0,0,0,0,0,1,0,0,1942,
scooby_state_41a558|33|1 1940,0,1,0,0,0,0,0,0,0,0,0,0,1,0,1942,
scooby_state_41a566|22|1 1937,0,1,0,2,0,0,1,1,0,0,0,0,0,0,1942,
scooby_state_41a573|55|1 1938,0,0,1,1,0,0,0,1,1,0,0,0,0,0,1942,
scooby_state_41a573|16|1 1937,1,0,1,0,0,0,1,0,1,1,0,0,0,0,1942,
scooby_state_41a558|42|1 1938,0,1,0,1,0,0,0,0,2,0,0,0,0,0,1942,
scooby_state_41a596|62|1 1938,0,1,0,0,0,0,1,0,1,0,0,0,1,0,1942,
scooby_state_41a558|23|1 1939,0,0,0,0,1,0,0,1,1,0,0,0,0,0,1942,
scooby_state_41a5aa|7|1 1940,0,0,0,0,0,1,0,0,0,0,0,1,0,0,1942,
scooby_state_41a566|31|1 1939,0,0,0,0,1,1,1,0,0,0,0,0,0,0,1942,
scooby_state_41a566|40|1 1939,0,0,0,1,0,0,0,2,0,0,0,0,0,0,1942,
scooby_state_41a558|17|1 1936,1,0,0,0,1,0,1,0,0,0,2,0,0,1,1942,
scooby_state_41a596|18|1 1942,0,0,0,0,0,0,0,0,0,0,0,0,0,0,1942,
scooby_state_41a5aa|37|1 1940,1,0,0,0,0,0,0,1,0,0,0,0,0,0,1942,
scooby_state_41a573|59|1 1942,0,0,0,0,0,0,0,0,0,0,0,0,0,0,1942,
scooby_state_41a566|45|1 1940,0,0,0,0,1,0,0,0,0,0,1,0,0,0,1942,
scooby_state_41a558|62|1 1937,0,0,0,1,0,0,0,0,2,1,0,1,0,0,1942,
scooby_state_41a5aa|36|1 1937,1,0,0,1,0,1,1,0,0,0,0,0,0,1,1942,
scooby_state_41a596|5|1 1938,2,0,0,1,0,1,0,0,0,0,0,0,0,0,1942,
scooby_state_41a566|3|1 1940,0,0,1,0,0,0,0,0,0,0,0,0,1,0,1942,
scooby_state_41a566|24|1 1938,2,0,0,0,0,0,0,0,0,0,1,0,0,1,1942,
scooby_state_41a558|15|1 1937,0,0,1,0,1,0,1,1,0,1,0,0,0,0,1942,
scooby_state_41a5aa|51|1 1938,1,1,1,0,0,0,0,0,0,0,1,0,0,0,1942,
scooby_state_41a596|54|1 1938,1,0,0,0,1,0,0,1,0,0,0,0,0,1,1942,
scooby_state_41a566|20|1 1941,1,0,0,0,0,0,0,0,0,0,0,0,0,0,1942,
scooby_state_41a596|41|1 1936,0,0,0,0,1,1,0,0,1,0,3,0,0,0,1942,
scooby_state_41a596|43|1 1937,0,1,1,0,2,0,0,1,0,0,0,0,0,0,1942,
scooby_state_41a596|36|1 1938,0,0,0,0,0,1,0,2,0,0,0,1,0,0,1942,
scooby_state_41a573|18|1 1936,0,0,0,1,0,0,0,0,0,1,1,1,1,1,1942,
scooby_state_41a596|9|1 1939,1,0,0,0,0,0,0,0,0,0,0,1,0,1,1942,
scooby_state_41a558|30|1 1937,2,0,0,0,0,0,1,1,0,0,0,0,0,1,1942,
scooby_state_41a558|10|1 1936,0,0,0,1,0,2,1,1,0,0,0,1,0,0,1942,
scooby_state_41a5aa|41|1 1938,0,0,0,0,0,0,1,0,0,0,2,0,1,0,1942,
scooby_state_41a566|19|1 1941,0,0,0,0,1,0,0,0,0,0,0,0,0,0,1942,
scooby_state_41a558|44|1 1934,1,0,1,0,1,1,0,2,0,0,1,0,0,1,1942,
scooby_state_41a566|34|1 1940,0,0,0,1,0,1,0,0,0,0,0,0,0,0,1942,
scooby_state_41a573|17|1 1939,0,1,0,0,0,0,1,0,0,0,0,0,0,1,1942,
scooby_state_41a558|4|1 1938,0,0,1,1,0,0,1,0,0,0,0,0,0,1,1942,
scooby_state_41a5aa|47|1 1937,0,1,0,1,0,0,0,0,0,1,0,0,0,2,1942,
scooby_state_41a5aa|48|1 1941,0,1,0,0,0,0,0,0,0,0,0,0,0,0,1942,
scooby_state_41a5aa|56|1 1940,0,0,1,0,0,1,0,0,0,0,0,0,0,0,1942,
scooby_state_41a566|32|1 1942,0,0,0,0,0,0,0,0,0,0,0,0,0,0,1942,
scooby_state_41a573|47|1 1936,0,0,1,1,1,0,0,0,1,1,0,0,0,1,1942,
scooby_state_41a566|44|1 1940,0,0,1,0,1,0,0,0,0,0,0,0,0,0,1942,
scooby_state_41a558|9|1 1937,2,1,0,0,0,0,1,0,1,0,0,0,0,0,1942,
scooby_state_41a573|61|1 1941,1,0,0,0,0,0,0,0,0,0,0,0,0,0,1942,
scooby_state_41a5aa|2|1 1940,0,0,1,0,0,1,0,0,0,0,0,0,0,0,1942,
scooby_state_41a558|22|1 1938,0,0,0,2,0,0,0,1,0,0,1,0,0,0,1942,
scooby_state_41a596|61|1 1939,0,0,0,2,0,1,0,0,0,0,0,0,0,0,1942,
scooby_state_41a5aa|39|1 1935,1,0,1,0,0,1,2,0,0,0,1,1,0,0,1942,
scooby_state_41a558|19|1 1937,0,0,1,0,0,0,0,1,0,0,1,0,1,1,1942,
scooby_state_41a596|47|1 1940,0,0,0,1,0,0,0,0,0,0,0,1,0,0,1942,
scooby_state_41a596|49|1 1939,0,0,1,0,0,0,0,0,0,0,0,0,1,1,1942,
scooby_state_41a596|58|1 1934,0,1,0,0,1,0,1,0,2,0,2,0,1,0,1942,
scooby_state_41a5aa|63|1 1940,0,0,0,0,1,0,0,0,1,0,0,0,0,0,1942,
scooby_state_41a596|40|1 1937,0,1,0,0,0,0,0,1,1,0,1,0,0,1,1942,
scooby_state_41a566|30|1 1942,0,0,0,0,0,0,0,0,0,0,0,0,0,0,1942,
scooby_state_41a573|14|1 1938,0,0,1,0,0,0,0,0,1,1,0,0,1,0,1942,
scooby_state_41a596|60|1 1940,0,0,0,0,0,0,0,1,0,1,0,0,0,0,1942,
scooby_state_41a596|2|1 1941,0,0,0,0,0,0,0,0,0,0,0,0,0,1,1942,
scooby_state_41a558|37|1 1935,0,1,1,0,3,0,0,0,0,0,0,1,0,1,1942,
scooby_state_41a596|46|1 1938,0,0,1,0,1,1,0,0,0,0,0,0,0,1,1942,
scooby_state_41a566|29|1 1940,0,1,0,0,0,1,0,0,0,0,0,0,0,0,1942,
scooby_state_41a669|50|-1 1916,0,0,0,0,1,0,0,0,1,0,0,0,0,0,1918,
scooby_state_41a4d5|49|-1 1889,2,1,3,0,0,0,0,0,0,0,0,0,0,0,1895,
scooby_state_41a64b|51|2 1,1,3,2,1,1,2,1,1,1,1,1879,0,0,0,1894,
scooby_state_41a5ae|12|1 1853,0,0,0,0,1,0,0,0,0,0,0,0,0,0,1854,
scooby_state_41a5ae|10|1 1847,0,2,0,0,1,1,0,0,0,0,0,0,1,1,1853,
scooby_state_41a5ae|16|1 1851,0,0,0,0,0,0,0,1,0,0,0,0,1,0,1853,
scooby_state_41a5ae|11|1 1850,1,0,0,1,0,0,0,0,0,0,0,1,0,0,1853,
scooby_state_41a5ae|36|1 1850,0,0,1,0,0,0,0,1,0,0,0,0,0,1,1853,
scooby_state_41a5ae|13|1 1847,0,2,2,1,0,0,0,0,0,1,0,0,0,0,1853,
scooby_state_41a5ae|9|1 1850,0,0,2,1,0,0,0,0,0,0,0,0,0,0,1853,
scooby_state_41a5ae|8|1 1850,0,0,0,0,0,1,0,0,0,0,0,0,0,2,1853,
scooby_state_41a5ae|14|1 1852,0,0,0,0,0,0,0,0,0,0,0,1,0,0,1853,
scooby_state_41a5ae|38|1 1848,0,1,0,0,1,1,0,0,0,0,0,1,0,0,1852,
scooby_state_41a5ae|35|1 1850,1,0,0,0,0,0,0,0,0,0,1,0,0,0,1852,
scooby_state_41a5ae|41|1 1849,0,0,0,0,1,0,0,1,0,0,0,0,1,0,1852,
scooby_state_41a5ae|15|1 1847,0,0,0,2,0,0,1,1,0,0,0,0,1,0,1852,
scooby_state_41a5ae|34|1 1849,0,0,0,2,0,1,0,0,0,0,0,0,0,0,1852,
scooby_state_41a5ae|39|1 1850,0,0,0,0,0,0,1,0,0,0,0,0,0,0,1851,
scooby_state_41a5ae|17|1 1848,0,0,0,1,0,0,1,0,0,0,0,1,0,0,1851,
scooby_state_41a5ae|61|1 1848,0,0,0,0,0,0,1,0,0,0,1,0,1,0,1851,
scooby_state_41a5ae|54|1 1848,0,0,0,0,0,1,0,0,0,0,0,0,0,2,1851,
scooby_state_41a5ae|52|1 1847,0,0,0,1,1,0,0,0,0,0,0,2,0,0,1851,
scooby_state_41a5ae|53|1 1850,0,0,0,0,0,0,0,0,0,0,0,0,1,0,1851,
scooby_state_41a5ae|62|1 1850,0,0,0,0,0,0,0,0,0,0,1,0,0,0,1851,
scooby_state_41a5ae|63|1 1848,1,0,0,0,1,0,1,0,0,0,0,0,0,0,1851,
scooby_state_41a5ae|7|1 1848,0,1,1,0,0,0,0,0,0,0,0,0,0,1,1851,
scooby_state_41a5ae|40|1 1849,1,1,0,0,0,0,0,0,0,0,0,0,0,0,1851,
scooby_state_41a5ae|51|1 1847,1,0,0,1,1,0,0,0,0,1,0,0,0,0,1851,
scooby_state_41a5ae|4|1 1848,0,0,2,1,0,0,0,0,0,0,0,0,0,0,1851,
scooby_state_41a5ae|42|1 1848,0,0,0,0,0,0,0,0,2,0,0,1,0,0,1851,
scooby_state_41a5ae|37|1 1842,1,1,0,1,0,0,1,0,2,1,0,1,0,1,1851,
scooby_state_41a5ae|2|1 1849,0,0,0,0,0,0,1,0,0,1,0,0,0,0,1851,
scooby_state_41a5ae|5|1 1848,0,1,0,1,0,0,0,0,0,1,0,0,0,0,1851,
scooby_state_41a5ae|3|1 1847,1,1,0,0,0,0,0,0,0,0,0,0,1,1,1851,
scooby_state_41a5ae|50|1 1847,0,0,1,0,0,1,0,0,0,0,0,0,1,1,1851,
scooby_state_41a5ae|6|1 1849,0,0,0,0,0,0,0,0,0,1,0,0,1,0,1851,
scooby_state_41a5ae|49|1 1849,0,0,0,0,0,0,0,0,1,0,0,0,0,0,1850,
scooby_state_41a5ae|20|1 1845,1,0,0,0,1,0,0,1,0,0,0,2,0,0,1850,
scooby_state_41a5ae|58|1 1848,0,0,0,0,0,1,0,0,0,0,0,0,0,1,1850,
scooby_state_41a5ae|31|1 1847,1,0,0,0,0,0,0,0,1,0,1,0,0,0,1850,
scooby_state_41a5ae|30|1 1848,0,1,0,0,0,1,0,0,0,0,0,0,0,0,1850,
scooby_state_41a5ae|57|1 1845,2,0,0,0,0,0,0,0,0,1,0,0,2,0,1850,
scooby_state_41a5ae|26|1 1848,0,1,0,0,0,0,0,0,0,1,0,0,0,0,1850,
scooby_state_41a5ae|47|1 1848,1,0,0,0,0,0,0,0,0,1,0,0,0,0,1850,
scooby_state_41a5ae|60|1 1846,2,0,0,0,0,0,0,1,0,0,0,1,0,0,1850,
scooby_state_41a5ae|22|1 1848,0,1,0,1,0,0,0,0,0,0,0,0,0,0,1850,
scooby_state_41a5ae|29|1 1848,0,0,0,0,0,1,0,0,1,0,0,0,0,0,1850,
scooby_state_41a5ae|56|1 1849,0,0,0,0,0,0,0,0,0,0,0,0,0,1,1850,
scooby_state_41a5ae|59|1 1849,0,0,0,0,0,0,0,0,0,0,0,1,0,0,1850,
scooby_state_41a5ae|43|1 1845,0,0,0,0,0,1,0,2,0,1,1,0,0,0,1850,
scooby_state_41a5ae|45|1 1845,0,0,2,0,0,0,0,0,0,1,0,1,0,1,1850,
scooby_state_41a5ae|32|1 1845,0,0,0,1,0,0,1,0,2,0,0,0,0,1,1850,
scooby_state_41a5ae|55|1 1846,1,0,0,0,0,0,1,0,1,0,0,1,0,0,1850,
scooby_state_41a5ae|46|1 1847,0,0,0,1,0,1,0,0,0,0,0,1,0,0,1850,
scooby_state_41a5ae|48|1 1846,1,0,0,1,1,0,0,0,0,0,1,0,0,0,1850,
scooby_state_41a5ae|23|1 1848,0,0,0,0,0,0,0,0,0,0,2,0,0,0,1850,
scooby_state_41a5ae|21|1 1846,0,0,0,0,0,0,0,0,1,0,1,0,0,1,1849,
scooby_state_41a5ae|1|1 1846,0,0,0,0,0,0,0,1,1,0,0,1,0,0,1849,
scooby_state_41a5ae|25|1 1844,1,1,1,0,0,0,0,0,0,0,0,2,0,0,1849,
scooby_state_41a5ae|18|1 1848,0,0,0,1,0,0,0,0,0,0,0,0,0,0,1849,
scooby_state_41a5ae|19|1 1847,0,0,0,0,1,1,0,0,0,0,0,0,0,0,1849,
scooby_state_41a5ae|24|1 1848,0,0,0,0,0,0,1,0,0,0,0,0,0,0,1849,
scooby_state_41a5ae|44|1 1848,0,0,0,0,0,1,0,0,0,0,0,0,0,0,1849,
scooby_state_41a5ae|33|1 1845,0,0,0,0,0,0,0,0,0,0,1,2,1,0,1849,
scooby_state_41a5ae|27|1 1844,0,0,1,0,0,0,1,0,0,0,0,1,0,0,1847,
scooby_state_41a5ae|28|1 1843,0,0,0,1,0,0,0,0,0,0,0,1,2,0,1847,
scooby_state_41a5b7|50|1 1767,0,0,0,0,0,1,0,0,1,1,1,0,0,0,1771,
scooby_state_41a5b7|51|1 1766,0,0,0,0,0,0,1,0,0,0,0,1,1,0,1769,
scooby_state_41a5b7|52|1 1766,0,0,0,0,1,0,0,0,0,0,0,1,0,0,1768,
scooby_state_41a5b7|53|1 1760,0,1,0,1,0,0,0,0,0,1,1,1,0,1,1766,
scooby_state_41a58a|21|1 1744,0,1,0,1,0,0,0,0,0,0,0,0,0,1,1747,
scooby_state_41a58a|22|1 1744,1,0,0,1,0,0,0,0,0,0,0,0,0,0,1746,
scooby_state_41a58a|19|1 1742,0,0,0,0,0,0,2,0,1,0,0,1,0,0,1746,
scooby_state_41a58a|20|1 1738,1,0,1,1,0,0,0,0,1,0,0,0,0,1,1743,
scooby_state_41a58a|16|1 1743,0,0,0,0,0,0,0,0,0,0,0,0,0,0,1743,
scooby_state_41a58a|18|1 1742,0,0,0,0,0,0,0,0,0,0,0,1,0,0,1743,
scooby_state_41a58a|15|1 1740,0,0,1,0,0,1,0,0,0,0,0,0,0,0,1742,
scooby_state_41a58a|17|1 1740,0,0,0,0,0,0,0,0,0,0,0,1,0,0,1741,
scooby_state_41a58a|12|1 1735,1,0,0,0,0,1,0,1,0,2,0,0,0,0,1740,
scooby_state_41a58a|25|1 1736,1,0,0,0,0,0,1,1,0,0,1,0,0,0,1740,
scooby_state_41a58a|24|1 1734,0,1,0,0,0,0,0,0,1,0,0,0,2,1,1739,
scooby_state_41a58a|33|1 1738,0,0,0,0,1,0,0,0,0,0,0,0,0,0,1739,
scooby_state_41a58a|23|1 1735,0,0,0,0,1,0,0,0,1,0,0,1,0,1,1739,
scooby_state_41a58a|13|1 1736,0,0,0,0,0,1,1,1,0,0,0,0,0,0,1739,
scooby_state_41a58a|31|1 1734,1,0,0,0,1,0,0,0,1,0,0,0,1,0,1738,
scooby_state_41a58a|30|1 1735,1,0,1,0,0,1,0,0,0,0,0,0,0,0,1738,
scooby_state_41a58a|27|1 1736,0,0,0,0,0,0,1,0,0,0,0,0,0,1,1738,
scooby_state_41a58a|28|1 1735,0,0,0,0,0,0,1,0,0,0,0,1,1,0,1738,
scooby_state_41a58a|14|1 1734,0,1,0,0,1,0,0,0,0,1,0,0,0,1,1738,
scooby_state_41a58a|29|1 1736,1,0,0,0,0,0,0,1,0,0,0,0,0,0,1738,
scooby_state_41a58a|26|1 1729,2,2,0,0,0,1,0,1,0,0,0,0,1,0,1736,
scooby_state_41a58a|34|1 1733,0,0,0,0,1,0,2,0,0,0,0,0,0,0,1736,
scooby_state_41a58a|32|1 1733,0,1,0,0,0,1,0,0,0,0,0,0,0,0,1735,
scooby_state_41a58a|36|1 1731,0,0,0,1,1,0,0,0,0,1,0,0,0,0,1734,
scooby_state_41a58a|11|1 1729,0,0,0,0,0,1,0,0,0,0,1,1,1,1,1734,
scooby_state_41a5b7|22|1 1731,0,1,1,0,0,0,0,0,0,0,0,0,0,0,1733,
scooby_state_41a58a|51|1 1732,0,0,0,0,0,0,1,0,0,0,0,0,0,0,1733,
scooby_state_41a58a|35|1 1730,0,0,0,0,0,0,0,1,0,0,0,1,0,0,1732,
scooby_state_41a58a|37|1 1730,0,0,0,0,1,0,0,0,0,0,1,0,0,0,1732,
scooby_state_41a5b7|21|1 1727,0,0,0,0,0,1,1,2,0,0,0,0,0,0,1731,
scooby_state_41a58a|53|1 1729,0,0,1,0,0,0,0,0,0,1,0,0,0,0,1731,
scooby_state_41a58a|52|1 1725,0,0,1,0,1,0,0,0,0,1,1,0,1,1,1731,
scooby_state_41a58a|50|1 1729,0,0,0,0,0,1,0,0,0,0,0,0,0,1,1731,
scooby_state_41a58a|10|1 1723,0,0,1,1,0,1,0,0,1,1,0,0,2,1,1731,
scooby_state_41a58a|9|1 1724,0,0,0,0,0,0,2,1,0,0,1,1,1,0,1730,
scooby_state_41a5b7|45|1 1724,1,1,1,0,0,1,0,0,0,0,0,1,0,0,1729,
scooby_state_41a58a|41|1 1726,1,0,0,0,0,0,1,0,1,0,0,0,0,0,1729,
scooby_state_41a58a|40|1 1724,0,0,1,1,0,0,1,0,0,0,0,2,0,0,1729,
scooby_state_41a58a|39|1 1724,0,0,0,0,0,0,1,0,1,0,2,0,0,0,1728,
scooby_state_41a5b7|46|1 1725,0,0,0,1,0,0,0,0,0,0,1,1,0,0,1728,
scooby_state_41a5b7|49|1 1723,0,1,0,0,0,0,1,0,1,1,0,1,0,0,1728,
scooby_state_41a58a|8|1 1724,1,2,0,0,0,0,0,0,0,0,0,0,0,0,1727,
scooby_state_41a5b7|47|1 1724,0,0,0,0,0,0,0,0,0,1,1,1,0,0,1727,
scooby_state_41a58a|42|1 1725,0,0,1,0,0,0,0,1,0,0,0,0,0,0,1727,
scooby_state_41a54a|44|1 1724,0,0,1,0,0,0,1,0,0,0,0,0,0,1,1727,
scooby_state_41a58a|38|1 1724,0,0,0,0,1,0,0,0,1,0,0,1,0,0,1727,
scooby_state_41a58a|43|1 1724,0,0,0,0,0,0,1,0,0,0,0,0,1,0,1726,
scooby_state_41a5b7|23|1 1725,0,0,0,0,0,0,0,0,0,0,0,0,1,0,1726,
scooby_state_41a54a|28|1 1722,0,0,0,0,0,1,1,0,1,1,0,0,0,0,1726,
scooby_state_41a54a|52|1 1723,0,0,0,0,0,0,0,1,0,0,0,0,1,1,1726,
scooby_state_41a5b7|20|1 1724,0,0,0,0,1,0,0,0,0,0,0,0,1,0,1726,
scooby_state_41a58a|7|1 1723,0,0,0,0,0,1,0,0,1,1,0,0,0,0,1726,
scooby_state_41a54a|12|1 1724,0,0,0,0,1,0,0,0,0,0,0,1,0,0,1726,
scooby_state_41a54a|60|1 1725,0,0,0,0,0,0,0,0,0,1,0,0,0,0,1726,
scooby_state_41a54a|47|1 1722,0,0,0,0,0,0,1,0,1,0,0,1,0,0,1725,
scooby_state_41a54a|20|1 1721,1,0,0,0,0,1,0,0,0,0,1,0,0,1,1725,
scooby_state_41a5b7|35|1 1719,0,0,0,2,0,0,1,2,0,0,0,1,0,0,1725,
scooby_state_41a5b7|48|1 1722,0,1,0,0,0,0,1,0,1,0,0,0,0,0,1725,
scooby_state_41a58a|6|1 1718,0,0,0,0,0,1,1,1,1,0,1,1,1,0,1725,
scooby_state_41a5b7|19|1 1722,0,0,2,0,0,0,0,0,1,0,0,0,0,0,1725,
scooby_state_41a54a|36|1 1724,0,0,0,0,0,0,0,0,0,0,0,0,1,0,1725,
scooby_state_41a5b7|34|1 1724,0,0,1,0,0,0,0,0,0,0,0,0,0,0,1725,
scooby_state_41a58a|5|1 1724,0,0,0,0,0,0,0,0,0,0,0,0,0,1,1725,
scooby_state_41a5b7|24|1 1720,0,0,2,1,1,1,0,0,0,0,0,0,0,0,1725,
scooby_state_41a54a|4|1 1723,0,1,0,1,0,0,0,0,0,0,0,0,0,0,1725,
scooby_state_41a5b7|26|1 1721,0,0,0,0,1,0,1,0,1,0,0,0,0,1,1725,
scooby_state_41a5b7|25|1 1722,0,0,0,0,0,0,0,0,0,0,0,1,0,2,1725,
scooby_state_41a54a|55|1 1718,1,0,0,1,0,1,0,1,0,1,0,0,1,0,1724,
scooby_state_41a5b7|36|1 1721,0,1,0,0,0,0,0,0,0,0,0,1,1,0,1724,
scooby_state_41a5b7|33|1 1721,0,0,0,0,1,0,0,0,0,0,1,0,1,0,1724,
scooby_state_41a58a|44|1 1722,0,1,0,0,0,0,0,1,0,0,0,0,0,0,1724,
scooby_state_41a54a|7|1 1723,0,0,0,0,0,0,0,1,0,0,0,0,0,0,1724,
scooby_state_41a54a|50|1 1722,0,0,0,0,0,0,0,0,1,0,0,0,0,0,1723,
scooby_state_41a5b7|44|1 1720,0,0,1,1,0,0,0,0,0,1,0,0,0,0,1723,
scooby_state_41a54a|23|1 1719,0,0,0,0,0,0,1,0,1,0,1,0,1,0,1723,
scooby_state_41a54a|63|1 1723,0,0,0,0,0,0,0,0,0,0,0,0,0,0,1723,
scooby_state_41a58a|45|1 1722,0,0,0,0,0,1,0,0,0,0,0,0,0,0,1723,
scooby_state_41a54a|15|1 1720,0,0,0,0,0,0,0,2,0,0,1,0,0,0,1723,
scooby_state_41a5b7|27|1 1717,0,1,0,1,0,1,0,0,0,0,1,2,0,0,1723,
scooby_state_41a54a|39|1 1721,0,1,0,0,1,0,0,0,0,0,0,0,0,0,1723,
scooby_state_41a5b7|28|1 1716,0,0,0,0,0,0,2,1,2,0,1,0,0,0,1722,
scooby_state_41a58a|46|1 1716,0,0,2,0,1,0,1,0,0,1,1,0,0,0,1722,
scooby_state_41a54a|31|1 1717,0,0,0,1,1,1,0,0,1,0,0,1,0,0,1722,
scooby_state_41a58a|4|1 1716,0,0,0,1,1,0,0,1,0,1,0,2,0,0,1722,
scooby_state_41a5b7|18|1 1720,0,0,1,0,0,1,0,0,0,0,0,0,0,0,1722,
scooby_state_41a5b7|29|1 1719,0,0,0,0,0,0,1,0,1,0,0,0,0,0,1721,
scooby_state_41a54a|49|1 1719,0,0,0,0,0,0,1,0,0,0,1,0,0,0,1721,
scooby_state_41a54a|46|1 1717,1,0,0,1,0,0,0,1,0,0,0,1,0,0,1721,
scooby_state_41a54a|10|1 1718,0,0,0,1,0,0,0,0,0,2,0,0,0,0,1721,
scooby_state_41a54a|6|1 1719,0,1,0,0,0,1,0,0,0,0,0,0,0,0,1721,
scooby_state_41a54a|18|1 1718,0,1,0,1,0,0,0,0,1,0,0,0,0,0,1721,
scooby_state_41a54a|43|1 1717,0,0,1,1,0,1,0,0,0,0,0,0,1,0,1721,
scooby_state_41a58a|3|1 1721,0,0,0,0,0,0,0,0,0,0,0,0,0,0,1721,
scooby_state_41a5b7|43|1 1718,0,0,0,0,1,0,0,0,0,0,1,0,0,0,1720,
scooby_state_41a5b7|32|1 1717,1,0,0,1,0,0,0,0,0,0,0,0,1,0,1720,
scooby_state_41a5b7|38|1 1717,0,0,1,1,0,0,0,0,0,0,0,0,0,1,1720,
scooby_state_41a54a|42|1 1719,0,0,0,0,1,0,0,0,0,0,0,0,0,0,1720,
scooby_state_41a54a|58|1 1718,0,1,0,0,0,0,0,0,0,0,1,0,0,0,1720,
scooby_state_41a54a|13|1 1718,0,0,0,0,0,0,0,0,0,0,0,1,0,1,1720,
scooby_state_41a54a|26|1 1719,0,0,0,0,0,0,0,0,0,0,0,0,0,1,1720,
scooby_state_41a54a|34|1 1716,0,0,0,0,0,0,0,1,1,0,1,1,0,0,1720,
scooby_state_41a54a|22|1 1714,1,0,0,0,0,1,0,1,0,2,0,0,1,0,1720,
scooby_state_41a5b7|41|1 1717,1,0,0,0,0,0,0,0,0,0,0,0,0,2,1720,
scooby_state_41a54a|2|1 1719,0,0,0,0,0,0,0,0,0,0,0,0,0,1,1720,
scooby_state_41a54a|59|1 1714,2,0,0,1,1,0,0,0,0,0,0,0,0,1,1719,
scooby_state_41a54a|14|1 1716,0,0,0,0,0,1,1,0,0,0,0,0,0,1,1719,
scooby_state_41a54a|41|1 1711,1,0,2,0,0,0,0,4,0,0,0,1,0,0,1719,
scooby_state_41a54a|40|1 1718,0,0,0,0,0,0,0,0,0,0,1,0,0,0,1719,
scooby_state_41a5b7|42|1 1716,1,0,0,1,0,0,0,0,1,0,0,0,0,0,1719,
scooby_state_41a54a|53|1 1715,0,1,0,0,1,0,0,1,0,0,0,0,0,1,1719,
scooby_state_41a54a|33|1 1716,0,0,0,0,1,1,0,0,0,0,0,0,0,1,1719,
scooby_state_41a54a|54|1 1717,0,0,0,0,0,1,0,0,0,0,0,1,0,0,1719,
scooby_state_41a54a|16|1 1716,0,0,0,1,0,1,0,0,0,0,0,1,0,0,1719,
scooby_state_41a54a|51|1 1717,0,0,0,0,1,0,0,0,0,0,0,0,1,0,1719,
scooby_state_41a58a|47|1 1717,1,0,0,0,0,0,0,0,0,0,1,0,0,0,1719,
scooby_state_41a5b7|40|1 1719,0,0,0,0,0,0,0,0,0,0,0,0,0,0,1719,
scooby_state_41a5b7|39|1 1719,0,0,0,0,0,0,0,0,0,0,0,0,0,0,1719,
scooby_state_41a5b7|31|1 1716,0,0,0,0,0,1,0,0,0,1,0,0,0,1,1719,
scooby_state_41a5b7|30|1 1715,1,1,0,1,0,0,0,0,0,0,0,0,0,1,1719,
scooby_state_41a5b7|37|1 1718,0,0,1,0,0,0,0,0,0,0,0,0,0,0,1719,
scooby_state_41a58a|2|1 1716,0,0,0,0,0,0,0,0,1,1,0,0,1,0,1719,
scooby_state_41a54a|62|1 1718,0,0,0,0,0,0,0,0,0,1,0,0,0,0,1719,
scooby_state_41a54a|27|1 1716,0,0,0,0,0,1,0,0,0,0,0,0,0,1,1718,
scooby_state_41a54a|24|1 1716,0,0,0,0,0,0,0,1,0,0,1,0,0,0,1718,
scooby_state_41a54a|3|1 1718,0,0,0,0,0,0,0,0,0,0,0,0,0,0,1718,
scooby_state_41a54a|19|1 1716,0,0,0,0,1,0,0,0,1,0,0,0,0,0,1718,
scooby_state_41a54a|38|1 1717,0,0,0,0,0,0,0,0,0,0,0,0,0,1,1718,
scooby_state_41a54a|11|1 1714,1,0,0,1,0,0,0,1,0,0,0,0,1,0,1718,
scooby_state_41a54a|35|1 1716,1,0,0,0,0,0,0,0,1,0,0,0,0,0,1718,
scooby_state_41a54a|30|1 1716,0,0,0,0,0,0,0,0,0,0,0,1,0,1,1718,
scooby_state_41a54a|1|1 1716,0,0,0,0,0,2,0,0,0,0,0,0,0,0,1718,
scooby_state_41a54a|57|1 1716,1,0,0,0,1,0,0,0,0,0,0,0,0,0,1718,
scooby_state_41a54a|25|1 1715,0,0,0,1,0,0,1,0,0,0,1,0,0,0,1718,
scooby_state_41a58a|1|1 1717,0,0,0,0,0,0,0,0,0,0,0,0,0,0,1717,
scooby_state_41a54a|0|0 1714,0,0,0,0,0,0,2,0,0,0,1,0,0,0,1717,
scooby_state_41a54a|48|1 1714,0,0,0,0,0,1,0,0,1,0,1,0,0,0,1717,
scooby_state_41a54a|45|1 1713,0,0,1,0,0,1,0,0,1,1,0,0,0,0,1717,
scooby_state_41a54a|29|1 1713,0,1,1,0,0,1,1,0,0,0,0,0,0,0,1717,
scooby_state_41a54a|17|1 1715,0,0,0,0,1,0,0,0,1,0,0,0,0,0,1717,
scooby_state_41a54a|8|1 1714,0,0,0,0,1,0,0,1,0,0,1,0,0,0,1717,
scooby_state_41a54a|32|1 1713,0,0,0,1,0,1,2,0,0,0,0,0,0,0,1717,
scooby_state_41a54a|61|1 1715,0,0,0,0,0,0,0,0,1,0,1,0,0,0,1717,
scooby_state_41a54a|9|1 1714,0,0,0,0,0,0,1,0,1,1,0,0,0,0,1717,
scooby_state_41a54a|5|1 1715,0,0,0,0,0,0,1,0,1,0,0,0,0,0,1717,
scooby_state_41a54a|56|1 1715,0,0,0,0,0,0,0,1,0,0,1,0,0,0,1717,
scooby_state_41a54a|21|1 1714,0,0,1,0,0,0,0,0,1,0,0,0,1,0,1717,
scooby_state_41a58a|48|1 1711,0,0,0,1,0,1,0,0,3,1,0,0,0,0,1717,
scooby_state_41a58a|49|1 1714,0,1,0,0,0,0,0,0,0,0,0,1,0,0,1716,
scooby_state_41a5b7|17|1 1713,0,0,1,0,0,0,0,0,0,1,0,0,1,0,1716,
scooby_state_41a54a|37|1 1711,0,2,0,0,1,1,0,0,0,0,0,1,0,0,1716,
scooby_state_41a5b7|54|1 1713,0,0,0,1,0,0,0,0,0,0,0,0,0,1,1715,
scooby_state_41a58a|61|1 1712,1,0,0,0,0,0,1,0,0,0,0,0,0,0,1714,
scooby_state_41a58a|63|1 1712,0,0,0,0,0,0,0,0,1,1,0,0,0,0,1714,
scooby_state_41a5b7|12|1 1713,0,0,0,0,0,1,0,0,0,0,0,0,0,0,1714,
scooby_state_41a5b7|16|1 1704,1,2,0,0,0,0,2,1,0,1,1,0,1,0,1713,
scooby_state_41a58a|62|1 1711,0,0,0,0,0,0,0,0,1,0,0,0,1,0,1713,
scooby_state_41a5b7|11|1 1710,0,0,0,0,1,0,0,2,0,0,0,0,0,0,1713,
scooby_state_41a58a|54|1 1708,0,0,0,0,1,0,0,0,1,0,0,0,1,1,1712,
scooby_state_41a5b7|15|1 1712,0,0,0,0,0,0,0,0,0,0,0,0,0,0,1712,
scooby_state_41a5b7|14|1 1710,0,1,0,0,0,0,0,0,0,0,0,0,0,0,1711,
scooby_state_41a5b7|10|1 1704,1,0,0,0,0,1,1,0,0,1,0,0,2,0,1710,
scooby_state_41a58a|57|1 1707,0,0,0,1,1,0,0,0,0,0,0,0,0,1,1710,
scooby_state_41a5b7|9|1 1706,1,0,0,0,0,0,0,0,0,0,0,0,1,2,1710,
scooby_state_41a5b7|8|1 1709,0,0,0,0,0,0,0,1,0,0,0,0,0,0,1710,
scooby_state_41a5b7|7|1 1708,0,1,0,0,1,0,0,0,0,0,0,0,0,0,1710,
scooby_state_41a58a|59|1 1706,1,2,0,0,0,0,0,0,0,0,0,0,0,1,1710,
scooby_state_41a58a|60|1 1708,0,0,0,0,0,0,1,0,0,0,1,0,0,0,1710,
scooby_state_41a5b7|13|1 1709,1,0,0,0,0,0,0,0,0,0,0,0,0,0,1710,
scooby_state_41a58a|56|1 1708,0,0,0,0,0,1,0,0,0,0,0,0,1,0,1710,
scooby_state_41a5b7|6|1 1707,0,0,0,0,0,1,1,0,0,1,0,0,0,0,1710,
scooby_state_41a5b7|62|1 1707,0,0,0,0,0,1,1,0,0,0,0,0,0,0,1709,
scooby_state_41a5b7|59|1 1706,1,0,1,0,0,0,1,0,0,0,0,0,0,0,1709,
scooby_state_41a5b7|57|1 1706,0,0,0,0,0,0,0,0,0,0,1,0,1,1,1709,
scooby_state_41a5b7|4|1 1706,0,0,1,0,0,0,0,0,0,0,0,1,0,1,1709,
scooby_state_41a5b7|61|1 1707,0,0,0,0,1,0,0,0,0,0,0,0,1,0,1709,
scooby_state_41a5b7|1|1 1704,0,0,1,0,0,0,0,1,0,0,1,1,1,0,1709,
scooby_state_41a5b7|60|1 1706,0,0,0,1,0,0,1,0,0,0,0,1,0,0,1709,
scooby_state_41a5b7|58|1 1708,0,0,0,0,0,0,0,0,0,1,0,0,0,0,1709,
scooby_state_41a58a|58|1 1705,0,0,1,0,0,1,1,0,0,0,1,0,0,0,1709,
scooby_state_41a5b7|5|1 1707,0,0,0,0,0,1,0,0,0,0,0,0,0,1,1709,
scooby_state_41a58a|55|1 1705,0,0,0,0,1,0,0,0,0,1,2,0,0,0,1709,
scooby_state_41a5b7|2|1 1707,0,0,0,0,0,0,1,0,0,0,1,0,0,0,1709,
scooby_state_41a5b7|3|1 1706,0,1,0,0,1,0,0,0,1,0,0,0,0,0,1709,
scooby_state_41a5b7|63|1 1707,1,0,0,0,0,0,0,0,0,0,0,0,0,1,1709,
scooby_state_41a5b7|55|1 1701,0,0,1,0,0,1,1,0,1,0,0,1,1,0,1707,
scooby_state_41a5b7|56|1 1705,0,0,0,1,0,0,0,0,1,0,0,0,0,0,1707,
scooby_state_41a538|0|0 267,0,0,0,0,0,0,0,0,0,0,0,0,0,0,267,
scooby_state_41a538|56|1 225,0,0,1,0,0,0,0,0,0,0,0,0,0,0,226,
scooby_state_41a538|48|1 226,0,0,0,0,0,0,0,0,0,0,0,0,0,0,226,
scooby_state_41a538|8|1 225,0,0,0,0,0,0,0,0,0,0,0,0,0,0,225,
scooby_state_41a538|17|1 224,0,0,0,1,0,0,0,0,0,0,0,0,0,0,225,
scooby_state_41a538|32|1 225,0,0,0,0,0,0,0,0,0,0,0,0,0,0,225,
scooby_state_41a538|61|1 225,0,0,0,0,0,0,0,0,0,0,0,0,0,0,225,
scooby_state_41a538|45|1 225,0,0,0,0,0,0,0,0,0,0,0,0,0,0,225,
scooby_state_41a538|5|1 225,0,0,0,0,0,0,0,0,0,0,0,0,0,0,225,
scooby_state_41a538|29|1 223,1,0,0,0,0,0,0,0,0,0,0,1,0,0,225,
scooby_state_41a538|9|1 225,0,0,0,0,0,0,0,0,0,0,0,0,0,0,225,
scooby_state_41a538|37|1 225,0,0,0,0,0,0,0,0,0,0,0,0,0,0,225,
scooby_state_41a538|57|1 223,1,0,0,0,0,0,0,0,0,0,1,0,0,0,225,
scooby_state_41a538|21|1 225,0,0,0,0,0,0,0,0,0,0,0,0,0,0,225,
scooby_state_41a538|11|1 222,0,0,1,0,1,0,0,0,0,0,0,0,0,0,224,
scooby_state_41a538|3|1 224,0,0,0,0,0,0,0,0,0,0,0,0,0,0,224,
scooby_state_41a538|35|1 224,0,0,0,0,0,0,0,0,0,0,0,0,0,0,224,
scooby_state_41a538|19|1 224,0,0,0,0,0,0,0,0,0,0,0,0,0,0,224,
scooby_state_41a538|1|1 224,0,0,0,0,0,0,0,0,0,0,0,0,0,0,224,
scooby_state_41a538|51|1 224,0,0,0,0,0,0,0,0,0,0,0,0,0,0,224,
scooby_state_41a538|27|1 224,0,0,0,0,0,0,0,0,0,0,0,0,0,0,224,
scooby_state_41a538|24|1 223,0,0,0,0,0,0,0,0,0,0,0,0,1,0,224,
scooby_state_41a538|25|1 224,0,0,0,0,0,0,0,0,0,0,0,0,0,0,224,
scooby_state_41a538|54|1 224,0,0,0,0,0,0,0,0,0,0,0,0,0,0,224,
scooby_state_41a538|53|1 224,0,0,0,0,0,0,0,0,0,0,0,0,0,0,224,
scooby_state_41a538|59|1 223,0,0,0,0,0,0,0,0,0,0,0,0,0,0,223,
scooby_state_41a538|38|1 223,0,0,0,0,0,0,0,0,0,0,0,0,0,0,223,
scooby_state_41a538|14|1 223,0,0,0,0,0,0,0,0,0,0,0,0,0,0,223,
scooby_state_41a538|41|1 222,0,0,1,0,0,0,0,0,0,0,0,0,0,0,223,
scooby_state_41a538|30|1 222,0,0,0,0,0,0,0,0,0,0,1,0,0,0,223,
scooby_state_41a538|40|1 223,0,0,0,0,0,0,0,0,0,0,0,0,0,0,223,
scooby_state_41a538|62|1 223,0,0,0,0,0,0,0,0,0,0,0,0,0,0,223,
scooby_state_41a538|33|1 222,0,0,0,0,0,0,0,0,0,0,0,0,0,1,223,
scooby_state_41a538|16|1 223,0,0,0,0,0,0,0,0,0,0,0,0,0,0,223,
scooby_state_41a538|49|1 221,0,0,1,0,0,0,0,0,0,0,0,0,0,0,222,
scooby_state_41a538|13|1 222,0,0,0,0,0,0,0,0,0,0,0,0,0,0,222,
scooby_state_41a538|46|1 222,0,0,0,0,0,0,0,0,0,0,0,0,0,0,222,
scooby_state_41a538|34|1 222,0,0,0,0,0,0,0,0,0,0,0,0,0,0,222,
scooby_state_41a538|42|1 221,0,0,0,0,0,0,0,0,0,0,1,0,0,0,222,
scooby_state_41a538|26|1 222,0,0,0,0,0,0,0,0,0,0,0,0,0,0,222,
scooby_state_41a538|2|1 221,0,0,0,0,0,0,0,0,0,0,1,0,0,0,222,
scooby_state_41a538|58|1 222,0,0,0,0,0,0,0,0,0,0,0,0,0,0,222,
scooby_state_41a538|22|1 221,1,0,0,0,0,0,0,0,0,0,0,0,0,0,222,
scooby_state_41a538|10|1 221,0,0,0,0,0,0,0,0,0,0,0,0,0,0,221,
scooby_state_41a538|18|1 221,0,0,0,0,0,0,0,0,0,0,0,0,0,0,221,
scooby_state_41a538|43|1 221,0,0,0,0,0,0,0,0,0,0,0,0,0,0,221,
scooby_state_41a538|6|1 220,0,0,1,0,0,0,0,0,0,0,0,0,0,0,221,
scooby_state_41a538|50|1 220,0,0,0,0,0,0,0,0,0,0,0,0,0,0,220,
scooby_state_41a538|63|1 218,0,0,1,0,0,0,0,0,0,0,0,0,0,0,219,
scooby_state_41a538|23|1 219,0,0,0,0,0,0,0,0,0,0,0,0,0,0,219,
scooby_state_41a538|15|1 219,0,0,0,0,0,0,0,0,0,0,0,0,0,0,219,
scooby_state_41a538|31|1 218,0,0,0,0,0,0,0,0,0,1,0,0,0,0,219,
scooby_state_41a538|39|1 219,0,0,0,0,0,0,0,0,0,0,0,0,0,0,219,
scooby_state_41a538|55|1 218,0,0,0,0,0,0,0,0,1,0,0,0,0,0,219,
scooby_state_41a538|7|1 218,0,0,0,0,0,0,0,0,0,0,0,0,0,0,218,
scooby_state_41a538|47|1 217,0,0,0,1,0,0,0,0,0,0,0,0,0,0,218,
scooby_state_41a538|36|1 217,0,0,0,0,0,0,0,0,0,0,0,0,0,0,217,
scooby_state_41a538|52|1 217,0,0,0,0,0,0,0,0,0,0,0,0,0,0,217,
scooby_state_41a538|20|1 217,0,0,0,0,0,0,0,0,0,0,0,0,0,0,217,
scooby_state_41a538|4|1 217,0,0,0,0,0,0,0,0,0,0,0,0,0,0,217,
scooby_state_41a538|28|1 216,0,0,0,0,0,0,0,0,0,0,0,0,0,0,216,
scooby_state_41a538|12|1 216,0,0,0,0,0,0,0,0,0,0,0,0,0,0,216,
scooby_state_41a538|60|1 215,0,0,0,0,0,0,0,0,0,0,0,1,0,0,216,
scooby_state_41a538|44|1 215,0,0,0,0,0,0,0,0,0,0,0,0,0,0,215,
scooby_state_41a5ae|0|-38 76,0,0,0,0,0,0,0,0,0,0,0,0,0,0,76,
scooby_state_41a5ae|0|-26 76,0,0,0,0,0,0,0,0,0,0,0,0,0,0,76,
scooby_state_41a5b7|0|-38 74,0,0,0,0,0,0,0,0,0,0,0,0,0,0,74,
scooby_state_41a5ae|35|-28 74,0,0,0,0,0,0,0,0,0,0,0,0,0,0,74,
scooby_state_41a5ae|0|-11 74,0,0,0,0,0,0,0,0,0,0,0,0,0,0,74,
scooby_state_41a5ae|38|-25 74,0,0,0,0,0,0,0,0,0,0,0,0,0,0,74,
scooby_state_41a5ae|29|-34 74,0,0,0,0,0,0,0,0,0,0,0,0,0,0,74,
scooby_state_41a5ae|0|-23 74,0,0,0,0,0,0,0,0,0,0,0,0,0,0,74,
scooby_state_41a5ae|11|-52 74,0,0,0,0,0,0,0,0,0,0,0,0,0,0,74,
scooby_state_41a5ae|0|-35 74,0,0,0,0,0,0,0,0,0,0,0,0,0,0,74,
scooby_state_41a5ae|0|-32 74,0,0,0,0,0,0,0,0,0,0,0,0,0,0,74,
scooby_state_41a5ae|0|-8 74,0,0,0,0,0,0,0,0,0,0,0,0,0,0,74,
scooby_state_41a5ae|0|-14 74,0,0,0,0,0,0,0,0,0,0,0,0,0,0,74,
scooby_state_41a5ae|0|-17 74,0,0,0,0,0,0,0,0,0,0,0,0,0,0,74,
scooby_state_41a5ae|8|-55 73,0,0,0,0,0,0,0,1,0,0,0,0,0,0,74,
scooby_state_41a5ae|0|-41 74,0,0,0,0,0,0,0,0,0,0,0,0,0,0,74,
scooby_state_41a5ae|0|-20 74,0,0,0,0,0,0,0,0,0,0,0,0,0,0,74,
scooby_state_41a5ae|14|-49 73,0,0,0,0,0,0,0,0,0,0,0,0,0,0,73,
scooby_state_41a5ae|17|-46 72,0,0,0,0,0,0,0,0,0,0,0,0,1,0,73,
scooby_state_41a58a|0|-37 72,0,0,0,0,0,0,0,0,0,0,0,1,0,0,73,
scooby_state_41a5b7|0|-26 73,0,0,0,0,0,0,0,0,0,0,0,0,0,0,73,
scooby_state_41a5ae|26|-37 72,0,0,0,0,0,1,0,0,0,0,0,0,0,0,73,
scooby_state_41a5ae|23|-40 72,0,0,0,1,0,0,0,0,0,0,0,0,0,0,73,
scooby_state_41a5ae|20|-43 73,0,0,0,0,0,0,0,0,0,0,0,0,0,0,73,
scooby_state_41a5ae|0|-29 73,0,0,0,0,0,0,0,0,0,0,0,0,0,0,73,
scooby_state_41a5ae|41|-22 73,0,0,0,0,0,0,0,0,0,0,0,0,0,0,73,
scooby_state_41a5ae|32|-31 73,0,0,0,0,0,0,0,0,0,0,0,0,0,0,73,
scooby_state_41a58a|0|-28 72,0,0,0,0,0,0,0,0,0,0,0,0,0,0,72,
scooby_state_41a58a|0|-25 72,0,0,0,0,0,0,0,0,0,0,0,0,0,0,72,
scooby_state_41a58a|16|-47 71,0,0,0,0,0,0,0,0,0,0,0,0,0,0,71,
scooby_state_41a5b7|26|-37 71,0,0,0,0,0,0,0,0,0,0,0,0,0,0,71,
scooby_state_41a58a|37|-26 71,0,0,0,0,0,0,0,0,0,0,0,0,0,0,71,
scooby_state_41a5b7|0|-29 71,0,0,0,0,0,0,0,0,0,0,0,0,0,0,71,
scooby_state_41a58a|25|-38 71,0,0,0,0,0,0,0,0,0,0,0,0,0,0,71,
scooby_state_41a58a|0|-43 70,0,0,0,0,0,0,0,0,0,0,0,0,0,0,70,
scooby_state_41a5b7|0|-35 70,0,0,0,0,0,0,0,0,0,0,0,0,0,0,70,
scooby_state_41a5b7|0|-44 70,0,0,0,0,0,0,0,0,0,0,0,0,0,0,70,
scooby_state_41a58a|0|-19 70,0,0,0,0,0,0,0,0,0,0,0,0,0,0,70,
scooby_state_41a5b7|0|-23 70,0,0,0,0,0,0,0,0,0,0,0,0,0,0,70,
scooby_state_41a58a|0|-13 70,0,0,0,0,0,0,0,0,0,0,0,0,0,0,70,
scooby_state_41a5b7|38|-25 70,0,0,0,0,0,0,0,0,0,0,0,0,0,0,70,
scooby_state_41a58a|0|-40 70,0,0,0,0,0,0,0,0,0,0,0,0,0,0,70,
scooby_state_41a58a|0|-46 70,0,0,0,0,0,0,0,0,0,0,0,0,0,0,70,
scooby_state_41a5b7|0|-20 70,0,0,0,0,0,0,0,0,0,0,0,0,0,0,70,
scooby_state_41a58a|0|-16 69,0,0,0,0,0,1,0,0,0,0,0,0,0,0,70,
scooby_state_41a5b7|0|-32 70,0,0,0,0,0,0,0,0,0,0,0,0,0,0,70,
scooby_state_41a58a|0|-34 69,0,1,0,0,0,0,0,0,0,0,0,0,0,0,70,
scooby_state_41a5b7|0|-41 70,0,0,0,0,0,0,0,0,0,0,0,0,0,0,70,
scooby_state_41a5b7|0|-50 70,0,0,0,0,0,0,0,0,0,0,0,0,0,0,70,
scooby_state_41a5b7|0|-47 70,0,0,0,0,0,0,0,0,0,0,0,0,0,0,70,
scooby_state_41a58a|0|-31 70,0,0,0,0,0,0,0,0,0,0,0,0,0,0,70,
scooby_state_41a58a|0|-22 70,0,0,0,0,0,0,0,0,0,0,0,0,0,0,70,
scooby_state_41a5b7|23|-40 69,0,0,0,0,0,0,0,0,0,0,0,0,0,0,69,
scooby_state_41a58a|13|-50 69,0,0,0,0,0,0,0,0,0,0,0,0,0,0,69,
scooby_state_41a5b7|35|-28 69,0,0,0,0,0,0,0,0,0,0,0,0,0,0,69,
scooby_state_41a58a|28|-35 69,0,0,0,0,0,0,0,0,0,0,0,0,0,0,69,
scooby_state_41a5b7|29|-34 68,0,0,0,0,0,0,0,0,0,0,0,0,0,0,68,
scooby_state_41a58a|22|-41 68,0,0,0,0,0,0,0,0,0,0,0,0,0,0,68,
scooby_state_41a58a|34|-29 68,0,0,0,0,0,0,0,0,0,0,0,0,0,0,68,
scooby_state_41a5b7|50|-13 68,0,0,0,0,0,0,0,0,0,0,0,0,0,0,68,
scooby_state_41a5b7|41|-22 68,0,0,0,0,0,0,0,0,0,0,0,0,0,0,68,
scooby_state_41a5b7|32|-31 68,0,0,0,0,0,0,0,0,0,0,0,0,0,0,68,
scooby_state_41a5b7|20|-43 68,0,0,0,0,0,0,0,0,0,0,0,0,0,0,68,
scooby_state_41a58a|40|-23 68,0,0,0,0,0,0,0,0,0,0,0,0,0,0,68,
scooby_state_41a58a|46|-17 68,0,0,0,0,0,0,0,0,0,0,0,0,0,0,68,
scooby_state_41a5b7|44|-19 68,0,0,0,0,0,0,0,0,0,0,0,0,0,0,68,
scooby_state_41a58a|31|-32 68,0,0,0,0,0,0,0,0,0,0,0,0,0,0,68,
scooby_state_41a5b7|47|-16 67,1,0,0,0,0,0,0,0,0,0,0,0,0,0,68,
scooby_state_41a58a|19|-44 68,0,0,0,0,0,0,0,0,0,0,0,0,0,0,68,
scooby_state_41a58a|43|-20 68,0,0,0,0,0,0,0,0,0,0,0,0,0,0,68,
scooby_state_41a5b7|0|-53 54,0,0,0,0,0,0,0,0,0,0,0,0,0,0,54,
scooby_state_41a5b7|53|-10 53,0,0,0,0,0,0,0,0,0,0,0,0,0,0,53,
scooby_state_41a2f0|0|0 50,0,0,0,0,0,0,0,0,0,0,0,0,0,0,50,
scooby_state_41a5ae|0|0 48,0,0,0,0,0,0,0,1,0,0,0,0,0,0,49,
scooby_state_41a2f0|13|1 48,0,0,0,0,0,0,0,0,0,0,0,0,0,0,48,
scooby_state_41a2f0|9|1 48,0,0,0,0,0,0,0,0,0,0,0,0,0,0,48,
scooby_state_41a2f0|20|1 48,0,0,0,0,0,0,0,0,0,0,0,0,0,0,48,
scooby_state_41a2f0|49|1 48,0,0,0,0,0,0,0,0,0,0,0,0,0,0,48,
scooby_state_41a2f0|41|1 48,0,0,0,0,0,0,0,0,0,0,0,0,0,0,48,
scooby_state_41a2f0|14|1 48,0,0,0,0,0,0,0,0,0,0,0,0,0,0,48,
scooby_state_41a2f0|43|1 48,0,0,0,0,0,0,0,0,0,0,0,0,0,0,48,
scooby_state_41a6c1|49|-1 47,0,0,0,0,0,1,0,0,0,0,0,0,0,0,48,
scooby_state_41a6c9|48|-1 46,2,0,0,0,0,0,0,0,0,0,0,0,0,0,48,
scooby_state_41a261|46|1 48,0,0,0,0,0,0,0,0,0,0,0,0,0,0,48,
scooby_state_41a2f0|2|1 48,0,0,0,0,0,0,0,0,0,0,0,0,0,0,48,
scooby_state_41a2f0|10|1 48,0,0,0,0,0,0,0,0,0,0,0,0,0,0,48,
scooby_state_41a2f0|62|1 48,0,0,0,0,0,0,0,0,0,0,0,0,0,0,48,
scooby_state_41a2f0|6|1 47,0,0,0,0,1,0,0,0,0,0,0,0,0,0,48,
scooby_state_41a2f0|29|1 48,0,0,0,0,0,0,0,0,0,0,0,0,0,0,48,
scooby_state_41a2f0|57|1 48,0,0,0,0,0,0,0,0,0,0,0,0,0,0,48,
scooby_state_41a2f0|31|1 48,0,0,0,0,0,0,0,0,0,0,0,0,0,0,48,
scooby_state_41a2f0|58|1 48,0,0,0,0,0,0,0,0,0,0,0,0,0,0,48,
scooby_state_41a2f0|28|1 48,0,0,0,0,0,0,0,0,0,0,0,0,0,0,48,
scooby_state_41a2f0|50|1 48,0,0,0,0,0,0,0,0,0,0,0,0,0,0,48,
scooby_state_41a2f0|1|1 48,0,0,0,0,0,0,0,0,0,0,0,0,0,0,48,
scooby_state_41a2f0|19|1 48,0,0,0,0,0,0,0,0,0,0,0,0,0,0,48,
scooby_state_41a2f0|60|1 48,0,0,0,0,0,0,0,0,0,0,0,0,0,0,48,
scooby_state_41a2f0|47|1 48,0,0,0,0,0,0,0,0,0,0,0,0,0,0,48,
scooby_state_41a2f0|37|1 47,0,0,0,1,0,0,0,0,0,0,0,0,0,0,48,
scooby_state_41a2f0|16|1 48,0,0,0,0,0,0,0,0,0,0,0,0,0,0,48,
scooby_state_41a2f0|32|1 48,0,0,0,0,0,0,0,0,0,0,0,0,0,0,48,
scooby_state_41a2f0|52|1 48,0,0,0,0,0,0,0,0,0,0,0,0,0,0,48,
scooby_state_41a2f0|59|1 48,0,0,0,0,0,0,0,0,0,0,0,0,0,0,48,
scooby_state_41a2f0|25|1 48,0,0,0,0,0,0,0,0,0,0,0,0,0,0,48,
scooby_state_41a64b|51|7 16,0,0,0,0,0,0,0,0,1,0,31,0,0,0,48,
scooby_state_41a3c4|44|-3 48,0,0,0,0,0,0,0,0,0,0,0,0,0,0,48,
scooby_state_41a2f0|34|1 48,0,0,0,0,0,0,0,0,0,0,0,0,0,0,48,
scooby_state_41a2f0|45|1 48,0,0,0,0,0,0,0,0,0,0,0,0,0,0,48,
scooby_state_41a2f0|33|1 48,0,0,0,0,0,0,0,0,0,0,0,0,0,0,48,
scooby_state_41a2f0|30|1 48,0,0,0,0,0,0,0,0,0,0,0,0,0,0,48,
scooby_state_41a2f0|27|1 48,0,0,0,0,0,0,0,0,0,0,0,0,0,0,48,
scooby_state_41a2f0|39|1 48,0,0,0,0,0,0,0,0,0,0,0,0,0,0,48,
scooby_state_41a2f0|22|1 48,0,0,0,0,0,0,0,0,0,0,0,0,0,0,48,
scooby_state_41a2f0|21|1 48,0,0,0,0,0,0,0,0,0,0,0,0,0,0,48,
scooby_state_41a2f0|18|1 48,0,0,0,0,0,0,0,0,0,0,0,0,0,0,48,
scooby_state_41a72a|45|-3 46,0,0,0,0,0,1,0,0,0,0,0,1,0,0,48,
scooby_state_41a2f0|3|1 48,0,0,0,0,0,0,0,0,0,0,0,0,0,0,48,
scooby_state_41a2f0|38|1 48,0,0,0,0,0,0,0,0,0,0,0,0,0,0,48,
scooby_state_41a2f0|12|1 48,0,0,0,0,0,0,0,0,0,0,0,0,0,0,48,
scooby_state_41a2f0|11|1 48,0,0,0,0,0,0,0,0,0,0,0,0,0,0,48,
scooby_state_41a2f0|63|1 47,1,0,0,0,0,0,0,0,0,0,0,0,0,0,48,
scooby_state_41a2f0|61|1 48,0,0,0,0,0,0,0,0,0,0,0,0,0,0,48,
scooby_state_41a2f0|15|1 48,0,0,0,0,0,0,0,0,0,0,0,0,0,0,48,
scooby_state_41a2f0|51|1 48,0,0,0,0,0,0,0,0,0,0,0,0,0,0,48,
scooby_state_41a2f0|46|1 48,0,0,0,0,0,0,0,0,0,0,0,0,0,0,48,
scooby_state_41a2f0|54|1 48,0,0,0,0,0,0,0,0,0,0,0,0,0,0,48,
scooby_state_41a2f0|42|1 48,0,0,0,0,0,0,0,0,0,0,0,0,0,0,48,
scooby_state_41a2f0|40|1 48,0,0,0,0,0,0,0,0,0,0,0,0,0,0,48,
scooby_state_41a2f0|36|1 48,0,0,0,0,0,0,0,0,0,0,0,0,0,0,48,
scooby_state_41a2f0|35|1 48,0,0,0,0,0,0,0,0,0,0,0,0,0,0,48,
scooby_state_41a2f0|56|1 48,0,0,0,0,0,0,0,0,0,0,0,0,0,0,48,
scooby_state_41a2f0|23|1 48,0,0,0,0,0,0,0,0,0,0,0,0,0,0,48,
scooby_state_41a2f0|5|1 48,0,0,0,0,0,0,0,0,0,0,0,0,0,0,48,
scooby_state_41a2f0|8|1 48,0,0,0,0,0,0,0,0,0,0,0,0,0,0,48,
scooby_state_41a2f0|26|1 48,0,0,0,0,0,0,0,0,0,0,0,0,0,0,48,
scooby_state_41a2f0|53|1 47,0,0,0,0,0,0,0,0,0,0,0,1,0,0,48,
scooby_state_41a2f0|24|1 48,0,0,0,0,0,0,0,0,0,0,0,0,0,0,48,
scooby_state_41a2f0|48|1 48,0,0,0,0,0,0,0,0,0,0,0,0,0,0,48,
scooby_state_41a2f0|44|1 48,0,0,0,0,0,0,0,0,0,0,0,0,0,0,48,
scooby_state_41a2f0|7|1 48,0,0,0,0,0,0,0,0,0,0,0,0,0,0,48,
scooby_state_41a2f0|55|1 48,0,0,0,0,0,0,0,0,0,0,0,0,0,0,48,
scooby_state_41a383|47|1 48,0,0,0,0,0,0,0,0,0,0,0,0,0,0,48,
scooby_state_41a2f0|17|1 48,0,0,0,0,0,0,0,0,0,0,0,0,0,0,48,
scooby_state_41a2f0|4|1 48,0,0,0,0,0,0,0,0,0,0,0,0,0,0,48,
scooby_state_41a5b7|35|2 46,0,0,0,0,0,0,0,0,0,0,0,0,0,0,46,
scooby_state_41a566|60|0 44,0,0,0,0,0,0,0,0,0,0,0,0,0,0,44,
scooby_state_41a596|34|0 42,0,0,0,0,0,0,0,0,0,0,0,1,0,0,43,
scooby_state_41a558|60|0 43,0,0,0,0,0,0,0,0,0,0,0,0,0,0,43,
scooby_state_41a573|44|0 43,0,0,0,0,0,0,0,0,0,0,0,0,0,0,43,
scooby_state_41a573|31|0 43,0,0,0,0,0,0,0,0,0,0,0,0,0,0,43,
scooby_state_41a566|57|0 42,0,0,0,0,0,0,1,0,0,0,0,0,0,0,43,
scooby_state_41a566|3|0 43,0,0,0,0,0,0,0,0,0,0,0,0,0,0,43,
scooby_state_41a596|31|0 43,0,0,0,0,0,0,0,0,0,0,0,0,0,0,43,
scooby_state_41a538|60|0 43,0,0,0,0,0,0,0,0,0,0,0,0,0,0,43,
scooby_state_41a596|41|0 43,0,0,0,0,0,0,0,0,0,0,0,0,0,0,43,
scooby_state_41a596|44|0 43,0,0,0,0,0,0,0,0,0,0,0,0,0,0,43,
scooby_state_41a573|34|0 43,0,0,0,0,0,0,0,0,0,0,0,0,0,0,43,
scooby_state_41a566|6|0 43,0,0,0,0,0,0,0,0,0,0,0,0,0,0,43,
scooby_state_41a573|41|0 43,0,0,0,0,0,0,0,0,0,0,0,0,0,0,43,
scooby_state_41a558|3|0 43,0,0,0,0,0,0,0,0,0,0,0,0,0,0,43,
scooby_state_41a5aa|41|0 43,0,0,0,0,0,0,0,0,0,0,0,0,0,0,43,
scooby_state_41a558|57|0 43,0,0,0,0,0,0,0,0,0,0,0,0,0,0,43,
scooby_state_41a5aa|34|0 42,0,0,0,0,0,0,0,0,1,0,0,0,0,0,43,
scooby_state_41a538|3|0 43,0,0,0,0,0,0,0,0,0,0,0,0,0,0,43,
scooby_state_41a538|57|0 43,0,0,0,0,0,0,0,0,0,0,0,0,0,0,43,
scooby_state_41a5aa|44|0 43,0,0,0,0,0,0,0,0,0,0,0,0,0,0,43,
scooby_state_41a558|6|0 43,0,0,0,0,0,0,0,0,0,0,0,0,0,0,43,
scooby_state_41a5aa|31|0 42,0,0,0,0,1,0,0,0,0,0,0,0,0,0,43,
scooby_state_41a5aa|37|0 42,0,0,0,0,0,0,0,0,0,0,0,0,0,0,42,
scooby_state_41a538|63|0 42,0,0,0,0,0,0,0,0,0,0,0,0,0,0,42,
scooby_state_41a5aa|38|0 42,0,0,0,0,0,0,0,0,0,0,0,0,0,0,42,
scooby_state_41a573|28|0 42,0,0,0,0,0,0,0,0,0,0,0,0,0,0,42,
scooby_state_41a5aa|47|0 42,0,0,0,0,0,0,0,0,0,0,0,0,0,0,42,
scooby_state_41a566|63|0 42,0,0,0,0,0,0,0,0,0,0,0,0,0,0,42,
scooby_state_41a573|38|0 42,0,0,0,0,0,0,0,0,0,0,0,0,0,0,42,
scooby_state_41a573|47|0 42,0,0,0,0,0,0,0,0,0,0,0,0,0,0,42,
scooby_state_41a566|9|0 42,0,0,0,0,0,0,0,0,0,0,0,0,0,0,42,
scooby_state_41a558|63|0 42,0,0,0,0,0,0,0,0,0,0,0,0,0,0,42,
scooby_state_41a573|37|0 42,0,0,0,0,0,0,0,0,0,0,0,0,0,0,42,
scooby_state_41a538|9|0 42,0,0,0,0,0,0,0,0,0,0,0,0,0,0,42,
scooby_state_41a538|54|0 42,0,0,0,0,0,0,0,0,0,0,0,0,0,0,42,
scooby_state_41a558|9|0 42,0,0,0,0,0,0,0,0,0,0,0,0,0,0,42,
scooby_state_41a596|28|0 42,0,0,0,0,0,0,0,0,0,0,0,0,0,0,42,
scooby_state_41a596|37|0 41,1,0,0,0,0,0,0,0,0,0,0,0,0,0,42,
scooby_state_41a566|54|0 42,0,0,0,0,0,0,0,0,0,0,0,0,0,0,42,
scooby_state_41a558|54|0 42,0,0,0,0,0,0,0,0,0,0,0,0,0,0,42,
scooby_state_41a596|47|0 42,0,0,0,0,0,0,0,0,0,0,0,0,0,0,42,
scooby_state_41a5aa|28|0 42,0,0,0,0,0,0,0,0,0,0,0,0,0,0,42,
scooby_state_41a538|6|0 42,0,0,0,0,0,0,0,0,0,0,0,0,0,0,42,
scooby_state_41a596|38|0 42,0,0,0,0,0,0,0,0,0,0,0,0,0,0,42,
scooby_state_41a596|25|0 41,0,0,0,0,0,0,0,0,0,0,0,0,0,0,41,
scooby_state_41a573|25|0 41,0,0,0,0,0,0,0,0,0,0,0,0,0,0,41,
scooby_state_41a558|2|0 41,0,0,0,0,0,0,0,0,0,0,0,0,0,0,41,
scooby_state_41a573|35|0 41,0,0,0,0,0,0,0,0,0,0,0,0,0,0,41,
scooby_state_41a558|61|0 41,0,0,0,0,0,0,0,0,0,0,0,0,0,0,41,
scooby_state_41a5aa|35|0 41,0,0,0,0,0,0,0,0,0,0,0,0,0,0,41,
scooby_state_41a558|51|0 41,0,0,0,0,0,0,0,0,0,0,0,0,0,0,41,
scooby_state_41a538|61|0 41,0,0,0,0,0,0,0,0,0,0,0,0,0,0,41,
scooby_state_41a5aa|25|0 41,0,0,0,0,0,0,0,0,0,0,0,0,0,0,41,
scooby_state_41a596|35|0 41,0,0,0,0,0,0,0,0,0,0,0,0,0,0,41,
scooby_state_41a538|2|0 41,0,0,0,0,0,0,0,0,0,0,0,0,0,0,41,
scooby_state_41a5aa|40|0 41,0,0,0,0,0,0,0,0,0,0,0,0,0,0,41,
scooby_state_41a5ae|27|-36 41,0,0,0,0,0,0,0,0,0,0,0,0,0,0,41,
scooby_state_41a538|51|0 41,0,0,0,0,0,0,0,0,0,0,0,0,0,0,41,
scooby_state_41a566|12|0 41,0,0,0,0,0,0,0,0,0,0,0,0,0,0,41,
scooby_state_41a566|51|0 41,0,0,0,0,0,0,0,0,0,0,0,0,0,0,41,
scooby_state_41a566|2|0 41,0,0,0,0,0,0,0,0,0,0,0,0,0,0,41,
scooby_state_41a596|40|0 41,0,0,0,0,0,0,0,0,0,0,0,0,0,0,41,
scooby_state_41a573|40|0 41,0,0,0,0,0,0,0,0,0,0,0,0,0,0,41,
scooby_state_41a558|48|0 40,0,0,0,0,0,0,0,0,0,0,0,0,0,0,40,
scooby_state_41a566|61|0 40,0,0,0,0,0,0,0,0,0,0,0,0,0,0,40,
scooby_state_41a5aa|50|0 40,0,0,0,0,0,0,0,0,0,0,0,0,0,0,40,
scooby_state_41a566|5|0 40,0,0,0,0,0,0,0,0,0,0,0,0,0,0,40,
scooby_state_41a558|12|0 40,0,0,0,0,0,0,0,0,0,0,0,0,0,0,40,
scooby_state_41a596|50|0 40,0,0,0,0,0,0,0,0,0,0,0,0,0,0,40,
scooby_state_41a596|22|0 40,0,0,0,0,0,0,0,0,0,0,0,0,0,0,40,
scooby_state_41a538|12|0 40,0,0,0,0,0,0,0,0,0,0,0,0,0,0,40,
scooby_state_41a5aa|22|0 39,0,0,0,0,0,0,0,0,1,0,0,0,0,0,40,
scooby_state_41a573|50|0 40,0,0,0,0,0,0,0,0,0,0,0,0,0,0,40,
scooby_state_41a573|22|0 40,0,0,0,0,0,0,0,0,0,0,0,0,0,0,40,
scooby_state_41a558|5|0 39,0,0,0,0,0,0,0,0,0,0,0,0,0,0,39,
scooby_state_41a596|43|0 39,0,0,0,0,0,0,0,0,0,0,0,0,0,0,39,
scooby_state_41a5aa|43|0 39,0,0,0,0,0,0,0,0,0,0,0,0,0,0,39,
scooby_state_41a596|32|0 39,0,0,0,0,0,0,0,0,0,0,0,0,0,0,39,
scooby_state_41a596|53|0 39,0,0,0,0,0,0,0,0,0,0,0,0,0,0,39,
scooby_state_41a5aa|32|0 39,0,0,0,0,0,0,0,0,0,0,0,0,0,0,39,
scooby_state_41a566|48|0 39,0,0,0,0,0,0,0,0,0,0,0,0,0,0,39,
scooby_state_41a573|53|0 39,0,0,0,0,0,0,0,0,0,0,0,0,0,0,39,
scooby_state_41a596|19|0 39,0,0,0,0,0,0,0,0,0,0,0,0,0,0,39,
scooby_state_41a566|15|0 39,0,0,0,0,0,0,0,0,0,0,0,0,0,0,39,
scooby_state_41a5ae|36|-27 39,0,0,0,0,0,0,0,0,0,0,0,0,0,0,39,
scooby_state_41a538|15|0 39,0,0,0,0,0,0,0,0,0,0,0,0,0,0,39,
scooby_state_41a558|15|0 39,0,0,0,0,0,0,0,0,0,0,0,0,0,0,39,
scooby_state_41a558|45|0 39,0,0,0,0,0,0,0,0,0,0,0,0,0,0,39,
scooby_state_41a573|43|0 39,0,0,0,0,0,0,0,0,0,0,0,0,0,0,39,
scooby_state_41a538|45|0 39,0,0,0,0,0,0,0,0,0,0,0,0,0,0,39,
scooby_state_41a558|58|0 39,0,0,0,0,0,0,0,0,0,0,0,0,0,0,39,
scooby_state_41a538|48|0 39,0,0,0,0,0,0,0,0,0,0,0,0,0,0,39,
scooby_state_41a573|19|0 39,0,0,0,0,0,0,0,0,0,0,0,0,0,0,39,
scooby_state_41a5aa|53|0 39,0,0,0,0,0,0,0,0,0,0,0,0,0,0,39,
scooby_state_41a538|58|0 39,0,0,0,0,0,0,0,0,0,0,0,0,0,0,39,
scooby_state_41a573|32|0 38,0,0,0,0,0,0,0,0,0,0,0,1,0,0,39,
scooby_state_41a5aa|19|0 39,0,0,0,0,0,0,0,0,0,0,0,0,0,0,39,
scooby_state_41a5ae|0|-37 38,0,0,0,0,0,0,0,0,0,0,0,0,0,0,38,
scooby_state_41a573|56|0 38,0,0,0,0,0,0,0,0,0,0,0,0,0,0,38,
scooby_state_41a5ae|24|-39 38,0,0,0,0,0,0,0,0,0,0,0,0,0,0,38,
scooby_state_41a558|18|0 38,0,0,0,0,0,0,0,0,0,0,0,0,0,0,38,
scooby_state_41a5ae|39|-24 38,0,0,0,0,0,0,0,0,0,0,0,0,0,0,38,
scooby_state_41a5ae|0|-28 38,0,0,0,0,0,0,0,0,0,0,0,0,0,0,38,
scooby_state_41a5ae|21|-42 37,0,1,0,0,0,0,0,0,0,0,0,0,0,0,38,
scooby_state_41a596|56|0 38,0,0,0,0,0,0,0,0,0,0,0,0,0,0,38,
scooby_state_41a538|18|0 38,0,0,0,0,0,0,0,0,0,0,0,0,0,0,38,
scooby_state_41a538|5|0 38,0,0,0,0,0,0,0,0,0,0,0,0,0,0,38,
scooby_state_41a5ae|25|-38 38,0,0,0,0,0,0,0,0,0,0,0,0,0,0,38,
scooby_state_41a5ae|0|-27 38,0,0,0,0,0,0,0,0,0,0,0,0,0,0,38,
scooby_state_41a5ae|42|-21 38,0,0,0,0,0,0,0,0,0,0,0,0,0,0,38,
scooby_state_41a5ae|15|-48 38,0,0,0,0,0,0,0,0,0,0,0,0,0,0,38,
scooby_state_41a566|58|0 38,0,0,0,0,0,0,0,0,0,0,0,0,0,0,38,
scooby_state_41a5ae|33|-30 38,0,0,0,0,0,0,0,0,0,0,0,0,0,0,38,
scooby_state_41a566|45|0 38,0,0,0,0,0,0,0,0,0,0,0,0,0,0,38,
scooby_state_41a566|18|0 38,0,0,0,0,0,0,0,0,0,0,0,0,0,0,38,
scooby_state_41a5aa|56|0 38,0,0,0,0,0,0,0,0,0,0,0,0,0,0,38,
scooby_state_41a5ae|37|-26 38,0,0,0,0,0,0,0,0,0,0,0,0,0,0,38,
scooby_state_41a5ae|18|-45 38,0,0,0,0,0,0,0,0,0,0,0,0,0,0,38,
scooby_state_41a558|55|0 37,0,0,0,0,0,0,0,0,0,0,0,0,0,0,37,
scooby_state_41a5ae|10|-53 37,0,0,0,0,0,0,0,0,0,0,0,0,0,0,37,
scooby_state_41a5aa|29|0 37,0,0,0,0,0,0,0,0,0,0,0,0,0,0,37,
scooby_state_41a58a|0|-26 37,0,0,0,0,0,0,0,0,0,0,0,0,0,0,37,
scooby_state_41a5ae|0|-9 37,0,0,0,0,0,0,0,0,0,0,0,0,0,0,37,
scooby_state_41a566|8|0 37,0,0,0,0,0,0,0,0,0,0,0,0,0,0,37,
scooby_state_41a5ae|28|-35 37,0,0,0,0,0,0,0,0,0,0,0,0,0,0,37,
scooby_state_41a5ae|0|-13 36,0,0,0,0,0,0,0,0,0,1,0,0,0,0,37,
[...]
scooby_state_41a5b7|45|10 1,0,0,0,0,0,0,0,0,0,0,0,0,0,0,1,
scooby_state_41a5b7|35|14 1,0,0,0,0,0,0,0,0,0,0,0,0,0,0,1,
scooby_state_41a58a|15|2 1,0,0,0,0,0,0,0,0,0,0,0,0,0,0,1,
scooby_state_41a5ae|61|24 1,0,0,0,0,0,0,0,0,0,0,0,0,0,0,1,
scooby_state_41a5b7|45|-1 1,0,0,0,0,0,0,0,0,0,0,0,0,0,0,1,
scooby_state_41a5ae|15|0 1,0,0,0,0,0,0,0,0,0,0,0,0,0,0,1,
scooby_state_41a2f0|47|0 1,0,0,0,0,0,0,0,0,0,0,0,0,0,0,1,
scooby_state_41a5ae|15|-27 1,0,0,0,0,0,0,0,0,0,0,0,0,0,0,1,
scooby_state_41a58a|54|3 1,0,0,0,0,0,0,0,0,0,0,0,0,0,0,1,
scooby_state_41a5ae|63|25 1,0,0,0,0,0,0,0,0,0,0,0,0,0,0,1,
scooby_state_41a2f0|41|0 1,0,0,0,0,0,0,0,0,0,0,0,0,0,0,1,
scooby_state_41a5b7|24|-28 1,0,0,0,0,0,0,0,0,0,0,0,0,0,0,1,
scooby_state_41a58a|55|5 1,0,0,0,0,0,0,0,0,0,0,0,0,0,0,1,
scooby_state_41a5b7|11|-13 1,0,0,0,0,0,0,0,0,0,0,0,0,0,0,1,
scooby_state_41a5b7|24|-27 1,0,0,0,0,0,0,0,0,0,0,0,0,0,0,1,
scooby_state_41a5b7|23|-28 1,0,0,0,0,0,0,0,0,0,0,0,0,0,0,1,
scooby_state_41a5b7|45|-8 1,0,0,0,0,0,0,0,0,0,0,0,0,0,0,1,
scooby_state_41a58a|56|7 1,0,0,0,0,0,0,0,0,0,0,0,0,0,0,1,
scooby_state_41a5ae|37|2 1,0,0,0,0,0,0,0,0,0,0,0,0,0,0,1,
scooby_state_41a58a|34|-2 1,0,0,0,0,0,0,0,0,0,0,0,0,0,0,1,
scooby_state_41a58a|40|-12 1,0,0,0,0,0,0,0,0,0,0,0,0,0,0,1,
scooby_state_41a58a|40|-9 1,0,0,0,0,0,0,0,0,0,0,0,0,0,0,1,
scooby_state_41a58a|42|5 1,0,0,0,0,0,0,0,0,0,0,0,0,0,0,1,
scooby_state_41a5ae|18|-27 1,0,0,0,0,0,0,0,0,0,0,0,0,0,0,1,
scooby_state_41a5b7|11|-14 1,0,0,0,0,0,0,0,0,0,0,0,0,0,0,1,
scooby_state_41a5ae|12|-2 1,0,0,0,0,0,0,0,0,0,0,0,0,0,0,1,
scooby_state_41a5b7|7|-38 1,0,0,0,0,0,0,0,0,0,0,0,0,0,0,1,
scooby_state_41a5b7|60|7 1,0,0,0,0,0,0,0,0,0,0,0,0,0,0,1,
scooby_state_41a58a|20|-2 1,0,0,0,0,0,0,0,0,0,0,0,0,0,0,1,
scooby_state_41a58a|15|6 1,0,0,0,0,0,0,0,0,0,0,0,0,0,0,1,
scooby_state_41a5b7|11|-34 1,0,0,0,0,0,0,0,0,0,0,0,0,0,0,1,
scooby_state_41a5b7|62|35 1,0,0,0,0,0,0,0,0,0,0,0,0,0,0,1,
scooby_state_41a5b7|60|36 1,0,0,0,0,0,0,0,0,0,0,0,0,0,0,1,
scooby_state_41a58a|16|2 1,0,0,0,0,0,0,0,0,0,0,0,0,0,0,1,
scooby_state_41a5b7|23|-37 1,0,0,0,0,0,0,0,0,0,0,0,0,0,0,1,
scooby_state_41a5ae|20|-39 1,0,0,0,0,0,0,0,0,0,0,0,0,0,0,1,
scooby_state_41a58a|25|-37 1,0,0,0,0,0,0,0,0,0,0,0,0,0,0,1,
scooby_state_41a5b7|27|0 1,0,0,0,0,0,0,0,0,0,0,0,0,0,0,1,
scooby_state_41a58a|26|-28 1,0,0,0,0,0,0,0,0,0,0,0,0,0,0,1,
scooby_state_41a58a|3|-15 1,0,0,0,0,0,0,0,0,0,0,0,0,0,0,1,
scooby_state_41a5b7|21|14 1,0,0,0,0,0,0,0,0,0,0,0,0,0,0,1,
scooby_state_41a5b7|35|15 1,0,0,0,0,0,0,0,0,0,0,0,0,0,0,1,
scooby_state_41a5b7|55|25 1,0,0,0,0,0,0,0,0,0,0,0,0,0,0,1,
scooby_state_41a58a|27|6 1,0,0,0,0,0,0,0,0,0,0,0,0,0,0,1,
scooby_state_41a58a|11|-7 1,0,0,0,0,0,0,0,0,0,0,0,0,0,0,1,
scooby_state_41a58a|51|15 1,0,0,0,0,0,0,0,0,0,0,0,0,0,0,1,
scooby_state_41a5b7|20|2 1,0,0,0,0,0,0,0,0,0,0,0,0,0,0,1,
scooby_state_41a5b7|18|5 1,0,0,0,0,0,0,0,0,0,0,0,0,0,0,1,
scooby_state_41a5ae|35|-27 0,1,0,0,0,0,0,0,0,0,0,0,0,0,0,1,
scooby_state_41a5ae|56|35 1,0,0,0,0,0,0,0,0,0,0,0,0,0,0,1,
scooby_state_41a5ae|19|-27 1,0,0,0,0,0,0,0,0,0,0,0,0,0,0,1,
scooby_state_41a58a|23|21 1,0,0,0,0,0,0,0,0,0,0,0,0,0,0,1,
scooby_state_41a5ae|13|-27 1,0,0,0,0,0,0,0,0,0,0,0,0,0,0,1,
scooby_state_41a58a|44|4 1,0,0,0,0,0,0,0,0,0,0,0,0,0,0,1,
scooby_state_41a5b7|23|-1 1,0,0,0,0,0,0,0,0,0,0,0,0,0,0,1,
scooby_state_41a58a|19|-37 1,0,0,0,0,0,0,0,0,0,0,0,0,0,0,1,
scooby_state_41a58a|37|2 1,0,0,0,0,0,0,0,0,0,0,0,0,0,0,1,
scooby_state_41a58a|11|-8 1,0,0,0,0,0,0,0,0,0,0,0,0,0,0,1,
scooby_state_41a5ae|42|36 1,0,0,0,0,0,0,0,0,0,0,0,0,0,0,1,
scooby_state_41a5b7|23|-38 1,0,0,0,0,0,0,0,0,0,0,0,0,0,0,1,
scooby_state_41a58a|3|-28 1,0,0,0,0,0,0,0,0,0,0,0,0,0,0,1,
scooby_state_41a58a|51|7 1,0,0,0,0,0,0,0,0,0,0,0,0,0,0,1,
scooby_state_41a58a|15|4 1,0,0,0,0,0,0,0,0,0,0,0,0,0,0,1,
scooby_state_41a58a|11|-12 1,0,0,0,0,0,0,0,0,0,0,0,0,0,0,1,
scooby_state_41a58a|40|-10 1,0,0,0,0,0,0,0,0,0,0,0,0,0,0,1,
scooby_state_41a5ae|26|-27 1,0,0,0,0,0,0,0,0,0,0,0,0,0,0,1,
scooby_state_41a58a|35|19 1,0,0,0,0,0,0,0,0,0,0,0,0,0,0,1,
scooby_state_41a58a|18|-38 1,0,0,0,0,0,0,0,0,0,0,0,0,0,0,1,
scooby_state_41a58a|5|-29 1,0,0,0,0,0,0,0,0,0,0,0,0,0,0,1,
scooby_state_41a5b7|26|-28 1,0,0,0,0,0,0,0,0,0,0,0,0,0,0,1,
scooby_state_41a58a|50|8 1,0,0,0,0,0,0,0,0,0,0,0,0,0,0,1,
scooby_state_41a5ae|34|-27 1,0,0,0,0,0,0,0,0,0,0,0,0,0,0,1,
scooby_state_41a5b7|61|8 1,0,0,0,0,0,0,0,0,0,0,0,0,0,0,1,
scooby_state_41a58a|62|46 1,0,0,0,0,0,0,0,0,0,0,0,0,0,0,1,
scooby_state_41a2f0|39|0 1,0,0,0,0,0,0,0,0,0,0,0,0,0,0,1,
scooby_state_41a58a|9|-38 1,0,0,0,0,0,0,0,0,0,0,0,0,0,0,1,
scooby_state_41a54a|5|0 1,0,0,0,0,0,0,0,0,0,0,0,0,0,0,1,
scooby_state_41a5ae|54|36 1,0,0,0,0,0,0,0,0,0,0,0,0,0,0,1,
scooby_state_41a5b7|33|-1 1,0,0,0,0,0,0,0,0,0,0,0,0,0,0,1,
scooby_state_41a58a|1|-28 1,0,0,0,0,0,0,0,0,0,0,0,0,0,0,1,
scooby_state_41a343|13|1 1,0,0,0,0,0,0,0,0,0,0,0,0,0,0,1,
scooby_state_41a58a|47|5 1,0,0,0,0,0,0,0,0,0,0,0,0,0,0,1,
scooby_state_41a58a|61|8 1,0,0,0,0,0,0,0,0,0,0,0,0,0,0,1,
scooby_state_41a5ae|52|36 1,0,0,0,0,0,0,0,0,0,0,0,0,0,0,1,
scooby_state_41a5b7|19|2 1,0,0,0,0,0,0,0,0,0,0,0,0,0,0,1,
scooby_state_41a5ae|9|-27 1,0,0,0,0,0,0,0,0,0,0,0,0,0,0,1,
scooby_state_41a58a|60|11 1,0,0,0,0,0,0,0,0,0,0,0,0,0,0,1,
scooby_state_41a5b7|44|24 1,0,0,0,0,0,0,0,0,0,0,0,0,0,0,1,
scooby_state_41a5b7|48|-1 1,0,0,0,0,0,0,0,0,0,0,0,0,0,0,1,
scooby_state_41a5ae|2|-38 1,0,0,0,0,0,0,0,0,0,0,0,0,0,0,1,
scooby_state_41a5b7|12|-38 1,0,0,0,0,0,0,0,0,0,0,0,0,0,0,1,
scooby_state_56ad81|54|1 1,0,0,0,0,0,0,0,0,0,0,0,0,0,0,1,
scooby_state_41a58a|42|8 1,0,0,0,0,0,0,0,0,0,0,0,0,0,0,1,
scooby_state_41a58a|20|-27 1,0,0,0,0,0,0,0,0,0,0,0,0,0,0,1,
scooby_state_41a5b7|33|23 1,0,0,0,0,0,0,0,0,0,0,0,0,0,0,1,
scooby_state_41a58a|18|-27 1,0,0,0,0,0,0,0,0,0,0,0,0,0,0,1,
scooby_state_41a5b7|19|-37 1,0,0,0,0,0,0,0,0,0,0,0,0,0,0,1,
scooby_state_56ad10|52|0 1,0,0,0,0,0,0,0,0,0,0,0,0,0,0,1,
scooby_state_41a5b7|4|-28 1,0,0,0,0,0,0,0,0,0,0,0,0,0,0,1,
scooby_state_41a5b7|20|-39 1,0,0,0,0,0,0,0,0,0,0,0,0,0,0,1,
scooby_state_41a58a|63|12 1,0,0,0,0,0,0,0,0,0,0,0,0,0,0,1,
scooby_state_41a58a|6|-10 1,0,0,0,0,0,0,0,0,0,0,0,0,0,0,1,
scooby_state_41a5b7|9|-10 1,0,0,0,0,0,0,0,0,0,0,0,0,0,0,1,
scooby_state_41a715|28|1 1,0,0,0,0,0,0,0,0,0,0,0,0,0,0,1,
scooby_state_41a5b7|19|-40 1,0,0,0,0,0,0,0,0,0,0,0,0,0,0,1,
scooby_state_41a5ae|12|-1 1,0,0,0,0,0,0,0,0,0,0,0,0,0,0,1,
scooby_state_41a58a|30|3 1,0,0,0,0,0,0,0,0,0,0,0,0,0,0,1,
scooby_state_41a6c1|27|0 1,0,0,0,0,0,0,0,0,0,0,0,0,0,0,1,
scooby_state_41a5b7|17|-40 1,0,0,0,0,0,0,0,0,0,0,0,0,0,0,1,
scooby_state_41a58a|13|-48 1,0,0,0,0,0,0,0,0,0,0,0,0,0,0,1,
scooby_state_41a58a|21|16 1,0,0,0,0,0,0,0,0,0,0,0,0,0,0,1,
scooby_state_41a58a|33|19 1,0,0,0,0,0,0,0,0,0,0,0,0,0,0,1,
scooby_state_41a5b7|20|-2 1,0,0,0,0,0,0,0,0,0,0,0,0,0,0,1,
scooby_state_41a58a|63|46 1,0,0,0,0,0,0,0,0,0,0,0,0,0,0,1,
scooby_state_41a5b7|25|2 1,0,0,0,0,0,0,0,0,0,0,0,0,0,0,1,
scooby_state_41a5b7|11|-11 1,0,0,0,0,0,0,0,0,0,0,0,0,0,0,1,
scooby_state_41a5b7|8|-9 1,0,0,0,0,0,0,0,0,0,0,0,0,0,0,1,
scooby_state_41a5b7|6|-39 1,0,0,0,0,0,0,0,0,0,0,0,0,0,0,1,
scooby_state_41a5ae|53|36 1,0,0,0,0,0,0,0,0,0,0,0,0,0,0,1,
scooby_state_41a58a|30|24 1,0,0,0,0,0,0,0,0,0,0,0,0,0,0,1,
scooby_state_41a58a|8|7 1,0,0,0,0,0,0,0,0,0,0,0,0,0,0,1,
scooby_state_41a58a|39|-1 1,0,0,0,0,0,0,0,0,0,0,0,0,0,0,1,
scooby_state_41a5b7|55|36 1,0,0,0,0,0,0,0,0,0,0,0,0,0,0,1,
scooby_state_41a5ae|29|-27 1,0,0,0,0,0,0,0,0,0,0,0,0,0,0,1,
scooby_state_41a58a|49|-3 1,0,0,0,0,0,0,0,0,0,0,0,0,0,0,1,
scooby_state_41a58a|33|5 1,0,0,0,0,0,0,0,0,0,0,0,0,0,0,1,
scooby_state_41a5ae|3|-28 1,0,0,0,0,0,0,0,0,0,0,0,0,0,0,1,
scooby_state_41a5ae|8|-38 1,0,0,0,0,0,0,0,0,0,0,0,0,0,0,1,
scooby_state_41a58a|38|4 1,0,0,0,0,0,0,0,0,0,0,0,0,0,0,1,
scooby_state_41a58a|13|-2 1,0,0,0,0,0,0,0,0,0,0,0,0,0,0,1,
scooby_state_41a2f0|34|0 1,0,0,0,0,0,0,0,0,0,0,0,0,0,0,1,
scooby_state_41a2c1|11|1 1,0,0,0,0,0,0,0,0,0,0,0,0,0,0,1,
scooby_state_41a5b7|58|5 1,0,0,0,0,0,0,0,0,0,0,0,0,0,0,1,
scooby_state_41a5b7|31|10 1,0,0,0,0,0,0,0,0,0,0,0,0,0,0,1,
scooby_state_41a58a|44|-5 1,0,0,0,0,0,0,0,0,0,0,0,0,0,0,1,
scooby_state_41a58a|27|-27 1,0,0,0,0,0,0,0,0,0,0,0,0,0,0,1,
scooby_state_41a5ae|30|25 1,0,0,0,0,0,0,0,0,0,0,0,0,0,0,1,
scooby_state_41a542|53|1 1,0,0,0,0,0,0,0,0,0,0,0,0,0,0,1,
scooby_state_41a5ae|9|0 1,0,0,0,0,0,0,0,0,0,0,0,0,0,0,1,
scooby_state_41a58a|13|-28 1,0,0,0,0,0,0,0,0,0,0,0,0,0,0,1,
scooby_state_56adc1|55|1 1,0,0,0,0,0,0,0,0,0,0,0,0,0,0,1,
scooby_state_41a5ae|6|-2 1,0,0,0,0,0,0,0,0,0,0,0,0,0,0,1,
scooby_state_41a58a|49|2 1,0,0,0,0,0,0,0,0,0,0,0,0,0,0,1,
scooby_state_41a58a|60|47 1,0,0,0,0,0,0,0,0,0,0,0,0,0,0,1,
scooby_state_41a5b7|17|-1 1,0,0,0,0,0,0,0,0,0,0,0,0,0,0,1,
scooby_state_41a58a|15|-38 1,0,0,0,0,0,0,0,0,0,0,0,0,0,0,1,
scooby_state_41a5b7|49|9 1,0,0,0,0,0,0,0,0,0,0,0,0,0,0,1,
scooby_state_41a5b7|18|-40 1,0,0,0,0,0,0,0,0,0,0,0,0,0,0,1,
scooby_state_41a5b7|23|-26 1,0,0,0,0,0,0,0,0,0,0,0,0,0,0,1,
scooby_state_41a58a|61|46 1,0,0,0,0,0,0,0,0,0,0,0,0,0,0,1,
scooby_state_41a58a|28|-1 1,0,0,0,0,0,0,0,0,0,0,0,0,0,0,1,
scooby_state_41a5b7|37|4 1,0,0,0,0,0,0,0,0,0,0,0,0,0,0,1,
scooby_state_41a5b7|46|25 1,0,0,0,0,0,0,0,0,0,0,0,0,0,0,1,
scooby_state_41a5ae|10|-38 1,0,0,0,0,0,0,0,0,0,0,0,0,0,0,1,
scooby_state_41a5ae|8|-39 1,0,0,0,0,0,0,0,0,0,0,0,0,0,0,1,
scooby_state_41a5b7|30|-1 1,0,0,0,0,0,0,0,0,0,0,0,0,0,0,1,
scooby_state_41a58a|10|-5 1,0,0,0,0,0,0,0,0,0,0,0,0,0,0,1,
scooby_state_41a5b7|62|24 1,0,0,0,0,0,0,0,0,0,0,0,0,0,0,1,
scooby_state_41a58a|24|7 1,0,0,0,0,0,0,0,0,0,0,0,0,0,0,1,
scooby_state_41a58a|44|25 1,0,0,0,0,0,0,0,0,0,0,0,0,0,0,1,
scooby_state_41a5b7|20|-37 1,0,0,0,0,0,0,0,0,0,0,0,0,0,0,1,
scooby_state_41a5b7|4|-39 1,0,0,0,0,0,0,0,0,0,0,0,0,0,0,1,
scooby_state_41a5b7|17|2 1,0,0,0,0,0,0,0,0,0,0,0,0,0,0,1,
scooby_state_41a5b7|57|36 1,0,0,0,0,0,0,0,0,0,0,0,0,0,0,1,
scooby_state_41a5b7|45|24 1,0,0,0,0,0,0,0,0,0,0,0,0,0,0,1,
scooby_state_41a58a|56|35 1,0,0,0,0,0,0,0,0,0,0,0,0,0,0,1,
scooby_state_41a58a|39|8 1,0,0,0,0,0,0,0,0,0,0,0,0,0,0,1,
scooby_state_41a58a|31|8 1,0,0,0,0,0,0,0,0,0,0,0,0,0,0,1,
scooby_state_41a58a|56|24 1,0,0,0,0,0,0,0,0,0,0,0,0,0,0,1,
scooby_state_41a5ae|23|-27 1,0,0,0,0,0,0,0,0,0,0,0,0,0,0,1,
scooby_state_41a5b7|16|-27 1,0,0,0,0,0,0,0,0,0,0,0,0,0,0,1,
scooby_state_41a5b7|20|-38 1,0,0,0,0,0,0,0,0,0,0,0,0,0,0,1,
scooby_state_41a5ae|59|25 1,0,0,0,0,0,0,0,0,0,0,0,0,0,0,1,
scooby_state_41a5ae|10|-27 1,0,0,0,0,0,0,0,0,0,0,0,0,0,0,1,
scooby_state_41a58a|63|24 1,0,0,0,0,0,0,0,0,0,0,0,0,0,0,1,
scooby_state_41a58a|26|8 1,0,0,0,0,0,0,0,0,0,0,0,0,0,0,1,
scooby_state_41a58a|18|5 1,0,0,0,0,0,0,0,0,0,0,0,0,0,0,1,
scooby_state_41a5b7|18|-38 1,0,0,0,0,0,0,0,0,0,0,0,0,0,0,1,
scooby_state_41a5b7|23|-2 1,0,0,0,0,0,0,0,0,0,0,0,0,0,0,1,
scooby_state_41a58a|14|-29 1,0,0,0,0,0,0,0,0,0,0,0,0,0,0,1,
scooby_state_41a58a|47|25 1,0,0,0,0,0,0,0,0,0,0,0,0,0,0,1,
scooby_state_41a5b7|38|35 1,0,0,0,0,0,0,0,0,0,0,0,0,0,0,1,
scooby_state_41a58a|14|4 1,0,0,0,0,0,0,0,0,0,0,0,0,0,0,1,
scooby_state_41a5b7|11|-31 1,0,0,0,0,0,0,0,0,0,0,0,0,0,0,1,
scooby_state_41a5ae|34|2 1,0,0,0,0,0,0,0,0,0,0,0,0,0,0,1,
scooby_state_41a5ae|62|36 1,0,0,0,0,0,0,0,0,0,0,0,0,0,0,1,
scooby_state_41a58a|60|10 1,0,0,0,0,0,0,0,0,0,0,0,0,0,0,1,
scooby_state_41a5b7|13|-26 1,0,0,0,0,0,0,0,0,0,0,0,0,0,0,1,
scooby_state_41a58a|11|7 1,0,0,0,0,0,0,0,0,0,0,0,0,0,0,1,
scooby_state_41a58a|14|-38 1,0,0,0,0,0,0,0,0,0,0,0,0,0,0,1,
scooby_state_41a5ae|11|-27 1,0,0,0,0,0,0,0,0,0,0,0,0,0,0,1,
scooby_state_41a58a|14|-44 1,0,0,0,0,0,0,0,0,0,0,0,0,0,0,1,
scooby_state_41a5ae|45|36 1,0,0,0,0,0,0,0,0,0,0,0,0,0,0,1,
scooby_state_41a58a|9|7 1,0,0,0,0,0,0,0,0,0,0,0,0,0,0,1,
scooby_state_41a5b7|25|-2 1,0,0,0,0,0,0,0,0,0,0,0,0,0,0,1,
scooby_state_41a2f0|57|0 1,0,0,0,0,0,0,0,0,0,0,0,0,0,0,1,
scooby_state_41a58a|2|-12 1,0,0,0,0,0,0,0,0,0,0,0,0,0,0,1,
scooby_state_41a58a|57|4 1,0,0,0,0,0,0,0,0,0,0,0,0,0,0,1,
scooby_state_41a58a|58|4 1,0,0,0,0,0,0,0,0,0,0,0,0,0,0,1,
scooby_state_41a5b7|10|-10 1,0,0,0,0,0,0,0,0,0,0,0,0,0,0,1,
scooby_state_41a300|12|1 1,0,0,0,0,0,0,0,0,0,0,0,0,0,0,1,
scooby_state_41a58a|35|-27 1,0,0,0,0,0,0,0,0,0,0,0,0,0,0,1,
scooby_state_41a58a|11|9 1,0,0,0,0,0,0,0,0,0,0,0,0,0,0,1,
scooby_state_41a5b7|20|-26 1,0,0,0,0,0,0,0,0,0,0,0,0,0,0,1,
scooby_state_41a5b7|18|-2 1,0,0,0,0,0,0,0,0,0,0,0,0,0,0,1,
scooby_state_41a58a|53|14 1,0,0,0,0,0,0,0,0,0,0,0,0,0,0,1,
scooby_state_41a5ae|22|0 1,0,0,0,0,0,0,0,0,0,0,0,0,0,0,1,
scooby_state_41a5b7|27|5 1,0,0,0,0,0,0,0,0,0,0,0,0,0,0,1,
scooby_state_41a58a|20|-40 1,0,0,0,0,0,0,0,0,0,0,0,0,0,0,1,
scooby_state_41a5ae|10|0 1,0,0,0,0,0,0,0,0,0,0,0,0,0,0,1,
scooby_state_41a5b7|39|-1 1,0,0,0,0,0,0,0,0,0,0,0,0,0,0,1,
scooby_state_41a58a|7|-26 1,0,0,0,0,0,0,0,0,0,0,0,0,0,0,1,
scooby_state_41a5b7|16|-2 1,0,0,0,0,0,0,0,0,0,0,0,0,0,0,1,
scooby_state_41a5ae|4|-38 1,0,0,0,0,0,0,0,0,0,0,0,0,0,0,1,
scooby_state_41a58a|24|21 1,0,0,0,0,0,0,0,0,0,0,0,0,0,0,1,
scooby_state_41a5b7|37|-16 1,0,0,0,0,0,0,0,0,0,0,0,0,0,0,1,
scooby_state_41a54a|6|0 1,0,0,0,0,0,0,0,0,0,0,0,0,0,0,1,
scooby_state_41a5b7|23|-39 1,0,0,0,0,0,0,0,0,0,0,0,0,0,0,1,
scooby_state_41a58a|34|-1 1,0,0,0,0,0,0,0,0,0,0,0,0,0,0,1,

scooby_action_0_deg_dist 0,140,0,0,0,0,0,0,0,0,0,0,0,0,0,0,
scooby_action_-6_deg_dist 0,122,0,0,0,0,0,0,0,0,0,0,0,0,0,0,
scooby_action_3_deg_dist 0,155,0,0,0,0,0,0,0,0,0,0,0,0,0,0,
scooby_action_32_deg_dist 0,120,0,0,0,0,0,0,0,0,0,0,0,0,0,0,
scooby_action_4_deg_dist 0,147,0,0,0,0,0,0,0,0,0,0,0,0,0,0,
scooby_action_1_deg_dist 0,79992,44641,0,108325,0,879346,0,0,0,0,0,0,0,0,0,
scooby_action_30_deg_dist 0,148,0,0,0,0,0,0,0,0,0,0,0,0,0,0,
scooby_action_5_deg_dist 0,137,0,0,0,0,0,0,0,0,0,0,0,0,0,0,
scooby_action_10_deg_dist 0,152,0,0,0,0,0,0,0,0,0,0,0,0,0,0,
scooby_action_-1_deg_dist 0,2043,0,0,0,0,0,0,0,0,0,0,0,0,0,0,
scooby_action_23_deg_dist 0,139,0,0,0,0,0,0,0,0,0,0,0,0,0,0,
scooby_action_11_deg_dist 0,135,0,0,0,0,0,0,0,0,0,0,0,0,0,0,
scooby_action_12_deg_dist 0,142,0,0,0,0,0,0,0,0,0,0,0,0,0,0,
scooby_action_22_deg_dist 0,1069,0,0,0,0,0,0,0,0,0,0,0,0,0,0,
scooby_action_-3_deg_dist 0,135,0,0,0,0,0,0,0,0,0,0,0,0,0,0,

scooby_track_called 1117088
scooby_track_same_address 3083
scooby_track_evict 1113749

scooby_reward_demand_called 1117088
scooby_reward_demand_pt_not_found 45891
scooby_reward_demand_pt_found 1071197
scooby_reward_demand_pt_found_total 1071197
scooby_reward_demand_has_reward 0
scooby_reward_train_called 25314
scooby_reward_assign_reward_called 1113984
scooby_reward_no_pref 139
scooby_reward_incorrect 25175
scooby_reward_correct_untimely 982369
scooby_reward_correct_timely 88828
scooby_reward_out_of_bounds 17473
scooby_reward_tracker_hit 0

scooby_reward_none_low_bw 139
scooby_reward_none_high_bw 0
scooby_reward_incorrect_low_bw 25175
scooby_reward_incorrect_high_bw 0
scooby_reward_correct_untimely_low_bw 982369
scooby_reward_correct_untimely_high_bw 0
scooby_reward_correct_timely_low_bw 88828
scooby_reward_correct_timely_high_bw 0
scooby_reward_out_of_bounds_low_bw 17473
scooby_reward_out_of_bounds_high_bw 0
scooby_reward_tracker_hit_low_bw 0
scooby_reward_tracker_hit_high_bw 0

scooby_reward_1 0,23906,980024,88461,17156,0,
scooby_reward_3 0,13,119,14,6,0,
scooby_reward_4 0,16,97,30,4,0,
scooby_reward_5 0,15,101,17,4,0,
scooby_reward_10 0,23,30,80,19,0,
scooby_reward_11 0,19,24,70,21,0,
scooby_reward_12 0,25,28,68,21,0,
scooby_reward_22 0,966,18,45,40,0,
scooby_reward_23 0,38,14,39,48,0,
scooby_reward_30 0,63,4,3,78,0,
scooby_reward_32 0,62,0,1,57,0,
scooby_reward_-1 0,6,1910,0,4,0,
scooby_reward_-3 0,12,0,0,5,0,
scooby_reward_-6 0,11,0,0,10,0,
scooby_reward_0 139,0,0,0,0,0,

scooby_train_called 1113748
scooby_train_compute_reward 25314

scooby_register_fill_called 797472
scooby_register_fill_set 89869
scooby_register_fill_set_total 89869

scooby_register_prefetch_hit_called 4708547
scooby_register_prefetch_hit_set 1006214
scooby_register_prefetch_hit_set_total 1006214

scooby_pref_issue_scooby 5541677

learning_engine_featurewise.action.called 1117088
learning_engine_featurewise.action.explore 2062
learning_engine_featurewise.action.exploit 1115026
learning_engine_featurewise.action.fallback 0
learning_engine_featurewise.action.dyn_fallback_saved_bw 0
learning_engine_featurewise.action.dyn_fallback_saved_bw_acc 0
learning_engine_featurewise.action.index_1_explored 136
learning_engine_featurewise.action.index_1_exploited 1112168
learning_engine_featurewise.action.index_3_explored 148
learning_engine_featurewise.action.index_3_exploited 7
learning_engine_featurewise.action.index_4_explored 143
learning_engine_featurewise.action.index_4_exploited 4
learning_engine_featurewise.action.index_5_explored 133
learning_engine_featurewise.action.index_5_exploited 4
learning_engine_featurewise.action.index_10_explored 150
learning_engine_featurewise.action.index_10_exploited 2
learning_engine_featurewise.action.index_11_explored 133
learning_engine_featurewise.action.index_11_exploited 2
learning_engine_featurewise.action.index_12_explored 140
learning_engine_featurewise.action.index_12_exploited 2
learning_engine_featurewise.action.index_22_explored 145
learning_engine_featurewise.action.index_22_exploited 924
learning_engine_featurewise.action.index_23_explored 138
learning_engine_featurewise.action.index_23_exploited 1
learning_engine_featurewise.action.index_30_explored 147
learning_engine_featurewise.action.index_30_exploited 1
learning_engine_featurewise.action.index_32_explored 119
learning_engine_featurewise.action.index_32_exploited 1
learning_engine_featurewise.action.index_-1_explored 133
learning_engine_featurewise.action.index_-1_exploited 1910
learning_engine_featurewise.action.index_-3_explored 135
learning_engine_featurewise.action.index_-3_exploited 0
learning_engine_featurewise.action.index_-6_explored 122
learning_engine_featurewise.action.index_-6_exploited 0
learning_engine_featurewise.action.index_0_explored 140
learning_engine_featurewise.action.index_0_exploited 0
learning_engine_featurewise.learn.called 1113748
learning_engine_featurewise.learn.su_skip_PC 0
learning_engine_featurewise.learn.su_skip_PC_Delta 0

learning_engine_featurewise.q_value_histogram.bucket_0 0
learning_engine_featurewise.q_value_histogram.bucket_1 0
learning_engine_featurewise.q_value_histogram.bucket_2 0
learning_engine_featurewise.q_value_histogram.bucket_3 0
learning_engine_featurewise.q_value_histogram.bucket_4 1104
learning_engine_featurewise.q_value_histogram.bucket_5 4238
learning_engine_featurewise.q_value_histogram.bucket_6 1109684
learning_engine_featurewise.q_value_histogram.bucket_7 0

learning_engine_featurewise.consensus.total 1115026
learning_engine_featurewise.consensus.feature_align_PC 1108702
learning_engine_featurewise.consensus.feature_align_PC_ratio 0.99
learning_engine_featurewise.consensus.feature_align_PC_Delta 1114733
learning_engine_featurewise.consensus.feature_align_PC_Delta_ratio 1.00
learning_engine_featurewise.consensus.feature_align_all 1108409
learning_engine_featurewise.consensus.feature_align_all_ratio 0.99

learning_engine_featurewise.feature_PC_min_weight 1000000.00000000
learning_engine_featurewise.feature_PC_max_weight 0.00000000
learning_engine_featurewise.feature_PC_Delta_min_weight 1000000.00000000
learning_engine_featurewise.feature_PC_Delta_max_weight 0.00000000
unique_pcs 46
unique_pages 19810
unique_trigger_pcs 17
total_bitmaps_seen 0
unique_bitmaps_seen 0

scooby_bw_epochs 191731
scooby_bw_level_0 66983
scooby_bw_level_1 106250
scooby_bw_level_2 15658
scooby_bw_level_3 2840

scooby_ipc_epochs 0
scooby_ipc_level_0 0
scooby_ipc_level_1 0
scooby_ipc_level_2 0
scooby_ipc_level_3 0

scooby_cache_acc_epochs 46344
scooby_cache_acc_level_0 1
scooby_cache_acc_level_1 0
scooby_cache_acc_level_2 0
scooby_cache_acc_level_3 1
scooby_cache_acc_level_4 2
scooby_cache_acc_level_5 49
scooby_cache_acc_level_6 2082
scooby_cache_acc_level_7 4866
scooby_cache_acc_level_8 9262
scooby_cache_acc_level_9 30081

Channel_0_RQ_row_buffer_hit 484764
Channel_0_RQ_row_buffer_miss 105671
Channel_0_WQ_row_buffer_hit 2438
Channel_0_WQ_row_buffer_miss 3074
Channel_0_WQ_full 0
Channel_0_dbus_congested 112084

avg_congested_cycle 8

DRAM_bw_pochs 191731
DRAM_bw_level_0 66983
DRAM_bw_level_1 106250
DRAM_bw_level_2 15658
DRAM_bw_level_3 2840
