*************************************************
   ChampSim Multicore Out-of-Order Simulator
   Last compiled: Apr  3 2025 20:54:34
*************************************************
parsing config file: /home/zir/Pythia/config/nopref.ini

trace_0 /home/zir/ChampSim/ML-DPC/ChampSimTraces/spec17/602.gcc-s2.trace.xz
adding L2C_PREFETCHER: NONE
Initialize SHIP state
warmup_instructions 10000000
simulation_instructions 50000000
champsim_seed 165
measure_ipc 0
measure_ipc_epoch 1000
measure_dram_bw 1
measure_dram_bw_epoch 256
measure_cache_acc 1
measure_cache_acc_epoch 1024
l1d_perfect 0
l2c_perfect 0
llc_perfect 0
l1d_semi_perfect 0
l2c_semi_perfect 0
llc_semi_perfect 0
semi_perfect_cache_page_buffer_size 64

num_cpus 1
cpu_freq 4000
dram_io_freq 2400
page_size 4096
block_size 64
max_read_per_cycle 8
max_fill_per_cycle 1
dram_channels 1
log2_dram_channels 0
dram_ranks 1
dram_banks 8
dram_rows 65536
dram_columns 128
dram_row_size 8
dram_size 4096
dram_pages 1048576

fetch_width 6
decode_width 6
exec_width 4
lq_width 2
sq_width 2
retire_width 4
scheduler_size 128
branch_mispredict_penalty 20
rob_size 256
lq_size 72
sq_size 56
num_instr_destinations_sparc 4
num_instr_destinations 2
num_instr_sources 4

itlb_set 16
itlb_way 8
itlb_rq_size 16
itlb_wq_size 16
itlb_pq_size 0
itlb_mshr_size 8
itlb_latency 1

dtlb_set 16
dtlb_way 4
dtlb_rq_size 16
dtlb_wq_size 16
dtlb_pq_size 0
dtlb_mshr_size 8
dtlb_latency 1

stlb_set 128
stlb_way 12
stlb_rq_size 32
stlb_wq_size 32
stlb_pq_size 0
stlb_mshr_size 16
stlb_latency 8

l1i_size 32
l1i_set 64
l1i_way 8
l1i_rq_size 64
l1i_wq_size 64
l1i_pq_size 8
l1i_mshr_size 8
l1i_latency 1

l1d_size 32
l1d_set 64
l1d_way 8
l1d_rq_size 64
l1d_wq_size 64
l1d_pq_size 8
l1d_mshr_size 16
l1d_latency 4

l2c_size 256
l2c_set 512
l2c_way 8
l2c_rq_size 32
l2c_wq_size 32
l2c_pq_size 32
l2c_mshr_size 32
l2c_latency 10

llc_size 2048
llc_set 2048
llc_way 16
llc_rq_size 32
llc_wq_size 32
llc_pq_size 32
llc_mshr_size 64
llc_latency 20

dram_channel_width 8
dram_wq_size 64
dram_rq_size 64
tRP 15
tRCD 15
tCAS 12.5
dram_dbus_turn_around_time 30
dram_write_high_wm 56
dram_write_low_wm 48
min_dram_writes_per_switch 16
dram_mtps 2400
dram_dbus_return_time 13


Heartbeat CPU  0 instructions:    1000000 cycles:    1100886 heartbeat IPC: 0.90836 cumulative IPC: 0.90836 (Simulation time: 0 hr 0 min 1 sec) 
Heartbeat CPU  0 instructions:    2000002 cycles:    2043353 heartbeat IPC: 1.06105 cumulative IPC: 0.97878 (Simulation time: 0 hr 0 min 2 sec) 
Heartbeat CPU  0 instructions:    3000003 cycles:    2956404 heartbeat IPC: 1.09523 cumulative IPC: 1.01475 (Simulation time: 0 hr 0 min 4 sec) 
Heartbeat CPU  0 instructions:    4000000 cycles:    3761298 heartbeat IPC: 1.24240 cumulative IPC: 1.06346 (Simulation time: 0 hr 0 min 5 sec) 
Heartbeat CPU  0 instructions:    5000003 cycles:    4684212 heartbeat IPC: 1.08353 cumulative IPC: 1.06742 (Simulation time: 0 hr 0 min 6 sec) 
Heartbeat CPU  0 instructions:    6000002 cycles:    5606478 heartbeat IPC: 1.08428 cumulative IPC: 1.07019 (Simulation time: 0 hr 0 min 8 sec) 
Heartbeat CPU  0 instructions:    7000001 cycles:    6525623 heartbeat IPC: 1.08797 cumulative IPC: 1.07269 (Simulation time: 0 hr 0 min 9 sec) 
Heartbeat CPU  0 instructions:    8000000 cycles:    7403173 heartbeat IPC: 1.13954 cumulative IPC: 1.08062 (Simulation time: 0 hr 0 min 10 sec) 
Heartbeat CPU  0 instructions:    9000002 cycles:    8297636 heartbeat IPC: 1.11799 cumulative IPC: 1.08465 (Simulation time: 0 hr 0 min 12 sec) 
Heartbeat CPU  0 instructions:   10000002 cycles:    9238426 heartbeat IPC: 1.06294 cumulative IPC: 1.08244 (Simulation time: 0 hr 0 min 13 sec) 

Warmup complete CPU  0 instructions:   10000002 cycles:    9238426 (Simulation time: 0 hr 0 min 13 sec) 

Heartbeat CPU  0 instructions:   11000000 cycles:   12659796 heartbeat IPC: 0.29228 cumulative IPC: 0.29228 (Simulation time: 0 hr 0 min 15 sec) 
Heartbeat CPU  0 instructions:   12000000 cycles:   15429951 heartbeat IPC: 0.36099 cumulative IPC: 0.32302 (Simulation time: 0 hr 0 min 17 sec) 
Heartbeat CPU  0 instructions:   13000002 cycles:   18430762 heartbeat IPC: 0.33324 cumulative IPC: 0.32636 (Simulation time: 0 hr 0 min 19 sec) 
Heartbeat CPU  0 instructions:   14000000 cycles:   20696565 heartbeat IPC: 0.44134 cumulative IPC: 0.34910 (Simulation time: 0 hr 0 min 21 sec) 
Heartbeat CPU  0 instructions:   15000002 cycles:   23240060 heartbeat IPC: 0.39316 cumulative IPC: 0.35710 (Simulation time: 0 hr 0 min 23 sec) 
Heartbeat CPU  0 instructions:   16000000 cycles:   26778832 heartbeat IPC: 0.28258 cumulative IPC: 0.34207 (Simulation time: 0 hr 0 min 25 sec) 
Heartbeat CPU  0 instructions:   17000000 cycles:   29925554 heartbeat IPC: 0.31779 cumulative IPC: 0.33837 (Simulation time: 0 hr 0 min 28 sec) 
Heartbeat CPU  0 instructions:   18000000 cycles:   33530431 heartbeat IPC: 0.27740 cumulative IPC: 0.32933 (Simulation time: 0 hr 0 min 29 sec) 
Heartbeat CPU  0 instructions:   19000000 cycles:   36837929 heartbeat IPC: 0.30234 cumulative IPC: 0.32609 (Simulation time: 0 hr 0 min 31 sec) 
Heartbeat CPU  0 instructions:   20000000 cycles:   40185338 heartbeat IPC: 0.29874 cumulative IPC: 0.32313 (Simulation time: 0 hr 0 min 33 sec) 
Heartbeat CPU  0 instructions:   21000000 cycles:   43614762 heartbeat IPC: 0.29159 cumulative IPC: 0.31999 (Simulation time: 0 hr 0 min 35 sec) 
Heartbeat CPU  0 instructions:   22000002 cycles:   46826474 heartbeat IPC: 0.31136 cumulative IPC: 0.31925 (Simulation time: 0 hr 0 min 37 sec) 
Heartbeat CPU  0 instructions:   23000001 cycles:   50164441 heartbeat IPC: 0.29958 cumulative IPC: 0.31765 (Simulation time: 0 hr 0 min 39 sec) 
Heartbeat CPU  0 instructions:   24000000 cycles:   53552049 heartbeat IPC: 0.29519 cumulative IPC: 0.31593 (Simulation time: 0 hr 0 min 41 sec) 
Heartbeat CPU  0 instructions:   25000000 cycles:   56780063 heartbeat IPC: 0.30979 cumulative IPC: 0.31551 (Simulation time: 0 hr 0 min 43 sec) 
Heartbeat CPU  0 instructions:   26000001 cycles:   60123780 heartbeat IPC: 0.29907 cumulative IPC: 0.31443 (Simulation time: 0 hr 0 min 45 sec) 
Heartbeat CPU  0 instructions:   27000000 cycles:   63320786 heartbeat IPC: 0.31279 cumulative IPC: 0.31434 (Simulation time: 0 hr 0 min 47 sec) 
Heartbeat CPU  0 instructions:   28000000 cycles:   66683879 heartbeat IPC: 0.29735 cumulative IPC: 0.31334 (Simulation time: 0 hr 0 min 49 sec) 
Heartbeat CPU  0 instructions:   29000002 cycles:   69739914 heartbeat IPC: 0.32722 cumulative IPC: 0.31404 (Simulation time: 0 hr 0 min 51 sec) 
Heartbeat CPU  0 instructions:   30000001 cycles:   72887782 heartbeat IPC: 0.31768 cumulative IPC: 0.31422 (Simulation time: 0 hr 0 min 53 sec) 
Heartbeat CPU  0 instructions:   31000002 cycles:   75685701 heartbeat IPC: 0.35741 cumulative IPC: 0.31604 (Simulation time: 0 hr 0 min 55 sec) 
Heartbeat CPU  0 instructions:   32000000 cycles:   78251312 heartbeat IPC: 0.38977 cumulative IPC: 0.31878 (Simulation time: 0 hr 0 min 57 sec) 
Heartbeat CPU  0 instructions:   33000000 cycles:   80964245 heartbeat IPC: 0.36860 cumulative IPC: 0.32067 (Simulation time: 0 hr 0 min 59 sec) 
Heartbeat CPU  0 instructions:   34000000 cycles:   83351789 heartbeat IPC: 0.41884 cumulative IPC: 0.32383 (Simulation time: 0 hr 1 min 0 sec) 
Heartbeat CPU  0 instructions:   35000001 cycles:   86368683 heartbeat IPC: 0.33147 cumulative IPC: 0.32413 (Simulation time: 0 hr 1 min 2 sec) 
Heartbeat CPU  0 instructions:   36000000 cycles:   89324253 heartbeat IPC: 0.33834 cumulative IPC: 0.32465 (Simulation time: 0 hr 1 min 4 sec) 
Heartbeat CPU  0 instructions:   37000001 cycles:   92091670 heartbeat IPC: 0.36135 cumulative IPC: 0.32588 (Simulation time: 0 hr 1 min 7 sec) 
Heartbeat CPU  0 instructions:   38000000 cycles:   94506485 heartbeat IPC: 0.41411 cumulative IPC: 0.32838 (Simulation time: 0 hr 1 min 8 sec) 
Heartbeat CPU  0 instructions:   39000000 cycles:   98152738 heartbeat IPC: 0.27425 cumulative IPC: 0.32616 (Simulation time: 0 hr 1 min 10 sec) 
Heartbeat CPU  0 instructions:   40000000 cycles:  100932336 heartbeat IPC: 0.35976 cumulative IPC: 0.32718 (Simulation time: 0 hr 1 min 12 sec) 
Heartbeat CPU  0 instructions:   41000000 cycles:  103609605 heartbeat IPC: 0.37351 cumulative IPC: 0.32849 (Simulation time: 0 hr 1 min 14 sec) 
Heartbeat CPU  0 instructions:   42000000 cycles:  106387994 heartbeat IPC: 0.35992 cumulative IPC: 0.32939 (Simulation time: 0 hr 1 min 16 sec) 
Heartbeat CPU  0 instructions:   43000002 cycles:  108498794 heartbeat IPC: 0.47375 cumulative IPC: 0.33246 (Simulation time: 0 hr 1 min 18 sec) 
Heartbeat CPU  0 instructions:   44000000 cycles:  109951775 heartbeat IPC: 0.68824 cumulative IPC: 0.33759 (Simulation time: 0 hr 1 min 20 sec) 
Heartbeat CPU  0 instructions:   45000000 cycles:  112187051 heartbeat IPC: 0.44737 cumulative IPC: 0.33998 (Simulation time: 0 hr 1 min 22 sec) 
Heartbeat CPU  0 instructions:   46000003 cycles:  115064567 heartbeat IPC: 0.34752 cumulative IPC: 0.34018 (Simulation time: 0 hr 1 min 24 sec) 
Heartbeat CPU  0 instructions:   47000000 cycles:  116567143 heartbeat IPC: 0.66552 cumulative IPC: 0.34474 (Simulation time: 0 hr 1 min 26 sec) 
Heartbeat CPU  0 instructions:   48000000 cycles:  118007862 heartbeat IPC: 0.69410 cumulative IPC: 0.34936 (Simulation time: 0 hr 1 min 28 sec) 
Heartbeat CPU  0 instructions:   49000000 cycles:  120683142 heartbeat IPC: 0.37379 cumulative IPC: 0.34995 (Simulation time: 0 hr 1 min 30 sec) 
Heartbeat CPU  0 instructions:   50000000 cycles:  123479100 heartbeat IPC: 0.35766 cumulative IPC: 0.35014 (Simulation time: 0 hr 1 min 32 sec) 
Heartbeat CPU  0 instructions:   51000003 cycles:  125622633 heartbeat IPC: 0.46652 cumulative IPC: 0.35228 (Simulation time: 0 hr 1 min 34 sec) 
Heartbeat CPU  0 instructions:   52000000 cycles:  128015297 heartbeat IPC: 0.41794 cumulative IPC: 0.35360 (Simulation time: 0 hr 1 min 36 sec) 
Heartbeat CPU  0 instructions:   53000000 cycles:  130303799 heartbeat IPC: 0.43697 cumulative IPC: 0.35518 (Simulation time: 0 hr 1 min 38 sec) 
Heartbeat CPU  0 instructions:   54000001 cycles:  131940983 heartbeat IPC: 0.61081 cumulative IPC: 0.35859 (Simulation time: 0 hr 1 min 39 sec) 
Heartbeat CPU  0 instructions:   55000002 cycles:  134014495 heartbeat IPC: 0.48227 cumulative IPC: 0.36065 (Simulation time: 0 hr 1 min 41 sec) 
Heartbeat CPU  0 instructions:   56000000 cycles:  136336340 heartbeat IPC: 0.43069 cumulative IPC: 0.36193 (Simulation time: 0 hr 1 min 42 sec) 
Heartbeat CPU  0 instructions:   57000000 cycles:  138368350 heartbeat IPC: 0.49212 cumulative IPC: 0.36397 (Simulation time: 0 hr 1 min 44 sec) 
Heartbeat CPU  0 instructions:   58000000 cycles:  140490495 heartbeat IPC: 0.47122 cumulative IPC: 0.36571 (Simulation time: 0 hr 1 min 46 sec) 
Heartbeat CPU  0 instructions:   59000000 cycles:  142602099 heartbeat IPC: 0.47357 cumulative IPC: 0.36742 (Simulation time: 0 hr 1 min 47 sec) 
Heartbeat CPU  0 instructions:   60000000 cycles:  144970365 heartbeat IPC: 0.42225 cumulative IPC: 0.36837 (Simulation time: 0 hr 1 min 49 sec) 
Finished CPU 0 instructions: 50000000 cycles: 135731952 cumulative IPC: 0.36837 (Simulation time: 0 hr 1 min 49 sec) 

ChampSim completed all CPUs

[ROI Statistics]
Core_0_instructions 50000000
Core_0_cycles 135731952
Core_0_IPC 0.36837

Core_0_branch_prediction_accuracy 93.10318
Core_0_branch_MPKI 12.73372
Core_0_average_ROB_occupancy_at_mispredict 62.15938

Core_0_L1D_total_access 16296834
Core_0_L1D_total_hit 15727284
Core_0_L1D_total_miss 569550
Core_0_L1D_loads 10563223
Core_0_L1D_load_hit 10050288
Core_0_L1D_load_miss 512935
Core_0_L1D_RFOs 5733611
Core_0_L1D_RFO_hit 5676996
Core_0_L1D_RFO_miss 56615
Core_0_L1D_prefetches 0
Core_0_L1D_prefetch_hit 0
Core_0_L1D_prefetch_miss 0
Core_0_L1D_writebacks 0
Core_0_L1D_writeback_hit 0
Core_0_L1D_writeback_miss 0
Core_0_L1D_prefetch_requested 0
Core_0_L1D_prefetch_dropped 0
Core_0_L1D_prefetch_issued 0
Core_0_L1D_prefetch_filled 0
Core_0_L1D_prefetch_useful 0
Core_0_L1D_prefetch_useless 0
Core_0_L1D_prefetch_late 0
Core_0_L1D_average_miss_latency 34.36141

Core_0_L1D_rq_access 12714699
Core_0_L1D_rq_forward 0
Core_0_L1D_rq_merged 2112602
Core_0_L1D_rq_to_cache 10601804
Core_0_L1D_rq_full 0

Core_0_L1D_wq_access 5859733
Core_0_L1D_wq_forward 293
Core_0_L1D_wq_merged 27595
Core_0_L1D_wq_to_cache 5832138
Core_0_L1D_wq_full 56996

Core_0_L1D_pq_access 0
Core_0_L1D_pq_forward 0
Core_0_L1D_pq_merged 0
Core_0_L1D_pq_to_cache 0
Core_0_L1D_pq_full 0

Core_0_L1D_acc_epochs 141129
Core_0_L1D_acc_level_0 141129
Core_0_L1D_acc_level_1 0
Core_0_L1D_acc_level_2 0
Core_0_L1D_acc_level_3 0
Core_0_L1D_acc_level_4 0
Core_0_L1D_acc_level_5 0
Core_0_L1D_acc_level_6 0
Core_0_L1D_acc_level_7 0
Core_0_L1D_acc_level_8 0
Core_0_L1D_acc_level_9 0

Core_0_L1I_total_access 11604043
Core_0_L1I_total_hit 11381936
Core_0_L1I_total_miss 222107
Core_0_L1I_loads 11604043
Core_0_L1I_load_hit 11381936
Core_0_L1I_load_miss 222107
Core_0_L1I_RFOs 0
Core_0_L1I_RFO_hit 0
Core_0_L1I_RFO_miss 0
Core_0_L1I_prefetches 0
Core_0_L1I_prefetch_hit 0
Core_0_L1I_prefetch_miss 0
Core_0_L1I_writebacks 0
Core_0_L1I_writeback_hit 0
Core_0_L1I_writeback_miss 0
Core_0_L1I_prefetch_requested 0
Core_0_L1I_prefetch_dropped 0
Core_0_L1I_prefetch_issued 0
Core_0_L1I_prefetch_filled 0
Core_0_L1I_prefetch_useful 0
Core_0_L1I_prefetch_useless 0
Core_0_L1I_prefetch_late 0
Core_0_L1I_average_miss_latency 16.24650

Core_0_L1I_rq_access 49999756
Core_0_L1I_rq_forward 0
Core_0_L1I_rq_merged 38329324
Core_0_L1I_rq_to_cache 11670432
Core_0_L1I_rq_full 0

Core_0_L1I_wq_access 0
Core_0_L1I_wq_forward 0
Core_0_L1I_wq_merged 0
Core_0_L1I_wq_to_cache 0
Core_0_L1I_wq_full 0

Core_0_L1I_pq_access 0
Core_0_L1I_pq_forward 0
Core_0_L1I_pq_merged 0
Core_0_L1I_pq_to_cache 0
Core_0_L1I_pq_full 0

Core_0_L1I_acc_epochs 141129
Core_0_L1I_acc_level_0 141129
Core_0_L1I_acc_level_1 0
Core_0_L1I_acc_level_2 0
Core_0_L1I_acc_level_3 0
Core_0_L1I_acc_level_4 0
Core_0_L1I_acc_level_5 0
Core_0_L1I_acc_level_6 0
Core_0_L1I_acc_level_7 0
Core_0_L1I_acc_level_8 0
Core_0_L1I_acc_level_9 0

Core_0_L2C_total_access 915254
Core_0_L2C_total_hit 612774
Core_0_L2C_total_miss 302480
Core_0_L2C_loads 735039
Core_0_L2C_load_hit 470310
Core_0_L2C_load_miss 264729
Core_0_L2C_RFOs 56611
Core_0_L2C_RFO_hit 19496
Core_0_L2C_RFO_miss 37115
Core_0_L2C_prefetches 0
Core_0_L2C_prefetch_hit 0
Core_0_L2C_prefetch_miss 0
Core_0_L2C_writebacks 123604
Core_0_L2C_writeback_hit 122968
Core_0_L2C_writeback_miss 636
Core_0_L2C_prefetch_requested 0
Core_0_L2C_prefetch_dropped 0
Core_0_L2C_prefetch_issued 0
Core_0_L2C_prefetch_filled 0
Core_0_L2C_prefetch_useful 0
Core_0_L2C_prefetch_useless 0
Core_0_L2C_prefetch_late 0
Core_0_L2C_average_miss_latency 41.74513

Core_0_L2C_rq_access 791657
Core_0_L2C_rq_forward 0
Core_0_L2C_rq_merged 0
Core_0_L2C_rq_to_cache 791650
Core_0_L2C_rq_full 0

Core_0_L2C_wq_access 123604
Core_0_L2C_wq_forward 7
Core_0_L2C_wq_merged 0
Core_0_L2C_wq_to_cache 123604
Core_0_L2C_wq_full 0

Core_0_L2C_pq_access 0
Core_0_L2C_pq_forward 0
Core_0_L2C_pq_merged 0
Core_0_L2C_pq_to_cache 0
Core_0_L2C_pq_full 0

Core_0_L2C_acc_epochs 141129
Core_0_L2C_acc_level_0 141129
Core_0_L2C_acc_level_1 0
Core_0_L2C_acc_level_2 0
Core_0_L2C_acc_level_3 0
Core_0_L2C_acc_level_4 0
Core_0_L2C_acc_level_5 0
Core_0_L2C_acc_level_6 0
Core_0_L2C_acc_level_7 0
Core_0_L2C_acc_level_8 0
Core_0_L2C_acc_level_9 0

Core_0_LLC_total_access 372301
Core_0_LLC_total_hit 351343
Core_0_LLC_total_miss 20958
Core_0_LLC_loads 264724
Core_0_LLC_load_hit 255829
Core_0_LLC_load_miss 8895
Core_0_LLC_RFOs 37115
Core_0_LLC_RFO_hit 25394
Core_0_LLC_RFO_miss 11721
Core_0_LLC_prefetches 0
Core_0_LLC_prefetch_hit 0
Core_0_LLC_prefetch_miss 0
Core_0_LLC_writebacks 70462
Core_0_LLC_writeback_hit 70120
Core_0_LLC_writeback_miss 342
Core_0_LLC_prefetch_requested 0
Core_0_LLC_prefetch_dropped 0
Core_0_LLC_prefetch_issued 0
Core_0_LLC_prefetch_filled 0
Core_0_LLC_prefetch_useful 0
Core_0_LLC_prefetch_useless 0
Core_0_LLC_prefetch_late 0
Core_0_LLC_average_miss_latency 167.93835

Core_0_LLC_rq_access 301844
Core_0_LLC_rq_forward 0
Core_0_LLC_rq_merged 0
Core_0_LLC_rq_to_cache 301839
Core_0_LLC_rq_full 0

Core_0_LLC_wq_access 70462
Core_0_LLC_wq_forward 5
Core_0_LLC_wq_merged 0
Core_0_LLC_wq_to_cache 70462
Core_0_LLC_wq_full 0

Core_0_LLC_pq_access 0
Core_0_LLC_pq_forward 0
Core_0_LLC_pq_merged 0
Core_0_LLC_pq_to_cache 0
Core_0_LLC_pq_full 0

Core_0_LLC_acc_epochs 141573
Core_0_LLC_acc_level_0 141573
Core_0_LLC_acc_level_1 0
Core_0_LLC_acc_level_2 0
Core_0_LLC_acc_level_3 0
Core_0_LLC_acc_level_4 0
Core_0_LLC_acc_level_5 0
Core_0_LLC_acc_level_6 0
Core_0_LLC_acc_level_7 0
Core_0_LLC_acc_level_8 0
Core_0_LLC_acc_level_9 0

Core_0_major_page_fault 0
Core_0_minor_page_fault 2602

Channel_0_RQ_row_buffer_hit 9990
Channel_0_RQ_row_buffer_miss 10623
Channel_0_WQ_row_buffer_hit 930
Channel_0_WQ_row_buffer_miss 4609
Channel_0_WQ_full 0
Channel_0_dbus_congested 8720

avg_congested_cycle 11

DRAM_bw_pochs 566291
DRAM_bw_level_0 565570
DRAM_bw_level_1 291
DRAM_bw_level_2 99
DRAM_bw_level_3 331
