*************************************************
   ChampSim Multicore Out-of-Order Simulator
   Last compiled: Apr  3 2025 20:54:34
*************************************************
parsing config file: /home/zir/Pythia/config/pythia.ini

trace_0 /home/zir/ChampSim/ML-DPC/ChampSimTraces/spec06/462.libquantum-s2.trace.gz
adding L2C_PREFETCHER: Scooby
Initialize SHIP state
warmup_instructions 10000000
simulation_instructions 50000000
champsim_seed 165
measure_ipc 0
measure_ipc_epoch 1000
measure_dram_bw 1
measure_dram_bw_epoch 256
measure_cache_acc 1
measure_cache_acc_epoch 1024
l1d_perfect 0
l2c_perfect 0
llc_perfect 0
l1d_semi_perfect 0
l2c_semi_perfect 0
llc_semi_perfect 0
semi_perfect_cache_page_buffer_size 64

num_cpus 1
cpu_freq 4000
dram_io_freq 2400
page_size 4096
block_size 64
max_read_per_cycle 8
max_fill_per_cycle 1
dram_channels 1
log2_dram_channels 0
dram_ranks 1
dram_banks 8
dram_rows 65536
dram_columns 128
dram_row_size 8
dram_size 4096
dram_pages 1048576

fetch_width 6
decode_width 6
exec_width 4
lq_width 2
sq_width 2
retire_width 4
scheduler_size 128
branch_mispredict_penalty 20
rob_size 256
lq_size 72
sq_size 56
num_instr_destinations_sparc 4
num_instr_destinations 2
num_instr_sources 4

itlb_set 16
itlb_way 8
itlb_rq_size 16
itlb_wq_size 16
itlb_pq_size 0
itlb_mshr_size 8
itlb_latency 1

dtlb_set 16
dtlb_way 4
dtlb_rq_size 16
dtlb_wq_size 16
dtlb_pq_size 0
dtlb_mshr_size 8
dtlb_latency 1

stlb_set 128
stlb_way 12
stlb_rq_size 32
stlb_wq_size 32
stlb_pq_size 0
stlb_mshr_size 16
stlb_latency 8

l1i_size 32
l1i_set 64
l1i_way 8
l1i_rq_size 64
l1i_wq_size 64
l1i_pq_size 8
l1i_mshr_size 8
l1i_latency 1

l1d_size 32
l1d_set 64
l1d_way 8
l1d_rq_size 64
l1d_wq_size 64
l1d_pq_size 8
l1d_mshr_size 16
l1d_latency 4

l2c_size 256
l2c_set 512
l2c_way 8
l2c_rq_size 32
l2c_wq_size 32
l2c_pq_size 32
l2c_mshr_size 32
l2c_latency 10

llc_size 2048
llc_set 2048
llc_way 16
llc_rq_size 32
llc_wq_size 32
llc_pq_size 32
llc_mshr_size 64
llc_latency 20

dram_channel_width 8
dram_wq_size 64
dram_rq_size 64
tRP 15
tRCD 15
tCAS 12.5
dram_dbus_turn_around_time 30
dram_write_high_wm 56
dram_write_low_wm 48
min_dram_writes_per_switch 16
dram_mtps 2400
dram_dbus_return_time 13

scooby_alpha 0.0065088
scooby_gamma 0.556301
scooby_epsilon 0.00182284
scooby_state_num_bits 10
scooby_max_states 1024
scooby_seed 200
scooby_policy EGreedy
scooby_learning_type SARSA
scooby_actions 1,3,4,5,10,11,12,22,23,30,32,-1,-3,-6,0,
scooby_max_actions 15
scooby_pt_size 256
scooby_st_size 64
scooby_max_pcs 5
scooby_max_offsets 5
scooby_max_deltas 5
scooby_reward_none -4
scooby_reward_incorrect -8
scooby_reward_correct_untimely 12
scooby_reward_correct_timely 20
scooby_brain_zero_init 0
scooby_enable_reward_all 0
scooby_enable_track_multiple 0
scooby_enable_reward_out_of_bounds 1
scooby_reward_out_of_bounds -12
scooby_state_type 1
scooby_state_hash_type 11
scooby_access_debug 0
scooby_print_access_debug 0
scooby_print_access_debug_pc deadbeef
scooby_print_access_debug_pc_count 0
scooby_print_trace 0
scooby_enable_state_action_stats 1
scooby_enable_reward_tracker_hit 0
scooby_reward_tracker_hit -2
scooby_enable_featurewise_engine 1
scooby_pref_degree 1
scooby_enable_dyn_degree 1
scooby_max_to_avg_q_thresholds 0.5,1,2,
scooby_dyn_degrees 1,2,4,4,
scooby_multi_deg_select_type 2
scooby_last_pref_offset_conf_thresholds 1,3,8,
scooby_dyn_degrees_type2 1,2,4,6,
scooby_action_tracker_size 2
scooby_high_bw_thresh 4
scooby_enable_hbw_reward 1
scooby_reward_hbw_correct_timely 20
scooby_reward_hbw_correct_untimely 12
scooby_reward_hbw_incorrect -14
scooby_reward_hbw_none -2
scooby_reward_hbw_out_of_bounds -12
scooby_reward_hbw_tracker_hit -2
scooby_last_pref_offset_conf_thresholds_hbw 1,3,8,
scooby_dyn_degrees_type2_hbw 1,2,4,6,

le_enable_trace 0
le_trace_interval 0
le_trace_file_name 
le_trace_state 0
le_enable_score_plot 0
le_plot_file_name 
le_plot_actions 
le_enable_action_trace 0
le_action_trace_interval 0
le_action_trace_name 
le_enable_action_plot 0

le_featurewise_active_features PC, PC_Delta
le_featurewise_num_tilings 3,3,
le_featurewise_num_tiles 128,128,
le_featurewise_hash_types 2,2,
le_featurewise_enable_tiling_offset 1,1,
le_featurewise_max_q_thresh 0.5
le_featurewise_enable_action_fallback 1
le_featurewise_feature_weights 1,1,
le_featurewise_enable_dynamic_weight 0
le_featurewise_weight_gradient 0.001
le_featurewise_disable_adjust_weight_all_features_align 1
le_featurewise_selective_update 0
le_featurewise_pooling_type 2
le_featurewise_enable_dyn_action_fallback 1
le_featurewise_bw_acc_check_level 1
le_featurewise_acc_thresh 2
le_featurewise_enable_trace 0
le_featurewise_trace_feature_type 0
le_featurewise_trace_feature 
le_featurewise_trace_interval 0
le_featurewise_trace_record_count 0
le_featurewise_trace_file_name 
le_featurewise_enable_score_plot 0
le_featurewise_plot_actions 
le_featurewise_plot_file_name 


Heartbeat CPU  0 instructions:    1000003 cycles:     271741 heartbeat IPC: 3.67999 cumulative IPC: 3.67999 (Simulation time: 0 hr 0 min 1 sec) 
Heartbeat CPU  0 instructions:    2000003 cycles:     543441 heartbeat IPC: 3.68053 cumulative IPC: 3.68026 (Simulation time: 0 hr 0 min 3 sec) 
Heartbeat CPU  0 instructions:    3000003 cycles:     815141 heartbeat IPC: 3.68053 cumulative IPC: 3.68035 (Simulation time: 0 hr 0 min 4 sec) 
Heartbeat CPU  0 instructions:    4000000 cycles:    1086846 heartbeat IPC: 3.68045 cumulative IPC: 3.68037 (Simulation time: 0 hr 0 min 6 sec) 
Heartbeat CPU  0 instructions:    5000003 cycles:    1358564 heartbeat IPC: 3.68030 cumulative IPC: 3.68036 (Simulation time: 0 hr 0 min 7 sec) 
Heartbeat CPU  0 instructions:    6000003 cycles:    1630264 heartbeat IPC: 3.68053 cumulative IPC: 3.68039 (Simulation time: 0 hr 0 min 9 sec) 
Heartbeat CPU  0 instructions:    7000003 cycles:    1970450 heartbeat IPC: 2.93957 cumulative IPC: 3.55249 (Simulation time: 0 hr 0 min 10 sec) 
Heartbeat CPU  0 instructions:    8000000 cycles:    2338963 heartbeat IPC: 2.71360 cumulative IPC: 3.42032 (Simulation time: 0 hr 0 min 11 sec) 
Heartbeat CPU  0 instructions:    9000000 cycles:    2708597 heartbeat IPC: 2.70538 cumulative IPC: 3.32275 (Simulation time: 0 hr 0 min 13 sec) 
Heartbeat CPU  0 instructions:   10000000 cycles:    3077030 heartbeat IPC: 2.71420 cumulative IPC: 3.24989 (Simulation time: 0 hr 0 min 14 sec) 

Warmup complete CPU  0 instructions:   10000001 cycles:    3077031 (Simulation time: 0 hr 0 min 14 sec) 

Heartbeat CPU  0 instructions:   11000000 cycles:    4215592 heartbeat IPC: 0.87830 cumulative IPC: 0.87830 (Simulation time: 0 hr 0 min 16 sec) 
Heartbeat CPU  0 instructions:   12000000 cycles:    5379103 heartbeat IPC: 0.85947 cumulative IPC: 0.86878 (Simulation time: 0 hr 0 min 17 sec) 
Heartbeat CPU  0 instructions:   13000001 cycles:    6649226 heartbeat IPC: 0.78733 cumulative IPC: 0.83982 (Simulation time: 0 hr 0 min 19 sec) 
Heartbeat CPU  0 instructions:   14000000 cycles:    7831759 heartbeat IPC: 0.84564 cumulative IPC: 0.84127 (Simulation time: 0 hr 0 min 20 sec) 
Heartbeat CPU  0 instructions:   15000003 cycles:    9075995 heartbeat IPC: 0.80371 cumulative IPC: 0.83348 (Simulation time: 0 hr 0 min 22 sec) 
Heartbeat CPU  0 instructions:   16000000 cycles:   10350008 heartbeat IPC: 0.78492 cumulative IPC: 0.82497 (Simulation time: 0 hr 0 min 24 sec) 
Heartbeat CPU  0 instructions:   17000000 cycles:   11688597 heartbeat IPC: 0.74706 cumulative IPC: 0.81286 (Simulation time: 0 hr 0 min 26 sec) 
Heartbeat CPU  0 instructions:   18000003 cycles:   12941640 heartbeat IPC: 0.79806 cumulative IPC: 0.81098 (Simulation time: 0 hr 0 min 27 sec) 
Heartbeat CPU  0 instructions:   19000002 cycles:   14265705 heartbeat IPC: 0.75525 cumulative IPC: 0.80438 (Simulation time: 0 hr 0 min 29 sec) 
Heartbeat CPU  0 instructions:   20000000 cycles:   15501491 heartbeat IPC: 0.80920 cumulative IPC: 0.80486 (Simulation time: 0 hr 0 min 31 sec) 
Heartbeat CPU  0 instructions:   21000003 cycles:   16809901 heartbeat IPC: 0.76429 cumulative IPC: 0.80100 (Simulation time: 0 hr 0 min 32 sec) 
Heartbeat CPU  0 instructions:   22000002 cycles:   18141558 heartbeat IPC: 0.75094 cumulative IPC: 0.79657 (Simulation time: 0 hr 0 min 34 sec) 
Heartbeat CPU  0 instructions:   23000000 cycles:   19463347 heartbeat IPC: 0.75655 cumulative IPC: 0.79334 (Simulation time: 0 hr 0 min 36 sec) 
Heartbeat CPU  0 instructions:   24000000 cycles:   20799053 heartbeat IPC: 0.74867 cumulative IPC: 0.78998 (Simulation time: 0 hr 0 min 38 sec) 
Heartbeat CPU  0 instructions:   25000000 cycles:   22114443 heartbeat IPC: 0.76023 cumulative IPC: 0.78792 (Simulation time: 0 hr 0 min 39 sec) 
Heartbeat CPU  0 instructions:   26000002 cycles:   24277561 heartbeat IPC: 0.46230 cumulative IPC: 0.75470 (Simulation time: 0 hr 0 min 42 sec) 
Heartbeat CPU  0 instructions:   27000002 cycles:   27114487 heartbeat IPC: 0.35249 cumulative IPC: 0.70723 (Simulation time: 0 hr 0 min 45 sec) 
Heartbeat CPU  0 instructions:   28000000 cycles:   30090612 heartbeat IPC: 0.33601 cumulative IPC: 0.66633 (Simulation time: 0 hr 0 min 48 sec) 
Heartbeat CPU  0 instructions:   29000002 cycles:   33085785 heartbeat IPC: 0.33387 cumulative IPC: 0.63315 (Simulation time: 0 hr 0 min 51 sec) 
Heartbeat CPU  0 instructions:   30000002 cycles:   36028890 heartbeat IPC: 0.33978 cumulative IPC: 0.60695 (Simulation time: 0 hr 0 min 54 sec) 
Heartbeat CPU  0 instructions:   31000002 cycles:   39006643 heartbeat IPC: 0.33582 cumulative IPC: 0.58448 (Simulation time: 0 hr 0 min 57 sec) 
Heartbeat CPU  0 instructions:   32000000 cycles:   42009612 heartbeat IPC: 0.33300 cumulative IPC: 0.56508 (Simulation time: 0 hr 1 min 0 sec) 
Heartbeat CPU  0 instructions:   33000002 cycles:   44983916 heartbeat IPC: 0.33621 cumulative IPC: 0.54884 (Simulation time: 0 hr 1 min 3 sec) 
Heartbeat CPU  0 instructions:   34000002 cycles:   47939403 heartbeat IPC: 0.33835 cumulative IPC: 0.53497 (Simulation time: 0 hr 1 min 6 sec) 
Heartbeat CPU  0 instructions:   35000002 cycles:   50914445 heartbeat IPC: 0.33613 cumulative IPC: 0.52260 (Simulation time: 0 hr 1 min 9 sec) 
Heartbeat CPU  0 instructions:   36000000 cycles:   53687726 heartbeat IPC: 0.36058 cumulative IPC: 0.51373 (Simulation time: 0 hr 1 min 12 sec) 
Heartbeat CPU  0 instructions:   37000001 cycles:   54523033 heartbeat IPC: 1.19717 cumulative IPC: 0.52482 (Simulation time: 0 hr 1 min 14 sec) 
Heartbeat CPU  0 instructions:   38000000 cycles:   55317967 heartbeat IPC: 1.25796 cumulative IPC: 0.53598 (Simulation time: 0 hr 1 min 16 sec) 
Heartbeat CPU  0 instructions:   39000003 cycles:   56112704 heartbeat IPC: 1.25828 cumulative IPC: 0.54680 (Simulation time: 0 hr 1 min 17 sec) 
Heartbeat CPU  0 instructions:   40000000 cycles:   56907790 heartbeat IPC: 1.25772 cumulative IPC: 0.55730 (Simulation time: 0 hr 1 min 19 sec) 
Heartbeat CPU  0 instructions:   41000001 cycles:   57703680 heartbeat IPC: 1.25646 cumulative IPC: 0.56749 (Simulation time: 0 hr 1 min 21 sec) 
Heartbeat CPU  0 instructions:   42000000 cycles:   58498059 heartbeat IPC: 1.25884 cumulative IPC: 0.57740 (Simulation time: 0 hr 1 min 23 sec) 
Heartbeat CPU  0 instructions:   43000001 cycles:   59295620 heartbeat IPC: 1.25382 cumulative IPC: 0.58699 (Simulation time: 0 hr 1 min 24 sec) 
Heartbeat CPU  0 instructions:   44000000 cycles:   60091509 heartbeat IPC: 1.25646 cumulative IPC: 0.59634 (Simulation time: 0 hr 1 min 26 sec) 
Heartbeat CPU  0 instructions:   45000002 cycles:   60885992 heartbeat IPC: 1.25868 cumulative IPC: 0.60544 (Simulation time: 0 hr 1 min 28 sec) 
Heartbeat CPU  0 instructions:   46000001 cycles:   61682162 heartbeat IPC: 1.25601 cumulative IPC: 0.61428 (Simulation time: 0 hr 1 min 30 sec) 
Heartbeat CPU  0 instructions:   47000000 cycles:   62477199 heartbeat IPC: 1.25780 cumulative IPC: 0.62289 (Simulation time: 0 hr 1 min 31 sec) 
Heartbeat CPU  0 instructions:   48000000 cycles:   63272435 heartbeat IPC: 1.25749 cumulative IPC: 0.63128 (Simulation time: 0 hr 1 min 33 sec) 
Heartbeat CPU  0 instructions:   49000002 cycles:   64069471 heartbeat IPC: 1.25465 cumulative IPC: 0.63942 (Simulation time: 0 hr 1 min 35 sec) 
Heartbeat CPU  0 instructions:   50000001 cycles:   64865006 heartbeat IPC: 1.25701 cumulative IPC: 0.64738 (Simulation time: 0 hr 1 min 37 sec) 
Heartbeat CPU  0 instructions:   51000000 cycles:   65659784 heartbeat IPC: 1.25821 cumulative IPC: 0.65513 (Simulation time: 0 hr 1 min 38 sec) 
Heartbeat CPU  0 instructions:   52000000 cycles:   66454130 heartbeat IPC: 1.25890 cumulative IPC: 0.66270 (Simulation time: 0 hr 1 min 40 sec) 
Heartbeat CPU  0 instructions:   53000000 cycles:   67249560 heartbeat IPC: 1.25718 cumulative IPC: 0.67007 (Simulation time: 0 hr 1 min 42 sec) 
Heartbeat CPU  0 instructions:   54000002 cycles:   68013617 heartbeat IPC: 1.30881 cumulative IPC: 0.67758 (Simulation time: 0 hr 1 min 44 sec) 
Heartbeat CPU  0 instructions:   55000002 cycles:   68848574 heartbeat IPC: 1.19767 cumulative IPC: 0.68419 (Simulation time: 0 hr 1 min 45 sec) 
Heartbeat CPU  0 instructions:   56000000 cycles:   70166879 heartbeat IPC: 0.75855 cumulative IPC: 0.68565 (Simulation time: 0 hr 1 min 47 sec) 
Heartbeat CPU  0 instructions:   57000001 cycles:   71504279 heartbeat IPC: 0.74772 cumulative IPC: 0.68686 (Simulation time: 0 hr 1 min 49 sec) 
Heartbeat CPU  0 instructions:   58000000 cycles:   72842591 heartbeat IPC: 0.74721 cumulative IPC: 0.68802 (Simulation time: 0 hr 1 min 51 sec) 
Heartbeat CPU  0 instructions:   59000003 cycles:   74195499 heartbeat IPC: 0.73915 cumulative IPC: 0.68899 (Simulation time: 0 hr 1 min 52 sec) 
Heartbeat CPU  0 instructions:   60000000 cycles:   75525450 heartbeat IPC: 0.75191 cumulative IPC: 0.69015 (Simulation time: 0 hr 1 min 54 sec) 
Finished CPU 0 instructions: 50000000 cycles: 72448432 cumulative IPC: 0.69015 (Simulation time: 0 hr 1 min 54 sec) 

ChampSim completed all CPUs

[ROI Statistics]
Core_0_instructions 50000000
Core_0_cycles 72448432
Core_0_IPC 0.69015

Core_0_branch_prediction_accuracy 99.25146
Core_0_branch_MPKI 1.62314
Core_0_average_ROB_occupancy_at_mispredict 120.71596

Core_0_L1D_total_access 4295765
Core_0_L1D_total_hit 2678341
Core_0_L1D_total_miss 1617424
Core_0_L1D_loads 2117421
Core_0_L1D_load_hit 500009
Core_0_L1D_load_miss 1617412
Core_0_L1D_RFOs 2178344
Core_0_L1D_RFO_hit 2178332
Core_0_L1D_RFO_miss 12
Core_0_L1D_prefetches 0
Core_0_L1D_prefetch_hit 0
Core_0_L1D_prefetch_miss 0
Core_0_L1D_writebacks 0
Core_0_L1D_writeback_hit 0
Core_0_L1D_writeback_miss 0
Core_0_L1D_prefetch_requested 0
Core_0_L1D_prefetch_dropped 0
Core_0_L1D_prefetch_issued 0
Core_0_L1D_prefetch_filled 0
Core_0_L1D_prefetch_useful 0
Core_0_L1D_prefetch_useless 0
Core_0_L1D_prefetch_late 0
Core_0_L1D_average_miss_latency 110.32521

Core_0_L1D_rq_access 6469616
Core_0_L1D_rq_forward 0
Core_0_L1D_rq_merged 2725834
Core_0_L1D_rq_to_cache 3743782
Core_0_L1D_rq_full 0

Core_0_L1D_wq_access 2178371
Core_0_L1D_wq_forward 0
Core_0_L1D_wq_merged 0
Core_0_L1D_wq_to_cache 2178371
Core_0_L1D_wq_full 0

Core_0_L1D_pq_access 0
Core_0_L1D_pq_forward 0
Core_0_L1D_pq_merged 0
Core_0_L1D_pq_to_cache 0
Core_0_L1D_pq_full 0

Core_0_L1D_acc_epochs 71311
Core_0_L1D_acc_level_0 71311
Core_0_L1D_acc_level_1 0
Core_0_L1D_acc_level_2 0
Core_0_L1D_acc_level_3 0
Core_0_L1D_acc_level_4 0
Core_0_L1D_acc_level_5 0
Core_0_L1D_acc_level_6 0
Core_0_L1D_acc_level_7 0
Core_0_L1D_acc_level_8 0
Core_0_L1D_acc_level_9 0

Core_0_L1I_total_access 10399248
Core_0_L1I_total_hit 10399245
Core_0_L1I_total_miss 3
Core_0_L1I_loads 10399248
Core_0_L1I_load_hit 10399245
Core_0_L1I_load_miss 3
Core_0_L1I_RFOs 0
Core_0_L1I_RFO_hit 0
Core_0_L1I_RFO_miss 0
Core_0_L1I_prefetches 0
Core_0_L1I_prefetch_hit 0
Core_0_L1I_prefetch_miss 0
Core_0_L1I_writebacks 0
Core_0_L1I_writeback_hit 0
Core_0_L1I_writeback_miss 0
Core_0_L1I_prefetch_requested 0
Core_0_L1I_prefetch_dropped 0
Core_0_L1I_prefetch_issued 0
Core_0_L1I_prefetch_filled 0
Core_0_L1I_prefetch_useful 0
Core_0_L1I_prefetch_useless 0
Core_0_L1I_prefetch_late 0
Core_0_L1I_average_miss_latency 161.00000

Core_0_L1I_rq_access 50000233
Core_0_L1I_rq_forward 0
Core_0_L1I_rq_merged 39600979
Core_0_L1I_rq_to_cache 10399254
Core_0_L1I_rq_full 0

Core_0_L1I_wq_access 0
Core_0_L1I_wq_forward 0
Core_0_L1I_wq_merged 0
Core_0_L1I_wq_to_cache 0
Core_0_L1I_wq_full 0

Core_0_L1I_pq_access 0
Core_0_L1I_pq_forward 0
Core_0_L1I_pq_merged 0
Core_0_L1I_pq_to_cache 0
Core_0_L1I_pq_full 0

Core_0_L1I_acc_epochs 71311
Core_0_L1I_acc_level_0 71311
Core_0_L1I_acc_level_1 0
Core_0_L1I_acc_level_2 0
Core_0_L1I_acc_level_3 0
Core_0_L1I_acc_level_4 0
Core_0_L1I_acc_level_5 0
Core_0_L1I_acc_level_6 0
Core_0_L1I_acc_level_7 0
Core_0_L1I_acc_level_8 0
Core_0_L1I_acc_level_9 0

Core_0_L2C_total_access 4349742
Core_0_L2C_total_hit 2732299
Core_0_L2C_total_miss 1617443
Core_0_L2C_loads 1617415
Core_0_L2C_load_hit 953899
Core_0_L2C_load_miss 663516
Core_0_L2C_RFOs 12
Core_0_L2C_RFO_hit 0
Core_0_L2C_RFO_miss 12
Core_0_L2C_prefetches 2126957
Core_0_L2C_prefetch_hit 1173042
Core_0_L2C_prefetch_miss 953915
Core_0_L2C_writebacks 605358
Core_0_L2C_writeback_hit 605358
Core_0_L2C_writeback_miss 0
Core_0_L2C_prefetch_requested 9740879
Core_0_L2C_prefetch_dropped 0
Core_0_L2C_prefetch_issued 9740879
Core_0_L2C_prefetch_filled 1226548
Core_0_L2C_prefetch_useful 1226514
Core_0_L2C_prefetch_useless 32
Core_0_L2C_prefetch_late 570457
Core_0_L2C_average_miss_latency 220.72013

Core_0_L2C_rq_access 1617427
Core_0_L2C_rq_forward 0
Core_0_L2C_rq_merged 0
Core_0_L2C_rq_to_cache 1617427
Core_0_L2C_rq_full 0

Core_0_L2C_wq_access 605358
Core_0_L2C_wq_forward 0
Core_0_L2C_wq_merged 0
Core_0_L2C_wq_to_cache 605358
Core_0_L2C_wq_full 0

Core_0_L2C_pq_access 9740879
Core_0_L2C_pq_forward 0
Core_0_L2C_pq_merged 2561081
Core_0_L2C_pq_to_cache 7179798
Core_0_L2C_pq_full 0

Core_0_L2C_acc_epochs 71311
Core_0_L2C_acc_level_0 1
Core_0_L2C_acc_level_1 0
Core_0_L2C_acc_level_2 8
Core_0_L2C_acc_level_3 238
Core_0_L2C_acc_level_4 691
Core_0_L2C_acc_level_5 612
Core_0_L2C_acc_level_6 296
Core_0_L2C_acc_level_7 1488
Core_0_L2C_acc_level_8 2423
Core_0_L2C_acc_level_9 65554

Core_0_LLC_total_access 2222898
Core_0_LLC_total_hit 70535
Core_0_LLC_total_miss 2152363
Core_0_LLC_loads 93059
Core_0_LLC_load_hit 2419
Core_0_LLC_load_miss 90640
Core_0_LLC_RFOs 12
Core_0_LLC_RFO_hit 4
Core_0_LLC_RFO_miss 8
Core_0_LLC_prefetches 1524372
Core_0_LLC_prefetch_hit 36904
Core_0_LLC_prefetch_miss 1487468
Core_0_LLC_writebacks 605455
Core_0_LLC_writeback_hit 31208
Core_0_LLC_writeback_miss 574247
Core_0_LLC_prefetch_requested 0
Core_0_LLC_prefetch_dropped 0
Core_0_LLC_prefetch_issued 0
Core_0_LLC_prefetch_filled 1760101
Core_0_LLC_prefetch_useful 488
Core_0_LLC_prefetch_useless 1757898
Core_0_LLC_prefetch_late 0
Core_0_LLC_average_miss_latency 184.59716

Core_0_LLC_rq_access 93071
Core_0_LLC_rq_forward 0
Core_0_LLC_rq_merged 0
Core_0_LLC_rq_to_cache 93071
Core_0_LLC_rq_full 0

Core_0_LLC_wq_access 605455
Core_0_LLC_wq_forward 0
Core_0_LLC_wq_merged 0
Core_0_LLC_wq_to_cache 605455
Core_0_LLC_wq_full 0

Core_0_LLC_pq_access 1797007
Core_0_LLC_pq_forward 0
Core_0_LLC_pq_merged 0
Core_0_LLC_pq_to_cache 1797007
Core_0_LLC_pq_full 0

Core_0_LLC_acc_epochs 73756
Core_0_LLC_acc_level_0 73632
Core_0_LLC_acc_level_1 115
Core_0_LLC_acc_level_2 6
Core_0_LLC_acc_level_3 3
Core_0_LLC_acc_level_4 0
Core_0_LLC_acc_level_5 0
Core_0_LLC_acc_level_6 0
Core_0_LLC_acc_level_7 0
Core_0_LLC_acc_level_8 0
Core_0_LLC_acc_level_9 0

Core_0_major_page_fault 0
Core_0_minor_page_fault 8202

scooby_st_lookup 1894408
scooby_st_hit 1864784
scooby_st_evict 29560
scooby_st_insert 29624
scooby_st_streaming 0

scooby_predict_called 1894408
scooby_predict_out_of_bounds 30132
scooby_predict_action_1 1861599
scooby_predict_issue_action_1 1859819
scooby_predict_hit_action_1 1780
scooby_predict_out_of_bounds_action_1 29557
scooby_predict_action_3 245
scooby_predict_issue_action_3 245
scooby_predict_hit_action_3 0
scooby_predict_out_of_bounds_action_3 8
scooby_predict_action_4 227
scooby_predict_issue_action_4 227
scooby_predict_hit_action_4 0
scooby_predict_out_of_bounds_action_4 15
scooby_predict_action_5 208
scooby_predict_issue_action_5 208
scooby_predict_hit_action_5 0
scooby_predict_out_of_bounds_action_5 16
scooby_predict_action_10 214
scooby_predict_issue_action_10 214
scooby_predict_hit_action_10 0
scooby_predict_out_of_bounds_action_10 45
scooby_predict_action_11 188
scooby_predict_issue_action_11 188
scooby_predict_hit_action_11 0
scooby_predict_out_of_bounds_action_11 35
scooby_predict_action_12 185
scooby_predict_issue_action_12 185
scooby_predict_hit_action_12 0
scooby_predict_out_of_bounds_action_12 45
scooby_predict_action_22 156
scooby_predict_issue_action_22 156
scooby_predict_hit_action_22 0
scooby_predict_out_of_bounds_action_22 88
scooby_predict_action_23 156
scooby_predict_issue_action_23 156
scooby_predict_hit_action_23 0
scooby_predict_out_of_bounds_action_23 78
scooby_predict_action_30 110
scooby_predict_issue_action_30 110
scooby_predict_hit_action_30 0
scooby_predict_out_of_bounds_action_30 114
scooby_predict_action_32 103
scooby_predict_issue_action_32 103
scooby_predict_hit_action_32 0
scooby_predict_out_of_bounds_action_32 94
scooby_predict_action_-1 234
scooby_predict_issue_action_-1 4
scooby_predict_hit_action_-1 230
scooby_predict_out_of_bounds_action_-1 0
scooby_predict_action_-3 216
scooby_predict_issue_action_-3 2
scooby_predict_hit_action_-3 214
scooby_predict_out_of_bounds_action_-3 18
scooby_predict_action_-6 203
scooby_predict_issue_action_-6 3
scooby_predict_hit_action_-6 200
scooby_predict_out_of_bounds_action_-6 19
scooby_predict_action_0 232
scooby_predict_issue_action_0 0
scooby_predict_hit_action_0 0
scooby_predict_out_of_bounds_action_0 0
scooby_predict_multi_deg_called 1770975
scooby_predict_predicted 9740879
scooby_predict_multi_deg 7879259
scooby_predict_multi_deg_2 1741454
scooby_predict_multi_deg_3 1652731
scooby_predict_multi_deg_4 1623216
scooby_predict_multi_deg_5 1445683
scooby_predict_multi_deg_6 1416175
scooby_predict_multi_deg_7 0
scooby_predict_multi_deg_8 0
scooby_predict_multi_deg_9 0
scooby_predict_multi_deg_10 0
scooby_predict_multi_deg_11 0
scooby_predict_multi_deg_12 0
scooby_predict_multi_deg_13 0
scooby_predict_multi_deg_14 0
scooby_predict_multi_deg_15 0
scooby_predict_multi_deg_16 0

scooby_selected_deg_1 90645
scooby_selected_deg_2 59208
scooby_selected_deg_3 0
scooby_selected_deg_4 148015
scooby_selected_deg_5 0
scooby_selected_deg_6 1563752
scooby_selected_deg_7 0
scooby_selected_deg_8 0
scooby_selected_deg_9 0
scooby_selected_deg_10 0
scooby_selected_deg_11 0
scooby_selected_deg_12 0
scooby_selected_deg_13 0
scooby_selected_deg_14 0
scooby_selected_deg_15 0
scooby_selected_deg_16 0

scooby_state_401f04|0|0 21385,2,3,2,0,1,5,0,0,3,1,0,4,5,0,21411,
scooby_state_401f04|58|1 21374,2,0,3,3,1,3,1,3,1,4,2,3,4,4,21408,
scooby_state_401f04|53|1 21376,1,1,1,2,3,2,4,2,2,1,3,3,3,4,21408,
scooby_state_401f04|59|1 21375,3,0,2,3,3,3,4,2,0,1,5,5,0,2,21408,
scooby_state_401f04|54|1 21355,3,2,5,4,7,4,4,2,6,4,3,2,5,2,21408,
scooby_state_401f04|60|1 21370,2,2,1,4,2,3,7,0,2,1,2,5,4,3,21408,
scooby_state_401f04|52|1 21363,2,7,2,5,1,1,3,4,4,5,4,2,2,3,21408,
scooby_state_401f04|57|1 21374,3,2,4,3,2,4,3,2,3,4,1,1,2,0,21408,
scooby_state_401f04|56|1 21364,3,2,4,5,2,4,4,2,4,2,2,3,4,3,21408,
scooby_state_401f04|2|1 21364,2,2,3,4,1,3,4,4,1,3,3,3,2,9,21408,
scooby_state_401f04|1|1 21375,2,2,0,1,2,1,1,2,2,5,3,7,2,3,21408,
scooby_state_401f04|63|1 21373,1,3,3,3,1,3,1,3,3,2,2,5,3,2,21408,
scooby_state_401f04|5|1 21380,2,7,1,3,2,2,3,2,1,0,0,1,2,2,21408,
scooby_state_401f04|6|1 21384,2,0,2,5,0,1,1,3,5,2,1,0,1,1,21408,
scooby_state_401f04|9|1 21384,3,0,2,3,1,2,1,3,1,1,2,2,2,1,21408,
scooby_state_401f04|3|1 21373,3,2,3,2,3,0,6,3,1,2,2,2,1,5,21408,
scooby_state_401f04|4|1 21377,2,1,3,2,2,3,4,2,3,1,2,4,1,1,21408,
scooby_state_401f04|61|1 21377,1,5,2,1,0,1,1,1,1,1,8,3,1,5,21408,
scooby_state_401f04|8|1 21378,3,3,1,2,2,1,1,2,0,3,4,3,2,3,21408,
scooby_state_401f04|51|1 21376,2,3,5,2,2,2,1,4,3,2,1,3,2,0,21408,
scooby_state_401f04|62|1 21368,2,1,4,2,4,4,4,1,0,4,2,4,4,4,21408,
scooby_state_401f04|7|1 21374,1,6,1,5,2,2,3,2,3,0,2,1,3,3,21408,
scooby_state_401f04|55|1 21381,1,2,2,2,2,4,1,3,3,2,0,2,2,1,21408,
scooby_state_401f04|37|1 21368,2,3,3,4,3,4,4,3,0,3,1,3,1,5,21407,
scooby_state_401f04|26|1 21371,5,3,3,1,1,2,0,5,4,6,0,0,4,2,21407,
scooby_state_401f04|34|1 21372,2,2,4,7,5,2,0,2,2,0,2,2,2,3,21407,
scooby_state_401f04|48|1 21368,3,4,2,3,3,4,3,2,1,2,3,4,3,2,21407,
scooby_state_401f04|19|1 21374,1,4,3,4,4,4,3,2,2,0,2,1,2,1,21407,
scooby_state_401f04|46|1 21370,1,2,5,3,2,2,1,3,4,4,0,2,3,5,21407,
scooby_state_401f04|35|1 21369,2,3,0,4,1,4,2,1,1,0,9,3,3,5,21407,
scooby_state_401f04|11|1 21362,5,3,0,2,2,6,4,0,3,4,9,2,4,1,21407,
scooby_state_401f04|14|1 21371,4,4,3,2,0,3,3,2,2,1,4,2,3,3,21407,
scooby_state_401f04|10|1 21372,1,1,0,1,2,5,1,6,3,2,8,2,0,3,21407,
scooby_state_401f04|12|1 21366,6,2,4,3,2,2,4,0,3,3,2,2,4,4,21407,
scooby_state_401f04|38|1 21364,7,4,1,1,2,3,4,2,5,4,2,2,3,3,21407,
scooby_state_401f04|50|1 21371,1,1,1,2,2,2,1,4,4,1,5,4,4,4,21407,
scooby_state_401f04|13|1 21364,2,2,5,5,2,6,7,3,0,3,0,3,2,3,21407,
scooby_state_401f04|39|1 21365,4,3,1,3,8,5,5,4,1,1,2,0,1,4,21407,
scooby_state_401f04|41|1 21372,4,2,4,3,2,6,3,1,3,1,2,0,1,3,21407,
scooby_state_401f04|18|1 21370,1,5,8,2,4,0,0,4,3,3,3,1,3,0,21407,
scooby_state_401f04|47|1 21366,7,1,1,0,3,3,5,3,4,0,6,6,1,1,21407,
scooby_state_401f04|28|1 21372,3,1,1,2,4,1,2,4,1,1,2,4,7,2,21407,
scooby_state_401f04|45|1 21363,5,3,5,3,6,1,4,1,3,2,2,2,2,5,21407,
scooby_state_401f04|40|1 21370,2,7,1,4,3,1,1,1,3,2,2,3,4,3,21407,
scooby_state_401f04|31|1 21372,2,0,1,3,4,3,2,3,3,3,5,2,2,2,21407,
scooby_state_401f04|33|1 21379,2,4,2,5,0,3,4,1,1,1,0,3,2,0,21407,
scooby_state_401f04|32|1 21380,1,1,1,2,3,1,2,2,2,1,4,4,1,2,21407,
scooby_state_401f04|30|1 21369,4,2,5,2,2,4,2,3,2,1,2,5,2,2,21407,
scooby_state_401f04|44|1 21375,2,5,2,1,1,0,4,1,4,1,2,1,6,2,21407,
scooby_state_401f04|43|1 21372,4,1,3,4,4,1,1,1,4,3,3,3,0,3,21407,
scooby_state_401f04|36|1 21373,1,2,2,3,2,2,1,7,5,4,1,3,0,1,21407,
scooby_state_401f04|29|1 21370,6,1,2,6,4,2,2,2,2,0,5,4,0,1,21407,
scooby_state_401f04|20|1 21363,4,5,4,6,2,2,0,2,5,1,4,4,5,0,21407,
scooby_state_401f04|25|1 21370,1,1,3,3,3,7,1,4,1,0,5,2,4,2,21407,
scooby_state_401f04|23|1 21361,3,3,5,4,6,2,0,7,4,2,1,4,3,2,21407,
scooby_state_401f04|22|1 21365,5,5,3,2,2,6,5,2,2,0,4,4,1,1,21407,
scooby_state_401f04|21|1 21373,2,3,4,1,3,2,4,0,3,3,4,2,0,3,21407,
scooby_state_401f04|42|1 21369,0,2,0,2,4,1,3,4,1,2,4,6,7,2,21407,
scooby_state_401f04|27|1 21364,1,1,2,5,4,4,7,4,2,6,3,0,3,1,21407,
scooby_state_401f04|17|1 21376,1,2,1,1,5,2,2,1,1,3,2,1,3,6,21407,
scooby_state_401f04|15|1 21371,1,5,5,4,2,2,0,3,1,4,3,1,3,2,21407,
scooby_state_401f04|24|1 21368,3,4,1,3,3,1,6,3,2,6,1,2,1,3,21407,
scooby_state_401f04|49|1 21375,2,4,3,0,0,2,3,5,4,3,2,2,0,2,21407,
scooby_state_401f04|16|1 21369,2,5,2,4,2,0,3,1,7,1,6,2,2,1,21407,
scooby_state_402144|0|0 8181,4,0,0,1,1,2,1,1,0,0,0,0,0,2,8193,
scooby_state_402144|5|1 8177,1,2,1,1,0,2,1,1,0,1,0,1,4,1,8193,
scooby_state_402144|29|1 8176,1,2,1,1,0,2,0,0,0,2,1,4,1,1,8192,
scooby_state_402144|54|1 8183,0,0,0,3,0,2,1,0,1,0,0,0,1,1,8192,
scooby_state_402144|23|1 8177,0,1,1,1,2,0,1,1,0,3,1,2,1,1,8192,
scooby_state_402144|2|1 8179,1,0,1,0,3,1,0,3,0,1,0,1,0,2,8192,
scooby_state_402144|24|1 8172,5,0,2,0,1,2,3,1,0,0,2,2,1,1,8192,
scooby_state_402144|19|1 8179,1,1,1,0,1,1,5,0,0,1,0,1,0,1,8192,
scooby_state_402144|25|1 8182,0,0,1,0,2,0,3,0,1,0,0,0,1,2,8192,
scooby_state_402144|21|1 8180,2,3,0,0,0,1,1,0,2,0,0,1,2,0,8192,
scooby_state_402144|36|1 8178,1,2,2,0,0,1,1,0,0,1,3,1,0,2,8192,
scooby_state_402144|10|1 8176,2,1,2,0,1,0,0,2,0,2,2,2,2,0,8192,
scooby_state_402144|46|1 8174,3,0,1,1,0,2,1,2,1,1,3,0,2,1,8192,
scooby_state_402144|31|1 8185,1,0,1,0,0,0,1,0,1,0,0,2,1,0,8192,
scooby_state_402144|6|1 8173,0,1,1,2,1,2,2,2,2,1,0,1,1,3,8192,
scooby_state_402144|18|1 8175,2,2,0,2,2,1,2,2,0,1,0,1,1,1,8192,
scooby_state_402144|17|1 8181,0,0,1,1,2,1,0,2,0,0,0,1,2,1,8192,
scooby_state_402144|8|1 8180,2,0,0,1,0,0,0,1,4,1,1,2,0,0,8192,
scooby_state_402144|15|1 8179,1,0,1,3,2,0,1,1,0,0,1,0,2,1,8192,
scooby_state_402144|14|1 8181,2,0,0,1,1,0,0,1,2,2,2,0,0,0,8192,
scooby_state_402144|30|1 8178,1,1,1,4,2,0,2,0,0,1,1,0,1,0,8192,
scooby_state_402144|49|1 8178,1,0,1,1,1,0,1,3,1,0,0,1,1,3,8192,
scooby_state_402144|12|1 8176,1,0,0,1,1,1,2,0,1,3,2,1,1,2,8192,
scooby_state_402144|52|1 8181,0,2,1,2,0,0,1,0,1,3,0,0,1,0,8192,
scooby_state_402144|3|1 8181,0,0,1,0,2,1,1,1,2,0,0,0,1,2,8192,
scooby_state_402144|11|1 8173,3,0,3,0,2,0,2,0,2,1,3,2,1,0,8192,
scooby_state_402144|34|1 8175,0,2,1,0,0,2,0,2,1,0,1,2,3,3,8192,
scooby_state_402144|4|1 8182,2,0,0,2,1,1,0,0,0,1,0,0,1,2,8192,
scooby_state_402144|33|1 8174,4,0,4,0,1,1,1,1,1,1,1,0,2,1,8192,
scooby_state_402144|1|1 8172,2,1,1,0,1,1,1,3,1,0,1,3,0,5,8192,
scooby_state_402144|32|1 8177,0,4,1,0,1,0,2,2,1,1,0,0,1,2,8192,
scooby_state_402144|51|1 8174,2,0,1,3,3,0,0,1,3,1,1,1,1,1,8192,
scooby_state_402144|63|1 8184,1,0,0,0,0,1,0,2,1,0,3,0,0,0,8192,
scooby_state_402144|50|1 8179,2,1,0,3,0,2,1,1,1,0,0,1,0,1,8192,
scooby_state_402144|9|1 8168,2,0,0,1,2,2,1,3,3,1,2,3,2,2,8192,
scooby_state_402144|16|1 8177,0,2,0,0,1,2,2,1,2,2,1,0,2,0,8192,
scooby_state_402144|47|1 8181,0,1,0,3,0,1,1,1,1,2,1,0,0,0,8192,
scooby_state_402144|45|1 8179,1,1,1,1,0,0,0,3,1,3,0,0,2,0,8192,
scooby_state_402144|37|1 8179,1,4,1,0,1,1,0,1,0,0,1,1,1,1,8192,
scooby_state_402144|43|1 8178,4,0,0,1,2,1,2,0,0,0,2,0,1,1,8192,
scooby_state_402144|48|1 8176,1,1,3,0,2,1,0,0,1,2,2,1,0,2,8192,
scooby_state_402144|42|1 8174,2,3,1,2,0,1,2,0,1,2,2,0,1,1,8192,
scooby_state_402144|55|1 8176,1,2,0,0,2,3,2,1,1,0,1,1,1,1,8192,
scooby_state_402144|53|1 8180,0,1,0,2,1,0,2,1,1,1,0,2,0,1,8192,
scooby_state_402144|38|1 8177,4,1,0,1,0,1,3,1,0,0,0,3,1,0,8192,
scooby_state_402144|35|1 8174,1,1,1,1,2,3,1,4,0,1,0,0,1,2,8192,
scooby_state_402144|13|1 8177,1,1,2,1,0,2,2,3,0,2,0,0,1,0,8192,
scooby_state_402144|41|1 8176,3,3,2,2,0,0,1,0,1,2,0,1,0,1,8192,
scooby_state_402144|44|1 8178,2,2,0,2,1,2,1,1,1,0,0,1,1,0,8192,
scooby_state_402144|40|1 8184,0,0,0,1,0,0,1,0,1,0,1,1,3,0,8192,
scooby_state_402144|27|1 8175,2,0,3,1,2,0,2,0,0,2,0,1,2,2,8192,
scooby_state_402144|28|1 8183,0,1,0,1,0,0,0,1,0,0,1,1,1,3,8192,
scooby_state_402144|58|1 8178,1,0,0,2,0,0,1,1,3,1,0,1,2,2,8192,
scooby_state_402144|59|1 8179,2,1,2,1,1,0,1,0,2,0,0,3,0,0,8192,
scooby_state_402144|62|1 8176,3,0,2,3,0,0,2,3,0,1,0,0,2,0,8192,
scooby_state_402144|22|1 8177,1,1,2,0,1,1,1,0,1,0,4,2,1,0,8192,
scooby_state_402144|39|1 8177,1,1,1,5,2,1,0,1,1,0,0,1,0,1,8192,
scooby_state_402144|61|1 8177,0,3,0,2,0,1,2,1,2,0,2,1,1,0,8192,
scooby_state_402144|60|1 8178,0,1,0,2,1,0,3,1,3,1,1,1,0,0,8192,
scooby_state_402144|26|1 8178,0,0,0,1,2,1,1,3,2,2,0,1,0,1,8192,
scooby_state_402144|20|1 8173,2,4,3,0,0,3,0,3,1,1,1,0,0,1,8192,
scooby_state_402144|57|1 8174,2,0,2,2,1,1,0,2,1,2,1,1,0,3,8192,
scooby_state_402144|56|1 8177,0,1,1,0,2,1,1,0,2,0,1,2,1,3,8192,
scooby_state_402144|7|1 8181,1,4,0,1,0,0,0,1,2,1,0,1,0,0,8192,
scooby_state_407335|54|2 1,1,1,1,0,0,0,0,0,0,0,0,0,0,0,4,
scooby_state_406144|34|0 1,1,1,1,0,0,0,0,0,0,0,0,0,0,0,4,
scooby_state_406154|53|-1 1,1,1,1,0,0,0,0,0,0,0,0,0,0,0,4,
scooby_state_404875|52|0 3,0,0,0,0,0,0,0,0,0,0,0,0,0,0,3,
scooby_state_401ecf|38|1 3,0,0,0,0,0,0,0,0,0,0,0,0,0,0,3,
scooby_state_401f2e|31|0 1,1,1,0,0,0,0,0,0,0,0,0,0,0,0,3,
scooby_state_401ec0|37|6 3,0,0,0,0,0,0,0,0,0,0,0,0,0,0,3,
scooby_state_401f04|50|0 1,0,0,0,0,0,0,0,0,0,0,0,0,0,0,1,
scooby_state_401a4b|52|0 1,0,0,0,0,0,0,0,0,0,0,0,0,0,0,1,
scooby_state_407340|13|1 1,0,0,0,0,0,0,0,0,0,0,0,0,0,0,1,
scooby_state_406144|5|1 1,0,0,0,0,0,0,0,0,0,0,0,0,0,0,1,
scooby_state_407330|12|0 1,0,0,0,0,0,0,0,0,0,0,0,0,0,0,1,
scooby_state_404870|33|0 1,0,0,0,0,0,0,0,0,0,0,0,0,0,0,1,
scooby_state_40215c|31|0 1,0,0,0,0,0,0,0,0,0,0,0,0,0,0,1,
scooby_state_401e60|57|16 1,0,0,0,0,0,0,0,0,0,0,0,0,0,0,1,
scooby_state_404883|34|1 1,0,0,0,0,0,0,0,0,0,0,0,0,0,0,1,
scooby_state_401a30|40|0 1,0,0,0,0,0,0,0,0,0,0,0,0,0,0,1,
scooby_state_406100|4|0 1,0,0,0,0,0,0,0,0,0,0,0,0,0,0,1,
scooby_state_402119|38|1 1,0,0,0,0,0,0,0,0,0,0,0,0,0,0,1,
scooby_state_401ec0|59|1 1,0,0,0,0,0,0,0,0,0,0,0,0,0,0,1,
scooby_state_4020d0|3|0 1,0,0,0,0,0,0,0,0,0,0,0,0,0,0,1,
scooby_state_402100|4|1 1,0,0,0,0,0,0,0,0,0,0,0,0,0,0,1,
scooby_state_401a40|41|1 1,0,0,0,0,0,0,0,0,0,0,0,0,0,0,1,
scooby_state_405030|0|0 1,0,0,0,0,0,0,0,0,0,0,0,0,0,0,1,
scooby_state_401e82|58|1 1,0,0,0,0,0,0,0,0,0,0,0,0,0,0,1,
scooby_state_401f00|60|0 1,0,0,0,0,0,0,0,0,0,0,0,0,0,0,1,
scooby_state_402112|37|6 1,0,0,0,0,0,0,0,0,0,0,0,0,0,0,1,

scooby_action_0_deg_dist 0,232,0,0,0,0,0,0,0,0,0,0,0,0,0,0,
scooby_action_4_deg_dist 0,242,0,0,0,0,0,0,0,0,0,0,0,0,0,0,
scooby_action_32_deg_dist 0,197,0,0,0,0,0,0,0,0,0,0,0,0,0,0,
scooby_action_3_deg_dist 0,253,0,0,0,0,0,0,0,0,0,0,0,0,0,0,
scooby_action_5_deg_dist 0,224,0,0,0,0,0,0,0,0,0,0,0,0,0,0,
scooby_action_1_deg_dist 0,88856,59222,0,148075,0,1595003,0,0,0,0,0,0,0,0,0,
scooby_action_30_deg_dist 0,224,0,0,0,0,0,0,0,0,0,0,0,0,0,0,
scooby_action_-3_deg_dist 0,234,0,0,0,0,0,0,0,0,0,0,0,0,0,0,
scooby_action_10_deg_dist 0,259,0,0,0,0,0,0,0,0,0,0,0,0,0,0,
scooby_action_-1_deg_dist 0,234,0,0,0,0,0,0,0,0,0,0,0,0,0,0,
scooby_action_23_deg_dist 0,234,0,0,0,0,0,0,0,0,0,0,0,0,0,0,
scooby_action_-6_deg_dist 0,222,0,0,0,0,0,0,0,0,0,0,0,0,0,0,
scooby_action_11_deg_dist 0,223,0,0,0,0,0,0,0,0,0,0,0,0,0,0,
scooby_action_22_deg_dist 0,244,0,0,0,0,0,0,0,0,0,0,0,0,0,0,
scooby_action_12_deg_dist 0,230,0,0,0,0,0,0,0,0,0,0,0,0,0,0,

scooby_track_called 1894408
scooby_track_same_address 2424
scooby_track_evict 1891728

scooby_reward_demand_called 1894408
scooby_reward_demand_pt_not_found 32830
scooby_reward_demand_pt_found 1861578
scooby_reward_demand_pt_found_total 1861578
scooby_reward_demand_has_reward 0
scooby_reward_train_called 273
scooby_reward_assign_reward_called 1891983
scooby_reward_no_pref 232
scooby_reward_incorrect 41
scooby_reward_correct_untimely 1620309
scooby_reward_correct_timely 241269
scooby_reward_out_of_bounds 30132
scooby_reward_tracker_hit 0

scooby_reward_none_low_bw 232
scooby_reward_none_high_bw 0
scooby_reward_incorrect_low_bw 41
scooby_reward_incorrect_high_bw 0
scooby_reward_correct_untimely_low_bw 1620309
scooby_reward_correct_untimely_high_bw 0
scooby_reward_correct_timely_low_bw 241269
scooby_reward_correct_timely_high_bw 0
scooby_reward_out_of_bounds_low_bw 30132
scooby_reward_out_of_bounds_high_bw 0
scooby_reward_tracker_hit_low_bw 0
scooby_reward_tracker_hit_high_bw 0

scooby_reward_1 0,21,1619909,239888,29557,0,
scooby_reward_3 0,4,144,97,8,0,
scooby_reward_4 0,4,105,118,15,0,
scooby_reward_5 0,3,92,113,16,0,
scooby_reward_10 0,0,21,193,45,0,
scooby_reward_11 0,0,22,166,35,0,
scooby_reward_12 0,0,16,169,45,0,
scooby_reward_22 0,0,0,156,88,0,
scooby_reward_23 0,0,0,156,78,0,
scooby_reward_30 0,0,0,110,114,0,
scooby_reward_32 0,0,0,103,94,0,
scooby_reward_-1 0,4,0,0,0,0,
scooby_reward_-3 0,2,0,0,18,0,
scooby_reward_-6 0,3,0,0,19,0,
scooby_reward_0 232,0,0,0,0,0,

scooby_train_called 1891727
scooby_train_compute_reward 273

scooby_register_fill_called 1226548
scooby_register_fill_set 241300
scooby_register_fill_set_total 241300

scooby_register_prefetch_hit_called 2290944
scooby_register_prefetch_hit_set 1015718
scooby_register_prefetch_hit_set_total 1015718

scooby_pref_issue_scooby 9740879

learning_engine_featurewise.action.called 1894408
learning_engine_featurewise.action.explore 3460
learning_engine_featurewise.action.exploit 1890948
learning_engine_featurewise.action.fallback 0
learning_engine_featurewise.action.dyn_fallback_saved_bw 0
learning_engine_featurewise.action.dyn_fallback_saved_bw_acc 36
learning_engine_featurewise.action.index_1_explored 221
learning_engine_featurewise.action.index_1_exploited 1890935
learning_engine_featurewise.action.index_3_explored 247
learning_engine_featurewise.action.index_3_exploited 6
learning_engine_featurewise.action.index_4_explored 238
learning_engine_featurewise.action.index_4_exploited 4
learning_engine_featurewise.action.index_5_explored 221
learning_engine_featurewise.action.index_5_exploited 3
learning_engine_featurewise.action.index_10_explored 259
learning_engine_featurewise.action.index_10_exploited 0
learning_engine_featurewise.action.index_11_explored 223
learning_engine_featurewise.action.index_11_exploited 0
learning_engine_featurewise.action.index_12_explored 230
learning_engine_featurewise.action.index_12_exploited 0
learning_engine_featurewise.action.index_22_explored 244
learning_engine_featurewise.action.index_22_exploited 0
learning_engine_featurewise.action.index_23_explored 234
learning_engine_featurewise.action.index_23_exploited 0
learning_engine_featurewise.action.index_30_explored 224
learning_engine_featurewise.action.index_30_exploited 0
learning_engine_featurewise.action.index_32_explored 197
learning_engine_featurewise.action.index_32_exploited 0
learning_engine_featurewise.action.index_-1_explored 234
learning_engine_featurewise.action.index_-1_exploited 0
learning_engine_featurewise.action.index_-3_explored 234
learning_engine_featurewise.action.index_-3_exploited 0
learning_engine_featurewise.action.index_-6_explored 222
learning_engine_featurewise.action.index_-6_exploited 0
learning_engine_featurewise.action.index_0_explored 232
learning_engine_featurewise.action.index_0_exploited 0
learning_engine_featurewise.learn.called 1891727
learning_engine_featurewise.learn.su_skip_PC 0
learning_engine_featurewise.learn.su_skip_PC_Delta 0

learning_engine_featurewise.q_value_histogram.bucket_0 0
learning_engine_featurewise.q_value_histogram.bucket_1 0
learning_engine_featurewise.q_value_histogram.bucket_2 0
learning_engine_featurewise.q_value_histogram.bucket_3 0
learning_engine_featurewise.q_value_histogram.bucket_4 616
learning_engine_featurewise.q_value_histogram.bucket_5 146
learning_engine_featurewise.q_value_histogram.bucket_6 1890186
learning_engine_featurewise.q_value_histogram.bucket_7 0

learning_engine_featurewise.consensus.total 1890948
learning_engine_featurewise.consensus.feature_align_PC 1890945
learning_engine_featurewise.consensus.feature_align_PC_ratio 1.00
learning_engine_featurewise.consensus.feature_align_PC_Delta 1890940
learning_engine_featurewise.consensus.feature_align_PC_Delta_ratio 1.00
learning_engine_featurewise.consensus.feature_align_all 1890937
learning_engine_featurewise.consensus.feature_align_all_ratio 1.00

learning_engine_featurewise.feature_PC_min_weight 1000000.00000000
learning_engine_featurewise.feature_PC_max_weight 0.00000000
learning_engine_featurewise.feature_PC_Delta_min_weight 1000000.00000000
learning_engine_featurewise.feature_PC_Delta_max_weight 0.00000000
unique_pcs 26
unique_pages 8202
unique_trigger_pcs 14
total_bitmaps_seen 0
unique_bitmaps_seen 0

scooby_bw_epochs 295022
scooby_bw_level_0 46599
scooby_bw_level_1 91312
scooby_bw_level_2 96771
scooby_bw_level_3 60340

scooby_ipc_epochs 0
scooby_ipc_level_0 0
scooby_ipc_level_1 0
scooby_ipc_level_2 0
scooby_ipc_level_3 0

scooby_cache_acc_epochs 71311
scooby_cache_acc_level_0 1
scooby_cache_acc_level_1 0
scooby_cache_acc_level_2 8
scooby_cache_acc_level_3 238
scooby_cache_acc_level_4 691
scooby_cache_acc_level_5 612
scooby_cache_acc_level_6 296
scooby_cache_acc_level_7 1488
scooby_cache_acc_level_8 2423
scooby_cache_acc_level_9 65554

Channel_0_RQ_row_buffer_hit 793773
Channel_0_RQ_row_buffer_miss 784343
Channel_0_WQ_row_buffer_hit 154095
Channel_0_WQ_row_buffer_miss 431390
Channel_0_WQ_full 0
Channel_0_dbus_congested 1606278

avg_congested_cycle 11

DRAM_bw_pochs 295022
DRAM_bw_level_0 46599
DRAM_bw_level_1 91312
DRAM_bw_level_2 96771
DRAM_bw_level_3 60340
