*************************************************
   ChampSim Multicore Out-of-Order Simulator
   Last compiled: Apr  3 2025 20:54:34
*************************************************
parsing config file: /home/zir/Pythia/config/nopref.ini

trace_0 /home/zir/ChampSim/ML-DPC/ChampSimTraces/spec06/450.soplex-s2.trace.gz
adding L2C_PREFETCHER: NONE
Initialize SHIP state
warmup_instructions 10000000
simulation_instructions 50000000
champsim_seed 165
measure_ipc 0
measure_ipc_epoch 1000
measure_dram_bw 1
measure_dram_bw_epoch 256
measure_cache_acc 1
measure_cache_acc_epoch 1024
l1d_perfect 0
l2c_perfect 0
llc_perfect 0
l1d_semi_perfect 0
l2c_semi_perfect 0
llc_semi_perfect 0
semi_perfect_cache_page_buffer_size 64

num_cpus 1
cpu_freq 4000
dram_io_freq 2400
page_size 4096
block_size 64
max_read_per_cycle 8
max_fill_per_cycle 1
dram_channels 1
log2_dram_channels 0
dram_ranks 1
dram_banks 8
dram_rows 65536
dram_columns 128
dram_row_size 8
dram_size 4096
dram_pages 1048576

fetch_width 6
decode_width 6
exec_width 4
lq_width 2
sq_width 2
retire_width 4
scheduler_size 128
branch_mispredict_penalty 20
rob_size 256
lq_size 72
sq_size 56
num_instr_destinations_sparc 4
num_instr_destinations 2
num_instr_sources 4

itlb_set 16
itlb_way 8
itlb_rq_size 16
itlb_wq_size 16
itlb_pq_size 0
itlb_mshr_size 8
itlb_latency 1

dtlb_set 16
dtlb_way 4
dtlb_rq_size 16
dtlb_wq_size 16
dtlb_pq_size 0
dtlb_mshr_size 8
dtlb_latency 1

stlb_set 128
stlb_way 12
stlb_rq_size 32
stlb_wq_size 32
stlb_pq_size 0
stlb_mshr_size 16
stlb_latency 8

l1i_size 32
l1i_set 64
l1i_way 8
l1i_rq_size 64
l1i_wq_size 64
l1i_pq_size 8
l1i_mshr_size 8
l1i_latency 1

l1d_size 32
l1d_set 64
l1d_way 8
l1d_rq_size 64
l1d_wq_size 64
l1d_pq_size 8
l1d_mshr_size 16
l1d_latency 4

l2c_size 256
l2c_set 512
l2c_way 8
l2c_rq_size 32
l2c_wq_size 32
l2c_pq_size 32
l2c_mshr_size 32
l2c_latency 10

llc_size 2048
llc_set 2048
llc_way 16
llc_rq_size 32
llc_wq_size 32
llc_pq_size 32
llc_mshr_size 64
llc_latency 20

dram_channel_width 8
dram_wq_size 64
dram_rq_size 64
tRP 15
tRCD 15
tCAS 12.5
dram_dbus_turn_around_time 30
dram_write_high_wm 56
dram_write_low_wm 48
min_dram_writes_per_switch 16
dram_mtps 2400
dram_dbus_return_time 13


Heartbeat CPU  0 instructions:    1000003 cycles:     667862 heartbeat IPC: 1.49732 cumulative IPC: 1.49732 (Simulation time: 0 hr 0 min 2 sec) 
Heartbeat CPU  0 instructions:    2000002 cycles:    1195982 heartbeat IPC: 1.89351 cumulative IPC: 1.67227 (Simulation time: 0 hr 0 min 3 sec) 
Heartbeat CPU  0 instructions:    3000003 cycles:    1871530 heartbeat IPC: 1.48028 cumulative IPC: 1.60297 (Simulation time: 0 hr 0 min 4 sec) 
Heartbeat CPU  0 instructions:    4000000 cycles:    2561984 heartbeat IPC: 1.44832 cumulative IPC: 1.56129 (Simulation time: 0 hr 0 min 5 sec) 
Heartbeat CPU  0 instructions:    5000000 cycles:    3183298 heartbeat IPC: 1.60949 cumulative IPC: 1.57070 (Simulation time: 0 hr 0 min 6 sec) 
Heartbeat CPU  0 instructions:    6000001 cycles:    3976910 heartbeat IPC: 1.26006 cumulative IPC: 1.50871 (Simulation time: 0 hr 0 min 7 sec) 
Heartbeat CPU  0 instructions:    7000002 cycles:    4930624 heartbeat IPC: 1.04853 cumulative IPC: 1.41970 (Simulation time: 0 hr 0 min 8 sec) 
Heartbeat CPU  0 instructions:    8000000 cycles:    5799554 heartbeat IPC: 1.15084 cumulative IPC: 1.37942 (Simulation time: 0 hr 0 min 9 sec) 
Heartbeat CPU  0 instructions:    9000001 cycles:    6416232 heartbeat IPC: 1.62159 cumulative IPC: 1.40269 (Simulation time: 0 hr 0 min 10 sec) 
Heartbeat CPU  0 instructions:   10000003 cycles:    6978689 heartbeat IPC: 1.77792 cumulative IPC: 1.43293 (Simulation time: 0 hr 0 min 11 sec) 

Warmup complete CPU  0 instructions:   10000003 cycles:    6978689 (Simulation time: 0 hr 0 min 11 sec) 

Heartbeat CPU  0 instructions:   11000001 cycles:   11050734 heartbeat IPC: 0.24558 cumulative IPC: 0.24558 (Simulation time: 0 hr 0 min 13 sec) 
Heartbeat CPU  0 instructions:   12000000 cycles:   12997443 heartbeat IPC: 0.51369 cumulative IPC: 0.33229 (Simulation time: 0 hr 0 min 15 sec) 
Heartbeat CPU  0 instructions:   13000001 cycles:   15993654 heartbeat IPC: 0.33376 cumulative IPC: 0.33278 (Simulation time: 0 hr 0 min 16 sec) 
Heartbeat CPU  0 instructions:   14000002 cycles:   19327816 heartbeat IPC: 0.29993 cumulative IPC: 0.32391 (Simulation time: 0 hr 0 min 18 sec) 
Heartbeat CPU  0 instructions:   15000002 cycles:   22559628 heartbeat IPC: 0.30942 cumulative IPC: 0.32090 (Simulation time: 0 hr 0 min 20 sec) 
Heartbeat CPU  0 instructions:   16000000 cycles:   26632725 heartbeat IPC: 0.24551 cumulative IPC: 0.30528 (Simulation time: 0 hr 0 min 22 sec) 
Heartbeat CPU  0 instructions:   17000001 cycles:   30203446 heartbeat IPC: 0.28006 cumulative IPC: 0.30140 (Simulation time: 0 hr 0 min 25 sec) 
Heartbeat CPU  0 instructions:   18000000 cycles:   32987267 heartbeat IPC: 0.35922 cumulative IPC: 0.30759 (Simulation time: 0 hr 0 min 27 sec) 
Heartbeat CPU  0 instructions:   19000002 cycles:   37635038 heartbeat IPC: 0.21516 cumulative IPC: 0.29358 (Simulation time: 0 hr 0 min 29 sec) 
Heartbeat CPU  0 instructions:   20000000 cycles:   39573546 heartbeat IPC: 0.51586 cumulative IPC: 0.30680 (Simulation time: 0 hr 0 min 30 sec) 
Heartbeat CPU  0 instructions:   21000000 cycles:   42254101 heartbeat IPC: 0.37306 cumulative IPC: 0.31183 (Simulation time: 0 hr 0 min 32 sec) 
Heartbeat CPU  0 instructions:   22000000 cycles:   45730995 heartbeat IPC: 0.28761 cumulative IPC: 0.30966 (Simulation time: 0 hr 0 min 34 sec) 
Heartbeat CPU  0 instructions:   23000000 cycles:   48934028 heartbeat IPC: 0.31220 cumulative IPC: 0.30985 (Simulation time: 0 hr 0 min 36 sec) 
Heartbeat CPU  0 instructions:   24000000 cycles:   52473638 heartbeat IPC: 0.28252 cumulative IPC: 0.30773 (Simulation time: 0 hr 0 min 37 sec) 
Heartbeat CPU  0 instructions:   25000003 cycles:   56232214 heartbeat IPC: 0.26606 cumulative IPC: 0.30455 (Simulation time: 0 hr 0 min 40 sec) 
Heartbeat CPU  0 instructions:   26000001 cycles:   59461496 heartbeat IPC: 0.30967 cumulative IPC: 0.30486 (Simulation time: 0 hr 0 min 42 sec) 
Heartbeat CPU  0 instructions:   27000002 cycles:   64084374 heartbeat IPC: 0.21632 cumulative IPC: 0.29769 (Simulation time: 0 hr 0 min 45 sec) 
Heartbeat CPU  0 instructions:   28000000 cycles:   66012828 heartbeat IPC: 0.51855 cumulative IPC: 0.30491 (Simulation time: 0 hr 0 min 46 sec) 
Heartbeat CPU  0 instructions:   29000002 cycles:   68362297 heartbeat IPC: 0.42563 cumulative IPC: 0.30953 (Simulation time: 0 hr 0 min 48 sec) 
Heartbeat CPU  0 instructions:   30000000 cycles:   71922045 heartbeat IPC: 0.28092 cumulative IPC: 0.30796 (Simulation time: 0 hr 0 min 50 sec) 
Heartbeat CPU  0 instructions:   31000001 cycles:   75185997 heartbeat IPC: 0.30638 cumulative IPC: 0.30788 (Simulation time: 0 hr 0 min 52 sec) 
Heartbeat CPU  0 instructions:   32000000 cycles:   78561885 heartbeat IPC: 0.29622 cumulative IPC: 0.30733 (Simulation time: 0 hr 0 min 53 sec) 
Heartbeat CPU  0 instructions:   33000001 cycles:   83714169 heartbeat IPC: 0.19409 cumulative IPC: 0.29973 (Simulation time: 0 hr 0 min 56 sec) 
Heartbeat CPU  0 instructions:   34000003 cycles:   86600282 heartbeat IPC: 0.34649 cumulative IPC: 0.30143 (Simulation time: 0 hr 0 min 58 sec) 
Heartbeat CPU  0 instructions:   35000003 cycles:   90588047 heartbeat IPC: 0.25077 cumulative IPC: 0.29901 (Simulation time: 0 hr 1 min 1 sec) 
Heartbeat CPU  0 instructions:   36000000 cycles:   92496078 heartbeat IPC: 0.52410 cumulative IPC: 0.30403 (Simulation time: 0 hr 1 min 2 sec) 
Heartbeat CPU  0 instructions:   37000000 cycles:   95469060 heartbeat IPC: 0.33636 cumulative IPC: 0.30512 (Simulation time: 0 hr 1 min 4 sec) 
Heartbeat CPU  0 instructions:   38000001 cycles:   98766155 heartbeat IPC: 0.30330 cumulative IPC: 0.30505 (Simulation time: 0 hr 1 min 6 sec) 
Heartbeat CPU  0 instructions:   39000003 cycles:  102006652 heartbeat IPC: 0.30860 cumulative IPC: 0.30517 (Simulation time: 0 hr 1 min 7 sec) 
Heartbeat CPU  0 instructions:   40000000 cycles:  105931316 heartbeat IPC: 0.25480 cumulative IPC: 0.30318 (Simulation time: 0 hr 1 min 9 sec) 
Heartbeat CPU  0 instructions:   41000001 cycles:  109415302 heartbeat IPC: 0.28703 cumulative IPC: 0.30263 (Simulation time: 0 hr 1 min 12 sec) 
Heartbeat CPU  0 instructions:   42000001 cycles:  112209632 heartbeat IPC: 0.35787 cumulative IPC: 0.30409 (Simulation time: 0 hr 1 min 14 sec) 
Heartbeat CPU  0 instructions:   43000000 cycles:  116833923 heartbeat IPC: 0.21625 cumulative IPC: 0.30040 (Simulation time: 0 hr 1 min 16 sec) 
Heartbeat CPU  0 instructions:   44000000 cycles:  118756476 heartbeat IPC: 0.52014 cumulative IPC: 0.30417 (Simulation time: 0 hr 1 min 18 sec) 
Heartbeat CPU  0 instructions:   45000003 cycles:  121423534 heartbeat IPC: 0.37495 cumulative IPC: 0.30582 (Simulation time: 0 hr 1 min 19 sec) 
Heartbeat CPU  0 instructions:   46000003 cycles:  124888782 heartbeat IPC: 0.28858 cumulative IPC: 0.30532 (Simulation time: 0 hr 1 min 21 sec) 
Heartbeat CPU  0 instructions:   47000000 cycles:  128076312 heartbeat IPC: 0.31372 cumulative IPC: 0.30554 (Simulation time: 0 hr 1 min 23 sec) 
Heartbeat CPU  0 instructions:   48000000 cycles:  131566424 heartbeat IPC: 0.28652 cumulative IPC: 0.30501 (Simulation time: 0 hr 1 min 25 sec) 
Heartbeat CPU  0 instructions:   49000000 cycles:  136038220 heartbeat IPC: 0.22362 cumulative IPC: 0.30219 (Simulation time: 0 hr 1 min 28 sec) 
Heartbeat CPU  0 instructions:   50000002 cycles:  143332973 heartbeat IPC: 0.13709 cumulative IPC: 0.29335 (Simulation time: 0 hr 1 min 31 sec) 
Heartbeat CPU  0 instructions:   51000002 cycles:  146378318 heartbeat IPC: 0.32837 cumulative IPC: 0.29412 (Simulation time: 0 hr 1 min 34 sec) 
Heartbeat CPU  0 instructions:   52000000 cycles:  151496718 heartbeat IPC: 0.19537 cumulative IPC: 0.29062 (Simulation time: 0 hr 1 min 37 sec) 
Heartbeat CPU  0 instructions:   53000003 cycles:  155591177 heartbeat IPC: 0.24423 cumulative IPC: 0.28934 (Simulation time: 0 hr 1 min 40 sec) 
Heartbeat CPU  0 instructions:   54000000 cycles:  159279594 heartbeat IPC: 0.27112 cumulative IPC: 0.28890 (Simulation time: 0 hr 1 min 43 sec) 
Heartbeat CPU  0 instructions:   55000002 cycles:  163753315 heartbeat IPC: 0.22353 cumulative IPC: 0.28704 (Simulation time: 0 hr 1 min 45 sec) 
Heartbeat CPU  0 instructions:   56000000 cycles:  167693483 heartbeat IPC: 0.25380 cumulative IPC: 0.28622 (Simulation time: 0 hr 1 min 47 sec) 
Heartbeat CPU  0 instructions:   57000003 cycles:  170876463 heartbeat IPC: 0.31417 cumulative IPC: 0.28676 (Simulation time: 0 hr 1 min 49 sec) 
Heartbeat CPU  0 instructions:   58000002 cycles:  173378769 heartbeat IPC: 0.39963 cumulative IPC: 0.28846 (Simulation time: 0 hr 1 min 51 sec) 
Heartbeat CPU  0 instructions:   59000002 cycles:  175450073 heartbeat IPC: 0.48279 cumulative IPC: 0.29085 (Simulation time: 0 hr 1 min 53 sec) 
Heartbeat CPU  0 instructions:   60000000 cycles:  178068895 heartbeat IPC: 0.38185 cumulative IPC: 0.29224 (Simulation time: 0 hr 1 min 55 sec) 
Finished CPU 0 instructions: 50000000 cycles: 171090220 cumulative IPC: 0.29224 (Simulation time: 0 hr 1 min 55 sec) 

ChampSim completed all CPUs

[ROI Statistics]
Core_0_instructions 50000000
Core_0_cycles 171090220
Core_0_IPC 0.29224

Core_0_branch_prediction_accuracy 94.24083
Core_0_branch_MPKI 11.85212
Core_0_average_ROB_occupancy_at_mispredict 60.87646

Core_0_L1D_total_access 9617263
Core_0_L1D_total_hit 7416207
Core_0_L1D_total_miss 2201056
Core_0_L1D_loads 6327170
Core_0_L1D_load_hit 4539264
Core_0_L1D_load_miss 1787906
Core_0_L1D_RFOs 3290093
Core_0_L1D_RFO_hit 2876943
Core_0_L1D_RFO_miss 413150
Core_0_L1D_prefetches 0
Core_0_L1D_prefetch_hit 0
Core_0_L1D_prefetch_miss 0
Core_0_L1D_writebacks 0
Core_0_L1D_writeback_hit 0
Core_0_L1D_writeback_miss 0
Core_0_L1D_prefetch_requested 0
Core_0_L1D_prefetch_dropped 0
Core_0_L1D_prefetch_issued 0
Core_0_L1D_prefetch_filled 0
Core_0_L1D_prefetch_useful 0
Core_0_L1D_prefetch_useless 0
Core_0_L1D_prefetch_late 0
Core_0_L1D_average_miss_latency 165.76460

Core_0_L1D_rq_access 11069965
Core_0_L1D_rq_forward 0
Core_0_L1D_rq_merged 4054609
Core_0_L1D_rq_to_cache 7015354
Core_0_L1D_rq_full 0

Core_0_L1D_wq_access 4274104
Core_0_L1D_wq_forward 2
Core_0_L1D_wq_merged 17489
Core_0_L1D_wq_to_cache 4256615
Core_0_L1D_wq_full 2046030

Core_0_L1D_pq_access 0
Core_0_L1D_pq_forward 0
Core_0_L1D_pq_merged 0
Core_0_L1D_pq_to_cache 0
Core_0_L1D_pq_full 0

Core_0_L1D_acc_epochs 168189
Core_0_L1D_acc_level_0 168189
Core_0_L1D_acc_level_1 0
Core_0_L1D_acc_level_2 0
Core_0_L1D_acc_level_3 0
Core_0_L1D_acc_level_4 0
Core_0_L1D_acc_level_5 0
Core_0_L1D_acc_level_6 0
Core_0_L1D_acc_level_7 0
Core_0_L1D_acc_level_8 0
Core_0_L1D_acc_level_9 0

Core_0_L1I_total_access 10469424
Core_0_L1I_total_hit 10468971
Core_0_L1I_total_miss 453
Core_0_L1I_loads 10469424
Core_0_L1I_load_hit 10468971
Core_0_L1I_load_miss 453
Core_0_L1I_RFOs 0
Core_0_L1I_RFO_hit 0
Core_0_L1I_RFO_miss 0
Core_0_L1I_prefetches 0
Core_0_L1I_prefetch_hit 0
Core_0_L1I_prefetch_miss 0
Core_0_L1I_writebacks 0
Core_0_L1I_writeback_hit 0
Core_0_L1I_writeback_miss 0
Core_0_L1I_prefetch_requested 0
Core_0_L1I_prefetch_dropped 0
Core_0_L1I_prefetch_issued 0
Core_0_L1I_prefetch_filled 0
Core_0_L1I_prefetch_useful 0
Core_0_L1I_prefetch_useless 0
Core_0_L1I_prefetch_late 0
Core_0_L1I_average_miss_latency 248.97130

Core_0_L1I_rq_access 50000120
Core_0_L1I_rq_forward 0
Core_0_L1I_rq_merged 39530155
Core_0_L1I_rq_to_cache 10469965
Core_0_L1I_rq_full 0

Core_0_L1I_wq_access 0
Core_0_L1I_wq_forward 0
Core_0_L1I_wq_merged 0
Core_0_L1I_wq_to_cache 0
Core_0_L1I_wq_full 0

Core_0_L1I_pq_access 0
Core_0_L1I_pq_forward 0
Core_0_L1I_pq_merged 0
Core_0_L1I_pq_to_cache 0
Core_0_L1I_pq_full 0

Core_0_L1I_acc_epochs 168189
Core_0_L1I_acc_level_0 168189
Core_0_L1I_acc_level_1 0
Core_0_L1I_acc_level_2 0
Core_0_L1I_acc_level_3 0
Core_0_L1I_acc_level_4 0
Core_0_L1I_acc_level_5 0
Core_0_L1I_acc_level_6 0
Core_0_L1I_acc_level_7 0
Core_0_L1I_acc_level_8 0
Core_0_L1I_acc_level_9 0

Core_0_L2C_total_access 3172579
Core_0_L2C_total_hit 1299441
Core_0_L2C_total_miss 1873138
Core_0_L2C_loads 1788284
Core_0_L2C_load_hit 274384
Core_0_L2C_load_miss 1513900
Core_0_L2C_RFOs 413113
Core_0_L2C_RFO_hit 54340
Core_0_L2C_RFO_miss 358773
Core_0_L2C_prefetches 0
Core_0_L2C_prefetch_hit 0
Core_0_L2C_prefetch_miss 0
Core_0_L2C_writebacks 971182
Core_0_L2C_writeback_hit 970717
Core_0_L2C_writeback_miss 465
Core_0_L2C_prefetch_requested 0
Core_0_L2C_prefetch_dropped 0
Core_0_L2C_prefetch_issued 0
Core_0_L2C_prefetch_filled 0
Core_0_L2C_prefetch_useful 0
Core_0_L2C_prefetch_useless 0
Core_0_L2C_prefetch_late 0
Core_0_L2C_average_miss_latency 176.92126

Core_0_L2C_rq_access 2201512
Core_0_L2C_rq_forward 0
Core_0_L2C_rq_merged 0
Core_0_L2C_rq_to_cache 2201400
Core_0_L2C_rq_full 0

Core_0_L2C_wq_access 971182
Core_0_L2C_wq_forward 112
Core_0_L2C_wq_merged 0
Core_0_L2C_wq_to_cache 971182
Core_0_L2C_wq_full 0

Core_0_L2C_pq_access 0
Core_0_L2C_pq_forward 0
Core_0_L2C_pq_merged 0
Core_0_L2C_pq_to_cache 0
Core_0_L2C_pq_full 0

Core_0_L2C_acc_epochs 168189
Core_0_L2C_acc_level_0 168189
Core_0_L2C_acc_level_1 0
Core_0_L2C_acc_level_2 0
Core_0_L2C_acc_level_3 0
Core_0_L2C_acc_level_4 0
Core_0_L2C_acc_level_5 0
Core_0_L2C_acc_level_6 0
Core_0_L2C_acc_level_7 0
Core_0_L2C_acc_level_8 0
Core_0_L2C_acc_level_9 0

Core_0_LLC_total_access 2653375
Core_0_LLC_total_hit 1298159
Core_0_LLC_total_miss 1355216
Core_0_LLC_loads 1513899
Core_0_LLC_load_hit 618787
Core_0_LLC_load_miss 895112
Core_0_LLC_RFOs 358774
Core_0_LLC_RFO_hit 101801
Core_0_LLC_RFO_miss 256973
Core_0_LLC_prefetches 0
Core_0_LLC_prefetch_hit 0
Core_0_LLC_prefetch_miss 0
Core_0_LLC_writebacks 780702
Core_0_LLC_writeback_hit 577571
Core_0_LLC_writeback_miss 203131
Core_0_LLC_prefetch_requested 0
Core_0_LLC_prefetch_dropped 0
Core_0_LLC_prefetch_issued 0
Core_0_LLC_prefetch_filled 0
Core_0_LLC_prefetch_useful 0
Core_0_LLC_prefetch_useless 0
Core_0_LLC_prefetch_late 0
Core_0_LLC_average_miss_latency 201.32030

Core_0_LLC_rq_access 1872676
Core_0_LLC_rq_forward 0
Core_0_LLC_rq_merged 0
Core_0_LLC_rq_to_cache 1872674
Core_0_LLC_rq_full 0

Core_0_LLC_wq_access 780702
Core_0_LLC_wq_forward 2
Core_0_LLC_wq_merged 0
Core_0_LLC_wq_to_cache 780702
Core_0_LLC_wq_full 0

Core_0_LLC_pq_access 0
Core_0_LLC_pq_forward 0
Core_0_LLC_pq_merged 0
Core_0_LLC_pq_to_cache 0
Core_0_LLC_pq_full 0

Core_0_LLC_acc_epochs 173896
Core_0_LLC_acc_level_0 173896
Core_0_LLC_acc_level_1 0
Core_0_LLC_acc_level_2 0
Core_0_LLC_acc_level_3 0
Core_0_LLC_acc_level_4 0
Core_0_LLC_acc_level_5 0
Core_0_LLC_acc_level_6 0
Core_0_LLC_acc_level_7 0
Core_0_LLC_acc_level_8 0
Core_0_LLC_acc_level_9 0

Core_0_major_page_fault 0
Core_0_minor_page_fault 11394

Channel_0_RQ_row_buffer_hit 379978
Channel_0_RQ_row_buffer_miss 772008
Channel_0_WQ_row_buffer_hit 155781
Channel_0_WQ_row_buffer_miss 307377
Channel_0_WQ_full 929
Channel_0_dbus_congested 706707

avg_congested_cycle 11

DRAM_bw_pochs 695582
DRAM_bw_level_0 561058
DRAM_bw_level_1 96129
DRAM_bw_level_2 26211
DRAM_bw_level_3 12184
