*************************************************
   ChampSim Multicore Out-of-Order Simulator
   Last compiled: Apr  3 2025 20:54:34
*************************************************
parsing config file: /home/zir/Pythia/config/nopref.ini

trace_0 /home/zir/ChampSim/ML-DPC/ChampSimTraces/spec06/482.sphinx3-s1.trace.gz
adding L2C_PREFETCHER: NONE
Initialize SHIP state
warmup_instructions 10000000
simulation_instructions 50000000
champsim_seed 164
measure_ipc 0
measure_ipc_epoch 1000
measure_dram_bw 1
measure_dram_bw_epoch 256
measure_cache_acc 1
measure_cache_acc_epoch 1024
l1d_perfect 0
l2c_perfect 0
llc_perfect 0
l1d_semi_perfect 0
l2c_semi_perfect 0
llc_semi_perfect 0
semi_perfect_cache_page_buffer_size 64

num_cpus 1
cpu_freq 4000
dram_io_freq 2400
page_size 4096
block_size 64
max_read_per_cycle 8
max_fill_per_cycle 1
dram_channels 1
log2_dram_channels 0
dram_ranks 1
dram_banks 8
dram_rows 65536
dram_columns 128
dram_row_size 8
dram_size 4096
dram_pages 1048576

fetch_width 6
decode_width 6
exec_width 4
lq_width 2
sq_width 2
retire_width 4
scheduler_size 128
branch_mispredict_penalty 20
rob_size 256
lq_size 72
sq_size 56
num_instr_destinations_sparc 4
num_instr_destinations 2
num_instr_sources 4

itlb_set 16
itlb_way 8
itlb_rq_size 16
itlb_wq_size 16
itlb_pq_size 0
itlb_mshr_size 8
itlb_latency 1

dtlb_set 16
dtlb_way 4
dtlb_rq_size 16
dtlb_wq_size 16
dtlb_pq_size 0
dtlb_mshr_size 8
dtlb_latency 1

stlb_set 128
stlb_way 12
stlb_rq_size 32
stlb_wq_size 32
stlb_pq_size 0
stlb_mshr_size 16
stlb_latency 8

l1i_size 32
l1i_set 64
l1i_way 8
l1i_rq_size 64
l1i_wq_size 64
l1i_pq_size 8
l1i_mshr_size 8
l1i_latency 1

l1d_size 32
l1d_set 64
l1d_way 8
l1d_rq_size 64
l1d_wq_size 64
l1d_pq_size 8
l1d_mshr_size 16
l1d_latency 4

l2c_size 256
l2c_set 512
l2c_way 8
l2c_rq_size 32
l2c_wq_size 32
l2c_pq_size 32
l2c_mshr_size 32
l2c_latency 10

llc_size 2048
llc_set 2048
llc_way 16
llc_rq_size 32
llc_wq_size 32
llc_pq_size 32
llc_mshr_size 64
llc_latency 20

dram_channel_width 8
dram_wq_size 64
dram_rq_size 64
tRP 15
tRCD 15
tCAS 12.5
dram_dbus_turn_around_time 30
dram_write_high_wm 56
dram_write_low_wm 48
min_dram_writes_per_switch 16
dram_mtps 2400
dram_dbus_return_time 13


Heartbeat CPU  0 instructions:    1000003 cycles:     363269 heartbeat IPC: 2.75279 cumulative IPC: 2.75279 (Simulation time: 0 hr 0 min 2 sec) 
Heartbeat CPU  0 instructions:    2000000 cycles:     875498 heartbeat IPC: 1.95225 cumulative IPC: 2.28441 (Simulation time: 0 hr 0 min 3 sec) 
Heartbeat CPU  0 instructions:    3000001 cycles:    1344674 heartbeat IPC: 2.13140 cumulative IPC: 2.23102 (Simulation time: 0 hr 0 min 4 sec) 
Heartbeat CPU  0 instructions:    4000000 cycles:    1707944 heartbeat IPC: 2.75277 cumulative IPC: 2.34200 (Simulation time: 0 hr 0 min 5 sec) 
Heartbeat CPU  0 instructions:    5000002 cycles:    2147137 heartbeat IPC: 2.27691 cumulative IPC: 2.32868 (Simulation time: 0 hr 0 min 7 sec) 
Heartbeat CPU  0 instructions:    6000001 cycles:    2683013 heartbeat IPC: 1.86610 cumulative IPC: 2.23629 (Simulation time: 0 hr 0 min 8 sec) 
Heartbeat CPU  0 instructions:    7000000 cycles:    3046411 heartbeat IPC: 2.75180 cumulative IPC: 2.29779 (Simulation time: 0 hr 0 min 9 sec) 
Heartbeat CPU  0 instructions:    8000000 cycles:    3425972 heartbeat IPC: 2.63462 cumulative IPC: 2.33510 (Simulation time: 0 hr 0 min 11 sec) 
Heartbeat CPU  0 instructions:    9000000 cycles:    3941109 heartbeat IPC: 1.94123 cumulative IPC: 2.28362 (Simulation time: 0 hr 0 min 12 sec) 
Heartbeat CPU  0 instructions:   10000003 cycles:    4314322 heartbeat IPC: 2.67944 cumulative IPC: 2.31786 (Simulation time: 0 hr 0 min 13 sec) 

Warmup complete CPU  0 instructions:   10000003 cycles:    4314322 (Simulation time: 0 hr 0 min 13 sec) 

Heartbeat CPU  0 instructions:   11000001 cycles:    5282775 heartbeat IPC: 1.03257 cumulative IPC: 1.03257 (Simulation time: 0 hr 0 min 15 sec) 
Heartbeat CPU  0 instructions:   12000000 cycles:    6288888 heartbeat IPC: 0.99392 cumulative IPC: 1.01288 (Simulation time: 0 hr 0 min 16 sec) 
Heartbeat CPU  0 instructions:   13000002 cycles:    7692225 heartbeat IPC: 0.71259 cumulative IPC: 0.88812 (Simulation time: 0 hr 0 min 18 sec) 
Heartbeat CPU  0 instructions:   14000002 cycles:    8625560 heartbeat IPC: 1.07143 cumulative IPC: 0.92781 (Simulation time: 0 hr 0 min 20 sec) 
Heartbeat CPU  0 instructions:   15000003 cycles:    9645701 heartbeat IPC: 0.98026 cumulative IPC: 0.93784 (Simulation time: 0 hr 0 min 21 sec) 
Heartbeat CPU  0 instructions:   16000000 cycles:   10967478 heartbeat IPC: 0.75656 cumulative IPC: 0.90183 (Simulation time: 0 hr 0 min 23 sec) 
Heartbeat CPU  0 instructions:   17000000 cycles:   11866234 heartbeat IPC: 1.11265 cumulative IPC: 0.92692 (Simulation time: 0 hr 0 min 25 sec) 
Heartbeat CPU  0 instructions:   18000002 cycles:   12855873 heartbeat IPC: 1.01047 cumulative IPC: 0.93660 (Simulation time: 0 hr 0 min 26 sec) 
Heartbeat CPU  0 instructions:   19000003 cycles:   14122743 heartbeat IPC: 0.78935 cumulative IPC: 0.91758 (Simulation time: 0 hr 0 min 28 sec) 
Heartbeat CPU  0 instructions:   20000000 cycles:   15018731 heartbeat IPC: 1.11608 cumulative IPC: 0.93419 (Simulation time: 0 hr 0 min 29 sec) 
Heartbeat CPU  0 instructions:   21000001 cycles:   16264399 heartbeat IPC: 0.80278 cumulative IPC: 0.92050 (Simulation time: 0 hr 0 min 31 sec) 
Heartbeat CPU  0 instructions:   22000002 cycles:   17293728 heartbeat IPC: 0.97151 cumulative IPC: 0.92454 (Simulation time: 0 hr 0 min 33 sec) 
Heartbeat CPU  0 instructions:   23000001 cycles:   18512150 heartbeat IPC: 0.82073 cumulative IPC: 0.91563 (Simulation time: 0 hr 0 min 34 sec) 
Heartbeat CPU  0 instructions:   24000000 cycles:   19500819 heartbeat IPC: 1.01146 cumulative IPC: 0.92187 (Simulation time: 0 hr 0 min 36 sec) 
Heartbeat CPU  0 instructions:   25000003 cycles:   20442957 heartbeat IPC: 1.06142 cumulative IPC: 0.93002 (Simulation time: 0 hr 0 min 37 sec) 
Heartbeat CPU  0 instructions:   26000000 cycles:   21631061 heartbeat IPC: 0.84167 cumulative IPC: 0.92396 (Simulation time: 0 hr 0 min 39 sec) 
Heartbeat CPU  0 instructions:   27000001 cycles:   22557411 heartbeat IPC: 1.07951 cumulative IPC: 0.93186 (Simulation time: 0 hr 0 min 41 sec) 
Heartbeat CPU  0 instructions:   28000000 cycles:   23507196 heartbeat IPC: 1.05287 cumulative IPC: 0.93785 (Simulation time: 0 hr 0 min 42 sec) 
Heartbeat CPU  0 instructions:   29000003 cycles:   24680076 heartbeat IPC: 0.85260 cumulative IPC: 0.93294 (Simulation time: 0 hr 0 min 44 sec) 
Heartbeat CPU  0 instructions:   30000001 cycles:   25571053 heartbeat IPC: 1.12236 cumulative IPC: 0.94088 (Simulation time: 0 hr 0 min 46 sec) 
Heartbeat CPU  0 instructions:   31000001 cycles:   26499502 heartbeat IPC: 1.07707 cumulative IPC: 0.94658 (Simulation time: 0 hr 0 min 47 sec) 
Heartbeat CPU  0 instructions:   32000000 cycles:   27673172 heartbeat IPC: 0.85203 cumulative IPC: 0.94183 (Simulation time: 0 hr 0 min 49 sec) 
Heartbeat CPU  0 instructions:   33000000 cycles:   28561731 heartbeat IPC: 1.12542 cumulative IPC: 0.94855 (Simulation time: 0 hr 0 min 50 sec) 
Heartbeat CPU  0 instructions:   34000000 cycles:   29481766 heartbeat IPC: 1.08692 cumulative IPC: 0.95361 (Simulation time: 0 hr 0 min 52 sec) 
Heartbeat CPU  0 instructions:   35000002 cycles:   30657402 heartbeat IPC: 0.85061 cumulative IPC: 0.94902 (Simulation time: 0 hr 0 min 54 sec) 
Heartbeat CPU  0 instructions:   36000000 cycles:   31530773 heartbeat IPC: 1.14499 cumulative IPC: 0.95530 (Simulation time: 0 hr 0 min 55 sec) 
Heartbeat CPU  0 instructions:   37000000 cycles:   32472999 heartbeat IPC: 1.06132 cumulative IPC: 0.95885 (Simulation time: 0 hr 0 min 57 sec) 
Heartbeat CPU  0 instructions:   38000002 cycles:   33653245 heartbeat IPC: 0.84728 cumulative IPC: 0.95436 (Simulation time: 0 hr 0 min 58 sec) 
Heartbeat CPU  0 instructions:   39000000 cycles:   34549956 heartbeat IPC: 1.11518 cumulative IPC: 0.95913 (Simulation time: 0 hr 1 min 0 sec) 
Heartbeat CPU  0 instructions:   40000000 cycles:   35528581 heartbeat IPC: 1.02184 cumulative IPC: 0.96110 (Simulation time: 0 hr 1 min 2 sec) 
Heartbeat CPU  0 instructions:   41000001 cycles:   36688222 heartbeat IPC: 0.86234 cumulative IPC: 0.95756 (Simulation time: 0 hr 1 min 3 sec) 
Heartbeat CPU  0 instructions:   42000002 cycles:   37597046 heartbeat IPC: 1.10032 cumulative IPC: 0.96146 (Simulation time: 0 hr 1 min 5 sec) 
Heartbeat CPU  0 instructions:   43000001 cycles:   38543806 heartbeat IPC: 1.05623 cumulative IPC: 0.96408 (Simulation time: 0 hr 1 min 6 sec) 
Heartbeat CPU  0 instructions:   44000000 cycles:   39692218 heartbeat IPC: 0.87077 cumulative IPC: 0.96105 (Simulation time: 0 hr 1 min 8 sec) 
Heartbeat CPU  0 instructions:   45000001 cycles:   40587830 heartbeat IPC: 1.11656 cumulative IPC: 0.96489 (Simulation time: 0 hr 1 min 10 sec) 
Heartbeat CPU  0 instructions:   46000003 cycles:   41566518 heartbeat IPC: 1.02178 cumulative IPC: 0.96639 (Simulation time: 0 hr 1 min 11 sec) 
Heartbeat CPU  0 instructions:   47000001 cycles:   42704453 heartbeat IPC: 0.87878 cumulative IPC: 0.96379 (Simulation time: 0 hr 1 min 13 sec) 
Heartbeat CPU  0 instructions:   48000000 cycles:   43597791 heartbeat IPC: 1.11940 cumulative IPC: 0.96733 (Simulation time: 0 hr 1 min 15 sec) 
Heartbeat CPU  0 instructions:   49000001 cycles:   44550883 heartbeat IPC: 1.04922 cumulative IPC: 0.96927 (Simulation time: 0 hr 1 min 16 sec) 
Heartbeat CPU  0 instructions:   50000003 cycles:   45683982 heartbeat IPC: 0.88254 cumulative IPC: 0.96689 (Simulation time: 0 hr 1 min 18 sec) 
Heartbeat CPU  0 instructions:   51000001 cycles:   46576267 heartbeat IPC: 1.12072 cumulative IPC: 0.97014 (Simulation time: 0 hr 1 min 19 sec) 
Heartbeat CPU  0 instructions:   52000000 cycles:   47527665 heartbeat IPC: 1.05108 cumulative IPC: 0.97192 (Simulation time: 0 hr 1 min 21 sec) 
Heartbeat CPU  0 instructions:   53000001 cycles:   48633636 heartbeat IPC: 0.90418 cumulative IPC: 0.97023 (Simulation time: 0 hr 1 min 23 sec) 
Heartbeat CPU  0 instructions:   54000000 cycles:   49490683 heartbeat IPC: 1.16680 cumulative IPC: 0.97396 (Simulation time: 0 hr 1 min 24 sec) 
Heartbeat CPU  0 instructions:   55000000 cycles:   50445473 heartbeat IPC: 1.04735 cumulative IPC: 0.97548 (Simulation time: 0 hr 1 min 26 sec) 
Heartbeat CPU  0 instructions:   56000000 cycles:   51531343 heartbeat IPC: 0.92092 cumulative IPC: 0.97422 (Simulation time: 0 hr 1 min 27 sec) 
Heartbeat CPU  0 instructions:   57000001 cycles:   52509118 heartbeat IPC: 1.02273 cumulative IPC: 0.97521 (Simulation time: 0 hr 1 min 29 sec) 
Heartbeat CPU  0 instructions:   58000003 cycles:   53633112 heartbeat IPC: 0.88969 cumulative IPC: 0.97326 (Simulation time: 0 hr 1 min 31 sec) 
Heartbeat CPU  0 instructions:   59000001 cycles:   54587019 heartbeat IPC: 1.04832 cumulative IPC: 0.97468 (Simulation time: 0 hr 1 min 32 sec) 
Heartbeat CPU  0 instructions:   60000000 cycles:   55743172 heartbeat IPC: 0.86494 cumulative IPC: 0.97222 (Simulation time: 0 hr 1 min 34 sec) 
Finished CPU 0 instructions: 50000000 cycles: 51428864 cumulative IPC: 0.97222 (Simulation time: 0 hr 1 min 34 sec) 

ChampSim completed all CPUs

[ROI Statistics]
Core_0_instructions 50000000
Core_0_cycles 51428864
Core_0_IPC 0.97222

Core_0_branch_prediction_accuracy 98.76540
Core_0_branch_MPKI 1.05530
Core_0_average_ROB_occupancy_at_mispredict 129.94709

Core_0_L1D_total_access 7113706
Core_0_L1D_total_hit 6443639
Core_0_L1D_total_miss 670067
Core_0_L1D_loads 6365163
Core_0_L1D_load_hit 5761962
Core_0_L1D_load_miss 603201
Core_0_L1D_RFOs 748543
Core_0_L1D_RFO_hit 681677
Core_0_L1D_RFO_miss 66866
Core_0_L1D_prefetches 0
Core_0_L1D_prefetch_hit 0
Core_0_L1D_prefetch_miss 0
Core_0_L1D_writebacks 0
Core_0_L1D_writeback_hit 0
Core_0_L1D_writeback_miss 0
Core_0_L1D_prefetch_requested 0
Core_0_L1D_prefetch_dropped 0
Core_0_L1D_prefetch_issued 0
Core_0_L1D_prefetch_filled 0
Core_0_L1D_prefetch_useful 0
Core_0_L1D_prefetch_useless 0
Core_0_L1D_prefetch_late 0
Core_0_L1D_average_miss_latency 68.81724

Core_0_L1D_rq_access 11584783
Core_0_L1D_rq_forward 0
Core_0_L1D_rq_merged 4385459
Core_0_L1D_rq_to_cache 7199320
Core_0_L1D_rq_full 0

Core_0_L1D_wq_access 920792
Core_0_L1D_wq_forward 4
Core_0_L1D_wq_merged 8948
Core_0_L1D_wq_to_cache 911844
Core_0_L1D_wq_full 8079

Core_0_L1D_pq_access 0
Core_0_L1D_pq_forward 0
Core_0_L1D_pq_merged 0
Core_0_L1D_pq_to_cache 0
Core_0_L1D_pq_full 0

Core_0_L1D_acc_epochs 54414
Core_0_L1D_acc_level_0 54414
Core_0_L1D_acc_level_1 0
Core_0_L1D_acc_level_2 0
Core_0_L1D_acc_level_3 0
Core_0_L1D_acc_level_4 0
Core_0_L1D_acc_level_5 0
Core_0_L1D_acc_level_6 0
Core_0_L1D_acc_level_7 0
Core_0_L1D_acc_level_8 0
Core_0_L1D_acc_level_9 0

Core_0_L1I_total_access 12990326
Core_0_L1I_total_hit 12989431
Core_0_L1I_total_miss 895
Core_0_L1I_loads 12990326
Core_0_L1I_load_hit 12989431
Core_0_L1I_load_miss 895
Core_0_L1I_RFOs 0
Core_0_L1I_RFO_hit 0
Core_0_L1I_RFO_miss 0
Core_0_L1I_prefetches 0
Core_0_L1I_prefetch_hit 0
Core_0_L1I_prefetch_miss 0
Core_0_L1I_writebacks 0
Core_0_L1I_writeback_hit 0
Core_0_L1I_writeback_miss 0
Core_0_L1I_prefetch_requested 0
Core_0_L1I_prefetch_dropped 0
Core_0_L1I_prefetch_issued 0
Core_0_L1I_prefetch_filled 0
Core_0_L1I_prefetch_useful 0
Core_0_L1I_prefetch_useless 0
Core_0_L1I_prefetch_late 0
Core_0_L1I_average_miss_latency 164.13073

Core_0_L1I_rq_access 50000007
Core_0_L1I_rq_forward 0
Core_0_L1I_rq_merged 37008875
Core_0_L1I_rq_to_cache 12991132
Core_0_L1I_rq_full 0

Core_0_L1I_wq_access 0
Core_0_L1I_wq_forward 0
Core_0_L1I_wq_merged 0
Core_0_L1I_wq_to_cache 0
Core_0_L1I_wq_full 0

Core_0_L1I_pq_access 0
Core_0_L1I_pq_forward 0
Core_0_L1I_pq_merged 0
Core_0_L1I_pq_to_cache 0
Core_0_L1I_pq_full 0

Core_0_L1I_acc_epochs 54414
Core_0_L1I_acc_level_0 54414
Core_0_L1I_acc_level_1 0
Core_0_L1I_acc_level_2 0
Core_0_L1I_acc_level_3 0
Core_0_L1I_acc_level_4 0
Core_0_L1I_acc_level_5 0
Core_0_L1I_acc_level_6 0
Core_0_L1I_acc_level_7 0
Core_0_L1I_acc_level_8 0
Core_0_L1I_acc_level_9 0

Core_0_L2C_total_access 740857
Core_0_L2C_total_hit 133566
Core_0_L2C_total_miss 607291
Core_0_L2C_loads 604096
Core_0_L2C_load_hit 58124
Core_0_L2C_load_miss 545972
Core_0_L2C_RFOs 66866
Core_0_L2C_RFO_hit 5673
Core_0_L2C_RFO_miss 61193
Core_0_L2C_prefetches 0
Core_0_L2C_prefetch_hit 0
Core_0_L2C_prefetch_miss 0
Core_0_L2C_writebacks 69895
Core_0_L2C_writeback_hit 69769
Core_0_L2C_writeback_miss 126
Core_0_L2C_prefetch_requested 0
Core_0_L2C_prefetch_dropped 0
Core_0_L2C_prefetch_issued 0
Core_0_L2C_prefetch_filled 0
Core_0_L2C_prefetch_useful 0
Core_0_L2C_prefetch_useless 0
Core_0_L2C_prefetch_late 0
Core_0_L2C_average_miss_latency 60.68524

Core_0_L2C_rq_access 670962
Core_0_L2C_rq_forward 0
Core_0_L2C_rq_merged 0
Core_0_L2C_rq_to_cache 670962
Core_0_L2C_rq_full 0

Core_0_L2C_wq_access 69895
Core_0_L2C_wq_forward 0
Core_0_L2C_wq_merged 0
Core_0_L2C_wq_to_cache 69895
Core_0_L2C_wq_full 0

Core_0_L2C_pq_access 0
Core_0_L2C_pq_forward 0
Core_0_L2C_pq_merged 0
Core_0_L2C_pq_to_cache 0
Core_0_L2C_pq_full 0

Core_0_L2C_acc_epochs 54414
Core_0_L2C_acc_level_0 54414
Core_0_L2C_acc_level_1 0
Core_0_L2C_acc_level_2 0
Core_0_L2C_acc_level_3 0
Core_0_L2C_acc_level_4 0
Core_0_L2C_acc_level_5 0
Core_0_L2C_acc_level_6 0
Core_0_L2C_acc_level_7 0
Core_0_L2C_acc_level_8 0
Core_0_L2C_acc_level_9 0

Core_0_LLC_total_access 670657
Core_0_LLC_total_hit 498741
Core_0_LLC_total_miss 171916
Core_0_LLC_loads 545972
Core_0_LLC_load_hit 376677
Core_0_LLC_load_miss 169295
Core_0_LLC_RFOs 61193
Core_0_LLC_RFO_hit 58993
Core_0_LLC_RFO_miss 2200
Core_0_LLC_prefetches 0
Core_0_LLC_prefetch_hit 0
Core_0_LLC_prefetch_miss 0
Core_0_LLC_writebacks 63492
Core_0_LLC_writeback_hit 63071
Core_0_LLC_writeback_miss 421
Core_0_LLC_prefetch_requested 0
Core_0_LLC_prefetch_dropped 0
Core_0_LLC_prefetch_issued 0
Core_0_LLC_prefetch_filled 0
Core_0_LLC_prefetch_useful 0
Core_0_LLC_prefetch_useless 0
Core_0_LLC_prefetch_late 0
Core_0_LLC_average_miss_latency 108.39031

Core_0_LLC_rq_access 607165
Core_0_LLC_rq_forward 0
Core_0_LLC_rq_merged 0
Core_0_LLC_rq_to_cache 607165
Core_0_LLC_rq_full 0

Core_0_LLC_wq_access 63492
Core_0_LLC_wq_forward 0
Core_0_LLC_wq_merged 0
Core_0_LLC_wq_to_cache 63492
Core_0_LLC_wq_full 0

Core_0_LLC_pq_access 0
Core_0_LLC_pq_forward 0
Core_0_LLC_pq_merged 0
Core_0_LLC_pq_to_cache 0
Core_0_LLC_pq_full 0

Core_0_LLC_acc_epochs 54437
Core_0_LLC_acc_level_0 54437
Core_0_LLC_acc_level_1 0
Core_0_LLC_acc_level_2 0
Core_0_LLC_acc_level_3 0
Core_0_LLC_acc_level_4 0
Core_0_LLC_acc_level_5 0
Core_0_LLC_acc_level_6 0
Core_0_LLC_acc_level_7 0
Core_0_LLC_acc_level_8 0
Core_0_LLC_acc_level_9 0

Core_0_major_page_fault 0
Core_0_minor_page_fault 2334

Channel_0_RQ_row_buffer_hit 129325
Channel_0_RQ_row_buffer_miss 42170
Channel_0_WQ_row_buffer_hit 1210
Channel_0_WQ_row_buffer_miss 1117
Channel_0_WQ_full 0
Channel_0_dbus_congested 15238

avg_congested_cycle 8

DRAM_bw_pochs 217747
DRAM_bw_level_0 204890
DRAM_bw_level_1 12753
DRAM_bw_level_2 29
DRAM_bw_level_3 75
