*************************************************
   ChampSim Multicore Out-of-Order Simulator
   Last compiled: Apr  3 2025 20:54:34
*************************************************
parsing config file: /home/zir/Pythia/config/pythia.ini

trace_0 /home/zir/ChampSim/ML-DPC/ChampSimTraces/spec06/471.omnetpp-s0.trace.gz
adding L2C_PREFETCHER: Scooby
Initialize SHIP state
warmup_instructions 10000000
simulation_instructions 50000000
champsim_seed 163
measure_ipc 0
measure_ipc_epoch 1000
measure_dram_bw 1
measure_dram_bw_epoch 256
measure_cache_acc 1
measure_cache_acc_epoch 1024
l1d_perfect 0
l2c_perfect 0
llc_perfect 0
l1d_semi_perfect 0
l2c_semi_perfect 0
llc_semi_perfect 0
semi_perfect_cache_page_buffer_size 64

num_cpus 1
cpu_freq 4000
dram_io_freq 2400
page_size 4096
block_size 64
max_read_per_cycle 8
max_fill_per_cycle 1
dram_channels 1
log2_dram_channels 0
dram_ranks 1
dram_banks 8
dram_rows 65536
dram_columns 128
dram_row_size 8
dram_size 4096
dram_pages 1048576

fetch_width 6
decode_width 6
exec_width 4
lq_width 2
sq_width 2
retire_width 4
scheduler_size 128
branch_mispredict_penalty 20
rob_size 256
lq_size 72
sq_size 56
num_instr_destinations_sparc 4
num_instr_destinations 2
num_instr_sources 4

itlb_set 16
itlb_way 8
itlb_rq_size 16
itlb_wq_size 16
itlb_pq_size 0
itlb_mshr_size 8
itlb_latency 1

dtlb_set 16
dtlb_way 4
dtlb_rq_size 16
dtlb_wq_size 16
dtlb_pq_size 0
dtlb_mshr_size 8
dtlb_latency 1

stlb_set 128
stlb_way 12
stlb_rq_size 32
stlb_wq_size 32
stlb_pq_size 0
stlb_mshr_size 16
stlb_latency 8

l1i_size 32
l1i_set 64
l1i_way 8
l1i_rq_size 64
l1i_wq_size 64
l1i_pq_size 8
l1i_mshr_size 8
l1i_latency 1

l1d_size 32
l1d_set 64
l1d_way 8
l1d_rq_size 64
l1d_wq_size 64
l1d_pq_size 8
l1d_mshr_size 16
l1d_latency 4

l2c_size 256
l2c_set 512
l2c_way 8
l2c_rq_size 32
l2c_wq_size 32
l2c_pq_size 32
l2c_mshr_size 32
l2c_latency 10

llc_size 2048
llc_set 2048
llc_way 16
llc_rq_size 32
llc_wq_size 32
llc_pq_size 32
llc_mshr_size 64
llc_latency 20

dram_channel_width 8
dram_wq_size 64
dram_rq_size 64
tRP 15
tRCD 15
tCAS 12.5
dram_dbus_turn_around_time 30
dram_write_high_wm 56
dram_write_low_wm 48
min_dram_writes_per_switch 16
dram_mtps 2400
dram_dbus_return_time 13

scooby_alpha 0.0065088
scooby_gamma 0.556301
scooby_epsilon 0.00182284
scooby_state_num_bits 10
scooby_max_states 1024
scooby_seed 200
scooby_policy EGreedy
scooby_learning_type SARSA
scooby_actions 1,3,4,5,10,11,12,22,23,30,32,-1,-3,-6,0,
scooby_max_actions 15
scooby_pt_size 256
scooby_st_size 64
scooby_max_pcs 5
scooby_max_offsets 5
scooby_max_deltas 5
scooby_reward_none -4
scooby_reward_incorrect -8
scooby_reward_correct_untimely 12
scooby_reward_correct_timely 20
scooby_brain_zero_init 0
scooby_enable_reward_all 0
scooby_enable_track_multiple 0
scooby_enable_reward_out_of_bounds 1
scooby_reward_out_of_bounds -12
scooby_state_type 1
scooby_state_hash_type 11
scooby_access_debug 0
scooby_print_access_debug 0
scooby_print_access_debug_pc deadbeef
scooby_print_access_debug_pc_count 0
scooby_print_trace 0
scooby_enable_state_action_stats 1
scooby_enable_reward_tracker_hit 0
scooby_reward_tracker_hit -2
scooby_enable_featurewise_engine 1
scooby_pref_degree 1
scooby_enable_dyn_degree 1
scooby_max_to_avg_q_thresholds 0.5,1,2,
scooby_dyn_degrees 1,2,4,4,
scooby_multi_deg_select_type 2
scooby_last_pref_offset_conf_thresholds 1,3,8,
scooby_dyn_degrees_type2 1,2,4,6,
scooby_action_tracker_size 2
scooby_high_bw_thresh 4
scooby_enable_hbw_reward 1
scooby_reward_hbw_correct_timely 20
scooby_reward_hbw_correct_untimely 12
scooby_reward_hbw_incorrect -14
scooby_reward_hbw_none -2
scooby_reward_hbw_out_of_bounds -12
scooby_reward_hbw_tracker_hit -2
scooby_last_pref_offset_conf_thresholds_hbw 1,3,8,
scooby_dyn_degrees_type2_hbw 1,2,4,6,

le_enable_trace 0
le_trace_interval 0
le_trace_file_name 
le_trace_state 0
le_enable_score_plot 0
le_plot_file_name 
le_plot_actions 
le_enable_action_trace 0
le_action_trace_interval 0
le_action_trace_name 
le_enable_action_plot 0

le_featurewise_active_features PC, PC_Delta
le_featurewise_num_tilings 3,3,
le_featurewise_num_tiles 128,128,
le_featurewise_hash_types 2,2,
le_featurewise_enable_tiling_offset 1,1,
le_featurewise_max_q_thresh 0.5
le_featurewise_enable_action_fallback 1
le_featurewise_feature_weights 1,1,
le_featurewise_enable_dynamic_weight 0
le_featurewise_weight_gradient 0.001
le_featurewise_disable_adjust_weight_all_features_align 1
le_featurewise_selective_update 0
le_featurewise_pooling_type 2
le_featurewise_enable_dyn_action_fallback 1
le_featurewise_bw_acc_check_level 1
le_featurewise_acc_thresh 2
le_featurewise_enable_trace 0
le_featurewise_trace_feature_type 0
le_featurewise_trace_feature 
le_featurewise_trace_interval 0
le_featurewise_trace_record_count 0
le_featurewise_trace_file_name 
le_featurewise_enable_score_plot 0
le_featurewise_plot_actions 
le_featurewise_plot_file_name 


Heartbeat CPU  0 instructions:    1000000 cycles:     515547 heartbeat IPC: 1.93969 cumulative IPC: 1.93969 (Simulation time: 0 hr 0 min 2 sec) 
Heartbeat CPU  0 instructions:    2000002 cycles:    1003019 heartbeat IPC: 2.05140 cumulative IPC: 1.99398 (Simulation time: 0 hr 0 min 3 sec) 
Heartbeat CPU  0 instructions:    3000001 cycles:    1529965 heartbeat IPC: 1.89773 cumulative IPC: 1.96083 (Simulation time: 0 hr 0 min 4 sec) 
Heartbeat CPU  0 instructions:    4000000 cycles:    2016186 heartbeat IPC: 2.05668 cumulative IPC: 1.98394 (Simulation time: 0 hr 0 min 5 sec) 
Heartbeat CPU  0 instructions:    5000001 cycles:    2504131 heartbeat IPC: 2.04941 cumulative IPC: 1.99670 (Simulation time: 0 hr 0 min 6 sec) 
Heartbeat CPU  0 instructions:    6000000 cycles:    2989289 heartbeat IPC: 2.06118 cumulative IPC: 2.00717 (Simulation time: 0 hr 0 min 8 sec) 
Heartbeat CPU  0 instructions:    7000002 cycles:    3477542 heartbeat IPC: 2.04812 cumulative IPC: 2.01292 (Simulation time: 0 hr 0 min 9 sec) 
Heartbeat CPU  0 instructions:    8000000 cycles:    3993548 heartbeat IPC: 1.93796 cumulative IPC: 2.00323 (Simulation time: 0 hr 0 min 10 sec) 
Heartbeat CPU  0 instructions:    9000001 cycles:    4508859 heartbeat IPC: 1.94058 cumulative IPC: 1.99607 (Simulation time: 0 hr 0 min 11 sec) 
Heartbeat CPU  0 instructions:   10000003 cycles:    5023524 heartbeat IPC: 1.94302 cumulative IPC: 1.99064 (Simulation time: 0 hr 0 min 12 sec) 

Warmup complete CPU  0 instructions:   10000003 cycles:    5023524 (Simulation time: 0 hr 0 min 12 sec) 

Heartbeat CPU  0 instructions:   11000001 cycles:    6176374 heartbeat IPC: 0.86741 cumulative IPC: 0.86741 (Simulation time: 0 hr 0 min 13 sec) 
Heartbeat CPU  0 instructions:   12000000 cycles:    7330399 heartbeat IPC: 0.86653 cumulative IPC: 0.86697 (Simulation time: 0 hr 0 min 14 sec) 
Heartbeat CPU  0 instructions:   13000000 cycles:    8505707 heartbeat IPC: 0.85084 cumulative IPC: 0.86153 (Simulation time: 0 hr 0 min 15 sec) 
Heartbeat CPU  0 instructions:   14000001 cycles:    9657191 heartbeat IPC: 0.86845 cumulative IPC: 0.86325 (Simulation time: 0 hr 0 min 17 sec) 
Heartbeat CPU  0 instructions:   15000000 cycles:   10809227 heartbeat IPC: 0.86803 cumulative IPC: 0.86420 (Simulation time: 0 hr 0 min 18 sec) 
Heartbeat CPU  0 instructions:   16000000 cycles:   11962486 heartbeat IPC: 0.86711 cumulative IPC: 0.86468 (Simulation time: 0 hr 0 min 19 sec) 
Heartbeat CPU  0 instructions:   17000000 cycles:   13118933 heartbeat IPC: 0.86472 cumulative IPC: 0.86469 (Simulation time: 0 hr 0 min 20 sec) 
Heartbeat CPU  0 instructions:   18000001 cycles:   14270740 heartbeat IPC: 0.86820 cumulative IPC: 0.86513 (Simulation time: 0 hr 0 min 22 sec) 
Heartbeat CPU  0 instructions:   19000002 cycles:   15415776 heartbeat IPC: 0.87334 cumulative IPC: 0.86603 (Simulation time: 0 hr 0 min 23 sec) 
Heartbeat CPU  0 instructions:   20000000 cycles:   18699353 heartbeat IPC: 0.30455 cumulative IPC: 0.73122 (Simulation time: 0 hr 0 min 25 sec) 
Heartbeat CPU  0 instructions:   21000000 cycles:   21205286 heartbeat IPC: 0.39905 cumulative IPC: 0.67978 (Simulation time: 0 hr 0 min 26 sec) 
Heartbeat CPU  0 instructions:   22000002 cycles:   23109095 heartbeat IPC: 0.52526 cumulative IPC: 0.66351 (Simulation time: 0 hr 0 min 28 sec) 
Heartbeat CPU  0 instructions:   23000000 cycles:   26385305 heartbeat IPC: 0.30523 cumulative IPC: 0.60856 (Simulation time: 0 hr 0 min 30 sec) 
Heartbeat CPU  0 instructions:   24000000 cycles:   29650370 heartbeat IPC: 0.30627 cumulative IPC: 0.56849 (Simulation time: 0 hr 0 min 32 sec) 
Heartbeat CPU  0 instructions:   25000001 cycles:   32303705 heartbeat IPC: 0.37688 cumulative IPC: 0.54985 (Simulation time: 0 hr 0 min 34 sec) 
Heartbeat CPU  0 instructions:   26000001 cycles:   34054885 heartbeat IPC: 0.57104 cumulative IPC: 0.55113 (Simulation time: 0 hr 0 min 35 sec) 
Heartbeat CPU  0 instructions:   27000000 cycles:   37326298 heartbeat IPC: 0.30568 cumulative IPC: 0.52627 (Simulation time: 0 hr 0 min 37 sec) 
Heartbeat CPU  0 instructions:   28000000 cycles:   40598132 heartbeat IPC: 0.30564 cumulative IPC: 0.50598 (Simulation time: 0 hr 0 min 39 sec) 
Heartbeat CPU  0 instructions:   29000000 cycles:   43420830 heartbeat IPC: 0.35427 cumulative IPC: 0.49483 (Simulation time: 0 hr 0 min 41 sec) 
Heartbeat CPU  0 instructions:   30000000 cycles:   44998002 heartbeat IPC: 0.63405 cumulative IPC: 0.50032 (Simulation time: 0 hr 0 min 42 sec) 
Heartbeat CPU  0 instructions:   31000000 cycles:   48260543 heartbeat IPC: 0.30651 cumulative IPC: 0.48569 (Simulation time: 0 hr 0 min 44 sec) 
Heartbeat CPU  0 instructions:   32000000 cycles:   51534527 heartbeat IPC: 0.30544 cumulative IPC: 0.47301 (Simulation time: 0 hr 0 min 46 sec) 
Heartbeat CPU  0 instructions:   33000001 cycles:   54541240 heartbeat IPC: 0.33259 cumulative IPC: 0.46448 (Simulation time: 0 hr 0 min 48 sec) 
Heartbeat CPU  0 instructions:   34000000 cycles:   55943723 heartbeat IPC: 0.71302 cumulative IPC: 0.47133 (Simulation time: 0 hr 0 min 49 sec) 
Heartbeat CPU  0 instructions:   35000003 cycles:   59207274 heartbeat IPC: 0.30642 cumulative IPC: 0.46139 (Simulation time: 0 hr 0 min 51 sec) 
Heartbeat CPU  0 instructions:   36000000 cycles:   62509463 heartbeat IPC: 0.30283 cumulative IPC: 0.45228 (Simulation time: 0 hr 0 min 53 sec) 
Heartbeat CPU  0 instructions:   37000001 cycles:   65420689 heartbeat IPC: 0.34350 cumulative IPC: 0.44704 (Simulation time: 0 hr 0 min 55 sec) 
Heartbeat CPU  0 instructions:   38000000 cycles:   66923983 heartbeat IPC: 0.66521 cumulative IPC: 0.45234 (Simulation time: 0 hr 0 min 57 sec) 
Heartbeat CPU  0 instructions:   39000000 cycles:   70190580 heartbeat IPC: 0.30613 cumulative IPC: 0.44501 (Simulation time: 0 hr 0 min 59 sec) 
Heartbeat CPU  0 instructions:   40000000 cycles:   73462755 heartbeat IPC: 0.30561 cumulative IPC: 0.43835 (Simulation time: 0 hr 1 min 1 sec) 
Heartbeat CPU  0 instructions:   41000002 cycles:   76269581 heartbeat IPC: 0.35628 cumulative IPC: 0.43511 (Simulation time: 0 hr 1 min 2 sec) 
Heartbeat CPU  0 instructions:   42000000 cycles:   77869028 heartbeat IPC: 0.62521 cumulative IPC: 0.43929 (Simulation time: 0 hr 1 min 4 sec) 
Heartbeat CPU  0 instructions:   43000003 cycles:   83141673 heartbeat IPC: 0.18966 cumulative IPC: 0.42244 (Simulation time: 0 hr 1 min 6 sec) 
Heartbeat CPU  0 instructions:   44000000 cycles:   84297539 heartbeat IPC: 0.86515 cumulative IPC: 0.42889 (Simulation time: 0 hr 1 min 8 sec) 
Heartbeat CPU  0 instructions:   45000003 cycles:   85450147 heartbeat IPC: 0.86760 cumulative IPC: 0.43518 (Simulation time: 0 hr 1 min 9 sec) 
Heartbeat CPU  0 instructions:   46000001 cycles:   86603337 heartbeat IPC: 0.86716 cumulative IPC: 0.44129 (Simulation time: 0 hr 1 min 10 sec) 
Heartbeat CPU  0 instructions:   47000001 cycles:   87755612 heartbeat IPC: 0.86785 cumulative IPC: 0.44723 (Simulation time: 0 hr 1 min 11 sec) 
Heartbeat CPU  0 instructions:   48000000 cycles:   88908295 heartbeat IPC: 0.86754 cumulative IPC: 0.45300 (Simulation time: 0 hr 1 min 13 sec) 
Heartbeat CPU  0 instructions:   49000000 cycles:   90060332 heartbeat IPC: 0.86803 cumulative IPC: 0.45862 (Simulation time: 0 hr 1 min 14 sec) 
Heartbeat CPU  0 instructions:   50000000 cycles:   91212405 heartbeat IPC: 0.86800 cumulative IPC: 0.46410 (Simulation time: 0 hr 1 min 15 sec) 
Heartbeat CPU  0 instructions:   51000002 cycles:   92364868 heartbeat IPC: 0.86771 cumulative IPC: 0.46942 (Simulation time: 0 hr 1 min 16 sec) 
Heartbeat CPU  0 instructions:   52000000 cycles:   93518413 heartbeat IPC: 0.86689 cumulative IPC: 0.47460 (Simulation time: 0 hr 1 min 18 sec) 
Heartbeat CPU  0 instructions:   53000001 cycles:   94673654 heartbeat IPC: 0.86562 cumulative IPC: 0.47964 (Simulation time: 0 hr 1 min 19 sec) 
Heartbeat CPU  0 instructions:   54000001 cycles:   95852240 heartbeat IPC: 0.84847 cumulative IPC: 0.48443 (Simulation time: 0 hr 1 min 20 sec) 
Heartbeat CPU  0 instructions:   55000003 cycles:   97004013 heartbeat IPC: 0.86823 cumulative IPC: 0.48923 (Simulation time: 0 hr 1 min 21 sec) 
Heartbeat CPU  0 instructions:   56000000 cycles:   99284298 heartbeat IPC: 0.43854 cumulative IPC: 0.48801 (Simulation time: 0 hr 1 min 23 sec) 
Heartbeat CPU  0 instructions:   57000003 cycles:  101394290 heartbeat IPC: 0.47394 cumulative IPC: 0.48770 (Simulation time: 0 hr 1 min 25 sec) 
Heartbeat CPU  0 instructions:   58000000 cycles:  104670554 heartbeat IPC: 0.30522 cumulative IPC: 0.48170 (Simulation time: 0 hr 1 min 27 sec) 
Heartbeat CPU  0 instructions:   59000003 cycles:  107940946 heartbeat IPC: 0.30577 cumulative IPC: 0.47611 (Simulation time: 0 hr 1 min 28 sec) 
Heartbeat CPU  0 instructions:   60000000 cycles:  110384633 heartbeat IPC: 0.40922 cumulative IPC: 0.47456 (Simulation time: 0 hr 1 min 30 sec) 
Finished CPU 0 instructions: 50000002 cycles: 105361662 cumulative IPC: 0.47456 (Simulation time: 0 hr 1 min 30 sec) 

ChampSim completed all CPUs

[ROI Statistics]
Core_0_instructions 50000002
Core_0_cycles 105361662
Core_0_IPC 0.47456

Core_0_branch_prediction_accuracy 98.37955
Core_0_branch_MPKI 5.21454
Core_0_average_ROB_occupancy_at_mispredict 124.41454

Core_0_L1D_total_access 5434474
Core_0_L1D_total_hit 4669540
Core_0_L1D_total_miss 764934
Core_0_L1D_loads 3726229
Core_0_L1D_load_hit 2967656
Core_0_L1D_load_miss 758573
Core_0_L1D_RFOs 1708245
Core_0_L1D_RFO_hit 1701884
Core_0_L1D_RFO_miss 6361
Core_0_L1D_prefetches 0
Core_0_L1D_prefetch_hit 0
Core_0_L1D_prefetch_miss 0
Core_0_L1D_writebacks 0
Core_0_L1D_writeback_hit 0
Core_0_L1D_writeback_miss 0
Core_0_L1D_prefetch_requested 0
Core_0_L1D_prefetch_dropped 0
Core_0_L1D_prefetch_issued 0
Core_0_L1D_prefetch_filled 0
Core_0_L1D_prefetch_useful 0
Core_0_L1D_prefetch_useless 0
Core_0_L1D_prefetch_late 0
Core_0_L1D_average_miss_latency 244.60170

Core_0_L1D_rq_access 4929380
Core_0_L1D_rq_forward 0
Core_0_L1D_rq_merged 1135783
Core_0_L1D_rq_to_cache 3792708
Core_0_L1D_rq_full 0

Core_0_L1D_wq_access 1722166
Core_0_L1D_wq_forward 889
Core_0_L1D_wq_merged 3982
Core_0_L1D_wq_to_cache 1718184
Core_0_L1D_wq_full 0

Core_0_L1D_pq_access 0
Core_0_L1D_pq_forward 0
Core_0_L1D_pq_merged 0
Core_0_L1D_pq_to_cache 0
Core_0_L1D_pq_full 0

Core_0_L1D_acc_epochs 63501
Core_0_L1D_acc_level_0 63501
Core_0_L1D_acc_level_1 0
Core_0_L1D_acc_level_2 0
Core_0_L1D_acc_level_3 0
Core_0_L1D_acc_level_4 0
Core_0_L1D_acc_level_5 0
Core_0_L1D_acc_level_6 0
Core_0_L1D_acc_level_7 0
Core_0_L1D_acc_level_8 0
Core_0_L1D_acc_level_9 0

Core_0_L1I_total_access 13226571
Core_0_L1I_total_hit 13224543
Core_0_L1I_total_miss 2028
Core_0_L1I_loads 13226571
Core_0_L1I_load_hit 13224543
Core_0_L1I_load_miss 2028
Core_0_L1I_RFOs 0
Core_0_L1I_RFO_hit 0
Core_0_L1I_RFO_miss 0
Core_0_L1I_prefetches 0
Core_0_L1I_prefetch_hit 0
Core_0_L1I_prefetch_miss 0
Core_0_L1I_writebacks 0
Core_0_L1I_writeback_hit 0
Core_0_L1I_writeback_miss 0
Core_0_L1I_prefetch_requested 0
Core_0_L1I_prefetch_dropped 0
Core_0_L1I_prefetch_issued 0
Core_0_L1I_prefetch_filled 0
Core_0_L1I_prefetch_useful 0
Core_0_L1I_prefetch_useless 0
Core_0_L1I_prefetch_late 0
Core_0_L1I_average_miss_latency 44.98176

Core_0_L1I_rq_access 50000193
Core_0_L1I_rq_forward 0
Core_0_L1I_rq_merged 36772481
Core_0_L1I_rq_to_cache 13227712
Core_0_L1I_rq_full 0

Core_0_L1I_wq_access 0
Core_0_L1I_wq_forward 0
Core_0_L1I_wq_merged 0
Core_0_L1I_wq_to_cache 0
Core_0_L1I_wq_full 0

Core_0_L1I_pq_access 0
Core_0_L1I_pq_forward 0
Core_0_L1I_pq_merged 0
Core_0_L1I_pq_to_cache 0
Core_0_L1I_pq_full 0

Core_0_L1I_acc_epochs 63501
Core_0_L1I_acc_level_0 63501
Core_0_L1I_acc_level_1 0
Core_0_L1I_acc_level_2 0
Core_0_L1I_acc_level_3 0
Core_0_L1I_acc_level_4 0
Core_0_L1I_acc_level_5 0
Core_0_L1I_acc_level_6 0
Core_0_L1I_acc_level_7 0
Core_0_L1I_acc_level_8 0
Core_0_L1I_acc_level_9 0

Core_0_L2C_total_access 1641421
Core_0_L2C_total_hit 441834
Core_0_L2C_total_miss 1199587
Core_0_L2C_loads 760602
Core_0_L2C_load_hit 87311
Core_0_L2C_load_miss 673291
Core_0_L2C_RFOs 6361
Core_0_L2C_RFO_hit 150
Core_0_L2C_RFO_miss 6211
Core_0_L2C_prefetches 866136
Core_0_L2C_prefetch_hit 346103
Core_0_L2C_prefetch_miss 520033
Core_0_L2C_writebacks 8322
Core_0_L2C_writeback_hit 8270
Core_0_L2C_writeback_miss 52
Core_0_L2C_prefetch_requested 1161563
Core_0_L2C_prefetch_dropped 0
Core_0_L2C_prefetch_issued 1161563
Core_0_L2C_prefetch_filled 713009
Core_0_L2C_prefetch_useful 107442
Core_0_L2C_prefetch_useless 604383
Core_0_L2C_prefetch_late 668
Core_0_L2C_average_miss_latency 191.04469

Core_0_L2C_rq_access 766966
Core_0_L2C_rq_forward 0
Core_0_L2C_rq_merged 0
Core_0_L2C_rq_to_cache 766966
Core_0_L2C_rq_full 0

Core_0_L2C_wq_access 8322
Core_0_L2C_wq_forward 0
Core_0_L2C_wq_merged 0
Core_0_L2C_wq_to_cache 8322
Core_0_L2C_wq_full 0

Core_0_L2C_pq_access 1161563
Core_0_L2C_pq_forward 0
Core_0_L2C_pq_merged 14938
Core_0_L2C_pq_to_cache 1146625
Core_0_L2C_pq_full 0

Core_0_L2C_acc_epochs 63501
Core_0_L2C_acc_level_0 49627
Core_0_L2C_acc_level_1 6463
Core_0_L2C_acc_level_2 5407
Core_0_L2C_acc_level_3 641
Core_0_L2C_acc_level_4 217
Core_0_L2C_acc_level_5 445
Core_0_L2C_acc_level_6 219
Core_0_L2C_acc_level_7 124
Core_0_L2C_acc_level_8 109
Core_0_L2C_acc_level_9 249

Core_0_LLC_total_access 1208028
Core_0_LLC_total_hit 546971
Core_0_LLC_total_miss 661057
Core_0_LLC_loads 672641
Core_0_LLC_load_hit 303254
Core_0_LLC_load_miss 369387
Core_0_LLC_RFOs 6204
Core_0_LLC_RFO_hit 1209
Core_0_LLC_RFO_miss 4995
Core_0_LLC_prefetches 520691
Core_0_LLC_prefetch_hit 235962
Core_0_LLC_prefetch_miss 284729
Core_0_LLC_writebacks 8492
Core_0_LLC_writeback_hit 6546
Core_0_LLC_writeback_miss 1946
Core_0_LLC_prefetch_requested 0
Core_0_LLC_prefetch_dropped 0
Core_0_LLC_prefetch_issued 0
Core_0_LLC_prefetch_filled 433830
Core_0_LLC_prefetch_useful 226
Core_0_LLC_prefetch_useless 418861
Core_0_LLC_prefetch_late 0
Core_0_LLC_average_miss_latency 167.02940

Core_0_LLC_rq_access 678845
Core_0_LLC_rq_forward 0
Core_0_LLC_rq_merged 0
Core_0_LLC_rq_to_cache 678845
Core_0_LLC_rq_full 0

Core_0_LLC_wq_access 8492
Core_0_LLC_wq_forward 0
Core_0_LLC_wq_merged 0
Core_0_LLC_wq_to_cache 8492
Core_0_LLC_wq_full 0

Core_0_LLC_pq_access 713679
Core_0_LLC_pq_forward 0
Core_0_LLC_pq_merged 0
Core_0_LLC_pq_to_cache 713679
Core_0_LLC_pq_full 0

Core_0_LLC_acc_epochs 107799
Core_0_LLC_acc_level_0 107612
Core_0_LLC_acc_level_1 96
Core_0_LLC_acc_level_2 56
Core_0_LLC_acc_level_3 9
Core_0_LLC_acc_level_4 0
Core_0_LLC_acc_level_5 20
Core_0_LLC_acc_level_6 1
Core_0_LLC_acc_level_7 0
Core_0_LLC_acc_level_8 0
Core_0_LLC_acc_level_9 5

Core_0_major_page_fault 0
Core_0_minor_page_fault 20533

scooby_st_lookup 962462
scooby_st_hit 379456
scooby_st_evict 582942
scooby_st_insert 583006
scooby_st_streaming 0

scooby_predict_called 962462
scooby_predict_out_of_bounds 21602
scooby_predict_action_1 687388
scooby_predict_issue_action_1 685901
scooby_predict_hit_action_1 1487
scooby_predict_out_of_bounds_action_1 10901
scooby_predict_action_3 3798
scooby_predict_issue_action_3 3607
scooby_predict_hit_action_3 191
scooby_predict_out_of_bounds_action_3 360
scooby_predict_action_4 3846
scooby_predict_issue_action_4 3714
scooby_predict_hit_action_4 132
scooby_predict_out_of_bounds_action_4 421
scooby_predict_action_5 3577
scooby_predict_issue_action_5 3429
scooby_predict_hit_action_5 148
scooby_predict_out_of_bounds_action_5 541
scooby_predict_action_10 2169
scooby_predict_issue_action_10 2151
scooby_predict_hit_action_10 18
scooby_predict_out_of_bounds_action_10 849
scooby_predict_action_11 1997
scooby_predict_issue_action_11 1968
scooby_predict_hit_action_11 29
scooby_predict_out_of_bounds_action_11 925
scooby_predict_action_12 1942
scooby_predict_issue_action_12 1933
scooby_predict_hit_action_12 9
scooby_predict_out_of_bounds_action_12 939
scooby_predict_action_22 1128
scooby_predict_issue_action_22 1107
scooby_predict_hit_action_22 21
scooby_predict_out_of_bounds_action_22 1488
scooby_predict_action_23 1046
scooby_predict_issue_action_23 1028
scooby_predict_hit_action_23 18
scooby_predict_out_of_bounds_action_23 1466
scooby_predict_action_30 783
scooby_predict_issue_action_30 759
scooby_predict_hit_action_30 24
scooby_predict_out_of_bounds_action_30 1708
scooby_predict_action_32 736
scooby_predict_issue_action_32 667
scooby_predict_hit_action_32 69
scooby_predict_out_of_bounds_action_32 1803
scooby_predict_action_-1 3538
scooby_predict_issue_action_-1 3423
scooby_predict_hit_action_-1 115
scooby_predict_out_of_bounds_action_-1 26
scooby_predict_action_-3 3414
scooby_predict_issue_action_-3 3362
scooby_predict_hit_action_-3 52
scooby_predict_out_of_bounds_action_-3 52
scooby_predict_action_-6 3370
scooby_predict_issue_action_-6 3330
scooby_predict_hit_action_-6 40
scooby_predict_out_of_bounds_action_-6 123
scooby_predict_action_0 222128
scooby_predict_issue_action_0 0
scooby_predict_hit_action_0 0
scooby_predict_out_of_bounds_action_0 0
scooby_predict_multi_deg_called 101313
scooby_predict_predicted 1161563
scooby_predict_multi_deg 445184
scooby_predict_multi_deg_2 99551
scooby_predict_multi_deg_3 93525
scooby_predict_multi_deg_4 91823
scooby_predict_multi_deg_5 80951
scooby_predict_multi_deg_6 79334
scooby_predict_multi_deg_7 0
scooby_predict_multi_deg_8 0
scooby_predict_multi_deg_9 0
scooby_predict_multi_deg_10 0
scooby_predict_multi_deg_11 0
scooby_predict_multi_deg_12 0
scooby_predict_multi_deg_13 0
scooby_predict_multi_deg_14 0
scooby_predict_multi_deg_15 0
scooby_predict_multi_deg_16 0

scooby_selected_deg_1 615066
scooby_selected_deg_2 4342
scooby_selected_deg_3 0
scooby_selected_deg_4 9504
scooby_selected_deg_5 0
scooby_selected_deg_6 87467
scooby_selected_deg_7 0
scooby_selected_deg_8 0
scooby_selected_deg_9 0
scooby_selected_deg_10 0
scooby_selected_deg_11 0
scooby_selected_deg_12 0
scooby_selected_deg_13 0
scooby_selected_deg_14 0
scooby_selected_deg_15 0
scooby_selected_deg_16 0

scooby_state_4540eb|9|0 9501,10,11,5,9,9,6,9,6,6,5,8,11,5,3859,13460,
scooby_state_4540eb|3|0 9073,11,8,10,4,8,8,7,11,9,9,5,5,6,3931,13105,
scooby_state_4540eb|12|0 9074,5,5,10,9,7,8,7,3,11,6,9,7,5,3759,12925,
scooby_state_4540eb|20|0 8953,6,7,12,4,11,12,7,5,7,8,5,8,4,3825,12874,
scooby_state_4540eb|1|0 9041,11,10,9,10,8,5,6,5,7,6,9,9,9,3624,12769,
scooby_state_4540eb|16|0 8731,8,5,12,5,9,5,6,6,8,10,7,8,4,3618,12442,
scooby_state_4540eb|15|0 8570,10,7,12,7,9,7,6,7,7,1,7,9,9,3739,12407,
scooby_state_4540eb|14|0 8539,6,7,15,12,11,9,3,6,10,6,8,7,8,3740,12387,
scooby_state_4540eb|8|0 8547,13,13,6,5,8,7,8,7,8,9,10,10,18,3681,12350,
scooby_state_4540eb|2|0 8630,13,8,8,6,8,8,6,7,4,3,7,3,2,3595,12308,
scooby_state_4540eb|0|0 8450,9,5,15,7,6,5,4,8,5,6,9,7,11,3541,12088,
scooby_state_4540eb|19|0 8414,3,5,9,9,4,5,9,4,6,8,4,8,5,3561,12054,
scooby_state_4540eb|6|0 8502,9,8,8,5,6,7,5,11,5,2,6,5,5,3463,12047,
scooby_state_4540eb|13|0 8242,6,8,13,6,8,9,6,6,13,5,6,5,11,3660,12004,
scooby_state_4540eb|11|0 8193,3,5,5,4,3,7,6,6,4,7,4,8,8,3719,11982,
scooby_state_4540eb|17|0 8241,11,5,8,7,2,6,4,11,6,3,8,7,5,3612,11936,
scooby_state_4540eb|5|0 8185,4,5,7,5,5,4,3,6,13,3,8,9,4,3423,11684,
scooby_state_4540eb|18|0 7943,1,1,7,3,8,7,7,8,6,0,6,5,9,3658,11669,
scooby_state_4540eb|7|0 8033,5,9,10,4,8,6,10,2,10,6,7,8,6,3487,11611,
scooby_state_4540eb|4|0 8086,6,10,4,9,4,8,7,4,7,4,6,8,8,3121,11292,
scooby_state_4540eb|10|0 7524,5,8,7,6,2,6,4,5,6,4,4,6,4,3295,10886,
scooby_state_4540eb|23|0 7419,2,3,12,8,4,8,5,5,9,4,7,7,5,3344,10842,
scooby_state_4540eb|21|0 7473,4,3,7,8,7,6,7,9,3,3,1,6,2,3279,10818,
scooby_state_4540eb|28|0 7391,6,6,9,5,7,2,7,4,12,3,6,4,4,3089,10555,
scooby_state_4540eb|26|0 7204,4,4,6,5,5,5,6,5,2,6,2,8,6,3284,10552,
scooby_state_4540eb|25|0 7215,2,6,5,3,4,5,5,5,5,6,8,7,6,3008,10290,
scooby_state_4540eb|27|0 6866,9,8,10,8,4,3,6,4,8,6,5,9,8,3140,10094,
scooby_state_4540eb|24|0 6894,3,2,4,3,4,3,5,6,8,6,1,4,3,3128,10074,
scooby_state_4540eb|29|0 6782,6,6,9,7,7,7,3,8,14,6,7,4,7,3035,9908,
scooby_state_4540eb|22|0 6611,4,5,10,6,2,8,4,4,9,4,4,6,4,3003,9684,
scooby_state_4540eb|30|0 6326,4,7,5,5,3,4,4,5,8,3,5,2,5,2661,9047,
scooby_state_4540eb|34|0 6225,10,6,7,3,5,5,4,5,7,6,5,9,8,2401,8706,
scooby_state_4540eb|33|0 5747,4,4,5,3,3,5,10,3,5,4,3,7,6,2533,8342,
scooby_state_4540eb|32|0 5783,6,3,3,6,7,2,2,6,3,2,7,6,5,2476,8317,
scooby_state_4540eb|37|0 5810,4,5,4,3,1,5,3,3,10,1,7,3,3,2447,8309,
scooby_state_4540eb|35|0 5843,7,6,6,4,4,3,6,5,5,2,3,6,4,2330,8234,
scooby_state_4540eb|36|0 5634,5,5,3,4,6,2,3,3,7,6,3,10,3,2392,8086,
scooby_state_4540eb|31|0 5517,3,4,7,4,4,6,3,2,3,5,5,3,6,2501,8073,
scooby_state_4540eb|38|0 5637,2,3,7,3,6,4,8,4,7,4,4,7,5,2279,7980,
scooby_state_4540eb|39|0 5413,2,1,6,7,2,1,1,6,4,3,5,1,7,2470,7929,
scooby_state_4540eb|40|0 4697,7,7,4,5,5,3,2,2,3,4,7,4,2,1962,6714,
scooby_state_4540eb|42|0 4576,3,2,5,2,5,4,2,4,2,4,7,3,5,1918,6542,
scooby_state_4540eb|45|0 4356,4,5,0,3,2,3,3,3,1,0,3,1,2,1755,6141,
scooby_state_4540eb|41|0 4037,3,4,3,4,3,5,3,1,2,4,5,4,6,1863,5947,
scooby_state_4540eb|43|0 4102,5,3,1,3,4,4,2,4,5,1,5,1,4,1671,5815,
scooby_state_4540eb|44|0 3790,3,2,2,4,2,1,6,3,0,3,3,2,3,1638,5462,
scooby_state_4540eb|57|0 3182,5,4,2,5,3,2,4,3,3,1,5,3,2,1362,4586,
scooby_state_4540eb|46|0 3170,7,3,5,0,1,4,1,2,5,3,1,2,0,1235,4439,
scooby_state_4540eb|63|0 3057,1,4,2,4,1,3,2,1,0,4,3,4,2,1334,4422,
scooby_state_4540eb|50|0 2988,1,2,3,2,2,2,3,1,3,2,2,3,2,1281,4297,
scooby_state_4540eb|48|0 3094,1,0,2,2,1,2,2,1,4,3,1,1,2,1142,4258,
scooby_state_4540eb|51|0 3007,2,2,2,4,2,1,3,0,1,2,2,4,3,1176,4211,
scooby_state_4540eb|58|0 3038,4,3,5,2,4,3,1,1,6,1,2,1,2,1107,4180,
scooby_state_4540eb|53|0 2940,1,0,4,3,2,3,3,2,3,3,3,3,3,1186,4159,
scooby_state_4540eb|56|0 3041,0,1,2,2,0,1,3,3,3,1,1,1,1,1094,4154,
scooby_state_4540eb|47|0 3074,1,1,0,3,2,1,1,2,1,3,3,4,2,1034,4132,
scooby_state_4540eb|55|0 2909,2,0,3,1,5,0,3,3,4,2,3,4,1,1185,4125,
scooby_state_4540eb|60|0 2757,3,0,3,3,1,2,1,1,3,1,2,1,1,1115,3894,
scooby_state_4540eb|62|0 2808,2,1,1,0,1,2,2,1,2,1,0,1,4,1046,3872,
scooby_state_4540eb|54|0 2649,3,0,1,4,0,1,1,3,3,1,2,3,2,1168,3841,
scooby_state_4540eb|52|0 2549,3,2,6,3,1,1,3,2,7,2,3,2,5,1188,3777,
scooby_state_4540eb|61|0 2721,1,0,5,2,0,1,2,1,1,1,4,1,2,967,3709,
scooby_state_4540eb|59|0 2700,2,3,2,2,1,2,0,1,1,1,2,1,4,977,3699,
scooby_state_4540eb|49|0 2496,2,1,4,2,4,1,1,5,4,3,1,0,1,919,3444,
scooby_state_4540eb|58|46 1332,7,15,10,8,10,9,6,4,4,14,11,15,21,676,2142,
scooby_state_4540eb|47|46 1375,5,9,11,10,9,11,13,5,9,2,10,16,10,539,2034,
scooby_state_4540eb|51|46 1375,9,9,14,7,5,10,7,4,6,9,6,6,12,498,1977,
scooby_state_4540eb|27|21 1356,6,3,4,9,4,8,4,3,2,9,5,4,4,473,1894,
scooby_state_4540eb|60|46 1272,18,9,7,11,7,7,5,7,5,8,16,8,9,500,1889,
scooby_state_4540eb|49|46 1276,9,8,12,11,6,7,7,12,5,4,5,10,10,480,1862,
scooby_state_4540eb|54|46 1194,11,11,13,6,8,9,3,8,13,6,15,11,11,540,1859,
scooby_state_4540eb|55|46 1173,8,10,7,9,5,8,3,7,7,4,9,13,11,529,1803,
scooby_state_4540eb|61|46 1187,8,10,15,9,10,10,5,9,6,7,11,8,10,497,1802,
scooby_state_4540eb|57|46 1140,8,8,7,5,14,8,3,5,8,8,13,19,7,529,1782,
scooby_state_4540eb|46|46 1158,15,10,7,6,7,8,7,6,4,5,11,10,13,456,1723,
scooby_state_4540eb|62|46 1130,6,11,9,8,6,5,11,8,7,8,9,17,7,473,1715,
scooby_state_4540eb|53|46 1139,6,5,7,7,4,10,9,3,6,7,6,6,9,490,1714,
scooby_state_4540eb|63|46 1162,9,8,2,6,5,2,7,2,5,6,14,5,5,450,1688,
scooby_state_4540eb|35|21 1081,2,3,3,1,5,4,5,4,3,3,3,8,6,497,1628,
scooby_state_4540eb|46|21 1146,5,7,4,3,3,5,2,1,4,2,4,1,7,414,1608,
scooby_state_4540eb|40|31 1091,10,5,5,12,2,5,10,5,5,2,4,12,8,429,1605,
scooby_state_4540eb|52|46 1019,8,4,10,9,4,10,0,7,5,6,8,8,7,460,1565,
scooby_state_4540eb|40|21 1079,5,4,1,5,3,5,5,4,6,3,5,5,3,424,1557,
scooby_state_4540eb|48|46 1117,10,8,2,7,8,5,3,6,4,7,9,4,7,355,1552,
scooby_state_4540e3|54|1 1543,0,0,0,0,0,1,0,0,1,1,0,0,2,1,1549,
scooby_state_4540e3|53|1 1545,0,0,0,1,1,1,1,0,0,0,0,0,0,0,1549,
scooby_state_4540e3|55|1 1544,0,0,0,0,0,0,0,0,0,1,1,1,0,0,1547,
scooby_state_4540e3|56|1 1546,0,0,0,0,0,0,0,0,0,0,0,0,0,0,1546,
scooby_state_4540e3|5|1 1543,0,0,1,0,1,0,0,0,1,0,0,0,0,0,1546,
scooby_state_4540e3|2|1 1543,0,1,0,0,0,0,0,0,2,0,0,0,0,0,1546,
scooby_state_4540eb|21|21 1040,5,4,9,2,4,3,6,5,5,1,6,1,5,450,1546,
scooby_state_4540e3|57|1 1544,0,0,0,1,0,0,0,0,0,1,0,0,0,0,1546,
scooby_state_4540e3|3|1 1541,0,0,0,0,1,1,0,0,0,0,1,0,0,2,1546,
scooby_state_4540e3|62|1 1543,1,0,0,0,0,0,0,0,0,0,0,1,0,1,1546,
scooby_state_4540e3|58|1 1541,1,1,0,1,0,0,0,0,0,0,1,0,1,0,1546,
scooby_state_4540e3|4|1 1545,0,0,0,0,0,1,0,0,0,0,0,0,0,0,1546,
scooby_state_4540e3|61|1 1542,0,0,1,0,0,0,0,1,0,0,0,1,0,1,1546,
scooby_state_4540e3|59|1 1542,0,0,0,1,0,0,0,0,0,0,0,2,1,0,1546,
scooby_state_4540e3|1|1 1544,0,0,0,0,0,1,0,0,0,0,0,1,0,0,1546,
scooby_state_4540e3|0|0 1543,0,1,0,0,1,0,0,0,1,0,0,0,0,0,1546,
scooby_state_4540e3|63|1 1541,0,0,2,0,1,0,2,0,0,0,0,0,0,0,1546,
scooby_state_4540e3|60|1 1543,0,0,0,0,0,0,0,0,0,1,0,1,1,0,1546,
scooby_state_4540e3|30|1 1540,1,1,0,1,1,0,0,0,1,0,0,0,0,0,1545,
scooby_state_4540e3|25|1 1543,0,1,0,0,0,0,1,0,0,0,0,0,0,0,1545,
scooby_state_4540e3|35|1 1542,0,0,0,1,0,0,0,0,0,0,0,1,1,0,1545,
scooby_state_4540e3|18|1 1542,0,0,0,0,0,0,0,0,0,1,0,0,1,1,1545,
scooby_state_4540e3|19|1 1545,0,0,0,0,0,0,0,0,0,0,0,0,0,0,1545,
scooby_state_4540e3|36|1 1544,0,0,0,0,0,0,0,0,0,1,0,0,0,0,1545,
scooby_state_4540e3|23|1 1540,1,0,1,0,0,0,1,0,0,1,0,0,0,1,1545,
scooby_state_4540e3|32|1 1540,1,0,2,0,0,0,0,0,2,0,0,0,0,0,1545,
scooby_state_4540e3|28|1 1541,1,1,0,0,0,1,1,0,0,0,0,0,0,0,1545,
scooby_state_4540e3|9|1 1543,0,0,0,0,0,0,0,0,0,0,1,0,1,0,1545,
scooby_state_4540e3|12|1 1542,0,1,1,0,0,1,0,0,0,0,0,0,0,0,1545,
scooby_state_4540e3|6|1 1544,0,0,0,0,0,0,0,0,0,0,0,1,0,0,1545,
scooby_state_4540e3|8|1 1544,1,0,0,0,0,0,0,0,0,0,0,0,0,0,1545,
scooby_state_4540e3|29|1 1543,0,0,0,1,0,0,0,0,1,0,0,0,0,0,1545,
scooby_state_4540e3|20|1 1543,0,0,0,0,1,0,0,0,0,0,1,0,0,0,1545,
scooby_state_4540e3|13|1 1540,0,1,0,0,2,0,0,0,2,0,0,0,0,0,1545,
scooby_state_4540e3|17|1 1543,0,0,2,0,0,0,0,0,0,0,0,0,0,0,1545,
scooby_state_4540e3|10|1 1542,0,0,0,0,1,0,0,0,0,0,1,1,0,0,1545,
scooby_state_4540e3|21|1 1543,0,0,0,0,1,0,0,0,0,0,0,0,0,1,1545,
scooby_state_4540e3|33|1 1543,1,0,0,0,0,0,1,0,0,0,0,0,0,0,1545,
scooby_state_4540e3|11|1 1543,0,0,0,0,0,0,1,1,0,0,0,0,0,0,1545,
scooby_state_4540e3|24|1 1543,0,0,0,1,1,0,0,0,0,0,0,0,0,0,1545,
scooby_state_4540e3|15|1 1545,0,0,0,0,0,0,0,0,0,0,0,0,0,0,1545,
scooby_state_4540e3|27|1 1542,1,0,0,0,0,0,0,0,0,1,0,0,0,1,1545,
scooby_state_4540e3|14|1 1545,0,0,0,0,0,0,0,0,0,0,0,0,0,0,1545,
scooby_state_4540e3|16|1 1542,0,0,0,0,0,0,1,1,0,0,0,0,0,1,1545,
scooby_state_4540e3|7|1 1541,1,0,0,0,0,0,1,0,1,0,1,0,0,0,1545,
scooby_state_4540e3|34|1 1543,0,1,0,0,0,0,0,0,0,0,0,0,1,0,1545,
scooby_state_4540e3|26|1 1541,0,0,0,0,0,0,0,2,1,1,0,0,0,0,1545,
scooby_state_4540e3|31|1 1540,0,0,0,0,0,1,0,0,0,0,1,0,3,0,1545,
scooby_state_4540e3|22|1 1543,0,1,0,0,0,0,0,0,0,1,0,0,0,0,1545,
scooby_state_4540e3|37|1 1541,0,1,0,0,0,1,0,1,0,0,0,0,0,0,1544,
scooby_state_4540e3|38|1 1538,1,0,0,1,0,0,0,1,0,0,1,0,0,0,1542,
scooby_state_4540e3|39|1 1540,0,0,0,0,0,0,0,0,0,0,0,1,0,0,1541,
scooby_state_4540e3|41|1 1537,0,0,0,0,0,0,1,0,1,0,0,0,0,0,1539,
scooby_state_4540e3|40|1 1529,1,1,0,0,1,0,1,2,1,1,1,1,0,0,1539,
scooby_state_4540e3|42|1 1535,0,0,0,0,1,0,0,0,0,0,0,1,0,0,1537,
scooby_state_4540e3|43|1 1536,0,0,0,0,0,0,0,0,0,0,0,0,0,0,1536,
scooby_state_4540e3|44|1 1530,0,0,0,0,0,2,0,1,0,0,0,0,0,1,1534,
scooby_state_4540e3|45|1 1530,1,0,0,0,0,0,1,1,0,0,0,0,0,0,1533,
scooby_state_4540e3|46|1 1527,0,1,1,0,0,0,1,1,0,0,0,0,0,0,1531,
scooby_state_4540e3|47|1 1528,0,1,0,0,0,0,0,0,0,0,0,0,0,0,1529,
scooby_state_4540e3|48|1 1524,0,1,0,0,1,1,1,0,0,0,0,0,0,0,1528,
scooby_state_4540e3|49|1 1522,2,0,0,0,0,1,0,1,0,0,0,0,0,0,1526,
scooby_state_4540e3|50|1 1523,0,0,0,0,1,0,1,0,0,0,0,0,0,0,1525,
scooby_state_4540e3|51|1 1518,0,0,0,1,0,0,0,0,1,2,1,0,0,0,1523,
scooby_state_4540e3|52|1 1519,0,1,0,0,0,1,0,0,1,0,0,0,0,0,1522,
scooby_state_4540eb|59|46 1006,8,13,6,10,6,2,5,3,7,5,7,5,7,424,1514,
scooby_state_4540eb|60|21 997,6,3,3,2,3,4,5,5,2,3,5,6,6,455,1505,
scooby_state_4540eb|42|21 991,4,3,2,0,4,6,5,3,1,4,6,6,5,457,1497,
scooby_state_4540eb|53|21 1034,2,5,2,6,1,7,2,1,3,6,4,7,5,404,1489,
scooby_state_4540eb|24|21 938,4,3,3,5,3,3,1,1,4,4,10,3,1,505,1488,
scooby_state_4540eb|49|41 1030,5,5,8,8,14,3,6,5,4,5,11,6,10,367,1487,
scooby_state_4540eb|56|46 963,9,10,5,2,11,6,8,2,8,3,13,9,11,425,1485,
scooby_state_4540eb|41|21 943,7,6,5,6,7,3,4,7,1,2,1,8,2,456,1458,
scooby_state_4540eb|33|31 1019,6,4,2,6,6,6,4,2,3,1,7,5,5,381,1457,
scooby_state_4540eb|54|21 984,6,1,2,4,4,5,1,3,3,6,6,5,9,417,1456,
scooby_state_4540eb|36|21 974,3,4,5,4,2,2,5,1,4,2,1,3,6,439,1455,
scooby_state_4540eb|57|21 985,6,3,7,2,2,4,1,2,2,1,3,5,2,425,1450,
scooby_state_4540eb|45|21 917,3,4,6,3,3,0,6,4,4,4,4,3,4,483,1448,
scooby_state_4540eb|50|46 960,3,11,3,6,8,3,7,9,3,6,5,16,13,386,1439,
scooby_state_4540eb|63|21 936,1,6,3,5,4,1,0,2,3,2,7,7,1,457,1435,
scooby_state_4540eb|48|21 935,3,3,3,4,4,4,3,3,2,2,2,5,3,455,1431,
scooby_state_4540eb|58|21 955,2,4,6,3,4,3,3,3,7,4,3,2,6,425,1430,
scooby_state_4540eb|32|21 963,3,3,5,2,4,3,2,4,2,3,7,4,5,419,1429,
scooby_state_4540eb|34|21 900,3,8,6,1,3,3,5,2,3,1,5,6,4,448,1398,
scooby_state_4540eb|47|21 892,6,4,3,4,2,2,1,2,2,3,6,6,8,456,1397,
scooby_state_4540eb|50|21 853,3,1,3,3,3,3,7,3,2,2,5,8,4,497,1397,
scooby_state_4540eb|25|21 909,4,2,4,6,5,3,0,3,2,4,3,4,4,428,1381,
scooby_state_4540eb|55|21 1039,5,4,1,7,4,4,3,4,3,4,2,3,5,291,1379,
scooby_state_4540eb|48|31 900,4,5,3,4,6,4,4,3,0,2,8,8,5,415,1371,
scooby_state_4540eb|49|21 886,3,3,3,2,1,0,4,5,1,5,9,6,3,437,1368,
scooby_state_4540eb|51|21 932,1,3,7,2,1,3,3,3,2,3,2,6,2,374,1344,
scooby_state_4540eb|59|21 870,3,8,6,2,4,3,6,3,0,1,5,4,6,422,1343,
scooby_state_4540eb|23|21 883,4,6,2,5,2,2,4,4,2,4,3,7,2,412,1342,
scooby_state_4540eb|33|21 944,4,2,5,2,3,7,2,2,3,1,1,4,6,334,1320,
scooby_state_4540eb|22|21 913,5,5,5,3,3,2,0,6,2,2,3,3,6,355,1313,
scooby_state_4540eb|39|21 878,2,2,3,3,5,2,2,2,4,6,6,3,5,390,1313,
scooby_state_4540eb|54|41 872,11,4,6,3,7,6,3,9,6,5,4,14,13,298,1261,
scooby_state_4540eb|61|21 825,2,5,3,3,6,2,3,5,3,1,3,2,3,390,1256,
scooby_state_4540eb|30|21 906,2,6,1,5,1,2,4,3,0,2,4,3,3,296,1238,
scooby_state_4540eb|29|21 863,2,2,4,2,2,6,3,3,6,3,2,3,3,325,1229,
scooby_state_4540eb|52|21 845,4,2,6,8,4,1,1,2,1,4,2,2,4,320,1206,
scooby_state_4540eb|28|21 845,5,2,2,4,3,9,3,3,3,2,5,2,9,307,1204,
scooby_state_4540eb|31|21 837,6,9,1,2,2,3,0,2,4,1,2,5,0,329,1203,
scooby_state_4540eb|38|21 821,1,4,4,6,2,3,3,3,3,3,7,1,3,338,1202,
scooby_state_4540eb|59|31 819,5,8,4,6,6,5,3,3,4,4,1,6,3,325,1202,
scooby_state_4540eb|37|21 752,4,1,2,4,2,0,0,3,4,3,5,4,4,410,1198,
scooby_state_4540eb|62|21 751,5,1,2,3,3,3,1,1,2,2,4,6,5,406,1195,
scooby_state_4540eb|26|21 746,3,1,8,4,7,2,3,4,3,1,2,5,2,393,1184,
scooby_state_4540eb|53|31 801,9,11,3,8,4,5,1,2,6,6,5,7,4,305,1177,
scooby_state_4540eb|57|30 799,6,8,5,10,4,9,3,3,8,5,5,9,5,297,1176,
scooby_state_4540eb|43|21 824,4,5,0,2,3,2,5,5,1,2,4,4,6,308,1175,
scooby_state_4540eb|49|30 705,7,8,7,10,3,4,9,9,4,0,7,7,7,382,1169,
scooby_state_4540eb|53|30 743,10,11,7,4,4,8,2,3,4,7,6,7,11,321,1148,
scooby_state_4540eb|34|31 770,3,7,5,5,2,4,7,2,7,5,7,10,3,307,1144,
scooby_state_4540eb|60|31 747,8,8,4,3,4,3,2,2,9,5,9,7,1,331,1143,
scooby_state_4540eb|44|21 726,3,2,5,5,4,3,6,3,2,3,2,4,5,346,1119,
scooby_state_4540eb|41|41 768,9,6,4,5,5,6,5,3,2,9,10,3,9,273,1117,
scooby_state_4540eb|60|30 710,7,6,4,7,6,7,11,2,2,4,5,10,6,330,1117,
scooby_state_4540eb|56|41 732,5,7,2,5,2,10,4,8,5,8,8,5,7,279,1087,
scooby_state_4540eb|61|41 727,9,10,5,7,7,4,4,5,3,3,9,9,6,279,1087,
scooby_state_4540eb|63|31 646,3,4,4,3,4,7,5,7,7,4,6,5,7,372,1084,
scooby_state_4540eb|39|30 810,3,6,5,7,5,4,4,6,2,3,8,6,8,191,1068,
scooby_state_4540eb|52|40 652,6,10,8,11,8,7,6,7,7,8,12,13,16,291,1062,
scooby_state_4540eb|34|30 744,8,5,2,5,5,5,4,9,3,1,7,4,3,255,1060,
scooby_state_4540eb|42|41 724,4,3,8,4,5,6,5,3,4,4,12,4,5,268,1059,
scooby_state_4540eb|38|31 699,2,7,2,7,6,5,1,2,5,3,5,8,4,303,1059,
scooby_state_4540eb|60|41 717,7,7,5,8,6,5,8,4,2,3,3,8,7,269,1059,
scooby_state_4540eb|56|31 768,3,4,2,7,6,1,0,5,2,4,7,4,6,240,1059,
scooby_state_4540eb|45|31 692,8,6,4,2,3,2,5,1,4,7,4,2,5,313,1058,
scooby_state_4540eb|52|31 702,7,2,4,6,4,6,6,0,4,0,8,7,4,297,1057,
scooby_state_454159|3|0 982,7,8,4,3,4,2,5,4,4,5,7,5,6,8,1054,
scooby_state_4540eb|61|40 660,9,10,9,6,5,10,3,4,10,5,14,12,12,278,1047,
scooby_state_4540eb|58|31 650,3,2,12,5,3,3,3,3,3,3,6,2,5,342,1045,
scooby_state_4540eb|42|30 708,0,4,8,4,4,7,8,4,3,5,6,7,4,261,1033,
scooby_state_4540eb|58|40 710,7,7,10,9,6,5,8,8,5,6,10,5,13,223,1032,
scooby_state_4540eb|32|30 720,4,8,6,5,4,8,3,3,3,1,5,12,6,243,1031,
scooby_state_4540eb|48|41 654,8,8,9,6,7,5,5,2,5,2,11,9,10,288,1029,
scooby_state_4540eb|38|30 607,10,10,6,9,6,5,4,1,8,10,12,5,3,331,1027,
scooby_state_4540eb|46|41 677,9,3,7,5,5,4,6,2,4,5,7,6,7,280,1027,
scooby_state_4540eb|36|31 682,4,8,4,6,3,2,1,1,1,2,4,3,5,278,1004,
scooby_state_4540eb|42|31 696,3,4,3,4,4,3,6,0,4,2,4,5,5,260,1003,
scooby_state_4540eb|58|41 689,4,4,8,4,6,7,6,7,1,4,5,7,7,244,1003,
scooby_state_4540eb|44|31 672,4,9,2,7,7,2,6,2,3,3,2,7,4,272,1002,
scooby_state_4540eb|47|31 623,7,1,11,7,6,3,6,7,1,1,4,1,5,318,1001,
scooby_state_4540eb|40|40 684,9,10,5,4,8,6,5,6,9,9,7,9,6,224,1001,
scooby_state_4540eb|56|21 709,1,3,2,1,2,1,1,2,0,3,2,2,5,266,1000,
scooby_state_4540eb|46|30 622,15,5,6,8,6,6,3,5,5,7,8,5,7,292,1000,
scooby_state_4540eb|54|31 643,5,8,5,3,3,5,0,2,4,5,6,7,7,297,1000,
scooby_state_454159|19|0 924,2,4,7,5,6,5,2,3,8,8,3,5,4,7,993,
scooby_state_4540eb|52|41 665,5,6,8,7,6,7,3,5,3,7,5,8,7,234,976,
scooby_state_4540eb|51|30 640,1,7,4,5,9,5,5,5,3,4,13,6,7,260,974,
scooby_state_4540eb|41|31 658,4,2,6,3,9,5,1,3,2,3,6,9,4,259,974,
scooby_state_454159|11|0 916,4,3,7,5,3,6,7,3,3,6,3,3,1,4,974,
scooby_state_4540eb|63|41 625,4,7,8,7,4,7,4,3,7,2,4,7,12,271,972,
scooby_state_4540eb|43|41 656,5,5,4,8,4,7,3,3,4,6,8,6,8,245,972,
scooby_state_4540eb|59|40 654,8,7,7,9,4,4,5,6,6,4,10,8,10,230,972,
scooby_state_4540eb|50|40 650,8,9,7,8,8,10,13,2,7,5,12,5,10,215,969,
scooby_state_454159|15|0 879,7,7,6,4,2,4,2,5,4,5,7,3,3,16,954,
scooby_state_4540eb|57|31 608,8,5,4,3,6,6,5,2,3,3,5,4,3,283,948,
scooby_state_4540eb|58|30 647,8,5,5,2,5,5,2,4,3,4,9,6,11,231,947,
scooby_state_4540eb|54|40 586,14,8,7,10,9,4,6,10,2,4,9,6,7,265,947,
scooby_state_4540eb|32|31 612,3,5,5,6,4,2,5,7,4,0,2,4,9,274,942,
scooby_state_4540eb|54|30 611,5,4,4,4,4,4,4,3,2,8,4,7,11,267,942,
scooby_state_4540eb|62|31 586,2,4,4,5,7,1,4,5,3,5,6,4,5,300,941,
scooby_state_4540eb|62|40 596,6,6,5,9,3,2,6,5,8,7,17,4,7,260,941,
scooby_state_4540eb|49|31 556,2,4,2,7,4,5,4,7,3,2,1,8,6,328,939,
scooby_state_4540eb|50|41 597,9,5,9,4,5,4,3,5,5,2,7,7,3,273,938,
scooby_state_4540eb|55|40 667,6,4,7,8,11,7,5,5,3,3,3,12,4,175,920,
scooby_state_4540eb|46|31 631,3,10,6,3,5,8,0,2,4,3,5,1,10,229,920,
scooby_state_4540eb|47|41 684,5,8,6,5,4,4,4,5,3,5,8,1,9,168,919,
scooby_state_4540eb|36|30 550,7,5,7,5,4,4,1,2,4,4,12,10,6,297,918,
scooby_state_4540eb|60|40 624,4,9,7,7,8,5,9,4,3,8,11,4,6,206,915,
scooby_state_4540eb|62|30 627,4,5,7,5,7,2,4,6,3,3,4,4,4,230,915,
scooby_state_454159|16|0 852,2,5,4,5,4,6,7,3,5,7,2,6,1,6,915,
scooby_state_4540eb|42|40 585,11,5,12,3,11,5,4,8,5,6,11,11,11,225,913,
scooby_state_4540eb|35|30 591,6,6,5,1,3,5,3,3,9,7,5,4,5,260,913,
scooby_state_4540eb|37|31 607,2,5,2,2,2,4,3,1,0,1,5,3,5,270,912,
scooby_state_4540eb|44|40 634,12,12,6,3,5,5,3,9,8,4,8,10,7,184,910,
scooby_state_4540eb|48|30 603,5,7,2,2,4,3,2,3,3,3,12,6,5,240,900,
scooby_state_4540eb|55|31 585,3,1,1,4,2,1,7,2,0,2,5,5,4,274,896,
scooby_state_4540eb|53|40 593,8,11,12,9,7,6,4,2,9,5,12,7,10,199,894,
scooby_state_4540eb|52|30 597,5,3,7,5,3,2,1,5,1,2,6,7,8,241,893,
scooby_state_454159|13|0 826,4,8,4,1,6,3,7,5,1,2,6,6,8,6,893,
scooby_state_4540eb|37|30 559,3,4,6,4,5,2,3,3,3,5,4,10,5,275,891,
scooby_state_4540eb|55|30 605,1,4,4,7,6,3,1,7,2,1,10,5,2,230,888,
scooby_state_454159|0|0 820,3,7,5,4,5,4,3,4,3,6,7,6,3,7,887,
scooby_state_4540eb|50|31 578,3,8,4,1,1,1,0,4,0,4,2,4,3,271,884,
scooby_state_4540eb|35|31 627,3,4,3,1,2,0,0,5,0,5,4,1,6,223,884,
scooby_state_454159|21|0 808,7,6,5,3,3,5,3,3,2,4,4,4,6,10,873,
scooby_state_4540eb|39|31 582,8,4,4,5,3,4,4,0,4,2,5,1,7,239,872,
scooby_state_4540eb|51|31 608,5,4,7,2,1,1,1,3,1,2,4,3,5,215,862,
scooby_state_4540eb|31|31 636,2,4,3,2,3,4,1,2,0,2,5,1,4,192,861,
scooby_state_4540eb|46|40 545,13,5,9,3,5,4,2,5,4,3,10,4,10,234,856,
scooby_state_454159|9|0 778,6,10,5,5,5,2,4,5,3,6,7,4,6,10,856,
scooby_state_4540eb|45|30 535,5,3,6,7,6,6,6,5,4,5,3,7,3,255,856,
scooby_state_4540eb|61|30 564,10,0,6,3,4,5,3,2,6,2,3,8,2,237,855,
scooby_state_4540eb|59|30 526,5,9,6,3,8,2,9,3,3,5,3,3,2,267,854,
scooby_state_4540eb|33|30 574,5,6,5,6,2,3,3,2,3,3,4,1,8,225,850,
scooby_state_454159|12|0 767,5,8,7,4,4,1,3,6,5,3,4,4,7,11,839,
scooby_state_454159|5|0 784,5,1,5,4,4,4,3,2,6,4,2,5,4,5,838,
scooby_state_454159|8|0 771,4,6,2,4,5,3,3,3,2,6,5,4,3,10,831,
scooby_state_4540eb|61|31 536,2,4,4,3,4,3,4,3,2,1,2,3,6,252,829,
scooby_state_4540eb|53|41 567,8,1,4,7,3,3,4,0,3,4,3,4,9,209,829,
scooby_state_4540eb|43|30 542,6,2,7,5,3,4,2,5,5,3,3,2,5,235,829,
scooby_state_4540eb|43|40 526,8,2,9,9,11,10,7,7,2,3,9,8,7,210,828,
scooby_state_4540eb|30|30 522,8,5,3,3,4,1,4,4,1,6,6,10,5,244,826,
scooby_state_4540eb|41|30 495,7,12,4,3,5,3,7,1,2,3,5,4,5,267,823,
scooby_state_454159|14|0 763,7,4,4,4,4,3,3,4,3,5,2,3,3,10,822,
scooby_state_454159|22|0 740,10,5,3,4,4,4,5,3,4,4,2,6,4,10,808,
scooby_state_454159|4|0 746,5,5,7,3,2,5,2,4,5,4,3,3,6,7,807,
scooby_state_4540eb|62|41 533,5,8,3,3,3,4,5,5,3,3,6,11,7,205,804,
scooby_state_4540eb|47|40 493,9,8,6,10,7,7,5,6,2,5,4,8,8,224,802,
scooby_state_4540eb|48|40 515,7,3,10,6,6,6,3,6,5,5,8,5,9,208,802,
scooby_state_4540eb|44|41 556,10,6,5,3,2,4,2,4,4,3,5,8,7,183,802,
scooby_state_4540eb|56|30 490,6,8,3,3,11,2,6,3,4,2,6,6,9,242,801,
scooby_state_4540eb|31|30 546,8,4,0,2,2,6,2,2,2,3,4,3,4,212,800,
scooby_state_454159|18|0 740,5,8,6,5,1,1,1,4,5,3,5,4,6,5,799,
scooby_state_4540eb|50|30 463,7,6,9,1,1,4,2,3,3,5,2,4,5,280,795,
scooby_state_454159|38|0 739,3,3,2,3,8,5,4,0,2,6,1,9,3,3,791,
scooby_state_454159|1|0 727,4,4,5,4,2,5,4,2,4,4,2,5,2,11,785,
scooby_state_4540eb|56|40 543,6,8,5,6,3,5,4,1,5,3,8,5,6,167,775,
scooby_state_4540eb|57|41 540,6,1,5,3,7,3,1,4,2,6,13,4,5,175,775,
scooby_state_454159|33|0 727,3,4,2,3,4,3,3,3,2,2,4,4,3,5,772,
scooby_state_4540eb|44|30 514,4,4,4,3,5,6,8,3,3,1,3,4,5,204,771,
scooby_state_4540eb|63|40 536,6,10,6,11,2,9,4,5,1,3,6,12,7,152,770,
scooby_state_454159|6|0 714,8,5,1,4,1,3,5,5,2,3,3,3,3,6,766,
scooby_state_4540eb|59|41 472,3,8,6,5,4,2,3,1,5,2,7,4,7,234,763,
scooby_state_4540eb|63|30 461,4,4,5,3,3,6,4,1,1,3,6,7,8,240,756,
scooby_state_4540eb|60|22 530,6,4,7,5,7,3,4,4,4,6,7,7,9,144,747,
scooby_state_454159|31|0 697,1,4,2,3,2,7,6,2,2,3,4,8,3,2,746,
scooby_state_4540eb|45|41 519,6,4,3,3,7,3,4,3,4,4,5,4,7,168,744,
scooby_state_4540eb|51|41 497,3,9,6,4,6,4,3,2,3,5,3,3,2,191,741,
scooby_state_454159|27|0 686,6,6,4,1,4,1,5,1,4,1,4,3,5,7,738,
scooby_state_4540eb|49|40 469,4,8,2,9,3,4,5,6,2,7,9,10,6,187,731,
scooby_state_454159|23|0 669,7,6,3,4,4,2,3,1,3,5,4,5,2,8,726,
scooby_state_4540eb|41|40 505,5,10,9,4,2,5,3,5,6,4,9,6,5,140,718,
scooby_state_4540eb|55|41 485,6,1,3,2,6,1,6,2,4,2,0,6,4,188,716,
scooby_state_4540eb|40|30 509,10,2,4,4,4,2,0,4,2,2,3,3,9,158,716,
scooby_state_454159|24|0 665,1,7,2,2,5,1,2,5,1,3,9,4,4,4,715,
scooby_state_454159|10|0 656,3,4,6,2,5,5,1,2,3,4,4,8,3,4,710,
scooby_state_4540eb|51|40 406,5,11,10,11,5,2,4,4,2,4,5,11,2,228,710,
scooby_state_4540eb|43|31 486,3,0,1,3,1,2,2,3,2,3,2,0,3,196,707,
scooby_state_454159|2|0 647,4,5,5,5,1,5,0,1,4,4,3,2,2,9,697,
scooby_state_454159|30|0 627,8,3,4,2,3,2,2,4,4,2,3,3,2,9,678,
scooby_state_454159|20|0 624,5,2,6,2,2,2,4,0,5,2,3,3,2,5,667,
scooby_state_454159|25|0 607,3,5,5,3,3,4,2,4,3,4,3,5,3,6,660,
scooby_state_454159|17|0 611,6,2,3,4,3,3,2,3,3,6,1,2,3,6,658,
scooby_state_454159|26|0 606,2,4,4,4,1,5,1,2,5,4,1,3,3,2,647,
scooby_state_454159|7|0 589,4,4,4,4,1,4,2,2,5,2,3,6,3,7,640,
scooby_state_454159|29|0 584,9,1,2,3,4,2,3,3,3,6,0,3,4,8,635,
scooby_state_4540eb|57|40 393,6,3,7,3,5,6,3,4,2,4,7,4,4,183,634,
scooby_state_4540eb|34|22 414,5,5,9,2,5,6,4,8,6,4,10,9,3,141,631,
scooby_state_4540eb|45|40 464,2,4,0,4,4,4,4,1,5,4,4,7,2,120,629,
scooby_state_4540eb|47|30 409,4,5,2,2,4,3,1,2,4,3,2,4,5,178,628,
scooby_state_454159|28|0 573,3,3,6,0,2,2,4,1,5,0,1,3,2,6,611,
scooby_state_4540eb|52|22 447,10,5,2,4,2,3,2,2,3,6,6,6,3,101,602,
scooby_state_454159|35|0 553,6,3,3,3,1,0,4,2,4,2,2,2,1,6,592,
scooby_state_4540eb|37|22 385,3,5,3,2,4,5,8,2,5,5,9,4,5,125,570,
scooby_state_454159|37|0 514,4,5,2,2,2,4,1,1,2,2,4,3,2,3,551,
scooby_state_4540eb|45|22 363,6,3,5,10,5,4,2,2,3,8,7,3,6,117,544,
scooby_state_4540eb|59|22 327,10,3,5,9,4,1,4,2,6,5,6,6,5,151,544,
scooby_state_4540eb|54|22 344,5,12,5,7,3,9,3,5,2,6,3,9,6,118,537,
scooby_state_4540eb|30|22 352,6,2,4,4,3,6,1,2,3,4,8,6,7,107,515,
scooby_state_454159|36|0 474,3,3,2,1,0,5,3,4,2,1,1,2,2,3,506,
scooby_state_4540eb|39|22 322,3,9,3,4,3,1,5,5,4,4,1,6,5,112,487,
scooby_state_4540eb|42|22 304,5,4,7,5,3,5,8,2,3,0,10,10,8,113,487,
scooby_state_4540eb|26|22 292,4,8,4,7,7,3,3,5,3,2,5,5,6,133,487,
scooby_state_4540eb|53|22 301,4,9,4,7,6,1,4,5,4,7,7,5,6,116,486,
scooby_state_4540eb|55|22 300,6,5,7,6,5,4,5,7,7,3,6,8,6,111,486,
scooby_state_4540eb|46|22 326,7,3,7,3,3,7,5,2,2,5,5,3,7,100,485,
scooby_state_4540eb|47|22 309,4,2,10,5,4,6,6,0,7,1,8,5,3,115,485,
scooby_state_4540eb|38|22 301,4,8,5,7,4,2,6,2,1,3,2,4,6,129,484,
scooby_state_4540eb|61|22 314,4,3,4,4,4,6,3,5,4,4,8,8,8,103,482,
scooby_state_454159|34|0 445,1,3,1,2,2,5,1,3,0,3,4,4,2,3,479,
scooby_state_4540eb|51|22 306,6,4,2,8,4,4,4,2,7,2,3,12,2,102,468,
scooby_state_454159|43|0 432,2,1,3,2,3,2,2,3,3,3,1,5,1,3,466,
scooby_state_4540eb|27|22 324,4,4,10,4,5,6,2,2,2,4,6,3,8,76,460,
scooby_state_4540eb|43|22 316,8,0,4,4,8,3,5,1,3,1,5,3,6,91,458,
scooby_state_4540eb|50|22 336,3,9,1,2,5,5,5,3,1,2,5,2,3,76,458,
scooby_state_4540eb|48|22 270,6,9,6,3,10,3,3,7,5,4,4,4,3,120,457,
scooby_state_4540eb|25|22 281,6,8,5,6,4,4,2,1,1,0,8,7,5,118,456,
scooby_state_454159|40|0 424,1,2,2,4,2,2,2,2,1,4,4,1,1,1,453,
scooby_state_4540eb|36|22 291,4,3,4,1,3,7,4,8,4,4,5,10,4,92,444,
scooby_state_454159|41|0 405,2,2,2,1,1,3,3,4,3,3,1,2,5,3,440,
scooby_state_454159|45|0 398,4,5,4,1,1,1,0,2,2,2,7,0,1,6,434,
scooby_state_4540eb|41|22 279,3,5,6,3,6,5,2,5,3,5,3,5,6,96,432,
scooby_state_4540eb|23|22 291,4,2,4,2,4,4,3,3,3,6,2,7,4,92,431,
scooby_state_4540eb|29|22 222,7,6,3,4,5,2,2,1,8,4,6,3,9,142,424,
scooby_state_4540eb|57|22 267,1,4,1,1,0,6,8,6,2,4,4,4,3,90,401,
scooby_state_4540eb|63|22 287,4,3,2,4,4,4,1,5,4,1,3,2,4,73,401,
scooby_state_454159|48|0 362,2,0,1,2,2,3,0,2,3,1,0,5,2,2,387,
scooby_state_4540eb|58|22 307,6,4,1,2,4,1,0,2,0,1,2,3,4,38,375,
scooby_state_4540eb|22|22 272,1,6,4,3,3,6,3,3,1,1,3,1,3,64,374,
scooby_state_4540eb|28|22 279,6,5,2,2,2,3,3,2,0,3,1,2,3,60,373,
scooby_state_4540eb|62|22 276,6,3,7,5,3,5,4,1,0,0,3,1,3,56,373,
scooby_state_4540eb|33|22 235,4,2,2,1,4,5,3,5,1,3,3,5,3,94,370,
scooby_state_454159|60|0 329,2,1,1,1,2,2,1,2,1,2,1,2,0,3,350,
scooby_state_454159|44|0 328,1,0,2,2,2,2,2,1,1,3,1,1,1,1,348,
scooby_state_4540eb|49|22 224,4,4,2,2,2,1,4,3,5,1,5,5,6,76,344,
scooby_state_454159|54|0 320,0,2,2,2,2,2,1,1,2,1,3,4,1,0,343,
scooby_state_4540eb|32|22 237,2,4,9,2,1,4,5,0,1,1,1,1,5,70,343,
scooby_state_4540eb|40|22 208,5,4,3,2,5,8,1,2,1,2,6,4,5,86,342,
scooby_state_454159|39|0 317,1,1,2,2,3,1,1,1,2,3,2,3,1,1,341,
scooby_state_4540eb|31|22 204,7,4,3,1,2,4,6,3,3,2,2,4,2,93,340,
scooby_state_454159|53|0 311,3,2,2,2,3,1,1,1,1,3,1,3,2,2,338,
scooby_state_454159|58|0 297,3,1,3,0,1,2,2,1,4,1,1,1,1,3,321,
scooby_state_454159|55|0 296,1,2,2,4,0,0,2,2,1,4,2,0,1,3,320,
scooby_state_454159|52|0 290,4,3,2,1,2,1,3,0,1,2,2,1,1,6,319,
scooby_state_4540eb|44|22 190,6,4,5,4,5,1,2,3,3,1,0,6,3,82,315,
scooby_state_4540eb|24|22 187,4,4,4,3,2,2,2,5,2,4,1,4,3,87,314,
scooby_state_454159|32|0 270,2,1,1,5,1,0,2,0,3,3,0,0,1,2,291,
scooby_state_4540eb|56|22 201,0,4,3,2,3,2,0,3,1,4,2,0,2,59,286,
scooby_state_454159|42|0 262,1,2,3,0,2,2,1,2,0,1,2,3,3,2,286,
scooby_state_454159|63|0 256,0,2,1,1,1,1,2,2,1,1,1,1,2,1,273,
scooby_state_454159|56|0 244,1,3,2,0,1,2,1,0,2,0,2,2,0,1,261,
scooby_state_4540eb|35|22 168,6,2,1,1,6,2,2,0,3,2,2,2,4,57,258,
scooby_state_454159|50|0 240,3,1,4,0,0,0,2,0,3,0,0,0,2,3,258,
scooby_state_454159|46|0 219,0,3,0,1,0,1,3,0,0,1,2,1,0,1,232,
scooby_state_454159|30|21 193,1,3,3,2,3,3,0,1,6,2,1,3,2,9,232,
scooby_state_4540eb|58|39 128,8,10,8,8,1,7,5,3,6,2,10,11,11,12,230,
scooby_state_454159|59|0 214,1,0,1,2,1,0,2,0,2,2,0,1,1,3,230,
scooby_state_4540eb|55|17 137,2,7,9,1,5,0,5,4,12,4,8,6,8,20,228,
scooby_state_454159|51|0 191,0,2,0,1,3,0,1,0,0,3,1,1,0,1,204,
scooby_state_4540eb|40|17 127,7,0,5,0,2,6,4,4,5,6,7,7,5,16,201,
scooby_state_4540eb|38|17 160,1,2,0,4,2,2,3,3,1,1,5,6,5,6,201,
scooby_state_454159|46|46 162,3,2,3,2,3,2,2,2,2,1,1,4,4,7,200,
scooby_state_4540eb|29|17 137,6,4,4,5,7,3,3,5,0,3,4,3,4,12,200,
scooby_state_4540eb|34|17 120,4,1,4,7,2,7,6,3,4,5,6,7,9,15,200,
scooby_state_454159|39|31 145,7,1,2,3,5,3,2,3,0,3,3,6,2,7,192,
scooby_state_454159|26|21 166,2,2,4,1,1,2,0,3,1,0,2,2,2,3,191,
scooby_state_454159|61|46 147,4,0,4,2,1,1,2,1,0,2,2,2,3,5,176,
scooby_state_454159|48|46 145,1,3,2,2,1,2,1,2,4,1,3,1,3,4,175,
scooby_state_454159|49|21 156,1,0,0,0,3,1,2,2,0,2,2,2,3,0,174,
scooby_state_454159|41|21 152,3,4,5,1,0,0,0,3,0,0,2,0,0,4,174,
scooby_state_454159|55|46 135,2,3,2,1,4,4,2,5,4,1,4,3,1,3,174,
scooby_state_454159|24|21 152,3,2,1,1,2,1,3,1,1,3,0,0,3,1,174,
scooby_state_454159|34|21 152,1,0,1,2,2,2,2,1,1,2,1,2,3,2,174,
scooby_state_454159|32|21 153,4,2,2,0,0,2,1,1,0,1,2,1,1,4,174,
scooby_state_454159|63|46 146,2,1,2,4,2,2,1,2,1,1,1,2,3,4,174,
scooby_state_4540eb|48|44 119,4,4,8,6,3,5,1,0,2,2,2,3,10,4,173,
scooby_state_4540eb|51|17 107,2,2,6,5,6,8,1,4,4,6,3,5,3,10,172,
scooby_state_4540eb|38|29 117,5,4,1,7,6,2,3,3,4,2,3,4,3,8,172,
scooby_state_454159|47|0 157,1,1,0,1,0,0,1,2,1,1,1,1,3,1,171,
scooby_state_454159|62|0 155,1,3,1,1,0,0,1,2,0,1,0,0,2,4,171,
scooby_state_4540eb|52|45 111,5,6,4,5,3,3,4,3,6,3,6,3,1,8,171,
scooby_state_4540eb|60|45 93,13,2,6,6,4,4,3,4,4,1,7,6,4,14,171,
scooby_state_4540eb|51|39 106,3,6,2,6,8,4,3,4,3,4,3,5,5,9,171,
scooby_state_4540eb|57|17 107,5,3,2,2,4,3,2,5,4,1,3,6,7,17,171,
scooby_state_4540eb|63|17 105,7,2,2,4,3,6,2,4,1,4,6,1,7,17,171,
scooby_state_4540eb|52|17 89,5,3,12,3,6,4,7,2,4,3,5,6,7,14,170,
scooby_state_4540eb|34|29 109,3,3,6,5,3,6,3,1,3,3,6,6,4,6,167,
scooby_state_454159|42|21 142,0,3,0,3,1,2,4,0,1,3,3,1,1,0,164,
scooby_state_454159|57|46 130,0,5,1,3,1,3,0,3,2,3,2,3,2,3,161,
scooby_state_454159|39|21 124,1,3,3,1,1,0,1,2,1,0,2,2,2,4,147,
scooby_state_454159|50|31 123,0,0,0,2,2,3,2,3,3,1,1,0,3,3,146,
scooby_state_454159|49|0 137,0,3,0,0,1,1,0,0,0,0,3,1,0,0,146,
scooby_state_454159|37|31 119,0,3,2,1,2,1,4,0,3,2,5,0,2,2,146,
scooby_state_454159|53|41 101,1,4,4,2,4,2,1,2,3,4,3,4,5,6,146,
scooby_state_454159|56|46 120,1,3,1,1,4,1,1,1,0,0,3,6,1,2,145,
scooby_state_454159|58|46 120,4,1,1,0,0,0,4,0,2,4,2,3,1,3,145,
scooby_state_454159|52|21 129,1,1,0,2,0,2,2,0,1,0,1,2,2,2,145,
scooby_state_4540eb|19|17 100,2,1,4,4,3,2,3,2,2,4,5,2,2,9,145,
scooby_state_454159|62|40 108,4,0,1,4,0,4,2,3,2,3,3,0,5,6,145,
scooby_state_454159|51|46 121,3,0,4,1,1,1,3,1,0,3,3,1,1,2,145,
scooby_state_454159|49|30 135,0,0,3,0,1,0,1,0,1,1,0,0,0,3,145,
scooby_state_454159|54|31 114,8,1,2,1,3,2,0,3,0,3,0,3,2,3,145,
scooby_state_4540eb|53|45 88,8,2,5,6,2,6,2,4,5,1,2,1,5,8,145,
scooby_state_454159|37|21 130,0,0,1,1,0,3,0,1,2,1,2,2,1,1,145,
scooby_state_454159|56|21 128,2,2,3,1,1,0,0,2,0,0,1,1,1,3,145,
scooby_state_454159|45|31 120,2,0,0,1,4,2,3,0,4,3,2,1,1,2,145,
scooby_state_454159|47|31 109,1,1,0,4,2,2,3,3,2,1,4,1,5,7,145,
scooby_state_4540eb|63|29 113,0,0,2,3,3,3,3,2,1,1,4,2,3,5,145,
scooby_state_4540eb|63|44 90,3,7,2,8,2,3,3,3,1,1,3,5,10,4,145,
scooby_state_454159|61|30 133,0,2,0,0,2,0,1,0,0,0,1,1,0,5,145,
scooby_state_4540eb|45|29 104,3,3,5,4,2,3,3,1,0,2,1,5,3,6,145,
scooby_state_4540eb|47|29 117,5,0,2,0,2,3,1,1,5,0,2,0,1,6,145,
scooby_state_4540eb|45|45 100,7,3,4,2,3,1,3,2,2,1,4,2,2,8,144,
scooby_state_4540eb|42|28 93,5,6,4,5,4,5,3,0,3,0,1,2,4,9,144,
scooby_state_454159|42|30 131,1,2,0,1,0,1,0,0,1,1,1,1,1,3,144,
scooby_state_4540eb|60|44 110,2,1,3,5,1,3,0,1,1,1,2,3,3,8,144,
scooby_state_4540eb|20|17 87,6,7,4,5,1,1,0,1,3,2,3,6,3,14,143,
scooby_state_4540eb|49|29 96,2,3,5,1,2,1,2,4,2,3,4,1,6,11,143,
scooby_state_4540eb|27|17 83,5,2,4,1,7,1,3,3,1,0,10,6,5,12,143,
scooby_state_4540eb|42|17 81,3,3,6,1,4,5,5,2,4,4,4,5,4,12,143,
scooby_state_4540eb|59|29 104,5,5,0,3,2,2,2,2,1,2,1,7,2,5,143,
scooby_state_4540eb|54|17 69,4,5,5,7,6,2,2,3,4,5,5,6,6,13,142,
scooby_state_4540eb|54|45 85,7,5,4,4,3,1,1,4,3,3,4,5,2,11,142,
scooby_state_4540eb|39|29 67,6,4,6,10,3,5,2,5,2,4,8,7,2,11,142,
scooby_state_4540eb|46|39 90,4,2,5,1,3,4,2,5,2,3,3,3,9,6,142,
scooby_state_4540eb|61|38 80,2,6,0,4,5,2,4,2,3,4,4,3,7,15,141,
scooby_state_4540eb|33|17 75,8,6,1,9,6,3,4,2,1,3,5,7,2,9,141,
scooby_state_4540eb|47|44 49,7,5,6,6,6,11,6,3,4,5,8,5,8,12,141,
scooby_state_454159|63|30 121,1,0,1,1,1,0,0,0,1,1,1,1,1,3,133,
scooby_state_454159|45|21 110,0,0,1,1,4,1,1,0,2,0,1,2,4,0,127,
scooby_state_454159|54|21 103,1,2,1,1,1,1,2,0,0,2,2,0,0,2,118,
scooby_state_454159|57|0 111,1,1,0,0,0,0,1,0,0,0,0,0,2,2,118,
scooby_state_454159|51|21 102,2,1,2,2,0,0,2,1,1,0,1,0,0,2,116,
scooby_state_454151|58|1 115,0,0,0,0,1,0,0,0,0,0,0,0,0,0,116,
scooby_state_454151|9|1 115,0,0,0,1,0,0,0,0,0,0,0,0,0,0,116,
scooby_state_454151|59|1 115,0,0,0,0,0,1,0,0,0,0,0,0,0,0,116,
scooby_state_454151|16|1 116,0,0,0,0,0,0,0,0,0,0,0,0,0,0,116,
scooby_state_4540eb|51|45 92,1,1,3,3,3,1,3,2,0,3,1,2,1,0,116,
scooby_state_454159|61|21 103,1,1,1,1,1,0,1,3,1,0,1,0,0,2,116,
scooby_state_454151|3|1 115,0,0,0,0,0,0,0,1,0,0,0,0,0,0,116,
scooby_state_4540eb|59|25 36,4,7,9,4,6,6,7,4,3,4,6,8,5,7,116,
scooby_state_454159|44|31 94,1,1,1,2,1,2,1,1,2,2,3,2,2,1,116,
scooby_state_4540eb|57|39 72,2,5,3,2,3,3,2,5,0,2,4,4,4,5,116,
scooby_state_454151|61|1 116,0,0,0,0,0,0,0,0,0,0,0,0,0,0,116,
scooby_state_454151|63|1 115,0,0,0,0,0,1,0,0,0,0,0,0,0,0,116,
scooby_state_454151|62|1 116,0,0,0,0,0,0,0,0,0,0,0,0,0,0,116,
scooby_state_454151|2|1 116,0,0,0,0,0,0,0,0,0,0,0,0,0,0,116,
scooby_state_454159|58|40 87,3,3,6,0,2,1,2,0,1,2,1,4,2,2,116,
scooby_state_454159|48|21 97,3,2,1,0,2,0,1,0,1,1,1,1,2,4,116,
scooby_state_454151|7|1 116,0,0,0,0,0,0,0,0,0,0,0,0,0,0,116,
scooby_state_454151|4|1 116,0,0,0,0,0,0,0,0,0,0,0,0,0,0,116,
scooby_state_454151|11|1 115,0,0,0,0,1,0,0,0,0,0,0,0,0,0,116,
scooby_state_454151|60|1 115,0,0,0,0,0,0,1,0,0,0,0,0,0,0,116,
scooby_state_454151|0|0 116,0,0,0,0,0,0,0,0,0,0,0,0,0,0,116,
scooby_state_454159|59|46 90,0,1,2,1,1,2,0,2,1,2,5,4,1,4,116,
scooby_state_454151|14|1 116,0,0,0,0,0,0,0,0,0,0,0,0,0,0,116,
scooby_state_454151|19|1 115,0,0,0,0,0,0,0,1,0,0,0,0,0,0,116,
scooby_state_4540eb|22|17 71,2,4,4,3,4,3,2,0,3,1,4,2,4,9,116,
scooby_state_454151|18|1 116,0,0,0,0,0,0,0,0,0,0,0,0,0,0,116,
scooby_state_454151|17|1 116,0,0,0,0,0,0,0,0,0,0,0,0,0,0,116,
scooby_state_454151|10|1 116,0,0,0,0,0,0,0,0,0,0,0,0,0,0,116,
scooby_state_454151|15|1 116,0,0,0,0,0,0,0,0,0,0,0,0,0,0,116,
scooby_state_454151|57|1 116,0,0,0,0,0,0,0,0,0,0,0,0,0,0,116,
scooby_state_4540eb|33|25 40,5,6,7,6,6,5,5,4,2,4,5,7,6,8,116,
scooby_state_454151|6|1 114,0,0,0,0,0,0,0,0,1,0,0,0,1,0,116,
scooby_state_454159|42|31 94,1,3,3,1,1,2,0,2,1,1,0,2,3,2,116,
scooby_state_454151|13|1 115,0,0,0,0,0,0,1,0,0,0,0,0,0,0,116,
scooby_state_454159|45|40 79,4,8,0,3,2,2,2,1,2,6,0,1,2,4,116,
scooby_state_454159|55|41 80,4,1,1,2,1,1,2,4,2,3,1,2,5,7,116,
scooby_state_454151|8|1 116,0,0,0,0,0,0,0,0,0,0,0,0,0,0,116,
scooby_state_4540eb|28|20 88,4,3,1,1,1,1,3,1,2,2,2,1,0,6,116,
scooby_state_454159|54|46 96,2,1,1,3,2,2,3,2,0,1,0,0,1,2,116,
scooby_state_454159|43|40 81,3,7,3,4,1,3,2,1,1,3,2,1,1,3,116,
scooby_state_454151|1|1 116,0,0,0,0,0,0,0,0,0,0,0,0,0,0,116,
scooby_state_454159|61|31 91,3,2,2,0,1,2,1,0,2,2,4,1,2,3,116,
scooby_state_454151|5|1 116,0,0,0,0,0,0,0,0,0,0,0,0,0,0,116,
scooby_state_454159|27|21 103,2,1,0,2,0,0,3,1,1,0,1,0,0,2,116,
scooby_state_454151|12|1 116,0,0,0,0,0,0,0,0,0,0,0,0,0,0,116,
scooby_state_454159|63|41 80,1,2,2,4,6,5,0,0,3,2,5,0,3,3,116,
scooby_state_4540eb|55|44 78,4,3,2,0,4,0,3,4,0,3,2,4,5,3,115,
scooby_state_4540eb|50|17 92,0,2,2,0,3,3,1,1,2,1,2,0,1,5,115,
scooby_state_4540eb|54|44 70,4,2,5,5,3,3,2,3,1,4,4,2,2,5,115,
scooby_state_4540eb|61|45 47,9,2,4,3,5,2,4,6,2,2,6,9,5,9,115,
scooby_state_4540eb|59|39 68,6,1,2,3,5,4,2,2,2,3,6,5,2,4,115,
scooby_state_4540eb|35|29 69,5,1,2,2,4,4,3,3,4,2,3,3,4,6,115,
scooby_state_4540eb|45|20 75,6,2,0,2,10,1,4,0,1,0,2,3,3,6,115,
scooby_state_4540eb|61|39 64,5,5,3,5,6,2,1,0,2,6,6,2,3,5,115,
scooby_state_4540eb|58|44 44,5,5,5,6,4,1,5,3,5,2,5,4,15,6,115,
scooby_state_4540eb|28|28 87,3,3,2,2,0,2,3,1,2,3,0,1,2,4,115,
scooby_state_4540eb|56|44 74,3,1,4,1,1,4,3,3,3,3,2,5,2,6,115,
scooby_state_4540eb|56|29 88,1,1,3,1,3,0,5,0,0,1,1,0,5,6,115,
scooby_state_4540eb|61|17 84,2,4,0,2,2,1,1,1,0,5,2,1,2,8,115,
scooby_state_4540eb|35|17 71,2,4,3,3,2,3,5,3,0,2,4,5,3,5,115,
scooby_state_4540eb|37|28 76,6,3,4,2,2,4,1,4,0,1,0,4,1,7,115,
scooby_state_454151|56|1 115,0,0,0,0,0,0,0,0,0,0,0,0,0,0,115,
scooby_state_4540eb|61|58 52,10,7,3,3,8,2,3,4,1,1,6,2,4,9,115,
scooby_state_4540eb|51|29 63,4,5,4,3,2,6,1,5,1,2,4,1,4,10,115,
scooby_state_4540eb|56|39 57,7,7,3,3,5,2,0,4,3,3,2,5,5,9,115,
scooby_state_4540eb|55|39 53,2,1,5,4,1,5,5,2,5,4,5,5,4,13,114,
scooby_state_4540eb|49|38 81,3,6,2,3,0,0,0,1,1,1,4,3,2,7,114,
scooby_state_4540eb|54|20 86,1,1,4,2,2,3,1,0,3,1,2,3,2,3,114,
scooby_state_4540eb|46|29 78,1,1,3,3,2,1,1,2,2,0,2,2,4,12,114,
scooby_state_4540eb|59|20 75,3,1,3,4,2,2,4,2,5,0,5,3,1,4,114,
scooby_state_4540eb|23|17 67,0,5,3,3,2,4,3,1,2,1,6,4,3,10,114,
scooby_state_4540eb|45|44 45,2,4,5,1,0,3,6,9,4,2,7,5,5,16,114,
scooby_state_4540eb|62|17 60,3,1,5,5,3,4,5,3,2,4,6,0,4,9,114,
scooby_state_4540eb|43|17 70,4,1,3,1,3,6,4,3,2,1,1,3,1,11,114,
scooby_state_4540eb|63|28 69,1,5,2,1,5,4,1,3,1,2,8,2,3,7,114,
scooby_state_4540eb|59|17 72,4,0,6,2,4,2,1,2,2,0,2,1,5,11,114,
scooby_state_4540eb|26|18 55,4,7,2,5,2,3,4,2,1,3,7,4,7,8,114,
scooby_state_4540eb|59|45 63,1,4,5,0,5,6,1,3,0,3,5,3,5,10,114,
scooby_state_454151|55|1 114,0,0,0,0,0,0,0,0,0,0,0,0,0,0,114,
scooby_state_4540eb|61|29 69,8,4,2,2,2,2,4,2,0,1,5,4,3,6,114,
scooby_state_4540eb|43|29 63,1,4,4,3,4,2,4,6,4,4,2,4,3,6,114,
scooby_state_454151|54|1 113,0,0,0,0,0,0,0,0,0,0,0,0,0,0,113,
scooby_state_4540eb|62|45 73,5,2,1,3,2,1,5,3,0,7,4,1,5,1,113,
scooby_state_4540eb|28|17 70,2,5,2,2,3,4,3,3,2,1,3,5,3,5,113,
scooby_state_454151|53|1 113,0,0,0,0,0,0,0,0,0,0,0,0,0,0,113,
scooby_state_4540eb|48|17 46,5,3,5,3,5,7,4,4,4,3,5,6,3,10,113,
scooby_state_454159|53|40 76,3,6,2,4,2,3,2,2,1,4,3,0,2,2,112,
scooby_state_454159|52|30 97,1,1,2,0,0,2,0,1,1,1,1,1,1,3,112,
scooby_state_454151|52|1 111,0,0,0,0,0,0,0,0,0,0,0,0,0,0,111,
scooby_state_454159|37|30 95,1,1,1,0,1,2,0,2,1,0,1,1,1,3,110,
scooby_state_454151|51|1 110,0,0,0,0,0,0,0,0,0,0,0,0,0,0,110,
scooby_state_454151|50|1 108,0,0,0,0,0,0,0,0,0,0,0,0,0,0,108,
scooby_state_454159|55|31 82,0,4,4,0,1,3,1,0,2,0,3,0,3,4,107,
scooby_state_454151|49|1 107,0,0,0,0,0,0,0,0,0,0,0,0,0,0,107,
scooby_state_454159|50|46 84,1,1,3,1,0,1,0,1,0,3,1,2,2,6,106,
scooby_state_454151|48|1 105,0,0,0,0,0,0,0,0,0,0,0,0,0,0,105,
scooby_state_454151|47|1 104,0,0,0,0,0,0,0,0,0,0,0,0,0,0,104,
scooby_state_454151|46|1 102,0,0,0,0,0,0,0,0,0,0,0,0,0,0,102,
scooby_state_454151|45|1 100,0,0,0,0,0,0,0,0,0,0,0,0,0,0,100,
scooby_state_454151|44|1 99,0,0,0,0,0,0,0,0,0,0,0,0,0,0,99,
scooby_state_454159|52|46 79,3,1,1,1,0,0,1,0,2,1,1,2,2,4,98,
scooby_state_454159|43|31 73,3,0,2,2,2,1,2,3,0,1,2,3,1,2,97,
scooby_state_454151|43|1 96,0,0,0,0,0,0,0,0,0,0,0,0,0,1,97,
scooby_state_454151|42|1 96,0,0,0,0,0,0,0,0,0,0,0,0,0,0,96,
scooby_state_4540eb|48|45 64,1,1,2,4,3,2,2,1,3,2,0,1,2,7,95,
scooby_state_454151|41|1 95,0,0,0,0,0,0,0,0,0,0,0,0,0,0,95,
scooby_state_454151|40|1 95,0,0,0,0,0,0,0,0,0,0,0,0,0,0,95,
scooby_state_454159|49|31 72,0,2,2,1,2,2,1,3,3,1,1,0,2,1,93,
scooby_state_454159|36|21 78,1,1,1,2,1,0,3,0,1,0,2,1,0,1,92,
scooby_state_454151|38|1 92,0,0,0,0,0,0,0,0,0,0,0,0,0,0,92,
scooby_state_454151|39|1 92,0,0,0,0,0,0,0,0,0,0,0,0,0,0,92,
scooby_state_454151|37|1 90,0,0,0,0,0,0,0,0,0,0,0,0,0,0,90,
scooby_state_454159|52|31 70,2,0,3,2,0,0,1,0,0,2,2,4,1,2,89,
scooby_state_454151|31|1 88,0,0,0,0,0,0,0,0,0,0,0,0,0,0,88,
scooby_state_454159|53|46 72,2,2,1,2,0,1,1,1,0,2,1,0,1,2,88,
scooby_state_454159|53|21 75,1,2,2,1,0,1,0,2,2,0,0,1,1,0,88,
scooby_state_454159|61|0 81,0,1,1,1,0,0,0,0,1,1,1,0,1,0,88,
scooby_state_454151|36|1 87,0,0,0,0,0,0,0,1,0,0,0,0,0,0,88,
scooby_state_454151|34|1 87,1,0,0,0,0,0,0,0,0,0,0,0,0,0,88,
scooby_state_454151|32|1 88,0,0,0,0,0,0,0,0,0,0,0,0,0,0,88,
scooby_state_454151|29|1 88,0,0,0,0,0,0,0,0,0,0,0,0,0,0,88,
scooby_state_454151|27|1 88,0,0,0,0,0,0,0,0,0,0,0,0,0,0,88,
scooby_state_454151|30|1 87,0,0,1,0,0,0,0,0,0,0,0,0,0,0,88,
scooby_state_454151|35|1 88,0,0,0,0,0,0,0,0,0,0,0,0,0,0,88,
scooby_state_454151|33|1 88,0,0,0,0,0,0,0,0,0,0,0,0,0,0,88,
scooby_state_454151|28|1 88,0,0,0,0,0,0,0,0,0,0,0,0,0,0,88,
scooby_state_4540eb|36|29 65,1,1,1,3,0,2,0,1,0,1,4,4,0,4,87,
scooby_state_454159|59|21 77,0,0,0,0,2,1,0,1,1,1,0,1,2,1,87,
scooby_state_4540eb|47|38 76,1,1,0,3,1,0,0,0,0,0,0,1,1,3,87,
scooby_state_454159|60|30 80,0,0,1,0,1,1,0,1,0,0,0,0,0,3,87,
scooby_state_4540eb|55|29 71,0,1,1,0,1,2,1,1,1,2,0,1,2,3,87,
scooby_state_454159|38|21 77,1,0,2,0,1,0,1,2,2,1,0,0,0,0,87,
scooby_state_4540eb|50|39 46,2,2,2,4,1,1,3,3,1,2,5,3,4,8,87,
scooby_state_4540eb|58|45 58,4,2,2,3,0,4,1,1,1,1,3,2,1,4,87,
scooby_state_4540eb|32|20 54,4,3,2,2,1,2,1,2,2,1,4,1,2,6,87,
scooby_state_454159|40|40 59,2,6,2,1,1,1,4,1,0,3,2,2,3,0,87,
scooby_state_4540eb|58|29 81,1,0,1,0,0,0,1,0,1,0,2,0,0,0,87,
scooby_state_4540eb|50|20 67,2,1,2,1,2,0,2,0,2,0,1,1,3,3,87,
scooby_state_4540eb|35|20 61,1,2,4,2,1,3,1,2,3,1,1,0,1,4,87,
scooby_state_454159|44|30 79,2,0,0,0,1,0,0,0,0,0,0,2,0,3,87,
scooby_state_4540eb|55|20 51,3,2,3,1,4,1,4,1,1,3,2,5,2,4,87,
scooby_state_4540eb|30|29 61,0,7,0,2,1,2,1,2,1,0,3,2,4,1,87,
scooby_state_454159|41|40 66,1,0,3,0,3,0,0,2,3,0,0,2,1,6,87,
scooby_state_4540eb|59|58 75,1,0,0,1,1,2,1,0,1,2,0,2,1,0,87,
scooby_state_4540eb|53|44 53,3,1,5,1,0,2,3,1,1,3,1,2,7,4,87,
scooby_state_454151|21|1 87,0,0,0,0,0,0,0,0,0,0,0,0,0,0,87,
scooby_state_454159|31|21 76,0,0,1,0,2,0,0,2,1,0,1,0,2,2,87,
scooby_state_454159|49|46 71,0,3,0,0,2,0,0,0,4,0,3,2,2,0,87,
scooby_state_4540eb|40|28 67,1,2,0,1,1,3,1,2,0,0,2,2,1,4,87,
scooby_state_4540eb|63|39 58,2,3,3,1,1,3,2,1,2,4,1,1,2,3,87,
scooby_state_454151|25|1 87,0,0,0,0,0,0,0,0,0,0,0,0,0,0,87,
scooby_state_454159|51|41 60,3,0,4,4,0,6,1,2,1,2,4,0,0,0,87,
scooby_state_454151|24|1 87,0,0,0,0,0,0,0,0,0,0,0,0,0,0,87,
scooby_state_454159|40|22 56,5,1,2,2,4,1,0,2,0,2,4,3,1,4,87,
scooby_state_454159|49|22 58,4,2,1,2,4,1,0,1,0,2,3,1,2,6,87,
scooby_state_454159|46|41 61,3,1,2,2,2,5,2,0,0,3,3,1,0,2,87,
scooby_state_454159|54|40 64,1,6,0,1,2,2,0,2,2,0,2,2,1,2,87,
scooby_state_454151|26|1 87,0,0,0,0,0,0,0,0,0,0,0,0,0,0,87,
scooby_state_454159|22|21 78,0,0,1,0,0,2,0,1,0,0,3,2,0,0,87,
scooby_state_4540eb|59|38 72,0,2,0,4,2,1,0,0,0,0,0,2,2,2,87,
scooby_state_4540eb|59|28 65,0,2,1,3,3,2,2,1,1,1,1,3,1,1,87,
scooby_state_454159|50|21 78,0,0,0,2,1,0,0,3,0,0,0,0,0,3,87,
scooby_state_4540eb|46|17 52,1,3,3,1,4,3,2,3,2,1,3,1,1,7,87,
scooby_state_454159|43|21 78,0,0,0,2,0,1,0,1,2,0,0,1,1,1,87,
scooby_state_454159|46|21 77,1,2,2,0,0,0,1,1,0,0,1,0,0,2,87,
scooby_state_454151|22|1 87,0,0,0,0,0,0,0,0,0,0,0,0,0,0,87,
scooby_state_4540eb|30|28 46,2,4,2,6,5,1,2,1,3,1,6,1,3,4,87,
scooby_state_4540eb|46|20 65,0,0,1,3,1,3,0,1,1,2,2,2,3,3,87,
scooby_state_454159|59|31 70,2,1,2,1,2,0,1,0,2,2,0,3,0,1,87,
scooby_state_454159|59|40 63,0,5,0,1,2,1,0,3,2,0,3,3,0,4,87,
scooby_state_4540eb|53|28 80,1,0,0,0,1,2,0,1,0,0,0,1,1,0,87,
scooby_state_454159|47|46 72,0,3,0,1,0,1,1,1,4,1,1,0,2,0,87,
scooby_state_454159|62|46 71,1,2,2,2,1,2,2,2,0,0,1,0,1,0,87,
scooby_state_4540eb|59|42 37,6,2,9,6,4,2,2,1,2,3,2,2,5,4,87,
scooby_state_454159|61|40 63,3,4,1,3,2,1,0,1,0,1,1,2,2,3,87,
scooby_state_454151|23|1 87,0,0,0,0,0,0,0,0,0,0,0,0,0,0,87,
scooby_state_454151|20|1 87,0,0,0,0,0,0,0,0,0,0,0,0,0,0,87,
scooby_state_4540eb|41|29 56,6,1,1,2,0,2,2,0,2,3,5,4,0,3,87,
scooby_state_4540eb|46|18 44,2,2,2,3,2,0,7,3,3,3,1,4,4,6,86,
scooby_state_4540eb|41|17 60,3,0,2,1,0,1,4,2,1,0,4,4,0,4,86,
scooby_state_4540eb|38|18 41,3,8,2,1,3,3,1,5,3,4,6,1,3,2,86,
scooby_state_4540eb|54|29 52,4,5,1,1,4,1,0,2,2,2,2,0,2,8,86,
scooby_state_4540eb|62|28 40,2,1,3,5,4,4,2,7,0,3,3,5,3,4,86,
scooby_state_4540eb|46|28 54,3,2,0,1,2,1,1,3,2,3,3,6,2,3,86,
scooby_state_4540eb|55|18 53,1,2,2,3,2,3,4,3,0,2,6,0,3,2,86,
scooby_state_4540eb|47|25 31,5,5,5,2,2,5,5,3,4,4,2,2,4,7,86,
scooby_state_4540eb|45|39 50,1,1,3,2,5,1,4,4,2,2,5,3,0,3,86,
scooby_state_4540eb|62|18 46,3,1,5,2,8,1,4,0,3,2,1,3,2,5,86,
scooby_state_4540eb|47|20 49,3,3,3,3,0,3,1,5,1,3,3,1,2,6,86,
scooby_state_4540eb|44|20 52,5,2,3,3,0,3,1,3,2,1,1,0,4,6,86,
scooby_state_4540eb|56|45 60,0,2,1,1,4,0,2,2,1,3,3,2,4,1,86,
scooby_state_4540eb|42|39 56,2,3,2,1,3,0,1,1,4,2,0,7,1,3,86,
scooby_state_4540eb|62|29 53,4,1,0,1,1,4,3,1,2,3,3,0,3,7,86,
scooby_state_4540eb|44|29 52,5,1,1,1,3,0,3,1,4,2,4,1,2,6,86,
scooby_state_4540eb|45|42 28,2,5,9,3,4,4,2,5,4,2,5,4,4,5,86,
scooby_state_4540eb|61|47 44,3,3,3,1,3,4,1,3,2,0,2,4,6,7,86,
scooby_state_4540eb|59|44 43,2,3,2,1,1,0,5,2,2,2,10,3,5,5,86,
scooby_state_4540eb|31|20 44,5,4,3,1,5,2,6,2,1,0,1,5,2,5,86,
scooby_state_4540eb|58|58 52,5,3,2,1,5,3,0,0,0,2,1,3,3,6,86,
scooby_state_4540eb|38|20 54,1,2,3,3,0,3,3,1,0,2,2,3,3,6,86,
scooby_state_4540eb|44|39 60,1,3,2,3,1,1,1,0,0,0,2,2,2,8,86,
scooby_state_4540eb|61|20 44,3,6,2,1,2,2,1,2,3,2,4,5,7,2,86,
scooby_state_4540eb|58|28 60,3,4,1,0,2,1,3,2,2,1,2,1,1,3,86,
scooby_state_4540eb|37|20 49,1,1,1,3,3,4,4,3,1,2,4,1,3,6,86,
scooby_state_4540eb|27|18 49,2,0,1,6,2,1,2,4,0,3,2,2,8,4,86,
scooby_state_4540eb|33|20 56,2,3,1,1,4,4,3,2,0,4,1,1,2,2,86,
scooby_state_4540eb|21|19 36,3,2,2,4,2,3,5,2,2,4,4,8,5,3,85,
scooby_state_4540eb|49|17 49,2,2,1,2,2,4,0,2,4,1,2,4,2,8,85,
scooby_state_4540eb|44|17 45,2,3,4,3,3,3,2,3,3,4,4,1,2,3,85,
scooby_state_4540eb|18|17 33,4,4,1,3,1,1,3,2,1,3,2,6,4,17,85,
scooby_state_4540eb|31|18 30,3,5,7,8,1,3,4,2,0,3,3,5,5,6,85,
scooby_state_4540eb|58|18 22,4,5,4,6,2,8,3,1,4,3,3,7,2,11,85,
scooby_state_4540eb|30|17 41,2,4,1,1,3,3,4,4,2,4,2,3,2,9,85,
scooby_state_4540eb|47|45 68,2,0,0,2,0,1,2,0,3,2,0,1,1,3,85,
scooby_state_4540eb|46|38 43,3,3,3,1,2,6,2,1,1,1,2,2,5,10,85,
scooby_state_4540eb|62|44 22,7,3,6,3,2,9,2,5,4,5,4,4,3,6,85,
scooby_state_4540eb|29|29 59,1,3,3,1,1,4,0,2,0,0,2,1,1,7,85,
scooby_state_4540eb|56|28 30,5,5,4,5,4,1,3,2,2,2,3,1,6,12,85,
scooby_state_4540eb|51|38 54,3,2,1,4,2,1,2,0,0,0,1,3,1,11,85,
scooby_state_4540eb|40|39 53,4,0,2,1,3,2,1,2,0,1,3,2,6,5,85,
scooby_state_4540eb|39|38 64,1,3,0,1,1,1,0,1,0,1,1,1,0,10,85,
scooby_state_4540eb|17|17 46,2,3,1,5,4,4,3,1,1,5,1,1,3,5,85,
scooby_state_4540eb|49|25 21,9,3,2,1,2,3,4,4,8,5,5,3,3,11,84,
scooby_state_4540eb|60|39 34,3,3,6,1,4,5,5,6,1,2,4,4,3,3,84,
scooby_state_4540eb|61|28 42,3,5,3,3,3,3,2,2,1,0,0,6,1,10,84,
scooby_state_4540eb|57|44 32,5,4,3,7,3,6,2,2,2,4,2,5,2,5,84,
scooby_state_454159|57|40 52,1,5,4,0,2,0,4,0,2,1,2,2,2,0,77,
scooby_state_454159|48|30 66,0,1,0,0,1,0,0,0,1,1,1,0,1,1,73,
scooby_state_454159|49|40 48,0,5,1,0,2,1,2,2,3,0,2,1,1,4,72,
scooby_state_454159|60|21 59,0,0,1,1,2,1,1,0,1,1,1,1,2,0,71,
scooby_state_454159|58|31 53,1,3,1,1,2,1,2,0,0,0,2,0,1,3,70,
scooby_state_454159|33|30 63,0,1,0,0,1,0,0,0,1,1,1,0,1,1,70,
scooby_state_454159|57|21 59,0,0,0,1,1,1,0,1,1,0,1,2,0,1,68,
scooby_state_454159|44|40 46,1,4,2,1,0,1,1,1,1,1,2,2,2,2,67,
scooby_state_454159|50|41 45,2,3,0,3,0,1,1,2,1,0,0,2,0,3,63,
scooby_state_454159|34|31 48,0,3,2,1,0,2,0,2,1,1,0,0,2,0,62,
scooby_state_4540eb|34|25 22,5,3,2,1,2,3,5,2,2,6,1,0,3,4,61,
scooby_state_454159|21|21 52,0,1,1,2,0,0,2,0,0,0,2,1,0,0,61,
scooby_state_454159|38|30 55,0,0,1,0,1,0,0,0,0,1,0,0,0,1,59,
scooby_state_454159|60|41 41,0,3,2,3,1,0,0,0,2,1,2,2,2,0,59,
scooby_state_454159|39|30 55,0,0,1,0,0,0,1,0,0,0,0,0,0,2,59,
scooby_state_454159|54|30 55,0,0,0,0,0,2,0,0,0,0,0,0,0,2,59,
scooby_state_454159|57|30 54,0,0,0,1,0,0,0,0,0,0,1,0,1,1,58,
scooby_state_4540eb|10|-40 4,7,4,3,6,5,2,3,3,3,4,2,3,5,4,58,
scooby_state_454159|62|31 48,0,1,0,1,1,1,1,0,2,0,1,0,1,1,58,
scooby_state_4540eb|57|29 38,0,0,2,1,1,0,0,1,1,5,3,3,0,3,58,
scooby_state_4540eb|59|47 35,0,1,2,2,0,2,2,1,3,1,1,2,1,5,58,
scooby_state_454159|35|31 50,0,0,0,0,0,2,0,0,2,0,0,0,2,2,58,
scooby_state_4540eb|63|59 5,5,3,6,3,4,4,1,5,3,3,4,6,3,3,58,
scooby_state_4540eb|44|44 46,2,1,0,0,0,0,0,1,3,1,1,1,0,2,58,
scooby_state_4540eb|37|18 42,0,2,1,0,1,1,0,3,2,1,2,0,2,1,58,
scooby_state_4540eb|40|19 31,1,5,0,5,3,1,1,0,1,3,2,0,2,3,58,
scooby_state_454159|32|25 42,4,2,1,0,1,1,1,0,1,1,1,0,1,2,58,
scooby_state_454159|43|30 53,0,2,0,0,0,0,0,0,0,2,0,1,0,0,58,
scooby_state_4540eb|44|38 36,3,3,1,2,0,1,3,1,1,0,0,1,4,2,58,
scooby_state_454159|31|30 54,0,0,0,1,0,0,1,0,0,0,0,0,0,2,58,
scooby_state_454159|51|30 50,1,1,0,0,0,0,0,2,0,0,1,1,1,1,58,
scooby_state_4540eb|60|29 31,1,0,2,2,3,1,1,1,2,2,1,3,3,5,58,
scooby_state_454159|31|22 38,3,2,0,1,2,1,0,1,0,1,3,0,2,4,58,
scooby_state_454159|30|22 36,4,1,1,1,2,1,0,2,0,1,4,2,1,2,58,
scooby_state_4540eb|45|27 23,4,1,3,2,2,3,2,3,2,3,1,1,2,6,58,
scooby_state_454159|45|41 41,0,2,2,3,1,0,0,0,2,1,2,2,2,0,58,
scooby_state_4540eb|31|29 43,0,1,0,2,0,2,2,1,1,2,0,1,0,3,58,
scooby_state_454159|47|40 43,2,0,2,1,1,1,0,1,0,1,1,2,2,1,58,
scooby_state_454159|47|21 52,1,0,0,0,0,1,1,0,0,0,1,1,0,1,58,
scooby_state_4540eb|40|25 23,1,1,1,6,3,3,0,0,3,3,6,4,3,1,58,
scooby_state_4540eb|55|45 39,2,0,3,1,0,1,1,2,0,0,2,2,4,1,58,
scooby_state_4540eb|62|39 36,0,3,3,0,0,2,2,1,3,1,1,2,2,2,58,
scooby_state_454159|62|41 38,1,1,1,3,2,1,0,2,3,0,0,2,2,2,58,
scooby_state_454159|40|31 47,0,2,2,0,1,1,1,0,1,1,1,0,1,0,58,
scooby_state_454159|55|21 51,0,1,0,1,0,1,1,0,0,1,2,0,0,0,58,
scooby_state_4540eb|58|38 52,0,0,1,0,0,0,1,0,0,0,1,1,0,2,58,
scooby_state_454159|61|41 41,2,1,1,1,1,3,2,0,0,3,2,1,0,0,58,
scooby_state_4540eb|32|29 54,1,0,0,0,1,0,0,0,0,0,1,0,0,1,58,
scooby_state_454159|44|21 51,0,1,0,1,1,0,1,0,1,1,0,0,1,0,58,
scooby_state_4540eb|57|52 1,3,4,6,3,2,5,2,2,5,5,4,6,7,3,58,
scooby_state_454159|56|30 54,0,0,0,0,0,0,1,0,0,0,1,0,1,1,58,
scooby_state_4540eb|63|51 32,2,1,7,1,1,0,1,1,1,2,2,1,1,5,58,
scooby_state_454159|53|30 54,0,0,1,0,1,0,0,0,0,1,0,0,0,1,58,
scooby_state_454159|48|41 42,0,0,2,0,3,2,0,1,2,0,1,0,3,2,58,
scooby_state_454159|32|22 36,3,1,0,3,1,2,2,2,1,0,2,0,3,2,58,
scooby_state_454159|42|40 44,1,2,4,0,2,1,0,0,0,0,0,3,1,0,58,
scooby_state_454159|58|21 52,1,0,0,1,0,0,1,0,1,1,0,0,0,1,58,
scooby_state_4540eb|21|-29 16,21,0,1,2,0,1,1,2,6,0,1,0,0,7,58,
scooby_state_4540eb|49|45 37,3,3,3,0,0,1,0,0,2,0,3,3,1,2,58,
scooby_state_4540eb|44|43 33,1,1,1,0,2,2,2,2,0,4,1,1,4,4,58,
scooby_state_454159|60|31 47,2,0,0,0,2,0,1,0,1,2,1,1,0,1,58,
scooby_state_454159|37|22 38,0,1,1,2,0,4,3,1,4,0,1,0,2,1,58,
scooby_state_4540eb|52|29 54,0,1,0,1,0,0,0,0,0,0,0,1,1,0,58,
scooby_state_454159|53|45 4,6,8,5,2,2,4,5,2,2,3,4,4,3,4,58,
scooby_state_454159|41|41 41,2,2,0,0,1,1,3,1,1,1,1,1,1,2,58,
scooby_state_454159|58|30 54,0,1,0,0,0,0,1,0,0,1,0,0,0,1,58,
scooby_state_454159|62|22 39,2,2,1,1,3,0,0,1,0,1,2,3,0,3,58,
scooby_state_4540eb|40|38 31,1,1,3,3,2,4,0,1,1,1,2,1,1,6,58,
scooby_state_4540eb|32|17 53,0,0,0,0,0,0,0,0,2,0,0,1,2,0,58,
scooby_state_454159|23|21 52,0,0,1,0,1,0,0,2,1,0,0,0,1,0,58,
scooby_state_454159|46|30 54,0,0,0,1,0,0,1,0,0,0,0,0,0,2,58,
scooby_state_4540eb|10|-44 30,2,12,0,0,1,1,1,1,2,2,3,0,2,1,58,
scooby_state_454159|55|40 44,1,2,1,1,0,1,0,1,0,1,2,2,0,2,58,
scooby_state_4540eb|39|25 29,0,4,3,3,3,2,2,3,1,1,0,3,1,3,58,
scooby_state_454159|50|40 43,0,2,2,1,1,2,2,1,0,0,1,1,2,0,58,
scooby_state_454159|60|46 48,2,0,1,1,0,0,1,0,0,2,1,0,1,1,58,
scooby_state_454159|56|31 46,0,0,1,2,0,0,0,3,0,2,0,3,1,0,58,
scooby_state_454159|44|41 41,1,1,2,0,0,0,0,1,1,2,1,3,2,3,58,
scooby_state_4540eb|63|45 51,0,1,0,0,0,3,0,0,0,0,0,1,0,2,58,
scooby_state_4540eb|55|42 18,2,4,9,2,0,2,2,1,2,4,2,2,3,5,58,
scooby_state_454159|54|17 2,6,3,7,3,1,3,4,4,1,5,6,3,4,6,58,
scooby_state_4540eb|54|47 30,0,1,2,1,1,2,1,1,1,1,2,4,4,7,58,
scooby_state_4540eb|26|20 22,1,2,4,1,3,3,2,5,3,6,1,1,2,2,58,
scooby_state_4540eb|43|39 36,2,3,0,0,0,2,2,3,2,0,1,4,0,3,58,
scooby_state_454159|47|44 5,4,4,3,2,4,4,4,4,3,3,5,4,4,5,58,
scooby_state_454159|55|22 36,4,1,1,1,2,1,0,2,0,1,4,2,1,2,58,
scooby_state_454159|34|30 54,0,0,1,0,0,0,1,0,1,0,0,0,0,1,58,
scooby_state_4540eb|27|25 21,1,3,3,3,5,3,4,4,0,0,3,5,1,2,58,
scooby_state_4540eb|62|43 31,2,3,3,1,1,2,0,3,2,2,2,3,3,0,58,
scooby_state_454159|56|41 42,2,2,0,0,0,0,2,2,0,0,1,1,1,5,58,
scooby_state_454159|63|31 46,0,1,0,2,0,2,0,5,0,0,0,0,2,0,58,
scooby_state_454159|29|21 51,0,1,0,1,0,1,1,0,0,1,1,0,0,1,58,
scooby_state_454159|62|21 52,1,0,0,0,0,1,1,0,0,1,1,0,0,1,58,
scooby_state_454159|18|17 6,2,4,10,4,2,2,4,0,4,0,0,12,2,6,58,
scooby_state_454159|51|40 42,0,0,0,1,1,1,2,2,2,0,1,0,2,4,58,
scooby_state_454159|35|30 54,0,0,0,0,1,0,1,0,0,0,0,0,0,2,58,
scooby_state_4540eb|50|28 45,1,0,1,0,1,2,1,1,0,1,0,1,1,2,57,
scooby_state_4540eb|31|28 38,1,3,1,0,3,1,1,1,0,1,1,0,1,5,57,
scooby_state_4540eb|40|20 29,4,3,0,5,2,0,0,3,1,0,0,2,1,7,57,
scooby_state_4540eb|53|38 45,1,1,0,0,1,1,0,0,0,0,0,0,0,8,57,
scooby_state_4540eb|53|18 37,1,1,0,0,4,1,2,2,2,1,1,2,0,3,57,
scooby_state_4540eb|42|20 42,0,1,1,1,0,1,2,0,0,0,0,4,1,4,57,
scooby_state_4540eb|41|39 37,1,2,2,1,0,0,0,0,2,1,2,3,3,3,57,
scooby_state_4540eb|42|18 13,0,1,6,0,3,7,1,1,6,1,4,4,3,7,57,
scooby_state_4540eb|21|17 37,0,2,0,0,0,0,1,1,0,1,1,4,2,8,57,
scooby_state_4540eb|49|47 17,6,2,1,3,1,3,2,3,4,3,3,1,5,3,57,
scooby_state_4540eb|43|38 39,0,0,0,3,1,0,0,0,0,1,4,0,1,8,57,
scooby_state_4540eb|34|18 31,2,1,2,1,4,2,1,2,0,2,5,1,2,1,57,
scooby_state_4540eb|62|38 33,1,2,1,1,0,2,3,1,0,3,0,1,4,5,57,
scooby_state_4540eb|28|25 18,6,2,1,2,0,2,2,2,5,2,3,2,4,6,57,
scooby_state_4540eb|46|45 25,1,4,2,0,1,1,2,0,4,0,5,5,2,5,57,
scooby_state_4540eb|48|29 41,1,1,0,1,0,2,0,0,1,1,1,2,3,3,57,
scooby_state_4540eb|59|18 20,4,0,3,3,3,0,2,3,2,3,3,2,3,6,57,
scooby_state_4540eb|21|20 33,2,2,2,1,0,2,2,3,2,2,2,4,0,0,57,
scooby_state_4540eb|33|29 40,0,2,0,1,0,2,0,4,0,1,2,1,0,4,57,
scooby_state_4540eb|60|28 43,1,0,1,0,1,0,0,0,0,1,0,0,2,8,57,
scooby_state_4540eb|58|17 31,3,3,0,1,2,0,1,2,1,1,1,3,3,5,57,
scooby_state_4540eb|57|45 24,3,4,1,4,3,1,2,2,2,1,2,2,3,3,57,
scooby_state_4540eb|3|-48 0,3,5,2,3,4,3,4,1,4,5,9,5,5,4,57,
scooby_state_4540eb|57|38 39,1,1,0,3,1,1,1,1,0,1,0,0,3,5,57,
scooby_state_4540eb|11|-49 29,5,1,2,1,3,3,1,2,0,1,2,3,0,4,57,
scooby_state_4540eb|46|43 19,4,1,6,4,6,1,0,3,3,0,4,1,2,3,57,
scooby_state_4540eb|34|28 30,2,4,3,1,3,1,0,1,2,2,1,1,2,4,57,
scooby_state_4540eb|41|38 31,1,3,1,1,1,2,0,3,1,0,3,4,2,4,57,
scooby_state_4540eb|56|17 35,1,1,1,3,0,1,1,0,2,0,1,5,1,5,57,
scooby_state_4540eb|45|17 35,1,2,1,0,0,1,2,2,2,1,1,3,1,5,57,
scooby_state_4540eb|24|20 35,3,2,2,4,0,1,1,2,2,2,1,1,0,1,57,
scooby_state_4540eb|39|18 18,5,7,1,2,3,1,1,1,1,1,1,4,3,8,57,
scooby_state_4540eb|49|39 40,0,3,2,1,0,2,1,1,0,0,3,0,1,3,57,
scooby_state_4540eb|36|28 34,1,1,2,1,2,0,1,0,0,0,3,0,2,10,57,
scooby_state_4540eb|57|28 41,2,1,2,0,1,2,4,0,0,0,1,0,0,3,57,
scooby_state_4540eb|54|42 21,3,6,9,0,1,5,3,0,2,2,2,1,1,1,57,
scooby_state_4540eb|62|42 17,1,2,4,4,4,1,2,2,2,1,3,4,3,7,57,
scooby_state_4540eb|58|20 37,1,1,0,3,2,0,0,1,2,1,0,3,1,5,57,
scooby_state_4540eb|53|17 35,1,2,0,2,0,1,0,1,0,1,4,3,1,6,57,
scooby_state_4540eb|26|17 31,2,4,1,0,2,2,2,1,0,2,3,2,2,3,57,
scooby_state_4540eb|42|29 31,2,3,2,2,1,2,0,1,2,1,3,2,2,3,57,
scooby_state_4540eb|51|44 35,1,1,1,2,3,2,0,1,1,3,1,2,1,3,57,
scooby_state_4540eb|48|39 25,1,3,1,2,0,3,3,2,5,3,2,2,2,3,57,
scooby_state_4540eb|62|20 37,0,1,2,2,0,1,3,2,1,0,1,0,4,3,57,
scooby_state_4540eb|61|43 22,3,4,6,4,0,0,1,2,1,1,3,3,2,5,57,
scooby_state_4540eb|45|43 28,2,1,4,2,4,0,0,4,3,0,3,0,3,3,57,
scooby_state_4540eb|58|43 16,5,5,0,1,1,1,1,3,5,1,5,7,1,5,57,
scooby_state_4540eb|47|17 37,2,0,3,1,1,2,2,1,1,0,3,0,1,3,57,
scooby_state_4540eb|51|18 14,2,2,2,3,3,2,1,5,7,3,2,4,3,3,56,
scooby_state_4540eb|50|44 30,1,3,3,0,3,2,0,1,1,2,1,2,4,3,56,
scooby_state_4540eb|61|44 17,2,3,2,1,6,0,4,3,2,1,5,2,3,5,56,
scooby_state_4540eb|58|47 17,2,3,2,3,2,1,6,0,1,1,1,3,4,10,56,
scooby_state_4540eb|43|42 11,1,3,3,5,3,3,3,3,0,1,5,4,6,5,56,
scooby_state_4540eb|48|43 13,2,2,4,3,4,2,5,3,3,5,2,3,2,3,56,
scooby_state_4540eb|51|28 28,1,1,0,2,0,1,2,0,1,0,2,2,5,11,56,
scooby_state_4540eb|49|32 3,3,5,7,2,7,4,4,3,3,2,6,2,2,3,56,
scooby_state_44e600|24|1 3,2,4,1,1,5,6,5,6,6,5,3,3,1,5,56,
scooby_state_54060a|24|1 1,2,1,2,2,5,2,2,3,5,2,17,6,2,4,56,
scooby_state_4540eb|60|43 12,4,1,3,3,2,8,3,2,2,2,3,1,5,5,56,
scooby_state_444601|24|1 15,1,2,7,1,3,1,4,1,1,6,8,2,1,2,55,
scooby_state_405620|24|0 13,0,6,0,2,0,2,0,2,3,0,2,18,2,5,55,
scooby_state_44d5cf|23|0 52,0,0,0,0,0,0,0,0,0,0,1,0,0,0,53,
scooby_state_558f9e|1|1 53,0,0,0,0,0,0,0,0,0,0,0,0,0,0,53,
scooby_state_5555d0|23|0 53,0,0,0,0,0,0,0,0,0,0,0,0,0,0,53,
scooby_state_56b605|24|1 25,0,0,0,0,0,0,0,0,0,0,0,0,28,0,53,
scooby_state_4455e0|23|0 27,0,0,25,0,0,0,0,0,0,0,0,0,0,0,52,
scooby_state_558f9e|10|1 52,0,0,0,0,0,0,0,0,0,0,0,0,0,0,52,
scooby_state_400600|24|1 4,0,0,0,8,2,1,6,1,7,10,2,3,2,6,52,
scooby_state_56a600|24|1 51,1,0,0,0,0,0,0,0,0,0,0,0,0,0,52,
scooby_state_454159|25|21 38,0,1,0,0,2,1,0,0,1,0,0,3,2,3,51,
scooby_state_44592f|11|1 51,0,0,0,0,0,0,0,0,0,0,0,0,0,0,51,
scooby_state_454159|50|38 12,0,2,6,0,2,0,5,3,2,3,5,5,3,2,50,
scooby_state_441a3b|0|0 48,0,0,1,0,0,0,0,0,0,0,0,0,0,0,49,
scooby_state_441a3b|1|1 46,0,0,0,0,0,0,0,0,0,0,0,0,0,0,46,
scooby_state_454159|51|22 24,0,1,1,3,0,2,3,3,2,0,1,2,2,1,45,
scooby_state_441a3b|11|1 44,0,0,0,0,0,0,0,0,0,0,0,0,0,0,44,
scooby_state_441d52|34|0 2,34,0,1,0,0,0,0,1,0,2,1,0,3,0,44,
scooby_state_454159|36|22 23,0,1,1,3,0,2,3,3,2,0,0,2,2,1,43,
scooby_state_454159|59|41 25,1,1,1,0,2,1,3,0,1,1,0,2,1,1,40,
scooby_state_441a3b|10|1 39,0,0,0,0,0,0,0,0,0,0,0,0,0,0,39,
scooby_state_56a5f0|23|0 30,1,0,1,0,1,0,3,0,0,1,0,0,1,0,38,
scooby_state_4540eb|50|38 26,0,2,1,1,0,1,0,1,3,0,1,0,0,2,38,
scooby_state_5901a3|0|-3 20,1,0,1,3,1,0,1,1,1,2,2,1,1,3,38,
scooby_state_4540eb|38|37 12,1,3,3,1,1,4,0,2,3,1,2,1,1,2,37,
scooby_state_441a3b|58|1 36,0,0,0,0,0,0,0,0,0,0,0,0,0,0,36,
scooby_state_558f9e|26|3 36,0,0,0,0,0,0,0,0,0,0,0,0,0,0,36,
scooby_state_441a3b|59|1 36,0,0,0,0,0,0,0,0,0,0,0,0,0,0,36,
scooby_state_558f9e|60|1 35,0,0,0,0,0,0,0,0,0,0,0,0,0,0,35,
scooby_state_5555f3|9|0 2,1,1,0,2,1,1,2,1,3,2,8,5,3,2,34,
scooby_state_54502b|1|1 0,33,0,0,0,0,0,0,0,0,0,0,0,0,0,33,
scooby_state_558f9e|0|-31 32,0,0,0,0,0,0,0,0,0,0,0,0,0,0,32,
scooby_state_558f9e|9|1 32,0,0,0,0,0,0,0,0,0,0,0,0,0,0,32,
scooby_state_558f9e|6|1 32,0,0,0,0,0,0,0,0,0,0,0,0,0,0,32,
scooby_state_558f9e|5|1 31,0,0,0,0,0,0,0,0,0,0,0,0,0,0,31,
scooby_state_558f9e|4|1 31,0,0,0,0,0,0,0,0,0,0,0,0,0,0,31,
scooby_state_441d28|13|0 6,3,1,1,1,1,0,0,1,3,3,3,2,2,4,31,
scooby_state_40f823|58|0 3,2,2,2,1,1,1,2,2,2,2,2,2,2,5,31,
scooby_state_441a3b|60|1 31,0,0,0,0,0,0,0,0,0,0,0,0,0,0,31,
scooby_state_4455ea|39|0 31,0,0,0,0,0,0,0,0,0,0,0,0,0,0,31,
scooby_state_5405d0|23|0 30,0,0,0,0,0,0,0,0,0,0,0,0,0,0,30,
scooby_state_454159|59|43 25,0,0,0,0,0,0,0,3,0,0,0,0,0,2,30,
[...]
scooby_state_43f5c0|23|-2 1,0,0,0,0,0,0,0,0,0,0,0,0,0,0,1,
scooby_state_43f64b|25|1 1,0,0,0,0,0,0,0,0,0,0,0,0,0,0,1,
scooby_state_45ee6b|49|14 0,0,1,0,0,0,0,0,0,0,0,0,0,0,0,1,
scooby_state_46d64a|52|-3 0,0,0,0,0,0,1,0,0,0,0,0,0,0,0,1,
scooby_state_45eeb8|13|0 1,0,0,0,0,0,0,0,0,0,0,0,0,0,0,1,
scooby_state_447a85|38|-18 0,0,1,0,0,0,0,0,0,0,0,0,0,0,0,1,
scooby_state_45f08d|22|-34 0,0,0,0,1,0,0,0,0,0,0,0,0,0,0,1,
scooby_state_4532d9|22|-11 0,0,0,1,0,0,0,0,0,0,0,0,0,0,0,1,
scooby_state_558f9e|60|0 1,0,0,0,0,0,0,0,0,0,0,0,0,0,0,1,
scooby_state_451882|14|1 0,0,0,0,0,0,0,0,0,0,0,1,0,0,0,1,
scooby_state_40fd47|53|1 1,0,0,0,0,0,0,0,0,0,0,0,0,0,0,1,
scooby_state_44e194|12|11 0,0,0,1,0,0,0,0,0,0,0,0,0,0,0,1,
scooby_state_473264|13|11 1,0,0,0,0,0,0,0,0,0,0,0,0,0,0,1,
scooby_state_447a8e|36|-4 0,1,0,0,0,0,0,0,0,0,0,0,0,0,0,1,
scooby_state_453110|4|0 1,0,0,0,0,0,0,0,0,0,0,0,0,0,0,1,
scooby_state_4552c0|63|1 0,0,1,0,0,0,0,0,0,0,0,0,0,0,0,1,
scooby_state_44e494|34|4 0,0,1,0,0,0,0,0,0,0,0,0,0,0,0,1,
scooby_state_442233|8|0 1,0,0,0,0,0,0,0,0,0,0,0,0,0,0,1,
scooby_state_45ee80|59|42 0,0,1,0,0,0,0,0,0,0,0,0,0,0,0,1,
scooby_state_45ee6b|31|-1 0,0,0,1,0,0,0,0,0,0,0,0,0,0,0,1,
scooby_state_447a8e|31|5 0,1,0,0,0,0,0,0,0,0,0,0,0,0,0,1,
scooby_state_45eea7|12|-35 1,0,0,0,0,0,0,0,0,0,0,0,0,0,0,1,
scooby_state_442800|32|-2 1,0,0,0,0,0,0,0,0,0,0,0,0,0,0,1,
scooby_state_4431a5|6|0 1,0,0,0,0,0,0,0,0,0,0,0,0,0,0,1,
scooby_state_4562f8|11|1 1,0,0,0,0,0,0,0,0,0,0,0,0,0,0,1,
scooby_state_40f69b|60|11 0,0,0,0,1,0,0,0,0,0,0,0,0,0,0,1,
scooby_state_454159|15|7 1,0,0,0,0,0,0,0,0,0,0,0,0,0,0,1,
scooby_state_453ba8|17|-22 1,0,0,0,0,0,0,0,0,0,0,0,0,0,0,1,
scooby_state_558f9a|6|3 0,0,1,0,0,0,0,0,0,0,0,0,0,0,0,1,
scooby_state_56a760|34|7 0,0,0,0,0,0,0,0,1,0,0,0,0,0,0,1,
scooby_state_539980|38|2 1,0,0,0,0,0,0,0,0,0,0,0,0,0,0,1,
scooby_state_5928d0|35|0 0,0,1,0,0,0,0,0,0,0,0,0,0,0,0,1,
scooby_state_42ed01|52|5 0,0,0,0,0,0,0,0,0,0,0,0,1,0,0,1,
scooby_state_40d540|21|1 0,1,0,0,0,0,0,0,0,0,0,0,0,0,0,1,
scooby_state_453ba8|14|-21 1,0,0,0,0,0,0,0,0,0,0,0,0,0,0,1,
scooby_state_456198|5|3 1,0,0,0,0,0,0,0,0,0,0,0,0,0,0,1,
scooby_state_454159|50|43 1,0,0,0,0,0,0,0,0,0,0,0,0,0,0,1,
scooby_state_558f9a|9|3 0,0,1,0,0,0,0,0,0,0,0,0,0,0,0,1,
scooby_state_4552d0|11|1 1,0,0,0,0,0,0,0,0,0,0,0,0,0,0,1,
scooby_state_44e5ed|29|1 0,0,1,0,0,0,0,0,0,0,0,0,0,0,0,1,
scooby_state_558f9a|36|1 1,0,0,0,0,0,0,0,0,0,0,0,0,0,0,1,
scooby_state_45eea0|13|-1 1,0,0,0,0,0,0,0,0,0,0,0,0,0,0,1,
scooby_state_454118|53|-1 0,1,0,0,0,0,0,0,0,0,0,0,0,0,0,1,
scooby_state_45fe42|0|0 0,0,0,0,0,0,1,0,0,0,0,0,0,0,0,1,
scooby_state_441a3b|9|4 1,0,0,0,0,0,0,0,0,0,0,0,0,0,0,1,
scooby_state_559212|62|4 0,0,1,0,0,0,0,0,0,0,0,0,0,0,0,1,
scooby_state_447a85|0|0 1,0,0,0,0,0,0,0,0,0,0,0,0,0,0,1,
scooby_state_4532d9|13|6 0,0,0,1,0,0,0,0,0,0,0,0,0,0,0,1,
scooby_state_447a8e|23|-15 0,1,0,0,0,0,0,0,0,0,0,0,0,0,0,1,
scooby_state_45ee6b|54|8 0,0,0,0,0,0,1,0,0,0,0,0,0,0,0,1,
scooby_state_45528e|27|-1 0,1,0,0,0,0,0,0,0,0,0,0,0,0,0,1,
scooby_state_451882|33|2 1,0,0,0,0,0,0,0,0,0,0,0,0,0,0,1,
scooby_state_5405e9|12|0 1,0,0,0,0,0,0,0,0,0,0,0,0,0,0,1,
scooby_state_558f9a|22|1 0,0,1,0,0,0,0,0,0,0,0,0,0,0,0,1,
scooby_state_44e194|37|13 0,0,1,0,0,0,0,0,0,0,0,0,0,0,0,1,
scooby_state_45f089|28|-1 1,0,0,0,0,0,0,0,0,0,0,0,0,0,0,1,
scooby_state_42eb40|45|1 1,0,0,0,0,0,0,0,0,0,0,0,0,0,0,1,
scooby_state_45ee6b|4|0 0,0,0,0,0,0,0,0,0,0,0,1,0,0,0,1,
scooby_state_447a8e|31|2 0,1,0,0,0,0,0,0,0,0,0,0,0,0,0,1,
scooby_state_447a8e|0|-5 0,1,0,0,0,0,0,0,0,0,0,0,0,0,0,1,
scooby_state_4552c0|48|-2 0,0,1,0,0,0,0,0,0,0,0,0,0,0,0,1,
scooby_state_447a85|37|0 0,0,1,0,0,0,0,0,0,0,0,0,0,0,0,1,
scooby_state_539860|33|0 1,0,0,0,0,0,0,0,0,0,0,0,0,0,0,1,
scooby_state_454118|22|-2 0,1,0,0,0,0,0,0,0,0,0,0,0,0,0,1,
scooby_state_4540c0|3|-4 1,0,0,0,0,0,0,0,0,0,0,0,0,0,0,1,
scooby_state_56a9cf|45|8 0,0,0,0,0,0,1,0,0,0,0,0,0,0,0,1,
scooby_state_447a85|22|14 0,0,1,0,0,0,0,0,0,0,0,0,0,0,0,1,
scooby_state_447a64|18|-5 0,0,0,0,0,0,0,1,0,0,0,0,0,0,0,1,
scooby_state_454118|48|-1 0,1,0,0,0,0,0,0,0,0,0,0,0,0,0,1,
scooby_state_53e3b8|13|0 0,0,1,0,0,0,0,0,0,0,0,0,0,0,0,1,
scooby_state_537740|29|1 0,1,0,0,0,0,0,0,0,0,0,0,0,0,0,1,
scooby_state_40ad10|52|0 0,0,0,0,0,0,0,0,0,0,0,0,0,1,0,1,
scooby_state_447a85|63|14 0,0,1,0,0,0,0,0,0,0,0,0,0,0,0,1,
scooby_state_454118|59|-2 0,1,0,0,0,0,0,0,0,0,0,0,0,0,0,1,
scooby_state_46d601|24|-5 0,0,0,0,0,1,0,0,0,0,0,0,0,0,0,1,
scooby_state_5405e9|40|7 1,0,0,0,0,0,0,0,0,0,0,0,0,0,0,1,
scooby_state_447a8e|50|2 0,1,0,0,0,0,0,0,0,0,0,0,0,0,0,1,
scooby_state_456331|42|1 0,0,0,1,0,0,0,0,0,0,0,0,0,0,0,1,
scooby_state_5376c9|27|1 1,0,0,0,0,0,0,0,0,0,0,0,0,0,0,1,
scooby_state_4552c0|19|-2 0,0,1,0,0,0,0,0,0,0,0,0,0,0,0,1,
scooby_state_58c284|10|1 1,0,0,0,0,0,0,0,0,0,0,0,0,0,0,1,
scooby_state_4552c0|12|-2 1,0,0,0,0,0,0,0,0,0,0,0,0,0,0,1,
scooby_state_558f9a|4|4 1,0,0,0,0,0,0,0,0,0,0,0,0,0,0,1,
scooby_state_44e494|26|3 1,0,0,0,0,0,0,0,0,0,0,0,0,0,0,1,
scooby_state_447a8e|36|-15 0,1,0,0,0,0,0,0,0,0,0,0,0,0,0,1,
scooby_state_46d64a|19|7 1,0,0,0,0,0,0,0,0,0,0,0,0,0,0,1,
scooby_state_46d64a|22|-8 0,0,0,0,0,1,0,0,0,0,0,0,0,0,0,1,
scooby_state_447a40|15|15 0,0,0,0,0,0,0,0,0,0,1,0,0,0,0,1,
scooby_state_447a40|19|-16 0,0,0,0,0,0,0,0,0,0,0,0,0,1,0,1,
scooby_state_53e3b8|54|0 0,0,1,0,0,0,0,0,0,0,0,0,0,0,0,1,
scooby_state_46d64a|49|-3 0,0,0,0,0,0,1,0,0,0,0,0,0,0,0,1,
scooby_state_4552c0|36|-1 0,0,1,0,0,0,0,0,0,0,0,0,0,0,0,1,
scooby_state_473264|2|-42 1,0,0,0,0,0,0,0,0,0,0,0,0,0,0,1,
scooby_state_47328b|38|0 1,0,0,0,0,0,0,0,0,0,0,0,0,0,0,1,
scooby_state_457481|18|1 1,0,0,0,0,0,0,0,0,0,0,0,0,0,0,1,
scooby_state_53ff82|62|1 1,0,0,0,0,0,0,0,0,0,0,0,0,0,0,1,
scooby_state_44e494|6|-3 1,0,0,0,0,0,0,0,0,0,0,0,0,0,0,1,
scooby_state_442300|12|4 1,0,0,0,0,0,0,0,0,0,0,0,0,0,0,1,
scooby_state_44e5c4|58|-2 0,0,0,0,0,0,0,0,1,0,0,0,0,0,0,1,
scooby_state_473264|37|11 1,0,0,0,0,0,0,0,0,0,0,0,0,0,0,1,
scooby_state_5405e9|37|-12 1,0,0,0,0,0,0,0,0,0,0,0,0,0,0,1,
scooby_state_441a5f|31|20 1,0,0,0,0,0,0,0,0,0,0,0,0,0,0,1,
scooby_state_536ec3|59|1 0,0,0,0,0,0,0,0,0,0,0,1,0,0,0,1,
scooby_state_5405e9|43|8 1,0,0,0,0,0,0,0,0,0,0,0,0,0,0,1,
scooby_state_40f7c1|31|1 0,1,0,0,0,0,0,0,0,0,0,0,0,0,0,1,
scooby_state_558f9a|7|3 0,0,1,0,0,0,0,0,0,0,0,0,0,0,0,1,
scooby_state_447a64|18|-4 0,0,0,0,0,0,0,1,0,0,0,0,0,0,0,1,
scooby_state_4552c0|55|-2 0,0,1,0,0,0,0,0,0,0,0,0,0,0,0,1,
scooby_state_45fdff|2|-1 0,0,0,0,0,1,0,0,0,0,0,0,0,0,0,1,
scooby_state_45eeb8|25|12 1,0,0,0,0,0,0,0,0,0,0,0,0,0,0,1,
scooby_state_591326|12|-20 1,0,0,0,0,0,0,0,0,0,0,0,0,0,0,1,
scooby_state_4532d9|27|-11 0,0,0,0,0,0,0,0,0,0,0,0,0,1,0,1,
scooby_state_4532d9|24|-11 0,0,0,1,0,0,0,0,0,0,0,0,0,0,0,1,
scooby_state_451882|61|2 0,0,1,0,0,0,0,0,0,0,0,0,0,0,0,1,
scooby_state_45ee6b|35|11 0,0,0,0,0,0,1,0,0,0,0,0,0,0,0,1,
scooby_state_4422c8|11|-1 1,0,0,0,0,0,0,0,0,0,0,0,0,0,0,1,
scooby_state_448b5a|2|-25 1,0,0,0,0,0,0,0,0,0,0,0,0,0,0,1,
scooby_state_4552b0|50|3 1,0,0,0,0,0,0,0,0,0,0,0,0,0,0,1,
scooby_state_447a8e|10|5 0,1,0,0,0,0,0,0,0,0,0,0,0,0,0,1,
scooby_state_4537e7|18|7 1,0,0,0,0,0,0,0,0,0,0,0,0,0,0,1,
scooby_state_45ee80|23|0 0,0,0,0,0,0,0,0,0,1,0,0,0,0,0,1,
scooby_state_53ca02|40|1 1,0,0,0,0,0,0,0,0,0,0,0,0,0,0,1,
scooby_state_4552c0|27|-2 1,0,0,0,0,0,0,0,0,0,0,0,0,0,0,1,
scooby_state_400530|20|-4 1,0,0,0,0,0,0,0,0,0,0,0,0,0,0,1,
scooby_state_447a64|0|-5 0,0,0,0,0,0,0,1,0,0,0,0,0,0,0,1,
scooby_state_44e194|55|14 0,0,1,0,0,0,0,0,0,0,0,0,0,0,0,1,
scooby_state_441a5f|26|2 1,0,0,0,0,0,0,0,0,0,0,0,0,0,0,1,
scooby_state_56a9cf|48|0 1,0,0,0,0,0,0,0,0,0,0,0,0,0,0,1,
scooby_state_44e4bd|5|-3 1,0,0,0,0,0,0,0,0,0,0,0,0,0,0,1,
scooby_state_456171|4|-6 1,0,0,0,0,0,0,0,0,0,0,0,0,0,0,1,
scooby_state_558f9a|2|1 0,0,0,0,1,0,0,0,0,0,0,0,0,0,0,1,
scooby_state_54500a|35|1 1,0,0,0,0,0,0,0,0,0,0,0,0,0,0,1,
scooby_state_44d5d9|4|-1 1,0,0,0,0,0,0,0,0,0,0,0,0,0,0,1,
scooby_state_4552c0|59|-2 0,0,1,0,0,0,0,0,0,0,0,0,0,0,0,1,
scooby_state_40f881|34|1 1,0,0,0,0,0,0,0,0,0,0,0,0,0,0,1,
scooby_state_4552c0|21|-1 0,0,1,0,0,0,0,0,0,0,0,0,0,0,0,1,
scooby_state_454159|49|1 1,0,0,0,0,0,0,0,0,0,0,0,0,0,0,1,
scooby_state_44e5c4|35|-1 0,0,0,1,0,0,0,0,0,0,0,0,0,0,0,1,
scooby_state_4532d9|39|14 0,0,0,1,0,0,0,0,0,0,0,0,0,0,0,1,
scooby_state_456198|26|3 1,0,0,0,0,0,0,0,0,0,0,0,0,0,0,1,
scooby_state_45fe0d|6|2 0,0,0,1,0,0,0,0,0,0,0,0,0,0,0,1,
scooby_state_473264|58|11 1,0,0,0,0,0,0,0,0,0,0,0,0,0,0,1,
scooby_state_447a85|49|0 0,0,1,0,0,0,0,0,0,0,0,0,0,0,0,1,
scooby_state_448b5a|37|-25 1,0,0,0,0,0,0,0,0,0,0,0,0,0,0,1,
scooby_state_453ba8|7|-22 0,0,0,0,0,0,0,0,0,0,0,0,0,1,0,1,
scooby_state_473264|32|12 1,0,0,0,0,0,0,0,0,0,0,0,0,0,0,1,
scooby_state_5928d0|35|33 0,0,1,0,0,0,0,0,0,0,0,0,0,0,0,1,
scooby_state_454159|21|7 1,0,0,0,0,0,0,0,0,0,0,0,0,0,0,1,
scooby_state_4532d9|30|-11 1,0,0,0,0,0,0,0,0,0,0,0,0,0,0,1,
scooby_state_47326e|30|-1 0,0,0,1,0,0,0,0,0,0,0,0,0,0,0,1,
scooby_state_4552b0|10|-9 1,0,0,0,0,0,0,0,0,0,0,0,0,0,0,1,
scooby_state_53e804|32|1 0,0,0,0,1,0,0,0,0,0,0,0,0,0,0,1,
scooby_state_45fe42|44|0 0,0,0,0,1,0,0,0,0,0,0,0,0,0,0,1,
scooby_state_558f9e|23|6 1,0,0,0,0,0,0,0,0,0,0,0,0,0,0,1,
scooby_state_447a39|47|-1 1,0,0,0,0,0,0,0,0,0,0,0,0,0,0,1,
scooby_state_45ce40|57|1 1,0,0,0,0,0,0,0,0,0,0,0,0,0,0,1,
scooby_state_45ee6b|20|-1 0,0,0,0,0,0,0,0,0,0,0,0,0,0,1,1,
scooby_state_558f9a|22|3 0,0,0,0,0,0,1,0,0,0,0,0,0,0,0,1,
scooby_state_457441|17|1 1,0,0,0,0,0,0,0,0,0,0,0,0,0,0,1,
scooby_state_44e4bd|14|4 1,0,0,0,0,0,0,0,0,0,0,0,0,0,0,1,
scooby_state_447a64|28|-4 0,1,0,0,0,0,0,0,0,0,0,0,0,0,0,1,
scooby_state_45fdff|10|-1 0,0,0,0,0,0,0,0,0,1,0,0,0,0,0,1,
scooby_state_4552b0|38|2 1,0,0,0,0,0,0,0,0,0,0,0,0,0,0,1,
scooby_state_453350|13|2 1,0,0,0,0,0,0,0,0,0,0,0,0,0,0,1,
scooby_state_53ea9c|29|-5 0,0,0,0,0,0,0,0,0,0,0,0,1,0,0,1,
scooby_state_5405e9|25|-11 1,0,0,0,0,0,0,0,0,0,0,0,0,0,0,1,
scooby_state_558f9e|63|51 1,0,0,0,0,0,0,0,0,0,0,0,0,0,0,1,
scooby_state_447a8e|51|51 0,1,0,0,0,0,0,0,0,0,0,0,0,0,0,1,
scooby_state_4561ac|7|1 0,0,1,0,0,0,0,0,0,0,0,0,0,0,0,1,
scooby_state_58b8d0|35|2 1,0,0,0,0,0,0,0,0,0,0,0,0,0,0,1,
scooby_state_473264|51|15 1,0,0,0,0,0,0,0,0,0,0,0,0,0,0,1,
scooby_state_40f4a0|18|-19 1,0,0,0,0,0,0,0,0,0,0,0,0,0,0,1,
scooby_state_451882|47|1 0,0,0,0,0,0,0,0,0,1,0,0,0,0,0,1,
scooby_state_57ce01|56|1 1,0,0,0,0,0,0,0,0,0,0,0,0,0,0,1,
scooby_state_454151|56|0 1,0,0,0,0,0,0,0,0,0,0,0,0,0,0,1,
scooby_state_558f9e|11|0 1,0,0,0,0,0,0,0,0,0,0,0,0,0,0,1,
scooby_state_454159|53|3 1,0,0,0,0,0,0,0,0,0,0,0,0,0,0,1,
scooby_state_447a8e|38|1 0,1,0,0,0,0,0,0,0,0,0,0,0,0,0,1,
scooby_state_45530c|36|-2 0,1,0,0,0,0,0,0,0,0,0,0,0,0,0,1,
scooby_state_45eea0|19|-1 1,0,0,0,0,0,0,0,0,0,0,0,0,0,0,1,
scooby_state_590f40|61|32 0,1,0,0,0,0,0,0,0,0,0,0,0,0,0,1,
scooby_state_45fe0d|37|2 0,0,0,1,0,0,0,0,0,0,0,0,0,0,0,1,
scooby_state_46d64a|55|6 0,0,0,0,1,0,0,0,0,0,0,0,0,0,0,1,
scooby_state_4552b0|32|-10 1,0,0,0,0,0,0,0,0,0,0,0,0,0,0,1,
scooby_state_45fe16|56|1 0,0,0,0,0,0,0,0,0,1,0,0,0,0,0,1,
scooby_state_44e194|28|2 0,0,1,0,0,0,0,0,0,0,0,0,0,0,0,1,
scooby_state_441a3b|9|5 1,0,0,0,0,0,0,0,0,0,0,0,0,0,0,1,
scooby_state_45ee6b|20|2 0,0,0,0,0,0,0,0,0,0,0,1,0,0,0,1,
scooby_state_447a8e|26|2 0,1,0,0,0,0,0,0,0,0,0,0,0,0,0,1,
scooby_state_4552b0|25|3 1,0,0,0,0,0,0,0,0,0,0,0,0,0,0,1,
scooby_state_45fe0d|7|2 0,0,0,1,0,0,0,0,0,0,0,0,0,0,0,1,
scooby_state_558f9a|49|2 0,0,1,0,0,0,0,0,0,0,0,0,0,0,0,1,
scooby_state_454125|37|-2 1,0,0,0,0,0,0,0,0,0,0,0,0,0,0,1,
scooby_state_56a9cf|23|0 1,0,0,0,0,0,0,0,0,0,0,0,0,0,0,1,
scooby_state_400be2|47|1 0,0,0,0,0,0,0,0,0,0,0,0,1,0,0,1,
scooby_state_473264|19|13 1,0,0,0,0,0,0,0,0,0,0,0,0,0,0,1,
scooby_state_4532d9|19|-10 0,0,0,1,0,0,0,0,0,0,0,0,0,0,0,1,
scooby_state_40f4c2|19|1 1,0,0,0,0,0,0,0,0,0,0,0,0,0,0,1,
scooby_state_54502b|1|-2 0,1,0,0,0,0,0,0,0,0,0,0,0,0,0,1,
scooby_state_57cf02|60|1 1,0,0,0,0,0,0,0,0,0,0,0,0,0,0,1,
scooby_state_4532d9|61|5 0,0,0,1,0,0,0,0,0,0,0,0,0,0,0,1,
scooby_state_558f9e|60|-3 1,0,0,0,0,0,0,0,0,0,0,0,0,0,0,1,
scooby_state_44d5b4|59|-1 0,0,1,0,0,0,0,0,0,0,0,0,0,0,0,1,
scooby_state_45eea7|47|30 1,0,0,0,0,0,0,0,0,0,0,0,0,0,0,1,
scooby_state_44b576|21|-2 1,0,0,0,0,0,0,0,0,0,0,0,0,0,0,1,
scooby_state_44e5c4|32|-1 0,0,0,1,0,0,0,0,0,0,0,0,0,0,0,1,
scooby_state_448b7a|52|-6 0,0,1,0,0,0,0,0,0,0,0,0,0,0,0,1,
scooby_state_539188|6|-1 1,0,0,0,0,0,0,0,0,0,0,0,0,0,0,1,
scooby_state_448b5a|53|-2 1,0,0,0,0,0,0,0,0,0,0,0,0,0,0,1,
scooby_state_454118|14|-2 0,1,0,0,0,0,0,0,0,0,0,0,0,0,0,1,
scooby_state_45f0d8|3|1 1,0,0,0,0,0,0,0,0,0,0,0,0,0,0,1,
scooby_state_4552b0|10|2 1,0,0,0,0,0,0,0,0,0,0,0,0,0,0,1,
scooby_state_44e5c4|52|-1 0,0,0,1,0,0,0,0,0,0,0,0,0,0,0,1,
scooby_state_441a3b|10|6 1,0,0,0,0,0,0,0,0,0,0,0,0,0,0,1,
scooby_state_4537e7|55|6 1,0,0,0,0,0,0,0,0,0,0,0,0,0,0,1,
scooby_state_56a730|28|7 1,0,0,0,0,0,0,0,0,0,0,0,0,0,0,1,
scooby_state_453ba8|13|-21 1,0,0,0,0,0,0,0,0,0,0,0,0,0,0,1,
scooby_state_5405e9|2|0 1,0,0,0,0,0,0,0,0,0,0,0,0,0,0,1,

scooby_action_0_deg_dist 0,222128,0,0,0,0,0,0,0,0,0,0,0,0,0,0,
scooby_action_-6_deg_dist 0,3493,0,0,0,0,0,0,0,0,0,0,0,0,0,0,
scooby_action_4_deg_dist 0,4126,91,0,50,0,0,0,0,0,0,0,0,0,0,0,
scooby_action_1_deg_dist 0,595016,4348,0,9655,0,89270,0,0,0,0,0,0,0,0,0,
scooby_action_30_deg_dist 0,2491,0,0,0,0,0,0,0,0,0,0,0,0,0,0,
scooby_action_3_deg_dist 0,4135,22,0,1,0,0,0,0,0,0,0,0,0,0,0,
scooby_action_32_deg_dist 0,2539,0,0,0,0,0,0,0,0,0,0,0,0,0,0,
scooby_action_5_deg_dist 0,3953,96,0,69,0,0,0,0,0,0,0,0,0,0,0,
scooby_action_10_deg_dist 0,3018,0,0,0,0,0,0,0,0,0,0,0,0,0,0,
scooby_action_11_deg_dist 0,2919,3,0,0,0,0,0,0,0,0,0,0,0,0,0,
scooby_action_12_deg_dist 0,2881,0,0,0,0,0,0,0,0,0,0,0,0,0,0,
scooby_action_22_deg_dist 0,2616,0,0,0,0,0,0,0,0,0,0,0,0,0,0,
scooby_action_23_deg_dist 0,2512,0,0,0,0,0,0,0,0,0,0,0,0,0,0,
scooby_action_-1_deg_dist 0,3562,2,0,0,0,0,0,0,0,0,0,0,0,0,0,
scooby_action_-3_deg_dist 0,3465,1,0,0,0,0,0,0,0,0,0,0,0,0,0,

scooby_track_called 962462
scooby_track_same_address 2353
scooby_track_evict 959853

scooby_reward_demand_called 962462
scooby_reward_demand_pt_not_found 853196
scooby_reward_demand_pt_found 109266
scooby_reward_demand_pt_found_total 109266
scooby_reward_demand_has_reward 567
scooby_reward_train_called 829581
scooby_reward_assign_reward_called 959882
scooby_reward_no_pref 222007
scooby_reward_incorrect 607574
scooby_reward_correct_untimely 99231
scooby_reward_correct_timely 9468
scooby_reward_out_of_bounds 21602
scooby_reward_tracker_hit 0

scooby_reward_none_low_bw 222007
scooby_reward_none_high_bw 0
scooby_reward_incorrect_low_bw 607574
scooby_reward_incorrect_high_bw 0
scooby_reward_correct_untimely_low_bw 99231
scooby_reward_correct_untimely_high_bw 0
scooby_reward_correct_timely_low_bw 9468
scooby_reward_correct_timely_high_bw 0
scooby_reward_out_of_bounds_low_bw 21602
scooby_reward_out_of_bounds_high_bw 0
scooby_reward_tracker_hit_low_bw 0
scooby_reward_tracker_hit_high_bw 0

scooby_reward_1 0,578701,98971,8123,10901,0,
scooby_reward_3 0,3294,56,257,360,0,
scooby_reward_4 0,3310,69,335,421,0,
scooby_reward_5 0,3087,58,284,541,0,
scooby_reward_10 0,2090,1,60,849,0,
scooby_reward_11 0,1910,1,57,925,0,
scooby_reward_12 0,1862,0,71,939,0,
scooby_reward_22 0,1052,15,40,1488,0,
scooby_reward_23 0,1001,1,26,1466,0,
scooby_reward_30 0,722,31,6,1708,0,
scooby_reward_32 0,642,0,25,1803,0,
scooby_reward_-1 0,3325,25,73,26,0,
scooby_reward_-3 0,3318,3,41,52,0,
scooby_reward_-6 0,3260,0,70,123,0,
scooby_reward_0 222007,0,0,0,0,0,

scooby_train_called 959852
scooby_train_compute_reward 829581

scooby_register_fill_called 713009
scooby_register_fill_set 613795
scooby_register_fill_set_total 613795

scooby_register_prefetch_hit_called 431100
scooby_register_prefetch_hit_set 102354
scooby_register_prefetch_hit_set_total 102354

scooby_pref_issue_scooby 1161563

learning_engine_featurewise.action.called 962462
learning_engine_featurewise.action.explore 1767
learning_engine_featurewise.action.exploit 960695
learning_engine_featurewise.action.fallback 583197
learning_engine_featurewise.action.dyn_fallback_saved_bw 0
learning_engine_featurewise.action.dyn_fallback_saved_bw_acc 281570
learning_engine_featurewise.action.index_1_explored 121
learning_engine_featurewise.action.index_1_exploited 698168
learning_engine_featurewise.action.index_3_explored 124
learning_engine_featurewise.action.index_3_exploited 4034
learning_engine_featurewise.action.index_4_explored 115
learning_engine_featurewise.action.index_4_exploited 4152
learning_engine_featurewise.action.index_5_explored 115
learning_engine_featurewise.action.index_5_exploited 4003
learning_engine_featurewise.action.index_10_explored 129
learning_engine_featurewise.action.index_10_exploited 2889
learning_engine_featurewise.action.index_11_explored 113
learning_engine_featurewise.action.index_11_exploited 2809
learning_engine_featurewise.action.index_12_explored 119
learning_engine_featurewise.action.index_12_exploited 2762
learning_engine_featurewise.action.index_22_explored 125
learning_engine_featurewise.action.index_22_exploited 2491
learning_engine_featurewise.action.index_23_explored 122
learning_engine_featurewise.action.index_23_exploited 2390
learning_engine_featurewise.action.index_30_explored 129
learning_engine_featurewise.action.index_30_exploited 2362
learning_engine_featurewise.action.index_32_explored 102
learning_engine_featurewise.action.index_32_exploited 2437
learning_engine_featurewise.action.index_-1_explored 119
learning_engine_featurewise.action.index_-1_exploited 3445
learning_engine_featurewise.action.index_-3_explored 113
learning_engine_featurewise.action.index_-3_exploited 3353
learning_engine_featurewise.action.index_-6_explored 101
learning_engine_featurewise.action.index_-6_exploited 3392
learning_engine_featurewise.action.index_0_explored 120
learning_engine_featurewise.action.index_0_exploited 222008
learning_engine_featurewise.learn.called 959852
learning_engine_featurewise.learn.su_skip_PC 0
learning_engine_featurewise.learn.su_skip_PC_Delta 0

learning_engine_featurewise.q_value_histogram.bucket_0 234818
learning_engine_featurewise.q_value_histogram.bucket_1 3234
learning_engine_featurewise.q_value_histogram.bucket_2 589362
learning_engine_featurewise.q_value_histogram.bucket_3 9081
learning_engine_featurewise.q_value_histogram.bucket_4 36852
learning_engine_featurewise.q_value_histogram.bucket_5 83462
learning_engine_featurewise.q_value_histogram.bucket_6 3886
learning_engine_featurewise.q_value_histogram.bucket_7 0

learning_engine_featurewise.consensus.total 960695
learning_engine_featurewise.consensus.feature_align_PC 707086
learning_engine_featurewise.consensus.feature_align_PC_ratio 0.74
learning_engine_featurewise.consensus.feature_align_PC_Delta 714713
learning_engine_featurewise.consensus.feature_align_PC_Delta_ratio 0.74
learning_engine_featurewise.consensus.feature_align_all 699153
learning_engine_featurewise.consensus.feature_align_all_ratio 0.73

learning_engine_featurewise.feature_PC_min_weight 1000000.00000000
learning_engine_featurewise.feature_PC_max_weight 0.00000000
learning_engine_featurewise.feature_PC_Delta_min_weight 1000000.00000000
learning_engine_featurewise.feature_PC_Delta_max_weight 0.00000000
unique_pcs 813
unique_pages 20470
unique_trigger_pcs 245
total_bitmaps_seen 0
unique_bitmaps_seen 0

scooby_bw_epochs 431193
scooby_bw_level_0 332308
scooby_bw_level_1 55058
scooby_bw_level_2 26940
scooby_bw_level_3 16887

scooby_ipc_epochs 0
scooby_ipc_level_0 0
scooby_ipc_level_1 0
scooby_ipc_level_2 0
scooby_ipc_level_3 0

scooby_cache_acc_epochs 63501
scooby_cache_acc_level_0 49627
scooby_cache_acc_level_1 6463
scooby_cache_acc_level_2 5407
scooby_cache_acc_level_3 641
scooby_cache_acc_level_4 217
scooby_cache_acc_level_5 445
scooby_cache_acc_level_6 219
scooby_cache_acc_level_7 124
scooby_cache_acc_level_8 109
scooby_cache_acc_level_9 249

Channel_0_RQ_row_buffer_hit 398463
Channel_0_RQ_row_buffer_miss 260648
Channel_0_WQ_row_buffer_hit 959
Channel_0_WQ_row_buffer_miss 4574
Channel_0_WQ_full 0
Channel_0_dbus_congested 305829

avg_congested_cycle 9

DRAM_bw_pochs 431193
DRAM_bw_level_0 332308
DRAM_bw_level_1 55058
DRAM_bw_level_2 26940
DRAM_bw_level_3 16887
