*************************************************
   ChampSim Multicore Out-of-Order Simulator
   Last compiled: Apr  3 2025 20:54:34
*************************************************
parsing config file: /home/zir/Pythia/config/nopref.ini

trace_0 /home/zir/ChampSim/ML-DPC/ChampSimTraces/spec17/649.fotonik3d-s0.trace.xz
adding L2C_PREFETCHER: NONE
Initialize SHIP state
warmup_instructions 10000000
simulation_instructions 50000000
champsim_seed 163
measure_ipc 0
measure_ipc_epoch 1000
measure_dram_bw 1
measure_dram_bw_epoch 256
measure_cache_acc 1
measure_cache_acc_epoch 1024
l1d_perfect 0
l2c_perfect 0
llc_perfect 0
l1d_semi_perfect 0
l2c_semi_perfect 0
llc_semi_perfect 0
semi_perfect_cache_page_buffer_size 64

num_cpus 1
cpu_freq 4000
dram_io_freq 2400
page_size 4096
block_size 64
max_read_per_cycle 8
max_fill_per_cycle 1
dram_channels 1
log2_dram_channels 0
dram_ranks 1
dram_banks 8
dram_rows 65536
dram_columns 128
dram_row_size 8
dram_size 4096
dram_pages 1048576

fetch_width 6
decode_width 6
exec_width 4
lq_width 2
sq_width 2
retire_width 4
scheduler_size 128
branch_mispredict_penalty 20
rob_size 256
lq_size 72
sq_size 56
num_instr_destinations_sparc 4
num_instr_destinations 2
num_instr_sources 4

itlb_set 16
itlb_way 8
itlb_rq_size 16
itlb_wq_size 16
itlb_pq_size 0
itlb_mshr_size 8
itlb_latency 1

dtlb_set 16
dtlb_way 4
dtlb_rq_size 16
dtlb_wq_size 16
dtlb_pq_size 0
dtlb_mshr_size 8
dtlb_latency 1

stlb_set 128
stlb_way 12
stlb_rq_size 32
stlb_wq_size 32
stlb_pq_size 0
stlb_mshr_size 16
stlb_latency 8

l1i_size 32
l1i_set 64
l1i_way 8
l1i_rq_size 64
l1i_wq_size 64
l1i_pq_size 8
l1i_mshr_size 8
l1i_latency 1

l1d_size 32
l1d_set 64
l1d_way 8
l1d_rq_size 64
l1d_wq_size 64
l1d_pq_size 8
l1d_mshr_size 16
l1d_latency 4

l2c_size 256
l2c_set 512
l2c_way 8
l2c_rq_size 32
l2c_wq_size 32
l2c_pq_size 32
l2c_mshr_size 32
l2c_latency 10

llc_size 2048
llc_set 2048
llc_way 16
llc_rq_size 32
llc_wq_size 32
llc_pq_size 32
llc_mshr_size 64
llc_latency 20

dram_channel_width 8
dram_wq_size 64
dram_rq_size 64
tRP 15
tRCD 15
tCAS 12.5
dram_dbus_turn_around_time 30
dram_write_high_wm 56
dram_write_low_wm 48
min_dram_writes_per_switch 16
dram_mtps 2400
dram_dbus_return_time 13


Heartbeat CPU  0 instructions:    1000000 cycles:     837862 heartbeat IPC: 1.19351 cumulative IPC: 1.19351 (Simulation time: 0 hr 0 min 3 sec) 
Heartbeat CPU  0 instructions:    2000003 cycles:    1670931 heartbeat IPC: 1.20038 cumulative IPC: 1.19694 (Simulation time: 0 hr 0 min 5 sec) 
Heartbeat CPU  0 instructions:    3000002 cycles:    2501975 heartbeat IPC: 1.20330 cumulative IPC: 1.19905 (Simulation time: 0 hr 0 min 7 sec) 
Heartbeat CPU  0 instructions:    4000000 cycles:    3348304 heartbeat IPC: 1.18157 cumulative IPC: 1.19463 (Simulation time: 0 hr 0 min 9 sec) 
Heartbeat CPU  0 instructions:    5000001 cycles:    4172635 heartbeat IPC: 1.21311 cumulative IPC: 1.19828 (Simulation time: 0 hr 0 min 12 sec) 
Heartbeat CPU  0 instructions:    6000002 cycles:    5007546 heartbeat IPC: 1.19773 cumulative IPC: 1.19819 (Simulation time: 0 hr 0 min 14 sec) 
Heartbeat CPU  0 instructions:    7000001 cycles:    5850878 heartbeat IPC: 1.18577 cumulative IPC: 1.19640 (Simulation time: 0 hr 0 min 16 sec) 
Heartbeat CPU  0 instructions:    8000000 cycles:    6690180 heartbeat IPC: 1.19147 cumulative IPC: 1.19578 (Simulation time: 0 hr 0 min 18 sec) 
Heartbeat CPU  0 instructions:    9000001 cycles:    7521002 heartbeat IPC: 1.20363 cumulative IPC: 1.19665 (Simulation time: 0 hr 0 min 21 sec) 
Heartbeat CPU  0 instructions:   10000001 cycles:    8367887 heartbeat IPC: 1.18080 cumulative IPC: 1.19504 (Simulation time: 0 hr 0 min 23 sec) 

Warmup complete CPU  0 instructions:   10000001 cycles:    8367887 (Simulation time: 0 hr 0 min 23 sec) 

Heartbeat CPU  0 instructions:   11000000 cycles:   10855382 heartbeat IPC: 0.40201 cumulative IPC: 0.40201 (Simulation time: 0 hr 0 min 26 sec) 
Heartbeat CPU  0 instructions:   12000000 cycles:   13317802 heartbeat IPC: 0.40610 cumulative IPC: 0.40405 (Simulation time: 0 hr 0 min 29 sec) 
Heartbeat CPU  0 instructions:   13000002 cycles:   15830009 heartbeat IPC: 0.39806 cumulative IPC: 0.40203 (Simulation time: 0 hr 0 min 32 sec) 
Heartbeat CPU  0 instructions:   14000003 cycles:   18379324 heartbeat IPC: 0.39226 cumulative IPC: 0.39954 (Simulation time: 0 hr 0 min 35 sec) 
Heartbeat CPU  0 instructions:   15000001 cycles:   20845725 heartbeat IPC: 0.40545 cumulative IPC: 0.40071 (Simulation time: 0 hr 0 min 38 sec) 
Heartbeat CPU  0 instructions:   16000000 cycles:   23342145 heartbeat IPC: 0.40057 cumulative IPC: 0.40069 (Simulation time: 0 hr 0 min 41 sec) 
Heartbeat CPU  0 instructions:   17000001 cycles:   25899239 heartbeat IPC: 0.39107 cumulative IPC: 0.39928 (Simulation time: 0 hr 0 min 44 sec) 
Heartbeat CPU  0 instructions:   18000002 cycles:   28426041 heartbeat IPC: 0.39576 cumulative IPC: 0.39884 (Simulation time: 0 hr 0 min 47 sec) 
Heartbeat CPU  0 instructions:   19000003 cycles:   30905854 heartbeat IPC: 0.40326 cumulative IPC: 0.39933 (Simulation time: 0 hr 0 min 50 sec) 
Heartbeat CPU  0 instructions:   20000000 cycles:   33372686 heartbeat IPC: 0.40538 cumulative IPC: 0.39992 (Simulation time: 0 hr 0 min 53 sec) 
Heartbeat CPU  0 instructions:   21000000 cycles:   35932291 heartbeat IPC: 0.39069 cumulative IPC: 0.39907 (Simulation time: 0 hr 0 min 56 sec) 
Heartbeat CPU  0 instructions:   22000001 cycles:   38442648 heartbeat IPC: 0.39835 cumulative IPC: 0.39901 (Simulation time: 0 hr 0 min 59 sec) 
Heartbeat CPU  0 instructions:   23000002 cycles:   40886153 heartbeat IPC: 0.40925 cumulative IPC: 0.39978 (Simulation time: 0 hr 1 min 2 sec) 
Heartbeat CPU  0 instructions:   24000000 cycles:   43398938 heartbeat IPC: 0.39796 cumulative IPC: 0.39965 (Simulation time: 0 hr 1 min 5 sec) 
Heartbeat CPU  0 instructions:   25000000 cycles:   45962747 heartbeat IPC: 0.39004 cumulative IPC: 0.39899 (Simulation time: 0 hr 1 min 8 sec) 
Heartbeat CPU  0 instructions:   26000003 cycles:   48453091 heartbeat IPC: 0.40155 cumulative IPC: 0.39915 (Simulation time: 0 hr 1 min 11 sec) 
Heartbeat CPU  0 instructions:   27000001 cycles:   50896023 heartbeat IPC: 0.40934 cumulative IPC: 0.39974 (Simulation time: 0 hr 1 min 14 sec) 
Heartbeat CPU  0 instructions:   28000000 cycles:   53394464 heartbeat IPC: 0.40025 cumulative IPC: 0.39976 (Simulation time: 0 hr 1 min 17 sec) 
Heartbeat CPU  0 instructions:   29000001 cycles:   55875727 heartbeat IPC: 0.40302 cumulative IPC: 0.39993 (Simulation time: 0 hr 1 min 20 sec) 
Heartbeat CPU  0 instructions:   30000000 cycles:   58318491 heartbeat IPC: 0.40937 cumulative IPC: 0.40040 (Simulation time: 0 hr 1 min 23 sec) 
Heartbeat CPU  0 instructions:   31000001 cycles:   60760293 heartbeat IPC: 0.40953 cumulative IPC: 0.40082 (Simulation time: 0 hr 1 min 26 sec) 
Heartbeat CPU  0 instructions:   32000000 cycles:   63255869 heartbeat IPC: 0.40071 cumulative IPC: 0.40082 (Simulation time: 0 hr 1 min 29 sec) 
Heartbeat CPU  0 instructions:   33000002 cycles:   65744122 heartbeat IPC: 0.40189 cumulative IPC: 0.40086 (Simulation time: 0 hr 1 min 32 sec) 
Heartbeat CPU  0 instructions:   34000001 cycles:   68243342 heartbeat IPC: 0.40012 cumulative IPC: 0.40083 (Simulation time: 0 hr 1 min 35 sec) 
Heartbeat CPU  0 instructions:   35000003 cycles:   70739348 heartbeat IPC: 0.40064 cumulative IPC: 0.40082 (Simulation time: 0 hr 1 min 38 sec) 
Heartbeat CPU  0 instructions:   36000000 cycles:   73242765 heartbeat IPC: 0.39945 cumulative IPC: 0.40077 (Simulation time: 0 hr 1 min 41 sec) 
Heartbeat CPU  0 instructions:   37000002 cycles:   75758832 heartbeat IPC: 0.39745 cumulative IPC: 0.40065 (Simulation time: 0 hr 1 min 44 sec) 
Heartbeat CPU  0 instructions:   38000003 cycles:   78211358 heartbeat IPC: 0.40774 cumulative IPC: 0.40090 (Simulation time: 0 hr 1 min 47 sec) 
Heartbeat CPU  0 instructions:   39000001 cycles:   80681829 heartbeat IPC: 0.40478 cumulative IPC: 0.40103 (Simulation time: 0 hr 1 min 50 sec) 
Heartbeat CPU  0 instructions:   40000000 cycles:   83190858 heartbeat IPC: 0.39856 cumulative IPC: 0.40095 (Simulation time: 0 hr 1 min 53 sec) 
Heartbeat CPU  0 instructions:   41000000 cycles:   85692640 heartbeat IPC: 0.39972 cumulative IPC: 0.40091 (Simulation time: 0 hr 1 min 56 sec) 
Heartbeat CPU  0 instructions:   42000000 cycles:   88223903 heartbeat IPC: 0.39506 cumulative IPC: 0.40072 (Simulation time: 0 hr 1 min 59 sec) 
Heartbeat CPU  0 instructions:   43000002 cycles:   90746718 heartbeat IPC: 0.39638 cumulative IPC: 0.40059 (Simulation time: 0 hr 2 min 2 sec) 
Heartbeat CPU  0 instructions:   44000000 cycles:   93245977 heartbeat IPC: 0.40012 cumulative IPC: 0.40057 (Simulation time: 0 hr 2 min 5 sec) 
Heartbeat CPU  0 instructions:   45000000 cycles:   95705722 heartbeat IPC: 0.40655 cumulative IPC: 0.40074 (Simulation time: 0 hr 2 min 8 sec) 
Heartbeat CPU  0 instructions:   46000001 cycles:   98245573 heartbeat IPC: 0.39372 cumulative IPC: 0.40054 (Simulation time: 0 hr 2 min 11 sec) 
Heartbeat CPU  0 instructions:   47000000 cycles:  100787318 heartbeat IPC: 0.39343 cumulative IPC: 0.40035 (Simulation time: 0 hr 2 min 14 sec) 
Heartbeat CPU  0 instructions:   48000000 cycles:  103331639 heartbeat IPC: 0.39303 cumulative IPC: 0.40015 (Simulation time: 0 hr 2 min 17 sec) 
Heartbeat CPU  0 instructions:   49000002 cycles:  105838155 heartbeat IPC: 0.39896 cumulative IPC: 0.40012 (Simulation time: 0 hr 2 min 20 sec) 
Heartbeat CPU  0 instructions:   50000001 cycles:  108308623 heartbeat IPC: 0.40478 cumulative IPC: 0.40024 (Simulation time: 0 hr 2 min 23 sec) 
Heartbeat CPU  0 instructions:   51000003 cycles:  110899451 heartbeat IPC: 0.38598 cumulative IPC: 0.39988 (Simulation time: 0 hr 2 min 26 sec) 
Heartbeat CPU  0 instructions:   52000000 cycles:  113365771 heartbeat IPC: 0.40546 cumulative IPC: 0.40001 (Simulation time: 0 hr 2 min 29 sec) 
Heartbeat CPU  0 instructions:   53000003 cycles:  115799716 heartbeat IPC: 0.41086 cumulative IPC: 0.40025 (Simulation time: 0 hr 2 min 32 sec) 
Heartbeat CPU  0 instructions:   54000000 cycles:  118281060 heartbeat IPC: 0.40301 cumulative IPC: 0.40032 (Simulation time: 0 hr 2 min 35 sec) 
Heartbeat CPU  0 instructions:   55000000 cycles:  120803552 heartbeat IPC: 0.39643 cumulative IPC: 0.40023 (Simulation time: 0 hr 2 min 38 sec) 
Heartbeat CPU  0 instructions:   56000000 cycles:  123285999 heartbeat IPC: 0.40283 cumulative IPC: 0.40029 (Simulation time: 0 hr 2 min 41 sec) 
Heartbeat CPU  0 instructions:   57000000 cycles:  125733664 heartbeat IPC: 0.40855 cumulative IPC: 0.40046 (Simulation time: 0 hr 2 min 44 sec) 
Heartbeat CPU  0 instructions:   58000001 cycles:  128284299 heartbeat IPC: 0.39206 cumulative IPC: 0.40028 (Simulation time: 0 hr 2 min 47 sec) 
Heartbeat CPU  0 instructions:   59000002 cycles:  130789327 heartbeat IPC: 0.39920 cumulative IPC: 0.40026 (Simulation time: 0 hr 2 min 50 sec) 
Heartbeat CPU  0 instructions:   60000000 cycles:  133272121 heartbeat IPC: 0.40277 cumulative IPC: 0.40031 (Simulation time: 0 hr 2 min 53 sec) 
Finished CPU 0 instructions: 50000000 cycles: 124904267 cumulative IPC: 0.40031 (Simulation time: 0 hr 2 min 53 sec) 

ChampSim completed all CPUs

[ROI Statistics]
Core_0_instructions 50000000
Core_0_cycles 124904267
Core_0_IPC 0.40031

Core_0_branch_prediction_accuracy 99.99301
Core_0_branch_MPKI 0.00084
Core_0_average_ROB_occupancy_at_mispredict 253.45238

Core_0_L1D_total_access 26692757
Core_0_L1D_total_hit 25730737
Core_0_L1D_total_miss 962020
Core_0_L1D_loads 23487097
Core_0_L1D_load_hit 22525077
Core_0_L1D_load_miss 962020
Core_0_L1D_RFOs 3205660
Core_0_L1D_RFO_hit 3205660
Core_0_L1D_RFO_miss 0
Core_0_L1D_prefetches 0
Core_0_L1D_prefetch_hit 0
Core_0_L1D_prefetch_miss 0
Core_0_L1D_writebacks 0
Core_0_L1D_writeback_hit 0
Core_0_L1D_writeback_miss 0
Core_0_L1D_prefetch_requested 0
Core_0_L1D_prefetch_dropped 0
Core_0_L1D_prefetch_issued 0
Core_0_L1D_prefetch_filled 0
Core_0_L1D_prefetch_useful 0
Core_0_L1D_prefetch_useless 0
Core_0_L1D_prefetch_late 0
Core_0_L1D_average_miss_latency 214.51916

Core_0_L1D_rq_access 31895358
Core_0_L1D_rq_forward 0
Core_0_L1D_rq_merged 8075430
Core_0_L1D_rq_to_cache 23819928
Core_0_L1D_rq_full 0

Core_0_L1D_wq_access 3205660
Core_0_L1D_wq_forward 0
Core_0_L1D_wq_merged 0
Core_0_L1D_wq_to_cache 3205660
Core_0_L1D_wq_full 0

Core_0_L1D_pq_access 0
Core_0_L1D_pq_forward 0
Core_0_L1D_pq_merged 0
Core_0_L1D_pq_to_cache 0
Core_0_L1D_pq_full 0

Core_0_L1D_acc_epochs 113734
Core_0_L1D_acc_level_0 113734
Core_0_L1D_acc_level_1 0
Core_0_L1D_acc_level_2 0
Core_0_L1D_acc_level_3 0
Core_0_L1D_acc_level_4 0
Core_0_L1D_acc_level_5 0
Core_0_L1D_acc_level_6 0
Core_0_L1D_acc_level_7 0
Core_0_L1D_acc_level_8 0
Core_0_L1D_acc_level_9 0

Core_0_L1I_total_access 15011901
Core_0_L1I_total_hit 15011901
Core_0_L1I_total_miss 0
Core_0_L1I_loads 15011901
Core_0_L1I_load_hit 15011901
Core_0_L1I_load_miss 0
Core_0_L1I_RFOs 0
Core_0_L1I_RFO_hit 0
Core_0_L1I_RFO_miss 0
Core_0_L1I_prefetches 0
Core_0_L1I_prefetch_hit 0
Core_0_L1I_prefetch_miss 0
Core_0_L1I_writebacks 0
Core_0_L1I_writeback_hit 0
Core_0_L1I_writeback_miss 0
Core_0_L1I_prefetch_requested 0
Core_0_L1I_prefetch_dropped 0
Core_0_L1I_prefetch_issued 0
Core_0_L1I_prefetch_filled 0
Core_0_L1I_prefetch_useful 0
Core_0_L1I_prefetch_useless 0
Core_0_L1I_prefetch_late 0
Core_0_L1I_average_miss_latency -nan

Core_0_L1I_rq_access 50000007
Core_0_L1I_rq_forward 0
Core_0_L1I_rq_merged 34988106
Core_0_L1I_rq_to_cache 15011901
Core_0_L1I_rq_full 0

Core_0_L1I_wq_access 0
Core_0_L1I_wq_forward 0
Core_0_L1I_wq_merged 0
Core_0_L1I_wq_to_cache 0
Core_0_L1I_wq_full 0

Core_0_L1I_pq_access 0
Core_0_L1I_pq_forward 0
Core_0_L1I_pq_merged 0
Core_0_L1I_pq_to_cache 0
Core_0_L1I_pq_full 0

Core_0_L1I_acc_epochs 113734
Core_0_L1I_acc_level_0 113734
Core_0_L1I_acc_level_1 0
Core_0_L1I_acc_level_2 0
Core_0_L1I_acc_level_3 0
Core_0_L1I_acc_level_4 0
Core_0_L1I_acc_level_5 0
Core_0_L1I_acc_level_6 0
Core_0_L1I_acc_level_7 0
Core_0_L1I_acc_level_8 0
Core_0_L1I_acc_level_9 0

Core_0_L2C_total_access 1447766
Core_0_L2C_total_hit 485746
Core_0_L2C_total_miss 962020
Core_0_L2C_loads 962020
Core_0_L2C_load_hit 0
Core_0_L2C_load_miss 962020
Core_0_L2C_RFOs 0
Core_0_L2C_RFO_hit 0
Core_0_L2C_RFO_miss 0
Core_0_L2C_prefetches 0
Core_0_L2C_prefetch_hit 0
Core_0_L2C_prefetch_miss 0
Core_0_L2C_writebacks 485746
Core_0_L2C_writeback_hit 485746
Core_0_L2C_writeback_miss 0
Core_0_L2C_prefetch_requested 0
Core_0_L2C_prefetch_dropped 0
Core_0_L2C_prefetch_issued 0
Core_0_L2C_prefetch_filled 0
Core_0_L2C_prefetch_useful 0
Core_0_L2C_prefetch_useless 0
Core_0_L2C_prefetch_late 0
Core_0_L2C_average_miss_latency 191.13736

Core_0_L2C_rq_access 962020
Core_0_L2C_rq_forward 0
Core_0_L2C_rq_merged 0
Core_0_L2C_rq_to_cache 962020
Core_0_L2C_rq_full 0

Core_0_L2C_wq_access 485746
Core_0_L2C_wq_forward 0
Core_0_L2C_wq_merged 0
Core_0_L2C_wq_to_cache 485746
Core_0_L2C_wq_full 0

Core_0_L2C_pq_access 0
Core_0_L2C_pq_forward 0
Core_0_L2C_pq_merged 0
Core_0_L2C_pq_to_cache 0
Core_0_L2C_pq_full 0

Core_0_L2C_acc_epochs 113734
Core_0_L2C_acc_level_0 113734
Core_0_L2C_acc_level_1 0
Core_0_L2C_acc_level_2 0
Core_0_L2C_acc_level_3 0
Core_0_L2C_acc_level_4 0
Core_0_L2C_acc_level_5 0
Core_0_L2C_acc_level_6 0
Core_0_L2C_acc_level_7 0
Core_0_L2C_acc_level_8 0
Core_0_L2C_acc_level_9 0

Core_0_LLC_total_access 1447787
Core_0_LLC_total_hit 177336
Core_0_LLC_total_miss 1270451
Core_0_LLC_loads 962020
Core_0_LLC_load_hit 153070
Core_0_LLC_load_miss 808950
Core_0_LLC_RFOs 0
Core_0_LLC_RFO_hit 0
Core_0_LLC_RFO_miss 0
Core_0_LLC_prefetches 0
Core_0_LLC_prefetch_hit 0
Core_0_LLC_prefetch_miss 0
Core_0_LLC_writebacks 485767
Core_0_LLC_writeback_hit 24266
Core_0_LLC_writeback_miss 461501
Core_0_LLC_prefetch_requested 0
Core_0_LLC_prefetch_dropped 0
Core_0_LLC_prefetch_issued 0
Core_0_LLC_prefetch_filled 0
Core_0_LLC_prefetch_useful 0
Core_0_LLC_prefetch_useless 0
Core_0_LLC_prefetch_late 0
Core_0_LLC_average_miss_latency 118.93408

Core_0_LLC_rq_access 962020
Core_0_LLC_rq_forward 0
Core_0_LLC_rq_merged 0
Core_0_LLC_rq_to_cache 962020
Core_0_LLC_rq_full 0

Core_0_LLC_wq_access 485767
Core_0_LLC_wq_forward 0
Core_0_LLC_wq_merged 0
Core_0_LLC_wq_to_cache 485767
Core_0_LLC_wq_full 0

Core_0_LLC_pq_access 0
Core_0_LLC_pq_forward 0
Core_0_LLC_pq_merged 0
Core_0_LLC_pq_to_cache 0
Core_0_LLC_pq_full 0

Core_0_LLC_acc_epochs 130149
Core_0_LLC_acc_level_0 130149
Core_0_LLC_acc_level_1 0
Core_0_LLC_acc_level_2 0
Core_0_LLC_acc_level_3 0
Core_0_LLC_acc_level_4 0
Core_0_LLC_acc_level_5 0
Core_0_LLC_acc_level_6 0
Core_0_LLC_acc_level_7 0
Core_0_LLC_acc_level_8 0
Core_0_LLC_acc_level_9 0

Core_0_major_page_fault 0
Core_0_minor_page_fault 154361

Channel_0_RQ_row_buffer_hit 284172
Channel_0_RQ_row_buffer_miss 524778
Channel_0_WQ_row_buffer_hit 147804
Channel_0_WQ_row_buffer_miss 338098
Channel_0_WQ_full 0
Channel_0_dbus_congested 352959

avg_congested_cycle 10

DRAM_bw_pochs 520595
DRAM_bw_level_0 447090
DRAM_bw_level_1 72181
DRAM_bw_level_2 1324
DRAM_bw_level_3 0
