*************************************************
   ChampSim Multicore Out-of-Order Simulator
   Last compiled: Apr  3 2025 20:54:34
*************************************************
parsing config file: /home/zir/Pythia/config/nopref.ini

trace_0 /home/zir/ChampSim/ML-DPC/ChampSimTraces/spec06/482.sphinx3-s2.trace.gz
adding L2C_PREFETCHER: NONE
Initialize SHIP state
warmup_instructions 10000000
simulation_instructions 50000000
champsim_seed 165
measure_ipc 0
measure_ipc_epoch 1000
measure_dram_bw 1
measure_dram_bw_epoch 256
measure_cache_acc 1
measure_cache_acc_epoch 1024
l1d_perfect 0
l2c_perfect 0
llc_perfect 0
l1d_semi_perfect 0
l2c_semi_perfect 0
llc_semi_perfect 0
semi_perfect_cache_page_buffer_size 64

num_cpus 1
cpu_freq 4000
dram_io_freq 2400
page_size 4096
block_size 64
max_read_per_cycle 8
max_fill_per_cycle 1
dram_channels 1
log2_dram_channels 0
dram_ranks 1
dram_banks 8
dram_rows 65536
dram_columns 128
dram_row_size 8
dram_size 4096
dram_pages 1048576

fetch_width 6
decode_width 6
exec_width 4
lq_width 2
sq_width 2
retire_width 4
scheduler_size 128
branch_mispredict_penalty 20
rob_size 256
lq_size 72
sq_size 56
num_instr_destinations_sparc 4
num_instr_destinations 2
num_instr_sources 4

itlb_set 16
itlb_way 8
itlb_rq_size 16
itlb_wq_size 16
itlb_pq_size 0
itlb_mshr_size 8
itlb_latency 1

dtlb_set 16
dtlb_way 4
dtlb_rq_size 16
dtlb_wq_size 16
dtlb_pq_size 0
dtlb_mshr_size 8
dtlb_latency 1

stlb_set 128
stlb_way 12
stlb_rq_size 32
stlb_wq_size 32
stlb_pq_size 0
stlb_mshr_size 16
stlb_latency 8

l1i_size 32
l1i_set 64
l1i_way 8
l1i_rq_size 64
l1i_wq_size 64
l1i_pq_size 8
l1i_mshr_size 8
l1i_latency 1

l1d_size 32
l1d_set 64
l1d_way 8
l1d_rq_size 64
l1d_wq_size 64
l1d_pq_size 8
l1d_mshr_size 16
l1d_latency 4

l2c_size 256
l2c_set 512
l2c_way 8
l2c_rq_size 32
l2c_wq_size 32
l2c_pq_size 32
l2c_mshr_size 32
l2c_latency 10

llc_size 2048
llc_set 2048
llc_way 16
llc_rq_size 32
llc_wq_size 32
llc_pq_size 32
llc_mshr_size 64
llc_latency 20

dram_channel_width 8
dram_wq_size 64
dram_rq_size 64
tRP 15
tRCD 15
tCAS 12.5
dram_dbus_turn_around_time 30
dram_write_high_wm 56
dram_write_low_wm 48
min_dram_writes_per_switch 16
dram_mtps 2400
dram_dbus_return_time 13


Heartbeat CPU  0 instructions:    1000003 cycles:     533152 heartbeat IPC: 1.87564 cumulative IPC: 1.87564 (Simulation time: 0 hr 0 min 1 sec) 
Heartbeat CPU  0 instructions:    2000002 cycles:    1094028 heartbeat IPC: 1.78292 cumulative IPC: 1.82811 (Simulation time: 0 hr 0 min 3 sec) 
Heartbeat CPU  0 instructions:    3000003 cycles:    1645433 heartbeat IPC: 1.81355 cumulative IPC: 1.82323 (Simulation time: 0 hr 0 min 4 sec) 
Heartbeat CPU  0 instructions:    4000000 cycles:    2009131 heartbeat IPC: 2.74953 cumulative IPC: 1.99091 (Simulation time: 0 hr 0 min 5 sec) 
Heartbeat CPU  0 instructions:    5000000 cycles:    2406387 heartbeat IPC: 2.51727 cumulative IPC: 2.07780 (Simulation time: 0 hr 0 min 7 sec) 
Heartbeat CPU  0 instructions:    6000000 cycles:    2938052 heartbeat IPC: 1.88088 cumulative IPC: 2.04217 (Simulation time: 0 hr 0 min 8 sec) 
Heartbeat CPU  0 instructions:    7000000 cycles:    3498805 heartbeat IPC: 1.78332 cumulative IPC: 2.00068 (Simulation time: 0 hr 0 min 9 sec) 
Heartbeat CPU  0 instructions:    8000000 cycles:    4044335 heartbeat IPC: 1.83308 cumulative IPC: 1.97808 (Simulation time: 0 hr 0 min 10 sec) 
Heartbeat CPU  0 instructions:    9000001 cycles:    4407782 heartbeat IPC: 2.75144 cumulative IPC: 2.04184 (Simulation time: 0 hr 0 min 12 sec) 
Heartbeat CPU  0 instructions:   10000003 cycles:    4803692 heartbeat IPC: 2.52583 cumulative IPC: 2.08173 (Simulation time: 0 hr 0 min 13 sec) 

Warmup complete CPU  0 instructions:   10000003 cycles:    4803692 (Simulation time: 0 hr 0 min 13 sec) 

Heartbeat CPU  0 instructions:   11000001 cycles:    7350728 heartbeat IPC: 0.39261 cumulative IPC: 0.39261 (Simulation time: 0 hr 0 min 15 sec) 
Heartbeat CPU  0 instructions:   12000000 cycles:    9863417 heartbeat IPC: 0.39798 cumulative IPC: 0.39528 (Simulation time: 0 hr 0 min 17 sec) 
Heartbeat CPU  0 instructions:   13000001 cycles:   11589486 heartbeat IPC: 0.57935 cumulative IPC: 0.44210 (Simulation time: 0 hr 0 min 19 sec) 
Heartbeat CPU  0 instructions:   14000001 cycles:   12434598 heartbeat IPC: 1.18328 cumulative IPC: 0.52418 (Simulation time: 0 hr 0 min 20 sec) 
Heartbeat CPU  0 instructions:   15000000 cycles:   13364460 heartbeat IPC: 1.07543 cumulative IPC: 0.58406 (Simulation time: 0 hr 0 min 22 sec) 
Heartbeat CPU  0 instructions:   16000000 cycles:   15921517 heartbeat IPC: 0.39107 cumulative IPC: 0.53967 (Simulation time: 0 hr 0 min 24 sec) 
Heartbeat CPU  0 instructions:   17000000 cycles:   18441036 heartbeat IPC: 0.39690 cumulative IPC: 0.51330 (Simulation time: 0 hr 0 min 26 sec) 
Heartbeat CPU  0 instructions:   18000002 cycles:   20446361 heartbeat IPC: 0.49867 cumulative IPC: 0.51142 (Simulation time: 0 hr 0 min 28 sec) 
Heartbeat CPU  0 instructions:   19000002 cycles:   21342672 heartbeat IPC: 1.11568 cumulative IPC: 0.54417 (Simulation time: 0 hr 0 min 29 sec) 
Heartbeat CPU  0 instructions:   20000000 cycles:   22082604 heartbeat IPC: 1.35147 cumulative IPC: 0.57874 (Simulation time: 0 hr 0 min 31 sec) 
Heartbeat CPU  0 instructions:   21000000 cycles:   24549650 heartbeat IPC: 0.40534 cumulative IPC: 0.55708 (Simulation time: 0 hr 0 min 33 sec) 
Heartbeat CPU  0 instructions:   22000003 cycles:   27087824 heartbeat IPC: 0.39399 cumulative IPC: 0.53850 (Simulation time: 0 hr 0 min 35 sec) 
Heartbeat CPU  0 instructions:   23000001 cycles:   29471044 heartbeat IPC: 0.41960 cumulative IPC: 0.52701 (Simulation time: 0 hr 0 min 37 sec) 
Heartbeat CPU  0 instructions:   24000000 cycles:   30724602 heartbeat IPC: 0.79773 cumulative IPC: 0.54010 (Simulation time: 0 hr 0 min 38 sec) 
Heartbeat CPU  0 instructions:   25000003 cycles:   31483088 heartbeat IPC: 1.31842 cumulative IPC: 0.56223 (Simulation time: 0 hr 0 min 40 sec) 
Heartbeat CPU  0 instructions:   26000001 cycles:   33175920 heartbeat IPC: 0.59072 cumulative IPC: 0.56393 (Simulation time: 0 hr 0 min 42 sec) 
Heartbeat CPU  0 instructions:   27000001 cycles:   35746162 heartbeat IPC: 0.38907 cumulative IPC: 0.54941 (Simulation time: 0 hr 0 min 44 sec) 
Heartbeat CPU  0 instructions:   28000000 cycles:   38224443 heartbeat IPC: 0.40351 cumulative IPC: 0.53859 (Simulation time: 0 hr 0 min 46 sec) 
Heartbeat CPU  0 instructions:   29000003 cycles:   39733227 heartbeat IPC: 0.66279 cumulative IPC: 0.54395 (Simulation time: 0 hr 0 min 48 sec) 
Heartbeat CPU  0 instructions:   30000000 cycles:   40523133 heartbeat IPC: 1.26597 cumulative IPC: 0.55992 (Simulation time: 0 hr 0 min 49 sec) 
Heartbeat CPU  0 instructions:   31000003 cycles:   41880562 heartbeat IPC: 0.73669 cumulative IPC: 0.56639 (Simulation time: 0 hr 0 min 51 sec) 
Heartbeat CPU  0 instructions:   32000000 cycles:   44435786 heartbeat IPC: 0.39135 cumulative IPC: 0.55511 (Simulation time: 0 hr 0 min 53 sec) 
Heartbeat CPU  0 instructions:   33000000 cycles:   46900015 heartbeat IPC: 0.40581 cumulative IPC: 0.54637 (Simulation time: 0 hr 0 min 55 sec) 
Heartbeat CPU  0 instructions:   34000000 cycles:   48517744 heartbeat IPC: 0.61815 cumulative IPC: 0.54902 (Simulation time: 0 hr 0 min 56 sec) 
Heartbeat CPU  0 instructions:   35000003 cycles:   49328330 heartbeat IPC: 1.23368 cumulative IPC: 0.56149 (Simulation time: 0 hr 0 min 58 sec) 
Heartbeat CPU  0 instructions:   36000000 cycles:   50574847 heartbeat IPC: 0.80223 cumulative IPC: 0.56804 (Simulation time: 0 hr 1 min 0 sec) 
Heartbeat CPU  0 instructions:   37000001 cycles:   53143728 heartbeat IPC: 0.38927 cumulative IPC: 0.55854 (Simulation time: 0 hr 1 min 2 sec) 
Heartbeat CPU  0 instructions:   38000000 cycles:   55620677 heartbeat IPC: 0.40372 cumulative IPC: 0.55100 (Simulation time: 0 hr 1 min 4 sec) 
Heartbeat CPU  0 instructions:   39000001 cycles:   57249963 heartbeat IPC: 0.61377 cumulative IPC: 0.55295 (Simulation time: 0 hr 1 min 5 sec) 
Heartbeat CPU  0 instructions:   40000000 cycles:   58061433 heartbeat IPC: 1.23233 cumulative IPC: 0.56330 (Simulation time: 0 hr 1 min 7 sec) 
Heartbeat CPU  0 instructions:   41000003 cycles:   59291396 heartbeat IPC: 0.81304 cumulative IPC: 0.56894 (Simulation time: 0 hr 1 min 9 sec) 
Heartbeat CPU  0 instructions:   42000000 cycles:   61879740 heartbeat IPC: 0.38635 cumulative IPC: 0.56066 (Simulation time: 0 hr 1 min 11 sec) 
Heartbeat CPU  0 instructions:   43000003 cycles:   64370270 heartbeat IPC: 0.40152 cumulative IPC: 0.55400 (Simulation time: 0 hr 1 min 13 sec) 
Heartbeat CPU  0 instructions:   44000000 cycles:   65914313 heartbeat IPC: 0.64765 cumulative IPC: 0.55637 (Simulation time: 0 hr 1 min 14 sec) 
Heartbeat CPU  0 instructions:   45000001 cycles:   66713678 heartbeat IPC: 1.25099 cumulative IPC: 0.56534 (Simulation time: 0 hr 1 min 16 sec) 
Heartbeat CPU  0 instructions:   46000001 cycles:   68011510 heartbeat IPC: 0.77052 cumulative IPC: 0.56955 (Simulation time: 0 hr 1 min 18 sec) 
Heartbeat CPU  0 instructions:   47000002 cycles:   70576693 heartbeat IPC: 0.38984 cumulative IPC: 0.56254 (Simulation time: 0 hr 1 min 20 sec) 
Heartbeat CPU  0 instructions:   48000000 cycles:   73039833 heartbeat IPC: 0.40599 cumulative IPC: 0.55689 (Simulation time: 0 hr 1 min 22 sec) 
Heartbeat CPU  0 instructions:   49000001 cycles:   74452619 heartbeat IPC: 0.70782 cumulative IPC: 0.55995 (Simulation time: 0 hr 1 min 23 sec) 
Heartbeat CPU  0 instructions:   50000003 cycles:   75240557 heartbeat IPC: 1.26914 cumulative IPC: 0.56788 (Simulation time: 0 hr 1 min 25 sec) 
Heartbeat CPU  0 instructions:   51000003 cycles:   76648679 heartbeat IPC: 0.71017 cumulative IPC: 0.57067 (Simulation time: 0 hr 1 min 27 sec) 
Heartbeat CPU  0 instructions:   52000000 cycles:   79249802 heartbeat IPC: 0.38445 cumulative IPC: 0.56417 (Simulation time: 0 hr 1 min 29 sec) 
Heartbeat CPU  0 instructions:   53000000 cycles:   81762437 heartbeat IPC: 0.39799 cumulative IPC: 0.55874 (Simulation time: 0 hr 1 min 31 sec) 
Heartbeat CPU  0 instructions:   54000000 cycles:   83218884 heartbeat IPC: 0.68660 cumulative IPC: 0.56112 (Simulation time: 0 hr 1 min 33 sec) 
Heartbeat CPU  0 instructions:   55000000 cycles:   84647468 heartbeat IPC: 0.69999 cumulative IPC: 0.56360 (Simulation time: 0 hr 1 min 35 sec) 
Heartbeat CPU  0 instructions:   56000000 cycles:   85661283 heartbeat IPC: 0.98637 cumulative IPC: 0.56890 (Simulation time: 0 hr 1 min 36 sec) 
Heartbeat CPU  0 instructions:   57000002 cycles:   87206739 heartbeat IPC: 0.64706 cumulative IPC: 0.57037 (Simulation time: 0 hr 1 min 38 sec) 
Heartbeat CPU  0 instructions:   58000001 cycles:   88862209 heartbeat IPC: 0.60406 cumulative IPC: 0.57103 (Simulation time: 0 hr 1 min 40 sec) 
Heartbeat CPU  0 instructions:   59000001 cycles:   89945469 heartbeat IPC: 0.92314 cumulative IPC: 0.57551 (Simulation time: 0 hr 1 min 41 sec) 
Heartbeat CPU  0 instructions:   60000000 cycles:   90985757 heartbeat IPC: 0.96127 cumulative IPC: 0.58017 (Simulation time: 0 hr 1 min 43 sec) 
Finished CPU 0 instructions: 50000000 cycles: 86182087 cumulative IPC: 0.58017 (Simulation time: 0 hr 1 min 43 sec) 

ChampSim completed all CPUs

[ROI Statistics]
Core_0_instructions 50000000
Core_0_cycles 86182087
Core_0_IPC 0.58017

Core_0_branch_prediction_accuracy 96.58255
Core_0_branch_MPKI 3.13984
Core_0_average_ROB_occupancy_at_mispredict 119.26293

Core_0_L1D_total_access 8177222
Core_0_L1D_total_hit 7191569
Core_0_L1D_total_miss 985653
Core_0_L1D_loads 6925920
Core_0_L1D_load_hit 6000729
Core_0_L1D_load_miss 925191
Core_0_L1D_RFOs 1251302
Core_0_L1D_RFO_hit 1190840
Core_0_L1D_RFO_miss 60462
Core_0_L1D_prefetches 0
Core_0_L1D_prefetch_hit 0
Core_0_L1D_prefetch_miss 0
Core_0_L1D_writebacks 0
Core_0_L1D_writeback_hit 0
Core_0_L1D_writeback_miss 0
Core_0_L1D_prefetch_requested 0
Core_0_L1D_prefetch_dropped 0
Core_0_L1D_prefetch_issued 0
Core_0_L1D_prefetch_filled 0
Core_0_L1D_prefetch_useful 0
Core_0_L1D_prefetch_useless 0
Core_0_L1D_prefetch_late 0
Core_0_L1D_average_miss_latency 100.79784

Core_0_L1D_rq_access 12670127
Core_0_L1D_rq_forward 0
Core_0_L1D_rq_merged 4811513
Core_0_L1D_rq_to_cache 7858584
Core_0_L1D_rq_full 0

Core_0_L1D_wq_access 1387050
Core_0_L1D_wq_forward 30
Core_0_L1D_wq_merged 3715
Core_0_L1D_wq_to_cache 1383335
Core_0_L1D_wq_full 253955

Core_0_L1D_pq_access 0
Core_0_L1D_pq_forward 0
Core_0_L1D_pq_merged 0
Core_0_L1D_pq_to_cache 0
Core_0_L1D_pq_full 0

Core_0_L1D_acc_epochs 85761
Core_0_L1D_acc_level_0 85761
Core_0_L1D_acc_level_1 0
Core_0_L1D_acc_level_2 0
Core_0_L1D_acc_level_3 0
Core_0_L1D_acc_level_4 0
Core_0_L1D_acc_level_5 0
Core_0_L1D_acc_level_6 0
Core_0_L1D_acc_level_7 0
Core_0_L1D_acc_level_8 0
Core_0_L1D_acc_level_9 0

Core_0_L1I_total_access 11777909
Core_0_L1I_total_hit 11776986
Core_0_L1I_total_miss 923
Core_0_L1I_loads 11777909
Core_0_L1I_load_hit 11776986
Core_0_L1I_load_miss 923
Core_0_L1I_RFOs 0
Core_0_L1I_RFO_hit 0
Core_0_L1I_RFO_miss 0
Core_0_L1I_prefetches 0
Core_0_L1I_prefetch_hit 0
Core_0_L1I_prefetch_miss 0
Core_0_L1I_writebacks 0
Core_0_L1I_writeback_hit 0
Core_0_L1I_writeback_miss 0
Core_0_L1I_prefetch_requested 0
Core_0_L1I_prefetch_dropped 0
Core_0_L1I_prefetch_issued 0
Core_0_L1I_prefetch_filled 0
Core_0_L1I_prefetch_useful 0
Core_0_L1I_prefetch_useless 0
Core_0_L1I_prefetch_late 0
Core_0_L1I_average_miss_latency 216.63380

Core_0_L1I_rq_access 49999978
Core_0_L1I_rq_forward 0
Core_0_L1I_rq_merged 38221524
Core_0_L1I_rq_to_cache 11778454
Core_0_L1I_rq_full 0

Core_0_L1I_wq_access 0
Core_0_L1I_wq_forward 0
Core_0_L1I_wq_merged 0
Core_0_L1I_wq_to_cache 0
Core_0_L1I_wq_full 0

Core_0_L1I_pq_access 0
Core_0_L1I_pq_forward 0
Core_0_L1I_pq_merged 0
Core_0_L1I_pq_to_cache 0
Core_0_L1I_pq_full 0

Core_0_L1I_acc_epochs 85761
Core_0_L1I_acc_level_0 85761
Core_0_L1I_acc_level_1 0
Core_0_L1I_acc_level_2 0
Core_0_L1I_acc_level_3 0
Core_0_L1I_acc_level_4 0
Core_0_L1I_acc_level_5 0
Core_0_L1I_acc_level_6 0
Core_0_L1I_acc_level_7 0
Core_0_L1I_acc_level_8 0
Core_0_L1I_acc_level_9 0

Core_0_L2C_total_access 1077250
Core_0_L2C_total_hit 336951
Core_0_L2C_total_miss 740299
Core_0_L2C_loads 926114
Core_0_L2C_load_hit 237079
Core_0_L2C_load_miss 689035
Core_0_L2C_RFOs 60457
Core_0_L2C_RFO_hit 9334
Core_0_L2C_RFO_miss 51123
Core_0_L2C_prefetches 0
Core_0_L2C_prefetch_hit 0
Core_0_L2C_prefetch_miss 0
Core_0_L2C_writebacks 90679
Core_0_L2C_writeback_hit 90538
Core_0_L2C_writeback_miss 141
Core_0_L2C_prefetch_requested 0
Core_0_L2C_prefetch_dropped 0
Core_0_L2C_prefetch_issued 0
Core_0_L2C_prefetch_filled 0
Core_0_L2C_prefetch_useful 0
Core_0_L2C_prefetch_useless 0
Core_0_L2C_prefetch_late 0
Core_0_L2C_average_miss_latency 114.85748

Core_0_L2C_rq_access 986576
Core_0_L2C_rq_forward 0
Core_0_L2C_rq_merged 0
Core_0_L2C_rq_to_cache 986571
Core_0_L2C_rq_full 0

Core_0_L2C_wq_access 90679
Core_0_L2C_wq_forward 5
Core_0_L2C_wq_merged 0
Core_0_L2C_wq_to_cache 90679
Core_0_L2C_wq_full 0

Core_0_L2C_pq_access 0
Core_0_L2C_pq_forward 0
Core_0_L2C_pq_merged 0
Core_0_L2C_pq_to_cache 0
Core_0_L2C_pq_full 0

Core_0_L2C_acc_epochs 85761
Core_0_L2C_acc_level_0 85761
Core_0_L2C_acc_level_1 0
Core_0_L2C_acc_level_2 0
Core_0_L2C_acc_level_3 0
Core_0_L2C_acc_level_4 0
Core_0_L2C_acc_level_5 0
Core_0_L2C_acc_level_6 0
Core_0_L2C_acc_level_7 0
Core_0_L2C_acc_level_8 0
Core_0_L2C_acc_level_9 0

Core_0_LLC_total_access 814755
Core_0_LLC_total_hit 394744
Core_0_LLC_total_miss 420011
Core_0_LLC_loads 689035
Core_0_LLC_load_hit 303407
Core_0_LLC_load_miss 385628
Core_0_LLC_RFOs 51123
Core_0_LLC_RFO_hit 33197
Core_0_LLC_RFO_miss 17926
Core_0_LLC_prefetches 0
Core_0_LLC_prefetch_hit 0
Core_0_LLC_prefetch_miss 0
Core_0_LLC_writebacks 74597
Core_0_LLC_writeback_hit 58140
Core_0_LLC_writeback_miss 16457
Core_0_LLC_prefetch_requested 0
Core_0_LLC_prefetch_dropped 0
Core_0_LLC_prefetch_issued 0
Core_0_LLC_prefetch_filled 0
Core_0_LLC_prefetch_useful 0
Core_0_LLC_prefetch_useless 0
Core_0_LLC_prefetch_late 0
Core_0_LLC_average_miss_latency 147.57567

Core_0_LLC_rq_access 740158
Core_0_LLC_rq_forward 0
Core_0_LLC_rq_merged 0
Core_0_LLC_rq_to_cache 740158
Core_0_LLC_rq_full 0

Core_0_LLC_wq_access 74597
Core_0_LLC_wq_forward 0
Core_0_LLC_wq_merged 0
Core_0_LLC_wq_to_cache 74597
Core_0_LLC_wq_full 0

Core_0_LLC_pq_access 0
Core_0_LLC_pq_forward 0
Core_0_LLC_pq_merged 0
Core_0_LLC_pq_to_cache 0
Core_0_LLC_pq_full 0

Core_0_LLC_acc_epochs 88854
Core_0_LLC_acc_level_0 88854
Core_0_LLC_acc_level_1 0
Core_0_LLC_acc_level_2 0
Core_0_LLC_acc_level_3 0
Core_0_LLC_acc_level_4 0
Core_0_LLC_acc_level_5 0
Core_0_LLC_acc_level_6 0
Core_0_LLC_acc_level_7 0
Core_0_LLC_acc_level_8 0
Core_0_LLC_acc_level_9 0

Core_0_major_page_fault 0
Core_0_minor_page_fault 3924

Channel_0_RQ_row_buffer_hit 239721
Channel_0_RQ_row_buffer_miss 163831
Channel_0_WQ_row_buffer_hit 8550
Channel_0_WQ_row_buffer_miss 9947
Channel_0_WQ_full 0
Channel_0_dbus_congested 44327

avg_congested_cycle 9

DRAM_bw_pochs 355414
DRAM_bw_level_0 341044
DRAM_bw_level_1 13146
DRAM_bw_level_2 385
DRAM_bw_level_3 839
