*************************************************
   ChampSim Multicore Out-of-Order Simulator
   Last compiled: Apr  3 2025 20:54:34
*************************************************
parsing config file: /home/zir/Pythia/config/nopref.ini

trace_0 /home/zir/ChampSim/ML-DPC/ChampSimTraces/spec06/471.omnetpp-s1.trace.gz
adding L2C_PREFETCHER: NONE
Initialize SHIP state
warmup_instructions 10000000
simulation_instructions 50000000
champsim_seed 164
measure_ipc 0
measure_ipc_epoch 1000
measure_dram_bw 1
measure_dram_bw_epoch 256
measure_cache_acc 1
measure_cache_acc_epoch 1024
l1d_perfect 0
l2c_perfect 0
llc_perfect 0
l1d_semi_perfect 0
l2c_semi_perfect 0
llc_semi_perfect 0
semi_perfect_cache_page_buffer_size 64

num_cpus 1
cpu_freq 4000
dram_io_freq 2400
page_size 4096
block_size 64
max_read_per_cycle 8
max_fill_per_cycle 1
dram_channels 1
log2_dram_channels 0
dram_ranks 1
dram_banks 8
dram_rows 65536
dram_columns 128
dram_row_size 8
dram_size 4096
dram_pages 1048576

fetch_width 6
decode_width 6
exec_width 4
lq_width 2
sq_width 2
retire_width 4
scheduler_size 128
branch_mispredict_penalty 20
rob_size 256
lq_size 72
sq_size 56
num_instr_destinations_sparc 4
num_instr_destinations 2
num_instr_sources 4

itlb_set 16
itlb_way 8
itlb_rq_size 16
itlb_wq_size 16
itlb_pq_size 0
itlb_mshr_size 8
itlb_latency 1

dtlb_set 16
dtlb_way 4
dtlb_rq_size 16
dtlb_wq_size 16
dtlb_pq_size 0
dtlb_mshr_size 8
dtlb_latency 1

stlb_set 128
stlb_way 12
stlb_rq_size 32
stlb_wq_size 32
stlb_pq_size 0
stlb_mshr_size 16
stlb_latency 8

l1i_size 32
l1i_set 64
l1i_way 8
l1i_rq_size 64
l1i_wq_size 64
l1i_pq_size 8
l1i_mshr_size 8
l1i_latency 1

l1d_size 32
l1d_set 64
l1d_way 8
l1d_rq_size 64
l1d_wq_size 64
l1d_pq_size 8
l1d_mshr_size 16
l1d_latency 4

l2c_size 256
l2c_set 512
l2c_way 8
l2c_rq_size 32
l2c_wq_size 32
l2c_pq_size 32
l2c_mshr_size 32
l2c_latency 10

llc_size 2048
llc_set 2048
llc_way 16
llc_rq_size 32
llc_wq_size 32
llc_pq_size 32
llc_mshr_size 64
llc_latency 20

dram_channel_width 8
dram_wq_size 64
dram_rq_size 64
tRP 15
tRCD 15
tCAS 12.5
dram_dbus_turn_around_time 30
dram_write_high_wm 56
dram_write_low_wm 48
min_dram_writes_per_switch 16
dram_mtps 2400
dram_dbus_return_time 13


Heartbeat CPU  0 instructions:    1000001 cycles:     687961 heartbeat IPC: 1.45357 cumulative IPC: 1.45357 (Simulation time: 0 hr 0 min 2 sec) 
Heartbeat CPU  0 instructions:    2000000 cycles:    1453616 heartbeat IPC: 1.30607 cumulative IPC: 1.37588 (Simulation time: 0 hr 0 min 3 sec) 
Heartbeat CPU  0 instructions:    3000001 cycles:    2228702 heartbeat IPC: 1.29018 cumulative IPC: 1.34608 (Simulation time: 0 hr 0 min 5 sec) 
Heartbeat CPU  0 instructions:    4000000 cycles:    2950036 heartbeat IPC: 1.38632 cumulative IPC: 1.35592 (Simulation time: 0 hr 0 min 6 sec) 
Heartbeat CPU  0 instructions:    5000002 cycles:    3718502 heartbeat IPC: 1.30130 cumulative IPC: 1.34463 (Simulation time: 0 hr 0 min 8 sec) 
Heartbeat CPU  0 instructions:    6000003 cycles:    4455605 heartbeat IPC: 1.35666 cumulative IPC: 1.34662 (Simulation time: 0 hr 0 min 9 sec) 
Heartbeat CPU  0 instructions:    7000003 cycles:    5212844 heartbeat IPC: 1.32059 cumulative IPC: 1.34284 (Simulation time: 0 hr 0 min 11 sec) 
Heartbeat CPU  0 instructions:    8000000 cycles:    5897844 heartbeat IPC: 1.45985 cumulative IPC: 1.35643 (Simulation time: 0 hr 0 min 13 sec) 
Heartbeat CPU  0 instructions:    9000002 cycles:    6602091 heartbeat IPC: 1.41996 cumulative IPC: 1.36320 (Simulation time: 0 hr 0 min 14 sec) 
Heartbeat CPU  0 instructions:   10000002 cycles:    7288239 heartbeat IPC: 1.45741 cumulative IPC: 1.37207 (Simulation time: 0 hr 0 min 16 sec) 

Warmup complete CPU  0 instructions:   10000002 cycles:    7288239 (Simulation time: 0 hr 0 min 16 sec) 

Heartbeat CPU  0 instructions:   11000000 cycles:   11125500 heartbeat IPC: 0.26060 cumulative IPC: 0.26060 (Simulation time: 0 hr 0 min 19 sec) 
Heartbeat CPU  0 instructions:   12000000 cycles:   14933565 heartbeat IPC: 0.26260 cumulative IPC: 0.26160 (Simulation time: 0 hr 0 min 21 sec) 
Heartbeat CPU  0 instructions:   13000000 cycles:   19056089 heartbeat IPC: 0.24257 cumulative IPC: 0.25493 (Simulation time: 0 hr 0 min 24 sec) 
Heartbeat CPU  0 instructions:   14000001 cycles:   23181459 heartbeat IPC: 0.24240 cumulative IPC: 0.25168 (Simulation time: 0 hr 0 min 27 sec) 
Heartbeat CPU  0 instructions:   15000003 cycles:   27606790 heartbeat IPC: 0.22597 cumulative IPC: 0.24608 (Simulation time: 0 hr 0 min 30 sec) 
Heartbeat CPU  0 instructions:   16000000 cycles:   32236844 heartbeat IPC: 0.21598 cumulative IPC: 0.24049 (Simulation time: 0 hr 0 min 32 sec) 
Heartbeat CPU  0 instructions:   17000000 cycles:   36341156 heartbeat IPC: 0.24365 cumulative IPC: 0.24094 (Simulation time: 0 hr 0 min 35 sec) 
Heartbeat CPU  0 instructions:   18000000 cycles:   40573421 heartbeat IPC: 0.23628 cumulative IPC: 0.24035 (Simulation time: 0 hr 0 min 38 sec) 
Heartbeat CPU  0 instructions:   19000000 cycles:   45143719 heartbeat IPC: 0.21880 cumulative IPC: 0.23775 (Simulation time: 0 hr 0 min 41 sec) 
Heartbeat CPU  0 instructions:   20000000 cycles:   49426043 heartbeat IPC: 0.23352 cumulative IPC: 0.23732 (Simulation time: 0 hr 0 min 44 sec) 
Heartbeat CPU  0 instructions:   21000000 cycles:   53171933 heartbeat IPC: 0.26696 cumulative IPC: 0.23974 (Simulation time: 0 hr 0 min 46 sec) 
Heartbeat CPU  0 instructions:   22000001 cycles:   57329335 heartbeat IPC: 0.24054 cumulative IPC: 0.23980 (Simulation time: 0 hr 0 min 49 sec) 
Heartbeat CPU  0 instructions:   23000001 cycles:   61416546 heartbeat IPC: 0.24467 cumulative IPC: 0.24017 (Simulation time: 0 hr 0 min 52 sec) 
Heartbeat CPU  0 instructions:   24000000 cycles:   65456000 heartbeat IPC: 0.24756 cumulative IPC: 0.24068 (Simulation time: 0 hr 0 min 55 sec) 
Heartbeat CPU  0 instructions:   25000000 cycles:   69654856 heartbeat IPC: 0.23816 cumulative IPC: 0.24051 (Simulation time: 0 hr 0 min 58 sec) 
Heartbeat CPU  0 instructions:   26000001 cycles:   73920000 heartbeat IPC: 0.23446 cumulative IPC: 0.24013 (Simulation time: 0 hr 1 min 0 sec) 
Heartbeat CPU  0 instructions:   27000000 cycles:   78350952 heartbeat IPC: 0.22568 cumulative IPC: 0.23923 (Simulation time: 0 hr 1 min 3 sec) 
Heartbeat CPU  0 instructions:   28000000 cycles:   83044524 heartbeat IPC: 0.21306 cumulative IPC: 0.23760 (Simulation time: 0 hr 1 min 6 sec) 
Heartbeat CPU  0 instructions:   29000000 cycles:   87519311 heartbeat IPC: 0.22347 cumulative IPC: 0.23682 (Simulation time: 0 hr 1 min 9 sec) 
Heartbeat CPU  0 instructions:   30000000 cycles:   91478412 heartbeat IPC: 0.25258 cumulative IPC: 0.23756 (Simulation time: 0 hr 1 min 12 sec) 
Heartbeat CPU  0 instructions:   31000000 cycles:   95695462 heartbeat IPC: 0.23713 cumulative IPC: 0.23754 (Simulation time: 0 hr 1 min 15 sec) 
Heartbeat CPU  0 instructions:   32000000 cycles:   99674725 heartbeat IPC: 0.25130 cumulative IPC: 0.23813 (Simulation time: 0 hr 1 min 17 sec) 
Heartbeat CPU  0 instructions:   33000003 cycles:  103737692 heartbeat IPC: 0.24613 cumulative IPC: 0.23847 (Simulation time: 0 hr 1 min 20 sec) 
Heartbeat CPU  0 instructions:   34000001 cycles:  108196420 heartbeat IPC: 0.22428 cumulative IPC: 0.23784 (Simulation time: 0 hr 1 min 23 sec) 
Heartbeat CPU  0 instructions:   35000002 cycles:  112078682 heartbeat IPC: 0.25758 cumulative IPC: 0.23857 (Simulation time: 0 hr 1 min 25 sec) 
Heartbeat CPU  0 instructions:   36000000 cycles:  116903021 heartbeat IPC: 0.20728 cumulative IPC: 0.23719 (Simulation time: 0 hr 1 min 28 sec) 
Heartbeat CPU  0 instructions:   37000000 cycles:  121557985 heartbeat IPC: 0.21482 cumulative IPC: 0.23628 (Simulation time: 0 hr 1 min 31 sec) 
Heartbeat CPU  0 instructions:   38000000 cycles:  125521791 heartbeat IPC: 0.25228 cumulative IPC: 0.23682 (Simulation time: 0 hr 1 min 34 sec) 
Heartbeat CPU  0 instructions:   39000001 cycles:  129978682 heartbeat IPC: 0.22437 cumulative IPC: 0.23637 (Simulation time: 0 hr 1 min 37 sec) 
Heartbeat CPU  0 instructions:   40000000 cycles:  133741415 heartbeat IPC: 0.26576 cumulative IPC: 0.23724 (Simulation time: 0 hr 1 min 40 sec) 
Heartbeat CPU  0 instructions:   41000000 cycles:  137716091 heartbeat IPC: 0.25159 cumulative IPC: 0.23768 (Simulation time: 0 hr 1 min 42 sec) 
Heartbeat CPU  0 instructions:   42000001 cycles:  142283291 heartbeat IPC: 0.21895 cumulative IPC: 0.23705 (Simulation time: 0 hr 1 min 45 sec) 
Heartbeat CPU  0 instructions:   43000000 cycles:  146666944 heartbeat IPC: 0.22812 cumulative IPC: 0.23676 (Simulation time: 0 hr 1 min 48 sec) 
Heartbeat CPU  0 instructions:   44000000 cycles:  150560874 heartbeat IPC: 0.25681 cumulative IPC: 0.23731 (Simulation time: 0 hr 1 min 51 sec) 
Heartbeat CPU  0 instructions:   45000003 cycles:  154794953 heartbeat IPC: 0.23618 cumulative IPC: 0.23728 (Simulation time: 0 hr 1 min 53 sec) 
Heartbeat CPU  0 instructions:   46000003 cycles:  159292425 heartbeat IPC: 0.22235 cumulative IPC: 0.23684 (Simulation time: 0 hr 1 min 56 sec) 
Heartbeat CPU  0 instructions:   47000000 cycles:  162687488 heartbeat IPC: 0.29454 cumulative IPC: 0.23810 (Simulation time: 0 hr 1 min 58 sec) 
Heartbeat CPU  0 instructions:   48000000 cycles:  167051983 heartbeat IPC: 0.22912 cumulative IPC: 0.23785 (Simulation time: 0 hr 2 min 1 sec) 
Heartbeat CPU  0 instructions:   49000000 cycles:  170340959 heartbeat IPC: 0.30405 cumulative IPC: 0.23919 (Simulation time: 0 hr 2 min 4 sec) 
Heartbeat CPU  0 instructions:   50000001 cycles:  174670532 heartbeat IPC: 0.23097 cumulative IPC: 0.23897 (Simulation time: 0 hr 2 min 6 sec) 
Heartbeat CPU  0 instructions:   51000003 cycles:  178663379 heartbeat IPC: 0.25045 cumulative IPC: 0.23924 (Simulation time: 0 hr 2 min 9 sec) 
Heartbeat CPU  0 instructions:   52000000 cycles:  183261515 heartbeat IPC: 0.21748 cumulative IPC: 0.23867 (Simulation time: 0 hr 2 min 12 sec) 
Heartbeat CPU  0 instructions:   53000000 cycles:  188247836 heartbeat IPC: 0.20055 cumulative IPC: 0.23762 (Simulation time: 0 hr 2 min 15 sec) 
Heartbeat CPU  0 instructions:   54000002 cycles:  192547189 heartbeat IPC: 0.23259 cumulative IPC: 0.23751 (Simulation time: 0 hr 2 min 18 sec) 
Heartbeat CPU  0 instructions:   55000001 cycles:  196851483 heartbeat IPC: 0.23233 cumulative IPC: 0.23739 (Simulation time: 0 hr 2 min 21 sec) 
Heartbeat CPU  0 instructions:   56000000 cycles:  201684446 heartbeat IPC: 0.20691 cumulative IPC: 0.23663 (Simulation time: 0 hr 2 min 24 sec) 
Heartbeat CPU  0 instructions:   57000001 cycles:  206073844 heartbeat IPC: 0.22782 cumulative IPC: 0.23644 (Simulation time: 0 hr 2 min 27 sec) 
Heartbeat CPU  0 instructions:   58000000 cycles:  209676150 heartbeat IPC: 0.27760 cumulative IPC: 0.23717 (Simulation time: 0 hr 2 min 29 sec) 
Heartbeat CPU  0 instructions:   59000003 cycles:  214147191 heartbeat IPC: 0.22366 cumulative IPC: 0.23688 (Simulation time: 0 hr 2 min 32 sec) 
Heartbeat CPU  0 instructions:   60000000 cycles:  219098174 heartbeat IPC: 0.20198 cumulative IPC: 0.23606 (Simulation time: 0 hr 2 min 35 sec) 
Finished CPU 0 instructions: 50000002 cycles: 211809944 cumulative IPC: 0.23606 (Simulation time: 0 hr 2 min 35 sec) 

ChampSim completed all CPUs

[ROI Statistics]
Core_0_instructions 50000002
Core_0_cycles 211809944
Core_0_IPC 0.23606

Core_0_branch_prediction_accuracy 97.38249
Core_0_branch_MPKI 4.77280
Core_0_average_ROB_occupancy_at_mispredict 95.97337

Core_0_L1D_total_access 18823663
Core_0_L1D_total_hit 17531976
Core_0_L1D_total_miss 1291687
Core_0_L1D_loads 10818355
Core_0_L1D_load_hit 9694151
Core_0_L1D_load_miss 1124204
Core_0_L1D_RFOs 8005308
Core_0_L1D_RFO_hit 7837825
Core_0_L1D_RFO_miss 167483
Core_0_L1D_prefetches 0
Core_0_L1D_prefetch_hit 0
Core_0_L1D_prefetch_miss 0
Core_0_L1D_writebacks 0
Core_0_L1D_writeback_hit 0
Core_0_L1D_writeback_miss 0
Core_0_L1D_prefetch_requested 0
Core_0_L1D_prefetch_dropped 0
Core_0_L1D_prefetch_issued 0
Core_0_L1D_prefetch_filled 0
Core_0_L1D_prefetch_useful 0
Core_0_L1D_prefetch_useless 0
Core_0_L1D_prefetch_late 0
Core_0_L1D_average_miss_latency 158.40939

Core_0_L1D_rq_access 13647929
Core_0_L1D_rq_forward 0
Core_0_L1D_rq_merged 2698230
Core_0_L1D_rq_to_cache 10948495
Core_0_L1D_rq_full 0

Core_0_L1D_wq_access 8593143
Core_0_L1D_wq_forward 1204
Core_0_L1D_wq_merged 92271
Core_0_L1D_wq_to_cache 8500872
Core_0_L1D_wq_full 0

Core_0_L1D_pq_access 0
Core_0_L1D_pq_forward 0
Core_0_L1D_pq_merged 0
Core_0_L1D_pq_to_cache 0
Core_0_L1D_pq_full 0

Core_0_L1D_acc_epochs 191573
Core_0_L1D_acc_level_0 191573
Core_0_L1D_acc_level_1 0
Core_0_L1D_acc_level_2 0
Core_0_L1D_acc_level_3 0
Core_0_L1D_acc_level_4 0
Core_0_L1D_acc_level_5 0
Core_0_L1D_acc_level_6 0
Core_0_L1D_acc_level_7 0
Core_0_L1D_acc_level_8 0
Core_0_L1D_acc_level_9 0

Core_0_L1I_total_access 15895172
Core_0_L1I_total_hit 15891768
Core_0_L1I_total_miss 3404
Core_0_L1I_loads 15895172
Core_0_L1I_load_hit 15891768
Core_0_L1I_load_miss 3404
Core_0_L1I_RFOs 0
Core_0_L1I_RFO_hit 0
Core_0_L1I_RFO_miss 0
Core_0_L1I_prefetches 0
Core_0_L1I_prefetch_hit 0
Core_0_L1I_prefetch_miss 0
Core_0_L1I_writebacks 0
Core_0_L1I_writeback_hit 0
Core_0_L1I_writeback_miss 0
Core_0_L1I_prefetch_requested 0
Core_0_L1I_prefetch_dropped 0
Core_0_L1I_prefetch_issued 0
Core_0_L1I_prefetch_filled 0
Core_0_L1I_prefetch_useful 0
Core_0_L1I_prefetch_useless 0
Core_0_L1I_prefetch_late 0
Core_0_L1I_average_miss_latency 69.94712

Core_0_L1I_rq_access 50000006
Core_0_L1I_rq_forward 0
Core_0_L1I_rq_merged 34103092
Core_0_L1I_rq_to_cache 15896914
Core_0_L1I_rq_full 0

Core_0_L1I_wq_access 0
Core_0_L1I_wq_forward 0
Core_0_L1I_wq_merged 0
Core_0_L1I_wq_to_cache 0
Core_0_L1I_wq_full 0

Core_0_L1I_pq_access 0
Core_0_L1I_pq_forward 0
Core_0_L1I_pq_merged 0
Core_0_L1I_pq_to_cache 0
Core_0_L1I_pq_full 0

Core_0_L1I_acc_epochs 191573
Core_0_L1I_acc_level_0 191573
Core_0_L1I_acc_level_1 0
Core_0_L1I_acc_level_2 0
Core_0_L1I_acc_level_3 0
Core_0_L1I_acc_level_4 0
Core_0_L1I_acc_level_5 0
Core_0_L1I_acc_level_6 0
Core_0_L1I_acc_level_7 0
Core_0_L1I_acc_level_8 0
Core_0_L1I_acc_level_9 0

Core_0_L2C_total_access 1845580
Core_0_L2C_total_hit 728787
Core_0_L2C_total_miss 1116793
Core_0_L2C_loads 1127546
Core_0_L2C_load_hit 169421
Core_0_L2C_load_miss 958125
Core_0_L2C_RFOs 167477
Core_0_L2C_RFO_hit 11119
Core_0_L2C_RFO_miss 156358
Core_0_L2C_prefetches 0
Core_0_L2C_prefetch_hit 0
Core_0_L2C_prefetch_miss 0
Core_0_L2C_writebacks 550557
Core_0_L2C_writeback_hit 548247
Core_0_L2C_writeback_miss 2310
Core_0_L2C_prefetch_requested 0
Core_0_L2C_prefetch_dropped 0
Core_0_L2C_prefetch_issued 0
Core_0_L2C_prefetch_filled 0
Core_0_L2C_prefetch_useful 0
Core_0_L2C_prefetch_useless 0
Core_0_L2C_prefetch_late 0
Core_0_L2C_average_miss_latency 165.18577

Core_0_L2C_rq_access 1295093
Core_0_L2C_rq_forward 0
Core_0_L2C_rq_merged 0
Core_0_L2C_rq_to_cache 1295024
Core_0_L2C_rq_full 0

Core_0_L2C_wq_access 550557
Core_0_L2C_wq_forward 69
Core_0_L2C_wq_merged 0
Core_0_L2C_wq_to_cache 550557
Core_0_L2C_wq_full 0

Core_0_L2C_pq_access 0
Core_0_L2C_pq_forward 0
Core_0_L2C_pq_merged 0
Core_0_L2C_pq_to_cache 0
Core_0_L2C_pq_full 0

Core_0_L2C_acc_epochs 191573
Core_0_L2C_acc_level_0 191573
Core_0_L2C_acc_level_1 0
Core_0_L2C_acc_level_2 0
Core_0_L2C_acc_level_3 0
Core_0_L2C_acc_level_4 0
Core_0_L2C_acc_level_5 0
Core_0_L2C_acc_level_6 0
Core_0_L2C_acc_level_7 0
Core_0_L2C_acc_level_8 0
Core_0_L2C_acc_level_9 0

Core_0_LLC_total_access 1596571
Core_0_LLC_total_hit 617733
Core_0_LLC_total_miss 978838
Core_0_LLC_loads 958124
Core_0_LLC_load_hit 252283
Core_0_LLC_load_miss 705841
Core_0_LLC_RFOs 156358
Core_0_LLC_RFO_hit 39561
Core_0_LLC_RFO_miss 116797
Core_0_LLC_prefetches 0
Core_0_LLC_prefetch_hit 0
Core_0_LLC_prefetch_miss 0
Core_0_LLC_writebacks 482089
Core_0_LLC_writeback_hit 325889
Core_0_LLC_writeback_miss 156200
Core_0_LLC_prefetch_requested 0
Core_0_LLC_prefetch_dropped 0
Core_0_LLC_prefetch_issued 0
Core_0_LLC_prefetch_filled 0
Core_0_LLC_prefetch_useful 0
Core_0_LLC_prefetch_useless 0
Core_0_LLC_prefetch_late 0
Core_0_LLC_average_miss_latency 151.16737

Core_0_LLC_rq_access 1114484
Core_0_LLC_rq_forward 0
Core_0_LLC_rq_merged 0
Core_0_LLC_rq_to_cache 1114483
Core_0_LLC_rq_full 0

Core_0_LLC_wq_access 482090
Core_0_LLC_wq_forward 1
Core_0_LLC_wq_merged 0
Core_0_LLC_wq_to_cache 482090
Core_0_LLC_wq_full 0

Core_0_LLC_pq_access 0
Core_0_LLC_pq_forward 0
Core_0_LLC_pq_merged 0
Core_0_LLC_pq_to_cache 0
Core_0_LLC_pq_full 0

Core_0_LLC_acc_epochs 213964
Core_0_LLC_acc_level_0 213964
Core_0_LLC_acc_level_1 0
Core_0_LLC_acc_level_2 0
Core_0_LLC_acc_level_3 0
Core_0_LLC_acc_level_4 0
Core_0_LLC_acc_level_5 0
Core_0_LLC_acc_level_6 0
Core_0_LLC_acc_level_7 0
Core_0_LLC_acc_level_8 0
Core_0_LLC_acc_level_9 0

Core_0_major_page_fault 0
Core_0_minor_page_fault 33482

Channel_0_RQ_row_buffer_hit 105447
Channel_0_RQ_row_buffer_miss 717189
Channel_0_WQ_row_buffer_hit 78760
Channel_0_WQ_row_buffer_miss 252441
Channel_0_WQ_full 0
Channel_0_dbus_congested 288153

avg_congested_cycle 10

DRAM_bw_pochs 855853
DRAM_bw_level_0 839771
DRAM_bw_level_1 16074
DRAM_bw_level_2 8
DRAM_bw_level_3 0
