*************************************************
   ChampSim Multicore Out-of-Order Simulator
   Last compiled: Apr  3 2025 20:54:34
*************************************************
parsing config file: /home/zir/Pythia/config/nopref.ini

trace_0 /home/zir/ChampSim/ML-DPC/ChampSimTraces/spec17/649.fotonik3d-s4.trace.xz
adding L2C_PREFETCHER: NONE
Initialize SHIP state
warmup_instructions 10000000
simulation_instructions 50000000
champsim_seed 167
measure_ipc 0
measure_ipc_epoch 1000
measure_dram_bw 1
measure_dram_bw_epoch 256
measure_cache_acc 1
measure_cache_acc_epoch 1024
l1d_perfect 0
l2c_perfect 0
llc_perfect 0
l1d_semi_perfect 0
l2c_semi_perfect 0
llc_semi_perfect 0
semi_perfect_cache_page_buffer_size 64

num_cpus 1
cpu_freq 4000
dram_io_freq 2400
page_size 4096
block_size 64
max_read_per_cycle 8
max_fill_per_cycle 1
dram_channels 1
log2_dram_channels 0
dram_ranks 1
dram_banks 8
dram_rows 65536
dram_columns 128
dram_row_size 8
dram_size 4096
dram_pages 1048576

fetch_width 6
decode_width 6
exec_width 4
lq_width 2
sq_width 2
retire_width 4
scheduler_size 128
branch_mispredict_penalty 20
rob_size 256
lq_size 72
sq_size 56
num_instr_destinations_sparc 4
num_instr_destinations 2
num_instr_sources 4

itlb_set 16
itlb_way 8
itlb_rq_size 16
itlb_wq_size 16
itlb_pq_size 0
itlb_mshr_size 8
itlb_latency 1

dtlb_set 16
dtlb_way 4
dtlb_rq_size 16
dtlb_wq_size 16
dtlb_pq_size 0
dtlb_mshr_size 8
dtlb_latency 1

stlb_set 128
stlb_way 12
stlb_rq_size 32
stlb_wq_size 32
stlb_pq_size 0
stlb_mshr_size 16
stlb_latency 8

l1i_size 32
l1i_set 64
l1i_way 8
l1i_rq_size 64
l1i_wq_size 64
l1i_pq_size 8
l1i_mshr_size 8
l1i_latency 1

l1d_size 32
l1d_set 64
l1d_way 8
l1d_rq_size 64
l1d_wq_size 64
l1d_pq_size 8
l1d_mshr_size 16
l1d_latency 4

l2c_size 256
l2c_set 512
l2c_way 8
l2c_rq_size 32
l2c_wq_size 32
l2c_pq_size 32
l2c_mshr_size 32
l2c_latency 10

llc_size 2048
llc_set 2048
llc_way 16
llc_rq_size 32
llc_wq_size 32
llc_pq_size 32
llc_mshr_size 64
llc_latency 20

dram_channel_width 8
dram_wq_size 64
dram_rq_size 64
tRP 15
tRCD 15
tCAS 12.5
dram_dbus_turn_around_time 30
dram_write_high_wm 56
dram_write_low_wm 48
min_dram_writes_per_switch 16
dram_mtps 2400
dram_dbus_return_time 13


Heartbeat CPU  0 instructions:    1000001 cycles:     430122 heartbeat IPC: 2.32492 cumulative IPC: 2.32492 (Simulation time: 0 hr 0 min 2 sec) 
Heartbeat CPU  0 instructions:    2000001 cycles:     860269 heartbeat IPC: 2.32479 cumulative IPC: 2.32486 (Simulation time: 0 hr 0 min 3 sec) 
Heartbeat CPU  0 instructions:    3000002 cycles:    1290376 heartbeat IPC: 2.32501 cumulative IPC: 2.32491 (Simulation time: 0 hr 0 min 5 sec) 
Heartbeat CPU  0 instructions:    4000000 cycles:    1720529 heartbeat IPC: 2.32475 cumulative IPC: 2.32487 (Simulation time: 0 hr 0 min 6 sec) 
Heartbeat CPU  0 instructions:    5000001 cycles:    2150810 heartbeat IPC: 2.32406 cumulative IPC: 2.32471 (Simulation time: 0 hr 0 min 8 sec) 
Heartbeat CPU  0 instructions:    6000003 cycles:    2580903 heartbeat IPC: 2.32508 cumulative IPC: 2.32477 (Simulation time: 0 hr 0 min 10 sec) 
Heartbeat CPU  0 instructions:    7000000 cycles:    3011156 heartbeat IPC: 2.32421 cumulative IPC: 2.32469 (Simulation time: 0 hr 0 min 11 sec) 
Heartbeat CPU  0 instructions:    8000000 cycles:    3441305 heartbeat IPC: 2.32478 cumulative IPC: 2.32470 (Simulation time: 0 hr 0 min 13 sec) 
Heartbeat CPU  0 instructions:    9000003 cycles:    3871504 heartbeat IPC: 2.32451 cumulative IPC: 2.32468 (Simulation time: 0 hr 0 min 14 sec) 
Heartbeat CPU  0 instructions:   10000002 cycles:    4301605 heartbeat IPC: 2.32503 cumulative IPC: 2.32471 (Simulation time: 0 hr 0 min 16 sec) 

Warmup complete CPU  0 instructions:   10000002 cycles:    4301605 (Simulation time: 0 hr 0 min 16 sec) 

Heartbeat CPU  0 instructions:   11000002 cycles:    6163886 heartbeat IPC: 0.53698 cumulative IPC: 0.53698 (Simulation time: 0 hr 0 min 18 sec) 
Heartbeat CPU  0 instructions:   12000000 cycles:    8020031 heartbeat IPC: 0.53875 cumulative IPC: 0.53786 (Simulation time: 0 hr 0 min 20 sec) 
Heartbeat CPU  0 instructions:   13000002 cycles:    9855162 heartbeat IPC: 0.54492 cumulative IPC: 0.54019 (Simulation time: 0 hr 0 min 22 sec) 
Heartbeat CPU  0 instructions:   14000002 cycles:   11679271 heartbeat IPC: 0.54821 cumulative IPC: 0.54218 (Simulation time: 0 hr 0 min 24 sec) 
Heartbeat CPU  0 instructions:   15000001 cycles:   13542732 heartbeat IPC: 0.53664 cumulative IPC: 0.54106 (Simulation time: 0 hr 0 min 26 sec) 
Heartbeat CPU  0 instructions:   16000000 cycles:   15415713 heartbeat IPC: 0.53391 cumulative IPC: 0.53985 (Simulation time: 0 hr 0 min 28 sec) 
Heartbeat CPU  0 instructions:   17000001 cycles:   17248346 heartbeat IPC: 0.54566 cumulative IPC: 0.54068 (Simulation time: 0 hr 0 min 30 sec) 
Heartbeat CPU  0 instructions:   18000001 cycles:   19031577 heartbeat IPC: 0.56078 cumulative IPC: 0.54311 (Simulation time: 0 hr 0 min 32 sec) 
Heartbeat CPU  0 instructions:   19000000 cycles:   20858751 heartbeat IPC: 0.54729 cumulative IPC: 0.54357 (Simulation time: 0 hr 0 min 34 sec) 
Heartbeat CPU  0 instructions:   20000000 cycles:   22701868 heartbeat IPC: 0.54256 cumulative IPC: 0.54347 (Simulation time: 0 hr 0 min 36 sec) 
Heartbeat CPU  0 instructions:   21000000 cycles:   24513365 heartbeat IPC: 0.55203 cumulative IPC: 0.54424 (Simulation time: 0 hr 0 min 38 sec) 
Heartbeat CPU  0 instructions:   22000002 cycles:   26355465 heartbeat IPC: 0.54286 cumulative IPC: 0.54412 (Simulation time: 0 hr 0 min 41 sec) 
Heartbeat CPU  0 instructions:   23000002 cycles:   28178274 heartbeat IPC: 0.54860 cumulative IPC: 0.54446 (Simulation time: 0 hr 0 min 43 sec) 
Heartbeat CPU  0 instructions:   24000000 cycles:   30038311 heartbeat IPC: 0.53762 cumulative IPC: 0.54397 (Simulation time: 0 hr 0 min 45 sec) 
Heartbeat CPU  0 instructions:   25000001 cycles:   31905695 heartbeat IPC: 0.53551 cumulative IPC: 0.54340 (Simulation time: 0 hr 0 min 47 sec) 
Heartbeat CPU  0 instructions:   26000001 cycles:   33724745 heartbeat IPC: 0.54974 cumulative IPC: 0.54379 (Simulation time: 0 hr 0 min 49 sec) 
Heartbeat CPU  0 instructions:   27000001 cycles:   35535105 heartbeat IPC: 0.55238 cumulative IPC: 0.54429 (Simulation time: 0 hr 0 min 51 sec) 
Heartbeat CPU  0 instructions:   28000000 cycles:   37390988 heartbeat IPC: 0.53883 cumulative IPC: 0.54398 (Simulation time: 0 hr 0 min 53 sec) 
Heartbeat CPU  0 instructions:   29000001 cycles:   39222177 heartbeat IPC: 0.54609 cumulative IPC: 0.54409 (Simulation time: 0 hr 0 min 55 sec) 
Heartbeat CPU  0 instructions:   30000001 cycles:   40997473 heartbeat IPC: 0.56329 cumulative IPC: 0.54502 (Simulation time: 0 hr 0 min 57 sec) 
Heartbeat CPU  0 instructions:   31000003 cycles:   42797014 heartbeat IPC: 0.55570 cumulative IPC: 0.54552 (Simulation time: 0 hr 0 min 59 sec) 
Heartbeat CPU  0 instructions:   32000000 cycles:   44656735 heartbeat IPC: 0.53771 cumulative IPC: 0.54516 (Simulation time: 0 hr 1 min 1 sec) 
Heartbeat CPU  0 instructions:   33000000 cycles:   46510958 heartbeat IPC: 0.53931 cumulative IPC: 0.54490 (Simulation time: 0 hr 1 min 3 sec) 
Heartbeat CPU  0 instructions:   34000000 cycles:   48367012 heartbeat IPC: 0.53878 cumulative IPC: 0.54464 (Simulation time: 0 hr 1 min 5 sec) 
Heartbeat CPU  0 instructions:   35000000 cycles:   50152235 heartbeat IPC: 0.56015 cumulative IPC: 0.54525 (Simulation time: 0 hr 1 min 7 sec) 
Heartbeat CPU  0 instructions:   36000000 cycles:   52009711 heartbeat IPC: 0.53836 cumulative IPC: 0.54498 (Simulation time: 0 hr 1 min 9 sec) 
Heartbeat CPU  0 instructions:   37000003 cycles:   53866695 heartbeat IPC: 0.53851 cumulative IPC: 0.54474 (Simulation time: 0 hr 1 min 11 sec) 
Heartbeat CPU  0 instructions:   38000003 cycles:   55729383 heartbeat IPC: 0.53686 cumulative IPC: 0.54445 (Simulation time: 0 hr 1 min 14 sec) 
Heartbeat CPU  0 instructions:   39000001 cycles:   57535803 heartbeat IPC: 0.55358 cumulative IPC: 0.54476 (Simulation time: 0 hr 1 min 16 sec) 
Heartbeat CPU  0 instructions:   40000000 cycles:   59387145 heartbeat IPC: 0.54015 cumulative IPC: 0.54461 (Simulation time: 0 hr 1 min 18 sec) 
Heartbeat CPU  0 instructions:   41000002 cycles:   61247418 heartbeat IPC: 0.53756 cumulative IPC: 0.54438 (Simulation time: 0 hr 1 min 20 sec) 
Heartbeat CPU  0 instructions:   42000001 cycles:   63048517 heartbeat IPC: 0.55522 cumulative IPC: 0.54471 (Simulation time: 0 hr 1 min 22 sec) 
Heartbeat CPU  0 instructions:   43000000 cycles:   64911350 heartbeat IPC: 0.53682 cumulative IPC: 0.54447 (Simulation time: 0 hr 1 min 24 sec) 
Heartbeat CPU  0 instructions:   44000000 cycles:   66777281 heartbeat IPC: 0.53593 cumulative IPC: 0.54421 (Simulation time: 0 hr 1 min 26 sec) 
Heartbeat CPU  0 instructions:   45000000 cycles:   68642376 heartbeat IPC: 0.53617 cumulative IPC: 0.54398 (Simulation time: 0 hr 1 min 28 sec) 
Heartbeat CPU  0 instructions:   46000003 cycles:   70468452 heartbeat IPC: 0.54762 cumulative IPC: 0.54408 (Simulation time: 0 hr 1 min 30 sec) 
Heartbeat CPU  0 instructions:   47000003 cycles:   72322546 heartbeat IPC: 0.53935 cumulative IPC: 0.54395 (Simulation time: 0 hr 1 min 32 sec) 
Heartbeat CPU  0 instructions:   48000000 cycles:   74190158 heartbeat IPC: 0.53544 cumulative IPC: 0.54372 (Simulation time: 0 hr 1 min 34 sec) 
Heartbeat CPU  0 instructions:   49000003 cycles:   76045110 heartbeat IPC: 0.53910 cumulative IPC: 0.54360 (Simulation time: 0 hr 1 min 36 sec) 
Heartbeat CPU  0 instructions:   50000003 cycles:   77881588 heartbeat IPC: 0.54452 cumulative IPC: 0.54363 (Simulation time: 0 hr 1 min 38 sec) 
Heartbeat CPU  0 instructions:   51000003 cycles:   79702250 heartbeat IPC: 0.54925 cumulative IPC: 0.54376 (Simulation time: 0 hr 1 min 40 sec) 
Heartbeat CPU  0 instructions:   52000000 cycles:   81519425 heartbeat IPC: 0.55030 cumulative IPC: 0.54392 (Simulation time: 0 hr 1 min 42 sec) 
Heartbeat CPU  0 instructions:   53000002 cycles:   83289076 heartbeat IPC: 0.56508 cumulative IPC: 0.54439 (Simulation time: 0 hr 1 min 45 sec) 
Heartbeat CPU  0 instructions:   54000002 cycles:   85088372 heartbeat IPC: 0.55577 cumulative IPC: 0.54464 (Simulation time: 0 hr 1 min 47 sec) 
Heartbeat CPU  0 instructions:   55000002 cycles:   86962544 heartbeat IPC: 0.53357 cumulative IPC: 0.54439 (Simulation time: 0 hr 1 min 49 sec) 
Heartbeat CPU  0 instructions:   56000000 cycles:   88769497 heartbeat IPC: 0.55342 cumulative IPC: 0.54459 (Simulation time: 0 hr 1 min 51 sec) 
Heartbeat CPU  0 instructions:   57000001 cycles:   90607675 heartbeat IPC: 0.54402 cumulative IPC: 0.54457 (Simulation time: 0 hr 1 min 53 sec) 
Heartbeat CPU  0 instructions:   58000001 cycles:   92472912 heartbeat IPC: 0.53612 cumulative IPC: 0.54439 (Simulation time: 0 hr 1 min 55 sec) 
Heartbeat CPU  0 instructions:   59000003 cycles:   94340746 heartbeat IPC: 0.53538 cumulative IPC: 0.54421 (Simulation time: 0 hr 1 min 57 sec) 
Heartbeat CPU  0 instructions:   60000000 cycles:   96192636 heartbeat IPC: 0.53999 cumulative IPC: 0.54412 (Simulation time: 0 hr 1 min 59 sec) 
Finished CPU 0 instructions: 50000000 cycles: 91891044 cumulative IPC: 0.54412 (Simulation time: 0 hr 1 min 59 sec) 

ChampSim completed all CPUs

[ROI Statistics]
Core_0_instructions 50000000
Core_0_cycles 91891044
Core_0_IPC 0.54412

Core_0_branch_prediction_accuracy 99.97505
Core_0_branch_MPKI 0.00438
Core_0_average_ROB_occupancy_at_mispredict 254.53425

Core_0_L1D_total_access 10228915
Core_0_L1D_total_hit 9567220
Core_0_L1D_total_miss 661695
Core_0_L1D_loads 6720222
Core_0_L1D_load_hit 6059188
Core_0_L1D_load_miss 661034
Core_0_L1D_RFOs 3508693
Core_0_L1D_RFO_hit 3508032
Core_0_L1D_RFO_miss 661
Core_0_L1D_prefetches 0
Core_0_L1D_prefetch_hit 0
Core_0_L1D_prefetch_miss 0
Core_0_L1D_writebacks 0
Core_0_L1D_writeback_hit 0
Core_0_L1D_writeback_miss 0
Core_0_L1D_prefetch_requested 0
Core_0_L1D_prefetch_dropped 0
Core_0_L1D_prefetch_issued 0
Core_0_L1D_prefetch_filled 0
Core_0_L1D_prefetch_useful 0
Core_0_L1D_prefetch_useless 0
Core_0_L1D_prefetch_late 0
Core_0_L1D_average_miss_latency 164.71945

Core_0_L1D_rq_access 17541473
Core_0_L1D_rq_forward 0
Core_0_L1D_rq_merged 10181593
Core_0_L1D_rq_to_cache 7359880
Core_0_L1D_rq_full 0

Core_0_L1D_wq_access 3510282
Core_0_L1D_wq_forward 0
Core_0_L1D_wq_merged 0
Core_0_L1D_wq_to_cache 3510282
Core_0_L1D_wq_full 0

Core_0_L1D_pq_access 0
Core_0_L1D_pq_forward 0
Core_0_L1D_pq_merged 0
Core_0_L1D_pq_to_cache 0
Core_0_L1D_pq_full 0

Core_0_L1D_acc_epochs 93276
Core_0_L1D_acc_level_0 93276
Core_0_L1D_acc_level_1 0
Core_0_L1D_acc_level_2 0
Core_0_L1D_acc_level_3 0
Core_0_L1D_acc_level_4 0
Core_0_L1D_acc_level_5 0
Core_0_L1D_acc_level_6 0
Core_0_L1D_acc_level_7 0
Core_0_L1D_acc_level_8 0
Core_0_L1D_acc_level_9 0

Core_0_L1I_total_access 10020194
Core_0_L1I_total_hit 10020194
Core_0_L1I_total_miss 0
Core_0_L1I_loads 10020194
Core_0_L1I_load_hit 10020194
Core_0_L1I_load_miss 0
Core_0_L1I_RFOs 0
Core_0_L1I_RFO_hit 0
Core_0_L1I_RFO_miss 0
Core_0_L1I_prefetches 0
Core_0_L1I_prefetch_hit 0
Core_0_L1I_prefetch_miss 0
Core_0_L1I_writebacks 0
Core_0_L1I_writeback_hit 0
Core_0_L1I_writeback_miss 0
Core_0_L1I_prefetch_requested 0
Core_0_L1I_prefetch_dropped 0
Core_0_L1I_prefetch_issued 0
Core_0_L1I_prefetch_filled 0
Core_0_L1I_prefetch_useful 0
Core_0_L1I_prefetch_useless 0
Core_0_L1I_prefetch_late 0
Core_0_L1I_average_miss_latency -nan

Core_0_L1I_rq_access 50000007
Core_0_L1I_rq_forward 0
Core_0_L1I_rq_merged 39979813
Core_0_L1I_rq_to_cache 10020194
Core_0_L1I_rq_full 0

Core_0_L1I_wq_access 0
Core_0_L1I_wq_forward 0
Core_0_L1I_wq_merged 0
Core_0_L1I_wq_to_cache 0
Core_0_L1I_wq_full 0

Core_0_L1I_pq_access 0
Core_0_L1I_pq_forward 0
Core_0_L1I_pq_merged 0
Core_0_L1I_pq_to_cache 0
Core_0_L1I_pq_full 0

Core_0_L1I_acc_epochs 93276
Core_0_L1I_acc_level_0 93276
Core_0_L1I_acc_level_1 0
Core_0_L1I_acc_level_2 0
Core_0_L1I_acc_level_3 0
Core_0_L1I_acc_level_4 0
Core_0_L1I_acc_level_5 0
Core_0_L1I_acc_level_6 0
Core_0_L1I_acc_level_7 0
Core_0_L1I_acc_level_8 0
Core_0_L1I_acc_level_9 0

Core_0_L2C_total_access 1101047
Core_0_L2C_total_hit 440253
Core_0_L2C_total_miss 660794
Core_0_L2C_loads 661034
Core_0_L2C_load_hit 791
Core_0_L2C_load_miss 660243
Core_0_L2C_RFOs 661
Core_0_L2C_RFO_hit 110
Core_0_L2C_RFO_miss 551
Core_0_L2C_prefetches 0
Core_0_L2C_prefetch_hit 0
Core_0_L2C_prefetch_miss 0
Core_0_L2C_writebacks 439352
Core_0_L2C_writeback_hit 439352
Core_0_L2C_writeback_miss 0
Core_0_L2C_prefetch_requested 0
Core_0_L2C_prefetch_dropped 0
Core_0_L2C_prefetch_issued 0
Core_0_L2C_prefetch_filled 0
Core_0_L2C_prefetch_useful 0
Core_0_L2C_prefetch_useless 0
Core_0_L2C_prefetch_late 0
Core_0_L2C_average_miss_latency 150.88673

Core_0_L2C_rq_access 661695
Core_0_L2C_rq_forward 0
Core_0_L2C_rq_merged 0
Core_0_L2C_rq_to_cache 661695
Core_0_L2C_rq_full 0

Core_0_L2C_wq_access 439352
Core_0_L2C_wq_forward 0
Core_0_L2C_wq_merged 0
Core_0_L2C_wq_to_cache 439352
Core_0_L2C_wq_full 0

Core_0_L2C_pq_access 0
Core_0_L2C_pq_forward 0
Core_0_L2C_pq_merged 0
Core_0_L2C_pq_to_cache 0
Core_0_L2C_pq_full 0

Core_0_L2C_acc_epochs 93276
Core_0_L2C_acc_level_0 93276
Core_0_L2C_acc_level_1 0
Core_0_L2C_acc_level_2 0
Core_0_L2C_acc_level_3 0
Core_0_L2C_acc_level_4 0
Core_0_L2C_acc_level_5 0
Core_0_L2C_acc_level_6 0
Core_0_L2C_acc_level_7 0
Core_0_L2C_acc_level_8 0
Core_0_L2C_acc_level_9 0

Core_0_LLC_total_access 1099685
Core_0_LLC_total_hit 223706
Core_0_LLC_total_miss 875979
Core_0_LLC_loads 660243
Core_0_LLC_load_hit 221792
Core_0_LLC_load_miss 438451
Core_0_LLC_RFOs 551
Core_0_LLC_RFO_hit 551
Core_0_LLC_RFO_miss 0
Core_0_LLC_prefetches 0
Core_0_LLC_prefetch_hit 0
Core_0_LLC_prefetch_miss 0
Core_0_LLC_writebacks 438891
Core_0_LLC_writeback_hit 1363
Core_0_LLC_writeback_miss 437528
Core_0_LLC_prefetch_requested 0
Core_0_LLC_prefetch_dropped 0
Core_0_LLC_prefetch_issued 0
Core_0_LLC_prefetch_filled 0
Core_0_LLC_prefetch_useful 0
Core_0_LLC_prefetch_useless 0
Core_0_LLC_prefetch_late 0
Core_0_LLC_average_miss_latency 91.11349

Core_0_LLC_rq_access 660794
Core_0_LLC_rq_forward 0
Core_0_LLC_rq_merged 0
Core_0_LLC_rq_to_cache 660794
Core_0_LLC_rq_full 0

Core_0_LLC_wq_access 438891
Core_0_LLC_wq_forward 0
Core_0_LLC_wq_merged 0
Core_0_LLC_wq_to_cache 438891
Core_0_LLC_wq_full 0

Core_0_LLC_pq_access 0
Core_0_LLC_pq_forward 0
Core_0_LLC_pq_merged 0
Core_0_LLC_pq_to_cache 0
Core_0_LLC_pq_full 0

Core_0_LLC_acc_epochs 93939
Core_0_LLC_acc_level_0 93939
Core_0_LLC_acc_level_1 0
Core_0_LLC_acc_level_2 0
Core_0_LLC_acc_level_3 0
Core_0_LLC_acc_level_4 0
Core_0_LLC_acc_level_5 0
Core_0_LLC_acc_level_6 0
Core_0_LLC_acc_level_7 0
Core_0_LLC_acc_level_8 0
Core_0_LLC_acc_level_9 0

Core_0_major_page_fault 0
Core_0_minor_page_fault 8278

Channel_0_RQ_row_buffer_hit 29226
Channel_0_RQ_row_buffer_miss 409225
Channel_0_WQ_row_buffer_hit 258971
Channel_0_WQ_row_buffer_miss 179747
Channel_0_WQ_full 0
Channel_0_dbus_congested 161751

avg_congested_cycle 11

DRAM_bw_pochs 375753
DRAM_bw_level_0 375753
DRAM_bw_level_1 0
DRAM_bw_level_2 0
DRAM_bw_level_3 0
