*************************************************
   ChampSim Multicore Out-of-Order Simulator
   Last compiled: Apr  3 2025 20:54:34
*************************************************
parsing config file: /home/zir/Pythia/config/nopref.ini

trace_0 /home/zir/ChampSim/ML-DPC/ChampSimTraces/spec17/621.wrf-s1.trace.xz
adding L2C_PREFETCHER: NONE
Initialize SHIP state
warmup_instructions 10000000
simulation_instructions 50000000
champsim_seed 164
measure_ipc 0
measure_ipc_epoch 1000
measure_dram_bw 1
measure_dram_bw_epoch 256
measure_cache_acc 1
measure_cache_acc_epoch 1024
l1d_perfect 0
l2c_perfect 0
llc_perfect 0
l1d_semi_perfect 0
l2c_semi_perfect 0
llc_semi_perfect 0
semi_perfect_cache_page_buffer_size 64

num_cpus 1
cpu_freq 4000
dram_io_freq 2400
page_size 4096
block_size 64
max_read_per_cycle 8
max_fill_per_cycle 1
dram_channels 1
log2_dram_channels 0
dram_ranks 1
dram_banks 8
dram_rows 65536
dram_columns 128
dram_row_size 8
dram_size 4096
dram_pages 1048576

fetch_width 6
decode_width 6
exec_width 4
lq_width 2
sq_width 2
retire_width 4
scheduler_size 128
branch_mispredict_penalty 20
rob_size 256
lq_size 72
sq_size 56
num_instr_destinations_sparc 4
num_instr_destinations 2
num_instr_sources 4

itlb_set 16
itlb_way 8
itlb_rq_size 16
itlb_wq_size 16
itlb_pq_size 0
itlb_mshr_size 8
itlb_latency 1

dtlb_set 16
dtlb_way 4
dtlb_rq_size 16
dtlb_wq_size 16
dtlb_pq_size 0
dtlb_mshr_size 8
dtlb_latency 1

stlb_set 128
stlb_way 12
stlb_rq_size 32
stlb_wq_size 32
stlb_pq_size 0
stlb_mshr_size 16
stlb_latency 8

l1i_size 32
l1i_set 64
l1i_way 8
l1i_rq_size 64
l1i_wq_size 64
l1i_pq_size 8
l1i_mshr_size 8
l1i_latency 1

l1d_size 32
l1d_set 64
l1d_way 8
l1d_rq_size 64
l1d_wq_size 64
l1d_pq_size 8
l1d_mshr_size 16
l1d_latency 4

l2c_size 256
l2c_set 512
l2c_way 8
l2c_rq_size 32
l2c_wq_size 32
l2c_pq_size 32
l2c_mshr_size 32
l2c_latency 10

llc_size 2048
llc_set 2048
llc_way 16
llc_rq_size 32
llc_wq_size 32
llc_pq_size 32
llc_mshr_size 64
llc_latency 20

dram_channel_width 8
dram_wq_size 64
dram_rq_size 64
tRP 15
tRCD 15
tCAS 12.5
dram_dbus_turn_around_time 30
dram_write_high_wm 56
dram_write_low_wm 48
min_dram_writes_per_switch 16
dram_mtps 2400
dram_dbus_return_time 13


Heartbeat CPU  0 instructions:    1000001 cycles:     438822 heartbeat IPC: 2.27883 cumulative IPC: 2.27883 (Simulation time: 0 hr 0 min 1 sec) 
Heartbeat CPU  0 instructions:    2000002 cycles:     854555 heartbeat IPC: 2.40539 cumulative IPC: 2.34040 (Simulation time: 0 hr 0 min 3 sec) 
Heartbeat CPU  0 instructions:    3000001 cycles:    1396759 heartbeat IPC: 1.84432 cumulative IPC: 2.14783 (Simulation time: 0 hr 0 min 5 sec) 
Heartbeat CPU  0 instructions:    4000000 cycles:    2019919 heartbeat IPC: 1.60472 cumulative IPC: 1.98028 (Simulation time: 0 hr 0 min 7 sec) 
Heartbeat CPU  0 instructions:    5000001 cycles:    2651417 heartbeat IPC: 1.58354 cumulative IPC: 1.88578 (Simulation time: 0 hr 0 min 8 sec) 
Heartbeat CPU  0 instructions:    6000001 cycles:    3285802 heartbeat IPC: 1.57633 cumulative IPC: 1.82604 (Simulation time: 0 hr 0 min 10 sec) 
Heartbeat CPU  0 instructions:    7000000 cycles:    3915727 heartbeat IPC: 1.58749 cumulative IPC: 1.78766 (Simulation time: 0 hr 0 min 12 sec) 
Heartbeat CPU  0 instructions:    8000000 cycles:    4546424 heartbeat IPC: 1.58555 cumulative IPC: 1.75962 (Simulation time: 0 hr 0 min 14 sec) 
Heartbeat CPU  0 instructions:    9000000 cycles:    5173938 heartbeat IPC: 1.59359 cumulative IPC: 1.73949 (Simulation time: 0 hr 0 min 16 sec) 
Heartbeat CPU  0 instructions:   10000000 cycles:    5735655 heartbeat IPC: 1.78026 cumulative IPC: 1.74348 (Simulation time: 0 hr 0 min 17 sec) 

Warmup complete CPU  0 instructions:   10000004 cycles:    5735656 (Simulation time: 0 hr 0 min 17 sec) 

Heartbeat CPU  0 instructions:   11000001 cycles:    7076882 heartbeat IPC: 0.74559 cumulative IPC: 0.74558 (Simulation time: 0 hr 0 min 19 sec) 
Heartbeat CPU  0 instructions:   12000000 cycles:    8655626 heartbeat IPC: 0.63341 cumulative IPC: 0.68494 (Simulation time: 0 hr 0 min 21 sec) 
Heartbeat CPU  0 instructions:   13000001 cycles:   10284074 heartbeat IPC: 0.61408 cumulative IPC: 0.65957 (Simulation time: 0 hr 0 min 23 sec) 
Heartbeat CPU  0 instructions:   14000001 cycles:   12068462 heartbeat IPC: 0.56042 cumulative IPC: 0.63163 (Simulation time: 0 hr 0 min 26 sec) 
Heartbeat CPU  0 instructions:   15000001 cycles:   13888996 heartbeat IPC: 0.54929 cumulative IPC: 0.61325 (Simulation time: 0 hr 0 min 28 sec) 
Heartbeat CPU  0 instructions:   16000000 cycles:   15865879 heartbeat IPC: 0.50585 cumulative IPC: 0.59229 (Simulation time: 0 hr 0 min 30 sec) 
Heartbeat CPU  0 instructions:   17000003 cycles:   18082828 heartbeat IPC: 0.45107 cumulative IPC: 0.56693 (Simulation time: 0 hr 0 min 32 sec) 
Heartbeat CPU  0 instructions:   18000001 cycles:   20363561 heartbeat IPC: 0.43845 cumulative IPC: 0.54690 (Simulation time: 0 hr 0 min 35 sec) 
Heartbeat CPU  0 instructions:   19000001 cycles:   22966912 heartbeat IPC: 0.38412 cumulative IPC: 0.52231 (Simulation time: 0 hr 0 min 37 sec) 
Heartbeat CPU  0 instructions:   20000000 cycles:   25893662 heartbeat IPC: 0.34168 cumulative IPC: 0.49608 (Simulation time: 0 hr 0 min 40 sec) 
Heartbeat CPU  0 instructions:   21000003 cycles:   28530048 heartbeat IPC: 0.37931 cumulative IPC: 0.48257 (Simulation time: 0 hr 0 min 42 sec) 
Heartbeat CPU  0 instructions:   22000000 cycles:   30594414 heartbeat IPC: 0.48441 cumulative IPC: 0.48273 (Simulation time: 0 hr 0 min 45 sec) 
Heartbeat CPU  0 instructions:   23000000 cycles:   32741481 heartbeat IPC: 0.46575 cumulative IPC: 0.48138 (Simulation time: 0 hr 0 min 47 sec) 
Heartbeat CPU  0 instructions:   24000000 cycles:   35126045 heartbeat IPC: 0.41936 cumulative IPC: 0.47635 (Simulation time: 0 hr 0 min 49 sec) 
Heartbeat CPU  0 instructions:   25000003 cycles:   37515440 heartbeat IPC: 0.41852 cumulative IPC: 0.47200 (Simulation time: 0 hr 0 min 51 sec) 
Heartbeat CPU  0 instructions:   26000000 cycles:   39567128 heartbeat IPC: 0.48740 cumulative IPC: 0.47293 (Simulation time: 0 hr 0 min 53 sec) 
Heartbeat CPU  0 instructions:   27000001 cycles:   41566953 heartbeat IPC: 0.50004 cumulative IPC: 0.47445 (Simulation time: 0 hr 0 min 55 sec) 
Heartbeat CPU  0 instructions:   28000000 cycles:   43428852 heartbeat IPC: 0.53709 cumulative IPC: 0.47754 (Simulation time: 0 hr 0 min 57 sec) 
Heartbeat CPU  0 instructions:   29000002 cycles:   45267842 heartbeat IPC: 0.54378 cumulative IPC: 0.48062 (Simulation time: 0 hr 0 min 59 sec) 
Heartbeat CPU  0 instructions:   30000003 cycles:   47109756 heartbeat IPC: 0.54291 cumulative IPC: 0.48339 (Simulation time: 0 hr 1 min 1 sec) 
Heartbeat CPU  0 instructions:   31000003 cycles:   48918338 heartbeat IPC: 0.55292 cumulative IPC: 0.48631 (Simulation time: 0 hr 1 min 3 sec) 
Heartbeat CPU  0 instructions:   32000000 cycles:   50805360 heartbeat IPC: 0.52993 cumulative IPC: 0.48813 (Simulation time: 0 hr 1 min 5 sec) 
Heartbeat CPU  0 instructions:   33000003 cycles:   52755595 heartbeat IPC: 0.51276 cumulative IPC: 0.48915 (Simulation time: 0 hr 1 min 7 sec) 
Heartbeat CPU  0 instructions:   34000003 cycles:   55370947 heartbeat IPC: 0.38236 cumulative IPC: 0.48353 (Simulation time: 0 hr 1 min 9 sec) 
Heartbeat CPU  0 instructions:   35000003 cycles:   59748009 heartbeat IPC: 0.22846 cumulative IPC: 0.46286 (Simulation time: 0 hr 1 min 13 sec) 
Heartbeat CPU  0 instructions:   36000000 cycles:   63611550 heartbeat IPC: 0.25883 cumulative IPC: 0.44924 (Simulation time: 0 hr 1 min 16 sec) 
Heartbeat CPU  0 instructions:   37000003 cycles:   68193592 heartbeat IPC: 0.21824 cumulative IPC: 0.43229 (Simulation time: 0 hr 1 min 20 sec) 
Heartbeat CPU  0 instructions:   38000003 cycles:   72700970 heartbeat IPC: 0.22186 cumulative IPC: 0.41813 (Simulation time: 0 hr 1 min 23 sec) 
Heartbeat CPU  0 instructions:   39000001 cycles:   74993338 heartbeat IPC: 0.43623 cumulative IPC: 0.41873 (Simulation time: 0 hr 1 min 26 sec) 
Heartbeat CPU  0 instructions:   40000000 cycles:   76005077 heartbeat IPC: 0.98840 cumulative IPC: 0.42693 (Simulation time: 0 hr 1 min 28 sec) 
Heartbeat CPU  0 instructions:   41000001 cycles:   77150310 heartbeat IPC: 0.87319 cumulative IPC: 0.43408 (Simulation time: 0 hr 1 min 30 sec) 
Heartbeat CPU  0 instructions:   42000001 cycles:   78179858 heartbeat IPC: 0.97130 cumulative IPC: 0.44172 (Simulation time: 0 hr 1 min 32 sec) 
Heartbeat CPU  0 instructions:   43000003 cycles:   80750757 heartbeat IPC: 0.38897 cumulative IPC: 0.43991 (Simulation time: 0 hr 1 min 34 sec) 
Heartbeat CPU  0 instructions:   44000000 cycles:   83050407 heartbeat IPC: 0.43485 cumulative IPC: 0.43976 (Simulation time: 0 hr 1 min 37 sec) 
Heartbeat CPU  0 instructions:   45000001 cycles:   85279174 heartbeat IPC: 0.44868 cumulative IPC: 0.44001 (Simulation time: 0 hr 1 min 39 sec) 
Heartbeat CPU  0 instructions:   46000003 cycles:   87237879 heartbeat IPC: 0.51054 cumulative IPC: 0.44171 (Simulation time: 0 hr 1 min 41 sec) 
Heartbeat CPU  0 instructions:   47000003 cycles:   88881011 heartbeat IPC: 0.60859 cumulative IPC: 0.44500 (Simulation time: 0 hr 1 min 43 sec) 
Heartbeat CPU  0 instructions:   48000000 cycles:   90738735 heartbeat IPC: 0.53829 cumulative IPC: 0.44704 (Simulation time: 0 hr 1 min 45 sec) 
Heartbeat CPU  0 instructions:   49000000 cycles:   92942995 heartbeat IPC: 0.45367 cumulative IPC: 0.44721 (Simulation time: 0 hr 1 min 48 sec) 
Heartbeat CPU  0 instructions:   50000003 cycles:   95262471 heartbeat IPC: 0.43113 cumulative IPC: 0.44679 (Simulation time: 0 hr 1 min 50 sec) 
Heartbeat CPU  0 instructions:   51000001 cycles:   97217632 heartbeat IPC: 0.51147 cumulative IPC: 0.44818 (Simulation time: 0 hr 1 min 52 sec) 
Heartbeat CPU  0 instructions:   52000000 cycles:   99274586 heartbeat IPC: 0.48616 cumulative IPC: 0.44901 (Simulation time: 0 hr 1 min 55 sec) 
Heartbeat CPU  0 instructions:   53000000 cycles:  100961440 heartbeat IPC: 0.59282 cumulative IPC: 0.45156 (Simulation time: 0 hr 1 min 57 sec) 
Heartbeat CPU  0 instructions:   54000000 cycles:  102704689 heartbeat IPC: 0.57364 cumulative IPC: 0.45375 (Simulation time: 0 hr 1 min 59 sec) 
Heartbeat CPU  0 instructions:   55000000 cycles:  104446870 heartbeat IPC: 0.57399 cumulative IPC: 0.45588 (Simulation time: 0 hr 2 min 2 sec) 
Heartbeat CPU  0 instructions:   56000000 cycles:  106381475 heartbeat IPC: 0.51690 cumulative IPC: 0.45705 (Simulation time: 0 hr 2 min 4 sec) 
Heartbeat CPU  0 instructions:   57000002 cycles:  109277030 heartbeat IPC: 0.34536 cumulative IPC: 0.45392 (Simulation time: 0 hr 2 min 7 sec) 
Heartbeat CPU  0 instructions:   58000002 cycles:  111823213 heartbeat IPC: 0.39274 cumulative IPC: 0.45246 (Simulation time: 0 hr 2 min 9 sec) 
Heartbeat CPU  0 instructions:   59000003 cycles:  113988638 heartbeat IPC: 0.46180 cumulative IPC: 0.45264 (Simulation time: 0 hr 2 min 12 sec) 
Heartbeat CPU  0 instructions:   60000000 cycles:  116038427 heartbeat IPC: 0.48785 cumulative IPC: 0.45330 (Simulation time: 0 hr 2 min 14 sec) 
Finished CPU 0 instructions: 50000000 cycles: 110303034 cumulative IPC: 0.45330 (Simulation time: 0 hr 2 min 14 sec) 

ChampSim completed all CPUs

[ROI Statistics]
Core_0_instructions 50000000
Core_0_cycles 110303034
Core_0_IPC 0.45330

Core_0_branch_prediction_accuracy 99.34653
Core_0_branch_MPKI 0.34402
Core_0_average_ROB_occupancy_at_mispredict 228.72606

Core_0_L1D_total_access 10922465
Core_0_L1D_total_hit 9556636
Core_0_L1D_total_miss 1365829
Core_0_L1D_loads 8789616
Core_0_L1D_load_hit 7637054
Core_0_L1D_load_miss 1152562
Core_0_L1D_RFOs 2132849
Core_0_L1D_RFO_hit 1919582
Core_0_L1D_RFO_miss 213267
Core_0_L1D_prefetches 0
Core_0_L1D_prefetch_hit 0
Core_0_L1D_prefetch_miss 0
Core_0_L1D_writebacks 0
Core_0_L1D_writeback_hit 0
Core_0_L1D_writeback_miss 0
Core_0_L1D_prefetch_requested 0
Core_0_L1D_prefetch_dropped 0
Core_0_L1D_prefetch_issued 0
Core_0_L1D_prefetch_filled 0
Core_0_L1D_prefetch_useful 0
Core_0_L1D_prefetch_useless 0
Core_0_L1D_prefetch_late 0
Core_0_L1D_average_miss_latency 211.05160

Core_0_L1D_rq_access 14290453
Core_0_L1D_rq_forward 0
Core_0_L1D_rq_merged 4547165
Core_0_L1D_rq_to_cache 9743257
Core_0_L1D_rq_full 0

Core_0_L1D_wq_access 2871696
Core_0_L1D_wq_forward 31
Core_0_L1D_wq_merged 80
Core_0_L1D_wq_to_cache 2871616
Core_0_L1D_wq_full 258

Core_0_L1D_pq_access 0
Core_0_L1D_pq_forward 0
Core_0_L1D_pq_merged 0
Core_0_L1D_pq_to_cache 0
Core_0_L1D_pq_full 0

Core_0_L1D_acc_epochs 112271
Core_0_L1D_acc_level_0 112271
Core_0_L1D_acc_level_1 0
Core_0_L1D_acc_level_2 0
Core_0_L1D_acc_level_3 0
Core_0_L1D_acc_level_4 0
Core_0_L1D_acc_level_5 0
Core_0_L1D_acc_level_6 0
Core_0_L1D_acc_level_7 0
Core_0_L1D_acc_level_8 0
Core_0_L1D_acc_level_9 0

Core_0_L1I_total_access 11781363
Core_0_L1I_total_hit 11779313
Core_0_L1I_total_miss 2050
Core_0_L1I_loads 11781363
Core_0_L1I_load_hit 11779313
Core_0_L1I_load_miss 2050
Core_0_L1I_RFOs 0
Core_0_L1I_RFO_hit 0
Core_0_L1I_RFO_miss 0
Core_0_L1I_prefetches 0
Core_0_L1I_prefetch_hit 0
Core_0_L1I_prefetch_miss 0
Core_0_L1I_writebacks 0
Core_0_L1I_writeback_hit 0
Core_0_L1I_writeback_miss 0
Core_0_L1I_prefetch_requested 0
Core_0_L1I_prefetch_dropped 0
Core_0_L1I_prefetch_issued 0
Core_0_L1I_prefetch_filled 0
Core_0_L1I_prefetch_useful 0
Core_0_L1I_prefetch_useless 0
Core_0_L1I_prefetch_late 0
Core_0_L1I_average_miss_latency 248.31073

Core_0_L1I_rq_access 50000007
Core_0_L1I_rq_forward 0
Core_0_L1I_rq_merged 38216814
Core_0_L1I_rq_to_cache 11783193
Core_0_L1I_rq_full 0

Core_0_L1I_wq_access 0
Core_0_L1I_wq_forward 0
Core_0_L1I_wq_merged 0
Core_0_L1I_wq_to_cache 0
Core_0_L1I_wq_full 0

Core_0_L1I_pq_access 0
Core_0_L1I_pq_forward 0
Core_0_L1I_pq_merged 0
Core_0_L1I_pq_to_cache 0
Core_0_L1I_pq_full 0

Core_0_L1I_acc_epochs 112271
Core_0_L1I_acc_level_0 112271
Core_0_L1I_acc_level_1 0
Core_0_L1I_acc_level_2 0
Core_0_L1I_acc_level_3 0
Core_0_L1I_acc_level_4 0
Core_0_L1I_acc_level_5 0
Core_0_L1I_acc_level_6 0
Core_0_L1I_acc_level_7 0
Core_0_L1I_acc_level_8 0
Core_0_L1I_acc_level_9 0

Core_0_L2C_total_access 1833604
Core_0_L2C_total_hit 820582
Core_0_L2C_total_miss 1013022
Core_0_L2C_loads 1154585
Core_0_L2C_load_hit 302360
Core_0_L2C_load_miss 852225
Core_0_L2C_RFOs 213267
Core_0_L2C_RFO_hit 52608
Core_0_L2C_RFO_miss 160659
Core_0_L2C_prefetches 0
Core_0_L2C_prefetch_hit 0
Core_0_L2C_prefetch_miss 0
Core_0_L2C_writebacks 465752
Core_0_L2C_writeback_hit 465614
Core_0_L2C_writeback_miss 138
Core_0_L2C_prefetch_requested 0
Core_0_L2C_prefetch_dropped 0
Core_0_L2C_prefetch_issued 0
Core_0_L2C_prefetch_filled 0
Core_0_L2C_prefetch_useful 0
Core_0_L2C_prefetch_useless 0
Core_0_L2C_prefetch_late 0
Core_0_L2C_average_miss_latency 265.38305

Core_0_L2C_rq_access 1367879
Core_0_L2C_rq_forward 0
Core_0_L2C_rq_merged 0
Core_0_L2C_rq_to_cache 1367852
Core_0_L2C_rq_full 0

Core_0_L2C_wq_access 465753
Core_0_L2C_wq_forward 27
Core_0_L2C_wq_merged 0
Core_0_L2C_wq_to_cache 465753
Core_0_L2C_wq_full 0

Core_0_L2C_pq_access 0
Core_0_L2C_pq_forward 0
Core_0_L2C_pq_merged 0
Core_0_L2C_pq_to_cache 0
Core_0_L2C_pq_full 0

Core_0_L2C_acc_epochs 112271
Core_0_L2C_acc_level_0 112271
Core_0_L2C_acc_level_1 0
Core_0_L2C_acc_level_2 0
Core_0_L2C_acc_level_3 0
Core_0_L2C_acc_level_4 0
Core_0_L2C_acc_level_5 0
Core_0_L2C_acc_level_6 0
Core_0_L2C_acc_level_7 0
Core_0_L2C_acc_level_8 0
Core_0_L2C_acc_level_9 0

Core_0_LLC_total_access 1380221
Core_0_LLC_total_hit 370497
Core_0_LLC_total_miss 1009724
Core_0_LLC_loads 852225
Core_0_LLC_load_hit 71866
Core_0_LLC_load_miss 780359
Core_0_LLC_RFOs 160659
Core_0_LLC_RFO_hit 4025
Core_0_LLC_RFO_miss 156634
Core_0_LLC_prefetches 0
Core_0_LLC_prefetch_hit 0
Core_0_LLC_prefetch_miss 0
Core_0_LLC_writebacks 367337
Core_0_LLC_writeback_hit 294606
Core_0_LLC_writeback_miss 72731
Core_0_LLC_prefetch_requested 0
Core_0_LLC_prefetch_dropped 0
Core_0_LLC_prefetch_issued 0
Core_0_LLC_prefetch_filled 0
Core_0_LLC_prefetch_useful 0
Core_0_LLC_prefetch_useless 0
Core_0_LLC_prefetch_late 0
Core_0_LLC_average_miss_latency 235.74759

Core_0_LLC_rq_access 1012884
Core_0_LLC_rq_forward 0
Core_0_LLC_rq_merged 0
Core_0_LLC_rq_to_cache 1012884
Core_0_LLC_rq_full 0

Core_0_LLC_wq_access 367337
Core_0_LLC_wq_forward 0
Core_0_LLC_wq_merged 0
Core_0_LLC_wq_to_cache 367337
Core_0_LLC_wq_full 0

Core_0_LLC_pq_access 0
Core_0_LLC_pq_forward 0
Core_0_LLC_pq_merged 0
Core_0_LLC_pq_to_cache 0
Core_0_LLC_pq_full 0

Core_0_LLC_acc_epochs 113320
Core_0_LLC_acc_level_0 113320
Core_0_LLC_acc_level_1 0
Core_0_LLC_acc_level_2 0
Core_0_LLC_acc_level_3 0
Core_0_LLC_acc_level_4 0
Core_0_LLC_acc_level_5 0
Core_0_LLC_acc_level_6 0
Core_0_LLC_acc_level_7 0
Core_0_LLC_acc_level_8 0
Core_0_LLC_acc_level_9 0

Core_0_major_page_fault 0
Core_0_minor_page_fault 6870

Channel_0_RQ_row_buffer_hit 214830
Channel_0_RQ_row_buffer_miss 722091
Channel_0_WQ_row_buffer_hit 178740
Channel_0_WQ_row_buffer_miss 163329
Channel_0_WQ_full 0
Channel_0_dbus_congested 427368

avg_congested_cycle 10

DRAM_bw_pochs 453277
DRAM_bw_level_0 317726
DRAM_bw_level_1 116282
DRAM_bw_level_2 15588
DRAM_bw_level_3 3681
