*************************************************
   ChampSim Multicore Out-of-Order Simulator
   Last compiled: Apr  3 2025 20:54:34
*************************************************
parsing config file: /home/zir/Pythia/config/pythia.ini

trace_0 /home/zir/ChampSim/ML-DPC/ChampSimTraces/spec17/621.wrf-s3.trace.xz
adding L2C_PREFETCHER: Scooby
Initialize SHIP state
warmup_instructions 10000000
simulation_instructions 50000000
champsim_seed 166
measure_ipc 0
measure_ipc_epoch 1000
measure_dram_bw 1
measure_dram_bw_epoch 256
measure_cache_acc 1
measure_cache_acc_epoch 1024
l1d_perfect 0
l2c_perfect 0
llc_perfect 0
l1d_semi_perfect 0
l2c_semi_perfect 0
llc_semi_perfect 0
semi_perfect_cache_page_buffer_size 64

num_cpus 1
cpu_freq 4000
dram_io_freq 2400
page_size 4096
block_size 64
max_read_per_cycle 8
max_fill_per_cycle 1
dram_channels 1
log2_dram_channels 0
dram_ranks 1
dram_banks 8
dram_rows 65536
dram_columns 128
dram_row_size 8
dram_size 4096
dram_pages 1048576

fetch_width 6
decode_width 6
exec_width 4
lq_width 2
sq_width 2
retire_width 4
scheduler_size 128
branch_mispredict_penalty 20
rob_size 256
lq_size 72
sq_size 56
num_instr_destinations_sparc 4
num_instr_destinations 2
num_instr_sources 4

itlb_set 16
itlb_way 8
itlb_rq_size 16
itlb_wq_size 16
itlb_pq_size 0
itlb_mshr_size 8
itlb_latency 1

dtlb_set 16
dtlb_way 4
dtlb_rq_size 16
dtlb_wq_size 16
dtlb_pq_size 0
dtlb_mshr_size 8
dtlb_latency 1

stlb_set 128
stlb_way 12
stlb_rq_size 32
stlb_wq_size 32
stlb_pq_size 0
stlb_mshr_size 16
stlb_latency 8

l1i_size 32
l1i_set 64
l1i_way 8
l1i_rq_size 64
l1i_wq_size 64
l1i_pq_size 8
l1i_mshr_size 8
l1i_latency 1

l1d_size 32
l1d_set 64
l1d_way 8
l1d_rq_size 64
l1d_wq_size 64
l1d_pq_size 8
l1d_mshr_size 16
l1d_latency 4

l2c_size 256
l2c_set 512
l2c_way 8
l2c_rq_size 32
l2c_wq_size 32
l2c_pq_size 32
l2c_mshr_size 32
l2c_latency 10

llc_size 2048
llc_set 2048
llc_way 16
llc_rq_size 32
llc_wq_size 32
llc_pq_size 32
llc_mshr_size 64
llc_latency 20

dram_channel_width 8
dram_wq_size 64
dram_rq_size 64
tRP 15
tRCD 15
tCAS 12.5
dram_dbus_turn_around_time 30
dram_write_high_wm 56
dram_write_low_wm 48
min_dram_writes_per_switch 16
dram_mtps 2400
dram_dbus_return_time 13

scooby_alpha 0.0065088
scooby_gamma 0.556301
scooby_epsilon 0.00182284
scooby_state_num_bits 10
scooby_max_states 1024
scooby_seed 200
scooby_policy EGreedy
scooby_learning_type SARSA
scooby_actions 1,3,4,5,10,11,12,22,23,30,32,-1,-3,-6,0,
scooby_max_actions 15
scooby_pt_size 256
scooby_st_size 64
scooby_max_pcs 5
scooby_max_offsets 5
scooby_max_deltas 5
scooby_reward_none -4
scooby_reward_incorrect -8
scooby_reward_correct_untimely 12
scooby_reward_correct_timely 20
scooby_brain_zero_init 0
scooby_enable_reward_all 0
scooby_enable_track_multiple 0
scooby_enable_reward_out_of_bounds 1
scooby_reward_out_of_bounds -12
scooby_state_type 1
scooby_state_hash_type 11
scooby_access_debug 0
scooby_print_access_debug 0
scooby_print_access_debug_pc deadbeef
scooby_print_access_debug_pc_count 0
scooby_print_trace 0
scooby_enable_state_action_stats 1
scooby_enable_reward_tracker_hit 0
scooby_reward_tracker_hit -2
scooby_enable_featurewise_engine 1
scooby_pref_degree 1
scooby_enable_dyn_degree 1
scooby_max_to_avg_q_thresholds 0.5,1,2,
scooby_dyn_degrees 1,2,4,4,
scooby_multi_deg_select_type 2
scooby_last_pref_offset_conf_thresholds 1,3,8,
scooby_dyn_degrees_type2 1,2,4,6,
scooby_action_tracker_size 2
scooby_high_bw_thresh 4
scooby_enable_hbw_reward 1
scooby_reward_hbw_correct_timely 20
scooby_reward_hbw_correct_untimely 12
scooby_reward_hbw_incorrect -14
scooby_reward_hbw_none -2
scooby_reward_hbw_out_of_bounds -12
scooby_reward_hbw_tracker_hit -2
scooby_last_pref_offset_conf_thresholds_hbw 1,3,8,
scooby_dyn_degrees_type2_hbw 1,2,4,6,

le_enable_trace 0
le_trace_interval 0
le_trace_file_name 
le_trace_state 0
le_enable_score_plot 0
le_plot_file_name 
le_plot_actions 
le_enable_action_trace 0
le_action_trace_interval 0
le_action_trace_name 
le_enable_action_plot 0

le_featurewise_active_features PC, PC_Delta
le_featurewise_num_tilings 3,3,
le_featurewise_num_tiles 128,128,
le_featurewise_hash_types 2,2,
le_featurewise_enable_tiling_offset 1,1,
le_featurewise_max_q_thresh 0.5
le_featurewise_enable_action_fallback 1
le_featurewise_feature_weights 1,1,
le_featurewise_enable_dynamic_weight 0
le_featurewise_weight_gradient 0.001
le_featurewise_disable_adjust_weight_all_features_align 1
le_featurewise_selective_update 0
le_featurewise_pooling_type 2
le_featurewise_enable_dyn_action_fallback 1
le_featurewise_bw_acc_check_level 1
le_featurewise_acc_thresh 2
le_featurewise_enable_trace 0
le_featurewise_trace_feature_type 0
le_featurewise_trace_feature 
le_featurewise_trace_interval 0
le_featurewise_trace_record_count 0
le_featurewise_trace_file_name 
le_featurewise_enable_score_plot 0
le_featurewise_plot_actions 
le_featurewise_plot_file_name 


Heartbeat CPU  0 instructions:    1000003 cycles:     573446 heartbeat IPC: 1.74385 cumulative IPC: 1.74385 (Simulation time: 0 hr 0 min 1 sec) 
Heartbeat CPU  0 instructions:    2000000 cycles:    1116336 heartbeat IPC: 1.84199 cumulative IPC: 1.79158 (Simulation time: 0 hr 0 min 3 sec) 
Heartbeat CPU  0 instructions:    3000002 cycles:    1604203 heartbeat IPC: 2.04974 cumulative IPC: 1.87009 (Simulation time: 0 hr 0 min 4 sec) 
Heartbeat CPU  0 instructions:    4000000 cycles:    2179682 heartbeat IPC: 1.73768 cumulative IPC: 1.83513 (Simulation time: 0 hr 0 min 6 sec) 
Heartbeat CPU  0 instructions:    5000001 cycles:    2621390 heartbeat IPC: 2.26394 cumulative IPC: 1.90739 (Simulation time: 0 hr 0 min 7 sec) 
Heartbeat CPU  0 instructions:    6000000 cycles:    3165405 heartbeat IPC: 1.83818 cumulative IPC: 1.89549 (Simulation time: 0 hr 0 min 8 sec) 
Heartbeat CPU  0 instructions:    7000000 cycles:    3682533 heartbeat IPC: 1.93376 cumulative IPC: 1.90087 (Simulation time: 0 hr 0 min 10 sec) 
Heartbeat CPU  0 instructions:    8000000 cycles:    4258354 heartbeat IPC: 1.73665 cumulative IPC: 1.87866 (Simulation time: 0 hr 0 min 11 sec) 
Heartbeat CPU  0 instructions:    9000000 cycles:    4780187 heartbeat IPC: 1.91632 cumulative IPC: 1.88277 (Simulation time: 0 hr 0 min 13 sec) 
Heartbeat CPU  0 instructions:   10000002 cycles:    5274276 heartbeat IPC: 2.02393 cumulative IPC: 1.89600 (Simulation time: 0 hr 0 min 15 sec) 

Warmup complete CPU  0 instructions:   10000002 cycles:    5274276 (Simulation time: 0 hr 0 min 15 sec) 

Heartbeat CPU  0 instructions:   11000001 cycles:    6560992 heartbeat IPC: 0.77717 cumulative IPC: 0.77717 (Simulation time: 0 hr 0 min 16 sec) 
Heartbeat CPU  0 instructions:   12000000 cycles:    7592765 heartbeat IPC: 0.96920 cumulative IPC: 0.86263 (Simulation time: 0 hr 0 min 18 sec) 
Heartbeat CPU  0 instructions:   13000003 cycles:    9238538 heartbeat IPC: 0.60762 cumulative IPC: 0.75676 (Simulation time: 0 hr 0 min 20 sec) 
Heartbeat CPU  0 instructions:   14000000 cycles:   10684465 heartbeat IPC: 0.69160 cumulative IPC: 0.73935 (Simulation time: 0 hr 0 min 22 sec) 
Heartbeat CPU  0 instructions:   15000000 cycles:   12314432 heartbeat IPC: 0.61351 cumulative IPC: 0.71021 (Simulation time: 0 hr 0 min 24 sec) 
Heartbeat CPU  0 instructions:   16000000 cycles:   13475295 heartbeat IPC: 0.86143 cumulative IPC: 0.73162 (Simulation time: 0 hr 0 min 26 sec) 
Heartbeat CPU  0 instructions:   17000000 cycles:   15137081 heartbeat IPC: 0.60176 cumulative IPC: 0.70974 (Simulation time: 0 hr 0 min 28 sec) 
Heartbeat CPU  0 instructions:   18000002 cycles:   16060535 heartbeat IPC: 1.08289 cumulative IPC: 0.74168 (Simulation time: 0 hr 0 min 30 sec) 
Heartbeat CPU  0 instructions:   19000000 cycles:   17378986 heartbeat IPC: 0.75846 cumulative IPC: 0.74351 (Simulation time: 0 hr 0 min 32 sec) 
Heartbeat CPU  0 instructions:   20000000 cycles:   18810881 heartbeat IPC: 0.69838 cumulative IPC: 0.73874 (Simulation time: 0 hr 0 min 34 sec) 
Heartbeat CPU  0 instructions:   21000000 cycles:   20552953 heartbeat IPC: 0.57403 cumulative IPC: 0.71996 (Simulation time: 0 hr 0 min 36 sec) 
Heartbeat CPU  0 instructions:   22000000 cycles:   21996260 heartbeat IPC: 0.69285 cumulative IPC: 0.71762 (Simulation time: 0 hr 0 min 38 sec) 
Heartbeat CPU  0 instructions:   23000000 cycles:   23332721 heartbeat IPC: 0.74824 cumulative IPC: 0.71988 (Simulation time: 0 hr 0 min 40 sec) 
Heartbeat CPU  0 instructions:   24000000 cycles:   24638421 heartbeat IPC: 0.76587 cumulative IPC: 0.72299 (Simulation time: 0 hr 0 min 42 sec) 
Heartbeat CPU  0 instructions:   25000001 cycles:   25685569 heartbeat IPC: 0.95498 cumulative IPC: 0.73489 (Simulation time: 0 hr 0 min 43 sec) 
Heartbeat CPU  0 instructions:   26000001 cycles:   27345423 heartbeat IPC: 0.60246 cumulative IPC: 0.72493 (Simulation time: 0 hr 0 min 46 sec) 
Heartbeat CPU  0 instructions:   27000001 cycles:   28809727 heartbeat IPC: 0.68292 cumulative IPC: 0.72231 (Simulation time: 0 hr 0 min 47 sec) 
Heartbeat CPU  0 instructions:   28000000 cycles:   30445203 heartbeat IPC: 0.61144 cumulative IPC: 0.71511 (Simulation time: 0 hr 0 min 50 sec) 
Heartbeat CPU  0 instructions:   29000000 cycles:   31607250 heartbeat IPC: 0.86055 cumulative IPC: 0.72153 (Simulation time: 0 hr 0 min 52 sec) 
Heartbeat CPU  0 instructions:   30000001 cycles:   33275347 heartbeat IPC: 0.59949 cumulative IPC: 0.71426 (Simulation time: 0 hr 0 min 54 sec) 
Heartbeat CPU  0 instructions:   31000003 cycles:   34195104 heartbeat IPC: 1.08725 cumulative IPC: 0.72612 (Simulation time: 0 hr 0 min 55 sec) 
Heartbeat CPU  0 instructions:   32000000 cycles:   35418849 heartbeat IPC: 0.81716 cumulative IPC: 0.72982 (Simulation time: 0 hr 0 min 57 sec) 
Heartbeat CPU  0 instructions:   33000000 cycles:   36873361 heartbeat IPC: 0.68752 cumulative IPC: 0.72787 (Simulation time: 0 hr 0 min 59 sec) 
Heartbeat CPU  0 instructions:   34000000 cycles:   38626229 heartbeat IPC: 0.57049 cumulative IPC: 0.71960 (Simulation time: 0 hr 1 min 1 sec) 
Heartbeat CPU  0 instructions:   35000001 cycles:   40053803 heartbeat IPC: 0.70049 cumulative IPC: 0.71881 (Simulation time: 0 hr 1 min 3 sec) 
Heartbeat CPU  0 instructions:   36000000 cycles:   41412725 heartbeat IPC: 0.73588 cumulative IPC: 0.71946 (Simulation time: 0 hr 1 min 5 sec) 
Heartbeat CPU  0 instructions:   37000000 cycles:   42819223 heartbeat IPC: 0.71099 cumulative IPC: 0.71914 (Simulation time: 0 hr 1 min 7 sec) 
Heartbeat CPU  0 instructions:   38000000 cycles:   43819381 heartbeat IPC: 0.99984 cumulative IPC: 0.72642 (Simulation time: 0 hr 1 min 9 sec) 
Heartbeat CPU  0 instructions:   39000000 cycles:   45341594 heartbeat IPC: 0.65694 cumulative IPC: 0.72378 (Simulation time: 0 hr 1 min 11 sec) 
Heartbeat CPU  0 instructions:   40000000 cycles:   46783822 heartbeat IPC: 0.69337 cumulative IPC: 0.72273 (Simulation time: 0 hr 1 min 13 sec) 
Heartbeat CPU  0 instructions:   41000000 cycles:   48427131 heartbeat IPC: 0.60853 cumulative IPC: 0.71838 (Simulation time: 0 hr 1 min 15 sec) 
Heartbeat CPU  0 instructions:   42000002 cycles:   49821276 heartbeat IPC: 0.71729 cumulative IPC: 0.71834 (Simulation time: 0 hr 1 min 17 sec) 
Heartbeat CPU  0 instructions:   43000001 cycles:   51169592 heartbeat IPC: 0.74167 cumulative IPC: 0.71903 (Simulation time: 0 hr 1 min 19 sec) 
Heartbeat CPU  0 instructions:   44000000 cycles:   52374305 heartbeat IPC: 0.83007 cumulative IPC: 0.72187 (Simulation time: 0 hr 1 min 21 sec) 
Heartbeat CPU  0 instructions:   45000003 cycles:   53456786 heartbeat IPC: 0.92381 cumulative IPC: 0.72640 (Simulation time: 0 hr 1 min 22 sec) 
Heartbeat CPU  0 instructions:   46000000 cycles:   55128320 heartbeat IPC: 0.59825 cumulative IPC: 0.72211 (Simulation time: 0 hr 1 min 25 sec) 
Heartbeat CPU  0 instructions:   47000000 cycles:   56628828 heartbeat IPC: 0.66644 cumulative IPC: 0.72048 (Simulation time: 0 hr 1 min 27 sec) 
Heartbeat CPU  0 instructions:   48000000 cycles:   58251313 heartbeat IPC: 0.61634 cumulative IPC: 0.71729 (Simulation time: 0 hr 1 min 29 sec) 
Heartbeat CPU  0 instructions:   49000002 cycles:   59422912 heartbeat IPC: 0.85354 cumulative IPC: 0.72024 (Simulation time: 0 hr 1 min 31 sec) 
Heartbeat CPU  0 instructions:   50000000 cycles:   61087032 heartbeat IPC: 0.60092 cumulative IPC: 0.71668 (Simulation time: 0 hr 1 min 33 sec) 
Heartbeat CPU  0 instructions:   51000000 cycles:   61996096 heartbeat IPC: 1.10003 cumulative IPC: 0.72283 (Simulation time: 0 hr 1 min 34 sec) 
Heartbeat CPU  0 instructions:   52000000 cycles:   63216424 heartbeat IPC: 0.81945 cumulative IPC: 0.72486 (Simulation time: 0 hr 1 min 36 sec) 
Heartbeat CPU  0 instructions:   53000003 cycles:   64714794 heartbeat IPC: 0.66739 cumulative IPC: 0.72341 (Simulation time: 0 hr 1 min 38 sec) 
Heartbeat CPU  0 instructions:   54000001 cycles:   66448828 heartbeat IPC: 0.57669 cumulative IPC: 0.71925 (Simulation time: 0 hr 1 min 40 sec) 
Heartbeat CPU  0 instructions:   55000000 cycles:   67871940 heartbeat IPC: 0.70268 cumulative IPC: 0.71888 (Simulation time: 0 hr 1 min 42 sec) 
Heartbeat CPU  0 instructions:   56000000 cycles:   69238959 heartbeat IPC: 0.73152 cumulative IPC: 0.71915 (Simulation time: 0 hr 1 min 44 sec) 
Heartbeat CPU  0 instructions:   57000000 cycles:   70680802 heartbeat IPC: 0.69356 cumulative IPC: 0.71858 (Simulation time: 0 hr 1 min 46 sec) 
Heartbeat CPU  0 instructions:   58000001 cycles:   71674263 heartbeat IPC: 1.00658 cumulative IPC: 0.72289 (Simulation time: 0 hr 1 min 48 sec) 
Heartbeat CPU  0 instructions:   59000001 cycles:   73110779 heartbeat IPC: 0.69613 cumulative IPC: 0.72232 (Simulation time: 0 hr 1 min 50 sec) 
Heartbeat CPU  0 instructions:   60000000 cycles:   74532886 heartbeat IPC: 0.70318 cumulative IPC: 0.72193 (Simulation time: 0 hr 1 min 51 sec) 
Finished CPU 0 instructions: 50000003 cycles: 69258623 cumulative IPC: 0.72193 (Simulation time: 0 hr 1 min 51 sec) 

ChampSim completed all CPUs

[ROI Statistics]
Core_0_instructions 50000003
Core_0_cycles 69258623
Core_0_IPC 0.72193

Core_0_branch_prediction_accuracy 98.23520
Core_0_branch_MPKI 1.86084
Core_0_average_ROB_occupancy_at_mispredict 158.76278

Core_0_L1D_total_access 12300909
Core_0_L1D_total_hit 12080446
Core_0_L1D_total_miss 220463
Core_0_L1D_loads 8402969
Core_0_L1D_load_hit 8269582
Core_0_L1D_load_miss 133387
Core_0_L1D_RFOs 3897940
Core_0_L1D_RFO_hit 3810864
Core_0_L1D_RFO_miss 87076
Core_0_L1D_prefetches 0
Core_0_L1D_prefetch_hit 0
Core_0_L1D_prefetch_miss 0
Core_0_L1D_writebacks 0
Core_0_L1D_writeback_hit 0
Core_0_L1D_writeback_miss 0
Core_0_L1D_prefetch_requested 0
Core_0_L1D_prefetch_dropped 0
Core_0_L1D_prefetch_issued 0
Core_0_L1D_prefetch_filled 0
Core_0_L1D_prefetch_useful 0
Core_0_L1D_prefetch_useless 0
Core_0_L1D_prefetch_late 0
Core_0_L1D_average_miss_latency 21.95011

Core_0_L1D_rq_access 12016837
Core_0_L1D_rq_forward 0
Core_0_L1D_rq_merged 3581177
Core_0_L1D_rq_to_cache 8434954
Core_0_L1D_rq_full 0

Core_0_L1D_wq_access 4128853
Core_0_L1D_wq_forward 706
Core_0_L1D_wq_merged 56029
Core_0_L1D_wq_to_cache 4072824
Core_0_L1D_wq_full 0

Core_0_L1D_pq_access 0
Core_0_L1D_pq_forward 0
Core_0_L1D_pq_merged 0
Core_0_L1D_pq_to_cache 0
Core_0_L1D_pq_full 0

Core_0_L1D_acc_epochs 72771
Core_0_L1D_acc_level_0 72771
Core_0_L1D_acc_level_1 0
Core_0_L1D_acc_level_2 0
Core_0_L1D_acc_level_3 0
Core_0_L1D_acc_level_4 0
Core_0_L1D_acc_level_5 0
Core_0_L1D_acc_level_6 0
Core_0_L1D_acc_level_7 0
Core_0_L1D_acc_level_8 0
Core_0_L1D_acc_level_9 0

Core_0_L1I_total_access 14909480
Core_0_L1I_total_hit 14904314
Core_0_L1I_total_miss 5166
Core_0_L1I_loads 14909480
Core_0_L1I_load_hit 14904314
Core_0_L1I_load_miss 5166
Core_0_L1I_RFOs 0
Core_0_L1I_RFO_hit 0
Core_0_L1I_RFO_miss 0
Core_0_L1I_prefetches 0
Core_0_L1I_prefetch_hit 0
Core_0_L1I_prefetch_miss 0
Core_0_L1I_writebacks 0
Core_0_L1I_writeback_hit 0
Core_0_L1I_writeback_miss 0
Core_0_L1I_prefetch_requested 0
Core_0_L1I_prefetch_dropped 0
Core_0_L1I_prefetch_issued 0
Core_0_L1I_prefetch_filled 0
Core_0_L1I_prefetch_useful 0
Core_0_L1I_prefetch_useless 0
Core_0_L1I_prefetch_late 0
Core_0_L1I_average_miss_latency 20.91986

Core_0_L1I_rq_access 50000007
Core_0_L1I_rq_forward 0
Core_0_L1I_rq_merged 35086051
Core_0_L1I_rq_to_cache 14913956
Core_0_L1I_rq_full 0

Core_0_L1I_wq_access 0
Core_0_L1I_wq_forward 0
Core_0_L1I_wq_merged 0
Core_0_L1I_wq_to_cache 0
Core_0_L1I_wq_full 0

Core_0_L1I_pq_access 0
Core_0_L1I_pq_forward 0
Core_0_L1I_pq_merged 0
Core_0_L1I_pq_to_cache 0
Core_0_L1I_pq_full 0

Core_0_L1I_acc_epochs 72771
Core_0_L1I_acc_level_0 72771
Core_0_L1I_acc_level_1 0
Core_0_L1I_acc_level_2 0
Core_0_L1I_acc_level_3 0
Core_0_L1I_acc_level_4 0
Core_0_L1I_acc_level_5 0
Core_0_L1I_acc_level_6 0
Core_0_L1I_acc_level_7 0
Core_0_L1I_acc_level_8 0
Core_0_L1I_acc_level_9 0

Core_0_L2C_total_access 994605
Core_0_L2C_total_hit 896426
Core_0_L2C_total_miss 98179
Core_0_L2C_loads 138553
Core_0_L2C_load_hit 132418
Core_0_L2C_load_miss 6135
Core_0_L2C_RFOs 87076
Core_0_L2C_RFO_hit 36604
Core_0_L2C_RFO_miss 50472
Core_0_L2C_prefetches 660919
Core_0_L2C_prefetch_hit 619357
Core_0_L2C_prefetch_miss 41562
Core_0_L2C_writebacks 108057
Core_0_L2C_writeback_hit 108047
Core_0_L2C_writeback_miss 10
Core_0_L2C_prefetch_requested 851776
Core_0_L2C_prefetch_dropped 6525
Core_0_L2C_prefetch_issued 845251
Core_0_L2C_prefetch_filled 52670
Core_0_L2C_prefetch_useful 45903
Core_0_L2C_prefetch_useless 6495
Core_0_L2C_prefetch_late 961
Core_0_L2C_average_miss_latency 41.80026

Core_0_L2C_rq_access 225629
Core_0_L2C_rq_forward 0
Core_0_L2C_rq_merged 0
Core_0_L2C_rq_to_cache 225629
Core_0_L2C_rq_full 0

Core_0_L2C_wq_access 108057
Core_0_L2C_wq_forward 5
Core_0_L2C_wq_merged 0
Core_0_L2C_wq_to_cache 108057
Core_0_L2C_wq_full 0

Core_0_L2C_pq_access 845251
Core_0_L2C_pq_forward 0
Core_0_L2C_pq_merged 33341
Core_0_L2C_pq_to_cache 811905
Core_0_L2C_pq_full 0

Core_0_L2C_acc_epochs 72771
Core_0_L2C_acc_level_0 48806
Core_0_L2C_acc_level_1 4941
Core_0_L2C_acc_level_2 4428
Core_0_L2C_acc_level_3 2122
Core_0_L2C_acc_level_4 923
Core_0_L2C_acc_level_5 4259
Core_0_L2C_acc_level_6 1709
Core_0_L2C_acc_level_7 1032
Core_0_L2C_acc_level_8 910
Core_0_L2C_acc_level_9 3641

Core_0_LLC_total_access 159450
Core_0_LLC_total_hit 149015
Core_0_LLC_total_miss 10435
Core_0_LLC_loads 5199
Core_0_LLC_load_hit 4860
Core_0_LLC_load_miss 339
Core_0_LLC_RFOs 50459
Core_0_LLC_RFO_hit 50363
Core_0_LLC_RFO_miss 96
Core_0_LLC_prefetches 42511
Core_0_LLC_prefetch_hit 32511
Core_0_LLC_prefetch_miss 10000
Core_0_LLC_writebacks 61281
Core_0_LLC_writeback_hit 61281
Core_0_LLC_writeback_miss 0
Core_0_LLC_prefetch_requested 0
Core_0_LLC_prefetch_dropped 0
Core_0_LLC_prefetch_issued 0
Core_0_LLC_prefetch_filled 16605
Core_0_LLC_prefetch_useful 7599
Core_0_LLC_prefetch_useless 0
Core_0_LLC_prefetch_late 0
Core_0_LLC_average_miss_latency 113.90810

Core_0_LLC_rq_access 55658
Core_0_LLC_rq_forward 0
Core_0_LLC_rq_merged 0
Core_0_LLC_rq_to_cache 55658
Core_0_LLC_rq_full 0

Core_0_LLC_wq_access 61281
Core_0_LLC_wq_forward 0
Core_0_LLC_wq_merged 0
Core_0_LLC_wq_to_cache 61281
Core_0_LLC_wq_full 0

Core_0_LLC_pq_access 53631
Core_0_LLC_pq_forward 0
Core_0_LLC_pq_merged 0
Core_0_LLC_pq_to_cache 53631
Core_0_LLC_pq_full 0

Core_0_LLC_acc_epochs 72787
Core_0_LLC_acc_level_0 72430
Core_0_LLC_acc_level_1 87
Core_0_LLC_acc_level_2 63
Core_0_LLC_acc_level_3 35
Core_0_LLC_acc_level_4 15
Core_0_LLC_acc_level_5 62
Core_0_LLC_acc_level_6 21
Core_0_LLC_acc_level_7 10
Core_0_LLC_acc_level_8 9
Core_0_LLC_acc_level_9 55

Core_0_major_page_fault 0
Core_0_minor_page_fault 405

scooby_st_lookup 168975
scooby_st_hit 165342
scooby_st_evict 3569
scooby_st_insert 3633
scooby_st_streaming 0

scooby_predict_called 168975
scooby_predict_out_of_bounds 2937
scooby_predict_action_1 162500
scooby_predict_issue_action_1 160559
scooby_predict_hit_action_1 1941
scooby_predict_out_of_bounds_action_1 2698
scooby_predict_action_3 3322
scooby_predict_issue_action_3 3316
scooby_predict_hit_action_3 6
scooby_predict_out_of_bounds_action_3 184
scooby_predict_action_4 17
scooby_predict_issue_action_4 16
scooby_predict_hit_action_4 1
scooby_predict_out_of_bounds_action_4 1
scooby_predict_action_5 21
scooby_predict_issue_action_5 14
scooby_predict_hit_action_5 7
scooby_predict_out_of_bounds_action_5 0
scooby_predict_action_10 26
scooby_predict_issue_action_10 25
scooby_predict_hit_action_10 1
scooby_predict_out_of_bounds_action_10 2
scooby_predict_action_11 18
scooby_predict_issue_action_11 15
scooby_predict_hit_action_11 3
scooby_predict_out_of_bounds_action_11 3
scooby_predict_action_12 15
scooby_predict_issue_action_12 15
scooby_predict_hit_action_12 0
scooby_predict_out_of_bounds_action_12 5
scooby_predict_action_22 12
scooby_predict_issue_action_22 10
scooby_predict_hit_action_22 2
scooby_predict_out_of_bounds_action_22 12
scooby_predict_action_23 17
scooby_predict_issue_action_23 15
scooby_predict_hit_action_23 2
scooby_predict_out_of_bounds_action_23 5
scooby_predict_action_30 11
scooby_predict_issue_action_30 9
scooby_predict_hit_action_30 2
scooby_predict_out_of_bounds_action_30 15
scooby_predict_action_32 10
scooby_predict_issue_action_32 8
scooby_predict_hit_action_32 2
scooby_predict_out_of_bounds_action_32 8
scooby_predict_action_-1 18
scooby_predict_issue_action_-1 6
scooby_predict_hit_action_-1 12
scooby_predict_out_of_bounds_action_-1 0
scooby_predict_action_-3 16
scooby_predict_issue_action_-3 3
scooby_predict_hit_action_-3 13
scooby_predict_out_of_bounds_action_-3 1
scooby_predict_action_-6 14
scooby_predict_issue_action_-6 6
scooby_predict_hit_action_-6 8
scooby_predict_out_of_bounds_action_-6 3
scooby_predict_action_0 21
scooby_predict_issue_action_0 0
scooby_predict_hit_action_0 0
scooby_predict_out_of_bounds_action_0 0
scooby_predict_multi_deg_called 153769
scooby_predict_predicted 851776
scooby_predict_multi_deg 687759
scooby_predict_multi_deg_2 151238
scooby_predict_multi_deg_3 143671
scooby_predict_multi_deg_4 141016
scooby_predict_multi_deg_5 127098
scooby_predict_multi_deg_6 124736
scooby_predict_multi_deg_7 0
scooby_predict_multi_deg_8 0
scooby_predict_multi_deg_9 0
scooby_predict_multi_deg_10 0
scooby_predict_multi_deg_11 0
scooby_predict_multi_deg_12 0
scooby_predict_multi_deg_13 0
scooby_predict_multi_deg_14 0
scooby_predict_multi_deg_15 0
scooby_predict_multi_deg_16 0

scooby_selected_deg_1 10248
scooby_selected_deg_2 5013
scooby_selected_deg_3 0
scooby_selected_deg_4 11967
scooby_selected_deg_5 0
scooby_selected_deg_6 136789
scooby_selected_deg_7 0
scooby_selected_deg_8 0
scooby_selected_deg_9 0
scooby_selected_deg_10 0
scooby_selected_deg_11 0
scooby_selected_deg_12 0
scooby_selected_deg_13 0
scooby_selected_deg_14 0
scooby_selected_deg_15 0
scooby_selected_deg_16 0

scooby_state_1626253|41|0 166,0,0,0,0,0,0,0,0,0,0,0,0,0,0,166,
scooby_state_1146b00|41|0 80,0,0,0,0,0,0,0,0,0,0,0,0,0,1,81,
scooby_state_1146c00|41|0 65,0,0,1,0,0,0,0,0,0,0,0,0,0,0,66,
scooby_state_1625adb|42|1 56,0,0,0,0,0,0,0,0,0,0,0,0,0,0,56,
scooby_state_1146c00|12|-31 55,0,0,0,0,0,0,0,0,0,0,0,0,0,0,55,
scooby_state_11480c8|6|1 0,55,0,0,0,0,0,0,0,0,0,0,0,0,0,55,
scooby_state_1146ba0|5|-31 55,0,0,0,0,0,0,0,0,0,0,0,0,0,0,55,
scooby_state_114832a|56|1 55,0,0,0,0,0,0,0,0,0,0,0,0,0,0,55,
scooby_state_114832a|57|1 55,0,0,0,0,0,0,0,0,0,0,0,0,0,0,55,
scooby_state_1146c00|21|-31 55,0,0,0,0,0,0,0,0,0,0,0,0,0,0,55,
scooby_state_1146c00|11|-31 55,0,0,0,0,0,0,0,0,0,0,0,0,0,0,55,
scooby_state_11480c8|16|1 0,55,0,0,0,0,0,0,0,0,0,0,0,0,0,55,
scooby_state_11480c8|13|1 0,55,0,0,0,0,0,0,0,0,0,0,0,0,0,55,
scooby_state_11480c8|9|1 0,55,0,0,0,0,0,0,0,0,0,0,0,0,0,55,
scooby_state_1146c00|24|-31 55,0,0,0,0,0,0,0,0,0,0,0,0,0,0,55,
scooby_state_114820e|10|1 55,0,0,0,0,0,0,0,0,0,0,0,0,0,0,55,
scooby_state_114820e|2|1 55,0,0,0,0,0,0,0,0,0,0,0,0,0,0,55,
scooby_state_11480c8|62|1 0,55,0,0,0,0,0,0,0,0,0,0,0,0,0,55,
scooby_state_11480ad|28|1 55,0,0,0,0,0,0,0,0,0,0,0,0,0,0,55,
scooby_state_114820e|58|1 54,1,0,0,0,0,0,0,0,0,0,0,0,0,0,55,
scooby_state_11480ad|16|1 55,0,0,0,0,0,0,0,0,0,0,0,0,0,0,55,
scooby_state_1146ba0|3|-31 53,1,0,0,0,0,0,0,0,0,0,0,0,1,0,55,
scooby_state_1146c00|52|40 54,1,0,0,0,0,0,0,0,0,0,0,0,0,0,55,
scooby_state_1146c00|17|-31 55,0,0,0,0,0,0,0,0,0,0,0,0,0,0,55,
scooby_state_11480ad|22|1 55,0,0,0,0,0,0,0,0,0,0,0,0,0,0,55,
scooby_state_1146b00|32|-31 55,0,0,0,0,0,0,0,0,0,0,0,0,0,0,55,
scooby_state_1146b00|28|-31 55,0,0,0,0,0,0,0,0,0,0,0,0,0,0,55,
scooby_state_11480ad|30|1 55,0,0,0,0,0,0,0,0,0,0,0,0,0,0,55,
scooby_state_114820e|61|1 55,0,0,0,0,0,0,0,0,0,0,0,0,0,0,55,
scooby_state_114820e|1|1 55,0,0,0,0,0,0,0,0,0,0,0,0,0,0,55,
scooby_state_11480ad|24|1 55,0,0,0,0,0,0,0,0,0,0,0,0,0,0,55,
scooby_state_114832a|54|1 55,0,0,0,0,0,0,0,0,0,0,0,0,0,0,55,
scooby_state_114832a|55|1 55,0,0,0,0,0,0,0,0,0,0,0,0,0,0,55,
scooby_state_11480c8|61|1 0,55,0,0,0,0,0,0,0,0,0,0,0,0,0,55,
scooby_state_11480c8|14|1 0,55,0,0,0,0,0,0,0,0,0,0,0,0,0,55,
scooby_state_114820e|0|0 55,0,0,0,0,0,0,0,0,0,0,0,0,0,0,55,
scooby_state_114820e|62|1 55,0,0,0,0,0,0,0,0,0,0,0,0,0,0,55,
scooby_state_11480ad|29|1 55,0,0,0,0,0,0,0,0,0,0,0,0,0,0,55,
scooby_state_114832a|58|1 55,0,0,0,0,0,0,0,0,0,0,0,0,0,0,55,
scooby_state_114820e|3|1 55,0,0,0,0,0,0,0,0,0,0,0,0,0,0,55,
scooby_state_11480c8|8|1 0,55,0,0,0,0,0,0,0,0,0,0,0,0,0,55,
scooby_state_11480ad|12|1 55,0,0,0,0,0,0,0,0,0,0,0,0,0,0,55,
scooby_state_114832a|53|1 55,0,0,0,0,0,0,0,0,0,0,0,0,0,0,55,
scooby_state_114832a|61|1 55,0,0,0,0,0,0,0,0,0,0,0,0,0,0,55,
scooby_state_114820e|54|1 55,0,0,0,0,0,0,0,0,0,0,0,0,0,0,55,
scooby_state_114820e|63|1 55,0,0,0,0,0,0,0,0,0,0,0,0,0,0,55,
scooby_state_114832a|43|1 55,0,0,0,0,0,0,0,0,0,0,0,0,0,0,55,
scooby_state_114832a|63|1 55,0,0,0,0,0,0,0,0,0,0,0,0,0,0,55,
scooby_state_114832a|60|1 55,0,0,0,0,0,0,0,0,0,0,0,0,0,0,55,
scooby_state_114820e|9|1 55,0,0,0,0,0,0,0,0,0,0,0,0,0,0,55,
scooby_state_11480ad|15|1 55,0,0,0,0,0,0,0,0,0,0,0,0,0,0,55,
scooby_state_11480ad|37|1 55,0,0,0,0,0,0,0,0,0,0,0,0,0,0,55,
scooby_state_11480c8|5|1 0,55,0,0,0,0,0,0,0,0,0,0,0,0,0,55,
scooby_state_114820e|4|1 55,0,0,0,0,0,0,0,0,0,0,0,0,0,0,55,
scooby_state_1146c00|50|40 55,0,0,0,0,0,0,0,0,0,0,0,0,0,0,55,
scooby_state_11480c8|63|1 0,55,0,0,0,0,0,0,0,0,0,0,0,0,0,55,
scooby_state_11480c8|19|1 0,55,0,0,0,0,0,0,0,0,0,0,0,0,0,55,
scooby_state_114832a|42|1 55,0,0,0,0,0,0,0,0,0,0,0,0,0,0,55,
scooby_state_11480ad|34|1 55,0,0,0,0,0,0,0,0,0,0,0,0,0,0,55,
scooby_state_11480ad|26|1 55,0,0,0,0,0,0,0,0,0,0,0,0,0,0,55,
scooby_state_11480c8|11|1 0,55,0,0,0,0,0,0,0,0,0,0,0,0,0,55,
scooby_state_114832a|49|1 55,0,0,0,0,0,0,0,0,0,0,0,0,0,0,55,
scooby_state_114832a|2|1 55,0,0,0,0,0,0,0,0,0,0,0,0,0,0,55,
scooby_state_11480ad|21|1 55,0,0,0,0,0,0,0,0,0,0,0,0,0,0,55,
scooby_state_114832a|1|1 55,0,0,0,0,0,0,0,0,0,0,0,0,0,0,55,
scooby_state_1146c00|15|-31 55,0,0,0,0,0,0,0,0,0,0,0,0,0,0,55,
scooby_state_11480c8|1|1 0,55,0,0,0,0,0,0,0,0,0,0,0,0,0,55,
scooby_state_114820e|60|1 55,0,0,0,0,0,0,0,0,0,0,0,0,0,0,55,
scooby_state_11480c8|4|1 0,55,0,0,0,0,0,0,0,0,0,0,0,0,0,55,
scooby_state_11480ad|32|1 55,0,0,0,0,0,0,0,0,0,0,0,0,0,0,55,
scooby_state_114820e|8|1 55,0,0,0,0,0,0,0,0,0,0,0,0,0,0,55,
scooby_state_11480c8|17|1 0,55,0,0,0,0,0,0,0,0,0,0,0,0,0,55,
scooby_state_1146c00|28|-31 55,0,0,0,0,0,0,0,0,0,0,0,0,0,0,55,
scooby_state_1146b00|30|-31 55,0,0,0,0,0,0,0,0,0,0,0,0,0,0,55,
scooby_state_114832a|50|1 55,0,0,0,0,0,0,0,0,0,0,0,0,0,0,55,
scooby_state_114820e|5|1 55,0,0,0,0,0,0,0,0,0,0,0,0,0,0,55,
scooby_state_11480c8|15|1 0,55,0,0,0,0,0,0,0,0,0,0,0,0,0,55,
scooby_state_11480ad|31|1 55,0,0,0,0,0,0,0,0,0,0,0,0,0,0,55,
scooby_state_11480ad|36|1 55,0,0,0,0,0,0,0,0,0,0,0,0,0,0,55,
scooby_state_11480ad|9|1 55,0,0,0,0,0,0,0,0,0,0,0,0,0,0,55,
scooby_state_1146c00|30|-31 55,0,0,0,0,0,0,0,0,0,0,0,0,0,0,55,
scooby_state_1146c00|19|-31 55,0,0,0,0,0,0,0,0,0,0,0,0,0,0,55,
scooby_state_114832a|59|1 54,0,0,0,1,0,0,0,0,0,0,0,0,0,0,55,
scooby_state_114832a|51|1 55,0,0,0,0,0,0,0,0,0,0,0,0,0,0,55,
scooby_state_11480ad|23|1 55,0,0,0,0,0,0,0,0,0,0,0,0,0,0,55,
scooby_state_11480ad|14|1 55,0,0,0,0,0,0,0,0,0,0,0,0,0,0,55,
scooby_state_11480c8|7|1 0,55,0,0,0,0,0,0,0,0,0,0,0,0,0,55,
scooby_state_11480ad|11|1 55,0,0,0,0,0,0,0,0,0,0,0,0,0,0,55,
scooby_state_11480c8|60|1 0,55,0,0,0,0,0,0,0,0,0,0,0,0,0,55,
scooby_state_114832a|41|1 55,0,0,0,0,0,0,0,0,0,0,0,0,0,0,55,
scooby_state_114820e|57|1 55,0,0,0,0,0,0,0,0,0,0,0,0,0,0,55,
scooby_state_11480c8|10|1 0,55,0,0,0,0,0,0,0,0,0,0,0,0,0,55,
scooby_state_1146c00|57|40 55,0,0,0,0,0,0,0,0,0,0,0,0,0,0,55,
scooby_state_114832a|62|1 55,0,0,0,0,0,0,0,0,0,0,0,0,0,0,55,
scooby_state_11480c8|12|1 0,55,0,0,0,0,0,0,0,0,0,0,0,0,0,55,
scooby_state_114832a|39|1 55,0,0,0,0,0,0,0,0,0,0,0,0,0,0,55,
scooby_state_114832a|47|1 55,0,0,0,0,0,0,0,0,0,0,0,0,0,0,55,
scooby_state_1146c00|61|40 54,1,0,0,0,0,0,0,0,0,0,0,0,0,0,55,
scooby_state_11480ad|17|1 55,0,0,0,0,0,0,0,0,0,0,0,0,0,0,55,
scooby_state_114820e|59|1 55,0,0,0,0,0,0,0,0,0,0,0,0,0,0,55,
scooby_state_11480ad|35|1 55,0,0,0,0,0,0,0,0,0,0,0,0,0,0,55,
scooby_state_114832a|44|1 54,0,0,0,0,0,0,0,0,0,0,0,0,0,1,55,
scooby_state_11480ad|10|1 55,0,0,0,0,0,0,0,0,0,0,0,0,0,0,55,
scooby_state_114820e|6|1 55,0,0,0,0,0,0,0,0,0,0,0,0,0,0,55,
scooby_state_11480c8|3|1 0,55,0,0,0,0,0,0,0,0,0,0,0,0,0,55,
scooby_state_11480ad|33|1 55,0,0,0,0,0,0,0,0,0,0,0,0,0,0,55,
scooby_state_11480c8|18|1 0,55,0,0,0,0,0,0,0,0,0,0,0,0,0,55,
scooby_state_114832a|38|1 55,0,0,0,0,0,0,0,0,0,0,0,0,0,0,55,
scooby_state_11480ad|27|1 55,0,0,0,0,0,0,0,0,0,0,0,0,0,0,55,
scooby_state_1146c00|26|-31 55,0,0,0,0,0,0,0,0,0,0,0,0,0,0,55,
scooby_state_11480ad|18|1 55,0,0,0,0,0,0,0,0,0,0,0,0,0,0,55,
scooby_state_11480ad|25|1 55,0,0,0,0,0,0,0,0,0,0,0,0,0,0,55,
scooby_state_114832a|45|1 55,0,0,0,0,0,0,0,0,0,0,0,0,0,0,55,
scooby_state_114832a|40|1 55,0,0,0,0,0,0,0,0,0,0,0,0,0,0,55,
scooby_state_11480ad|13|1 55,0,0,0,0,0,0,0,0,0,0,0,0,0,0,55,
scooby_state_11480ad|20|1 55,0,0,0,0,0,0,0,0,0,0,0,0,0,0,55,
scooby_state_114820e|7|1 55,0,0,0,0,0,0,0,0,0,0,0,0,0,0,55,
scooby_state_114820e|55|1 55,0,0,0,0,0,0,0,0,0,0,0,0,0,0,55,
scooby_state_114832a|46|1 55,0,0,0,0,0,0,0,0,0,0,0,0,0,0,55,
scooby_state_11480ad|19|1 55,0,0,0,0,0,0,0,0,0,0,0,0,0,0,55,
scooby_state_11480c8|2|1 0,55,0,0,0,0,0,0,0,0,0,0,0,0,0,55,
scooby_state_114832a|48|1 55,0,0,0,0,0,0,0,0,0,0,0,0,0,0,55,
scooby_state_114832a|52|1 55,0,0,0,0,0,0,0,0,0,0,0,0,0,0,55,
scooby_state_114820e|56|1 55,0,0,0,0,0,0,0,0,0,0,0,0,0,0,55,
scooby_state_114820e|24|1 54,0,0,0,0,0,0,0,0,0,0,0,0,0,0,54,
scooby_state_11480ad|62|1 54,0,0,0,0,0,0,0,0,0,0,0,0,0,0,54,
scooby_state_11480ad|45|1 54,0,0,0,0,0,0,0,0,0,0,0,0,0,0,54,
scooby_state_11480ad|49|1 54,0,0,0,0,0,0,0,0,0,0,0,0,0,0,54,
scooby_state_114820e|28|1 54,0,0,0,0,0,0,0,0,0,0,0,0,0,0,54,
scooby_state_114832a|19|1 54,0,0,0,0,0,0,0,0,0,0,0,0,0,0,54,
scooby_state_1146c00|9|-31 54,0,0,0,0,0,0,0,0,0,0,0,0,0,0,54,
scooby_state_11480ad|51|1 54,0,0,0,0,0,0,0,0,0,0,0,0,0,0,54,
scooby_state_1146c00|53|40 54,0,0,0,0,0,0,0,0,0,0,0,0,0,0,54,
scooby_state_114820e|16|1 54,0,0,0,0,0,0,0,0,0,0,0,0,0,0,54,
scooby_state_114832a|27|1 54,0,0,0,0,0,0,0,0,0,0,0,0,0,0,54,
scooby_state_11480ad|43|1 54,0,0,0,0,0,0,0,0,0,0,0,0,0,0,54,
scooby_state_1146ba0|4|-31 54,0,0,0,0,0,0,0,0,0,0,0,0,0,0,54,
scooby_state_114820e|36|1 54,0,0,0,0,0,0,0,0,0,0,0,0,0,0,54,
scooby_state_11480ad|53|1 54,0,0,0,0,0,0,0,0,0,0,0,0,0,0,54,
scooby_state_1146b00|35|9 54,0,0,0,0,0,0,0,0,0,0,0,0,0,0,54,
scooby_state_114820e|26|1 54,0,0,0,0,0,0,0,0,0,0,0,0,0,0,54,
scooby_state_11480ad|52|1 54,0,0,0,0,0,0,0,0,0,0,0,0,0,0,54,
scooby_state_1146b00|29|-31 54,0,0,0,0,0,0,0,0,0,0,0,0,0,0,54,
scooby_state_114832a|22|1 54,0,0,0,0,0,0,0,0,0,0,0,0,0,0,54,
scooby_state_114820e|17|1 53,0,0,0,0,0,0,1,0,0,0,0,0,0,0,54,
scooby_state_114832a|17|1 54,0,0,0,0,0,0,0,0,0,0,0,0,0,0,54,
scooby_state_1146c00|16|-31 54,0,0,0,0,0,0,0,0,0,0,0,0,0,0,54,
scooby_state_1146c00|49|40 54,0,0,0,0,0,0,0,0,0,0,0,0,0,0,54,
scooby_state_11480c8|20|1 0,54,0,0,0,0,0,0,0,0,0,0,0,0,0,54,
scooby_state_11480c8|21|1 0,54,0,0,0,0,0,0,0,0,0,0,0,0,0,54,
scooby_state_114820e|15|1 54,0,0,0,0,0,0,0,0,0,0,0,0,0,0,54,
scooby_state_114820e|35|1 54,0,0,0,0,0,0,0,0,0,0,0,0,0,0,54,
scooby_state_1146c00|22|-31 54,0,0,0,0,0,0,0,0,0,0,0,0,0,0,54,
scooby_state_1146c00|31|-31 54,0,0,0,0,0,0,0,0,0,0,0,0,0,0,54,
scooby_state_1146c00|25|-31 54,0,0,0,0,0,0,0,0,0,0,0,0,0,0,54,
scooby_state_11480ad|42|1 54,0,0,0,0,0,0,0,0,0,0,0,0,0,0,54,
scooby_state_11480ad|47|1 54,0,0,0,0,0,0,0,0,0,0,0,0,0,0,54,
scooby_state_1146c00|59|40 53,1,0,0,0,0,0,0,0,0,0,0,0,0,0,54,
scooby_state_114832a|20|1 54,0,0,0,0,0,0,0,0,0,0,0,0,0,0,54,
scooby_state_114820e|20|1 54,0,0,0,0,0,0,0,0,0,0,0,0,0,0,54,
scooby_state_1146ba0|0|-31 54,0,0,0,0,0,0,0,0,0,0,0,0,0,0,54,
scooby_state_11480c8|38|1 0,54,0,0,0,0,0,0,0,0,0,0,0,0,0,54,
scooby_state_11480c8|44|1 0,52,1,0,0,0,0,0,0,1,0,0,0,0,0,54,
scooby_state_114832a|21|1 54,0,0,0,0,0,0,0,0,0,0,0,0,0,0,54,
scooby_state_11480c8|22|1 0,54,0,0,0,0,0,0,0,0,0,0,0,0,0,54,
scooby_state_114832a|25|1 54,0,0,0,0,0,0,0,0,0,0,0,0,0,0,54,
scooby_state_11480ad|40|1 54,0,0,0,0,0,0,0,0,0,0,0,0,0,0,54,
scooby_state_114832a|24|1 54,0,0,0,0,0,0,0,0,0,0,0,0,0,0,54,
scooby_state_11480ad|46|1 54,0,0,0,0,0,0,0,0,0,0,0,0,0,0,54,
scooby_state_1146c00|62|40 54,0,0,0,0,0,0,0,0,0,0,0,0,0,0,54,
scooby_state_11480c8|33|1 0,54,0,0,0,0,0,0,0,0,0,0,0,0,0,54,
scooby_state_114820e|31|1 54,0,0,0,0,0,0,0,0,0,0,0,0,0,0,54,
scooby_state_11480c8|35|1 0,54,0,0,0,0,0,0,0,0,0,0,0,0,0,54,
scooby_state_1146c00|37|9 54,0,0,0,0,0,0,0,0,0,0,0,0,0,0,54,
scooby_state_11480ad|59|1 54,0,0,0,0,0,0,0,0,0,0,0,0,0,0,54,
scooby_state_114832a|15|1 54,0,0,0,0,0,0,0,0,0,0,0,0,0,0,54,
scooby_state_114832a|13|1 54,0,0,0,0,0,0,0,0,0,0,0,0,0,0,54,
scooby_state_11480ad|50|1 54,0,0,0,0,0,0,0,0,0,0,0,0,0,0,54,
scooby_state_114832a|9|1 54,0,0,0,0,0,0,0,0,0,0,0,0,0,0,54,
scooby_state_1146b00|27|-31 54,0,0,0,0,0,0,0,0,0,0,0,0,0,0,54,
scooby_state_114832a|18|1 54,0,0,0,0,0,0,0,0,0,0,0,0,0,0,54,
scooby_state_1146ba0|2|-31 54,0,0,0,0,0,0,0,0,0,0,0,0,0,0,54,
scooby_state_11480c8|27|1 0,54,0,0,0,0,0,0,0,0,0,0,0,0,0,54,
scooby_state_1146c00|10|-31 54,0,0,0,0,0,0,0,0,0,0,0,0,0,0,54,
scooby_state_11480c8|42|1 0,54,0,0,0,0,0,0,0,0,0,0,0,0,0,54,
scooby_state_114820e|12|1 54,0,0,0,0,0,0,0,0,0,0,0,0,0,0,54,
scooby_state_114832a|26|1 54,0,0,0,0,0,0,0,0,0,0,0,0,0,0,54,
scooby_state_1146b00|26|-31 54,0,0,0,0,0,0,0,0,0,0,0,0,0,0,54,
scooby_state_11480c8|39|1 0,54,0,0,0,0,0,0,0,0,0,0,0,0,0,54,
scooby_state_114820e|14|1 54,0,0,0,0,0,0,0,0,0,0,0,0,0,0,54,
scooby_state_114832a|10|1 54,0,0,0,0,0,0,0,0,0,0,0,0,0,0,54,
scooby_state_1146c00|58|40 53,0,0,0,0,0,0,1,0,0,0,0,0,0,0,54,
scooby_state_11480c8|36|1 0,54,0,0,0,0,0,0,0,0,0,0,0,0,0,54,
scooby_state_114832a|28|1 54,0,0,0,0,0,0,0,0,0,0,0,0,0,0,54,
scooby_state_114832a|14|1 54,0,0,0,0,0,0,0,0,0,0,0,0,0,0,54,
scooby_state_1146c00|60|40 54,0,0,0,0,0,0,0,0,0,0,0,0,0,0,54,
scooby_state_1146c00|56|40 54,0,0,0,0,0,0,0,0,0,0,0,0,0,0,54,
scooby_state_11480c8|28|1 0,54,0,0,0,0,0,0,0,0,0,0,0,0,0,54,
scooby_state_114832a|12|1 54,0,0,0,0,0,0,0,0,0,0,0,0,0,0,54,
scooby_state_11480c8|25|1 0,54,0,0,0,0,0,0,0,0,0,0,0,0,0,54,
scooby_state_11480c8|32|1 0,54,0,0,0,0,0,0,0,0,0,0,0,0,0,54,
scooby_state_11480c8|29|1 0,53,0,0,0,0,0,0,0,0,1,0,0,0,0,54,
scooby_state_11480c8|37|1 0,54,0,0,0,0,0,0,0,0,0,0,0,0,0,54,
scooby_state_11480ad|44|1 54,0,0,0,0,0,0,0,0,0,0,0,0,0,0,54,
scooby_state_114820e|33|1 54,0,0,0,0,0,0,0,0,0,0,0,0,0,0,54,
scooby_state_114820e|22|1 54,0,0,0,0,0,0,0,0,0,0,0,0,0,0,54,
scooby_state_114820e|25|1 54,0,0,0,0,0,0,0,0,0,0,0,0,0,0,54,
scooby_state_1146c00|27|-31 54,0,0,0,0,0,0,0,0,0,0,0,0,0,0,54,
scooby_state_1146c00|63|40 54,0,0,0,0,0,0,0,0,0,0,0,0,0,0,54,
scooby_state_114832a|16|1 54,0,0,0,0,0,0,0,0,0,0,0,0,0,0,54,
scooby_state_114820e|29|1 54,0,0,0,0,0,0,0,0,0,0,0,0,0,0,54,
scooby_state_11480c8|34|1 0,54,0,0,0,0,0,0,0,0,0,0,0,0,0,54,
scooby_state_1146c00|18|-31 54,0,0,0,0,0,0,0,0,0,0,0,0,0,0,54,
scooby_state_11480ad|41|1 54,0,0,0,0,0,0,0,0,0,0,0,0,0,0,54,
scooby_state_1146c00|23|-31 54,0,0,0,0,0,0,0,0,0,0,0,0,0,0,54,
scooby_state_114820e|27|1 54,0,0,0,0,0,0,0,0,0,0,0,0,0,0,54,
scooby_state_11480c8|30|1 0,54,0,0,0,0,0,0,0,0,0,0,0,0,0,54,
scooby_state_114832a|6|1 54,0,0,0,0,0,0,0,0,0,0,0,0,0,0,54,
scooby_state_11480ad|54|1 54,0,0,0,0,0,0,0,0,0,0,0,0,0,0,54,
scooby_state_11480ad|55|1 53,0,0,0,0,0,0,0,0,0,0,0,0,0,1,54,
scooby_state_11480ad|63|1 54,0,0,0,0,0,0,0,0,0,0,0,0,0,0,54,
scooby_state_11480c8|45|1 0,54,0,0,0,0,0,0,0,0,0,0,0,0,0,54,
scooby_state_11480ad|38|1 54,0,0,0,0,0,0,0,0,0,0,0,0,0,0,54,
scooby_state_11480c8|40|1 1,53,0,0,0,0,0,0,0,0,0,0,0,0,0,54,
scooby_state_114832a|11|1 54,0,0,0,0,0,0,0,0,0,0,0,0,0,0,54,
scooby_state_114832a|3|1 54,0,0,0,0,0,0,0,0,0,0,0,0,0,0,54,
scooby_state_114832a|4|1 54,0,0,0,0,0,0,0,0,0,0,0,0,0,0,54,
scooby_state_1146c00|32|-31 54,0,0,0,0,0,0,0,0,0,0,0,0,0,0,54,
scooby_state_114820e|13|1 54,0,0,0,0,0,0,0,0,0,0,0,0,0,0,54,
scooby_state_11480c8|24|1 0,53,0,0,0,1,0,0,0,0,0,0,0,0,0,54,
scooby_state_114832a|8|1 54,0,0,0,0,0,0,0,0,0,0,0,0,0,0,54,
scooby_state_1146b00|36|9 54,0,0,0,0,0,0,0,0,0,0,0,0,0,0,54,
scooby_state_11480c8|26|1 0,54,0,0,0,0,0,0,0,0,0,0,0,0,0,54,
scooby_state_11480ad|39|1 54,0,0,0,0,0,0,0,0,0,0,0,0,0,0,54,
scooby_state_11480c8|43|1 0,54,0,0,0,0,0,0,0,0,0,0,0,0,0,54,
scooby_state_1146c00|54|40 54,0,0,0,0,0,0,0,0,0,0,0,0,0,0,54,
scooby_state_1146c00|14|-31 54,0,0,0,0,0,0,0,0,0,0,0,0,0,0,54,
scooby_state_114820e|18|1 53,0,0,0,0,0,0,1,0,0,0,0,0,0,0,54,
scooby_state_1146b00|31|-31 54,0,0,0,0,0,0,0,0,0,0,0,0,0,0,54,
scooby_state_11480c8|23|1 0,54,0,0,0,0,0,0,0,0,0,0,0,0,0,54,
scooby_state_114820e|23|1 54,0,0,0,0,0,0,0,0,0,0,0,0,0,0,54,
scooby_state_114820e|21|1 54,0,0,0,0,0,0,0,0,0,0,0,0,0,0,54,
scooby_state_11480ad|48|1 54,0,0,0,0,0,0,0,0,0,0,0,0,0,0,54,
scooby_state_114820e|19|1 54,0,0,0,0,0,0,0,0,0,0,0,0,0,0,54,
scooby_state_114820e|37|1 54,0,0,0,0,0,0,0,0,0,0,0,0,0,0,54,
scooby_state_11480ad|57|1 54,0,0,0,0,0,0,0,0,0,0,0,0,0,0,54,
scooby_state_1146c00|29|-31 54,0,0,0,0,0,0,0,0,0,0,0,0,0,0,54,
scooby_state_114820e|32|1 54,0,0,0,0,0,0,0,0,0,0,0,0,0,0,54,
scooby_state_114832a|23|1 54,0,0,0,0,0,0,0,0,0,0,0,0,0,0,54,
scooby_state_114820e|30|1 53,0,0,0,0,0,0,0,0,0,0,0,0,1,0,54,
scooby_state_114820e|11|1 54,0,0,0,0,0,0,0,0,0,0,0,0,0,0,54,
scooby_state_114832a|7|1 54,0,0,0,0,0,0,0,0,0,0,0,0,0,0,54,
scooby_state_11480ad|56|1 54,0,0,0,0,0,0,0,0,0,0,0,0,0,0,54,
scooby_state_114832a|5|1 54,0,0,0,0,0,0,0,0,0,0,0,0,0,0,54,
scooby_state_11480c8|31|1 0,54,0,0,0,0,0,0,0,0,0,0,0,0,0,54,
scooby_state_11480ad|58|1 54,0,0,0,0,0,0,0,0,0,0,0,0,0,0,54,
scooby_state_11480ad|61|1 54,0,0,0,0,0,0,0,0,0,0,0,0,0,0,54,
scooby_state_11480ad|60|1 54,0,0,0,0,0,0,0,0,0,0,0,0,0,0,54,
scooby_state_114820e|34|1 54,0,0,0,0,0,0,0,0,0,0,0,0,0,0,54,
scooby_state_11480c8|41|1 0,54,0,0,0,0,0,0,0,0,0,0,0,0,0,54,
scooby_state_1146c00|35|9 49,0,0,0,0,0,0,0,0,0,0,0,0,0,0,49,
scooby_state_1146b00|39|9 49,0,0,0,0,0,0,0,0,0,0,0,0,0,0,49,
scooby_state_1146c00|36|9 49,0,0,0,0,0,0,0,0,0,0,0,0,0,0,49,
scooby_state_1146c00|34|9 48,0,0,0,0,0,0,0,0,0,0,0,0,0,0,48,
scooby_state_1146b00|38|9 48,0,0,0,0,0,0,0,0,0,0,0,0,0,0,48,
scooby_state_1146b30|37|9 46,0,0,0,0,0,0,0,0,0,0,0,0,0,0,46,
scooby_state_1146b30|24|-31 46,0,0,0,0,0,0,0,0,0,0,0,0,0,0,46,
scooby_state_1146ba0|1|-31 46,0,0,0,0,0,0,0,0,0,0,0,0,0,0,46,
scooby_state_1146b30|28|-31 46,0,0,0,0,0,0,0,0,0,0,0,0,0,0,46,
scooby_state_1146b00|41|4 46,0,0,0,0,0,0,0,0,0,0,0,0,0,0,46,
scooby_state_1146b30|59|40 46,0,0,0,0,0,0,0,0,0,0,0,0,0,0,46,
scooby_state_1146b30|31|-31 46,0,0,0,0,0,0,0,0,0,0,0,0,0,0,46,
scooby_state_1146c00|39|9 46,0,0,0,0,0,0,0,0,0,0,0,0,0,0,46,
scooby_state_1146b30|33|9 45,1,0,0,0,0,0,0,0,0,0,0,0,0,0,46,
scooby_state_1146c00|38|9 45,0,0,0,0,0,0,0,0,0,0,0,0,0,0,45,
scooby_state_1146b00|46|5 45,0,0,0,0,0,0,0,0,0,0,0,0,0,0,45,
scooby_state_1146b30|32|-31 45,0,0,0,0,0,0,0,0,0,0,0,0,0,0,45,
scooby_state_1625f60|30|0 44,0,0,0,0,0,0,0,0,0,0,0,0,0,0,44,
scooby_state_15f3ab8|34|0 43,1,0,0,0,0,0,0,0,0,0,0,0,0,0,44,
scooby_state_1625b33|37|1 43,0,0,0,0,0,0,0,0,0,0,0,0,0,0,43,
scooby_state_1146b30|30|-31 39,0,0,0,1,0,0,0,0,0,0,0,0,0,0,40,
scooby_state_1146b70|39|9 40,0,0,0,0,0,0,0,0,0,0,0,0,0,0,40,
scooby_state_1146b30|35|9 40,0,0,0,0,0,0,0,0,0,0,0,0,0,0,40,
scooby_state_1146b30|36|9 40,0,0,0,0,0,0,0,0,0,0,0,0,0,0,40,
scooby_state_1146b30|26|-31 39,0,0,0,0,0,0,0,0,0,0,0,0,0,0,39,
scooby_state_1146b70|38|9 39,0,0,0,0,0,0,0,0,0,0,0,0,0,0,39,
scooby_state_1146b30|62|40 38,0,0,0,0,0,0,0,0,0,0,0,0,0,0,38,
scooby_state_1146b00|37|9 38,0,0,0,0,0,0,0,0,0,0,0,0,0,0,38,
scooby_state_1146b30|22|-31 38,0,0,0,0,0,0,0,0,0,0,0,0,0,0,38,
scooby_state_1146b30|63|40 38,0,0,0,0,0,0,0,0,0,0,0,0,0,0,38,
scooby_state_1146c00|33|9 38,0,0,0,0,0,0,0,0,0,0,0,0,0,0,38,
scooby_state_1146b30|23|-31 38,0,0,0,0,0,0,0,0,0,0,0,0,0,0,38,
scooby_state_1146b70|5|-31 36,0,1,0,0,0,0,0,0,0,0,0,0,0,0,37,
scooby_state_1146c00|55|40 37,0,0,0,0,0,0,0,0,0,0,0,0,0,0,37,
scooby_state_1146b70|12|-31 37,0,0,0,0,0,0,0,0,0,0,0,0,0,0,37,
scooby_state_1146b70|9|-31 37,0,0,0,0,0,0,0,0,0,0,0,0,0,0,37,
scooby_state_1146b70|1|-31 37,0,0,0,0,0,0,0,0,0,0,0,0,0,0,37,
scooby_state_1146b70|36|9 37,0,0,0,0,0,0,0,0,0,0,0,0,0,0,37,
scooby_state_114832a|0|0 37,0,0,0,0,0,0,0,0,0,0,0,0,0,0,37,
scooby_state_1146b70|8|-31 37,0,0,0,0,0,0,0,0,0,0,0,0,0,0,37,
scooby_state_1668b99|40|0 37,0,0,0,0,0,0,0,0,0,0,0,0,0,0,37,
scooby_state_1146b30|19|-31 37,0,0,0,0,0,0,0,0,0,0,0,0,0,0,37,
scooby_state_166874b|11|5 37,0,0,0,0,0,0,0,0,0,0,0,0,0,0,37,
scooby_state_1146c00|13|-31 36,0,0,0,0,0,0,0,0,0,0,0,0,0,0,36,
scooby_state_1146b70|31|-31 36,0,0,0,0,0,0,0,0,0,0,0,0,0,0,36,
scooby_state_1146b70|7|-31 36,0,0,0,0,0,0,0,0,0,0,0,0,0,0,36,
scooby_state_1146b30|16|-31 36,0,0,0,0,0,0,0,0,0,0,0,0,0,0,36,
scooby_state_1146b30|25|-31 36,0,0,0,0,0,0,0,0,0,0,0,0,0,0,36,
scooby_state_1146b30|56|40 36,0,0,0,0,0,0,0,0,0,0,0,0,0,0,36,
scooby_state_1146b30|39|9 36,0,0,0,0,0,0,0,0,0,0,0,0,0,0,36,
scooby_state_1146b30|20|-31 36,0,0,0,0,0,0,0,0,0,0,0,0,0,0,36,
scooby_state_1146b30|38|9 36,0,0,0,0,0,0,0,0,0,0,0,0,0,0,36,
scooby_state_1146b70|0|-31 36,0,0,0,0,0,0,0,0,0,0,0,0,0,0,36,
scooby_state_1146b30|51|40 36,0,0,0,0,0,0,0,0,0,0,0,0,0,0,36,
scooby_state_1146b00|50|9 36,0,0,0,0,0,0,0,0,0,0,0,0,0,0,36,
scooby_state_1146c00|51|40 36,0,0,0,0,0,0,0,0,0,0,0,0,0,0,36,
scooby_state_1146b30|15|-31 36,0,0,0,0,0,0,0,0,0,0,0,0,0,0,36,
scooby_state_1146c00|20|-31 36,0,0,0,0,0,0,0,0,0,0,0,0,0,0,36,
scooby_state_1146ba0|10|-31 36,0,0,0,0,0,0,0,0,0,0,0,0,0,0,36,
scooby_state_1146b70|29|-31 36,0,0,0,0,0,0,0,0,0,0,0,0,0,0,36,
scooby_state_1146b30|27|-31 36,0,0,0,0,0,0,0,0,0,0,0,0,0,0,36,
scooby_state_1146b70|28|-31 36,0,0,0,0,0,0,0,0,0,0,0,0,0,0,36,
scooby_state_1146b30|34|9 36,0,0,0,0,0,0,0,0,0,0,0,0,0,0,36,
scooby_state_1146b30|60|40 36,0,0,0,0,0,0,0,0,0,0,0,0,0,0,36,
scooby_state_1146b70|2|-31 36,0,0,0,0,0,0,0,0,0,0,0,0,0,0,36,
scooby_state_1146b70|35|9 36,0,0,0,0,0,0,0,0,0,0,0,0,0,0,36,
scooby_state_1146b30|55|40 36,0,0,0,0,0,0,0,0,0,0,0,0,0,0,36,
scooby_state_1146b70|32|-31 35,0,0,0,1,0,0,0,0,0,0,0,0,0,0,36,
scooby_state_1146b70|30|-31 36,0,0,0,0,0,0,0,0,0,0,0,0,0,0,36,
scooby_state_1146b70|4|-31 36,0,0,0,0,0,0,0,0,0,0,0,0,0,0,36,
scooby_state_1146b30|11|-31 35,0,0,1,0,0,0,0,0,0,0,0,0,0,0,36,
scooby_state_1146b30|29|-31 36,0,0,0,0,0,0,0,0,0,0,0,0,0,0,36,
scooby_state_1146b70|37|9 36,0,0,0,0,0,0,0,0,0,0,0,0,0,0,36,
scooby_state_1146b70|11|-31 36,0,0,0,0,0,0,0,0,0,0,0,0,0,0,36,
scooby_state_1625b33|33|-1 35,0,0,0,0,0,0,0,0,0,0,0,0,0,0,35,
scooby_state_1146b70|33|9 34,0,0,0,0,0,0,0,0,0,0,0,0,0,0,34,
scooby_state_1146b30|49|9 34,0,0,0,0,0,0,0,0,0,0,0,0,0,0,34,
scooby_state_1146b70|41|0 33,0,0,0,0,0,0,0,0,0,0,0,0,0,0,33,
scooby_state_1146b30|21|-31 33,0,0,0,0,0,0,0,0,0,0,0,0,0,0,33,
scooby_state_1146b30|61|40 33,0,0,0,0,0,0,0,0,0,0,0,0,0,0,33,
scooby_state_1146b70|40|40 32,0,0,0,0,0,0,0,0,0,0,0,0,0,0,32,
scooby_state_1146b00|13|9 31,0,0,0,0,0,0,0,0,0,0,0,0,0,0,31,
scooby_state_1146b30|18|-31 30,0,0,0,0,0,0,0,0,0,0,0,0,0,0,30,
scooby_state_1625b33|38|1 29,0,0,0,0,0,0,0,0,0,0,0,0,0,0,29,
scooby_state_1146b30|10|-31 29,0,0,0,0,0,0,0,0,0,0,0,0,0,0,29,
scooby_state_114fe45|57|1 29,0,0,0,0,0,0,0,0,0,0,0,0,0,0,29,
scooby_state_1146b70|15|9 29,0,0,0,0,0,0,0,0,0,0,0,0,0,0,29,
scooby_state_1625b33|34|-1 29,0,0,0,0,0,0,0,0,0,0,0,0,0,0,29,
scooby_state_114f140|5|1 29,0,0,0,0,0,0,0,0,0,0,0,0,0,0,29,
scooby_state_1146b70|6|-31 29,0,0,0,0,0,0,0,0,0,0,0,0,0,0,29,
scooby_state_16264ff|38|0 29,0,0,0,0,0,0,0,0,0,0,0,0,0,0,29,
scooby_state_16800e2|1|1 29,0,0,0,0,0,0,0,0,0,0,0,0,0,0,29,
scooby_state_166875f|48|17 28,0,0,0,0,0,0,0,0,0,0,0,0,0,0,28,
scooby_state_1146ba0|16|-31 28,0,0,0,0,0,0,0,0,0,0,0,0,0,0,28,
scooby_state_1146bd0|21|-31 28,0,0,0,0,0,0,0,0,0,0,0,0,0,0,28,
scooby_state_1146b30|52|40 28,0,0,0,0,0,0,0,0,0,0,0,0,0,0,28,
scooby_state_1146b00|15|9 28,0,0,0,0,0,0,0,0,0,0,0,0,0,0,28,
scooby_state_1146ba0|27|9 28,0,0,0,0,0,0,0,0,0,0,0,0,0,0,28,
scooby_state_1146bd0|26|-31 27,0,0,0,0,0,0,0,0,0,0,0,0,1,0,28,
scooby_state_1146ba0|14|-40 28,0,0,0,0,0,0,0,0,0,0,0,0,0,0,28,
scooby_state_11480ef|28|0 28,0,0,0,0,0,0,0,0,0,0,0,0,0,0,28,
scooby_state_114820e|53|0 28,0,0,0,0,0,0,0,0,0,0,0,0,0,0,28,
scooby_state_1146b00|1|-31 28,0,0,0,0,0,0,0,0,0,0,0,0,0,0,28,
scooby_state_1146bd0|11|9 28,0,0,0,0,0,0,0,0,0,0,0,0,0,0,28,
scooby_state_1146ba0|7|-31 28,0,0,0,0,0,0,0,0,0,0,0,0,0,0,28,
scooby_state_1148120|62|1 28,0,0,0,0,0,0,0,0,0,0,0,0,0,0,28,
scooby_state_166875f|43|14 28,0,0,0,0,0,0,0,0,0,0,0,0,0,0,28,
scooby_state_1146b00|10|9 28,0,0,0,0,0,0,0,0,0,0,0,0,0,0,28,
scooby_state_1146b00|19|-31 28,0,0,0,0,0,0,0,0,0,0,0,0,0,0,28,
scooby_state_1146ba0|20|-31 28,0,0,0,0,0,0,0,0,0,0,0,0,0,0,28,
scooby_state_1146bd0|17|-31 28,0,0,0,0,0,0,0,0,0,0,0,0,0,0,28,
scooby_state_1146b00|52|9 28,0,0,0,0,0,0,0,0,0,0,0,0,0,0,28,
scooby_state_1146bd0|6|-22 28,0,0,0,0,0,0,0,0,0,0,0,0,0,0,28,
scooby_state_1146b00|56|9 28,0,0,0,0,0,0,0,0,0,0,0,0,0,0,28,
scooby_state_1146ba0|56|40 28,0,0,0,0,0,0,0,0,0,0,0,0,0,0,28,
scooby_state_1146b30|57|40 28,0,0,0,0,0,0,0,0,0,0,0,0,0,0,28,
scooby_state_1146bd0|61|40 28,0,0,0,0,0,0,0,0,0,0,0,0,0,0,28,
scooby_state_1146bd0|28|9 28,0,0,0,0,0,0,0,0,0,0,0,0,0,0,28,
scooby_state_1146ba0|36|-9 28,0,0,0,0,0,0,0,0,0,0,0,0,0,0,28,
scooby_state_1146ba0|23|-40 28,0,0,0,0,0,0,0,0,0,0,0,0,0,0,28,
scooby_state_1146b70|58|40 28,0,0,0,0,0,0,0,0,0,0,0,0,0,0,28,
scooby_state_1146ba0|38|9 28,0,0,0,0,0,0,0,0,0,0,0,0,0,0,28,
scooby_state_1146b00|41|40 28,0,0,0,0,0,0,0,0,0,0,0,0,0,0,28,
scooby_state_1146bd0|41|18 27,0,1,0,0,0,0,0,0,0,0,0,0,0,0,28,
scooby_state_1146b00|6|-4 28,0,0,0,0,0,0,0,0,0,0,0,0,0,0,28,
scooby_state_1146c00|48|9 28,0,0,0,0,0,0,0,0,0,0,0,0,0,0,28,
scooby_state_1146bd0|41|40 28,0,0,0,0,0,0,0,0,0,0,0,0,0,0,28,
scooby_state_1146b30|53|40 27,0,0,0,0,0,0,1,0,0,0,0,0,0,0,28,
scooby_state_1146ba0|49|-13 28,0,0,0,0,0,0,0,0,0,0,0,0,0,0,28,
scooby_state_1146ba0|58|9 28,0,0,0,0,0,0,0,0,0,0,0,0,0,0,28,
scooby_state_1146bd0|54|49 28,0,0,0,0,0,0,0,0,0,0,0,0,0,0,28,
scooby_state_1148120|10|1 28,0,0,0,0,0,0,0,0,0,0,0,0,0,0,28,
scooby_state_1146b00|10|-31 28,0,0,0,0,0,0,0,0,0,0,0,0,0,0,28,
scooby_state_1146b70|18|-31 28,0,0,0,0,0,0,0,0,0,0,0,0,0,0,28,
scooby_state_1147ef6|63|0 28,0,0,0,0,0,0,0,0,0,0,0,0,0,0,28,
scooby_state_1146b00|23|-31 28,0,0,0,0,0,0,0,0,0,0,0,0,0,0,28,
scooby_state_1146bd0|48|40 28,0,0,0,0,0,0,0,0,0,0,0,0,0,0,28,
scooby_state_1146b70|14|-31 28,0,0,0,0,0,0,0,0,0,0,0,0,0,0,28,
scooby_state_1146b00|63|40 28,0,0,0,0,0,0,0,0,0,0,0,0,0,0,28,
scooby_state_1146bd0|52|40 28,0,0,0,0,0,0,0,0,0,0,0,0,0,0,28,
scooby_state_1146b00|34|-22 28,0,0,0,0,0,0,0,0,0,0,0,0,0,0,28,
scooby_state_1146bd0|4|-31 28,0,0,0,0,0,0,0,0,0,0,0,0,0,0,28,
scooby_state_1146b30|17|-31 28,0,0,0,0,0,0,0,0,0,0,0,0,0,0,28,
scooby_state_1146b70|16|9 28,0,0,0,0,0,0,0,0,0,0,0,0,0,0,28,
scooby_state_11480c8|59|0 1,27,0,0,0,0,0,0,0,0,0,0,0,0,0,28,
scooby_state_1625ff2|27|-1 28,0,0,0,0,0,0,0,0,0,0,0,0,0,0,28,
scooby_state_1146b30|13|-31 28,0,0,0,0,0,0,0,0,0,0,0,0,0,0,28,
scooby_state_1146b70|63|40 28,0,0,0,0,0,0,0,0,0,0,0,0,0,0,28,
scooby_state_1146b30|44|40 28,0,0,0,0,0,0,0,0,0,0,0,0,0,0,28,
scooby_state_114817c|4|-15 28,0,0,0,0,0,0,0,0,0,0,0,0,0,0,28,
scooby_state_1146bd0|24|9 28,0,0,0,0,0,0,0,0,0,0,0,0,0,0,28,
scooby_state_1146b30|9|-31 28,0,0,0,0,0,0,0,0,0,0,0,0,0,0,28,
scooby_state_1148120|56|1 28,0,0,0,0,0,0,0,0,0,0,0,0,0,0,28,
scooby_state_1146bd0|12|-31 28,0,0,0,0,0,0,0,0,0,0,0,0,0,0,28,
scooby_state_1146bd0|8|-31 28,0,0,0,0,0,0,0,0,0,0,0,0,0,0,28,
scooby_state_1669245|3|0 28,0,0,0,0,0,0,0,0,0,0,0,0,0,0,28,
scooby_state_11480d4|15|-2 28,0,0,0,0,0,0,0,0,0,0,0,0,0,0,28,
scooby_state_1146b00|17|9 28,0,0,0,0,0,0,0,0,0,0,0,0,0,0,28,
scooby_state_1146ba0|62|9 27,1,0,0,0,0,0,0,0,0,0,0,0,0,0,28,
scooby_state_1146b30|4|-31 28,0,0,0,0,0,0,0,0,0,0,0,0,0,0,28,
scooby_state_166886d|59|3 28,0,0,0,0,0,0,0,0,0,0,0,0,0,0,28,
scooby_state_1148120|2|1 28,0,0,0,0,0,0,0,0,0,0,0,0,0,0,28,
scooby_state_1146ba0|60|40 28,0,0,0,0,0,0,0,0,0,0,0,0,0,0,28,
scooby_state_1146bd0|30|-31 28,0,0,0,0,0,0,0,0,0,0,0,0,0,0,28,
scooby_state_11480c8|0|0 1,27,0,0,0,0,0,0,0,0,0,0,0,0,0,28,
scooby_state_1146b30|49|40 28,0,0,0,0,0,0,0,0,0,0,0,0,0,0,28,
scooby_state_1146ba0|29|-31 28,0,0,0,0,0,0,0,0,0,0,0,0,0,0,28,
scooby_state_1148120|7|1 28,0,0,0,0,0,0,0,0,0,0,0,0,0,0,28,
scooby_state_1146b70|34|9 28,0,0,0,0,0,0,0,0,0,0,0,0,0,0,28,
scooby_state_1146b70|3|-31 28,0,0,0,0,0,0,0,0,0,0,0,0,0,0,28,
scooby_state_1148120|57|1 28,0,0,0,0,0,0,0,0,0,0,0,0,0,0,28,
scooby_state_1146b00|14|-31 28,0,0,0,0,0,0,0,0,0,0,0,0,0,0,28,
scooby_state_166c3a9|0|-43 28,0,0,0,0,0,0,0,0,0,0,0,0,0,0,28,
scooby_state_1625fb8|19|4 28,0,0,0,0,0,0,0,0,0,0,0,0,0,0,28,
scooby_state_1668898|10|-1 28,0,0,0,0,0,0,0,0,0,0,0,0,0,0,28,
scooby_state_1146bd0|45|18 28,0,0,0,0,0,0,0,0,0,0,0,0,0,0,28,
scooby_state_1146bd0|2|-22 28,0,0,0,0,0,0,0,0,0,0,0,0,0,0,28,
scooby_state_1146bd0|57|40 28,0,0,0,0,0,0,0,0,0,0,0,0,0,0,28,
scooby_state_1146b30|0|-31 28,0,0,0,0,0,0,0,0,0,0,0,0,0,0,28,
scooby_state_1148120|1|1 28,0,0,0,0,0,0,0,0,0,0,0,0,0,0,28,
scooby_state_1146c00|6|-31 27,0,0,0,0,0,0,0,1,0,0,0,0,0,0,28,
scooby_state_166875f|42|27 28,0,0,0,0,0,0,0,0,0,0,0,0,0,0,28,
scooby_state_1146b00|4|-13 28,0,0,0,0,0,0,0,0,0,0,0,0,0,0,28,
scooby_state_1146bd0|15|9 28,0,0,0,0,0,0,0,0,0,0,0,0,0,0,28,
scooby_state_1146b70|27|-31 28,0,0,0,0,0,0,0,0,0,0,0,0,0,0,28,
scooby_state_1147f79|29|-1 28,0,0,0,0,0,0,0,0,0,0,0,0,0,0,28,
scooby_state_1146ba0|12|-31 28,0,0,0,0,0,0,0,0,0,0,0,0,0,0,28,
scooby_state_1146b70|23|-31 28,0,0,0,0,0,0,0,0,0,0,0,0,0,0,28,
scooby_state_1146bd0|19|9 27,0,0,0,0,0,0,0,1,0,0,0,0,0,0,28,
scooby_state_16266ec|35|0 26,1,0,0,1,0,0,0,0,0,0,0,0,0,0,28,
scooby_state_1146ba0|34|9 28,0,0,0,0,0,0,0,0,0,0,0,0,0,0,28,
scooby_state_1146ba0|32|-9 28,0,0,0,0,0,0,0,0,0,0,0,0,0,0,28,
scooby_state_1146b00|61|9 28,0,0,0,0,0,0,0,0,0,0,0,0,0,0,28,
scooby_state_1146ba0|25|-31 28,0,0,0,0,0,0,0,0,0,0,0,0,0,0,28,
scooby_state_1148120|53|1 28,0,0,0,0,0,0,0,0,0,0,0,0,0,0,28,
scooby_state_1146b30|40|40 28,0,0,0,0,0,0,0,0,0,0,0,0,0,0,28,
scooby_state_1146b00|54|40 27,0,0,0,0,0,0,0,0,0,0,0,0,1,0,28,
scooby_state_1146bd0|63|49 28,0,0,0,0,0,0,0,0,0,0,0,0,0,0,28,
scooby_state_1146b30|2|-31 27,0,0,0,0,0,0,0,0,0,0,0,0,0,0,27,
scooby_state_1146bd0|16|9 27,0,0,0,0,0,0,0,0,0,0,0,0,0,0,27,
scooby_state_114aec0|59|1 27,0,0,0,0,0,0,0,0,0,0,0,0,0,0,27,
scooby_state_11480c8|53|1 1,26,0,0,0,0,0,0,0,0,0,0,0,0,0,27,
scooby_state_1146ba0|25|9 27,0,0,0,0,0,0,0,0,0,0,0,0,0,0,27,
scooby_state_11480c8|51|1 0,27,0,0,0,0,0,0,0,0,0,0,0,0,0,27,
scooby_state_1146c00|3|-31 27,0,0,0,0,0,0,0,0,0,0,0,0,0,0,27,
scooby_state_1146bd0|12|9 27,0,0,0,0,0,0,0,0,0,0,0,0,0,0,27,
scooby_state_1146c00|47|9 27,0,0,0,0,0,0,0,0,0,0,0,0,0,0,27,
scooby_state_1146ba0|32|-31 27,0,0,0,0,0,0,0,0,0,0,0,0,0,0,27,
scooby_state_1146b00|57|40 26,0,0,0,1,0,0,0,0,0,0,0,0,0,0,27,
scooby_state_11480c8|50|1 0,27,0,0,0,0,0,0,0,0,0,0,0,0,0,27,
scooby_state_1148120|6|1 27,0,0,0,0,0,0,0,0,0,0,0,0,0,0,27,
scooby_state_1146ba0|13|-40 27,0,0,0,0,0,0,0,0,0,0,0,0,0,0,27,
scooby_state_11480ad|4|1 27,0,0,0,0,0,0,0,0,0,0,0,0,0,0,27,
scooby_state_1146b00|7|-31 27,0,0,0,0,0,0,0,0,0,0,0,0,0,0,27,
scooby_state_11480c8|0|-63 0,27,0,0,0,0,0,0,0,0,0,0,0,0,0,27,
scooby_state_1146bd0|45|40 27,0,0,0,0,0,0,0,0,0,0,0,0,0,0,27,
scooby_state_11480ad|8|1 27,0,0,0,0,0,0,0,0,0,0,0,0,0,0,27,
scooby_state_1146bd0|18|-31 27,0,0,0,0,0,0,0,0,0,0,0,0,0,0,27,
scooby_state_1146ba0|14|-31 27,0,0,0,0,0,0,0,0,0,0,0,0,0,0,27,
scooby_state_1146bd0|40|40 27,0,0,0,0,0,0,0,0,0,0,0,0,0,0,27,
scooby_state_1146b00|53|9 27,0,0,0,0,0,0,0,0,0,0,0,0,0,0,27,
scooby_state_1146bd0|27|9 27,0,0,0,0,0,0,0,0,0,0,0,0,0,0,27,
scooby_state_1146bd0|25|9 27,0,0,0,0,0,0,0,0,0,0,0,0,0,0,27,
scooby_state_1148233|5|1 27,0,0,0,0,0,0,0,0,0,0,0,0,0,0,27,
scooby_state_1148233|4|3 26,1,0,0,0,0,0,0,0,0,0,0,0,0,0,27,
scooby_state_1148233|60|1 27,0,0,0,0,0,0,0,0,0,0,0,0,0,0,27,
scooby_state_1146bd0|26|9 27,0,0,0,0,0,0,0,0,0,0,0,0,0,0,27,
scooby_state_1146bd0|49|40 27,0,0,0,0,0,0,0,0,0,0,0,0,0,0,27,
scooby_state_114820e|45|1 27,0,0,0,0,0,0,0,0,0,0,0,0,0,0,27,
scooby_state_1146bd0|17|9 27,0,0,0,0,0,0,0,0,0,0,0,0,0,0,27,
scooby_state_11480c8|58|1 1,25,0,0,0,0,0,0,0,0,0,0,0,1,0,27,
scooby_state_114820e|48|1 27,0,0,0,0,0,0,0,0,0,0,0,0,0,0,27,
scooby_state_1146bd0|58|49 27,0,0,0,0,0,0,0,0,0,0,0,0,0,0,27,
scooby_state_1146c00|48|40 26,0,0,0,0,0,0,0,1,0,0,0,0,0,0,27,
scooby_state_1146ba0|26|9 27,0,0,0,0,0,0,0,0,0,0,0,0,0,0,27,
scooby_state_1146ba0|59|9 27,0,0,0,0,0,0,0,0,0,0,0,0,0,0,27,
scooby_state_1146ba0|33|-9 27,0,0,0,0,0,0,0,0,0,0,0,0,0,0,27,
scooby_state_1146bd0|27|-31 27,0,0,0,0,0,0,0,0,0,0,0,0,0,0,27,
scooby_state_11480ad|5|1 27,0,0,0,0,0,0,0,0,0,0,0,0,0,0,27,
scooby_state_1148233|47|1 27,0,0,0,0,0,0,0,0,0,0,0,0,0,0,27,
scooby_state_11480c8|55|1 1,26,0,0,0,0,0,0,0,0,0,0,0,0,0,27,
scooby_state_114820e|51|1 27,0,0,0,0,0,0,0,0,0,0,0,0,0,0,27,
scooby_state_1146b30|7|-31 27,0,0,0,0,0,0,0,0,0,0,0,0,0,0,27,
scooby_state_1146b00|44|9 27,0,0,0,0,0,0,0,0,0,0,0,0,0,0,27,
scooby_state_1146b00|12|-31 27,0,0,0,0,0,0,0,0,0,0,0,0,0,0,27,
scooby_state_1146bd0|54|40 27,0,0,0,0,0,0,0,0,0,0,0,0,0,0,27,
scooby_state_1146ba0|9|-31 27,0,0,0,0,0,0,0,0,0,0,0,0,0,0,27,
scooby_state_1146b00|49|9 26,0,0,0,0,0,0,0,0,1,0,0,0,0,0,27,
scooby_state_1146bd0|32|-31 27,0,0,0,0,0,0,0,0,0,0,0,0,0,0,27,
scooby_state_11480c8|57|1 1,26,0,0,0,0,0,0,0,0,0,0,0,0,0,27,
scooby_state_1146b00|4|-31 27,0,0,0,0,0,0,0,0,0,0,0,0,0,0,27,
scooby_state_1146b00|34|9 27,0,0,0,0,0,0,0,0,0,0,0,0,0,0,27,
scooby_state_1146b00|5|-4 27,0,0,0,0,0,0,0,0,0,0,0,0,0,0,27,
scooby_state_114832a|37|1 27,0,0,0,0,0,0,0,0,0,0,0,0,0,0,27,
scooby_state_1146bd0|56|49 27,0,0,0,0,0,0,0,0,0,0,0,0,0,0,27,
scooby_state_1146ba0|63|40 27,0,0,0,0,0,0,0,0,0,0,0,0,0,0,27,
scooby_state_114820e|46|1 27,0,0,0,0,0,0,0,0,0,0,0,0,0,0,27,
scooby_state_1146bd0|8|-13 27,0,0,0,0,0,0,0,0,0,0,0,0,0,0,27,
scooby_state_1146b30|47|40 27,0,0,0,0,0,0,0,0,0,0,0,0,0,0,27,
scooby_state_1146bd0|60|49 27,0,0,0,0,0,0,0,0,0,0,0,0,0,0,27,
scooby_state_1146b00|3|-31 27,0,0,0,0,0,0,0,0,0,0,0,0,0,0,27,
scooby_state_11480c8|46|1 0,27,0,0,0,0,0,0,0,0,0,0,0,0,0,27,
scooby_state_1148120|11|1 26,0,0,0,0,0,0,0,0,0,1,0,0,0,0,27,
scooby_state_1146b70|13|-31 27,0,0,0,0,0,0,0,0,0,0,0,0,0,0,27,
scooby_state_114820e|41|1 27,0,0,0,0,0,0,0,0,0,0,0,0,0,0,27,
scooby_state_1146ba0|40|40 27,0,0,0,0,0,0,0,0,0,0,0,0,0,0,27,
scooby_state_1148120|16|1 27,0,0,0,0,0,0,0,0,0,0,0,0,0,0,27,
scooby_state_1146ba0|20|-40 27,0,0,0,0,0,0,0,0,0,0,0,0,0,0,27,
scooby_state_1146ba0|29|-9 27,0,0,0,0,0,0,0,0,0,0,0,0,0,0,27,
scooby_state_114832a|32|1 27,0,0,0,0,0,0,0,0,0,0,0,0,0,0,27,
scooby_state_1146bd0|23|9 27,0,0,0,0,0,0,0,0,0,0,0,0,0,0,27,
scooby_state_1146ba0|30|-31 27,0,0,0,0,0,0,0,0,0,0,0,0,0,0,27,
scooby_state_11480ad|2|1 27,0,0,0,0,0,0,0,0,0,0,0,0,0,0,27,
scooby_state_11480c8|47|1 0,27,0,0,0,0,0,0,0,0,0,0,0,0,0,27,
scooby_state_1146c00|44|40 27,0,0,0,0,0,0,0,0,0,0,0,0,0,0,27,
scooby_state_114832a|29|1 27,0,0,0,0,0,0,0,0,0,0,0,0,0,0,27,
scooby_state_1146b70|19|-31 27,0,0,0,0,0,0,0,0,0,0,0,0,0,0,27,
scooby_state_1146b00|17|-31 27,0,0,0,0,0,0,0,0,0,0,0,0,0,0,27,
scooby_state_1146bd0|0|-22 27,0,0,0,0,0,0,0,0,0,0,0,0,0,0,27,
scooby_state_1146ba0|46|-13 27,0,0,0,0,0,0,0,0,0,0,0,0,0,0,27,
scooby_state_1146b00|56|40 27,0,0,0,0,0,0,0,0,0,0,0,0,0,0,27,
scooby_state_1148120|25|1 27,0,0,0,0,0,0,0,0,0,0,0,0,0,0,27,
scooby_state_1146bd0|14|-31 27,0,0,0,0,0,0,0,0,0,0,0,0,0,0,27,
scooby_state_1146b70|22|-31 27,0,0,0,0,0,0,0,0,0,0,0,0,0,0,27,
scooby_state_1148120|61|1 27,0,0,0,0,0,0,0,0,0,0,0,0,0,0,27,
scooby_state_1146c00|45|9 27,0,0,0,0,0,0,0,0,0,0,0,0,0,0,27,
scooby_state_114820e|47|1 27,0,0,0,0,0,0,0,0,0,0,0,0,0,0,27,
scooby_state_1146b70|15|-31 27,0,0,0,0,0,0,0,0,0,0,0,0,0,0,27,
scooby_state_1146b00|58|9 27,0,0,0,0,0,0,0,0,0,0,0,0,0,0,27,
scooby_state_1146b00|0|-31 27,0,0,0,0,0,0,0,0,0,0,0,0,0,0,27,
scooby_state_1146bd0|50|40 27,0,0,0,0,0,0,0,0,0,0,0,0,0,0,27,
scooby_state_1146b00|9|9 27,0,0,0,0,0,0,0,0,0,0,0,0,0,0,27,
scooby_state_1146b00|1|-13 27,0,0,0,0,0,0,0,0,0,0,0,0,0,0,27,
scooby_state_1146b30|48|40 27,0,0,0,0,0,0,0,0,0,0,0,0,0,0,27,
scooby_state_114832a|34|1 27,0,0,0,0,0,0,0,0,0,0,0,0,0,0,27,
scooby_state_1146b00|18|-31 27,0,0,0,0,0,0,0,0,0,0,0,0,0,0,27,
scooby_state_1146b00|40|40 27,0,0,0,0,0,0,0,0,0,0,0,0,0,0,27,
scooby_state_1146ba0|11|-40 27,0,0,0,0,0,0,0,0,0,0,0,0,0,0,27,
scooby_state_114820e|53|1 27,0,0,0,0,0,0,0,0,0,0,0,0,0,0,27,
scooby_state_1146bd0|20|-31 27,0,0,0,0,0,0,0,0,0,0,0,0,0,0,27,
scooby_state_1148120|52|1 27,0,0,0,0,0,0,0,0,0,0,0,0,0,0,27,
scooby_state_1146b00|25|-31 27,0,0,0,0,0,0,0,0,0,0,0,0,0,0,27,
scooby_state_1146bd0|14|9 27,0,0,0,0,0,0,0,0,0,0,0,0,0,0,27,
scooby_state_166bd44|40|0 27,0,0,0,0,0,0,0,0,0,0,0,0,0,0,27,
scooby_state_1146bd0|48|18 27,0,0,0,0,0,0,0,0,0,0,0,0,0,0,27,
scooby_state_1146bd0|29|-31 27,0,0,0,0,0,0,0,0,0,0,0,0,0,0,27,
scooby_state_11480c8|49|1 0,27,0,0,0,0,0,0,0,0,0,0,0,0,0,27,
scooby_state_11480ad|7|1 27,0,0,0,0,0,0,0,0,0,0,0,0,0,0,27,
scooby_state_11480ad|6|1 27,0,0,0,0,0,0,0,0,0,0,0,0,0,0,27,
scooby_state_1146bd0|22|9 27,0,0,0,0,0,0,0,0,0,0,0,0,0,0,27,
scooby_state_114832a|33|1 27,0,0,0,0,0,0,0,0,0,0,0,0,0,0,27,
scooby_state_1146b70|61|9 27,0,0,0,0,0,0,0,0,0,0,0,0,0,0,27,
scooby_state_1146ba0|27|-31 27,0,0,0,0,0,0,0,0,0,0,0,0,0,0,27,
scooby_state_1146ba0|63|9 27,0,0,0,0,0,0,0,0,0,0,0,0,0,0,27,
scooby_state_1148120|29|1 27,0,0,0,0,0,0,0,0,0,0,0,0,0,0,27,
scooby_state_1146ba0|12|-40 27,0,0,0,0,0,0,0,0,0,0,0,0,0,0,27,
scooby_state_1146bd0|47|40 27,0,0,0,0,0,0,0,0,0,0,0,0,0,0,27,
scooby_state_1146ba0|47|-13 27,0,0,0,0,0,0,0,0,0,0,0,0,0,0,27,
scooby_state_11480c8|54|1 1,26,0,0,0,0,0,0,0,0,0,0,0,0,0,27,
scooby_state_1146bd0|15|-31 27,0,0,0,0,0,0,0,0,0,0,0,0,0,0,27,
scooby_state_1146b00|43|40 27,0,0,0,0,0,0,0,0,0,0,0,0,0,0,27,
scooby_state_1146bd0|55|49 27,0,0,0,0,0,0,0,0,0,0,0,0,0,0,27,
scooby_state_1146ba0|13|-31 27,0,0,0,0,0,0,0,0,0,0,0,0,0,0,27,
scooby_state_1146bd0|63|40 27,0,0,0,0,0,0,0,0,0,0,0,0,0,0,27,
scooby_state_1146ba0|57|9 27,0,0,0,0,0,0,0,0,0,0,0,0,0,0,27,
scooby_state_11480c8|56|1 1,26,0,0,0,0,0,0,0,0,0,0,0,0,0,27,
scooby_state_1146bd0|16|-31 27,0,0,0,0,0,0,0,0,0,0,0,0,0,0,27,
scooby_state_1146bd0|47|18 27,0,0,0,0,0,0,0,0,0,0,0,0,0,0,27,
scooby_state_1146ba0|35|-9 27,0,0,0,0,0,0,0,0,0,0,0,0,0,0,27,
scooby_state_1146bd0|53|49 27,0,0,0,0,0,0,0,0,0,0,0,0,0,0,27,
scooby_state_1146ba0|8|-40 27,0,0,0,0,0,0,0,0,0,0,0,0,0,0,27,
scooby_state_1148120|20|1 27,0,0,0,0,0,0,0,0,0,0,0,0,0,0,27,
scooby_state_1146b00|16|9 27,0,0,0,0,0,0,0,0,0,0,0,0,0,0,27,
scooby_state_1146bd0|21|9 27,0,0,0,0,0,0,0,0,0,0,0,0,0,0,27,
scooby_state_166bd30|33|0 27,0,0,0,0,0,0,0,0,0,0,0,0,0,0,27,
scooby_state_1146c00|41|40 27,0,0,0,0,0,0,0,0,0,0,0,0,0,0,27,
scooby_state_1146ba0|17|-40 27,0,0,0,0,0,0,0,0,0,0,0,0,0,0,27,
scooby_state_1146b00|16|-31 27,0,0,0,0,0,0,0,0,0,0,0,0,0,0,27,
scooby_state_1146ba0|58|40 27,0,0,0,0,0,0,0,0,0,0,0,0,0,0,27,
scooby_state_1146bd0|3|-22 27,0,0,0,0,0,0,0,0,0,0,0,0,0,0,27,
scooby_state_1146bd0|11|-31 27,0,0,0,0,0,0,0,0,0,0,0,0,0,0,27,
scooby_state_114820e|42|1 27,0,0,0,0,0,0,0,0,0,0,0,0,0,0,27,
scooby_state_1146b00|22|-31 27,0,0,0,0,0,0,0,0,0,0,0,0,0,0,27,
scooby_state_1146b30|42|40 27,0,0,0,0,0,0,0,0,0,0,0,0,0,0,27,
scooby_state_114b600|24|1 27,0,0,0,0,0,0,0,0,0,0,0,0,0,0,27,
scooby_state_1146bd0|23|-31 27,0,0,0,0,0,0,0,0,0,0,0,0,0,0,27,
scooby_state_11480ad|3|1 27,0,0,0,0,0,0,0,0,0,0,0,0,0,0,27,
scooby_state_1146b30|41|9 27,0,0,0,0,0,0,0,0,0,0,0,0,0,0,27,
scooby_state_1146b30|3|-31 27,0,0,0,0,0,0,0,0,0,0,0,0,0,0,27,
scooby_state_1146bd0|4|-22 27,0,0,0,0,0,0,0,0,0,0,0,0,0,0,27,
scooby_state_114820e|52|1 27,0,0,0,0,0,0,0,0,0,0,0,0,0,0,27,
scooby_state_1146ba0|22|-31 27,0,0,0,0,0,0,0,0,0,0,0,0,0,0,27,
scooby_state_1146b00|41|9 27,0,0,0,0,0,0,0,0,0,0,0,0,0,0,27,
scooby_state_1148233|56|1 27,0,0,0,0,0,0,0,0,0,0,0,0,0,0,27,
scooby_state_1148233|59|3 26,1,0,0,0,0,0,0,0,0,0,0,0,0,0,27,
scooby_state_1146b00|11|9 27,0,0,0,0,0,0,0,0,0,0,0,0,0,0,27,
scooby_state_1146c00|47|40 27,0,0,0,0,0,0,0,0,0,0,0,0,0,0,27,
scooby_state_1146ba0|61|40 27,0,0,0,0,0,0,0,0,0,0,0,0,0,0,27,
scooby_state_1146c00|8|-31 26,0,0,1,0,0,0,0,0,0,0,0,0,0,0,27,
scooby_state_1146ba0|15|-40 27,0,0,0,0,0,0,0,0,0,0,0,0,0,0,27,
scooby_state_1146bd0|0|-31 27,0,0,0,0,0,0,0,0,0,0,0,0,0,0,27,
scooby_state_1148233|0|-63 27,0,0,0,0,0,0,0,0,0,0,0,0,0,0,27,
scooby_state_1146bd0|7|-13 27,0,0,0,0,0,0,0,0,0,0,0,0,0,0,27,
scooby_state_1146c00|7|-31 27,0,0,0,0,0,0,0,0,0,0,0,0,0,0,27,
scooby_state_1148233|50|3 26,1,0,0,0,0,0,0,0,0,0,0,0,0,0,27,
scooby_state_1146ba0|15|-31 27,0,0,0,0,0,0,0,0,0,0,0,0,0,0,27,
scooby_state_1146b00|11|-31 27,0,0,0,0,0,0,0,0,0,0,0,0,0,0,27,
scooby_state_1146b30|46|40 27,0,0,0,0,0,0,0,0,0,0,0,0,0,0,27,
scooby_state_114b444|17|1 27,0,0,0,0,0,0,0,0,0,0,0,0,0,0,27,
scooby_state_1146b70|21|-31 27,0,0,0,0,0,0,0,0,0,0,0,0,0,0,27,
scooby_state_1146ba0|17|-31 27,0,0,0,0,0,0,0,0,0,0,0,0,0,0,27,
scooby_state_1146c00|40|9 27,0,0,0,0,0,0,0,0,0,0,0,0,0,0,27,
scooby_state_1146ba0|8|-31 27,0,0,0,0,0,0,0,0,0,0,0,0,0,0,27,
scooby_state_11480c8|48|1 0,27,0,0,0,0,0,0,0,0,0,0,0,0,0,27,
scooby_state_1146b70|16|-31 27,0,0,0,0,0,0,0,0,0,0,0,0,0,0,27,
scooby_state_1146ba0|24|9 27,0,0,0,0,0,0,0,0,0,0,0,0,0,0,27,
scooby_state_1146bd0|9|-31 27,0,0,0,0,0,0,0,0,0,0,0,0,0,0,27,
scooby_state_1146b00|20|-31 26,0,0,0,0,0,0,0,0,0,0,0,1,0,0,27,
scooby_state_1146ba0|50|-13 27,0,0,0,0,0,0,0,0,0,0,0,0,0,0,27,
scooby_state_1146b30|6|-31 27,0,0,0,0,0,0,0,0,0,0,0,0,0,0,27,
scooby_state_1146ba0|57|40 27,0,0,0,0,0,0,0,0,0,0,0,0,0,0,27,
scooby_state_1146b70|19|9 27,0,0,0,0,0,0,0,0,0,0,0,0,0,0,27,
scooby_state_114820e|49|1 27,0,0,0,0,0,0,0,0,0,0,0,0,0,0,27,
scooby_state_1146b00|5|-31 27,0,0,0,0,0,0,0,0,0,0,0,0,0,0,27,
scooby_state_1146b70|26|-31 27,0,0,0,0,0,0,0,0,0,0,0,0,0,0,27,
scooby_state_1146b00|60|40 27,0,0,0,0,0,0,0,0,0,0,0,0,0,0,27,
scooby_state_1146bd0|51|49 27,0,0,0,0,0,0,0,0,0,0,0,0,0,0,27,
scooby_state_1148233|51|1 27,0,0,0,0,0,0,0,0,0,0,0,0,0,0,27,
scooby_state_1146b70|53|40 27,0,0,0,0,0,0,0,0,0,0,0,0,0,0,27,
scooby_state_1146bd0|52|49 27,0,0,0,0,0,0,0,0,0,0,0,0,0,0,27,
scooby_state_114832a|30|1 27,0,0,0,0,0,0,0,0,0,0,0,0,0,0,27,
scooby_state_114832a|31|1 27,0,0,0,0,0,0,0,0,0,0,0,0,0,0,27,
scooby_state_1146bd0|44|18 27,0,0,0,0,0,0,0,0,0,0,0,0,0,0,27,
scooby_state_1146b00|24|-31 27,0,0,0,0,0,0,0,0,0,0,0,0,0,0,27,
scooby_state_1146ba0|6|-40 27,0,0,0,0,0,0,0,0,0,0,0,0,0,0,27,
scooby_state_1146bd0|46|18 27,0,0,0,0,0,0,0,0,0,0,0,0,0,0,27,
scooby_state_1146bd0|53|40 27,0,0,0,0,0,0,0,0,0,0,0,0,0,0,27,
scooby_state_1146b00|57|9 27,0,0,0,0,0,0,0,0,0,0,0,0,0,0,27,
scooby_state_1146bd0|22|-31 27,0,0,0,0,0,0,0,0,0,0,0,0,0,0,27,
scooby_state_1146bd0|38|18 27,0,0,0,0,0,0,0,0,0,0,0,0,0,0,27,
scooby_state_114832a|35|1 27,0,0,0,0,0,0,0,0,0,0,0,0,0,0,27,
scooby_state_1148233|1|1 27,0,0,0,0,0,0,0,0,0,0,0,0,0,0,27,
scooby_state_1146bd0|62|40 27,0,0,0,0,0,0,0,0,0,0,0,0,0,0,27,
scooby_state_1146ba0|26|-31 27,0,0,0,0,0,0,0,0,0,0,0,0,0,0,27,
scooby_state_1146c00|40|40 27,0,0,0,0,0,0,0,0,0,0,0,0,0,0,27,
scooby_state_1146b00|8|-4 27,0,0,0,0,0,0,0,0,0,0,0,0,0,0,27,
scooby_state_1146b00|2|-31 27,0,0,0,0,0,0,0,0,0,0,0,0,0,0,27,
scooby_state_1146ba0|39|9 27,0,0,0,0,0,0,0,0,0,0,0,0,0,0,27,
scooby_state_114820e|43|1 27,0,0,0,0,0,0,0,0,0,0,0,0,0,0,27,
scooby_state_1146bd0|31|-31 27,0,0,0,0,0,0,0,0,0,0,0,0,0,0,27,
scooby_state_114820e|50|1 27,0,0,0,0,0,0,0,0,0,0,0,0,0,0,27,
scooby_state_114820e|38|1 27,0,0,0,0,0,0,0,0,0,0,0,0,0,0,27,
scooby_state_1148233|43|1 27,0,0,0,0,0,0,0,0,0,0,0,0,0,0,27,
scooby_state_1146b00|8|-31 27,0,0,0,0,0,0,0,0,0,0,0,0,0,0,27,
scooby_state_1146bd0|58|40 27,0,0,0,0,0,0,0,0,0,0,0,0,0,0,27,
scooby_state_1146b00|47|40 27,0,0,0,0,0,0,0,0,0,0,0,0,0,0,27,
scooby_state_1146b00|42|40 27,0,0,0,0,0,0,0,0,0,0,0,0,0,0,27,
scooby_state_1146ba0|31|-31 27,0,0,0,0,0,0,0,0,0,0,0,0,0,0,27,
scooby_state_1146b00|49|40 27,0,0,0,0,0,0,0,0,0,0,0,0,0,0,27,
scooby_state_1146ba0|33|9 27,0,0,0,0,0,0,0,0,0,0,0,0,0,0,27,
scooby_state_1146b70|61|40 27,0,0,0,0,0,0,0,0,0,0,0,0,0,0,27,
scooby_state_1146bd0|13|9 27,0,0,0,0,0,0,0,0,0,0,0,0,0,0,27,
scooby_state_16267b0|18|0 27,0,0,0,0,0,0,0,0,0,0,0,0,0,0,27,
scooby_state_1146bd0|39|18 27,0,0,0,0,0,0,0,0,0,0,0,0,0,0,27,
scooby_state_1146ba0|55|40 27,0,0,0,0,0,0,0,0,0,0,0,0,0,0,27,
scooby_state_1146ba0|22|-40 27,0,0,0,0,0,0,0,0,0,0,0,0,0,0,27,
scooby_state_1146ba0|11|-31 27,0,0,0,0,0,0,0,0,0,0,0,0,0,0,27,
scooby_state_1146ba0|9|-40 27,0,0,0,0,0,0,0,0,0,0,0,0,0,0,27,
scooby_state_1146c00|43|40 27,0,0,0,0,0,0,0,0,0,0,0,0,0,0,27,
scooby_state_1146c00|45|40 26,1,0,0,0,0,0,0,0,0,0,0,0,0,0,27,
scooby_state_1148120|5|1 27,0,0,0,0,0,0,0,0,0,0,0,0,0,0,27,
scooby_state_1146c00|5|-31 27,0,0,0,0,0,0,0,0,0,0,0,0,0,0,27,
scooby_state_1146b70|10|-31 27,0,0,0,0,0,0,0,0,0,0,0,0,0,0,27,
scooby_state_114832a|36|1 27,0,0,0,0,0,0,0,0,0,0,0,0,0,0,27,
scooby_state_1146ba0|30|-9 27,0,0,0,0,0,0,0,0,0,0,0,0,0,0,27,
scooby_state_1146ba0|45|40 27,0,0,0,0,0,0,0,0,0,0,0,0,0,0,27,
scooby_state_1146b00|45|40 26,1,0,0,0,0,0,0,0,0,0,0,0,0,0,27,
scooby_state_1146bd0|61|49 27,0,0,0,0,0,0,0,0,0,0,0,0,0,0,27,
scooby_state_1146ba0|48|40 27,0,0,0,0,0,0,0,0,0,0,0,0,0,0,27,
scooby_state_1146b00|51|9 27,0,0,0,0,0,0,0,0,0,0,0,0,0,0,27,
scooby_state_1146b70|14|9 27,0,0,0,0,0,0,0,0,0,0,0,0,0,0,27,
scooby_state_1146bd0|40|18 27,0,0,0,0,0,0,0,0,0,0,0,0,0,0,27,
scooby_state_1146b00|9|-31 27,0,0,0,0,0,0,0,0,0,0,0,0,0,0,27,
scooby_state_1146b00|12|9 27,0,0,0,0,0,0,0,0,0,0,0,0,0,0,27,
scooby_state_1146b00|51|40 27,0,0,0,0,0,0,0,0,0,0,0,0,0,0,27,
scooby_state_1146b00|60|9 27,0,0,0,0,0,0,0,0,0,0,0,0,0,0,27,
scooby_state_1146c00|1|-31 27,0,0,0,0,0,0,0,0,0,0,0,0,0,0,27,
scooby_state_1146b00|48|40 27,0,0,0,0,0,0,0,0,0,0,0,0,0,0,27,
scooby_state_11480ad|1|1 26,0,0,0,0,0,0,0,0,0,0,0,0,0,1,27,
scooby_state_1146bd0|1|-22 27,0,0,0,0,0,0,0,0,0,0,0,0,0,0,27,
scooby_state_1146b00|62|9 27,0,0,0,0,0,0,0,0,0,0,0,0,0,0,27,
scooby_state_1146ba0|53|40 27,0,0,0,0,0,0,0,0,0,0,0,0,0,0,27,
scooby_state_11480c8|59|1 0,27,0,0,0,0,0,0,0,0,0,0,0,0,0,27,
scooby_state_1146ba0|19|-31 27,0,0,0,0,0,0,0,0,0,0,0,0,0,0,27,
scooby_state_1146bd0|24|-31 27,0,0,0,0,0,0,0,0,0,0,0,0,0,0,27,
scooby_state_1146c00|4|-31 27,0,0,0,0,0,0,0,0,0,0,0,0,0,0,27,
scooby_state_1146b70|13|9 27,0,0,0,0,0,0,0,0,0,0,0,0,0,0,27,
scooby_state_1146b00|53|40 27,0,0,0,0,0,0,0,0,0,0,0,0,0,0,27,
scooby_state_1146b70|24|-31 27,0,0,0,0,0,0,0,0,0,0,0,0,0,0,27,
scooby_state_16267b8|20|0 27,0,0,0,0,0,0,0,0,0,0,0,0,0,0,27,
scooby_state_1146bd0|57|49 27,0,0,0,0,0,0,0,0,0,0,0,0,0,0,27,
scooby_state_1146b00|3|-13 27,0,0,0,0,0,0,0,0,0,0,0,0,0,0,27,
scooby_state_1146c00|0|-31 27,0,0,0,0,0,0,0,0,0,0,0,0,0,0,27,
scooby_state_1146b70|60|40 27,0,0,0,0,0,0,0,0,0,0,0,0,0,0,27,
scooby_state_114820e|40|1 27,0,0,0,0,0,0,0,0,0,0,0,0,0,0,27,
scooby_state_1146b00|14|9 27,0,0,0,0,0,0,0,0,0,0,0,0,0,0,27,
scooby_state_1146b00|44|40 27,0,0,0,0,0,0,0,0,0,0,0,0,0,0,27,
scooby_state_114820e|44|1 27,0,0,0,0,0,0,0,0,0,0,0,0,0,0,27,
scooby_state_1146b30|8|-31 27,0,0,0,0,0,0,0,0,0,0,0,0,0,0,27,
scooby_state_1146b00|52|40 27,0,0,0,0,0,0,0,0,0,0,0,0,0,0,27,
scooby_state_1146bd0|18|9 27,0,0,0,0,0,0,0,0,0,0,0,0,0,0,27,
scooby_state_1146bd0|51|40 27,0,0,0,0,0,0,0,0,0,0,0,0,0,0,27,
scooby_state_1146b00|2|-13 27,0,0,0,0,0,0,0,0,0,0,0,0,0,0,27,
scooby_state_1146b00|62|40 27,0,0,0,0,0,0,0,0,0,0,0,0,0,0,27,
scooby_state_1146b00|58|40 27,0,0,0,0,0,0,0,0,0,0,0,0,0,0,27,
scooby_state_1146bd0|62|49 27,0,0,0,0,0,0,0,0,0,0,0,0,0,0,27,
scooby_state_1146ba0|28|-31 27,0,0,0,0,0,0,0,0,0,0,0,0,0,0,27,
scooby_state_166c390|6|-4 27,0,0,0,0,0,0,0,0,0,0,0,0,0,0,27,
scooby_state_1146ba0|61|9 27,0,0,0,0,0,0,0,0,0,0,0,0,0,0,27,
scooby_state_1146ba0|52|-4 27,0,0,0,0,0,0,0,0,0,0,0,0,0,0,27,
scooby_state_1146ba0|56|9 27,0,0,0,0,0,0,0,0,0,0,0,0,0,0,27,
scooby_state_1146b70|20|-31 27,0,0,0,0,0,0,0,0,0,0,0,0,0,0,27,
scooby_state_1146bd0|60|40 27,0,0,0,0,0,0,0,0,0,0,0,0,0,0,27,
scooby_state_1146b30|54|40 27,0,0,0,0,0,0,0,0,0,0,0,0,0,0,27,
scooby_state_1146b00|7|-4 27,0,0,0,0,0,0,0,0,0,0,0,0,0,0,27,
scooby_state_1146bd0|5|-31 27,0,0,0,0,0,0,0,0,0,0,0,0,0,0,27,
scooby_state_1146b30|43|40 27,0,0,0,0,0,0,0,0,0,0,0,0,0,0,27,
scooby_state_1146bd0|9|9 27,0,0,0,0,0,0,0,0,0,0,0,0,0,0,27,
scooby_state_1146ba0|18|-31 27,0,0,0,0,0,0,0,0,0,0,0,0,0,0,27,
scooby_state_1146bd0|56|40 27,0,0,0,0,0,0,0,0,0,0,0,0,0,0,27,
scooby_state_1146bd0|42|18 27,0,0,0,0,0,0,0,0,0,0,0,0,0,0,27,
scooby_state_1146b70|62|9 27,0,0,0,0,0,0,0,0,0,0,0,0,0,0,27,
scooby_state_1146b70|44|40 27,0,0,0,0,0,0,0,0,0,0,0,0,0,0,27,
scooby_state_1146bd0|19|-31 27,0,0,0,0,0,0,0,0,0,0,0,0,0,0,27,
scooby_state_1146b00|33|9 27,0,0,0,0,0,0,0,0,0,0,0,0,0,0,27,
scooby_state_11480c8|52|1 1,26,0,0,0,0,0,0,0,0,0,0,0,0,0,27,
scooby_state_1146ba0|35|9 27,0,0,0,0,0,0,0,0,0,0,0,0,0,0,27,
scooby_state_1146b00|54|9 27,0,0,0,0,0,0,0,0,0,0,0,0,0,0,27,
scooby_state_1146b00|21|-31 27,0,0,0,0,0,0,0,0,0,0,0,0,0,0,27,
scooby_state_1146ba0|60|9 27,0,0,0,0,0,0,0,0,0,0,0,0,0,0,27,
scooby_state_1146ba0|16|-40 27,0,0,0,0,0,0,0,0,0,0,0,0,0,0,27,
scooby_state_1146bd0|43|18 27,0,0,0,0,0,0,0,0,0,0,0,0,0,0,27,
scooby_state_1146b30|12|-31 27,0,0,0,0,0,0,0,0,0,0,0,0,0,0,27,
scooby_state_1146ba0|53|-4 27,0,0,0,0,0,0,0,0,0,0,0,0,0,0,27,
scooby_state_1146bd0|25|-31 27,0,0,0,0,0,0,0,0,0,0,0,0,0,0,27,
scooby_state_1146ba0|34|-9 27,0,0,0,0,0,0,0,0,0,0,0,0,0,0,27,
scooby_state_1146ba0|31|-9 26,0,0,0,0,0,0,0,0,0,0,0,1,0,0,27,
scooby_state_1146b00|61|40 27,0,0,0,0,0,0,0,0,0,0,0,0,0,0,27,
scooby_state_1669cd1|10|-1 27,0,0,0,0,0,0,0,0,0,0,0,0,0,0,27,
scooby_state_114820e|39|1 27,0,0,0,0,0,0,0,0,0,0,0,0,0,0,27,
scooby_state_1146bd0|49|49 27,0,0,0,0,0,0,0,0,0,0,0,0,0,0,27,
scooby_state_1146bd0|5|-22 27,0,0,0,0,0,0,0,0,0,0,0,0,0,0,27,
scooby_state_114dcc1|51|1 27,0,0,0,0,0,0,0,0,0,0,0,0,0,0,27,
scooby_state_1146ba0|54|40 27,0,0,0,0,0,0,0,0,0,0,0,0,0,0,27,
scooby_state_1146bd0|7|-31 26,0,0,0,0,0,1,0,0,0,0,0,0,0,0,27,
scooby_state_1146ba0|24|-31 27,0,0,0,0,0,0,0,0,0,0,0,0,0,0,27,
scooby_state_1146ba0|23|-31 27,0,0,0,0,0,0,0,0,0,0,0,0,0,0,27,
scooby_state_1146ba0|18|-40 27,0,0,0,0,0,0,0,0,0,0,0,0,0,0,27,
scooby_state_1146ba0|51|-4 27,0,0,0,0,0,0,0,0,0,0,0,0,0,0,27,
scooby_state_1146ba0|41|40 27,0,0,0,0,0,0,0,0,0,0,0,0,0,0,27,
scooby_state_1146bd0|28|-31 27,0,0,0,0,0,0,0,0,0,0,0,0,0,0,27,
scooby_state_1146b70|18|9 27,0,0,0,0,0,0,0,0,0,0,0,0,0,0,27,
scooby_state_1146b70|42|40 27,0,0,0,0,0,0,0,0,0,0,0,0,0,0,27,
scooby_state_1146b30|54|9 27,0,0,0,0,0,0,0,0,0,0,0,0,0,0,27,
scooby_state_1146bd0|10|9 27,0,0,0,0,0,0,0,0,0,0,0,0,0,0,27,
scooby_state_1146bd0|10|-31 27,0,0,0,0,0,0,0,0,0,0,0,0,0,0,27,
scooby_state_1146ba0|36|9 27,0,0,0,0,0,0,0,0,0,0,0,0,0,0,27,
scooby_state_1146ba0|62|40 27,0,0,0,0,0,0,0,0,0,0,0,0,0,0,27,
scooby_state_1146ba0|7|-40 27,0,0,0,0,0,0,0,0,0,0,0,0,0,0,27,
scooby_state_1146b00|13|-31 27,0,0,0,0,0,0,0,0,0,0,0,0,0,0,27,
scooby_state_1146ba0|48|-13 27,0,0,0,0,0,0,0,0,0,0,0,0,0,0,27,
scooby_state_1669bfe|11|0 27,0,0,0,0,0,0,0,0,0,0,0,0,0,0,27,
scooby_state_1146ba0|55|9 27,0,0,0,0,0,0,0,0,0,0,0,0,0,0,27,
scooby_state_1146ba0|21|-40 27,0,0,0,0,0,0,0,0,0,0,0,0,0,0,27,
scooby_state_1146b70|62|40 27,0,0,0,0,0,0,0,0,0,0,0,0,0,0,27,
scooby_state_16800e5|3|1 26,0,0,0,0,0,0,0,0,0,0,0,0,0,0,26,
scooby_state_1146b30|50|9 26,0,0,0,0,0,0,0,0,0,0,0,0,0,0,26,
scooby_state_1146bd0|6|-31 26,0,0,0,0,0,0,0,0,0,0,0,0,0,0,26,
scooby_state_1146b70|41|40 26,0,0,0,0,0,0,0,0,0,0,0,0,0,0,26,
scooby_state_168010f|56|1 26,0,0,0,0,0,0,0,0,0,0,0,0,0,0,26,
scooby_state_1680117|10|1 26,0,0,0,0,0,0,0,0,0,0,0,0,0,0,26,
scooby_state_1146c00|42|1 26,0,0,0,0,0,0,0,0,0,0,0,0,0,0,26,
scooby_state_1146bd0|59|40 26,0,0,0,0,0,0,0,0,0,0,0,0,0,0,26,
scooby_state_1626551|44|1 26,0,0,0,0,0,0,0,0,0,0,0,0,0,0,26,
scooby_state_1625b33|36|1 26,0,0,0,0,0,0,0,0,0,0,0,0,0,0,26,
scooby_state_1146ba0|59|40 26,0,0,0,0,0,0,0,0,0,0,0,0,0,0,26,
scooby_state_1146c00|41|8 26,0,0,0,0,0,0,0,0,0,0,0,0,0,0,26,
scooby_state_1148120|15|1 26,0,0,0,0,0,0,0,0,0,0,0,0,0,0,26,
scooby_state_1148233|38|1 26,0,0,0,0,0,0,0,0,0,0,0,0,0,0,26,
scooby_state_1680117|57|1 26,0,0,0,0,0,0,0,0,0,0,0,0,0,0,26,
scooby_state_1680117|43|1 26,0,0,0,0,0,0,0,0,0,0,0,0,0,0,26,
scooby_state_1146b00|63|9 25,0,0,0,0,0,0,1,0,0,0,0,0,0,0,26,
scooby_state_16800e5|34|1 26,0,0,0,0,0,0,0,0,0,0,0,0,0,0,26,
scooby_state_16800e5|27|1 26,0,0,0,0,0,0,0,0,0,0,0,0,0,0,26,
scooby_state_16800e5|60|1 26,0,0,0,0,0,0,0,0,0,0,0,0,0,0,26,
scooby_state_1148233|37|3 26,0,0,0,0,0,0,0,0,0,0,0,0,0,0,26,
scooby_state_16800ed|52|1 26,0,0,0,0,0,0,0,0,0,0,0,0,0,0,26,
scooby_state_1680117|17|1 25,0,0,0,0,0,0,0,0,0,0,0,0,0,0,25,
scooby_state_16800ed|38|1 25,0,0,0,0,0,0,0,0,0,0,0,0,0,0,25,
scooby_state_16800e2|25|1 25,0,0,0,0,0,0,0,0,0,0,0,0,0,0,25,
scooby_state_16800e2|44|1 24,0,0,0,0,0,0,0,0,0,0,1,0,0,0,25,
scooby_state_16800ed|14|1 25,0,0,0,0,0,0,0,0,0,0,0,0,0,0,25,
scooby_state_16800e5|20|1 25,0,0,0,0,0,0,0,0,0,0,0,0,0,0,25,
scooby_state_168010f|6|1 25,0,0,0,0,0,0,0,0,0,0,0,0,0,0,25,
scooby_state_16800e5|10|1 25,0,0,0,0,0,0,0,0,0,0,0,0,0,0,25,
scooby_state_1146b70|50|9 25,0,0,0,0,0,0,0,0,0,0,0,0,0,0,25,
scooby_state_168010f|39|1 25,0,0,0,0,0,0,0,0,0,0,0,0,0,0,25,
scooby_state_16800e2|51|1 25,0,0,0,0,0,0,0,0,0,0,0,0,0,0,25,
scooby_state_1146bd0|37|9 25,0,0,0,0,0,0,0,0,0,0,0,0,0,0,25,
scooby_state_1147f19|5|0 25,0,0,0,0,0,0,0,0,0,0,0,0,0,0,25,
scooby_state_1146b30|58|9 24,1,0,0,0,0,0,0,0,0,0,0,0,0,0,25,
scooby_state_1146b00|55|9 25,0,0,0,0,0,0,0,0,0,0,0,0,0,0,25,
scooby_state_1150545|21|1 25,0,0,0,0,0,0,0,0,0,0,0,0,0,0,25,
scooby_state_16800e2|11|1 25,0,0,0,0,0,0,0,0,0,0,0,0,0,0,25,
scooby_state_168010f|25|1 25,0,0,0,0,0,0,0,0,0,0,0,0,0,0,25,
scooby_state_16800ed|21|1 25,0,0,0,0,0,0,0,0,0,0,0,0,0,0,25,
scooby_state_16800e2|18|1 25,0,0,0,0,0,0,0,0,0,0,0,0,0,0,25,
scooby_state_166886d|22|3 24,0,0,0,0,0,0,0,0,0,0,0,0,0,0,24,
scooby_state_166bd59|26|2 24,0,0,0,0,0,0,0,0,0,0,0,0,0,0,24,
scooby_state_1146b70|39|5 24,0,0,0,0,0,0,0,0,0,0,0,0,0,0,24,
scooby_state_1625b33|39|1 24,0,0,0,0,0,0,0,0,0,0,0,0,0,0,24,
scooby_state_1146b00|0|-13 24,0,0,0,0,0,0,0,0,0,0,0,0,0,0,24,
scooby_state_1625b33|40|7 24,0,0,0,0,0,0,0,0,0,0,0,0,0,0,24,
scooby_state_1146b00|39|5 24,0,0,0,0,0,0,0,0,0,0,0,0,0,0,24,
scooby_state_1148233|41|3 23,1,0,0,0,0,0,0,0,0,0,0,0,0,0,24,
scooby_state_1148120|48|1 24,0,0,0,0,0,0,0,0,0,0,0,0,0,0,24,
scooby_state_1148120|55|2 24,0,0,0,0,0,0,0,0,0,0,0,0,0,0,24,
scooby_state_1148120|19|1 24,0,0,0,0,0,0,0,0,0,0,0,0,0,0,24,
scooby_state_168010f|63|1 24,0,0,0,0,0,0,0,0,0,0,0,0,0,0,24,
scooby_state_1146b00|34|4 24,0,0,0,0,0,0,0,0,0,0,0,0,0,0,24,
scooby_state_1146b70|34|4 24,0,0,0,0,0,0,0,0,0,0,0,0,0,0,24,
scooby_state_1146b30|45|9 24,0,0,0,0,0,0,0,0,0,0,0,0,0,0,24,
scooby_state_166c3a9|37|0 24,0,0,0,0,0,0,0,0,0,0,0,0,0,0,24,
scooby_state_1148233|42|1 24,0,0,0,0,0,0,0,0,0,0,0,0,0,0,24,
scooby_state_114c3a0|11|1 23,0,0,0,0,0,0,0,0,0,0,0,0,0,0,23,
scooby_state_1680117|3|1 23,0,0,0,0,0,0,0,0,0,0,0,0,0,0,23,
scooby_state_114c3a0|56|1 23,0,0,0,0,0,0,0,0,0,0,0,0,0,0,23,
scooby_state_1146b30|53|9 23,0,0,0,0,0,0,0,0,0,0,0,0,0,0,23,
scooby_state_1669e0e|27|1 23,0,0,0,0,0,0,0,0,0,0,0,0,0,0,23,
scooby_state_1148120|34|1 23,0,0,0,0,0,0,0,0,0,0,0,0,0,0,23,
scooby_state_1148120|24|1 23,0,0,0,0,0,0,0,0,0,0,0,0,0,0,23,
scooby_state_1680117|50|1 23,0,0,0,0,0,0,0,0,0,0,0,0,0,0,23,
scooby_state_1148120|23|3 23,0,0,0,0,0,0,0,0,0,0,0,0,0,0,23,
scooby_state_114c3a0|18|1 23,0,0,0,0,0,0,0,0,0,0,0,0,0,0,23,
scooby_state_114c3a0|37|1 23,0,0,0,0,0,0,0,0,0,0,0,0,0,0,23,
scooby_state_16800ed|7|1 23,0,0,0,0,0,0,0,0,0,0,0,0,0,0,23,
scooby_state_1146b70|49|40 23,0,0,0,0,0,0,0,0,0,0,0,0,0,0,23,
scooby_state_114c3a0|36|1 22,0,0,0,0,0,0,0,0,0,0,0,0,0,0,22,
scooby_state_114c3a0|1|1 22,0,0,0,0,0,0,0,0,0,0,0,0,0,0,22,
scooby_state_114c3a0|39|1 22,0,0,0,0,0,0,0,0,0,0,0,0,0,0,22,
scooby_state_114c3a0|46|1 22,0,0,0,0,0,0,0,0,0,0,0,0,0,0,22,
scooby_state_114c3a0|19|1 22,0,0,0,0,0,0,0,0,0,0,0,0,0,0,22,
scooby_state_114c3a0|38|1 22,0,0,0,0,0,0,0,0,0,0,0,0,0,0,22,
scooby_state_114c3a0|57|1 22,0,0,0,0,0,0,0,0,0,0,0,0,0,0,22,
scooby_state_114c3a0|47|1 22,0,0,0,0,0,0,0,0,0,0,0,0,0,0,22,
scooby_state_1146bd0|36|9 22,0,0,0,0,0,0,0,0,0,0,0,0,0,0,22,
scooby_state_114c3a0|40|1 22,0,0,0,0,0,0,0,0,0,0,0,0,0,0,22,
scooby_state_114c3a0|21|1 22,0,0,0,0,0,0,0,0,0,0,0,0,0,0,22,
scooby_state_114c3a0|20|1 22,0,0,0,0,0,0,0,0,0,0,0,0,0,0,22,
scooby_state_114c3a0|14|1 22,0,0,0,0,0,0,0,0,0,0,0,0,0,0,22,
scooby_state_1146bd0|35|9 22,0,0,0,0,0,0,0,0,0,0,0,0,0,0,22,
scooby_state_114c3a0|25|1 22,0,0,0,0,0,0,0,0,0,0,0,0,0,0,22,
scooby_state_114c3a0|33|1 22,0,0,0,0,0,0,0,0,0,0,0,0,0,0,22,
scooby_state_114c3a0|35|1 22,0,0,0,0,0,0,0,0,0,0,0,0,0,0,22,
scooby_state_1148233|46|3 21,1,0,0,0,0,0,0,0,0,0,0,0,0,0,22,
scooby_state_114c3a0|17|1 22,0,0,0,0,0,0,0,0,0,0,0,0,0,0,22,
scooby_state_1148120|4|2 22,0,0,0,0,0,0,0,0,0,0,0,0,0,0,22,
scooby_state_16800e5|53|1 22,0,0,0,0,0,0,0,0,0,0,0,0,0,0,22,
scooby_state_166888a|59|33 22,0,0,0,0,0,0,0,0,0,0,0,0,0,0,22,
scooby_state_114c3a0|63|1 22,0,0,0,0,0,0,0,0,0,0,0,0,0,0,22,
scooby_state_114c3a0|26|1 22,0,0,0,0,0,0,0,0,0,0,0,0,0,0,22,
scooby_state_114c3a0|54|1 22,0,0,0,0,0,0,0,0,0,0,0,0,0,0,22,
scooby_state_16800ed|45|1 22,0,0,0,0,0,0,0,0,0,0,0,0,0,0,22,
scooby_state_114c3a0|12|1 22,0,0,0,0,0,0,0,0,0,0,0,0,0,0,22,
scooby_state_114c3a0|2|1 22,0,0,0,0,0,0,0,0,0,0,0,0,0,0,22,
scooby_state_114c3a0|55|1 22,0,0,0,0,0,0,0,0,0,0,0,0,0,0,22,
scooby_state_114c3a0|4|1 22,0,0,0,0,0,0,0,0,0,0,0,0,0,0,22,
scooby_state_114c3a0|49|1 22,0,0,0,0,0,0,0,0,0,0,0,0,0,0,22,
scooby_state_1146b30|57|9 22,0,0,0,0,0,0,0,0,0,0,0,0,0,0,22,
scooby_state_1146bd0|41|0 22,0,0,0,0,0,0,0,0,0,0,0,0,0,0,22,
scooby_state_1625b33|34|1 22,0,0,0,0,0,0,0,0,0,0,0,0,0,0,22,
scooby_state_114c3a0|32|1 22,0,0,0,0,0,0,0,0,0,0,0,0,0,0,22,
scooby_state_114c3a0|44|1 22,0,0,0,0,0,0,0,0,0,0,0,0,0,0,22,
scooby_state_1668861|26|-1 22,0,0,0,0,0,0,0,0,0,0,0,0,0,0,22,
scooby_state_114c3a0|42|1 22,0,0,0,0,0,0,0,0,0,0,0,0,0,0,22,
scooby_state_1146ba0|43|40 22,0,0,0,0,0,0,0,0,0,0,0,0,0,0,22,
scooby_state_114c3a0|45|1 22,0,0,0,0,0,0,0,0,0,0,0,0,0,0,22,
scooby_state_114c3a0|58|1 22,0,0,0,0,0,0,0,0,0,0,0,0,0,0,22,
scooby_state_114c3a0|59|1 22,0,0,0,0,0,0,0,0,0,0,0,0,0,0,22,
scooby_state_114c3a0|43|1 21,0,0,0,0,0,0,0,0,0,0,0,0,0,0,21,
scooby_state_114c3a0|3|1 21,0,0,0,0,0,0,0,0,0,0,0,0,0,0,21,
scooby_state_114dd2f|30|1 21,0,0,0,0,0,0,0,0,0,0,0,0,0,0,21,
scooby_state_16800e2|58|1 21,0,0,0,0,0,0,0,0,0,0,0,0,0,0,21,
scooby_state_114dce8|35|1 21,0,0,0,0,0,0,0,0,0,0,0,0,0,0,21,
scooby_state_114c3a0|15|1 21,0,0,0,0,0,0,0,0,0,0,0,0,0,0,21,
scooby_state_1146b70|54|40 21,0,0,0,0,0,0,0,0,0,0,0,0,0,0,21,
scooby_state_114ad8a|56|1 21,0,0,0,0,0,0,0,0,0,0,0,0,0,0,21,
scooby_state_114ef54|46|1 21,0,0,0,0,0,0,0,0,0,0,0,0,0,0,21,
scooby_state_1146b70|48|40 21,0,0,0,0,0,0,0,0,0,0,0,0,0,0,21,
scooby_state_114c3a0|61|1 21,0,0,0,0,0,0,0,0,0,0,0,0,0,0,21,
scooby_state_114ad8a|49|1 21,0,0,0,0,0,0,0,0,0,0,0,0,0,0,21,
scooby_state_114ef54|20|1 21,0,0,0,0,0,0,0,0,0,0,0,0,0,0,21,
scooby_state_114f140|16|1 21,0,0,0,0,0,0,0,0,0,0,0,0,0,0,21,
scooby_state_114d6a8|16|1 18,3,0,0,0,0,0,0,0,0,0,0,0,0,0,21,
scooby_state_114c3a0|24|1 21,0,0,0,0,0,0,0,0,0,0,0,0,0,0,21,
scooby_state_114c3a0|8|1 21,0,0,0,0,0,0,0,0,0,0,0,0,0,0,21,
scooby_state_114ef54|27|1 21,0,0,0,0,0,0,0,0,0,0,0,0,0,0,21,
scooby_state_114c3a0|51|1 21,0,0,0,0,0,0,0,0,0,0,0,0,0,0,21,
scooby_state_114c3a0|53|1 21,0,0,0,0,0,0,0,0,0,0,0,0,0,0,21,
scooby_state_114c3a0|6|1 21,0,0,0,0,0,0,0,0,0,0,0,0,0,0,21,
scooby_state_114f140|23|1 21,0,0,0,0,0,0,0,0,0,0,0,0,0,0,21,
scooby_state_114b3d6|37|1 21,0,0,0,0,0,0,0,0,0,0,0,0,0,0,21,
[...]
scooby_state_114c570|58|0 1,0,0,0,0,0,0,0,0,0,0,0,0,0,0,1,
scooby_state_114dce8|15|-48 1,0,0,0,0,0,0,0,0,0,0,0,0,0,0,1,
scooby_state_114cbc2|37|3 1,0,0,0,0,0,0,0,0,0,0,0,0,0,0,1,
scooby_state_166c3a9|12|6 0,1,0,0,0,0,0,0,0,0,0,0,0,0,0,1,
scooby_state_46f013|37|-5 1,0,0,0,0,0,0,0,0,0,0,0,0,0,0,1,
scooby_state_114cad1|56|0 1,0,0,0,0,0,0,0,0,0,0,0,0,0,0,1,
scooby_state_114c3a8|44|1 1,0,0,0,0,0,0,0,0,0,0,0,0,0,0,1,
scooby_state_1146ba0|26|4 1,0,0,0,0,0,0,0,0,0,0,0,0,0,0,1,
scooby_state_114c0ae|42|-7 1,0,0,0,0,0,0,0,0,0,0,0,0,0,0,1,
scooby_state_1147280|43|-1 1,0,0,0,0,0,0,0,0,0,0,0,0,0,0,1,
scooby_state_1146c00|1|0 1,0,0,0,0,0,0,0,0,0,0,0,0,0,0,1,
scooby_state_1147b8d|46|5 1,0,0,0,0,0,0,0,0,0,0,0,0,0,0,1,
scooby_state_1680040|1|-4 1,0,0,0,0,0,0,0,0,0,0,0,0,0,0,1,
scooby_state_1146bd0|40|5 1,0,0,0,0,0,0,0,0,0,0,0,0,0,0,1,
scooby_state_114d7ae|39|22 1,0,0,0,0,0,0,0,0,0,0,0,0,0,0,1,
scooby_state_114e4d5|49|4 1,0,0,0,0,0,0,0,0,0,0,0,0,0,0,1,
scooby_state_1146ba0|19|4 1,0,0,0,0,0,0,0,0,0,0,0,0,0,0,1,
scooby_state_114c7a5|63|1 1,0,0,0,0,0,0,0,0,0,0,0,0,0,0,1,
scooby_state_114ba23|42|-8 1,0,0,0,0,0,0,0,0,0,0,0,0,0,0,1,
scooby_state_46efc4|35|1 1,0,0,0,0,0,0,0,0,0,0,0,0,0,0,1,
scooby_state_1147763|29|0 1,0,0,0,0,0,0,0,0,0,0,0,0,0,0,1,
scooby_state_1146b70|62|5 1,0,0,0,0,0,0,0,0,0,0,0,0,0,0,1,
scooby_state_114e959|42|-19 1,0,0,0,0,0,0,0,0,0,0,0,0,0,0,1,
scooby_state_114ba23|21|-6 1,0,0,0,0,0,0,0,0,0,0,0,0,0,0,1,
scooby_state_114e239|51|1 1,0,0,0,0,0,0,0,0,0,0,0,0,0,0,1,
scooby_state_114c0ae|49|-5 1,0,0,0,0,0,0,0,0,0,0,0,0,0,0,1,
scooby_state_1626430|16|4 1,0,0,0,0,0,0,0,0,0,0,0,0,0,0,1,
scooby_state_1625f01|60|1 1,0,0,0,0,0,0,0,0,0,0,0,0,0,0,1,
scooby_state_15f3a90|42|0 1,0,0,0,0,0,0,0,0,0,0,0,0,0,0,1,
scooby_state_114bb21|31|1 1,0,0,0,0,0,0,0,0,0,0,0,0,0,0,1,
scooby_state_114b526|34|1 1,0,0,0,0,0,0,0,0,0,0,0,0,0,0,1,
scooby_state_46efc4|12|1 1,0,0,0,0,0,0,0,0,0,0,0,0,0,0,1,
scooby_state_1146bd0|49|5 1,0,0,0,0,0,0,0,0,0,0,0,0,0,0,1,
scooby_state_114bb10|37|-8 1,0,0,0,0,0,0,0,0,0,0,0,0,0,0,1,
scooby_state_1146b70|13|5 1,0,0,0,0,0,0,0,0,0,0,0,0,0,0,1,
scooby_state_1146b70|39|4 1,0,0,0,0,0,0,0,0,0,0,0,0,0,0,1,
scooby_state_1146b00|5|5 1,0,0,0,0,0,0,0,0,0,0,0,0,0,0,1,
scooby_state_1674484|18|1 1,0,0,0,0,0,0,0,0,0,0,0,0,0,0,1,
scooby_state_114c24e|9|0 1,0,0,0,0,0,0,0,0,0,0,0,0,0,0,1,
scooby_state_1146b30|41|0 1,0,0,0,0,0,0,0,0,0,0,0,0,0,0,1,
scooby_state_1146b00|62|4 1,0,0,0,0,0,0,0,0,0,0,0,0,0,0,1,
scooby_state_1146bd0|47|5 1,0,0,0,0,0,0,0,0,0,0,0,0,0,0,1,
scooby_state_1146b00|13|4 1,0,0,0,0,0,0,0,0,0,0,0,0,0,0,1,
scooby_state_1146c00|29|4 1,0,0,0,0,0,0,0,0,0,0,0,0,0,0,1,
scooby_state_1146ba0|31|5 1,0,0,0,0,0,0,0,0,0,0,0,0,0,0,1,
scooby_state_114be29|63|0 1,0,0,0,0,0,0,0,0,0,0,0,0,0,0,1,
scooby_state_1146ba0|4|4 1,0,0,0,0,0,0,0,0,0,0,0,0,0,0,1,
scooby_state_1146c00|14|5 1,0,0,0,0,0,0,0,0,0,0,0,0,0,0,1,
scooby_state_114b3d6|24|-4 1,0,0,0,0,0,0,0,0,0,0,0,0,0,0,1,
scooby_state_114cc70|16|3 1,0,0,0,0,0,0,0,0,0,0,0,0,0,0,1,
scooby_state_1146c00|11|0 1,0,0,0,0,0,0,0,0,0,0,0,0,0,0,1,
scooby_state_114d23e|38|0 1,0,0,0,0,0,0,0,0,0,0,0,0,0,0,1,
scooby_state_114bbf1|3|1 1,0,0,0,0,0,0,0,0,0,0,0,0,0,0,1,
scooby_state_114cbc2|45|1 1,0,0,0,0,0,0,0,0,0,0,0,0,0,0,1,
scooby_state_114cc2d|19|1 0,1,0,0,0,0,0,0,0,0,0,0,0,0,0,1,
scooby_state_114ba23|14|-7 1,0,0,0,0,0,0,0,0,0,0,0,0,0,0,1,
scooby_state_114b425|58|0 1,0,0,0,0,0,0,0,0,0,0,0,0,0,0,1,
scooby_state_1146c00|0|0 1,0,0,0,0,0,0,0,0,0,0,0,0,0,0,1,
scooby_state_114e4d5|48|2 1,0,0,0,0,0,0,0,0,0,0,0,0,0,0,1,
scooby_state_1146c00|38|4 1,0,0,0,0,0,0,0,0,0,0,0,0,0,0,1,
scooby_state_114ad8a|0|-33 1,0,0,0,0,0,0,0,0,0,0,0,0,0,0,1,
scooby_state_114e204|6|-40 1,0,0,0,0,0,0,0,0,0,0,0,0,0,0,1,
scooby_state_114cbc2|49|7 1,0,0,0,0,0,0,0,0,0,0,0,0,0,0,1,
scooby_state_1146c00|60|4 1,0,0,0,0,0,0,0,0,0,0,0,0,0,0,1,
scooby_state_1669e40|57|1 1,0,0,0,0,0,0,0,0,0,0,0,0,0,0,1,
scooby_state_114b3d6|55|-4 1,0,0,0,0,0,0,0,0,0,0,0,0,0,0,1,
scooby_state_1146bd0|7|5 1,0,0,0,0,0,0,0,0,0,0,0,0,0,0,1,
scooby_state_1146ba0|35|4 1,0,0,0,0,0,0,0,0,0,0,0,0,0,0,1,
scooby_state_1146bd0|11|4 1,0,0,0,0,0,0,0,0,0,0,0,0,0,0,1,
scooby_state_114e204|11|4 1,0,0,0,0,0,0,0,0,0,0,0,0,0,0,1,
scooby_state_1668901|36|1 1,0,0,0,0,0,0,0,0,0,0,0,0,0,0,1,
scooby_state_1150221|30|-1 1,0,0,0,0,0,0,0,0,0,0,0,0,0,0,1,
scooby_state_114f35a|32|1 1,0,0,0,0,0,0,0,0,0,0,0,0,0,0,1,
scooby_state_114ad8a|0|-35 1,0,0,0,0,0,0,0,0,0,0,0,0,0,0,1,
scooby_state_1147751|23|1 1,0,0,0,0,0,0,0,0,0,0,0,0,0,0,1,
scooby_state_114ca74|1|1 1,0,0,0,0,0,0,0,0,0,0,0,0,0,0,1,
scooby_state_1146c00|58|4 1,0,0,0,0,0,0,0,0,0,0,0,0,0,0,1,
scooby_state_1146bd0|51|4 1,0,0,0,0,0,0,0,0,0,0,0,0,0,0,1,
scooby_state_46f013|29|1 1,0,0,0,0,0,0,0,0,0,0,0,0,0,0,1,
scooby_state_1146bd0|18|4 1,0,0,0,0,0,0,0,0,0,0,0,0,0,0,1,
scooby_state_1147a02|40|1 1,0,0,0,0,0,0,0,0,0,0,0,0,0,0,1,
scooby_state_114e0e4|5|1 1,0,0,0,0,0,0,0,0,0,0,0,0,0,0,1,
scooby_state_46efc4|52|1 1,0,0,0,0,0,0,0,0,0,0,0,0,0,0,1,
scooby_state_114e1b3|22|5 1,0,0,0,0,0,0,0,0,0,0,0,0,0,0,1,
scooby_state_1146ba0|18|-44 1,0,0,0,0,0,0,0,0,0,0,0,0,0,0,1,
scooby_state_11482c0|11|3 1,0,0,0,0,0,0,0,0,0,0,0,0,0,0,1,
scooby_state_114e02b|20|-6 1,0,0,0,0,0,0,0,0,0,0,0,0,0,0,1,
scooby_state_114be29|55|-7 1,0,0,0,0,0,0,0,0,0,0,0,0,0,0,1,
scooby_state_114c0bd|7|2 1,0,0,0,0,0,0,0,0,0,0,0,0,0,0,1,
scooby_state_15f3ac6|43|1 1,0,0,0,0,0,0,0,0,0,0,0,0,0,0,1,
scooby_state_114cd87|22|1 1,0,0,0,0,0,0,0,0,0,0,0,0,0,0,1,
scooby_state_1669245|9|0 1,0,0,0,0,0,0,0,0,0,0,0,0,0,0,1,
scooby_state_1625a88|41|8 1,0,0,0,0,0,0,0,0,0,0,0,0,0,0,1,
scooby_state_114d79c|9|1 1,0,0,0,0,0,0,0,0,0,0,0,0,0,0,1,
scooby_state_16260c8|3|0 1,0,0,0,0,0,0,0,0,0,0,0,0,0,0,1,
scooby_state_114ca74|37|5 1,0,0,0,0,0,0,0,0,0,0,0,0,0,0,1,
scooby_state_1148280|10|1 0,1,0,0,0,0,0,0,0,0,0,0,0,0,0,1,
scooby_state_114baff|58|-5 1,0,0,0,0,0,0,0,0,0,0,0,0,0,0,1,
scooby_state_114c795|43|0 1,0,0,0,0,0,0,0,0,0,0,0,0,0,0,1,
scooby_state_114c7a5|45|0 1,0,0,0,0,0,0,0,0,0,0,0,0,0,0,1,
scooby_state_114ba68|6|-9 1,0,0,0,0,0,0,0,0,0,0,0,0,0,0,1,
scooby_state_114d78d|2|2 1,0,0,0,0,0,0,0,0,0,0,0,0,0,0,1,
scooby_state_114e1b3|45|3 1,0,0,0,0,0,0,0,0,0,0,0,0,0,0,1,
scooby_state_114fe21|58|0 1,0,0,0,0,0,0,0,0,0,0,0,0,0,0,1,
scooby_state_166884f|33|-14 1,0,0,0,0,0,0,0,0,0,0,0,0,0,0,1,
scooby_state_114bbf1|57|-6 1,0,0,0,0,0,0,0,0,0,0,0,0,0,0,1,
scooby_state_114c5a3|28|1 1,0,0,0,0,0,0,0,0,0,0,0,0,0,0,1,
scooby_state_114d1a0|0|-63 1,0,0,0,0,0,0,0,0,0,0,0,0,0,0,1,
scooby_state_114be29|31|-8 1,0,0,0,0,0,0,0,0,0,0,0,0,0,0,1,
scooby_state_114e239|18|3 1,0,0,0,0,0,0,0,0,0,0,0,0,0,0,1,
scooby_state_46f013|7|1 1,0,0,0,0,0,0,0,0,0,0,0,0,0,0,1,
scooby_state_1668700|28|0 1,0,0,0,0,0,0,0,0,0,0,0,0,0,0,1,
scooby_state_114c0ae|20|-6 1,0,0,0,0,0,0,0,0,0,0,0,0,0,0,1,
scooby_state_16800e2|10|4 1,0,0,0,0,0,0,0,0,0,0,0,0,0,0,1,
scooby_state_114cbc2|5|2 1,0,0,0,0,0,0,0,0,0,0,0,0,0,0,1,
scooby_state_114cd87|21|2 1,0,0,0,0,0,0,0,0,0,0,0,0,0,0,1,
scooby_state_114e1cd|26|2 1,0,0,0,0,0,0,0,0,0,0,0,0,0,0,1,
scooby_state_114cc09|61|1 1,0,0,0,0,0,0,0,0,0,0,0,0,0,0,1,
scooby_state_114e247|10|5 1,0,0,0,0,0,0,0,0,0,0,0,0,0,0,1,
scooby_state_114e204|29|-12 0,1,0,0,0,0,0,0,0,0,0,0,0,0,0,1,
scooby_state_114d7ae|62|2 1,0,0,0,0,0,0,0,0,0,0,0,0,0,0,1,
scooby_state_114f14b|18|0 1,0,0,0,0,0,0,0,0,0,0,0,0,0,0,1,
scooby_state_114fe2d|37|0 1,0,0,0,0,0,0,0,0,0,0,0,0,0,0,1,
scooby_state_114c0bd|36|-6 1,0,0,0,0,0,0,0,0,0,0,0,0,0,0,1,
scooby_state_11505e4|39|1 1,0,0,0,0,0,0,0,0,0,0,0,0,0,0,1,
scooby_state_114c464|5|1 1,0,0,0,0,0,0,0,0,0,0,0,0,0,0,1,
scooby_state_114be29|36|-8 1,0,0,0,0,0,0,0,0,0,0,0,0,0,0,1,
scooby_state_114d78d|4|2 1,0,0,0,0,0,0,0,0,0,0,0,0,0,0,1,
scooby_state_114d79c|52|1 1,0,0,0,0,0,0,0,0,0,0,0,0,0,0,1,
scooby_state_114c0a8|57|-5 1,0,0,0,0,0,0,0,0,0,0,0,0,0,0,1,
scooby_state_114caec|53|5 1,0,0,0,0,0,0,0,0,0,0,0,0,0,0,1,
scooby_state_114ca98|39|0 1,0,0,0,0,0,0,0,0,0,0,0,0,0,0,1,
scooby_state_114e204|44|3 1,0,0,0,0,0,0,0,0,0,0,0,0,0,0,1,
scooby_state_114ca7f|47|3 1,0,0,0,0,0,0,0,0,0,0,0,0,0,0,1,
scooby_state_46efc4|15|-48 1,0,0,0,0,0,0,0,0,0,0,0,0,0,0,1,
scooby_state_114a7e7|34|-29 1,0,0,0,0,0,0,0,0,0,0,0,0,0,0,1,
scooby_state_114ca98|41|2 1,0,0,0,0,0,0,0,0,0,0,0,0,0,0,1,
scooby_state_114e1b3|49|2 1,0,0,0,0,0,0,0,0,0,0,0,0,0,0,1,
scooby_state_114be29|1|-8 1,0,0,0,0,0,0,0,0,0,0,0,0,0,0,1,
scooby_state_1625b02|44|1 1,0,0,0,0,0,0,0,0,0,0,0,0,0,0,1,
scooby_state_114ba68|16|0 1,0,0,0,0,0,0,0,0,0,0,0,0,0,0,1,
scooby_state_11479b0|48|1 1,0,0,0,0,0,0,0,0,0,0,0,0,0,0,1,
scooby_state_16800e2|51|0 1,0,0,0,0,0,0,0,0,0,0,0,0,0,0,1,
scooby_state_114be29|10|-7 1,0,0,0,0,0,0,0,0,0,0,0,0,0,0,1,
scooby_state_11490a5|16|-1 1,0,0,0,0,0,0,0,0,0,0,0,0,0,0,1,
scooby_state_1146c00|34|5 1,0,0,0,0,0,0,0,0,0,0,0,0,0,0,1,
scooby_state_114be29|23|-8 1,0,0,0,0,0,0,0,0,0,0,0,0,0,0,1,
scooby_state_11505e4|40|1 1,0,0,0,0,0,0,0,0,0,0,0,0,0,0,1,
scooby_state_114ccd7|41|5 1,0,0,0,0,0,0,0,0,0,0,0,0,0,0,1,
scooby_state_114ba23|43|-8 1,0,0,0,0,0,0,0,0,0,0,0,0,0,0,1,
scooby_state_114c5a3|21|1 1,0,0,0,0,0,0,0,0,0,0,0,0,0,0,1,
scooby_state_11505e4|10|1 1,0,0,0,0,0,0,0,0,0,0,0,0,0,0,1,
scooby_state_114c0ae|24|-7 1,0,0,0,0,0,0,0,0,0,0,0,0,0,0,1,
scooby_state_114c5a3|22|1 1,0,0,0,0,0,0,0,0,0,0,0,0,0,0,1,
scooby_state_1146b70|11|5 1,0,0,0,0,0,0,0,0,0,0,0,0,0,0,1,
scooby_state_1146ba0|11|-48 1,0,0,0,0,0,0,0,0,0,0,0,0,0,0,1,
scooby_state_114ca98|50|4 1,0,0,0,0,0,0,0,0,0,0,0,0,0,0,1,
scooby_state_114ca74|50|2 1,0,0,0,0,0,0,0,0,0,0,0,0,0,0,1,
scooby_state_114baff|22|1 1,0,0,0,0,0,0,0,0,0,0,0,0,0,0,1,
scooby_state_11505e4|53|1 1,0,0,0,0,0,0,0,0,0,0,0,0,0,0,1,
scooby_state_114c795|59|0 0,1,0,0,0,0,0,0,0,0,0,0,0,0,0,1,
scooby_state_114be29|61|61 1,0,0,0,0,0,0,0,0,0,0,0,0,0,0,1,
scooby_state_114ba23|11|-6 1,0,0,0,0,0,0,0,0,0,0,0,0,0,0,1,
scooby_state_114c831|33|0 1,0,0,0,0,0,0,0,0,0,0,0,0,0,0,1,
scooby_state_114c5a3|23|1 1,0,0,0,0,0,0,0,0,0,0,0,0,0,0,1,
scooby_state_114ad8a|0|-23 1,0,0,0,0,0,0,0,0,0,0,0,0,0,0,1,
scooby_state_114ca74|56|1 1,0,0,0,0,0,0,0,0,0,0,0,0,0,0,1,
scooby_state_114c0ae|53|-6 1,0,0,0,0,0,0,0,0,0,0,0,0,0,0,1,
scooby_state_1146b70|7|-35 1,0,0,0,0,0,0,0,0,0,0,0,0,0,0,1,
scooby_state_114ba23|26|1 1,0,0,0,0,0,0,0,0,0,0,0,0,0,0,1,
scooby_state_1680100|4|1 1,0,0,0,0,0,0,0,0,0,0,0,0,0,0,1,
scooby_state_114be29|29|-1 1,0,0,0,0,0,0,0,0,0,0,0,0,0,0,1,
scooby_state_114e0d1|28|2 0,1,0,0,0,0,0,0,0,0,0,0,0,0,0,1,
scooby_state_1146b70|57|4 1,0,0,0,0,0,0,0,0,0,0,0,0,0,0,1,
scooby_state_114e92f|61|4 1,0,0,0,0,0,0,0,0,0,0,0,0,0,0,1,
scooby_state_114e247|27|13 1,0,0,0,0,0,0,0,0,0,0,0,0,0,0,1,
scooby_state_114c7a5|9|1 1,0,0,0,0,0,0,0,0,0,0,0,0,0,0,1,
scooby_state_46f013|27|1 1,0,0,0,0,0,0,0,0,0,0,0,0,0,0,1,
scooby_state_1146b00|38|-22 1,0,0,0,0,0,0,0,0,0,0,0,0,0,0,1,
scooby_state_166c3ca|15|1 1,0,0,0,0,0,0,0,0,0,0,0,0,0,0,1,
scooby_state_1146ba0|52|4 1,0,0,0,0,0,0,0,0,0,0,0,0,0,0,1,
scooby_state_114c5a3|52|1 1,0,0,0,0,0,0,0,0,0,0,0,0,0,0,1,
scooby_state_1625f60|61|1 1,0,0,0,0,0,0,0,0,0,0,0,0,0,0,1,
scooby_state_114caec|43|4 1,0,0,0,0,0,0,0,0,0,0,0,0,0,0,1,
scooby_state_166a140|5|-3 1,0,0,0,0,0,0,0,0,0,0,0,0,0,0,1,
scooby_state_114e226|58|1 1,0,0,0,0,0,0,0,0,0,0,0,0,0,0,1,
scooby_state_1668784|30|-19 1,0,0,0,0,0,0,0,0,0,0,0,0,0,0,1,
scooby_state_114be29|39|-7 1,0,0,0,0,0,0,0,0,0,0,0,0,0,0,1,
scooby_state_114dd2f|5|-58 1,0,0,0,0,0,0,0,0,0,0,0,0,0,0,1,
scooby_state_1146b70|2|-8 1,0,0,0,0,0,0,0,0,0,0,0,0,0,0,1,
scooby_state_166c3a9|56|0 1,0,0,0,0,0,0,0,0,0,0,0,0,0,0,1,
scooby_state_114ca74|60|1 1,0,0,0,0,0,0,0,0,0,0,0,0,0,0,1,
scooby_state_114ca74|61|1 1,0,0,0,0,0,0,0,0,0,0,0,0,0,0,1,
scooby_state_114c0bd|58|2 1,0,0,0,0,0,0,0,0,0,0,0,0,0,0,1,
scooby_state_1146c00|51|4 1,0,0,0,0,0,0,0,0,0,0,0,0,0,0,1,
scooby_state_11505e4|5|1 1,0,0,0,0,0,0,0,0,0,0,0,0,0,0,1,
scooby_state_114cbc2|38|4 1,0,0,0,0,0,0,0,0,0,0,0,0,0,0,1,
scooby_state_11505e4|43|1 1,0,0,0,0,0,0,0,0,0,0,0,0,0,0,1,
scooby_state_114c795|62|1 1,0,0,0,0,0,0,0,0,0,0,0,0,0,0,1,
scooby_state_114e247|54|0 1,0,0,0,0,0,0,0,0,0,0,0,0,0,0,1,
scooby_state_114ba23|16|-8 1,0,0,0,0,0,0,0,0,0,0,0,0,0,0,1,
scooby_state_114e247|23|5 1,0,0,0,0,0,0,0,0,0,0,0,0,0,0,1,
scooby_state_114c812|57|0 1,0,0,0,0,0,0,0,0,0,0,0,0,0,0,1,
scooby_state_114ccd7|3|1 1,0,0,0,0,0,0,0,0,0,0,0,0,0,0,1,
scooby_state_1146c00|41|5 1,0,0,0,0,0,0,0,0,0,0,0,0,0,0,1,
scooby_state_114ca98|43|2 1,0,0,0,0,0,0,0,0,0,0,0,0,0,0,1,
scooby_state_114cbc2|33|1 1,0,0,0,0,0,0,0,0,0,0,0,0,0,0,1,
scooby_state_114fe16|47|6 1,0,0,0,0,0,0,0,0,0,0,0,0,0,0,1,
scooby_state_114ba68|24|0 1,0,0,0,0,0,0,0,0,0,0,0,0,0,0,1,
scooby_state_114ca7f|41|8 0,1,0,0,0,0,0,0,0,0,0,0,0,0,0,1,
scooby_state_114c0ae|52|48 1,0,0,0,0,0,0,0,0,0,0,0,0,0,0,1,
scooby_state_114ba68|32|-7 1,0,0,0,0,0,0,0,0,0,0,0,0,0,0,1,
scooby_state_114ca7f|48|2 1,0,0,0,0,0,0,0,0,0,0,0,0,0,0,1,
scooby_state_114ca98|45|2 1,0,0,0,0,0,0,0,0,0,0,0,0,0,0,1,
scooby_state_114ca98|17|3 1,0,0,0,0,0,0,0,0,0,0,0,0,0,0,1,
scooby_state_1147980|53|1 1,0,0,0,0,0,0,0,0,0,0,0,0,0,0,1,
scooby_state_114c5a3|37|1 1,0,0,0,0,0,0,0,0,0,0,0,0,0,0,1,
scooby_state_11481c0|7|3 1,0,0,0,0,0,0,0,0,0,0,0,0,0,0,1,
scooby_state_114c0ae|6|-6 1,0,0,0,0,0,0,0,0,0,0,0,0,0,0,1,

scooby_action_0_deg_dist 0,21,0,0,0,0,0,0,0,0,0,0,0,0,0,0,
scooby_action_4_deg_dist 0,18,0,0,0,0,0,0,0,0,0,0,0,0,0,0,
scooby_action_3_deg_dist 0,438,136,0,313,0,2619,0,0,0,0,0,0,0,0,0,
scooby_action_32_deg_dist 0,18,0,0,0,0,0,0,0,0,0,0,0,0,0,0,
scooby_action_5_deg_dist 0,21,0,0,0,0,0,0,0,0,0,0,0,0,0,0,
scooby_action_1_deg_dist 0,10267,4938,0,11726,0,138267,0,0,0,0,0,0,0,0,0,
scooby_action_30_deg_dist 0,26,0,0,0,0,0,0,0,0,0,0,0,0,0,0,
scooby_action_-3_deg_dist 0,17,0,0,0,0,0,0,0,0,0,0,0,0,0,0,
scooby_action_10_deg_dist 0,28,0,0,0,0,0,0,0,0,0,0,0,0,0,0,
scooby_action_-1_deg_dist 0,18,0,0,0,0,0,0,0,0,0,0,0,0,0,0,
scooby_action_23_deg_dist 0,22,0,0,0,0,0,0,0,0,0,0,0,0,0,0,
scooby_action_-6_deg_dist 0,17,0,0,0,0,0,0,0,0,0,0,0,0,0,0,
scooby_action_11_deg_dist 0,21,0,0,0,0,0,0,0,0,0,0,0,0,0,0,
scooby_action_22_deg_dist 0,24,0,0,0,0,0,0,0,0,0,0,0,0,0,0,
scooby_action_12_deg_dist 0,20,0,0,0,0,0,0,0,0,0,0,0,0,0,0,

scooby_track_called 168975
scooby_track_same_address 2000
scooby_track_evict 166719

scooby_reward_demand_called 168975
scooby_reward_demand_pt_not_found 24313
scooby_reward_demand_pt_found 144662
scooby_reward_demand_pt_found_total 144662
scooby_reward_demand_has_reward 837
scooby_reward_train_called 20173
scooby_reward_assign_reward_called 166935
scooby_reward_no_pref 21
scooby_reward_incorrect 20152
scooby_reward_correct_untimely 138978
scooby_reward_correct_timely 4847
scooby_reward_out_of_bounds 2937
scooby_reward_tracker_hit 0

scooby_reward_none_low_bw 21
scooby_reward_none_high_bw 0
scooby_reward_incorrect_low_bw 20152
scooby_reward_incorrect_high_bw 0
scooby_reward_correct_untimely_low_bw 138978
scooby_reward_correct_untimely_high_bw 0
scooby_reward_correct_timely_low_bw 4847
scooby_reward_correct_timely_high_bw 0
scooby_reward_out_of_bounds_low_bw 2937
scooby_reward_out_of_bounds_high_bw 0
scooby_reward_tracker_hit_low_bw 0
scooby_reward_tracker_hit_high_bw 0

scooby_reward_1 0,19920,135809,4793,2698,0,
scooby_reward_3 0,172,3107,34,184,0,
scooby_reward_4 0,4,11,1,1,0,
scooby_reward_5 0,3,11,0,0,0,
scooby_reward_10 0,6,12,7,2,0,
scooby_reward_11 0,3,9,3,3,0,
scooby_reward_12 0,6,6,3,5,0,
scooby_reward_22 0,6,1,3,12,0,
scooby_reward_23 0,9,6,0,5,0,
scooby_reward_30 0,5,1,3,15,0,
scooby_reward_32 0,5,3,0,8,0,
scooby_reward_-1 0,6,0,0,0,0,
scooby_reward_-3 0,1,2,0,1,0,
scooby_reward_-6 0,6,0,0,3,0,
scooby_reward_0 21,0,0,0,0,0,

scooby_train_called 166718
scooby_train_compute_reward 20173

scooby_register_fill_called 52670
scooby_register_fill_set 7623
scooby_register_fill_set_total 7623

scooby_register_prefetch_hit_called 752326
scooby_register_prefetch_hit_set 212046
scooby_register_prefetch_hit_set_total 212046

scooby_pref_issue_scooby 851776

learning_engine_featurewise.action.called 168975
learning_engine_featurewise.action.explore 319
learning_engine_featurewise.action.exploit 168656
learning_engine_featurewise.action.fallback 0
learning_engine_featurewise.action.dyn_fallback_saved_bw 0
learning_engine_featurewise.action.dyn_fallback_saved_bw_acc 8
learning_engine_featurewise.action.index_1_explored 22
learning_engine_featurewise.action.index_1_exploited 165176
learning_engine_featurewise.action.index_3_explored 26
learning_engine_featurewise.action.index_3_exploited 3480
learning_engine_featurewise.action.index_4_explored 18
learning_engine_featurewise.action.index_4_exploited 0
learning_engine_featurewise.action.index_5_explored 21
learning_engine_featurewise.action.index_5_exploited 0
learning_engine_featurewise.action.index_10_explored 28
learning_engine_featurewise.action.index_10_exploited 0
learning_engine_featurewise.action.index_11_explored 21
learning_engine_featurewise.action.index_11_exploited 0
learning_engine_featurewise.action.index_12_explored 20
learning_engine_featurewise.action.index_12_exploited 0
learning_engine_featurewise.action.index_22_explored 24
learning_engine_featurewise.action.index_22_exploited 0
learning_engine_featurewise.action.index_23_explored 22
learning_engine_featurewise.action.index_23_exploited 0
learning_engine_featurewise.action.index_30_explored 26
learning_engine_featurewise.action.index_30_exploited 0
learning_engine_featurewise.action.index_32_explored 18
learning_engine_featurewise.action.index_32_exploited 0
learning_engine_featurewise.action.index_-1_explored 18
learning_engine_featurewise.action.index_-1_exploited 0
learning_engine_featurewise.action.index_-3_explored 17
learning_engine_featurewise.action.index_-3_exploited 0
learning_engine_featurewise.action.index_-6_explored 17
learning_engine_featurewise.action.index_-6_exploited 0
learning_engine_featurewise.action.index_0_explored 21
learning_engine_featurewise.action.index_0_exploited 0
learning_engine_featurewise.learn.called 166718
learning_engine_featurewise.learn.su_skip_PC 0
learning_engine_featurewise.learn.su_skip_PC_Delta 0

learning_engine_featurewise.q_value_histogram.bucket_0 0
learning_engine_featurewise.q_value_histogram.bucket_1 0
learning_engine_featurewise.q_value_histogram.bucket_2 0
learning_engine_featurewise.q_value_histogram.bucket_3 0
learning_engine_featurewise.q_value_histogram.bucket_4 3741
learning_engine_featurewise.q_value_histogram.bucket_5 10503
learning_engine_featurewise.q_value_histogram.bucket_6 154412
learning_engine_featurewise.q_value_histogram.bucket_7 0

learning_engine_featurewise.consensus.total 168656
learning_engine_featurewise.consensus.feature_align_PC 167997
learning_engine_featurewise.consensus.feature_align_PC_ratio 1.00
learning_engine_featurewise.consensus.feature_align_PC_Delta 167749
learning_engine_featurewise.consensus.feature_align_PC_Delta_ratio 0.99
learning_engine_featurewise.consensus.feature_align_all 167090
learning_engine_featurewise.consensus.feature_align_all_ratio 0.99

learning_engine_featurewise.feature_PC_min_weight 1000000.00000000
learning_engine_featurewise.feature_PC_max_weight 0.00000000
learning_engine_featurewise.feature_PC_Delta_min_weight 1000000.00000000
learning_engine_featurewise.feature_PC_Delta_max_weight 0.00000000
unique_pcs 1427
unique_pages 391
unique_trigger_pcs 268
total_bitmaps_seen 0
unique_bitmaps_seen 0

scooby_bw_epochs 291145
scooby_bw_level_0 289827
scooby_bw_level_1 359
scooby_bw_level_2 416
scooby_bw_level_3 543

scooby_ipc_epochs 0
scooby_ipc_level_0 0
scooby_ipc_level_1 0
scooby_ipc_level_2 0
scooby_ipc_level_3 0

scooby_cache_acc_epochs 72771
scooby_cache_acc_level_0 48806
scooby_cache_acc_level_1 4941
scooby_cache_acc_level_2 4428
scooby_cache_acc_level_3 2122
scooby_cache_acc_level_4 923
scooby_cache_acc_level_5 4259
scooby_cache_acc_level_6 1709
scooby_cache_acc_level_7 1032
scooby_cache_acc_level_8 910
scooby_cache_acc_level_9 3641

Channel_0_RQ_row_buffer_hit 8422
Channel_0_RQ_row_buffer_miss 2013
Channel_0_WQ_row_buffer_hit 0
Channel_0_WQ_row_buffer_miss 0
Channel_0_WQ_full 0
Channel_0_dbus_congested 5382

avg_congested_cycle 9

DRAM_bw_pochs 291145
DRAM_bw_level_0 289827
DRAM_bw_level_1 359
DRAM_bw_level_2 416
DRAM_bw_level_3 543
