*************************************************
   ChampSim Multicore Out-of-Order Simulator
   Last compiled: Apr  3 2025 20:54:34
*************************************************
parsing config file: /home/zir/Pythia/config/pythia.ini

trace_0 /home/zir/ChampSim/ML-DPC/ChampSimTraces/spec06/410.bwaves-s2.trace.gz
adding L2C_PREFETCHER: Scooby
Initialize SHIP state
warmup_instructions 10000000
simulation_instructions 50000000
champsim_seed 165
measure_ipc 0
measure_ipc_epoch 1000
measure_dram_bw 1
measure_dram_bw_epoch 256
measure_cache_acc 1
measure_cache_acc_epoch 1024
l1d_perfect 0
l2c_perfect 0
llc_perfect 0
l1d_semi_perfect 0
l2c_semi_perfect 0
llc_semi_perfect 0
semi_perfect_cache_page_buffer_size 64

num_cpus 1
cpu_freq 4000
dram_io_freq 2400
page_size 4096
block_size 64
max_read_per_cycle 8
max_fill_per_cycle 1
dram_channels 1
log2_dram_channels 0
dram_ranks 1
dram_banks 8
dram_rows 65536
dram_columns 128
dram_row_size 8
dram_size 4096
dram_pages 1048576

fetch_width 6
decode_width 6
exec_width 4
lq_width 2
sq_width 2
retire_width 4
scheduler_size 128
branch_mispredict_penalty 20
rob_size 256
lq_size 72
sq_size 56
num_instr_destinations_sparc 4
num_instr_destinations 2
num_instr_sources 4

itlb_set 16
itlb_way 8
itlb_rq_size 16
itlb_wq_size 16
itlb_pq_size 0
itlb_mshr_size 8
itlb_latency 1

dtlb_set 16
dtlb_way 4
dtlb_rq_size 16
dtlb_wq_size 16
dtlb_pq_size 0
dtlb_mshr_size 8
dtlb_latency 1

stlb_set 128
stlb_way 12
stlb_rq_size 32
stlb_wq_size 32
stlb_pq_size 0
stlb_mshr_size 16
stlb_latency 8

l1i_size 32
l1i_set 64
l1i_way 8
l1i_rq_size 64
l1i_wq_size 64
l1i_pq_size 8
l1i_mshr_size 8
l1i_latency 1

l1d_size 32
l1d_set 64
l1d_way 8
l1d_rq_size 64
l1d_wq_size 64
l1d_pq_size 8
l1d_mshr_size 16
l1d_latency 4

l2c_size 256
l2c_set 512
l2c_way 8
l2c_rq_size 32
l2c_wq_size 32
l2c_pq_size 32
l2c_mshr_size 32
l2c_latency 10

llc_size 2048
llc_set 2048
llc_way 16
llc_rq_size 32
llc_wq_size 32
llc_pq_size 32
llc_mshr_size 64
llc_latency 20

dram_channel_width 8
dram_wq_size 64
dram_rq_size 64
tRP 15
tRCD 15
tCAS 12.5
dram_dbus_turn_around_time 30
dram_write_high_wm 56
dram_write_low_wm 48
min_dram_writes_per_switch 16
dram_mtps 2400
dram_dbus_return_time 13

scooby_alpha 0.0065088
scooby_gamma 0.556301
scooby_epsilon 0.00182284
scooby_state_num_bits 10
scooby_max_states 1024
scooby_seed 200
scooby_policy EGreedy
scooby_learning_type SARSA
scooby_actions 1,3,4,5,10,11,12,22,23,30,32,-1,-3,-6,0,
scooby_max_actions 15
scooby_pt_size 256
scooby_st_size 64
scooby_max_pcs 5
scooby_max_offsets 5
scooby_max_deltas 5
scooby_reward_none -4
scooby_reward_incorrect -8
scooby_reward_correct_untimely 12
scooby_reward_correct_timely 20
scooby_brain_zero_init 0
scooby_enable_reward_all 0
scooby_enable_track_multiple 0
scooby_enable_reward_out_of_bounds 1
scooby_reward_out_of_bounds -12
scooby_state_type 1
scooby_state_hash_type 11
scooby_access_debug 0
scooby_print_access_debug 0
scooby_print_access_debug_pc deadbeef
scooby_print_access_debug_pc_count 0
scooby_print_trace 0
scooby_enable_state_action_stats 1
scooby_enable_reward_tracker_hit 0
scooby_reward_tracker_hit -2
scooby_enable_featurewise_engine 1
scooby_pref_degree 1
scooby_enable_dyn_degree 1
scooby_max_to_avg_q_thresholds 0.5,1,2,
scooby_dyn_degrees 1,2,4,4,
scooby_multi_deg_select_type 2
scooby_last_pref_offset_conf_thresholds 1,3,8,
scooby_dyn_degrees_type2 1,2,4,6,
scooby_action_tracker_size 2
scooby_high_bw_thresh 4
scooby_enable_hbw_reward 1
scooby_reward_hbw_correct_timely 20
scooby_reward_hbw_correct_untimely 12
scooby_reward_hbw_incorrect -14
scooby_reward_hbw_none -2
scooby_reward_hbw_out_of_bounds -12
scooby_reward_hbw_tracker_hit -2
scooby_last_pref_offset_conf_thresholds_hbw 1,3,8,
scooby_dyn_degrees_type2_hbw 1,2,4,6,

le_enable_trace 0
le_trace_interval 0
le_trace_file_name 
le_trace_state 0
le_enable_score_plot 0
le_plot_file_name 
le_plot_actions 
le_enable_action_trace 0
le_action_trace_interval 0
le_action_trace_name 
le_enable_action_plot 0

le_featurewise_active_features PC, PC_Delta
le_featurewise_num_tilings 3,3,
le_featurewise_num_tiles 128,128,
le_featurewise_hash_types 2,2,
le_featurewise_enable_tiling_offset 1,1,
le_featurewise_max_q_thresh 0.5
le_featurewise_enable_action_fallback 1
le_featurewise_feature_weights 1,1,
le_featurewise_enable_dynamic_weight 0
le_featurewise_weight_gradient 0.001
le_featurewise_disable_adjust_weight_all_features_align 1
le_featurewise_selective_update 0
le_featurewise_pooling_type 2
le_featurewise_enable_dyn_action_fallback 1
le_featurewise_bw_acc_check_level 1
le_featurewise_acc_thresh 2
le_featurewise_enable_trace 0
le_featurewise_trace_feature_type 0
le_featurewise_trace_feature 
le_featurewise_trace_interval 0
le_featurewise_trace_record_count 0
le_featurewise_trace_file_name 
le_featurewise_enable_score_plot 0
le_featurewise_plot_actions 
le_featurewise_plot_file_name 


Heartbeat CPU  0 instructions:    1000000 cycles:     630077 heartbeat IPC: 1.58711 cumulative IPC: 1.58711 (Simulation time: 0 hr 0 min 1 sec) 
Heartbeat CPU  0 instructions:    2000003 cycles:    1227772 heartbeat IPC: 1.67310 cumulative IPC: 1.62897 (Simulation time: 0 hr 0 min 2 sec) 
Heartbeat CPU  0 instructions:    3000003 cycles:    1823384 heartbeat IPC: 1.67895 cumulative IPC: 1.64529 (Simulation time: 0 hr 0 min 2 sec) 
Heartbeat CPU  0 instructions:    4000000 cycles:    2419968 heartbeat IPC: 1.67620 cumulative IPC: 1.65291 (Simulation time: 0 hr 0 min 3 sec) 
Heartbeat CPU  0 instructions:    5000001 cycles:    2984037 heartbeat IPC: 1.77283 cumulative IPC: 1.67558 (Simulation time: 0 hr 0 min 4 sec) 
Heartbeat CPU  0 instructions:    6000002 cycles:    3585486 heartbeat IPC: 1.66265 cumulative IPC: 1.67341 (Simulation time: 0 hr 0 min 5 sec) 
Heartbeat CPU  0 instructions:    7000000 cycles:    4179868 heartbeat IPC: 1.68242 cumulative IPC: 1.67469 (Simulation time: 0 hr 0 min 6 sec) 
Heartbeat CPU  0 instructions:    8000000 cycles:    4772882 heartbeat IPC: 1.68630 cumulative IPC: 1.67614 (Simulation time: 0 hr 0 min 7 sec) 
Heartbeat CPU  0 instructions:    9000003 cycles:    5348601 heartbeat IPC: 1.73696 cumulative IPC: 1.68268 (Simulation time: 0 hr 0 min 8 sec) 
Heartbeat CPU  0 instructions:   10000000 cycles:    5946606 heartbeat IPC: 1.67222 cumulative IPC: 1.68163 (Simulation time: 0 hr 0 min 9 sec) 

Warmup complete CPU  0 instructions:   10000004 cycles:    5946607 (Simulation time: 0 hr 0 min 9 sec) 

Heartbeat CPU  0 instructions:   11000000 cycles:    7027846 heartbeat IPC: 0.92486 cumulative IPC: 0.92486 (Simulation time: 0 hr 0 min 10 sec) 
Heartbeat CPU  0 instructions:   12000000 cycles:    8061895 heartbeat IPC: 0.96707 cumulative IPC: 0.94550 (Simulation time: 0 hr 0 min 11 sec) 
Heartbeat CPU  0 instructions:   13000002 cycles:    9084879 heartbeat IPC: 0.97753 cumulative IPC: 0.95594 (Simulation time: 0 hr 0 min 13 sec) 
Heartbeat CPU  0 instructions:   14000001 cycles:   10161430 heartbeat IPC: 0.92889 cumulative IPC: 0.94903 (Simulation time: 0 hr 0 min 14 sec) 
Heartbeat CPU  0 instructions:   15000001 cycles:   11214552 heartbeat IPC: 0.94956 cumulative IPC: 0.94914 (Simulation time: 0 hr 0 min 16 sec) 
Heartbeat CPU  0 instructions:   16000000 cycles:   12273312 heartbeat IPC: 0.94450 cumulative IPC: 0.94836 (Simulation time: 0 hr 0 min 17 sec) 
Heartbeat CPU  0 instructions:   17000001 cycles:   13350865 heartbeat IPC: 0.92803 cumulative IPC: 0.94540 (Simulation time: 0 hr 0 min 18 sec) 
Heartbeat CPU  0 instructions:   18000003 cycles:   14414214 heartbeat IPC: 0.94043 cumulative IPC: 0.94478 (Simulation time: 0 hr 0 min 19 sec) 
Heartbeat CPU  0 instructions:   19000000 cycles:   15484282 heartbeat IPC: 0.93452 cumulative IPC: 0.94363 (Simulation time: 0 hr 0 min 20 sec) 
Heartbeat CPU  0 instructions:   20000000 cycles:   16540180 heartbeat IPC: 0.94706 cumulative IPC: 0.94397 (Simulation time: 0 hr 0 min 22 sec) 
Heartbeat CPU  0 instructions:   21000001 cycles:   17633198 heartbeat IPC: 0.91490 cumulative IPC: 0.94125 (Simulation time: 0 hr 0 min 23 sec) 
Heartbeat CPU  0 instructions:   22000000 cycles:   18688493 heartbeat IPC: 0.94760 cumulative IPC: 0.94178 (Simulation time: 0 hr 0 min 24 sec) 
Heartbeat CPU  0 instructions:   23000003 cycles:   19766729 heartbeat IPC: 0.92744 cumulative IPC: 0.94066 (Simulation time: 0 hr 0 min 25 sec) 
Heartbeat CPU  0 instructions:   24000000 cycles:   20817188 heartbeat IPC: 0.95196 cumulative IPC: 0.94146 (Simulation time: 0 hr 0 min 26 sec) 
Heartbeat CPU  0 instructions:   25000000 cycles:   21905194 heartbeat IPC: 0.91911 cumulative IPC: 0.93993 (Simulation time: 0 hr 0 min 28 sec) 
Heartbeat CPU  0 instructions:   26000001 cycles:   22958916 heartbeat IPC: 0.94902 cumulative IPC: 0.94050 (Simulation time: 0 hr 0 min 29 sec) 
Heartbeat CPU  0 instructions:   27000000 cycles:   24024780 heartbeat IPC: 0.93821 cumulative IPC: 0.94036 (Simulation time: 0 hr 0 min 30 sec) 
Heartbeat CPU  0 instructions:   28000000 cycles:   25107800 heartbeat IPC: 0.92334 cumulative IPC: 0.93940 (Simulation time: 0 hr 0 min 32 sec) 
Heartbeat CPU  0 instructions:   29000001 cycles:   26195057 heartbeat IPC: 0.91975 cumulative IPC: 0.93834 (Simulation time: 0 hr 0 min 33 sec) 
Heartbeat CPU  0 instructions:   30000000 cycles:   27260070 heartbeat IPC: 0.93895 cumulative IPC: 0.93837 (Simulation time: 0 hr 0 min 35 sec) 
Heartbeat CPU  0 instructions:   31000000 cycles:   28345467 heartbeat IPC: 0.92132 cumulative IPC: 0.93755 (Simulation time: 0 hr 0 min 36 sec) 
Heartbeat CPU  0 instructions:   32000000 cycles:   29407486 heartbeat IPC: 0.94160 cumulative IPC: 0.93773 (Simulation time: 0 hr 0 min 37 sec) 
Heartbeat CPU  0 instructions:   33000003 cycles:   30487676 heartbeat IPC: 0.92577 cumulative IPC: 0.93720 (Simulation time: 0 hr 0 min 39 sec) 
Heartbeat CPU  0 instructions:   34000001 cycles:   31552028 heartbeat IPC: 0.93954 cumulative IPC: 0.93730 (Simulation time: 0 hr 0 min 40 sec) 
Heartbeat CPU  0 instructions:   35000003 cycles:   32627221 heartbeat IPC: 0.93007 cumulative IPC: 0.93701 (Simulation time: 0 hr 0 min 41 sec) 
Heartbeat CPU  0 instructions:   36000000 cycles:   33699563 heartbeat IPC: 0.93254 cumulative IPC: 0.93684 (Simulation time: 0 hr 0 min 43 sec) 
Heartbeat CPU  0 instructions:   37000000 cycles:   34752361 heartbeat IPC: 0.94985 cumulative IPC: 0.93731 (Simulation time: 0 hr 0 min 44 sec) 
Heartbeat CPU  0 instructions:   38000001 cycles:   35811524 heartbeat IPC: 0.94414 cumulative IPC: 0.93755 (Simulation time: 0 hr 0 min 45 sec) 
Heartbeat CPU  0 instructions:   39000001 cycles:   36875808 heartbeat IPC: 0.93960 cumulative IPC: 0.93763 (Simulation time: 0 hr 0 min 46 sec) 
Heartbeat CPU  0 instructions:   40000000 cycles:   37937405 heartbeat IPC: 0.94198 cumulative IPC: 0.93777 (Simulation time: 0 hr 0 min 47 sec) 
Heartbeat CPU  0 instructions:   41000000 cycles:   38998357 heartbeat IPC: 0.94255 cumulative IPC: 0.93792 (Simulation time: 0 hr 0 min 48 sec) 
Heartbeat CPU  0 instructions:   42000001 cycles:   40043886 heartbeat IPC: 0.95645 cumulative IPC: 0.93849 (Simulation time: 0 hr 0 min 50 sec) 
Heartbeat CPU  0 instructions:   43000001 cycles:   41117475 heartbeat IPC: 0.93146 cumulative IPC: 0.93828 (Simulation time: 0 hr 0 min 51 sec) 
Heartbeat CPU  0 instructions:   44000000 cycles:   42177692 heartbeat IPC: 0.94320 cumulative IPC: 0.93842 (Simulation time: 0 hr 0 min 52 sec) 
Heartbeat CPU  0 instructions:   45000001 cycles:   43230786 heartbeat IPC: 0.94958 cumulative IPC: 0.93874 (Simulation time: 0 hr 0 min 53 sec) 
Heartbeat CPU  0 instructions:   46000001 cycles:   44266387 heartbeat IPC: 0.96562 cumulative IPC: 0.93946 (Simulation time: 0 hr 0 min 55 sec) 
Heartbeat CPU  0 instructions:   47000000 cycles:   45280147 heartbeat IPC: 0.98643 cumulative IPC: 0.94067 (Simulation time: 0 hr 0 min 56 sec) 
Heartbeat CPU  0 instructions:   48000000 cycles:   46327195 heartbeat IPC: 0.95507 cumulative IPC: 0.94105 (Simulation time: 0 hr 0 min 57 sec) 
Heartbeat CPU  0 instructions:   49000000 cycles:   47408637 heartbeat IPC: 0.92469 cumulative IPC: 0.94062 (Simulation time: 0 hr 0 min 59 sec) 
Heartbeat CPU  0 instructions:   50000001 cycles:   48465536 heartbeat IPC: 0.94617 cumulative IPC: 0.94076 (Simulation time: 0 hr 1 min 0 sec) 
Heartbeat CPU  0 instructions:   51000001 cycles:   49508928 heartbeat IPC: 0.95841 cumulative IPC: 0.94118 (Simulation time: 0 hr 1 min 1 sec) 
Heartbeat CPU  0 instructions:   52000000 cycles:   50589727 heartbeat IPC: 0.92524 cumulative IPC: 0.94079 (Simulation time: 0 hr 1 min 2 sec) 
Heartbeat CPU  0 instructions:   53000002 cycles:   51644435 heartbeat IPC: 0.94813 cumulative IPC: 0.94096 (Simulation time: 0 hr 1 min 3 sec) 
Heartbeat CPU  0 instructions:   54000000 cycles:   52691349 heartbeat IPC: 0.95519 cumulative IPC: 0.94128 (Simulation time: 0 hr 1 min 4 sec) 
Heartbeat CPU  0 instructions:   55000003 cycles:   53757066 heartbeat IPC: 0.93834 cumulative IPC: 0.94122 (Simulation time: 0 hr 1 min 6 sec) 
Heartbeat CPU  0 instructions:   56000000 cycles:   54845921 heartbeat IPC: 0.91839 cumulative IPC: 0.94071 (Simulation time: 0 hr 1 min 7 sec) 
Heartbeat CPU  0 instructions:   57000001 cycles:   55897044 heartbeat IPC: 0.95136 cumulative IPC: 0.94093 (Simulation time: 0 hr 1 min 8 sec) 
Heartbeat CPU  0 instructions:   58000000 cycles:   56943644 heartbeat IPC: 0.95547 cumulative IPC: 0.94123 (Simulation time: 0 hr 1 min 9 sec) 
Heartbeat CPU  0 instructions:   59000003 cycles:   58039677 heartbeat IPC: 0.91238 cumulative IPC: 0.94062 (Simulation time: 0 hr 1 min 11 sec) 
Heartbeat CPU  0 instructions:   60000000 cycles:   59103089 heartbeat IPC: 0.94037 cumulative IPC: 0.94062 (Simulation time: 0 hr 1 min 12 sec) 
Finished CPU 0 instructions: 50000003 cycles: 53156499 cumulative IPC: 0.94062 (Simulation time: 0 hr 1 min 12 sec) 

ChampSim completed all CPUs

[ROI Statistics]
Core_0_instructions 50000003
Core_0_cycles 53156499
Core_0_IPC 0.94062

Core_0_branch_prediction_accuracy 92.27390
Core_0_branch_MPKI 10.73426
Core_0_average_ROB_occupancy_at_mispredict 75.78977

Core_0_L1D_total_access 8678262
Core_0_L1D_total_hit 8651659
Core_0_L1D_total_miss 26603
Core_0_L1D_loads 6616734
Core_0_L1D_load_hit 6612158
Core_0_L1D_load_miss 4576
Core_0_L1D_RFOs 2061528
Core_0_L1D_RFO_hit 2039501
Core_0_L1D_RFO_miss 22027
Core_0_L1D_prefetches 0
Core_0_L1D_prefetch_hit 0
Core_0_L1D_prefetch_miss 0
Core_0_L1D_writebacks 0
Core_0_L1D_writeback_hit 0
Core_0_L1D_writeback_miss 0
Core_0_L1D_prefetch_requested 0
Core_0_L1D_prefetch_dropped 0
Core_0_L1D_prefetch_issued 0
Core_0_L1D_prefetch_filled 0
Core_0_L1D_prefetch_useful 0
Core_0_L1D_prefetch_useless 0
Core_0_L1D_prefetch_late 0
Core_0_L1D_average_miss_latency 106.31959

Core_0_L1D_rq_access 12043826
Core_0_L1D_rq_forward 0
Core_0_L1D_rq_merged 5426498
Core_0_L1D_rq_to_cache 6617267
Core_0_L1D_rq_full 0

Core_0_L1D_wq_access 2218478
Core_0_L1D_wq_forward 61
Core_0_L1D_wq_merged 30669
Core_0_L1D_wq_to_cache 2187809
Core_0_L1D_wq_full 0

Core_0_L1D_pq_access 0
Core_0_L1D_pq_forward 0
Core_0_L1D_pq_merged 0
Core_0_L1D_pq_to_cache 0
Core_0_L1D_pq_full 0

Core_0_L1D_acc_epochs 57683
Core_0_L1D_acc_level_0 57683
Core_0_L1D_acc_level_1 0
Core_0_L1D_acc_level_2 0
Core_0_L1D_acc_level_3 0
Core_0_L1D_acc_level_4 0
Core_0_L1D_acc_level_5 0
Core_0_L1D_acc_level_6 0
Core_0_L1D_acc_level_7 0
Core_0_L1D_acc_level_8 0
Core_0_L1D_acc_level_9 0

Core_0_L1I_total_access 9135792
Core_0_L1I_total_hit 9135789
Core_0_L1I_total_miss 3
Core_0_L1I_loads 9135792
Core_0_L1I_load_hit 9135789
Core_0_L1I_load_miss 3
Core_0_L1I_RFOs 0
Core_0_L1I_RFO_hit 0
Core_0_L1I_RFO_miss 0
Core_0_L1I_prefetches 0
Core_0_L1I_prefetch_hit 0
Core_0_L1I_prefetch_miss 0
Core_0_L1I_writebacks 0
Core_0_L1I_writeback_hit 0
Core_0_L1I_writeback_miss 0
Core_0_L1I_prefetch_requested 0
Core_0_L1I_prefetch_dropped 0
Core_0_L1I_prefetch_issued 0
Core_0_L1I_prefetch_filled 0
Core_0_L1I_prefetch_useful 0
Core_0_L1I_prefetch_useless 0
Core_0_L1I_prefetch_late 0
Core_0_L1I_average_miss_latency 94.33333

Core_0_L1I_rq_access 50000241
Core_0_L1I_rq_forward 0
Core_0_L1I_rq_merged 40864449
Core_0_L1I_rq_to_cache 9135792
Core_0_L1I_rq_full 0

Core_0_L1I_wq_access 0
Core_0_L1I_wq_forward 0
Core_0_L1I_wq_merged 0
Core_0_L1I_wq_to_cache 0
Core_0_L1I_wq_full 0

Core_0_L1I_pq_access 0
Core_0_L1I_pq_forward 0
Core_0_L1I_pq_merged 0
Core_0_L1I_pq_to_cache 0
Core_0_L1I_pq_full 0

Core_0_L1I_acc_epochs 57683
Core_0_L1I_acc_level_0 57683
Core_0_L1I_acc_level_1 0
Core_0_L1I_acc_level_2 0
Core_0_L1I_acc_level_3 0
Core_0_L1I_acc_level_4 0
Core_0_L1I_acc_level_5 0
Core_0_L1I_acc_level_6 0
Core_0_L1I_acc_level_7 0
Core_0_L1I_acc_level_8 0
Core_0_L1I_acc_level_9 0

Core_0_L2C_total_access 61236
Core_0_L2C_total_hit 37084
Core_0_L2C_total_miss 24152
Core_0_L2C_loads 4579
Core_0_L2C_load_hit 4430
Core_0_L2C_load_miss 149
Core_0_L2C_RFOs 22027
Core_0_L2C_RFO_hit 541
Core_0_L2C_RFO_miss 21486
Core_0_L2C_prefetches 12628
Core_0_L2C_prefetch_hit 10172
Core_0_L2C_prefetch_miss 2456
Core_0_L2C_writebacks 22002
Core_0_L2C_writeback_hit 21941
Core_0_L2C_writeback_miss 61
Core_0_L2C_prefetch_requested 14970
Core_0_L2C_prefetch_dropped 42
Core_0_L2C_prefetch_issued 14928
Core_0_L2C_prefetch_filled 3056
Core_0_L2C_prefetch_useful 2537
Core_0_L2C_prefetch_useless 486
Core_0_L2C_prefetch_late 11
Core_0_L2C_average_miss_latency 116.18810

Core_0_L2C_rq_access 26606
Core_0_L2C_rq_forward 0
Core_0_L2C_rq_merged 0
Core_0_L2C_rq_to_cache 26606
Core_0_L2C_rq_full 0

Core_0_L2C_wq_access 22002
Core_0_L2C_wq_forward 0
Core_0_L2C_wq_merged 0
Core_0_L2C_wq_to_cache 22002
Core_0_L2C_wq_full 0

Core_0_L2C_pq_access 14928
Core_0_L2C_pq_forward 0
Core_0_L2C_pq_merged 457
Core_0_L2C_pq_to_cache 14471
Core_0_L2C_pq_full 0

Core_0_L2C_acc_epochs 57683
Core_0_L2C_acc_level_0 54646
Core_0_L2C_acc_level_1 284
Core_0_L2C_acc_level_2 354
Core_0_L2C_acc_level_3 362
Core_0_L2C_acc_level_4 433
Core_0_L2C_acc_level_5 300
Core_0_L2C_acc_level_6 377
Core_0_L2C_acc_level_7 333
Core_0_L2C_acc_level_8 362
Core_0_L2C_acc_level_9 232

Core_0_LLC_total_access 42981
Core_0_LLC_total_hit 19292
Core_0_LLC_total_miss 23689
Core_0_LLC_loads 147
Core_0_LLC_load_hit 94
Core_0_LLC_load_miss 53
Core_0_LLC_RFOs 21486
Core_0_LLC_RFO_hit 128
Core_0_LLC_RFO_miss 21358
Core_0_LLC_prefetches 2458
Core_0_LLC_prefetch_hit 180
Core_0_LLC_prefetch_miss 2278
Core_0_LLC_writebacks 18890
Core_0_LLC_writeback_hit 18890
Core_0_LLC_writeback_miss 0
Core_0_LLC_prefetch_requested 0
Core_0_LLC_prefetch_dropped 0
Core_0_LLC_prefetch_issued 0
Core_0_LLC_prefetch_filled 2887
Core_0_LLC_prefetch_useful 35
Core_0_LLC_prefetch_useless 0
Core_0_LLC_prefetch_late 0
Core_0_LLC_average_miss_latency 87.70826

Core_0_LLC_rq_access 21633
Core_0_LLC_rq_forward 0
Core_0_LLC_rq_merged 0
Core_0_LLC_rq_to_cache 21633
Core_0_LLC_rq_full 0

Core_0_LLC_wq_access 18890
Core_0_LLC_wq_forward 0
Core_0_LLC_wq_merged 0
Core_0_LLC_wq_to_cache 18890
Core_0_LLC_wq_full 0

Core_0_LLC_pq_access 3067
Core_0_LLC_pq_forward 0
Core_0_LLC_pq_merged 0
Core_0_LLC_pq_to_cache 3067
Core_0_LLC_pq_full 0

Core_0_LLC_acc_epochs 57718
Core_0_LLC_acc_level_0 57687
Core_0_LLC_acc_level_1 9
Core_0_LLC_acc_level_2 5
Core_0_LLC_acc_level_3 4
Core_0_LLC_acc_level_4 0
Core_0_LLC_acc_level_5 6
Core_0_LLC_acc_level_6 1
Core_0_LLC_acc_level_7 2
Core_0_LLC_acc_level_8 0
Core_0_LLC_acc_level_9 4

Core_0_major_page_fault 0
Core_0_minor_page_fault 426

scooby_st_lookup 5227
scooby_st_hit 5153
scooby_st_evict 10
scooby_st_insert 74
scooby_st_streaming 0

scooby_predict_called 5227
scooby_predict_out_of_bounds 60
scooby_predict_action_1 4999
scooby_predict_issue_action_1 3118
scooby_predict_hit_action_1 1881
scooby_predict_out_of_bounds_action_1 47
scooby_predict_action_3 98
scooby_predict_issue_action_3 40
scooby_predict_hit_action_3 58
scooby_predict_out_of_bounds_action_3 2
scooby_predict_action_4 25
scooby_predict_issue_action_4 18
scooby_predict_hit_action_4 7
scooby_predict_out_of_bounds_action_4 0
scooby_predict_action_5 14
scooby_predict_issue_action_5 8
scooby_predict_hit_action_5 6
scooby_predict_out_of_bounds_action_5 0
scooby_predict_action_10 13
scooby_predict_issue_action_10 4
scooby_predict_hit_action_10 9
scooby_predict_out_of_bounds_action_10 0
scooby_predict_action_11 4
scooby_predict_issue_action_11 2
scooby_predict_hit_action_11 2
scooby_predict_out_of_bounds_action_11 0
scooby_predict_action_12 2
scooby_predict_issue_action_12 1
scooby_predict_hit_action_12 1
scooby_predict_out_of_bounds_action_12 0
scooby_predict_action_22 0
scooby_predict_issue_action_22 0
scooby_predict_hit_action_22 0
scooby_predict_out_of_bounds_action_22 0
scooby_predict_action_23 0
scooby_predict_issue_action_23 0
scooby_predict_hit_action_23 0
scooby_predict_out_of_bounds_action_23 0
scooby_predict_action_30 0
scooby_predict_issue_action_30 0
scooby_predict_hit_action_30 0
scooby_predict_out_of_bounds_action_30 0
scooby_predict_action_32 11
scooby_predict_issue_action_32 8
scooby_predict_hit_action_32 3
scooby_predict_out_of_bounds_action_32 11
scooby_predict_action_-1 1
scooby_predict_issue_action_-1 1
scooby_predict_hit_action_-1 0
scooby_predict_out_of_bounds_action_-1 0
scooby_predict_action_-3 0
scooby_predict_issue_action_-3 0
scooby_predict_hit_action_-3 0
scooby_predict_out_of_bounds_action_-3 0
scooby_predict_action_-6 0
scooby_predict_issue_action_-6 0
scooby_predict_hit_action_-6 0
scooby_predict_out_of_bounds_action_-6 0
scooby_predict_action_0 0
scooby_predict_issue_action_0 0
scooby_predict_hit_action_0 0
scooby_predict_out_of_bounds_action_0 0
scooby_predict_multi_deg_called 2713
scooby_predict_predicted 14970
scooby_predict_multi_deg 11770
scooby_predict_multi_deg_2 2672
scooby_predict_multi_deg_3 2485
scooby_predict_multi_deg_4 2443
scooby_predict_multi_deg_5 2104
scooby_predict_multi_deg_6 2066
scooby_predict_multi_deg_7 0
scooby_predict_multi_deg_8 0
scooby_predict_multi_deg_9 0
scooby_predict_multi_deg_10 0
scooby_predict_multi_deg_11 0
scooby_predict_multi_deg_12 0
scooby_predict_multi_deg_13 0
scooby_predict_multi_deg_14 0
scooby_predict_multi_deg_15 0
scooby_predict_multi_deg_16 0

scooby_selected_deg_1 487
scooby_selected_deg_2 144
scooby_selected_deg_3 0
scooby_selected_deg_4 307
scooby_selected_deg_5 0
scooby_selected_deg_6 2262
scooby_selected_deg_7 0
scooby_selected_deg_8 0
scooby_selected_deg_9 0
scooby_selected_deg_10 0
scooby_selected_deg_11 0
scooby_selected_deg_12 0
scooby_selected_deg_13 0
scooby_selected_deg_14 0
scooby_selected_deg_15 0
scooby_selected_deg_16 0

scooby_state_4050d3|42|-2 21,27,0,0,0,0,0,0,0,0,0,0,0,0,0,48,
scooby_state_40519e|45|3 37,5,5,0,0,0,0,0,0,0,0,0,0,0,0,47,
scooby_state_4050a7|44|-1 46,0,0,0,0,0,0,0,0,0,0,0,0,0,0,46,
scooby_state_4050cf|3|0 36,0,0,0,0,0,0,0,0,0,0,1,0,0,0,37,
scooby_state_42db80|38|1 28,0,0,0,0,0,0,0,0,0,0,0,0,0,0,28,
scooby_state_405634|3|1 22,0,0,0,0,0,0,0,0,0,0,0,0,0,0,22,
scooby_state_405634|40|1 22,0,0,0,0,0,0,0,0,0,0,0,0,0,0,22,
scooby_state_405634|5|1 22,0,0,0,0,0,0,0,0,0,0,0,0,0,0,22,
scooby_state_405634|0|0 22,0,0,0,0,0,0,0,0,0,0,0,0,0,0,22,
scooby_state_405634|10|1 22,0,0,0,0,0,0,0,0,0,0,0,0,0,0,22,
scooby_state_405634|8|1 22,0,0,0,0,0,0,0,0,0,0,0,0,0,0,22,
scooby_state_405634|39|1 21,0,0,1,0,0,0,0,0,0,0,0,0,0,0,22,
scooby_state_405634|13|1 22,0,0,0,0,0,0,0,0,0,0,0,0,0,0,22,
scooby_state_405634|42|41 21,0,0,0,0,0,0,0,0,0,0,0,0,0,0,21,
scooby_state_405634|36|1 21,0,0,0,0,0,0,0,0,0,0,0,0,0,0,21,
scooby_state_405634|28|1 21,0,0,0,0,0,0,0,0,0,0,0,0,0,0,21,
scooby_state_405634|31|1 21,0,0,0,0,0,0,0,0,0,0,0,0,0,0,21,
scooby_state_405634|38|1 21,0,0,0,0,0,0,0,0,0,0,0,0,0,0,21,
scooby_state_405634|33|1 21,0,0,0,0,0,0,0,0,0,0,0,0,0,0,21,
scooby_state_405634|11|1 21,0,0,0,0,0,0,0,0,0,0,0,0,0,0,21,
scooby_state_405634|34|1 21,0,0,0,0,0,0,0,0,0,0,0,0,0,0,21,
scooby_state_405634|6|1 21,0,0,0,0,0,0,0,0,0,0,0,0,0,0,21,
scooby_state_405634|20|1 21,0,0,0,0,0,0,0,0,0,0,0,0,0,0,21,
scooby_state_405634|1|1 21,0,0,0,0,0,0,0,0,0,0,0,0,0,0,21,
scooby_state_405634|30|1 21,0,0,0,0,0,0,0,0,0,0,0,0,0,0,21,
scooby_state_405634|35|1 21,0,0,0,0,0,0,0,0,0,0,0,0,0,0,21,
scooby_state_405634|32|1 21,0,0,0,0,0,0,0,0,0,0,0,0,0,0,21,
scooby_state_405634|37|1 21,0,0,0,0,0,0,0,0,0,0,0,0,0,0,21,
scooby_state_405634|15|1 21,0,0,0,0,0,0,0,0,0,0,0,0,0,0,21,
scooby_state_405634|25|1 21,0,0,0,0,0,0,0,0,0,0,0,0,0,0,21,
scooby_state_405634|14|1 20,0,0,0,0,0,0,0,0,0,0,0,0,0,0,20,
scooby_state_405634|59|41 20,0,0,0,0,0,0,0,0,0,0,0,0,0,0,20,
scooby_state_405634|4|1 20,0,0,0,0,0,0,0,0,0,0,0,0,0,0,20,
scooby_state_405634|27|1 20,0,0,0,0,0,0,0,0,0,0,0,0,0,0,20,
scooby_state_405634|43|41 20,0,0,0,0,0,0,0,0,0,0,0,0,0,0,20,
scooby_state_405634|7|1 20,0,0,0,0,0,0,0,0,0,0,0,0,0,0,20,
scooby_state_405634|9|1 20,0,0,0,0,0,0,0,0,0,0,0,0,0,0,20,
scooby_state_405634|22|1 20,0,0,0,0,0,0,0,0,0,0,0,0,0,0,20,
scooby_state_405634|2|1 20,0,0,0,0,0,0,0,0,0,0,0,0,0,0,20,
scooby_state_405634|18|1 20,0,0,0,0,0,0,0,0,0,0,0,0,0,0,20,
scooby_state_405634|23|1 20,0,0,0,0,0,0,0,0,0,0,0,0,0,0,20,
scooby_state_405634|29|1 20,0,0,0,0,0,0,0,0,0,0,0,0,0,0,20,
scooby_state_405634|17|1 20,0,0,0,0,0,0,0,0,0,0,0,0,0,0,20,
scooby_state_405634|12|1 20,0,0,0,0,0,0,0,0,0,0,0,0,0,0,20,
scooby_state_405634|21|1 19,0,0,0,0,0,0,0,0,0,0,0,0,0,0,19,
scooby_state_405634|24|1 19,0,0,0,0,0,0,0,0,0,0,0,0,0,0,19,
scooby_state_405634|26|1 19,0,0,0,0,0,0,0,0,0,0,0,0,0,0,19,
scooby_state_405634|19|1 19,0,0,0,0,0,0,0,0,0,0,0,0,0,0,19,
scooby_state_405634|16|1 19,0,0,0,0,0,0,0,0,0,0,0,0,0,0,19,
scooby_state_405634|62|1 18,0,0,0,0,0,0,0,0,0,0,0,0,0,0,18,
scooby_state_405634|41|41 18,0,0,0,0,0,0,0,0,0,0,0,0,0,0,18,
scooby_state_42d583|34|-1 17,0,0,0,0,0,0,0,0,0,0,0,0,0,0,17,
scooby_state_42ddca|39|1 3,3,2,3,5,0,0,0,0,0,0,0,0,0,0,16,
scooby_state_405634|54|41 15,0,0,0,0,0,0,0,0,0,0,0,0,0,0,15,
scooby_state_405634|58|41 15,0,0,0,0,0,0,0,0,0,0,0,0,0,0,15,
scooby_state_42d583|38|1 15,0,0,0,0,0,0,0,0,0,0,0,0,0,0,15,
scooby_state_405278|36|1 14,0,0,0,0,0,0,0,0,0,0,0,0,0,0,14,
scooby_state_405278|35|1 14,0,0,0,0,0,0,0,0,0,0,0,0,0,0,14,
scooby_state_405278|34|1 14,0,0,0,0,0,0,0,0,0,0,0,0,0,0,14,
scooby_state_405634|47|41 14,0,0,0,0,0,0,0,0,0,0,0,0,0,0,14,
scooby_state_405634|57|41 14,0,0,0,0,0,0,0,0,0,0,0,0,0,0,14,
scooby_state_405634|53|1 14,0,0,0,0,0,0,0,0,0,0,0,0,0,0,14,
scooby_state_405278|2|-40 14,0,0,0,0,0,0,0,0,0,0,0,0,0,0,14,
scooby_state_42aa57|37|-2 14,0,0,0,0,0,0,0,0,0,0,0,0,0,0,14,
scooby_state_42cf1b|49|0 6,3,2,1,2,0,0,0,0,0,0,0,0,0,0,14,
scooby_state_405278|1|-40 14,0,0,0,0,0,0,0,0,0,0,0,0,0,0,14,
scooby_state_405634|56|41 13,0,0,0,0,0,0,0,0,0,0,0,0,0,0,13,
scooby_state_42aa57|37|-1 13,0,0,0,0,0,0,0,0,0,0,0,0,0,0,13,
scooby_state_405634|63|41 13,0,0,0,0,0,0,0,0,0,0,0,0,0,0,13,
scooby_state_405634|44|1 13,0,0,0,0,0,0,0,0,0,0,0,0,0,0,13,
scooby_state_405634|45|41 13,0,0,0,0,0,0,0,0,0,0,0,0,0,0,13,
scooby_state_405634|51|41 13,0,0,0,0,0,0,0,0,0,0,0,0,0,0,13,
scooby_state_405278|18|-40 13,0,0,0,0,0,0,0,0,0,0,0,0,0,0,13,
scooby_state_42d583|33|-1 12,1,0,0,0,0,0,0,0,0,0,0,0,0,0,13,
scooby_state_42ad8e|23|0 3,2,2,2,1,3,0,0,0,0,0,0,0,0,0,13,
scooby_state_405634|50|1 12,1,0,0,0,0,0,0,0,0,0,0,0,0,0,13,
scooby_state_42d583|35|-18 9,3,0,0,0,0,0,0,0,0,0,0,0,0,0,12,
scooby_state_400350|0|0 12,0,0,0,0,0,0,0,0,0,0,0,0,0,0,12,
scooby_state_405634|49|1 12,0,0,0,0,0,0,0,0,0,0,0,0,0,0,12,
scooby_state_405278|50|1 12,0,0,0,0,0,0,0,0,0,0,0,0,0,0,12,
scooby_state_42ce7c|42|1 12,0,0,0,0,0,0,0,0,0,0,0,0,0,0,12,
scooby_state_405634|46|41 12,0,0,0,0,0,0,0,0,0,0,0,0,0,0,12,
scooby_state_42d583|39|-1 12,0,0,0,0,0,0,0,0,0,0,0,0,0,0,12,
scooby_state_405634|48|41 12,0,0,0,0,0,0,0,0,0,0,0,0,0,0,12,
scooby_state_405634|52|41 12,0,0,0,0,0,0,0,0,0,0,0,0,0,0,12,
scooby_state_405278|24|1 11,0,0,0,0,0,0,0,0,0,0,0,0,0,0,11,
scooby_state_42e373|37|0 0,0,0,3,5,1,2,0,0,0,0,0,0,0,0,11,
scooby_state_405634|60|41 11,0,0,0,0,0,0,0,0,0,0,0,0,0,0,11,
scooby_state_405278|45|1 11,0,0,0,0,0,0,0,0,0,0,0,0,0,0,11,
scooby_state_405634|55|1 11,0,0,0,0,0,0,0,0,0,0,0,0,0,0,11,
scooby_state_405278|0|-40 11,0,0,0,0,0,0,0,0,0,0,0,0,0,0,11,
scooby_state_4732f8|19|0 10,0,1,0,0,0,0,0,0,0,0,0,0,0,0,11,
scooby_state_405634|61|41 11,0,0,0,0,0,0,0,0,0,0,0,0,0,0,11,
scooby_state_405278|4|-40 11,0,0,0,0,0,0,0,0,0,0,0,0,0,0,11,
scooby_state_42d583|40|-1 11,0,0,0,0,0,0,0,0,0,0,0,0,0,0,11,
scooby_state_405278|49|1 11,0,0,0,0,0,0,0,0,0,0,0,0,0,0,11,
scooby_state_405634|52|1 10,0,0,0,0,0,0,0,0,0,0,0,0,0,0,10,
scooby_state_473fdd|53|-2 10,0,0,0,0,0,0,0,0,0,0,0,0,0,0,10,
scooby_state_405278|38|1 10,0,0,0,0,0,0,0,0,0,0,0,0,0,0,10,
scooby_state_405278|39|1 10,0,0,0,0,0,0,0,0,0,0,0,0,0,0,10,
scooby_state_405634|55|41 10,0,0,0,0,0,0,0,0,0,0,0,0,0,0,10,
scooby_state_405634|49|41 10,0,0,0,0,0,0,0,0,0,0,0,0,0,0,10,
scooby_state_405278|26|1 10,0,0,0,0,0,0,0,0,0,0,0,0,0,0,10,
scooby_state_405634|60|1 10,0,0,0,0,0,0,0,0,0,0,0,0,0,0,10,
scooby_state_405278|27|1 10,0,0,0,0,0,0,0,0,0,0,0,0,0,0,10,
scooby_state_405278|42|1 10,0,0,0,0,0,0,0,0,0,0,0,0,0,0,10,
scooby_state_405278|19|-40 10,0,0,0,0,0,0,0,0,0,0,0,0,0,0,10,
scooby_state_42f34a|53|-2 10,0,0,0,0,0,0,0,0,0,0,0,0,0,0,10,
scooby_state_405278|9|-40 10,0,0,0,0,0,0,0,0,0,0,0,0,0,0,10,
scooby_state_405278|23|-40 10,0,0,0,0,0,0,0,0,0,0,0,0,0,0,10,
scooby_state_42d583|41|8 10,0,0,0,0,0,0,0,0,0,0,0,0,0,0,10,
scooby_state_405278|13|-40 10,0,0,0,0,0,0,0,0,0,0,0,0,0,0,10,
scooby_state_405278|17|-40 10,0,0,0,0,0,0,0,0,0,0,0,0,0,0,10,
scooby_state_405634|61|1 9,0,0,0,0,0,0,0,0,0,0,0,0,0,0,9,
scooby_state_405634|48|1 9,0,0,0,0,0,0,0,0,0,0,0,0,0,0,9,
scooby_state_405278|37|1 9,0,0,0,0,0,0,0,0,0,0,0,0,0,0,9,
scooby_state_405278|33|1 9,0,0,0,0,0,0,0,0,0,0,0,0,0,0,9,
scooby_state_405278|16|-40 9,0,0,0,0,0,0,0,0,0,0,0,0,0,0,9,
scooby_state_405278|25|1 8,0,0,0,0,0,0,0,0,0,1,0,0,0,0,9,
scooby_state_405278|48|1 9,0,0,0,0,0,0,0,0,0,0,0,0,0,0,9,
scooby_state_405634|46|1 9,0,0,0,0,0,0,0,0,0,0,0,0,0,0,9,
scooby_state_405634|45|1 9,0,0,0,0,0,0,0,0,0,0,0,0,0,0,9,
scooby_state_405278|41|1 9,0,0,0,0,0,0,0,0,0,0,0,0,0,0,9,
scooby_state_405278|32|1 9,0,0,0,0,0,0,0,0,0,0,0,0,0,0,9,
scooby_state_42db43|37|5 9,0,0,0,0,0,0,0,0,0,0,0,0,0,0,9,
scooby_state_405634|44|41 9,0,0,0,0,0,0,0,0,0,0,0,0,0,0,9,
scooby_state_405278|14|-40 9,0,0,0,0,0,0,0,0,0,0,0,0,0,0,9,
scooby_state_405634|50|41 9,0,0,0,0,0,0,0,0,0,0,0,0,0,0,9,
scooby_state_405278|15|-40 9,0,0,0,0,0,0,0,0,0,0,0,0,0,0,9,
scooby_state_405278|22|-40 9,0,0,0,0,0,0,0,0,0,0,0,0,0,0,9,
scooby_state_405278|7|-40 9,0,0,0,0,0,0,0,0,0,0,0,0,0,0,9,
scooby_state_405634|51|1 8,0,0,0,0,0,0,0,0,0,0,0,0,0,0,8,
scooby_state_405278|6|-40 8,0,0,0,0,0,0,0,0,0,0,0,0,0,0,8,
scooby_state_405278|29|1 8,0,0,0,0,0,0,0,0,0,0,0,0,0,0,8,
scooby_state_405658|12|1 8,0,0,0,0,0,0,0,0,0,0,0,0,0,0,8,
scooby_state_42d583|32|1 8,0,0,0,0,0,0,0,0,0,0,0,0,0,0,8,
scooby_state_405278|51|1 8,0,0,0,0,0,0,0,0,0,0,0,0,0,0,8,
scooby_state_405658|7|1 8,0,0,0,0,0,0,0,0,0,0,0,0,0,0,8,
scooby_state_405658|2|1 8,0,0,0,0,0,0,0,0,0,0,0,0,0,0,8,
scooby_state_405634|57|1 8,0,0,0,0,0,0,0,0,0,0,0,0,0,0,8,
scooby_state_42f343|55|-3 8,0,0,0,0,0,0,0,0,0,0,0,0,0,0,8,
scooby_state_405634|47|1 8,0,0,0,0,0,0,0,0,0,0,0,0,0,0,8,
scooby_state_405278|11|-40 8,0,0,0,0,0,0,0,0,0,0,0,0,0,0,8,
scooby_state_405278|44|2 8,0,0,0,0,0,0,0,0,0,0,0,0,0,0,8,
scooby_state_40575a|9|1 8,0,0,0,0,0,0,0,0,0,0,0,0,0,0,8,
scooby_state_42a704|48|-1 8,0,0,0,0,0,0,0,0,0,0,0,0,0,0,8,
scooby_state_40575a|4|1 8,0,0,0,0,0,0,0,0,0,0,0,0,0,0,8,
scooby_state_405295|42|1 7,0,0,0,0,0,0,0,0,0,0,0,0,0,0,7,
scooby_state_40575a|7|1 7,0,0,0,0,0,0,0,0,0,0,0,0,0,0,7,
scooby_state_405658|32|1 7,0,0,0,0,0,0,0,0,0,0,0,0,0,0,7,
scooby_state_405268|1|-40 7,0,0,0,0,0,0,0,0,0,0,0,0,0,0,7,
scooby_state_405658|30|1 7,0,0,0,0,0,0,0,0,0,0,0,0,0,0,7,
scooby_state_40575a|18|1 7,0,0,0,0,0,0,0,0,0,0,0,0,0,0,7,
scooby_state_40575a|34|1 7,0,0,0,0,0,0,0,0,0,0,0,0,0,0,7,
scooby_state_405658|36|1 7,0,0,0,0,0,0,0,0,0,0,0,0,0,0,7,
scooby_state_40575a|43|41 7,0,0,0,0,0,0,0,0,0,0,0,0,0,0,7,
scooby_state_40575a|28|1 7,0,0,0,0,0,0,0,0,0,0,0,0,0,0,7,
scooby_state_40575a|29|1 7,0,0,0,0,0,0,0,0,0,0,0,0,0,0,7,
scooby_state_405301|35|1 7,0,0,0,0,0,0,0,0,0,0,0,0,0,0,7,
scooby_state_42f34a|51|-3 7,0,0,0,0,0,0,0,0,0,0,0,0,0,0,7,
scooby_state_40575a|38|1 7,0,0,0,0,0,0,0,0,0,0,0,0,0,0,7,
scooby_state_405658|6|1 7,0,0,0,0,0,0,0,0,0,0,0,0,0,0,7,
scooby_state_405301|49|1 7,0,0,0,0,0,0,0,0,0,0,0,0,0,0,7,
scooby_state_405634|53|41 7,0,0,0,0,0,0,0,0,0,0,0,0,0,0,7,
scooby_state_405658|5|1 7,0,0,0,0,0,0,0,0,0,0,0,0,0,0,7,
scooby_state_42d51c|31|2 7,0,0,0,0,0,0,0,0,0,0,0,0,0,0,7,
scooby_state_40575a|3|1 7,0,0,0,0,0,0,0,0,0,0,0,0,0,0,7,
scooby_state_40575a|2|1 7,0,0,0,0,0,0,0,0,0,0,0,0,0,0,7,
scooby_state_405268|36|1 7,0,0,0,0,0,0,0,0,0,0,0,0,0,0,7,
scooby_state_40575a|13|1 7,0,0,0,0,0,0,0,0,0,0,0,0,0,0,7,
scooby_state_405658|15|1 7,0,0,0,0,0,0,0,0,0,0,0,0,0,0,7,
scooby_state_40575a|24|1 7,0,0,0,0,0,0,0,0,0,0,0,0,0,0,7,
scooby_state_405278|55|1 7,0,0,0,0,0,0,0,0,0,0,0,0,0,0,7,
scooby_state_40575a|42|41 7,0,0,0,0,0,0,0,0,0,0,0,0,0,0,7,
scooby_state_40575a|27|1 7,0,0,0,0,0,0,0,0,0,0,0,0,0,0,7,
scooby_state_40575a|23|1 7,0,0,0,0,0,0,0,0,0,0,0,0,0,0,7,
scooby_state_405295|1|-40 7,0,0,0,0,0,0,0,0,0,0,0,0,0,0,7,
scooby_state_405658|35|1 7,0,0,0,0,0,0,0,0,0,0,0,0,0,0,7,
scooby_state_40575a|14|1 7,0,0,0,0,0,0,0,0,0,0,0,0,0,0,7,
scooby_state_405301|0|-40 7,0,0,0,0,0,0,0,0,0,0,0,0,0,0,7,
scooby_state_405658|40|1 7,0,0,0,0,0,0,0,0,0,0,0,0,0,0,7,
scooby_state_40575a|46|1 7,0,0,0,0,0,0,0,0,0,0,0,0,0,0,7,
scooby_state_405295|34|1 7,0,0,0,0,0,0,0,0,0,0,0,0,0,0,7,
scooby_state_405301|2|-40 7,0,0,0,0,0,0,0,0,0,0,0,0,0,0,7,
scooby_state_405658|1|1 7,0,0,0,0,0,0,0,0,0,0,0,0,0,0,7,
scooby_state_40575a|19|1 7,0,0,0,0,0,0,0,0,0,0,0,0,0,0,7,
scooby_state_405301|18|-40 7,0,0,0,0,0,0,0,0,0,0,0,0,0,0,7,
scooby_state_405295|35|1 7,0,0,0,0,0,0,0,0,0,0,0,0,0,0,7,
scooby_state_405268|41|1 7,0,0,0,0,0,0,0,0,0,0,0,0,0,0,7,
scooby_state_40575a|8|1 7,0,0,0,0,0,0,0,0,0,0,0,0,0,0,7,
scooby_state_405658|37|1 7,0,0,0,0,0,0,0,0,0,0,0,0,0,0,7,
scooby_state_405658|29|1 7,0,0,0,0,0,0,0,0,0,0,0,0,0,0,7,
scooby_state_40575a|35|1 7,0,0,0,0,0,0,0,0,0,0,0,0,0,0,7,
scooby_state_405658|11|1 7,0,0,0,0,0,0,0,0,0,0,0,0,0,0,7,
scooby_state_40575a|37|1 7,0,0,0,0,0,0,0,0,0,0,0,0,0,0,7,
scooby_state_405268|35|1 7,0,0,0,0,0,0,0,0,0,0,0,0,0,0,7,
scooby_state_405278|28|1 7,0,0,0,0,0,0,0,0,0,0,0,0,0,0,7,
scooby_state_405301|34|1 7,0,0,0,0,0,0,0,0,0,0,0,0,0,0,7,
scooby_state_405268|34|1 7,0,0,0,0,0,0,0,0,0,0,0,0,0,0,7,
scooby_state_40575a|31|1 7,0,0,0,0,0,0,0,0,0,0,0,0,0,0,7,
scooby_state_405658|17|1 7,0,0,0,0,0,0,0,0,0,0,0,0,0,0,7,
scooby_state_40575a|32|1 7,0,0,0,0,0,0,0,0,0,0,0,0,0,0,7,
scooby_state_405634|56|1 7,0,0,0,0,0,0,0,0,0,0,0,0,0,0,7,
scooby_state_405301|1|-40 7,0,0,0,0,0,0,0,0,0,0,0,0,0,0,7,
scooby_state_405658|26|1 7,0,0,0,0,0,0,0,0,0,0,0,0,0,0,7,
scooby_state_405658|16|1 7,0,0,0,0,0,0,0,0,0,0,0,0,0,0,7,
scooby_state_40575a|6|1 7,0,0,0,0,0,0,0,0,0,0,0,0,0,0,7,
scooby_state_405658|10|1 7,0,0,0,0,0,0,0,0,0,0,0,0,0,0,7,
scooby_state_405278|58|2 7,0,0,0,0,0,0,0,0,0,0,0,0,0,0,7,
scooby_state_405278|40|1 7,0,0,0,0,0,0,0,0,0,0,0,0,0,0,7,
scooby_state_40575a|33|1 7,0,0,0,0,0,0,0,0,0,0,0,0,0,0,7,
scooby_state_405658|27|1 7,0,0,0,0,0,0,0,0,0,0,0,0,0,0,7,
scooby_state_405658|0|0 7,0,0,0,0,0,0,0,0,0,0,0,0,0,0,7,
scooby_state_40575a|36|1 7,0,0,0,0,0,0,0,0,0,0,0,0,0,0,7,
scooby_state_405658|19|1 7,0,0,0,0,0,0,0,0,0,0,0,0,0,0,7,
scooby_state_405658|14|1 6,0,0,0,0,0,0,0,0,0,1,0,0,0,0,7,
scooby_state_40575a|16|1 7,0,0,0,0,0,0,0,0,0,0,0,0,0,0,7,
scooby_state_405268|18|-40 7,0,0,0,0,0,0,0,0,0,0,0,0,0,0,7,
scooby_state_405634|63|1 7,0,0,0,0,0,0,0,0,0,0,0,0,0,0,7,
scooby_state_405658|22|1 7,0,0,0,0,0,0,0,0,0,0,0,0,0,0,7,
scooby_state_40575a|11|1 7,0,0,0,0,0,0,0,0,0,0,0,0,0,0,7,
scooby_state_405658|9|1 7,0,0,0,0,0,0,0,0,0,0,0,0,0,0,7,
scooby_state_405658|4|1 7,0,0,0,0,0,0,0,0,0,0,0,0,0,0,7,
scooby_state_405658|31|1 7,0,0,0,0,0,0,0,0,0,0,0,0,0,0,7,
scooby_state_405658|21|1 7,0,0,0,0,0,0,0,0,0,0,0,0,0,0,7,
scooby_state_405658|59|41 7,0,0,0,0,0,0,0,0,0,0,0,0,0,0,7,
scooby_state_40575a|61|1 7,0,0,0,0,0,0,0,0,0,0,0,0,0,0,7,
scooby_state_405658|39|1 7,0,0,0,0,0,0,0,0,0,0,0,0,0,0,7,
scooby_state_405634|54|1 7,0,0,0,0,0,0,0,0,0,0,0,0,0,0,7,
scooby_state_40575a|39|1 7,0,0,0,0,0,0,0,0,0,0,0,0,0,0,7,
scooby_state_405658|34|1 7,0,0,0,0,0,0,0,0,0,0,0,0,0,0,7,
scooby_state_405658|42|41 7,0,0,0,0,0,0,0,0,0,0,0,0,0,0,7,
scooby_state_40575a|1|1 7,0,0,0,0,0,0,0,0,0,0,0,0,0,0,7,
scooby_state_405301|36|1 7,0,0,0,0,0,0,0,0,0,0,0,0,0,0,7,
scooby_state_405278|53|2 7,0,0,0,0,0,0,0,0,0,0,0,0,0,0,7,
scooby_state_40575a|12|1 7,0,0,0,0,0,0,0,0,0,0,0,0,0,0,7,
scooby_state_405658|24|1 6,0,0,1,0,0,0,0,0,0,0,0,0,0,0,7,
scooby_state_405658|33|1 7,0,0,0,0,0,0,0,0,0,0,0,0,0,0,7,
scooby_state_405295|36|1 7,0,0,0,0,0,0,0,0,0,0,0,0,0,0,7,
scooby_state_40575a|26|1 7,0,0,0,0,0,0,0,0,0,0,0,0,0,0,7,
scooby_state_405658|38|1 7,0,0,0,0,0,0,0,0,0,0,0,0,0,0,7,
scooby_state_405268|2|-40 7,0,0,0,0,0,0,0,0,0,0,0,0,0,0,7,
scooby_state_40575a|40|1 7,0,0,0,0,0,0,0,0,0,0,0,0,0,0,7,
scooby_state_405658|49|1 7,0,0,0,0,0,0,0,0,0,0,0,0,0,0,7,
scooby_state_405658|43|41 7,0,0,0,0,0,0,0,0,0,0,0,0,0,0,7,
scooby_state_40575a|21|1 7,0,0,0,0,0,0,0,0,0,0,0,0,0,0,7,
scooby_state_405295|45|1 6,0,0,0,0,0,0,0,0,0,0,0,0,0,0,6,
scooby_state_40575a|58|41 6,0,0,0,0,0,0,0,0,0,0,0,0,0,0,6,
scooby_state_405268|42|1 6,0,0,0,0,0,0,0,0,0,0,0,0,0,0,6,
scooby_state_40575a|54|41 6,0,0,0,0,0,0,0,0,0,0,0,0,0,0,6,
scooby_state_42a782|11|1 6,0,0,0,0,0,0,0,0,0,0,0,0,0,0,6,
scooby_state_405295|2|-40 6,0,0,0,0,0,0,0,0,0,0,0,0,0,0,6,
scooby_state_405268|27|1 6,0,0,0,0,0,0,0,0,0,0,0,0,0,0,6,
scooby_state_405268|5|-40 6,0,0,0,0,0,0,0,0,0,0,0,0,0,0,6,
scooby_state_405658|55|1 6,0,0,0,0,0,0,0,0,0,0,0,0,0,0,6,
scooby_state_40575a|63|41 6,0,0,0,0,0,0,0,0,0,0,0,0,0,0,6,
scooby_state_405295|7|-40 6,0,0,0,0,0,0,0,0,0,0,0,0,0,0,6,
scooby_state_405301|25|1 6,0,0,0,0,0,0,0,0,0,0,0,0,0,0,6,
scooby_state_42db43|37|-2 6,0,0,0,0,0,0,0,0,0,0,0,0,0,0,6,
scooby_state_405278|56|2 6,0,0,0,0,0,0,0,0,0,0,0,0,0,0,6,
scooby_state_405268|6|-40 6,0,0,0,0,0,0,0,0,0,0,0,0,0,0,6,
scooby_state_405658|25|1 6,0,0,0,0,0,0,0,0,0,0,0,0,0,0,6,
scooby_state_405301|45|1 6,0,0,0,0,0,0,0,0,0,0,0,0,0,0,6,
scooby_state_405268|45|1 6,0,0,0,0,0,0,0,0,0,0,0,0,0,0,6,
scooby_state_405301|24|1 6,0,0,0,0,0,0,0,0,0,0,0,0,0,0,6,
scooby_state_405301|48|1 6,0,0,0,0,0,0,0,0,0,0,0,0,0,0,6,
scooby_state_405268|16|-40 6,0,0,0,0,0,0,0,0,0,0,0,0,0,0,6,
scooby_state_405268|26|1 6,0,0,0,0,0,0,0,0,0,0,0,0,0,0,6,
scooby_state_40575a|59|41 6,0,0,0,0,0,0,0,0,0,0,0,0,0,0,6,
scooby_state_405295|22|-40 6,0,0,0,0,0,0,0,0,0,0,0,0,0,0,6,
scooby_state_405295|17|-40 6,0,0,0,0,0,0,0,0,0,0,0,0,0,0,6,
scooby_state_405658|60|1 6,0,0,0,0,0,0,0,0,0,0,0,0,0,0,6,
scooby_state_42f5ea|47|-4 1,3,1,1,0,0,0,0,0,0,0,0,0,0,0,6,
scooby_state_405301|10|-40 6,0,0,0,0,0,0,0,0,0,0,0,0,0,0,6,
scooby_state_405301|13|-40 6,0,0,0,0,0,0,0,0,0,0,0,0,0,0,6,
scooby_state_40575a|45|41 6,0,0,0,0,0,0,0,0,0,0,0,0,0,0,6,
scooby_state_405658|3|1 6,0,0,0,0,0,0,0,0,0,0,0,0,0,0,6,
scooby_state_40575a|5|1 6,0,0,0,0,0,0,0,0,0,0,0,0,0,0,6,
scooby_state_405268|25|1 6,0,0,0,0,0,0,0,0,0,0,0,0,0,0,6,
scooby_state_405301|19|-40 6,0,0,0,0,0,0,0,0,0,0,0,0,0,0,6,
scooby_state_42f343|54|-2 6,0,0,0,0,0,0,0,0,0,0,0,0,0,0,6,
scooby_state_405658|41|41 6,0,0,0,0,0,0,0,0,0,0,0,0,0,0,6,
scooby_state_405278|10|-40 6,0,0,0,0,0,0,0,0,0,0,0,0,0,0,6,
scooby_state_405658|47|41 6,0,0,0,0,0,0,0,0,0,0,0,0,0,0,6,
scooby_state_40575a|25|1 6,0,0,0,0,0,0,0,0,0,0,0,0,0,0,6,
scooby_state_40575a|51|1 6,0,0,0,0,0,0,0,0,0,0,0,0,0,0,6,
scooby_state_40575a|50|41 6,0,0,0,0,0,0,0,0,0,0,0,0,0,0,6,
scooby_state_405295|18|-40 6,0,0,0,0,0,0,0,0,0,0,0,0,0,0,6,
scooby_state_40575a|0|0 6,0,0,0,0,0,0,0,0,0,0,0,0,0,0,6,
scooby_state_405658|57|41 6,0,0,0,0,0,0,0,0,0,0,0,0,0,0,6,
scooby_state_405658|8|1 6,0,0,0,0,0,0,0,0,0,0,0,0,0,0,6,
scooby_state_405268|56|1 6,0,0,0,0,0,0,0,0,0,0,0,0,0,0,6,
scooby_state_40575a|48|41 6,0,0,0,0,0,0,0,0,0,0,0,0,0,0,6,
scooby_state_405295|26|1 6,0,0,0,0,0,0,0,0,0,0,0,0,0,0,6,
scooby_state_405301|38|1 6,0,0,0,0,0,0,0,0,0,0,0,0,0,0,6,
scooby_state_405658|23|1 6,0,0,0,0,0,0,0,0,0,0,0,0,0,0,6,
scooby_state_405268|17|-40 6,0,0,0,0,0,0,0,0,0,0,0,0,0,0,6,
scooby_state_40575a|20|1 6,0,0,0,0,0,0,0,0,0,0,0,0,0,0,6,
scooby_state_405658|20|1 6,0,0,0,0,0,0,0,0,0,0,0,0,0,0,6,
scooby_state_405295|6|-40 6,0,0,0,0,0,0,0,0,0,0,0,0,0,0,6,
scooby_state_405268|50|1 6,0,0,0,0,0,0,0,0,0,0,0,0,0,0,6,
scooby_state_405301|23|-40 6,0,0,0,0,0,0,0,0,0,0,0,0,0,0,6,
scooby_state_40575a|10|1 6,0,0,0,0,0,0,0,0,0,0,0,0,0,0,6,
scooby_state_405301|33|1 6,0,0,0,0,0,0,0,0,0,0,0,0,0,0,6,
scooby_state_405658|18|1 6,0,0,0,0,0,0,0,0,0,0,0,0,0,0,6,
scooby_state_405295|37|1 6,0,0,0,0,0,0,0,0,0,0,0,0,0,0,6,
scooby_state_40575a|15|1 6,0,0,0,0,0,0,0,0,0,0,0,0,0,0,6,
scooby_state_405295|51|1 6,0,0,0,0,0,0,0,0,0,0,0,0,0,0,6,
scooby_state_473316|55|2 6,0,0,0,0,0,0,0,0,0,0,0,0,0,0,6,
scooby_state_405658|58|41 6,0,0,0,0,0,0,0,0,0,0,0,0,0,0,6,
scooby_state_40575a|30|1 6,0,0,0,0,0,0,0,0,0,0,0,0,0,0,6,
scooby_state_405278|47|2 6,0,0,0,0,0,0,0,0,0,0,0,0,0,0,6,
scooby_state_405301|50|1 6,0,0,0,0,0,0,0,0,0,0,0,0,0,0,6,
scooby_state_405268|49|1 6,0,0,0,0,0,0,0,0,0,0,0,0,0,0,6,
scooby_state_405301|42|1 6,0,0,0,0,0,0,0,0,0,0,0,0,0,0,6,
scooby_state_405658|28|1 6,0,0,0,0,0,0,0,0,0,0,0,0,0,0,6,
scooby_state_40575a|22|1 6,0,0,0,0,0,0,0,0,0,0,0,0,0,0,6,
scooby_state_40575a|17|1 6,0,0,0,0,0,0,0,0,0,0,0,0,0,0,6,
scooby_state_405658|13|1 6,0,0,0,0,0,0,0,0,0,0,0,0,0,0,6,
scooby_state_405301|39|1 6,0,0,0,0,0,0,0,0,0,0,0,0,0,0,6,
scooby_state_405658|46|41 6,0,0,0,0,0,0,0,0,0,0,0,0,0,0,6,
scooby_state_405295|16|-40 6,0,0,0,0,0,0,0,0,0,0,0,0,0,0,6,
scooby_state_405268|0|-40 6,0,0,0,0,0,0,0,0,0,0,0,0,0,0,6,
scooby_state_405658|48|41 5,0,0,0,0,0,0,0,0,0,0,0,0,0,0,5,
scooby_state_405295|8|-40 5,0,0,0,0,0,0,0,0,0,0,0,0,0,0,5,
scooby_state_405295|32|1 5,0,0,0,0,0,0,0,0,0,0,0,0,0,0,5,
scooby_state_405658|52|41 5,0,0,0,0,0,0,0,0,0,0,0,0,0,0,5,
scooby_state_405301|5|-40 5,0,0,0,0,0,0,0,0,0,0,0,0,0,0,5,
scooby_state_405268|12|-40 5,0,0,0,0,0,0,0,0,0,0,0,0,0,0,5,
scooby_state_405658|53|41 5,0,0,0,0,0,0,0,0,0,0,0,0,0,0,5,
scooby_state_405295|11|-40 5,0,0,0,0,0,0,0,0,0,0,0,0,0,0,5,
scooby_state_405295|23|-40 5,0,0,0,0,0,0,0,0,0,0,0,0,0,0,5,
scooby_state_42ce7c|41|12 5,0,0,0,0,0,0,0,0,0,0,0,0,0,0,5,
scooby_state_405295|13|-40 5,0,0,0,0,0,0,0,0,0,0,0,0,0,0,5,
scooby_state_40575a|55|41 5,0,0,0,0,0,0,0,0,0,0,0,0,0,0,5,
scooby_state_40575a|60|41 5,0,0,0,0,0,0,0,0,0,0,0,0,0,0,5,
scooby_state_42a782|34|1 5,0,0,0,0,0,0,0,0,0,0,0,0,0,0,5,
scooby_state_405658|63|41 5,0,0,0,0,0,0,0,0,0,0,0,0,0,0,5,
scooby_state_40575a|41|41 5,0,0,0,0,0,0,0,0,0,0,0,0,0,0,5,
scooby_state_405268|40|1 5,0,0,0,0,0,0,0,0,0,0,0,0,0,0,5,
scooby_state_405278|20|-40 5,0,0,0,0,0,0,0,0,0,0,0,0,0,0,5,
scooby_state_405301|4|-40 5,0,0,0,0,0,0,0,0,0,0,0,0,0,0,5,
scooby_state_405295|0|-40 5,0,0,0,0,0,0,0,0,0,0,0,0,0,0,5,
scooby_state_4732c4|51|0 5,0,0,0,0,0,0,0,0,0,0,0,0,0,0,5,
scooby_state_40575a|62|1 5,0,0,0,0,0,0,0,0,0,0,0,0,0,0,5,
scooby_state_405295|27|1 5,0,0,0,0,0,0,0,0,0,0,0,0,0,0,5,
scooby_state_405268|15|-40 5,0,0,0,0,0,0,0,0,0,0,0,0,0,0,5,
scooby_state_405301|29|1 5,0,0,0,0,0,0,0,0,0,0,0,0,0,0,5,
scooby_state_405268|10|-40 5,0,0,0,0,0,0,0,0,0,0,0,0,0,0,5,
scooby_state_405301|44|2 5,0,0,0,0,0,0,0,0,0,0,0,0,0,0,5,
scooby_state_405268|7|-40 5,0,0,0,0,0,0,0,0,0,0,0,0,0,0,5,
scooby_state_405268|51|1 5,0,0,0,0,0,0,0,0,0,0,0,0,0,0,5,
scooby_state_405658|51|41 5,0,0,0,0,0,0,0,0,0,0,0,0,0,0,5,
scooby_state_42db43|37|-10 5,0,0,0,0,0,0,0,0,0,0,0,0,0,0,5,
scooby_state_405658|50|1 5,0,0,0,0,0,0,0,0,0,0,0,0,0,0,5,
scooby_state_405278|3|-40 5,0,0,0,0,0,0,0,0,0,0,0,0,0,0,5,
scooby_state_405278|54|1 5,0,0,0,0,0,0,0,0,0,0,0,0,0,0,5,
scooby_state_42a6c3|60|0 5,0,0,0,0,0,0,0,0,0,0,0,0,0,0,5,
scooby_state_405295|33|1 5,0,0,0,0,0,0,0,0,0,0,0,0,0,0,5,
scooby_state_405295|3|-40 5,0,0,0,0,0,0,0,0,0,0,0,0,0,0,5,
scooby_state_405268|11|-40 5,0,0,0,0,0,0,0,0,0,0,0,0,0,0,5,
scooby_state_405268|22|-40 5,0,0,0,0,0,0,0,0,0,0,0,0,0,0,5,
scooby_state_405295|41|1 5,0,0,0,0,0,0,0,0,0,0,0,0,0,0,5,
scooby_state_405634|58|1 5,0,0,0,0,0,0,0,0,0,0,0,0,0,0,5,
scooby_state_405301|17|-40 5,0,0,0,0,0,0,0,0,0,0,0,0,0,0,5,
scooby_state_405295|12|-40 5,0,0,0,0,0,0,0,0,0,0,0,0,0,0,5,
scooby_state_405278|8|-40 5,0,0,0,0,0,0,0,0,0,0,0,0,0,0,5,
scooby_state_40575a|52|1 5,0,0,0,0,0,0,0,0,0,0,0,0,0,0,5,
scooby_state_42a782|22|1 5,0,0,0,0,0,0,0,0,0,0,0,0,0,0,5,
scooby_state_4732c4|51|-2 5,0,0,0,0,0,0,0,0,0,0,0,0,0,0,5,
scooby_state_405278|5|-40 5,0,0,0,0,0,0,0,0,0,0,0,0,0,0,5,
scooby_state_42a745|45|42 3,2,0,0,0,0,0,0,0,0,0,0,0,0,0,5,
scooby_state_405658|56|41 5,0,0,0,0,0,0,0,0,0,0,0,0,0,0,5,
scooby_state_405301|15|-40 5,0,0,0,0,0,0,0,0,0,0,0,0,0,0,5,
scooby_state_405301|14|-40 5,0,0,0,0,0,0,0,0,0,0,0,0,0,0,5,
scooby_state_405301|22|-40 4,0,0,0,0,0,0,0,0,0,0,0,0,0,0,4,
scooby_state_405278|12|-40 4,0,0,0,0,0,0,0,0,0,0,0,0,0,0,4,
scooby_state_40575a|56|1 4,0,0,0,0,0,0,0,0,0,0,0,0,0,0,4,
scooby_state_42e373|37|5 3,0,1,0,0,0,0,0,0,0,0,0,0,0,0,4,
scooby_state_405301|32|1 4,0,0,0,0,0,0,0,0,0,0,0,0,0,0,4,
scooby_state_405268|44|2 4,0,0,0,0,0,0,0,0,0,0,0,0,0,0,4,
scooby_state_42a745|34|-15 4,0,0,0,0,0,0,0,0,0,0,0,0,0,0,4,
scooby_state_405295|38|1 4,0,0,0,0,0,0,0,0,0,0,0,0,0,0,4,
scooby_state_42a704|60|-1 4,0,0,0,0,0,0,0,0,0,0,0,0,0,0,4,
scooby_state_42ce8e|0|-10 4,0,0,0,0,0,0,0,0,0,0,0,0,0,0,4,
scooby_state_42ce8e|8|8 3,0,0,0,0,0,0,0,0,0,1,0,0,0,0,4,
scooby_state_40575a|47|1 4,0,0,0,0,0,0,0,0,0,0,0,0,0,0,4,
scooby_state_405295|25|1 4,0,0,0,0,0,0,0,0,0,0,0,0,0,0,4,
scooby_state_40575a|53|1 4,0,0,0,0,0,0,0,0,0,0,0,0,0,0,4,
scooby_state_405268|55|1 4,0,0,0,0,0,0,0,0,0,0,0,0,0,0,4,
scooby_state_405268|39|1 4,0,0,0,0,0,0,0,0,0,0,0,0,0,0,4,
scooby_state_405295|56|1 4,0,0,0,0,0,0,0,0,0,0,0,0,0,0,4,
scooby_state_405301|58|2 4,0,0,0,0,0,0,0,0,0,0,0,0,0,0,4,
scooby_state_405268|24|1 4,0,0,0,0,0,0,0,0,0,0,0,0,0,0,4,
scooby_state_405301|37|1 4,0,0,0,0,0,0,0,0,0,0,0,0,0,0,4,
scooby_state_405295|47|2 4,0,0,0,0,0,0,0,0,0,0,0,0,0,0,4,
scooby_state_405301|53|2 4,0,0,0,0,0,0,0,0,0,0,0,0,0,0,4,
scooby_state_405658|62|1 4,0,0,0,0,0,0,0,0,0,0,0,0,0,0,4,
scooby_state_405658|61|1 4,0,0,0,0,0,0,0,0,0,0,0,0,0,0,4,
scooby_state_42d583|39|5 4,0,0,0,0,0,0,0,0,0,0,0,0,0,0,4,
scooby_state_405658|44|1 4,0,0,0,0,0,0,0,0,0,0,0,0,0,0,4,
scooby_state_405301|20|-40 4,0,0,0,0,0,0,0,0,0,0,0,0,0,0,4,
scooby_state_405301|51|1 4,0,0,0,0,0,0,0,0,0,0,0,0,0,0,4,
scooby_state_405268|32|1 4,0,0,0,0,0,0,0,0,0,0,0,0,0,0,4,
scooby_state_40575a|44|41 4,0,0,0,0,0,0,0,0,0,0,0,0,0,0,4,
scooby_state_405301|28|1 4,0,0,0,0,0,0,0,0,0,0,0,0,0,0,4,
scooby_state_405301|8|-40 4,0,0,0,0,0,0,0,0,0,0,0,0,0,0,4,
scooby_state_405658|61|41 4,0,0,0,0,0,0,0,0,0,0,0,0,0,0,4,
scooby_state_405268|20|-40 4,0,0,0,0,0,0,0,0,0,0,0,0,0,0,4,
scooby_state_405268|37|1 4,0,0,0,0,0,0,0,0,0,0,0,0,0,0,4,
scooby_state_405295|28|1 4,0,0,0,0,0,0,0,0,0,0,0,0,0,0,4,
scooby_state_42ce7c|41|-1 4,0,0,0,0,0,0,0,0,0,0,0,0,0,0,4,
scooby_state_405658|54|1 4,0,0,0,0,0,0,0,0,0,0,0,0,0,0,4,
scooby_state_42f5ea|47|10 4,0,0,0,0,0,0,0,0,0,0,0,0,0,0,4,
scooby_state_42d583|32|-5 4,0,0,0,0,0,0,0,0,0,0,0,0,0,0,4,
scooby_state_473316|55|4 4,0,0,0,0,0,0,0,0,0,0,0,0,0,0,4,
scooby_state_42a745|34|1 4,0,0,0,0,0,0,0,0,0,0,0,0,0,0,4,
scooby_state_405278|43|1 4,0,0,0,0,0,0,0,0,0,0,0,0,0,0,4,
scooby_state_405301|27|1 4,0,0,0,0,0,0,0,0,0,0,0,0,0,0,4,
scooby_state_40575a|49|41 4,0,0,0,0,0,0,0,0,0,0,0,0,0,0,4,
scooby_state_405301|9|-40 4,0,0,0,0,0,0,0,0,0,0,0,0,0,0,4,
scooby_state_405268|33|1 4,0,0,0,0,0,0,0,0,0,0,0,0,0,0,4,
scooby_state_40575a|53|41 4,0,0,0,0,0,0,0,0,0,0,0,0,0,0,4,
scooby_state_405278|44|1 4,0,0,0,0,0,0,0,0,0,0,0,0,0,0,4,
scooby_state_40575a|57|41 4,0,0,0,0,0,0,0,0,0,0,0,0,0,0,4,
scooby_state_405634|62|41 4,0,0,0,0,0,0,0,0,0,0,0,0,0,0,4,
scooby_state_405278|48|3 4,0,0,0,0,0,0,0,0,0,0,0,0,0,0,4,
scooby_state_42da1d|42|4 2,1,1,0,0,0,0,0,0,0,0,0,0,0,0,4,
scooby_state_42a745|0|0 4,0,0,0,0,0,0,0,0,0,0,0,0,0,0,4,
scooby_state_405301|54|1 4,0,0,0,0,0,0,0,0,0,0,0,0,0,0,4,
scooby_state_405658|45|1 4,0,0,0,0,0,0,0,0,0,0,0,0,0,0,4,
scooby_state_405295|39|1 3,0,0,0,0,0,0,0,0,0,0,0,0,0,0,3,
scooby_state_42f5ea|47|9 3,0,0,0,0,0,0,0,0,0,0,0,0,0,0,3,
scooby_state_42a745|1|-48 3,0,0,0,0,0,0,0,0,0,0,0,0,0,0,3,
scooby_state_405295|44|1 3,0,0,0,0,0,0,0,0,0,0,0,0,0,0,3,
scooby_state_405268|61|1 3,0,0,0,0,0,0,0,0,0,0,0,0,0,0,3,
scooby_state_42ce8e|47|5 3,0,0,0,0,0,0,0,0,0,0,0,0,0,0,3,
scooby_state_405301|7|-40 3,0,0,0,0,0,0,0,0,0,0,0,0,0,0,3,
scooby_state_405278|31|4 3,0,0,0,0,0,0,0,0,0,0,0,0,0,0,3,
scooby_state_405658|51|1 3,0,0,0,0,0,0,0,0,0,0,0,0,0,0,3,
scooby_state_405658|56|1 3,0,0,0,0,0,0,0,0,0,0,0,0,0,0,3,
scooby_state_42ce8e|10|-26 3,0,0,0,0,0,0,0,0,0,0,0,0,0,0,3,
scooby_state_405278|41|2 3,0,0,0,0,0,0,0,0,0,0,0,0,0,0,3,
scooby_state_405295|24|1 3,0,0,0,0,0,0,0,0,0,0,0,0,0,0,3,
scooby_state_405278|30|1 3,0,0,0,0,0,0,0,0,0,0,0,0,0,0,3,
scooby_state_405301|26|1 3,0,0,0,0,0,0,0,0,0,0,0,0,0,0,3,
scooby_state_405268|23|-40 3,0,0,0,0,0,0,0,0,0,0,0,0,0,0,3,
scooby_state_42db80|38|0 3,0,0,0,0,0,0,0,0,0,0,0,0,0,0,3,
scooby_state_405301|16|-40 3,0,0,0,0,0,0,0,0,0,0,0,0,0,0,3,
scooby_state_405295|49|1 3,0,0,0,0,0,0,0,0,0,0,0,0,0,0,3,
scooby_state_405278|26|-37 3,0,0,0,0,0,0,0,0,0,0,0,0,0,0,3,
scooby_state_405268|13|-40 3,0,0,0,0,0,0,0,0,0,0,0,0,0,0,3,
scooby_state_42ce7c|29|-13 3,0,0,0,0,0,0,0,0,0,0,0,0,0,0,3,
scooby_state_42db43|37|6 3,0,0,0,0,0,0,0,0,0,0,0,0,0,0,3,
scooby_state_42ce8e|18|-27 3,0,0,0,0,0,0,0,0,0,0,0,0,0,0,3,
scooby_state_42ce8e|53|20 3,0,0,0,0,0,0,0,0,0,0,0,0,0,0,3,
scooby_state_42a745|49|5 3,0,0,0,0,0,0,0,0,0,0,0,0,0,0,3,
scooby_state_42a745|10|7 3,0,0,0,0,0,0,0,0,0,0,0,0,0,0,3,
scooby_state_405295|50|1 3,0,0,0,0,0,0,0,0,0,0,0,0,0,0,3,
scooby_state_40519e|45|1 3,0,0,0,0,0,0,0,0,0,0,0,0,0,0,3,
scooby_state_42a782|30|1 3,0,0,0,0,0,0,0,0,0,0,0,0,0,0,3,
scooby_state_405295|55|1 3,0,0,0,0,0,0,0,0,0,0,0,0,0,0,3,
scooby_state_4050a7|44|2 3,0,0,0,0,0,0,0,0,0,0,0,0,0,0,3,
scooby_state_405295|31|2 3,0,0,0,0,0,0,0,0,0,0,0,0,0,0,3,
scooby_state_405658|54|41 3,0,0,0,0,0,0,0,0,0,0,0,0,0,0,3,
scooby_state_42a782|17|1 3,0,0,0,0,0,0,0,0,0,0,0,0,0,0,3,
scooby_state_42f76f|58|11 3,0,0,0,0,0,0,0,0,0,0,0,0,0,0,3,
scooby_state_42a745|13|-30 3,0,0,0,0,0,0,0,0,0,0,0,0,0,0,3,
scooby_state_405268|31|2 3,0,0,0,0,0,0,0,0,0,0,0,0,0,0,3,
scooby_state_42f34a|51|9 0,2,1,0,0,0,0,0,0,0,0,0,0,0,0,3,
scooby_state_40575a|49|1 3,0,0,0,0,0,0,0,0,0,0,0,0,0,0,3,
scooby_state_42ce8e|19|-28 3,0,0,0,0,0,0,0,0,0,0,0,0,0,0,3,
scooby_state_405278|56|1 3,0,0,0,0,0,0,0,0,0,0,0,0,0,0,3,
scooby_state_405268|54|1 3,0,0,0,0,0,0,0,0,0,0,0,0,0,0,3,
scooby_state_405278|51|2 3,0,0,0,0,0,0,0,0,0,0,0,0,0,0,3,
scooby_state_405295|40|1 3,0,0,0,0,0,0,0,0,0,0,0,0,0,0,3,
scooby_state_405268|38|1 3,0,0,0,0,0,0,0,0,0,0,0,0,0,0,3,
scooby_state_42f76f|58|21 3,0,0,0,0,0,0,0,0,0,0,0,0,0,0,3,
scooby_state_405278|54|3 3,0,0,0,0,0,0,0,0,0,0,0,0,0,0,3,
scooby_state_42ce8e|52|8 3,0,0,0,0,0,0,0,0,0,0,0,0,0,0,3,
scooby_state_405295|43|1 3,0,0,0,0,0,0,0,0,0,0,0,0,0,0,3,
scooby_state_405658|45|41 3,0,0,0,0,0,0,0,0,0,0,0,0,0,0,3,
scooby_state_42ce8e|6|5 3,0,0,0,0,0,0,0,0,0,0,0,0,0,0,3,
scooby_state_42db43|37|0 3,0,0,0,0,0,0,0,0,0,0,0,0,0,0,3,
scooby_state_42a782|18|1 3,0,0,0,0,0,0,0,0,0,0,0,0,0,0,3,
scooby_state_405295|4|-40 3,0,0,0,0,0,0,0,0,0,0,0,0,0,0,3,
scooby_state_42ce8e|61|45 3,0,0,0,0,0,0,0,0,0,0,0,0,0,0,3,
scooby_state_405278|60|1 3,0,0,0,0,0,0,0,0,0,0,0,0,0,0,3,
scooby_state_405278|31|2 3,0,0,0,0,0,0,0,0,0,0,0,0,0,0,3,
scooby_state_405268|3|-40 3,0,0,0,0,0,0,0,0,0,0,0,0,0,0,3,
scooby_state_42ce8e|45|5 3,0,0,0,0,0,0,0,0,0,0,0,0,0,0,3,
scooby_state_405278|21|-40 3,0,0,0,0,0,0,0,0,0,0,0,0,0,0,3,
scooby_state_42a6c3|11|7 3,0,0,0,0,0,0,0,0,0,0,0,0,0,0,3,
scooby_state_42a745|49|15 3,0,0,0,0,0,0,0,0,0,0,0,0,0,0,3,
scooby_state_42ec5a|29|-18 3,0,0,0,0,0,0,0,0,0,0,0,0,0,0,3,
scooby_state_405268|43|1 3,0,0,0,0,0,0,0,0,0,0,0,0,0,0,3,
scooby_state_42ce8e|4|1 3,0,0,0,0,0,0,0,0,0,0,0,0,0,0,3,
scooby_state_405658|44|41 3,0,0,0,0,0,0,0,0,0,0,0,0,0,0,3,
scooby_state_405295|48|1 3,0,0,0,0,0,0,0,0,0,0,0,0,0,0,3,
scooby_state_405301|40|1 3,0,0,0,0,0,0,0,0,0,0,0,0,0,0,3,
scooby_state_42f76f|56|14 3,0,0,0,0,0,0,0,0,0,0,0,0,0,0,3,
scooby_state_40575a|44|1 3,0,0,0,0,0,0,0,0,0,0,0,0,0,0,3,
scooby_state_405301|41|1 3,0,0,0,0,0,0,0,0,0,0,0,0,0,0,3,
scooby_state_40575a|56|41 3,0,0,0,0,0,0,0,0,0,0,0,0,0,0,3,
scooby_state_405268|4|-40 3,0,0,0,0,0,0,0,0,0,0,0,0,0,0,3,
scooby_state_405634|41|1 3,0,0,0,0,0,0,0,0,0,0,0,0,0,0,3,
scooby_state_42ce8e|44|34 1,2,0,0,0,0,0,0,0,0,0,0,0,0,0,3,
scooby_state_42a6c3|1|0 3,0,0,0,0,0,0,0,0,0,0,0,0,0,0,3,
scooby_state_405301|47|2 3,0,0,0,0,0,0,0,0,0,0,0,0,0,0,3,
scooby_state_40575a|57|1 3,0,0,0,0,0,0,0,0,0,0,0,0,0,0,3,
scooby_state_42da1d|42|3 1,1,1,0,0,0,0,0,0,0,0,0,0,0,0,3,
scooby_state_42ce8e|10|-53 2,0,0,0,0,0,0,0,0,0,1,0,0,0,0,3,
scooby_state_405301|3|-40 3,0,0,0,0,0,0,0,0,0,0,0,0,0,0,3,
scooby_state_42a745|27|-13 2,1,0,0,0,0,0,0,0,0,0,0,0,0,0,3,
scooby_state_405268|47|2 3,0,0,0,0,0,0,0,0,0,0,0,0,0,0,3,
scooby_state_42ce8e|16|-39 2,1,0,0,0,0,0,0,0,0,0,0,0,0,0,3,
scooby_state_42a704|24|-1 3,0,0,0,0,0,0,0,0,0,0,0,0,0,0,3,
scooby_state_405301|6|-40 3,0,0,0,0,0,0,0,0,0,0,0,0,0,0,3,
scooby_state_40575a|47|41 3,0,0,0,0,0,0,0,0,0,0,0,0,0,0,3,
scooby_state_42ce8e|45|7 2,0,0,0,0,0,0,0,0,0,0,0,0,0,0,2,
scooby_state_42ce8e|38|2 2,0,0,0,0,0,0,0,0,0,0,0,0,0,0,2,
scooby_state_42a704|44|35 1,1,0,0,0,0,0,0,0,0,0,0,0,0,0,2,
scooby_state_42ce8e|9|-35 2,0,0,0,0,0,0,0,0,0,0,0,0,0,0,2,
scooby_state_42ce7c|43|1 2,0,0,0,0,0,0,0,0,0,0,0,0,0,0,2,
scooby_state_42a745|44|-1 1,1,0,0,0,0,0,0,0,0,0,0,0,0,0,2,
scooby_state_42a745|56|11 2,0,0,0,0,0,0,0,0,0,0,0,0,0,0,2,
scooby_state_42a6a5|2|-45 1,1,0,0,0,0,0,0,0,0,0,0,0,0,0,2,
scooby_state_42a745|27|25 2,0,0,0,0,0,0,0,0,0,0,0,0,0,0,2,
scooby_state_405278|52|1 2,0,0,0,0,0,0,0,0,0,0,0,0,0,0,2,
scooby_state_405268|9|-40 2,0,0,0,0,0,0,0,0,0,0,0,0,0,0,2,
scooby_state_405295|56|2 2,0,0,0,0,0,0,0,0,0,0,0,0,0,0,2,
scooby_state_42a6c3|60|6 2,0,0,0,0,0,0,0,0,0,0,0,0,0,0,2,
scooby_state_405278|63|2 2,0,0,0,0,0,0,0,0,0,0,0,0,0,0,2,
scooby_state_405295|5|-40 2,0,0,0,0,0,0,0,0,0,0,0,0,0,0,2,
scooby_state_42ce7c|40|2 2,0,0,0,0,0,0,0,0,0,0,0,0,0,0,2,
scooby_state_405301|12|-40 2,0,0,0,0,0,0,0,0,0,0,0,0,0,0,2,
scooby_state_42ce8e|20|-16 2,0,0,0,0,0,0,0,0,0,0,0,0,0,0,2,
scooby_state_42ce7c|50|3 2,0,0,0,0,0,0,0,0,0,0,0,0,0,0,2,
scooby_state_40575a|48|1 2,0,0,0,0,0,0,0,0,0,0,0,0,0,0,2,
scooby_state_42ce8e|33|-11 2,0,0,0,0,0,0,0,0,0,0,0,0,0,0,2,
scooby_state_42ce7c|51|2 2,0,0,0,0,0,0,0,0,0,0,0,0,0,0,2,
scooby_state_405295|21|-40 2,0,0,0,0,0,0,0,0,0,0,0,0,0,0,2,
scooby_state_42a704|33|11 2,0,0,0,0,0,0,0,0,0,0,0,0,0,0,2,
scooby_state_405268|48|1 2,0,0,0,0,0,0,0,0,0,0,0,0,0,0,2,
scooby_state_42ce8e|44|35 2,0,0,0,0,0,0,0,0,0,0,0,0,0,0,2,
scooby_state_42a745|9|-21 2,0,0,0,0,0,0,0,0,0,0,0,0,0,0,2,
scooby_state_42a745|54|32 1,0,1,0,0,0,0,0,0,0,0,0,0,0,0,2,
scooby_state_42a782|45|1 2,0,0,0,0,0,0,0,0,0,0,0,0,0,0,2,
scooby_state_405278|50|14 2,0,0,0,0,0,0,0,0,0,0,0,0,0,0,2,
scooby_state_42ce8e|61|8 2,0,0,0,0,0,0,0,0,0,0,0,0,0,0,2,
scooby_state_405268|44|1 2,0,0,0,0,0,0,0,0,0,0,0,0,0,0,2,
scooby_state_42ce7c|49|1 2,0,0,0,0,0,0,0,0,0,0,0,0,0,0,2,
scooby_state_42ce7c|47|2 2,0,0,0,0,0,0,0,0,0,0,0,0,0,0,2,
scooby_state_42a745|31|8 1,1,0,0,0,0,0,0,0,0,0,0,0,0,0,2,
scooby_state_42ce8e|27|27 2,0,0,0,0,0,0,0,0,0,0,0,0,0,0,2,
scooby_state_405658|53|1 2,0,0,0,0,0,0,0,0,0,0,0,0,0,0,2,
scooby_state_405658|63|1 2,0,0,0,0,0,0,0,0,0,0,0,0,0,0,2,
scooby_state_405268|29|1 2,0,0,0,0,0,0,0,0,0,0,0,0,0,0,2,
scooby_state_405278|61|10 2,0,0,0,0,0,0,0,0,0,0,0,0,0,0,2,
scooby_state_473fdd|53|0 2,0,0,0,0,0,0,0,0,0,0,0,0,0,0,2,
scooby_state_405301|26|-37 2,0,0,0,0,0,0,0,0,0,0,0,0,0,0,2,
scooby_state_42ce8e|44|33 2,0,0,0,0,0,0,0,0,0,0,0,0,0,0,2,
scooby_state_42a6a5|39|4 2,0,0,0,0,0,0,0,0,0,0,0,0,0,0,2,
scooby_state_42d583|40|7 2,0,0,0,0,0,0,0,0,0,0,0,0,0,0,2,
scooby_state_405658|48|1 2,0,0,0,0,0,0,0,0,0,0,0,0,0,0,2,
scooby_state_42a745|49|32 0,2,0,0,0,0,0,0,0,0,0,0,0,0,0,2,
scooby_state_42ce8e|10|-18 2,0,0,0,0,0,0,0,0,0,0,0,0,0,0,2,
scooby_state_42a6c3|5|-56 2,0,0,0,0,0,0,0,0,0,0,0,0,0,0,2,
scooby_state_42ce8e|38|28 1,0,0,0,0,0,0,0,0,0,1,0,0,0,0,2,
scooby_state_42f34a|53|6 2,0,0,0,0,0,0,0,0,0,0,0,0,0,0,2,
scooby_state_42ce8e|0|0 2,0,0,0,0,0,0,0,0,0,0,0,0,0,0,2,
scooby_state_405301|31|4 2,0,0,0,0,0,0,0,0,0,0,0,0,0,0,2,
scooby_state_40575a|55|1 2,0,0,0,0,0,0,0,0,0,0,0,0,0,0,2,
scooby_state_42a745|44|35 2,0,0,0,0,0,0,0,0,0,0,0,0,0,0,2,
scooby_state_42a782|17|-32 2,0,0,0,0,0,0,0,0,0,0,0,0,0,0,2,
scooby_state_405295|29|2 2,0,0,0,0,0,0,0,0,0,0,0,0,0,0,2,
scooby_state_42a745|3|-43 2,0,0,0,0,0,0,0,0,0,0,0,0,0,0,2,
scooby_state_42a704|39|-1 2,0,0,0,0,0,0,0,0,0,0,0,0,0,0,2,
scooby_state_42a745|58|31 2,0,0,0,0,0,0,0,0,0,0,0,0,0,0,2,
scooby_state_42a745|4|4 2,0,0,0,0,0,0,0,0,0,0,0,0,0,0,2,
scooby_state_42a6a5|47|8 2,0,0,0,0,0,0,0,0,0,0,0,0,0,0,2,
scooby_state_42a745|58|43 1,1,0,0,0,0,0,0,0,0,0,0,0,0,0,2,
scooby_state_42a745|49|48 2,0,0,0,0,0,0,0,0,0,0,0,0,0,0,2,
scooby_state_42a6a5|49|38 2,0,0,0,0,0,0,0,0,0,0,0,0,0,0,2,
scooby_state_42ce8e|42|-10 2,0,0,0,0,0,0,0,0,0,0,0,0,0,0,2,
scooby_state_42ce8e|11|-20 1,1,0,0,0,0,0,0,0,0,0,0,0,0,0,2,
scooby_state_42a6c3|49|2 2,0,0,0,0,0,0,0,0,0,0,0,0,0,0,2,
scooby_state_42ce8e|44|-7 2,0,0,0,0,0,0,0,0,0,0,0,0,0,0,2,
scooby_state_405295|33|4 2,0,0,0,0,0,0,0,0,0,0,0,0,0,0,2,
scooby_state_405278|33|4 2,0,0,0,0,0,0,0,0,0,0,0,0,0,0,2,
scooby_state_405295|48|3 2,0,0,0,0,0,0,0,0,0,0,0,0,0,0,2,
scooby_state_42ce8e|28|-16 2,0,0,0,0,0,0,0,0,0,0,0,0,0,0,2,
scooby_state_405301|44|1 2,0,0,0,0,0,0,0,0,0,0,0,0,0,0,2,
scooby_state_42ce8e|44|36 2,0,0,0,0,0,0,0,0,0,0,0,0,0,0,2,
scooby_state_405301|63|2 2,0,0,0,0,0,0,0,0,0,0,0,0,0,0,2,
scooby_state_42ce8e|42|2 2,0,0,0,0,0,0,0,0,0,0,0,0,0,0,2,
scooby_state_42ce8e|55|22 2,0,0,0,0,0,0,0,0,0,0,0,0,0,0,2,
scooby_state_42a745|54|0 2,0,0,0,0,0,0,0,0,0,0,0,0,0,0,2,
scooby_state_42ec5a|29|-22 2,0,0,0,0,0,0,0,0,0,0,0,0,0,0,2,
scooby_state_405295|54|3 2,0,0,0,0,0,0,0,0,0,0,0,0,0,0,2,
scooby_state_405301|56|2 2,0,0,0,0,0,0,0,0,0,0,0,0,0,0,2,
scooby_state_405268|54|3 2,0,0,0,0,0,0,0,0,0,0,0,0,0,0,2,
scooby_state_405658|52|1 2,0,0,0,0,0,0,0,0,0,0,0,0,0,0,2,
scooby_state_42ce8e|10|-28 2,0,0,0,0,0,0,0,0,0,0,0,0,0,0,2,
scooby_state_42a6c3|1|-60 2,0,0,0,0,0,0,0,0,0,0,0,0,0,0,2,
scooby_state_42d583|35|-2 2,0,0,0,0,0,0,0,0,0,0,0,0,0,0,2,
scooby_state_42ce8e|44|1 2,0,0,0,0,0,0,0,0,0,0,0,0,0,0,2,
scooby_state_42a745|48|48 2,0,0,0,0,0,0,0,0,0,0,0,0,0,0,2,
scooby_state_42ce7c|40|12 2,0,0,0,0,0,0,0,0,0,0,0,0,0,0,2,
scooby_state_405278|47|1 2,0,0,0,0,0,0,0,0,0,0,0,0,0,0,2,
scooby_state_42ce8e|55|30 1,1,0,0,0,0,0,0,0,0,0,0,0,0,0,2,
scooby_state_405268|31|1 2,0,0,0,0,0,0,0,0,0,0,0,0,0,0,2,
scooby_state_405278|31|1 2,0,0,0,0,0,0,0,0,0,0,0,0,0,0,2,
scooby_state_405278|61|1 2,0,0,0,0,0,0,0,0,0,0,0,0,0,0,2,
scooby_state_405295|30|1 2,0,0,0,0,0,0,0,0,0,0,0,0,0,0,2,
scooby_state_42ce8e|61|20 2,0,0,0,0,0,0,0,0,0,0,0,0,0,0,2,
scooby_state_405278|40|4 2,0,0,0,0,0,0,0,0,0,0,0,0,0,0,2,
scooby_state_40575a|41|1 2,0,0,0,0,0,0,0,0,0,0,0,0,0,0,2,
scooby_state_40575a|62|41 2,0,0,0,0,0,0,0,0,0,0,0,0,0,0,2,
scooby_state_405295|20|-40 2,0,0,0,0,0,0,0,0,0,0,0,0,0,0,2,
scooby_state_42ce8e|29|4 2,0,0,0,0,0,0,0,0,0,0,0,0,0,0,2,
scooby_state_42cde8|26|1 2,0,0,0,0,0,0,0,0,0,0,0,0,0,0,2,
scooby_state_42f76f|58|20 2,0,0,0,0,0,0,0,0,0,0,0,0,0,0,2,
scooby_state_405301|59|1 2,0,0,0,0,0,0,0,0,0,0,0,0,0,0,2,
scooby_state_42ce8e|2|-30 1,0,0,0,0,0,0,0,0,0,1,0,0,0,0,2,
scooby_state_405658|62|41 2,0,0,0,0,0,0,0,0,0,0,0,0,0,0,2,
scooby_state_405295|10|-40 2,0,0,0,0,0,0,0,0,0,0,0,0,0,0,2,
scooby_state_42a745|2|-36 2,0,0,0,0,0,0,0,0,0,0,0,0,0,0,2,
scooby_state_42ce8e|36|34 1,0,0,0,0,0,0,0,0,0,1,0,0,0,0,2,
scooby_state_42a745|16|-32 2,0,0,0,0,0,0,0,0,0,0,0,0,0,0,2,
scooby_state_42a745|23|-11 2,0,0,0,0,0,0,0,0,0,0,0,0,0,0,2,
scooby_state_42f343|55|8 2,0,0,0,0,0,0,0,0,0,0,0,0,0,0,2,
scooby_state_42a745|33|-15 2,0,0,0,0,0,0,0,0,0,0,0,0,0,0,2,
scooby_state_42ce8e|1|-15 2,0,0,0,0,0,0,0,0,0,0,0,0,0,0,2,
scooby_state_42ce8e|38|6 2,0,0,0,0,0,0,0,0,0,0,0,0,0,0,2,
scooby_state_42a745|46|10 1,0,0,1,0,0,0,0,0,0,0,0,0,0,0,2,
scooby_state_42a745|10|-2 2,0,0,0,0,0,0,0,0,0,0,0,0,0,0,2,
scooby_state_42ce8e|43|33 2,0,0,0,0,0,0,0,0,0,0,0,0,0,0,2,
scooby_state_42a745|9|-36 2,0,0,0,0,0,0,0,0,0,0,0,0,0,0,2,
scooby_state_405295|15|-40 2,0,0,0,0,0,0,0,0,0,0,0,0,0,0,2,
scooby_state_42ce8e|33|-26 2,0,0,0,0,0,0,0,0,0,0,0,0,0,0,2,
scooby_state_405268|21|-40 2,0,0,0,0,0,0,0,0,0,0,0,0,0,0,2,
scooby_state_40575a|58|1 2,0,0,0,0,0,0,0,0,0,0,0,0,0,0,2,
scooby_state_42ce8e|25|-9 2,0,0,0,0,0,0,0,0,0,0,0,0,0,0,2,
scooby_state_42f5ea|47|8 2,0,0,0,0,0,0,0,0,0,0,0,0,0,0,2,
scooby_state_405658|50|41 2,0,0,0,0,0,0,0,0,0,0,0,0,0,0,2,
scooby_state_405295|31|1 2,0,0,0,0,0,0,0,0,0,0,0,0,0,0,2,
scooby_state_405268|30|1 2,0,0,0,0,0,0,0,0,0,0,0,0,0,0,2,
scooby_state_42ce8e|9|-10 2,0,0,0,0,0,0,0,0,0,0,0,0,0,0,2,
scooby_state_42a6a5|39|25 2,0,0,0,0,0,0,0,0,0,0,0,0,0,0,2,
scooby_state_40575a|52|41 2,0,0,0,0,0,0,0,0,0,0,0,0,0,0,2,
scooby_state_42ce8e|34|0 2,0,0,0,0,0,0,0,0,0,0,0,0,0,0,2,
scooby_state_405295|46|1 2,0,0,0,0,0,0,0,0,0,0,0,0,0,0,2,
scooby_state_40575a|60|1 2,0,0,0,0,0,0,0,0,0,0,0,0,0,0,2,
scooby_state_42f343|54|12 2,0,0,0,0,0,0,0,0,0,0,0,0,0,0,2,
scooby_state_42a6a5|60|12 2,0,0,0,0,0,0,0,0,0,0,0,0,0,0,2,
scooby_state_42ce7c|44|0 2,0,0,0,0,0,0,0,0,0,0,0,0,0,0,2,
scooby_state_42a6a5|4|2 2,0,0,0,0,0,0,0,0,0,0,0,0,0,0,2,
scooby_state_42a6a5|61|1 1,1,0,0,0,0,0,0,0,0,0,0,0,0,0,2,
scooby_state_42ce8e|34|-27 2,0,0,0,0,0,0,0,0,0,0,0,0,0,0,2,
scooby_state_42a6c3|48|43 2,0,0,0,0,0,0,0,0,0,0,0,0,0,0,2,
scooby_state_42a6a5|4|-45 2,0,0,0,0,0,0,0,0,0,0,0,0,0,0,2,
scooby_state_42a6c3|1|1 2,0,0,0,0,0,0,0,0,0,0,0,0,0,0,2,
scooby_state_405295|61|1 2,0,0,0,0,0,0,0,0,0,0,0,0,0,0,2,
scooby_state_405278|29|2 2,0,0,0,0,0,0,0,0,0,0,0,0,0,0,2,
scooby_state_42ce7c|41|1 2,0,0,0,0,0,0,0,0,0,0,0,0,0,0,2,
scooby_state_42a6c3|0|-1 2,0,0,0,0,0,0,0,0,0,0,0,0,0,0,2,
scooby_state_405658|41|1 1,0,0,0,0,0,0,0,0,0,1,0,0,0,0,2,
scooby_state_42a745|40|1 2,0,0,0,0,0,0,0,0,0,0,0,0,0,0,2,
scooby_state_42ce8e|21|-26 2,0,0,0,0,0,0,0,0,0,0,0,0,0,0,2,
scooby_state_405268|33|-30 2,0,0,0,0,0,0,0,0,0,0,0,0,0,0,2,
scooby_state_42a6a5|47|21 2,0,0,0,0,0,0,0,0,0,0,0,0,0,0,2,
scooby_state_42d583|35|-3 2,0,0,0,0,0,0,0,0,0,0,0,0,0,0,2,
scooby_state_405658|46|1 2,0,0,0,0,0,0,0,0,0,0,0,0,0,0,2,
scooby_state_405634|59|1 2,0,0,0,0,0,0,0,0,0,0,0,0,0,0,2,
scooby_state_42ce8e|24|20 2,0,0,0,0,0,0,0,0,0,0,0,0,0,0,2,
scooby_state_42a745|61|5 2,0,0,0,0,0,0,0,0,0,0,0,0,0,0,2,
scooby_state_40575a|63|1 2,0,0,0,0,0,0,0,0,0,0,0,0,0,0,2,
scooby_state_405268|33|4 1,0,0,0,0,0,0,0,0,0,0,0,0,0,0,1,
scooby_state_42ce8e|63|12 1,0,0,0,0,0,0,0,0,0,0,0,0,0,0,1,
scooby_state_42ce8e|62|1 1,0,0,0,0,0,0,0,0,0,0,0,0,0,0,1,
scooby_state_42a704|21|-13 1,0,0,0,0,0,0,0,0,0,0,0,0,0,0,1,
scooby_state_42e0f9|3|-33 1,0,0,0,0,0,0,0,0,0,0,0,0,0,0,1,
scooby_state_405634|30|0 1,0,0,0,0,0,0,0,0,0,0,0,0,0,0,1,
scooby_state_42a6c3|11|2 1,0,0,0,0,0,0,0,0,0,0,0,0,0,0,1,
scooby_state_42a745|43|7 1,0,0,0,0,0,0,0,0,0,0,0,0,0,0,1,
scooby_state_42e980|38|1 1,0,0,0,0,0,0,0,0,0,0,0,0,0,0,1,
scooby_state_405a04|40|1 1,0,0,0,0,0,0,0,0,0,0,0,0,0,0,1,
scooby_state_405278|24|-39 1,0,0,0,0,0,0,0,0,0,0,0,0,0,0,1,
scooby_state_42a745|48|5 1,0,0,0,0,0,0,0,0,0,0,0,0,0,0,1,
scooby_state_42a745|40|-20 1,0,0,0,0,0,0,0,0,0,0,0,0,0,0,1,
scooby_state_42a6a5|9|-2 0,1,0,0,0,0,0,0,0,0,0,0,0,0,0,1,
scooby_state_42a745|16|-33 1,0,0,0,0,0,0,0,0,0,0,0,0,0,0,1,
scooby_state_42a745|41|12 1,0,0,0,0,0,0,0,0,0,0,0,0,0,0,1,
scooby_state_42a745|1|-15 1,0,0,0,0,0,0,0,0,0,0,0,0,0,0,1,
scooby_state_400350|13|0 1,0,0,0,0,0,0,0,0,0,0,0,0,0,0,1,
scooby_state_42ce8e|47|29 1,0,0,0,0,0,0,0,0,0,0,0,0,0,0,1,
scooby_state_405295|61|5 1,0,0,0,0,0,0,0,0,0,0,0,0,0,0,1,
scooby_state_42a050|1|-30 1,0,0,0,0,0,0,0,0,0,0,0,0,0,0,1,
scooby_state_42a782|34|3 1,0,0,0,0,0,0,0,0,0,0,0,0,0,0,1,
scooby_state_42ce8e|44|20 1,0,0,0,0,0,0,0,0,0,0,0,0,0,0,1,
scooby_state_42ce8e|33|-20 0,0,0,0,0,0,0,0,0,0,1,0,0,0,0,1,
scooby_state_42a745|17|-23 1,0,0,0,0,0,0,0,0,0,0,0,0,0,0,1,
scooby_state_42a6a5|60|0 1,0,0,0,0,0,0,0,0,0,0,0,0,0,0,1,
scooby_state_42a6a5|61|60 1,0,0,0,0,0,0,0,0,0,0,0,0,0,0,1,
scooby_state_42a745|3|-47 1,0,0,0,0,0,0,0,0,0,0,0,0,0,0,1,
scooby_state_405295|38|2 1,0,0,0,0,0,0,0,0,0,0,0,0,0,0,1,
scooby_state_42a6a5|26|-9 1,0,0,0,0,0,0,0,0,0,0,0,0,0,0,1,
scooby_state_42ce8e|27|7 1,0,0,0,0,0,0,0,0,0,0,0,0,0,0,1,
scooby_state_42a745|50|33 1,0,0,0,0,0,0,0,0,0,0,0,0,0,0,1,
scooby_state_4050a7|44|37 1,0,0,0,0,0,0,0,0,0,0,0,0,0,0,1,
scooby_state_42a6a5|1|-59 1,0,0,0,0,0,0,0,0,0,0,0,0,0,0,1,
scooby_state_405643|25|1 1,0,0,0,0,0,0,0,0,0,0,0,0,0,0,1,
scooby_state_42ce8e|45|27 1,0,0,0,0,0,0,0,0,0,0,0,0,0,0,1,
scooby_state_42ce8e|62|11 1,0,0,0,0,0,0,0,0,0,0,0,0,0,0,1,
scooby_state_405278|46|1 1,0,0,0,0,0,0,0,0,0,0,0,0,0,0,1,
scooby_state_405278|49|4 1,0,0,0,0,0,0,0,0,0,0,0,0,0,0,1,
scooby_state_42ce8e|10|-10 1,0,0,0,0,0,0,0,0,0,0,0,0,0,0,1,
scooby_state_4056c1|27|1 1,0,0,0,0,0,0,0,0,0,0,0,0,0,0,1,
scooby_state_42a745|25|7 1,0,0,0,0,0,0,0,0,0,0,0,0,0,0,1,
scooby_state_42aac3|43|1 1,0,0,0,0,0,0,0,0,0,0,0,0,0,0,1,
scooby_state_42cec0|59|1 1,0,0,0,0,0,0,0,0,0,0,0,0,0,0,1,
scooby_state_42ce7c|30|2 1,0,0,0,0,0,0,0,0,0,0,0,0,0,0,1,
scooby_state_42ce8e|32|-8 0,1,0,0,0,0,0,0,0,0,0,0,0,0,0,1,
scooby_state_42a6c3|49|38 1,0,0,0,0,0,0,0,0,0,0,0,0,0,0,1,
scooby_state_42a745|17|-32 1,0,0,0,0,0,0,0,0,0,0,0,0,0,0,1,
scooby_state_42ce7c|40|11 1,0,0,0,0,0,0,0,0,0,0,0,0,0,0,1,
scooby_state_42a745|0|-6 1,0,0,0,0,0,0,0,0,0,0,0,0,0,0,1,
scooby_state_405278|61|5 1,0,0,0,0,0,0,0,0,0,0,0,0,0,0,1,
scooby_state_42ce8e|8|-25 1,0,0,0,0,0,0,0,0,0,0,0,0,0,0,1,
scooby_state_405740|29|1 1,0,0,0,0,0,0,0,0,0,0,0,0,0,0,1,
scooby_state_405782|30|1 1,0,0,0,0,0,0,0,0,0,0,0,0,0,0,1,
scooby_state_405634|26|0 1,0,0,0,0,0,0,0,0,0,0,0,0,0,0,1,
scooby_state_42f750|29|8 1,0,0,0,0,0,0,0,0,0,0,0,0,0,0,1,
scooby_state_42d60e|24|1 1,0,0,0,0,0,0,0,0,0,0,0,0,0,0,1,
scooby_state_42ce8e|34|30 1,0,0,0,0,0,0,0,0,0,0,0,0,0,0,1,
scooby_state_42ce7c|30|-20 1,0,0,0,0,0,0,0,0,0,0,0,0,0,0,1,
scooby_state_42a745|16|-1 1,0,0,0,0,0,0,0,0,0,0,0,0,0,0,1,
scooby_state_42ce41|57|1 1,0,0,0,0,0,0,0,0,0,0,0,0,0,0,1,
scooby_state_42a704|49|15 1,0,0,0,0,0,0,0,0,0,0,0,0,0,0,1,
scooby_state_42ce8e|62|18 1,0,0,0,0,0,0,0,0,0,0,0,0,0,0,1,
scooby_state_42ce8e|63|1 1,0,0,0,0,0,0,0,0,0,0,0,0,0,0,1,
scooby_state_405278|54|2 1,0,0,0,0,0,0,0,0,0,0,0,0,0,0,1,
scooby_state_405581|22|1 1,0,0,0,0,0,0,0,0,0,0,0,0,0,0,1,
scooby_state_42ce8e|63|43 0,0,0,0,0,0,0,0,0,0,1,0,0,0,0,1,
scooby_state_42ce8e|42|-21 1,0,0,0,0,0,0,0,0,0,0,0,0,0,0,1,
scooby_state_42ce7c|29|-16 1,0,0,0,0,0,0,0,0,0,0,0,0,0,0,1,
scooby_state_42d51c|31|-7 1,0,0,0,0,0,0,0,0,0,0,0,0,0,0,1,
scooby_state_42eec5|59|6 1,0,0,0,0,0,0,0,0,0,0,0,0,0,0,1,
scooby_state_42a6a5|15|-32 1,0,0,0,0,0,0,0,0,0,0,0,0,0,0,1,
scooby_state_42a704|33|4 1,0,0,0,0,0,0,0,0,0,0,0,0,0,0,1,
scooby_state_42a745|43|30 1,0,0,0,0,0,0,0,0,0,0,0,0,0,0,1,
scooby_state_42aa57|37|1 1,0,0,0,0,0,0,0,0,0,0,0,0,0,0,1,
scooby_state_405301|40|2 1,0,0,0,0,0,0,0,0,0,0,0,0,0,0,1,
scooby_state_42a903|36|1 1,0,0,0,0,0,0,0,0,0,0,0,0,0,0,1,
scooby_state_42df20|60|26 1,0,0,0,0,0,0,0,0,0,0,0,0,0,0,1,
scooby_state_42ec5a|29|-25 1,0,0,0,0,0,0,0,0,0,0,0,0,0,0,1,
scooby_state_42ad70|53|32 1,0,0,0,0,0,0,0,0,0,0,0,0,0,0,1,
scooby_state_42f343|13|1 1,0,0,0,0,0,0,0,0,0,0,0,0,0,0,1,
scooby_state_42da1d|42|0 1,0,0,0,0,0,0,0,0,0,0,0,0,0,0,1,
scooby_state_42a745|13|2 1,0,0,0,0,0,0,0,0,0,0,0,0,0,0,1,
scooby_state_42d2f0|11|2 1,0,0,0,0,0,0,0,0,0,0,0,0,0,0,1,
scooby_state_42f4c1|19|1 1,0,0,0,0,0,0,0,0,0,0,0,0,0,0,1,
scooby_state_42dc19|48|1 1,0,0,0,0,0,0,0,0,0,0,0,0,0,0,1,
scooby_state_42a298|10|3 1,0,0,0,0,0,0,0,0,0,0,0,0,0,0,1,
scooby_state_42a745|49|9 1,0,0,0,0,0,0,0,0,0,0,0,0,0,0,1,
scooby_state_42d342|13|1 1,0,0,0,0,0,0,0,0,0,0,0,0,0,0,1,
scooby_state_42a745|0|-50 0,1,0,0,0,0,0,0,0,0,0,0,0,0,0,1,
scooby_state_405634|37|0 1,0,0,0,0,0,0,0,0,0,0,0,0,0,0,1,
scooby_state_42ce7c|49|7 1,0,0,0,0,0,0,0,0,0,0,0,0,0,0,1,
scooby_state_405104|4|1 1,0,0,0,0,0,0,0,0,0,0,0,0,0,0,1,
scooby_state_405278|62|1 1,0,0,0,0,0,0,0,0,0,0,0,0,0,0,1,
scooby_state_42a4df|19|-24 1,0,0,0,0,0,0,0,0,0,0,0,0,0,0,1,
scooby_state_42a745|3|-37 1,0,0,0,0,0,0,0,0,0,0,0,0,0,0,1,
scooby_state_42ada5|32|21 1,0,0,0,0,0,0,0,0,0,0,0,0,0,0,1,
scooby_state_42f140|5|1 1,0,0,0,0,0,0,0,0,0,0,0,0,0,0,1,
scooby_state_42e237|8|-3 0,1,0,0,0,0,0,0,0,0,0,0,0,0,0,1,
scooby_state_42a344|13|1 1,0,0,0,0,0,0,0,0,0,0,0,0,0,0,1,
scooby_state_42ce7c|41|-10 1,0,0,0,0,0,0,0,0,0,0,0,0,0,0,1,
scooby_state_42e519|20|1 1,0,0,0,0,0,0,0,0,0,0,0,0,0,0,1,
scooby_state_42ce8e|43|43 0,1,0,0,0,0,0,0,0,0,0,0,0,0,0,1,
scooby_state_42a745|29|20 1,0,0,0,0,0,0,0,0,0,0,0,0,0,0,1,
scooby_state_42ce8e|44|0 1,0,0,0,0,0,0,0,0,0,0,0,0,0,0,1,
scooby_state_42a745|9|-35 0,0,1,0,0,0,0,0,0,0,0,0,0,0,0,1,
scooby_state_405268|60|2 1,0,0,0,0,0,0,0,0,0,0,0,0,0,0,1,
scooby_state_42a704|3|-8 1,0,0,0,0,0,0,0,0,0,0,0,0,0,0,1,
scooby_state_42a745|23|-7 1,0,0,0,0,0,0,0,0,0,0,0,0,0,0,1,
scooby_state_405295|9|-40 1,0,0,0,0,0,0,0,0,0,0,0,0,0,0,1,
scooby_state_42a704|24|-24 1,0,0,0,0,0,0,0,0,0,0,0,0,0,0,1,
scooby_state_429e34|34|2 1,0,0,0,0,0,0,0,0,0,0,0,0,0,0,1,
scooby_state_42a6a5|60|6 1,0,0,0,0,0,0,0,0,0,0,0,0,0,0,1,
scooby_state_42ce8e|40|-22 1,0,0,0,0,0,0,0,0,0,0,0,0,0,0,1,
scooby_state_42a704|30|8 1,0,0,0,0,0,0,0,0,0,0,0,0,0,0,1,
scooby_state_42a745|40|15 1,0,0,0,0,0,0,0,0,0,0,0,0,0,0,1,
scooby_state_42dd00|52|1 1,0,0,0,0,0,0,0,0,0,0,0,0,0,0,1,
scooby_state_42a745|0|-13 0,1,0,0,0,0,0,0,0,0,0,0,0,0,0,1,
scooby_state_42a745|21|-10 1,0,0,0,0,0,0,0,0,0,0,0,0,0,0,1,
scooby_state_42a745|6|2 1,0,0,0,0,0,0,0,0,0,0,0,0,0,0,1,
scooby_state_405047|1|1 1,0,0,0,0,0,0,0,0,0,0,0,0,0,0,1,
scooby_state_405268|32|3 1,0,0,0,0,0,0,0,0,0,0,0,0,0,0,1,
scooby_state_405098|2|-50 1,0,0,0,0,0,0,0,0,0,0,0,0,0,0,1,
scooby_state_42ce7c|48|7 1,0,0,0,0,0,0,0,0,0,0,0,0,0,0,1,
scooby_state_42ce7c|51|9 1,0,0,0,0,0,0,0,0,0,0,0,0,0,0,1,
scooby_state_42ce8e|31|26 1,0,0,0,0,0,0,0,0,0,0,0,0,0,0,1,
scooby_state_42ce8e|36|-11 1,0,0,0,0,0,0,0,0,0,0,0,0,0,0,1,
scooby_state_42a6c3|0|-61 1,0,0,0,0,0,0,0,0,0,0,0,0,0,0,1,
scooby_state_405301|61|1 1,0,0,0,0,0,0,0,0,0,0,0,0,0,0,1,
scooby_state_42ce8e|53|37 1,0,0,0,0,0,0,0,0,0,0,0,0,0,0,1,
scooby_state_42a6c3|2|-47 1,0,0,0,0,0,0,0,0,0,0,0,0,0,0,1,
scooby_state_42a745|49|1 1,0,0,0,0,0,0,0,0,0,0,0,0,0,0,1,
scooby_state_42cdc0|25|-13 1,0,0,0,0,0,0,0,0,0,0,0,0,0,0,1,
scooby_state_42a6a5|4|-5 1,0,0,0,0,0,0,0,0,0,0,0,0,0,0,1,
scooby_state_42ce7c|38|-12 1,0,0,0,0,0,0,0,0,0,0,0,0,0,0,1,
scooby_state_42a745|48|35 1,0,0,0,0,0,0,0,0,0,0,0,0,0,0,1,
scooby_state_42ce8e|43|35 1,0,0,0,0,0,0,0,0,0,0,0,0,0,0,1,
scooby_state_42a745|25|-9 1,0,0,0,0,0,0,0,0,0,0,0,0,0,0,1,
scooby_state_42a745|38|36 1,0,0,0,0,0,0,0,0,0,0,0,0,0,0,1,
scooby_state_473f43|61|1 1,0,0,0,0,0,0,0,0,0,0,0,0,0,0,1,
scooby_state_40575a|51|41 1,0,0,0,0,0,0,0,0,0,0,0,0,0,0,1,
scooby_state_42a6c3|2|-38 1,0,0,0,0,0,0,0,0,0,0,0,0,0,0,1,
scooby_state_46cd49|53|-4 1,0,0,0,0,0,0,0,0,0,0,0,0,0,0,1,
scooby_state_42a745|0|-17 1,0,0,0,0,0,0,0,0,0,0,0,0,0,0,1,
scooby_state_405658|55|41 1,0,0,0,0,0,0,0,0,0,0,0,0,0,0,1,
scooby_state_4058c0|35|1 1,0,0,0,0,0,0,0,0,0,0,0,0,0,0,1,
scooby_state_42ce7c|28|-23 1,0,0,0,0,0,0,0,0,0,0,0,0,0,0,1,
scooby_state_429ae0|43|-13 1,0,0,0,0,0,0,0,0,0,0,0,0,0,0,1,
scooby_state_42a745|61|21 1,0,0,0,0,0,0,0,0,0,0,0,0,0,0,1,
scooby_state_42ea82|42|1 1,0,0,0,0,0,0,0,0,0,0,0,0,0,0,1,
scooby_state_42a6a5|49|10 1,0,0,0,0,0,0,0,0,0,0,0,0,0,0,1,
scooby_state_42a6a5|48|43 1,0,0,0,0,0,0,0,0,0,0,0,0,0,0,1,
scooby_state_42a745|0|-4 1,0,0,0,0,0,0,0,0,0,0,0,0,0,0,1,
scooby_state_405c42|49|1 1,0,0,0,0,0,0,0,0,0,0,0,0,0,0,1,
scooby_state_42ce8e|63|27 1,0,0,0,0,0,0,0,0,0,0,0,0,0,0,1,
scooby_state_405508|20|1 1,0,0,0,0,0,0,0,0,0,0,0,0,0,0,1,
scooby_state_405301|29|3 1,0,0,0,0,0,0,0,0,0,0,0,0,0,0,1,
scooby_state_42f76f|56|30 1,0,0,0,0,0,0,0,0,0,0,0,0,0,0,1,
scooby_state_42e5fd|47|0 1,0,0,0,0,0,0,0,0,0,0,0,0,0,0,1,
scooby_state_42e131|4|1 1,0,0,0,0,0,0,0,0,0,0,0,0,0,0,1,
scooby_state_42ce8e|41|14 1,0,0,0,0,0,0,0,0,0,0,0,0,0,0,1,
scooby_state_42a745|33|4 1,0,0,0,0,0,0,0,0,0,0,0,0,0,0,1,
scooby_state_42a745|10|-36 1,0,0,0,0,0,0,0,0,0,0,0,0,0,0,1,
scooby_state_42a6a5|49|40 0,1,0,0,0,0,0,0,0,0,0,0,0,0,0,1,
scooby_state_42d51c|31|-8 1,0,0,0,0,0,0,0,0,0,0,0,0,0,0,1,
scooby_state_42a238|8|5 1,0,0,0,0,0,0,0,0,0,0,0,0,0,0,1,
scooby_state_42ce8e|51|10 1,0,0,0,0,0,0,0,0,0,0,0,0,0,0,1,
scooby_state_405295|59|1 1,0,0,0,0,0,0,0,0,0,0,0,0,0,0,1,
scooby_state_473fc4|63|1 1,0,0,0,0,0,0,0,0,0,0,0,0,0,0,1,
scooby_state_42a6a5|5|0 1,0,0,0,0,0,0,0,0,0,0,0,0,0,0,1,
scooby_state_42f540|21|1 1,0,0,0,0,0,0,0,0,0,0,0,0,0,0,1,
scooby_state_42ce8e|4|-49 1,0,0,0,0,0,0,0,0,0,0,0,0,0,0,1,
scooby_state_42e373|37|-21 1,0,0,0,0,0,0,0,0,0,0,0,0,0,0,1,
scooby_state_42a0c8|3|-19 1,0,0,0,0,0,0,0,0,0,0,0,0,0,0,1,
scooby_state_42d88d|34|-3 1,0,0,0,0,0,0,0,0,0,0,0,0,0,0,1,
scooby_state_405278|60|4 1,0,0,0,0,0,0,0,0,0,0,0,0,0,0,1,
scooby_state_42ce8e|41|8 1,0,0,0,0,0,0,0,0,0,0,0,0,0,0,1,
scooby_state_405295|60|1 1,0,0,0,0,0,0,0,0,0,0,0,0,0,0,1,
scooby_state_42e702|28|6 1,0,0,0,0,0,0,0,0,0,0,0,0,0,0,1,
scooby_state_42ce8e|31|-3 1,0,0,0,0,0,0,0,0,0,0,0,0,0,0,1,
scooby_state_405295|52|1 1,0,0,0,0,0,0,0,0,0,0,0,0,0,0,1,
scooby_state_405804|38|-1 1,0,0,0,0,0,0,0,0,0,0,0,0,0,0,1,
scooby_state_42a704|48|48 1,0,0,0,0,0,0,0,0,0,0,0,0,0,0,1,
scooby_state_42a745|17|-17 1,0,0,0,0,0,0,0,0,0,0,0,0,0,0,1,
scooby_state_42a6a5|11|2 1,0,0,0,0,0,0,0,0,0,0,0,0,0,0,1,
scooby_state_4054c3|19|1 1,0,0,0,0,0,0,0,0,0,0,0,0,0,0,1,
scooby_state_42ce8e|44|25 1,0,0,0,0,0,0,0,0,0,0,0,0,0,0,1,
scooby_state_42a6c3|9|5 1,0,0,0,0,0,0,0,0,0,0,0,0,0,0,1,
scooby_state_42d51c|31|-20 1,0,0,0,0,0,0,0,0,0,0,0,0,0,0,1,
scooby_state_42ce8e|53|-8 1,0,0,0,0,0,0,0,0,0,0,0,0,0,0,1,
scooby_state_40575a|45|1 1,0,0,0,0,0,0,0,0,0,0,0,0,0,0,1,
scooby_state_405268|38|2 1,0,0,0,0,0,0,0,0,0,0,0,0,0,0,1,
scooby_state_42a6c3|49|0 1,0,0,0,0,0,0,0,0,0,0,0,0,0,0,1,
scooby_state_42ce8e|2|-2 0,1,0,0,0,0,0,0,0,0,0,0,0,0,0,1,
scooby_state_42a704|60|4 1,0,0,0,0,0,0,0,0,0,0,0,0,0,0,1,
scooby_state_42ce8e|9|-34 1,0,0,0,0,0,0,0,0,0,0,0,0,0,0,1,
scooby_state_42ce8e|19|11 1,0,0,0,0,0,0,0,0,0,0,0,0,0,0,1,
scooby_state_42ce8e|3|-58 1,0,0,0,0,0,0,0,0,0,0,0,0,0,0,1,
scooby_state_424739|28|1 1,0,0,0,0,0,0,0,0,0,0,0,0,0,0,1,
scooby_state_42a745|16|5 1,0,0,0,0,0,0,0,0,0,0,0,0,0,0,1,
scooby_state_42dcc3|51|1 1,0,0,0,0,0,0,0,0,0,0,0,0,0,0,1,
scooby_state_42ce8e|0|-18 1,0,0,0,0,0,0,0,0,0,0,0,0,0,0,1,
scooby_state_42ce8e|33|25 1,0,0,0,0,0,0,0,0,0,0,0,0,0,0,1,
scooby_state_42a745|29|-15 1,0,0,0,0,0,0,0,0,0,0,0,0,0,0,1,
scooby_state_42a6c3|60|60 1,0,0,0,0,0,0,0,0,0,0,0,0,0,0,1,
scooby_state_42a704|36|-13 1,0,0,0,0,0,0,0,0,0,0,0,0,0,0,1,
scooby_state_42a745|43|32 1,0,0,0,0,0,0,0,0,0,0,0,0,0,0,1,
scooby_state_42d730|28|0 1,0,0,0,0,0,0,0,0,0,0,0,0,0,0,1,
scooby_state_42a745|9|-18 1,0,0,0,0,0,0,0,0,0,0,0,0,0,0,1,
scooby_state_42a2dd|11|1 1,0,0,0,0,0,0,0,0,0,0,0,0,0,0,1,
scooby_state_42ce8e|0|-61 1,0,0,0,0,0,0,0,0,0,0,0,0,0,0,1,
scooby_state_4246f6|35|1 1,0,0,0,0,0,0,0,0,0,0,0,0,0,0,1,
scooby_state_42a704|40|7 1,0,0,0,0,0,0,0,0,0,0,0,0,0,0,1,
scooby_state_42a6c3|27|1 1,0,0,0,0,0,0,0,0,0,0,0,0,0,0,1,
scooby_state_429b66|48|0 1,0,0,0,0,0,0,0,0,0,0,0,0,0,0,1,
scooby_state_42a704|3|-57 1,0,0,0,0,0,0,0,0,0,0,0,0,0,0,1,
scooby_state_42a745|29|-19 1,0,0,0,0,0,0,0,0,0,0,0,0,0,0,1,
scooby_state_40575a|43|1 1,0,0,0,0,0,0,0,0,0,0,0,0,0,0,1,
scooby_state_42ce8e|43|24 1,0,0,0,0,0,0,0,0,0,0,0,0,0,0,1,
scooby_state_42ad9e|54|-5 1,0,0,0,0,0,0,0,0,0,0,0,0,0,0,1,
scooby_state_42a745|12|-24 1,0,0,0,0,0,0,0,0,0,0,0,0,0,0,1,
scooby_state_42a745|49|33 1,0,0,0,0,0,0,0,0,0,0,0,0,0,0,1,
scooby_state_405301|54|2 1,0,0,0,0,0,0,0,0,0,0,0,0,0,0,1,
scooby_state_42e441|17|1 1,0,0,0,0,0,0,0,0,0,0,0,0,0,0,1,
scooby_state_42ce8e|16|-37 1,0,0,0,0,0,0,0,0,0,0,0,0,0,0,1,
scooby_state_405b43|45|1 1,0,0,0,0,0,0,0,0,0,0,0,0,0,0,1,
scooby_state_42a940|37|1 1,0,0,0,0,0,0,0,0,0,0,0,0,0,0,1,
scooby_state_42a745|45|6 1,0,0,0,0,0,0,0,0,0,0,0,0,0,0,1,
scooby_state_42a6a5|1|0 0,1,0,0,0,0,0,0,0,0,0,0,0,0,0,1,
scooby_state_42a6a5|40|29 1,0,0,0,0,0,0,0,0,0,0,0,0,0,0,1,
scooby_state_42a745|58|56 0,1,0,0,0,0,0,0,0,0,0,0,0,0,0,1,
scooby_state_42ce8e|24|-5 1,0,0,0,0,0,0,0,0,0,0,0,0,0,0,1,
scooby_state_42ce8e|32|-12 1,0,0,0,0,0,0,0,0,0,0,0,0,0,0,1,
scooby_state_42a6c3|0|-60 1,0,0,0,0,0,0,0,0,0,0,0,0,0,0,1,
scooby_state_42a745|3|-14 1,0,0,0,0,0,0,0,0,0,0,0,0,0,0,1,
scooby_state_42ce8e|16|-13 1,0,0,0,0,0,0,0,0,0,0,0,0,0,0,1,
scooby_state_42a745|12|1 1,0,0,0,0,0,0,0,0,0,0,0,0,0,0,1,
scooby_state_42cd90|54|0 1,0,0,0,0,0,0,0,0,0,0,0,0,0,0,1,
scooby_state_42a745|36|-13 1,0,0,0,0,0,0,0,0,0,0,0,0,0,0,1,
scooby_state_405d3c|42|-1 1,0,0,0,0,0,0,0,0,0,0,0,0,0,0,1,
scooby_state_42ce8e|33|-10 1,0,0,0,0,0,0,0,0,0,0,0,0,0,0,1,
scooby_state_405268|46|1 1,0,0,0,0,0,0,0,0,0,0,0,0,0,0,1,
scooby_state_42a6a5|49|2 1,0,0,0,0,0,0,0,0,0,0,0,0,0,0,1,
scooby_state_42cdc0|55|1 1,0,0,0,0,0,0,0,0,0,0,0,0,0,0,1,
scooby_state_42ce8e|29|-5 1,0,0,0,0,0,0,0,0,0,0,0,0,0,0,1,
scooby_state_42ce8e|33|33 1,0,0,0,0,0,0,0,0,0,0,0,0,0,0,1,
scooby_state_42a704|23|-11 1,0,0,0,0,0,0,0,0,0,0,0,0,0,0,1,
scooby_state_46120e|8|1 1,0,0,0,0,0,0,0,0,0,0,0,0,0,0,1,
scooby_state_42d302|12|1 1,0,0,0,0,0,0,0,0,0,0,0,0,0,0,1,
scooby_state_405278|18|-35 1,0,0,0,0,0,0,0,0,0,0,0,0,0,0,1,
scooby_state_42ce8e|47|38 1,0,0,0,0,0,0,0,0,0,0,0,0,0,0,1,
scooby_state_42a704|50|47 1,0,0,0,0,0,0,0,0,0,0,0,0,0,0,1,
scooby_state_42a6a5|54|6 1,0,0,0,0,0,0,0,0,0,0,0,0,0,0,1,
scooby_state_42a745|34|-14 1,0,0,0,0,0,0,0,0,0,0,0,0,0,0,1,
scooby_state_42a745|33|-1 1,0,0,0,0,0,0,0,0,0,0,0,0,0,0,1,
scooby_state_40575a|50|1 1,0,0,0,0,0,0,0,0,0,0,0,0,0,0,1,
scooby_state_42ce8e|3|-26 1,0,0,0,0,0,0,0,0,0,0,0,0,0,0,1,
scooby_state_42e620|34|-14 1,0,0,0,0,0,0,0,0,0,0,0,0,0,0,1,
scooby_state_42dc51|49|1 1,0,0,0,0,0,0,0,0,0,0,0,0,0,0,1,
scooby_state_405295|57|1 1,0,0,0,0,0,0,0,0,0,0,0,0,0,0,1,
scooby_state_42a704|3|-37 1,0,0,0,0,0,0,0,0,0,0,0,0,0,0,1,
scooby_state_42cec8|50|1 1,0,0,0,0,0,0,0,0,0,0,0,0,0,0,1,
scooby_state_42ce8e|16|-17 1,0,0,0,0,0,0,0,0,0,0,0,0,0,0,1,
scooby_state_4732c4|11|1 1,0,0,0,0,0,0,0,0,0,0,0,0,0,0,1,
scooby_state_42e481|18|1 1,0,0,0,0,0,0,0,0,0,0,0,0,0,0,1,
scooby_state_42a745|15|-25 0,1,0,0,0,0,0,0,0,0,0,0,0,0,0,1,
scooby_state_42a6a5|35|20 1,0,0,0,0,0,0,0,0,0,0,0,0,0,0,1,
scooby_state_42ce8e|36|-8 0,1,0,0,0,0,0,0,0,0,0,0,0,0,0,1,
scooby_state_42ce7c|45|1 1,0,0,0,0,0,0,0,0,0,0,0,0,0,0,1,
scooby_state_42a6a5|35|-5 1,0,0,0,0,0,0,0,0,0,0,0,0,0,0,1,
scooby_state_42a745|0|-48 1,0,0,0,0,0,0,0,0,0,0,0,0,0,0,1,
scooby_state_42a745|21|-2 1,0,0,0,0,0,0,0,0,0,0,0,0,0,0,1,
scooby_state_42a745|3|-57 1,0,0,0,0,0,0,0,0,0,0,0,0,0,0,1,
scooby_state_42f5c9|23|-9 1,0,0,0,0,0,0,0,0,0,0,0,0,0,0,1,
scooby_state_42a745|21|-33 1,0,0,0,0,0,0,0,0,0,0,0,0,0,0,1,
scooby_state_42ce8e|51|18 1,0,0,0,0,0,0,0,0,0,0,0,0,0,0,1,
scooby_state_42a745|15|-43 1,0,0,0,0,0,0,0,0,0,0,0,0,0,0,1,
scooby_state_405278|32|3 1,0,0,0,0,0,0,0,0,0,0,0,0,0,0,1,
scooby_state_42ce8e|25|22 1,0,0,0,0,0,0,0,0,0,0,0,0,0,0,1,
scooby_state_405278|40|2 1,0,0,0,0,0,0,0,0,0,0,0,0,0,0,1,
scooby_state_42a6a5|39|-10 1,0,0,0,0,0,0,0,0,0,0,0,0,0,0,1,
scooby_state_42ce8e|47|-14 1,0,0,0,0,0,0,0,0,0,0,0,0,0,0,1,
scooby_state_42a745|12|-38 1,0,0,0,0,0,0,0,0,0,0,0,0,0,0,1,
scooby_state_42a745|45|18 1,0,0,0,0,0,0,0,0,0,0,0,0,0,0,1,
scooby_state_42a6a5|2|-37 1,0,0,0,0,0,0,0,0,0,0,0,0,0,0,1,
scooby_state_42a6c3|5|-49 1,0,0,0,0,0,0,0,0,0,0,0,0,0,0,1,
scooby_state_42a6a5|11|9 0,1,0,0,0,0,0,0,0,0,0,0,0,0,0,1,
scooby_state_42ce8e|51|24 1,0,0,0,0,0,0,0,0,0,0,0,0,0,0,1,
scooby_state_42a745|33|3 1,0,0,0,0,0,0,0,0,0,0,0,0,0,0,1,
scooby_state_405295|49|4 1,0,0,0,0,0,0,0,0,0,0,0,0,0,0,1,
scooby_state_42a745|31|1 1,0,0,0,0,0,0,0,0,0,0,0,0,0,0,1,
scooby_state_42a6c3|40|-9 1,0,0,0,0,0,0,0,0,0,0,0,0,0,0,1,
scooby_state_42ce8e|51|8 1,0,0,0,0,0,0,0,0,0,0,0,0,0,0,1,
scooby_state_42ce8e|3|-31 1,0,0,0,0,0,0,0,0,0,0,0,0,0,0,1,
scooby_state_42ce8e|40|-2 0,1,0,0,0,0,0,0,0,0,0,0,0,0,0,1,
scooby_state_42a745|43|-5 1,0,0,0,0,0,0,0,0,0,0,0,0,0,0,1,
scooby_state_42a745|44|-4 1,0,0,0,0,0,0,0,0,0,0,0,0,0,0,1,
scooby_state_42ce8e|8|-10 0,0,0,0,0,0,0,0,0,0,1,0,0,0,0,1,
scooby_state_42a745|33|-12 1,0,0,0,0,0,0,0,0,0,0,0,0,0,0,1,
scooby_state_42a745|29|-4 1,0,0,0,0,0,0,0,0,0,0,0,0,0,0,1,
scooby_state_42ce8e|43|-1 1,0,0,0,0,0,0,0,0,0,0,0,0,0,0,1,
[...]
scooby_state_405295|40|4 1,0,0,0,0,0,0,0,0,0,0,0,0,0,0,1,
scooby_state_42e6bd|35|2 1,0,0,0,0,0,0,0,0,0,0,0,0,0,0,1,
scooby_state_42f481|18|1 1,0,0,0,0,0,0,0,0,0,0,0,0,0,0,1,
scooby_state_4057fb|39|2 1,0,0,0,0,0,0,0,0,0,0,0,0,0,0,1,
scooby_state_42f7c1|31|16 1,0,0,0,0,0,0,0,0,0,0,0,0,0,0,1,
scooby_state_4053c1|15|1 1,0,0,0,0,0,0,0,0,0,0,0,0,0,0,1,
scooby_state_405268|49|0 1,0,0,0,0,0,0,0,0,0,0,0,0,0,0,1,
scooby_state_42a704|29|-16 1,0,0,0,0,0,0,0,0,0,0,0,0,0,0,1,
scooby_state_42d510|20|-33 1,0,0,0,0,0,0,0,0,0,0,0,0,0,0,1,
scooby_state_405268|19|-40 1,0,0,0,0,0,0,0,0,0,0,0,0,0,0,1,
scooby_state_42dc82|50|1 1,0,0,0,0,0,0,0,0,0,0,0,0,0,0,1,
scooby_state_42db80|46|1 1,0,0,0,0,0,0,0,0,0,0,0,0,0,0,1,
scooby_state_42da40|41|-2 1,0,0,0,0,0,0,0,0,0,0,0,0,0,0,1,
scooby_state_429e7d|35|-4 1,0,0,0,0,0,0,0,0,0,0,0,0,0,0,1,
scooby_state_405278|33|-30 1,0,0,0,0,0,0,0,0,0,0,0,0,0,0,1,
scooby_state_42d0c8|3|-60 1,0,0,0,0,0,0,0,0,0,0,0,0,0,0,1,
scooby_state_42ce7c|30|-18 1,0,0,0,0,0,0,0,0,0,0,0,0,0,0,1,
scooby_state_46ce00|56|1 1,0,0,0,0,0,0,0,0,0,0,0,0,0,0,1,
scooby_state_405384|14|1 1,0,0,0,0,0,0,0,0,0,0,0,0,0,0,1,
scooby_state_42ddc0|55|1 1,0,0,0,0,0,0,0,0,0,0,0,0,0,0,1,
scooby_state_429f80|62|5 1,0,0,0,0,0,0,0,0,0,0,0,0,0,0,1,
scooby_state_42aa87|42|1 1,0,0,0,0,0,0,0,0,0,0,0,0,0,0,1,
scooby_state_42a6a5|14|-35 1,0,0,0,0,0,0,0,0,0,0,0,0,0,0,1,
scooby_state_42aa02|40|1 1,0,0,0,0,0,0,0,0,0,0,0,0,0,0,1,
scooby_state_42a745|31|0 1,0,0,0,0,0,0,0,0,0,0,0,0,0,0,1,
scooby_state_429e40|57|13 1,0,0,0,0,0,0,0,0,0,0,0,0,0,0,1,
scooby_state_42a856|33|20 1,0,0,0,0,0,0,0,0,0,0,0,0,0,0,1,
scooby_state_405bea|27|1 1,0,0,0,0,0,0,0,0,0,0,0,0,0,0,1,
scooby_state_42a6a5|35|-12 1,0,0,0,0,0,0,0,0,0,0,0,0,0,0,1,
scooby_state_400380|14|1 1,0,0,0,0,0,0,0,0,0,0,0,0,0,0,1,
scooby_state_42d51c|31|-23 1,0,0,0,0,0,0,0,0,0,0,0,0,0,0,1,
scooby_state_429c41|49|1 1,0,0,0,0,0,0,0,0,0,0,0,0,0,0,1,
scooby_state_42e2c1|11|1 1,0,0,0,0,0,0,0,0,0,0,0,0,0,0,1,
scooby_state_42da00|40|11 1,0,0,0,0,0,0,0,0,0,0,0,0,0,0,1,
scooby_state_42a6c3|11|0 1,0,0,0,0,0,0,0,0,0,0,0,0,0,0,1,
scooby_state_429c16|34|-1 1,0,0,0,0,0,0,0,0,0,0,0,0,0,0,1,
scooby_state_42d801|32|1 1,0,0,0,0,0,0,0,0,0,0,0,0,0,0,1,
scooby_state_42a6a5|26|15 1,0,0,0,0,0,0,0,0,0,0,0,0,0,0,1,
scooby_state_42ce8e|28|17 1,0,0,0,0,0,0,0,0,0,0,0,0,0,0,1,
scooby_state_42f70f|28|5 1,0,0,0,0,0,0,0,0,0,0,0,0,0,0,1,
scooby_state_405445|17|1 1,0,0,0,0,0,0,0,0,0,0,0,0,0,0,1,
scooby_state_429c03|48|1 1,0,0,0,0,0,0,0,0,0,0,0,0,0,0,1,
scooby_state_42d240|9|6 1,0,0,0,0,0,0,0,0,0,0,0,0,0,0,1,
scooby_state_42a704|21|-29 1,0,0,0,0,0,0,0,0,0,0,0,0,0,0,1,
scooby_state_405268|54|2 1,0,0,0,0,0,0,0,0,0,0,0,0,0,0,1,
scooby_state_405180|6|1 1,0,0,0,0,0,0,0,0,0,0,0,0,0,0,1,
scooby_state_42a6c3|54|6 1,0,0,0,0,0,0,0,0,0,0,0,0,0,0,1,
scooby_state_429bc4|47|1 1,0,0,0,0,0,0,0,0,0,0,0,0,0,0,1,
scooby_state_42e740|29|-22 1,0,0,0,0,0,0,0,0,0,0,0,0,0,0,1,
scooby_state_42d540|21|1 1,0,0,0,0,0,0,0,0,0,0,0,0,0,0,1,
scooby_state_42e800|32|1 1,0,0,0,0,0,0,0,0,0,0,0,0,0,0,1,
scooby_state_405684|26|1 1,0,0,0,0,0,0,0,0,0,0,0,0,0,0,1,
scooby_state_40583c|26|2 1,0,0,0,0,0,0,0,0,0,0,0,0,0,0,1,
scooby_state_4058e0|36|-2 1,0,0,0,0,0,0,0,0,0,0,0,0,0,0,1,
scooby_state_42f056|1|-18 1,0,0,0,0,0,0,0,0,0,0,0,0,0,0,1,
scooby_state_405540|21|1 1,0,0,0,0,0,0,0,0,0,0,0,0,0,0,1,
scooby_state_42a745|45|-13 1,0,0,0,0,0,0,0,0,0,0,0,0,0,0,1,
scooby_state_405a43|41|1 1,0,0,0,0,0,0,0,0,0,0,0,0,0,0,1,
scooby_state_405940|37|1 1,0,0,0,0,0,0,0,0,0,0,0,0,0,0,1,
scooby_state_42a6c3|9|7 1,0,0,0,0,0,0,0,0,0,0,0,0,0,0,1,
scooby_state_405601|24|1 1,0,0,0,0,0,0,0,0,0,0,0,0,0,0,1,
scooby_state_42ce8e|0|-47 1,0,0,0,0,0,0,0,0,0,0,0,0,0,0,1,
scooby_state_42a880|34|1 1,0,0,0,0,0,0,0,0,0,0,0,0,0,0,1,
scooby_state_4059c2|39|1 1,0,0,0,0,0,0,0,0,0,0,0,0,0,0,1,
scooby_state_42a745|40|-21 1,0,0,0,0,0,0,0,0,0,0,0,0,0,0,1,
scooby_state_42ce8e|33|23 1,0,0,0,0,0,0,0,0,0,0,0,0,0,0,1,
scooby_state_42a704|39|-21 1,0,0,0,0,0,0,0,0,0,0,0,0,0,0,1,
scooby_state_4055c2|23|1 1,0,0,0,0,0,0,0,0,0,0,0,0,0,0,1,
scooby_state_4052c2|11|1 1,0,0,0,0,0,0,0,0,0,0,0,0,0,0,1,
scooby_state_42d748|7|-38 1,0,0,0,0,0,0,0,0,0,0,0,0,0,0,1,
scooby_state_473302|12|1 1,0,0,0,0,0,0,0,0,0,0,0,0,0,0,1,
scooby_state_42dfc0|63|2 1,0,0,0,0,0,0,0,0,0,0,0,0,0,0,1,
scooby_state_405268|9|-42 1,0,0,0,0,0,0,0,0,0,0,0,0,0,0,1,
scooby_state_405bc1|47|1 1,0,0,0,0,0,0,0,0,0,0,0,0,0,0,1,
scooby_state_405ac4|43|1 1,0,0,0,0,0,0,0,0,0,0,0,0,0,0,1,
scooby_state_42a5b4|22|-32 1,0,0,0,0,0,0,0,0,0,0,0,0,0,0,1,
scooby_state_42ce7c|41|13 1,0,0,0,0,0,0,0,0,0,0,0,0,0,0,1,
scooby_state_42ce8e|1|1 1,0,0,0,0,0,0,0,0,0,0,0,0,0,0,1,
scooby_state_42a745|33|0 1,0,0,0,0,0,0,0,0,0,0,0,0,0,0,1,
scooby_state_42ce8e|53|51 0,0,1,0,0,0,0,0,0,0,0,0,0,0,0,1,
scooby_state_42a704|50|16 1,0,0,0,0,0,0,0,0,0,0,0,0,0,0,1,
scooby_state_42a704|43|31 1,0,0,0,0,0,0,0,0,0,0,0,0,0,0,1,
scooby_state_405278|63|1 1,0,0,0,0,0,0,0,0,0,0,0,0,0,0,1,
scooby_state_405b82|46|1 1,0,0,0,0,0,0,0,0,0,0,0,0,0,0,1,
scooby_state_42a745|17|-24 1,0,0,0,0,0,0,0,0,0,0,0,0,0,0,1,
scooby_state_42d840|33|1 1,0,0,0,0,0,0,0,0,0,0,0,0,0,0,1,
scooby_state_42ed19|52|2 1,0,0,0,0,0,0,0,0,0,0,0,0,0,0,1,
scooby_state_405268|14|-40 1,0,0,0,0,0,0,0,0,0,0,0,0,0,0,1,
scooby_state_42cf01|60|1 1,0,0,0,0,0,0,0,0,0,0,0,0,0,0,1,
scooby_state_42a6a5|47|12 1,0,0,0,0,0,0,0,0,0,0,0,0,0,0,1,
scooby_state_42a745|50|49 0,1,0,0,0,0,0,0,0,0,0,0,0,0,0,1,
scooby_state_42a1c7|7|1 1,0,0,0,0,0,0,0,0,0,0,0,0,0,0,1,
scooby_state_42ce8e|36|17 1,0,0,0,0,0,0,0,0,0,0,0,0,0,0,1,
scooby_state_42ae48|57|0 1,0,0,0,0,0,0,0,0,0,0,0,0,0,0,1,
scooby_state_42f090|2|-5 1,0,0,0,0,0,0,0,0,0,0,0,0,0,0,1,
scooby_state_42a745|0|-43 1,0,0,0,0,0,0,0,0,0,0,0,0,0,0,1,
scooby_state_42ce8e|5|-11 1,0,0,0,0,0,0,0,0,0,0,0,0,0,0,1,
scooby_state_42e580|22|1 1,0,0,0,0,0,0,0,0,0,0,0,0,0,0,1,
scooby_state_42de44|57|1 1,0,0,0,0,0,0,0,0,0,0,0,0,0,0,1,
scooby_state_405c85|50|1 1,0,0,0,0,0,0,0,0,0,0,0,0,0,0,1,
scooby_state_42d380|14|1 1,0,0,0,0,0,0,0,0,0,0,0,0,0,0,1,
scooby_state_42d5c0|23|1 1,0,0,0,0,0,0,0,0,0,0,0,0,0,0,1,
scooby_state_42a9c0|39|1 1,0,0,0,0,0,0,0,0,0,0,0,0,0,0,1,
scooby_state_42d68c|26|1 1,0,0,0,0,0,0,0,0,0,0,0,0,0,0,1,
scooby_state_4246c6|27|1 1,0,0,0,0,0,0,0,0,0,0,0,0,0,0,1,
scooby_state_42ce03|56|1 1,0,0,0,0,0,0,0,0,0,0,0,0,0,0,1,
scooby_state_42f509|20|15 1,0,0,0,0,0,0,0,0,0,0,0,0,0,0,1,
scooby_state_429e85|58|-4 1,0,0,0,0,0,0,0,0,0,0,0,0,0,0,1,
scooby_state_4057f5|37|2 1,0,0,0,0,0,0,0,0,0,0,0,0,0,0,1,
scooby_state_42a981|38|1 1,0,0,0,0,0,0,0,0,0,0,0,0,0,0,1,
scooby_state_42a6c3|54|-6 1,0,0,0,0,0,0,0,0,0,0,0,0,0,0,1,
scooby_state_42ce7c|29|1 1,0,0,0,0,0,0,0,0,0,0,0,0,0,0,1,
scooby_state_42ae86|58|1 1,0,0,0,0,0,0,0,0,0,0,0,0,0,0,1,
scooby_state_42a745|1|-47 1,0,0,0,0,0,0,0,0,0,0,0,0,0,0,1,
scooby_state_42eb83|46|1 1,0,0,0,0,0,0,0,0,0,0,0,0,0,0,1,
scooby_state_42a6a5|48|47 1,0,0,0,0,0,0,0,0,0,0,0,0,0,0,1,
scooby_state_42d740|29|1 1,0,0,0,0,0,0,0,0,0,0,0,0,0,0,1,
scooby_state_42f1f0|7|6 1,0,0,0,0,0,0,0,0,0,0,0,0,0,0,1,
scooby_state_42e842|33|1 1,0,0,0,0,0,0,0,0,0,0,0,0,0,0,1,
scooby_state_42e940|37|9 1,0,0,0,0,0,0,0,0,0,0,0,0,0,0,1,
scooby_state_429b40|45|-13 1,0,0,0,0,0,0,0,0,0,0,0,0,0,0,1,
scooby_state_405a82|42|1 1,0,0,0,0,0,0,0,0,0,0,0,0,0,0,1,
scooby_state_42a745|40|37 1,0,0,0,0,0,0,0,0,0,0,0,0,0,0,1,
scooby_state_42a6a5|0|-5 1,0,0,0,0,0,0,0,0,0,0,0,0,0,0,1,
scooby_state_42a6a5|26|-23 1,0,0,0,0,0,0,0,0,0,0,0,0,0,0,1,
scooby_state_429e28|56|0 1,0,0,0,0,0,0,0,0,0,0,0,0,0,0,1,
scooby_state_42a745|33|-11 1,0,0,0,0,0,0,0,0,0,0,0,0,0,0,1,
scooby_state_42d783|30|-27 1,0,0,0,0,0,0,0,0,0,0,0,0,0,0,1,
scooby_state_4051c7|7|1 1,0,0,0,0,0,0,0,0,0,0,0,0,0,0,1,
scooby_state_42a147|5|1 1,0,0,0,0,0,0,0,0,0,0,0,0,0,0,1,
scooby_state_42e880|34|1 1,0,0,0,0,0,0,0,0,0,0,0,0,0,0,1,
scooby_state_405295|29|3 1,0,0,0,0,0,0,0,0,0,0,0,0,0,0,1,
scooby_state_42e918|36|1 1,0,0,0,0,0,0,0,0,0,0,0,0,0,0,1,
scooby_state_405268|29|3 1,0,0,0,0,0,0,0,0,0,0,0,0,0,0,1,
scooby_state_42ce85|58|1 1,0,0,0,0,0,0,0,0,0,0,0,0,0,0,1,
scooby_state_42d3c2|15|1 1,0,0,0,0,0,0,0,0,0,0,0,0,0,0,1,
scooby_state_42d298|10|-5 1,0,0,0,0,0,0,0,0,0,0,0,0,0,0,1,
scooby_state_405d00|52|22 1,0,0,0,0,0,0,0,0,0,0,0,0,0,0,1,
scooby_state_42adc0|55|2 1,0,0,0,0,0,0,0,0,0,0,0,0,0,0,1,
scooby_state_405285|10|1 1,0,0,0,0,0,0,0,0,0,0,0,0,0,0,1,
scooby_state_42ddc3|38|1 1,0,0,0,0,0,0,0,0,0,0,0,0,0,0,1,
scooby_state_429b86|46|1 1,0,0,0,0,0,0,0,0,0,0,0,0,0,0,1,
scooby_state_42f552|58|1 1,0,0,0,0,0,0,0,0,0,0,0,0,0,0,1,
scooby_state_42ce8e|43|34 0,1,0,0,0,0,0,0,0,0,0,0,0,0,0,1,
scooby_state_42a745|50|38 1,0,0,0,0,0,0,0,0,0,0,0,0,0,0,1,
scooby_state_42e61b|24|0 1,0,0,0,0,0,0,0,0,0,0,0,0,0,0,1,
scooby_state_42ece5|51|-8 1,0,0,0,0,0,0,0,0,0,0,0,0,0,0,1,
scooby_state_46ce42|57|1 1,0,0,0,0,0,0,0,0,0,0,0,0,0,0,1,
scooby_state_42a183|6|1 1,0,0,0,0,0,0,0,0,0,0,0,0,0,0,1,
scooby_state_42a782|30|6 1,0,0,0,0,0,0,0,0,0,0,0,0,0,0,1,
scooby_state_461184|6|-2 1,0,0,0,0,0,0,0,0,0,0,0,0,0,0,1,
scooby_state_42aa42|41|1 1,0,0,0,0,0,0,0,0,0,0,0,0,0,0,1,
scooby_state_40575a|38|2 1,0,0,0,0,0,0,0,0,0,0,0,0,0,0,1,
scooby_state_42ce8e|47|28 0,0,0,0,0,0,0,0,0,0,1,0,0,0,0,1,
scooby_state_42a6a5|11|-15 1,0,0,0,0,0,0,0,0,0,0,0,0,0,0,1,
scooby_state_405401|16|1 1,0,0,0,0,0,0,0,0,0,0,0,0,0,0,1,
scooby_state_42f551|57|19 1,0,0,0,0,0,0,0,0,0,0,0,0,0,0,1,
scooby_state_429dc6|55|1 1,0,0,0,0,0,0,0,0,0,0,0,0,0,0,1,
scooby_state_42a745|3|-36 1,0,0,0,0,0,0,0,0,0,0,0,0,0,0,1,
scooby_state_42a6a5|47|32 1,0,0,0,0,0,0,0,0,0,0,0,0,0,0,1,
scooby_state_42a541|21|1 1,0,0,0,0,0,0,0,0,0,0,0,0,0,0,1,
scooby_state_42ce7c|28|-2 1,0,0,0,0,0,0,0,0,0,0,0,0,0,0,1,
scooby_state_405481|18|1 1,0,0,0,0,0,0,0,0,0,0,0,0,0,0,1,
scooby_state_42e5f8|11|-1 1,0,0,0,0,0,0,0,0,0,0,0,0,0,0,1,
scooby_state_42eb00|44|1 1,0,0,0,0,0,0,0,0,0,0,0,0,0,0,1,
scooby_state_42a128|4|-4 1,0,0,0,0,0,0,0,0,0,0,0,0,0,0,1,
scooby_state_42e5f8|12|0 1,0,0,0,0,0,0,0,0,0,0,0,0,0,0,1,
scooby_state_461142|5|1 1,0,0,0,0,0,0,0,0,0,0,0,0,0,0,1,
scooby_state_42daf0|43|3 1,0,0,0,0,0,0,0,0,0,0,0,0,0,0,1,
scooby_state_42ce8e|27|17 1,0,0,0,0,0,0,0,0,0,0,0,0,0,0,1,
scooby_state_405c09|48|1 1,0,0,0,0,0,0,0,0,0,0,0,0,0,0,1,
scooby_state_42ce7c|41|3 1,0,0,0,0,0,0,0,0,0,0,0,0,0,0,1,
scooby_state_42e5f8|23|-1 1,0,0,0,0,0,0,0,0,0,0,0,0,0,0,1,
scooby_state_42a745|38|13 1,0,0,0,0,0,0,0,0,0,0,0,0,0,0,1,
scooby_state_42f42c|24|0 1,0,0,0,0,0,0,0,0,0,0,0,0,0,0,1,
scooby_state_42e2b3|10|5 1,0,0,0,0,0,0,0,0,0,0,0,0,0,0,1,
scooby_state_42f800|32|1 1,0,0,0,0,0,0,0,0,0,0,0,0,0,0,1,
scooby_state_42df78|61|1 1,0,0,0,0,0,0,0,0,0,0,0,0,0,0,1,
scooby_state_42e403|16|1 1,0,0,0,0,0,0,0,0,0,0,0,0,0,0,1,
scooby_state_42cec8|51|23 1,0,0,0,0,0,0,0,0,0,0,0,0,0,0,1,
scooby_state_42e3c2|15|1 1,0,0,0,0,0,0,0,0,0,0,0,0,0,0,1,
scooby_state_42e643|25|12 1,0,0,0,0,0,0,0,0,0,0,0,0,0,0,1,
scooby_state_42ce8e|19|-23 1,0,0,0,0,0,0,0,0,0,0,0,0,0,0,1,
scooby_state_42ec5a|29|-13 1,0,0,0,0,0,0,0,0,0,0,0,0,0,0,1,
scooby_state_42e6c0|27|1 1,0,0,0,0,0,0,0,0,0,0,0,0,0,0,1,
scooby_state_405981|38|1 1,0,0,0,0,0,0,0,0,0,0,0,0,0,0,1,
scooby_state_42cec8|38|8 1,0,0,0,0,0,0,0,0,0,0,0,0,0,0,1,
scooby_state_405301|40|4 1,0,0,0,0,0,0,0,0,0,0,0,0,0,0,1,
scooby_state_42e620|33|-1 1,0,0,0,0,0,0,0,0,0,0,0,0,0,0,1,
scooby_state_405701|28|1 1,0,0,0,0,0,0,0,0,0,0,0,0,0,0,1,
scooby_state_42a745|40|7 1,0,0,0,0,0,0,0,0,0,0,0,0,0,0,1,
scooby_state_42ce8e|34|34 1,0,0,0,0,0,0,0,0,0,0,0,0,0,0,1,
scooby_state_42a745|48|0 1,0,0,0,0,0,0,0,0,0,0,0,0,0,0,1,
scooby_state_42a745|50|16 1,0,0,0,0,0,0,0,0,0,0,0,0,0,0,1,
scooby_state_42db19|44|3 1,0,0,0,0,0,0,0,0,0,0,0,0,0,0,1,
scooby_state_42ec82|50|1 1,0,0,0,0,0,0,0,0,0,0,0,0,0,0,1,
scooby_state_46cd30|52|0 1,0,0,0,0,0,0,0,0,0,0,0,0,0,0,1,
scooby_state_42e555|21|1 1,0,0,0,0,0,0,0,0,0,0,0,0,0,0,1,
scooby_state_42eb40|45|1 1,0,0,0,0,0,0,0,0,0,0,0,0,0,0,1,
scooby_state_461120|4|0 1,0,0,0,0,0,0,0,0,0,0,0,0,0,0,1,
scooby_state_42a704|39|-19 1,0,0,0,0,0,0,0,0,0,0,0,0,0,0,1,
scooby_state_42f380|14|1 1,0,0,0,0,0,0,0,0,0,0,0,0,0,0,1,
scooby_state_42ce7c|50|7 1,0,0,0,0,0,0,0,0,0,0,0,0,0,0,1,
scooby_state_42ae02|56|1 1,0,0,0,0,0,0,0,0,0,0,0,0,0,0,1,
scooby_state_42a704|49|33 1,0,0,0,0,0,0,0,0,0,0,0,0,0,0,1,
scooby_state_42a500|20|1 1,0,0,0,0,0,0,0,0,0,0,0,0,0,0,1,
scooby_state_473280|10|0 1,0,0,0,0,0,0,0,0,0,0,0,0,0,0,1,
scooby_state_42e4d1|19|1 1,0,0,0,0,0,0,0,0,0,0,0,0,0,0,1,
scooby_state_405301|61|10 1,0,0,0,0,0,0,0,0,0,0,0,0,0,0,1,
scooby_state_42a69e|26|-35 1,0,0,0,0,0,0,0,0,0,0,0,0,0,0,1,
scooby_state_474ec2|59|1 1,0,0,0,0,0,0,0,0,0,0,0,0,0,0,1,
scooby_state_42a745|15|-19 1,0,0,0,0,0,0,0,0,0,0,0,0,0,0,1,
scooby_state_42d969|37|4 1,0,0,0,0,0,0,0,0,0,0,0,0,0,0,1,
scooby_state_42db43|45|3 1,0,0,0,0,0,0,0,0,0,0,0,0,0,0,1,
scooby_state_42dbc0|47|1 1,0,0,0,0,0,0,0,0,0,0,0,0,0,0,1,
scooby_state_42e9c2|39|1 1,0,0,0,0,0,0,0,0,0,0,0,0,0,0,1,
scooby_state_405658|58|1 1,0,0,0,0,0,0,0,0,0,0,0,0,0,0,1,
scooby_state_42f782|30|1 1,0,0,0,0,0,0,0,0,0,0,0,0,0,0,1,
scooby_state_42a745|13|1 1,0,0,0,0,0,0,0,0,0,0,0,0,0,0,1,
scooby_state_42ce8e|10|-9 1,0,0,0,0,0,0,0,0,0,0,0,0,0,0,1,
scooby_state_42a745|2|-25 0,1,0,0,0,0,0,0,0,0,0,0,0,0,0,1,
scooby_state_429d81|54|1 1,0,0,0,0,0,0,0,0,0,0,0,0,0,0,1,
scooby_state_42ce7c|29|-11 1,0,0,0,0,0,0,0,0,0,0,0,0,0,0,1,
scooby_state_42d7c0|31|1 1,0,0,0,0,0,0,0,0,0,0,0,0,0,0,1,
scooby_state_42ce7c|45|3 1,0,0,0,0,0,0,0,0,0,0,0,0,0,0,1,
scooby_state_42da89|42|-2 1,0,0,0,0,0,0,0,0,0,0,0,0,0,0,1,
scooby_state_405cc2|51|1 1,0,0,0,0,0,0,0,0,0,0,0,0,0,0,1,
scooby_state_42a6c3|60|59 1,0,0,0,0,0,0,0,0,0,0,0,0,0,0,1,
scooby_state_42d580|22|1 1,0,0,0,0,0,0,0,0,0,0,0,0,0,0,1,
scooby_state_42a702|28|1 1,0,0,0,0,0,0,0,0,0,0,0,0,0,0,1,

scooby_action_12_deg_dist 0,2,0,0,0,0,0,0,0,0,0,0,0,0,0,0,
scooby_action_11_deg_dist 0,4,0,0,0,0,0,0,0,0,0,0,0,0,0,0,
scooby_action_10_deg_dist 0,13,0,0,0,0,0,0,0,0,0,0,0,0,0,0,
scooby_action_5_deg_dist 0,14,0,0,0,0,0,0,0,0,0,0,0,0,0,0,
scooby_action_-1_deg_dist 0,1,0,0,0,0,0,0,0,0,0,0,0,0,0,0,
scooby_action_4_deg_dist 0,25,0,0,0,0,0,0,0,0,0,0,0,0,0,0,
scooby_action_32_deg_dist 0,22,0,0,0,0,0,0,0,0,0,0,0,0,0,0,
scooby_action_3_deg_dist 0,86,8,0,6,0,0,0,0,0,0,0,0,0,0,0,
scooby_action_1_deg_dist 0,677,163,0,361,0,3845,0,0,0,0,0,0,0,0,0,

scooby_track_called 5227
scooby_track_same_address 1967
scooby_track_evict 3004

scooby_reward_demand_called 5227
scooby_reward_demand_pt_not_found 1120
scooby_reward_demand_pt_found 4107
scooby_reward_demand_pt_found_total 4107
scooby_reward_demand_has_reward 1431
scooby_reward_train_called 518
scooby_reward_assign_reward_called 3254
scooby_reward_no_pref 0
scooby_reward_incorrect 518
scooby_reward_correct_untimely 2421
scooby_reward_correct_timely 255
scooby_reward_out_of_bounds 60
scooby_reward_tracker_hit 0

scooby_reward_none_low_bw 0
scooby_reward_none_high_bw 0
scooby_reward_incorrect_low_bw 518
scooby_reward_incorrect_high_bw 0
scooby_reward_correct_untimely_low_bw 2421
scooby_reward_correct_untimely_high_bw 0
scooby_reward_correct_timely_low_bw 255
scooby_reward_correct_timely_high_bw 0
scooby_reward_out_of_bounds_low_bw 60
scooby_reward_out_of_bounds_high_bw 0
scooby_reward_tracker_hit_low_bw 0
scooby_reward_tracker_hit_high_bw 0

scooby_reward_1 0,451,2410,253,47,0,
scooby_reward_3 0,33,6,1,2,0,
scooby_reward_4 0,16,0,0,0,0,
scooby_reward_5 0,6,2,0,0,0,
scooby_reward_10 0,4,0,0,0,0,
scooby_reward_11 0,2,0,0,0,0,
scooby_reward_12 0,1,0,0,0,0,
scooby_reward_22 0,0,0,0,0,0,
scooby_reward_23 0,0,0,0,0,0,
scooby_reward_30 0,0,0,0,0,0,
scooby_reward_32 0,4,3,1,11,0,
scooby_reward_-1 0,1,0,0,0,0,
scooby_reward_-3 0,0,0,0,0,0,
scooby_reward_-6 0,0,0,0,0,0,
scooby_reward_0 0,0,0,0,0,0,

scooby_train_called 3003
scooby_train_compute_reward 518

scooby_register_fill_called 3056
scooby_register_fill_set 451
scooby_register_fill_set_total 451

scooby_register_prefetch_hit_called 11379
scooby_register_prefetch_hit_set 3110
scooby_register_prefetch_hit_set_total 3110

scooby_pref_issue_scooby 14970

learning_engine_featurewise.action.called 5227
learning_engine_featurewise.action.explore 10
learning_engine_featurewise.action.exploit 5217
learning_engine_featurewise.action.fallback 0
learning_engine_featurewise.action.dyn_fallback_saved_bw 0
learning_engine_featurewise.action.dyn_fallback_saved_bw_acc 84
learning_engine_featurewise.action.index_1_explored 1
learning_engine_featurewise.action.index_1_exploited 5045
learning_engine_featurewise.action.index_3_explored 2
learning_engine_featurewise.action.index_3_exploited 98
learning_engine_featurewise.action.index_4_explored 0
learning_engine_featurewise.action.index_4_exploited 25
learning_engine_featurewise.action.index_5_explored 2
learning_engine_featurewise.action.index_5_exploited 12
learning_engine_featurewise.action.index_10_explored 0
learning_engine_featurewise.action.index_10_exploited 13
learning_engine_featurewise.action.index_11_explored 0
learning_engine_featurewise.action.index_11_exploited 4
learning_engine_featurewise.action.index_12_explored 0
learning_engine_featurewise.action.index_12_exploited 2
learning_engine_featurewise.action.index_22_explored 0
learning_engine_featurewise.action.index_22_exploited 0
learning_engine_featurewise.action.index_23_explored 0
learning_engine_featurewise.action.index_23_exploited 0
learning_engine_featurewise.action.index_30_explored 0
learning_engine_featurewise.action.index_30_exploited 0
learning_engine_featurewise.action.index_32_explored 4
learning_engine_featurewise.action.index_32_exploited 18
learning_engine_featurewise.action.index_-1_explored 1
learning_engine_featurewise.action.index_-1_exploited 0
learning_engine_featurewise.action.index_-3_explored 0
learning_engine_featurewise.action.index_-3_exploited 0
learning_engine_featurewise.action.index_-6_explored 0
learning_engine_featurewise.action.index_-6_exploited 0
learning_engine_featurewise.action.index_0_explored 0
learning_engine_featurewise.action.index_0_exploited 0
learning_engine_featurewise.learn.called 3003
learning_engine_featurewise.learn.su_skip_PC 0
learning_engine_featurewise.learn.su_skip_PC_Delta 0

learning_engine_featurewise.q_value_histogram.bucket_0 0
learning_engine_featurewise.q_value_histogram.bucket_1 0
learning_engine_featurewise.q_value_histogram.bucket_2 0
learning_engine_featurewise.q_value_histogram.bucket_3 0
learning_engine_featurewise.q_value_histogram.bucket_4 3120
learning_engine_featurewise.q_value_histogram.bucket_5 359
learning_engine_featurewise.q_value_histogram.bucket_6 1738
learning_engine_featurewise.q_value_histogram.bucket_7 0

learning_engine_featurewise.consensus.total 5217
learning_engine_featurewise.consensus.feature_align_PC 4736
learning_engine_featurewise.consensus.feature_align_PC_ratio 0.91
learning_engine_featurewise.consensus.feature_align_PC_Delta 5044
learning_engine_featurewise.consensus.feature_align_PC_Delta_ratio 0.97
learning_engine_featurewise.consensus.feature_align_all 4563
learning_engine_featurewise.consensus.feature_align_all_ratio 0.87

learning_engine_featurewise.feature_PC_min_weight 1000000.00000000
learning_engine_featurewise.feature_PC_max_weight 0.00000000
learning_engine_featurewise.feature_PC_Delta_min_weight 1000000.00000000
learning_engine_featurewise.feature_PC_Delta_max_weight 0.00000000
unique_pcs 314
unique_pages 74
unique_trigger_pcs 33
total_bitmaps_seen 0
unique_bitmaps_seen 0

scooby_bw_epochs 230872
scooby_bw_level_0 228232
scooby_bw_level_1 2636
scooby_bw_level_2 4
scooby_bw_level_3 0

scooby_ipc_epochs 0
scooby_ipc_level_0 0
scooby_ipc_level_1 0
scooby_ipc_level_2 0
scooby_ipc_level_3 0

scooby_cache_acc_epochs 57683
scooby_cache_acc_level_0 54646
scooby_cache_acc_level_1 284
scooby_cache_acc_level_2 354
scooby_cache_acc_level_3 362
scooby_cache_acc_level_4 433
scooby_cache_acc_level_5 300
scooby_cache_acc_level_6 377
scooby_cache_acc_level_7 333
scooby_cache_acc_level_8 362
scooby_cache_acc_level_9 232

Channel_0_RQ_row_buffer_hit 21161
Channel_0_RQ_row_buffer_miss 2528
Channel_0_WQ_row_buffer_hit 0
Channel_0_WQ_row_buffer_miss 0
Channel_0_WQ_full 0
Channel_0_dbus_congested 8811

avg_congested_cycle 8

DRAM_bw_pochs 230872
DRAM_bw_level_0 228232
DRAM_bw_level_1 2636
DRAM_bw_level_2 4
DRAM_bw_level_3 0
