*************************************************
   ChampSim Multicore Out-of-Order Simulator
   Last compiled: Apr  3 2025 20:54:34
*************************************************
parsing config file: /home/zir/Pythia/config/pythia.ini

trace_0 /home/zir/ChampSim/ML-DPC/ChampSimTraces/spec17/623.xalancbmk-s0.trace.xz
adding L2C_PREFETCHER: Scooby
Initialize SHIP state
warmup_instructions 10000000
simulation_instructions 50000000
champsim_seed 163
measure_ipc 0
measure_ipc_epoch 1000
measure_dram_bw 1
measure_dram_bw_epoch 256
measure_cache_acc 1
measure_cache_acc_epoch 1024
l1d_perfect 0
l2c_perfect 0
llc_perfect 0
l1d_semi_perfect 0
l2c_semi_perfect 0
llc_semi_perfect 0
semi_perfect_cache_page_buffer_size 64

num_cpus 1
cpu_freq 4000
dram_io_freq 2400
page_size 4096
block_size 64
max_read_per_cycle 8
max_fill_per_cycle 1
dram_channels 1
log2_dram_channels 0
dram_ranks 1
dram_banks 8
dram_rows 65536
dram_columns 128
dram_row_size 8
dram_size 4096
dram_pages 1048576

fetch_width 6
decode_width 6
exec_width 4
lq_width 2
sq_width 2
retire_width 4
scheduler_size 128
branch_mispredict_penalty 20
rob_size 256
lq_size 72
sq_size 56
num_instr_destinations_sparc 4
num_instr_destinations 2
num_instr_sources 4

itlb_set 16
itlb_way 8
itlb_rq_size 16
itlb_wq_size 16
itlb_pq_size 0
itlb_mshr_size 8
itlb_latency 1

dtlb_set 16
dtlb_way 4
dtlb_rq_size 16
dtlb_wq_size 16
dtlb_pq_size 0
dtlb_mshr_size 8
dtlb_latency 1

stlb_set 128
stlb_way 12
stlb_rq_size 32
stlb_wq_size 32
stlb_pq_size 0
stlb_mshr_size 16
stlb_latency 8

l1i_size 32
l1i_set 64
l1i_way 8
l1i_rq_size 64
l1i_wq_size 64
l1i_pq_size 8
l1i_mshr_size 8
l1i_latency 1

l1d_size 32
l1d_set 64
l1d_way 8
l1d_rq_size 64
l1d_wq_size 64
l1d_pq_size 8
l1d_mshr_size 16
l1d_latency 4

l2c_size 256
l2c_set 512
l2c_way 8
l2c_rq_size 32
l2c_wq_size 32
l2c_pq_size 32
l2c_mshr_size 32
l2c_latency 10

llc_size 2048
llc_set 2048
llc_way 16
llc_rq_size 32
llc_wq_size 32
llc_pq_size 32
llc_mshr_size 64
llc_latency 20

dram_channel_width 8
dram_wq_size 64
dram_rq_size 64
tRP 15
tRCD 15
tCAS 12.5
dram_dbus_turn_around_time 30
dram_write_high_wm 56
dram_write_low_wm 48
min_dram_writes_per_switch 16
dram_mtps 2400
dram_dbus_return_time 13

scooby_alpha 0.0065088
scooby_gamma 0.556301
scooby_epsilon 0.00182284
scooby_state_num_bits 10
scooby_max_states 1024
scooby_seed 200
scooby_policy EGreedy
scooby_learning_type SARSA
scooby_actions 1,3,4,5,10,11,12,22,23,30,32,-1,-3,-6,0,
scooby_max_actions 15
scooby_pt_size 256
scooby_st_size 64
scooby_max_pcs 5
scooby_max_offsets 5
scooby_max_deltas 5
scooby_reward_none -4
scooby_reward_incorrect -8
scooby_reward_correct_untimely 12
scooby_reward_correct_timely 20
scooby_brain_zero_init 0
scooby_enable_reward_all 0
scooby_enable_track_multiple 0
scooby_enable_reward_out_of_bounds 1
scooby_reward_out_of_bounds -12
scooby_state_type 1
scooby_state_hash_type 11
scooby_access_debug 0
scooby_print_access_debug 0
scooby_print_access_debug_pc deadbeef
scooby_print_access_debug_pc_count 0
scooby_print_trace 0
scooby_enable_state_action_stats 1
scooby_enable_reward_tracker_hit 0
scooby_reward_tracker_hit -2
scooby_enable_featurewise_engine 1
scooby_pref_degree 1
scooby_enable_dyn_degree 1
scooby_max_to_avg_q_thresholds 0.5,1,2,
scooby_dyn_degrees 1,2,4,4,
scooby_multi_deg_select_type 2
scooby_last_pref_offset_conf_thresholds 1,3,8,
scooby_dyn_degrees_type2 1,2,4,6,
scooby_action_tracker_size 2
scooby_high_bw_thresh 4
scooby_enable_hbw_reward 1
scooby_reward_hbw_correct_timely 20
scooby_reward_hbw_correct_untimely 12
scooby_reward_hbw_incorrect -14
scooby_reward_hbw_none -2
scooby_reward_hbw_out_of_bounds -12
scooby_reward_hbw_tracker_hit -2
scooby_last_pref_offset_conf_thresholds_hbw 1,3,8,
scooby_dyn_degrees_type2_hbw 1,2,4,6,

le_enable_trace 0
le_trace_interval 0
le_trace_file_name 
le_trace_state 0
le_enable_score_plot 0
le_plot_file_name 
le_plot_actions 
le_enable_action_trace 0
le_action_trace_interval 0
le_action_trace_name 
le_enable_action_plot 0

le_featurewise_active_features PC, PC_Delta
le_featurewise_num_tilings 3,3,
le_featurewise_num_tiles 128,128,
le_featurewise_hash_types 2,2,
le_featurewise_enable_tiling_offset 1,1,
le_featurewise_max_q_thresh 0.5
le_featurewise_enable_action_fallback 1
le_featurewise_feature_weights 1,1,
le_featurewise_enable_dynamic_weight 0
le_featurewise_weight_gradient 0.001
le_featurewise_disable_adjust_weight_all_features_align 1
le_featurewise_selective_update 0
le_featurewise_pooling_type 2
le_featurewise_enable_dyn_action_fallback 1
le_featurewise_bw_acc_check_level 1
le_featurewise_acc_thresh 2
le_featurewise_enable_trace 0
le_featurewise_trace_feature_type 0
le_featurewise_trace_feature 
le_featurewise_trace_interval 0
le_featurewise_trace_record_count 0
le_featurewise_trace_file_name 
le_featurewise_enable_score_plot 0
le_featurewise_plot_actions 
le_featurewise_plot_file_name 


Heartbeat CPU  0 instructions:    1000001 cycles:     605813 heartbeat IPC: 1.65068 cumulative IPC: 1.65068 (Simulation time: 0 hr 0 min 2 sec) 
Heartbeat CPU  0 instructions:    2000002 cycles:    1107098 heartbeat IPC: 1.99488 cumulative IPC: 1.80653 (Simulation time: 0 hr 0 min 4 sec) 
Heartbeat CPU  0 instructions:    3000002 cycles:    1673214 heartbeat IPC: 1.76642 cumulative IPC: 1.79296 (Simulation time: 0 hr 0 min 5 sec) 
Heartbeat CPU  0 instructions:    4000000 cycles:    2236695 heartbeat IPC: 1.77468 cumulative IPC: 1.78835 (Simulation time: 0 hr 0 min 7 sec) 
Heartbeat CPU  0 instructions:    5000001 cycles:    2688726 heartbeat IPC: 2.21224 cumulative IPC: 1.85962 (Simulation time: 0 hr 0 min 9 sec) 
Heartbeat CPU  0 instructions:    6000000 cycles:    3232880 heartbeat IPC: 1.83771 cumulative IPC: 1.85593 (Simulation time: 0 hr 0 min 11 sec) 
Heartbeat CPU  0 instructions:    7000000 cycles:    3738275 heartbeat IPC: 1.97865 cumulative IPC: 1.87252 (Simulation time: 0 hr 0 min 13 sec) 
Heartbeat CPU  0 instructions:    8000000 cycles:    4248068 heartbeat IPC: 1.96158 cumulative IPC: 1.88321 (Simulation time: 0 hr 0 min 15 sec) 
Heartbeat CPU  0 instructions:    9000001 cycles:    4783431 heartbeat IPC: 1.86789 cumulative IPC: 1.88149 (Simulation time: 0 hr 0 min 16 sec) 
Heartbeat CPU  0 instructions:   10000001 cycles:    5300589 heartbeat IPC: 1.93365 cumulative IPC: 1.88658 (Simulation time: 0 hr 0 min 18 sec) 

Warmup complete CPU  0 instructions:   10000001 cycles:    5300589 (Simulation time: 0 hr 0 min 18 sec) 

Heartbeat CPU  0 instructions:   11000003 cycles:    8007753 heartbeat IPC: 0.36939 cumulative IPC: 0.36939 (Simulation time: 0 hr 0 min 21 sec) 
Heartbeat CPU  0 instructions:   12000000 cycles:   11467717 heartbeat IPC: 0.28902 cumulative IPC: 0.32430 (Simulation time: 0 hr 0 min 24 sec) 
Heartbeat CPU  0 instructions:   13000002 cycles:   14460055 heartbeat IPC: 0.33419 cumulative IPC: 0.32753 (Simulation time: 0 hr 0 min 27 sec) 
Heartbeat CPU  0 instructions:   14000002 cycles:   17569330 heartbeat IPC: 0.32162 cumulative IPC: 0.32603 (Simulation time: 0 hr 0 min 30 sec) 
Heartbeat CPU  0 instructions:   15000000 cycles:   21232920 heartbeat IPC: 0.27296 cumulative IPC: 0.31383 (Simulation time: 0 hr 0 min 33 sec) 
Heartbeat CPU  0 instructions:   16000000 cycles:   23478183 heartbeat IPC: 0.44538 cumulative IPC: 0.33008 (Simulation time: 0 hr 0 min 35 sec) 
Heartbeat CPU  0 instructions:   17000000 cycles:   25957719 heartbeat IPC: 0.40330 cumulative IPC: 0.33887 (Simulation time: 0 hr 0 min 38 sec) 
Heartbeat CPU  0 instructions:   18000000 cycles:   29461596 heartbeat IPC: 0.28540 cumulative IPC: 0.33111 (Simulation time: 0 hr 0 min 41 sec) 
Heartbeat CPU  0 instructions:   19000003 cycles:   32402474 heartbeat IPC: 0.34004 cumulative IPC: 0.33208 (Simulation time: 0 hr 0 min 43 sec) 
Heartbeat CPU  0 instructions:   20000000 cycles:   35626608 heartbeat IPC: 0.31016 cumulative IPC: 0.32975 (Simulation time: 0 hr 0 min 46 sec) 
Heartbeat CPU  0 instructions:   21000000 cycles:   39221272 heartbeat IPC: 0.27819 cumulative IPC: 0.32429 (Simulation time: 0 hr 0 min 49 sec) 
Heartbeat CPU  0 instructions:   22000000 cycles:   41997270 heartbeat IPC: 0.36023 cumulative IPC: 0.32701 (Simulation time: 0 hr 0 min 52 sec) 
Heartbeat CPU  0 instructions:   23000001 cycles:   45632367 heartbeat IPC: 0.27510 cumulative IPC: 0.32233 (Simulation time: 0 hr 0 min 55 sec) 
Heartbeat CPU  0 instructions:   24000000 cycles:   48007427 heartbeat IPC: 0.42104 cumulative IPC: 0.32782 (Simulation time: 0 hr 0 min 57 sec) 
Heartbeat CPU  0 instructions:   25000000 cycles:   51631697 heartbeat IPC: 0.27592 cumulative IPC: 0.32376 (Simulation time: 0 hr 1 min 0 sec) 
Heartbeat CPU  0 instructions:   26000000 cycles:   53784239 heartbeat IPC: 0.46457 cumulative IPC: 0.33001 (Simulation time: 0 hr 1 min 3 sec) 
Heartbeat CPU  0 instructions:   27000000 cycles:   57437360 heartbeat IPC: 0.27374 cumulative IPC: 0.32607 (Simulation time: 0 hr 1 min 6 sec) 
Heartbeat CPU  0 instructions:   28000000 cycles:   59752248 heartbeat IPC: 0.43199 cumulative IPC: 0.33057 (Simulation time: 0 hr 1 min 8 sec) 
Heartbeat CPU  0 instructions:   29000001 cycles:   63260872 heartbeat IPC: 0.28501 cumulative IPC: 0.32781 (Simulation time: 0 hr 1 min 11 sec) 
Heartbeat CPU  0 instructions:   30000000 cycles:   65731076 heartbeat IPC: 0.40482 cumulative IPC: 0.33096 (Simulation time: 0 hr 1 min 14 sec) 
Heartbeat CPU  0 instructions:   31000000 cycles:   68798595 heartbeat IPC: 0.32600 cumulative IPC: 0.33072 (Simulation time: 0 hr 1 min 16 sec) 
Heartbeat CPU  0 instructions:   32000000 cycles:   71906527 heartbeat IPC: 0.32176 cumulative IPC: 0.33030 (Simulation time: 0 hr 1 min 19 sec) 
Heartbeat CPU  0 instructions:   33000001 cycles:   74029736 heartbeat IPC: 0.47099 cumulative IPC: 0.33465 (Simulation time: 0 hr 1 min 21 sec) 
Heartbeat CPU  0 instructions:   34000000 cycles:   77645161 heartbeat IPC: 0.27659 cumulative IPC: 0.33175 (Simulation time: 0 hr 1 min 24 sec) 
Heartbeat CPU  0 instructions:   35000002 cycles:   79919568 heartbeat IPC: 0.43968 cumulative IPC: 0.33504 (Simulation time: 0 hr 1 min 27 sec) 
Heartbeat CPU  0 instructions:   36000000 cycles:   83415741 heartbeat IPC: 0.28603 cumulative IPC: 0.33284 (Simulation time: 0 hr 1 min 30 sec) 
Heartbeat CPU  0 instructions:   37000000 cycles:   86246422 heartbeat IPC: 0.35327 cumulative IPC: 0.33356 (Simulation time: 0 hr 1 min 32 sec) 
Heartbeat CPU  0 instructions:   38000000 cycles:   89587471 heartbeat IPC: 0.29931 cumulative IPC: 0.33220 (Simulation time: 0 hr 1 min 35 sec) 
Heartbeat CPU  0 instructions:   39000000 cycles:   92031634 heartbeat IPC: 0.40914 cumulative IPC: 0.33437 (Simulation time: 0 hr 1 min 38 sec) 
Heartbeat CPU  0 instructions:   40000000 cycles:   93931388 heartbeat IPC: 0.52638 cumulative IPC: 0.33848 (Simulation time: 0 hr 1 min 40 sec) 
Heartbeat CPU  0 instructions:   41000002 cycles:   97581571 heartbeat IPC: 0.27396 cumulative IPC: 0.33593 (Simulation time: 0 hr 1 min 43 sec) 
Heartbeat CPU  0 instructions:   42000000 cycles:  100164562 heartbeat IPC: 0.38715 cumulative IPC: 0.33733 (Simulation time: 0 hr 1 min 46 sec) 
Heartbeat CPU  0 instructions:   43000002 cycles:  103819552 heartbeat IPC: 0.27360 cumulative IPC: 0.33496 (Simulation time: 0 hr 1 min 49 sec) 
Heartbeat CPU  0 instructions:   44000000 cycles:  106813943 heartbeat IPC: 0.33396 cumulative IPC: 0.33493 (Simulation time: 0 hr 1 min 51 sec) 
Heartbeat CPU  0 instructions:   45000002 cycles:  110375330 heartbeat IPC: 0.28079 cumulative IPC: 0.33310 (Simulation time: 0 hr 1 min 54 sec) 
Heartbeat CPU  0 instructions:   46000001 cycles:  113627866 heartbeat IPC: 0.30745 cumulative IPC: 0.33233 (Simulation time: 0 hr 1 min 57 sec) 
Heartbeat CPU  0 instructions:   47000002 cycles:  116590110 heartbeat IPC: 0.33758 cumulative IPC: 0.33247 (Simulation time: 0 hr 2 min 0 sec) 
Heartbeat CPU  0 instructions:   48000000 cycles:  120204716 heartbeat IPC: 0.27665 cumulative IPC: 0.33071 (Simulation time: 0 hr 2 min 3 sec) 
Heartbeat CPU  0 instructions:   49000002 cycles:  123272319 heartbeat IPC: 0.32599 cumulative IPC: 0.33059 (Simulation time: 0 hr 2 min 6 sec) 
Heartbeat CPU  0 instructions:   50000001 cycles:  126842266 heartbeat IPC: 0.28012 cumulative IPC: 0.32911 (Simulation time: 0 hr 2 min 9 sec) 
Heartbeat CPU  0 instructions:   51000000 cycles:  128789672 heartbeat IPC: 0.51350 cumulative IPC: 0.33201 (Simulation time: 0 hr 2 min 11 sec) 
Heartbeat CPU  0 instructions:   52000000 cycles:  132458361 heartbeat IPC: 0.27258 cumulative IPC: 0.33030 (Simulation time: 0 hr 2 min 14 sec) 
Heartbeat CPU  0 instructions:   53000001 cycles:  135459065 heartbeat IPC: 0.33326 cumulative IPC: 0.33037 (Simulation time: 0 hr 2 min 17 sec) 
Heartbeat CPU  0 instructions:   54000001 cycles:  138859316 heartbeat IPC: 0.29410 cumulative IPC: 0.32944 (Simulation time: 0 hr 2 min 20 sec) 
Heartbeat CPU  0 instructions:   55000002 cycles:  142447463 heartbeat IPC: 0.27870 cumulative IPC: 0.32812 (Simulation time: 0 hr 2 min 23 sec) 
Heartbeat CPU  0 instructions:   56000000 cycles:  145044157 heartbeat IPC: 0.38510 cumulative IPC: 0.32917 (Simulation time: 0 hr 2 min 25 sec) 
Heartbeat CPU  0 instructions:   57000002 cycles:  148673775 heartbeat IPC: 0.27551 cumulative IPC: 0.32782 (Simulation time: 0 hr 2 min 28 sec) 
Heartbeat CPU  0 instructions:   58000000 cycles:  151244230 heartbeat IPC: 0.38904 cumulative IPC: 0.32889 (Simulation time: 0 hr 2 min 31 sec) 
Heartbeat CPU  0 instructions:   59000000 cycles:  153606286 heartbeat IPC: 0.42336 cumulative IPC: 0.33040 (Simulation time: 0 hr 2 min 33 sec) 
Heartbeat CPU  0 instructions:   60000000 cycles:  157260803 heartbeat IPC: 0.27363 cumulative IPC: 0.32903 (Simulation time: 0 hr 2 min 36 sec) 
Finished CPU 0 instructions: 50000000 cycles: 151960222 cumulative IPC: 0.32903 (Simulation time: 0 hr 2 min 36 sec) 

ChampSim completed all CPUs

[ROI Statistics]
Core_0_instructions 50000000
Core_0_cycles 151960222
Core_0_IPC 0.32903

Core_0_branch_prediction_accuracy 99.26860
Core_0_branch_MPKI 1.73602
Core_0_average_ROB_occupancy_at_mispredict 115.35009

Core_0_L1D_total_access 10994473
Core_0_L1D_total_hit 9549816
Core_0_L1D_total_miss 1444657
Core_0_L1D_loads 8781103
Core_0_L1D_load_hit 7363772
Core_0_L1D_load_miss 1417331
Core_0_L1D_RFOs 2213370
Core_0_L1D_RFO_hit 2186044
Core_0_L1D_RFO_miss 27326
Core_0_L1D_prefetches 0
Core_0_L1D_prefetch_hit 0
Core_0_L1D_prefetch_miss 0
Core_0_L1D_writebacks 0
Core_0_L1D_writeback_hit 0
Core_0_L1D_writeback_miss 0
Core_0_L1D_prefetch_requested 0
Core_0_L1D_prefetch_dropped 0
Core_0_L1D_prefetch_issued 0
Core_0_L1D_prefetch_filled 0
Core_0_L1D_prefetch_useful 0
Core_0_L1D_prefetch_useless 0
Core_0_L1D_prefetch_late 0
Core_0_L1D_average_miss_latency 92.75378

Core_0_L1D_rq_access 14714537
Core_0_L1D_rq_forward 0
Core_0_L1D_rq_merged 5533413
Core_0_L1D_rq_to_cache 9181116
Core_0_L1D_rq_full 0

Core_0_L1D_wq_access 2303184
Core_0_L1D_wq_forward 8
Core_0_L1D_wq_merged 13008
Core_0_L1D_wq_to_cache 2290176
Core_0_L1D_wq_full 6436

Core_0_L1D_pq_access 0
Core_0_L1D_pq_forward 0
Core_0_L1D_pq_merged 0
Core_0_L1D_pq_to_cache 0
Core_0_L1D_pq_full 0

Core_0_L1D_acc_epochs 128311
Core_0_L1D_acc_level_0 128311
Core_0_L1D_acc_level_1 0
Core_0_L1D_acc_level_2 0
Core_0_L1D_acc_level_3 0
Core_0_L1D_acc_level_4 0
Core_0_L1D_acc_level_5 0
Core_0_L1D_acc_level_6 0
Core_0_L1D_acc_level_7 0
Core_0_L1D_acc_level_8 0
Core_0_L1D_acc_level_9 0

Core_0_L1I_total_access 16003366
Core_0_L1I_total_hit 15832827
Core_0_L1I_total_miss 170539
Core_0_L1I_loads 16003366
Core_0_L1I_load_hit 15832827
Core_0_L1I_load_miss 170539
Core_0_L1I_RFOs 0
Core_0_L1I_RFO_hit 0
Core_0_L1I_RFO_miss 0
Core_0_L1I_prefetches 0
Core_0_L1I_prefetch_hit 0
Core_0_L1I_prefetch_miss 0
Core_0_L1I_writebacks 0
Core_0_L1I_writeback_hit 0
Core_0_L1I_writeback_miss 0
Core_0_L1I_prefetch_requested 0
Core_0_L1I_prefetch_dropped 0
Core_0_L1I_prefetch_issued 0
Core_0_L1I_prefetch_filled 0
Core_0_L1I_prefetch_useful 0
Core_0_L1I_prefetch_useless 0
Core_0_L1I_prefetch_late 0
Core_0_L1I_average_miss_latency 20.89095

Core_0_L1I_rq_access 50000150
Core_0_L1I_rq_forward 0
Core_0_L1I_rq_merged 33890423
Core_0_L1I_rq_to_cache 16109727
Core_0_L1I_rq_full 0

Core_0_L1I_wq_access 0
Core_0_L1I_wq_forward 0
Core_0_L1I_wq_merged 0
Core_0_L1I_wq_to_cache 0
Core_0_L1I_wq_full 0

Core_0_L1I_pq_access 0
Core_0_L1I_pq_forward 0
Core_0_L1I_pq_merged 0
Core_0_L1I_pq_to_cache 0
Core_0_L1I_pq_full 0

Core_0_L1I_acc_epochs 128311
Core_0_L1I_acc_level_0 128311
Core_0_L1I_acc_level_1 0
Core_0_L1I_acc_level_2 0
Core_0_L1I_acc_level_3 0
Core_0_L1I_acc_level_4 0
Core_0_L1I_acc_level_5 0
Core_0_L1I_acc_level_6 0
Core_0_L1I_acc_level_7 0
Core_0_L1I_acc_level_8 0
Core_0_L1I_acc_level_9 0

Core_0_L2C_total_access 3044481
Core_0_L2C_total_hit 1032775
Core_0_L2C_total_miss 2011706
Core_0_L2C_loads 1587861
Core_0_L2C_load_hit 496847
Core_0_L2C_load_miss 1091014
Core_0_L2C_RFOs 27323
Core_0_L2C_RFO_hit 12962
Core_0_L2C_RFO_miss 14361
Core_0_L2C_prefetches 1371379
Core_0_L2C_prefetch_hit 466217
Core_0_L2C_prefetch_miss 905162
Core_0_L2C_writebacks 57918
Core_0_L2C_writeback_hit 56749
Core_0_L2C_writeback_miss 1169
Core_0_L2C_prefetch_requested 1958003
Core_0_L2C_prefetch_dropped 86
Core_0_L2C_prefetch_issued 1957917
Core_0_L2C_prefetch_filled 1102978
Core_0_L2C_prefetch_useful 380297
Core_0_L2C_prefetch_useless 721391
Core_0_L2C_prefetch_late 104517
Core_0_L2C_average_miss_latency 96.23066

Core_0_L2C_rq_access 1615196
Core_0_L2C_rq_forward 0
Core_0_L2C_rq_merged 0
Core_0_L2C_rq_to_cache 1615184
Core_0_L2C_rq_full 0

Core_0_L2C_wq_access 57918
Core_0_L2C_wq_forward 14
Core_0_L2C_wq_merged 0
Core_0_L2C_wq_to_cache 57918
Core_0_L2C_wq_full 0

Core_0_L2C_pq_access 1957917
Core_0_L2C_pq_forward 0
Core_0_L2C_pq_merged 21863
Core_0_L2C_pq_to_cache 1936052
Core_0_L2C_pq_full 0

Core_0_L2C_acc_epochs 128311
Core_0_L2C_acc_level_0 16017
Core_0_L2C_acc_level_1 17379
Core_0_L2C_acc_level_2 33964
Core_0_L2C_acc_level_3 31433
Core_0_L2C_acc_level_4 15190
Core_0_L2C_acc_level_5 7245
Core_0_L2C_acc_level_6 3539
Core_0_L2C_acc_level_7 1597
Core_0_L2C_acc_level_8 725
Core_0_L2C_acc_level_9 1222

Core_0_LLC_total_access 2039313
Core_0_LLC_total_hit 912607
Core_0_LLC_total_miss 1126706
Core_0_LLC_loads 991502
Core_0_LLC_load_hit 456651
Core_0_LLC_load_miss 534851
Core_0_LLC_RFOs 14257
Core_0_LLC_RFO_hit 7894
Core_0_LLC_RFO_miss 6363
Core_0_LLC_prefetches 1004778
Core_0_LLC_prefetch_hit 420890
Core_0_LLC_prefetch_miss 583888
Core_0_LLC_writebacks 28776
Core_0_LLC_writeback_hit 27172
Core_0_LLC_writeback_miss 1604
Core_0_LLC_prefetch_requested 0
Core_0_LLC_prefetch_dropped 0
Core_0_LLC_prefetch_issued 0
Core_0_LLC_prefetch_filled 710578
Core_0_LLC_prefetch_useful 3590
Core_0_LLC_prefetch_useless 693978
Core_0_LLC_prefetch_late 0
Core_0_LLC_average_miss_latency 118.07690

Core_0_LLC_rq_access 1005759
Core_0_LLC_rq_forward 0
Core_0_LLC_rq_merged 0
Core_0_LLC_rq_to_cache 1005759
Core_0_LLC_rq_full 0

Core_0_LLC_wq_access 28776
Core_0_LLC_wq_forward 0
Core_0_LLC_wq_merged 0
Core_0_LLC_wq_to_cache 28776
Core_0_LLC_wq_full 0

Core_0_LLC_pq_access 1207495
Core_0_LLC_pq_forward 0
Core_0_LLC_pq_merged 0
Core_0_LLC_pq_to_cache 1207495
Core_0_LLC_pq_full 0

Core_0_LLC_acc_epochs 153576
Core_0_LLC_acc_level_0 151419
Core_0_LLC_acc_level_1 1020
Core_0_LLC_acc_level_2 560
Core_0_LLC_acc_level_3 104
Core_0_LLC_acc_level_4 45
Core_0_LLC_acc_level_5 299
Core_0_LLC_acc_level_6 32
Core_0_LLC_acc_level_7 20
Core_0_LLC_acc_level_8 8
Core_0_LLC_acc_level_9 69

Core_0_major_page_fault 0
Core_0_minor_page_fault 10870

scooby_st_lookup 1905281
scooby_st_hit 1484792
scooby_st_evict 420425
scooby_st_insert 420489
scooby_st_streaming 0

scooby_predict_called 1905281
scooby_predict_out_of_bounds 51460
scooby_predict_action_1 1112822
scooby_predict_issue_action_1 927340
scooby_predict_hit_action_1 185482
scooby_predict_out_of_bounds_action_1 16140
scooby_predict_action_3 493579
scooby_predict_issue_action_3 445371
scooby_predict_hit_action_3 48208
scooby_predict_out_of_bounds_action_3 20815
scooby_predict_action_4 25300
scooby_predict_issue_action_4 19208
scooby_predict_hit_action_4 6092
scooby_predict_out_of_bounds_action_4 879
scooby_predict_action_5 19040
scooby_predict_issue_action_5 17295
scooby_predict_hit_action_5 1745
scooby_predict_out_of_bounds_action_5 1076
scooby_predict_action_10 6341
scooby_predict_issue_action_10 5971
scooby_predict_hit_action_10 370
scooby_predict_out_of_bounds_action_10 820
scooby_predict_action_11 8875
scooby_predict_issue_action_11 8203
scooby_predict_hit_action_11 672
scooby_predict_out_of_bounds_action_11 1481
scooby_predict_action_12 5490
scooby_predict_issue_action_12 5039
scooby_predict_hit_action_12 451
scooby_predict_out_of_bounds_action_12 914
scooby_predict_action_22 2575
scooby_predict_issue_action_22 2431
scooby_predict_hit_action_22 144
scooby_predict_out_of_bounds_action_22 1119
scooby_predict_action_23 1882
scooby_predict_issue_action_23 1780
scooby_predict_hit_action_23 102
scooby_predict_out_of_bounds_action_23 1006
scooby_predict_action_30 2460
scooby_predict_issue_action_30 2329
scooby_predict_hit_action_30 131
scooby_predict_out_of_bounds_action_30 1531
scooby_predict_action_32 2456
scooby_predict_issue_action_32 2274
scooby_predict_hit_action_32 182
scooby_predict_out_of_bounds_action_32 1565
scooby_predict_action_-1 23913
scooby_predict_issue_action_-1 9955
scooby_predict_hit_action_-1 13958
scooby_predict_out_of_bounds_action_-1 209
scooby_predict_action_-3 85294
scooby_predict_issue_action_-3 81232
scooby_predict_hit_action_-3 4062
scooby_predict_out_of_bounds_action_-3 3401
scooby_predict_action_-6 4629
scooby_predict_issue_action_-6 3782
scooby_predict_hit_action_-6 847
scooby_predict_out_of_bounds_action_-6 504
scooby_predict_action_0 59165
scooby_predict_issue_action_0 0
scooby_predict_hit_action_0 0
scooby_predict_out_of_bounds_action_0 0
scooby_predict_multi_deg_called 209374
scooby_predict_predicted 1958003
scooby_predict_multi_deg 425793
scooby_predict_multi_deg_2 204228
scooby_predict_multi_deg_3 83851
scooby_predict_multi_deg_4 81389
scooby_predict_multi_deg_5 28528
scooby_predict_multi_deg_6 27797
scooby_predict_multi_deg_7 0
scooby_predict_multi_deg_8 0
scooby_predict_multi_deg_9 0
scooby_predict_multi_deg_10 0
scooby_predict_multi_deg_11 0
scooby_predict_multi_deg_12 0
scooby_predict_multi_deg_13 0
scooby_predict_multi_deg_14 0
scooby_predict_multi_deg_15 0
scooby_predict_multi_deg_16 0

scooby_selected_deg_1 1322836
scooby_selected_deg_2 120181
scooby_selected_deg_3 0
scooby_selected_deg_4 57128
scooby_selected_deg_5 0
scooby_selected_deg_6 32065
scooby_selected_deg_7 0
scooby_selected_deg_8 0
scooby_selected_deg_9 0
scooby_selected_deg_10 0
scooby_selected_deg_11 0
scooby_selected_deg_12 0
scooby_selected_deg_13 0
scooby_selected_deg_14 0
scooby_selected_deg_15 0
scooby_selected_deg_16 0

scooby_state_59cdbf|0|0 3485,0,0,0,1,1,0,0,1,0,2,0,2,1,0,3493,
scooby_state_59cd9b|1|0 2,2971,2,1,0,0,1,0,0,2,1,0,0,0,1,2981,
scooby_state_59cdf2|1|1 167,2739,1,1,1,0,0,0,1,0,1,4,2,3,0,2920,
scooby_state_59cd9b|0|0 1,2878,0,0,0,1,0,0,0,1,0,2,0,0,1,2884,
scooby_state_59cd9b|52|0 1,2871,0,0,0,1,0,0,1,1,0,0,0,0,1,2876,
scooby_state_59cd9b|14|0 2,2855,0,0,0,0,0,0,0,0,0,0,0,1,0,2858,
scooby_state_59cd9b|2|0 0,2806,0,0,1,0,0,0,1,0,0,0,2,1,0,2811,
scooby_state_59cdf2|36|1 160,2627,0,3,2,1,1,0,1,0,1,1,6,1,2,2806,
scooby_state_59cdf2|0|0 1014,1496,22,24,43,14,16,11,20,10,15,31,13,18,52,2799,
scooby_state_59cd9b|16|0 2,2768,1,1,0,0,0,0,1,1,0,1,0,0,0,2775,
scooby_state_59cdf2|55|1 91,2655,4,3,2,3,0,0,0,1,1,2,3,2,2,2769,
scooby_state_59cd9b|37|0 1,2680,0,1,0,1,1,0,1,0,0,1,0,0,1,2687,
scooby_state_59cdf2|17|1 74,2573,2,2,1,0,0,0,1,0,2,1,2,1,2,2661,
scooby_state_59cd9b|3|0 0,2631,0,0,1,0,0,1,1,1,0,0,0,0,0,2635,
scooby_state_59cdf2|40|1 76,2538,0,0,1,1,0,1,0,3,1,2,8,0,3,2634,
scooby_state_59cdf2|8|1 85,2496,2,1,4,2,1,4,1,3,0,3,4,2,2,2610,
scooby_state_59cdf2|12|1 94,2471,2,3,2,1,1,2,1,1,0,0,5,4,1,2588,
scooby_state_59cdf2|50|1 107,2463,3,3,0,0,1,1,1,1,0,1,2,2,1,2586,
scooby_state_59cd9b|4|0 1,2567,2,0,0,1,0,1,1,0,0,0,0,0,0,2573,
scooby_state_59cd9b|26|0 3,2551,0,0,1,0,0,0,0,0,0,0,0,0,0,2555,
scooby_state_59cd9b|19|0 1,2543,0,0,0,0,0,0,0,1,0,0,0,0,1,2546,
scooby_state_59cdf2|4|1 71,2437,2,4,0,1,3,1,1,1,2,0,10,4,1,2538,
scooby_state_59cdf2|29|1 73,2435,2,2,2,2,1,0,0,4,0,2,6,2,2,2533,
scooby_state_59cd9b|20|0 1,2497,1,0,0,0,1,1,0,0,0,0,0,1,0,2502,
scooby_state_59cd9b|15|0 0,2494,1,0,0,1,1,0,0,0,0,0,0,0,1,2498,
scooby_state_59cd9b|27|0 4,2489,0,0,0,0,1,0,0,0,0,0,0,0,0,2494,
scooby_state_59cd9b|35|0 2,2483,0,0,0,0,0,1,0,1,0,2,0,2,0,2491,
scooby_state_59cd9b|32|0 2,2483,2,0,0,0,0,0,1,0,0,0,1,0,0,2489,
scooby_state_59cdf2|20|1 50,2423,1,1,1,1,1,0,0,2,0,1,1,1,3,2486,
scooby_state_59cdf2|3|1 128,2336,4,3,1,3,1,1,2,0,0,0,2,2,0,2483,
scooby_state_59cd9b|18|0 1,2472,0,0,0,0,1,0,0,0,0,1,0,1,0,2476,
scooby_state_59cd9b|17|0 1,2464,0,0,0,0,0,1,0,0,0,0,0,0,0,2466,
scooby_state_59cdf2|28|1 78,2358,2,2,1,0,1,1,1,2,0,2,3,0,3,2454,
scooby_state_59cd9b|29|0 2,2443,0,0,1,0,1,1,1,0,0,0,0,1,0,2450,
scooby_state_59cdf2|18|1 129,2297,0,6,1,4,0,1,0,2,1,2,2,1,0,2446,
scooby_state_59cdf2|13|1 160,2260,1,1,0,1,0,2,0,0,0,3,2,3,3,2436,
scooby_state_59cd9b|6|0 2,2428,1,1,0,0,0,1,0,1,0,0,0,0,0,2434,
scooby_state_59cd9b|9|0 3,2426,1,0,0,0,0,0,0,0,0,0,0,2,0,2432,
scooby_state_59cdf2|63|1 108,2300,3,2,2,1,1,0,1,2,1,2,6,1,1,2431,
scooby_state_59cd9b|25|0 2,2409,0,0,0,0,2,1,1,0,0,0,0,0,1,2416,
scooby_state_59cdf2|19|1 105,2286,2,2,1,1,1,1,1,0,0,2,5,0,5,2412,
scooby_state_59cdf2|34|1 171,2215,2,2,2,0,1,1,1,1,1,3,3,1,1,2405,
scooby_state_59cdf2|9|1 102,2278,0,2,2,0,2,1,2,0,0,0,1,1,3,2394,
scooby_state_59cd9b|47|0 4,2378,0,0,0,0,0,0,1,0,0,0,0,0,0,2383,
scooby_state_59cdf2|35|1 103,2256,0,4,0,3,0,1,1,1,1,1,2,0,2,2375,
scooby_state_59cd9b|54|0 3,2363,0,0,0,2,1,1,0,0,2,0,0,2,0,2374,
scooby_state_59cd9b|28|0 2,2362,0,1,0,0,0,0,2,1,0,0,1,1,0,2370,
scooby_state_59cdf2|32|1 128,2214,1,1,3,1,2,1,1,1,2,2,5,0,2,2364,
scooby_state_59cdf2|2|1 111,2226,3,3,0,1,3,0,2,1,2,3,5,1,2,2363,
scooby_state_59cd9b|11|0 2,2354,0,1,2,0,0,0,0,0,0,0,0,0,0,2359,
scooby_state_59cdf2|43|1 234,2077,7,5,0,1,1,0,1,1,0,4,4,1,3,2339,
scooby_state_59cdf2|23|1 115,2205,1,1,3,1,1,1,1,3,1,1,1,0,2,2337,
scooby_state_59cdf2|31|1 115,2201,0,1,1,2,2,1,2,3,1,3,1,1,2,2336,
scooby_state_59cd9b|33|0 3,2327,0,1,0,0,1,0,1,0,0,0,0,1,1,2335,
scooby_state_59cd9b|5|0 4,2323,0,0,0,0,1,1,0,1,0,1,0,0,0,2331,
scooby_state_59cd9b|40|0 1,2313,0,1,0,1,0,0,1,0,0,1,0,0,0,2318,
scooby_state_59cdf2|15|1 93,2192,3,1,0,0,3,1,1,2,1,2,3,0,1,2303,
scooby_state_59cdf2|6|1 93,2187,0,3,1,3,1,1,0,0,0,3,3,3,1,2299,
scooby_state_59cdf2|25|1 104,2159,1,4,0,0,1,4,0,1,0,2,6,2,4,2288,
scooby_state_59cd9b|22|0 3,2278,1,0,0,0,0,0,0,1,0,0,0,0,0,2283,
scooby_state_59cd9b|50|0 0,2268,0,0,0,0,0,0,0,0,2,0,0,1,1,2272,
scooby_state_59cdf2|42|1 77,2170,2,1,2,2,1,1,1,0,1,2,0,1,2,2263,
scooby_state_59cd9b|36|0 0,2247,0,0,0,1,2,0,0,0,2,0,0,0,1,2253,
scooby_state_59cd9b|34|0 2,2241,0,0,0,2,0,0,0,0,1,0,0,0,0,2246,
scooby_state_59cdf2|21|1 73,2156,2,1,1,0,3,2,0,0,0,1,1,4,0,2244,
scooby_state_59cd9b|44|0 1,2233,0,1,0,1,0,1,1,0,1,0,1,0,0,2240,
scooby_state_59cd9b|30|0 5,2224,0,0,0,0,1,2,0,0,1,1,0,0,0,2234,
scooby_state_59cdf2|56|1 106,2100,2,2,1,1,0,0,2,0,3,1,2,1,2,2223,
scooby_state_59cd8d|63|0 2108,93,2,0,0,1,2,1,1,2,2,1,0,0,9,2222,
scooby_state_59cd9b|31|0 2,2215,1,0,0,0,0,1,0,1,0,0,0,0,0,2220,
scooby_state_59cd9b|8|0 0,2217,0,0,0,0,0,0,0,0,0,0,0,0,1,2218,
scooby_state_59cd9b|62|0 3,2209,2,0,1,0,0,0,1,0,0,1,1,0,0,2218,
scooby_state_59cdf2|22|1 149,2045,4,0,1,2,1,0,1,2,1,2,1,0,5,2214,
scooby_state_59cdf2|61|1 122,2060,5,4,2,2,0,0,0,1,0,2,4,1,2,2205,
scooby_state_59cdf2|52|1 67,2110,0,1,0,2,1,1,0,1,2,1,2,0,2,2190,
scooby_state_59cdf2|10|1 102,2063,3,2,1,2,0,2,0,0,2,3,5,1,1,2187,
scooby_state_59cdf2|60|1 108,2056,0,2,1,1,2,2,2,0,0,2,2,3,2,2183,
scooby_state_59cdf2|49|1 54,2111,0,1,1,2,1,0,0,2,1,2,0,0,0,2175,
scooby_state_59cdbf|1|0 2170,0,0,0,0,0,1,0,0,0,0,1,0,0,1,2173,
scooby_state_59cdf2|14|1 60,2094,0,3,0,1,0,0,2,1,0,2,1,1,2,2167,
scooby_state_59cd9b|39|0 0,2162,0,0,1,0,1,0,0,0,0,0,1,0,0,2165,
scooby_state_59cdf2|59|1 141,2003,2,1,0,1,2,4,2,0,0,3,2,1,1,2163,
scooby_state_59cd9b|53|0 4,2153,0,0,1,2,1,0,0,0,0,0,0,0,0,2161,
scooby_state_59cdf2|7|1 25,2121,1,0,1,2,1,0,0,2,1,2,1,0,0,2157,
scooby_state_59cdf2|47|1 121,2019,4,1,0,1,1,1,0,1,0,3,2,0,2,2156,
scooby_state_59cdf2|33|1 90,2044,1,1,0,1,1,0,1,1,1,1,2,0,2,2146,
scooby_state_59cd9b|23|0 1,2130,0,0,0,1,0,0,1,0,0,0,2,0,0,2135,
scooby_state_59cdf2|57|1 107,2002,0,0,0,0,1,1,0,2,0,1,2,2,2,2120,
scooby_state_59cd9b|7|0 5,2105,0,0,0,0,0,0,0,0,1,0,0,0,1,2112,
scooby_state_59cdf2|26|1 80,2002,0,1,1,3,1,3,0,0,0,0,0,3,1,2095,
scooby_state_59cdf2|30|1 112,1945,2,1,4,2,0,1,1,1,0,3,6,1,3,2082,
scooby_state_59cd9b|45|0 1,2073,0,0,0,0,0,0,0,0,0,0,1,1,0,2076,
scooby_state_59cd9b|24|0 3,2064,0,0,0,0,0,1,0,0,0,1,0,0,0,2069,
scooby_state_59cdf2|58|1 64,1980,0,1,2,0,1,2,0,0,1,1,0,1,1,2054,
scooby_state_59cd9b|49|0 0,2044,1,1,1,0,0,1,0,0,0,0,0,0,2,2050,
scooby_state_59cd9b|12|0 2,2041,1,0,0,0,0,0,0,0,0,0,0,0,0,2044,
scooby_state_59cdf2|16|1 69,1960,3,1,0,1,0,0,0,1,1,3,2,0,1,2042,
scooby_state_59cdf2|54|1 130,1887,3,2,2,0,1,1,1,2,2,3,3,0,5,2042,
scooby_state_59cd9b|48|0 2,2033,0,1,1,0,0,0,1,0,0,0,0,0,1,2039,
scooby_state_59cd9b|21|0 4,2023,2,0,0,1,1,3,0,0,2,0,0,0,0,2036,
scooby_state_59cdf2|39|1 87,1927,0,2,1,1,1,1,0,1,1,2,2,0,1,2027,
scooby_state_59cdf2|37|1 74,1942,0,2,3,0,1,0,2,0,0,1,0,1,1,2027,
scooby_state_59cd9b|46|0 1,2023,0,0,0,0,0,0,0,0,0,1,0,1,0,2026,
scooby_state_59cdf2|5|1 103,1898,0,2,0,0,1,0,0,1,0,0,2,3,2,2012,
scooby_state_59cd9b|51|0 0,2007,0,1,0,1,1,0,0,0,0,0,0,1,1,2012,
scooby_state_59cd9b|10|0 1,1990,0,0,0,0,2,2,1,1,0,0,0,0,0,1997,
scooby_state_59cd9b|13|0 2,1988,0,0,0,0,0,1,0,0,0,0,1,0,0,1992,
scooby_state_59cd9b|60|0 1,1986,0,0,0,0,1,0,0,0,0,0,0,0,0,1988,
scooby_state_59cd9b|43|0 3,1977,0,1,0,1,0,0,1,1,0,0,2,0,0,1986,
scooby_state_59cd9b|63|0 0,1982,1,0,0,0,0,0,1,0,1,0,0,0,0,1985,
scooby_state_59cdf2|44|1 70,1898,0,0,0,1,1,1,1,0,0,0,5,1,1,1979,
scooby_state_59cdf2|38|1 77,1883,2,1,0,1,4,1,1,0,0,2,3,0,0,1975,
scooby_state_59cd9b|56|0 3,1965,0,0,1,1,0,0,0,0,0,0,0,1,0,1971,
scooby_state_59cd9b|41|0 1,1946,1,2,0,0,0,2,0,0,1,0,1,0,0,1954,
scooby_state_59cdf2|41|1 117,1821,1,0,1,1,2,1,2,0,4,0,1,2,1,1954,
scooby_state_59cdf2|62|1 71,1870,0,1,1,0,0,2,2,0,0,1,0,1,0,1949,
scooby_state_59cdf2|24|1 154,1759,4,4,0,1,3,1,0,2,1,2,8,3,5,1947,
scooby_state_59cdf2|46|1 49,1857,4,3,2,0,3,0,0,0,0,0,5,2,2,1927,
scooby_state_59cdf2|53|1 77,1825,4,2,3,0,1,0,2,0,0,1,2,1,1,1919,
scooby_state_59cdf2|11|1 104,1791,2,2,1,1,0,0,0,2,0,0,3,1,4,1911,
scooby_state_59cd9b|57|0 5,1889,0,0,0,0,2,0,0,0,0,2,0,0,0,1898,
scooby_state_59cdf2|48|1 153,1732,0,2,2,0,1,0,1,0,1,2,1,0,1,1896,
scooby_state_59cd9b|59|0 3,1879,0,0,0,0,0,0,0,0,0,0,0,0,1,1883,
scooby_state_59cdbf|38|1 1850,0,0,0,0,0,0,0,0,0,1,0,0,0,0,1851,
scooby_state_59cdf2|27|1 77,1748,1,2,0,1,1,1,1,2,1,1,5,0,2,1843,
scooby_state_59cd9b|38|0 0,1809,0,0,0,0,0,0,0,0,0,0,2,1,0,1812,
scooby_state_59cd9b|61|0 3,1796,0,0,1,0,1,0,0,0,0,0,1,0,0,1802,
scooby_state_59cdbf|53|1 1796,2,0,2,0,1,0,0,0,0,0,0,0,0,0,1801,
scooby_state_59cdf2|45|1 60,1661,0,1,2,3,2,0,1,1,1,2,3,1,4,1742,
scooby_state_59cd9b|42|0 1,1727,0,1,0,1,1,0,1,0,0,0,1,0,0,1733,
scooby_state_59cd9b|55|0 2,1728,0,0,1,0,0,0,0,0,0,0,0,0,1,1732,
scooby_state_59cdf2|51|1 69,1623,1,0,2,2,0,1,1,0,1,1,1,0,0,1702,
scooby_state_59cdbf|54|2 1698,0,0,0,0,0,0,0,0,0,0,0,0,0,0,1698,
scooby_state_59cdbf|48|1 1688,0,1,1,1,1,0,0,0,1,1,0,1,1,0,1696,
scooby_state_59cdbf|12|1 1664,1,1,0,0,1,0,1,1,0,1,0,0,0,0,1670,
scooby_state_59cd9b|58|0 2,1655,1,0,0,0,0,0,0,0,0,0,0,0,0,1658,
scooby_state_59cdbf|15|1 1620,0,0,0,1,0,0,0,0,0,0,0,0,0,0,1621,
scooby_state_59cdbf|10|1 1601,0,0,0,0,0,0,0,0,0,0,1,2,0,0,1604,
scooby_state_59cdbf|62|2 1600,0,0,0,1,0,0,0,0,0,0,0,0,2,0,1603,
scooby_state_59cdbf|33|1 1579,1,0,1,0,0,1,0,0,0,0,0,0,1,0,1583,
scooby_state_59cdbf|49|2 1569,0,1,0,0,0,0,1,0,0,0,1,1,0,0,1573,
scooby_state_59cdbf|16|1 1567,0,0,1,0,0,0,0,0,0,1,0,1,0,0,1570,
scooby_state_59cdbf|17|1 1567,0,0,0,0,1,0,0,0,0,0,0,0,0,0,1568,
scooby_state_59cdbf|46|2 1558,0,0,1,0,0,0,0,0,0,0,0,1,0,1,1561,
scooby_state_59cdbf|4|1 1557,0,0,0,0,0,0,0,0,0,0,0,0,0,0,1557,
scooby_state_59cdbf|14|2 1554,0,0,0,0,0,0,1,1,0,0,0,0,0,1,1557,
scooby_state_59cdbf|56|2 1554,0,0,0,0,0,0,0,0,0,0,0,0,0,0,1554,
scooby_state_59cdbf|51|1 1526,2,1,0,0,0,0,0,0,1,0,1,0,0,2,1533,
scooby_state_59cdbf|15|2 1529,0,0,1,0,0,0,0,0,0,0,0,0,0,1,1531,
scooby_state_59cdbf|41|2 1530,0,0,0,0,0,0,0,0,0,0,0,0,0,0,1530,
scooby_state_59cdbf|3|2 1510,0,1,0,0,0,0,0,1,0,0,0,1,0,0,1513,
scooby_state_59cdbf|21|2 1507,0,0,0,0,0,0,2,0,0,1,0,2,0,1,1513,
scooby_state_59cdbf|19|1 1496,0,0,1,0,0,0,0,0,1,0,1,0,0,0,1499,
scooby_state_59cdbf|33|2 1494,0,0,0,0,0,1,1,0,0,0,0,0,1,0,1497,
scooby_state_59cdbf|41|1 1493,0,0,0,0,0,0,0,0,0,0,0,0,0,0,1493,
scooby_state_59cdbf|30|1 1485,1,0,1,0,0,0,0,0,0,0,0,0,0,0,1487,
scooby_state_59cdbf|19|2 1481,0,0,0,0,0,2,0,1,0,0,0,0,1,0,1485,
scooby_state_59cdbf|62|1 1482,0,0,0,0,0,0,0,0,2,0,0,0,0,0,1484,
scooby_state_59cdbf|55|2 1479,2,0,0,1,0,0,0,1,0,0,0,0,0,0,1483,
scooby_state_59cdbf|37|2 1481,0,0,0,0,0,0,0,0,0,0,0,0,1,0,1482,
scooby_state_59cdbf|16|2 1481,0,0,0,0,0,0,0,0,0,0,0,0,0,0,1481,
scooby_state_59cdbf|39|2 1475,0,0,1,0,1,0,0,0,1,0,0,1,0,1,1480,
scooby_state_59cd8d|0|-4 874,493,60,1,1,5,1,1,0,1,0,2,2,1,35,1477,
scooby_state_59cde2|2|0 1446,4,1,1,0,1,1,0,3,0,1,4,4,2,3,1471,
scooby_state_59cdbf|28|2 1458,0,0,0,0,0,0,0,0,0,0,1,1,1,0,1461,
scooby_state_59cdbf|42|2 1458,0,0,1,0,0,0,0,0,0,0,1,0,0,0,1460,
scooby_state_59cdbf|23|1 1456,0,0,0,0,0,0,0,1,0,0,0,0,0,0,1457,
scooby_state_59cdbf|57|2 1455,0,0,0,0,0,0,0,0,0,0,0,0,1,0,1456,
scooby_state_59cdbf|31|2 1448,0,0,1,0,0,0,0,0,0,0,0,0,0,0,1449,
scooby_state_59cdbf|7|1 1448,0,0,1,0,0,0,0,0,0,0,0,0,0,0,1449,
scooby_state_59cdbf|26|1 1434,0,0,0,0,0,0,0,0,0,0,0,0,0,0,1434,
scooby_state_59cdbf|8|1 1429,1,1,0,1,0,0,0,0,0,0,0,0,0,0,1432,
scooby_state_59cdbf|55|1 1422,1,1,0,0,0,0,1,0,0,0,0,1,1,0,1427,
scooby_state_59cdbf|18|2 1416,0,1,0,0,0,1,2,0,0,0,0,0,0,0,1420,
scooby_state_59cdbf|48|2 1412,0,1,0,1,0,0,0,0,1,0,0,1,0,0,1416,
scooby_state_59cdbf|22|2 1411,0,1,0,1,0,0,1,0,0,0,1,0,0,0,1415,
scooby_state_59cdbf|1|1 1404,0,0,0,0,0,1,1,0,0,0,1,0,0,1,1408,
scooby_state_59cdbf|4|2 1400,0,0,0,0,0,0,1,0,0,1,1,1,0,0,1404,
scooby_state_59cdbf|7|2 1399,0,1,2,0,0,0,0,0,0,0,0,0,0,0,1402,
scooby_state_59cdbf|31|1 1394,0,0,0,0,0,0,1,1,0,2,1,0,0,0,1399,
scooby_state_59cdbf|27|2 1390,0,1,0,0,0,1,0,1,1,1,1,1,0,0,1397,
scooby_state_59cdbf|58|1 1394,1,0,0,0,0,0,0,1,0,0,0,0,0,0,1396,
scooby_state_59cdbf|61|2 1391,0,0,0,0,0,0,0,0,0,0,0,0,0,1,1392,
scooby_state_59cdbf|5|2 1390,1,0,0,0,0,0,1,0,0,0,0,0,0,0,1392,
scooby_state_59cdbf|59|1 1388,0,0,1,0,0,1,0,0,0,0,1,0,0,0,1391,
scooby_state_59cdbf|29|1 1385,0,0,0,0,0,0,0,0,1,1,0,1,1,0,1389,
scooby_state_59cdbf|6|2 1386,0,0,0,0,1,0,0,1,0,0,0,0,0,0,1388,
scooby_state_59cdbf|27|1 1381,1,0,0,0,0,0,0,0,0,0,0,0,0,1,1383,
scooby_state_59cdbf|34|2 1373,0,1,0,1,0,0,0,1,0,1,0,0,0,0,1377,
scooby_state_59cd8d|51|-4 929,363,48,1,2,1,2,1,2,0,1,0,4,0,21,1375,
scooby_state_59cdbf|59|2 1367,1,0,0,0,1,0,0,0,0,0,0,0,0,0,1369,
scooby_state_59cd8d|59|-4 831,430,51,2,2,5,0,1,0,0,1,1,4,0,35,1363,
scooby_state_59cdbf|63|1 1361,0,1,0,0,0,0,0,0,0,0,1,0,0,0,1363,
scooby_state_59cdbf|43|2 1360,0,0,1,0,0,0,0,0,0,0,1,0,0,0,1362,
scooby_state_59cdbf|35|2 1357,0,0,1,0,0,0,0,0,0,0,0,0,0,0,1358,
scooby_state_59cdbf|52|1 1351,0,0,1,0,0,0,1,0,0,0,0,1,1,0,1355,
scooby_state_59cdbf|36|1 1352,0,0,0,0,0,1,0,0,0,0,0,0,0,0,1353,
scooby_state_59cdbf|45|2 1348,0,0,0,1,0,0,0,0,0,1,0,0,0,0,1350,
scooby_state_59cdbf|3|1 1348,0,0,0,0,0,0,1,0,0,0,0,0,0,0,1349,
scooby_state_59cdbf|12|2 1343,0,0,0,0,0,0,0,0,0,0,0,0,1,0,1344,
scooby_state_59cdbf|34|1 1341,0,0,1,0,1,0,1,0,0,0,0,0,0,0,1344,
scooby_state_59cdbf|17|2 1329,0,0,1,1,0,1,0,2,0,1,0,0,0,0,1335,
scooby_state_59cdbf|20|2 1334,0,0,0,0,0,0,0,0,0,0,0,0,0,0,1334,
scooby_state_59cdbf|50|1 1329,0,0,0,0,0,0,0,0,1,0,0,0,0,1,1331,
scooby_state_59cdbf|24|1 1325,0,0,1,0,0,1,1,0,0,0,0,0,0,0,1328,
scooby_state_59cdbf|30|2 1325,0,0,0,1,0,0,0,0,0,0,0,1,1,0,1328,
scooby_state_59cdbf|60|1 1321,0,0,0,1,0,1,0,0,0,0,0,0,0,0,1323,
scooby_state_59cdbf|37|1 1320,0,0,0,0,0,0,0,1,1,0,0,0,0,0,1322,
scooby_state_59cdbf|21|1 1313,0,0,0,0,0,1,0,0,1,0,0,0,0,2,1317,
scooby_state_59cdbf|46|1 1314,0,1,0,0,0,0,0,0,0,0,1,0,0,0,1316,
scooby_state_59cdbf|47|2 1311,0,0,0,1,0,0,0,1,0,0,0,0,0,0,1313,
scooby_state_59cdbf|8|2 1307,0,0,0,0,0,0,0,0,2,0,0,0,0,0,1309,
scooby_state_59cdcb|35|1 1293,0,0,0,0,0,0,0,0,0,0,0,0,0,0,1293,
scooby_state_59cdbf|29|2 1291,0,0,0,0,0,0,0,0,0,0,0,0,1,0,1292,
scooby_state_59cdbf|20|1 1290,0,0,0,0,0,0,0,0,0,0,0,0,0,1,1291,
scooby_state_59cdbf|60|2 1289,1,0,0,0,0,0,0,1,0,0,0,0,0,0,1291,
scooby_state_59cdbf|18|1 1279,0,0,0,1,0,0,0,0,0,0,1,1,0,0,1282,
scooby_state_59cdcf|63|1 182,34,1,2,1,1,1,0,0,0,1,0,1041,0,1,1265,
scooby_state_59cdbf|2|1 1260,0,0,0,0,0,0,0,0,0,0,0,0,0,0,1260,
scooby_state_59cdbf|11|2 1260,0,0,0,0,0,0,0,0,0,0,0,0,0,0,1260,
scooby_state_59cd8d|25|-4 835,327,47,0,2,3,0,2,1,0,0,2,8,1,29,1257,
scooby_state_59cdbf|6|1 1244,0,0,0,0,1,0,0,0,0,0,0,0,0,0,1245,
scooby_state_59cdbf|32|2 1240,0,0,1,1,0,0,0,0,0,0,1,0,0,0,1243,
scooby_state_59cdbf|36|2 1234,1,0,0,2,0,1,0,0,0,0,0,1,0,0,1239,
scooby_state_59cdbf|28|1 1234,0,0,0,1,1,0,0,0,0,0,0,0,0,0,1236,
scooby_state_59cdbf|25|2 1229,0,0,0,1,0,0,0,0,0,0,1,0,0,1,1232,
scooby_state_59cdbf|57|1 1226,1,0,1,0,0,1,0,0,0,0,1,0,0,0,1230,
scooby_state_59cd8d|5|-4 713,446,30,1,0,6,1,1,2,0,0,2,1,0,20,1223,
scooby_state_59cde2|1|0 1200,1,3,1,0,0,0,2,1,0,1,4,4,3,2,1222,
scooby_state_59cdbf|10|2 1217,0,0,0,0,0,0,0,0,1,1,1,0,0,0,1220,
scooby_state_59cdbf|47|1 1210,0,0,0,0,0,2,2,0,0,0,0,2,0,1,1217,
scooby_state_59cd8d|46|-4 648,455,57,2,2,7,0,3,1,0,3,0,6,0,29,1213,
scooby_state_59cd8d|32|-4 666,445,56,0,1,4,0,0,0,0,0,1,2,0,34,1209,
scooby_state_59cdbf|51|2 1207,0,0,0,1,0,0,0,0,0,0,0,0,0,0,1208,
scooby_state_59cdbf|2|2 1202,0,0,0,0,0,0,0,1,0,0,1,0,0,0,1204,
scooby_state_59cdbf|58|2 1202,0,0,0,0,0,0,0,0,0,0,0,0,0,2,1204,
scooby_state_59cd8d|48|-4 726,422,31,1,0,1,1,0,0,0,0,2,1,1,17,1203,
scooby_state_59cdbf|40|2 1199,2,0,0,0,0,1,0,0,0,0,0,0,0,0,1202,
scooby_state_59cdbf|49|1 1196,0,0,0,0,2,0,0,0,0,0,0,1,0,0,1199,
scooby_state_59cd8d|15|-4 797,350,27,1,0,0,0,1,0,0,0,2,1,0,15,1194,
scooby_state_59cd8d|11|-4 711,443,22,1,1,0,0,0,1,0,0,0,4,0,9,1192,
scooby_state_59cd8d|31|-4 774,329,44,0,1,1,0,1,1,0,0,4,8,0,26,1189,
scooby_state_59cdcb|49|1 1184,1,0,0,0,0,0,0,0,0,1,0,0,1,0,1187,
scooby_state_59cdbf|11|1 1186,0,0,0,0,0,0,0,0,0,0,0,0,0,1,1187,
scooby_state_59cdbf|5|1 1180,0,0,0,0,0,0,0,0,0,0,0,1,0,0,1181,
scooby_state_59cdbf|38|2 1178,0,0,0,0,0,0,1,0,0,0,0,0,0,0,1179,
scooby_state_59cdbf|23|2 1174,0,1,0,0,0,0,1,0,0,0,0,0,0,0,1176,
scooby_state_59cd8d|53|-4 613,468,42,0,1,3,0,0,1,1,0,2,3,1,33,1168,
scooby_state_59cdbf|54|1 1159,0,0,0,0,0,0,0,0,0,0,0,0,0,1,1160,
scooby_state_59cdbf|13|2 1151,0,0,0,0,0,0,1,0,0,0,0,0,0,0,1152,
scooby_state_59cdbf|35|1 1142,1,1,0,0,0,0,0,0,0,0,0,0,0,0,1144,
scooby_state_59cd8d|39|-4 623,448,38,1,2,2,0,2,2,0,0,1,3,0,15,1137,
scooby_state_59cdee|55|1 230,5,2,4,0,2,1,0,0,4,1,1,0,7,878,1135,
scooby_state_59cdbf|25|1 1130,0,0,0,0,0,0,1,0,0,0,1,0,0,0,1132,
scooby_state_59cd8d|9|-4 678,376,40,0,1,4,0,1,0,0,1,1,8,1,18,1129,
scooby_state_59cdcb|2|1 1122,0,1,0,1,0,0,0,0,0,0,0,0,1,1,1126,
scooby_state_59cd8d|8|-4 691,349,28,1,3,4,1,0,1,1,0,2,9,1,28,1119,
scooby_state_59cd8d|43|-4 536,485,48,0,3,5,1,1,0,0,1,1,4,1,31,1117,
scooby_state_59cdbf|32|1 1113,0,0,0,1,0,0,0,1,0,0,0,0,0,0,1115,
scooby_state_59cdbf|45|1 1111,1,1,0,0,1,1,0,0,0,0,0,0,0,0,1115,
scooby_state_59cde2|59|0 1062,2,7,3,1,1,8,0,3,1,1,12,6,1,3,1111,
scooby_state_59cdcb|54|1 1105,0,0,0,0,0,1,0,1,0,0,0,0,0,0,1107,
scooby_state_59cde2|61|0 1065,3,8,3,0,0,1,1,0,2,0,8,4,0,6,1101,
scooby_state_59cdbf|28|0 1095,0,0,1,0,0,0,0,0,0,0,0,0,0,0,1096,
scooby_state_59cdbf|24|2 1094,1,0,0,0,0,0,0,0,0,0,0,0,0,0,1095,
scooby_state_59cd8d|62|-1 1061,17,0,0,1,1,0,1,1,0,4,1,1,2,4,1094,
scooby_state_59cdbf|22|1 1091,0,1,0,0,0,0,0,0,0,0,0,0,0,0,1092,
scooby_state_59cd8d|57|-4 670,335,45,0,0,7,0,0,0,0,0,2,2,1,29,1091,
scooby_state_59cdbf|39|1 1087,0,0,0,0,0,0,0,0,0,0,0,0,0,1,1088,
scooby_state_59cde2|54|0 1071,1,0,1,1,0,1,1,1,0,2,1,2,1,0,1083,
scooby_state_59cdbf|56|1 1081,0,0,0,0,0,0,0,1,0,0,0,0,0,1,1083,
scooby_state_59cdcb|61|1 1076,0,0,0,0,0,0,0,1,0,0,1,1,0,1,1080,
scooby_state_59cd8d|10|-4 759,270,21,0,1,1,0,0,1,0,2,2,8,1,12,1078,
scooby_state_59cdcb|60|1 1073,0,0,0,0,0,0,0,0,0,0,1,1,0,0,1075,
scooby_state_59cdbf|44|2 1070,0,0,0,0,0,0,0,0,0,0,0,0,0,0,1070,
scooby_state_59cdcb|5|1 1062,1,0,0,1,1,0,1,0,0,0,0,1,1,0,1068,
scooby_state_59cdcb|34|1 1067,0,1,0,0,0,0,0,0,0,0,0,0,0,0,1068,
scooby_state_59cdbf|53|2 1064,0,1,0,0,2,0,0,0,0,0,0,0,0,0,1067,
scooby_state_59cdbf|52|2 1062,0,1,0,0,0,0,0,0,0,1,0,0,0,0,1064,
scooby_state_59cde2|0|0 1044,1,1,1,3,0,1,2,0,0,0,3,2,1,5,1064,
scooby_state_59cd8d|36|-4 673,274,47,0,3,10,1,2,0,0,0,4,5,5,37,1061,
scooby_state_59cd8d|45|-4 660,321,40,0,3,1,0,2,0,0,2,4,4,1,20,1058,
scooby_state_59cde2|60|0 1047,3,0,0,0,0,0,0,1,0,0,0,3,0,1,1055,
scooby_state_59cdbf|5|0 1050,0,0,1,0,0,0,1,0,1,0,0,0,0,0,1053,
scooby_state_59cd8d|3|-4 649,343,35,2,2,2,0,0,0,0,0,1,2,0,17,1053,
scooby_state_59cdbf|9|2 1045,0,0,0,0,0,0,1,0,0,0,0,0,0,0,1046,
scooby_state_59cdcb|13|1 1043,0,0,0,1,0,1,0,0,0,0,0,0,0,0,1045,
scooby_state_59cd8d|24|-4 634,333,40,0,2,2,0,1,1,0,0,0,6,0,22,1041,
scooby_state_59cde2|52|0 1025,0,4,1,0,1,0,1,0,2,0,3,2,0,2,1041,
scooby_state_59cdbf|43|1 1039,1,0,0,0,0,0,0,0,0,0,0,0,0,0,1040,
scooby_state_59d4d1|1|0 918,6,6,24,5,3,4,9,4,0,4,21,7,3,24,1038,
scooby_state_59cdbf|26|2 1037,0,0,0,0,0,0,0,0,0,0,0,0,0,1,1038,
scooby_state_59cdbf|9|1 1034,0,0,0,0,0,0,0,0,1,0,0,0,0,0,1035,
scooby_state_59cd8d|61|-2 677,263,0,1,10,3,5,4,5,5,9,9,5,8,28,1032,
scooby_state_59cd8d|60|-3 338,637,18,2,8,3,0,2,6,2,3,2,0,1,6,1028,
scooby_state_59cdcb|20|1 1026,1,0,0,0,0,0,0,0,0,0,0,0,0,0,1027,
scooby_state_59cdbf|40|1 1024,0,0,0,0,0,0,0,0,1,0,0,0,0,1,1026,
scooby_state_59cdcb|31|1 1025,0,0,0,0,1,0,0,0,0,0,0,0,0,0,1026,
scooby_state_59cd8d|19|-4 627,342,36,2,0,1,0,0,0,1,1,0,1,0,12,1023,
scooby_state_59cdcb|8|1 1020,0,1,0,0,0,0,0,0,0,0,0,0,0,0,1021,
scooby_state_59cdee|61|1 220,1,4,5,3,1,1,1,1,3,1,2,1,1,775,1020,
scooby_state_59cdee|50|1 208,1,4,1,2,2,4,3,0,0,1,1,2,0,791,1020,
scooby_state_59cdbf|12|0 1016,0,0,0,0,1,0,0,0,1,0,1,0,0,0,1019,
scooby_state_59cde2|3|0 1005,1,3,0,2,2,0,1,0,1,1,0,1,0,1,1018,
scooby_state_59cde2|7|0 997,2,1,0,0,3,3,2,0,2,0,3,0,0,4,1017,
scooby_state_59d4e0|4|1 725,113,8,9,3,8,1,7,2,2,2,9,11,0,116,1016,
scooby_state_59cdbf|11|0 1013,0,0,0,0,0,0,1,1,0,0,0,0,0,1,1016,
scooby_state_59cd8d|2|-4 619,333,30,0,1,5,1,1,0,0,0,1,2,0,22,1015,
scooby_state_59cd8d|55|-4 611,370,21,1,0,1,1,1,0,0,1,0,2,0,6,1015,
scooby_state_59cdcb|51|1 1008,0,0,0,0,1,0,0,0,0,0,0,0,0,0,1009,
scooby_state_59cde2|5|0 999,2,0,1,0,0,1,0,1,0,2,1,0,0,1,1008,
scooby_state_59cd8d|41|-4 656,280,38,0,3,1,0,1,0,0,1,0,3,0,24,1007,
scooby_state_59cd8d|56|-4 539,384,41,0,1,2,1,1,0,0,0,2,2,2,29,1004,
scooby_state_5010bd|0|0 842,20,2,41,28,63,0,0,0,0,0,0,5,0,1,1002,
scooby_state_59cdee|18|1 200,0,0,1,1,1,3,1,4,0,3,3,1,1,783,1002,
scooby_state_59cdcb|47|1 1000,0,0,0,1,0,0,0,0,0,0,0,0,0,0,1001,
scooby_state_59cd8d|52|-4 588,364,23,1,1,4,0,1,0,0,1,2,0,0,15,1000,
scooby_state_59cd8d|58|-4 662,259,51,0,0,0,0,0,0,1,0,1,3,1,21,999,
scooby_state_59cde2|51|0 978,3,3,1,0,0,0,3,0,0,0,3,2,1,1,995,
scooby_state_59cde2|4|0 971,0,1,1,1,0,1,0,0,0,0,5,1,0,8,989,
scooby_state_59cdcf|52|1 108,39,0,2,0,0,2,0,0,0,0,0,837,0,0,988,
scooby_state_59cdcb|32|1 983,0,0,0,0,1,1,0,0,0,0,0,0,0,0,985,
scooby_state_59cdcb|17|1 981,0,0,1,1,0,0,0,0,0,1,0,0,0,1,985,
scooby_state_59cdcb|24|1 980,0,0,0,1,0,1,1,0,0,0,0,0,0,0,983,
scooby_state_59cde2|63|0 961,3,0,0,3,1,0,2,0,0,0,1,6,1,3,981,
scooby_state_59cd8d|54|0 912,54,0,3,1,1,0,0,1,1,2,1,0,0,2,978,
scooby_state_59d4e0|40|1 757,83,3,4,2,2,4,1,2,2,1,3,3,8,103,978,
scooby_state_59cdcb|3|1 971,1,0,0,0,0,0,0,0,0,0,1,0,0,0,973,
scooby_state_59cdcb|42|1 973,0,0,0,0,0,0,0,0,0,0,0,0,0,0,973,
scooby_state_59cd8d|6|-4 465,445,31,0,2,2,0,0,0,0,0,0,1,0,26,972,
scooby_state_59cde2|9|0 936,2,5,3,2,0,0,2,3,2,0,11,4,0,2,972,
scooby_state_59cd8d|28|-4 602,320,28,0,2,3,0,0,0,0,0,1,3,0,12,971,
scooby_state_59cdcb|48|1 960,0,0,0,0,0,0,0,0,0,0,0,0,1,0,961,
scooby_state_59cdbf|42|1 959,1,0,0,0,0,0,0,0,0,0,0,0,0,0,960,
scooby_state_59cdee|49|1 198,1,5,3,2,0,4,1,0,0,2,2,1,3,737,959,
scooby_state_59cdcf|39|1 65,57,2,1,0,1,1,0,1,0,0,0,828,0,0,956,
scooby_state_59cdbf|61|1 950,0,0,0,0,0,1,0,0,1,0,2,0,0,0,954,
scooby_state_59cdcb|22|1 948,0,0,0,0,2,0,0,2,0,0,0,0,0,0,952,
scooby_state_59d4e0|59|1 678,139,5,7,1,5,2,4,1,1,1,7,5,2,92,950,
scooby_state_59cd8d|50|-4 494,370,37,0,0,3,0,0,0,0,3,1,1,0,33,942,
scooby_state_59cdbf|50|2 940,0,0,0,0,0,0,0,0,0,0,0,0,0,0,940,
scooby_state_59cdcb|0|0 940,0,0,0,0,0,0,0,0,0,0,0,0,0,0,940,
scooby_state_59cd8d|1|-4 545,307,40,0,2,3,0,1,1,0,0,0,6,1,31,937,
scooby_state_59cdcf|57|1 101,52,3,0,0,0,0,1,0,0,0,1,777,1,0,936,
scooby_state_59cdbf|14|0 931,0,0,1,0,0,1,0,0,0,0,0,0,0,0,933,
scooby_state_59cde2|62|0 915,2,1,1,0,0,2,1,0,2,0,1,2,0,3,930,
scooby_state_59cdee|40|1 184,0,4,1,0,1,1,1,4,4,0,1,1,3,725,930,
scooby_state_59cdcb|27|1 928,0,0,0,0,0,0,0,0,1,0,0,0,0,0,929,
scooby_state_59cdbf|63|2 927,0,0,0,0,0,0,0,1,0,0,0,0,0,0,928,
scooby_state_59cde2|48|0 923,1,0,1,0,0,0,0,1,0,0,0,0,0,0,926,
scooby_state_59cdbf|42|0 925,0,0,0,0,0,0,0,0,0,1,0,0,0,0,926,
scooby_state_59cdcf|16|1 67,61,1,0,0,1,1,1,1,0,0,0,787,1,2,923,
scooby_state_59cd8d|20|-4 504,364,31,1,0,2,0,0,0,0,0,3,0,0,18,923,
scooby_state_59cdcb|39|1 919,0,0,0,0,1,0,0,0,0,0,0,0,1,1,922,
scooby_state_59cde2|37|0 912,1,0,1,0,0,0,2,0,0,0,1,2,1,1,921,
scooby_state_59cdbf|2|0 912,1,1,0,1,0,0,0,0,0,0,0,0,0,0,915,
scooby_state_59cdbf|14|1 914,1,0,0,0,0,0,0,0,0,0,0,0,0,0,915,
scooby_state_59cdee|39|1 204,1,1,3,1,2,0,1,1,0,1,0,1,1,696,913,
scooby_state_59cde2|56|0 909,1,0,0,0,0,0,0,0,0,0,0,1,0,1,912,
scooby_state_59cdee|8|1 171,3,5,2,1,1,0,2,3,1,1,2,1,8,711,912,
scooby_state_59cd8d|18|-4 527,317,37,0,1,1,1,1,0,0,0,1,1,0,22,909,
scooby_state_59cdbf|44|1 903,0,1,0,1,0,0,2,0,1,0,0,0,1,0,909,
scooby_state_59cdcf|0|0 704,27,1,1,1,1,0,1,0,0,0,0,170,1,2,909,
scooby_state_59cdcb|55|1 906,0,0,0,0,0,1,0,0,0,0,0,0,0,0,907,
scooby_state_59cdcf|19|1 95,57,2,1,0,1,0,0,1,0,0,0,744,2,3,906,
scooby_state_59cdee|25|1 161,3,5,1,1,0,1,2,2,0,2,4,0,3,719,904,
scooby_state_59cd8d|37|-4 616,236,26,1,1,2,0,0,0,0,0,1,3,1,16,903,
scooby_state_59cde2|10|0 880,2,2,0,1,0,1,0,0,0,1,8,5,1,2,903,
scooby_state_59cd8d|21|-4 615,251,25,1,0,3,0,0,0,0,0,0,2,0,5,902,
scooby_state_59cdcb|63|1 900,0,0,0,0,0,0,0,0,0,0,0,0,0,0,900,
scooby_state_59d4e0|60|1 657,107,7,14,7,8,4,1,1,0,1,5,2,3,83,900,
scooby_state_59cdcf|42|1 130,35,1,3,0,0,0,0,1,1,2,1,722,1,2,899,
scooby_state_59cd8d|17|-4 650,221,14,0,0,1,1,1,0,0,0,0,0,0,11,899,
scooby_state_59cde2|19|0 883,1,0,0,2,0,1,0,0,0,1,2,3,2,1,896,
scooby_state_59cdbf|7|0 895,0,0,0,0,0,0,0,0,0,0,0,0,0,0,895,
scooby_state_59cde2|39|0 888,0,0,0,0,0,0,1,0,0,0,1,2,1,1,894,
scooby_state_59cdcf|9|1 114,47,1,1,1,0,1,0,0,0,1,1,725,0,0,892,
scooby_state_59cde2|45|0 885,1,0,2,0,0,0,0,1,0,0,0,0,1,0,890,
scooby_state_59cdcb|11|1 887,0,0,0,0,0,0,0,0,0,0,0,0,0,1,888,
scooby_state_59cd8d|49|-4 523,333,17,0,1,0,0,1,0,0,0,0,1,0,12,888,
scooby_state_59cdcf|54|1 81,32,0,1,0,0,0,0,1,0,0,0,771,0,2,888,
scooby_state_59cdee|33|1 198,3,5,5,0,2,2,0,0,3,1,0,3,3,658,883,
scooby_state_59cdee|29|1 190,0,1,5,1,1,0,1,2,1,1,1,2,3,673,882,
scooby_state_59cd8d|33|-4 537,287,24,0,1,0,0,0,1,1,1,3,11,0,15,881,
scooby_state_59cd8d|54|-4 518,311,24,1,1,2,0,0,0,0,1,3,1,1,17,880,
scooby_state_59cdee|59|1 178,1,1,3,0,1,0,5,0,0,0,4,1,2,684,880,
scooby_state_59cde2|27|0 870,3,0,0,0,0,0,0,0,1,0,2,3,0,0,879,
scooby_state_59cdee|11|1 167,2,2,3,1,1,1,1,3,2,1,4,0,0,690,878,
scooby_state_59d4d1|2|0 815,1,2,8,4,5,2,4,4,2,1,5,3,3,19,878,
scooby_state_59cdee|24|1 169,3,5,0,3,3,3,1,3,1,2,0,0,2,681,876,
scooby_state_59cde2|17|0 869,1,0,0,0,2,0,1,0,0,1,0,0,0,1,875,
scooby_state_59cd8d|7|-4 583,223,32,0,2,1,0,0,1,1,0,1,6,0,24,874,
scooby_state_59cd8d|27|-4 553,273,27,1,1,0,0,0,0,2,0,1,0,0,14,872,
scooby_state_59cde2|6|0 858,1,2,1,0,1,0,0,0,4,0,2,3,0,0,872,
scooby_state_59cd8d|14|-4 479,357,19,2,0,1,1,0,0,0,0,0,0,0,13,872,
scooby_state_59cdcb|29|1 868,0,0,0,1,0,0,0,0,0,0,0,1,0,0,870,
scooby_state_59cdcb|16|1 869,0,0,0,0,0,0,0,0,0,0,0,0,0,0,869,
scooby_state_59cde2|18|0 852,0,0,0,0,1,0,1,2,0,1,4,3,0,3,867,
scooby_state_59d4e0|41|1 648,111,4,10,2,4,0,4,5,1,1,2,3,2,69,866,
scooby_state_59cdbf|43|0 864,0,0,0,0,0,0,1,0,0,0,0,0,1,0,866,
scooby_state_59cdcf|6|1 74,39,2,1,0,0,1,0,0,0,1,0,748,0,0,866,
scooby_state_59cd8d|29|-4 550,279,21,0,0,1,0,0,0,0,0,0,1,0,13,865,
scooby_state_59cde2|8|0 857,0,1,0,2,1,0,0,0,0,0,0,0,1,1,863,
scooby_state_59cdcb|28|1 859,0,0,0,1,0,0,0,0,0,0,0,1,0,0,861,
scooby_state_59cd8d|34|-4 530,287,26,0,2,1,1,0,1,0,0,0,0,1,12,861,
scooby_state_59cde2|23|0 856,0,0,1,0,0,0,0,0,0,0,1,1,1,0,860,
scooby_state_59cdcb|59|1 859,0,0,0,0,0,0,0,0,0,0,0,0,1,0,860,
scooby_state_59cde2|20|0 853,2,0,1,0,0,1,0,0,1,0,0,2,0,0,860,
scooby_state_5010bb|0|0 810,18,0,1,1,22,3,0,0,0,0,2,0,0,0,857,
scooby_state_59cdbf|39|0 853,0,0,1,0,2,0,0,0,0,0,0,0,0,0,856,
scooby_state_59cdcf|58|1 94,35,0,0,1,0,0,0,0,1,0,0,724,0,0,855,
scooby_state_59cd8d|42|-4 488,317,26,0,0,3,0,1,0,1,0,0,3,0,15,854,
scooby_state_59cdbf|4|0 849,0,0,0,1,0,0,0,0,0,0,1,0,1,0,852,
scooby_state_59cdee|4|1 190,1,4,3,3,2,0,1,2,2,0,2,0,1,641,852,
scooby_state_59cde2|53|0 847,2,0,0,0,0,0,0,0,1,1,0,0,0,0,851,
scooby_state_59cd8d|30|-4 592,194,37,0,2,2,0,0,1,0,0,0,5,0,18,851,
scooby_state_59cdee|52|1 197,0,9,3,0,1,2,0,1,1,2,3,2,2,626,849,
scooby_state_59cd8d|44|-4 437,354,33,0,0,1,0,1,0,0,1,1,2,0,19,849,
scooby_state_59d4e0|8|1 657,90,5,4,2,3,1,3,1,2,3,6,3,3,63,846,
scooby_state_59cd8d|44|0 794,42,1,0,0,1,2,0,1,0,0,0,0,0,3,844,
scooby_state_59cdbf|29|0 844,0,0,0,0,0,0,0,0,0,0,0,0,0,0,844,
scooby_state_59cdcf|50|1 96,34,1,1,0,0,0,0,0,0,1,0,706,0,1,840,
scooby_state_59cdcf|18|1 45,56,3,2,0,0,0,2,1,0,0,0,729,0,1,839,
scooby_state_59cd8d|61|0 814,21,0,0,0,0,0,0,1,1,0,0,0,0,2,839,
scooby_state_59cdee|35|1 194,2,2,1,1,0,0,2,1,3,2,1,3,3,622,837,
scooby_state_59cdee|10|1 166,3,2,2,1,0,0,0,2,1,2,1,0,7,649,836,
scooby_state_59cdcb|21|1 834,0,0,0,1,0,0,0,0,0,0,0,0,0,0,835,
scooby_state_59cd8d|26|-4 517,276,27,0,0,0,1,0,0,0,0,1,2,0,7,831,
scooby_state_59cdcb|30|1 830,0,0,0,0,0,0,0,0,0,1,0,0,0,0,831,
scooby_state_59cde2|28|0 790,3,7,2,0,0,2,0,0,1,0,8,6,1,10,830,
scooby_state_59d4e0|7|1 605,90,7,6,1,5,1,3,0,1,2,2,3,2,102,830,
scooby_state_59cdee|34|1 192,1,4,4,2,2,2,0,0,3,0,0,0,2,617,829,
scooby_state_59cd8d|47|-4 594,195,19,1,0,1,0,1,1,0,0,1,1,0,14,828,
scooby_state_59cdcf|32|1 99,22,1,1,0,0,1,0,2,1,0,1,699,0,0,827,
scooby_state_59cdcb|19|1 823,0,0,0,0,1,0,0,0,0,0,0,0,0,0,824,
scooby_state_59cde2|47|0 817,1,2,0,0,0,2,0,1,0,1,0,0,0,0,824,
scooby_state_59cdcb|25|1 822,0,0,0,0,0,0,0,0,0,0,0,1,0,0,823,
scooby_state_59cd8d|22|-4 479,276,38,1,1,1,0,0,0,0,1,2,1,1,21,822,
scooby_state_59cde2|57|0 807,1,1,0,0,1,0,0,1,0,2,0,5,1,1,820,
scooby_state_59cdbf|54|0 817,0,0,0,0,0,0,0,0,0,0,0,0,0,0,817,
scooby_state_59cdee|47|1 165,0,2,1,2,1,1,1,0,3,0,2,1,2,635,816,
scooby_state_59cdee|7|1 178,1,4,3,1,2,2,2,0,2,1,0,1,2,616,815,
scooby_state_59cdee|19|1 167,0,5,2,0,0,3,0,0,0,0,3,1,3,631,815,
scooby_state_59d4e0|15|1 642,77,2,6,1,1,2,5,2,2,1,7,5,5,56,814,
scooby_state_59cdcb|1|1 812,0,0,0,0,1,0,0,0,0,0,0,0,0,0,813,
scooby_state_59cdcf|22|1 113,37,2,1,0,0,0,1,0,0,0,0,657,0,1,812,
scooby_state_59d4e0|37|1 544,135,7,15,2,5,0,0,1,4,2,4,3,2,87,811,
scooby_state_59d4e0|49|1 581,54,8,10,5,3,3,6,1,3,4,5,5,6,116,810,
scooby_state_59d4d1|3|0 745,5,1,12,0,2,2,2,1,2,1,7,0,1,28,809,
scooby_state_59cdbf|21|0 807,0,0,0,0,0,1,0,0,0,0,0,0,0,0,808,
scooby_state_59cd8d|5|0 775,25,1,1,0,0,0,1,0,1,1,1,0,0,1,807,
scooby_state_59cdbf|35|0 803,0,0,0,0,1,0,0,0,0,0,0,0,0,0,804,
scooby_state_59cdcb|6|1 800,0,0,0,0,0,0,0,0,1,0,0,1,0,0,802,
scooby_state_59cdbf|30|0 801,0,0,0,0,0,0,0,0,0,0,0,0,0,0,801,
scooby_state_59cdbf|3|0 800,0,0,0,0,0,0,0,1,0,0,0,0,0,0,801,
scooby_state_59cdee|41|1 181,0,3,5,2,0,3,0,0,2,0,0,0,2,602,800,
scooby_state_59cdcb|40|1 797,0,0,0,0,0,0,1,0,0,0,0,0,0,0,798,
scooby_state_59cd8d|13|-4 424,338,22,2,0,1,2,0,0,0,0,0,2,0,7,798,
scooby_state_59cdcb|58|1 797,1,0,0,0,0,0,0,0,0,0,0,0,0,0,798,
scooby_state_59cdee|56|1 174,2,4,3,1,1,2,1,2,1,0,0,2,1,604,798,
scooby_state_59cdcb|38|1 795,1,0,0,0,0,0,0,0,0,1,0,0,0,0,797,
scooby_state_59cde2|33|0 792,1,0,0,0,0,0,0,0,0,0,0,1,0,1,795,
scooby_state_59cdcb|18|1 789,0,0,0,0,0,1,0,0,0,0,0,0,0,0,790,
scooby_state_59cdcf|20|1 60,25,0,0,0,1,0,1,0,1,0,0,702,0,0,790,
scooby_state_59cde2|34|0 779,3,0,0,0,0,0,0,1,0,1,0,1,2,2,789,
scooby_state_59cde2|49|0 776,2,1,0,0,0,0,0,3,0,1,1,2,1,1,788,
scooby_state_59cdee|58|1 154,3,1,2,1,0,2,2,2,2,0,4,2,2,609,786,
scooby_state_59cdb0|60|1 538,0,8,2,1,0,1,0,1,2,1,1,0,1,229,785,
scooby_state_59cd8d|12|-4 450,298,17,2,1,1,0,0,0,1,1,0,4,0,10,785,
scooby_state_59cdcb|41|1 779,0,0,1,0,0,0,0,0,0,0,0,0,0,0,780,
scooby_state_59cdcf|56|1 29,41,0,0,0,0,0,2,0,0,1,0,705,0,0,778,
scooby_state_59cdbf|8|0 774,0,0,0,0,1,0,1,0,0,0,0,0,0,0,776,
scooby_state_59cde2|31|0 771,1,0,0,1,0,0,0,0,1,0,1,0,0,0,775,
scooby_state_59cde2|15|0 755,2,3,1,1,0,1,1,0,2,0,2,6,0,1,775,
scooby_state_59cdee|63|1 155,2,0,3,1,1,0,0,1,2,2,2,0,5,601,775,
scooby_state_59cde2|24|0 763,2,0,0,2,0,1,0,0,0,1,1,4,1,0,775,
scooby_state_59cdee|14|1 155,2,1,3,0,1,1,0,0,2,1,1,1,2,605,775,
scooby_state_59cdbf|22|0 772,0,0,0,0,0,0,0,0,1,0,0,0,0,1,774,
scooby_state_59cdee|45|1 163,2,1,3,0,1,0,2,1,0,0,1,2,2,596,774,
scooby_state_59cdcb|33|1 772,0,0,0,1,0,0,0,0,0,0,0,0,0,1,774,
scooby_state_59cd8d|52|0 739,25,0,1,0,0,1,1,0,0,0,2,0,0,5,774,
scooby_state_59cdee|42|1 170,0,4,2,1,0,0,1,2,2,1,1,2,4,583,773,
scooby_state_59cd8d|4|-4 450,264,33,0,0,2,0,0,1,0,0,1,2,0,19,772,
scooby_state_59cdcf|12|1 71,26,0,0,0,1,0,0,0,2,0,0,670,1,0,771,
scooby_state_59cdcb|53|1 770,0,0,0,1,0,0,0,0,0,0,0,0,0,0,771,
scooby_state_59cdcb|26|1 767,0,1,0,0,0,0,0,0,0,0,0,0,0,0,768,
scooby_state_59cdbf|34|0 764,2,0,0,1,0,0,0,0,1,0,0,0,0,0,768,
scooby_state_59cdee|36|1 174,0,2,4,0,0,0,0,1,2,1,1,3,5,574,767,
scooby_state_59cdcb|12|1 761,0,0,0,2,0,0,0,0,0,0,0,0,0,0,763,
scooby_state_59cd8d|40|-4 521,214,15,2,1,0,0,0,0,0,1,0,1,0,8,763,
scooby_state_59cd8d|35|-4 395,316,30,0,0,2,0,0,0,0,0,0,2,0,16,761,
scooby_state_59d4d1|6|0 697,4,4,3,4,4,7,1,2,2,3,8,0,2,20,761,
scooby_state_59cdbf|13|1 757,0,0,0,1,0,0,0,0,0,0,0,2,0,0,760,
scooby_state_59cd8d|23|-4 552,172,17,0,0,4,0,0,0,1,0,0,3,1,9,759,
scooby_state_59cdcb|46|1 759,0,0,0,0,0,0,0,0,0,0,0,0,0,0,759,
scooby_state_59cde2|13|0 754,0,0,1,0,0,0,1,1,0,0,0,1,0,1,759,
scooby_state_59d4d1|0|0 727,1,1,3,4,2,2,2,1,1,3,1,1,6,3,758,
scooby_state_59cdcf|17|1 45,37,1,0,2,0,1,0,1,1,0,0,668,0,1,757,
scooby_state_59cdcf|41|1 57,46,0,1,0,0,0,0,1,0,0,0,650,0,0,755,
scooby_state_59cde2|36|0 733,1,3,0,0,0,5,0,0,0,0,6,3,1,3,755,
scooby_state_59cd8d|38|-4 485,239,16,1,0,0,0,0,1,1,0,1,0,0,11,755,
scooby_state_59cdcb|50|1 751,0,0,0,0,0,0,0,0,0,0,0,0,1,0,752,
scooby_state_59cdbf|51|0 751,0,0,1,0,0,0,0,0,0,0,0,0,0,0,752,
scooby_state_59cde2|50|0 749,0,1,0,0,0,0,0,0,0,0,0,0,0,1,751,
scooby_state_59cd8d|16|-4 493,227,17,0,0,4,0,0,1,0,0,0,1,0,8,751,
scooby_state_59cdcb|4|1 748,1,0,0,0,0,0,0,0,1,0,0,0,0,0,750,
scooby_state_59cdee|62|1 170,1,7,1,0,1,3,0,0,2,0,1,0,1,563,750,
scooby_state_59cdcb|36|1 748,0,0,0,0,0,0,0,0,0,0,1,0,0,0,749,
scooby_state_59cde2|38|0 743,2,0,1,0,0,1,0,0,1,0,0,1,0,0,749,
scooby_state_59cdcf|37|-1 1,4,1,0,2,2,0,0,0,0,0,0,737,0,0,747,
scooby_state_59cdcf|11|1 34,40,0,1,1,1,0,0,0,0,1,1,665,1,1,746,
scooby_state_59cdcf|47|1 91,46,2,1,0,1,0,1,1,0,0,0,601,0,1,745,
scooby_state_59cde2|26|0 742,0,0,0,0,0,1,1,0,0,0,0,0,0,0,744,
scooby_state_59d4e0|47|1 584,66,4,3,3,5,4,2,4,2,0,2,2,3,60,744,
scooby_state_59cdcb|7|1 741,1,0,0,0,0,0,0,0,0,0,0,0,0,0,742,
scooby_state_59cdcb|43|1 739,0,0,1,0,0,0,0,0,0,0,0,0,1,0,741,
scooby_state_59d4e0|35|1 484,170,3,5,2,2,0,3,1,2,0,1,2,1,64,740,
scooby_state_59cdbf|41|0 738,0,0,0,0,0,0,0,1,0,0,0,0,0,0,739,
scooby_state_59cdee|44|1 153,0,3,7,0,2,0,1,3,1,1,2,1,2,563,739,
scooby_state_59cdcb|44|1 736,1,0,1,0,0,0,0,0,0,0,0,0,0,0,738,
scooby_state_59cdcf|53|1 67,28,1,1,1,0,1,0,2,1,0,0,634,0,0,736,
scooby_state_59cd8d|56|0 685,40,3,0,0,0,0,1,1,0,0,0,0,0,6,736,
scooby_state_59cde2|55|0 728,0,0,1,1,1,0,1,0,0,2,0,1,0,0,735,
scooby_state_59cd8d|59|0 704,29,0,0,0,0,0,0,0,0,0,0,0,0,2,735,
scooby_state_59cd8d|33|0 653,74,0,0,1,1,0,0,1,0,2,0,1,0,2,735,
scooby_state_59cdcf|11|-1 0,1,1,0,0,0,0,0,0,0,0,0,731,0,1,734,
scooby_state_59cdcb|52|1 732,0,0,0,0,0,0,0,0,0,0,0,0,0,0,732,
scooby_state_59cdee|16|1 155,1,3,2,1,2,2,0,0,4,0,2,0,3,556,731,
scooby_state_59cdbf|10|0 727,0,0,0,0,2,0,0,0,0,0,0,0,0,0,729,
scooby_state_59cde2|12|0 723,0,0,0,0,2,0,0,0,0,0,0,2,0,1,728,
scooby_state_59cde2|41|0 710,0,3,1,0,2,1,1,0,3,0,3,1,1,0,726,
scooby_state_59cdcf|30|1 91,23,4,2,1,0,0,0,0,1,0,1,601,0,1,725,
scooby_state_59cdee|27|1 152,1,3,2,2,0,2,0,0,1,3,4,0,3,551,724,
scooby_state_59cdee|26|1 142,2,2,4,1,1,0,2,0,4,2,1,1,0,559,721,
scooby_state_59cdbf|53|0 720,1,0,0,0,0,0,0,0,0,0,0,0,0,0,721,
scooby_state_59cdee|60|1 155,0,1,3,1,1,1,1,1,4,0,2,0,3,546,719,
scooby_state_59cdcf|23|1 51,35,1,1,1,0,0,1,0,0,1,0,626,0,1,718,
scooby_state_59cdee|6|1 154,1,3,1,0,3,1,0,1,1,0,0,2,5,546,718,
scooby_state_59cdcf|60|1 58,23,0,0,0,0,0,0,1,1,0,0,633,1,0,717,
scooby_state_59cdbf|23|0 708,0,0,0,0,0,0,0,0,0,2,0,1,0,1,712,
scooby_state_59d4d1|62|0 669,1,2,4,4,2,3,3,0,1,2,1,1,5,13,711,
scooby_state_59cdee|20|1 134,0,0,2,1,2,0,0,1,1,1,1,1,2,562,708,
scooby_state_59d4e0|50|1 431,93,14,20,1,13,1,0,3,0,0,7,5,7,112,707,
scooby_state_59cde2|44|0 683,0,4,2,0,0,4,1,1,0,0,8,1,0,3,707,
scooby_state_59cdcf|43|1 49,23,0,1,0,0,1,1,0,1,0,1,629,1,0,707,
scooby_state_59d4d1|13|0 631,3,2,5,4,4,3,1,3,2,3,9,3,2,27,702,
scooby_state_59cdcf|61|1 84,24,0,0,0,0,1,1,0,0,4,1,586,0,1,702,
scooby_state_59cdee|48|1 153,1,2,3,1,0,0,0,0,2,1,2,2,1,533,701,
scooby_state_59d4e0|38|1 416,140,7,10,2,7,1,2,1,1,1,2,3,3,105,701,
scooby_state_59cdcf|1|-1 2,6,1,0,0,1,0,0,0,0,0,0,689,1,0,700,
scooby_state_59cd8d|4|0 641,51,0,1,0,0,0,0,2,0,0,1,1,0,3,700,
scooby_state_59cdbf|61|0 696,0,0,0,0,0,0,0,0,0,0,0,0,1,0,697,
scooby_state_59cdcf|31|1 77,44,0,0,0,0,0,0,0,2,1,0,573,0,0,697,
scooby_state_59d4d1|45|0 650,1,4,4,0,2,2,2,2,2,3,4,1,1,19,697,
scooby_state_59cdcf|29|-1 1,3,0,1,0,0,0,0,0,0,0,0,690,0,0,695,
scooby_state_59cdcb|62|1 694,0,1,0,0,0,0,0,0,0,0,0,0,0,0,695,
scooby_state_59d4e0|43|1 434,146,1,7,1,3,1,1,1,0,3,2,6,3,85,694,
scooby_state_59cdee|5|1 167,1,4,4,1,1,1,0,0,2,1,0,1,4,507,694,
scooby_state_59cdcf|39|-1 0,7,0,0,0,1,0,0,0,0,1,0,682,1,1,693,
scooby_state_59cdee|57|1 136,0,2,1,1,3,1,0,1,2,1,2,0,0,543,693,
scooby_state_59cdcf|13|-1 1,0,0,0,0,0,0,0,0,0,0,0,692,0,0,693,
scooby_state_59cd8d|60|0 664,26,0,0,1,0,1,0,0,0,0,0,0,0,1,693,
scooby_state_59d4e0|10|1 439,115,4,14,2,6,4,4,1,2,3,4,2,5,88,693,
scooby_state_59cdee|30|1 134,0,0,3,0,0,2,2,1,3,0,2,2,2,540,691,
scooby_state_59cdcb|9|1 688,0,0,0,1,0,0,0,1,0,0,0,0,0,0,690,
scooby_state_59cdbf|50|0 686,0,0,0,1,0,0,0,0,0,0,1,0,0,0,688,
scooby_state_59cdcf|29|1 61,30,1,1,0,0,0,0,0,0,1,1,589,1,1,686,
scooby_state_59cdcf|38|1 49,23,2,1,0,0,1,1,1,0,2,0,604,1,0,685,
scooby_state_59cdcf|62|1 65,22,4,1,0,2,1,0,1,0,0,0,586,1,2,685,
scooby_state_59d4e0|14|1 530,55,4,5,0,1,4,6,4,0,3,6,3,2,61,684,
scooby_state_59cdcf|36|1 75,26,1,2,0,0,0,0,2,1,0,0,576,0,1,684,
scooby_state_59cde2|58|0 674,1,1,1,0,0,1,0,1,0,1,0,0,0,1,681,
scooby_state_59cdcf|48|1 68,22,0,0,1,1,1,0,0,0,1,0,584,1,1,680,
scooby_state_59cdcf|8|1 122,27,1,0,0,0,0,0,2,1,1,1,525,0,0,680,
scooby_state_59d4d1|46|0 615,3,3,12,2,1,1,4,2,2,2,10,1,2,20,680,
scooby_state_59cdee|17|1 146,0,1,5,0,0,0,0,0,4,1,2,2,2,515,678,
scooby_state_59cdcf|18|-1 2,1,0,0,0,0,1,0,0,0,0,0,672,2,0,678,
scooby_state_59d4e0|9|1 475,64,7,4,1,1,2,4,1,2,3,1,4,4,103,676,
scooby_state_59cdcf|1|1 61,46,1,0,0,0,0,2,1,0,0,0,562,1,1,675,
scooby_state_59cdbf|60|0 672,0,0,0,0,0,0,0,0,0,0,0,0,0,0,672,
scooby_state_59cdbf|55|0 670,0,0,0,0,0,0,0,0,0,0,0,0,0,0,670,
scooby_state_59cd8d|62|0 604,49,2,0,2,0,0,1,1,1,1,1,1,2,5,670,
scooby_state_59d4d1|59|0 601,5,1,9,2,0,4,7,4,6,2,11,3,0,15,670,
scooby_state_59d4d1|63|0 632,1,3,2,3,3,1,1,5,0,0,2,1,5,11,670,
scooby_state_59cdee|15|1 134,2,1,2,2,1,0,0,3,0,1,0,2,2,519,669,
scooby_state_59cdcf|30|-1 0,2,0,0,1,0,0,0,1,1,1,1,660,0,2,669,
scooby_state_59cdee|53|1 136,1,0,3,1,1,1,1,0,3,1,1,3,2,513,667,
scooby_state_59cdee|22|1 144,0,0,5,1,0,1,2,2,3,0,0,1,1,506,666,
scooby_state_59cdcb|56|1 665,0,0,0,0,0,0,0,0,0,0,1,0,0,0,666,
scooby_state_59cde2|16|0 648,0,0,1,0,1,0,2,1,0,1,2,4,1,5,666,
scooby_state_59cdbf|16|0 663,0,0,1,0,0,0,0,1,0,0,0,0,0,0,665,
scooby_state_59cdcb|57|1 659,1,1,0,1,0,0,0,0,0,0,1,0,0,0,663,
scooby_state_59d4e0|30|1 398,127,9,4,1,2,2,3,1,5,1,2,6,5,97,663,
scooby_state_59cdcf|7|1 60,25,0,0,2,0,0,1,1,0,0,1,573,0,0,663,
scooby_state_59cdee|37|1 132,4,2,1,1,1,2,2,1,2,1,2,0,6,504,661,
scooby_state_59cdbf|32|0 657,0,0,0,0,0,0,0,0,1,0,0,0,1,0,659,
scooby_state_59d4e0|25|1 524,88,2,6,2,1,0,3,0,2,1,3,0,0,27,659,
scooby_state_59cdcf|16|-1 0,4,1,0,0,2,0,0,1,0,0,0,647,1,0,656,
scooby_state_59d4e0|45|1 431,120,5,20,1,3,1,1,0,2,0,4,4,3,61,656,
scooby_state_59cdbf|59|0 656,0,0,0,0,0,0,0,0,0,0,0,0,0,0,656,
scooby_state_59cdbf|58|0 653,0,1,0,0,0,0,0,0,0,0,0,0,0,0,654,
scooby_state_59cdcb|37|1 653,0,0,0,0,0,0,0,0,0,0,0,0,0,0,653,
scooby_state_59cdf2|2|2 42,343,1,3,2,6,0,1,0,0,1,248,2,1,3,653,
scooby_state_59cde2|32|0 644,3,1,1,1,0,0,1,0,0,0,0,2,0,0,653,
scooby_state_59cdbf|9|0 652,0,0,0,0,0,0,0,0,0,0,0,0,0,0,652,
scooby_state_59d4e0|5|1 395,99,7,11,0,2,3,2,4,0,0,2,4,7,115,651,
scooby_state_59cdcf|21|1 84,23,1,1,1,0,2,1,1,1,0,0,535,0,0,650,
scooby_state_59cdcf|51|1 38,34,1,0,0,0,0,0,0,0,0,0,575,2,0,650,
scooby_state_59cdcf|2|1 41,25,0,1,0,0,0,0,0,0,1,0,582,0,0,650,
scooby_state_59cdee|2|1 156,0,3,2,0,0,2,1,1,3,0,1,2,2,477,650,
scooby_state_59cd8d|27|0 615,24,0,0,0,1,1,1,0,0,0,1,0,1,4,648,
scooby_state_59cdcf|56|-1 1,4,0,0,1,0,1,0,0,0,0,0,641,0,0,648,
scooby_state_59d4e0|13|1 447,84,4,9,2,1,3,2,2,4,1,3,5,1,78,646,
scooby_state_59cdcf|49|1 57,20,1,0,1,0,0,0,0,1,0,0,565,0,1,646,
scooby_state_59cdbf|44|0 643,0,0,0,0,1,0,0,0,0,0,1,0,0,0,645,
scooby_state_59cd8d|42|0 600,40,0,0,0,1,1,0,1,0,0,0,0,0,1,644,
scooby_state_59cdf2|38|2 25,323,1,3,1,1,0,1,0,1,0,280,3,3,1,643,
scooby_state_59cd8d|45|0 589,47,1,0,1,0,1,0,0,0,0,0,0,0,4,643,
scooby_state_59cdbf|56|0 641,0,0,0,0,0,1,0,0,0,0,0,0,0,0,642,
scooby_state_59cd8d|50|0 567,70,0,0,0,0,1,0,0,0,0,0,0,0,2,640,
scooby_state_59cdcf|34|1 59,32,0,0,0,1,1,0,1,2,2,1,539,0,1,639,
scooby_state_59cd8d|37|0 588,35,1,0,2,0,0,1,0,0,0,1,1,1,8,638,
scooby_state_59cdbf|26|0 636,0,0,0,0,0,0,0,0,0,0,0,1,1,0,638,
scooby_state_59d4e0|20|1 374,99,8,3,2,1,3,5,1,1,3,3,3,6,125,637,
scooby_state_59cdbf|31|0 636,0,1,0,0,0,0,0,0,0,0,0,0,0,0,637,
scooby_state_59d4e0|22|1 465,93,4,8,2,3,2,0,1,3,0,4,1,2,49,637,
scooby_state_59cdbf|15|0 634,0,0,1,0,0,0,0,0,0,0,0,1,0,0,636,
scooby_state_59cdbf|27|0 634,0,0,0,0,1,0,0,0,0,0,0,0,0,0,635,
scooby_state_59d4e0|31|1 430,81,8,8,2,2,1,7,3,1,5,1,10,4,71,634,
scooby_state_59d4e0|46|1 449,60,3,5,2,6,3,6,2,1,1,1,6,4,84,633,
scooby_state_59cdbf|36|0 632,1,0,0,0,0,0,0,0,0,0,0,0,0,0,633,
scooby_state_59d4e0|21|1 506,49,2,1,1,1,1,2,1,0,0,3,0,2,64,633,
scooby_state_59cdcf|13|1 78,37,0,0,0,0,1,1,0,0,0,1,513,0,0,631,
scooby_state_59cdcf|55|1 72,42,2,2,0,0,1,0,0,0,1,1,506,1,1,629,
scooby_state_59cdcf|28|1 67,32,0,1,0,0,1,0,0,0,0,1,526,0,0,628,
scooby_state_59cdcf|15|1 79,22,0,1,0,0,0,0,0,0,0,0,526,0,0,628,
scooby_state_59d4e0|34|1 458,86,5,14,2,6,2,4,2,1,2,1,2,2,41,628,
scooby_state_59cd8d|51|0 585,34,0,0,0,0,0,0,1,0,0,1,2,1,4,628,
scooby_state_59cdf2|17|2 42,267,1,1,1,5,0,0,1,0,0,307,1,0,1,627,
scooby_state_59d4e0|6|1 457,56,8,9,0,4,2,2,2,1,3,2,6,2,73,627,
scooby_state_59cdcf|35|1 63,32,0,1,0,0,0,1,0,0,1,0,526,0,1,625,
scooby_state_59cd8d|36|0 566,53,0,1,0,0,1,0,0,1,0,0,0,0,2,624,
scooby_state_59cde2|14|0 620,2,0,0,0,0,0,0,0,0,0,0,1,0,1,624,
scooby_state_59d4e0|52|1 483,54,3,10,2,1,0,1,5,2,3,2,3,0,55,624,
scooby_state_59cdee|13|1 117,1,6,4,0,0,0,1,0,3,1,2,0,2,486,623,
scooby_state_59cdcf|24|1 38,16,0,0,0,0,0,0,1,1,0,1,566,0,0,623,
scooby_state_59cdee|43|1 124,0,1,4,2,0,0,1,1,3,0,0,3,5,477,621,
scooby_state_59cdcb|14|1 620,0,0,0,0,0,0,0,0,0,0,1,0,0,0,621,
scooby_state_59cdcf|3|1 36,29,0,1,1,0,0,0,0,0,0,0,554,0,0,621,
scooby_state_59cdcf|59|1 77,26,0,2,0,1,0,0,0,2,0,0,512,0,1,621,
scooby_state_59cde2|46|0 592,2,6,2,0,0,2,0,0,0,1,5,6,0,4,620,
scooby_state_59cdcb|15|1 617,0,0,0,0,0,0,0,1,0,0,0,0,1,0,619,
scooby_state_59cdcf|54|-1 0,3,0,0,1,0,0,0,0,0,1,2,612,0,0,619,
scooby_state_59cd8d|17|0 537,66,0,0,2,1,1,1,1,2,0,2,1,0,3,617,
scooby_state_4c3be0|47|0 617,0,0,0,0,0,0,0,0,0,0,0,0,0,0,617,
scooby_state_59cde2|35|0 607,0,0,2,0,1,1,0,0,0,0,1,3,2,0,617,
scooby_state_59d4d1|15|0 531,6,0,10,3,5,3,2,0,1,4,15,1,4,31,616,
scooby_state_59cd8d|2|0 570,37,0,1,1,0,1,1,0,1,0,1,0,0,2,615,
scooby_state_59d4e0|19|1 378,131,3,5,3,5,3,1,1,0,0,4,1,2,78,615,
scooby_state_59cd8d|8|0 585,18,2,0,0,0,0,0,0,0,0,2,1,3,2,613,
scooby_state_59cdbf|62|0 610,0,0,0,0,0,0,0,0,0,0,0,1,0,0,611,
scooby_state_59cdcf|36|-1 1,2,0,1,1,0,0,1,0,0,0,0,605,0,0,611,
scooby_state_59cdcf|5|1 68,24,1,1,0,2,0,0,0,0,1,0,513,0,1,611,
scooby_state_59cdcf|4|1 55,29,1,0,1,0,0,0,0,0,0,0,523,0,0,609,
scooby_state_59cde2|40|0 599,1,1,1,1,0,0,0,1,0,1,1,0,0,0,606,
scooby_state_59d4d1|4|0 528,14,2,10,1,0,3,1,2,0,3,9,3,3,26,605,
scooby_state_59cdf2|40|2 21,260,0,4,1,7,0,2,0,0,1,305,2,0,2,605,
scooby_state_59d4d1|58|0 587,0,0,3,2,2,0,0,1,1,0,3,1,0,5,605,
scooby_state_59cdcf|25|1 77,24,0,0,1,0,0,0,1,1,0,1,498,1,1,605,
scooby_state_59d4d1|43|0 549,3,4,8,2,0,1,2,1,6,1,7,4,2,14,604,
scooby_state_59cde2|21|0 577,1,3,0,0,0,5,0,1,2,2,7,4,0,2,604,
scooby_state_59d4e0|2|1 462,52,4,7,2,2,0,1,0,1,2,8,5,3,54,603,
scooby_state_59cdee|54|1 114,2,1,1,2,0,1,0,1,1,1,3,2,3,471,603,
scooby_state_59cdbf|20|0 601,0,0,0,0,0,0,0,0,0,0,0,0,0,0,601,
scooby_state_59d4e0|3|1 466,83,1,2,3,4,1,1,3,1,2,1,1,1,31,601,
scooby_state_59cd8d|19|0 556,40,0,0,0,0,0,0,0,0,1,1,1,0,2,601,
scooby_state_59cdbf|38|0 601,0,0,0,0,0,0,0,0,0,0,0,0,0,0,601,
scooby_state_59d4e0|16|1 383,109,4,5,2,2,0,0,1,0,2,2,5,5,81,601,
scooby_state_59cd8d|26|0 574,13,0,0,0,0,1,2,0,1,1,1,0,2,4,599,
scooby_state_4cd681|2|0 474,3,0,0,33,0,20,9,8,8,3,0,6,8,26,598,
scooby_state_59d4d1|36|0 555,3,1,4,0,1,1,0,2,0,1,5,4,3,18,598,
scooby_state_59cdee|3|1 137,1,2,1,0,0,0,1,0,1,0,2,1,3,447,596,
scooby_state_59d4e0|44|1 366,100,6,15,4,7,0,1,2,1,4,2,3,3,82,596,
scooby_state_59cd8d|18|0 535,52,0,0,0,1,1,0,0,1,0,3,0,1,1,595,
scooby_state_4bc35d|5|-1 392,71,55,19,32,1,0,3,2,3,2,11,0,1,2,594,
scooby_state_59cde2|25|0 587,0,0,1,1,0,1,1,1,1,1,0,0,0,0,594,
scooby_state_59cdcb|45|1 591,0,0,0,1,0,0,0,0,0,0,0,0,1,0,593,
scooby_state_59cdee|23|1 149,1,4,3,1,3,0,0,0,3,0,0,0,6,423,593,
scooby_state_59cd8d|55|0 551,27,1,1,0,1,2,1,0,0,1,2,0,1,4,592,
scooby_state_59cdcf|14|1 43,19,3,0,0,0,0,0,0,0,0,0,526,1,0,592,
scooby_state_59cdcf|27|-1 0,4,1,0,1,1,0,0,1,0,0,0,584,0,0,592,
scooby_state_59cde2|11|0 570,2,2,2,1,0,3,0,1,0,0,4,4,0,2,591,
scooby_state_4c6720|28|0 49,535,0,0,0,7,0,0,0,0,0,0,0,0,0,591,
scooby_state_59d4e0|56|1 406,55,7,17,1,7,1,4,2,2,0,4,3,5,77,591,
scooby_state_59cdf2|12|2 34,342,0,1,3,4,0,2,0,0,0,204,1,0,0,591,
scooby_state_59cd8d|61|-1 567,13,1,2,0,1,0,0,0,1,5,0,0,0,1,591,
scooby_state_59cdbf|13|0 586,1,0,0,0,1,0,0,0,1,0,0,1,0,0,590,
scooby_state_59cd8d|39|0 546,35,1,0,0,0,0,1,0,0,0,1,0,0,6,590,
scooby_state_59cdbf|47|0 588,0,0,0,0,0,0,0,0,0,0,0,0,0,0,588,
scooby_state_49692f|2|0 527,0,1,48,0,0,1,1,0,0,0,5,0,1,3,587,
scooby_state_59cdb0|48|1 364,0,12,2,4,1,0,2,2,4,1,6,0,2,187,587,
scooby_state_59cdb0|31|1 369,0,8,0,1,1,2,1,0,4,2,1,1,1,196,587,
scooby_state_59d4e0|33|1 383,73,3,20,0,6,3,0,1,1,2,11,5,0,79,587,
scooby_state_59cdcf|45|1 98,23,2,0,1,0,1,0,1,0,0,1,458,0,1,586,
scooby_state_59cdcf|40|1 92,23,1,0,1,0,0,0,0,0,1,0,466,0,0,584,
scooby_state_59cdcf|37|1 85,28,2,1,0,1,0,0,0,0,0,0,467,0,0,584,
scooby_state_59cde2|43|0 577,1,0,2,0,0,2,0,0,1,0,0,1,0,0,584,
scooby_state_59cdcf|8|-1 0,2,1,2,0,1,0,0,0,1,0,0,577,0,0,584,
scooby_state_59d4e0|39|1 321,123,7,8,1,3,0,0,3,1,0,4,4,4,103,582,
scooby_state_59d4e0|55|1 358,120,11,14,2,5,3,4,0,1,3,5,1,2,53,582,
scooby_state_59cdbf|18|0 581,0,0,0,0,0,0,0,0,0,0,0,0,0,0,581,
scooby_state_59cd8d|28|0 550,27,0,0,0,0,1,0,0,0,0,0,0,0,3,581,
scooby_state_59cdee|21|1 113,1,3,1,0,0,2,0,3,0,0,1,1,0,452,577,
scooby_state_4c3c02|48|1 468,88,0,0,0,21,0,0,0,0,0,0,0,0,0,577,
scooby_state_59cdee|38|1 123,1,2,2,1,0,1,1,2,0,1,1,1,3,436,575,
scooby_state_59cdcf|33|-1 0,2,0,0,0,0,0,1,0,0,1,0,570,0,0,574,
scooby_state_59cdcf|5|-1 0,2,0,2,0,0,0,0,0,0,0,0,568,1,0,573,
scooby_state_7b50e4|15|0 305,265,0,1,0,1,0,0,0,0,0,0,0,0,0,572,
scooby_state_59cd8d|47|0 517,40,0,0,2,1,1,1,0,1,1,1,0,0,5,570,
scooby_state_59cdcf|38|-1 0,2,1,0,0,0,0,0,0,0,0,1,563,0,1,568,
scooby_state_59cdcf|9|-1 1,3,1,0,1,1,0,0,0,0,0,1,559,1,0,568,
scooby_state_59cdcf|44|-1 0,3,0,0,0,0,0,0,0,0,0,0,565,0,0,568,
scooby_state_59cd8d|41|0 533,26,0,0,1,0,0,2,0,2,1,1,0,0,1,567,
scooby_state_59cdcf|25|-1 0,3,0,1,0,0,0,1,0,0,0,0,561,0,1,567,
scooby_state_5ffee7|5|0 559,0,0,0,1,0,0,0,0,0,5,0,0,0,0,565,
scooby_state_59cdcf|27|1 46,23,3,1,0,1,0,0,1,0,1,0,488,1,0,565,
scooby_state_59cdcf|33|1 40,25,1,1,0,0,0,0,0,0,0,0,496,1,0,564,
scooby_state_59cdbf|19|0 563,0,0,0,0,0,0,0,0,0,0,0,0,1,0,564,
scooby_state_59cd8d|30|0 516,32,1,0,1,1,1,1,0,1,0,0,1,3,4,562,
scooby_state_59d4e0|24|1 405,68,1,6,0,4,4,0,0,4,0,1,2,1,65,561,
scooby_state_5ffeef|6|1 4,17,39,12,12,0,13,10,6,28,12,259,73,64,12,561,
scooby_state_59cdcf|4|-1 0,4,0,0,0,1,0,0,0,0,0,0,554,0,1,560,
scooby_state_59cdbf|37|0 560,0,0,0,0,0,0,0,0,0,0,0,0,0,0,560,
scooby_state_59cdf2|28|2 47,191,0,1,2,4,0,0,1,0,0,310,3,0,1,560,
scooby_state_59cd8d|53|0 517,36,0,0,0,0,0,0,0,0,1,1,0,0,5,560,
scooby_state_59cdbf|40|0 558,0,0,0,0,0,0,0,1,0,0,0,0,0,0,559,
scooby_state_59cd8d|25|0 525,29,0,0,0,0,1,0,0,0,0,0,0,0,2,557,
scooby_state_59cdee|9|1 101,1,0,2,2,0,0,1,1,1,1,1,0,1,444,556,
scooby_state_59cdf2|31|2 24,139,0,1,2,4,0,2,1,0,2,370,0,5,6,556,
scooby_state_5bf96b|0|0 532,0,0,0,4,0,0,0,1,0,7,2,0,0,9,555,
scooby_state_59cdcf|26|1 74,28,1,0,0,2,0,0,1,0,0,0,446,1,0,553,
scooby_state_59cd8d|1|0 525,21,0,0,0,1,0,0,1,0,1,2,0,0,1,552,
scooby_state_59cdee|51|1 119,0,2,3,0,1,0,0,0,3,1,2,0,2,417,550,
scooby_state_59d4e0|42|1 361,76,6,11,0,4,0,5,1,4,3,4,5,0,68,548,
scooby_state_59cdcf|46|1 72,15,1,1,1,0,1,0,0,1,0,0,454,1,1,548,
scooby_state_59cdb0|28|1 346,0,4,1,1,3,0,1,0,1,1,4,0,0,186,548,
scooby_state_59cdbf|45|0 545,0,0,0,0,0,0,0,0,0,1,0,0,0,0,546,
scooby_state_59d4e0|23|1 410,56,2,7,0,3,1,0,2,0,0,3,2,1,57,544,
scooby_state_59d4e0|12|1 421,60,2,2,1,3,3,2,0,1,2,1,3,2,41,544,
scooby_state_59d4e0|1|1 322,109,8,5,2,1,0,0,0,0,3,0,3,4,84,541,
scooby_state_59cd8d|58|0 515,14,0,0,0,0,0,0,0,0,1,3,2,1,4,540,
scooby_state_59cdee|46|1 106,1,0,2,1,0,0,2,2,1,0,3,1,3,418,540,
scooby_state_59cdcf|23|-1 0,4,0,0,0,1,0,2,0,1,1,0,531,0,0,540,
scooby_state_59cdf2|26|2 34,265,0,2,2,1,3,2,1,1,1,223,1,0,3,539,
scooby_state_59cdf2|14|2 24,305,1,3,0,3,0,0,2,0,0,197,0,0,3,538,
scooby_state_59cd8d|35|0 500,36,0,0,0,0,0,0,0,0,0,1,0,0,1,538,
scooby_state_59cdcb|10|1 537,0,0,0,0,0,0,0,0,0,0,0,0,0,0,537,
scooby_state_59cd8d|38|0 464,67,0,0,0,0,0,0,0,0,0,1,0,0,5,537,
scooby_state_59cdcf|52|-1 0,3,0,2,0,2,0,0,0,0,0,0,530,0,0,537,
scooby_state_59cdf2|57|2 67,235,0,1,0,2,0,0,0,0,1,227,2,0,1,536,
scooby_state_59cdcf|43|-1 1,3,0,1,0,1,0,0,0,0,0,0,529,0,0,535,
scooby_state_59cd8d|16|0 502,27,0,1,1,0,0,0,0,1,0,1,0,0,1,534,
scooby_state_59cd8d|48|0 510,18,1,0,0,1,0,0,0,1,0,0,0,1,2,534,
scooby_state_59cdf2|5|2 42,291,0,3,1,3,0,0,0,0,0,191,1,0,0,532,
scooby_state_59cdcf|44|1 71,29,0,0,0,0,0,0,0,1,0,1,430,0,0,532,
scooby_state_59cd8d|6|0 517,10,0,0,1,0,0,1,0,0,0,1,0,0,0,530,
scooby_state_59cdbf|25|0 530,0,0,0,0,0,0,0,0,0,0,0,0,0,0,530,
scooby_state_7b3b03|44|1 203,326,0,0,0,0,0,0,0,0,0,0,0,0,0,529,
scooby_state_59cdf2|9|2 33,257,0,2,2,6,0,1,0,0,0,225,1,0,0,527,
scooby_state_59d4d1|57|0 457,7,3,8,1,1,0,4,0,1,5,8,4,0,28,527,
scooby_state_59cdcf|42|-1 1,0,1,2,0,0,0,0,1,0,0,0,521,0,0,526,
scooby_state_59cd8d|57|0 495,21,2,0,0,0,0,0,0,1,0,1,2,1,2,525,
scooby_state_59cdb0|43|1 388,0,5,1,0,0,2,1,1,1,0,1,1,0,123,524,
scooby_state_59cdb0|25|1 347,2,7,1,2,0,0,0,0,1,0,2,0,2,160,524,
scooby_state_59d4e0|26|1 398,56,4,6,2,4,1,2,1,2,2,2,1,1,41,523,
scooby_state_59d4e0|54|1 401,61,2,3,2,2,2,1,0,1,0,4,4,0,40,523,
scooby_state_4c1a42|41|1 483,39,0,0,0,0,0,0,0,0,0,0,0,0,0,522,
scooby_state_59cd8d|11|0 490,25,0,0,1,0,0,0,3,0,0,2,0,0,1,522,
scooby_state_4c1c2b|48|4 520,1,0,0,0,0,0,0,0,0,0,0,0,0,0,521,
scooby_state_64d6d7|15|0 495,1,9,0,0,2,0,1,3,3,1,0,1,4,1,521,
scooby_state_59cdbf|48|0 521,0,0,0,0,0,0,0,0,0,0,0,0,0,0,521,
scooby_state_59cdbf|57|0 521,0,0,0,0,0,0,0,0,0,0,0,0,0,0,521,
scooby_state_59cdb0|17|1 372,0,4,0,1,0,0,1,0,1,2,1,1,0,137,520,
scooby_state_59cdf2|43|2 31,134,0,0,1,3,1,1,1,0,1,341,0,3,3,520,
scooby_state_59cd89|0|0 518,0,0,1,0,0,0,0,0,0,0,0,0,0,0,519,
scooby_state_59cdcf|59|-1 0,4,0,0,0,0,0,0,0,2,0,0,512,0,1,519,
scooby_state_4c1b17|44|3 263,0,233,0,0,0,0,0,0,0,0,0,0,0,23,519,
scooby_state_59cd9b|37|-2 0,516,0,0,0,0,0,0,0,0,1,0,0,0,0,517,
scooby_state_59cd89|1|1 515,0,0,0,0,0,0,0,0,0,0,0,0,0,0,515,
scooby_state_59cd89|2|1 511,0,0,0,0,1,0,0,0,0,0,0,0,0,0,512,
scooby_state_59cdf2|6|2 27,199,2,0,1,0,0,0,0,0,0,282,0,0,1,512,
scooby_state_59d4d1|32|0 461,3,7,2,2,4,1,1,4,2,4,2,1,0,18,512,
scooby_state_59d4e0|11|1 383,48,6,8,3,0,0,1,0,1,2,3,3,1,53,512,
scooby_state_59d4e0|48|1 369,57,2,1,3,5,0,1,1,2,1,1,3,1,64,511,
scooby_state_59cdb0|1|1 297,0,5,0,1,1,4,0,0,1,2,0,0,1,199,511,
scooby_state_5bfc02|48|1 140,0,368,2,0,0,0,0,0,0,0,0,0,0,0,510,
scooby_state_59cd89|3|1 510,0,0,0,0,0,0,0,0,0,0,0,0,0,0,510,
scooby_state_67bc00|48|1 508,0,0,1,0,0,0,0,0,0,0,0,0,0,0,509,
scooby_state_59cdbf|49|0 509,0,0,0,0,0,0,0,0,0,0,0,0,0,0,509,
scooby_state_59cdf2|19|2 38,256,1,0,1,2,0,1,0,2,0,205,0,2,0,508,
scooby_state_59cdbf|17|0 507,0,0,1,0,0,0,0,0,0,0,0,0,0,0,508,
scooby_state_59cde2|29|0 502,1,1,0,1,1,0,0,0,1,0,0,0,0,0,507,
scooby_state_59d4e0|17|1 381,69,2,0,1,1,0,2,3,2,1,2,1,0,42,507,
scooby_state_59d4e0|58|1 340,63,4,18,2,6,2,4,0,1,1,4,3,2,57,507,
scooby_state_59cd9b|26|-2 0,505,0,1,0,0,0,0,0,0,0,0,0,0,0,506,
scooby_state_59cd89|4|1 504,0,0,0,0,0,0,0,0,0,1,0,0,0,0,505,
scooby_state_59cdcf|10|1 40,27,2,0,0,0,0,0,0,0,0,0,435,0,0,504,
scooby_state_59cdcf|34|-1 0,4,0,0,0,1,0,0,0,0,0,0,497,0,1,503,
scooby_state_59cd8d|22|0 429,62,1,0,1,0,0,1,1,1,0,3,0,0,3,502,
scooby_state_59cd89|5|1 501,0,0,0,0,0,0,0,1,0,0,0,0,0,0,502,
scooby_state_59d4d1|41|0 478,3,1,0,1,2,2,2,0,2,1,0,1,1,7,501,
scooby_state_59cd8d|9|0 463,31,0,0,0,0,1,0,0,0,0,0,1,0,5,501,
scooby_state_59d4d1|18|0 450,5,3,4,2,1,0,2,1,1,1,2,2,1,26,501,
scooby_state_59cdcf|32|-1 0,1,0,0,1,0,1,0,0,0,0,0,496,0,1,500,
scooby_state_59cdbf|6|0 498,0,0,0,0,0,0,0,0,0,0,0,0,0,0,498,
scooby_state_59cd89|6|1 496,0,0,0,0,0,0,0,0,0,0,0,0,0,1,497,
scooby_state_59cd8d|46|0 478,13,0,0,0,0,0,3,0,0,0,2,0,0,1,497,
scooby_state_688a74|41|1 495,0,0,0,0,0,0,0,0,0,0,0,0,0,0,495,
scooby_state_59d4d1|7|0 436,4,2,9,2,1,0,4,2,2,0,6,3,2,22,495,
scooby_state_59cd89|7|1 492,0,0,0,0,1,0,0,0,1,0,0,0,0,0,494,
scooby_state_59cd89|8|1 493,0,0,0,0,0,0,0,0,0,0,0,0,0,0,493,
scooby_state_59d4d1|50|0 439,0,1,11,1,4,3,2,1,3,1,7,4,2,14,493,
scooby_state_59d4e0|53|1 311,81,2,4,0,0,4,3,1,4,1,3,2,2,75,493,
scooby_state_59cdf2|55|2 27,211,0,0,0,1,0,0,0,0,3,245,3,0,2,492,
scooby_state_59cdcf|55|-1 0,1,0,0,0,1,0,0,0,1,0,0,487,1,0,491,
scooby_state_59cdcf|7|-1 1,3,0,1,1,0,0,0,0,0,0,0,484,0,0,490,
scooby_state_59cdcf|53|-1 0,0,0,0,0,0,0,0,0,0,0,1,488,0,1,490,
scooby_state_59cdb0|38|1 325,0,9,1,0,0,0,0,1,1,1,3,0,1,147,489,
scooby_state_4c16da|27|2 0,489,0,0,0,0,0,0,0,0,0,0,0,0,0,489,
scooby_state_4c1700|28|1 0,1,0,488,0,0,0,0,0,0,0,0,0,0,0,489,
scooby_state_59cd8d|23|0 463,24,0,0,0,0,0,0,1,0,0,0,0,1,0,489,
scooby_state_59cdb0|23|1 343,0,3,1,1,0,1,0,0,0,0,0,0,0,138,487,
scooby_state_59cd89|11|1 485,1,0,0,0,0,0,0,0,0,0,0,0,0,0,486,
scooby_state_59cd89|10|1 486,0,0,0,0,0,0,0,0,0,0,0,0,0,0,486,
scooby_state_59cd89|9|1 484,0,0,0,0,0,0,1,0,0,0,0,0,0,1,486,
scooby_state_4cd681|26|1 485,0,0,0,0,0,0,0,0,0,0,0,0,0,0,485,
scooby_state_59cdb0|46|1 371,0,0,0,0,0,0,0,1,0,0,0,0,0,113,485,
scooby_state_59cd89|12|1 485,0,0,0,0,0,0,0,0,0,0,0,0,0,0,485,
scooby_state_59f640|25|0 11,472,0,0,0,0,0,0,0,0,0,1,0,1,0,485,
scooby_state_4c1751|29|1 438,41,3,0,1,0,0,0,0,0,0,0,0,0,1,484,
scooby_state_52a95f|37|4 122,1,2,0,1,348,1,7,1,0,0,0,0,1,0,484,
scooby_state_52a850|33|0 10,3,0,461,3,0,0,0,1,0,1,1,0,1,3,484,
scooby_state_4c6744|29|1 4,197,1,2,43,0,227,2,1,0,0,4,2,1,0,484,
scooby_state_4d0ac2|43|1 36,0,409,0,1,24,1,1,0,1,0,8,0,1,1,483,
scooby_state_59cdf2|10|2 24,229,1,3,0,2,1,0,0,0,0,219,3,0,1,483,
scooby_state_4d0a8f|42|1 476,7,0,0,0,0,0,0,0,0,0,0,0,0,0,483,
scooby_state_59cde2|30|0 477,0,2,0,1,0,1,1,0,0,0,0,1,0,0,483,
scooby_state_59cdee|12|1 98,0,4,2,0,0,1,0,0,1,1,3,0,2,371,483,
scooby_state_513b01|44|1 373,52,24,0,0,32,0,0,0,0,0,0,2,0,0,483,
scooby_state_59cd8d|7|0 465,14,0,0,0,1,0,0,0,0,0,0,0,0,2,482,
scooby_state_67b70b|28|2 481,0,0,0,0,0,0,0,0,0,1,0,0,0,0,482,
scooby_state_59cd89|13|1 480,1,0,0,0,0,0,0,0,0,0,0,0,0,1,482,
scooby_state_67b6ac|26|1 462,0,0,5,0,0,13,1,0,1,0,0,0,0,0,482,
scooby_state_59cd89|14|1 481,0,0,0,0,0,0,0,0,0,0,0,0,0,0,481,
scooby_state_59cd89|15|1 481,0,0,0,0,0,0,0,0,0,0,0,0,0,0,481,
scooby_state_4c1242|9|1 469,0,9,0,1,1,0,0,0,0,0,0,0,0,0,480,
scooby_state_4c4241|9|1 316,0,83,16,3,0,1,11,6,3,26,1,1,7,6,480,
scooby_state_59cdf2|40|3 330,132,3,4,1,0,2,0,0,2,1,1,0,1,2,479,
scooby_state_59cdcf|62|-1 0,1,0,0,0,0,0,0,2,0,0,1,475,0,0,479,
scooby_state_5ffbe0|47|0 463,3,13,0,0,0,0,0,0,0,0,0,0,0,0,479,
scooby_state_59cdf2|23|2 9,279,1,4,1,0,0,0,0,1,0,179,0,3,1,478,
scooby_state_59d4d1|39|0 425,5,1,6,1,2,4,4,0,2,1,4,7,1,15,478,
scooby_state_59cdcf|49|-1 0,1,0,1,0,0,0,1,0,0,0,0,475,0,0,478,
scooby_state_59d4e0|51|1 326,55,3,4,1,5,4,0,2,0,0,3,4,4,66,477,
scooby_state_59cd89|16|1 476,0,1,0,0,0,0,0,0,0,0,0,0,0,0,477,
scooby_state_4c1344|13|1 12,462,0,0,0,0,0,0,1,1,0,0,0,0,0,476,
scooby_state_4c5302|12|0 1,0,471,0,0,0,0,0,1,0,1,0,0,0,1,475,
scooby_state_59cd8d|34|0 449,20,0,1,0,0,0,0,0,0,1,2,0,1,1,475,
scooby_state_59d4d1|54|1 373,48,4,2,3,5,5,2,4,0,2,6,0,5,16,475,
scooby_state_59cdee|32|1 107,1,2,2,0,1,0,0,0,2,0,0,1,2,357,475,
scooby_state_59d4e0|27|1 316,97,4,1,1,0,1,1,2,1,4,1,2,3,40,474,
scooby_state_59d4d1|16|0 450,3,0,1,0,3,2,0,1,3,1,1,0,1,8,474,
scooby_state_5bf6da|27|1 390,0,0,56,4,14,0,0,10,0,0,0,0,0,0,474,
scooby_state_4d0a50|41|0 337,122,0,0,0,0,12,0,0,1,0,2,0,0,0,474,
scooby_state_59cd89|17|1 474,0,0,0,0,0,0,0,0,0,0,0,0,0,0,474,
scooby_state_59d4e0|62|1 304,62,7,4,1,2,5,1,2,0,1,1,3,2,78,473,
scooby_state_59d4d1|22|0 429,1,2,7,0,1,2,2,2,1,0,6,3,1,15,472,
scooby_state_59d4d1|21|1 358,66,5,3,0,2,1,1,1,2,3,2,2,12,14,472,
scooby_state_59cd8d|4|-5 467,1,0,0,0,3,0,0,0,0,0,0,1,0,0,472,
scooby_state_59cdcf|3|-1 0,0,2,0,1,2,0,0,0,0,0,0,465,1,0,471,
scooby_state_59cdee|28|1 108,0,4,1,0,1,0,1,0,0,0,0,1,2,352,470,
scooby_state_59cdbf|33|0 470,0,0,0,0,0,0,0,0,0,0,0,0,0,0,470,
scooby_state_59cd89|18|1 469,0,0,0,0,0,0,0,0,0,0,0,0,0,0,469,
scooby_state_51370e|28|1 467,0,0,0,0,0,0,0,0,0,0,1,0,0,0,468,
scooby_state_59cd89|19|1 465,0,0,0,0,0,0,0,0,0,0,1,0,1,0,467,
scooby_state_59cdb0|15|1 354,0,2,1,0,0,0,0,0,0,0,0,1,0,109,467,
scooby_state_59cd89|20|1 464,0,0,0,0,0,0,0,0,0,0,0,0,0,0,464,
scooby_state_4d0c02|48|1 406,16,1,31,7,0,0,0,0,0,1,0,0,1,0,463,
scooby_state_59cdcf|50|-1 0,1,0,0,1,0,0,0,0,0,1,0,459,0,1,463,
scooby_state_59cd89|21|1 462,0,0,0,0,0,0,0,0,0,0,0,0,0,1,463,
scooby_state_59eb3b|6|0 183,1,62,37,14,1,1,11,20,15,17,30,17,21,33,463,
scooby_state_59d4d1|43|1 357,57,4,0,4,3,1,2,2,2,5,1,2,9,13,462,
scooby_state_4cdb01|44|1 378,0,0,0,0,77,1,0,0,1,0,1,0,1,3,462,
scooby_state_59d4e0|29|1 366,47,2,4,0,0,0,1,1,2,3,1,2,3,29,461,
scooby_state_59cd89|23|1 461,0,0,0,0,0,0,0,0,0,0,0,0,0,0,461,
scooby_state_4968a0|56|0 461,0,0,0,0,0,0,0,0,0,0,0,0,0,0,461,
[...]
scooby_state_7b2fc7|3|-49 1,0,0,0,0,0,0,0,0,0,0,0,0,0,0,1,
scooby_state_7b5749|54|9 1,0,0,0,0,0,0,0,0,0,0,0,0,0,0,1,
scooby_state_7b31c0|7|1 1,0,0,0,0,0,0,0,0,0,0,0,0,0,0,1,
scooby_state_5ffe83|33|-2 1,0,0,0,0,0,0,0,0,0,0,0,0,0,0,1,
scooby_state_600265|19|2 1,0,0,0,0,0,0,0,0,0,0,0,0,0,0,1,
scooby_state_688869|30|1 1,0,0,0,0,0,0,0,0,0,0,0,0,0,0,1,
scooby_state_7b2fc7|28|18 1,0,0,0,0,0,0,0,0,0,0,0,0,0,0,1,
scooby_state_59cdf2|55|13 0,1,0,0,0,0,0,0,0,0,0,0,0,0,0,1,
scooby_state_7b372c|12|0 1,0,0,0,0,0,0,0,0,0,0,0,0,0,0,1,
scooby_state_7b2fc7|11|-19 1,0,0,0,0,0,0,0,0,0,0,0,0,0,0,1,
scooby_state_600288|34|-3 1,0,0,0,0,0,0,0,0,0,0,0,0,0,0,1,
scooby_state_600272|6|-1 0,1,0,0,0,0,0,0,0,0,0,0,0,0,0,1,
scooby_state_7b5749|16|6 1,0,0,0,0,0,0,0,0,0,0,0,0,0,0,1,
scooby_state_59d4d1|0|-48 1,0,0,0,0,0,0,0,0,0,0,0,0,0,0,1,
scooby_state_7b2fc7|50|35 0,1,0,0,0,0,0,0,0,0,0,0,0,0,0,1,
scooby_state_59eb38|54|-3 0,1,0,0,0,0,0,0,0,0,0,0,0,0,0,1,
scooby_state_4d0bf8|11|-4 1,0,0,0,0,0,0,0,0,0,0,0,0,0,0,1,
scooby_state_5d7678|24|-32 1,0,0,0,0,0,0,0,0,0,0,0,0,0,0,1,
scooby_state_5ffe83|36|0 0,0,0,0,0,1,0,0,0,0,0,0,0,0,0,1,
scooby_state_600272|39|-19 0,1,0,0,0,0,0,0,0,0,0,0,0,0,0,1,
scooby_state_59cd8d|19|7 1,0,0,0,0,0,0,0,0,0,0,0,0,0,0,1,
scooby_state_7b1472|3|-26 1,0,0,0,0,0,0,0,0,0,0,0,0,0,0,1,
scooby_state_7b2fc7|40|-19 1,0,0,0,0,0,0,0,0,0,0,0,0,0,0,1,
scooby_state_64c594|63|21 1,0,0,0,0,0,0,0,0,0,0,0,0,0,0,1,
scooby_state_7b34e8|52|35 1,0,0,0,0,0,0,0,0,0,0,0,0,0,0,1,
scooby_state_7b2fc7|15|-44 1,0,0,0,0,0,0,0,0,0,0,0,0,0,0,1,
scooby_state_7b1472|34|-2 1,0,0,0,0,0,0,0,0,0,0,0,0,0,0,1,
scooby_state_59f224|29|19 1,0,0,0,0,0,0,0,0,0,0,0,0,0,0,1,
scooby_state_59f242|30|3 0,0,0,1,0,0,0,0,0,0,0,0,0,0,0,1,
scooby_state_600ce6|14|3 0,1,0,0,0,0,0,0,0,0,0,0,0,0,0,1,
scooby_state_5010bb|0|-39 1,0,0,0,0,0,0,0,0,0,0,0,0,0,0,1,
scooby_state_59cd89|53|0 1,0,0,0,0,0,0,0,0,0,0,0,0,0,0,1,
scooby_state_7b2fc7|14|-18 0,1,0,0,0,0,0,0,0,0,0,0,0,0,0,1,
scooby_state_7b1485|52|2 0,0,0,0,0,0,0,0,0,0,0,0,0,1,0,1,
scooby_state_688869|62|0 0,1,0,0,0,0,0,0,0,0,0,0,0,0,0,1,
scooby_state_4d0bf8|37|-3 1,0,0,0,0,0,0,0,0,0,0,0,0,0,0,1,
scooby_state_600261|37|22 1,0,0,0,0,0,0,0,0,0,0,0,0,0,0,1,
scooby_state_7b5749|6|5 1,0,0,0,0,0,0,0,0,0,0,0,0,0,0,1,
scooby_state_7b2fc7|45|-10 1,0,0,0,0,0,0,0,0,0,0,0,0,0,0,1,
scooby_state_7b5749|26|4 0,1,0,0,0,0,0,0,0,0,0,0,0,0,0,1,
scooby_state_5ffe83|59|42 0,0,0,0,0,0,0,0,0,0,0,1,0,0,0,1,
scooby_state_688b8a|53|-2 1,0,0,0,0,0,0,0,0,0,0,0,0,0,0,1,
scooby_state_7b34e8|25|9 1,0,0,0,0,0,0,0,0,0,0,0,0,0,0,1,
scooby_state_7b1aff|37|-9 1,0,0,0,0,0,0,0,0,0,0,0,0,0,0,1,
scooby_state_688b8a|12|0 1,0,0,0,0,0,0,0,0,0,0,0,0,0,0,1,
scooby_state_7b3898|41|11 1,0,0,0,0,0,0,0,0,0,0,0,0,0,0,1,
scooby_state_507801|32|1 0,0,0,0,0,0,0,0,1,0,0,0,0,0,0,1,
scooby_state_52f96d|15|-40 0,1,0,0,0,0,0,0,0,0,0,0,0,0,0,1,
scooby_state_5ffa8e|12|0 1,0,0,0,0,0,0,0,0,0,0,0,0,0,0,1,
scooby_state_7b1aff|10|0 1,0,0,0,0,0,0,0,0,0,0,0,0,0,0,1,
scooby_state_59d4d1|19|-32 1,0,0,0,0,0,0,0,0,0,0,0,0,0,0,1,
scooby_state_4cd692|51|51 1,0,0,0,0,0,0,0,0,0,0,0,0,0,0,1,
scooby_state_7b1472|28|14 1,0,0,0,0,0,0,0,0,0,0,0,0,0,0,1,
scooby_state_7b2fc7|21|10 1,0,0,0,0,0,0,0,0,0,0,0,0,0,0,1,
scooby_state_59cdf2|33|-10 1,0,0,0,0,0,0,0,0,0,0,0,0,0,0,1,
scooby_state_60040f|3|3 1,0,0,0,0,0,0,0,0,0,0,0,0,0,0,1,
scooby_state_4c20d7|61|0 0,0,1,0,0,0,0,0,0,0,0,0,0,0,0,1,
scooby_state_59cdbf|38|17 1,0,0,0,0,0,0,0,0,0,0,0,0,0,0,1,
scooby_state_600265|60|3 1,0,0,0,0,0,0,0,0,0,0,0,0,0,0,1,
scooby_state_7b1472|58|28 1,0,0,0,0,0,0,0,0,0,0,0,0,0,0,1,
scooby_state_59cdbf|26|5 1,0,0,0,0,0,0,0,0,0,0,0,0,0,0,1,
scooby_state_59cd8d|44|18 1,0,0,0,0,0,0,0,0,0,0,0,0,0,0,1,
scooby_state_5beaae|1|1 0,1,0,0,0,0,0,0,0,0,0,0,0,0,0,1,
scooby_state_7b34e8|25|12 1,0,0,0,0,0,0,0,0,0,0,0,0,0,0,1,
scooby_state_7b35cf|3|-2 1,0,0,0,0,0,0,0,0,0,0,0,0,0,0,1,
scooby_state_7b31c0|7|5 1,0,0,0,0,0,0,0,0,0,0,0,0,0,0,1,
scooby_state_4d07a9|17|6 1,0,0,0,0,0,0,0,0,0,0,0,0,0,0,1,
scooby_state_64c591|14|3 1,0,0,0,0,0,0,0,0,0,0,0,0,0,0,1,
scooby_state_4c2395|4|-12 1,0,0,0,0,0,0,0,0,0,0,0,0,0,0,1,
scooby_state_4bc2b0|10|0 1,0,0,0,0,0,0,0,0,0,0,0,0,0,0,1,
scooby_state_59cdbf|11|-35 1,0,0,0,0,0,0,0,0,0,0,0,0,0,0,1,
scooby_state_5fff83|5|-2 1,0,0,0,0,0,0,0,0,0,0,0,0,0,0,1,
scooby_state_67b4c7|11|5 1,0,0,0,0,0,0,0,0,0,0,0,0,0,0,1,
scooby_state_59d4e0|16|-22 0,1,0,0,0,0,0,0,0,0,0,0,0,0,0,1,
scooby_state_5ffe83|26|18 1,0,0,0,0,0,0,0,0,0,0,0,0,0,0,1,
scooby_state_7b372c|34|0 1,0,0,0,0,0,0,0,0,0,0,0,0,0,0,1,
scooby_state_7b3054|15|1 0,1,0,0,0,0,0,0,0,0,0,0,0,0,0,1,
scooby_state_59eb38|34|-8 0,0,0,0,0,0,0,0,0,0,0,1,0,0,0,1,
scooby_state_64d8e0|30|0 0,0,0,0,0,1,0,0,0,0,0,0,0,0,0,1,
scooby_state_600288|39|-1 1,0,0,0,0,0,0,0,0,0,0,0,0,0,0,1,
scooby_state_600288|51|-1 1,0,0,0,0,0,0,0,0,0,0,0,0,0,0,1,
scooby_state_7b2fc7|14|9 1,0,0,0,0,0,0,0,0,0,0,0,0,0,0,1,
scooby_state_7b2fc7|29|19 1,0,0,0,0,0,0,0,0,0,0,0,0,0,0,1,
scooby_state_5ffe83|20|-11 1,0,0,0,0,0,0,0,0,0,0,0,0,0,0,1,
scooby_state_5ffe83|49|-2 1,0,0,0,0,0,0,0,0,0,0,0,0,0,0,1,
scooby_state_7b5749|32|-12 0,0,0,0,0,0,0,0,0,0,0,1,0,0,0,1,
scooby_state_7b14d8|5|-14 0,0,1,0,0,0,0,0,0,0,0,0,0,0,0,1,
scooby_state_5ffa8e|16|0 1,0,0,0,0,0,0,0,0,0,0,0,0,0,0,1,
scooby_state_7b2fc7|10|-28 1,0,0,0,0,0,0,0,0,0,0,0,0,0,0,1,
scooby_state_7b34e8|61|7 0,0,0,0,0,0,0,0,0,0,0,0,0,1,0,1,
scooby_state_600272|57|12 1,0,0,0,0,0,0,0,0,0,0,0,0,0,0,1,
scooby_state_600265|57|47 1,0,0,0,0,0,0,0,0,0,0,0,0,0,0,1,
scooby_state_4c081d|15|0 1,0,0,0,0,0,0,0,0,0,0,0,0,0,0,1,
scooby_state_7b14d8|29|29 1,0,0,0,0,0,0,0,0,0,0,0,0,0,0,1,
scooby_state_688b8a|10|-2 1,0,0,0,0,0,0,0,0,0,0,0,0,0,0,1,
scooby_state_4c1d1c|4|-7 1,0,0,0,0,0,0,0,0,0,0,0,0,0,0,1,
scooby_state_600255|61|-1 0,1,0,0,0,0,0,0,0,0,0,0,0,0,0,1,
scooby_state_410e5d|17|1 0,0,0,1,0,0,0,0,0,0,0,0,0,0,0,1,
scooby_state_67bbbd|11|7 1,0,0,0,0,0,0,0,0,0,0,0,0,0,0,1,
scooby_state_7b1476|26|0 1,0,0,0,0,0,0,0,0,0,0,0,0,0,0,1,
scooby_state_59cd8d|58|-2 1,0,0,0,0,0,0,0,0,0,0,0,0,0,0,1,
scooby_state_7b1aff|41|-12 1,0,0,0,0,0,0,0,0,0,0,0,0,0,0,1,
scooby_state_60026e|0|-15 0,1,0,0,0,0,0,0,0,0,0,0,0,0,0,1,
scooby_state_4be569|60|54 1,0,0,0,0,0,0,0,0,0,0,0,0,0,0,1,
scooby_state_679694|63|34 0,1,0,0,0,0,0,0,0,0,0,0,0,0,0,1,
scooby_state_64d911|29|0 0,1,0,0,0,0,0,0,0,0,0,0,0,0,0,1,
scooby_state_5c85b0|45|1 0,0,1,0,0,0,0,0,0,0,0,0,0,0,0,1,
scooby_state_5bfc3d|56|1 1,0,0,0,0,0,0,0,0,0,0,0,0,0,0,1,
scooby_state_5ffa8e|12|6 1,0,0,0,0,0,0,0,0,0,0,0,0,0,0,1,
scooby_state_600272|16|10 0,1,0,0,0,0,0,0,0,0,0,0,0,0,0,1,
scooby_state_59f224|32|30 1,0,0,0,0,0,0,0,0,0,0,0,0,0,0,1,
scooby_state_7b2fc7|30|11 1,0,0,0,0,0,0,0,0,0,0,0,0,0,0,1,
scooby_state_7b1aff|1|-10 0,1,0,0,0,0,0,0,0,0,0,0,0,0,0,1,
scooby_state_59cdb0|39|-10 0,0,0,0,0,0,0,0,0,0,0,0,0,0,1,1,
scooby_state_7b2fc7|33|26 1,0,0,0,0,0,0,0,0,0,0,0,0,0,0,1,
scooby_state_7b1472|16|0 1,0,0,0,0,0,0,0,0,0,0,0,0,0,0,1,
scooby_state_59cdee|47|17 0,1,0,0,0,0,0,0,0,0,0,0,0,0,0,1,
scooby_state_406cd0|16|10 1,0,0,0,0,0,0,0,0,0,0,0,0,0,0,1,
scooby_state_7b34e8|56|23 0,1,0,0,0,0,0,0,0,0,0,0,0,0,0,1,
scooby_state_64d93e|36|0 1,0,0,0,0,0,0,0,0,0,0,0,0,0,0,1,
scooby_state_688b8a|50|-2 1,0,0,0,0,0,0,0,0,0,0,0,0,0,0,1,
scooby_state_7b2fc7|29|-13 0,1,0,0,0,0,0,0,0,0,0,0,0,0,0,1,
scooby_state_7b1472|55|49 1,0,0,0,0,0,0,0,0,0,0,0,0,0,0,1,
scooby_state_7b2fc7|5|-12 0,0,0,0,0,0,1,0,0,0,0,0,0,0,0,1,
scooby_state_7b1472|8|0 1,0,0,0,0,0,0,0,0,0,0,0,0,0,0,1,
scooby_state_600272|54|-2 1,0,0,0,0,0,0,0,0,0,0,0,0,0,0,1,
scooby_state_7b378a|30|1 1,0,0,0,0,0,0,0,0,0,0,0,0,0,0,1,
scooby_state_64da39|7|-1 1,0,0,0,0,0,0,0,0,0,0,0,0,0,0,1,
scooby_state_600288|28|0 1,0,0,0,0,0,0,0,0,0,0,0,0,0,0,1,
scooby_state_59f224|36|-22 1,0,0,0,0,0,0,0,0,0,0,0,0,0,0,1,
scooby_state_7b5749|55|54 0,0,0,0,0,0,0,0,0,0,0,1,0,0,0,1,
scooby_state_68864c|52|0 1,0,0,0,0,0,0,0,0,0,0,0,0,0,0,1,
scooby_state_59f224|55|0 1,0,0,0,0,0,0,0,0,0,0,0,0,0,0,1,
scooby_state_4c0c72|3|-3 1,0,0,0,0,0,0,0,0,0,0,0,0,0,0,1,
scooby_state_5ffa8e|59|0 1,0,0,0,0,0,0,0,0,0,0,0,0,0,0,1,
scooby_state_59eb38|54|54 0,0,1,0,0,0,0,0,0,0,0,0,0,0,0,1,
scooby_state_5bfc3d|42|1 0,0,0,0,0,1,0,0,0,0,0,0,0,0,0,1,
scooby_state_7b2fc7|15|-35 1,0,0,0,0,0,0,0,0,0,0,0,0,0,0,1,
scooby_state_600255|58|48 0,1,0,0,0,0,0,0,0,0,0,0,0,0,0,1,
scooby_state_7b2fc7|54|2 0,0,0,1,0,0,0,0,0,0,0,0,0,0,0,1,
scooby_state_5297c7|1|-1 1,0,0,0,0,0,0,0,0,0,0,0,0,0,0,1,
scooby_state_68864c|4|1 1,0,0,0,0,0,0,0,0,0,0,0,0,0,0,1,
scooby_state_5298a0|22|-36 1,0,0,0,0,0,0,0,0,0,0,0,0,0,0,1,
scooby_state_59cdb0|33|-8 0,0,0,0,0,0,0,0,0,0,0,0,0,0,1,1,
scooby_state_59cd8d|22|21 1,0,0,0,0,0,0,0,0,0,0,0,0,0,0,1,
scooby_state_7b1aff|50|38 1,0,0,0,0,0,0,0,0,0,0,0,0,0,0,1,
scooby_state_59cdcf|36|24 0,0,0,0,0,0,0,0,0,0,0,0,1,0,0,1,
scooby_state_59eb38|40|-23 0,1,0,0,0,0,0,0,0,0,0,0,0,0,0,1,
scooby_state_5fff83|44|-5 1,0,0,0,0,0,0,0,0,0,0,0,0,0,0,1,
scooby_state_5c85b0|19|1 1,0,0,0,0,0,0,0,0,0,0,0,0,0,0,1,
scooby_state_688267|23|0 1,0,0,0,0,0,0,0,0,0,0,0,0,0,0,1,
scooby_state_64da01|60|0 1,0,0,0,0,0,0,0,0,0,0,0,0,0,0,1,
scooby_state_7b2fc7|34|11 1,0,0,0,0,0,0,0,0,0,0,0,0,0,0,1,
scooby_state_4bde1d|35|29 1,0,0,0,0,0,0,0,0,0,0,0,0,0,0,1,
scooby_state_4cdb31|14|5 1,0,0,0,0,0,0,0,0,0,0,0,0,0,0,1,
scooby_state_4d0bf8|28|12 1,0,0,0,0,0,0,0,0,0,0,0,0,0,0,1,
scooby_state_600288|27|-22 1,0,0,0,0,0,0,0,0,0,0,0,0,0,0,1,
scooby_state_7b2fc7|50|3 1,0,0,0,0,0,0,0,0,0,0,0,0,0,0,1,
scooby_state_7b2fc7|49|-4 0,0,0,0,0,0,0,1,0,0,0,0,0,0,0,1,
scooby_state_7b2fc7|36|7 1,0,0,0,0,0,0,0,0,0,0,0,0,0,0,1,
scooby_state_59cd9b|8|2 0,1,0,0,0,0,0,0,0,0,0,0,0,0,0,1,
scooby_state_64d911|5|0 0,1,0,0,0,0,0,0,0,0,0,0,0,0,0,1,
scooby_state_49692f|33|-21 0,1,0,0,0,0,0,0,0,0,0,0,0,0,0,1,
scooby_state_688b8a|23|-2 1,0,0,0,0,0,0,0,0,0,0,0,0,0,0,1,
scooby_state_5ffa8e|49|-11 1,0,0,0,0,0,0,0,0,0,0,0,0,0,0,1,
scooby_state_5ffe83|57|3 1,0,0,0,0,0,0,0,0,0,0,0,0,0,0,1,
scooby_state_59f224|50|-5 1,0,0,0,0,0,0,0,0,0,0,0,0,0,0,1,
scooby_state_5c85b0|47|1 1,0,0,0,0,0,0,0,0,0,0,0,0,0,0,1,
scooby_state_5bf57b|28|0 0,1,0,0,0,0,0,0,0,0,0,0,0,0,0,1,
scooby_state_5ffee7|56|56 1,0,0,0,0,0,0,0,0,0,0,0,0,0,0,1,
scooby_state_7b2fc7|40|14 1,0,0,0,0,0,0,0,0,0,0,0,0,0,0,1,
scooby_state_4f6c7e|10|-17 1,0,0,0,0,0,0,0,0,0,0,0,0,0,0,1,
scooby_state_4d083b|25|-38 0,0,0,0,1,0,0,0,0,0,0,0,0,0,0,1,
scooby_state_688267|57|1 0,1,0,0,0,0,0,0,0,0,0,0,0,0,0,1,
scooby_state_7b2fc7|17|-42 0,0,1,0,0,0,0,0,0,0,0,0,0,0,0,1,
scooby_state_59cd9b|23|16 0,1,0,0,0,0,0,0,0,0,0,0,0,0,0,1,
scooby_state_7b2fc7|10|-19 1,0,0,0,0,0,0,0,0,0,0,0,0,0,0,1,
scooby_state_4d07a9|17|4 1,0,0,0,0,0,0,0,0,0,0,0,0,0,0,1,
scooby_state_64d6d7|11|0 1,0,0,0,0,0,0,0,0,0,0,0,0,0,0,1,
scooby_state_688b8a|59|-1 0,1,0,0,0,0,0,0,0,0,0,0,0,0,0,1,
scooby_state_64d8e4|22|-38 1,0,0,0,0,0,0,0,0,0,0,0,0,0,0,1,
scooby_state_688a2a|58|42 1,0,0,0,0,0,0,0,0,0,0,0,0,0,0,1,
scooby_state_4d0bf4|58|-4 1,0,0,0,0,0,0,0,0,0,0,0,0,0,0,1,
scooby_state_7b34e8|30|8 1,0,0,0,0,0,0,0,0,0,0,0,0,0,0,1,
scooby_state_59eb2f|60|50 1,0,0,0,0,0,0,0,0,0,0,0,0,0,0,1,
scooby_state_64d93e|22|0 1,0,0,0,0,0,0,0,0,0,0,0,0,0,0,1,
scooby_state_49692f|4|-8 1,0,0,0,0,0,0,0,0,0,0,0,0,0,0,1,
scooby_state_7b1aff|38|1 0,0,0,0,0,1,0,0,0,0,0,0,0,0,0,1,
scooby_state_4d0bf8|45|0 1,0,0,0,0,0,0,0,0,0,0,0,0,0,0,1,
scooby_state_64d96b|63|0 1,0,0,0,0,0,0,0,0,0,0,0,0,0,0,1,
scooby_state_7b1472|1|0 1,0,0,0,0,0,0,0,0,0,0,0,0,0,0,1,
scooby_state_7b1485|54|1 1,0,0,0,0,0,0,0,0,0,0,0,0,0,0,1,
scooby_state_5010d5|19|19 1,0,0,0,0,0,0,0,0,0,0,0,0,0,0,1,
scooby_state_6003ee|0|0 1,0,0,0,0,0,0,0,0,0,0,0,0,0,0,1,
scooby_state_7b5749|30|4 0,1,0,0,0,0,0,0,0,0,0,0,0,0,0,1,
scooby_state_7b14d8|41|12 0,0,1,0,0,0,0,0,0,0,0,0,0,0,0,1,
scooby_state_5010d5|58|58 1,0,0,0,0,0,0,0,0,0,0,0,0,0,0,1,
scooby_state_688b8a|2|-3 1,0,0,0,0,0,0,0,0,0,0,0,0,0,0,1,
scooby_state_4bde1d|29|19 1,0,0,0,0,0,0,0,0,0,0,0,0,0,0,1,
scooby_state_60025d|15|1 0,0,0,1,0,0,0,0,0,0,0,0,0,0,0,1,
scooby_state_5ffe83|51|40 0,0,0,0,0,0,0,0,0,0,0,0,0,0,1,1,
scooby_state_688a2a|63|63 1,0,0,0,0,0,0,0,0,0,0,0,0,0,0,1,
scooby_state_600272|55|-4 0,1,0,0,0,0,0,0,0,0,0,0,0,0,0,1,
scooby_state_59f224|36|-23 1,0,0,0,0,0,0,0,0,0,0,0,0,0,0,1,
scooby_state_59cdcf|24|24 0,1,0,0,0,0,0,0,0,0,0,0,0,0,0,1,
scooby_state_688a2a|26|0 1,0,0,0,0,0,0,0,0,0,0,0,0,0,0,1,
scooby_state_59cdee|18|12 0,0,0,0,0,0,0,0,0,0,0,0,0,0,1,1,
scooby_state_600255|61|6 1,0,0,0,0,0,0,0,0,0,0,0,0,0,0,1,
scooby_state_60040f|15|12 1,0,0,0,0,0,0,0,0,0,0,0,0,0,0,1,
scooby_state_5c85b0|6|1 0,0,0,1,0,0,0,0,0,0,0,0,0,0,0,1,
scooby_state_7b2fc7|9|-2 1,0,0,0,0,0,0,0,0,0,0,0,0,0,0,1,
scooby_state_7b1476|37|1 1,0,0,0,0,0,0,0,0,0,0,0,0,0,0,1,
scooby_state_7b50b9|0|-38 1,0,0,0,0,0,0,0,0,0,0,0,0,0,0,1,
scooby_state_59cd8d|46|19 1,0,0,0,0,0,0,0,0,0,0,0,0,0,0,1,
scooby_state_7b5749|17|4 1,0,0,0,0,0,0,0,0,0,0,0,0,0,0,1,

scooby_action_0_deg_dist 0,59165,0,0,0,0,0,0,0,0,0,0,0,0,0,0,
scooby_action_-6_deg_dist 0,5132,1,0,0,0,0,0,0,0,0,0,0,0,0,0,
scooby_action_4_deg_dist 0,25970,209,0,0,0,0,0,0,0,0,0,0,0,0,0,
scooby_action_1_deg_dist 0,928014,112764,0,55984,0,32200,0,0,0,0,0,0,0,0,0,
scooby_action_30_deg_dist 0,3991,0,0,0,0,0,0,0,0,0,0,0,0,0,0,
scooby_action_5_deg_dist 0,19609,84,0,101,0,322,0,0,0,0,0,0,0,0,0,
scooby_action_3_deg_dist 0,472618,25760,0,13707,0,2309,0,0,0,0,0,0,0,0,0,
scooby_action_32_deg_dist 0,4020,1,0,0,0,0,0,0,0,0,0,0,0,0,0,
scooby_action_10_deg_dist 0,7159,2,0,0,0,0,0,0,0,0,0,0,0,0,0,
scooby_action_11_deg_dist 0,9750,58,0,128,0,420,0,0,0,0,0,0,0,0,0,
scooby_action_12_deg_dist 0,6404,0,0,0,0,0,0,0,0,0,0,0,0,0,0,
scooby_action_22_deg_dist 0,3693,1,0,0,0,0,0,0,0,0,0,0,0,0,0,
scooby_action_23_deg_dist 0,2888,0,0,0,0,0,0,0,0,0,0,0,0,0,0,
scooby_action_-1_deg_dist 0,23976,129,0,17,0,0,0,0,0,0,0,0,0,0,0,
scooby_action_-3_deg_dist 0,88629,11,0,15,0,40,0,0,0,0,0,0,0,0,0,

scooby_track_called 1905281
scooby_track_same_address 262446
scooby_track_evict 1642579

scooby_reward_demand_called 1905281
scooby_reward_demand_pt_not_found 1218037
scooby_reward_demand_pt_found 687244
scooby_reward_demand_pt_found_total 687244
scooby_reward_demand_has_reward 4168
scooby_reward_train_called 908150
scooby_reward_assign_reward_called 1642686
scooby_reward_no_pref 59153
scooby_reward_incorrect 848997
scooby_reward_correct_untimely 364057
scooby_reward_correct_timely 319019
scooby_reward_out_of_bounds 51460
scooby_reward_tracker_hit 0

scooby_reward_none_low_bw 59153
scooby_reward_none_high_bw 0
scooby_reward_incorrect_low_bw 848997
scooby_reward_incorrect_high_bw 0
scooby_reward_correct_untimely_low_bw 364057
scooby_reward_correct_untimely_high_bw 0
scooby_reward_correct_timely_low_bw 319019
scooby_reward_correct_timely_high_bw 0
scooby_reward_out_of_bounds_low_bw 51460
scooby_reward_out_of_bounds_high_bw 0
scooby_reward_tracker_hit_low_bw 0
scooby_reward_tracker_hit_high_bw 0

scooby_reward_1 0,525087,260784,141374,16140,0,
scooby_reward_3 0,214767,88116,142458,20815,0,
scooby_reward_4 0,13362,4367,1479,879,0,
scooby_reward_5 0,12126,3328,1840,1076,0,
scooby_reward_10 0,4813,689,469,820,0,
scooby_reward_11 0,5902,1613,688,1481,0,
scooby_reward_12 0,3942,942,155,914,0,
scooby_reward_22 0,2170,132,129,1119,0,
scooby_reward_23 0,1730,15,35,1006,0,
scooby_reward_30 0,1927,157,245,1531,0,
scooby_reward_32 0,1865,322,87,1565,0,
scooby_reward_-1 0,7642,1517,796,209,0,
scooby_reward_-3 0,50290,1774,29157,3401,0,
scooby_reward_-6 0,3374,301,107,504,0,
scooby_reward_0 59153,0,0,0,0,0,

scooby_train_called 1642578
scooby_train_compute_reward 908150

scooby_register_fill_called 1102978
scooby_register_fill_set 933026
scooby_register_fill_set_total 933026

scooby_register_prefetch_hit_called 591233
scooby_register_prefetch_hit_set 410277
scooby_register_prefetch_hit_set_total 410277

scooby_pref_issue_scooby 1958003

learning_engine_featurewise.action.called 1905281
learning_engine_featurewise.action.explore 3485
learning_engine_featurewise.action.exploit 1901796
learning_engine_featurewise.action.fallback 86163
learning_engine_featurewise.action.dyn_fallback_saved_bw 0
learning_engine_featurewise.action.dyn_fallback_saved_bw_acc 232404
learning_engine_featurewise.action.index_1_explored 222
learning_engine_featurewise.action.index_1_exploited 1128740
learning_engine_featurewise.action.index_3_explored 249
learning_engine_featurewise.action.index_3_exploited 514145
learning_engine_featurewise.action.index_4_explored 238
learning_engine_featurewise.action.index_4_exploited 25941
learning_engine_featurewise.action.index_5_explored 224
learning_engine_featurewise.action.index_5_exploited 19892
learning_engine_featurewise.action.index_10_explored 263
learning_engine_featurewise.action.index_10_exploited 6898
learning_engine_featurewise.action.index_11_explored 224
learning_engine_featurewise.action.index_11_exploited 10132
learning_engine_featurewise.action.index_12_explored 234
learning_engine_featurewise.action.index_12_exploited 6170
learning_engine_featurewise.action.index_22_explored 244
learning_engine_featurewise.action.index_22_exploited 3450
learning_engine_featurewise.action.index_23_explored 238
learning_engine_featurewise.action.index_23_exploited 2650
learning_engine_featurewise.action.index_30_explored 224
learning_engine_featurewise.action.index_30_exploited 3767
learning_engine_featurewise.action.index_32_explored 198
learning_engine_featurewise.action.index_32_exploited 3823
learning_engine_featurewise.action.index_-1_explored 235
learning_engine_featurewise.action.index_-1_exploited 23887
learning_engine_featurewise.action.index_-3_explored 237
learning_engine_featurewise.action.index_-3_exploited 88458
learning_engine_featurewise.action.index_-6_explored 222
learning_engine_featurewise.action.index_-6_exploited 4911
learning_engine_featurewise.action.index_0_explored 233
learning_engine_featurewise.action.index_0_exploited 58932
learning_engine_featurewise.learn.called 1642578
learning_engine_featurewise.learn.su_skip_PC 0
learning_engine_featurewise.learn.su_skip_PC_Delta 0

learning_engine_featurewise.q_value_histogram.bucket_0 15212
learning_engine_featurewise.q_value_histogram.bucket_1 20206
learning_engine_featurewise.q_value_histogram.bucket_2 227628
learning_engine_featurewise.q_value_histogram.bucket_3 247032
learning_engine_featurewise.q_value_histogram.bucket_4 491001
learning_engine_featurewise.q_value_histogram.bucket_5 283035
learning_engine_featurewise.q_value_histogram.bucket_6 617682
learning_engine_featurewise.q_value_histogram.bucket_7 0

learning_engine_featurewise.consensus.total 1901796
learning_engine_featurewise.consensus.feature_align_PC 1483833
learning_engine_featurewise.consensus.feature_align_PC_ratio 0.78
learning_engine_featurewise.consensus.feature_align_PC_Delta 1514664
learning_engine_featurewise.consensus.feature_align_PC_Delta_ratio 0.80
learning_engine_featurewise.consensus.feature_align_all 1120957
learning_engine_featurewise.consensus.feature_align_all_ratio 0.59

learning_engine_featurewise.feature_PC_min_weight 1000000.00000000
learning_engine_featurewise.feature_PC_max_weight 0.00000000
learning_engine_featurewise.feature_PC_Delta_min_weight 1000000.00000000
learning_engine_featurewise.feature_PC_Delta_max_weight 0.00000000
unique_pcs 1870
unique_pages 10855
unique_trigger_pcs 848
total_bitmaps_seen 0
unique_bitmaps_seen 0

scooby_bw_epochs 614301
scooby_bw_level_0 403412
scooby_bw_level_1 197363
scooby_bw_level_2 13322
scooby_bw_level_3 204

scooby_ipc_epochs 0
scooby_ipc_level_0 0
scooby_ipc_level_1 0
scooby_ipc_level_2 0
scooby_ipc_level_3 0

scooby_cache_acc_epochs 128311
scooby_cache_acc_level_0 16017
scooby_cache_acc_level_1 17379
scooby_cache_acc_level_2 33964
scooby_cache_acc_level_3 31433
scooby_cache_acc_level_4 15190
scooby_cache_acc_level_5 7245
scooby_cache_acc_level_6 3539
scooby_cache_acc_level_7 1597
scooby_cache_acc_level_8 725
scooby_cache_acc_level_9 1222

Channel_0_RQ_row_buffer_hit 789291
Channel_0_RQ_row_buffer_miss 335811
Channel_0_WQ_row_buffer_hit 1009
Channel_0_WQ_row_buffer_miss 6759
Channel_0_WQ_full 0
Channel_0_dbus_congested 455550

avg_congested_cycle 8

DRAM_bw_pochs 614301
DRAM_bw_level_0 403412
DRAM_bw_level_1 197363
DRAM_bw_level_2 13322
DRAM_bw_level_3 204
