*************************************************
   ChampSim Multicore Out-of-Order Simulator
   Last compiled: Apr  3 2025 20:54:34
*************************************************
parsing config file: /home/zir/Pythia/config/pythia.ini

trace_0 /home/zir/ChampSim/ML-DPC/ChampSimTraces/spec17/649.fotonik3d-s1.trace.xz
adding L2C_PREFETCHER: Scooby
Initialize SHIP state
warmup_instructions 10000000
simulation_instructions 50000000
champsim_seed 164
measure_ipc 0
measure_ipc_epoch 1000
measure_dram_bw 1
measure_dram_bw_epoch 256
measure_cache_acc 1
measure_cache_acc_epoch 1024
l1d_perfect 0
l2c_perfect 0
llc_perfect 0
l1d_semi_perfect 0
l2c_semi_perfect 0
llc_semi_perfect 0
semi_perfect_cache_page_buffer_size 64

num_cpus 1
cpu_freq 4000
dram_io_freq 2400
page_size 4096
block_size 64
max_read_per_cycle 8
max_fill_per_cycle 1
dram_channels 1
log2_dram_channels 0
dram_ranks 1
dram_banks 8
dram_rows 65536
dram_columns 128
dram_row_size 8
dram_size 4096
dram_pages 1048576

fetch_width 6
decode_width 6
exec_width 4
lq_width 2
sq_width 2
retire_width 4
scheduler_size 128
branch_mispredict_penalty 20
rob_size 256
lq_size 72
sq_size 56
num_instr_destinations_sparc 4
num_instr_destinations 2
num_instr_sources 4

itlb_set 16
itlb_way 8
itlb_rq_size 16
itlb_wq_size 16
itlb_pq_size 0
itlb_mshr_size 8
itlb_latency 1

dtlb_set 16
dtlb_way 4
dtlb_rq_size 16
dtlb_wq_size 16
dtlb_pq_size 0
dtlb_mshr_size 8
dtlb_latency 1

stlb_set 128
stlb_way 12
stlb_rq_size 32
stlb_wq_size 32
stlb_pq_size 0
stlb_mshr_size 16
stlb_latency 8

l1i_size 32
l1i_set 64
l1i_way 8
l1i_rq_size 64
l1i_wq_size 64
l1i_pq_size 8
l1i_mshr_size 8
l1i_latency 1

l1d_size 32
l1d_set 64
l1d_way 8
l1d_rq_size 64
l1d_wq_size 64
l1d_pq_size 8
l1d_mshr_size 16
l1d_latency 4

l2c_size 256
l2c_set 512
l2c_way 8
l2c_rq_size 32
l2c_wq_size 32
l2c_pq_size 32
l2c_mshr_size 32
l2c_latency 10

llc_size 2048
llc_set 2048
llc_way 16
llc_rq_size 32
llc_wq_size 32
llc_pq_size 32
llc_mshr_size 64
llc_latency 20

dram_channel_width 8
dram_wq_size 64
dram_rq_size 64
tRP 15
tRCD 15
tCAS 12.5
dram_dbus_turn_around_time 30
dram_write_high_wm 56
dram_write_low_wm 48
min_dram_writes_per_switch 16
dram_mtps 2400
dram_dbus_return_time 13

scooby_alpha 0.0065088
scooby_gamma 0.556301
scooby_epsilon 0.00182284
scooby_state_num_bits 10
scooby_max_states 1024
scooby_seed 200
scooby_policy EGreedy
scooby_learning_type SARSA
scooby_actions 1,3,4,5,10,11,12,22,23,30,32,-1,-3,-6,0,
scooby_max_actions 15
scooby_pt_size 256
scooby_st_size 64
scooby_max_pcs 5
scooby_max_offsets 5
scooby_max_deltas 5
scooby_reward_none -4
scooby_reward_incorrect -8
scooby_reward_correct_untimely 12
scooby_reward_correct_timely 20
scooby_brain_zero_init 0
scooby_enable_reward_all 0
scooby_enable_track_multiple 0
scooby_enable_reward_out_of_bounds 1
scooby_reward_out_of_bounds -12
scooby_state_type 1
scooby_state_hash_type 11
scooby_access_debug 0
scooby_print_access_debug 0
scooby_print_access_debug_pc deadbeef
scooby_print_access_debug_pc_count 0
scooby_print_trace 0
scooby_enable_state_action_stats 1
scooby_enable_reward_tracker_hit 0
scooby_reward_tracker_hit -2
scooby_enable_featurewise_engine 1
scooby_pref_degree 1
scooby_enable_dyn_degree 1
scooby_max_to_avg_q_thresholds 0.5,1,2,
scooby_dyn_degrees 1,2,4,4,
scooby_multi_deg_select_type 2
scooby_last_pref_offset_conf_thresholds 1,3,8,
scooby_dyn_degrees_type2 1,2,4,6,
scooby_action_tracker_size 2
scooby_high_bw_thresh 4
scooby_enable_hbw_reward 1
scooby_reward_hbw_correct_timely 20
scooby_reward_hbw_correct_untimely 12
scooby_reward_hbw_incorrect -14
scooby_reward_hbw_none -2
scooby_reward_hbw_out_of_bounds -12
scooby_reward_hbw_tracker_hit -2
scooby_last_pref_offset_conf_thresholds_hbw 1,3,8,
scooby_dyn_degrees_type2_hbw 1,2,4,6,

le_enable_trace 0
le_trace_interval 0
le_trace_file_name 
le_trace_state 0
le_enable_score_plot 0
le_plot_file_name 
le_plot_actions 
le_enable_action_trace 0
le_action_trace_interval 0
le_action_trace_name 
le_enable_action_plot 0

le_featurewise_active_features PC, PC_Delta
le_featurewise_num_tilings 3,3,
le_featurewise_num_tiles 128,128,
le_featurewise_hash_types 2,2,
le_featurewise_enable_tiling_offset 1,1,
le_featurewise_max_q_thresh 0.5
le_featurewise_enable_action_fallback 1
le_featurewise_feature_weights 1,1,
le_featurewise_enable_dynamic_weight 0
le_featurewise_weight_gradient 0.001
le_featurewise_disable_adjust_weight_all_features_align 1
le_featurewise_selective_update 0
le_featurewise_pooling_type 2
le_featurewise_enable_dyn_action_fallback 1
le_featurewise_bw_acc_check_level 1
le_featurewise_acc_thresh 2
le_featurewise_enable_trace 0
le_featurewise_trace_feature_type 0
le_featurewise_trace_feature 
le_featurewise_trace_interval 0
le_featurewise_trace_record_count 0
le_featurewise_trace_file_name 
le_featurewise_enable_score_plot 0
le_featurewise_plot_actions 
le_featurewise_plot_file_name 


Heartbeat CPU  0 instructions:    1000001 cycles:     430488 heartbeat IPC: 2.32295 cumulative IPC: 2.32295 (Simulation time: 0 hr 0 min 2 sec) 
Heartbeat CPU  0 instructions:    2000001 cycles:     860656 heartbeat IPC: 2.32467 cumulative IPC: 2.32381 (Simulation time: 0 hr 0 min 4 sec) 
Heartbeat CPU  0 instructions:    3000002 cycles:    1290873 heartbeat IPC: 2.32441 cumulative IPC: 2.32401 (Simulation time: 0 hr 0 min 6 sec) 
Heartbeat CPU  0 instructions:    4000000 cycles:    1721041 heartbeat IPC: 2.32467 cumulative IPC: 2.32417 (Simulation time: 0 hr 0 min 7 sec) 
Heartbeat CPU  0 instructions:    5000000 cycles:    2151120 heartbeat IPC: 2.32515 cumulative IPC: 2.32437 (Simulation time: 0 hr 0 min 9 sec) 
Heartbeat CPU  0 instructions:    6000001 cycles:    2581204 heartbeat IPC: 2.32513 cumulative IPC: 2.32450 (Simulation time: 0 hr 0 min 11 sec) 
Heartbeat CPU  0 instructions:    7000001 cycles:    3011255 heartbeat IPC: 2.32531 cumulative IPC: 2.32461 (Simulation time: 0 hr 0 min 13 sec) 
Heartbeat CPU  0 instructions:    8000000 cycles:    3441391 heartbeat IPC: 2.32484 cumulative IPC: 2.32464 (Simulation time: 0 hr 0 min 14 sec) 
Heartbeat CPU  0 instructions:    9000003 cycles:    3871531 heartbeat IPC: 2.32483 cumulative IPC: 2.32466 (Simulation time: 0 hr 0 min 16 sec) 
Heartbeat CPU  0 instructions:   10000000 cycles:    4301709 heartbeat IPC: 2.32461 cumulative IPC: 2.32466 (Simulation time: 0 hr 0 min 18 sec) 

Warmup complete CPU  0 instructions:   10000004 cycles:    4301710 (Simulation time: 0 hr 0 min 18 sec) 

Heartbeat CPU  0 instructions:   11000001 cycles:    5131817 heartbeat IPC: 1.20466 cumulative IPC: 1.20466 (Simulation time: 0 hr 0 min 20 sec) 
Heartbeat CPU  0 instructions:   12000000 cycles:    5963023 heartbeat IPC: 1.20307 cumulative IPC: 1.20386 (Simulation time: 0 hr 0 min 22 sec) 
Heartbeat CPU  0 instructions:   13000003 cycles:    6797746 heartbeat IPC: 1.19801 cumulative IPC: 1.20191 (Simulation time: 0 hr 0 min 24 sec) 
Heartbeat CPU  0 instructions:   14000000 cycles:    7632956 heartbeat IPC: 1.19730 cumulative IPC: 1.20075 (Simulation time: 0 hr 0 min 26 sec) 
Heartbeat CPU  0 instructions:   15000003 cycles:    8479883 heartbeat IPC: 1.18074 cumulative IPC: 1.19670 (Simulation time: 0 hr 0 min 28 sec) 
Heartbeat CPU  0 instructions:   16000000 cycles:    9312039 heartbeat IPC: 1.20169 cumulative IPC: 1.19753 (Simulation time: 0 hr 0 min 30 sec) 
Heartbeat CPU  0 instructions:   17000002 cycles:   10150308 heartbeat IPC: 1.19294 cumulative IPC: 1.19687 (Simulation time: 0 hr 0 min 32 sec) 
Heartbeat CPU  0 instructions:   18000003 cycles:   10990734 heartbeat IPC: 1.18987 cumulative IPC: 1.19599 (Simulation time: 0 hr 0 min 34 sec) 
Heartbeat CPU  0 instructions:   19000000 cycles:   11824023 heartbeat IPC: 1.20006 cumulative IPC: 1.19644 (Simulation time: 0 hr 0 min 36 sec) 
Heartbeat CPU  0 instructions:   20000000 cycles:   12655569 heartbeat IPC: 1.20258 cumulative IPC: 1.19705 (Simulation time: 0 hr 0 min 38 sec) 
Heartbeat CPU  0 instructions:   21000002 cycles:   13486912 heartbeat IPC: 1.20288 cumulative IPC: 1.19758 (Simulation time: 0 hr 0 min 40 sec) 
Heartbeat CPU  0 instructions:   22000002 cycles:   14324419 heartbeat IPC: 1.19402 cumulative IPC: 1.19728 (Simulation time: 0 hr 0 min 42 sec) 
Heartbeat CPU  0 instructions:   23000002 cycles:   15159537 heartbeat IPC: 1.19744 cumulative IPC: 1.19729 (Simulation time: 0 hr 0 min 44 sec) 
Heartbeat CPU  0 instructions:   24000000 cycles:   15993348 heartbeat IPC: 1.19931 cumulative IPC: 1.19744 (Simulation time: 0 hr 0 min 46 sec) 
Heartbeat CPU  0 instructions:   25000000 cycles:   16835101 heartbeat IPC: 1.18800 cumulative IPC: 1.19680 (Simulation time: 0 hr 0 min 48 sec) 
Heartbeat CPU  0 instructions:   26000000 cycles:   17676038 heartbeat IPC: 1.18915 cumulative IPC: 1.19632 (Simulation time: 0 hr 0 min 50 sec) 
Heartbeat CPU  0 instructions:   27000001 cycles:   18511259 heartbeat IPC: 1.19729 cumulative IPC: 1.19638 (Simulation time: 0 hr 0 min 52 sec) 
Heartbeat CPU  0 instructions:   28000000 cycles:   19357754 heartbeat IPC: 1.18134 cumulative IPC: 1.19553 (Simulation time: 0 hr 0 min 54 sec) 
Heartbeat CPU  0 instructions:   29000000 cycles:   20191320 heartbeat IPC: 1.19967 cumulative IPC: 1.19575 (Simulation time: 0 hr 0 min 56 sec) 
Heartbeat CPU  0 instructions:   30000002 cycles:   21023922 heartbeat IPC: 1.20106 cumulative IPC: 1.19601 (Simulation time: 0 hr 0 min 58 sec) 
Heartbeat CPU  0 instructions:   31000000 cycles:   21857563 heartbeat IPC: 1.19955 cumulative IPC: 1.19618 (Simulation time: 0 hr 1 min 0 sec) 
Heartbeat CPU  0 instructions:   32000000 cycles:   22696251 heartbeat IPC: 1.19234 cumulative IPC: 1.19601 (Simulation time: 0 hr 1 min 2 sec) 
Heartbeat CPU  0 instructions:   33000002 cycles:   23527870 heartbeat IPC: 1.20248 cumulative IPC: 1.19629 (Simulation time: 0 hr 1 min 4 sec) 
Heartbeat CPU  0 instructions:   34000002 cycles:   24362338 heartbeat IPC: 1.19837 cumulative IPC: 1.19637 (Simulation time: 0 hr 1 min 6 sec) 
Heartbeat CPU  0 instructions:   35000001 cycles:   25205221 heartbeat IPC: 1.18640 cumulative IPC: 1.19597 (Simulation time: 0 hr 1 min 8 sec) 
Heartbeat CPU  0 instructions:   36000000 cycles:   26039541 heartbeat IPC: 1.19858 cumulative IPC: 1.19607 (Simulation time: 0 hr 1 min 10 sec) 
Heartbeat CPU  0 instructions:   37000000 cycles:   26877987 heartbeat IPC: 1.19268 cumulative IPC: 1.19595 (Simulation time: 0 hr 1 min 12 sec) 
Heartbeat CPU  0 instructions:   38000001 cycles:   27716191 heartbeat IPC: 1.19303 cumulative IPC: 1.19584 (Simulation time: 0 hr 1 min 14 sec) 
Heartbeat CPU  0 instructions:   39000000 cycles:   28550526 heartbeat IPC: 1.19856 cumulative IPC: 1.19593 (Simulation time: 0 hr 1 min 16 sec) 
Heartbeat CPU  0 instructions:   40000000 cycles:   29390904 heartbeat IPC: 1.18994 cumulative IPC: 1.19573 (Simulation time: 0 hr 1 min 18 sec) 
Heartbeat CPU  0 instructions:   41000001 cycles:   30225384 heartbeat IPC: 1.19835 cumulative IPC: 1.19582 (Simulation time: 0 hr 1 min 20 sec) 
Heartbeat CPU  0 instructions:   42000002 cycles:   31059706 heartbeat IPC: 1.19858 cumulative IPC: 1.19590 (Simulation time: 0 hr 1 min 22 sec) 
Heartbeat CPU  0 instructions:   43000000 cycles:   31891206 heartbeat IPC: 1.20264 cumulative IPC: 1.19611 (Simulation time: 0 hr 1 min 24 sec) 
Heartbeat CPU  0 instructions:   44000000 cycles:   32734334 heartbeat IPC: 1.18606 cumulative IPC: 1.19581 (Simulation time: 0 hr 1 min 26 sec) 
Heartbeat CPU  0 instructions:   45000003 cycles:   33568499 heartbeat IPC: 1.19881 cumulative IPC: 1.19589 (Simulation time: 0 hr 1 min 28 sec) 
Heartbeat CPU  0 instructions:   46000002 cycles:   34402840 heartbeat IPC: 1.19855 cumulative IPC: 1.19597 (Simulation time: 0 hr 1 min 30 sec) 
Heartbeat CPU  0 instructions:   47000001 cycles:   35239227 heartbeat IPC: 1.19562 cumulative IPC: 1.19596 (Simulation time: 0 hr 1 min 32 sec) 
Heartbeat CPU  0 instructions:   48000000 cycles:   36079532 heartbeat IPC: 1.19004 cumulative IPC: 1.19580 (Simulation time: 0 hr 1 min 35 sec) 
Heartbeat CPU  0 instructions:   49000001 cycles:   36912571 heartbeat IPC: 1.20043 cumulative IPC: 1.19592 (Simulation time: 0 hr 1 min 37 sec) 
Heartbeat CPU  0 instructions:   50000001 cycles:   37755725 heartbeat IPC: 1.18602 cumulative IPC: 1.19567 (Simulation time: 0 hr 1 min 39 sec) 
Heartbeat CPU  0 instructions:   51000002 cycles:   38589867 heartbeat IPC: 1.19884 cumulative IPC: 1.19575 (Simulation time: 0 hr 1 min 41 sec) 
Heartbeat CPU  0 instructions:   52000000 cycles:   39422281 heartbeat IPC: 1.20132 cumulative IPC: 1.19588 (Simulation time: 0 hr 1 min 43 sec) 
Heartbeat CPU  0 instructions:   53000001 cycles:   40254173 heartbeat IPC: 1.20208 cumulative IPC: 1.19602 (Simulation time: 0 hr 1 min 45 sec) 
Heartbeat CPU  0 instructions:   54000001 cycles:   41092850 heartbeat IPC: 1.19235 cumulative IPC: 1.19594 (Simulation time: 0 hr 1 min 47 sec) 
Heartbeat CPU  0 instructions:   55000000 cycles:   41923886 heartbeat IPC: 1.20332 cumulative IPC: 1.19610 (Simulation time: 0 hr 1 min 49 sec) 
Heartbeat CPU  0 instructions:   56000000 cycles:   42759368 heartbeat IPC: 1.19691 cumulative IPC: 1.19612 (Simulation time: 0 hr 1 min 51 sec) 
Heartbeat CPU  0 instructions:   57000000 cycles:   43596189 heartbeat IPC: 1.19500 cumulative IPC: 1.19610 (Simulation time: 0 hr 1 min 53 sec) 
Heartbeat CPU  0 instructions:   58000003 cycles:   44429407 heartbeat IPC: 1.20017 cumulative IPC: 1.19618 (Simulation time: 0 hr 1 min 55 sec) 
Heartbeat CPU  0 instructions:   59000002 cycles:   45261189 heartbeat IPC: 1.20224 cumulative IPC: 1.19630 (Simulation time: 0 hr 1 min 57 sec) 
Heartbeat CPU  0 instructions:   60000000 cycles:   46103265 heartbeat IPC: 1.18754 cumulative IPC: 1.19613 (Simulation time: 0 hr 1 min 59 sec) 
Finished CPU 0 instructions: 50000001 cycles: 41801565 cumulative IPC: 1.19613 (Simulation time: 0 hr 1 min 59 sec) 

ChampSim completed all CPUs

[ROI Statistics]
Core_0_instructions 50000001
Core_0_cycles 41801565
Core_0_IPC 1.19613

Core_0_branch_prediction_accuracy 99.97505
Core_0_branch_MPKI 0.00438
Core_0_average_ROB_occupancy_at_mispredict 254.21918

Core_0_L1D_total_access 10292898
Core_0_L1D_total_hit 9631222
Core_0_L1D_total_miss 661676
Core_0_L1D_loads 6784339
Core_0_L1D_load_hit 6123426
Core_0_L1D_load_miss 660913
Core_0_L1D_RFOs 3508559
Core_0_L1D_RFO_hit 3507796
Core_0_L1D_RFO_miss 763
Core_0_L1D_prefetches 0
Core_0_L1D_prefetch_hit 0
Core_0_L1D_prefetch_miss 0
Core_0_L1D_writebacks 0
Core_0_L1D_writeback_hit 0
Core_0_L1D_writeback_miss 0
Core_0_L1D_prefetch_requested 0
Core_0_L1D_prefetch_dropped 0
Core_0_L1D_prefetch_issued 0
Core_0_L1D_prefetch_filled 0
Core_0_L1D_prefetch_useful 0
Core_0_L1D_prefetch_useless 0
Core_0_L1D_prefetch_late 0
Core_0_L1D_average_miss_latency 22.61857

Core_0_L1D_rq_access 17541482
Core_0_L1D_rq_forward 0
Core_0_L1D_rq_merged 10524329
Core_0_L1D_rq_to_cache 7017153
Core_0_L1D_rq_full 0

Core_0_L1D_wq_access 3510266
Core_0_L1D_wq_forward 0
Core_0_L1D_wq_merged 0
Core_0_L1D_wq_to_cache 3510266
Core_0_L1D_wq_full 0

Core_0_L1D_pq_access 0
Core_0_L1D_pq_forward 0
Core_0_L1D_pq_merged 0
Core_0_L1D_pq_to_cache 0
Core_0_L1D_pq_full 0

Core_0_L1D_acc_epochs 44360
Core_0_L1D_acc_level_0 44360
Core_0_L1D_acc_level_1 0
Core_0_L1D_acc_level_2 0
Core_0_L1D_acc_level_3 0
Core_0_L1D_acc_level_4 0
Core_0_L1D_acc_level_5 0
Core_0_L1D_acc_level_6 0
Core_0_L1D_acc_level_7 0
Core_0_L1D_acc_level_8 0
Core_0_L1D_acc_level_9 0

Core_0_L1I_total_access 10238252
Core_0_L1I_total_hit 10238252
Core_0_L1I_total_miss 0
Core_0_L1I_loads 10238252
Core_0_L1I_load_hit 10238252
Core_0_L1I_load_miss 0
Core_0_L1I_RFOs 0
Core_0_L1I_RFO_hit 0
Core_0_L1I_RFO_miss 0
Core_0_L1I_prefetches 0
Core_0_L1I_prefetch_hit 0
Core_0_L1I_prefetch_miss 0
Core_0_L1I_writebacks 0
Core_0_L1I_writeback_hit 0
Core_0_L1I_writeback_miss 0
Core_0_L1I_prefetch_requested 0
Core_0_L1I_prefetch_dropped 0
Core_0_L1I_prefetch_issued 0
Core_0_L1I_prefetch_filled 0
Core_0_L1I_prefetch_useful 0
Core_0_L1I_prefetch_useless 0
Core_0_L1I_prefetch_late 0
Core_0_L1I_average_miss_latency -nan

Core_0_L1I_rq_access 50000004
Core_0_L1I_rq_forward 0
Core_0_L1I_rq_merged 39761752
Core_0_L1I_rq_to_cache 10238252
Core_0_L1I_rq_full 0

Core_0_L1I_wq_access 0
Core_0_L1I_wq_forward 0
Core_0_L1I_wq_merged 0
Core_0_L1I_wq_to_cache 0
Core_0_L1I_wq_full 0

Core_0_L1I_pq_access 0
Core_0_L1I_pq_forward 0
Core_0_L1I_pq_merged 0
Core_0_L1I_pq_to_cache 0
Core_0_L1I_pq_full 0

Core_0_L1I_acc_epochs 44360
Core_0_L1I_acc_level_0 44360
Core_0_L1I_acc_level_1 0
Core_0_L1I_acc_level_2 0
Core_0_L1I_acc_level_3 0
Core_0_L1I_acc_level_4 0
Core_0_L1I_acc_level_5 0
Core_0_L1I_acc_level_6 0
Core_0_L1I_acc_level_7 0
Core_0_L1I_acc_level_8 0
Core_0_L1I_acc_level_9 0

Core_0_L2C_total_access 3576593
Core_0_L2C_total_hit 2913651
Core_0_L2C_total_miss 662942
Core_0_L2C_loads 660913
Core_0_L2C_load_hit 612767
Core_0_L2C_load_miss 48146
Core_0_L2C_RFOs 763
Core_0_L2C_RFO_hit 109
Core_0_L2C_RFO_miss 654
Core_0_L2C_prefetches 2475652
Core_0_L2C_prefetch_hit 1861510
Core_0_L2C_prefetch_miss 614142
Core_0_L2C_writebacks 439265
Core_0_L2C_writeback_hit 439265
Core_0_L2C_writeback_miss 0
Core_0_L2C_prefetch_requested 4059449
Core_0_L2C_prefetch_dropped 0
Core_0_L2C_prefetch_issued 4059449
Core_0_L2C_prefetch_filled 744173
Core_0_L2C_prefetch_useful 741424
Core_0_L2C_prefetch_useless 2733
Core_0_L2C_prefetch_late 35178
Core_0_L2C_average_miss_latency 156.54708

Core_0_L2C_rq_access 661676
Core_0_L2C_rq_forward 0
Core_0_L2C_rq_merged 0
Core_0_L2C_rq_to_cache 661676
Core_0_L2C_rq_full 0

Core_0_L2C_wq_access 439265
Core_0_L2C_wq_forward 0
Core_0_L2C_wq_merged 0
Core_0_L2C_wq_to_cache 439265
Core_0_L2C_wq_full 0

Core_0_L2C_pq_access 4059449
Core_0_L2C_pq_forward 0
Core_0_L2C_pq_merged 2781
Core_0_L2C_pq_to_cache 4056668
Core_0_L2C_pq_full 0

Core_0_L2C_acc_epochs 44360
Core_0_L2C_acc_level_0 1
Core_0_L2C_acc_level_1 0
Core_0_L2C_acc_level_2 0
Core_0_L2C_acc_level_3 1
Core_0_L2C_acc_level_4 1
Core_0_L2C_acc_level_5 14
Core_0_L2C_acc_level_6 88
Core_0_L2C_acc_level_7 181
Core_0_L2C_acc_level_8 1655
Core_0_L2C_acc_level_9 42419

Core_0_LLC_total_access 1101904
Core_0_LLC_total_hit 225622
Core_0_LLC_total_miss 876282
Core_0_LLC_loads 12975
Core_0_LLC_load_hit 5850
Core_0_LLC_load_miss 7125
Core_0_LLC_RFOs 654
Core_0_LLC_RFO_hit 654
Core_0_LLC_RFO_miss 0
Core_0_LLC_prefetches 649313
Core_0_LLC_prefetch_hit 217677
Core_0_LLC_prefetch_miss 431636
Core_0_LLC_writebacks 438962
Core_0_LLC_writeback_hit 1441
Core_0_LLC_writeback_miss 437521
Core_0_LLC_prefetch_requested 0
Core_0_LLC_prefetch_dropped 0
Core_0_LLC_prefetch_issued 0
Core_0_LLC_prefetch_filled 520087
Core_0_LLC_prefetch_useful 193
Core_0_LLC_prefetch_useless 517147
Core_0_LLC_prefetch_late 0
Core_0_LLC_average_miss_latency 103.02199

Core_0_LLC_rq_access 13629
Core_0_LLC_rq_forward 0
Core_0_LLC_rq_merged 0
Core_0_LLC_rq_to_cache 13629
Core_0_LLC_rq_full 0

Core_0_LLC_wq_access 438963
Core_0_LLC_wq_forward 0
Core_0_LLC_wq_merged 0
Core_0_LLC_wq_to_cache 438963
Core_0_LLC_wq_full 0

Core_0_LLC_pq_access 779354
Core_0_LLC_pq_forward 0
Core_0_LLC_pq_merged 0
Core_0_LLC_pq_to_cache 779354
Core_0_LLC_pq_full 0

Core_0_LLC_acc_epochs 45023
Core_0_LLC_acc_level_0 44958
Core_0_LLC_acc_level_1 52
Core_0_LLC_acc_level_2 12
Core_0_LLC_acc_level_3 0
Core_0_LLC_acc_level_4 0
Core_0_LLC_acc_level_5 1
Core_0_LLC_acc_level_6 0
Core_0_LLC_acc_level_7 0
Core_0_LLC_acc_level_8 0
Core_0_LLC_acc_level_9 0

Core_0_major_page_fault 0
Core_0_minor_page_fault 8285

scooby_st_lookup 793141
scooby_st_hit 779471
scooby_st_evict 13606
scooby_st_insert 13670
scooby_st_streaming 0

scooby_predict_called 793141
scooby_predict_out_of_bounds 12620
scooby_predict_action_1 777953
scooby_predict_issue_action_1 777203
scooby_predict_hit_action_1 750
scooby_predict_out_of_bounds_action_1 12294
scooby_predict_action_3 276
scooby_predict_issue_action_3 149
scooby_predict_hit_action_3 127
scooby_predict_out_of_bounds_action_3 4
scooby_predict_action_4 262
scooby_predict_issue_action_4 132
scooby_predict_hit_action_4 130
scooby_predict_out_of_bounds_action_4 8
scooby_predict_action_5 189
scooby_predict_issue_action_5 136
scooby_predict_hit_action_5 53
scooby_predict_out_of_bounds_action_5 12
scooby_predict_action_10 255
scooby_predict_issue_action_10 255
scooby_predict_hit_action_10 0
scooby_predict_out_of_bounds_action_10 22
scooby_predict_action_11 102
scooby_predict_issue_action_11 102
scooby_predict_hit_action_11 0
scooby_predict_out_of_bounds_action_11 27
scooby_predict_action_12 234
scooby_predict_issue_action_12 119
scooby_predict_hit_action_12 115
scooby_predict_out_of_bounds_action_12 25
scooby_predict_action_22 159
scooby_predict_issue_action_22 159
scooby_predict_hit_action_22 0
scooby_predict_out_of_bounds_action_22 58
scooby_predict_action_23 89
scooby_predict_issue_action_23 89
scooby_predict_hit_action_23 0
scooby_predict_out_of_bounds_action_23 43
scooby_predict_action_30 86
scooby_predict_issue_action_30 86
scooby_predict_hit_action_30 0
scooby_predict_out_of_bounds_action_30 56
scooby_predict_action_32 66
scooby_predict_issue_action_32 66
scooby_predict_hit_action_32 0
scooby_predict_out_of_bounds_action_32 54
scooby_predict_action_-1 258
scooby_predict_issue_action_-1 161
scooby_predict_hit_action_-1 97
scooby_predict_out_of_bounds_action_-1 1
scooby_predict_action_-3 279
scooby_predict_issue_action_-3 188
scooby_predict_hit_action_-3 91
scooby_predict_out_of_bounds_action_-3 4
scooby_predict_action_-6 108
scooby_predict_issue_action_-6 34
scooby_predict_hit_action_-6 74
scooby_predict_out_of_bounds_action_-6 12
scooby_predict_action_0 205
scooby_predict_issue_action_0 0
scooby_predict_hit_action_0 0
scooby_predict_out_of_bounds_action_0 0
scooby_predict_multi_deg_called 738087
scooby_predict_predicted 4059449
scooby_predict_multi_deg 3280570
scooby_predict_multi_deg_2 725822
scooby_predict_multi_deg_3 688163
scooby_predict_multi_deg_4 675898
scooby_predict_multi_deg_5 601470
scooby_predict_multi_deg_6 589217
scooby_predict_multi_deg_7 0
scooby_predict_multi_deg_8 0
scooby_predict_multi_deg_9 0
scooby_predict_multi_deg_10 0
scooby_predict_multi_deg_11 0
scooby_predict_multi_deg_12 0
scooby_predict_multi_deg_13 0
scooby_predict_multi_deg_14 0
scooby_predict_multi_deg_15 0
scooby_predict_multi_deg_16 0

scooby_selected_deg_1 40792
scooby_selected_deg_2 25403
scooby_selected_deg_3 0
scooby_selected_deg_4 62191
scooby_selected_deg_5 0
scooby_selected_deg_6 650493
scooby_selected_deg_7 0
scooby_selected_deg_8 0
scooby_selected_deg_9 0
scooby_selected_deg_10 0
scooby_selected_deg_11 0
scooby_selected_deg_12 0
scooby_selected_deg_13 0
scooby_selected_deg_14 0
scooby_selected_deg_15 0
scooby_selected_deg_16 0

scooby_state_405cb2|7|1 3019,0,0,0,0,0,1,0,0,1,0,0,1,0,0,3022,
scooby_state_405cb2|1|1 3016,0,0,0,1,0,0,1,0,0,0,0,0,0,1,3019,
scooby_state_405df2|10|1 3008,0,0,0,0,0,1,0,0,2,0,1,0,1,1,3014,
scooby_state_405df2|34|1 3012,0,0,0,0,0,1,0,0,0,0,0,0,0,1,3014,
scooby_state_405df2|25|1 3011,0,0,0,0,0,1,0,0,0,0,0,1,0,0,3013,
scooby_state_405df2|32|1 3005,0,0,0,0,0,1,1,0,0,0,1,0,0,1,3009,
scooby_state_405df2|56|1 3001,0,0,2,1,0,0,0,0,0,1,1,2,1,0,3009,
scooby_state_405df2|16|1 2994,0,1,1,0,1,0,0,0,1,0,2,0,1,0,3001,
scooby_state_405df2|12|1 2995,0,1,0,0,0,1,1,1,1,0,1,0,0,0,3001,
scooby_state_405df2|21|1 2993,0,0,0,1,1,0,0,0,0,1,1,1,0,2,3000,
scooby_state_405df2|63|1 2994,0,0,0,0,1,1,0,0,0,1,0,0,0,1,2998,
scooby_state_405df2|45|1 2990,0,1,1,0,1,0,1,0,0,0,1,0,1,0,2996,
scooby_state_405df2|14|1 2988,1,0,1,0,0,1,0,4,0,0,0,0,1,0,2996,
scooby_state_405df2|23|1 2990,0,0,0,0,0,1,1,1,0,0,0,0,0,0,2993,
scooby_state_405df2|43|1 2985,0,0,0,1,0,1,1,0,1,1,1,0,0,0,2991,
scooby_state_405cb2|25|1 2980,1,1,0,0,0,0,1,0,1,1,0,1,2,1,2989,
scooby_state_405cb2|27|1 2981,0,0,2,0,0,0,0,0,0,0,1,1,0,2,2987,
scooby_state_405df2|2|1 2981,0,0,0,0,0,0,1,0,2,0,1,0,0,0,2985,
scooby_state_405df2|55|1 2980,0,0,1,1,0,2,0,0,0,0,0,1,0,0,2985,
scooby_state_405cb2|2|1 2980,0,0,0,0,0,1,0,1,0,0,1,0,0,1,2984,
scooby_state_405df2|52|1 2975,0,0,0,1,0,0,1,0,1,0,1,0,2,2,2983,
scooby_state_405df2|5|1 2973,1,1,3,1,0,1,0,1,0,0,0,1,1,0,2983,
scooby_state_405cb2|31|1 2979,0,1,0,0,0,0,0,0,0,1,0,0,0,1,2982,
scooby_state_405df2|58|1 2974,0,0,0,2,0,1,1,1,0,0,0,2,0,0,2981,
scooby_state_405df2|36|1 2972,0,1,0,1,0,1,0,2,1,0,0,1,0,1,2980,
scooby_state_405df2|47|1 2976,0,0,2,1,0,0,0,0,0,0,0,0,0,0,2979,
scooby_state_405df2|44|1 2974,1,1,1,0,0,1,0,0,0,0,0,0,0,0,2978,
scooby_state_405df2|54|1 2973,0,1,0,0,1,0,1,0,0,0,0,0,0,0,2976,
scooby_state_405cb2|36|1 2966,0,1,0,0,0,0,2,1,1,0,2,0,1,1,2975,
scooby_state_405cb2|47|1 2971,0,1,0,1,0,0,0,0,0,0,1,1,0,0,2975,
scooby_state_405cb2|62|1 2966,0,1,0,0,1,0,0,1,0,1,0,2,1,0,2973,
scooby_state_405cb2|16|1 2969,1,1,0,0,0,1,0,1,0,0,0,0,0,0,2973,
scooby_state_405cb2|51|1 2970,1,0,1,0,0,0,0,0,0,0,0,0,0,0,2972,
scooby_state_405df2|13|1 2965,0,0,0,0,1,0,0,0,2,1,0,0,0,1,2970,
scooby_state_405cb2|49|1 2962,0,1,3,0,0,1,0,0,0,1,1,0,0,1,2970,
scooby_state_405cb2|48|1 2964,0,2,0,1,0,1,0,1,0,0,0,0,0,0,2969,
scooby_state_405cb2|29|1 2965,1,0,0,1,1,0,0,0,0,0,0,1,0,0,2969,
scooby_state_405df2|41|1 2964,1,0,0,0,1,0,0,0,0,0,1,1,1,0,2969,
scooby_state_405cb2|59|1 2965,1,0,0,0,0,0,0,2,0,1,0,0,0,0,2969,
scooby_state_405cb2|20|1 2965,0,1,0,1,0,0,0,0,0,0,1,0,1,0,2969,
scooby_state_405df2|30|1 2953,2,0,2,1,1,0,2,1,0,2,1,1,1,0,2967,
scooby_state_405df2|38|1 2958,1,0,0,2,1,0,3,0,0,0,0,0,0,1,2966,
scooby_state_405cb2|18|1 2954,1,1,1,1,0,0,0,1,1,0,3,2,0,0,2965,
scooby_state_405cb2|0|0 2961,1,0,0,1,0,1,0,0,0,0,0,0,0,0,2964,
scooby_state_405df2|33|1 2962,0,0,0,0,0,0,0,0,0,0,0,0,0,2,2964,
scooby_state_405df2|3|1 2956,0,2,0,1,0,0,0,0,2,0,0,0,1,1,2963,
scooby_state_405df2|1|1 2958,0,1,1,0,0,0,0,0,0,1,1,0,0,1,2963,
scooby_state_405cb2|9|1 2963,0,0,0,0,0,0,0,0,0,0,0,0,0,0,2963,
scooby_state_405cb2|39|1 2959,0,0,0,1,1,0,0,0,0,0,0,0,0,1,2962,
scooby_state_405cb2|5|1 2957,0,0,0,1,1,1,0,0,0,0,1,0,1,0,2962,
scooby_state_405df2|46|1 2959,0,0,0,0,0,0,0,0,0,0,1,1,0,0,2961,
scooby_state_405cb2|6|1 2956,1,0,0,0,0,1,0,0,1,0,0,0,0,1,2960,
scooby_state_405df2|0|0 2956,0,1,0,0,0,0,0,0,0,0,0,1,0,0,2958,
scooby_state_405cb2|40|1 2952,3,0,0,0,0,0,0,1,0,1,0,1,0,0,2958,
scooby_state_405cb2|14|1 2950,2,1,0,0,0,1,0,0,1,1,0,0,1,0,2957,
scooby_state_405cb2|60|1 2950,1,1,2,0,0,0,1,1,0,0,0,1,0,0,2957,
scooby_state_405cb2|53|1 2948,1,0,0,0,1,0,1,1,2,1,0,0,1,1,2957,
scooby_state_405cb2|37|1 2952,0,0,0,0,1,0,0,0,0,0,0,1,2,0,2956,
scooby_state_405cb2|38|1 2950,0,0,0,1,1,2,0,0,0,0,0,0,0,0,2954,
scooby_state_405cb2|28|1 2952,0,0,0,0,0,0,0,0,0,1,0,0,1,0,2954,
scooby_state_405cb2|13|1 2945,1,1,0,2,1,0,1,1,0,0,0,1,0,1,2954,
scooby_state_405cb2|3|1 2943,0,0,0,0,1,0,1,2,2,1,0,1,1,1,2953,
scooby_state_405df2|57|1 2947,0,0,0,1,0,1,0,1,0,1,0,0,0,1,2952,
scooby_state_405cb2|56|1 2947,1,0,0,0,0,1,1,0,0,1,0,0,0,1,2952,
scooby_state_405df2|4|1 2944,0,0,1,1,1,1,0,0,0,1,0,1,1,0,2951,
scooby_state_405df2|60|1 2948,0,0,0,0,0,0,0,0,1,0,0,0,1,0,2950,
scooby_state_405df2|22|1 2947,0,1,0,0,0,0,0,1,0,0,1,0,0,0,2950,
scooby_state_405df2|24|1 2943,0,0,2,1,0,1,0,0,0,0,1,1,0,0,2949,
scooby_state_405cb2|15|1 2938,0,0,1,1,0,0,0,0,2,2,1,0,2,0,2947,
scooby_state_405cb2|61|1 2941,0,0,0,1,1,1,0,0,0,1,1,1,0,0,2947,
scooby_state_405df2|62|1 2940,1,1,2,0,1,0,0,0,0,0,0,1,0,1,2947,
scooby_state_405cb2|8|1 2939,0,1,0,0,0,1,1,0,0,0,0,1,0,1,2944,
scooby_state_405df2|35|1 2934,2,1,0,0,2,1,1,0,1,0,0,0,1,0,2943,
scooby_state_405cb2|17|1 2936,0,2,0,0,0,0,0,2,0,0,1,0,0,0,2941,
scooby_state_405df2|42|1 2938,0,0,0,0,0,0,0,0,1,0,0,1,0,1,2941,
scooby_state_405df2|51|1 2937,0,0,0,0,0,0,0,0,0,0,0,0,0,1,2938,
scooby_state_405cb2|11|1 2932,0,0,1,0,1,2,0,1,0,0,1,0,0,0,2938,
scooby_state_405cb2|57|1 2931,1,0,1,0,1,1,0,0,0,1,1,0,0,0,2937,
scooby_state_405df2|49|1 2930,1,0,0,1,0,0,0,1,0,0,0,1,1,1,2936,
scooby_state_405df2|27|1 2931,0,0,0,0,0,0,2,0,1,0,0,0,1,0,2935,
scooby_state_405cb2|45|1 2927,0,0,0,3,0,0,1,0,1,1,1,0,1,0,2935,
scooby_state_405df2|11|1 2932,0,0,0,0,0,0,1,0,1,0,0,0,0,0,2934,
scooby_state_405df2|20|1 2929,0,0,0,0,0,0,0,0,0,1,1,2,0,1,2934,
scooby_state_405df2|9|1 2927,2,0,0,0,0,1,0,2,1,0,0,0,0,0,2933,
scooby_state_405df2|53|1 2929,1,0,0,0,0,0,1,0,0,0,1,1,0,0,2933,
scooby_state_405df2|8|1 2928,0,0,1,0,0,0,0,0,1,0,0,1,0,0,2931,
scooby_state_405df2|18|1 2925,3,1,0,0,0,0,0,0,0,0,1,1,0,0,2931,
scooby_state_405cb2|55|1 2926,2,2,0,0,0,0,0,0,0,0,0,0,0,0,2930,
scooby_state_405cb2|26|1 2922,0,0,1,1,0,0,1,0,1,1,1,0,0,1,2929,
scooby_state_405cb2|58|1 2926,0,0,1,0,0,1,0,0,0,0,0,0,0,1,2929,
scooby_state_405cb2|35|1 2924,1,0,1,0,0,0,1,0,0,0,0,1,0,0,2928,
scooby_state_405cb2|50|1 2921,0,0,1,1,0,0,0,0,0,0,0,1,0,2,2926,
scooby_state_405cb2|33|1 2923,0,0,0,0,1,0,0,0,0,1,0,0,0,0,2925,
scooby_state_405cb2|19|1 2918,0,1,2,0,0,1,0,1,1,0,0,1,0,0,2925,
scooby_state_405cb2|42|1 2919,1,1,1,0,0,0,0,0,0,0,0,0,1,1,2924,
scooby_state_405df2|31|1 2924,0,0,0,0,0,0,0,0,0,0,0,0,0,0,2924,
scooby_state_405cb2|44|1 2919,0,1,0,1,0,0,2,0,1,0,0,0,0,0,2924,
scooby_state_405cb2|46|1 2918,0,1,0,0,0,0,0,1,0,0,1,0,1,1,2923,
scooby_state_405df2|40|1 2917,0,0,0,0,0,0,0,0,2,0,0,0,0,1,2920,
scooby_state_405df2|7|1 2916,0,1,0,0,0,0,0,0,0,0,0,0,1,1,2919,
scooby_state_405df2|19|1 2915,0,1,0,0,0,1,0,0,0,1,0,1,0,0,2919,
scooby_state_405df2|29|1 2911,0,0,0,0,1,2,0,1,1,1,0,1,0,0,2918,
scooby_state_405df2|26|1 2908,0,0,0,0,4,0,0,1,1,0,2,0,0,1,2917,
scooby_state_405df2|61|1 2911,0,0,0,1,0,0,1,0,1,0,1,0,1,1,2917,
scooby_state_405cb2|4|1 2909,0,1,0,0,0,0,1,1,0,0,1,0,0,0,2913,
scooby_state_405cb2|24|1 2909,0,0,0,0,1,0,0,0,0,1,0,0,0,1,2912,
scooby_state_405df2|37|1 2907,0,0,0,1,1,0,0,0,0,0,0,0,0,0,2909,
scooby_state_405cb2|22|1 2903,0,0,0,1,0,0,0,0,1,0,0,0,1,0,2906,
scooby_state_405df2|15|1 2894,0,0,0,1,1,0,1,0,2,0,0,0,0,3,2902,
scooby_state_405df2|50|1 2895,0,0,1,0,1,0,1,2,0,0,1,0,1,0,2902,
scooby_state_405cb2|23|1 2890,0,2,0,0,1,0,0,0,1,0,1,0,1,0,2896,
scooby_state_405cb2|30|1 2883,2,0,0,0,1,0,0,1,1,1,2,1,1,1,2894,
scooby_state_405cb2|41|1 2890,0,0,1,1,0,0,0,0,0,0,1,0,0,0,2893,
scooby_state_405df2|48|1 2875,0,1,0,2,1,0,0,1,0,1,0,0,0,0,2881,
scooby_state_405cb2|34|1 2876,0,0,1,0,1,0,0,1,0,1,0,0,0,0,2880,
scooby_state_405df2|59|1 2870,0,0,1,0,1,1,0,1,0,0,0,0,3,0,2877,
scooby_state_405df2|39|1 2869,0,0,1,0,1,0,0,1,2,0,0,1,0,0,2875,
scooby_state_405cb2|12|1 2870,1,1,0,0,1,0,0,0,1,0,0,0,0,0,2874,
scooby_state_405df2|28|1 2863,0,0,0,0,1,3,0,1,0,0,2,0,1,0,2871,
scooby_state_405df2|6|1 2867,0,0,1,1,0,0,0,0,1,0,1,0,0,0,2871,
scooby_state_405df2|17|1 2863,0,1,0,0,0,0,1,0,1,1,0,0,0,2,2869,
scooby_state_405cb2|52|1 2861,0,0,1,0,0,1,0,2,0,0,1,0,0,1,2867,
scooby_state_405cb2|54|1 2859,0,1,1,0,0,0,1,0,1,0,0,0,0,0,2863,
scooby_state_405cb2|63|1 2855,0,0,1,0,0,0,0,1,0,1,0,0,0,1,2859,
scooby_state_405cb2|43|1 2854,0,0,0,0,0,2,0,1,0,0,0,1,0,1,2859,
scooby_state_405cb2|21|1 2845,0,0,0,1,0,0,1,1,0,0,1,0,0,0,2849,
scooby_state_405cb2|10|1 2844,0,0,0,1,1,0,0,0,0,1,0,0,0,0,2847,
scooby_state_405cb2|32|1 2834,0,0,0,0,0,2,0,0,0,0,1,0,0,0,2837,
scooby_state_405d32|23|1 2109,0,0,0,0,0,0,0,0,0,0,1,0,0,0,2110,
scooby_state_405d32|16|1 2107,0,0,0,3,0,0,0,0,0,0,0,0,0,0,2110,
scooby_state_405d32|17|1 2106,0,2,0,0,0,0,0,0,1,0,0,0,0,1,2110,
scooby_state_405d32|15|1 2107,1,1,0,0,1,0,0,0,0,0,0,0,0,0,2110,
scooby_state_405d32|24|1 2107,1,0,0,0,0,0,0,1,0,0,0,0,0,1,2110,
scooby_state_405d32|13|1 2107,1,0,0,0,0,0,0,0,0,1,0,0,1,0,2110,
scooby_state_405d32|19|1 2108,0,0,0,0,0,0,0,1,0,0,1,0,0,0,2110,
scooby_state_405d32|12|1 2109,0,0,0,0,0,0,0,0,0,0,0,0,0,1,2110,
scooby_state_405d32|21|1 2104,0,2,0,0,0,1,1,0,0,1,0,0,1,0,2110,
scooby_state_405d32|20|1 2102,1,1,0,1,0,1,0,0,0,0,0,0,2,2,2110,
scooby_state_405d32|22|1 2108,0,0,0,0,0,0,0,0,1,0,1,0,0,0,2110,
scooby_state_405d32|11|1 2107,1,0,1,0,0,0,0,0,1,0,0,0,0,0,2110,
scooby_state_405d32|18|1 2105,0,1,0,1,0,0,0,0,0,0,0,2,0,1,2110,
scooby_state_405d32|14|1 2104,1,0,1,1,1,1,0,0,0,0,0,0,0,1,2110,
scooby_state_405d32|10|1 2106,0,0,0,1,0,0,1,0,1,0,0,0,0,1,2110,
scooby_state_405d32|25|1 2104,2,0,0,0,0,0,0,2,0,0,1,1,0,0,2110,
scooby_state_405d32|40|1 2103,2,0,1,0,0,0,1,0,0,0,0,0,2,0,2109,
scooby_state_405d32|38|1 2101,1,1,0,1,0,1,1,2,0,1,0,0,0,0,2109,
scooby_state_405d32|30|1 2105,0,1,0,1,0,1,0,1,0,0,0,0,0,0,2109,
scooby_state_405d32|29|1 2107,1,0,0,0,1,0,0,0,0,0,0,0,0,0,2109,
scooby_state_405d32|41|1 2103,1,0,0,0,0,0,1,0,1,0,1,2,0,0,2109,
scooby_state_405d32|33|1 2104,2,0,0,1,0,0,0,0,0,0,0,0,1,1,2109,
scooby_state_405d32|31|1 2103,0,1,1,0,1,2,0,0,0,1,0,0,0,0,2109,
scooby_state_405d32|28|1 2105,1,0,0,0,0,1,0,0,0,1,0,1,0,0,2109,
scooby_state_405d32|32|1 2108,0,0,0,0,0,0,0,0,0,0,0,1,0,0,2109,
scooby_state_405d32|45|1 2107,0,0,0,0,0,0,0,0,1,0,0,1,0,0,2109,
scooby_state_405d32|35|1 2103,0,0,0,1,1,0,1,0,1,0,0,0,2,0,2109,
scooby_state_405d32|34|1 2105,0,0,0,1,0,1,0,0,0,0,0,1,1,0,2109,
scooby_state_405d32|46|1 2104,0,0,1,0,1,0,1,0,0,0,1,0,0,1,2109,
scooby_state_405d32|44|1 2105,0,0,0,0,1,0,0,0,1,0,1,0,0,1,2109,
scooby_state_405d32|48|1 2105,0,0,0,1,1,0,1,0,0,0,0,1,0,0,2109,
scooby_state_405d32|36|1 2107,0,1,0,0,0,0,0,0,0,0,1,0,0,0,2109,
scooby_state_405d32|49|1 2106,0,0,0,0,1,0,0,0,1,1,0,0,0,0,2109,
scooby_state_405d32|27|1 2106,0,0,1,1,0,0,0,0,0,0,0,0,1,0,2109,
scooby_state_405d32|47|1 2103,0,0,1,2,0,0,1,1,0,0,0,0,1,0,2109,
scooby_state_405d32|42|1 2106,0,0,1,1,0,0,0,0,1,0,0,0,0,0,2109,
scooby_state_405d32|26|1 2105,0,1,0,0,0,0,1,0,0,1,0,0,0,1,2109,
scooby_state_405d32|43|1 2102,0,2,1,0,1,1,0,1,1,0,0,0,0,0,2109,
scooby_state_405d32|39|1 2108,0,0,0,0,0,0,0,0,1,0,0,0,0,0,2109,
scooby_state_405d32|37|1 2102,0,0,1,1,0,1,0,0,2,1,0,0,1,0,2109,
scooby_state_405bf2|52|1 2092,2,1,1,0,0,0,0,0,0,0,0,0,0,1,2097,
scooby_state_405bf2|59|1 2088,3,1,1,0,1,1,1,0,0,0,1,0,0,0,2097,
scooby_state_405bf2|5|1 2092,0,0,2,0,1,0,0,0,0,0,1,0,0,1,2097,
scooby_state_405bf2|7|1 2095,0,0,0,0,0,0,0,0,0,0,1,1,0,0,2097,
scooby_state_405bf2|35|1 2093,0,0,0,0,0,1,0,0,0,2,0,1,0,0,2097,
scooby_state_405bf2|0|0 2094,0,0,1,0,0,0,0,0,0,0,1,1,0,0,2097,
scooby_state_405bf2|60|1 2095,0,0,0,0,0,0,1,0,1,0,0,0,0,0,2097,
scooby_state_405bf2|62|1 2094,0,0,0,0,0,0,1,1,0,0,0,1,0,0,2097,
scooby_state_405bf2|4|1 2094,0,0,1,0,0,0,0,1,0,1,0,0,0,0,2097,
scooby_state_405bf2|61|1 2093,0,0,1,1,0,0,1,0,0,0,1,0,0,0,2097,
scooby_state_405bf2|51|1 2095,0,0,0,0,0,1,0,0,0,1,0,0,0,0,2097,
scooby_state_405bf2|3|1 2095,1,0,0,1,0,0,0,0,0,0,0,0,0,0,2097,
scooby_state_405bf2|63|1 2094,0,1,0,0,0,0,0,0,1,0,1,0,0,0,2097,
scooby_state_405bf2|6|1 2091,1,1,0,0,0,1,0,2,0,0,1,0,0,0,2097,
scooby_state_405bf2|38|1 2095,0,0,0,0,0,0,0,1,0,1,0,0,0,0,2097,
scooby_state_405bf2|50|1 2094,0,0,0,0,0,0,0,0,0,0,1,1,1,0,2097,
scooby_state_405bf2|41|1 2094,0,0,1,1,0,0,0,0,0,0,0,0,0,1,2097,
scooby_state_405bf2|45|1 2095,0,0,0,0,0,1,0,0,0,0,0,0,1,0,2097,
scooby_state_405bf2|56|1 2096,0,0,0,0,0,1,0,0,0,0,0,0,0,0,2097,
scooby_state_405bf2|39|1 2092,1,0,2,1,1,0,0,0,0,0,0,0,0,0,2097,
scooby_state_405bf2|9|1 2096,0,0,0,1,0,0,0,0,0,0,0,0,0,0,2097,
scooby_state_405bf2|55|1 2095,0,0,1,0,0,0,0,0,0,0,0,0,1,0,2097,
scooby_state_405bf2|42|1 2091,0,0,0,2,0,0,0,2,0,0,1,0,0,1,2097,
scooby_state_405bf2|43|1 2091,0,0,1,2,1,0,1,0,0,0,0,0,0,1,2097,
scooby_state_405bf2|46|1 2096,1,0,0,0,0,0,0,0,0,0,0,0,0,0,2097,
scooby_state_405bf2|40|1 2092,0,0,0,0,1,0,1,1,0,1,1,0,0,0,2097,
scooby_state_405bf2|49|1 2092,1,0,0,0,0,0,0,0,2,0,1,0,0,1,2097,
scooby_state_405bf2|48|1 2095,0,0,0,0,0,1,0,0,1,0,0,0,0,0,2097,
scooby_state_405bf2|47|1 2092,0,0,0,1,0,0,0,0,2,0,1,0,0,1,2097,
scooby_state_405bf2|57|1 2096,0,0,0,1,0,0,0,0,0,0,0,0,0,0,2097,
scooby_state_405bf2|53|1 2094,0,1,1,0,0,0,0,0,0,0,0,1,0,0,2097,
scooby_state_405bf2|36|1 2095,2,0,0,0,0,0,0,0,0,0,0,0,0,0,2097,
scooby_state_405bf2|58|1 2093,0,0,0,0,0,0,3,1,0,0,0,0,0,0,2097,
scooby_state_405bf2|1|1 2095,0,0,1,0,0,0,0,0,0,0,0,0,1,0,2097,
scooby_state_405bf2|34|1 2088,1,0,0,0,1,1,0,0,0,2,1,0,2,1,2097,
scooby_state_405bf2|44|1 2092,0,0,0,0,0,0,0,1,1,0,3,0,0,0,2097,
scooby_state_405bf2|37|1 2093,0,0,1,0,0,0,0,1,1,0,0,1,0,0,2097,
scooby_state_405bf2|54|1 2094,0,0,0,0,1,1,0,0,0,0,0,1,0,0,2097,
scooby_state_405bf2|2|1 2091,0,0,1,0,0,3,1,1,0,0,0,0,0,0,2097,
scooby_state_405bf2|8|1 2092,0,0,0,1,0,0,1,1,0,0,0,0,2,0,2097,
scooby_state_405d32|61|1 1974,0,0,0,0,1,0,2,0,0,0,0,0,0,1,1978,
scooby_state_405d32|3|1 1976,0,0,0,1,0,0,0,0,1,0,0,0,0,0,1978,
scooby_state_405d32|7|1 1973,0,0,0,1,1,0,1,0,0,0,0,1,1,0,1978,
scooby_state_405d32|51|1 1976,1,0,0,1,0,0,0,0,0,0,0,0,0,0,1978,
scooby_state_405d32|8|1 1975,0,0,1,0,0,0,2,0,0,0,0,0,0,0,1978,
scooby_state_405d32|53|1 1974,2,0,0,0,0,0,0,0,0,0,1,0,0,1,1978,
scooby_state_405d32|50|1 1974,0,0,1,1,0,1,0,0,0,0,0,0,0,1,1978,
scooby_state_405d32|59|1 1972,0,0,1,1,1,0,1,0,0,0,1,1,0,0,1978,
scooby_state_405d32|58|1 1973,0,0,0,0,0,0,0,0,0,2,2,1,0,0,1978,
scooby_state_405d32|60|1 1974,1,0,0,1,0,0,0,0,1,0,0,1,0,0,1978,
scooby_state_405d32|2|1 1975,1,0,0,0,0,0,0,1,0,1,0,0,0,0,1978,
scooby_state_405d32|54|1 1975,0,0,0,0,1,0,0,0,1,1,0,0,0,0,1978,
scooby_state_405d32|6|1 1976,0,0,1,0,0,0,1,0,0,0,0,0,0,0,1978,
scooby_state_405d32|62|1 1977,0,1,0,0,0,0,0,0,0,0,0,0,0,0,1978,
scooby_state_405d32|0|0 1975,0,0,0,1,1,0,0,0,1,0,0,0,0,0,1978,
scooby_state_405d32|1|1 1975,0,0,0,0,1,0,0,0,0,1,0,0,0,1,1978,
scooby_state_405d32|4|1 1974,0,0,0,1,0,0,1,0,0,1,0,1,0,0,1978,
scooby_state_405d32|9|1 1974,0,0,0,0,0,0,0,1,0,1,0,1,0,1,1978,
scooby_state_405d32|5|1 1978,0,0,0,0,0,0,0,0,0,0,0,0,0,0,1978,
scooby_state_405d32|52|1 1974,0,1,0,0,0,1,0,1,0,1,0,0,0,0,1978,
scooby_state_405d32|56|1 1977,0,0,0,1,0,0,0,0,0,0,0,0,0,0,1978,
scooby_state_405d32|55|1 1975,0,0,0,1,0,0,0,1,0,0,0,0,1,0,1978,
scooby_state_405d32|57|1 1975,0,0,0,0,1,0,0,1,0,0,0,1,0,0,1978,
scooby_state_405d32|63|1 1973,0,1,0,0,1,0,2,0,0,1,0,0,0,0,1978,
scooby_state_405bf2|33|1 1963,0,0,1,0,0,0,0,0,0,1,1,0,0,0,1966,
scooby_state_405bf2|29|1 1964,0,0,0,1,1,0,0,0,0,0,0,0,0,0,1966,
scooby_state_405bf2|32|1 1964,0,0,0,0,0,0,0,1,1,0,0,0,0,0,1966,
scooby_state_405bf2|30|1 1965,0,0,0,1,0,0,0,0,0,0,0,0,0,0,1966,
scooby_state_405bf2|28|1 1965,1,0,0,0,0,0,0,0,0,0,0,0,0,0,1966,
scooby_state_405bf2|31|1 1962,0,1,0,0,0,1,0,0,1,0,0,1,0,0,1966,
scooby_state_405bf2|22|1 1962,1,0,1,0,0,0,0,0,0,0,0,1,0,0,1965,
scooby_state_405bf2|20|1 1965,0,0,0,0,0,0,0,0,0,0,0,0,0,0,1965,
scooby_state_405bf2|27|1 1958,1,0,0,0,1,1,0,0,2,0,1,1,0,0,1965,
scooby_state_405bf2|24|1 1961,1,1,0,1,0,1,0,0,0,0,0,0,0,0,1965,
scooby_state_405bf2|26|1 1962,1,0,0,0,2,0,0,0,0,0,0,0,0,0,1965,
scooby_state_405bf2|25|1 1964,0,0,0,0,0,0,0,1,0,0,0,0,0,0,1965,
scooby_state_405bf2|15|1 1962,0,0,0,0,0,0,1,0,1,0,0,0,0,1,1965,
scooby_state_405bf2|12|1 1963,0,0,0,1,0,0,0,0,0,0,0,0,1,0,1965,
scooby_state_405bf2|19|1 1962,0,0,0,0,0,2,0,0,1,0,0,0,0,0,1965,
scooby_state_405bf2|18|1 1963,0,1,1,0,0,0,0,0,0,0,0,0,0,0,1965,
scooby_state_405bf2|17|1 1960,0,0,0,0,0,2,0,1,1,0,0,1,0,0,1965,
scooby_state_405bf2|10|1 1962,0,0,0,0,0,0,0,0,0,0,0,2,1,0,1965,
scooby_state_405bf2|13|1 1962,0,0,0,0,0,2,0,0,0,0,0,0,1,0,1965,
scooby_state_405bf2|16|1 1960,0,0,1,0,1,0,0,2,0,0,0,1,0,0,1965,
scooby_state_405bf2|14|1 1964,0,0,0,0,0,0,1,0,0,0,0,0,0,0,1965,
scooby_state_405bf2|23|1 1962,0,0,0,1,0,0,0,1,0,0,0,0,1,0,1965,
scooby_state_405bf2|21|1 1960,0,1,0,1,0,0,1,0,0,0,0,0,1,1,1965,
scooby_state_405bf2|11|1 1962,0,0,1,0,0,0,0,0,1,0,0,1,0,0,1965,
scooby_state_405cac|32|1 1256,0,1,0,0,1,0,1,0,0,0,0,0,0,0,1259,
scooby_state_405dec|17|1 1253,0,0,0,0,0,0,0,0,0,0,0,0,0,0,1253,
scooby_state_405dec|6|1 1248,1,0,0,0,0,0,0,0,0,1,0,0,0,0,1250,
scooby_state_405dec|28|1 1250,0,0,0,0,0,0,0,0,0,0,0,0,0,0,1250,
scooby_state_405cac|10|1 1250,0,0,0,0,0,0,0,0,0,0,0,0,0,0,1250,
scooby_state_405cac|21|1 1245,0,0,0,0,0,0,0,0,2,0,0,0,0,0,1247,
scooby_state_405dec|39|1 1245,0,0,0,0,0,0,0,0,0,1,0,0,0,0,1246,
scooby_state_405dec|59|1 1242,0,0,0,0,0,0,1,0,0,0,0,0,1,0,1244,
scooby_state_405dec|48|1 1239,0,1,0,0,0,0,0,0,0,0,0,0,0,0,1240,
scooby_state_405cac|63|1 1238,0,0,0,0,0,0,0,0,0,0,0,0,0,0,1238,
scooby_state_405cac|43|1 1235,1,0,0,0,1,0,0,0,0,0,0,0,0,0,1237,
scooby_state_405cac|54|1 1232,0,0,0,0,0,0,0,0,0,1,0,0,0,0,1233,
scooby_state_405cac|52|1 1226,1,0,0,0,0,0,0,1,0,0,0,0,0,1,1229,
scooby_state_405cac|12|1 1220,0,0,0,0,0,0,0,0,0,1,1,0,0,0,1222,
scooby_state_405dec|15|1 1217,0,1,0,0,0,0,0,0,0,0,0,0,0,2,1220,
scooby_state_405dec|50|1 1216,0,0,0,0,0,0,1,0,1,0,0,0,1,0,1219,
scooby_state_405cac|34|1 1213,0,1,1,0,1,0,0,0,0,0,0,0,0,0,1216,
scooby_state_405dec|37|1 1210,0,0,0,0,0,1,0,0,0,1,0,0,0,0,1212,
scooby_state_405dec|26|1 1203,1,0,0,0,0,0,0,0,0,0,1,0,0,0,1205,
scooby_state_405dec|61|1 1204,0,0,0,0,0,0,0,0,0,0,0,0,0,0,1204,
scooby_state_405dec|29|1 1202,0,1,0,0,0,0,0,0,0,0,0,0,0,0,1203,
scooby_state_405cac|41|1 1203,0,0,0,0,0,0,0,0,0,0,0,0,0,0,1203,
scooby_state_405dec|19|1 1201,0,1,0,0,0,0,0,0,1,0,0,0,0,0,1203,
scooby_state_405dec|7|1 1201,0,0,0,0,0,0,0,0,0,0,0,1,0,0,1202,
scooby_state_405cac|30|1 1197,2,0,1,0,0,2,0,0,0,0,0,0,0,0,1202,
scooby_state_405dec|40|1 1198,0,0,1,0,0,0,0,0,0,0,0,1,0,1,1201,
scooby_state_405cac|23|1 1197,1,1,1,0,0,0,0,0,0,0,0,0,0,0,1200,
scooby_state_405dec|31|1 1194,0,0,0,0,1,0,0,1,0,0,1,0,0,0,1197,
scooby_state_405dec|18|1 1191,0,0,0,0,0,0,0,0,0,0,0,0,0,0,1191,
scooby_state_405cac|22|1 1190,0,0,0,0,0,0,0,0,0,0,0,0,0,0,1190,
scooby_state_405dec|8|1 1188,0,0,0,0,0,0,1,0,1,0,0,0,0,0,1190,
scooby_state_405dec|9|1 1188,0,0,0,0,0,0,0,0,0,0,0,0,0,0,1188,
scooby_state_405dec|11|1 1187,0,0,0,0,0,0,0,0,1,0,0,0,0,0,1188,
scooby_state_405dec|20|1 1185,1,0,0,1,0,0,1,0,0,0,0,0,0,0,1188,
scooby_state_405dec|53|1 1188,0,0,0,0,0,0,0,0,0,0,0,0,0,0,1188,
scooby_state_405dec|27|1 1184,0,1,0,0,0,1,0,0,0,0,0,0,0,0,1186,
scooby_state_405dec|49|1 1185,0,0,0,0,0,0,0,0,0,0,0,0,0,0,1185,
scooby_state_405cac|4|1 1182,0,0,0,0,0,1,0,1,0,0,0,0,0,0,1184,
scooby_state_405cac|24|1 1182,0,0,0,0,0,0,0,0,1,0,0,0,1,0,1184,
scooby_state_405dec|51|1 1179,1,1,1,0,0,0,0,0,0,0,0,1,0,0,1183,
scooby_state_405dec|42|1 1175,1,0,0,1,0,1,1,0,0,0,1,0,0,0,1180,
scooby_state_405dec|35|1 1176,0,0,1,0,0,0,0,0,0,0,1,0,0,0,1178,
scooby_state_405dec|62|1 1172,0,0,0,0,1,0,0,0,0,0,1,0,0,0,1174,
scooby_state_405dec|24|1 1171,0,0,0,0,0,0,0,0,1,0,0,1,0,0,1173,
scooby_state_405cac|46|1 1166,0,1,1,0,0,1,0,0,1,0,0,2,0,0,1172,
scooby_state_405cac|44|1 1172,0,0,0,0,0,0,0,0,0,0,0,0,0,0,1172,
scooby_state_405dec|22|1 1172,0,0,0,0,0,0,0,0,0,0,0,0,0,0,1172,
scooby_state_405cac|42|1 1171,0,0,1,0,0,0,0,0,0,0,0,0,0,0,1172,
scooby_state_405dec|60|1 1169,0,0,0,0,0,0,1,0,1,0,0,0,0,0,1171,
scooby_state_405cac|19|1 1170,0,0,1,0,0,0,0,0,0,0,0,0,0,0,1171,
scooby_state_405cac|50|1 1169,0,0,1,0,0,0,0,0,0,0,0,0,0,0,1170,
scooby_state_405dec|4|1 1167,0,1,0,1,0,0,1,0,0,0,0,0,0,0,1170,
scooby_state_405cac|33|1 1170,0,0,0,0,0,0,0,0,0,0,0,0,0,0,1170,
scooby_state_405dec|57|1 1168,0,0,0,0,0,0,0,1,0,0,0,0,0,0,1169,
scooby_state_405cac|35|1 1164,0,0,1,1,0,0,0,0,0,1,0,1,0,0,1168,
scooby_state_405cac|26|1 1165,0,0,0,0,0,0,0,0,0,0,0,0,0,2,1167,
scooby_state_405cac|58|1 1164,1,0,0,0,0,0,0,0,1,0,1,0,0,0,1167,
scooby_state_405cac|55|1 1164,0,0,0,0,0,1,0,0,0,0,0,0,1,0,1166,
scooby_state_405dec|0|0 1160,0,1,0,1,0,0,0,0,0,1,0,0,0,0,1163,
scooby_state_405cac|45|1 1160,0,0,0,0,0,0,1,0,0,0,0,0,0,0,1161,
scooby_state_405dec|46|1 1158,0,0,0,1,1,0,0,0,0,0,0,0,0,0,1160,
scooby_state_405cac|11|1 1157,0,1,0,0,0,0,1,0,0,0,0,0,0,0,1159,
scooby_state_405cac|57|1 1157,1,0,0,0,0,0,0,0,0,0,0,0,0,1,1159,
scooby_state_405dec|1|1 1157,0,0,0,0,0,0,0,0,0,0,0,0,0,1,1158,
scooby_state_405dec|3|1 1156,0,0,0,1,0,1,0,0,0,0,0,0,0,0,1158,
scooby_state_405dec|33|1 1155,0,0,0,0,0,0,1,0,0,0,0,1,0,0,1157,
scooby_state_405dec|38|1 1153,0,0,0,0,0,1,0,1,0,0,0,0,0,0,1155,
scooby_state_405cac|17|1 1154,0,0,0,0,0,1,0,0,0,0,0,0,0,0,1155,
scooby_state_405dec|30|1 1153,0,0,0,0,0,0,1,0,0,0,0,0,0,0,1154,
scooby_state_405cac|8|1 1153,0,0,0,0,0,0,0,0,0,0,0,0,0,0,1153,
scooby_state_405dec|41|1 1150,0,1,0,0,1,0,0,0,0,0,0,0,0,0,1152,
scooby_state_405dec|13|1 1152,0,0,0,0,0,0,0,0,0,0,0,0,0,0,1152,
scooby_state_405cac|15|1 1148,0,0,0,1,0,0,0,0,0,0,0,0,0,0,1149,
scooby_state_405cac|61|1 1147,0,0,1,0,0,0,0,0,0,0,0,0,1,0,1149,
scooby_state_405dec|54|1 1143,0,0,0,0,1,0,0,0,1,0,0,0,0,0,1145,
scooby_state_405dec|44|1 1140,1,0,0,0,0,0,1,0,0,0,0,1,0,0,1143,
scooby_state_405cac|56|1 1142,0,0,0,1,0,0,0,0,0,0,0,0,0,0,1143,
scooby_state_405cac|3|1 1143,0,0,0,0,0,0,0,0,0,0,0,0,0,0,1143,
scooby_state_405cac|28|1 1140,1,1,0,0,0,0,0,0,0,0,0,0,0,0,1142,
scooby_state_405cac|38|1 1140,0,0,0,0,0,0,0,0,1,0,0,1,0,0,1142,
scooby_state_405dec|47|1 1140,0,0,0,1,0,0,0,0,0,1,0,0,0,0,1142,
scooby_state_405cac|13|1 1139,0,1,0,0,0,0,1,1,0,0,0,0,0,0,1142,
scooby_state_405dec|36|1 1141,0,0,0,0,0,0,0,0,0,0,0,0,0,0,1141,
scooby_state_405dec|58|1 1137,0,0,0,0,0,0,0,0,1,0,0,1,1,0,1140,
scooby_state_405cac|37|1 1138,0,0,0,0,0,0,0,0,0,0,1,0,1,0,1140,
scooby_state_405cac|60|1 1139,0,0,0,0,0,0,0,0,0,0,0,0,0,0,1139,
scooby_state_405cac|53|1 1135,1,2,0,0,1,0,0,0,0,0,0,0,0,0,1139,
scooby_state_405cac|14|1 1138,0,0,0,0,1,0,0,0,0,0,0,0,0,0,1139,
scooby_state_405cac|40|1 1136,0,0,0,1,0,0,0,0,0,1,0,0,0,0,1138,
scooby_state_405dec|5|1 1138,0,0,0,0,0,0,0,0,0,0,0,0,0,0,1138,
scooby_state_405dec|52|1 1135,0,0,0,0,0,0,1,0,0,0,1,1,0,0,1138,
scooby_state_405cac|6|1 1136,0,0,0,0,0,0,0,0,1,0,0,0,0,0,1137,
scooby_state_405dec|55|1 1134,0,0,0,0,0,0,2,0,0,0,0,0,0,0,1136,
scooby_state_405dec|2|1 1135,0,0,0,0,0,0,0,0,0,0,0,0,1,0,1136,
scooby_state_405cac|5|1 1133,0,0,0,0,0,0,1,0,1,0,0,0,0,0,1135,
scooby_state_405cac|39|1 1132,0,0,0,0,0,0,0,0,0,0,0,1,1,0,1134,
scooby_state_405cac|9|1 1130,0,0,0,0,0,1,0,0,0,1,1,0,1,0,1134,
scooby_state_405cac|0|0 1131,1,0,0,0,0,0,1,0,0,0,0,0,0,0,1133,
scooby_state_405cac|18|1 1130,0,0,0,0,0,0,0,0,0,0,0,0,0,1,1131,
scooby_state_405dec|43|1 1128,1,0,0,0,0,0,1,0,0,0,0,0,0,0,1130,
scooby_state_405dec|23|1 1127,0,0,0,0,1,0,0,1,0,0,0,0,0,0,1129,
scooby_state_405cac|48|1 1127,0,0,0,0,0,0,0,0,0,0,0,0,0,0,1127,
scooby_state_405cac|20|1 1127,0,0,0,0,0,0,0,0,0,0,0,0,0,0,1127,
scooby_state_405cac|59|1 1124,0,0,0,0,0,0,0,1,1,0,1,0,0,0,1127,
scooby_state_405cac|29|1 1125,0,0,0,0,0,0,0,0,1,0,1,0,0,0,1127,
scooby_state_405cac|49|1 1124,1,0,1,0,0,0,0,0,0,0,0,0,0,0,1126,
scooby_state_405dec|14|1 1124,0,0,0,0,0,1,0,0,0,1,0,0,0,0,1126,
scooby_state_405dec|45|1 1124,0,0,0,0,0,0,0,0,0,0,1,0,0,0,1125,
scooby_state_405cac|51|1 1120,1,0,0,1,1,1,0,0,0,0,0,0,0,0,1124,
scooby_state_405dec|63|1 1121,1,0,0,0,0,0,0,0,0,0,1,0,0,0,1123,
scooby_state_405cac|62|1 1123,0,0,0,0,0,0,0,0,0,0,0,0,0,0,1123,
scooby_state_405cac|16|1 1121,0,0,0,0,0,0,1,0,0,1,0,0,0,0,1123,
scooby_state_405dec|21|1 1121,0,0,0,0,0,1,0,0,0,0,0,0,0,0,1122,
scooby_state_405cac|36|1 1117,0,0,0,2,0,0,0,1,0,1,0,0,0,0,1121,
scooby_state_405dec|12|1 1120,0,0,0,0,0,0,0,0,1,0,0,0,0,0,1121,
scooby_state_405cac|47|1 1119,1,0,0,0,1,0,0,0,0,0,0,0,0,0,1121,
scooby_state_405dec|16|1 1120,0,1,0,0,0,0,0,0,0,0,0,0,0,0,1121,
scooby_state_405cac|31|1 1112,0,1,0,0,0,0,0,0,0,0,0,0,0,1,1114,
scooby_state_405cac|2|1 1111,0,0,0,0,0,1,1,0,0,0,0,0,0,0,1113,
scooby_state_405dec|56|1 1111,0,0,0,0,0,0,1,0,0,0,0,0,0,0,1112,
scooby_state_405dec|32|1 1110,0,0,0,1,0,1,0,0,0,0,0,0,0,0,1112,
scooby_state_405cac|27|1 1106,0,0,2,0,0,0,0,0,0,0,1,0,0,0,1109,
scooby_state_405dec|25|1 1108,0,0,0,0,0,0,0,1,0,0,0,0,0,0,1109,
scooby_state_405dec|10|1 1106,0,0,0,0,0,1,0,0,0,0,0,1,0,0,1108,
scooby_state_405dec|34|1 1104,0,0,0,0,0,0,1,0,0,2,0,0,0,0,1107,
scooby_state_405cac|25|1 1104,0,1,0,0,0,0,1,0,0,0,0,0,0,0,1106,
scooby_state_405cac|1|1 1074,0,1,0,0,0,0,0,1,0,0,0,1,0,0,1077,
scooby_state_405cac|7|1 1075,0,0,0,0,0,0,0,0,0,0,0,0,0,0,1075,
scooby_state_405d16|11|-1 132,0,0,0,0,0,0,0,0,0,0,0,0,0,0,132,
scooby_state_405d1d|14|3 132,0,0,0,0,0,0,0,0,0,0,0,0,0,0,132,
scooby_state_405bdd|15|-1 1,75,1,53,0,0,0,0,2,0,0,0,0,0,0,132,
scooby_state_405bd6|16|-1 1,1,130,0,0,0,0,0,0,0,0,0,0,0,0,132,
scooby_state_405cd4|4|0 7,6,6,12,6,8,6,6,6,6,6,6,9,4,38,132,
scooby_state_405d00|12|-3 2,1,1,1,1,1,1,1,1,1,1,120,0,0,0,132,
scooby_state_405ac3|19|5 131,0,0,0,0,0,0,0,0,0,0,0,0,0,0,131,
scooby_state_404375|5|-3 128,1,0,0,0,0,0,0,0,0,0,0,1,0,1,131,
scooby_state_405bc0|17|11 75,56,0,0,0,0,0,0,0,0,0,0,0,0,0,131,
scooby_state_4043c6|6|1 1,1,1,1,127,0,0,0,0,0,0,0,0,0,0,131,
scooby_state_405bf2|33|0 129,0,0,0,0,2,0,0,0,0,0,0,0,0,0,131,
scooby_state_405b8e|4|0 131,0,0,0,0,0,0,0,0,0,0,0,0,0,0,131,
scooby_state_404a26|7|-13 131,0,0,0,0,0,0,0,0,0,0,0,0,0,0,131,
scooby_state_405e1a|42|-1 130,0,1,0,0,0,0,0,0,0,0,0,0,0,0,131,
scooby_state_405b23|45|1 130,0,0,0,0,0,1,0,0,0,0,0,0,0,0,131,
scooby_state_404a74|8|1 11,1,1,1,1,1,115,0,0,0,0,0,0,0,0,131,
scooby_state_405b0d|44|2 131,0,0,0,0,0,0,0,0,0,0,0,0,0,0,131,
scooby_state_405acd|20|1 1,1,1,1,1,1,1,1,1,1,1,1,119,0,0,131,
scooby_state_404bb7|58|0 10,9,10,9,7,6,6,7,7,6,6,10,10,11,17,131,
scooby_state_405ce0|43|-2 130,0,0,0,0,0,0,0,0,0,0,0,0,0,0,130,
scooby_state_404ba3|31|0 3,1,2,1,2,1,1,1,1,1,1,1,0,0,0,16,
scooby_state_404ba3|30|0 1,1,0,1,0,1,1,0,0,0,0,0,1,1,2,9,
scooby_state_40450c|48|0 8,0,0,0,0,0,0,0,0,0,0,0,0,0,0,8,
scooby_state_404ba3|52|0 1,1,1,0,0,0,0,0,0,0,1,0,0,1,3,8,
scooby_state_404578|29|0 8,0,0,0,0,0,0,0,0,0,0,0,0,0,0,8,
scooby_state_404552|11|0 8,0,0,0,0,0,0,0,0,0,0,0,0,0,0,8,
scooby_state_404552|42|0 8,0,0,0,0,0,0,0,0,0,0,0,0,0,0,8,
scooby_state_404bfc|7|0 8,0,0,0,0,0,0,0,0,0,0,0,0,0,0,8,
scooby_state_404bfc|10|0 5,0,0,0,0,0,0,3,0,0,0,0,0,0,0,8,
scooby_state_404578|30|0 8,0,0,0,0,0,0,0,0,0,0,0,0,0,0,8,
scooby_state_404580|26|0 0,0,0,0,0,0,0,8,0,0,0,0,0,0,0,8,
scooby_state_404be8|37|0 8,0,0,0,0,0,0,0,0,0,0,0,0,0,0,8,
scooby_state_404580|11|0 0,0,0,0,0,0,0,8,0,0,0,0,0,0,0,8,
scooby_state_404be8|8|0 8,0,0,0,0,0,0,0,0,0,0,0,0,0,0,8,
scooby_state_404be8|34|0 8,0,0,0,0,0,0,0,0,0,0,0,0,0,0,8,
scooby_state_404be8|63|0 8,0,0,0,0,0,0,0,0,0,0,0,0,0,0,8,
scooby_state_40450c|57|0 8,0,0,0,0,0,0,0,0,0,0,0,0,0,0,8,
scooby_state_404578|57|0 8,0,0,0,0,0,0,0,0,0,0,0,0,0,0,8,
scooby_state_404bfc|36|0 8,0,0,0,0,0,0,0,0,0,0,0,0,0,0,8,
scooby_state_40450c|20|0 8,0,0,0,0,0,0,0,0,0,0,0,0,0,0,8,
scooby_state_40451c|25|0 1,1,1,0,0,0,1,1,1,1,0,0,0,0,1,8,
scooby_state_404ba3|11|0 1,0,0,0,1,0,0,1,1,0,0,1,1,0,2,8,
scooby_state_40450c|18|0 8,0,0,0,0,0,0,0,0,0,0,0,0,0,0,8,
scooby_state_40451c|17|0 3,0,1,0,0,0,0,1,1,1,0,0,0,0,1,8,
scooby_state_404be8|1|0 8,0,0,0,0,0,0,0,0,0,0,0,0,0,0,8,
scooby_state_404552|41|0 8,0,0,0,0,0,0,0,0,0,0,0,0,0,0,8,
scooby_state_40450c|49|0 8,0,0,0,0,0,0,0,0,0,0,0,0,0,0,8,
scooby_state_404bfc|44|0 7,0,0,0,0,0,0,1,0,0,0,0,0,0,0,8,
scooby_state_404561|10|0 0,1,1,1,1,1,0,0,0,0,0,1,1,0,1,8,
scooby_state_404578|56|0 8,0,0,0,0,0,0,0,0,0,0,0,0,0,0,8,
scooby_state_404ba3|49|0 1,1,0,0,0,0,0,0,1,0,0,0,0,2,3,8,
scooby_state_404ba3|53|0 0,0,0,1,1,1,1,0,0,0,0,1,0,1,2,8,
scooby_state_404be8|7|0 8,0,0,0,0,0,0,0,0,0,0,0,0,0,0,8,
scooby_state_404552|15|0 8,0,0,0,0,0,0,0,0,0,0,0,0,0,0,8,
scooby_state_404552|13|0 8,0,0,0,0,0,0,0,0,0,0,0,0,0,0,8,
scooby_state_404578|42|0 8,0,0,0,0,0,0,0,0,0,0,0,0,0,0,8,
scooby_state_404bfc|45|0 6,0,0,0,0,0,0,2,0,0,0,0,0,0,0,8,
scooby_state_404580|25|0 0,0,0,0,0,0,0,8,0,0,0,0,0,0,0,8,
scooby_state_404bfc|38|0 8,0,0,0,0,0,0,0,0,0,0,0,0,0,0,8,
scooby_state_40451c|54|33 8,0,0,0,0,0,0,0,0,0,0,0,0,0,0,8,
scooby_state_404552|14|0 8,0,0,0,0,0,0,0,0,0,0,0,0,0,0,8,
scooby_state_404578|44|0 8,0,0,0,0,0,0,0,0,0,0,0,0,0,0,8,
scooby_state_404be8|38|0 8,0,0,0,0,0,0,0,0,0,0,0,0,0,0,8,
scooby_state_404578|26|0 8,0,0,0,0,0,0,0,0,0,0,0,0,0,0,8,
scooby_state_40451c|53|33 8,0,0,0,0,0,0,0,0,0,0,0,0,0,0,8,
scooby_state_404be8|36|0 8,0,0,0,0,0,0,0,0,0,0,0,0,0,0,8,
scooby_state_40450c|54|0 8,0,0,0,0,0,0,0,0,0,0,0,0,0,0,8,
scooby_state_404bfc|34|0 4,0,0,0,0,0,0,0,0,0,0,1,1,1,1,8,
scooby_state_404552|27|0 8,0,0,0,0,0,0,0,0,0,0,0,0,0,0,8,
scooby_state_404ba3|7|0 0,1,1,1,1,0,0,0,0,0,0,1,0,1,2,8,
scooby_state_404580|12|0 0,0,0,0,0,0,0,8,0,0,0,0,0,0,0,8,
scooby_state_404ba3|50|0 1,0,1,1,0,0,0,0,0,0,0,0,0,0,5,8,
scooby_state_404578|27|0 8,0,0,0,0,0,0,0,0,0,0,0,0,0,0,8,
scooby_state_404580|10|0 0,0,0,0,0,1,0,3,0,0,0,1,1,1,1,8,
scooby_state_40451c|18|0 0,1,0,1,0,1,3,0,0,0,1,0,0,0,1,8,
scooby_state_404578|15|0 8,0,0,0,0,0,0,0,0,0,0,0,0,0,0,8,
scooby_state_404ba3|9|0 1,0,0,1,1,0,0,0,0,0,0,1,1,1,2,8,
scooby_state_404ba3|10|0 0,1,1,0,0,1,1,0,0,2,1,0,0,0,1,8,
scooby_state_40450c|55|0 8,0,0,0,0,0,0,0,0,0,0,0,0,0,0,8,
scooby_state_404bfc|35|0 7,0,0,0,0,0,0,0,0,0,0,0,0,0,1,8,
scooby_state_404552|29|0 8,0,0,0,0,0,0,0,0,0,0,0,0,0,0,8,
scooby_state_404be8|62|0 8,0,0,0,0,0,0,0,0,0,0,0,0,0,0,8,
scooby_state_404580|13|0 0,0,0,0,0,0,0,8,0,0,0,0,0,0,0,8,
scooby_state_404be8|61|0 8,0,0,0,0,0,0,0,0,0,0,0,0,0,0,8,
scooby_state_40450c|53|0 8,0,0,0,0,0,0,0,0,0,0,0,0,0,0,8,
scooby_state_40451c|52|33 8,0,0,0,0,0,0,0,0,0,0,0,0,0,0,8,
scooby_state_404552|12|0 8,0,0,0,0,0,0,0,0,0,0,0,0,0,0,8,
scooby_state_404552|26|0 8,0,0,0,0,0,0,0,0,0,0,0,0,0,0,8,
scooby_state_40451c|51|33 8,0,0,0,0,0,0,0,0,0,0,0,0,0,0,8,
scooby_state_40451c|23|0 0,3,1,1,0,0,0,0,0,1,0,0,0,1,1,8,
scooby_state_404578|43|0 8,0,0,0,0,0,0,0,0,0,0,0,0,0,0,8,
scooby_state_40450c|21|0 8,0,0,0,0,0,0,0,0,0,0,0,0,0,0,8,
scooby_state_404578|41|0 8,0,0,0,0,0,0,0,0,0,0,0,0,0,0,8,
scooby_state_404bfc|37|0 7,0,0,0,0,0,0,0,0,0,0,0,0,0,1,8,
scooby_state_404be8|0|0 8,0,0,0,0,0,0,0,0,0,0,0,0,0,0,8,
scooby_state_404bfc|9|0 6,0,0,0,0,0,0,2,0,0,0,0,0,0,0,8,
scooby_state_404be8|35|0 8,0,0,0,0,0,0,0,0,0,0,0,0,0,0,8,
scooby_state_404561|11|0 1,1,0,0,0,0,1,1,1,1,1,0,0,0,1,8,
scooby_state_404552|28|0 8,0,0,0,0,0,0,0,0,0,0,0,0,0,0,8,
scooby_state_40451c|24|0 0,0,0,1,1,1,0,0,0,0,1,1,1,1,1,8,
scooby_state_404ba3|8|0 0,1,1,0,0,1,1,0,0,1,1,0,0,0,2,8,
scooby_state_40450c|56|0 8,0,0,0,0,0,0,0,0,0,0,0,0,0,0,8,
scooby_state_40450c|19|0 8,0,0,0,0,0,0,0,0,0,0,0,0,0,0,8,
scooby_state_404552|30|0 8,0,0,0,0,0,0,0,0,0,0,0,0,0,0,8,
scooby_state_40451c|26|0 0,0,0,1,0,1,1,1,1,0,1,1,0,0,1,8,
scooby_state_40451c|56|33 8,0,0,0,0,0,0,0,0,0,0,0,0,0,0,8,
scooby_state_40451c|55|33 8,0,0,0,0,0,0,0,0,0,0,0,0,0,0,8,
scooby_state_404578|45|0 8,0,0,0,0,0,0,0,0,0,0,0,0,0,0,8,
scooby_state_404578|28|0 8,0,0,0,0,0,0,0,0,0,0,0,0,0,0,8,
scooby_state_40450c|22|0 8,0,0,0,0,0,0,0,0,0,0,0,0,0,0,8,
scooby_state_40451c|22|0 0,0,0,0,0,1,1,1,1,1,1,1,1,0,0,8,
scooby_state_404bfc|8|0 6,0,0,0,0,0,0,2,0,0,0,0,0,0,0,8,
scooby_state_404ba3|51|0 0,0,0,0,1,1,1,1,0,1,0,1,1,0,1,8,
scooby_state_404580|14|0 0,0,0,0,0,0,0,8,0,0,0,0,0,0,0,8,
scooby_state_404bfc|11|0 5,0,0,0,0,0,0,3,0,0,0,0,0,0,0,8,
scooby_state_404552|0|0 7,0,0,0,0,0,0,0,0,0,0,0,0,0,0,7,
scooby_state_404ba3|29|0 1,0,0,0,1,0,0,1,1,1,0,1,0,0,1,7,
scooby_state_40450c|27|0 4,1,1,1,0,0,0,0,0,0,0,0,0,0,0,7,
scooby_state_404ba3|12|0 0,1,1,1,0,1,1,0,0,0,1,0,0,1,0,7,
scooby_state_40450c|23|0 7,0,0,0,0,0,0,0,0,0,0,0,0,0,0,7,
scooby_state_404578|55|0 7,0,0,0,0,0,0,0,0,0,0,0,0,0,0,7,
scooby_state_40451c|60|33 6,0,0,0,0,0,0,0,0,0,0,0,0,0,0,6,
scooby_state_404bfc|39|0 6,0,0,0,0,0,0,0,0,0,0,0,0,0,0,6,
scooby_state_404580|0|0 0,0,0,0,0,0,0,0,0,1,5,0,0,0,0,6,
scooby_state_404578|40|0 6,0,0,0,0,0,0,0,0,0,0,0,0,0,0,6,
scooby_state_404bfc|2|0 2,0,0,0,0,1,1,1,1,0,0,0,0,0,0,6,
scooby_state_404bfc|1|0 2,1,1,1,1,0,0,0,0,0,0,0,0,0,0,6,
scooby_state_40450c|52|0 4,0,0,0,0,1,1,0,0,0,0,0,0,0,0,6,
scooby_state_404be8|39|0 6,0,0,0,0,0,0,0,0,0,0,0,0,0,0,6,
scooby_state_40451c|61|33 6,0,0,0,0,0,0,0,0,0,0,0,0,0,0,6,
scooby_state_404be8|28|0 6,0,0,0,0,0,0,0,0,0,0,0,0,0,0,6,
scooby_state_404bfc|12|0 4,0,0,0,0,0,0,2,0,0,0,0,0,0,0,6,
scooby_state_404561|0|0 1,0,0,0,0,0,1,1,1,0,0,0,1,1,0,6,
scooby_state_404552|40|0 6,0,0,0,0,0,0,0,0,0,0,0,0,0,0,6,
scooby_state_404be8|29|0 6,0,0,0,0,0,0,0,0,0,0,0,0,0,0,6,
scooby_state_404be8|2|0 6,0,0,0,0,0,0,0,0,0,0,0,0,0,0,6,
scooby_state_404580|59|33 0,0,0,0,0,0,0,0,0,0,0,0,5,0,0,5,
scooby_state_404561|60|33 0,0,0,0,0,0,0,1,0,0,1,1,0,0,2,5,
scooby_state_404561|46|33 0,1,0,0,0,1,0,0,0,0,0,1,1,1,0,5,
scooby_state_404561|48|33 0,0,1,0,0,0,0,0,0,1,0,1,0,0,2,5,
scooby_state_404ba3|54|0 1,0,0,0,0,0,0,1,1,0,0,0,1,0,1,5,
scooby_state_404580|60|33 0,0,0,0,0,0,0,0,0,0,0,0,5,0,0,5,
scooby_state_40451c|21|0 1,1,1,1,1,0,0,0,0,0,0,0,0,0,0,5,
scooby_state_404580|48|33 1,1,1,1,1,0,0,0,0,0,0,0,0,0,0,5,
scooby_state_404561|63|33 0,0,0,0,0,1,0,0,0,0,0,1,1,1,1,5,
scooby_state_404578|25|0 5,0,0,0,0,0,0,0,0,0,0,0,0,0,0,5,
scooby_state_404561|61|33 0,0,1,0,1,0,0,0,1,0,0,0,1,0,1,5,
scooby_state_404580|61|33 0,0,0,0,0,0,0,0,0,0,0,0,5,0,0,5,
scooby_state_404be8|9|0 5,0,0,0,0,0,0,0,0,0,0,0,0,0,0,5,
scooby_state_404bfc|46|0 5,0,0,0,0,0,0,0,0,0,0,0,0,0,0,5,
scooby_state_404561|44|33 0,0,0,0,0,0,0,0,0,0,1,1,1,1,1,5,
scooby_state_404580|15|0 0,0,0,0,0,0,0,5,0,0,0,0,0,0,0,5,
scooby_state_404561|59|33 0,1,0,0,0,1,1,0,0,0,0,0,1,1,0,5,
scooby_state_40450c|28|0 4,0,0,0,1,0,0,0,0,0,0,0,0,0,0,5,
scooby_state_404561|34|33 0,0,0,0,1,1,1,1,1,0,0,0,0,0,0,5,
scooby_state_404580|63|33 0,0,0,0,0,0,0,0,0,0,0,0,5,0,0,5,
scooby_state_404561|47|33 0,0,1,1,0,0,1,1,1,0,0,0,0,0,0,5,
scooby_state_404580|62|33 0,0,0,0,0,0,0,0,0,0,0,0,5,0,0,5,
scooby_state_404561|62|33 1,1,0,1,0,0,0,0,0,1,0,0,0,0,1,5,
scooby_state_404552|25|0 5,0,0,0,0,0,0,0,0,0,0,0,0,0,0,5,
scooby_state_404552|1|0 5,0,0,0,0,0,0,0,0,0,0,0,0,0,0,5,
scooby_state_404561|45|33 1,0,0,0,1,0,0,0,0,0,1,0,0,0,2,5,
scooby_state_404580|24|0 0,0,0,0,0,0,0,4,0,0,0,0,0,0,0,4,
scooby_state_404561|49|33 1,0,0,1,1,0,0,0,0,0,0,0,0,0,1,4,
scooby_state_404561|33|33 1,1,1,1,0,0,0,0,0,0,0,0,0,0,0,4,
scooby_state_40450c|47|0 4,0,0,0,0,0,0,0,0,0,0,0,0,0,0,4,
scooby_state_404580|49|33 0,0,0,0,1,1,1,1,0,0,0,0,0,0,0,4,
scooby_state_404552|10|0 4,0,0,0,0,0,0,0,0,0,0,0,0,0,0,4,
scooby_state_404561|12|0 0,0,1,1,1,0,0,0,0,0,0,0,1,0,0,4,
scooby_state_404578|16|0 4,0,0,0,0,0,0,0,0,0,0,0,0,0,0,4,
scooby_state_40451c|19|0 1,0,0,0,1,0,0,0,0,0,0,1,1,0,0,4,
scooby_state_404552|16|0 4,0,0,0,0,0,0,0,0,0,0,0,0,0,0,4,
scooby_state_404ba3|32|0 0,0,0,0,0,0,0,1,1,1,0,0,0,0,0,3,
scooby_state_404580|63|34 3,0,0,0,0,0,0,0,0,0,0,0,0,0,0,3,
scooby_state_40450c|50|0 3,0,0,0,0,0,0,0,0,0,0,0,0,0,0,3,
scooby_state_404561|63|34 3,0,0,0,0,0,0,0,0,0,0,0,0,0,0,3,
scooby_state_404561|59|34 3,0,0,0,0,0,0,0,0,0,0,0,0,0,0,3,
scooby_state_404561|62|34 3,0,0,0,0,0,0,0,0,0,0,0,0,0,0,3,
scooby_state_404580|61|34 3,0,0,0,0,0,0,0,0,0,0,0,0,0,0,3,
scooby_state_404b33|44|0 3,0,0,0,0,0,0,0,0,0,0,0,0,0,0,3,
scooby_state_405c30|42|0 3,0,0,0,0,0,0,0,0,0,0,0,0,0,0,3,
scooby_state_404b33|37|0 2,0,0,1,0,0,0,0,0,0,0,0,0,0,0,3,
scooby_state_404b33|30|0 2,0,0,0,1,0,0,0,0,0,0,0,0,0,0,3,
scooby_state_404b33|33|0 2,0,0,0,0,0,1,0,0,0,0,0,0,0,0,3,
scooby_state_404561|49|34 3,0,0,0,0,0,0,0,0,0,0,0,0,0,0,3,
scooby_state_404578|31|0 3,0,0,0,0,0,0,0,0,0,0,0,0,0,0,3,
scooby_state_404b33|19|0 2,0,0,0,0,0,0,1,0,0,0,0,0,0,0,3,
scooby_state_40451c|27|0 0,0,0,0,1,0,0,0,0,0,0,0,1,1,0,3,
scooby_state_404561|34|34 3,0,0,0,0,0,0,0,0,0,0,0,0,0,0,3,
scooby_state_404ba3|48|0 0,0,0,0,0,0,0,0,0,0,1,1,1,0,0,3,
scooby_state_404580|9|0 0,0,0,0,0,0,0,0,0,0,3,0,0,0,0,3,
scooby_state_404b33|47|0 3,0,0,0,0,0,0,0,0,0,0,0,0,0,0,3,
scooby_state_405d70|42|0 3,0,0,0,0,0,0,0,0,0,0,0,0,0,0,3,
scooby_state_404561|48|34 3,0,0,0,0,0,0,0,0,0,0,0,0,0,0,3,
scooby_state_404b33|12|0 0,0,0,0,0,0,0,1,0,1,0,0,0,0,1,3,
scooby_state_404580|49|34 3,0,0,0,0,0,0,0,0,0,0,0,0,0,0,3,
scooby_state_405c30|62|0 3,0,0,0,0,0,0,0,0,0,0,0,0,0,0,3,
scooby_state_404b33|2|0 1,0,0,0,0,0,1,1,0,0,0,0,0,0,0,3,
scooby_state_40451c|16|0 2,1,0,0,0,0,0,0,0,0,0,0,0,0,0,3,
scooby_state_405d70|59|0 3,0,0,0,0,0,0,0,0,0,0,0,0,0,0,3,
scooby_state_404580|27|0 0,0,0,0,0,0,0,3,0,0,0,0,0,0,0,3,
scooby_state_404561|61|34 3,0,0,0,0,0,0,0,0,0,0,0,0,0,0,3,
scooby_state_404b33|26|0 1,0,1,1,0,0,0,0,0,0,0,0,0,0,0,3,
scooby_state_404b33|9|0 1,0,0,0,0,0,0,0,0,0,0,0,1,1,0,3,
scooby_state_404b33|51|0 3,0,0,0,0,0,0,0,0,0,0,0,0,0,0,3,
scooby_state_404b33|40|0 1,0,0,0,0,0,1,0,0,0,0,0,1,0,0,3,
scooby_state_404561|60|34 3,0,0,0,0,0,0,0,0,0,0,0,0,0,0,3,
scooby_state_404580|59|34 3,0,0,0,0,0,0,0,0,0,0,0,0,0,0,3,
scooby_state_404561|45|34 3,0,0,0,0,0,0,0,0,0,0,0,0,0,0,3,
scooby_state_404561|47|34 3,0,0,0,0,0,0,0,0,0,0,0,0,0,0,3,
scooby_state_404b33|5|0 2,0,0,0,0,0,0,0,0,1,0,0,0,0,0,3,
scooby_state_404b33|54|0 3,0,0,0,0,0,0,0,0,0,0,0,0,0,0,3,
scooby_state_404b33|16|0 2,0,0,0,0,0,0,0,0,0,0,0,0,1,0,3,
scooby_state_404580|62|34 3,0,0,0,0,0,0,0,0,0,0,0,0,0,0,3,
scooby_state_404b33|23|0 1,0,0,0,0,0,0,1,0,0,0,0,0,0,1,3,
scooby_state_404580|60|34 3,0,0,0,0,0,0,0,0,0,0,0,0,0,0,3,
scooby_state_404561|46|34 3,0,0,0,0,0,0,0,0,0,0,0,0,0,0,3,
scooby_state_405c30|26|0 3,0,0,0,0,0,0,0,0,0,0,0,0,0,0,3,
scooby_state_404552|31|0 3,0,0,0,0,0,0,0,0,0,0,0,0,0,0,3,
scooby_state_404561|9|0 0,0,0,0,0,0,0,0,0,2,1,0,0,0,0,3,
scooby_state_404561|44|34 3,0,0,0,0,0,0,0,0,0,0,0,0,0,0,3,
scooby_state_404b33|4|0 2,0,0,0,0,0,0,0,0,0,0,0,0,0,0,2,
scooby_state_404b33|21|0 1,0,0,0,0,0,0,0,1,0,0,0,0,0,0,2,
scooby_state_405c30|1|0 2,0,0,0,0,0,0,0,0,0,0,0,0,0,0,2,
scooby_state_405c30|31|0 2,0,0,0,0,0,0,0,0,0,0,0,0,0,0,2,
scooby_state_405d70|48|0 2,0,0,0,0,0,0,0,0,0,0,0,0,0,0,2,
scooby_state_404bfc|33|0 0,0,0,0,0,0,0,0,0,1,1,0,0,0,0,2,
scooby_state_404b33|3|0 1,0,0,0,0,0,0,0,1,0,0,0,0,0,0,2,
scooby_state_405c30|30|0 2,0,0,0,0,0,0,0,0,0,0,0,0,0,0,2,
scooby_state_404b33|13|0 1,0,0,0,1,0,0,0,0,0,0,0,0,0,0,2,
scooby_state_405c30|50|0 2,0,0,0,0,0,0,0,0,0,0,0,0,0,0,2,
scooby_state_405c30|48|0 2,0,0,0,0,0,0,0,0,0,0,0,0,0,0,2,
scooby_state_405d70|35|0 2,0,0,0,0,0,0,0,0,0,0,0,0,0,0,2,
scooby_state_404b33|46|0 2,0,0,0,0,0,0,0,0,0,0,0,0,0,0,2,
scooby_state_405d70|34|0 2,0,0,0,0,0,0,0,0,0,0,0,0,0,0,2,
scooby_state_404b33|53|0 2,0,0,0,0,0,0,0,0,0,0,0,0,0,0,2,
scooby_state_405c30|4|0 2,0,0,0,0,0,0,0,0,0,0,0,0,0,0,2,
scooby_state_405d70|8|0 2,0,0,0,0,0,0,0,0,0,0,0,0,0,0,2,
scooby_state_404b33|22|0 0,0,0,0,0,0,0,0,0,0,0,1,1,0,0,2,
scooby_state_404b33|41|0 2,0,0,0,0,0,0,0,0,0,0,0,0,0,0,2,
scooby_state_404b33|62|0 1,1,0,0,0,0,0,0,0,0,0,0,0,0,0,2,
scooby_state_405c30|6|0 2,0,0,0,0,0,0,0,0,0,0,0,0,0,0,2,
scooby_state_404b33|27|0 0,0,0,0,0,0,0,1,0,1,0,0,0,0,0,2,
scooby_state_404b33|17|0 2,0,0,0,0,0,0,0,0,0,0,0,0,0,0,2,
scooby_state_404b33|52|0 2,0,0,0,0,0,0,0,0,0,0,0,0,0,0,2,
scooby_state_405d70|32|0 2,0,0,0,0,0,0,0,0,0,0,0,0,0,0,2,
scooby_state_404bb2|31|1 2,0,0,0,0,0,0,0,0,0,0,0,0,0,0,2,
scooby_state_405c2a|13|0 2,0,0,0,0,0,0,0,0,0,0,0,0,0,0,2,
scooby_state_405d70|52|0 2,0,0,0,0,0,0,0,0,0,0,0,0,0,0,2,
scooby_state_404580|58|33 0,0,0,0,0,0,0,0,1,0,0,0,1,0,0,2,
scooby_state_405c30|27|0 2,0,0,0,0,0,0,0,0,0,0,0,0,0,0,2,
scooby_state_404b33|0|0 1,0,0,0,1,0,0,0,0,0,0,0,0,0,0,2,
scooby_state_404b33|35|0 2,0,0,0,0,0,0,0,0,0,0,0,0,0,0,2,
scooby_state_404b33|63|0 0,0,1,1,0,0,0,0,0,0,0,0,0,0,0,2,
scooby_state_405d70|11|0 2,0,0,0,0,0,0,0,0,0,0,0,0,0,0,2,
scooby_state_405c30|44|0 2,0,0,0,0,0,0,0,0,0,0,0,0,0,0,2,
scooby_state_405d70|44|0 2,0,0,0,0,0,0,0,0,0,0,0,0,0,0,2,
scooby_state_405d70|56|0 2,0,0,0,0,0,0,0,0,0,0,0,0,0,0,2,
scooby_state_405d70|63|0 2,0,0,0,0,0,0,0,0,0,0,0,0,0,0,2,
scooby_state_405d70|2|0 2,0,0,0,0,0,0,0,0,0,0,0,0,0,0,2,
scooby_state_40450c|58|0 2,0,0,0,0,0,0,0,0,0,0,0,0,0,0,2,
scooby_state_405c30|58|0 2,0,0,0,0,0,0,0,0,0,0,0,0,0,0,2,
scooby_state_405d70|12|0 2,0,0,0,0,0,0,0,0,0,0,0,0,0,0,2,
scooby_state_405c30|55|0 2,0,0,0,0,0,0,0,0,0,0,0,0,0,0,2,
scooby_state_405d70|7|0 2,0,0,0,0,0,0,0,0,0,0,0,0,0,0,2,
scooby_state_405c30|40|0 2,0,0,0,0,0,0,0,0,0,0,0,0,0,0,2,
scooby_state_404b33|11|0 1,0,0,0,0,0,0,0,0,0,1,0,0,0,0,2,
scooby_state_405c30|49|0 2,0,0,0,0,0,0,0,0,0,0,0,0,0,0,2,
scooby_state_405c30|56|0 2,0,0,0,0,0,0,0,0,0,0,0,0,0,0,2,
scooby_state_405c30|25|0 2,0,0,0,0,0,0,0,0,0,0,0,0,0,0,2,
scooby_state_404b33|42|0 2,0,0,0,0,0,0,0,0,0,0,0,0,0,0,2,
scooby_state_405d70|33|0 2,0,0,0,0,0,0,0,0,0,0,0,0,0,0,2,
scooby_state_404b33|18|0 2,0,0,0,0,0,0,0,0,0,0,0,0,0,0,2,
scooby_state_404b33|14|0 2,0,0,0,0,0,0,0,0,0,0,0,0,0,0,2,
scooby_state_405c30|60|0 2,0,0,0,0,0,0,0,0,0,0,0,0,0,0,2,
scooby_state_405d70|60|0 2,0,0,0,0,0,0,0,0,0,0,0,0,0,0,2,
scooby_state_404b33|15|0 2,0,0,0,0,0,0,0,0,0,0,0,0,0,0,2,
scooby_state_405c30|29|0 2,0,0,0,0,0,0,0,0,0,0,0,0,0,0,2,
scooby_state_405d70|29|0 2,0,0,0,0,0,0,0,0,0,0,0,0,0,0,2,
scooby_state_405c30|43|0 2,0,0,0,0,0,0,0,0,0,0,0,0,0,0,2,
scooby_state_405c30|0|0 2,0,0,0,0,0,0,0,0,0,0,0,0,0,0,2,
scooby_state_404b33|6|0 1,0,0,0,0,0,0,0,0,0,1,0,0,0,0,2,
scooby_state_404561|58|33 0,0,0,0,0,0,0,0,0,0,0,0,0,2,0,2,
scooby_state_405d70|40|0 2,0,0,0,0,0,0,0,0,0,0,0,0,0,0,2,
scooby_state_404be8|60|0 2,0,0,0,0,0,0,0,0,0,0,0,0,0,0,2,
scooby_state_405d70|23|0 2,0,0,0,0,0,0,0,0,0,0,0,0,0,0,2,
scooby_state_405d70|58|0 2,0,0,0,0,0,0,0,0,0,0,0,0,0,0,2,
scooby_state_405d70|16|0 2,0,0,0,0,0,0,0,0,0,0,0,0,0,0,2,
scooby_state_405d70|9|0 2,0,0,0,0,0,0,0,0,0,0,0,0,0,0,2,
scooby_state_405c30|5|0 2,0,0,0,0,0,0,0,0,0,0,0,0,0,0,2,
scooby_state_405d70|50|0 2,0,0,0,0,0,0,0,0,0,0,0,0,0,0,2,
scooby_state_405d70|0|0 2,0,0,0,0,0,0,0,0,0,0,0,0,0,0,2,
scooby_state_405d70|3|0 2,0,0,0,0,0,0,0,0,0,0,0,0,0,0,2,
scooby_state_404b33|7|0 1,0,0,0,0,0,0,0,0,0,0,1,0,0,0,2,
scooby_state_404b33|8|0 2,0,0,0,0,0,0,0,0,0,0,0,0,0,0,2,
scooby_state_405d70|5|0 2,0,0,0,0,0,0,0,0,0,0,0,0,0,0,2,
scooby_state_405d70|21|0 2,0,0,0,0,0,0,0,0,0,0,0,0,0,0,2,
scooby_state_405c30|38|0 2,0,0,0,0,0,0,0,0,0,0,0,0,0,0,2,
scooby_state_405d70|38|0 2,0,0,0,0,0,0,0,0,0,0,0,0,0,0,2,
scooby_state_405c30|54|0 2,0,0,0,0,0,0,0,0,0,0,0,0,0,0,2,
scooby_state_405d70|54|0 2,0,0,0,0,0,0,0,0,0,0,0,0,0,0,2,
scooby_state_405d70|55|0 2,0,0,0,0,0,0,0,0,0,0,0,0,0,0,2,
scooby_state_405c30|18|0 2,0,0,0,0,0,0,0,0,0,0,0,0,0,0,2,
scooby_state_405d70|18|0 2,0,0,0,0,0,0,0,0,0,0,0,0,0,0,2,
scooby_state_404b33|34|0 1,0,0,0,0,0,0,0,0,0,0,0,0,1,0,2,
scooby_state_405c30|51|0 2,0,0,0,0,0,0,0,0,0,0,0,0,0,0,2,
scooby_state_405c30|20|0 2,0,0,0,0,0,0,0,0,0,0,0,0,0,0,2,
scooby_state_405c30|53|0 2,0,0,0,0,0,0,0,0,0,0,0,0,0,0,2,
scooby_state_405c30|22|0 2,0,0,0,0,0,0,0,0,0,0,0,0,0,0,2,
scooby_state_405d70|22|0 2,0,0,0,0,0,0,0,0,0,0,0,0,0,0,2,
scooby_state_404b33|38|0 0,0,0,0,0,1,0,0,0,0,0,1,0,0,0,2,
scooby_state_404b33|32|0 2,0,0,0,0,0,0,0,0,0,0,0,0,0,0,2,
scooby_state_404b33|39|0 1,0,0,0,0,0,0,1,0,0,0,0,0,0,0,2,
scooby_state_405c30|24|0 2,0,0,0,0,0,0,0,0,0,0,0,0,0,0,2,
scooby_state_405d70|24|0 2,0,0,0,0,0,0,0,0,0,0,0,0,0,0,2,
scooby_state_405c30|57|0 2,0,0,0,0,0,0,0,0,0,0,0,0,0,0,2,
scooby_state_405c30|59|0 2,0,0,0,0,0,0,0,0,0,0,0,0,0,0,2,
scooby_state_404b33|43|0 2,0,0,0,0,0,0,0,0,0,0,0,0,0,0,2,
scooby_state_404578|46|0 2,0,0,0,0,0,0,0,0,0,0,0,0,0,0,2,
scooby_state_404bfc|43|0 1,0,0,0,0,0,0,1,0,0,0,0,0,0,0,2,
scooby_state_404b33|48|0 2,0,0,0,0,0,0,0,0,0,0,0,0,0,0,2,
scooby_state_404b33|45|0 2,0,0,0,0,0,0,0,0,0,0,0,0,0,0,2,
scooby_state_405d70|49|0 2,0,0,0,0,0,0,0,0,0,0,0,0,0,0,2,
scooby_state_405c30|35|0 2,0,0,0,0,0,0,0,0,0,0,0,0,0,0,2,
scooby_state_405d70|20|0 2,0,0,0,0,0,0,0,0,0,0,0,0,0,0,2,
scooby_state_405d70|4|0 2,0,0,0,0,0,0,0,0,0,0,0,0,0,0,2,
scooby_state_405c30|37|0 2,0,0,0,0,0,0,0,0,0,0,0,0,0,0,2,
scooby_state_405c30|41|0 2,0,0,0,0,0,0,0,0,0,0,0,0,0,0,2,
scooby_state_405d70|37|0 2,0,0,0,0,0,0,0,0,0,0,0,0,0,0,2,
scooby_state_405d70|6|0 2,0,0,0,0,0,0,0,0,0,0,0,0,0,0,2,
scooby_state_405d70|39|0 2,0,0,0,0,0,0,0,0,0,0,0,0,0,0,2,
scooby_state_404b43|45|1 2,0,0,0,0,0,0,0,0,0,0,0,0,0,0,2,
scooby_state_404bfc|6|0 1,0,0,0,0,0,0,0,0,0,0,0,0,0,1,2,
scooby_state_404b33|25|0 0,0,0,0,0,0,0,0,1,0,1,0,0,0,0,2,
scooby_state_405d70|41|0 2,0,0,0,0,0,0,0,0,0,0,0,0,0,0,2,
scooby_state_405c30|12|0 2,0,0,0,0,0,0,0,0,0,0,0,0,0,0,2,
scooby_state_404b33|29|0 2,0,0,0,0,0,0,0,0,0,0,0,0,0,0,2,
scooby_state_404b33|31|0 2,0,0,0,0,0,0,0,0,0,0,0,0,0,0,2,
scooby_state_404b33|50|0 2,0,0,0,0,0,0,0,0,0,0,0,0,0,0,2,
scooby_state_405c30|47|0 2,0,0,0,0,0,0,0,0,0,0,0,0,0,0,2,
scooby_state_405d70|47|0 2,0,0,0,0,0,0,0,0,0,0,0,0,0,0,2,
scooby_state_405d70|10|0 2,0,0,0,0,0,0,0,0,0,0,0,0,0,0,2,
scooby_state_404bb2|32|1 2,0,0,0,0,0,0,0,0,0,0,0,0,0,0,2,
scooby_state_405c30|14|0 2,0,0,0,0,0,0,0,0,0,0,0,0,0,0,2,
scooby_state_404b33|24|0 0,1,0,0,0,0,1,0,0,0,0,0,0,0,0,2,
scooby_state_404be8|6|0 2,0,0,0,0,0,0,0,0,0,0,0,0,0,0,2,
scooby_state_405c30|8|0 2,0,0,0,0,0,0,0,0,0,0,0,0,0,0,2,
scooby_state_404b33|28|0 1,0,0,0,0,0,0,0,0,0,0,0,0,0,1,2,
scooby_state_405d70|53|0 2,0,0,0,0,0,0,0,0,0,0,0,0,0,0,2,
scooby_state_404b33|49|0 2,0,0,0,0,0,0,0,0,0,0,0,0,0,0,2,
scooby_state_404b33|10|0 0,0,0,0,0,0,0,0,0,0,0,0,0,1,1,2,
scooby_state_404be8|33|0 2,0,0,0,0,0,0,0,0,0,0,0,0,0,0,2,
scooby_state_405d70|28|0 2,0,0,0,0,0,0,0,0,0,0,0,0,0,0,2,
scooby_state_405d70|43|0 2,0,0,0,0,0,0,0,0,0,0,0,0,0,0,2,
scooby_state_405d70|31|0 2,0,0,0,0,0,0,0,0,0,0,0,0,0,0,2,
scooby_state_405d70|45|0 2,0,0,0,0,0,0,0,0,0,0,0,0,0,0,2,
scooby_state_405d70|61|0 2,0,0,0,0,0,0,0,0,0,0,0,0,0,0,2,
scooby_state_405c30|17|0 2,0,0,0,0,0,0,0,0,0,0,0,0,0,0,2,
scooby_state_405c30|9|0 2,0,0,0,0,0,0,0,0,0,0,0,0,0,0,2,
scooby_state_404b33|36|0 2,0,0,0,0,0,0,0,0,0,0,0,0,0,0,2,
scooby_state_405c30|10|0 2,0,0,0,0,0,0,0,0,0,0,0,0,0,0,2,
scooby_state_405d70|27|0 2,0,0,0,0,0,0,0,0,0,0,0,0,0,0,2,
scooby_state_404b33|20|0 0,0,0,0,0,1,1,0,0,0,0,0,0,0,0,2,
scooby_state_405d70|26|0 2,0,0,0,0,0,0,0,0,0,0,0,0,0,0,2,
scooby_state_405d70|62|0 2,0,0,0,0,0,0,0,0,0,0,0,0,0,0,2,
scooby_state_405c30|21|0 2,0,0,0,0,0,0,0,0,0,0,0,0,0,0,2,
scooby_state_405c30|33|0 2,0,0,0,0,0,0,0,0,0,0,0,0,0,0,2,
scooby_state_404b33|1|0 1,0,0,0,0,1,0,0,0,0,0,0,0,0,0,2,
scooby_state_405ce0|43|0 2,0,0,0,0,0,0,0,0,0,0,0,0,0,0,2,
scooby_state_405c30|23|0 2,0,0,0,0,0,0,0,0,0,0,0,0,0,0,2,
scooby_state_405c30|16|0 2,0,0,0,0,0,0,0,0,0,0,0,0,0,0,2,
scooby_state_404b43|63|1 1,0,0,0,0,0,0,0,0,0,0,0,0,0,0,1,
scooby_state_404533|53|1 1,0,0,0,0,0,0,0,0,0,0,0,0,0,0,1,
scooby_state_40452b|22|1 1,0,0,0,0,0,0,0,0,0,0,0,0,0,0,1,
scooby_state_404533|19|1 1,0,0,0,0,0,0,0,0,0,0,0,0,0,0,1,
scooby_state_405c2a|63|0 1,0,0,0,0,0,0,0,0,0,0,0,0,0,0,1,
scooby_state_404bb2|9|1 1,0,0,0,0,0,0,0,0,0,0,0,0,0,0,1,
scooby_state_404b43|17|1 1,0,0,0,0,0,0,0,0,0,0,0,0,0,0,1,
scooby_state_405d6a|51|0 1,0,0,0,0,0,0,0,0,0,0,0,0,0,0,1,
scooby_state_405c2a|28|0 1,0,0,0,0,0,0,0,0,0,0,0,0,0,0,1,
scooby_state_404b43|1|1 1,0,0,0,0,0,0,0,0,0,0,0,0,0,0,1,
scooby_state_404533|61|1 1,0,0,0,0,0,0,0,0,0,0,0,0,0,0,1,
scooby_state_404b43|32|1 1,0,0,0,0,0,0,0,0,0,0,0,0,0,0,1,
scooby_state_40452b|20|1 1,0,0,0,0,0,0,0,0,0,0,0,0,0,0,1,
scooby_state_404b33|55|0 1,0,0,0,0,0,0,0,0,0,0,0,0,0,0,1,
scooby_state_404b43|22|1 1,0,0,0,0,0,0,0,0,0,0,0,0,0,0,1,
scooby_state_404a00|40|0 1,0,0,0,0,0,0,0,0,0,0,0,0,0,0,1,
scooby_state_404533|26|1 1,0,0,0,0,0,0,0,0,0,0,0,0,0,0,1,
scooby_state_405d6a|57|0 1,0,0,0,0,0,0,0,0,0,0,0,0,0,0,1,
scooby_state_404b43|0|0 1,0,0,0,0,0,0,0,0,0,0,0,0,0,0,1,
scooby_state_40452b|58|1 1,0,0,0,0,0,0,0,0,0,0,0,0,0,0,1,
scooby_state_405c30|28|0 1,0,0,0,0,0,0,0,0,0,0,0,0,0,0,1,
scooby_state_404b43|24|1 1,0,0,0,0,0,0,0,0,0,0,0,0,0,0,1,
scooby_state_405c2a|19|0 1,0,0,0,0,0,0,0,0,0,0,0,0,0,0,1,
scooby_state_404b43|25|1 1,0,0,0,0,0,0,0,0,0,0,0,0,0,0,1,
scooby_state_404bb2|50|1 1,0,0,0,0,0,0,0,0,0,0,0,0,0,0,1,
scooby_state_405c2a|46|1 1,0,0,0,0,0,0,0,0,0,0,0,0,0,0,1,
scooby_state_40452b|18|1 1,0,0,0,0,0,0,0,0,0,0,0,0,0,0,1,
scooby_state_405c2a|15|0 1,0,0,0,0,0,0,0,0,0,0,0,0,0,0,1,
scooby_state_405d70|57|0 1,0,0,0,0,0,0,0,0,0,0,0,0,0,0,1,
scooby_state_404b43|28|1 1,0,0,0,0,0,0,0,0,0,0,0,0,0,0,1,
scooby_state_404533|52|1 1,0,0,0,0,0,0,0,0,0,0,0,0,0,0,1,
scooby_state_404bb2|8|1 1,0,0,0,0,0,0,0,0,0,0,0,0,0,0,1,
scooby_state_404b43|29|1 1,0,0,0,0,0,0,0,0,0,0,0,0,0,0,1,
scooby_state_404bb2|10|1 1,0,0,0,0,0,0,0,0,0,0,0,0,0,0,1,
scooby_state_404533|22|1 1,0,0,0,0,0,0,0,0,0,0,0,0,0,0,1,
scooby_state_404b43|31|1 1,0,0,0,0,0,0,0,0,0,0,0,0,0,0,1,
scooby_state_405c30|45|0 1,0,0,0,0,0,0,0,0,0,0,0,0,0,0,1,
scooby_state_404b43|49|1 1,0,0,0,0,0,0,0,0,0,0,0,0,0,0,1,
scooby_state_405c30|34|0 1,0,0,0,0,0,0,0,0,0,0,0,0,0,0,1,
scooby_state_405c30|61|0 1,0,0,0,0,0,0,0,0,0,0,0,0,0,0,1,
scooby_state_404561|43|33 0,0,0,0,0,0,0,0,0,1,0,0,0,0,0,1,
scooby_state_40452b|21|1 1,0,0,0,0,0,0,0,0,0,0,0,0,0,0,1,
scooby_state_405c2a|32|0 1,0,0,0,0,0,0,0,0,0,0,0,0,0,0,1,
scooby_state_405c30|11|0 1,0,0,0,0,0,0,0,0,0,0,0,0,0,0,1,
scooby_state_404533|57|1 1,0,0,0,0,0,0,0,0,0,0,0,0,0,0,1,
scooby_state_405c30|63|0 1,0,0,0,0,0,0,0,0,0,0,0,0,0,0,1,
scooby_state_405d6a|14|0 1,0,0,0,0,0,0,0,0,0,0,0,0,0,0,1,
scooby_state_405c2a|33|1 1,0,0,0,0,0,0,0,0,0,0,0,0,0,0,1,
scooby_state_40452b|48|1 1,0,0,0,0,0,0,0,0,0,0,0,0,0,0,1,
scooby_state_404b43|48|1 1,0,0,0,0,0,0,0,0,0,0,0,0,0,0,1,
scooby_state_404bb2|49|1 1,0,0,0,0,0,0,0,0,0,0,0,0,0,0,1,
scooby_state_405c2a|45|0 1,0,0,0,0,0,0,0,0,0,0,0,0,0,0,1,
scooby_state_405c30|36|0 1,0,0,0,0,0,0,0,0,0,0,0,0,0,0,1,
scooby_state_405d6a|1|0 1,0,0,0,0,0,0,0,0,0,0,0,0,0,0,1,
scooby_state_405d70|36|0 1,0,0,0,0,0,0,0,0,0,0,0,0,0,0,1,
scooby_state_404533|18|1 1,0,0,0,0,0,0,0,0,0,0,0,0,0,0,1,
scooby_state_40452b|49|1 1,0,0,0,0,0,0,0,0,0,0,0,0,0,0,1,
scooby_state_405c2a|34|0 1,0,0,0,0,0,0,0,0,0,0,0,0,0,0,1,
scooby_state_405c2a|7|0 1,0,0,0,0,0,0,0,0,0,0,0,0,0,0,1,
scooby_state_404b43|53|1 1,0,0,0,0,0,0,0,0,0,0,0,0,0,0,1,
scooby_state_404b43|55|1 1,0,0,0,0,0,0,0,0,0,0,0,0,0,0,1,
scooby_state_405d70|51|0 1,0,0,0,0,0,0,0,0,0,0,0,0,0,0,1,
scooby_state_405d70|14|0 1,0,0,0,0,0,0,0,0,0,0,0,0,0,0,1,
scooby_state_405d6a|13|0 1,0,0,0,0,0,0,0,0,0,0,0,0,0,0,1,
scooby_state_404406|16|1 1,0,0,0,0,0,0,0,0,0,0,0,0,0,0,1,
scooby_state_405c2a|39|0 1,0,0,0,0,0,0,0,0,0,0,0,0,0,0,1,
scooby_state_405c2a|11|0 1,0,0,0,0,0,0,0,0,0,0,0,0,0,0,1,
scooby_state_404b43|35|1 1,0,0,0,0,0,0,0,0,0,0,0,0,0,0,1,
scooby_state_404533|54|1 1,0,0,0,0,0,0,0,0,0,0,0,0,0,0,1,
scooby_state_404b43|36|1 1,0,0,0,0,0,0,0,0,0,0,0,0,0,0,1,
scooby_state_40452b|28|1 1,0,0,0,0,0,0,0,0,0,0,0,0,0,0,1,
scooby_state_405c2a|61|0 1,0,0,0,0,0,0,0,0,0,0,0,0,0,0,1,
scooby_state_404bc3|47|1 1,0,0,0,0,0,0,0,0,0,0,0,0,0,0,1,
scooby_state_404bb2|11|1 1,0,0,0,0,0,0,0,0,0,0,0,0,0,0,1,
scooby_state_405c2a|25|1 1,0,0,0,0,0,0,0,0,0,0,0,0,0,0,1,
scooby_state_404b43|38|1 1,0,0,0,0,0,0,0,0,0,0,0,0,0,0,1,
scooby_state_405d70|1|0 1,0,0,0,0,0,0,0,0,0,0,0,0,0,0,1,
scooby_state_405c2a|52|0 1,0,0,0,0,0,0,0,0,0,0,0,0,0,0,1,
scooby_state_404ba3|6|0 0,0,0,0,0,0,0,0,0,0,0,0,0,0,1,1,
scooby_state_405d6a|30|0 1,0,0,0,0,0,0,0,0,0,0,0,0,0,0,1,
scooby_state_405d70|30|0 1,0,0,0,0,0,0,0,0,0,0,0,0,0,0,1,
scooby_state_404b43|41|1 1,0,0,0,0,0,0,0,0,0,0,0,0,0,0,1,
scooby_state_405d6a|17|0 1,0,0,0,0,0,0,0,0,0,0,0,0,0,0,1,
scooby_state_405c2a|46|0 1,0,0,0,0,0,0,0,0,0,0,0,0,0,0,1,
scooby_state_405d6a|15|0 1,0,0,0,0,0,0,0,0,0,0,0,0,0,0,1,
scooby_state_404b43|34|1 1,0,0,0,0,0,0,0,0,0,0,0,0,0,0,1,
scooby_state_404bb2|12|1 1,0,0,0,0,0,0,0,0,0,0,0,0,0,0,1,
scooby_state_40452b|23|1 1,0,0,0,0,0,0,0,0,0,0,0,0,0,0,1,
scooby_state_405dc0|55|1 1,0,0,0,0,0,0,0,0,0,0,0,0,0,0,1,
scooby_state_405c30|7|0 1,0,0,0,0,0,0,0,0,0,0,0,0,0,0,1,
scooby_state_405b80|46|1 1,0,0,0,0,0,0,0,0,0,0,0,0,0,0,1,
scooby_state_405e04|56|1 1,0,0,0,0,0,0,0,0,0,0,0,0,0,0,1,
scooby_state_404b43|3|1 1,0,0,0,0,0,0,0,0,0,0,0,0,0,0,1,
scooby_state_405ac0|43|-13 1,0,0,0,0,0,0,0,0,0,0,0,0,0,0,1,
scooby_state_4043c2|15|1 1,0,0,0,0,0,0,0,0,0,0,0,0,0,0,1,
scooby_state_405c2a|59|0 1,0,0,0,0,0,0,0,0,0,0,0,0,0,0,1,
scooby_state_405c30|32|0 1,0,0,0,0,0,0,0,0,0,0,0,0,0,0,1,
scooby_state_404442|17|1 1,0,0,0,0,0,0,0,0,0,0,0,0,0,0,1,
scooby_state_404483|18|1 1,0,0,0,0,0,0,0,0,0,0,0,0,0,0,1,
scooby_state_404533|17|1 1,0,0,0,0,0,0,0,0,0,0,0,0,0,0,1,
scooby_state_405c2a|3|0 1,0,0,0,0,0,0,0,0,0,0,0,0,0,0,1,
scooby_state_405b44|45|1 1,0,0,0,0,0,0,0,0,0,0,0,0,0,0,1,
scooby_state_404b43|7|1 1,0,0,0,0,0,0,0,0,0,0,0,0,0,0,1,
scooby_state_405d41|53|1 1,0,0,0,0,0,0,0,0,0,0,0,0,0,0,1,
scooby_state_405d6a|36|0 1,0,0,0,0,0,0,0,0,0,0,0,0,0,0,1,
scooby_state_404552|43|0 1,0,0,0,0,0,0,0,0,0,0,0,0,0,0,1,
scooby_state_40452b|50|1 1,0,0,0,0,0,0,0,0,0,0,0,0,0,0,1,
scooby_state_404500|20|1 1,0,0,0,0,0,0,0,0,0,0,0,0,0,0,1,
scooby_state_404542|21|1 1,0,0,0,0,0,0,0,0,0,0,0,0,0,0,1,
scooby_state_404533|23|1 1,0,0,0,0,0,0,0,0,0,0,0,0,0,0,1,
scooby_state_405bf2|27|0 1,0,0,0,0,0,0,0,0,0,0,0,0,0,0,1,
scooby_state_404580|22|1 1,0,0,0,0,0,0,0,0,0,0,0,0,0,0,1,
scooby_state_40452b|54|1 1,0,0,0,0,0,0,0,0,0,0,0,0,0,0,1,
scooby_state_404702|28|1 1,0,0,0,0,0,0,0,0,0,0,0,0,0,0,1,
scooby_state_404ac1|43|1 1,0,0,0,0,0,0,0,0,0,0,0,0,0,0,1,
scooby_state_4046ce|27|5 1,0,0,0,0,0,0,0,0,0,0,0,0,0,0,1,
scooby_state_404bb2|30|1 1,0,0,0,0,0,0,0,0,0,0,0,0,0,0,1,
scooby_state_405d6a|19|0 1,0,0,0,0,0,0,0,0,0,0,0,0,0,0,1,
scooby_state_404533|55|1 1,0,0,0,0,0,0,0,0,0,0,0,0,0,0,1,
scooby_state_405d70|46|0 1,0,0,0,0,0,0,0,0,0,0,0,0,0,0,1,
scooby_state_404b43|8|1 1,0,0,0,0,0,0,0,0,0,0,0,0,0,0,1,
scooby_state_405b03|44|1 1,0,0,0,0,0,0,0,0,0,0,0,0,0,0,1,
scooby_state_404a42|41|1 1,0,0,0,0,0,0,0,0,0,0,0,0,0,0,1,
scooby_state_405d82|54|1 1,0,0,0,0,0,0,0,0,0,0,0,0,0,0,1,
scooby_state_404a82|42|1 1,0,0,0,0,0,0,0,0,0,0,0,0,0,0,1,
scooby_state_405d6a|25|0 1,0,0,0,0,0,0,0,0,0,0,0,0,0,0,1,
scooby_state_404b43|50|1 1,0,0,0,0,0,0,0,0,0,0,0,0,0,0,1,
scooby_state_404b43|52|1 1,0,0,0,0,0,0,0,0,0,0,0,0,0,0,1,
scooby_state_405d00|52|1 1,0,0,0,0,0,0,0,0,0,0,0,0,0,0,1,
scooby_state_404b43|4|1 1,0,0,0,0,0,0,0,0,0,0,0,0,0,0,1,
scooby_state_404b01|44|1 1,0,0,0,0,0,0,0,0,0,0,0,0,0,0,1,
scooby_state_405c2a|56|1 1,0,0,0,0,0,0,0,0,0,0,0,0,0,0,1,
scooby_state_40452b|19|1 1,0,0,0,0,0,0,0,0,0,0,0,0,0,0,1,
scooby_state_404bb2|7|1 1,0,0,0,0,0,0,0,0,0,0,0,0,0,0,1,
scooby_state_40450c|17|0 1,0,0,0,0,0,0,0,0,0,0,0,0,0,0,1,
scooby_state_40452b|53|1 1,0,0,0,0,0,0,0,0,0,0,0,0,0,0,1,
scooby_state_404b43|21|1 1,0,0,0,0,0,0,0,0,0,0,0,0,0,0,1,
scooby_state_404b82|46|1 1,0,0,0,0,0,0,0,0,0,0,0,0,0,0,1,
scooby_state_404d0f|52|4 1,0,0,0,0,0,0,0,0,0,0,0,0,0,0,1,
scooby_state_405d6a|9|0 1,0,0,0,0,0,0,0,0,0,0,0,0,0,0,1,
scooby_state_40452b|56|1 1,0,0,0,0,0,0,0,0,0,0,0,0,0,0,1,
scooby_state_405d70|13|0 1,0,0,0,0,0,0,0,0,0,0,0,0,0,0,1,
scooby_state_405c30|52|0 1,0,0,0,0,0,0,0,0,0,0,0,0,0,0,1,
scooby_state_4044c5|19|1 1,0,0,0,0,0,0,0,0,0,0,0,0,0,0,1,
scooby_state_404b43|46|1 1,0,0,0,0,0,0,0,0,0,0,0,0,0,0,1,
scooby_state_404bb2|52|1 1,0,0,0,0,0,0,0,0,0,0,0,0,0,0,1,
scooby_state_404533|25|1 1,0,0,0,0,0,0,0,0,0,0,0,0,0,0,1,
scooby_state_405d6a|26|0 1,0,0,0,0,0,0,0,0,0,0,0,0,0,0,1,
scooby_state_405c30|46|0 1,0,0,0,0,0,0,0,0,0,0,0,0,0,0,1,
scooby_state_404b43|6|1 1,0,0,0,0,0,0,0,0,0,0,0,0,0,0,1,
scooby_state_405d6a|46|0 1,0,0,0,0,0,0,0,0,0,0,0,0,0,0,1,
scooby_state_404533|24|1 1,0,0,0,0,0,0,0,0,0,0,0,0,0,0,1,
scooby_state_405cc4|51|1 1,0,0,0,0,0,0,0,0,0,0,0,0,0,0,1,
scooby_state_404533|56|1 1,0,0,0,0,0,0,0,0,0,0,0,0,0,0,1,
scooby_state_405c30|15|0 1,0,0,0,0,0,0,0,0,0,0,0,0,0,0,1,
scooby_state_405d70|15|0 1,0,0,0,0,0,0,0,0,0,0,0,0,0,0,1,
scooby_state_404b43|18|1 1,0,0,0,0,0,0,0,0,0,0,0,0,0,0,1,
scooby_state_404b43|20|1 1,0,0,0,0,0,0,0,0,0,0,0,0,0,0,1,
scooby_state_405c2a|1|1 1,0,0,0,0,0,0,0,0,0,0,0,0,0,0,1,
scooby_state_405bc0|17|0 1,0,0,0,0,0,0,0,0,0,0,0,0,0,0,1,
scooby_state_404bb2|53|1 1,0,0,0,0,0,0,0,0,0,0,0,0,0,0,1,
scooby_state_405d70|17|0 1,0,0,0,0,0,0,0,0,0,0,0,0,0,0,1,
scooby_state_40452b|57|1 1,0,0,0,0,0,0,0,0,0,0,0,0,0,0,1,
scooby_state_405c30|2|0 1,0,0,0,0,0,0,0,0,0,0,0,0,0,0,1,
scooby_state_405c2a|3|1 1,0,0,0,0,0,0,0,0,0,0,0,0,0,0,1,
scooby_state_405d70|19|0 1,0,0,0,0,0,0,0,0,0,0,0,0,0,0,1,
scooby_state_404b43|14|1 1,0,0,0,0,0,0,0,0,0,0,0,0,0,0,1,
scooby_state_405c01|48|1 1,0,0,0,0,0,0,0,0,0,0,0,0,0,0,1,
scooby_state_404b43|10|1 1,0,0,0,0,0,0,0,0,0,0,0,0,0,0,1,
scooby_state_404c02|48|1 1,0,0,0,0,0,0,0,0,0,0,0,0,0,0,1,
scooby_state_404b43|43|1 1,0,0,0,0,0,0,0,0,0,0,0,0,0,0,1,
scooby_state_405c30|3|0 1,0,0,0,0,0,0,0,0,0,0,0,0,0,0,1,
scooby_state_404bb2|54|1 1,0,0,0,0,0,0,0,0,0,0,0,0,0,0,1,
scooby_state_404b43|11|1 1,0,0,0,0,0,0,0,0,0,0,0,0,0,0,1,
scooby_state_405c2a|36|0 1,0,0,0,0,0,0,0,0,0,0,0,0,0,0,1,
scooby_state_404bb2|51|1 1,0,0,0,0,0,0,0,0,0,0,0,0,0,0,1,
scooby_state_404b43|39|1 1,0,0,0,0,0,0,0,0,0,0,0,0,0,0,1,
scooby_state_405d70|25|0 1,0,0,0,0,0,0,0,0,0,0,0,0,0,0,1,
scooby_state_40452b|55|1 1,0,0,0,0,0,0,0,0,0,0,0,0,0,0,1,
scooby_state_405bc0|47|0 1,0,0,0,0,0,0,0,0,0,0,0,0,0,0,1,
scooby_state_404b43|13|1 1,0,0,0,0,0,0,0,0,0,0,0,0,0,0,1,
scooby_state_405c42|49|1 1,0,0,0,0,0,0,0,0,0,0,0,0,0,0,1,
scooby_state_404b43|27|1 1,0,0,0,0,0,0,0,0,0,0,0,0,0,0,1,
scooby_state_404533|27|1 1,0,0,0,0,0,0,0,0,0,0,0,0,0,0,1,
scooby_state_404b43|15|1 1,0,0,0,0,0,0,0,0,0,0,0,0,0,0,1,
scooby_state_404350|13|-39 1,0,0,0,0,0,0,0,0,0,0,0,0,0,0,1,
scooby_state_404b43|42|1 1,0,0,0,0,0,0,0,0,0,0,0,0,0,0,1,
scooby_state_405c80|50|1 1,0,0,0,0,0,0,0,0,0,0,0,0,0,0,1,
scooby_state_404381|14|1 1,0,0,0,0,0,0,0,0,0,0,0,0,0,0,1,
scooby_state_405c30|19|0 1,0,0,0,0,0,0,0,0,0,0,0,0,0,0,1,
scooby_state_405c2a|2|0 1,0,0,0,0,0,0,0,0,0,0,0,0,0,0,1,
scooby_state_405c30|39|0 1,0,0,0,0,0,0,0,0,0,0,0,0,0,0,1,

scooby_action_0_deg_dist 0,205,0,0,0,0,0,0,0,0,0,0,0,0,0,0,
scooby_action_12_deg_dist 0,259,0,0,0,0,0,0,0,0,0,0,0,0,0,0,
scooby_action_32_deg_dist 0,120,0,0,0,0,0,0,0,0,0,0,0,0,0,0,
scooby_action_3_deg_dist 0,274,6,0,0,0,0,0,0,0,0,0,0,0,0,0,
scooby_action_5_deg_dist 0,201,0,0,0,0,0,0,0,0,0,0,0,0,0,0,
scooby_action_1_deg_dist 0,39141,25408,0,62221,0,663477,0,0,0,0,0,0,0,0,0,
scooby_action_30_deg_dist 0,142,0,0,0,0,0,0,0,0,0,0,0,0,0,0,
scooby_action_4_deg_dist 0,270,0,0,0,0,0,0,0,0,0,0,0,0,0,0,
scooby_action_-3_deg_dist 0,283,0,0,0,0,0,0,0,0,0,0,0,0,0,0,
scooby_action_10_deg_dist 0,277,0,0,0,0,0,0,0,0,0,0,0,0,0,0,
scooby_action_-1_deg_dist 0,259,0,0,0,0,0,0,0,0,0,0,0,0,0,0,
scooby_action_23_deg_dist 0,132,0,0,0,0,0,0,0,0,0,0,0,0,0,0,
scooby_action_-6_deg_dist 0,120,0,0,0,0,0,0,0,0,0,0,0,0,0,0,
scooby_action_11_deg_dist 0,129,0,0,0,0,0,0,0,0,0,0,0,0,0,0,
scooby_action_22_deg_dist 0,217,0,0,0,0,0,0,0,0,0,0,0,0,0,0,

scooby_track_called 793141
scooby_track_same_address 1437
scooby_track_evict 791448

scooby_reward_demand_called 793141
scooby_reward_demand_pt_not_found 16982
scooby_reward_demand_pt_found 776159
scooby_reward_demand_pt_found_total 776159
scooby_reward_demand_has_reward 0
scooby_reward_train_called 2923
scooby_reward_assign_reward_called 791702
scooby_reward_no_pref 205
scooby_reward_incorrect 2718
scooby_reward_correct_untimely 704596
scooby_reward_correct_timely 71563
scooby_reward_out_of_bounds 12620
scooby_reward_tracker_hit 0

scooby_reward_none_low_bw 205
scooby_reward_none_high_bw 0
scooby_reward_incorrect_low_bw 2718
scooby_reward_incorrect_high_bw 0
scooby_reward_correct_untimely_low_bw 704596
scooby_reward_correct_untimely_high_bw 0
scooby_reward_correct_timely_low_bw 71563
scooby_reward_correct_timely_high_bw 0
scooby_reward_out_of_bounds_low_bw 12620
scooby_reward_out_of_bounds_high_bw 0
scooby_reward_tracker_hit_low_bw 0
scooby_reward_tracker_hit_high_bw 0

scooby_reward_1 0,2155,704344,70702,12294,0,
scooby_reward_3 0,49,68,32,4,0,
scooby_reward_4 0,43,39,50,8,0,
scooby_reward_5 0,47,34,55,12,0,
scooby_reward_10 0,33,0,222,22,0,
scooby_reward_11 0,31,0,71,27,0,
scooby_reward_12 0,34,0,85,25,0,
scooby_reward_22 0,101,0,58,58,0,
scooby_reward_23 0,26,0,63,43,0,
scooby_reward_30 0,26,0,60,56,0,
scooby_reward_32 0,29,0,37,54,0,
scooby_reward_-1 0,41,111,9,1,0,
scooby_reward_-3 0,69,0,119,4,0,
scooby_reward_-6 0,34,0,0,12,0,
scooby_reward_0 205,0,0,0,0,0,

scooby_train_called 791447
scooby_train_compute_reward 2923

scooby_register_fill_called 744173
scooby_register_fill_set 73396
scooby_register_fill_set_total 73396

scooby_register_prefetch_hit_called 2407905
scooby_register_prefetch_hit_set 676275
scooby_register_prefetch_hit_set_total 676275

scooby_pref_issue_scooby 4059449

learning_engine_featurewise.action.called 793141
learning_engine_featurewise.action.explore 1447
learning_engine_featurewise.action.exploit 791694
learning_engine_featurewise.action.fallback 0
learning_engine_featurewise.action.dyn_fallback_saved_bw 0
learning_engine_featurewise.action.dyn_fallback_saved_bw_acc 0
learning_engine_featurewise.action.index_1_explored 93
learning_engine_featurewise.action.index_1_exploited 790154
learning_engine_featurewise.action.index_3_explored 103
learning_engine_featurewise.action.index_3_exploited 177
learning_engine_featurewise.action.index_4_explored 96
learning_engine_featurewise.action.index_4_exploited 174
learning_engine_featurewise.action.index_5_explored 99
learning_engine_featurewise.action.index_5_exploited 102
learning_engine_featurewise.action.index_10_explored 109
learning_engine_featurewise.action.index_10_exploited 168
learning_engine_featurewise.action.index_11_explored 90
learning_engine_featurewise.action.index_11_exploited 39
learning_engine_featurewise.action.index_12_explored 104
learning_engine_featurewise.action.index_12_exploited 155
learning_engine_featurewise.action.index_22_explored 100
learning_engine_featurewise.action.index_22_exploited 117
learning_engine_featurewise.action.index_23_explored 96
learning_engine_featurewise.action.index_23_exploited 36
learning_engine_featurewise.action.index_30_explored 107
learning_engine_featurewise.action.index_30_exploited 35
learning_engine_featurewise.action.index_32_explored 80
learning_engine_featurewise.action.index_32_exploited 40
learning_engine_featurewise.action.index_-1_explored 99
learning_engine_featurewise.action.index_-1_exploited 160
learning_engine_featurewise.action.index_-3_explored 96
learning_engine_featurewise.action.index_-3_exploited 187
learning_engine_featurewise.action.index_-6_explored 81
learning_engine_featurewise.action.index_-6_exploited 39
learning_engine_featurewise.action.index_0_explored 94
learning_engine_featurewise.action.index_0_exploited 111
learning_engine_featurewise.learn.called 791447
learning_engine_featurewise.learn.su_skip_PC 0
learning_engine_featurewise.learn.su_skip_PC_Delta 0

learning_engine_featurewise.q_value_histogram.bucket_0 0
learning_engine_featurewise.q_value_histogram.bucket_1 0
learning_engine_featurewise.q_value_histogram.bucket_2 0
learning_engine_featurewise.q_value_histogram.bucket_3 546
learning_engine_featurewise.q_value_histogram.bucket_4 1842
learning_engine_featurewise.q_value_histogram.bucket_5 1489
learning_engine_featurewise.q_value_histogram.bucket_6 787817
learning_engine_featurewise.q_value_histogram.bucket_7 0

learning_engine_featurewise.consensus.total 791694
learning_engine_featurewise.consensus.feature_align_PC 790099
learning_engine_featurewise.consensus.feature_align_PC_ratio 1.00
learning_engine_featurewise.consensus.feature_align_PC_Delta 791054
learning_engine_featurewise.consensus.feature_align_PC_Delta_ratio 1.00
learning_engine_featurewise.consensus.feature_align_all 789459
learning_engine_featurewise.consensus.feature_align_all_ratio 1.00

learning_engine_featurewise.feature_PC_min_weight 1000000.00000000
learning_engine_featurewise.feature_PC_max_weight 0.00000000
learning_engine_featurewise.feature_PC_Delta_min_weight 1000000.00000000
learning_engine_featurewise.feature_PC_Delta_max_weight 0.00000000
unique_pcs 75
unique_pages 8284
unique_trigger_pcs 26
total_bitmaps_seen 0
unique_bitmaps_seen 0

scooby_bw_epochs 180091
scooby_bw_level_0 59535
scooby_bw_level_1 120555
scooby_bw_level_2 1
scooby_bw_level_3 0

scooby_ipc_epochs 0
scooby_ipc_level_0 0
scooby_ipc_level_1 0
scooby_ipc_level_2 0
scooby_ipc_level_3 0

scooby_cache_acc_epochs 44360
scooby_cache_acc_level_0 1
scooby_cache_acc_level_1 0
scooby_cache_acc_level_2 0
scooby_cache_acc_level_3 1
scooby_cache_acc_level_4 1
scooby_cache_acc_level_5 14
scooby_cache_acc_level_6 88
scooby_cache_acc_level_7 181
scooby_cache_acc_level_8 1655
scooby_cache_acc_level_9 42419

Channel_0_RQ_row_buffer_hit 61135
Channel_0_RQ_row_buffer_miss 377626
Channel_0_WQ_row_buffer_hit 241562
Channel_0_WQ_row_buffer_miss 196680
Channel_0_WQ_full 0
Channel_0_dbus_congested 502206

avg_congested_cycle 11

DRAM_bw_pochs 180091
DRAM_bw_level_0 59535
DRAM_bw_level_1 120555
DRAM_bw_level_2 1
DRAM_bw_level_3 0
