*************************************************
   ChampSim Multicore Out-of-Order Simulator
   Last compiled: Apr  3 2025 20:54:34
*************************************************
parsing config file: /home/zir/Pythia/config/pythia.ini

trace_0 /home/zir/ChampSim/ML-DPC/ChampSimTraces/spec06/482.sphinx3-s1.trace.gz
adding L2C_PREFETCHER: Scooby
Initialize SHIP state
warmup_instructions 10000000
simulation_instructions 50000000
champsim_seed 164
measure_ipc 0
measure_ipc_epoch 1000
measure_dram_bw 1
measure_dram_bw_epoch 256
measure_cache_acc 1
measure_cache_acc_epoch 1024
l1d_perfect 0
l2c_perfect 0
llc_perfect 0
l1d_semi_perfect 0
l2c_semi_perfect 0
llc_semi_perfect 0
semi_perfect_cache_page_buffer_size 64

num_cpus 1
cpu_freq 4000
dram_io_freq 2400
page_size 4096
block_size 64
max_read_per_cycle 8
max_fill_per_cycle 1
dram_channels 1
log2_dram_channels 0
dram_ranks 1
dram_banks 8
dram_rows 65536
dram_columns 128
dram_row_size 8
dram_size 4096
dram_pages 1048576

fetch_width 6
decode_width 6
exec_width 4
lq_width 2
sq_width 2
retire_width 4
scheduler_size 128
branch_mispredict_penalty 20
rob_size 256
lq_size 72
sq_size 56
num_instr_destinations_sparc 4
num_instr_destinations 2
num_instr_sources 4

itlb_set 16
itlb_way 8
itlb_rq_size 16
itlb_wq_size 16
itlb_pq_size 0
itlb_mshr_size 8
itlb_latency 1

dtlb_set 16
dtlb_way 4
dtlb_rq_size 16
dtlb_wq_size 16
dtlb_pq_size 0
dtlb_mshr_size 8
dtlb_latency 1

stlb_set 128
stlb_way 12
stlb_rq_size 32
stlb_wq_size 32
stlb_pq_size 0
stlb_mshr_size 16
stlb_latency 8

l1i_size 32
l1i_set 64
l1i_way 8
l1i_rq_size 64
l1i_wq_size 64
l1i_pq_size 8
l1i_mshr_size 8
l1i_latency 1

l1d_size 32
l1d_set 64
l1d_way 8
l1d_rq_size 64
l1d_wq_size 64
l1d_pq_size 8
l1d_mshr_size 16
l1d_latency 4

l2c_size 256
l2c_set 512
l2c_way 8
l2c_rq_size 32
l2c_wq_size 32
l2c_pq_size 32
l2c_mshr_size 32
l2c_latency 10

llc_size 2048
llc_set 2048
llc_way 16
llc_rq_size 32
llc_wq_size 32
llc_pq_size 32
llc_mshr_size 64
llc_latency 20

dram_channel_width 8
dram_wq_size 64
dram_rq_size 64
tRP 15
tRCD 15
tCAS 12.5
dram_dbus_turn_around_time 30
dram_write_high_wm 56
dram_write_low_wm 48
min_dram_writes_per_switch 16
dram_mtps 2400
dram_dbus_return_time 13

scooby_alpha 0.0065088
scooby_gamma 0.556301
scooby_epsilon 0.00182284
scooby_state_num_bits 10
scooby_max_states 1024
scooby_seed 200
scooby_policy EGreedy
scooby_learning_type SARSA
scooby_actions 1,3,4,5,10,11,12,22,23,30,32,-1,-3,-6,0,
scooby_max_actions 15
scooby_pt_size 256
scooby_st_size 64
scooby_max_pcs 5
scooby_max_offsets 5
scooby_max_deltas 5
scooby_reward_none -4
scooby_reward_incorrect -8
scooby_reward_correct_untimely 12
scooby_reward_correct_timely 20
scooby_brain_zero_init 0
scooby_enable_reward_all 0
scooby_enable_track_multiple 0
scooby_enable_reward_out_of_bounds 1
scooby_reward_out_of_bounds -12
scooby_state_type 1
scooby_state_hash_type 11
scooby_access_debug 0
scooby_print_access_debug 0
scooby_print_access_debug_pc deadbeef
scooby_print_access_debug_pc_count 0
scooby_print_trace 0
scooby_enable_state_action_stats 1
scooby_enable_reward_tracker_hit 0
scooby_reward_tracker_hit -2
scooby_enable_featurewise_engine 1
scooby_pref_degree 1
scooby_enable_dyn_degree 1
scooby_max_to_avg_q_thresholds 0.5,1,2,
scooby_dyn_degrees 1,2,4,4,
scooby_multi_deg_select_type 2
scooby_last_pref_offset_conf_thresholds 1,3,8,
scooby_dyn_degrees_type2 1,2,4,6,
scooby_action_tracker_size 2
scooby_high_bw_thresh 4
scooby_enable_hbw_reward 1
scooby_reward_hbw_correct_timely 20
scooby_reward_hbw_correct_untimely 12
scooby_reward_hbw_incorrect -14
scooby_reward_hbw_none -2
scooby_reward_hbw_out_of_bounds -12
scooby_reward_hbw_tracker_hit -2
scooby_last_pref_offset_conf_thresholds_hbw 1,3,8,
scooby_dyn_degrees_type2_hbw 1,2,4,6,

le_enable_trace 0
le_trace_interval 0
le_trace_file_name 
le_trace_state 0
le_enable_score_plot 0
le_plot_file_name 
le_plot_actions 
le_enable_action_trace 0
le_action_trace_interval 0
le_action_trace_name 
le_enable_action_plot 0

le_featurewise_active_features PC, PC_Delta
le_featurewise_num_tilings 3,3,
le_featurewise_num_tiles 128,128,
le_featurewise_hash_types 2,2,
le_featurewise_enable_tiling_offset 1,1,
le_featurewise_max_q_thresh 0.5
le_featurewise_enable_action_fallback 1
le_featurewise_feature_weights 1,1,
le_featurewise_enable_dynamic_weight 0
le_featurewise_weight_gradient 0.001
le_featurewise_disable_adjust_weight_all_features_align 1
le_featurewise_selective_update 0
le_featurewise_pooling_type 2
le_featurewise_enable_dyn_action_fallback 1
le_featurewise_bw_acc_check_level 1
le_featurewise_acc_thresh 2
le_featurewise_enable_trace 0
le_featurewise_trace_feature_type 0
le_featurewise_trace_feature 
le_featurewise_trace_interval 0
le_featurewise_trace_record_count 0
le_featurewise_trace_file_name 
le_featurewise_enable_score_plot 0
le_featurewise_plot_actions 
le_featurewise_plot_file_name 


Heartbeat CPU  0 instructions:    1000003 cycles:     363751 heartbeat IPC: 2.74914 cumulative IPC: 2.74914 (Simulation time: 0 hr 0 min 2 sec) 
Heartbeat CPU  0 instructions:    2000000 cycles:     876108 heartbeat IPC: 1.95176 cumulative IPC: 2.28282 (Simulation time: 0 hr 0 min 4 sec) 
Heartbeat CPU  0 instructions:    3000001 cycles:    1345654 heartbeat IPC: 2.12972 cumulative IPC: 2.22940 (Simulation time: 0 hr 0 min 5 sec) 
Heartbeat CPU  0 instructions:    4000000 cycles:    1709652 heartbeat IPC: 2.74727 cumulative IPC: 2.33966 (Simulation time: 0 hr 0 min 7 sec) 
Heartbeat CPU  0 instructions:    5000002 cycles:    2149410 heartbeat IPC: 2.27398 cumulative IPC: 2.32622 (Simulation time: 0 hr 0 min 8 sec) 
Heartbeat CPU  0 instructions:    6000001 cycles:    2685240 heartbeat IPC: 1.86626 cumulative IPC: 2.23444 (Simulation time: 0 hr 0 min 9 sec) 
Heartbeat CPU  0 instructions:    7000001 cycles:    3049198 heartbeat IPC: 2.74757 cumulative IPC: 2.29569 (Simulation time: 0 hr 0 min 11 sec) 
Heartbeat CPU  0 instructions:    8000000 cycles:    3429293 heartbeat IPC: 2.63092 cumulative IPC: 2.33284 (Simulation time: 0 hr 0 min 13 sec) 
Heartbeat CPU  0 instructions:    9000000 cycles:    3944304 heartbeat IPC: 1.94171 cumulative IPC: 2.28177 (Simulation time: 0 hr 0 min 14 sec) 
Heartbeat CPU  0 instructions:   10000003 cycles:    4318019 heartbeat IPC: 2.67584 cumulative IPC: 2.31588 (Simulation time: 0 hr 0 min 15 sec) 

Warmup complete CPU  0 instructions:   10000003 cycles:    4318019 (Simulation time: 0 hr 0 min 15 sec) 

Heartbeat CPU  0 instructions:   11000001 cycles:    4915755 heartbeat IPC: 1.67298 cumulative IPC: 1.67298 (Simulation time: 0 hr 0 min 17 sec) 
Heartbeat CPU  0 instructions:   12000000 cycles:    5783513 heartbeat IPC: 1.15239 cumulative IPC: 1.36473 (Simulation time: 0 hr 0 min 19 sec) 
Heartbeat CPU  0 instructions:   13000000 cycles:    6372825 heartbeat IPC: 1.69689 cumulative IPC: 1.45999 (Simulation time: 0 hr 0 min 21 sec) 
Heartbeat CPU  0 instructions:   14000002 cycles:    6950908 heartbeat IPC: 1.72986 cumulative IPC: 1.51924 (Simulation time: 0 hr 0 min 22 sec) 
Heartbeat CPU  0 instructions:   15000003 cycles:    7826353 heartbeat IPC: 1.14228 cumulative IPC: 1.42518 (Simulation time: 0 hr 0 min 24 sec) 
Heartbeat CPU  0 instructions:   16000000 cycles:    8417751 heartbeat IPC: 1.69090 cumulative IPC: 1.46351 (Simulation time: 0 hr 0 min 26 sec) 
Heartbeat CPU  0 instructions:   17000000 cycles:    8980353 heartbeat IPC: 1.77746 cumulative IPC: 1.50139 (Simulation time: 0 hr 0 min 27 sec) 
Heartbeat CPU  0 instructions:   18000002 cycles:    9840337 heartbeat IPC: 1.16281 cumulative IPC: 1.44867 (Simulation time: 0 hr 0 min 29 sec) 
Heartbeat CPU  0 instructions:   19000003 cycles:   10430900 heartbeat IPC: 1.69330 cumulative IPC: 1.47230 (Simulation time: 0 hr 0 min 31 sec) 
Heartbeat CPU  0 instructions:   20000000 cycles:   10992154 heartbeat IPC: 1.78172 cumulative IPC: 1.49832 (Simulation time: 0 hr 0 min 33 sec) 
Heartbeat CPU  0 instructions:   21000001 cycles:   12166566 heartbeat IPC: 0.85149 cumulative IPC: 1.40153 (Simulation time: 0 hr 0 min 34 sec) 
Heartbeat CPU  0 instructions:   22000002 cycles:   13117902 heartbeat IPC: 1.05115 cumulative IPC: 1.36365 (Simulation time: 0 hr 0 min 36 sec) 
Heartbeat CPU  0 instructions:   23000000 cycles:   13747624 heartbeat IPC: 1.58800 cumulative IPC: 1.37864 (Simulation time: 0 hr 0 min 38 sec) 
Heartbeat CPU  0 instructions:   24000000 cycles:   14300507 heartbeat IPC: 1.80870 cumulative IPC: 1.40246 (Simulation time: 0 hr 0 min 39 sec) 
Heartbeat CPU  0 instructions:   25000003 cycles:   15105150 heartbeat IPC: 1.24279 cumulative IPC: 1.39055 (Simulation time: 0 hr 0 min 41 sec) 
Heartbeat CPU  0 instructions:   26000003 cycles:   15719659 heartbeat IPC: 1.62732 cumulative IPC: 1.40331 (Simulation time: 0 hr 0 min 43 sec) 
Heartbeat CPU  0 instructions:   27000001 cycles:   16270074 heartbeat IPC: 1.81681 cumulative IPC: 1.42235 (Simulation time: 0 hr 0 min 45 sec) 
Heartbeat CPU  0 instructions:   28000000 cycles:   17084454 heartbeat IPC: 1.22793 cumulative IPC: 1.40995 (Simulation time: 0 hr 0 min 46 sec) 
Heartbeat CPU  0 instructions:   29000003 cycles:   17686524 heartbeat IPC: 1.66094 cumulative IPC: 1.42125 (Simulation time: 0 hr 0 min 48 sec) 
Heartbeat CPU  0 instructions:   30000001 cycles:   18232344 heartbeat IPC: 1.83210 cumulative IPC: 1.43737 (Simulation time: 0 hr 0 min 50 sec) 
Heartbeat CPU  0 instructions:   31000001 cycles:   19038858 heartbeat IPC: 1.23990 cumulative IPC: 1.42655 (Simulation time: 0 hr 0 min 51 sec) 
Heartbeat CPU  0 instructions:   32000000 cycles:   19629671 heartbeat IPC: 1.69258 cumulative IPC: 1.43681 (Simulation time: 0 hr 0 min 53 sec) 
Heartbeat CPU  0 instructions:   33000000 cycles:   20192593 heartbeat IPC: 1.77645 cumulative IPC: 1.44886 (Simulation time: 0 hr 0 min 55 sec) 
Heartbeat CPU  0 instructions:   34000000 cycles:   20998166 heartbeat IPC: 1.24135 cumulative IPC: 1.43884 (Simulation time: 0 hr 0 min 56 sec) 
Heartbeat CPU  0 instructions:   35000003 cycles:   21575618 heartbeat IPC: 1.73175 cumulative IPC: 1.44864 (Simulation time: 0 hr 0 min 58 sec) 
Heartbeat CPU  0 instructions:   36000000 cycles:   22142436 heartbeat IPC: 1.76423 cumulative IPC: 1.45867 (Simulation time: 0 hr 1 min 0 sec) 
Heartbeat CPU  0 instructions:   37000000 cycles:   22963516 heartbeat IPC: 1.21791 cumulative IPC: 1.44807 (Simulation time: 0 hr 1 min 1 sec) 
Heartbeat CPU  0 instructions:   38000002 cycles:   23527129 heartbeat IPC: 1.77427 cumulative IPC: 1.45764 (Simulation time: 0 hr 1 min 3 sec) 
Heartbeat CPU  0 instructions:   39000000 cycles:   24126332 heartbeat IPC: 1.66888 cumulative IPC: 1.46403 (Simulation time: 0 hr 1 min 5 sec) 
Heartbeat CPU  0 instructions:   40000000 cycles:   24966039 heartbeat IPC: 1.19089 cumulative IPC: 1.45292 (Simulation time: 0 hr 1 min 7 sec) 
Heartbeat CPU  0 instructions:   41000001 cycles:   25528180 heartbeat IPC: 1.77891 cumulative IPC: 1.46156 (Simulation time: 0 hr 1 min 8 sec) 
Heartbeat CPU  0 instructions:   42000002 cycles:   26145260 heartbeat IPC: 1.62054 cumulative IPC: 1.46606 (Simulation time: 0 hr 1 min 10 sec) 
Heartbeat CPU  0 instructions:   43000001 cycles:   26943265 heartbeat IPC: 1.25312 cumulative IPC: 1.45855 (Simulation time: 0 hr 1 min 12 sec) 
Heartbeat CPU  0 instructions:   44000000 cycles:   27505755 heartbeat IPC: 1.77781 cumulative IPC: 1.46629 (Simulation time: 0 hr 1 min 13 sec) 
Heartbeat CPU  0 instructions:   45000001 cycles:   28131170 heartbeat IPC: 1.59894 cumulative IPC: 1.46978 (Simulation time: 0 hr 1 min 15 sec) 
Heartbeat CPU  0 instructions:   46000003 cycles:   28931677 heartbeat IPC: 1.24921 cumulative IPC: 1.46260 (Simulation time: 0 hr 1 min 17 sec) 
Heartbeat CPU  0 instructions:   47000002 cycles:   29490937 heartbeat IPC: 1.78808 cumulative IPC: 1.46983 (Simulation time: 0 hr 1 min 19 sec) 
Heartbeat CPU  0 instructions:   48000000 cycles:   30136010 heartbeat IPC: 1.55021 cumulative IPC: 1.47184 (Simulation time: 0 hr 1 min 20 sec) 
Heartbeat CPU  0 instructions:   49000001 cycles:   30895054 heartbeat IPC: 1.31745 cumulative IPC: 1.46743 (Simulation time: 0 hr 1 min 22 sec) 
Heartbeat CPU  0 instructions:   50000003 cycles:   31455408 heartbeat IPC: 1.78459 cumulative IPC: 1.47398 (Simulation time: 0 hr 1 min 24 sec) 
Heartbeat CPU  0 instructions:   51000001 cycles:   32118655 heartbeat IPC: 1.50773 cumulative IPC: 1.47479 (Simulation time: 0 hr 1 min 25 sec) 
Heartbeat CPU  0 instructions:   52000000 cycles:   32839663 heartbeat IPC: 1.38695 cumulative IPC: 1.47257 (Simulation time: 0 hr 1 min 27 sec) 
Heartbeat CPU  0 instructions:   53000001 cycles:   33397578 heartbeat IPC: 1.79239 cumulative IPC: 1.47870 (Simulation time: 0 hr 1 min 29 sec) 
Heartbeat CPU  0 instructions:   54000000 cycles:   34056493 heartbeat IPC: 1.51764 cumulative IPC: 1.47956 (Simulation time: 0 hr 1 min 31 sec) 
Heartbeat CPU  0 instructions:   55000003 cycles:   34740215 heartbeat IPC: 1.46259 cumulative IPC: 1.47918 (Simulation time: 0 hr 1 min 32 sec) 
Heartbeat CPU  0 instructions:   56000000 cycles:   35297452 heartbeat IPC: 1.79456 cumulative IPC: 1.48486 (Simulation time: 0 hr 1 min 34 sec) 
Heartbeat CPU  0 instructions:   57000001 cycles:   36105896 heartbeat IPC: 1.23695 cumulative IPC: 1.47855 (Simulation time: 0 hr 1 min 36 sec) 
Heartbeat CPU  0 instructions:   58000003 cycles:   37225371 heartbeat IPC: 0.89328 cumulative IPC: 1.45864 (Simulation time: 0 hr 1 min 37 sec) 
Heartbeat CPU  0 instructions:   59000000 cycles:   38007984 heartbeat IPC: 1.27777 cumulative IPC: 1.45444 (Simulation time: 0 hr 1 min 39 sec) 
Heartbeat CPU  0 instructions:   60000000 cycles:   38570379 heartbeat IPC: 1.77811 cumulative IPC: 1.45975 (Simulation time: 0 hr 1 min 41 sec) 
Finished CPU 0 instructions: 50000000 cycles: 34252374 cumulative IPC: 1.45975 (Simulation time: 0 hr 1 min 41 sec) 

ChampSim completed all CPUs

[ROI Statistics]
Core_0_instructions 50000000
Core_0_cycles 34252374
Core_0_IPC 1.45975

Core_0_branch_prediction_accuracy 98.76540
Core_0_branch_MPKI 1.05530
Core_0_average_ROB_occupancy_at_mispredict 126.45377

Core_0_L1D_total_access 7546312
Core_0_L1D_total_hit 6876250
Core_0_L1D_total_miss 670062
Core_0_L1D_loads 6800253
Core_0_L1D_load_hit 6197057
Core_0_L1D_load_miss 603196
Core_0_L1D_RFOs 746059
Core_0_L1D_RFO_hit 679193
Core_0_L1D_RFO_miss 66866
Core_0_L1D_prefetches 0
Core_0_L1D_prefetch_hit 0
Core_0_L1D_prefetch_miss 0
Core_0_L1D_writebacks 0
Core_0_L1D_writeback_hit 0
Core_0_L1D_writeback_miss 0
Core_0_L1D_prefetch_requested 0
Core_0_L1D_prefetch_dropped 0
Core_0_L1D_prefetch_issued 0
Core_0_L1D_prefetch_filled 0
Core_0_L1D_prefetch_useful 0
Core_0_L1D_prefetch_useless 0
Core_0_L1D_prefetch_late 0
Core_0_L1D_average_miss_latency 21.64893

Core_0_L1D_rq_access 11585121
Core_0_L1D_rq_forward 0
Core_0_L1D_rq_merged 4401195
Core_0_L1D_rq_to_cache 7183922
Core_0_L1D_rq_full 0

Core_0_L1D_wq_access 920792
Core_0_L1D_wq_forward 4
Core_0_L1D_wq_merged 8945
Core_0_L1D_wq_to_cache 911847
Core_0_L1D_wq_full 7756

Core_0_L1D_pq_access 0
Core_0_L1D_pq_forward 0
Core_0_L1D_pq_merged 0
Core_0_L1D_pq_to_cache 0
Core_0_L1D_pq_full 0

Core_0_L1D_acc_epochs 37644
Core_0_L1D_acc_level_0 37644
Core_0_L1D_acc_level_1 0
Core_0_L1D_acc_level_2 0
Core_0_L1D_acc_level_3 0
Core_0_L1D_acc_level_4 0
Core_0_L1D_acc_level_5 0
Core_0_L1D_acc_level_6 0
Core_0_L1D_acc_level_7 0
Core_0_L1D_acc_level_8 0
Core_0_L1D_acc_level_9 0

Core_0_L1I_total_access 12792520
Core_0_L1I_total_hit 12791625
Core_0_L1I_total_miss 895
Core_0_L1I_loads 12792520
Core_0_L1I_load_hit 12791625
Core_0_L1I_load_miss 895
Core_0_L1I_RFOs 0
Core_0_L1I_RFO_hit 0
Core_0_L1I_RFO_miss 0
Core_0_L1I_prefetches 0
Core_0_L1I_prefetch_hit 0
Core_0_L1I_prefetch_miss 0
Core_0_L1I_writebacks 0
Core_0_L1I_writeback_hit 0
Core_0_L1I_writeback_miss 0
Core_0_L1I_prefetch_requested 0
Core_0_L1I_prefetch_dropped 0
Core_0_L1I_prefetch_issued 0
Core_0_L1I_prefetch_filled 0
Core_0_L1I_prefetch_useful 0
Core_0_L1I_prefetch_useless 0
Core_0_L1I_prefetch_late 0
Core_0_L1I_average_miss_latency 117.45028

Core_0_L1I_rq_access 50000007
Core_0_L1I_rq_forward 0
Core_0_L1I_rq_merged 37206737
Core_0_L1I_rq_to_cache 12793270
Core_0_L1I_rq_full 0

Core_0_L1I_wq_access 0
Core_0_L1I_wq_forward 0
Core_0_L1I_wq_merged 0
Core_0_L1I_wq_to_cache 0
Core_0_L1I_wq_full 0

Core_0_L1I_pq_access 0
Core_0_L1I_pq_forward 0
Core_0_L1I_pq_merged 0
Core_0_L1I_pq_to_cache 0
Core_0_L1I_pq_full 0

Core_0_L1I_acc_epochs 37644
Core_0_L1I_acc_level_0 37644
Core_0_L1I_acc_level_1 0
Core_0_L1I_acc_level_2 0
Core_0_L1I_acc_level_3 0
Core_0_L1I_acc_level_4 0
Core_0_L1I_acc_level_5 0
Core_0_L1I_acc_level_6 0
Core_0_L1I_acc_level_7 0
Core_0_L1I_acc_level_8 0
Core_0_L1I_acc_level_9 0

Core_0_L2C_total_access 3203472
Core_0_L2C_total_hit 2560258
Core_0_L2C_total_miss 643214
Core_0_L2C_loads 604091
Core_0_L2C_load_hit 551063
Core_0_L2C_load_miss 53028
Core_0_L2C_RFOs 66866
Core_0_L2C_RFO_hit 5745
Core_0_L2C_RFO_miss 61121
Core_0_L2C_prefetches 2462620
Core_0_L2C_prefetch_hit 1933744
Core_0_L2C_prefetch_miss 528876
Core_0_L2C_writebacks 69895
Core_0_L2C_writeback_hit 69706
Core_0_L2C_writeback_miss 189
Core_0_L2C_prefetch_requested 3301816
Core_0_L2C_prefetch_dropped 4028
Core_0_L2C_prefetch_issued 3297788
Core_0_L2C_prefetch_filled 657695
Core_0_L2C_prefetch_useful 601908
Core_0_L2C_prefetch_useless 55764
Core_0_L2C_prefetch_late 9446
Core_0_L2C_average_miss_latency 74.46632

Core_0_L2C_rq_access 670957
Core_0_L2C_rq_forward 0
Core_0_L2C_rq_merged 0
Core_0_L2C_rq_to_cache 670957
Core_0_L2C_rq_full 0

Core_0_L2C_wq_access 69895
Core_0_L2C_wq_forward 0
Core_0_L2C_wq_merged 0
Core_0_L2C_wq_to_cache 69895
Core_0_L2C_wq_full 0

Core_0_L2C_pq_access 3297788
Core_0_L2C_pq_forward 0
Core_0_L2C_pq_merged 88923
Core_0_L2C_pq_to_cache 3208865
Core_0_L2C_pq_full 0

Core_0_L2C_acc_epochs 37644
Core_0_L2C_acc_level_0 6298
Core_0_L2C_acc_level_1 313
Core_0_L2C_acc_level_2 331
Core_0_L2C_acc_level_3 391
Core_0_L2C_acc_level_4 807
Core_0_L2C_acc_level_5 847
Core_0_L2C_acc_level_6 971
Core_0_L2C_acc_level_7 1127
Core_0_L2C_acc_level_8 1816
Core_0_L2C_acc_level_9 24743

Core_0_LLC_total_access 706700
Core_0_LLC_total_hit 461875
Core_0_LLC_total_miss 244825
Core_0_LLC_loads 43658
Core_0_LLC_load_hit 36104
Core_0_LLC_load_miss 7554
Core_0_LLC_RFOs 61120
Core_0_LLC_RFO_hit 59229
Core_0_LLC_RFO_miss 1891
Core_0_LLC_prefetches 538247
Core_0_LLC_prefetch_hit 303516
Core_0_LLC_prefetch_miss 234731
Core_0_LLC_writebacks 63675
Core_0_LLC_writeback_hit 63026
Core_0_LLC_writeback_miss 649
Core_0_LLC_prefetch_requested 0
Core_0_LLC_prefetch_dropped 0
Core_0_LLC_prefetch_issued 0
Core_0_LLC_prefetch_filled 326371
Core_0_LLC_prefetch_useful 2315
Core_0_LLC_prefetch_useless 299866
Core_0_LLC_prefetch_late 0
Core_0_LLC_average_miss_latency 120.04463

Core_0_LLC_rq_access 104778
Core_0_LLC_rq_forward 0
Core_0_LLC_rq_merged 0
Core_0_LLC_rq_to_cache 104778
Core_0_LLC_rq_full 0

Core_0_LLC_wq_access 63675
Core_0_LLC_wq_forward 0
Core_0_LLC_wq_merged 0
Core_0_LLC_wq_to_cache 63675
Core_0_LLC_wq_full 0

Core_0_LLC_pq_access 667141
Core_0_LLC_pq_forward 0
Core_0_LLC_pq_merged 0
Core_0_LLC_pq_to_cache 667141
Core_0_LLC_pq_full 0

Core_0_LLC_acc_epochs 37667
Core_0_LLC_acc_level_0 36578
Core_0_LLC_acc_level_1 431
Core_0_LLC_acc_level_2 293
Core_0_LLC_acc_level_3 64
Core_0_LLC_acc_level_4 20
Core_0_LLC_acc_level_5 164
Core_0_LLC_acc_level_6 21
Core_0_LLC_acc_level_7 16
Core_0_LLC_acc_level_8 6
Core_0_LLC_acc_level_9 74

Core_0_major_page_fault 0
Core_0_minor_page_fault 2334

scooby_st_lookup 749648
scooby_st_hit 726962
scooby_st_evict 22622
scooby_st_insert 22686
scooby_st_streaming 0

scooby_predict_called 749648
scooby_predict_out_of_bounds 21850
scooby_predict_action_1 660290
scooby_predict_issue_action_1 644562
scooby_predict_hit_action_1 15728
scooby_predict_out_of_bounds_action_1 10601
scooby_predict_action_3 1722
scooby_predict_issue_action_3 1528
scooby_predict_hit_action_3 194
scooby_predict_out_of_bounds_action_3 132
scooby_predict_action_4 821
scooby_predict_issue_action_4 725
scooby_predict_hit_action_4 96
scooby_predict_out_of_bounds_action_4 47
scooby_predict_action_5 9137
scooby_predict_issue_action_5 8936
scooby_predict_hit_action_5 201
scooby_predict_out_of_bounds_action_5 783
scooby_predict_action_10 49941
scooby_predict_issue_action_10 49476
scooby_predict_hit_action_10 465
scooby_predict_out_of_bounds_action_10 8971
scooby_predict_action_11 565
scooby_predict_issue_action_11 499
scooby_predict_hit_action_11 66
scooby_predict_out_of_bounds_action_11 106
scooby_predict_action_12 655
scooby_predict_issue_action_12 595
scooby_predict_hit_action_12 60
scooby_predict_out_of_bounds_action_12 134
scooby_predict_action_22 393
scooby_predict_issue_action_22 335
scooby_predict_hit_action_22 58
scooby_predict_out_of_bounds_action_22 173
scooby_predict_action_23 432
scooby_predict_issue_action_23 386
scooby_predict_hit_action_23 46
scooby_predict_out_of_bounds_action_23 203
scooby_predict_action_30 271
scooby_predict_issue_action_30 247
scooby_predict_hit_action_30 24
scooby_predict_out_of_bounds_action_30 259
scooby_predict_action_32 458
scooby_predict_issue_action_32 420
scooby_predict_hit_action_32 38
scooby_predict_out_of_bounds_action_32 344
scooby_predict_action_-1 767
scooby_predict_issue_action_-1 622
scooby_predict_hit_action_-1 145
scooby_predict_out_of_bounds_action_-1 19
scooby_predict_action_-3 705
scooby_predict_issue_action_-3 554
scooby_predict_hit_action_-3 151
scooby_predict_out_of_bounds_action_-3 34
scooby_predict_action_-6 651
scooby_predict_issue_action_-6 514
scooby_predict_hit_action_-6 137
scooby_predict_out_of_bounds_action_-6 44
scooby_predict_action_0 990
scooby_predict_issue_action_0 0
scooby_predict_hit_action_0 0
scooby_predict_out_of_bounds_action_0 0
scooby_predict_multi_deg_called 627934
scooby_predict_predicted 3301816
scooby_predict_multi_deg 2592417
scooby_predict_multi_deg_2 609176
scooby_predict_multi_deg_3 555496
scooby_predict_multi_deg_4 537173
scooby_predict_multi_deg_5 450272
scooby_predict_multi_deg_6 440300
scooby_predict_multi_deg_7 0
scooby_predict_multi_deg_8 0
scooby_predict_multi_deg_9 0
scooby_predict_multi_deg_10 0
scooby_predict_multi_deg_11 0
scooby_predict_multi_deg_12 0
scooby_predict_multi_deg_13 0
scooby_predict_multi_deg_14 0
scooby_predict_multi_deg_15 0
scooby_predict_multi_deg_16 0

scooby_selected_deg_1 81465
scooby_selected_deg_2 35553
scooby_selected_deg_3 0
scooby_selected_deg_4 75254
scooby_selected_deg_5 0
scooby_selected_deg_6 517127
scooby_selected_deg_7 0
scooby_selected_deg_8 0
scooby_selected_deg_9 0
scooby_selected_deg_10 0
scooby_selected_deg_11 0
scooby_selected_deg_12 0
scooby_selected_deg_13 0
scooby_selected_deg_14 0
scooby_selected_deg_15 0
scooby_selected_deg_16 0

scooby_state_4268ce|32|1 2986,0,1,0,1,1,0,2,0,0,1,0,0,0,0,2992,
scooby_state_4268ce|0|0 2984,0,1,0,2,1,0,0,1,0,0,2,0,0,0,2991,
scooby_state_4268ce|39|1 2983,0,0,0,0,1,1,0,2,1,0,0,0,0,0,2988,
scooby_state_4268ce|51|1 2986,0,0,0,0,0,1,0,0,1,0,0,0,0,0,2988,
scooby_state_4268ce|42|1 2981,0,0,1,0,1,0,0,2,2,0,1,0,0,0,2988,
scooby_state_4268ce|38|1 2982,0,0,1,3,0,0,2,0,0,0,0,0,0,0,2988,
scooby_state_4268ce|19|1 2983,1,0,1,1,0,0,0,0,0,1,1,0,0,0,2988,
scooby_state_4268ce|55|1 2981,1,0,1,0,0,0,0,1,0,0,0,0,1,2,2987,
scooby_state_4268ce|6|1 2980,0,1,0,1,0,2,0,0,0,1,1,1,0,0,2987,
scooby_state_4268ce|7|1 2978,1,1,2,1,0,0,0,0,1,0,0,2,1,0,2987,
scooby_state_4268ce|59|1 2981,0,0,1,0,0,0,1,1,1,0,0,0,1,0,2986,
scooby_state_4268ce|23|1 2981,1,1,0,1,0,0,1,0,0,1,0,0,0,0,2986,
scooby_state_4268ce|45|1 2981,0,0,0,0,1,0,1,1,1,0,1,0,0,0,2986,
scooby_state_4268ce|27|1 2981,1,0,0,0,1,0,1,0,0,0,0,1,0,0,2985,
scooby_state_4268ce|50|1 2977,2,0,1,0,1,0,0,0,1,1,0,0,1,0,2984,
scooby_state_4268ce|52|1 2980,0,1,0,1,0,1,0,0,1,0,0,0,0,0,2984,
scooby_state_4268ce|37|1 2977,1,0,0,1,2,0,0,0,2,0,0,0,1,0,2984,
scooby_state_4268ce|20|1 2980,0,1,0,0,0,0,0,0,2,0,0,0,0,1,2984,
scooby_state_4268ce|18|1 2977,0,1,1,1,0,1,1,0,0,0,0,1,1,0,2984,
scooby_state_4268ce|41|1 2979,0,1,0,0,0,0,0,0,1,1,0,0,0,2,2984,
scooby_state_4268ce|5|1 2981,0,0,0,1,0,0,1,0,0,0,0,0,0,0,2983,
scooby_state_4268ce|9|1 2979,1,0,0,0,0,0,0,0,1,0,1,1,0,0,2983,
scooby_state_4268ce|58|1 2977,0,0,0,1,1,0,0,0,0,0,0,1,0,2,2982,
scooby_state_4268ce|49|1 2979,0,1,0,0,0,0,0,0,0,0,1,0,1,0,2982,
scooby_state_4268ce|17|1 2977,0,0,0,0,0,1,0,0,0,0,1,1,1,1,2982,
scooby_state_4268ce|26|1 2975,0,0,1,1,0,1,0,1,1,1,1,0,0,0,2982,
scooby_state_4268ce|8|1 2979,1,1,0,0,0,0,0,0,0,0,0,0,0,0,2981,
scooby_state_4268ce|24|1 2976,0,0,0,0,0,2,0,1,0,0,0,1,1,0,2981,
scooby_state_4268ce|34|1 2974,2,0,0,1,0,0,0,1,0,0,0,2,1,0,2981,
scooby_state_4268ce|2|1 2978,0,0,1,0,0,0,1,1,0,0,0,0,0,0,2981,
scooby_state_4268ce|56|1 2978,0,0,0,0,0,1,0,1,0,0,1,0,0,0,2981,
scooby_state_4268ce|40|1 2974,1,0,0,1,0,2,0,0,1,0,1,0,1,0,2981,
scooby_state_4268ce|36|1 2975,0,1,0,0,1,1,1,0,0,0,0,0,0,1,2980,
scooby_state_4268ce|33|1 2974,1,1,0,0,0,0,0,0,2,0,0,1,0,1,2980,
scooby_state_4268ce|54|1 2977,0,0,0,0,0,0,0,0,0,0,0,1,0,1,2979,
scooby_state_4268ce|31|1 2973,0,1,1,2,0,1,0,1,0,0,0,0,0,0,2979,
scooby_state_4268ce|1|1 2974,0,1,0,1,0,0,1,0,2,0,0,0,0,0,2979,
scooby_state_4268ce|4|1 2973,0,0,0,2,0,0,0,2,0,1,0,0,0,1,2979,
scooby_state_4268ce|63|1 2975,0,0,0,1,0,1,0,0,0,0,0,0,0,1,2978,
scooby_state_4268ce|57|1 2971,2,0,0,0,0,0,1,0,1,1,2,0,0,0,2978,
scooby_state_4268ce|22|1 2971,2,1,0,0,1,0,1,1,0,0,0,1,0,0,2978,
scooby_state_4268ce|25|1 2974,1,0,0,0,0,1,0,0,0,0,0,1,1,0,2978,
scooby_state_4268ce|53|1 2970,0,1,0,0,2,0,0,0,1,0,0,0,1,1,2976,
scooby_state_4268ce|21|1 2973,0,0,0,0,0,1,0,0,1,1,0,0,0,0,2976,
scooby_state_4268ce|29|1 2969,0,1,0,0,0,0,0,0,0,2,0,1,0,1,2974,
scooby_state_4268ce|46|1 2968,1,0,1,0,0,1,0,1,0,0,0,1,1,0,2974,
scooby_state_4268ce|43|1 2967,1,0,1,1,1,0,0,0,1,0,0,0,1,0,2973,
scooby_state_4268ce|14|1 2970,0,1,0,0,0,0,0,2,0,0,0,0,0,0,2973,
scooby_state_4268ce|61|1 2967,0,0,0,2,1,0,1,0,0,0,0,0,0,1,2972,
scooby_state_4268ce|48|1 2962,0,0,2,0,0,0,1,0,1,4,0,2,0,0,2972,
scooby_state_4268ce|60|1 2966,0,1,0,1,0,0,0,1,2,0,0,0,1,0,2972,
scooby_state_4268ce|28|1 2969,0,2,0,0,1,0,0,0,0,0,0,0,0,0,2972,
scooby_state_4268ce|16|1 2967,0,2,0,0,0,1,0,0,1,0,0,1,0,0,2972,
scooby_state_4268ce|10|1 2962,0,0,0,1,0,0,1,3,0,0,0,1,0,0,2968,
scooby_state_4268ce|35|1 2960,1,2,0,0,0,0,1,0,1,1,0,0,0,2,2968,
scooby_state_4268ce|13|1 2961,1,0,2,0,0,0,1,0,0,0,0,0,1,1,2967,
scooby_state_4268ce|3|1 2963,0,0,0,0,0,0,0,0,0,0,1,2,1,0,2967,
scooby_state_4268ce|15|1 2954,0,3,1,0,1,0,1,0,0,0,0,1,0,2,2963,
scooby_state_4268ce|44|1 2957,0,1,0,0,0,0,1,1,0,0,1,1,0,1,2963,
scooby_state_4268ce|30|1 2956,0,0,0,2,1,0,1,0,0,0,1,0,1,0,2962,
scooby_state_4268ce|47|1 2955,1,0,1,1,0,1,1,0,0,0,0,0,0,2,2962,
scooby_state_4268ce|62|1 2957,0,1,0,0,0,1,0,1,0,1,0,0,0,0,2961,
scooby_state_4268ce|11|1 2928,0,1,1,1,2,0,0,0,0,1,0,0,0,0,2934,
scooby_state_4268ce|12|1 2921,1,0,1,0,1,0,0,1,0,0,0,0,0,0,2925,
scooby_state_4268f9|40|1 2752,0,0,1,0,1,1,0,0,0,0,1,1,0,1,2758,
scooby_state_4268f9|8|1 2752,1,0,0,0,0,1,0,1,0,0,0,0,0,2,2757,
scooby_state_4268f9|56|1 2751,0,1,0,0,1,0,0,0,0,1,1,0,0,1,2756,
scooby_state_4268f9|24|1 2751,1,0,0,1,1,0,0,0,2,0,0,0,0,0,2756,
scooby_state_4268f9|26|1 2750,0,1,0,0,0,0,0,0,2,0,1,0,2,0,2756,
scooby_state_4268f9|58|1 2753,0,1,0,0,0,1,0,0,0,0,0,0,0,0,2755,
scooby_state_4268f9|25|1 2748,0,0,0,1,0,1,0,2,2,0,0,0,1,0,2755,
scooby_state_4268f9|57|1 2747,0,2,0,0,0,0,0,2,0,1,1,1,1,0,2755,
scooby_state_4268f9|59|1 2746,0,1,0,0,0,0,0,0,2,1,1,0,3,0,2754,
scooby_state_4268f9|53|1 2751,0,0,0,1,0,0,0,0,0,0,0,0,0,2,2754,
scooby_state_4268f9|38|1 2753,1,0,0,0,0,0,0,0,0,0,0,0,0,0,2754,
scooby_state_4268f9|22|1 2747,1,0,0,0,0,1,1,2,0,0,0,0,0,2,2754,
scooby_state_4268f9|43|1 2748,0,0,0,1,3,0,1,0,0,0,0,0,0,1,2754,
scooby_state_4268f9|39|1 2745,0,1,1,0,0,0,2,0,1,1,2,1,0,0,2754,
scooby_state_4268f9|27|1 2752,0,1,0,0,0,0,0,0,0,0,0,0,1,0,2754,
scooby_state_4268f9|21|1 2750,0,0,2,0,1,0,0,0,0,0,0,0,1,0,2754,
scooby_state_4268f9|10|1 2749,1,0,0,0,0,0,0,0,0,2,0,0,0,1,2753,
scooby_state_4268f9|11|1 2747,1,0,1,0,1,1,1,0,1,0,0,0,0,0,2753,
scooby_state_4268f9|6|1 2751,0,1,0,0,0,0,0,0,1,0,0,0,0,0,2753,
scooby_state_4268f9|7|1 2751,1,0,0,0,0,0,0,0,0,0,0,0,1,0,2753,
scooby_state_4268f9|42|1 2749,0,0,0,1,0,0,0,0,1,0,1,0,1,0,2753,
scooby_state_4268f9|41|1 2748,0,1,0,1,1,0,1,0,0,0,0,0,0,1,2753,
scooby_state_4268f9|54|1 2750,0,1,0,1,0,1,0,0,0,0,0,0,0,0,2753,
scooby_state_4268f9|9|1 2742,1,0,1,1,0,1,0,0,0,2,1,2,0,2,2753,
scooby_state_4268f9|60|1 2746,0,0,0,0,0,0,0,1,0,1,2,1,0,0,2751,
scooby_state_4268f9|28|1 2747,1,0,1,0,0,0,0,1,0,0,0,0,0,0,2750,
scooby_state_4268f9|44|1 2741,0,0,0,0,0,0,1,0,2,1,0,0,1,0,2746,
scooby_state_4268f9|23|1 2742,0,1,1,1,0,0,0,0,0,0,0,0,0,1,2746,
scooby_state_4268f9|35|1 2738,1,0,0,1,1,0,1,1,1,0,1,0,1,0,2746,
scooby_state_4268f9|37|1 2745,0,0,0,0,0,0,0,1,0,0,0,0,0,0,2746,
scooby_state_4268f9|61|1 2743,0,0,1,0,0,1,0,0,0,0,0,0,1,0,2746,
scooby_state_4268f9|36|1 2743,0,1,1,0,0,0,0,0,0,1,0,0,0,0,2746,
scooby_state_4268f9|55|1 2741,0,0,0,0,1,0,0,2,1,0,0,0,0,0,2745,
scooby_state_4268f9|5|1 2740,0,1,0,0,0,1,0,2,0,0,0,0,1,0,2745,
scooby_state_4268f9|12|1 2740,0,0,2,0,0,1,0,0,0,0,1,0,0,1,2745,
scooby_state_4268f9|29|1 2739,3,0,0,0,0,0,1,0,1,0,1,0,0,0,2745,
scooby_state_4268f9|4|1 2742,0,0,0,1,0,0,0,0,0,0,1,0,1,0,2745,
scooby_state_4268f9|17|1 2743,0,0,1,0,0,0,0,0,0,0,0,0,0,0,2744,
scooby_state_4268f9|3|1 2742,0,0,1,0,0,0,0,0,0,0,0,1,0,0,2744,
scooby_state_4268f9|31|1 2739,0,0,0,1,1,1,0,0,0,1,0,0,1,0,2744,
scooby_state_4268f9|30|1 2736,0,0,0,1,0,2,0,1,2,1,0,0,0,1,2744,
scooby_state_4268f9|49|1 2743,0,0,1,0,0,0,0,0,0,0,0,0,0,0,2744,
scooby_state_4268f9|2|1 2740,0,0,0,0,0,0,0,0,0,1,1,1,0,0,2743,
scooby_state_4268f9|34|1 2738,1,1,1,0,0,1,1,0,0,0,0,0,0,0,2743,
scooby_state_4268f9|63|1 2736,1,1,0,0,1,1,0,0,0,1,0,1,0,1,2743,
scooby_state_4268f9|62|1 2739,1,0,0,0,0,0,0,0,0,2,0,1,0,0,2743,
scooby_state_4268f9|14|1 2734,0,1,1,0,1,0,1,0,0,0,1,0,3,0,2742,
scooby_state_4268f9|45|1 2739,0,0,0,1,1,0,0,0,0,0,1,0,0,0,2742,
scooby_state_4268f9|46|1 2740,0,0,0,0,0,1,0,0,1,0,0,0,0,0,2742,
scooby_state_4268f9|20|1 2741,0,0,0,0,0,0,0,0,0,1,0,0,0,0,2742,
scooby_state_4268f9|13|1 2737,0,0,0,1,0,0,0,1,1,0,0,1,0,1,2742,
scooby_state_4268f9|52|1 2738,0,0,0,1,0,0,2,0,0,0,0,0,1,0,2742,
scooby_state_4268f9|47|1 2732,1,1,0,1,0,1,0,0,2,0,0,0,0,3,2741,
scooby_state_4268f9|15|1 2737,0,0,1,2,0,0,0,0,0,1,0,0,0,0,2741,
scooby_state_4268f9|16|1 2734,0,0,0,1,1,0,0,0,2,0,0,0,0,1,2739,
scooby_state_4268f9|48|1 2732,0,1,0,0,0,1,3,0,0,0,0,1,0,1,2739,
scooby_state_4268f9|19|1 2731,0,0,2,0,0,2,0,2,0,0,0,0,0,1,2738,
scooby_state_4268f9|18|1 2733,0,0,0,1,1,0,0,0,1,0,0,1,1,0,2738,
scooby_state_4268f9|50|1 2733,0,0,0,0,0,0,0,0,1,0,0,1,0,3,2738,
scooby_state_4268f9|51|1 2730,0,0,1,0,1,0,0,0,1,1,0,2,1,1,2738,
scooby_state_4268f9|32|1 2732,0,0,1,0,1,1,0,0,1,0,1,0,0,0,2737,
scooby_state_4268f9|33|1 2734,0,0,0,0,0,0,0,2,0,0,0,0,1,0,2737,
scooby_state_4268f9|0|0 2732,0,0,0,0,0,0,1,0,1,1,0,0,0,1,2736,
scooby_state_4268f9|1|1 2726,0,0,0,1,0,1,0,0,0,0,1,2,1,0,2732,
scooby_state_41df40|51|1 607,0,0,0,0,0,0,1,0,0,0,0,0,0,0,608,
scooby_state_41df40|44|1 607,0,0,0,0,0,0,0,0,0,1,0,0,0,0,608,
scooby_state_41df40|35|1 608,0,0,0,0,0,0,0,0,0,0,0,0,0,0,608,
scooby_state_41df40|2|1 607,0,0,0,0,0,0,1,0,0,0,0,0,0,0,608,
scooby_state_41df40|43|1 608,0,0,0,0,0,0,0,0,0,0,0,0,0,0,608,
scooby_state_41df40|23|1 607,0,0,0,0,0,1,0,0,0,0,0,0,0,0,608,
scooby_state_41df40|41|1 606,0,0,0,0,0,0,0,0,1,0,0,0,1,0,608,
scooby_state_41df40|52|1 607,0,0,0,0,0,0,0,1,0,0,0,0,0,0,608,
scooby_state_41df40|5|1 608,0,0,0,0,0,0,0,0,0,0,0,0,0,0,608,
scooby_state_41df40|1|1 608,0,0,0,0,0,0,0,0,0,0,0,0,0,0,608,
scooby_state_41df40|8|1 607,0,1,0,0,0,0,0,0,0,0,0,0,0,0,608,
scooby_state_41df40|24|1 607,0,0,0,0,0,1,0,0,0,0,0,0,0,0,608,
scooby_state_41df40|11|1 606,0,0,0,0,0,0,0,0,0,0,1,1,0,0,608,
scooby_state_41df40|19|1 607,0,0,0,0,0,0,0,0,0,0,1,0,0,0,608,
scooby_state_41df40|40|1 608,0,0,0,0,0,0,0,0,0,0,0,0,0,0,608,
scooby_state_41df40|63|1 606,1,0,0,0,0,0,1,0,0,0,0,0,0,0,608,
scooby_state_41df40|39|1 607,0,0,0,1,0,0,0,0,0,0,0,0,0,0,608,
scooby_state_41df40|36|1 607,0,0,0,0,0,0,0,0,0,0,0,1,0,0,608,
scooby_state_41df40|20|1 608,0,0,0,0,0,0,0,0,0,0,0,0,0,0,608,
scooby_state_41df40|9|1 606,0,0,0,0,0,1,0,0,0,0,0,0,1,0,608,
scooby_state_41df40|54|1 608,0,0,0,0,0,0,0,0,0,0,0,0,0,0,608,
scooby_state_41df40|30|1 607,1,0,0,0,0,0,0,0,0,0,0,0,0,0,608,
scooby_state_41df40|26|1 607,0,0,0,0,1,0,0,0,0,0,0,0,0,0,608,
scooby_state_41df40|17|1 608,0,0,0,0,0,0,0,0,0,0,0,0,0,0,608,
scooby_state_41df40|27|1 606,0,1,0,0,0,0,0,0,0,0,1,0,0,0,608,
scooby_state_41df40|18|1 606,0,0,0,0,0,0,0,0,1,0,1,0,0,0,608,
scooby_state_41df40|49|1 607,0,0,0,0,0,0,0,0,0,0,0,0,0,1,608,
scooby_state_41df40|34|1 608,0,0,0,0,0,0,0,0,0,0,0,0,0,0,608,
scooby_state_41df40|48|1 608,0,0,0,0,0,0,0,0,0,0,0,0,0,0,608,
scooby_state_41df40|25|1 608,0,0,0,0,0,0,0,0,0,0,0,0,0,0,608,
scooby_state_41df40|12|1 607,0,0,0,0,0,0,0,0,0,1,0,0,0,0,608,
scooby_state_41df40|46|1 607,0,0,1,0,0,0,0,0,0,0,0,0,0,0,608,
scooby_state_41df40|29|1 608,0,0,0,0,0,0,0,0,0,0,0,0,0,0,608,
scooby_state_41df40|7|1 608,0,0,0,0,0,0,0,0,0,0,0,0,0,0,608,
scooby_state_41df40|32|1 607,0,0,0,0,0,0,0,1,0,0,0,0,0,0,608,
scooby_state_41df40|45|1 606,0,0,0,0,0,1,0,0,0,0,1,0,0,0,608,
scooby_state_41df40|10|1 608,0,0,0,0,0,0,0,0,0,0,0,0,0,0,608,
scooby_state_41df40|38|1 608,0,0,0,0,0,0,0,0,0,0,0,0,0,0,608,
scooby_state_41df40|42|1 606,0,0,0,0,0,0,1,0,0,0,0,0,0,1,608,
scooby_state_41df40|28|1 605,0,0,1,1,1,0,0,0,0,0,0,0,0,0,608,
scooby_state_41df40|6|1 607,1,0,0,0,0,0,0,0,0,0,0,0,0,0,608,
scooby_state_41df40|33|1 608,0,0,0,0,0,0,0,0,0,0,0,0,0,0,608,
scooby_state_41df40|53|1 608,0,0,0,0,0,0,0,0,0,0,0,0,0,0,608,
scooby_state_41df40|50|1 607,0,0,0,0,0,0,0,0,0,0,1,0,0,0,608,
scooby_state_41df40|37|1 607,0,0,0,0,0,0,0,0,0,0,0,1,0,0,608,
scooby_state_41df40|16|1 608,0,0,0,0,0,0,0,0,0,0,0,0,0,0,608,
scooby_state_41df40|13|1 608,0,0,0,0,0,0,0,0,0,0,0,0,0,0,608,
scooby_state_41df40|47|1 606,0,0,0,0,0,1,0,0,0,0,0,0,1,0,608,
scooby_state_41df40|15|1 606,0,1,0,0,0,0,0,0,0,0,1,0,0,0,608,
scooby_state_41df40|3|1 606,0,0,0,0,0,0,1,0,0,0,1,0,0,0,608,
scooby_state_41df40|14|1 608,0,0,0,0,0,0,0,0,0,0,0,0,0,0,608,
scooby_state_41df40|31|1 605,0,1,0,1,0,0,0,0,1,0,0,0,0,0,608,
scooby_state_41df40|0|0 606,0,0,0,0,2,0,0,0,0,0,0,0,0,0,608,
scooby_state_41df40|4|1 606,0,0,0,0,0,0,0,0,0,0,0,1,1,0,608,
scooby_state_41df40|22|1 607,0,0,0,0,0,0,0,0,0,0,0,0,0,0,607,
scooby_state_41df40|21|1 606,0,0,0,0,1,0,0,0,0,0,0,0,0,0,607,
scooby_state_41df40|61|1 591,0,0,0,0,0,1,0,0,0,0,0,0,0,0,592,
scooby_state_41df40|57|1 588,1,0,0,0,0,0,0,0,0,0,0,0,0,0,589,
scooby_state_41df40|59|1 588,0,1,0,0,0,0,0,0,0,0,0,0,0,0,589,
scooby_state_41df40|60|1 588,0,0,0,0,0,0,0,1,0,0,0,0,0,0,589,
scooby_state_41df40|58|1 589,0,0,0,0,0,0,0,0,0,0,0,0,0,0,589,
scooby_state_41df40|62|1 589,0,0,0,0,0,0,0,0,0,0,0,0,0,0,589,
scooby_state_41df40|55|1 586,0,0,0,0,1,0,0,0,1,0,1,0,0,0,589,
scooby_state_41df40|56|1 588,0,0,0,0,0,0,0,0,0,0,0,1,0,0,589,
scooby_state_407d8e|0|0 1,1,0,0,549,0,0,0,0,0,0,0,0,0,0,551,
scooby_state_407db7|0|0 550,0,0,0,0,0,1,0,0,0,0,0,0,0,0,551,
scooby_state_4268a7|27|1 461,0,0,0,0,0,0,0,0,0,0,0,0,0,0,461,
scooby_state_4268ae|33|1 460,1,0,0,0,0,0,0,0,0,0,0,0,0,0,461,
scooby_state_4268ae|31|1 460,1,0,0,0,0,0,0,0,0,0,0,0,0,0,461,
scooby_state_4268ae|25|1 459,1,0,0,0,0,0,0,0,0,0,0,1,0,0,461,
scooby_state_4268a7|24|1 460,0,0,0,0,0,0,0,0,0,1,0,0,0,0,461,
scooby_state_4268ae|24|1 460,0,0,0,0,0,0,0,0,0,0,1,0,0,0,461,
scooby_state_4268a7|21|1 460,0,0,0,0,0,1,0,0,0,0,0,0,0,0,461,
scooby_state_4268a7|35|1 460,0,0,0,0,1,0,0,0,0,0,0,0,0,0,461,
scooby_state_4268a7|30|1 460,0,0,0,0,0,0,0,0,0,0,1,0,0,0,461,
scooby_state_4268a7|29|1 459,0,0,0,1,0,0,0,0,0,0,0,1,0,0,461,
scooby_state_4268ae|27|1 459,0,0,1,0,0,0,0,0,0,0,0,0,0,1,461,
scooby_state_4268a7|23|1 461,0,0,0,0,0,0,0,0,0,0,0,0,0,0,461,
scooby_state_4268a7|34|1 460,0,0,0,0,0,0,0,1,0,0,0,0,0,0,461,
scooby_state_4268ae|34|1 460,0,0,1,0,0,0,0,0,0,0,0,0,0,0,461,
scooby_state_4268ae|36|1 460,0,1,0,0,0,0,0,0,0,0,0,0,0,0,461,
scooby_state_4268ae|22|1 458,0,0,0,0,1,0,1,0,1,0,0,0,0,0,461,
scooby_state_4268ae|32|1 458,0,0,0,0,1,0,2,0,0,0,0,0,0,0,461,
scooby_state_4268ae|26|1 461,0,0,0,0,0,0,0,0,0,0,0,0,0,0,461,
scooby_state_4268a7|37|1 461,0,0,0,0,0,0,0,0,0,0,0,0,0,0,461,
scooby_state_4268ae|29|1 460,0,0,0,0,0,0,0,0,0,0,1,0,0,0,461,
scooby_state_4268a7|26|1 460,0,0,0,0,1,0,0,0,0,0,0,0,0,0,461,
scooby_state_4268a7|36|1 461,0,0,0,0,0,0,0,0,0,0,0,0,0,0,461,
scooby_state_4268a7|22|1 460,0,0,1,0,0,0,0,0,0,0,0,0,0,0,461,
scooby_state_4268a7|31|1 459,0,0,0,0,0,1,0,1,0,0,0,0,0,0,461,
scooby_state_4268ae|38|1 461,0,0,0,0,0,0,0,0,0,0,0,0,0,0,461,
scooby_state_4268ae|23|1 460,1,0,0,0,0,0,0,0,0,0,0,0,0,0,461,
scooby_state_4268ae|30|1 460,0,0,0,0,0,1,0,0,0,0,0,0,0,0,461,
scooby_state_4268ae|35|1 459,0,0,0,0,0,0,1,0,0,0,0,0,1,0,461,
scooby_state_4268a7|28|1 461,0,0,0,0,0,0,0,0,0,0,0,0,0,0,461,
scooby_state_4268a7|32|1 460,1,0,0,0,0,0,0,0,0,0,0,0,0,0,461,
scooby_state_4268a7|25|1 458,0,0,0,0,0,0,0,0,1,0,1,1,0,0,461,
scooby_state_4268ae|37|1 460,0,0,0,0,0,0,0,0,0,1,0,0,0,0,461,
scooby_state_4268a7|33|1 460,0,0,0,0,0,0,0,0,0,0,0,0,0,1,461,
scooby_state_4268ae|28|1 461,0,0,0,0,0,0,0,0,0,0,0,0,0,0,461,
scooby_state_4268ae|14|1 458,0,0,0,0,0,0,0,0,0,1,0,0,0,1,460,
scooby_state_4268a7|13|1 458,0,0,1,0,0,1,0,0,0,0,0,0,0,0,460,
scooby_state_4268ae|56|1 460,0,0,0,0,0,0,0,0,0,0,0,0,0,0,460,
scooby_state_4268a7|46|1 459,0,0,0,0,1,0,0,0,0,0,0,0,0,0,460,
scooby_state_4268a7|18|1 460,0,0,0,0,0,0,0,0,0,0,0,0,0,0,460,
scooby_state_4268a7|8|1 460,0,0,0,0,0,0,0,0,0,0,0,0,0,0,460,
scooby_state_4268a7|3|1 460,0,0,0,0,0,0,0,0,0,0,0,0,0,0,460,
scooby_state_4268a7|0|0 457,1,0,1,0,0,0,0,0,0,0,0,0,0,1,460,
scooby_state_4268ae|63|1 460,0,0,0,0,0,0,0,0,0,0,0,0,0,0,460,
scooby_state_4268ae|18|1 459,0,1,0,0,0,0,0,0,0,0,0,0,0,0,460,
scooby_state_4268ae|50|1 460,0,0,0,0,0,0,0,0,0,0,0,0,0,0,460,
scooby_state_4268a7|42|1 460,0,0,0,0,0,0,0,0,0,0,0,0,0,0,460,
scooby_state_4268ae|42|1 460,0,0,0,0,0,0,0,0,0,0,0,0,0,0,460,
scooby_state_4268a7|6|1 458,0,0,0,0,1,0,0,0,0,1,0,0,0,0,460,
scooby_state_4268ae|8|1 459,0,0,1,0,0,0,0,0,0,0,0,0,0,0,460,
scooby_state_4268ae|39|1 460,0,0,0,0,0,0,0,0,0,0,0,0,0,0,460,
scooby_state_4268a7|44|1 460,0,0,0,0,0,0,0,0,0,0,0,0,0,0,460,
scooby_state_4268a7|61|1 460,0,0,0,0,0,0,0,0,0,0,0,0,0,0,460,
scooby_state_4268a7|63|1 458,0,0,1,0,0,1,0,0,0,0,0,0,0,0,460,
scooby_state_4268a7|47|1 459,1,0,0,0,0,0,0,0,0,0,0,0,0,0,460,
scooby_state_4268ae|53|1 460,0,0,0,0,0,0,0,0,0,0,0,0,0,0,460,
scooby_state_4268ae|6|1 460,0,0,0,0,0,0,0,0,0,0,0,0,0,0,460,
scooby_state_4268a7|48|1 459,0,0,0,0,1,0,0,0,0,0,0,0,0,0,460,
scooby_state_4268a7|43|1 460,0,0,0,0,0,0,0,0,0,0,0,0,0,0,460,
scooby_state_4268a7|62|1 459,0,0,0,0,0,0,0,0,0,0,0,0,1,0,460,
scooby_state_4268a7|55|1 459,0,0,0,0,0,1,0,0,0,0,0,0,0,0,460,
scooby_state_4268ae|49|1 459,0,0,0,0,0,0,0,0,0,1,0,0,0,0,460,
scooby_state_4268ae|60|1 458,0,1,0,0,0,0,0,0,1,0,0,0,0,0,460,
scooby_state_4268ae|57|1 460,0,0,0,0,0,0,0,0,0,0,0,0,0,0,460,
scooby_state_4268ae|61|1 460,0,0,0,0,0,0,0,0,0,0,0,0,0,0,460,
scooby_state_4268ae|45|1 460,0,0,0,0,0,0,0,0,0,0,0,0,0,0,460,
scooby_state_4268a7|16|1 459,0,0,0,0,0,0,0,0,0,0,0,0,1,0,460,
scooby_state_4268ae|40|1 459,0,1,0,0,0,0,0,0,0,0,0,0,0,0,460,
scooby_state_4268ae|54|1 459,0,0,0,1,0,0,0,0,0,0,0,0,0,0,460,
scooby_state_4268ae|0|0 459,0,0,1,0,0,0,0,0,0,0,0,0,0,0,460,
scooby_state_4268a7|53|1 459,0,0,0,0,0,0,0,0,1,0,0,0,0,0,460,
scooby_state_4268ae|47|1 459,0,0,0,1,0,0,0,0,0,0,0,0,0,0,460,
scooby_state_4268ae|55|1 459,0,0,0,0,0,0,0,0,1,0,0,0,0,0,460,
scooby_state_4268a7|50|1 460,0,0,0,0,0,0,0,0,0,0,0,0,0,0,460,
scooby_state_4268a7|41|1 460,0,0,0,0,0,0,0,0,0,0,0,0,0,0,460,
scooby_state_4268a7|14|1 459,0,0,0,0,1,0,0,0,0,0,0,0,0,0,460,
scooby_state_4268a7|11|1 459,0,0,0,0,0,0,1,0,0,0,0,0,0,0,460,
scooby_state_4268a7|19|1 459,0,0,0,0,0,1,0,0,0,0,0,0,0,0,460,
scooby_state_4268a7|60|1 459,0,0,0,0,0,0,0,0,1,0,0,0,0,0,460,
scooby_state_4268ae|1|1 459,0,0,1,0,0,0,0,0,0,0,0,0,0,0,460,
scooby_state_4268ae|48|1 459,0,0,0,0,0,0,0,0,0,0,1,0,0,0,460,
scooby_state_4268ae|59|1 459,0,1,0,0,0,0,0,0,0,0,0,0,0,0,460,
scooby_state_4268ae|17|1 459,0,0,0,0,0,0,0,1,0,0,0,0,0,0,460,
scooby_state_4268ae|43|1 459,0,0,0,0,0,0,0,1,0,0,0,0,0,0,460,
scooby_state_4268a7|15|1 459,0,0,0,0,0,0,0,0,0,0,1,0,0,0,460,
scooby_state_4268ae|52|1 458,0,0,0,0,0,0,0,0,2,0,0,0,0,0,460,
scooby_state_4268ae|13|1 459,0,0,0,0,0,0,0,0,0,0,0,1,0,0,460,
scooby_state_4268ae|21|1 460,0,0,0,0,0,0,0,0,0,0,0,0,0,0,460,
scooby_state_4268ae|62|1 460,0,0,0,0,0,0,0,0,0,0,0,0,0,0,460,
scooby_state_4268ae|9|1 460,0,0,0,0,0,0,0,0,0,0,0,0,0,0,460,
scooby_state_4268a7|40|1 460,0,0,0,0,0,0,0,0,0,0,0,0,0,0,460,
scooby_state_4268ae|12|1 460,0,0,0,0,0,0,0,0,0,0,0,0,0,0,460,
scooby_state_4268a7|17|1 460,0,0,0,0,0,0,0,0,0,0,0,0,0,0,460,
scooby_state_4268a7|51|1 458,0,0,0,0,0,0,0,0,0,0,1,0,0,1,460,
scooby_state_4268a7|54|1 459,0,0,0,0,0,0,0,1,0,0,0,0,0,0,460,
scooby_state_4268ae|3|1 459,0,0,0,0,0,1,0,0,0,0,0,0,0,0,460,
scooby_state_4268a7|58|1 459,0,0,0,0,0,0,1,0,0,0,0,0,0,0,460,
scooby_state_4268ae|20|1 460,0,0,0,0,0,0,0,0,0,0,0,0,0,0,460,
scooby_state_4268ae|44|1 458,0,0,0,0,1,0,0,0,0,0,0,0,1,0,460,
scooby_state_4268a7|9|1 459,0,0,0,0,0,0,0,1,0,0,0,0,0,0,460,
scooby_state_4268ae|46|1 459,0,0,0,0,0,0,0,0,0,1,0,0,0,0,460,
scooby_state_4268a7|1|1 460,0,0,0,0,0,0,0,0,0,0,0,0,0,0,460,
scooby_state_4268a7|4|1 460,0,0,0,0,0,0,0,0,0,0,0,0,0,0,460,
scooby_state_4268a7|39|1 460,0,0,0,0,0,0,0,0,0,0,0,0,0,0,460,
scooby_state_4268ae|7|1 460,0,0,0,0,0,0,0,0,0,0,0,0,0,0,460,
scooby_state_4268a7|45|1 459,0,0,0,0,0,0,0,1,0,0,0,0,0,0,460,
scooby_state_4268ae|2|1 460,0,0,0,0,0,0,0,0,0,0,0,0,0,0,460,
scooby_state_4268ae|16|1 459,0,1,0,0,0,0,0,0,0,0,0,0,0,0,460,
scooby_state_4268a7|12|1 459,0,0,0,0,1,0,0,0,0,0,0,0,0,0,460,
scooby_state_4268a7|7|1 460,0,0,0,0,0,0,0,0,0,0,0,0,0,0,460,
scooby_state_4268a7|5|1 460,0,0,0,0,0,0,0,0,0,0,0,0,0,0,460,
scooby_state_4268ae|4|1 460,0,0,0,0,0,0,0,0,0,0,0,0,0,0,460,
scooby_state_4268a7|38|1 459,1,0,0,0,0,0,0,0,0,0,0,0,0,0,460,
scooby_state_4268ae|51|1 459,0,0,0,0,0,0,0,0,0,1,0,0,0,0,460,
scooby_state_4268ae|19|1 460,0,0,0,0,0,0,0,0,0,0,0,0,0,0,460,
scooby_state_4268ae|5|1 460,0,0,0,0,0,0,0,0,0,0,0,0,0,0,460,
scooby_state_4268ae|58|1 459,0,0,0,0,0,0,1,0,0,0,0,0,0,0,460,
scooby_state_4268a7|56|1 460,0,0,0,0,0,0,0,0,0,0,0,0,0,0,460,
scooby_state_4268a7|49|1 459,0,0,0,0,0,0,0,0,0,0,0,0,1,0,460,
scooby_state_4268a7|2|1 460,0,0,0,0,0,0,0,0,0,0,0,0,0,0,460,
scooby_state_4268ae|41|1 460,0,0,0,0,0,0,0,0,0,0,0,0,0,0,460,
scooby_state_4268a7|20|1 459,0,0,0,0,0,0,0,0,1,0,0,0,0,0,460,
scooby_state_4268a7|52|1 459,0,0,0,0,0,0,0,0,0,0,0,0,0,1,460,
scooby_state_4268a7|10|1 460,0,0,0,0,0,0,0,0,0,0,0,0,0,0,460,
scooby_state_4268a7|59|1 458,0,0,0,1,0,0,0,0,1,0,0,0,0,0,460,
scooby_state_4268ae|15|1 459,0,0,0,0,0,0,0,0,0,0,0,1,0,0,460,
scooby_state_4268a7|57|1 459,0,0,0,0,1,0,0,0,0,0,0,0,0,0,460,
scooby_state_4268ae|11|1 439,1,0,0,0,0,1,0,0,0,0,0,0,0,0,441,
scooby_state_4268ae|10|1 441,0,0,0,0,0,0,0,0,0,0,0,0,0,0,441,
scooby_state_407d8e|1|1 1,0,0,0,398,0,0,0,0,0,0,0,0,0,0,399,
scooby_state_407db7|2|1 398,0,0,0,0,0,0,1,0,0,0,0,0,0,0,399,
scooby_state_407d8e|2|1 1,0,0,0,398,0,0,0,0,0,0,0,0,0,0,399,
scooby_state_407db7|1|1 399,0,0,0,0,0,0,0,0,0,0,0,0,0,0,399,
scooby_state_407d8e|26|3 0,0,0,0,361,0,0,0,0,0,0,0,0,0,0,361,
scooby_state_407d8e|61|3 0,0,0,0,360,1,0,0,0,0,0,0,0,0,0,361,
scooby_state_407d8e|27|3 0,0,0,0,360,0,0,1,0,0,0,0,0,0,0,361,
scooby_state_407d8e|31|3 0,0,0,0,360,0,0,0,0,0,0,0,0,1,0,361,
scooby_state_407d8e|56|3 0,0,0,0,361,0,0,0,0,0,0,0,0,0,0,361,
scooby_state_407d8e|52|3 0,0,0,0,360,0,0,0,1,0,0,0,0,0,0,361,
scooby_state_407d8e|41|3 0,0,0,0,361,0,0,0,0,0,0,0,0,0,0,361,
scooby_state_407d8e|36|3 0,0,0,0,360,0,0,0,0,0,0,0,1,0,0,361,
scooby_state_407d8e|55|3 0,0,0,0,361,0,0,0,0,0,0,0,0,0,0,361,
scooby_state_407d8e|51|3 0,0,0,0,361,0,0,0,0,0,0,0,0,0,0,361,
scooby_state_407d8e|38|3 0,0,0,0,342,0,0,0,0,0,0,0,0,0,0,342,
scooby_state_407d8e|12|3 1,0,0,0,341,0,0,0,0,0,0,0,0,0,0,342,
scooby_state_407d8e|28|3 0,0,0,0,342,0,0,0,0,0,0,0,0,0,0,342,
scooby_state_407d8e|22|3 0,0,0,0,342,0,0,0,0,0,0,0,0,0,0,342,
scooby_state_407d8e|7|3 0,0,0,0,339,0,0,0,0,1,1,0,1,0,0,342,
scooby_state_407d8e|21|3 0,0,0,0,342,0,0,0,0,0,0,0,0,0,0,342,
scooby_state_407d8e|32|3 1,0,0,0,340,0,0,0,0,0,0,0,1,0,0,342,
scooby_state_407d8e|46|3 0,0,0,0,342,0,0,0,0,0,0,0,0,0,0,342,
scooby_state_407d8e|23|3 0,0,0,0,342,0,0,0,0,0,0,0,0,0,0,342,
scooby_state_407d8e|18|3 0,1,0,0,341,0,0,0,0,0,0,0,0,0,0,342,
scooby_state_407d8e|33|3 0,0,0,0,342,0,0,0,0,0,0,0,0,0,0,342,
scooby_state_407d8e|43|3 0,0,0,0,342,0,0,0,0,0,0,0,0,0,0,342,
scooby_state_407d8e|57|3 0,0,0,0,341,1,0,0,0,0,0,0,0,0,0,342,
scooby_state_407d8e|29|3 0,0,0,1,341,0,0,0,0,0,0,0,0,0,0,342,
scooby_state_407d8e|4|3 0,0,0,0,342,0,0,0,0,0,0,0,0,0,0,342,
scooby_state_407d8e|16|3 0,0,0,1,340,0,0,0,0,0,0,1,0,0,0,342,
scooby_state_407d8e|17|3 0,0,0,0,342,0,0,0,0,0,0,0,0,0,0,342,
scooby_state_407d8e|13|3 0,0,1,0,341,0,0,0,0,0,0,0,0,0,0,342,
scooby_state_407d8e|30|3 0,0,0,0,341,0,0,0,0,0,0,1,0,0,0,342,
scooby_state_407d8e|3|3 0,0,0,0,340,0,0,0,0,0,0,0,0,0,0,340,
scooby_state_407d8e|20|3 0,0,0,0,321,0,0,1,0,0,0,1,0,0,0,323,
scooby_state_407d8e|50|3 0,0,0,0,322,0,0,0,1,0,0,0,0,0,0,323,
scooby_state_407d8e|40|3 0,0,0,0,322,0,1,0,0,0,0,0,0,0,0,323,
scooby_state_407db7|31|3 323,0,0,0,0,0,0,0,0,0,0,0,0,0,0,323,
scooby_state_407d8e|60|3 0,0,0,0,323,0,0,0,0,0,0,0,0,0,0,323,
scooby_state_407d8e|45|3 1,0,0,0,322,0,0,0,0,0,0,0,0,0,0,323,
scooby_state_407d8e|8|3 0,0,0,0,323,0,0,0,0,0,0,0,0,0,0,323,
scooby_state_407d8e|5|3 0,0,0,0,320,0,0,1,0,0,0,0,0,1,1,323,
scooby_state_407d8e|47|3 0,0,0,0,323,0,0,0,0,0,0,0,0,0,0,323,
scooby_state_407d8e|24|3 0,0,0,0,322,0,1,0,0,0,0,0,0,0,0,323,
scooby_state_407d8e|63|3 0,0,0,0,323,0,0,0,0,0,0,0,0,0,0,323,
scooby_state_407d8e|37|3 0,1,1,0,321,0,0,0,0,0,0,0,0,0,0,323,
scooby_state_407d8e|34|3 0,0,0,0,323,0,0,0,0,0,0,0,0,0,0,323,
scooby_state_407d8e|42|3 0,0,0,0,319,1,0,0,0,1,0,0,0,2,0,323,
scooby_state_407d8e|11|3 0,0,0,0,323,0,0,0,0,0,0,0,0,0,0,323,
scooby_state_407d8e|25|3 0,0,0,0,322,0,0,0,1,0,0,0,0,0,0,323,
scooby_state_407d8e|59|3 0,0,0,0,323,0,0,0,0,0,0,0,0,0,0,323,
scooby_state_407d8e|53|3 0,0,0,0,322,0,0,0,0,0,0,0,0,0,1,323,
scooby_state_407d8e|9|3 0,0,0,0,323,0,0,0,0,0,0,0,0,0,0,323,
scooby_state_407d8e|14|3 1,1,0,0,321,0,0,0,0,0,0,0,0,0,0,323,
scooby_state_407d8e|44|3 0,0,0,0,323,0,0,0,0,0,0,0,0,0,0,323,
scooby_state_407d8e|48|3 0,1,0,0,321,0,0,0,0,0,0,0,0,1,0,323,
scooby_state_407d8e|19|3 0,0,0,0,323,0,0,0,0,0,0,0,0,0,0,323,
scooby_state_407d8e|6|3 0,0,0,0,323,0,0,0,0,0,0,0,0,0,0,323,
scooby_state_407d8e|39|3 0,0,0,0,323,0,0,0,0,0,0,0,0,0,0,323,
scooby_state_407d8e|54|3 1,0,0,0,322,0,0,0,0,0,0,0,0,0,0,323,
scooby_state_407d8e|15|3 0,0,0,0,323,0,0,0,0,0,0,0,0,0,0,323,
scooby_state_407d8e|35|3 0,0,0,0,323,0,0,0,0,0,0,0,0,0,0,323,
scooby_state_407d8e|58|3 0,0,0,0,323,0,0,0,0,0,0,0,0,0,0,323,
scooby_state_407d8e|62|3 0,0,0,0,322,0,0,0,0,0,1,0,0,0,0,323,
scooby_state_407db7|56|3 321,0,0,0,1,0,0,0,0,0,0,0,0,0,0,322,
scooby_state_407db7|41|3 321,0,0,0,0,0,0,0,0,0,0,0,0,0,0,321,
scooby_state_407db7|61|3 319,0,0,1,0,0,0,0,0,0,0,0,0,0,0,320,
scooby_state_407db7|36|3 319,0,0,0,0,0,0,0,0,0,0,0,0,0,0,319,
scooby_state_407db7|22|3 303,0,0,0,0,0,0,0,0,0,0,1,0,0,0,304,
scooby_state_407d8e|10|3 0,0,0,0,304,0,0,0,0,0,0,0,0,0,0,304,
scooby_state_407db7|51|3 304,0,0,0,0,0,0,0,0,0,0,0,0,0,0,304,
scooby_state_407db7|23|3 303,0,0,0,0,0,0,0,0,0,0,0,0,1,0,304,
scooby_state_407d8e|49|3 0,0,0,0,304,0,0,0,0,0,0,0,0,0,0,304,
scooby_state_407db7|57|3 303,0,0,0,0,0,0,0,0,0,0,0,0,0,0,303,
scooby_state_407db7|52|3 303,0,0,0,0,0,0,0,0,0,0,0,0,0,0,303,
scooby_state_407db7|55|3 302,0,0,0,0,0,0,0,1,0,0,0,0,0,0,303,
scooby_state_407db7|38|3 301,0,0,0,0,0,0,0,0,0,0,0,0,0,1,302,
scooby_state_407db7|27|3 302,0,0,0,0,0,0,0,0,0,0,0,0,0,0,302,
scooby_state_407db7|28|3 302,0,0,0,0,0,0,0,0,0,0,0,0,0,0,302,
scooby_state_407db7|32|3 302,0,0,0,0,0,0,0,0,0,0,0,0,0,0,302,
scooby_state_407db7|46|3 301,1,0,0,0,0,0,0,0,0,0,0,0,0,0,302,
scooby_state_407db7|4|3 301,0,0,1,0,0,0,0,0,0,0,0,0,0,0,302,
scooby_state_407db7|26|3 302,0,0,0,0,0,0,0,0,0,0,0,0,0,0,302,
scooby_state_407db7|17|3 302,0,0,0,0,0,0,0,0,0,0,0,0,0,0,302,
scooby_state_407db7|18|3 302,0,0,0,0,0,0,0,0,0,0,0,0,0,0,302,
scooby_state_407db7|50|3 301,0,0,0,0,0,0,0,0,0,0,0,0,1,0,302,
scooby_state_407db7|21|3 301,0,0,0,0,0,0,0,0,0,0,0,0,0,0,301,
scooby_state_407db7|33|3 301,0,0,0,0,0,0,0,0,0,0,0,0,0,0,301,
scooby_state_407db7|43|3 299,0,0,0,0,0,0,0,0,0,0,0,0,0,0,299,
scooby_state_407db7|7|3 297,0,0,0,0,0,1,0,0,0,0,0,1,0,0,299,
scooby_state_407db7|9|3 285,0,0,0,0,0,0,0,0,0,0,0,0,0,0,285,
scooby_state_407d96|49|-2 279,3,0,0,0,0,0,1,0,0,0,1,0,0,1,285,
scooby_state_407db7|34|3 284,0,0,0,0,0,0,0,0,0,0,0,0,0,0,284,
scooby_state_407db7|47|3 284,0,0,0,0,0,0,0,0,0,0,0,0,0,0,284,
scooby_state_407db7|39|3 284,0,0,0,0,0,0,0,0,0,0,0,0,0,0,284,
scooby_state_407db7|48|3 284,0,0,0,0,0,0,0,0,0,0,0,0,0,0,284,
scooby_state_407db7|40|3 283,0,0,0,0,1,0,0,0,0,0,0,0,0,0,284,
scooby_state_407db7|58|3 282,0,0,0,0,0,0,0,1,1,0,0,0,0,0,284,
scooby_state_407db7|24|3 283,0,0,1,0,0,0,0,0,0,0,0,0,0,0,284,
scooby_state_407db7|3|3 281,0,0,0,0,1,0,0,0,1,0,0,0,0,0,283,
scooby_state_407db7|16|3 282,0,0,0,0,0,0,0,0,0,0,0,1,0,0,283,
scooby_state_407db7|59|3 283,0,0,0,0,0,0,0,0,0,0,0,0,0,0,283,
scooby_state_407db7|19|3 283,0,0,0,0,0,0,0,0,0,0,0,0,0,0,283,
scooby_state_407db7|45|3 283,0,0,0,0,0,0,0,0,0,0,0,0,0,0,283,
scooby_state_407db7|12|3 283,0,0,0,0,0,0,0,0,0,0,0,0,0,0,283,
scooby_state_407db7|25|3 283,0,0,0,0,0,0,0,0,0,0,0,0,0,0,283,
scooby_state_407db7|35|3 282,1,0,0,0,0,0,0,0,0,0,0,0,0,0,283,
scooby_state_407db7|53|3 281,0,0,0,0,0,0,1,0,0,0,0,0,1,0,283,
scooby_state_407db7|11|3 282,0,0,0,0,0,0,1,0,0,0,0,0,0,0,283,
scooby_state_407db7|60|3 283,0,0,0,0,0,0,0,0,0,0,0,0,0,0,283,
scooby_state_407db7|42|3 281,0,0,0,0,0,0,0,0,0,0,1,0,0,1,283,
scooby_state_407db7|37|3 282,0,0,0,0,0,0,0,0,0,0,0,0,0,0,282,
scooby_state_407db7|20|3 282,0,0,0,0,0,0,0,0,0,0,0,0,0,0,282,
scooby_state_407db7|8|3 281,0,0,0,0,0,0,0,0,0,0,1,0,0,0,282,
scooby_state_407db7|14|3 281,0,0,0,0,0,0,0,0,0,0,0,0,0,0,281,
scooby_state_407db7|30|3 279,0,1,0,0,0,0,0,0,0,0,1,0,0,0,281,
scooby_state_407db7|44|3 280,0,0,0,0,0,0,0,0,0,0,0,0,0,0,280,
scooby_state_407db7|29|3 280,0,0,0,0,0,0,0,0,0,0,0,0,0,0,280,
scooby_state_407db7|5|3 279,0,0,0,0,0,0,0,0,0,1,0,0,0,0,280,
scooby_state_407db7|13|3 279,0,0,0,0,0,0,0,0,0,0,0,0,0,1,280,
scooby_state_407db7|6|3 280,0,0,0,0,0,0,0,0,0,0,0,0,0,0,280,
scooby_state_407db7|62|3 278,0,0,0,0,0,0,0,0,0,0,0,0,0,0,278,
scooby_state_407db7|63|3 277,0,0,0,0,0,0,0,0,0,0,1,0,0,0,278,
scooby_state_407d96|43|-2 265,1,0,0,0,0,0,0,0,0,0,0,0,0,0,266,
scooby_state_407d96|15|-2 264,2,0,0,0,0,0,0,0,0,0,0,0,0,0,266,
scooby_state_407d96|23|-2 264,2,0,0,0,0,0,0,0,0,0,0,0,0,0,266,
scooby_state_407d96|20|-2 264,2,0,0,0,0,0,0,0,0,0,0,0,0,0,266,
scooby_state_407d96|38|-2 264,1,0,0,0,0,0,0,1,0,0,0,0,0,0,266,
scooby_state_407d96|54|-2 264,2,0,0,0,0,0,0,0,0,0,0,0,0,0,266,
scooby_state_407d96|33|-2 264,1,0,0,0,0,0,1,0,0,0,0,0,0,0,266,
scooby_state_407d96|30|-2 263,2,0,0,0,1,0,0,0,0,0,0,0,0,0,266,
scooby_state_407d96|40|-2 262,3,0,0,0,0,0,0,0,0,0,0,1,0,0,266,
scooby_state_407d96|24|-2 264,2,0,0,0,0,0,0,0,0,0,0,0,0,0,266,
scooby_state_407d96|28|-2 263,2,0,0,0,0,0,1,0,0,0,0,0,0,0,266,
scooby_state_407d96|13|-2 263,3,0,0,0,0,0,0,0,0,0,0,0,0,0,266,
scooby_state_407d96|29|-2 264,2,0,0,0,0,0,0,0,0,0,0,0,0,0,266,
scooby_state_407d96|10|-2 264,2,0,0,0,0,0,0,0,0,0,0,0,0,0,266,
scooby_state_407d96|53|-2 264,2,0,0,0,0,0,0,0,0,0,0,0,0,0,266,
scooby_state_407d86|63|1 2,0,1,0,262,0,0,0,0,1,0,0,0,0,0,266,
scooby_state_407d96|25|-2 263,2,0,0,0,0,0,0,1,0,0,0,0,0,0,266,
scooby_state_407d96|18|-2 263,3,0,0,0,0,0,0,0,0,0,0,0,0,0,266,
scooby_state_407d96|4|-2 264,2,0,0,0,0,0,0,0,0,0,0,0,0,0,266,
scooby_state_407db7|15|3 266,0,0,0,0,0,0,0,0,0,0,0,0,0,0,266,
scooby_state_407d96|58|-2 263,2,0,0,0,0,1,0,0,0,0,0,0,0,0,266,
scooby_state_407d96|52|-2 264,1,0,0,0,1,0,0,0,0,0,0,0,0,0,266,
scooby_state_407d96|35|-2 262,2,0,0,1,1,0,0,0,0,0,0,0,0,0,266,
scooby_state_407d96|63|1 264,1,1,0,0,0,0,0,0,0,0,0,0,0,0,266,
scooby_state_407db7|10|3 264,0,0,0,0,0,0,0,0,0,0,0,0,1,0,265,
scooby_state_407db7|54|3 265,0,0,0,0,0,0,0,0,0,0,0,0,0,0,265,
scooby_state_407d96|1|-2 262,2,0,0,0,0,0,0,0,0,0,0,0,0,0,264,
scooby_state_407d96|0|-2 261,2,0,0,0,0,0,0,0,1,0,0,0,0,0,264,
scooby_state_407db7|49|3 261,0,0,0,0,0,0,0,0,0,1,1,0,0,0,263,
scooby_state_4268c5|1|1 259,0,0,0,0,0,0,0,0,0,0,0,0,0,0,259,
scooby_state_4268c5|32|1 255,0,0,0,0,0,0,0,0,0,0,0,0,0,0,255,
scooby_state_4268c5|33|1 254,0,0,0,0,0,0,0,0,0,0,1,0,0,0,255,
scooby_state_4268c5|0|0 255,0,0,0,0,0,0,0,0,0,0,0,0,0,0,255,
scooby_state_4268c5|18|1 254,0,0,0,0,0,0,0,0,0,0,0,0,0,0,254,
scooby_state_4268c5|19|1 254,0,0,0,0,0,0,0,0,0,0,0,0,0,0,254,
scooby_state_4268c5|51|1 253,0,0,0,1,0,0,0,0,0,0,0,0,0,0,254,
scooby_state_4268c5|50|1 254,0,0,0,0,0,0,0,0,0,0,0,0,0,0,254,
scooby_state_4268c5|16|1 252,0,0,0,0,0,0,0,0,0,0,0,0,0,1,253,
scooby_state_4268c5|48|1 252,0,0,0,0,0,0,0,0,1,0,0,0,0,0,253,
scooby_state_4268c5|15|1 250,0,0,0,1,0,0,0,0,0,0,0,0,0,0,251,
scooby_state_4268c5|47|1 251,0,0,0,0,0,0,0,0,0,0,0,0,0,0,251,
scooby_state_4268c5|20|1 250,0,0,0,0,0,0,0,0,0,0,0,0,0,0,250,
scooby_state_4207a0|25|16 80,10,10,10,0,0,10,10,10,10,70,10,10,10,0,250,
scooby_state_4268c5|14|1 249,0,0,0,0,0,1,0,0,0,0,0,0,0,0,250,
scooby_state_4268c5|13|1 248,0,0,0,1,0,0,1,0,0,0,0,0,0,0,250,
scooby_state_4268c5|52|1 249,0,0,0,0,0,0,0,0,1,0,0,0,0,0,250,
scooby_state_4268c5|45|1 250,0,0,0,0,0,0,0,0,0,0,0,0,0,0,250,
scooby_state_4207a0|57|16 80,9,10,10,1,0,10,10,10,10,69,10,11,10,0,250,
scooby_state_4268c5|46|1 250,0,0,0,0,0,0,0,0,0,0,0,0,0,0,250,
scooby_state_4268c5|34|1 248,0,0,1,0,0,0,0,0,0,0,0,0,0,0,249,
scooby_state_4268c5|2|1 248,0,0,0,0,0,0,0,0,0,0,0,0,0,0,248,
scooby_state_4268c5|30|1 248,0,0,0,0,0,0,0,0,0,0,0,0,0,0,248,
scooby_state_4268c5|31|1 248,0,0,0,0,0,0,0,0,0,0,0,0,0,0,248,
scooby_state_4268c5|49|1 248,0,0,0,0,0,0,0,0,0,0,0,0,0,0,248,
scooby_state_4268c5|62|1 248,0,0,0,0,0,0,0,0,0,0,0,0,0,0,248,
scooby_state_4268c5|63|1 248,0,0,0,0,0,0,0,0,0,0,0,0,0,0,248,
scooby_state_4268c5|17|1 247,0,0,0,1,0,0,0,0,0,0,0,0,0,0,248,
scooby_state_407d96|32|-2 247,0,0,0,0,0,0,0,0,0,0,0,0,0,0,247,
scooby_state_407d96|55|-2 246,1,0,0,0,0,0,0,0,0,0,0,0,0,0,247,
scooby_state_407d96|37|-2 247,0,0,0,0,0,0,0,0,0,0,0,0,0,0,247,
scooby_state_407d96|60|-2 244,2,0,0,0,0,0,0,0,0,0,0,0,0,1,247,
scooby_state_407d96|57|-2 246,1,0,0,0,0,0,0,0,0,0,0,0,0,0,247,
scooby_state_407d96|19|-2 246,1,0,0,0,0,0,0,0,0,0,0,0,0,0,247,
scooby_state_407d96|47|-2 246,0,0,0,0,0,0,0,0,0,0,0,0,1,0,247,
scooby_state_4268c5|55|1 247,0,0,0,0,0,0,0,0,0,0,0,0,0,0,247,
scooby_state_407d96|8|-2 246,1,0,0,0,0,0,0,0,0,0,0,0,0,0,247,
scooby_state_407d96|45|-2 246,1,0,0,0,0,0,0,0,0,0,0,0,0,0,247,
scooby_state_4268c5|3|1 247,0,0,0,0,0,0,0,0,0,0,0,0,0,0,247,
scooby_state_407d96|6|-2 245,1,0,1,0,0,0,0,0,0,0,0,0,0,0,247,
scooby_state_407d96|50|-2 246,1,0,0,0,0,0,0,0,0,0,0,0,0,0,247,
scooby_state_407d86|28|-2 2,0,0,0,245,0,0,0,0,0,0,0,0,0,0,247,
scooby_state_407d96|14|-2 246,1,0,0,0,0,0,0,0,0,0,0,0,0,0,247,
scooby_state_407d86|48|-2 2,0,0,0,245,0,0,0,0,0,0,0,0,0,0,247,
scooby_state_407d96|16|-2 246,1,0,0,0,0,0,0,0,0,0,0,0,0,0,247,
scooby_state_407d96|44|-2 246,1,0,0,0,0,0,0,0,0,0,0,0,0,0,247,
scooby_state_407d86|15|-2 2,0,0,0,245,0,0,0,0,0,0,0,0,0,0,247,
scooby_state_407d96|42|-2 247,0,0,0,0,0,0,0,0,0,0,0,0,0,0,247,
scooby_state_407d86|20|-2 3,1,0,0,243,0,0,0,0,0,0,0,0,0,0,247,
scooby_state_407d86|29|-2 2,0,0,0,244,0,0,0,0,0,0,0,0,1,0,247,
scooby_state_407d96|26|-2 246,1,0,0,0,0,0,0,0,0,0,0,0,0,0,247,
scooby_state_407d96|48|-2 246,1,0,0,0,0,0,0,0,0,0,0,0,0,0,247,
scooby_state_407d96|27|-2 246,1,0,0,0,0,0,0,0,0,0,0,0,0,0,247,
scooby_state_407d86|58|-2 2,0,0,0,245,0,0,0,0,0,0,0,0,0,0,247,
scooby_state_407d86|54|-2 2,0,0,0,245,0,0,0,0,0,0,0,0,0,0,247,
scooby_state_407d96|5|-2 246,1,0,0,0,0,0,0,0,0,0,0,0,0,0,247,
scooby_state_4268c5|29|1 245,0,0,0,0,1,0,0,0,1,0,0,0,0,0,247,
scooby_state_407d96|59|-2 246,1,0,0,0,0,0,0,0,0,0,0,0,0,0,247,
scooby_state_407d96|39|-2 246,1,0,0,0,0,0,0,0,0,0,0,0,0,0,247,
scooby_state_407d96|21|-2 246,1,0,0,0,0,0,0,0,0,0,0,0,0,0,247,
scooby_state_407d96|11|-2 246,1,0,0,0,0,0,0,0,0,0,0,0,0,0,247,
scooby_state_407d86|49|-2 2,0,0,0,245,0,0,0,0,0,0,0,0,0,0,247,
scooby_state_407d96|9|-2 245,1,0,0,0,0,0,0,1,0,0,0,0,0,0,247,
scooby_state_407d96|34|-2 246,1,0,0,0,0,0,0,0,0,0,0,0,0,0,247,
scooby_state_407d86|1|-2 2,0,0,0,245,0,0,0,0,0,0,0,0,0,0,247,
scooby_state_407d96|3|-2 246,1,0,0,0,0,0,0,0,0,0,0,0,0,0,247,
scooby_state_4268c5|37|1 245,0,0,0,0,0,1,0,0,0,0,0,0,0,0,246,
scooby_state_4268c5|44|1 246,0,0,0,0,0,0,0,0,0,0,0,0,0,0,246,
scooby_state_407d86|25|-2 2,0,0,0,244,0,0,0,0,0,0,0,0,0,0,246,
scooby_state_4268c5|35|1 245,0,0,0,0,0,0,0,0,0,0,0,1,0,0,246,
scooby_state_4268c5|5|1 246,0,0,0,0,0,0,0,0,0,0,0,0,0,0,246,
scooby_state_407d86|43|-2 2,0,0,0,244,0,0,0,0,0,0,0,0,0,0,246,
scooby_state_407d86|35|-2 2,0,0,0,244,0,0,0,0,0,0,0,0,0,0,246,
scooby_state_407d86|23|-2 2,0,0,0,244,0,0,0,0,0,0,0,0,0,0,246,
scooby_state_407d86|38|-2 2,0,0,0,243,0,0,0,0,0,0,0,0,0,1,246,
scooby_state_407d86|40|-2 2,0,0,0,244,0,0,0,0,0,0,0,0,0,0,246,
scooby_state_4268c5|23|1 246,0,0,0,0,0,0,0,0,0,0,0,0,0,0,246,
scooby_state_4268c5|36|1 245,0,0,0,0,0,0,0,0,0,0,0,0,1,0,246,
scooby_state_4268c5|4|1 245,0,0,0,0,0,0,0,1,0,0,0,0,0,0,246,
scooby_state_407d86|53|-2 2,0,0,0,244,0,0,0,0,0,0,0,0,0,0,246,
scooby_state_4268c5|61|1 245,0,0,0,0,0,0,1,0,0,0,0,0,0,0,246,
scooby_state_407d86|4|-2 2,0,0,0,243,0,0,0,0,0,0,0,0,0,0,245,
scooby_state_407d86|30|-2 2,0,0,0,243,0,0,0,0,0,0,0,0,0,0,245,
scooby_state_407d86|33|-2 2,0,0,0,243,0,0,0,0,0,0,0,0,0,0,245,
scooby_state_407d86|18|-2 1,0,0,1,242,0,0,0,0,0,0,0,0,0,0,244,
scooby_state_4268c5|28|1 242,0,0,0,0,0,0,0,0,0,0,0,0,0,0,242,
scooby_state_4268c5|60|1 240,0,0,0,0,0,0,0,0,1,0,0,0,0,0,241,
scooby_state_4268c5|42|1 239,0,0,0,0,0,0,0,0,0,0,0,0,0,0,239,
scooby_state_4268c5|54|1 238,0,0,0,0,0,0,0,0,0,0,1,0,0,0,239,
scooby_state_4268c5|41|1 239,0,0,0,0,0,0,0,0,0,0,0,0,0,0,239,
scooby_state_4268c5|10|1 238,0,0,0,0,0,0,0,0,0,0,0,0,0,0,238,
scooby_state_4268c5|7|1 237,0,1,0,0,0,0,0,0,0,0,0,0,0,0,238,
scooby_state_4268c5|21|1 238,0,0,0,0,0,0,0,0,0,0,0,0,0,0,238,
scooby_state_4268c5|43|1 237,0,0,0,0,0,0,0,0,0,1,0,0,0,0,238,
scooby_state_4268c5|6|1 238,0,0,0,0,0,0,0,0,0,0,0,0,0,0,238,
scooby_state_4268c5|59|1 237,0,0,0,0,0,0,1,0,0,0,0,0,0,0,238,
scooby_state_4268c5|53|1 237,0,0,0,1,0,0,0,0,0,0,0,0,0,0,238,
scooby_state_4268c5|27|1 238,0,0,0,0,0,0,0,0,0,0,0,0,0,0,238,
scooby_state_4268c5|9|1 238,0,0,0,0,0,0,0,0,0,0,0,0,0,0,238,
scooby_state_4268c5|11|1 237,0,0,0,0,0,0,0,0,1,0,0,0,0,0,238,
scooby_state_4268c5|38|1 238,0,0,0,0,0,0,0,0,0,0,0,0,0,0,238,
scooby_state_4268c5|39|1 238,0,0,0,0,0,0,0,0,0,0,0,0,0,0,238,
scooby_state_4268c5|22|1 238,0,0,0,0,0,0,0,0,0,0,0,0,0,0,238,
scooby_state_4268c5|25|1 237,0,0,0,0,0,0,0,0,0,0,0,0,0,0,237,
scooby_state_4268c5|57|1 237,0,0,0,0,0,0,0,0,0,0,0,0,0,0,237,
scooby_state_4268c5|58|1 237,0,0,0,0,0,0,0,0,0,0,0,0,0,0,237,
scooby_state_4268c5|26|1 236,0,0,0,0,0,0,0,0,0,0,0,0,0,0,236,
scooby_state_4268c5|56|1 236,0,0,0,0,0,0,0,0,0,0,0,0,0,0,236,
scooby_state_4268c5|24|1 236,0,0,0,0,0,0,0,0,0,0,0,0,0,0,236,
scooby_state_4268c5|40|1 234,0,0,0,0,0,0,0,0,0,0,0,0,0,0,234,
scooby_state_4268c5|8|1 234,0,0,0,0,0,0,0,0,0,0,0,0,0,0,234,
scooby_state_426898|18|1 229,0,0,0,0,0,0,0,0,1,0,1,0,0,0,231,
scooby_state_426898|25|1 231,0,0,0,0,0,0,0,0,0,0,0,0,0,0,231,
scooby_state_426898|24|1 230,0,0,0,0,0,0,0,0,0,0,0,1,0,0,231,
scooby_state_426898|23|1 231,0,0,0,0,0,0,0,0,0,0,0,0,0,0,231,
scooby_state_426898|20|1 231,0,0,0,0,0,0,0,0,0,0,0,0,0,0,231,
scooby_state_426898|19|1 231,0,0,0,0,0,0,0,0,0,0,0,0,0,0,231,
scooby_state_426898|21|1 231,0,0,0,0,0,0,0,0,0,0,0,0,0,0,231,
scooby_state_426898|26|1 231,0,0,0,0,0,0,0,0,0,0,0,0,0,0,231,
scooby_state_426898|22|1 231,0,0,0,0,0,0,0,0,0,0,0,0,0,0,231,
scooby_state_426898|62|1 230,0,0,0,0,0,0,0,0,0,0,0,0,0,0,230,
scooby_state_426898|55|1 229,0,0,0,0,0,0,0,0,0,0,0,1,0,0,230,
scooby_state_426898|5|1 230,0,0,0,0,0,0,0,0,0,0,0,0,0,0,230,
scooby_state_426898|31|1 230,0,0,0,0,0,0,0,0,0,0,0,0,0,0,230,
scooby_state_426898|6|1 230,0,0,0,0,0,0,0,0,0,0,0,0,0,0,230,
scooby_state_426898|14|1 230,0,0,0,0,0,0,0,0,0,0,0,0,0,0,230,
scooby_state_426898|39|1 230,0,0,0,0,0,0,0,0,0,0,0,0,0,0,230,
scooby_state_426898|1|1 229,0,0,1,0,0,0,0,0,0,0,0,0,0,0,230,
scooby_state_426898|0|0 230,0,0,0,0,0,0,0,0,0,0,0,0,0,0,230,
scooby_state_426898|16|1 230,0,0,0,0,0,0,0,0,0,0,0,0,0,0,230,
scooby_state_426898|40|1 230,0,0,0,0,0,0,0,0,0,0,0,0,0,0,230,
scooby_state_426898|32|1 229,0,0,0,0,0,0,0,0,0,0,1,0,0,0,230,
scooby_state_426898|38|1 229,0,1,0,0,0,0,0,0,0,0,0,0,0,0,230,
scooby_state_426898|8|1 230,0,0,0,0,0,0,0,0,0,0,0,0,0,0,230,
scooby_state_426898|59|1 230,0,0,0,0,0,0,0,0,0,0,0,0,0,0,230,
scooby_state_426898|4|1 230,0,0,0,0,0,0,0,0,0,0,0,0,0,0,230,
scooby_state_426898|54|1 230,0,0,0,0,0,0,0,0,0,0,0,0,0,0,230,
scooby_state_426898|33|1 230,0,0,0,0,0,0,0,0,0,0,0,0,0,0,230,
scooby_state_426898|11|1 230,0,0,0,0,0,0,0,0,0,0,0,0,0,0,230,
scooby_state_426898|35|1 230,0,0,0,0,0,0,0,0,0,0,0,0,0,0,230,
scooby_state_426898|13|1 229,0,0,0,0,0,1,0,0,0,0,0,0,0,0,230,
scooby_state_426898|37|1 229,0,0,0,0,0,0,0,0,1,0,0,0,0,0,230,
scooby_state_426898|48|1 230,0,0,0,0,0,0,0,0,0,0,0,0,0,0,230,
scooby_state_426898|47|1 230,0,0,0,0,0,0,0,0,0,0,0,0,0,0,230,
scooby_state_426898|50|1 229,0,0,0,0,1,0,0,0,0,0,0,0,0,0,230,
scooby_state_426898|58|1 229,0,0,0,0,0,0,0,0,0,0,0,0,0,1,230,
scooby_state_426898|30|1 230,0,0,0,0,0,0,0,0,0,0,0,0,0,0,230,
scooby_state_426898|51|1 230,0,0,0,0,0,0,0,0,0,0,0,0,0,0,230,
scooby_state_426898|45|1 230,0,0,0,0,0,0,0,0,0,0,0,0,0,0,230,
scooby_state_426898|12|1 230,0,0,0,0,0,0,0,0,0,0,0,0,0,0,230,
scooby_state_426898|49|1 230,0,0,0,0,0,0,0,0,0,0,0,0,0,0,230,
scooby_state_426898|2|1 230,0,0,0,0,0,0,0,0,0,0,0,0,0,0,230,
scooby_state_426898|7|1 228,0,0,1,0,0,0,0,0,0,0,0,1,0,0,230,
scooby_state_426898|41|1 230,0,0,0,0,0,0,0,0,0,0,0,0,0,0,230,
scooby_state_426898|42|1 230,0,0,0,0,0,0,0,0,0,0,0,0,0,0,230,
scooby_state_426898|60|1 230,0,0,0,0,0,0,0,0,0,0,0,0,0,0,230,
scooby_state_426898|46|1 229,0,0,0,0,0,1,0,0,0,0,0,0,0,0,230,
scooby_state_426898|34|1 230,0,0,0,0,0,0,0,0,0,0,0,0,0,0,230,
scooby_state_426898|36|1 230,0,0,0,0,0,0,0,0,0,0,0,0,0,0,230,
scooby_state_426898|43|1 229,0,0,0,0,0,0,0,1,0,0,0,0,0,0,230,
scooby_state_426898|9|1 230,0,0,0,0,0,0,0,0,0,0,0,0,0,0,230,
scooby_state_426898|57|1 230,0,0,0,0,0,0,0,0,0,0,0,0,0,0,230,
scooby_state_426898|61|1 230,0,0,0,0,0,0,0,0,0,0,0,0,0,0,230,
scooby_state_426898|29|1 230,0,0,0,0,0,0,0,0,0,0,0,0,0,0,230,
scooby_state_426898|17|1 230,0,0,0,0,0,0,0,0,0,0,0,0,0,0,230,
scooby_state_426898|53|1 229,0,0,0,0,0,0,0,1,0,0,0,0,0,0,230,
scooby_state_426898|52|1 230,0,0,0,0,0,0,0,0,0,0,0,0,0,0,230,
scooby_state_426898|28|1 230,0,0,0,0,0,0,0,0,0,0,0,0,0,0,230,
scooby_state_426898|44|1 230,0,0,0,0,0,0,0,0,0,0,0,0,0,0,230,
scooby_state_426898|10|1 228,0,0,0,0,0,0,0,0,0,1,0,1,0,0,230,
scooby_state_426898|27|1 230,0,0,0,0,0,0,0,0,0,0,0,0,0,0,230,
scooby_state_426898|63|1 229,0,0,0,0,0,0,0,0,0,1,0,0,0,0,230,
scooby_state_426898|3|1 230,0,0,0,0,0,0,0,0,0,0,0,0,0,0,230,
scooby_state_426898|56|1 230,0,0,0,0,0,0,0,0,0,0,0,0,0,0,230,
scooby_state_426898|15|1 230,0,0,0,0,0,0,0,0,0,0,0,0,0,0,230,
scooby_state_407d86|6|-2 1,0,0,0,226,0,0,0,0,0,0,0,0,1,0,228,
scooby_state_407d86|45|-2 1,0,0,0,227,0,0,0,0,0,0,0,0,0,0,228,
scooby_state_407d96|2|-2 227,0,0,0,1,0,0,0,0,0,0,0,0,0,0,228,
scooby_state_407d96|56|-2 227,0,0,0,0,0,0,0,0,0,0,0,1,0,0,228,
scooby_state_407d86|13|-2 1,0,0,0,227,0,0,0,0,0,0,0,0,0,0,228,
scooby_state_407d96|41|-2 228,0,0,0,0,0,0,0,0,0,0,0,0,0,0,228,
scooby_state_407d96|46|-2 228,0,0,0,0,0,0,0,0,0,0,0,0,0,0,228,
scooby_state_407d96|22|-2 227,1,0,0,0,0,0,0,0,0,0,0,0,0,0,228,
scooby_state_407d86|21|-2 1,0,0,0,227,0,0,0,0,0,0,0,0,0,0,228,
scooby_state_407d96|51|-2 227,0,0,0,0,1,0,0,0,0,0,0,0,0,0,228,
scooby_state_407d86|52|-2 1,0,0,0,227,0,0,0,0,0,0,0,0,0,0,228,
scooby_state_407d86|19|-2 1,0,0,0,227,0,0,0,0,0,0,0,0,0,0,228,
scooby_state_407d96|36|-2 228,0,0,0,0,0,0,0,0,0,0,0,0,0,0,228,
scooby_state_407d96|31|-2 228,0,0,0,0,0,0,0,0,0,0,0,0,0,0,228,
scooby_state_407d96|7|-2 228,0,0,0,0,0,0,0,0,0,0,0,0,0,0,228,
scooby_state_407d96|12|-2 226,2,0,0,0,0,0,0,0,0,0,0,0,0,0,228,
scooby_state_407d96|61|-2 228,0,0,0,0,0,0,0,0,0,0,0,0,0,0,228,
scooby_state_407d86|32|-2 2,0,0,0,226,0,0,0,0,0,0,0,0,0,0,228,
scooby_state_407d86|37|-2 2,0,0,0,226,0,0,0,0,0,0,0,0,0,0,228,
scooby_state_407d96|17|-2 227,1,0,0,0,0,0,0,0,0,0,0,0,0,0,228,
scooby_state_407d86|9|-2 1,0,0,0,226,0,0,0,0,0,0,0,0,0,0,227,
scooby_state_407d86|50|-2 1,0,0,0,226,0,0,0,0,0,0,0,0,0,0,227,
scooby_state_407d86|39|-2 1,0,0,0,226,0,0,0,0,0,0,0,0,0,0,227,
scooby_state_407d86|44|-2 1,0,0,0,226,0,0,0,0,0,0,0,0,0,0,227,
scooby_state_407d86|55|-2 1,0,0,0,225,0,0,0,0,1,0,0,0,0,0,227,
scooby_state_407d86|8|-2 2,0,0,0,225,0,0,0,0,0,0,0,0,0,0,227,
scooby_state_407d86|24|-2 1,0,0,0,224,0,2,0,0,0,0,0,0,0,0,227,
scooby_state_407d86|42|-2 1,0,0,0,226,0,0,0,0,0,0,0,0,0,0,227,
scooby_state_4268c5|12|1 227,0,0,0,0,0,0,0,0,0,0,0,0,0,0,227,
scooby_state_407d86|26|-2 1,0,0,0,226,0,0,0,0,0,0,0,0,0,0,227,
scooby_state_407d86|10|-2 1,0,0,0,226,0,0,0,0,0,0,0,0,0,0,227,
scooby_state_407d86|0|-2 1,0,0,0,225,0,0,0,0,0,0,0,0,0,0,226,
scooby_state_407d86|34|-2 1,0,0,0,225,0,0,0,0,0,0,0,0,0,0,226,
scooby_state_407d86|47|-2 1,0,0,0,225,0,0,0,0,0,0,0,0,0,0,226,
scooby_state_407d86|57|-2 2,0,0,0,224,0,0,0,0,0,0,0,0,0,0,226,
scooby_state_407d86|14|-2 1,0,0,0,225,0,0,0,0,0,0,0,0,0,0,226,
scooby_state_407d86|16|-2 2,0,0,0,224,0,0,0,0,0,0,0,0,0,0,226,
scooby_state_407d86|3|-2 2,0,0,0,223,0,0,0,0,0,0,0,0,0,0,225,
scooby_state_407d86|5|-2 1,0,0,0,224,0,0,0,0,0,0,0,0,0,0,225,
scooby_state_4207a0|41|16 72,9,9,9,0,0,9,9,9,9,63,9,9,9,0,225,
scooby_state_407d86|59|-2 1,0,0,1,223,0,0,0,0,0,0,0,0,0,0,225,
scooby_state_407d86|60|-2 1,1,0,0,222,0,0,0,0,0,0,0,0,0,0,224,
scooby_state_407d86|11|-2 1,0,0,0,222,0,0,0,0,0,0,0,0,0,1,224,
scooby_state_407d86|56|-2 1,0,0,0,208,0,0,0,0,0,0,0,0,0,0,209,
scooby_state_407d86|17|-2 0,0,0,1,208,0,0,0,0,0,0,0,0,0,0,209,
scooby_state_407d86|12|-2 2,0,0,0,207,0,0,0,0,0,0,0,0,0,0,209,
scooby_state_407d86|7|-2 2,0,0,0,206,0,0,0,1,0,0,0,0,0,0,209,
scooby_state_407d86|46|-2 0,0,0,0,208,0,0,0,0,0,0,0,0,0,0,208,
scooby_state_407d86|51|-2 0,0,0,0,208,0,0,0,0,0,0,0,0,0,0,208,
scooby_state_407d86|31|-2 0,0,0,0,207,0,0,0,1,0,0,0,0,0,0,208,
scooby_state_407d86|36|-2 0,0,0,0,208,0,0,0,0,0,0,0,0,0,0,208,
scooby_state_407d86|22|-2 0,0,0,0,208,0,0,0,0,0,0,0,0,0,0,208,
scooby_state_4207a0|9|-48 45,9,9,9,0,0,0,9,0,9,99,9,9,0,0,207,
scooby_state_407d86|2|-2 1,0,0,0,206,0,0,0,0,0,0,0,0,0,0,207,
scooby_state_407d86|61|-2 1,1,0,0,204,0,0,0,0,0,0,0,0,0,0,206,
scooby_state_407d86|41|-2 0,0,0,0,205,0,0,0,0,0,0,0,0,0,0,205,
scooby_state_407d86|27|-2 1,0,0,0,204,0,0,0,0,0,0,0,0,0,0,205,
scooby_state_407db7|8|1 193,0,0,0,0,0,0,0,0,0,0,0,0,0,0,193,
scooby_state_407db7|37|1 191,0,0,1,0,0,0,0,0,0,0,0,0,0,0,192,
scooby_state_407db7|3|1 192,0,0,0,0,0,0,0,0,0,0,0,0,0,0,192,
scooby_state_407db7|17|1 192,0,0,0,0,0,0,0,0,0,0,0,0,0,0,192,
scooby_state_407db7|12|1 191,0,0,0,0,0,0,0,0,0,0,0,0,0,0,191,
scooby_state_407db7|47|1 191,0,0,0,0,0,0,0,0,0,0,0,0,0,0,191,
scooby_state_407db7|42|1 191,0,0,0,0,0,0,0,0,0,0,0,0,0,0,191,
scooby_state_407db7|22|1 190,0,0,0,0,0,0,0,0,0,0,0,0,0,0,190,
scooby_state_407db7|51|1 190,0,0,0,0,0,0,0,0,0,0,0,0,0,0,190,
scooby_state_407cb3|0|0 182,0,0,0,0,0,0,0,0,0,0,0,1,1,0,184,
scooby_state_407cae|0|0 184,0,0,0,0,0,0,0,0,0,0,0,0,0,0,184,
scooby_state_407db7|14|1 175,0,0,0,0,0,0,0,0,0,0,0,0,0,0,175,
scooby_state_407db7|30|1 175,0,0,0,0,0,0,0,0,0,0,0,0,0,0,175,
scooby_state_407db7|44|1 175,0,0,0,0,0,0,0,0,0,0,0,0,0,0,175,
scooby_state_407db7|62|1 173,1,0,0,0,0,0,0,0,0,0,0,0,0,0,174,
scooby_state_407db7|6|1 174,0,0,0,0,0,0,0,0,0,0,0,0,0,0,174,
scooby_state_407db7|7|1 173,0,0,0,0,0,0,0,0,0,0,0,0,0,0,173,
scooby_state_407db7|60|1 172,0,0,0,0,0,0,1,0,0,0,0,0,0,0,173,
scooby_state_407db7|5|1 173,0,0,0,0,0,0,0,0,0,0,0,0,0,0,173,
scooby_state_407db7|50|1 173,0,0,0,0,0,0,0,0,0,0,0,0,0,0,173,
scooby_state_407db7|19|1 172,0,0,0,0,0,0,1,0,0,0,0,0,0,0,173,
scooby_state_407db7|34|1 172,0,0,0,0,0,0,0,0,0,0,0,0,0,0,172,
scooby_state_407db7|13|1 171,0,0,0,0,0,1,0,0,0,0,0,0,0,0,172,
scooby_state_407db7|27|1 172,0,0,0,0,0,0,0,0,0,0,0,0,0,0,172,
scooby_state_407db7|39|1 172,0,0,0,0,0,0,0,0,0,0,0,0,0,0,172,
scooby_state_407db7|45|1 172,0,0,0,0,0,0,0,0,0,0,0,0,0,0,172,
scooby_state_407db7|49|1 170,0,0,1,0,0,0,0,0,0,1,0,0,0,0,172,
scooby_state_407db7|53|1 171,1,0,0,0,0,0,0,0,0,0,0,0,0,0,172,
scooby_state_407db7|11|1 171,0,0,0,0,0,0,0,0,0,0,1,0,0,0,172,
scooby_state_407db7|25|1 172,0,0,0,0,0,0,0,0,0,0,0,0,0,0,172,
scooby_state_407db7|54|1 172,0,0,0,0,0,0,0,0,0,0,0,0,0,0,172,
scooby_state_407db7|56|1 172,0,0,0,0,0,0,0,0,0,0,0,0,0,0,172,
scooby_state_407db7|46|1 171,0,0,0,0,0,0,0,0,1,0,0,0,0,0,172,
scooby_state_407d8e|42|1 1,0,0,0,170,0,0,0,0,0,0,0,0,0,0,171,
scooby_state_407db7|32|1 171,0,0,0,0,0,0,0,0,0,0,0,0,0,0,171,
scooby_state_407d96|62|1 170,1,0,0,0,0,0,0,0,0,0,0,0,0,0,171,
scooby_state_407db7|55|1 171,0,0,0,0,0,0,0,0,0,0,0,0,0,0,171,
scooby_state_407d8e|12|1 1,0,0,1,169,0,0,0,0,0,0,0,0,0,0,171,
scooby_state_407db7|15|1 171,0,0,0,0,0,0,0,0,0,0,0,0,0,0,171,
scooby_state_407d8e|37|1 1,0,0,0,170,0,0,0,0,0,0,0,0,0,0,171,
scooby_state_407db7|20|1 171,0,0,0,0,0,0,0,0,0,0,0,0,0,0,171,
scooby_state_407d8e|47|1 1,0,0,0,170,0,0,0,0,0,0,0,0,0,0,171,
scooby_state_407db7|35|1 171,0,0,0,0,0,0,0,0,0,0,0,0,0,0,171,
scooby_state_407db7|16|1 170,0,0,0,0,0,0,0,0,0,0,1,0,0,0,171,
scooby_state_407db7|10|1 171,0,0,0,0,0,0,0,0,0,0,0,0,0,0,171,
scooby_state_407db7|48|1 170,0,0,0,1,0,0,0,0,0,0,0,0,0,0,171,
scooby_state_407d8e|22|1 1,0,0,0,170,0,0,0,0,0,0,0,0,0,0,171,
scooby_state_407db7|52|1 171,0,0,0,0,0,0,0,0,0,0,0,0,0,0,171,
scooby_state_407d8e|8|1 1,0,0,0,170,0,0,0,0,0,0,0,0,0,0,171,
scooby_state_407db7|9|1 169,0,1,0,0,0,1,0,0,0,0,0,0,0,0,171,
scooby_state_407db7|40|1 170,0,0,0,0,0,0,0,0,0,0,0,0,0,1,171,
scooby_state_407d8e|17|1 1,0,0,0,170,0,0,0,0,0,0,0,0,0,0,171,
scooby_state_407d8e|51|1 1,0,0,0,169,0,0,0,0,0,1,0,0,0,0,171,
scooby_state_407cb3|61|1 161,0,0,0,0,0,0,0,0,0,0,0,0,0,0,161,
scooby_state_407cae|61|1 159,0,1,0,0,0,0,1,0,0,0,0,0,0,0,161,
scooby_state_407cae|48|1 156,0,0,0,0,0,0,0,0,0,0,0,0,0,0,156,
scooby_state_407cb3|48|1 156,0,0,0,0,0,0,0,0,0,0,0,0,0,0,156,
scooby_state_407db7|63|1 156,0,0,0,0,0,0,0,0,0,0,0,0,0,0,156,
scooby_state_407cae|38|1 155,0,0,0,0,0,0,0,0,0,0,0,0,0,0,155,
scooby_state_407db7|21|1 155,0,0,0,0,0,0,0,0,0,0,0,0,0,0,155,
scooby_state_407cb3|38|1 155,0,0,0,0,0,0,0,0,0,0,0,0,0,0,155,
scooby_state_407db7|33|1 154,0,0,0,0,0,0,0,0,0,0,0,0,0,0,154,
scooby_state_407db7|36|1 154,0,0,0,0,0,0,0,0,0,0,0,0,0,0,154,
scooby_state_407d8e|3|1 0,0,0,0,154,0,0,0,0,0,0,0,0,0,0,154,
scooby_state_407db7|28|1 153,0,0,0,0,0,0,0,0,0,0,0,0,0,0,153,
scooby_state_407db7|26|1 152,0,0,0,0,1,0,0,0,0,0,0,0,0,0,153,
scooby_state_407db7|41|1 153,0,0,0,0,0,0,0,0,0,0,0,0,0,0,153,
scooby_state_407cae|60|1 152,0,0,0,1,0,0,0,0,0,0,0,0,0,0,153,
scooby_state_407db7|43|1 151,0,0,1,0,0,0,0,0,0,0,1,0,0,0,153,
scooby_state_407db7|38|1 153,0,0,0,0,0,0,0,0,0,0,0,0,0,0,153,
scooby_state_407cb3|60|1 152,0,0,1,0,0,0,0,0,0,0,0,0,0,0,153,
scooby_state_407db7|58|1 153,0,0,0,0,0,0,0,0,0,0,0,0,0,0,153,
scooby_state_407db7|29|1 153,0,0,0,0,0,0,0,0,0,0,0,0,0,0,153,
scooby_state_407d8e|50|1 0,0,0,0,152,0,0,0,0,0,0,0,0,0,0,152,
scooby_state_407d8e|1|0 0,0,0,0,152,0,0,0,0,0,0,0,0,0,0,152,
scooby_state_407d8e|11|1 0,0,0,0,152,0,0,0,0,0,0,0,0,0,0,152,
scooby_state_407d8e|19|1 1,0,0,0,151,0,0,0,0,0,0,0,0,0,0,152,
scooby_state_407d8e|60|1 1,0,0,0,151,0,0,0,0,0,0,0,0,0,0,152,
scooby_state_407db7|18|1 151,0,0,0,0,0,0,1,0,0,0,0,0,0,0,152,
scooby_state_407d8e|15|1 0,0,0,0,151,0,0,0,0,0,0,1,0,0,0,152,
scooby_state_407d8e|56|1 0,0,0,0,152,0,0,0,0,0,0,0,0,0,0,152,
scooby_state_407db7|4|1 151,0,0,0,0,0,0,0,0,0,0,0,0,0,1,152,
scooby_state_407d8e|62|1 1,0,0,0,150,0,0,1,0,0,0,0,0,0,0,152,
scooby_state_407db7|1|0 152,0,0,0,0,0,0,0,0,0,0,0,0,0,0,152,
scooby_state_407d8e|6|1 0,0,0,0,152,0,0,0,0,0,0,0,0,0,0,152,
scooby_state_407db7|57|1 152,0,0,0,0,0,0,0,0,0,0,0,0,0,0,152,
scooby_state_407d8e|14|1 1,0,0,0,151,0,0,0,0,0,0,0,0,0,0,152,
scooby_state_407db7|24|1 152,0,0,0,0,0,0,0,0,0,0,0,0,0,0,152,
scooby_state_407d8e|40|1 0,0,0,0,151,0,0,0,0,1,0,0,0,0,0,152,
scooby_state_407d8e|9|1 1,0,0,0,151,0,0,0,0,0,0,0,0,0,0,152,
scooby_state_407d8e|32|1 1,0,0,0,151,0,0,0,0,0,0,0,0,0,0,152,
scooby_state_407db7|31|1 152,0,0,0,0,0,0,0,0,0,0,0,0,0,0,152,
scooby_state_407d8e|7|1 1,1,0,0,150,0,0,0,0,0,0,0,0,0,0,152,
scooby_state_407d8e|35|1 0,0,0,0,152,0,0,0,0,0,0,0,0,0,0,152,
scooby_state_407db7|59|1 151,0,0,0,0,0,0,0,0,0,1,0,0,0,0,152,
scooby_state_407d8e|34|1 1,0,0,0,149,0,0,0,1,0,1,0,0,0,0,152,
scooby_state_407d8e|54|1 0,0,0,1,150,0,0,0,1,0,0,0,0,0,0,152,
scooby_state_407d8e|46|1 1,0,0,0,150,0,0,0,0,0,0,0,0,0,1,152,
scooby_state_407d8e|45|1 0,0,0,0,152,0,0,0,0,0,0,0,0,0,0,152,
scooby_state_407d8e|44|1 1,0,0,0,151,0,0,0,0,0,0,0,0,0,0,152,
scooby_state_407d8e|49|1 0,0,0,0,152,0,0,0,0,0,0,0,0,0,0,152,
scooby_state_407d8e|53|1 1,0,0,0,150,1,0,0,0,0,0,0,0,0,0,152,
scooby_state_407db7|23|1 151,1,0,0,0,0,0,0,0,0,0,0,0,0,0,152,
scooby_state_407d8e|20|1 0,0,0,0,152,0,0,0,0,0,0,0,0,0,0,152,
scooby_state_407d8e|5|1 1,0,0,0,151,0,0,0,0,0,0,0,0,0,0,152,
scooby_state_407d8e|48|1 1,0,0,0,151,0,0,0,0,0,0,0,0,0,0,152,
scooby_state_407db7|61|1 152,0,0,0,0,0,0,0,0,0,0,0,0,0,0,152,
scooby_state_407d8e|39|1 1,0,0,0,151,0,0,0,0,0,0,0,0,0,0,152,
scooby_state_407d8e|10|1 0,0,0,0,152,0,0,0,0,0,0,0,0,0,0,152,
scooby_state_407d8e|25|1 0,0,0,0,152,0,0,0,0,0,0,0,0,0,0,152,
scooby_state_407d86|62|1 1,0,0,0,148,0,0,0,0,0,0,0,0,0,0,149,
scooby_state_407cae|34|1 147,0,0,0,0,0,0,0,0,0,0,0,0,0,0,147,
scooby_state_407cae|62|1 146,0,1,0,0,0,0,0,0,0,0,0,0,0,0,147,
scooby_state_407cb3|62|1 147,0,0,0,0,0,0,0,0,0,0,0,0,0,0,147,
scooby_state_407cb3|34|1 147,0,0,0,0,0,0,0,0,0,0,0,0,0,0,147,
scooby_state_407cae|1|1 146,0,0,0,0,0,0,0,0,0,0,0,0,0,0,146,
scooby_state_407cb3|1|1 146,0,0,0,0,0,0,0,0,0,0,0,0,0,0,146,
scooby_state_407cae|33|1 137,0,0,0,0,0,0,0,0,0,0,0,0,0,0,137,
scooby_state_407cb3|33|1 137,0,0,0,0,0,0,0,0,0,0,0,0,0,0,137,
scooby_state_407cb3|32|1 137,0,0,0,0,0,0,0,0,0,0,0,0,0,0,137,
scooby_state_407cae|32|1 135,1,0,0,0,0,1,0,0,0,0,0,0,0,0,137,
scooby_state_407cae|39|1 136,0,0,0,0,0,0,0,0,0,0,0,0,0,0,136,
scooby_state_407cb3|39|1 136,0,0,0,0,0,0,0,0,0,0,0,0,0,0,136,
scooby_state_407cb3|7|1 135,0,0,0,0,0,0,0,0,0,0,0,0,0,0,135,
scooby_state_407cae|7|1 135,0,0,0,0,0,0,0,0,0,0,0,0,0,0,135,
scooby_state_407d8e|55|1 0,0,0,0,133,0,0,0,0,0,0,0,0,0,0,133,
scooby_state_407d8e|21|1 0,0,0,0,133,0,0,0,0,0,0,0,0,0,0,133,
scooby_state_409fa4|23|1 132,0,1,0,0,0,0,0,0,0,0,0,0,0,0,133,
scooby_state_407d8e|52|1 0,0,0,0,133,0,0,0,0,0,0,0,0,0,0,133,
scooby_state_407d8e|13|1 0,0,0,0,133,0,0,0,0,0,0,0,0,0,0,133,
scooby_state_409fa4|20|1 133,0,0,0,0,0,0,0,0,0,0,0,0,0,0,133,
scooby_state_407d8e|24|1 0,0,0,0,133,0,0,0,0,0,0,0,0,0,0,133,
scooby_state_407d8e|27|1 0,0,0,0,133,0,0,0,0,0,0,0,0,0,0,133,
scooby_state_407d8e|36|1 0,0,0,0,133,0,0,0,0,0,0,0,0,0,0,133,
scooby_state_407d8e|18|1 0,0,0,0,133,0,0,0,0,0,0,0,0,0,0,133,
scooby_state_407d8e|31|1 0,0,0,0,132,0,0,0,0,0,0,0,1,0,0,133,
scooby_state_407d8e|57|1 0,0,0,0,133,0,0,0,0,0,0,0,0,0,0,133,
scooby_state_407d8e|28|1 0,0,0,0,133,0,0,0,0,0,0,0,0,0,0,133,
scooby_state_407d8e|59|1 0,0,0,0,133,0,0,0,0,0,0,0,0,0,0,133,
scooby_state_407d8e|43|1 0,0,0,0,133,0,0,0,0,0,0,0,0,0,0,133,
scooby_state_407d8e|30|1 0,0,0,0,133,0,0,0,0,0,0,0,0,0,0,133,
scooby_state_407d8e|58|1 0,0,0,0,132,0,1,0,0,0,0,0,0,0,0,133,
scooby_state_407d8e|16|1 0,0,0,0,133,0,0,0,0,0,0,0,0,0,0,133,
scooby_state_407d8e|61|1 0,0,0,0,132,0,0,0,0,1,0,0,0,0,0,133,
scooby_state_407d8e|29|1 0,0,0,0,133,0,0,0,0,0,0,0,0,0,0,133,
scooby_state_407d8e|63|1 0,0,0,0,133,0,0,0,0,0,0,0,0,0,0,133,
scooby_state_407d8e|23|1 0,0,0,0,133,0,0,0,0,0,0,0,0,0,0,133,
scooby_state_407d8e|4|1 0,0,0,0,133,0,0,0,0,0,0,0,0,0,0,133,
scooby_state_407d8e|41|1 0,0,0,0,133,0,0,0,0,0,0,0,0,0,0,133,
scooby_state_407d8e|26|1 0,0,0,0,133,0,0,0,0,0,0,0,0,0,0,133,
scooby_state_407d8e|33|1 0,0,0,0,133,0,0,0,0,0,0,0,0,0,0,133,
scooby_state_407d8e|38|1 0,0,0,0,132,0,0,0,0,0,0,0,0,0,1,133,
scooby_state_407cb3|55|1 129,0,0,0,0,0,0,0,0,0,0,0,0,0,0,129,
scooby_state_407cae|25|1 129,0,0,0,0,0,0,0,0,0,0,0,0,0,0,129,
scooby_state_407cb3|54|1 129,0,0,0,0,0,0,0,0,0,0,0,0,0,0,129,
scooby_state_407cae|54|1 129,0,0,0,0,0,0,0,0,0,0,0,0,0,0,129,
scooby_state_407cb3|36|1 129,0,0,0,0,0,0,0,0,0,0,0,0,0,0,129,
scooby_state_407cae|36|1 129,0,0,0,0,0,0,0,0,0,0,0,0,0,0,129,
scooby_state_407cae|55|1 129,0,0,0,0,0,0,0,0,0,0,0,0,0,0,129,
scooby_state_407cae|56|1 129,0,0,0,0,0,0,0,0,0,0,0,0,0,0,129,
scooby_state_407cb3|56|1 129,0,0,0,0,0,0,0,0,0,0,0,0,0,0,129,
scooby_state_407cae|43|1 127,0,1,0,0,0,0,0,0,0,0,0,0,0,0,128,
scooby_state_407cae|23|1 128,0,0,0,0,0,0,0,0,0,0,0,0,0,0,128,
scooby_state_407cb3|43|1 128,0,0,0,0,0,0,0,0,0,0,0,0,0,0,128,
scooby_state_407cb3|23|1 127,0,0,0,0,0,1,0,0,0,0,0,0,0,0,128,
scooby_state_407cb3|25|1 128,0,0,0,0,0,0,0,0,0,0,0,0,0,0,128,
scooby_state_407cae|49|1 126,0,0,0,1,0,0,0,0,0,0,0,0,0,0,127,
scooby_state_407cb3|49|1 126,0,0,0,0,0,0,0,0,0,0,0,1,0,0,127,
scooby_state_407cae|26|1 125,0,0,0,0,0,0,0,0,0,0,0,0,0,0,125,
scooby_state_407cb3|26|1 124,0,0,0,0,0,0,0,0,0,0,0,0,0,0,124,
scooby_state_407cae|8|1 124,0,0,0,0,0,0,0,0,0,0,0,0,0,0,124,
scooby_state_407cb3|8|1 124,0,0,0,0,0,0,0,0,0,0,0,0,0,0,124,
scooby_state_407cb3|35|1 124,0,0,0,0,0,0,0,0,0,0,0,0,0,0,124,
scooby_state_407cae|35|1 123,0,0,0,1,0,0,0,0,0,0,0,0,0,0,124,
scooby_state_407db7|29|2 117,0,0,1,0,0,0,0,0,0,0,0,0,0,0,118,
scooby_state_407cae|37|1 118,0,0,0,0,0,0,0,0,0,0,0,0,0,0,118,
scooby_state_407cb3|37|1 118,0,0,0,0,0,0,0,0,0,0,0,0,0,0,118,
scooby_state_407cb3|24|1 116,0,0,0,1,0,0,0,0,0,0,0,0,0,0,117,
scooby_state_407cb3|41|1 117,0,0,0,0,0,0,0,0,0,0,0,0,0,0,117,
scooby_state_407db7|7|2 116,0,0,1,0,0,0,0,0,0,0,0,0,0,0,117,
scooby_state_407cae|24|1 117,0,0,0,0,0,0,0,0,0,0,0,0,0,0,117,
scooby_state_407cb3|22|1 116,0,0,0,0,0,0,0,0,0,0,0,0,1,0,117,
scooby_state_407db7|5|2 116,0,0,1,0,0,0,0,0,0,0,0,0,0,0,117,
scooby_state_407cae|22|1 116,0,0,1,0,0,0,0,0,0,0,0,0,0,0,117,
scooby_state_407cae|41|1 117,0,0,0,0,0,0,0,0,0,0,0,0,0,0,117,
scooby_state_407db7|2|2 115,0,0,1,0,0,0,0,0,0,0,0,0,0,0,116,
scooby_state_407db7|49|2 115,0,0,1,0,0,0,0,0,0,0,0,0,0,0,116,
scooby_state_407db7|59|2 115,0,0,1,0,0,0,0,0,0,0,0,0,0,0,116,
scooby_state_407db7|6|2 115,0,0,1,0,0,0,0,0,0,0,0,0,0,0,116,
scooby_state_407db7|36|2 115,0,0,1,0,0,0,0,0,0,0,0,0,0,0,116,
scooby_state_407db7|16|2 115,0,0,1,0,0,0,0,0,0,0,0,0,0,0,116,
scooby_state_407db7|46|2 112,0,0,1,0,1,0,0,0,0,0,1,0,0,0,115,
scooby_state_407cae|40|1 115,0,0,0,0,0,0,0,0,0,0,0,0,0,0,115,
scooby_state_407db7|26|2 114,0,0,1,0,0,0,0,0,0,0,0,0,0,0,115,
scooby_state_407db7|10|2 114,0,0,1,0,0,0,0,0,0,0,0,0,0,0,115,
scooby_state_407db7|45|2 114,0,0,1,0,0,0,0,0,0,0,0,0,0,0,115,
scooby_state_407db7|41|2 114,0,0,1,0,0,0,0,0,0,0,0,0,0,0,115,
scooby_state_407db7|12|2 114,0,0,1,0,0,0,0,0,0,0,0,0,0,0,115,
scooby_state_407cb3|40|1 114,0,0,0,0,0,1,0,0,0,0,0,0,0,0,115,
scooby_state_407db7|53|2 114,0,0,1,0,0,0,0,0,0,0,0,0,0,0,115,
scooby_state_407db7|24|2 114,0,0,1,0,0,0,0,0,0,0,0,0,0,0,115,
scooby_state_407db7|44|2 113,0,0,1,0,0,0,0,0,1,0,0,0,0,0,115,
scooby_state_407db7|11|2 114,0,0,1,0,0,0,0,0,0,0,0,0,0,0,115,
scooby_state_407db7|48|2 113,0,0,1,0,0,0,0,0,0,0,0,1,0,0,115,
scooby_state_409fa4|12|1 114,0,0,0,0,0,0,0,0,0,0,0,0,0,0,114,
scooby_state_402660|16|1 113,0,0,0,0,0,0,0,0,0,0,1,0,0,0,114,
scooby_state_402660|0|0 114,0,0,0,0,0,0,0,0,0,0,0,0,0,0,114,
scooby_state_409fa4|47|1 114,0,0,0,0,0,0,0,0,0,0,0,0,0,0,114,
scooby_state_407db7|50|2 112,0,0,1,0,0,0,1,0,0,0,0,0,0,0,114,
scooby_state_402660|21|1 114,0,0,0,0,0,0,0,0,0,0,0,0,0,0,114,
scooby_state_402660|41|1 114,0,0,0,0,0,0,0,0,0,0,0,0,0,0,114,
scooby_state_402660|22|1 114,0,0,0,0,0,0,0,0,0,0,0,0,0,0,114,
scooby_state_407db7|19|2 113,0,0,1,0,0,0,0,0,0,0,0,0,0,0,114,
[...]
scooby_state_42200f|54|-2 1,0,0,0,0,0,0,0,0,0,0,0,0,0,0,1,
scooby_state_402350|62|4 1,0,0,0,0,0,0,0,0,0,0,0,0,0,0,1,
scooby_state_407cae|32|3 1,0,0,0,0,0,0,0,0,0,0,0,0,0,0,1,
scooby_state_421ee8|59|54 1,0,0,0,0,0,0,0,0,0,0,0,0,0,0,1,
scooby_state_42200f|10|-18 1,0,0,0,0,0,0,0,0,0,0,0,0,0,0,1,
scooby_state_41df4c|28|1 1,0,0,0,0,0,0,0,0,0,0,0,0,0,0,1,
scooby_state_42200b|0|-20 0,0,0,0,0,0,0,1,0,0,0,0,0,0,0,1,
scooby_state_42200f|41|-9 0,0,0,0,0,0,0,0,0,1,0,0,0,0,0,1,
scooby_state_42200f|25|0 0,0,0,1,0,0,0,0,0,0,0,0,0,0,0,1,
scooby_state_417963|16|16 1,0,0,0,0,0,0,0,0,0,0,0,0,0,0,1,
scooby_state_42200f|24|-27 1,0,0,0,0,0,0,0,0,0,0,0,0,0,0,1,
scooby_state_4176d7|53|37 1,0,0,0,0,0,0,0,0,0,0,0,0,0,0,1,
scooby_state_41bd26|2|-41 1,0,0,0,0,0,0,0,0,0,0,0,0,0,0,1,
scooby_state_4176d3|22|1 1,0,0,0,0,0,0,0,0,0,0,0,0,0,0,1,
scooby_state_402350|58|25 1,0,0,0,0,0,0,0,0,0,0,0,0,0,0,1,
scooby_state_422017|12|-1 0,0,0,0,0,0,0,0,0,0,0,1,0,0,0,1,
scooby_state_412104|19|-10 1,0,0,0,0,0,0,0,0,0,0,0,0,0,0,1,
scooby_state_422017|62|6 0,0,0,1,0,0,0,0,0,0,0,0,0,0,0,1,
scooby_state_422017|13|-46 0,0,1,0,0,0,0,0,0,0,0,0,0,0,0,1,
scooby_state_42200b|32|-1 0,0,0,0,0,1,0,0,0,0,0,0,0,0,0,1,
scooby_state_41704f|13|-31 1,0,0,0,0,0,0,0,0,0,0,0,0,0,0,1,
scooby_state_417946|39|-1 1,0,0,0,0,0,0,0,0,0,0,0,0,0,0,1,
scooby_state_41bd26|38|-6 1,0,0,0,0,0,0,0,0,0,0,0,0,0,0,1,
scooby_state_407cb3|27|13 1,0,0,0,0,0,0,0,0,0,0,0,0,0,0,1,
scooby_state_44a905|55|21 0,0,0,0,0,0,0,0,0,0,1,0,0,0,0,1,
scooby_state_402800|32|9 1,0,0,0,0,0,0,0,0,0,0,0,0,0,0,1,
scooby_state_417358|9|-11 0,0,0,0,1,0,0,0,0,0,0,0,0,0,0,1,
scooby_state_44a916|13|-45 0,0,1,0,0,0,0,0,0,0,0,0,0,0,0,1,
scooby_state_407cae|19|14 1,0,0,0,0,0,0,0,0,0,0,0,0,0,0,1,
scooby_state_42200b|1|-24 1,0,0,0,0,0,0,0,0,0,0,0,0,0,0,1,
scooby_state_417939|30|22 1,0,0,0,0,0,0,0,0,0,0,0,0,0,0,1,
scooby_state_41bd26|28|27 1,0,0,0,0,0,0,0,0,0,0,0,0,0,0,1,
scooby_state_407c96|53|15 0,0,0,1,0,0,0,0,0,0,0,0,0,0,0,1,
scooby_state_422017|22|7 0,1,0,0,0,0,0,0,0,0,0,0,0,0,0,1,
scooby_state_407c86|57|32 1,0,0,0,0,0,0,0,0,0,0,0,0,0,0,1,
scooby_state_407c8e|57|32 1,0,0,0,0,0,0,0,0,0,0,0,0,0,0,1,
scooby_state_44a8cb|55|45 1,0,0,0,0,0,0,0,0,0,0,0,0,0,0,1,
scooby_state_4268c5|10|-1 1,0,0,0,0,0,0,0,0,0,0,0,0,0,0,1,
scooby_state_437038|0|-6 1,0,0,0,0,0,0,0,0,0,0,0,0,0,0,1,
scooby_state_42200b|27|5 1,0,0,0,0,0,0,0,0,0,0,0,0,0,0,1,
scooby_state_44a8cb|34|-28 1,0,0,0,0,0,0,0,0,0,0,0,0,0,0,1,
scooby_state_40a008|49|0 1,0,0,0,0,0,0,0,0,0,0,0,0,0,0,1,
scooby_state_41bd26|35|-14 1,0,0,0,0,0,0,0,0,0,0,0,0,0,0,1,
scooby_state_44a8cb|4|-24 1,0,0,0,0,0,0,0,0,0,0,0,0,0,0,1,
scooby_state_42200b|42|38 0,0,0,0,0,0,0,0,1,0,0,0,0,0,0,1,
scooby_state_41796e|11|-51 1,0,0,0,0,0,0,0,0,0,0,0,0,0,0,1,
scooby_state_407cae|10|9 1,0,0,0,0,0,0,0,0,0,0,0,0,0,0,1,
scooby_state_41bd26|38|4 1,0,0,0,0,0,0,0,0,0,0,0,0,0,0,1,
scooby_state_422017|40|3 0,0,0,0,0,0,0,0,0,0,0,1,0,0,0,1,
scooby_state_44a8b6|26|6 0,0,0,0,1,0,0,0,0,0,0,0,0,0,0,1,
scooby_state_42200f|60|38 0,0,0,0,0,0,0,0,0,0,0,0,0,0,1,1,
scooby_state_41bd26|8|-54 1,0,0,0,0,0,0,0,0,0,0,0,0,0,0,1,
scooby_state_44a905|60|32 1,0,0,0,0,0,0,0,0,0,0,0,0,0,0,1,
scooby_state_42200f|23|-3 0,0,0,0,0,1,0,0,0,0,0,0,0,0,0,1,
scooby_state_44a905|61|50 1,0,0,0,0,0,0,0,0,0,0,0,0,0,0,1,
scooby_state_42200b|31|-24 1,0,0,0,0,0,0,0,0,0,0,0,0,0,0,1,
scooby_state_44a916|21|11 1,0,0,0,0,0,0,0,0,0,0,0,0,0,0,1,
scooby_state_44a905|51|23 1,0,0,0,0,0,0,0,0,0,0,0,0,0,0,1,
scooby_state_42200f|23|-27 1,0,0,0,0,0,0,0,0,0,0,0,0,0,0,1,
scooby_state_417963|16|-5 1,0,0,0,0,0,0,0,0,0,0,0,0,0,0,1,
scooby_state_44a8b6|30|23 1,0,0,0,0,0,0,0,0,0,0,0,0,0,0,1,
scooby_state_417358|7|0 0,0,0,0,1,0,0,0,0,0,0,0,0,0,0,1,
scooby_state_42200b|54|30 1,0,0,0,0,0,0,0,0,0,0,0,0,0,0,1,
scooby_state_44a8cb|11|-36 0,0,0,0,0,0,0,0,0,0,0,0,0,0,1,1,
scooby_state_44a8b6|32|27 1,0,0,0,0,0,0,0,0,0,0,0,0,0,0,1,
scooby_state_412109|57|7 1,0,0,0,0,0,0,0,0,0,0,0,0,0,0,1,
scooby_state_417b42|45|5 0,1,0,0,0,0,0,0,0,0,0,0,0,0,0,1,
scooby_state_407c96|22|2 1,0,0,0,0,0,0,0,0,0,0,0,0,0,0,1,
scooby_state_407cf3|61|0 1,0,0,0,0,0,0,0,0,0,0,0,0,0,0,1,
scooby_state_407c8e|59|4 0,0,0,0,1,0,0,0,0,0,0,0,0,0,0,1,
scooby_state_42200f|23|-9 0,0,0,0,0,0,0,0,0,0,0,0,0,0,1,1,
scooby_state_422017|4|-54 1,0,0,0,0,0,0,0,0,0,0,0,0,0,0,1,
scooby_state_44a8cb|56|53 1,0,0,0,0,0,0,0,0,0,0,0,0,0,0,1,
scooby_state_421ee8|31|4 1,0,0,0,0,0,0,0,0,0,0,0,0,0,0,1,
scooby_state_44a8b6|35|3 1,0,0,0,0,0,0,0,0,0,0,0,0,0,0,1,
scooby_state_42200f|49|46 1,0,0,0,0,0,0,0,0,0,0,0,0,0,0,1,
scooby_state_422017|40|4 0,0,0,1,0,0,0,0,0,0,0,0,0,0,0,1,
scooby_state_422000|62|5 1,0,0,0,0,0,0,0,0,0,0,0,0,0,0,1,
scooby_state_4026c2|27|1 1,0,0,0,0,0,0,0,0,0,0,0,0,0,0,1,
scooby_state_41df4c|30|7 1,0,0,0,0,0,0,0,0,0,0,0,0,0,0,1,
scooby_state_412109|8|8 1,0,0,0,0,0,0,0,0,0,0,0,0,0,0,1,
scooby_state_407cb3|31|12 1,0,0,0,0,0,0,0,0,0,0,0,0,0,0,1,
scooby_state_41704f|47|6 1,0,0,0,0,0,0,0,0,0,0,0,0,0,0,1,
scooby_state_41bd26|59|47 1,0,0,0,0,0,0,0,0,0,0,0,0,0,0,1,
scooby_state_422017|24|6 1,0,0,0,0,0,0,0,0,0,0,0,0,0,0,1,
scooby_state_42200b|34|-14 1,0,0,0,0,0,0,0,0,0,0,0,0,0,0,1,
scooby_state_422017|50|-7 1,0,0,0,0,0,0,0,0,0,0,0,0,0,0,1,
scooby_state_41e8a3|27|0 1,0,0,0,0,0,0,0,0,0,0,0,0,0,0,1,
scooby_state_42200b|42|27 1,0,0,0,0,0,0,0,0,0,0,0,0,0,0,1,
scooby_state_42200b|25|-2 1,0,0,0,0,0,0,0,0,0,0,0,0,0,0,1,
scooby_state_42200f|30|-19 1,0,0,0,0,0,0,0,0,0,0,0,0,0,0,1,
scooby_state_42200b|32|2 1,0,0,0,0,0,0,0,0,0,0,0,0,0,0,1,
scooby_state_44a8cb|9|-54 1,0,0,0,0,0,0,0,0,0,0,0,0,0,0,1,
scooby_state_407cb3|34|27 1,0,0,0,0,0,0,0,0,0,0,0,0,0,0,1,
scooby_state_412031|11|5 1,0,0,0,0,0,0,0,0,0,0,0,0,0,0,1,
scooby_state_41bd26|24|-12 1,0,0,0,0,0,0,0,0,0,0,0,0,0,0,1,
scooby_state_42200f|59|21 1,0,0,0,0,0,0,0,0,0,0,0,0,0,0,1,
scooby_state_44a916|33|14 1,0,0,0,0,0,0,0,0,0,0,0,0,0,0,1,
scooby_state_424b0a|4|0 1,0,0,0,0,0,0,0,0,0,0,0,0,0,0,1,
scooby_state_41bd26|17|-31 1,0,0,0,0,0,0,0,0,0,0,0,0,0,0,1,
scooby_state_420183|6|3 1,0,0,0,0,0,0,0,0,0,0,0,0,0,0,1,
scooby_state_42200f|22|-7 0,0,0,0,0,0,0,1,0,0,0,0,0,0,0,1,
scooby_state_42200f|30|10 0,0,0,1,0,0,0,0,0,0,0,0,0,0,0,1,
scooby_state_42200f|33|-17 1,0,0,0,0,0,0,0,0,0,0,0,0,0,0,1,
scooby_state_421ee8|60|0 0,0,0,1,0,0,0,0,0,0,0,0,0,0,0,1,
scooby_state_42200b|6|-57 1,0,0,0,0,0,0,0,0,0,0,0,0,0,0,1,
scooby_state_412109|27|-16 0,1,0,0,0,0,0,0,0,0,0,0,0,0,0,1,
scooby_state_44a8b6|29|-2 1,0,0,0,0,0,0,0,0,0,0,0,0,0,0,1,
scooby_state_42d6c3|27|6 1,0,0,0,0,0,0,0,0,0,0,0,0,0,0,1,
scooby_state_42219c|48|1 0,0,0,0,1,0,0,0,0,0,0,0,0,0,0,1,
scooby_state_407cb3|9|4 1,0,0,0,0,0,0,0,0,0,0,0,0,0,0,1,
scooby_state_407cae|12|10 1,0,0,0,0,0,0,0,0,0,0,0,0,0,0,1,
scooby_state_422017|63|62 1,0,0,0,0,0,0,0,0,0,0,0,0,0,0,1,
scooby_state_436ea0|58|-5 1,0,0,0,0,0,0,0,0,0,0,0,0,0,0,1,
scooby_state_407cf3|4|2 1,0,0,0,0,0,0,0,0,0,0,0,0,0,0,1,
scooby_state_41bd26|52|32 0,0,0,0,1,0,0,0,0,0,0,0,0,0,0,1,
scooby_state_424cc1|51|0 1,0,0,0,0,0,0,0,0,0,0,0,0,0,0,1,
scooby_state_44a8b6|19|15 0,0,0,0,1,0,0,0,0,0,0,0,0,0,0,1,
scooby_state_41bd26|22|-26 0,0,0,0,1,0,0,0,0,0,0,0,0,0,0,1,
scooby_state_42200f|61|15 0,0,0,1,0,0,0,0,0,0,0,0,0,0,0,1,
scooby_state_42200b|14|-11 1,0,0,0,0,0,0,0,0,0,0,0,0,0,0,1,
scooby_state_422017|1|-43 0,0,1,0,0,0,0,0,0,0,0,0,0,0,0,1,
scooby_state_41bd26|27|-9 1,0,0,0,0,0,0,0,0,0,0,0,0,0,0,1,
scooby_state_473100|4|1 1,0,0,0,0,0,0,0,0,0,0,0,0,0,0,1,
scooby_state_44a8cb|29|-30 0,0,0,0,0,0,0,0,0,0,0,0,1,0,0,1,
scooby_state_41bd26|42|11 1,0,0,0,0,0,0,0,0,0,0,0,0,0,0,1,
scooby_state_44a8b6|29|20 1,0,0,0,0,0,0,0,0,0,0,0,0,0,0,1,
scooby_state_4207c3|31|1 1,0,0,0,0,0,0,0,0,0,0,0,0,0,0,1,
scooby_state_41bd26|55|-5 0,0,0,1,0,0,0,0,0,0,0,0,0,0,0,1,
scooby_state_422017|20|-1 0,0,0,0,0,0,0,0,0,0,0,0,0,1,0,1,
scooby_state_42200f|49|-12 1,0,0,0,0,0,0,0,0,0,0,0,0,0,0,1,
scooby_state_41df4c|27|24 1,0,0,0,0,0,0,0,0,0,0,0,0,0,0,1,
scooby_state_412031|57|0 1,0,0,0,0,0,0,0,0,0,0,0,0,0,0,1,
scooby_state_42200b|45|-16 0,0,0,1,0,0,0,0,0,0,0,0,0,0,0,1,
scooby_state_41bd26|16|-13 1,0,0,0,0,0,0,0,0,0,0,0,0,0,0,1,
scooby_state_412022|56|-1 0,0,0,0,0,1,0,0,0,0,0,0,0,0,0,1,
scooby_state_42200f|4|-29 1,0,0,0,0,0,0,0,0,0,0,0,0,0,0,1,
scooby_state_407ca8|47|1 1,0,0,0,0,0,0,0,0,0,0,0,0,0,0,1,
scooby_state_41ff42|55|2 1,0,0,0,0,0,0,0,0,0,0,0,0,0,0,1,
scooby_state_422017|40|-20 0,0,0,0,0,0,0,0,1,0,0,0,0,0,0,1,
scooby_state_402350|28|13 1,0,0,0,0,0,0,0,0,0,0,0,0,0,0,1,
scooby_state_41bd26|4|-6 1,0,0,0,0,0,0,0,0,0,0,0,0,0,0,1,
scooby_state_42200f|12|-33 0,0,0,0,0,0,0,0,1,0,0,0,0,0,0,1,
scooby_state_41df60|8|0 0,0,0,0,1,0,0,0,0,0,0,0,0,0,0,1,
scooby_state_407cb3|29|25 1,0,0,0,0,0,0,0,0,0,0,0,0,0,0,1,
scooby_state_42200f|38|-23 0,0,0,0,0,0,0,0,0,1,0,0,0,0,0,1,
scooby_state_42200b|54|4 1,0,0,0,0,0,0,0,0,0,0,0,0,0,0,1,
scooby_state_42200b|25|-33 1,0,0,0,0,0,0,0,0,0,0,0,0,0,0,1,
scooby_state_41bd26|44|43 1,0,0,0,0,0,0,0,0,0,0,0,0,0,0,1,
scooby_state_422017|60|44 0,0,0,0,0,0,0,0,0,0,0,0,0,1,0,1,
scooby_state_407cb3|33|20 1,0,0,0,0,0,0,0,0,0,0,0,0,0,0,1,
scooby_state_41bd26|43|40 1,0,0,0,0,0,0,0,0,0,0,0,0,0,0,1,
scooby_state_41bd26|54|-2 0,0,0,0,1,0,0,0,0,0,0,0,0,0,0,1,
scooby_state_42200f|55|-2 1,0,0,0,0,0,0,0,0,0,0,0,0,0,0,1,
scooby_state_407c96|31|0 1,0,0,0,0,0,0,0,0,0,0,0,0,0,0,1,
scooby_state_41bd26|23|-15 1,0,0,0,0,0,0,0,0,0,0,0,0,0,0,1,
scooby_state_41bd26|43|20 1,0,0,0,0,0,0,0,0,0,0,0,0,0,0,1,
scooby_state_44a8b6|26|14 1,0,0,0,0,0,0,0,0,0,0,0,0,0,0,1,
scooby_state_41bd26|45|41 0,0,1,0,0,0,0,0,0,0,0,0,0,0,0,1,
scooby_state_41bd26|59|33 1,0,0,0,0,0,0,0,0,0,0,0,0,0,0,1,
scooby_state_44a916|16|-21 1,0,0,0,0,0,0,0,0,0,0,0,0,0,0,1,
scooby_state_44a8b6|38|3 1,0,0,0,0,0,0,0,0,0,0,0,0,0,0,1,
scooby_state_41bd26|55|37 1,0,0,0,0,0,0,0,0,0,0,0,0,0,0,1,
scooby_state_412031|53|6 0,1,0,0,0,0,0,0,0,0,0,0,0,0,0,1,
scooby_state_407cb3|9|2 1,0,0,0,0,0,0,0,0,0,0,0,0,0,0,1,
scooby_state_44a8cb|21|-30 0,0,0,0,0,0,0,0,0,0,0,1,0,0,0,1,
scooby_state_412104|11|0 1,0,0,0,0,0,0,0,0,0,0,0,0,0,0,1,
scooby_state_407cb3|56|4 1,0,0,0,0,0,0,0,0,0,0,0,0,0,0,1,
scooby_state_41df4c|38|17 1,0,0,0,0,0,0,0,0,0,0,0,0,0,0,1,
scooby_state_417939|26|13 1,0,0,0,0,0,0,0,0,0,0,0,0,0,0,1,
scooby_state_4176d7|18|0 1,0,0,0,0,0,0,0,0,0,0,0,0,0,0,1,
scooby_state_42200b|18|-45 0,0,0,0,0,0,0,0,0,0,0,1,0,0,0,1,
scooby_state_417935|53|1 1,0,0,0,0,0,0,0,0,0,0,0,0,0,0,1,
scooby_state_42200f|24|-10 1,0,0,0,0,0,0,0,0,0,0,0,0,0,0,1,
scooby_state_437a8c|24|5 0,0,0,0,1,0,0,0,0,0,0,0,0,0,0,1,
scooby_state_421ee4|14|0 1,0,0,0,0,0,0,0,0,0,0,0,0,0,0,1,
scooby_state_42200b|45|21 1,0,0,0,0,0,0,0,0,0,0,0,0,0,0,1,
scooby_state_41bd26|23|-10 1,0,0,0,0,0,0,0,0,0,0,0,0,0,0,1,
scooby_state_42200b|62|18 1,0,0,0,0,0,0,0,0,0,0,0,0,0,0,1,
scooby_state_422000|52|5 1,0,0,0,0,0,0,0,0,0,0,0,0,0,0,1,
scooby_state_44a8b6|33|13 1,0,0,0,0,0,0,0,0,0,0,0,0,0,0,1,
scooby_state_422017|56|17 1,0,0,0,0,0,0,0,0,0,0,0,0,0,0,1,
scooby_state_41fed3|59|1 1,0,0,0,0,0,0,0,0,0,0,0,0,0,0,1,
scooby_state_41bd26|53|10 1,0,0,0,0,0,0,0,0,0,0,0,0,0,0,1,
scooby_state_41bd26|6|-13 1,0,0,0,0,0,0,0,0,0,0,0,0,0,0,1,
scooby_state_439f88|62|19 1,0,0,0,0,0,0,0,0,0,0,0,0,0,0,1,
scooby_state_44a8b6|25|21 1,0,0,0,0,0,0,0,0,0,0,0,0,0,0,1,
scooby_state_44a905|49|2 0,0,0,1,0,0,0,0,0,0,0,0,0,0,0,1,
scooby_state_4176d7|5|0 1,0,0,0,0,0,0,0,0,0,0,0,0,0,0,1,
scooby_state_41bd26|17|-18 1,0,0,0,0,0,0,0,0,0,0,0,0,0,0,1,
scooby_state_412235|6|-40 1,0,0,0,0,0,0,0,0,0,0,0,0,0,0,1,
scooby_state_44a905|4|-15 1,0,0,0,0,0,0,0,0,0,0,0,0,0,0,1,
scooby_state_44a916|24|-5 1,0,0,0,0,0,0,0,0,0,0,0,0,0,0,1,
scooby_state_422017|56|23 0,0,0,0,0,0,1,0,0,0,0,0,0,0,0,1,
scooby_state_422017|29|9 0,0,0,0,0,0,0,0,0,0,0,1,0,0,0,1,
scooby_state_42200f|49|-14 1,0,0,0,0,0,0,0,0,0,0,0,0,0,0,1,
scooby_state_407c92|29|1 1,0,0,0,0,0,0,0,0,0,0,0,0,0,0,1,
scooby_state_409f98|48|7 1,0,0,0,0,0,0,0,0,0,0,0,0,0,0,1,
scooby_state_41bd26|44|37 1,0,0,0,0,0,0,0,0,0,0,0,0,0,0,1,
scooby_state_407cae|33|20 1,0,0,0,0,0,0,0,0,0,0,0,0,0,0,1,
scooby_state_4372c4|11|1 1,0,0,0,0,0,0,0,0,0,0,0,0,0,0,1,
scooby_state_422017|26|-13 0,0,0,0,0,0,0,0,0,0,0,1,0,0,0,1,
scooby_state_44a905|63|15 1,0,0,0,0,0,0,0,0,0,0,0,0,0,0,1,
scooby_state_422017|35|25 1,0,0,0,0,0,0,0,0,0,0,0,0,0,0,1,
scooby_state_422000|23|4 1,0,0,0,0,0,0,0,0,0,0,0,0,0,0,1,
scooby_state_41bd26|6|-25 0,0,0,0,1,0,0,0,0,0,0,0,0,0,0,1,
scooby_state_44a905|52|30 1,0,0,0,0,0,0,0,0,0,0,0,0,0,0,1,
scooby_state_42200f|2|-35 0,0,0,0,0,1,0,0,0,0,0,0,0,0,0,1,
scooby_state_422017|7|-35 1,0,0,0,0,0,0,0,0,0,0,0,0,0,0,1,
scooby_state_407cae|16|12 1,0,0,0,0,0,0,0,0,0,0,0,0,0,0,1,
scooby_state_41bd26|41|39 1,0,0,0,0,0,0,0,0,0,0,0,0,0,0,1,
scooby_state_407cb3|35|34 1,0,0,0,0,0,0,0,0,0,0,0,0,0,0,1,
scooby_state_44a8cb|7|-22 1,0,0,0,0,0,0,0,0,0,0,0,0,0,0,1,
scooby_state_44a905|39|-14 1,0,0,0,0,0,0,0,0,0,0,0,0,0,0,1,
scooby_state_424640|25|1 0,0,0,0,1,0,0,0,0,0,0,0,0,0,0,1,
scooby_state_41bd26|0|-22 1,0,0,0,0,0,0,0,0,0,0,0,0,0,0,1,
scooby_state_44a916|1|-59 0,0,0,1,0,0,0,0,0,0,0,0,0,0,0,1,
scooby_state_41bd26|60|1 1,0,0,0,0,0,0,0,0,0,0,0,0,0,0,1,

scooby_action_0_deg_dist 0,990,0,0,0,0,0,0,0,0,0,0,0,0,0,0,
scooby_action_12_deg_dist 0,783,5,0,1,0,0,0,0,0,0,0,0,0,0,0,
scooby_action_32_deg_dist 0,802,0,0,0,0,0,0,0,0,0,0,0,0,0,0,
scooby_action_3_deg_dist 0,1515,138,0,144,0,57,0,0,0,0,0,0,0,0,0,
scooby_action_5_deg_dist 0,3972,363,0,684,0,4901,0,0,0,0,0,0,0,0,0,
scooby_action_1_deg_dist 0,64573,33077,0,71489,0,501752,0,0,0,0,0,0,0,0,0,
scooby_action_30_deg_dist 0,530,0,0,0,0,0,0,0,0,0,0,0,0,0,0,
scooby_action_4_deg_dist 0,858,10,0,0,0,0,0,0,0,0,0,0,0,0,0,
scooby_action_-3_deg_dist 0,728,11,0,0,0,0,0,0,0,0,0,0,0,0,0,
scooby_action_10_deg_dist 0,10096,3843,0,8387,0,36586,0,0,0,0,0,0,0,0,0,
scooby_action_-1_deg_dist 0,776,10,0,0,0,0,0,0,0,0,0,0,0,0,0,
scooby_action_23_deg_dist 0,632,2,0,1,0,0,0,0,0,0,0,0,0,0,0,
scooby_action_-6_deg_dist 0,695,0,0,0,0,0,0,0,0,0,0,0,0,0,0,
scooby_action_11_deg_dist 0,665,6,0,0,0,0,0,0,0,0,0,0,0,0,0,
scooby_action_22_deg_dist 0,555,11,0,0,0,0,0,0,0,0,0,0,0,0,0,

scooby_track_called 749648
scooby_track_same_address 17409
scooby_track_evict 731983

scooby_reward_demand_called 749648
scooby_reward_demand_pt_not_found 110027
scooby_reward_demand_pt_found 639621
scooby_reward_demand_pt_found_total 639621
scooby_reward_demand_has_reward 91
scooby_reward_train_called 70854
scooby_reward_assign_reward_called 732234
scooby_reward_no_pref 990
scooby_reward_incorrect 69864
scooby_reward_correct_untimely 565176
scooby_reward_correct_timely 74354
scooby_reward_out_of_bounds 21850
scooby_reward_tracker_hit 0

scooby_reward_none_low_bw 990
scooby_reward_none_high_bw 0
scooby_reward_incorrect_low_bw 69864
scooby_reward_incorrect_high_bw 0
scooby_reward_correct_untimely_low_bw 565176
scooby_reward_correct_untimely_high_bw 0
scooby_reward_correct_timely_low_bw 74354
scooby_reward_correct_timely_high_bw 0
scooby_reward_out_of_bounds_low_bw 21850
scooby_reward_out_of_bounds_high_bw 0
scooby_reward_tracker_hit_low_bw 0
scooby_reward_tracker_hit_high_bw 0

scooby_reward_1 0,58735,529412,56410,10601,0,
scooby_reward_3 0,889,415,224,132,0,
scooby_reward_4 0,562,122,41,47,0,
scooby_reward_5 0,2118,6229,589,783,0,
scooby_reward_10 0,4319,28422,16735,8971,0,
scooby_reward_11 0,369,61,69,106,0,
scooby_reward_12 0,442,61,92,134,0,
scooby_reward_22 0,262,33,40,173,0,
scooby_reward_23 0,293,38,55,203,0,
scooby_reward_30 0,189,20,38,259,0,
scooby_reward_32 0,205,191,24,344,0,
scooby_reward_-1 0,541,67,14,19,0,
scooby_reward_-3 0,482,59,13,34,0,
scooby_reward_-6 0,458,46,10,44,0,
scooby_reward_0 990,0,0,0,0,0,

scooby_train_called 731982
scooby_train_compute_reward 70854

scooby_register_fill_called 657695
scooby_register_fill_set 100701
scooby_register_fill_set_total 100701

scooby_register_prefetch_hit_called 2376188
scooby_register_prefetch_hit_set 660839
scooby_register_prefetch_hit_set_total 660839

scooby_pref_issue_scooby 3301816

learning_engine_featurewise.action.called 749648
learning_engine_featurewise.action.explore 1360
learning_engine_featurewise.action.exploit 748288
learning_engine_featurewise.action.fallback 0
learning_engine_featurewise.action.dyn_fallback_saved_bw 0
learning_engine_featurewise.action.dyn_fallback_saved_bw_acc 1909
learning_engine_featurewise.action.index_1_explored 87
learning_engine_featurewise.action.index_1_exploited 670804
learning_engine_featurewise.action.index_3_explored 92
learning_engine_featurewise.action.index_3_exploited 1762
learning_engine_featurewise.action.index_4_explored 91
learning_engine_featurewise.action.index_4_exploited 777
learning_engine_featurewise.action.index_5_explored 94
learning_engine_featurewise.action.index_5_exploited 9826
learning_engine_featurewise.action.index_10_explored 99
learning_engine_featurewise.action.index_10_exploited 58813
learning_engine_featurewise.action.index_11_explored 88
learning_engine_featurewise.action.index_11_exploited 583
learning_engine_featurewise.action.index_12_explored 99
learning_engine_featurewise.action.index_12_exploited 690
learning_engine_featurewise.action.index_22_explored 94
learning_engine_featurewise.action.index_22_exploited 472
learning_engine_featurewise.action.index_23_explored 89
learning_engine_featurewise.action.index_23_exploited 546
learning_engine_featurewise.action.index_30_explored 105
learning_engine_featurewise.action.index_30_exploited 425
learning_engine_featurewise.action.index_32_explored 74
learning_engine_featurewise.action.index_32_exploited 728
learning_engine_featurewise.action.index_-1_explored 94
learning_engine_featurewise.action.index_-1_exploited 692
learning_engine_featurewise.action.index_-3_explored 88
learning_engine_featurewise.action.index_-3_exploited 651
learning_engine_featurewise.action.index_-6_explored 77
learning_engine_featurewise.action.index_-6_exploited 618
learning_engine_featurewise.action.index_0_explored 89
learning_engine_featurewise.action.index_0_exploited 901
learning_engine_featurewise.learn.called 731982
learning_engine_featurewise.learn.su_skip_PC 0
learning_engine_featurewise.learn.su_skip_PC_Delta 0

learning_engine_featurewise.q_value_histogram.bucket_0 0
learning_engine_featurewise.q_value_histogram.bucket_1 0
learning_engine_featurewise.q_value_histogram.bucket_2 0
learning_engine_featurewise.q_value_histogram.bucket_3 6260
learning_engine_featurewise.q_value_histogram.bucket_4 20389
learning_engine_featurewise.q_value_histogram.bucket_5 31130
learning_engine_featurewise.q_value_histogram.bucket_6 690509
learning_engine_featurewise.q_value_histogram.bucket_7 0

learning_engine_featurewise.consensus.total 748288
learning_engine_featurewise.consensus.feature_align_PC 720980
learning_engine_featurewise.consensus.feature_align_PC_ratio 0.96
learning_engine_featurewise.consensus.feature_align_PC_Delta 738128
learning_engine_featurewise.consensus.feature_align_PC_Delta_ratio 0.99
learning_engine_featurewise.consensus.feature_align_all 710820
learning_engine_featurewise.consensus.feature_align_all_ratio 0.95

learning_engine_featurewise.feature_PC_min_weight 1000000.00000000
learning_engine_featurewise.feature_PC_max_weight 0.00000000
learning_engine_featurewise.feature_PC_Delta_min_weight 1000000.00000000
learning_engine_featurewise.feature_PC_Delta_max_weight 0.00000000
unique_pcs 999
unique_pages 2322
unique_trigger_pcs 350
total_bitmaps_seen 0
unique_bitmaps_seen 0

scooby_bw_epochs 150666
scooby_bw_level_0 107633
scooby_bw_level_1 19863
scooby_bw_level_2 22009
scooby_bw_level_3 1161

scooby_ipc_epochs 0
scooby_ipc_level_0 0
scooby_ipc_level_1 0
scooby_ipc_level_2 0
scooby_ipc_level_3 0

scooby_cache_acc_epochs 37644
scooby_cache_acc_level_0 6298
scooby_cache_acc_level_1 313
scooby_cache_acc_level_2 331
scooby_cache_acc_level_3 391
scooby_cache_acc_level_4 807
scooby_cache_acc_level_5 847
scooby_cache_acc_level_6 971
scooby_cache_acc_level_7 1127
scooby_cache_acc_level_8 1816
scooby_cache_acc_level_9 24743

Channel_0_RQ_row_buffer_hit 183966
Channel_0_RQ_row_buffer_miss 60210
Channel_0_WQ_row_buffer_hit 845
Channel_0_WQ_row_buffer_miss 1163
Channel_0_WQ_full 0
Channel_0_dbus_congested 56544

avg_congested_cycle 8

DRAM_bw_pochs 150666
DRAM_bw_level_0 107633
DRAM_bw_level_1 19863
DRAM_bw_level_2 22009
DRAM_bw_level_3 1161
