*************************************************
   ChampSim Multicore Out-of-Order Simulator
   Last compiled: Apr  3 2025 20:54:34
*************************************************
parsing config file: /home/zir/Pythia/config/pythia.ini

trace_0 /home/zir/ChampSim/ML-DPC/ChampSimTraces/spec17/649.fotonik3d-s2.trace.xz
adding L2C_PREFETCHER: Scooby
Initialize SHIP state
warmup_instructions 10000000
simulation_instructions 50000000
champsim_seed 165
measure_ipc 0
measure_ipc_epoch 1000
measure_dram_bw 1
measure_dram_bw_epoch 256
measure_cache_acc 1
measure_cache_acc_epoch 1024
l1d_perfect 0
l2c_perfect 0
llc_perfect 0
l1d_semi_perfect 0
l2c_semi_perfect 0
llc_semi_perfect 0
semi_perfect_cache_page_buffer_size 64

num_cpus 1
cpu_freq 4000
dram_io_freq 2400
page_size 4096
block_size 64
max_read_per_cycle 8
max_fill_per_cycle 1
dram_channels 1
log2_dram_channels 0
dram_ranks 1
dram_banks 8
dram_rows 65536
dram_columns 128
dram_row_size 8
dram_size 4096
dram_pages 1048576

fetch_width 6
decode_width 6
exec_width 4
lq_width 2
sq_width 2
retire_width 4
scheduler_size 128
branch_mispredict_penalty 20
rob_size 256
lq_size 72
sq_size 56
num_instr_destinations_sparc 4
num_instr_destinations 2
num_instr_sources 4

itlb_set 16
itlb_way 8
itlb_rq_size 16
itlb_wq_size 16
itlb_pq_size 0
itlb_mshr_size 8
itlb_latency 1

dtlb_set 16
dtlb_way 4
dtlb_rq_size 16
dtlb_wq_size 16
dtlb_pq_size 0
dtlb_mshr_size 8
dtlb_latency 1

stlb_set 128
stlb_way 12
stlb_rq_size 32
stlb_wq_size 32
stlb_pq_size 0
stlb_mshr_size 16
stlb_latency 8

l1i_size 32
l1i_set 64
l1i_way 8
l1i_rq_size 64
l1i_wq_size 64
l1i_pq_size 8
l1i_mshr_size 8
l1i_latency 1

l1d_size 32
l1d_set 64
l1d_way 8
l1d_rq_size 64
l1d_wq_size 64
l1d_pq_size 8
l1d_mshr_size 16
l1d_latency 4

l2c_size 256
l2c_set 512
l2c_way 8
l2c_rq_size 32
l2c_wq_size 32
l2c_pq_size 32
l2c_mshr_size 32
l2c_latency 10

llc_size 2048
llc_set 2048
llc_way 16
llc_rq_size 32
llc_wq_size 32
llc_pq_size 32
llc_mshr_size 64
llc_latency 20

dram_channel_width 8
dram_wq_size 64
dram_rq_size 64
tRP 15
tRCD 15
tCAS 12.5
dram_dbus_turn_around_time 30
dram_write_high_wm 56
dram_write_low_wm 48
min_dram_writes_per_switch 16
dram_mtps 2400
dram_dbus_return_time 13

scooby_alpha 0.0065088
scooby_gamma 0.556301
scooby_epsilon 0.00182284
scooby_state_num_bits 10
scooby_max_states 1024
scooby_seed 200
scooby_policy EGreedy
scooby_learning_type SARSA
scooby_actions 1,3,4,5,10,11,12,22,23,30,32,-1,-3,-6,0,
scooby_max_actions 15
scooby_pt_size 256
scooby_st_size 64
scooby_max_pcs 5
scooby_max_offsets 5
scooby_max_deltas 5
scooby_reward_none -4
scooby_reward_incorrect -8
scooby_reward_correct_untimely 12
scooby_reward_correct_timely 20
scooby_brain_zero_init 0
scooby_enable_reward_all 0
scooby_enable_track_multiple 0
scooby_enable_reward_out_of_bounds 1
scooby_reward_out_of_bounds -12
scooby_state_type 1
scooby_state_hash_type 11
scooby_access_debug 0
scooby_print_access_debug 0
scooby_print_access_debug_pc deadbeef
scooby_print_access_debug_pc_count 0
scooby_print_trace 0
scooby_enable_state_action_stats 1
scooby_enable_reward_tracker_hit 0
scooby_reward_tracker_hit -2
scooby_enable_featurewise_engine 1
scooby_pref_degree 1
scooby_enable_dyn_degree 1
scooby_max_to_avg_q_thresholds 0.5,1,2,
scooby_dyn_degrees 1,2,4,4,
scooby_multi_deg_select_type 2
scooby_last_pref_offset_conf_thresholds 1,3,8,
scooby_dyn_degrees_type2 1,2,4,6,
scooby_action_tracker_size 2
scooby_high_bw_thresh 4
scooby_enable_hbw_reward 1
scooby_reward_hbw_correct_timely 20
scooby_reward_hbw_correct_untimely 12
scooby_reward_hbw_incorrect -14
scooby_reward_hbw_none -2
scooby_reward_hbw_out_of_bounds -12
scooby_reward_hbw_tracker_hit -2
scooby_last_pref_offset_conf_thresholds_hbw 1,3,8,
scooby_dyn_degrees_type2_hbw 1,2,4,6,

le_enable_trace 0
le_trace_interval 0
le_trace_file_name 
le_trace_state 0
le_enable_score_plot 0
le_plot_file_name 
le_plot_actions 
le_enable_action_trace 0
le_action_trace_interval 0
le_action_trace_name 
le_enable_action_plot 0

le_featurewise_active_features PC, PC_Delta
le_featurewise_num_tilings 3,3,
le_featurewise_num_tiles 128,128,
le_featurewise_hash_types 2,2,
le_featurewise_enable_tiling_offset 1,1,
le_featurewise_max_q_thresh 0.5
le_featurewise_enable_action_fallback 1
le_featurewise_feature_weights 1,1,
le_featurewise_enable_dynamic_weight 0
le_featurewise_weight_gradient 0.001
le_featurewise_disable_adjust_weight_all_features_align 1
le_featurewise_selective_update 0
le_featurewise_pooling_type 2
le_featurewise_enable_dyn_action_fallback 1
le_featurewise_bw_acc_check_level 1
le_featurewise_acc_thresh 2
le_featurewise_enable_trace 0
le_featurewise_trace_feature_type 0
le_featurewise_trace_feature 
le_featurewise_trace_interval 0
le_featurewise_trace_record_count 0
le_featurewise_trace_file_name 
le_featurewise_enable_score_plot 0
le_featurewise_plot_actions 
le_featurewise_plot_file_name 


Heartbeat CPU  0 instructions:    1000000 cycles:     498978 heartbeat IPC: 2.00410 cumulative IPC: 2.00410 (Simulation time: 0 hr 0 min 2 sec) 
Heartbeat CPU  0 instructions:    2000000 cycles:     989734 heartbeat IPC: 2.03767 cumulative IPC: 2.02075 (Simulation time: 0 hr 0 min 3 sec) 
Heartbeat CPU  0 instructions:    3000000 cycles:    1480881 heartbeat IPC: 2.03605 cumulative IPC: 2.02582 (Simulation time: 0 hr 0 min 5 sec) 
Heartbeat CPU  0 instructions:    4000000 cycles:    1971668 heartbeat IPC: 2.03754 cumulative IPC: 2.02874 (Simulation time: 0 hr 0 min 7 sec) 
Heartbeat CPU  0 instructions:    5000000 cycles:    2462415 heartbeat IPC: 2.03771 cumulative IPC: 2.03053 (Simulation time: 0 hr 0 min 8 sec) 
Heartbeat CPU  0 instructions:    6000000 cycles:    2953501 heartbeat IPC: 2.03630 cumulative IPC: 2.03149 (Simulation time: 0 hr 0 min 10 sec) 
Heartbeat CPU  0 instructions:    7000003 cycles:    3444429 heartbeat IPC: 2.03696 cumulative IPC: 2.03227 (Simulation time: 0 hr 0 min 11 sec) 
Heartbeat CPU  0 instructions:    8000000 cycles:    3935290 heartbeat IPC: 2.03723 cumulative IPC: 2.03289 (Simulation time: 0 hr 0 min 13 sec) 
Heartbeat CPU  0 instructions:    9000000 cycles:    4426523 heartbeat IPC: 2.03569 cumulative IPC: 2.03320 (Simulation time: 0 hr 0 min 14 sec) 
Heartbeat CPU  0 instructions:   10000000 cycles:    4917165 heartbeat IPC: 2.03815 cumulative IPC: 2.03369 (Simulation time: 0 hr 0 min 16 sec) 

Warmup complete CPU  0 instructions:   10000004 cycles:    4917166 (Simulation time: 0 hr 0 min 16 sec) 

Heartbeat CPU  0 instructions:   11000003 cycles:    6758684 heartbeat IPC: 0.54303 cumulative IPC: 0.54303 (Simulation time: 0 hr 0 min 18 sec) 
Heartbeat CPU  0 instructions:   12000000 cycles:    8599973 heartbeat IPC: 0.54310 cumulative IPC: 0.54306 (Simulation time: 0 hr 0 min 20 sec) 
Heartbeat CPU  0 instructions:   13000002 cycles:   10441763 heartbeat IPC: 0.54295 cumulative IPC: 0.54303 (Simulation time: 0 hr 0 min 23 sec) 
Heartbeat CPU  0 instructions:   14000002 cycles:   12282643 heartbeat IPC: 0.54322 cumulative IPC: 0.54307 (Simulation time: 0 hr 0 min 25 sec) 
Heartbeat CPU  0 instructions:   15000000 cycles:   14123533 heartbeat IPC: 0.54321 cumulative IPC: 0.54310 (Simulation time: 0 hr 0 min 27 sec) 
Heartbeat CPU  0 instructions:   16000000 cycles:   15964831 heartbeat IPC: 0.54310 cumulative IPC: 0.54310 (Simulation time: 0 hr 0 min 30 sec) 
Heartbeat CPU  0 instructions:   17000000 cycles:   17805994 heartbeat IPC: 0.54313 cumulative IPC: 0.54311 (Simulation time: 0 hr 0 min 32 sec) 
Heartbeat CPU  0 instructions:   18000001 cycles:   19647090 heartbeat IPC: 0.54316 cumulative IPC: 0.54311 (Simulation time: 0 hr 0 min 34 sec) 
Heartbeat CPU  0 instructions:   19000000 cycles:   21488588 heartbeat IPC: 0.54304 cumulative IPC: 0.54310 (Simulation time: 0 hr 0 min 36 sec) 
Heartbeat CPU  0 instructions:   20000000 cycles:   23329925 heartbeat IPC: 0.54308 cumulative IPC: 0.54310 (Simulation time: 0 hr 0 min 39 sec) 
Heartbeat CPU  0 instructions:   21000000 cycles:   25170375 heartbeat IPC: 0.54335 cumulative IPC: 0.54312 (Simulation time: 0 hr 0 min 41 sec) 
Heartbeat CPU  0 instructions:   22000002 cycles:   27012232 heartbeat IPC: 0.54293 cumulative IPC: 0.54311 (Simulation time: 0 hr 0 min 43 sec) 
Heartbeat CPU  0 instructions:   23000001 cycles:   28854353 heartbeat IPC: 0.54285 cumulative IPC: 0.54309 (Simulation time: 0 hr 0 min 45 sec) 
Heartbeat CPU  0 instructions:   24000000 cycles:   30695697 heartbeat IPC: 0.54308 cumulative IPC: 0.54309 (Simulation time: 0 hr 0 min 48 sec) 
Heartbeat CPU  0 instructions:   25000000 cycles:   32537773 heartbeat IPC: 0.54287 cumulative IPC: 0.54307 (Simulation time: 0 hr 0 min 50 sec) 
Heartbeat CPU  0 instructions:   26000003 cycles:   34378221 heartbeat IPC: 0.54335 cumulative IPC: 0.54309 (Simulation time: 0 hr 0 min 52 sec) 
Heartbeat CPU  0 instructions:   27000003 cycles:   36220237 heartbeat IPC: 0.54288 cumulative IPC: 0.54308 (Simulation time: 0 hr 0 min 54 sec) 
Heartbeat CPU  0 instructions:   28000000 cycles:   38060989 heartbeat IPC: 0.54325 cumulative IPC: 0.54309 (Simulation time: 0 hr 0 min 57 sec) 
Heartbeat CPU  0 instructions:   29000000 cycles:   39902469 heartbeat IPC: 0.54304 cumulative IPC: 0.54309 (Simulation time: 0 hr 0 min 59 sec) 
Heartbeat CPU  0 instructions:   30000000 cycles:   41743757 heartbeat IPC: 0.54310 cumulative IPC: 0.54309 (Simulation time: 0 hr 1 min 1 sec) 
Heartbeat CPU  0 instructions:   31000003 cycles:   43585099 heartbeat IPC: 0.54308 cumulative IPC: 0.54309 (Simulation time: 0 hr 1 min 4 sec) 
Heartbeat CPU  0 instructions:   32000000 cycles:   45426244 heartbeat IPC: 0.54314 cumulative IPC: 0.54309 (Simulation time: 0 hr 1 min 6 sec) 
Heartbeat CPU  0 instructions:   33000000 cycles:   47267636 heartbeat IPC: 0.54307 cumulative IPC: 0.54309 (Simulation time: 0 hr 1 min 8 sec) 
Heartbeat CPU  0 instructions:   34000002 cycles:   49108625 heartbeat IPC: 0.54319 cumulative IPC: 0.54309 (Simulation time: 0 hr 1 min 10 sec) 
Heartbeat CPU  0 instructions:   35000003 cycles:   50949916 heartbeat IPC: 0.54310 cumulative IPC: 0.54309 (Simulation time: 0 hr 1 min 13 sec) 
Heartbeat CPU  0 instructions:   36000000 cycles:   52791321 heartbeat IPC: 0.54306 cumulative IPC: 0.54309 (Simulation time: 0 hr 1 min 15 sec) 
Heartbeat CPU  0 instructions:   37000000 cycles:   54633358 heartbeat IPC: 0.54288 cumulative IPC: 0.54308 (Simulation time: 0 hr 1 min 17 sec) 
Heartbeat CPU  0 instructions:   38000000 cycles:   56474345 heartbeat IPC: 0.54319 cumulative IPC: 0.54309 (Simulation time: 0 hr 1 min 19 sec) 
Heartbeat CPU  0 instructions:   39000000 cycles:   58316415 heartbeat IPC: 0.54287 cumulative IPC: 0.54308 (Simulation time: 0 hr 1 min 22 sec) 
Heartbeat CPU  0 instructions:   40000000 cycles:   60156968 heartbeat IPC: 0.54331 cumulative IPC: 0.54309 (Simulation time: 0 hr 1 min 24 sec) 
Heartbeat CPU  0 instructions:   41000003 cycles:   61998542 heartbeat IPC: 0.54302 cumulative IPC: 0.54308 (Simulation time: 0 hr 1 min 26 sec) 
Heartbeat CPU  0 instructions:   42000000 cycles:   63839186 heartbeat IPC: 0.54329 cumulative IPC: 0.54309 (Simulation time: 0 hr 1 min 28 sec) 
Heartbeat CPU  0 instructions:   43000002 cycles:   65680949 heartbeat IPC: 0.54296 cumulative IPC: 0.54309 (Simulation time: 0 hr 1 min 31 sec) 
Heartbeat CPU  0 instructions:   44000000 cycles:   67521861 heartbeat IPC: 0.54321 cumulative IPC: 0.54309 (Simulation time: 0 hr 1 min 33 sec) 
Heartbeat CPU  0 instructions:   45000002 cycles:   69363178 heartbeat IPC: 0.54309 cumulative IPC: 0.54309 (Simulation time: 0 hr 1 min 35 sec) 
Heartbeat CPU  0 instructions:   46000002 cycles:   71204319 heartbeat IPC: 0.54314 cumulative IPC: 0.54309 (Simulation time: 0 hr 1 min 38 sec) 
Heartbeat CPU  0 instructions:   47000000 cycles:   73045215 heartbeat IPC: 0.54321 cumulative IPC: 0.54309 (Simulation time: 0 hr 1 min 40 sec) 
Heartbeat CPU  0 instructions:   48000000 cycles:   74886247 heartbeat IPC: 0.54317 cumulative IPC: 0.54310 (Simulation time: 0 hr 1 min 42 sec) 
Heartbeat CPU  0 instructions:   49000002 cycles:   76728008 heartbeat IPC: 0.54296 cumulative IPC: 0.54309 (Simulation time: 0 hr 1 min 44 sec) 
Heartbeat CPU  0 instructions:   50000002 cycles:   78569243 heartbeat IPC: 0.54311 cumulative IPC: 0.54309 (Simulation time: 0 hr 1 min 47 sec) 
Heartbeat CPU  0 instructions:   51000003 cycles:   80411167 heartbeat IPC: 0.54291 cumulative IPC: 0.54309 (Simulation time: 0 hr 1 min 49 sec) 
Heartbeat CPU  0 instructions:   52000000 cycles:   82251852 heartbeat IPC: 0.54327 cumulative IPC: 0.54309 (Simulation time: 0 hr 1 min 51 sec) 
Heartbeat CPU  0 instructions:   53000003 cycles:   84093229 heartbeat IPC: 0.54307 cumulative IPC: 0.54309 (Simulation time: 0 hr 1 min 53 sec) 
Heartbeat CPU  0 instructions:   54000000 cycles:   85933330 heartbeat IPC: 0.54345 cumulative IPC: 0.54310 (Simulation time: 0 hr 1 min 56 sec) 
Heartbeat CPU  0 instructions:   55000002 cycles:   87774711 heartbeat IPC: 0.54307 cumulative IPC: 0.54310 (Simulation time: 0 hr 1 min 58 sec) 
Heartbeat CPU  0 instructions:   56000000 cycles:   89615661 heartbeat IPC: 0.54320 cumulative IPC: 0.54310 (Simulation time: 0 hr 2 min 0 sec) 
Heartbeat CPU  0 instructions:   57000002 cycles:   91457914 heartbeat IPC: 0.54281 cumulative IPC: 0.54310 (Simulation time: 0 hr 2 min 2 sec) 
Heartbeat CPU  0 instructions:   58000001 cycles:   93298635 heartbeat IPC: 0.54326 cumulative IPC: 0.54310 (Simulation time: 0 hr 2 min 5 sec) 
Heartbeat CPU  0 instructions:   59000001 cycles:   95140346 heartbeat IPC: 0.54297 cumulative IPC: 0.54310 (Simulation time: 0 hr 2 min 7 sec) 
Heartbeat CPU  0 instructions:   60000000 cycles:   96981670 heartbeat IPC: 0.54309 cumulative IPC: 0.54310 (Simulation time: 0 hr 2 min 9 sec) 
Finished CPU 0 instructions: 50000000 cycles: 92064521 cumulative IPC: 0.54310 (Simulation time: 0 hr 2 min 9 sec) 

ChampSim completed all CPUs

[ROI Statistics]
Core_0_instructions 50000000
Core_0_cycles 92064521
Core_0_IPC 0.54310

Core_0_branch_prediction_accuracy 99.69579
Core_0_branch_MPKI 0.58418
Core_0_average_ROB_occupancy_at_mispredict 252.20590

Core_0_L1D_total_access 16061941
Core_0_L1D_total_hit 16059102
Core_0_L1D_total_miss 2839
Core_0_L1D_loads 7902731
Core_0_L1D_load_hit 7902628
Core_0_L1D_load_miss 103
Core_0_L1D_RFOs 8159210
Core_0_L1D_RFO_hit 8156474
Core_0_L1D_RFO_miss 2736
Core_0_L1D_prefetches 0
Core_0_L1D_prefetch_hit 0
Core_0_L1D_prefetch_miss 0
Core_0_L1D_writebacks 0
Core_0_L1D_writeback_hit 0
Core_0_L1D_writeback_miss 0
Core_0_L1D_prefetch_requested 0
Core_0_L1D_prefetch_dropped 0
Core_0_L1D_prefetch_issued 0
Core_0_L1D_prefetch_filled 0
Core_0_L1D_prefetch_useful 0
Core_0_L1D_prefetch_useless 0
Core_0_L1D_prefetch_late 0
Core_0_L1D_average_miss_latency 121.20324

Core_0_L1D_rq_access 9807398
Core_0_L1D_rq_forward 0
Core_0_L1D_rq_merged 1904664
Core_0_L1D_rq_to_cache 7902734
Core_0_L1D_rq_full 0

Core_0_L1D_wq_access 8369134
Core_0_L1D_wq_forward 0
Core_0_L1D_wq_merged 209923
Core_0_L1D_wq_to_cache 8159211
Core_0_L1D_wq_full 0

Core_0_L1D_pq_access 0
Core_0_L1D_pq_forward 0
Core_0_L1D_pq_merged 0
Core_0_L1D_pq_to_cache 0
Core_0_L1D_pq_full 0

Core_0_L1D_acc_epochs 94689
Core_0_L1D_acc_level_0 94689
Core_0_L1D_acc_level_1 0
Core_0_L1D_acc_level_2 0
Core_0_L1D_acc_level_3 0
Core_0_L1D_acc_level_4 0
Core_0_L1D_acc_level_5 0
Core_0_L1D_acc_level_6 0
Core_0_L1D_acc_level_7 0
Core_0_L1D_acc_level_8 0
Core_0_L1D_acc_level_9 0

Core_0_L1I_total_access 19114595
Core_0_L1I_total_hit 19114595
Core_0_L1I_total_miss 0
Core_0_L1I_loads 19114595
Core_0_L1I_load_hit 19114595
Core_0_L1I_load_miss 0
Core_0_L1I_RFOs 0
Core_0_L1I_RFO_hit 0
Core_0_L1I_RFO_miss 0
Core_0_L1I_prefetches 0
Core_0_L1I_prefetch_hit 0
Core_0_L1I_prefetch_miss 0
Core_0_L1I_writebacks 0
Core_0_L1I_writeback_hit 0
Core_0_L1I_writeback_miss 0
Core_0_L1I_prefetch_requested 0
Core_0_L1I_prefetch_dropped 0
Core_0_L1I_prefetch_issued 0
Core_0_L1I_prefetch_filled 0
Core_0_L1I_prefetch_useful 0
Core_0_L1I_prefetch_useless 0
Core_0_L1I_prefetch_late 0
Core_0_L1I_average_miss_latency -nan

Core_0_L1I_rq_access 50000008
Core_0_L1I_rq_forward 0
Core_0_L1I_rq_merged 30885413
Core_0_L1I_rq_to_cache 19114595
Core_0_L1I_rq_full 0

Core_0_L1I_wq_access 0
Core_0_L1I_wq_forward 0
Core_0_L1I_wq_merged 0
Core_0_L1I_wq_to_cache 0
Core_0_L1I_wq_full 0

Core_0_L1I_pq_access 0
Core_0_L1I_pq_forward 0
Core_0_L1I_pq_merged 0
Core_0_L1I_pq_to_cache 0
Core_0_L1I_pq_full 0

Core_0_L1I_acc_epochs 94689
Core_0_L1I_acc_level_0 94689
Core_0_L1I_acc_level_1 0
Core_0_L1I_acc_level_2 0
Core_0_L1I_acc_level_3 0
Core_0_L1I_acc_level_4 0
Core_0_L1I_acc_level_5 0
Core_0_L1I_acc_level_6 0
Core_0_L1I_acc_level_7 0
Core_0_L1I_acc_level_8 0
Core_0_L1I_acc_level_9 0

Core_0_L2C_total_access 5580
Core_0_L2C_total_hit 2843
Core_0_L2C_total_miss 2737
Core_0_L2C_loads 103
Core_0_L2C_load_hit 102
Core_0_L2C_load_miss 1
Core_0_L2C_RFOs 2736
Core_0_L2C_RFO_hit 0
Core_0_L2C_RFO_miss 2736
Core_0_L2C_prefetches 6
Core_0_L2C_prefetch_hit 6
Core_0_L2C_prefetch_miss 0
Core_0_L2C_writebacks 2735
Core_0_L2C_writeback_hit 2735
Core_0_L2C_writeback_miss 0
Core_0_L2C_prefetch_requested 1273
Core_0_L2C_prefetch_dropped 0
Core_0_L2C_prefetch_issued 1273
Core_0_L2C_prefetch_filled 412
Core_0_L2C_prefetch_useful 214
Core_0_L2C_prefetch_useless 122
Core_0_L2C_prefetch_late 4
Core_0_L2C_average_miss_latency 111.19839

Core_0_L2C_rq_access 2839
Core_0_L2C_rq_forward 0
Core_0_L2C_rq_merged 0
Core_0_L2C_rq_to_cache 2839
Core_0_L2C_rq_full 0

Core_0_L2C_wq_access 2735
Core_0_L2C_wq_forward 0
Core_0_L2C_wq_merged 0
Core_0_L2C_wq_to_cache 2735
Core_0_L2C_wq_full 0

Core_0_L2C_pq_access 1273
Core_0_L2C_pq_forward 0
Core_0_L2C_pq_merged 122
Core_0_L2C_pq_to_cache 1151
Core_0_L2C_pq_full 0

Core_0_L2C_acc_epochs 94689
Core_0_L2C_acc_level_0 94411
Core_0_L2C_acc_level_1 95
Core_0_L2C_acc_level_2 90
Core_0_L2C_acc_level_3 5
Core_0_L2C_acc_level_4 0
Core_0_L2C_acc_level_5 85
Core_0_L2C_acc_level_6 1
Core_0_L2C_acc_level_7 1
Core_0_L2C_acc_level_8 0
Core_0_L2C_acc_level_9 1

Core_0_LLC_total_access 2906
Core_0_LLC_total_hit 170
Core_0_LLC_total_miss 2736
Core_0_LLC_loads 1
Core_0_LLC_load_hit 1
Core_0_LLC_load_miss 0
Core_0_LLC_RFOs 2736
Core_0_LLC_RFO_hit 0
Core_0_LLC_RFO_miss 2736
Core_0_LLC_prefetches 0
Core_0_LLC_prefetch_hit 0
Core_0_LLC_prefetch_miss 0
Core_0_LLC_writebacks 169
Core_0_LLC_writeback_hit 169
Core_0_LLC_writeback_miss 0
Core_0_LLC_prefetch_requested 0
Core_0_LLC_prefetch_dropped 0
Core_0_LLC_prefetch_issued 0
Core_0_LLC_prefetch_filled 416
Core_0_LLC_prefetch_useful 1
Core_0_LLC_prefetch_useless 0
Core_0_LLC_prefetch_late 0
Core_0_LLC_average_miss_latency 81.22807

Core_0_LLC_rq_access 2737
Core_0_LLC_rq_forward 0
Core_0_LLC_rq_merged 0
Core_0_LLC_rq_to_cache 2737
Core_0_LLC_rq_full 0

Core_0_LLC_wq_access 169
Core_0_LLC_wq_forward 0
Core_0_LLC_wq_merged 0
Core_0_LLC_wq_to_cache 169
Core_0_LLC_wq_full 0

Core_0_LLC_pq_access 416
Core_0_LLC_pq_forward 0
Core_0_LLC_pq_merged 0
Core_0_LLC_pq_to_cache 416
Core_0_LLC_pq_full 0

Core_0_LLC_acc_epochs 94709
Core_0_LLC_acc_level_0 94709
Core_0_LLC_acc_level_1 0
Core_0_LLC_acc_level_2 0
Core_0_LLC_acc_level_3 0
Core_0_LLC_acc_level_4 0
Core_0_LLC_acc_level_5 0
Core_0_LLC_acc_level_6 0
Core_0_LLC_acc_level_7 0
Core_0_LLC_acc_level_8 0
Core_0_LLC_acc_level_9 0

Core_0_major_page_fault 0
Core_0_minor_page_fault 300

scooby_st_lookup 482
scooby_st_hit 437
scooby_st_evict 0
scooby_st_insert 45
scooby_st_streaming 0

scooby_predict_called 482
scooby_predict_out_of_bounds 5
scooby_predict_action_1 465
scooby_predict_issue_action_1 363
scooby_predict_hit_action_1 102
scooby_predict_out_of_bounds_action_1 4
scooby_predict_action_3 12
scooby_predict_issue_action_3 0
scooby_predict_hit_action_3 12
scooby_predict_out_of_bounds_action_3 1
scooby_predict_action_4 0
scooby_predict_issue_action_4 0
scooby_predict_hit_action_4 0
scooby_predict_out_of_bounds_action_4 0
scooby_predict_action_5 0
scooby_predict_issue_action_5 0
scooby_predict_hit_action_5 0
scooby_predict_out_of_bounds_action_5 0
scooby_predict_action_10 0
scooby_predict_issue_action_10 0
scooby_predict_hit_action_10 0
scooby_predict_out_of_bounds_action_10 0
scooby_predict_action_11 0
scooby_predict_issue_action_11 0
scooby_predict_hit_action_11 0
scooby_predict_out_of_bounds_action_11 0
scooby_predict_action_12 0
scooby_predict_issue_action_12 0
scooby_predict_hit_action_12 0
scooby_predict_out_of_bounds_action_12 0
scooby_predict_action_22 0
scooby_predict_issue_action_22 0
scooby_predict_hit_action_22 0
scooby_predict_out_of_bounds_action_22 0
scooby_predict_action_23 0
scooby_predict_issue_action_23 0
scooby_predict_hit_action_23 0
scooby_predict_out_of_bounds_action_23 0
scooby_predict_action_30 0
scooby_predict_issue_action_30 0
scooby_predict_hit_action_30 0
scooby_predict_out_of_bounds_action_30 0
scooby_predict_action_32 0
scooby_predict_issue_action_32 0
scooby_predict_hit_action_32 0
scooby_predict_out_of_bounds_action_32 0
scooby_predict_action_-1 0
scooby_predict_issue_action_-1 0
scooby_predict_hit_action_-1 0
scooby_predict_out_of_bounds_action_-1 0
scooby_predict_action_-3 0
scooby_predict_issue_action_-3 0
scooby_predict_hit_action_-3 0
scooby_predict_out_of_bounds_action_-3 0
scooby_predict_action_-6 0
scooby_predict_issue_action_-6 0
scooby_predict_hit_action_-6 0
scooby_predict_out_of_bounds_action_-6 0
scooby_predict_action_0 0
scooby_predict_issue_action_0 0
scooby_predict_hit_action_0 0
scooby_predict_out_of_bounds_action_0 0
scooby_predict_multi_deg_called 252
scooby_predict_predicted 1273
scooby_predict_multi_deg 910
scooby_predict_multi_deg_2 247
scooby_predict_multi_deg_3 201
scooby_predict_multi_deg_4 196
scooby_predict_multi_deg_5 134
scooby_predict_multi_deg_6 132
scooby_predict_multi_deg_7 0
scooby_predict_multi_deg_8 0
scooby_predict_multi_deg_9 0
scooby_predict_multi_deg_10 0
scooby_predict_multi_deg_11 0
scooby_predict_multi_deg_12 0
scooby_predict_multi_deg_13 0
scooby_predict_multi_deg_14 0
scooby_predict_multi_deg_15 0
scooby_predict_multi_deg_16 0

scooby_selected_deg_1 111
scooby_selected_deg_2 43
scooby_selected_deg_3 0
scooby_selected_deg_4 67
scooby_selected_deg_5 0
scooby_selected_deg_6 142
scooby_selected_deg_7 0
scooby_selected_deg_8 0
scooby_selected_deg_9 0
scooby_selected_deg_10 0
scooby_selected_deg_11 0
scooby_selected_deg_12 0
scooby_selected_deg_13 0
scooby_selected_deg_14 0
scooby_selected_deg_15 0
scooby_selected_deg_16 0

scooby_state_4f59dc|50|2 6,0,0,0,0,0,0,0,0,0,0,0,0,0,0,6,
scooby_state_4f59b9|50|2 6,0,0,0,0,0,0,0,0,0,0,0,0,0,0,6,
scooby_state_4f5940|48|-2 5,0,0,0,0,0,0,0,0,0,0,0,0,0,0,5,
scooby_state_4f59e3|50|2 5,0,0,0,0,0,0,0,0,0,0,0,0,0,0,5,
scooby_state_4f59b2|50|2 5,0,0,0,0,0,0,0,0,0,0,0,0,0,0,5,
scooby_state_4f5940|50|2 4,0,0,0,0,0,0,0,0,0,0,0,0,0,0,4,
scooby_state_4f59b9|48|-2 4,0,0,0,0,0,0,0,0,0,0,0,0,0,0,4,
scooby_state_4f59b2|48|-2 0,3,0,0,0,0,0,0,0,0,0,0,0,0,0,3,
scooby_state_4f59b9|12|1 2,0,0,0,0,0,0,0,0,0,0,0,0,0,0,2,
scooby_state_4f5940|59|1 2,0,0,0,0,0,0,0,0,0,0,0,0,0,0,2,
scooby_state_4f59b2|20|1 2,0,0,0,0,0,0,0,0,0,0,0,0,0,0,2,
scooby_state_4f5940|54|1 2,0,0,0,0,0,0,0,0,0,0,0,0,0,0,2,
scooby_state_4f59e3|60|1 2,0,0,0,0,0,0,0,0,0,0,0,0,0,0,2,
scooby_state_4f59b2|39|1 2,0,0,0,0,0,0,0,0,0,0,0,0,0,0,2,
scooby_state_4f59e3|48|43 2,0,0,0,0,0,0,0,0,0,0,0,0,0,0,2,
scooby_state_4f59dc|16|1 2,0,0,0,0,0,0,0,0,0,0,0,0,0,0,2,
scooby_state_4f59b9|19|1 2,0,0,0,0,0,0,0,0,0,0,0,0,0,0,2,
scooby_state_4f59dc|61|1 2,0,0,0,0,0,0,0,0,0,0,0,0,0,0,2,
scooby_state_4f59dc|56|1 2,0,0,0,0,0,0,0,0,0,0,0,0,0,0,2,
scooby_state_4f59b9|17|1 2,0,0,0,0,0,0,0,0,0,0,0,0,0,0,2,
scooby_state_4f59e3|15|1 2,0,0,0,0,0,0,0,0,0,0,0,0,0,0,2,
scooby_state_4f59b2|8|1 2,0,0,0,0,0,0,0,0,0,0,0,0,0,0,2,
scooby_state_4f59b2|13|1 2,0,0,0,0,0,0,0,0,0,0,0,0,0,0,2,
scooby_state_4f59e3|48|-2 2,0,0,0,0,0,0,0,0,0,0,0,0,0,0,2,
scooby_state_4f59e3|29|-21 2,0,0,0,0,0,0,0,0,0,0,0,0,0,0,2,
scooby_state_4f59e3|55|1 2,0,0,0,0,0,0,0,0,0,0,0,0,0,0,2,
scooby_state_491549|21|1 1,0,0,0,0,0,0,0,0,0,0,0,0,0,0,1,
scooby_state_4e9cd0|51|0 1,0,0,0,0,0,0,0,0,0,0,0,0,0,0,1,
scooby_state_422676|25|0 1,0,0,0,0,0,0,0,0,0,0,0,0,0,0,1,
scooby_state_491258|9|5 1,0,0,0,0,0,0,0,0,0,0,0,0,0,0,1,
scooby_state_4dff7e|61|1 1,0,0,0,0,0,0,0,0,0,0,0,0,0,0,1,
scooby_state_4f59dc|6|1 1,0,0,0,0,0,0,0,0,0,0,0,0,0,0,1,
scooby_state_4dfe41|22|-1 1,0,0,0,0,0,0,0,0,0,0,0,0,0,0,1,
scooby_state_4dfe03|56|5 1,0,0,0,0,0,0,0,0,0,0,0,0,0,0,1,
scooby_state_4949cf|39|1 1,0,0,0,0,0,0,0,0,0,0,0,0,0,0,1,
scooby_state_47dc40|49|1 1,0,0,0,0,0,0,0,0,0,0,0,0,0,0,1,
scooby_state_4f59b9|47|1 1,0,0,0,0,0,0,0,0,0,0,0,0,0,0,1,
scooby_state_486b50|45|0 1,0,0,0,0,0,0,0,0,0,0,0,0,0,0,1,
scooby_state_47e3e0|15|-9 1,0,0,0,0,0,0,0,0,0,0,0,0,0,0,1,
scooby_state_49485f|23|1 1,0,0,0,0,0,0,0,0,0,0,0,0,0,0,1,
scooby_state_4f59dc|48|-8 1,0,0,0,0,0,0,0,0,0,0,0,0,0,0,1,
scooby_state_4f59e3|5|1 1,0,0,0,0,0,0,0,0,0,0,0,0,0,0,1,
scooby_state_4f5940|4|1 1,0,0,0,0,0,0,0,0,0,0,0,0,0,0,1,
scooby_state_4f5940|33|3 1,0,0,0,0,0,0,0,0,0,0,0,0,0,0,1,
scooby_state_4f59e3|25|1 1,0,0,0,0,0,0,0,0,0,0,0,0,0,0,1,
scooby_state_47e480|18|1 1,0,0,0,0,0,0,0,0,0,0,0,0,0,0,1,
scooby_state_47e440|17|1 1,0,0,0,0,0,0,0,0,0,0,0,0,0,0,1,
scooby_state_4f59e3|20|1 1,0,0,0,0,0,0,0,0,0,0,0,0,0,0,1,
scooby_state_4e9d41|53|1 1,0,0,0,0,0,0,0,0,0,0,0,0,0,0,1,
scooby_state_495bb0|46|-3 1,0,0,0,0,0,0,0,0,0,0,0,0,0,0,1,
scooby_state_4e9d20|52|1 1,0,0,0,0,0,0,0,0,0,0,0,0,0,0,1,
scooby_state_494888|34|-7 1,0,0,0,0,0,0,0,0,0,0,0,0,0,0,1,
scooby_state_4f59e3|30|1 1,0,0,0,0,0,0,0,0,0,0,0,0,0,0,1,
scooby_state_4225c0|23|1 1,0,0,0,0,0,0,0,0,0,0,0,0,0,0,1,
scooby_state_490d29|38|5 1,0,0,0,0,0,0,0,0,0,0,0,0,0,0,1,
scooby_state_47f247|9|1 1,0,0,0,0,0,0,0,0,0,0,0,0,0,0,1,
scooby_state_491102|4|1 1,0,0,0,0,0,0,0,0,0,0,0,0,0,0,1,
scooby_state_4e2a05|40|1 1,0,0,0,0,0,0,0,0,0,0,0,0,0,0,1,
scooby_state_4de870|33|0 1,0,0,0,0,0,0,0,0,0,0,0,0,0,0,1,
scooby_state_4910c0|3|1 1,0,0,0,0,0,0,0,0,0,0,0,0,0,0,1,
scooby_state_490b99|63|0 1,0,0,0,0,0,0,0,0,0,0,0,0,0,0,1,
scooby_state_4f59b2|34|-16 1,0,0,0,0,0,0,0,0,0,0,0,0,0,0,1,
scooby_state_4949a7|46|-2 1,0,0,0,0,0,0,0,0,0,0,0,0,0,0,1,
scooby_state_422681|26|1 1,0,0,0,0,0,0,0,0,0,0,0,0,0,0,1,
scooby_state_495c30|48|0 1,0,0,0,0,0,0,0,0,0,0,0,0,0,0,1,
scooby_state_4faed0|59|3 1,0,0,0,0,0,0,0,0,0,0,0,0,0,0,1,
scooby_state_494828|32|-5 1,0,0,0,0,0,0,0,0,0,0,0,0,0,0,1,
scooby_state_491484|18|1 1,0,0,0,0,0,0,0,0,0,0,0,0,0,0,1,
scooby_state_491330|12|0 1,0,0,0,0,0,0,0,0,0,0,0,0,0,0,1,
scooby_state_490aa2|47|0 1,0,0,0,0,0,0,0,0,0,0,0,0,0,0,1,
scooby_state_491608|24|3 1,0,0,0,0,0,0,0,0,0,0,0,0,0,0,1,
scooby_state_4ded00|52|14 1,0,0,0,0,0,0,0,0,0,0,0,0,0,0,1,
scooby_state_4df3b5|14|-43 1,0,0,0,0,0,0,0,0,0,0,0,0,0,0,1,
scooby_state_4dfd6e|23|0 1,0,0,0,0,0,0,0,0,0,0,0,0,0,0,1,
scooby_state_4f59dc|21|1 1,0,0,0,0,0,0,0,0,0,0,0,0,0,0,1,
scooby_state_490aa2|42|1 1,0,0,0,0,0,0,0,0,0,0,0,0,0,0,1,
scooby_state_4909a0|38|-13 1,0,0,0,0,0,0,0,0,0,0,0,0,0,0,1,
scooby_state_491010|0|-19 1,0,0,0,0,0,0,0,0,0,0,0,0,0,0,1,
scooby_state_4914e8|19|6 1,0,0,0,0,0,0,0,0,0,0,0,0,0,0,1,
scooby_state_4e0285|10|1 1,0,0,0,0,0,0,0,0,0,0,0,0,0,0,1,
scooby_state_47d800|32|1 1,0,0,0,0,0,0,0,0,0,0,0,0,0,0,1,
scooby_state_490a40|41|-21 1,0,0,0,0,0,0,0,0,0,0,0,0,0,0,1,
scooby_state_4dea60|41|1 1,0,0,0,0,0,0,0,0,0,0,0,0,0,0,1,
scooby_state_4f59b2|3|1 1,0,0,0,0,0,0,0,0,0,0,0,0,0,0,1,
scooby_state_4f5a02|40|1 1,0,0,0,0,0,0,0,0,0,0,0,0,0,0,1,
scooby_state_4f5940|19|1 1,0,0,0,0,0,0,0,0,0,0,0,0,0,0,1,
scooby_state_4003c0|0|-56 1,0,0,0,0,0,0,0,0,0,0,0,0,0,0,1,
scooby_state_4f5940|25|1 1,0,0,0,0,0,0,0,0,0,0,0,0,0,0,1,
scooby_state_4e08b8|34|23 1,0,0,0,0,0,0,0,0,0,0,0,0,0,0,1,
scooby_state_4dea02|40|1 1,0,0,0,0,0,0,0,0,0,0,0,0,0,0,1,
scooby_state_494a01|40|11 1,0,0,0,0,0,0,0,0,0,0,0,0,0,0,1,
scooby_state_4f5910|36|1 1,0,0,0,0,0,0,0,0,0,0,0,0,0,0,1,
scooby_state_4f59e3|51|1 1,0,0,0,0,0,0,0,0,0,0,0,0,0,0,1,
scooby_state_4f59b9|0|-48 1,0,0,0,0,0,0,0,0,0,0,0,0,0,0,1,
scooby_state_4e2910|36|0 1,0,0,0,0,0,0,0,0,0,0,0,0,0,0,1,
scooby_state_494944|37|1 1,0,0,0,0,0,0,0,0,0,0,0,0,0,0,1,
scooby_state_494840|22|2 1,0,0,0,0,0,0,0,0,0,0,0,0,0,0,1,
scooby_state_4f59b2|58|8 1,0,0,0,0,0,0,0,0,0,0,0,0,0,0,1,
scooby_state_4e2500|20|-23 1,0,0,0,0,0,0,0,0,0,0,0,0,0,0,1,
scooby_state_486a40|41|-5 1,0,0,0,0,0,0,0,0,0,0,0,0,0,0,1,
scooby_state_4fb4c2|19|1 1,0,0,0,0,0,0,0,0,0,0,0,0,0,0,1,
scooby_state_4e294c|33|-1 1,0,0,0,0,0,0,0,0,0,0,0,0,0,0,1,
scooby_state_490d90|54|2 1,0,0,0,0,0,0,0,0,0,0,0,0,0,0,1,
scooby_state_4f59e3|21|1 1,0,0,0,0,0,0,0,0,0,0,0,0,0,0,1,
scooby_state_4f92b0|10|0 1,0,0,0,0,0,0,0,0,0,0,0,0,0,0,1,
scooby_state_4f5940|30|1 1,0,0,0,0,0,0,0,0,0,0,0,0,0,0,1,
scooby_state_494c28|48|14 1,0,0,0,0,0,0,0,0,0,0,0,0,0,0,1,
scooby_state_4dfd30|52|0 1,0,0,0,0,0,0,0,0,0,0,0,0,0,0,1,
scooby_state_4e9d81|54|1 1,0,0,0,0,0,0,0,0,0,0,0,0,0,0,1,
scooby_state_4e2945|37|1 1,0,0,0,0,0,0,0,0,0,0,0,0,0,0,1,
scooby_state_47d690|26|0 1,0,0,0,0,0,0,0,0,0,0,0,0,0,0,1,
scooby_state_4948a7|0|0 1,0,0,0,0,0,0,0,0,0,0,0,0,0,0,1,
scooby_state_4f5940|48|19 1,0,0,0,0,0,0,0,0,0,0,0,0,0,0,1,
scooby_state_4e29c2|39|1 1,0,0,0,0,0,0,0,0,0,0,0,0,0,0,1,
scooby_state_490b90|46|3 1,0,0,0,0,0,0,0,0,0,0,0,0,0,0,1,
scooby_state_4f59e3|56|1 1,0,0,0,0,0,0,0,0,0,0,0,0,0,0,1,
scooby_state_486cc2|20|0 1,0,0,0,0,0,0,0,0,0,0,0,0,0,0,1,
scooby_state_4f92c6|11|1 1,0,0,0,0,0,0,0,0,0,0,0,0,0,0,1,
scooby_state_494cd0|51|18 1,0,0,0,0,0,0,0,0,0,0,0,0,0,0,1,
scooby_state_4deb02|44|-14 1,0,0,0,0,0,0,0,0,0,0,0,0,0,0,1,
scooby_state_4f59e3|5|-45 1,0,0,0,0,0,0,0,0,0,0,0,0,0,0,1,
scooby_state_4f59b2|54|1 1,0,0,0,0,0,0,0,0,0,0,0,0,0,0,1,
scooby_state_4fb182|6|1 1,0,0,0,0,0,0,0,0,0,0,0,0,0,0,1,
scooby_state_422600|24|1 1,0,0,0,0,0,0,0,0,0,0,0,0,0,0,1,
scooby_state_494a88|42|2 1,0,0,0,0,0,0,0,0,0,0,0,0,0,0,1,
scooby_state_494706|28|1 1,0,0,0,0,0,0,0,0,0,0,0,0,0,0,1,
scooby_state_4fb140|5|-14 1,0,0,0,0,0,0,0,0,0,0,0,0,0,0,1,
scooby_state_4946e0|27|-26 1,0,0,0,0,0,0,0,0,0,0,0,0,0,0,1,
scooby_state_4225cc|56|1 1,0,0,0,0,0,0,0,0,0,0,0,0,0,0,1,
scooby_state_4e2a42|41|1 1,0,0,0,0,0,0,0,0,0,0,0,0,0,0,1,
scooby_state_4225c5|55|0 1,0,0,0,0,0,0,0,0,0,0,0,0,0,0,1,
scooby_state_4f59e3|10|1 1,0,0,0,0,0,0,0,0,0,0,0,0,0,0,1,
scooby_state_47ba51|41|1 1,0,0,0,0,0,0,0,0,0,0,0,0,0,0,1,
scooby_state_47ba10|40|0 1,0,0,0,0,0,0,0,0,0,0,0,0,0,0,1,
scooby_state_4fadd0|55|0 1,0,0,0,0,0,0,0,0,0,0,0,0,0,0,1,
scooby_state_4803a0|14|0 1,0,0,0,0,0,0,0,0,0,0,0,0,0,0,1,
scooby_state_47e29a|10|8 1,0,0,0,0,0,0,0,0,0,0,0,0,0,0,1,
scooby_state_4f5940|5|1 1,0,0,0,0,0,0,0,0,0,0,0,0,0,0,1,
scooby_state_47e088|2|-6 1,0,0,0,0,0,0,0,0,0,0,0,0,0,0,1,
scooby_state_47dd38|52|2 1,0,0,0,0,0,0,0,0,0,0,0,0,0,0,1,
scooby_state_4de9c4|39|-13 1,0,0,0,0,0,0,0,0,0,0,0,0,0,0,1,
scooby_state_47a950|37|0 1,0,0,0,0,0,0,0,0,0,0,0,0,0,0,1,
scooby_state_4f59dc|26|1 1,0,0,0,0,0,0,0,0,0,0,0,0,0,0,1,
scooby_state_47e200|8|2 1,0,0,0,0,0,0,0,0,0,0,0,0,0,0,1,
scooby_state_4f59b2|28|1 1,0,0,0,0,0,0,0,0,0,0,0,0,0,0,1,
scooby_state_4f59dc|46|1 1,0,0,0,0,0,0,0,0,0,0,0,0,0,0,1,
scooby_state_4f59dc|30|1 1,0,0,0,0,0,0,0,0,0,0,0,0,0,0,1,
scooby_state_47fe50|57|48 1,0,0,0,0,0,0,0,0,0,0,0,0,0,0,1,
scooby_state_4f5940|9|1 1,0,0,0,0,0,0,0,0,0,0,0,0,0,0,1,
scooby_state_4f5940|0|-63 1,0,0,0,0,0,0,0,0,0,0,0,0,0,0,1,
scooby_state_490d29|39|1 1,0,0,0,0,0,0,0,0,0,0,0,0,0,0,1,
scooby_state_4dfd41|53|1 1,0,0,0,0,0,0,0,0,0,0,0,0,0,0,1,
scooby_state_491366|2|1 1,0,0,0,0,0,0,0,0,0,0,0,0,0,0,1,
scooby_state_4dee06|56|1 1,0,0,0,0,0,0,0,0,0,0,0,0,0,0,1,
scooby_state_4dfec2|59|1 1,0,0,0,0,0,0,0,0,0,0,0,0,0,0,1,
scooby_state_4f59b9|2|1 1,0,0,0,0,0,0,0,0,0,0,0,0,0,0,1,
scooby_state_4f59b2|1|0 1,0,0,0,0,0,0,0,0,0,0,0,0,0,0,1,
scooby_state_4e2ad0|43|2 1,0,0,0,0,0,0,0,0,0,0,0,0,0,0,1,
scooby_state_47f218|8|2 1,0,0,0,0,0,0,0,0,0,0,0,0,0,0,1,
scooby_state_4f59b9|22|1 1,0,0,0,0,0,0,0,0,0,0,0,0,0,0,1,
scooby_state_47dc00|48|1 1,0,0,0,0,0,0,0,0,0,0,0,0,0,0,1,
scooby_state_486c83|50|11 1,0,0,0,0,0,0,0,0,0,0,0,0,0,0,1,
scooby_state_486c60|49|-3 1,0,0,0,0,0,0,0,0,0,0,0,0,0,0,1,
scooby_state_47de41|57|1 1,0,0,0,0,0,0,0,0,0,0,0,0,0,0,1,
scooby_state_4f59e3|48|0 1,0,0,0,0,0,0,0,0,0,0,0,0,0,0,1,
scooby_state_486cf0|51|9 1,0,0,0,0,0,0,0,0,0,0,0,0,0,0,1,
scooby_state_4f92d3|48|-1 1,0,0,0,0,0,0,0,0,0,0,0,0,0,0,1,
scooby_state_4f92d3|49|-1 1,0,0,0,0,0,0,0,0,0,0,0,0,0,0,1,
scooby_state_4fb283|10|1 1,0,0,0,0,0,0,0,0,0,0,0,0,0,0,1,
scooby_state_4fb270|9|-15 1,0,0,0,0,0,0,0,0,0,0,0,0,0,0,1,
scooby_state_4f92d3|51|-1 1,0,0,0,0,0,0,0,0,0,0,0,0,0,0,1,
scooby_state_490a30|40|1 1,0,0,0,0,0,0,0,0,0,0,0,0,0,0,1,
scooby_state_4fae01|56|1 1,0,0,0,0,0,0,0,0,0,0,0,0,0,0,1,
scooby_state_4dfde9|55|2 1,0,0,0,0,0,0,0,0,0,0,0,0,0,0,1,
scooby_state_47d702|28|1 1,0,0,0,0,0,0,0,0,0,0,0,0,0,0,1,
scooby_state_47e3a0|14|-11 1,0,0,0,0,0,0,0,0,0,0,0,0,0,0,1,
scooby_state_422590|22|-4 1,0,0,0,0,0,0,0,0,0,0,0,0,0,0,1,
scooby_state_47dc8c|50|1 1,0,0,0,0,0,0,0,0,0,0,0,0,0,0,1,
scooby_state_478e40|57|0 1,0,0,0,0,0,0,0,0,0,0,0,0,0,0,1,
scooby_state_4e2500|18|-4 1,0,0,0,0,0,0,0,0,0,0,0,0,0,0,1,
scooby_state_47f1b0|6|-14 1,0,0,0,0,0,0,0,0,0,0,0,0,0,0,1,
scooby_state_4f59a0|38|1 1,0,0,0,0,0,0,0,0,0,0,0,0,0,0,1,
scooby_state_47e641|25|5 1,0,0,0,0,0,0,0,0,0,0,0,0,0,0,1,
scooby_state_47f510|20|0 1,0,0,0,0,0,0,0,0,0,0,0,0,0,0,1,
scooby_state_4fb4b5|0|-13 1,0,0,0,0,0,0,0,0,0,0,0,0,0,0,1,
scooby_state_494d50|53|1 1,0,0,0,0,0,0,0,0,0,0,0,0,0,0,1,
scooby_state_486a82|42|1 1,0,0,0,0,0,0,0,0,0,0,0,0,0,0,1,
scooby_state_47ec80|50|36 1,0,0,0,0,0,0,0,0,0,0,0,0,0,0,1,
scooby_state_4fb4b0|18|0 1,0,0,0,0,0,0,0,0,0,0,0,0,0,0,1,
scooby_state_4f5940|29|1 1,0,0,0,0,0,0,0,0,0,0,0,0,0,0,1,
scooby_state_4f59dc|63|0 0,1,0,0,0,0,0,0,0,0,0,0,0,0,0,1,
scooby_state_4f92d3|52|0 1,0,0,0,0,0,0,0,0,0,0,0,0,0,0,1,
scooby_state_4f59b2|18|1 1,0,0,0,0,0,0,0,0,0,0,0,0,0,0,1,
scooby_state_4f59b2|51|1 1,0,0,0,0,0,0,0,0,0,0,0,0,0,0,1,
scooby_state_4003c0|15|0 1,0,0,0,0,0,0,0,0,0,0,0,0,0,0,1,
scooby_state_494d00|52|1 1,0,0,0,0,0,0,0,0,0,0,0,0,0,0,1,
scooby_state_47e518|20|2 1,0,0,0,0,0,0,0,0,0,0,0,0,0,0,1,
scooby_state_4909fb|19|0 1,0,0,0,0,0,0,0,0,0,0,0,0,0,0,1,
scooby_state_4fb9c0|39|33 1,0,0,0,0,0,0,0,0,0,0,0,0,0,0,1,
scooby_state_47d744|29|1 1,0,0,0,0,0,0,0,0,0,0,0,0,0,0,1,
scooby_state_47d840|33|1 1,0,0,0,0,0,0,0,0,0,0,0,0,0,0,1,
scooby_state_4f59dc|11|-39 1,0,0,0,0,0,0,0,0,0,0,0,0,0,0,1,
scooby_state_47e1b0|6|-1 1,0,0,0,0,0,0,0,0,0,0,0,0,0,0,1,
scooby_state_494740|29|1 1,0,0,0,0,0,0,0,0,0,0,0,0,0,0,1,
scooby_state_47ecc1|51|1 1,0,0,0,0,0,0,0,0,0,0,0,0,0,0,1,
scooby_state_47dbc0|47|1 1,0,0,0,0,0,0,0,0,0,0,0,0,0,0,1,
scooby_state_491366|1|0 1,0,0,0,0,0,0,0,0,0,0,0,0,0,0,1,
scooby_state_47de01|56|1 1,0,0,0,0,0,0,0,0,0,0,0,0,0,0,1,
scooby_state_47e1c0|7|-48 1,0,0,0,0,0,0,0,0,0,0,0,0,0,0,1,
scooby_state_47db81|46|1 1,0,0,0,0,0,0,0,0,0,0,0,0,0,0,1,
scooby_state_47db65|45|12 1,0,0,0,0,0,0,0,0,0,0,0,0,0,0,1,
scooby_state_478e9b|58|1 1,0,0,0,0,0,0,0,0,0,0,0,0,0,0,1,
scooby_state_47ff60|61|3 1,0,0,0,0,0,0,0,0,0,0,0,0,0,0,1,
scooby_state_491060|1|-23 1,0,0,0,0,0,0,0,0,0,0,0,0,0,0,1,
scooby_state_4f59b2|48|-5 1,0,0,0,0,0,0,0,0,0,0,0,0,0,0,1,
scooby_state_47d7e2|22|-24 1,0,0,0,0,0,0,0,0,0,0,0,0,0,0,1,
scooby_state_47d785|30|1 1,0,0,0,0,0,0,0,0,0,0,0,0,0,0,1,
scooby_state_47edc4|55|4 1,0,0,0,0,0,0,0,0,0,0,0,0,0,0,1,
scooby_state_47ecb5|48|-11 1,0,0,0,0,0,0,0,0,0,0,0,0,0,0,1,
scooby_state_4e0241|9|1 1,0,0,0,0,0,0,0,0,0,0,0,0,0,0,1,
scooby_state_4dff82|62|1 1,0,0,0,0,0,0,0,0,0,0,0,0,0,0,1,
scooby_state_47ecad|30|1 1,0,0,0,0,0,0,0,0,0,0,0,0,0,0,1,
scooby_state_4fbaa0|42|32 1,0,0,0,0,0,0,0,0,0,0,0,0,0,0,1,
scooby_state_491193|6|-4 1,0,0,0,0,0,0,0,0,0,0,0,0,0,0,1,
scooby_state_47ecad|29|0 1,0,0,0,0,0,0,0,0,0,0,0,0,0,0,1,
scooby_state_47fee8|59|-2 1,0,0,0,0,0,0,0,0,0,0,0,0,0,0,1,
scooby_state_4f59e3|17|-31 1,0,0,0,0,0,0,0,0,0,0,0,0,0,0,1,
scooby_state_4f59b2|63|1 1,0,0,0,0,0,0,0,0,0,0,0,0,0,0,1,
scooby_state_4f59e3|1|1 1,0,0,0,0,0,0,0,0,0,0,0,0,0,0,1,
scooby_state_4f59dc|2|1 1,0,0,0,0,0,0,0,0,0,0,0,0,0,0,1,
scooby_state_4f59b9|3|1 1,0,0,0,0,0,0,0,0,0,0,0,0,0,0,1,
scooby_state_4f59e3|6|1 1,0,0,0,0,0,0,0,0,0,0,0,0,0,0,1,
scooby_state_4f59dc|7|1 1,0,0,0,0,0,0,0,0,0,0,0,0,0,0,1,
scooby_state_4f59dc|47|1 1,0,0,0,0,0,0,0,0,0,0,0,0,0,0,1,
scooby_state_4f59b9|8|1 1,0,0,0,0,0,0,0,0,0,0,0,0,0,0,1,
scooby_state_4f59b2|9|1 1,0,0,0,0,0,0,0,0,0,0,0,0,0,0,1,
scooby_state_4f59e3|11|1 1,0,0,0,0,0,0,0,0,0,0,0,0,0,0,1,
scooby_state_4f59b2|14|1 1,0,0,0,0,0,0,0,0,0,0,0,0,0,0,1,
scooby_state_4f5940|15|1 1,0,0,0,0,0,0,0,0,0,0,0,0,0,0,1,
scooby_state_4f59e3|48|1 1,0,0,0,0,0,0,0,0,0,0,0,0,0,0,1,
scooby_state_4f59e3|16|1 1,0,0,0,0,0,0,0,0,0,0,0,0,0,0,1,
scooby_state_4f59dc|17|1 1,0,0,0,0,0,0,0,0,0,0,0,0,0,0,1,
scooby_state_4f59b2|19|1 1,0,0,0,0,0,0,0,0,0,0,0,0,0,0,1,
scooby_state_4f5940|20|1 1,0,0,0,0,0,0,0,0,0,0,0,0,0,0,1,
scooby_state_4f59b9|23|1 1,0,0,0,0,0,0,0,0,0,0,0,0,0,0,1,
scooby_state_4f59b2|24|1 1,0,0,0,0,0,0,0,0,0,0,0,0,0,0,1,
scooby_state_4f59e3|26|1 1,0,0,0,0,0,0,0,0,0,0,0,0,0,0,1,
scooby_state_4f59b2|29|1 1,0,0,0,0,0,0,0,0,0,0,0,0,0,0,1,
scooby_state_4f59e3|31|1 1,0,0,0,0,0,0,0,0,0,0,0,0,0,0,1,
scooby_state_4f59b2|62|2 1,0,0,0,0,0,0,0,0,0,0,0,0,0,0,1,
scooby_state_4f59dc|32|1 1,0,0,0,0,0,0,0,0,0,0,0,0,0,0,1,
scooby_state_4f59b2|34|1 1,0,0,0,0,0,0,0,0,0,0,0,0,0,0,1,
scooby_state_4f59e3|40|1 1,0,0,0,0,0,0,0,0,0,0,0,0,0,0,1,
scooby_state_422570|5|-48 1,0,0,0,0,0,0,0,0,0,0,0,0,0,0,1,
scooby_state_4f5940|10|1 1,0,0,0,0,0,0,0,0,0,0,0,0,0,0,1,
scooby_state_4f59b9|32|1 1,0,0,0,0,0,0,0,0,0,0,0,0,0,0,1,
scooby_state_47ff00|60|1 1,0,0,0,0,0,0,0,0,0,0,0,0,0,0,1,
scooby_state_4f59b2|33|1 1,0,0,0,0,0,0,0,0,0,0,0,0,0,0,1,
scooby_state_4f59b9|18|1 1,0,0,0,0,0,0,0,0,0,0,0,0,0,0,1,
scooby_state_4f5940|34|1 1,0,0,0,0,0,0,0,0,0,0,0,0,0,0,1,
scooby_state_4f59e3|22|2 1,0,0,0,0,0,0,0,0,0,0,0,0,0,0,1,
scooby_state_4f59e3|35|1 1,0,0,0,0,0,0,0,0,0,0,0,0,0,0,1,
scooby_state_4f59dc|36|1 1,0,0,0,0,0,0,0,0,0,0,0,0,0,0,1,
scooby_state_4f59b2|38|1 1,0,0,0,0,0,0,0,0,0,0,0,0,0,0,1,
scooby_state_4f5940|39|1 1,0,0,0,0,0,0,0,0,0,0,0,0,0,0,1,
scooby_state_4f59dc|13|-37 0,1,0,0,0,0,0,0,0,0,0,0,0,0,0,1,
scooby_state_4f59b9|42|1 1,0,0,0,0,0,0,0,0,0,0,0,0,0,0,1,
scooby_state_4f59b2|43|1 1,0,0,0,0,0,0,0,0,0,0,0,0,0,0,1,
scooby_state_4f59dc|48|-2 1,0,0,0,0,0,0,0,0,0,0,0,0,0,0,1,
scooby_state_4f5940|49|1 1,0,0,0,0,0,0,0,0,0,0,0,0,0,0,1,
scooby_state_4f59e3|50|1 1,0,0,0,0,0,0,0,0,0,0,0,0,0,0,1,
scooby_state_4f59dc|51|1 1,0,0,0,0,0,0,0,0,0,0,0,0,0,0,1,
scooby_state_4f59b9|57|1 1,0,0,0,0,0,0,0,0,0,0,0,0,0,0,1,
scooby_state_4f59dc|12|1 1,0,0,0,0,0,0,0,0,0,0,0,0,0,0,1,
scooby_state_4f59b9|48|9 1,0,0,0,0,0,0,0,0,0,0,0,0,0,0,1,
scooby_state_4f59b2|58|1 1,0,0,0,0,0,0,0,0,0,0,0,0,0,0,1,
scooby_state_4f59b9|48|1 1,0,0,0,0,0,0,0,0,0,0,0,0,0,0,1,
scooby_state_4f59b9|62|1 1,0,0,0,0,0,0,0,0,0,0,0,0,0,0,1,
scooby_state_4f59b2|46|-4 0,1,0,0,0,0,0,0,0,0,0,0,0,0,0,1,
scooby_state_4f59b9|5|-56 1,0,0,0,0,0,0,0,0,0,0,0,0,0,0,1,
scooby_state_4f59b9|7|-43 1,0,0,0,0,0,0,0,0,0,0,0,0,0,0,1,
scooby_state_4f59b2|18|10 0,1,0,0,0,0,0,0,0,0,0,0,0,0,0,1,
scooby_state_4f59dc|49|1 1,0,0,0,0,0,0,0,0,0,0,0,0,0,0,1,
scooby_state_4f59b2|48|30 1,0,0,0,0,0,0,0,0,0,0,0,0,0,0,1,
scooby_state_4f59dc|30|-18 1,0,0,0,0,0,0,0,0,0,0,0,0,0,0,1,
scooby_state_4f5940|2|1 1,0,0,0,0,0,0,0,0,0,0,0,0,0,0,1,
scooby_state_4f59e3|34|1 1,0,0,0,0,0,0,0,0,0,0,0,0,0,0,1,
scooby_state_4f59dc|50|16 0,1,0,0,0,0,0,0,0,0,0,0,0,0,0,1,
scooby_state_4f59e3|46|12 1,0,0,0,0,0,0,0,0,0,0,0,0,0,0,1,
scooby_state_4f59b9|50|49 1,0,0,0,0,0,0,0,0,0,0,0,0,0,0,1,
scooby_state_4f59b9|48|2 1,0,0,0,0,0,0,0,0,0,0,0,0,0,0,1,
scooby_state_4f59dc|48|48 0,1,0,0,0,0,0,0,0,0,0,0,0,0,0,1,
scooby_state_4f5940|47|1 1,0,0,0,0,0,0,0,0,0,0,0,0,0,0,1,
scooby_state_4f59b2|50|-11 0,1,0,0,0,0,0,0,0,0,0,0,0,0,0,1,
scooby_state_4f59b2|1|1 1,0,0,0,0,0,0,0,0,0,0,0,0,0,0,1,
scooby_state_4f59b2|48|35 1,0,0,0,0,0,0,0,0,0,0,0,0,0,0,1,
scooby_state_4f59dc|18|1 1,0,0,0,0,0,0,0,0,0,0,0,0,0,0,1,
scooby_state_4f59e3|22|9 1,0,0,0,0,0,0,0,0,0,0,0,0,0,0,1,
scooby_state_4f59b9|38|-12 1,0,0,0,0,0,0,0,0,0,0,0,0,0,0,1,
scooby_state_4f5940|52|1 1,0,0,0,0,0,0,0,0,0,0,0,0,0,0,1,
scooby_state_4f59e3|53|1 1,0,0,0,0,0,0,0,0,0,0,0,0,0,0,1,
scooby_state_4f59b2|53|3 0,1,0,0,0,0,0,0,0,0,0,0,0,0,0,1,
scooby_state_4f59b9|5|3 1,0,0,0,0,0,0,0,0,0,0,0,0,0,0,1,
scooby_state_4f59b2|48|31 0,1,0,0,0,0,0,0,0,0,0,0,0,0,0,1,
scooby_state_4f59b2|49|1 1,0,0,0,0,0,0,0,0,0,0,0,0,0,0,1,
scooby_state_4f5940|35|1 1,0,0,0,0,0,0,0,0,0,0,0,0,0,0,1,
scooby_state_4f59e3|36|1 1,0,0,0,0,0,0,0,0,0,0,0,0,0,0,1,
scooby_state_4f59dc|37|1 1,0,0,0,0,0,0,0,0,0,0,0,0,0,0,1,
scooby_state_4f59e3|61|1 1,0,0,0,0,0,0,0,0,0,0,0,0,0,0,1,
scooby_state_4f59b9|38|1 1,0,0,0,0,0,0,0,0,0,0,0,0,0,0,1,
scooby_state_4f59b9|63|1 1,0,0,0,0,0,0,0,0,0,0,0,0,0,0,1,
scooby_state_4f59dc|48|25 1,0,0,0,0,0,0,0,0,0,0,0,0,0,0,1,
scooby_state_4f59e3|41|1 1,0,0,0,0,0,0,0,0,0,0,0,0,0,0,1,
scooby_state_4f59b9|43|1 1,0,0,0,0,0,0,0,0,0,0,0,0,0,0,1,
scooby_state_4f59b2|44|1 1,0,0,0,0,0,0,0,0,0,0,0,0,0,0,1,
scooby_state_4f5940|45|1 1,0,0,0,0,0,0,0,0,0,0,0,0,0,0,1,
scooby_state_4f59e3|46|1 1,0,0,0,0,0,0,0,0,0,0,0,0,0,0,1,
scooby_state_422570|21|-3 1,0,0,0,0,0,0,0,0,0,0,0,0,0,0,1,
scooby_state_4f5940|50|1 1,0,0,0,0,0,0,0,0,0,0,0,0,0,0,1,
scooby_state_4f59dc|52|1 1,0,0,0,0,0,0,0,0,0,0,0,0,0,0,1,
scooby_state_4f59b9|53|1 1,0,0,0,0,0,0,0,0,0,0,0,0,0,0,1,
scooby_state_4f5940|55|1 1,0,0,0,0,0,0,0,0,0,0,0,0,0,0,1,
scooby_state_4f59dc|57|1 1,0,0,0,0,0,0,0,0,0,0,0,0,0,0,1,
scooby_state_4f59b9|58|1 1,0,0,0,0,0,0,0,0,0,0,0,0,0,0,1,
scooby_state_4f59b9|50|1 1,0,0,0,0,0,0,0,0,0,0,0,0,0,0,1,
scooby_state_4f5940|60|1 1,0,0,0,0,0,0,0,0,0,0,0,0,0,0,1,
scooby_state_4f59b2|1|-49 1,0,0,0,0,0,0,0,0,0,0,0,0,0,0,1,
scooby_state_47ff80|62|2 1,0,0,0,0,0,0,0,0,0,0,0,0,0,0,1,
scooby_state_50a480|18|0 1,0,0,0,0,0,0,0,0,0,0,0,0,0,0,1,
scooby_state_4f59b2|0|-63 0,1,0,0,0,0,0,0,0,0,0,0,0,0,0,1,
scooby_state_490c10|48|1 1,0,0,0,0,0,0,0,0,0,0,0,0,0,0,1,
scooby_state_491340|13|1 1,0,0,0,0,0,0,0,0,0,0,0,0,0,0,1,
scooby_state_4f59b2|48|1 1,0,0,0,0,0,0,0,0,0,0,0,0,0,0,1,
scooby_state_4dfe03|56|1 1,0,0,0,0,0,0,0,0,0,0,0,0,0,0,1,
scooby_state_4f59b9|7|1 1,0,0,0,0,0,0,0,0,0,0,0,0,0,0,1,
scooby_state_4e2982|38|1 1,0,0,0,0,0,0,0,0,0,0,0,0,0,0,1,
scooby_state_4f59b2|4|1 1,0,0,0,0,0,0,0,0,0,0,0,0,0,0,1,
scooby_state_47dfe8|63|6 1,0,0,0,0,0,0,0,0,0,0,0,0,0,0,1,
scooby_state_4bca30|40|0 1,0,0,0,0,0,0,0,0,0,0,0,0,0,0,1,
scooby_state_4f59dc|42|1 1,0,0,0,0,0,0,0,0,0,0,0,0,0,0,1,
scooby_state_4f59c1|39|1 1,0,0,0,0,0,0,0,0,0,0,0,0,0,0,1,
scooby_state_4909c8|39|0 1,0,0,0,0,0,0,0,0,0,0,0,0,0,0,1,
scooby_state_4f59b9|33|1 1,0,0,0,0,0,0,0,0,0,0,0,0,0,0,1,
scooby_state_4e2935|48|0 1,0,0,0,0,0,0,0,0,0,0,0,0,0,0,1,
scooby_state_4f59dc|11|1 1,0,0,0,0,0,0,0,0,0,0,0,0,0,0,1,
scooby_state_490aca|43|-5 1,0,0,0,0,0,0,0,0,0,0,0,0,0,0,1,
scooby_state_4f59dc|23|1 1,0,0,0,0,0,0,0,0,0,0,0,0,0,0,1,
scooby_state_4dfe41|57|-5 1,0,0,0,0,0,0,0,0,0,0,0,0,0,0,1,
scooby_state_490ba8|49|-9 1,0,0,0,0,0,0,0,0,0,0,0,0,0,0,1,
scooby_state_4f59dc|18|-32 1,0,0,0,0,0,0,0,0,0,0,0,0,0,0,1,
scooby_state_4dff04|60|1 1,0,0,0,0,0,0,0,0,0,0,0,0,0,0,1,
scooby_state_490a07|59|10 1,0,0,0,0,0,0,0,0,0,0,0,0,0,0,1,
scooby_state_47ecb5|7|0 1,0,0,0,0,0,0,0,0,0,0,0,0,0,0,1,
scooby_state_4f59b9|13|1 1,0,0,0,0,0,0,0,0,0,0,0,0,0,0,1,
scooby_state_4f59dc|27|1 1,0,0,0,0,0,0,0,0,0,0,0,0,0,0,1,
scooby_state_4e0231|19|0 1,0,0,0,0,0,0,0,0,0,0,0,0,0,0,1,
scooby_state_47d7c6|31|1 1,0,0,0,0,0,0,0,0,0,0,0,0,0,0,1,
scooby_state_4e08c4|35|1 1,0,0,0,0,0,0,0,0,0,0,0,0,0,0,1,
scooby_state_4f92d3|50|-1 1,0,0,0,0,0,0,0,0,0,0,0,0,0,0,1,
scooby_state_4dfea6|58|2 1,0,0,0,0,0,0,0,0,0,0,0,0,0,0,1,
scooby_state_491347|34|0 1,0,0,0,0,0,0,0,0,0,0,0,0,0,0,1,
scooby_state_494840|33|1 1,0,0,0,0,0,0,0,0,0,0,0,0,0,0,1,
scooby_state_4803a0|61|13 1,0,0,0,0,0,0,0,0,0,0,0,0,0,0,1,
scooby_state_4f5940|40|1 1,0,0,0,0,0,0,0,0,0,0,0,0,0,0,1,
scooby_state_4f59b2|50|30 1,0,0,0,0,0,0,0,0,0,0,0,0,0,0,1,
scooby_state_4e02c0|11|1 1,0,0,0,0,0,0,0,0,0,0,0,0,0,0,1,
scooby_state_4f5940|48|18 1,0,0,0,0,0,0,0,0,0,0,0,0,0,0,1,
scooby_state_47d6c4|27|1 1,0,0,0,0,0,0,0,0,0,0,0,0,0,0,1,
scooby_state_490c10|48|6 1,0,0,0,0,0,0,0,0,0,0,0,0,0,0,1,
scooby_state_4f59b2|59|1 1,0,0,0,0,0,0,0,0,0,0,0,0,0,0,1,
scooby_state_490a00|58|0 1,0,0,0,0,0,0,0,0,0,0,0,0,0,0,1,
scooby_state_4e2975|50|2 1,0,0,0,0,0,0,0,0,0,0,0,0,0,0,1,
scooby_state_4f5940|14|9 1,0,0,0,0,0,0,0,0,0,0,0,0,0,0,1,
scooby_state_4de8c2|35|1 1,0,0,0,0,0,0,0,0,0,0,0,0,0,0,1,
scooby_state_4f5940|44|1 1,0,0,0,0,0,0,0,0,0,0,0,0,0,0,1,
scooby_state_47e610|24|0 1,0,0,0,0,0,0,0,0,0,0,0,0,0,0,1,
scooby_state_4e2982|13|0 1,0,0,0,0,0,0,0,0,0,0,0,0,0,0,1,
scooby_state_494a70|41|0 1,0,0,0,0,0,0,0,0,0,0,0,0,0,0,1,
scooby_state_47fe82|58|1 1,0,0,0,0,0,0,0,0,0,0,0,0,0,0,1,
scooby_state_477f20|60|0 1,0,0,0,0,0,0,0,0,0,0,0,0,0,0,1,
scooby_state_4f59b9|37|1 1,0,0,0,0,0,0,0,0,0,0,0,0,0,0,1,
scooby_state_490f80|62|24 1,0,0,0,0,0,0,0,0,0,0,0,0,0,0,1,
scooby_state_490cdd|51|11 1,0,0,0,0,0,0,0,0,0,0,0,0,0,0,1,
scooby_state_4e2960|46|0 1,0,0,0,0,0,0,0,0,0,0,0,0,0,0,1,
scooby_state_490b18|44|-2 1,0,0,0,0,0,0,0,0,0,0,0,0,0,0,1,
scooby_state_4de881|34|1 1,0,0,0,0,0,0,0,0,0,0,0,0,0,0,1,
scooby_state_4f5940|14|1 1,0,0,0,0,0,0,0,0,0,0,0,0,0,0,1,
scooby_state_4df3c0|15|1 1,0,0,0,0,0,0,0,0,0,0,0,0,0,0,1,
scooby_state_486cbf|60|-1 1,0,0,0,0,0,0,0,0,0,0,0,0,0,0,1,
scooby_state_495c50|49|1 1,0,0,0,0,0,0,0,0,0,0,0,0,0,0,1,
scooby_state_4f59dc|48|26 1,0,0,0,0,0,0,0,0,0,0,0,0,0,0,1,
scooby_state_4deec4|59|15 1,0,0,0,0,0,0,0,0,0,0,0,0,0,0,1,
scooby_state_49147f|17|-8 1,0,0,0,0,0,0,0,0,0,0,0,0,0,0,1,
scooby_state_49165b|25|19 1,0,0,0,0,0,0,0,0,0,0,0,0,0,0,1,
scooby_state_49498c|38|-10 1,0,0,0,0,0,0,0,0,0,0,0,0,0,0,1,
scooby_state_4949b6|1|-7 1,0,0,0,0,0,0,0,0,0,0,0,0,0,0,1,
scooby_state_4f58e0|35|0 1,0,0,0,0,0,0,0,0,0,0,0,0,0,0,1,
scooby_state_4f59dc|22|1 1,0,0,0,0,0,0,0,0,0,0,0,0,0,0,1,
scooby_state_422600|54|-2 1,0,0,0,0,0,0,0,0,0,0,0,0,0,0,1,
scooby_state_4e297e|51|1 1,0,0,0,0,0,0,0,0,0,0,0,0,0,0,1,
scooby_state_4f595b|37|1 1,0,0,0,0,0,0,0,0,0,0,0,0,0,0,1,
scooby_state_478e30|56|-2 1,0,0,0,0,0,0,0,0,0,0,0,0,0,0,1,
scooby_state_4869c0|39|-10 1,0,0,0,0,0,0,0,0,0,0,0,0,0,0,1,
scooby_state_4fb600|24|-15 1,0,0,0,0,0,0,0,0,0,0,0,0,0,0,1,
scooby_state_486b8f|46|1 1,0,0,0,0,0,0,0,0,0,0,0,0,0,0,1,
scooby_state_4f5940|24|1 1,0,0,0,0,0,0,0,0,0,0,0,0,0,0,1,
scooby_state_4f59b9|27|1 1,0,0,0,0,0,0,0,0,0,0,0,0,0,0,1,
scooby_state_4f59dc|31|1 1,0,0,0,0,0,0,0,0,0,0,0,0,0,0,1,
scooby_state_42263b|52|-2 1,0,0,0,0,0,0,0,0,0,0,0,0,0,0,1,
scooby_state_422642|53|1 1,0,0,0,0,0,0,0,0,0,0,0,0,0,0,1,
scooby_state_4f59b9|28|1 1,0,0,0,0,0,0,0,0,0,0,0,0,0,0,1,
scooby_state_490d00|52|8 1,0,0,0,0,0,0,0,0,0,0,0,0,0,0,1,
scooby_state_490d55|53|-1 1,0,0,0,0,0,0,0,0,0,0,0,0,0,0,1,
scooby_state_4f59b2|53|1 1,0,0,0,0,0,0,0,0,0,0,0,0,0,0,1,
scooby_state_4de9a0|38|3 1,0,0,0,0,0,0,0,0,0,0,0,0,0,0,1,
scooby_state_4f59b9|52|1 1,0,0,0,0,0,0,0,0,0,0,0,0,0,0,1,
scooby_state_486d05|52|1 1,0,0,0,0,0,0,0,0,0,0,0,0,0,0,1,
scooby_state_494c28|20|1 1,0,0,0,0,0,0,0,0,0,0,0,0,0,0,1,
scooby_state_4e020f|8|0 1,0,0,0,0,0,0,0,0,0,0,0,0,0,0,1,
scooby_state_49492f|36|-3 1,0,0,0,0,0,0,0,0,0,0,0,0,0,0,1,
scooby_state_4f59dc|41|1 1,0,0,0,0,0,0,0,0,0,0,0,0,0,0,1,
scooby_state_4f59b2|23|1 1,0,0,0,0,0,0,0,0,0,0,0,0,0,0,1,
scooby_state_491080|2|1 1,0,0,0,0,0,0,0,0,0,0,0,0,0,0,1,
scooby_state_47ddd8|55|3 1,0,0,0,0,0,0,0,0,0,0,0,0,0,0,1,
scooby_state_495c3f|11|11 1,0,0,0,0,0,0,0,0,0,0,0,0,0,0,1,
scooby_state_491285|10|1 1,0,0,0,0,0,0,0,0,0,0,0,0,0,0,1,
scooby_state_4bcab0|42|2 1,0,0,0,0,0,0,0,0,0,0,0,0,0,0,1,
scooby_state_4dedd8|55|-4 1,0,0,0,0,0,0,0,0,0,0,0,0,0,0,1,
scooby_state_4dee89|58|17 1,0,0,0,0,0,0,0,0,0,0,0,0,0,0,1,
scooby_state_4f59e3|45|1 1,0,0,0,0,0,0,0,0,0,0,0,0,0,0,1,
scooby_state_47e401|16|1 1,0,0,0,0,0,0,0,0,0,0,0,0,0,0,1,
scooby_state_490d29|33|0 1,0,0,0,0,0,0,0,0,0,0,0,0,0,0,1,
scooby_state_495bbb|8|-3 1,0,0,0,0,0,0,0,0,0,0,0,0,0,0,1,
scooby_state_491500|20|20 1,0,0,0,0,0,0,0,0,0,0,0,0,0,0,1,

scooby_action_3_deg_dist 0,13,0,0,0,0,0,0,0,0,0,0,0,0,0,0,
scooby_action_1_deg_dist 0,112,43,0,68,0,246,0,0,0,0,0,0,0,0,0,

scooby_track_called 482
scooby_track_same_address 114
scooby_track_evict 112

scooby_reward_demand_called 482
scooby_reward_demand_pt_not_found 133
scooby_reward_demand_pt_found 349
scooby_reward_demand_pt_found_total 349
scooby_reward_demand_has_reward 113
scooby_reward_train_called 56
scooby_reward_assign_reward_called 297
scooby_reward_no_pref 0
scooby_reward_incorrect 56
scooby_reward_correct_untimely 168
scooby_reward_correct_timely 68
scooby_reward_out_of_bounds 5
scooby_reward_tracker_hit 0

scooby_reward_none_low_bw 0
scooby_reward_none_high_bw 0
scooby_reward_incorrect_low_bw 56
scooby_reward_incorrect_high_bw 0
scooby_reward_correct_untimely_low_bw 168
scooby_reward_correct_untimely_high_bw 0
scooby_reward_correct_timely_low_bw 68
scooby_reward_correct_timely_high_bw 0
scooby_reward_out_of_bounds_low_bw 5
scooby_reward_out_of_bounds_high_bw 0
scooby_reward_tracker_hit_low_bw 0
scooby_reward_tracker_hit_high_bw 0

scooby_reward_1 0,56,168,68,4,0,
scooby_reward_3 0,0,0,0,1,0,
scooby_reward_4 0,0,0,0,0,0,
scooby_reward_5 0,0,0,0,0,0,
scooby_reward_10 0,0,0,0,0,0,
scooby_reward_11 0,0,0,0,0,0,
scooby_reward_12 0,0,0,0,0,0,
scooby_reward_22 0,0,0,0,0,0,
scooby_reward_23 0,0,0,0,0,0,
scooby_reward_30 0,0,0,0,0,0,
scooby_reward_32 0,0,0,0,0,0,
scooby_reward_-1 0,0,0,0,0,0,
scooby_reward_-3 0,0,0,0,0,0,
scooby_reward_-6 0,0,0,0,0,0,
scooby_reward_0 0,0,0,0,0,0,

scooby_train_called 111
scooby_train_compute_reward 56

scooby_register_fill_called 412
scooby_register_fill_set 146
scooby_register_fill_set_total 146

scooby_register_prefetch_hit_called 724
scooby_register_prefetch_hit_set 262
scooby_register_prefetch_hit_set_total 262

scooby_pref_issue_scooby 1273

learning_engine_featurewise.action.called 482
learning_engine_featurewise.action.explore 0
learning_engine_featurewise.action.exploit 482
learning_engine_featurewise.action.fallback 0
learning_engine_featurewise.action.dyn_fallback_saved_bw 0
learning_engine_featurewise.action.dyn_fallback_saved_bw_acc 0
learning_engine_featurewise.action.index_1_explored 0
learning_engine_featurewise.action.index_1_exploited 469
learning_engine_featurewise.action.index_3_explored 0
learning_engine_featurewise.action.index_3_exploited 13
learning_engine_featurewise.action.index_4_explored 0
learning_engine_featurewise.action.index_4_exploited 0
learning_engine_featurewise.action.index_5_explored 0
learning_engine_featurewise.action.index_5_exploited 0
learning_engine_featurewise.action.index_10_explored 0
learning_engine_featurewise.action.index_10_exploited 0
learning_engine_featurewise.action.index_11_explored 0
learning_engine_featurewise.action.index_11_exploited 0
learning_engine_featurewise.action.index_12_explored 0
learning_engine_featurewise.action.index_12_exploited 0
learning_engine_featurewise.action.index_22_explored 0
learning_engine_featurewise.action.index_22_exploited 0
learning_engine_featurewise.action.index_23_explored 0
learning_engine_featurewise.action.index_23_exploited 0
learning_engine_featurewise.action.index_30_explored 0
learning_engine_featurewise.action.index_30_exploited 0
learning_engine_featurewise.action.index_32_explored 0
learning_engine_featurewise.action.index_32_exploited 0
learning_engine_featurewise.action.index_-1_explored 0
learning_engine_featurewise.action.index_-1_exploited 0
learning_engine_featurewise.action.index_-3_explored 0
learning_engine_featurewise.action.index_-3_exploited 0
learning_engine_featurewise.action.index_-6_explored 0
learning_engine_featurewise.action.index_-6_exploited 0
learning_engine_featurewise.action.index_0_explored 0
learning_engine_featurewise.action.index_0_exploited 0
learning_engine_featurewise.learn.called 111
learning_engine_featurewise.learn.su_skip_PC 0
learning_engine_featurewise.learn.su_skip_PC_Delta 0

learning_engine_featurewise.q_value_histogram.bucket_0 0
learning_engine_featurewise.q_value_histogram.bucket_1 0
learning_engine_featurewise.q_value_histogram.bucket_2 0
learning_engine_featurewise.q_value_histogram.bucket_3 0
learning_engine_featurewise.q_value_histogram.bucket_4 482
learning_engine_featurewise.q_value_histogram.bucket_5 0
learning_engine_featurewise.q_value_histogram.bucket_6 0
learning_engine_featurewise.q_value_histogram.bucket_7 0

learning_engine_featurewise.consensus.total 482
learning_engine_featurewise.consensus.feature_align_PC 413
learning_engine_featurewise.consensus.feature_align_PC_ratio 0.86
learning_engine_featurewise.consensus.feature_align_PC_Delta 436
learning_engine_featurewise.consensus.feature_align_PC_Delta_ratio 0.90
learning_engine_featurewise.consensus.feature_align_all 367
learning_engine_featurewise.consensus.feature_align_all_ratio 0.76

learning_engine_featurewise.feature_PC_min_weight 1000000.00000000
learning_engine_featurewise.feature_PC_max_weight 0.00000000
learning_engine_featurewise.feature_PC_Delta_min_weight 1000000.00000000
learning_engine_featurewise.feature_PC_Delta_max_weight 0.00000000
unique_pcs 223
unique_pages 45
unique_trigger_pcs 45
total_bitmaps_seen 0
unique_bitmaps_seen 0

scooby_bw_epochs 378835
scooby_bw_level_0 378835
scooby_bw_level_1 0
scooby_bw_level_2 0
scooby_bw_level_3 0

scooby_ipc_epochs 0
scooby_ipc_level_0 0
scooby_ipc_level_1 0
scooby_ipc_level_2 0
scooby_ipc_level_3 0

scooby_cache_acc_epochs 94689
scooby_cache_acc_level_0 94411
scooby_cache_acc_level_1 95
scooby_cache_acc_level_2 90
scooby_cache_acc_level_3 5
scooby_cache_acc_level_4 0
scooby_cache_acc_level_5 85
scooby_cache_acc_level_6 1
scooby_cache_acc_level_7 1
scooby_cache_acc_level_8 0
scooby_cache_acc_level_9 1

Channel_0_RQ_row_buffer_hit 2480
Channel_0_RQ_row_buffer_miss 256
Channel_0_WQ_row_buffer_hit 0
Channel_0_WQ_row_buffer_miss 0
Channel_0_WQ_full 0
Channel_0_dbus_congested 0

avg_congested_cycle 0

DRAM_bw_pochs 378835
DRAM_bw_level_0 378835
DRAM_bw_level_1 0
DRAM_bw_level_2 0
DRAM_bw_level_3 0
