*************************************************
   ChampSim Multicore Out-of-Order Simulator
   Last compiled: Apr  3 2025 20:54:34
*************************************************
parsing config file: /home/zir/Pythia/config/nopref.ini

trace_0 /home/zir/ChampSim/ML-DPC/ChampSimTraces/spec06/450.soplex-s0.trace.gz
adding L2C_PREFETCHER: NONE
Initialize SHIP state
warmup_instructions 10000000
simulation_instructions 50000000
champsim_seed 163
measure_ipc 0
measure_ipc_epoch 1000
measure_dram_bw 1
measure_dram_bw_epoch 256
measure_cache_acc 1
measure_cache_acc_epoch 1024
l1d_perfect 0
l2c_perfect 0
llc_perfect 0
l1d_semi_perfect 0
l2c_semi_perfect 0
llc_semi_perfect 0
semi_perfect_cache_page_buffer_size 64

num_cpus 1
cpu_freq 4000
dram_io_freq 2400
page_size 4096
block_size 64
max_read_per_cycle 8
max_fill_per_cycle 1
dram_channels 1
log2_dram_channels 0
dram_ranks 1
dram_banks 8
dram_rows 65536
dram_columns 128
dram_row_size 8
dram_size 4096
dram_pages 1048576

fetch_width 6
decode_width 6
exec_width 4
lq_width 2
sq_width 2
retire_width 4
scheduler_size 128
branch_mispredict_penalty 20
rob_size 256
lq_size 72
sq_size 56
num_instr_destinations_sparc 4
num_instr_destinations 2
num_instr_sources 4

itlb_set 16
itlb_way 8
itlb_rq_size 16
itlb_wq_size 16
itlb_pq_size 0
itlb_mshr_size 8
itlb_latency 1

dtlb_set 16
dtlb_way 4
dtlb_rq_size 16
dtlb_wq_size 16
dtlb_pq_size 0
dtlb_mshr_size 8
dtlb_latency 1

stlb_set 128
stlb_way 12
stlb_rq_size 32
stlb_wq_size 32
stlb_pq_size 0
stlb_mshr_size 16
stlb_latency 8

l1i_size 32
l1i_set 64
l1i_way 8
l1i_rq_size 64
l1i_wq_size 64
l1i_pq_size 8
l1i_mshr_size 8
l1i_latency 1

l1d_size 32
l1d_set 64
l1d_way 8
l1d_rq_size 64
l1d_wq_size 64
l1d_pq_size 8
l1d_mshr_size 16
l1d_latency 4

l2c_size 256
l2c_set 512
l2c_way 8
l2c_rq_size 32
l2c_wq_size 32
l2c_pq_size 32
l2c_mshr_size 32
l2c_latency 10

llc_size 2048
llc_set 2048
llc_way 16
llc_rq_size 32
llc_wq_size 32
llc_pq_size 32
llc_mshr_size 64
llc_latency 20

dram_channel_width 8
dram_wq_size 64
dram_rq_size 64
tRP 15
tRCD 15
tCAS 12.5
dram_dbus_turn_around_time 30
dram_write_high_wm 56
dram_write_low_wm 48
min_dram_writes_per_switch 16
dram_mtps 2400
dram_dbus_return_time 13


Heartbeat CPU  0 instructions:    1000000 cycles:     545135 heartbeat IPC: 1.83441 cumulative IPC: 1.83441 (Simulation time: 0 hr 0 min 1 sec) 
Heartbeat CPU  0 instructions:    2000001 cycles:    1125735 heartbeat IPC: 1.72236 cumulative IPC: 1.77662 (Simulation time: 0 hr 0 min 2 sec) 
Heartbeat CPU  0 instructions:    3000000 cycles:    1854708 heartbeat IPC: 1.37179 cumulative IPC: 1.61751 (Simulation time: 0 hr 0 min 4 sec) 
Heartbeat CPU  0 instructions:    4000000 cycles:    2445351 heartbeat IPC: 1.69307 cumulative IPC: 1.63576 (Simulation time: 0 hr 0 min 5 sec) 
Heartbeat CPU  0 instructions:    5000001 cycles:    2997307 heartbeat IPC: 1.81174 cumulative IPC: 1.66816 (Simulation time: 0 hr 0 min 6 sec) 
Heartbeat CPU  0 instructions:    6000003 cycles:    3630388 heartbeat IPC: 1.57958 cumulative IPC: 1.65272 (Simulation time: 0 hr 0 min 7 sec) 
Heartbeat CPU  0 instructions:    7000000 cycles:    4267631 heartbeat IPC: 1.56926 cumulative IPC: 1.64025 (Simulation time: 0 hr 0 min 8 sec) 
Heartbeat CPU  0 instructions:    8000000 cycles:    4839521 heartbeat IPC: 1.74859 cumulative IPC: 1.65306 (Simulation time: 0 hr 0 min 9 sec) 
Heartbeat CPU  0 instructions:    9000001 cycles:    5468504 heartbeat IPC: 1.58987 cumulative IPC: 1.64579 (Simulation time: 0 hr 0 min 10 sec) 
Heartbeat CPU  0 instructions:   10000000 cycles:    6099746 heartbeat IPC: 1.58418 cumulative IPC: 1.63941 (Simulation time: 0 hr 0 min 12 sec) 

Warmup complete CPU  0 instructions:   10000004 cycles:    6099748 (Simulation time: 0 hr 0 min 12 sec) 

Heartbeat CPU  0 instructions:   11000001 cycles:   10068297 heartbeat IPC: 0.25198 cumulative IPC: 0.25198 (Simulation time: 0 hr 0 min 14 sec) 
Heartbeat CPU  0 instructions:   12000000 cycles:   13317097 heartbeat IPC: 0.30781 cumulative IPC: 0.27711 (Simulation time: 0 hr 0 min 16 sec) 
Heartbeat CPU  0 instructions:   13000000 cycles:   18526866 heartbeat IPC: 0.19195 cumulative IPC: 0.24141 (Simulation time: 0 hr 0 min 19 sec) 
Heartbeat CPU  0 instructions:   14000003 cycles:   20340865 heartbeat IPC: 0.55127 cumulative IPC: 0.28088 (Simulation time: 0 hr 0 min 21 sec) 
Heartbeat CPU  0 instructions:   15000000 cycles:   22395198 heartbeat IPC: 0.48677 cumulative IPC: 0.30683 (Simulation time: 0 hr 0 min 22 sec) 
Heartbeat CPU  0 instructions:   16000000 cycles:   26263686 heartbeat IPC: 0.25850 cumulative IPC: 0.29756 (Simulation time: 0 hr 0 min 25 sec) 
Heartbeat CPU  0 instructions:   17000001 cycles:   31338761 heartbeat IPC: 0.19704 cumulative IPC: 0.27735 (Simulation time: 0 hr 0 min 28 sec) 
Heartbeat CPU  0 instructions:   18000000 cycles:   38943575 heartbeat IPC: 0.13150 cumulative IPC: 0.24358 (Simulation time: 0 hr 0 min 31 sec) 
Heartbeat CPU  0 instructions:   19000002 cycles:   44892970 heartbeat IPC: 0.16808 cumulative IPC: 0.23200 (Simulation time: 0 hr 0 min 34 sec) 
Heartbeat CPU  0 instructions:   20000000 cycles:   47986635 heartbeat IPC: 0.32324 cumulative IPC: 0.23874 (Simulation time: 0 hr 0 min 38 sec) 
Heartbeat CPU  0 instructions:   21000001 cycles:   53553822 heartbeat IPC: 0.17962 cumulative IPC: 0.23180 (Simulation time: 0 hr 0 min 41 sec) 
Heartbeat CPU  0 instructions:   22000001 cycles:   58867215 heartbeat IPC: 0.18820 cumulative IPC: 0.22741 (Simulation time: 0 hr 0 min 44 sec) 
Heartbeat CPU  0 instructions:   23000002 cycles:   63455803 heartbeat IPC: 0.21793 cumulative IPC: 0.22665 (Simulation time: 0 hr 0 min 47 sec) 
Heartbeat CPU  0 instructions:   24000000 cycles:   68220412 heartbeat IPC: 0.20988 cumulative IPC: 0.22537 (Simulation time: 0 hr 0 min 49 sec) 
Heartbeat CPU  0 instructions:   25000002 cycles:   72656841 heartbeat IPC: 0.22541 cumulative IPC: 0.22537 (Simulation time: 0 hr 0 min 51 sec) 
Heartbeat CPU  0 instructions:   26000002 cycles:   76608284 heartbeat IPC: 0.25307 cumulative IPC: 0.22692 (Simulation time: 0 hr 0 min 54 sec) 
Heartbeat CPU  0 instructions:   27000000 cycles:   79901900 heartbeat IPC: 0.30362 cumulative IPC: 0.23035 (Simulation time: 0 hr 0 min 56 sec) 
Heartbeat CPU  0 instructions:   28000000 cycles:   83839481 heartbeat IPC: 0.25396 cumulative IPC: 0.23154 (Simulation time: 0 hr 0 min 58 sec) 
Heartbeat CPU  0 instructions:   29000002 cycles:   86416915 heartbeat IPC: 0.38798 cumulative IPC: 0.23656 (Simulation time: 0 hr 1 min 1 sec) 
Heartbeat CPU  0 instructions:   30000003 cycles:   88068747 heartbeat IPC: 0.60539 cumulative IPC: 0.24399 (Simulation time: 0 hr 1 min 2 sec) 
Heartbeat CPU  0 instructions:   31000003 cycles:   91185021 heartbeat IPC: 0.32090 cumulative IPC: 0.24681 (Simulation time: 0 hr 1 min 5 sec) 
Heartbeat CPU  0 instructions:   32000000 cycles:   95574664 heartbeat IPC: 0.22781 cumulative IPC: 0.24588 (Simulation time: 0 hr 1 min 7 sec) 
Heartbeat CPU  0 instructions:   33000000 cycles:   99471849 heartbeat IPC: 0.25660 cumulative IPC: 0.24633 (Simulation time: 0 hr 1 min 10 sec) 
Heartbeat CPU  0 instructions:   34000002 cycles:  102965808 heartbeat IPC: 0.28621 cumulative IPC: 0.24776 (Simulation time: 0 hr 1 min 12 sec) 
Heartbeat CPU  0 instructions:   35000003 cycles:  106709127 heartbeat IPC: 0.26714 cumulative IPC: 0.24849 (Simulation time: 0 hr 1 min 14 sec) 
Heartbeat CPU  0 instructions:   36000000 cycles:  110264431 heartbeat IPC: 0.28127 cumulative IPC: 0.24960 (Simulation time: 0 hr 1 min 17 sec) 
Heartbeat CPU  0 instructions:   37000000 cycles:  115443806 heartbeat IPC: 0.19307 cumulative IPC: 0.24693 (Simulation time: 0 hr 1 min 20 sec) 
Heartbeat CPU  0 instructions:   38000002 cycles:  117265950 heartbeat IPC: 0.54881 cumulative IPC: 0.25188 (Simulation time: 0 hr 1 min 21 sec) 
Heartbeat CPU  0 instructions:   39000003 cycles:  119506109 heartbeat IPC: 0.44640 cumulative IPC: 0.25572 (Simulation time: 0 hr 1 min 23 sec) 
Heartbeat CPU  0 instructions:   40000000 cycles:  123527700 heartbeat IPC: 0.24866 cumulative IPC: 0.25548 (Simulation time: 0 hr 1 min 25 sec) 
Heartbeat CPU  0 instructions:   41000000 cycles:  128454304 heartbeat IPC: 0.20298 cumulative IPC: 0.25336 (Simulation time: 0 hr 1 min 28 sec) 
Heartbeat CPU  0 instructions:   42000001 cycles:  130993687 heartbeat IPC: 0.39380 cumulative IPC: 0.25622 (Simulation time: 0 hr 1 min 30 sec) 
Heartbeat CPU  0 instructions:   43000000 cycles:  136650500 heartbeat IPC: 0.17678 cumulative IPC: 0.25278 (Simulation time: 0 hr 1 min 34 sec) 
Heartbeat CPU  0 instructions:   44000000 cycles:  139947687 heartbeat IPC: 0.30329 cumulative IPC: 0.25402 (Simulation time: 0 hr 1 min 35 sec) 
Heartbeat CPU  0 instructions:   45000001 cycles:  141583764 heartbeat IPC: 0.61122 cumulative IPC: 0.25833 (Simulation time: 0 hr 1 min 37 sec) 
Heartbeat CPU  0 instructions:   46000002 cycles:  144783991 heartbeat IPC: 0.31248 cumulative IPC: 0.25958 (Simulation time: 0 hr 1 min 39 sec) 
Heartbeat CPU  0 instructions:   47000000 cycles:  149429824 heartbeat IPC: 0.21525 cumulative IPC: 0.25815 (Simulation time: 0 hr 1 min 42 sec) 
Heartbeat CPU  0 instructions:   48000000 cycles:  153827801 heartbeat IPC: 0.22738 cumulative IPC: 0.25723 (Simulation time: 0 hr 1 min 45 sec) 
Heartbeat CPU  0 instructions:   49000001 cycles:  156634167 heartbeat IPC: 0.35633 cumulative IPC: 0.25908 (Simulation time: 0 hr 1 min 47 sec) 
Heartbeat CPU  0 instructions:   50000003 cycles:  161821251 heartbeat IPC: 0.19279 cumulative IPC: 0.25687 (Simulation time: 0 hr 1 min 50 sec) 
Heartbeat CPU  0 instructions:   51000003 cycles:  165321931 heartbeat IPC: 0.28566 cumulative IPC: 0.25750 (Simulation time: 0 hr 1 min 52 sec) 
Heartbeat CPU  0 instructions:   52000000 cycles:  166992183 heartbeat IPC: 0.59871 cumulative IPC: 0.26104 (Simulation time: 0 hr 1 min 53 sec) 
Heartbeat CPU  0 instructions:   53000001 cycles:  170217343 heartbeat IPC: 0.31006 cumulative IPC: 0.26201 (Simulation time: 0 hr 1 min 55 sec) 
Heartbeat CPU  0 instructions:   54000003 cycles:  174787745 heartbeat IPC: 0.21880 cumulative IPC: 0.26084 (Simulation time: 0 hr 1 min 58 sec) 
Heartbeat CPU  0 instructions:   55000002 cycles:  179558488 heartbeat IPC: 0.20961 cumulative IPC: 0.25943 (Simulation time: 0 hr 2 min 1 sec) 
Heartbeat CPU  0 instructions:   56000000 cycles:  182153870 heartbeat IPC: 0.38530 cumulative IPC: 0.26128 (Simulation time: 0 hr 2 min 3 sec) 
Heartbeat CPU  0 instructions:   57000000 cycles:  187528171 heartbeat IPC: 0.18607 cumulative IPC: 0.25906 (Simulation time: 0 hr 2 min 6 sec) 
Heartbeat CPU  0 instructions:   58000000 cycles:  190753107 heartbeat IPC: 0.31008 cumulative IPC: 0.25995 (Simulation time: 0 hr 2 min 8 sec) 
Heartbeat CPU  0 instructions:   59000001 cycles:  192388779 heartbeat IPC: 0.61137 cumulative IPC: 0.26303 (Simulation time: 0 hr 2 min 9 sec) 
Heartbeat CPU  0 instructions:   60000000 cycles:  195682903 heartbeat IPC: 0.30357 cumulative IPC: 0.26374 (Simulation time: 0 hr 2 min 11 sec) 
Finished CPU 0 instructions: 50000001 cycles: 189583165 cumulative IPC: 0.26374 (Simulation time: 0 hr 2 min 11 sec) 

ChampSim completed all CPUs

[ROI Statistics]
Core_0_instructions 50000001
Core_0_cycles 189583165
Core_0_IPC 0.26374

Core_0_branch_prediction_accuracy 95.76323
Core_0_branch_MPKI 8.42440
Core_0_average_ROB_occupancy_at_mispredict 82.60246

Core_0_L1D_total_access 10537426
Core_0_L1D_total_hit 7524607
Core_0_L1D_total_miss 3012819
Core_0_L1D_loads 6998026
Core_0_L1D_load_hit 4515173
Core_0_L1D_load_miss 2482853
Core_0_L1D_RFOs 3539400
Core_0_L1D_RFO_hit 3009434
Core_0_L1D_RFO_miss 529966
Core_0_L1D_prefetches 0
Core_0_L1D_prefetch_hit 0
Core_0_L1D_prefetch_miss 0
Core_0_L1D_writebacks 0
Core_0_L1D_writeback_hit 0
Core_0_L1D_writeback_miss 0
Core_0_L1D_prefetch_requested 0
Core_0_L1D_prefetch_dropped 0
Core_0_L1D_prefetch_issued 0
Core_0_L1D_prefetch_filled 0
Core_0_L1D_prefetch_useful 0
Core_0_L1D_prefetch_useless 0
Core_0_L1D_prefetch_late 0
Core_0_L1D_average_miss_latency 154.70102

Core_0_L1D_rq_access 12482065
Core_0_L1D_rq_forward 0
Core_0_L1D_rq_merged 4596481
Core_0_L1D_rq_to_cache 7885583
Core_0_L1D_rq_full 0

Core_0_L1D_wq_access 4627497
Core_0_L1D_wq_forward 1
Core_0_L1D_wq_merged 17270
Core_0_L1D_wq_to_cache 4610227
Core_0_L1D_wq_full 1822196

Core_0_L1D_pq_access 0
Core_0_L1D_pq_forward 0
Core_0_L1D_pq_merged 0
Core_0_L1D_pq_to_cache 0
Core_0_L1D_pq_full 0

Core_0_L1D_acc_epochs 183909
Core_0_L1D_acc_level_0 183909
Core_0_L1D_acc_level_1 0
Core_0_L1D_acc_level_2 0
Core_0_L1D_acc_level_3 0
Core_0_L1D_acc_level_4 0
Core_0_L1D_acc_level_5 0
Core_0_L1D_acc_level_6 0
Core_0_L1D_acc_level_7 0
Core_0_L1D_acc_level_8 0
Core_0_L1D_acc_level_9 0

Core_0_L1I_total_access 11272601
Core_0_L1I_total_hit 11271890
Core_0_L1I_total_miss 711
Core_0_L1I_loads 11272601
Core_0_L1I_load_hit 11271890
Core_0_L1I_load_miss 711
Core_0_L1I_RFOs 0
Core_0_L1I_RFO_hit 0
Core_0_L1I_RFO_miss 0
Core_0_L1I_prefetches 0
Core_0_L1I_prefetch_hit 0
Core_0_L1I_prefetch_miss 0
Core_0_L1I_writebacks 0
Core_0_L1I_writeback_hit 0
Core_0_L1I_writeback_miss 0
Core_0_L1I_prefetch_requested 0
Core_0_L1I_prefetch_dropped 0
Core_0_L1I_prefetch_issued 0
Core_0_L1I_prefetch_filled 0
Core_0_L1I_prefetch_useful 0
Core_0_L1I_prefetch_useless 0
Core_0_L1I_prefetch_late 0
Core_0_L1I_average_miss_latency 256.83685

Core_0_L1I_rq_access 50000000
Core_0_L1I_rq_forward 0
Core_0_L1I_rq_merged 38726751
Core_0_L1I_rq_to_cache 11273249
Core_0_L1I_rq_full 0

Core_0_L1I_wq_access 0
Core_0_L1I_wq_forward 0
Core_0_L1I_wq_merged 0
Core_0_L1I_wq_to_cache 0
Core_0_L1I_wq_full 0

Core_0_L1I_pq_access 0
Core_0_L1I_pq_forward 0
Core_0_L1I_pq_merged 0
Core_0_L1I_pq_to_cache 0
Core_0_L1I_pq_full 0

Core_0_L1I_acc_epochs 183909
Core_0_L1I_acc_level_0 183909
Core_0_L1I_acc_level_1 0
Core_0_L1I_acc_level_2 0
Core_0_L1I_acc_level_3 0
Core_0_L1I_acc_level_4 0
Core_0_L1I_acc_level_5 0
Core_0_L1I_acc_level_6 0
Core_0_L1I_acc_level_7 0
Core_0_L1I_acc_level_8 0
Core_0_L1I_acc_level_9 0

Core_0_L2C_total_access 4419901
Core_0_L2C_total_hit 1985862
Core_0_L2C_total_miss 2434039
Core_0_L2C_loads 2483366
Core_0_L2C_load_hit 506626
Core_0_L2C_load_miss 1976740
Core_0_L2C_RFOs 529915
Core_0_L2C_RFO_hit 72720
Core_0_L2C_RFO_miss 457195
Core_0_L2C_prefetches 0
Core_0_L2C_prefetch_hit 0
Core_0_L2C_prefetch_miss 0
Core_0_L2C_writebacks 1406620
Core_0_L2C_writeback_hit 1406516
Core_0_L2C_writeback_miss 104
Core_0_L2C_prefetch_requested 0
Core_0_L2C_prefetch_dropped 0
Core_0_L2C_prefetch_issued 0
Core_0_L2C_prefetch_filled 0
Core_0_L2C_prefetch_useful 0
Core_0_L2C_prefetch_useless 0
Core_0_L2C_prefetch_late 0
Core_0_L2C_average_miss_latency 172.84406

Core_0_L2C_rq_access 3013530
Core_0_L2C_rq_forward 0
Core_0_L2C_rq_merged 0
Core_0_L2C_rq_to_cache 3013281
Core_0_L2C_rq_full 0

Core_0_L2C_wq_access 1406620
Core_0_L2C_wq_forward 249
Core_0_L2C_wq_merged 0
Core_0_L2C_wq_to_cache 1406620
Core_0_L2C_wq_full 0

Core_0_L2C_pq_access 0
Core_0_L2C_pq_forward 0
Core_0_L2C_pq_merged 0
Core_0_L2C_pq_to_cache 0
Core_0_L2C_pq_full 0

Core_0_L2C_acc_epochs 183909
Core_0_L2C_acc_level_0 183909
Core_0_L2C_acc_level_1 0
Core_0_L2C_acc_level_2 0
Core_0_L2C_acc_level_3 0
Core_0_L2C_acc_level_4 0
Core_0_L2C_acc_level_5 0
Core_0_L2C_acc_level_6 0
Core_0_L2C_acc_level_7 0
Core_0_L2C_acc_level_8 0
Core_0_L2C_acc_level_9 0

Core_0_LLC_total_access 3503506
Core_0_LLC_total_hit 1792418
Core_0_LLC_total_miss 1711088
Core_0_LLC_loads 1976718
Core_0_LLC_load_hit 804618
Core_0_LLC_load_miss 1172100
Core_0_LLC_RFOs 457194
Core_0_LLC_RFO_hit 144000
Core_0_LLC_RFO_miss 313194
Core_0_LLC_prefetches 0
Core_0_LLC_prefetch_hit 0
Core_0_LLC_prefetch_miss 0
Core_0_LLC_writebacks 1069594
Core_0_LLC_writeback_hit 843800
Core_0_LLC_writeback_miss 225794
Core_0_LLC_prefetch_requested 0
Core_0_LLC_prefetch_dropped 0
Core_0_LLC_prefetch_issued 0
Core_0_LLC_prefetch_filled 0
Core_0_LLC_prefetch_useful 0
Core_0_LLC_prefetch_useless 0
Core_0_LLC_prefetch_late 0
Core_0_LLC_average_miss_latency 201.47231

Core_0_LLC_rq_access 2433935
Core_0_LLC_rq_forward 0
Core_0_LLC_rq_merged 0
Core_0_LLC_rq_to_cache 2433912
Core_0_LLC_rq_full 0

Core_0_LLC_wq_access 1069595
Core_0_LLC_wq_forward 23
Core_0_LLC_wq_merged 0
Core_0_LLC_wq_to_cache 1069595
Core_0_LLC_wq_full 0

Core_0_LLC_pq_access 0
Core_0_LLC_pq_forward 0
Core_0_LLC_pq_merged 0
Core_0_LLC_pq_to_cache 0
Core_0_LLC_pq_full 0

Core_0_LLC_acc_epochs 191097
Core_0_LLC_acc_level_0 191097
Core_0_LLC_acc_level_1 0
Core_0_LLC_acc_level_2 0
Core_0_LLC_acc_level_3 0
Core_0_LLC_acc_level_4 0
Core_0_LLC_acc_level_5 0
Core_0_LLC_acc_level_6 0
Core_0_LLC_acc_level_7 0
Core_0_LLC_acc_level_8 0
Core_0_LLC_acc_level_9 0

Core_0_major_page_fault 0
Core_0_minor_page_fault 13149

Channel_0_RQ_row_buffer_hit 417581
Channel_0_RQ_row_buffer_miss 1067385
Channel_0_WQ_row_buffer_hit 255102
Channel_0_WQ_row_buffer_miss 333916
Channel_0_WQ_full 0
Channel_0_dbus_congested 950320

avg_congested_cycle 11

DRAM_bw_pochs 764387
DRAM_bw_level_0 576779
DRAM_bw_level_1 141491
DRAM_bw_level_2 28369
DRAM_bw_level_3 17748
