*************************************************
   ChampSim Multicore Out-of-Order Simulator
   Last compiled: Apr  3 2025 20:54:34
*************************************************
parsing config file: /home/zir/Pythia/config/pythia.ini

trace_0 /home/zir/ChampSim/ML-DPC/ChampSimTraces/spec17/602.gcc-s3.trace.xz
adding L2C_PREFETCHER: Scooby
Initialize SHIP state
warmup_instructions 10000000
simulation_instructions 50000000
champsim_seed 166
measure_ipc 0
measure_ipc_epoch 1000
measure_dram_bw 1
measure_dram_bw_epoch 256
measure_cache_acc 1
measure_cache_acc_epoch 1024
l1d_perfect 0
l2c_perfect 0
llc_perfect 0
l1d_semi_perfect 0
l2c_semi_perfect 0
llc_semi_perfect 0
semi_perfect_cache_page_buffer_size 64

num_cpus 1
cpu_freq 4000
dram_io_freq 2400
page_size 4096
block_size 64
max_read_per_cycle 8
max_fill_per_cycle 1
dram_channels 1
log2_dram_channels 0
dram_ranks 1
dram_banks 8
dram_rows 65536
dram_columns 128
dram_row_size 8
dram_size 4096
dram_pages 1048576

fetch_width 6
decode_width 6
exec_width 4
lq_width 2
sq_width 2
retire_width 4
scheduler_size 128
branch_mispredict_penalty 20
rob_size 256
lq_size 72
sq_size 56
num_instr_destinations_sparc 4
num_instr_destinations 2
num_instr_sources 4

itlb_set 16
itlb_way 8
itlb_rq_size 16
itlb_wq_size 16
itlb_pq_size 0
itlb_mshr_size 8
itlb_latency 1

dtlb_set 16
dtlb_way 4
dtlb_rq_size 16
dtlb_wq_size 16
dtlb_pq_size 0
dtlb_mshr_size 8
dtlb_latency 1

stlb_set 128
stlb_way 12
stlb_rq_size 32
stlb_wq_size 32
stlb_pq_size 0
stlb_mshr_size 16
stlb_latency 8

l1i_size 32
l1i_set 64
l1i_way 8
l1i_rq_size 64
l1i_wq_size 64
l1i_pq_size 8
l1i_mshr_size 8
l1i_latency 1

l1d_size 32
l1d_set 64
l1d_way 8
l1d_rq_size 64
l1d_wq_size 64
l1d_pq_size 8
l1d_mshr_size 16
l1d_latency 4

l2c_size 256
l2c_set 512
l2c_way 8
l2c_rq_size 32
l2c_wq_size 32
l2c_pq_size 32
l2c_mshr_size 32
l2c_latency 10

llc_size 2048
llc_set 2048
llc_way 16
llc_rq_size 32
llc_wq_size 32
llc_pq_size 32
llc_mshr_size 64
llc_latency 20

dram_channel_width 8
dram_wq_size 64
dram_rq_size 64
tRP 15
tRCD 15
tCAS 12.5
dram_dbus_turn_around_time 30
dram_write_high_wm 56
dram_write_low_wm 48
min_dram_writes_per_switch 16
dram_mtps 2400
dram_dbus_return_time 13

scooby_alpha 0.0065088
scooby_gamma 0.556301
scooby_epsilon 0.00182284
scooby_state_num_bits 10
scooby_max_states 1024
scooby_seed 200
scooby_policy EGreedy
scooby_learning_type SARSA
scooby_actions 1,3,4,5,10,11,12,22,23,30,32,-1,-3,-6,0,
scooby_max_actions 15
scooby_pt_size 256
scooby_st_size 64
scooby_max_pcs 5
scooby_max_offsets 5
scooby_max_deltas 5
scooby_reward_none -4
scooby_reward_incorrect -8
scooby_reward_correct_untimely 12
scooby_reward_correct_timely 20
scooby_brain_zero_init 0
scooby_enable_reward_all 0
scooby_enable_track_multiple 0
scooby_enable_reward_out_of_bounds 1
scooby_reward_out_of_bounds -12
scooby_state_type 1
scooby_state_hash_type 11
scooby_access_debug 0
scooby_print_access_debug 0
scooby_print_access_debug_pc deadbeef
scooby_print_access_debug_pc_count 0
scooby_print_trace 0
scooby_enable_state_action_stats 1
scooby_enable_reward_tracker_hit 0
scooby_reward_tracker_hit -2
scooby_enable_featurewise_engine 1
scooby_pref_degree 1
scooby_enable_dyn_degree 1
scooby_max_to_avg_q_thresholds 0.5,1,2,
scooby_dyn_degrees 1,2,4,4,
scooby_multi_deg_select_type 2
scooby_last_pref_offset_conf_thresholds 1,3,8,
scooby_dyn_degrees_type2 1,2,4,6,
scooby_action_tracker_size 2
scooby_high_bw_thresh 4
scooby_enable_hbw_reward 1
scooby_reward_hbw_correct_timely 20
scooby_reward_hbw_correct_untimely 12
scooby_reward_hbw_incorrect -14
scooby_reward_hbw_none -2
scooby_reward_hbw_out_of_bounds -12
scooby_reward_hbw_tracker_hit -2
scooby_last_pref_offset_conf_thresholds_hbw 1,3,8,
scooby_dyn_degrees_type2_hbw 1,2,4,6,

le_enable_trace 0
le_trace_interval 0
le_trace_file_name 
le_trace_state 0
le_enable_score_plot 0
le_plot_file_name 
le_plot_actions 
le_enable_action_trace 0
le_action_trace_interval 0
le_action_trace_name 
le_enable_action_plot 0

le_featurewise_active_features PC, PC_Delta
le_featurewise_num_tilings 3,3,
le_featurewise_num_tiles 128,128,
le_featurewise_hash_types 2,2,
le_featurewise_enable_tiling_offset 1,1,
le_featurewise_max_q_thresh 0.5
le_featurewise_enable_action_fallback 1
le_featurewise_feature_weights 1,1,
le_featurewise_enable_dynamic_weight 0
le_featurewise_weight_gradient 0.001
le_featurewise_disable_adjust_weight_all_features_align 1
le_featurewise_selective_update 0
le_featurewise_pooling_type 2
le_featurewise_enable_dyn_action_fallback 1
le_featurewise_bw_acc_check_level 1
le_featurewise_acc_thresh 2
le_featurewise_enable_trace 0
le_featurewise_trace_feature_type 0
le_featurewise_trace_feature 
le_featurewise_trace_interval 0
le_featurewise_trace_record_count 0
le_featurewise_trace_file_name 
le_featurewise_enable_score_plot 0
le_featurewise_plot_actions 
le_featurewise_plot_file_name 


Heartbeat CPU  0 instructions:    1000003 cycles:     541894 heartbeat IPC: 1.84538 cumulative IPC: 1.84538 (Simulation time: 0 hr 0 min 2 sec) 
Heartbeat CPU  0 instructions:    2000002 cycles:    1082318 heartbeat IPC: 1.85040 cumulative IPC: 1.84789 (Simulation time: 0 hr 0 min 4 sec) 
Heartbeat CPU  0 instructions:    3000001 cycles:    1620429 heartbeat IPC: 1.85835 cumulative IPC: 1.85136 (Simulation time: 0 hr 0 min 6 sec) 
Heartbeat CPU  0 instructions:    4000000 cycles:    2159675 heartbeat IPC: 1.85444 cumulative IPC: 1.85213 (Simulation time: 0 hr 0 min 8 sec) 
Heartbeat CPU  0 instructions:    5000002 cycles:    2698730 heartbeat IPC: 1.85510 cumulative IPC: 1.85272 (Simulation time: 0 hr 0 min 10 sec) 
Heartbeat CPU  0 instructions:    6000002 cycles:    3236985 heartbeat IPC: 1.85786 cumulative IPC: 1.85358 (Simulation time: 0 hr 0 min 12 sec) 
Heartbeat CPU  0 instructions:    7000001 cycles:    3776874 heartbeat IPC: 1.85223 cumulative IPC: 1.85338 (Simulation time: 0 hr 0 min 14 sec) 
Heartbeat CPU  0 instructions:    8000000 cycles:    4320988 heartbeat IPC: 1.83785 cumulative IPC: 1.85143 (Simulation time: 0 hr 0 min 15 sec) 
Heartbeat CPU  0 instructions:    9000001 cycles:    4867935 heartbeat IPC: 1.82833 cumulative IPC: 1.84883 (Simulation time: 0 hr 0 min 17 sec) 
Heartbeat CPU  0 instructions:   10000000 cycles:    5408534 heartbeat IPC: 1.84980 cumulative IPC: 1.84893 (Simulation time: 0 hr 0 min 19 sec) 

Warmup complete CPU  0 instructions:   10000001 cycles:    5408536 (Simulation time: 0 hr 0 min 19 sec) 

Heartbeat CPU  0 instructions:   11000000 cycles:    7688961 heartbeat IPC: 0.43851 cumulative IPC: 0.43851 (Simulation time: 0 hr 0 min 22 sec) 
Heartbeat CPU  0 instructions:   12000000 cycles:    9985737 heartbeat IPC: 0.43539 cumulative IPC: 0.43695 (Simulation time: 0 hr 0 min 25 sec) 
Heartbeat CPU  0 instructions:   13000002 cycles:   12312383 heartbeat IPC: 0.42980 cumulative IPC: 0.43454 (Simulation time: 0 hr 0 min 28 sec) 
Heartbeat CPU  0 instructions:   14000002 cycles:   14698627 heartbeat IPC: 0.41907 cumulative IPC: 0.43057 (Simulation time: 0 hr 0 min 30 sec) 
Heartbeat CPU  0 instructions:   15000001 cycles:   17012601 heartbeat IPC: 0.43216 cumulative IPC: 0.43088 (Simulation time: 0 hr 0 min 33 sec) 
Heartbeat CPU  0 instructions:   16000000 cycles:   19309971 heartbeat IPC: 0.43528 cumulative IPC: 0.43161 (Simulation time: 0 hr 0 min 36 sec) 
Heartbeat CPU  0 instructions:   17000000 cycles:   21598627 heartbeat IPC: 0.43694 cumulative IPC: 0.43236 (Simulation time: 0 hr 0 min 39 sec) 
Heartbeat CPU  0 instructions:   18000000 cycles:   23886009 heartbeat IPC: 0.43718 cumulative IPC: 0.43296 (Simulation time: 0 hr 0 min 41 sec) 
Heartbeat CPU  0 instructions:   19000000 cycles:   26185021 heartbeat IPC: 0.43497 cumulative IPC: 0.43318 (Simulation time: 0 hr 0 min 44 sec) 
Heartbeat CPU  0 instructions:   20000000 cycles:   28470127 heartbeat IPC: 0.43762 cumulative IPC: 0.43362 (Simulation time: 0 hr 0 min 47 sec) 
Heartbeat CPU  0 instructions:   21000003 cycles:   30755103 heartbeat IPC: 0.43764 cumulative IPC: 0.43398 (Simulation time: 0 hr 0 min 50 sec) 
Heartbeat CPU  0 instructions:   22000002 cycles:   33035431 heartbeat IPC: 0.43853 cumulative IPC: 0.43436 (Simulation time: 0 hr 0 min 52 sec) 
Heartbeat CPU  0 instructions:   23000000 cycles:   35330414 heartbeat IPC: 0.43573 cumulative IPC: 0.43446 (Simulation time: 0 hr 0 min 55 sec) 
Heartbeat CPU  0 instructions:   24000000 cycles:   37628867 heartbeat IPC: 0.43508 cumulative IPC: 0.43451 (Simulation time: 0 hr 0 min 58 sec) 
Heartbeat CPU  0 instructions:   25000000 cycles:   39919961 heartbeat IPC: 0.43647 cumulative IPC: 0.43464 (Simulation time: 0 hr 1 min 1 sec) 
Heartbeat CPU  0 instructions:   26000000 cycles:   42196536 heartbeat IPC: 0.43926 cumulative IPC: 0.43492 (Simulation time: 0 hr 1 min 4 sec) 
Heartbeat CPU  0 instructions:   27000002 cycles:   44482825 heartbeat IPC: 0.43739 cumulative IPC: 0.43507 (Simulation time: 0 hr 1 min 6 sec) 
Heartbeat CPU  0 instructions:   28000000 cycles:   46763474 heartbeat IPC: 0.43847 cumulative IPC: 0.43526 (Simulation time: 0 hr 1 min 9 sec) 
Heartbeat CPU  0 instructions:   29000000 cycles:   49052796 heartbeat IPC: 0.43681 cumulative IPC: 0.43534 (Simulation time: 0 hr 1 min 12 sec) 
Heartbeat CPU  0 instructions:   30000003 cycles:   51338823 heartbeat IPC: 0.43744 cumulative IPC: 0.43544 (Simulation time: 0 hr 1 min 15 sec) 
Heartbeat CPU  0 instructions:   31000000 cycles:   53617928 heartbeat IPC: 0.43877 cumulative IPC: 0.43560 (Simulation time: 0 hr 1 min 17 sec) 
Heartbeat CPU  0 instructions:   32000000 cycles:   55890939 heartbeat IPC: 0.43995 cumulative IPC: 0.43580 (Simulation time: 0 hr 1 min 20 sec) 
Heartbeat CPU  0 instructions:   33000001 cycles:   58157961 heartbeat IPC: 0.44111 cumulative IPC: 0.43602 (Simulation time: 0 hr 1 min 23 sec) 
Heartbeat CPU  0 instructions:   34000003 cycles:   60446797 heartbeat IPC: 0.43690 cumulative IPC: 0.43606 (Simulation time: 0 hr 1 min 26 sec) 
Heartbeat CPU  0 instructions:   35000001 cycles:   62728642 heartbeat IPC: 0.43824 cumulative IPC: 0.43615 (Simulation time: 0 hr 1 min 28 sec) 
Heartbeat CPU  0 instructions:   36000000 cycles:   65007058 heartbeat IPC: 0.43890 cumulative IPC: 0.43625 (Simulation time: 0 hr 1 min 31 sec) 
Heartbeat CPU  0 instructions:   37000000 cycles:   67367931 heartbeat IPC: 0.42357 cumulative IPC: 0.43577 (Simulation time: 0 hr 1 min 34 sec) 
Heartbeat CPU  0 instructions:   38000002 cycles:   69756254 heartbeat IPC: 0.41870 cumulative IPC: 0.43514 (Simulation time: 0 hr 1 min 37 sec) 
Heartbeat CPU  0 instructions:   39000000 cycles:   72160371 heartbeat IPC: 0.41595 cumulative IPC: 0.43444 (Simulation time: 0 hr 1 min 40 sec) 
Heartbeat CPU  0 instructions:   40000000 cycles:   74446614 heartbeat IPC: 0.43740 cumulative IPC: 0.43454 (Simulation time: 0 hr 1 min 42 sec) 
Heartbeat CPU  0 instructions:   41000000 cycles:   76739322 heartbeat IPC: 0.43617 cumulative IPC: 0.43459 (Simulation time: 0 hr 1 min 45 sec) 
Heartbeat CPU  0 instructions:   42000000 cycles:   79029003 heartbeat IPC: 0.43674 cumulative IPC: 0.43466 (Simulation time: 0 hr 1 min 48 sec) 
Heartbeat CPU  0 instructions:   43000000 cycles:   81325752 heartbeat IPC: 0.43540 cumulative IPC: 0.43468 (Simulation time: 0 hr 1 min 51 sec) 
Heartbeat CPU  0 instructions:   44000000 cycles:   83609342 heartbeat IPC: 0.43791 cumulative IPC: 0.43478 (Simulation time: 0 hr 1 min 54 sec) 
Heartbeat CPU  0 instructions:   45000002 cycles:   85893207 heartbeat IPC: 0.43786 cumulative IPC: 0.43487 (Simulation time: 0 hr 1 min 56 sec) 
Heartbeat CPU  0 instructions:   46000001 cycles:   88172022 heartbeat IPC: 0.43882 cumulative IPC: 0.43497 (Simulation time: 0 hr 1 min 59 sec) 
Heartbeat CPU  0 instructions:   47000000 cycles:   90467984 heartbeat IPC: 0.43555 cumulative IPC: 0.43499 (Simulation time: 0 hr 2 min 2 sec) 
Heartbeat CPU  0 instructions:   48000000 cycles:   92761398 heartbeat IPC: 0.43603 cumulative IPC: 0.43502 (Simulation time: 0 hr 2 min 5 sec) 
Heartbeat CPU  0 instructions:   49000002 cycles:   95044307 heartbeat IPC: 0.43804 cumulative IPC: 0.43509 (Simulation time: 0 hr 2 min 7 sec) 
Heartbeat CPU  0 instructions:   50000000 cycles:   97321562 heartbeat IPC: 0.43912 cumulative IPC: 0.43519 (Simulation time: 0 hr 2 min 10 sec) 
Heartbeat CPU  0 instructions:   51000001 cycles:   99608220 heartbeat IPC: 0.43732 cumulative IPC: 0.43525 (Simulation time: 0 hr 2 min 13 sec) 
Heartbeat CPU  0 instructions:   52000000 cycles:  101891811 heartbeat IPC: 0.43791 cumulative IPC: 0.43531 (Simulation time: 0 hr 2 min 16 sec) 
Heartbeat CPU  0 instructions:   53000000 cycles:  104181052 heartbeat IPC: 0.43683 cumulative IPC: 0.43534 (Simulation time: 0 hr 2 min 19 sec) 
Heartbeat CPU  0 instructions:   54000000 cycles:  106463002 heartbeat IPC: 0.43822 cumulative IPC: 0.43541 (Simulation time: 0 hr 2 min 21 sec) 
Heartbeat CPU  0 instructions:   55000001 cycles:  108740210 heartbeat IPC: 0.43913 cumulative IPC: 0.43549 (Simulation time: 0 hr 2 min 24 sec) 
Heartbeat CPU  0 instructions:   56000000 cycles:  111014163 heartbeat IPC: 0.43976 cumulative IPC: 0.43558 (Simulation time: 0 hr 2 min 27 sec) 
Heartbeat CPU  0 instructions:   57000002 cycles:  113281235 heartbeat IPC: 0.44110 cumulative IPC: 0.43570 (Simulation time: 0 hr 2 min 30 sec) 
Heartbeat CPU  0 instructions:   58000000 cycles:  115569389 heartbeat IPC: 0.43703 cumulative IPC: 0.43573 (Simulation time: 0 hr 2 min 32 sec) 
Heartbeat CPU  0 instructions:   59000002 cycles:  117849381 heartbeat IPC: 0.43860 cumulative IPC: 0.43578 (Simulation time: 0 hr 2 min 35 sec) 
Heartbeat CPU  0 instructions:   60000000 cycles:  120127827 heartbeat IPC: 0.43889 cumulative IPC: 0.43585 (Simulation time: 0 hr 2 min 38 sec) 
Finished CPU 0 instructions: 50000000 cycles: 114719300 cumulative IPC: 0.43585 (Simulation time: 0 hr 2 min 38 sec) 

ChampSim completed all CPUs

[ROI Statistics]
Core_0_instructions 50000000
Core_0_cycles 114719300
Core_0_IPC 0.43585

Core_0_branch_prediction_accuracy 99.93011
Core_0_branch_MPKI 0.14828
Core_0_average_ROB_occupancy_at_mispredict 115.12315

Core_0_L1D_total_access 15887933
Core_0_L1D_total_hit 15077279
Core_0_L1D_total_miss 810654
Core_0_L1D_loads 10255180
Core_0_L1D_load_hit 9444616
Core_0_L1D_load_miss 810564
Core_0_L1D_RFOs 5632753
Core_0_L1D_RFO_hit 5632663
Core_0_L1D_RFO_miss 90
Core_0_L1D_prefetches 0
Core_0_L1D_prefetch_hit 0
Core_0_L1D_prefetch_miss 0
Core_0_L1D_writebacks 0
Core_0_L1D_writeback_hit 0
Core_0_L1D_writeback_miss 0
Core_0_L1D_prefetch_requested 0
Core_0_L1D_prefetch_dropped 0
Core_0_L1D_prefetch_issued 0
Core_0_L1D_prefetch_filled 0
Core_0_L1D_prefetch_useful 0
Core_0_L1D_prefetch_useless 0
Core_0_L1D_prefetch_late 0
Core_0_L1D_average_miss_latency 16.54690

Core_0_L1D_rq_access 13120548
Core_0_L1D_rq_forward 0
Core_0_L1D_rq_merged 2769670
Core_0_L1D_rq_to_cache 10350878
Core_0_L1D_rq_full 0

Core_0_L1D_wq_access 5633019
Core_0_L1D_wq_forward 0
Core_0_L1D_wq_merged 35
Core_0_L1D_wq_to_cache 5632984
Core_0_L1D_wq_full 0

Core_0_L1D_pq_access 0
Core_0_L1D_pq_forward 0
Core_0_L1D_pq_merged 0
Core_0_L1D_pq_to_cache 0
Core_0_L1D_pq_full 0

Core_0_L1D_acc_epochs 116320
Core_0_L1D_acc_level_0 116320
Core_0_L1D_acc_level_1 0
Core_0_L1D_acc_level_2 0
Core_0_L1D_acc_level_3 0
Core_0_L1D_acc_level_4 0
Core_0_L1D_acc_level_5 0
Core_0_L1D_acc_level_6 0
Core_0_L1D_acc_level_7 0
Core_0_L1D_acc_level_8 0
Core_0_L1D_acc_level_9 0

Core_0_L1I_total_access 19886313
Core_0_L1I_total_hit 19886258
Core_0_L1I_total_miss 55
Core_0_L1I_loads 19886313
Core_0_L1I_load_hit 19886258
Core_0_L1I_load_miss 55
Core_0_L1I_RFOs 0
Core_0_L1I_RFO_hit 0
Core_0_L1I_RFO_miss 0
Core_0_L1I_prefetches 0
Core_0_L1I_prefetch_hit 0
Core_0_L1I_prefetch_miss 0
Core_0_L1I_writebacks 0
Core_0_L1I_writeback_hit 0
Core_0_L1I_writeback_miss 0
Core_0_L1I_prefetch_requested 0
Core_0_L1I_prefetch_dropped 0
Core_0_L1I_prefetch_issued 0
Core_0_L1I_prefetch_filled 0
Core_0_L1I_prefetch_useful 0
Core_0_L1I_prefetch_useless 0
Core_0_L1I_prefetch_late 0
Core_0_L1I_average_miss_latency 128.01818

Core_0_L1I_rq_access 50000000
Core_0_L1I_rq_forward 0
Core_0_L1I_rq_merged 30113678
Core_0_L1I_rq_to_cache 19886322
Core_0_L1I_rq_full 0

Core_0_L1I_wq_access 0
Core_0_L1I_wq_forward 0
Core_0_L1I_wq_merged 0
Core_0_L1I_wq_to_cache 0
Core_0_L1I_wq_full 0

Core_0_L1I_pq_access 0
Core_0_L1I_pq_forward 0
Core_0_L1I_pq_merged 0
Core_0_L1I_pq_to_cache 0
Core_0_L1I_pq_full 0

Core_0_L1I_acc_epochs 116320
Core_0_L1I_acc_level_0 116320
Core_0_L1I_acc_level_1 0
Core_0_L1I_acc_level_2 0
Core_0_L1I_acc_level_3 0
Core_0_L1I_acc_level_4 0
Core_0_L1I_acc_level_5 0
Core_0_L1I_acc_level_6 0
Core_0_L1I_acc_level_7 0
Core_0_L1I_acc_level_8 0
Core_0_L1I_acc_level_9 0

Core_0_L2C_total_access 4997414
Core_0_L2C_total_hit 4574653
Core_0_L2C_total_miss 422761
Core_0_L2C_loads 810619
Core_0_L2C_load_hit 793672
Core_0_L2C_load_miss 16947
Core_0_L2C_RFOs 90
Core_0_L2C_RFO_hit 31
Core_0_L2C_RFO_miss 59
Core_0_L2C_prefetches 4178732
Core_0_L2C_prefetch_hit 3772978
Core_0_L2C_prefetch_miss 405754
Core_0_L2C_writebacks 7973
Core_0_L2C_writeback_hit 7972
Core_0_L2C_writeback_miss 1
Core_0_L2C_prefetch_requested 5026292
Core_0_L2C_prefetch_dropped 0
Core_0_L2C_prefetch_issued 5026292
Core_0_L2C_prefetch_filled 487647
Core_0_L2C_prefetch_useful 467245
Core_0_L2C_prefetch_useless 20267
Core_0_L2C_prefetch_late 1437
Core_0_L2C_average_miss_latency 101.92152

Core_0_L2C_rq_access 810709
Core_0_L2C_rq_forward 0
Core_0_L2C_rq_merged 0
Core_0_L2C_rq_to_cache 810709
Core_0_L2C_rq_full 0

Core_0_L2C_wq_access 7973
Core_0_L2C_wq_forward 0
Core_0_L2C_wq_merged 0
Core_0_L2C_wq_to_cache 7973
Core_0_L2C_wq_full 0

Core_0_L2C_pq_access 5026292
Core_0_L2C_pq_forward 0
Core_0_L2C_pq_merged 3563
Core_0_L2C_pq_to_cache 5022729
Core_0_L2C_pq_full 0

Core_0_L2C_acc_epochs 116320
Core_0_L2C_acc_level_0 244
Core_0_L2C_acc_level_1 129
Core_0_L2C_acc_level_2 460
Core_0_L2C_acc_level_3 579
Core_0_L2C_acc_level_4 1804
Core_0_L2C_acc_level_5 2688
Core_0_L2C_acc_level_6 5272
Core_0_L2C_acc_level_7 9340
Core_0_L2C_acc_level_8 13970
Core_0_L2C_acc_level_9 81834

Core_0_LLC_total_access 426012
Core_0_LLC_total_hit 53451
Core_0_LLC_total_miss 372561
Core_0_LLC_loads 15523
Core_0_LLC_load_hit 3184
Core_0_LLC_load_miss 12339
Core_0_LLC_RFOs 59
Core_0_LLC_RFO_hit 7
Core_0_LLC_RFO_miss 52
Core_0_LLC_prefetches 407178
Core_0_LLC_prefetch_hit 47895
Core_0_LLC_prefetch_miss 359283
Core_0_LLC_writebacks 3252
Core_0_LLC_writeback_hit 2365
Core_0_LLC_writeback_miss 887
Core_0_LLC_prefetch_requested 0
Core_0_LLC_prefetch_dropped 0
Core_0_LLC_prefetch_issued 0
Core_0_LLC_prefetch_filled 440550
Core_0_LLC_prefetch_useful 151
Core_0_LLC_prefetch_useless 411642
Core_0_LLC_prefetch_late 0
Core_0_LLC_average_miss_latency 81.80783

Core_0_LLC_rq_access 15582
Core_0_LLC_rq_forward 0
Core_0_LLC_rq_merged 0
Core_0_LLC_rq_to_cache 15582
Core_0_LLC_rq_full 0

Core_0_LLC_wq_access 3252
Core_0_LLC_wq_forward 0
Core_0_LLC_wq_merged 0
Core_0_LLC_wq_to_cache 3252
Core_0_LLC_wq_full 0

Core_0_LLC_pq_access 489084
Core_0_LLC_pq_forward 0
Core_0_LLC_pq_merged 0
Core_0_LLC_pq_to_cache 489084
Core_0_LLC_pq_full 0

Core_0_LLC_acc_epochs 117313
Core_0_LLC_acc_level_0 117172
Core_0_LLC_acc_level_1 89
Core_0_LLC_acc_level_2 37
Core_0_LLC_acc_level_3 2
Core_0_LLC_acc_level_4 0
Core_0_LLC_acc_level_5 13
Core_0_LLC_acc_level_6 0
Core_0_LLC_acc_level_7 0
Core_0_LLC_acc_level_8 0
Core_0_LLC_acc_level_9 0

Core_0_major_page_fault 0
Core_0_minor_page_fault 5904

scooby_st_lookup 971447
scooby_st_hit 957174
scooby_st_evict 14209
scooby_st_insert 14273
scooby_st_streaming 0

scooby_predict_called 971447
scooby_predict_out_of_bounds 16600
scooby_predict_action_1 942873
scooby_predict_issue_action_1 940181
scooby_predict_hit_action_1 2692
scooby_predict_out_of_bounds_action_1 14434
scooby_predict_action_3 4330
scooby_predict_issue_action_3 4307
scooby_predict_hit_action_3 23
scooby_predict_out_of_bounds_action_3 581
scooby_predict_action_4 818
scooby_predict_issue_action_4 816
scooby_predict_hit_action_4 2
scooby_predict_out_of_bounds_action_4 102
scooby_predict_action_5 511
scooby_predict_issue_action_5 511
scooby_predict_hit_action_5 0
scooby_predict_out_of_bounds_action_5 89
scooby_predict_action_10 469
scooby_predict_issue_action_10 469
scooby_predict_hit_action_10 0
scooby_predict_out_of_bounds_action_10 128
scooby_predict_action_11 473
scooby_predict_issue_action_11 473
scooby_predict_hit_action_11 0
scooby_predict_out_of_bounds_action_11 122
scooby_predict_action_12 458
scooby_predict_issue_action_12 458
scooby_predict_hit_action_12 0
scooby_predict_out_of_bounds_action_12 121
scooby_predict_action_22 354
scooby_predict_issue_action_22 354
scooby_predict_hit_action_22 0
scooby_predict_out_of_bounds_action_22 194
scooby_predict_action_23 340
scooby_predict_issue_action_23 340
scooby_predict_hit_action_23 0
scooby_predict_out_of_bounds_action_23 204
scooby_predict_action_30 238
scooby_predict_issue_action_30 238
scooby_predict_hit_action_30 0
scooby_predict_out_of_bounds_action_30 295
scooby_predict_action_32 206
scooby_predict_issue_action_32 206
scooby_predict_hit_action_32 0
scooby_predict_out_of_bounds_action_32 272
scooby_predict_action_-1 649
scooby_predict_issue_action_-1 524
scooby_predict_hit_action_-1 125
scooby_predict_out_of_bounds_action_-1 9
scooby_predict_action_-3 597
scooby_predict_issue_action_-3 492
scooby_predict_hit_action_-3 105
scooby_predict_out_of_bounds_action_-3 14
scooby_predict_action_-6 542
scooby_predict_issue_action_-6 456
scooby_predict_hit_action_-6 86
scooby_predict_out_of_bounds_action_-6 35
scooby_predict_action_0 1989
scooby_predict_issue_action_0 0
scooby_predict_hit_action_0 0
scooby_predict_out_of_bounds_action_0 0
scooby_predict_multi_deg_called 891401
scooby_predict_predicted 5026292
scooby_predict_multi_deg 4076467
scooby_predict_multi_deg_2 877433
scooby_predict_multi_deg_3 843592
scooby_predict_multi_deg_4 829302
scooby_predict_multi_deg_5 770170
scooby_predict_multi_deg_6 755970
scooby_predict_multi_deg_7 0
scooby_predict_multi_deg_8 0
scooby_predict_multi_deg_9 0
scooby_predict_multi_deg_10 0
scooby_predict_multi_deg_11 0
scooby_predict_multi_deg_12 0
scooby_predict_multi_deg_13 0
scooby_predict_multi_deg_14 0
scooby_predict_multi_deg_15 0
scooby_predict_multi_deg_16 0

scooby_selected_deg_1 58424
scooby_selected_deg_2 19850
scooby_selected_deg_3 0
scooby_selected_deg_4 45293
scooby_selected_deg_5 0
scooby_selected_deg_6 826258
scooby_selected_deg_7 0
scooby_selected_deg_8 0
scooby_selected_deg_9 0
scooby_selected_deg_10 0
scooby_selected_deg_11 0
scooby_selected_deg_12 0
scooby_selected_deg_13 0
scooby_selected_deg_14 0
scooby_selected_deg_15 0
scooby_selected_deg_16 0

scooby_state_40f7c0|28|1 4759,1,1,1,0,2,1,0,1,0,1,0,0,0,0,4767,
scooby_state_40f7c0|23|1 4754,0,1,0,0,1,1,1,0,1,0,0,0,0,1,4760,
scooby_state_40f7c0|33|1 4750,0,1,0,2,0,0,1,0,2,0,0,0,1,1,4758,
scooby_state_40f7c0|38|1 4714,0,0,0,1,1,1,1,1,2,1,1,0,0,1,4724,
scooby_state_40f7c0|60|1 4633,1,0,5,2,0,0,0,0,0,1,0,0,0,0,4642,
scooby_state_40f7c0|35|1 4484,0,0,0,1,1,1,0,1,0,0,1,1,1,1,4492,
scooby_state_40f7c0|25|1 4466,1,0,0,0,1,0,1,2,1,4,0,0,0,1,4477,
scooby_state_40f7c0|18|1 4461,0,0,3,0,1,0,2,0,2,0,0,1,0,2,4472,
scooby_state_40f7c0|8|1 4459,0,0,1,1,2,2,1,0,0,0,1,2,0,1,4470,
scooby_state_40f7c0|13|1 4463,0,1,0,1,0,0,0,1,0,0,1,1,1,0,4469,
scooby_state_40f7c0|45|1 4458,0,0,1,0,1,2,0,0,1,0,3,1,0,1,4468,
scooby_state_40f7c0|32|1 4459,0,0,2,0,0,1,0,0,0,0,0,0,1,0,4463,
scooby_state_40f7c0|30|1 4453,2,1,0,0,0,3,2,0,1,0,0,0,0,0,4462,
scooby_state_40f7c0|42|1 4446,1,0,2,0,1,0,0,2,0,1,0,1,0,0,4454,
scooby_state_40f7c0|37|1 4442,0,0,0,0,0,1,0,0,0,0,0,0,2,0,4445,
scooby_state_40f7c0|40|1 4436,0,1,0,0,1,1,0,0,1,0,1,1,0,0,4442,
scooby_state_40f7c0|50|1 4432,0,0,0,1,0,0,1,1,0,1,1,0,0,4,4441,
scooby_state_40f7c0|48|1 4428,0,0,0,0,1,2,1,4,1,0,0,2,0,1,4440,
scooby_state_40f7c0|52|1 4428,0,1,0,0,1,0,1,0,0,1,2,0,0,1,4435,
scooby_state_40f7c0|47|1 4424,0,0,1,1,0,0,0,1,1,0,0,1,0,2,4431,
scooby_state_40f7b9|43|1 4424,1,0,0,1,0,0,2,0,1,1,0,1,0,0,4431,
scooby_state_40f7c0|43|1 4418,0,0,1,0,1,1,2,3,0,0,0,0,1,0,4427,
scooby_state_40f7b9|37|1 4413,1,0,0,1,1,2,0,0,2,0,0,0,0,3,4423,
scooby_state_40f7b9|23|1 4408,1,0,1,1,0,1,0,3,1,1,1,0,0,2,4420,
scooby_state_40f7b9|35|1 4417,0,0,0,0,0,1,0,0,0,1,0,0,1,0,4420,
scooby_state_40f7b9|40|1 4409,0,3,2,2,1,1,0,0,0,0,1,1,0,0,4420,
scooby_state_40f7b9|38|1 4413,0,1,1,0,0,0,0,1,1,0,1,0,0,0,4418,
scooby_state_40f7b9|30|1 4404,0,0,2,0,3,0,1,0,0,0,0,0,2,0,4412,
scooby_state_40f7b9|55|1 4405,1,0,0,1,0,0,0,0,0,1,1,0,0,0,4409,
scooby_state_40f7b9|18|1 4399,0,0,0,0,1,0,1,1,0,0,1,0,4,1,4408,
scooby_state_40f7b9|45|1 4401,0,1,1,1,1,1,1,0,0,0,0,1,0,0,4408,
scooby_state_40f7b9|25|1 4401,1,1,0,1,0,0,0,1,1,0,0,0,0,0,4406,
scooby_state_40f7b9|42|1 4400,0,0,0,0,0,1,1,0,1,0,0,0,0,2,4405,
scooby_state_40f7b9|13|1 4400,1,1,0,1,0,0,0,1,0,0,0,0,0,0,4404,
scooby_state_40f7b9|52|1 4392,0,0,1,1,0,1,1,0,0,0,1,2,0,1,4400,
scooby_state_40f7b9|57|1 4386,2,1,1,1,0,0,1,0,1,0,2,2,0,3,4400,
scooby_state_40f7b9|20|1 4391,0,0,1,0,1,0,0,0,1,1,2,0,1,1,4399,
scooby_state_40f7b9|50|1 4382,1,0,1,1,2,2,2,1,0,0,1,2,2,0,4397,
scooby_state_40f7b9|32|1 4390,0,1,1,0,0,0,0,0,0,1,1,1,0,0,4395,
scooby_state_40f7b9|33|1 4382,1,0,1,2,0,0,1,1,1,1,1,2,1,1,4395,
scooby_state_40f7b9|8|1 4384,1,0,2,0,0,0,0,1,0,0,1,0,1,2,4392,
scooby_state_40f7b9|41|1 4385,0,0,0,1,1,0,1,1,0,0,0,2,0,0,4391,
scooby_state_40f7b9|6|1 4384,1,1,0,0,0,1,0,0,1,0,2,1,0,0,4391,
scooby_state_40f7b9|21|1 4381,0,1,1,1,2,0,1,1,0,0,0,2,0,0,4390,
scooby_state_40f7b9|48|1 4381,1,1,0,1,0,1,0,1,0,1,0,2,0,0,4389,
scooby_state_40f7b9|28|1 4381,0,0,0,1,1,0,0,2,2,0,1,1,0,0,4389,
scooby_state_40f7b9|11|1 4384,0,0,0,1,0,0,0,0,0,0,2,0,1,0,4388,
scooby_state_40f7b9|60|1 4374,1,1,1,0,1,1,0,0,0,1,3,1,1,0,4385,
scooby_state_40f7b9|10|1 4375,1,1,2,0,1,0,1,0,1,0,2,0,0,0,4384,
scooby_state_40f7b9|46|1 4374,0,1,0,2,0,1,3,0,0,0,0,1,0,1,4383,
scooby_state_40f7b9|36|1 4374,0,0,1,1,1,1,0,1,1,0,0,1,1,0,4382,
scooby_state_40f7b9|15|1 4377,1,0,0,0,0,0,1,0,1,0,1,0,1,0,4382,
scooby_state_40f7b9|3|1 4366,1,1,0,3,1,2,1,0,3,1,2,0,0,0,4381,
scooby_state_40f7b9|47|1 4370,0,0,0,1,4,0,0,3,0,1,0,0,0,1,4380,
scooby_state_40f7b9|22|1 4376,0,1,0,0,2,1,0,0,0,0,0,0,0,0,4380,
scooby_state_40f7b9|31|1 4370,0,2,0,1,2,2,0,0,0,0,0,0,1,2,4380,
scooby_state_40f7b9|26|1 4373,0,2,0,1,0,1,0,0,0,0,0,1,0,1,4379,
scooby_state_40f7b9|53|1 4369,0,0,0,1,1,0,2,0,1,2,0,2,0,0,4378,
scooby_state_40f7b9|1|1 4374,0,0,0,1,0,0,0,1,0,0,0,0,0,0,4376,
scooby_state_40f7b9|16|1 4366,2,1,1,0,1,0,0,1,1,0,0,2,0,0,4375,
scooby_state_40f7b9|27|1 4360,0,0,2,0,0,2,5,0,0,0,2,0,3,0,4374,
scooby_state_40f7b9|44|1 4365,0,1,0,0,0,1,0,2,0,0,1,1,1,1,4373,
scooby_state_40f7b9|62|1 4364,1,1,0,0,0,2,0,1,0,1,1,1,0,0,4372,
scooby_state_40f7c0|34|1 4367,0,1,0,0,0,0,0,0,0,0,0,0,1,0,4369,
scooby_state_40f7c0|61|1 4355,1,0,0,1,0,0,0,0,6,1,0,0,0,0,4364,
scooby_state_40f7b9|49|1 4357,1,1,0,0,0,0,1,0,0,0,1,0,1,0,4362,
scooby_state_40f7b9|54|1 4348,2,1,0,1,0,0,1,0,1,0,0,1,1,2,4358,
scooby_state_40f7b9|5|1 4351,0,0,1,1,0,0,0,0,2,1,1,0,0,1,4358,
scooby_state_40f7c0|29|1 4345,1,0,1,1,0,1,0,1,2,1,1,0,0,1,4355,
scooby_state_40f7b9|58|1 4348,1,0,0,1,1,0,0,1,0,0,0,0,0,2,4354,
scooby_state_40f7b9|51|1 4348,1,1,0,0,0,1,0,0,1,0,1,0,0,0,4353,
scooby_state_40f7b9|39|1 4344,0,0,0,0,0,1,2,0,0,0,0,0,2,1,4350,
scooby_state_40f7b9|0|0 4343,0,2,0,0,0,0,0,0,0,0,3,0,0,0,4348,
scooby_state_40f7c0|59|1 4340,0,1,2,2,0,0,0,1,0,1,0,0,0,1,4348,
scooby_state_40f7b9|56|1 4343,0,1,1,0,0,0,0,0,1,0,0,1,0,0,4347,
scooby_state_40f7b9|24|1 4337,0,0,1,0,1,0,0,1,0,2,0,0,0,1,4343,
scooby_state_40f7b9|19|1 4332,2,0,0,1,0,0,2,1,0,1,0,0,3,0,4342,
scooby_state_40f7b9|29|1 4331,2,1,1,0,2,0,2,0,1,0,0,1,0,0,4341,
scooby_state_40f7b9|34|1 4330,1,0,1,2,1,1,2,1,0,0,0,1,0,0,4340,
scooby_state_40f7b9|63|1 4326,2,1,1,0,1,1,2,2,1,0,0,1,0,1,4339,
scooby_state_40f7b9|17|1 4326,1,0,1,0,1,2,1,2,0,1,0,0,0,1,4336,
scooby_state_40f7b9|59|1 4331,0,0,0,2,0,0,1,1,0,0,0,0,0,0,4335,
scooby_state_40f7b9|14|1 4318,0,0,0,0,1,0,1,2,0,3,0,1,0,0,4326,
scooby_state_40f7b9|7|1 4318,1,0,0,1,0,0,2,0,1,0,0,2,0,0,4325,
scooby_state_40f7b9|4|1 4314,0,1,1,0,1,1,0,0,1,1,0,1,1,1,4323,
scooby_state_40f7b9|12|1 4312,0,0,0,2,1,2,0,3,0,1,1,0,0,1,4323,
scooby_state_40f7b9|61|1 4314,1,1,0,0,0,0,0,1,0,0,0,0,0,0,4317,
scooby_state_40f7c0|31|1 4307,0,0,0,0,1,2,0,1,0,3,0,1,0,1,4316,
scooby_state_40f7b9|2|1 4304,1,0,0,1,0,2,1,0,2,1,0,1,0,0,4313,
scooby_state_40f7c0|36|1 4305,0,0,0,0,0,1,0,3,1,0,0,0,0,2,4312,
scooby_state_40f7b9|9|1 4293,2,1,0,2,1,1,0,1,2,0,2,1,0,0,4306,
scooby_state_40f7c0|62|1 4271,0,0,1,0,0,0,1,0,1,2,1,0,0,1,4278,
scooby_state_40f7c0|22|1 4261,1,1,0,0,0,1,0,0,0,0,1,1,1,0,4267,
scooby_state_40f7c0|27|1 4261,0,0,0,0,1,0,0,0,1,2,0,0,1,0,4266,
scooby_state_40f7c0|10|1 4171,1,0,0,1,0,0,0,1,1,1,1,1,0,0,4178,
scooby_state_40f7c0|20|1 4166,0,0,0,0,1,0,1,1,0,4,0,0,0,0,4173,
scooby_state_40f7c0|55|1 4152,0,0,1,2,0,0,0,1,0,1,0,1,0,0,4158,
scooby_state_40f7c0|6|1 4154,0,0,0,0,2,0,0,0,1,0,0,0,0,0,4157,
scooby_state_40f7c0|16|1 4152,0,0,0,1,0,1,1,1,0,0,1,0,0,0,4157,
scooby_state_40f7c0|15|1 4144,1,0,0,0,1,1,0,0,4,0,0,0,1,2,4154,
scooby_state_40f7c0|9|1 4147,0,1,0,0,0,0,0,0,1,0,0,2,1,0,4152,
scooby_state_40f7c0|24|1 4143,1,0,0,0,0,1,2,0,0,1,2,1,0,0,4151,
scooby_state_40f7c0|3|1 4143,2,0,0,0,0,0,1,0,1,0,0,0,2,0,4149,
scooby_state_40f7c0|5|1 4141,0,0,0,0,0,0,0,1,1,1,1,0,1,2,4148,
scooby_state_40f7c0|19|1 4142,0,0,1,0,0,1,0,0,0,0,0,3,0,0,4147,
scooby_state_40f7c0|4|1 4141,0,0,0,1,0,0,0,0,2,0,0,0,0,2,4146,
scooby_state_40f7c0|53|1 4140,1,0,0,0,0,0,1,0,0,0,0,2,2,0,4146,
scooby_state_40f7c0|57|1 4134,1,1,0,1,1,0,0,1,1,1,0,1,0,2,4144,
scooby_state_40f7c0|58|1 4138,0,1,1,1,1,0,0,0,0,0,0,0,1,0,4143,
scooby_state_40f7c0|1|1 4138,0,0,0,0,0,1,0,0,1,0,0,0,1,0,4141,
scooby_state_40f7c0|14|1 4131,0,1,0,0,0,1,2,1,0,0,0,0,1,2,4139,
scooby_state_40f7c0|11|1 4131,0,0,1,0,1,0,0,0,0,0,0,0,0,0,4133,
scooby_state_40f7c0|26|1 4097,0,0,1,1,0,0,1,0,0,0,1,1,0,0,4102,
scooby_state_40f7c0|44|1 4066,0,2,0,0,0,0,0,1,1,1,0,0,0,0,4071,
scooby_state_40f7c0|39|1 4068,0,1,0,0,0,0,0,0,1,0,0,1,0,0,4071,
scooby_state_40f7c0|49|1 4056,0,1,0,0,1,0,0,1,0,1,1,0,0,1,4062,
scooby_state_40f7c0|54|1 4043,1,0,1,0,1,2,0,0,0,0,1,1,0,0,4050,
scooby_state_40f7c0|21|1 4032,1,0,0,1,4,0,0,1,0,0,0,0,2,0,4041,
scooby_state_40f7c0|51|1 4021,0,0,1,0,0,1,2,1,0,0,1,1,0,0,4028,
scooby_state_40f7c0|41|1 4002,1,0,0,0,0,0,1,1,2,0,0,0,1,1,4009,
scooby_state_40f7c0|56|1 3998,1,1,0,0,0,0,0,0,1,0,1,0,1,1,4004,
scooby_state_40f7c0|46|1 3997,0,0,0,0,0,0,1,2,1,0,0,1,0,0,4002,
scooby_state_40f7c0|63|1 3960,1,1,0,0,0,0,1,1,1,0,1,2,0,1,3969,
scooby_state_40f7c0|12|1 3928,0,0,1,1,1,1,1,0,0,0,1,0,1,0,3935,
scooby_state_40f7c0|7|1 3929,1,0,0,0,0,0,0,1,0,0,1,0,0,0,3932,
scooby_state_40f7c0|17|1 3922,0,1,0,2,1,1,1,0,0,1,0,1,2,0,3932,
scooby_state_40f7c0|2|1 3621,1,1,1,0,0,0,0,1,0,0,1,0,0,3,3629,
scooby_state_40f70f|36|1 3210,0,2,0,0,0,0,1,1,2,0,1,1,0,0,3218,
scooby_state_40f70f|31|1 3214,0,0,1,0,0,0,0,0,1,0,0,0,0,0,3216,
scooby_state_40f70f|26|1 3206,0,1,0,2,0,0,0,1,1,0,0,0,1,0,3212,
scooby_state_40f7c0|0|-63 3200,0,0,1,1,0,0,0,0,1,0,1,0,0,0,3204,
scooby_state_40f70f|34|1 3183,0,1,0,1,0,0,0,0,2,1,0,1,0,0,3189,
scooby_state_40f70f|29|1 3184,1,1,2,0,0,0,0,0,0,1,0,0,0,0,3189,
scooby_state_40f70f|24|1 3185,0,0,0,0,0,1,0,0,0,0,0,0,0,0,3186,
scooby_state_40f70f|51|1 3180,0,2,0,2,0,0,0,0,0,0,1,0,0,1,3186,
scooby_state_40f70f|41|1 3182,0,0,1,0,1,0,0,0,0,0,0,0,0,1,3185,
scooby_state_40f70f|46|1 3173,1,0,1,1,1,0,0,1,0,2,0,0,0,0,3180,
scooby_state_40f70f|39|1 3151,1,0,2,0,0,0,1,0,1,0,0,1,0,1,3158,
scooby_state_40f70f|44|1 3152,0,1,1,0,0,0,0,0,1,0,0,0,0,0,3155,
scooby_state_40f70f|49|1 3151,1,1,0,1,0,0,0,0,0,0,0,0,0,0,3154,
scooby_state_40f70f|17|1 3077,0,1,0,1,0,1,0,0,0,0,0,0,0,0,3080,
scooby_state_40f70f|12|1 3073,2,1,1,0,0,1,0,0,1,0,0,0,0,0,3079,
scooby_state_40f70f|7|1 3076,0,0,0,1,1,1,0,0,0,0,0,0,0,0,3079,
scooby_state_40f70f|2|1 3071,0,0,2,0,0,0,2,0,0,0,1,0,1,1,3078,
scooby_state_40f70f|27|1 3049,0,0,0,1,0,0,0,0,0,0,0,0,1,0,3051,
scooby_state_40f70f|22|1 3048,0,0,0,1,0,0,1,0,0,0,0,0,0,0,3050,
scooby_state_40f70f|35|1 3044,1,0,0,0,0,0,1,0,1,0,0,0,0,0,3047,
scooby_state_40f70f|37|1 3040,1,0,0,0,0,0,0,0,0,1,0,0,3,2,3047,
scooby_state_40f70f|32|1 3043,0,1,0,0,1,0,0,0,0,1,0,0,1,0,3047,
scooby_state_40f70f|30|1 3041,0,0,0,1,1,1,0,0,0,1,1,1,0,0,3047,
scooby_state_40f70a|34|1 2914,1,0,1,0,0,0,2,0,0,0,1,0,0,1,2920,
scooby_state_40f70a|24|1 2908,1,0,2,2,0,1,0,0,0,2,0,0,0,0,2916,
scooby_state_40f70a|44|1 2907,2,0,1,0,0,2,2,0,0,0,0,0,0,1,2915,
scooby_state_40f70a|29|1 2907,0,2,0,1,0,0,0,2,0,0,0,2,0,0,2914,
scooby_state_40f70a|39|1 2904,0,1,0,0,0,1,1,0,1,0,1,0,1,0,2910,
scooby_state_40f70a|19|1 2905,0,0,0,1,0,1,0,0,0,0,0,0,0,1,2908,
scooby_state_40f70a|49|1 2904,0,0,0,0,1,0,0,0,0,0,0,1,1,1,2908,
scooby_state_40f70a|12|1 2900,1,0,0,1,0,0,1,0,0,0,0,0,0,2,2905,
scooby_state_40f70a|36|1 2901,0,0,0,0,0,0,0,0,0,1,0,1,0,0,2903,
scooby_state_40f70a|41|1 2898,1,0,0,1,1,1,0,0,0,0,0,0,0,0,2902,
scooby_state_40f70a|51|1 2893,0,1,0,0,2,0,0,1,0,0,1,1,0,1,2900,
scooby_state_40f70a|46|1 2891,1,1,0,2,1,0,0,0,1,0,1,0,0,1,2899,
scooby_state_40f70a|61|1 2894,0,0,0,0,0,0,0,1,1,0,0,1,0,2,2899,
scooby_state_40f70a|59|1 2894,0,1,0,0,0,0,0,0,0,0,2,1,1,0,2899,
scooby_state_40f70a|9|1 2889,0,0,3,0,1,0,0,0,0,0,2,0,0,0,2895,
scooby_state_40f70a|26|1 2888,0,0,1,0,1,0,1,1,0,1,0,1,0,0,2894,
scooby_state_40f70a|56|1 2887,1,0,0,0,0,2,0,0,1,0,0,1,0,0,2892,
scooby_state_40f70a|47|1 2882,0,0,1,1,0,1,0,1,3,0,0,0,1,0,2890,
scooby_state_40f70a|42|1 2888,1,0,0,0,0,0,1,0,0,0,0,0,0,0,2890,
scooby_state_40f70a|14|1 2884,1,1,0,0,0,0,1,1,0,1,0,0,0,1,2890,
scooby_state_40f70a|17|1 2885,0,0,1,0,0,0,0,0,0,0,0,0,0,0,2886,
scooby_state_40f70a|27|1 2878,0,0,1,0,0,0,1,1,1,0,0,0,1,2,2885,
scooby_state_40f70a|22|1 2878,1,0,1,0,1,0,1,0,1,0,0,0,0,1,2884,
scooby_state_40f70a|48|1 2881,0,0,0,1,0,0,0,0,1,0,0,1,0,0,2884,
scooby_state_40f70f|21|1 2878,1,0,0,0,0,0,0,0,0,1,0,0,0,2,2882,
scooby_state_40f70a|43|1 2877,0,0,0,0,1,0,1,1,0,0,0,0,0,0,2880,
scooby_state_40f70f|16|1 2878,0,0,0,0,1,0,0,0,0,0,1,0,0,0,2880,
scooby_state_40f70f|4|1 2873,0,1,0,0,0,1,0,1,1,0,1,1,1,0,2880,
scooby_state_40f70f|9|1 2874,0,1,1,0,1,0,1,0,1,0,1,0,0,0,2880,
scooby_state_40f70f|19|1 2879,0,0,1,0,0,0,0,0,0,0,0,0,0,0,2880,
scooby_state_40f70a|58|1 2870,1,0,0,0,2,1,0,1,0,0,1,0,1,2,2879,
scooby_state_40f70f|6|1 2877,0,1,0,0,0,0,0,0,0,0,0,0,1,0,2879,
scooby_state_40f70f|11|1 2874,0,0,0,0,0,0,0,2,0,1,1,0,0,0,2878,
scooby_state_40f70f|56|1 2874,1,1,0,0,0,0,0,0,1,0,0,0,0,0,2877,
scooby_state_40f70a|54|1 2874,0,0,0,0,1,0,0,0,0,1,0,0,0,1,2877,
scooby_state_40f70f|14|1 2871,1,0,0,0,0,0,1,1,0,1,0,1,1,0,2877,
scooby_state_40f70a|31|1 2871,1,0,0,0,0,0,1,1,0,0,0,1,0,0,2875,
scooby_state_40f70a|53|1 2870,0,0,0,0,1,0,1,1,1,0,0,0,0,0,2874,
scooby_state_40f70a|28|1 2868,0,2,0,0,1,1,1,0,0,0,0,0,0,0,2873,
scooby_state_40f70a|7|1 2867,0,0,0,1,0,0,1,0,0,0,2,1,1,0,2873,
scooby_state_40f70a|2|1 2868,0,0,1,0,0,0,0,1,0,1,0,0,0,0,2871,
scooby_state_40f70a|32|1 2864,0,1,0,2,1,1,0,0,0,0,0,0,0,0,2869,
scooby_state_40f70a|45|1 2863,1,0,0,0,0,0,0,1,1,0,0,0,1,0,2867,
scooby_state_40f70a|4|1 2863,0,0,0,0,1,0,0,0,0,0,0,2,0,0,2866,
scooby_state_40f70a|40|1 2860,0,0,1,0,1,0,0,1,1,1,0,0,0,0,2865,
scooby_state_40f70a|52|1 2861,1,0,0,0,0,0,0,0,1,0,0,0,0,1,2864,
scooby_state_40f70a|21|1 2853,1,2,0,0,1,3,0,1,1,0,0,0,1,0,2863,
scooby_state_40f70a|35|1 2858,2,0,0,1,0,0,0,0,1,0,0,0,0,1,2863,
scooby_state_40f70a|37|1 2853,0,0,0,3,0,1,0,0,0,0,1,1,0,1,2860,
scooby_state_40f70a|50|1 2851,1,2,0,0,0,1,0,0,1,1,0,1,1,0,2859,
scooby_state_40f70a|63|1 2852,0,1,0,0,0,0,0,0,0,0,2,0,0,0,2855,
scooby_state_40f70a|25|1 2843,0,0,1,0,1,0,0,0,0,1,0,1,1,1,2849,
scooby_state_40f70f|10|1 2844,1,2,0,0,0,1,0,0,0,0,1,0,0,0,2849,
scooby_state_40f70f|15|1 2845,0,1,0,0,0,0,0,1,0,2,0,0,0,0,2849,
scooby_state_40f70a|23|1 2845,0,1,0,0,1,0,0,0,0,0,1,0,0,0,2848,
scooby_state_40f70a|15|1 2845,1,0,0,0,0,0,0,0,1,0,0,0,0,1,2848,
scooby_state_40f70f|25|1 2844,0,0,0,0,0,1,1,0,0,1,0,0,0,0,2847,
scooby_state_40f70a|38|1 2842,0,1,0,1,0,0,0,1,0,0,0,1,1,0,2847,
scooby_state_40f70f|54|1 2842,0,1,0,0,1,0,0,0,0,1,0,0,0,0,2845,
scooby_state_40f70f|5|1 2837,0,0,1,0,1,1,0,0,0,0,1,3,0,0,2844,
scooby_state_40f70a|33|1 2837,0,0,0,1,0,2,2,0,0,0,1,0,0,0,2843,
scooby_state_40f70f|20|1 2841,1,0,0,0,0,0,0,0,0,0,1,0,0,0,2843,
scooby_state_40f70a|10|1 2833,1,0,1,0,0,0,0,0,0,0,2,1,2,1,2841,
scooby_state_40f70a|16|1 2831,2,1,1,0,0,1,1,1,0,1,0,0,0,0,2839,
scooby_state_40f70a|5|1 2833,0,0,0,1,1,0,1,1,0,0,0,0,1,1,2839,
scooby_state_40f70a|18|1 2835,1,0,0,0,1,0,0,1,1,0,0,0,0,0,2839,
scooby_state_40f70a|60|1 2836,0,0,1,0,0,1,0,0,0,0,0,0,0,0,2838,
scooby_state_40f70a|20|1 2830,0,2,0,2,1,1,0,1,0,0,0,0,0,0,2837,
scooby_state_40f70a|30|1 2829,2,0,0,0,1,0,1,0,1,0,2,0,0,0,2836,
scooby_state_40f70a|55|1 2832,0,0,0,0,0,0,1,0,0,0,0,0,0,1,2834,
scooby_state_40f70a|57|1 2832,0,0,0,0,0,0,0,0,0,1,0,0,0,0,2833,
scooby_state_40f70a|0|0 2821,1,3,0,0,0,1,0,0,0,1,1,0,0,1,2829,
scooby_state_40f70a|11|1 2822,0,0,1,2,0,0,1,0,0,0,0,0,0,1,2827,
scooby_state_40f70a|62|1 2817,1,0,1,0,1,2,0,0,0,2,0,1,1,1,2827,
scooby_state_40f70a|1|1 2815,1,0,2,1,0,1,0,0,0,0,0,0,0,0,2820,
scooby_state_40f70a|3|1 2809,0,0,0,0,0,0,0,0,1,0,1,0,0,1,2812,
scooby_state_40f70a|6|1 2803,0,0,0,2,0,0,2,2,1,0,0,0,0,0,2810,
scooby_state_40f70a|8|1 2807,1,0,0,0,0,0,0,0,1,0,0,0,1,0,2810,
scooby_state_40f70a|13|1 2800,0,0,0,0,0,0,1,0,0,1,0,0,1,0,2803,
scooby_state_40f70f|50|1 2737,1,1,0,0,0,0,0,1,0,0,0,0,0,0,2740,
scooby_state_40f70f|57|1 2733,0,0,0,3,0,1,1,0,0,0,2,0,0,0,2740,
scooby_state_40f70f|33|1 2734,1,1,0,0,1,0,0,0,1,1,0,0,0,1,2740,
scooby_state_40f70f|40|1 2735,0,1,1,1,0,1,0,0,0,0,1,0,0,0,2740,
scooby_state_40f70f|48|1 2737,0,1,1,0,0,0,0,0,0,1,0,0,0,0,2740,
scooby_state_40f70f|45|1 2736,0,0,1,0,0,0,1,0,1,0,0,0,1,0,2740,
scooby_state_40f70f|43|1 2738,2,0,0,0,0,0,0,0,0,0,0,0,0,0,2740,
scooby_state_40f70f|42|1 2732,0,1,0,1,1,1,1,0,0,1,0,0,1,0,2739,
scooby_state_40f70f|28|1 2734,1,0,1,0,0,0,0,1,0,0,0,0,2,0,2739,
scooby_state_40f70f|53|1 2735,0,0,1,1,0,1,0,0,0,0,0,0,1,0,2739,
scooby_state_40f70f|47|1 2733,0,0,0,0,1,0,0,0,2,0,1,0,0,1,2738,
scooby_state_40f70f|52|1 2734,0,1,0,0,0,0,1,0,0,1,0,1,0,0,2738,
scooby_state_40f70f|55|1 2734,0,0,0,2,0,0,2,0,0,0,0,0,0,0,2738,
scooby_state_40f70f|58|1 2733,0,0,0,0,0,1,0,1,0,0,1,0,1,0,2737,
scooby_state_40f70f|38|1 2728,0,1,1,0,1,0,1,0,0,0,0,0,2,1,2735,
scooby_state_40f70f|3|1 2540,1,0,0,0,0,0,0,1,0,0,0,0,0,1,2543,
scooby_state_40f70f|8|1 2537,0,1,1,0,0,0,1,1,0,0,1,0,0,0,2542,
scooby_state_40f70f|63|1 2534,1,0,0,1,0,0,0,1,0,1,1,0,0,1,2540,
scooby_state_40f70f|18|1 2532,0,0,0,1,0,0,1,0,1,1,1,0,1,1,2539,
scooby_state_40f70f|1|1 2536,0,0,0,0,0,0,0,0,1,0,2,0,0,0,2539,
scooby_state_40f70f|59|1 2535,0,0,1,0,0,0,0,0,1,1,1,0,0,0,2539,
scooby_state_40f70f|23|1 2531,1,1,0,0,1,0,2,0,1,0,0,0,1,0,2538,
scooby_state_40f70f|13|1 2531,1,1,0,0,0,0,1,0,0,1,1,0,0,0,2536,
scooby_state_40f70f|62|1 2504,0,1,0,1,0,0,0,0,0,0,0,0,0,2,2508,
scooby_state_40f70f|0|-63 2454,2,0,0,0,0,0,0,1,2,1,0,0,0,0,2460,
scooby_state_40f70f|61|1 2334,1,0,0,0,0,0,2,0,0,2,0,0,1,0,2340,
scooby_state_40f70f|60|1 2231,0,0,0,1,1,1,0,0,0,0,0,1,0,0,2235,
scooby_state_a52170|32|1 732,8,8,8,8,9,8,8,9,8,6,8,8,8,13,849,
scooby_state_a52213|61|0 325,31,30,30,29,30,30,29,30,29,30,45,44,44,91,847,
scooby_state_40f8e0|31|-1 830,0,0,0,0,0,0,0,0,0,0,0,0,0,0,830,
scooby_state_a4c41d|23|0 322,36,31,34,32,35,32,33,32,32,31,32,32,33,53,800,
scooby_state_a4c443|60|0 360,18,15,13,17,14,17,11,14,12,13,18,21,19,47,609,
scooby_state_40d3ff|63|0 105,193,18,19,19,16,15,16,16,15,17,28,19,24,78,598,
scooby_state_a522f2|43|0 243,29,24,27,24,22,20,17,20,17,19,24,25,25,61,597,
scooby_state_a522bb|10|0 589,0,0,0,0,0,0,0,0,0,0,0,0,0,0,589,
scooby_state_a522b6|36|1 582,0,0,0,0,1,0,0,0,0,0,0,0,1,0,584,
scooby_state_a52334|35|-1 34,38,38,40,37,37,37,38,39,25,25,38,37,36,77,576,
scooby_state_40d494|40|0 149,25,25,21,25,22,24,22,21,21,15,24,22,22,57,495,
scooby_state_40f7b0|19|-1 0,340,0,0,0,0,0,0,0,0,0,0,0,0,0,340,
scooby_state_40f8cc|2|-61 338,0,0,1,0,0,0,0,0,0,0,0,0,0,0,339,
scooby_state_40f70f|21|2 339,0,0,0,0,0,0,0,0,0,0,0,0,0,0,339,
scooby_state_40f89a|41|0 338,0,0,0,0,0,0,0,0,0,0,0,0,1,0,339,
scooby_state_40f7b0|1|-1 0,333,0,0,0,0,0,0,0,0,0,0,0,0,0,333,
scooby_state_40f7c0|3|2 316,0,0,0,0,0,0,0,0,0,0,0,0,0,0,316,
scooby_state_40f7c0|0|-20 315,0,0,0,0,0,0,0,0,0,0,0,0,0,0,315,
scooby_state_40f89a|42|0 307,0,0,0,0,0,0,0,0,0,0,0,0,0,0,307,
scooby_state_40f70f|0|-38 305,1,0,0,0,0,1,0,0,0,0,0,0,0,0,307,
scooby_state_40f8cc|20|-43 307,0,0,0,0,0,0,0,0,0,0,0,0,0,0,307,
scooby_state_a52334|35|0 1,18,18,19,17,18,18,18,18,12,13,18,18,17,38,261,
scooby_state_40f534|61|0 239,1,0,0,0,0,0,0,0,0,0,0,0,0,0,240,
scooby_state_40f534|61|-1 211,0,0,0,0,0,0,0,0,0,0,0,0,0,0,211,
scooby_state_40f8cc|26|0 16,10,9,9,9,9,10,8,9,8,9,9,9,9,68,201,
scooby_state_40f534|21|1 201,0,0,0,0,0,0,0,0,0,0,0,0,0,0,201,
scooby_state_40f7b0|61|-1 1,199,0,0,0,0,0,0,0,0,0,0,0,0,0,200,
scooby_state_40f7b0|25|-1 1,199,0,0,0,0,0,0,0,0,0,0,0,0,0,200,
scooby_state_40f534|20|-16 197,0,0,0,0,0,0,0,0,0,0,0,0,0,0,197,
scooby_state_40f89a|23|0 54,10,10,10,10,10,10,9,10,10,9,9,9,10,17,197,
scooby_state_40f7c0|27|2 196,0,0,0,0,0,0,0,0,0,0,0,0,0,0,196,
scooby_state_40f534|36|-16 193,0,0,0,0,0,0,0,0,0,0,0,0,0,0,193,
scooby_state_40f7c0|0|-60 186,0,0,0,0,0,0,0,0,0,0,0,0,0,0,186,
scooby_state_40f7c0|62|-1 185,0,0,0,0,0,0,0,0,0,0,0,0,0,0,185,
scooby_state_40f7c0|63|2 179,0,0,0,0,0,0,1,0,0,0,0,0,0,0,180,
scooby_state_40f534|38|1 170,0,0,0,0,0,0,0,0,0,0,0,0,0,0,170,
scooby_state_40f534|33|1 168,0,0,0,0,0,0,0,0,0,0,0,0,0,0,168,
scooby_state_40f534|23|1 166,0,0,0,0,0,0,0,0,0,0,0,0,0,0,166,
scooby_state_40f534|5|1 164,0,0,0,0,0,0,0,0,0,1,0,0,0,0,165,
scooby_state_40f534|28|1 160,0,0,0,0,0,0,0,0,0,0,0,0,0,0,160,
scooby_state_40f7c0|26|-35 157,0,0,0,0,0,0,0,1,0,0,0,0,0,0,158,
scooby_state_40f7c0|0|0 158,0,0,0,0,0,0,0,0,0,0,0,0,0,0,158,
scooby_state_40f534|30|1 157,0,0,0,0,0,0,0,0,0,0,0,0,0,0,157,
scooby_state_40f534|32|1 156,0,0,0,0,0,0,0,0,0,0,0,0,0,0,156,
scooby_state_40f534|43|1 156,0,0,0,0,0,0,0,0,0,0,0,0,0,0,156,
scooby_state_40f534|47|1 155,0,0,0,0,0,0,0,0,0,0,0,0,0,0,155,
scooby_state_40f534|52|1 151,0,0,0,0,1,0,0,0,0,0,0,0,0,0,152,
scooby_state_40f534|13|1 152,0,0,0,0,0,0,0,0,0,0,0,0,0,0,152,
scooby_state_40f534|15|1 148,0,0,0,0,0,0,0,0,0,0,1,0,0,0,149,
scooby_state_40f534|22|1 148,0,0,0,0,0,0,1,0,0,0,0,0,0,0,149,
scooby_state_40f534|27|1 147,0,0,0,0,0,0,0,1,0,0,0,0,0,0,148,
scooby_state_40f534|18|1 146,0,0,0,0,0,0,0,0,0,0,0,0,0,0,146,
scooby_state_40f534|7|1 146,0,0,0,0,0,0,0,0,0,0,0,0,0,0,146,
scooby_state_40f534|26|1 146,0,0,0,0,0,0,0,0,0,0,0,0,0,0,146,
scooby_state_40f534|50|1 145,0,0,0,0,0,0,0,0,0,0,0,0,0,0,145,
scooby_state_40f534|8|1 143,0,0,0,1,0,0,0,1,0,0,0,0,0,0,145,
scooby_state_40f534|60|1 143,0,0,0,0,0,0,0,0,0,0,0,0,0,0,143,
scooby_state_40f534|40|1 141,0,0,0,0,0,0,0,0,1,0,0,0,0,0,142,
scooby_state_40f534|37|1 142,0,0,0,0,0,0,0,0,0,0,0,0,0,0,142,
scooby_state_40f534|11|1 142,0,0,0,0,0,0,0,0,0,0,0,0,0,0,142,
scooby_state_40f534|48|1 141,0,0,0,0,0,0,0,0,0,0,0,0,0,0,141,
scooby_state_40f534|17|1 140,0,0,1,0,0,0,0,0,0,0,0,0,0,0,141,
scooby_state_40f534|14|1 140,0,0,0,0,0,0,0,0,0,0,0,0,0,0,140,
scooby_state_40f534|12|1 140,0,0,0,0,0,0,0,0,0,0,0,0,0,0,140,
scooby_state_40f534|46|1 138,0,0,0,0,0,1,0,0,0,0,0,0,0,0,139,
scooby_state_40f534|25|1 139,0,0,0,0,0,0,0,0,0,0,0,0,0,0,139,
scooby_state_40f534|1|1 138,0,0,0,0,0,0,0,0,0,0,0,0,0,0,138,
scooby_state_40f534|62|1 138,0,0,0,0,0,0,0,0,0,0,0,0,0,0,138,
scooby_state_40f534|20|1 136,0,0,0,0,0,0,0,0,0,0,0,0,0,0,136,
scooby_state_40f534|58|1 135,0,0,0,0,0,0,0,0,0,0,0,0,0,0,135,
scooby_state_40f7c0|20|-16 133,0,1,0,0,0,0,0,0,0,0,0,0,0,0,134,
scooby_state_40f534|31|1 133,0,0,0,0,0,0,0,0,0,0,0,0,0,0,133,
scooby_state_40f534|57|1 132,0,0,0,1,0,0,0,0,0,0,0,0,0,0,133,
scooby_state_40f534|36|1 133,0,0,0,0,0,0,0,0,0,0,0,0,0,0,133,
scooby_state_40f534|42|1 132,0,0,0,0,0,0,0,0,0,0,0,0,0,0,132,
scooby_state_40f534|56|1 132,0,0,0,0,0,0,0,0,0,0,0,0,0,0,132,
scooby_state_40d494|4|0 79,4,2,5,4,4,4,4,3,2,2,6,3,3,6,131,
scooby_state_40f534|53|1 131,0,0,0,0,0,0,0,0,0,0,0,0,0,0,131,
scooby_state_40f534|19|1 130,0,0,0,0,0,0,0,0,0,0,0,0,0,0,130,
scooby_state_40f534|41|1 128,0,0,0,0,0,0,0,0,0,0,0,1,0,0,129,
scooby_state_40f534|4|1 128,1,0,0,0,0,0,0,0,0,0,0,0,0,0,129,
scooby_state_40f534|10|1 127,0,0,0,0,0,0,0,0,0,0,0,0,0,0,127,
scooby_state_40f534|24|1 126,0,0,0,0,0,0,0,0,0,0,0,0,0,0,126,
scooby_state_40f534|59|1 126,0,0,0,0,0,0,0,0,0,0,0,0,0,0,126,
scooby_state_40f534|35|1 125,0,0,0,0,0,0,0,0,0,0,0,0,0,0,125,
scooby_state_40f534|54|1 123,0,0,0,0,0,0,0,0,0,0,0,0,0,0,123,
scooby_state_40f534|3|1 122,0,0,0,0,0,0,0,0,0,0,0,0,0,0,122,
scooby_state_40f534|9|1 122,0,0,0,0,0,0,0,0,0,0,0,0,0,0,122,
scooby_state_40f534|6|1 121,0,0,0,0,0,0,0,0,0,0,0,0,0,0,121,
scooby_state_40f534|55|1 120,0,0,0,0,0,0,0,0,0,0,0,0,0,0,120,
scooby_state_40f534|16|1 119,0,1,0,0,0,0,0,0,0,0,0,0,0,0,120,
scooby_state_40f534|29|1 118,0,0,0,0,0,0,0,0,0,0,0,0,0,0,118,
scooby_state_40f534|45|1 116,0,0,0,0,0,0,0,0,0,0,0,0,0,0,116,
scooby_state_40f7c0|36|-16 114,0,0,0,0,0,0,0,0,0,0,0,0,0,0,114,
scooby_state_40f534|63|1 108,0,0,0,0,0,0,0,0,0,0,0,0,0,0,108,
scooby_state_40f534|61|1 108,0,0,0,0,0,0,0,0,0,0,0,0,0,0,108,
scooby_state_40f534|2|1 107,0,0,0,1,0,0,0,0,0,0,0,0,0,0,108,
scooby_state_40f534|51|1 108,0,0,0,0,0,0,0,0,0,0,0,0,0,0,108,
scooby_state_40f534|34|1 107,0,0,0,0,0,0,0,0,0,0,0,0,0,0,107,
scooby_state_40f534|49|1 106,0,0,0,0,0,0,0,0,0,0,0,0,0,0,106,
scooby_state_40f7c0|61|0 100,0,0,0,0,0,0,0,0,0,0,0,0,0,0,100,
scooby_state_40f534|44|1 96,0,0,0,0,0,0,0,0,0,0,0,0,0,0,96,
scooby_state_40f534|39|1 96,0,0,0,0,0,0,0,0,0,0,0,0,0,0,96,
scooby_state_a52221|0|0 95,0,0,0,0,0,0,0,0,0,0,0,0,0,0,95,
scooby_state_40f7c0|61|-1 95,0,0,0,0,0,0,0,0,0,0,0,0,0,0,95,
scooby_state_40f70f|0|0 82,0,0,0,0,0,0,0,0,0,0,0,0,0,0,82,
scooby_state_a4c443|17|0 52,3,1,4,1,2,1,1,1,2,1,2,3,2,6,82,
scooby_state_40f534|0|-63 78,0,0,0,0,0,0,0,0,0,0,0,1,0,0,79,
scooby_state_a52221|61|1 69,1,0,0,0,1,0,0,0,1,0,1,0,0,0,73,
scooby_state_a52221|43|1 68,0,0,0,0,0,0,0,1,1,0,0,0,0,0,70,
scooby_state_a52221|44|1 68,0,0,0,0,0,0,0,0,0,0,0,0,0,0,68,
scooby_state_40d3ff|44|0 11,14,3,1,3,4,2,2,3,1,2,1,3,3,11,64,
scooby_state_a52221|4|1 63,0,1,0,0,0,0,0,0,0,0,0,0,0,0,64,
scooby_state_a52221|5|1 61,0,0,1,0,0,0,0,0,0,0,0,0,1,0,63,
scooby_state_a522f2|19|0 34,5,2,1,2,1,1,2,4,1,4,0,2,1,2,62,
scooby_state_a522b6|12|0 22,3,4,3,1,3,2,3,2,3,2,3,3,3,4,61,
scooby_state_a52221|1|1 56,1,0,0,0,0,0,0,0,0,0,1,0,1,0,59,
scooby_state_a522bb|23|0 59,0,0,0,0,0,0,0,0,0,0,0,0,0,0,59,
scooby_state_40f7b9|11|0 59,0,0,0,0,0,0,0,0,0,0,0,0,0,0,59,
scooby_state_a52221|17|1 55,0,0,0,0,0,0,0,0,0,0,1,0,0,0,56,
scooby_state_a52221|3|1 51,0,0,2,0,0,0,0,0,0,0,1,0,0,0,54,
scooby_state_a52221|20|1 53,0,0,0,0,0,0,0,0,0,0,0,0,0,0,53,
scooby_state_a52221|60|1 51,0,0,0,0,1,0,0,0,1,0,0,0,0,0,53,
scooby_state_a4c43f|23|0 9,3,3,3,3,3,3,3,3,3,3,3,3,3,4,52,
scooby_state_a52221|15|1 50,0,0,0,1,0,0,0,0,1,0,0,0,0,0,52,
scooby_state_a52221|27|1 51,0,0,0,0,0,0,0,0,0,0,0,0,0,0,51,
scooby_state_a4c443|27|0 25,3,0,0,2,1,0,1,2,3,1,1,2,3,6,50,
scooby_state_a52221|55|1 47,0,0,0,0,0,0,0,0,0,0,0,2,0,0,49,
scooby_state_a52221|16|1 49,0,0,0,0,0,0,0,0,0,0,0,0,0,0,49,
scooby_state_a52221|62|1 47,1,0,0,0,0,0,0,0,0,0,0,0,0,0,48,
scooby_state_a52221|51|1 46,0,0,0,0,0,0,0,0,1,0,1,0,0,0,48,
scooby_state_a52221|35|1 48,0,0,0,0,0,0,0,0,0,0,0,0,0,0,48,
scooby_state_a52221|40|1 45,0,0,0,0,0,0,0,0,1,0,1,0,1,0,48,
scooby_state_a52221|26|1 46,1,0,0,0,0,0,0,0,0,0,1,0,0,0,48,
scooby_state_a52221|57|1 46,0,0,0,0,0,0,0,0,0,0,1,0,0,1,48,
scooby_state_a52221|42|1 45,1,0,0,0,0,0,1,0,0,0,0,0,0,0,47,
scooby_state_a52221|48|1 46,0,0,0,0,0,0,0,0,1,0,0,0,0,0,47,
scooby_state_40f7b9|13|0 46,0,0,0,0,0,0,0,0,0,0,0,0,0,0,46,
scooby_state_40f7b9|33|0 46,0,0,0,0,0,0,0,0,0,0,0,0,0,0,46,
scooby_state_a4c443|19|0 27,1,1,0,1,1,1,1,2,2,1,1,0,0,7,46,
scooby_state_40f7b9|41|0 46,0,0,0,0,0,0,0,0,0,0,0,0,0,0,46,
scooby_state_a52221|54|1 42,0,0,0,0,0,0,0,0,1,0,1,1,0,0,45,
scooby_state_a52221|46|1 44,0,0,0,0,0,0,0,0,1,0,0,0,0,0,45,
scooby_state_a52221|36|1 44,0,0,0,0,0,0,0,0,0,0,1,0,0,0,45,
scooby_state_a52221|49|1 42,0,0,0,1,0,0,0,0,1,0,0,0,0,0,44,
scooby_state_a52221|56|1 44,0,0,0,0,0,0,0,0,0,0,0,0,0,0,44,
scooby_state_a52221|45|1 44,0,0,0,0,0,0,0,0,0,0,0,0,0,0,44,
scooby_state_a52221|50|1 43,0,0,0,0,0,0,0,0,0,0,1,0,0,0,44,
scooby_state_a52221|13|1 43,0,0,0,0,0,0,0,0,0,0,1,0,0,0,44,
scooby_state_40f7b9|9|0 44,0,0,0,0,0,0,0,0,0,0,0,0,0,0,44,
scooby_state_40f7b9|7|0 43,0,0,0,0,0,0,0,0,0,0,0,0,0,0,43,
scooby_state_a52221|14|1 40,0,0,0,0,0,0,0,0,1,0,0,1,0,0,42,
scooby_state_a52221|39|1 39,0,0,0,0,0,0,1,0,2,0,0,0,0,0,42,
scooby_state_40f7b9|2|0 42,0,0,0,0,0,0,0,0,0,0,0,0,0,0,42,
scooby_state_a52221|21|1 40,0,0,0,1,0,0,0,0,0,0,0,0,0,1,42,
scooby_state_a52221|28|1 42,0,0,0,0,0,0,0,0,0,0,0,0,0,0,42,
scooby_state_a52221|29|1 41,0,0,0,0,0,0,0,0,0,0,0,0,0,1,42,
scooby_state_40f7b9|35|0 41,0,0,0,0,0,0,0,0,0,0,0,0,0,0,41,
scooby_state_a52221|2|1 40,0,0,0,0,0,0,0,0,0,0,1,0,0,0,41,
scooby_state_40f7b9|34|0 41,0,0,0,0,0,0,0,0,0,0,0,0,0,0,41,
scooby_state_a52221|38|1 38,0,0,0,0,0,1,0,0,1,0,0,0,0,0,40,
scooby_state_a4c443|46|0 23,2,1,0,1,0,1,1,0,1,0,1,2,0,7,40,
scooby_state_a52221|37|1 39,0,0,0,1,0,0,0,0,0,0,0,0,0,0,40,
scooby_state_40f7b9|25|0 40,0,0,0,0,0,0,0,0,0,0,0,0,0,0,40,
scooby_state_a52221|18|1 37,0,0,0,1,0,0,0,0,0,0,1,0,1,0,40,
scooby_state_a52221|58|1 38,0,0,0,0,0,0,1,0,0,0,0,0,0,0,39,
scooby_state_a52221|63|1 38,0,0,0,0,0,0,0,0,0,0,0,0,1,0,39,
scooby_state_a52221|41|1 37,0,1,0,0,0,0,0,0,1,0,0,0,0,0,39,
scooby_state_40f7b9|16|0 39,0,0,0,0,0,0,0,0,0,0,0,0,0,0,39,
scooby_state_a52221|34|1 39,0,0,0,0,0,0,0,0,0,0,0,0,0,0,39,
scooby_state_a52221|47|1 38,0,0,0,0,0,0,0,0,0,1,0,0,0,0,39,
scooby_state_a52221|25|1 36,0,0,0,0,0,0,0,0,0,0,1,0,0,1,38,
scooby_state_a52221|52|1 37,0,0,0,0,0,0,0,0,1,0,0,0,0,0,38,
scooby_state_40f7b9|62|0 37,0,0,0,0,0,0,0,0,0,0,0,0,0,0,37,
scooby_state_a52221|19|1 36,0,0,0,0,0,0,0,0,0,0,1,0,0,0,37,
scooby_state_a52221|22|1 36,0,0,0,1,0,0,0,0,0,0,0,0,0,0,37,
scooby_state_a52221|59|1 35,1,0,0,0,0,0,0,0,0,0,0,0,1,0,37,
scooby_state_40f7b9|3|0 36,0,0,0,0,0,0,0,0,0,0,0,0,0,0,36,
scooby_state_40f7b9|24|0 36,0,0,0,0,0,0,0,0,0,0,0,0,0,0,36,
scooby_state_40f7b9|30|0 36,0,0,0,0,0,0,0,0,0,0,0,0,0,0,36,
scooby_state_a52221|30|1 36,0,0,0,0,0,0,0,0,0,0,0,0,0,0,36,
scooby_state_a4c443|48|0 22,1,2,1,0,0,0,1,2,0,1,1,3,0,2,36,
scooby_state_a4c443|37|0 25,1,3,0,0,2,0,0,0,2,0,0,0,1,2,36,
scooby_state_40f7b9|12|0 34,0,0,0,0,0,0,0,0,0,0,1,0,0,0,35,
scooby_state_a4c443|57|0 24,1,0,0,1,0,1,2,1,0,1,0,0,2,2,35,
scooby_state_40f7b9|27|0 35,0,0,0,0,0,0,0,0,0,0,0,0,0,0,35,
scooby_state_40f7b9|1|0 35,0,0,0,0,0,0,0,0,0,0,0,0,0,0,35,
scooby_state_a4c443|61|0 23,0,2,1,0,2,0,1,0,0,1,1,0,0,4,35,
scooby_state_40f7b9|47|0 35,0,0,0,0,0,0,0,0,0,0,0,0,0,0,35,
scooby_state_a52221|53|1 34,0,0,0,0,0,0,0,0,1,0,0,0,0,0,35,
scooby_state_40f7b9|8|0 35,0,0,0,0,0,0,0,0,0,0,0,0,0,0,35,
scooby_state_a52221|6|1 33,0,0,0,1,0,0,0,0,0,0,0,0,0,0,34,
scooby_state_40f7b9|15|0 34,0,0,0,0,0,0,0,0,0,0,0,0,0,0,34,
scooby_state_a5221c|0|0 20,1,0,0,1,1,2,1,2,2,0,0,0,1,3,34,
scooby_state_a52221|9|1 32,0,0,0,0,0,1,0,0,0,0,1,0,0,0,34,
scooby_state_40f7b9|6|0 34,0,0,0,0,0,0,0,0,0,0,0,0,0,0,34,
scooby_state_a4c443|26|0 19,3,1,0,0,1,1,1,1,1,1,2,1,0,1,33,
scooby_state_a5221c|18|0 27,0,1,0,0,0,0,0,1,0,0,0,2,0,2,33,
scooby_state_40f7b9|18|0 32,0,0,0,0,0,0,0,0,0,0,0,0,0,0,32,
scooby_state_40f7b9|45|0 32,0,0,0,0,0,0,0,0,0,0,0,0,0,0,32,
scooby_state_40f7b9|20|0 32,0,0,0,0,0,0,0,0,0,0,0,0,0,0,32,
scooby_state_40f7b9|4|0 32,0,0,0,0,0,0,0,0,0,0,0,0,0,0,32,
scooby_state_a5221c|30|0 17,1,0,2,0,0,2,1,0,1,2,0,1,2,3,32,
scooby_state_a5221c|7|0 14,3,2,1,1,2,1,0,0,0,0,3,3,1,1,32,
scooby_state_a52221|8|1 30,0,0,0,0,0,1,0,0,0,1,0,0,0,0,32,
scooby_state_a4c443|62|0 18,1,0,2,1,1,0,2,0,0,1,1,2,0,2,31,
scooby_state_a52221|10|1 30,0,0,0,0,0,1,0,0,0,0,0,0,0,0,31,
scooby_state_a5221c|1|0 18,1,1,1,0,1,0,1,0,0,0,2,2,0,4,31,
scooby_state_40f7b9|28|0 31,0,0,0,0,0,0,0,0,0,0,0,0,0,0,31,
scooby_state_40f7b9|19|0 31,0,0,0,0,0,0,0,0,0,0,0,0,0,0,31,
scooby_state_a4c443|12|0 19,1,0,1,0,2,1,1,1,1,0,2,0,0,2,31,
scooby_state_40f7b9|63|0 31,0,0,0,0,0,0,0,0,0,0,0,0,0,0,31,
scooby_state_a4c443|0|0 18,0,0,0,1,2,1,1,1,0,1,2,0,1,2,30,
scooby_state_a52221|7|1 30,0,0,0,0,0,0,0,0,0,0,0,0,0,0,30,
scooby_state_a4c443|38|0 20,0,0,0,2,1,0,0,1,0,2,1,0,0,3,30,
scooby_state_a4c443|5|0 20,0,0,1,0,2,0,0,0,1,1,0,2,2,1,30,
scooby_state_40f7b9|44|0 30,0,0,0,0,0,0,0,0,0,0,0,0,0,0,30,
scooby_state_40f886|14|-1 0,30,0,0,0,0,0,0,0,0,0,0,0,0,0,30,
scooby_state_a4c443|15|0 16,0,2,2,1,2,0,0,0,1,1,2,1,0,2,30,
scooby_state_40f7b9|57|0 30,0,0,0,0,0,0,0,0,0,0,0,0,0,0,30,
scooby_state_a52221|33|1 28,0,0,0,0,1,0,0,0,1,0,0,0,0,0,30,
scooby_state_a5221c|6|0 15,1,1,2,0,1,0,1,1,1,1,1,1,2,2,30,
scooby_state_40f534|26|-35 30,0,0,0,0,0,0,0,0,0,0,0,0,0,0,30,
scooby_state_a52221|4|0 30,0,0,0,0,0,0,0,0,0,0,0,0,0,0,30,
scooby_state_40f7b9|40|0 30,0,0,0,0,0,0,0,0,0,0,0,0,0,0,30,
scooby_state_a52221|12|1 29,0,0,0,0,0,0,0,0,0,0,1,0,0,0,30,
scooby_state_a52221|13|0 29,0,0,0,0,0,0,0,0,0,0,0,0,0,0,29,
scooby_state_a52221|1|0 29,0,0,0,0,0,0,0,0,0,0,0,0,0,0,29,
scooby_state_40f7b9|5|0 29,0,0,0,0,0,0,0,0,0,0,0,0,0,0,29,
scooby_state_40f7b9|43|0 29,0,0,0,0,0,0,0,0,0,0,0,0,0,0,29,
scooby_state_40f7b9|14|0 29,0,0,0,0,0,0,0,0,0,0,0,0,0,0,29,
scooby_state_a5221c|9|0 24,1,0,0,0,0,1,1,0,0,0,1,0,1,0,29,
scooby_state_a5221c|11|0 20,2,0,0,1,0,0,0,0,0,0,2,2,0,2,29,
scooby_state_a4c443|59|0 21,1,1,0,1,0,1,0,1,1,0,0,0,1,1,29,
scooby_state_a52221|63|2 29,0,0,0,0,0,0,0,0,0,0,0,0,0,0,29,
scooby_state_a52221|31|1 28,0,0,0,0,0,0,0,0,0,0,0,0,0,0,28,
scooby_state_a5222e|62|-1 0,16,6,2,1,0,0,0,0,0,0,0,0,2,1,28,
scooby_state_40f7b9|38|0 28,0,0,0,0,0,0,0,0,0,0,0,0,0,0,28,
scooby_state_a52350|35|1 3,1,1,1,1,1,1,2,0,0,3,1,0,0,12,27,
scooby_state_a4c443|1|0 19,1,1,0,0,1,1,0,0,0,1,1,0,1,1,27,
scooby_state_a5221c|53|0 9,1,0,4,1,3,0,0,2,0,0,2,1,2,2,27,
scooby_state_a5221c|16|0 13,1,3,1,0,3,1,0,0,1,0,2,0,0,2,27,
scooby_state_40f7b9|31|0 27,0,0,0,0,0,0,0,0,0,0,0,0,0,0,27,
scooby_state_a52221|14|0 27,0,0,0,0,0,0,0,0,0,0,0,0,0,0,27,
scooby_state_a52221|32|1 27,0,0,0,0,0,0,0,0,0,0,0,0,0,0,27,
scooby_state_a522f2|40|0 10,1,1,1,1,1,2,0,0,2,1,0,2,1,4,27,
scooby_state_a52350|31|1 4,2,1,0,3,1,2,2,1,0,1,2,0,2,5,26,
scooby_state_40f886|12|-1 0,26,0,0,0,0,0,0,0,0,0,0,0,0,0,26,
scooby_state_a4c443|20|0 15,1,0,0,1,0,0,2,1,0,0,1,1,1,3,26,
scooby_state_a5221c|29|0 11,1,1,1,0,1,1,1,1,0,0,1,1,3,3,26,
scooby_state_40f7b9|22|0 26,0,0,0,0,0,0,0,0,0,0,0,0,0,0,26,
scooby_state_a52368|0|0 26,0,0,0,0,0,0,0,0,0,0,0,0,0,0,26,
scooby_state_40f7b9|32|0 26,0,0,0,0,0,0,0,0,0,0,0,0,0,0,26,
scooby_state_a52221|11|1 25,0,0,0,0,0,0,0,0,0,0,1,0,0,0,26,
scooby_state_40f7b9|54|0 26,0,0,0,0,0,0,0,0,0,0,0,0,0,0,26,
scooby_state_40f7b9|58|0 26,0,0,0,0,0,0,0,0,0,0,0,0,0,0,26,
scooby_state_a4c443|25|0 14,1,1,1,0,0,0,0,0,0,2,0,1,1,5,26,
scooby_state_a522b6|33|0 7,0,1,2,0,1,1,0,1,1,0,3,3,3,3,26,
scooby_state_40f7b9|59|0 26,0,0,0,0,0,0,0,0,0,0,0,0,0,0,26,
scooby_state_a4c443|6|0 16,0,1,0,3,0,1,1,0,1,1,1,0,0,1,26,
scooby_state_40f7b9|55|0 24,0,0,0,0,0,0,0,0,0,0,0,0,1,0,25,
scooby_state_a4c443|7|0 17,0,0,1,1,0,1,0,0,1,0,0,1,3,0,25,
scooby_state_40f7b9|61|0 25,0,0,0,0,0,0,0,0,0,0,0,0,0,0,25,
scooby_state_a52221|7|0 25,0,0,0,0,0,0,0,0,0,0,0,0,0,0,25,
scooby_state_40f7b9|46|0 25,0,0,0,0,0,0,0,0,0,0,0,0,0,0,25,
scooby_state_40f7b9|10|0 25,0,0,0,0,0,0,0,0,0,0,0,0,0,0,25,
scooby_state_40f7b9|39|0 25,0,0,0,0,0,0,0,0,0,0,0,0,0,0,25,
scooby_state_40f7b9|17|0 25,0,0,0,0,0,0,0,0,0,0,0,0,0,0,25,
scooby_state_a52221|59|2 25,0,0,0,0,0,0,0,0,0,0,0,0,0,0,25,
scooby_state_a4c443|39|0 16,1,0,0,1,0,0,0,2,0,0,0,2,1,2,25,
scooby_state_a5221c|30|1 21,0,0,0,1,0,0,0,0,1,0,1,0,0,0,24,
scooby_state_40f7b9|51|0 24,0,0,0,0,0,0,0,0,0,0,0,0,0,0,24,
scooby_state_40f886|46|-1 0,24,0,0,0,0,0,0,0,0,0,0,0,0,0,24,
scooby_state_a5221c|2|0 20,0,0,0,0,0,0,1,1,0,0,0,1,0,1,24,
scooby_state_40f886|11|-1 0,23,0,0,0,0,0,0,0,0,0,0,1,0,0,24,
scooby_state_a52221|58|0 24,0,0,0,0,0,0,0,0,0,0,0,0,0,0,24,
scooby_state_40f7b9|52|0 24,0,0,0,0,0,0,0,0,0,0,0,0,0,0,24,
scooby_state_a52221|54|0 24,0,0,0,0,0,0,0,0,0,0,0,0,0,0,24,
scooby_state_a4c443|43|0 14,1,0,0,1,2,0,1,0,0,1,0,0,1,3,24,
scooby_state_40d494|51|0 16,1,1,1,0,1,0,0,1,0,0,0,1,0,2,24,
scooby_state_a52221|43|0 24,0,0,0,0,0,0,0,0,0,0,0,0,0,0,24,
scooby_state_40f7b9|36|0 24,0,0,0,0,0,0,0,0,0,0,0,0,0,0,24,
scooby_state_40f534|3|2 24,0,0,0,0,0,0,0,0,0,0,0,0,0,0,24,
scooby_state_a52221|29|0 24,0,0,0,0,0,0,0,0,0,0,0,0,0,0,24,
scooby_state_40f7b9|37|0 23,0,0,0,0,0,0,0,0,0,0,0,0,0,0,23,
scooby_state_a4c443|42|0 12,1,1,1,0,0,0,0,1,1,0,2,0,1,3,23,
scooby_state_a52221|23|1 22,0,0,0,0,0,0,0,0,0,0,1,0,0,0,23,
scooby_state_40f8e0|31|0 23,0,0,0,0,0,0,0,0,0,0,0,0,0,0,23,
scooby_state_a5221c|5|0 22,0,1,0,0,0,0,0,0,0,0,0,0,0,0,23,
scooby_state_a52221|57|0 23,0,0,0,0,0,0,0,0,0,0,0,0,0,0,23,
scooby_state_40f7b9|60|0 23,0,0,0,0,0,0,0,0,0,0,0,0,0,0,23,
scooby_state_a5221c|52|0 18,0,0,0,0,1,1,0,1,0,0,0,0,0,2,23,
scooby_state_a4c443|4|0 15,0,0,0,0,0,0,1,1,0,1,0,1,0,4,23,
scooby_state_a52221|35|2 22,0,0,0,0,0,0,0,0,0,0,0,0,0,0,22,
scooby_state_40d3ff|58|0 4,7,2,0,0,1,3,0,1,0,0,0,1,0,3,22,
scooby_state_a4c443|24|0 14,1,0,1,0,0,1,1,0,0,0,0,0,1,3,22,
scooby_state_a52221|2|0 22,0,0,0,0,0,0,0,0,0,0,0,0,0,0,22,
scooby_state_a52221|18|0 22,0,0,0,0,0,0,0,0,0,0,0,0,0,0,22,
scooby_state_40f7b9|50|0 22,0,0,0,0,0,0,0,0,0,0,0,0,0,0,22,
scooby_state_a4c443|40|0 14,1,0,1,0,0,1,2,0,1,1,0,1,0,0,22,
scooby_state_a52350|43|1 2,2,0,1,0,2,1,3,0,0,0,2,2,2,5,22,
scooby_state_a52221|44|0 22,0,0,0,0,0,0,0,0,0,0,0,0,0,0,22,
scooby_state_a52221|15|2 22,0,0,0,0,0,0,0,0,0,0,0,0,0,0,22,
scooby_state_a5222e|34|-1 1,13,6,0,0,0,0,0,0,1,0,0,0,0,1,22,
scooby_state_40f886|43|-1 0,22,0,0,0,0,0,0,0,0,0,0,0,0,0,22,
scooby_state_a52221|35|0 22,0,0,0,0,0,0,0,0,0,0,0,0,0,0,22,
scooby_state_a52368|43|0 22,0,0,0,0,0,0,0,0,0,0,0,0,0,0,22,
scooby_state_a52221|49|0 22,0,0,0,0,0,0,0,0,0,0,0,0,0,0,22,
scooby_state_a4c443|22|0 11,2,1,2,1,0,1,0,0,1,0,0,1,1,1,22,
scooby_state_40f7b9|0|-63 22,0,0,0,0,0,0,0,0,0,0,0,0,0,0,22,
scooby_state_40f886|27|-1 0,22,0,0,0,0,0,0,0,0,0,0,0,0,0,22,
scooby_state_a52350|46|1 10,0,1,2,0,1,0,0,0,0,0,2,0,1,4,21,
scooby_state_a52221|60|0 21,0,0,0,0,0,0,0,0,0,0,0,0,0,0,21,
scooby_state_a5221c|12|1 19,0,0,1,0,0,0,0,0,0,0,0,1,0,0,21,
scooby_state_a52221|19|0 21,0,0,0,0,0,0,0,0,0,0,0,0,0,0,21,
scooby_state_a5222e|41|-1 0,10,8,0,1,0,0,0,0,0,0,1,0,0,1,21,
scooby_state_40f7b9|56|0 21,0,0,0,0,0,0,0,0,0,0,0,0,0,0,21,
scooby_state_40f7b9|21|0 21,0,0,0,0,0,0,0,0,0,0,0,0,0,0,21,
scooby_state_a52368|15|0 21,0,0,0,0,0,0,0,0,0,0,0,0,0,0,21,
scooby_state_40f7b9|29|0 21,0,0,0,0,0,0,0,0,0,0,0,0,0,0,21,
scooby_state_a52221|63|0 21,0,0,0,0,0,0,0,0,0,0,0,0,0,0,21,
scooby_state_a52221|55|0 21,0,0,0,0,0,0,0,0,0,0,0,0,0,0,21,
scooby_state_40f7b9|26|0 21,0,0,0,0,0,0,0,0,0,0,0,0,0,0,21,
scooby_state_a5221c|17|1 19,0,0,0,2,0,0,0,0,0,0,0,0,0,0,21,
scooby_state_a5221c|38|0 11,0,0,2,0,0,0,1,0,2,2,2,0,0,1,21,
scooby_state_a52221|50|0 21,0,0,0,0,0,0,0,0,0,0,0,0,0,0,21,
scooby_state_a52221|51|2 21,0,0,0,0,0,0,0,0,0,0,0,0,0,0,21,
scooby_state_a5221c|34|1 18,1,0,0,1,0,0,0,0,0,1,0,0,0,0,21,
scooby_state_a52221|24|1 20,0,0,0,0,0,0,0,0,0,0,1,0,0,0,21,
scooby_state_40f886|2|-1 0,21,0,0,0,0,0,0,0,0,0,0,0,0,0,21,
scooby_state_40f886|50|-1 0,21,0,0,0,0,0,0,0,0,0,0,0,0,0,21,
scooby_state_a5221c|40|1 19,0,0,0,1,0,0,1,0,0,0,0,0,0,0,21,
scooby_state_a4c443|9|0 12,1,0,0,1,1,1,0,0,0,1,1,1,1,1,21,
scooby_state_a5221c|18|1 18,0,0,0,1,0,0,0,0,0,0,0,1,0,0,20,
scooby_state_a52221|42|0 20,0,0,0,0,0,0,0,0,0,0,0,0,0,0,20,
scooby_state_40f886|52|-1 0,20,0,0,0,0,0,0,0,0,0,0,0,0,0,20,
scooby_state_a522bb|2|0 20,0,0,0,0,0,0,0,0,0,0,0,0,0,0,20,
scooby_state_40f7b9|9|2 20,0,0,0,0,0,0,0,0,0,0,0,0,0,0,20,
scooby_state_40f886|40|-1 0,19,0,0,0,0,0,0,0,0,0,1,0,0,0,20,
scooby_state_a52221|26|0 20,0,0,0,0,0,0,0,0,0,0,0,0,0,0,20,
scooby_state_a52221|47|0 20,0,0,0,0,0,0,0,0,0,0,0,0,0,0,20,
scooby_state_40f534|63|2 20,0,0,0,0,0,0,0,0,0,0,0,0,0,0,20,
scooby_state_a5221c|39|0 8,0,2,0,1,1,1,0,3,2,0,1,0,0,1,20,
scooby_state_a52350|48|1 6,1,1,0,0,0,2,0,2,0,1,0,2,0,5,20,
scooby_state_a4c443|13|0 13,0,0,2,0,0,0,1,0,1,0,1,1,0,1,20,
scooby_state_40f746|21|1 0,0,0,0,0,0,0,0,0,0,0,0,0,0,20,20,
scooby_state_a5221c|8|0 12,1,1,0,1,0,0,0,0,0,0,0,2,0,3,20,
scooby_state_a522b6|36|0 10,1,3,0,1,0,0,0,1,1,0,0,0,1,2,20,
scooby_state_a52221|19|2 20,0,0,0,0,0,0,0,0,0,0,0,0,0,0,20,
scooby_state_a52221|45|2 20,0,0,0,0,0,0,0,0,0,0,0,0,0,0,20,
scooby_state_a52221|60|2 20,0,0,0,0,0,0,0,0,0,0,0,0,0,0,20,
scooby_state_a52221|23|0 20,0,0,0,0,0,0,0,0,0,0,0,0,0,0,20,
scooby_state_a52350|54|1 5,3,1,1,0,1,0,1,0,0,0,0,2,0,6,20,
scooby_state_a522f2|20|0 10,0,0,1,0,0,0,0,1,2,0,1,1,2,2,20,
scooby_state_a52350|3|1 6,0,1,0,1,0,0,0,0,2,0,1,2,1,5,19,
scooby_state_a5221c|4|0 11,1,0,0,0,0,0,1,2,0,1,1,0,1,1,19,
scooby_state_40f886|36|-1 0,19,0,0,0,0,0,0,0,0,0,0,0,0,0,19,
scooby_state_a4c443|44|0 14,0,2,0,0,0,1,0,0,0,0,1,0,0,1,19,
scooby_state_a52221|3|2 17,0,1,0,0,0,0,0,0,0,0,0,1,0,0,19,
scooby_state_a5221c|36|0 12,1,0,0,0,0,2,1,1,0,0,1,0,0,1,19,
scooby_state_a52221|38|2 19,0,0,0,0,0,0,0,0,0,0,0,0,0,0,19,
scooby_state_a4c443|28|0 12,0,1,0,0,0,1,0,0,1,0,0,0,1,3,19,
scooby_state_a5222e|53|-1 0,10,5,1,1,0,0,1,0,0,0,0,1,0,0,19,
scooby_state_a5221c|55|0 1,2,0,2,1,1,1,1,0,0,2,0,2,1,5,19,
scooby_state_a52221|12|2 19,0,0,0,0,0,0,0,0,0,0,0,0,0,0,19,
scooby_state_40f797|34|0 0,19,0,0,0,0,0,0,0,0,0,0,0,0,0,19,
scooby_state_a52221|42|2 19,0,0,0,0,0,0,0,0,0,0,0,0,0,0,19,
scooby_state_40e28b|11|1 19,0,0,0,0,0,0,0,0,0,0,0,0,0,0,19,
scooby_state_a522f2|1|0 5,2,1,0,0,2,3,0,0,2,1,2,0,0,1,19,
scooby_state_40f886|42|-1 0,19,0,0,0,0,0,0,0,0,0,0,0,0,0,19,
scooby_state_a52368|46|0 19,0,0,0,0,0,0,0,0,0,0,0,0,0,0,19,
scooby_state_a4c443|8|0 9,0,2,1,2,1,1,0,0,0,0,0,1,0,2,19,
scooby_state_a52221|25|2 19,0,0,0,0,0,0,0,0,0,0,0,0,0,0,19,
scooby_state_a4c443|14|0 16,0,0,0,0,1,0,0,0,0,0,1,0,0,1,19,
scooby_state_a52221|45|0 19,0,0,0,0,0,0,0,0,0,0,0,0,0,0,19,
scooby_state_a52221|15|0 19,0,0,0,0,0,0,0,0,0,0,0,0,0,0,19,
scooby_state_a522f2|33|0 13,1,0,0,0,0,1,2,0,0,0,0,0,0,2,19,
scooby_state_a4c443|61|1 14,1,1,0,1,0,0,0,0,0,0,1,1,0,0,19,
scooby_state_a4c443|21|0 10,0,0,3,1,0,0,1,0,2,0,0,0,1,1,19,
scooby_state_a52221|59|0 18,1,0,0,0,0,0,0,0,0,0,0,0,0,0,19,
scooby_state_40e28b|41|1 18,0,0,0,0,0,0,0,0,0,0,0,0,0,0,18,
scooby_state_a5221c|22|1 18,0,0,0,0,0,0,0,0,0,0,0,0,0,0,18,
scooby_state_a522f2|63|0 3,1,0,0,0,2,0,0,0,3,1,0,2,1,5,18,
scooby_state_a522f2|0|0 10,0,0,1,1,2,0,0,0,0,0,1,1,1,1,18,
scooby_state_a52368|38|0 18,0,0,0,0,0,0,0,0,0,0,0,0,0,0,18,
scooby_state_40e28b|62|1 18,0,0,0,0,0,0,0,0,0,0,0,0,0,0,18,
scooby_state_a52350|55|1 3,0,1,1,1,0,1,1,2,2,1,1,1,0,3,18,
scooby_state_a5221c|9|1 16,0,1,0,0,0,0,0,0,0,0,1,0,0,0,18,
scooby_state_40e196|5|1 18,0,0,0,0,0,0,0,0,0,0,0,0,0,0,18,
scooby_state_a5221c|33|1 17,0,0,0,1,0,0,0,0,0,0,0,0,0,0,18,
scooby_state_40f7b9|49|0 18,0,0,0,0,0,0,0,0,0,0,0,0,0,0,18,
scooby_state_a52368|12|0 18,0,0,0,0,0,0,0,0,0,0,0,0,0,0,18,
scooby_state_a5221c|3|0 18,0,0,0,0,0,0,0,0,0,0,0,0,0,0,18,
scooby_state_40e28b|33|1 18,0,0,0,0,0,0,0,0,0,0,0,0,0,0,18,
scooby_state_a52221|32|2 18,0,0,0,0,0,0,0,0,0,0,0,0,0,0,18,
scooby_state_a4c443|58|0 14,0,0,1,0,1,1,0,0,0,0,0,1,0,0,18,
scooby_state_40e28b|57|1 18,0,0,0,0,0,0,0,0,0,0,0,0,0,0,18,
scooby_state_a52221|39|2 18,0,0,0,0,0,0,0,0,0,0,0,0,0,0,18,
scooby_state_a52221|38|0 18,0,0,0,0,0,0,0,0,0,0,0,0,0,0,18,
scooby_state_40e28b|60|1 18,0,0,0,0,0,0,0,0,0,0,0,0,0,0,18,
scooby_state_40e28b|32|1 18,0,0,0,0,0,0,0,0,0,0,0,0,0,0,18,
scooby_state_a52221|20|0 18,0,0,0,0,0,0,0,0,0,0,0,0,0,0,18,
scooby_state_a52368|4|0 18,0,0,0,0,0,0,0,0,0,0,0,0,0,0,18,
scooby_state_a5221c|12|0 16,1,1,0,0,0,0,0,0,0,0,0,0,0,0,18,
scooby_state_a52221|5|0 18,0,0,0,0,0,0,0,0,0,0,0,0,0,0,18,
scooby_state_a5222e|24|-1 0,11,3,2,0,0,0,0,1,0,0,1,0,0,0,18,
scooby_state_a52221|7|2 17,0,0,1,0,0,0,0,0,0,0,0,0,0,0,18,
scooby_state_a522b6|18|0 7,0,0,1,1,1,0,1,1,1,1,0,1,1,2,18,
scooby_state_a4c443|2|0 11,0,0,0,0,0,0,1,0,0,0,0,2,1,3,18,
scooby_state_a522f2|36|0 6,1,0,0,1,1,1,3,0,0,1,1,1,0,2,18,
scooby_state_a5222e|49|-1 0,10,4,0,0,1,1,0,0,0,1,1,0,0,0,18,
scooby_state_a52221|25|0 18,0,0,0,0,0,0,0,0,0,0,0,0,0,0,18,
scooby_state_40e28b|27|1 17,0,0,0,0,0,0,0,0,1,0,0,0,0,0,18,
scooby_state_a5221c|58|0 8,1,2,2,1,1,0,0,1,1,0,0,0,0,1,18,
scooby_state_a52221|17|2 18,0,0,0,0,0,0,0,0,0,0,0,0,0,0,18,
scooby_state_a4c443|34|0 11,2,1,0,0,0,0,0,1,0,1,0,0,0,2,18,
scooby_state_a52221|6|2 18,0,0,0,0,0,0,0,0,0,0,0,0,0,0,18,
scooby_state_40e28b|31|1 18,0,0,0,0,0,0,0,0,0,0,0,0,0,0,18,
scooby_state_a52221|41|0 18,0,0,0,0,0,0,0,0,0,0,0,0,0,0,18,
scooby_state_a52350|44|1 3,0,1,1,1,1,0,1,3,1,0,2,0,0,4,18,
scooby_state_a5222e|39|-1 0,7,9,0,0,0,0,0,1,0,0,0,1,0,0,18,
scooby_state_40e28b|55|1 18,0,0,0,0,0,0,0,0,0,0,0,0,0,0,18,
scooby_state_a52221|16|2 18,0,0,0,0,0,0,0,0,0,0,0,0,0,0,18,
scooby_state_40e28b|18|1 17,0,0,0,0,0,0,0,0,0,0,0,0,0,0,17,
scooby_state_a5221c|19|0 14,0,0,0,0,1,1,0,0,1,0,0,0,0,0,17,
scooby_state_a5221c|3|1 14,0,0,0,0,0,0,0,0,0,1,2,0,0,0,17,
scooby_state_a52221|32|0 17,0,0,0,0,0,0,0,0,0,0,0,0,0,0,17,
scooby_state_40e28b|58|1 17,0,0,0,0,0,0,0,0,0,0,0,0,0,0,17,
scooby_state_a52368|28|0 17,0,0,0,0,0,0,0,0,0,0,0,0,0,0,17,
scooby_state_40e28b|25|1 17,0,0,0,0,0,0,0,0,0,0,0,0,0,0,17,
scooby_state_a5221c|35|1 14,0,1,0,1,0,1,0,0,0,0,0,0,0,0,17,
scooby_state_a52350|60|1 5,2,0,0,1,0,0,0,1,2,0,0,2,1,3,17,
scooby_state_40e28b|2|1 17,0,0,0,0,0,0,0,0,0,0,0,0,0,0,17,
scooby_state_a522f2|7|0 2,0,1,1,1,1,2,1,1,0,0,3,0,0,4,17,
scooby_state_40e196|50|1 17,0,0,0,0,0,0,0,0,0,0,0,0,0,0,17,
scooby_state_a52221|40|2 17,0,0,0,0,0,0,0,0,0,0,0,0,0,0,17,
scooby_state_a5221c|31|1 15,0,0,0,0,0,0,0,0,1,0,1,0,0,0,17,
scooby_state_40e196|33|1 17,0,0,0,0,0,0,0,0,0,0,0,0,0,0,17,
scooby_state_40f886|55|-1 0,17,0,0,0,0,0,0,0,0,0,0,0,0,0,17,
scooby_state_a522bb|30|0 17,0,0,0,0,0,0,0,0,0,0,0,0,0,0,17,
scooby_state_40e28b|59|1 16,0,0,1,0,0,0,0,0,0,0,0,0,0,0,17,
scooby_state_40e28b|22|1 17,0,0,0,0,0,0,0,0,0,0,0,0,0,0,17,
scooby_state_40f886|62|-1 0,17,0,0,0,0,0,0,0,0,0,0,0,0,0,17,
scooby_state_a522bb|0|0 17,0,0,0,0,0,0,0,0,0,0,0,0,0,0,17,
scooby_state_a522f2|42|0 9,0,1,0,0,1,1,0,1,1,0,2,0,1,0,17,
scooby_state_40e28b|36|1 17,0,0,0,0,0,0,0,0,0,0,0,0,0,0,17,
scooby_state_a5222e|37|-1 1,11,4,0,0,0,0,0,1,0,0,0,0,0,0,17,
scooby_state_40f746|10|1 0,0,0,0,0,0,0,0,0,0,0,0,0,0,17,17,
scooby_state_40e28b|48|1 17,0,0,0,0,0,0,0,0,0,0,0,0,0,0,17,
scooby_state_40e28b|28|1 17,0,0,0,0,0,0,0,0,0,0,0,0,0,0,17,
scooby_state_a5221c|23|1 16,0,0,0,0,0,0,0,0,0,0,0,0,1,0,17,
scooby_state_40e28b|51|1 17,0,0,0,0,0,0,0,0,0,0,0,0,0,0,17,
scooby_state_40d3ff|9|0 4,7,0,0,0,0,0,1,0,1,1,1,1,0,1,17,
scooby_state_40e28b|19|1 17,0,0,0,0,0,0,0,0,0,0,0,0,0,0,17,
scooby_state_40e28b|3|1 17,0,0,0,0,0,0,0,0,0,0,0,0,0,0,17,
scooby_state_40e28b|29|1 17,0,0,0,0,0,0,0,0,0,0,0,0,0,0,17,
scooby_state_a5221c|62|1 14,0,0,0,0,1,0,0,1,0,0,0,0,0,1,17,
scooby_state_40f886|57|-1 0,17,0,0,0,0,0,0,0,0,0,0,0,0,0,17,
scooby_state_40e28b|17|1 17,0,0,0,0,0,0,0,0,0,0,0,0,0,0,17,
scooby_state_40e28b|16|1 17,0,0,0,0,0,0,0,0,0,0,0,0,0,0,17,
scooby_state_a52221|46|2 17,0,0,0,0,0,0,0,0,0,0,0,0,0,0,17,
scooby_state_40e28b|8|1 17,0,0,0,0,0,0,0,0,0,0,0,0,0,0,17,
scooby_state_40f886|6|-1 0,17,0,0,0,0,0,0,0,0,0,0,0,0,0,17,
scooby_state_40f886|49|-1 0,17,0,0,0,0,0,0,0,0,0,0,0,0,0,17,
scooby_state_a5222e|44|-1 1,9,5,0,0,0,0,0,0,0,0,0,0,0,1,16,
scooby_state_40e28b|56|1 16,0,0,0,0,0,0,0,0,0,0,0,0,0,0,16,
scooby_state_40e28b|52|1 16,0,0,0,0,0,0,0,0,0,0,0,0,0,0,16,
scooby_state_40f746|15|1 0,0,0,0,0,0,0,0,0,0,0,0,0,0,16,16,
scooby_state_a5222e|60|-1 0,10,6,0,0,0,0,0,0,0,0,0,0,0,0,16,
scooby_state_a5222e|58|-1 1,9,5,0,0,0,0,0,0,0,0,0,0,0,1,16,
scooby_state_a52350|42|1 6,0,1,1,0,1,1,0,1,0,1,1,1,0,2,16,
scooby_state_40e28b|30|1 16,0,0,0,0,0,0,0,0,0,0,0,0,0,0,16,
scooby_state_a52221|62|2 16,0,0,0,0,0,0,0,0,0,0,0,0,0,0,16,
scooby_state_40e28b|38|1 16,0,0,0,0,0,0,0,0,0,0,0,0,0,0,16,
scooby_state_40e28b|10|1 15,0,0,1,0,0,0,0,0,0,0,0,0,0,0,16,
scooby_state_40f746|36|1 0,0,0,0,0,0,0,0,0,0,0,0,0,0,16,16,
scooby_state_40f886|4|-1 0,16,0,0,0,0,0,0,0,0,0,0,0,0,0,16,
scooby_state_40e28b|61|1 16,0,0,0,0,0,0,0,0,0,0,0,0,0,0,16,
scooby_state_a52350|45|1 3,1,1,2,1,0,2,1,1,1,0,0,1,2,0,16,
scooby_state_a5222e|10|-1 0,8,7,0,0,0,0,0,0,1,0,0,0,0,0,16,
scooby_state_a52221|11|0 16,0,0,0,0,0,0,0,0,0,0,0,0,0,0,16,
scooby_state_a5221c|62|0 5,1,1,0,0,1,1,0,0,1,0,2,0,2,2,16,
scooby_state_40e196|24|1 16,0,0,0,0,0,0,0,0,0,0,0,0,0,0,16,
scooby_state_a52368|58|0 16,0,0,0,0,0,0,0,0,0,0,0,0,0,0,16,
scooby_state_a5222e|21|-1 0,7,8,0,0,0,0,0,0,0,0,0,1,0,0,16,
scooby_state_40f886|34|-1 0,16,0,0,0,0,0,0,0,0,0,0,0,0,0,16,
scooby_state_a52221|52|2 16,0,0,0,0,0,0,0,0,0,0,0,0,0,0,16,
scooby_state_a4c443|35|0 10,0,1,0,1,0,2,1,0,0,0,1,0,0,0,16,
scooby_state_a5221c|33|0 11,0,0,1,0,0,1,0,0,0,2,0,0,0,1,16,
scooby_state_a4c443|20|1 12,0,2,2,0,0,0,0,0,0,0,0,0,0,0,16,
scooby_state_40e28b|23|1 16,0,0,0,0,0,0,0,0,0,0,0,0,0,0,16,
scooby_state_40e28b|37|1 16,0,0,0,0,0,0,0,0,0,0,0,0,0,0,16,
scooby_state_40e28b|12|1 16,0,0,0,0,0,0,0,0,0,0,0,0,0,0,16,
scooby_state_40e28b|1|1 16,0,0,0,0,0,0,0,0,0,0,0,0,0,0,16,
scooby_state_a52350|59|1 3,0,2,1,1,3,1,0,0,0,1,1,0,1,2,16,
scooby_state_40f7b9|42|0 16,0,0,0,0,0,0,0,0,0,0,0,0,0,0,16,
scooby_state_a5222e|43|-1 0,8,6,1,0,0,0,0,0,0,0,0,0,0,1,16,
scooby_state_a5221c|14|1 15,0,1,0,0,0,0,0,0,0,0,0,0,0,0,16,
scooby_state_40e28b|47|1 16,0,0,0,0,0,0,0,0,0,0,0,0,0,0,16,
scooby_state_40e196|2|1 16,0,0,0,0,0,0,0,0,0,0,0,0,0,0,16,
scooby_state_a52221|12|0 16,0,0,0,0,0,0,0,0,0,0,0,0,0,0,16,
scooby_state_a52350|7|1 7,2,1,0,0,0,0,0,0,0,1,3,1,0,1,16,
scooby_state_40f746|20|1 0,0,0,0,0,0,0,0,0,0,0,0,0,0,16,16,
scooby_state_40e28b|13|1 16,0,0,0,0,0,0,0,0,0,0,0,0,0,0,16,
scooby_state_a5221c|28|1 14,0,0,0,0,0,0,0,1,0,0,0,0,0,1,16,
scooby_state_40e28b|21|1 16,0,0,0,0,0,0,0,0,0,0,0,0,0,0,16,
scooby_state_a5221c|31|0 8,0,2,0,0,0,1,1,0,0,2,1,0,0,1,16,
scooby_state_a522bb|1|0 16,0,0,0,0,0,0,0,0,0,0,0,0,0,0,16,
scooby_state_40e28b|6|1 16,0,0,0,0,0,0,0,0,0,0,0,0,0,0,16,
scooby_state_a52350|2|1 3,1,0,2,0,1,0,1,2,1,0,0,2,0,3,16,
scooby_state_40f886|9|-1 0,16,0,0,0,0,0,0,0,0,0,0,0,0,0,16,
scooby_state_a5221c|26|0 8,0,0,3,0,0,1,0,1,0,0,0,0,2,1,16,
scooby_state_a5222e|16|-1 0,10,3,0,1,0,0,1,0,0,0,1,0,0,0,16,
scooby_state_40e28b|9|1 16,0,0,0,0,0,0,0,0,0,0,0,0,0,0,16,
scooby_state_40e196|53|1 16,0,0,0,0,0,0,0,0,0,0,0,0,0,0,16,
scooby_state_a52221|31|0 16,0,0,0,0,0,0,0,0,0,0,0,0,0,0,16,
scooby_state_40e28b|42|1 16,0,0,0,0,0,0,0,0,0,0,0,0,0,0,16,
scooby_state_40e28b|54|1 16,0,0,0,0,0,0,0,0,0,0,0,0,0,0,16,
scooby_state_40e28b|44|1 16,0,0,0,0,0,0,0,0,0,0,0,0,0,0,16,
scooby_state_40e28b|34|1 16,0,0,0,0,0,0,0,0,0,0,0,0,0,0,16,
scooby_state_a522f2|25|0 6,1,2,1,2,1,0,1,0,0,0,0,0,1,1,16,
scooby_state_a522b6|35|0 7,1,1,0,0,1,2,1,0,0,1,2,0,0,0,16,
scooby_state_a52368|14|0 16,0,0,0,0,0,0,0,0,0,0,0,0,0,0,16,
scooby_state_a52221|24|0 16,0,0,0,0,0,0,0,0,0,0,0,0,0,0,16,
scooby_state_40e28b|20|1 16,0,0,0,0,0,0,0,0,0,0,0,0,0,0,16,
scooby_state_a5222e|18|-1 0,7,8,0,0,0,0,0,0,0,0,1,0,0,0,16,
scooby_state_40e28b|40|1 16,0,0,0,0,0,0,0,0,0,0,0,0,0,0,16,
scooby_state_40f886|10|-1 0,16,0,0,0,0,0,0,0,0,0,0,0,0,0,16,
scooby_state_a5222e|33|-1 0,11,0,0,1,1,0,0,1,0,0,0,0,1,0,15,
scooby_state_a52221|37|2 15,0,0,0,0,0,0,0,0,0,0,0,0,0,0,15,
scooby_state_a52221|54|2 15,0,0,0,0,0,0,0,0,0,0,0,0,0,0,15,
scooby_state_a5222e|30|-1 1,6,6,0,0,0,0,0,1,0,0,0,1,0,0,15,
scooby_state_a4c443|36|0 9,1,0,0,0,0,2,0,0,1,0,0,0,0,2,15,
scooby_state_40e196|63|1 15,0,0,0,0,0,0,0,0,0,0,0,0,0,0,15,
scooby_state_a5221c|54|1 13,0,0,0,0,0,0,0,0,0,0,0,0,0,2,15,
scooby_state_a5221c|39|1 14,0,0,0,0,0,0,0,0,0,0,0,0,0,1,15,
scooby_state_a52221|31|2 15,0,0,0,0,0,0,0,0,0,0,0,0,0,0,15,
scooby_state_40e28b|26|1 15,0,0,0,0,0,0,0,0,0,0,0,0,0,0,15,
scooby_state_40f886|61|-1 0,15,0,0,0,0,0,0,0,0,0,0,0,0,0,15,
scooby_state_a52221|61|0 15,0,0,0,0,0,0,0,0,0,0,0,0,0,0,15,
scooby_state_40f70a|0|-63 15,0,0,0,0,0,0,0,0,0,0,0,0,0,0,15,
scooby_state_40e28b|63|1 15,0,0,0,0,0,0,0,0,0,0,0,0,0,0,15,
scooby_state_40e28b|46|1 15,0,0,0,0,0,0,0,0,0,0,0,0,0,0,15,
scooby_state_a5222e|17|-1 1,10,2,0,0,1,0,0,0,0,0,0,0,1,0,15,
scooby_state_40d3ff|14|0 2,6,0,0,0,1,0,0,0,0,1,0,1,2,2,15,
scooby_state_a5222e|50|-1 0,8,5,0,0,1,0,0,0,1,0,0,0,0,0,15,
scooby_state_a52350|26|1 4,0,1,1,0,1,1,1,0,2,2,1,0,0,1,15,
scooby_state_a52221|41|2 15,0,0,0,0,0,0,0,0,0,0,0,0,0,0,15,
scooby_state_40f7b9|23|0 15,0,0,0,0,0,0,0,0,0,0,0,0,0,0,15,
scooby_state_a52221|61|2 14,1,0,0,0,0,0,0,0,0,0,0,0,0,0,15,
scooby_state_a4c443|26|1 11,0,0,0,0,0,0,0,0,0,1,0,1,2,0,15,
scooby_state_a5221c|56|0 0,0,1,0,2,2,1,0,3,2,1,0,0,2,1,15,
scooby_state_a522f2|55|0 5,0,0,1,1,0,2,0,1,0,0,0,0,1,4,15,
scooby_state_a52221|3|0 15,0,0,0,0,0,0,0,0,0,0,0,0,0,0,15,
scooby_state_40f797|21|0 0,15,0,0,0,0,0,0,0,0,0,0,0,0,0,15,
scooby_state_40e196|25|1 15,0,0,0,0,0,0,0,0,0,0,0,0,0,0,15,
scooby_state_a4c443|52|0 7,0,0,0,0,1,0,0,1,0,1,1,0,2,2,15,
scooby_state_a5221c|7|1 12,0,0,0,1,0,0,0,0,0,1,0,1,0,0,15,
scooby_state_40e196|4|1 15,0,0,0,0,0,0,0,0,0,0,0,0,0,0,15,
scooby_state_40e28b|0|0 14,0,0,1,0,0,0,0,0,0,0,0,0,0,0,15,
scooby_state_a522b6|48|0 5,0,1,0,0,0,0,1,1,2,0,0,0,2,3,15,
scooby_state_40e28b|50|1 15,0,0,0,0,0,0,0,0,0,0,0,0,0,0,15,
scooby_state_a5221c|24|1 14,0,0,0,0,0,0,0,0,0,0,0,0,1,0,15,
scooby_state_40e196|7|1 15,0,0,0,0,0,0,0,0,0,0,0,0,0,0,15,
scooby_state_40e28b|43|1 15,0,0,0,0,0,0,0,0,0,0,0,0,0,0,15,
scooby_state_a4c443|17|1 8,0,0,1,1,1,2,0,1,0,0,0,0,1,0,15,
scooby_state_40f886|26|-1 0,15,0,0,0,0,0,0,0,0,0,0,0,0,0,15,
scooby_state_a52221|47|2 15,0,0,0,0,0,0,0,0,0,0,0,0,0,0,15,
scooby_state_a522bb|63|0 15,0,0,0,0,0,0,0,0,0,0,0,0,0,0,15,
scooby_state_40f886|32|-1 0,15,0,0,0,0,0,0,0,0,0,0,0,0,0,15,
scooby_state_40e28b|5|1 15,0,0,0,0,0,0,0,0,0,0,0,0,0,0,15,
scooby_state_40d3ff|49|0 3,4,0,0,2,0,1,0,0,1,0,1,1,0,2,15,
scooby_state_a5221c|19|1 14,0,0,0,0,0,0,0,0,0,0,0,1,0,0,15,
scooby_state_a5222e|0|-1 1,8,5,0,0,0,0,0,0,0,0,0,0,0,1,15,
scooby_state_40f7b9|39|2 15,0,0,0,0,0,0,0,0,0,0,0,0,0,0,15,
scooby_state_a5221c|37|0 12,0,1,0,1,0,0,0,0,0,0,0,0,0,1,15,
scooby_state_40f534|0|-20 15,0,0,0,0,0,0,0,0,0,0,0,0,0,0,15,
scooby_state_40e28b|24|1 15,0,0,0,0,0,0,0,0,0,0,0,0,0,0,15,
scooby_state_40d3ff|54|0 4,4,0,0,1,0,1,0,1,2,1,0,0,0,1,15,
scooby_state_40e28b|4|1 15,0,0,0,0,0,0,0,0,0,0,0,0,0,0,15,
scooby_state_40f7b9|53|0 15,0,0,0,0,0,0,0,0,0,0,0,0,0,0,15,
scooby_state_40e28b|39|1 15,0,0,0,0,0,0,0,0,0,0,0,0,0,0,15,
scooby_state_40f886|37|-1 0,15,0,0,0,0,0,0,0,0,0,0,0,0,0,15,
scooby_state_a522b6|13|0 9,1,0,0,0,1,0,0,0,1,1,0,1,1,0,15,
scooby_state_a52221|9|0 14,0,0,0,0,0,1,0,0,0,0,0,0,0,0,15,
scooby_state_40e28b|7|1 15,0,0,0,0,0,0,0,0,0,0,0,0,0,0,15,
scooby_state_40e28b|35|1 14,0,0,0,0,0,1,0,0,0,0,0,0,0,0,15,
scooby_state_40e28b|15|1 15,0,0,0,0,0,0,0,0,0,0,0,0,0,0,15,
scooby_state_40f797|1|0 0,15,0,0,0,0,0,0,0,0,0,0,0,0,0,15,
scooby_state_a5221c|28|0 7,0,2,0,1,0,0,1,0,0,0,1,2,0,0,14,
scooby_state_40f746|44|1 0,0,0,0,0,0,0,0,0,0,0,0,0,0,14,14,
scooby_state_40e196|31|1 14,0,0,0,0,0,0,0,0,0,0,0,0,0,0,14,
scooby_state_a52350|49|1 1,3,2,0,1,0,0,0,1,1,1,1,0,2,1,14,
scooby_state_a522b6|26|0 7,0,0,1,0,0,1,0,0,1,0,0,2,0,2,14,
scooby_state_40e28b|49|1 13,0,1,0,0,0,0,0,0,0,0,0,0,0,0,14,
scooby_state_a522f2|18|0 6,1,1,0,0,0,1,0,1,0,0,1,0,1,2,14,
scooby_state_40e196|52|1 14,0,0,0,0,0,0,0,0,0,0,0,0,0,0,14,
scooby_state_40e196|19|1 14,0,0,0,0,0,0,0,0,0,0,0,0,0,0,14,
scooby_state_a52221|11|2 14,0,0,0,0,0,0,0,0,0,0,0,0,0,0,14,
scooby_state_40f746|52|1 0,0,0,0,0,0,0,0,0,0,0,0,0,0,14,14,
scooby_state_40f797|12|0 0,14,0,0,0,0,0,0,0,0,0,0,0,0,0,14,
scooby_state_40e196|57|1 14,0,0,0,0,0,0,0,0,0,0,0,0,0,0,14,
scooby_state_40f886|5|-1 1,13,0,0,0,0,0,0,0,0,0,0,0,0,0,14,
scooby_state_a5221c|59|1 12,2,0,0,0,0,0,0,0,0,0,0,0,0,0,14,
scooby_state_40e196|6|1 14,0,0,0,0,0,0,0,0,0,0,0,0,0,0,14,
scooby_state_40e196|44|1 14,0,0,0,0,0,0,0,0,0,0,0,0,0,0,14,
scooby_state_40f886|31|-1 0,14,0,0,0,0,0,0,0,0,0,0,0,0,0,14,
scooby_state_a4c443|39|1 7,0,0,0,2,1,3,0,0,0,0,0,0,0,1,14,
scooby_state_40e196|30|1 14,0,0,0,0,0,0,0,0,0,0,0,0,0,0,14,
scooby_state_40f886|23|-1 0,14,0,0,0,0,0,0,0,0,0,0,0,0,0,14,
scooby_state_40e28b|53|1 14,0,0,0,0,0,0,0,0,0,0,0,0,0,0,14,
scooby_state_a5222e|15|-1 0,9,2,0,0,0,1,0,0,0,1,0,1,0,0,14,
scooby_state_a5222e|54|-1 0,5,9,0,0,0,0,0,0,0,0,0,0,0,0,14,
scooby_state_a4c443|10|0 7,0,0,1,0,0,1,2,0,0,0,0,0,1,2,14,
scooby_state_40f7b9|48|0 14,0,0,0,0,0,0,0,0,0,0,0,0,0,0,14,
scooby_state_40f746|34|1 0,0,0,0,0,0,0,0,0,0,0,0,0,0,14,14,
scooby_state_40e196|36|1 14,0,0,0,0,0,0,0,0,0,0,0,0,0,0,14,
scooby_state_a52221|53|0 14,0,0,0,0,0,0,0,0,0,0,0,0,0,0,14,
scooby_state_a522b6|0|0 4,1,0,0,1,1,1,1,0,0,1,1,1,0,2,14,
scooby_state_40f886|39|-1 0,14,0,0,0,0,0,0,0,0,0,0,0,0,0,14,
scooby_state_40f886|15|-1 0,14,0,0,0,0,0,0,0,0,0,0,0,0,0,14,
scooby_state_40e196|27|1 14,0,0,0,0,0,0,0,0,0,0,0,0,0,0,14,
scooby_state_a522bb|43|0 14,0,0,0,0,0,0,0,0,0,0,0,0,0,0,14,
scooby_state_a5221c|63|0 12,0,1,0,0,0,0,0,0,1,0,0,0,0,0,14,
scooby_state_a52368|54|0 14,0,0,0,0,0,0,0,0,0,0,0,0,0,0,14,
scooby_state_a5221c|8|1 11,0,1,1,0,0,0,0,0,0,0,0,0,0,1,14,
scooby_state_a52350|22|1 3,1,0,0,2,2,0,0,0,2,0,1,1,0,2,14,
scooby_state_a5221c|10|1 14,0,0,0,0,0,0,0,0,0,0,0,0,0,0,14,
scooby_state_a5221c|37|1 12,0,0,0,1,0,0,0,0,1,0,0,0,0,0,14,
scooby_state_a4c443|56|0 10,0,0,1,0,0,0,0,1,1,0,0,0,0,1,14,
scooby_state_a522b6|57|0 6,0,1,0,1,0,0,0,0,1,0,0,2,1,2,14,
scooby_state_40e196|39|1 14,0,0,0,0,0,0,0,0,0,0,0,0,0,0,14,
scooby_state_a52350|50|1 1,0,0,0,1,1,0,2,0,0,2,0,1,1,5,14,
scooby_state_a52221|37|0 14,0,0,0,0,0,0,0,0,0,0,0,0,0,0,14,
scooby_state_a5221c|36|1 12,0,0,0,1,0,0,0,0,0,0,0,0,1,0,14,
scooby_state_a52221|26|2 14,0,0,0,0,0,0,0,0,0,0,0,0,0,0,14,
scooby_state_40f797|38|0 0,14,0,0,0,0,0,0,0,0,0,0,0,0,0,14,
scooby_state_a522bb|47|0 14,0,0,0,0,0,0,0,0,0,0,0,0,0,0,14,
scooby_state_a52350|32|1 3,1,0,1,1,0,0,0,0,1,1,1,0,1,4,14,
scooby_state_a52350|53|1 4,0,2,1,2,0,0,1,0,1,1,0,0,0,2,14,
scooby_state_40e196|51|1 14,0,0,0,0,0,0,0,0,0,0,0,0,0,0,14,
scooby_state_40f886|3|-1 1,13,0,0,0,0,0,0,0,0,0,0,0,0,0,14,
scooby_state_a5221c|60|1 12,1,1,0,0,0,0,0,0,0,0,0,0,0,0,14,
scooby_state_a52221|51|0 14,0,0,0,0,0,0,0,0,0,0,0,0,0,0,14,
scooby_state_40e196|28|1 14,0,0,0,0,0,0,0,0,0,0,0,0,0,0,14,
scooby_state_a5221c|21|1 13,0,0,0,1,0,0,0,0,0,0,0,0,0,0,14,
scooby_state_a52368|33|0 14,0,0,0,0,0,0,0,0,0,0,0,0,0,0,14,
scooby_state_a5221c|41|1 13,0,0,0,0,0,0,1,0,0,0,0,0,0,0,14,
scooby_state_40d3ff|13|-1 8,0,0,0,1,1,0,0,1,0,0,1,1,0,1,14,
scooby_state_a52368|19|0 13,0,0,0,0,0,0,0,0,1,0,0,0,0,0,14,
scooby_state_a52350|1|1 1,2,0,0,0,1,2,1,0,0,0,1,1,2,3,14,
scooby_state_40e196|60|1 14,0,0,0,0,0,0,0,0,0,0,0,0,0,0,14,
scooby_state_40f7c0|62|0 14,0,0,0,0,0,0,0,0,0,0,0,0,0,0,14,
scooby_state_40e196|55|1 14,0,0,0,0,0,0,0,0,0,0,0,0,0,0,14,
scooby_state_a5221c|32|0 7,0,0,0,0,2,0,1,0,0,0,1,1,1,1,14,
scooby_state_40e28b|14|1 14,0,0,0,0,0,0,0,0,0,0,0,0,0,0,14,
scooby_state_a52368|13|0 14,0,0,0,0,0,0,0,0,0,0,0,0,0,0,14,
scooby_state_a5221c|59|0 2,2,0,1,1,1,1,2,0,1,0,0,1,1,1,14,
scooby_state_a52221|56|0 14,0,0,0,0,0,0,0,0,0,0,0,0,0,0,14,
scooby_state_40e196|0|0 13,0,0,0,0,0,0,0,0,0,0,0,0,0,1,14,
scooby_state_a52221|16|0 14,0,0,0,0,0,0,0,0,0,0,0,0,0,0,14,
scooby_state_40d3ff|48|0 2,4,1,0,1,0,0,0,0,2,0,1,1,0,2,14,
scooby_state_a5221c|63|1 12,0,0,0,0,0,0,1,0,0,1,0,0,0,0,14,
scooby_state_40f746|42|1 0,0,0,0,0,0,0,0,0,0,0,0,0,0,14,14,
scooby_state_a5221c|32|1 13,0,0,0,0,0,0,0,0,0,0,1,0,0,0,14,
scooby_state_a52221|2|2 14,0,0,0,0,0,0,0,0,0,0,0,0,0,0,14,
scooby_state_a4c443|41|1 11,0,0,0,0,0,1,0,0,0,0,0,0,0,2,14,
scooby_state_40f746|5|1 0,0,0,0,0,0,0,0,0,0,0,0,0,0,14,14,
scooby_state_40d3ff|26|0 2,3,1,1,0,1,0,0,0,2,0,0,1,1,2,14,
scooby_state_40e196|8|1 14,0,0,0,0,0,0,0,0,0,0,0,0,0,0,14,
scooby_state_a5222e|36|-1 1,7,5,0,0,1,0,0,0,0,0,0,0,0,0,14,
scooby_state_a52221|23|2 14,0,0,0,0,0,0,0,0,0,0,0,0,0,0,14,
scooby_state_a5221c|11|1 12,0,0,1,0,1,0,0,0,0,0,0,0,0,0,14,
scooby_state_40e28b|45|1 14,0,0,0,0,0,0,0,0,0,0,0,0,0,0,14,
scooby_state_a52221|36|0 13,0,0,0,0,0,0,0,0,0,0,0,0,0,0,13,
scooby_state_a52221|10|0 13,0,0,0,0,0,0,0,0,0,0,0,0,0,0,13,
scooby_state_40f746|60|1 0,0,0,0,0,0,0,0,0,0,0,1,0,0,12,13,
scooby_state_a4c443|53|0 9,1,0,0,0,0,0,0,1,0,0,1,1,0,0,13,
scooby_state_a4c443|40|1 8,0,0,1,0,0,1,1,0,1,0,1,0,0,0,13,
[...]
scooby_state_40e10b|59|0 1,0,0,0,0,0,0,0,0,0,0,0,0,0,0,1,
scooby_state_a515ec|41|-17 1,0,0,0,0,0,0,0,0,0,0,0,0,0,0,1,
scooby_state_a515e8|20|0 1,0,0,0,0,0,0,0,0,0,0,0,0,0,0,1,
scooby_state_40e38e|10|1 1,0,0,0,0,0,0,0,0,0,0,0,0,0,0,1,
scooby_state_40e38e|17|1 1,0,0,0,0,0,0,0,0,0,0,0,0,0,0,1,
scooby_state_40e196|58|2 1,0,0,0,0,0,0,0,0,0,0,0,0,0,0,1,
scooby_state_40f758|15|1 1,0,0,0,0,0,0,0,0,0,0,0,0,0,0,1,
scooby_state_40e196|57|2 0,0,0,0,0,0,0,0,0,0,0,0,0,0,1,1,
scooby_state_a51619|13|0 1,0,0,0,0,0,0,0,0,0,0,0,0,0,0,1,
scooby_state_40e20a|46|1 1,0,0,0,0,0,0,0,0,0,0,0,0,0,0,1,
scooby_state_a522b6|20|1 1,0,0,0,0,0,0,0,0,0,0,0,0,0,0,1,
scooby_state_40f7b9|7|-4 1,0,0,0,0,0,0,0,0,0,0,0,0,0,0,1,
scooby_state_a4c443|25|12 0,0,0,0,0,1,0,0,0,0,0,0,0,0,0,1,
scooby_state_a5139f|31|0 1,0,0,0,0,0,0,0,0,0,0,0,0,0,0,1,
scooby_state_40e20e|20|1 1,0,0,0,0,0,0,0,0,0,0,0,0,0,0,1,
scooby_state_40e3a6|60|4 1,0,0,0,0,0,0,0,0,0,0,0,0,0,0,1,
scooby_state_40e3b7|56|-1 0,1,0,0,0,0,0,0,0,0,0,0,0,0,0,1,
scooby_state_a522bb|30|-24 1,0,0,0,0,0,0,0,0,0,0,0,0,0,0,1,
scooby_state_a52221|24|5 1,0,0,0,0,0,0,0,0,0,0,0,0,0,0,1,
scooby_state_40e3a6|57|2 1,0,0,0,0,0,0,0,0,0,0,0,0,0,0,1,
scooby_state_40e222|46|-2 1,0,0,0,0,0,0,0,0,0,0,0,0,0,0,1,
scooby_state_40e3b7|52|-6 0,1,0,0,0,0,0,0,0,0,0,0,0,0,0,1,
scooby_state_40e20a|58|1 1,0,0,0,0,0,0,0,0,0,0,0,0,0,0,1,
scooby_state_40f7b9|41|36 1,0,0,0,0,0,0,0,0,0,0,0,0,0,0,1,
scooby_state_a52421|15|0 1,0,0,0,0,0,0,0,0,0,0,0,0,0,0,1,
scooby_state_a51662|21|0 1,0,0,0,0,0,0,0,0,0,0,0,0,0,0,1,
scooby_state_a5165e|23|0 1,0,0,0,0,0,0,0,0,0,0,0,0,0,0,1,
scooby_state_a4c443|27|3 0,0,0,0,0,0,0,0,0,0,0,0,0,0,1,1,
scooby_state_40f7b9|16|-3 1,0,0,0,0,0,0,0,0,0,0,0,0,0,0,1,
scooby_state_a52368|21|1 1,0,0,0,0,0,0,0,0,0,0,0,0,0,0,1,
scooby_state_40f7b9|16|3 1,0,0,0,0,0,0,0,0,0,0,0,0,0,0,1,
scooby_state_a4c443|51|37 1,0,0,0,0,0,0,0,0,0,0,0,0,0,0,1,
scooby_state_a5243d|36|0 1,0,0,0,0,0,0,0,0,0,0,0,0,0,0,1,
scooby_state_a52620|24|1 1,0,0,0,0,0,0,0,0,0,0,0,0,0,0,1,
scooby_state_a52221|54|-1 1,0,0,0,0,0,0,0,0,0,0,0,0,0,0,1,
scooby_state_a4c443|27|10 0,0,0,0,0,0,0,0,0,0,0,0,0,1,0,1,
scooby_state_a5242e|7|0 1,0,0,0,0,0,0,0,0,0,0,0,0,0,0,1,
scooby_state_40d403|16|1 1,0,0,0,0,0,0,0,0,0,0,0,0,0,0,1,
scooby_state_40f7c0|60|2 1,0,0,0,0,0,0,0,0,0,0,0,0,0,0,1,
scooby_state_40f7b9|54|-1 1,0,0,0,0,0,0,0,0,0,0,0,0,0,0,1,
scooby_state_40f7c0|25|0 1,0,0,0,0,0,0,0,0,0,0,0,0,0,0,1,
scooby_state_40f7cb|17|1 1,0,0,0,0,0,0,0,0,0,0,0,0,0,0,1,
scooby_state_40e222|6|1 1,0,0,0,0,0,0,0,0,0,0,0,0,0,0,1,
scooby_state_40f7b0|5|-1 0,1,0,0,0,0,0,0,0,0,0,0,0,0,0,1,
scooby_state_40f797|22|6 0,1,0,0,0,0,0,0,0,0,0,0,0,0,0,1,
scooby_state_40f8cc|25|-21 1,0,0,0,0,0,0,0,0,0,0,0,0,0,0,1,
scooby_state_40f7cb|46|1 1,0,0,0,0,0,0,0,0,0,0,0,0,0,0,1,
scooby_state_40f7c0|44|2 1,0,0,0,0,0,0,0,0,0,0,0,0,0,0,1,
scooby_state_a522bb|8|-17 1,0,0,0,0,0,0,0,0,0,0,0,0,0,0,1,
scooby_state_a4c443|8|6 1,0,0,0,0,0,0,0,0,0,0,0,0,0,0,1,
scooby_state_40f7cb|44|1 1,0,0,0,0,0,0,0,0,0,0,0,0,0,0,1,
scooby_state_40d3ff|8|-9 0,0,0,0,0,0,0,0,0,0,0,1,0,0,0,1,
scooby_state_40f70f|7|2 1,0,0,0,0,0,0,0,0,0,0,0,0,0,0,1,
scooby_state_40e38e|22|1 1,0,0,0,0,0,0,0,0,0,0,0,0,0,0,1,
scooby_state_40e222|34|0 1,0,0,0,0,0,0,0,0,0,0,0,0,0,0,1,
scooby_state_40f7c0|46|2 1,0,0,0,0,0,0,0,0,0,0,0,0,0,0,1,
scooby_state_40f7b0|44|-1 0,1,0,0,0,0,0,0,0,0,0,0,0,0,0,1,
scooby_state_40f70f|26|2 1,0,0,0,0,0,0,0,0,0,0,0,0,0,0,1,
scooby_state_40f7b0|6|0 0,1,0,0,0,0,0,0,0,0,0,0,0,0,0,1,
scooby_state_a5221c|20|-7 1,0,0,0,0,0,0,0,0,0,0,0,0,0,0,1,
scooby_state_a52672|41|0 1,0,0,0,0,0,0,0,0,0,0,0,0,0,0,1,
scooby_state_a5243d|6|0 1,0,0,0,0,0,0,0,0,0,0,0,0,0,0,1,
scooby_state_a52170|5|-8 1,0,0,0,0,0,0,0,0,0,0,0,0,0,0,1,
scooby_state_40e38e|59|1 1,0,0,0,0,0,0,0,0,0,0,0,0,0,0,1,
scooby_state_a5221c|20|-30 1,0,0,0,0,0,0,0,0,0,0,0,0,0,0,1,
scooby_state_40f7cb|27|1 1,0,0,0,0,0,0,0,0,0,0,0,0,0,0,1,
scooby_state_a5221c|52|8 1,0,0,0,0,0,0,0,0,0,0,0,0,0,0,1,
scooby_state_a4c443|52|15 1,0,0,0,0,0,0,0,0,0,0,0,0,0,0,1,
scooby_state_40d494|30|-1 0,0,0,0,0,1,0,0,0,0,0,0,0,0,0,1,
scooby_state_a522f2|4|1 0,1,0,0,0,0,0,0,0,0,0,0,0,0,0,1,
scooby_state_40e3b7|18|-33 0,1,0,0,0,0,0,0,0,0,0,0,0,0,0,1,
scooby_state_40e3a6|51|34 1,0,0,0,0,0,0,0,0,0,0,0,0,0,0,1,
scooby_state_a4c443|58|27 0,0,1,0,0,0,0,0,0,0,0,0,0,0,0,1,
scooby_state_a52221|22|-1 1,0,0,0,0,0,0,0,0,0,0,0,0,0,0,1,
scooby_state_a522c5|11|1 1,0,0,0,0,0,0,0,0,0,0,0,0,0,0,1,
scooby_state_a4c443|48|10 0,0,0,1,0,0,0,0,0,0,0,0,0,0,0,1,
scooby_state_a4c443|55|3 1,0,0,0,0,0,0,0,0,0,0,0,0,0,0,1,
scooby_state_a52368|36|-4 1,0,0,0,0,0,0,0,0,0,0,0,0,0,0,1,
scooby_state_40e1ac|57|1 1,0,0,0,0,0,0,0,0,0,0,0,0,0,0,1,
scooby_state_a5239d|9|0 1,0,0,0,0,0,0,0,0,0,0,0,0,0,0,1,
scooby_state_a4c443|50|13 1,0,0,0,0,0,0,0,0,0,0,0,0,0,0,1,
scooby_state_a4c443|57|18 1,0,0,0,0,0,0,0,0,0,0,0,0,0,0,1,
scooby_state_40e20e|49|1 1,0,0,0,0,0,0,0,0,0,0,0,0,0,0,1,
scooby_state_40e222|35|1 1,0,0,0,0,0,0,0,0,0,0,0,0,0,0,1,
scooby_state_40e1a5|56|-1 0,1,0,0,0,0,0,0,0,0,0,0,0,0,0,1,
scooby_state_40e20e|10|1 1,0,0,0,0,0,0,0,0,0,0,0,0,0,0,1,
scooby_state_40f7cb|30|1 1,0,0,0,0,0,0,0,0,0,0,0,0,0,0,1,
scooby_state_40f7cb|1|1 1,0,0,0,0,0,0,0,0,0,0,0,0,0,0,1,
scooby_state_40e1ac|56|1 1,0,0,0,0,0,0,0,0,0,0,0,0,0,0,1,
scooby_state_a5221c|11|-1 1,0,0,0,0,0,0,0,0,0,0,0,0,0,0,1,
scooby_state_a4c443|52|28 1,0,0,0,0,0,0,0,0,0,0,0,0,0,0,1,
scooby_state_a515b2|22|8 0,1,0,0,0,0,0,0,0,0,0,0,0,0,0,1,
scooby_state_40d580|22|0 1,0,0,0,0,0,0,0,0,0,0,0,0,0,0,1,
scooby_state_40d3ff|47|-2 1,0,0,0,0,0,0,0,0,0,0,0,0,0,0,1,
scooby_state_a51644|13|0 0,0,1,0,0,0,0,0,0,0,0,0,0,0,0,1,
scooby_state_40f8cc|20|0 1,0,0,0,0,0,0,0,0,0,0,0,0,0,0,1,
scooby_state_40e28b|19|0 0,0,0,1,0,0,0,0,0,0,0,0,0,0,0,1,
scooby_state_40d494|14|2 1,0,0,0,0,0,0,0,0,0,0,0,0,0,0,1,
scooby_state_a5221c|5|-14 1,0,0,0,0,0,0,0,0,0,0,0,0,0,0,1,
scooby_state_a52640|25|1 1,0,0,0,0,0,0,0,0,0,0,0,0,0,0,1,
scooby_state_40e20e|34|1 1,0,0,0,0,0,0,0,0,0,0,0,0,0,0,1,
scooby_state_a522bb|61|8 1,0,0,0,0,0,0,0,0,0,0,0,0,0,0,1,
scooby_state_40f7b0|30|-4 1,0,0,0,0,0,0,0,0,0,0,0,0,0,0,1,
scooby_state_40f7b9|23|-4 1,0,0,0,0,0,0,0,0,0,0,0,0,0,0,1,
scooby_state_a51662|40|0 1,0,0,0,0,0,0,0,0,0,0,0,0,0,0,1,
scooby_state_40e5e5|23|1 1,0,0,0,0,0,0,0,0,0,0,0,0,0,0,1,
scooby_state_a4c443|62|6 1,0,0,0,0,0,0,0,0,0,0,0,0,0,0,1,
scooby_state_40e196|60|2 1,0,0,0,0,0,0,0,0,0,0,0,0,0,0,1,
scooby_state_40d42b|49|1 1,0,0,0,0,0,0,0,0,0,0,0,0,0,0,1,
scooby_state_40d3ff|8|-2 1,0,0,0,0,0,0,0,0,0,0,0,0,0,0,1,
scooby_state_a522bb|51|3 1,0,0,0,0,0,0,0,0,0,0,0,0,0,0,1,
scooby_state_a522bb|62|2 1,0,0,0,0,0,0,0,0,0,0,0,0,0,0,1,
scooby_state_a52221|49|17 1,0,0,0,0,0,0,0,0,0,0,0,0,0,0,1,
scooby_state_40f797|25|3 1,0,0,0,0,0,0,0,0,0,0,0,0,0,0,1,
scooby_state_40d56b|21|3 1,0,0,0,0,0,0,0,0,0,0,0,0,0,0,1,
scooby_state_40f7b9|49|-1 1,0,0,0,0,0,0,0,0,0,0,0,0,0,0,1,
scooby_state_40e2c0|11|-7 1,0,0,0,0,0,0,0,0,0,0,0,0,0,0,1,
scooby_state_40e196|59|2 1,0,0,0,0,0,0,0,0,0,0,0,0,0,0,1,
scooby_state_a522bb|58|15 1,0,0,0,0,0,0,0,0,0,0,0,0,0,0,1,
scooby_state_40f5c8|41|0 1,0,0,0,0,0,0,0,0,0,0,0,0,0,0,1,
scooby_state_a52368|21|-35 1,0,0,0,0,0,0,0,0,0,0,0,0,0,0,1,
scooby_state_a52368|44|-5 1,0,0,0,0,0,0,0,0,0,0,0,0,0,0,1,
scooby_state_40d494|51|16 1,0,0,0,0,0,0,0,0,0,0,0,0,0,0,1,
scooby_state_40f7b9|60|50 1,0,0,0,0,0,0,0,0,0,0,0,0,0,0,1,
scooby_state_a522b6|44|3 1,0,0,0,0,0,0,0,0,0,0,0,0,0,0,1,
scooby_state_a521d3|57|0 0,0,0,0,0,0,0,0,0,0,1,0,0,0,0,1,
scooby_state_a522bb|23|-4 1,0,0,0,0,0,0,0,0,0,0,0,0,0,0,1,
scooby_state_40f7b9|19|-1 1,0,0,0,0,0,0,0,0,0,0,0,0,0,0,1,
scooby_state_40f7b9|21|-2 1,0,0,0,0,0,0,0,0,0,0,0,0,0,0,1,
scooby_state_a521b6|47|-1 1,0,0,0,0,0,0,0,0,0,0,0,0,0,0,1,
scooby_state_40e28b|53|-10 1,0,0,0,0,0,0,0,0,0,0,0,0,0,0,1,
scooby_state_a522bb|56|35 1,0,0,0,0,0,0,0,0,0,0,0,0,0,0,1,
scooby_state_40f7b0|24|-1 0,1,0,0,0,0,0,0,0,0,0,0,0,0,0,1,
scooby_state_40f758|27|1 1,0,0,0,0,0,0,0,0,0,0,0,0,0,0,1,
scooby_state_40f7b9|24|2 1,0,0,0,0,0,0,0,0,0,0,0,0,0,0,1,
scooby_state_40f800|32|8 1,0,0,0,0,0,0,0,0,0,0,0,0,0,0,1,
scooby_state_40e20a|55|1 1,0,0,0,0,0,0,0,0,0,0,0,0,0,0,1,
scooby_state_40e10b|40|0 1,0,0,0,0,0,0,0,0,0,0,0,0,0,0,1,
scooby_state_a4c443|53|-3 0,1,0,0,0,0,0,0,0,0,0,0,0,0,0,1,
scooby_state_a52198|54|3 0,1,0,0,0,0,0,0,0,0,0,0,0,0,0,1,
scooby_state_a5221c|20|8 1,0,0,0,0,0,0,0,0,0,0,0,0,0,0,1,
scooby_state_40f7b9|2|-47 1,0,0,0,0,0,0,0,0,0,0,0,0,0,0,1,
scooby_state_a4c443|44|-2 1,0,0,0,0,0,0,0,0,0,0,0,0,0,0,1,
scooby_state_40f7cb|5|1 1,0,0,0,0,0,0,0,0,0,0,0,0,0,0,1,
scooby_state_40e1ac|62|1 1,0,0,0,0,0,0,0,0,0,0,0,0,0,0,1,
scooby_state_a52198|31|16 1,0,0,0,0,0,0,0,0,0,0,0,0,0,0,1,
scooby_state_a521d3|52|0 0,0,0,0,0,0,0,0,0,0,0,0,0,1,0,1,
scooby_state_40f538|20|0 1,0,0,0,0,0,0,0,0,0,0,0,0,0,0,1,
scooby_state_40f7b9|20|-5 1,0,0,0,0,0,0,0,0,0,0,0,0,0,0,1,
scooby_state_40f8e0|31|1 1,0,0,0,0,0,0,0,0,0,0,0,0,0,0,1,
scooby_state_a52221|29|9 1,0,0,0,0,0,0,0,0,0,0,0,0,0,0,1,
scooby_state_40f7b9|19|-33 1,0,0,0,0,0,0,0,0,0,0,0,0,0,0,1,
scooby_state_40e26c|9|1 1,0,0,0,0,0,0,0,0,0,0,0,0,0,0,1,
scooby_state_40e222|57|5 1,0,0,0,0,0,0,0,0,0,0,0,0,0,0,1,
scooby_state_40e3a6|58|7 1,0,0,0,0,0,0,0,0,0,0,0,0,0,0,1,
scooby_state_a52221|53|4 1,0,0,0,0,0,0,0,0,0,0,0,0,0,0,1,
scooby_state_40f886|34|3 1,0,0,0,0,0,0,0,0,0,0,0,0,0,0,1,
scooby_state_40f7cb|51|1 1,0,0,0,0,0,0,0,0,0,0,0,0,0,0,1,
scooby_state_40e3b3|20|1 1,0,0,0,0,0,0,0,0,0,0,0,0,0,0,1,
scooby_state_a51662|6|0 1,0,0,0,0,0,0,0,0,0,0,0,0,0,0,1,
scooby_state_40f797|56|-4 0,1,0,0,0,0,0,0,0,0,0,0,0,0,0,1,
scooby_state_40e222|5|1 1,0,0,0,0,0,0,0,0,0,0,0,0,0,0,1,
scooby_state_a522bb|11|-8 1,0,0,0,0,0,0,0,0,0,0,0,0,0,0,1,
scooby_state_a522f2|26|1 0,1,0,0,0,0,0,0,0,0,0,0,0,0,0,1,
scooby_state_a4c443|31|15 1,0,0,0,0,0,0,0,0,0,0,0,0,0,0,1,
scooby_state_40e3b3|38|1 1,0,0,0,0,0,0,0,0,0,0,0,0,0,0,1,
scooby_state_40e39c|14|4 1,0,0,0,0,0,0,0,0,0,0,0,0,0,0,1,
scooby_state_40e3a6|61|1 1,0,0,0,0,0,0,0,0,0,0,0,0,0,0,1,
scooby_state_40f89a|40|0 1,0,0,0,0,0,0,0,0,0,0,0,0,0,0,1,
scooby_state_40f70a|25|2 1,0,0,0,0,0,0,0,0,0,0,0,0,0,0,1,
scooby_state_40e20e|52|1 1,0,0,0,0,0,0,0,0,0,0,0,0,0,0,1,
scooby_state_40f700|28|1 1,0,0,0,0,0,0,0,0,0,0,0,0,0,0,1,
scooby_state_40e3a6|11|0 1,0,0,0,0,0,0,0,0,0,0,0,0,0,0,1,
scooby_state_40f4f0|19|-11 1,0,0,0,0,0,0,0,0,0,0,0,0,0,0,1,
scooby_state_40f542|21|1 1,0,0,0,0,0,0,0,0,0,0,0,0,0,0,1,
scooby_state_40e3b7|37|-2 0,1,0,0,0,0,0,0,0,0,0,0,0,0,0,1,
scooby_state_a522bb|36|16 1,0,0,0,0,0,0,0,0,0,0,0,0,0,0,1,
scooby_state_40f6ef|27|6 1,0,0,0,0,0,0,0,0,0,0,0,0,0,0,1,
scooby_state_a522f2|16|-1 1,0,0,0,0,0,0,0,0,0,0,0,0,0,0,1,
scooby_state_a521d3|59|1 1,0,0,0,0,0,0,0,0,0,0,0,0,0,0,1,
scooby_state_40e580|22|1 1,0,0,0,0,0,0,0,0,0,0,0,0,0,0,1,
scooby_state_40e140|5|1 1,0,0,0,0,0,0,0,0,0,0,0,0,0,0,1,
scooby_state_40e3b3|35|1 1,0,0,0,0,0,0,0,0,0,0,0,0,0,0,1,
scooby_state_a522bb|55|33 1,0,0,0,0,0,0,0,0,0,0,0,0,0,0,1,
scooby_state_a51744|29|1 1,0,0,0,0,0,0,0,0,0,0,0,0,0,0,1,
scooby_state_a522bb|12|-8 1,0,0,0,0,0,0,0,0,0,0,0,0,0,0,1,
scooby_state_40d3f0|15|0 1,0,0,0,0,0,0,0,0,0,0,0,0,0,0,1,
scooby_state_40d482|18|2 1,0,0,0,0,0,0,0,0,0,0,0,0,0,0,1,
scooby_state_a52198|22|2 1,0,0,0,0,0,0,0,0,0,0,0,0,0,0,1,
scooby_state_40d3ff|41|-2 1,0,0,0,0,0,0,0,0,0,0,0,0,0,0,1,
scooby_state_40e3b3|12|1 1,0,0,0,0,0,0,0,0,0,0,0,0,0,0,1,
scooby_state_a4c443|20|16 0,0,0,0,0,0,0,0,0,1,0,0,0,0,0,1,
scooby_state_a521dd|7|1 1,0,0,0,0,0,0,0,0,0,0,0,0,0,0,1,
scooby_state_40f70a|52|2 1,0,0,0,0,0,0,0,0,0,0,0,0,0,0,1,
scooby_state_a522b6|43|2 0,0,0,0,0,1,0,0,0,0,0,0,0,0,0,1,
scooby_state_a52221|9|4 1,0,0,0,0,0,0,0,0,0,0,0,0,0,0,1,
scooby_state_40e3b3|6|1 1,0,0,0,0,0,0,0,0,0,0,0,0,0,0,1,
scooby_state_40f7b9|50|5 1,0,0,0,0,0,0,0,0,0,0,0,0,0,0,1,
scooby_state_40e38e|23|1 1,0,0,0,0,0,0,0,0,0,0,0,0,0,0,1,
scooby_state_40f7b9|53|2 1,0,0,0,0,0,0,0,0,0,0,0,0,0,0,1,
scooby_state_a522bb|16|6 1,0,0,0,0,0,0,0,0,0,0,0,0,0,0,1,
scooby_state_40f7b9|27|-1 1,0,0,0,0,0,0,0,0,0,0,0,0,0,0,1,
scooby_state_a52221|29|4 1,0,0,0,0,0,0,0,0,0,0,0,0,0,0,1,
scooby_state_a4c443|18|3 0,0,0,0,0,0,0,0,0,0,0,0,1,0,0,1,
scooby_state_a52368|30|-1 1,0,0,0,0,0,0,0,0,0,0,0,0,0,0,1,
scooby_state_a521d3|3|0 0,0,0,0,0,0,0,0,0,0,0,1,0,0,0,1,
scooby_state_a4c443|63|54 1,0,0,0,0,0,0,0,0,0,0,0,0,0,0,1,
scooby_state_a4c443|47|7 0,0,1,0,0,0,0,0,0,0,0,0,0,0,0,1,
scooby_state_40f7eb|31|2 1,0,0,0,0,0,0,0,0,0,0,0,0,0,0,1,
scooby_state_40d423|35|4 1,0,0,0,0,0,0,0,0,0,0,0,0,0,0,1,
scooby_state_a52334|35|9 0,1,0,0,0,0,0,0,0,0,0,0,0,0,0,1,
scooby_state_40e20e|44|1 1,0,0,0,0,0,0,0,0,0,0,0,0,0,0,1,
scooby_state_40f762|29|1 1,0,0,0,0,0,0,0,0,0,0,0,0,0,0,1,
scooby_state_a521b6|32|0 0,0,0,0,0,0,0,0,0,0,0,0,0,0,1,1,
scooby_state_a4c443|24|6 1,0,0,0,0,0,0,0,0,0,0,0,0,0,0,1,
scooby_state_40e38e|33|1 1,0,0,0,0,0,0,0,0,0,0,0,0,0,0,1,
scooby_state_40f7cb|59|1 1,0,0,0,0,0,0,0,0,0,0,0,0,0,0,1,
scooby_state_a522bb|10|-10 1,0,0,0,0,0,0,0,0,0,0,0,0,0,0,1,
scooby_state_40e3b3|2|1 1,0,0,0,0,0,0,0,0,0,0,0,0,0,0,1,
scooby_state_a51370|13|-13 1,0,0,0,0,0,0,0,0,0,0,0,0,0,0,1,

scooby_action_0_deg_dist 0,1989,0,0,0,0,0,0,0,0,0,0,0,0,0,0,
scooby_action_-6_deg_dist 0,577,0,0,0,0,0,0,0,0,0,0,0,0,0,0,
scooby_action_32_deg_dist 0,477,1,0,0,0,0,0,0,0,0,0,0,0,0,0,
scooby_action_3_deg_dist 0,4471,172,0,110,0,158,0,0,0,0,0,0,0,0,0,
scooby_action_4_deg_dist 0,898,11,0,5,0,6,0,0,0,0,0,0,0,0,0,
scooby_action_1_deg_dist 0,50387,19824,0,45469,0,841627,0,0,0,0,0,0,0,0,0,
scooby_action_30_deg_dist 0,533,0,0,0,0,0,0,0,0,0,0,0,0,0,0,
scooby_action_5_deg_dist 0,597,3,0,0,0,0,0,0,0,0,0,0,0,0,0,
scooby_action_10_deg_dist 0,592,2,0,3,0,0,0,0,0,0,0,0,0,0,0,
scooby_action_-1_deg_dist 0,652,5,0,1,0,0,0,0,0,0,0,0,0,0,0,
scooby_action_23_deg_dist 0,542,2,0,0,0,0,0,0,0,0,0,0,0,0,0,
scooby_action_11_deg_dist 0,594,1,0,0,0,0,0,0,0,0,0,0,0,0,0,
scooby_action_-3_deg_dist 0,611,0,0,0,0,0,0,0,0,0,0,0,0,0,0,
scooby_action_12_deg_dist 0,578,1,0,0,0,0,0,0,0,0,0,0,0,0,0,
scooby_action_22_deg_dist 0,548,0,0,0,0,0,0,0,0,0,0,0,0,0,0,

scooby_track_called 971447
scooby_track_same_address 3033
scooby_track_evict 968158

scooby_reward_demand_called 971447
scooby_reward_demand_pt_not_found 46724
scooby_reward_demand_pt_found 924723
scooby_reward_demand_pt_found_total 924723
scooby_reward_demand_has_reward 0
scooby_reward_train_called 27062
scooby_reward_assign_reward_called 968385
scooby_reward_no_pref 1989
scooby_reward_incorrect 25073
scooby_reward_correct_untimely 887359
scooby_reward_correct_timely 37364
scooby_reward_out_of_bounds 16600
scooby_reward_tracker_hit 0

scooby_reward_none_low_bw 1989
scooby_reward_none_high_bw 0
scooby_reward_incorrect_low_bw 25073
scooby_reward_incorrect_high_bw 0
scooby_reward_correct_untimely_low_bw 887359
scooby_reward_correct_untimely_high_bw 0
scooby_reward_correct_timely_low_bw 37364
scooby_reward_correct_timely_high_bw 0
scooby_reward_out_of_bounds_low_bw 16600
scooby_reward_out_of_bounds_high_bw 0
scooby_reward_tracker_hit_low_bw 0
scooby_reward_tracker_hit_high_bw 0

scooby_reward_1 0,18283,885510,36363,14434,0,
scooby_reward_3 0,2331,1406,568,581,0,
scooby_reward_4 0,608,108,99,102,0,
scooby_reward_5 0,409,85,17,89,0,
scooby_reward_10 0,371,36,62,128,0,
scooby_reward_11 0,368,44,61,122,0,
scooby_reward_12 0,360,43,55,121,0,
scooby_reward_22 0,276,33,45,194,0,
scooby_reward_23 0,272,29,39,204,0,
scooby_reward_30 0,179,33,26,295,0,
scooby_reward_32 0,153,31,22,272,0,
scooby_reward_-1 0,517,1,6,9,0,
scooby_reward_-3 0,490,0,1,14,0,
scooby_reward_-6 0,456,0,0,35,0,
scooby_reward_0 1989,0,0,0,0,0,

scooby_train_called 968157
scooby_train_compute_reward 27062

scooby_register_fill_called 487647
scooby_register_fill_set 49022
scooby_register_fill_set_total 49022

scooby_register_prefetch_hit_called 4527018
scooby_register_prefetch_hit_set 902783
scooby_register_prefetch_hit_set_total 902783

scooby_pref_issue_scooby 5026292

learning_engine_featurewise.action.called 971447
learning_engine_featurewise.action.explore 1785
learning_engine_featurewise.action.exploit 969662
learning_engine_featurewise.action.fallback 1299
learning_engine_featurewise.action.dyn_fallback_saved_bw 0
learning_engine_featurewise.action.dyn_fallback_saved_bw_acc 293
learning_engine_featurewise.action.index_1_explored 122
learning_engine_featurewise.action.index_1_exploited 957185
learning_engine_featurewise.action.index_3_explored 125
learning_engine_featurewise.action.index_3_exploited 4786
learning_engine_featurewise.action.index_4_explored 115
learning_engine_featurewise.action.index_4_exploited 805
learning_engine_featurewise.action.index_5_explored 117
learning_engine_featurewise.action.index_5_exploited 483
learning_engine_featurewise.action.index_10_explored 130
learning_engine_featurewise.action.index_10_exploited 467
learning_engine_featurewise.action.index_11_explored 114
learning_engine_featurewise.action.index_11_exploited 481
learning_engine_featurewise.action.index_12_explored 121
learning_engine_featurewise.action.index_12_exploited 458
learning_engine_featurewise.action.index_22_explored 127
learning_engine_featurewise.action.index_22_exploited 421
learning_engine_featurewise.action.index_23_explored 123
learning_engine_featurewise.action.index_23_exploited 421
learning_engine_featurewise.action.index_30_explored 130
learning_engine_featurewise.action.index_30_exploited 403
learning_engine_featurewise.action.index_32_explored 102
learning_engine_featurewise.action.index_32_exploited 376
learning_engine_featurewise.action.index_-1_explored 120
learning_engine_featurewise.action.index_-1_exploited 538
learning_engine_featurewise.action.index_-3_explored 113
learning_engine_featurewise.action.index_-3_exploited 498
learning_engine_featurewise.action.index_-6_explored 103
learning_engine_featurewise.action.index_-6_exploited 474
learning_engine_featurewise.action.index_0_explored 123
learning_engine_featurewise.action.index_0_exploited 1866
learning_engine_featurewise.learn.called 968157
learning_engine_featurewise.learn.su_skip_PC 0
learning_engine_featurewise.learn.su_skip_PC_Delta 0

learning_engine_featurewise.q_value_histogram.bucket_0 0
learning_engine_featurewise.q_value_histogram.bucket_1 2
learning_engine_featurewise.q_value_histogram.bucket_2 4443
learning_engine_featurewise.q_value_histogram.bucket_3 6077
learning_engine_featurewise.q_value_histogram.bucket_4 7615
learning_engine_featurewise.q_value_histogram.bucket_5 8541
learning_engine_featurewise.q_value_histogram.bucket_6 942984
learning_engine_featurewise.q_value_histogram.bucket_7 0

learning_engine_featurewise.consensus.total 969662
learning_engine_featurewise.consensus.feature_align_PC 958054
learning_engine_featurewise.consensus.feature_align_PC_ratio 0.99
learning_engine_featurewise.consensus.feature_align_PC_Delta 966286
learning_engine_featurewise.consensus.feature_align_PC_Delta_ratio 1.00
learning_engine_featurewise.consensus.feature_align_all 954680
learning_engine_featurewise.consensus.feature_align_all_ratio 0.98

learning_engine_featurewise.feature_PC_min_weight 1000000.00000000
learning_engine_featurewise.feature_PC_max_weight 0.00000000
learning_engine_featurewise.feature_PC_Delta_min_weight 1000000.00000000
learning_engine_featurewise.feature_PC_Delta_max_weight 0.00000000
unique_pcs 184
unique_pages 5904
unique_trigger_pcs 98
total_bitmaps_seen 0
unique_bitmaps_seen 0

scooby_bw_epochs 469250
scooby_bw_level_0 466598
scooby_bw_level_1 2554
scooby_bw_level_2 82
scooby_bw_level_3 16

scooby_ipc_epochs 0
scooby_ipc_level_0 0
scooby_ipc_level_1 0
scooby_ipc_level_2 0
scooby_ipc_level_3 0

scooby_cache_acc_epochs 116320
scooby_cache_acc_level_0 244
scooby_cache_acc_level_1 129
scooby_cache_acc_level_2 460
scooby_cache_acc_level_3 579
scooby_cache_acc_level_4 1804
scooby_cache_acc_level_5 2688
scooby_cache_acc_level_6 5272
scooby_cache_acc_level_7 9340
scooby_cache_acc_level_8 13970
scooby_cache_acc_level_9 81834

Channel_0_RQ_row_buffer_hit 340703
Channel_0_RQ_row_buffer_miss 30971
Channel_0_WQ_row_buffer_hit 74
Channel_0_WQ_row_buffer_miss 202
Channel_0_WQ_full 0
Channel_0_dbus_congested 43059

avg_congested_cycle 10

DRAM_bw_pochs 469250
DRAM_bw_level_0 466598
DRAM_bw_level_1 2554
DRAM_bw_level_2 82
DRAM_bw_level_3 16
