*************************************************
   ChampSim Multicore Out-of-Order Simulator
   Last compiled: Apr  3 2025 20:54:34
*************************************************
parsing config file: /home/zir/Pythia/config/pythia.ini

trace_0 /home/zir/ChampSim/ML-DPC/ChampSimTraces/spec17/621.wrf-s2.trace.xz
adding L2C_PREFETCHER: Scooby
Initialize SHIP state
warmup_instructions 10000000
simulation_instructions 50000000
champsim_seed 165
measure_ipc 0
measure_ipc_epoch 1000
measure_dram_bw 1
measure_dram_bw_epoch 256
measure_cache_acc 1
measure_cache_acc_epoch 1024
l1d_perfect 0
l2c_perfect 0
llc_perfect 0
l1d_semi_perfect 0
l2c_semi_perfect 0
llc_semi_perfect 0
semi_perfect_cache_page_buffer_size 64

num_cpus 1
cpu_freq 4000
dram_io_freq 2400
page_size 4096
block_size 64
max_read_per_cycle 8
max_fill_per_cycle 1
dram_channels 1
log2_dram_channels 0
dram_ranks 1
dram_banks 8
dram_rows 65536
dram_columns 128
dram_row_size 8
dram_size 4096
dram_pages 1048576

fetch_width 6
decode_width 6
exec_width 4
lq_width 2
sq_width 2
retire_width 4
scheduler_size 128
branch_mispredict_penalty 20
rob_size 256
lq_size 72
sq_size 56
num_instr_destinations_sparc 4
num_instr_destinations 2
num_instr_sources 4

itlb_set 16
itlb_way 8
itlb_rq_size 16
itlb_wq_size 16
itlb_pq_size 0
itlb_mshr_size 8
itlb_latency 1

dtlb_set 16
dtlb_way 4
dtlb_rq_size 16
dtlb_wq_size 16
dtlb_pq_size 0
dtlb_mshr_size 8
dtlb_latency 1

stlb_set 128
stlb_way 12
stlb_rq_size 32
stlb_wq_size 32
stlb_pq_size 0
stlb_mshr_size 16
stlb_latency 8

l1i_size 32
l1i_set 64
l1i_way 8
l1i_rq_size 64
l1i_wq_size 64
l1i_pq_size 8
l1i_mshr_size 8
l1i_latency 1

l1d_size 32
l1d_set 64
l1d_way 8
l1d_rq_size 64
l1d_wq_size 64
l1d_pq_size 8
l1d_mshr_size 16
l1d_latency 4

l2c_size 256
l2c_set 512
l2c_way 8
l2c_rq_size 32
l2c_wq_size 32
l2c_pq_size 32
l2c_mshr_size 32
l2c_latency 10

llc_size 2048
llc_set 2048
llc_way 16
llc_rq_size 32
llc_wq_size 32
llc_pq_size 32
llc_mshr_size 64
llc_latency 20

dram_channel_width 8
dram_wq_size 64
dram_rq_size 64
tRP 15
tRCD 15
tCAS 12.5
dram_dbus_turn_around_time 30
dram_write_high_wm 56
dram_write_low_wm 48
min_dram_writes_per_switch 16
dram_mtps 2400
dram_dbus_return_time 13

scooby_alpha 0.0065088
scooby_gamma 0.556301
scooby_epsilon 0.00182284
scooby_state_num_bits 10
scooby_max_states 1024
scooby_seed 200
scooby_policy EGreedy
scooby_learning_type SARSA
scooby_actions 1,3,4,5,10,11,12,22,23,30,32,-1,-3,-6,0,
scooby_max_actions 15
scooby_pt_size 256
scooby_st_size 64
scooby_max_pcs 5
scooby_max_offsets 5
scooby_max_deltas 5
scooby_reward_none -4
scooby_reward_incorrect -8
scooby_reward_correct_untimely 12
scooby_reward_correct_timely 20
scooby_brain_zero_init 0
scooby_enable_reward_all 0
scooby_enable_track_multiple 0
scooby_enable_reward_out_of_bounds 1
scooby_reward_out_of_bounds -12
scooby_state_type 1
scooby_state_hash_type 11
scooby_access_debug 0
scooby_print_access_debug 0
scooby_print_access_debug_pc deadbeef
scooby_print_access_debug_pc_count 0
scooby_print_trace 0
scooby_enable_state_action_stats 1
scooby_enable_reward_tracker_hit 0
scooby_reward_tracker_hit -2
scooby_enable_featurewise_engine 1
scooby_pref_degree 1
scooby_enable_dyn_degree 1
scooby_max_to_avg_q_thresholds 0.5,1,2,
scooby_dyn_degrees 1,2,4,4,
scooby_multi_deg_select_type 2
scooby_last_pref_offset_conf_thresholds 1,3,8,
scooby_dyn_degrees_type2 1,2,4,6,
scooby_action_tracker_size 2
scooby_high_bw_thresh 4
scooby_enable_hbw_reward 1
scooby_reward_hbw_correct_timely 20
scooby_reward_hbw_correct_untimely 12
scooby_reward_hbw_incorrect -14
scooby_reward_hbw_none -2
scooby_reward_hbw_out_of_bounds -12
scooby_reward_hbw_tracker_hit -2
scooby_last_pref_offset_conf_thresholds_hbw 1,3,8,
scooby_dyn_degrees_type2_hbw 1,2,4,6,

le_enable_trace 0
le_trace_interval 0
le_trace_file_name 
le_trace_state 0
le_enable_score_plot 0
le_plot_file_name 
le_plot_actions 
le_enable_action_trace 0
le_action_trace_interval 0
le_action_trace_name 
le_enable_action_plot 0

le_featurewise_active_features PC, PC_Delta
le_featurewise_num_tilings 3,3,
le_featurewise_num_tiles 128,128,
le_featurewise_hash_types 2,2,
le_featurewise_enable_tiling_offset 1,1,
le_featurewise_max_q_thresh 0.5
le_featurewise_enable_action_fallback 1
le_featurewise_feature_weights 1,1,
le_featurewise_enable_dynamic_weight 0
le_featurewise_weight_gradient 0.001
le_featurewise_disable_adjust_weight_all_features_align 1
le_featurewise_selective_update 0
le_featurewise_pooling_type 2
le_featurewise_enable_dyn_action_fallback 1
le_featurewise_bw_acc_check_level 1
le_featurewise_acc_thresh 2
le_featurewise_enable_trace 0
le_featurewise_trace_feature_type 0
le_featurewise_trace_feature 
le_featurewise_trace_interval 0
le_featurewise_trace_record_count 0
le_featurewise_trace_file_name 
le_featurewise_enable_score_plot 0
le_featurewise_plot_actions 
le_featurewise_plot_file_name 


Heartbeat CPU  0 instructions:    1000003 cycles:     485724 heartbeat IPC: 2.05879 cumulative IPC: 2.05879 (Simulation time: 0 hr 0 min 2 sec) 
Heartbeat CPU  0 instructions:    2000002 cycles:     937887 heartbeat IPC: 2.21159 cumulative IPC: 2.13246 (Simulation time: 0 hr 0 min 5 sec) 
Heartbeat CPU  0 instructions:    3000003 cycles:    1363524 heartbeat IPC: 2.34942 cumulative IPC: 2.20018 (Simulation time: 0 hr 0 min 7 sec) 
Heartbeat CPU  0 instructions:    4000000 cycles:    1771907 heartbeat IPC: 2.44867 cumulative IPC: 2.25745 (Simulation time: 0 hr 0 min 9 sec) 
Heartbeat CPU  0 instructions:    5000000 cycles:    2195178 heartbeat IPC: 2.36255 cumulative IPC: 2.27772 (Simulation time: 0 hr 0 min 11 sec) 
Heartbeat CPU  0 instructions:    6000002 cycles:    2646915 heartbeat IPC: 2.21368 cumulative IPC: 2.26679 (Simulation time: 0 hr 0 min 13 sec) 
Heartbeat CPU  0 instructions:    7000003 cycles:    3177551 heartbeat IPC: 1.88453 cumulative IPC: 2.20296 (Simulation time: 0 hr 0 min 16 sec) 
Heartbeat CPU  0 instructions:    8000000 cycles:    3645969 heartbeat IPC: 2.13484 cumulative IPC: 2.19420 (Simulation time: 0 hr 0 min 18 sec) 
Heartbeat CPU  0 instructions:    9000000 cycles:    4125885 heartbeat IPC: 2.08370 cumulative IPC: 2.18135 (Simulation time: 0 hr 0 min 20 sec) 
Heartbeat CPU  0 instructions:   10000003 cycles:    4605292 heartbeat IPC: 2.08592 cumulative IPC: 2.17142 (Simulation time: 0 hr 0 min 21 sec) 

Warmup complete CPU  0 instructions:   10000003 cycles:    4605292 (Simulation time: 0 hr 0 min 21 sec) 

Heartbeat CPU  0 instructions:   11000000 cycles:    5335133 heartbeat IPC: 1.37016 cumulative IPC: 1.37016 (Simulation time: 0 hr 0 min 23 sec) 
Heartbeat CPU  0 instructions:   12000000 cycles:    6072595 heartbeat IPC: 1.35600 cumulative IPC: 1.36304 (Simulation time: 0 hr 0 min 25 sec) 
Heartbeat CPU  0 instructions:   13000001 cycles:    6810369 heartbeat IPC: 1.35543 cumulative IPC: 1.36050 (Simulation time: 0 hr 0 min 27 sec) 
Heartbeat CPU  0 instructions:   14000000 cycles:    7462808 heartbeat IPC: 1.53271 cumulative IPC: 1.39982 (Simulation time: 0 hr 0 min 29 sec) 
Heartbeat CPU  0 instructions:   15000000 cycles:    8103378 heartbeat IPC: 1.56111 cumulative IPC: 1.42935 (Simulation time: 0 hr 0 min 31 sec) 
Heartbeat CPU  0 instructions:   16000000 cycles:    8741733 heartbeat IPC: 1.56653 cumulative IPC: 1.45052 (Simulation time: 0 hr 0 min 33 sec) 
Heartbeat CPU  0 instructions:   17000003 cycles:    9378787 heartbeat IPC: 1.56973 cumulative IPC: 1.46643 (Simulation time: 0 hr 0 min 34 sec) 
Heartbeat CPU  0 instructions:   18000002 cycles:   10016386 heartbeat IPC: 1.56838 cumulative IPC: 1.47844 (Simulation time: 0 hr 0 min 36 sec) 
Heartbeat CPU  0 instructions:   19000000 cycles:   10678354 heartbeat IPC: 1.51064 cumulative IPC: 1.48195 (Simulation time: 0 hr 0 min 38 sec) 
Heartbeat CPU  0 instructions:   20000000 cycles:   11342998 heartbeat IPC: 1.50456 cumulative IPC: 1.48418 (Simulation time: 0 hr 0 min 40 sec) 
Heartbeat CPU  0 instructions:   21000001 cycles:   12008914 heartbeat IPC: 1.50169 cumulative IPC: 1.48576 (Simulation time: 0 hr 0 min 42 sec) 
Heartbeat CPU  0 instructions:   22000000 cycles:   12673533 heartbeat IPC: 1.50462 cumulative IPC: 1.48731 (Simulation time: 0 hr 0 min 43 sec) 
Heartbeat CPU  0 instructions:   23000000 cycles:   13332329 heartbeat IPC: 1.51792 cumulative IPC: 1.48962 (Simulation time: 0 hr 0 min 45 sec) 
Heartbeat CPU  0 instructions:   24000000 cycles:   13958294 heartbeat IPC: 1.59753 cumulative IPC: 1.49685 (Simulation time: 0 hr 0 min 47 sec) 
Heartbeat CPU  0 instructions:   25000001 cycles:   14592284 heartbeat IPC: 1.57731 cumulative IPC: 1.50195 (Simulation time: 0 hr 0 min 49 sec) 
Heartbeat CPU  0 instructions:   26000000 cycles:   15229059 heartbeat IPC: 1.57041 cumulative IPC: 1.50606 (Simulation time: 0 hr 0 min 51 sec) 
Heartbeat CPU  0 instructions:   27000001 cycles:   15900459 heartbeat IPC: 1.48943 cumulative IPC: 1.50507 (Simulation time: 0 hr 0 min 54 sec) 
Heartbeat CPU  0 instructions:   28000000 cycles:   16546836 heartbeat IPC: 1.54708 cumulative IPC: 1.50734 (Simulation time: 0 hr 0 min 55 sec) 
Heartbeat CPU  0 instructions:   29000000 cycles:   17695695 heartbeat IPC: 0.87043 cumulative IPC: 1.45144 (Simulation time: 0 hr 0 min 58 sec) 
Heartbeat CPU  0 instructions:   30000000 cycles:   18503679 heartbeat IPC: 1.23765 cumulative IPC: 1.43902 (Simulation time: 0 hr 1 min 0 sec) 
Heartbeat CPU  0 instructions:   31000000 cycles:   20524307 heartbeat IPC: 0.49490 cumulative IPC: 1.31918 (Simulation time: 0 hr 1 min 3 sec) 
Heartbeat CPU  0 instructions:   32000000 cycles:   21234358 heartbeat IPC: 1.40835 cumulative IPC: 1.32298 (Simulation time: 0 hr 1 min 5 sec) 
Heartbeat CPU  0 instructions:   33000002 cycles:   21946373 heartbeat IPC: 1.40447 cumulative IPC: 1.32633 (Simulation time: 0 hr 1 min 7 sec) 
Heartbeat CPU  0 instructions:   34000000 cycles:   22659548 heartbeat IPC: 1.40218 cumulative IPC: 1.32933 (Simulation time: 0 hr 1 min 8 sec) 
Heartbeat CPU  0 instructions:   35000003 cycles:   23369525 heartbeat IPC: 1.40850 cumulative IPC: 1.33232 (Simulation time: 0 hr 1 min 10 sec) 
Heartbeat CPU  0 instructions:   36000000 cycles:   24081336 heartbeat IPC: 1.40486 cumulative IPC: 1.33497 (Simulation time: 0 hr 1 min 12 sec) 
Heartbeat CPU  0 instructions:   37000000 cycles:   24725573 heartbeat IPC: 1.55222 cumulative IPC: 1.34193 (Simulation time: 0 hr 1 min 14 sec) 
Heartbeat CPU  0 instructions:   38000002 cycles:   25361705 heartbeat IPC: 1.57200 cumulative IPC: 1.34898 (Simulation time: 0 hr 1 min 16 sec) 
Heartbeat CPU  0 instructions:   39000001 cycles:   25998223 heartbeat IPC: 1.57105 cumulative IPC: 1.35559 (Simulation time: 0 hr 1 min 17 sec) 
Heartbeat CPU  0 instructions:   40000000 cycles:   26633768 heartbeat IPC: 1.57345 cumulative IPC: 1.36187 (Simulation time: 0 hr 1 min 19 sec) 
Heartbeat CPU  0 instructions:   41000002 cycles:   27269793 heartbeat IPC: 1.57227 cumulative IPC: 1.36778 (Simulation time: 0 hr 1 min 21 sec) 
Heartbeat CPU  0 instructions:   42000003 cycles:   27929932 heartbeat IPC: 1.51483 cumulative IPC: 1.37194 (Simulation time: 0 hr 1 min 23 sec) 
Heartbeat CPU  0 instructions:   43000000 cycles:   28595262 heartbeat IPC: 1.50301 cumulative IPC: 1.37557 (Simulation time: 0 hr 1 min 24 sec) 
Heartbeat CPU  0 instructions:   44000000 cycles:   29260189 heartbeat IPC: 1.50392 cumulative IPC: 1.37904 (Simulation time: 0 hr 1 min 26 sec) 
Heartbeat CPU  0 instructions:   45000002 cycles:   29924979 heartbeat IPC: 1.50424 cumulative IPC: 1.38232 (Simulation time: 0 hr 1 min 28 sec) 
Heartbeat CPU  0 instructions:   46000001 cycles:   30582579 heartbeat IPC: 1.52068 cumulative IPC: 1.38583 (Simulation time: 0 hr 1 min 30 sec) 
Heartbeat CPU  0 instructions:   47000003 cycles:   31214477 heartbeat IPC: 1.58254 cumulative IPC: 1.39050 (Simulation time: 0 hr 1 min 32 sec) 
Heartbeat CPU  0 instructions:   48000000 cycles:   31850073 heartbeat IPC: 1.57332 cumulative IPC: 1.39476 (Simulation time: 0 hr 1 min 34 sec) 
Heartbeat CPU  0 instructions:   49000001 cycles:   32483352 heartbeat IPC: 1.57908 cumulative IPC: 1.39895 (Simulation time: 0 hr 1 min 36 sec) 
Heartbeat CPU  0 instructions:   50000001 cycles:   33384172 heartbeat IPC: 1.11010 cumulative IPC: 1.38991 (Simulation time: 0 hr 1 min 38 sec) 
Heartbeat CPU  0 instructions:   51000002 cycles:   34263879 heartbeat IPC: 1.13674 cumulative IPC: 1.38240 (Simulation time: 0 hr 1 min 41 sec) 
Heartbeat CPU  0 instructions:   52000000 cycles:   36058399 heartbeat IPC: 0.55725 cumulative IPC: 1.33532 (Simulation time: 0 hr 1 min 43 sec) 
Heartbeat CPU  0 instructions:   53000000 cycles:   36763665 heartbeat IPC: 1.41790 cumulative IPC: 1.33713 (Simulation time: 0 hr 1 min 45 sec) 
Heartbeat CPU  0 instructions:   54000003 cycles:   37468967 heartbeat IPC: 1.41784 cumulative IPC: 1.33886 (Simulation time: 0 hr 1 min 47 sec) 
Heartbeat CPU  0 instructions:   55000000 cycles:   38175670 heartbeat IPC: 1.41502 cumulative IPC: 1.34047 (Simulation time: 0 hr 1 min 49 sec) 
Heartbeat CPU  0 instructions:   56000000 cycles:   38882396 heartbeat IPC: 1.41498 cumulative IPC: 1.34200 (Simulation time: 0 hr 1 min 51 sec) 
Heartbeat CPU  0 instructions:   57000002 cycles:   39571335 heartbeat IPC: 1.45151 cumulative IPC: 1.34416 (Simulation time: 0 hr 1 min 53 sec) 
Heartbeat CPU  0 instructions:   58000002 cycles:   40208233 heartbeat IPC: 1.57011 cumulative IPC: 1.34820 (Simulation time: 0 hr 1 min 54 sec) 
Heartbeat CPU  0 instructions:   59000000 cycles:   40841553 heartbeat IPC: 1.57898 cumulative IPC: 1.35224 (Simulation time: 0 hr 1 min 56 sec) 
Heartbeat CPU  0 instructions:   60000000 cycles:   41475250 heartbeat IPC: 1.57804 cumulative IPC: 1.35612 (Simulation time: 0 hr 1 min 58 sec) 
Finished CPU 0 instructions: 50000000 cycles: 36870003 cumulative IPC: 1.35612 (Simulation time: 0 hr 1 min 58 sec) 

ChampSim completed all CPUs

[ROI Statistics]
Core_0_instructions 50000000
Core_0_cycles 36870003
Core_0_IPC 1.35612

Core_0_branch_prediction_accuracy 98.99778
Core_0_branch_MPKI 0.32838
Core_0_average_ROB_occupancy_at_mispredict 232.67038

Core_0_L1D_total_access 12080571
Core_0_L1D_total_hit 11353208
Core_0_L1D_total_miss 727363
Core_0_L1D_loads 10501839
Core_0_L1D_load_hit 9914668
Core_0_L1D_load_miss 587171
Core_0_L1D_RFOs 1578732
Core_0_L1D_RFO_hit 1438540
Core_0_L1D_RFO_miss 140192
Core_0_L1D_prefetches 0
Core_0_L1D_prefetch_hit 0
Core_0_L1D_prefetch_miss 0
Core_0_L1D_writebacks 0
Core_0_L1D_writeback_hit 0
Core_0_L1D_writeback_miss 0
Core_0_L1D_prefetch_requested 0
Core_0_L1D_prefetch_dropped 0
Core_0_L1D_prefetch_issued 0
Core_0_L1D_prefetch_filled 0
Core_0_L1D_prefetch_useful 0
Core_0_L1D_prefetch_useless 0
Core_0_L1D_prefetch_late 0
Core_0_L1D_average_miss_latency 96.66848

Core_0_L1D_rq_access 16578976
Core_0_L1D_rq_forward 0
Core_0_L1D_rq_merged 5766171
Core_0_L1D_rq_to_cache 10809352
Core_0_L1D_rq_full 0

Core_0_L1D_wq_access 2065746
Core_0_L1D_wq_forward 3453
Core_0_L1D_wq_merged 10056
Core_0_L1D_wq_to_cache 2055690
Core_0_L1D_wq_full 2411822

Core_0_L1D_pq_access 0
Core_0_L1D_pq_forward 0
Core_0_L1D_pq_merged 0
Core_0_L1D_pq_to_cache 0
Core_0_L1D_pq_full 0

Core_0_L1D_acc_epochs 40203
Core_0_L1D_acc_level_0 40203
Core_0_L1D_acc_level_1 0
Core_0_L1D_acc_level_2 0
Core_0_L1D_acc_level_3 0
Core_0_L1D_acc_level_4 0
Core_0_L1D_acc_level_5 0
Core_0_L1D_acc_level_6 0
Core_0_L1D_acc_level_7 0
Core_0_L1D_acc_level_8 0
Core_0_L1D_acc_level_9 0

Core_0_L1I_total_access 12181733
Core_0_L1I_total_hit 12180244
Core_0_L1I_total_miss 1489
Core_0_L1I_loads 12181733
Core_0_L1I_load_hit 12180244
Core_0_L1I_load_miss 1489
Core_0_L1I_RFOs 0
Core_0_L1I_RFO_hit 0
Core_0_L1I_RFO_miss 0
Core_0_L1I_prefetches 0
Core_0_L1I_prefetch_hit 0
Core_0_L1I_prefetch_miss 0
Core_0_L1I_writebacks 0
Core_0_L1I_writeback_hit 0
Core_0_L1I_writeback_miss 0
Core_0_L1I_prefetch_requested 0
Core_0_L1I_prefetch_dropped 0
Core_0_L1I_prefetch_issued 0
Core_0_L1I_prefetch_filled 0
Core_0_L1I_prefetch_useful 0
Core_0_L1I_prefetch_useless 0
Core_0_L1I_prefetch_late 0
Core_0_L1I_average_miss_latency 209.06246

Core_0_L1I_rq_access 50000007
Core_0_L1I_rq_forward 0
Core_0_L1I_rq_merged 37816683
Core_0_L1I_rq_to_cache 12183324
Core_0_L1I_rq_full 0

Core_0_L1I_wq_access 0
Core_0_L1I_wq_forward 0
Core_0_L1I_wq_merged 0
Core_0_L1I_wq_to_cache 0
Core_0_L1I_wq_full 0

Core_0_L1I_pq_access 0
Core_0_L1I_pq_forward 0
Core_0_L1I_pq_merged 0
Core_0_L1I_pq_to_cache 0
Core_0_L1I_pq_full 0

Core_0_L1I_acc_epochs 40203
Core_0_L1I_acc_level_0 40203
Core_0_L1I_acc_level_1 0
Core_0_L1I_acc_level_2 0
Core_0_L1I_acc_level_3 0
Core_0_L1I_acc_level_4 0
Core_0_L1I_acc_level_5 0
Core_0_L1I_acc_level_6 0
Core_0_L1I_acc_level_7 0
Core_0_L1I_acc_level_8 0
Core_0_L1I_acc_level_9 0

Core_0_L2C_total_access 3477778
Core_0_L2C_total_hit 2962667
Core_0_L2C_total_miss 515111
Core_0_L2C_loads 588627
Core_0_L2C_load_hit 549508
Core_0_L2C_load_miss 39119
Core_0_L2C_RFOs 140192
Core_0_L2C_RFO_hit 16841
Core_0_L2C_RFO_miss 123351
Core_0_L2C_prefetches 2482897
Core_0_L2C_prefetch_hit 2130731
Core_0_L2C_prefetch_miss 352166
Core_0_L2C_writebacks 266062
Core_0_L2C_writeback_hit 265587
Core_0_L2C_writeback_miss 475
Core_0_L2C_prefetch_requested 4585736
Core_0_L2C_prefetch_dropped 129921
Core_0_L2C_prefetch_issued 4455815
Core_0_L2C_prefetch_filled 676521
Core_0_L2C_prefetch_useful 630017
Core_0_L2C_prefetch_useless 46347
Core_0_L2C_prefetch_late 17513
Core_0_L2C_average_miss_latency 198.67735

Core_0_L2C_rq_access 728852
Core_0_L2C_rq_forward 0
Core_0_L2C_rq_merged 0
Core_0_L2C_rq_to_cache 728819
Core_0_L2C_rq_full 0

Core_0_L2C_wq_access 266062
Core_0_L2C_wq_forward 236
Core_0_L2C_wq_merged 0
Core_0_L2C_wq_to_cache 266062
Core_0_L2C_wq_full 0

Core_0_L2C_pq_access 4455815
Core_0_L2C_pq_forward 0
Core_0_L2C_pq_merged 407676
Core_0_L2C_pq_to_cache 4047936
Core_0_L2C_pq_full 0

Core_0_L2C_acc_epochs 40203
Core_0_L2C_acc_level_0 3075
Core_0_L2C_acc_level_1 94
Core_0_L2C_acc_level_2 118
Core_0_L2C_acc_level_3 119
Core_0_L2C_acc_level_4 139
Core_0_L2C_acc_level_5 250
Core_0_L2C_acc_level_6 482
Core_0_L2C_acc_level_7 1486
Core_0_L2C_acc_level_8 4769
Core_0_L2C_acc_level_9 29671

Core_0_LLC_total_access 757498
Core_0_LLC_total_hit 484044
Core_0_LLC_total_miss 273454
Core_0_LLC_loads 22147
Core_0_LLC_load_hit 13863
Core_0_LLC_load_miss 8284
Core_0_LLC_RFOs 123351
Core_0_LLC_RFO_hit 34113
Core_0_LLC_RFO_miss 89238
Core_0_LLC_prefetches 369138
Core_0_LLC_prefetch_hit 198093
Core_0_LLC_prefetch_miss 171045
Core_0_LLC_writebacks 242862
Core_0_LLC_writeback_hit 237975
Core_0_LLC_writeback_miss 4887
Core_0_LLC_prefetch_requested 0
Core_0_LLC_prefetch_dropped 0
Core_0_LLC_prefetch_issued 0
Core_0_LLC_prefetch_filled 455895
Core_0_LLC_prefetch_useful 15979
Core_0_LLC_prefetch_useless 424978
Core_0_LLC_prefetch_late 0
Core_0_LLC_average_miss_latency 324.42248

Core_0_LLC_rq_access 145498
Core_0_LLC_rq_forward 0
Core_0_LLC_rq_merged 0
Core_0_LLC_rq_to_cache 145498
Core_0_LLC_rq_full 0

Core_0_LLC_wq_access 242862
Core_0_LLC_wq_forward 0
Core_0_LLC_wq_merged 0
Core_0_LLC_wq_to_cache 242862
Core_0_LLC_wq_full 0

Core_0_LLC_pq_access 694034
Core_0_LLC_pq_forward 0
Core_0_LLC_pq_merged 0
Core_0_LLC_pq_to_cache 694034
Core_0_LLC_pq_full 0

Core_0_LLC_acc_epochs 40504
Core_0_LLC_acc_level_0 39121
Core_0_LLC_acc_level_1 487
Core_0_LLC_acc_level_2 228
Core_0_LLC_acc_level_3 115
Core_0_LLC_acc_level_4 61
Core_0_LLC_acc_level_5 126
Core_0_LLC_acc_level_6 41
Core_0_LLC_acc_level_7 48
Core_0_LLC_acc_level_8 38
Core_0_LLC_acc_level_9 239

Core_0_major_page_fault 0
Core_0_minor_page_fault 5200

scooby_st_lookup 940885
scooby_st_hit 896618
scooby_st_evict 44203
scooby_st_insert 44267
scooby_st_streaming 0

scooby_predict_called 940885
scooby_predict_out_of_bounds 20528
scooby_predict_action_1 855025
scooby_predict_issue_action_1 853481
scooby_predict_hit_action_1 1544
scooby_predict_out_of_bounds_action_1 14227
scooby_predict_action_3 756
scooby_predict_issue_action_3 750
scooby_predict_hit_action_3 6
scooby_predict_out_of_bounds_action_3 36
scooby_predict_action_4 549
scooby_predict_issue_action_4 546
scooby_predict_hit_action_4 3
scooby_predict_out_of_bounds_action_4 46
scooby_predict_action_5 59418
scooby_predict_issue_action_5 59116
scooby_predict_hit_action_5 302
scooby_predict_out_of_bounds_action_5 5051
scooby_predict_action_10 1124
scooby_predict_issue_action_10 1124
scooby_predict_hit_action_10 0
scooby_predict_out_of_bounds_action_10 209
scooby_predict_action_11 2103
scooby_predict_issue_action_11 2101
scooby_predict_hit_action_11 2
scooby_predict_out_of_bounds_action_11 439
scooby_predict_action_12 335
scooby_predict_issue_action_12 335
scooby_predict_hit_action_12 0
scooby_predict_out_of_bounds_action_12 70
scooby_predict_action_22 86
scooby_predict_issue_action_22 86
scooby_predict_hit_action_22 0
scooby_predict_out_of_bounds_action_22 37
scooby_predict_action_23 126
scooby_predict_issue_action_23 125
scooby_predict_hit_action_23 1
scooby_predict_out_of_bounds_action_23 81
scooby_predict_action_30 159
scooby_predict_issue_action_30 159
scooby_predict_hit_action_30 0
scooby_predict_out_of_bounds_action_30 166
scooby_predict_action_32 133
scooby_predict_issue_action_32 133
scooby_predict_hit_action_32 0
scooby_predict_out_of_bounds_action_32 153
scooby_predict_action_-1 114
scooby_predict_issue_action_-1 14
scooby_predict_hit_action_-1 100
scooby_predict_out_of_bounds_action_-1 1
scooby_predict_action_-3 166
scooby_predict_issue_action_-3 71
scooby_predict_hit_action_-3 95
scooby_predict_out_of_bounds_action_-3 3
scooby_predict_action_-6 88
scooby_predict_issue_action_-6 15
scooby_predict_hit_action_-6 73
scooby_predict_out_of_bounds_action_-6 9
scooby_predict_action_0 175
scooby_predict_issue_action_0 0
scooby_predict_hit_action_0 0
scooby_predict_out_of_bounds_action_0 0
scooby_predict_multi_deg_called 825747
scooby_predict_predicted 4585736
scooby_predict_multi_deg 3667680
scooby_predict_multi_deg_2 809972
scooby_predict_multi_deg_3 765178
scooby_predict_multi_deg_4 750414
scooby_predict_multi_deg_5 677724
scooby_predict_multi_deg_6 664392
scooby_predict_multi_deg_7 0
scooby_predict_multi_deg_8 0
scooby_predict_multi_deg_9 0
scooby_predict_multi_deg_10 0
scooby_predict_multi_deg_11 0
scooby_predict_multi_deg_12 0
scooby_predict_multi_deg_13 0
scooby_predict_multi_deg_14 0
scooby_predict_multi_deg_15 0
scooby_predict_multi_deg_16 0

scooby_selected_deg_1 92309
scooby_selected_deg_2 30531
scooby_selected_deg_3 0
scooby_selected_deg_4 63136
scooby_selected_deg_5 0
scooby_selected_deg_6 732080
scooby_selected_deg_7 0
scooby_selected_deg_8 0
scooby_selected_deg_9 0
scooby_selected_deg_10 0
scooby_selected_deg_11 0
scooby_selected_deg_12 0
scooby_selected_deg_13 0
scooby_selected_deg_14 0
scooby_selected_deg_15 0
scooby_selected_deg_16 0

scooby_state_507838|58|1 371,0,0,0,0,0,0,0,0,0,0,0,0,0,0,371,
scooby_state_507838|62|1 370,0,0,0,0,0,0,0,0,0,0,0,0,0,1,371,
scooby_state_507838|61|1 370,0,0,0,0,0,0,0,0,0,0,0,0,0,0,370,
scooby_state_507838|59|1 370,0,0,0,0,0,0,0,0,0,0,0,0,0,0,370,
scooby_state_507838|57|1 369,0,0,0,0,0,0,0,0,0,0,0,0,0,0,369,
scooby_state_507838|23|1 368,0,0,0,0,0,0,0,0,0,1,0,0,0,0,369,
scooby_state_507838|60|1 368,0,0,0,0,0,0,0,0,0,0,0,0,0,1,369,
scooby_state_507838|35|1 369,0,0,0,0,0,0,0,0,0,0,0,0,0,0,369,
scooby_state_507838|0|0 369,0,0,0,0,0,0,0,0,0,0,0,0,0,0,369,
scooby_state_507838|39|1 368,0,0,0,0,0,0,0,0,0,0,0,0,0,1,369,
scooby_state_507838|36|1 367,0,0,1,0,0,0,0,0,0,0,0,0,0,0,368,
scooby_state_507838|16|1 367,0,0,0,0,0,0,0,1,0,0,0,0,0,0,368,
scooby_state_507838|5|1 368,0,0,0,0,0,0,0,0,0,0,0,0,0,0,368,
scooby_state_507838|20|1 368,0,0,0,0,0,0,0,0,0,0,0,0,0,0,368,
scooby_state_507838|24|1 367,0,0,0,0,0,0,0,0,1,0,0,0,0,0,368,
scooby_state_507838|40|1 368,0,0,0,0,0,0,0,0,0,0,0,0,0,0,368,
scooby_state_507838|3|1 367,0,0,0,1,0,0,0,0,0,0,0,0,0,0,368,
scooby_state_507838|43|1 368,0,0,0,0,0,0,0,0,0,0,0,0,0,0,368,
scooby_state_507838|14|1 367,0,0,0,0,0,0,0,0,0,0,1,0,0,0,368,
scooby_state_507838|41|1 366,0,0,0,0,0,0,0,0,0,0,1,0,1,0,368,
scooby_state_507838|42|1 368,0,0,0,0,0,0,0,0,0,0,0,0,0,0,368,
scooby_state_507838|15|1 366,0,0,0,0,0,0,0,0,0,0,0,1,0,0,367,
scooby_state_507838|22|1 366,0,0,0,0,0,0,0,0,0,0,0,0,0,1,367,
scooby_state_507838|2|1 367,0,0,0,0,0,0,0,0,0,0,0,0,0,0,367,
scooby_state_507838|4|1 367,0,0,0,0,0,0,0,0,0,0,0,0,0,0,367,
scooby_state_507838|63|1 367,0,0,0,0,0,0,0,0,0,0,0,0,0,0,367,
scooby_state_507838|1|1 367,0,0,0,0,0,0,0,0,0,0,0,0,0,0,367,
scooby_state_507838|21|1 367,0,0,0,0,0,0,0,0,0,0,0,0,0,0,367,
scooby_state_507390|38|1 365,0,0,0,0,0,0,0,0,0,0,1,0,0,0,366,
scooby_state_507390|29|1 366,0,0,0,0,0,0,0,0,0,0,0,0,0,0,366,
scooby_state_507390|28|1 366,0,0,0,0,0,0,0,0,0,0,0,0,0,0,366,
scooby_state_507838|56|1 366,0,0,0,0,0,0,0,0,0,0,0,0,0,0,366,
scooby_state_5073b3|0|0 366,0,0,0,0,0,0,0,0,0,0,0,0,0,0,366,
scooby_state_5073a2|24|1 0,0,0,366,0,0,0,0,0,0,0,0,0,0,0,366,
scooby_state_5073ad|62|1 366,0,0,0,0,0,0,0,0,0,0,0,0,0,0,366,
scooby_state_507390|19|1 364,0,1,0,0,0,0,1,0,0,0,0,0,0,0,366,
scooby_state_50739c|3|1 366,0,0,0,0,0,0,0,0,0,0,0,0,0,0,366,
scooby_state_5073a2|22|1 0,0,0,365,0,0,0,1,0,0,0,0,0,0,0,366,
scooby_state_507390|26|1 366,0,0,0,0,0,0,0,0,0,0,0,0,0,0,366,
scooby_state_5073b3|15|1 366,0,0,0,0,0,0,0,0,0,0,0,0,0,0,366,
scooby_state_507838|45|1 365,0,0,0,1,0,0,0,0,0,0,0,0,0,0,366,
scooby_state_5073a8|41|1 366,0,0,0,0,0,0,0,0,0,0,0,0,0,0,366,
scooby_state_507390|37|1 364,0,0,0,0,0,1,0,1,0,0,0,0,0,0,366,
scooby_state_5073ad|60|1 366,0,0,0,0,0,0,0,0,0,0,0,0,0,0,366,
scooby_state_507838|32|1 366,0,0,0,0,0,0,0,0,0,0,0,0,0,0,366,
scooby_state_5073a8|43|1 366,0,0,0,0,0,0,0,0,0,0,0,0,0,0,366,
scooby_state_5073b3|17|1 364,0,0,0,0,1,0,0,0,0,0,0,1,0,0,366,
scooby_state_507838|44|1 364,0,0,1,0,0,0,0,1,0,0,0,0,0,0,366,
scooby_state_507390|35|1 365,0,0,0,0,0,0,0,1,0,0,0,0,0,0,366,
scooby_state_507390|30|1 365,0,0,0,0,0,0,1,0,0,0,0,0,0,0,366,
scooby_state_507396|48|1 365,0,1,0,0,0,0,0,0,0,0,0,0,0,0,366,
scooby_state_50739c|5|1 365,0,0,0,1,0,0,0,0,0,0,0,0,0,0,366,
scooby_state_507390|31|1 364,0,0,0,0,1,0,0,0,0,1,0,0,0,0,366,
scooby_state_507838|27|1 364,0,0,0,0,0,1,1,0,0,0,0,0,0,0,366,
scooby_state_507396|50|1 366,0,0,0,0,0,0,0,0,0,0,0,0,0,0,366,
scooby_state_507390|0|0 365,0,0,0,0,0,0,0,0,0,0,0,0,1,0,366,
scooby_state_507390|45|1 366,0,0,0,0,0,0,0,0,0,0,0,0,0,0,366,
scooby_state_507390|27|1 366,0,0,0,0,0,0,0,0,0,0,0,0,0,0,366,
scooby_state_507390|36|1 366,0,0,0,0,0,0,0,0,0,0,0,0,0,0,366,
scooby_state_507390|34|1 365,0,0,0,0,0,0,0,0,0,0,1,0,0,0,366,
scooby_state_507390|33|1 366,0,0,0,0,0,0,0,0,0,0,0,0,0,0,366,
scooby_state_5073ad|53|1 365,0,0,0,0,0,0,0,0,0,0,0,0,0,0,365,
scooby_state_50739c|60|1 365,0,0,0,0,0,0,0,0,0,0,0,0,0,0,365,
scooby_state_5073a2|29|1 0,1,0,364,0,0,0,0,0,0,0,0,0,0,0,365,
scooby_state_5073a2|31|1 0,0,0,365,0,0,0,0,0,0,0,0,0,0,0,365,
scooby_state_5073a8|40|1 364,0,0,0,0,0,1,0,0,0,0,0,0,0,0,365,
scooby_state_50739c|7|1 364,0,0,0,0,0,0,0,1,0,0,0,0,0,0,365,
scooby_state_507838|25|1 364,0,1,0,0,0,0,0,0,0,0,0,0,0,0,365,
scooby_state_50739c|10|1 365,0,0,0,0,0,0,0,0,0,0,0,0,0,0,365,
scooby_state_5073ad|3|1 364,0,0,0,0,0,0,1,0,0,0,0,0,0,0,365,
scooby_state_50739c|2|1 364,0,0,0,0,0,0,0,0,1,0,0,0,0,0,365,
scooby_state_507838|54|1 364,0,0,0,0,0,0,0,0,0,0,0,0,1,0,365,
scooby_state_5073b3|20|1 365,0,0,0,0,0,0,0,0,0,0,0,0,0,0,365,
scooby_state_5073ad|1|1 365,0,0,0,0,0,0,0,0,0,0,0,0,0,0,365,
scooby_state_5073a8|46|1 364,0,0,0,0,0,0,1,0,0,0,0,0,0,0,365,
scooby_state_50739c|8|1 364,0,0,0,0,0,0,0,0,1,0,0,0,0,0,365,
scooby_state_507838|26|1 365,0,0,0,0,0,0,0,0,0,0,0,0,0,0,365,
scooby_state_507838|6|1 365,0,0,0,0,0,0,0,0,0,0,0,0,0,0,365,
scooby_state_5073b3|22|1 363,1,0,0,0,0,0,0,1,0,0,0,0,0,0,365,
scooby_state_507396|47|1 364,0,0,0,0,0,0,0,0,1,0,0,0,0,0,365,
scooby_state_5073a8|36|1 365,0,0,0,0,0,0,0,0,0,0,0,0,0,0,365,
scooby_state_507838|46|1 363,0,1,0,0,0,0,0,0,0,1,0,0,0,0,365,
scooby_state_507396|52|1 364,0,0,0,0,0,0,1,0,0,0,0,0,0,0,365,
scooby_state_507838|17|1 365,0,0,0,0,0,0,0,0,0,0,0,0,0,0,365,
scooby_state_507396|57|1 365,0,0,0,0,0,0,0,0,0,0,0,0,0,0,365,
scooby_state_50739c|12|1 364,0,1,0,0,0,0,0,0,0,0,0,0,0,0,365,
scooby_state_507838|37|1 365,0,0,0,0,0,0,0,0,0,0,0,0,0,0,365,
scooby_state_5073a8|50|1 365,0,0,0,0,0,0,0,0,0,0,0,0,0,0,365,
scooby_state_5073b3|12|1 364,1,0,0,0,0,0,0,0,0,0,0,0,0,0,365,
scooby_state_507396|41|1 365,0,0,0,0,0,0,0,0,0,0,0,0,0,0,365,
scooby_state_5073ad|5|1 365,0,0,0,0,0,0,0,0,0,0,0,0,0,0,365,
scooby_state_507396|51|1 365,0,0,0,0,0,0,0,0,0,0,0,0,0,0,365,
scooby_state_5073b3|19|1 365,0,0,0,0,0,0,0,0,0,0,0,0,0,0,365,
scooby_state_5073a8|48|1 365,0,0,0,0,0,0,0,0,0,0,0,0,0,0,365,
scooby_state_5073a8|42|1 365,0,0,0,0,0,0,0,0,0,0,0,0,0,0,365,
scooby_state_5073b3|16|1 365,0,0,0,0,0,0,0,0,0,0,0,0,0,0,365,
scooby_state_507396|43|1 364,0,0,0,0,1,0,0,0,0,0,0,0,0,0,365,
scooby_state_5073a8|34|1 365,0,0,0,0,0,0,0,0,0,0,0,0,0,0,365,
scooby_state_50739c|62|1 364,0,0,1,0,0,0,0,0,0,0,0,0,0,0,365,
scooby_state_5073b3|10|1 363,0,0,0,1,0,1,0,0,0,0,0,0,0,0,365,
scooby_state_507396|49|1 364,0,0,0,0,0,0,0,0,1,0,0,0,0,0,365,
scooby_state_5073ad|61|1 365,0,0,0,0,0,0,0,0,0,0,0,0,0,0,365,
scooby_state_5073a2|21|1 0,0,0,365,0,0,0,0,0,0,0,0,0,0,0,365,
scooby_state_5073b3|24|1 364,0,0,0,0,0,1,0,0,0,0,0,0,0,0,365,
scooby_state_507838|18|1 364,0,0,0,0,0,0,0,1,0,0,0,0,0,0,365,
scooby_state_5073b3|18|1 365,0,0,0,0,0,0,0,0,0,0,0,0,0,0,365,
scooby_state_5073b3|13|1 365,0,0,0,0,0,0,0,0,0,0,0,0,0,0,365,
scooby_state_5073ad|58|1 365,0,0,0,0,0,0,0,0,0,0,0,0,0,0,365,
scooby_state_507838|52|1 364,0,0,0,0,0,0,1,0,0,0,0,0,0,0,365,
scooby_state_5073a2|20|1 0,0,0,365,0,0,0,0,0,0,0,0,0,0,0,365,
scooby_state_507396|53|1 365,0,0,0,0,0,0,0,0,0,0,0,0,0,0,365,
scooby_state_5073a8|38|1 364,0,0,0,0,0,0,0,0,0,0,0,1,0,0,365,
scooby_state_507396|46|1 365,0,0,0,0,0,0,0,0,0,0,0,0,0,0,365,
scooby_state_5073ad|57|1 365,0,0,0,0,0,0,0,0,0,0,0,0,0,0,365,
scooby_state_50739c|1|1 365,0,0,0,0,0,0,0,0,0,0,0,0,0,0,365,
scooby_state_507838|55|1 365,0,0,0,0,0,0,0,0,0,0,0,0,0,0,365,
scooby_state_5073b3|8|1 364,0,1,0,0,0,0,0,0,0,0,0,0,0,0,365,
scooby_state_5073a2|27|1 0,0,0,364,0,0,0,0,0,0,1,0,0,0,0,365,
scooby_state_507396|45|1 363,0,0,0,0,0,1,0,0,0,0,0,0,0,1,365,
scooby_state_507396|55|1 362,1,0,0,0,0,0,0,0,0,1,0,0,1,0,365,
scooby_state_5073a2|17|1 0,0,0,363,0,1,0,1,0,0,0,0,0,0,0,365,
scooby_state_5073a2|25|1 0,0,0,364,0,0,1,0,0,0,0,0,0,0,0,365,
scooby_state_5073a2|23|1 0,0,0,365,0,0,0,0,0,0,0,0,0,0,0,365,
scooby_state_5073ad|55|1 365,0,0,0,0,0,0,0,0,0,0,0,0,0,0,365,
scooby_state_5073b3|14|1 364,1,0,0,0,0,0,0,0,0,0,0,0,0,0,365,
scooby_state_50739c|4|1 365,0,0,0,0,0,0,0,0,0,0,0,0,0,0,365,
scooby_state_5073ad|63|1 365,0,0,0,0,0,0,0,0,0,0,0,0,0,0,365,
scooby_state_5073a8|45|1 365,0,0,0,0,0,0,0,0,0,0,0,0,0,0,365,
scooby_state_5073ad|59|1 365,0,0,0,0,0,0,0,0,0,0,0,0,0,0,365,
scooby_state_5073a8|44|1 365,0,0,0,0,0,0,0,0,0,0,0,0,0,0,365,
scooby_state_5073a2|19|1 1,0,0,364,0,0,0,0,0,0,0,0,0,0,0,365,
scooby_state_5073a2|15|1 0,0,0,364,0,0,0,1,0,0,0,0,0,0,0,365,
scooby_state_50739c|6|1 365,0,0,0,0,0,0,0,0,0,0,0,0,0,0,365,
scooby_state_5073a2|26|1 0,1,0,364,0,0,0,0,0,0,0,0,0,0,0,365,
scooby_state_5073a8|39|1 363,0,0,0,0,1,0,1,0,0,0,0,0,0,0,365,
scooby_state_5073a2|34|1 0,0,0,363,0,0,0,0,0,0,0,0,1,0,0,364,
scooby_state_5073ad|43|1 364,0,0,0,0,0,0,0,0,0,0,0,0,0,0,364,
scooby_state_507396|44|1 364,0,0,0,0,0,0,0,0,0,0,0,0,0,0,364,
scooby_state_50739c|63|1 364,0,0,0,0,0,0,0,0,0,0,0,0,0,0,364,
scooby_state_507396|60|1 363,0,0,1,0,0,0,0,0,0,0,0,0,0,0,364,
scooby_state_5073ad|24|1 364,0,0,0,0,0,0,0,0,0,0,0,0,0,0,364,
scooby_state_50739c|58|1 363,0,0,0,0,0,1,0,0,0,0,0,0,0,0,364,
scooby_state_5073a2|18|1 0,0,0,363,0,0,0,0,0,0,0,0,0,1,0,364,
scooby_state_5073a8|32|1 364,0,0,0,0,0,0,0,0,0,0,0,0,0,0,364,
scooby_state_5073ad|50|1 364,0,0,0,0,0,0,0,0,0,0,0,0,0,0,364,
scooby_state_5073ad|54|1 363,0,0,0,0,0,1,0,0,0,0,0,0,0,0,364,
scooby_state_5073b3|6|1 363,0,0,0,0,0,0,0,0,0,0,0,1,0,0,364,
scooby_state_507396|40|1 364,0,0,0,0,0,0,0,0,0,0,0,0,0,0,364,
scooby_state_5073a8|33|1 362,0,0,0,0,0,0,0,0,1,0,0,1,0,0,364,
scooby_state_5073b3|7|1 363,0,0,0,0,0,0,0,0,0,0,0,0,1,0,364,
scooby_state_507396|12|1 363,0,0,0,0,0,0,0,0,0,0,1,0,0,0,364,
scooby_state_5073a2|16|1 0,0,0,363,0,0,0,0,0,0,0,0,0,0,1,364,
scooby_state_5073a2|14|1 0,0,0,364,0,0,0,0,0,0,0,0,0,0,0,364,
scooby_state_5073b3|43|1 363,0,0,0,0,0,0,0,0,0,0,0,0,0,1,364,
scooby_state_50739c|57|1 364,0,0,0,0,0,0,0,0,0,0,0,0,0,0,364,
scooby_state_5073ad|52|1 364,0,0,0,0,0,0,0,0,0,0,0,0,0,0,364,
scooby_state_5073ad|48|1 364,0,0,0,0,0,0,0,0,0,0,0,0,0,0,364,
scooby_state_5073a2|33|1 0,0,0,363,0,0,0,0,0,0,0,0,1,0,0,364,
scooby_state_5073ad|51|1 364,0,0,0,0,0,0,0,0,0,0,0,0,0,0,364,
scooby_state_5073b3|25|1 364,0,0,0,0,0,0,0,0,0,0,0,0,0,0,364,
scooby_state_5073ad|6|1 364,0,0,0,0,0,0,0,0,0,0,0,0,0,0,364,
scooby_state_5073a8|51|1 363,0,0,0,0,0,0,1,0,0,0,0,0,0,0,364,
scooby_state_50739c|61|1 364,0,0,0,0,0,0,0,0,0,0,0,0,0,0,364,
scooby_state_5073a8|53|1 362,0,0,0,0,0,0,0,1,0,1,0,0,0,0,364,
scooby_state_5073b3|9|1 364,0,0,0,0,0,0,0,0,0,0,0,0,0,0,364,
scooby_state_50739c|13|1 363,0,0,0,0,0,0,0,0,0,1,0,0,0,0,364,
scooby_state_5073b3|23|1 364,0,0,0,0,0,0,0,0,0,0,0,0,0,0,364,
scooby_state_5073ad|4|1 363,0,0,0,0,0,0,0,0,0,0,0,0,0,1,364,
scooby_state_5073a2|30|1 0,1,0,363,0,0,0,0,0,0,0,0,0,0,0,364,
scooby_state_5073a2|28|1 0,0,0,363,0,0,0,0,0,0,1,0,0,0,0,364,
scooby_state_5073a8|55|1 364,0,0,0,0,0,0,0,0,0,0,0,0,0,0,364,
scooby_state_50739c|9|1 364,0,0,0,0,0,0,0,0,0,0,0,0,0,0,364,
scooby_state_507396|54|1 364,0,0,0,0,0,0,0,0,0,0,0,0,0,0,364,
scooby_state_507396|39|1 364,0,0,0,0,0,0,0,0,0,0,0,0,0,0,364,
scooby_state_50739c|59|1 363,0,0,0,0,0,0,0,0,0,0,0,0,0,1,364,
scooby_state_5073b3|21|1 364,0,0,0,0,0,0,0,0,0,0,0,0,0,0,364,
scooby_state_5073ad|7|1 364,0,0,0,0,0,0,0,0,0,0,0,0,0,0,364,
scooby_state_5073b3|5|1 362,0,0,1,0,0,0,0,0,0,0,0,0,0,1,364,
scooby_state_507838|19|1 363,0,0,0,1,0,0,0,0,0,0,0,0,0,0,364,
scooby_state_5073b3|34|1 363,0,0,1,0,0,0,0,0,0,0,0,0,0,0,364,
scooby_state_5073ad|15|1 361,0,0,0,0,0,0,0,2,0,0,1,0,0,0,364,
scooby_state_5073a2|41|1 0,0,0,362,0,0,1,0,0,0,0,1,0,0,0,364,
scooby_state_507396|3|1 364,0,0,0,0,0,0,0,0,0,0,0,0,0,0,364,
scooby_state_5073ad|56|1 364,0,0,0,0,0,0,0,0,0,0,0,0,0,0,364,
scooby_state_5073b3|27|1 362,0,0,1,0,1,0,0,0,0,0,0,0,0,0,364,
scooby_state_507838|48|1 363,0,0,0,0,0,0,0,1,0,0,0,0,0,0,364,
scooby_state_5073a2|12|1 0,0,0,364,0,0,0,0,0,0,0,0,0,0,0,364,
scooby_state_507838|33|1 364,0,0,0,0,0,0,0,0,0,0,0,0,0,0,364,
scooby_state_50739c|41|1 364,0,0,0,0,0,0,0,0,0,0,0,0,0,0,364,
scooby_state_5073b3|29|1 363,0,0,0,0,0,0,0,0,0,0,0,0,1,0,364,
scooby_state_5073a2|32|1 0,0,0,364,0,0,0,0,0,0,0,0,0,0,0,364,
scooby_state_5073ad|8|1 364,0,0,0,0,0,0,0,0,0,0,0,0,0,0,364,
scooby_state_50739c|11|1 364,0,0,0,0,0,0,0,0,0,0,0,0,0,0,364,
scooby_state_50739c|17|1 363,0,0,1,0,0,0,0,0,0,0,0,0,0,0,364,
scooby_state_507396|38|1 363,0,0,0,0,0,0,0,1,0,0,0,0,0,0,364,
scooby_state_5073ad|34|1 364,0,0,0,0,0,0,0,0,0,0,0,0,0,0,364,
scooby_state_5073a8|15|1 363,0,0,0,0,0,0,0,0,0,0,0,0,0,1,364,
scooby_state_5073ad|29|1 364,0,0,0,0,0,0,0,0,0,0,0,0,0,0,364,
scooby_state_5073ad|2|1 364,0,0,0,0,0,0,0,0,0,0,0,0,0,0,364,
scooby_state_5073a8|35|1 363,0,0,0,0,1,0,0,0,0,0,0,0,0,0,364,
scooby_state_507396|22|1 363,0,0,0,0,1,0,0,0,0,0,0,0,0,0,364,
scooby_state_50739c|55|1 363,0,0,0,0,0,0,0,0,0,0,0,0,0,1,364,
scooby_state_5073a8|37|1 364,0,0,0,0,0,0,0,0,0,0,0,0,0,0,364,
scooby_state_507396|59|1 364,0,0,0,0,0,0,0,0,0,0,0,0,0,0,364,
scooby_state_5073a8|31|1 364,0,0,0,0,0,0,0,0,0,0,0,0,0,0,364,
scooby_state_507396|42|1 364,0,0,0,0,0,0,0,0,0,0,0,0,0,0,364,
scooby_state_5073a8|47|1 362,0,0,0,0,0,0,0,0,0,0,0,2,0,0,364,
scooby_state_507838|38|1 364,0,0,0,0,0,0,0,0,0,0,0,0,0,0,364,
scooby_state_507396|62|1 363,1,0,0,0,0,0,0,0,0,0,0,0,0,0,364,
scooby_state_50739c|36|1 363,0,0,0,0,0,1,0,0,0,0,0,0,0,0,364,
scooby_state_5073a2|10|1 0,0,0,364,0,0,0,0,0,0,0,0,0,0,0,364,
scooby_state_5073a8|5|1 364,0,0,0,0,0,0,0,0,0,0,0,0,0,0,364,
scooby_state_5073b3|11|1 364,0,0,0,0,0,0,0,0,0,0,0,0,0,0,364,
scooby_state_507396|31|1 361,1,0,0,0,0,0,0,0,1,0,0,1,0,0,364,
scooby_state_50739c|50|1 362,0,0,1,0,0,0,0,0,1,0,0,0,0,0,364,
scooby_state_50739c|31|1 364,0,0,0,0,0,0,0,0,0,0,0,0,0,0,364,
scooby_state_5073a2|5|1 0,0,0,362,0,0,0,0,0,0,0,0,1,0,1,364,
scooby_state_507396|56|1 364,0,0,0,0,0,0,0,0,0,0,0,0,0,0,364,
scooby_state_507396|36|1 364,0,0,0,0,0,0,0,0,0,0,0,0,0,0,364,
scooby_state_5073a2|55|1 0,0,1,362,0,0,0,0,0,0,0,0,0,1,0,364,
scooby_state_5073a2|50|1 0,0,0,364,0,0,0,0,0,0,0,0,0,0,0,364,
scooby_state_5073a8|29|1 364,0,0,0,0,0,0,0,0,0,0,0,0,0,0,364,
scooby_state_5073b3|3|1 364,0,0,0,0,0,0,0,0,0,0,0,0,0,0,364,
scooby_state_5073b3|26|1 364,0,0,0,0,0,0,0,0,0,0,0,0,0,0,364,
scooby_state_507396|58|1 364,0,0,0,0,0,0,0,0,0,0,0,0,0,0,364,
scooby_state_5073a2|36|1 0,0,0,364,0,0,0,0,0,0,0,0,0,0,0,364,
scooby_state_5073b3|62|1 363,0,0,0,0,0,0,0,0,0,0,0,0,1,0,364,
scooby_state_507396|17|1 364,0,0,0,0,0,0,0,0,0,0,0,0,0,0,364,
scooby_state_5073a8|49|1 363,0,0,0,1,0,0,0,0,0,0,0,0,0,0,364,
scooby_state_5073b3|53|1 363,0,0,0,0,0,0,0,0,1,0,0,0,0,0,364,
scooby_state_5073a8|60|1 364,0,0,0,0,0,0,0,0,0,0,0,0,0,0,364,
scooby_state_50739c|22|1 364,0,0,0,0,0,0,0,0,0,0,0,0,0,0,364,
scooby_state_5073a2|60|1 0,0,0,362,0,0,0,1,1,0,0,0,0,0,0,364,
scooby_state_5073a8|24|1 364,0,0,0,0,0,0,0,0,0,0,0,0,0,0,364,
scooby_state_50739c|14|1 363,0,0,0,0,0,0,0,0,0,1,0,0,0,0,364,
scooby_state_507838|53|1 362,0,0,0,0,0,0,0,1,0,0,0,0,1,0,364,
scooby_state_50739c|15|1 364,0,0,0,0,0,0,0,0,0,0,0,0,0,0,364,
scooby_state_5073a8|52|1 363,0,0,1,0,0,0,0,0,0,0,0,0,0,0,364,
scooby_state_5073a2|13|1 0,0,0,362,0,1,0,0,0,0,1,0,0,0,0,364,
scooby_state_5073a8|10|1 363,0,0,0,0,0,0,0,0,0,1,0,0,0,0,364,
scooby_state_5073b3|48|1 364,0,0,0,0,0,0,0,0,0,0,0,0,0,0,364,
scooby_state_5073ad|10|1 363,0,0,0,0,0,0,0,0,0,0,0,0,0,1,364,
scooby_state_5073a2|6|1 0,0,0,363,0,0,0,0,0,0,0,0,0,0,0,363,
scooby_state_507390|42|1 362,0,0,0,0,0,1,0,0,0,0,0,0,0,0,363,
scooby_state_507390|11|1 363,0,0,0,0,0,0,0,0,0,0,0,0,0,0,363,
scooby_state_507390|32|1 362,0,0,0,0,1,0,0,0,0,0,0,0,0,0,363,
scooby_state_507390|56|1 361,0,0,1,0,0,0,0,0,0,0,0,0,1,0,363,
scooby_state_507390|54|1 363,0,0,0,0,0,0,0,0,0,0,0,0,0,0,363,
scooby_state_507390|40|1 363,0,0,0,0,0,0,0,0,0,0,0,0,0,0,363,
scooby_state_507390|21|1 363,0,0,0,0,0,0,0,0,0,0,0,0,0,0,363,
scooby_state_5073a2|45|1 0,0,0,363,0,0,0,0,0,0,0,0,0,0,0,363,
scooby_state_507396|26|1 362,0,0,0,0,0,0,0,1,0,0,0,0,0,0,363,
scooby_state_507396|32|1 361,0,0,1,0,1,0,0,0,0,0,0,0,0,0,363,
scooby_state_50739c|34|1 360,0,0,1,0,0,0,0,0,2,0,0,0,0,0,363,
scooby_state_5073b3|58|1 362,0,0,0,0,0,0,0,1,0,0,0,0,0,0,363,
scooby_state_5073a8|1|1 362,1,0,0,0,0,0,0,0,0,0,0,0,0,0,363,
scooby_state_5073a8|26|1 363,0,0,0,0,0,0,0,0,0,0,0,0,0,0,363,
scooby_state_5073a8|22|1 363,0,0,0,0,0,0,0,0,0,0,0,0,0,0,363,
scooby_state_5073b3|57|1 362,0,1,0,0,0,0,0,0,0,0,0,0,0,0,363,
scooby_state_507390|20|1 362,0,0,0,0,0,1,0,0,0,0,0,0,0,0,363,
scooby_state_507838|51|1 363,0,0,0,0,0,0,0,0,0,0,0,0,0,0,363,
scooby_state_5073ad|31|1 361,0,0,0,1,0,0,1,0,0,0,0,0,0,0,363,
scooby_state_5073a8|62|1 362,0,1,0,0,0,0,0,0,0,0,0,0,0,0,363,
scooby_state_5073b3|63|1 362,0,0,0,0,1,0,0,0,0,0,0,0,0,0,363,
scooby_state_50739c|53|1 363,0,0,0,0,0,0,0,0,0,0,0,0,0,0,363,
scooby_state_507390|55|1 363,0,0,0,0,0,0,0,0,0,0,0,0,0,0,363,
scooby_state_50739c|29|1 361,0,0,0,0,0,1,0,1,0,0,0,0,0,0,363,
scooby_state_507390|43|1 362,0,0,0,0,0,0,0,0,1,0,0,0,0,0,363,
scooby_state_5073b3|36|1 361,0,0,0,0,0,0,0,0,0,1,1,0,0,0,363,
scooby_state_5073ad|32|1 363,0,0,0,0,0,0,0,0,0,0,0,0,0,0,363,
scooby_state_5073ad|14|1 363,0,0,0,0,0,0,0,0,0,0,0,0,0,0,363,
scooby_state_5073a8|3|1 362,0,0,0,0,1,0,0,0,0,0,0,0,0,0,363,
scooby_state_507838|13|1 363,0,0,0,0,0,0,0,0,0,0,0,0,0,0,363,
scooby_state_5073a2|8|1 0,0,0,363,0,0,0,0,0,0,0,0,0,0,0,363,
scooby_state_507390|44|1 362,0,0,0,0,0,0,0,0,0,0,1,0,0,0,363,
scooby_state_5073ad|44|1 363,0,0,0,0,0,0,0,0,0,0,0,0,0,0,363,
scooby_state_5073a8|30|1 361,0,0,0,0,1,0,0,1,0,0,0,0,0,0,363,
scooby_state_5073a8|25|1 363,0,0,0,0,0,0,0,0,0,0,0,0,0,0,363,
scooby_state_507396|24|1 362,0,1,0,0,0,0,0,0,0,0,0,0,0,0,363,
scooby_state_507396|21|1 363,0,0,0,0,0,0,0,0,0,0,0,0,0,0,363,
scooby_state_5073ad|36|1 363,0,0,0,0,0,0,0,0,0,0,0,0,0,0,363,
scooby_state_5073ad|27|1 363,0,0,0,0,0,0,0,0,0,0,0,0,0,0,363,
scooby_state_5073a8|59|1 361,1,0,0,0,1,0,0,0,0,0,0,0,0,0,363,
scooby_state_5073b3|52|1 362,0,0,0,0,0,0,0,1,0,0,0,0,0,0,363,
scooby_state_507390|14|1 363,0,0,0,0,0,0,0,0,0,0,0,0,0,0,363,
scooby_state_5073ad|20|1 363,0,0,0,0,0,0,0,0,0,0,0,0,0,0,363,
scooby_state_507396|5|1 362,0,0,0,0,0,1,0,0,0,0,0,0,0,0,363,
scooby_state_507390|39|1 362,0,0,0,1,0,0,0,0,0,0,0,0,0,0,363,
scooby_state_507396|13|1 363,0,0,0,0,0,0,0,0,0,0,0,0,0,0,363,
scooby_state_507396|37|1 363,0,0,0,0,0,0,0,0,0,0,0,0,0,0,363,
scooby_state_507390|48|1 362,0,0,0,1,0,0,0,0,0,0,0,0,0,0,363,
scooby_state_507390|24|1 363,0,0,0,0,0,0,0,0,0,0,0,0,0,0,363,
scooby_state_507390|23|1 363,0,0,0,0,0,0,0,0,0,0,0,0,0,0,363,
scooby_state_507396|15|1 363,0,0,0,0,0,0,0,0,0,0,0,0,0,0,363,
scooby_state_507390|41|1 361,0,0,0,0,0,0,0,1,1,0,0,0,0,0,363,
scooby_state_5073b3|31|1 363,0,0,0,0,0,0,0,0,0,0,0,0,0,0,363,
scooby_state_5073ad|41|1 363,0,0,0,0,0,0,0,0,0,0,0,0,0,0,363,
scooby_state_50739c|40|1 362,1,0,0,0,0,0,0,0,0,0,0,0,0,0,363,
scooby_state_5073ad|49|1 363,0,0,0,0,0,0,0,0,0,0,0,0,0,0,363,
scooby_state_5073ad|19|1 363,0,0,0,0,0,0,0,0,0,0,0,0,0,0,363,
scooby_state_5073b3|55|1 361,0,1,0,1,0,0,0,0,0,0,0,0,0,0,363,
scooby_state_50739c|46|1 362,0,0,0,0,1,0,0,0,0,0,0,0,0,0,363,
scooby_state_507390|8|1 363,0,0,0,0,0,0,0,0,0,0,0,0,0,0,363,
scooby_state_507396|19|1 363,0,0,0,0,0,0,0,0,0,0,0,0,0,0,363,
scooby_state_507390|50|1 362,0,0,0,0,1,0,0,0,0,0,0,0,0,0,363,
scooby_state_50739c|38|1 361,0,0,0,0,0,1,0,0,0,0,1,0,0,0,363,
scooby_state_5073ad|46|1 361,0,0,0,0,0,0,0,0,0,1,0,1,0,0,363,
scooby_state_507390|16|1 361,0,1,0,0,0,0,0,1,0,0,0,0,0,0,363,
scooby_state_5073a2|57|1 0,0,0,363,0,0,0,0,0,0,0,0,0,0,0,363,
scooby_state_5073a8|12|1 363,0,0,0,0,0,0,0,0,0,0,0,0,0,0,363,
scooby_state_5073ad|22|1 361,0,0,0,0,1,0,1,0,0,0,0,0,0,0,363,
scooby_state_5073a2|48|1 0,0,0,363,0,0,0,0,0,0,0,0,0,0,0,363,
scooby_state_507396|10|1 362,0,0,0,0,0,0,0,0,0,0,0,1,0,0,363,
scooby_state_5073b3|50|1 361,0,0,0,0,0,1,0,0,0,0,1,0,0,0,363,
scooby_state_507390|59|1 363,0,0,0,0,0,0,0,0,0,0,0,0,0,0,363,
scooby_state_507390|62|1 362,0,0,0,0,0,0,0,0,0,0,0,0,0,1,363,
scooby_state_5073a2|46|1 0,0,0,363,0,0,0,0,0,0,0,0,0,0,0,363,
scooby_state_5073a8|20|1 363,0,0,0,0,0,0,0,0,0,0,0,0,0,0,363,
scooby_state_507390|61|1 363,0,0,0,0,0,0,0,0,0,0,0,0,0,0,363,
scooby_state_507396|8|1 361,0,0,1,0,0,0,0,0,1,0,0,0,0,0,363,
scooby_state_5073b3|39|1 363,0,0,0,0,0,0,0,0,0,0,0,0,0,0,363,
scooby_state_5073a2|58|1 0,0,0,363,0,0,0,0,0,0,0,0,0,0,0,363,
scooby_state_5073b3|38|1 363,0,0,0,0,0,0,0,0,0,0,0,0,0,0,363,
scooby_state_5073a8|7|1 363,0,0,0,0,0,0,0,0,0,0,0,0,0,0,363,
scooby_state_5073a8|13|1 362,1,0,0,0,0,0,0,0,0,0,0,0,0,0,363,
scooby_state_5073b3|60|1 362,0,0,0,0,0,0,0,0,0,0,1,0,0,0,363,
scooby_state_507390|3|1 362,0,0,0,0,0,0,0,0,0,1,0,0,0,0,363,
scooby_state_50739c|33|1 360,0,0,0,0,0,0,0,1,0,0,0,0,1,1,363,
scooby_state_5073a8|8|1 362,0,0,0,0,1,0,0,0,0,0,0,0,0,0,363,
scooby_state_507396|14|1 363,0,0,0,0,0,0,0,0,0,0,0,0,0,0,363,
scooby_state_5073b3|46|1 363,0,0,0,0,0,0,0,0,0,0,0,0,0,0,363,
scooby_state_507390|4|1 362,0,0,0,0,0,0,0,0,0,0,1,0,0,0,363,
scooby_state_5073ad|45|1 363,0,0,0,0,0,0,0,0,0,0,0,0,0,0,363,
scooby_state_5073ad|38|1 362,0,0,0,0,0,0,1,0,0,0,0,0,0,0,363,
scooby_state_5073b3|44|1 361,1,0,0,0,0,0,0,0,0,0,0,1,0,0,363,
scooby_state_5073ad|25|1 362,0,0,0,0,0,1,0,0,0,0,0,0,0,0,363,
scooby_state_507396|34|1 362,0,0,0,0,1,0,0,0,0,0,0,0,0,0,363,
scooby_state_507838|34|1 363,0,0,0,0,0,0,0,0,0,0,0,0,0,0,363,
scooby_state_507390|5|1 363,0,0,0,0,0,0,0,0,0,0,0,0,0,0,363,
scooby_state_5073a8|6|1 361,1,0,0,0,0,1,0,0,0,0,0,0,0,0,363,
scooby_state_50739c|51|1 363,0,0,0,0,0,0,0,0,0,0,0,0,0,0,363,
scooby_state_50739c|32|1 360,1,0,0,1,0,0,1,0,0,0,0,0,0,0,363,
scooby_state_507390|1|1 363,0,0,0,0,0,0,0,0,0,0,0,0,0,0,363,
scooby_state_50739c|27|1 363,0,0,0,0,0,0,0,0,0,0,0,0,0,0,363,
scooby_state_507390|60|1 362,0,0,0,1,0,0,0,0,0,0,0,0,0,0,363,
scooby_state_5073b3|45|1 363,0,0,0,0,0,0,0,0,0,0,0,0,0,0,363,
scooby_state_507390|63|1 363,0,0,0,0,0,0,0,0,0,0,0,0,0,0,363,
scooby_state_5073b3|41|1 362,0,0,0,0,0,0,0,1,0,0,0,0,0,0,363,
scooby_state_5073ad|39|1 363,0,0,0,0,0,0,0,0,0,0,0,0,0,0,363,
scooby_state_507396|27|1 363,0,0,0,0,0,0,0,0,0,0,0,0,0,0,363,
scooby_state_507390|53|1 363,0,0,0,0,0,0,0,0,0,0,0,0,0,0,363,
scooby_state_5073ad|12|1 363,0,0,0,0,0,0,0,0,0,0,0,0,0,0,363,
scooby_state_5073a8|57|1 362,0,0,0,1,0,0,0,0,0,0,0,0,0,0,363,
scooby_state_50739c|19|1 363,0,0,0,0,0,0,0,0,0,0,0,0,0,0,363,
scooby_state_5073b3|4|1 361,1,0,0,0,0,1,0,0,0,0,0,0,0,0,363,
scooby_state_507838|11|1 363,0,0,0,0,0,0,0,0,0,0,0,0,0,0,363,
scooby_state_50739c|39|1 363,0,0,0,0,0,0,0,0,0,0,0,0,0,0,363,
scooby_state_5073ad|9|1 363,0,0,0,0,0,0,0,0,0,0,0,0,0,0,363,
scooby_state_5073a8|54|1 363,0,0,0,0,0,0,0,0,0,0,0,0,0,0,363,
scooby_state_5073a2|35|1 0,0,0,363,0,0,0,0,0,0,0,0,0,0,0,363,
scooby_state_50739c|20|1 363,0,0,0,0,0,0,0,0,0,0,0,0,0,0,363,
scooby_state_50739c|16|1 362,0,0,0,0,0,0,1,0,0,0,0,0,0,0,363,
scooby_state_507390|49|1 362,0,0,0,0,0,0,0,0,0,0,1,0,0,0,363,
scooby_state_5073a8|58|1 362,0,0,0,0,0,0,0,0,0,0,1,0,0,0,363,
scooby_state_507396|29|1 362,0,0,0,0,0,0,1,0,0,0,0,0,0,0,363,
scooby_state_5073ad|26|1 363,0,0,0,0,0,0,0,0,0,0,0,0,0,0,363,
scooby_state_50739c|48|1 363,0,0,0,0,0,0,0,0,0,0,0,0,0,0,363,
scooby_state_5073a2|3|1 0,1,0,362,0,0,0,0,0,0,0,0,0,0,0,363,
scooby_state_507390|18|1 362,0,0,0,1,0,0,0,0,0,0,0,0,0,0,363,
scooby_state_507390|47|1 361,0,0,0,1,0,1,0,0,0,0,0,0,0,0,363,
scooby_state_50739c|21|1 361,0,0,0,1,0,0,0,1,0,0,0,0,0,0,363,
scooby_state_507390|22|1 363,0,0,0,0,0,0,0,0,0,0,0,0,0,0,363,
scooby_state_5073b3|51|1 363,0,0,0,0,0,0,0,0,0,0,0,0,0,0,363,
scooby_state_507390|9|1 362,0,0,0,0,0,0,0,0,0,0,0,0,0,1,363,
scooby_state_5073a2|59|1 0,0,0,363,0,0,0,0,0,0,0,0,0,0,0,363,
scooby_state_507396|7|1 363,0,0,0,0,0,0,0,0,0,0,0,0,0,0,363,
scooby_state_5073a2|11|1 0,0,0,363,0,0,0,0,0,0,0,0,0,0,0,363,
scooby_state_5073a2|43|1 0,0,0,362,0,0,0,0,1,0,0,0,0,0,0,363,
scooby_state_50739c|24|1 361,0,0,0,0,0,1,0,0,1,0,0,0,0,0,363,
scooby_state_5073b3|1|1 363,0,0,0,0,0,0,0,0,0,0,0,0,0,0,363,
scooby_state_507390|12|1 363,0,0,0,0,0,0,0,0,0,0,0,0,0,0,363,
scooby_state_50739c|43|1 360,1,0,1,0,0,0,0,0,1,0,0,0,0,0,363,
scooby_state_5073b3|33|1 362,0,0,0,0,0,0,0,0,0,1,0,0,0,0,363,
scooby_state_50739c|45|1 362,0,0,0,0,0,0,0,0,1,0,0,0,0,0,363,
scooby_state_5073a2|40|1 1,0,0,362,0,0,0,0,0,0,0,0,0,0,0,363,
scooby_state_5073a8|17|1 360,0,0,0,0,0,0,0,0,1,0,0,1,0,1,363,
scooby_state_5073a8|19|1 363,0,0,0,0,0,0,0,0,0,0,0,0,0,0,363,
scooby_state_507396|61|1 362,0,0,0,0,0,0,0,0,0,0,0,0,0,1,363,
scooby_state_5073a2|52|1 0,0,1,362,0,0,0,0,0,0,0,0,0,0,0,363,
scooby_state_507396|2|1 363,0,0,0,0,0,0,0,0,0,0,0,0,0,0,363,
scooby_state_5073a2|7|1 0,0,0,362,1,0,0,0,0,0,0,0,0,0,0,363,
scooby_state_5073ad|13|1 363,0,0,0,0,0,0,0,0,0,0,0,0,0,0,363,
scooby_state_507390|15|1 362,0,0,0,0,0,0,0,1,0,0,0,0,0,0,363,
scooby_state_5073b3|32|1 363,0,0,0,0,0,0,0,0,0,0,0,0,0,0,363,
scooby_state_507396|1|1 361,0,1,0,0,0,0,0,0,0,0,0,0,0,1,363,
scooby_state_5073a2|53|1 0,0,0,362,0,0,0,0,1,0,0,0,0,0,0,363,
scooby_state_507390|57|1 362,0,1,0,0,0,0,0,0,0,0,0,0,0,0,363,
scooby_state_50739c|56|1 362,1,0,0,0,0,0,0,0,0,0,0,0,0,0,363,
scooby_state_50739c|26|1 363,0,0,0,0,0,0,0,0,0,0,0,0,0,0,363,
scooby_state_507390|46|1 363,0,0,0,0,0,0,0,0,0,0,0,0,0,0,363,
scooby_state_5073ad|17|1 363,0,0,0,0,0,0,0,0,0,0,0,0,0,0,363,
scooby_state_507390|10|1 363,0,0,0,0,0,0,0,0,0,0,0,0,0,0,363,
scooby_state_5073a2|39|1 0,0,0,363,0,0,0,0,0,0,0,0,0,0,0,363,
scooby_state_50739c|52|1 362,0,1,0,0,0,0,0,0,0,0,0,0,0,0,363,
scooby_state_507396|20|1 362,0,0,0,0,0,1,0,0,0,0,0,0,0,0,363,
scooby_state_5073a2|1|1 0,0,0,363,0,0,0,0,0,0,0,0,0,0,0,363,
scooby_state_5073a2|38|1 0,0,0,363,0,0,0,0,0,0,0,0,0,0,0,363,
scooby_state_5073a8|14|1 362,0,1,0,0,0,0,0,0,0,0,0,0,0,0,363,
scooby_state_507390|25|1 363,0,0,0,0,0,0,0,0,0,0,0,0,0,0,363,
scooby_state_507390|2|1 362,0,0,0,0,0,0,1,0,0,0,0,0,0,0,363,
scooby_state_507390|7|1 362,1,0,0,0,0,0,0,0,0,0,0,0,0,0,363,
scooby_state_507390|52|1 362,0,0,0,0,0,0,0,0,0,1,0,0,0,0,363,
scooby_state_5073a8|27|1 363,0,0,0,0,0,0,0,0,0,0,0,0,0,0,363,
scooby_state_507838|47|1 361,0,0,0,0,1,0,0,0,0,0,0,0,1,0,363,
scooby_state_5073a2|62|1 0,0,0,362,0,0,0,0,1,0,0,0,0,0,0,363,
scooby_state_507390|17|1 362,0,1,0,0,0,0,0,0,0,0,0,0,0,0,363,
scooby_state_5073b3|28|1 363,0,0,0,0,0,0,0,0,0,0,0,0,0,0,363,
scooby_state_507396|33|1 363,0,0,0,0,0,0,0,0,0,0,0,0,0,0,363,
scooby_state_5073ad|33|1 363,0,0,0,0,0,0,0,0,0,0,0,0,0,0,363,
scooby_state_5073a2|51|1 0,0,0,363,0,0,0,0,0,0,0,0,0,0,0,363,
scooby_state_5073ad|28|1 362,0,0,0,0,0,0,0,0,0,0,0,0,0,0,362,
scooby_state_5073a8|9|1 362,0,0,0,0,0,0,0,0,0,0,0,0,0,0,362,
scooby_state_5073ad|37|1 362,0,0,0,0,0,0,0,0,0,0,0,0,0,0,362,
scooby_state_5073ad|11|1 362,0,0,0,0,0,0,0,0,0,0,0,0,0,0,362,
scooby_state_5073a2|4|1 0,0,0,362,0,0,0,0,0,0,0,0,0,0,0,362,
scooby_state_50739c|54|1 362,0,0,0,0,0,0,0,0,0,0,0,0,0,0,362,
scooby_state_5073a2|56|1 0,0,0,361,0,0,0,1,0,0,0,0,0,0,0,362,
scooby_state_5073a2|44|1 0,0,0,361,0,0,0,0,0,0,1,0,0,0,0,362,
scooby_state_5073b3|30|1 361,0,0,0,0,0,1,0,0,0,0,0,0,0,0,362,
scooby_state_507838|50|1 360,0,0,0,0,0,0,0,1,0,0,0,0,0,1,362,
scooby_state_5073a8|16|1 361,0,0,0,0,0,0,0,0,0,0,0,0,0,1,362,
scooby_state_5073b3|59|1 362,0,0,0,0,0,0,0,0,0,0,0,0,0,0,362,
scooby_state_5073a8|23|1 362,0,0,0,0,0,0,0,0,0,0,0,0,0,0,362,
scooby_state_507396|23|1 362,0,0,0,0,0,0,0,0,0,0,0,0,0,0,362,
scooby_state_507396|18|1 362,0,0,0,0,0,0,0,0,0,0,0,0,0,0,362,
scooby_state_50739c|42|1 361,0,0,0,0,1,0,0,0,0,0,0,0,0,0,362,
scooby_state_507396|4|1 362,0,0,0,0,0,0,0,0,0,0,0,0,0,0,362,
scooby_state_5073a2|37|1 0,0,0,362,0,0,0,0,0,0,0,0,0,0,0,362,
scooby_state_5073a8|11|1 362,0,0,0,0,0,0,0,0,0,0,0,0,0,0,362,
scooby_state_5073b3|42|1 362,0,0,0,0,0,0,0,0,0,0,0,0,0,0,362,
scooby_state_5073a8|21|1 362,0,0,0,0,0,0,0,0,0,0,0,0,0,0,362,
scooby_state_5073ad|42|1 361,0,0,0,0,0,0,0,0,0,0,0,0,0,1,362,
scooby_state_5073ad|21|1 362,0,0,0,0,0,0,0,0,0,0,0,0,0,0,362,
scooby_state_50739c|35|1 361,0,1,0,0,0,0,0,0,0,0,0,0,0,0,362,
scooby_state_50739c|49|1 360,0,0,0,0,0,0,0,0,1,0,1,0,0,0,362,
scooby_state_5073a2|54|1 0,0,0,362,0,0,0,0,0,0,0,0,0,0,0,362,
scooby_state_5073ad|23|1 361,0,0,0,0,0,0,0,0,0,0,0,0,1,0,362,
scooby_state_5073a8|56|1 362,0,0,0,0,0,0,0,0,0,0,0,0,0,0,362,
scooby_state_507396|9|1 360,0,1,0,0,0,1,0,0,0,0,0,0,0,0,362,
scooby_state_5073b3|47|1 362,0,0,0,0,0,0,0,0,0,0,0,0,0,0,362,
scooby_state_50739c|23|1 362,0,0,0,0,0,0,0,0,0,0,0,0,0,0,362,
scooby_state_5073b3|56|1 358,0,1,0,0,0,1,0,0,1,0,0,0,0,1,362,
scooby_state_5073ad|30|1 361,0,1,0,0,0,0,0,0,0,0,0,0,0,0,362,
scooby_state_50739c|37|1 361,0,0,0,0,0,0,0,1,0,0,0,0,0,0,362,
scooby_state_507396|16|1 361,0,0,0,0,0,0,0,1,0,0,0,0,0,0,362,
scooby_state_5073a2|2|1 0,0,0,361,0,0,0,1,0,0,0,0,0,0,0,362,
scooby_state_507396|63|1 362,0,0,0,0,0,0,0,0,0,0,0,0,0,0,362,
scooby_state_50739c|18|1 362,0,0,0,0,0,0,0,0,0,0,0,0,0,0,362,
scooby_state_507396|30|1 361,0,0,0,0,0,0,1,0,0,0,0,0,0,0,362,
scooby_state_50739c|25|1 360,0,0,0,0,0,0,0,0,1,0,1,0,0,0,362,
scooby_state_5073b3|2|1 362,0,0,0,0,0,0,0,0,0,0,0,0,0,0,362,
scooby_state_5073b3|37|1 361,0,0,0,0,1,0,0,0,0,0,0,0,0,0,362,
scooby_state_50739c|30|1 360,1,0,0,0,1,0,0,0,0,0,0,0,0,0,362,
scooby_state_5073a8|2|1 362,0,0,0,0,0,0,0,0,0,0,0,0,0,0,362,
scooby_state_5073a8|4|1 362,0,0,0,0,0,0,0,0,0,0,0,0,0,0,362,
scooby_state_5073a8|63|1 362,0,0,0,0,0,0,0,0,0,0,0,0,0,0,362,
scooby_state_507396|11|1 362,0,0,0,0,0,0,0,0,0,0,0,0,0,0,362,
scooby_state_50739c|28|1 362,0,0,0,0,0,0,0,0,0,0,0,0,0,0,362,
scooby_state_5073ad|47|1 361,0,0,0,0,0,0,0,0,0,0,1,0,0,0,362,
scooby_state_50739c|47|1 361,0,0,0,0,0,1,0,0,0,0,0,0,0,0,362,
scooby_state_507396|35|1 362,0,0,0,0,0,0,0,0,0,0,0,0,0,0,362,
scooby_state_507838|8|1 362,0,0,0,0,0,0,0,0,0,0,0,0,0,0,362,
scooby_state_5073b3|40|1 361,0,0,0,1,0,0,0,0,0,0,0,0,0,0,362,
scooby_state_5073a8|28|1 361,0,0,0,0,0,0,0,0,0,1,0,0,0,0,362,
scooby_state_5073ad|40|1 362,0,0,0,0,0,0,0,0,0,0,0,0,0,0,362,
scooby_state_5073a2|63|1 0,0,0,361,0,0,0,0,0,0,0,0,1,0,0,362,
scooby_state_5073a8|18|1 361,0,0,0,0,1,0,0,0,0,0,0,0,0,0,362,
scooby_state_507396|28|1 362,0,0,0,0,0,0,0,0,0,0,0,0,0,0,362,
scooby_state_5073ad|35|1 360,0,0,0,1,0,1,0,0,0,0,0,0,0,0,362,
scooby_state_507838|31|1 362,0,0,0,0,0,0,0,0,0,0,0,0,0,0,362,
scooby_state_5073b3|49|1 362,0,0,0,0,0,0,0,0,0,0,0,0,0,0,362,
scooby_state_507396|6|1 362,0,0,0,0,0,0,0,0,0,0,0,0,0,0,362,
scooby_state_5073b3|61|1 362,0,0,0,0,0,0,0,0,0,0,0,0,0,0,362,
scooby_state_507838|10|1 362,0,0,0,0,0,0,0,0,0,0,0,0,0,0,362,
scooby_state_5073ad|18|1 362,0,0,0,0,0,0,0,0,0,0,0,0,0,0,362,
scooby_state_50739c|44|1 362,0,0,0,0,0,0,0,0,0,0,0,0,0,0,362,
scooby_state_5073a2|47|1 0,0,0,362,0,0,0,0,0,0,0,0,0,0,0,362,
scooby_state_5073a2|61|1 0,1,0,360,0,1,0,0,0,0,0,0,0,0,0,362,
scooby_state_5073b3|54|1 362,0,0,0,0,0,0,0,0,0,0,0,0,0,0,362,
scooby_state_5073b3|35|1 361,0,0,0,0,0,0,0,0,0,0,1,0,0,0,362,
scooby_state_5073a2|42|1 0,1,0,361,0,0,0,0,0,0,0,0,0,0,0,362,
scooby_state_507838|29|1 362,0,0,0,0,0,0,0,0,0,0,0,0,0,0,362,
scooby_state_5073a2|9|1 0,0,0,362,0,0,0,0,0,0,0,0,0,0,0,362,
scooby_state_5073a2|49|1 0,0,0,361,0,0,0,0,0,0,0,0,0,1,0,362,
scooby_state_507396|25|1 362,0,0,0,0,0,0,0,0,0,0,0,0,0,0,362,
scooby_state_5073a8|61|1 360,0,0,1,0,0,0,0,1,0,0,0,0,0,0,362,
scooby_state_5073ad|16|1 361,0,0,0,0,0,1,0,0,0,0,0,0,0,0,362,
scooby_state_507838|9|1 359,0,0,0,0,2,0,0,0,0,0,0,0,0,0,361,
scooby_state_507838|49|1 361,0,0,0,0,0,0,0,0,0,0,0,0,0,0,361,
scooby_state_507838|30|1 361,0,0,0,0,0,0,0,0,0,0,0,0,0,0,361,
scooby_state_507390|6|1 360,0,0,0,0,0,0,0,0,0,0,0,0,0,0,360,
scooby_state_507390|51|1 360,0,0,0,0,0,0,0,0,0,0,0,0,0,0,360,
scooby_state_507390|13|1 360,0,0,0,0,0,0,0,0,0,0,0,0,0,0,360,
scooby_state_507838|12|1 359,0,0,0,0,0,0,0,0,0,0,1,0,0,0,360,
scooby_state_507838|7|1 359,0,0,0,0,0,0,0,0,0,0,0,0,0,1,360,
scooby_state_507390|58|1 360,0,0,0,0,0,0,0,0,0,0,0,0,0,0,360,
scooby_state_507838|28|1 359,0,0,0,0,0,1,0,0,0,0,0,0,0,0,360,
scooby_state_50739c|0|-63 354,0,0,0,0,0,0,0,0,0,0,0,1,0,0,355,
scooby_state_5073a8|0|-63 353,0,0,0,0,0,0,0,0,0,0,0,0,0,0,353,
scooby_state_5073a2|0|-63 136,0,0,217,0,0,0,0,0,0,0,0,0,0,0,353,
scooby_state_507396|0|-63 352,0,0,0,0,0,0,0,0,0,0,0,0,0,0,352,
scooby_state_5073ad|0|-63 350,0,0,0,0,0,0,0,0,0,0,0,0,0,0,350,
scooby_state_50783e|63|1 348,0,0,0,0,0,0,0,0,0,0,0,0,0,0,348,
scooby_state_50783e|36|1 347,0,0,0,0,0,0,0,0,0,0,1,0,0,0,348,
scooby_state_50783e|47|1 347,0,0,1,0,0,0,0,0,0,0,0,0,0,0,348,
scooby_state_50783b|61|1 348,0,0,0,0,0,0,0,0,0,0,0,0,0,0,348,
scooby_state_50783e|5|1 348,0,0,0,0,0,0,0,0,0,0,0,0,0,0,348,
scooby_state_50783e|4|1 346,0,0,0,1,0,0,0,0,0,0,0,0,0,1,348,
scooby_state_50783e|21|1 346,0,1,0,0,0,1,0,0,0,0,0,0,0,0,348,
scooby_state_50783e|12|1 347,0,0,0,0,0,0,1,0,0,0,0,0,0,0,348,
scooby_state_50783e|56|1 348,0,0,0,0,0,0,0,0,0,0,0,0,0,0,348,
scooby_state_50783e|14|1 348,0,0,0,0,0,0,0,0,0,0,0,0,0,0,348,
scooby_state_50783e|29|1 347,0,0,0,0,0,0,1,0,0,0,0,0,0,0,348,
scooby_state_50783e|15|1 348,0,0,0,0,0,0,0,0,0,0,0,0,0,0,348,
scooby_state_50783e|16|1 348,0,0,0,0,0,0,0,0,0,0,0,0,0,0,348,
scooby_state_50783e|45|1 347,0,1,0,0,0,0,0,0,0,0,0,0,0,0,348,
scooby_state_50783e|43|1 348,0,0,0,0,0,0,0,0,0,0,0,0,0,0,348,
scooby_state_50783e|18|1 346,0,1,0,0,0,0,0,0,0,0,0,0,0,1,348,
scooby_state_50783e|59|1 348,0,0,0,0,0,0,0,0,0,0,0,0,0,0,348,
scooby_state_50783e|19|1 348,0,0,0,0,0,0,0,0,0,0,0,0,0,0,348,
scooby_state_50783e|55|1 347,0,0,0,0,0,0,0,0,0,0,0,0,0,1,348,
scooby_state_50783e|7|1 346,0,0,0,0,0,0,0,0,0,0,1,0,1,0,348,
scooby_state_50783e|53|1 346,1,0,0,0,0,1,0,0,0,0,0,0,0,0,348,
scooby_state_50783e|24|1 348,0,0,0,0,0,0,0,0,0,0,0,0,0,0,348,
scooby_state_50783e|26|1 347,0,0,0,0,0,0,0,0,0,0,0,0,0,1,348,
scooby_state_50783e|51|1 347,0,0,0,1,0,0,0,0,0,0,0,0,0,0,348,
scooby_state_50783e|61|1 348,0,0,0,0,0,0,0,0,0,0,0,0,0,0,348,
scooby_state_50783e|25|1 347,0,0,0,0,0,0,1,0,0,0,0,0,0,0,348,
scooby_state_50783e|2|1 346,0,0,0,0,0,0,1,0,0,1,0,0,0,0,348,
scooby_state_50783e|31|1 348,0,0,0,0,0,0,0,0,0,0,0,0,0,0,348,
scooby_state_50783e|1|1 348,0,0,0,0,0,0,0,0,0,0,0,0,0,0,348,
scooby_state_50783e|34|1 345,0,0,0,0,0,0,0,1,0,0,0,0,1,1,348,
scooby_state_50783e|35|1 347,0,0,0,0,0,0,0,1,0,0,0,0,0,0,348,
scooby_state_50783e|6|1 348,0,0,0,0,0,0,0,0,0,0,0,0,0,0,348,
scooby_state_50783e|8|1 347,0,0,0,0,0,0,0,0,0,0,0,1,0,0,348,
scooby_state_50783e|11|1 347,0,0,0,1,0,0,0,0,0,0,0,0,0,0,348,
scooby_state_50783e|62|1 346,0,0,1,0,0,0,0,0,0,0,0,1,0,0,348,
scooby_state_50783e|42|1 347,0,0,0,0,0,1,0,0,0,0,0,0,0,0,348,
scooby_state_50783e|48|1 348,0,0,0,0,0,0,0,0,0,0,0,0,0,0,348,
scooby_state_50783e|9|1 347,0,0,1,0,0,0,0,0,0,0,0,0,0,0,348,
scooby_state_50783e|49|1 348,0,0,0,0,0,0,0,0,0,0,0,0,0,0,348,
scooby_state_50783e|32|1 348,0,0,0,0,0,0,0,0,0,0,0,0,0,0,348,
scooby_state_50783e|52|1 347,0,0,0,0,0,0,0,0,0,0,0,0,0,1,348,
scooby_state_50783e|30|1 346,0,0,1,1,0,0,0,0,0,0,0,0,0,0,348,
scooby_state_50783e|28|1 347,0,1,0,0,0,0,0,0,0,0,0,0,0,0,348,
scooby_state_50783e|57|1 347,0,0,0,0,0,0,0,0,0,0,0,1,0,0,348,
scooby_state_50783e|22|1 348,0,0,0,0,0,0,0,0,0,0,0,0,0,0,348,
scooby_state_50783e|20|1 348,0,0,0,0,0,0,0,0,0,0,0,0,0,0,348,
scooby_state_50783e|46|1 346,0,0,0,0,0,0,0,0,0,1,1,0,0,0,348,
scooby_state_50783e|58|1 347,1,0,0,0,0,0,0,0,0,0,0,0,0,0,348,
scooby_state_50783b|1|1 346,0,0,1,0,0,0,0,0,0,0,0,0,0,0,347,
scooby_state_50783b|2|1 343,0,0,0,0,0,0,0,0,0,0,0,0,1,0,344,
scooby_state_50783b|52|1 343,0,0,0,0,0,0,0,0,0,1,0,0,0,0,344,
scooby_state_50783b|57|1 342,0,0,0,0,0,0,0,0,0,0,0,1,0,0,343,
scooby_state_50783b|42|1 342,0,0,0,0,0,0,0,0,0,0,0,0,0,0,342,
scooby_state_50783b|55|1 340,0,0,0,0,0,0,0,0,0,0,0,0,2,0,342,
scooby_state_50783b|48|1 341,0,0,0,0,0,0,0,0,1,0,0,0,0,0,342,
scooby_state_50783b|4|1 342,0,0,0,0,0,0,0,0,0,0,0,0,0,0,342,
scooby_state_50783b|47|1 342,0,0,0,0,0,0,0,0,0,0,0,0,0,0,342,
scooby_state_50783b|43|1 341,0,0,0,0,0,0,1,0,0,0,0,0,0,0,342,
scooby_state_50783b|58|1 340,0,0,0,0,0,1,0,0,0,0,0,0,0,0,341,
scooby_state_50783b|45|1 339,0,0,0,0,0,0,0,0,1,0,0,0,0,1,341,
scooby_state_50783b|51|1 340,0,0,0,0,0,0,1,0,0,0,0,0,0,0,341,
scooby_state_50783b|56|1 341,0,0,0,0,0,0,0,0,0,0,0,0,0,0,341,
scooby_state_50783b|49|1 340,0,0,0,0,0,0,0,0,0,0,0,0,0,0,340,
scooby_state_50783b|53|1 340,0,0,0,0,0,0,0,0,0,0,0,0,0,0,340,
scooby_state_50783b|59|1 338,0,0,0,0,0,0,0,0,1,0,0,0,0,0,339,
scooby_state_50783b|46|1 339,0,0,0,0,0,0,0,0,0,0,0,0,0,0,339,
scooby_state_50783b|5|1 339,0,0,0,0,0,0,0,0,0,0,0,0,0,0,339,
scooby_state_50783b|6|1 335,0,0,0,0,0,0,0,0,0,0,0,0,0,1,336,
scooby_state_50783b|62|1 334,0,0,0,0,0,0,0,0,0,0,0,0,0,0,334,
scooby_state_508230|0|0 332,0,0,0,0,0,0,0,0,1,0,0,0,0,0,333,
scooby_state_50783b|7|1 330,0,0,0,0,0,0,0,0,0,0,0,0,0,0,330,
scooby_state_50783b|63|1 324,0,0,0,0,0,0,0,0,0,0,0,0,0,0,324,
scooby_state_508896|43|1 323,0,0,0,0,0,0,0,0,0,0,0,0,0,0,323,
scooby_state_50783b|8|1 321,0,0,0,0,0,0,1,0,0,0,0,0,1,0,323,
scooby_state_508896|0|0 320,0,0,0,0,0,0,0,0,0,0,0,0,0,0,320,
scooby_state_508896|39|1 320,0,0,0,0,0,0,0,0,0,0,0,0,0,0,320,
scooby_state_508896|22|1 320,0,0,0,0,0,0,0,0,0,0,0,0,0,0,320,
scooby_state_508896|60|1 319,0,0,0,0,0,0,0,0,0,1,0,0,0,0,320,
scooby_state_508896|17|1 318,0,0,0,1,0,0,0,0,0,0,0,1,0,0,320,
scooby_state_508896|23|1 319,0,0,0,0,0,0,0,0,0,0,0,0,0,0,319,
scooby_state_508896|59|1 319,0,0,0,0,0,0,0,0,0,0,0,0,0,0,319,
scooby_state_508896|40|1 318,0,0,0,1,0,0,0,0,0,0,0,0,0,0,319,
scooby_state_508896|41|1 319,0,0,0,0,0,0,0,0,0,0,0,0,0,0,319,
scooby_state_508896|3|1 317,1,0,0,0,0,0,0,0,0,0,1,0,0,0,319,
scooby_state_508896|5|1 316,0,0,0,0,0,1,0,0,0,0,1,1,0,0,319,
scooby_state_508896|4|1 318,0,0,0,0,0,0,0,1,0,0,0,0,0,0,319,
scooby_state_508896|61|1 319,0,0,0,0,0,0,0,0,0,0,0,0,0,0,319,
scooby_state_508896|1|1 318,0,0,0,0,0,0,0,0,0,0,0,0,0,0,318,
scooby_state_508896|2|1 318,0,0,0,0,0,0,0,0,0,0,0,0,0,0,318,
scooby_state_508896|21|1 318,0,0,0,0,0,0,0,0,0,0,0,0,0,0,318,
scooby_state_508896|50|1 317,0,1,0,0,0,0,0,0,0,0,0,0,0,0,318,
scooby_state_508896|13|1 318,0,0,0,0,0,0,0,0,0,0,0,0,0,0,318,
scooby_state_508896|42|1 318,0,0,0,0,0,0,0,0,0,0,0,0,0,0,318,
scooby_state_508896|51|1 316,0,0,0,0,1,1,0,0,0,0,0,0,0,0,318,
scooby_state_508896|24|1 318,0,0,0,0,0,0,0,0,0,0,0,0,0,0,318,
scooby_state_508896|45|1 318,0,0,0,0,0,0,0,0,0,0,0,0,0,0,318,
scooby_state_508896|16|1 316,0,0,0,0,0,0,0,0,0,0,0,1,0,0,317,
scooby_state_508896|14|1 316,0,0,0,0,0,1,0,0,0,0,0,0,0,0,317,
scooby_state_508896|49|1 317,0,0,0,0,0,0,0,0,0,0,0,0,0,0,317,
scooby_state_508230|38|1 317,0,0,0,0,0,0,0,0,0,0,0,0,0,0,317,
scooby_state_508896|44|1 317,0,0,0,0,0,0,0,0,0,0,0,0,0,0,317,
scooby_state_508896|48|1 315,0,0,0,0,0,0,0,0,1,1,0,0,0,0,317,
scooby_state_508896|6|1 317,0,0,0,0,0,0,0,0,0,0,0,0,0,0,317,
scooby_state_508896|25|1 316,0,0,0,0,0,0,0,0,0,0,0,1,0,0,317,
scooby_state_508896|47|1 317,0,0,0,0,0,0,0,0,0,0,0,0,0,0,317,
scooby_state_508896|15|1 316,0,0,0,0,0,0,0,0,0,0,0,0,0,0,316,
scooby_state_508896|57|1 316,0,0,0,0,0,0,0,0,0,0,0,0,0,0,316,
scooby_state_508896|46|1 316,0,0,0,0,0,0,0,0,0,0,0,0,0,0,316,
scooby_state_508896|38|1 316,0,0,0,0,0,0,0,0,0,0,0,0,0,0,316,
scooby_state_508896|56|1 316,0,0,0,0,0,0,0,0,0,0,0,0,0,0,316,
scooby_state_508896|30|1 315,0,0,0,0,0,0,0,0,0,1,0,0,0,0,316,
scooby_state_508896|18|1 316,0,0,0,0,0,0,0,0,0,0,0,0,0,0,316,
scooby_state_508896|20|1 316,0,0,0,0,0,0,0,0,0,0,0,0,0,0,316,
scooby_state_508896|58|1 316,0,0,0,0,0,0,0,0,0,0,0,0,0,0,316,
scooby_state_508896|29|1 316,0,0,0,0,0,0,0,0,0,0,0,0,0,0,316,
scooby_state_508896|62|1 316,0,0,0,0,0,0,0,0,0,0,0,0,0,0,316,
scooby_state_508230|45|1 315,0,0,0,0,0,0,0,0,0,0,0,0,0,0,315,
scooby_state_508896|34|1 315,0,0,0,0,0,0,0,0,0,0,0,0,0,0,315,
scooby_state_508896|35|1 314,0,0,0,0,0,0,0,0,0,0,1,0,0,0,315,
scooby_state_508230|19|1 314,0,0,1,0,0,0,0,0,0,0,0,0,0,0,315,
scooby_state_508230|40|1 315,0,0,0,0,0,0,0,0,0,0,0,0,0,0,315,
scooby_state_508896|63|1 315,0,0,0,0,0,0,0,0,0,0,0,0,0,0,315,
scooby_state_508230|18|1 315,0,0,0,0,0,0,0,0,0,0,0,0,0,0,315,
scooby_state_508230|42|1 314,0,1,0,0,0,0,0,0,0,0,0,0,0,0,315,
scooby_state_508896|52|1 313,0,0,0,0,0,2,0,0,0,0,0,0,0,0,315,
scooby_state_508896|32|1 315,0,0,0,0,0,0,0,0,0,0,0,0,0,0,315,
scooby_state_508896|19|1 313,1,0,0,0,0,0,0,0,0,0,0,0,1,0,315,
scooby_state_508230|44|1 315,0,0,0,0,0,0,0,0,0,0,0,0,0,0,315,
scooby_state_508230|59|1 313,0,0,0,0,0,0,0,1,0,0,1,0,0,0,315,
scooby_state_508230|16|1 314,0,0,0,0,0,0,0,0,0,1,0,0,0,0,315,
scooby_state_508230|61|1 315,0,0,0,0,0,0,0,0,0,0,0,0,0,0,315,
scooby_state_508230|63|1 315,0,0,0,0,0,0,0,0,0,0,0,0,0,0,315,
scooby_state_508230|2|1 315,0,0,0,0,0,0,0,0,0,0,0,0,0,0,315,
scooby_state_508896|12|1 312,0,0,0,1,1,0,1,0,0,0,0,0,0,0,315,
scooby_state_508896|31|1 313,0,0,1,0,0,0,1,0,0,0,0,0,0,0,315,
scooby_state_508896|33|1 315,0,0,0,0,0,0,0,0,0,0,0,0,0,0,315,
scooby_state_508896|8|1 315,0,0,0,0,0,0,0,0,0,0,0,0,0,0,315,
scooby_state_508896|10|1 314,0,0,0,0,0,0,0,0,0,0,0,0,0,0,314,
scooby_state_508896|27|1 314,0,0,0,0,0,0,0,0,0,0,0,0,0,0,314,
scooby_state_508230|43|1 313,0,0,0,0,0,0,0,0,0,0,0,1,0,0,314,
scooby_state_508896|9|1 312,0,0,0,0,0,1,0,0,0,0,1,0,0,0,314,
scooby_state_508230|41|1 311,0,0,0,0,0,0,0,0,1,0,0,1,0,1,314,
scooby_state_508896|7|1 313,0,0,0,0,0,0,1,0,0,0,0,0,0,0,314,
scooby_state_508896|53|1 314,0,0,0,0,0,0,0,0,0,0,0,0,0,0,314,
scooby_state_508230|60|1 314,0,0,0,0,0,0,0,0,0,0,0,0,0,0,314,
scooby_state_508230|62|1 313,0,0,0,0,0,0,1,0,0,0,0,0,0,0,314,
scooby_state_508896|26|1 314,0,0,0,0,0,0,0,0,0,0,0,0,0,0,314,
scooby_state_508230|17|1 314,0,0,0,0,0,0,0,0,0,0,0,0,0,0,314,
scooby_state_508230|1|1 313,0,1,0,0,0,0,0,0,0,0,0,0,0,0,314,
scooby_state_508896|55|1 314,0,0,0,0,0,0,0,0,0,0,0,0,0,0,314,
scooby_state_508230|37|1 314,0,0,0,0,0,0,0,0,0,0,0,0,0,0,314,
scooby_state_508230|39|1 314,0,0,0,0,0,0,0,0,0,0,0,0,0,0,314,
scooby_state_508230|54|1 313,0,0,0,0,0,0,0,0,0,0,0,0,0,0,313,
scooby_state_508230|12|1 313,0,0,0,0,0,0,0,0,0,0,0,0,0,0,313,
scooby_state_508230|11|1 312,0,0,0,0,0,0,1,0,0,0,0,0,0,0,313,
scooby_state_508230|23|1 313,0,0,0,0,0,0,0,0,0,0,0,0,0,0,313,
scooby_state_508230|9|1 313,0,0,0,0,0,0,0,0,0,0,0,0,0,0,313,
scooby_state_508230|33|1 312,1,0,0,0,0,0,0,0,0,0,0,0,0,0,313,
scooby_state_508230|52|1 313,0,0,0,0,0,0,0,0,0,0,0,0,0,0,313,
scooby_state_508896|28|1 311,0,0,0,1,0,0,0,1,0,0,0,0,0,0,313,
scooby_state_508896|11|1 313,0,0,0,0,0,0,0,0,0,0,0,0,0,0,313,
scooby_state_508896|54|1 312,0,0,0,0,0,0,0,0,0,0,1,0,0,0,313,
scooby_state_508896|36|1 312,1,0,0,0,0,0,0,0,0,0,0,0,0,0,313,
scooby_state_508230|7|1 313,0,0,0,0,0,0,0,0,0,0,0,0,0,0,313,
scooby_state_508230|21|1 313,0,0,0,0,0,0,0,0,0,0,0,0,0,0,313,
scooby_state_508230|8|1 311,0,0,0,0,0,0,0,1,0,0,0,0,0,0,312,
scooby_state_508230|53|1 311,0,0,0,0,1,0,0,0,0,0,0,0,0,0,312,
scooby_state_508230|46|1 311,0,0,0,0,0,0,0,0,0,0,0,0,1,0,312,
scooby_state_508230|3|1 312,0,0,0,0,0,0,0,0,0,0,0,0,0,0,312,
scooby_state_508230|56|1 312,0,0,0,0,0,0,0,0,0,0,0,0,0,0,312,
scooby_state_508230|34|1 312,0,0,0,0,0,0,0,0,0,0,0,0,0,0,312,
scooby_state_508230|24|1 311,0,0,1,0,0,0,0,0,0,0,0,0,0,0,312,
scooby_state_508230|35|1 312,0,0,0,0,0,0,0,0,0,0,0,0,0,0,312,
scooby_state_508230|10|1 312,0,0,0,0,0,0,0,0,0,0,0,0,0,0,312,
scooby_state_508230|22|1 312,0,0,0,0,0,0,0,0,0,0,0,0,0,0,312,
scooby_state_508230|55|1 312,0,0,0,0,0,0,0,0,0,0,0,0,0,0,312,
scooby_state_508230|20|1 312,0,0,0,0,0,0,0,0,0,0,0,0,0,0,312,
scooby_state_508896|37|1 311,0,0,0,0,0,0,0,0,0,0,0,0,0,0,311,
scooby_state_508230|58|1 310,0,0,0,0,0,0,0,0,0,0,1,0,0,0,311,
scooby_state_508230|57|1 311,0,0,0,0,0,0,0,0,0,0,0,0,0,0,311,
scooby_state_508230|15|1 311,0,0,0,0,0,0,0,0,0,0,0,0,0,0,311,
scooby_state_508230|4|1 310,0,0,0,0,0,0,0,1,0,0,0,0,0,0,311,
scooby_state_50783e|3|1 310,0,0,1,0,0,0,0,0,0,0,0,0,0,0,311,
scooby_state_508230|47|1 311,0,0,0,0,0,0,0,0,0,0,0,0,0,0,311,
scooby_state_508230|49|1 311,0,0,0,0,0,0,0,0,0,0,0,0,0,0,311,
scooby_state_508230|50|1 308,1,0,0,0,0,0,0,1,0,0,0,0,0,0,310,
scooby_state_508230|32|1 309,0,0,0,0,0,0,0,1,0,0,0,0,0,0,310,
scooby_state_50783e|10|1 310,0,0,0,0,0,0,0,0,0,0,0,0,0,0,310,
scooby_state_508230|25|1 309,0,0,0,0,0,0,0,0,0,0,0,1,0,0,310,
scooby_state_508230|28|1 310,0,0,0,0,0,0,0,0,0,0,0,0,0,0,310,
scooby_state_508230|6|1 309,0,0,0,0,0,0,0,0,0,0,0,0,1,0,310,
scooby_state_508230|48|1 310,0,0,0,0,0,0,0,0,0,0,0,0,0,0,310,
scooby_state_508230|26|1 309,0,0,0,0,0,0,0,1,0,0,0,0,0,0,310,
scooby_state_508230|31|1 310,0,0,0,0,0,0,0,0,0,0,0,0,0,0,310,
scooby_state_508230|51|1 308,0,0,0,1,0,0,0,0,0,0,1,0,0,0,310,
scooby_state_508230|30|1 310,0,0,0,0,0,0,0,0,0,0,0,0,0,0,310,
scooby_state_508230|5|1 309,0,0,0,0,1,0,0,0,0,0,0,0,0,0,310,
scooby_state_508230|36|1 309,0,0,0,0,0,0,0,0,0,0,1,0,0,0,310,
scooby_state_508230|14|1 309,0,0,0,0,0,0,0,0,0,0,0,0,0,0,309,
scooby_state_508230|27|1 309,0,0,0,0,0,0,0,0,0,0,0,0,0,0,309,
scooby_state_508230|29|1 309,0,0,0,0,0,0,0,0,0,0,0,0,0,0,309,
scooby_state_508230|13|1 308,0,0,0,0,0,0,0,0,0,0,1,0,0,0,309,
scooby_state_50783e|44|1 306,0,0,0,0,0,1,0,0,0,0,0,0,0,0,307,
scooby_state_50783e|17|1 307,0,0,0,0,0,0,0,0,0,0,0,0,0,0,307,
scooby_state_50783e|54|1 305,0,0,0,0,0,0,0,0,0,0,0,0,0,0,305,
scooby_state_50783e|50|1 303,0,0,0,0,0,0,0,0,1,0,0,0,0,0,304,
scooby_state_50783e|27|1 303,0,0,0,0,0,0,0,0,0,0,0,0,0,0,303,
scooby_state_50783e|23|1 302,0,0,0,0,0,0,0,0,0,0,0,0,0,0,302,
scooby_state_50783e|33|1 301,0,0,0,0,0,0,0,0,0,0,0,1,0,0,302,
scooby_state_50783e|60|1 301,0,0,0,0,0,0,0,0,0,0,0,0,0,0,301,
scooby_state_50783e|13|1 300,0,0,0,0,0,0,0,0,0,0,0,0,0,0,300,
scooby_state_508258|60|1 285,0,0,0,0,0,0,0,0,0,0,0,0,0,0,285,
scooby_state_508258|21|1 284,0,0,0,0,0,0,0,0,1,0,0,0,0,0,285,
scooby_state_508258|16|1 285,0,0,0,0,0,0,0,0,0,0,0,0,0,0,285,
scooby_state_508258|58|1 284,0,0,0,0,0,0,0,0,0,1,0,0,0,0,285,
scooby_state_508258|59|1 285,0,0,0,0,0,0,0,0,0,0,0,0,0,0,285,
scooby_state_508258|15|1 284,0,0,0,0,0,0,0,0,0,0,1,0,0,0,285,
scooby_state_508258|1|1 285,0,0,0,0,0,0,0,0,0,0,0,0,0,0,285,
scooby_state_508258|53|1 284,0,0,0,0,0,0,0,0,0,0,0,0,0,0,284,
scooby_state_508258|6|1 284,0,0,0,0,0,0,0,0,0,0,0,0,0,0,284,
scooby_state_508258|13|1 283,0,0,0,0,0,0,0,0,0,0,1,0,0,0,284,
scooby_state_508258|39|1 284,0,0,0,0,0,0,0,0,0,0,0,0,0,0,284,
scooby_state_508258|63|1 284,0,0,0,0,0,0,0,0,0,0,0,0,0,0,284,
scooby_state_508258|61|1 284,0,0,0,0,0,0,0,0,0,0,0,0,0,0,284,
scooby_state_508258|37|1 284,0,0,0,0,0,0,0,0,0,0,0,0,0,0,284,
scooby_state_508258|18|1 284,0,0,0,0,0,0,0,0,0,0,0,0,0,0,284,
scooby_state_508258|7|1 283,0,0,0,0,0,0,0,0,0,0,1,0,0,0,284,
scooby_state_508258|2|1 284,0,0,0,0,0,0,0,0,0,0,0,0,0,0,284,
scooby_state_508258|49|1 284,0,0,0,0,0,0,0,0,0,0,0,0,0,0,284,
scooby_state_508258|0|0 283,0,0,0,0,0,0,0,0,1,0,0,0,0,0,284,
scooby_state_508258|11|1 284,0,0,0,0,0,0,0,0,0,0,0,0,0,0,284,
scooby_state_508258|20|1 284,0,0,0,0,0,0,0,0,0,0,0,0,0,0,284,
scooby_state_508258|44|1 282,1,0,0,0,0,0,0,0,0,0,0,0,0,1,284,
scooby_state_508258|54|1 283,0,0,0,0,0,0,0,0,0,0,0,1,0,0,284,
scooby_state_508258|40|1 284,0,0,0,0,0,0,0,0,0,0,0,0,0,0,284,
scooby_state_508258|28|1 283,0,0,0,0,0,0,0,0,0,0,0,0,0,0,283,
scooby_state_508258|10|1 283,0,0,0,0,0,0,0,0,0,0,0,0,0,0,283,
scooby_state_508258|55|1 283,0,0,0,0,0,0,0,0,0,0,0,0,0,0,283,
scooby_state_508258|5|1 283,0,0,0,0,0,0,0,0,0,0,0,0,0,0,283,
scooby_state_508258|22|1 283,0,0,0,0,0,0,0,0,0,0,0,0,0,0,283,
scooby_state_508258|12|1 281,1,0,0,1,0,0,0,0,0,0,0,0,0,0,283,
scooby_state_508258|32|1 283,0,0,0,0,0,0,0,0,0,0,0,0,0,0,283,
scooby_state_508258|47|1 283,0,0,0,0,0,0,0,0,0,0,0,0,0,0,283,
scooby_state_508258|48|1 282,0,0,0,1,0,0,0,0,0,0,0,0,0,0,283,
scooby_state_508258|23|1 282,0,0,0,0,0,0,1,0,0,0,0,0,0,0,283,
scooby_state_508258|45|1 283,0,0,0,0,0,0,0,0,0,0,0,0,0,0,283,
scooby_state_508258|27|1 283,0,0,0,0,0,0,0,0,0,0,0,0,0,0,283,
scooby_state_508258|26|1 281,0,0,0,0,1,1,0,0,0,0,0,0,0,0,283,
scooby_state_508258|38|1 283,0,0,0,0,0,0,0,0,0,0,0,0,0,0,283,
scooby_state_508258|50|1 283,0,0,0,0,0,0,0,0,0,0,0,0,0,0,283,
scooby_state_508258|42|1 283,0,0,0,0,0,0,0,0,0,0,0,0,0,0,283,
scooby_state_508258|17|1 283,0,0,0,0,0,0,0,0,0,0,0,0,0,0,283,
scooby_state_508258|33|1 281,0,0,0,0,0,0,1,0,0,0,0,1,0,0,283,
scooby_state_508258|56|1 282,0,1,0,0,0,0,0,0,0,0,0,0,0,0,283,
scooby_state_508258|35|1 281,0,0,0,0,1,0,0,0,0,0,0,0,0,0,282,
scooby_state_508258|8|1 282,0,0,0,0,0,0,0,0,0,0,0,0,0,0,282,
scooby_state_508258|51|1 282,0,0,0,0,0,0,0,0,0,0,0,0,0,0,282,
scooby_state_508258|14|1 282,0,0,0,0,0,0,0,0,0,0,0,0,0,0,282,
scooby_state_508258|4|1 281,0,0,0,0,0,0,0,0,0,1,0,0,0,0,282,
scooby_state_508258|46|1 282,0,0,0,0,0,0,0,0,0,0,0,0,0,0,282,
scooby_state_508258|43|1 282,0,0,0,0,0,0,0,0,0,0,0,0,0,0,282,
scooby_state_508258|34|1 282,0,0,0,0,0,0,0,0,0,0,0,0,0,0,282,
scooby_state_508258|36|1 281,0,0,0,0,0,0,0,0,0,0,0,0,0,0,281,
scooby_state_508258|19|1 281,0,0,0,0,0,0,0,0,0,0,0,0,0,0,281,
scooby_state_508258|9|1 281,0,0,0,0,0,0,0,0,0,0,0,0,0,0,281,
scooby_state_508258|41|1 281,0,0,0,0,0,0,0,0,0,0,0,0,0,0,281,
scooby_state_508258|52|1 280,0,0,0,0,0,0,0,1,0,0,0,0,0,0,281,
scooby_state_508258|25|1 280,0,0,0,0,0,0,0,0,0,1,0,0,0,0,281,
scooby_state_508258|31|1 279,0,0,0,0,0,0,0,0,1,0,0,1,0,0,281,
scooby_state_508258|62|1 280,0,0,0,0,0,0,0,0,0,0,0,0,0,0,280,
scooby_state_508258|3|1 279,0,1,0,0,0,0,0,0,0,0,0,0,0,0,280,
scooby_state_508258|29|1 280,0,0,0,0,0,0,0,0,0,0,0,0,0,0,280,
scooby_state_508258|57|1 279,0,0,0,0,0,0,0,0,0,0,1,0,0,0,280,
scooby_state_508258|24|1 279,0,0,0,0,0,0,0,0,0,0,1,0,0,0,280,
scooby_state_508258|30|1 280,0,0,0,0,0,0,0,0,0,0,0,0,0,0,280,
scooby_state_50783b|9|1 269,0,0,0,0,0,0,0,0,0,0,0,0,1,0,270,
scooby_state_f2f6e0|53|1 265,0,0,0,0,0,0,0,0,0,0,0,0,0,0,265,
scooby_state_f2f6e0|55|1 262,0,0,0,0,1,0,0,0,0,1,0,0,0,0,264,
scooby_state_f2f6e0|21|1 263,0,0,0,0,0,0,0,0,0,0,1,0,0,0,264,
scooby_state_f2f6e0|23|1 263,0,0,0,0,0,0,0,0,0,0,0,0,0,0,263,
scooby_state_50783b|60|1 261,0,0,0,0,0,0,0,0,0,0,0,0,0,0,261,
scooby_state_50783e|41|1 260,0,0,0,1,0,0,0,0,0,0,0,0,0,0,261,
scooby_state_f2f6e0|14|1 259,0,0,0,0,0,0,0,0,0,0,0,0,0,0,259,
scooby_state_f2f6e0|32|1 258,0,0,0,0,0,0,0,0,1,0,0,0,0,0,259,
scooby_state_f2f6e0|34|1 259,0,0,0,0,0,0,0,0,0,0,0,0,0,0,259,
scooby_state_f2f6e0|0|0 258,0,0,0,0,0,0,0,0,0,0,0,0,0,0,258,
scooby_state_50783b|54|1 256,0,0,0,0,0,0,0,0,0,0,0,0,1,0,257,
scooby_state_50783b|50|1 256,0,0,0,0,0,0,0,1,0,0,0,0,0,0,257,
scooby_state_f2f6e0|43|1 257,0,0,0,0,0,0,0,0,0,0,0,0,0,0,257,
scooby_state_4f9a90|60|1 254,0,0,0,0,0,1,0,0,0,0,0,0,0,1,256,
scooby_state_4f9a90|41|1 255,0,0,0,0,0,0,1,0,0,0,0,0,0,0,256,
scooby_state_4f9a90|61|1 256,0,0,0,0,0,0,0,0,0,0,0,0,0,0,256,
scooby_state_50783b|41|1 256,0,0,0,0,0,0,0,0,0,0,0,0,0,0,256,
scooby_state_4f9a90|40|1 255,0,0,0,0,0,0,0,0,1,0,0,0,0,0,256,
scooby_state_4f9a90|17|1 256,0,0,0,0,0,0,0,0,0,0,0,0,0,0,256,
scooby_state_f2f6e0|46|1 255,0,0,0,1,0,0,0,0,0,0,0,0,0,0,256,
scooby_state_4f9a90|43|1 256,0,0,0,0,0,0,0,0,0,0,0,0,0,0,256,
scooby_state_4f9a90|59|1 255,0,0,1,0,0,0,0,0,0,0,0,0,0,0,256,
scooby_state_4f9a90|62|1 255,0,0,0,0,0,0,0,0,1,0,0,0,0,0,256,
scooby_state_4f9a90|39|1 256,0,0,0,0,0,0,0,0,0,0,0,0,0,0,256,
scooby_state_f2f6e0|11|1 256,0,0,0,0,0,0,0,0,0,0,0,0,0,0,256,
scooby_state_4f9a90|16|1 256,0,0,0,0,0,0,0,0,0,0,0,0,0,0,256,
scooby_state_4f9a90|0|0 255,0,0,0,0,1,0,0,0,0,0,0,0,0,0,256,
scooby_state_4f9a90|42|1 256,0,0,0,0,0,0,0,0,0,0,0,0,0,0,256,
scooby_state_50783b|3|1 255,0,0,0,0,0,0,0,0,0,0,0,0,0,0,255,
scooby_state_50783b|44|1 254,0,0,0,0,0,0,0,1,0,0,0,0,0,0,255,
scooby_state_4f9a90|44|1 253,0,0,0,0,0,0,0,0,0,0,0,1,0,0,254,
scooby_state_4f9a90|3|1 253,0,0,0,0,0,0,0,0,0,0,0,0,1,0,254,
scooby_state_4f9a90|13|1 254,0,0,0,0,0,0,0,0,0,0,0,0,0,0,254,
scooby_state_4f9a90|38|1 254,0,0,0,0,0,0,0,0,0,0,0,0,0,0,254,
scooby_state_4f9a90|46|1 253,0,0,0,0,0,0,0,0,1,0,0,0,0,0,254,
scooby_state_4f9a90|58|1 254,0,0,0,0,0,0,0,0,0,0,0,0,0,0,254,
scooby_state_4f9a90|21|1 254,0,0,0,0,0,0,0,0,0,0,0,0,0,0,254,
scooby_state_4f9a90|24|1 254,0,0,0,0,0,0,0,0,0,0,0,0,0,0,254,
scooby_state_f2fc80|0|0 254,0,0,0,0,0,0,0,0,0,0,0,0,0,0,254,
scooby_state_4f9a90|15|1 254,0,0,0,0,0,0,0,0,0,0,0,0,0,0,254,
scooby_state_4f9a90|23|1 254,0,0,0,0,0,0,0,0,0,0,0,0,0,0,254,
scooby_state_4f9a90|18|1 253,0,0,0,0,0,0,0,0,1,0,0,0,0,0,254,
scooby_state_4f9a90|19|1 254,0,0,0,0,0,0,0,0,0,0,0,0,0,0,254,
scooby_state_4f9a90|2|1 254,0,0,0,0,0,0,0,0,0,0,0,0,0,0,254,
scooby_state_4f9a90|1|1 253,0,0,0,0,0,0,0,0,0,0,1,0,0,0,254,
scooby_state_4f9a90|63|1 254,0,0,0,0,0,0,0,0,0,0,0,0,0,0,254,
scooby_state_4f9a90|14|1 253,0,0,0,0,0,0,0,0,1,0,0,0,0,0,254,
scooby_state_4f9a90|45|1 254,0,0,0,0,0,0,0,0,0,0,0,0,0,0,254,
scooby_state_4f9a90|22|1 254,0,0,0,0,0,0,0,0,0,0,0,0,0,0,254,
scooby_state_4f9a90|20|1 254,0,0,0,0,0,0,0,0,0,0,0,0,0,0,254,
scooby_state_f2f6e0|31|1 253,0,0,0,0,0,0,0,0,0,0,0,0,0,0,253,
scooby_state_f2fc80|50|1 252,0,0,0,0,0,0,0,0,0,0,0,0,1,0,253,
scooby_state_f2fc80|43|1 253,0,0,0,0,0,0,0,0,0,0,0,0,0,0,253,
scooby_state_f2fc80|3|1 252,0,0,0,0,0,0,0,0,0,0,0,0,0,0,252,
scooby_state_4f9a90|25|1 251,1,0,0,0,0,0,0,0,0,0,0,0,0,0,252,
scooby_state_4f9a90|32|1 251,0,0,0,0,0,0,0,0,1,0,0,0,0,0,252,
scooby_state_f2fc80|22|1 252,0,0,0,0,0,0,0,0,0,0,0,0,0,0,252,
scooby_state_4f9a90|37|1 252,0,0,0,0,0,0,0,0,0,0,0,0,0,0,252,
scooby_state_f2fc80|12|1 252,0,0,0,0,0,0,0,0,0,0,0,0,0,0,252,
scooby_state_4f9a90|12|1 251,0,0,1,0,0,0,0,0,0,0,0,0,0,0,252,
scooby_state_4f9a90|52|1 251,0,0,0,0,0,0,0,1,0,0,0,0,0,0,252,
scooby_state_4f9a90|6|1 251,0,0,0,0,0,0,0,0,1,0,0,0,0,0,252,
scooby_state_f2fc80|21|1 252,0,0,0,0,0,0,0,0,0,0,0,0,0,0,252,
scooby_state_4f9a90|10|1 252,0,0,0,0,0,0,0,0,0,0,0,0,0,0,252,
scooby_state_4f9a90|7|1 252,0,0,0,0,0,0,0,0,0,0,0,0,0,0,252,
scooby_state_4f9a90|55|1 251,0,0,0,0,0,0,0,0,0,0,1,0,0,0,252,
scooby_state_4f9a90|56|1 252,0,0,0,0,0,0,0,0,0,0,0,0,0,0,252,
scooby_state_f2fc80|2|1 249,1,0,0,0,0,0,0,0,0,0,1,0,1,0,252,
scooby_state_4f9a90|48|1 252,0,0,0,0,0,0,0,0,0,0,0,0,0,0,252,
scooby_state_4f9a90|5|1 251,0,0,0,0,0,0,1,0,0,0,0,0,0,0,252,
scooby_state_4f9a90|35|1 251,0,0,0,0,0,0,0,0,0,0,0,0,1,0,252,
scooby_state_f2fc80|42|1 252,0,0,0,0,0,0,0,0,0,0,0,0,0,0,252,
scooby_state_4f9a90|33|1 252,0,0,0,0,0,0,0,0,0,0,0,0,0,0,252,
scooby_state_f2fc80|47|1 252,0,0,0,0,0,0,0,0,0,0,0,0,0,0,252,
scooby_state_4f9a90|54|1 252,0,0,0,0,0,0,0,0,0,0,0,0,0,0,252,
scooby_state_4f9a90|53|1 252,0,0,0,0,0,0,0,0,0,0,0,0,0,0,252,
scooby_state_4f9a90|47|1 252,0,0,0,0,0,0,0,0,0,0,0,0,0,0,252,
scooby_state_4f9a90|34|1 251,0,0,0,0,0,0,0,1,0,0,0,0,0,0,252,
scooby_state_4f9a90|49|1 252,0,0,0,0,0,0,0,0,0,0,0,0,0,0,252,
scooby_state_f2fc80|45|1 252,0,0,0,0,0,0,0,0,0,0,0,0,0,0,252,
scooby_state_f2fc80|44|1 252,0,0,0,0,0,0,0,0,0,0,0,0,0,0,252,
scooby_state_f2fc80|1|1 252,0,0,0,0,0,0,0,0,0,0,0,0,0,0,252,
scooby_state_f2fc80|48|1 252,0,0,0,0,0,0,0,0,0,0,0,0,0,0,252,
scooby_state_4f9a90|4|1 251,0,0,0,0,0,0,1,0,0,0,0,0,0,0,252,
scooby_state_4f9a90|36|1 252,0,0,0,0,0,0,0,0,0,0,0,0,0,0,252,
scooby_state_4f9a90|57|1 251,0,0,0,0,0,0,0,0,0,0,0,0,1,0,252,
scooby_state_4f9a90|11|1 252,0,0,0,0,0,0,0,0,0,0,0,0,0,0,252,
scooby_state_4f9a90|50|1 252,0,0,0,0,0,0,0,0,0,0,0,0,0,0,252,
scooby_state_4f9a90|8|1 252,0,0,0,0,0,0,0,0,0,0,0,0,0,0,252,
scooby_state_4f9a90|51|1 252,0,0,0,0,0,0,0,0,0,0,0,0,0,0,252,
scooby_state_4f9a90|9|1 252,0,0,0,0,0,0,0,0,0,0,0,0,0,0,252,
scooby_state_f2fc80|20|1 251,0,0,0,0,0,0,0,0,0,0,0,0,0,0,251,
scooby_state_f2f6e0|63|1 251,0,0,0,0,0,0,0,0,0,0,0,0,0,0,251,
scooby_state_f2fc80|7|1 251,0,0,0,0,0,0,0,0,0,0,0,0,0,0,251,
scooby_state_f2fc80|54|1 251,0,0,0,0,0,0,0,0,0,0,0,0,0,0,251,
scooby_state_f2f6e0|25|1 251,0,0,0,0,0,0,0,0,0,0,0,0,0,0,251,
scooby_state_f2fc80|10|1 251,0,0,0,0,0,0,0,0,0,0,0,0,0,0,251,
scooby_state_f2fc80|53|1 251,0,0,0,0,0,0,0,0,0,0,0,0,0,0,251,
scooby_state_f2fc80|46|1 251,0,0,0,0,0,0,0,0,0,0,0,0,0,0,251,
scooby_state_f2fc80|6|1 250,0,0,0,1,0,0,0,0,0,0,0,0,0,0,251,
scooby_state_f2fc80|62|1 250,0,0,0,1,0,0,0,0,0,0,0,0,0,0,251,
scooby_state_50783b|11|1 251,0,0,0,0,0,0,0,0,0,0,0,0,0,0,251,
scooby_state_f2fc80|4|1 250,0,0,0,0,0,0,0,0,0,0,0,1,0,0,251,
scooby_state_f2fc80|63|1 251,0,0,0,0,0,0,0,0,0,0,0,0,0,0,251,
scooby_state_f2fc80|55|1 250,0,0,0,1,0,0,0,0,0,0,0,0,0,0,251,
scooby_state_f2fc80|57|1 250,1,0,0,0,0,0,0,0,0,0,0,0,0,0,251,
scooby_state_f2fc80|13|1 250,0,0,1,0,0,0,0,0,0,0,0,0,0,0,251,
scooby_state_f2fc80|11|1 249,0,0,0,0,0,0,1,0,0,1,0,0,0,0,251,
scooby_state_f2fc80|23|1 249,0,0,0,0,0,0,0,0,1,0,0,0,0,1,251,
scooby_state_f2fc80|24|1 251,0,0,0,0,0,0,0,0,0,0,0,0,0,0,251,
scooby_state_4f9a90|31|1 250,0,0,0,0,0,0,0,0,0,0,0,0,0,0,250,
scooby_state_f2fc80|59|1 250,0,0,0,0,0,0,0,0,0,0,0,0,0,0,250,
scooby_state_f2fc80|17|1 250,0,0,0,0,0,0,0,0,0,0,0,0,0,0,250,
scooby_state_f2fc80|25|1 250,0,0,0,0,0,0,0,0,0,0,0,0,0,0,250,
scooby_state_f2fc80|14|1 249,0,0,0,1,0,0,0,0,0,0,0,0,0,0,250,
scooby_state_f2fc80|28|1 250,0,0,0,0,0,0,0,0,0,0,0,0,0,0,250,
scooby_state_f2fc80|34|1 249,0,0,0,0,0,0,0,0,0,0,0,1,0,0,250,
scooby_state_f2fc80|32|1 250,0,0,0,0,0,0,0,0,0,0,0,0,0,0,250,
scooby_state_f2fc80|41|1 249,0,0,0,1,0,0,0,0,0,0,0,0,0,0,250,
scooby_state_f2fc80|9|1 250,0,0,0,0,0,0,0,0,0,0,0,0,0,0,250,
scooby_state_4f9a90|28|1 250,0,0,0,0,0,0,0,0,0,0,0,0,0,0,250,
scooby_state_4f9a90|29|1 250,0,0,0,0,0,0,0,0,0,0,0,0,0,0,250,
scooby_state_4f9a90|30|1 250,0,0,0,0,0,0,0,0,0,0,0,0,0,0,250,
scooby_state_f2f6e0|57|1 250,0,0,0,0,0,0,0,0,0,0,0,0,0,0,250,
scooby_state_f2f6e0|12|1 250,0,0,0,0,0,0,0,0,0,0,0,0,0,0,250,
scooby_state_f2fc80|51|1 249,0,0,0,0,0,1,0,0,0,0,0,0,0,0,250,
scooby_state_f2fc80|39|1 250,0,0,0,0,0,0,0,0,0,0,0,0,0,0,250,
scooby_state_f2fc80|31|1 250,0,0,0,0,0,0,0,0,0,0,0,0,0,0,250,
scooby_state_f2f6e0|33|1 250,0,0,0,0,0,0,0,0,0,0,0,0,0,0,250,
scooby_state_f2fc80|56|1 250,0,0,0,0,0,0,0,0,0,0,0,0,0,0,250,
scooby_state_f2fc80|52|1 250,0,0,0,0,0,0,0,0,0,0,0,0,0,0,250,
scooby_state_f2fc80|33|1 249,0,0,0,0,0,0,0,0,0,0,1,0,0,0,250,
scooby_state_f2fc80|15|1 250,0,0,0,0,0,0,0,0,0,0,0,0,0,0,250,
scooby_state_4f9a90|26|1 249,0,0,0,0,1,0,0,0,0,0,0,0,0,0,250,
scooby_state_4f9a90|27|1 249,0,0,0,0,0,0,0,0,1,0,0,0,0,0,250,
scooby_state_f2fc80|27|1 249,0,0,0,0,0,0,0,0,0,0,0,0,0,0,249,
scooby_state_f2fc80|5|1 248,1,0,0,0,0,0,0,0,0,0,0,0,0,0,249,
[...]
scooby_state_14039f0|2|0 1,0,0,0,0,0,0,0,0,0,0,0,0,0,0,1,
scooby_state_8f6d04|13|1 1,0,0,0,0,0,0,0,0,0,0,0,0,0,0,1,
scooby_state_1408200|46|1 1,0,0,0,0,0,0,0,0,0,0,0,0,0,0,1,
scooby_state_1403abf|51|-11 1,0,0,0,0,0,0,0,0,0,0,0,0,0,0,1,
scooby_state_8f6d00|25|1 1,0,0,0,0,0,0,0,0,0,0,0,0,0,0,1,
scooby_state_8e3cbf|49|1 1,0,0,0,0,0,0,0,0,0,0,0,0,0,0,1,
scooby_state_1408200|22|1 1,0,0,0,0,0,0,0,0,0,0,0,0,0,0,1,
scooby_state_1403e40|58|6 1,0,0,0,0,0,0,0,0,0,0,0,0,0,0,1,
scooby_state_1404390|52|11 1,0,0,0,0,0,0,0,0,0,0,0,0,0,0,1,
scooby_state_14037f3|2|1 1,0,0,0,0,0,0,0,0,0,0,0,0,0,0,1,
scooby_state_1407b63|21|1 1,0,0,0,0,0,0,0,0,0,0,0,0,0,0,1,
scooby_state_140439e|15|11 1,0,0,0,0,0,0,0,0,0,0,0,0,0,0,1,
scooby_state_8f70b4|31|5 1,0,0,0,0,0,0,0,0,0,0,0,0,0,0,1,
scooby_state_1403e65|10|6 1,0,0,0,0,0,0,0,0,0,0,0,0,0,0,1,
scooby_state_14039f7|21|0 1,0,0,0,0,0,0,0,0,0,0,0,0,0,0,1,
scooby_state_8f6540|21|1 1,0,0,0,0,0,0,0,0,0,0,0,0,0,0,1,
scooby_state_1403294|2|0 1,0,0,0,0,0,0,0,0,0,0,0,0,0,0,1,
scooby_state_8f4000|47|-1 1,0,0,0,0,0,0,0,0,0,0,0,0,0,0,1,
scooby_state_1403e65|12|6 1,0,0,0,0,0,0,0,0,0,0,0,0,0,0,1,
scooby_state_14032a3|23|6 1,0,0,0,0,0,0,0,0,0,0,0,0,0,0,1,
scooby_state_1407e81|58|1 1,0,0,0,0,0,0,0,0,0,0,0,0,0,0,1,
scooby_state_937ad7|27|0 1,0,0,0,0,0,0,0,0,0,0,0,0,0,0,1,
scooby_state_8f73be|59|5 1,0,0,0,0,0,0,0,0,0,0,0,0,0,0,1,
scooby_state_140439e|44|11 1,0,0,0,0,0,0,0,0,0,0,0,0,0,0,1,
scooby_state_1506ac5|43|1 1,0,0,0,0,0,0,0,0,0,0,0,0,0,0,1,
scooby_state_1404399|30|5 1,0,0,0,0,0,0,0,0,0,0,0,0,0,0,1,
scooby_state_8e3ea2|36|1 1,0,0,0,0,0,0,0,0,0,0,0,0,0,0,1,
scooby_state_14040ac|14|0 1,0,0,0,0,0,0,0,0,0,0,0,0,0,0,1,
scooby_state_14049a8|60|1 1,0,0,0,0,0,0,0,0,0,0,0,0,0,0,1,
scooby_state_8e55eb|50|1 1,0,0,0,0,0,0,0,0,0,0,0,0,0,0,1,
scooby_state_1406fe0|16|1 1,0,0,0,0,0,0,0,0,0,0,0,0,0,0,1,
scooby_state_8e55f5|62|0 1,0,0,0,0,0,0,0,0,0,0,0,0,0,0,1,
scooby_state_1411780|30|1 1,0,0,0,0,0,0,0,0,0,0,0,0,0,0,1,
scooby_state_8e263b|26|0 1,0,0,0,0,0,0,0,0,0,0,0,0,0,0,1,
scooby_state_15066c0|27|1 1,0,0,0,0,0,0,0,0,0,0,0,0,0,0,1,
scooby_state_8f73be|39|5 1,0,0,0,0,0,0,0,0,0,0,0,0,0,0,1,
scooby_state_150e6a5|38|2 1,0,0,0,0,0,0,0,0,0,0,0,0,0,0,1,
scooby_state_14108d8|36|0 1,0,0,0,0,0,0,0,0,0,0,0,0,0,0,1,
scooby_state_14108ff|55|6 1,0,0,0,0,0,0,0,0,0,0,0,0,0,0,1,
scooby_state_1506346|13|1 1,0,0,0,0,0,0,0,0,0,0,0,0,0,0,1,
scooby_state_8e3ca5|43|1 1,0,0,0,0,0,0,0,0,0,0,0,0,0,0,1,
scooby_state_8e55eb|55|1 1,0,0,0,0,0,0,0,0,0,0,0,0,0,0,1,
scooby_state_14032b5|23|6 1,0,0,0,0,0,0,0,0,0,0,0,0,0,0,1,
scooby_state_14067a3|43|1 1,0,0,0,0,0,0,0,0,0,0,0,0,0,0,1,
scooby_state_1407b5e|56|1 1,0,0,0,0,0,0,0,0,0,0,0,0,0,0,1,
scooby_state_8f6985|13|1 1,0,0,0,0,0,0,0,0,0,0,0,0,0,0,1,
scooby_state_1406f59|45|-11 1,0,0,0,0,0,0,0,0,0,0,0,0,0,0,1,
scooby_state_1403294|3|0 1,0,0,0,0,0,0,0,0,0,0,0,0,0,0,1,
scooby_state_14076e3|35|6 1,0,0,0,0,0,0,0,0,0,0,0,0,0,0,1,
scooby_state_8dff2a|25|10 1,0,0,0,0,0,0,0,0,0,0,0,0,0,0,1,
scooby_state_8dfcf8|16|0 1,0,0,0,0,0,0,0,0,0,0,0,0,0,0,1,
scooby_state_15d8100|4|4 1,0,0,0,0,0,0,0,0,0,0,0,0,0,0,1,
scooby_state_14126a8|54|1 1,0,0,0,0,0,0,0,0,0,0,0,0,0,0,1,
scooby_state_8e5680|2|0 1,0,0,0,0,0,0,0,0,0,0,0,0,0,0,1,
scooby_state_1411670|62|1 1,0,0,0,0,0,0,0,0,0,0,0,0,0,0,1,
scooby_state_1403e05|61|6 1,0,0,0,0,0,0,0,0,0,0,0,0,0,0,1,
scooby_state_1403e30|29|6 1,0,0,0,0,0,0,0,0,0,0,0,0,0,0,1,
scooby_state_1403e5a|4|0 1,0,0,0,0,0,0,0,0,0,0,0,0,0,0,1,
scooby_state_1403e40|33|6 1,0,0,0,0,0,0,0,0,0,0,0,0,0,0,1,
scooby_state_8e5680|18|0 1,0,0,0,0,0,0,0,0,0,0,0,0,0,0,1,
scooby_state_1403e05|36|6 1,0,0,0,0,0,0,0,0,0,0,0,0,0,0,1,
scooby_state_8e4ece|8|1 1,0,0,0,0,0,0,0,0,0,0,0,0,0,0,1,
scooby_state_f2f754|21|1 1,0,0,0,0,0,0,0,0,0,0,0,0,0,0,1,
scooby_state_14067a3|63|1 1,0,0,0,0,0,0,0,0,0,0,0,0,0,0,1,
scooby_state_8f676e|38|0 1,0,0,0,0,0,0,0,0,0,0,0,0,0,0,1,
scooby_state_14084cc|19|1 1,0,0,0,0,0,0,0,0,0,0,0,0,0,0,1,
scooby_state_141214b|45|1 1,0,0,0,0,0,0,0,0,0,0,0,0,0,0,1,
scooby_state_14067ff|28|1 1,0,0,0,0,0,0,0,0,0,0,0,0,0,0,1,
scooby_state_140680a|14|1 1,0,0,0,0,0,0,0,0,0,0,0,0,0,0,1,
scooby_state_1403294|24|6 1,0,0,0,0,0,0,0,0,0,0,0,0,0,0,1,
scooby_state_14108ca|11|6 1,0,0,0,0,0,0,0,0,0,0,0,0,0,0,1,
scooby_state_14049a8|12|1 1,0,0,0,0,0,0,0,0,0,0,0,0,0,0,1,
scooby_state_140681f|7|1 1,0,0,0,0,0,0,0,0,0,0,0,0,0,0,1,
scooby_state_1404399|38|6 1,0,0,0,0,0,0,0,0,0,0,0,0,0,0,1,
scooby_state_8f6843|33|1 1,0,0,0,0,0,0,0,0,0,0,0,0,0,0,1,
scooby_state_8e3e89|58|1 1,0,0,0,0,0,0,0,0,0,0,0,0,0,0,1,
scooby_state_507740|29|25 1,0,0,0,0,0,0,0,0,0,0,0,0,0,0,1,
scooby_state_14032a3|43|6 1,0,0,0,0,0,0,0,0,0,0,0,0,0,0,1,
scooby_state_1407a78|24|1 1,0,0,0,0,0,0,0,0,0,0,0,0,0,0,1,
scooby_state_8e9ec0|59|1 1,0,0,0,0,0,0,0,0,0,0,0,0,0,0,1,
scooby_state_14076d6|35|6 1,0,0,0,0,0,0,0,0,0,0,0,0,0,0,1,
scooby_state_14067ec|9|1 1,0,0,0,0,0,0,0,0,0,0,0,0,0,0,1,
scooby_state_1669245|1|0 1,0,0,0,0,0,0,0,0,0,0,0,0,0,0,1,
scooby_state_1403294|22|6 1,0,0,0,0,0,0,0,0,0,0,0,0,0,0,1,
scooby_state_1403e5a|54|6 1,0,0,0,0,0,0,0,0,0,0,0,0,0,0,1,
scooby_state_8e3d9f|7|1 1,0,0,0,0,0,0,0,0,0,0,0,0,0,0,1,
scooby_state_8e5d35|44|0 1,0,0,0,0,0,0,0,0,0,0,0,0,0,0,1,
scooby_state_8e3cbf|36|1 1,0,0,0,0,0,0,0,0,0,0,0,0,0,0,1,
scooby_state_14032a3|30|6 1,0,0,0,0,0,0,0,0,0,0,0,0,0,0,1,
scooby_state_8e4a1e|48|1 1,0,0,0,0,0,0,0,0,0,0,0,0,0,0,1,
scooby_state_1403e05|21|6 1,0,0,0,0,0,0,0,0,0,0,0,0,0,0,1,
scooby_state_140680a|55|1 1,0,0,0,0,0,0,0,0,0,0,0,0,0,0,1,
scooby_state_8e4163|56|1 1,0,0,0,0,0,0,0,0,0,0,0,0,0,0,1,
scooby_state_8e5d22|11|1 1,0,0,0,0,0,0,0,0,0,0,0,0,0,0,1,
scooby_state_1506dc0|45|24 1,0,0,0,0,0,0,0,0,0,0,0,0,0,0,1,
scooby_state_14039f7|27|0 1,0,0,0,0,0,0,0,0,0,0,0,0,0,0,1,
scooby_state_14108fa|14|6 1,0,0,0,0,0,0,0,0,0,0,0,0,0,0,1,
scooby_state_1403e5a|40|6 1,0,0,0,0,0,0,0,0,0,0,0,0,0,0,1,
scooby_state_141056f|60|-3 1,0,0,0,0,0,0,0,0,0,0,0,0,0,0,1,
scooby_state_14037f3|45|1 1,0,0,0,0,0,0,0,0,0,0,0,0,0,0,1,
scooby_state_1406523|43|1 1,0,0,0,0,0,0,0,0,0,0,0,0,0,0,1,
scooby_state_b3e842|33|1 1,0,0,0,0,0,0,0,0,0,0,0,0,0,0,1,
scooby_state_8e3cad|36|1 1,0,0,0,0,0,0,0,0,0,0,0,0,0,0,1,
scooby_state_1403e65|11|6 1,0,0,0,0,0,0,0,0,0,0,0,0,0,0,1,
scooby_state_1410904|41|6 1,0,0,0,0,0,0,0,0,0,0,0,0,0,0,1,
scooby_state_8e9c17|62|1 1,0,0,0,0,0,0,0,0,0,0,0,0,0,0,1,
scooby_state_8e55e0|52|1 1,0,0,0,0,0,0,0,0,0,0,0,0,0,0,1,
scooby_state_8fa5a0|11|1 1,0,0,0,0,0,0,0,0,0,0,0,0,0,0,1,
scooby_state_1507cd1|24|-3 1,0,0,0,0,0,0,0,0,0,0,0,0,0,0,1,
scooby_state_1403290|5|0 1,0,0,0,0,0,0,0,0,0,0,0,0,0,0,1,
scooby_state_1406798|6|1 1,0,0,0,0,0,0,0,0,0,0,0,0,0,0,1,
scooby_state_1408170|0|-44 1,0,0,0,0,0,0,0,0,0,0,0,0,0,0,1,
scooby_state_8e4a1e|28|2 1,0,0,0,0,0,0,0,0,0,0,0,0,0,0,1,
scooby_state_1403e5a|46|6 1,0,0,0,0,0,0,0,0,0,0,0,0,0,0,1,
scooby_state_1408170|54|6 1,0,0,0,0,0,0,0,0,0,0,0,0,0,0,1,
scooby_state_8e3e00|56|1 1,0,0,0,0,0,0,0,0,0,0,0,0,0,0,1,
scooby_state_1407071|27|-5 1,0,0,0,0,0,0,0,0,0,0,0,0,0,0,1,
scooby_state_1407067|1|-5 1,0,0,0,0,0,0,0,0,0,0,0,0,0,0,1,
scooby_state_504107|4|0 1,0,0,0,0,0,0,0,0,0,0,0,0,0,0,1,
scooby_state_936df0|49|1 1,0,0,0,0,0,0,0,0,0,0,0,0,0,0,1,
scooby_state_8e55e0|5|1 1,0,0,0,0,0,0,0,0,0,0,0,0,0,0,1,
scooby_state_14039f7|30|0 1,0,0,0,0,0,0,0,0,0,0,0,0,0,0,1,
scooby_state_8e3f82|62|1 1,0,0,0,0,0,0,0,0,0,0,0,0,0,0,1,
scooby_state_1408200|37|1 1,0,0,0,0,0,0,0,0,0,0,0,0,0,0,1,
scooby_state_15076c4|27|1 1,0,0,0,0,0,0,0,0,0,0,0,0,0,0,1,
scooby_state_1403294|63|6 1,0,0,0,0,0,0,0,0,0,0,0,0,0,0,1,
scooby_state_8f6dec|60|1 1,0,0,0,0,0,0,0,0,0,0,0,0,0,0,1,
scooby_state_14110f8|59|1 1,0,0,0,0,0,0,0,0,0,0,0,0,0,0,1,
scooby_state_14067cb|14|1 1,0,0,0,0,0,0,0,0,0,0,0,0,0,0,1,
scooby_state_8df5c1|23|1 1,0,0,0,0,0,0,0,0,0,0,0,0,0,0,1,
scooby_state_1403365|50|1 1,0,0,0,0,0,0,0,0,0,0,0,0,0,0,1,
scooby_state_1407ab9|2|1 1,0,0,0,0,0,0,0,0,0,0,0,0,0,0,1,
scooby_state_14067a3|23|1 1,0,0,0,0,0,0,0,0,0,0,0,0,0,0,1,
scooby_state_1407071|26|-11 1,0,0,0,0,0,0,0,0,0,0,0,0,0,0,1,
scooby_state_1411dd0|63|1 1,0,0,0,0,0,0,0,0,0,0,0,0,0,0,1,
scooby_state_14067a3|48|1 1,0,0,0,0,0,0,0,0,0,0,0,0,0,0,1,
scooby_state_140817a|37|-5 1,0,0,0,0,0,0,0,0,0,0,0,0,0,0,1,
scooby_state_14035fc|23|1 1,0,0,0,0,0,0,0,0,0,0,0,0,0,0,1,
scooby_state_8f6d1c|61|1 1,0,0,0,0,0,0,0,0,0,0,0,0,0,0,1,
scooby_state_1506590|59|-3 1,0,0,0,0,0,0,0,0,0,0,0,0,0,0,1,
scooby_state_14110f8|60|1 1,0,0,0,0,0,0,0,0,0,0,0,0,0,0,1,
scooby_state_14037c0|31|1 1,0,0,0,0,0,0,0,0,0,0,0,0,0,0,1,
scooby_state_14037f0|35|1 1,0,0,0,0,0,0,0,0,0,0,0,0,0,0,1,
scooby_state_14119ff|16|1 1,0,0,0,0,0,0,0,0,0,0,0,0,0,0,1,
scooby_state_1403c42|49|1 1,0,0,0,0,0,0,0,0,0,0,0,0,0,0,1,
scooby_state_8f6dec|61|1 1,0,0,0,0,0,0,0,0,0,0,0,0,0,0,1,
scooby_state_14037f3|50|1 1,0,0,0,0,0,0,0,0,0,0,0,0,0,0,1,
scooby_state_14039f7|44|0 1,0,0,0,0,0,0,0,0,0,0,0,0,0,0,1,
scooby_state_150ed81|18|0 1,0,0,0,0,0,0,0,0,0,0,0,0,0,0,1,
scooby_state_1403630|60|11 1,0,0,0,0,0,0,0,0,0,0,0,0,0,0,1,
scooby_state_14084b0|60|0 1,0,0,0,0,0,0,0,0,0,0,0,0,0,0,1,
scooby_state_14032a3|41|6 1,0,0,0,0,0,0,0,0,0,0,0,0,0,0,1,
scooby_state_1403294|32|6 1,0,0,0,0,0,0,0,0,0,0,0,0,0,0,1,
scooby_state_14043a3|25|6 1,0,0,0,0,0,0,0,0,0,0,0,0,0,0,1,
scooby_state_1406cc1|51|1 1,0,0,0,0,0,0,0,0,0,0,0,0,0,0,1,
scooby_state_8e55eb|9|1 1,0,0,0,0,0,0,0,0,0,0,0,0,0,0,1,
scooby_state_acee82|58|1 1,0,0,0,0,0,0,0,0,0,0,0,0,0,0,1,
scooby_state_8e5653|17|2 1,0,0,0,0,0,0,0,0,0,0,0,0,0,0,1,
scooby_state_ad4144|5|0 0,0,0,1,0,0,0,0,0,0,0,0,0,0,0,1,
scooby_state_1410a10|14|1 1,0,0,0,0,0,0,0,0,0,0,0,0,0,0,1,
scooby_state_50739c|17|6 1,0,0,0,0,0,0,0,0,0,0,0,0,0,0,1,
scooby_state_8ded39|31|0 1,0,0,0,0,0,0,0,0,0,0,0,0,0,0,1,
scooby_state_1406533|32|5 1,0,0,0,0,0,0,0,0,0,0,0,0,0,0,1,
scooby_state_8e3cbf|43|6 1,0,0,0,0,0,0,0,0,0,0,0,0,0,0,1,
scooby_state_8e5441|17|1 1,0,0,0,0,0,0,0,0,0,0,0,0,0,0,1,
scooby_state_8f6e85|58|1 1,0,0,0,0,0,0,0,0,0,0,0,0,0,0,1,
scooby_state_8dfcf8|49|0 1,0,0,0,0,0,0,0,0,0,0,0,0,0,0,1,
scooby_state_140680a|51|1 1,0,0,0,0,0,0,0,0,0,0,0,0,0,0,1,
scooby_state_14067ec|57|1 1,0,0,0,0,0,0,0,0,0,0,0,0,0,0,1,
scooby_state_8f70b4|9|5 1,0,0,0,0,0,0,0,0,0,0,0,0,0,0,1,
scooby_state_14043a3|12|5 1,0,0,0,0,0,0,0,0,0,0,0,0,0,0,1,
scooby_state_1403e65|16|6 1,0,0,0,0,0,0,0,0,0,0,0,0,0,0,1,
scooby_state_8e49c3|39|1 1,0,0,0,0,0,0,0,0,0,0,0,0,0,0,1,
scooby_state_8dff2a|50|10 1,0,0,0,0,0,0,0,0,0,0,0,0,0,0,1,
scooby_state_140682b|63|1 1,0,0,0,0,0,0,0,0,0,0,0,0,0,0,1,
scooby_state_14032af|8|6 1,0,0,0,0,0,0,0,0,0,0,0,0,0,0,1,
scooby_state_8f7343|13|1 1,0,0,0,0,0,0,0,0,0,0,0,0,0,0,1,
scooby_state_14067ec|56|1 1,0,0,0,0,0,0,0,0,0,0,0,0,0,0,1,
scooby_state_1403e16|24|6 1,0,0,0,0,0,0,0,0,0,0,0,0,0,0,1,
scooby_state_936df0|17|1 1,0,0,0,0,0,0,0,0,0,0,0,0,0,0,1,
scooby_state_141214b|13|1 1,0,0,0,0,0,0,0,0,0,0,0,0,0,0,1,
scooby_state_14077c1|31|1 1,0,0,0,0,0,0,0,0,0,0,0,0,0,0,1,
scooby_state_1410567|61|1 1,0,0,0,0,0,0,0,0,0,0,0,0,0,0,1,
scooby_state_8f73b4|4|0 1,0,0,0,0,0,0,0,0,0,0,0,0,0,0,1,
scooby_state_1410904|45|6 1,0,0,0,0,0,0,0,0,0,0,0,0,0,0,1,
scooby_state_1406f7b|59|11 1,0,0,0,0,0,0,0,0,0,0,0,0,0,0,1,
scooby_state_140698c|41|-5 1,0,0,0,0,0,0,0,0,0,0,0,0,0,0,1,
scooby_state_1403e30|20|6 1,0,0,0,0,0,0,0,0,0,0,0,0,0,0,1,
scooby_state_1410904|37|6 1,0,0,0,0,0,0,0,0,0,0,0,0,0,0,1,
scooby_state_14039f0|57|0 1,0,0,0,0,0,0,0,0,0,0,0,0,0,0,1,
scooby_state_937020|47|5 1,0,0,0,0,0,0,0,0,0,0,0,0,0,0,1,
scooby_state_14115ed|54|6 1,0,0,0,0,0,0,0,0,0,0,0,0,0,0,1,
scooby_state_1403e05|16|6 1,0,0,0,0,0,0,0,0,0,0,0,0,0,0,1,
scooby_state_1411079|16|6 1,0,0,0,0,0,0,0,0,0,0,0,0,0,0,1,
scooby_state_8f70b4|6|5 1,0,0,0,0,0,0,0,0,0,0,0,0,0,0,1,
scooby_state_4f97b6|33|6 1,0,0,0,0,0,0,0,0,0,0,0,0,0,0,1,
scooby_state_150ed97|42|0 1,0,0,0,0,0,0,0,0,0,0,0,0,0,0,1,
scooby_state_1411000|0|0 1,0,0,0,0,0,0,0,0,0,0,0,0,0,0,1,
scooby_state_1410904|53|6 1,0,0,0,0,0,0,0,0,0,0,0,0,0,0,1,
scooby_state_8fa330|12|0 1,0,0,0,0,0,0,0,0,0,0,0,0,0,0,1,
scooby_state_8f7180|30|-1 1,0,0,0,0,0,0,0,0,0,0,0,0,0,0,1,
scooby_state_1406ba0|46|3 1,0,0,0,0,0,0,0,0,0,0,0,0,0,0,1,
scooby_state_1406bf0|54|2 1,0,0,0,0,0,0,0,0,0,0,0,0,0,0,1,
scooby_state_14044db|61|0 1,0,0,0,0,0,0,0,0,0,0,0,0,0,0,1,
scooby_state_937020|4|-27 1,0,0,0,0,0,0,0,0,0,0,0,0,0,0,1,
scooby_state_150e086|2|-1 1,0,0,0,0,0,0,0,0,0,0,0,0,0,0,1,
scooby_state_14108fa|22|6 1,0,0,0,0,0,0,0,0,0,0,0,0,0,0,1,
scooby_state_1507706|28|1 0,0,0,1,0,0,0,0,0,0,0,0,0,0,0,1,
scooby_state_1403634|53|10 1,0,0,0,0,0,0,0,0,0,0,0,0,0,0,1,
scooby_state_8f70b4|36|5 1,0,0,0,0,0,0,0,0,0,0,0,0,0,0,1,
scooby_state_1403e65|8|6 1,0,0,0,0,0,0,0,0,0,0,0,0,0,0,1,
scooby_state_1507946|37|1 1,0,0,0,0,0,0,0,0,0,0,0,0,0,0,1,
scooby_state_1403290|25|6 1,0,0,0,0,0,0,0,0,0,0,0,0,0,0,1,
scooby_state_508899|26|10 1,0,0,0,0,0,0,0,0,0,0,0,0,0,0,1,
scooby_state_14064fa|51|6 1,0,0,0,0,0,0,0,0,0,0,0,0,0,0,1,
scooby_state_14049a8|59|1 1,0,0,0,0,0,0,0,0,0,0,0,0,0,0,1,
scooby_state_8f70bd|13|6 1,0,0,0,0,0,0,0,0,0,0,0,0,0,0,1,
scooby_state_1407670|32|-31 1,0,0,0,0,0,0,0,0,0,0,0,0,0,0,1,

scooby_action_0_deg_dist 0,175,0,0,0,0,0,0,0,0,0,0,0,0,0,0,
scooby_action_12_deg_dist 0,348,27,0,30,0,0,0,0,0,0,0,0,0,0,0,
scooby_action_3_deg_dist 0,709,40,0,39,0,4,0,0,0,0,0,0,0,0,0,
scooby_action_32_deg_dist 0,286,0,0,0,0,0,0,0,0,0,0,0,0,0,0,
scooby_action_5_deg_dist 0,49587,6692,0,5991,0,2199,0,0,0,0,0,0,0,0,0,
scooby_action_1_deg_dist 0,42715,24155,0,56803,0,745579,0,0,0,0,0,0,0,0,0,
scooby_action_30_deg_dist 0,269,43,0,13,0,0,0,0,0,0,0,0,0,0,0,
scooby_action_4_deg_dist 0,509,42,0,42,0,2,0,0,0,0,0,0,0,0,0,
scooby_action_-3_deg_dist 0,169,0,0,0,0,0,0,0,0,0,0,0,0,0,0,
scooby_action_10_deg_dist 0,1280,22,0,31,0,0,0,0,0,0,0,0,0,0,0,
scooby_action_-1_deg_dist 0,115,0,0,0,0,0,0,0,0,0,0,0,0,0,0,
scooby_action_23_deg_dist 0,207,0,0,0,0,0,0,0,0,0,0,0,0,0,0,
scooby_action_-6_deg_dist 0,97,0,0,0,0,0,0,0,0,0,0,0,0,0,0,
scooby_action_11_deg_dist 0,1015,391,0,957,0,179,0,0,0,0,0,0,0,0,0,
scooby_action_22_deg_dist 0,123,0,0,0,0,0,0,0,0,0,0,0,0,0,0,

scooby_track_called 940885
scooby_track_same_address 2126
scooby_track_evict 938503

scooby_reward_demand_called 940885
scooby_reward_demand_pt_not_found 63809
scooby_reward_demand_pt_found 877076
scooby_reward_demand_pt_found_total 877076
scooby_reward_demand_has_reward 58
scooby_reward_train_called 41202
scooby_reward_assign_reward_called 938748
scooby_reward_no_pref 175
scooby_reward_incorrect 41027
scooby_reward_correct_untimely 806210
scooby_reward_correct_timely 70808
scooby_reward_out_of_bounds 20528
scooby_reward_tracker_hit 0

scooby_reward_none_low_bw 175
scooby_reward_none_high_bw 0
scooby_reward_incorrect_low_bw 41027
scooby_reward_incorrect_high_bw 0
scooby_reward_correct_untimely_low_bw 806210
scooby_reward_correct_untimely_high_bw 0
scooby_reward_correct_timely_low_bw 70808
scooby_reward_correct_timely_high_bw 0
scooby_reward_out_of_bounds_low_bw 20528
scooby_reward_out_of_bounds_high_bw 0
scooby_reward_tracker_hit_low_bw 0
scooby_reward_tracker_hit_high_bw 0

scooby_reward_1 0,27023,776562,49885,14227,0,
scooby_reward_3 0,644,89,17,36,0,
scooby_reward_4 0,454,73,19,46,0,
scooby_reward_5 0,10524,29208,19384,5051,0,
scooby_reward_10 0,657,39,428,209,0,
scooby_reward_11 0,1123,114,864,439,0,
scooby_reward_12 0,248,26,61,70,0,
scooby_reward_22 0,18,21,47,37,0,
scooby_reward_23 0,70,15,40,81,0,
scooby_reward_30 0,109,13,37,166,0,
scooby_reward_32 0,99,9,25,153,0,
scooby_reward_-1 0,14,0,0,1,0,
scooby_reward_-3 0,29,41,1,3,0,
scooby_reward_-6 0,15,0,0,9,0,
scooby_reward_0 175,0,0,0,0,0,

scooby_train_called 938502
scooby_train_compute_reward 41202

scooby_register_fill_called 676521
scooby_register_fill_set 90545
scooby_register_fill_set_total 90545

scooby_register_prefetch_hit_called 3227822
scooby_register_prefetch_hit_set 817618
scooby_register_prefetch_hit_set_total 817618

scooby_pref_issue_scooby 4585736

learning_engine_featurewise.action.called 940885
learning_engine_featurewise.action.explore 1726
learning_engine_featurewise.action.exploit 939159
learning_engine_featurewise.action.fallback 0
learning_engine_featurewise.action.dyn_fallback_saved_bw 0
learning_engine_featurewise.action.dyn_fallback_saved_bw_acc 1954
learning_engine_featurewise.action.index_1_explored 118
learning_engine_featurewise.action.index_1_exploited 869134
learning_engine_featurewise.action.index_3_explored 123
learning_engine_featurewise.action.index_3_exploited 669
learning_engine_featurewise.action.index_4_explored 111
learning_engine_featurewise.action.index_4_exploited 484
learning_engine_featurewise.action.index_5_explored 112
learning_engine_featurewise.action.index_5_exploited 64357
learning_engine_featurewise.action.index_10_explored 125
learning_engine_featurewise.action.index_10_exploited 1208
learning_engine_featurewise.action.index_11_explored 110
learning_engine_featurewise.action.index_11_exploited 2432
learning_engine_featurewise.action.index_12_explored 117
learning_engine_featurewise.action.index_12_exploited 288
learning_engine_featurewise.action.index_22_explored 122
learning_engine_featurewise.action.index_22_exploited 1
learning_engine_featurewise.action.index_23_explored 122
learning_engine_featurewise.action.index_23_exploited 85
learning_engine_featurewise.action.index_30_explored 127
learning_engine_featurewise.action.index_30_exploited 198
learning_engine_featurewise.action.index_32_explored 98
learning_engine_featurewise.action.index_32_exploited 188
learning_engine_featurewise.action.index_-1_explored 114
learning_engine_featurewise.action.index_-1_exploited 1
learning_engine_featurewise.action.index_-3_explored 113
learning_engine_featurewise.action.index_-3_exploited 56
learning_engine_featurewise.action.index_-6_explored 97
learning_engine_featurewise.action.index_-6_exploited 0
learning_engine_featurewise.action.index_0_explored 117
learning_engine_featurewise.action.index_0_exploited 58
learning_engine_featurewise.learn.called 938502
learning_engine_featurewise.learn.su_skip_PC 0
learning_engine_featurewise.learn.su_skip_PC_Delta 0

learning_engine_featurewise.q_value_histogram.bucket_0 0
learning_engine_featurewise.q_value_histogram.bucket_1 0
learning_engine_featurewise.q_value_histogram.bucket_2 0
learning_engine_featurewise.q_value_histogram.bucket_3 0
learning_engine_featurewise.q_value_histogram.bucket_4 7892
learning_engine_featurewise.q_value_histogram.bucket_5 12061
learning_engine_featurewise.q_value_histogram.bucket_6 919206
learning_engine_featurewise.q_value_histogram.bucket_7 0

learning_engine_featurewise.consensus.total 939159
learning_engine_featurewise.consensus.feature_align_PC 931044
learning_engine_featurewise.consensus.feature_align_PC_ratio 0.99
learning_engine_featurewise.consensus.feature_align_PC_Delta 933649
learning_engine_featurewise.consensus.feature_align_PC_Delta_ratio 0.99
learning_engine_featurewise.consensus.feature_align_all 925534
learning_engine_featurewise.consensus.feature_align_all_ratio 0.99

learning_engine_featurewise.feature_PC_min_weight 1000000.00000000
learning_engine_featurewise.feature_PC_max_weight 0.00000000
learning_engine_featurewise.feature_PC_Delta_min_weight 1000000.00000000
learning_engine_featurewise.feature_PC_Delta_max_weight 0.00000000
unique_pcs 3228
unique_pages 4494
unique_trigger_pcs 747
total_bitmaps_seen 0
unique_bitmaps_seen 0

scooby_bw_epochs 162013
scooby_bw_level_0 130776
scooby_bw_level_1 18141
scooby_bw_level_2 9735
scooby_bw_level_3 3361

scooby_ipc_epochs 0
scooby_ipc_level_0 0
scooby_ipc_level_1 0
scooby_ipc_level_2 0
scooby_ipc_level_3 0

scooby_cache_acc_epochs 40203
scooby_cache_acc_level_0 3075
scooby_cache_acc_level_1 94
scooby_cache_acc_level_2 118
scooby_cache_acc_level_3 119
scooby_cache_acc_level_4 139
scooby_cache_acc_level_5 250
scooby_cache_acc_level_6 482
scooby_cache_acc_level_7 1486
scooby_cache_acc_level_8 4769
scooby_cache_acc_level_9 29671

Channel_0_RQ_row_buffer_hit 82367
Channel_0_RQ_row_buffer_miss 186163
Channel_0_WQ_row_buffer_hit 36380
Channel_0_WQ_row_buffer_miss 108089
Channel_0_WQ_full 0
Channel_0_dbus_congested 220528

avg_congested_cycle 11

DRAM_bw_pochs 162013
DRAM_bw_level_0 130776
DRAM_bw_level_1 18141
DRAM_bw_level_2 9735
DRAM_bw_level_3 3361
