*************************************************
   ChampSim Multicore Out-of-Order Simulator
   Last compiled: Apr  3 2025 20:54:34
*************************************************
parsing config file: /home/zir/Pythia/config/pythia.ini

trace_0 /home/zir/ChampSim/ML-DPC/ChampSimTraces/spec17/605.mcf-s8.trace.xz
adding L2C_PREFETCHER: Scooby
Initialize SHIP state
warmup_instructions 10000000
simulation_instructions 50000000
champsim_seed 171
measure_ipc 0
measure_ipc_epoch 1000
measure_dram_bw 1
measure_dram_bw_epoch 256
measure_cache_acc 1
measure_cache_acc_epoch 1024
l1d_perfect 0
l2c_perfect 0
llc_perfect 0
l1d_semi_perfect 0
l2c_semi_perfect 0
llc_semi_perfect 0
semi_perfect_cache_page_buffer_size 64

num_cpus 1
cpu_freq 4000
dram_io_freq 2400
page_size 4096
block_size 64
max_read_per_cycle 8
max_fill_per_cycle 1
dram_channels 1
log2_dram_channels 0
dram_ranks 1
dram_banks 8
dram_rows 65536
dram_columns 128
dram_row_size 8
dram_size 4096
dram_pages 1048576

fetch_width 6
decode_width 6
exec_width 4
lq_width 2
sq_width 2
retire_width 4
scheduler_size 128
branch_mispredict_penalty 20
rob_size 256
lq_size 72
sq_size 56
num_instr_destinations_sparc 4
num_instr_destinations 2
num_instr_sources 4

itlb_set 16
itlb_way 8
itlb_rq_size 16
itlb_wq_size 16
itlb_pq_size 0
itlb_mshr_size 8
itlb_latency 1

dtlb_set 16
dtlb_way 4
dtlb_rq_size 16
dtlb_wq_size 16
dtlb_pq_size 0
dtlb_mshr_size 8
dtlb_latency 1

stlb_set 128
stlb_way 12
stlb_rq_size 32
stlb_wq_size 32
stlb_pq_size 0
stlb_mshr_size 16
stlb_latency 8

l1i_size 32
l1i_set 64
l1i_way 8
l1i_rq_size 64
l1i_wq_size 64
l1i_pq_size 8
l1i_mshr_size 8
l1i_latency 1

l1d_size 32
l1d_set 64
l1d_way 8
l1d_rq_size 64
l1d_wq_size 64
l1d_pq_size 8
l1d_mshr_size 16
l1d_latency 4

l2c_size 256
l2c_set 512
l2c_way 8
l2c_rq_size 32
l2c_wq_size 32
l2c_pq_size 32
l2c_mshr_size 32
l2c_latency 10

llc_size 2048
llc_set 2048
llc_way 16
llc_rq_size 32
llc_wq_size 32
llc_pq_size 32
llc_mshr_size 64
llc_latency 20

dram_channel_width 8
dram_wq_size 64
dram_rq_size 64
tRP 15
tRCD 15
tCAS 12.5
dram_dbus_turn_around_time 30
dram_write_high_wm 56
dram_write_low_wm 48
min_dram_writes_per_switch 16
dram_mtps 2400
dram_dbus_return_time 13

scooby_alpha 0.0065088
scooby_gamma 0.556301
scooby_epsilon 0.00182284
scooby_state_num_bits 10
scooby_max_states 1024
scooby_seed 200
scooby_policy EGreedy
scooby_learning_type SARSA
scooby_actions 1,3,4,5,10,11,12,22,23,30,32,-1,-3,-6,0,
scooby_max_actions 15
scooby_pt_size 256
scooby_st_size 64
scooby_max_pcs 5
scooby_max_offsets 5
scooby_max_deltas 5
scooby_reward_none -4
scooby_reward_incorrect -8
scooby_reward_correct_untimely 12
scooby_reward_correct_timely 20
scooby_brain_zero_init 0
scooby_enable_reward_all 0
scooby_enable_track_multiple 0
scooby_enable_reward_out_of_bounds 1
scooby_reward_out_of_bounds -12
scooby_state_type 1
scooby_state_hash_type 11
scooby_access_debug 0
scooby_print_access_debug 0
scooby_print_access_debug_pc deadbeef
scooby_print_access_debug_pc_count 0
scooby_print_trace 0
scooby_enable_state_action_stats 1
scooby_enable_reward_tracker_hit 0
scooby_reward_tracker_hit -2
scooby_enable_featurewise_engine 1
scooby_pref_degree 1
scooby_enable_dyn_degree 1
scooby_max_to_avg_q_thresholds 0.5,1,2,
scooby_dyn_degrees 1,2,4,4,
scooby_multi_deg_select_type 2
scooby_last_pref_offset_conf_thresholds 1,3,8,
scooby_dyn_degrees_type2 1,2,4,6,
scooby_action_tracker_size 2
scooby_high_bw_thresh 4
scooby_enable_hbw_reward 1
scooby_reward_hbw_correct_timely 20
scooby_reward_hbw_correct_untimely 12
scooby_reward_hbw_incorrect -14
scooby_reward_hbw_none -2
scooby_reward_hbw_out_of_bounds -12
scooby_reward_hbw_tracker_hit -2
scooby_last_pref_offset_conf_thresholds_hbw 1,3,8,
scooby_dyn_degrees_type2_hbw 1,2,4,6,

le_enable_trace 0
le_trace_interval 0
le_trace_file_name 
le_trace_state 0
le_enable_score_plot 0
le_plot_file_name 
le_plot_actions 
le_enable_action_trace 0
le_action_trace_interval 0
le_action_trace_name 
le_enable_action_plot 0

le_featurewise_active_features PC, PC_Delta
le_featurewise_num_tilings 3,3,
le_featurewise_num_tiles 128,128,
le_featurewise_hash_types 2,2,
le_featurewise_enable_tiling_offset 1,1,
le_featurewise_max_q_thresh 0.5
le_featurewise_enable_action_fallback 1
le_featurewise_feature_weights 1,1,
le_featurewise_enable_dynamic_weight 0
le_featurewise_weight_gradient 0.001
le_featurewise_disable_adjust_weight_all_features_align 1
le_featurewise_selective_update 0
le_featurewise_pooling_type 2
le_featurewise_enable_dyn_action_fallback 1
le_featurewise_bw_acc_check_level 1
le_featurewise_acc_thresh 2
le_featurewise_enable_trace 0
le_featurewise_trace_feature_type 0
le_featurewise_trace_feature 
le_featurewise_trace_interval 0
le_featurewise_trace_record_count 0
le_featurewise_trace_file_name 
le_featurewise_enable_score_plot 0
le_featurewise_plot_actions 
le_featurewise_plot_file_name 


Heartbeat CPU  0 instructions:    1000003 cycles:     794212 heartbeat IPC: 1.25911 cumulative IPC: 1.25911 (Simulation time: 0 hr 0 min 1 sec) 
Heartbeat CPU  0 instructions:    2000000 cycles:    1581962 heartbeat IPC: 1.26943 cumulative IPC: 1.26425 (Simulation time: 0 hr 0 min 3 sec) 
Heartbeat CPU  0 instructions:    3000003 cycles:    2363347 heartbeat IPC: 1.27978 cumulative IPC: 1.26939 (Simulation time: 0 hr 0 min 4 sec) 
Heartbeat CPU  0 instructions:    4000000 cycles:    3129337 heartbeat IPC: 1.30550 cumulative IPC: 1.27823 (Simulation time: 0 hr 0 min 6 sec) 
Heartbeat CPU  0 instructions:    5000003 cycles:    3951101 heartbeat IPC: 1.21690 cumulative IPC: 1.26547 (Simulation time: 0 hr 0 min 8 sec) 
Heartbeat CPU  0 instructions:    6000000 cycles:    4725256 heartbeat IPC: 1.29173 cumulative IPC: 1.26977 (Simulation time: 0 hr 0 min 9 sec) 
Heartbeat CPU  0 instructions:    7000000 cycles:    5533651 heartbeat IPC: 1.23702 cumulative IPC: 1.26499 (Simulation time: 0 hr 0 min 11 sec) 
Heartbeat CPU  0 instructions:    8000000 cycles:    6319260 heartbeat IPC: 1.27290 cumulative IPC: 1.26597 (Simulation time: 0 hr 0 min 12 sec) 
Heartbeat CPU  0 instructions:    9000001 cycles:    7106425 heartbeat IPC: 1.27038 cumulative IPC: 1.26646 (Simulation time: 0 hr 0 min 13 sec) 
Heartbeat CPU  0 instructions:   10000000 cycles:    7886870 heartbeat IPC: 1.28132 cumulative IPC: 1.26793 (Simulation time: 0 hr 0 min 15 sec) 

Warmup complete CPU  0 instructions:   10000004 cycles:    7886871 (Simulation time: 0 hr 0 min 15 sec) 

Heartbeat CPU  0 instructions:   11000003 cycles:   10302382 heartbeat IPC: 0.41399 cumulative IPC: 0.41399 (Simulation time: 0 hr 0 min 17 sec) 
Heartbeat CPU  0 instructions:   12000000 cycles:   17873917 heartbeat IPC: 0.13207 cumulative IPC: 0.20026 (Simulation time: 0 hr 0 min 20 sec) 
Heartbeat CPU  0 instructions:   13000000 cycles:   23934493 heartbeat IPC: 0.16500 cumulative IPC: 0.18694 (Simulation time: 0 hr 0 min 23 sec) 
Heartbeat CPU  0 instructions:   14000001 cycles:   26097909 heartbeat IPC: 0.46223 cumulative IPC: 0.21965 (Simulation time: 0 hr 0 min 24 sec) 
Heartbeat CPU  0 instructions:   15000000 cycles:   28845380 heartbeat IPC: 0.36397 cumulative IPC: 0.23857 (Simulation time: 0 hr 0 min 26 sec) 
Heartbeat CPU  0 instructions:   16000000 cycles:   31101122 heartbeat IPC: 0.44331 cumulative IPC: 0.25846 (Simulation time: 0 hr 0 min 28 sec) 
Heartbeat CPU  0 instructions:   17000000 cycles:   34626832 heartbeat IPC: 0.28363 cumulative IPC: 0.26178 (Simulation time: 0 hr 0 min 30 sec) 
Heartbeat CPU  0 instructions:   18000001 cycles:   37267940 heartbeat IPC: 0.37863 cumulative IPC: 0.27228 (Simulation time: 0 hr 0 min 32 sec) 
Heartbeat CPU  0 instructions:   19000001 cycles:   40128091 heartbeat IPC: 0.34963 cumulative IPC: 0.27915 (Simulation time: 0 hr 0 min 34 sec) 
Heartbeat CPU  0 instructions:   20000000 cycles:   45252675 heartbeat IPC: 0.19514 cumulative IPC: 0.26762 (Simulation time: 0 hr 0 min 37 sec) 
Heartbeat CPU  0 instructions:   21000000 cycles:   47454870 heartbeat IPC: 0.45409 cumulative IPC: 0.27800 (Simulation time: 0 hr 0 min 39 sec) 
Heartbeat CPU  0 instructions:   22000001 cycles:   50340131 heartbeat IPC: 0.34659 cumulative IPC: 0.28266 (Simulation time: 0 hr 0 min 41 sec) 
Heartbeat CPU  0 instructions:   23000001 cycles:   52621850 heartbeat IPC: 0.43827 cumulative IPC: 0.29060 (Simulation time: 0 hr 0 min 43 sec) 
Heartbeat CPU  0 instructions:   24000000 cycles:   55441996 heartbeat IPC: 0.35459 cumulative IPC: 0.29440 (Simulation time: 0 hr 0 min 45 sec) 
Heartbeat CPU  0 instructions:   25000001 cycles:   60714928 heartbeat IPC: 0.18965 cumulative IPC: 0.28394 (Simulation time: 0 hr 0 min 47 sec) 
Heartbeat CPU  0 instructions:   26000002 cycles:   69131254 heartbeat IPC: 0.11882 cumulative IPC: 0.26125 (Simulation time: 0 hr 0 min 50 sec) 
Heartbeat CPU  0 instructions:   27000000 cycles:   72647150 heartbeat IPC: 0.28442 cumulative IPC: 0.26251 (Simulation time: 0 hr 0 min 53 sec) 
Heartbeat CPU  0 instructions:   28000000 cycles:   75297025 heartbeat IPC: 0.37738 cumulative IPC: 0.26702 (Simulation time: 0 hr 0 min 55 sec) 
Heartbeat CPU  0 instructions:   29000001 cycles:   77430023 heartbeat IPC: 0.46882 cumulative IPC: 0.27321 (Simulation time: 0 hr 0 min 56 sec) 
Heartbeat CPU  0 instructions:   30000002 cycles:   81863659 heartbeat IPC: 0.22555 cumulative IPC: 0.27036 (Simulation time: 0 hr 0 min 59 sec) 
Heartbeat CPU  0 instructions:   31000000 cycles:   84125886 heartbeat IPC: 0.44204 cumulative IPC: 0.27545 (Simulation time: 0 hr 1 min 1 sec) 
Heartbeat CPU  0 instructions:   32000000 cycles:   87008461 heartbeat IPC: 0.34691 cumulative IPC: 0.27805 (Simulation time: 0 hr 1 min 3 sec) 
Heartbeat CPU  0 instructions:   33000000 cycles:   89377009 heartbeat IPC: 0.42220 cumulative IPC: 0.28224 (Simulation time: 0 hr 1 min 5 sec) 
Heartbeat CPU  0 instructions:   34000000 cycles:   93298646 heartbeat IPC: 0.25500 cumulative IPC: 0.28099 (Simulation time: 0 hr 1 min 7 sec) 
Heartbeat CPU  0 instructions:   35000001 cycles:   99677565 heartbeat IPC: 0.15677 cumulative IPC: 0.27236 (Simulation time: 0 hr 1 min 10 sec) 
Heartbeat CPU  0 instructions:   36000000 cycles:  102013301 heartbeat IPC: 0.42813 cumulative IPC: 0.27622 (Simulation time: 0 hr 1 min 12 sec) 
Heartbeat CPU  0 instructions:   37000001 cycles:  104855723 heartbeat IPC: 0.35181 cumulative IPC: 0.27844 (Simulation time: 0 hr 1 min 14 sec) 
Heartbeat CPU  0 instructions:   38000001 cycles:  110057195 heartbeat IPC: 0.19225 cumulative IPC: 0.27405 (Simulation time: 0 hr 1 min 16 sec) 
Heartbeat CPU  0 instructions:   39000000 cycles:  113210162 heartbeat IPC: 0.31716 cumulative IPC: 0.27534 (Simulation time: 0 hr 1 min 18 sec) 
Heartbeat CPU  0 instructions:   40000000 cycles:  115833712 heartbeat IPC: 0.38116 cumulative IPC: 0.27791 (Simulation time: 0 hr 1 min 20 sec) 
Heartbeat CPU  0 instructions:   41000000 cycles:  117962140 heartbeat IPC: 0.46983 cumulative IPC: 0.28163 (Simulation time: 0 hr 1 min 22 sec) 
Heartbeat CPU  0 instructions:   42000000 cycles:  121586437 heartbeat IPC: 0.27592 cumulative IPC: 0.28144 (Simulation time: 0 hr 1 min 25 sec) 
Heartbeat CPU  0 instructions:   43000001 cycles:  123797879 heartbeat IPC: 0.45219 cumulative IPC: 0.28470 (Simulation time: 0 hr 1 min 26 sec) 
Heartbeat CPU  0 instructions:   44000000 cycles:  133688621 heartbeat IPC: 0.10110 cumulative IPC: 0.27027 (Simulation time: 0 hr 1 min 30 sec) 
Heartbeat CPU  0 instructions:   45000001 cycles:  143299849 heartbeat IPC: 0.10405 cumulative IPC: 0.25847 (Simulation time: 0 hr 1 min 33 sec) 
Heartbeat CPU  0 instructions:   46000000 cycles:  152890981 heartbeat IPC: 0.10426 cumulative IPC: 0.24827 (Simulation time: 0 hr 1 min 37 sec) 
Heartbeat CPU  0 instructions:   47000002 cycles:  162350012 heartbeat IPC: 0.10572 cumulative IPC: 0.23954 (Simulation time: 0 hr 1 min 40 sec) 
Heartbeat CPU  0 instructions:   48000000 cycles:  172862195 heartbeat IPC: 0.09513 cumulative IPC: 0.23034 (Simulation time: 0 hr 1 min 44 sec) 
Heartbeat CPU  0 instructions:   49000000 cycles:  183405921 heartbeat IPC: 0.09484 cumulative IPC: 0.22220 (Simulation time: 0 hr 1 min 47 sec) 
Heartbeat CPU  0 instructions:   50000000 cycles:  193816642 heartbeat IPC: 0.09605 cumulative IPC: 0.21513 (Simulation time: 0 hr 1 min 51 sec) 
Heartbeat CPU  0 instructions:   51000001 cycles:  204472125 heartbeat IPC: 0.09385 cumulative IPC: 0.20856 (Simulation time: 0 hr 1 min 54 sec) 
Heartbeat CPU  0 instructions:   52000000 cycles:  213341024 heartbeat IPC: 0.11275 cumulative IPC: 0.20443 (Simulation time: 0 hr 1 min 58 sec) 
Heartbeat CPU  0 instructions:   53000001 cycles:  217072505 heartbeat IPC: 0.26799 cumulative IPC: 0.20556 (Simulation time: 0 hr 2 min 0 sec) 
Heartbeat CPU  0 instructions:   54000003 cycles:  219418652 heartbeat IPC: 0.42623 cumulative IPC: 0.20801 (Simulation time: 0 hr 2 min 2 sec) 
Heartbeat CPU  0 instructions:   55000002 cycles:  222225835 heartbeat IPC: 0.35623 cumulative IPC: 0.20995 (Simulation time: 0 hr 2 min 4 sec) 
Heartbeat CPU  0 instructions:   56000000 cycles:  224379643 heartbeat IPC: 0.46429 cumulative IPC: 0.21248 (Simulation time: 0 hr 2 min 5 sec) 
Heartbeat CPU  0 instructions:   57000000 cycles:  229251698 heartbeat IPC: 0.20525 cumulative IPC: 0.21232 (Simulation time: 0 hr 2 min 8 sec) 
Heartbeat CPU  0 instructions:   58000001 cycles:  231822042 heartbeat IPC: 0.38905 cumulative IPC: 0.21435 (Simulation time: 0 hr 2 min 10 sec) 
Heartbeat CPU  0 instructions:   59000003 cycles:  234157970 heartbeat IPC: 0.42810 cumulative IPC: 0.21655 (Simulation time: 0 hr 2 min 12 sec) 
Heartbeat CPU  0 instructions:   60000000 cycles:  237210846 heartbeat IPC: 0.32756 cumulative IPC: 0.21803 (Simulation time: 0 hr 2 min 14 sec) 
Finished CPU 0 instructions: 50000000 cycles: 229323988 cumulative IPC: 0.21803 (Simulation time: 0 hr 2 min 14 sec) 

ChampSim completed all CPUs

[ROI Statistics]
Core_0_instructions 50000000
Core_0_cycles 229323988
Core_0_IPC 0.21803

Core_0_branch_prediction_accuracy 92.30944
Core_0_branch_MPKI 14.38510
Core_0_average_ROB_occupancy_at_mispredict 67.19348

Core_0_L1D_total_access 20469800
Core_0_L1D_total_hit 18622315
Core_0_L1D_total_miss 1847485
Core_0_L1D_loads 15398660
Core_0_L1D_load_hit 13568155
Core_0_L1D_load_miss 1830505
Core_0_L1D_RFOs 5071140
Core_0_L1D_RFO_hit 5054160
Core_0_L1D_RFO_miss 16980
Core_0_L1D_prefetches 0
Core_0_L1D_prefetch_hit 0
Core_0_L1D_prefetch_miss 0
Core_0_L1D_writebacks 0
Core_0_L1D_writeback_hit 0
Core_0_L1D_writeback_miss 0
Core_0_L1D_prefetch_requested 0
Core_0_L1D_prefetch_dropped 0
Core_0_L1D_prefetch_issued 0
Core_0_L1D_prefetch_filled 0
Core_0_L1D_prefetch_useful 0
Core_0_L1D_prefetch_useless 0
Core_0_L1D_prefetch_late 0
Core_0_L1D_average_miss_latency 124.34288

Core_0_L1D_rq_access 16969049
Core_0_L1D_rq_forward 0
Core_0_L1D_rq_merged 1484836
Core_0_L1D_rq_to_cache 15467133
Core_0_L1D_rq_full 0

Core_0_L1D_wq_access 5114926
Core_0_L1D_wq_forward 17080
Core_0_L1D_wq_merged 6342
Core_0_L1D_wq_to_cache 5108584
Core_0_L1D_wq_full 0

Core_0_L1D_pq_access 0
Core_0_L1D_pq_forward 0
Core_0_L1D_pq_merged 0
Core_0_L1D_pq_to_cache 0
Core_0_L1D_pq_full 0

Core_0_L1D_acc_epochs 195658
Core_0_L1D_acc_level_0 195658
Core_0_L1D_acc_level_1 0
Core_0_L1D_acc_level_2 0
Core_0_L1D_acc_level_3 0
Core_0_L1D_acc_level_4 0
Core_0_L1D_acc_level_5 0
Core_0_L1D_acc_level_6 0
Core_0_L1D_acc_level_7 0
Core_0_L1D_acc_level_8 0
Core_0_L1D_acc_level_9 0

Core_0_L1I_total_access 9816290
Core_0_L1I_total_hit 9816290
Core_0_L1I_total_miss 0
Core_0_L1I_loads 9816290
Core_0_L1I_load_hit 9816290
Core_0_L1I_load_miss 0
Core_0_L1I_RFOs 0
Core_0_L1I_RFO_hit 0
Core_0_L1I_RFO_miss 0
Core_0_L1I_prefetches 0
Core_0_L1I_prefetch_hit 0
Core_0_L1I_prefetch_miss 0
Core_0_L1I_writebacks 0
Core_0_L1I_writeback_hit 0
Core_0_L1I_writeback_miss 0
Core_0_L1I_prefetch_requested 0
Core_0_L1I_prefetch_dropped 0
Core_0_L1I_prefetch_issued 0
Core_0_L1I_prefetch_filled 0
Core_0_L1I_prefetch_useful 0
Core_0_L1I_prefetch_useless 0
Core_0_L1I_prefetch_late 0
Core_0_L1I_average_miss_latency -nan

Core_0_L1I_rq_access 49999967
Core_0_L1I_rq_forward 0
Core_0_L1I_rq_merged 40183677
Core_0_L1I_rq_to_cache 9816290
Core_0_L1I_rq_full 0

Core_0_L1I_wq_access 0
Core_0_L1I_wq_forward 0
Core_0_L1I_wq_merged 0
Core_0_L1I_wq_to_cache 0
Core_0_L1I_wq_full 0

Core_0_L1I_pq_access 0
Core_0_L1I_pq_forward 0
Core_0_L1I_pq_merged 0
Core_0_L1I_pq_to_cache 0
Core_0_L1I_pq_full 0

Core_0_L1I_acc_epochs 195658
Core_0_L1I_acc_level_0 195658
Core_0_L1I_acc_level_1 0
Core_0_L1I_acc_level_2 0
Core_0_L1I_acc_level_3 0
Core_0_L1I_acc_level_4 0
Core_0_L1I_acc_level_5 0
Core_0_L1I_acc_level_6 0
Core_0_L1I_acc_level_7 0
Core_0_L1I_acc_level_8 0
Core_0_L1I_acc_level_9 0

Core_0_L2C_total_access 3830599
Core_0_L2C_total_hit 1835382
Core_0_L2C_total_miss 1995217
Core_0_L2C_loads 1830504
Core_0_L2C_load_hit 668549
Core_0_L2C_load_miss 1161955
Core_0_L2C_RFOs 16980
Core_0_L2C_RFO_hit 12432
Core_0_L2C_RFO_miss 4548
Core_0_L2C_prefetches 1843714
Core_0_L2C_prefetch_hit 1015433
Core_0_L2C_prefetch_miss 828281
Core_0_L2C_writebacks 139401
Core_0_L2C_writeback_hit 138968
Core_0_L2C_writeback_miss 433
Core_0_L2C_prefetch_requested 2743287
Core_0_L2C_prefetch_dropped 2
Core_0_L2C_prefetch_issued 2743285
Core_0_L2C_prefetch_filled 1029262
Core_0_L2C_prefetch_useful 277886
Core_0_L2C_prefetch_useless 750897
Core_0_L2C_prefetch_late 151591
Core_0_L2C_average_miss_latency 175.77312

Core_0_L2C_rq_access 1847485
Core_0_L2C_rq_forward 0
Core_0_L2C_rq_merged 0
Core_0_L2C_rq_to_cache 1847484
Core_0_L2C_rq_full 0

Core_0_L2C_wq_access 139401
Core_0_L2C_wq_forward 2
Core_0_L2C_wq_merged 0
Core_0_L2C_wq_to_cache 139401
Core_0_L2C_wq_full 0

Core_0_L2C_pq_access 2743285
Core_0_L2C_pq_forward 0
Core_0_L2C_pq_merged 35911
Core_0_L2C_pq_to_cache 2707373
Core_0_L2C_pq_full 0

Core_0_L2C_acc_epochs 195658
Core_0_L2C_acc_level_0 78227
Core_0_L2C_acc_level_1 46793
Core_0_L2C_acc_level_2 29578
Core_0_L2C_acc_level_3 14636
Core_0_L2C_acc_level_4 6465
Core_0_L2C_acc_level_5 5797
Core_0_L2C_acc_level_6 5022
Core_0_L2C_acc_level_7 3675
Core_0_L2C_acc_level_8 2504
Core_0_L2C_acc_level_9 2961

Core_0_LLC_total_access 2093454
Core_0_LLC_total_hit 565983
Core_0_LLC_total_miss 1527471
Core_0_LLC_loads 1011549
Core_0_LLC_load_hit 264079
Core_0_LLC_load_miss 747470
Core_0_LLC_RFOs 4544
Core_0_LLC_RFO_hit 4272
Core_0_LLC_RFO_miss 272
Core_0_LLC_prefetches 978691
Core_0_LLC_prefetch_hit 230498
Core_0_LLC_prefetch_miss 748193
Core_0_LLC_writebacks 98670
Core_0_LLC_writeback_hit 67134
Core_0_LLC_writeback_miss 31536
Core_0_LLC_prefetch_requested 0
Core_0_LLC_prefetch_dropped 0
Core_0_LLC_prefetch_issued 0
Core_0_LLC_prefetch_filled 867818
Core_0_LLC_prefetch_useful 36142
Core_0_LLC_prefetch_useless 818713
Core_0_LLC_prefetch_late 0
Core_0_LLC_average_miss_latency 187.84283

Core_0_LLC_rq_access 1016093
Core_0_LLC_rq_forward 0
Core_0_LLC_rq_merged 0
Core_0_LLC_rq_to_cache 1016093
Core_0_LLC_rq_full 0

Core_0_LLC_wq_access 98670
Core_0_LLC_wq_forward 0
Core_0_LLC_wq_merged 0
Core_0_LLC_wq_to_cache 98670
Core_0_LLC_wq_full 0

Core_0_LLC_pq_access 1180853
Core_0_LLC_pq_forward 0
Core_0_LLC_pq_merged 0
Core_0_LLC_pq_to_cache 1180853
Core_0_LLC_pq_full 0

Core_0_LLC_acc_epochs 231652
Core_0_LLC_acc_level_0 208597
Core_0_LLC_acc_level_1 7487
Core_0_LLC_acc_level_2 4865
Core_0_LLC_acc_level_3 2536
Core_0_LLC_acc_level_4 1096
Core_0_LLC_acc_level_5 2739
Core_0_LLC_acc_level_6 1058
Core_0_LLC_acc_level_7 671
Core_0_LLC_acc_level_8 439
Core_0_LLC_acc_level_9 2164

Core_0_major_page_fault 0
Core_0_minor_page_fault 119233

scooby_st_lookup 2136629
scooby_st_hit 1369409
scooby_st_evict 767156
scooby_st_insert 767220
scooby_st_streaming 0

scooby_predict_called 2136629
scooby_predict_out_of_bounds 40276
scooby_predict_action_1 1550692
scooby_predict_issue_action_1 1531214
scooby_predict_hit_action_1 19478
scooby_predict_out_of_bounds_action_1 25603
scooby_predict_action_3 4177
scooby_predict_issue_action_3 3949
scooby_predict_hit_action_3 228
scooby_predict_out_of_bounds_action_3 158
scooby_predict_action_4 4981
scooby_predict_issue_action_4 4573
scooby_predict_hit_action_4 408
scooby_predict_out_of_bounds_action_4 263
scooby_predict_action_5 3912
scooby_predict_issue_action_5 3669
scooby_predict_hit_action_5 243
scooby_predict_out_of_bounds_action_5 266
scooby_predict_action_10 3225
scooby_predict_issue_action_10 3043
scooby_predict_hit_action_10 182
scooby_predict_out_of_bounds_action_10 501
scooby_predict_action_11 3124
scooby_predict_issue_action_11 2954
scooby_predict_hit_action_11 170
scooby_predict_out_of_bounds_action_11 571
scooby_predict_action_12 3131
scooby_predict_issue_action_12 2965
scooby_predict_hit_action_12 166
scooby_predict_out_of_bounds_action_12 606
scooby_predict_action_22 2200
scooby_predict_issue_action_22 2129
scooby_predict_hit_action_22 71
scooby_predict_out_of_bounds_action_22 1086
scooby_predict_action_23 2035
scooby_predict_issue_action_23 1939
scooby_predict_hit_action_23 96
scooby_predict_out_of_bounds_action_23 1114
scooby_predict_action_30 1546
scooby_predict_issue_action_30 1478
scooby_predict_hit_action_30 68
scooby_predict_out_of_bounds_action_30 1305
scooby_predict_action_32 1398
scooby_predict_issue_action_32 1365
scooby_predict_hit_action_32 33
scooby_predict_out_of_bounds_action_32 1385
scooby_predict_action_-1 216398
scooby_predict_issue_action_-1 209893
scooby_predict_hit_action_-1 6505
scooby_predict_out_of_bounds_action_-1 6999
scooby_predict_action_-3 3518
scooby_predict_issue_action_-3 3363
scooby_predict_hit_action_-3 155
scooby_predict_out_of_bounds_action_-3 144
scooby_predict_action_-6 3256
scooby_predict_issue_action_-6 3108
scooby_predict_hit_action_-6 148
scooby_predict_out_of_bounds_action_-6 275
scooby_predict_action_0 292760
scooby_predict_issue_action_0 0
scooby_predict_hit_action_0 0
scooby_predict_out_of_bounds_action_0 0
scooby_predict_multi_deg_called 344073
scooby_predict_predicted 2743287
scooby_predict_multi_deg 967645
scooby_predict_multi_deg_2 338863
scooby_predict_multi_deg_3 199450
scooby_predict_multi_deg_4 196115
scooby_predict_multi_deg_5 117783
scooby_predict_multi_deg_6 115434
scooby_predict_multi_deg_7 0
scooby_predict_multi_deg_8 0
scooby_predict_multi_deg_9 0
scooby_predict_multi_deg_10 0
scooby_predict_multi_deg_11 0
scooby_predict_multi_deg_12 0
scooby_predict_multi_deg_13 0
scooby_predict_multi_deg_14 0
scooby_predict_multi_deg_15 0
scooby_predict_multi_deg_16 0

scooby_selected_deg_1 1431569
scooby_selected_deg_2 137856
scooby_selected_deg_3 0
scooby_selected_deg_4 79233
scooby_selected_deg_5 0
scooby_selected_deg_6 126984
scooby_selected_deg_7 0
scooby_selected_deg_8 0
scooby_selected_deg_9 0
scooby_selected_deg_10 0
scooby_selected_deg_11 0
scooby_selected_deg_12 0
scooby_selected_deg_13 0
scooby_selected_deg_14 0
scooby_selected_deg_15 0
scooby_selected_deg_16 0

scooby_state_40244f|0|0 5183,32,33,33,22,18,24,22,17,17,23,5135,17,18,1569,12163,
scooby_state_40244f|59|1 6089,11,19,3,7,6,3,4,3,3,4,1288,3,1,4246,11690,
scooby_state_40244f|13|1 5794,9,15,8,14,6,7,7,8,8,14,1257,4,6,4376,11533,
scooby_state_40244f|54|1 5869,13,25,8,8,12,6,7,3,2,3,1249,6,2,4318,11531,
scooby_state_40244f|5|1 5858,8,25,7,5,6,8,5,3,4,7,1307,6,6,4245,11500,
scooby_state_40244f|58|1 5805,11,14,7,6,4,11,1,2,4,9,1258,3,2,4357,11494,
scooby_state_40244f|9|1 5812,8,19,11,8,12,12,5,3,3,5,1285,5,4,4206,11398,
scooby_state_40244f|6|1 5849,11,12,9,9,5,5,2,3,2,3,1236,1,6,4220,11373,
scooby_state_40244f|46|1 5872,9,28,5,6,6,6,8,5,2,8,1259,4,3,4056,11277,
scooby_state_40244f|60|1 5860,9,19,2,6,4,7,4,2,5,3,1212,2,6,4092,11233,
scooby_state_40244f|48|1 5664,8,21,3,6,8,5,2,4,6,6,1285,3,4,4195,11220,
scooby_state_40244f|19|1 5674,10,24,9,0,9,14,2,3,3,1,1289,9,4,4146,11197,
scooby_state_40244f|35|1 5880,14,12,4,6,5,8,5,4,2,8,1273,3,2,3933,11159,
scooby_state_40244f|31|1 5766,7,16,7,7,7,6,7,3,3,2,1169,7,0,4105,11112,
scooby_state_40244f|61|1 5739,7,18,6,5,6,7,4,8,2,3,1210,5,4,4053,11077,
scooby_state_40244f|37|1 5708,6,17,7,1,4,3,2,1,2,2,1220,8,6,4080,11067,
scooby_state_40244f|49|1 5609,8,21,10,5,9,7,4,11,4,6,1150,2,5,4215,11066,
scooby_state_40244f|11|1 5759,15,20,10,9,14,6,1,4,6,2,1228,8,9,3962,11053,
scooby_state_40244f|10|1 5596,9,20,8,9,9,3,5,2,6,6,1243,7,3,4113,11039,
scooby_state_40244f|53|1 5659,10,19,8,7,10,6,6,4,4,3,1237,8,6,4044,11031,
scooby_state_40244f|15|1 5672,5,22,5,7,4,8,5,9,3,2,1178,3,7,4101,11031,
scooby_state_40244f|26|1 5665,11,17,5,8,10,9,3,8,1,4,1248,4,2,4030,11025,
scooby_state_40244f|7|1 5627,15,25,13,7,11,14,11,5,7,9,1194,13,4,4057,11012,
scooby_state_40244f|43|1 5748,3,24,6,10,4,6,10,8,3,5,1231,5,6,3943,11012,
scooby_state_40244f|56|1 5625,8,21,7,7,5,7,5,7,4,8,1215,7,6,4077,11009,
scooby_state_40244f|34|1 5520,4,19,5,12,2,9,4,12,2,4,1192,5,6,4203,10999,
scooby_state_40244f|8|1 5491,9,25,5,8,5,4,1,6,2,4,1275,4,4,4136,10979,
scooby_state_40244f|1|1 5482,6,13,13,8,7,6,3,10,9,5,1186,8,9,4164,10929,
scooby_state_40244f|14|1 5605,9,22,11,11,11,5,2,5,3,4,1280,6,7,3948,10929,
scooby_state_40244f|41|1 5462,6,20,3,6,10,7,9,6,6,3,1241,10,5,4132,10926,
scooby_state_40244f|50|1 5462,5,13,7,11,9,5,3,3,3,5,1195,7,11,4179,10918,
scooby_state_40244f|33|1 5626,9,15,7,1,10,5,3,5,1,2,1128,3,4,4085,10904,
scooby_state_40244f|47|1 5629,9,23,11,11,7,6,5,3,6,3,1128,9,6,4045,10901,
scooby_state_40244f|51|1 5581,11,21,5,6,10,8,14,3,1,5,1142,8,4,4071,10890,
scooby_state_40244f|23|1 5468,9,20,11,6,10,7,7,6,3,3,1234,7,6,4086,10883,
scooby_state_40244f|62|1 5437,5,21,7,6,8,10,10,2,2,0,1196,11,4,4162,10881,
scooby_state_40244f|12|1 5531,4,23,9,8,3,4,2,6,1,3,1170,5,4,4090,10863,
scooby_state_40244f|57|1 5717,8,21,9,6,5,5,10,8,6,10,1141,6,6,3888,10846,
scooby_state_40244f|24|1 5482,5,13,7,9,9,11,7,6,2,3,1213,4,4,4030,10805,
scooby_state_40244f|25|1 5478,11,16,6,4,8,10,3,0,4,4,1150,7,7,4087,10795,
scooby_state_40244f|42|1 5587,11,25,12,6,6,4,6,6,4,2,1150,4,4,3955,10782,
scooby_state_40244f|45|1 5538,6,23,12,6,4,5,7,5,1,3,1260,6,10,3878,10764,
scooby_state_40244f|20|1 5629,8,25,7,6,6,6,5,5,3,3,1224,4,10,3823,10764,
scooby_state_40244f|36|1 5554,8,18,9,6,10,6,6,2,4,2,1198,4,4,3916,10747,
scooby_state_40244f|4|1 5558,10,17,9,6,8,1,6,2,6,3,1156,2,2,3935,10721,
scooby_state_40244f|3|1 5685,10,19,6,7,3,4,2,4,1,0,1144,6,7,3822,10720,
scooby_state_40244f|2|1 5537,14,22,7,5,6,3,3,4,3,2,1146,4,5,3936,10697,
scooby_state_40244f|63|1 5551,12,16,7,10,8,5,6,4,4,3,1099,2,10,3955,10692,
scooby_state_40244f|28|1 5484,12,21,8,2,8,3,3,5,0,1,1227,5,7,3904,10690,
scooby_state_40245c|63|0 10590,4,7,8,3,8,2,5,7,5,5,3,16,8,6,10677,
scooby_state_40244f|32|1 5543,10,20,9,18,16,4,5,4,6,7,1120,6,8,3898,10674,
scooby_state_40244f|52|1 5493,6,20,6,11,9,1,7,9,2,3,1223,6,6,3869,10671,
scooby_state_40244f|40|1 5542,9,16,8,7,11,5,8,3,4,1,1139,9,1,3886,10649,
scooby_state_40244f|44|1 5438,8,14,10,7,12,5,14,3,6,1,1146,7,8,3960,10639,
scooby_state_40244f|18|1 5340,7,22,8,8,7,8,4,3,6,0,1153,8,3,4054,10631,
scooby_state_40244f|39|1 5404,6,23,6,6,6,5,2,7,3,6,1159,9,4,3974,10620,
scooby_state_40244f|16|1 5504,9,19,4,5,9,3,4,3,2,2,1176,3,4,3873,10620,
scooby_state_40244f|27|1 5390,10,20,3,5,2,4,4,3,5,2,1193,2,5,3969,10617,
scooby_state_40244f|29|1 5327,5,21,9,15,10,8,12,6,3,2,1134,4,7,4000,10563,
scooby_state_40244f|38|1 5335,5,25,8,8,7,6,5,7,6,5,1183,5,6,3939,10550,
scooby_state_40244f|55|1 5470,2,22,8,3,8,6,3,10,6,3,1050,7,8,3934,10540,
scooby_state_40244f|21|1 5314,7,18,5,8,6,2,4,3,1,0,1198,8,5,3925,10504,
scooby_state_40244f|22|1 5158,5,16,8,13,9,12,6,3,3,4,1126,5,6,3992,10366,
scooby_state_40244f|17|1 5172,9,15,2,8,6,5,4,6,1,2,1141,6,5,3901,10283,
scooby_state_40244f|30|1 5177,5,13,6,6,6,3,2,2,2,2,1113,6,7,3642,9992,
scooby_state_40245c|0|0 9201,4,1,1,3,2,1,1,2,0,3,2,1,1,2,9225,
scooby_state_40245c|58|0 9159,1,2,1,5,3,3,4,0,1,2,1,1,2,1,9186,
scooby_state_40245c|57|0 9052,2,1,0,5,1,1,2,1,1,1,1,0,1,4,9073,
scooby_state_40245c|4|0 8940,1,1,0,2,0,2,3,2,0,0,3,1,3,5,8963,
scooby_state_40245c|62|0 8931,0,1,5,2,2,2,1,1,0,0,3,1,1,1,8951,
scooby_state_40245c|5|0 8858,0,0,0,3,3,3,1,0,1,2,0,1,0,4,8876,
scooby_state_40245c|59|0 8832,1,0,0,3,1,1,3,1,0,0,4,3,2,1,8852,
scooby_state_40245c|61|0 8789,5,1,0,0,0,3,1,2,4,1,3,1,1,4,8815,
scooby_state_40245c|1|0 8755,2,1,1,3,0,4,1,2,2,3,4,0,2,3,8783,
scooby_state_40245c|53|0 8752,2,1,2,6,1,1,0,1,0,1,4,0,0,6,8777,
scooby_state_40245c|60|0 8727,0,0,0,0,0,2,2,2,0,2,2,1,1,3,8742,
scooby_state_40245c|2|0 8657,1,1,4,2,0,1,1,1,3,1,2,0,2,6,8682,
scooby_state_40245c|8|0 8585,4,0,3,3,0,5,0,0,1,1,7,2,1,4,8616,
scooby_state_40245c|56|0 8494,2,1,3,2,3,1,0,1,1,0,2,2,0,1,8513,
scooby_state_40245c|12|0 8445,0,4,0,2,2,6,0,0,2,1,5,0,2,3,8472,
scooby_state_40245c|3|0 8436,0,3,0,1,2,3,1,1,1,1,2,1,2,4,8458,
scooby_state_40245c|6|0 8394,3,2,0,3,0,4,0,2,2,1,5,3,1,3,8423,
scooby_state_40245c|9|0 8377,1,1,0,4,1,1,2,0,2,0,4,4,2,4,8403,
scooby_state_40245c|7|0 8365,2,0,2,2,0,3,2,1,2,2,0,1,2,3,8387,
scooby_state_40245c|55|0 8293,0,0,1,3,0,3,0,0,3,1,4,0,0,2,8310,
scooby_state_40245c|45|0 8265,0,2,0,9,0,2,2,1,1,0,6,1,2,3,8294,
scooby_state_40245c|48|0 8260,0,2,1,0,1,0,1,2,3,0,5,2,0,0,8277,
scooby_state_40245c|36|0 8244,1,2,2,4,2,0,3,1,1,2,5,0,0,5,8272,
scooby_state_40245c|52|0 8216,1,2,2,4,1,5,0,2,1,2,3,2,1,3,8245,
scooby_state_40245c|11|0 8210,1,1,0,2,2,6,1,2,3,1,1,0,1,3,8234,
scooby_state_40245c|10|0 8173,0,2,2,2,2,3,2,0,1,0,1,1,6,4,8199,
scooby_state_40245c|14|0 8168,1,3,2,2,0,3,0,2,1,0,1,2,2,4,8191,
scooby_state_40245c|54|0 8128,1,0,1,3,0,4,2,0,1,1,1,2,0,1,8145,
scooby_state_40245c|13|0 8108,2,2,2,5,2,6,0,3,0,3,2,1,0,1,8137,
scooby_state_40245c|25|0 8107,3,0,1,2,1,8,0,1,3,1,1,0,1,0,8129,
scooby_state_40245c|51|0 8085,2,6,1,3,1,3,0,0,2,0,3,1,3,6,8116,
scooby_state_40245c|50|0 8082,1,1,0,2,2,2,1,1,0,0,5,2,5,4,8108,
scooby_state_40245c|46|0 8076,2,1,4,3,1,3,2,0,0,3,3,2,0,1,8101,
scooby_state_40245c|47|0 8027,3,1,0,1,2,3,0,2,2,0,1,1,0,2,8045,
scooby_state_40245c|33|0 8017,0,2,1,4,0,2,1,1,0,0,1,4,2,1,8036,
scooby_state_40245c|49|0 8001,0,3,1,2,0,4,0,2,0,0,3,0,1,2,8019,
scooby_state_40245c|34|0 7974,3,1,0,1,2,5,3,0,0,4,7,0,0,3,8003,
scooby_state_40245c|18|0 7977,3,2,0,4,1,0,2,1,4,0,0,1,0,3,7998,
scooby_state_40245c|44|0 7968,1,0,0,3,1,0,5,1,1,0,5,2,2,2,7991,
scooby_state_40245c|35|0 7839,1,0,0,4,1,5,3,2,0,1,4,1,0,1,7862,
scooby_state_40245c|42|0 7839,1,3,1,1,0,4,1,1,2,1,3,3,0,0,7860,
scooby_state_40245c|30|0 7835,0,2,2,1,1,2,2,0,2,2,7,0,0,3,7859,
scooby_state_40245c|32|0 7822,0,1,1,3,1,0,1,0,1,0,0,0,0,1,7831,
scooby_state_40245c|40|0 7808,2,2,1,1,1,2,2,2,2,0,3,0,1,3,7830,
scooby_state_40245c|15|0 7815,0,3,1,0,0,4,0,0,0,0,3,0,1,2,7829,
scooby_state_40245c|19|0 7798,0,2,1,5,0,3,2,1,0,2,4,2,2,1,7823,
scooby_state_40245c|38|0 7791,1,1,4,2,2,4,1,1,0,0,5,1,1,3,7817,
scooby_state_40245c|23|0 7790,0,1,1,3,2,2,1,1,1,0,6,2,1,4,7815,
scooby_state_40245c|41|0 7766,1,2,2,2,1,2,1,2,0,3,0,4,0,5,7791,
scooby_state_40245c|20|0 7765,0,0,3,2,2,4,2,0,1,1,1,1,1,2,7785,
scooby_state_40245c|26|0 7755,1,0,0,6,1,2,1,0,1,0,5,1,2,4,7779,
scooby_state_40245c|24|0 7736,0,2,0,2,0,2,1,0,3,1,2,2,1,7,7759,
scooby_state_40245c|27|0 7714,2,1,1,1,4,0,1,2,1,0,3,4,2,3,7739,
scooby_state_40245c|22|0 7714,0,1,0,2,2,0,0,2,0,0,4,4,3,4,7736,
scooby_state_40245c|43|0 7701,1,1,2,3,2,4,2,0,2,1,4,0,2,4,7729,
scooby_state_40245c|17|0 7674,1,2,1,2,2,2,4,0,0,2,1,0,3,4,7698,
scooby_state_40245c|39|0 7672,2,1,1,2,1,2,1,1,1,1,2,1,0,2,7690,
scooby_state_40245c|28|0 7609,2,0,2,7,0,4,1,2,1,1,2,2,0,1,7634,
scooby_state_40245c|16|0 7609,3,2,2,1,2,1,1,2,1,1,2,1,2,3,7633,
scooby_state_40245c|37|0 7592,1,0,2,3,0,2,1,1,0,0,5,0,1,2,7610,
scooby_state_40245c|31|0 7564,0,2,2,1,1,3,0,0,1,2,2,1,2,3,7584,
scooby_state_40245c|21|0 7352,2,0,1,0,1,4,3,0,0,1,1,2,0,3,7370,
scooby_state_40245c|29|0 7192,3,2,2,2,1,1,0,2,2,1,7,0,2,0,7217,
scooby_state_40244f|2|0 2662,7,4,5,3,8,4,2,3,3,4,1152,4,3,182,4046,
scooby_state_40244f|63|0 2621,3,4,5,5,8,2,6,3,3,3,1101,5,7,229,4005,
scooby_state_40244f|1|0 2611,7,8,5,3,5,6,5,3,7,4,1121,3,3,203,3994,
scooby_state_40244f|62|0 2617,6,9,3,5,5,5,2,3,7,4,1111,6,7,197,3987,
scooby_state_40244f|61|0 2535,6,4,5,6,6,1,7,8,1,2,1183,10,4,196,3974,
scooby_state_40244f|60|0 2581,1,6,6,3,0,7,5,6,4,7,1119,6,5,215,3971,
scooby_state_40244f|4|0 2529,9,9,8,3,4,6,8,9,6,3,1142,5,2,191,3934,
scooby_state_40244f|58|0 2457,9,8,6,5,6,4,6,8,4,2,1164,7,1,212,3899,
scooby_state_40244f|3|0 2506,6,2,7,5,8,4,6,3,0,7,1089,7,2,223,3875,
scooby_state_40244f|6|0 2465,3,5,4,7,5,1,8,5,2,1,1111,12,6,181,3816,
scooby_state_40244f|5|0 2399,4,10,7,4,7,4,5,2,3,5,1163,5,8,187,3813,
scooby_state_40244f|56|0 2387,6,4,4,1,6,4,1,4,1,3,1109,2,5,193,3730,
scooby_state_40244f|12|0 2298,3,5,4,8,3,5,1,6,4,6,1121,2,9,212,3687,
scooby_state_40244f|57|0 2363,4,7,12,5,7,8,4,2,7,5,1078,6,3,170,3681,
scooby_state_40244f|59|0 2384,5,5,4,2,2,4,6,8,6,2,1048,3,3,184,3666,
scooby_state_40244f|55|0 2435,6,5,8,6,4,7,2,5,0,3,988,2,2,177,3650,
scooby_state_40244f|53|0 2351,6,4,5,2,7,4,2,8,1,3,1040,4,8,202,3647,
scooby_state_40244f|10|0 2331,9,9,2,2,6,4,4,5,6,9,1056,6,3,194,3646,
scooby_state_40244f|54|0 2371,7,4,4,4,5,2,4,3,1,9,1029,4,6,186,3639,
scooby_state_40244f|7|0 2325,6,6,5,7,2,3,6,6,0,0,1041,9,3,189,3608,
scooby_state_40244f|9|0 2267,4,6,11,3,6,8,5,3,3,7,1079,3,6,188,3599,
scooby_state_40244f|13|0 2265,5,2,5,3,6,5,8,2,2,0,1087,5,5,178,3578,
scooby_state_40244f|50|0 2248,4,5,5,5,8,5,2,3,5,2,1067,4,10,199,3572,
scooby_state_40244f|11|0 2278,7,4,5,5,7,2,7,3,5,6,1031,12,4,168,3544,
scooby_state_40244f|46|0 2267,4,7,7,4,4,1,6,8,3,2,1034,6,8,165,3526,
scooby_state_40244f|14|0 2263,8,7,7,5,9,2,2,5,4,3,1010,3,5,184,3517,
scooby_state_40244f|15|0 2264,5,3,8,7,3,4,2,3,4,3,1011,4,2,176,3499,
scooby_state_40244f|44|0 2267,2,5,6,5,5,6,8,3,4,3,1003,2,2,174,3495,
scooby_state_40244f|8|0 2227,2,3,2,2,6,4,2,4,4,5,1042,1,4,180,3488,
scooby_state_40244f|51|0 2231,6,7,7,6,3,2,2,7,4,2,1014,1,6,187,3485,
scooby_state_40244f|52|0 2240,4,3,7,1,1,4,2,6,3,3,1010,4,4,173,3465,
scooby_state_40244f|18|0 2160,2,4,4,3,6,6,5,5,5,2,1061,4,1,190,3458,
scooby_state_40244f|37|0 2244,5,4,9,2,4,2,3,3,3,3,980,4,2,190,3458,
scooby_state_40244f|48|0 2174,3,3,4,1,5,4,4,6,4,6,1030,7,3,199,3453,
scooby_state_40244f|16|0 2260,3,6,5,2,2,6,6,7,1,4,963,5,1,179,3450,
scooby_state_40244f|47|0 2203,8,13,1,6,7,6,4,5,1,1,1000,2,9,182,3448,
scooby_state_40244f|17|0 2148,2,3,2,3,4,3,6,4,4,8,1041,3,3,205,3439,
scooby_state_40244f|49|0 2192,1,3,6,5,7,0,2,1,5,4,1012,8,4,185,3435,
scooby_state_40244f|34|0 2211,0,5,4,4,4,6,4,1,4,4,1016,3,5,157,3428,
scooby_state_40244f|35|0 2150,5,2,5,6,2,3,8,2,4,3,1022,4,1,202,3419,
scooby_state_40244f|25|0 2185,4,6,4,4,1,5,1,0,4,0,1031,3,3,166,3417,
scooby_state_40244f|33|0 2214,3,7,5,5,6,3,3,3,4,8,967,5,2,174,3409,
scooby_state_40244f|36|0 2197,2,5,4,3,7,0,9,3,1,5,976,3,4,187,3406,
scooby_state_40244f|40|0 2184,7,2,3,5,2,3,2,4,5,5,996,4,4,167,3393,
scooby_state_40244f|26|0 2226,4,2,5,4,3,3,3,4,6,2,962,4,4,158,3390,
scooby_state_40244f|27|0 2221,1,7,5,2,5,3,1,3,2,4,955,1,4,171,3385,
scooby_state_40244f|19|0 2143,3,4,5,2,5,0,2,0,4,1,1001,4,5,206,3385,
scooby_state_40244f|39|0 2235,3,2,3,1,1,6,10,7,4,5,920,5,3,171,3376,
scooby_state_40244f|29|0 2137,4,3,4,3,4,9,5,1,2,3,1011,4,2,175,3367,
scooby_state_40244f|38|0 2154,4,3,6,10,3,2,6,3,6,5,992,8,4,159,3365,
scooby_state_40244f|31|0 2122,1,6,4,1,2,6,2,3,5,3,1001,5,7,195,3363,
scooby_state_40244f|42|0 2179,1,2,7,5,8,5,3,8,5,2,951,9,5,165,3355,
scooby_state_40244f|23|0 2125,2,10,7,7,3,6,6,2,4,2,1001,5,7,161,3348,
scooby_state_40244f|20|0 2132,3,11,1,2,5,7,8,3,2,3,980,7,4,174,3342,
scooby_state_40244f|22|0 2119,3,4,2,4,10,0,6,1,6,2,989,2,9,163,3320,
scooby_state_40244f|45|0 2092,4,2,9,2,4,3,1,3,2,5,1001,3,3,184,3318,
scooby_state_40244f|43|0 2137,3,9,6,4,3,2,4,2,3,2,961,4,1,172,3313,
scooby_state_40244f|32|0 2157,6,3,3,3,1,4,3,2,6,2,928,6,6,165,3295,
scooby_state_40244f|21|0 2109,7,3,4,3,2,4,6,1,5,1,949,5,2,179,3280,
scooby_state_40244f|24|0 2103,6,1,6,2,7,5,3,6,5,5,967,2,4,158,3280,
scooby_state_40244f|28|0 2112,4,3,6,2,7,7,5,4,0,5,947,4,2,171,3279,
scooby_state_40244f|30|0 2107,4,2,4,3,5,4,2,4,6,3,942,4,1,178,3269,
scooby_state_40244f|41|0 2118,4,8,9,1,4,4,3,3,2,2,947,4,5,154,3268,
scooby_state_40245c|62|-1 1467,2,4,3,3,4,4,2,4,2,2,3,0,4,177,1681,
scooby_state_40245c|18|-1 1329,1,7,4,7,5,6,4,3,4,3,4,4,6,292,1679,
scooby_state_40245c|34|-1 1303,0,7,6,9,5,10,2,2,0,7,7,3,5,258,1624,
scooby_state_40245c|53|-1 1285,1,6,5,8,2,4,4,5,3,4,4,5,7,264,1607,
scooby_state_40245c|52|-1 1317,4,7,5,8,2,7,4,4,2,3,4,4,5,229,1605,
scooby_state_40245c|30|-1 1274,4,6,8,4,5,6,1,4,3,1,2,10,5,271,1604,
scooby_state_40245c|5|-1 1279,5,8,10,4,6,6,9,3,2,4,10,3,4,242,1595,
scooby_state_40245c|57|-1 1301,4,6,3,1,5,4,7,2,3,6,3,3,5,242,1595,
scooby_state_40245c|59|-1 1289,4,6,0,10,2,6,5,3,2,5,2,4,1,250,1589,
scooby_state_40245c|45|-1 1285,5,3,7,6,1,5,3,3,6,6,6,5,6,237,1584,
scooby_state_40245c|17|-1 1269,5,4,4,6,7,3,9,2,6,1,7,2,3,256,1584,
scooby_state_40245c|9|-1 1264,5,4,3,3,6,5,0,5,5,6,5,7,4,261,1583,
scooby_state_40245c|11|-1 1253,8,5,3,3,3,4,3,3,1,5,5,2,5,279,1582,
scooby_state_40245c|12|-1 1263,6,5,5,8,4,2,6,2,1,1,6,2,4,266,1581,
scooby_state_40245c|32|-1 1255,2,8,7,4,5,6,6,5,7,4,8,7,5,245,1574,
scooby_state_40245c|58|-1 1294,6,4,7,6,5,2,6,5,4,4,5,3,1,221,1573,
scooby_state_40245c|4|-1 1250,6,7,2,6,6,3,0,2,1,2,9,6,7,265,1572,
scooby_state_40245c|14|-1 1232,9,8,3,8,11,6,4,7,2,3,5,5,5,262,1570,
scooby_state_40245c|28|-1 1250,6,5,4,8,3,4,4,2,0,6,6,8,8,251,1565,
scooby_state_40245c|24|-1 1270,6,1,4,6,3,6,2,8,1,0,4,2,9,241,1563,
scooby_state_40245c|60|-1 1297,5,3,4,1,5,6,2,2,4,2,2,6,6,218,1563,
scooby_state_40245c|44|-1 1262,6,6,3,4,2,6,1,4,1,5,5,7,6,243,1561,
scooby_state_40245c|47|-1 1260,3,10,3,6,4,3,4,5,5,2,2,3,2,246,1558,
scooby_state_40245c|2|-1 1284,5,1,6,5,1,2,3,3,1,2,7,6,3,227,1556,
scooby_state_40245c|35|-1 1234,3,5,7,9,6,2,10,5,0,3,4,6,3,258,1555,
scooby_state_40245c|8|-1 1253,8,7,6,4,5,6,3,4,4,3,7,6,3,233,1552,
scooby_state_40245c|3|-1 1229,2,4,6,5,3,3,3,6,5,4,4,4,1,272,1551,
scooby_state_40245c|13|-1 1220,3,10,5,8,5,4,4,3,2,5,8,4,2,268,1551,
scooby_state_40245c|10|-1 1243,2,11,8,1,4,2,3,4,3,6,3,3,4,251,1548,
scooby_state_40245c|1|-1 1250,3,3,5,6,6,8,6,2,2,0,2,6,4,245,1548,
scooby_state_40245c|0|-1 1264,2,7,8,3,3,3,7,3,1,3,6,3,6,228,1547,
scooby_state_40245c|51|-1 1249,6,6,5,8,8,2,1,5,7,2,3,3,4,237,1546,
scooby_state_40245c|61|-1 1254,4,6,3,2,5,6,5,3,5,4,4,4,3,236,1544,
scooby_state_40245c|33|-1 1215,5,3,6,8,4,6,7,4,8,3,9,3,6,256,1543,
scooby_state_40245c|31|-1 1226,6,5,3,2,2,8,5,2,2,2,9,5,0,265,1542,
scooby_state_40245c|43|-1 1241,11,4,6,5,2,5,4,5,5,2,9,3,7,230,1539,
scooby_state_40245c|25|-1 1249,2,3,9,7,3,9,1,5,8,2,3,5,2,231,1539,
scooby_state_40245c|7|-1 1232,5,8,2,3,5,4,2,5,4,2,4,5,2,251,1534,
scooby_state_40245c|55|-1 1248,5,9,3,5,6,5,6,2,2,3,7,3,4,214,1522,
scooby_state_40245c|22|-1 1215,7,1,8,2,4,10,4,1,3,1,6,9,2,247,1520,
scooby_state_40245c|15|-1 1195,4,3,6,1,2,3,6,3,4,2,5,3,7,275,1519,
scooby_state_40245c|46|-1 1191,4,4,5,8,2,4,7,0,4,6,6,7,10,257,1515,
scooby_state_40245c|38|-1 1192,6,6,8,4,3,2,3,7,2,3,2,11,4,260,1513,
scooby_state_40245c|20|-1 1210,4,3,4,8,6,7,1,2,2,4,3,4,4,250,1512,
scooby_state_40245c|16|-1 1205,4,6,6,3,7,8,2,2,3,1,4,3,4,254,1512,
scooby_state_40245c|21|-1 1187,3,6,8,4,5,5,5,5,2,3,5,4,3,266,1511,
scooby_state_40245c|19|-1 1193,5,7,6,3,2,10,1,6,2,4,5,6,4,254,1508,
scooby_state_40245c|6|-1 1238,2,5,5,2,5,7,1,3,3,2,9,3,2,219,1506,
scooby_state_40245c|42|-1 1220,2,3,5,4,3,3,7,5,3,2,3,6,8,231,1505,
scooby_state_40245c|29|-1 1193,4,7,3,5,1,1,4,5,4,1,5,6,5,254,1498,
scooby_state_40245c|36|-1 1203,6,7,4,2,2,3,2,1,10,5,5,5,4,239,1498,
scooby_state_40245c|39|-1 1206,2,7,3,7,6,2,1,6,3,0,6,10,4,234,1497,
scooby_state_40245c|40|-1 1196,8,3,6,5,5,8,1,1,6,1,9,8,5,234,1496,
scooby_state_40245c|26|-1 1202,8,4,7,3,3,4,1,3,3,3,4,5,5,241,1496,
scooby_state_40245c|49|-1 1181,5,4,7,3,4,4,2,5,2,4,4,4,5,259,1493,
scooby_state_40245c|37|-1 1169,9,7,8,3,8,4,5,4,1,4,8,6,2,253,1491,
scooby_state_40245c|27|-1 1167,4,3,4,4,5,2,8,5,4,5,5,3,4,267,1490,
scooby_state_40245c|56|-1 1223,4,5,4,3,1,5,4,3,4,3,5,3,8,212,1487,
scooby_state_40245c|41|-1 1186,6,3,4,3,5,6,3,3,7,1,6,4,6,228,1471,
scooby_state_40245c|48|-1 1160,4,5,9,4,2,3,3,3,2,3,6,5,6,242,1457,
scooby_state_40245c|50|-1 1166,10,8,1,4,3,2,0,2,2,1,8,5,4,234,1450,
scooby_state_40245c|23|-1 1166,6,5,6,4,4,2,4,3,5,1,5,2,1,234,1448,
scooby_state_40245c|54|-1 1150,7,3,6,7,5,2,4,3,5,5,5,3,1,224,1430,
scooby_state_402440|63|1 1073,0,0,1,0,0,0,0,0,0,0,42,1,0,1,1118,
scooby_state_402440|62|1 1072,0,1,1,0,0,0,0,0,0,0,39,0,0,0,1113,
scooby_state_402440|60|1 1047,0,0,0,0,0,1,0,0,0,0,46,0,1,2,1097,
scooby_state_402440|61|1 1042,0,0,0,1,0,0,0,0,1,0,43,0,0,1,1088,
scooby_state_402440|57|1 1039,0,0,0,0,1,1,0,0,0,0,43,0,0,0,1084,
scooby_state_402440|58|1 1031,0,0,0,1,0,1,0,0,0,0,45,1,1,1,1081,
scooby_state_402440|54|1 1043,0,0,0,0,0,1,0,0,0,0,36,0,0,0,1080,
scooby_state_402440|53|1 1043,0,1,0,0,0,0,0,0,0,0,34,0,0,0,1078,
scooby_state_402440|55|1 1032,0,0,0,1,0,0,0,0,0,0,37,0,0,0,1070,
scooby_state_402440|44|1 1020,1,2,0,0,0,0,0,0,0,0,38,0,0,0,1061,
scooby_state_402440|59|1 1015,0,0,0,0,0,0,0,0,0,0,42,0,1,0,1058,
scooby_state_402440|51|1 1028,0,0,0,0,0,0,0,0,0,0,27,0,0,1,1056,
scooby_state_402440|52|1 1022,0,1,0,0,0,1,0,1,0,0,30,0,0,0,1055,
scooby_state_402440|48|1 1023,0,0,0,0,0,0,0,0,0,0,32,0,0,0,1055,
scooby_state_402440|56|1 1014,0,0,1,0,0,0,2,1,0,0,36,0,1,0,1055,
scooby_state_402440|49|1 1023,0,0,0,0,0,0,0,0,0,0,30,0,1,0,1054,
scooby_state_402440|50|1 1017,0,0,0,0,0,0,0,1,0,1,27,0,1,0,1047,
scooby_state_402440|43|1 1007,0,0,0,0,0,0,1,0,0,0,36,0,0,0,1044,
scooby_state_402440|45|1 1001,0,0,0,1,0,0,0,1,0,0,34,0,0,0,1037,
scooby_state_402440|46|1 1001,0,0,0,0,0,0,1,0,0,0,32,0,0,0,1034,
scooby_state_402440|42|1 1000,0,0,0,1,1,0,0,0,0,0,30,0,0,0,1032,
scooby_state_402440|47|1 1000,0,0,0,0,0,0,0,0,0,0,31,0,0,0,1031,
scooby_state_402440|39|1 988,0,0,0,0,0,1,0,0,0,0,41,0,0,0,1030,
scooby_state_402440|40|1 987,0,0,0,0,0,0,0,0,0,0,36,0,0,0,1023,
scooby_state_402440|36|1 982,0,0,0,0,0,0,0,0,0,1,35,1,0,0,1019,
scooby_state_402440|37|1 978,0,0,0,0,0,0,0,0,0,0,38,0,0,0,1016,
scooby_state_402440|35|1 978,0,0,0,0,0,0,0,0,1,0,37,0,0,0,1016,
scooby_state_402440|38|1 973,0,0,1,0,1,0,0,0,0,0,41,0,0,0,1016,
scooby_state_402440|34|1 980,0,0,0,0,0,0,0,0,0,0,34,0,0,0,1014,
scooby_state_402440|33|1 973,1,0,0,0,0,0,0,1,0,0,29,0,0,0,1004,
scooby_state_402440|41|1 971,0,0,0,0,0,0,0,0,0,0,32,0,0,0,1003,
scooby_state_402440|32|1 967,0,0,0,0,0,0,0,0,0,0,31,1,1,1,1001,
scooby_state_402440|24|1 969,0,0,0,0,0,0,0,1,0,0,31,0,0,0,1001,
scooby_state_402440|26|1 969,0,1,0,0,0,0,0,0,0,0,31,0,0,0,1001,
scooby_state_402440|16|1 971,0,0,1,1,0,0,0,0,0,1,25,0,0,0,999,
scooby_state_402440|11|1 968,0,0,0,0,0,1,0,0,0,0,30,0,0,0,999,
scooby_state_402440|23|1 969,0,0,0,0,0,0,0,0,0,0,29,0,0,0,998,
scooby_state_402440|31|1 965,0,0,0,0,0,0,0,0,0,0,33,0,0,0,998,
scooby_state_402440|27|1 967,1,0,0,0,0,0,0,0,0,0,30,0,0,0,998,
scooby_state_402440|30|1 963,0,0,0,0,0,0,1,0,0,0,33,1,0,0,998,
scooby_state_402440|19|1 976,0,1,0,0,0,0,0,0,0,0,20,0,0,0,997,
scooby_state_402440|29|1 963,0,0,0,1,0,0,0,0,0,0,31,0,0,0,995,
scooby_state_402440|14|1 963,0,0,0,1,0,0,1,0,0,0,28,1,0,0,994,
scooby_state_402440|25|1 962,0,0,0,0,0,0,0,1,0,1,29,1,0,0,994,
scooby_state_402440|8|1 955,0,0,0,0,0,0,0,0,0,0,35,0,1,0,991,
scooby_state_402440|28|1 956,1,0,0,0,0,0,0,0,1,0,31,0,1,0,990,
scooby_state_402440|15|1 955,2,1,0,0,0,0,0,0,0,0,32,0,0,0,990,
scooby_state_402440|13|1 958,0,0,0,0,0,0,0,0,0,0,31,0,0,0,989,
scooby_state_402440|22|1 956,0,0,0,0,0,0,1,0,0,0,29,0,1,0,987,
scooby_state_402440|9|1 952,0,0,0,0,0,0,0,0,0,0,31,1,0,0,984,
scooby_state_402440|18|1 961,0,0,0,0,1,0,0,0,0,1,19,0,1,0,983,
scooby_state_402440|21|1 958,0,0,0,0,0,0,0,0,0,0,25,0,0,0,983,
scooby_state_402440|3|1 941,1,0,0,0,0,0,0,0,1,0,38,1,0,1,983,
scooby_state_402440|12|1 947,0,0,0,0,1,0,1,0,0,0,33,0,0,1,983,
scooby_state_402440|4|1 949,0,0,0,0,0,0,0,0,0,0,30,1,0,1,981,
scooby_state_402440|20|1 956,0,0,0,0,0,0,0,1,0,0,24,0,0,0,981,
scooby_state_402440|10|1 945,0,0,1,0,0,0,0,0,0,0,29,0,0,0,975,
scooby_state_402440|5|1 937,0,0,0,0,1,0,0,0,0,0,33,0,0,0,971,
scooby_state_402440|1|1 928,0,0,0,0,0,0,0,0,0,0,36,0,1,0,965,
scooby_state_402440|17|1 944,0,0,0,0,0,0,0,0,0,0,19,0,0,0,963,
scooby_state_402440|6|1 925,0,0,0,0,0,0,1,0,0,1,30,0,0,0,957,
scooby_state_402440|7|1 921,0,0,1,0,0,0,0,0,0,1,33,0,0,0,956,
scooby_state_402440|2|1 920,1,0,0,0,0,0,0,1,0,0,30,0,0,0,952,
scooby_state_402440|0|-1 180,0,0,0,0,0,1,0,0,0,0,765,0,0,0,946,
scooby_state_402440|2|-1 176,0,0,0,0,0,0,0,0,0,0,769,0,0,0,945,
scooby_state_402440|5|-1 174,1,0,0,1,0,0,0,0,0,0,766,0,1,0,943,
scooby_state_402440|3|-1 171,0,0,0,2,0,0,0,0,0,1,765,1,0,0,940,
scooby_state_402440|1|-1 181,0,0,0,0,0,0,2,0,0,0,755,0,0,0,938,
scooby_state_402440|4|-1 176,0,0,0,0,0,0,0,0,0,1,761,0,0,0,938,
scooby_state_402440|7|-1 168,2,0,0,0,1,0,0,0,0,0,754,0,0,0,925,
scooby_state_402440|12|-1 171,2,0,0,0,0,0,0,0,0,0,750,0,0,1,924,
scooby_state_402440|8|-1 167,0,0,1,0,0,0,0,0,0,0,755,0,0,1,924,
scooby_state_402440|6|-1 163,1,0,0,0,0,0,0,0,0,0,757,0,0,0,921,
scooby_state_402440|10|-1 160,1,1,0,1,0,0,0,1,0,0,757,0,0,0,921,
scooby_state_402440|9|-1 168,1,0,0,0,0,0,1,0,0,0,750,0,0,0,920,
scooby_state_402440|11|-1 158,1,0,0,0,1,1,0,0,0,0,754,0,0,1,916,
scooby_state_402440|18|-1 163,0,0,0,0,0,0,0,1,0,0,749,0,0,0,913,
scooby_state_402440|17|-1 169,0,1,0,0,0,0,0,0,0,0,741,0,0,0,911,
scooby_state_402440|15|-1 165,1,0,0,0,0,0,0,0,0,0,745,0,0,0,911,
scooby_state_402440|13|-1 168,1,0,0,0,0,0,0,0,0,0,735,0,0,0,904,
scooby_state_402440|14|-1 166,2,0,0,0,0,0,0,0,0,0,736,0,0,0,904,
scooby_state_402440|19|-1 162,0,0,0,0,0,0,0,0,0,0,741,0,0,0,903,
scooby_state_402440|23|-1 159,0,0,0,0,0,0,0,0,0,0,740,0,0,0,899,
scooby_state_402440|16|-1 164,1,0,0,0,0,1,0,0,0,0,730,0,0,0,896,
scooby_state_402440|20|-1 167,0,0,0,0,0,0,0,0,0,0,728,0,0,0,895,
scooby_state_402440|21|-1 160,0,0,0,0,1,0,0,0,0,0,727,0,0,0,888,
scooby_state_402440|24|-1 155,0,1,0,1,0,0,0,0,0,0,729,0,0,0,886,
scooby_state_402440|25|-1 155,0,0,0,0,0,0,0,0,0,0,725,0,0,0,880,
scooby_state_402440|37|-1 163,0,1,0,1,0,0,0,0,0,0,708,1,1,0,875,
scooby_state_402440|29|-1 160,0,0,1,0,1,0,1,0,0,0,708,0,0,0,871,
scooby_state_402440|22|-1 152,0,0,0,0,1,0,1,0,0,0,717,0,0,0,871,
scooby_state_402440|26|-1 154,0,0,0,0,0,0,0,0,0,0,716,0,0,0,870,
scooby_state_402440|34|-1 166,0,0,0,0,0,0,0,0,0,0,703,0,0,0,869,
scooby_state_402440|27|-1 161,0,0,0,0,0,1,0,0,0,0,705,0,0,0,867,
scooby_state_402440|31|-1 161,0,0,0,0,0,0,0,0,0,1,702,0,1,0,865,
scooby_state_402440|30|-1 162,0,0,0,0,0,0,0,0,0,0,701,1,0,0,864,
scooby_state_402440|38|-1 158,0,1,1,0,0,0,0,0,0,0,702,1,0,0,863,
scooby_state_402440|36|-1 158,0,1,0,0,0,0,0,0,0,0,704,0,0,0,863,
scooby_state_402440|35|-1 161,0,0,0,0,0,0,0,0,0,0,701,0,0,0,862,
scooby_state_402440|0|0 564,0,0,1,0,0,0,1,0,0,0,293,0,0,0,859,
scooby_state_402440|28|-1 158,0,1,0,1,0,0,0,0,0,0,698,1,0,0,859,
scooby_state_402440|33|-1 151,1,0,0,0,0,0,0,0,0,0,705,0,0,0,857,
scooby_state_402440|44|-1 149,0,0,0,0,1,0,0,0,0,0,705,0,0,0,855,
scooby_state_402440|57|-1 157,0,1,2,0,0,0,0,0,1,0,690,0,0,0,851,
scooby_state_402440|42|-1 149,0,0,0,0,0,1,0,0,0,0,700,1,0,0,851,
scooby_state_402440|41|-1 154,0,0,0,0,0,1,0,0,0,0,693,0,0,1,849,
scooby_state_402440|40|-1 169,0,0,0,0,0,0,0,0,0,0,678,0,0,1,848,
scooby_state_402440|32|-1 146,0,0,0,0,0,1,0,1,1,0,698,1,0,0,848,
scooby_state_402440|46|-1 141,0,0,0,0,1,2,0,0,1,0,701,0,0,0,846,
scooby_state_402440|47|-1 144,0,1,0,0,2,1,0,0,1,0,696,0,1,0,846,
scooby_state_402440|53|-1 146,0,1,0,0,0,1,0,0,0,0,697,0,0,0,845,
scooby_state_402440|51|-1 146,0,0,0,0,0,0,0,0,1,1,695,1,0,0,844,
scooby_state_402440|56|-1 149,0,2,0,0,0,0,0,0,0,0,693,0,0,0,844,
scooby_state_402440|55|-1 151,1,1,0,0,0,0,0,0,0,0,690,0,0,0,843,
scooby_state_402440|45|-1 147,0,0,0,0,1,0,0,0,0,0,695,0,0,0,843,
scooby_state_402440|39|-1 164,0,0,0,0,0,0,0,0,0,0,679,0,0,0,843,
scooby_state_402440|52|-1 151,0,1,0,0,0,0,0,0,0,0,689,0,0,0,841,
scooby_state_402440|43|-1 147,0,0,0,0,0,0,0,0,0,0,692,0,0,0,839,
scooby_state_402440|48|-1 150,0,0,0,1,2,0,0,0,0,0,678,0,0,1,832,
scooby_state_402440|58|-1 154,0,1,0,0,0,0,0,0,0,0,675,0,0,0,830,
scooby_state_402440|61|-1 151,0,1,0,0,0,0,0,0,1,0,676,0,0,0,829,
scooby_state_402440|49|-1 144,1,0,1,0,1,0,0,0,1,0,679,0,0,0,827,
scooby_state_402440|50|-1 147,0,0,0,0,0,0,0,1,0,0,675,0,1,1,825,
scooby_state_402440|59|-1 145,0,1,0,0,0,0,0,0,0,0,676,0,1,0,823,
scooby_state_402440|54|-1 143,0,1,0,0,0,0,0,0,0,0,677,0,0,0,821,
scooby_state_402440|62|-1 143,0,0,0,0,0,0,0,0,0,1,666,0,0,0,810,
scooby_state_402440|60|-1 144,0,1,0,0,0,0,0,1,0,0,661,0,0,0,807,
scooby_state_402440|63|0 511,0,0,0,0,0,0,0,0,0,0,231,0,0,0,742,
scooby_state_40245c|61|-2 355,0,0,0,1,0,0,0,0,0,0,0,0,0,0,356,
scooby_state_40245c|20|-2 314,0,0,0,0,0,0,0,0,0,0,0,0,0,0,314,
scooby_state_40245c|57|-2 302,0,0,0,0,0,0,0,0,0,0,0,0,0,0,302,
scooby_state_40245c|52|-2 299,1,1,0,0,0,0,0,0,0,0,1,0,0,0,302,
scooby_state_40245c|34|-2 295,0,1,0,1,0,0,1,0,0,0,0,0,0,0,298,
scooby_state_40245c|8|-2 296,0,0,0,0,0,0,0,0,0,0,0,0,0,0,296,
scooby_state_40245c|45|-2 287,0,1,0,0,0,1,0,0,1,0,0,0,0,0,290,
scooby_state_40245c|59|-2 286,0,0,0,0,0,0,0,0,0,0,0,0,0,0,286,
scooby_state_40245c|58|-5 281,1,0,0,1,0,0,0,0,0,0,0,0,0,0,283,
scooby_state_40245c|51|-2 278,1,0,0,0,0,0,0,1,0,0,0,1,0,0,281,
scooby_state_40245c|46|-2 278,0,0,0,0,0,0,1,0,0,0,0,1,0,0,280,
scooby_state_40245c|21|-2 275,1,1,0,0,0,0,0,0,1,0,0,1,0,0,279,
scooby_state_40244f|0|-9 228,2,0,1,3,3,2,0,1,3,1,2,2,2,27,277,
scooby_state_40245c|44|-2 274,1,0,0,0,0,0,0,0,0,1,0,0,1,0,277,
scooby_state_40245c|38|-2 275,0,0,0,0,0,1,0,0,0,0,0,0,0,0,276,
scooby_state_40245c|33|-2 269,1,0,0,0,0,0,0,0,0,0,1,0,0,1,272,
scooby_state_40245c|7|-2 271,0,0,0,0,0,0,0,0,0,0,0,0,0,0,271,
scooby_state_40245c|25|-2 263,0,1,0,0,0,1,0,0,0,0,1,0,0,0,266,
scooby_state_40245c|39|-2 265,0,0,0,1,0,0,0,0,0,0,0,0,0,0,266,
scooby_state_40245c|18|-2 262,1,1,0,0,0,0,0,0,0,0,0,0,0,1,265,
scooby_state_40245c|53|-10 262,0,0,0,0,0,0,0,0,0,0,0,0,0,0,262,
scooby_state_40245c|60|-3 259,0,0,0,0,0,0,0,1,0,0,1,0,0,0,261,
scooby_state_40245c|17|-2 256,0,0,0,0,0,0,1,0,0,0,1,0,0,0,258,
scooby_state_40245c|2|-2 254,0,1,0,0,0,0,0,0,0,1,0,0,0,0,256,
scooby_state_40245c|28|-2 252,0,0,0,0,1,1,0,0,0,0,1,0,0,1,256,
scooby_state_40245c|35|-2 254,1,0,0,0,0,0,0,0,0,0,0,0,0,0,255,
scooby_state_40245c|0|-2 249,1,0,1,0,1,0,0,1,0,0,0,0,0,0,253,
scooby_state_40245c|13|-2 250,0,0,0,0,1,0,0,0,0,0,1,0,0,0,252,
scooby_state_40245c|58|-2 251,0,0,0,0,0,0,0,0,0,1,0,0,0,0,252,
scooby_state_40245c|10|1 249,0,0,0,0,0,0,0,0,0,0,0,0,0,0,249,
scooby_state_40245c|40|-2 249,0,0,0,0,0,0,0,0,0,0,0,0,0,0,249,
scooby_state_40245c|11|-2 247,0,0,0,1,0,0,0,0,0,0,0,0,0,0,248,
scooby_state_40245c|24|-2 244,0,0,0,1,0,1,0,0,0,0,2,0,0,0,248,
scooby_state_40245c|63|1 242,0,1,0,0,0,0,0,0,0,0,0,0,0,0,243,
scooby_state_40245c|5|-2 235,1,0,0,0,0,1,0,0,0,0,0,0,0,0,237,
scooby_state_40245c|12|-11 234,1,0,0,0,0,0,0,0,0,0,0,0,1,0,236,
scooby_state_40245c|55|-2 234,0,0,0,0,0,0,0,0,0,0,0,0,0,1,235,
scooby_state_40245c|60|-2 231,1,1,0,0,0,0,0,1,0,0,0,0,0,0,234,
scooby_state_40245c|6|-2 232,0,0,0,0,0,0,0,0,0,0,0,1,0,0,233,
scooby_state_40245c|49|-2 231,2,0,0,0,0,0,0,0,0,0,0,0,0,0,233,
scooby_state_40245c|9|1 231,0,0,0,1,0,0,0,0,0,0,0,0,0,0,232,
scooby_state_40245c|36|-2 231,1,0,0,0,0,0,0,0,0,0,0,0,0,0,232,
scooby_state_40245c|3|-5 230,0,0,1,1,0,0,0,0,0,0,0,0,0,0,232,
scooby_state_40245c|10|-2 229,0,0,0,0,0,0,0,0,0,0,1,0,0,1,231,
scooby_state_40245c|29|-2 228,1,0,0,0,0,0,0,0,0,0,1,0,0,0,230,
scooby_state_40245c|54|-9 229,0,0,0,0,0,0,0,0,0,0,0,0,0,0,229,
scooby_state_40245c|3|-2 226,0,1,1,0,0,0,0,0,0,0,0,1,0,0,229,
scooby_state_40245c|32|-2 228,1,0,0,0,0,0,0,0,0,0,0,0,0,0,229,
scooby_state_40245c|53|-2 228,0,0,0,0,0,0,0,0,0,0,1,0,0,0,229,
scooby_state_40244f|0|-7 129,4,3,1,6,5,1,3,1,1,3,32,5,3,31,228,
scooby_state_40245c|56|-2 226,1,0,0,0,1,0,0,0,0,0,0,0,0,0,228,
scooby_state_40245c|15|-2 226,0,0,1,1,0,0,0,0,0,0,0,0,0,0,228,
scooby_state_40245c|7|1 227,0,0,0,0,0,0,0,0,0,0,0,0,0,0,227,
scooby_state_40244f|0|-5 208,1,2,0,2,1,0,0,1,1,1,3,1,3,2,226,
scooby_state_40245c|14|-2 226,0,0,0,0,0,0,0,0,0,0,0,0,0,0,226,
scooby_state_40245c|42|-5 225,1,0,0,0,0,0,0,0,0,0,0,0,0,0,226,
scooby_state_40245c|41|-2 224,1,0,0,0,0,0,0,0,0,0,0,0,0,0,225,
scooby_state_40245c|1|-2 221,0,1,1,0,0,0,0,0,0,0,1,0,1,0,225,
scooby_state_40245c|4|-2 223,0,0,0,0,1,1,0,0,0,0,0,0,0,0,225,
scooby_state_40245c|23|-2 222,0,0,0,0,0,0,1,0,0,1,0,0,0,0,224,
scooby_state_40245c|8|-3 222,0,0,0,0,0,0,0,0,0,0,1,0,0,0,223,
scooby_state_40245c|42|-2 221,0,0,0,0,0,0,0,0,0,0,1,0,0,0,222,
scooby_state_40245c|52|-11 218,0,0,0,0,1,0,0,0,0,1,0,0,0,0,220,
scooby_state_40245c|19|-2 218,0,0,0,0,0,0,0,0,0,0,1,0,0,1,220,
scooby_state_40245c|26|-2 217,0,0,0,0,0,0,0,0,0,0,2,0,0,0,219,
scooby_state_40245c|40|1 219,0,0,0,0,0,0,0,0,0,0,0,0,0,0,219,
scooby_state_40245c|31|-2 217,1,0,0,0,0,0,0,0,0,0,0,0,0,0,218,
scooby_state_40244f|0|-2 183,3,2,1,0,0,0,1,1,0,2,5,0,0,20,218,
scooby_state_40245c|59|-4 216,0,0,0,0,0,0,0,0,0,0,0,0,0,0,216,
scooby_state_40245c|46|1 216,0,0,0,0,0,0,0,0,0,0,0,0,0,0,216,
scooby_state_40245c|60|1 215,0,0,0,0,0,0,0,0,0,0,0,0,0,0,215,
scooby_state_40245c|36|1 215,0,0,0,0,0,0,0,0,0,0,0,0,0,0,215,
scooby_state_40245c|47|-2 214,0,0,0,0,0,0,0,0,0,1,0,0,0,0,215,
scooby_state_40245c|27|-2 210,2,1,0,0,0,0,0,0,0,0,0,0,0,0,213,
scooby_state_40245c|30|-2 209,2,0,0,1,0,0,0,0,0,0,0,0,0,0,212,
scooby_state_40245c|58|-3 212,0,0,0,0,0,0,0,0,0,0,0,0,0,0,212,
scooby_state_40245c|51|-5 212,0,0,0,0,0,0,0,0,0,0,0,0,0,0,212,
scooby_state_40244f|0|-4 98,4,10,17,3,4,6,2,2,1,3,24,4,2,32,212,
scooby_state_40245c|12|1 212,0,0,0,0,0,0,0,0,0,0,0,0,0,0,212,
scooby_state_40245c|42|1 211,0,0,0,0,0,0,0,0,0,0,0,0,0,0,211,
scooby_state_40245c|16|-2 210,1,0,0,0,0,0,0,0,0,0,0,0,0,0,211,
scooby_state_40245c|21|1 209,0,0,0,0,0,0,0,0,0,0,0,0,0,0,209,
scooby_state_40245c|12|-2 206,2,0,0,0,0,0,0,1,0,0,0,0,0,0,209,
scooby_state_40245c|22|-2 206,1,0,0,1,0,0,0,0,0,0,0,0,0,0,208,
scooby_state_40245c|58|1 206,0,0,0,0,0,0,0,0,0,0,0,0,0,0,206,
scooby_state_40245c|37|1 206,0,0,0,0,0,0,0,0,0,0,0,0,0,0,206,
scooby_state_40245c|11|4 204,1,0,0,0,0,0,0,0,0,0,0,0,0,0,205,
scooby_state_40245c|4|1 205,0,0,0,0,0,0,0,0,0,0,0,0,0,0,205,
scooby_state_40245c|51|-8 204,0,1,0,0,0,0,0,0,0,0,0,0,0,0,205,
scooby_state_40245c|40|-5 203,0,0,0,0,1,1,0,0,0,0,0,0,0,0,205,
scooby_state_40245c|60|4 204,0,0,0,0,0,0,0,0,0,0,0,0,0,0,204,
scooby_state_40245c|39|1 204,0,0,0,0,0,0,0,0,0,0,0,0,0,0,204,
scooby_state_40245c|5|4 203,0,0,0,0,0,0,0,0,0,0,0,0,0,0,203,
scooby_state_40245c|48|-2 202,1,0,0,0,0,0,0,0,0,0,0,0,0,0,203,
scooby_state_40245c|55|1 201,0,0,0,1,0,0,0,0,0,0,0,0,0,0,202,
scooby_state_40245c|58|6 201,0,0,0,0,0,0,0,0,0,0,0,0,0,0,201,
scooby_state_40245c|34|-10 200,0,0,0,0,0,0,0,0,0,0,0,0,0,0,200,
scooby_state_40245c|9|-2 199,0,1,0,0,0,0,0,0,0,0,0,0,0,0,200,
scooby_state_40245c|57|-6 199,0,0,0,1,0,0,0,0,0,0,0,0,0,0,200,
scooby_state_40245c|55|-6 199,0,0,0,0,0,0,0,0,0,0,0,1,0,0,200,
scooby_state_40245c|49|-11 200,0,0,0,0,0,0,0,0,0,0,0,0,0,0,200,
scooby_state_40245c|1|-5 199,0,0,0,0,0,0,0,0,0,0,0,0,0,0,199,
scooby_state_40245c|53|-3 199,0,0,0,0,0,0,0,0,0,0,0,0,0,0,199,
scooby_state_40245c|47|6 199,0,0,0,0,0,0,0,0,0,0,0,0,0,0,199,
scooby_state_40245c|43|-2 198,0,0,0,0,0,0,0,0,0,0,0,0,0,0,198,
scooby_state_40245c|27|-5 195,1,0,0,0,0,0,0,0,0,0,1,0,0,1,198,
scooby_state_40245c|43|-10 197,0,0,0,0,0,0,0,0,0,0,0,0,0,0,197,
scooby_state_40245c|53|1 196,0,0,0,0,0,0,0,0,0,0,0,0,0,0,196,
scooby_state_40245c|15|1 196,0,0,0,0,0,0,0,0,0,0,0,0,0,0,196,
scooby_state_40245c|37|-2 195,1,0,0,0,0,0,0,0,0,0,0,0,0,0,196,
scooby_state_40245c|44|-5 195,0,0,0,0,0,0,0,0,0,0,0,0,0,0,195,
scooby_state_40245c|43|-11 194,0,0,0,0,0,0,0,0,1,0,0,0,0,0,195,
scooby_state_40245c|38|-10 195,0,0,0,0,0,0,0,0,0,0,0,0,0,0,195,
scooby_state_40245c|61|1 195,0,0,0,0,0,0,0,0,0,0,0,0,0,0,195,
scooby_state_40245c|25|1 195,0,0,0,0,0,0,0,0,0,0,0,0,0,0,195,
scooby_state_40245c|11|-5 192,0,0,0,1,0,0,0,0,0,0,1,0,0,0,194,
scooby_state_40245c|54|1 193,1,0,0,0,0,0,0,0,0,0,0,0,0,0,194,
scooby_state_40245c|6|-6 193,0,0,0,0,0,1,0,0,0,0,0,0,0,0,194,
scooby_state_40245c|10|-3 194,0,0,0,0,0,0,0,0,0,0,0,0,0,0,194,
scooby_state_40245c|62|4 194,0,0,0,0,0,0,0,0,0,0,0,0,0,0,194,
scooby_state_40245c|7|-3 193,0,0,0,0,0,0,0,0,0,0,0,0,0,0,193,
scooby_state_40245c|1|1 193,0,0,0,0,0,0,0,0,0,0,0,0,0,0,193,
scooby_state_40245c|18|-10 193,0,0,0,0,0,0,0,0,0,0,0,0,0,0,193,
scooby_state_40245c|50|4 192,0,0,0,0,0,0,0,0,0,1,0,0,0,0,193,
scooby_state_40245c|8|1 191,0,0,0,0,0,0,0,0,0,0,0,0,1,0,192,
scooby_state_40245c|36|-5 192,0,0,0,0,0,0,0,0,0,0,0,0,0,0,192,
scooby_state_40245c|4|4 191,0,0,0,0,0,0,0,0,0,0,0,0,0,0,191,
scooby_state_40245c|41|4 191,0,0,0,0,0,0,0,0,0,0,0,0,0,0,191,
scooby_state_40245c|13|1 190,0,1,0,0,0,0,0,0,0,0,0,0,0,0,191,
scooby_state_40245c|22|9 190,0,0,0,0,0,0,0,0,0,0,0,0,0,0,190,
scooby_state_40245c|32|-3 189,0,0,0,0,0,0,0,0,0,0,1,0,0,0,190,
scooby_state_40245c|47|1 189,0,0,0,0,0,0,0,0,0,0,0,0,0,0,189,
scooby_state_40245c|27|1 189,0,0,0,0,0,0,0,0,0,0,0,0,0,0,189,
scooby_state_40245c|45|-5 187,0,0,0,0,0,0,0,0,0,0,1,0,0,0,188,
scooby_state_40245c|24|1 188,0,0,0,0,0,0,0,0,0,0,0,0,0,0,188,
scooby_state_40245c|48|-10 187,0,0,0,0,0,0,0,0,0,0,0,0,0,0,187,
scooby_state_40245c|17|6 186,0,0,0,1,0,0,0,0,0,0,0,0,0,0,187,
scooby_state_40245c|56|-7 187,0,0,0,0,0,0,0,0,0,0,0,0,0,0,187,
scooby_state_40245c|14|1 187,0,0,0,0,0,0,0,0,0,0,0,0,0,0,187,
scooby_state_40245c|58|4 187,0,0,0,0,0,0,0,0,0,0,0,0,0,0,187,
scooby_state_40245c|24|-3 186,0,0,0,1,0,0,0,0,0,0,0,0,0,0,187,
scooby_state_40245c|3|-3 184,0,0,0,0,0,0,1,0,1,0,0,0,0,0,186,
scooby_state_40245c|15|4 186,0,0,0,0,0,0,0,0,0,0,0,0,0,0,186,
scooby_state_40245c|34|1 185,0,0,0,0,0,0,0,0,0,0,0,0,0,0,185,
scooby_state_40245c|55|-3 182,0,0,0,0,0,2,0,0,0,0,1,0,0,0,185,
scooby_state_40245c|5|-3 185,0,0,0,0,0,0,0,0,0,0,0,0,0,0,185,
scooby_state_40245c|50|-2 185,0,0,0,0,0,0,0,0,0,0,0,0,0,0,185,
scooby_state_40245c|4|-3 184,0,0,0,0,0,0,0,0,0,1,0,0,0,0,185,
scooby_state_40245c|10|-10 184,0,0,0,1,0,0,0,0,0,0,0,0,0,0,185,
scooby_state_40245c|55|4 185,0,0,0,0,0,0,0,0,0,0,0,0,0,0,185,
scooby_state_40245c|30|6 184,0,0,0,0,0,0,0,0,0,0,0,0,0,0,184,
scooby_state_40245c|6|6 184,0,0,0,0,0,0,0,0,0,0,0,0,0,0,184,
scooby_state_40245c|4|3 184,0,0,0,0,0,0,0,0,0,0,0,0,0,0,184,
scooby_state_40245c|9|-3 184,0,0,0,0,0,0,0,0,0,0,0,0,0,0,184,
scooby_state_40245c|55|3 182,0,0,0,0,0,0,0,0,0,0,0,0,0,1,183,
scooby_state_40245c|41|-3 182,0,0,0,0,0,0,0,0,0,0,0,0,0,0,182,
scooby_state_40245c|8|8 181,0,0,0,1,0,0,0,0,0,0,0,0,0,0,182,
scooby_state_40245c|35|-5 182,0,0,0,0,0,0,0,0,0,0,0,0,0,0,182,
scooby_state_40245c|7|-5 180,0,0,0,0,0,0,0,0,0,0,1,1,0,0,182,
scooby_state_40245c|10|4 181,0,0,0,1,0,0,0,0,0,0,0,0,0,0,182,
scooby_state_40245c|39|-3 181,0,0,0,0,0,0,0,0,0,0,0,0,1,0,182,
scooby_state_40245c|35|-3 182,0,0,0,0,0,0,0,0,0,0,0,0,0,0,182,
scooby_state_40245c|22|-3 181,0,0,0,0,0,0,0,0,0,0,0,0,0,0,181,
scooby_state_40245c|14|-10 181,0,0,0,0,0,0,0,0,0,0,0,0,0,0,181,
scooby_state_40245c|1|-10 180,0,0,0,1,0,0,0,0,0,0,0,0,0,0,181,
scooby_state_40245c|29|1 180,0,0,0,0,0,0,0,0,1,0,0,0,0,0,181,
scooby_state_40245c|57|1 181,0,0,0,0,0,0,0,0,0,0,0,0,0,0,181,
scooby_state_40245c|29|-6 181,0,0,0,0,0,0,0,0,0,0,0,0,0,0,181,
scooby_state_40245c|8|-5 180,0,0,0,0,0,0,0,0,0,0,0,0,0,0,180,
scooby_state_40245c|52|1 180,0,0,0,0,0,0,0,0,0,0,0,0,0,0,180,
scooby_state_40245c|37|6 180,0,0,0,0,0,0,0,0,0,0,0,0,0,0,180,
scooby_state_40245c|18|1 180,0,0,0,0,0,0,0,0,0,0,0,0,0,0,180,
scooby_state_40245c|5|-10 180,0,0,0,0,0,0,0,0,0,0,0,0,0,0,180,
scooby_state_40245c|21|-3 179,0,0,1,0,0,0,0,0,0,0,0,0,0,0,180,
scooby_state_40245c|49|4 180,0,0,0,0,0,0,0,0,0,0,0,0,0,0,180,
scooby_state_40245c|22|4 180,0,0,0,0,0,0,0,0,0,0,0,0,0,0,180,
scooby_state_40245c|22|-11 179,0,0,0,0,0,0,0,0,0,0,0,0,0,0,179,
scooby_state_40245c|39|-11 179,0,0,0,0,0,0,0,0,0,0,0,0,0,0,179,
scooby_state_40245c|51|4 179,0,0,0,0,0,0,0,0,0,0,0,0,0,0,179,
scooby_state_40245c|52|6 179,0,0,0,0,0,0,0,0,0,0,0,0,0,0,179,
scooby_state_40245c|14|-5 179,0,0,0,0,0,0,0,0,0,0,0,0,0,0,179,
scooby_state_40245c|32|-11 179,0,0,0,0,0,0,0,0,0,0,0,0,0,0,179,
scooby_state_40245c|19|6 179,0,0,0,0,0,0,0,0,0,0,0,0,0,0,179,
scooby_state_40245c|30|-11 179,0,0,0,0,0,0,0,0,0,0,0,0,0,0,179,
scooby_state_40245c|47|-5 177,0,0,0,0,0,0,0,0,0,0,1,0,0,0,178,
scooby_state_40245c|52|-3 177,0,0,0,1,0,0,0,0,0,0,0,0,0,0,178,
scooby_state_40245c|29|4 178,0,0,0,0,0,0,0,0,0,0,0,0,0,0,178,
scooby_state_40245c|55|-5 174,1,0,0,0,0,0,0,0,0,0,1,0,1,0,177,
scooby_state_40245c|3|-10 176,0,0,0,0,0,0,1,0,0,0,0,0,0,0,177,
scooby_state_40245c|31|4 177,0,0,0,0,0,0,0,0,0,0,0,0,0,0,177,
scooby_state_40245c|3|1 176,0,0,0,0,0,0,0,0,1,0,0,0,0,0,177,
scooby_state_40245c|33|1 176,0,0,0,0,0,0,0,0,0,1,0,0,0,0,177,
scooby_state_40244f|0|-10 137,1,1,0,2,2,0,0,1,1,0,25,3,1,2,176,
scooby_state_40245c|41|-10 176,0,0,0,0,0,0,0,0,0,0,0,0,0,0,176,
scooby_state_40245c|62|1 176,0,0,0,0,0,0,0,0,0,0,0,0,0,0,176,
scooby_state_40245c|9|2 176,0,0,0,0,0,0,0,0,0,0,0,0,0,0,176,
scooby_state_40245c|46|-10 175,0,0,0,0,0,0,0,0,0,0,0,0,0,0,175,
scooby_state_40245c|47|-3 173,0,0,0,0,0,0,0,0,0,1,1,0,0,0,175,
scooby_state_40245c|28|-10 175,0,0,0,0,0,0,0,0,0,0,0,0,0,0,175,
scooby_state_40245c|28|-3 175,0,0,0,0,0,0,0,0,0,0,0,0,0,0,175,
scooby_state_40245c|28|-5 175,0,0,0,0,0,0,0,0,0,0,0,0,0,0,175,
scooby_state_40245c|50|-10 175,0,0,0,0,0,0,0,0,0,0,0,0,0,0,175,
scooby_state_40245c|40|-10 175,0,0,0,0,0,0,0,0,0,0,0,0,0,0,175,
scooby_state_40245c|52|-10 174,0,0,1,0,0,0,0,0,0,0,0,0,0,0,175,
scooby_state_40245c|19|4 173,0,0,0,0,1,0,0,0,0,0,0,0,0,0,174,
scooby_state_40245c|52|8 173,0,0,1,0,0,0,0,0,0,0,0,0,0,0,174,
scooby_state_40245c|20|-5 173,0,0,0,0,0,0,0,0,0,0,1,0,0,0,174,
scooby_state_40245c|54|-2 173,0,0,0,0,0,0,0,0,0,0,0,0,1,0,174,
scooby_state_40245c|57|9 174,0,0,0,0,0,0,0,0,0,0,0,0,0,0,174,
scooby_state_40245c|7|3 174,0,0,0,0,0,0,0,0,0,0,0,0,0,0,174,
scooby_state_40245c|53|9 174,0,0,0,0,0,0,0,0,0,0,0,0,0,0,174,
scooby_state_40245c|37|9 173,0,0,0,0,0,0,0,0,0,0,0,0,0,0,173,
scooby_state_40245c|23|1 173,0,0,0,0,0,0,0,0,0,0,0,0,0,0,173,
scooby_state_40245c|15|6 173,0,0,0,0,0,0,0,0,0,0,0,0,0,0,173,
scooby_state_40245c|4|-5 172,0,0,0,0,1,0,0,0,0,0,0,0,0,0,173,
scooby_state_40245c|61|4 172,1,0,0,0,0,0,0,0,0,0,0,0,0,0,173,
scooby_state_40245c|36|-3 172,0,1,0,0,0,0,0,0,0,0,0,0,0,0,173,
scooby_state_40245c|17|1 173,0,0,0,0,0,0,0,0,0,0,0,0,0,0,173,
scooby_state_40245c|12|-5 172,0,0,0,0,0,0,0,0,0,0,0,0,0,0,172,
scooby_state_40245c|32|4 172,0,0,0,0,0,0,0,0,0,0,0,0,0,0,172,
scooby_state_40245c|56|-5 172,0,0,0,0,0,0,0,0,0,0,0,0,0,0,172,
scooby_state_40245c|41|1 172,0,0,0,0,0,0,0,0,0,0,0,0,0,0,172,
scooby_state_40245c|0|-5 172,0,0,0,0,0,0,0,0,0,0,0,0,0,0,172,
scooby_state_40245c|32|-5 172,0,0,0,0,0,0,0,0,0,0,0,0,0,0,172,
scooby_state_40245c|24|-5 172,0,0,0,0,0,0,0,0,0,0,0,0,0,0,172,
scooby_state_40245c|35|1 170,0,0,0,0,0,1,1,0,0,0,0,0,0,0,172,
scooby_state_40245c|37|-3 170,0,0,0,0,0,0,0,0,0,0,0,0,1,0,171,
scooby_state_40245c|48|-5 171,0,0,0,0,0,0,0,0,0,0,0,0,0,0,171,
scooby_state_40245c|8|4 171,0,0,0,0,0,0,0,0,0,0,0,0,0,0,171,
scooby_state_40245c|20|4 171,0,0,0,0,0,0,0,0,0,0,0,0,0,0,171,
scooby_state_40245c|16|-10 169,0,0,0,0,0,0,1,0,0,0,0,0,0,0,170,
scooby_state_40245c|60|6 169,0,0,1,0,0,0,0,0,0,0,0,0,0,0,170,
scooby_state_40245c|48|-11 169,0,0,0,0,0,0,0,0,0,0,0,0,0,0,169,
scooby_state_40245c|43|-3 168,0,0,0,0,0,0,0,0,0,0,1,0,0,0,169,
scooby_state_40245c|45|8 168,0,0,0,0,0,0,0,0,0,0,0,1,0,0,169,
scooby_state_40245c|12|6 168,0,0,0,1,0,0,0,0,0,0,0,0,0,0,169,
scooby_state_40245c|27|-11 169,0,0,0,0,0,0,0,0,0,0,0,0,0,0,169,
scooby_state_40245c|47|8 168,0,0,0,1,0,0,0,0,0,0,0,0,0,0,169,
scooby_state_40245c|8|6 168,0,0,0,0,0,1,0,0,0,0,0,0,0,0,169,
scooby_state_40245c|26|1 169,0,0,0,0,0,0,0,0,0,0,0,0,0,0,169,
scooby_state_40245c|7|6 169,0,0,0,0,0,0,0,0,0,0,0,0,0,0,169,
scooby_state_40245c|56|-3 166,0,0,0,0,0,0,0,1,0,0,0,0,1,0,168,
scooby_state_40245c|5|-6 168,0,0,0,0,0,0,0,0,0,0,0,0,0,0,168,
scooby_state_40245c|23|-11 168,0,0,0,0,0,0,0,0,0,0,0,0,0,0,168,
scooby_state_40245c|48|4 168,0,0,0,0,0,0,0,0,0,0,0,0,0,0,168,
scooby_state_40245c|28|1 168,0,0,0,0,0,0,0,0,0,0,0,0,0,0,168,
scooby_state_40245c|36|-10 167,0,1,0,0,0,0,0,0,0,0,0,0,0,0,168,
scooby_state_40245c|6|4 168,0,0,0,0,0,0,0,0,0,0,0,0,0,0,168,
scooby_state_40245c|46|-11 168,0,0,0,0,0,0,0,0,0,0,0,0,0,0,168,
scooby_state_40245c|5|1 168,0,0,0,0,0,0,0,0,0,0,0,0,0,0,168,
scooby_state_40245c|25|6 167,0,0,0,0,1,0,0,0,0,0,0,0,0,0,168,
scooby_state_40245c|32|1 167,0,0,0,0,0,0,0,0,0,1,0,0,0,0,168,
scooby_state_40245c|11|1 167,0,1,0,0,0,0,0,0,0,0,0,0,0,0,168,
scooby_state_40245c|4|-10 167,0,0,0,0,0,0,0,0,0,0,0,0,0,0,167,
scooby_state_40245c|48|-6 167,0,0,0,0,0,0,0,0,0,0,0,0,0,0,167,
scooby_state_40245c|23|-3 166,0,0,0,0,0,0,1,0,0,0,0,0,0,0,167,
scooby_state_40245c|6|-5 165,0,0,0,0,0,0,0,0,0,0,1,0,0,1,167,
scooby_state_40245c|35|8 166,0,0,0,0,0,0,0,0,0,0,1,0,0,0,167,
scooby_state_40245c|26|-3 167,0,0,0,0,0,0,0,0,0,0,0,0,0,0,167,
scooby_state_40245c|47|4 167,0,0,0,0,0,0,0,0,0,0,0,0,0,0,167,
scooby_state_40245c|55|-8 167,0,0,0,0,0,0,0,0,0,0,0,0,0,0,167,
scooby_state_40245c|23|8 167,0,0,0,0,0,0,0,0,0,0,0,0,0,0,167,
scooby_state_40245c|24|-11 167,0,0,0,0,0,0,0,0,0,0,0,0,0,0,167,
scooby_state_40245c|36|-6 166,0,0,0,0,0,0,0,0,0,0,0,0,0,0,166,
scooby_state_40245c|15|10 166,0,0,0,0,0,0,0,0,0,0,0,0,0,0,166,
scooby_state_40245c|53|6 165,0,0,0,0,0,1,0,0,0,0,0,0,0,0,166,
scooby_state_40245c|46|-5 166,0,0,0,0,0,0,0,0,0,0,0,0,0,0,166,
scooby_state_40245c|57|3 166,0,0,0,0,0,0,0,0,0,0,0,0,0,0,166,
scooby_state_40245c|57|-5 166,0,0,0,0,0,0,0,0,0,0,0,0,0,0,166,
scooby_state_40245c|59|1 165,0,0,0,0,0,0,0,0,0,0,0,1,0,0,166,
scooby_state_40245c|48|3 165,0,1,0,0,0,0,0,0,0,0,0,0,0,0,166,
scooby_state_40245c|5|-5 165,0,0,0,0,0,0,0,0,0,1,0,0,0,0,166,
scooby_state_40245c|43|4 165,0,0,0,0,0,0,0,0,0,0,0,0,0,0,165,
scooby_state_40245c|42|-11 165,0,0,0,0,0,0,0,0,0,0,0,0,0,0,165,
scooby_state_40245c|5|-11 165,0,0,0,0,0,0,0,0,0,0,0,0,0,0,165,
scooby_state_40245c|43|6 165,0,0,0,0,0,0,0,0,0,0,0,0,0,0,165,
scooby_state_40245c|15|-6 165,0,0,0,0,0,0,0,0,0,0,0,0,0,0,165,
scooby_state_40245c|15|-5 164,1,0,0,0,0,0,0,0,0,0,0,0,0,0,165,
scooby_state_40245c|51|2 165,0,0,0,0,0,0,0,0,0,0,0,0,0,0,165,
scooby_state_40245c|9|6 165,0,0,0,0,0,0,0,0,0,0,0,0,0,0,165,
scooby_state_40245c|12|4 165,0,0,0,0,0,0,0,0,0,0,0,0,0,0,165,
scooby_state_40245c|17|4 165,0,0,0,0,0,0,0,0,0,0,0,0,0,0,165,
scooby_state_40245c|62|6 165,0,0,0,0,0,0,0,0,0,0,0,0,0,0,165,
scooby_state_40245c|7|-10 164,0,0,0,0,0,0,0,0,0,0,0,0,0,0,164,
scooby_state_40245c|22|10 163,0,0,0,1,0,0,0,0,0,0,0,0,0,0,164,
scooby_state_40245c|40|-8 164,0,0,0,0,0,0,0,0,0,0,0,0,0,0,164,
scooby_state_40245c|50|8 163,0,0,1,0,0,0,0,0,0,0,0,0,0,0,164,
scooby_state_40245c|43|-6 163,0,0,0,0,0,0,0,0,0,0,0,1,0,0,164,
scooby_state_40245c|51|-3 164,0,0,0,0,0,0,0,0,0,0,0,0,0,0,164,
scooby_state_40245c|19|1 163,0,0,0,0,0,0,1,0,0,0,0,0,0,0,164,
scooby_state_40245c|13|3 164,0,0,0,0,0,0,0,0,0,0,0,0,0,0,164,
scooby_state_40245c|53|-6 163,0,0,0,0,1,0,0,0,0,0,0,0,0,0,164,
scooby_state_40245c|50|1 164,0,0,0,0,0,0,0,0,0,0,0,0,0,0,164,
scooby_state_40245c|12|-8 162,0,0,0,0,0,0,0,0,0,0,0,1,0,0,163,
scooby_state_40245c|33|4 163,0,0,0,0,0,0,0,0,0,0,0,0,0,0,163,
scooby_state_40245c|6|1 163,0,0,0,0,0,0,0,0,0,0,0,0,0,0,163,
scooby_state_40245c|28|6 163,0,0,0,0,0,0,0,0,0,0,0,0,0,0,163,
scooby_state_40245c|16|-3 163,0,0,0,0,0,0,0,0,0,0,0,0,0,0,163,
scooby_state_40245c|14|8 163,0,0,0,0,0,0,0,0,0,0,0,0,0,0,163,
scooby_state_40245c|34|4 161,0,0,0,0,0,0,0,0,0,0,0,0,0,1,162,
scooby_state_40245c|35|-10 161,0,0,0,0,0,0,0,0,0,0,1,0,0,0,162,
scooby_state_40245c|29|-10 162,0,0,0,0,0,0,0,0,0,0,0,0,0,0,162,
scooby_state_40245c|63|3 162,0,0,0,0,0,0,0,0,0,0,0,0,0,0,162,
scooby_state_40245c|33|-10 162,0,0,0,0,0,0,0,0,0,0,0,0,0,0,162,
scooby_state_40245c|55|9 161,0,0,0,1,0,0,0,0,0,0,0,0,0,0,162,
scooby_state_40245c|31|-11 162,0,0,0,0,0,0,0,0,0,0,0,0,0,0,162,
scooby_state_40245c|30|4 162,0,0,0,0,0,0,0,0,0,0,0,0,0,0,162,
scooby_state_40245c|35|4 161,0,0,0,0,0,0,0,0,0,0,0,0,0,1,162,
scooby_state_40245c|24|8 160,0,0,0,0,0,0,0,0,0,1,1,0,0,0,162,
scooby_state_40245c|2|1 162,0,0,0,0,0,0,0,0,0,0,0,0,0,0,162,
scooby_state_40245c|10|6 161,0,0,0,0,0,1,0,0,0,0,0,0,0,0,162,
scooby_state_40245c|59|9 162,0,0,0,0,0,0,0,0,0,0,0,0,0,0,162,
scooby_state_40245c|42|8 162,0,0,0,0,0,0,0,0,0,0,0,0,0,0,162,
scooby_state_40245c|43|-5 161,0,0,0,0,0,0,0,0,0,0,0,0,0,0,161,
scooby_state_40245c|22|-10 161,0,0,0,0,0,0,0,0,0,0,0,0,0,0,161,
scooby_state_40245c|27|-3 161,0,0,0,0,0,0,0,0,0,0,0,0,0,0,161,
scooby_state_40245c|11|-12 161,0,0,0,0,0,0,0,0,0,0,0,0,0,0,161,
scooby_state_40245c|31|-3 161,0,0,0,0,0,0,0,0,0,0,0,0,0,0,161,
scooby_state_40245c|44|1 161,0,0,0,0,0,0,0,0,0,0,0,0,0,0,161,
scooby_state_40245c|24|6 161,0,0,0,0,0,0,0,0,0,0,0,0,0,0,161,
scooby_state_40245c|43|9 161,0,0,0,0,0,0,0,0,0,0,0,0,0,0,161,
scooby_state_40245c|51|1 160,0,0,0,0,0,0,0,0,0,0,0,0,0,0,160,
scooby_state_40245c|44|-6 160,0,0,0,0,0,0,0,0,0,0,0,0,0,0,160,
scooby_state_40245c|35|9 160,0,0,0,0,0,0,0,0,0,0,0,0,0,0,160,
scooby_state_40245c|22|-6 160,0,0,0,0,0,0,0,0,0,0,0,0,0,0,160,
scooby_state_40245c|17|2 160,0,0,0,0,0,0,0,0,0,0,0,0,0,0,160,
scooby_state_40245c|49|9 159,0,0,0,0,0,0,0,0,1,0,0,0,0,0,160,
scooby_state_40245c|25|-11 160,0,0,0,0,0,0,0,0,0,0,0,0,0,0,160,
scooby_state_40245c|7|-8 160,0,0,0,0,0,0,0,0,0,0,0,0,0,0,160,
scooby_state_40245c|14|6 159,0,0,0,0,0,1,0,0,0,0,0,0,0,0,160,
scooby_state_40245c|3|-6 159,1,0,0,0,0,0,0,0,0,0,0,0,0,0,160,
scooby_state_40245c|2|-5 159,0,0,0,0,0,0,0,0,0,0,0,0,0,0,159,
scooby_state_40245c|14|4 159,0,0,0,0,0,0,0,0,0,0,0,0,0,0,159,
scooby_state_40245c|9|-11 159,0,0,0,0,0,0,0,0,0,0,0,0,0,0,159,
scooby_state_40245c|55|8 159,0,0,0,0,0,0,0,0,0,0,0,0,0,0,159,
scooby_state_40245c|13|4 159,0,0,0,0,0,0,0,0,0,0,0,0,0,0,159,
scooby_state_40245c|40|-11 158,0,0,0,1,0,0,0,0,0,0,0,0,0,0,159,
scooby_state_40245c|53|8 158,1,0,0,0,0,0,0,0,0,0,0,0,0,0,159,
scooby_state_40245c|63|8 159,0,0,0,0,0,0,0,0,0,0,0,0,0,0,159,
scooby_state_40245c|18|6 159,0,0,0,0,0,0,0,0,0,0,0,0,0,0,159,
scooby_state_40245c|59|-3 158,0,0,0,0,0,0,0,0,0,0,0,0,0,0,158,
scooby_state_40245c|51|-11 158,0,0,0,0,0,0,0,0,0,0,0,0,0,0,158,
scooby_state_40245c|47|-11 158,0,0,0,0,0,0,0,0,0,0,0,0,0,0,158,
scooby_state_40245c|27|4 158,0,0,0,0,0,0,0,0,0,0,0,0,0,0,158,
scooby_state_40245c|59|6 158,0,0,0,0,0,0,0,0,0,0,0,0,0,0,158,
scooby_state_40245c|42|-6 158,0,0,0,0,0,0,0,0,0,0,0,0,0,0,158,
scooby_state_40245c|34|8 158,0,0,0,0,0,0,0,0,0,0,0,0,0,0,158,
scooby_state_40245c|26|-10 158,0,0,0,0,0,0,0,0,0,0,0,0,0,0,158,
scooby_state_40245c|49|1 158,0,0,0,0,0,0,0,0,0,0,0,0,0,0,158,
scooby_state_40245c|57|6 157,0,0,0,0,0,0,0,0,0,0,0,0,0,0,157,
scooby_state_40245c|15|-11 157,0,0,0,0,0,0,0,0,0,0,0,0,0,0,157,
scooby_state_40245c|57|8 157,0,0,0,0,0,0,0,0,0,0,0,0,0,0,157,
scooby_state_40245c|31|-10 157,0,0,0,0,0,0,0,0,0,0,0,0,0,0,157,
scooby_state_40245c|33|-11 156,0,0,0,0,0,0,1,0,0,0,0,0,0,0,157,
scooby_state_40245c|56|1 157,0,0,0,0,0,0,0,0,0,0,0,0,0,0,157,
scooby_state_40245c|21|-10 157,0,0,0,0,0,0,0,0,0,0,0,0,0,0,157,
scooby_state_40245c|57|4 157,0,0,0,0,0,0,0,0,0,0,0,0,0,0,157,
scooby_state_40245c|32|9 157,0,0,0,0,0,0,0,0,0,0,0,0,0,0,157,
scooby_state_40245c|18|3 156,0,0,0,0,1,0,0,0,0,0,0,0,0,0,157,
scooby_state_40245c|19|-3 155,0,0,1,0,0,0,0,0,0,1,0,0,0,0,157,
scooby_state_40245c|16|-6 154,1,0,0,0,0,0,0,1,0,0,0,1,0,0,157,
scooby_state_40245c|44|-3 157,0,0,0,0,0,0,0,0,0,0,0,0,0,0,157,
scooby_state_40245c|29|-5 156,1,0,0,0,0,0,0,0,0,0,0,0,0,0,157,
scooby_state_40245c|14|-6 155,0,0,0,0,0,0,1,0,0,0,0,0,0,0,156,
scooby_state_40245c|23|4 156,0,0,0,0,0,0,0,0,0,0,0,0,0,0,156,
scooby_state_40245c|47|9 156,0,0,0,0,0,0,0,0,0,0,0,0,0,0,156,
scooby_state_40245c|40|9 155,0,0,0,0,0,0,0,0,0,0,1,0,0,0,156,
scooby_state_40245c|38|1 156,0,0,0,0,0,0,0,0,0,0,0,0,0,0,156,
scooby_state_40245c|27|-10 156,0,0,0,0,0,0,0,0,0,0,0,0,0,0,156,
scooby_state_40245c|8|-11 156,0,0,0,0,0,0,0,0,0,0,0,0,0,0,156,
scooby_state_40245c|31|3 156,0,0,0,0,0,0,0,0,0,0,0,0,0,0,156,
scooby_state_40245c|52|9 156,0,0,0,0,0,0,0,0,0,0,0,0,0,0,156,
scooby_state_40245c|45|-10 156,0,0,0,0,0,0,0,0,0,0,0,0,0,0,156,
scooby_state_40245c|10|8 156,0,0,0,0,0,0,0,0,0,0,0,0,0,0,156,
scooby_state_40245c|48|-3 155,0,0,1,0,0,0,0,0,0,0,0,0,0,0,156,
scooby_state_40245c|30|1 156,0,0,0,0,0,0,0,0,0,0,0,0,0,0,156,
scooby_state_40245c|13|-5 156,0,0,0,0,0,0,0,0,0,0,0,0,0,0,156,
scooby_state_40245c|9|-6 155,0,0,0,0,0,0,0,0,0,0,0,0,0,0,155,
scooby_state_40245c|25|-3 154,0,0,1,0,0,0,0,0,0,0,0,0,0,0,155,
scooby_state_40245c|50|10 155,0,0,0,0,0,0,0,0,0,0,0,0,0,0,155,
scooby_state_40245c|21|-11 155,0,0,0,0,0,0,0,0,0,0,0,0,0,0,155,
scooby_state_40245c|48|2 155,0,0,0,0,0,0,0,0,0,0,0,0,0,0,155,
scooby_state_40245c|38|8 155,0,0,0,0,0,0,0,0,0,0,0,0,0,0,155,
scooby_state_40245c|40|4 155,0,0,0,0,0,0,0,0,0,0,0,0,0,0,155,
scooby_state_40245c|39|-10 155,0,0,0,0,0,0,0,0,0,0,0,0,0,0,155,
scooby_state_40245c|21|2 154,0,0,0,0,0,0,0,0,0,1,0,0,0,0,155,
scooby_state_40245c|21|-5 155,0,0,0,0,0,0,0,0,0,0,0,0,0,0,155,
scooby_state_40245c|9|-54 155,0,0,0,0,0,0,0,0,0,0,0,0,0,0,155,
scooby_state_40245c|0|-6 155,0,0,0,0,0,0,0,0,0,0,0,0,0,0,155,
scooby_state_40245c|19|9 154,0,0,0,0,0,1,0,0,0,0,0,0,0,0,155,
scooby_state_40245c|12|2 155,0,0,0,0,0,0,0,0,0,0,0,0,0,0,155,
scooby_state_40245c|52|-5 155,0,0,0,0,0,0,0,0,0,0,0,0,0,0,155,
scooby_state_40245c|10|-8 154,0,0,0,0,0,0,0,0,0,0,0,0,0,0,154,
scooby_state_40245c|24|-6 154,0,0,0,0,0,0,0,0,0,0,0,0,0,0,154,
scooby_state_40245c|37|8 154,0,0,0,0,0,0,0,0,0,0,0,0,0,0,154,
scooby_state_40245c|50|-6 152,0,0,0,0,0,1,0,0,1,0,0,0,0,0,154,
scooby_state_40245c|49|8 154,0,0,0,0,0,0,0,0,0,0,0,0,0,0,154,
scooby_state_40245c|14|-3 154,0,0,0,0,0,0,0,0,0,0,0,0,0,0,154,
scooby_state_40245c|24|3 154,0,0,0,0,0,0,0,0,0,0,0,0,0,0,154,
scooby_state_40245c|22|1 153,0,0,0,0,0,0,0,0,0,0,0,1,0,0,154,
scooby_state_40245c|53|4 154,0,0,0,0,0,0,0,0,0,0,0,0,0,0,154,
scooby_state_40245c|43|3 153,0,0,0,0,0,0,0,0,0,0,0,0,0,1,154,
scooby_state_40245c|5|-8 154,0,0,0,0,0,0,0,0,0,0,0,0,0,0,154,
scooby_state_40245c|20|1 154,0,0,0,0,0,0,0,0,0,0,0,0,0,0,154,
scooby_state_40245c|15|-10 154,0,0,0,0,0,0,0,0,0,0,0,0,0,0,154,
scooby_state_40244f|11|2 70,3,0,3,6,3,1,0,1,1,6,38,2,2,18,154,
scooby_state_40245c|49|-14 153,0,0,0,0,0,0,0,0,0,0,0,0,0,0,153,
scooby_state_40245c|49|3 153,0,0,0,0,0,0,0,0,0,0,0,0,0,0,153,
scooby_state_40245c|13|-11 153,0,0,0,0,0,0,0,0,0,0,0,0,0,0,153,
scooby_state_40245c|27|8 153,0,0,0,0,0,0,0,0,0,0,0,0,0,0,153,
scooby_state_40245c|44|8 153,0,0,0,0,0,0,0,0,0,0,0,0,0,0,153,
scooby_state_40245c|10|10 153,0,0,0,0,0,0,0,0,0,0,0,0,0,0,153,
scooby_state_40245c|56|6 153,0,0,0,0,0,0,0,0,0,0,0,0,0,0,153,
scooby_state_40245c|8|3 152,0,0,0,0,0,0,0,0,0,0,1,0,0,0,153,
scooby_state_40245c|12|-6 153,0,0,0,0,0,0,0,0,0,0,0,0,0,0,153,
scooby_state_40245c|16|-11 153,0,0,0,0,0,0,0,0,0,0,0,0,0,0,153,
scooby_state_40245c|16|1 152,0,0,0,0,0,0,0,0,0,0,0,0,0,0,152,
scooby_state_40245c|41|-11 150,0,0,0,0,0,1,0,0,0,0,0,0,0,1,152,
scooby_state_40245c|4|-11 151,0,1,0,0,0,0,0,0,0,0,0,0,0,0,152,
scooby_state_40245c|43|10 151,0,0,0,0,1,0,0,0,0,0,0,0,0,0,152,
scooby_state_40245c|46|8 151,0,0,0,0,0,0,0,0,0,0,0,0,0,1,152,
scooby_state_40245c|25|-10 152,0,0,0,0,0,0,0,0,0,0,0,0,0,0,152,
scooby_state_40245c|23|-8 152,0,0,0,0,0,0,0,0,0,0,0,0,0,0,152,
scooby_state_40245c|3|-11 152,0,0,0,0,0,0,0,0,0,0,0,0,0,0,152,
scooby_state_40245c|38|3 152,0,0,0,0,0,0,0,0,0,0,0,0,0,0,152,
scooby_state_40245c|14|-11 151,0,0,0,0,0,0,0,0,0,1,0,0,0,0,152,
scooby_state_40245c|63|6 149,0,0,0,1,0,1,0,0,0,0,0,0,0,0,151,
scooby_state_40245c|20|9 151,0,0,0,0,0,0,0,0,0,0,0,0,0,0,151,
scooby_state_40245c|28|3 151,0,0,0,0,0,0,0,0,0,0,0,0,0,0,151,
scooby_state_40245c|10|-11 151,0,0,0,0,0,0,0,0,0,0,0,0,0,0,151,
scooby_state_40245c|32|-12 151,0,0,0,0,0,0,0,0,0,0,0,0,0,0,151,
scooby_state_40245c|12|9 151,0,0,0,0,0,0,0,0,0,0,0,0,0,0,151,
scooby_state_40245c|19|-5 151,0,0,0,0,0,0,0,0,0,0,0,0,0,0,151,
scooby_state_40245c|52|3 151,0,0,0,0,0,0,0,0,0,0,0,0,0,0,151,
scooby_state_40245c|59|10 150,0,0,0,0,0,0,0,0,1,0,0,0,0,0,151,
scooby_state_40245c|16|3 150,0,0,0,0,0,0,0,0,0,0,0,0,0,0,150,
scooby_state_40245c|63|9 150,0,0,0,0,0,0,0,0,0,0,0,0,0,0,150,
scooby_state_40245c|29|-3 150,0,0,0,0,0,0,0,0,0,0,0,0,0,0,150,
scooby_state_40245c|45|-11 149,0,0,0,0,0,0,0,1,0,0,0,0,0,0,150,
scooby_state_40245c|42|9 150,0,0,0,0,0,0,0,0,0,0,0,0,0,0,150,
scooby_state_40245c|25|-5 150,0,0,0,0,0,0,0,0,0,0,0,0,0,0,150,
scooby_state_40245c|61|3 150,0,0,0,0,0,0,0,0,0,0,0,0,0,0,150,
scooby_state_40245c|45|-3 150,0,0,0,0,0,0,0,0,0,0,0,0,0,0,150,
scooby_state_40245c|63|2 149,0,0,0,1,0,0,0,0,0,0,0,0,0,0,150,
scooby_state_40245c|26|-6 150,0,0,0,0,0,0,0,0,0,0,0,0,0,0,150,
scooby_state_40245c|17|-5 150,0,0,0,0,0,0,0,0,0,0,0,0,0,0,150,
scooby_state_40245c|16|4 148,0,0,0,1,0,0,0,0,0,0,0,0,0,0,149,
scooby_state_40245c|29|-11 149,0,0,0,0,0,0,0,0,0,0,0,0,0,0,149,
scooby_state_40245c|34|2 148,0,1,0,0,0,0,0,0,0,0,0,0,0,0,149,
scooby_state_40245c|54|-3 149,0,0,0,0,0,0,0,0,0,0,0,0,0,0,149,
scooby_state_40245c|13|-3 149,0,0,0,0,0,0,0,0,0,0,0,0,0,0,149,
scooby_state_40245c|5|3 149,0,0,0,0,0,0,0,0,0,0,0,0,0,0,149,
scooby_state_40245c|53|-5 148,0,0,0,0,0,0,0,0,0,0,0,0,0,1,149,
scooby_state_40245c|2|-3 149,0,0,0,0,0,0,0,0,0,0,0,0,0,0,149,
scooby_state_40245c|36|4 149,0,0,0,0,0,0,0,0,0,0,0,0,0,0,149,
scooby_state_40245c|43|1 149,0,0,0,0,0,0,0,0,0,0,0,0,0,0,149,
scooby_state_40245c|32|10 148,0,0,1,0,0,0,0,0,0,0,0,0,0,0,149,
scooby_state_40245c|20|-10 149,0,0,0,0,0,0,0,0,0,0,0,0,0,0,149,
scooby_state_40245c|54|-5 148,1,0,0,0,0,0,0,0,0,0,0,0,0,0,149,
scooby_state_40245c|31|2 149,0,0,0,0,0,0,0,0,0,0,0,0,0,0,149,
scooby_state_40245c|31|1 148,0,0,0,0,0,0,0,0,0,0,1,0,0,0,149,
scooby_state_40245c|61|9 148,0,0,0,0,0,0,0,0,0,0,0,0,0,0,148,
scooby_state_40245c|2|-11 148,0,0,0,0,0,0,0,0,0,0,0,0,0,0,148,
scooby_state_40245c|30|-5 147,0,0,0,0,0,0,0,0,0,0,1,0,0,0,148,
scooby_state_40245c|30|-3 148,0,0,0,0,0,0,0,0,0,0,0,0,0,0,148,
scooby_state_40245c|25|8 148,0,0,0,0,0,0,0,0,0,0,0,0,0,0,148,
scooby_state_40245c|31|6 148,0,0,0,0,0,0,0,0,0,0,0,0,0,0,148,
scooby_state_40245c|44|-10 148,0,0,0,0,0,0,0,0,0,0,0,0,0,0,148,
scooby_state_40245c|61|10 148,0,0,0,0,0,0,0,0,0,0,0,0,0,0,148,
scooby_state_40244f|63|2 84,2,3,1,5,1,1,0,6,0,0,24,2,1,18,148,
scooby_state_40245c|30|-8 147,0,0,0,0,0,0,0,1,0,0,0,0,0,0,148,
scooby_state_40245c|46|2 145,0,0,0,0,0,1,0,0,0,0,0,0,0,1,147,
scooby_state_40245c|22|8 147,0,0,0,0,0,0,0,0,0,0,0,0,0,0,147,
scooby_state_40245c|38|-5 145,0,0,0,0,0,1,0,0,0,0,1,0,0,0,147,
scooby_state_404fc0|25|0 59,22,4,4,5,3,3,1,4,4,1,24,4,3,6,147,
scooby_state_40245c|49|-12 147,0,0,0,0,0,0,0,0,0,0,0,0,0,0,147,
scooby_state_40245c|37|10 147,0,0,0,0,0,0,0,0,0,0,0,0,0,0,147,
scooby_state_40245c|34|-5 146,0,0,0,0,0,1,0,0,0,0,0,0,0,0,147,
scooby_state_40245c|46|-6 145,0,0,0,0,0,0,0,1,0,0,0,0,1,0,147,
scooby_state_40245c|45|1 147,0,0,0,0,0,0,0,0,0,0,0,0,0,0,147,
scooby_state_40245c|17|-3 147,0,0,0,0,0,0,0,0,0,0,0,0,0,0,147,
scooby_state_40245c|49|-10 147,0,0,0,0,0,0,0,0,0,0,0,0,0,0,147,
scooby_state_40245c|51|-7 147,0,0,0,0,0,0,0,0,0,0,0,0,0,0,147,
scooby_state_40245c|51|9 147,0,0,0,0,0,0,0,0,0,0,0,0,0,0,147,
scooby_state_40245c|47|-16 144,0,0,0,2,0,0,0,0,0,0,1,0,0,0,147,
scooby_state_40245c|16|-5 147,0,0,0,0,0,0,0,0,0,0,0,0,0,0,147,
scooby_state_40245c|0|-11 145,0,0,1,0,0,0,0,0,0,0,0,0,0,0,146,
scooby_state_40245c|18|-8 146,0,0,0,0,0,0,0,0,0,0,0,0,0,0,146,
scooby_state_40245c|36|2 146,0,0,0,0,0,0,0,0,0,0,0,0,0,0,146,
scooby_state_40245c|46|6 145,0,0,0,0,0,0,0,1,0,0,0,0,0,0,146,
scooby_state_40245c|29|8 146,0,0,0,0,0,0,0,0,0,0,0,0,0,0,146,
scooby_state_40245c|46|-8 146,0,0,0,0,0,0,0,0,0,0,0,0,0,0,146,
scooby_state_40245c|59|2 146,0,0,0,0,0,0,0,0,0,0,0,0,0,0,146,
scooby_state_40245c|26|-5 146,0,0,0,0,0,0,0,0,0,0,0,0,0,0,146,
scooby_state_40245c|34|10 146,0,0,0,0,0,0,0,0,0,0,0,0,0,0,146,
scooby_state_40245c|11|-10 146,0,0,0,0,0,0,0,0,0,0,0,0,0,0,146,
scooby_state_40245c|12|3 145,0,0,0,0,0,0,0,0,0,0,0,0,0,0,145,
scooby_state_40245c|37|-10 145,0,0,0,0,0,0,0,0,0,0,0,0,0,0,145,
scooby_state_40245c|40|-3 144,0,0,0,0,0,1,0,0,0,0,0,0,0,0,145,
scooby_state_40245c|21|6 145,0,0,0,0,0,0,0,0,0,0,0,0,0,0,145,
scooby_state_40245c|16|8 145,0,0,0,0,0,0,0,0,0,0,0,0,0,0,145,
scooby_state_40245c|39|-5 144,0,0,0,0,0,0,0,1,0,0,0,0,0,0,145,
scooby_state_40245c|42|4 145,0,0,0,0,0,0,0,0,0,0,0,0,0,0,145,
scooby_state_40245c|10|2 144,0,0,0,0,0,0,1,0,0,0,0,0,0,0,145,
[...]
scooby_state_402446|30|-24 1,0,0,0,0,0,0,0,0,0,0,0,0,0,0,1,
scooby_state_402443|23|-39 1,0,0,0,0,0,0,0,0,0,0,0,0,0,0,1,
scooby_state_407045|14|-30 1,0,0,0,0,0,0,0,0,0,0,0,0,0,0,1,
scooby_state_402440|61|25 0,0,0,0,0,0,0,0,0,0,0,1,0,0,0,1,
scooby_state_402446|16|-22 1,0,0,0,0,0,0,0,0,0,0,0,0,0,0,1,
scooby_state_402440|15|-39 0,0,0,0,0,0,0,0,0,0,0,1,0,0,0,1,
scooby_state_40245e|25|-16 0,0,0,0,0,0,0,0,0,0,0,1,0,0,0,1,
scooby_state_402446|52|5 0,0,0,0,0,0,0,0,0,0,0,1,0,0,0,1,
scooby_state_402440|57|16 1,0,0,0,0,0,0,0,0,0,0,0,0,0,0,1,
scooby_state_402446|37|1 1,0,0,0,0,0,0,0,0,0,0,0,0,0,0,1,
scooby_state_402443|50|16 1,0,0,0,0,0,0,0,0,0,0,0,0,0,0,1,
scooby_state_402440|26|-31 0,0,0,0,0,0,0,0,0,0,0,1,0,0,0,1,
scooby_state_40245e|25|-31 1,0,0,0,0,0,0,0,0,0,0,0,0,0,0,1,
scooby_state_402440|10|-46 1,0,0,0,0,0,0,0,0,0,0,0,0,0,0,1,
scooby_state_402443|9|-32 1,0,0,0,0,0,0,0,0,0,0,0,0,0,0,1,
scooby_state_402443|59|45 1,0,0,0,0,0,0,0,0,0,0,0,0,0,0,1,
scooby_state_402443|12|-47 1,0,0,0,0,0,0,0,0,0,0,0,0,0,0,1,
scooby_state_402446|7|-7 0,0,0,0,0,0,0,0,0,0,0,1,0,0,0,1,
scooby_state_402440|11|-50 1,0,0,0,0,0,0,0,0,0,0,0,0,0,0,1,
scooby_state_402440|61|51 1,0,0,0,0,0,0,0,0,0,0,0,0,0,0,1,
scooby_state_402446|0|-52 0,0,0,0,0,0,0,0,0,0,0,1,0,0,0,1,
scooby_state_402443|57|22 1,0,0,0,0,0,0,0,0,0,0,0,0,0,0,1,
scooby_state_402446|46|33 0,0,0,0,0,0,0,0,0,0,0,1,0,0,0,1,
scooby_state_402440|47|35 1,0,0,0,0,0,0,0,0,0,0,0,0,0,0,1,
scooby_state_402443|35|31 1,0,0,0,0,0,0,0,0,0,0,0,0,0,0,1,
scooby_state_402446|19|-35 0,0,0,0,0,0,0,0,0,0,0,1,0,0,0,1,
scooby_state_402446|62|62 0,0,0,0,0,0,0,0,0,0,0,1,0,0,0,1,
scooby_state_402440|56|52 1,0,0,0,0,0,0,0,0,0,0,0,0,0,0,1,
scooby_state_402443|45|-8 1,0,0,0,0,0,0,0,0,0,0,0,0,0,0,1,
scooby_state_402440|50|11 0,0,0,0,0,0,0,0,0,0,0,1,0,0,0,1,
scooby_state_402443|13|-14 1,0,0,0,0,0,0,0,0,0,0,0,0,0,0,1,
scooby_state_402440|1|-13 1,0,0,0,0,0,0,0,0,0,0,0,0,0,0,1,
scooby_state_402443|35|13 1,0,0,0,0,0,0,0,0,0,0,0,0,0,0,1,
scooby_state_402443|10|2 1,0,0,0,0,0,0,0,0,0,0,0,0,0,0,1,
scooby_state_402443|42|36 1,0,0,0,0,0,0,0,0,0,0,0,0,0,0,1,
scooby_state_405d41|53|1 1,0,0,0,0,0,0,0,0,0,0,0,0,0,0,1,
scooby_state_402440|7|-32 0,0,0,0,0,0,0,0,0,0,0,1,0,0,0,1,
scooby_state_407045|4|-3 1,0,0,0,0,0,0,0,0,0,0,0,0,0,0,1,
scooby_state_402443|39|28 1,0,0,0,0,0,0,0,0,0,0,0,0,0,0,1,
scooby_state_402440|34|28 1,0,0,0,0,0,0,0,0,0,0,0,0,0,0,1,
scooby_state_402443|2|-30 1,0,0,0,0,0,0,0,0,0,0,0,0,0,0,1,
scooby_state_402446|33|-22 0,0,0,0,0,0,0,0,0,0,0,1,0,0,0,1,
scooby_state_402440|24|18 1,0,0,0,0,0,0,0,0,0,0,0,0,0,0,1,
scooby_state_402440|29|10 1,0,0,0,0,0,0,0,0,0,0,0,0,0,0,1,
scooby_state_402443|32|21 1,0,0,0,0,0,0,0,0,0,0,0,0,0,0,1,
scooby_state_402446|14|-40 0,0,0,0,0,0,0,0,0,0,0,1,0,0,0,1,
scooby_state_402443|33|19 1,0,0,0,0,0,0,0,0,0,0,0,0,0,0,1,
scooby_state_402443|48|27 1,0,0,0,0,0,0,0,0,0,0,0,0,0,0,1,
scooby_state_402440|49|29 1,0,0,0,0,0,0,0,0,0,0,0,0,0,0,1,
scooby_state_402446|25|-21 0,0,0,0,0,0,0,0,0,0,0,1,0,0,0,1,
scooby_state_402443|34|31 1,0,0,0,0,0,0,0,0,0,0,0,0,0,0,1,
scooby_state_402446|25|1 1,0,0,0,0,0,0,0,0,0,0,0,0,0,0,1,
scooby_state_402446|58|58 0,0,0,0,0,0,0,0,0,0,0,1,0,0,0,1,
scooby_state_402440|15|-21 0,0,0,0,0,0,0,0,0,0,0,1,0,0,0,1,
scooby_state_402443|4|-24 1,0,0,0,0,0,0,0,0,0,0,0,0,0,0,1,
scooby_state_40245e|8|8 1,0,0,0,0,0,0,0,0,0,0,0,0,0,0,1,
scooby_state_402446|42|33 0,0,0,0,0,0,0,0,0,0,0,1,0,0,0,1,
scooby_state_402443|28|-11 1,0,0,0,0,0,0,0,0,0,0,0,0,0,0,1,
scooby_state_40245e|12|6 1,0,0,0,0,0,0,0,0,0,0,0,0,0,0,1,
scooby_state_402443|59|31 1,0,0,0,0,0,0,0,0,0,0,0,0,0,0,1,
scooby_state_402446|16|-47 0,0,0,0,0,0,0,0,0,0,0,1,0,0,0,1,
scooby_state_40245e|22|10 1,0,0,0,0,0,0,0,0,0,0,0,0,0,0,1,
scooby_state_402446|22|-11 1,0,0,0,0,0,0,0,0,0,0,0,0,0,0,1,
scooby_state_404fc0|25|-2 1,0,0,0,0,0,0,0,0,0,0,0,0,0,0,1,
scooby_state_402443|56|19 1,0,0,0,0,0,0,0,0,0,0,0,0,0,0,1,
scooby_state_40245e|2|-18 1,0,0,0,0,0,0,0,0,0,0,0,0,0,0,1,
scooby_state_40245e|39|-18 1,0,0,0,0,0,0,0,0,0,0,0,0,0,0,1,
scooby_state_402443|63|14 1,0,0,0,0,0,0,0,0,0,0,0,0,0,0,1,
scooby_state_402443|30|-10 1,0,0,0,0,0,0,0,0,0,0,0,0,0,0,1,
scooby_state_402446|47|12 0,0,0,0,0,0,0,0,0,0,0,1,0,0,0,1,
scooby_state_407045|22|-21 1,0,0,0,0,0,0,0,0,0,0,0,0,0,0,1,
scooby_state_402440|38|38 0,0,0,0,0,0,0,0,0,0,0,1,0,0,0,1,
scooby_state_402443|11|9 1,0,0,0,0,0,0,0,0,0,0,0,0,0,0,1,
scooby_state_402446|38|25 0,0,0,0,0,0,0,0,0,0,0,1,0,0,0,1,
scooby_state_402443|18|-5 1,0,0,0,0,0,0,0,0,0,0,0,0,0,0,1,
scooby_state_402443|6|-16 1,0,0,0,0,0,0,0,0,0,0,0,0,0,0,1,
scooby_state_402440|30|-29 0,0,0,0,0,0,0,0,0,0,0,1,0,0,0,1,
scooby_state_402443|31|-31 1,0,0,0,0,0,0,0,0,0,0,0,0,0,0,1,
scooby_state_402443|40|31 1,0,0,0,0,0,0,0,0,0,0,0,0,0,0,1,
scooby_state_402440|2|-31 1,0,0,0,0,0,0,0,0,0,0,0,0,0,0,1,
scooby_state_4084af|14|6 1,0,0,0,0,0,0,0,0,0,0,0,0,0,0,1,
scooby_state_402440|44|-15 1,0,0,0,0,0,0,0,0,0,0,0,0,0,0,1,
scooby_state_402446|9|2 1,0,0,0,0,0,0,0,0,0,0,0,0,0,0,1,
scooby_state_402446|14|-17 0,0,0,0,0,0,0,0,0,0,0,1,0,0,0,1,
scooby_state_402443|34|25 1,0,0,0,0,0,0,0,0,0,0,0,0,0,0,1,
scooby_state_402446|7|-45 1,0,0,0,0,0,0,0,0,0,0,0,0,0,0,1,
scooby_state_402443|47|30 1,0,0,0,0,0,0,0,0,0,0,0,0,0,0,1,
scooby_state_402446|22|-33 0,0,0,0,0,0,0,0,0,0,0,1,0,0,0,1,
scooby_state_402443|55|10 1,0,0,0,0,0,0,0,0,0,0,0,0,0,0,1,
scooby_state_402443|51|1 1,0,0,0,0,0,0,0,0,0,0,0,0,0,0,1,
scooby_state_402446|4|2 1,0,0,0,0,0,0,0,0,0,0,0,0,0,0,1,
scooby_state_402443|7|-14 1,0,0,0,0,0,0,0,0,0,0,0,0,0,0,1,
scooby_state_402443|15|13 1,0,0,0,0,0,0,0,0,0,0,0,0,0,0,1,
scooby_state_402443|53|11 1,0,0,0,0,0,0,0,0,0,0,0,0,0,0,1,
scooby_state_402443|33|-3 1,0,0,0,0,0,0,0,0,0,0,0,0,0,0,1,
scooby_state_402446|59|31 0,0,0,0,0,0,0,0,0,0,0,1,0,0,0,1,
scooby_state_402443|27|-13 1,0,0,0,0,0,0,0,0,0,0,0,0,0,0,1,
scooby_state_402443|3|-48 1,0,0,0,0,0,0,0,0,0,0,0,0,0,0,1,
scooby_state_402443|58|49 1,0,0,0,0,0,0,0,0,0,0,0,0,0,0,1,
scooby_state_402440|1|-52 0,0,0,0,0,0,0,0,0,0,0,1,0,0,0,1,
scooby_state_402440|49|-5 1,0,0,0,0,0,0,0,0,0,0,0,0,0,0,1,
scooby_state_402443|37|33 1,0,0,0,0,0,0,0,0,0,0,0,0,0,0,1,
scooby_state_402440|48|39 0,0,0,0,0,0,0,0,0,0,0,1,0,0,0,1,
scooby_state_404ec3|59|1 1,0,0,0,0,0,0,0,0,0,0,0,0,0,0,1,
scooby_state_40245e|57|52 1,0,0,0,0,0,0,0,0,0,0,0,0,0,0,1,
scooby_state_402440|12|-26 1,0,0,0,0,0,0,0,0,0,0,0,0,0,0,1,
scooby_state_402440|42|41 1,0,0,0,0,0,0,0,0,0,0,0,0,0,0,1,
scooby_state_402440|44|42 1,0,0,0,0,0,0,0,0,0,0,0,0,0,0,1,
scooby_state_402443|58|34 1,0,0,0,0,0,0,0,0,0,0,0,0,0,0,1,
scooby_state_402446|52|41 0,0,0,0,0,0,0,0,0,0,0,1,0,0,0,1,
scooby_state_402443|43|17 1,0,0,0,0,0,0,0,0,0,0,0,0,0,0,1,
scooby_state_402443|39|-10 1,0,0,0,0,0,0,0,0,0,0,0,0,0,0,1,
scooby_state_402443|13|-5 1,0,0,0,0,0,0,0,0,0,0,0,0,0,0,1,
scooby_state_402443|31|-22 0,0,0,0,0,0,0,0,0,0,0,1,0,0,0,1,
scooby_state_402443|12|-40 1,0,0,0,0,0,0,0,0,0,0,0,0,0,0,1,
scooby_state_402446|12|7 0,0,0,0,0,0,0,0,0,0,0,1,0,0,0,1,
scooby_state_40245e|29|-26 1,0,0,0,0,0,0,0,0,0,0,0,0,0,0,1,
scooby_state_40245e|33|25 1,0,0,0,0,0,0,0,0,0,0,0,0,0,0,1,
scooby_state_402446|42|11 1,0,0,0,0,0,0,0,0,0,0,0,0,0,0,1,
scooby_state_402443|27|24 1,0,0,0,0,0,0,0,0,0,0,0,0,0,0,1,
scooby_state_40245e|51|6 1,0,0,0,0,0,0,0,0,0,0,0,0,0,0,1,
scooby_state_402443|33|26 1,0,0,0,0,0,0,0,0,0,0,0,0,0,0,1,
scooby_state_40245e|7|-20 1,0,0,0,0,0,0,0,0,0,0,0,0,0,0,1,
scooby_state_402446|1|-36 0,0,0,0,0,0,0,0,0,0,0,1,0,0,0,1,
scooby_state_402443|49|16 1,0,0,0,0,0,0,0,0,0,0,0,0,0,0,1,
scooby_state_402440|13|-48 1,0,0,0,0,0,0,0,0,0,0,0,0,0,0,1,
scooby_state_4075c4|23|1 1,0,0,0,0,0,0,0,0,0,0,0,0,0,0,1,
scooby_state_402443|28|-7 1,0,0,0,0,0,0,0,0,0,0,0,0,0,0,1,
scooby_state_402446|5|-55 0,0,0,0,0,0,0,0,0,0,0,1,0,0,0,1,
scooby_state_40245e|11|3 1,0,0,0,0,0,0,0,0,0,0,0,0,0,0,1,
scooby_state_402440|57|42 0,0,0,0,0,0,0,0,0,0,0,1,0,0,0,1,
scooby_state_402443|56|27 1,0,0,0,0,0,0,0,0,0,0,0,0,0,0,1,
scooby_state_4084b0|36|-4 1,0,0,0,0,0,0,0,0,0,0,0,0,0,0,1,
scooby_state_407045|8|-14 1,0,0,0,0,0,0,0,0,0,0,0,0,0,0,1,
scooby_state_402440|19|-27 1,0,0,0,0,0,0,0,0,0,0,0,0,0,0,1,
scooby_state_402440|7|-44 1,0,0,0,0,0,0,0,0,0,0,0,0,0,0,1,
scooby_state_402443|24|-18 1,0,0,0,0,0,0,0,0,0,0,0,0,0,0,1,
scooby_state_402443|0|-57 1,0,0,0,0,0,0,0,0,0,0,0,0,0,0,1,
scooby_state_40245e|21|-25 1,0,0,0,0,0,0,0,0,0,0,0,0,0,0,1,
scooby_state_402440|50|15 1,0,0,0,0,0,0,0,0,0,0,0,0,0,0,1,
scooby_state_402443|60|32 1,0,0,0,0,0,0,0,0,0,0,0,0,0,0,1,
scooby_state_402446|2|-35 1,0,0,0,0,0,0,0,0,0,0,0,0,0,0,1,
scooby_state_402440|3|-29 0,0,0,0,0,0,0,0,0,0,0,1,0,0,0,1,
scooby_state_402446|10|-41 0,0,0,0,0,0,0,0,0,0,0,1,0,0,0,1,
scooby_state_402440|11|-52 0,0,0,0,0,0,0,0,0,0,0,1,0,0,0,1,
scooby_state_402446|46|15 0,0,0,0,0,0,0,0,0,0,0,1,0,0,0,1,
scooby_state_402440|7|-17 1,0,0,0,0,0,0,0,0,0,0,0,0,0,0,1,
scooby_state_402440|11|-49 1,0,0,0,0,0,0,0,0,0,0,0,0,0,0,1,
scooby_state_407045|51|-2 1,0,0,0,0,0,0,0,0,0,0,0,0,0,0,1,
scooby_state_402443|25|-27 1,0,0,0,0,0,0,0,0,0,0,0,0,0,0,1,
scooby_state_402443|46|19 1,0,0,0,0,0,0,0,0,0,0,0,0,0,0,1,
scooby_state_402446|2|-28 0,0,0,0,0,0,0,0,0,0,0,1,0,0,0,1,
scooby_state_402440|56|44 1,0,0,0,0,0,0,0,0,0,0,0,0,0,0,1,
scooby_state_402440|13|-44 1,0,0,0,0,0,0,0,0,0,0,0,0,0,0,1,
scooby_state_4083ed|15|-3 1,0,0,0,0,0,0,0,0,0,0,0,0,0,0,1,
scooby_state_40245e|62|44 1,0,0,0,0,0,0,0,0,0,0,0,0,0,0,1,
scooby_state_402446|58|51 0,0,0,0,0,0,0,0,0,0,0,1,0,0,0,1,
scooby_state_402443|23|-7 1,0,0,0,0,0,0,0,0,0,0,0,0,0,0,1,
scooby_state_407045|3|-23 1,0,0,0,0,0,0,0,0,0,0,0,0,0,0,1,
scooby_state_402446|47|34 0,0,0,0,0,0,0,0,0,0,0,1,0,0,0,1,
scooby_state_402446|48|16 0,0,0,0,0,0,0,0,0,0,0,1,0,0,0,1,
scooby_state_407045|0|-10 1,0,0,0,0,0,0,0,0,0,0,0,0,0,0,1,
scooby_state_402446|60|45 0,0,0,0,0,0,0,0,0,0,0,1,0,0,0,1,
scooby_state_407045|39|-15 1,0,0,0,0,0,0,0,0,0,0,0,0,0,0,1,
scooby_state_407045|7|-34 1,0,0,0,0,0,0,0,0,0,0,0,0,0,0,1,
scooby_state_402446|23|-20 0,0,0,0,0,0,0,0,0,0,0,1,0,0,0,1,
scooby_state_402440|41|21 1,0,0,0,0,0,0,0,0,0,0,0,0,0,0,1,
scooby_state_402443|36|-13 1,0,0,0,0,0,0,0,0,0,0,0,0,0,0,1,
scooby_state_402446|42|4 0,0,0,0,0,0,0,0,0,0,0,1,0,0,0,1,
scooby_state_402440|10|-22 0,0,0,0,0,0,0,0,0,0,0,1,0,0,0,1,
scooby_state_402446|42|-17 0,0,0,0,0,0,0,0,0,0,0,1,0,0,0,1,
scooby_state_402443|19|-18 1,0,0,0,0,0,0,0,0,0,0,0,0,0,0,1,
scooby_state_402443|0|-22 0,0,0,0,0,0,0,0,0,0,0,1,0,0,0,1,
scooby_state_402443|44|15 1,0,0,0,0,0,0,0,0,0,0,0,0,0,0,1,
scooby_state_402443|30|29 1,0,0,0,0,0,0,0,0,0,0,0,0,0,0,1,
scooby_state_402440|38|32 0,0,0,0,0,0,0,0,0,0,0,1,0,0,0,1,
scooby_state_402440|46|-15 1,0,0,0,0,0,0,0,0,0,0,0,0,0,0,1,
scooby_state_402446|22|-35 0,0,0,0,0,0,0,0,0,0,0,1,0,0,0,1,
scooby_state_402446|50|41 0,0,0,0,0,0,0,0,0,0,0,1,0,0,0,1,
scooby_state_402440|50|33 1,0,0,0,0,0,0,0,0,0,0,0,0,0,0,1,
scooby_state_402443|40|32 1,0,0,0,0,0,0,0,0,0,0,0,0,0,0,1,
scooby_state_402443|33|-17 1,0,0,0,0,0,0,0,0,0,0,0,0,0,0,1,
scooby_state_407045|33|-6 1,0,0,0,0,0,0,0,0,0,0,0,0,0,0,1,
scooby_state_402446|11|9 0,0,0,0,0,0,0,0,0,0,0,1,0,0,0,1,
scooby_state_402446|33|-28 0,0,0,0,0,0,0,0,0,0,0,1,0,0,0,1,
scooby_state_407045|0|-11 1,0,0,0,0,0,0,0,0,0,0,0,0,0,0,1,
scooby_state_402440|16|-36 1,0,0,0,0,0,0,0,0,0,0,0,0,0,0,1,
scooby_state_402440|21|-20 1,0,0,0,0,0,0,0,0,0,0,0,0,0,0,1,
scooby_state_402440|42|39 1,0,0,0,0,0,0,0,0,0,0,0,0,0,0,1,
scooby_state_40245e|61|53 1,0,0,0,0,0,0,0,0,0,0,0,0,0,0,1,
scooby_state_402446|21|19 0,0,0,0,0,0,0,0,0,0,0,1,0,0,0,1,
scooby_state_402443|52|13 1,0,0,0,0,0,0,0,0,0,0,0,0,0,0,1,
scooby_state_407045|59|-1 1,0,0,0,0,0,0,0,0,0,0,0,0,0,0,1,
scooby_state_402440|46|38 1,0,0,0,0,0,0,0,0,0,0,0,0,0,0,1,
scooby_state_407045|47|-12 1,0,0,0,0,0,0,0,0,0,0,0,0,0,0,1,
scooby_state_402446|21|-26 0,0,0,0,0,0,0,0,0,0,0,1,0,0,0,1,
scooby_state_402443|32|27 1,0,0,0,0,0,0,0,0,0,0,0,0,0,0,1,
scooby_state_402446|20|-23 1,0,0,0,0,0,0,0,0,0,0,0,0,0,0,1,
scooby_state_402446|35|2 1,0,0,0,0,0,0,0,0,0,0,0,0,0,0,1,
scooby_state_402440|62|43 0,0,0,0,0,0,0,0,0,0,0,1,0,0,0,1,
scooby_state_402443|17|-30 1,0,0,0,0,0,0,0,0,0,0,0,0,0,0,1,
scooby_state_402446|15|-41 0,0,0,0,0,0,0,0,0,0,0,1,0,0,0,1,
scooby_state_405d03|35|6 1,0,0,0,0,0,0,0,0,0,0,0,0,0,0,1,
scooby_state_405d41|32|-3 0,1,0,0,0,0,0,0,0,0,0,0,0,0,0,1,
scooby_state_402443|49|36 1,0,0,0,0,0,0,0,0,0,0,0,0,0,0,1,
scooby_state_402443|24|18 1,0,0,0,0,0,0,0,0,0,0,0,0,0,0,1,
scooby_state_402443|39|-18 1,0,0,0,0,0,0,0,0,0,0,0,0,0,0,1,
scooby_state_402440|14|-44 0,0,0,0,0,0,0,0,0,0,0,1,0,0,0,1,
scooby_state_402440|30|28 1,0,0,0,0,0,0,0,0,0,0,0,0,0,0,1,
scooby_state_402440|16|-41 0,0,0,0,0,0,0,0,0,0,0,1,0,0,0,1,
scooby_state_402446|48|12 0,0,0,0,0,0,0,0,0,0,0,1,0,0,0,1,
scooby_state_402440|22|-34 1,0,0,0,0,0,0,0,0,0,0,0,0,0,0,1,
scooby_state_402440|62|12 1,0,0,0,0,0,0,0,0,0,0,0,0,0,0,1,
scooby_state_402440|20|-33 0,0,0,0,0,0,0,0,0,0,0,1,0,0,0,1,

scooby_action_0_deg_dist 0,292760,0,0,0,0,0,0,0,0,0,0,0,0,0,0,
scooby_action_-6_deg_dist 0,3527,4,0,0,0,0,0,0,0,0,0,0,0,0,0,
scooby_action_4_deg_dist 0,5190,47,0,7,0,0,0,0,0,0,0,0,0,0,0,
scooby_action_1_deg_dist 0,1269387,138197,0,76569,0,92142,0,0,0,0,0,0,0,0,0,
scooby_action_30_deg_dist 0,2846,5,0,0,0,0,0,0,0,0,0,0,0,0,0,
scooby_action_5_deg_dist 0,4149,26,0,3,0,0,0,0,0,0,0,0,0,0,0,
scooby_action_10_deg_dist 0,3699,23,0,4,0,0,0,0,0,0,0,0,0,0,0,
scooby_action_3_deg_dist 0,4309,20,0,6,0,0,0,0,0,0,0,0,0,0,0,
scooby_action_32_deg_dist 0,2783,0,0,0,0,0,0,0,0,0,0,0,0,0,0,
scooby_action_11_deg_dist 0,3687,8,0,0,0,0,0,0,0,0,0,0,0,0,0,
scooby_action_12_deg_dist 0,3725,8,0,4,0,0,0,0,0,0,0,0,0,0,0,
scooby_action_22_deg_dist 0,3267,16,0,3,0,0,0,0,0,0,0,0,0,0,0,
scooby_action_23_deg_dist 0,3144,5,0,0,0,0,0,0,0,0,0,0,0,0,0,
scooby_action_-1_deg_dist 0,172407,4362,0,6579,0,40049,0,0,0,0,0,0,0,0,0,
scooby_action_-3_deg_dist 0,3654,8,0,0,0,0,0,0,0,0,0,0,0,0,0,

scooby_track_called 2136629
scooby_track_same_address 27951
scooby_track_evict 2108422

scooby_reward_demand_called 2136629
scooby_reward_demand_pt_not_found 1274519
scooby_reward_demand_pt_found 862110
scooby_reward_demand_pt_found_total 862110
scooby_reward_demand_has_reward 8424
scooby_reward_train_called 1214571
scooby_reward_assign_reward_called 2108533
scooby_reward_no_pref 292661
scooby_reward_incorrect 921910
scooby_reward_correct_untimely 675133
scooby_reward_correct_timely 178553
scooby_reward_out_of_bounds 40276
scooby_reward_tracker_hit 0

scooby_reward_none_low_bw 292661
scooby_reward_none_high_bw 0
scooby_reward_incorrect_low_bw 921910
scooby_reward_incorrect_high_bw 0
scooby_reward_correct_untimely_low_bw 675133
scooby_reward_correct_untimely_high_bw 0
scooby_reward_correct_timely_low_bw 178553
scooby_reward_correct_timely_high_bw 0
scooby_reward_out_of_bounds_low_bw 40276
scooby_reward_out_of_bounds_high_bw 0
scooby_reward_tracker_hit_low_bw 0
scooby_reward_tracker_hit_high_bw 0

scooby_reward_1 0,756480,612776,161917,25603,0,
scooby_reward_3 0,3677,157,115,158,0,
scooby_reward_4 0,4328,30,215,263,0,
scooby_reward_5 0,3482,27,160,266,0,
scooby_reward_10 0,2971,12,60,501,0,
scooby_reward_11 0,2847,11,96,571,0,
scooby_reward_12 0,2868,8,89,606,0,
scooby_reward_22 0,2046,7,76,1086,0,
scooby_reward_23 0,1883,5,51,1114,0,
scooby_reward_30 0,1456,2,20,1305,0,
scooby_reward_32 0,1333,4,28,1385,0,
scooby_reward_-1 0,132199,62070,15619,6999,0,
scooby_reward_-3 0,3296,16,51,144,0,
scooby_reward_-6 0,3044,8,56,275,0,
scooby_reward_0 292661,0,0,0,0,0,

scooby_train_called 2108421
scooby_train_compute_reward 1214571

scooby_register_fill_called 1029262
scooby_register_fill_set 734162
scooby_register_fill_set_total 734162

scooby_register_prefetch_hit_called 1257102
scooby_register_prefetch_hit_set 750066
scooby_register_prefetch_hit_set_total 750066

scooby_pref_issue_scooby 2743287

learning_engine_featurewise.action.called 2136629
learning_engine_featurewise.action.explore 3888
learning_engine_featurewise.action.exploit 2132741
learning_engine_featurewise.action.fallback 564303
learning_engine_featurewise.action.dyn_fallback_saved_bw 0
learning_engine_featurewise.action.dyn_fallback_saved_bw_acc 259489
learning_engine_featurewise.action.index_1_explored 251
learning_engine_featurewise.action.index_1_exploited 1576044
learning_engine_featurewise.action.index_3_explored 276
learning_engine_featurewise.action.index_3_exploited 4059
learning_engine_featurewise.action.index_4_explored 272
learning_engine_featurewise.action.index_4_exploited 4972
learning_engine_featurewise.action.index_5_explored 246
learning_engine_featurewise.action.index_5_exploited 3932
learning_engine_featurewise.action.index_10_explored 292
learning_engine_featurewise.action.index_10_exploited 3434
learning_engine_featurewise.action.index_11_explored 258
learning_engine_featurewise.action.index_11_exploited 3437
learning_engine_featurewise.action.index_12_explored 258
learning_engine_featurewise.action.index_12_exploited 3479
learning_engine_featurewise.action.index_22_explored 267
learning_engine_featurewise.action.index_22_exploited 3019
learning_engine_featurewise.action.index_23_explored 262
learning_engine_featurewise.action.index_23_exploited 2887
learning_engine_featurewise.action.index_30_explored 250
learning_engine_featurewise.action.index_30_exploited 2601
learning_engine_featurewise.action.index_32_explored 217
learning_engine_featurewise.action.index_32_exploited 2566
learning_engine_featurewise.action.index_-1_explored 262
learning_engine_featurewise.action.index_-1_exploited 223135
learning_engine_featurewise.action.index_-3_explored 265
learning_engine_featurewise.action.index_-3_exploited 3397
learning_engine_featurewise.action.index_-6_explored 246
learning_engine_featurewise.action.index_-6_exploited 3285
learning_engine_featurewise.action.index_0_explored 266
learning_engine_featurewise.action.index_0_exploited 292494
learning_engine_featurewise.learn.called 2108421
learning_engine_featurewise.learn.su_skip_PC 0
learning_engine_featurewise.learn.su_skip_PC_Delta 0

learning_engine_featurewise.q_value_histogram.bucket_0 106541
learning_engine_featurewise.q_value_histogram.bucket_1 39832
learning_engine_featurewise.q_value_histogram.bucket_2 745460
learning_engine_featurewise.q_value_histogram.bucket_3 135497
learning_engine_featurewise.q_value_histogram.bucket_4 64519
learning_engine_featurewise.q_value_histogram.bucket_5 182607
learning_engine_featurewise.q_value_histogram.bucket_6 858285
learning_engine_featurewise.q_value_histogram.bucket_7 0

learning_engine_featurewise.consensus.total 2132741
learning_engine_featurewise.consensus.feature_align_PC 1839612
learning_engine_featurewise.consensus.feature_align_PC_ratio 0.86
learning_engine_featurewise.consensus.feature_align_PC_Delta 1844361
learning_engine_featurewise.consensus.feature_align_PC_Delta_ratio 0.86
learning_engine_featurewise.consensus.feature_align_all 1696657
learning_engine_featurewise.consensus.feature_align_all_ratio 0.80

learning_engine_featurewise.feature_PC_min_weight 1000000.00000000
learning_engine_featurewise.feature_PC_max_weight 0.00000000
learning_engine_featurewise.feature_PC_Delta_min_weight 1000000.00000000
learning_engine_featurewise.feature_PC_Delta_max_weight 0.00000000
unique_pcs 86
unique_pages 119232
unique_trigger_pcs 29
total_bitmaps_seen 0
unique_bitmaps_seen 0

scooby_bw_epochs 926605
scooby_bw_level_0 709895
scooby_bw_level_1 196962
scooby_bw_level_2 17930
scooby_bw_level_3 1818

scooby_ipc_epochs 0
scooby_ipc_level_0 0
scooby_ipc_level_1 0
scooby_ipc_level_2 0
scooby_ipc_level_3 0

scooby_cache_acc_epochs 195658
scooby_cache_acc_level_0 78227
scooby_cache_acc_level_1 46793
scooby_cache_acc_level_2 29578
scooby_cache_acc_level_3 14636
scooby_cache_acc_level_4 6465
scooby_cache_acc_level_5 5797
scooby_cache_acc_level_6 5022
scooby_cache_acc_level_7 3675
scooby_cache_acc_level_8 2504
scooby_cache_acc_level_9 2961

Channel_0_RQ_row_buffer_hit 240839
Channel_0_RQ_row_buffer_miss 1255092
Channel_0_WQ_row_buffer_hit 11210
Channel_0_WQ_row_buffer_miss 37523
Channel_0_WQ_full 0
Channel_0_dbus_congested 599113

avg_congested_cycle 7

DRAM_bw_pochs 926605
DRAM_bw_level_0 709895
DRAM_bw_level_1 196962
DRAM_bw_level_2 17930
DRAM_bw_level_3 1818
