*************************************************
   ChampSim Multicore Out-of-Order Simulator
   Last compiled: Apr  3 2025 20:54:34
*************************************************
parsing config file: /home/zir/Pythia/config/mlop.ini

trace_0 /home/zir/ChampSim/ML-DPC/ChampSimTraces/spec06/459.GemsFDTD-s0.trace.gz
adding L2C_PREFETCHER: MLOP
Initialize SHIP state
warmup_instructions 10000000
simulation_instructions 50000000
champsim_seed 163
measure_ipc 0
measure_ipc_epoch 1000
measure_dram_bw 1
measure_dram_bw_epoch 256
measure_cache_acc 1
measure_cache_acc_epoch 1024
l1d_perfect 0
l2c_perfect 0
llc_perfect 0
l1d_semi_perfect 0
l2c_semi_perfect 0
llc_semi_perfect 0
semi_perfect_cache_page_buffer_size 64

num_cpus 1
cpu_freq 4000
dram_io_freq 2400
page_size 4096
block_size 64
max_read_per_cycle 8
max_fill_per_cycle 1
dram_channels 1
log2_dram_channels 0
dram_ranks 1
dram_banks 8
dram_rows 65536
dram_columns 128
dram_row_size 8
dram_size 4096
dram_pages 1048576

fetch_width 6
decode_width 6
exec_width 4
lq_width 2
sq_width 2
retire_width 4
scheduler_size 128
branch_mispredict_penalty 20
rob_size 256
lq_size 72
sq_size 56
num_instr_destinations_sparc 4
num_instr_destinations 2
num_instr_sources 4

itlb_set 16
itlb_way 8
itlb_rq_size 16
itlb_wq_size 16
itlb_pq_size 0
itlb_mshr_size 8
itlb_latency 1

dtlb_set 16
dtlb_way 4
dtlb_rq_size 16
dtlb_wq_size 16
dtlb_pq_size 0
dtlb_mshr_size 8
dtlb_latency 1

stlb_set 128
stlb_way 12
stlb_rq_size 32
stlb_wq_size 32
stlb_pq_size 0
stlb_mshr_size 16
stlb_latency 8

l1i_size 32
l1i_set 64
l1i_way 8
l1i_rq_size 64
l1i_wq_size 64
l1i_pq_size 8
l1i_mshr_size 8
l1i_latency 1

l1d_size 32
l1d_set 64
l1d_way 8
l1d_rq_size 64
l1d_wq_size 64
l1d_pq_size 8
l1d_mshr_size 16
l1d_latency 4

l2c_size 256
l2c_set 512
l2c_way 8
l2c_rq_size 32
l2c_wq_size 32
l2c_pq_size 32
l2c_mshr_size 32
l2c_latency 10

llc_size 2048
llc_set 2048
llc_way 16
llc_rq_size 32
llc_wq_size 32
llc_pq_size 32
llc_mshr_size 64
llc_latency 20

dram_channel_width 8
dram_wq_size 64
dram_rq_size 64
tRP 15
tRCD 15
tCAS 12.5
dram_dbus_turn_around_time 30
dram_write_high_wm 56
dram_write_low_wm 48
min_dram_writes_per_switch 16
dram_mtps 2400
dram_dbus_return_time 13

mlop_pref_degree 16
mlop_num_updates 500
mlop_l1d_thresh 2
mlop_l2c_thresh 0.75
mlop_llc_thresh 0.3
mlop_debug_level 0
mlop_blocks_in_cache 4096
mlop_blocks_in_zone 64
mlop_amt_size 2048
mlop_PF_DEGREE 16
mlop_NUM_UPDATES 500
mlop_L1D_THRESH 1000
mlop_L2C_THRESH 375
mlop_LLC_THRESH 150
mlop_ORIGIN 63
mlop_MAX_OFFSET 63
mlop_MIN_OFFSET -63
mlop_ORIGIN 63
mlop_NUM_OFFSETS 127


Heartbeat CPU  0 instructions:    1000002 cycles:     546225 heartbeat IPC: 1.83075 cumulative IPC: 1.83075 (Simulation time: 0 hr 0 min 2 sec) 
Heartbeat CPU  0 instructions:    2000000 cycles:    1092303 heartbeat IPC: 1.83124 cumulative IPC: 1.83099 (Simulation time: 0 hr 0 min 4 sec) 
Heartbeat CPU  0 instructions:    3000002 cycles:    1638630 heartbeat IPC: 1.83041 cumulative IPC: 1.83080 (Simulation time: 0 hr 0 min 6 sec) 
Heartbeat CPU  0 instructions:    4000000 cycles:    2184786 heartbeat IPC: 1.83098 cumulative IPC: 1.83084 (Simulation time: 0 hr 0 min 8 sec) 
Heartbeat CPU  0 instructions:    5000003 cycles:    2731102 heartbeat IPC: 1.83045 cumulative IPC: 1.83076 (Simulation time: 0 hr 0 min 10 sec) 
Heartbeat CPU  0 instructions:    6000001 cycles:    3277282 heartbeat IPC: 1.83089 cumulative IPC: 1.83079 (Simulation time: 0 hr 0 min 12 sec) 
Heartbeat CPU  0 instructions:    7000000 cycles:    3823497 heartbeat IPC: 1.83078 cumulative IPC: 1.83078 (Simulation time: 0 hr 0 min 15 sec) 
Heartbeat CPU  0 instructions:    8000000 cycles:    4369702 heartbeat IPC: 1.83081 cumulative IPC: 1.83079 (Simulation time: 0 hr 0 min 17 sec) 
Heartbeat CPU  0 instructions:    9000002 cycles:    4916040 heartbeat IPC: 1.83037 cumulative IPC: 1.83074 (Simulation time: 0 hr 0 min 19 sec) 
Heartbeat CPU  0 instructions:   10000000 cycles:    5462299 heartbeat IPC: 1.83063 cumulative IPC: 1.83073 (Simulation time: 0 hr 0 min 21 sec) 

Warmup complete CPU  0 instructions:   10000004 cycles:    5462300 (Simulation time: 0 hr 0 min 21 sec) 

Heartbeat CPU  0 instructions:   11000003 cycles:    6574621 heartbeat IPC: 0.89902 cumulative IPC: 0.89902 (Simulation time: 0 hr 0 min 24 sec) 
Heartbeat CPU  0 instructions:   12000000 cycles:    7662106 heartbeat IPC: 0.91955 cumulative IPC: 0.90917 (Simulation time: 0 hr 0 min 26 sec) 
Heartbeat CPU  0 instructions:   13000000 cycles:    8797501 heartbeat IPC: 0.88075 cumulative IPC: 0.89949 (Simulation time: 0 hr 0 min 29 sec) 
Heartbeat CPU  0 instructions:   14000001 cycles:    9913138 heartbeat IPC: 0.89635 cumulative IPC: 0.89871 (Simulation time: 0 hr 0 min 31 sec) 
Heartbeat CPU  0 instructions:   15000002 cycles:   11007473 heartbeat IPC: 0.91380 cumulative IPC: 0.90168 (Simulation time: 0 hr 0 min 34 sec) 
Heartbeat CPU  0 instructions:   16000000 cycles:   12114124 heartbeat IPC: 0.90363 cumulative IPC: 0.90201 (Simulation time: 0 hr 0 min 37 sec) 
Heartbeat CPU  0 instructions:   17000002 cycles:   13255212 heartbeat IPC: 0.87636 cumulative IPC: 0.89825 (Simulation time: 0 hr 0 min 39 sec) 
Heartbeat CPU  0 instructions:   18000001 cycles:   14351291 heartbeat IPC: 0.91234 cumulative IPC: 0.89999 (Simulation time: 0 hr 0 min 42 sec) 
Heartbeat CPU  0 instructions:   19000002 cycles:   15446230 heartbeat IPC: 0.91329 cumulative IPC: 0.90145 (Simulation time: 0 hr 0 min 44 sec) 
Heartbeat CPU  0 instructions:   20000000 cycles:   16675054 heartbeat IPC: 0.81378 cumulative IPC: 0.89184 (Simulation time: 0 hr 0 min 47 sec) 
Heartbeat CPU  0 instructions:   21000001 cycles:   17947901 heartbeat IPC: 0.78564 cumulative IPC: 0.88101 (Simulation time: 0 hr 0 min 49 sec) 
Heartbeat CPU  0 instructions:   22000001 cycles:   21353865 heartbeat IPC: 0.29360 cumulative IPC: 0.75512 (Simulation time: 0 hr 0 min 51 sec) 
Heartbeat CPU  0 instructions:   23000001 cycles:   22619170 heartbeat IPC: 0.79032 cumulative IPC: 0.75771 (Simulation time: 0 hr 0 min 53 sec) 
Heartbeat CPU  0 instructions:   24000000 cycles:   26167794 heartbeat IPC: 0.28180 cumulative IPC: 0.67615 (Simulation time: 0 hr 0 min 56 sec) 
Heartbeat CPU  0 instructions:   25000003 cycles:   27414498 heartbeat IPC: 0.80212 cumulative IPC: 0.68330 (Simulation time: 0 hr 0 min 58 sec) 
Heartbeat CPU  0 instructions:   26000000 cycles:   30965682 heartbeat IPC: 0.28160 cumulative IPC: 0.62737 (Simulation time: 0 hr 1 min 0 sec) 
Heartbeat CPU  0 instructions:   27000000 cycles:   32182783 heartbeat IPC: 0.82162 cumulative IPC: 0.63622 (Simulation time: 0 hr 1 min 2 sec) 
Heartbeat CPU  0 instructions:   28000000 cycles:   35606138 heartbeat IPC: 0.29211 cumulative IPC: 0.59714 (Simulation time: 0 hr 1 min 5 sec) 
Heartbeat CPU  0 instructions:   29000000 cycles:   36827478 heartbeat IPC: 0.81877 cumulative IPC: 0.60577 (Simulation time: 0 hr 1 min 7 sec) 
Heartbeat CPU  0 instructions:   30000003 cycles:   38010673 heartbeat IPC: 0.84517 cumulative IPC: 0.61447 (Simulation time: 0 hr 1 min 9 sec) 
Heartbeat CPU  0 instructions:   31000002 cycles:   39184863 heartbeat IPC: 0.85165 cumulative IPC: 0.62273 (Simulation time: 0 hr 1 min 11 sec) 
Heartbeat CPU  0 instructions:   32000000 cycles:   40315754 heartbeat IPC: 0.88426 cumulative IPC: 0.63121 (Simulation time: 0 hr 1 min 13 sec) 
Heartbeat CPU  0 instructions:   33000003 cycles:   41476457 heartbeat IPC: 0.86155 cumulative IPC: 0.63864 (Simulation time: 0 hr 1 min 14 sec) 
Heartbeat CPU  0 instructions:   34000002 cycles:   42546916 heartbeat IPC: 0.93418 cumulative IPC: 0.64717 (Simulation time: 0 hr 1 min 16 sec) 
Heartbeat CPU  0 instructions:   35000002 cycles:   43698026 heartbeat IPC: 0.86873 cumulative IPC: 0.65384 (Simulation time: 0 hr 1 min 18 sec) 
Heartbeat CPU  0 instructions:   36000000 cycles:   44819971 heartbeat IPC: 0.89131 cumulative IPC: 0.66061 (Simulation time: 0 hr 1 min 20 sec) 
Heartbeat CPU  0 instructions:   37000000 cycles:   46148664 heartbeat IPC: 0.75262 cumulative IPC: 0.66361 (Simulation time: 0 hr 1 min 22 sec) 
Heartbeat CPU  0 instructions:   38000001 cycles:   47477631 heartbeat IPC: 0.75246 cumulative IPC: 0.66642 (Simulation time: 0 hr 1 min 24 sec) 
Heartbeat CPU  0 instructions:   39000000 cycles:   48807322 heartbeat IPC: 0.75205 cumulative IPC: 0.66905 (Simulation time: 0 hr 1 min 26 sec) 
Heartbeat CPU  0 instructions:   40000000 cycles:   50137275 heartbeat IPC: 0.75191 cumulative IPC: 0.67152 (Simulation time: 0 hr 1 min 29 sec) 
Heartbeat CPU  0 instructions:   41000000 cycles:   51092064 heartbeat IPC: 1.04735 cumulative IPC: 0.67938 (Simulation time: 0 hr 1 min 30 sec) 
Heartbeat CPU  0 instructions:   42000000 cycles:   52427073 heartbeat IPC: 0.74906 cumulative IPC: 0.68136 (Simulation time: 0 hr 1 min 32 sec) 
Heartbeat CPU  0 instructions:   43000002 cycles:   53764329 heartbeat IPC: 0.74780 cumulative IPC: 0.68320 (Simulation time: 0 hr 1 min 35 sec) 
Heartbeat CPU  0 instructions:   44000000 cycles:   55094027 heartbeat IPC: 0.75205 cumulative IPC: 0.68505 (Simulation time: 0 hr 1 min 37 sec) 
Heartbeat CPU  0 instructions:   45000001 cycles:   56423165 heartbeat IPC: 0.75237 cumulative IPC: 0.68680 (Simulation time: 0 hr 1 min 39 sec) 
Heartbeat CPU  0 instructions:   46000003 cycles:   57660167 heartbeat IPC: 0.80841 cumulative IPC: 0.68968 (Simulation time: 0 hr 1 min 41 sec) 
Heartbeat CPU  0 instructions:   47000001 cycles:   58461371 heartbeat IPC: 1.24812 cumulative IPC: 0.69813 (Simulation time: 0 hr 1 min 42 sec) 
Heartbeat CPU  0 instructions:   48000000 cycles:   59635180 heartbeat IPC: 0.85193 cumulative IPC: 0.70146 (Simulation time: 0 hr 1 min 44 sec) 
Heartbeat CPU  0 instructions:   49000003 cycles:   68777936 heartbeat IPC: 0.10938 cumulative IPC: 0.61596 (Simulation time: 0 hr 1 min 49 sec) 
Heartbeat CPU  0 instructions:   50000001 cycles:   70200002 heartbeat IPC: 0.70320 cumulative IPC: 0.61788 (Simulation time: 0 hr 1 min 51 sec) 
Heartbeat CPU  0 instructions:   51000001 cycles:   71659012 heartbeat IPC: 0.68540 cumulative IPC: 0.61937 (Simulation time: 0 hr 1 min 54 sec) 
Heartbeat CPU  0 instructions:   52000000 cycles:   73076410 heartbeat IPC: 0.70552 cumulative IPC: 0.62117 (Simulation time: 0 hr 1 min 57 sec) 
Heartbeat CPU  0 instructions:   53000001 cycles:   74478912 heartbeat IPC: 0.71301 cumulative IPC: 0.62304 (Simulation time: 0 hr 1 min 59 sec) 
Heartbeat CPU  0 instructions:   54000000 cycles:   75912864 heartbeat IPC: 0.69737 cumulative IPC: 0.62455 (Simulation time: 0 hr 2 min 2 sec) 
Heartbeat CPU  0 instructions:   55000002 cycles:   77376892 heartbeat IPC: 0.68305 cumulative IPC: 0.62574 (Simulation time: 0 hr 2 min 5 sec) 
Heartbeat CPU  0 instructions:   56000000 cycles:   78834456 heartbeat IPC: 0.68607 cumulative IPC: 0.62694 (Simulation time: 0 hr 2 min 7 sec) 
Heartbeat CPU  0 instructions:   57000003 cycles:   80305096 heartbeat IPC: 0.67998 cumulative IPC: 0.62798 (Simulation time: 0 hr 2 min 10 sec) 
Heartbeat CPU  0 instructions:   58000002 cycles:   81800739 heartbeat IPC: 0.66861 cumulative IPC: 0.62878 (Simulation time: 0 hr 2 min 13 sec) 
Heartbeat CPU  0 instructions:   59000002 cycles:   83286843 heartbeat IPC: 0.67290 cumulative IPC: 0.62962 (Simulation time: 0 hr 2 min 15 sec) 
Heartbeat CPU  0 instructions:   60000000 cycles:   84800335 heartbeat IPC: 0.66072 cumulative IPC: 0.63021 (Simulation time: 0 hr 2 min 18 sec) 
Finished CPU 0 instructions: 50000000 cycles: 79338051 cumulative IPC: 0.63021 (Simulation time: 0 hr 2 min 18 sec) 

ChampSim completed all CPUs

[ROI Statistics]
Core_0_instructions 50000000
Core_0_cycles 79338051
Core_0_IPC 0.63021

Core_0_branch_prediction_accuracy 99.58435
Core_0_branch_MPKI 0.30312
Core_0_average_ROB_occupancy_at_mispredict 217.40954

Core_0_L1D_total_access 13164149
Core_0_L1D_total_hit 11775946
Core_0_L1D_total_miss 1388203
Core_0_L1D_loads 8914165
Core_0_L1D_load_hit 7653653
Core_0_L1D_load_miss 1260512
Core_0_L1D_RFOs 4249984
Core_0_L1D_RFO_hit 4122293
Core_0_L1D_RFO_miss 127691
Core_0_L1D_prefetches 0
Core_0_L1D_prefetch_hit 0
Core_0_L1D_prefetch_miss 0
Core_0_L1D_writebacks 0
Core_0_L1D_writeback_hit 0
Core_0_L1D_writeback_miss 0
Core_0_L1D_prefetch_requested 0
Core_0_L1D_prefetch_dropped 0
Core_0_L1D_prefetch_issued 0
Core_0_L1D_prefetch_filled 0
Core_0_L1D_prefetch_useful 0
Core_0_L1D_prefetch_useless 0
Core_0_L1D_prefetch_late 0
Core_0_L1D_average_miss_latency 123.08990

Core_0_L1D_rq_access 14297839
Core_0_L1D_rq_forward 0
Core_0_L1D_rq_merged 4927144
Core_0_L1D_rq_to_cache 9370695
Core_0_L1D_rq_full 0

Core_0_L1D_wq_access 5134087
Core_0_L1D_wq_forward 0
Core_0_L1D_wq_merged 140354
Core_0_L1D_wq_to_cache 4993733
Core_0_L1D_wq_full 54138

Core_0_L1D_pq_access 0
Core_0_L1D_pq_forward 0
Core_0_L1D_pq_merged 0
Core_0_L1D_pq_to_cache 0
Core_0_L1D_pq_full 0

Core_0_L1D_acc_epochs 69197
Core_0_L1D_acc_level_0 69197
Core_0_L1D_acc_level_1 0
Core_0_L1D_acc_level_2 0
Core_0_L1D_acc_level_3 0
Core_0_L1D_acc_level_4 0
Core_0_L1D_acc_level_5 0
Core_0_L1D_acc_level_6 0
Core_0_L1D_acc_level_7 0
Core_0_L1D_acc_level_8 0
Core_0_L1D_acc_level_9 0

Core_0_L1I_total_access 15121214
Core_0_L1I_total_hit 15120784
Core_0_L1I_total_miss 430
Core_0_L1I_loads 15121214
Core_0_L1I_load_hit 15120784
Core_0_L1I_load_miss 430
Core_0_L1I_RFOs 0
Core_0_L1I_RFO_hit 0
Core_0_L1I_RFO_miss 0
Core_0_L1I_prefetches 0
Core_0_L1I_prefetch_hit 0
Core_0_L1I_prefetch_miss 0
Core_0_L1I_writebacks 0
Core_0_L1I_writeback_hit 0
Core_0_L1I_writeback_miss 0
Core_0_L1I_prefetch_requested 0
Core_0_L1I_prefetch_dropped 0
Core_0_L1I_prefetch_issued 0
Core_0_L1I_prefetch_filled 0
Core_0_L1I_prefetch_useful 0
Core_0_L1I_prefetch_useless 0
Core_0_L1I_prefetch_late 0
Core_0_L1I_average_miss_latency 211.74651

Core_0_L1I_rq_access 50000005
Core_0_L1I_rq_forward 0
Core_0_L1I_rq_merged 34878358
Core_0_L1I_rq_to_cache 15121647
Core_0_L1I_rq_full 0

Core_0_L1I_wq_access 0
Core_0_L1I_wq_forward 0
Core_0_L1I_wq_merged 0
Core_0_L1I_wq_to_cache 0
Core_0_L1I_wq_full 0

Core_0_L1I_pq_access 0
Core_0_L1I_pq_forward 0
Core_0_L1I_pq_merged 0
Core_0_L1I_pq_to_cache 0
Core_0_L1I_pq_full 0

Core_0_L1I_acc_epochs 69197
Core_0_L1I_acc_level_0 69197
Core_0_L1I_acc_level_1 0
Core_0_L1I_acc_level_2 0
Core_0_L1I_acc_level_3 0
Core_0_L1I_acc_level_4 0
Core_0_L1I_acc_level_5 0
Core_0_L1I_acc_level_6 0
Core_0_L1I_acc_level_7 0
Core_0_L1I_acc_level_8 0
Core_0_L1I_acc_level_9 0

Core_0_L2C_total_access 2927405
Core_0_L2C_total_hit 1563705
Core_0_L2C_total_miss 1363700
Core_0_L2C_loads 1260921
Core_0_L2C_load_hit 909962
Core_0_L2C_load_miss 350959
Core_0_L2C_RFOs 127670
Core_0_L2C_RFO_hit 310
Core_0_L2C_RFO_miss 127360
Core_0_L2C_prefetches 889388
Core_0_L2C_prefetch_hit 4248
Core_0_L2C_prefetch_miss 885140
Core_0_L2C_writebacks 649426
Core_0_L2C_writeback_hit 649185
Core_0_L2C_writeback_miss 241
Core_0_L2C_prefetch_requested 2177675
Core_0_L2C_prefetch_dropped 0
Core_0_L2C_prefetch_issued 2177675
Core_0_L2C_prefetch_filled 1154619
Core_0_L2C_prefetch_useful 1052355
Core_0_L2C_prefetch_useless 101862
Core_0_L2C_prefetch_late 21659
Core_0_L2C_average_miss_latency 268.63959

Core_0_L2C_rq_access 1388633
Core_0_L2C_rq_forward 0
Core_0_L2C_rq_merged 0
Core_0_L2C_rq_to_cache 1388591
Core_0_L2C_rq_full 0

Core_0_L2C_wq_access 649426
Core_0_L2C_wq_forward 42
Core_0_L2C_wq_merged 0
Core_0_L2C_wq_to_cache 649426
Core_0_L2C_wq_full 0

Core_0_L2C_pq_access 2177675
Core_0_L2C_pq_forward 0
Core_0_L2C_pq_merged 2273
Core_0_L2C_pq_to_cache 2175402
Core_0_L2C_pq_full 0

Core_0_L2C_acc_epochs 69197
Core_0_L2C_acc_level_0 14067
Core_0_L2C_acc_level_1 652
Core_0_L2C_acc_level_2 1218
Core_0_L2C_acc_level_3 1207
Core_0_L2C_acc_level_4 5370
Core_0_L2C_acc_level_5 3254
Core_0_L2C_acc_level_6 4113
Core_0_L2C_acc_level_7 7426
Core_0_L2C_acc_level_8 9119
Core_0_L2C_acc_level_9 22771

Core_0_LLC_total_access 2603555
Core_0_LLC_total_hit 1282103
Core_0_LLC_total_miss 1321452
Core_0_LLC_loads 329302
Core_0_LLC_load_hit 37014
Core_0_LLC_load_miss 292288
Core_0_LLC_RFOs 127360
Core_0_LLC_RFO_hit 116820
Core_0_LLC_RFO_miss 10540
Core_0_LLC_prefetches 1499230
Core_0_LLC_prefetch_hit 613636
Core_0_LLC_prefetch_miss 885594
Core_0_LLC_writebacks 647663
Core_0_LLC_writeback_hit 514633
Core_0_LLC_writeback_miss 133030
Core_0_LLC_prefetch_requested 0
Core_0_LLC_prefetch_dropped 0
Core_0_LLC_prefetch_issued 0
Core_0_LLC_prefetch_filled 1146392
Core_0_LLC_prefetch_useful 14806
Core_0_LLC_prefetch_useless 1099618
Core_0_LLC_prefetch_late 9983
Core_0_LLC_average_miss_latency 599.05586

Core_0_LLC_rq_access 456662
Core_0_LLC_rq_forward 0
Core_0_LLC_rq_merged 0
Core_0_LLC_rq_to_cache 456662
Core_0_LLC_rq_full 0

Core_0_LLC_wq_access 647663
Core_0_LLC_wq_forward 1
Core_0_LLC_wq_merged 0
Core_0_LLC_wq_to_cache 647663
Core_0_LLC_wq_full 0

Core_0_LLC_pq_access 2086810
Core_0_LLC_pq_forward 0
Core_0_LLC_pq_merged 1094
Core_0_LLC_pq_to_cache 2085715
Core_0_LLC_pq_full 0

Core_0_LLC_acc_epochs 82813
Core_0_LLC_acc_level_0 70475
Core_0_LLC_acc_level_1 3665
Core_0_LLC_acc_level_2 2978
Core_0_LLC_acc_level_3 1977
Core_0_LLC_acc_level_4 963
Core_0_LLC_acc_level_5 1164
Core_0_LLC_acc_level_6 567
Core_0_LLC_acc_level_7 210
Core_0_LLC_acc_level_8 187
Core_0_LLC_acc_level_9 627

Core_0_major_page_fault 0
Core_0_minor_page_fault 72335

[MLOP] History of tracked zone:
IIIIIIIIIIIIIIIIIIIIIIIIIIIIIIIIIIIIIIIIIIIIIIIIIIIIIIIIIIIIIIII
A22II22222224444444IIIIIIIIIIIIIIIIIIIIIIIIIIIIIIIIIIIIIIIIIIIII
AA22I222222224444444IIIIIIIIIIIIIIIIIIIIIIIIIIIIIIIIIIIIIIIIIIII
AAA222222222224444444IIIIIIIIIIIIIIIIIIIIIIIIIIIIIIIIIIIIIIIIIII
AAAA2222222222222222222IIIIIIIIIIIIIIIIIIIIIIIIIIIIIIIIIIIIIIIII
AAAAA2222222222222222222IIIIIIIIIIIIIIIIIIIIIIIIIIIIIIIIIIIIIIII
AAAAAA2222222222222222222IIIIIIIIIIIIIIIIIIIIIIIIIIIIIIIIIIIIIII
AAAAAAA2222222222222222222IIIIIIIIIIIIIIIIIIIIIIIIIIIIIIIIIIIIII
AAAAAAAA2222222222222222222IIIIIIIIIIIIIIIIIIIIIIIIIIIIIIIIIIIII
AAAAAAAAA2222222222222222222IIIIIIIIIIIIIIIIIIIIIIIIIIIIIIIIIIII
AAAAAAAAAA2222222222222222222IIIIIIIIIIIIIIIIIIIIIIIIIIIIIIIIIII
AAAAAAAAAAA2222222222222222222IIIIIIIIIIIIIIIIIIIIIIIIIIIIIIIIII
AAAAAAAAAAAA2222222222222222222IIIIIIIIIIIIIIIIIIIIIIIIIIIIIIIII
AAAAAAAAAAAAA2222222222222222222IIIIIIIIIIIIIIIIIIIIIIIIIIIIIIII
AAAAAAAAAAAAAA2222222222222222222IIIIIIIIIIIIIIIIIIIIIIIIIIIIIII
AAAAAAAAAAAAAAA2222222222222222222IIIIIIIIIIIIIIIIIIIIIIIIIIIIII
AAAAAAAAAAAAAAAA2222222222222222222IIIIIIIIIIIIIIIIIIIIIIIIIIIII
AAAAAAAAAAAAAAAAA2222222222222222222IIIIIIIIIIIIIIIIIIIIIIIIIIII
AAAAAAAAAAAAAAAAAA2222222222222222222IIIIIIIIIIIIIIIIIIIIIIIIIII
AAAAAAAAAAAAAAAAAAA2222222222222222222IIIIIIIIIIIIIIIIIIIIIIIIII
AAAAAAAAAAAAAAAAAAAA2222222222222222222IIIIIIIIIIIIIIIIIIIIIIIII
AAAAAAAAAAAAAAAAAAAAA2222222222222222222IIIIIIIIIIIIIIIIIIIIIIII
AAAAAAAAAAAAAAAAAAAAAA2222222222222222222IIIIIIIIIIIIIIIIIIIIIII
AAAAAAAAAAAAAAAAAAAAAAA2222222222222222222IIIIIIIIIIIIIIIIIIIIII
AAAAAAAAAAAAAAAAAAAAAAAA2222222222222222222IIIIIIIIIIIIIIIIIIIII
AAAAAAAAAAAAAAAAAAAAAAAAA2222222222222222222IIIIIIIIIIIIIIIIIIII
AAAAAAAAAAAAAAAAAAAAAAAAAA2222222222222222222IIIIIIIIIIIIIIIIIII
AAAAAAAAAAAAAAAAAAAAAAAAAAA2222222222222222222IIIIIIIIIIIIIIIIII
AAAAAAAAAAAAAAAAAAAAAAAAAAA22A2222222222222222222IIIIIIIIIIIIIII
AAAAAAAAAAAAAAAAAAAAAAAAAAA22AA2222222222222222222IIIIIIIIIIIIII
AAAAAAAAAAAAAAAAAAAAAAAAAAA22AAA2222222222222222222IIIIIIIIIIIII
AAAAAAAAAAAAAAAAAAAAAAAAAAA22AAAA2222222222222222222IIIIIIIIIIII
AAAAAAAAAAAAAAAAAAAAAAAAAAA22AAAAA2222222222222222222IIIIIIIIIII
AAAAAAAAAAAAAAAAAAAAAAAAAAA22AAAAAA2222222222222222222IIIIIIIIII
AAAAAAAAAAAAAAAAAAAAAAAAAAA22AAAAAAA2222222222222222222IIIIIIIII
AAAAAAAAAAAAAAAAAAAAAAAAAAA22AAAAAAAA2222222222222222222IIIIIIII
AAAAAAAAAAAAAAAAAAAAAAAAAAA22AAAAAAAAA2222222222222222222IIIIIII
AAAAAAAAAAAAAAAAAAAAAAAAAAA22AAAAAAAAAA2222222222222222222IIIIII
AAAAAAAAAAAAAAAAAAAAAAAAAAA22AAAAAAAAAAA2222222222222222222IIIII
AAAAAAAAAAAAAAAAAAAAAAAAAAA22AAAAAAAAAAAA2222222222222222222IIII
AAAAAAAAAAAAAAAAAAAAAAAAAAA22AAAAAAAAAAAAA2222222222222222222III
AAAAAAAAAAAAAAAAAAAAAAAAAAA22AAAAAAAAAAAAAA2222222222222222222II
AAAAAAAAAAAAAAAAAAAAAAAAAAA22AAAAAAAAAAAAAAA2222222222222222222I
AAAAAAAAAAAAAAAAAAAAAAAAAAA22AAAAAAAAAAAAAAAA2222222222222222222
AAAAAAAAAAAAAAAAAAAAAAAAAAA22AAAAAAAAAAAAAAAAA222222222222222222
AAAAAAAAAAAAAAAAAAAAAAAAAAA22AAAAAAAAAAAAAAAAAA22222222222222222
AAAAAAAAAAAAAAAAAAAAAAAAAAA22AAAAAAAAAAAAAAAAAAA2222222222222222
AAAAAAAAAAAAAAAAAAAAAAAAAAA22AAAAAAAAAAAAAAAAAAAA222222222222222
AAAAAAAAAAAAAAAAAAAAAAAAAAA22AAAAAAAAAAAAAAAAAAAAA22222222222222
AAAAAAAAAAAAAAAAAAAAAAAAAAA22AAAAAAAAAAAAAAAAAAAAAA2222222222222
AAAAAAAAAAAAAAAAAAAAAAAAAAA22AAAAAAAAAAAAAAAAAAAAAAA222222222222
AAAAAAAAAAAAAAAAAAAAAAAAAAA22AAAAAAAAAAAAAAAAAAAAAAAA22222222222
AAAAAAAAAAAAAAAAAAAAAAAAAAA22AAAAAAAAAAAAAAAAAAAAAAAAA2222222222
AAAAAAAAAAAAAAAAAAAAAAAAAAA22AAAAAAAAAAAAAAAAAAAAAAAAAA222222222
AAAAAAAAAAAAAAAAAAAAAAAAAAA22AAAAAAAAAAAAAAAAAAAAAAAAAAA22222222
AAAAAAAAAAAAAAAAAAAAAAAAAAA22AAAAAAAAAAAAAAAAAAAAAAAAAAA222A2222
AAAAAAAAAAAAAAAAAAAAAAAAAAA22AAAAAAAAAAAAAAAAAAAAAAAAAAA222AA222
AAAAAAAAAAAAAAAAAAAAAAAAAAA22AAAAAAAAAAAAAAAAAAAAAAAAAAA222AAA22
AAAAAAAAAAAAAAAAAAAAAAAAAAA22AAAAAAAAAAAAAAAAAAAAAAAAAAA222AAAA2
AAAAAAAAAAAAAAAAAAAAAAAAAAA22AAAAAAAAAAAAAAAAAAAAAAAAAAA222AAAAA
AAAAAAAAAAAAAAAAAAAAAAAIAAA22AAAAAAAAAAAAAAAAAAAAAAAAAAA222AAAAA
AAAAAAAAAAAAAAAAAAAAAAAIIAA22AAAAAAAAAAAAAAAAAAAAAAAAAAA222AAAAA
AAAAAAAAAAAAAAAAAAAAAAAIIIA22AAAAAAAAAAAAAAAAAAAAAAAAAAA222AAAAA
AAAAAAAAAAAAAAAAAAAAAAAIIII22AAAAAAAAAAAAAAAAAAAAAAAAAAA222AAAAA
AAAAAAAAAAAAAAAAAAAAAAAIIIII2AAAAAAAAAAAAAAAAAAAAAAAAAAA222AAAAA
AAAAAAAAAAAAAAAAAAAAAAAIIIIIIAAAAAAAAAAAAAAAAAAAAAAAAAAA222AAAAA
AAAAIAAAAAAAAAAAAAAAAAAIIIIIIAAAAAAAAAAAAAAAAAAAAAAAAAAA222AAAAA
AAAAIIAAAAAAAAAAAAAAAAAIIIIIIAAAAAAAAAAAAAAAAAAAAAAAAAAA222AAAAA
AAAAIIIAAAAAAAAAAAAAAAAIIIIIIAAAAAAAAAAAAAAAAAAAAAAAAAAA222AAAAA
AAAAIIIAAAAIAAAAAAAAAAAIIIIIIAAAAAAAAAAAAAAAAAAAAAAAAAAA222AAAAA
AAAAIIIAAAAIIAAAAAAAAAAIIIIIIAAAAAAAAAAAAAAAAAAAAAAAAAAA222AAAAA
AAAAIIIAAAAIIIAAAAAAAAAIIIIIIAAAAAAAAAAAAAAAAAAAAAAAAAAA222AAAAA
AAAAIIIIAAAIIIAAAAAAAAAIIIIIIAAAAAAAAAAAAAAAAAAAAAAAAAAA222AAAAA
AAAAIIIIAAAIIIIAAAAAAAAIIIIIIAAAAAAAAAAAAAAAAAAAAAAAAAAA222AAAAA
AAAAIIIIIAAIIIIAAAAAAAAIIIIIIAAAAAAAAAAAAAAAAAAAAAAAAAAA222AAAAA
AAAAIIIIIAAIIIIIAAAAAAAIIIIIIAAAAAAAAAAAAAAAAAAAAAAAAAAA222AAAAA
AAAAIIIIIIAIIIIIAAAAAAAIIIIIIAAAAAAAAAAAAAAAAAAAAAAAAAAA222AAAAA
AAAAIIIIIIAIIIIIIAAAAAAIIIIIIAAAAAAAAAAAAAAAAAAAAAAAAAAA222AAAAA
AAAAIIIIIIAIIIIIIIAAAAAIIIIIIAAAAAAAAAAAAAAAAAAAAAAAAAAA222AAAAA
AAAAIIIIIIAIIIIIIIIAAAAIIIIIIAAAAAAAAAAAAAAAAAAAAAAAAAAA222AAAAA
AAAAIIIIIIAIIIIIIIIIAAAIIIIIIAAAAAAAAAAAAAAAAAAAAAAAAAAA222AAAAA
AAAAIIIIIIAIIIIIIIIIIAAIIIIIIAAAAAAAAAAAAAAAAAAAAAAAAAAA222AAAAA
AAAAIIIIIIAIIIIIIIIIIIAIIIIIIAAAAAAAAAAAAAAAAAAAAAAAAAAA222AAAAA
AAAAIIIIIIAIIIIIIIIIIIIIIIIIIAAAAAAAAAAAAAAAAAAAAAAAAAAA222AAAAA
AAAAIIIIIIAIIIIIIIIIIIIIIIIIIAAAAAAAAAAAAAAAAAAAAAAAAAAA222AAAIA
AAAAIIIIIIAIIIIIIIIIIIIIIIIIIAAAAAAAAAAAAAAAAAAAAAAAAAAA222AAAII
AAAAIIIIIIAIIIIIIIIIIIIIIIIIIIAAAAAAAAAAAAAAAAAAAAAAAAAA222AAAII
AAAAIIIIIIAIIIIIIIIIIIIIIIIIIIIAAAAAAAAAAAAAAAAAAAAAAAAA222AAAII
AAAAIIIIIIAIIIIIIIIIIIIIIIIIIIIIAAAAAAAAAAAAAAAAAAAAAAAA222AAAII
AAAAIIIIIIAIIIIIIIIIIIIIIIIIIIIIIAAAAAAAAAAAAAAAAAAAAAAA222AAAII
AAAAIIIIIIAIIIIIIIIIIIIIIIIIIIIIIIAAAAAAAAAAAAAAAAAAAAAA222AAAII
AAAAIIIIIIAIIIIIIIIIIIIIIIIIIIIIIIIAAAAAAAAAAAAAAAAAAAAA222AAAII
AAAAIIIIIIAIIIIIIIIIIIIIIIIIIIIIIIIIAAAAAAAAAAAAAAAAAAAA222AAAII
AAAAIIIIIIAIIIIIIIIIIIIIIIIIIIIIIIIIIAAAAAAAAAAAAAAAAAAA222AAAII
AAAAIIIIIIAIIIIIIIIIIIIIIIIIIIIIIIIIIIAAAAAAAAAAAAAAAAAA222AAAII
AAAAIIIIIIAIIIIIIIIIIIIIIIIIIIIIIIIIIIIAAAAAAAAAAAAAAAAA222AAAII
AAAAIIIIIIAIIIIIIIIIIIIIIIIIIIIIIIIIIIIIAAAAAAAAAAAAAAAA222AAAII
AAAAIIIIIIAIIIIIIIIIIIIIIIIIIIIIIIIIIIIIIAAAAAAAAAAAAAAA222AAAII
AAAAIIIIIIAIIIIIIIIIIIIIIIIIIIIIIIIIIIIIIIAAAAAAAAAAAAAA222AAAII
AAAAIIIIIIAIIIIIIIIIIIIIIIIIIIIIIIIIIIIIIIIAAAAAAAAAAAAA222AAAII
AAAAIIIIIIAIIIIIIIIIIIIIIIIIIIIIIIIIIIIIIIIIAAAAAAAAAAAA222AAAII
AAAAIIIIIIAIIIIIIIIIIIIIIIIIIIIIIIIIIIIIIIIIIAAAAAAAAAAA222AAAII
AAAAIIIIIIAIIIIIIIIIIIIIIIIIIIIIIIIIIIIIIIIIIIAAAAAAAAAA222AAAII
AAAAIIIIIIAIIIIIIIIIIIIIIIIIIIIIIIIIIIIIIIIIIIIAAAAAAAAA222AAAII
AAAAIIIIIIAIIIIIIIIIIIIIIIIIIIIIIIIIIIIIIIIIIIIIAAAAAAAA222AAAII
AAAAIIIIIIAIIIIIIIIIIIIIIIIIIIIIIIIIIIIIIIIIIIIIIAAAAAAA222AAAII
AAAAIIIIIIAIIIIIIIIIIIIIIIIIIIIIIIIIIIIIIIIIIIIIIIAAAAAA222AAAII
AAAAIIIIIIAIIIIIIIIIIIIIIIIIIIIIIIIIIIIIIIIIIIIIIIIAAAAA222AAAII
AAAAIIIIIIAIIIIIIIIIIIIIIIIIIIIIIIIIIIIIIIIIIIIIIIIIAAAA222AAAII
AAAAIIIIIIAIIIIIIIIIIIIIIIIIIIIIIIIIIIIIIIIIIIIIIIIIIAAA222AAAII
AAAAIIIIIIAIIIIIIIIIIIIIIIIIIIIIIIIIIIIIIIIIIIIIIIIIIIAA222AAAII
AAAAIIIIIIAIIIIIIIIIIIIIIIIIIIIIIIIIIIIIIIIIIIIIIIIIIIIA222AAAII
AAAAIIIIIIAIIIIIIIIIIIIIIIIIIIIIIIIIIIIIIIIIIIIIIIIIIIIA222AIAII
AAAAIIIIIIAIIIIIIIIIIIIIIIIIIIIIIIIIIIIIIIIIIIIIIIIIIIII222AIAII
AAAAIIIIIIAIIIIIIIIIIIIIIIIIIIIIIIIIIIIIIIIIIIIIIIIIIIII222AIIII
AAAAIIIIIIAIIIIIIIIIIIIIIIIIIIIIIIIIIIIIIIIIIIIIIIIIIIIII22AIIII
AAAAIIIIIIAIIIIIIIIIIIIIIIIIIIIIIIIIIIIIIIIIIIIIIIIIIIIIII2AIIII
AAAAIIIIIIAIIIIIIIIIIIIIIIIIIIIIIIIIIIIIIIIIIIIIIIIIIIIIIIIAIIII
AAAAIIIIIIAIIIIIIIIIIIIIIIIIIIIIIIIIIIIIIIIIIIIIIIIIIIIIIIIIIIII
AIAAIIIIIIAIIIIIIIIIIIIIIIIIIIIIIIIIIIIIIIIIIIIIIIIIIIIIIIIIIIII
AIAAIIIIIIIIIIIIIIIIIIIIIIIIIIIIIIIIIIIIIIIIIIIIIIIIIIIIIIIIIIII
AIAIIIIIIIIIIIIIIIIIIIIIIIIIIIIIIIIIIIIIIIIIIIIIIIIIIIIIIIIIIIII
A2A22III222222224444IIIIIIIIIIIIIIIIIIIIIIIIIIIIIIIIIIIIIIIIIIII
AAA222II2222222224444IIIIIIIIIIIIIIIIIIIIIIIIIIIIIIIIIIIIIIIIIII
AAA2222I22222222224444IIIIIIIIIIIIIIIIIIIIIIIIIIIIIIIIIIIIIIIIII
AAAA2222222222222224444IIIIIIIIIIIIIIIIIIIIIIIIIIIIIIIIIIIIIIIII
AAAAA2222222222222224444IIIIIIIIIIIIIIIIIIIIIIIIIIIIIIIIIIIIIIII
AAAAAA2222222222222224444IIIIIIIIIIIIIIIIIIIIIIIIIIIIIIIIIIIIIII
AAAAAAA2222222222222224444IIIIIIIIIIIIIIIIIIIIIIIIIIIIIIIIIIIIII
AAAAAAAA2222222222222224444IIIIIIIIIIIIIIIIIIIIIIIIIIIIIIIIIIIII
AAAAAAAAA2222222222222224444IIIIIIIIIIIIIIIIIIIIIIIIIIIIIIIIIIII
AAAAAAAAAA2222222222222224444IIIIIIIIIIIIIIIIIIIIIIIIIIIIIIIIIII
AAAAAAAAAAA2222222222222224444IIIIIIIIIIIIIIIIIIIIIIIIIIIIIIIIII
AAAAAAAAAAAA2222222222222224444IIIIIIIIIIIIIIIIIIIIIIIIIIIIIIIII
AAAAAAAAAAAAA2222222222222224444IIIIIIIIIIIIIIIIIIIIIIIIIIIIIIII
AAAAAAAAAAAAAA2222222222222224444IIIIIIIIIIIIIIIIIIIIIIIIIIIIIII
AAAAAAAAAAAAAAA2222222222222224444IIIIIIIIIIIIIIIIIIIIIIIIIIIIII
AAAAAAAAAAAAAAAA2222222222222224444IIIIIIIIIIIIIIIIIIIIIIIIIIIII
AAAAAAAAAAAAAAAAA2222222222222224444IIIIIIIIIIIIIIIIIIIIIIIIIIII
AAAAAAAAAAAAAAAAAA2222222222222224444IIIIIIIIIIIIIIIIIIIIIIIIIII
AAAAAAAAAAAAAAAAAAA2222222222222224444IIIIIIIIIIIIIIIIIIIIIIIIII
AAAAAAAAAAAAAAAAAAAA2222222222222224444IIIIIIIIIIIIIIIIIIIIIIIII
AAAAAAAAAAAAAAAAAAAAA2222222222222224444IIIIIIIIIIIIIIIIIIIIIIII
AAAAAAAAAAAAAAAAAAAAAA2222222222222224444IIIIIIIIIIIIIIIIIIIIIII
AAAAAAAAAAAAAAAAAAAAAAA2222222222222224444IIIIIIIIIIIIIIIIIIIIII
AAAAAAAAAAAAAAAAAAAAAAAA2222222222222224444IIIIIIIIIIIIIIIIIIIII
AAAAAAAAAAAAAAAAAAAAAAAAA2222222222222224444IIIIIIIIIIIIIIIIIIII
AAAAAAAAAAAAAAAAAAAAAAAAAA2222222222222224444IIIIIIIIIIIIIIIIIII
AAAAAAAAAAAAAAAAAAAAAAAAAAA2222222222222224444IIIIIIIIIIIIIIIIII
AAAAAAAAAAAAAAAAAAAAAAAAAAA22A2222222222224444444IIIIIIIIIIIIIII
AAAAAAAAAAAAAAAAAAAAAAAAAAA22AA2222222222244444444IIIIIIIIIIIIII
AAAAAAAAAAAAAAAAAAAAAAAAAAA22AAA2222222222244444444IIIIIIIIIIIII
AAAAAAAAAAAAAAAAAAAAAAAAAAA22AAAA2222222222244444444IIIIIIIIIIII
AAAAAAAAAAAAAAAAAAAAAAAAAAA22AAAAA2222222222244444444IIIIIIIIIII
AAAAAAAAAAAAAAAAAAAAAAAAAAA22AAAAAA2222222222244444444IIIIIIIIII
AAAAAAAAAAAAAAAAAAAAAAAAAAA22AAAAAAA2222222222244444444IIIIIIIII
AAAAAAAAAAAAAAAAAAAAAAAAAAA22AAAAAAAA2222222222244444444IIIIIIII
AAAAAAAAAAAAAAAAAAAAAAAAAAA22AAAAAAAAA2222222222244444444IIIIIII
AAAAAAAAAAAAAAAAAAAAAAAAAAA22AAAAAAAAAA2222222222244444444IIIIII
AAAAAAAAAAAAAAAAAAAAAAAAAAA22AAAAAAAAAAA2222222222244444444IIIII
AAAAAAAAAAAAAAAAAAAAAAAAAAA22AAAAAAAAAAAA2222222222244444444IIII
AAAAAAAAAAAAAAAAAAAAAAAAAAA22AAAAAAAAAAAAA2222222222244444444III
AAAAAAAAAAAAAAAAAAAAAAAAAAA22AAAAAAAAAAAAAA2222222222244444444II
AAAAAAAAAAAAAAAAAAAAAAAAAAA22AAAAAAAAAAAAAAA2222222222244444444I
AAAAAAAAAAAAAAAAAAAAAAAAAAA22AAAAAAAAAAAAAAAA2222222222244444444
AAAAAAAAAAAAAAAAAAAAAAAAAAA22AAAAAAAAAAAAAAAAA222222222224444444
AAAAAAAAAAAAAAAAAAAAAAAAAAA22AAAAAAAAAAAAAAAAAA22222222222444444
AAAAAAAAAAAAAAAAAAAAAAAAAAA22AAAAAAAAAAAAAAAAAAA2222222222244444
AAAAAAAAAAAAAAAAAAAAAAAAAAA22AAAAAAAAAAAAAAAAAAAA222222222224444
AAAAAAAAAAAAAAAAAAAAAAAAAAA22AAAAAAAAAAAAAAAAAAAAA22222222222444
AAAAAAAAAAAAAAAAAAAAAAAAAAA22AAAAAAAAAAAAAAAAAAAAAA2222222222244
AAAAAAAAAAAAAAAAAAAAAAAAAAA22AAAAAAAAAAAAAAAAAAAAAAA222222222224
AAAAAAAAAAAAAAAAAAAAAAAAAAA22AAAAAAAAAAAAAAAAAAAAAAAA22222222222
AAAAAAAAAAAAAAAAAAAAAAAAAAA22AAAAAAAAAAAAAAAAAAAAAAAAA2222222222
AAAAAAAAAAAAAAAAAAAAAAAAAAA22AAAAAAAAAAAAAAAAAAAAAAAAAA222222222
AAAAAAAAAAAAAAAAAAAAAAAAAAA22AAAAAAAAAAAAAAAAAAAAAAAAAAA22222222
AAAAAAAAAAAAAAAAAAAAAAAAAAA22AAAAAAAAAAAAAAAAAAAAAAAAAAAA2222222
AAAAAAAAAAAAAAAAAAAAAAAAAAA22AAAAAAAAAAAAAAAAAAAAAAAAAAAA22A2222
AAAAAAAAAAAAAAAAAAAAAAAAAAA22AAAAAAAAAAAAAAAAAAAAAAAAAAAA22AA222
AAAAAAAAAAAAAAAAAAAAAAAAAAA22AAAAAAAAAAAAAAAAAAAAAAAAAAAA22AAA22
AAAAAAAAAAAAAAAAAAAAAAAAAAA22AAAAAAAAAAAAAAAAAAAAAAAAAAAA22AAAA2
AAAAAAAAAAAAAAAAAAAAAAAAAAA22AAAAAAAAAAAAAAAAAAAAAAAAAAAA22AAAAA
AAAAAAAAAAAAAAAAAAAAAAAAAAA22AAAAAAAAAAAAAAAAAAAAAAAAAAAA22AAAIA
AAAAAAAAAAAAAAAAAAAAAAAAAAA22AAAAAAAAAAAAAAAAAAAAAAAAAAAA22AAAII
AIAAAAAAAAAAAAAAAAAAAAAAAAA22AAAAAAAAAAAAAAAAAAAAAAAAAAAA22AAAII
AIIAAAAAAAAAAAAAAAAAAAAAAAA22AAAAAAAAAAAAAAAAAAAAAAAAAAAA22AAAII
AIIAIAAAAAAAAAAAAAAAAAAAAAA22AAAAAAAAAAAAAAAAAAAAAAAAAAAA22AAAII
AIIAIAAAIAAAAAAAAAAAAAAAAAA22AAAAAAAAAAAAAAAAAAAAAAAAAAAA22AAAII
AIIAIAAAIIAAAAAAAAAAAAAAAAA22AAAAAAAAAAAAAAAAAAAAAAAAAAAA22AAAII
AIIAIAAAIIIAAAAAAAAAAAAAAAA22AAAAAAAAAAAAAAAAAAAAAAAAAAAA22AAAII
AIIAIAAAIIIIAAAAAAAAAAAAAAA22AAAAAAAAAAAAAAAAAAAAAAAAAAAA22AAAII
AIIAIAAAIIIIIAAAAAAAAAAAAAA22AAAAAAAAAAAAAAAAAAAAAAAAAAAA22AAAII
AIIAIIAAIIIIIAAAAAAAAAAAAAA22AAAAAAAAAAAAAAAAAAAAAAAAAAAA22AAAII
AIIAIIAAIIIIIIAAAAAAAAAAAAA22AAAAAAAAAAAAAAAAAAAAAAAAAAAA22AAAII
AIIAIIIAIIIIIIAAAAAAAAAAAAA22AAAAAAAAAAAAAAAAAAAAAAAAAAAA22AAAII
AIIAIIIAIIIIIIIAAAAAAAAAAAA22AAAAAAAAAAAAAAAAAAAAAAAAAAAA22AAAII
AIIAIIIIIIIIIIIAAAAAAAAAAAA22AAAAAAAAAAAAAAAAAAAAAAAAAAAA22AAAII
AIIAIIIIIIIIIIIIAAAAAAAAAAA22AAAAAAAAAAAAAAAAAAAAAAAAAAAA22AAAII
AIIAIIIIIIIIIIIIIAAAAAAAAAA22AAAAAAAAAAAAAAAAAAAAAAAAAAAA22AAAII
AIIAIIIIIIIIIIIIIIAAAAAAAAA22AAAAAAAAAAAAAAAAAAAAAAAAAAAA22AAAII
AIIAIIIIIIIIIIIIIIIAAAAAAAA22AAAAAAAAAAAAAAAAAAAAAAAAAAAA22AAAII
AIIAIIIIIIIIIIIIIIIIAAAAAAA22AAAAAAAAAAAAAAAAAAAAAAAAAAAA22AAAII
AIIAIIIIIIIIIIIIIIIIIAAAAAA22AAAAAAAAAAAAAAAAAAAAAAAAAAAA22AAAII
AIIAIIIIIIIIIIIIIIIIIAIAAAA22AAAAAAAAAAAAAAAAAAAAAAAAAAAA22AAAII
AIIAIIIIIIIIIIIIIIIIIAIIAAA22AAAAAAAAAAAAAAAAAAAAAAAAAAAA22AAAII
AIIAIIIIIIIIIIIIIIIIIAIIIAA22AAAAAAAAAAAAAAAAAAAAAAAAAAAA22AAAII
AIIAIIIIIIIIIIIIIIIIIAIIIIA22AAAAAAAAAAAAAAAAAAAAAAAAAAAA22AAAII
AIIAIIIIIIIIIIIIIIIIIAIIIII22AAAAAAAAAAAAAAAAAAAAAAAAAAAA22AAAII
AIIAIIIIIIIIIIIIIIIIIAIIIIII2AAAAAAAAAAAAAAAAAAAAAAAAAAAA22AAAII
AIIAIIIIIIIIIIIIIIIIIAIIIIIIIAAAAAAAAAAAAAAAAAAAAAAAAAAAA22AAAII
AIIAIIIIIIIIIIIIIIIIIAIIIIIIIIAAAAAAAAAAAAAAAAAAAAAAAAAAA22AAAII
AIIAIIIIIIIIIIIIIIIIIAIIIIIIIIIAAAAAAAAAAAAAAAAAAAAAAAAAA22AAAII
AIIAIIIIIIIIIIIIIIIIIAIIIIIIIIIIAAAAAAAAAAAAAAAAAAAAAAAAA22AAAII
AIIAIIIIIIIIIIIIIIIIIAIIIIIIIIIIIAAAAAAAAAAAAAAAAAAAAAAAA22AAAII
AIIAIIIIIIIIIIIIIIIIIAIIIIIIIIIIIIAAAAAAAAAAAAAAAAAAAAAAA22AAAII
AIIAIIIIIIIIIIIIIIIIIAIIIIIIIIIIIIIAAAAAAAAAAAAAAAAAAAAAA22AAAII
AIIAIIIIIIIIIIIIIIIIIAIIIIIIIIIIIIIIAAAAAAAAAAAAAAAAAAAAA22AAAII
AIIAIIIIIIIIIIIIIIIIIAIIIIIIIIIIIIIIIAAAAAAAAAAAAAAAAAAAA22AAAII
AIIAIIIIIIIIIIIIIIIIIAIIIIIIIIIIIIIIIIAAAAAAAAAAAAAAAAAAA22AAAII
AIIAIIIIIIIIIIIIIIIIIAIIIIIIIIIIIIIIIIIAAAAAAAAAAAAAAAAAA22AAAII
AIIAIIIIIIIIIIIIIIIIIAIIIIIIIIIIIIIIIIIIAAAAAAAAAAAAAAAAA22AAAII
AIIAIIIIIIIIIIIIIIIIIAIIIIIIIIIIIIIIIIIIIAAAAAAAAAAAAAAAA22AAAII
AIIAIIIIIIIIIIIIIIIIIAIIIIIIIIIIIIIIIIIIIIAAAAAAAAAAAAAAA22AAAII
AIIAIIIIIIIIIIIIIIIIIAIIIIIIIIIIIIIIIIIIIIIAAAAAAAAAAAAAA22AAAII
AIIAIIIIIIIIIIIIIIIIIIIIIIIIIIIIIIIIIIIIIIIAAAAAAAAAAAAAA22AAAII
AIIAIIIIIIIIIIIIIIIIIIIIIIIIIIIIIIIIIIIIIIIIAAAAAAAAAAAAA22AAAII
AIIAIIIIIIIIIIIIIIIIIIIIIIIIIIIIIIIIIIIIIIIIIAAAAAAAAAAAA22AAAII
AIIAIIIIIIIIIIIIIIIIIIIIIIIIIIIIIIIIIIIIIIIIIIAAAAAAAAAAA22AAAII
AIIAIIIIIIIIIIIIIIIIIIIIIIIIIIIIIIIIIIIIIIIIIIIAAAAAAAAAA22AAAII
AIIAIIIIIIIIIIIIIIIIIIIIIIIIIIIIIIIIIIIIIIIIIIIIAAAAAAAAA22AAAII
AIIAIIIIIIIIIIIIIIIIIIIIIIIIIIIIIIIIIIIIIIIIIIIIIAAAAAAAA22AAAII
AIIIIIIIIIIIIIIIIIIIIIIIIIIIIIIIIIIIIIIIIIIIIIIIIAAAAAAAA22AAAII
AIIIIIIIIIIIIIIIIIIIIIIIIIIIIIIIIIIIIIIIIIIIIIIIIIAAAAAAA22AAAII
AIIIIIIIIIIIIIIIIIIIIIIIIIIIIIIIIIIIIIIIIIIIIIIIIIIAAAAAA22AAAII
AIIIIIIIIIIIIIIIIIIIIIIIIIIIIIIIIIIIIIIIIIIIIIIIIIIIAAAAA22AAAII
AIIIIIIIIIIIIIIIIIIIIIIIIIIIIIIIIIIIIIIIIIIIIIIIIIIIIAAAA22AAAII
AIIIIIIIIIIIIIIIIIIIIIIIIIIIIIIIIIIIIIIIIIIIIIIIIIIIIAAIA22AAAII
AIIIIIIIIIIIIIIIIIIIIIIIIIIIIIIIIIIIIIIIIIIIIIIIIIIIIAAII22AAAII
AIIIIIIIIIIIIIIIIIIIIIIIIIIIIIIIIIIIIIIIIIIIIIIIIIIIIAAIII2AAAII
AIIIIIIIIIIIIIIIIIIIIIIIIIIIIIIIIIIIIIIIIIIIIIIIIIIIIAAIIIIAAAII
AIIIIIIIIIIIIIIIIIIIIIIIIIIIIIIIIIIIIIIIIIIIIIIIIIIIIAAIIIIIAAII
AIIIIIIIIIIIIIIIIIIIIIIIIIIIIIIIIIIIIIIIIIIIIIIIIIIIIAAIIIIIIAII
AIIIIIIIIIIIIIIIIIIIIIIIIIIIIIIIIIIIIIIIIIIIIIIIIIIIIAAIIIIIIIII
AIIIIIIIIIIIIIIIIIIIIIIIIIIIIIIIIIIIIIIIIIIIIIIIIIIIIIAIIIIIIIII
AIIIIIIIIIIIIIIIIIIIIIIIIIIIIIIIIIIIIIIIIIIIIIIIIIIIIIIIIIIIIIII
[MLOP] Prefetch Degree Mean: 13.82014
[MLOP] Prefetch Degree SD: 5.10227
[MLOP] Max Score Left Mean (%): 58.40616
[MLOP] Max Score Left SD (%): 21.06635
[MLOP] Max Score Right Mean (%): 93.44532
[MLOP] Max Score Right SD (%): 9.85607

Channel_0_RQ_row_buffer_hit 546614
Channel_0_RQ_row_buffer_miss 641800
Channel_0_WQ_row_buffer_hit 70531
Channel_0_WQ_row_buffer_miss 466909
Channel_0_WQ_full 5929
Channel_0_dbus_congested 1223542

avg_congested_cycle 11

DRAM_bw_pochs 331252
DRAM_bw_level_0 169915
DRAM_bw_level_1 52476
DRAM_bw_level_2 55763
DRAM_bw_level_3 53098
