*************************************************
   ChampSim Multicore Out-of-Order Simulator
   Last compiled: Apr  3 2025 20:54:34
*************************************************
parsing config file: /home/zir/Pythia/config/nopref.ini

trace_0 /home/zir/ChampSim/ML-DPC/ChampSimTraces/spec17/654.roms-s5.trace.xz
adding L2C_PREFETCHER: NONE
Initialize SHIP state
warmup_instructions 10000000
simulation_instructions 50000000
champsim_seed 168
measure_ipc 0
measure_ipc_epoch 1000
measure_dram_bw 1
measure_dram_bw_epoch 256
measure_cache_acc 1
measure_cache_acc_epoch 1024
l1d_perfect 0
l2c_perfect 0
llc_perfect 0
l1d_semi_perfect 0
l2c_semi_perfect 0
llc_semi_perfect 0
semi_perfect_cache_page_buffer_size 64

num_cpus 1
cpu_freq 4000
dram_io_freq 2400
page_size 4096
block_size 64
max_read_per_cycle 8
max_fill_per_cycle 1
dram_channels 1
log2_dram_channels 0
dram_ranks 1
dram_banks 8
dram_rows 65536
dram_columns 128
dram_row_size 8
dram_size 4096
dram_pages 1048576

fetch_width 6
decode_width 6
exec_width 4
lq_width 2
sq_width 2
retire_width 4
scheduler_size 128
branch_mispredict_penalty 20
rob_size 256
lq_size 72
sq_size 56
num_instr_destinations_sparc 4
num_instr_destinations 2
num_instr_sources 4

itlb_set 16
itlb_way 8
itlb_rq_size 16
itlb_wq_size 16
itlb_pq_size 0
itlb_mshr_size 8
itlb_latency 1

dtlb_set 16
dtlb_way 4
dtlb_rq_size 16
dtlb_wq_size 16
dtlb_pq_size 0
dtlb_mshr_size 8
dtlb_latency 1

stlb_set 128
stlb_way 12
stlb_rq_size 32
stlb_wq_size 32
stlb_pq_size 0
stlb_mshr_size 16
stlb_latency 8

l1i_size 32
l1i_set 64
l1i_way 8
l1i_rq_size 64
l1i_wq_size 64
l1i_pq_size 8
l1i_mshr_size 8
l1i_latency 1

l1d_size 32
l1d_set 64
l1d_way 8
l1d_rq_size 64
l1d_wq_size 64
l1d_pq_size 8
l1d_mshr_size 16
l1d_latency 4

l2c_size 256
l2c_set 512
l2c_way 8
l2c_rq_size 32
l2c_wq_size 32
l2c_pq_size 32
l2c_mshr_size 32
l2c_latency 10

llc_size 2048
llc_set 2048
llc_way 16
llc_rq_size 32
llc_wq_size 32
llc_pq_size 32
llc_mshr_size 64
llc_latency 20

dram_channel_width 8
dram_wq_size 64
dram_rq_size 64
tRP 15
tRCD 15
tCAS 12.5
dram_dbus_turn_around_time 30
dram_write_high_wm 56
dram_write_low_wm 48
min_dram_writes_per_switch 16
dram_mtps 2400
dram_dbus_return_time 13


Heartbeat CPU  0 instructions:    1000003 cycles:     442594 heartbeat IPC: 2.25941 cumulative IPC: 2.25941 (Simulation time: 0 hr 0 min 1 sec) 
Heartbeat CPU  0 instructions:    2000002 cycles:     884400 heartbeat IPC: 2.26343 cumulative IPC: 2.26142 (Simulation time: 0 hr 0 min 3 sec) 
Heartbeat CPU  0 instructions:    3000002 cycles:    1327533 heartbeat IPC: 2.25666 cumulative IPC: 2.25983 (Simulation time: 0 hr 0 min 5 sec) 
Heartbeat CPU  0 instructions:    4000000 cycles:    1805899 heartbeat IPC: 2.09045 cumulative IPC: 2.21496 (Simulation time: 0 hr 0 min 6 sec) 
Heartbeat CPU  0 instructions:    5000001 cycles:    2320361 heartbeat IPC: 1.94378 cumulative IPC: 2.15484 (Simulation time: 0 hr 0 min 8 sec) 
Heartbeat CPU  0 instructions:    6000000 cycles:    2763230 heartbeat IPC: 2.25800 cumulative IPC: 2.17137 (Simulation time: 0 hr 0 min 10 sec) 
Heartbeat CPU  0 instructions:    7000001 cycles:    3205001 heartbeat IPC: 2.26362 cumulative IPC: 2.18409 (Simulation time: 0 hr 0 min 12 sec) 
Heartbeat CPU  0 instructions:    8000000 cycles:    3648238 heartbeat IPC: 2.25613 cumulative IPC: 2.19284 (Simulation time: 0 hr 0 min 13 sec) 
Heartbeat CPU  0 instructions:    9000000 cycles:    4091760 heartbeat IPC: 2.25468 cumulative IPC: 2.19954 (Simulation time: 0 hr 0 min 15 sec) 
Heartbeat CPU  0 instructions:   10000002 cycles:    4533903 heartbeat IPC: 2.26172 cumulative IPC: 2.20561 (Simulation time: 0 hr 0 min 17 sec) 

Warmup complete CPU  0 instructions:   10000002 cycles:    4533903 (Simulation time: 0 hr 0 min 17 sec) 

Heartbeat CPU  0 instructions:   11000001 cycles:    5976968 heartbeat IPC: 0.69297 cumulative IPC: 0.69297 (Simulation time: 0 hr 0 min 19 sec) 
Heartbeat CPU  0 instructions:   12000000 cycles:    7272660 heartbeat IPC: 0.77179 cumulative IPC: 0.73026 (Simulation time: 0 hr 0 min 21 sec) 
Heartbeat CPU  0 instructions:   13000001 cycles:    8121786 heartbeat IPC: 1.17768 cumulative IPC: 0.83615 (Simulation time: 0 hr 0 min 23 sec) 
Heartbeat CPU  0 instructions:   14000001 cycles:    8976871 heartbeat IPC: 1.16947 cumulative IPC: 0.90030 (Simulation time: 0 hr 0 min 25 sec) 
Heartbeat CPU  0 instructions:   15000001 cycles:    9832300 heartbeat IPC: 1.16900 cumulative IPC: 0.94368 (Simulation time: 0 hr 0 min 27 sec) 
Heartbeat CPU  0 instructions:   16000000 cycles:   10686456 heartbeat IPC: 1.17075 cumulative IPC: 0.97520 (Simulation time: 0 hr 0 min 29 sec) 
Heartbeat CPU  0 instructions:   17000003 cycles:   11544258 heartbeat IPC: 1.16577 cumulative IPC: 0.99852 (Simulation time: 0 hr 0 min 31 sec) 
Heartbeat CPU  0 instructions:   18000000 cycles:   13064810 heartbeat IPC: 0.65765 cumulative IPC: 0.93777 (Simulation time: 0 hr 0 min 33 sec) 
Heartbeat CPU  0 instructions:   19000002 cycles:   14305010 heartbeat IPC: 0.80632 cumulative IPC: 0.92108 (Simulation time: 0 hr 0 min 35 sec) 
Heartbeat CPU  0 instructions:   20000000 cycles:   15164559 heartbeat IPC: 1.16340 cumulative IPC: 0.94068 (Simulation time: 0 hr 0 min 37 sec) 
Heartbeat CPU  0 instructions:   21000000 cycles:   16023346 heartbeat IPC: 1.16443 cumulative IPC: 0.95740 (Simulation time: 0 hr 0 min 39 sec) 
Heartbeat CPU  0 instructions:   22000000 cycles:   16877064 heartbeat IPC: 1.17135 cumulative IPC: 0.97220 (Simulation time: 0 hr 0 min 41 sec) 
Heartbeat CPU  0 instructions:   23000000 cycles:   17729677 heartbeat IPC: 1.17287 cumulative IPC: 0.98516 (Simulation time: 0 hr 0 min 43 sec) 
Heartbeat CPU  0 instructions:   24000000 cycles:   18623891 heartbeat IPC: 1.11830 cumulative IPC: 0.99361 (Simulation time: 0 hr 0 min 45 sec) 
Heartbeat CPU  0 instructions:   25000000 cycles:   20193591 heartbeat IPC: 0.63706 cumulative IPC: 0.95787 (Simulation time: 0 hr 0 min 48 sec) 
Heartbeat CPU  0 instructions:   26000002 cycles:   21313770 heartbeat IPC: 0.89272 cumulative IPC: 0.95352 (Simulation time: 0 hr 0 min 50 sec) 
Heartbeat CPU  0 instructions:   27000001 cycles:   22163936 heartbeat IPC: 1.17624 cumulative IPC: 0.96426 (Simulation time: 0 hr 0 min 52 sec) 
Heartbeat CPU  0 instructions:   28000000 cycles:   23025653 heartbeat IPC: 1.16047 cumulative IPC: 0.97341 (Simulation time: 0 hr 0 min 54 sec) 
Heartbeat CPU  0 instructions:   29000003 cycles:   23880591 heartbeat IPC: 1.16968 cumulative IPC: 0.98208 (Simulation time: 0 hr 0 min 56 sec) 
Heartbeat CPU  0 instructions:   30000003 cycles:   24742392 heartbeat IPC: 1.16036 cumulative IPC: 0.98968 (Simulation time: 0 hr 0 min 58 sec) 
Heartbeat CPU  0 instructions:   31000002 cycles:   25770335 heartbeat IPC: 0.97282 cumulative IPC: 0.98887 (Simulation time: 0 hr 1 min 0 sec) 
Heartbeat CPU  0 instructions:   32000000 cycles:   27277327 heartbeat IPC: 0.66357 cumulative IPC: 0.96731 (Simulation time: 0 hr 1 min 2 sec) 
Heartbeat CPU  0 instructions:   33000001 cycles:   28287059 heartbeat IPC: 0.99036 cumulative IPC: 0.96829 (Simulation time: 0 hr 1 min 4 sec) 
Heartbeat CPU  0 instructions:   34000001 cycles:   29143376 heartbeat IPC: 1.16779 cumulative IPC: 0.97523 (Simulation time: 0 hr 1 min 6 sec) 
Heartbeat CPU  0 instructions:   35000001 cycles:   29998760 heartbeat IPC: 1.16907 cumulative IPC: 0.98175 (Simulation time: 0 hr 1 min 8 sec) 
Heartbeat CPU  0 instructions:   36000000 cycles:   30851642 heartbeat IPC: 1.17249 cumulative IPC: 0.98793 (Simulation time: 0 hr 1 min 10 sec) 
Heartbeat CPU  0 instructions:   37000003 cycles:   31706478 heartbeat IPC: 1.16982 cumulative IPC: 0.99365 (Simulation time: 0 hr 1 min 12 sec) 
Heartbeat CPU  0 instructions:   38000000 cycles:   32839623 heartbeat IPC: 0.88250 cumulative IPC: 0.98920 (Simulation time: 0 hr 1 min 14 sec) 
Heartbeat CPU  0 instructions:   39000001 cycles:   34361016 heartbeat IPC: 0.65729 cumulative IPC: 0.97227 (Simulation time: 0 hr 1 min 16 sec) 
Heartbeat CPU  0 instructions:   40000000 cycles:   35269562 heartbeat IPC: 1.10066 cumulative IPC: 0.97606 (Simulation time: 0 hr 1 min 18 sec) 
Heartbeat CPU  0 instructions:   41000000 cycles:   36121414 heartbeat IPC: 1.17391 cumulative IPC: 0.98140 (Simulation time: 0 hr 1 min 20 sec) 
Heartbeat CPU  0 instructions:   42000000 cycles:   36977149 heartbeat IPC: 1.16859 cumulative IPC: 0.98634 (Simulation time: 0 hr 1 min 22 sec) 
Heartbeat CPU  0 instructions:   43000000 cycles:   37829969 heartbeat IPC: 1.17258 cumulative IPC: 0.99111 (Simulation time: 0 hr 1 min 24 sec) 
Heartbeat CPU  0 instructions:   44000000 cycles:   38687965 heartbeat IPC: 1.16551 cumulative IPC: 0.99549 (Simulation time: 0 hr 1 min 26 sec) 
Heartbeat CPU  0 instructions:   45000003 cycles:   39917125 heartbeat IPC: 0.81357 cumulative IPC: 0.98917 (Simulation time: 0 hr 1 min 28 sec) 
Heartbeat CPU  0 instructions:   46000001 cycles:   41313272 heartbeat IPC: 0.71626 cumulative IPC: 0.97881 (Simulation time: 0 hr 1 min 30 sec) 
Heartbeat CPU  0 instructions:   47000001 cycles:   42202924 heartbeat IPC: 1.12404 cumulative IPC: 0.98224 (Simulation time: 0 hr 1 min 32 sec) 
Heartbeat CPU  0 instructions:   48000000 cycles:   43059073 heartbeat IPC: 1.16802 cumulative IPC: 0.98637 (Simulation time: 0 hr 1 min 34 sec) 
Heartbeat CPU  0 instructions:   49000002 cycles:   43916575 heartbeat IPC: 1.16618 cumulative IPC: 0.99028 (Simulation time: 0 hr 1 min 36 sec) 
Heartbeat CPU  0 instructions:   50000003 cycles:   44766510 heartbeat IPC: 1.17656 cumulative IPC: 0.99422 (Simulation time: 0 hr 1 min 38 sec) 
Heartbeat CPU  0 instructions:   51000000 cycles:   45622561 heartbeat IPC: 1.16815 cumulative IPC: 0.99784 (Simulation time: 0 hr 1 min 40 sec) 
Heartbeat CPU  0 instructions:   52000000 cycles:   46942640 heartbeat IPC: 0.75753 cumulative IPC: 0.99036 (Simulation time: 0 hr 1 min 42 sec) 
Heartbeat CPU  0 instructions:   53000002 cycles:   48304342 heartbeat IPC: 0.73438 cumulative IPC: 0.98240 (Simulation time: 0 hr 1 min 45 sec) 
Heartbeat CPU  0 instructions:   54000002 cycles:   49158354 heartbeat IPC: 1.17094 cumulative IPC: 0.98601 (Simulation time: 0 hr 1 min 47 sec) 
Heartbeat CPU  0 instructions:   55000000 cycles:   50018643 heartbeat IPC: 1.16240 cumulative IPC: 0.98934 (Simulation time: 0 hr 1 min 49 sec) 
Heartbeat CPU  0 instructions:   56000000 cycles:   50877437 heartbeat IPC: 1.16442 cumulative IPC: 0.99259 (Simulation time: 0 hr 1 min 51 sec) 
Heartbeat CPU  0 instructions:   57000000 cycles:   51730417 heartbeat IPC: 1.17236 cumulative IPC: 0.99584 (Simulation time: 0 hr 1 min 53 sec) 
Heartbeat CPU  0 instructions:   58000002 cycles:   52582990 heartbeat IPC: 1.17292 cumulative IPC: 0.99898 (Simulation time: 0 hr 1 min 55 sec) 
Heartbeat CPU  0 instructions:   59000000 cycles:   54023692 heartbeat IPC: 0.69410 cumulative IPC: 0.99010 (Simulation time: 0 hr 1 min 57 sec) 
Heartbeat CPU  0 instructions:   60000000 cycles:   55290981 heartbeat IPC: 0.78909 cumulative IPC: 0.98508 (Simulation time: 0 hr 1 min 59 sec) 
Finished CPU 0 instructions: 50000000 cycles: 50757087 cumulative IPC: 0.98508 (Simulation time: 0 hr 1 min 59 sec) 

ChampSim completed all CPUs

[ROI Statistics]
Core_0_instructions 50000000
Core_0_cycles 50757087
Core_0_IPC 0.98508

Core_0_branch_prediction_accuracy 99.79587
Core_0_branch_MPKI 0.02648
Core_0_average_ROB_occupancy_at_mispredict 246.26813

Core_0_L1D_total_access 14330135
Core_0_L1D_total_hit 13709747
Core_0_L1D_total_miss 620388
Core_0_L1D_loads 10131103
Core_0_L1D_load_hit 9760923
Core_0_L1D_load_miss 370180
Core_0_L1D_RFOs 4199032
Core_0_L1D_RFO_hit 3948824
Core_0_L1D_RFO_miss 250208
Core_0_L1D_prefetches 0
Core_0_L1D_prefetch_hit 0
Core_0_L1D_prefetch_miss 0
Core_0_L1D_writebacks 0
Core_0_L1D_writeback_hit 0
Core_0_L1D_writeback_miss 0
Core_0_L1D_prefetch_requested 0
Core_0_L1D_prefetch_dropped 0
Core_0_L1D_prefetch_issued 0
Core_0_L1D_prefetch_filled 0
Core_0_L1D_prefetch_useful 0
Core_0_L1D_prefetch_useless 0
Core_0_L1D_prefetch_late 0
Core_0_L1D_average_miss_latency 119.44988

Core_0_L1D_rq_access 16287554
Core_0_L1D_rq_forward 0
Core_0_L1D_rq_merged 5899299
Core_0_L1D_rq_to_cache 10388255
Core_0_L1D_rq_full 0

Core_0_L1D_wq_access 4623972
Core_0_L1D_wq_forward 0
Core_0_L1D_wq_merged 0
Core_0_L1D_wq_to_cache 4623972
Core_0_L1D_wq_full 4648

Core_0_L1D_pq_access 0
Core_0_L1D_pq_forward 0
Core_0_L1D_pq_merged 0
Core_0_L1D_pq_to_cache 0
Core_0_L1D_pq_full 0

Core_0_L1D_acc_epochs 53508
Core_0_L1D_acc_level_0 53508
Core_0_L1D_acc_level_1 0
Core_0_L1D_acc_level_2 0
Core_0_L1D_acc_level_3 0
Core_0_L1D_acc_level_4 0
Core_0_L1D_acc_level_5 0
Core_0_L1D_acc_level_6 0
Core_0_L1D_acc_level_7 0
Core_0_L1D_acc_level_8 0
Core_0_L1D_acc_level_9 0

Core_0_L1I_total_access 12556954
Core_0_L1I_total_hit 12556954
Core_0_L1I_total_miss 0
Core_0_L1I_loads 12556954
Core_0_L1I_load_hit 12556954
Core_0_L1I_load_miss 0
Core_0_L1I_RFOs 0
Core_0_L1I_RFO_hit 0
Core_0_L1I_RFO_miss 0
Core_0_L1I_prefetches 0
Core_0_L1I_prefetch_hit 0
Core_0_L1I_prefetch_miss 0
Core_0_L1I_writebacks 0
Core_0_L1I_writeback_hit 0
Core_0_L1I_writeback_miss 0
Core_0_L1I_prefetch_requested 0
Core_0_L1I_prefetch_dropped 0
Core_0_L1I_prefetch_issued 0
Core_0_L1I_prefetch_filled 0
Core_0_L1I_prefetch_useful 0
Core_0_L1I_prefetch_useless 0
Core_0_L1I_prefetch_late 0
Core_0_L1I_average_miss_latency -nan

Core_0_L1I_rq_access 50000006
Core_0_L1I_rq_forward 0
Core_0_L1I_rq_merged 37443052
Core_0_L1I_rq_to_cache 12556954
Core_0_L1I_rq_full 0

Core_0_L1I_wq_access 0
Core_0_L1I_wq_forward 0
Core_0_L1I_wq_merged 0
Core_0_L1I_wq_to_cache 0
Core_0_L1I_wq_full 0

Core_0_L1I_pq_access 0
Core_0_L1I_pq_forward 0
Core_0_L1I_pq_merged 0
Core_0_L1I_pq_to_cache 0
Core_0_L1I_pq_full 0

Core_0_L1I_acc_epochs 53508
Core_0_L1I_acc_level_0 53508
Core_0_L1I_acc_level_1 0
Core_0_L1I_acc_level_2 0
Core_0_L1I_acc_level_3 0
Core_0_L1I_acc_level_4 0
Core_0_L1I_acc_level_5 0
Core_0_L1I_acc_level_6 0
Core_0_L1I_acc_level_7 0
Core_0_L1I_acc_level_8 0
Core_0_L1I_acc_level_9 0

Core_0_L2C_total_access 871502
Core_0_L2C_total_hit 355672
Core_0_L2C_total_miss 515830
Core_0_L2C_loads 370179
Core_0_L2C_load_hit 105386
Core_0_L2C_load_miss 264793
Core_0_L2C_RFOs 250208
Core_0_L2C_RFO_hit 72
Core_0_L2C_RFO_miss 250136
Core_0_L2C_prefetches 0
Core_0_L2C_prefetch_hit 0
Core_0_L2C_prefetch_miss 0
Core_0_L2C_writebacks 251115
Core_0_L2C_writeback_hit 250214
Core_0_L2C_writeback_miss 901
Core_0_L2C_prefetch_requested 0
Core_0_L2C_prefetch_dropped 0
Core_0_L2C_prefetch_issued 0
Core_0_L2C_prefetch_filled 0
Core_0_L2C_prefetch_useful 0
Core_0_L2C_prefetch_useless 0
Core_0_L2C_prefetch_late 0
Core_0_L2C_average_miss_latency 126.33784

Core_0_L2C_rq_access 620388
Core_0_L2C_rq_forward 0
Core_0_L2C_rq_merged 0
Core_0_L2C_rq_to_cache 620387
Core_0_L2C_rq_full 0

Core_0_L2C_wq_access 251115
Core_0_L2C_wq_forward 1
Core_0_L2C_wq_merged 0
Core_0_L2C_wq_to_cache 251115
Core_0_L2C_wq_full 0

Core_0_L2C_pq_access 0
Core_0_L2C_pq_forward 0
Core_0_L2C_pq_merged 0
Core_0_L2C_pq_to_cache 0
Core_0_L2C_pq_full 0

Core_0_L2C_acc_epochs 53508
Core_0_L2C_acc_level_0 53508
Core_0_L2C_acc_level_1 0
Core_0_L2C_acc_level_2 0
Core_0_L2C_acc_level_3 0
Core_0_L2C_acc_level_4 0
Core_0_L2C_acc_level_5 0
Core_0_L2C_acc_level_6 0
Core_0_L2C_acc_level_7 0
Core_0_L2C_acc_level_8 0
Core_0_L2C_acc_level_9 0

Core_0_LLC_total_access 765708
Core_0_LLC_total_hit 449742
Core_0_LLC_total_miss 315966
Core_0_LLC_loads 264793
Core_0_LLC_load_hit 158606
Core_0_LLC_load_miss 106187
Core_0_LLC_RFOs 250136
Core_0_LLC_RFO_hit 130814
Core_0_LLC_RFO_miss 119322
Core_0_LLC_prefetches 0
Core_0_LLC_prefetch_hit 0
Core_0_LLC_prefetch_miss 0
Core_0_LLC_writebacks 250779
Core_0_LLC_writeback_hit 160322
Core_0_LLC_writeback_miss 90457
Core_0_LLC_prefetch_requested 0
Core_0_LLC_prefetch_dropped 0
Core_0_LLC_prefetch_issued 0
Core_0_LLC_prefetch_filled 0
Core_0_LLC_prefetch_useful 0
Core_0_LLC_prefetch_useless 0
Core_0_LLC_prefetch_late 0
Core_0_LLC_average_miss_latency 156.33566

Core_0_LLC_rq_access 514929
Core_0_LLC_rq_forward 0
Core_0_LLC_rq_merged 0
Core_0_LLC_rq_to_cache 514929
Core_0_LLC_rq_full 0

Core_0_LLC_wq_access 250779
Core_0_LLC_wq_forward 0
Core_0_LLC_wq_merged 0
Core_0_LLC_wq_to_cache 250779
Core_0_LLC_wq_full 0

Core_0_LLC_pq_access 0
Core_0_LLC_pq_forward 0
Core_0_LLC_pq_merged 0
Core_0_LLC_pq_to_cache 0
Core_0_LLC_pq_full 0

Core_0_LLC_acc_epochs 53996
Core_0_LLC_acc_level_0 53996
Core_0_LLC_acc_level_1 0
Core_0_LLC_acc_level_2 0
Core_0_LLC_acc_level_3 0
Core_0_LLC_acc_level_4 0
Core_0_LLC_acc_level_5 0
Core_0_LLC_acc_level_6 0
Core_0_LLC_acc_level_7 0
Core_0_LLC_acc_level_8 0
Core_0_LLC_acc_level_9 0

Core_0_major_page_fault 0
Core_0_minor_page_fault 6243

Channel_0_RQ_row_buffer_hit 80868
Channel_0_RQ_row_buffer_miss 144641
Channel_0_WQ_row_buffer_hit 31628
Channel_0_WQ_row_buffer_miss 86756
Channel_0_WQ_full 249
Channel_0_dbus_congested 95161

avg_congested_cycle 11

DRAM_bw_pochs 215981
DRAM_bw_level_0 207156
DRAM_bw_level_1 3595
DRAM_bw_level_2 4904
DRAM_bw_level_3 326
