*************************************************
   ChampSim Multicore Out-of-Order Simulator
   Last compiled: Apr  3 2025 20:54:34
*************************************************
parsing config file: /home/zir/Pythia/config/nopref.ini

trace_0 /home/zir/ChampSim/ML-DPC/ChampSimTraces/spec17/607.cactuBSSN-s2.trace.xz
adding L2C_PREFETCHER: NONE
Initialize SHIP state
warmup_instructions 10000000
simulation_instructions 50000000
champsim_seed 165
measure_ipc 0
measure_ipc_epoch 1000
measure_dram_bw 1
measure_dram_bw_epoch 256
measure_cache_acc 1
measure_cache_acc_epoch 1024
l1d_perfect 0
l2c_perfect 0
llc_perfect 0
l1d_semi_perfect 0
l2c_semi_perfect 0
llc_semi_perfect 0
semi_perfect_cache_page_buffer_size 64

num_cpus 1
cpu_freq 4000
dram_io_freq 2400
page_size 4096
block_size 64
max_read_per_cycle 8
max_fill_per_cycle 1
dram_channels 1
log2_dram_channels 0
dram_ranks 1
dram_banks 8
dram_rows 65536
dram_columns 128
dram_row_size 8
dram_size 4096
dram_pages 1048576

fetch_width 6
decode_width 6
exec_width 4
lq_width 2
sq_width 2
retire_width 4
scheduler_size 128
branch_mispredict_penalty 20
rob_size 256
lq_size 72
sq_size 56
num_instr_destinations_sparc 4
num_instr_destinations 2
num_instr_sources 4

itlb_set 16
itlb_way 8
itlb_rq_size 16
itlb_wq_size 16
itlb_pq_size 0
itlb_mshr_size 8
itlb_latency 1

dtlb_set 16
dtlb_way 4
dtlb_rq_size 16
dtlb_wq_size 16
dtlb_pq_size 0
dtlb_mshr_size 8
dtlb_latency 1

stlb_set 128
stlb_way 12
stlb_rq_size 32
stlb_wq_size 32
stlb_pq_size 0
stlb_mshr_size 16
stlb_latency 8

l1i_size 32
l1i_set 64
l1i_way 8
l1i_rq_size 64
l1i_wq_size 64
l1i_pq_size 8
l1i_mshr_size 8
l1i_latency 1

l1d_size 32
l1d_set 64
l1d_way 8
l1d_rq_size 64
l1d_wq_size 64
l1d_pq_size 8
l1d_mshr_size 16
l1d_latency 4

l2c_size 256
l2c_set 512
l2c_way 8
l2c_rq_size 32
l2c_wq_size 32
l2c_pq_size 32
l2c_mshr_size 32
l2c_latency 10

llc_size 2048
llc_set 2048
llc_way 16
llc_rq_size 32
llc_wq_size 32
llc_pq_size 32
llc_mshr_size 64
llc_latency 20

dram_channel_width 8
dram_wq_size 64
dram_rq_size 64
tRP 15
tRCD 15
tCAS 12.5
dram_dbus_turn_around_time 30
dram_write_high_wm 56
dram_write_low_wm 48
min_dram_writes_per_switch 16
dram_mtps 2400
dram_dbus_return_time 13


Heartbeat CPU  0 instructions:    1000002 cycles:     570340 heartbeat IPC: 1.75334 cumulative IPC: 1.75334 (Simulation time: 0 hr 0 min 2 sec) 
Heartbeat CPU  0 instructions:    2000001 cycles:    1139921 heartbeat IPC: 1.75567 cumulative IPC: 1.75451 (Simulation time: 0 hr 0 min 4 sec) 
Heartbeat CPU  0 instructions:    3000000 cycles:    1710027 heartbeat IPC: 1.75406 cumulative IPC: 1.75436 (Simulation time: 0 hr 0 min 6 sec) 
Heartbeat CPU  0 instructions:    4000000 cycles:    2279539 heartbeat IPC: 1.75589 cumulative IPC: 1.75474 (Simulation time: 0 hr 0 min 7 sec) 
Heartbeat CPU  0 instructions:    5000003 cycles:    2849552 heartbeat IPC: 1.75435 cumulative IPC: 1.75466 (Simulation time: 0 hr 0 min 9 sec) 
Heartbeat CPU  0 instructions:    6000003 cycles:    3419469 heartbeat IPC: 1.75464 cumulative IPC: 1.75466 (Simulation time: 0 hr 0 min 11 sec) 
Heartbeat CPU  0 instructions:    7000000 cycles:    3989598 heartbeat IPC: 1.75398 cumulative IPC: 1.75456 (Simulation time: 0 hr 0 min 13 sec) 
Heartbeat CPU  0 instructions:    8000000 cycles:    4559347 heartbeat IPC: 1.75516 cumulative IPC: 1.75464 (Simulation time: 0 hr 0 min 15 sec) 
Heartbeat CPU  0 instructions:    9000002 cycles:    5129107 heartbeat IPC: 1.75513 cumulative IPC: 1.75469 (Simulation time: 0 hr 0 min 17 sec) 
Heartbeat CPU  0 instructions:   10000000 cycles:    5698899 heartbeat IPC: 1.75502 cumulative IPC: 1.75472 (Simulation time: 0 hr 0 min 18 sec) 

Warmup complete CPU  0 instructions:   10000001 cycles:    5698900 (Simulation time: 0 hr 0 min 18 sec) 

Heartbeat CPU  0 instructions:   11000003 cycles:    6716837 heartbeat IPC: 0.98238 cumulative IPC: 0.98238 (Simulation time: 0 hr 0 min 21 sec) 
Heartbeat CPU  0 instructions:   12000000 cycles:    7746601 heartbeat IPC: 0.97109 cumulative IPC: 0.97670 (Simulation time: 0 hr 0 min 23 sec) 
Heartbeat CPU  0 instructions:   13000003 cycles:    8777741 heartbeat IPC: 0.96980 cumulative IPC: 0.97439 (Simulation time: 0 hr 0 min 25 sec) 
Heartbeat CPU  0 instructions:   14000000 cycles:    9817529 heartbeat IPC: 0.96173 cumulative IPC: 0.97120 (Simulation time: 0 hr 0 min 27 sec) 
Heartbeat CPU  0 instructions:   15000002 cycles:   10844982 heartbeat IPC: 0.97328 cumulative IPC: 0.97161 (Simulation time: 0 hr 0 min 29 sec) 
Heartbeat CPU  0 instructions:   16000000 cycles:   11882627 heartbeat IPC: 0.96372 cumulative IPC: 0.97029 (Simulation time: 0 hr 0 min 31 sec) 
Heartbeat CPU  0 instructions:   17000002 cycles:   12911523 heartbeat IPC: 0.97192 cumulative IPC: 0.97052 (Simulation time: 0 hr 0 min 34 sec) 
Heartbeat CPU  0 instructions:   18000001 cycles:   13945331 heartbeat IPC: 0.96730 cumulative IPC: 0.97012 (Simulation time: 0 hr 0 min 36 sec) 
Heartbeat CPU  0 instructions:   19000003 cycles:   14980029 heartbeat IPC: 0.96647 cumulative IPC: 0.96971 (Simulation time: 0 hr 0 min 38 sec) 
Heartbeat CPU  0 instructions:   20000000 cycles:   16017995 heartbeat IPC: 0.96342 cumulative IPC: 0.96908 (Simulation time: 0 hr 0 min 40 sec) 
Heartbeat CPU  0 instructions:   21000002 cycles:   17047290 heartbeat IPC: 0.97154 cumulative IPC: 0.96930 (Simulation time: 0 hr 0 min 42 sec) 
Heartbeat CPU  0 instructions:   22000003 cycles:   18088268 heartbeat IPC: 0.96064 cumulative IPC: 0.96857 (Simulation time: 0 hr 0 min 44 sec) 
Heartbeat CPU  0 instructions:   23000001 cycles:   19134702 heartbeat IPC: 0.95562 cumulative IPC: 0.96756 (Simulation time: 0 hr 0 min 46 sec) 
Heartbeat CPU  0 instructions:   24000000 cycles:   20172640 heartbeat IPC: 0.96345 cumulative IPC: 0.96727 (Simulation time: 0 hr 0 min 49 sec) 
Heartbeat CPU  0 instructions:   25000000 cycles:   21219608 heartbeat IPC: 0.95514 cumulative IPC: 0.96645 (Simulation time: 0 hr 0 min 51 sec) 
Heartbeat CPU  0 instructions:   26000001 cycles:   22258963 heartbeat IPC: 0.96214 cumulative IPC: 0.96618 (Simulation time: 0 hr 0 min 53 sec) 
Heartbeat CPU  0 instructions:   27000003 cycles:   23307649 heartbeat IPC: 0.95358 cumulative IPC: 0.96543 (Simulation time: 0 hr 0 min 55 sec) 
Heartbeat CPU  0 instructions:   28000000 cycles:   24351065 heartbeat IPC: 0.95839 cumulative IPC: 0.96504 (Simulation time: 0 hr 0 min 57 sec) 
Heartbeat CPU  0 instructions:   29000002 cycles:   25399783 heartbeat IPC: 0.95355 cumulative IPC: 0.96442 (Simulation time: 0 hr 0 min 59 sec) 
Heartbeat CPU  0 instructions:   30000003 cycles:   26444946 heartbeat IPC: 0.95679 cumulative IPC: 0.96404 (Simulation time: 0 hr 1 min 2 sec) 
Heartbeat CPU  0 instructions:   31000003 cycles:   27488774 heartbeat IPC: 0.95801 cumulative IPC: 0.96375 (Simulation time: 0 hr 1 min 4 sec) 
Heartbeat CPU  0 instructions:   32000000 cycles:   28528482 heartbeat IPC: 0.96181 cumulative IPC: 0.96366 (Simulation time: 0 hr 1 min 6 sec) 
Heartbeat CPU  0 instructions:   33000000 cycles:   29580872 heartbeat IPC: 0.95022 cumulative IPC: 0.96307 (Simulation time: 0 hr 1 min 9 sec) 
Heartbeat CPU  0 instructions:   34000000 cycles:   30631927 heartbeat IPC: 0.95143 cumulative IPC: 0.96258 (Simulation time: 0 hr 1 min 11 sec) 
Heartbeat CPU  0 instructions:   35000001 cycles:   31675830 heartbeat IPC: 0.95794 cumulative IPC: 0.96239 (Simulation time: 0 hr 1 min 13 sec) 
Heartbeat CPU  0 instructions:   36000000 cycles:   32729882 heartbeat IPC: 0.94872 cumulative IPC: 0.96186 (Simulation time: 0 hr 1 min 15 sec) 
Heartbeat CPU  0 instructions:   37000002 cycles:   33774046 heartbeat IPC: 0.95771 cumulative IPC: 0.96170 (Simulation time: 0 hr 1 min 17 sec) 
Heartbeat CPU  0 instructions:   38000002 cycles:   34829949 heartbeat IPC: 0.94706 cumulative IPC: 0.96117 (Simulation time: 0 hr 1 min 20 sec) 
Heartbeat CPU  0 instructions:   39000001 cycles:   35881489 heartbeat IPC: 0.95099 cumulative IPC: 0.96082 (Simulation time: 0 hr 1 min 22 sec) 
Heartbeat CPU  0 instructions:   40000000 cycles:   36923072 heartbeat IPC: 0.96008 cumulative IPC: 0.96079 (Simulation time: 0 hr 1 min 24 sec) 
Heartbeat CPU  0 instructions:   41000002 cycles:   37967111 heartbeat IPC: 0.95782 cumulative IPC: 0.96070 (Simulation time: 0 hr 1 min 26 sec) 
Heartbeat CPU  0 instructions:   42000000 cycles:   39006553 heartbeat IPC: 0.96205 cumulative IPC: 0.96074 (Simulation time: 0 hr 1 min 28 sec) 
Heartbeat CPU  0 instructions:   43000002 cycles:   40048108 heartbeat IPC: 0.96010 cumulative IPC: 0.96072 (Simulation time: 0 hr 1 min 30 sec) 
Heartbeat CPU  0 instructions:   44000000 cycles:   41091106 heartbeat IPC: 0.95877 cumulative IPC: 0.96066 (Simulation time: 0 hr 1 min 33 sec) 
Heartbeat CPU  0 instructions:   45000002 cycles:   42135768 heartbeat IPC: 0.95725 cumulative IPC: 0.96057 (Simulation time: 0 hr 1 min 35 sec) 
Heartbeat CPU  0 instructions:   46000002 cycles:   43174238 heartbeat IPC: 0.96296 cumulative IPC: 0.96063 (Simulation time: 0 hr 1 min 37 sec) 
Heartbeat CPU  0 instructions:   47000001 cycles:   44209690 heartbeat IPC: 0.96576 cumulative IPC: 0.96077 (Simulation time: 0 hr 1 min 39 sec) 
Heartbeat CPU  0 instructions:   48000000 cycles:   45246774 heartbeat IPC: 0.96424 cumulative IPC: 0.96086 (Simulation time: 0 hr 1 min 41 sec) 
Heartbeat CPU  0 instructions:   49000003 cycles:   46289970 heartbeat IPC: 0.95860 cumulative IPC: 0.96080 (Simulation time: 0 hr 1 min 44 sec) 
Heartbeat CPU  0 instructions:   50000000 cycles:   47334537 heartbeat IPC: 0.95733 cumulative IPC: 0.96072 (Simulation time: 0 hr 1 min 46 sec) 
Heartbeat CPU  0 instructions:   51000002 cycles:   48372642 heartbeat IPC: 0.96330 cumulative IPC: 0.96078 (Simulation time: 0 hr 1 min 48 sec) 
Heartbeat CPU  0 instructions:   52000000 cycles:   49422570 heartbeat IPC: 0.95244 cumulative IPC: 0.96058 (Simulation time: 0 hr 1 min 51 sec) 
Heartbeat CPU  0 instructions:   53000003 cycles:   50469790 heartbeat IPC: 0.95491 cumulative IPC: 0.96045 (Simulation time: 0 hr 1 min 54 sec) 
Heartbeat CPU  0 instructions:   54000000 cycles:   51519641 heartbeat IPC: 0.95251 cumulative IPC: 0.96026 (Simulation time: 0 hr 1 min 57 sec) 
Heartbeat CPU  0 instructions:   55000000 cycles:   52561922 heartbeat IPC: 0.95943 cumulative IPC: 0.96025 (Simulation time: 0 hr 2 min 0 sec) 
Heartbeat CPU  0 instructions:   56000000 cycles:   53600179 heartbeat IPC: 0.96315 cumulative IPC: 0.96031 (Simulation time: 0 hr 2 min 2 sec) 
Heartbeat CPU  0 instructions:   57000001 cycles:   54643549 heartbeat IPC: 0.95843 cumulative IPC: 0.96027 (Simulation time: 0 hr 2 min 5 sec) 
Heartbeat CPU  0 instructions:   58000000 cycles:   55684883 heartbeat IPC: 0.96031 cumulative IPC: 0.96027 (Simulation time: 0 hr 2 min 7 sec) 
Heartbeat CPU  0 instructions:   59000002 cycles:   56724026 heartbeat IPC: 0.96233 cumulative IPC: 0.96031 (Simulation time: 0 hr 2 min 9 sec) 
Heartbeat CPU  0 instructions:   60000000 cycles:   57753893 heartbeat IPC: 0.97100 cumulative IPC: 0.96052 (Simulation time: 0 hr 2 min 12 sec) 
Finished CPU 0 instructions: 50000000 cycles: 52055040 cumulative IPC: 0.96052 (Simulation time: 0 hr 2 min 12 sec) 

ChampSim completed all CPUs

[ROI Statistics]
Core_0_instructions 50000000
Core_0_cycles 52055040
Core_0_IPC 0.96052

Core_0_branch_prediction_accuracy 99.98365
Core_0_branch_MPKI 0.00110
Core_0_average_ROB_occupancy_at_mispredict 253.34545

Core_0_L1D_total_access 19663565
Core_0_L1D_total_hit 15657227
Core_0_L1D_total_miss 4006338
Core_0_L1D_loads 15663160
Core_0_L1D_load_hit 11985667
Core_0_L1D_load_miss 3677493
Core_0_L1D_RFOs 4000405
Core_0_L1D_RFO_hit 3671560
Core_0_L1D_RFO_miss 328845
Core_0_L1D_prefetches 0
Core_0_L1D_prefetch_hit 0
Core_0_L1D_prefetch_miss 0
Core_0_L1D_writebacks 0
Core_0_L1D_writeback_hit 0
Core_0_L1D_writeback_miss 0
Core_0_L1D_prefetch_requested 0
Core_0_L1D_prefetch_dropped 0
Core_0_L1D_prefetch_issued 0
Core_0_L1D_prefetch_filled 0
Core_0_L1D_prefetch_useful 0
Core_0_L1D_prefetch_useless 0
Core_0_L1D_prefetch_late 0
Core_0_L1D_average_miss_latency 29.64066

Core_0_L1D_rq_access 19272562
Core_0_L1D_rq_forward 0
Core_0_L1D_rq_merged 3430082
Core_0_L1D_rq_to_cache 15842276
Core_0_L1D_rq_full 0

Core_0_L1D_wq_access 4053156
Core_0_L1D_wq_forward 204
Core_0_L1D_wq_merged 26765
Core_0_L1D_wq_to_cache 4026391
Core_0_L1D_wq_full 0

Core_0_L1D_pq_access 0
Core_0_L1D_pq_forward 0
Core_0_L1D_pq_merged 0
Core_0_L1D_pq_to_cache 0
Core_0_L1D_pq_full 0

Core_0_L1D_acc_epochs 56202
Core_0_L1D_acc_level_0 56202
Core_0_L1D_acc_level_1 0
Core_0_L1D_acc_level_2 0
Core_0_L1D_acc_level_3 0
Core_0_L1D_acc_level_4 0
Core_0_L1D_acc_level_5 0
Core_0_L1D_acc_level_6 0
Core_0_L1D_acc_level_7 0
Core_0_L1D_acc_level_8 0
Core_0_L1D_acc_level_9 0

Core_0_L1I_total_access 11543113
Core_0_L1I_total_hit 10243105
Core_0_L1I_total_miss 1300008
Core_0_L1I_loads 11543113
Core_0_L1I_load_hit 10243105
Core_0_L1I_load_miss 1300008
Core_0_L1I_RFOs 0
Core_0_L1I_RFO_hit 0
Core_0_L1I_RFO_miss 0
Core_0_L1I_prefetches 0
Core_0_L1I_prefetch_hit 0
Core_0_L1I_prefetch_miss 0
Core_0_L1I_writebacks 0
Core_0_L1I_writeback_hit 0
Core_0_L1I_writeback_miss 0
Core_0_L1I_prefetch_requested 0
Core_0_L1I_prefetch_dropped 0
Core_0_L1I_prefetch_issued 0
Core_0_L1I_prefetch_filled 0
Core_0_L1I_prefetch_useful 0
Core_0_L1I_prefetch_useless 0
Core_0_L1I_prefetch_late 0
Core_0_L1I_average_miss_latency 11.74242

Core_0_L1I_rq_access 50000004
Core_0_L1I_rq_forward 0
Core_0_L1I_rq_merged 36963257
Core_0_L1I_rq_to_cache 13036747
Core_0_L1I_rq_full 0

Core_0_L1I_wq_access 0
Core_0_L1I_wq_forward 0
Core_0_L1I_wq_merged 0
Core_0_L1I_wq_to_cache 0
Core_0_L1I_wq_full 0

Core_0_L1I_pq_access 0
Core_0_L1I_pq_forward 0
Core_0_L1I_pq_merged 0
Core_0_L1I_pq_to_cache 0
Core_0_L1I_pq_full 0

Core_0_L1I_acc_epochs 56202
Core_0_L1I_acc_level_0 56202
Core_0_L1I_acc_level_1 0
Core_0_L1I_acc_level_2 0
Core_0_L1I_acc_level_3 0
Core_0_L1I_acc_level_4 0
Core_0_L1I_acc_level_5 0
Core_0_L1I_acc_level_6 0
Core_0_L1I_acc_level_7 0
Core_0_L1I_acc_level_8 0
Core_0_L1I_acc_level_9 0

Core_0_L2C_total_access 5672748
Core_0_L2C_total_hit 5211244
Core_0_L2C_total_miss 461504
Core_0_L2C_loads 4976811
Core_0_L2C_load_hit 4553739
Core_0_L2C_load_miss 423072
Core_0_L2C_RFOs 328540
Core_0_L2C_RFO_hit 290204
Core_0_L2C_RFO_miss 38336
Core_0_L2C_prefetches 0
Core_0_L2C_prefetch_hit 0
Core_0_L2C_prefetch_miss 0
Core_0_L2C_writebacks 367397
Core_0_L2C_writeback_hit 367301
Core_0_L2C_writeback_miss 96
Core_0_L2C_prefetch_requested 0
Core_0_L2C_prefetch_dropped 0
Core_0_L2C_prefetch_issued 0
Core_0_L2C_prefetch_filled 0
Core_0_L2C_prefetch_useful 0
Core_0_L2C_prefetch_useless 0
Core_0_L2C_prefetch_late 0
Core_0_L2C_average_miss_latency 128.54546

Core_0_L2C_rq_access 5306352
Core_0_L2C_rq_forward 0
Core_0_L2C_rq_merged 0
Core_0_L2C_rq_to_cache 5305354
Core_0_L2C_rq_full 0

Core_0_L2C_wq_access 367397
Core_0_L2C_wq_forward 998
Core_0_L2C_wq_merged 0
Core_0_L2C_wq_to_cache 367397
Core_0_L2C_wq_full 0

Core_0_L2C_pq_access 0
Core_0_L2C_pq_forward 0
Core_0_L2C_pq_merged 0
Core_0_L2C_pq_to_cache 0
Core_0_L2C_pq_full 0

Core_0_L2C_acc_epochs 56202
Core_0_L2C_acc_level_0 56202
Core_0_L2C_acc_level_1 0
Core_0_L2C_acc_level_2 0
Core_0_L2C_acc_level_3 0
Core_0_L2C_acc_level_4 0
Core_0_L2C_acc_level_5 0
Core_0_L2C_acc_level_6 0
Core_0_L2C_acc_level_7 0
Core_0_L2C_acc_level_8 0
Core_0_L2C_acc_level_9 0

Core_0_LLC_total_access 499574
Core_0_LLC_total_hit 364940
Core_0_LLC_total_miss 134634
Core_0_LLC_loads 423068
Core_0_LLC_load_hit 320521
Core_0_LLC_load_miss 102547
Core_0_LLC_RFOs 37955
Core_0_LLC_RFO_hit 8530
Core_0_LLC_RFO_miss 29425
Core_0_LLC_prefetches 0
Core_0_LLC_prefetch_hit 0
Core_0_LLC_prefetch_miss 0
Core_0_LLC_writebacks 38551
Core_0_LLC_writeback_hit 35889
Core_0_LLC_writeback_miss 2662
Core_0_LLC_prefetch_requested 0
Core_0_LLC_prefetch_dropped 0
Core_0_LLC_prefetch_issued 0
Core_0_LLC_prefetch_filled 0
Core_0_LLC_prefetch_useful 0
Core_0_LLC_prefetch_useless 0
Core_0_LLC_prefetch_late 0
Core_0_LLC_average_miss_latency 337.07685

Core_0_LLC_rq_access 461408
Core_0_LLC_rq_forward 0
Core_0_LLC_rq_merged 0
Core_0_LLC_rq_to_cache 461023
Core_0_LLC_rq_full 0

Core_0_LLC_wq_access 38551
Core_0_LLC_wq_forward 385
Core_0_LLC_wq_merged 0
Core_0_LLC_wq_to_cache 38551
Core_0_LLC_wq_full 0

Core_0_LLC_pq_access 0
Core_0_LLC_pq_forward 0
Core_0_LLC_pq_merged 0
Core_0_LLC_pq_to_cache 0
Core_0_LLC_pq_full 0

Core_0_LLC_acc_epochs 56401
Core_0_LLC_acc_level_0 56401
Core_0_LLC_acc_level_1 0
Core_0_LLC_acc_level_2 0
Core_0_LLC_acc_level_3 0
Core_0_LLC_acc_level_4 0
Core_0_LLC_acc_level_5 0
Core_0_LLC_acc_level_6 0
Core_0_LLC_acc_level_7 0
Core_0_LLC_acc_level_8 0
Core_0_LLC_acc_level_9 0

Core_0_major_page_fault 0
Core_0_minor_page_fault 2672

Channel_0_RQ_row_buffer_hit 68510
Channel_0_RQ_row_buffer_miss 63462
Channel_0_WQ_row_buffer_hit 12137
Channel_0_WQ_row_buffer_miss 21159
Channel_0_WQ_full 0
Channel_0_dbus_congested 29472

avg_congested_cycle 8

DRAM_bw_pochs 225602
DRAM_bw_level_0 207341
DRAM_bw_level_1 12181
DRAM_bw_level_2 3515
DRAM_bw_level_3 2565
