*************************************************
   ChampSim Multicore Out-of-Order Simulator
   Last compiled: Apr  3 2025 20:54:34
*************************************************
parsing config file: /home/zir/Pythia/config/pythia.ini

trace_0 /home/zir/ChampSim/ML-DPC/ChampSimTraces/spec17/623.xalancbmk-s4.trace.xz
adding L2C_PREFETCHER: Scooby
Initialize SHIP state
warmup_instructions 10000000
simulation_instructions 50000000
champsim_seed 167
measure_ipc 0
measure_ipc_epoch 1000
measure_dram_bw 1
measure_dram_bw_epoch 256
measure_cache_acc 1
measure_cache_acc_epoch 1024
l1d_perfect 0
l2c_perfect 0
llc_perfect 0
l1d_semi_perfect 0
l2c_semi_perfect 0
llc_semi_perfect 0
semi_perfect_cache_page_buffer_size 64

num_cpus 1
cpu_freq 4000
dram_io_freq 2400
page_size 4096
block_size 64
max_read_per_cycle 8
max_fill_per_cycle 1
dram_channels 1
log2_dram_channels 0
dram_ranks 1
dram_banks 8
dram_rows 65536
dram_columns 128
dram_row_size 8
dram_size 4096
dram_pages 1048576

fetch_width 6
decode_width 6
exec_width 4
lq_width 2
sq_width 2
retire_width 4
scheduler_size 128
branch_mispredict_penalty 20
rob_size 256
lq_size 72
sq_size 56
num_instr_destinations_sparc 4
num_instr_destinations 2
num_instr_sources 4

itlb_set 16
itlb_way 8
itlb_rq_size 16
itlb_wq_size 16
itlb_pq_size 0
itlb_mshr_size 8
itlb_latency 1

dtlb_set 16
dtlb_way 4
dtlb_rq_size 16
dtlb_wq_size 16
dtlb_pq_size 0
dtlb_mshr_size 8
dtlb_latency 1

stlb_set 128
stlb_way 12
stlb_rq_size 32
stlb_wq_size 32
stlb_pq_size 0
stlb_mshr_size 16
stlb_latency 8

l1i_size 32
l1i_set 64
l1i_way 8
l1i_rq_size 64
l1i_wq_size 64
l1i_pq_size 8
l1i_mshr_size 8
l1i_latency 1

l1d_size 32
l1d_set 64
l1d_way 8
l1d_rq_size 64
l1d_wq_size 64
l1d_pq_size 8
l1d_mshr_size 16
l1d_latency 4

l2c_size 256
l2c_set 512
l2c_way 8
l2c_rq_size 32
l2c_wq_size 32
l2c_pq_size 32
l2c_mshr_size 32
l2c_latency 10

llc_size 2048
llc_set 2048
llc_way 16
llc_rq_size 32
llc_wq_size 32
llc_pq_size 32
llc_mshr_size 64
llc_latency 20

dram_channel_width 8
dram_wq_size 64
dram_rq_size 64
tRP 15
tRCD 15
tCAS 12.5
dram_dbus_turn_around_time 30
dram_write_high_wm 56
dram_write_low_wm 48
min_dram_writes_per_switch 16
dram_mtps 2400
dram_dbus_return_time 13

scooby_alpha 0.0065088
scooby_gamma 0.556301
scooby_epsilon 0.00182284
scooby_state_num_bits 10
scooby_max_states 1024
scooby_seed 200
scooby_policy EGreedy
scooby_learning_type SARSA
scooby_actions 1,3,4,5,10,11,12,22,23,30,32,-1,-3,-6,0,
scooby_max_actions 15
scooby_pt_size 256
scooby_st_size 64
scooby_max_pcs 5
scooby_max_offsets 5
scooby_max_deltas 5
scooby_reward_none -4
scooby_reward_incorrect -8
scooby_reward_correct_untimely 12
scooby_reward_correct_timely 20
scooby_brain_zero_init 0
scooby_enable_reward_all 0
scooby_enable_track_multiple 0
scooby_enable_reward_out_of_bounds 1
scooby_reward_out_of_bounds -12
scooby_state_type 1
scooby_state_hash_type 11
scooby_access_debug 0
scooby_print_access_debug 0
scooby_print_access_debug_pc deadbeef
scooby_print_access_debug_pc_count 0
scooby_print_trace 0
scooby_enable_state_action_stats 1
scooby_enable_reward_tracker_hit 0
scooby_reward_tracker_hit -2
scooby_enable_featurewise_engine 1
scooby_pref_degree 1
scooby_enable_dyn_degree 1
scooby_max_to_avg_q_thresholds 0.5,1,2,
scooby_dyn_degrees 1,2,4,4,
scooby_multi_deg_select_type 2
scooby_last_pref_offset_conf_thresholds 1,3,8,
scooby_dyn_degrees_type2 1,2,4,6,
scooby_action_tracker_size 2
scooby_high_bw_thresh 4
scooby_enable_hbw_reward 1
scooby_reward_hbw_correct_timely 20
scooby_reward_hbw_correct_untimely 12
scooby_reward_hbw_incorrect -14
scooby_reward_hbw_none -2
scooby_reward_hbw_out_of_bounds -12
scooby_reward_hbw_tracker_hit -2
scooby_last_pref_offset_conf_thresholds_hbw 1,3,8,
scooby_dyn_degrees_type2_hbw 1,2,4,6,

le_enable_trace 0
le_trace_interval 0
le_trace_file_name 
le_trace_state 0
le_enable_score_plot 0
le_plot_file_name 
le_plot_actions 
le_enable_action_trace 0
le_action_trace_interval 0
le_action_trace_name 
le_enable_action_plot 0

le_featurewise_active_features PC, PC_Delta
le_featurewise_num_tilings 3,3,
le_featurewise_num_tiles 128,128,
le_featurewise_hash_types 2,2,
le_featurewise_enable_tiling_offset 1,1,
le_featurewise_max_q_thresh 0.5
le_featurewise_enable_action_fallback 1
le_featurewise_feature_weights 1,1,
le_featurewise_enable_dynamic_weight 0
le_featurewise_weight_gradient 0.001
le_featurewise_disable_adjust_weight_all_features_align 1
le_featurewise_selective_update 0
le_featurewise_pooling_type 2
le_featurewise_enable_dyn_action_fallback 1
le_featurewise_bw_acc_check_level 1
le_featurewise_acc_thresh 2
le_featurewise_enable_trace 0
le_featurewise_trace_feature_type 0
le_featurewise_trace_feature 
le_featurewise_trace_interval 0
le_featurewise_trace_record_count 0
le_featurewise_trace_file_name 
le_featurewise_enable_score_plot 0
le_featurewise_plot_actions 
le_featurewise_plot_file_name 


Heartbeat CPU  0 instructions:    1000003 cycles:     516808 heartbeat IPC: 1.93496 cumulative IPC: 1.93496 (Simulation time: 0 hr 0 min 2 sec) 
Heartbeat CPU  0 instructions:    2000003 cycles:    1044543 heartbeat IPC: 1.89489 cumulative IPC: 1.91472 (Simulation time: 0 hr 0 min 4 sec) 
Heartbeat CPU  0 instructions:    3000001 cycles:    1565118 heartbeat IPC: 1.92095 cumulative IPC: 1.91679 (Simulation time: 0 hr 0 min 6 sec) 
Heartbeat CPU  0 instructions:    4000000 cycles:    2077161 heartbeat IPC: 1.95296 cumulative IPC: 1.92571 (Simulation time: 0 hr 0 min 7 sec) 
Heartbeat CPU  0 instructions:    5000001 cycles:    2606612 heartbeat IPC: 1.88875 cumulative IPC: 1.91820 (Simulation time: 0 hr 0 min 9 sec) 
Heartbeat CPU  0 instructions:    6000003 cycles:    3147160 heartbeat IPC: 1.84998 cumulative IPC: 1.90648 (Simulation time: 0 hr 0 min 11 sec) 
Heartbeat CPU  0 instructions:    7000003 cycles:    3676851 heartbeat IPC: 1.88789 cumulative IPC: 1.90380 (Simulation time: 0 hr 0 min 13 sec) 
Heartbeat CPU  0 instructions:    8000000 cycles:    4210505 heartbeat IPC: 1.87387 cumulative IPC: 1.90001 (Simulation time: 0 hr 0 min 15 sec) 
Heartbeat CPU  0 instructions:    9000000 cycles:    4762286 heartbeat IPC: 1.81231 cumulative IPC: 1.88985 (Simulation time: 0 hr 0 min 17 sec) 
Heartbeat CPU  0 instructions:   10000002 cycles:    5286384 heartbeat IPC: 1.90804 cumulative IPC: 1.89165 (Simulation time: 0 hr 0 min 19 sec) 

Warmup complete CPU  0 instructions:   10000002 cycles:    5286384 (Simulation time: 0 hr 0 min 19 sec) 

Heartbeat CPU  0 instructions:   11000002 cycles:    7666358 heartbeat IPC: 0.42017 cumulative IPC: 0.42017 (Simulation time: 0 hr 0 min 21 sec) 
Heartbeat CPU  0 instructions:   12000000 cycles:    9972841 heartbeat IPC: 0.43356 cumulative IPC: 0.42676 (Simulation time: 0 hr 0 min 24 sec) 
Heartbeat CPU  0 instructions:   13000000 cycles:   12400330 heartbeat IPC: 0.41195 cumulative IPC: 0.42171 (Simulation time: 0 hr 0 min 27 sec) 
Heartbeat CPU  0 instructions:   14000003 cycles:   14766695 heartbeat IPC: 0.42259 cumulative IPC: 0.42193 (Simulation time: 0 hr 0 min 29 sec) 
Heartbeat CPU  0 instructions:   15000000 cycles:   17246177 heartbeat IPC: 0.40331 cumulative IPC: 0.41807 (Simulation time: 0 hr 0 min 32 sec) 
Heartbeat CPU  0 instructions:   16000000 cycles:   19873192 heartbeat IPC: 0.38066 cumulative IPC: 0.41133 (Simulation time: 0 hr 0 min 34 sec) 
Heartbeat CPU  0 instructions:   17000001 cycles:   22627469 heartbeat IPC: 0.36307 cumulative IPC: 0.40367 (Simulation time: 0 hr 0 min 37 sec) 
Heartbeat CPU  0 instructions:   18000001 cycles:   25365108 heartbeat IPC: 0.36528 cumulative IPC: 0.39843 (Simulation time: 0 hr 0 min 40 sec) 
Heartbeat CPU  0 instructions:   19000001 cycles:   28350989 heartbeat IPC: 0.33491 cumulative IPC: 0.39021 (Simulation time: 0 hr 0 min 43 sec) 
Heartbeat CPU  0 instructions:   20000000 cycles:   31495126 heartbeat IPC: 0.31805 cumulative IPC: 0.38155 (Simulation time: 0 hr 0 min 45 sec) 
Heartbeat CPU  0 instructions:   21000003 cycles:   34858859 heartbeat IPC: 0.29729 cumulative IPC: 0.37197 (Simulation time: 0 hr 0 min 48 sec) 
Heartbeat CPU  0 instructions:   22000003 cycles:   38491809 heartbeat IPC: 0.27526 cumulative IPC: 0.36139 (Simulation time: 0 hr 0 min 51 sec) 
Heartbeat CPU  0 instructions:   23000001 cycles:   42270617 heartbeat IPC: 0.26463 cumulative IPC: 0.35150 (Simulation time: 0 hr 0 min 54 sec) 
Heartbeat CPU  0 instructions:   24000000 cycles:   45733023 heartbeat IPC: 0.28882 cumulative IPC: 0.34614 (Simulation time: 0 hr 0 min 58 sec) 
Heartbeat CPU  0 instructions:   25000003 cycles:   49096008 heartbeat IPC: 0.29736 cumulative IPC: 0.34239 (Simulation time: 0 hr 1 min 1 sec) 
Heartbeat CPU  0 instructions:   26000001 cycles:   52374406 heartbeat IPC: 0.30503 cumulative IPC: 0.33979 (Simulation time: 0 hr 1 min 4 sec) 
Heartbeat CPU  0 instructions:   27000000 cycles:   55649432 heartbeat IPC: 0.30534 cumulative IPC: 0.33755 (Simulation time: 0 hr 1 min 7 sec) 
Heartbeat CPU  0 instructions:   28000000 cycles:   58797966 heartbeat IPC: 0.31761 cumulative IPC: 0.33638 (Simulation time: 0 hr 1 min 10 sec) 
Heartbeat CPU  0 instructions:   29000000 cycles:   62006659 heartbeat IPC: 0.31165 cumulative IPC: 0.33498 (Simulation time: 0 hr 1 min 13 sec) 
Heartbeat CPU  0 instructions:   30000000 cycles:   65615621 heartbeat IPC: 0.27709 cumulative IPC: 0.33151 (Simulation time: 0 hr 1 min 16 sec) 
Heartbeat CPU  0 instructions:   31000003 cycles:   69089524 heartbeat IPC: 0.28786 cumulative IPC: 0.32914 (Simulation time: 0 hr 1 min 20 sec) 
Heartbeat CPU  0 instructions:   32000000 cycles:   72390579 heartbeat IPC: 0.30293 cumulative IPC: 0.32785 (Simulation time: 0 hr 1 min 23 sec) 
Heartbeat CPU  0 instructions:   33000000 cycles:   75627861 heartbeat IPC: 0.30890 cumulative IPC: 0.32698 (Simulation time: 0 hr 1 min 26 sec) 
Heartbeat CPU  0 instructions:   34000002 cycles:   78818438 heartbeat IPC: 0.31342 cumulative IPC: 0.32639 (Simulation time: 0 hr 1 min 29 sec) 
Heartbeat CPU  0 instructions:   35000000 cycles:   81961011 heartbeat IPC: 0.31821 cumulative IPC: 0.32605 (Simulation time: 0 hr 1 min 32 sec) 
Heartbeat CPU  0 instructions:   36000000 cycles:   85046243 heartbeat IPC: 0.32412 cumulative IPC: 0.32598 (Simulation time: 0 hr 1 min 35 sec) 
Heartbeat CPU  0 instructions:   37000000 cycles:   88108448 heartbeat IPC: 0.32656 cumulative IPC: 0.32600 (Simulation time: 0 hr 1 min 38 sec) 
Heartbeat CPU  0 instructions:   38000000 cycles:   91141079 heartbeat IPC: 0.32975 cumulative IPC: 0.32613 (Simulation time: 0 hr 1 min 41 sec) 
Heartbeat CPU  0 instructions:   39000000 cycles:   94156276 heartbeat IPC: 0.33165 cumulative IPC: 0.32632 (Simulation time: 0 hr 1 min 44 sec) 
Heartbeat CPU  0 instructions:   40000000 cycles:   97118258 heartbeat IPC: 0.33761 cumulative IPC: 0.32668 (Simulation time: 0 hr 1 min 47 sec) 
Heartbeat CPU  0 instructions:   41000002 cycles:  100058688 heartbeat IPC: 0.34009 cumulative IPC: 0.32710 (Simulation time: 0 hr 1 min 50 sec) 
Heartbeat CPU  0 instructions:   42000000 cycles:  103000352 heartbeat IPC: 0.33994 cumulative IPC: 0.32749 (Simulation time: 0 hr 1 min 53 sec) 
Heartbeat CPU  0 instructions:   43000003 cycles:  105890103 heartbeat IPC: 0.34605 cumulative IPC: 0.32802 (Simulation time: 0 hr 1 min 56 sec) 
Heartbeat CPU  0 instructions:   44000000 cycles:  108733090 heartbeat IPC: 0.35174 cumulative IPC: 0.32867 (Simulation time: 0 hr 1 min 59 sec) 
Heartbeat CPU  0 instructions:   45000000 cycles:  111580155 heartbeat IPC: 0.35124 cumulative IPC: 0.32928 (Simulation time: 0 hr 2 min 2 sec) 
Heartbeat CPU  0 instructions:   46000000 cycles:  114416048 heartbeat IPC: 0.35262 cumulative IPC: 0.32988 (Simulation time: 0 hr 2 min 5 sec) 
Heartbeat CPU  0 instructions:   47000000 cycles:  117194564 heartbeat IPC: 0.35990 cumulative IPC: 0.33063 (Simulation time: 0 hr 2 min 8 sec) 
Heartbeat CPU  0 instructions:   48000000 cycles:  120000757 heartbeat IPC: 0.35635 cumulative IPC: 0.33126 (Simulation time: 0 hr 2 min 11 sec) 
Heartbeat CPU  0 instructions:   49000000 cycles:  122755258 heartbeat IPC: 0.36304 cumulative IPC: 0.33200 (Simulation time: 0 hr 2 min 13 sec) 
Heartbeat CPU  0 instructions:   50000002 cycles:  125490949 heartbeat IPC: 0.36554 cumulative IPC: 0.33277 (Simulation time: 0 hr 2 min 16 sec) 
Heartbeat CPU  0 instructions:   51000000 cycles:  128211337 heartbeat IPC: 0.36759 cumulative IPC: 0.33354 (Simulation time: 0 hr 2 min 19 sec) 
Heartbeat CPU  0 instructions:   52000000 cycles:  130914609 heartbeat IPC: 0.36992 cumulative IPC: 0.33432 (Simulation time: 0 hr 2 min 22 sec) 
Heartbeat CPU  0 instructions:   53000003 cycles:  133619002 heartbeat IPC: 0.36977 cumulative IPC: 0.33507 (Simulation time: 0 hr 2 min 25 sec) 
Heartbeat CPU  0 instructions:   54000000 cycles:  136299897 heartbeat IPC: 0.37301 cumulative IPC: 0.33584 (Simulation time: 0 hr 2 min 28 sec) 
Heartbeat CPU  0 instructions:   55000001 cycles:  138932826 heartbeat IPC: 0.37981 cumulative IPC: 0.33671 (Simulation time: 0 hr 2 min 31 sec) 
Heartbeat CPU  0 instructions:   56000000 cycles:  141589645 heartbeat IPC: 0.37639 cumulative IPC: 0.33748 (Simulation time: 0 hr 2 min 34 sec) 
Heartbeat CPU  0 instructions:   57000002 cycles:  144196487 heartbeat IPC: 0.38361 cumulative IPC: 0.33835 (Simulation time: 0 hr 2 min 37 sec) 
Heartbeat CPU  0 instructions:   58000000 cycles:  146836056 heartbeat IPC: 0.37885 cumulative IPC: 0.33910 (Simulation time: 0 hr 2 min 40 sec) 
Heartbeat CPU  0 instructions:   59000000 cycles:  149424894 heartbeat IPC: 0.38627 cumulative IPC: 0.33995 (Simulation time: 0 hr 2 min 43 sec) 
Heartbeat CPU  0 instructions:   60000000 cycles:  151991306 heartbeat IPC: 0.38965 cumulative IPC: 0.34082 (Simulation time: 0 hr 2 min 46 sec) 
Finished CPU 0 instructions: 50000000 cycles: 146704948 cumulative IPC: 0.34082 (Simulation time: 0 hr 2 min 46 sec) 

ChampSim completed all CPUs

[ROI Statistics]
Core_0_instructions 50000000
Core_0_cycles 146704948
Core_0_IPC 0.34082

Core_0_branch_prediction_accuracy 98.89974
Core_0_branch_MPKI 2.56812
Core_0_average_ROB_occupancy_at_mispredict 103.63078

Core_0_L1D_total_access 13603088
Core_0_L1D_total_hit 10843764
Core_0_L1D_total_miss 2759324
Core_0_L1D_loads 9529738
Core_0_L1D_load_hit 6883973
Core_0_L1D_load_miss 2645765
Core_0_L1D_RFOs 4073350
Core_0_L1D_RFO_hit 3959791
Core_0_L1D_RFO_miss 113559
Core_0_L1D_prefetches 0
Core_0_L1D_prefetch_hit 0
Core_0_L1D_prefetch_miss 0
Core_0_L1D_writebacks 0
Core_0_L1D_writeback_hit 0
Core_0_L1D_writeback_miss 0
Core_0_L1D_prefetch_requested 0
Core_0_L1D_prefetch_dropped 0
Core_0_L1D_prefetch_issued 0
Core_0_L1D_prefetch_filled 0
Core_0_L1D_prefetch_useful 0
Core_0_L1D_prefetch_useless 0
Core_0_L1D_prefetch_late 0
Core_0_L1D_average_miss_latency 37.86165

Core_0_L1D_rq_access 15535616
Core_0_L1D_rq_forward 0
Core_0_L1D_rq_merged 5799474
Core_0_L1D_rq_to_cache 9735360
Core_0_L1D_rq_full 0

Core_0_L1D_wq_access 4383922
Core_0_L1D_wq_forward 782
Core_0_L1D_wq_merged 35319
Core_0_L1D_wq_to_cache 4348603
Core_0_L1D_wq_full 13169

Core_0_L1D_pq_access 0
Core_0_L1D_pq_forward 0
Core_0_L1D_pq_merged 0
Core_0_L1D_pq_to_cache 0
Core_0_L1D_pq_full 0

Core_0_L1D_acc_epochs 141116
Core_0_L1D_acc_level_0 141116
Core_0_L1D_acc_level_1 0
Core_0_L1D_acc_level_2 0
Core_0_L1D_acc_level_3 0
Core_0_L1D_acc_level_4 0
Core_0_L1D_acc_level_5 0
Core_0_L1D_acc_level_6 0
Core_0_L1D_acc_level_7 0
Core_0_L1D_acc_level_8 0
Core_0_L1D_acc_level_9 0

Core_0_L1I_total_access 19919534
Core_0_L1I_total_hit 19772375
Core_0_L1I_total_miss 147159
Core_0_L1I_loads 19919534
Core_0_L1I_load_hit 19772375
Core_0_L1I_load_miss 147159
Core_0_L1I_RFOs 0
Core_0_L1I_RFO_hit 0
Core_0_L1I_RFO_miss 0
Core_0_L1I_prefetches 0
Core_0_L1I_prefetch_hit 0
Core_0_L1I_prefetch_miss 0
Core_0_L1I_writebacks 0
Core_0_L1I_writeback_hit 0
Core_0_L1I_writeback_miss 0
Core_0_L1I_prefetch_requested 0
Core_0_L1I_prefetch_dropped 0
Core_0_L1I_prefetch_issued 0
Core_0_L1I_prefetch_filled 0
Core_0_L1I_prefetch_useful 0
Core_0_L1I_prefetch_useless 0
Core_0_L1I_prefetch_late 0
Core_0_L1I_average_miss_latency 18.26709

Core_0_L1I_rq_access 49999770
Core_0_L1I_rq_forward 0
Core_0_L1I_rq_merged 29953490
Core_0_L1I_rq_to_cache 20046280
Core_0_L1I_rq_full 0

Core_0_L1I_wq_access 0
Core_0_L1I_wq_forward 0
Core_0_L1I_wq_merged 0
Core_0_L1I_wq_to_cache 0
Core_0_L1I_wq_full 0

Core_0_L1I_pq_access 0
Core_0_L1I_pq_forward 0
Core_0_L1I_pq_merged 0
Core_0_L1I_pq_to_cache 0
Core_0_L1I_pq_full 0

Core_0_L1I_acc_epochs 141116
Core_0_L1I_acc_level_0 141116
Core_0_L1I_acc_level_1 0
Core_0_L1I_acc_level_2 0
Core_0_L1I_acc_level_3 0
Core_0_L1I_acc_level_4 0
Core_0_L1I_acc_level_5 0
Core_0_L1I_acc_level_6 0
Core_0_L1I_acc_level_7 0
Core_0_L1I_acc_level_8 0
Core_0_L1I_acc_level_9 0

Core_0_L2C_total_access 5897773
Core_0_L2C_total_hit 3207170
Core_0_L2C_total_miss 2690603
Core_0_L2C_loads 2792913
Core_0_L2C_load_hit 1358640
Core_0_L2C_load_miss 1434273
Core_0_L2C_RFOs 113556
Core_0_L2C_RFO_hit 17553
Core_0_L2C_RFO_miss 96003
Core_0_L2C_prefetches 2817261
Core_0_L2C_prefetch_hit 1657391
Core_0_L2C_prefetch_miss 1159870
Core_0_L2C_writebacks 174043
Core_0_L2C_writeback_hit 173586
Core_0_L2C_writeback_miss 457
Core_0_L2C_prefetch_requested 4125224
Core_0_L2C_prefetch_dropped 0
Core_0_L2C_prefetch_issued 4125224
Core_0_L2C_prefetch_filled 1363653
Core_0_L2C_prefetch_useful 387446
Core_0_L2C_prefetch_useless 975054
Core_0_L2C_prefetch_late 48937
Core_0_L2C_average_miss_latency 39.15249

Core_0_L2C_rq_access 2906481
Core_0_L2C_rq_forward 0
Core_0_L2C_rq_merged 0
Core_0_L2C_rq_to_cache 2906469
Core_0_L2C_rq_full 0

Core_0_L2C_wq_access 174043
Core_0_L2C_wq_forward 14
Core_0_L2C_wq_merged 0
Core_0_L2C_wq_to_cache 174043
Core_0_L2C_wq_full 0

Core_0_L2C_pq_access 4125224
Core_0_L2C_pq_forward 0
Core_0_L2C_pq_merged 355123
Core_0_L2C_pq_to_cache 3770099
Core_0_L2C_pq_full 0

Core_0_L2C_acc_epochs 141116
Core_0_L2C_acc_level_0 66245
Core_0_L2C_acc_level_1 21234
Core_0_L2C_acc_level_2 19131
Core_0_L2C_acc_level_3 14006
Core_0_L2C_acc_level_4 10269
Core_0_L2C_acc_level_5 4757
Core_0_L2C_acc_level_6 1470
Core_0_L2C_acc_level_7 1043
Core_0_L2C_acc_level_8 838
Core_0_L2C_acc_level_9 2123

Core_0_LLC_total_access 2827098
Core_0_LLC_total_hit 2713584
Core_0_LLC_total_miss 113514
Core_0_LLC_loads 1385617
Core_0_LLC_load_hit 1376781
Core_0_LLC_load_miss 8836
Core_0_LLC_RFOs 95773
Core_0_LLC_RFO_hit 14737
Core_0_LLC_RFO_miss 81036
Core_0_LLC_prefetches 1208753
Core_0_LLC_prefetch_hit 1187475
Core_0_LLC_prefetch_miss 21278
Core_0_LLC_writebacks 136955
Core_0_LLC_writeback_hit 134591
Core_0_LLC_writeback_miss 2364
Core_0_LLC_prefetch_requested 0
Core_0_LLC_prefetch_dropped 0
Core_0_LLC_prefetch_issued 0
Core_0_LLC_prefetch_filled 32412
Core_0_LLC_prefetch_useful 5609
Core_0_LLC_prefetch_useless 22098
Core_0_LLC_prefetch_late 0
Core_0_LLC_average_miss_latency 184.76559

Core_0_LLC_rq_access 1481392
Core_0_LLC_rq_forward 0
Core_0_LLC_rq_merged 0
Core_0_LLC_rq_to_cache 1481390
Core_0_LLC_rq_full 0

Core_0_LLC_wq_access 136955
Core_0_LLC_wq_forward 3
Core_0_LLC_wq_merged 0
Core_0_LLC_wq_to_cache 136955
Core_0_LLC_wq_full 0

Core_0_LLC_pq_access 1412590
Core_0_LLC_pq_forward 0
Core_0_LLC_pq_merged 0
Core_0_LLC_pq_to_cache 1412589
Core_0_LLC_pq_full 0

Core_0_LLC_acc_epochs 148430
Core_0_LLC_acc_level_0 143884
Core_0_LLC_acc_level_1 1771
Core_0_LLC_acc_level_2 1304
Core_0_LLC_acc_level_3 206
Core_0_LLC_acc_level_4 44
Core_0_LLC_acc_level_5 922
Core_0_LLC_acc_level_6 64
Core_0_LLC_acc_level_7 65
Core_0_LLC_acc_level_8 15
Core_0_LLC_acc_level_9 155

Core_0_major_page_fault 0
Core_0_minor_page_fault 3857

scooby_st_lookup 3306163
scooby_st_hit 1821313
scooby_st_evict 1484786
scooby_st_insert 1484850
scooby_st_streaming 0

scooby_predict_called 3306163
scooby_predict_out_of_bounds 61547
scooby_predict_action_1 2936441
scooby_predict_issue_action_1 2726924
scooby_predict_hit_action_1 209517
scooby_predict_out_of_bounds_action_1 46618
scooby_predict_action_3 34371
scooby_predict_issue_action_3 16800
scooby_predict_hit_action_3 17571
scooby_predict_out_of_bounds_action_3 495
scooby_predict_action_4 40546
scooby_predict_issue_action_4 30516
scooby_predict_hit_action_4 10030
scooby_predict_out_of_bounds_action_4 752
scooby_predict_action_5 22484
scooby_predict_issue_action_5 13707
scooby_predict_hit_action_5 8777
scooby_predict_out_of_bounds_action_5 502
scooby_predict_action_10 7693
scooby_predict_issue_action_10 5275
scooby_predict_hit_action_10 2418
scooby_predict_out_of_bounds_action_10 694
scooby_predict_action_11 25323
scooby_predict_issue_action_11 20514
scooby_predict_hit_action_11 4809
scooby_predict_out_of_bounds_action_11 1937
scooby_predict_action_12 9931
scooby_predict_issue_action_12 7561
scooby_predict_hit_action_12 2370
scooby_predict_out_of_bounds_action_12 1023
scooby_predict_action_22 4245
scooby_predict_issue_action_22 3107
scooby_predict_hit_action_22 1138
scooby_predict_out_of_bounds_action_22 1378
scooby_predict_action_23 3771
scooby_predict_issue_action_23 2974
scooby_predict_hit_action_23 797
scooby_predict_out_of_bounds_action_23 1508
scooby_predict_action_30 5436
scooby_predict_issue_action_30 4230
scooby_predict_hit_action_30 1206
scooby_predict_out_of_bounds_action_30 2598
scooby_predict_action_32 3324
scooby_predict_issue_action_32 2666
scooby_predict_hit_action_32 658
scooby_predict_out_of_bounds_action_32 2110
scooby_predict_action_-1 100101
scooby_predict_issue_action_-1 59462
scooby_predict_hit_action_-1 40639
scooby_predict_out_of_bounds_action_-1 388
scooby_predict_action_-3 21914
scooby_predict_issue_action_-3 16091
scooby_predict_hit_action_-3 5823
scooby_predict_out_of_bounds_action_-3 863
scooby_predict_action_-6 17675
scooby_predict_issue_action_-6 11003
scooby_predict_hit_action_-6 6672
scooby_predict_out_of_bounds_action_-6 681
scooby_predict_action_0 11361
scooby_predict_issue_action_0 0
scooby_predict_hit_action_0 0
scooby_predict_out_of_bounds_action_0 0
scooby_predict_multi_deg_called 386048
scooby_predict_predicted 4125224
scooby_predict_multi_deg 1204394
scooby_predict_multi_deg_2 379182
scooby_predict_multi_deg_3 252078
scooby_predict_multi_deg_4 247563
scooby_predict_multi_deg_5 165019
scooby_predict_multi_deg_6 160552
scooby_predict_multi_deg_7 0
scooby_predict_multi_deg_8 0
scooby_predict_multi_deg_9 0
scooby_predict_multi_deg_10 0
scooby_predict_multi_deg_11 0
scooby_predict_multi_deg_12 0
scooby_predict_multi_deg_13 0
scooby_predict_multi_deg_14 0
scooby_predict_multi_deg_15 0
scooby_predict_multi_deg_16 0

scooby_selected_deg_1 2534782
scooby_selected_deg_2 124759
scooby_selected_deg_3 0
scooby_selected_deg_4 79363
scooby_selected_deg_5 0
scooby_selected_deg_6 181926
scooby_selected_deg_7 0
scooby_selected_deg_8 0
scooby_selected_deg_9 0
scooby_selected_deg_10 0
scooby_selected_deg_11 0
scooby_selected_deg_12 0
scooby_selected_deg_13 0
scooby_selected_deg_14 0
scooby_selected_deg_15 0
scooby_selected_deg_16 0

scooby_state_638ec0|33|0 18424,4,3,9,7,2,7,4,5,2,2,17,3,2,3,18494,
scooby_state_638ec0|0|0 18306,4,8,5,3,5,7,5,2,2,3,15,0,4,11,18380,
scooby_state_638ec0|16|0 16916,3,7,7,6,4,5,4,3,2,5,16,5,3,5,16991,
scooby_state_638ec0|17|0 16884,4,4,3,3,1,11,6,6,3,3,17,2,4,10,16961,
scooby_state_638ec0|20|0 16785,4,3,7,5,5,2,4,5,2,3,12,8,6,6,16857,
scooby_state_638ec0|56|0 15620,4,5,4,3,3,6,7,3,5,4,2,1,4,5,15676,
scooby_state_638ec0|44|0 15501,3,2,1,6,4,2,2,6,3,5,10,4,3,1,15553,
scooby_state_638ec0|63|0 13539,2,5,6,6,7,2,5,3,1,7,5,0,3,4,13595,
scooby_state_638ec0|35|0 13412,3,3,5,4,5,6,1,3,4,2,10,3,2,2,13465,
scooby_state_638ec0|47|0 13409,1,3,3,3,2,1,4,1,6,2,10,0,2,3,13450,
scooby_state_638ec0|21|0 12828,2,2,2,4,1,3,4,3,1,4,6,2,4,3,12869,
scooby_state_638ec0|9|0 12747,3,3,3,2,1,1,1,0,4,6,7,3,5,3,12789,
scooby_state_638ec0|60|0 12709,2,3,3,4,3,0,4,1,2,3,4,3,2,4,12747,
scooby_state_638ebd|29|0 12682,3,5,1,4,3,1,3,4,3,1,17,4,2,3,12736,
scooby_state_638ebd|19|0 12695,3,2,2,2,3,7,1,4,0,3,2,1,1,4,12730,
scooby_state_638ec0|49|0 12677,0,3,3,2,2,3,2,2,2,4,14,1,1,4,12720,
scooby_state_638ebd|59|0 12060,3,1,5,5,3,1,5,2,4,3,23,4,3,1,12123,
scooby_state_638ec0|40|0 12018,4,2,4,5,6,5,4,4,2,3,10,2,3,1,12073,
scooby_state_638ebd|17|0 12011,3,2,4,4,9,5,3,1,3,5,2,2,1,3,12058,
scooby_state_638ec0|39|0 12012,2,2,3,3,2,1,6,2,4,4,6,5,1,5,12058,
scooby_state_638ec0|24|0 11995,0,6,6,4,6,0,3,4,3,6,6,3,1,5,12048,
scooby_state_638ec0|2|0 11979,1,3,3,4,3,3,1,3,1,4,4,3,0,2,12014,
scooby_state_638ec0|52|0 11862,2,3,3,1,3,2,3,1,2,4,7,2,2,6,11903,
scooby_state_638ebd|51|0 11858,2,2,3,5,1,6,5,2,2,4,7,0,3,1,11901,
scooby_state_638ec0|25|0 11516,3,4,1,2,3,5,2,1,3,1,11,5,4,5,11566,
scooby_state_638ec0|59|0 11467,5,2,2,2,6,2,3,2,2,2,5,0,5,2,11507,
scooby_state_638ebd|0|0 11215,0,3,1,6,2,2,1,3,3,3,71,4,5,4,11323,
scooby_state_638ec0|6|0 11255,7,4,3,2,2,3,6,2,3,0,10,4,4,2,11307,
scooby_state_638ec0|58|0 11240,4,2,2,0,4,2,4,2,0,3,8,0,5,3,11279,
scooby_state_638ec0|8|0 11167,4,1,2,2,3,2,2,4,3,2,10,1,3,2,11208,
scooby_state_638ebd|53|0 10933,3,6,2,2,3,3,3,3,2,2,2,2,0,5,10971,
scooby_state_638ebd|20|0 10771,2,3,2,3,3,5,2,1,2,3,1,3,1,4,10806,
scooby_state_638ebd|57|0 10753,2,2,2,3,3,2,2,1,8,0,4,0,1,2,10785,
scooby_state_638ec0|1|0 10735,1,2,6,3,0,5,2,2,5,2,8,0,0,4,10775,
scooby_state_638ec0|61|0 10683,8,3,5,2,2,1,4,0,1,4,8,2,6,0,10729,
scooby_state_638ec0|3|0 10645,2,3,2,1,4,4,1,3,3,1,10,1,3,5,10688,
scooby_state_638ec0|38|0 10615,3,5,1,1,5,6,3,4,0,2,8,2,2,5,10662,
scooby_state_638ec0|10|0 10588,1,4,3,8,1,2,3,3,1,0,9,5,3,3,10634,
scooby_state_638ebd|55|0 10566,1,2,5,2,2,4,5,3,1,2,34,3,0,2,10632,
scooby_state_638ebd|38|0 10576,5,2,4,2,3,3,3,0,1,0,4,0,0,3,10606,
scooby_state_638ec0|43|0 10564,1,1,6,4,6,1,2,2,2,2,6,1,1,2,10601,
scooby_state_638ec0|34|0 10553,5,2,3,2,2,2,3,2,4,2,11,1,5,2,10599,
scooby_state_638ec0|14|0 10459,5,3,2,0,3,2,1,4,3,2,6,1,3,2,10496,
scooby_state_638ebd|9|0 10089,1,1,2,2,1,4,3,0,2,3,20,5,3,4,10140,
scooby_state_638ec0|41|0 10105,2,2,5,2,1,3,2,0,4,1,3,1,5,1,10137,
scooby_state_638ebd|43|0 10035,2,4,4,3,2,2,0,2,0,2,2,1,3,1,10063,
scooby_state_638ec0|50|0 10014,1,4,4,2,6,3,3,2,4,0,8,0,1,2,10054,
scooby_state_638ebd|63|0 9955,3,1,0,4,1,1,7,5,2,3,60,2,4,4,10052,
scooby_state_638ec0|19|0 9978,2,1,1,1,7,5,2,2,0,2,11,0,1,8,10021,
scooby_state_638ec0|42|0 9979,2,3,3,1,4,4,0,1,3,1,6,3,2,2,10014,
scooby_state_638ec0|51|0 9902,2,1,3,1,4,2,3,1,0,6,9,0,2,2,9938,
scooby_state_638ec0|4|0 9849,1,4,2,1,4,2,2,1,6,3,9,2,2,3,9891,
scooby_state_638ebd|12|0 9848,2,1,2,3,1,3,4,2,1,1,13,3,1,1,9886,
scooby_state_638ebd|46|0 9856,2,0,1,2,4,1,1,3,1,2,3,3,2,2,9883,
scooby_state_638ec0|22|0 9843,0,2,2,1,4,4,1,1,4,1,13,4,0,1,9881,
scooby_state_638ebd|18|0 9836,4,2,1,4,1,2,7,3,1,0,11,2,1,0,9875,
scooby_state_638ed1|23|1 9811,3,5,1,0,6,4,3,3,6,4,7,4,6,7,9870,
scooby_state_64d0c9|34|0 9626,12,5,14,12,6,9,9,3,12,3,13,13,65,10,9812,
scooby_state_638ebd|21|0 9733,2,4,4,4,1,1,2,2,3,1,0,4,1,2,9764,
scooby_state_64d0cc|34|0 9447,11,15,16,14,6,13,8,8,5,7,14,19,24,9,9616,
scooby_state_638ec0|36|0 9344,1,2,1,1,5,2,3,0,0,5,1,3,1,3,9372,
scooby_state_638ec0|7|0 9310,3,2,2,4,3,3,1,2,3,4,7,1,5,4,9354,
scooby_state_638ec0|54|0 9214,3,3,3,2,3,1,1,1,2,4,8,4,1,1,9251,
scooby_state_638ebd|35|0 9171,2,2,4,2,2,4,1,3,4,1,13,0,1,3,9213,
scooby_state_638ebd|4|0 9174,1,3,4,0,5,2,0,3,0,2,5,0,2,3,9204,
scooby_state_638ec0|45|0 9169,4,1,2,2,4,2,0,1,4,1,6,2,2,1,9201,
scooby_state_638ebd|27|0 9157,2,2,1,4,3,4,2,2,3,0,1,5,0,3,9189,
scooby_state_638ebd|39|0 9150,2,3,4,2,3,1,2,2,2,2,10,2,1,0,9186,
scooby_state_638ec0|26|0 9145,3,7,3,3,2,1,0,2,2,1,5,1,2,6,9183,
scooby_state_638ec0|13|0 9057,8,0,2,3,0,3,0,2,2,3,8,1,4,2,9095,
scooby_state_638ec0|62|0 9057,4,4,2,0,4,2,2,5,2,1,3,2,1,2,9091,
scooby_state_638ebd|60|0 9034,1,2,3,2,4,2,3,4,4,1,3,0,2,2,9067,
scooby_state_638ec0|11|0 8964,2,0,4,2,1,1,2,2,5,3,7,1,1,0,8995,
scooby_state_64cc6c|35|1 8971,0,2,1,2,0,0,1,1,1,0,1,1,2,2,8985,
scooby_state_64d0c9|2|0 8688,11,4,13,12,6,9,9,4,17,3,16,14,71,7,8884,
scooby_state_64d0c9|41|0 8727,6,5,11,8,4,7,10,6,10,2,10,9,61,6,8882,
scooby_state_638ebd|14|0 8829,3,2,1,1,1,1,4,5,1,3,1,2,0,1,8855,
scooby_state_64cc6c|41|1 8655,0,0,1,1,2,1,0,0,1,3,4,2,1,0,8671,
scooby_state_638ec0|29|0 8618,2,4,1,0,3,1,3,2,1,4,6,1,1,4,8651,
scooby_state_638ec0|32|0 8568,2,1,4,2,3,1,2,0,1,1,3,3,2,1,8594,
scooby_state_638ebd|49|0 8532,4,1,2,0,2,2,1,5,2,1,11,1,1,0,8565,
scooby_state_638ec0|46|0 8497,2,4,1,1,1,0,2,1,1,0,5,3,2,4,8524,
scooby_state_638ebd|10|0 8408,2,3,1,1,3,4,2,0,4,1,54,1,1,2,8487,
scooby_state_638ebd|61|0 8445,1,0,4,1,2,1,3,3,1,1,12,2,3,2,8481,
scooby_state_638ec0|18|0 8443,4,0,3,3,3,2,1,3,5,2,1,1,4,1,8476,
scooby_state_638ebd|8|0 8442,3,2,0,3,1,3,3,2,0,1,2,2,1,0,8465,
scooby_state_638ec0|27|0 8393,0,2,4,0,0,2,4,3,4,2,3,1,1,2,8421,
scooby_state_638ed1|57|1 8316,4,3,4,2,3,1,6,5,2,2,5,3,0,9,8365,
scooby_state_638ec0|37|0 8317,2,4,3,2,5,0,6,1,1,2,2,0,4,3,8352,
scooby_state_638ebd|25|0 8285,3,2,3,2,2,3,1,3,2,3,11,2,1,3,8326,
scooby_state_638ebd|50|0 8250,3,1,1,5,3,1,3,3,0,0,2,1,1,2,8276,
scooby_state_638ebd|26|0 8162,3,1,2,3,2,3,3,1,1,0,1,2,1,2,8187,
scooby_state_638ec0|53|0 8150,0,1,3,4,5,1,0,0,1,1,7,0,2,0,8175,
scooby_state_638ec0|48|0 8084,2,1,4,2,1,1,1,1,2,5,1,2,5,2,8114,
scooby_state_638ed1|34|1 7844,5,9,3,1,3,4,2,0,3,4,3,6,4,4,7895,
scooby_state_638ec0|5|0 7775,2,1,4,2,5,0,0,0,3,0,7,2,3,2,7806,
scooby_state_638ebd|5|0 7762,1,2,2,0,3,5,2,2,2,2,2,0,0,6,7791,
scooby_state_638ebd|34|0 7716,3,1,2,1,2,2,2,6,3,2,40,0,0,2,7782,
scooby_state_638ed1|62|1 7728,5,1,5,4,4,0,5,3,4,4,3,4,0,4,7774,
scooby_state_638ebd|31|0 7684,2,2,1,2,0,1,3,3,3,0,67,2,2,2,7774,
scooby_state_638ebd|52|0 7692,1,3,2,1,0,2,1,4,4,1,57,1,4,1,7774,
scooby_state_638ed1|21|1 7721,0,6,2,3,6,1,2,5,5,5,2,4,1,3,7766,
scooby_state_64d0cc|41|0 7631,8,11,8,8,4,7,5,4,2,3,13,12,17,6,7739,
scooby_state_638ed1|6|1 7686,0,7,3,9,4,4,3,3,4,2,0,1,0,4,7730,
scooby_state_638eb0|30|1 7674,4,3,1,1,2,1,3,3,2,3,2,3,0,8,7710,
scooby_state_638ec0|28|0 7625,2,1,2,3,1,1,3,1,2,2,2,3,1,1,7650,
scooby_state_638ebd|54|0 7569,2,1,1,3,1,2,1,0,0,4,0,3,0,4,7591,
scooby_state_638ec0|12|0 7560,4,0,2,3,3,2,4,0,1,1,5,1,2,1,7589,
scooby_state_638eb0|21|1 7128,2,1,4,3,6,3,4,0,3,2,2,3,2,4,7167,
scooby_state_638ebd|41|0 7093,2,2,0,1,2,2,4,0,1,0,1,2,2,2,7114,
scooby_state_638ebd|45|0 6991,1,2,1,2,2,1,2,1,4,0,66,4,2,3,7082,
scooby_state_638ebd|11|0 7027,2,5,1,0,1,2,2,4,2,2,27,1,3,1,7080,
scooby_state_638ebd|44|0 7001,1,0,5,2,2,1,2,0,2,0,55,1,2,1,7075,
scooby_state_638ec0|55|0 7039,2,1,0,0,3,3,0,4,2,3,3,1,2,2,7065,
scooby_state_638ed1|9|1 6988,3,2,0,2,4,3,4,4,4,1,4,2,2,2,7025,
scooby_state_638eb0|52|1 6947,3,5,1,5,6,5,2,2,1,4,1,5,3,1,6991,
scooby_state_638ebd|42|0 6900,0,2,2,2,1,2,2,2,5,0,20,1,1,1,6941,
scooby_state_638ebd|37|0 6858,2,2,2,2,4,0,1,0,2,1,0,1,0,2,6877,
scooby_state_638eb0|19|1 6795,6,2,1,3,4,3,3,2,1,3,1,1,1,8,6834,
scooby_state_638ec0|57|0 6696,3,0,2,0,3,1,3,2,1,2,5,1,3,1,6723,
scooby_state_638ebd|7|0 6528,1,2,1,0,1,3,1,1,1,1,4,3,1,2,6550,
scooby_state_638ebd|32|0 6470,1,0,3,1,3,2,1,2,2,1,2,0,1,4,6493,
scooby_state_638ed1|36|1 6421,1,4,3,7,6,1,1,3,3,4,2,8,3,5,6472,
scooby_state_638ec0|30|0 6445,1,0,0,2,2,1,1,4,3,0,4,5,1,2,6471,
scooby_state_638ed1|4|1 6432,1,3,1,3,2,4,1,6,3,1,1,0,2,3,6463,
scooby_state_638ec0|15|0 6413,1,1,0,0,0,0,0,3,1,5,6,1,2,0,6433,
scooby_state_638ebd|23|0 6362,1,0,2,2,3,2,1,1,0,3,0,1,0,2,6380,
scooby_state_638ebd|47|0 6354,3,1,0,1,0,3,4,2,0,0,1,0,0,1,6370,
scooby_state_638ebd|1|0 6344,0,2,2,1,2,0,1,2,2,3,0,1,1,2,6363,
scooby_state_638ed1|18|1 6320,1,5,4,3,4,5,1,1,2,0,5,2,6,1,6360,
scooby_state_638ebd|40|0 6334,1,2,0,3,2,0,3,0,1,1,1,2,1,2,6353,
scooby_state_638ebd|62|0 6216,3,1,1,2,1,5,4,0,2,1,1,0,0,1,6238,
scooby_state_638ebd|13|1 5718,4,1,4,3,2,1,4,4,3,1,194,5,6,2,5952,
scooby_state_64cc6c|43|1 5891,2,0,0,1,0,0,0,0,0,0,0,2,1,0,5897,
scooby_state_64cc6c|40|1 5862,1,0,1,0,0,1,0,2,1,0,2,1,0,0,5871,
scooby_state_638ec0|53|1 5843,3,3,2,0,0,0,0,0,0,1,4,1,2,3,5862,
scooby_state_638ed1|17|1 5774,2,3,3,2,3,3,3,1,4,2,3,5,1,4,5813,
scooby_state_638ebd|6|0 5788,1,1,2,1,1,4,0,1,3,2,2,1,2,1,5810,
scooby_state_638ebd|24|0 5761,0,2,2,2,1,2,1,3,1,1,2,2,0,1,5781,
scooby_state_638eb0|47|1 5660,3,3,2,3,4,3,5,2,0,0,2,2,0,4,5693,
scooby_state_638ed1|41|1 5652,2,3,0,3,4,4,4,3,1,4,1,4,2,4,5691,
scooby_state_638ebd|30|0 5654,3,1,3,3,0,0,0,2,0,1,0,0,1,8,5676,
scooby_state_638ebd|22|0 5656,1,2,3,0,1,0,6,1,0,0,0,0,0,2,5672,
scooby_state_638ebd|58|0 5639,0,3,3,3,1,1,3,1,1,1,2,0,2,2,5662,
scooby_state_638ed1|20|1 5627,1,5,1,4,5,1,1,0,2,1,2,1,3,2,5656,
scooby_state_638ed1|38|1 5585,4,5,2,0,1,2,5,4,1,1,0,1,0,4,5615,
scooby_state_64cc6c|54|1 5599,1,1,0,0,1,0,0,3,1,1,1,1,0,0,5609,
scooby_state_638eb0|14|1 5543,0,1,2,4,3,2,5,1,2,0,4,4,3,0,5574,
scooby_state_638ed1|12|1 5539,2,2,2,1,0,2,4,4,1,2,1,4,2,0,5566,
scooby_state_638eb0|42|1 5531,4,1,0,5,1,3,1,1,0,1,3,4,2,1,5558,
scooby_state_638ebd|13|0 5527,1,0,1,1,3,0,2,0,2,2,5,0,1,0,5545,
scooby_state_638ed1|1|1 5177,1,6,0,1,2,2,1,1,0,2,3,3,6,3,5208,
scooby_state_638ed1|25|1 5071,0,3,4,3,2,1,4,5,5,2,2,2,1,2,5107,
scooby_state_638ebd|28|0 5081,4,1,1,2,3,1,2,1,1,0,0,0,0,2,5099,
scooby_state_64cc6c|42|1 5044,1,0,2,0,0,1,0,1,2,1,1,0,0,0,5053,
scooby_state_638ebd|16|0 5010,0,1,1,1,6,0,1,1,2,0,19,1,1,1,5045,
scooby_state_64cc6c|3|1 5016,1,3,1,1,2,0,0,0,2,2,0,0,1,2,5031,
scooby_state_638ec0|31|0 5003,3,1,0,1,3,3,2,0,3,1,5,1,2,1,5029,
scooby_state_638eb0|60|1 4993,0,3,1,3,1,1,2,2,4,2,1,3,1,4,5021,
scooby_state_64d0c9|23|0 4843,5,3,8,9,7,6,6,2,8,2,10,9,45,7,4970,
scooby_state_638ebd|33|0 4932,2,1,1,3,1,2,1,4,1,1,2,0,1,3,4955,
scooby_state_638ed1|0|0 4525,19,165,14,22,23,21,20,15,17,17,21,16,24,33,4952,
scooby_state_638ec0|23|0 4932,2,3,1,0,1,2,1,0,0,2,2,0,2,1,4949,
scooby_state_638ed1|7|1 4918,6,1,2,3,2,0,4,3,3,0,1,4,1,1,4949,
scooby_state_638eb0|20|1 4921,6,4,2,3,3,2,0,1,1,1,0,1,1,3,4949,
scooby_state_638ed1|45|1 4917,1,2,0,5,2,1,0,2,2,2,1,4,2,6,4947,
scooby_state_638ebd|59|1 4448,4,2,1,0,4,0,1,0,6,5,468,3,5,0,4947,
scooby_state_638ed1|15|1 4919,1,2,2,2,2,3,1,3,4,0,3,0,2,1,4945,
scooby_state_638ec0|45|1 4910,3,4,3,4,2,2,1,1,2,1,2,0,5,4,4944,
scooby_state_638eb0|33|1 4920,0,3,2,1,0,1,2,2,2,2,1,2,1,5,4944,
scooby_state_638ebd|3|0 4927,0,2,0,0,0,1,2,0,1,0,1,3,3,0,4940,
scooby_state_638ed1|48|1 4910,1,2,1,3,4,3,4,5,3,0,0,0,0,3,4939,
scooby_state_638eb0|58|1 4858,1,2,2,1,1,2,2,2,2,1,3,2,3,2,4884,
scooby_state_638eb0|41|1 4851,2,0,1,2,1,2,1,2,2,1,3,2,2,3,4875,
scooby_state_638eb0|36|1 4845,1,4,2,0,1,1,2,1,3,2,2,3,2,2,4871,
scooby_state_64cc6c|55|1 4853,2,0,1,0,3,0,1,1,0,0,0,0,0,0,4861,
scooby_state_638eb0|46|1 4823,2,1,1,2,0,2,2,3,2,5,3,0,2,5,4853,
scooby_state_638ec0|32|1 4803,5,2,4,4,2,3,2,2,3,2,4,3,1,5,4845,
scooby_state_638eb0|1|1 4618,3,3,2,2,3,4,0,2,1,5,0,1,1,3,4648,
scooby_state_64cc6c|10|1 4628,1,0,0,0,0,1,1,1,0,1,1,0,0,3,4637,
scooby_state_64cc6c|2|1 4591,0,1,1,1,1,2,0,1,0,0,0,1,0,1,4600,
scooby_state_638ed1|40|1 4498,1,3,1,5,0,2,4,3,2,2,0,3,2,4,4530,
scooby_state_64cc6c|36|1 4490,0,0,0,0,0,0,0,1,0,0,0,0,0,1,4492,
scooby_state_64cc6c|2|0 4433,0,3,0,0,0,1,0,1,0,0,1,2,0,0,4441,
scooby_state_638ebd|36|0 4427,1,1,1,1,0,0,2,1,1,1,1,0,1,1,4439,
scooby_state_64d0cc|43|0 4259,10,14,13,12,7,7,6,4,2,5,12,15,22,9,4397,
scooby_state_638ed1|10|1 4356,3,4,3,1,1,1,1,1,1,2,3,4,1,3,4385,
scooby_state_64cc6c|47|1 4369,0,2,0,0,0,0,1,1,0,1,1,0,0,1,4376,
scooby_state_638ec0|48|1 4273,0,1,2,1,0,1,2,2,2,2,3,1,1,2,4293,
scooby_state_638ebd|56|0 4221,0,1,0,1,0,3,0,1,1,1,15,0,1,1,4246,
scooby_state_638eb0|5|1 4219,5,2,0,2,1,3,1,0,2,1,0,1,0,5,4242,
scooby_state_638eb0|2|1 4221,2,2,0,1,2,1,1,1,3,2,3,1,0,2,4242,
scooby_state_638ec0|2|1 4198,2,3,3,4,1,2,4,4,1,2,4,3,3,6,4240,
scooby_state_638ed1|59|1 4212,1,6,3,0,1,3,0,2,2,1,1,3,4,0,4239,
scooby_state_638ed1|63|1 4205,3,4,2,1,4,1,0,2,2,0,4,6,1,4,4239,
scooby_state_638ed1|52|1 4209,1,5,0,2,5,2,1,1,0,1,6,1,2,3,4239,
scooby_state_638ed1|3|1 4210,2,3,0,3,4,0,1,2,0,1,2,3,2,3,4236,
scooby_state_64d0c9|5|0 4046,9,5,15,16,7,12,12,4,18,4,18,16,42,11,4235,
scooby_state_638ed1|50|1 4209,0,3,3,0,0,0,1,2,2,4,3,1,0,5,4233,
scooby_state_638ed1|55|1 4205,0,2,1,2,1,3,1,1,2,2,3,5,2,2,4232,
scooby_state_638eb0|32|1 4212,1,3,2,1,2,2,0,1,2,0,1,2,0,3,4232,
scooby_state_638eb0|13|1 4207,3,2,1,2,2,2,0,2,1,2,1,2,1,0,4228,
scooby_state_638ebd|61|1 3999,9,5,1,5,0,4,1,1,0,4,184,5,2,3,4223,
scooby_state_638ec0|22|1 4190,2,3,2,4,0,1,2,1,0,2,3,0,3,4,4217,
scooby_state_638ed1|49|1 4178,2,3,5,0,3,2,0,1,2,2,1,3,1,4,4207,
scooby_state_638eb0|10|1 4184,3,0,1,1,2,1,2,1,1,0,3,3,3,0,4205,
scooby_state_638ebd|48|0 4181,0,0,1,1,2,0,1,0,0,3,2,1,0,0,4192,
scooby_state_638eb0|9|1 4166,2,1,0,1,3,1,2,0,2,1,2,4,0,4,4189,
scooby_state_64cc6c|39|1 4124,4,0,0,0,0,0,0,0,0,0,0,0,0,0,4128,
scooby_state_638ebd|37|1 3206,4,8,2,1,0,4,0,1,0,0,863,2,1,6,4098,
scooby_state_638ed1|35|1 4059,1,2,1,0,1,1,2,2,2,2,1,3,2,2,4081,
scooby_state_638ed1|47|1 4051,1,0,1,0,1,0,3,3,2,1,2,0,1,4,4070,
scooby_state_64cc6c|52|1 4014,1,0,3,0,0,3,0,0,0,0,0,2,0,1,4024,
scooby_state_638eb0|51|1 3997,0,0,1,3,2,1,1,0,1,0,3,4,0,0,4013,
scooby_state_64cc6c|53|1 4006,0,1,1,1,0,0,0,1,0,0,0,1,0,1,4012,
scooby_state_64cc6c|34|1 3944,1,0,0,0,0,0,0,1,0,0,0,0,0,1,3947,
scooby_state_638ed1|39|1 3868,1,6,1,0,2,0,1,1,2,0,2,6,0,4,3894,
scooby_state_64cc6c|51|1 3832,0,0,0,1,1,0,0,0,1,1,0,1,0,0,3837,
scooby_state_638eb0|28|1 3806,1,4,1,1,2,1,1,2,1,0,1,1,0,2,3824,
scooby_state_638eb0|57|1 3790,2,1,0,1,1,0,1,1,2,1,3,1,1,5,3810,
scooby_state_638ec0|17|1 3773,2,3,2,2,1,3,1,3,3,3,1,2,2,3,3804,
scooby_state_64cc6c|46|1 3773,0,0,0,0,1,1,1,0,0,0,1,1,0,0,3778,
scooby_state_64cc6c|15|1 3756,1,0,1,2,1,0,1,0,1,0,0,0,1,0,3764,
scooby_state_638ec0|8|1 3704,2,3,1,2,2,2,1,1,1,1,0,1,1,3,3725,
scooby_state_638ec0|14|1 3682,1,1,2,1,0,1,1,3,1,1,2,1,1,0,3698,
scooby_state_64d0c9|32|0 3562,7,2,10,9,5,6,7,3,9,3,10,8,52,5,3698,
scooby_state_64cc6c|50|1 3658,0,1,0,0,0,1,0,0,0,0,0,0,1,1,3662,
scooby_state_638ec0|20|1 3611,3,3,4,6,5,0,4,2,3,2,2,6,2,5,3658,
scooby_state_64cc6c|60|1 3651,1,2,0,0,0,1,0,0,0,1,0,0,0,1,3657,
scooby_state_638ec0|58|1 3567,2,1,3,4,1,0,1,2,2,2,1,1,4,3,3594,
scooby_state_64cc6c|34|2 3588,0,1,1,0,1,0,0,0,1,0,0,1,1,0,3594,
scooby_state_64cc6c|25|1 3588,1,0,0,0,1,0,0,0,0,1,0,0,0,0,3591,
scooby_state_638ec0|23|1 3544,2,2,0,2,1,2,2,0,2,0,1,0,1,3,3562,
scooby_state_638ec0|60|1 3501,3,1,2,5,3,1,3,2,2,2,5,3,3,5,3541,
scooby_state_638ebd|15|0 3526,0,1,2,1,2,2,1,0,0,0,0,1,0,1,3537,
scooby_state_638ebd|3|1 3246,14,7,1,1,4,2,2,1,1,2,238,8,3,6,3536,
scooby_state_638ec0|36|1 3495,4,2,5,4,3,2,2,1,2,2,3,2,2,7,3536,
scooby_state_638ebd|39|1 3264,6,5,3,0,1,2,1,1,0,1,242,5,2,3,3536,
scooby_state_638ebd|21|1 3490,2,1,1,3,0,2,2,0,1,1,25,2,1,5,3536,
scooby_state_638ec0|5|1 3513,2,2,2,0,1,2,2,1,4,1,1,2,0,2,3535,
scooby_state_638ed1|51|1 3510,3,2,2,1,1,1,3,0,2,2,3,0,0,5,3535,
scooby_state_638ebd|7|1 3223,2,6,2,1,0,1,1,2,3,0,290,0,3,1,3535,
scooby_state_638ec0|34|1 3487,3,2,4,5,3,2,6,1,3,3,3,2,5,6,3535,
scooby_state_638ed1|8|1 3509,4,2,3,2,2,2,1,4,1,0,3,0,1,1,3535,
scooby_state_638ebd|18|-1 3497,2,1,1,4,4,4,1,4,3,4,4,1,2,3,3535,
scooby_state_638ebd|47|1 3389,5,2,2,3,2,0,0,1,1,1,120,3,4,1,3534,
scooby_state_638ebd|5|1 3182,1,1,4,0,0,0,0,0,0,1,337,3,1,3,3533,
scooby_state_638ebd|55|1 3336,2,3,3,1,2,0,1,2,1,1,177,4,0,0,3533,
scooby_state_638ed1|53|1 3512,2,7,0,0,0,0,1,1,1,1,2,2,2,2,3533,
scooby_state_638ec0|9|1 3515,2,1,2,1,1,1,0,2,2,1,1,2,0,1,3532,
scooby_state_638ed1|43|1 3508,1,2,3,2,2,0,3,1,2,0,0,5,1,2,3532,
scooby_state_638ebd|19|1 3316,3,0,2,2,1,0,1,2,1,5,194,3,1,1,3532,
scooby_state_638ebd|1|1 2856,7,8,2,0,1,1,2,1,0,2,640,5,3,4,3532,
scooby_state_638ed1|11|1 3512,1,2,2,3,0,1,1,0,1,4,0,2,0,2,3531,
scooby_state_638ebd|58|1 3370,2,0,2,3,0,0,1,2,1,0,146,1,2,1,3531,
scooby_state_638ed1|31|1 3510,3,2,1,1,2,2,1,3,0,1,0,4,0,1,3531,
scooby_state_638ec0|1|1 3503,3,2,5,1,2,2,0,3,2,2,1,1,1,2,3530,
scooby_state_638ec0|40|1 3516,1,1,1,0,0,0,1,2,1,0,1,1,1,0,3526,
scooby_state_638eb0|18|1 3506,1,2,1,3,2,2,2,1,2,1,1,1,0,1,3526,
scooby_state_638eb0|29|1 3514,1,0,0,2,1,0,1,0,0,0,1,2,2,2,3526,
scooby_state_638ed1|26|1 3502,2,2,2,1,0,3,0,1,0,1,3,0,2,2,3521,
scooby_state_638ec0|39|1 3501,0,1,1,1,0,0,1,1,1,1,1,0,0,1,3510,
scooby_state_638eb0|55|1 3490,1,2,3,1,3,2,1,1,1,0,0,0,1,1,3507,
scooby_state_638eb0|11|1 3486,3,3,0,1,1,0,2,1,2,2,1,1,1,1,3505,
scooby_state_638eb0|39|1 3485,1,1,0,0,2,3,2,1,3,0,2,1,1,1,3503,
scooby_state_638eb0|23|1 3482,4,0,1,4,0,3,2,1,0,0,1,3,0,2,3503,
scooby_state_64d0c9|40|0 3441,2,0,2,4,0,2,3,4,3,0,3,3,28,0,3495,
scooby_state_638eb0|15|1 3476,0,1,2,1,0,1,2,1,0,1,2,0,3,4,3494,
scooby_state_64cc6c|61|1 3483,1,0,0,0,0,0,0,0,0,0,0,1,0,0,3485,
scooby_state_64cc6c|62|1 3462,0,0,0,0,0,1,0,0,0,1,1,0,0,1,3466,
scooby_state_638ec0|10|1 3444,1,2,1,1,3,3,1,1,0,2,1,1,1,2,3464,
scooby_state_638eb0|7|1 3431,3,2,0,1,3,1,0,2,1,1,2,2,0,0,3449,
scooby_state_64cc6c|0|0 3440,0,0,0,1,0,0,2,0,1,0,1,1,0,0,3446,
scooby_state_64cc6c|20|1 3435,0,0,1,0,0,1,0,1,1,1,0,0,1,1,3442,
scooby_state_638ebd|25|1 3252,3,0,3,2,1,2,0,2,1,2,144,2,1,0,3415,
scooby_state_638ebd|34|1 3134,7,5,1,2,2,1,3,2,0,1,240,5,4,4,3411,
scooby_state_64cc6c|7|1 3373,1,1,1,0,0,0,0,1,0,0,0,0,0,1,3378,
scooby_state_64cc6c|58|1 3358,0,0,0,1,0,1,0,0,0,0,0,1,1,1,3363,
scooby_state_64cc6c|43|2 3346,0,0,0,2,1,0,0,1,0,0,0,0,0,1,3351,
scooby_state_64d0c9|55|0 3232,6,2,8,9,5,6,6,3,9,2,10,9,35,4,3346,
scooby_state_64cc6c|59|1 3339,0,1,0,1,0,2,0,0,0,1,1,0,0,1,3346,
scooby_state_64d0cc|55|0 3229,7,10,8,9,4,7,4,5,5,3,11,12,18,6,3338,
scooby_state_638ebd|20|-1 3283,3,0,1,2,2,2,1,2,1,2,23,1,1,2,3326,
scooby_state_64cc6c|19|1 3316,0,0,0,0,0,0,0,0,0,0,1,0,2,0,3319,
scooby_state_64cc6c|37|1 3271,1,0,1,2,0,0,1,0,1,1,1,2,1,0,3282,
scooby_state_64cc6c|1|1 3277,1,1,0,0,0,0,0,1,0,0,0,1,0,0,3281,
scooby_state_64cc6c|38|1 3275,0,0,0,0,1,1,1,0,1,0,0,0,1,0,3280,
scooby_state_64cc6c|32|1 3253,1,1,4,0,0,0,2,0,1,0,2,0,0,0,3264,
scooby_state_64cc6c|21|1 3190,0,0,1,1,0,0,0,0,0,0,1,0,0,0,3193,
scooby_state_64cc6c|26|1 3166,0,0,0,3,0,2,0,0,2,0,0,0,1,1,3175,
scooby_state_64cc6c|33|1 3174,0,0,0,0,0,1,0,0,0,0,0,0,0,0,3175,
scooby_state_64cc6c|16|1 3134,1,0,0,1,0,0,0,0,0,1,0,0,1,0,3138,
scooby_state_64d0cc|59|0 3033,7,10,10,9,4,7,4,4,2,3,9,12,17,6,3137,
scooby_state_638ebd|60|1 3027,1,1,2,1,2,0,1,2,1,1,70,2,2,0,3113,
scooby_state_5e33c1|15|0 3084,0,0,4,0,0,0,3,0,1,2,0,1,0,0,3095,
scooby_state_64cc6c|63|1 3009,2,1,0,1,1,0,0,0,0,0,0,0,0,0,3014,
scooby_state_64cc6c|11|1 2994,0,1,1,0,0,0,0,1,1,1,0,0,0,0,2999,
scooby_state_64cc6c|29|1 2967,0,0,0,0,0,0,0,1,0,1,0,0,1,1,2971,
scooby_state_638eb0|8|1 2950,1,2,0,1,1,2,3,0,0,0,2,3,1,0,2966,
scooby_state_638ebd|53|1 2804,2,0,3,4,1,1,0,3,2,0,112,1,4,1,2938,
scooby_state_638ec0|41|1 2906,2,2,2,2,1,4,0,1,2,1,4,2,2,4,2935,
scooby_state_64d0c9|53|0 2796,8,3,14,11,6,9,9,3,12,3,14,12,17,10,2927,
scooby_state_638ec0|37|1 2867,1,0,2,0,1,1,0,2,0,2,0,2,0,1,2879,
scooby_state_638ec0|35|1 2827,2,2,3,5,3,2,3,0,1,2,3,2,2,5,2862,
scooby_state_638ec0|56|1 2835,2,1,2,1,1,1,0,2,1,1,2,2,0,3,2854,
scooby_state_64cc6c|56|1 2848,1,2,1,0,0,0,0,0,1,1,0,0,0,0,2854,
scooby_state_638ebd|57|1 2832,1,0,2,1,0,1,0,1,1,2,3,2,2,2,2850,
scooby_state_638ebd|2|0 2836,0,1,0,0,0,2,1,0,1,2,0,0,0,4,2847,
scooby_state_638ec0|59|1 2821,1,0,0,0,1,0,0,2,1,0,1,1,1,0,2829,
scooby_state_638ebd|12|1 2567,6,4,0,1,0,3,1,0,0,0,236,6,2,3,2829,
scooby_state_638ed1|29|1 2810,1,1,1,3,0,3,2,1,1,0,1,1,1,2,2828,
scooby_state_638ebd|33|1 2798,2,0,2,3,2,0,3,2,0,1,4,2,6,3,2828,
scooby_state_638ebd|20|1 2633,1,1,2,4,0,2,2,1,1,0,177,2,1,1,2828,
scooby_state_638ebd|18|1 2594,3,0,1,1,3,0,2,0,3,3,212,1,2,3,2828,
scooby_state_638ebd|24|1 2720,4,3,0,1,1,3,3,1,0,0,81,5,3,3,2828,
scooby_state_638eb0|22|1 2812,1,2,1,0,2,2,0,1,1,1,0,0,2,3,2828,
scooby_state_638ec0|62|-1 2793,5,12,0,0,1,2,0,2,2,2,2,2,0,5,2828,
scooby_state_638ed1|46|1 2811,1,4,0,4,1,0,0,1,1,0,2,1,1,1,2828,
scooby_state_638ebd|62|1 2678,9,3,1,2,2,2,2,0,1,0,117,5,2,4,2828,
scooby_state_638ec0|18|1 2807,0,3,2,1,1,1,3,1,0,0,3,0,2,4,2828,
scooby_state_638ed1|19|1 2811,2,3,4,0,1,1,3,1,0,0,1,0,0,1,2828,
scooby_state_638ebd|6|1 2498,4,4,1,3,0,1,2,0,1,1,304,4,1,4,2828,
scooby_state_638ed1|22|1 2812,2,1,1,1,3,0,2,2,0,0,3,0,0,1,2828,
scooby_state_638ed1|16|1 2805,2,2,1,1,1,2,3,2,0,0,1,4,1,1,2826,
scooby_state_638ed1|44|1 2808,1,1,2,1,0,2,0,2,2,3,0,3,0,1,2826,
scooby_state_638ed1|33|1 2812,2,0,2,0,0,0,1,2,3,1,0,1,0,1,2825,
scooby_state_638ebd|23|-1 2668,10,2,2,2,2,2,3,3,1,3,111,2,9,4,2824,
scooby_state_638ebd|42|1 2539,8,4,1,0,2,1,1,3,1,3,252,6,1,2,2824,
scooby_state_638ebd|42|-1 2571,2,5,3,0,3,0,2,0,0,1,220,1,14,2,2824,
scooby_state_638ebd|23|1 2739,1,0,2,0,0,0,0,0,1,4,74,2,0,0,2823,
scooby_state_638ed1|61|1 2806,2,0,1,0,3,1,1,1,1,2,2,0,1,1,2822,
scooby_state_638eb0|54|1 2804,2,0,0,2,1,3,2,0,0,0,3,1,1,3,2822,
scooby_state_638eb0|4|1 2807,0,1,0,0,0,1,2,0,3,0,4,0,1,1,2820,
scooby_state_64cc6c|57|1 2799,1,1,0,1,1,0,2,2,0,0,0,0,0,0,2807,
scooby_state_64d0cc|23|0 2707,6,10,8,8,5,7,4,4,2,4,9,10,16,7,2807,
scooby_state_638eb0|38|1 2791,1,2,0,2,2,1,0,2,1,2,0,1,0,0,2805,
scooby_state_64cc6c|59|4 2795,0,0,0,0,0,1,1,0,3,0,0,1,1,1,2803,
scooby_state_638ec0|11|1 2794,1,0,2,1,0,1,0,1,1,1,1,0,0,0,2803,
scooby_state_638eb0|6|1 2788,1,1,0,2,0,1,1,2,2,0,0,2,1,1,2802,
scooby_state_638eb0|63|1 2785,1,1,2,1,2,2,1,1,1,1,1,0,1,2,2802,
scooby_state_638ebd|58|-1 2769,2,3,2,1,2,1,2,0,0,0,0,0,4,4,2790,
scooby_state_638eb0|3|1 2770,2,2,2,0,0,1,1,2,0,3,0,1,3,2,2789,
scooby_state_638eb0|12|1 2765,2,2,0,0,1,0,0,1,2,2,1,1,0,1,2778,
scooby_state_638eb0|48|1 2753,2,3,0,0,2,0,2,1,1,0,0,3,0,1,2768,
scooby_state_64cc6c|40|5 2759,0,0,0,0,0,1,1,0,0,0,1,0,0,1,2763,
scooby_state_638eb0|17|1 2746,1,1,0,0,0,0,1,1,1,0,2,1,1,2,2757,
scooby_state_638ed1|13|1 2723,2,4,1,2,0,0,1,0,1,2,1,2,2,3,2744,
scooby_state_638ebd|32|-1 2464,10,4,5,0,3,0,2,0,2,0,186,0,16,7,2699,
scooby_state_64cc6c|31|1 2667,0,0,0,0,0,0,1,0,0,0,0,1,1,1,2671,
scooby_state_4983e1|2|0 0,0,2627,0,1,2,2,0,1,0,2,2,0,2,2,2641,
scooby_state_638eb0|25|1 2621,0,1,1,1,1,3,0,1,3,0,0,1,2,2,2637,
scooby_state_638ebd|45|-2 2126,226,5,5,4,8,4,7,5,6,7,198,6,9,18,2634,
scooby_state_64cc6c|30|1 2629,0,0,0,1,0,1,0,0,0,1,0,0,0,0,2632,
scooby_state_64cc6c|28|1 2610,1,0,1,1,0,0,0,1,0,0,2,0,0,0,2616,
scooby_state_64cc6c|9|4 2612,0,0,0,0,0,0,0,1,0,0,0,0,0,0,2613,
scooby_state_64cc6c|27|1 2591,0,0,0,1,0,0,0,0,1,0,0,0,0,1,2594,
scooby_state_64cc6c|4|1 2571,1,0,0,0,2,1,0,0,0,1,1,0,2,0,2579,
scooby_state_64cc6c|24|1 2560,0,1,0,0,0,0,0,0,0,0,0,0,0,0,2561,
scooby_state_638ed1|37|1 2537,1,1,2,1,1,3,0,0,1,1,2,0,1,1,2552,
scooby_state_64d0c9|59|0 2443,6,2,10,8,4,6,6,3,8,2,9,8,24,7,2546,
scooby_state_64d0cc|32|0 2453,4,8,5,4,2,5,5,4,1,1,11,10,16,6,2535,
scooby_state_49c402|16|1 314,0,0,0,0,0,0,0,0,0,0,2206,0,0,0,2520,
scooby_state_64d0c9|35|0 2478,0,2,0,1,0,0,0,1,0,0,0,1,19,0,2502,
scooby_state_64cc6c|8|1 2479,1,0,0,3,0,0,0,2,0,0,1,0,0,0,2486,
scooby_state_638ed1|24|1 2465,0,0,1,1,1,0,1,3,1,0,0,0,0,1,2474,
scooby_state_64cc6c|5|3 2463,1,0,0,0,0,1,0,0,0,1,0,0,0,0,2466,
scooby_state_64cc6c|9|1 2448,0,0,0,0,0,1,0,1,0,1,1,0,1,0,2453,
scooby_state_64d0c9|9|0 2314,5,2,9,9,4,6,7,2,8,2,10,8,27,5,2418,
scooby_state_64cc6c|53|2 2412,0,0,0,0,1,0,0,0,0,0,0,1,1,0,2415,
scooby_state_64cc6c|14|1 2386,1,0,1,0,1,0,1,0,2,1,1,0,0,1,2395,
scooby_state_64d0cc|51|0 2224,10,15,12,12,6,10,7,6,2,5,15,16,25,8,2373,
scooby_state_638ebd|24|-1 2337,1,2,1,3,3,1,2,1,2,3,1,0,3,1,2361,
scooby_state_64cc6c|12|1 2337,0,0,0,0,0,0,0,1,0,0,0,0,0,0,2338,
scooby_state_64cc6c|44|1 2326,0,0,0,0,0,0,0,1,0,3,0,0,1,0,2331,
scooby_state_638ed1|27|1 2300,2,3,0,3,0,2,1,1,3,0,0,2,0,1,2318,
scooby_state_64cc6c|45|1 2307,1,0,0,1,0,0,0,0,0,0,0,0,1,0,2310,
scooby_state_638ebd|45|1 2263,1,2,2,1,2,1,2,0,1,0,24,0,4,3,2306,
scooby_state_638ed1|56|1 2289,0,5,0,0,1,0,2,1,0,0,1,1,2,0,2302,
scooby_state_64cc6c|25|2 2287,0,1,2,0,0,1,0,0,0,0,0,0,0,0,2291,
scooby_state_638ebd|51|1 2183,1,1,2,1,2,2,1,1,1,1,70,3,2,2,2273,
scooby_state_638ec0|34|-2 1569,621,1,3,6,2,2,0,1,1,4,7,5,9,6,2237,
scooby_state_678c3e|41|0 957,78,83,71,69,60,70,52,12,14,15,496,102,65,39,2183,
scooby_state_638ec0|52|1 2164,0,1,0,0,2,0,0,1,0,1,0,2,0,1,2172,
scooby_state_64cc6c|13|1 2167,0,0,0,0,0,0,1,0,0,0,0,1,1,0,2170,
scooby_state_638ec0|3|1 2136,1,1,1,2,1,1,1,2,1,1,3,1,1,2,2155,
scooby_state_638ebd|46|1 2018,7,4,0,1,1,1,1,0,0,1,107,5,1,2,2149,
scooby_state_638ec0|31|1 2138,1,0,0,2,0,0,0,2,0,0,1,0,1,1,2146,
scooby_state_638ec0|10|-1 2136,0,1,0,0,0,2,0,1,1,0,1,1,1,0,2144,
scooby_state_638ec0|54|1 2131,0,2,1,0,2,0,1,1,0,0,1,4,0,1,2144,
scooby_state_638ec0|38|1 2130,0,1,0,1,0,1,0,1,1,1,1,0,0,1,2138,
scooby_state_638ec0|24|1 2110,2,0,1,4,1,0,2,1,3,1,1,1,1,2,2130,
scooby_state_638ebd|35|1 1749,1,4,3,2,1,0,0,2,1,0,360,0,4,2,2129,
scooby_state_638ec0|33|-1 2077,3,0,5,4,5,3,3,3,2,1,7,3,6,4,2126,
scooby_state_638ec0|51|1 2113,0,0,1,0,2,1,1,0,1,0,1,3,0,0,2123,
scooby_state_638ebd|41|1 1954,3,0,2,3,3,0,4,1,2,2,142,2,2,2,2122,
scooby_state_638ebd|4|-1 1969,9,1,3,5,0,3,0,0,1,2,112,2,9,5,2121,
scooby_state_638ebd|58|2 675,6,5,7,6,4,7,8,5,6,3,1357,12,3,17,2121,
scooby_state_638ebd|30|1 1729,3,3,1,1,2,1,0,1,1,1,375,1,1,1,2121,
scooby_state_638ec0|50|1 2108,1,1,1,1,0,2,1,0,0,0,1,0,2,3,2121,
scooby_state_638ec0|15|1 2099,1,1,2,5,1,1,2,1,1,1,1,2,1,2,2121,
scooby_state_638ed1|5|1 2110,1,1,2,0,1,2,0,0,2,0,0,1,0,1,2121,
scooby_state_638ebd|62|-1 2007,6,2,0,1,1,2,2,2,1,3,90,0,2,2,2121,
scooby_state_638ebd|54|-1 2034,1,3,0,0,1,0,0,3,3,1,68,2,1,4,2121,
scooby_state_638ebd|28|1 1840,8,3,1,0,3,1,2,0,2,2,249,6,1,3,2121,
scooby_state_638ec0|55|-2 2111,5,1,3,0,0,0,0,0,0,1,0,0,0,0,2121,
scooby_state_638ebd|38|1 2106,1,0,2,1,1,0,1,2,0,1,5,0,1,0,2121,
scooby_state_638ec0|62|1 2106,2,0,2,0,1,1,3,1,1,0,1,0,1,2,2121,
scooby_state_638ebd|10|-1 2103,0,0,0,1,2,2,2,3,3,3,1,1,0,0,2121,
scooby_state_638eb0|61|1 2112,1,1,1,0,1,0,2,0,1,1,1,0,0,0,2121,
scooby_state_638ec0|27|1 2099,3,1,2,1,3,2,2,0,1,1,1,2,1,2,2121,
scooby_state_638ebd|52|-1 2097,2,1,2,3,1,1,1,0,2,1,2,2,4,2,2121,
scooby_state_638ebd|15|-2 1753,271,6,7,6,9,10,6,6,5,5,7,9,7,14,2121,
scooby_state_638ebd|60|-2 1534,194,7,3,4,3,3,1,2,1,2,360,3,2,2,2121,
scooby_state_638eb0|45|1 2111,0,1,1,0,0,1,0,1,0,0,1,0,1,3,2120,
scooby_state_638ed1|58|1 2109,1,1,0,2,1,0,1,1,0,0,0,3,1,0,2120,
scooby_state_638ed1|2|1 2107,0,1,2,0,2,1,0,0,1,1,0,1,1,1,2118,
scooby_state_638ebd|1|-1 1615,2,4,0,1,1,0,0,0,0,3,484,1,5,1,2117,
scooby_state_638ebd|15|1 2010,1,1,1,0,0,1,1,0,0,1,94,1,1,2,2114,
scooby_state_638ebd|57|-1 2033,1,0,0,0,1,0,0,2,1,1,69,2,1,3,2114,
scooby_state_638eb0|0|0 1666,16,32,17,25,24,27,22,27,25,29,15,123,16,50,2114,
scooby_state_64d0c9|25|0 2064,2,1,2,2,2,4,2,3,4,1,5,3,15,3,2113,
scooby_state_638eb0|62|1 2101,0,2,1,0,0,1,0,1,1,1,1,1,2,0,2112,
scooby_state_638eb0|50|1 2094,0,1,1,0,0,0,1,0,1,2,3,0,2,0,2105,
scooby_state_638eb0|35|1 2092,0,1,0,0,0,0,1,1,1,0,0,1,1,3,2101,
scooby_state_638ec0|39|-2 1342,711,4,2,4,2,4,1,4,2,3,3,4,8,5,2099,
scooby_state_638eb0|31|1 2077,2,2,2,2,0,2,1,0,0,0,2,1,1,0,2092,
scooby_state_638eb0|49|1 2073,0,4,0,0,0,0,1,4,0,1,0,4,1,2,2090,
scooby_state_638ebd|32|1 2005,0,0,0,0,1,0,1,0,2,2,71,0,0,0,2082,
scooby_state_638ec0|60|-1 2063,2,0,0,0,1,0,2,1,0,0,1,1,1,0,2072,
scooby_state_638ebd|16|1 2059,1,2,0,0,0,0,1,0,2,2,1,0,1,0,2069,
scooby_state_638ec0|1|-1 2002,1,13,1,2,1,3,2,2,2,2,1,2,0,5,2039,
scooby_state_64cc6c|51|8 2030,0,0,0,0,0,1,0,0,0,0,0,0,0,1,2032,
scooby_state_64d0c9|40|6 2,2,4,6,6,5,4,3,5,3,4,24,2,1933,4,2007,
scooby_state_64d0e0|40|-1 1900,13,5,19,9,0,6,12,0,0,1,14,5,6,11,2001,
scooby_state_638ec0|58|-1 1978,0,0,1,0,0,1,1,0,0,0,3,0,0,0,1984,
scooby_state_5a0960|34|0 1969,0,1,0,0,0,1,0,0,0,0,1,0,1,0,1973,
scooby_state_638ec0|7|-1 1963,1,1,0,0,0,0,0,0,1,0,1,1,0,0,1968,
scooby_state_638ec0|50|-1 1945,1,4,1,1,1,1,1,1,2,1,0,1,1,6,1967,
scooby_state_64d0cc|35|0 1898,5,5,4,4,2,3,2,2,2,3,5,5,8,4,1952,
scooby_state_638ebd|52|1 1929,1,0,2,1,0,1,0,1,1,0,14,0,1,0,1951,
scooby_state_638ec0|59|-1 1917,3,3,2,2,2,1,2,1,1,1,4,1,5,1,1946,
scooby_state_64cc6c|49|2 1929,0,0,0,0,0,0,0,0,0,0,0,1,0,0,1930,
scooby_state_638ec0|43|1 1911,0,0,0,0,0,0,1,1,0,0,2,0,0,0,1915,
scooby_state_64cc6c|48|1 1902,0,1,0,0,0,0,0,1,0,0,0,0,0,1,1905,
scooby_state_638ebd|2|-1 1877,1,0,1,1,1,2,1,2,1,4,2,6,0,1,1900,
scooby_state_64cc6c|49|1 1889,0,0,0,0,0,1,0,0,0,1,0,0,0,0,1891,
scooby_state_64cc6c|6|1 1873,0,0,0,0,0,1,1,0,0,0,1,0,0,0,1876,
scooby_state_64cc6c|5|1 1865,0,0,0,0,0,1,0,0,0,0,0,0,0,0,1866,
scooby_state_5dfb76|43|2 348,133,182,59,39,51,79,8,11,7,13,299,100,487,20,1836,
scooby_state_638ed1|32|1 1823,1,2,0,0,0,2,0,2,0,1,1,1,1,0,1834,
scooby_state_64cc6c|17|1 1799,0,0,0,0,0,0,0,0,1,1,0,0,1,0,1802,
scooby_state_64cc6c|23|1 1796,1,0,0,0,0,0,1,1,0,0,0,0,0,1,1800,
scooby_state_64cc6c|22|1 1789,0,0,0,2,1,0,0,1,0,0,0,0,0,0,1793,
scooby_state_64cc6c|18|1 1781,0,0,0,1,0,0,0,0,0,1,0,0,0,0,1783,
scooby_state_64cc6c|32|7 1777,1,0,0,1,0,0,0,0,0,0,0,0,0,1,1780,
scooby_state_638ec0|45|-1 1733,1,2,1,0,4,2,2,4,2,1,7,0,1,4,1764,
scooby_state_638ebd|52|-2 1623,93,0,2,3,1,0,0,1,1,2,4,1,2,2,1735,
scooby_state_4983ee|15|0 1534,2,49,0,9,15,15,12,8,19,15,1,10,9,9,1707,
scooby_state_64cc6c|55|2 1694,2,0,0,0,0,1,0,0,1,0,0,0,1,0,1699,
scooby_state_7b5730|55|0 349,3,2,1305,4,1,4,0,0,2,3,1,1,16,3,1694,
scooby_state_64d0e0|41|0 1212,31,32,137,37,32,21,20,13,7,10,43,60,19,16,1690,
scooby_state_64cc6c|40|6 1650,0,0,0,0,0,2,0,0,0,0,1,0,0,2,1655,
scooby_state_638ec0|61|1 1633,0,1,1,0,0,0,0,2,0,0,0,1,1,0,1639,
scooby_state_406b41|45|1 249,18,299,40,20,16,29,16,17,17,17,818,0,22,55,1633,
scooby_state_5e5b40|45|0 630,13,25,63,60,42,188,15,15,13,17,411,47,34,54,1627,
scooby_state_5a0b40|45|1 600,0,8,0,2,35,0,0,0,0,0,980,1,0,1,1627,
scooby_state_5e1b43|45|-7 1492,0,37,5,10,1,8,6,7,6,7,16,1,11,17,1624,
scooby_state_5a0b83|46|1 0,0,73,0,0,1,0,0,0,0,0,1549,0,0,0,1623,
scooby_state_489425|16|1 1277,0,85,0,15,9,0,0,1,1,0,0,230,1,4,1623,
scooby_state_5e0b41|45|1 284,0,0,26,28,0,27,13,11,11,15,1049,39,0,120,1623,
scooby_state_5e1d00|52|8 808,32,193,0,30,0,2,8,8,8,9,21,0,478,26,1623,
scooby_state_5e0b38|44|3 1356,0,0,0,0,38,0,0,0,0,0,164,65,0,0,1623,
scooby_state_489447|17|1 0,1,0,73,10,0,0,7,6,7,7,1490,1,7,14,1623,
scooby_state_5e4442|17|1 493,11,6,35,31,2,38,41,35,35,36,739,23,35,63,1623,
scooby_state_5dcb43|45|1 360,33,5,0,7,175,8,7,8,14,5,966,1,13,21,1623,
scooby_state_4b5b40|45|1 1344,42,33,18,39,19,40,9,8,10,10,0,0,27,22,1621,
scooby_state_5dcb18|44|3 1618,0,0,1,0,1,0,1,0,0,0,0,0,0,0,1621,
scooby_state_5dc6b0|26|-19 391,81,0,0,102,467,32,45,35,18,42,326,0,36,46,1621,
scooby_state_638450|17|-9 212,11,117,62,72,31,19,40,43,26,21,333,1,4,628,1620,
scooby_state_4b5b00|44|3 1616,0,0,1,0,0,0,0,1,0,0,0,0,1,1,1620,
scooby_state_489140|5|-12 1497,51,66,0,1,0,0,0,0,0,0,0,0,0,5,1620,
scooby_state_550a43|41|24 1262,0,1,15,33,27,24,18,9,10,10,150,14,21,25,1619,
scooby_state_6383c2|15|-26 1,0,0,1,0,1612,0,1,4,0,0,0,0,0,0,1619,
scooby_state_7d3cb0|50|0 917,6,44,70,59,61,59,21,21,26,22,52,134,70,57,1619,
scooby_state_548680|26|0 576,41,35,31,28,127,74,43,43,44,45,392,43,31,65,1618,
scooby_state_4b5b93|46|1 1165,133,5,1,11,15,15,6,7,6,7,193,12,12,30,1618,
scooby_state_5e7d02|52|2 1069,27,293,0,11,118,4,6,6,1,8,1,23,3,47,1617,
scooby_state_64cd00|52|2 1159,15,31,33,33,113,17,21,18,19,20,60,20,10,48,1617,
scooby_state_495160|5|-21 877,19,263,0,28,11,203,14,14,22,15,106,5,10,30,1617,
scooby_state_550ca0|50|9 1466,12,0,1,1,131,1,0,0,0,0,2,0,1,1,1616,
scooby_state_5e7ca7|50|9 568,85,0,560,14,46,69,21,21,21,18,9,60,75,49,1616,
scooby_state_638eb0|43|1 1607,0,0,0,2,1,0,0,1,0,0,1,1,2,0,1615,
scooby_state_644b40|45|29 121,51,2,54,48,317,31,11,10,16,12,569,55,70,248,1615,
scooby_state_550b2a|44|-6 122,46,0,73,0,26,0,0,1,0,0,0,1346,0,0,1614,
scooby_state_64d0cc|40|0 1578,0,0,0,0,0,0,0,0,1,0,1,1,0,3,1584,
scooby_state_550441|17|-28 703,0,2,1,14,70,4,3,1,3,2,772,0,0,3,1578,
scooby_state_5dad20|52|0 1559,1,0,0,0,0,0,0,0,0,0,10,0,0,0,1570,
scooby_state_5e2b60|45|40 409,0,68,979,11,0,1,7,6,3,8,43,0,2,17,1554,
scooby_state_5a097d|35|1 163,2,9,261,3,4,4,2,3,3,3,52,0,1044,0,1553,
scooby_state_486160|5|0 224,74,51,35,26,296,29,26,26,42,25,614,11,18,47,1544,
scooby_state_638ed1|60|1 1534,1,1,0,0,1,0,2,2,0,0,1,0,0,1,1543,
scooby_state_64d0cc|9|0 1489,4,5,4,4,3,4,2,2,1,2,4,6,9,4,1543,
scooby_state_638f76|40|0 1534,0,2,0,0,0,0,0,0,0,0,2,0,0,0,1538,
scooby_state_49c3d0|15|0 1514,0,0,0,0,0,0,0,0,0,0,0,0,0,0,1514,
scooby_state_638ec0|42|1 1493,2,0,1,0,3,1,2,1,0,0,0,0,2,1,1506,
scooby_state_6ee3e0|15|0 1397,0,73,0,13,0,1,2,0,0,0,0,0,0,0,1486,
scooby_state_638ec0|7|1 1468,2,1,2,2,1,1,0,0,1,1,1,2,1,3,1486,
scooby_state_64d0cc|53|0 1432,4,5,4,4,3,3,3,2,2,2,5,5,8,4,1486,
scooby_state_49c3d0|15|-1 1481,0,0,1,0,0,0,0,0,0,1,0,0,0,1,1484,
scooby_state_638ec0|28|1 1467,1,1,1,2,1,1,1,0,2,1,1,0,1,3,1483,
scooby_state_64cc6c|45|2 1476,0,0,0,0,0,1,0,0,0,0,0,0,0,0,1477,
scooby_state_7b1c2a|35|33 164,121,105,94,101,112,90,105,121,24,23,115,114,114,73,1476,
scooby_state_638ec0|47|1 1460,0,1,0,0,1,0,0,2,0,0,1,0,0,0,1465,
scooby_state_638ec0|44|1 1440,2,1,1,1,2,2,0,1,1,1,1,1,0,2,1456,
scooby_state_638ebd|9|1 1332,1,1,0,1,1,0,0,0,1,1,113,1,1,0,1453,
scooby_state_638ec0|49|1 1448,0,0,1,0,1,0,0,1,0,0,1,0,0,0,1452,
scooby_state_638ec0|12|1 1436,1,0,1,1,0,0,2,0,0,0,0,0,0,0,1441,
scooby_state_638ec0|21|1 1434,0,0,0,0,3,0,0,1,0,0,1,1,0,0,1440,
scooby_state_638ec0|63|1 1431,0,1,0,0,0,0,0,2,0,0,0,0,1,1,1436,
scooby_state_638ebd|41|-1 1404,1,1,1,1,2,1,2,2,1,1,1,1,2,1,1422,
scooby_state_638ebd|40|-1 1318,1,1,0,0,0,1,0,0,0,1,96,0,1,0,1419,
scooby_state_638ebd|22|1 1196,0,4,1,0,0,0,0,0,2,0,212,2,1,0,1418,
scooby_state_638ec0|26|1 1401,2,0,2,2,1,0,1,0,2,1,1,1,1,2,1417,
scooby_state_638ebd|49|-1 1302,5,1,2,0,1,0,0,0,1,0,95,1,6,3,1417,
scooby_state_638ec0|4|1 1411,0,0,0,0,0,1,0,1,1,0,0,0,1,0,1415,
scooby_state_638ebd|2|1 1400,1,1,0,2,1,1,2,0,0,1,1,0,2,3,1415,
scooby_state_638ebd|43|1 1180,0,4,0,0,0,2,1,1,1,0,222,2,0,2,1415,
scooby_state_638eb0|16|1 1406,0,1,1,1,1,0,0,1,2,1,0,0,0,0,1414,
scooby_state_638ebd|8|-1 1401,0,2,1,2,0,1,0,0,2,0,1,1,1,2,1414,
scooby_state_638ec0|13|1 1400,2,1,1,1,1,1,0,0,1,1,1,1,0,3,1414,
scooby_state_638ec0|42|-1 1387,4,4,1,1,2,1,1,2,1,2,0,2,0,6,1414,
scooby_state_638ebd|61|3 692,2,0,10,0,1,2,0,1,0,1,701,2,1,1,1414,
scooby_state_638ebd|16|-1 1400,0,1,1,2,0,2,0,0,1,1,2,2,0,2,1414,
scooby_state_638ebd|37|-1 1407,0,1,0,0,1,0,0,1,0,0,0,2,0,2,1414,
scooby_state_638eb0|59|2 404,39,29,13,12,10,9,8,10,7,7,835,2,7,22,1414,
scooby_state_638ec0|23|2 1378,0,0,2,0,0,14,1,0,0,0,0,19,0,0,1414,
scooby_state_638ebd|26|-1 1206,1,2,1,1,0,0,0,0,0,1,202,0,0,0,1414,
scooby_state_638ebd|28|2 404,2,5,4,2,1,0,1,3,3,3,975,3,1,7,1414,
scooby_state_638ec0|63|33 1408,2,0,0,0,1,0,0,0,0,0,0,3,0,0,1414,
scooby_state_638ebd|28|-1 1250,1,0,0,0,1,0,0,1,0,1,159,1,0,0,1414,
scooby_state_638ebd|40|1 1282,6,3,0,0,3,1,2,0,1,1,108,4,1,2,1414,
scooby_state_638ebd|24|2 581,2,2,2,2,0,2,1,1,3,2,805,4,0,7,1414,
scooby_state_638ec0|58|3 1412,0,0,0,0,0,2,0,0,0,0,0,0,0,0,1414,
scooby_state_638ebd|61|-1 1334,1,0,1,0,1,0,0,1,1,0,71,1,1,2,1414,
scooby_state_638eb0|34|1 1407,1,0,1,0,0,0,0,1,1,0,0,0,1,2,1414,
scooby_state_638ebd|38|-1 1341,1,0,0,0,1,1,1,2,1,3,63,0,0,0,1414,
scooby_state_638ebd|11|1 1179,0,2,0,0,0,0,2,0,0,1,229,0,1,0,1414,
scooby_state_638ebd|9|-1 1388,2,1,1,2,1,0,3,0,0,1,10,1,3,1,1414,
scooby_state_638ec0|32|13 1017,40,18,16,18,56,18,16,17,40,14,20,21,71,32,1414,
scooby_state_638ebd|50|-1 1402,0,0,1,2,0,1,1,0,1,1,2,1,1,1,1414,
scooby_state_638ebd|50|1 1407,0,0,1,0,0,2,0,0,0,1,0,1,1,1,1414,
scooby_state_638ebd|4|1 1407,1,0,1,0,0,1,1,0,0,1,0,0,2,0,1414,
scooby_state_638ebd|12|-1 1400,1,1,2,1,2,0,2,0,0,1,0,0,3,1,1414,
scooby_state_638ebd|10|1 1332,1,0,1,0,2,1,0,0,1,1,71,2,1,1,1414,
scooby_state_638ec0|6|2 1391,0,0,2,0,0,8,1,0,0,0,0,12,0,0,1414,
scooby_state_638ec0|8|-1 1402,1,0,1,3,1,1,0,1,0,0,1,1,2,0,1414,
scooby_state_638ec0|57|-1 1391,2,1,2,3,2,0,1,2,0,2,1,3,4,0,1414,
scooby_state_638ec0|29|1 1409,1,0,0,0,0,0,0,1,1,0,0,1,0,1,1414,
scooby_state_638ec0|51|-2 968,424,0,0,2,3,0,1,1,2,2,5,1,3,2,1414,
scooby_state_638eb0|24|1 1409,0,0,1,0,0,0,0,1,1,0,0,1,1,0,1414,
scooby_state_638eb0|27|1 1404,0,0,1,2,1,1,1,2,0,0,0,1,1,0,1414,
scooby_state_638ebd|31|-2 1320,76,0,3,2,0,1,0,0,2,1,4,1,2,2,1414,
scooby_state_638ec0|37|-1 1362,2,0,6,3,4,4,2,0,4,0,11,4,4,8,1414,
scooby_state_638ec0|55|1 1410,0,0,1,0,0,0,0,1,1,0,1,0,0,0,1414,
scooby_state_638ebd|34|-1 1334,2,1,1,1,0,0,0,1,1,0,71,1,0,1,1414,
scooby_state_638ec0|13|-1 1387,1,0,3,2,2,2,1,0,2,0,6,2,2,4,1414,
scooby_state_638ebd|49|-2 1165,164,4,5,6,4,3,4,6,6,9,6,4,4,24,1414,
scooby_state_638ec0|2|-1 1403,2,3,0,0,0,0,0,1,0,1,1,1,0,2,1414,
scooby_state_638ebd|46|-1 1146,1,2,1,1,0,1,0,2,1,3,252,2,1,1,1414,
scooby_state_638ebd|21|14 1410,0,2,0,0,0,1,0,0,0,1,0,0,0,0,1414,
scooby_state_638ec0|29|-2 903,484,0,0,2,3,0,0,1,1,2,5,2,5,5,1413,
scooby_state_4a53d0|15|0 608,19,33,52,51,196,57,43,52,25,53,44,70,61,49,1413,
scooby_state_638ed1|30|1 1404,0,1,0,0,0,0,1,2,0,0,1,3,1,0,1413,
scooby_state_638ebd|5|-2 1226,94,1,2,1,2,3,4,2,3,1,59,3,5,6,1412,
scooby_state_638ec0|56|3 1405,0,0,1,1,2,0,1,0,0,1,0,0,0,0,1411,
scooby_state_638ebd|34|3 682,1,1,12,1,2,1,0,1,2,1,701,3,1,2,1411,
scooby_state_638ebd|63|1 1408,0,0,0,0,0,0,0,0,2,0,0,1,0,0,1411,
scooby_state_638ebd|42|3 662,1,2,13,1,2,2,1,1,1,2,717,3,1,2,1411,
scooby_state_638ebd|38|13 1358,2,2,2,5,1,4,1,4,10,0,4,14,1,3,1411,
scooby_state_638ed1|54|1 1404,0,1,0,1,2,1,0,0,0,1,0,0,1,0,1411,
scooby_state_638ebd|27|-1 1316,3,3,2,0,1,0,1,0,0,1,73,1,6,3,1410,
scooby_state_638eb0|26|1 1404,0,0,1,0,1,0,1,1,0,0,0,1,1,0,1410,
scooby_state_638ebd|13|13 1333,3,7,0,18,3,3,0,2,10,2,4,21,3,1,1410,
scooby_state_638ed1|42|1 1400,0,1,0,0,1,0,2,0,2,0,1,2,0,0,1409,
scooby_state_638ebd|48|-1 1400,2,1,0,0,0,0,1,1,2,1,1,0,0,0,1409,
scooby_state_638ebd|5|-1 1399,0,0,0,1,1,0,1,1,1,2,1,1,0,0,1408,
scooby_state_638ebd|41|13 1351,1,2,2,7,2,2,4,2,7,4,0,14,2,6,1406,
scooby_state_64cc6c|34|0 1404,0,0,1,0,0,0,0,0,0,0,0,1,0,0,1406,
scooby_state_64d0c9|10|0 1365,2,2,2,2,1,2,2,2,2,1,2,5,11,3,1404,
scooby_state_638ebd|48|14 1328,21,1,5,3,5,3,3,3,3,1,4,3,10,8,1401,
scooby_state_638ebd|44|1 1319,1,0,1,2,0,0,0,2,0,0,72,2,0,1,1400,
scooby_state_400530|1|0 1246,0,2,4,10,12,7,6,7,29,59,0,0,1,11,1394,
scooby_state_5e2140|5|-45 0,50,64,41,35,539,45,45,64,44,55,135,142,13,121,1393,
scooby_state_638eb0|40|1 1380,0,1,0,1,0,2,0,1,0,0,0,1,3,0,1389,
scooby_state_638eb0|56|1 1380,1,2,0,2,2,0,0,1,0,0,0,0,0,1,1389,
scooby_state_638eb0|37|1 1379,0,1,1,0,0,0,1,2,1,0,0,1,0,1,1387,
scooby_state_638ec0|30|1 1369,3,1,1,1,1,1,0,1,1,1,1,3,0,2,1386,
scooby_state_498505|2|1 670,0,0,1,0,0,0,1,0,0,0,708,0,0,0,1380,
scooby_state_7b3446|17|1 381,97,3,60,26,21,38,40,35,222,27,331,1,21,73,1376,
scooby_state_638ebd|56|1 1366,0,0,1,0,0,2,0,0,1,0,0,1,2,1,1374,
scooby_state_638eb0|44|1 1361,1,0,0,0,0,1,1,0,0,1,1,1,1,2,1370,
scooby_state_550400|16|-28 1227,0,139,0,0,0,0,0,0,0,0,1,0,0,0,1367,
scooby_state_498410|16|1 1206,0,0,0,0,0,2,0,0,0,1,0,155,0,0,1364,
scooby_state_638ebd|26|1 1355,0,1,0,1,0,0,0,0,1,2,1,1,0,1,1363,
scooby_state_64d0cc|16|0 1285,4,6,5,4,4,6,6,3,2,4,7,10,9,6,1361,
scooby_state_5a0b30|44|0 1285,16,24,0,14,1,6,2,2,1,0,0,0,2,6,1359,
scooby_state_638ebd|59|18 1345,0,0,0,2,0,0,0,0,0,1,0,0,7,0,1355,
scooby_state_7b1472|17|2 723,0,69,0,17,0,31,15,18,17,6,433,3,1,22,1355,
scooby_state_64cc82|50|0 737,586,0,0,0,1,1,2,3,2,1,9,2,10,1,1355,
scooby_state_644420|16|-29 528,1,0,20,8,133,14,8,8,8,8,0,565,45,8,1354,
scooby_state_498441|17|1 629,87,1,629,1,0,0,1,0,0,1,0,0,2,3,1354,
scooby_state_7b142a|16|-1 1279,23,7,8,9,0,4,5,4,0,5,3,0,1,5,1353,
scooby_state_5e0a50|41|0 0,0,1349,0,0,0,0,0,1,0,0,1,0,0,0,1351,
scooby_state_5dca40|41|0 0,0,1317,0,4,4,5,3,3,4,3,1,0,0,3,1347,
scooby_state_638d00|52|37 1100,13,0,0,0,0,0,0,0,0,0,22,208,0,1,1344,
scooby_state_638ebd|31|1 1257,0,0,0,1,2,0,2,0,2,1,66,0,0,1,1332,
scooby_state_5e4420|16|0 1329,0,0,0,1,0,0,0,0,0,1,0,0,0,0,1331,
scooby_state_5a0d06|52|6 668,61,0,0,0,72,0,0,1,0,0,0,2,518,8,1330,
scooby_state_406a44|41|-4 0,0,1225,0,0,0,0,0,0,0,0,0,0,105,0,1330,
scooby_state_64cc60|33|0 1314,0,0,0,0,0,0,0,0,1,0,0,1,0,0,1316,
scooby_state_638ebd|37|3 433,2,24,16,4,1,31,1,2,2,1,788,2,0,6,1313,
scooby_state_5a1401|16|1 218,57,0,22,31,29,29,26,23,0,26,590,29,110,122,1312,
scooby_state_54a40d|16|0 432,5,314,48,18,5,217,21,18,20,19,98,46,15,36,1312,
scooby_state_7d2230|8|0 765,119,186,20,13,14,23,27,24,3,23,30,4,15,46,1312,
scooby_state_4b1220|8|0 585,22,57,52,75,26,39,55,42,10,38,203,9,56,41,1310,
scooby_state_644b40|45|30 1109,67,4,1,0,0,1,2,3,1,0,80,29,1,5,1303,
scooby_state_638ec0|46|-2 629,641,2,6,0,2,1,4,3,2,0,0,3,2,7,1302,
scooby_state_64e140|5|0 1179,112,0,0,0,0,0,0,0,0,0,0,0,0,1,1292,
scooby_state_54ed10|52|0 371,50,354,6,50,0,13,17,17,5,18,202,44,81,42,1270,
scooby_state_497d30|52|0 809,134,0,29,35,41,9,18,15,16,19,33,21,34,55,1268,
scooby_state_5e1b80|46|1 46,0,0,93,0,0,1,0,0,1,0,1122,0,1,0,1264,
scooby_state_64d0cc|42|0 1239,1,1,2,1,1,2,2,2,1,1,1,2,1,1,1258,
scooby_state_498441|40|0 2,5,21,1195,4,4,3,5,3,1,2,3,4,2,4,1258,
scooby_state_6493c0|15|-26 649,3,19,105,18,81,1,14,22,26,13,178,96,6,18,1249,
scooby_state_7b343f|16|11 1236,9,0,0,0,0,0,0,0,0,1,0,1,0,0,1247,
scooby_state_64d0c9|42|0 1223,0,1,0,0,1,2,2,2,0,1,1,1,8,3,1245,
scooby_state_7b13c2|15|0 1242,0,0,0,0,1,0,0,0,0,1,0,0,0,0,1244,
scooby_state_6386ae|32|0 489,85,222,0,0,0,1,0,0,0,0,315,0,129,0,1241,
scooby_state_638ebd|53|-2 1178,39,0,1,1,0,1,0,1,4,0,1,0,0,2,1228,
scooby_state_64cc6c|55|12 1226,0,0,0,0,0,1,0,0,0,0,0,0,0,0,1227,
scooby_state_638ec0|36|-1 1181,3,31,0,0,0,3,0,2,1,1,0,1,0,3,1226,
scooby_state_638ebd|43|-1 1214,1,1,1,1,1,0,1,0,0,0,1,1,3,1,1226,
scooby_state_638ec0|3|-2 684,490,2,1,4,2,2,1,1,1,3,7,5,8,7,1218,
scooby_state_64cc6c|18|2 1214,1,0,0,0,1,0,0,0,0,1,0,0,0,0,1217,
scooby_state_64d0c9|17|0 1204,1,1,0,0,1,1,0,0,0,1,0,0,6,2,1217,
scooby_state_64d0cc|54|0 1152,4,6,6,4,3,4,2,2,3,2,4,8,10,4,1214,
scooby_state_498441|2|0 2,5,20,1148,5,4,3,5,2,1,3,3,4,2,4,1211,
scooby_state_649a45|41|26 116,221,296,27,52,266,3,52,15,15,15,4,27,26,70,1205,
scooby_state_4b5a40|41|0 791,0,0,0,0,0,0,0,1,0,1,401,2,1,0,1197,
scooby_state_4983e1|54|0 0,0,1181,0,0,2,1,0,1,1,1,1,1,0,0,1189,
scooby_state_64cc6c|46|3 1184,0,0,0,0,1,0,0,1,0,0,0,0,0,0,1186,
scooby_state_4984ea|25|5 1005,0,0,162,1,0,1,9,1,0,1,0,1,0,0,1181,
scooby_state_4b59d1|34|0 1078,6,0,87,0,0,0,0,0,0,1,1,0,0,0,1173,
scooby_state_64cc6c|14|4 1168,0,0,0,0,0,1,1,0,0,0,0,1,0,1,1172,
scooby_state_498422|34|0 85,1,0,991,2,3,3,2,5,3,1,17,2,50,3,1168,
scooby_state_495684|26|0 117,35,15,19,44,26,45,49,48,47,45,504,45,23,103,1165,
scooby_state_6443d4|51|11 825,0,0,0,18,0,0,0,0,1,0,303,0,14,0,1161,
scooby_state_64cc6c|23|14 1151,1,0,0,0,0,0,0,0,0,0,0,1,0,0,1153,
scooby_state_678230|8|0 102,20,0,22,16,0,0,24,24,19,24,812,10,32,40,1145,
scooby_state_638788|20|0 34,24,304,221,29,1,19,19,21,19,28,339,20,26,41,1145,
scooby_state_677200|8|0 342,17,106,37,1,29,29,30,30,278,25,65,37,73,45,1144,
scooby_state_5dff02|34|14 133,17,3,46,9,47,47,51,63,71,24,188,67,33,338,1137,
scooby_state_64df84|25|0 1091,0,1,0,0,0,0,0,0,0,0,0,0,36,0,1128,
scooby_state_638ebd|53|14 1048,32,1,2,2,3,2,2,1,1,0,13,1,6,4,1118,
scooby_state_4983e1|20|-4 10,0,1101,0,0,1,0,0,0,0,0,0,0,0,0,1112,
scooby_state_64cc6c|1|0 1109,0,0,0,0,0,0,0,0,0,0,0,0,0,0,1109,
scooby_state_498441|34|0 0,0,0,1087,0,0,0,0,1,0,0,6,0,0,0,1094,
scooby_state_638ec0|53|-1 1065,1,7,1,1,1,3,1,1,1,2,1,1,0,4,1090,
scooby_state_64cc6c|32|9 1088,0,0,0,1,1,0,0,0,0,0,0,0,0,0,1090,
scooby_state_638ec0|54|2 1083,0,0,1,2,1,0,0,0,1,1,0,1,0,0,1090,
scooby_state_7d2253|35|0 1019,10,10,0,0,0,0,0,1,0,0,40,2,0,0,1082,
scooby_state_497d51|25|1 1078,1,0,0,0,2,0,0,0,0,0,0,0,0,0,1081,
scooby_state_5e5b7f|14|0 537,35,49,7,24,164,37,36,32,34,30,0,0,27,63,1075,
scooby_state_638ec0|25|-1 1029,2,0,6,5,5,2,2,1,2,1,6,3,4,4,1072,
scooby_state_7b1c01|2|0 1014,2,3,3,4,2,9,4,2,0,3,6,3,12,4,1071,
scooby_state_550b41|45|29 13,0,0,0,0,1,0,0,0,0,0,1055,0,0,0,1069,
scooby_state_64d0cc|14|0 1038,2,3,2,2,1,2,1,1,1,1,2,4,4,3,1067,
scooby_state_489433|14|-1 477,5,36,19,21,0,4,12,16,15,17,281,88,39,28,1058,
scooby_state_5e444b|1|-30 391,73,31,6,30,8,24,34,31,227,32,32,9,12,115,1055,
scooby_state_638ed1|14|1 1043,0,1,0,0,2,1,0,0,1,0,1,0,1,0,1050,
scooby_state_7b3142|5|0 8,0,1,0,80,934,0,1,2,2,1,1,5,0,3,1038,
scooby_state_64d0cc|61|0 1024,2,1,2,0,2,0,1,0,1,1,2,1,0,1,1038,
scooby_state_64d0cc|63|0 1024,0,0,0,0,0,0,1,1,2,0,2,2,0,1,1033,
scooby_state_5e2b8b|46|-1 397,1,0,1,0,41,1,0,1,0,0,0,1,590,0,1033,
scooby_state_5e62d8|47|1 0,0,0,59,0,61,1,1,0,0,0,0,0,910,1,1033,
scooby_state_64cc6c|39|4 1028,0,0,1,0,0,0,0,0,0,1,1,0,0,0,1031,
scooby_state_4890ec|39|5 350,190,8,60,14,117,7,6,5,111,3,36,103,6,12,1028,
scooby_state_49c016|51|5 0,1,0,0,0,1021,0,0,1,1,1,0,1,0,1,1027,
scooby_state_5e393d|52|1 911,0,49,12,0,0,7,0,0,0,0,0,1,6,33,1019,
scooby_state_5e33c1|40|8 926,0,0,0,0,0,0,0,0,35,0,52,1,0,0,1014,
scooby_state_5e7a67|31|17 600,6,27,0,16,61,29,31,29,2,35,79,4,9,85,1013,
scooby_state_64d0c9|26|0 995,2,1,2,0,1,0,0,0,0,1,1,0,2,2,1007,
scooby_state_406b1f|44|0 979,0,0,15,1,0,0,0,1,0,0,0,0,0,0,996,
scooby_state_495662|7|5 526,11,39,0,1,12,1,1,1,3,2,9,0,382,3,991,
scooby_state_64a774|1|-6 497,4,0,319,18,23,4,10,15,20,7,0,38,7,24,986,
scooby_state_5e394b|47|0 0,1,0,0,0,0,1,0,0,0,1,983,0,0,0,986,
scooby_state_638690|26|-26 847,20,0,39,8,2,10,5,10,3,8,0,6,3,24,985,
scooby_state_489360|24|0 756,208,0,9,0,0,0,0,0,1,0,0,5,0,0,979,
scooby_state_64cc6c|42|2 973,0,0,0,0,0,1,1,0,0,0,0,0,0,0,975,
scooby_state_64d0cc|39|0 960,0,0,0,1,0,0,0,1,0,0,0,1,0,1,964,
scooby_state_5a13de|15|0 475,0,131,1,14,141,24,25,23,26,28,9,0,27,37,961,
scooby_state_638ebd|17|1 957,0,0,0,1,0,0,0,0,0,1,0,0,0,0,959,
scooby_state_5e3385|32|1 952,1,0,0,1,1,1,0,0,0,0,0,1,0,1,958,
scooby_state_638ebd|59|2 384,0,4,1,1,1,0,0,1,0,2,557,0,1,1,953,
scooby_state_638ec0|25|1 947,0,0,0,0,1,0,0,0,0,0,1,1,0,0,950,
scooby_state_4983eb|24|0 946,0,0,0,0,1,0,0,1,0,0,1,0,0,0,949,
scooby_state_5e7cd4|33|0 165,77,199,0,20,432,1,6,6,15,5,0,4,12,3,945,
scooby_state_638ec0|57|1 942,0,0,0,0,0,0,1,0,0,0,0,0,0,0,943,
scooby_state_48910b|39|-1 76,9,11,0,10,13,12,16,14,6,5,0,730,7,24,933,
scooby_state_644140|52|1 525,6,0,0,5,240,4,3,2,2,5,0,127,6,7,932,
scooby_state_6443d4|53|1 348,235,0,115,6,0,0,0,0,0,0,0,225,2,0,931,
scooby_state_644140|43|1 530,5,1,0,5,213,4,3,2,2,4,0,128,6,8,911,
scooby_state_638ec0|11|-2 647,244,1,3,2,1,1,0,0,1,2,1,1,1,1,906,
scooby_state_64a766|20|1 902,0,1,0,1,0,0,0,0,0,0,0,0,0,0,904,
scooby_state_54ed29|43|1 797,7,2,7,5,50,6,1,1,2,2,0,0,16,3,899,
scooby_state_64cc6c|6|3 894,0,0,0,0,0,1,0,0,0,0,0,0,0,0,895,
scooby_state_64d0c9|36|0 842,2,1,5,4,3,4,2,2,2,1,6,6,3,2,885,
scooby_state_5dfb83|14|-2 14,42,362,145,13,14,22,11,12,13,14,17,66,117,21,883,
scooby_state_497d48|36|-3 258,42,0,21,33,0,30,32,35,20,17,306,7,15,66,882,
scooby_state_5e2b8b|38|-2 356,15,0,17,1,9,12,0,0,39,0,22,0,408,0,879,
scooby_state_5e34c5|33|-14 21,0,95,1,635,0,53,0,0,1,1,69,0,2,0,878,
scooby_state_64a75f|2|0 801,20,0,3,0,26,20,0,0,0,0,3,0,1,0,874,
scooby_state_498505|26|1 556,1,0,0,0,1,0,0,0,0,0,309,0,0,0,867,
scooby_state_638ec0|46|1 855,0,0,0,0,0,0,1,1,0,0,0,0,0,1,858,
scooby_state_485f70|3|0 645,12,54,4,7,0,4,6,10,11,10,43,25,8,13,852,
scooby_state_638ebd|30|13 845,0,1,0,1,0,1,0,0,0,0,0,1,1,1,851,
scooby_state_48936e|46|-4 646,27,3,48,0,1,0,0,1,0,1,9,1,109,3,849,
scooby_state_5e33c1|49|10 846,0,1,0,0,0,0,0,1,0,0,0,0,0,0,848,
scooby_state_64d0c9|62|0 829,2,1,0,0,1,0,0,0,0,1,0,0,6,2,842,
scooby_state_5e2d47|53|-9 509,123,4,2,2,1,0,0,1,0,0,162,3,27,0,834,
scooby_state_4983e1|40|34 0,0,822,10,0,0,0,0,1,0,0,0,0,0,0,833,
scooby_state_498ff0|6|5 106,584,134,0,0,0,0,0,0,0,0,8,0,0,0,832,
scooby_state_64cc6c|23|7 828,0,0,0,0,0,0,0,0,0,0,0,0,0,0,828,
scooby_state_5e2d47|40|-10 0,1,51,4,11,741,0,1,2,1,2,1,7,0,2,824,
scooby_state_5dfb76|43|0 277,1,26,0,13,109,1,0,0,0,0,378,0,0,18,823,
scooby_state_4893c0|15|0 506,0,5,14,26,26,22,25,23,28,26,16,31,38,36,822,
scooby_state_5e7a41|41|0 52,0,0,0,0,767,1,0,0,0,0,0,0,0,0,820,
scooby_state_4b5ab1|35|1 506,251,0,5,2,1,5,4,5,0,2,0,3,0,36,820,
scooby_state_638a41|41|24 0,0,14,1,90,320,387,0,4,0,0,3,0,0,0,819,
scooby_state_5e2c82|50|5 266,171,124,5,15,53,27,7,8,17,8,0,21,69,24,815,
scooby_state_638ec0|19|1 811,2,0,0,0,0,0,0,0,0,0,0,0,1,0,814,
scooby_state_5e62cd|61|9 809,0,0,0,1,0,0,0,0,0,0,0,0,1,0,811,
scooby_state_5e1b30|44|0 629,29,0,5,9,10,10,8,9,11,8,25,20,0,30,803,
scooby_state_5e2c82|50|0 480,0,5,6,8,0,5,4,3,2,4,103,0,175,6,801,
scooby_state_5e7a41|41|-11 0,0,0,0,32,754,0,0,0,0,0,13,1,0,0,800,
scooby_state_48932d|16|2 425,5,53,20,6,86,0,3,3,13,3,0,170,0,12,799,
scooby_state_6441a0|62|1 475,65,4,38,12,63,13,12,10,8,7,12,1,38,40,798,
scooby_state_4984ea|7|5 643,1,0,142,1,0,1,8,1,0,1,0,0,0,0,798,
scooby_state_638a41|41|0 0,0,0,0,0,652,104,1,1,2,0,1,36,0,1,798,
scooby_state_5a141a|31|-3 473,1,55,5,14,3,14,15,18,5,16,91,62,3,22,797,
scooby_state_638ebd|47|-1 733,1,3,0,0,0,0,0,0,0,0,51,0,9,0,797,
scooby_state_5e33cc|50|1 794,0,0,1,0,0,0,0,0,0,0,0,0,0,0,795,
scooby_state_64d0c9|11|0 784,1,1,1,0,1,0,0,0,0,1,0,0,3,2,794,
scooby_state_495662|59|5 406,11,40,0,0,11,1,1,1,3,1,9,0,303,3,790,
scooby_state_6443d4|42|-20 751,1,2,4,11,4,2,2,2,2,0,0,0,6,2,789,
scooby_state_64cc6c|23|2 788,1,0,0,0,0,0,0,0,0,0,0,0,0,0,789,
scooby_state_638ec0|30|-1 786,0,0,0,0,0,0,0,0,0,0,1,0,0,0,787,
scooby_state_638ec0|31|-1 785,0,0,0,0,0,1,1,0,0,0,0,0,0,0,787,
scooby_state_5e1b30|44|-2 677,11,4,49,6,9,7,4,3,3,4,0,4,0,4,785,
scooby_state_6443d4|0|-40 649,47,25,0,25,0,0,2,3,0,0,31,0,3,0,785,
scooby_state_4b5b0b|31|-14 547,40,0,0,0,40,3,0,3,8,0,140,0,0,0,781,
scooby_state_5e34ce|62|29 647,14,1,36,2,25,18,0,0,0,0,23,1,9,0,776,
scooby_state_498f60|6|-1 408,1,184,0,1,1,2,7,7,4,10,95,33,10,9,772,
scooby_state_6443d0|15|0 1,0,0,0,0,0,0,0,0,745,0,23,0,0,0,769,
scooby_state_64d0c9|63|0 757,0,0,1,0,0,0,0,1,0,0,0,0,8,0,767,
scooby_state_644875|2|-5 555,0,0,117,2,0,2,2,1,11,28,18,2,0,27,765,
scooby_state_644664|1|0 702,2,47,0,0,0,0,1,2,2,0,0,0,0,0,756,
scooby_state_498ff0|58|-3 72,665,0,0,1,7,1,1,0,0,1,0,6,1,0,755,
scooby_state_64a774|61|2 0,2,16,5,7,21,3,7,5,7,8,0,655,3,15,754,
scooby_state_64cc6c|38|2 751,0,0,0,0,0,0,0,0,0,0,0,0,0,0,751,
scooby_state_638ec0|11|2 743,0,0,1,0,0,0,0,0,0,0,0,1,0,0,745,
scooby_state_64cc6c|6|2 744,0,0,1,0,0,0,0,0,0,0,0,0,0,0,745,
scooby_state_638ec0|27|-1 735,2,2,0,0,0,0,0,1,0,1,1,1,0,2,745,
scooby_state_638ebd|58|-2 733,6,1,0,0,1,0,0,0,1,0,0,0,0,0,742,
scooby_state_64cc6c|9|2 741,0,0,0,0,0,0,0,0,0,0,0,0,0,0,741,
scooby_state_5a136b|34|0 336,1,367,0,0,0,0,0,0,1,0,35,0,0,0,740,
scooby_state_638ec0|39|2 737,0,0,0,0,0,0,1,0,1,0,0,0,0,0,739,
scooby_state_64cc6c|5|2 735,0,0,0,0,0,0,0,0,1,0,0,0,0,0,736,
scooby_state_64d0c9|28|0 707,0,1,0,0,1,3,3,1,5,1,4,5,2,2,735,
scooby_state_638eb0|52|-1 207,23,43,176,20,95,12,15,14,40,13,3,9,21,42,733,
scooby_state_638ec0|53|2 731,0,0,0,0,0,0,0,1,0,0,0,1,0,0,733,
scooby_state_64d0c9|1|0 711,1,2,1,0,2,0,0,4,1,2,0,0,3,4,731,
scooby_state_4983ee|15|-2 729,0,0,0,1,0,0,0,1,0,0,0,0,0,0,731,
scooby_state_638eb0|12|2 126,14,5,6,4,7,3,5,5,11,3,520,2,6,13,730,
scooby_state_498536|40|0 5,0,0,12,8,6,1,4,1,2,1,25,1,653,11,730,
scooby_state_5e33ec|31|1 489,61,14,31,13,0,12,10,8,18,11,0,23,0,34,724,
scooby_state_498ff0|30|-13 15,691,0,0,1,6,4,1,2,0,1,0,0,1,1,723,
scooby_state_638ec0|33|1 720,0,0,1,0,0,0,0,0,0,0,0,1,0,0,722,
scooby_state_4983eb|14|0 720,0,0,0,0,0,0,0,1,0,0,0,0,0,1,722,
scooby_state_638ebd|49|1 713,0,0,0,0,0,0,0,0,1,0,6,0,0,0,720,
scooby_state_638ebd|61|2 294,0,3,0,0,1,0,1,0,1,0,416,0,1,0,717,
scooby_state_638ebd|24|10 713,3,0,0,0,0,0,0,0,0,0,0,0,1,0,717,
scooby_state_498683|14|3 1,24,0,0,0,0,0,0,0,0,0,690,0,0,1,716,
scooby_state_638eb0|59|1 713,1,0,0,1,0,0,0,0,0,0,0,0,0,0,715,
scooby_state_638ebd|54|1 585,5,3,0,1,0,1,1,0,0,0,108,5,1,2,712,
scooby_state_49c43e|27|3 1,682,0,26,1,1,0,0,1,0,0,0,0,0,0,712,
scooby_state_638ec0|63|2 690,1,0,1,0,0,8,0,0,0,0,0,10,0,0,710,
scooby_state_64d0cc|26|0 705,2,0,0,0,0,0,0,0,0,0,0,2,0,1,710,
scooby_state_638ec0|54|4 702,2,0,0,1,0,0,0,0,0,0,2,1,0,0,708,
scooby_state_638ec0|43|2 705,0,0,0,0,1,0,0,1,0,0,0,0,1,0,708,
scooby_state_638ec0|40|3 706,0,0,0,0,0,1,0,0,0,0,1,0,0,0,708,
scooby_state_638ebd|2|2 299,1,3,0,0,1,0,1,0,0,0,403,0,0,0,708,
scooby_state_64cce6|28|-1 621,20,38,0,0,1,1,0,2,0,1,0,18,0,6,708,
scooby_state_638ebd|12|2 154,4,2,5,4,4,7,6,4,4,1,492,9,3,9,708,
scooby_state_638ec0|48|-2 38,637,3,5,1,2,1,4,2,2,0,0,3,2,8,708,
scooby_state_638ebd|29|1 697,1,1,0,1,0,1,1,0,0,0,5,0,0,1,708,
scooby_state_638ec0|32|-1 668,1,16,1,2,1,3,1,1,2,2,1,2,1,5,707,
scooby_state_638ed1|0|-10 473,2,0,8,0,9,15,3,0,2,1,106,49,23,16,707,
scooby_state_638ebd|9|2 367,0,1,1,0,0,0,1,0,0,0,337,0,0,0,707,
scooby_state_638ebd|50|-13 634,1,1,13,2,6,6,1,3,5,4,0,5,16,10,707,
scooby_state_638ec0|36|-2 244,439,2,1,0,2,2,2,0,3,0,3,3,4,2,707,
scooby_state_638ed1|16|0 658,2,20,5,1,1,3,0,3,1,1,4,1,0,7,707,
scooby_state_638ebd|6|-3 313,0,353,27,1,1,0,1,1,1,1,3,2,1,2,707,
scooby_state_638ed1|19|-2 7,672,2,2,2,2,2,2,2,2,2,2,1,2,5,707,
scooby_state_638ebd|30|-2 522,93,1,2,1,2,3,4,2,2,1,59,3,6,6,707,
scooby_state_638ebd|46|-2 582,88,5,3,3,4,4,2,2,0,1,4,4,1,4,707,
scooby_state_638ebd|3|-1 695,1,1,1,1,1,0,1,1,0,0,0,0,2,3,707,
scooby_state_638ebd|22|9 481,6,5,6,5,8,8,2,4,4,4,149,7,7,11,707,
scooby_state_638ebd|62|2 247,0,4,1,0,1,0,0,1,0,1,452,0,0,0,707,
scooby_state_638ec0|38|-2 147,529,3,0,3,2,3,3,3,2,2,3,1,3,3,707,
scooby_state_638eb0|4|2 148,22,10,12,3,8,6,9,6,3,6,456,1,7,10,707,
scooby_state_638ed1|5|0 643,3,33,1,3,1,0,4,3,3,4,1,0,3,5,707,
scooby_state_638ec0|63|54 453,4,1,4,10,8,11,9,10,8,10,3,138,12,26,707,
scooby_state_638ec0|5|-34 415,104,130,2,0,1,2,1,0,0,2,30,2,17,1,707,
scooby_state_638ebd|51|2 284,0,3,0,1,1,0,3,1,1,0,413,0,0,0,707,
scooby_state_638ebd|29|-2 579,90,7,4,3,4,4,4,1,0,1,3,3,1,3,707,
scooby_state_638ec0|22|-15 705,1,0,0,0,0,0,0,0,0,0,1,0,0,0,707,
scooby_state_638ebd|32|-2 665,36,0,1,0,0,0,0,1,1,0,2,0,0,1,707,
scooby_state_638ec0|28|2 706,0,0,0,1,0,0,0,0,0,0,0,0,0,0,707,
scooby_state_638ec0|60|-2 252,434,2,1,0,2,2,2,0,2,0,3,1,4,2,707,
scooby_state_638ec0|15|-1 701,1,0,0,0,0,0,0,1,0,1,0,2,0,1,707,
scooby_state_638ec0|18|4 674,14,1,0,9,0,1,0,1,0,0,7,0,0,0,707,
scooby_state_638ebd|51|27 86,0,2,0,0,0,0,0,0,0,0,618,0,1,0,707,
scooby_state_638ec0|44|-2 349,338,0,1,2,2,0,0,1,1,2,5,1,3,2,707,
scooby_state_638ebd|4|2 323,0,1,0,0,1,0,1,0,0,0,381,0,0,0,707,
scooby_state_638ebd|53|3 89,2,19,15,2,1,23,1,1,2,0,544,2,0,6,707,
scooby_state_638ec0|20|2 704,0,0,0,1,1,0,1,0,0,0,0,0,0,0,707,
scooby_state_638ebd|13|-2 579,91,7,3,3,4,4,3,1,1,1,3,3,1,3,707,
scooby_state_638ebd|3|-3 412,1,282,8,0,0,1,0,1,0,0,1,0,0,1,707,
scooby_state_638ebd|56|2 135,6,6,1,2,5,0,1,5,3,4,520,7,5,7,707,
scooby_state_638ec0|30|21 705,0,0,0,0,1,0,1,0,0,0,0,0,0,0,707,
scooby_state_638ec0|21|-15 707,0,0,0,0,0,0,0,0,0,0,0,0,0,0,707,
scooby_state_638ed1|0|-2 7,672,2,2,2,2,2,2,2,2,2,2,1,2,5,707,
scooby_state_638ec0|27|2 702,1,1,1,0,0,0,0,0,0,0,0,1,1,0,707,
scooby_state_638ec0|22|15 705,0,0,0,1,1,0,0,0,0,0,0,0,0,0,707,
scooby_state_638ebd|14|13 656,2,2,2,2,1,4,1,4,10,0,5,14,1,3,707,
scooby_state_638ec0|53|-2 263,424,2,2,0,1,2,2,0,1,0,3,1,4,2,707,
scooby_state_638ec0|33|8 692,12,1,0,0,0,0,0,0,1,0,0,0,0,1,707,
scooby_state_638ebd|8|2 248,0,2,2,0,1,0,0,1,0,1,450,0,2,0,707,
scooby_state_638ec0|19|-2 53,612,4,1,3,1,4,1,4,2,3,3,3,8,5,707,
scooby_state_638ebd|26|2 202,2,1,2,1,1,0,1,3,0,3,480,1,10,0,707,
scooby_state_638ebd|33|2 148,4,2,5,4,4,7,5,4,4,1,498,9,3,9,707,
scooby_state_64cc3a|29|4 324,2,1,366,2,1,2,1,2,1,2,1,0,0,2,707,
scooby_state_638ec0|55|-1 705,0,0,0,0,0,1,0,1,0,0,0,0,0,0,707,
scooby_state_638ec0|52|-1 668,1,17,1,1,1,2,1,1,2,2,1,2,1,6,707,
scooby_state_638ec0|61|2 702,0,0,1,0,0,0,1,0,0,0,1,2,0,0,707,
scooby_state_638eb0|60|2 280,34,23,7,6,2,6,5,5,2,6,315,0,3,13,707,
scooby_state_638ebd|11|2 236,2,0,2,3,0,1,0,0,3,2,454,0,1,3,707,
scooby_state_638ec0|27|-2 705,1,0,1,0,0,0,0,0,0,0,0,0,0,0,707,
scooby_state_638ec0|39|-14 433,17,1,1,15,62,0,0,0,0,0,97,81,0,0,707,
scooby_state_638ec0|36|-3 557,78,58,0,2,4,1,1,0,1,1,1,1,1,1,707,
scooby_state_638ec0|8|-2 258,431,2,1,0,2,2,2,0,1,0,3,0,3,2,707,
scooby_state_638ec0|43|-1 679,2,1,2,3,4,1,2,1,0,2,3,1,4,2,707,
scooby_state_638ec0|19|-11 340,3,1,1,1,3,296,3,4,2,2,1,44,3,3,707,
scooby_state_638ebd|42|2 355,0,1,0,0,0,0,1,0,0,0,350,0,0,0,707,
scooby_state_638ebd|3|2 314,0,0,0,1,1,1,0,0,1,0,387,0,0,2,707,
scooby_state_638ec0|19|3 341,46,13,20,11,31,17,17,21,68,15,12,22,29,44,707,
scooby_state_638ebd|26|3 591,0,0,0,1,0,1,0,0,0,0,114,0,0,0,707,
scooby_state_638ec0|33|-16 706,0,0,0,0,0,0,0,0,0,0,1,0,0,0,707,
scooby_state_638ebd|35|-28 707,0,0,0,0,0,0,0,0,0,0,0,0,0,0,707,
scooby_state_638ec0|49|2 703,1,0,0,0,0,0,0,2,1,0,0,0,0,0,707,
[...]
scooby_state_7b1cef|41|-11 0,0,0,0,0,0,0,0,0,0,0,0,1,0,0,1,
scooby_state_54ab0e|44|-1 0,0,0,0,0,0,0,0,0,0,0,0,0,0,1,1,
scooby_state_5dc97f|49|3 0,0,0,0,0,0,0,0,0,0,0,0,1,0,0,1,
scooby_state_678c35|6|-6 1,0,0,0,0,0,0,0,0,0,0,0,0,0,0,1,
scooby_state_64e196|4|-12 0,0,1,0,0,0,0,0,0,0,0,0,0,0,0,1,
scooby_state_488580|22|1 0,0,0,0,0,0,0,0,0,0,0,1,0,0,0,1,
scooby_state_7b1c9b|16|5 0,0,0,1,0,0,0,0,0,0,0,0,0,0,0,1,
scooby_state_7b3590|14|-15 1,0,0,0,0,0,0,0,0,0,0,0,0,0,0,1,
scooby_state_7b1c9b|29|10 1,0,0,0,0,0,0,0,0,0,0,0,0,0,0,1,
scooby_state_678c35|50|-6 1,0,0,0,0,0,0,0,0,0,0,0,0,0,0,1,
scooby_state_639151|63|10 0,0,0,0,0,0,0,0,0,0,0,0,1,0,0,1,
scooby_state_639036|62|42 0,0,0,0,0,0,0,1,0,0,0,0,0,0,0,1,
scooby_state_7b1c0d|56|0 0,0,0,0,0,0,0,0,0,0,0,0,1,0,0,1,
scooby_state_638ebd|30|9 1,0,0,0,0,0,0,0,0,0,0,0,0,0,0,1,
scooby_state_4983eb|53|18 1,0,0,0,0,0,0,0,0,0,0,0,0,0,0,1,
scooby_state_63869e|49|0 1,0,0,0,0,0,0,0,0,0,0,0,0,0,0,1,
scooby_state_64d13a|24|-9 0,0,0,0,0,0,0,0,0,0,0,1,0,0,0,1,
scooby_state_64d13a|26|-13 1,0,0,0,0,0,0,0,0,0,0,0,0,0,0,1,
scooby_state_7b1c0d|58|32 0,0,0,1,0,0,0,0,0,0,0,0,0,0,0,1,
scooby_state_638f25|23|-11 0,0,0,1,0,0,0,0,0,0,0,0,0,0,0,1,
scooby_state_64d0cc|41|-19 0,0,0,0,0,0,0,0,0,0,0,1,0,0,0,1,
scooby_state_7b1c0d|34|15 0,0,0,1,0,0,0,0,0,0,0,0,0,0,0,1,
scooby_state_639036|40|8 0,0,0,0,0,0,0,0,0,0,0,1,0,0,0,1,
scooby_state_64e196|29|17 1,0,0,0,0,0,0,0,0,0,0,0,0,0,0,1,
scooby_state_7b3178|15|-14 1,0,0,0,0,0,0,0,0,0,0,0,0,0,0,1,
scooby_state_7b3776|41|1 0,0,0,0,0,0,0,0,0,0,0,0,1,0,0,1,
scooby_state_7b3590|20|4 1,0,0,0,0,0,0,0,0,0,0,0,0,0,0,1,
scooby_state_678bf0|47|0 1,0,0,0,0,0,0,0,0,0,0,0,0,0,0,1,
scooby_state_64e196|17|5 1,0,0,0,0,0,0,0,0,0,0,0,0,0,0,1,
scooby_state_7b5749|13|-22 0,0,0,1,0,0,0,0,0,0,0,0,0,0,0,1,
scooby_state_7b1c0d|60|27 0,1,0,0,0,0,0,0,0,0,0,0,0,0,0,1,
scooby_state_7b3296|30|19 1,0,0,0,0,0,0,0,0,0,0,0,0,0,0,1,
scooby_state_678c35|25|-6 1,0,0,0,0,0,0,0,0,0,0,0,0,0,0,1,
scooby_state_7b1c0d|47|10 0,0,0,0,0,0,0,0,0,0,0,1,0,0,0,1,
scooby_state_4983eb|48|0 1,0,0,0,0,0,0,0,0,0,0,0,0,0,0,1,
scooby_state_638c26|33|-3 1,0,0,0,0,0,0,0,0,0,0,0,0,0,0,1,
scooby_state_4a8c6f|45|17 1,0,0,0,0,0,0,0,0,0,0,0,0,0,0,1,
scooby_state_5a1fe0|63|47 1,0,0,0,0,0,0,0,0,0,0,0,0,0,0,1,
scooby_state_5dc97f|33|3 0,1,0,0,0,0,0,0,0,0,0,0,0,0,0,1,
scooby_state_678c35|60|10 0,0,0,0,0,0,0,0,0,0,0,1,0,0,0,1,
scooby_state_7b1c0d|47|4 0,0,0,0,0,0,0,0,0,0,0,0,0,0,1,1,
scooby_state_7b1c0d|40|8 1,0,0,0,0,0,0,0,0,0,0,0,0,0,0,1,
scooby_state_678c35|40|6 1,0,0,0,0,0,0,0,0,0,0,0,0,0,0,1,
scooby_state_7b5749|58|-5 0,0,0,1,0,0,0,0,0,0,0,0,0,0,0,1,
scooby_state_64e196|37|-16 0,1,0,0,0,0,0,0,0,0,0,0,0,0,0,1,
scooby_state_406bd7|25|0 0,0,1,0,0,0,0,0,0,0,0,0,0,0,0,1,
scooby_state_638d64|48|1 0,0,0,0,0,0,0,0,0,0,0,1,0,0,0,1,
scooby_state_64d13a|27|10 1,0,0,0,0,0,0,0,0,0,0,0,0,0,0,1,
scooby_state_7b1c0d|43|36 1,0,0,0,0,0,0,0,0,0,0,0,0,0,0,1,
scooby_state_64a774|49|22 0,0,0,0,0,0,0,0,0,0,0,0,1,0,0,1,
scooby_state_7b1c0d|54|38 0,0,0,0,0,0,0,0,0,0,0,0,0,1,0,1,
scooby_state_649e7e|4|4 0,0,0,0,1,0,0,0,0,0,0,0,0,0,0,1,
scooby_state_63a302|12|0 0,0,0,0,0,0,0,0,0,0,0,1,0,0,0,1,
scooby_state_64d13a|13|-10 1,0,0,0,0,0,0,0,0,0,0,0,0,0,0,1,
scooby_state_7b3178|11|-4 1,0,0,0,0,0,0,0,0,0,0,0,0,0,0,1,
scooby_state_48fb01|44|-18 0,0,0,0,0,0,0,0,0,0,0,0,0,1,0,1,
scooby_state_64d13a|57|1 1,0,0,0,0,0,0,0,0,0,0,0,0,0,0,1,
scooby_state_64a774|39|1 0,0,0,1,0,0,0,0,0,0,0,0,0,0,0,1,
scooby_state_64d13a|33|-2 0,0,0,0,0,0,0,0,0,0,0,0,0,1,0,1,
scooby_state_7b36a1|42|18 0,0,0,0,0,1,0,0,0,0,0,0,0,0,0,1,
scooby_state_406cd0|10|3 1,0,0,0,0,0,0,0,0,0,0,0,0,0,0,1,
scooby_state_638777|6|-9 1,0,0,0,0,0,0,0,0,0,0,0,0,0,0,1,
scooby_state_64cc6c|18|-22 1,0,0,0,0,0,0,0,0,0,0,0,0,0,0,1,
scooby_state_4a7694|49|1 0,0,0,0,0,0,0,0,0,0,0,0,1,0,0,1,
scooby_state_406bb0|25|4 1,0,0,0,0,0,0,0,0,0,0,0,0,0,0,1,
scooby_state_674d70|53|35 1,0,0,0,0,0,0,0,0,0,0,0,0,0,0,1,
scooby_state_64d13a|25|9 1,0,0,0,0,0,0,0,0,0,0,0,0,0,0,1,
scooby_state_5dc97f|46|10 0,0,0,0,0,0,0,0,0,0,0,1,0,0,0,1,
scooby_state_64cf10|16|1 0,0,0,0,0,0,0,0,0,0,0,1,0,0,0,1,
scooby_state_4e15f4|32|2 0,0,0,0,0,0,0,0,0,0,0,1,0,0,0,1,
scooby_state_678c35|55|-6 1,0,0,0,0,0,0,0,0,0,0,0,0,0,0,1,
scooby_state_7b1c9b|49|13 1,0,0,0,0,0,0,0,0,0,0,0,0,0,0,1,
scooby_state_649ec6|14|11 1,0,0,0,0,0,0,0,0,0,0,0,0,0,0,1,
scooby_state_7b322f|22|-9 0,0,0,0,0,0,0,0,0,0,0,1,0,0,0,1,
scooby_state_638a31|12|7 1,0,0,0,0,0,0,0,0,0,0,0,0,0,0,1,
scooby_state_638777|38|-12 1,0,0,0,0,0,0,0,0,0,0,0,0,0,0,1,
scooby_state_4a76a1|25|0 1,0,0,0,0,0,0,0,0,0,0,0,0,0,0,1,
scooby_state_5dfb83|13|0 0,0,0,0,0,0,0,0,0,0,0,0,1,0,0,1,
scooby_state_64e196|39|-12 0,0,1,0,0,0,0,0,0,0,0,0,0,0,0,1,
scooby_state_406bb0|28|-9 1,0,0,0,0,0,0,0,0,0,0,0,0,0,0,1,
scooby_state_64cea0|17|0 0,0,0,0,0,0,0,0,0,0,0,0,1,0,0,1,
scooby_state_64d13a|53|-7 0,0,0,0,0,0,0,0,0,0,0,1,0,0,0,1,
scooby_state_415976|37|-15 0,0,1,0,0,0,0,0,0,0,0,0,0,0,0,1,
scooby_state_649e7e|60|14 0,0,0,0,0,0,0,0,0,0,0,1,0,0,0,1,
scooby_state_63869e|56|2 1,0,0,0,0,0,0,0,0,0,0,0,0,0,0,1,
scooby_state_64cf0d|33|-1 1,0,0,0,0,0,0,0,0,0,0,0,0,0,0,1,
scooby_state_7b1ca7|51|37 0,0,0,0,0,0,0,0,0,1,0,0,0,0,0,1,
scooby_state_64e196|48|-10 0,0,0,0,1,0,0,0,0,0,0,0,0,0,0,1,
scooby_state_7b2fc7|48|0 0,0,0,0,0,0,0,0,0,0,0,1,0,0,0,1,
scooby_state_638773|18|6 1,0,0,0,0,0,0,0,0,0,0,0,0,0,0,1,
scooby_state_638a31|51|7 1,0,0,0,0,0,0,0,0,0,0,0,0,0,0,1,
scooby_state_678c35|30|-10 0,0,0,0,0,0,1,0,0,0,0,0,0,0,0,1,
scooby_state_638773|0|-4 1,0,0,0,0,0,0,0,0,0,0,0,0,0,0,1,
scooby_state_64d0cc|40|-4 0,0,0,0,0,0,0,0,0,0,0,0,0,1,0,1,
scooby_state_7b5749|7|-17 1,0,0,0,0,0,0,0,0,0,0,0,0,0,0,1,
scooby_state_5dc97f|32|4 0,1,0,0,0,0,0,0,0,0,0,0,0,0,0,1,
scooby_state_7b14c5|12|1 1,0,0,0,0,0,0,0,0,0,0,0,0,0,0,1,
scooby_state_7b1c9b|33|12 0,0,0,0,0,0,0,0,0,0,0,0,0,0,1,1,
scooby_state_7b1c9b|37|8 1,0,0,0,0,0,0,0,0,0,0,0,0,0,0,1,
scooby_state_7b3609|25|8 1,0,0,0,0,0,0,0,0,0,0,0,0,0,0,1,
scooby_state_5dc97f|52|-1 0,0,0,0,0,0,0,0,0,0,0,1,0,0,0,1,
scooby_state_638f87|10|0 0,0,0,0,0,0,0,0,0,1,0,0,0,0,0,1,
scooby_state_406c20|56|0 0,0,0,0,0,1,0,0,0,0,0,0,0,0,0,1,
scooby_state_7b17d2|45|1 0,0,0,0,0,0,0,0,0,0,0,1,0,0,0,1,
scooby_state_7b1cef|52|0 1,0,0,0,0,0,0,0,0,0,0,0,0,0,0,1,
scooby_state_488505|20|18 0,0,0,0,0,0,0,0,0,0,0,0,1,0,0,1,
scooby_state_45ba05|40|0 1,0,0,0,0,0,0,0,0,0,0,0,0,0,0,1,
scooby_state_638773|59|-2 1,0,0,0,0,0,0,0,0,0,0,0,0,0,0,1,
scooby_state_5ea781|30|29 1,0,0,0,0,0,0,0,0,0,0,0,0,0,0,1,
scooby_state_678c35|15|-10 0,0,0,0,0,1,0,0,0,0,0,0,0,0,0,1,
scooby_state_64e196|2|-12 0,0,1,0,0,0,0,0,0,0,0,0,0,0,0,1,
scooby_state_7b1c9b|14|5 0,0,0,0,0,0,1,0,0,0,0,0,0,0,0,1,
scooby_state_64cec1|16|0 0,0,1,0,0,0,0,0,0,0,0,0,0,0,0,1,
scooby_state_638ebd|23|14 1,0,0,0,0,0,0,0,0,0,0,0,0,0,0,1,
scooby_state_638c26|4|-6 0,0,0,0,0,1,0,0,0,0,0,0,0,0,0,1,
scooby_state_45c850|33|3 0,0,0,0,0,0,0,0,0,0,0,0,1,0,0,1,
scooby_state_638eb0|43|0 0,0,0,0,0,0,0,0,0,0,0,1,0,0,0,1,
scooby_state_64d0c9|53|-6 1,0,0,0,0,0,0,0,0,0,0,0,0,0,0,1,
scooby_state_7b1c0d|36|12 1,0,0,0,0,0,0,0,0,0,0,0,0,0,0,1,
scooby_state_649ab1|58|1 0,0,0,0,0,0,0,0,0,0,1,0,0,0,0,1,
scooby_state_7b1c9b|39|20 0,0,0,0,0,0,0,0,0,0,0,1,0,0,0,1,
scooby_state_638f1d|17|7 0,0,0,0,0,0,0,0,0,0,0,0,1,0,0,1,
scooby_state_548600|53|25 1,0,0,0,0,0,0,0,0,0,0,0,0,0,0,1,
scooby_state_64e196|42|-11 1,0,0,0,0,0,0,0,0,0,0,0,0,0,0,1,
scooby_state_7b423c|4|1 0,1,0,0,0,0,0,0,0,0,0,0,0,0,0,1,
scooby_state_63869e|16|4 1,0,0,0,0,0,0,0,0,0,0,0,0,0,0,1,
scooby_state_678c35|19|-2 0,0,0,0,0,0,0,0,0,0,0,0,0,0,1,1,
scooby_state_64ceb0|30|-18 0,0,0,0,0,0,0,0,0,0,0,1,0,0,0,1,
scooby_state_678c35|54|-5 0,0,0,1,0,0,0,0,0,0,0,0,0,0,0,1,
scooby_state_645860|33|-20 0,0,0,0,0,0,0,0,0,0,0,0,0,1,0,1,
scooby_state_638760|7|7 0,0,1,0,0,0,0,0,0,0,0,0,0,0,0,1,
scooby_state_638773|21|2 1,0,0,0,0,0,0,0,0,0,0,0,0,0,0,1,
scooby_state_406bd7|34|31 0,0,0,0,0,0,0,0,0,0,0,0,0,0,1,1,
scooby_state_63869e|58|5 1,0,0,0,0,0,0,0,0,0,0,0,0,0,0,1,
scooby_state_5dc97f|20|10 0,1,0,0,0,0,0,0,0,0,0,0,0,0,0,1,
scooby_state_64d13a|23|-5 0,0,0,0,0,0,0,1,0,0,0,0,0,0,0,1,
scooby_state_7b1c0d|28|4 0,0,0,0,0,0,0,0,0,0,0,0,1,0,0,1,
scooby_state_64d141|61|0 0,0,0,0,0,0,0,0,0,1,0,0,0,0,0,1,
scooby_state_64cf06|18|5 0,0,0,0,0,0,0,0,0,0,0,1,0,0,0,1,
scooby_state_7b5749|1|-54 0,0,0,0,0,0,0,0,0,0,0,0,1,0,0,1,
scooby_state_5f7f00|60|1 0,0,0,1,0,0,0,0,0,0,0,0,0,0,0,1,
scooby_state_7b1cef|41|-22 0,0,0,0,0,0,0,0,0,0,0,1,0,0,0,1,
scooby_state_64d13a|43|-8 0,0,0,0,0,0,0,0,0,0,0,0,0,1,0,1,
scooby_state_7b1c0d|34|-9 0,0,0,0,0,0,0,0,0,0,0,0,0,1,0,1,
scooby_state_406bb0|52|2 1,0,0,0,0,0,0,0,0,0,0,0,0,0,0,1,
scooby_state_638760|53|-9 0,1,0,0,0,0,0,0,0,0,0,0,0,0,0,1,
scooby_state_495172|1|-10 1,0,0,0,0,0,0,0,0,0,0,0,0,0,0,1,
scooby_state_678c35|50|1 0,0,0,0,0,0,0,0,0,0,0,1,0,0,0,1,
scooby_state_639151|39|11 0,0,0,0,0,0,0,0,0,1,0,0,0,0,0,1,
scooby_state_7b14b3|19|-1 0,0,0,0,0,0,0,0,0,0,0,0,0,1,0,1,
scooby_state_678c35|56|2 1,0,0,0,0,0,0,0,0,0,0,0,0,0,0,1,
scooby_state_7b2f80|62|0 1,0,0,0,0,0,0,0,0,0,0,0,0,0,0,1,
scooby_state_638f1d|63|6 1,0,0,0,0,0,0,0,0,0,0,0,0,0,0,1,
scooby_state_45b7a0|25|1 1,0,0,0,0,0,0,0,0,0,0,0,0,0,0,1,
scooby_state_5dc813|21|-1 1,0,0,0,0,0,0,0,0,0,0,0,0,0,0,1,
scooby_state_7b1c0d|32|26 1,0,0,0,0,0,0,0,0,0,0,0,0,0,0,1,
scooby_state_5e33ec|23|1 1,0,0,0,0,0,0,0,0,0,0,0,0,0,0,1,
scooby_state_5f7bf0|47|3 0,0,0,0,0,0,0,0,0,0,0,1,0,0,0,1,
scooby_state_7b3604|24|1 1,0,0,0,0,0,0,0,0,0,0,0,0,0,0,1,
scooby_state_64d13a|32|-4 0,0,0,0,0,0,0,0,0,0,0,0,1,0,0,1,
scooby_state_678c15|40|-9 1,0,0,0,0,0,0,0,0,0,0,0,0,0,0,1,
scooby_state_548fee|25|-18 1,0,0,0,0,0,0,0,0,0,0,0,0,0,0,1,
scooby_state_4990f0|3|-27 0,0,0,0,0,0,0,0,0,0,0,1,0,0,0,1,
scooby_state_45c880|34|1 0,0,0,0,0,0,0,0,0,0,0,0,1,0,0,1,
scooby_state_6390dc|27|-6 0,1,0,0,0,0,0,0,0,0,0,0,0,0,0,1,
scooby_state_678c15|34|-2 1,0,0,0,0,0,0,0,0,0,0,0,0,0,0,1,
scooby_state_7b1c9b|30|2 1,0,0,0,0,0,0,0,0,0,0,0,0,0,0,1,
scooby_state_638c26|40|-2 1,0,0,0,0,0,0,0,0,0,0,0,0,0,0,1,
scooby_state_5dc97f|24|11 1,0,0,0,0,0,0,0,0,0,0,0,0,0,0,1,
scooby_state_638760|55|8 1,0,0,0,0,0,0,0,0,0,0,0,0,0,0,1,
scooby_state_548fc9|28|0 0,0,1,0,0,0,0,0,0,0,0,0,0,0,0,1,
scooby_state_7b14a3|18|0 0,0,0,0,0,0,0,0,0,0,0,1,0,0,0,1,
scooby_state_638f25|32|-8 1,0,0,0,0,0,0,0,0,0,0,0,0,0,0,1,
scooby_state_406bf5|9|7 0,0,0,0,0,1,0,0,0,0,0,0,0,0,0,1,
scooby_state_64d13a|20|-3 1,0,0,0,0,0,0,0,0,0,0,0,0,0,0,1,
scooby_state_7b5749|10|-9 1,0,0,0,0,0,0,0,0,0,0,0,0,0,0,1,
scooby_state_7b5749|3|-57 0,0,0,0,0,0,0,0,0,0,0,0,0,0,1,1,
scooby_state_618c34|28|-3 0,0,0,1,0,0,0,0,0,0,0,0,0,0,0,1,
scooby_state_7b1ca7|63|13 0,0,0,0,0,0,0,0,0,0,0,0,0,0,1,1,
scooby_state_7b1ca7|55|44 1,0,0,0,0,0,0,0,0,0,0,0,0,0,0,1,
scooby_state_7b1c0d|31|26 1,0,0,0,0,0,0,0,0,0,0,0,0,0,0,1,
scooby_state_649e7e|62|3 0,0,0,0,0,0,0,0,1,0,0,0,0,0,0,1,
scooby_state_649e7e|32|3 0,0,0,0,0,0,0,1,0,0,0,0,0,0,0,1,
scooby_state_638ec0|10|-32 1,0,0,0,0,0,0,0,0,0,0,0,0,0,0,1,
scooby_state_678c35|59|25 0,0,0,1,0,0,0,0,0,0,0,0,0,0,0,1,
scooby_state_5dc97f|28|10 0,0,0,0,0,0,0,0,0,0,0,1,0,0,0,1,
scooby_state_5e62d8|52|1 0,0,0,0,0,0,0,0,0,0,0,0,0,1,0,1,
scooby_state_638ebd|40|22 0,0,0,0,0,1,0,0,0,0,0,0,0,0,0,1,
scooby_state_5dc97f|61|9 0,0,0,0,0,0,1,0,0,0,0,0,0,0,0,1,
scooby_state_54a230|8|0 1,0,0,0,0,0,0,0,0,0,0,0,0,0,0,1,
scooby_state_7b149b|11|-3 1,0,0,0,0,0,0,0,0,0,0,0,0,0,0,1,
scooby_state_638f87|29|1 0,0,0,0,0,0,0,0,0,0,0,1,0,0,0,1,
scooby_state_638850|33|3 1,0,0,0,0,0,0,0,0,0,0,0,0,0,0,1,
scooby_state_7b5749|26|-10 0,0,0,0,0,0,0,0,0,0,0,0,1,0,0,1,
scooby_state_7b1c0d|45|15 0,0,0,1,0,0,0,0,0,0,0,0,0,0,0,1,
scooby_state_54ab0e|7|-1 0,0,0,0,0,1,0,0,0,0,0,0,0,0,0,1,
scooby_state_678c15|24|-2 1,0,0,0,0,0,0,0,0,0,0,0,0,0,0,1,
scooby_state_7b3483|18|1 0,0,0,0,0,0,0,0,0,0,0,0,1,0,0,1,
scooby_state_64cc6c|61|8 1,0,0,0,0,0,0,0,0,0,0,0,0,0,0,1,
scooby_state_5dc813|53|-4 0,0,0,0,0,0,0,0,0,0,0,0,0,0,1,1,
scooby_state_638792|28|11 0,0,0,0,0,0,0,0,0,0,0,1,0,0,0,1,
scooby_state_638d64|9|1 1,0,0,0,0,0,0,0,0,0,0,0,0,0,0,1,
scooby_state_7b14b3|8|-1 0,1,0,0,0,0,0,0,0,0,0,0,0,0,0,1,
scooby_state_638a34|47|47 1,0,0,0,0,0,0,0,0,0,0,0,0,0,0,1,
scooby_state_4a7694|33|1 0,0,0,0,0,0,0,0,0,0,0,0,1,0,0,1,
scooby_state_639036|10|6 0,0,0,0,0,0,0,0,1,0,0,0,0,0,0,1,
scooby_state_498ff0|1|-4 1,0,0,0,0,0,0,0,0,0,0,0,0,0,0,1,
scooby_state_7b1c0d|35|31 0,0,0,0,0,0,0,0,0,0,0,0,0,1,0,1,
scooby_state_678c15|9|1 1,0,0,0,0,0,0,0,0,0,0,0,0,0,0,1,
scooby_state_64d0cc|51|-6 0,1,0,0,0,0,0,0,0,0,0,0,0,0,0,1,
scooby_state_7b304a|62|0 0,1,0,0,0,0,0,0,0,0,0,0,0,0,0,1,
scooby_state_7b1cd5|23|-23 0,0,0,0,0,0,0,0,0,0,1,0,0,0,0,1,
scooby_state_64a75f|45|-1 1,0,0,0,0,0,0,0,0,0,0,0,0,0,0,1,
scooby_state_7b1c9b|16|2 0,1,0,0,0,0,0,0,0,0,0,0,0,0,0,1,
scooby_state_5dc813|52|6 1,0,0,0,0,0,0,0,0,0,0,0,0,0,0,1,

scooby_action_0_deg_dist 0,11361,0,0,0,0,0,0,0,0,0,0,0,0,0,0,
scooby_action_-6_deg_dist 0,18059,279,0,12,0,6,0,0,0,0,0,0,0,0,0,
scooby_action_4_deg_dist 0,38313,923,0,1254,0,808,0,0,0,0,0,0,0,0,0,
scooby_action_1_deg_dist 0,2576082,136544,0,84633,0,185800,0,0,0,0,0,0,0,0,0,
scooby_action_30_deg_dist 0,8011,3,0,5,0,15,0,0,0,0,0,0,0,0,0,
scooby_action_3_deg_dist 0,34631,235,0,0,0,0,0,0,0,0,0,0,0,0,0,
scooby_action_32_deg_dist 0,5422,2,0,5,0,5,0,0,0,0,0,0,0,0,0,
scooby_action_5_deg_dist 0,22894,48,0,5,0,39,0,0,0,0,0,0,0,0,0,
scooby_action_10_deg_dist 0,8386,1,0,0,0,0,0,0,0,0,0,0,0,0,0,
scooby_action_11_deg_dist 0,24472,866,0,1146,0,776,0,0,0,0,0,0,0,0,0,
scooby_action_12_deg_dist 0,10954,0,0,0,0,0,0,0,0,0,0,0,0,0,0,
scooby_action_23_deg_dist 0,5279,0,0,0,0,0,0,0,0,0,0,0,0,0,0,
scooby_action_-1_deg_dist 0,100020,414,0,32,0,23,0,0,0,0,0,0,0,0,0,
scooby_action_22_deg_dist 0,5622,1,0,0,0,0,0,0,0,0,0,0,0,0,0,
scooby_action_-3_deg_dist 0,20972,501,0,969,0,335,0,0,0,0,0,0,0,0,0,

scooby_track_called 3306163
scooby_track_same_address 312425
scooby_track_evict 2993482

scooby_reward_demand_called 3306163
scooby_reward_demand_pt_not_found 2098119
scooby_reward_demand_pt_found 1208044
scooby_reward_demand_pt_found_total 1208044
scooby_reward_demand_has_reward 56813
scooby_reward_train_called 1780819
scooby_reward_assign_reward_called 2993597
scooby_reward_no_pref 11357
scooby_reward_incorrect 1769462
scooby_reward_correct_untimely 858574
scooby_reward_correct_timely 292657
scooby_reward_out_of_bounds 61547
scooby_reward_tracker_hit 0

scooby_reward_none_low_bw 11357
scooby_reward_none_high_bw 0
scooby_reward_incorrect_low_bw 1769462
scooby_reward_incorrect_high_bw 0
scooby_reward_correct_untimely_low_bw 858574
scooby_reward_correct_untimely_high_bw 0
scooby_reward_correct_timely_low_bw 292657
scooby_reward_correct_timely_high_bw 0
scooby_reward_out_of_bounds_low_bw 61547
scooby_reward_out_of_bounds_high_bw 0
scooby_reward_tracker_hit_low_bw 0
scooby_reward_tracker_hit_high_bw 0

scooby_reward_1 0,1635696,820179,270970,46618,0,
scooby_reward_3 0,12753,1961,2076,495,0,
scooby_reward_4 0,18244,9033,3231,752,0,
scooby_reward_5 0,9904,2476,1325,502,0,
scooby_reward_10 0,4750,373,148,694,0,
scooby_reward_11 0,12803,5496,2206,1937,0,
scooby_reward_12 0,6044,753,763,1023,0,
scooby_reward_22 0,3077,15,14,1378,0,
scooby_reward_23 0,2946,10,17,1508,0,
scooby_reward_30 0,3194,726,310,2598,0,
scooby_reward_32 0,2527,94,43,2110,0,
scooby_reward_-1 0,38326,13135,7985,388,0,
scooby_reward_-3 0,10869,2256,2964,863,0,
scooby_reward_-6 0,8329,2067,605,681,0,
scooby_reward_0 11357,0,0,0,0,0,

scooby_train_called 2993481
scooby_train_compute_reward 1780819

scooby_register_fill_called 1363653
scooby_register_fill_set 1201364
scooby_register_fill_set_total 1201364

scooby_register_prefetch_hit_called 2008015
scooby_register_prefetch_hit_set 1411291
scooby_register_prefetch_hit_set_total 1411291

scooby_pref_issue_scooby 4125224

learning_engine_featurewise.action.called 3306163
learning_engine_featurewise.action.explore 5993
learning_engine_featurewise.action.exploit 3300170
learning_engine_featurewise.action.fallback 917352
learning_engine_featurewise.action.dyn_fallback_saved_bw 0
learning_engine_featurewise.action.dyn_fallback_saved_bw_acc 21765
learning_engine_featurewise.action.index_1_explored 399
learning_engine_featurewise.action.index_1_exploited 2982660
learning_engine_featurewise.action.index_3_explored 421
learning_engine_featurewise.action.index_3_exploited 34445
learning_engine_featurewise.action.index_4_explored 403
learning_engine_featurewise.action.index_4_exploited 40895
learning_engine_featurewise.action.index_5_explored 368
learning_engine_featurewise.action.index_5_exploited 22618
learning_engine_featurewise.action.index_10_explored 444
learning_engine_featurewise.action.index_10_exploited 7943
learning_engine_featurewise.action.index_11_explored 419
learning_engine_featurewise.action.index_11_exploited 26841
learning_engine_featurewise.action.index_12_explored 403
learning_engine_featurewise.action.index_12_exploited 10551
learning_engine_featurewise.action.index_22_explored 401
learning_engine_featurewise.action.index_22_exploited 5222
learning_engine_featurewise.action.index_23_explored 408
learning_engine_featurewise.action.index_23_exploited 4871
learning_engine_featurewise.action.index_30_explored 393
learning_engine_featurewise.action.index_30_exploited 7641
learning_engine_featurewise.action.index_32_explored 366
learning_engine_featurewise.action.index_32_exploited 5068
learning_engine_featurewise.action.index_-1_explored 403
learning_engine_featurewise.action.index_-1_exploited 100086
learning_engine_featurewise.action.index_-3_explored 390
learning_engine_featurewise.action.index_-3_exploited 22387
learning_engine_featurewise.action.index_-6_explored 374
learning_engine_featurewise.action.index_-6_exploited 17982
learning_engine_featurewise.action.index_0_explored 401
learning_engine_featurewise.action.index_0_exploited 10960
learning_engine_featurewise.learn.called 2993481
learning_engine_featurewise.learn.su_skip_PC 0
learning_engine_featurewise.learn.su_skip_PC_Delta 0

learning_engine_featurewise.q_value_histogram.bucket_0 219
learning_engine_featurewise.q_value_histogram.bucket_1 408
learning_engine_featurewise.q_value_histogram.bucket_2 1383813
learning_engine_featurewise.q_value_histogram.bucket_3 565034
learning_engine_featurewise.q_value_histogram.bucket_4 701388
learning_engine_featurewise.q_value_histogram.bucket_5 272903
learning_engine_featurewise.q_value_histogram.bucket_6 376405
learning_engine_featurewise.q_value_histogram.bucket_7 0

learning_engine_featurewise.consensus.total 3300170
learning_engine_featurewise.consensus.feature_align_PC 3080089
learning_engine_featurewise.consensus.feature_align_PC_ratio 0.93
learning_engine_featurewise.consensus.feature_align_PC_Delta 3034100
learning_engine_featurewise.consensus.feature_align_PC_Delta_ratio 0.92
learning_engine_featurewise.consensus.feature_align_all 2814639
learning_engine_featurewise.consensus.feature_align_all_ratio 0.85

learning_engine_featurewise.feature_PC_min_weight 1000000.00000000
learning_engine_featurewise.feature_PC_max_weight 0.00000000
learning_engine_featurewise.feature_PC_Delta_min_weight 1000000.00000000
learning_engine_featurewise.feature_PC_Delta_max_weight 0.00000000
unique_pcs 2057
unique_pages 3842
unique_trigger_pcs 914
total_bitmaps_seen 0
unique_bitmaps_seen 0

scooby_bw_epochs 593717
scooby_bw_level_0 583365
scooby_bw_level_1 4256
scooby_bw_level_2 1804
scooby_bw_level_3 4292

scooby_ipc_epochs 0
scooby_ipc_level_0 0
scooby_ipc_level_1 0
scooby_ipc_level_2 0
scooby_ipc_level_3 0

scooby_cache_acc_epochs 141116
scooby_cache_acc_level_0 66245
scooby_cache_acc_level_1 21234
scooby_cache_acc_level_2 19131
scooby_cache_acc_level_3 14006
scooby_cache_acc_level_4 10269
scooby_cache_acc_level_5 4757
scooby_cache_acc_level_6 1470
scooby_cache_acc_level_7 1043
scooby_cache_acc_level_8 838
scooby_cache_acc_level_9 2123

Channel_0_RQ_row_buffer_hit 57406
Channel_0_RQ_row_buffer_miss 53744
Channel_0_WQ_row_buffer_hit 14933
Channel_0_WQ_row_buffer_miss 56518
Channel_0_WQ_full 0
Channel_0_dbus_congested 107780

avg_congested_cycle 11

DRAM_bw_pochs 593717
DRAM_bw_level_0 583365
DRAM_bw_level_1 4256
DRAM_bw_level_2 1804
DRAM_bw_level_3 4292
