*************************************************
   ChampSim Multicore Out-of-Order Simulator
   Last compiled: Apr  3 2025 20:54:34
*************************************************
parsing config file: /home/zir/Pythia/config/pythia.ini

trace_0 /home/zir/ChampSim/ML-DPC/ChampSimTraces/spec06/437.leslie3d-s0.trace.gz
adding L2C_PREFETCHER: Scooby
Initialize SHIP state
warmup_instructions 10000000
simulation_instructions 50000000
champsim_seed 163
measure_ipc 0
measure_ipc_epoch 1000
measure_dram_bw 1
measure_dram_bw_epoch 256
measure_cache_acc 1
measure_cache_acc_epoch 1024
l1d_perfect 0
l2c_perfect 0
llc_perfect 0
l1d_semi_perfect 0
l2c_semi_perfect 0
llc_semi_perfect 0
semi_perfect_cache_page_buffer_size 64

num_cpus 1
cpu_freq 4000
dram_io_freq 2400
page_size 4096
block_size 64
max_read_per_cycle 8
max_fill_per_cycle 1
dram_channels 1
log2_dram_channels 0
dram_ranks 1
dram_banks 8
dram_rows 65536
dram_columns 128
dram_row_size 8
dram_size 4096
dram_pages 1048576

fetch_width 6
decode_width 6
exec_width 4
lq_width 2
sq_width 2
retire_width 4
scheduler_size 128
branch_mispredict_penalty 20
rob_size 256
lq_size 72
sq_size 56
num_instr_destinations_sparc 4
num_instr_destinations 2
num_instr_sources 4

itlb_set 16
itlb_way 8
itlb_rq_size 16
itlb_wq_size 16
itlb_pq_size 0
itlb_mshr_size 8
itlb_latency 1

dtlb_set 16
dtlb_way 4
dtlb_rq_size 16
dtlb_wq_size 16
dtlb_pq_size 0
dtlb_mshr_size 8
dtlb_latency 1

stlb_set 128
stlb_way 12
stlb_rq_size 32
stlb_wq_size 32
stlb_pq_size 0
stlb_mshr_size 16
stlb_latency 8

l1i_size 32
l1i_set 64
l1i_way 8
l1i_rq_size 64
l1i_wq_size 64
l1i_pq_size 8
l1i_mshr_size 8
l1i_latency 1

l1d_size 32
l1d_set 64
l1d_way 8
l1d_rq_size 64
l1d_wq_size 64
l1d_pq_size 8
l1d_mshr_size 16
l1d_latency 4

l2c_size 256
l2c_set 512
l2c_way 8
l2c_rq_size 32
l2c_wq_size 32
l2c_pq_size 32
l2c_mshr_size 32
l2c_latency 10

llc_size 2048
llc_set 2048
llc_way 16
llc_rq_size 32
llc_wq_size 32
llc_pq_size 32
llc_mshr_size 64
llc_latency 20

dram_channel_width 8
dram_wq_size 64
dram_rq_size 64
tRP 15
tRCD 15
tCAS 12.5
dram_dbus_turn_around_time 30
dram_write_high_wm 56
dram_write_low_wm 48
min_dram_writes_per_switch 16
dram_mtps 2400
dram_dbus_return_time 13

scooby_alpha 0.0065088
scooby_gamma 0.556301
scooby_epsilon 0.00182284
scooby_state_num_bits 10
scooby_max_states 1024
scooby_seed 200
scooby_policy EGreedy
scooby_learning_type SARSA
scooby_actions 1,3,4,5,10,11,12,22,23,30,32,-1,-3,-6,0,
scooby_max_actions 15
scooby_pt_size 256
scooby_st_size 64
scooby_max_pcs 5
scooby_max_offsets 5
scooby_max_deltas 5
scooby_reward_none -4
scooby_reward_incorrect -8
scooby_reward_correct_untimely 12
scooby_reward_correct_timely 20
scooby_brain_zero_init 0
scooby_enable_reward_all 0
scooby_enable_track_multiple 0
scooby_enable_reward_out_of_bounds 1
scooby_reward_out_of_bounds -12
scooby_state_type 1
scooby_state_hash_type 11
scooby_access_debug 0
scooby_print_access_debug 0
scooby_print_access_debug_pc deadbeef
scooby_print_access_debug_pc_count 0
scooby_print_trace 0
scooby_enable_state_action_stats 1
scooby_enable_reward_tracker_hit 0
scooby_reward_tracker_hit -2
scooby_enable_featurewise_engine 1
scooby_pref_degree 1
scooby_enable_dyn_degree 1
scooby_max_to_avg_q_thresholds 0.5,1,2,
scooby_dyn_degrees 1,2,4,4,
scooby_multi_deg_select_type 2
scooby_last_pref_offset_conf_thresholds 1,3,8,
scooby_dyn_degrees_type2 1,2,4,6,
scooby_action_tracker_size 2
scooby_high_bw_thresh 4
scooby_enable_hbw_reward 1
scooby_reward_hbw_correct_timely 20
scooby_reward_hbw_correct_untimely 12
scooby_reward_hbw_incorrect -14
scooby_reward_hbw_none -2
scooby_reward_hbw_out_of_bounds -12
scooby_reward_hbw_tracker_hit -2
scooby_last_pref_offset_conf_thresholds_hbw 1,3,8,
scooby_dyn_degrees_type2_hbw 1,2,4,6,

le_enable_trace 0
le_trace_interval 0
le_trace_file_name 
le_trace_state 0
le_enable_score_plot 0
le_plot_file_name 
le_plot_actions 
le_enable_action_trace 0
le_action_trace_interval 0
le_action_trace_name 
le_enable_action_plot 0

le_featurewise_active_features PC, PC_Delta
le_featurewise_num_tilings 3,3,
le_featurewise_num_tiles 128,128,
le_featurewise_hash_types 2,2,
le_featurewise_enable_tiling_offset 1,1,
le_featurewise_max_q_thresh 0.5
le_featurewise_enable_action_fallback 1
le_featurewise_feature_weights 1,1,
le_featurewise_enable_dynamic_weight 0
le_featurewise_weight_gradient 0.001
le_featurewise_disable_adjust_weight_all_features_align 1
le_featurewise_selective_update 0
le_featurewise_pooling_type 2
le_featurewise_enable_dyn_action_fallback 1
le_featurewise_bw_acc_check_level 1
le_featurewise_acc_thresh 2
le_featurewise_enable_trace 0
le_featurewise_trace_feature_type 0
le_featurewise_trace_feature 
le_featurewise_trace_interval 0
le_featurewise_trace_record_count 0
le_featurewise_trace_file_name 
le_featurewise_enable_score_plot 0
le_featurewise_plot_actions 
le_featurewise_plot_file_name 


Heartbeat CPU  0 instructions:    1000002 cycles:     510024 heartbeat IPC: 1.96070 cumulative IPC: 1.96070 (Simulation time: 0 hr 0 min 2 sec) 
Heartbeat CPU  0 instructions:    2000002 cycles:    1018185 heartbeat IPC: 1.96788 cumulative IPC: 1.96428 (Simulation time: 0 hr 0 min 4 sec) 
Heartbeat CPU  0 instructions:    3000003 cycles:    1528187 heartbeat IPC: 1.96078 cumulative IPC: 1.96311 (Simulation time: 0 hr 0 min 6 sec) 
Heartbeat CPU  0 instructions:    4000000 cycles:    2036624 heartbeat IPC: 1.96681 cumulative IPC: 1.96403 (Simulation time: 0 hr 0 min 8 sec) 
Heartbeat CPU  0 instructions:    5000000 cycles:    2544872 heartbeat IPC: 1.96754 cumulative IPC: 1.96474 (Simulation time: 0 hr 0 min 10 sec) 
Heartbeat CPU  0 instructions:    6000003 cycles:    3052086 heartbeat IPC: 1.97156 cumulative IPC: 1.96587 (Simulation time: 0 hr 0 min 12 sec) 
Heartbeat CPU  0 instructions:    7000001 cycles:    3560457 heartbeat IPC: 1.96706 cumulative IPC: 1.96604 (Simulation time: 0 hr 0 min 14 sec) 
Heartbeat CPU  0 instructions:    8000000 cycles:    4068509 heartbeat IPC: 1.96830 cumulative IPC: 1.96632 (Simulation time: 0 hr 0 min 16 sec) 
Heartbeat CPU  0 instructions:    9000003 cycles:    4576325 heartbeat IPC: 1.96922 cumulative IPC: 1.96664 (Simulation time: 0 hr 0 min 18 sec) 
Heartbeat CPU  0 instructions:   10000000 cycles:    5083607 heartbeat IPC: 1.97128 cumulative IPC: 1.96711 (Simulation time: 0 hr 0 min 20 sec) 

Warmup complete CPU  0 instructions:   10000004 cycles:    5083608 (Simulation time: 0 hr 0 min 20 sec) 

Heartbeat CPU  0 instructions:   11000000 cycles:    5880489 heartbeat IPC: 1.25489 cumulative IPC: 1.25489 (Simulation time: 0 hr 0 min 22 sec) 
Heartbeat CPU  0 instructions:   12000000 cycles:    6678172 heartbeat IPC: 1.25363 cumulative IPC: 1.25426 (Simulation time: 0 hr 0 min 24 sec) 
Heartbeat CPU  0 instructions:   13000002 cycles:    7459019 heartbeat IPC: 1.28066 cumulative IPC: 1.26294 (Simulation time: 0 hr 0 min 26 sec) 
Heartbeat CPU  0 instructions:   14000002 cycles:    8257858 heartbeat IPC: 1.25182 cumulative IPC: 1.26014 (Simulation time: 0 hr 0 min 28 sec) 
Heartbeat CPU  0 instructions:   15000000 cycles:    9055763 heartbeat IPC: 1.25328 cumulative IPC: 1.25876 (Simulation time: 0 hr 0 min 31 sec) 
Heartbeat CPU  0 instructions:   16000000 cycles:    9858309 heartbeat IPC: 1.24603 cumulative IPC: 1.25662 (Simulation time: 0 hr 0 min 33 sec) 
Heartbeat CPU  0 instructions:   17000003 cycles:   10653966 heartbeat IPC: 1.25683 cumulative IPC: 1.25665 (Simulation time: 0 hr 0 min 35 sec) 
Heartbeat CPU  0 instructions:   18000001 cycles:   11468158 heartbeat IPC: 1.22821 cumulative IPC: 1.25302 (Simulation time: 0 hr 0 min 38 sec) 
Heartbeat CPU  0 instructions:   19000000 cycles:   12290820 heartbeat IPC: 1.21556 cumulative IPC: 1.24875 (Simulation time: 0 hr 0 min 40 sec) 
Heartbeat CPU  0 instructions:   20000000 cycles:   13108433 heartbeat IPC: 1.22307 cumulative IPC: 1.24613 (Simulation time: 0 hr 0 min 42 sec) 
Heartbeat CPU  0 instructions:   21000003 cycles:   13913969 heartbeat IPC: 1.24141 cumulative IPC: 1.24570 (Simulation time: 0 hr 0 min 44 sec) 
Heartbeat CPU  0 instructions:   22000000 cycles:   14719034 heartbeat IPC: 1.24213 cumulative IPC: 1.24540 (Simulation time: 0 hr 0 min 47 sec) 
Heartbeat CPU  0 instructions:   23000002 cycles:   15538988 heartbeat IPC: 1.21958 cumulative IPC: 1.24338 (Simulation time: 0 hr 0 min 49 sec) 
Heartbeat CPU  0 instructions:   24000000 cycles:   16345710 heartbeat IPC: 1.23958 cumulative IPC: 1.24311 (Simulation time: 0 hr 0 min 51 sec) 
Heartbeat CPU  0 instructions:   25000001 cycles:   17157309 heartbeat IPC: 1.23214 cumulative IPC: 1.24237 (Simulation time: 0 hr 0 min 53 sec) 
Heartbeat CPU  0 instructions:   26000002 cycles:   17980262 heartbeat IPC: 1.21514 cumulative IPC: 1.24063 (Simulation time: 0 hr 0 min 55 sec) 
Heartbeat CPU  0 instructions:   27000003 cycles:   18788974 heartbeat IPC: 1.23654 cumulative IPC: 1.24039 (Simulation time: 0 hr 0 min 58 sec) 
Heartbeat CPU  0 instructions:   28000000 cycles:   19587109 heartbeat IPC: 1.25292 cumulative IPC: 1.24108 (Simulation time: 0 hr 1 min 0 sec) 
Heartbeat CPU  0 instructions:   29000000 cycles:   20399843 heartbeat IPC: 1.23041 cumulative IPC: 1.24051 (Simulation time: 0 hr 1 min 2 sec) 
Heartbeat CPU  0 instructions:   30000001 cycles:   21221134 heartbeat IPC: 1.21760 cumulative IPC: 1.23935 (Simulation time: 0 hr 1 min 4 sec) 
Heartbeat CPU  0 instructions:   31000003 cycles:   22025978 heartbeat IPC: 1.24248 cumulative IPC: 1.23950 (Simulation time: 0 hr 1 min 7 sec) 
Heartbeat CPU  0 instructions:   32000000 cycles:   22838613 heartbeat IPC: 1.23056 cumulative IPC: 1.23909 (Simulation time: 0 hr 1 min 9 sec) 
Heartbeat CPU  0 instructions:   33000001 cycles:   23652786 heartbeat IPC: 1.22824 cumulative IPC: 1.23861 (Simulation time: 0 hr 1 min 11 sec) 
Heartbeat CPU  0 instructions:   34000002 cycles:   24471743 heartbeat IPC: 1.22107 cumulative IPC: 1.23787 (Simulation time: 0 hr 1 min 13 sec) 
Heartbeat CPU  0 instructions:   35000000 cycles:   25277222 heartbeat IPC: 1.24149 cumulative IPC: 1.23801 (Simulation time: 0 hr 1 min 16 sec) 
Heartbeat CPU  0 instructions:   36000000 cycles:   26089837 heartbeat IPC: 1.23060 cumulative IPC: 1.23773 (Simulation time: 0 hr 1 min 18 sec) 
Heartbeat CPU  0 instructions:   37000002 cycles:   27588089 heartbeat IPC: 0.66745 cumulative IPC: 1.19976 (Simulation time: 0 hr 1 min 20 sec) 
Heartbeat CPU  0 instructions:   38000002 cycles:   29256279 heartbeat IPC: 0.59945 cumulative IPC: 1.15833 (Simulation time: 0 hr 1 min 23 sec) 
Heartbeat CPU  0 instructions:   39000002 cycles:   30507704 heartbeat IPC: 0.79909 cumulative IPC: 1.14065 (Simulation time: 0 hr 1 min 25 sec) 
Heartbeat CPU  0 instructions:   40000000 cycles:   31632082 heartbeat IPC: 0.88938 cumulative IPC: 1.13001 (Simulation time: 0 hr 1 min 27 sec) 
Heartbeat CPU  0 instructions:   41000001 cycles:   33059693 heartbeat IPC: 0.70047 cumulative IPC: 1.10809 (Simulation time: 0 hr 1 min 30 sec) 
Heartbeat CPU  0 instructions:   42000000 cycles:   34347710 heartbeat IPC: 0.77639 cumulative IPC: 1.09349 (Simulation time: 0 hr 1 min 32 sec) 
Heartbeat CPU  0 instructions:   43000000 cycles:   35768470 heartbeat IPC: 0.70385 cumulative IPC: 1.07545 (Simulation time: 0 hr 1 min 34 sec) 
Heartbeat CPU  0 instructions:   44000000 cycles:   37155012 heartbeat IPC: 0.72122 cumulative IPC: 1.06013 (Simulation time: 0 hr 1 min 37 sec) 
Heartbeat CPU  0 instructions:   45000001 cycles:   38523114 heartbeat IPC: 0.73094 cumulative IPC: 1.04667 (Simulation time: 0 hr 1 min 39 sec) 
Heartbeat CPU  0 instructions:   46000001 cycles:   39976302 heartbeat IPC: 0.68814 cumulative IPC: 1.03173 (Simulation time: 0 hr 1 min 41 sec) 
Heartbeat CPU  0 instructions:   47000000 cycles:   41253690 heartbeat IPC: 0.78285 cumulative IPC: 1.02294 (Simulation time: 0 hr 1 min 44 sec) 
Heartbeat CPU  0 instructions:   48000000 cycles:   42725446 heartbeat IPC: 0.67946 cumulative IPC: 1.00951 (Simulation time: 0 hr 1 min 46 sec) 
Heartbeat CPU  0 instructions:   49000001 cycles:   45464908 heartbeat IPC: 0.36504 cumulative IPC: 0.96579 (Simulation time: 0 hr 1 min 49 sec) 
Heartbeat CPU  0 instructions:   50000003 cycles:   47664409 heartbeat IPC: 0.45465 cumulative IPC: 0.93939 (Simulation time: 0 hr 1 min 52 sec) 
Heartbeat CPU  0 instructions:   51000003 cycles:   50357774 heartbeat IPC: 0.37128 cumulative IPC: 0.90559 (Simulation time: 0 hr 1 min 55 sec) 
Heartbeat CPU  0 instructions:   52000000 cycles:   53307766 heartbeat IPC: 0.33898 cumulative IPC: 0.87093 (Simulation time: 0 hr 1 min 59 sec) 
Heartbeat CPU  0 instructions:   53000002 cycles:   55708958 heartbeat IPC: 0.41646 cumulative IPC: 0.84938 (Simulation time: 0 hr 2 min 2 sec) 
Heartbeat CPU  0 instructions:   54000003 cycles:   58620760 heartbeat IPC: 0.34343 cumulative IPC: 0.82186 (Simulation time: 0 hr 2 min 6 sec) 
Heartbeat CPU  0 instructions:   55000002 cycles:   60487025 heartbeat IPC: 0.53583 cumulative IPC: 0.81222 (Simulation time: 0 hr 2 min 9 sec) 
Heartbeat CPU  0 instructions:   56000000 cycles:   62472408 heartbeat IPC: 0.50368 cumulative IPC: 0.80155 (Simulation time: 0 hr 2 min 12 sec) 
Heartbeat CPU  0 instructions:   57000001 cycles:   64687475 heartbeat IPC: 0.45145 cumulative IPC: 0.78854 (Simulation time: 0 hr 2 min 16 sec) 
Heartbeat CPU  0 instructions:   58000000 cycles:   66893186 heartbeat IPC: 0.45337 cumulative IPC: 0.77658 (Simulation time: 0 hr 2 min 19 sec) 
Heartbeat CPU  0 instructions:   59000003 cycles:   68434407 heartbeat IPC: 0.64884 cumulative IPC: 0.77347 (Simulation time: 0 hr 2 min 22 sec) 
Heartbeat CPU  0 instructions:   60000000 cycles:   69610892 heartbeat IPC: 0.84999 cumulative IPC: 0.77487 (Simulation time: 0 hr 2 min 25 sec) 
Finished CPU 0 instructions: 50000000 cycles: 64527340 cumulative IPC: 0.77487 (Simulation time: 0 hr 2 min 25 sec) 

ChampSim completed all CPUs

[ROI Statistics]
Core_0_instructions 50000000
Core_0_cycles 64527340
Core_0_IPC 0.77487

Core_0_branch_prediction_accuracy 98.48148
Core_0_branch_MPKI 0.82182
Core_0_average_ROB_occupancy_at_mispredict 232.72403

Core_0_L1D_total_access 11932550
Core_0_L1D_total_hit 9981223
Core_0_L1D_total_miss 1951327
Core_0_L1D_loads 8737041
Core_0_L1D_load_hit 7363574
Core_0_L1D_load_miss 1373467
Core_0_L1D_RFOs 3195509
Core_0_L1D_RFO_hit 2617649
Core_0_L1D_RFO_miss 577860
Core_0_L1D_prefetches 0
Core_0_L1D_prefetch_hit 0
Core_0_L1D_prefetch_miss 0
Core_0_L1D_writebacks 0
Core_0_L1D_writeback_hit 0
Core_0_L1D_writeback_miss 0
Core_0_L1D_prefetch_requested 0
Core_0_L1D_prefetch_dropped 0
Core_0_L1D_prefetch_issued 0
Core_0_L1D_prefetch_filled 0
Core_0_L1D_prefetch_useful 0
Core_0_L1D_prefetch_useless 0
Core_0_L1D_prefetch_late 0
Core_0_L1D_average_miss_latency 131.83607

Core_0_L1D_rq_access 17882352
Core_0_L1D_rq_forward 0
Core_0_L1D_rq_merged 8355572
Core_0_L1D_rq_to_cache 9525848
Core_0_L1D_rq_full 0

Core_0_L1D_wq_access 6363327
Core_0_L1D_wq_forward 932
Core_0_L1D_wq_merged 5705
Core_0_L1D_wq_to_cache 6357622
Core_0_L1D_wq_full 618064

Core_0_L1D_pq_access 0
Core_0_L1D_pq_forward 0
Core_0_L1D_pq_merged 0
Core_0_L1D_pq_to_cache 0
Core_0_L1D_pq_full 0

Core_0_L1D_acc_epochs 65932
Core_0_L1D_acc_level_0 65932
Core_0_L1D_acc_level_1 0
Core_0_L1D_acc_level_2 0
Core_0_L1D_acc_level_3 0
Core_0_L1D_acc_level_4 0
Core_0_L1D_acc_level_5 0
Core_0_L1D_acc_level_6 0
Core_0_L1D_acc_level_7 0
Core_0_L1D_acc_level_8 0
Core_0_L1D_acc_level_9 0

Core_0_L1I_total_access 11501862
Core_0_L1I_total_hit 11501471
Core_0_L1I_total_miss 391
Core_0_L1I_loads 11501862
Core_0_L1I_load_hit 11501471
Core_0_L1I_load_miss 391
Core_0_L1I_RFOs 0
Core_0_L1I_RFO_hit 0
Core_0_L1I_RFO_miss 0
Core_0_L1I_prefetches 0
Core_0_L1I_prefetch_hit 0
Core_0_L1I_prefetch_miss 0
Core_0_L1I_writebacks 0
Core_0_L1I_writeback_hit 0
Core_0_L1I_writeback_miss 0
Core_0_L1I_prefetch_requested 0
Core_0_L1I_prefetch_dropped 0
Core_0_L1I_prefetch_issued 0
Core_0_L1I_prefetch_filled 0
Core_0_L1I_prefetch_useful 0
Core_0_L1I_prefetch_useless 0
Core_0_L1I_prefetch_late 0
Core_0_L1I_average_miss_latency 229.10486

Core_0_L1I_rq_access 50000018
Core_0_L1I_rq_forward 0
Core_0_L1I_rq_merged 38497902
Core_0_L1I_rq_to_cache 11502116
Core_0_L1I_rq_full 0

Core_0_L1I_wq_access 0
Core_0_L1I_wq_forward 0
Core_0_L1I_wq_merged 0
Core_0_L1I_wq_to_cache 0
Core_0_L1I_wq_full 0

Core_0_L1I_pq_access 0
Core_0_L1I_pq_forward 0
Core_0_L1I_pq_merged 0
Core_0_L1I_pq_to_cache 0
Core_0_L1I_pq_full 0

Core_0_L1I_acc_epochs 65932
Core_0_L1I_acc_level_0 65932
Core_0_L1I_acc_level_1 0
Core_0_L1I_acc_level_2 0
Core_0_L1I_acc_level_3 0
Core_0_L1I_acc_level_4 0
Core_0_L1I_acc_level_5 0
Core_0_L1I_acc_level_6 0
Core_0_L1I_acc_level_7 0
Core_0_L1I_acc_level_8 0
Core_0_L1I_acc_level_9 0

Core_0_L2C_total_access 6536494
Core_0_L2C_total_hit 5043681
Core_0_L2C_total_miss 1492813
Core_0_L2C_loads 1373813
Core_0_L2C_load_hit 1134336
Core_0_L2C_load_miss 239477
Core_0_L2C_RFOs 577803
Core_0_L2C_RFO_hit 144381
Core_0_L2C_RFO_miss 433422
Core_0_L2C_prefetches 3923826
Core_0_L2C_prefetch_hit 3103945
Core_0_L2C_prefetch_miss 819881
Core_0_L2C_writebacks 661052
Core_0_L2C_writeback_hit 661019
Core_0_L2C_writeback_miss 33
Core_0_L2C_prefetch_requested 8147943
Core_0_L2C_prefetch_dropped 508883
Core_0_L2C_prefetch_issued 7639060
Core_0_L2C_prefetch_filled 954657
Core_0_L2C_prefetch_useful 950534
Core_0_L2C_prefetch_useless 3983
Core_0_L2C_prefetch_late 204978
Core_0_L2C_average_miss_latency 406.16863

Core_0_L2C_rq_access 1951718
Core_0_L2C_rq_forward 0
Core_0_L2C_rq_merged 0
Core_0_L2C_rq_to_cache 1951616
Core_0_L2C_rq_full 0

Core_0_L2C_wq_access 661052
Core_0_L2C_wq_forward 216
Core_0_L2C_wq_merged 0
Core_0_L2C_wq_to_cache 661052
Core_0_L2C_wq_full 0

Core_0_L2C_pq_access 7639060
Core_0_L2C_pq_forward 0
Core_0_L2C_pq_merged 750702
Core_0_L2C_pq_to_cache 6888244
Core_0_L2C_pq_full 0

Core_0_L2C_acc_epochs 65932
Core_0_L2C_acc_level_0 732
Core_0_L2C_acc_level_1 406
Core_0_L2C_acc_level_2 884
Core_0_L2C_acc_level_3 566
Core_0_L2C_acc_level_4 1495
Core_0_L2C_acc_level_5 1776
Core_0_L2C_acc_level_6 2415
Core_0_L2C_acc_level_7 4093
Core_0_L2C_acc_level_8 7021
Core_0_L2C_acc_level_9 46544

Core_0_LLC_total_access 1927706
Core_0_LLC_total_hit 91517
Core_0_LLC_total_miss 1836189
Core_0_LLC_loads 34944
Core_0_LLC_load_hit 452
Core_0_LLC_load_miss 34492
Core_0_LLC_RFOs 433420
Core_0_LLC_RFO_hit 36
Core_0_LLC_RFO_miss 433384
Core_0_LLC_prefetches 1024417
Core_0_LLC_prefetch_hit 9825
Core_0_LLC_prefetch_miss 1014592
Core_0_LLC_writebacks 434925
Core_0_LLC_writeback_hit 81204
Core_0_LLC_writeback_miss 353721
Core_0_LLC_prefetch_requested 0
Core_0_LLC_prefetch_dropped 0
Core_0_LLC_prefetch_issued 0
Core_0_LLC_prefetch_filled 1131742
Core_0_LLC_prefetch_useful 119
Core_0_LLC_prefetch_useless 1105818
Core_0_LLC_prefetch_late 0
Core_0_LLC_average_miss_latency 337.26234

Core_0_LLC_rq_access 468364
Core_0_LLC_rq_forward 0
Core_0_LLC_rq_merged 0
Core_0_LLC_rq_to_cache 468364
Core_0_LLC_rq_full 0

Core_0_LLC_wq_access 434925
Core_0_LLC_wq_forward 0
Core_0_LLC_wq_merged 0
Core_0_LLC_wq_to_cache 434925
Core_0_LLC_wq_full 0

Core_0_LLC_pq_access 1159660
Core_0_LLC_pq_forward 0
Core_0_LLC_pq_merged 0
Core_0_LLC_pq_to_cache 1159660
Core_0_LLC_pq_full 0

Core_0_LLC_acc_epochs 67980
Core_0_LLC_acc_level_0 67972
Core_0_LLC_acc_level_1 6
Core_0_LLC_acc_level_2 1
Core_0_LLC_acc_level_3 0
Core_0_LLC_acc_level_4 0
Core_0_LLC_acc_level_5 1
Core_0_LLC_acc_level_6 0
Core_0_LLC_acc_level_7 0
Core_0_LLC_acc_level_8 0
Core_0_LLC_acc_level_9 0

Core_0_major_page_fault 0
Core_0_minor_page_fault 13477

scooby_st_lookup 1623103
scooby_st_hit 1603618
scooby_st_evict 19421
scooby_st_insert 19485
scooby_st_streaming 0

scooby_predict_called 1623103
scooby_predict_out_of_bounds 26243
scooby_predict_action_1 1576220
scooby_predict_issue_action_1 1570319
scooby_predict_hit_action_1 5901
scooby_predict_out_of_bounds_action_1 24835
scooby_predict_action_3 18540
scooby_predict_issue_action_3 18521
scooby_predict_hit_action_3 19
scooby_predict_out_of_bounds_action_3 924
scooby_predict_action_4 197
scooby_predict_issue_action_4 193
scooby_predict_hit_action_4 4
scooby_predict_out_of_bounds_action_4 7
scooby_predict_action_5 171
scooby_predict_issue_action_5 158
scooby_predict_hit_action_5 13
scooby_predict_out_of_bounds_action_5 15
scooby_predict_action_10 193
scooby_predict_issue_action_10 183
scooby_predict_hit_action_10 10
scooby_predict_out_of_bounds_action_10 37
scooby_predict_action_11 144
scooby_predict_issue_action_11 134
scooby_predict_hit_action_11 10
scooby_predict_out_of_bounds_action_11 38
scooby_predict_action_12 169
scooby_predict_issue_action_12 160
scooby_predict_hit_action_12 9
scooby_predict_out_of_bounds_action_12 40
scooby_predict_action_22 152
scooby_predict_issue_action_22 149
scooby_predict_hit_action_22 3
scooby_predict_out_of_bounds_action_22 54
scooby_predict_action_23 125
scooby_predict_issue_action_23 123
scooby_predict_hit_action_23 2
scooby_predict_out_of_bounds_action_23 74
scooby_predict_action_30 102
scooby_predict_issue_action_30 98
scooby_predict_hit_action_30 4
scooby_predict_out_of_bounds_action_30 102
scooby_predict_action_32 85
scooby_predict_issue_action_32 80
scooby_predict_hit_action_32 5
scooby_predict_out_of_bounds_action_32 90
scooby_predict_action_-1 193
scooby_predict_issue_action_-1 25
scooby_predict_hit_action_-1 168
scooby_predict_out_of_bounds_action_-1 1
scooby_predict_action_-3 195
scooby_predict_issue_action_-3 42
scooby_predict_hit_action_-3 153
scooby_predict_out_of_bounds_action_-3 8
scooby_predict_action_-6 173
scooby_predict_issue_action_-6 42
scooby_predict_hit_action_-6 131
scooby_predict_out_of_bounds_action_-6 18
scooby_predict_action_0 201
scooby_predict_issue_action_0 0
scooby_predict_hit_action_0 0
scooby_predict_out_of_bounds_action_0 0
scooby_predict_multi_deg_called 1459290
scooby_predict_predicted 8147943
scooby_predict_multi_deg 6557716
scooby_predict_multi_deg_2 1434550
scooby_predict_multi_deg_3 1370088
scooby_predict_multi_deg_4 1343681
scooby_predict_multi_deg_5 1217081
scooby_predict_multi_deg_6 1192316
scooby_predict_multi_deg_7 0
scooby_predict_multi_deg_8 0
scooby_predict_multi_deg_9 0
scooby_predict_multi_deg_10 0
scooby_predict_multi_deg_11 0
scooby_predict_multi_deg_12 0
scooby_predict_multi_deg_13 0
scooby_predict_multi_deg_14 0
scooby_predict_multi_deg_15 0
scooby_predict_multi_deg_16 0

scooby_selected_deg_1 130937
scooby_selected_deg_2 39598
scooby_selected_deg_3 0
scooby_selected_deg_4 102422
scooby_selected_deg_5 0
scooby_selected_deg_6 1317270
scooby_selected_deg_7 0
scooby_selected_deg_8 0
scooby_selected_deg_9 0
scooby_selected_deg_10 0
scooby_selected_deg_11 0
scooby_selected_deg_12 0
scooby_selected_deg_13 0
scooby_selected_deg_14 0
scooby_selected_deg_15 0
scooby_selected_deg_16 0

scooby_state_4152fc|15|1 2552,0,2,0,0,0,0,0,0,1,1,0,0,0,0,2556,
scooby_state_4152fc|14|1 2551,0,0,0,1,2,0,0,0,0,0,0,0,0,0,2554,
scooby_state_4152fc|13|1 2546,1,0,0,0,1,1,1,0,0,1,0,0,0,1,2552,
scooby_state_4152fc|12|1 2547,0,0,0,1,0,1,1,0,0,0,0,1,0,0,2551,
scooby_state_4152fc|11|1 2548,0,0,1,0,0,0,0,0,0,0,0,0,0,0,2549,
scooby_state_4152fc|10|1 2537,0,1,1,1,0,0,1,2,0,0,1,0,1,1,2546,
scooby_state_4152fc|8|1 2538,1,1,1,0,0,0,0,0,0,1,1,1,0,0,2544,
scooby_state_4152fc|9|1 2536,1,1,1,0,0,0,1,0,1,0,1,0,2,0,2544,
scooby_state_4152fc|7|1 2541,0,0,0,0,0,0,0,0,0,0,0,0,0,1,2542,
scooby_state_4152fc|6|1 2540,1,0,0,0,0,0,0,0,0,0,0,0,0,0,2541,
scooby_state_4152fc|5|1 2536,0,0,0,0,0,2,0,0,0,0,0,0,0,0,2538,
scooby_state_4152fc|1|1 2528,0,2,1,1,0,0,0,1,0,1,0,1,0,1,2536,
scooby_state_4152fc|33|1 2530,0,0,1,0,0,0,1,0,0,0,0,1,1,2,2536,
scooby_state_4152fc|18|1 2535,0,0,0,0,0,0,0,0,0,0,0,1,0,0,2536,
scooby_state_4152fc|4|1 2527,0,2,0,1,2,0,1,0,0,0,0,1,1,1,2536,
scooby_state_4152fc|32|1 2531,1,1,0,0,0,0,0,0,1,0,0,1,0,0,2535,
scooby_state_4152fc|28|1 2526,0,3,1,0,0,1,1,1,0,0,0,1,0,1,2535,
scooby_state_4152fc|50|1 2534,0,0,0,0,0,0,1,0,0,0,0,0,0,0,2535,
scooby_state_4152fc|34|1 2527,1,2,0,0,1,0,1,0,1,1,0,0,0,1,2535,
scooby_state_4152fc|49|1 2529,0,0,0,1,0,1,0,0,1,0,1,2,0,0,2535,
scooby_state_4152fc|2|1 2532,0,0,0,0,0,0,0,0,2,0,0,0,1,0,2535,
scooby_state_4152fc|0|0 2534,0,0,0,0,0,0,0,1,0,0,0,0,0,0,2535,
scooby_state_4152fc|48|1 2528,2,0,0,1,1,0,0,0,0,1,1,0,1,0,2535,
scooby_state_4152fc|38|1 2531,0,0,0,0,0,0,1,1,0,1,0,0,0,1,2535,
scooby_state_4152fc|22|1 2527,0,2,1,0,1,1,0,1,0,0,1,0,0,0,2534,
scooby_state_4152fc|17|1 2529,0,0,0,0,0,0,1,1,0,0,1,2,0,0,2534,
scooby_state_4152fc|3|1 2527,0,1,1,0,0,1,1,0,0,1,0,1,0,1,2534,
scooby_state_4152fc|43|1 2528,0,0,1,1,0,0,0,1,0,0,0,0,1,2,2534,
scooby_state_4152fc|60|1 2530,0,0,0,0,0,1,0,0,2,1,0,0,0,0,2534,
scooby_state_4152fc|42|1 2527,1,0,1,2,0,0,0,0,0,0,3,0,0,0,2534,
scooby_state_4152fc|19|1 2527,1,1,0,1,1,1,1,0,0,0,1,0,0,0,2534,
scooby_state_4152fc|23|1 2526,1,1,1,1,0,1,0,0,1,0,0,1,1,0,2534,
scooby_state_4152fc|63|1 2526,0,0,1,0,1,1,0,1,0,0,1,0,2,0,2533,
scooby_state_4152fc|62|1 2532,0,0,0,0,0,0,0,0,0,0,0,0,1,0,2533,
scooby_state_4152fc|53|1 2530,0,1,0,0,0,0,0,0,1,1,0,0,0,0,2533,
scooby_state_4152fc|29|1 2531,0,0,1,0,0,0,0,0,0,0,0,0,0,1,2533,
scooby_state_4152fc|37|1 2528,0,0,2,0,0,0,1,0,1,0,0,0,1,0,2533,
scooby_state_4152fc|44|1 2529,0,0,0,0,1,1,0,0,0,0,0,1,1,0,2533,
scooby_state_4152fc|24|1 2529,0,0,0,0,1,1,0,0,1,0,0,0,0,1,2533,
scooby_state_4152fc|21|1 2530,1,0,0,0,1,0,0,0,0,0,0,0,0,1,2533,
scooby_state_4152fc|47|1 2529,2,1,0,0,0,0,0,0,0,1,0,0,0,0,2533,
scooby_state_4152fc|31|1 2526,1,1,0,3,0,0,0,0,1,1,0,0,0,0,2533,
scooby_state_4152fc|61|1 2532,0,0,0,0,0,0,0,1,0,0,0,0,0,0,2533,
scooby_state_4152fc|52|1 2529,0,0,0,1,1,0,0,1,0,1,0,0,0,0,2533,
scooby_state_4152fc|54|1 2530,0,1,0,0,1,1,0,0,0,0,0,0,0,0,2533,
scooby_state_4152fc|58|1 2531,0,0,0,0,0,0,0,0,1,1,0,0,0,0,2533,
scooby_state_4152fc|27|1 2527,0,0,2,1,0,0,0,0,1,1,0,0,1,0,2533,
scooby_state_4152fc|41|1 2529,1,1,0,0,1,0,0,0,0,0,0,0,1,0,2533,
scooby_state_4152fc|59|1 2532,0,0,0,0,0,0,0,0,0,1,0,0,0,0,2533,
scooby_state_4152fc|51|1 2531,1,0,0,0,0,0,0,0,1,0,0,0,0,0,2533,
scooby_state_4152fc|40|1 2528,0,0,0,0,0,1,1,0,0,0,1,0,0,1,2532,
scooby_state_4152fc|55|1 2529,1,0,0,0,0,0,0,1,0,0,0,0,0,1,2532,
scooby_state_4152fc|20|1 2530,0,0,0,0,1,0,1,0,0,0,0,0,0,0,2532,
scooby_state_4152fc|30|1 2525,1,0,0,3,0,0,1,0,0,0,1,1,0,0,2532,
scooby_state_4152fc|39|1 2531,0,1,0,0,0,0,0,0,0,0,0,0,0,0,2532,
scooby_state_4152fc|46|1 2528,0,0,2,0,0,1,0,1,0,0,0,0,0,0,2532,
scooby_state_4152fc|45|1 2527,1,0,0,0,0,1,0,0,0,0,0,1,2,0,2532,
scooby_state_4152fc|25|1 2520,1,0,0,2,0,1,1,1,0,2,0,2,0,1,2531,
scooby_state_4152fc|57|1 2523,1,0,0,0,3,0,1,0,0,3,0,0,0,0,2531,
scooby_state_4152fc|56|1 2530,0,0,0,0,0,0,0,1,0,0,0,0,0,0,2531,
scooby_state_4152fc|26|1 2530,0,0,0,0,0,0,0,0,1,0,0,0,0,0,2531,
scooby_state_4152fc|16|1 2528,0,1,0,0,0,1,0,0,0,0,0,0,0,1,2531,
scooby_state_4152fc|35|1 2525,0,1,0,0,0,0,0,0,1,2,0,0,1,1,2531,
scooby_state_4152fc|36|1 2529,0,0,0,0,0,0,0,0,1,0,0,0,1,0,2531,
scooby_state_41e5cc|0|0 1493,0,0,0,0,0,0,1,0,0,0,0,0,0,1,1495,
scooby_state_41e5cc|31|1 1486,0,0,0,0,0,0,3,0,0,0,1,1,0,0,1491,
scooby_state_41e5cc|30|1 1486,0,0,0,1,0,0,0,0,1,1,0,1,0,0,1490,
scooby_state_41e5cc|32|1 1489,0,1,0,0,0,0,0,0,0,0,0,0,0,0,1490,
scooby_state_41e5cc|29|1 1486,0,0,0,0,0,0,0,0,0,0,1,1,0,0,1488,
scooby_state_41e5cc|21|1 1482,1,1,0,0,0,1,1,0,0,1,0,0,0,1,1488,
scooby_state_41e5cc|33|1 1484,0,0,0,0,0,0,0,0,2,1,0,0,0,0,1487,
scooby_state_41e5cc|20|1 1483,1,1,0,1,0,0,0,0,0,0,0,1,0,0,1487,
scooby_state_41e5cc|22|1 1481,0,1,1,2,0,1,0,0,0,0,0,0,0,1,1487,
scooby_state_41e5cc|19|1 1484,0,0,0,0,0,0,0,0,0,0,1,1,0,0,1486,
scooby_state_41e5cc|28|1 1483,0,0,0,0,0,0,0,0,0,0,0,1,1,0,1485,
scooby_state_41e5cc|23|1 1481,0,0,1,0,0,1,0,0,0,1,0,1,0,0,1485,
scooby_state_41e5cc|18|1 1481,0,1,0,1,1,0,0,0,0,0,0,0,0,0,1484,
scooby_state_41e5cc|34|1 1479,0,1,1,0,1,0,0,0,0,0,1,1,0,0,1484,
scooby_state_41e5cc|24|1 1482,0,1,0,0,0,0,0,0,0,0,0,0,0,0,1483,
scooby_state_41e5cc|39|1 1479,0,0,0,0,1,0,0,1,0,0,1,0,0,0,1482,
scooby_state_41e5cc|12|1 1480,0,0,0,0,0,0,0,0,1,0,1,0,0,0,1482,
scooby_state_41e5cc|27|1 1479,0,0,0,1,1,1,0,0,0,0,0,0,0,0,1482,
scooby_state_41e5cc|40|1 1477,0,1,0,1,0,0,1,0,0,0,0,0,1,1,1482,
scooby_state_41e5cc|26|1 1479,0,0,0,0,0,0,0,1,0,0,0,1,0,0,1481,
scooby_state_41e5cc|14|1 1481,0,0,0,0,0,0,0,0,0,0,0,0,0,0,1481,
scooby_state_41e5cc|25|1 1478,0,0,1,0,0,0,0,0,1,1,0,0,0,0,1481,
scooby_state_41e5cc|41|1 1479,0,0,1,0,0,0,0,0,0,0,0,1,0,0,1481,
scooby_state_41e5cc|35|1 1474,0,0,1,2,0,1,1,0,0,1,0,1,0,0,1481,
scooby_state_41e5cc|17|1 1477,0,1,0,0,0,0,0,0,1,0,0,2,0,0,1481,
scooby_state_41e5cc|11|1 1477,1,0,0,1,0,0,0,0,0,1,1,0,0,0,1481,
scooby_state_41e5cc|13|1 1478,1,0,0,0,0,0,0,0,1,0,0,0,0,1,1481,
scooby_state_41e5cc|15|1 1478,0,0,0,0,0,0,0,1,0,0,0,1,0,0,1480,
scooby_state_41e5cc|16|1 1479,0,0,0,0,0,0,0,0,0,0,0,1,0,0,1480,
scooby_state_41e5cc|38|1 1478,0,0,0,0,0,0,0,0,0,0,0,0,1,1,1480,
scooby_state_41e5cc|37|1 1477,0,0,0,0,0,0,0,2,0,0,1,0,0,0,1480,
scooby_state_41e5cc|36|1 1479,1,0,0,0,0,0,0,0,0,0,0,0,0,0,1480,
scooby_state_41e5cc|42|1 1474,0,1,0,1,0,0,0,1,1,0,0,1,0,0,1479,
scooby_state_41e5cc|10|1 1475,0,0,1,0,0,1,0,0,0,1,0,0,0,0,1478,
scooby_state_41e5cc|43|1 1476,1,0,0,0,0,0,0,0,0,0,0,0,0,0,1477,
scooby_state_41e5cc|9|1 1474,0,1,0,0,1,0,0,0,0,0,0,0,0,0,1476,
scooby_state_41e5cc|44|1 1472,0,0,0,0,0,0,0,1,0,0,0,0,0,1,1474,
scooby_state_41e5cc|8|1 1472,0,0,0,0,0,0,0,1,0,0,0,1,0,0,1474,
scooby_state_41e5cc|53|1 1471,1,0,0,0,0,0,1,0,0,0,0,0,0,0,1473,
scooby_state_41e5cc|52|1 1471,0,0,0,0,0,0,1,0,0,0,0,1,0,0,1473,
scooby_state_41e5cc|59|1 1472,0,0,0,0,0,0,0,0,0,0,0,0,0,0,1472,
scooby_state_41e5cc|60|1 1470,0,0,0,1,0,0,0,0,0,0,1,0,0,0,1472,
scooby_state_41e5cc|54|1 1471,0,0,0,0,0,0,0,0,0,0,0,0,0,1,1472,
scooby_state_41e5cc|51|1 1470,0,0,0,0,0,0,1,0,0,1,0,0,0,0,1472,
scooby_state_41e5cc|49|1 1471,0,1,0,0,0,0,0,0,0,0,0,0,0,0,1472,
scooby_state_41e5cc|63|1 1467,0,1,0,0,1,1,0,1,1,0,0,0,0,0,1472,
scooby_state_41e5cc|62|1 1471,0,0,0,1,0,0,0,0,0,0,0,0,0,0,1472,
scooby_state_41e5cc|56|1 1470,0,0,0,0,1,0,0,0,1,0,0,0,0,0,1472,
scooby_state_41e5cc|50|1 1467,0,1,0,1,0,0,0,0,0,1,0,2,0,0,1472,
scooby_state_41e5cc|2|1 1468,1,0,0,0,0,0,1,0,0,0,0,1,0,0,1471,
scooby_state_41e5cc|61|1 1466,0,0,0,0,0,2,0,2,0,0,0,0,0,1,1471,
scooby_state_41e5cc|45|1 1470,0,0,0,0,0,1,0,0,0,0,0,0,0,0,1471,
scooby_state_41e5cc|55|1 1468,1,0,0,0,1,0,0,1,0,0,0,0,0,0,1471,
scooby_state_41e5cc|47|1 1470,0,0,0,0,0,0,0,1,0,0,0,0,0,0,1471,
scooby_state_41e5cc|48|1 1469,0,0,0,0,0,0,0,0,0,1,0,1,0,0,1471,
scooby_state_41e5cc|46|1 1469,0,0,0,0,0,0,0,0,0,0,0,1,1,0,1471,
scooby_state_41e5cc|7|1 1469,1,0,0,0,0,0,1,0,0,0,0,0,0,0,1471,
scooby_state_41e5cc|58|1 1469,0,0,0,0,0,0,0,0,0,0,0,1,1,0,1471,
scooby_state_41e5cc|57|1 1468,0,0,1,1,0,0,0,0,0,0,0,0,0,1,1471,
scooby_state_41e5cc|6|1 1468,0,0,1,0,1,0,0,0,0,0,0,0,0,0,1470,
scooby_state_41e5cc|3|1 1466,0,0,1,0,0,2,0,0,0,0,0,0,0,1,1470,
scooby_state_41e5cc|4|1 1467,0,0,0,1,0,0,2,0,0,0,0,0,0,0,1470,
scooby_state_41e5cc|1|1 1464,0,0,1,0,0,0,1,0,0,0,1,1,1,1,1470,
scooby_state_41e5cc|5|1 1469,0,0,0,0,1,0,0,0,0,0,0,0,0,0,1470,
scooby_state_4202d8|18|1 1220,0,0,0,0,0,0,0,1,0,0,1,0,0,0,1222,
scooby_state_420182|6|1 1221,0,0,0,0,0,0,0,0,0,0,0,0,1,0,1222,
scooby_state_420182|5|1 1218,1,0,0,0,0,0,0,0,0,1,0,1,0,0,1221,
scooby_state_420182|7|1 1218,0,0,0,1,0,1,0,0,1,0,0,0,0,0,1221,
scooby_state_4202d8|13|1 1169,0,0,0,0,0,0,0,0,0,0,1,0,1,0,1171,
scooby_state_4202d8|12|1 1166,1,0,0,0,0,0,0,0,0,0,0,0,0,0,1167,
scooby_state_4202d8|11|1 1162,0,0,0,0,1,1,0,0,0,0,0,0,0,0,1164,
scooby_state_4202d8|9|1 1161,0,0,0,0,0,0,0,0,0,0,1,0,0,0,1162,
scooby_state_4202d8|10|1 1155,0,0,0,1,0,1,0,0,0,0,2,0,0,0,1159,
scooby_state_4202d8|17|1 1099,0,0,1,0,0,0,1,0,0,0,0,0,0,0,1101,
scooby_state_4202d8|19|1 1098,0,0,0,0,0,0,0,0,0,0,0,0,0,0,1098,
scooby_state_4202d8|16|1 1079,0,1,0,0,0,0,1,0,0,0,0,1,0,0,1082,
scooby_state_4202d8|15|1 1079,0,0,0,0,0,0,0,0,0,0,0,0,0,0,1079,
scooby_state_4202d8|14|1 1072,0,0,0,0,0,0,0,1,0,0,0,0,0,2,1075,
scooby_state_4202d8|22|1 1069,0,0,1,0,0,0,0,0,0,0,0,0,0,0,1070,
scooby_state_4202d8|21|1 852,0,0,0,0,0,1,0,0,1,0,0,0,0,0,854,
scooby_state_4202d8|20|1 835,0,1,0,0,0,0,0,1,0,0,0,0,0,1,838,
scooby_state_420204|47|1 810,0,0,1,0,0,0,0,0,0,1,0,0,0,0,812,
scooby_state_4201f4|23|2 801,0,0,1,0,1,0,0,0,0,1,0,0,0,0,804,
scooby_state_4201d4|46|1 784,0,0,0,0,0,0,0,0,1,0,0,0,0,0,785,
scooby_state_4200fe|7|1 768,1,0,0,1,0,1,0,1,0,0,0,0,0,0,772,
scooby_state_4201c7|36|-11 758,0,0,0,0,0,0,0,0,0,0,0,0,0,1,759,
scooby_state_4200fe|6|1 750,0,0,0,0,0,0,0,0,1,1,0,0,0,1,753,
scooby_state_4200fe|5|1 731,0,0,0,0,0,0,0,1,1,0,0,1,0,0,734,
scooby_state_4201bf|21|4 673,0,2,0,0,0,0,1,0,0,0,0,0,0,0,676,
scooby_state_420178|2|1 665,0,0,1,0,0,0,1,0,0,0,0,0,0,0,667,
scooby_state_420178|3|1 654,0,0,1,0,1,0,0,0,0,0,1,0,0,0,657,
scooby_state_420178|1|1 651,0,0,0,0,0,0,1,0,0,0,1,0,0,1,654,
scooby_state_41ee19|54|2 639,0,0,0,0,0,0,0,0,1,0,0,0,1,0,641,
scooby_state_41e73c|48|-12 635,0,0,0,0,0,0,0,0,0,0,0,0,0,0,635,
scooby_state_420156|45|-15 630,0,0,0,0,0,0,0,0,0,1,0,0,0,0,631,
scooby_state_420182|8|1 630,0,0,0,0,0,0,0,0,0,0,0,0,0,0,630,
scooby_state_420178|60|31 625,0,0,0,0,0,0,0,0,0,0,0,0,0,0,625,
scooby_state_420178|62|31 621,0,0,0,0,0,0,0,0,0,0,0,0,0,0,621,
scooby_state_4200fe|4|1 617,0,0,0,0,0,0,1,0,0,0,0,1,0,0,619,
scooby_state_4200fe|0|-7 613,1,0,0,0,0,0,0,0,0,0,0,0,0,0,614,
scooby_state_420042|54|1 611,0,0,0,0,0,0,0,0,0,0,0,0,0,0,611,
scooby_state_420182|4|-15 607,0,0,0,0,0,0,1,0,0,0,0,0,0,0,608,
scooby_state_420156|52|1 606,0,0,0,0,0,0,0,0,0,0,0,0,0,0,606,
scooby_state_42024e|8|-29 603,0,0,0,0,0,0,0,0,0,0,0,1,0,0,604,
scooby_state_420156|50|1 600,0,0,1,0,0,0,0,0,0,0,0,0,1,0,602,
scooby_state_420156|51|1 601,0,0,0,0,0,0,0,0,0,0,0,0,0,0,601,
scooby_state_420178|61|31 600,0,0,0,0,0,0,0,0,0,0,0,0,0,0,600,
scooby_state_420156|49|1 597,0,0,0,0,0,0,0,0,0,1,0,0,0,0,598,
scooby_state_4200fe|3|1 597,0,0,0,0,0,0,0,0,0,0,0,0,0,0,597,
scooby_state_420042|55|1 597,0,0,0,0,0,0,0,0,0,0,0,0,0,0,597,
scooby_state_420042|56|1 595,0,0,0,0,0,0,0,0,0,0,0,0,1,0,596,
scooby_state_4200fe|2|1 595,0,0,0,0,0,0,0,0,0,0,0,0,0,0,595,
scooby_state_420042|61|1 594,0,0,0,0,0,0,0,0,1,0,0,0,0,0,595,
scooby_state_420042|58|1 595,0,0,0,0,0,0,0,0,0,0,0,0,0,0,595,
scooby_state_420042|60|1 595,0,0,0,0,0,0,0,0,0,0,0,0,0,0,595,
scooby_state_420042|59|1 594,0,0,0,0,0,0,0,0,1,0,0,0,0,0,595,
scooby_state_4200fe|1|1 595,0,0,0,0,0,0,0,0,0,0,0,0,0,0,595,
scooby_state_420042|57|1 595,0,0,0,0,0,0,0,0,0,0,0,0,0,0,595,
scooby_state_420042|53|1 590,0,0,0,0,0,2,0,0,1,0,0,0,1,0,594,
scooby_state_420042|52|1 591,1,0,0,1,0,0,0,0,0,0,0,0,0,0,593,
scooby_state_420042|51|1 591,0,0,0,0,0,1,0,0,0,0,0,0,0,0,592,
scooby_state_420182|9|1 592,0,0,0,0,0,0,0,0,0,0,0,0,0,0,592,
scooby_state_420182|12|1 591,0,0,0,0,0,0,0,0,0,0,0,0,0,0,591,
scooby_state_420042|50|1 591,0,0,0,0,0,0,0,0,0,0,0,0,0,0,591,
scooby_state_420182|10|1 591,0,0,0,0,0,0,0,0,0,0,0,0,0,0,591,
scooby_state_420042|49|1 589,0,1,0,0,0,0,0,0,0,0,0,1,0,0,591,
scooby_state_420182|13|1 591,0,0,0,0,0,0,0,0,0,0,0,0,0,0,591,
scooby_state_420182|11|1 591,0,0,0,0,0,0,0,0,0,0,0,0,0,0,591,
scooby_state_420182|14|1 591,0,0,0,0,0,0,0,0,0,0,0,0,0,0,591,
scooby_state_41e951|49|1 588,0,0,1,0,0,0,0,0,0,0,0,0,0,0,589,
scooby_state_420178|60|16 586,0,0,0,0,0,0,0,0,0,0,0,0,0,0,586,
scooby_state_420178|56|31 581,0,0,0,0,0,0,0,1,0,0,0,0,0,1,583,
scooby_state_42011b|30|-30 579,0,0,0,0,0,1,0,0,0,0,0,0,0,0,580,
scooby_state_420178|63|31 579,0,0,0,0,0,1,0,0,0,0,0,0,0,0,580,
scooby_state_420178|57|31 577,0,2,0,0,0,0,0,0,0,0,0,0,0,0,579,
scooby_state_420178|58|31 577,0,0,0,0,0,0,0,0,0,1,0,0,0,0,578,
scooby_state_420178|59|31 576,0,0,0,0,1,0,0,0,0,0,0,0,1,0,578,
scooby_state_420178|55|31 573,0,0,1,1,0,1,0,0,1,0,0,0,0,0,577,
scooby_state_4200e9|30|1 563,0,0,0,1,0,0,0,0,0,0,0,0,0,0,564,
scooby_state_420156|48|-15 560,0,0,0,0,0,0,0,0,1,0,1,0,0,0,562,
scooby_state_42011b|31|-30 558,0,0,0,0,0,0,0,0,0,0,1,0,0,1,560,
scooby_state_420042|48|1 551,0,1,0,0,1,0,0,0,1,0,0,0,1,0,555,
scooby_state_420178|3|-15 554,0,0,0,0,0,0,0,0,1,0,0,0,0,0,555,
scooby_state_420042|47|-14 554,0,0,0,0,1,0,0,0,0,0,0,0,0,0,555,
scooby_state_41eccb|22|-1 541,1,0,0,0,0,0,0,0,1,0,0,0,0,0,543,
scooby_state_420178|2|-15 542,0,0,0,0,0,0,0,0,0,0,1,0,0,0,543,
scooby_state_41ec9b|52|3 538,1,0,0,0,0,0,0,0,0,0,1,0,0,0,540,
scooby_state_415c86|1|1 537,0,1,0,0,0,0,0,0,0,0,0,0,0,0,538,
scooby_state_415c86|47|1 537,0,0,0,1,0,0,0,0,0,0,0,0,0,0,538,
scooby_state_4159f6|45|1 538,0,0,0,0,0,0,0,0,0,0,0,0,0,0,538,
scooby_state_4159f6|15|1 537,1,0,0,0,0,0,0,0,0,0,0,0,0,0,538,
scooby_state_415c86|13|1 538,0,0,0,0,0,0,0,0,0,0,0,0,0,0,538,
scooby_state_415c86|53|1 537,0,0,0,0,0,0,0,0,0,0,0,0,0,1,538,
scooby_state_415c86|17|1 536,1,0,0,0,0,0,0,0,0,1,0,0,0,0,538,
scooby_state_4159f6|56|1 538,0,0,0,0,0,0,0,0,0,0,0,0,0,0,538,
scooby_state_415c86|49|1 538,0,0,0,0,0,0,0,0,0,0,0,0,0,0,538,
scooby_state_4159f6|17|1 536,0,0,0,0,0,0,0,0,1,0,0,0,0,0,537,
scooby_state_4159f6|60|1 536,0,0,0,1,0,0,0,0,0,0,0,0,0,0,537,
scooby_state_415c86|54|1 536,0,0,0,0,0,0,0,0,0,0,1,0,0,0,537,
scooby_state_415766|16|1 537,0,0,0,0,0,0,0,0,0,0,0,0,0,0,537,
scooby_state_415766|60|1 534,0,0,0,0,1,1,0,1,0,0,0,0,0,0,537,
scooby_state_415766|55|1 535,1,0,0,1,0,0,0,0,0,0,0,0,0,0,537,
scooby_state_415c86|60|1 537,0,0,0,0,0,0,0,0,0,0,0,0,0,0,537,
scooby_state_415c86|12|1 536,0,0,1,0,0,0,0,0,0,0,0,0,0,0,537,
scooby_state_415c86|0|0 536,0,0,0,0,0,0,0,0,0,0,0,1,0,0,537,
scooby_state_415766|53|1 537,0,0,0,0,0,0,0,0,0,0,0,0,0,0,537,
scooby_state_415766|17|1 535,0,0,0,0,0,0,0,0,1,0,1,0,0,0,537,
scooby_state_415c86|45|1 537,0,0,0,0,0,0,0,0,0,0,0,0,0,0,537,
scooby_state_415766|1|1 537,0,0,0,0,0,0,0,0,0,0,0,0,0,0,537,
scooby_state_415766|0|0 535,1,0,0,0,0,0,0,0,0,0,1,0,0,0,537,
scooby_state_415766|57|1 537,0,0,0,0,0,0,0,0,0,0,0,0,0,0,537,
scooby_state_4159f6|49|1 536,1,0,0,0,0,0,0,0,0,0,0,0,0,0,537,
scooby_state_415766|56|1 535,0,0,0,0,0,0,1,0,1,0,0,0,0,0,537,
scooby_state_415766|54|1 537,0,0,0,0,0,0,0,0,0,0,0,0,0,0,537,
scooby_state_415c86|51|1 535,0,0,0,0,0,0,0,0,0,0,0,2,0,0,537,
scooby_state_415766|48|1 537,0,0,0,0,0,0,0,0,0,0,0,0,0,0,537,
scooby_state_415c86|50|1 537,0,0,0,0,0,0,0,0,0,0,0,0,0,0,537,
scooby_state_4159f6|11|1 536,0,0,0,0,0,0,1,0,0,0,0,0,0,0,537,
scooby_state_415c86|46|1 535,0,0,0,0,0,0,0,1,0,0,1,0,0,0,537,
scooby_state_4159f6|57|1 537,0,0,0,0,0,0,0,0,0,0,0,0,0,0,537,
scooby_state_415766|61|1 535,0,0,0,0,0,0,0,0,0,0,0,1,0,0,536,
scooby_state_4159f6|44|1 536,0,0,0,0,0,0,0,0,0,0,0,0,0,0,536,
scooby_state_415c86|15|1 536,0,0,0,0,0,0,0,0,0,0,0,0,0,0,536,
scooby_state_415766|11|1 535,0,0,0,0,0,0,0,0,0,0,0,0,1,0,536,
scooby_state_415766|51|1 535,0,1,0,0,0,0,0,0,0,0,0,0,0,0,536,
scooby_state_415c86|44|1 536,0,0,0,0,0,0,0,0,0,0,0,0,0,0,536,
scooby_state_4159f6|41|1 533,0,0,0,0,0,0,3,0,0,0,0,0,0,0,536,
scooby_state_4159f6|48|1 535,1,0,0,0,0,0,0,0,0,0,0,0,0,0,536,
scooby_state_4159f6|51|1 535,0,0,0,0,1,0,0,0,0,0,0,0,0,0,536,
scooby_state_415766|49|1 535,0,0,0,0,0,0,0,1,0,0,0,0,0,0,536,
scooby_state_4159f6|47|1 536,0,0,0,0,0,0,0,0,0,0,0,0,0,0,536,
scooby_state_4159f6|18|1 535,0,0,0,0,0,0,0,0,1,0,0,0,0,0,536,
scooby_state_415c86|58|1 535,0,0,0,0,0,0,0,1,0,0,0,0,0,0,536,
scooby_state_4159f6|0|0 536,0,0,0,0,0,0,0,0,0,0,0,0,0,0,536,
scooby_state_4159f6|7|1 536,0,0,0,0,0,0,0,0,0,0,0,0,0,0,536,
scooby_state_415c86|61|1 536,0,0,0,0,0,0,0,0,0,0,0,0,0,0,536,
scooby_state_415766|58|1 534,0,0,0,0,0,0,0,0,0,0,0,1,1,0,536,
scooby_state_4159f6|53|1 535,0,0,0,0,0,0,0,0,0,0,0,0,1,0,536,
scooby_state_4159f6|55|1 536,0,0,0,0,0,0,0,0,0,0,0,0,0,0,536,
scooby_state_4159f6|54|1 535,0,0,1,0,0,0,0,0,0,0,0,0,0,0,536,
scooby_state_415766|7|1 535,0,0,0,0,0,0,0,0,0,1,0,0,0,0,536,
scooby_state_415c86|11|1 536,0,0,0,0,0,0,0,0,0,0,0,0,0,0,536,
scooby_state_415766|4|1 536,0,0,0,0,0,0,0,0,0,0,0,0,0,0,536,
scooby_state_415c86|57|1 535,0,0,0,0,0,0,0,0,0,0,0,1,0,0,536,
scooby_state_415766|9|1 536,0,0,0,0,0,0,0,0,0,0,0,0,0,0,536,
scooby_state_415c86|4|1 535,1,0,0,0,0,0,0,0,0,0,0,0,0,0,536,
scooby_state_4159f6|1|1 534,0,0,0,0,0,1,0,0,0,0,0,0,0,0,535,
scooby_state_415c86|56|1 534,0,0,0,0,0,0,0,0,0,1,0,0,0,0,535,
scooby_state_415c86|62|1 535,0,0,0,0,0,0,0,0,0,0,0,0,0,0,535,
scooby_state_4159f6|14|1 534,0,0,0,0,0,0,0,1,0,0,0,0,0,0,535,
scooby_state_415c86|7|1 534,0,0,0,0,0,0,0,0,0,0,0,0,0,1,535,
scooby_state_415c86|16|1 535,0,0,0,0,0,0,0,0,0,0,0,0,0,0,535,
scooby_state_4159f6|59|1 535,0,0,0,0,0,0,0,0,0,0,0,0,0,0,535,
scooby_state_415c86|55|1 534,0,0,0,0,0,0,0,0,0,0,0,0,1,0,535,
scooby_state_415c86|41|1 533,0,0,0,1,0,0,0,0,0,0,0,0,0,1,535,
scooby_state_415766|18|1 535,0,0,0,0,0,0,0,0,0,0,0,0,0,0,535,
scooby_state_4159f6|62|1 532,0,0,0,1,0,0,1,0,0,0,0,0,1,0,535,
scooby_state_415766|47|1 535,0,0,0,0,0,0,0,0,0,0,0,0,0,0,535,
scooby_state_415766|46|1 535,0,0,0,0,0,0,0,0,0,0,0,0,0,0,535,
scooby_state_415766|3|1 533,0,0,0,0,0,0,0,0,0,0,1,0,0,1,535,
scooby_state_415766|12|1 534,0,0,0,0,0,1,0,0,0,0,0,0,0,0,535,
scooby_state_4159f6|50|1 535,0,0,0,0,0,0,0,0,0,0,0,0,0,0,535,
scooby_state_415c86|10|1 534,0,0,0,1,0,0,0,0,0,0,0,0,0,0,535,
scooby_state_4159f6|3|1 535,0,0,0,0,0,0,0,0,0,0,0,0,0,0,535,
scooby_state_4159f6|13|1 535,0,0,0,0,0,0,0,0,0,0,0,0,0,0,535,
scooby_state_415766|15|1 534,0,0,0,0,0,0,0,0,0,1,0,0,0,0,535,
scooby_state_415c86|42|1 534,0,0,0,0,0,0,0,0,0,0,1,0,0,0,535,
scooby_state_415766|14|1 535,0,0,0,0,0,0,0,0,0,0,0,0,0,0,535,
scooby_state_4200e3|21|1 534,0,0,0,0,0,0,0,0,0,0,0,0,0,0,534,
scooby_state_415766|44|1 533,0,0,0,0,1,0,0,0,0,0,0,0,0,0,534,
scooby_state_415c86|48|1 533,0,0,1,0,0,0,0,0,0,0,0,0,0,0,534,
scooby_state_415c86|43|1 533,0,0,0,0,0,0,0,0,0,0,0,0,0,1,534,
scooby_state_415766|50|1 533,0,0,0,0,0,0,0,0,0,0,0,1,0,0,534,
scooby_state_4159f6|58|1 533,0,0,1,0,0,0,0,0,0,0,0,0,0,0,534,
scooby_state_4159f6|63|1 530,1,0,0,0,0,1,0,1,0,0,0,0,1,0,534,
scooby_state_415766|52|1 533,0,1,0,0,0,0,0,0,0,0,0,0,0,0,534,
scooby_state_415766|19|1 532,0,0,0,0,0,0,0,1,0,0,0,0,1,0,534,
scooby_state_415766|10|1 532,0,1,0,0,0,0,0,0,0,0,0,0,1,0,534,
scooby_state_4159f6|43|1 533,0,0,1,0,0,0,0,0,0,0,0,0,0,0,534,
scooby_state_4159f6|4|1 534,0,0,0,0,0,0,0,0,0,0,0,0,0,0,534,
scooby_state_415766|62|1 533,0,0,0,0,0,0,0,0,0,0,0,0,1,0,534,
scooby_state_415766|63|1 532,0,0,0,0,0,0,0,1,0,0,0,0,1,0,534,
scooby_state_4159f6|42|1 533,0,0,0,0,0,0,0,0,1,0,0,0,0,0,534,
scooby_state_4159f6|9|1 534,0,0,0,0,0,0,0,0,0,0,0,0,0,0,534,
scooby_state_4159f6|52|1 533,0,0,0,0,0,0,0,0,1,0,0,0,0,0,534,
scooby_state_415c86|52|1 534,0,0,0,0,0,0,0,0,0,0,0,0,0,0,534,
scooby_state_415c86|14|1 533,0,0,0,0,1,0,0,0,0,0,0,0,0,0,534,
scooby_state_415c86|6|1 533,0,0,0,0,0,0,0,0,0,0,0,1,0,0,534,
scooby_state_4159f6|12|1 533,1,0,0,0,0,0,0,0,0,0,0,0,0,0,534,
scooby_state_415c86|18|1 532,0,0,0,1,0,0,0,0,0,0,0,0,0,1,534,
scooby_state_415766|6|1 530,1,0,0,1,0,0,0,0,0,1,0,0,0,0,533,
scooby_state_4159f6|16|1 531,0,0,0,0,0,0,0,0,1,1,0,0,0,0,533,
scooby_state_4159f6|61|1 533,0,0,0,0,0,0,0,0,0,0,0,0,0,0,533,
scooby_state_415766|59|1 531,0,0,0,0,1,0,0,0,0,0,0,0,1,0,533,
scooby_state_415c86|63|1 532,1,0,0,0,0,0,0,0,0,0,0,0,0,0,533,
scooby_state_415c86|19|1 532,0,0,0,0,0,1,0,0,0,0,0,0,0,0,533,
scooby_state_415c86|59|1 533,0,0,0,0,0,0,0,0,0,0,0,0,0,0,533,
scooby_state_42011b|32|-30 533,0,0,0,0,0,0,0,0,0,0,0,0,0,0,533,
scooby_state_4159f6|19|1 533,0,0,0,0,0,0,0,0,0,0,0,0,0,0,533,
scooby_state_415c86|3|1 532,0,0,1,0,0,0,0,0,0,0,0,0,0,0,533,
scooby_state_415c86|9|1 532,1,0,0,0,0,0,0,0,0,0,0,0,0,0,533,
scooby_state_4159f6|2|1 533,0,0,0,0,0,0,0,0,0,0,0,0,0,0,533,
scooby_state_415766|13|1 531,1,0,0,0,0,0,1,0,0,0,0,0,0,0,533,
scooby_state_4159f6|46|1 530,0,1,0,1,0,0,0,1,0,0,0,0,0,0,533,
scooby_state_4159f6|10|1 531,0,0,0,0,0,0,0,0,0,0,0,0,1,1,533,
scooby_state_415766|45|1 533,0,0,0,0,0,0,0,0,0,0,0,0,0,0,533,
scooby_state_415766|42|1 531,0,0,0,0,0,0,0,0,0,0,0,0,1,0,532,
scooby_state_415766|8|1 530,0,0,0,0,1,0,0,0,0,0,0,0,0,1,532,
scooby_state_4159f6|39|1 530,0,0,0,0,0,0,1,0,0,0,1,0,0,0,532,
scooby_state_4159f6|6|1 530,1,0,1,0,0,0,0,0,0,0,0,0,0,0,532,
scooby_state_4159f6|8|1 532,0,0,0,0,0,0,0,0,0,0,0,0,0,0,532,
scooby_state_415766|5|1 530,0,0,0,0,0,0,1,0,0,0,0,1,0,0,532,
scooby_state_415766|40|1 530,1,0,0,0,0,0,0,1,0,0,0,0,0,0,532,
scooby_state_4163ad|2|1 530,0,0,0,0,0,0,0,0,0,0,0,0,1,0,531,
scooby_state_415c86|8|1 529,0,0,0,0,0,1,0,0,0,1,0,0,0,0,531,
scooby_state_4163be|28|1 531,0,0,0,0,0,0,0,0,0,0,0,0,0,0,531,
scooby_state_415c86|5|1 527,0,0,0,1,0,0,0,0,2,1,0,0,0,0,531,
scooby_state_415c86|40|1 531,0,0,0,0,0,0,0,0,0,0,0,0,0,0,531,
scooby_state_4163be|61|1 529,0,0,0,0,1,0,0,0,0,1,0,0,0,0,531,
scooby_state_4163be|22|1 531,0,0,0,0,0,0,0,0,0,0,0,0,0,0,531,
scooby_state_415766|43|1 528,1,0,0,1,0,0,0,0,0,0,1,0,0,0,531,
scooby_state_415766|41|1 531,0,0,0,0,0,0,0,0,0,0,0,0,0,0,531,
scooby_state_415766|20|1 529,0,0,1,0,0,0,1,0,0,0,0,0,0,0,531,
scooby_state_4159f6|40|1 530,0,0,0,0,0,0,0,0,1,0,0,0,0,0,531,
scooby_state_415766|2|1 530,0,0,0,0,0,0,1,0,0,0,0,0,0,0,531,
scooby_state_4163ad|41|1 529,1,0,0,0,0,0,1,0,0,0,0,0,0,0,531,
scooby_state_4163ad|3|1 530,0,0,0,0,0,0,0,0,0,0,0,0,0,0,530,
scooby_state_4159f6|5|1 530,0,0,0,0,0,0,0,0,0,0,0,0,0,0,530,
scooby_state_415766|39|1 529,1,0,0,0,0,0,0,0,0,0,0,0,0,0,530,
scooby_state_4163ad|42|1 528,0,0,0,0,1,0,0,0,0,0,0,0,1,0,530,
scooby_state_4163be|27|1 530,0,0,0,0,0,0,0,0,0,0,0,0,0,0,530,
scooby_state_4163be|21|1 528,0,0,0,0,0,0,1,0,0,1,0,0,0,0,530,
scooby_state_4163ad|48|1 528,0,1,0,0,0,0,0,0,0,0,0,0,1,0,530,
scooby_state_4163be|62|1 529,0,0,0,0,0,0,1,0,0,0,0,0,0,0,530,
scooby_state_4163be|29|1 530,0,0,0,0,0,0,0,0,0,0,0,0,0,0,530,
scooby_state_420156|40|1 529,0,1,0,0,0,0,0,0,0,0,0,0,0,0,530,
scooby_state_4163ad|9|1 530,0,0,0,0,0,0,0,0,0,0,0,0,0,0,530,
scooby_state_4163ad|1|1 528,2,0,0,0,0,0,0,0,0,0,0,0,0,0,530,
scooby_state_4200e3|22|1 530,0,0,0,0,0,0,0,0,0,0,0,0,0,0,530,
scooby_state_4163be|60|1 529,0,0,1,0,0,0,0,0,0,0,0,0,0,0,530,
scooby_state_415766|38|1 530,0,0,0,0,0,0,0,0,0,0,0,0,0,0,530,
scooby_state_415c86|20|1 528,0,0,0,1,0,0,0,1,0,0,0,0,0,0,530,
scooby_state_415c86|2|1 529,0,0,0,0,0,0,0,0,0,0,0,1,0,0,530,
scooby_state_4163ad|8|1 529,0,0,0,0,0,0,0,0,0,0,0,0,1,0,530,
scooby_state_4163ad|49|1 529,0,0,0,0,1,0,0,0,0,0,0,0,0,0,530,
scooby_state_4163be|5|1 530,0,0,0,0,0,0,0,0,0,0,0,0,0,0,530,
scooby_state_4163ad|53|1 527,1,0,0,0,0,1,0,0,0,0,0,1,0,0,530,
scooby_state_4163ad|54|1 529,0,0,0,0,0,0,0,0,1,0,0,0,0,0,530,
scooby_state_4163be|10|1 529,0,1,0,0,0,0,0,0,0,0,0,0,0,0,530,
scooby_state_4163be|4|1 528,1,0,0,0,0,0,0,0,0,1,0,0,0,0,530,
scooby_state_4163ad|55|1 528,0,0,0,0,0,0,0,0,0,0,0,1,0,0,529,
scooby_state_4163ad|17|1 528,0,0,0,0,0,0,0,0,0,0,0,0,1,0,529,
scooby_state_4163be|23|1 528,0,0,0,1,0,0,0,0,0,0,0,0,0,0,529,
scooby_state_4163ad|40|1 527,1,0,0,0,0,0,0,0,0,0,0,0,0,1,529,
scooby_state_4163ad|52|1 528,0,0,0,0,0,0,0,1,0,0,0,0,0,0,529,
scooby_state_415c86|39|1 528,0,0,0,0,1,0,0,0,0,0,0,0,0,0,529,
scooby_state_4163ad|59|1 528,0,0,0,0,0,0,1,0,0,0,0,0,0,0,529,
scooby_state_4163be|3|1 527,0,1,0,0,0,0,0,0,0,0,0,1,0,0,529,
scooby_state_4163ad|51|1 526,0,0,1,0,0,1,0,0,0,0,1,0,0,0,529,
scooby_state_4163be|15|1 529,0,0,0,0,0,0,0,0,0,0,0,0,0,0,529,
scooby_state_4163ad|58|1 529,0,0,0,0,0,0,0,0,0,0,0,0,0,0,529,
scooby_state_4163be|6|1 528,0,0,0,0,0,1,0,0,0,0,0,0,0,0,529,
scooby_state_4163be|20|1 527,0,1,0,1,0,0,0,0,0,0,0,0,0,0,529,
scooby_state_4163ad|50|1 528,0,0,0,0,0,0,0,0,0,1,0,0,0,0,529,
scooby_state_4163be|7|1 529,0,0,0,0,0,0,0,0,0,0,0,0,0,0,529,
scooby_state_4163be|8|1 527,0,0,0,0,0,0,1,0,0,0,0,0,1,0,529,
scooby_state_4163be|9|1 528,0,0,0,0,1,0,0,0,0,0,0,0,0,0,529,
scooby_state_4163be|14|1 529,0,0,0,0,0,0,0,0,0,0,0,0,0,0,529,
scooby_state_4163be|11|1 529,0,0,0,0,0,0,0,0,0,0,0,0,0,0,529,
scooby_state_4163ad|60|1 528,0,0,0,0,0,0,0,0,0,0,0,0,0,1,529,
scooby_state_4163ad|10|1 529,0,0,0,0,0,0,0,0,0,0,0,0,0,0,529,
scooby_state_4163be|36|1 529,0,0,0,0,0,0,0,0,0,0,0,0,0,0,529,
scooby_state_4163ad|7|1 528,0,0,0,0,0,0,0,0,0,1,0,0,0,0,529,
scooby_state_415c86|21|1 527,0,0,0,0,0,0,1,0,1,0,0,0,0,0,529,
scooby_state_4159f6|38|1 529,0,0,0,0,0,0,0,0,0,0,0,0,0,0,529,
scooby_state_4163ad|16|1 529,0,0,0,0,0,0,0,0,0,0,0,0,0,0,529,
scooby_state_4163be|34|1 528,0,0,0,0,0,1,0,0,0,0,0,0,0,0,529,
scooby_state_4163be|35|1 529,0,0,0,0,0,0,0,0,0,0,0,0,0,0,529,
scooby_state_4163be|2|1 527,0,0,0,0,0,0,0,1,0,0,0,0,0,0,528,
scooby_state_4163ad|13|1 528,0,0,0,0,0,0,0,0,0,0,0,0,0,0,528,
scooby_state_4163be|16|1 526,0,0,0,1,0,0,0,1,0,0,0,0,0,0,528,
scooby_state_415766|21|1 528,0,0,0,0,0,0,0,0,0,0,0,0,0,0,528,
scooby_state_4163ad|47|1 527,0,0,0,1,0,0,0,0,0,0,0,0,0,0,528,
scooby_state_4163ad|5|1 528,0,0,0,0,0,0,0,0,0,0,0,0,0,0,528,
scooby_state_4163ad|15|1 526,0,0,0,0,1,0,0,0,0,0,0,0,1,0,528,
scooby_state_4159f6|37|1 526,0,0,1,0,0,0,0,0,1,0,0,0,0,0,528,
scooby_state_4163be|17|1 527,0,0,0,0,0,0,0,0,0,0,1,0,0,0,528,
scooby_state_4163ad|61|1 526,1,1,0,0,0,0,0,0,0,0,0,0,0,0,528,
scooby_state_4163be|33|1 527,0,0,0,0,0,0,0,0,0,0,0,0,1,0,528,
scooby_state_4163ad|56|1 527,0,0,0,0,0,0,0,0,0,0,0,0,1,0,528,
scooby_state_4163be|12|1 526,0,0,0,1,0,0,0,1,0,0,0,0,0,0,528,
scooby_state_4163ad|57|1 527,0,1,0,0,0,0,0,0,0,0,0,0,0,0,528,
scooby_state_4163be|30|1 526,0,0,0,0,0,0,0,0,0,0,1,0,0,1,528,
scooby_state_4163be|13|1 526,0,0,0,0,0,1,0,0,0,0,1,0,0,0,528,
scooby_state_4163be|26|1 528,0,0,0,0,0,0,0,0,0,0,0,0,0,0,528,
scooby_state_4163ad|6|1 528,0,0,0,0,0,0,0,0,0,0,0,0,0,0,528,
scooby_state_4163be|37|1 528,0,0,0,0,0,0,0,0,0,0,0,0,0,0,528,
scooby_state_4163ad|4|1 526,0,0,0,0,0,0,0,0,0,1,0,1,0,0,528,
scooby_state_4163ad|14|1 527,0,0,0,0,0,0,0,1,0,0,0,0,0,0,528,
scooby_state_4163ad|43|1 527,0,0,0,0,0,0,0,0,0,0,0,0,1,0,528,
scooby_state_4159f6|20|1 528,0,0,0,0,0,0,0,0,0,0,0,0,0,0,528,
scooby_state_415c86|38|1 526,0,1,0,0,0,1,0,0,0,0,0,0,0,0,528,
scooby_state_4163be|63|1 527,1,0,0,0,0,0,0,0,0,0,0,0,0,0,528,
scooby_state_4163be|25|1 527,0,0,0,0,0,0,0,0,0,0,0,0,0,1,528,
scooby_state_4163be|24|1 528,0,0,0,0,0,0,0,0,0,0,0,0,0,0,528,
scooby_state_4163be|32|1 527,0,0,0,0,0,0,0,0,0,0,0,0,0,0,527,
scooby_state_4163be|1|1 525,0,0,0,0,0,0,0,0,0,0,1,0,1,0,527,
scooby_state_4163ad|11|1 527,0,0,0,0,0,0,0,0,0,0,0,0,0,0,527,
scooby_state_4163ad|0|0 527,0,0,0,0,0,0,0,0,0,0,0,0,0,0,527,
scooby_state_4163ad|12|1 526,0,0,0,0,0,0,0,0,1,0,0,0,0,0,527,
scooby_state_4163ad|44|1 526,1,0,0,0,0,0,0,0,0,0,0,0,0,0,527,
scooby_state_4163cf|30|1 526,0,0,0,0,0,0,0,0,0,0,0,0,0,1,527,
scooby_state_4163ad|45|1 526,0,0,0,0,0,0,0,0,0,0,0,0,1,0,527,
scooby_state_4163be|31|1 524,0,2,0,0,0,0,0,0,0,0,0,0,1,0,527,
scooby_state_4163be|0|0 527,0,0,0,0,0,0,0,0,0,0,0,0,0,0,527,
scooby_state_4163ad|46|1 525,0,0,1,0,0,0,0,1,0,0,0,0,0,0,527,
scooby_state_4163be|18|1 525,1,0,0,0,0,0,1,0,0,0,0,0,0,0,527,
scooby_state_4163ad|63|1 526,0,0,0,0,0,0,0,0,0,0,1,0,0,0,527,
scooby_state_415c86|23|1 525,0,0,0,0,0,0,0,1,0,1,0,0,0,0,527,
scooby_state_4163be|19|1 526,0,0,0,0,0,0,0,1,0,0,0,0,0,0,527,
scooby_state_4159f6|21|1 526,1,0,0,0,0,0,0,0,0,0,0,0,0,0,527,
scooby_state_4163ad|62|1 527,0,0,0,0,0,0,0,0,0,0,0,0,0,0,527,
scooby_state_415c86|22|1 523,0,0,0,0,0,0,0,0,0,1,0,0,1,1,526,
scooby_state_4159f6|23|1 526,0,0,0,0,0,0,0,0,0,0,0,0,0,0,526,
scooby_state_4200e3|23|1 525,0,0,0,0,0,0,0,0,0,0,1,0,0,0,526,
scooby_state_415766|35|1 525,0,0,0,0,0,0,0,1,0,0,0,0,0,0,526,
scooby_state_4163cf|34|1 526,0,0,0,0,0,0,0,0,0,0,0,0,0,0,526,
scooby_state_4163be|38|1 525,0,0,0,0,1,0,0,0,0,0,0,0,0,0,526,
scooby_state_4163cf|7|1 525,0,1,0,0,0,0,0,0,0,0,0,0,0,0,526,
scooby_state_4163ad|18|1 524,1,0,0,1,0,0,0,0,0,0,0,0,0,0,526,
scooby_state_4163be|59|1 526,0,0,0,0,0,0,0,0,0,0,0,0,0,0,526,
scooby_state_4159f6|36|1 525,0,0,0,0,0,0,1,0,0,0,0,0,0,0,526,
scooby_state_4163cf|8|1 525,0,0,0,0,0,0,0,0,0,0,0,0,0,0,525,
scooby_state_4163be|39|1 525,0,0,0,0,0,0,0,0,0,0,0,0,0,0,525,
scooby_state_415c86|24|1 524,0,1,0,0,0,0,0,0,0,0,0,0,0,0,525,
scooby_state_4163cf|15|1 524,0,0,0,0,0,0,0,0,0,0,0,0,1,0,525,
scooby_state_4163cf|19|1 525,0,0,0,0,0,0,0,0,0,0,0,0,0,0,525,
scooby_state_4163cf|32|1 525,0,0,0,0,0,0,0,0,0,0,0,0,0,0,525,
scooby_state_415c86|35|1 525,0,0,0,0,0,0,0,0,0,0,0,0,0,0,525,
scooby_state_415766|37|1 525,0,0,0,0,0,0,0,0,0,0,0,0,0,0,525,
scooby_state_4163cf|46|1 525,0,0,0,0,0,0,0,0,0,0,0,0,0,0,525,
scooby_state_415766|22|1 525,0,0,0,0,0,0,0,0,0,0,0,0,0,0,525,
scooby_state_42011b|24|-30 523,1,0,0,0,0,0,0,0,0,0,0,0,0,1,525,
scooby_state_4163cf|22|1 525,0,0,0,0,0,0,0,0,0,0,0,0,0,0,525,
scooby_state_4163cf|39|1 525,0,0,0,0,0,0,0,0,0,0,0,0,0,0,525,
scooby_state_4163cf|21|1 525,0,0,0,0,0,0,0,0,0,0,0,0,0,0,525,
scooby_state_4163ad|39|1 525,0,0,0,0,0,0,0,0,0,0,0,0,0,0,525,
scooby_state_415c8e|19|1 524,0,0,0,0,0,0,0,0,0,0,0,0,0,0,524,
scooby_state_416375|41|1 521,0,0,0,2,0,1,0,0,0,0,0,0,0,0,524,
scooby_state_41635b|29|1 524,0,0,0,0,0,0,0,0,0,0,0,0,0,0,524,
scooby_state_4159f6|22|1 523,0,0,0,0,0,1,0,0,0,0,0,0,0,0,524,
scooby_state_41576e|61|1 523,0,0,0,0,0,0,0,0,0,0,0,1,0,0,524,
scooby_state_41635b|31|1 524,0,0,0,0,0,0,0,0,0,0,0,0,0,0,524,
scooby_state_41576e|62|1 523,0,0,0,0,0,0,0,0,1,0,0,0,0,0,524,
scooby_state_416375|57|1 524,0,0,0,0,0,0,0,0,0,0,0,0,0,0,524,
scooby_state_41576e|3|1 523,0,0,0,0,0,0,0,0,0,0,0,1,0,0,524,
scooby_state_41576e|0|0 523,0,0,0,0,0,0,0,0,0,0,0,0,1,0,524,
scooby_state_416375|54|1 523,1,0,0,0,0,0,0,0,0,0,0,0,0,0,524,
scooby_state_41635b|28|1 524,0,0,0,0,0,0,0,0,0,0,0,0,0,0,524,
scooby_state_41576e|63|1 522,0,0,0,0,0,0,0,0,0,0,1,0,1,0,524,
scooby_state_41576e|1|1 524,0,0,0,0,0,0,0,0,0,0,0,0,0,0,524,
scooby_state_41638a|41|1 524,0,0,0,0,0,0,0,0,0,0,0,0,0,0,524,
scooby_state_41635b|17|1 524,0,0,0,0,0,0,0,0,0,0,0,0,0,0,524,
scooby_state_416368|41|1 524,0,0,0,0,0,0,0,0,0,0,0,0,0,0,524,
scooby_state_41576e|2|1 523,0,0,1,0,0,0,0,0,0,0,0,0,0,0,524,
scooby_state_416368|57|1 524,0,0,0,0,0,0,0,0,0,0,0,0,0,0,524,
scooby_state_416352|41|1 522,0,0,1,0,0,0,0,0,0,0,0,0,0,1,524,
scooby_state_416375|55|1 524,0,0,0,0,0,0,0,0,0,0,0,0,0,0,524,
scooby_state_416352|57|1 523,0,0,0,0,0,0,0,0,1,0,0,0,0,0,524,
scooby_state_416352|55|1 523,0,0,0,1,0,0,0,0,0,0,0,0,0,0,524,
scooby_state_41638a|50|1 524,0,0,0,0,0,0,0,0,0,0,0,0,0,0,524,
scooby_state_4163cf|33|1 523,1,0,0,0,0,0,0,0,0,0,0,0,0,0,524,
scooby_state_416368|56|1 522,0,0,0,0,0,0,0,0,1,0,1,0,0,0,524,
scooby_state_41635b|30|1 524,0,0,0,0,0,0,0,0,0,0,0,0,0,0,524,
scooby_state_415c8e|17|1 523,0,0,0,0,0,0,0,0,0,0,0,1,0,0,524,
scooby_state_4163cf|23|1 523,0,0,0,0,0,0,0,1,0,0,0,0,0,0,524,
scooby_state_4159fe|7|1 523,0,1,0,0,0,0,0,0,0,0,0,0,0,0,524,
scooby_state_4159fe|10|1 523,0,1,0,0,0,0,0,0,0,0,0,0,0,0,524,
scooby_state_416375|56|1 523,0,0,0,0,0,0,0,0,1,0,0,0,0,0,524,
scooby_state_4159fe|6|1 524,0,0,0,0,0,0,0,0,0,0,0,0,0,0,524,
scooby_state_415c8e|7|1 521,0,0,0,0,1,0,0,1,1,0,0,0,0,0,524,
scooby_state_4163cf|16|1 523,0,0,0,0,0,0,0,1,0,0,0,0,0,0,524,
scooby_state_41635b|27|1 524,0,0,0,0,0,0,0,0,0,0,0,0,0,0,524,
scooby_state_415c8e|16|1 524,0,0,0,0,0,0,0,0,0,0,0,0,0,0,524,
scooby_state_4159f6|24|1 522,0,0,0,1,0,0,1,0,0,0,0,0,0,0,524,
scooby_state_4163ad|19|1 522,0,0,1,0,0,0,0,0,0,0,0,1,0,0,524,
scooby_state_415c8e|22|1 520,0,2,0,0,0,0,0,0,0,1,0,1,0,0,524,
scooby_state_416352|56|1 523,0,0,0,0,0,0,0,0,0,0,1,0,0,0,524,
scooby_state_415c8e|23|1 524,0,0,0,0,0,0,0,0,0,0,0,0,0,0,524,
scooby_state_415c8e|21|1 524,0,0,0,0,0,0,0,0,0,0,0,0,0,0,524,
scooby_state_415c8e|18|1 523,0,0,0,0,1,0,0,0,0,0,0,0,0,0,524,
scooby_state_4159fe|61|1 524,0,0,0,0,0,0,0,0,0,0,0,0,0,0,524,
scooby_state_416368|53|1 523,0,0,0,0,0,0,0,0,0,0,0,1,0,0,524,
scooby_state_41576e|60|1 522,0,0,1,0,0,0,0,0,0,0,1,0,0,0,524,
scooby_state_4200e3|24|1 523,0,0,1,0,0,0,0,0,0,0,0,0,0,0,524,
scooby_state_416352|51|1 522,1,0,0,1,0,0,0,0,0,0,0,0,0,0,524,
scooby_state_41635b|26|1 521,0,0,2,0,0,0,0,0,0,1,0,0,0,0,524,
scooby_state_416368|50|1 524,0,0,0,0,0,0,0,0,0,0,0,0,0,0,524,
scooby_state_41638a|53|1 524,0,0,0,0,0,0,0,0,0,0,0,0,0,0,524,
scooby_state_4159fe|13|1 523,0,0,0,0,0,0,0,0,0,0,1,0,0,0,524,
scooby_state_416368|51|1 524,0,0,0,0,0,0,0,0,0,0,0,0,0,0,524,
scooby_state_416375|53|1 524,0,0,0,0,0,0,0,0,0,0,0,0,0,0,524,
scooby_state_4163cf|42|1 524,0,0,0,0,0,0,0,0,0,0,0,0,0,0,524,
scooby_state_41638a|57|1 523,1,0,0,0,0,0,0,0,0,0,0,0,0,0,524,
scooby_state_41635b|33|1 521,1,0,0,0,0,0,0,0,1,0,1,0,0,0,524,
scooby_state_416352|50|1 523,0,0,0,0,0,1,0,0,0,0,0,0,0,0,524,
scooby_state_416375|51|1 524,0,0,0,0,0,0,0,0,0,0,0,0,0,0,524,
scooby_state_4163cf|17|1 523,0,0,0,0,0,0,0,0,0,0,1,0,0,0,524,
scooby_state_4159fe|12|1 522,0,1,0,0,0,0,1,0,0,0,0,0,0,0,524,
scooby_state_416352|53|1 523,0,0,0,0,1,0,0,0,0,0,0,0,0,0,524,
scooby_state_416352|52|1 523,0,0,0,0,0,0,0,0,0,0,0,0,1,0,524,
scooby_state_416368|52|1 523,0,0,0,0,0,1,0,0,0,0,0,0,0,0,524,
scooby_state_41638a|52|1 523,0,0,0,0,0,0,0,1,0,0,0,0,0,0,524,
scooby_state_41635b|32|1 523,0,0,1,0,0,0,0,0,0,0,0,0,0,0,524,
scooby_state_4163cf|18|1 521,0,0,0,0,1,0,0,0,0,0,0,1,1,0,524,
scooby_state_41638a|56|1 524,0,0,0,0,0,0,0,0,0,0,0,0,0,0,524,
scooby_state_41638a|54|1 524,0,0,0,0,0,0,0,0,0,0,0,0,0,0,524,
scooby_state_416368|55|1 524,0,0,0,0,0,0,0,0,0,0,0,0,0,0,524,
scooby_state_4163cf|14|1 523,0,0,0,0,0,0,0,0,0,0,0,0,0,1,524,
scooby_state_4159fe|11|1 524,0,0,0,0,0,0,0,0,0,0,0,0,0,0,524,
scooby_state_416368|54|1 522,0,0,0,0,0,0,0,0,0,0,2,0,0,0,524,
scooby_state_415c8e|20|1 524,0,0,0,0,0,0,0,0,0,0,0,0,0,0,524,
scooby_state_4159fe|8|1 523,0,0,0,0,0,0,0,0,0,0,0,0,0,1,524,
scooby_state_41576e|51|1 523,0,0,0,1,0,0,0,0,0,0,0,0,0,0,524,
scooby_state_4163cf|20|1 523,0,0,1,0,0,0,0,0,0,0,0,0,0,0,524,
scooby_state_41638a|55|1 523,0,0,1,0,0,0,0,0,0,0,0,0,0,0,524,
scooby_state_41638a|51|1 523,0,0,0,0,0,1,0,0,0,0,0,0,0,0,524,
scooby_state_4163cf|41|1 524,0,0,0,0,0,0,0,0,0,0,0,0,0,0,524,
scooby_state_4163cf|47|1 524,0,0,0,0,0,0,0,0,0,0,0,0,0,0,524,
scooby_state_4159fe|9|1 524,0,0,0,0,0,0,0,0,0,0,0,0,0,0,524,
scooby_state_416352|54|1 523,0,0,0,0,0,0,0,0,0,1,0,0,0,0,524,
scooby_state_416375|50|1 521,0,1,1,0,0,0,0,0,0,0,0,1,0,0,524,
scooby_state_4163cf|25|1 522,1,0,0,0,0,0,0,0,0,0,0,0,1,0,524,
scooby_state_416375|52|1 523,0,0,0,1,0,0,0,0,0,0,0,0,0,0,524,
scooby_state_416368|2|1 522,0,0,0,0,0,0,1,0,0,0,0,0,0,0,523,
scooby_state_415c8e|33|1 522,0,0,0,0,1,0,0,0,0,0,0,0,0,0,523,
scooby_state_415c8e|34|1 523,0,0,0,0,0,0,0,0,0,0,0,0,0,0,523,
scooby_state_415c8e|31|1 521,0,0,0,0,0,1,0,1,0,0,0,0,0,0,523,
scooby_state_416352|17|1 523,0,0,0,0,0,0,0,0,0,0,0,0,0,0,523,
scooby_state_41635b|49|1 522,0,0,0,0,1,0,0,0,0,0,0,0,0,0,523,
scooby_state_415c8e|32|1 523,0,0,0,0,0,0,0,0,0,0,0,0,0,0,523,
scooby_state_41635b|18|1 522,0,0,0,1,0,0,0,0,0,0,0,0,0,0,523,
scooby_state_415c8e|38|1 523,0,0,0,0,0,0,0,0,0,0,0,0,0,0,523,
scooby_state_4159fe|23|1 522,0,0,0,0,0,1,0,0,0,0,0,0,0,0,523,
scooby_state_416352|42|1 523,0,0,0,0,0,0,0,0,0,0,0,0,0,0,523,
scooby_state_4159fe|5|1 523,0,0,0,0,0,0,0,0,0,0,0,0,0,0,523,
scooby_state_41576e|27|1 520,2,0,0,0,0,0,0,1,0,0,0,0,0,0,523,
scooby_state_4159fe|14|1 523,0,0,0,0,0,0,0,0,0,0,0,0,0,0,523,
scooby_state_415c8e|48|1 521,0,0,0,0,0,0,0,0,0,1,0,0,1,0,523,
scooby_state_4159fe|62|1 523,0,0,0,0,0,0,0,0,0,0,0,0,0,0,523,
scooby_state_416375|58|1 521,0,1,0,0,0,1,0,0,0,0,0,0,0,0,523,
scooby_state_416375|7|1 523,0,0,0,0,0,0,0,0,0,0,0,0,0,0,523,
scooby_state_4163cf|24|1 522,0,0,0,0,0,0,0,0,0,0,1,0,0,0,523,
scooby_state_41576e|50|1 523,0,0,0,0,0,0,0,0,0,0,0,0,0,0,523,
scooby_state_415c8e|39|1 522,0,0,1,0,0,0,0,0,0,0,0,0,0,0,523,
scooby_state_41576e|28|1 522,0,0,0,0,0,0,0,0,0,1,0,0,0,0,523,
scooby_state_416352|58|1 523,0,0,0,0,0,0,0,0,0,0,0,0,0,0,523,
scooby_state_41638a|7|1 523,0,0,0,0,0,0,0,0,0,0,0,0,0,0,523,
scooby_state_4159f6|35|1 520,1,1,0,0,0,0,0,0,0,0,0,0,1,0,523,
scooby_state_415c8e|36|1 522,0,0,0,0,0,1,0,0,0,0,0,0,0,0,523,
scooby_state_415c8e|35|1 521,0,0,0,0,0,0,0,1,0,0,0,0,0,1,523,
scooby_state_41576e|16|1 523,0,0,0,0,0,0,0,0,0,0,0,0,0,0,523,
scooby_state_415c86|34|1 523,0,0,0,0,0,0,0,0,0,0,0,0,0,0,523,
scooby_state_416375|40|1 521,0,0,0,1,0,0,0,0,0,1,0,0,0,0,523,
scooby_state_41576e|12|1 522,0,0,0,0,0,0,0,0,0,0,0,0,0,1,523,
scooby_state_41576e|19|1 520,0,1,0,0,0,1,0,0,0,0,1,0,0,0,523,
scooby_state_416375|49|1 523,0,0,0,0,0,0,0,0,0,0,0,0,0,0,523,
scooby_state_4159fe|24|1 523,0,0,0,0,0,0,0,0,0,0,0,0,0,0,523,
scooby_state_4163cf|36|1 523,0,0,0,0,0,0,0,0,0,0,0,0,0,0,523,
scooby_state_4159fe|25|1 523,0,0,0,0,0,0,0,0,0,0,0,0,0,0,523,
scooby_state_4159fe|26|1 523,0,0,0,0,0,0,0,0,0,0,0,0,0,0,523,
scooby_state_4159fe|28|1 523,0,0,0,0,0,0,0,0,0,0,0,0,0,0,523,
scooby_state_41638a|8|1 522,0,0,1,0,0,0,0,0,0,0,0,0,0,0,523,
scooby_state_4163cf|6|1 522,0,0,0,0,0,1,0,0,0,0,0,0,0,0,523,
scooby_state_4159fe|29|1 522,0,0,0,1,0,0,0,0,0,0,0,0,0,0,523,
scooby_state_41635b|46|1 522,0,0,0,0,0,0,0,0,0,0,0,1,0,0,523,
scooby_state_41635b|41|1 522,0,0,0,0,0,0,0,0,0,0,0,0,1,0,523,
scooby_state_415c8e|47|1 521,0,0,0,0,0,0,0,1,0,1,0,0,0,0,523,
scooby_state_41635b|48|1 522,0,0,0,0,0,0,0,0,1,0,0,0,0,0,523,
scooby_state_41576e|11|1 522,0,0,1,0,0,0,0,0,0,0,0,0,0,0,523,
scooby_state_416352|2|1 521,1,0,0,0,0,0,0,0,0,0,1,0,0,0,523,
scooby_state_415c8e|37|1 523,0,0,0,0,0,0,0,0,0,0,0,0,0,0,523,
scooby_state_4159fe|37|1 522,0,0,0,0,0,1,0,0,0,0,0,0,0,0,523,
scooby_state_416352|49|1 522,0,0,0,0,0,0,0,1,0,0,0,0,0,0,523,
scooby_state_41576e|52|1 522,0,0,0,0,0,0,0,0,0,0,0,1,0,0,523,
scooby_state_4159fe|21|1 523,0,0,0,0,0,0,0,0,0,0,0,0,0,0,523,
scooby_state_4163cf|31|1 521,0,0,1,0,0,1,0,0,0,0,0,0,0,0,523,
scooby_state_416375|2|1 523,0,0,0,0,0,0,0,0,0,0,0,0,0,0,523,
scooby_state_416375|5|1 522,0,0,0,0,1,0,0,0,0,0,0,0,0,0,523,
scooby_state_41576e|17|1 523,0,0,0,0,0,0,0,0,0,0,0,0,0,0,523,
scooby_state_41576e|15|1 523,0,0,0,0,0,0,0,0,0,0,0,0,0,0,523,
scooby_state_4159fe|60|1 522,0,0,0,0,0,0,0,0,0,0,0,0,1,0,523,
scooby_state_416368|8|1 521,0,0,0,0,0,2,0,0,0,0,0,0,0,0,523,
scooby_state_416368|6|1 522,0,0,0,0,0,1,0,0,0,0,0,0,0,0,523,
scooby_state_41576e|18|1 523,0,0,0,0,0,0,0,0,0,0,0,0,0,0,523,
scooby_state_415c8e|15|1 521,0,0,2,0,0,0,0,0,0,0,0,0,0,0,523,
scooby_state_415c8e|6|1 522,0,0,0,1,0,0,0,0,0,0,0,0,0,0,523,
scooby_state_4159fe|38|1 523,0,0,0,0,0,0,0,0,0,0,0,0,0,0,523,
scooby_state_415c86|37|1 522,0,0,0,0,0,0,0,0,1,0,0,0,0,0,523,
scooby_state_416352|18|1 523,0,0,0,0,0,0,0,0,0,0,0,0,0,0,523,
scooby_state_41576e|14|1 521,0,0,0,0,0,0,1,0,0,0,1,0,0,0,523,
scooby_state_41576e|13|1 522,0,0,0,0,1,0,0,0,0,0,0,0,0,0,523,
scooby_state_4163cf|40|1 523,0,0,0,0,0,0,0,0,0,0,0,0,0,0,523,
scooby_state_416368|49|1 523,0,0,0,0,0,0,0,0,0,0,0,0,0,0,523,
scooby_state_41576e|4|1 522,0,0,0,0,0,0,0,0,0,0,0,0,0,1,523,
scooby_state_41638a|42|1 523,0,0,0,0,0,0,0,0,0,0,0,0,0,0,523,
scooby_state_41638a|2|1 523,0,0,0,0,0,0,0,0,0,0,0,0,0,0,523,
scooby_state_416368|40|1 523,0,0,0,0,0,0,0,0,0,0,0,0,0,0,523,
scooby_state_41638a|49|1 522,0,0,0,0,0,0,0,0,0,1,0,0,0,0,523,
scooby_state_41638a|17|1 523,0,0,0,0,0,0,0,0,0,0,0,0,0,0,523,
scooby_state_416352|3|1 522,0,0,0,0,0,0,0,0,0,0,0,0,0,1,523,
scooby_state_41635b|43|1 522,0,0,0,0,0,0,0,0,0,0,1,0,0,0,523,
scooby_state_416368|3|1 523,0,0,0,0,0,0,0,0,0,0,0,0,0,0,523,
scooby_state_416375|17|1 522,0,0,1,0,0,0,0,0,0,0,0,0,0,0,523,
scooby_state_416375|3|1 520,0,1,0,0,0,1,0,0,0,1,0,0,0,0,523,
scooby_state_41635b|42|1 522,0,0,0,0,0,0,1,0,0,0,0,0,0,0,523,
scooby_state_416368|17|1 523,0,0,0,0,0,0,0,0,0,0,0,0,0,0,523,
scooby_state_41638a|3|1 522,0,0,0,0,0,0,0,0,0,0,0,1,0,0,523,
scooby_state_416352|4|1 520,0,0,0,0,0,0,1,0,0,0,1,1,0,0,523,
scooby_state_41635b|44|1 523,0,0,0,0,0,0,0,0,0,0,0,0,0,0,523,
scooby_state_4163cf|37|1 523,0,0,0,0,0,0,0,0,0,0,0,0,0,0,523,
scooby_state_416368|4|1 522,0,1,0,0,0,0,0,0,0,0,0,0,0,0,523,
scooby_state_416375|4|1 523,0,0,0,0,0,0,0,0,0,0,0,0,0,0,523,
scooby_state_41635b|34|1 523,0,0,0,0,0,0,0,0,0,0,0,0,0,0,523,
scooby_state_416352|5|1 522,0,1,0,0,0,0,0,0,0,0,0,0,0,0,523,
scooby_state_416375|42|1 523,0,0,0,0,0,0,0,0,0,0,0,0,0,0,523,
scooby_state_41638a|18|1 521,0,0,0,1,0,0,0,0,0,0,0,1,0,0,523,
scooby_state_416368|9|1 523,0,0,0,0,0,0,0,0,0,0,0,0,0,0,523,
scooby_state_4163cf|48|1 523,0,0,0,0,0,0,0,0,0,0,0,0,0,0,523,
scooby_state_416352|40|1 523,0,0,0,0,0,0,0,0,0,0,0,0,0,0,523,
scooby_state_41635b|16|1 520,0,1,0,0,1,0,0,1,0,0,0,0,0,0,523,
scooby_state_4163cf|26|1 523,0,0,0,0,0,0,0,0,0,0,0,0,0,0,523,
scooby_state_416352|1|1 523,0,0,0,0,0,0,0,0,0,0,0,0,0,0,523,
scooby_state_41638a|40|1 523,0,0,0,0,0,0,0,0,0,0,0,0,0,0,523,
scooby_state_416368|42|1 519,0,0,0,1,0,0,0,0,1,1,0,0,1,0,523,
scooby_state_416368|7|1 523,0,0,0,0,0,0,0,0,0,0,0,0,0,0,523,
scooby_state_416375|18|1 522,0,0,0,0,0,0,0,0,0,1,0,0,0,0,523,
scooby_state_416368|18|1 520,0,0,0,0,0,1,0,1,0,0,0,1,0,0,523,
scooby_state_415766|36|1 522,0,0,0,0,0,0,0,0,0,1,0,0,0,0,523,
scooby_state_41638a|58|1 521,0,0,0,0,0,0,0,0,0,0,0,1,1,0,523,
scooby_state_416368|58|1 521,0,0,0,0,0,0,1,1,0,0,0,0,0,0,523,
scooby_state_4163ad|20|1 523,0,0,0,0,0,0,0,0,0,0,0,0,0,0,523,
scooby_state_4163be|40|1 523,0,0,0,0,0,0,0,0,0,0,0,0,0,0,523,
scooby_state_415c8e|24|1 521,0,1,0,0,0,0,0,0,0,0,0,1,0,0,523,
scooby_state_416368|1|1 521,0,0,0,0,0,1,0,0,0,0,0,0,0,1,523,
scooby_state_41635b|47|1 520,0,0,0,0,0,0,0,0,1,0,0,2,0,0,523,
scooby_state_41635b|25|1 522,0,0,0,0,0,0,0,0,0,1,0,0,0,0,523,
scooby_state_416375|6|1 523,0,0,0,0,0,0,0,0,0,0,0,0,0,0,523,
scooby_state_41638a|6|1 523,0,0,0,0,0,0,0,0,0,0,0,0,0,0,523,
scooby_state_416352|8|1 519,0,1,0,1,0,1,0,0,0,0,0,0,1,0,523,
scooby_state_41638a|4|1 523,0,0,0,0,0,0,0,0,0,0,0,0,0,0,523,
scooby_state_41638a|1|1 518,0,3,0,0,0,0,1,1,0,0,0,0,0,0,523,
scooby_state_4159fe|22|1 520,0,0,0,0,0,0,1,0,1,0,0,0,1,0,523,
scooby_state_415c8e|8|1 521,0,1,0,0,0,0,0,0,1,0,0,0,0,0,523,
scooby_state_416375|9|1 523,0,0,0,0,0,0,0,0,0,0,0,0,0,0,523,
scooby_state_4163cf|38|1 523,0,0,0,0,0,0,0,0,0,0,0,0,0,0,523,
scooby_state_416375|8|1 523,0,0,0,0,0,0,0,0,0,0,0,0,0,0,523,
scooby_state_416352|7|1 523,0,0,0,0,0,0,0,0,0,0,0,0,0,0,523,
scooby_state_41576e|59|1 521,0,0,0,0,0,0,1,1,0,0,0,0,0,0,523,
scooby_state_41635b|58|1 523,0,0,0,0,0,0,0,0,0,0,0,0,0,0,523,
scooby_state_416352|6|1 523,0,0,0,0,0,0,0,0,0,0,0,0,0,0,523,
scooby_state_4159fe|27|1 521,1,0,0,0,0,0,1,0,0,0,0,0,0,0,523,
scooby_state_4163cf|35|1 522,0,0,0,0,1,0,0,0,0,0,0,0,0,0,523,
scooby_state_41635b|45|1 520,0,0,1,0,0,0,0,1,0,0,1,0,0,0,523,
scooby_state_41635b|57|1 523,0,0,0,0,0,0,0,0,0,0,0,0,0,0,523,
scooby_state_41638a|5|1 522,0,0,0,0,0,0,0,0,0,0,0,0,1,0,523,
scooby_state_416375|1|1 521,0,0,0,0,0,0,0,2,0,0,0,0,0,0,523,
scooby_state_416368|5|1 521,0,0,0,0,0,0,0,0,0,0,0,0,0,2,523,
scooby_state_41638a|9|1 523,0,0,0,0,0,0,0,0,0,0,0,0,0,0,523,
scooby_state_416352|9|1 522,0,0,0,0,1,0,0,0,0,0,0,0,0,0,523,
scooby_state_41635b|56|1 520,0,0,0,1,0,0,0,0,0,0,0,0,0,1,522,
scooby_state_41576e|55|1 521,0,0,0,0,1,0,0,0,0,0,0,0,0,0,522,
scooby_state_4163cf|44|1 522,0,0,0,0,0,0,0,0,0,0,0,0,0,0,522,
scooby_state_41638a|61|1 520,0,0,0,0,0,1,0,0,0,0,0,0,0,1,522,
scooby_state_41638a|47|1 522,0,0,0,0,0,0,0,0,0,0,0,0,0,0,522,
scooby_state_4159fe|2|1 520,1,0,0,0,0,0,0,0,0,1,0,0,0,0,522,
scooby_state_416352|61|1 520,1,0,0,1,0,0,0,0,0,0,0,0,0,0,522,
scooby_state_41635b|20|1 522,0,0,0,0,0,0,0,0,0,0,0,0,0,0,522,
scooby_state_4159fe|0|0 521,0,0,0,0,0,1,0,0,0,0,0,0,0,0,522,
scooby_state_41635b|37|1 520,0,0,0,0,0,0,0,0,0,0,1,0,1,0,522,
scooby_state_416375|47|1 522,0,0,0,0,0,0,0,0,0,0,0,0,0,0,522,
scooby_state_416375|61|1 521,0,0,0,0,0,0,0,1,0,0,0,0,0,0,522,
scooby_state_416375|14|1 520,0,0,0,0,0,0,0,0,1,0,1,0,0,0,522,
scooby_state_41635b|22|1 521,0,1,0,0,0,0,0,0,0,0,0,0,0,0,522,
scooby_state_416368|16|1 522,0,0,0,0,0,0,0,0,0,0,0,0,0,0,522,
scooby_state_4159fe|19|1 521,0,0,0,0,0,1,0,0,0,0,0,0,0,0,522,
scooby_state_4159fe|20|1 521,0,0,0,0,0,0,0,0,0,0,0,0,0,1,522,
scooby_state_4163cf|45|1 522,0,0,0,0,0,0,0,0,0,0,0,0,0,0,522,
scooby_state_4163ad|38|1 522,0,0,0,0,0,0,0,0,0,0,0,0,0,0,522,
scooby_state_416352|47|1 521,0,0,1,0,0,0,0,0,0,0,0,0,0,0,522,
scooby_state_4159fe|16|1 522,0,0,0,0,0,0,0,0,0,0,0,0,0,0,522,
scooby_state_4159fe|30|1 522,0,0,0,0,0,0,0,0,0,0,0,0,0,0,522,
scooby_state_4159fe|15|1 521,0,0,0,0,1,0,0,0,0,0,0,0,0,0,522,
scooby_state_41638a|60|1 520,0,0,0,0,0,0,0,0,0,0,0,0,1,1,522,
scooby_state_4163cf|27|1 521,0,0,0,0,0,1,0,0,0,0,0,0,0,0,522,
scooby_state_41635b|55|1 521,0,0,0,1,0,0,0,0,0,0,0,0,0,0,522,
scooby_state_415c8e|46|1 521,0,0,0,0,0,0,0,0,0,0,1,0,0,0,522,
scooby_state_41635b|54|1 520,0,0,0,0,0,0,0,1,1,0,0,0,0,0,522,
scooby_state_416368|59|1 522,0,0,0,0,0,0,0,0,0,0,0,0,0,0,522,
scooby_state_416368|60|1 522,0,0,0,0,0,0,0,0,0,0,0,0,0,0,522,
scooby_state_416375|60|1 522,0,0,0,0,0,0,0,0,0,0,0,0,0,0,522,
scooby_state_41638a|15|1 521,0,0,0,0,1,0,0,0,0,0,0,0,0,0,522,
scooby_state_416352|14|1 522,0,0,0,0,0,0,0,0,0,0,0,0,0,0,522,
scooby_state_41638a|59|1 522,0,0,0,0,0,0,0,0,0,0,0,0,0,0,522,
scooby_state_415c8e|10|1 521,0,0,0,0,0,0,1,0,0,0,0,0,0,0,522,
scooby_state_416375|15|1 522,0,0,0,0,0,0,0,0,0,0,0,0,0,0,522,
scooby_state_415c8e|14|1 522,0,0,0,0,0,0,0,0,0,0,0,0,0,0,522,
scooby_state_4159fe|3|1 521,1,0,0,0,0,0,0,0,0,0,0,0,0,0,522,
scooby_state_415c8e|42|1 521,0,0,0,0,0,0,0,0,0,1,0,0,0,0,522,
scooby_state_415c8e|40|1 522,0,0,0,0,0,0,0,0,0,0,0,0,0,0,522,
scooby_state_415c8e|30|1 522,0,0,0,0,0,0,0,0,0,0,0,0,0,0,522,
scooby_state_41576e|22|1 522,0,0,0,0,0,0,0,0,0,0,0,0,0,0,522,
scooby_state_41638a|11|1 522,0,0,0,0,0,0,0,0,0,0,0,0,0,0,522,
scooby_state_416352|11|1 519,0,1,1,0,0,0,0,0,0,0,1,0,0,0,522,
scooby_state_41576e|10|1 520,0,0,1,0,0,1,0,0,0,0,0,0,0,0,522,
scooby_state_415c8e|13|1 519,0,0,0,1,0,0,0,0,0,0,0,1,0,1,522,
scooby_state_416368|44|1 522,0,0,0,0,0,0,0,0,0,0,0,0,0,0,522,
scooby_state_416368|11|1 522,0,0,0,0,0,0,0,0,0,0,0,0,0,0,522,
scooby_state_416375|12|1 522,0,0,0,0,0,0,0,0,0,0,0,0,0,0,522,
scooby_state_41576e|58|1 522,0,0,0,0,0,0,0,0,0,0,0,0,0,0,522,
scooby_state_416352|13|1 521,0,0,0,0,0,1,0,0,0,0,0,0,0,0,522,
scooby_state_416352|0|0 521,0,0,0,1,0,0,0,0,0,0,0,0,0,0,522,
scooby_state_41638a|10|1 522,0,0,0,0,0,0,0,0,0,0,0,0,0,0,522,
scooby_state_416352|10|1 521,0,1,0,0,0,0,0,0,0,0,0,0,0,0,522,
scooby_state_41576e|26|1 520,0,0,0,0,0,0,1,0,1,0,0,0,0,0,522,
scooby_state_416352|59|1 521,0,0,1,0,0,0,0,0,0,0,0,0,0,0,522,
scooby_state_4163cf|13|1 520,0,0,0,0,0,0,0,0,0,0,1,0,0,1,522,
scooby_state_416352|60|1 521,1,0,0,0,0,0,0,0,0,0,0,0,0,0,522,
scooby_state_416368|14|1 522,0,0,0,0,0,0,0,0,0,0,0,0,0,0,522,
scooby_state_416352|16|1 522,0,0,0,0,0,0,0,0,0,0,0,0,0,0,522,
scooby_state_41576e|20|1 521,0,0,0,0,0,0,0,0,0,1,0,0,0,0,522,
scooby_state_416352|62|1 522,0,0,0,0,0,0,0,0,0,0,0,0,0,0,522,
scooby_state_416352|45|1 519,0,1,0,0,1,0,1,0,0,0,0,0,0,0,522,
scooby_state_416375|44|1 519,0,0,0,2,0,0,0,0,1,0,0,0,0,0,522,
scooby_state_416368|13|1 522,0,0,0,0,0,0,0,0,0,0,0,0,0,0,522,
scooby_state_416368|62|1 522,0,0,0,0,0,0,0,0,0,0,0,0,0,0,522,
scooby_state_416375|62|1 521,0,0,0,0,0,0,0,0,0,0,0,0,1,0,522,
scooby_state_41638a|62|1 521,0,0,0,0,0,0,0,0,0,0,1,0,0,0,522,
scooby_state_4163cf|28|1 520,0,0,0,0,0,1,1,0,0,0,0,0,0,0,522,
scooby_state_416375|63|1 521,0,0,0,0,0,0,0,0,0,0,0,0,0,1,522,
scooby_state_4159fe|63|1 520,0,0,0,0,1,1,0,0,0,0,0,0,0,0,522,
scooby_state_416368|12|1 521,0,0,0,0,0,0,0,0,0,0,0,0,0,1,522,
scooby_state_41576e|21|1 522,0,0,0,0,0,0,0,0,0,0,0,0,0,0,522,
scooby_state_41638a|16|1 521,0,0,0,0,0,0,1,0,0,0,0,0,0,0,522,
scooby_state_41638a|46|1 521,0,0,0,0,0,0,0,0,0,0,0,1,0,0,522,
scooby_state_41635b|40|1 522,0,0,0,0,0,0,0,0,0,0,0,0,0,0,522,
scooby_state_416368|15|1 522,0,0,0,0,0,0,0,0,0,0,0,0,0,0,522,
scooby_state_416368|0|0 522,0,0,0,0,0,0,0,0,0,0,0,0,0,0,522,
scooby_state_416375|0|0 521,0,0,0,1,0,0,0,0,0,0,0,0,0,0,522,
scooby_state_416368|46|1 522,0,0,0,0,0,0,0,0,0,0,0,0,0,0,522,
scooby_state_41576e|24|1 522,0,0,0,0,0,0,0,0,0,0,0,0,0,0,522,
scooby_state_41638a|0|0 521,0,0,0,0,0,1,0,0,0,0,0,0,0,0,522,
scooby_state_41576e|53|1 521,0,0,0,0,0,0,0,0,1,0,0,0,0,0,522,
scooby_state_415c8e|27|1 522,0,0,0,0,0,0,0,0,0,0,0,0,0,0,522,
scooby_state_416375|16|1 521,0,0,0,0,0,0,1,0,0,0,0,0,0,0,522,
scooby_state_41635b|50|1 520,0,0,0,0,0,0,0,0,0,0,1,0,0,1,522,
scooby_state_415c8e|26|1 520,0,0,0,1,0,0,1,0,0,0,0,0,0,0,522,
scooby_state_416375|13|1 522,0,0,0,0,0,0,0,0,0,0,0,0,0,0,522,
scooby_state_415c8e|25|1 522,0,0,0,0,0,0,0,0,0,0,0,0,0,0,522,
scooby_state_41576e|8|1 520,0,0,0,1,0,0,0,0,1,0,0,0,0,0,522,
scooby_state_41576e|56|1 522,0,0,0,0,0,0,0,0,0,0,0,0,0,0,522,
scooby_state_4163cf|43|1 520,0,0,0,1,0,0,0,0,0,1,0,0,0,0,522,
scooby_state_41576e|7|1 521,0,0,0,0,0,0,0,0,0,0,0,0,0,1,522,
scooby_state_41638a|12|1 520,0,0,0,0,0,0,0,0,1,0,1,0,0,0,522,
scooby_state_416352|63|1 521,0,0,0,0,0,0,0,0,0,0,0,0,1,0,522,
scooby_state_4200e3|25|1 520,0,0,1,0,0,0,1,0,0,0,0,0,0,0,522,
scooby_state_4159fe|1|1 521,0,0,0,0,0,0,0,1,0,0,0,0,0,0,522,
scooby_state_41576e|57|1 521,0,0,0,0,0,0,0,0,0,0,0,1,0,0,522,
scooby_state_416352|15|1 522,0,0,0,0,0,0,0,0,0,0,0,0,0,0,522,
scooby_state_416375|11|1 522,0,0,0,0,0,0,0,0,0,0,0,0,0,0,522,
scooby_state_415c8e|9|1 521,0,0,0,1,0,0,0,0,0,0,0,0,0,0,522,
scooby_state_416375|45|1 520,0,0,1,0,0,1,0,0,0,0,0,0,0,0,522,
scooby_state_4163cf|29|1 520,0,0,0,0,0,0,0,0,0,1,0,0,0,1,522,
scooby_state_415c86|36|1 518,0,2,0,0,0,1,0,0,0,0,0,0,1,0,522,
scooby_state_416375|48|1 520,0,0,0,0,0,0,0,1,0,0,0,0,1,0,522,
scooby_state_41635b|24|1 522,0,0,0,0,0,0,0,0,0,0,0,0,0,0,522,
scooby_state_4159fe|18|1 522,0,0,0,0,0,0,0,0,0,0,0,0,0,0,522,
scooby_state_416368|61|1 522,0,0,0,0,0,0,0,0,0,0,0,0,0,0,522,
scooby_state_415c8e|29|1 521,0,0,0,0,0,0,0,0,0,0,0,0,0,1,522,
scooby_state_4159fe|17|1 522,0,0,0,0,0,0,0,0,0,0,0,0,0,0,522,
scooby_state_41635b|52|1 522,0,0,0,0,0,0,0,0,0,0,0,0,0,0,522,
scooby_state_416375|10|1 522,0,0,0,0,0,0,0,0,0,0,0,0,0,0,522,
scooby_state_416375|59|1 520,0,0,0,1,0,0,0,0,0,0,0,0,1,0,522,
scooby_state_41638a|14|1 522,0,0,0,0,0,0,0,0,0,0,0,0,0,0,522,
scooby_state_41635b|35|1 522,0,0,0,0,0,0,0,0,0,0,0,0,0,0,522,
scooby_state_41638a|48|1 520,0,0,0,0,1,1,0,0,0,0,0,0,0,0,522,
scooby_state_41576e|54|1 520,0,0,1,0,0,0,0,0,0,0,0,0,0,1,522,
scooby_state_41635b|38|1 521,0,0,0,0,0,0,1,0,0,0,0,0,0,0,522,
scooby_state_415c8e|45|1 522,0,0,0,0,0,0,0,0,0,0,0,0,0,0,522,
scooby_state_41635b|53|1 520,1,0,0,0,0,0,1,0,0,0,0,0,0,0,522,
scooby_state_416368|10|1 520,0,0,0,1,0,0,0,1,0,0,0,0,0,0,522,
scooby_state_416375|46|1 521,0,0,0,0,0,0,0,0,0,1,0,0,0,0,522,
scooby_state_415c8e|43|1 522,0,0,0,0,0,0,0,0,0,0,0,0,0,0,522,
scooby_state_415c8e|41|1 522,0,0,0,0,0,0,0,0,0,0,0,0,0,0,522,
scooby_state_416352|46|1 522,0,0,0,0,0,0,0,0,0,0,0,0,0,0,522,
scooby_state_416368|48|1 521,0,0,0,0,0,0,0,0,0,0,1,0,0,0,522,
scooby_state_416352|43|1 522,0,0,0,0,0,0,0,0,0,0,0,0,0,0,522,
scooby_state_4159fe|36|1 522,0,0,0,0,0,0,0,0,0,0,0,0,0,0,522,
scooby_state_41635b|39|1 522,0,0,0,0,0,0,0,0,0,0,0,0,0,0,522,
scooby_state_41638a|45|1 522,0,0,0,0,0,0,0,0,0,0,0,0,0,0,522,
scooby_state_415c8e|11|1 522,0,0,0,0,0,0,0,0,0,0,0,0,0,0,522,
scooby_state_4163cf|12|1 521,0,0,0,0,0,0,1,0,0,0,0,0,0,0,522,
scooby_state_41635b|36|1 520,0,0,0,0,0,0,0,0,0,0,0,1,0,1,522,
scooby_state_415c8e|44|1 520,0,0,0,0,0,0,0,0,0,0,0,0,0,2,522,
scooby_state_416352|44|1 518,0,1,1,0,1,0,0,0,0,1,0,0,0,0,522,
scooby_state_416352|12|1 522,0,0,0,0,0,0,0,0,0,0,0,0,0,0,522,
scooby_state_41638a|43|1 522,0,0,0,0,0,0,0,0,0,0,0,0,0,0,522,
scooby_state_416375|43|1 520,0,0,0,0,0,0,0,0,0,1,0,0,0,1,522,
scooby_state_41635b|19|1 521,0,1,0,0,0,0,0,0,0,0,0,0,0,0,522,
scooby_state_416368|63|1 521,1,0,0,0,0,0,0,0,0,0,0,0,0,0,522,
scooby_state_416368|47|1 522,0,0,0,0,0,0,0,0,0,0,0,0,0,0,522,
scooby_state_4159fe|35|1 521,0,0,0,0,0,0,0,0,0,0,0,0,0,1,522,
scooby_state_41638a|13|1 522,0,0,0,0,0,0,0,0,0,0,0,0,0,0,522,
scooby_state_4163cf|9|1 522,0,0,0,0,0,0,0,0,0,0,0,0,0,0,522,
scooby_state_41635b|51|1 522,0,0,0,0,0,0,0,0,0,0,0,0,0,0,522,
scooby_state_416368|43|1 522,0,0,0,0,0,0,0,0,0,0,0,0,0,0,522,
scooby_state_41576e|25|1 522,0,0,0,0,0,0,0,0,0,0,0,0,0,0,522,
scooby_state_4159fe|4|1 520,1,0,0,0,0,0,0,0,0,0,0,1,0,0,522,
scooby_state_416352|48|1 520,0,0,0,0,0,1,1,0,0,0,0,0,0,0,522,
scooby_state_41576e|5|1 521,0,0,0,0,0,0,0,0,0,0,0,0,1,0,522,
scooby_state_41576e|9|1 521,0,0,0,1,0,0,0,0,0,0,0,0,0,0,522,
scooby_state_41576e|23|1 522,0,0,0,0,0,0,0,0,0,0,0,0,0,0,522,
scooby_state_416368|45|1 521,0,1,0,0,0,0,0,0,0,0,0,0,0,0,522,
scooby_state_4163be|58|1 521,0,0,0,0,0,0,0,0,0,0,0,0,1,0,522,
scooby_state_4159fe|31|1 521,0,0,0,0,0,0,1,0,0,0,0,0,0,0,522,
scooby_state_4163cf|11|1 522,0,0,0,0,0,0,0,0,0,0,0,0,0,0,522,
scooby_state_4159fe|32|1 522,0,0,0,0,0,0,0,0,0,0,0,0,0,0,522,
scooby_state_415c8e|28|1 521,0,0,0,0,1,0,0,0,0,0,0,0,0,0,522,
scooby_state_4159fe|33|1 521,0,0,0,0,0,0,1,0,0,0,0,0,0,0,522,
scooby_state_4159fe|34|1 521,0,0,0,1,0,0,0,0,0,0,0,0,0,0,522,
scooby_state_41635b|21|1 519,0,0,0,1,0,1,0,1,0,0,0,0,0,0,522,
scooby_state_4163cf|10|1 522,0,0,0,0,0,0,0,0,0,0,0,0,0,0,522,
scooby_state_41638a|63|1 522,0,0,0,0,0,0,0,0,0,0,0,0,0,0,522,
scooby_state_415c8e|12|1 521,0,0,1,0,0,0,0,0,0,0,0,0,0,0,522,
scooby_state_41638a|44|1 520,0,0,0,0,0,0,1,0,0,0,0,0,0,1,522,
scooby_state_41576e|6|1 522,0,0,0,0,0,0,0,0,0,0,0,0,0,0,522,
scooby_state_41635b|23|1 521,0,0,0,0,0,0,0,0,1,0,0,0,0,0,522,
scooby_state_41576e|29|1 520,0,0,0,0,0,0,0,0,0,0,1,0,0,0,521,
scooby_state_41638a|19|1 520,0,0,0,0,0,0,0,0,0,1,0,0,0,0,521,
scooby_state_415766|23|1 520,0,0,0,0,0,0,0,0,0,0,0,1,0,0,521,
scooby_state_415766|25|1 519,0,0,0,1,0,0,0,0,1,0,0,0,0,0,521,
scooby_state_41576e|49|1 521,0,0,0,0,0,0,0,0,0,0,0,0,0,0,521,
scooby_state_4163cf|49|1 518,1,0,0,1,0,0,0,0,0,0,0,0,0,1,521,
scooby_state_415c8e|49|1 520,0,1,0,0,0,0,0,0,0,0,0,0,0,0,521,
scooby_state_415c8e|5|1 520,0,0,0,0,1,0,0,0,0,0,0,0,0,0,521,
scooby_state_416352|19|1 521,0,0,0,0,0,0,0,0,0,0,0,0,0,0,521,
scooby_state_4159fe|39|1 521,0,0,0,0,0,0,0,0,0,0,0,0,0,0,521,
scooby_state_416375|19|1 519,0,0,0,0,0,0,0,0,1,0,1,0,0,0,521,
scooby_state_415766|34|1 521,0,0,0,0,0,0,0,0,0,0,0,0,0,0,521,
scooby_state_41635b|59|1 519,0,0,0,0,1,0,0,0,0,0,0,0,1,0,521,
scooby_state_416368|19|1 519,0,0,0,0,0,0,0,2,0,0,0,0,0,0,521,
scooby_state_41635b|15|1 521,0,0,0,0,0,0,0,0,0,0,0,0,0,0,521,
scooby_state_4159f6|34|1 520,0,0,0,0,0,0,0,0,0,1,0,0,0,0,521,
scooby_state_4163be|41|1 518,0,0,1,0,0,0,1,0,0,1,0,0,0,0,521,
scooby_state_416368|39|1 521,0,0,0,0,0,0,0,0,0,0,0,0,0,0,521,
scooby_state_4163ad|21|1 520,0,0,0,0,1,0,0,0,0,0,0,0,0,0,521,
scooby_state_4163be|57|1 519,0,0,0,1,1,0,0,0,0,0,0,0,0,0,521,
scooby_state_416375|39|1 521,0,0,0,0,0,0,0,0,0,0,0,0,0,0,521,
scooby_state_4200e3|20|1 521,0,0,0,0,0,0,0,0,0,0,0,0,0,0,521,
scooby_state_416352|39|1 520,0,0,0,0,0,0,0,0,0,0,0,1,0,0,521,
scooby_state_4159fe|59|1 520,0,0,0,0,0,0,0,0,0,0,0,0,0,1,521,
scooby_state_41638a|39|1 521,0,0,0,0,0,0,0,0,0,0,0,0,0,0,521,
scooby_state_4163ad|37|1 520,1,0,0,0,0,0,0,0,0,0,0,0,0,0,521,
scooby_state_415766|24|1 519,0,0,0,0,0,0,0,0,0,0,0,1,0,0,520,
scooby_state_4163cf|5|1 519,0,0,0,0,0,0,0,1,0,0,0,0,0,0,520,
scooby_state_415766|26|1 518,0,0,1,0,0,0,0,0,0,0,0,0,0,1,520,
scooby_state_415c86|25|1 519,0,0,0,0,0,0,0,0,1,0,0,0,0,0,520,
scooby_state_415766|33|1 519,0,0,0,0,0,0,0,0,0,0,0,0,0,1,520,
scooby_state_416352|20|1 518,0,0,0,0,0,0,1,0,0,0,0,0,0,0,519,
scooby_state_416368|20|1 518,0,0,0,0,0,0,1,0,0,0,0,0,0,0,519,
scooby_state_416375|20|1 519,0,0,0,0,0,0,0,0,0,0,0,0,0,0,519,
scooby_state_4159f6|28|1 519,0,0,0,0,0,0,0,0,0,0,0,0,0,0,519,
scooby_state_41638a|38|1 519,0,0,0,0,0,0,0,0,0,0,0,0,0,0,519,
scooby_state_41638a|20|1 519,0,0,0,0,0,0,0,0,0,0,0,0,0,0,519,
scooby_state_41576e|30|1 518,0,0,0,0,0,0,0,0,0,0,0,0,0,1,519,
scooby_state_4163cf|50|1 518,0,0,0,0,0,0,0,0,0,1,0,0,0,0,519,
scooby_state_415c86|30|1 518,0,0,0,0,0,0,0,0,0,0,1,0,0,0,519,
scooby_state_4163be|42|1 518,1,0,0,0,0,0,0,0,0,0,0,0,0,0,519,
scooby_state_41635b|14|1 519,0,0,0,0,0,0,0,0,0,0,0,0,0,0,519,
scooby_state_416375|38|1 517,0,0,0,0,0,0,1,1,0,0,0,0,0,0,519,
scooby_state_4159f6|26|1 519,0,0,0,0,0,0,0,0,0,0,0,0,0,0,519,
scooby_state_416352|38|1 519,0,0,0,0,0,0,0,0,0,0,0,0,0,0,519,
scooby_state_415c8e|4|1 517,0,0,0,0,0,0,0,0,0,0,2,0,0,0,519,
scooby_state_4159f6|25|1 516,0,0,1,0,0,0,0,0,1,1,0,0,0,0,519,
scooby_state_4159f6|33|1 519,0,0,0,0,0,0,0,0,0,0,0,0,0,0,519,
scooby_state_4163ad|22|1 517,1,0,0,0,0,0,0,0,1,0,0,0,0,0,519,
scooby_state_4159fe|58|1 517,0,0,1,0,0,1,0,0,0,0,0,0,0,0,519,
scooby_state_41635b|60|1 518,1,0,0,0,0,0,0,0,0,0,0,0,0,0,519,
scooby_state_415c8e|50|1 517,0,0,0,0,0,0,0,0,0,0,0,1,1,0,519,
scooby_state_4163be|56|1 518,0,0,1,0,0,0,0,0,0,0,0,0,0,0,519,
scooby_state_4163ad|36|1 518,0,0,0,0,0,1,0,0,0,0,0,0,0,0,519,
scooby_state_4159fe|40|1 517,0,0,0,0,0,0,0,0,0,0,1,0,0,1,519,
scooby_state_415c86|28|1 519,0,0,0,0,0,0,0,0,0,0,0,0,0,0,519,
scooby_state_416368|38|1 519,0,0,0,0,0,0,0,0,0,0,0,0,0,0,519,
scooby_state_415766|28|1 519,0,0,0,0,0,0,0,0,0,0,0,0,0,0,519,
scooby_state_41576e|48|1 518,0,0,0,0,0,0,1,0,0,0,0,0,0,0,519,
[...]
scooby_state_41efcc|25|-1 1,0,0,0,0,0,0,0,0,0,0,0,0,0,0,1,
scooby_state_419b60|14|0 1,0,0,0,0,0,0,0,0,0,0,0,0,0,0,1,
scooby_state_417df6|50|-13 1,0,0,0,0,0,0,0,0,0,0,0,0,0,0,1,
scooby_state_4202d8|28|1 1,0,0,0,0,0,0,0,0,0,0,0,0,0,0,1,
scooby_state_419e26|61|-2 1,0,0,0,0,0,0,0,0,0,0,0,0,0,0,1,
scooby_state_4191b9|57|8 1,0,0,0,0,0,0,0,0,0,0,0,0,0,0,1,
scooby_state_418724|26|1 1,0,0,0,0,0,0,0,0,0,0,0,0,0,0,1,
scooby_state_41e0c4|3|1 1,0,0,0,0,0,0,0,0,0,0,0,0,0,0,1,
scooby_state_417e5f|43|17 1,0,0,0,0,0,0,0,0,0,0,0,0,0,0,1,
scooby_state_415882|34|1 1,0,0,0,0,0,0,0,0,0,0,0,0,0,0,1,
scooby_state_4200f4|28|-15 1,0,0,0,0,0,0,0,0,0,0,0,0,0,0,1,
scooby_state_418b68|46|1 1,0,0,0,0,0,0,0,0,0,0,0,0,0,0,1,
scooby_state_418144|9|1 1,0,0,0,0,0,0,0,0,0,0,0,0,0,0,1,
scooby_state_418283|41|1 1,0,0,0,0,0,0,0,0,0,0,0,0,0,0,1,
scooby_state_42038f|14|2 1,0,0,0,0,0,0,0,0,0,0,0,0,0,0,1,
scooby_state_418724|44|1 1,0,0,0,0,0,0,0,0,0,0,0,0,0,0,1,
scooby_state_417de8|34|-16 1,0,0,0,0,0,0,0,0,0,0,0,0,0,0,1,
scooby_state_4181c4|59|3 1,0,0,0,0,0,0,0,0,0,0,0,0,0,0,1,
scooby_state_419e43|20|0 1,0,0,0,0,0,0,0,0,0,0,0,0,0,0,1,
scooby_state_4186db|28|0 1,0,0,0,0,0,0,0,0,0,0,0,0,0,0,1,
scooby_state_417907|28|1 1,0,0,0,0,0,0,0,0,0,0,0,0,0,0,1,
scooby_state_41efaa|59|2 1,0,0,0,0,0,0,0,0,0,0,0,0,0,0,1,
scooby_state_419172|24|1 1,0,0,0,0,0,0,0,0,0,0,0,0,0,0,1,
scooby_state_41910d|8|-14 1,0,0,0,0,0,0,0,0,0,0,0,0,0,0,1,
scooby_state_41a1c3|62|2 1,0,0,0,0,0,0,0,0,0,0,0,0,0,0,1,
scooby_state_41fcd4|38|-13 1,0,0,0,0,0,0,0,0,0,0,0,0,0,0,1,
scooby_state_4183d0|16|16 1,0,0,0,0,0,0,0,0,0,0,0,0,0,0,1,
scooby_state_419172|9|1 1,0,0,0,0,0,0,0,0,0,0,0,0,0,0,1,
scooby_state_418724|57|1 1,0,0,0,0,0,0,0,0,0,0,0,0,0,0,1,
scooby_state_41910d|0|-30 1,0,0,0,0,0,0,0,0,0,0,0,0,0,0,1,
scooby_state_417907|42|1 1,0,0,0,0,0,0,0,0,0,0,0,0,0,0,1,
scooby_state_417907|1|0 1,0,0,0,0,0,0,0,0,0,0,0,0,0,0,1,
scooby_state_41e770|47|1 1,0,0,0,0,0,0,0,0,0,0,0,0,0,0,1,
scooby_state_41fd41|53|1 1,0,0,0,0,0,0,0,0,0,0,0,0,0,0,1,
scooby_state_419289|54|0 1,0,0,0,0,0,0,0,0,0,0,0,0,0,0,1,
scooby_state_417907|5|0 1,0,0,0,0,0,0,0,0,0,0,0,0,0,0,1,
scooby_state_418717|25|1 1,0,0,0,0,0,0,0,0,0,0,0,0,0,0,1,
scooby_state_419b60|5|0 1,0,0,0,0,0,0,0,0,0,0,0,0,0,0,1,
scooby_state_417e21|44|1 1,0,0,0,0,0,0,0,0,0,0,0,0,0,0,1,
scooby_state_4190db|57|47 1,0,0,0,0,0,0,0,0,0,0,0,0,0,0,1,
scooby_state_4190d5|49|-14 1,0,0,0,0,0,0,0,0,0,0,0,0,0,0,1,
scooby_state_41eedb|1|0 1,0,0,0,0,0,0,0,0,0,0,0,0,0,0,1,
scooby_state_41911b|6|0 1,0,0,0,0,0,0,0,0,0,0,0,0,0,0,1,
scooby_state_41efaa|54|1 1,0,0,0,0,0,0,0,0,0,0,0,0,0,0,1,
scooby_state_418758|36|0 1,0,0,0,0,0,0,0,0,0,0,0,0,0,0,1,
scooby_state_4156df|51|1 1,0,0,0,0,0,0,0,0,0,0,0,0,0,0,1,
scooby_state_48cd09|52|1 1,0,0,0,0,0,0,0,0,0,0,0,0,0,0,1,
scooby_state_41ddc4|55|1 1,0,0,0,0,0,0,0,0,0,0,0,0,0,0,1,
scooby_state_41a381|14|1 1,0,0,0,0,0,0,0,0,0,0,0,0,0,0,1,
scooby_state_4181f8|7|1 1,0,0,0,0,0,0,0,0,0,0,0,0,0,0,1,
scooby_state_417df6|3|-16 1,0,0,0,0,0,0,0,0,0,0,0,0,0,0,1,
scooby_state_48d310|12|0 1,0,0,0,0,0,0,0,0,0,0,0,0,0,0,1,
scooby_state_418748|35|0 1,0,0,0,0,0,0,0,0,0,0,0,0,0,0,1,
scooby_state_417e6d|21|-16 1,0,0,0,0,0,0,0,0,0,0,0,0,0,0,1,
scooby_state_4191b9|58|-5 1,0,0,0,0,0,0,0,0,0,0,0,0,0,0,1,
scooby_state_4190c1|21|-31 1,0,0,0,0,0,0,0,0,0,0,0,0,0,0,1,
scooby_state_41ef43|61|1 1,0,0,0,0,0,0,0,0,0,0,0,0,0,0,1,
scooby_state_418c6a|58|1 1,0,0,0,0,0,0,0,0,0,0,0,0,0,0,1,
scooby_state_4200f4|19|2 1,0,0,0,0,0,0,0,0,0,0,0,0,0,0,1,
scooby_state_4190ef|42|-15 1,0,0,0,0,0,0,0,0,0,0,0,0,0,0,1,
scooby_state_41871e|44|1 1,0,0,0,0,0,0,0,0,0,0,0,0,0,0,1,
scooby_state_418c6a|39|-15 1,0,0,0,0,0,0,0,0,0,0,0,0,0,0,1,
scooby_state_415481|18|5 1,0,0,0,0,0,0,0,0,0,0,0,0,0,0,1,
scooby_state_48d329|56|0 1,0,0,0,0,0,0,0,0,0,0,0,0,0,0,1,
scooby_state_41e470|40|33 1,0,0,0,0,0,0,0,0,0,0,0,0,0,0,1,
scooby_state_41aa74|31|1 1,0,0,0,0,0,0,0,0,0,0,0,0,0,0,1,
scooby_state_4200f4|25|2 1,0,0,0,0,0,0,0,0,0,0,0,0,0,0,1,
scooby_state_42041a|39|-3 1,0,0,0,0,0,0,0,0,0,0,0,0,0,0,1,
scooby_state_419159|7|-15 1,0,0,0,0,0,0,0,0,0,0,0,0,0,0,1,
scooby_state_4190c7|37|16 1,0,0,0,0,0,0,0,0,0,0,0,0,0,0,1,
scooby_state_4190ef|5|-31 1,0,0,0,0,0,0,0,0,0,0,0,0,0,0,1,
scooby_state_41eedb|24|0 1,0,0,0,0,0,0,0,0,0,0,0,0,0,0,1,
scooby_state_417e5f|24|17 1,0,0,0,0,0,0,0,0,0,0,0,0,0,0,1,
scooby_state_41870d|8|1 1,0,0,0,0,0,0,0,0,0,0,0,0,0,0,1,
scooby_state_41efcc|11|0 1,0,0,0,0,0,0,0,0,0,0,0,0,0,0,1,
scooby_state_41918e|35|31 1,0,0,0,0,0,0,0,0,0,0,0,0,0,0,1,
scooby_state_4190d5|51|1 1,0,0,0,0,0,0,0,0,0,0,0,0,0,0,1,
scooby_state_4181c4|28|-31 1,0,0,0,0,0,0,0,0,0,0,0,0,0,0,1,
scooby_state_41efcc|3|-1 1,0,0,0,0,0,0,0,0,0,0,0,0,0,0,1,
scooby_state_4192a2|57|16 1,0,0,0,0,0,0,0,0,0,0,0,0,0,0,1,
scooby_state_41f636|62|1 1,0,0,0,0,0,0,0,0,0,0,0,0,0,0,1,
scooby_state_418b99|12|1 1,0,0,0,0,0,0,0,0,0,0,0,0,0,0,1,
scooby_state_418b48|14|1 1,0,0,0,0,0,0,0,0,0,0,0,0,0,0,1,
scooby_state_4a07e2|15|1 1,0,0,0,0,0,0,0,0,0,0,0,0,0,0,1,
scooby_state_419303|63|12 1,0,0,0,0,0,0,0,0,0,0,0,0,0,0,1,
scooby_state_41817d|25|17 1,0,0,0,0,0,0,0,0,0,0,0,0,0,0,1,
scooby_state_4190ef|10|-31 1,0,0,0,0,0,0,0,0,0,0,0,0,0,0,1,
scooby_state_41ed06|52|1 1,0,0,0,0,0,0,0,0,0,0,0,0,0,0,1,
scooby_state_416195|53|-1 1,0,0,0,0,0,0,0,0,0,0,0,0,0,0,1,
scooby_state_4186e9|22|1 1,0,0,0,0,0,0,0,0,0,0,0,0,0,0,1,
scooby_state_4186d6|18|1 1,0,0,0,0,0,0,0,0,0,0,0,0,0,0,1,
scooby_state_41910d|21|-15 1,0,0,0,0,0,0,0,0,0,0,0,0,0,0,1,
scooby_state_41efd1|23|1 1,0,0,0,0,0,0,0,0,0,0,0,0,0,0,1,
scooby_state_417b42|45|1 1,0,0,0,0,0,0,0,0,0,0,0,0,0,0,1,
scooby_state_418724|38|1 1,0,0,0,0,0,0,0,0,0,0,0,0,0,0,1,
scooby_state_419159|4|-15 1,0,0,0,0,0,0,0,0,0,0,0,0,0,0,1,
scooby_state_417df6|57|-6 1,0,0,0,0,0,0,0,0,0,0,0,0,0,0,1,
scooby_state_48989b|22|-31 1,0,0,0,0,0,0,0,0,0,0,0,0,0,0,1,
scooby_state_419144|14|0 1,0,0,0,0,0,0,0,0,0,0,0,0,0,0,1,
scooby_state_417e5f|11|0 1,0,0,0,0,0,0,0,0,0,0,0,0,0,0,1,
scooby_state_41efcc|14|0 1,0,0,0,0,0,0,0,0,0,0,0,0,0,0,1,
scooby_state_41de83|58|1 1,0,0,0,0,0,0,0,0,0,0,0,0,0,0,1,
scooby_state_417de8|39|-16 1,0,0,0,0,0,0,0,0,0,0,0,0,0,0,1,
scooby_state_41924e|8|3 1,0,0,0,0,0,0,0,0,0,0,0,0,0,0,1,
scooby_state_41913d|16|1 1,0,0,0,0,0,0,0,0,0,0,0,0,0,0,1,
scooby_state_41817d|7|1 1,0,0,0,0,0,0,0,0,0,0,0,0,0,0,1,
scooby_state_418b0f|49|0 1,0,0,0,0,0,0,0,0,0,0,0,0,0,0,1,
scooby_state_41871e|48|0 1,0,0,0,0,0,0,0,0,0,0,0,0,0,0,1,
scooby_state_41efaa|36|1 1,0,0,0,0,0,0,0,0,0,0,0,0,0,0,1,
scooby_state_4186d6|15|0 1,0,0,0,0,0,0,0,0,0,0,0,0,0,0,1,
scooby_state_41e470|9|2 1,0,0,0,0,0,0,0,0,0,0,0,0,0,0,1,
scooby_state_41ae1a|46|-15 1,0,0,0,0,0,0,0,0,0,0,0,0,0,0,1,
scooby_state_4181c4|56|5 1,0,0,0,0,0,0,0,0,0,0,0,0,0,0,1,
scooby_state_418236|41|-15 1,0,0,0,0,0,0,0,0,0,0,0,0,0,0,1,
scooby_state_418724|49|1 1,0,0,0,0,0,0,0,0,0,0,0,0,0,0,1,
scooby_state_414f43|61|1 1,0,0,0,0,0,0,0,0,0,0,0,0,0,0,1,
scooby_state_4192a2|60|51 1,0,0,0,0,0,0,0,0,0,0,0,0,0,0,1,
scooby_state_41efcc|23|0 1,0,0,0,0,0,0,0,0,0,0,0,0,0,0,1,
scooby_state_41a184|47|2 1,0,0,0,0,0,0,0,0,0,0,0,0,0,0,1,
scooby_state_418bf2|6|1 1,0,0,0,0,0,0,0,0,0,0,0,0,0,0,1,
scooby_state_417d77|60|1 1,0,0,0,0,0,0,0,0,0,0,0,0,0,0,1,
scooby_state_417e5f|14|1 1,0,0,0,0,0,0,0,0,0,0,0,0,0,0,1,
scooby_state_41870d|7|1 1,0,0,0,0,0,0,0,0,0,0,0,0,0,0,1,
scooby_state_417d77|44|1 1,0,0,0,0,0,0,0,0,0,0,0,0,0,0,1,
scooby_state_4190ef|48|1 1,0,0,0,0,0,0,0,0,0,0,0,0,0,0,1,
scooby_state_4190c1|8|-31 1,0,0,0,0,0,0,0,0,0,0,0,0,0,0,1,
scooby_state_489cb9|50|2 1,0,0,0,0,0,0,0,0,0,0,0,0,0,0,1,
scooby_state_41aa74|11|1 1,0,0,0,0,0,0,0,0,0,0,0,0,0,0,1,
scooby_state_41ef52|23|2 1,0,0,0,0,0,0,0,0,0,0,0,0,0,0,1,
scooby_state_419107|22|15 1,0,0,0,0,0,0,0,0,0,0,0,0,0,0,1,
scooby_state_417e6d|42|-16 1,0,0,0,0,0,0,0,0,0,0,0,0,0,0,1,
scooby_state_41efcc|21|0 1,0,0,0,0,0,0,0,0,0,0,0,0,0,0,1,
scooby_state_419226|30|21 1,0,0,0,0,0,0,0,0,0,0,0,0,0,0,1,
scooby_state_4179d3|59|1 1,0,0,0,0,0,0,0,0,0,0,0,0,0,0,1,
scooby_state_419e61|44|-1 1,0,0,0,0,0,0,0,0,0,0,0,0,0,0,1,
scooby_state_41916b|42|1 1,0,0,0,0,0,0,0,0,0,0,0,0,0,0,1,
scooby_state_4186d6|35|1 1,0,0,0,0,0,0,0,0,0,0,0,0,0,0,1,
scooby_state_4192c9|49|9 1,0,0,0,0,0,0,0,0,0,0,0,0,0,0,1,
scooby_state_41a26e|46|0 1,0,0,0,0,0,0,0,0,0,0,0,0,0,0,1,
scooby_state_41a21f|46|2 1,0,0,0,0,0,0,0,0,0,0,0,0,0,0,1,
scooby_state_418752|21|1 1,0,0,0,0,0,0,0,0,0,0,0,0,0,0,1,
scooby_state_416cc0|51|1 1,0,0,0,0,0,0,0,0,0,0,0,0,0,0,1,
scooby_state_419159|40|-15 1,0,0,0,0,0,0,0,0,0,0,0,0,0,0,1,
scooby_state_41a1c3|13|2 1,0,0,0,0,0,0,0,0,0,0,0,0,0,0,1,
scooby_state_417e05|56|1 1,0,0,0,0,0,0,0,0,0,0,0,0,0,0,1,
scooby_state_4191dc|48|46 1,0,0,0,0,0,0,0,0,0,0,0,0,0,0,1,
scooby_state_4192c9|16|4 1,0,0,0,0,0,0,0,0,0,0,0,0,0,0,1,
scooby_state_41fa52|41|-8 1,0,0,0,0,0,0,0,0,0,0,0,0,0,0,1,
scooby_state_418748|59|1 1,0,0,0,0,0,0,0,0,0,0,0,0,0,0,1,
scooby_state_419b60|38|1 1,0,0,0,0,0,0,0,0,0,0,0,0,0,0,1,
scooby_state_41910d|0|-2 1,0,0,0,0,0,0,0,0,0,0,0,0,0,0,1,
scooby_state_415001|0|0 1,0,0,0,0,0,0,0,0,0,0,0,0,0,0,1,
scooby_state_41ab42|45|1 1,0,0,0,0,0,0,0,0,0,0,0,0,0,0,1,
scooby_state_41ae7d|56|16 1,0,0,0,0,0,0,0,0,0,0,0,0,0,0,1,
scooby_state_41a341|13|1 1,0,0,0,0,0,0,0,0,0,0,0,0,0,0,1,
scooby_state_419107|42|16 1,0,0,0,0,0,0,0,0,0,0,0,0,0,0,1,
scooby_state_41ef52|25|2 1,0,0,0,0,0,0,0,0,0,0,0,0,0,0,1,
scooby_state_419dc9|32|0 1,0,0,0,0,0,0,0,0,0,0,0,0,0,0,1,
scooby_state_4181c4|56|-7 1,0,0,0,0,0,0,0,0,0,0,0,0,0,0,1,
scooby_state_41618b|54|1 1,0,0,0,0,0,0,0,0,0,0,0,0,0,0,1,
scooby_state_418f00|60|1 1,0,0,0,0,0,0,0,0,0,0,0,0,0,0,1,
scooby_state_41ef63|30|-1 1,0,0,0,0,0,0,0,0,0,0,0,0,0,0,1,
scooby_state_41e5cc|19|-1 1,0,0,0,0,0,0,0,0,0,0,0,0,0,0,1,
scooby_state_41a4c7|10|1 1,0,0,0,0,0,0,0,0,0,0,0,0,0,0,1,
scooby_state_417d77|21|17 1,0,0,0,0,0,0,0,0,0,0,0,0,0,0,1,
scooby_state_419e26|55|-8 1,0,0,0,0,0,0,0,0,0,0,0,0,0,0,1,
scooby_state_41a242|11|2 1,0,0,0,0,0,0,0,0,0,0,0,0,0,0,1,
scooby_state_416fc0|63|1 1,0,0,0,0,0,0,0,0,0,0,0,0,0,0,1,
scooby_state_418d9d|16|-15 1,0,0,0,0,0,0,0,0,0,0,0,0,0,0,1,
scooby_state_4186db|52|1 1,0,0,0,0,0,0,0,0,0,0,0,0,0,0,1,
scooby_state_419e43|55|1 1,0,0,0,0,0,0,0,0,0,0,0,0,0,0,1,
scooby_state_4190db|44|-14 1,0,0,0,0,0,0,0,0,0,0,0,0,0,0,1,
scooby_state_4190c1|63|3 1,0,0,0,0,0,0,0,0,0,0,0,0,0,0,1,
scooby_state_4190ef|51|1 1,0,0,0,0,0,0,0,0,0,0,0,0,0,0,1,
scooby_state_41aeaa|60|16 1,0,0,0,0,0,0,0,0,0,0,0,0,0,0,1,
scooby_state_417e5f|1|0 1,0,0,0,0,0,0,0,0,0,0,0,0,0,0,1,
scooby_state_4151fa|50|1 1,0,0,0,0,0,0,0,0,0,0,0,0,0,0,1,
scooby_state_418b48|15|1 1,0,0,0,0,0,0,0,0,0,0,0,0,0,0,1,
scooby_state_418c14|38|1 1,0,0,0,0,0,0,0,0,0,0,0,0,0,0,1,
scooby_state_416b84|46|1 1,0,0,0,0,0,0,0,0,0,0,0,0,0,0,1,
scooby_state_41a1c3|5|2 1,0,0,0,0,0,0,0,0,0,0,0,0,0,0,1,
scooby_state_41fcc0|51|1 1,0,0,0,0,0,0,0,0,0,0,0,0,0,0,1,
scooby_state_418bb6|27|1 1,0,0,0,0,0,0,0,0,0,0,0,0,0,0,1,
scooby_state_4202d8|1|1 1,0,0,0,0,0,0,0,0,0,0,0,0,0,0,1,
scooby_state_417d77|44|16 1,0,0,0,0,0,0,0,0,0,0,0,0,0,0,1,
scooby_state_41a248|41|1 1,0,0,0,0,0,0,0,0,0,0,0,0,0,0,1,
scooby_state_4186e9|18|1 1,0,0,0,0,0,0,0,0,0,0,0,0,0,0,1,
scooby_state_418253|44|-15 1,0,0,0,0,0,0,0,0,0,0,0,0,0,0,1,
scooby_state_41eedb|45|0 1,0,0,0,0,0,0,0,0,0,0,0,0,0,0,1,
scooby_state_41910d|27|-15 1,0,0,0,0,0,0,0,0,0,0,0,0,0,0,1,
scooby_state_4181f8|52|16 1,0,0,0,0,0,0,0,0,0,0,0,0,0,0,1,
scooby_state_4163ad|39|0 1,0,0,0,0,0,0,0,0,0,0,0,0,0,0,1,
scooby_state_419b60|62|1 1,0,0,0,0,0,0,0,0,0,0,0,0,0,0,1,
scooby_state_418602|24|1 1,0,0,0,0,0,0,0,0,0,0,0,0,0,0,1,
scooby_state_4190d5|21|-31 1,0,0,0,0,0,0,0,0,0,0,0,0,0,0,1,
scooby_state_41ae31|35|-15 1,0,0,0,0,0,0,0,0,0,0,0,0,0,0,1,
scooby_state_4192a2|63|54 1,0,0,0,0,0,0,0,0,0,0,0,0,0,0,1,
scooby_state_4156df|56|1 1,0,0,0,0,0,0,0,0,0,0,0,0,0,0,1,
scooby_state_417dae|30|-32 1,0,0,0,0,0,0,0,0,0,0,0,0,0,0,1,
scooby_state_418717|19|1 1,0,0,0,0,0,0,0,0,0,0,0,0,0,0,1,
scooby_state_41f5a8|16|1 1,0,0,0,0,0,0,0,0,0,0,0,0,0,0,1,
scooby_state_416301|12|1 1,0,0,0,0,0,0,0,0,0,0,0,0,0,0,1,
scooby_state_4190e8|6|-14 1,0,0,0,0,0,0,0,0,0,0,0,0,0,0,1,
scooby_state_4186e9|7|0 1,0,0,0,0,0,0,0,0,0,0,0,0,0,0,1,
scooby_state_4179d3|3|1 1,0,0,0,0,0,0,0,0,0,0,0,0,0,0,1,
scooby_state_419159|25|-15 1,0,0,0,0,0,0,0,0,0,0,0,0,0,0,1,
scooby_state_41924e|21|15 1,0,0,0,0,0,0,0,0,0,0,0,0,0,0,1,
scooby_state_41eedb|27|1 1,0,0,0,0,0,0,0,0,0,0,0,0,0,0,1,
scooby_state_41a248|13|1 1,0,0,0,0,0,0,0,0,0,0,0,0,0,0,1,
scooby_state_4190c1|51|1 1,0,0,0,0,0,0,0,0,0,0,0,0,0,0,1,
scooby_state_417140|5|1 1,0,0,0,0,0,0,0,0,0,0,0,0,0,0,1,
scooby_state_417de1|48|1 1,0,0,0,0,0,0,0,0,0,0,0,0,0,0,1,
scooby_state_4152f4|27|-14 1,0,0,0,0,0,0,0,0,0,0,0,0,0,0,1,
scooby_state_4154c0|19|1 1,0,0,0,0,0,0,0,0,0,0,0,0,0,0,1,
scooby_state_4183d0|15|1 1,0,0,0,0,0,0,0,0,0,0,0,0,0,0,1,
scooby_state_489840|33|1 1,0,0,0,0,0,0,0,0,0,0,0,0,0,0,1,
scooby_state_41f620|9|-48 1,0,0,0,0,0,0,0,0,0,0,0,0,0,0,1,
scooby_state_41871e|39|0 1,0,0,0,0,0,0,0,0,0,0,0,0,0,0,1,
scooby_state_419121|28|-32 1,0,0,0,0,0,0,0,0,0,0,0,0,0,0,1,
scooby_state_41817d|36|1 1,0,0,0,0,0,0,0,0,0,0,0,0,0,0,1,

scooby_action_0_deg_dist 0,201,0,0,0,0,0,0,0,0,0,0,0,0,0,0,
scooby_action_4_deg_dist 0,204,0,0,0,0,0,0,0,0,0,0,0,0,0,0,
scooby_action_3_deg_dist 0,1222,633,0,1588,0,16021,0,0,0,0,0,0,0,0,0,
scooby_action_32_deg_dist 0,175,0,0,0,0,0,0,0,0,0,0,0,0,0,0,
scooby_action_5_deg_dist 0,186,0,0,0,0,0,0,0,0,0,0,0,0,0,0,
scooby_action_1_deg_dist 0,130960,39025,0,101096,0,1329974,0,0,0,0,0,0,0,0,0,
scooby_action_30_deg_dist 0,204,0,0,0,0,0,0,0,0,0,0,0,0,0,0,
scooby_action_-3_deg_dist 0,203,0,0,0,0,0,0,0,0,0,0,0,0,0,0,
scooby_action_10_deg_dist 0,230,0,0,0,0,0,0,0,0,0,0,0,0,0,0,
scooby_action_-1_deg_dist 0,194,0,0,0,0,0,0,0,0,0,0,0,0,0,0,
scooby_action_23_deg_dist 0,199,0,0,0,0,0,0,0,0,0,0,0,0,0,0,
scooby_action_-6_deg_dist 0,191,0,0,0,0,0,0,0,0,0,0,0,0,0,0,
scooby_action_11_deg_dist 0,182,0,0,0,0,0,0,0,0,0,0,0,0,0,0,
scooby_action_22_deg_dist 0,206,0,0,0,0,0,0,0,0,0,0,0,0,0,0,
scooby_action_12_deg_dist 0,209,0,0,0,0,0,0,0,0,0,0,0,0,0,0,

scooby_track_called 1623103
scooby_track_same_address 6432
scooby_track_evict 1616415

scooby_reward_demand_called 1623103
scooby_reward_demand_pt_not_found 116779
scooby_reward_demand_pt_found 1506324
scooby_reward_demand_pt_found_total 1506324
scooby_reward_demand_has_reward 2976
scooby_reward_train_called 87056
scooby_reward_assign_reward_called 1616647
scooby_reward_no_pref 201
scooby_reward_incorrect 86855
scooby_reward_correct_untimely 1352381
scooby_reward_correct_timely 150967
scooby_reward_out_of_bounds 26243
scooby_reward_tracker_hit 0

scooby_reward_none_low_bw 201
scooby_reward_none_high_bw 0
scooby_reward_incorrect_low_bw 86855
scooby_reward_incorrect_high_bw 0
scooby_reward_correct_untimely_low_bw 1352381
scooby_reward_correct_untimely_high_bw 0
scooby_reward_correct_timely_low_bw 150967
scooby_reward_correct_timely_high_bw 0
scooby_reward_out_of_bounds_low_bw 26243
scooby_reward_out_of_bounds_high_bw 0
scooby_reward_tracker_hit_low_bw 0
scooby_reward_tracker_hit_high_bw 0

scooby_reward_1 0,83070,1338717,148508,24835,0,
scooby_reward_3 0,3229,13454,1838,924,0,
scooby_reward_4 0,34,85,74,7,0,
scooby_reward_5 0,25,52,81,15,0,
scooby_reward_10 0,48,23,112,37,0,
scooby_reward_11 0,44,15,75,38,0,
scooby_reward_12 0,53,13,94,40,0,
scooby_reward_22 0,79,6,64,54,0,
scooby_reward_23 0,72,3,48,74,0,
scooby_reward_30 0,60,1,37,102,0,
scooby_reward_32 0,44,0,36,90,0,
scooby_reward_-1 0,22,3,0,1,0,
scooby_reward_-3 0,37,5,0,8,0,
scooby_reward_-6 0,38,4,0,18,0,
scooby_reward_0 201,0,0,0,0,0,

scooby_train_called 1616414
scooby_train_compute_reward 87056

scooby_register_fill_called 954657
scooby_register_fill_set 158082
scooby_register_fill_set_total 158082

scooby_register_prefetch_hit_called 4182105
scooby_register_prefetch_hit_set 1312062
scooby_register_prefetch_hit_set_total 1312062

scooby_pref_issue_scooby 8147943

learning_engine_featurewise.action.called 1623103
learning_engine_featurewise.action.explore 2999
learning_engine_featurewise.action.exploit 1620104
learning_engine_featurewise.action.fallback 0
learning_engine_featurewise.action.dyn_fallback_saved_bw 0
learning_engine_featurewise.action.dyn_fallback_saved_bw_acc 29493
learning_engine_featurewise.action.index_1_explored 197
learning_engine_featurewise.action.index_1_exploited 1600858
learning_engine_featurewise.action.index_3_explored 218
learning_engine_featurewise.action.index_3_exploited 19246
learning_engine_featurewise.action.index_4_explored 204
learning_engine_featurewise.action.index_4_exploited 0
learning_engine_featurewise.action.index_5_explored 186
learning_engine_featurewise.action.index_5_exploited 0
learning_engine_featurewise.action.index_10_explored 230
learning_engine_featurewise.action.index_10_exploited 0
learning_engine_featurewise.action.index_11_explored 182
learning_engine_featurewise.action.index_11_exploited 0
learning_engine_featurewise.action.index_12_explored 209
learning_engine_featurewise.action.index_12_exploited 0
learning_engine_featurewise.action.index_22_explored 206
learning_engine_featurewise.action.index_22_exploited 0
learning_engine_featurewise.action.index_23_explored 199
learning_engine_featurewise.action.index_23_exploited 0
learning_engine_featurewise.action.index_30_explored 204
learning_engine_featurewise.action.index_30_exploited 0
learning_engine_featurewise.action.index_32_explored 175
learning_engine_featurewise.action.index_32_exploited 0
learning_engine_featurewise.action.index_-1_explored 194
learning_engine_featurewise.action.index_-1_exploited 0
learning_engine_featurewise.action.index_-3_explored 203
learning_engine_featurewise.action.index_-3_exploited 0
learning_engine_featurewise.action.index_-6_explored 191
learning_engine_featurewise.action.index_-6_exploited 0
learning_engine_featurewise.action.index_0_explored 201
learning_engine_featurewise.action.index_0_exploited 0
learning_engine_featurewise.learn.called 1616414
learning_engine_featurewise.learn.su_skip_PC 0
learning_engine_featurewise.learn.su_skip_PC_Delta 0

learning_engine_featurewise.q_value_histogram.bucket_0 0
learning_engine_featurewise.q_value_histogram.bucket_1 0
learning_engine_featurewise.q_value_histogram.bucket_2 0
learning_engine_featurewise.q_value_histogram.bucket_3 0
learning_engine_featurewise.q_value_histogram.bucket_4 2293
learning_engine_featurewise.q_value_histogram.bucket_5 5628
learning_engine_featurewise.q_value_histogram.bucket_6 1612183
learning_engine_featurewise.q_value_histogram.bucket_7 0

learning_engine_featurewise.consensus.total 1620104
learning_engine_featurewise.consensus.feature_align_PC 1616336
learning_engine_featurewise.consensus.feature_align_PC_ratio 1.00
learning_engine_featurewise.consensus.feature_align_PC_Delta 1619746
learning_engine_featurewise.consensus.feature_align_PC_Delta_ratio 1.00
learning_engine_featurewise.consensus.feature_align_all 1615978
learning_engine_featurewise.consensus.feature_align_all_ratio 1.00

learning_engine_featurewise.feature_PC_min_weight 1000000.00000000
learning_engine_featurewise.feature_PC_max_weight 0.00000000
learning_engine_featurewise.feature_PC_Delta_min_weight 1000000.00000000
learning_engine_featurewise.feature_PC_Delta_max_weight 0.00000000
unique_pcs 988
unique_pages 11016
unique_trigger_pcs 241
total_bitmaps_seen 0
unique_bitmaps_seen 0

scooby_bw_epochs 271918
scooby_bw_level_0 74780
scooby_bw_level_1 61644
scooby_bw_level_2 61030
scooby_bw_level_3 74464

scooby_ipc_epochs 0
scooby_ipc_level_0 0
scooby_ipc_level_1 0
scooby_ipc_level_2 0
scooby_ipc_level_3 0

scooby_cache_acc_epochs 65932
scooby_cache_acc_level_0 732
scooby_cache_acc_level_1 406
scooby_cache_acc_level_2 884
scooby_cache_acc_level_3 566
scooby_cache_acc_level_4 1495
scooby_cache_acc_level_5 1776
scooby_cache_acc_level_6 2415
scooby_cache_acc_level_7 4093
scooby_cache_acc_level_8 7021
scooby_cache_acc_level_9 46544

Channel_0_RQ_row_buffer_hit 532250
Channel_0_RQ_row_buffer_miss 950220
Channel_0_WQ_row_buffer_hit 82834
Channel_0_WQ_row_buffer_miss 362217
Channel_0_WQ_full 0
Channel_0_dbus_congested 1161895

avg_congested_cycle 10

DRAM_bw_pochs 271918
DRAM_bw_level_0 74780
DRAM_bw_level_1 61644
DRAM_bw_level_2 61030
DRAM_bw_level_3 74464
