*************************************************
   ChampSim Multicore Out-of-Order Simulator
   Last compiled: Apr  3 2025 20:54:34
*************************************************
parsing config file: /home/zir/Pythia/config/mlop.ini

trace_0 /home/zir/ChampSim/ML-DPC/ChampSimTraces/spec17/621.wrf-s1.trace.xz
adding L2C_PREFETCHER: MLOP
Initialize SHIP state
warmup_instructions 10000000
simulation_instructions 50000000
champsim_seed 164
measure_ipc 0
measure_ipc_epoch 1000
measure_dram_bw 1
measure_dram_bw_epoch 256
measure_cache_acc 1
measure_cache_acc_epoch 1024
l1d_perfect 0
l2c_perfect 0
llc_perfect 0
l1d_semi_perfect 0
l2c_semi_perfect 0
llc_semi_perfect 0
semi_perfect_cache_page_buffer_size 64

num_cpus 1
cpu_freq 4000
dram_io_freq 2400
page_size 4096
block_size 64
max_read_per_cycle 8
max_fill_per_cycle 1
dram_channels 1
log2_dram_channels 0
dram_ranks 1
dram_banks 8
dram_rows 65536
dram_columns 128
dram_row_size 8
dram_size 4096
dram_pages 1048576

fetch_width 6
decode_width 6
exec_width 4
lq_width 2
sq_width 2
retire_width 4
scheduler_size 128
branch_mispredict_penalty 20
rob_size 256
lq_size 72
sq_size 56
num_instr_destinations_sparc 4
num_instr_destinations 2
num_instr_sources 4

itlb_set 16
itlb_way 8
itlb_rq_size 16
itlb_wq_size 16
itlb_pq_size 0
itlb_mshr_size 8
itlb_latency 1

dtlb_set 16
dtlb_way 4
dtlb_rq_size 16
dtlb_wq_size 16
dtlb_pq_size 0
dtlb_mshr_size 8
dtlb_latency 1

stlb_set 128
stlb_way 12
stlb_rq_size 32
stlb_wq_size 32
stlb_pq_size 0
stlb_mshr_size 16
stlb_latency 8

l1i_size 32
l1i_set 64
l1i_way 8
l1i_rq_size 64
l1i_wq_size 64
l1i_pq_size 8
l1i_mshr_size 8
l1i_latency 1

l1d_size 32
l1d_set 64
l1d_way 8
l1d_rq_size 64
l1d_wq_size 64
l1d_pq_size 8
l1d_mshr_size 16
l1d_latency 4

l2c_size 256
l2c_set 512
l2c_way 8
l2c_rq_size 32
l2c_wq_size 32
l2c_pq_size 32
l2c_mshr_size 32
l2c_latency 10

llc_size 2048
llc_set 2048
llc_way 16
llc_rq_size 32
llc_wq_size 32
llc_pq_size 32
llc_mshr_size 64
llc_latency 20

dram_channel_width 8
dram_wq_size 64
dram_rq_size 64
tRP 15
tRCD 15
tCAS 12.5
dram_dbus_turn_around_time 30
dram_write_high_wm 56
dram_write_low_wm 48
min_dram_writes_per_switch 16
dram_mtps 2400
dram_dbus_return_time 13

mlop_pref_degree 16
mlop_num_updates 500
mlop_l1d_thresh 2
mlop_l2c_thresh 0.75
mlop_llc_thresh 0.3
mlop_debug_level 0
mlop_blocks_in_cache 4096
mlop_blocks_in_zone 64
mlop_amt_size 2048
mlop_PF_DEGREE 16
mlop_NUM_UPDATES 500
mlop_L1D_THRESH 1000
mlop_L2C_THRESH 375
mlop_LLC_THRESH 150
mlop_ORIGIN 63
mlop_MAX_OFFSET 63
mlop_MIN_OFFSET -63
mlop_ORIGIN 63
mlop_NUM_OFFSETS 127


Heartbeat CPU  0 instructions:    1000001 cycles:     439925 heartbeat IPC: 2.27312 cumulative IPC: 2.27312 (Simulation time: 0 hr 0 min 2 sec) 
Heartbeat CPU  0 instructions:    2000002 cycles:     855404 heartbeat IPC: 2.40686 cumulative IPC: 2.33808 (Simulation time: 0 hr 0 min 3 sec) 
Heartbeat CPU  0 instructions:    3000001 cycles:    1397493 heartbeat IPC: 1.84471 cumulative IPC: 2.14670 (Simulation time: 0 hr 0 min 5 sec) 
Heartbeat CPU  0 instructions:    4000000 cycles:    2020694 heartbeat IPC: 1.60462 cumulative IPC: 1.97952 (Simulation time: 0 hr 0 min 7 sec) 
Heartbeat CPU  0 instructions:    5000001 cycles:    2652235 heartbeat IPC: 1.58343 cumulative IPC: 1.88520 (Simulation time: 0 hr 0 min 9 sec) 
Heartbeat CPU  0 instructions:    6000001 cycles:    3286496 heartbeat IPC: 1.57664 cumulative IPC: 1.82565 (Simulation time: 0 hr 0 min 11 sec) 
Heartbeat CPU  0 instructions:    7000000 cycles:    3916428 heartbeat IPC: 1.58747 cumulative IPC: 1.78734 (Simulation time: 0 hr 0 min 13 sec) 
Heartbeat CPU  0 instructions:    8000000 cycles:    4547140 heartbeat IPC: 1.58551 cumulative IPC: 1.75935 (Simulation time: 0 hr 0 min 14 sec) 
Heartbeat CPU  0 instructions:    9000000 cycles:    5174650 heartbeat IPC: 1.59360 cumulative IPC: 1.73925 (Simulation time: 0 hr 0 min 16 sec) 
Heartbeat CPU  0 instructions:   10000000 cycles:    5737038 heartbeat IPC: 1.77813 cumulative IPC: 1.74306 (Simulation time: 0 hr 0 min 18 sec) 

Warmup complete CPU  0 instructions:   10000004 cycles:    5737039 (Simulation time: 0 hr 0 min 18 sec) 

Heartbeat CPU  0 instructions:   11000001 cycles:    6394690 heartbeat IPC: 1.52056 cumulative IPC: 1.52056 (Simulation time: 0 hr 0 min 20 sec) 
Heartbeat CPU  0 instructions:   12000000 cycles:    7057962 heartbeat IPC: 1.50768 cumulative IPC: 1.51409 (Simulation time: 0 hr 0 min 22 sec) 
Heartbeat CPU  0 instructions:   13000001 cycles:    7744345 heartbeat IPC: 1.45691 cumulative IPC: 1.49454 (Simulation time: 0 hr 0 min 23 sec) 
Heartbeat CPU  0 instructions:   14000001 cycles:    8456487 heartbeat IPC: 1.40421 cumulative IPC: 1.47089 (Simulation time: 0 hr 0 min 25 sec) 
Heartbeat CPU  0 instructions:   15000001 cycles:    9203511 heartbeat IPC: 1.33865 cumulative IPC: 1.44239 (Simulation time: 0 hr 0 min 27 sec) 
Heartbeat CPU  0 instructions:   16000000 cycles:   10003743 heartbeat IPC: 1.24964 cumulative IPC: 1.40624 (Simulation time: 0 hr 0 min 29 sec) 
Heartbeat CPU  0 instructions:   17000003 cycles:   10804192 heartbeat IPC: 1.24930 cumulative IPC: 1.38145 (Simulation time: 0 hr 0 min 31 sec) 
Heartbeat CPU  0 instructions:   18000001 cycles:   11764017 heartbeat IPC: 1.04185 cumulative IPC: 1.32736 (Simulation time: 0 hr 0 min 33 sec) 
Heartbeat CPU  0 instructions:   19000002 cycles:   12908607 heartbeat IPC: 0.87368 cumulative IPC: 1.25496 (Simulation time: 0 hr 0 min 35 sec) 
Heartbeat CPU  0 instructions:   20000000 cycles:   14132362 heartbeat IPC: 0.81716 cumulative IPC: 1.19114 (Simulation time: 0 hr 0 min 38 sec) 
Heartbeat CPU  0 instructions:   21000003 cycles:   15423599 heartbeat IPC: 0.77445 cumulative IPC: 1.13559 (Simulation time: 0 hr 0 min 40 sec) 
Heartbeat CPU  0 instructions:   22000000 cycles:   16419273 heartbeat IPC: 1.00434 cumulative IPC: 1.12336 (Simulation time: 0 hr 0 min 42 sec) 
Heartbeat CPU  0 instructions:   23000000 cycles:   17577625 heartbeat IPC: 0.86330 cumulative IPC: 1.09792 (Simulation time: 0 hr 0 min 44 sec) 
Heartbeat CPU  0 instructions:   24000000 cycles:   18411611 heartbeat IPC: 1.19906 cumulative IPC: 1.10457 (Simulation time: 0 hr 0 min 46 sec) 
Heartbeat CPU  0 instructions:   25000003 cycles:   19265703 heartbeat IPC: 1.17084 cumulative IPC: 1.10876 (Simulation time: 0 hr 0 min 47 sec) 
Heartbeat CPU  0 instructions:   26000000 cycles:   20088525 heartbeat IPC: 1.21533 cumulative IPC: 1.11487 (Simulation time: 0 hr 0 min 49 sec) 
Heartbeat CPU  0 instructions:   27000002 cycles:   20919260 heartbeat IPC: 1.20376 cumulative IPC: 1.11973 (Simulation time: 0 hr 0 min 51 sec) 
Heartbeat CPU  0 instructions:   28000000 cycles:   21679957 heartbeat IPC: 1.31458 cumulative IPC: 1.12903 (Simulation time: 0 hr 0 min 52 sec) 
Heartbeat CPU  0 instructions:   29000002 cycles:   22434402 heartbeat IPC: 1.32548 cumulative IPC: 1.13790 (Simulation time: 0 hr 0 min 54 sec) 
Heartbeat CPU  0 instructions:   30000003 cycles:   23208730 heartbeat IPC: 1.29144 cumulative IPC: 1.14471 (Simulation time: 0 hr 0 min 56 sec) 
Heartbeat CPU  0 instructions:   31000003 cycles:   23988492 heartbeat IPC: 1.28244 cumulative IPC: 1.15059 (Simulation time: 0 hr 0 min 57 sec) 
Heartbeat CPU  0 instructions:   32000000 cycles:   24680147 heartbeat IPC: 1.44580 cumulative IPC: 1.16137 (Simulation time: 0 hr 0 min 59 sec) 
Heartbeat CPU  0 instructions:   33000003 cycles:   25363121 heartbeat IPC: 1.46419 cumulative IPC: 1.17191 (Simulation time: 0 hr 1 min 1 sec) 
Heartbeat CPU  0 instructions:   34000001 cycles:   26888079 heartbeat IPC: 0.65575 cumulative IPC: 1.13470 (Simulation time: 0 hr 1 min 3 sec) 
Heartbeat CPU  0 instructions:   35000002 cycles:   28858036 heartbeat IPC: 0.50763 cumulative IPC: 1.08127 (Simulation time: 0 hr 1 min 6 sec) 
Heartbeat CPU  0 instructions:   36000000 cycles:   30744887 heartbeat IPC: 0.52998 cumulative IPC: 1.03967 (Simulation time: 0 hr 1 min 9 sec) 
Heartbeat CPU  0 instructions:   37000003 cycles:   33305408 heartbeat IPC: 0.39055 cumulative IPC: 0.97938 (Simulation time: 0 hr 1 min 12 sec) 
Heartbeat CPU  0 instructions:   38000000 cycles:   36391040 heartbeat IPC: 0.32408 cumulative IPC: 0.91342 (Simulation time: 0 hr 1 min 15 sec) 
Heartbeat CPU  0 instructions:   39000001 cycles:   38282100 heartbeat IPC: 0.52880 cumulative IPC: 0.89107 (Simulation time: 0 hr 1 min 18 sec) 
Heartbeat CPU  0 instructions:   40000000 cycles:   39110199 heartbeat IPC: 1.20758 cumulative IPC: 0.89893 (Simulation time: 0 hr 1 min 20 sec) 
Heartbeat CPU  0 instructions:   41000001 cycles:   40016607 heartbeat IPC: 1.10326 cumulative IPC: 0.90433 (Simulation time: 0 hr 1 min 21 sec) 
Heartbeat CPU  0 instructions:   42000001 cycles:   40857514 heartbeat IPC: 1.18919 cumulative IPC: 0.91115 (Simulation time: 0 hr 1 min 23 sec) 
Heartbeat CPU  0 instructions:   43000000 cycles:   43321007 heartbeat IPC: 0.40593 cumulative IPC: 0.87803 (Simulation time: 0 hr 1 min 26 sec) 
Heartbeat CPU  0 instructions:   44000000 cycles:   44599706 heartbeat IPC: 0.78204 cumulative IPC: 0.87488 (Simulation time: 0 hr 1 min 28 sec) 
Heartbeat CPU  0 instructions:   45000001 cycles:   45812137 heartbeat IPC: 0.82479 cumulative IPC: 0.87336 (Simulation time: 0 hr 1 min 31 sec) 
Heartbeat CPU  0 instructions:   46000003 cycles:   46989725 heartbeat IPC: 0.84920 cumulative IPC: 0.87267 (Simulation time: 0 hr 1 min 33 sec) 
Heartbeat CPU  0 instructions:   47000001 cycles:   48069996 heartbeat IPC: 0.92569 cumulative IPC: 0.87402 (Simulation time: 0 hr 1 min 34 sec) 
Heartbeat CPU  0 instructions:   48000000 cycles:   49283245 heartbeat IPC: 0.82423 cumulative IPC: 0.87264 (Simulation time: 0 hr 1 min 37 sec) 
Heartbeat CPU  0 instructions:   49000000 cycles:   50531996 heartbeat IPC: 0.80080 cumulative IPC: 0.87063 (Simulation time: 0 hr 1 min 39 sec) 
Heartbeat CPU  0 instructions:   50000003 cycles:   51804227 heartbeat IPC: 0.78602 cumulative IPC: 0.86830 (Simulation time: 0 hr 1 min 41 sec) 
Heartbeat CPU  0 instructions:   51000001 cycles:   52976362 heartbeat IPC: 0.85314 cumulative IPC: 0.86792 (Simulation time: 0 hr 1 min 44 sec) 
Heartbeat CPU  0 instructions:   52000000 cycles:   54588874 heartbeat IPC: 0.62015 cumulative IPC: 0.85974 (Simulation time: 0 hr 1 min 46 sec) 
Heartbeat CPU  0 instructions:   53000000 cycles:   55554532 heartbeat IPC: 1.03556 cumulative IPC: 0.86315 (Simulation time: 0 hr 1 min 48 sec) 
Heartbeat CPU  0 instructions:   54000000 cycles:   56555529 heartbeat IPC: 0.99900 cumulative IPC: 0.86583 (Simulation time: 0 hr 1 min 51 sec) 
Heartbeat CPU  0 instructions:   55000000 cycles:   57593659 heartbeat IPC: 0.96327 cumulative IPC: 0.86778 (Simulation time: 0 hr 1 min 53 sec) 
Heartbeat CPU  0 instructions:   56000000 cycles:   58711259 heartbeat IPC: 0.89477 cumulative IPC: 0.86835 (Simulation time: 0 hr 1 min 55 sec) 
Heartbeat CPU  0 instructions:   57000002 cycles:   60206057 heartbeat IPC: 0.66899 cumulative IPC: 0.86288 (Simulation time: 0 hr 1 min 57 sec) 
Heartbeat CPU  0 instructions:   58000002 cycles:   61557594 heartbeat IPC: 0.73990 cumulative IPC: 0.85990 (Simulation time: 0 hr 2 min 0 sec) 
Heartbeat CPU  0 instructions:   59000003 cycles:   62775952 heartbeat IPC: 0.82078 cumulative IPC: 0.85906 (Simulation time: 0 hr 2 min 2 sec) 
Heartbeat CPU  0 instructions:   60000000 cycles:   63732596 heartbeat IPC: 1.04532 cumulative IPC: 0.86213 (Simulation time: 0 hr 2 min 4 sec) 
Finished CPU 0 instructions: 50000000 cycles: 57995601 cumulative IPC: 0.86213 (Simulation time: 0 hr 2 min 4 sec) 

ChampSim completed all CPUs

[ROI Statistics]
Core_0_instructions 50000000
Core_0_cycles 57995601
Core_0_IPC 0.86213

Core_0_branch_prediction_accuracy 99.34653
Core_0_branch_MPKI 0.34402
Core_0_average_ROB_occupancy_at_mispredict 228.10371

Core_0_L1D_total_access 11285611
Core_0_L1D_total_hit 9919782
Core_0_L1D_total_miss 1365829
Core_0_L1D_loads 9185611
Core_0_L1D_load_hit 8033048
Core_0_L1D_load_miss 1152563
Core_0_L1D_RFOs 2100000
Core_0_L1D_RFO_hit 1886734
Core_0_L1D_RFO_miss 213266
Core_0_L1D_prefetches 0
Core_0_L1D_prefetch_hit 0
Core_0_L1D_prefetch_miss 0
Core_0_L1D_writebacks 0
Core_0_L1D_writeback_hit 0
Core_0_L1D_writeback_miss 0
Core_0_L1D_prefetch_requested 0
Core_0_L1D_prefetch_dropped 0
Core_0_L1D_prefetch_issued 0
Core_0_L1D_prefetch_filled 0
Core_0_L1D_prefetch_useful 0
Core_0_L1D_prefetch_useless 0
Core_0_L1D_prefetch_late 0
Core_0_L1D_average_miss_latency 126.74314

Core_0_L1D_rq_access 14290204
Core_0_L1D_rq_forward 0
Core_0_L1D_rq_merged 4595380
Core_0_L1D_rq_to_cache 9694737
Core_0_L1D_rq_full 0

Core_0_L1D_wq_access 2871696
Core_0_L1D_wq_forward 87
Core_0_L1D_wq_merged 62
Core_0_L1D_wq_to_cache 2871634
Core_0_L1D_wq_full 10727

Core_0_L1D_pq_access 0
Core_0_L1D_pq_forward 0
Core_0_L1D_pq_merged 0
Core_0_L1D_pq_to_cache 0
Core_0_L1D_pq_full 0

Core_0_L1D_acc_epochs 61191
Core_0_L1D_acc_level_0 61191
Core_0_L1D_acc_level_1 0
Core_0_L1D_acc_level_2 0
Core_0_L1D_acc_level_3 0
Core_0_L1D_acc_level_4 0
Core_0_L1D_acc_level_5 0
Core_0_L1D_acc_level_6 0
Core_0_L1D_acc_level_7 0
Core_0_L1D_acc_level_8 0
Core_0_L1D_acc_level_9 0

Core_0_L1I_total_access 11308816
Core_0_L1I_total_hit 11306766
Core_0_L1I_total_miss 2050
Core_0_L1I_loads 11308816
Core_0_L1I_load_hit 11306766
Core_0_L1I_load_miss 2050
Core_0_L1I_RFOs 0
Core_0_L1I_RFO_hit 0
Core_0_L1I_RFO_miss 0
Core_0_L1I_prefetches 0
Core_0_L1I_prefetch_hit 0
Core_0_L1I_prefetch_miss 0
Core_0_L1I_writebacks 0
Core_0_L1I_writeback_hit 0
Core_0_L1I_writeback_miss 0
Core_0_L1I_prefetch_requested 0
Core_0_L1I_prefetch_dropped 0
Core_0_L1I_prefetch_issued 0
Core_0_L1I_prefetch_filled 0
Core_0_L1I_prefetch_useful 0
Core_0_L1I_prefetch_useless 0
Core_0_L1I_prefetch_late 0
Core_0_L1I_average_miss_latency 113.64293

Core_0_L1I_rq_access 50000007
Core_0_L1I_rq_forward 0
Core_0_L1I_rq_merged 38689760
Core_0_L1I_rq_to_cache 11310247
Core_0_L1I_rq_full 0

Core_0_L1I_wq_access 0
Core_0_L1I_wq_forward 0
Core_0_L1I_wq_merged 0
Core_0_L1I_wq_to_cache 0
Core_0_L1I_wq_full 0

Core_0_L1I_pq_access 0
Core_0_L1I_pq_forward 0
Core_0_L1I_pq_merged 0
Core_0_L1I_pq_to_cache 0
Core_0_L1I_pq_full 0

Core_0_L1I_acc_epochs 61191
Core_0_L1I_acc_level_0 61191
Core_0_L1I_acc_level_1 0
Core_0_L1I_acc_level_2 0
Core_0_L1I_acc_level_3 0
Core_0_L1I_acc_level_4 0
Core_0_L1I_acc_level_5 0
Core_0_L1I_acc_level_6 0
Core_0_L1I_acc_level_7 0
Core_0_L1I_acc_level_8 0
Core_0_L1I_acc_level_9 0

Core_0_L2C_total_access 2590948
Core_0_L2C_total_hit 1537307
Core_0_L2C_total_miss 1053641
Core_0_L2C_loads 1154562
Core_0_L2C_load_hit 1003793
Core_0_L2C_load_miss 150769
Core_0_L2C_RFOs 213266
Core_0_L2C_RFO_hit 54536
Core_0_L2C_RFO_miss 158730
Core_0_L2C_prefetches 757357
Core_0_L2C_prefetch_hit 13312
Core_0_L2C_prefetch_miss 744045
Core_0_L2C_writebacks 465763
Core_0_L2C_writeback_hit 465666
Core_0_L2C_writeback_miss 97
Core_0_L2C_prefetch_requested 1452328
Core_0_L2C_prefetch_dropped 0
Core_0_L2C_prefetch_issued 1452328
Core_0_L2C_prefetch_filled 829338
Core_0_L2C_prefetch_useful 785151
Core_0_L2C_prefetch_useless 43886
Core_0_L2C_prefetch_late 19768
Core_0_L2C_average_miss_latency 313.27276

Core_0_L2C_rq_access 1367879
Core_0_L2C_rq_forward 0
Core_0_L2C_rq_merged 0
Core_0_L2C_rq_to_cache 1367829
Core_0_L2C_rq_full 0

Core_0_L2C_wq_access 465764
Core_0_L2C_wq_forward 59
Core_0_L2C_wq_merged 0
Core_0_L2C_wq_to_cache 465764
Core_0_L2C_wq_full 0

Core_0_L2C_pq_access 1452328
Core_0_L2C_pq_forward 0
Core_0_L2C_pq_merged 10884
Core_0_L2C_pq_to_cache 1441435
Core_0_L2C_pq_full 0

Core_0_L2C_acc_epochs 61191
Core_0_L2C_acc_level_0 5031
Core_0_L2C_acc_level_1 832
Core_0_L2C_acc_level_2 697
Core_0_L2C_acc_level_3 756
Core_0_L2C_acc_level_4 1028
Core_0_L2C_acc_level_5 1599
Core_0_L2C_acc_level_6 2234
Core_0_L2C_acc_level_7 3782
Core_0_L2C_acc_level_8 5865
Core_0_L2C_acc_level_9 39367

Core_0_LLC_total_access 1825697
Core_0_LLC_total_hit 714994
Core_0_LLC_total_miss 1110703
Core_0_LLC_loads 131255
Core_0_LLC_load_hit 24675
Core_0_LLC_load_miss 106580
Core_0_LLC_RFOs 158484
Core_0_LLC_RFO_hit 6972
Core_0_LLC_RFO_miss 151512
Core_0_LLC_prefetches 1167521
Core_0_LLC_prefetch_hit 423059
Core_0_LLC_prefetch_miss 744462
Core_0_LLC_writebacks 368437
Core_0_LLC_writeback_hit 260288
Core_0_LLC_writeback_miss 108149
Core_0_LLC_prefetch_requested 0
Core_0_LLC_prefetch_dropped 0
Core_0_LLC_prefetch_issued 0
Core_0_LLC_prefetch_filled 827739
Core_0_LLC_prefetch_useful 21162
Core_0_LLC_prefetch_useless 779965
Core_0_LLC_prefetch_late 3568
Core_0_LLC_average_miss_latency 428.94210

Core_0_LLC_rq_access 289741
Core_0_LLC_rq_forward 0
Core_0_LLC_rq_merged 0
Core_0_LLC_rq_to_cache 289739
Core_0_LLC_rq_full 0

Core_0_LLC_wq_access 368437
Core_0_LLC_wq_forward 2
Core_0_LLC_wq_merged 0
Core_0_LLC_wq_to_cache 368437
Core_0_LLC_wq_full 0

Core_0_LLC_pq_access 1418140
Core_0_LLC_pq_forward 0
Core_0_LLC_pq_merged 3203
Core_0_LLC_pq_to_cache 1414937
Core_0_LLC_pq_full 0

Core_0_LLC_acc_epochs 62239
Core_0_LLC_acc_level_0 58209
Core_0_LLC_acc_level_1 1717
Core_0_LLC_acc_level_2 692
Core_0_LLC_acc_level_3 318
Core_0_LLC_acc_level_4 184
Core_0_LLC_acc_level_5 193
Core_0_LLC_acc_level_6 103
Core_0_LLC_acc_level_7 88
Core_0_LLC_acc_level_8 105
Core_0_LLC_acc_level_9 630

Core_0_major_page_fault 0
Core_0_minor_page_fault 6870

[MLOP] History of tracked zone:
IIIIIIIIIIIIIIIIIIIIIIIIIIIIIIIIIIIIIIIIIIIIIIIIIIIIIIIIIIIIIIII
A222222222IIIIII44444I4IIIIIIIIIIIIIIIIIIIIIIIIIIIIIIIIIIIIIIIII
AA222222222IIIII44444444IIIIIIIIIIIIIIIIIIIIIIIIIIIIIIIIIIIIIIII
AAA222222222IIII444444444IIIIIIIIIIIIIIIIIIIIIIIIIIIIIIIIIIIIIII
AAAA222222222III4444444444IIIIIIIIIIIIIIIIIIIIIIIIIIIIIIIIIIIIII
AAAAA222222222II44444444444IIIIIIIIIIIIIIIIIIIIIIIIIIIIIIIIIIIII
AAAAAA222222222I444444444444IIIIIIIIIIIIIIIIIIIIIIIIIIIIIIIIIIII
AAAAAAA2222222224444444444444IIIIIIIIIIIIIIIIIIIIIIIIIIIIIIIIIII
AAAAAAAA2222222224444444444444IIIIIIIIIIIIIIIIIIIIIIIIIIIIIIIIII
AAAAAAAAA2222222224444444444444IIIIIIIIIIIIIIIIIIIIIIIIIIIIIIIII
AAAAAAAAAA2222222224444444444444IIIIIIIIIIIIIIIIIIIIIIIIIIIIIIII
AAAAAAAAAAA2222222224444444444444IIIIIIIIIIIIIIIIIIIIIIIIIIIIIII
AAAAAAAAAAAA2222222224444444444444IIIIIIIIIIIIIIIIIIIIIIIIIIIIII
AAAAAAAAAAAAA2222222224444444444444IIIIIIIIIIIIIIIIIIIIIIIIIIIII
AAAAAAAAAAAAAA2222222224444444444444IIIIIIIIIIIIIIIIIIIIIIIIIIII
AAAAAAAAAAAAAAA2222222224444444444444IIIIIIIIIIIIIIIIIIIIIIIIIII
AAAAAAAAAAAAAAAA2222222224444444444444IIIIIIIIIIIIIIIIIIIIIIIIII
AAAAAAAAAAAAAAAAA2222222224444444444444IIIIIIIIIIIIIIIIIIIIIIIII
AAAAAAAAAAAAAAAAAA2222222224444444444444IIIIIIIIIIIIIIIIIIIIIIII
AAAAAAAAAAAAAAAAAAA2222222224444444444444IIIIIIIIIIIIIIIIIIIIIII
AAAAAAAAAAAAAAAAAAAA2222222224444444444444IIIIIIIIIIIIIIIIIIIIII
AAAAAAAAAAAAAAAAAAAAA2222222224444444444444IIIIIIIIIIIIIIIIIIIII
AAAAAAAAAAAAAAAAAAAAAA2222222224444444444444IIIIIIIIIIIIIIIIIIII
AAAAAAAAAAAAAAAAAAAAAAA2222222224444444444444IIIIIIIIIIIIIIIIIII
AAAAAAAAAAAAAAAAAAAAAAAA2222222224444444444444IIIIIIIIIIIIIIIIII
AAAAAAAAAAAAAAAAAAAAAAAAA2222222224444444444444IIIIIIIIIIIIIIIII
AAAAAAAAAAAAAAAAAAAAAAAAAA2222222224444444444444IIIIIIIIIIIIIIII
AAAAAAAAAAAAAAAAAAAAAAAAAAA2222222224444444444444IIIIIIIIIIIIIII
AAAAAAAAAAAAAAAAAAAAAAAAAAAA2222222224444444444444IIIIIIIIIIIIII
AAAAAAAAAAAAAAAAAAAAAAAAAAAAA2222222224444444444444IIIIIIIIIIIII
AAAAAAAAAAAAAAAAAAAAAAAAAAAAAA2222222224444444444444IIIIIIIIIIII
AAAAAAAAAAAAAAAAAAAAAAAAAAAAAAA2222222224444444444444IIIIIIIIIII
AAAAAAAAAAAAAAAAAAAAAAAAAAAAAAAA2222222224444444444444IIIIIIIIII
AAAAAAAAAAAAAAAAAAAAAAAAAAAAAAAAA2222222224444444444444IIIIIIIII
AAAAAAAAAAAAAAAAAAAAAAAAAAAAAAAAAA2222222224444444444444IIIIIIII
AAAAAAAAAAAAAAAAAAAAAAAAAAAAAAAAAAA2222222224444444444444IIIIIII
AAAAAAAAAAAAAAAAAAAAAAAAAAAAAAAAAAAA2222222224444444444444IIIIII
AAAAAAAAAAAAAAAAAAAAAAAAAAAAAAAAAAAAA2222222224444444444444IIIII
AAAAAAAAAAAAAAAAAAAAAAAAAAAAAAAAAAAAAA2222222224444444444444IIII
AAAAAAAAAAAAAAAAAAAAAAAAAAAAAAAAAAAAAAA2222222224444444444444III
AAAAAAAAAAAAAAAAAAAAAAAAAAAAAAAAAAAAAAAA2222222224444444444444II
AAAAAAAAAAAAAAAAAAAAAAAAAAAAAAAAAAAAAAAAA2222222224444444444444I
AAAAAAAAAAAAAAAAAAAAAAAAAAAAAAAAAAAAAAAAAA2222222224444444444444
AAAAAAAAAAAAAAAAAAAAAAAAAAAAAAAAAAAAAAAAAAA222222222444444444444
AAAAAAAAAAAAAAAAAAAAAAAAAAAAAAAAAAAAAAAAAAAA22222222244444444444
AAAAAAAAAAAAAAAAAAAAAAAAAAAAAAAAAAAAAAAAAAAAA2222222224444444444
AAAAAAAAAAAAAAAAAAAAAAAAAAAAAAAAAAAAAAAAAAAAAA222222222444444444
AAAAAAAAAAAAAAAAAAAAAAAAAAAAAAAAAAAAAAAAAAAAAAA22222222244444444
AAAAAAAAAAAAAAAAAAAAAAAAAAAAAAAAAAAAAAAAAAAAAAAA2222222224444444
AAAAAAAAAAAAAAAAAAAAAAAAAAAAAAAAAAAAAAAAAAAAAAAAA222222222444444
AAAAAAAAAAAAAAAAAAAAAAAAAAAAAAAAAAAAAAAAAAAAAAAAAA22222222244444
AAAAAAAAAAAAAAAAAAAAAAAAAAAAAAAAAAAAAAAAAAAAAAAAAAA2222222224444
AAAAAAAAAAAAAAAAAAAAAAAAAAAAAAAAAAAAAAAAAAAAAAAAAAAA222222222444
AAAAAAAAAAAAAAAAAAAAAAAAAAAAAAAAAAAAAAAAAAAAAAAAAAAAA22222222244
AAAAAAAAAAAAAAAAAAAAAAAAAAAAAAAAAAAAAAAAAAAAAAAAAAAAAA2222222224
AAAAAAAAAAAAAAAAAAAAAAAAAAAAAAAAAAAAAAAAAAAAAAAAAAAAAAA222222222
AAAAAAAAAAAAAAAAAAAAAAAAAAAAAAAAAAAAAAAAAAAAAAAAAAAAAAAA22222222
AAAAAAAAAAAAAAAAAAAAAAAAAAAAAAAAAAAAAAAAAAAAAAAAAAAAAAAAA2222222
AAAAAAAAAAAAAAAAAAAAAAAAAAAAAAAAAAAAAAAAAAAAAAAAAAAAAAAAAA222222
AAAAAAAAAAAAAAAAAAAAAAAAAAAAAAAAAAAAAAAAAAAAAAAAAAAAAAAAAAA22222
AAAAAAAAAAAAAAAAAAAAAAAAAAAAAAAAAAAAAAAAAAAAAAAAAAAAAAAAAAAA2222
AAAAAAAAAAAAAAAAAAAAAAAAAAAAAAAAAAAAAAAAAAAAAAAAAAAAAAAAAAAAA222
AAAAAAAAAAAAAAAAAAAAAAAAAAAAAAAAAAAAAAAAAAAAAAAAAAAAAAAAAAAAAA22
AAAAAAAAAAAAAAAAAAAAAAAAAAAAAAAAAAAAAAAAAAAAAAAAAAAAAAAAAAAAAAA2
AAAAAAAAAAAAAAAAAAAAAAAAAAAAAAAAAAAAAAAAAAAAAAAAAAAAAAAAAAAAAAAA
AAAAAAAAIAAAAAAAAAAAAAAAAAAAAAAAAAAAAAAAAAAAAAAAAAAAAAAAAAAAAAAA
AAAAAAAAIIAAAAAAAAAAAAAAAAAAAAAAAAAAAAAAAAAAAAAAAAAAAAAAAAAAAAAA
AAAAAAAAIIIAAAAAAAAAAAAAAAAAAAAAAAAAAAAAAAAAAAAAAAAAAAAAAAAAAAAA
AAAAAAAAIIIIAAAAAAAAAAAAAAAAAAAAAAAAAAAAAAAAAAAAAAAAAAAAAAAAAAAA
AAAAAAAAIIIIIAAAAAAAAAAAAAAAAAAAAAAAAAAAAAAAAAAAAAAAAAAAAAAAAAAA
AAAAAAAAIIIIIIAAAAAAAAAAAAAAAAAAAAAAAAAAAAAAAAAAAAAAAAAAAAAAAAAA
AAAAAAAAIIIIIIIAAAAAAAAAAAAAAAAAAAAAAAAAAAAAAAAAAAAAAAAAAAAAAAAA
AAAAAAAAIIIIIIIIAAAAAAAAAAAAAAAAAAAAAAAAAAAAAAAAAAAAAAAAAAAAAAAA
AAAAAAAAIIIIIIIIIAAAAAAAAAAAAAAAAAAAAAAAAAAAAAAAAAAAAAAAAAAAAAAA
AAAAAAAAIIIIIIIIIIAAAAAAAAAAAAAAAAAAAAAAAAAAAAAAAAAAAAAAAAAAAAAA
AAAAAAAAIIIIIIIIIIIAAAAAAAAAAAAAAAAAAAAAAAAAAAAAAAAAAAAAAAAAAAAA
AAAAAAAAIIIIIIIIIIIIAAAAAAAAAAAAAAAAAAAAAAAAAAAAAAAAAAAAAAAAAAAA
AAAAAAAAIIIIIIIIIIIIIAAAAAAAAAAAAAAAAAAAAAAAAAAAAAAAAAAAAAAAAAAA
AAAAAAAAIIIIIIIIIIIIIIAAAAAAAAAAAAAAAAAAAAAAAAAAAAAAAAAAAAAAAAAA
AAAAAAAAIIIIIIIIIIIIIIIAAAAAAAAAAAAAAAAAAAAAAAAAAAAAAAAAAAAAAAAA
AAAAAAAAIIIIIIIIIIIIIIIIAAAAAAAAAAAAAAAAAAAAAAAAAAAAAAAAAAAAAAAA
AAAAAAAAIIIIIIIIIIIIIIIIIAAAAAAAAAAAAAAAAAAAAAAAAAAAAAAAAAAAAAAA
AAAAAAAAIIIIIIIIIIIIIIIIIIAAAAAAAAAAAAAAAAAAAAAAAAAAAAAAAAAAAAAA
AAAAAAAAIIIIIIIIIIIIIIIIIIIAAAAAAAAAAAAAAAAAAAAAAAAAAAAAAAAAAAAA
AAAAAAAAIIIIIIIIIIIIIIIIIIIIAAAAAAAAAAAAAAAAAAAAAAAAAAAAAAAAAAAA
AAAAAAAAIIIIIIIIIIIIIIIIIIIIIAAAAAAAAAAAAAAAAAAAAAAAAAAAAAAAAAAA
AAAAAAAAIIIIIIIIIIIIIIIIIIIIIIAAAAAAAAAAAAAAAAAAAAAAAAAAAAAAAAAA
AAAAAAAAIIIIIIIIIIIIIIIIIIIIIIIAAAAAAAAAAAAAAAAAAAAAAAAAAAAAAAAA
AAAAAAAAIIIIIIIIIIIIIIIIIIIIIIIIAAAAAAAAAAAAAAAAAAAAAAAAAAAAAAAA
AAAAAAAAIIIIIIIIIIIIIIIIIIIIIIIIIAAAAAAAAAAAAAAAAAAAAAAAAAAAAAAA
AAAAAAAAIIIIIIIIIIIIIIIIIIIIIIIIIIAAAAAAAAAAAAAAAAAAAAAAAAAAAAAA
AAAAAAAAIIIIIIIIIIIIIIIIIIIIIIIIIIIAAAAAAAAAAAAAAAAAAAAAAAAAAAAA
AAAAAAAAIIIIIIIIIIIIIIIIIIIIIIIIIIIIAAAAAAAAAAAAAAAAAAAAAAAAAAAA
AAAAAAAAIIIIIIIIIIIIIIIIIIIIIIIIIIIIIAAAAAAAAAAAAAAAAAAAAAAAAAAA
AAAAAAAAIIIIIIIIIIIIIIIIIIIIIIIIIIIIIIAAAAAAAAAAAAAAAAAAAAAAAAAA
AAAAAAAAIIIIIIIIIIIIIIIIIIIIIIIIIIIIIIIAAAAAAAAAAAAAAAAAAAAAAAAA
AAAAAAAAIIIIIIIIIIIIIIIIIIIIIIIIIIIIIIIIAAAAAAAAAAAAAAAAAAAAAAAA
AAAAAAAAIIIIIIIIIIIIIIIIIIIIIIIIIIIIIIIIIAAAAAAAAAAAAAAAAAAAAAAA
AAAAAAAAIIIIIIIIIIIIIIIIIIIIIIIIIIIIIIIIIIAAAAAAAAAAAAAAAAAAAAAA
AAAAAAAAIIIIIIIIIIIIIIIIIIIIIIIIIIIIIIIIIIIAAAAAAAAAAAAAAAAAAAAA
AAAAAAAAIIIIIIIIIIIIIIIIIIIIIIIIIIIIIIIIIIIIAAAAAAAAAAAAAAAAAAAA
AAAAAAAAIIIIIIIIIIIIIIIIIIIIIIIIIIIIIIIIIIIIIAAAAAAAAAAAAAAAAAAA
AAAAAAAAIIIIIIIIIIIIIIIIIIIIIIIIIIIIIIIIIIIIIIAAAAAAAAAAAAAAAAAA
AAAAAAAAIIIIIIIIIIIIIIIIIIIIIIIIIIIIIIIIIIIIIIIAAAAAAAAAAAAAAAAA
AAAAAAAAIIIIIIIIIIIIIIIIIIIIIIIIIIIIIIIIIIIIIIIIAAAAAAAAAAAAAAAA
AAAAAAAAIIIIIIIIIIIIIIIIIIIIIIIIIIIIIIIIIIIIIIIIIAAAAAAAAAAAAAAA
AAAAAAAAIIIIIIIIIIIIIIIIIIIIIIIIIIIIIIIIIIIIIIIIIIAAAAAAAAAAAAAA
AAAAAAAAIIIIIIIIIIIIIIIIIIIIIIIIIIIIIIIIIIIIIIIIIIIAAAAAAAAAAAAA
AAAAAAAAIIIIIIIIIIIIIIIIIIIIIIIIIIIIIIIIIIIIIIIIIIIIAAAAAAAAAAAA
AAAAAAAAIIIIIIIIIIIIIIIIIIIIIIIIIIIIIIIIIIIIIIIIIIIIIAAAAAAAAAAA
AAAAAAAAIIIIIIIIIIIIIIIIIIIIIIIIIIIIIIIIIIIIIIIIIIIIIIAAAAAAAAAA
AAAAAAAAIIIIIIIIIIIIIIIIIIIIIIIIIIIIIIIIIIIIIIIIIIIIIIIAAAAAAAAA
AAAAAAAAIIIIIIIIIIIIIIIIIIIIIIIIIIIIIIIIIIIIIIIIIIIIIIIIAAAAAAAA
AAAAAAAAIIIIIIIIIIIIIIIIIIIIIIIIIIIIIIIIIIIIIIIIIIIIIIIIIAAAAAAA
AAAAAAAAIIIIIIIIIIIIIIIIIIIIIIIIIIIIIIIIIIIIIIIIIIIIIIIIIIAAAAAA
AAAAAAAAIIIIIIIIIIIIIIIIIIIIIIIIIIIIIIIIIIIIIIIIIIIIIIIIIIIAAAAA
AAAAAAAAIIIIIIIIIIIIIIIIIIIIIIIIIIIIIIIIIIIIIIIIIIIIIIIIIIIIAAAA
AAAAAAAAIIIIIIIIIIIIIIIIIIIIIIIIIIIIIIIIIIIIIIIIIIIIIIIIIIIIIAAA
AAAAAAAAIIIIIIIIIIIIIIIIIIIIIIIIIIIIIIIIIIIIIIIIIIIIIIIIIIIIIIAA
AAAAAAAAIIIIIIIIIIIIIIIIIIIIIIIIIIIIIIIIIIIIIIIIIIIIIIIIIIIIIIIA
AAAAAAAAIIIIIIIIIIIIIIIIIIIIIIIIIIIIIIIIIIIIIIIIIIIIIIIIIIIIIIII
AAIAAAAAIIIIIIIIIIIIIIIIIIIIIIIIIIIIIIIIIIIIIIIIIIIIIIIIIIIIIIII
AAIIAAAAIIIIIIIIIIIIIIIIIIIIIIIIIIIIIIIIIIIIIIIIIIIIIIIIIIIIIIII
AAIIIAAAIIIIIIIIIIIIIIIIIIIIIIIIIIIIIIIIIIIIIIIIIIIIIIIIIIIIIIII
AAIIIIAAIIIIIIIIIIIIIIIIIIIIIIIIIIIIIIIIIIIIIIIIIIIIIIIIIIIIIIII
AAIIIIIAIIIIIIIIIIIIIIIIIIIIIIIIIIIIIIIIIIIIIIIIIIIIIIIIIIIIIIII
AAIIIIIIIIIIIIIIIIIIIIIIIIIIIIIIIIIIIIIIIIIIIIIIIIIIIIIIIIIIIIII
AIIIIIIIIIIIIIIIIIIIIIIIIIIIIIIIIIIIIIIIIIIIIIIIIIIIIIIIIIIIIIII
AAIIIIIIIIIIIIIIIIIIIIIIIIIIIIIIIIIIIIIIIIIIIIIIIIIIIIIIIIIIIIII
AAA2222222222222222IIIIIIIIIIIIIIIIIIIIIIIIIIIIIIIIIIIIIIIIIIIII
AAAA2222222222222222IIIIIIIIIIIIIIIIIIIIIIIIIIIIIIIIIIIIIIIIIIII
AAAAA2222222222222222IIIIIIIIIIIIIIIIIIIIIIIIIIIIIIIIIIIIIIIIIII
AAAAAA2222222222222222IIIIIIIIIIIIIIIIIIIIIIIIIIIIIIIIIIIIIIIIII
AAAAAAA2222222222222222IIIIIIIIIIIIIIIIIIIIIIIIIIIIIIIIIIIIIIIII
AAAAAAAA2222222222222222IIIIIIIIIIIIIIIIIIIIIIIIIIIIIIIIIIIIIIII
AAAAAAAAA2222222222222222IIIIIIIIIIIIIIIIIIIIIIIIIIIIIIIIIIIIIII
AAAAAAAAAA222222222222222IIIIIIIIIIIIIIIIIIIIIIIIIIIIIIIIIIIIIII
AAAAAAAAAAA2222222222222222IIIIIIIIIIIIIIIIIIIIIIIIIIIIIIIIIIIII
AAAAAAAAAAAA2222222222222222IIIIIIIIIIIIIIIIIIIIIIIIIIIIIIIIIIII
AAAAAAAAAAAAA222222222222222IIIIIIIIIIIIIIIIIIIIIIIIIIIIIIIIIIII
AAAAAAAAAAAAAA22222222222222IIIIIIIIIIIIIIIIIIIIIIIIIIIIIIIIIIII
AAAAAAAAAAAAAAA2222222222222IIIIIIIIIIIIIIIIIIIIIIIIIIIIIIIIIIII
AAAAAAAAAAAAAAAA222222222222IIIIIIIIIIIIIIIIIIIIIIIIIIIIIIIIIIII
AAAAAAAAAAAAAAAAA22222222222IIIIIIIIIIIIIIIIIIIIIIIIIIIIIIIIIIII
AAAAAAAAAAAAAAAAAA22222222222IIIIIIIIIIIIIIIIIIIIIIIIIIIIIIIIIII
AAAAAAAAAAAAAAAAAAA22222222222IIIIIIIIIIIIIIIIIIIIIIIIIIIIIIIIII
AAAAAAAAAAAAAAAAAAAA2222222222IIIIIIIIIIIIIIIIIIIIIIIIIIIIIIIIII
AAAAAAAAAAAAAAAAAAAAA2222222222222222IIIIIIIIIIIIIIIIIIIIIIIIIII
AAAAAAAAAAAAAAAAAAAAAA222222222222222IIIIIIIIIIIIIIIIIIIIIIIIIII
AAAAAAAAAAAAAAAAAAAAAAA22222222222222IIIIIIIIIIIIIIIIIIIIIIIIIII
AAAAAAAAAAAAAAAAAAAAAAAA2222222222222IIIIIIIIIIIIIIIIIIIIIIIIIII
AAAAAAAAAAAAAAAAAAAAAAAAA222222222222IIIIIIIIIIIIIIIIIIIIIIIIIII
AAAAAAAAAAAAAAAAAAAAAAAAAA222222222222222IIIIIIIIIIIIIIIIIIIIIII
AAAAAAAAAAAAAAAAAAAAAAAAAAA22222222222222IIIIIIIIIIIIIIIIIIIIIII
AAAAAAAAAAAAAAAAAAAAAAAAAAAA2222222222222222IIIIIIIIIIIIIIIIIIII
AAAAAAAAAAAAAAAAAAAAAAAAAAAAA222222222222222IIIIIIIIIIIIIIIIIIII
AAAAAAAAAAAAAAAAAAAAAAAAAAAAAA22222222222222IIIIIIIIIIIIIIIIIIII
AAAAAAAAAAAAAAAAAAAAAAAAAAAAAAA22222222222222IIIIIIIIIIIIIIIIIII
AAAAAAAAAAAAAAAAAAAAAAAAAAAAAAAA2222222222222222IIIIIIIIIIIIIIII
AAAAAAAAAAAAAAAAAAAAAAAAAAAAAAAAA2222222222222222IIIIIIIIIIIIIII
AAAAAAAAAAAAAAAAAAAAAAAAAAAAAAAAAA222222222222222IIIIIIIIIIIIIII
AAAAAAAAAAAAAAAAAAAAAAAAAAAAAAAAAAA22222222222222IIIIIIIIIIIIIII
AAAAAAAAAAAAAAAAAAAAAAAAAAAAAAAAAAAA2222222222222IIIIIIIIIIIIIII
AAAAAAAAAAAAAAAAAAAAAAAAAAAAAAAAAAAAA222222222222IIIIIIIIIIIIIII
AAAAAAAAAAAAAAAAAAAAAAAAAAAAAAAAAAAAAA22222222222IIIIIIIIIIIIIII
AAAAAAAAAAAAAAAAAAAAAAAAAAAAAAAAAAAAAAA2222222222222222IIIIIIIII
AAAAAAAAAAAAAAAAAAAAAAAAAAAAAAAAAAAAAAAA222222222222222IIIIIIIII
AAAAAAAAAAAAAAAAAAAAAAAAAAAAAAAAAAAAAAAAA22222222222222IIIIIIIII
AAAAAAAAAAAAAAAAAAAAAAAAAAAAAAAAAAAAAAAAAA2222222222222222IIIIII
AAAAAAAAAAAAAAAAAAAAAAAAAAAAAAAAAAAAAAAAAAA222222222222222IIIIII
AAAAAAAAAAAAAAAAAAAAAAAAAAAAAAAAAAAAAAAAAAAA22222222222222IIIIII
AAAAAAAAAAAAAAAAAAAAAAAAAAAAAAAAAAAAAAAAAAAAA2222222222222IIIIII
AAAAAAAAAAAAAAAAAAAAAAAAAAAAAAAAAAAAAAAAAAAAAA222222222222IIIIII
AAAAAAAAAAAAAAAAAAAAAAAAAAAAAAAAAAAAAAAAAAAAAAA22222222222IIIIII
AAAAAAAAAAAAAAAAAAAAAAAAAAAAAAAAAAAAAAAAAAAAAAAA2222222222IIIIII
AAAAAAAAAAAAAAAAAAAAAAAAAAAAAAAAAAAAAAAAAAAAAAAAA222222222IIIIII
AAAAAAAAAAAAAAAAAAAAAAAAAAAAAAAAAAAAAAAAAAAAAAAAAA2222222222IIII
AAAAAAAAAAAAAAAAAAAAAAAAAAAAAAAAAAAAAAAAAAAAAAAAAAA2222222222III
AAAAAAAAAAAAAAAAAAAAAAAAAAAAAAAAAAAAAAAAAAAAAAAAAAAA222222222222
AAAAAAAAAAAAAAAAAAAAAAAAAAAAAAAAAAAAAAAAAAAAAAAAAAAAA22222222222
AAAAAAAAAAAAAAAAAAAAAAAAAAAAAAAAAAAAAAAAAAAAAAAAAAAAAA2222222222
AAAAAAAAAAAAAAAAAAAAAAAAAAAAAAAAAAAAAAAAAAAAAAAAAAAAAAA222222222
AAAAAAAAAAAAAAAAAAAAAAAAAAAAAAAAAAAAAAAAAAAAAAAAAAAAAAAA22222222
AAAAAAAAAAAAAAAAAAAAAAAAAAAAAAAAAAAAAAAAAAAAAAAAAAAAAAAAA2222222
AAAAAAAAAAAAAAAAAAAAAAAAAAAAAAAAAAAAAAAAAAAAAAAAAAAAAAAAAA222222
AAAAAAAAAAAAAAAAAAAAAAAAAAAAAAAAAAAAAAAAAAAAAAAAAAAAAAAAAAA22222
AAAAAAAAAAAAAAAAAAAAAAAAAAAAAAAAAAAAAAAAAAAAAAAAAAAAAAAAAAAA2222
AAAAAAAAAAAAAAAAAAAAAAAAAAAAAAAAAAAAAAAAAAAAAAAAAAAAAAAAAAAAA222
AAAAAAAAAAAAAAAAAAAAAAAAAAAAAAAAAAAAAAAAAAAAAAAAAAAAAAAAAAAAAA22
AAAAAAAAAAAAAAAAAAAAAAAAAAAAAAAAAAAAAAAAAAAAAAAAAAAAAAAAAAAAAAA2
AAAAAAAAAAAAAAAAAAAAAAAAAAAAAAAAAAAAAAAAAAAAAAAAAAAAAAAAAAAAAAAA
AAAAIAAAAAAAAAAAAAAAAAAAAAAAAAAAAAAAAAAAAAAAAAAAAAAAAAAAAAAAAAAA
AAAAIAAAAAAAAAAAAAAAAAAAAIAAAAAAAAAAAAAAAAAAAAAAAAAAAAAAAAAAAAAA
AAAAIAAAAAAAAAAAAAAAAAAAAIAAAAAAAAAAAAAAAAAAAAIAAAAAAAAAAAAAAAAA
AAAAIAAAAAAAAAAAAAAAAAAAAIAAAAAAAAAAAAAAAAAAAAIIAAAAAAAAAAAAAAAA
AAAAIAAAAAAAAAAAAAAAAAAAAIAAAAAAAAAAAAAAAAAAAAIIAIAAAAAAAAAAAAAA
AAAAIAAAAAAAAAAAAAAAAAAAAIAAAAAAAAAAAAAAAAAAAAIIIIAAAAAAAAAAAAAA
AAAAIAAAAAAAAAAAAAAAAAAAAIAAAAAAAAAAAAAAAAAAAAIIIIIAAAAAAAAAAAAA
AAAAIAAAAAAAAAAAAAAAAAAAAIAAAAAAAAAAAAAAAAAAAAIIIIIIAAAAAAAAAAAA
AAAAIAAAAAAAAAAAAAAAAAAAAIAAAAAAAAAAAAAAAAAAAAIIIIIIAAIAAAAAAAAA
AAAAIAAAAAAAAAAAAAAAAAAAAIAAAAAAAAAAAAAAAAAAAAIIIIIIAAIIAAAAAAAA
AAAAIAAAAAAAAAAAAAAAAAAAAIAAAAAAAAAAAAAAAAAAAAIIIIIIAAIIAIAAAAAA
AAAAIAAAAAAAAAAAAAAAAAAAAIAAAAAAAAAAAAAAAAAAAAIIIIIIIAIIAIAAAAAA
AAAAIAAAAAAAAAAAAAAAAAAAAIAAAAAAAAAAAAAAAAAAAAIIIIIIIIIIAIAAAAAA
AAAAIAAAAAAAAAAAAAAAAAAAAIAAAAAAAAAAAAAAAAAAAAIIIIIIIIIIAIIAAAAA
AAAAIAAAAAAAAAAAAAAAAAAAAIAAAAAAAAAAAAAAAAAAAAIIIIIIIIIIIIIAAAAA
AAAAIAAAAAAAAAAAAAAAAAAAAIAAAAAAAAAAAAAAAAAAAAIIIIIIIIIIIIIIAAAA
AAAAIAAAAAAAAAAAAAAAAAAAAIAAAAAAAAAAAAAAAAAAAAIIIIIIIIIIIIIIIAAA
AAAAIAAAAAAAAAAAAAAAAAAAAIAAAAAAAAAAAAAAAAAAAAIIIIIIIIIIIIIIIAIA
AAAAIAAAAAAAAAAAAAAAAAAAAIAAAAAAAAAAAAAAAAAAAAIIIIIIIIIIIIIIIAII
AAAAIAAAAAAAAAAAAAAAAAAAAIAAAAAAAAAAAAAAAAAAAAIIIIIIIIIIIIIIIIII
AIAAIAAAAAAAAAAAAAAAAAAAAIAAAAAAAAAAAAAAAAAAAAIIIIIIIIIIIIIIIIII
AIIAIAAAAAAAAAAAAAAAAAAAAIAAAAAAAAAAAAAAAAAAAAIIIIIIIIIIIIIIIIII
AIIIIAAAAAAAAAAAAAAAAAAAAIAAAAAAAAAAAAAAAAAAAAIIIIIIIIIIIIIIIIII
AIIIIIAAAAAAAAAAAAAAAAAAAIAAAAAAAAAAAAAAAAAAAAIIIIIIIIIIIIIIIIII
AIIIIIIAAAAAAAAAAAAAAAAAAIAAAAAAAAAAAAAAAAAAAAIIIIIIIIIIIIIIIIII
AIIIIIIIAAAAAAAAAAAAAAAAAIAAAAAAAAAAAAAAAAAAAAIIIIIIIIIIIIIIIIII
AIIIIIIIIAAAAAAAAAAAAAAAAIAAAAAAAAAAAAAAAAAAAAIIIIIIIIIIIIIIIIII
AIIIIIIIIIAAAAAAAAAAAAAAAIAAAAAAAAAAAAAAAAAAAAIIIIIIIIIIIIIIIIII
AIIIIIIIIIIAAAAAAAAAAAAAAIAAAAAAAAAAAAAAAAAAAAIIIIIIIIIIIIIIIIII
AIIIIIIIIIIIAAAAAAAAAAAAAIAAAAAAAAAAAAAAAAAAAAIIIIIIIIIIIIIIIIII
AIIIIIIIIIIIIAAAAAAAAAAAAIAAAAAAAAAAAAAAAAAAAAIIIIIIIIIIIIIIIIII
AIIIIIIIIIIIIIAAAAAAAAAAAIAAAAAAAAAAAAAAAAAAAAIIIIIIIIIIIIIIIIII
AIIIIIIIIIIIIIIAAAAAAAAAAIAAAAAAAAAAAAAAAAAAAAIIIIIIIIIIIIIIIIII
AIIIIIIIIIIIIIIIAAAAAAAAAIAAAAAAAAAAAAAAAAAAAAIIIIIIIIIIIIIIIIII
AIIIIIIIIIIIIIIIIAAAAAAAAIAAAAAAAAAAAAAAAAAAAAIIIIIIIIIIIIIIIIII
AIIIIIIIIIIIIIIIIIAAAAAAAIAAAAAAAAAAAAAAAAAAAAIIIIIIIIIIIIIIIIII
AIIIIIIIIIIIIIIIIIIAAAAAAIAAAAAAAAAAAAAAAAAAAAIIIIIIIIIIIIIIIIII
AIIIIIIIIIIIIIIIIIIIAAAAAIAAAAAAAAAAAAAAAAAAAAIIIIIIIIIIIIIIIIII
AIIIIIIIIIIIIIIIIIIIIAAAAIAAAAAAAAAAAAAAAAAAAAIIIIIIIIIIIIIIIIII
AIIIIIIIIIIIIIIIIIIIIIAAAIAAAAAAAAAAAAAAAAAAAAIIIIIIIIIIIIIIIIII
AIIIIIIIIIIIIIIIIIIIIIIAAIAAAAAAAAAAAAAAAAAAAAIIIIIIIIIIIIIIIIII
AIIIIIIIIIIIIIIIIIIIIIIAAIAAAIAAAAAAAAAAAAAAAAIIIIIIIIIIIIIIIIII
AIIIIIIIIIIIIIIIIIIIIIIAAIAAAIIAAAAAAAAAAAAAAAIIIIIIIIIIIIIIIIII
AIIIIIIIIIIIIIIIIIIIIIIAAIAIAIIAAAAAAAAAAAAAAAIIIIIIIIIIIIIIIIII
AIIIIIIIIIIIIIIIIIIIIIIAAIAIAIIIAAAAAAAAAAAAAAIIIIIIIIIIIIIIIIII
AIIIIIIIIIIIIIIIIIIIIIIAAIAIAIIIAIAAAAAAAAAAAAIIIIIIIIIIIIIIIIII
AIIIIIIIIIIIIIIIIIIIIIIAAIAIAIIIAIIAAAAAAAAAAAIIIIIIIIIIIIIIIIII
AIIIIIIIIIIIIIIIIIIIIIIAAIAIAIIIAIIAIAAAAAAAAAIIIIIIIIIIIIIIIIII
AIIIIIIIIIIIIIIIIIIIIIIAAIAIAIIIAIIIIAAAAAAAAAIIIIIIIIIIIIIIIIII
AIIIIIIIIIIIIIIIIIIIIIIAAIIIAIIIAIIIIAAAAAAAAAIIIIIIIIIIIIIIIIII
AIIIIIIIIIIIIIIIIIIIIIIAAIIIIIIIAIIIIAAAAAAAAAIIIIIIIIIIIIIIIIII
AIIIIIIIIIIIIIIIIIIIIIIAAIIIIIIIIIIIIAAAAAAAAAIIIIIIIIIIIIIIIIII
AIIIIIIIIIIIIIIIIIIIIIIAAIIIIIIIIIIIIAAAIAAAAAIIIIIIIIIIIIIIIIII
AIIIIIIIIIIIIIIIIIIIIIIAAIIIIIIIIIIIIAAIIAAAAAIIIIIIIIIIIIIIIIII
AIIIIIIIIIIIIIIIIIIIIIIAAIIIIIIIIIIIIAIIIAAAAAIIIIIIIIIIIIIIIIII
AIIIIIIIIIIIIIIIIIIIIIIAAIIIIIIIIIIIIIIIIAAAAAIIIIIIIIIIIIIIIIII
AIIIIIIIIIIIIIIIIIIIIIIAAIIIIIIIIIIIIIIIIIAAAAIIIIIIIIIIIIIIIIII
AIIIIIIIIIIIIIIIIIIIIIIAAIIIIIIIIIIIIIIIIIIAAAIIIIIIIIIIIIIIIIII
AIIIIIIIIIIIIIIIIIIIIIIAAIIIIIIIIIIIIIIIIIIIAAIIIIIIIIIIIIIIIIII
AIIIIIIIIIIIIIIIIIIIIIIAAIIIIIIIIIIIIIIIIIIIAIIIIIIIIIIIIIIIIIII
AIIIIIIIIIIIIIIIIIIIIIIAAIIIIIIIIIIIIIIIIIIIIIIIIIIIIIIIIIIIIIII
A22222222222IIIIIIIIIIIAAIIIIIIIIIIIIIIIIIIIIIIIIIIIIIIIIIIIIIII
AA2222222222222224IIIIIAAIIIIIIIIIIIIIIIIIIIIIIIIIIIIIIIIIIIIIII
AAA2222222222222224IIIIAAIIIIIIIIIIIIIIIIIIIIIIIIIIIIIIIIIIIIIII
AAAA2222222222222224IIIAAIIIIIIIIIIIIIIIIIIIIIIIIIIIIIIIIIIIIIII
AAAAA2222222222222224IIAAIIIIIIIIIIIIIIIIIIIIIIIIIIIIIIIIIIIIIII
AAAAAA2222222222222224IAAIIIIIIIIIIIIIIIIIIIIIIIIIIIIIIIIIIIIIII
AAAAAAA222222222222224IAAIIIIIIIIIIIIIIIIIIIIIIIIIIIIIIIIIIIIIII
AAAAAAAA22222222222224IAAIIIIIIIIIIIIIIIIIIIIIIIIIIIIIIIIIIIIIII
AAAAAAAAA22222222222222AAIIIIIIIIIIIIIIIIIIIIIIIIIIIIIIIIIIIIIII
AAAAAAAAAA2222222222222AA4IIIIIIIIIIIIIIIIIIIIIIIIIIIIIIIIIIIIII
AAAAAAAAAAA222222222222AA24IIIIIIIIIIIIIIIIIIIIIIIIIIIIIIIIIIIII
AAAAAAAAAAAA22222222222AA224IIIIIIIIIIIIIIIIIIIIIIIIIIIIIIIIIIII
AAAAAAAAAAAAA2222222222AA2224IIIIIIIIIIIIIIIIIIIIIIIIIIIIIIIIIII
AAAAAAAAAAAAAA222222222AA22224IIIIIIIIIIIIIIIIIIIIIIIIIIIIIIIIII
AAAAAAAAAAAAAAA22222222AA222224IIIIIIIIIIIIIIIIIIIIIIIIIIIIIIIII
AAAAAAAAAAAAAAAA2222222AA2222224IIIIIIIIIIIIIIIIIIIIIIIIIIIIIIII
AAAAAAAAAAAAAAAAA222222AA22222224IIIIIIIIIIIIIIIIIIIIIIIIIIIIIII
AAAAAAAAAAAAAAAAAA22222AA222222224IIIIIIIIIIIIIIIIIIIIIIIIIIIIII
AAAAAAAAAAAAAAAAAAA2222AA2222222224IIIIIIIIIIIIIIIIIIIIIIIIIIIII
AAAAAAAAAAAAAAAAAAAA222AA22222222224IIIIIIIIIIIIIIIIIIIIIIIIIIII
AAAAAAAAAAAAAAAAAAAAA22AA22222222224IIIIIIIIIIIIIIIIIIIIIIIIIIII
AAAAAAAAAAAAAAAAAAAAAA2AA2222222222224IIIIIIIIIIIIIIIIIIIIIIIIII
AAAAAAAAAAAAAAAAAAAAAAAAA2222222222224IIIIIIIIIIIIIIIIIIIIIIIIII
AAAAAAAAAAAAAAAAAAAAAAAAA2222222222222224IIIIIIIIIIIIIIIIIIIIIII
AAAAAAAAAAAAAAAAAAAAAAAAAA2222222222222224IIIIIIIIIIIIIIIIIIIIII
AAAAAAAAAAAAAAAAAAAAAAAAAAA2222222222222224IIIIIIIIIIIIIIIIIIIII
AAAAAAAAAAAAAAAAAAAAAAAAAAAA2222222222222224IIIIIIIIIIIIIIIIIIII
AAAAAAAAAAAAAAAAAAAAAAAAAAAAA222222222222224IIIIIIIIIIIIIIIIIIII
AAAAAAAAAAAAAAAAAAAAAAAAAAAAAA22222222222224IIIIIIIIIIIIIIIIIIII
AAAAAAAAAAAAAAAAAAAAAAAAAAAAAAA2222222222224IIIIIIIIIIIIIIIIIIII
AAAAAAAAAAAAAAAAAAAAAAAAAAAAAAAA222222222224IIIIIIIIIIIIIIIIIIII
AAAAAAAAAAAAAAAAAAAAAAAAAAAAAAAAA222222222222IIIIIIIIIIIIIIIIIII
AAAAAAAAAAAAAAAAAAAAAAAAAAAAAAAAAA2222222222222IIIIIIIIIIIIIIIII
AAAAAAAAAAAAAAAAAAAAAAAAAAAAAAAAAAA222222222222IIIIIIIIIIIIIIIII
AAAAAAAAAAAAAAAAAAAAAAAAAAAAAAAAAAAA22222222222IIIIIIIIIIIIIIIII
AAAAAAAAAAAAAAAAAAAAAAAAAAAAAAAAAAAAA222222222222222IIIIIIIIIIII
AAAAAAAAAAAAAAAAAAAAAAAAAAAAAAAAAAAAAA2222222222222224IIIIIIIIII
AAAAAAAAAAAAAAAAAAAAAAAAAAAAAAAAAAAAAAA222222222222224IIIIIIIIII
AAAAAAAAAAAAAAAAAAAAAAAAAAAAAAAAAAAAAAAA22222222222224IIIIIIIIII
AAAAAAAAAAAAAAAAAAAAAAAAAAAAAAAAAAAAAAAAA2222222222224IIIIIIIIII
AAAAAAAAAAAAAAAAAAAAAAAAAAAAAAAAAAAAAAAAAA222222222222IIIIIIIIII
AAAAAAAAAAAAAAAAAAAAAAAAAAAAAAAAAAAAAAAAAAA222222222222IIIIIIIII
AAAAAAAAAAAAAAAAAAAAAAAAAAAAAAAAAAAAAAAAAAAA2222222222222224IIII
AAAAAAAAAAAAAAAAAAAAAAAAAAAAAAAAAAAAAAAAAAAAA2222222222222224III
AAAAAAAAAAAAAAAAAAAAAAAAAAAAAAAAAAAAAAAAAAAAAA2222222222222224II
AAAAAAAAAAAAAAAAAAAAAAAAAAAAAAAAAAAAAAAAAAAAAAA2222222222222224I
AAAAAAAAAAAAAAAAAAAAAAAAAAAAAAAAAAAAAAAAAAAAAAAA2222222222222224
AAAAAAAAAAAAAAAAAAAAAAAAAAAAAAAAAAAAAAAAAAAAAAAAA222222222222222
AAAAAAAAAAAAAAAAAAAAAAAAAAAAAAAAAAAAAAAAAAAAAAAAAA22222222222222
AAAAAAAAAAAAAAAAAAAAAAAAAAAAAAAAAAAAAAAAAAAAAAAAAAA2222222222222
AAAAAAAAAAAAAAAAAAAAAAAAAAAAAAAAAAAAAAAAAAAAAAAAAAAA222222222222
AAAAAAAAAAAAAAAAAAAAAAAAAAAAAAAAAAAAAAAAAAAAAAAAAAAAA22222222222
AAAAAAAAAAAAAAAAAAAAAAAAAAAAAAAAAAAAAAAAAAAAAAAAAAAAAA2222222222
AAAAAAAAAAAAAAAAAAAAAAAAAAAAAAAAAAAAAAAAAAAAAAAAAAAAAAA222222222
AAAAAAAAAAAAAAAAAAAAAAAAAAAAAAAAAAAAAAAAAAAAAAAAAAAAAAAA22222222
AAAAAAAAAAAAAAAAAAAAAAAAAAAAAAAAAAAAAAAAAAAAAAAAAAAAAAAAA2222222
AAAAAAAAAAAAAAAAAAAAAAAAAAAAAAAAAAAAAAAAAAAAAAAAAAAAAAAAAA222222
AAAAAAAAAAAAAAAAAAAAAAAAAAAAAAAAAAAAAAAAAAAAAAAAAAAAAAAAAAA22222
AAAAAAAAAAAAAAAAAAAAAAAAAAAAAAAAAAAAAAAAAAAAAAAAAAAAAAAAAAAA2222
AAAAAAAAAAAAAAAAAAAAAAAAAAAAAAAAAAAAAAAAAAAAAAAAAAAAAAAAAAAAA222
AAAAAAAAAAAAAAAAAAAAAAAAAAAAAAAAAAAAAAAAAAAAAAAAAAAAAAAAAAAAAA22
AAAAAAAAAAAAAAAAAAAAAAAAAAAAAAAAAAAAAAAAAAAAAAAAAAAAAAAAAAAAAAA2
AAAAAAAAAAAAAAAAAAAAAAAAAAAAAAAAAAAAAAAAAAAAAAAAAAAAAAAAAAAAAAAA
AAAIAAAAAAAAAAAAAAAAAAAAAAAAAAAAAAAAAAAAAAAAAAAAAAAAAAAAAAAAAAAA
AAAIIAAAAAAAAAAAAAAAAAAAAAAAAAAAAAAAAAAAAAAAAAAAAAAAAAAAAAAAAAAA
AAAIIIAAAAAAAAAAAAAAAAAAAAAAAAAAAAAAAAAAAAAAAAAAAAAAAAAAAAAAAAAA
AAAIIIIAAAAAAAAAAAAAAAAAAAAAAAAAAAAAAAAAAAAAAAAAAAAAAAAAAAAAAAAA
AAAIIIIIAAAAAAAAAAAAAAAAAAAAAAAAAAAAAAAAAAAAAAAAAAAAAAAAAAAAAAAA
AAAIIIIIAIAAAAAAAAAAAAAAAAAAAAAAAAAAAAAAAAAAAAAAAAAAAAAAAAAAAAAA
AAAIIIIIAIIAAAAAAAAAAAAAAAAAAAAAAAAAAAAAAAAAAAAAAAAAAAAAAAAAAAAA
AAAIIIIIAIIAAAAAAIAAAAAAAAAAAAAAAAAAAAAAAAAAAAAAAAAAAAAAAAAAAAAA
AIAIIIIIAIIAAAAAAIAAAAAAAAAAAAAAAAAAAAAAAAAAAAAAAAAAAAAAAAAAAAAA
AIIIIIIIAIIAAAAAAIAAAAAAAAAAAAAAAAAAAAAAAAAAAAAAAAAAAAAAAAAAAAAA
AIIIIIIIIIIAAAAAAIAAAAAAAAAAAAAAAAAAAAAAAAAAAAAAAAAAAAAAAAAAAAAA
AIIIIIIIIIIAAAAAAIIAAAAAAAAAAAAAAAAAAAAAAAAAAAAAAAAAAAAAAAAAAAAA
AIIIIIIIIIIAAAAAAIIIAAAAAAAAAAAAAAAAAAAAAAAAAAAAAAAAAAAAAAAAAAAA
AIIIIIIIIIIAAAAAAIIIIAAAAAAAAAAAAAAAAAAAAAAAAAAAAAAAAAAAAAAAAAAA
AIIIIIIIIIIAAAAAAIIIIIAAAAAAAAAAAAAAAAAAAAAAAAAAAAAAAAAAAAAAAAAA
AIIIIIIIIIIAAAAAAIIIIIIAAAAAAAAAAAAAAAAAAAAAAAAAAAAAAAAAAAAAAAAA
AIIIIIIIIIIAAAAAIIIIIIIAAAAAAAAAAAAAAAAAAAAAAAAAAAAAAAAAAAAAAAAA
AIIIIIIIIIIAAAAAIIIIIIIIAAAAAAAAAAAAAAAAAAAAAAAAAAAAAAAAAAAAAAAA
AIIIIIIIIIIAAAAAIIIIIIIIIAAAAAAAAAAAAAAAAAAAAAAAAAAAAAAAAAAAAAAA
AIIIIIIIIIIAAAAAIIIIIIIIIIAAAAAAAAAAAAAAAAAAAAAAAAAAAAAAAAAAAAAA
AIIIIIIIIIIAAAAAIIIIIIIIIIIAAAAAAAAAAAAAAAAAAAAAAAAAAAAAAAAAAAAA
AIIIIIIIIIIAAAAAIIIIIIIIIIIIAAAAAAAAAAAAAAAAAAAAAAAAAAAAAAAAAAAA
AIIIIIIIIIIAAAAAIIIIIIIIIIIIIAAAAAAAAAAAAAAAAAAAAAAAAAAAAAAAAAAA
AIIIIIIIIIIAAAAAIIIIIIIIIIIIIIAAAAAAAAAAAAAAAAAAAAAAAAAAAAAAAAAA
AIIIIIIIIIIAAAAAIIIIIIIIIIIIIIAIAAAAAAAAAAAAAAAAAAAAAAAAAAAAAAAA
AIIIIIIIIIIAAAAAIIIIIIIIIIIIIIAIIAAAAAAAAAAAAAAAAAAAAAAAAAAAAAAA
AIIIIIIIIIIAAAAAIIIIIIIIIIIIIIAIIAIAAAAAAAAAAAAAAAAAAAAAAAAAAAAA
AIIIIIIIIIIAAAAAIIIIIIIIIIIIIIAIIAIIAAAAAAAAAAAAAAAAAAAAAAAAAAAA
AIIIIIIIIIIAAAAAIIIIIIIIIIIIIIAIIAIIIAAAAAAAAAAAAAAAAAAAAAAAAAAA
AIIIIIIIIIIAAAAAIIIIIIIIIIIIIIAIIAIIIIAAAAAAAAAAAAAAAAAAAAAAAAAA
AIIIIIIIIIIAAAAAIIIIIIIIIIIIIIAIIAIIIIIAAAAAAAAAAAAAAAAAAAAAAAAA
AIIIIIIIIIIAAAAAIIIIIIIIIIIIIIAIIAIIIIIIAAAAAAAAAAAAAAAAAAAAAAAA
AIIIIIIIIIIAAAAAIIIIIIIIIIIIIIAIIAIIIIIIIAAAAAAAAAAAAAAAAAAAAAAA
AIIIIIIIIIIAAAAAIIIIIIIIIIIIIIAIIAIIIIIIIIAAAAAAAAAAAAAAAAAAAAAA
AIIIIIIIIIIAAAAAIIIIIIIIIIIIIIAIIAIIIIIIIIIAAAAAAAAAAAAAAAAAAAAA
AIIIIIIIIIIAAAAAIIIIIIIIIIIIIIAIIAIIIIIIIIIIAAAAAAAAAAAAAAAAAAAA
AIIIIIIIIIIAAAAAIIIIIIIIIIIIIIAIIAIIIIIIIIIIIAAAAAAAAAAAAAAAAAAA
AIIIIIIIIIIAAAAAIIIIIIIIIIIIIIAIIAIIIIIIIIIIIIAAAAAAAAAAAAAAAAAA
AIIIIIIIIIIAAAAAIIIIIIIIIIIIIIAIIAIIIIIIIIIIIIIAAAAAAAAAAAAAAAAA
AIIIIIIIIIIAAAAAIIIIIIIIIIIIIIAIIAIIIIIIIIIIIIIIAAAAAAAAAAAAAAAA
AIIIIIIIIIIAAAAAIIIIIIIIIIIIIIAIIAIIIIIIIIIIIIIIIAAAAAAAAAAAAAAA
AIIIIIIIIIIAAAAAIIIIIIIIIIIIIIAIIAIIIIIIIIIIIIIIIIAAAAAAAAAAAAAA
AIIIIIIIIIIAAAAAIIIIIIIIIIIIIIAIIAIIIIIIIIIIIIIIIIIAAAAAAAAAAAAA
AIIIIIIIIIIAAAAAIIIIIIIIIIIIIIAIIAIIIIIIIIIIIIIIIIIIAAAAAAAAAAAA
AIIIIIIIIIIAAAAAIIIIIIIIIIIIIIAIIAIIIIIIIIIIIIIIIIIIIAAAAAAAAAAA
AIIIIIIIIIIAAAAAIIIIIIIIIIIIIIAIIAIIIIIIIIIIIIIIIIIIIIAAAAAAAAAA
AIIIIIIIIIIAAAAAIIIIIIIIIIIIIIAIIAIIIIIIIIIIIIIIIIIIIIIAAAAAAAAA
AIIIIIIIIIIAAAAAIIIIIIIIIIIIIIAIIAIIIIIIIIIIIIIIIIIIIIIIAAAAAAAA
AIIIIIIIIIIAAAAAIIIIIIIIIIIIIIAIIAIIIIIIIIIIIIIIIIIIIIIIAAAAAIAA
AIIIIIIIIIIAAAAAIIIIIIIIIIIIIIAIIAIIIIIIIIIIIIIIIIIIIIIIAAAAAIIA
AIIIIIIIIIIAAAAAIIIIIIIIIIIIIIAIIAIIIIIIIIIIIIIIIIIIIIIIAAAAAIII
AIIIAIIII2IAAAAAI44IIIIII4IIIIAIIAIIIIIIIIIIIIIIIIIIIIIIAAAAAIII
AIIIAIIII2IAAAAAI44I2II444II44AIIAII4IIII4IIIIIIIIIIIIIIAAAAAIII
AIIIAIIII2IAAAAAI44IAII442II44AIIA4I4IIII4IIII4IIIIIIIIIAAAAAIII
AIIIAIIII2AAAAAAI444AII442II44A4IA4I4IIII4IIII4IIIIIIIIIAAAAAIII
AIIIAIIII2AAAAAAI444AII44AII44A4IA4I4I44I4IIII4IIII4IIIIAAAAAIII
AIIIAIIII2AAAAAAI444AII44AII44AAIA4I4I44I4IIII4IIII4IIIIAAAAAIII
AIIIAIIII2AAAAAAI444AII44AII44AAIA4IAI44I2II444II444IIIIAAAAAI4I
AIIIAIIII2AAAAAAI444AII44AII44AAIA4IAI44IAII442II444II44AAAAAI4I
AIIIAIIII2AAAAAAI444AII44AII44AAIA4IAI44IAII44AII442II44AAAAAI4I
AIIIAIIII2AAAAAAI444AII44AII44AAIA4IAI44IAII44AII442AI44AAAAA44I
AIIIAIIII2AAAAAAI444AII44AII44AAIA4IAI44IAII44AII442AI44AAAAA42I
AIIIAIIII2AAAAAAI444AII44AII44AAIA4IAI44IAII44AII442AI44AAAAA4AI
AII4AIII42AAAAAAI444AII44AII44AAIA44AI44IAII44AII442AI44AAAAA4AI
AII4AIII4AAAAAAAI444AII44AII44AAIA44AI444AII44AII442AI44AAAAA4AI
AII4AIII4AAAAAAAI442AII44AII44AAIA44AI444AII44AII442AI44AAAAA4AI
AII4AIII4AAAAAAAI44AAII42AII44AAIA44AI444AII44AII442AI44AAAAA4AI
AII4AIII4AAAAAAAI44AAII42AII44AAIA42AI444AII44AII442AI44AAAAA4AI
AII4AIII4AAAAAAAI44AAII42AII44AAIA4AAI442AII44AII442AI44AAAAA4AI
AII4AIII4AAAAAAAI44AAII42AII44AAIA4AAI44AAII42AII442AI44AAAAA4AI
AII4AIII4AAAAAAAI44AAII42AII44AAIA4AAI44AAII42AII44AAI44AAAAA4AI
AII4AIII4AAAAAAAI44AAII42AII44AAIA4AAI44AAII42AII44AAI44AAAAA2AI
AII4AIII4AAAAAAAI44AAII42AII44AAIA4AAI44AAII42AII44AAI44AAAAAAAI
AII4AIII4AAAAAAAI44AIII42AII44AAIA4AAI44AAII42AII44AAI44AAAAAAAI
AII4AIII4AAAAAAAI44AIII42III44AAIA4AAI44AAII42AII44AAI44AAAAAAAI
AII4AIII4AAAAAAAI44AIII42III44AAIA4AAI44AAII42AII44AAI44AAAAAAII
AII4AIII4AAAAAAAI44AIII42III44AAIA4AAI44AAII42III44AAI44AAAAAAII
A222A2222AAAAAAAI44A44442III44AAIA4AAI44AAII42III44AAI44AAAAAAII
AA22A2222AAAAAAAI44A44442III44AAIA4AAI44AAII42III44AAI44AAAAAAII
AAA2A2222AAAAAAA444A44442III44AAIA4AAI44AAII42III44AAI44AAAAAAII
AAAAA2222AAAAAAA244A444424II44AAIA4AAI44AAII42III44AAI44AAAAAAII
AAAAA2222AAAAAAA224A4444244I44AAIA4AAI44AAII42III44AAI44AAAAAAII
AAAAAA222AAAAAAA222A4444244444AAIA4AAI44AAII42III44AAI44AAAAAAII
AAAAAAA22AAAAAAA222A4444244444AAIA4AAI44AAII42III44AAI44AAAAAAII
AAAAAAAA2AAAAAAA222A2444244444AAIA4AAI44AAII42III44AAI44AAAAAAII
AAAAAAAAAAAAAAAA222A2244244444AAIA4AAI44AAII42III44AAI44AAAAAAII
AAAAAAAAAAAAAAAA222A2224244444AAIA4AAI44AAII42III44AAI44AAAAAAII
AAAAAAAAAAAAAAAA222A2222244444AA4A4AAI44AAII42III44AAI44AAAAAAII
AAAAAAAAAAAAAAAA222A2222224444AA4A4AAI44AAII42III44AAI44AAAAAAII
AAAAAAAAAAAAAAAA222A2222222444AA4A4AAI44AAII42III44AAI44AAAAAAII
AAAAAAAAAAAAAAAA222A2222222244AA4A4AAI44AAII42III44AAI44AAAAAAII
AAAAAAAAAAAAAAAA222A2222222224AA4A4AA444AAII42III44AAI44AAAAAAII
AAAAAAAAAAAAAAAAA22A2222222222AA4A4AA444AAII42III44AAI44AAAAAAII
AAAAAAAAAAAAAAAAAA2A2222222222AA4A4AA444AAII42III44AAI44AAAAAAII
AAAAAAAAAAAAAAAAAAAA2222222222AA4A4AA444AAII42III44AAI44AAAAAAII
AAAAAAAAAAAAAAAAAAAA2222222222AA2A4AA444AAII42III44AAI44AAAAAAII
AAAAAAAAAAAAAAAAAAAAA222222222AA2A4AA444AA4I42III44AAI44AAAAAAII
AAAAAAAAAAAAAAAAAAAAAA22222222AA2A2AA444AA4442III44AAI44AAAAAAII
AAAAAAAAAAAAAAAAAAAAAAA2222222AA2A2AA444AA4442III44AAI44AAAAAAII
AAAAAAAAAAAAAAAAAAAAAAAA222222AA2A2AA444AA4442III44AAI44AAAAAAII
AAAAAAAAAAAAAAAAAAAAAAAAA22222AA2A2AA244AA44424II44AAI44AAAAAAII
AAAAAAAAAAAAAAAAAAAAAAAAAA2222AA2A2AA224AA444244I44AAI44AAAAAAII
AAAAAAAAAAAAAAAAAAAAAAAAAAA222AA2A2AA222AA444244444AAI44AAAAAAII
AAAAAAAAAAAAAAAAAAAAAAAAAAAA22AA2A2AA222AA444244444AAI44AAAAAAII
AAAAAAAAAAAAAAAAAAAAAAAAAAAAA2AA2A2AA222AA444244444AAI44AAAAAAII
AAAAAAAAAAAAAAAAAAAAAAAAAAAAAAAA2A2AA222AA244244444AAI44AAAAAAII
AAAAAAAAAAAAAAAAAAAAAAAAAAAAAAAA2A2AA222AA224244444AAI44AAAAAAII
AAAAAAAAAAAAAAAAAAAAAAAAAAAAAAAA2A2AA222AA222244444AA444AAAAAAII
AAAAAAAAAAAAAAAAAAAAAAAAAAAAAAAAAA2AA222AA222244444AA444AAAAAAII
AAAAAAAAAAAAAAAAAAAAAAAAAAAAAAAAAA2AA222AA222224444AA444AAAAAAII
AAAAAAAAAAAAAAAAAAAAAAAAAAAAAAAAAAAAA222AA222222444AA444AAAAAAII
AAAAAAAAAAAAAAAAAAAAAAAAAAAAAAAAAAAAA222AA222222244AA444AAAAAAII
AAAAAAAAAAAAAAAAAAAAAAAAAAAAAAAAAAAAA222AA222222224AA444AAAAAAII
AAAAAAAAAAAAAAAAAAAAAAAAAAAAAAAAAAAAAA22AA222222222AA444AAAAAAII
AAAAAAAAAAAAAAAAAAAAAAAAAAAAAAAAAAAAAAA2AA222222222AA444AAAAAAII
AAAAAAAAAAAAAAAAAAAAAAAAAAAAAAAAAAAAAAAAAA222222222AA444AAAAAAII
AAAAAAAAAAAAAAAAAAAAAAAAAAAAAAAAAAAAAAAAAA222222222AA244AAAAAA4I
AAAAAAAAAAAAAAAAAAAAAAAAAAAAAAAAAAAAAAAAAA222222222AA224AAAAAA44
AAAAAAAAAAAAAAAAAAAAAAAAAAAAAAAAAAAAAAAAAAA22222222AA222AAAAAA44
AAAAAAAAAAAAAAAAAAAAAAAAAAAAAAAAAAAAAAAAAAAA2222222AA222AAAAAA44
AAAAAAAAAAAAAAAAAAAAAAAAAAAAAAAAAAAAAAAAAAAAA222222AA222AAAAAA44
AAAAAAAAAAAAAAAAAAAAAAAAAAAAAAAAAAAAAAAAAAAAAA22222AA222AAAAAA44
AAAAAAAAAAAAAAAAAAAAAAAAAAAAAAAAAAAAAAAAAAAAAAA2222AA222AAAAAA44
AAAAAAAAAAAAAAAAAAAAAAAAAAAAAAAAAAAAAAAAAAAAAAAA222AA222AAAAAA44
AAAAAAAAAAAAAAAAAAAAAAAAAAAAAAAAAAAAAAAAAAAAAAAAA22AA222AAAAAA44
AAAAAAAAAAAAAAAAAAAAAAAAAAAAAAAAAAAAAAAAAAAAAAAAAA2AA222AAAAAA24
AAAAAAAAAAAAAAAAAAAAAAAAAAAAAAAAAAAAAAAAAAAAAAAAAAAAA222AAAAAA22
AAAAAAAAAAAAAAAAAAAAAAAAAAAAAAAAAAAAAAAAAAAAAAAAAAAAAA22AAAAAA22
AAAAAAAAAAAAAAAAAAAAAAAAAAAAAAAAAAAAAAAAAAAAAAAAAAAAAAA2AAAAAA22
AAAAAAAAAAAAAAAAAAAAAAAAAAAAAAAAAAAAAAAAAAAAAAAAAAAAAAAAAAAAAA22
AAAAAAAAAAAAAAAAAAAAAAAAAAAAAAAAAAAAAAAAAAAAAAAAAAAAAAAAAAAAAAA2
AAAAAAAAAAAAAAAAAAAAAAAAAAAAAAAAAAAAAAAAAAAAAAAAAAAAAAAAAAAAAAAA
AAAAAAAAIAAAAAAAAAAAAAAAAAAAAAAAAAAAAAAAAAAAAAAAAAAAAAAAAAAAAAAA
AAAAAAAAIAIAAAAAAAAAAAAAAAAAAAAAAAAAAAAAAAAAAAAAAAAAAAAAAAAAAAAA
AAAAAAAAIIIAAAAAAAAAAAAAAAAAAAAAAAAAAAAAAAAAAAAAAAAAAAAAAAAAAAAA
AAAAAAAAIIIAAAAAIAAAAAAAAAAAAAAAAAAAAAAAAAAAAAAAAAAAAAAAAAAAAAAA
AAAAAAAAIIIAAAAAIIAAAAAAAAAAAAAAAAAAAAAAAAAAAAAAAAAAAAAAAAAAAAAA
AAAAAAAAIIIAAAAAIIIAAAAAAAAAAAAAAAAAAAAAAAAAAAAAAAAAAAAAAAAAAAAA
AAAAAAAAIIIAAAAAIIIIAAAAAAAAAAAAAAAAAAAAAAAAAAAAAAAAAAAAAAAAAAAA
AAAAAAAAIIIAAAAAIIIIIAAAAAAAAAAAAAAAAAAAAAAAAAAAAAAAAAAAAAAAAAAA
AAAAAAAAIIIAAAAAIIIIIIAAAAAAAAAAAAAAAAAAAAAAAAAAAAAAAAAAAAAAAAAA
AAAAAAAAIIIAAAAAIIIIIIIAAAAAAAAAAAAAAAAAAAAAAAAAAAAAAAAAAAAAAAAA
AAAAAAAAIIIAAAAAIIIIIIIIAAAAAAAAAAAAAAAAAAAAAAAAAAAAAAAAAAAAAAAA
AAAAAAAAIIIAAAAAIIIIIIIIIAAAAAAAAAAAAAAAAAAAAAAAAAAAAAAAAAAAAAAA
AAAAAAAAIIIAAAAAIIIIIIIIIIAAAAAAAAAAAAAAAAAAAAAAAAAAAAAAAAAAAAAA
AAAAAAAAIIIAAAAAIIIIIIIIIIIAAAAAAAAAAAAAAAAAAAAAAAAAAAAAAAAAAAAA
AAAAAAAAIIIAAAAAIIIIIIIIIIIIAAAAAAAAAAAAAAAAAAAAAAAAAAAAAAAAAAAA
AAAAAAAAIIIAAAAAIIIIIIIIIIIIIAAAAAAAAAAAAAAAAAAAAAAAAAAAAAAAAAAA
AAAAAAAAIIIAAAAAIIIIIIIIIIIIIIAAAAAAAAAAAAAAAAAAAAAAAAAAAAAAAAAA
AAAAAAAAIIIAAAAAIIIIIIIIIIIIIIIAAAAAAAAAAAAAAAAAAAAAAAAAAAAAAAAA
AAAAAAAAIIIAAAAAIIIIIIIIIIIIIIIIAAAAAAAAAAAAAAAAAAAAAAAAAAAAAAAA
AAAAAAAAIIIAAAAAIIIIIIIIIIIIIIIIIAAAAAAAAAAAAAAAAAAAAAAAAAAAAAAA
AAAAAAAAIIIAAAAAIIIIIIIIIIIIIIIIIIAAAAAAAAAAAAAAAAAAAAAAAAAAAAAA
AAAAAAAAIIIAAAAAIIIIIIIIIIIIIIIIIIIAAAAAAAAAAAAAAAAAAAAAAAAAAAAA
AAAAAAAAIIIAAAAAIIIIIIIIIIIIIIIIIIIIAAAAAAAAAAAAAAAAAAAAAAAAAAAA
AAAAAAAAIIIAAAAAIIIIIIIIIIIIIIIIIIIIIAAAAAAAAAAAAAAAAAAAAAAAAAAA
AAAAAAAAIIIAAAAAIIIIIIIIIIIIIIIIIIIIIIAAAAAAAAAAAAAAAAAAAAAAAAAA
AAAAAAAAIIIAAAAAIIIIIIIIIIIIIIIIIIIIIIIAAAAAAAAAAAAAAAAAAAAAAAAA
AAAAAAAAIIIAAAAAIIIIIIIIIIIIIIIIIIIIIIIIAAAAAAAAAAAAAAAAAAAAAAAA
AAAAAAAAIIIAAAAAIIIIIIIIIIIIIIIIIIIIIIIIIAAAAAAAAAAAAAAAAAAAAAAA
AAAAAAAAIIIAAAAAIIIIIIIIIIIIIIIIIIIIIIIIIIAAAAAAAAAAAAAAAAAAAAAA
AAAAAAAAIIIAAAAAIIIIIIIIIIIIIIIIIIIIIIIIIIIAAAAAAAAAAAAAAAAAAAAA
AAAAAAAAIIIAAAAAIIIIIIIIIIIIIIIIIIIIIIIIIIIIAAAAAAAAAAAAAAAAAAAA
AAAAAAAAIIIAAAAAIIIIIIIIIIIIIIIIIIIIIIIIIIIIIAAAAAAAAAAAAAAAAAAA
AAAAAAAAIIIAAAAAIIIIIIIIIIIIIIIIIIIIIIIIIIIIIIAAAAAAAAAAAAAAAAAA
AAAAAAAAIIIAAAAAIIIIIIIIIIIIIIIIIIIIIIIIIIIIIIIAAAAAAAAAAAAAAAAA
AAAAAAAAIIIAAAAAIIIIIIIIIIIIIIIIIIIIIIIIIIIIIIIIAAAAAAAAAAAAAAAA
AAAAAAAAIIIAAAAAIIIIIIIIIIIIIIIIIIIIIIIIIIIIIIIIIAAAAAAAAAAAAAAA
AAAAAAAAIIIAAAAAIIIIIIIIIIIIIIIIIIIIIIIIIIIIIIIIIIAAAAAAAAAAAAAA
AAAAAAAAIIIAAAAAIIIIIIIIIIIIIIIIIIIIIIIIIIIIIIIIIIIAAAAAAAAAAAAA
AAAAAAAAIIIAAAAAIIIIIIIIIIIIIIIIIIIIIIIIIIIIIIIIIIIIAAAAAAAAAAAA
AAAAAAAAIIIAAAAAIIIIIIIIIIIIIIIIIIIIIIIIIIIIIIIIIIIIIAAAAAAAAAAA
AAAAAAAAIIIAAAAAIIIIIIIIIIIIIIIIIIIIIIIIIIIIIIIIIIIIIAIAAAAAAAAA
AAAAAAAAIIIAAAAAIIIIIIIIIIIIIIIIIIIIIIIIIIIIIIIIIIIIIIIAAAAAAAAA
AAAAAAAAIIIAAAAAIIIIIIIIIIIIIIIIIIIIIIIIIIIIIIIIIIIIIIIIAAAAAAAA
AAAAAAAAIIIAAAAAIIIIIIIIIIIIIIIIIIIIIIIIIIIIIIIIIIIIIIIIIAAAAAAA
AAAAAAAAIIIAAAAAIIIIIIIIIIIIIIIIIIIIIIIIIIIIIIIIIIIIIIIIIIAAAAAA
AAAAAAAAIIIAAAAAIIIIIIIIIIIIIIIIIIIIIIIIIIIIIIIIIIIIIIIIIIIAAAAA
AAAAAAAAIIIAAAAAIIIIIIIIIIIIIIIIIIIIIIIIIIIIIIIIIIIIIIIIIIIIAAAA
AAAAAAAAIIIAAAAAIIIIIIIIIIIIIIIIIIIIIIIIIIIIIIIIIIIIIIIIIIIIIAAA
AAAAAAAAIIIAAAAAIIIIIIIIIIIIIIIIIIIIIIIIIIIIIIIIIIIIIIIIIIIIIIAA
AAAAAAAAIIIAAAAAIIIIIIIIIIIIIIIIIIIIIIIIIIIIIIIIIIIIIIIIIIIIIIIA
AAAAAAAAIIIAAAAAIIIIIIIIIIIIIIIIIIIIIIIIIIIIIIIIIIIIIIIIIIIIIIII
AAAAAAIAIIIAAAAAIIIIIIIIIIIIIIIIIIIIIIIIIIIIIIIIIIIIIIIIIIIIIIII
AAAAAAIAIIIIAAAAIIIIIIIIIIIIIIIIIIIIIIIIIIIIIIIIIIIIIIIIIIIIIIII
AAAAAAIAIIIIAAIAIIIIIIIIIIIIIIIIIIIIIIIIIIIIIIIIIIIIIIIIIIIIIIII
AIAAAAIAIIIIAAIAIIIIIIIIIIIIIIIIIIIIIIIIIIIIIIIIIIIIIIIIIIIIIIII
AIAAIAIAIIIIAAIAIIIIIIIIIIIIIIIIIIIIIIIIIIIIIIIIIIIIIIIIIIIIIIII
AIAAIIIAIIIIAAIAIIIIIIIIIIIIIIIIIIIIIIIIIIIIIIIIIIIIIIIIIIIIIIII
AIAAIIIAIIIIAIIAIIIIIIIIIIIIIIIIIIIIIIIIIIIIIIIIIIIIIIIIIIIIIIII
AIAAIIIAIIIIAIIIIIIIIIIIIIIIIIIIIIIIIIIIIIIIIIIIIIIIIIIIIIIIIIII
A2AA222AI222A444IIIII4IIIIIIIIIIIIIIIIIIIIIIIIIIIIIIIIIIIIIIIIII
AAAA222A2222A2444IIII44IIIIIIIIIIIIIIIIIIIIIIIIIIIIIIIIIIIIIIIII
AAAA222A2222A22444III444IIIIIIIIIIIIIIIIIIIIIIIIIIIIIIIIIIIIIIII
AAAA222A2222A222444II4444IIIIIIIIIIIIIIIIIIIIIIIIIIIIIIIIIIIIIII
AAAAA22A2222A2222444I44444IIIIIIIIIIIIIIIIIIIIIIIIIIIIIIIIIIIIII
AAAAAA2A2222A22222444444444IIIIIIIIIIIIIIIIIIIIIIIIIIIIIIIIIIIII
AAAAAAAA2222A222222444444444IIIIIIIIIIIIIIIIIIIIIIIIIIIIIIIIIIII
AAAAAAAA2222A2222222444444444IIIIIIIIIIIIIIIIIIIIIIIIIIIIIIIIIII
AAAAAAAAA222A22222222444444444IIIIIIIIIIIIIIIIIIIIIIIIIIIIIIIIII
AAAAAAAAAA22A222222222444444444IIIIIIIIIIIIIIIIIIIIIIIIIIIIIIIII
AAAAAAAAAAA2A2222222222444444444IIIIIIIIIIIIIIIIIIIIIIIIIIIIIIII
AAAAAAAAAAAAA22222222222444444444IIIIIIIIIIIIIIIIIIIIIIIIIIIIIII
AAAAAAAAAAAAA222222222222444444444IIIIIIIIIIIIIIIIIIIIIIIIIIIIII
AAAAAAAAAAAAAA222222222222444444444IIIIIIIIIIIIIIIIIIIIIIIIIIIII
AAAAAAAAAAAAAAA222222222222444444444IIIIIIIIIIIIIIIIIIIIIIIIIIII
AAAAAAAAAAAAAAAA222222222222444444444IIIIIIIIIIIIIIIIIIIIIIIIIII
AAAAAAAAAAAAAAAAA222222222222444444444IIIIIIIIIIIIIIIIIIIIIIIIII
AAAAAAAAAAAAAAAAAA222222222222444444444IIIIIIIIIIIIIIIIIIIIIIIII
AAAAAAAAAAAAAAAAAAA222222222222444444444IIIIIIIIIIIIIIIIIIIIIIII
AAAAAAAAAAAAAAAAAAAA222222222222444444444IIIIIIIIIIIIIIIIIIIIIII
AAAAAAAAAAAAAAAAAAAAA222222222222444444444IIIIIIIIIIIIIIIIIIIIII
AAAAAAAAAAAAAAAAAAAAAA222222222222444444444IIIIIIIIIIIIIIIIIIIII
AAAAAAAAAAAAAAAAAAAAAAA222222222222444444444IIIIIIIIIIIIIIIIIIII
AAAAAAAAAAAAAAAAAAAAAAAA222222222222444444444IIIIIIIIIIIIIIIIIII
AAAAAAAAAAAAAAAAAAAAAAAAA222222222222444444444IIIIIIIIIIIIIIIIII
AAAAAAAAAAAAAAAAAAAAAAAAAA222222222222444444444IIIIIIIIIIIIIIIII
AAAAAAAAAAAAAAAAAAAAAAAAAAA222222222222444444444IIIIIIIIIIIIIIII
AAAAAAAAAAAAAAAAAAAAAAAAAAAA222222222222444444444IIIIIIIIIIIIIII
AAAAAAAAAAAAAAAAAAAAAAAAAAAAA222222222222444444444IIIIIIIIIIIIII
AAAAAAAAAAAAAAAAAAAAAAAAAAAAAA222222222222444444444IIIIIIIIIIIII
AAAAAAAAAAAAAAAAAAAAAAAAAAAAAAA222222222222444444444IIIIIIIIIIII
AAAAAAAAAAAAAAAAAAAAAAAAAAAAAAAA222222222222444444444IIIIIIIIIII
AAAAAAAAAAAAAAAAAAAAAAAAAAAAAAAAA222222222222444444444IIIIIIIIII
AAAAAAAAAAAAAAAAAAAAAAAAAAAAAAAAAA222222222222444444444IIIIIIIII
AAAAAAAAAAAAAAAAAAAAAAAAAAAAAAAAAAA222222222222444444444IIIIIIII
AAAAAAAAAAAAAAAAAAAAAAAAAAAAAAAAAAAA222222222222444444444IIIIIII
AAAAAAAAAAAAAAAAAAAAAAAAAAAAAAAAAAAAA222222222222444444444IIIIII
AAAAAAAAAAAAAAAAAAAAAAAAAAAAAAAAAAAAAA222222222222444444444IIIII
AAAAAAAAAAAAAAAAAAAAAAAAAAAAAAAAAAAAAAA222222222222444444444IIII
AAAAAAAAAAAAAAAAAAAAAAAAAAAAAAAAAAAAAAAA222222222222444444444III
AAAAAAAAAAAAAAAAAAAAAAAAAAAAAAAAAAAAAAAAA222222222222444444444II
AAAAAAAAAAAAAAAAAAAAAAAAAAAAAAAAAAAAAAAAAA222222222222444444444I
AAAAAAAAAAAAAAAAAAAAAAAAAAAAAAAAAAAAAAAAAAA222222222222444444444
AAAAAAAAAAAAAAAAAAAAAAAAAAAAAAAAAAAAAAAAAAAA22222222222244444444
AAAAAAAAAAAAAAAAAAAAAAAAAAAAAAAAAAAAAAAAAAAAA2222222222224444444
AAAAAAAAAAAAAAAAAAAAAAAAAAAAAAAAAAAAAAAAAAAAAA222222222222444444
AAAAAAAAAAAAAAAAAAAAAAAAAAAAAAAAAAAAAAAAAAAAAAA22222222222244444
AAAAAAAAAAAAAAAAAAAAAAAAAAAAAAAAAAAAAAAAAAAAAAAA2222222222224444
AAAAAAAAAAAAAAAAAAAAAAAAAAAAAAAAAAAAAAAAAAAAAAAAA222222222222444
AAAAAAAAAAAAAAAAAAAAAAAAAAAAAAAAAAAAAAAAAAAAAAAAAA22222222222244
AAAAAAAAAAAAAAAAAAAAAAAAAAAAAAAAAAAAAAAAAAAAAAAAAAA2222222222224
AAAAAAAAAAAAAAAAAAAAAAAAAAAAAAAAAAAAAAAAAAAAAAAAAAAA222222222222
AAAAAAAAAAAAAAAAAAAAAAAAAAAAAAAAAAAAAAAAAAAAAAAAAAAAA22222222222
AAAAAAAAAAAAAAAAAAAAAAAAAAAAAAAAAAAAAAAAAAAAAAAAAAAAAA2222222222
AAAAAAAAAAAAAAAAAAAAAAAAAAAAAAAAAAAAAAAAAAAAAAAAAAAAAAA222222222
AAAAAAAAAAAAAAAAAAAAAAAAAAAAAAAAAAAAAAAAAAAAAAAAAAAAAAAA22222222
AAAAAAAAAAAAAAAAAAAAAAAAAAAAAAAAAAAAAAAAAAAAAAAAAAAAAAAAA2222222
AAAAAAAAAAAAAAAAAAAAAAAAAAAAAAAAAAAAAAAAAAAAAAAAAAAAAAAAAA222222
AAAAAAAAAAAAAAAAAAAAAAAAAAAAAAAAAAAAAAAAAAAAAAAAAAAAAAAAAAA22222
AAAAAAAAAAAAAAAAAAAAAAAAAAAAAAAAAAAAAAAAAAAAAAAAAAAAAAAAAAAA2222
AAAAAAAAAAAAAAAAAAAAAAAAAAAAAAAAAAAAAAAAAAAAAAAAAAAAAAAAAAAAA222
AAAAAAAAAAAAAAAAAAAAAAAAAAAAAAAAAAAAAAAAAAAAAAAAAAAAAAAAAAAAAA22
AAAAAAAAAAAAAAAAAAAAAAAAAAAAAAAAAAAAAAAAAAAAAAAAAAAAAAAAAAAAAAA2
AAAAAAAAAAAAAAAAAAAAAAAAAAAAAAAAAAAAAAAAAAAAAAAAAAAAAAAAAAAAAAAA
AAAAAAAAIAAAAAAAAAAAAAAAAAAAAAAAAAAAAAAAAAAAAAAAAAAAAAAAAAAAAAAA
AAAAAAAAIAIAAAAAAAAAAAAAAAAAAAAAAAAAAAAAAAAAAAAAAAAAAAAAAAAAAAAA
AAAAAAAAIIIAAAAAAAAAAAAAAAAAAAAAAAAAAAAAAAAAAAAAAAAAAAAAAAAAAAAA
AAAAAAAAIIIAAAAAIAAAAAAAAAAAAAAAAAAAAAAAAAAAAAAAAAAAAAAAAAAAAAAA
AAAAAAAAIIIAAAAAIAIAAAAAAAAAAAAAAAAAAAAAAAAAAAAAAAAAAAAAAAAAAAAA
AAAAAAAAIIIAAAAAIAIIAAAAAAAAAAAAAAAAAAAAAAAAAAAAAAAAAAAAAAAAAAAA
AAAAAAAAIIIAAAAAIAIIIAAAAAAAAAAAAAAAAAAAAAAAAAAAAAAAAAAAAAAAAAAA
AAAAAAAAIIIAAAAAIAIIIIAAAAAAAAAAAAAAAAAAAAAAAAAAAAAAAAAAAAAAAAAA
AAAAAAAAIIIAAAAAIAIIIIIAAAAAAAAAAAAAAAAAAAAAAAAAAAAAAAAAAAAAAAAA
AAAAAAAAIIIAAAAAIAIIIIIIAAAAAAAAAAAAAAAAAAAAAAAAAAAAAAAAAAAAAAAA
AAAAAAAAIIIAAAAAIAIIIIIIIAAAAAAAAAAAAAAAAAAAAAAAAAAAAAAAAAAAAAAA
AAAAAAAAIIIAAAAAIAIIIIIIIIAAAAAAAAAAAAAAAAAAAAAAAAAAAAAAAAAAAAAA
AAAAAAAAIIIAAAAAIAIIIIIIIIIAAAAAAAAAAAAAAAAAAAAAAAAAAAAAAAAAAAAA
AAAAAAAAIIIAAAAAIAIIIIIIIIIIAAAAAAAAAAAAAAAAAAAAAAAAAAAAAAAAAAAA
AAAAAAAAIIIAAAAAIAIIIIIIIIIIIAAAAAAAAAAAAAAAAAAAAAAAAAAAAAAAAAAA
AAAAAAAAIIIAAAAAIAIIIIIIIIIIIIAAAAAAAAAAAAAAAAAAAAAAAAAAAAAAAAAA
AAAAAAAAIIIAAAAAIAIIIIIIIIIIIIIAAAAAAAAAAAAAAAAAAAAAAAAAAAAAAAAA
AAAAAAAAIIIAAAAAIAIIIIIIIIIIIIIIAAAAAAAAAAAAAAAAAAAAAAAAAAAAAAAA
AAAAAAAAIIIAAAAAIAIIIIIIIIIIIIIIIAAAAAAAAAAAAAAAAAAAAAAAAAAAAAAA
AAAAAAAAIIIAAAAAIAIIIIIIIIIIIIIIIIAAAAAAAAAAAAAAAAAAAAAAAAAAAAAA
AAAAAAAAIIIAAAAAIAIIIIIIIIIIIIIIIIIAAAAAAAAAAAAAAAAAAAAAAAAAAAAA
AAAAAAAAIIIAAAAAIAIIIIIIIIIIIIIIIIIIAAAAAAAAAAAAAAAAAAAAAAAAAAAA
AAAAAAAAIIIAAAAAIAIIIIIIIIIIIIIIIIIIIAAAAAAAAAAAAAAAAAAAAAAAAAAA
AAAAAAAAIIIAAAAAIAIIIIIIIIIIIIIIIIIIIIAAAAAAAAAAAAAAAAAAAAAAAAAA
AAAAAAAAIIIAAAAAIAIIIIIIIIIIIIIIIIIIIIIAAAAAAAAAAAAAAAAAAAAAAAAA
AAAAAAAAIIIAAAAAIAIIIIIIIIIIIIIIIIIIIIIIAAAAAAAAAAAAAAAAAAAAAAAA
AAAAAAAAIIIAAAAAIAIIIIIIIIIIIIIIIIIIIIIIIAAAAAAAAAAAAAAAAAAAAAAA
AAAAAAAAIIIAAAAAIAIIIIIIIIIIIIIIIIIIIIIIIIAAAAAAAAAAAAAAAAAAAAAA
AAAAAAAAIIIAAAAAIAIIIIIIIIIIIIIIIIIIIIIIIIIAAAAAAAAAAAAAAAAAAAAA
AAAAAAAAIIIAAAAAIAIIIIIIIIIIIIIIIIIIIIIIIIIIAAAAAAAAAAAAAAAAAAAA
AAAAAAAAIIIAAAAAIAIIIIIIIIIIIIIIIIIIIIIIIIIIIAAAAAAAAAAAAAAAAAAA
AAAAAAAAIIIAAAAAIAIIIIIIIIIIIIIIIIIIIIIIIIIIIIAAAAAAAAAAAAAAAAAA
AAAAAAAAIIIAAAAAIAIIIIIIIIIIIIIIIIIIIIIIIIIIIIIAAAAAAAAAAAAAAAAA
AAAAAAAAIIIAAAAAIAIIIIIIIIIIIIIIIIIIIIIIIIIIIIIIAAAAAAAAAAAAAAAA
AAAAAAAAIIIAAAAAIAIIIIIIIIIIIIIIIIIIIIIIIIIIIIIIIAAAAAAAAAAAAAAA
AAAAAAAAIIIAAAAAIAIIIIIIIIIIIIIIIIIIIIIIIIIIIIIIIIAAAAAAAAAAAAAA
AAAAAAAAIIIAAAAAIAIIIIIIIIIIIIIIIIIIIIIIIIIIIIIIIIIAAAAAAAAAAAAA
AAAAAAAAIIIAAAAAIAIIIIIIIIIIIIIIIIIIIIIIIIIIIIIIIIIIAAAAAAAAAAAA
AAAAAAAAIIIAAAAAIAIIIIIIIIIIIIIIIIIIIIIIIIIIIIIIIIIIIAAAAAAAAAAA
AAAAAAAAIIIAAAAAIAIIIIIIIIIIIIIIIIIIIIIIIIIIIIIIIIIIIIAAAAAAAAAA
AAAAAAAAIIIAAAAAIAIIIIIIIIIIIIIIIIIIIIIIIIIIIIIIIIIIIIIAAAAAAAAA
AAAAAAAAIIIAAAAAIAIIIIIIIIIIIIIIIIIIIIIIIIIIIIIIIIIIIIIIAAAAAAAA
AAAAAAAAIIIAAAAAIAIIIIIIIIIIIIIIIIIIIIIIIIIIIIIIIIIIIIIIAAAAAIAA
AAAAAAAAIIIAAAAAIAIIIIIIIIIIIIIIIIIIIIIIIIIIIIIIIIIIIIIIAAAAAIIA
AAAAAAAAIIIAAAAAIAIIIIIIIIIIIIIIIIIIIIIIIIIIIIIIIIIIIIIIAAAAAIII
AAAAAAAAIIIAAIAAIAIIIIIIIIIIIIIIIIIIIIIIIIIIIIIIIIIIIIIIAAAAAIII
AAAAAAAAIIIAAIIAIAIIIIIIIIIIIIIIIIIIIIIIIIIIIIIIIIIIIIIIAAAAAIII
AAAAAAAIIIIAAIIAIAIIIIIIIIIIIIIIIIIIIIIIIIIIIIIIIIIIIIIIAAAAAIII
AAAAAAAIIIIAIIIAIAIIIIIIIIIIIIIIIIIIIIIIIIIIIIIIIIIIIIIIAAAAAIII
AAAAAAAIIIIAIIIIIAIIIIIIIIIIIIIIIIIIIIIIIIIIIIIIIIIIIIIIAAAAAIII
AAAAAAAIIIIIIIIIIAIIIIIIIIIIIIIIIIIIIIIIIIIIIIIIIIIIIIIIAAAAAIII
AAAAAAAIIIIIIIIIIAIIIIIIIIIIIIIIIIIIIIIIIIIIIIIIIIIIIIIIIAAAAIII
AAAAAAAIIIIIIIIIIAIIIIIIIIIIIIIIIIIIIIIIIIIIIIIIIIIIIIIIIAAAIIII
[MLOP] Prefetch Degree Mean: 15.54535
[MLOP] Prefetch Degree SD: 2.19779
[MLOP] Max Score Left Mean (%): 66.81957
[MLOP] Max Score Left SD (%): 10.62083
[MLOP] Max Score Right Mean (%): 98.24714
[MLOP] Max Score Right SD (%): 4.31817

Channel_0_RQ_row_buffer_hit 358675
Channel_0_RQ_row_buffer_miss 643714
Channel_0_WQ_row_buffer_hit 83130
Channel_0_WQ_row_buffer_miss 267033
Channel_0_WQ_full 173
Channel_0_dbus_congested 831250

avg_congested_cycle 11

DRAM_bw_pochs 248956
DRAM_bw_level_0 100996
DRAM_bw_level_1 80367
DRAM_bw_level_2 31892
DRAM_bw_level_3 35701
