*************************************************
   ChampSim Multicore Out-of-Order Simulator
   Last compiled: Apr  3 2025 20:54:34
*************************************************
parsing config file: /home/zir/Pythia/config/mlop.ini

trace_0 /home/zir/ChampSim/ML-DPC/ChampSimTraces/spec17/605.mcf-s7.trace.xz
adding L2C_PREFETCHER: MLOP
Initialize SHIP state
warmup_instructions 10000000
simulation_instructions 50000000
champsim_seed 170
measure_ipc 0
measure_ipc_epoch 1000
measure_dram_bw 1
measure_dram_bw_epoch 256
measure_cache_acc 1
measure_cache_acc_epoch 1024
l1d_perfect 0
l2c_perfect 0
llc_perfect 0
l1d_semi_perfect 0
l2c_semi_perfect 0
llc_semi_perfect 0
semi_perfect_cache_page_buffer_size 64

num_cpus 1
cpu_freq 4000
dram_io_freq 2400
page_size 4096
block_size 64
max_read_per_cycle 8
max_fill_per_cycle 1
dram_channels 1
log2_dram_channels 0
dram_ranks 1
dram_banks 8
dram_rows 65536
dram_columns 128
dram_row_size 8
dram_size 4096
dram_pages 1048576

fetch_width 6
decode_width 6
exec_width 4
lq_width 2
sq_width 2
retire_width 4
scheduler_size 128
branch_mispredict_penalty 20
rob_size 256
lq_size 72
sq_size 56
num_instr_destinations_sparc 4
num_instr_destinations 2
num_instr_sources 4

itlb_set 16
itlb_way 8
itlb_rq_size 16
itlb_wq_size 16
itlb_pq_size 0
itlb_mshr_size 8
itlb_latency 1

dtlb_set 16
dtlb_way 4
dtlb_rq_size 16
dtlb_wq_size 16
dtlb_pq_size 0
dtlb_mshr_size 8
dtlb_latency 1

stlb_set 128
stlb_way 12
stlb_rq_size 32
stlb_wq_size 32
stlb_pq_size 0
stlb_mshr_size 16
stlb_latency 8

l1i_size 32
l1i_set 64
l1i_way 8
l1i_rq_size 64
l1i_wq_size 64
l1i_pq_size 8
l1i_mshr_size 8
l1i_latency 1

l1d_size 32
l1d_set 64
l1d_way 8
l1d_rq_size 64
l1d_wq_size 64
l1d_pq_size 8
l1d_mshr_size 16
l1d_latency 4

l2c_size 256
l2c_set 512
l2c_way 8
l2c_rq_size 32
l2c_wq_size 32
l2c_pq_size 32
l2c_mshr_size 32
l2c_latency 10

llc_size 2048
llc_set 2048
llc_way 16
llc_rq_size 32
llc_wq_size 32
llc_pq_size 32
llc_mshr_size 64
llc_latency 20

dram_channel_width 8
dram_wq_size 64
dram_rq_size 64
tRP 15
tRCD 15
tCAS 12.5
dram_dbus_turn_around_time 30
dram_write_high_wm 56
dram_write_low_wm 48
min_dram_writes_per_switch 16
dram_mtps 2400
dram_dbus_return_time 13

mlop_pref_degree 16
mlop_num_updates 500
mlop_l1d_thresh 2
mlop_l2c_thresh 0.75
mlop_llc_thresh 0.3
mlop_debug_level 0
mlop_blocks_in_cache 4096
mlop_blocks_in_zone 64
mlop_amt_size 2048
mlop_PF_DEGREE 16
mlop_NUM_UPDATES 500
mlop_L1D_THRESH 1000
mlop_L2C_THRESH 375
mlop_LLC_THRESH 150
mlop_ORIGIN 63
mlop_MAX_OFFSET 63
mlop_MIN_OFFSET -63
mlop_ORIGIN 63
mlop_NUM_OFFSETS 127


Heartbeat CPU  0 instructions:    1000001 cycles:     827738 heartbeat IPC: 1.20811 cumulative IPC: 1.20811 (Simulation time: 0 hr 0 min 2 sec) 
Heartbeat CPU  0 instructions:    2000000 cycles:    1652477 heartbeat IPC: 1.21250 cumulative IPC: 1.21030 (Simulation time: 0 hr 0 min 4 sec) 
Heartbeat CPU  0 instructions:    3000002 cycles:    2472139 heartbeat IPC: 1.22002 cumulative IPC: 1.21352 (Simulation time: 0 hr 0 min 5 sec) 
Heartbeat CPU  0 instructions:    4000000 cycles:    3399810 heartbeat IPC: 1.07797 cumulative IPC: 1.17654 (Simulation time: 0 hr 0 min 7 sec) 
Heartbeat CPU  0 instructions:    5000000 cycles:    4252606 heartbeat IPC: 1.17261 cumulative IPC: 1.17575 (Simulation time: 0 hr 0 min 9 sec) 
Heartbeat CPU  0 instructions:    6000000 cycles:    5082277 heartbeat IPC: 1.20530 cumulative IPC: 1.18057 (Simulation time: 0 hr 0 min 10 sec) 
Heartbeat CPU  0 instructions:    7000000 cycles:    5896595 heartbeat IPC: 1.22802 cumulative IPC: 1.18713 (Simulation time: 0 hr 0 min 12 sec) 
Heartbeat CPU  0 instructions:    8000000 cycles:    6708404 heartbeat IPC: 1.23182 cumulative IPC: 1.19253 (Simulation time: 0 hr 0 min 14 sec) 
Heartbeat CPU  0 instructions:    9000000 cycles:    7525618 heartbeat IPC: 1.22367 cumulative IPC: 1.19592 (Simulation time: 0 hr 0 min 16 sec) 
Heartbeat CPU  0 instructions:   10000001 cycles:    8337847 heartbeat IPC: 1.23118 cumulative IPC: 1.19935 (Simulation time: 0 hr 0 min 17 sec) 

Warmup complete CPU  0 instructions:   10000001 cycles:    8337847 (Simulation time: 0 hr 0 min 17 sec) 

Heartbeat CPU  0 instructions:   11000000 cycles:   13882308 heartbeat IPC: 0.18036 cumulative IPC: 0.18036 (Simulation time: 0 hr 0 min 21 sec) 
Heartbeat CPU  0 instructions:   12000000 cycles:   19407742 heartbeat IPC: 0.18098 cumulative IPC: 0.18067 (Simulation time: 0 hr 0 min 24 sec) 
Heartbeat CPU  0 instructions:   13000002 cycles:   25033276 heartbeat IPC: 0.17776 cumulative IPC: 0.17969 (Simulation time: 0 hr 0 min 27 sec) 
Heartbeat CPU  0 instructions:   14000000 cycles:   30502450 heartbeat IPC: 0.18284 cumulative IPC: 0.18047 (Simulation time: 0 hr 0 min 30 sec) 
Heartbeat CPU  0 instructions:   15000000 cycles:   35989513 heartbeat IPC: 0.18225 cumulative IPC: 0.18082 (Simulation time: 0 hr 0 min 33 sec) 
Heartbeat CPU  0 instructions:   16000000 cycles:   41352771 heartbeat IPC: 0.18645 cumulative IPC: 0.18174 (Simulation time: 0 hr 0 min 36 sec) 
Heartbeat CPU  0 instructions:   17000000 cycles:   46912175 heartbeat IPC: 0.17988 cumulative IPC: 0.18147 (Simulation time: 0 hr 0 min 39 sec) 
Heartbeat CPU  0 instructions:   18000001 cycles:   52514242 heartbeat IPC: 0.17851 cumulative IPC: 0.18109 (Simulation time: 0 hr 0 min 42 sec) 
Heartbeat CPU  0 instructions:   19000000 cycles:   58096686 heartbeat IPC: 0.17913 cumulative IPC: 0.18087 (Simulation time: 0 hr 0 min 46 sec) 
Heartbeat CPU  0 instructions:   20000000 cycles:   63928574 heartbeat IPC: 0.17147 cumulative IPC: 0.17989 (Simulation time: 0 hr 0 min 49 sec) 
Heartbeat CPU  0 instructions:   21000000 cycles:   69914660 heartbeat IPC: 0.16705 cumulative IPC: 0.17864 (Simulation time: 0 hr 0 min 52 sec) 
Heartbeat CPU  0 instructions:   22000000 cycles:   78054264 heartbeat IPC: 0.12286 cumulative IPC: 0.17213 (Simulation time: 0 hr 0 min 56 sec) 
Heartbeat CPU  0 instructions:   23000001 cycles:   83938960 heartbeat IPC: 0.16993 cumulative IPC: 0.17196 (Simulation time: 0 hr 0 min 59 sec) 
Heartbeat CPU  0 instructions:   24000000 cycles:   89803288 heartbeat IPC: 0.17052 cumulative IPC: 0.17185 (Simulation time: 0 hr 1 min 2 sec) 
Heartbeat CPU  0 instructions:   25000001 cycles:   95563538 heartbeat IPC: 0.17360 cumulative IPC: 0.17197 (Simulation time: 0 hr 1 min 5 sec) 
Heartbeat CPU  0 instructions:   26000002 cycles:  101435856 heartbeat IPC: 0.17029 cumulative IPC: 0.17186 (Simulation time: 0 hr 1 min 8 sec) 
Heartbeat CPU  0 instructions:   27000001 cycles:  107357265 heartbeat IPC: 0.16888 cumulative IPC: 0.17168 (Simulation time: 0 hr 1 min 12 sec) 
Heartbeat CPU  0 instructions:   28000000 cycles:  113320373 heartbeat IPC: 0.16770 cumulative IPC: 0.17146 (Simulation time: 0 hr 1 min 15 sec) 
Heartbeat CPU  0 instructions:   29000001 cycles:  119374769 heartbeat IPC: 0.16517 cumulative IPC: 0.17111 (Simulation time: 0 hr 1 min 18 sec) 
Heartbeat CPU  0 instructions:   30000000 cycles:  125859720 heartbeat IPC: 0.15420 cumulative IPC: 0.17018 (Simulation time: 0 hr 1 min 22 sec) 
Heartbeat CPU  0 instructions:   31000000 cycles:  132114632 heartbeat IPC: 0.15987 cumulative IPC: 0.16966 (Simulation time: 0 hr 1 min 25 sec) 
Heartbeat CPU  0 instructions:   32000000 cycles:  137651613 heartbeat IPC: 0.18060 cumulative IPC: 0.17013 (Simulation time: 0 hr 1 min 28 sec) 
Heartbeat CPU  0 instructions:   33000000 cycles:  144679599 heartbeat IPC: 0.14229 cumulative IPC: 0.16869 (Simulation time: 0 hr 1 min 31 sec) 
Heartbeat CPU  0 instructions:   34000003 cycles:  150121877 heartbeat IPC: 0.18375 cumulative IPC: 0.16927 (Simulation time: 0 hr 1 min 34 sec) 
Heartbeat CPU  0 instructions:   35000001 cycles:  156362261 heartbeat IPC: 0.16025 cumulative IPC: 0.16889 (Simulation time: 0 hr 1 min 38 sec) 
Heartbeat CPU  0 instructions:   36000000 cycles:  162888242 heartbeat IPC: 0.15323 cumulative IPC: 0.16823 (Simulation time: 0 hr 1 min 41 sec) 
Heartbeat CPU  0 instructions:   37000000 cycles:  168844761 heartbeat IPC: 0.16788 cumulative IPC: 0.16822 (Simulation time: 0 hr 1 min 44 sec) 
Heartbeat CPU  0 instructions:   38000003 cycles:  174601584 heartbeat IPC: 0.17371 cumulative IPC: 0.16841 (Simulation time: 0 hr 1 min 47 sec) 
Heartbeat CPU  0 instructions:   39000002 cycles:  180686558 heartbeat IPC: 0.16434 cumulative IPC: 0.16826 (Simulation time: 0 hr 1 min 51 sec) 
Heartbeat CPU  0 instructions:   40000000 cycles:  186450927 heartbeat IPC: 0.17348 cumulative IPC: 0.16843 (Simulation time: 0 hr 1 min 54 sec) 
Heartbeat CPU  0 instructions:   41000000 cycles:  192263950 heartbeat IPC: 0.17203 cumulative IPC: 0.16855 (Simulation time: 0 hr 1 min 57 sec) 
Heartbeat CPU  0 instructions:   42000000 cycles:  202842978 heartbeat IPC: 0.09453 cumulative IPC: 0.16452 (Simulation time: 0 hr 2 min 1 sec) 
Heartbeat CPU  0 instructions:   43000000 cycles:  208753008 heartbeat IPC: 0.16920 cumulative IPC: 0.16466 (Simulation time: 0 hr 2 min 5 sec) 
Heartbeat CPU  0 instructions:   44000000 cycles:  214417965 heartbeat IPC: 0.17652 cumulative IPC: 0.16498 (Simulation time: 0 hr 2 min 8 sec) 
Heartbeat CPU  0 instructions:   45000002 cycles:  220226544 heartbeat IPC: 0.17216 cumulative IPC: 0.16518 (Simulation time: 0 hr 2 min 11 sec) 
Heartbeat CPU  0 instructions:   46000002 cycles:  226167942 heartbeat IPC: 0.16831 cumulative IPC: 0.16527 (Simulation time: 0 hr 2 min 14 sec) 
Heartbeat CPU  0 instructions:   47000000 cycles:  232041401 heartbeat IPC: 0.17026 cumulative IPC: 0.16540 (Simulation time: 0 hr 2 min 18 sec) 
Heartbeat CPU  0 instructions:   48000000 cycles:  237855026 heartbeat IPC: 0.17201 cumulative IPC: 0.16556 (Simulation time: 0 hr 2 min 21 sec) 
Heartbeat CPU  0 instructions:   49000002 cycles:  244123139 heartbeat IPC: 0.15954 cumulative IPC: 0.16540 (Simulation time: 0 hr 2 min 24 sec) 
Heartbeat CPU  0 instructions:   50000000 cycles:  249905825 heartbeat IPC: 0.17293 cumulative IPC: 0.16558 (Simulation time: 0 hr 2 min 27 sec) 
Heartbeat CPU  0 instructions:   51000000 cycles:  255505408 heartbeat IPC: 0.17858 cumulative IPC: 0.16588 (Simulation time: 0 hr 2 min 31 sec) 
Heartbeat CPU  0 instructions:   52000000 cycles:  260958517 heartbeat IPC: 0.18338 cumulative IPC: 0.16626 (Simulation time: 0 hr 2 min 34 sec) 
Heartbeat CPU  0 instructions:   53000000 cycles:  266560932 heartbeat IPC: 0.17849 cumulative IPC: 0.16652 (Simulation time: 0 hr 2 min 37 sec) 
Heartbeat CPU  0 instructions:   54000002 cycles:  272450387 heartbeat IPC: 0.16980 cumulative IPC: 0.16660 (Simulation time: 0 hr 2 min 40 sec) 
Heartbeat CPU  0 instructions:   55000000 cycles:  278375728 heartbeat IPC: 0.16877 cumulative IPC: 0.16664 (Simulation time: 0 hr 2 min 43 sec) 
Heartbeat CPU  0 instructions:   56000000 cycles:  284722677 heartbeat IPC: 0.15756 cumulative IPC: 0.16643 (Simulation time: 0 hr 2 min 47 sec) 
Heartbeat CPU  0 instructions:   57000000 cycles:  290676656 heartbeat IPC: 0.16795 cumulative IPC: 0.16647 (Simulation time: 0 hr 2 min 50 sec) 
Heartbeat CPU  0 instructions:   58000001 cycles:  296291776 heartbeat IPC: 0.17809 cumulative IPC: 0.16669 (Simulation time: 0 hr 2 min 53 sec) 
Heartbeat CPU  0 instructions:   59000001 cycles:  301899185 heartbeat IPC: 0.17834 cumulative IPC: 0.16692 (Simulation time: 0 hr 2 min 56 sec) 
Heartbeat CPU  0 instructions:   60000000 cycles:  307504827 heartbeat IPC: 0.17839 cumulative IPC: 0.16713 (Simulation time: 0 hr 2 min 59 sec) 
Finished CPU 0 instructions: 50000001 cycles: 299166988 cumulative IPC: 0.16713 (Simulation time: 0 hr 2 min 59 sec) 

ChampSim completed all CPUs

[ROI Statistics]
Core_0_instructions 50000001
Core_0_cycles 299166988
Core_0_IPC 0.16713

Core_0_branch_prediction_accuracy 96.78395
Core_0_branch_MPKI 9.50096
Core_0_average_ROB_occupancy_at_mispredict 74.14873

Core_0_L1D_total_access 11465936
Core_0_L1D_total_hit 3822836
Core_0_L1D_total_miss 7643100
Core_0_L1D_loads 10518633
Core_0_L1D_load_hit 2892978
Core_0_L1D_load_miss 7625655
Core_0_L1D_RFOs 947303
Core_0_L1D_RFO_hit 929858
Core_0_L1D_RFO_miss 17445
Core_0_L1D_prefetches 0
Core_0_L1D_prefetch_hit 0
Core_0_L1D_prefetch_miss 0
Core_0_L1D_writebacks 0
Core_0_L1D_writeback_hit 0
Core_0_L1D_writeback_miss 0
Core_0_L1D_prefetch_requested 0
Core_0_L1D_prefetch_dropped 0
Core_0_L1D_prefetch_issued 0
Core_0_L1D_prefetch_filled 0
Core_0_L1D_prefetch_useful 0
Core_0_L1D_prefetch_useless 0
Core_0_L1D_prefetch_late 0
Core_0_L1D_average_miss_latency 77.28230

Core_0_L1D_rq_access 17855452
Core_0_L1D_rq_forward 0
Core_0_L1D_rq_merged 7082528
Core_0_L1D_rq_to_cache 10768477
Core_0_L1D_rq_full 0

Core_0_L1D_wq_access 1026019
Core_0_L1D_wq_forward 4447
Core_0_L1D_wq_merged 31060
Core_0_L1D_wq_to_cache 994959
Core_0_L1D_wq_full 0

Core_0_L1D_pq_access 0
Core_0_L1D_pq_forward 0
Core_0_L1D_pq_merged 0
Core_0_L1D_pq_to_cache 0
Core_0_L1D_pq_full 0

Core_0_L1D_acc_epochs 294813
Core_0_L1D_acc_level_0 294813
Core_0_L1D_acc_level_1 0
Core_0_L1D_acc_level_2 0
Core_0_L1D_acc_level_3 0
Core_0_L1D_acc_level_4 0
Core_0_L1D_acc_level_5 0
Core_0_L1D_acc_level_6 0
Core_0_L1D_acc_level_7 0
Core_0_L1D_acc_level_8 0
Core_0_L1D_acc_level_9 0

Core_0_L1I_total_access 9121398
Core_0_L1I_total_hit 9121398
Core_0_L1I_total_miss 0
Core_0_L1I_loads 9121398
Core_0_L1I_load_hit 9121398
Core_0_L1I_load_miss 0
Core_0_L1I_RFOs 0
Core_0_L1I_RFO_hit 0
Core_0_L1I_RFO_miss 0
Core_0_L1I_prefetches 0
Core_0_L1I_prefetch_hit 0
Core_0_L1I_prefetch_miss 0
Core_0_L1I_writebacks 0
Core_0_L1I_writeback_hit 0
Core_0_L1I_writeback_miss 0
Core_0_L1I_prefetch_requested 0
Core_0_L1I_prefetch_dropped 0
Core_0_L1I_prefetch_issued 0
Core_0_L1I_prefetch_filled 0
Core_0_L1I_prefetch_useful 0
Core_0_L1I_prefetch_useless 0
Core_0_L1I_prefetch_late 0
Core_0_L1I_average_miss_latency -nan

Core_0_L1I_rq_access 50000178
Core_0_L1I_rq_forward 0
Core_0_L1I_rq_merged 40878780
Core_0_L1I_rq_to_cache 9121398
Core_0_L1I_rq_full 0

Core_0_L1I_wq_access 0
Core_0_L1I_wq_forward 0
Core_0_L1I_wq_merged 0
Core_0_L1I_wq_to_cache 0
Core_0_L1I_wq_full 0

Core_0_L1I_pq_access 0
Core_0_L1I_pq_forward 0
Core_0_L1I_pq_merged 0
Core_0_L1I_pq_to_cache 0
Core_0_L1I_pq_full 0

Core_0_L1I_acc_epochs 294813
Core_0_L1I_acc_level_0 294813
Core_0_L1I_acc_level_1 0
Core_0_L1I_acc_level_2 0
Core_0_L1I_acc_level_3 0
Core_0_L1I_acc_level_4 0
Core_0_L1I_acc_level_5 0
Core_0_L1I_acc_level_6 0
Core_0_L1I_acc_level_7 0
Core_0_L1I_acc_level_8 0
Core_0_L1I_acc_level_9 0

Core_0_L2C_total_access 10667521
Core_0_L2C_total_hit 2662970
Core_0_L2C_total_miss 8004551
Core_0_L2C_loads 7625636
Core_0_L2C_load_hit 2509799
Core_0_L2C_load_miss 5115837
Core_0_L2C_RFOs 17445
Core_0_L2C_RFO_hit 541
Core_0_L2C_RFO_miss 16904
Core_0_L2C_prefetches 2872264
Core_0_L2C_prefetch_hit 457
Core_0_L2C_prefetch_miss 2871807
Core_0_L2C_writebacks 152176
Core_0_L2C_writeback_hit 152173
Core_0_L2C_writeback_miss 3
Core_0_L2C_prefetch_requested 7562491
Core_0_L2C_prefetch_dropped 0
Core_0_L2C_prefetch_issued 7562491
Core_0_L2C_prefetch_filled 3376451
Core_0_L2C_prefetch_useful 2473734
Core_0_L2C_prefetch_useless 902391
Core_0_L2C_prefetch_late 175791
Core_0_L2C_average_miss_latency 82.30782

Core_0_L2C_rq_access 7643100
Core_0_L2C_rq_forward 0
Core_0_L2C_rq_merged 0
Core_0_L2C_rq_to_cache 7643081
Core_0_L2C_rq_full 0

Core_0_L2C_wq_access 152176
Core_0_L2C_wq_forward 19
Core_0_L2C_wq_merged 0
Core_0_L2C_wq_to_cache 152176
Core_0_L2C_wq_full 0

Core_0_L2C_pq_access 7562491
Core_0_L2C_pq_forward 0
Core_0_L2C_pq_merged 85065
Core_0_L2C_pq_to_cache 7477426
Core_0_L2C_pq_full 0

Core_0_L2C_acc_epochs 294813
Core_0_L2C_acc_level_0 47595
Core_0_L2C_acc_level_1 3068
Core_0_L2C_acc_level_2 2430
Core_0_L2C_acc_level_3 2420
Core_0_L2C_acc_level_4 4975
Core_0_L2C_acc_level_5 18367
Core_0_L2C_acc_level_6 48915
Core_0_L2C_acc_level_7 67204
Core_0_L2C_acc_level_8 48628
Core_0_L2C_acc_level_9 51211

Core_0_LLC_total_access 11164043
Core_0_LLC_total_hit 7063159
Core_0_LLC_total_miss 4100884
Core_0_LLC_loads 4940572
Core_0_LLC_load_hit 3631538
Core_0_LLC_load_miss 1309034
Core_0_LLC_RFOs 16904
Core_0_LLC_RFO_hit 14323
Core_0_LLC_RFO_miss 2581
Core_0_LLC_prefetches 6060906
Core_0_LLC_prefetch_hit 3274365
Core_0_LLC_prefetch_miss 2786541
Core_0_LLC_writebacks 145661
Core_0_LLC_writeback_hit 142933
Core_0_LLC_writeback_miss 2728
Core_0_LLC_prefetch_requested 0
Core_0_LLC_prefetch_dropped 0
Core_0_LLC_prefetch_issued 0
Core_0_LLC_prefetch_filled 3422250
Core_0_LLC_prefetch_useful 552726
Core_0_LLC_prefetch_useless 2853448
Core_0_LLC_prefetch_late 5036
Core_0_LLC_average_miss_latency 197.68670

Core_0_LLC_rq_access 4957478
Core_0_LLC_rq_forward 0
Core_0_LLC_rq_merged 0
Core_0_LLC_rq_to_cache 4957476
Core_0_LLC_rq_full 0

Core_0_LLC_wq_access 145661
Core_0_LLC_wq_forward 3
Core_0_LLC_wq_merged 0
Core_0_LLC_wq_to_cache 145661
Core_0_LLC_wq_full 0

Core_0_LLC_pq_access 7289890
Core_0_LLC_pq_forward 0
Core_0_LLC_pq_merged 6809
Core_0_LLC_pq_to_cache 7283080
Core_0_LLC_pq_full 0

Core_0_LLC_acc_epochs 300298
Core_0_LLC_acc_level_0 223599
Core_0_LLC_acc_level_1 25115
Core_0_LLC_acc_level_2 11837
Core_0_LLC_acc_level_3 5697
Core_0_LLC_acc_level_4 3307
Core_0_LLC_acc_level_5 4516
Core_0_LLC_acc_level_6 2282
Core_0_LLC_acc_level_7 2749
Core_0_LLC_acc_level_8 3408
Core_0_LLC_acc_level_9 17788

Core_0_major_page_fault 0
Core_0_minor_page_fault 52264

[MLOP] History of tracked zone:
IIIIIIIIIIIIIIIIIIIIIIIIIIIIIIIIIIIIIIIIIIIIIIIIIIIIIIIIIIIIIIII
IIIIIIIIIIIIIIIIIIIIIIIIIIIIIIIIAIIIIIIIIIIIIIIIIIIIIIIIIIIIIIII
IIIIIIIIIIIIIIIIIIIIIIIIIIIIIIIAAIIIIIIIIIIIIIIIIIIIIIIIIIIIIIII
IIIIIIIIIIIIIIIIIIIIIIIIIIIIIIAAAIIIIIIIIIIIIIIIIIIIIIIIIIIIIIII
IIIIIIIIIIIIIIIIIIIIIIIIIIIIIIAAAIIIIIIIAIIIIIIIIIIIIIIIIIIIIIII
IIIIIIIIIIIIIIIIIIIIIIIIIIIIIIAAAIIIIIIIAIIIIIIIIIIIIIIA4I444444
IIIIIIIIIIIIIIIIIIIIIIIIIIIIIIAAAIIIIIIIAIIIIIIIIIIIIIIA4I44444A
IIIIIIIIIIIIIIIIIIIIIIIIIIIIIIAAAIIIIIIIAIIIIIIIIIIIIIIA4IA4444A
IIIIIIIIIIIIIIIIIIIAII4I444IIIAAAIIIIIIIAIIIIIIIIIIIIIIA4IA4444A
IIIIIIIIIIIIIIIIIIIAIA4I444IIIAAAIIIIIIIAIIIIIIIIIIIIIIA4IA4444A
IIIIIIIIIIIIIIIIIAIA4A44444I44AAA44IIIIIAIIIIIIIIIIIIIIA4IA4444A
IIIIIIAIIIIIIIIIIAIA4A44444I44AAA44IIIIIAIIIIIIIIIIIIIIA4IA4444A
IIIIIIAIIIIIIIIIIAIA4A44444A44AAA44IIIIIAIIIIIIIIIIIIIIA4IA4444A
IIIIIIAIIIIIIIIIIAIA4A44444A44AAA44IIIIIAII4I44444I4444A44A4444A
IIIIIIAIIIIIIIIIIAIA4A44444A44AAA44IIIIIAIA4I44444I4444A44A4444A
IIIIIIAIIIIIIIIIIAIA4A44444A44AAA44IIIIIAIA4I44444I4444AA4A4444A
IIIIIIAIIAII4I44IA4A4A44444A44AAA44IIIIIAIA4I44444I4444AA4A4444A
IAII4IA44A4444444A4A4A44444A44AAA44IIIIIAIA4I44444I4444AA4A4444A
IAIIAIA44A4444444A4A4A44444A44AAA44IIIIIAIA4I44444I4444AA4A4444A
IAIIAIA44A4444444A4A4A44A44A44AAA44II444A4A4I44444I4444AA4A4444A
IAIIAIA44A4444444A4A4A44A44A44AAA44II444A4A4I4444444444AA4A4444A
IAIIAIA44A4444444A4A4A44A44A44AAA44II444A4A4I44A4444444AA4A4444A
IAIIAIA44A444444AA4A4A44A44A44AAA44II444A4A4I44A4444444AA4A4444A
IAIIAIA44A444444AA4A4A44A44A44AAA4444444A4A4I44A4444444AA4A4444A
IAIIAIA44A444444AA4A4A44A44A44AAA4444444A4A4I44AA444444AA4A4444A
IAIIAIA44A444444AA4A4A44A44A44AAA44A4444A4A4444AA444444AA4A4444A
IAIAAIA44A444444AA4A4A44A44A44AAA44A4444A4A4444AA444444AA4A4444A
IAIAAIA44A444444AA4A4A44A44A44AAA44A4444A4A4444AA444444AA4A4A44A
IAIAAIA44A444444AA4A4A44AA4A44AAA44A4444A4A4444AA444444AA4A4A44A
IAIAAIA44A444444AA4A4A44AA4A44AAA44A4444A4A44A4AA444444AA4A4A44A
IAIAAIA4AA444444AA4A4A44AA4A44AAA44A4444A4A44A4AA444444AA4A4A44A
IAIAAIA4AA4444A4AA4A4A44AA4A44AAA44A4444A4A44A4AA444444AA4A4A44A
IAIAA4A4AA4444A4AA4A4A44AA4A44AAA44A4444A4A44A4AA444444AA4A4A44A
AA4AA4A4AA4444A4AA4A4A44AA4A44AAA44A4444A4A44A4AA444444AA4A4A44A
AA4AA4A4AA4444A4AA4A4A44AA4A44AAA44A4444A4A44A4AA444A44AA4A4A44A
AA4AA4A4AA4444A4AA4A4A44AA4A44AAA44A4444A4A44A4AA4A4A44AA4A4A44A
AA4AA4A4AA4444A4AA4A4A44AA4A44AAA44A4444A4A44A4AA4A4I44AA4A4A44A
AA4AA4A4AA4444A4AA4A4A44AA4A44AAA44A4444A4A44A4AA4I4I44AA4A4A44A
AA4AA4A4AA4444A4AA4A4A44AA4A44AAA4AA4444A4A44A4AA444I44AA4A4A44A
AA4AA4A4AA4444A4AA4A4A44AA4A44AAA4AA444AA4A44A4AA444444AA4A4A44A
AA4AA4A4AA444AA4AA4A4A44AA4A44AAA4AA444AA4A44A4AA444444AA4A4A44A
AA4AA4A4AA444AA4AA4A4A44AA4A44AAA4AA444AA4A44A4AA4A4444AA4A4A44A
AA2AA2A4AA444AA4AA4A4A44AA4A44AAA4AA444AA4A44A4AA4A4444AA4A4A44A
AA2AA2A4AA444AA4AA4A4A44AA4A44AAA4AA444IA4A44A4AA4A4444AA4A4A44A
AA2AA2A4AA444AA4AA2A4A44AA4A44AAA4AA444IA4A44A4AA4A4444AA4A4A44A
AA2AA2A4AA444AA4AA2A4A44AA4A44AAA4AA444IA4A44I4AA4A4444AA4A4A44A
AA2AA2A4AA444AA4AA2A4A44AA4A44AAA4AA444IA4AA4I4AA4A4444AA4A4A44A
AA2AA2A4AA444AA4AA2A4A44AA4A44AAA4AA444IA4AA4I4AA4A4444AA4A4AA4A
AA2AA2A4AA444AA4AA2A4A44AA4A44AAA4AA4A4IA4AA444AA4A4444AA4A4AA4A
AA2AA2A4AA444AA4AA2A4A44AA4A44AAA4AA4A4IA4AA442AA4A4444AA4A4AA4A
AA2AA2A4AA444AA4AA2A4A44AA4A44AAA4AA4A4AA4AA442AA4A4444AA4A4AA4A
AA2AA2A4AA444AA4AA2A4A44AA4A44AAA4AA4A4AA4AA442AA4A4444AA4A4AI4A
AA2AA2A4AA444AA4AA2A4A44AA4A44AAA4AA4A4AA4AA442AA4A4444AA4A4AI4I
AA2AA2A4AA444AA4AA2A4A44AA4A44AAA4AA4A4AA4AA442AA4A4444AA4A4A444
AA2AA2A4AA444AA4AA2A4A44AA4A44AAA4AA4A4IA4AA442AA4A4444AA4A4A444
AA2AA2A4AA444AI4AA2A4A44AA4A44AAA4AA4A4IA4AA442AA4A4444AA4A4A444
AA2AA2A4AA444AA4AA2A4A44AA4A44AAA4AA4A4IA4AA442AA4A4444AA4A4A444
AA2AA2A4AA444AA4AA2A4A44AA4A44AAA4AA4A44A4AA442AA4A4444AA4A4A444
AA2AA2A4AA444AA4AA2A4A44AA4A44AAA4AA4A44A4AA4A2AA4A4444AA4A4A444
AA2AA2A4AA444AA4AI2A4A44AA4A44AAA4AA4A44A4AA4A2AA4A4444AA4A4A444
AA2AA2A4AA444AA4AA2A2A44AA4A44AAA4AA4A44A4AA4A2AA4A4444AA4A4A444
AA2AA2A4AA444IA4AA2A2A44AA4A44AAA4AA4A44A4AA4A2AA4A4444AA4A4A444
AA2AA2A4AA444IA4AA2A2A44AA4A44AAA4AA4A44A4AA4I2AA4A4444AA4A4A444
AA2AA2A4AA444IA4AA2A2A44AA4A44AAA4AA4A44A4AA4I2AA4A4444AA4A4A44A
AA2AA2A4AA444IA4AA2A2A44AA4A44AAA2AA4A44A4AA442AA4A4444AA4A4A44A
AA2AA2A4AA4444A4AA2A2A44AA4A44AAA2AA4A44A4AA442AA4A4444AA4A4A44A
AA2AA2A4AA4444A4AI2A2A44AA4A44AAA2AA4A44A4AA442AA4A4444AA4A4A44A
AA2AA2A4AA4444A4AI2A2A44AA4A44AAA2AA4A24A4AA442AA4A4444AA4A4A44A
AA2AA2A4AA4444A4AI2A2A44AA4A44IAA2AA4A24A4AA442AA4A4444AA4A4A44A
AA2AA2A2AA4444A4A42A2A44AA4A44IAA2AA4A24A4AA442AA4A4444AA4A4A44A
AA2AA2A2AA4444A4A42A2A44AA4A444AA2AA4A24A4AA442AA4A4444AA4A4A44A
AA2AA2A2AA4444A4A42A2A44AA4A444AA2AA4A2AA4AA442AA4A4444AA4A4A44A
AA2AA2A2AA4444A4A42A2A44AAAA444AA2AA4A2AA4AA442AA4A4444AA4A4A44A
AA2AA2A2AA4444A4A42A2A44AAAA44AAA2AA4A2AA4AA442AA4A4444AA4A4A44A
AA2AA2A2AA4444A4A42A2A44AAAA44AAA2AA4A2AA4AA442AA4A2424AA4A4A44A
AA2AA2A2AA4444A4A42A2AA4AAAA44AAA2AA4A2AA4AA442AA4A2424AA4A4A44A
AA2AA2A2AA4444A4A42A2AA4AAAA44AAA2AA4A2AI4AA442AA4A2424AA4A4A44A
AA2AA2A2AA4444A4A42A2AA4AAAA44AAA2AA4A2II4AA442AA4A2424AA4A4A44A
AA2AA2A2AA4444A4A42A2AA4AAIA44AAA2AA4A2II4AA442AA4A2424AA4A4A44A
AA2AA2A2AA4444A4A42A2AA4AAIA44IAA2AA4A2II4AA442AA4A2424AA4A4A44A
AA2AA2A2AA4444A4A42A2AA4AAIA44IAA2AA4A2II4AA442AI4A2424AA4A4A44A
AA2AA2A2AA4444A4A42A2AA4AAIA44IAA2AA4A2II4AI442AI4A2424AA4A4A44A
AA2AA2A2AA444AA2A42A2AA4AA4A44IAA2AA4A2II4AI442AI4A2424AA4A4A44A
AA2AA2A2AA444AA2A42A2AA4AA4A44IAA2AA4A2I44A4442A44A2424AA4A4A44A
AA2IA2A2AA444AA2A42A2AA4AA4A44IAA2AA4A2I44A4442A44A2424AA4A4A44A
AA2IA2A2AA444AA2A42A2AA4AA4A44IAA2AA4A2444A4442A44A2424AA4A4A44A
AA2IA2A2AA444AA2A42A2AA4AA4A44IAA2AA4A2244A4442A44A2424AA4A4A44A
AA2IA2A2AA444AA2A42A2IA4AA4A44IAA2AA4A2244A4442A44A2424AA4A4A44A
AA2IA2A2AA444AA2A42A2IA4AA4A44IAA2AA4A22A4A4442A44A2424AA4A4A44A
AA2IA2A2AA444AA2AA2A2IA4AA4A444AA2AA4A22A4A4442A44A2424AA4A4A44A
AA2IA2A2AA444AA2AA2A2AA4AA4A444AA2AA4A22A4A4442A44A2424AA4A4A44A
AA2IA2A2AA444AA2AA2A2AA4AAAA444AA2AA4A22A4A4442A44A2424AA4A4A44A
AA24A2A2AA444AA2AA2A2AA4AAAA444AA2AA4A22A4A4442A44A2424AA4A4A44A
AA2AA2A2AA444AA2AA2A2AA4AAAA444AA2AA4A22A4A4442A44A2424AA4A4A44A
AA2AA2A2AA444AA2AA2A2AA4AAAA444AA2AA4A22A4AA442A44A2424AA4A4A44A
AA2AA2A2AA444AA2AA2A2AA4AAAA444AA2AA4A22A4AA422A44A2424AA4A4A44A
AA2AA2I2AA444AA2AA2A2AA4AAAA444AA2AA4A22A4AA422A44A2424AA4A4A44A
AA2IA2I2AA444AA2AA2A2AA4AAAA444AA2AA4A22A4AA422A44A2424AA4A4A44A
AA2IA2I2AA444AA2AA2A2AA4AAAA444AA2AA4A22A4AA4I2A44A2424AA4A4A44A
AA2IA2I2AA4A4AA2AA2A2AA4AAAA444AA2AA4A22A4AA4I2A44A2424AA4A4A44A
AA2IA2I2AA4A4AA2AI2A2AA4AAAA444AA2AA4A22A4AA4I2A44A2424AA4A4A44A
AA2IA2I2AA4A4AA2AI2A2AA4AAAA444AA2AA4A22A4AA442A44A2424AA4A4A44A
AA2IA2I2AA4A4AA2AI2A2AA4AAAA424AA2AA4A22A4AA442A44A2424AA4A4A44A
AA22A2I2AA4A4AA2AI2A2AA4AAAA424AA2AA4A22A4AA442A44A2424AA4A4A44A
AA22A2I2AA4A4AA2AI2A2AA4AAAA424AA2AA4A22A4AA422A44A2424AA4A4A44A
AA22A2I2AA4A4AA2A42A2AA4AAAA424AA2AA4A22A4AA422A44A2424AA4A4A44A
AA22A2I2AA4A4AA2A42A2AA4AAAA4A4AA2AA4A22A4AA422A44A2424AA4A4A44A
AA22A242AA4A4AA2A42A2AA4AAAA4A4AA2AA4A22A4AA422A44A2424AA4A4A44A
AA22A242AA4A4AA2A42A2AA4AAAA4AAAA2AA4A22A4AA422A44A2424AA4A4A44A
AA22A242AA4A4AA2A42A2AA4AAAA4AAAA2AA4A22I4AA422A44A2424AA4A4A44A
AA22A242AA4A4AA2A42A2AA4AAAA4AIAA2AA4A22I4AA422A44A2424AA4A4A44A
AA22A242AA4A4AA2A42A2AA4AAAA4AIAA2AA4A2224AA422A44A2424AA4A4A44A
AA22A242AI4A4AA2A42A2AA4AAAA4AIAA2AA4A2224AA422A44A2424AA4A4A44A
AA22A242AI4A4AA2A42A2AA4AAAA4AIAA2AA4A2224AA422A44A2424AA4A4A44I
AA22A242AI4A4AA2A42A2AA4AAAA4AIAA2AA4A22I4AA422A44A2424AA4A4A44I
AA22A242AI4I4AA2A42A2AA4AAAA4AIAA2AA4A22I4AA422A44A2424AA4A4A44I
AA22A242AI4I4AA2A42A2AA4AAAI4AIAA2AA4A22I4AA422A44A2424AA4A4A44I
AA22A242AI4I4AA2A42A2AA4AAAI4AIAA2AA4A22I4AA422A44I2424AA4A4A44I
AA2AA242AI424AA2A42A2AA4AAAI4AIAA2AA4A22I4AA422A44I2424AA4A4A44I
AA2AA242AI424AA2A42A2AA4AAA44AIAA2AA4A22I4AA422A44I2424AA4A4A44I
AA2AA242AI4I4AA2A42A2AA4AAA44AIAA2AA4A22I4AA422A44I2424AA4A4A44I
AA2AA242AI4I4AA2A42A2AA4AAA44A4AA2AA4A22I4AA422A44I2424AA4A4A44I
AA2AA242AI4I4AI2A42A2AA4AAA44A4AA2AA4A22I4AA422A44I2424AA4A4A44I
AA2AA242AI4I4AI2A42A2AA4AAA44A4AA2AA4A22A4AA422A4442424AA4A4A44I
AA2AA242AI4I4AI2A42A2AA4AAA44A4AA2AA4A22A4AA422A4442424AA4A4A444
AA2AA242AI4I4AI2A42A2AA4AAA44A4AA2AA4A22A4AA422A4442424AA4A4A44A
AA2AA242AI4I4AA2A42A2AA4AAA44A4AA2AA4A22A4AA422A4442424AA4A4A44A
AA2AA242AA4I4AA2A42A2AA4AAA44A4AA2AA4A22A4AA422A4442424AA4A4A44A
AA2AA242AA4I4AA2A42A2AA4AAAA4A4AA2AA4A22A4AA422A4442424AA4A4A44A
AA2AA242AA4I4AA2A42A2AA4AAAA4A4AA2AA4A22A4AA422AA442424AA4A4A44A
AA2AA242AA4I4AA2I42A2AA4AAAA4A4AA2AA4A22A4AA422AA442424AA4A4A44A
AA2AA242AA4I4AA2I42A2AA4AAAI4A4AA2AA4A22A4AA422AA442424AA4A4A44A
AA2AA242AA4I4AA2242A2AA4AAAI4A4AA2AA4A22A4AA422AA442424AA4A4A44A
AA2AA242AA4I4AA2242A2AA4AAA24A4AA2AA4A22A4AA422AA442424AA4A4A44A
AA2AA242AA4I4AA2I42A2AA4AAA24A4AA2AA4A22A4AA422AA442424AA4A4A44A
AA2AA242AA4I4AA2IA2A2AA4AAA24A4AA2AA4A22A4AA422AA442424AA4A4A44A
AA2AA242AA4I4AA2II2A2AA4AAA24A4AA2AA4A22A4AA422AA442424AA4A4A44A
AA2AA242AA4I4AA2II2A2AA4AAAI4A4AA2AA4A22A4AA422AA442424AA4A4A44A
AA2AA242AA4I4AA2II2A2AA4AAA44A4AA2AA4A22A4AA422AA442424AA4A4A44A
AA2AA242AA4I4AA2II2A2AA4AAA44A4AA2AA4A22A4AA222AA442424AA4A4A44A
AA2AA242AA4I4AA2I42A2AA4AAA44A4AA2AA4A22A4AA222AA442424AA4A4A44A
AA2AA2A2AA444AA2I42A2AA4AAA44A4AA2AA4A22A4AA222AA442424AA4A4A44A
AA2AA2A2AA4A4AA2442A2AA4AAA44A4AA2AA4A22A4AA222AA442424AA4A4A44A
AA2AA2A2AA4A4AA2442A2AA4AAA44A4AA2AA4A22A4AA222AA4A2424AA4A4A44A
AA2AA2A2AA4A4AA2442A2AA4AAA44A4AA2AA4A22A4AA222AA4A24A4AA4A4A44A
AA2AA2A2AA4A4AA2A42A2AA4AAA44A4AA2AA4A22A4AA222AA4A24A4AA4A4A44A
AA2AA2A2AA4A4AA2A42A2AA4AAA44A4AA2AA4A22A4AA222AA4A22A4AA4A4A44A
AA2AA2A2AA4A4AA2A42A2AA4AAA24A4AA2AA4A22A4AA222AA4A22A4AA4A4A44A
AA2AA2A2AA4A4AA2A42A2AA4AAA24A4AA2AA4A22A4AA222AA4A2IA4AA4A4A44A
AA2AA2A2AA4A4AA2A42A2AA4AAA24A4AA2AA4A22A4AA222AA4I2IA4AA4A4A44A
AA2AA2A2AA4A4AA2I42A2AA4AAA24A4AA2AA4A22A4AA222AA4I2IA4AA4A4A44A
AA2AA2A2AA4A4AA2I42I2AA4AAA24A4AA2AA4A22A4AA222AA4I2IA4AA4A4A44A
AA2AA2A2AA4A4AA2I42I2AA4AAA24A4AA2AA4A22A4AA222AA4424A4AA4A4A44A
AA2AA2A2AA4A4AA2242I2AA4AAA24A4AA2AA4A22A4AA222AA4424A4AA4A4A44A
AA2AA2A2AA4A4AA2242I2AA4AAAI4A4AA2AA4A22A4AA222AA4424A4AA4A4A44A
AA2AA2A2AA4A4AA2242I2AA4AAAI4A4AA2AA4A22A4AA222AA4424A4AA4A4AA4A
AA2AA2A2AA4A4AA2242I2AA4AAAI4A4AA2AA4A22A4AA222AA4424A4AA4A2AA4A
AA2AA2A2AA4A4AA2242I2AA4AAAI4A4AA2IA4A22A4AA222AA4424A4AA4A2AA4A
AA2AA2A2AA4A4AA2I42I2AA4AAAI4A4AA2IA4A22A4AA222AA4424A4AA4A2AA4A
AA2AA2A2AA4A4AA2I4242AA4AAAI4A4AA2IA4A22A4AA222AA4424A4AA4A2AA4A
AA2AA2A2AA4A2AA2I4242AA4AAA44A4AA2IA4A22A4AA222AA4424A4AA4A2AA4A
AA2AA2A2AA4A2AA2I4242AA4AAA44A4AA2IA4A22A4AA222AA4424A4AA4AIAA4A
AA2AA2A2AA4A2AA2I4242AA4AAA44A4AA2IA4A22A4AA222AA4424A4AA4A4AA4A
AA2AA2A2AA4A2AA2I4242AA4AAAA4A4AA2IA4A22A4AA222AA4424A4AA4A4AA4A
AA2AA2A2AA4A2AA2A4242AA4AAAA4A4AA24A4A22A4AA222AA4424A4AA4A4AA4A
AA2AA2A2AA4A2AA2I4242AA4AAAA4A4AA24A4A22A4AA222AA4424A4AA4A4AA4A
AA2AA2A2AA4A2AA244242AA4AAAA4A4AA24A4A22A4AA222AA4424A4AA4A4AA4A
AA2AA2A2AA4A2AA244242AA4AAAA4A4AA24A4A22A4AA222AA4A24A4AA4A4AA4A
AA2AA2A2AA4A2AA244242AA4AAAA4A4AA24A4A22A4AA222AA4A24A4AI4A4AA4A
AA2AA2A2AA4A2AA244242AA4AAAA4A4AA24A4A22A4AA222AA4A24A4A44A4AA4A
AA2AA2A2AA4A2AA244242AA4AAAA4A4AA24A4A22A4AA222AA4I24A4A44A4AA4A
AA2AA2A2AA4A2AA224242AA4AAAA4A4AA24A4A22A4AA222AA4I24A4A44A4AA4A
AA2AA2A2AA4A2AA224242AA4AAAA4A4AA24A4A22I4AA222AA4I24A4A44A4AA4A
AA2AA2A2AA4A2AA224242AA4AAAA4A4AA24A4A22I4AA222AA4424A4A44A4AA4A
AA2AA2A2AA4A2AA222222AA4AAAA4A4AA24A4A22I4AA222AA4424A4A44A4AA4A
AA2AA2A2AA4A2AA222222AA4AAAA4A4AA24A4A22A4AA222AA4424A4A44A4AA4A
AA2AA2A2AA4A2AA222222AA4AAAA4A4AA24A4A22A4AA222AA4A24A4A44A4AA4A
AA2AA2A2AA4A2AA2222A2AA4AAAA4A4AA24A4A22A4AA222AA4A24A4A44A4AA4A
AA2AA2A2AA4A2AA2222A2AA4AAAA4A4AA24A4A22A4AA222AA4I24A4A44A4AA4A
AA2AA2A2AA4A2AA2222A2AA4AAAA4A4AA24A4A22A4AA222AA4I24A4A44A4AA4I
AA2AA2A2AA4A2AA2222A2AA4AAAA4A4AA24I4A22A4AA222AA4I24A4A44A4AA4I
AA2AA2A2AA4A2AA2222A2AA4AAAA4A4AA24I4A22A4AA222AA4224A4A44A4AA44
AA2AA2A2AA4A2IA2222A2AA4AAAA4A4AA24I4A22A4AA222AA4224A4A44A4AA44
AA2AA2A2AA4A2IA2222I2AA4AAAA4A4AA24I4A22A4AA222AA4224A4A44A4AA44
AA2AA2A2AA4A2IA2222I2AA4AAAA4A4AA24I4A22A4AA222AA422AA4A42A4AA44
AA2AA2A2AA4A2IA22A242AA4AAAA4A4AA2444A22A4AA222AA422AA4A42A4AA44
AA2AA2A2AA4A2IA22A242AA4AAAA4A4AA2444A22A4AA222AA422AA4A42A4AA4A
AA2AA2A2AA4A2IA22I242AA4AAAA4A4AA2444A22A4AA222AA422AA4A42A4AA4A
AA2AA2A2AA4A2IA224242AA4AAAA4A4AA2444A22A4AA222AA422AA4A42A4AA4A
AA2AA2A2AA4A2IA2A4242AA4AAAA4A4AA2444A22A4AA222AA422AA4A42A4AA4A
AA2AA2A2AA4A24A2A4242AA4AAAA4A4AA2444A22A4AA222AA422AA4A42A4AA4A
AA2AA2A2AA4A24A2A4242AA4AAAA4A4AA2444A22A4AA222AA422AA4AA2A2AA4A
AA2AA2I2AA4A24A2A4242AA4AAAA4A4AA2444A22A4AA222AA422AA4AA2A2AA4A
AA2AA2I2AA4A24A2A4242AA4AAAA4A4AA2444A22A4AA222AA422AA4AA2AIAA4A
AA2AA2I2AA4A24A2A4242AA4AAAA4A4AA2A44A22A4AA222AA422AA4AA2AIAA4A
AA2AA2I2AA4A24A2A4242AA4AAAA4A4AA2A44A22A4AA222AA422AA4AI2AIAA4A
AA2AA2I2AA4A24A2A4242AA4AAAA4A4AA2AA4A22A4AA222AA422AA4AI2AIAA4A
AA2AA2I2AA4A24A2A4242AA4AAAA4A4AA2AA4A22A4AA222AA422AA4A42AIAA4A
AA2AA2I2AA4A24A2AA222AA4AAAA4A4AA2AA4A22A4AA222AA422AA4A42AIAA4A
AA2AA2I2AA4A24A2AA222AA4AAAA4A4AA2IA4A22A4AA222AA422AA4A42AIAA4A
AA2AA2I2AA4A24A2AI222AA4AAAA4A4AA2IA4A22A4AA222AA422AA4A42AIAA4A
AA2AA2I2AA4A24A2AI222AA4AAAA4A4AA2IA4A22A4AA222AA422AA4I42AIAA4A
AA2AA2I2AA4A24A2AI222AA2AAAA4A4AA24A4A22A4AA222AA422AA4I42AIAA4A
AA2AA2I2AA4A24A2A2222AA2AAAA4A4AA24A4A22A4AA222AA422AA4I42AIAA4A
AA2AA2I2AA4A24A2A2222AA2AAAA4A4AA24A4A22A4AA222AA422AA4IA2AIAA4A
AA2AA2I2AA4A24A2A2222AA2AAAA4A4AA24A4A22A4AA222AA4A2AA44A2AIAA4A
AA2AA2I2AA4A24A2AA222AA2AAAA4A4AA24A4A22A4AA222AA4A2AA44A2AIAA4A
AA2AA2I2AA4A24A2AA222AA2AAAA4A4AA24A4A22A4AA222AA4I2AA44A2AIAA4A
AA2AA2I2AA4A24A2AA222AA2AAAI4A4AA24A4A22A4AA222AA4I2AA44A2AIAA4A
AA2AA2I2AA4A24A2AA222AA2AAAI4A4AA24A4A22I4AA222AA4I2AA44A2AIAA4A
AA2AA2I2AA4A24A2AA2A2AA2AAA44A4AA24A4A22I4AA222AA4I2AA44A2AIAA4A
AA2AA2I2AA4A2AA2AA2A2AA2AAA44A4AA24A4A22I4AA222AA4I2AA44A2AIAA4A
AA2AA222AA4A2AA2AA2A2AA2AAA44A4AA24A4A22I4AA222AA4I2AA44A2AIAA4A
AA2AA222AA4A2AA2AA2A2AA2AAA44A4AA24I4A22I4AA222AA4I2AA44A2AIAA4A
AA2AA222AA4A2AA2AA2A2AA2AAA44A4AA24I4A22A4AA222AA442AA44A2AIAA4A
AA2AA222AA4A2AA2AA2I2AA2AAA44A4AA24I4A22A4AA222AA442AA44A2AIAA4A
AA2IA222AA4A2AA2AA2I2AA2AAA44A4AA24I4A22A4AA222AA442AA44A2AIAA4A
AA2IA222AA4A2AA2AA2I2AA2AAA44A4AA24I4A22I4AA222AA442AA44A2AIAA4A
AA2IA222AA4A2AA2AA2I2AA2AAA44A4AA2AI2A22I4AA222AA442AA44A2AIAA4A
AA2IA222AA4A2AA2AA2I2AA2AAA44A4AA2AI2A22I4AA222AA442AA44A2A4AA4A
AA2IA222AA4A2AA2AA2I2AA2AAA44A4AA2AI2A22I4AA222AA442AA4AA2A4AA4A
AA2IA222AA4A2AA2AA2I2AA2AAA44A4AA2A42A22I4AA222AA442AA4AA2A4AA4A
AA2IA222AA4A2AA2AA2I2AA2AAAA4A4AA2A42A2244AA222AA442AA4AA2A4AA4A
AA2IA222AA4A2AA2AA242AA2AAAA4A4AA2A42A2244AA222AA442AA4AA2A4AA4A
AA2IA2A2AA4A2AA2AA242AA2AAAA4A4AA2A42A2244AA222AA442AA4AA2A4AA4A
AA24A2A2AA4A2AA2AA242AA2AAAA4A4AA2A42A2244AA222AA442AA4AA2A4AA4A
AA24A2A2AA4A2AA2AA2A2AA2AAAA4A4AA2A42A2244AA222AA442AA4AA2A4AA4A
AA24A2A2AA4A2AA2AA2A2AA2AAAA4A4AA2A42A2244AA222AA422AA4AA2A4AA4A
AA24A2A2AA4A2AA2AA2A2AA2AAAA4A4AA2A42A22A4AA222AA422AA4AA2A4AA4A
AA24A2A2AA4A2AA2AA2A2AA2AAAA4A4AA2A42A22A4AA222AA4I2AA4AA2A4AA4A
AA24A2A2AA4A2AA2AA2I2AA2AAAA4A4AA2A42A22A4AA222AA4I2AA4AA2A4AA4A
AA24A2A2AA4A2AA2AA222AA2AAAA4A4AA2A42A22A4AA222AA4I2AA4AA2A4AA4A
AA24A2A2AA4A2AA2AA222AA2AAAA4A4AA2AA2A22A4AA222AA442AA4AA2A4AA4A
AA24A2A2AA4A2AA2AA2A2AA2AAAA4A4AA2AA2A22A4AA222AA442AA4AA2A4AA4A
AA24A2A2AA4A2AA2AI2A2AA2AAAA4A4AA2AA2A22A4AA222AA442AA4AA2A4AA4A
AA2AA2A2AA4A2AA2AI2A2AA2AAAA4A4AA2AA2A22A4AA222AA442AA4AA2A4AA4A
AA2AA2A2AA4A2AA2AI2A2AA2AAAA4A4AA2AA2A22A4AA222AA442AA4IA2A4AA4A
AA2AA2A2AA4A2IA2AI2A2AA2AAAA4A4AA2AA2A22A4AA222AA442AA4IA2A4AA4A
AA2IA2A2AA4A2IA2AI2A2AA2AAAA4A4AA2AA2A22A4AA222AA442AA4IA2A4AA4A
AA2IA2A2AA4A2IA2AA2A2AA2AAAA4A4AA2AA2A22A4AA222AA442AA4IA2A4AA4A
AA2IA2A2AA4A2IA2AA2A2AA2AAAA4A2AA2AA2A22A4AA222AA442AA4IA2A4AA4A
AA2IA2A2AA4A2IA2AA2A2AA2AAAA4A2AA2AA2A22A4AA222AA442AA4AA2A4AA4A
AA2IA2A2AA4A24A2AA2A2AA2AAAA4A2AA2AA2A22A4AA222AA442AA4AA2A4AA4A
AA2IA2A2AA4A24A2AA2A2AA2AAAA4A2AA2AA2A22A4AA222AA442AA4AA2A2AA4A
AA2IA2A2AA4A2AA2AA2A2AA2AAAA4A2AA2AA2A22A4AA222AA442AA4AA2A2AA4A
AA2IA2A2AA4A2AA2AA2A2AA2AAAA4A2AA2AA2A22I4AA222AA442AA4AA2A2AA4A
AA2IA2A2AA4A2AA2AA2I2AA2AAAA4A2AA2AA2A22I4AA222AA442AA4AA2A2AA4A
AA2IA2A2AA4A2AA2AA2I2AA2AAAA4A2AA2IA2A22I4AA222AA442AA4AA2A2AA4A
AA2IA2A2AA4A2AA2AA2I2AA2AAAA4A2AA2IA2A22I4AA222AA4A2AA4AA2A2AA4A
AA2IA2A2AA4A2AA2AA242AA2AAAA4A2AA2IA2A22I4AA222AA4A2AA4AA2A2AA4A
AA2IA2A2AA4A2AA2AA2A2AA2AAAA4A2AA24A2A22I4AA222AA4A2AA4AA2A2AA4A
AA2IA2A2AA4A2AA2AA2A2AA2AAAA4A2AA24A2A22A4AA222AA4A2AA4AA2A2AA4A
AA2IA2A2AA4A2AA2AA2I2AA2AAAA4A2AA24A2A22A4AA222AA4A2AA4AA2A2AA4A
AA2AA2A2AA4A2AA2AA242AA2AAAA4A2AA24A2A22A4AA222AA4A2AA4AA2A2AA4A
AA2AA2A2AA4A2AA2AA242AA2AAAA4A2AA24A2A22I4AA222AA4A2AA4AA2A2AA4A
AA2AA2A2AA4A2AA2AA222AA2AAAA4A2AA24A2A22I4AA222AA4A2AA4AA2A2AA4A
AA2AA2A2AA4A2AA2AA222AA2AAAA4A2AA24A2A22I4AA222AA4A2AA4IA2A2AA4A
AA2AA2A2AA4A2AA2AA222AA2AAAA4A2AA24A2A22I4AA222AA4A2AA4IA2A2IA4A
AA2AA2A2AA4A2AA2AA222AA2AAAA4A2AA24A2A22I4AA222AA4A2AA42A2A24A4A
AA2AA2A2AA4A2AA2AA222AA2AAAA4A2AA22A2A2244AA222AA4A2AA42A2A24A4A
AA2AA2A2AA4A2AA2AA222AA2AAAA4A2AA22A2A22A4AA222AA4A2AA42A2A24A4A
AA2AA2A2AA4A2AA2AA222AA2AAAA4A2AA22A2A22A4AA222AA4A2AA4AA2A24A4A
AA2AA2A2AA4A2AA2AA222AA2AAAA4A2AA2AA2A22A4AA222AA4A2AA4AA2A24A4A
AA2AA2A2AA4A2AA2IA222AA2AAAA4A2AA2AA2A22A4AA222AA4A2AA4AA2A24A4A
AA2AA2A2AA4A2AA2IA222AA2AAAA4I2AA2AA2A22A4AA222AA4A2AA4AA2A24A4A
AA2AA2A2AA4A2AA2IA222AA2AAAA4I2AA2AA2A22I4AA222AA4A2AA4AA2A24A4A
AA2AA2A2AA4A2AA2IA222AA2AAAA4I2AA2AA2A22I4AI222AA4A2AA4AA2A24A4A
AA2AA2A2AA4A2AA24A222AA2AAAA4I2AA2AA2A22I4AI222AA4A2AA4AA2A24A4A
AA2AA2A2AA4A2AA24A222AA2AAAA4I2AA2IA2A22I4AI222AA4A2AA4AA2A24A4A
AA2AA2A2AA4A2AA24A222AA2AAAA4I2AA2IA2A22I4AA222AA2A2AA4AA2A24A4A
AA2AA2A2AA4A2AA22A222AA2AAAA442AA2IA2A22I4AA222AA2A2AA4AA2A24A4A
AA2AA2A2AA4A2AA22A222AA2AAAA442AA2IA2A22I4AA222AAIA2AA4AA2A24A4A
AA2AA2A2AA4A2AA22A222AA2AAAA442AA2IA2A22I4AI222AAIA2AA4AA2A24A4A
AA2AA2A2AA4A2AA22A222AA2AAAA442AA2IA2A2224A4222AA4A2AA4AA2A24A4A
AA2AA2A2AA4A2AA22A222AA2AAAA442AA2IA2A22A4A4222AA4A2AA4AA2A24A4A
AA2AA2A2AA4A2AA22I222AA2AAAA442AA2IA2A22A4A4222AA4A2AA4AA2A24A4A
AA2AA2A2AA4A2AA22I222AA2AAAA442AA2IA2A22A4A4222AA4A2AA4AA2A24I4A
AA2AA2A2AA4A2AA22I222AA2AAAA442AA2IA2A22A4A4222AA4A2AA4AA2A2AI4A
AA2AA2A2AA4A2AA22A222AA2AAAA442AA2IA2A22A4A4222AA4A2AA4AA2A2AI4A
AA2AA2A2AA4A2AA22A222AA2AAAA442AA2IA2A22A4A4222AA4A2AA4IA2A2AI4A
AA2AA2A2AA4A2AA22A222AA2AAAA442AA2IA2A22A4AA222AA4A2AA4IA2A2A44A
AA2AA2A2AA4A2AA22I222AA2AAAA442AA2IA2A22A4AA222AA4A2AA4IA2A2A44A
AA2AA2A2AA4A2AA22I222AA2AAAA442AA2IA2A22A4AA222AA4A2AA4IA2A2A44I
AA2AA2A2AA4A2AA22I222AA2AAAA442AA24A2A22A4AA222AA4A2AA4IA2A2A44I
AA2AA2A2AA4A2AA22I222AA2AAAA4A2AA22A2A22A4AA222AA4A2AA4IA2A2A44I
AA2AA2A2AA4A2AA22I222AA2AAAI4A2AA22A2A22A4AA222AA4A2AA4IA2A2A44I
AA2AA2A2AA4A2AA224222AA2AAAI4A2AA22A2A22A4AA222AA4A2AA4IA2A2A44I
AA2AA2A2AA4A2AA224222AA2AAAI4A2AA22A2A22A4AA222AA4A2AA4AA2A2A444
AA2AA2A2AA4A2AA224222IA2AAAI4A2AA22A2A22A4AA222AA4A2AA4AA2A2A444
AA2AI2A2AA4A2AA224222IA2AAAI4A2AA22A2A22A4AA222AA4A2AA4AA2A2A444
AA2AI2A2AA4A2AA2242A2IA2AAA44A2AA22A2A22A4AA222AA4A2AA4AA2A2A444
AA2AI2A2AA4A2AA2242A2IA2AAA44A2AA22A2A22A4AA222AA4A2AA4AA2A2AA44
AA2AI2A2AA4A2AA2242A2AA2AAA44A2AA22A2A22A4AA222AA4A2AA4AA2A2AA44
AA2AI2A2AA4A2AA2242A2AA2AAA44A2AA22A2A22A4AA222AA4A2AA4AA2A2AA42
AA2AI2A2AA4A2AA2242A2AA2AAA44A2AA22A2A22A4AA222AA4A2AA4AA2A2IA42
AA2AI2A2AA4A2AA2242A2AA2AAA44A2AA22A2A22A4AA222AA4A2AA4AA2A24A42
AA2AI2A2AA4A2AA2242A2AA2AAA44A2AA22A2A22A4AA222AA4A2AA4AA2A24A4A
AA2AI2A2AA4A2AA2A42A2AA2AAA44A2AA22A2A22A4AA222AA4A2AA4AA2A24A4A
AA2AI2A2AA4A2AA2A42A2AA2AAA24A2AA22A2A22A4AA222AA4A2AA4AA2A24A4A
AA2AI2A2AA4A2AA2A42A2AA2AAA24A2AA22A2A22A4AA222AA4A2AA4IA2A24A4A
AA2AI2A2AA4A2AA2A42A2AA2AAA24A2AA22A2A22A4AA222AA4I2AA4IA2A24A4A
AA2AI2A2AA4A2AA2A42A2AA2AAA24A2AA22A2A22A4AA222AA4A2AA44A2A24A4A
AA2AI2A2AA4A2AA2A42I2AA2AAA24A2AA22A2A22A4AA222AA4A2AA44A2A24A4A
AA2AI2A2AA4A2AA2A42I2AA2AAA24A2AA22A2A22A4AA222AA4A2AA42A2A24A4A
AA2AI2A2AA4A2AA2A42A2AA2AAA24A2AA22A2A22A4AA222AA4A2AA42A2A24A4A
AA2AI2A2AA4A2AA2A42A2AA2AAAI4A2AA22A2A22A4AA222AA4A2AA42A2A24A4A
AA2AI2A2AA4A2AA2A42A2AA2AAAI4A2AA22A2A22A4AA222AA4A2AA4AA2A24A4A
AA2AI2A2AA4A2AA2A42A2AA2AAAA4A2AA22A2A22A4AA222AA4A2AA4AA2A24A4A
AA2AI2A2AA4A2AA2A22A2AA2AAAA4A2AA22A2A22A4AA222AA4A2AA4AA2A24A4A
AA2AI2A2AA4A2AA2I22A2AA2AAAA4A2AA22A2A22A4AA222AA4A2AA4AA2A24A4A
AA2AI2A2AA4A2AI2I22A2AA2AAAA4A2AA22A2A22A4AA222AA4A2AA4AA2A24A4A
AA2AI2A2AA4A2AI2II2A2AA2AAAA4A2AA22A2A22A4AA222AA4A2AA4AA2A24A4A
AA2AI2A2AA4A2AI2II2A2AA2AAAA4A2AA22A2A22I4AA222AA4A2AA4AA2A24A4A
AA2AA2A2AA4A2AI2I42A2AA2AAAA4A2AA22A2A22I4AA222AA4A2AA4AA2A24A4A
AA2AA2A2AA4A2AA2I42A2AA2AAAA4A2AA22A2A22I4AA222AA4A2AA4AA2A24A4A
AA2AA2A2AA4A2AA2I42A2IA2AAAA4A2AA22A2A22I4AA222AA4A2AA4AA2A24A4A
AA2AA2A2AA4A2AA2I42A2IA2AAAA4A2AA22A2A22I4IA222AA4A2AA4AA2A24A4A
AA2AA2A2AA4A2AA2I42A2IA2AAAA4A2AA22A2A22I4IA222AA4I2AA4AA2A24A4A
AA2AA2A2AA4A2AA2I42A2IA2AAAA4A2AA22A2A22I4AA222AA442AA4AA2A24A4A
AA2AA2A2AA4A2AA2442A2IA2AAAA4A2AA22A2A22I4AA222AA442AA4AA2A24A4A
AA2AA2A2AA4A2AA2442A24A2AAAA4A2AA22A2A22I4AA222AA442AA4AA2A24A4A
AA2AA2A2AA4A2AA2442A24A2AAAA4A2AA22A2A22A4AA222AA442AA4AA2A24A4A
AA2AA2A2AA4A2AA24A2A24A2AAAA4A2AA22A2A22A4AA222AA442AA4AA2A24A4A
AA2AA2A2AA4A2AA24I2A24A2AAAA4A2AA22A2A22A4AA222AA442AA4AA2A24A4A
AA2AA2A2AA4A2AA22I2A22A2AAAA4A2AA22A2A22A4AA222AA442AA4AA2A24A4A
AA2AA2A2AA4A2AA22I2A2IA2AAAA4A2AA22A2A22A4AA222AA442AA4AA2A24A4A
AA2AA2A2AA4A2AA2II2A2IA2AAAA4A2AA22A2A22A4AA222AA442AA4AA2A24A4A
AA2AA2A2AA4A2AA2II2A24A2AAAA4A2AA22A2A22A4AA222AA442AA4AA2A24A4A
AA2AA2A2AA4A2AA2II2I24A2AAAA4A2AA22A2A22A4AA222AA442AA4AA2A24A4A
AA2AA2A2AA4A2AA2II2I24A2AAAA4A2AA22I2A22A4AA222AA442AA4AA2A24A4A
AA2AA2A2AA4A2AA2II2I24A2AAAA4A2AA22I2A22A4AI222AA442AA4AA2A24A4A
AA2AA2A2AA4A2AA24I2424A2AAAA4A2AA22I2A22A4AI222AA442AA4AA2A24A4A
AA2AA2A2AA4A2AA24I2424A2AAAA4A2AA2242A22A4A4222AA442AA4AA2A24A4A
AA2AA2A2AA4A2AA2AI2424A2AAAA4A2AA2242A22A4A4222AA442AA4AA2A24A4A
AA2AA2A2AA4A2AA2A42424A2AAAA4A2AA2242A22A4A4222AA442AA4AA2A24A4A
AA2AA2A2AA4A2AA2A42424A2AAAA4A2AA2A42A22A4A4222AA442AA4AA2A24A4A
AA2AA2A2AA4A2AA2A42424A2AAAA4A2AA2A42A22A4I4222AA442AA4AA2A24A4A
AA2AA2A2AA4A2AA2A42424A2AAAA4A2AA2I42A22A4I4222AA442AA4AA2A24A4A
AA2AA2A2AA4A2AA2A42424A2AAAA4A2AA2I42A22A4I4222AA442AA4IA2A24A4A
AA2AA2A2AA4A2AA2A4242AA2AAAA4A2AA2442A22A4I4222AA442AA4IA2A24A4A
AA2AA2A2AA4A2AA2A2222AA2AAAA4A2AA2442A22A4I4222AA442AA4IA2A24A4A
AA2AA2A2AA4A2AA2A2222AA2AAAA4A2AA24A2A22A4I4222AA442AA4IA2A24A4A
AA2AA2A2AA4A2AI2A2222AA2AAAA4A2AA24A2A22A4I4222AA442AA4IA2A24A4A
AA2AA2A2AA4A2AI2A2222AA2AAAA4A2AA24A2A22I4I4222AA442AA4IA2A24A4A
AA2AI2A2AA4A2AI2A2222AA2AAAA4A2AA24A2A22I4I4222AA442AA4IA2A24A4A
AA2AI2A2AA4A2AI2A2222IA2AAAA4A2AA24A2A22I4I4222AA442AA4IA2A24A4A
AA2AI2A2AA4A2AI2A2222IA2AAAA4A2AA24A2A22A4I4222AA442AA4IA2A24A4A
AA2II2A2AA4A2AI2A2222IA2AAAA4A2AA24A2A22A4I4222AA442AA4IA2A24A4A
AA2II2A2AA4A2AI2A22A22A2AAAA4A2AA24A2A22A4I4222AA442AA4IA2A24A4A
AA2II2A2AA4A2AI2A22A22A2AAAA4A2AA24A2A22A4I4222AA4A2AA42A2A24A4A
AA2AI2A2AA4A2AI2A22A22A2AAAA4A2AA24A2A22A4I4222AA4A2AA42A2A24A4A
AA2AI2A2AA4A2AI2A22A2AA2AAAA4A2AA24A2A22A4I4222AA4A2AA42A2A24A4A
AA2AI2A2AA4A2AI2A22A2AA2AAAA4A2AA24A2A22I4I4222AA4A2AA42A2A24A4A
AA2AI2A2AA4A2AI2A22A2IA2AAAA4A2AA24A2A22I4I4222AA4A2AA42A2A24A4A
AA2II2A2AA4A2AI2A22A2IA2AAAA4A2AA24A2A22I4I4222AA4A2AA42A2A24A4A
AA2II2A2AA4A2AI2A22A2IA2AAAA4A2AA24A2A22A4I2222AA4A2AA42A2A24A4A
AA2II2A2AA4A2AI2A22A22A2AAAA4A2AA24A2A22A4I2222AA4A2AA42A2A24A4A
AA2II2A2AA4A2A42A22A22A2AAAA4A2AA24A2A22A4I2222AA4A2AA42A2A24A4A
AA2II2A2AA4A2A42A22A22A2AAAA4A2AA24A2A22A4IA222AA4A2AA42A2A24A4A
AA22I2A2AA4A2A42A22A22A2AAAA4A2AA24A2A22A4IA222AA4A2AA42A2A24A4A
AA22I2I2AA4A2A42A22A22A2AAAA4A2AA24A2A22A4IA222AA4A2AA42A2A24A4A
AA22I2I2AA4A2A42A22A22A2AAAA4A2AAA4A2A22A4IA222AA4A2AA42A2A24A4A
AA22I2I2AA4A2A42A22A22A2AAAA4AAAAA4A2A22A4IA222AA4A2AA42A2A24A4A
AA22I2I2AAAA2A42A22A22A2AAAA4AAAAA4A2A22A4IA222AA4A2AA42A2A24A4A
AA22I2I2AAAA2A42A22A22A2AAAA4AAAAA4A2A22A4IA2A2AA4A2AA42A2A24A4A
AA22I2I2AAAA2A42A22A22A2AAAA4AAAAA4A2A22A4IA2AAAA4A2AA42A2A24A4A
AA22I2I2AAAA2A42A22A22A2AAAAAAAAAA4A2A22A4IA2AAAA4A2AA42A2A24A4A
AA22I2I2AAAA2A42A22A22A2AAAAAAAAAA4A2A22A44A2AAAA4A2AA42A2A24A4A
AA22I2I2AAAA2A42A22A22A2AAAAAAAAAA4AAA22A44A2AAAA4A2AA42A2A24A4A
AA22I2I2AAAA2A42A22A22A2AAAAAAAAAAAAAA22A44A2AAAA4A2AA42A2A24A4A
AAA24242AAAA2A42A22A22A2AAAAAAAAAAAAAA22A44A2AAAA4A2AA42A2A24A4A
AAA24242AAAA2A42A22A22A2AAAAAAAAAAAAAA22A4AA2AAAA4A2AA42A2A24A4A
AAAA2242AAAA2A42A22A22A2AAAAAAAAAAAAAA22A4AA2AAAA4A2AA42A2A24A4A
AAAA22A2AAAA2A42A22A22A2AAAAAAAAAAAAAA22A4AA2AAAA4A2AA42A2A24A4A
AAAA22AAAAAA2A42A22A22A2AAAAAAAAAAAAAA22A4AA2AAAA4A2AA42A2A24A4A
AAAA22AAAAAA2AA2A22A22A2AAAAAAAAAAAAAA22A4AA2AAAA4A2AA42A2A24A4A
AAAA22AAAAAA2AAAA22A22A2AAAAAAAAAAAAAA22A4AA2AAAA4A2AA42A2A24A4A
AAAA22AAAAAA2AAAA22A22A2AAAAAAAAAAAAAA22A4AAAAAAA4A2AA42A2A24A4A
AAAA22AAAAAA2AAAA22A2AA2AAAAAAAAAAAAAA22A4AAAAAAA4A2AA42A2A24A4A
AAAA22AAAAAA2AAAA22A2AA2AAAAAAAAAAAAAA22A4AAAAAAA4A2AA42A2A24A2A
AAAA22AAAAAA2AAAA22A2AA2AAAAAAAAAAAAAA22A4AAAAAAA4A2AA42A2A24AAA
AAAA22AAAAAA2AAAA22A2AA2AAAAAAAAAAAAAA22A4AAAAAAA4A2AA42A2AA4AAA
AAAA22AAAAAA2AAAA22AAAA2AAAAAAAAAAAAAA22A4AAAAAAA4A2AA42A2AA4AAA
AAAA22AAAAAA2AAAAA2AAAA2AAAAAAAAAAAAAA22A4AAAAAAA4A2AA42A2AA4AAA
AAAA22AAAAAA2AAAAAAAAAA2AAAAAAAAAAAAAA22A4AAAAAAA4A2AA42A2AA4AAA
AAAA22AAAAAA2AAAAAAAAAA2AAAAAAAAAAAAAA22A4AAAAAAA4A2AA4AA2AA4AAA
AAAA22AAAAAA2AAAAAAAAAA2AAAAAAAAAAAAAA22A2AAAAAAA4A2AA4AA2AA4AAA
AAAA22AAAAAA2AAAAAAAAAA2AAAAAAAAAAAAAA22AAAAAAAAA4A2AA4AA2AA4AAA
AAAAA2AAAAAA2AAAAAAAAAA2AAAAAAAAAAAAAA22AAAAAAAAA4A2AA4AA2AA4AAA
AAAAAAAAAAAA2AAAAAAAAAA2AAAAAAAAAAAAAA22AAAAAAAAA4A2AA4AA2AA4AAA
AAAAAAAAAAAA2AAAAAAAAAA2AAAAAAAAAAAAAA22AAAAAAAAA4A2AA4AA2AAAAAA
AAAAAAAAAAAA2AAAAAAAAAAAAAAAAAAAAAAAAA22AAAAAAAAA4A2AA4AA2AAAAAA
AAAAAAAAAAAA2AAAAAAAAAAAAAAAAAAAAAAAAA22AAAAAAAAA4A2AA4AAAAAAAAA
AAAAAAAAAAAA2AAAAAAAAAAAAAAAAAAAAAAAAA22AAAAAAAAA2A2AA4AAAAAAAAA
AAAAAAAAAAAA2AAAAAAAAAAAAAAAAAAAAAAAAA22AAAAAAAAAAA2AA4AAAAAAAAA
AAAAAAAAAAAA2AAAAAAAAAAAAAAAAAAAAAAAAA22AAAAAAAAAAA2AA2AAAAAAAAA
AAAAAAAAAAAA2AAAAAAAAAAAAAAAAAAAAAAAAA22AAAAAAAAAAA2AAAAAAAAAAAA
AAAAAAAAAAAA2AAAAAAAAAAAAAAAAAAAAAAAAA2AAAAAAAAAAAA2AAAAAAAAAAAA
AAAAIAAAAAAA2AAAAAAAAAAAAAAAAAAAAAAAAA2AAAAAAAAAAAA2AAAAAAAAAAAA
AAAAIAAAAAAA2AAAAAAAAAAAAAAAAAAAAAAAAA2AAAAAAAAAAAA2AAAAAAAAAAIA
AAAAIIAAAAAA2AAAAAAAAAAAAAAAAAAAAAAAAA2AAAAAAAAAAAA2AAAAAAAAAAIA
AAAAIIAAAAAI2AAAAAAAAAAAAAAAAAAAAAAAAA2AAAAAAAAAAAA2AAAAAAAAAAIA
AAAAIIAAAAAI2AAAAAAAAAAAAAAAAAAAAAAAAA2AAAAAAAAAAAA2IAAAAAAAAAIA
AAAAIIAAAAAI2AAAAAAAAAAAAAAAAAAAAAAAAA2AAAAAAAAAIAA2IAAAAAAAAAIA
AAAAIIAAAAAI2AAAAAAAAAAAAAIAAAAAAAAAAA2AAAAAAAAAIAA2IAAAAAAAAAIA
AAAAIIAAAAAI2AAAAAAAAAAAAAIAAAAAAAAAIA2AAAAAAAAAIAA2IAAAAAAAAAIA
AAAAIIAAAAAI2AAAAAAAAAAAAAIAAAAAAAAAIA2AAAAAAAAAIAA2IAIAAAAAAAIA
AAAAIIAAAAAI2AAAAAAAAAAAAAIAAAAAAAAAIA2AAAAAAAAAIAA2IAIAAIAAAAIA
AAAAIIAAAAAI2AAAAAAAAAAAAAIAAAAAAAAAIA2AAAAAAAAAIAA2IAIAAIAAAAII
AAAAIIAAAAAI2AAAAAAAAAAIAAIAAAAAAAAAIA2AAAAAAAAAIAA2IAIAAIAAAAII
AAAAIIAAAAAI2AAAAAAAAAA2AAIAAAAAAAAAIA2AAAAAAAAAIAA2IAIAAIAAAAII
AAAAAIAAAAAI2AAAAAAAAAA2AAIAAAAAAAAAIA2AAAAAAAAAIAA2IAIAAIAAAAII
AAAAAIAAAAAI2AAAAAAAAAA2AAIAAAAAAAAAIA2AAAAAAAAA2AA2IAIAA4AAAAII
AAAAAIAAAAAI2AAAAAAAAAA2AAIAAAAAAAAAIA2AAAAAAAAA2AA2IAIAA4AAAAIA
AAAAAIAAAAAI2AAAAAAAAAA2AAIAAAAAAAAAIA2AAAAAAAAA2AA2IAIAA2AAAA2A
AAAAAIAAAAAI2AAAAAAAAAAIAAIAAAAAAAAAIA2AAAAAAAAA2AA2IAIAA2AAAA2A
AAAAAIAAAAAI2AAAAAAAAAAIAAIAAAAAAAAAIA2AAAIAAAAA2AA2IAIAA2AAAA2A
AAAAAIAAAAAI2AAAAAAAAAAIAAIAAAAAAAAAIA2AAAIAAAAAAAA2IA2AA2AAAA2A
AAAAAIAAAAAI2AAAAAAAAAA2AA4AAAAAAAAAIA2AAAIAAAAAAAA2IA2AA2AAAA2A
AAAAAIAAAAAI2AAAAAAAAAA2AA4AAAAAAAAAIA2AAAIAAAAAIAA2IA2AA2AAAA2A
AAAAAIAAAAAI2AAAAAAAAAA2AA4AAAAAAAAAIA2AAAIAAAAA4AA2IA2AA2AAAA2A
AAAAAIAAAAAI2AAAAAAAAAAIAA4AAAAAAAAAIA2AAAIAAAAA4AA2IA2AA2AAAA2A
AAAAAIAAAAA22AAAAAAAAAAIAA4AAAAAAAAAIA2AAAIAAAAA4AA2IA2AA2AAAA2A
AAAAAIAAAAA22AAAAAAAAAAIAA4AAAAAAAAAIA2AAAIAAAAA4AA24A2AA2AAAA2A
AAAAAIAAAAA22AAAAIAAAAAIAA4AAAAAAAAAIA2AAAIAAAAA4AA24A2AA2AAAA2A
AAAAAIAAAAA22AAAA2AAAAA4AA4AAAAAAAAAIA2AAAIAAAAA4AA24A2AA2AAAA2A
AAAAAIAAAAA22AAAA2AAAAA4AA4AAAAAAAAAIA2AAAIAAAAA4AA24A2AI2AAAA2A
AAAAAIAAAAA22AAAA2AAAAA4AA4AAAAAAAAAIA2AAAIAAAAA4AA24A2AA2AAAA2A
AAAAAIAAAAA22AAAAIAAAAA4AA4AAAAAAAAAIA2AAAIAAAAA4AA24A2AA2AAAA2A
AAAAAIAAAAA22AAAAIAAAAA4AA4AAAAAAAAAIA2AAAIAAAAA4AA24A2AA2AAAI2A
AAAAAIAAAAA22AAAA4AAAAA4AA4AAAAAAAAAIA2AAAIAAAAA4AA24A2AA2AAAI2A
AAAAAIAAAAA22AAAA4AAAAA4AA4AAAAAAAAAIA2AAAIAAAAA4AA24A2AA2AAAI2I
AAAAA2AAAAA22AAAA4AAAAA4AA4AAAAAAAAAIA2AAAIAAAAA4AA24A2AA2AAAI2I
AAAAA2AAAAA22AAAA4AAAAA4AA4AAAAAAAAA4A2AAA4AAAAA4AA24A2AA2AAAI2I
AAAAA2AAAAA22AAAA4AAAAA4AA4AAAAAAAAA4A2AAA4AAAAA4AA24A2IA2AAAI2I
AAAAA2AAAAA22AAAA4AAAAA4AA4AAAAAAAAA4A2AIA4AAAAA4AA24A2IA2AAAI2I
AAAAA2AAAAA22AAAA2AAAAA4AA4AAAAAAAAA4A2AIA4AAAAA4AA24A2IA2AAAI2I
AAAAA2IAAAA22AAAA2AAAAA4AA4AAAAAAAAA4A2AIA4AAAAA4AA24A2IA2AAAI2I
AAAAA2IAAAA22AAAA2AAAAA4AA4AAAAAAAAA4A2A4A4AAAAA4AA24A2IA2AAAI2I
AAAAA2IAAAA22AAAA2AAAAAAAA4AAAAAAAAA4A2A4A4AAAAA4AA24A2IA2AAAI2I
AAAAA2IAAAA22AAAA2AAAAAAAA4AAAAAAAAA4A2AAA4AAAAA4AA24A2IA2AAAI2I
AAAAA2IAAAA22AAAA2AAAAAAAA4AAAAAAAAA4A2AAA4AAAAA4AA24A2AA2AAA424
AAAAA2IAAAA22AAAA2AAAAAAAA4AAAAAAAAA4A2AAA4AAAAA4AA24A2AA2AAI424
AAAAA22AAAA22AAAA2AAAAAAAA4AAAAAAAAA4A2AAA4AAAAA4AA24A2AA2AAI424
AAAAA22AAAA22AAAA2AAAAIAAA4AAAAAAAAA4A2AAA4AAAAA4AA24A2AA2AAI424
AAAAA2AAAAA22AAAA2AAAA4AAA4AAAAAAAAA4A2AAA4AAAAA4AA24A2AA2AAI424
AAAAA2AAAAA22AAAA2AAAA4AAA4AAAAAAAAA4A2AAA4AAAAA4AA24A2IA2AAI424
AAAAA2IAAAA22AAAA2AAAA4AAA4AAAAAAAAA4A2AAA4AAAAA4AA24A2IA2AAI424
AAAAA2IAAAA22AAAA2AAAI4AAA4AAAAAAAAA4A2AAA4AAAAA4AA24A2IA2AAI424
AAAAI2IAAAA22AAAA2AAAI4AAA4AAAAAAAAA4A2AAA4AAAAA4AA24A2IA2AAI424
AAAAI2IAAAA22AAAA2AAAI4AAA4AAAAAAAAA4A2AAA4AAAAA4AA24A2IA2AAI222
AAAAI2IAAAA22AAAA2AAAI4AAA4AAAAAAAAA4A2AAA4AAAAA4AA24A2IA2AAIA22
AAAAI2IAAAA22AAAA2AAAI4AAA4AAAAAAAAA4A2AAA4AAAAA4AA24A2IA2AAAA22
AAAAI2IAAAA22AAAAAAAA24AAA4AAAAAAAAA4A2AAA4AAAAA4AA24A2IA2AAAA22
AAAAI22AAAA22AAAAAAAA24AAA4AAAAAAAAA4A2AAA4AAAAA4AA24A2IA2AAAA22
AAAAI22AAAA22AAAAAAAA22AAA2AAAAAAAAA4A2AAA4AAAAA4AA24A2IA2AAAA22
AAAAI22AAAA22AAAAAAAAI2AAA2AAAAAAAAA4A2AAA4AAAAA4AA24A2IA2AAAA22
AAAAI22AAAA22AAAAAAAAI2AAA2AAAAAAAAA4A2AAA4AAAAA4AA24A2IA2AAAA2I
AAAAA22AAAA22AAAAAAAA42AAA2AAAAAAAAA4A2AAA4AAAAA4AA24A2IA2AAAA2I
AAAAA22AAAA22AAAAAAAA42AAA2AAAAAAAAA4A2AAA4AAAAA4AA24A2IA2AAAI2I
AAAAA22AAAA22AAAAAAAA42AAA2AAAAAAAAA4A2AAA4AAAAA4AA24A24A2AAAI24
AAAAA22AAAA22AAAAAAAA4IAAA2AAAAAAAAA4A2AAA4AAAAA4AA24A24A2AAAI24
AAAAA22AAAA22AAAAAAAA4IAAAIAAAAAAAAA4A2AAA4AAAAA4AA24A24A2AAAI24
AAAAA22AAAA22AAAAAAIA4IAAAIAAAAAAAAA4A2AAA4AAAAA4AA24A24A2AAAI24
AAAAA22AAAA22AAAAAAIA4IAAAIAAAAAAAAA4A2AAA4AAAAA4AA24A24A2AAA224
AAAAA22AAAA22AAAAAAIA4IAAAIAAAAAAAAA4A2AAA4AAAAI4AA24A24A2AAA224
AAAAA22AAAA22AAAAAAIA4IAAAIAAAAAAAAA4A2AAA4AAAAA4AA22A24A2AAA224
AAAIA22AAAA22AAAAAAIA4IAAAIAAAAAAAAA4A2AAA4AAAAA4AA22A24A2AAA224
AAAIA22AAAA22AAAAAAIA4IAAAIAAAAAAAAA4A2AAA4AAAAA4AA22A24A2AAAA24
AAAIA22AAAA22AAAAAAIA4IAAAIAAAAAAAAA4A2AAA4AAAAA4AA22A2AA2AAAA24
AAAIA22AAAA22AAAAAAIA4IAAAIAAAAAAAAA4A2AAA4AAAAA4AA22A2AI2AAAA24
AAAIA22AAAA22AAAAAAIA4IAAA4AAAAAAAAA4A2AAA4AAAAA4AA22A2AI2AAAA24
AAAIA22AAAA22AAAAAAIA4IAAA4AAAAAAAAA4A2AAA4AAAAI4AA22A2AI2AAAA24
AAAIA22AAAA22AAAAAAIA4IAAA4AAAAAAAAA4A2AAA4AAAAI4AA22A2AI2AAIA24
AAAIA22AAAA22AAAAIAIA4IAAA4AAAAAAAAA4A2AAA4AAAAI4AA22A2AI2AAIA24
AAAIA22AAAA22AAAAIAIA4IAAA4AAAAAAAAA4A2AAA4AAAAI4AA22A2II2AAIA24
AAA2A22AAAA22AAAA4AIA4IAAA4AAAAAAAAA4A2AAA4AAAAI4AA22A2II2AAIA24
AAA2A22AAAA22AAAA4A2A22AAA4AAAAAAAAA4A2AAA4AAAAI4AA22A2II2AAIA24
AAA2A22AAAA22AAAA4A2A22AAA4AAAAAAAAA4A2AAA4AAAAI4AA22A2II2AAII24
AAA2A22AAAA22AAAA4A2A22AAA4AAAAAAAAA4A2AAA4AAAA22AA22A2I42AA4424
AAA2A22AAAA22AAAA4AIA22AAA4AAAAAAAAA4A2AAA4AAAA22AA22A2I42AA4424
AAA2A22AAAA22AAAA4AIAI2AAA4AAAAAAAAA4A2AAA4AAAA22AA22A2I42AA4424
AAA2A22AAAA22AAAA4AIAI2AAA4AAAAAAAAA4A2AAA4IAAA22AA22A2I42AA4424
AAA2A22AAAA22AAAA4AIAI2AAA4AAAAAAAAA4A2AAA4IAAA22AA22A2I42AAA424
AAA2A22AAAA22AAAA4AIAI2AAA4AAAAAAAAA4A2AAA4IAAA22AA22A2I42AAAA24
AAA2A22AAAA22AAAA4AIAI2AAA4AAAAAAAAA4A2AAA4IAAA22AA22A2I42AAAA22
AAA2A22AAAA22AAAA4AIAI2AAA4AAAAAAAAA4A2AAA42AAA22AA22A2I42AAAA22
AAA2A22AAAA22AAAA4AIAI2AAA4AAAAAAAAA4A2AAA42AIA22AA22A2I42AAAA22
AAA2A22AAAA22AAAA4AIAI2AAA4AAAAAAAAA4A2AAA42AIA22AA22A2I42AAIA22
AAA2A22AAAA22AAAA4AIAI2AAA4AAAAAAAAA4A2AAA42AIA22AA22A2I42AIIA22
AAA2A22AAAA22AAAA4AIAI2AAA4AAAAAAAAA4A2AAA42AIA22AA22A2I42AIII22
AAA2A22AAAA22AAAA4AIAI2AAA4AAAAAAAAA4A2AAA42AIA22AA22A2I42AIIA22
AAA2A22AAAA22AAAA2A2AI2AAA4AAAAAAAAA4A2AAA42AIA22AA22A2I42AIIA22
AAA2A22AAAA22AAAA2A2AI2AAA4AAAAAAAAA4A2AIA42AIA22AA22A2I42AIIA22
AAA2A22AAAA22AAAA2A2AI2AAA4AAAAAAAAA4A2AIA4IAIA22AA22A2I42AIIA22
AAA2A22AAAA22AAAA2A2AI2AAA4AAAAAAAAA4A2AIAAIA2A22AA22A2442A4IA22
AAA2A22AAAA22AAAA2A2AI2AAA4AAAAAAAAA4A2AAAA2A2A22AA22A2442A4IA22
AAA2A22AAAA22AAAAIA2AI2AAA4AAAAAAAAA4A2AAAA2A2A22AA22A2442A4IA22
AAA2A22AAAA22AAAAIA2AI2AAA4AAAAAAAAA4A2AAAA2AIA22AA22A2442A4IA22
AAA2A22AAAA22AAAAIA2AI2AAA4AAAAAAAAA4A2AAAA2A4A22AA22A2442A4IA22
AAA2A22AAAA22AAAAIA2AI2AAA4AAAAAAAAA4A2AAAA2A4A22AA22A2442A4II22
AAA2A22AAAA22AAAAIA2AI2AAA4AAAAAAAAA4A2AAAA2A4A22AA22A2A42A42I22
AAA2A22AAAA22AAAAAA2A22AAA4AAAAAAAAA4A2AAAA2A4A22AA22A2A42A42I22
AAA2A22AAAA22AAAAAA2A22AAA4AAIAAAAAA4A2AAAA2A4A22AA22A2A42A42I22
AAA2A22AAAA22AAAAAA2A22AAA4AA4AAAAAA4A2AAAA2A4A22AA22A2A42A42I22
AAA2A22AAAA22AAAAAA2AI2AAA4AA4AAAAAA4A2AAAA2A4A22AA22A2A42A42I22
AAA2A22AAAA22AAAAAA2AI2AAA4AA4AAAAAI4A2AAAA2A4A22AA22A2A42A42I22
AAA2A22AAAA22AAAAAA2AI2AAA4AA4AAAAAI4A2AAAA2A4A22AA22A2A42A42A22
AAA2A22AAAA22AAAAAA2AI2AAA4AA4AAAAAI4A2AAAA2A4A22AA22A2A42A4AA22
AAA2A22AAAA22AAAAAA2AI2AAA4AA4AAAAAI4A2AAAA2A4A22AA22A2A42A4AA2A
AAA2A22AAAA22AAAAAA2AI2AAA4AA4AAAAAI4A2AAAA2A4A22AA22A2A42A4AAAA
AAA2A22AAAA22AAAAAA2AI2AAA4AA4AAAAA44A2AAAA2A4A22AA22A2A42A4AAAA
AAA2A22AAAA22AAAAAA2AI2AAA4AA4AAAAA44A2AAAA2A4A22AA22A2A42A4IAAA
AAA2A22AAAA22AAAAAA2AI2AAA4AA4AAAAA44I2AAAA2A4A22AA22A2A42A4IAAA
AAA2A22AAAA22AAAAAA2AI2AAA4AA4AAAAA44I2AAAA2A4A22AA22A2A42A4IIAA
AAA2A22AAAA22AAAAAA2AI2AAA4AA4AAAAA44I2AAAA2A4A22AA22A2A42A4IIIA
AAA2A2AAAAA22AAAAAA2A42AAA4AA4AAAAA44I2AAAA2A4A22AA22A2A42A4IIIA
AAA2A2AAAAA22AAAAAA2A42AAA4AA4AAAAA24I2AAAA2A4A22AA22A2A42A4IIIA
AAA2A2AAAAA22AAAAAA2A22AAA4AA4AAAAA24I2AAAA2A4A22AA22A2A42A4IIIA
AAA2A2AAAAA22AAAAAA2A22AAA4AA4AAAAA2442AAAA2A4A22AA22A2A42A4IIIA
AAA2A2AAAAA22AAAAAA2A22AAA4AA4AAAAA2422AAAA2A4A22AA22A2A42A4IIIA
AAA2A2AAAAA22AAAAAA2A22AAA4AA4AAAAA2422AAAA2A4A2AAA22A2A22A4I44A
AAA2A2AAAAA22AAAAAA2A22AAA4IA4AAAAA2422AAAA2A4A2AAA22A2A22A4I44A
AAA2A2AAAAA22AAAAAA2A22AAA4IA4AAAAA2422AAAA2A2A2AAA22A2A22A4I44A
AAA2A2AAAAA22AAAAAA2A22AAA4IA4AAAAI2422AAAA2A2A2AAA22A2A22A4I44A
AAA2A2AAAAA22AAAAAA2A22AAA4IA4AAAAI24I2AAAA2A2A2AAA22A2A22A4I44A
AAA2A2AAAAA22AAAAAA2A22AAA4IA4AAAAI24I2AAAA2A2A2AAA22A2A22A4A44A
AAA2A2AAAAA22AAAAAA2A22AAA4IA4AAAAI24I2AAAA2A2A2AAA22A2A22A4AA4A
AAA2A2AAAAA22AAAAAA2A22AAA4IA4AAAA424I2AAAA2A2A2AAA22A2A22A4AA4A
AAA2A2AAAAA22AAAAAA2A22AAA4IA4AAIA424I2AAAA2A2A2AAA22A2A22A4AA4A
AAA2A2AAAAA22AAAAAA2A22AAA4IA4AAIA424I2AAAA2A2A2AAA22A2AI2A4AA4A
AAA2A2AAAAA22AAAAAA2A22AAA4IA4AAIA424I2AAAA2A2A2AAA22A2AI2A4IA4A
AAA2A2AAAAA22AAAAAA2A22AAA4IA4AAIA424I2AAAA2A2A2AAA22A2II2A4IA4A
AAA2A2AAAAA22AAAAIA2A22AAA4IA4AAIA424I2AAAA2A2A2AAA22A2II2A4IA4A
AAA2A2AAAAA22AAAAIA2AA2AAA42A4AA4A42442AAAA2A2A2AAA22A2II2A4IA4A
AAA2A2AAAAA22AAAAIA2AA2AAA42A4AA4AA2442AAAA2A2A2AAA22A2II2A4IA4A
AAA2A2AAAAA22AAAAIA2AA2AAA42A4AA4AA2422AAAA2A2A2AAA22A2II2A4IA4A
AAA2A2AAAAA22AAAAIA2AA2AAA42A4IA4AA2422AAAA2A2A2AAA22A2II2A4IA4A
AAA2A2AAAAA22AAAAIA2AA2AAA42A4AA4AA2222AAAA2A2A2AAA22A2II2A4IA4A
AAA2A2AAAAA22AAAAIA2AA2AAA42A4AA4AA2222AAAA2A2A2AAA22A2II2A4AA4A
AAA2A2AAAAA22AAAAIA2AA2AAA42A4AA4AA2222AAAA2A2A2AAA22A2442A4AA4A
AAA2A2AAAAA22AAAAIA2AA2AAA42A4AA4AA2222AAAA2A2A2AAA22A2A42A4AA4A
AAA2A2AAAAA22AAAAIA2AA2AAA42A4AA4AA2222AAAA2A2A2AAA22A2A42A4IA4A
AAA2A2AAAAA22AAAAIA2AA2AAA42A4AA4AA2222AAAAAA2A2AAA22A2A42A4IA4A
AAA2A2AAAAA22AAAAIA2AA2AAA42A4AA4AA2I22AAAAAA2A2AAA22A2A42A4IA4A
AAA2A2AAAAA22AAAAIA2AA2AAA42A4AA4AA2I22AIAAAA2A2AAA22A2A42A4IA4A
AAAAA2AAAAA22AAAAIA2AA2AAA42A4AA4AA2I22AIAAAA2A2AAA22A2A42A4IA4A
AAAAA2AAAAA22AAAAIAAAA2AAA42A4AA4AA2422AIAAAA2A2AAA22A2A42A4IA4A
AAAAA2AAAAA22AAAAIAAAA2AAA42A4AA4AA2422AIAAAA2A2AAA22A2I42A4IA4A
AAAAA2AAAAA22AAAAIAAAA2AAAA2A4AA4AA2422AIAAAA2A2AAA22A2I42A4IA4A
AAAAA2AAAAA22AAAAIAAAA2AAAA2A4AA4AA2422AIAAAA2A2AAA22A2I42A4IA4I
AAAAA2AAAAA22AAAAIAAAA2AAAA2A2AA2AA2422AIAAAA2A2AAA22A2I42A4IA4I
AAAAA2AAAAA22AAAAIAAAA2AAAA2A2AA2AA2422AIAAAA2A2AAA22A2I42A4IA44
AAAAA2AAAAA22AAAAIAAAA2AAAA2A2AA2AA2422AIAAAA2A2AAA22A2I42A4AA44
AAAAA2AAAAA22AAAAIAAAA2AAAA2A2AA2AA2422AAAAAA2A2AAA22A2442A4AA44
AAAAA2AAAAA22AAAAIAAAA2AAAA2A2AA2AA2422AAAAAA2A2AAA22A2A42A4AA44
AAAAA2AAAAA22AAAAIAAAA2AAAI2A2AA2AA2422AAAAAA2A2AAA22A2A42A4AA44
AAAAA2AAAAA22AAAAIAAAA2AAAI2A2AA2AA2422AAAAAA2A2IAA22A2A42A4AA44
AAAAA2AAAAA22AAAAIAAAA2AAAI2A2AA2AA2422AAAAAA2A2IAA22A2I42A4AA44
AAAAA2AAAAA22AAAAIAAAA2AAAI2A2AA2AA2422AIAAAA2A2IAA22A2I42A4AA44
AAAAA2AAAAA22AAAAIAAAA2AAAI2A2AA2AA2422AIAAAA2A2IAI22A2I42A4AA44
AAAAA2AAAAA22AAAAIAAAA2AAAI2A2AA2AA2422AIAAAA2A2IAI22A2I42A4AI44
AAAAA2AAAAA22AAAAIAAAA2AAAI2A2AA2AA2422A4AAAA2A2IAI22A2I42A4AI44
AAAAA2AAAAA22AAAAIAAAA2AAAI2A2AA2AA2422A4AAAA2A2IAI22A2I42A4AA44
AAAAA2AAAAA22AAAAIAAAA2AAAI2A2AA2AA2422AAAAAA2A24AI22A2442A4AA44
AAAAA2AAAAA22AAAAIAAAA2AAAI2A2AA2AAA422AAAAAA2A24AI22A2442A4AA44
AAAAA2AAAAA22AAAAIAAAA2AAAI2A2AA2AAA422AAAAAA2A24AI22A2442A4AA4A
AAAAA2AAAAA22AAAAIAAAA2AAAI2A2AA2AAA422AAAAAA2A24AI22A2442A4IA4A
AAAAA2AAAAA22AAAAIAAAA2AAAI2A2AA2AAA422AAAAAA2A22AI22A2442A4IA4A
AAAAA2AAAAA22AAAAIAAAA2AAAI2A2AA2AAA422AAAAAA2A22AI22A2442A4II4A
AAAAA2AAAAA22AAAAIAAAA2AAAI2A2AA2AAI422AAAAAA2A22AI22A2442A4II4A
AAAAA2AAAAA22AAAAIAAAA2AAAI2A2AA2AAI422AIAAAA2A22AI22A2442A4II4A
AAAAA2AAAAA22AAAA2AAAA2AAAI2A2AA2AAI422AIAAAA2A22AI22A2442A4II4A
AAAAA2AAAAA22AAAA2AAAA2AAAI2A2AA2AAI422AIAAAA2A2IAI22A2442A4II4A
AAAAA2AAAAAA2AAAA2AAAA2AAAI2A2AA2AAI422AIAAAA2A2IAI22A2442A4II4A
AAAAA2AAAAAA2AAAAIAAAA2AAAI2A2AA2AAI422AIAAAA2A2IAI22A2442A4II4A
AAAAA2AAAAAA2AAAAIAAAA2AAAI2A2AA2AAI422AAAAAA2A24AI22A2442A4II4A
AAAAA2AAAAAA2AAAAIAAAA2AAAI2A2AA2AAI422AAAAAA2A24AI22A2442A4I24A
AAAAA2AAAAAA2AAAAIAAAA2AAAI2A2AA2AAI422AAAAAA2A24AI22A2442A4IA4A
AAAAA2AAAAAA2AAAA2AAAA2AAA42A2AA2AAI422AAAAAA2A24AI22A2442A4IA4A
AAAAA2AAAAAA2AAAA2AAAA2AAA42A2AA2AAI422AAAAAA2A24AI22A2442A4AA4A
AAAAA2AAAAAA2AAAA2AAAA2AAA42A2AA2AAI422AAAAAA2A24AI22A2A42A4AA4A
AAAAA2AAAAAI2AAAA2AAAA2AAA42A2AA2AAI422AAAAAA2A24AI22A2A42A4AA4A
AAAAA2AAAAAI2AAAA2AAAA2AAA4AA2AA2AA4422AAAAAA2A24AI22A2A42A4AA4A
AAAAA2AAAAAI2AAAA2AAAA2AAA4AA2AA2AA4422AAAAAA2A24AI22A2A42A4IA4A
AAAAA2AAAAAI2AAAA2AAAA2AAA4AA2AA2AA4422AAAAAA2A22A422A2A42A4IA4A
AAAAA2AAAAAI2AAAAIAAAA2AAA4AA2AA2AA4422AAAAAA2A22A422A2A42A4IA4A
AAAAA2AAAAAI2AAAAIAAAA2AAA4AA2AA2AA4422AIAAAA2A22A422A2A42A4IA4A
AAAAA2AAAAAI2AAAAIAAAA2AAA4AA2AA2AA4422AIAAAA2A2IA422A2A42A4IA4A
AAAAA2AAAAAI2AAAA2AAAA2AAA4AA2AA2AA4422AIAAAA2A2IA422A2A42A4IA4A
AAAAA2AAAAAI2AAAA2AAAA2AAA4IA2AA2AA4422AIAAAA2A2IA422A2A42A4IA4A
AAAAA2AAAAAI2AAAA2AAAA2AAA44A2AA2AA4422AIAAAA2A2IA422A2A42A4IA4A
AAAAA2AAAAAI2AAAA2AAAA2AAA44A2AA2AA4422AIAAAA2A2IA422A2A42A4IA4I
AAAAA2AAAAAI2AAAAIAAAA2AAA44A2AA2AA4422AIAAAA2A2IA422A2A42A4IA4I
AAAAA2AAAAAI2AAAAIAAAA2AAA44A2AA2AA4422AIAAAA2AAIA222A2A42A44A44
AAAAA2AAAAA22AAAA4AAAA2AAA44A2AA2AA4422AIAAAA2AAIA222A2A42A44A44
AAAAA2AAAAA22AAAA4AAAA2AAA44A2AA2AA4422AIAAAA2AAIA222A2A42A4AA44
AAAAA2AAAAA22AAAA4AAAA2AAA44A2AA2AA4422AAAAAA2AA4A222A2A42A4AA44
AAAAA2AAAAA22AAAA4AAAA2AAA42A2AA2AA4422AAAAAA2AA4A222A2A42A4AA44
AAAAA2AAAAA22AAAA4AAAA2AAA42A2AA2AA4422AAAAAA2AI4A222A2A42A4AA44
AAAAA2AAAAA22AAAA4AAAA2AAA42A2AA2AA4422AAAAAA2AI4A222A2A42A4IA44
AAAAA2AAAAA22AAAA4AAAA2AAA42A2AA2AA4422AAAAAA2AI4A222A2A42A4IA42
AAAAA2AAAAA22AAAA4AAAA2AAA42A2AA2AAA422AAAAAA2AI4A222A2A42A4IA42
AAAAA2AAAAA22AAAA4AAAA2AAA42A2AA2AAA422AAAAAA2AI4A222A2A42A4II42
AAAAA2AAAAA22AAAA4AAAA2AAA42A2AA2AAA422AAAAAA2AI4A222A2A42A4II4A
AAAAA2AAAAA22AAAA4AAAA2AAA4IA2AA2AAA422AAAAAA2AI4A222A2A42A4II4A
AAAAA2IAAAA22AAAA4AAAA2AAA4IA2AA2AAA422AAAAAA2AI4A222A2A42A4II4A
AAAAA2IAAAA22AAAA4AAAA2AAA4IA2AA2AAA422AAAAAAAAI2A222A2A42A4I44A
AAAAA2IAAAA22AAAA4AAAA2AAA4IA2AA2AAA422AAAAAAAAI2A222A2A42A4A44A
AAAAA2IAAAA22AAAA4AAAA2AAA4IA2AA2AAA422AAAAAAAAI2A222A2A42A4AA4A
AAAAA2IAAAA22AAAA4AAAA2AAA44A2AA2AAA422AAAAAAAAI2A222A2A42A4AA4A
AAAAA2IAAAA22AAAAAAAAA2AAA44A2AA2AAA422AAAAAAAAI2A222A2A42A4AA4A
AAAAA2IAAAA22AAAAAAAAA2AAA44A2AA2AAA422AAAAAAAAA2A222A2A42A4AA4A
AAAAA2IAAAA22AAAAAAAAA2AAA4AA2AA2AAA422AAAAAAAAA2A222A2A42A4AA4A
AAAAA2IAAAA22AAAAAAAAA2AAA4AA2AA2AAA422AAAAAAAAAIA222A2A42A4AA4A
AAAAA2IAAAA22AAAAAAAAA2AAA4AA2AA2AAA422AAAAAAAAAIA222A2A42A4AI4A
AAAAA2IAAAA22AAAAAAAAA2AAA4AA2AA2AAA422AAAAAAAAIIA222A2A42A4AI4A
AAAAA2IAAAA22AAAAAAAAA2AAA4AA2AA2AAA422AAAAAAAA4IA222A2A42A4AI4A
AAAAA2IAAAA22AAAAAAAAA2AAA4AA2AA2AAA422AAAAAAAA44A222A2A42A4AI4A
AAAAA2IAAAA22AAAAAAAAA2AAA4AA2AA2AAA422AAAAAAAA44A222A2A42A4AA4A
AAAAA2IAAAA22AAAAAAAAA2AAA4AA2AA2AAA422IAAAAAAA44A222A2A42A4AA4A
AAAAA2IAAAA22AAAAAAAAA2AAA4AA2AA2AAA422IAAAAAAA42A222A2A42A4AA4A
AAAAA2IAAAA22AAAAAAAAA2AAA4AA2AA2AAA422IAAAAAAA42A222A2A42A4IA4A
AAAAA2IAAAA22AAAAAAAAA2AAA2AA2AA2AAA422IAAAAAAA42A222A2A42A4IA4A
AAAAA2IAAAA22AAAAAAAAAAAAA2AA2AA2AAA4224AAAAAAA42A222A2A42A4IA4A
AAAAA2IAAAA22AAAAAAAAAAAAAIAA2AA2AAA4224AAAAAAA42A222A2A42A4IA4A
AAAAA2IAAAA22AAAAAAAAAAAAAIAA2AA2AAA4224AAAAAAA42AA22A2A22A4IA4A
AAAAA22AAAA22AAAAAAAAAAAAAIAA2AA2AAA4224AAAAAAA42AA22A2A22A4IA4A
AAAAA22AAAA22AAAIAAAAAAAAAIAA2AA2AAA4224AAAAAAA42AA22A2A22A4IA4A
AAAAA22AAAA22AAAIAAAAIAAAAIAA2AA2AAA4224AAAAAAA42AA22A2A22A4IA4A
AAAAA22AAAA22AAAIAAAAIAAAAIAA2AA2AAA4224AAAAAAA4IAA22A2A22A4IA4A
AAAAA22AAAA22AAAIAAAAIAAAAIAA2AA2AAA4224AAAAAAA44AA22A2A22A4IA4A
AAAAA22AAAA22AAAIAAAAIAAAAIAA2AA2AAA4224AAAAAAA44AI22A2A22A4IA4A
AAAAA22AAAA22AAAIAAAAIAAAAIAA2AA2AIA4224AAAAAAA44AI22A2A22A4IA4A
AAAAA22AAAA22AAAIAAAAIAAAAIAA2AA2AIA4224AAAAAAA4AAI22A2A22A4IA4A
AAAAA22AAAA22AAAIAAAAIAAAAIAA2AA2AIA4224AAAAAAA4AAI22A2AI2A4IA4A
AAAAA22AAAA22AAAIAAAAIAAAAIAA2AA2AIA4A24AAAAAAA4AA422A2AI2A4IA4A
AAAAA22AAAA22AAAIAAAAIAAAA4AA2AA2AIA4A24AAAAAAA4AA422A2AI2A4IA4A
AAAAA22AAAA22AAAIAAAAIAAAA4AA2AA2AIA4A24AAAAAAA4AA42AA2A22A44A4A
AAAAA22AAAA22AAA4AAAA4AAAA4AA2AA2AIA4A24AAAAAAA4AA42AA2A22A44A4A
AAAAA22AAAA22AAA4AAAA4AAAA4AA2AA2AIA4A24AAAAAAA4AA42AA2A22A4AA4A
AAAAA22AAAA22AAA4AAAA4AAAA4AA2AA2AIA4A2AAAAAAAA4AA42AA2A22A4AA4A
AAAAA22AAAA22AAA4AAAA4AAAA4AA2AA2AIA4A2AAAAAAAA4AA42AA2A22A4IA4A
AAAAA22AAAA22AAA4AAAA4AAAA4AA2AA2A4A4A2AAAAAAAA4AA42AA2A22A4IA4A
AAAAA22AAAA22AAA4AAAA4AAAA4AA2AA2A4A4A2AAAAAAAA4AA42AA2I22A4IA4A
AAAAA22AAAA22AAA4AAAA4AAAA4AA2AA2A4A4A2AAAAAAAA4AA42AA2I22A4II4A
AAAAA22AAAA22AAA4AAAA4AAAA4AA2AA2A4A4I2AAAAAAAA4AA42AA2I22A4II4A
AAAAA22AAAA22AAA4AAAA4AAAA4AA2AA2A4A4I2AAAAAAAA4AA42AA2I22A4IA4A
AAAAA22AAAA22AAA4AAAA4AAAA4AA2AA2A4A4I2AAAAAAAA4AA22AA2422A4IA4A
AAAAA22AAAA22AAA4AAIA4AAAA4AA2AA2A4A4I2AAAAAAAA4AA22AA2422A4IA4A
AAAAA22AAAA22AAA4AAIA4AAAA4AA2AA2A4A4I2IAAAAAAA4AA22AA2422A4IA4A
AAAAA22AAAA22AAA4AAIA4AAAA4AA2AA2A4A4I2IAAAAAAA4AA22AA2422A4IA4I
AAAAA22AAAA22AAA4AAIA4AAAA4AA2AA2A4A4I2IAAAAAAA4AA22AA2422A4IA4A
AAAAA22AAAA22AAA4AAIA4AAAA4AA2AA2A4A4I2IAAAAAAA4AAA2AA2422A4IA4A
AAAAA22AAAA22AAA4AAIA4AAAA4AA2AAAA4A4424AAAAAAA4AAA2AA2422A4IA4A
AAAAA22AAAA22AAA4AAIA4AAAA4AA2AAAA4A4424AAAAAAA4AAA2AA2422A4IA4I
AAAAA22AAAA22AAAAAA2A2AAAA4AA2AAAA4A4424AAAAAAA4AAA2AA2422A4IA4I
AAAAA22AAAA22AAAAAA2A2AAAA4AA2AAAA4A4424AAAAAAA4AAA2AA2422A4AA42
AAAAA22AAAA22AAAAAA2A2AAAA4AA2AAAA4A4424AAAAAAA4AAA2AA2422A4AA4A
AAAAA22AAAA22AAAAAA2A2AAAA4AA2AAAA4A4A24AAAAAAA4AAA2AA2422A4AA4A
AAAAA22AAAA22AAAAAA2A2AAAA4AA2AAAA4A4A24AAAAAAA4AAA2AA2422A4IA4A
AAAAA22AAAA22AAAAAA2A2AAAA4AA2AAAA4A4A24AAAAAAA4AAA2AA2422A4II4A
AAAAA22AAAA22AAAAAAAA2AAAA4AA2AAAA4A4A24AAAAAAA4AAA2AA2422A4II4A
AAAAA22AAAA22AAAAAAAA2AAAA4AA2AAAA4A4A24AAAAAAA2AAA2AA2422A4I44A
AAAAA22AAAA22AAAAAAIA2AAAA4AA2AAAA4A4A24AAAAAAA2AAA2AA2422A4I44A
AAAAA22AAAA22AAAAAAIA2AAAA4AA2AAAA4A4I24AAAAAAA2AAA2AA2422A4I44A
AAAAA22AAAA22AAAAAAIA2AAAA4AAAAAAA4A4424AAAAAAA2AAA2AA2422A4I44A
AAAAA22AAAA22AAAAAA4A2AAAA4AAAAAAA4A4424AAAAAAA2AAA2AA2422A4I44A
AAAAA22AAAA22AAAAAA4A2AAAA4AAAAAAA4A4424AAAAAAA2AAA2AA2422A4IA4A
AAAAA22AAAA22AAAAAA4A2AAAA4AAAAAAA4A4424AAAAAAA2AAA2AA2422A4AA4A
AAAAA22AAAA22AAAAAA4A2AAAA4AAAAAAA4A4424AAAAAAA2AAA2AA2422A4AAAA
AAAAA2AAAAA22AAAAAA4A2AAAA4AAAAAAA4A4424AAAAAAA2AAA2AA2422A4AAAA
AAAAA2AAAAA22AAAAAA4A2AAAA4AAAAAAA4A2224AAAAAAA2AAA2AA2422A4AAAA
AAAAA2AAAAA22AAAAAA2A2AAAA4AAAAAAA4A2224AAAAAAA2AAA2AA2422A4AAAA
AAAAA2AAAAA22AAAAAA2A2AAAA4AAAAAAA4A2224AAAAAAA2AAA2AA2422A4AAAI
AAAAA2AAAAA22IAAAAA2A2AAAA4AAAAAAA4A2224AAAAAAA2AAA2AA2422A4AAAI
AAAAA2AAAAA22IAAAAA2A2AAAA4AAAAAAA4A2224AAAAAAA2AAA2AA2222A4AAA4
AAAAA2AAAAA22IAAAIA2A2AAAA4AAAAAAA4A2224AAAAAAA2AAA2AA2222A4AAA4
AAAAA2AAAAA22IAAAIA2A2AAAA4AAAAAIA4A2224AAAAAAA2AAA2AA2222A4AAA4
AAAAA2AAAAA22IAAAIA2A2AAAA4AAAAAIA4I2224AAAAAAA2AAA2AA2222A4AAA4
AAAAA2AAAAA22IAAAIA2A2AAAA4AAAAAIA4I2224AAAAAAA2AAA2AA2I22A4AAA4
AAAAA2AAAAA22IAAAIA2A2AAAA4AAAAAIAAI2224AAAAAAA2AAA2AA2I22A4AAA4
AAAAA2AAAAA22IAAAIA2A2AAAA4AAAAAIAAI2224AAAAAAA2AAA2AA2422A4AAA4
AAAAA2AAAAA22IAAAIA2A2AAAAAAAAAAIAAI2224AAAAAAA2AAA2AA2422A4AAA4
AAAAA2AAAAA22IAAAIA2A2AAAAAAAAAAIAAI2224AAAAAAA2AAA2AA24A2A2AAA4
AAAAA2AAAAA22IAAA4A2A2AAAAAAAAAAIAAI2224AAAAAAA2AAA2AA24A2A2AAA4
AAAAA2AAAAA22IAAA4A2A2AAAAAAAAAAIAAI2224AAAAAAA2AAA2AA24A2A2AAA2
AAAAA2AAAAA22IAAA4A2A2AAAAAAAAAAIAAI2224AAIAAAA2AAA2AA24A2A2AAA2
AAAAA2AAAAA22IAAA4A2A2AAAAAAAAAAIAAI2224AAIAAAA2AAA2AA24I2A2AAA2
AAAAA2AAAAA22IAAA4A2A2AAAAAAAAAAIAAI2224AAIAAAA2AAA2AA2442A2AAA2
AAAAA2AAAAA22IAAAAA2A2AAAAAAAAAAIAAI2224AAIAAAA2AAA2AA2442A2AAA2
AAAAI2AAAAA22IAAAAA2A2AAAAAAAAAAIAAI2224AAIAAAA2AAA2AA2442A2AAA2
AAAAA2AAAAA22IAAAAA2A2AAAAAAAAAAIAAI2224AAIAAAA2AAA2AA2442A2AAA2
AAAAA2AAAAA22IAAAAA2A2AAAAAAAAAAIAAI2224AAIAAAA2AAI2AA2442A2AAA2
AAAAA2AAAAA22IAAAAA2A2AAAAAAAAAAIAAI2224AAIAAAA2AAA2AA2222A2AAA2
AAAAA2AAAAA22IAAAAA2A2AAAAAAAAAAIAAI2224AAIAAAA2AAA2AA2222A2AIA2
AAAAA2AAAAA22AAAAAA2A2AAAAAAAAAAIAAI2224AAIAAAA2AAA2AA2222A2AIA2
AAAAA2AAAAA22AAAAAA2A2AAAAAAAAAAIAAI2224AAIAAAA2IAA2AA2222A2AIA2
AAAAA2AAAAA22AAAAAA2A2AAAAAAAAAAIAAI2224AAIAAAA2IAA2AA2222A2AIAI
AAAAA2AAAAA22AAAAAA2A2AAAAAAAAAAIAAI2224AAIAAAA2IAI2AA2222A2AIAI
AAAAA2AAAAA22AAAAAA2A2AAAAAAAAAAIAAI2224AAIAAAA2IAI2AA2222A2AIAA
AAAAA2AAAAA22AAAAIA2A2AAAAAAAAAAIAAI2224AAIAAAA2IAI2AA2222A2AIAA
AAAAA2AAAAA22AAAAIA2A2AAAAAAAAAAIAAI2224AAIAAAA2IAI2AA2222A2IIAA
AAAAA2AAAAA22AAAAIA2A2AAAAAAAAAAIAAI2224AAIAAAA2IAI2AA2I22A2IIAA
AAAAA2AAAAA22AAAAIA2A2AAAAAAAAAAIAA22224AAIAAAA2IAI2AA2I22A2IIAA
AAAAA2AAAAA22AAAAIA2A2AAAAAAAAAAIAA22224AA2AAAA24A42AA2I22A2IIAA
AAAAA2AAAAA22AAAAIA2A2AAAAAAAAIAIAA22224AA2AAAA24A42AA2I22A2IIAA
AAAAA2AAAAA22AAAAIA2A2AAAAAAAAIAIAA22224AA2AAAA22A42AA2I22A2IIAA
AAAAA2AAAAA22AAAAIA2A2AAAAAAAAIAIAA22224AA2AAAA22A42AA2I22A2IIAI
AAAAA2AAAAA22AAAAIA2A2AAAAAAAAIAIAA22224AA2AAAA2IA42AA2I22A2IIAI
AAAAA2AAAAA22AAAAIA2A2AAAAAAAAIAIAAA2224AA2AAAA24A42AA2I22A2IIAI
AAAAA2AAAAA22AAAAIA2A2AAAAAAAAIAIAAA2224AA2AAAA24AA2AA2222A2I4A4
AAAAA2AAAAA22AAAA4A2A2AAAAAAAAIAIAAA2224AA2AAAA24AA2AA2222A2I4A4
AAAAA2AAAAA22AAAA4A2A2AAAAAAAAIAIAAA2224AA2AAAA2AAA2AA2222A2I4A4
AAAAA2AAAAA22AAAA4A2A2AAAAAAAA2A4AAA2224AA2AAAA2AAA2AA2222A2I4A4
AAAAA2AAAAA22AAAA4A2A2AAAAAAAA2A4AAA2224AA2AAAA2AAA2AA2222A244A4
AAAAA2AAAAA22AAAA4A2A2AAAAAAAA2A4AAA2224AA2AAAA2AAA2AA2222A244AA
AAAAA2AAAAA22AAAA4A2A2AAAAAAAA2A4AAI2224AA2AAAA2AAA2AA2222A244AA
AAAAA2AAAAA22AAAA4A2A2AAAAAAAA2A4AAI2224AA2AAAA2AAA2AA2A22A244AA
AAAAA2AAAAA22AAAA4A2A2AAAAAAAAIA4AAI2224AA2AAAA2AAA2AA2A22A244AA
AAAAA2AAAAA22AAAA4A2A2AAAAAAAAIA4AAI2224AA2AAAA2AAA2AI2A22A244AA
AAAAA2AAAAA22AAAA4A2A2AAAAAAAAIA4AAI2224AA2AAAA2AAA2A22A22A244AA
AAAAA2AAAAA22AAAA4A2A2AAAAAAAAIA4AAI2222AA2AAAA2AAA2A22A22A244AA
AAAAA2AAAAA22AAAA4A2A2AAAAAAAAIA4AAI2222AAAAAAA2AAA2A22A22A244AA
AAAAA2AAAAA22AAAA4A2AAAAAAAAAA2A2AA42222AAAAAAA2AAA2A22A22A244AA
AAAAA2AAAAA22AAAAAA2AAAAAAAAAA2A2AA42222AAAAAAA2AAA2A22A22A244AA
AAAAA2AAAAA22AAAAAA2AAAAAAAAAA2A2AA42222AAAIAAA2AAA2A22A22A244AA
AAAIA2AAAAA22AAAAAA2AAAAAAAAAA2A2AA42222AAAIAAA2AAA2A22A22A244AA
AAAIA2AAAAA22AAAAAA2AAAAAAAAAA2A2AA42222AAAIAAA2AAA2A22A22A24AAA
AAAII2AAAAA22AAAAAA2AAAAAAAAAA2A2AA42222AAAIAAA2AAA2A22A22A24AAA
AAAII2AAAAA22AAAAAA2AAAAAAAAAA2A2AA42222AAA4AAA2AAA2A22A22A24AAA
AAAII2AAAAA22AAAAAA2AAAAAAAAAA2A2AA42222AAAAAAA2AAA2A22A22A24AAA
AAAII2AAAAA22AAAAAAAAAAAAAAAAA2A2AA42222AAAAAAA2AAA2A22A22A24AAA
AAAII2AAAAAA2AAAAAAAAAAAAAAAAA2A2AA42222AAAAAAA2AAA2A22A22A24AAA
AAAII2AAAAAA2AAAAAAAAAAAAAAIAA2A2AA42222AAAAAAA2AAA2A22A22A24AAA
AAAII2AAAAAA2AAAAAAAAAAAAAAIAA2A2AA42222AAAAAAA2AAA2A22A22A2AAAA
AAAII2AAAAAI2AAAAAAAAAAAAAAIAA2A2AA42222AAAAAAA2AAA2A22A22A2AAAA
AAAII2AAAAAI2AAAAAAAAAAAAAAIAA2A2AA42222AAAIAAA2AAA2A22A22A2AAAA
AAA2I2AAAAAI2AAAAAAAAAAAAAAIAA2A2AA42222AAAIAAA2AAA2A22A22A2AAAA
AAA2I2AAAAAI2AAAAAAAAAAAAAA2AA2A2AA42222AAAIAAA2AAA2A22A22A2AAAA
AAA2A2AAAAAI2AAAAAAAAAAAAAA2AA2A2AA42222AAAIAAA2AAA2A22A22A2AAAA
AAA2A2AAAAAI2AAAAAAAAAAAAAA2AA2A2AA42222AAAIAAA2AAA2A22A22A2AIAA
AAA2A2AAAAAI2AAAAAAAAAAAAAA2AA2A2AA42222AAIIAAA2AAA2A22A22A2AIAA
AAA2A2AAAAAI2AAAAAAAAAAAAAA2AA2A2AA42222AAIAAAA2AAA2A22A22A2AIAA
AAA2A2AAAAAI2AAAAAAAAAAAAAA2AA2A2AAA2222AAIAAAA2AAA2A22A22A2AIAA
AAA2A2AAAAAI2AAAAAAAAAAAAAA2AA2A2AAA2222IAIAAAA2AAA2A22A22A2AIAA
AAA2A2AAAAAI2AAAAAAIAAAAAAA2AA2A2AAA2222IAIAAAA2AAA2A22A22A2AIAA
AAA2A2AAAAAI2AAAAAAIAAAAAAA2AA2A2AAA2222IAIAAAA2AAA2A22A22A2IIAA
AAA2A2AAAAAI2AAAAAAAAAAAAAA2AA2A2AAA2222IAIAAAA2AAA2A22A22A2IIAA
AAA2A2AAAAAI2AAAAAAAAAAAAAA2AA2A2AAA22224A4AAAA2AAA2A22A22A2IIAA
AAA2A2AAAAAI2AAAAAAAAAAAAAAIAA2A2AAA22224A4AAAA2AAA2A22A22A2IIAA
AAA2A2AAAAAI2AAAAAAAAAAAAAA2AA2A2AAA22224A4AAAA2AAA2A22A22A2IIAA
AAA2A2AAAAAI2AAAAAAAAAAAAAA2AA2A2AAA22224AAAAAA2AAA2A22A22A24IAA
AAA2A2AAAAAI2AAAAAAAAAAAAAA2AA2A2AAA22224AAAAAA2AAA2A22A22A244AA
AAA2A2AAAAAI2AAAAAAAAAAAAAA2AA2A2AAA22224AAAAAA2AAA2A22A22A2A4AA
AAA2A2AAAAAI2AAAAAAAAAAAAAA2AA2A2AAA22224AAAAAA2AAA2A22A22A2AAAA
AAA2A2AAAIAI2AAAAAAAAAAAAAA2AA2A2AAA22224AAAAAA2AAA2A22A22A2AAAA
AAA2A2AAAIAI2AAAAAAAAAAAAAA2AA2A2AAA2222AAAAAAA2AAA2A22A22A2AAAA
AAA2A2AAAIAI2AAAAAAAAAAAAAA2AA2A2AAA2222AAAAAAA2AAA2A22A22A2AAIA
AAA2A2AAAIAA2AAAAAAAAAAAAAA2AA2A2AAA2222AAAAAAA2AAA2A22A22A2AAIA
AAAAA2AAA2AA2AAAAAAAAAAAAAA2AA2A2AAA2222AAAAAAA2AAA2A22A22A2AAIA
AAAAA2AAA2AA2AAAAAAAAAAAAAA2AA2A2AAA2222AAAAAAA2AAA2A22A22A2IAIA
AAAAA2AAA2AA2AAAAAAAAAAAAAAAAA2A2AAA2222AAAAAAA2AAA2A22A22A2IAIA
AAAAA2AAA2AA2AAAAAAAAAAAAAAAAA2A2AAI2222AAAAAAA2AAA2A22A22A2IAIA
AAAAA2AAA2AA2AAAAAAAAAAAAAAAAA2A2AAI2222AAAAAAA2AAA2A22I22A2IAIA
AAAAA2AAA2AA2AAAAAAAAAAAAAAAAA2A2AAI2222AAAAAAA2AAA2A22422A2IAIA
AAAAA2AAA2AA2AAAAAAAAAAAAAAAAA2A2AA42222AAAAAAA2AAA2A22422A2IAIA
AAAAA2AAA2AA2AAAAAAAAAAAAAAAAA2A2AA42222IAAAAAA2AAA2A22422A2IAIA
AAAAA2AAA2AA2AAAAAAAAAAAAAAAAA2A2AAA22222AAAAAA2AAA2A22422A2IAIA
AAAAA2AAA2AA2AAAAAAAAAAAAAAAAA2A2AAA22222AAAAAA2AAA2A22422A24AIA
AAAAA2AAA2AA2AAAAAAAAAAAAAAAAA2A2AAA22222AAAAAA2AAA2A22222A24AIA
AAAAA2AAA2AA2AAAAAAAAAAAAAAAAA2A2AIA22222AAAAAA2AAA2A22222A24AIA
AAAAA2AAA2AA2AAAAAAAAAAAAAAAAA2A2AIA2222IAAAAAA2AAA2A22222A24AIA
AAAAA2AAA2AA2AAAAAAAAAAAAAAAAA2A2AIA2222IAAIAAA2AAA2A22222A24AIA
AAAAA2AAA2AA2AAAAAAAAAAAAAAAAA2A2AIA22224AA4AAA2AAA2A22222A24AIA
AAAAA2AAA2AA2AAAAAAAAAAAAAAAAA2A2AII22224AA4AAA2AAA2A22222A24AIA
AAAAA2AAAAAA2AAAAAAAAAAAAAAAAA2A2AII22224AA4AAA2AAA2A22222A24AIA
AAAAA2AAAAAA2AAAAAAAAAAAAAAAAA2A2AII22224AA4AAA2AAA2A22I22A24AIA
AAAAA2AAAAAA2AAAAAAAAAAAAAAAAA2A2AII22224AA4AAA2AAA2A22I22A24A4A
AAAAA2AAAAAA2AAAAAAAAAAAAAAAAA2A2AIA22224AA2AAA2AAA2A22I22A24A4A
AAAAA2AAAAAA2AAAAAAAAAAAAAAAAA2A2A4A22224AA2AAA2AAA2A22I22A24A4A
AAAAA2AAAIAA2AAAAAAAAAAAAAAAAA2A2A4A22224AA2AAA2AAA2A22I22A24A4A
AAAAA2AAAIAA2AAAAAAAAAAAAAAIAA2A2A4A22224AA2AAA2AAA2A22I22A24A4A
AAAAA2AAAIAA2AAAAAAAAAAAAAAIAA2A2A4A22224AA2AAA2AAA2A22422A24A4A
AAAAA2AAAIAA2AAAAAAAAAAAAAA4AA2A2A4A22224AA2AAA2AAA2A22422A24A4A
AAAAA2AAAIAA2AAAAAAAAAAAAAAAAA2A2A4A22224AA2AAA2AAA2A22422A24A4A
AAAAA2AAAIAA2AAAAAAAAAAAAAAAAA2A2A4A22224AI2AAA2AAA2A22422A24A4A
AAAAA2AAAIAA2AAAAAAAAAAAAAAAAA2A2A4A22224AA2AAA2AAA2A22422A24A4A
AAAAA2AAAIAA2AAAAAAAAAAAAAAAAA2A2A4A22224AAAAAA2AAA2A22422A24A4A
AAAAA2AAAIAA2AAAIAAAAAAAAAAAAA2A2A4A22224AAAAAA2AAA2A22422A24A4A
AAAAA2AAAIAA2AAAIAAAAAAAAAAAAA2A2A4A2222AAAAAAA2AAA2A22422A24A4A
AAAAA2AAA4AA2AAAIAAAAAAAAAAAAA2A2A4A2222AAAAAAA2AAA2A22422A24A4A
AAAAA2AAA4AA2AAAIAAAAAAAAAAAAA2A2A4A2222AAIAAAA2AAA2A22422A24A4A
AAAAA2AAA4AA2AAAIAAAAAAAAAAAAA2A2A4A2222AAIIAAA2AAA2A22422A24A4A
AAAAA2AAA4AA2AAAIAAAAAAAAAAAAA2A2A4A2222AAIAAAA2AAA2A22422A24A4A
AAAAA2AAA4AA2AAAIAAAAAAAAAAAAA2A2A2A2222AAIAAAA2AAA2A22422A24A4A
AAAAA2AAA4AA2AAAIAAAAIAAAAAAAA2A2A2A2222AAIAAAA2AAA2A22422A24A4A
AAAAA2AAA4AA2AAA2AAAA2AAAAAAAA2A2A2A2222AAIAAAA2AAA2A22422A24A4A
AAAAA2AAA4AA2AAA2AAAA2AAAAAAAA2A2A2A2222AAIAAAA2AAA2A22422A2AA4A
AAAAA2AAA4AA2AAA2AAAA2AAAAAAAA2A2AIA2222AAIAAAA2AAA2A22422A2AA4A
AAAAA2AAA4AA2AAA2AAAA2AAAAAAAA2A2AIA2222AAIAAAA2AAA2A22422A2IA4A
AAAAA2AAA4AA2AAA2AAAAAAAAAAAAA2A2A4A2222AAIAAAA2AAA2A22422A2IA4A
AAAAA2AAA4AA2AAA2AAAAAAAAAAAAA2A2A4I2222AAIAAAA2AAA2A22422A2IA4A
AAAAA2AAA4AA2AAA2AAAAAAAAAAAAA2A2A4A2222AAIAAAA2AAA2A22422A2IA4A
AAAAA2AAA4AA2AAA2AAAAAAAAAAAAA2A2A4A2222AAAAAAA2AAA2A22422A2IA4A
AAAAA2AAA4AA2AAAAAAAAAAAAAAAAA2A2A4A2222AAAAAAA2AAA2A22422A2IA4A
AAAAA2AAA4AA2AAAAAAAAAAAAAAAAA2A2A4A2222AAAAAAA2AAA2A22222A24A4A
AAAAA2AAA2AA2AAAAAAAAAAAAAAAAA2A2A4A2222AAAAAAA2AAA2A22222A24A4A
AAAAA2AAA2AA2AAAAAAIAAAAAAAAAA2A2A4A2222AAAAAAA2AAA2A22222A24A4A
AAAAA2AAA2AA2AAAAAAIAAAAAAAAAA2A2A4A2222AAAAAAA2AAA2A22222A22A4A
AAAAA2AAA2AA2AAAAAA2AAAAAAAAAA2A2A4A2222AAAAAAA2AAA2A22222A22A4A
AAAAA2AAA2AA2AAAAAAAAAAAAAAAAA2A2A4A2222AAAAAAA2AAA2A22222A22A4A
AAAAA2IAA2AA2AAAAAAAAAAAAAAAAA2A2A4A2222AAAAAAA2AAA2A22222A22A4A
AAAAA2IAA2AA2AAAAAAAAAAAAAAAAA2A2A4A2222AAAAAAA2AAA2A22222A2IA4A
AAAAA2IAA2AA2AAAAAAIAAAAAAAAAA2A2A4A2222AAAAAAA2AAA2A22222A2IA4A
AAAAA2IAA2AA2AAAAAA2AAAAAAAAAA2A2A4A2222AAAAAAA2AAA2A22222A2IA4A
AAAAA2IAA2AA2AAAAAA2AAAAAAAIAA2A2A4A2222AAAAAAA2AAA2A22222A2IA4A
AAAAA2IAA2AA2AAAAAAAAAAAAAA2AA2A2A4A2222AAAAAAA2AAA2A22222A2IA4A
AAAAA22AA2AA2AAAAAAAAAAAAAA2AA2A2A4A2222AAAAAAA2AAA2A22222A2IA4A
AAAAA2IAA2AA2AAAAAAAAAAAAAA2AA2A2A4A2222AAAAAAA2AAA2A22222A2IA4A
AAAAA2AAA2AA2AAAAAAAAAAAAAA2AA2A2A4A2222AAAAAAA2AAA2A22222A2IA4A
AAAAA2AAA2AA2AAAAAAAAAAAAAAAAA2A2A4A2222AAAAAAA2AAA2A22222A2IA4A
AAAAA2AAA2AA2AAAAAAAAAAAAAAAAA2A2A4A2222AAAAAAA2AAA2A22222A2AA4A
AAAAA2AAA2AA2AAAAAAAAAAAAAAAAA2A2A4A2222AAAAAAA2AAA2A22222A2AAAA
AAAAA2AAA2AA2AAAAAAAAAAAAAAAAA2A2A4A2222AAAAAAA2AAA2A22A22A2AAAA
AAAAA2AAA2AA2AIAAAAAAAAAAAAAAA2A2A4A2222AAAAAAA2AAA2A22A22A2AAAA
AAAAA2AAA2AA2AIAAAAAAIAAAAAAAA2A2A4A2222AAAAAAA2AAA2A22A22A2AAAA
AAAAA2AAA2AA2AAAAAAAA4AAAAAAAA2A2A4A2222AAAAAAA2AAA2A22A22A2AAAA
AAAAA2AAA2AA2AAAAAAAA4AAAAAAAA2A2A4A2222AAAAAAA2AAA2A22A22A2IAAA
AAAAA2AAA2AA2AAAAAAAA4AAAAAAAA2A2A2A2222AAAAAAA2AAA2A22A22A2IAAA
AAAAA2AAA2AA2AAAAAAAA2AAAAAAAA2A2A2A2222AAAAAAA2AAA2A22A22A2IAAA
AAAAA2AAA2AA2AAAAAAAAIAAAAAAAA2A2A2A2222AAAAAAA2AAA2A22A22A2IAAA
AAAAA2AAA2AA2AAAAAAAAIAAAAAAAA2A2A2A2222AAAAAAA2AAA2A22I22A2IAAA
AAAIA2AAA2AA2AAAAAAAAIAAAAAAAA2A2A2A2222AAAAAAA2AAA2A22I22A2IAAA
AAAIA2AAA2AA2AAAAAAAA2AAAAAAAA2A2A2A2222AAAAAAA2AAA2A22I22A2IAAA
AAAIA2AAA2AA2AAAAAAAAAAAAAAAAA2A2A2A2222AAAAAAA2AAA2A22I22A2IAAA
AAAIA2AAA2AA2AAAAAAAAAAAAAAAAA2A2A2A2222AAAAAAA2AAA2A22I22A2AAAA
AAAIA2AAA2AA2AIAAAAAAAAAAAAAAA2A2A2A2222AAAAAAA2AAA2A22I22A2AAAA
AAAIA2AAA2AA2AIAAAAAAAAAAAAAAA2A2A2A2222AAAAAAA2AAA2A22A22A2AAAA
AAAIA2AAA2AA2AIAAAAIAAAAAAAAAA2A2A2A2222AAAAAAA2AAA2A22A22A2AAAA
AAAIA2AAA2AA2AIAAAAIAIAAAAAAAA2A2A2A2222AAAAAAA2AAA2A22A22A2AAAA
AAAIA2AAA2AA2AIAAAAIAIAAAAAAAA2A2A2A2222AAAAAAA2AAA2A22A22A2IAAA
AAAIA2AAA2AA2AIAAAAIAIAAAAAAAA2A2A2A2222AAAAAAA2AAA2A22A22A2IIAA
AAAIA2AAA2AA2AIAAAAIAAAAAAAAAA2A2A2A2222AAAAAAA2AAA2A22A22A2IIAA
AAAIA2AAA2AA2AAAAAAIAAAAAAAAAA2A2A2A2222AAAAAAA2AAA2A22A22A2IIAA
AAAIA2AAA2AA2AAAAAA4AAAAAAAAAA2A2A2A2222AAAAAAA2AAA2A22A22A2IIAA
AAA2A2AAA2AA2AAAAAA4AAAAAAAAAA2A2A2A2222AAAAAAA2AAA2A22A22A2IIAA
AAA2A2AAA2AA2AAAAAA4AAAAAAAAAA2A2A2A2222AAAAAAA2AAA2A22I22A2IIAA
AAA2A2AAA2AA2AAAAAA4AAAAAAAAAA2A2A2A2222AAAAAAA2AAA2A22IA2A2I4AA
AAA2A2AAA2AA2AAAAAA4AAAAAAAAAA2A2A2A2222AAAAAAA2AAA2A22AA2A244AA
AAAAA2AAA2AA2AAAAAA4AAAAAAAAAA2A2A2A2222AAAAAAA2AAA2A22AA2A244AA
AAAAA2AAA2AA2AAAAAA2AAAAAAAAAA2A2A2A2222AAAAAAA2AAA2A22AA2A244AA
AAAAA2AAA2AA2AAAAAAAAAAAAAAAAA2A2A2A2222AAAAAAA2AAA2A22AA2A244AA
AAAAA2AAA2AA2AAAAAAAAAAAAAAAAA2A2A2A2222AAAAAAA2AAA2A22AA2A2A4AA
AAAAA2AAA2AA2AAAAAAAAAAAAAAAAA2A2A2A2222AAAAAAA2AAA2A22AA2A2AAAA
AAAAA2AAA2AA2IAAAAAAAAAAAAAAAA2A2A2A2222AAAAAAA2AAA2A22AA2A2AAAA
AAAAA2AAA2AA2IAAAAAAAAAAAAAAAA2A2A2A2222AAAAAAA2IAA2A22AA2A2AAAA
AAAAA2AAA2AA2IAAAAAAAAAAAAAAAA2A2A2A2222IAAAAAA2IAA2A22AA2A2AAAA
AAAAA2AAA2AA2IAAAAAAAAAAAAAAAA2A2A2A2222IAAAAAA2IAA2A22AA2A2IAAA
AAAAA2AAA2AA2IAAAAAAAAAAAAAAAA2A2A2A2222IAAAAAA2IAA2A22AA2A2IIAA
AAAAA2AAA2AA2AAAAAAAAAAAAAAAAA2A2A2A2222IAAAAAA2IAA2A22AA2A2IIAA
AAAAA2AAA2AA2AAAAAAAAAAAAAAAAA2A2A2A2222IAAAAAA2IAA2A22AA2A2IAAA
AAAAA2AAA2AA2AAAAAAAAAAAAAAAAA2A2A2A2222AAAAAAA24AA2A22AA2A2IAAA
AAAAA2AAA2AA2AAAAAAAAAAAAAAAAA2A2A2A2222AAAAAAA24AA2A22AA2A2AAAA
AAAAA2IAA2AA2AAAAAAAAAAAAAAAAA2A2A2A2222AAAAAAA24AA2A22AA2A2AAAA
AAAAA2IAA2AA2AAAAAAAAAAAAAAAAA2A2A2A2222AAAAAAA24AA2A22AA2A2IAAA
AAAAA2IAA2AA2AAAAAAAAAAAAAAAAA2A2A2A2222AAAAAAA24AA2A22AA2A2IIAA
AAAAA2AAA2AA2AAAAAAAAAAAAAAAAA2A2A2A2222AAAAAAA24AA2A22AA2A2IIAA
AAAAA2AAA2AA2AAAAAAAAAAAAAAAAA2A2A2A2222AAAAAAA2AAA2A22AA2A2I4AA
AAAAA2AAA2AA2AAAAAAAAAAAAAAAAA2A2A2A2222AAAAAAA2AAA2A22IA2A2I4AA
AAAAA2AAA2AA2AAAAAAAAAAAAAAAAA2A2A2A2222AAAAAAA2AAA2A222A2A2I4AA
AAAAI2AAA2AA2AAAAAAAAAAAAAAAAA2A2A2A2222AAAAAAA2AAA2A222A2A2I4AA
AAAAI2AAA2AA2AAAAAAAAAAAAAAAAA2A2A2A2222AAAAAAA2IAA2A222A2A2I4AA
AAAAI2AAA2AA2AAAAIAAAAAAAAAAAA2A2A2A2222AAAAAAA2IAA2A222A2A2I4AA
AAAAA2AAA2AA2AAAA4AAAAAAAAAAAA2A2A2A2222AAAAAAA2IAA2A222A2A2I4AA
AAAAA2AAA2AA2AAAA2AAAAAAAAAAAA2A2A2A2222AAAAAAA2IAA2A222A2A2I4AA
AAAAA2AAA2AA2AAAA2AAAAAAAAAAAA2A2A2A2222AAAAAAA2AAA2A222A2A2I4AA
AAAAA2AAA2AA2AAAA2AAAAAAAAAAAA2A2A2A2222AAAAAAA2AAA2A222A2A2IAAA
AAAAA2AAA2AA2AAAA2AAAAAAAAAAAA2A2A2A2222AAAAAAA2AAA2A222A2A2AAAA
AAAAA2AAA2AA2AAAAIAAAAAAAAAAAA2A2A2A2222AAAAAAA2AAA2A222A2A2AAAA
AAAAA2AAA2AA2AAAA2AAAAAAAAAAAA2A2A2A2222AAAAAAA2AAA2A222A2A2AAAA
AAAAA2AAA2AA2AAAA2AAAAAAAAAAAA2A2A2A2222AAAAAAA2AAA2A222A2A2IAAA
AAAAA2AAA2AA2AAAA2AAAAAAAAAAAA2A2A2A2222AAAAAAA2AAA2A222A2A2IAAI
AAAAA2AAA2AA2AAAA2AAAAAAAAAAAA2A2A2A2222AAAAAAA2AAA2A222A2A2IAAA
AAAIA2AAA2AA2AAAA2AAAAAAAAAAAA2A2A2A2222AAAAAAA2AAA2A222A2A2IAAA
AAAIA2AAA2AA2AIAA2AAAAAAAAAAAA2A2A2A2222AAAAAAA2AAA2A222A2A2IAAA
AAAIA2AAA2AA2AIAAIAAAAAAAAAAAA2A2A2A2222AAAAAAA2AAA2A222A2A2IAAA
AAAIA2AAA2AA2A4AAIAAAAAAAAAAAA2A2A2A2222AAAAAAA2AAA2A222A2A2IAAA
AAAAA2AAA2AA2A4AAIAAAAAAAAAAAA2A2A2A2222AAAAAAA2AAA2A222A2A2IAAA
AAAAA2AAA2AA2A4AA2AAAAAAAAAAAA2A2A2A2222AAAAAAA2AAA2A222A2A2IAAA
AAAAA2AAA2AA2A4AA2AAAAAAAAAAAA2A2A2A2222AAAAAAA2AAA2A222A2A2AAAA
AAAAA2AAA2AA2A4AA2AAAAAAAAAAAA2A2A2A2222AAAAAAA2AAA2A22AA2A2AAAA
AAAAA2AAA2AA2A4AAAAAAAAAAAAAAA2A2A2A2222AAAAAAA2AAA2A22AA2A2AAAA
AAAAA2AAA2AA2A4AAAAAAAAAAAAAAA2A2A2A2222AAAAAAA2AAA2A22IA2A2AAAA
AAAAA2AAA2AA2A4AAAAAAAAAAAAAAA2A2AAA2222AAAAAAA2AAA2A22IA2A2AAAA
AAAIA2AAA2AA2A4AAAAAAAAAAAAAAA2A2AAA2222AAAAAAA2AAA2A22IA2A2AAAA
AAA2A2AAA2AA2A4AAAAAAAAAAAAAAA2A2AAA2222AAAAAAA2AAA2A22IA2A2AAAA
AAA2I2AAA2AA2A4AAAAAAAAAAAAAAA2A2AAA2222AAAAAAA2AAA2A22IA2A2AAAA
AAA2A2AAA2AA2A4AAAAAAAAAAAAAAA2A2AAA2222AAAAAAA2AAA2A22IA2A2AAAA
AAA2A2AAA2AA2A4AAAAAAAAAAAAAAA2A2AAA2222AAAAAAA2IAA2A22IA2A2AAAA
AAA2A2AAA2AA2A4AAAAAAAAAAAAAAA2A2AAA2222IAAAAAA2IAA2A22IA2A2AAAA
AAA2A2AAA2AA2A4AAAAAAAAAAAAAAA2A2AAA2222AAAAAAA24AA2A224A2A2AAAA
AAA2A2AAA2AA2A4AAAAAAAAAAAAAAA2A2AAA2222AAAAAAA24AA2A22AA2A2AAAA
AAA2A2IAA2AA2A4AAAAAAAAAAAAAAA2A2AAA2222AAAAAAA24AA2A22AA2A2AAAA
AAA2A2AAA2AA2A2AAAAAAAAAAAAAAA2A2AAA2222AAAAAAA24AA2A22AA2A2AAAA
AAA2A2AAA2AA2A2AAAAAAAAAAAAAAA2A2AAA2222IAAAAAA24AA2A22AA2A2AAAA
AAAAA2AAA2AA2A2AAAAAAAAAAAAAAA2A2AAA2222IAAAAAA24AA2A22AA2A2AAAA
AAAAA2AAA2AA2A2AAAAAAAAAAAAAAA2A2AAA2222AAAAAAA24AA2A22AA2A2AAAA
AAAAA2AAA2AA2A2AAAAAAAAAAAAAAA2A2AAI2222AAAAAAA24AA2A22AA2A2AAAA
AAAIA2AAA2AA2A2AAAAAAAAAAAAAAA2A2AAI2222AAAAAAA24AA2A22AA2A2AAAA
AAAII2AAA2AA2A2AAAAAAAAAAAAAAA2A2AAI2222AAAAAAA24AA2A22AA2A2AAAA
AAAIA2AAA2AA2A2AAAAAAAAAAAAAAA2A2AAI2222AAAAAAA24AA2A22AA2A2AAAA
AAAIA2AAA2AA2A2AAAAAAAAAAAAAAA2A2AA22222AAAAAAA24AA2A22AA2A2AAAA
AAAIA2AAA2AA2A2AAAAAAAAAAAAAAA2A2AA22222IAAAAAA24AA2A22AA2A2AAAA
AAAIA2AAA2AA2A2AAAAAAAAAAAAIAA2A2AA22222IAAAAAA24AA2A22AA2A2AAAA
AAAIA2AAA2AA2A2AAAAAAAAAAAAIAA2A2AAI2222IAAAAAA24AA2A22AA2A2AAAA
AAA2A2AAA2AA2A2AAAAAAAAAAAAIAA2A2AAI2222IAAAAAA24AA2A22AA2A2AAAA
AAAAA2AAA2AA2A2AAAAAAAAAAAAIAA2A2AAI2222IAAAAAA24AA2A22AA2A2AAAA
AAAAA2AAA2AA2A2AAAAAAAAAAAAIAA2A2AAI2222IAAAAAA24AA2A22AA2A2AAAI
AAAAA2AAA2AA2A2AAAAAAAAAAAAIAA2A2AAI2222IAAAAAA24AA2A22AA2A2AAAA
AAAAA2AAA2AA2A2AAAAAAAAAAAAIAA2A2AAI2222IAAAAAA24AA2A22AA2A2IAAA
AAAAA2AAA2AA2A2AAAAAAAAAAAA2AA2A2AA422224AAAAAA24AA2A22AA2A2IAAA
AAAAA2AAA2AA2A2AAAAAAAAAAAA2AA2A2AA422224AAAAAA24AA2A22IA2A2IAAA
AAAAA2AAA2AA2A2AAAAAAAAAAAA2AA2A2AA422224AAAAAA22AA2A22IA2A2IAAA
AAAAA2AAA2AA2A2AAAAAAAAAAAA2AA2A2AA422224AAAAAA22AA2A22IA2A2AAAA
AAAAA2AAA2AA2A2AAAAAAAAAAAA2AA2A2AA42222AAAAAAA22AA2A22IA2A2AAAA
AAAAA2AAA2AA2A2AAAAAAAAAAAA2AA2A2AA42222AAAAAAA2IAA2A22IA2A2AAAA
AAAAA2AAA2AA2A2AAAAAAAAAAAA2AAAA2AA22222AAAAAAA2IAA2A22IA2A2AAAA
AAAAA2AAA2AA2A2AAAAAAAAAAAA2AAIA2AA22222AAAAAAA2IAA2A22IA2A2AAAA
AAAAA2AAA2AA2A2AAAAAAAAAAAA2AAIA2AA22222AAAAAAA22AA2A224A2A2AAAA
AAAAA2AAA2AA2A2AAAAAAAAAAAA2AAIA2AA22222AAAAAAA22AA2A224A2A2IAAA
AAAAA2AAA2AA2A2AAAAAAAAAAAA2AA2A2AA22222AAAAAAA22AA2A224A2A2IAAA
AAAAA2AAA2AA2A2AAAAAAAAAAAA2AA2A2AA22222AAAAAAA22AA2A224A2A2AAAA
AAAAA2AAA2AA2A2AAAAAAAAAAAA2AA2A2AA22222AAAAAAA22AA2A22AA2A2AAAA
AAAAA2AAA2AA2A2AAAAAAAAAIAA2AA2A2AA22222AAAAAAA22AA2A22AA2A2AAAA
AAAAA2AAA2AA2A2AAAAAAAAAIAA2AA2A2AAA2222AAAAAAA22AA2A22AA2A2AAAA
AAAAA2AAA2AA2A2AAAAAAAAAIAA2AA2A2AAA2222AAAAAAA22AA2A22AA2A2IAAA
AAAAA2AAA2AA2AAAAAAAAAAAIAA2AA2A2AAA2222AAAAAAA22AA2A22AA2A2IAAA
AAAAA2AAA2AA2AAAAAAAAAAAIAA2AA2A2AAA2222IAAAAAA22AA2A22AA2A2IAAA
AAAAA2AAA2AA2AAAAAAAAAAAIAA2AA2A2AAA2222AAAAAAA22AA2A22AA2A2IAAA
AAAAA2AAA2AA2AAAAAAAAAAAIAA2AA2A2AAA2222AAAAAAA22AA2A22AA2A2IAAI
AAAAA2AAAAAA2AAAAAAAAAAA4AA2AA2A2AAA2222AAAAAAA22AA2A22AA2A2IAAI
AAAAA2AAAAAA2AAAAAAAAAAA4AA2AA2A2AAA2222IAAAAAA22AA2A22AA2A2IAAI
AAAAA2AAAAAA2AAAAAAAAAAA4AA2AA2A2AAA2222IAAAAAA22AA2A22AI2A2IAAI
AAAAA2AAAAAA2AAAAAAAAAAA4AA2AA2A2AAA2222IAAAAAA22AA2A22AI2A2AAA2
AAAAA2AAAAAA2AAAAAAAAAAA4AAAAA2A2AAA22224AAAAAA22AA2A22AI2A2AAA2
AAAAA2AAAIAA2AAAAAAAAAAA4AAAAA2A2AAA22224AAAAAA22AA2A22AI2A2AAA2
AAAAA2AAAIAA2AAAAAAAAAAA4AAAAA2A2AAA22224AAAAAA22AA2A22AI2A2AIA2
AAAAA2AAAIAA2AAAAAAAAAAA4AAAAA2A2AAA22224AAAAAA22AA2A22AI2A2IIA2
AAAAA2AAAIAA2AAAAAAAAAAA4AAAAA2A2AAA22224AAAAAA22AA2A22AI2A2IIAA
AAAAA2AAAIAA2AAAAAAAAAAA4AAAAA2A2AIA22224AAAAAA22AA2A22AI2A2IIAA
AAAAA2AAAIAA2AAAAAAAAAAA4AAAAA2A2AIA22224AAAAAA22AA2A22II2A2IIAA
AAAAA2AAAIAA2AAAAAAAAAAA4AAIAA2A2AIA22224AAAAAA22AA2A22II2A2IIAA
AAAAA2AAAIAA2AAAAAAAAAAA4AAIAA2A2AIA22224AAAAAA22AA2A22II2A2IIAI
AAAAA2AAAIAA2AAAAAAAAAAA4AAIAA2A2AIA22224AAAAAA22AA2A22II2A2AIA2
AAAAA2AAAIAA2AAAAAAAAAAA4AAIAA2A2AIA22224AAAAAA22AA2A22II2A2AAA2
AAAAA2AAAIAA2AAAAAAAAAAA2AAIAA2A2AIA22224AAAAAA22AA2A22II2A2AAA2
AAAAA2AAAIAA2AAAAAAAAAAA2AAIAA2A2AIA22224AAAAAA22AA2A22II2A2AAAA
AAAAA2AAAIAA2AAAAAAAAAAA2AA2AA2A2A4A22224AAAAAA22AA2A22II2A2AAAA
AAAAA2AAAIAA2AAAAAAAAAAA2AA2AA2A2A4A22224AAAAAA22AA2A22II2A2AIAA
AAAAA2AAAIAA2AAAAAAAAAAA2AA2AA2A2A4A22224AAAAAA22AA2A22222A2A4AA
AAAAA2AAAIAA2AAAAIAAAAAA2AA2AA2A2A4A22224AAAAAA22AA2A22222A2A4AA
AAAAA2AAAIAA2AAAAIAAAAAAIAA2AA2A2A4A22224AAAAAA22AA2A22222A2A4AA
AAAAA2AAA2AA2AAAA4AAAAAAIAA2AA2A2A4A22224AAAAAA22AA2A22222A2A4AA
[...]
AAA2A2AA222A2A2AAAAA2AAAAA2AAAAAAAA2AA22IAAAAAA4AA222A2A4A4AI42A
AAA2A2AA222A2A2AAAAA2AAAAA2AAAAAAAA2AI22IAAAAAA4AA222A2A4A4AI42A
AAA2A2AA222A2A2AAAAA2AAAAA2AAAAAAAA2AI22IAAAAAA4AA222A2A4A4AI42I
AAA2A2AA222A2A2AAAAA2AAAAA2AAAAAAAA2AI22IAAAAAA4AAA22A2A4A4AI424
AAAAA2AA222A2A2AAAAA2AAAAA2AAAAAAAA2AI22IAAAAAA4AAA22A2A4A4AI424
AAAAA2AA222A2AAAAAAA2AAAAA2AAAAAAAA2AI22IAAAAAA4AAA22A2A4A4AI424
AAAAA2AA222A2AAAAAAA2AAAAA2AAAAAAAA2AI22AAAAAAA4AAA22A2A4A4AI424
AAAAA2AA222A2AAAAAAA2AAAAA2AAAAAAAA2AI22AAAAAAA4AAA22A2A4A4A4424
AAAAA2AA222A2AAAAAAA2AAAAA2AAAAAAAA2A422AAAAAAA4AAA22A2A4A4A4424
AAAAA2AA222A2AAAAAAA2AAAAA2AAAAAAAA2A422IAAAAAA4AAA22A2A4A4A4424
AAAAA2AA222A2AAAAAAA2AAAAA2AAIAAAAA2A422IAAAAAA4AAA22A2A4A4A4424
AAAAA2AA222A2AAAAAAA2AAAAA2AAIAAIAA2A422IAAAAAA4AAA22A2A4A4A4424
AAAAA2AA222A2AAAAAAA2AAAAA2AAAAA2AA2A2224AAAAAA4AAA22A2A4A4A4424
AAAAA2AA222A2AAAAAAA2AAAAA2AAAAA2AA2A2224AAAAAA4AAA22A2A4A4A4A24
AAAAA2AA222A2AAAAAAA2AAAAA2AAAAA2AA2A2224AAIAAA4AAA22A2A4A4A4A24
AAAAA2AA222A2AAAAAAA2AAAAA2AAAAA2AA2AI224AAIAAA4AAA22A2A4A4A4A24
AAAAA2AA222A2AAAAAAA2AAAAA2AAAAAIAA2AI224AAIAAA4AAA22A2A4A4A4A24
AAAAA2AA222A2AAAAAAA2AAAAA2AAAAAIAA2AI22AAA4AAA4AAA22A2A4A4A4A24
AAAAA2AA222A2AAAAAAA2AAAAA2AAAAAIAA2AI22AAA4AAA4AAA22A2A4A4A4A2A
AAAAA2AA222A2IAAAAAA2AAAAA2AAAAAIAA2AI22AAA4AAA4AAA22A2A4A4A4A2A
AAAAA2AA222A2IAAAAAA2AAAAA2AAAAAIAA2AI22AAA4AAA4AAA22A2I4A4A4A2A
AAAAA2AA222A2IAAAAAA2AAAAA2AAAAAIAA2AI22AAA2AAA4AAA22A2I4A4A4A2A
AAAAA2AA222A24AAAAAA2AAAAA2AAAAAIAA2AI22AAA2AAA4AAA22A2I4A4A4A2A
AAAAA2AA222A24AAAAAA2AAAAA2AAAAAIAA2AI22AAA2AAA2AAA22A244A4A4A2A
AAAAA2AA222A24AAAAAA2AAAAA2AAAAAIAA2AI22AAA2AAA2AAA22A2A4A4A4A2A
AAAAA2AA222A24AAAAAA2AAAAA2AAAAAIAA2AI22AAA2AAA2AAA22A2A4A4A4A2I
AAAAA2AA222A24AAAAAA2AAAAAAAAAAAIAA2A422AAA2AAA2AAA22A2A4A4A4A2I
AAAAA2AA222A24AAAAAA2AAAAAAAAAAAIAA2A422AAA2AAA2AAA22A2A4A4A4A2A
AAAAA2AA222A2AAAAAAA2AAAAAAAAAAAIAA2A422AAA2AAA2AAA22A2A4A4A4A2A
AAAAA2AA222A2AAAAAAA2AAAAAAAAAAAIAA2A422AAA2AAA2AAA22A2I4A4A4A2A
AAAAA2AA222A2AAAAAAA2AAAAAIAAAAAIAA2A422AAA2AAA2AAA22A2I4A4A4A2A
AAAAA2AA222A2AAAAAAA2AAAAAIAAAAAIAAAA422AAA2AAA2AAA22A2I4A4A4A2A
AAAAA2AA222A2AAAAAAA2AAAAAIAAAAAIAAAA422AAA2AAA2AAA22A2I4A4A4A2I
AAAAA2AA222A2AAAAAAA2AAAAAIAAAAAIAAIA422AAA2AAA2AAA22A2I4A4A4A2I
AAAAA2AA222A2AAAAAAA2AAAAAIAAAAAIAAIA422AAA2AAA2AAA22A244A4A4A2I
AAAAA2AA222A2AAAAAAA2AAAAAIAAAAAIAAIA422AAA2AAA2IAA22A244A4A4A2I
AAAAA2AA222A2AAAAAAA2AAAAAIAAAAA4AA4A422AAA2AAA2IAA22A244A4A4A2I
AAAAA2AA222A2AAAAAAA2AAAAAIAAAAA4AA4A422AAA2AAA2IAA22A242A2A4A24
AAAAA2IA222A2AAAAAAA2AAAAAIAAAAA4AA4A422AAA2AAA2IAA22A242A2A4A24
AAAAA2IA222A2AAAAAAA2AAAIAIAAAAA4AA4A422AAA2AAA2IAA22A242A2A4A24
AAAAA2IA222A2AAAAAAA2AAAIAIAAAAA4AA4A422AAA2AAA2IAI22A242A2A4A24
AAAAA2IA222A2AAAAAAA2AAAIAIAAAAA2AA4A422AAA2AAA2IAI22A242A2A4A24
AAAAA2IA222A2AAAAAAA2AAAIAIAAAAA2AA4A422AAA2AAA2IAI22A242A2A4I24
AAAAA2IA222A2AAAAAAA2AAA2AIAAAAA2AA4A422AAA2AAA2IAI22A242A2A4I24
AAAAA22A222A2AAAAAAA2AAA2AIAAAAA2AA4A422AAA2AAA2IAI22A242A2A4I24
AAAAA22A222A2AAAAAAA2AAA2AIAAAAA2AA4A422AAA2AAA24AI22A242A2A4I24
AAAAA22A222A2AAAAAAA2AAA2AIAAAAA2AA4A422AAA2AAA24AI22A2A2A2A4424
AAAAA22A222A2AAAAAAA2AAA2AIIAAAA2AA4A422AAA2AAA24AI22A2A2A2A4424
AAAAA22A222A2AAAAAAA2AAA2AIIAAAA2AA4A422AAA2AAA24AI22A2A2A2A442A
AAAAA22A222A2AAAAAAA2AAA2A44AAAA2AA4A422AAA2AAA24AI22A2A2A2A442A
AAAAA22A222A2AAAAAAA2AAA2A44AAAA2AA4A422AAA2AAA24AI22A2A2A2AA42A
AAAAA22A222A2AAAAAAA2AIA2A44AAAA2AA4A422AAA2AAA24AI22A2A2A2AA42A
AAAAA22A222A2AAAAAAA2AIA2A44AAAA2AA4A422AAAAAAA24AI22A2A2A2AA42A
AAAAA22A222A2AAAAAAA2AIA2A44AAAA2AA4A422AAAAAAA22AI22A2A2A2AA42A
AAAAA22A222I2AAAAAAA2AIA2A44AAAA2AA4A422AAAAAAA22AI22A2A2A2AA42A
AAAAA22A222I2AAAAAAA2AIA2A44AAAA2AA4A422AAAAAAA22AI22A2A2A2AI42A
AAAAA22A222I2AAAAAAA2AIA2A44AAAA2AA4A422AAAAAAA22AI22A2A2A2AI42I
AAAAA22A222I2AAAAAAA2AIA2A44AAAA2AA4A422AAAAAAA22AI22A2AAA2AI42I
AAAAA22A222I2AAAAAAA2AIA2A24AAAA2AA4A422AAAAAAA22AI22A2AAA2AI42I
AAAAA22A222I2AAAAAAA2AIA2A24AAAA2AA4A422AAAAAAA22AI22A2AAA2AA422
AAAAA22A22242AAAAAAA2AIA2A24AAAA2AA4A422AAAAAAA22AI22A2AAA2AA422
AAAAA22A22242AAAAAAA2AAA2A22AAAA2AA4A422AAAAAAA22AI22A2AAA2AA422
AAAAA22A22242AAAAAAA2AAA2A22AAAA2AA4A422AAAAAAA22AA22A2AAA2AA422
AAAAA22A22242AAAAAAA2AAA2A22AAAA2AA4A422AAAAAAA22AA22A2AAA2AAA22
AAAAA22A2A242AAAAAAA2AAA2A22AAAA2AA4A422AAAAAAA22AA22A2AAA2AAA22
AAAAA22A2A242AAAAAAA2AIA2A22AAAA2AA4A422AAAAAAA22AA22A2AAA2AAA22
AAAAA22A2A222AAAAAAA2AIA2A22AAAA2AA4A422AAAAAAA22AA22A2AAA2AAA22
AAAAA22A2A222AAAAAAA2AIA2A22AAAA2AA4A422AAAAAAA22AA22A2IAA2AAA22
AAAAA22A2A222AAAAAAA2AIA2A22AAAA2AA4A422AAAAAAA22AA2AA22AA2AAA22
AAAAA22A2A222AAAAAAA2AIA2A22AAAA2AA4A422AAAAAAA22AA2AA22AAAAAA22
AAAIA22A2A222AAAAAAA2AIA2A22AAAA2AA4A422AAAAAAA22AA2AA22AAAAAA22
AAAIA22A2A2I2AAAAAAA2AIA2A22AAAA2AA4A422AAAAAAA22AA2AA22AAAAAA22
AAAIA22A2A2I2AAAAAAA2A2A2A22AAAA2AA4A422AAAAAAA22AA2AA22AAAAAA22
AAAIA22A2A2I2AAAAAAI2A2A2A22AAAA2AA4A422AAAAAAA22AA2AA22AAAAAA22
AAAIA22A2A2I2AAAAAAI2A2A2A22AAAA2AA4A422AAAAAAA22AA2IA22AAAAAA22
AAAIA22A2A2I2AAAAAAI2AAA2A22AAAA2AA4A422AAAAAAA22AA2IA22AAAAAA22
AAAIA22A2A2I2AAAAAAI2AAA2A22AAAA2AA4A422AAAAAAA22AA24A22AAAAAA22
AAAIA22A2A2I2AAAAAAI2AAA2A22AAAA2AA4A422AAAAAAA22AA24A2AAAAAAA22
AAAIA22A2A2I2AAAAAAI2AAA2A22AAAA2AA4A422AAAAAAA22AA22A2AAAAAAA22
AAA2A22A2A242AAAAAAI2AAA2A22AAAA2AA4A422AAAAAAA22AA22A2AAAAAAA22
AAA2A22A2A242AAAAAAI2AAA2A22AAAA2AA4A422AAAAAAA22AA22A2IAAAAAA22
AAA2A22A2A242AAAAAAI2AAA2A22AAAA2AA4A422AAAAAAAA2AA22A22AAAAAA22
AAA2A22A2A242AAAAAAI2AIA2A22AAAA2AA4A422AAAAAAAA2AA22A22AAAAAA22
AAA2A22A2A242AAAAAAI2AIA2A22AAAA2AAAA222AAAAAAAA2AA22A22AAAAAA22
AAA2A22A2A242AAAAAAI2AIA2A22AAAA2AAAA222IAAAAAAA2AA22A22AAAAAA22
AAA2A22A2A242AAAAAAI2AIA2A22AAAA2AAAA222IAAAAAAA2AA2IA22AAAAAA22
AAA2A22A2A242AAAAAAI2AIA2A22AAAA2AAAA222IAAAAAAAAAA2IA22AAAAAA22
AAA2A22A2A242AAAAAA22AIA2A22AAAA2AAAA222IAAAAAAAAAA2IA22AAAAAA22
AAA2A22A2A242AAAAAA22AIA2A22AAAA2AAAAI22IAAAAAAAAAA2IA22AAAAAA22
AAA2A22A2A242AAAIAA22AIA2A22AAAA2AAAAI22IAAAAAAAAAA2IA22AAAAAA22
AAA2A22A2A242AAAIAA22AIA2A22AAAA2AAAAI22IAAAAAAAIAA2IA22AAAAAA22
AAA2A22A2A242AAAIAA22AAA2A22AAAA2AAAAI22IAAAAAAAIAA2IA22AAAAAA22
AAA2A22A2A242AAAIAA22AAA2A22AAAA2AAAAI22IAAAAAAA2AA2IA22AAAAAA22
AAA2A22A2A242AAAIAA22AAA2A22AAAA2AAAAI22AAAAAAAA2AA24A22AAAAAA22
AAA2A22A2A242AAA4AA22AAA2A22AAAA2AAAAI22AAAAAAAA2AA24A22AAAAAA22
AAA2A22A2A242AAA4AA22AAA2A2AAAAA2AAAAI22AAAAAAAA2AA24A22AAAAAA22
AAA2A22A2A242AAA4AA22AAA2A2AAAAA2AAAAI22AAIAAAAA2AA24A22AAAAAA22
AAA2A22A2A242AAA4AA22AAA2A2AAAAA2AAAAI22AAIAAAAAIAA24A22AAAAAA22
AAA2A22A2A242AAA4AA22AAA2A2AAAAA2AAIAI22AAIAAAAAIAA24A22AAAAAA22
AAA2A22A2A242AAA4AA22AAA2A2AAAAA2AAIA222AA4AAAAAIAA24A22AAAAAA22
AAA2A22A2A242AAA4AA22AAA2A2IAAAA2AAIA222AA4AAAAAIAA24A22AAAAAA22
AAA2A22A2A242AAA4AA22AAA2A2IAAAA2AAIA222AA4AAAAAIAA24A22AAAAAI22
AAA2A22A2A242AAA4AA22AAA2A2IAAAA2AAIA222AA4AAAAAIAA24A22AAAAAI2A
AAA2A22A2A242AAA4AA22AAA2A2IAAAA2AAIA222AA4AAIAAIAA24A22AAAAAI2A
AAA2A22A2A242AAA4AA22AAA2A2IAAAA2AAIA222AA4AAIAAIAA24A22AAAAA42A
AAA2A22A2A242AAA4AA22AAA2A24AAAA2AA4A222AA4AAIAAIAA24A22AAAAA42A
AAA2A22A2A242AAA4AA22AAA2A24AAAA2AA4A222AA4AAIAAIAA24A2AAAAAA42A
AAA2A22A2A242AAA4AA22AAA2A24AAAA2AI4A222AA4AAIAAIAA24A2AAAAAA42A
AAA2A22A2A242AAA4AA22AAA2A24AAAA2AIAA222AA4AAIAA4AA24A2AAAAAA42A
AAA2A22A2A242AAA4AA22AAA2A24AAAA2A4AA222AA4AAIAA4AA24A2AAAAAA42A
AAA2A22A2A242AAA4AA22AAA2A24AAAA2A4AA22AAA2AA2AA4AA24A2AAAAAA42A
AAA2A22A2A242AAA4AAA2AAA2A22AAAA2A4AA22AAA2AA2AA4AA24A2AAAAAA42A
AAA2A22A2A242AAA4AAA2AAA2A22AAAA2A4AA22AAA2AA2AA4AA24A2IAAAAA42A
AAA2A22A2A242AAA4AAA2AAA2A22AAAA2A4AA22AAA2AA2AAAAA24A2IAAAAA42A
AAA2A22A2A242AAA4AAA2AAA2A22AAAA2A4AA22AAAIAA2AAAAA24A2IAAAAA42A
AAA2A22A2A242AAA4AAI2AAA2A22AAAA2A4AA22AAAIAA2AAAAA24A2IAAAAA42A
AAA2A22A2A242AAA4AAI2IAA2A22AAAA2A4AA22AAAIAA2AAAAA24A2IAAAAA42A
AAA2A22A2A242AAA2AAI24AA2A22AAAA2A4AA22AAAIAA2AAAAA24A2IAAAAA42A
AAA2A22A2A242AAA2AAI24AA2A22AAAA2A4AA22AAAIAA2AAAAA24A2IAAAAAA2A
AAA2A22A2A242AAA2AAI24AA2A22AAAA2A4AA22AAAIAA2AAAAA24A24AAAAAA2A
AAA2A22A2A242AAA2AAI24AA2A22AAAA2A4AA22AAAIAA2AAAAA24A2AAAAAAA2A
AAA2A22A2A242AAA2AAI24AA2A2AAAAA2A4AA22AAA4AA2AAAAA24A2AAAAAAA2A
AAA2A22A2A242AAA2AAI24AA2A2AAAAA2A4AA22AAA4AA2AAAAA24A2AAAAAAI2A
AAA2A22A2A242AAA2AAI24AA2A2AAAAA2A4AAA2AAA4AA2AAAAA24A2AAAAAAI2A
AAA2A22A2A242AAAAAA224AA2A2AAAAA2A4AAA2AAA4AA2AAAAA24A2AAAAAAI2A
AAA2A22A2A242AAAAAAA24AA2A2AAAAA2A4AAA2AAA4AA2AAAAA24A2AAAAAAI2A
AAA2A22A2A242AAAAAAA24AA2A2IAAAA2A4AAA2AAA4AA2AAAAA24A2AAAAAAI2A
AAA2A22A2A242AAAIAAA24AA2A2IAAAA2A4AAA2AAA4AA2AAAAA24A2AAAAAAI2A
AAA2A2AA2A222AAAIAAA24AA2A2IAAAA2A4AAA2AAA4AA2AAAAA24A2AAAAAAI2A
AAA2A2AA2A222AAAIAAA24AA2A2IAAAA2A4AAI2AAA4AA2AAAAA24A2AAAAAAI2A
AAA2A2AA2A222AAAIAAA24AA2A2IAAAA2A4AAI2AAAAAA2AAAAA24A2AAAAAAI2A
AAA2A2AA2A222AAAIAAA24AA2A22AAAA2A4AAI2AAAAAA2AAAAA24A2AAAAAAI2A
AAA2A2AA2A222AAAIAAA24AA2A22AAAA2A4AAI2AAAAAA2AAAAA24A2AAAAAA42A
AAA2A2AA2A222AAAIAAA2AAA2A22AAAA2A4AA42AAAAAA2AAAAA24A2AAAAAA42A
AAA2A2AA2A222AAAIAAA2AAA2A22AAAAAA4AA22AAAAAA2AAAAA24A2AAAAAA42A
AAA2A2AA2A222AAA2AAA2AAA2A22AAAAAA4AA22AAAAAA2AAAAA24A2AAAAAA42A
AAA2A2AA2A222AAAAAAA2AAA2A22AAAAAA4AA22AAAAAA2AAAAA24A2AAAAAA42A
AAA2A2AA2A222AAAIAAA2AAA2A22AAAAAA4AA22AAAAAA2AAAAA24A2AAAAAA42A
AAA2A2AA2A222AAAIAAA2IAA2A22AAAAAA4AA22AAAAAA2AAAAA24A2AAAAAA42A
AAA2A2AA2A222AAA4AAA2IAA2A22AAAAAA4AA22AAAAAA2AAAAA24A2AAAAAA42A
AAA2A2AA2A222AAA4AAA2IAA2A22AAAAAA4AA22AAAAAA2AAAAA24A2IAAAAA42A
AAA2A2AA2A222AAA4AAA22AA2A22AAAAAA4AA22AAAAAA2AAAAA24A2IAAAAA42A
AAA2A2AA2A222AAA4AAA22AA2A22AAAAAA4AA22AIAAAA2AAAAA24A2IAAAAA42A
AAA2A2AA2A222AAA4IAA22AA2A22AAAAAA4AA22AIAAAA2AAAAA24A2IAAAAA42A
AAA2A2AA2A222AAA4IAA22AA2A22AAAAAA4AA22AAAAAA2AAAAA24A2IAAAAA42A
AAA2A2AA2A222AIA4IAA22AA2A22AAAAAA4AA22AAAAAA2AAAAA24A2IAAAAA42A
AAA2A2AA2A222AIA4IAA2IAA2A22AAAAAA4AA22AAAAAA2AAAAA24A2IAAAAA42A
AAAAA2AA2A222A4A4IAA24AA2A22AAAAAA4AA22AAAAAA2AAAAA24A2IAAAAA42A
AAAAA2AA2A222A4A4IAA24AA2A22AAIAAA4AA22AAAAAA2AAAAA24A2IAAAAA42A
AAAAA2AA2A222A4A44AA24AA2A22AAIAAA4AA22AAAAAA2AAAAA24A2IAAAAA42A
AAAAA2AA2A222A4A44AA24AA2A22AAIAAA4AA22AIAAAA2AAAAA24A2IAAAAA42A
AAAAA2AA2A222A4A44AA24AA2A2AAA2AAA4AA22A4AAAA2AAAAA24A2IAAAAA42A
AAAIA2AA2A222A4A44AA24AA2A2AAA2AAA4AA22A4AAAA2AAAAA24A2IAAAAA42A
AAAIA2AA2A222A4A44AA24AA2A2AAA2AAA4AA22AAAAAA2AAAAA24A24AAAAA42A
AAAIA2AA2A222A4AA4AA24AA2A2AAA2AAA4AA22AAAAAA2AAAAA24A24AAAAA42A
AAAIA2AA2A222A4AAAAA22AA2A2AAA2AAA4AA22AAAAAA2AAAAA24A24AAAAA42A
AAAIA2AA2A222A4AAAAA22AA2AAAAA2AAA2AA22AAAAAA2AAAAA24A24AAAAA42A
AAAIA2AA2A222A4AIAAA22AA2AAAAA2AAA2AA22AAAAAA2AAAAA24A24AAAAA42A
AAAIA2AA2A222A4AIAAA22AA2AIAAA2AAA2AA22AAAAAA2AAAAA24A24AAAAA42A
AAA2A2AA2A222A4A4AAA22AA2AIAAA2AAA2AA22AAAAAA2AAAAA24A24AAAAA42A
AAA2A2AA2A222A4A4AAA2AAA2A2AAA2AAA2AA22AAAAAA2AAAAA24A24AAAAA42A
AAA2A2AA2A222A4A4AAA2AAA2A2AAA2AAA2AA22AAAAAA2AAAAA24A2AAAAAA42A
AAA2A2AA2A222AAA4AAA2AAA2A2AAA2AAA2AA22AAAAAA2AAAAA24A2AAAAAA42A
AAA2A2AA2A222AAA4AAA2IAA2A2AAA2AAA2AA22AAAAAA2AAAAA24A2AAAAAA42A
AAA2A2AA2A222AAA4AAA2IAA2AIAAA2AAA2AA22AAAAAA2AAAAA24A2AAAAAA42A
AAA2A2AA2A222AAA4AAA2IAA2AIAAA2AAA2AA22AAAAAA2AAAAA24A2AAAAAAA2A
AAA2A2AA2A222AAA4AAA2IAAAAIAAA2AAA2AA22AAAAAA2AAAAA24A2AAAAAAA2A
AAA2A2AA2A222AIA4AAA2IAAAAIAAA2AAA2AA22AAAAAA2AAAAA24A2AAAAAAA2A
AAA2A2AA2A222AIA4AAA2IAAIAIAAA2AAA2AA22AAAAAA2AAAAA24A2AAAAAAA2A
AAA2A2AA2A222AIA4AAA2IAA2A2AAA2AAA2AA22AAAAAA2AAAAA24A2AAAAAAA2A
AAA2A2AA2A222AIA2AAA2IAA2A2AAA2AAA2AA22AAAAAA2AAAAA24A2AAAAAAA2A
AAA2A2AA2A222AIA2AAA2IAA2AIAAA2AAA2AA22AAAAAA2AAAAA24A2AAAAAAA2A
AAA2A2AA2A2A2A2A2AAA2IAA2A4AAA2AAA2AA22AAAAAA2AAAAA24A2AAAAAAA2A
AAA2A2AA2A2A2A2A2AAA24AA2A4AAA2AAA2AA22AAAAAA2AAAAA24A2AAAAAAA2A
AAA2A2AA2A2A2A2A2AAA24AA2A4AAA2AAA2AA22AAAAAA2AAAAA24A2IAAAAAA2A
AAA2A2AA2A2A2A2AIAAA24AA2A4AAA2AAA2AA22AAAAAA2AAAAA24A2IAAAAAA2A
AAA2A2AA2A2A2A2AIAAA24AA2A4AAA2AAA2AA22AAAAAA2AAAAA24A2IAAAAAA2I
AAA2A2AA2A2A2A2AAAAA22AA2A4AAA2AAA2AA22AAAAAA2AAAAA24A2IAAAAAA2I
AAA2A2AA2A2A2A2AAAAA22AA2A4AAA2AAA2AA22AAAAAA2AAAAA24A2AAAAAAA24
AAAAA2AA2A2A2A2AAAAA22AA2A4AAA2AAA2AA22AAAAAA2AAAAA24A2AAAAAAA24
AAAAA2AA2A2A2A2AAAAA22AA2A4AAA2AAA2AA22AIAAAA2AAAAA24A2AAAAAAA24
AAAAA2IA2A2A2A2AAAAA22AA2A4AAA2AAA2AA22AIAAAA2AAAAA24A2AAAAAAA24
AAAAA2IA2A2A2A2AIAAA22AA2A4AAA2AAA2AA22AIAAAA2AAAAA24A2AAAAAAA24
AAAAA2IA2A2A2A2AIAAA22AA2A4AAA2AAA2AA22AIAAAA2AAAAA24A2AIAAAAA24
AAAAA2IA2A2A2A2AIAAA22AA2A4AAA2AAA2AA22A4AAAA2AAAAA24A2AIAAAAA24
AAAAA2IA2I2A2A2AIAAA22AA2A4AAA2AAA2AA22A4AAAA2AAAAA24A2AIAAAAA24
AAAAA2IA2I2A2A2AIAAA22AA2A4AAA2AAA2AA22A4AAAA2AAAAA24A2A2AAAAA24
AAAAA2IA2I2A2A2AIAAA22AA2A4AAA2AAA2AA22A4AAAA2AAAAA22A2A2AAAAA24
AAAAA2IA2I2A2AAAIAAA22AA2A4AAA2AAA2AA22A4AAAA2AAAAA22A2A2AAAAA24
AAAAA2IA2I2A2AAAIAAA22AA2A2AAA2AAA2AA22A4AAAA2AAAAA22A2A2AAAAA24
AAAAA2IA2I2A2AAAIAAA22AA2A2AAA2AAA2AA22AAAAAA2AAAAA22A2A2AAAAA24
AAAAA2IA2I2A2AAAIAAA22AA2A2AAI2AAA2AA22AAAAAA2AAAAA22A2A2AAAAA24
AAAAA2IA2I2A2AAAIAAA22AA2A2AAI2AAA2AA22AAAAAA2AAAAA2IA2A2AAAAA24
AAAAA2IA242A2AAA4AAA22AA2A2AAI2AAA2AA22AAAAAA2AAAAA2IA2A2AAAAA24
AAAAA2IA242A2AIA4AAA22AA2A2AAI2AAA2AA22AAAAAA2AAAAA2IA2A2AAAAA24
AAAAA2IA242A2AIA4AAA22AA2AIAAI2AAA2AA22AAAAAA2AAAAA2IA2A2AAAAA24
AAAAA2IA242A2AIA4AAA22AA2AIAAI2AAA2AA22AAAAAA2AAIAA2IA2A2AAAAA24
AAAAA2IA242A2AIA4AAA22AA2AIAAI2AAA2AA22AAAAAA2AAIAI2IA2A2AAAAA24
AAAAA2IA242A2AIA4AAA22AA2AIAAI2AAA2AA22AAAAAA2AAIAI2IA2A2AAAAA2A
AAAAA22A222A2A4A4AAA22AA2AIAAI2AAA2AA22AAAAAA2AAIAI2IA2A2AAAAA2A
AAAAA22A222A2A4A4AAA22AA2AIAAI2AAA2AA22AAAAAA2AAIA22IA2A2AAAAA2A
AAAAA22A222A2A4A4AAA22AA2AIAAI2AAA2AA22AIAAAA2AAIA22IA2A2AAAAA2A
AAAAA22A222A2A4A4AAA22AA2AIAAI2AAA2AA22AIAAAA2AAIA22IA2AAAAAAA2A
AAAAA22A222A2A4A4AAA22AA2AIAAI2AAA2AA22AIAAIA2AAIA22IA2AAAAAAA2A
AAAAA2IA222A2A4A4AAA22AA2AIAAI2AAA2AA22AIAAIA2AAIA22IA2AAAAAAA2A
AAAAA2IA2I2A2A4A4AAA22AA2AIAAI2AAA2AA22AIAAIA2AAIA22IA2AAAAAAA2A
AAAAA2IA2I2A2A4A4AAA22AA2AIAAI2AAA2AA22AIAAIA2AAIAI2IA2AAAAAAA2A
AAAAA2IA2I2A2A4A4AAA22AA2AIAAI2AAA2AA22AIAAIA2AAAAI2IA2AAAAAAA2A
AAAAA2IA2I2A2A4A4AAA22AA2AIAAI2AAA2AA22AIAAAA2AAAA224A2AAAAAAA2A
AAAAA2IA2I2A2A4A2AAA22AA2A4AAI2AAA2AA22AIAAAA2AAAA224A2AAAAAAA2A
AAAAA2IA2I2A2A4A2AAA22AA2A4AA42AAA2AA22A4AAAA2AAAA224A2AAAAAAA2A
AAAAA2IA2I2A2A4A2AAA22AA2A4AA42AAA2AA22AAAAAA2AAAA224A2AAAAAAA2A
AAAAA24A242A2A4A2AAA22AA2A4AA42AAA2AA22AAAAAA2AAAA224A2AAAAAAA2A
AAAAA24A242A2I4A2AAA22AA2A4AA42AAA2AA22AAAAAA2AAAA224A2AAAAAAA2A
AAAAA24A242A2I4AIAAA22AA2A4AA42AAA2AA22AAAAAA2AAAA224A2AAAAAAA2A
AAAAA24A242A2I4AIAAA22IA2A4AA42AAA2AA22AAAAAA2AAAA224A2AAAAAAA2A
AAAAA24A242A2I4AIAAA22IA2A4AA42AAA2AA22AAAAAA2AAAA224A2AAAAAAA2I
AAAAA24A242A2I4AIAAA22IA2A4AA42AAA2AA22AIAAAA2AAAA224A2AAAAAAA2I
AAAIA24A242A2I4AIAAA22IA2A4AA42AAA2AA22AIAAAA2AAAA224A2AAAAAAA2I
AAAIA2AA242A2I2AIAAA224A2A4AA42AAA2AA22AIAAAA2AAAA224A2AAAAAAA2I
AAAIA2AA242A2I2AIAAA224A2A4AA42AAA2AA22AIAIAA2AAAA224A2AAAAAAA2I
AAAIA2AA242A2I2AIAAA22AA2A4AA42AAA2AA22AIAIAA2AAAA224A2AAAAAAA2I
AAAIA2AA242A2I2AIAAA22AA2A4AA42AAA2AA22AAAIAA2AAAA224A2AAAAAAA2I
AAA2A2AA242A242A4AAA22AA2A4AA42AAA2AA22AAAIAA2AAAA224A2AAAAAAA2I
AAA2A2AA242A242A4AAA22IA2A4AA42AAA2AA22AAAIAA2AAAA224A2AAAAAAA2I
AAA2A2AA242A242A4AAA22IA2A4AA42AAA2AA22AIAIAA2AAAA224A2AAAAAAA2I
AAA2A2AA242A242A4AAA22AA2A2AA42AAA2AA22A4AIAA2AAAA224A2AAAAAAA2I
AAA2A2AA242A242A4AAA22AA2A2AA42AAA2AA22A4AIAA2AAAA224A2AAAAAAA2A
AAA2A2AA242A242A4AAA22AA2A2AA42AAA2AA22AAAIAA2AAAA224A2AAAAAAA2A
AAA2A2AA222A242A4AAA22AA2A2AA42AAA2AA22AAAIAA2AAAA224A2AAAAAAA2A
AAA2A2AA222A242A4AAA22AA2A2AA42AAA2AA22AAAIAA2AAAA224A2AAAAAAA2I
AAA2A2AA222A242A4AAA22AA2A2AA22AAA2AA22AAAIAA2AAAA224A2AAAAAAA2I
AAA2A2AA222A242A4AAA22AA2A2AA22AAA2IA22AAAIAA2AAAA224A2AAAAAAA2I
AAA2A2AA222A242A4AAA22AA2A2AA22AAA2IA22AAAIAA2AAAA224A2AAAAAAA24
AAA2I2AA222A242A4AAA22AA2A2AA22AAA2IA22AAAIAA2AAAA224A2AAAAAAA24
AAA2I2AA222A242A4AAA22AA2A2AA22AAA2IA22AAAIAA2AAAA224A2AAAAAAA2A
AAA2I2AA222A242A4AAA22IA2A2AA22AAA2IA22AAAIAA2AAAA224A2AAAAAAA2A
AAA2I2AA222A242A4AAA22IA2A2AA22AAA22A22AAAIAA2AAAA224A2AAAAAAA2A
AAA2I2AA222A242A4AAA22IA2A2AA22AAA22A22AAAIAA2AAAA224A2IAAAAAA2A
AAA2I2AA222A242A4AAA22AA2A2AA22AAA22A22AAAIAA2AAAA224A2IAAAAAA2A
AAAAI2AA222A242A4AAA22AA2A2AA22AAA22A22AAAIAA2AAAA224A2IAAAAAA2A
AAAAI2AA222A242A4AAA22AA2A2AA22AAA22A22AAAIAA2AAAA224A2AAAAAAA2A
AAAAI2AA222A242A4AAA22AA2A2IA22AAA22A22AAAIAA2AAAA224A2AAAAAAA2A
AAAAI2AA222A242A4AAA22AA2A2IA22AAA22A22AAAIAA2AAAAA24A2AAAAAAA2A
AAAAI2AA222A242A4AAA22IA2A2IA22AAA22A22AAAIAA2AAAAA24A2AAAAAAA2A
AAAAI2AA222A242A4AAA2AIA2A22A22AAA22A22AAAIAA2AAAAA24A2AAAAAAA2A
AAAAI2AA222A242A4AAA2AIA2A22A22AAA22A22AAAIAA2AAAAA24A2IAAAAAA2A
AAAAI2AA222A242A4AAA2AIA2A22A22AAA22A22AAAIAA2AAAAI24A2IAAAAAA2A
AAAA22AA222A242A4AAA2AIA2A22A22AAA22A22AAAIAA2AAAAI24A2IAAAAAA2A
AAAA22AA222A242A4AAA2AAA2A22A22AAA22A22AAAIAA2AAAAI24A2IAAAAAA2A
AAAA22AA222A242A4AAA2AAA2A22A22AAA22A22AAAIAA2AAAAI24A24AAAAAA2A
AAAA22AA222A242A4AAA2AAA2A22A22AAA22A22AAAIAA2AAAAI24A2AAAAAAA2A
AAAA22AA222A242A4AAA2AAA2A22A22AAA22A22AIAIAA2AAAAI24A2AAAAAAA2A
AAAA22AA222A242A4AAA2AIA2A22A22AAA22A22AIAIAA2AAAAI24A2AAAAAAA2A
AAAA22AA222A242A4AAA2AIA2A22A22AAA22A22AIAIAA2AAAAI24A2IAAAAAA2A
AAAA22AA222A242A4AAA2AIA2A22A22AAAA2A22AIA4AA2AAAAI24A2IAAAAAA2A
AAAA22AA222A242A4AAA2A2A2A22A22AAAA2A22AIA4AA2AAAAI24A2IAAAAAA2A
AAAA22AA222A242A4AAA2A2A2A22AA2AAAA2A22A4A4AA2AAAAI24A2IAAAAAA2A
AAAA22AA222A242A4AAA2AAA2A22AA2AAAA2A22A4A4AA2AAAAI24A2IAAAAAA2A
AAAA22AA222A242A4AAA2AAA2A22AA2AAAA2A22A2A4AA2AAAA424A2IAAAAAA2A
AAAA22AA222A242A4AAA2AAA2A22AA2AAAA2A22A2AAAA2AAAA224A24AAAAAA2A
AAAA22AA222A242A4AAA2AAA2A22AA2AAAA2A22AAAAAA2AAAA224A24AAAAAA2A
AAAA22AA222A242A4IAA2AAA2A22AA2AAAA2A22AAAAAA2AAAA224A24AAAAAA2A
AAAA22AA222A242AAIAA2AAA2A22AA2AAAA2A22AAAAAA2AAAA224A24AAAAAA2A
AAAA22AA222A242AAIAA2AAA2A22AA2AAAA2A22AIAAAA2AAAA224A24AAAAAA2A
AAAA22AA222A242AAIAA2AAA2A22AA2AAAA2A22A4AAAA2AAAA224A24AAAAAA2A
AAAA22AA222A242AAIAA2AAA2A22AA2AAAA2A22A4AAAA2AAAA224A2AAAAAAA2A
AAAA22AA222A242AAIAA2AAA2A22AI2AAAA2A22A4AAAA2AAAA224A2AAAAAAA2A
AAAA22AA222A242AAIAA2AAA2A22AI2AAAAAA22A4AAAA2AAAA224A2AAAAAAA2A
AAAA22AA222A242AAIAA2AIA2A22AI2AAAAAA22A4AAAA2AAAA224A2AAAAAAA2A
AAAA22AA222A242AAIAA2AIA2A22AI2AAAAAA22A4AAAA2AAAA224A2IAAAAAA2A
AAAA22AA222A242AA4AA2AIA2A22AI2AAAAAA22A4AAAA2AAAA224A2IAAAAAA2A
AAAA22AA222A24AAA2AA2A2A2A22AI2AAAAAA22A4AAAA2AAAA224A2IAAAAAA2A
AAAA22AA222A24AAA2AA2A2A2A22AI2AAAAIA22A4AAAA2AAAA224A2IAAAAAA2A
AAAA22AA222A24AAAIAA2A2A2A22AI2AAAAIA22A4AAAA2AAAA224A2IAAAAAA2A
AAAA22AA222A24AAAIAA2A2A2A22AI2AAAAIA22A2AAAA2AAAA224A2IAAAAAA2A
AAAA22AA222A24AAA2AA2A2A2A22AI2AAAAIA22A2AAAA2AAAA224A2IAAAAAA2A
AAAA22AA222A24AAA2AA2A2A2A22AI2AAAAIA22A2AAAA2AAAAA22A22AAAAAA2A
AAAA22AA222A24IAA2AA2A2A2A22AI2AAAAIA22A2AAAA2AAAAA22A22AAAAAA2A
AAAA22AA222A24IAAIAA2A2A2A22AI2AAAAIA22A2AAAA2AAAAA22A22AAAAAA2A
AAAA22AA222A24IAAIAA2AAA2A22AI2AAAA4A22A2AAAA2AAAAA22A22AAAAAA2A
AAAA22AA222A24IAAIAA2AAA2A2AAI2AAAA4A22A2AAAA2AAAAA22A22AAAAAA2A
AAAA22AA222A24IAAIAA2AAA2A2AAI2AAAA4A22A2AAAA2AAAAI22A22AAAAAA2A
AAAA22AA222A24IAAIAA2AAA2A2AAI2AAAA4A22A2AAAA2AAAAI22A2IAAAAAA2A
AAAA22AA222A24IAAIAA2AAA2A2AAI2AAAA4A22A2AAAA2AAAAI22A2IAAAAIA2A
AAAA22AA222A2AIAA2AA2AAA2A2AA42AAAA4A22A2AAAA2AAAAI22A2IAAAAIA2A
AAAA22AA222A2AIAA2AA2AAA2A2IA42AAAA4A22A2AAAA2AAAAI22A2IAAAAIA2A
AAAA22AA222A2AIAA2AA2AAA2A2IA42AAAA4A22A2AAAA2AAAAA22A2IAAAAIA2A
AAAA22AA222A2AIAA2AA2AAA2A24A42AAAA4A22A2AAAA2AAAAA22A2IAAAAIA2A
AAAA22AA222A2AIAA2AA2AAA2A24A42AAAA4A22A2AAAA2AAAAA22A2IAAAA2A2A
AAAA22AA222A2AIAA2AA2AAA2A24A42AAAA4A22A2AAAA2AAAAA2AA22AAAA2A2A
AAAA22AA222A2A4AA2AA2AAA2A24A42AAAA4A22A2AAAA2AAAAA2AA22AAAA2A2A
AAAA22AA222A2I4AA2AA2AAA2A24A42AAAA4A22A2AAAA2AAAAA2AA22AAAA2A2A
AAAA22AA222A2I4AA2AA2AAA2A24A42AAAA4A22AAAAAA2AAAAA2AA22AAAA2A2A
AAAA22AA222A2I4AA2AA2AAA2A22A42AAAA4A22AAAAAA2AAAAA2AA22AAAA2A2A
AAAA22AA222A2I4AA2AA2AAA2A22A42AAAA4A22AIAAAA2AAAAA2AA22AAAA2A2A
AAAA22AA222A222AA2AA2AAA2A22A42AAAA4A22AIAAAA2AAAAA2AA22AAAA2A2A
AAAA22AA222A222AA2AA2AAA2A22A42AAAA4A22AIAAAA2AAAAA2AA22AAAA2I2A
[MLOP] Prefetch Degree Mean: 9.32085
[MLOP] Prefetch Degree SD: 2.01938
[MLOP] Max Score Left Mean (%): 58.52608
[MLOP] Max Score Left SD (%): 4.44743
[MLOP] Max Score Right Mean (%): 81.77274
[MLOP] Max Score Right SD (%): 4.58736

Channel_0_RQ_row_buffer_hit 1867979
Channel_0_RQ_row_buffer_miss 2230156
Channel_0_WQ_row_buffer_hit 19519
Channel_0_WQ_row_buffer_miss 36679
Channel_0_WQ_full 0
Channel_0_dbus_congested 1973447

avg_congested_cycle 9

DRAM_bw_pochs 1201191
DRAM_bw_level_0 569161
DRAM_bw_level_1 355645
DRAM_bw_level_2 161805
DRAM_bw_level_3 114580
