*************************************************
   ChampSim Multicore Out-of-Order Simulator
   Last compiled: Apr  3 2025 20:54:34
*************************************************
parsing config file: /home/zir/Pythia/config/mlop.ini

trace_0 /home/zir/ChampSim/ML-DPC/ChampSimTraces/spec06/482.sphinx3-s2.trace.gz
adding L2C_PREFETCHER: MLOP
Initialize SHIP state
warmup_instructions 10000000
simulation_instructions 50000000
champsim_seed 165
measure_ipc 0
measure_ipc_epoch 1000
measure_dram_bw 1
measure_dram_bw_epoch 256
measure_cache_acc 1
measure_cache_acc_epoch 1024
l1d_perfect 0
l2c_perfect 0
llc_perfect 0
l1d_semi_perfect 0
l2c_semi_perfect 0
llc_semi_perfect 0
semi_perfect_cache_page_buffer_size 64

num_cpus 1
cpu_freq 4000
dram_io_freq 2400
page_size 4096
block_size 64
max_read_per_cycle 8
max_fill_per_cycle 1
dram_channels 1
log2_dram_channels 0
dram_ranks 1
dram_banks 8
dram_rows 65536
dram_columns 128
dram_row_size 8
dram_size 4096
dram_pages 1048576

fetch_width 6
decode_width 6
exec_width 4
lq_width 2
sq_width 2
retire_width 4
scheduler_size 128
branch_mispredict_penalty 20
rob_size 256
lq_size 72
sq_size 56
num_instr_destinations_sparc 4
num_instr_destinations 2
num_instr_sources 4

itlb_set 16
itlb_way 8
itlb_rq_size 16
itlb_wq_size 16
itlb_pq_size 0
itlb_mshr_size 8
itlb_latency 1

dtlb_set 16
dtlb_way 4
dtlb_rq_size 16
dtlb_wq_size 16
dtlb_pq_size 0
dtlb_mshr_size 8
dtlb_latency 1

stlb_set 128
stlb_way 12
stlb_rq_size 32
stlb_wq_size 32
stlb_pq_size 0
stlb_mshr_size 16
stlb_latency 8

l1i_size 32
l1i_set 64
l1i_way 8
l1i_rq_size 64
l1i_wq_size 64
l1i_pq_size 8
l1i_mshr_size 8
l1i_latency 1

l1d_size 32
l1d_set 64
l1d_way 8
l1d_rq_size 64
l1d_wq_size 64
l1d_pq_size 8
l1d_mshr_size 16
l1d_latency 4

l2c_size 256
l2c_set 512
l2c_way 8
l2c_rq_size 32
l2c_wq_size 32
l2c_pq_size 32
l2c_mshr_size 32
l2c_latency 10

llc_size 2048
llc_set 2048
llc_way 16
llc_rq_size 32
llc_wq_size 32
llc_pq_size 32
llc_mshr_size 64
llc_latency 20

dram_channel_width 8
dram_wq_size 64
dram_rq_size 64
tRP 15
tRCD 15
tCAS 12.5
dram_dbus_turn_around_time 30
dram_write_high_wm 56
dram_write_low_wm 48
min_dram_writes_per_switch 16
dram_mtps 2400
dram_dbus_return_time 13

mlop_pref_degree 16
mlop_num_updates 500
mlop_l1d_thresh 2
mlop_l2c_thresh 0.75
mlop_llc_thresh 0.3
mlop_debug_level 0
mlop_blocks_in_cache 4096
mlop_blocks_in_zone 64
mlop_amt_size 2048
mlop_PF_DEGREE 16
mlop_NUM_UPDATES 500
mlop_L1D_THRESH 1000
mlop_L2C_THRESH 375
mlop_LLC_THRESH 150
mlop_ORIGIN 63
mlop_MAX_OFFSET 63
mlop_MIN_OFFSET -63
mlop_ORIGIN 63
mlop_NUM_OFFSETS 127


Heartbeat CPU  0 instructions:    1000003 cycles:     532824 heartbeat IPC: 1.87680 cumulative IPC: 1.87680 (Simulation time: 0 hr 0 min 1 sec) 
Heartbeat CPU  0 instructions:    2000002 cycles:    1093409 heartbeat IPC: 1.78385 cumulative IPC: 1.82914 (Simulation time: 0 hr 0 min 3 sec) 
Heartbeat CPU  0 instructions:    3000003 cycles:    1644377 heartbeat IPC: 1.81499 cumulative IPC: 1.82440 (Simulation time: 0 hr 0 min 4 sec) 
Heartbeat CPU  0 instructions:    4000000 cycles:    2008223 heartbeat IPC: 2.74841 cumulative IPC: 1.99181 (Simulation time: 0 hr 0 min 5 sec) 
Heartbeat CPU  0 instructions:    5000000 cycles:    2405900 heartbeat IPC: 2.51460 cumulative IPC: 2.07822 (Simulation time: 0 hr 0 min 7 sec) 
Heartbeat CPU  0 instructions:    6000000 cycles:    2937365 heartbeat IPC: 1.88159 cumulative IPC: 2.04265 (Simulation time: 0 hr 0 min 8 sec) 
Heartbeat CPU  0 instructions:    7000000 cycles:    3497724 heartbeat IPC: 1.78457 cumulative IPC: 2.00130 (Simulation time: 0 hr 0 min 9 sec) 
Heartbeat CPU  0 instructions:    8000000 cycles:    4043278 heartbeat IPC: 1.83300 cumulative IPC: 1.97859 (Simulation time: 0 hr 0 min 11 sec) 
Heartbeat CPU  0 instructions:    9000001 cycles:    4407069 heartbeat IPC: 2.74883 cumulative IPC: 2.04217 (Simulation time: 0 hr 0 min 12 sec) 
Heartbeat CPU  0 instructions:   10000003 cycles:    4803249 heartbeat IPC: 2.52411 cumulative IPC: 2.08192 (Simulation time: 0 hr 0 min 13 sec) 

Warmup complete CPU  0 instructions:   10000003 cycles:    4803249 (Simulation time: 0 hr 0 min 13 sec) 

Heartbeat CPU  0 instructions:   11000001 cycles:    6463437 heartbeat IPC: 0.60234 cumulative IPC: 0.60234 (Simulation time: 0 hr 0 min 15 sec) 
Heartbeat CPU  0 instructions:   12000000 cycles:    8041350 heartbeat IPC: 0.63375 cumulative IPC: 0.61765 (Simulation time: 0 hr 0 min 17 sec) 
Heartbeat CPU  0 instructions:   13000001 cycles:    9533774 heartbeat IPC: 0.67005 cumulative IPC: 0.63418 (Simulation time: 0 hr 0 min 19 sec) 
Heartbeat CPU  0 instructions:   14000002 cycles:   10141594 heartbeat IPC: 1.64523 cumulative IPC: 0.74930 (Simulation time: 0 hr 0 min 20 sec) 
Heartbeat CPU  0 instructions:   15000000 cycles:   10840874 heartbeat IPC: 1.43004 cumulative IPC: 0.82814 (Simulation time: 0 hr 0 min 22 sec) 
Heartbeat CPU  0 instructions:   16000000 cycles:   12483238 heartbeat IPC: 0.60888 cumulative IPC: 0.78125 (Simulation time: 0 hr 0 min 24 sec) 
Heartbeat CPU  0 instructions:   17000000 cycles:   14067082 heartbeat IPC: 0.63138 cumulative IPC: 0.75563 (Simulation time: 0 hr 0 min 26 sec) 
Heartbeat CPU  0 instructions:   18000002 cycles:   15672111 heartbeat IPC: 0.62304 cumulative IPC: 0.73605 (Simulation time: 0 hr 0 min 28 sec) 
Heartbeat CPU  0 instructions:   19000001 cycles:   16346515 heartbeat IPC: 1.48279 cumulative IPC: 0.77968 (Simulation time: 0 hr 0 min 29 sec) 
Heartbeat CPU  0 instructions:   20000000 cycles:   16913160 heartbeat IPC: 1.76477 cumulative IPC: 0.82577 (Simulation time: 0 hr 0 min 31 sec) 
Heartbeat CPU  0 instructions:   21000000 cycles:   18498690 heartbeat IPC: 0.63070 cumulative IPC: 0.80319 (Simulation time: 0 hr 0 min 33 sec) 
Heartbeat CPU  0 instructions:   22000002 cycles:   20106005 heartbeat IPC: 0.62216 cumulative IPC: 0.78417 (Simulation time: 0 hr 0 min 35 sec) 
Heartbeat CPU  0 instructions:   23000003 cycles:   21910047 heartbeat IPC: 0.55431 cumulative IPC: 0.75993 (Simulation time: 0 hr 0 min 36 sec) 
Heartbeat CPU  0 instructions:   24000000 cycles:   22778760 heartbeat IPC: 1.15112 cumulative IPC: 0.77884 (Simulation time: 0 hr 0 min 38 sec) 
Heartbeat CPU  0 instructions:   25000000 cycles:   23347380 heartbeat IPC: 1.75864 cumulative IPC: 0.80888 (Simulation time: 0 hr 0 min 40 sec) 
Heartbeat CPU  0 instructions:   26000001 cycles:   24512050 heartbeat IPC: 0.85861 cumulative IPC: 0.81182 (Simulation time: 0 hr 0 min 41 sec) 
Heartbeat CPU  0 instructions:   27000001 cycles:   26158071 heartbeat IPC: 0.60753 cumulative IPC: 0.79607 (Simulation time: 0 hr 0 min 43 sec) 
Heartbeat CPU  0 instructions:   28000000 cycles:   27920447 heartbeat IPC: 0.56742 cumulative IPC: 0.77864 (Simulation time: 0 hr 0 min 45 sec) 
Heartbeat CPU  0 instructions:   29000000 cycles:   29087932 heartbeat IPC: 0.85654 cumulative IPC: 0.78239 (Simulation time: 0 hr 0 min 47 sec) 
Heartbeat CPU  0 instructions:   30000000 cycles:   29658066 heartbeat IPC: 1.75397 cumulative IPC: 0.80467 (Simulation time: 0 hr 0 min 48 sec) 
Heartbeat CPU  0 instructions:   31000002 cycles:   30629145 heartbeat IPC: 1.02978 cumulative IPC: 0.81314 (Simulation time: 0 hr 0 min 50 sec) 
Heartbeat CPU  0 instructions:   32000000 cycles:   32288103 heartbeat IPC: 0.60279 cumulative IPC: 0.80044 (Simulation time: 0 hr 0 min 52 sec) 
Heartbeat CPU  0 instructions:   33000000 cycles:   33911964 heartbeat IPC: 0.61582 cumulative IPC: 0.79014 (Simulation time: 0 hr 0 min 54 sec) 
Heartbeat CPU  0 instructions:   34000000 cycles:   35296423 heartbeat IPC: 0.72230 cumulative IPC: 0.78706 (Simulation time: 0 hr 0 min 56 sec) 
Heartbeat CPU  0 instructions:   35000003 cycles:   35866014 heartbeat IPC: 1.75565 cumulative IPC: 0.80482 (Simulation time: 0 hr 0 min 57 sec) 
Heartbeat CPU  0 instructions:   36000000 cycles:   36771116 heartbeat IPC: 1.10484 cumulative IPC: 0.81332 (Simulation time: 0 hr 0 min 59 sec) 
Heartbeat CPU  0 instructions:   37000001 cycles:   38459857 heartbeat IPC: 0.59216 cumulative IPC: 0.80222 (Simulation time: 0 hr 1 min 1 sec) 
Heartbeat CPU  0 instructions:   38000000 cycles:   40074855 heartbeat IPC: 0.61920 cumulative IPC: 0.79384 (Simulation time: 0 hr 1 min 3 sec) 
Heartbeat CPU  0 instructions:   39000000 cycles:   41454390 heartbeat IPC: 0.72488 cumulative IPC: 0.79124 (Simulation time: 0 hr 1 min 4 sec) 
Heartbeat CPU  0 instructions:   40000000 cycles:   42023477 heartbeat IPC: 1.75720 cumulative IPC: 0.80601 (Simulation time: 0 hr 1 min 6 sec) 
Heartbeat CPU  0 instructions:   41000003 cycles:   42912354 heartbeat IPC: 1.12502 cumulative IPC: 0.81345 (Simulation time: 0 hr 1 min 8 sec) 
Heartbeat CPU  0 instructions:   42000000 cycles:   44599312 heartbeat IPC: 0.59278 cumulative IPC: 0.80410 (Simulation time: 0 hr 1 min 10 sec) 
Heartbeat CPU  0 instructions:   43000003 cycles:   46282432 heartbeat IPC: 0.59414 cumulative IPC: 0.79558 (Simulation time: 0 hr 1 min 12 sec) 
Heartbeat CPU  0 instructions:   44000000 cycles:   47511357 heartbeat IPC: 0.81372 cumulative IPC: 0.79610 (Simulation time: 0 hr 1 min 13 sec) 
Heartbeat CPU  0 instructions:   45000001 cycles:   48081063 heartbeat IPC: 1.75529 cumulative IPC: 0.80873 (Simulation time: 0 hr 1 min 15 sec) 
Heartbeat CPU  0 instructions:   46000001 cycles:   49017396 heartbeat IPC: 1.06800 cumulative IPC: 0.81422 (Simulation time: 0 hr 1 min 17 sec) 
Heartbeat CPU  0 instructions:   47000002 cycles:   50686975 heartbeat IPC: 0.59895 cumulative IPC: 0.80639 (Simulation time: 0 hr 1 min 18 sec) 
Heartbeat CPU  0 instructions:   48000000 cycles:   52482464 heartbeat IPC: 0.55695 cumulative IPC: 0.79699 (Simulation time: 0 hr 1 min 20 sec) 
Heartbeat CPU  0 instructions:   49000003 cycles:   53503598 heartbeat IPC: 0.97931 cumulative IPC: 0.80082 (Simulation time: 0 hr 1 min 22 sec) 
Heartbeat CPU  0 instructions:   50000003 cycles:   54071814 heartbeat IPC: 1.75989 cumulative IPC: 0.81188 (Simulation time: 0 hr 1 min 24 sec) 
Heartbeat CPU  0 instructions:   51000003 cycles:   55070739 heartbeat IPC: 1.00108 cumulative IPC: 0.81564 (Simulation time: 0 hr 1 min 25 sec) 
Heartbeat CPU  0 instructions:   52000000 cycles:   56771575 heartbeat IPC: 0.58794 cumulative IPC: 0.80818 (Simulation time: 0 hr 1 min 27 sec) 
Heartbeat CPU  0 instructions:   53000000 cycles:   58763868 heartbeat IPC: 0.50193 cumulative IPC: 0.79688 (Simulation time: 0 hr 1 min 29 sec) 
Heartbeat CPU  0 instructions:   54000000 cycles:   60043502 heartbeat IPC: 0.78147 cumulative IPC: 0.79652 (Simulation time: 0 hr 1 min 31 sec) 
Heartbeat CPU  0 instructions:   55000003 cycles:   60923960 heartbeat IPC: 1.13578 cumulative IPC: 0.80184 (Simulation time: 0 hr 1 min 32 sec) 
Heartbeat CPU  0 instructions:   56000000 cycles:   61507122 heartbeat IPC: 1.71478 cumulative IPC: 0.81123 (Simulation time: 0 hr 1 min 34 sec) 
Heartbeat CPU  0 instructions:   57000002 cycles:   62531780 heartbeat IPC: 0.97594 cumulative IPC: 0.81416 (Simulation time: 0 hr 1 min 36 sec) 
Heartbeat CPU  0 instructions:   58000001 cycles:   63760063 heartbeat IPC: 0.81414 cumulative IPC: 0.81416 (Simulation time: 0 hr 1 min 37 sec) 
Heartbeat CPU  0 instructions:   59000000 cycles:   64376684 heartbeat IPC: 1.62174 cumulative IPC: 0.82251 (Simulation time: 0 hr 1 min 39 sec) 
Heartbeat CPU  0 instructions:   60000000 cycles:   65156210 heartbeat IPC: 1.28283 cumulative IPC: 0.82846 (Simulation time: 0 hr 1 min 41 sec) 
Finished CPU 0 instructions: 50000000 cycles: 60352983 cumulative IPC: 0.82846 (Simulation time: 0 hr 1 min 41 sec) 

ChampSim completed all CPUs

[ROI Statistics]
Core_0_instructions 50000000
Core_0_cycles 60352983
Core_0_IPC 0.82846

Core_0_branch_prediction_accuracy 96.58255
Core_0_branch_MPKI 3.13984
Core_0_average_ROB_occupancy_at_mispredict 117.25889

Core_0_L1D_total_access 8555076
Core_0_L1D_total_hit 7569481
Core_0_L1D_total_miss 985595
Core_0_L1D_loads 7319245
Core_0_L1D_load_hit 6394106
Core_0_L1D_load_miss 925139
Core_0_L1D_RFOs 1235831
Core_0_L1D_RFO_hit 1175375
Core_0_L1D_RFO_miss 60456
Core_0_L1D_prefetches 0
Core_0_L1D_prefetch_hit 0
Core_0_L1D_prefetch_miss 0
Core_0_L1D_writebacks 0
Core_0_L1D_writeback_hit 0
Core_0_L1D_writeback_miss 0
Core_0_L1D_prefetch_requested 0
Core_0_L1D_prefetch_dropped 0
Core_0_L1D_prefetch_issued 0
Core_0_L1D_prefetch_filled 0
Core_0_L1D_prefetch_useful 0
Core_0_L1D_prefetch_useless 0
Core_0_L1D_prefetch_late 0
Core_0_L1D_average_miss_latency 52.92880

Core_0_L1D_rq_access 12669832
Core_0_L1D_rq_forward 0
Core_0_L1D_rq_merged 4819010
Core_0_L1D_rq_to_cache 7850786
Core_0_L1D_rq_full 0

Core_0_L1D_wq_access 1387050
Core_0_L1D_wq_forward 36
Core_0_L1D_wq_merged 3719
Core_0_L1D_wq_to_cache 1383331
Core_0_L1D_wq_full 301697

Core_0_L1D_pq_access 0
Core_0_L1D_pq_forward 0
Core_0_L1D_pq_merged 0
Core_0_L1D_pq_to_cache 0
Core_0_L1D_pq_full 0

Core_0_L1D_acc_epochs 60537
Core_0_L1D_acc_level_0 60537
Core_0_L1D_acc_level_1 0
Core_0_L1D_acc_level_2 0
Core_0_L1D_acc_level_3 0
Core_0_L1D_acc_level_4 0
Core_0_L1D_acc_level_5 0
Core_0_L1D_acc_level_6 0
Core_0_L1D_acc_level_7 0
Core_0_L1D_acc_level_8 0
Core_0_L1D_acc_level_9 0

Core_0_L1I_total_access 11583274
Core_0_L1I_total_hit 11582351
Core_0_L1I_total_miss 923
Core_0_L1I_loads 11583274
Core_0_L1I_load_hit 11582351
Core_0_L1I_load_miss 923
Core_0_L1I_RFOs 0
Core_0_L1I_RFO_hit 0
Core_0_L1I_RFO_miss 0
Core_0_L1I_prefetches 0
Core_0_L1I_prefetch_hit 0
Core_0_L1I_prefetch_miss 0
Core_0_L1I_writebacks 0
Core_0_L1I_writeback_hit 0
Core_0_L1I_writeback_miss 0
Core_0_L1I_prefetch_requested 0
Core_0_L1I_prefetch_dropped 0
Core_0_L1I_prefetch_issued 0
Core_0_L1I_prefetch_filled 0
Core_0_L1I_prefetch_useful 0
Core_0_L1I_prefetch_useless 0
Core_0_L1I_prefetch_late 0
Core_0_L1I_average_miss_latency 160.44529

Core_0_L1I_rq_access 49999972
Core_0_L1I_rq_forward 0
Core_0_L1I_rq_merged 38416210
Core_0_L1I_rq_to_cache 11583762
Core_0_L1I_rq_full 0

Core_0_L1I_wq_access 0
Core_0_L1I_wq_forward 0
Core_0_L1I_wq_merged 0
Core_0_L1I_wq_to_cache 0
Core_0_L1I_wq_full 0

Core_0_L1I_pq_access 0
Core_0_L1I_pq_forward 0
Core_0_L1I_pq_merged 0
Core_0_L1I_pq_to_cache 0
Core_0_L1I_pq_full 0

Core_0_L1I_acc_epochs 60537
Core_0_L1I_acc_level_0 60537
Core_0_L1I_acc_level_1 0
Core_0_L1I_acc_level_2 0
Core_0_L1I_acc_level_3 0
Core_0_L1I_acc_level_4 0
Core_0_L1I_acc_level_5 0
Core_0_L1I_acc_level_6 0
Core_0_L1I_acc_level_7 0
Core_0_L1I_acc_level_8 0
Core_0_L1I_acc_level_9 0

Core_0_L2C_total_access 1608277
Core_0_L2C_total_hit 763828
Core_0_L2C_total_miss 844449
Core_0_L2C_loads 926062
Core_0_L2C_load_hit 643004
Core_0_L2C_load_miss 283058
Core_0_L2C_RFOs 60450
Core_0_L2C_RFO_hit 9321
Core_0_L2C_RFO_miss 51129
Core_0_L2C_prefetches 531091
Core_0_L2C_prefetch_hit 21030
Core_0_L2C_prefetch_miss 510061
Core_0_L2C_writebacks 90674
Core_0_L2C_writeback_hit 90473
Core_0_L2C_writeback_miss 201
Core_0_L2C_prefetch_requested 1517060
Core_0_L2C_prefetch_dropped 0
Core_0_L2C_prefetch_issued 1517060
Core_0_L2C_prefetch_filled 616982
Core_0_L2C_prefetch_useful 501371
Core_0_L2C_prefetch_useless 114845
Core_0_L2C_prefetch_late 15135
Core_0_L2C_average_miss_latency 121.13493

Core_0_L2C_rq_access 986518
Core_0_L2C_rq_forward 0
Core_0_L2C_rq_merged 0
Core_0_L2C_rq_to_cache 986512
Core_0_L2C_rq_full 0

Core_0_L2C_wq_access 90674
Core_0_L2C_wq_forward 6
Core_0_L2C_wq_merged 0
Core_0_L2C_wq_to_cache 90674
Core_0_L2C_wq_full 0

Core_0_L2C_pq_access 1517060
Core_0_L2C_pq_forward 0
Core_0_L2C_pq_merged 9849
Core_0_L2C_pq_to_cache 1507211
Core_0_L2C_pq_full 0

Core_0_L2C_acc_epochs 60537
Core_0_L2C_acc_level_0 22603
Core_0_L2C_acc_level_1 545
Core_0_L2C_acc_level_2 592
Core_0_L2C_acc_level_3 1060
Core_0_L2C_acc_level_4 2089
Core_0_L2C_acc_level_5 3140
Core_0_L2C_acc_level_6 4564
Core_0_L2C_acc_level_7 5996
Core_0_L2C_acc_level_8 3969
Core_0_L2C_acc_level_9 15979

Core_0_LLC_total_access 1557750
Core_0_LLC_total_hit 489789
Core_0_LLC_total_miss 1067961
Core_0_LLC_loads 268041
Core_0_LLC_load_hit 156540
Core_0_LLC_load_miss 111501
Core_0_LLC_RFOs 51129
Core_0_LLC_RFO_hit 13197
Core_0_LLC_RFO_miss 37932
Core_0_LLC_prefetches 1163605
Core_0_LLC_prefetch_hit 283113
Core_0_LLC_prefetch_miss 880492
Core_0_LLC_writebacks 74975
Core_0_LLC_writeback_hit 36939
Core_0_LLC_writeback_miss 38036
Core_0_LLC_prefetch_requested 0
Core_0_LLC_prefetch_dropped 0
Core_0_LLC_prefetch_issued 0
Core_0_LLC_prefetch_filled 1072566
Core_0_LLC_prefetch_useful 134870
Core_0_LLC_prefetch_useless 918263
Core_0_LLC_prefetch_late 6028
Core_0_LLC_average_miss_latency 181.30744

Core_0_LLC_rq_access 319170
Core_0_LLC_rq_forward 0
Core_0_LLC_rq_merged 0
Core_0_LLC_rq_to_cache 319170
Core_0_LLC_rq_full 0

Core_0_LLC_wq_access 74975
Core_0_LLC_wq_forward 0
Core_0_LLC_wq_merged 0
Core_0_LLC_wq_to_cache 74975
Core_0_LLC_wq_full 0

Core_0_LLC_pq_access 1459126
Core_0_LLC_pq_forward 0
Core_0_LLC_pq_merged 1916
Core_0_LLC_pq_to_cache 1457210
Core_0_LLC_pq_full 0

Core_0_LLC_acc_epochs 63630
Core_0_LLC_acc_level_0 38099
Core_0_LLC_acc_level_1 7834
Core_0_LLC_acc_level_2 3933
Core_0_LLC_acc_level_3 3083
Core_0_LLC_acc_level_4 2690
Core_0_LLC_acc_level_5 2571
Core_0_LLC_acc_level_6 2057
Core_0_LLC_acc_level_7 1162
Core_0_LLC_acc_level_8 578
Core_0_LLC_acc_level_9 1623

Core_0_major_page_fault 0
Core_0_minor_page_fault 3924

[MLOP] History of tracked zone:
IIIIIIIIIIIIIIIIIIIIIIIIIIIIIIIIIIIIIIIIIIIIIIIIIIIIIIIIIIIIIIII
IIIIIIIIIIIIIIIIIIIIIIIIIIIIIIIIIIIIIIIA4IIIIIIIIIIIIIIIIIIIIIII
IIIIIIIIIIIIIIIIIIIIIIIIIIIIIIIIIIIIIIIAA4IIIIIIIIIIIIIIIIIIIIII
IIIIIIIIIIIIIIIIIIIIIIIIIIIIIIIIIIIIIIIAAA4IIIIIIIIIIIIIIIIIIIII
IIIIIIIIIIIIIIIIIIIIIIIIIIIIIIIIIIIIIIIAAA4IIIIIA4IIIIIIIIIIIIII
IIIIIIIIIIIIIIIIIIIIIIIIIIIIIIIIIIIIIIIAAA4IIIIIAA4IIIIIIIIIIIII
IIIIIIIIIIIIIIIIIIIIIIIIIIIIIIIIIIIIIIIAAA4IIIIIAAA4IIIIIIIIIIII
IIIIIIIIIIIIIIIIIIIIIIIIIIIIIIIIIIIIIIIAAA4IIIIIAAAA4IIIIIIIIIII
IIIIIIIIIIIIIIIIIIIIIIIIIIIIIIIIIIIIIIIAIA4IIIIIAAAA4IIIIIIIIIII
IIIIIIIIIIIIIIIIIIIIIIIIIIIIIIIIIIIIIIIIIA4IIIIIAAAA4IIIIIIIIIII
IIIIIIIIIIIIIIIIIIIIIIIIIIIIIIIIIIIIIIIIII4IIIIIAAAA4IIIIIIIIIII
IIIIIIIIIIIIIIIIIIIIIIIIIIIIIIIIIIIIIIIIII4IIIIIAAAI4IIIIIIIIIII
IIIIIIIIIIIIIIIIIIIIIIIIIIIIIIIIIIIIIIIIIIIIIIIIIIIIIA44II4IIIII
IIIIIIIIIIIIIIIIIIIIIIIIIIIIIIIIIIIIIIIIIIIIIIIIIIIIIAA44I44IIII
IIIIIIIIIIIIIIIIIIIIIIIIIIIIIIIIIIIIIIIIIIIIIIIIIIIIIAAA44444III
IIIIIIIIIIIIIIIIIIIIIIIIIIIIIIIIIIIIIIIIIIIIIIIIIIIIIAAAA44444II
IIIIIIIIIIIIIIIIIIIIIIIIIIIIIIIIIIIIIIIA44II4IIIIIIIIIIIIIIIIIII
IIIIIIIIIIIIIIIIIIIIIIIIIIIIIIIIIIIIIIIAA44I44IIIIIIIIIIIIIIIIII
IIIIIIIIIIIIIIIIIIIIIIIIIIIIIIIIIIIIIIIAAA44444IIIIIIIIIIIIIIIII
IIIIIIIIIIIIIIIIIIIIIIIIIIIIIIIIIIIIIIIAAA4444A44II4IIIIIIIIIIII
IIIIIIIIIIIIIIIIIIIIIIIIIIIIIIIIIIIIIIIAAA4444AA44I44IIIIIIIIIII
IIIIIIIIIIIIIIIIIIIIIIIIIIIIIIIIIIIIIIIAAA4444AAA44444IIIIIIIIII
IIIIIIIIIIIIIIIIIIIIIIIIIIIIIIIIIIIIIIIAAA4444AAA4444A44II4IIIII
IIIIIIIIIIIIIIIIIIIIIIIIIIIIIIIIIIIIIIIAAA4444AAA4444AA44I44IIII
IIIIIIIIIIIIIIIIIIIIIIIIIIIIIIIIIIIIIIIAAA4444AAA4444AAA44444III
IIIIIIIIIIIIIIIIIIIIIIIIIIIIIIIIIIIIIIIAAA4444AAA4444AAAA44444II
IIIIIIIIIIIIIIIIIIIIIIIIIIIIIIIIIIIIIIIAAA4444IAA4444AAAA44444II
IIIIIIIIIIIIIIIIIIIIIIIIIIIIIIIIIIIIIIIAAA4444IAI4444AAAA44444II
IIIIIIIIIIIIIIIIIIIIIIIIIIIIIIIIIIIIIIIIAA4444IAI4444AAAA44444II
IIIIIIIIIIIIIIIIIIIIIIIIIIIIIIIIIIIIIIIIAA4444IAI4444AAIA44444II
IIIIIIIIIIIIIIIIIIIIIIIIIIIIIIIIIIIIIIIIAA4444IAI4444AIIA44444II
IIIIIIIIIIIIIIIIIIIIIIIIIIIIIIIIIIIIIIIIIIIIIIA44IIIIIIIIIIIIIII
IIIIIIIIIIIIIIIIIIIIIIIIIIIIIIIIIIIIIIIIIIIIIIAA44IIIIIIIIIIIIII
IIIIIIIIIIIIIIIIIIIIIIIIIIIIIIIIIIIIIIIIIIIIIIAAA44IIIIIIIIIIIII
IIIIIIIIIIIIIIIIIIIIIIIIIIIIIIIIIIIIIIIIIIIIIIAAA44IIA44IIIIIIII
IIIIIIIIIIIIIIIIIIIIIIIIIIIIIIIIIIIIIIIIIIIIIIAAA44IIAA44IIIIIII
IIIIIIIIIIIIIIIIIIIIIIIIIIIIIIIIIIIIIIIIIIIIIIAAA44IIAAA44IIIIII
IIIIIIIIIIIIIIIIIIIIIIIIIIIIIIIIIIIIIIIIIIIIIIAAA44IIAAAA44IIIII
IIIIIIIIIIIIIIIIIIIIIIIIIIIIIIIIIIIIIIIIIIIIIIAAA44IIAAAI44IIIII
IIIIIIIIIIIIIIIIIIIIIIIIIIIIIIIIIIIIIIIIIIIIIIAAI44IIAAAI44IIIII
IIIIIIIIIIIIIIIIIIIIIIIIIIIIIIIIIIIIIIIIIIIIIIAAI44IIAAII44IIIII
IIIIIIIIIIIIIIIIIIIIIIIIIIIIIIIIIIIIIIIIIIIIIIIAI44IIAAII44IIIII
IIIIIIIIIIIIIIIIIIIIIIIIIIIIIIIIIIIIIIIIIIIIIIA44IIIII444IIIIIII
IIIIIIIIIIIIIIIIIIIIIIIIIIIIIIIIIIIIIIIIIIIIIIAA44IIII4444IIIIII
IIIIIIIIIIIIIIIIIIIIIIIIIIIIIIIIIIIIIIIIIIIIIIAAA44III44444IIIII
IIIIIIIIIIIIIIIIIIIIIIIIIIIIIIIIIIIIIIIIIIIIIIAAA44IIA44444II444
IIIIIIIIIIIIIIIIIIIIIIIIIIIIIIIIIIIIIIIIIIIIIIAAA44IIAA4444II444
IIIIIIIIIIIIIIIIIIIIIIIIIIIIIIIIIIIIIIIIIIIIIIAAA44IIAAA444II444
IIIIIIIIIIIIIIIIIIIIIIIIIIIIIIIIIIIIIIIIIIIIIIAAA44IIAAAA44II444
IIIIIIIIIIIIIIIIIIIIIIIIIIIIIIIIIIIIIIIIIIIIIIAAA44IIAAIA44II444
IIIIIIIIIIIIIIIIIIIIIIIIIIIIIIIIIIIIIIIIIIIIIIIAA44IIAAIA44II444
IIIIIIIIIIIIIIIIIIIIIIIIIIIIIIIIIIIIIIIIIIIIIIIAI44IIAAIA44II444
IIIIIIIIIIIIIIIIIIIIIIIIIIIIIIIIIIIIIIIIIIIIIIIAI44IIAAII44II444
IIIIIIIIIIIIIIIIIIIIIIIIIIIIIIIIIIIIIIIA44IIIIIIIIIIIIIIIIIIIIII
IIIIIIIIIIIIIIIIIIIIIIIIIIIIIIIIIIIIIIIAA44IIIIIIIIIIIIIIIIIIIII
IIIIIIIIIIIIIIIIIIIIIIIIIIIIIIIIIIIIIIIAAA44IIIIIIIIIIIIIIIIIIII
IIIIIIIIIIIIIIIIIIIIIIIIIIIIIIIIIIIIIIIAAA44IIIIIIIIIA44IIIIIIII
IIIIIIIIIIIIIIIIIIIIIIIIIIIIIIIIIIIIIIIAAA44IIIIIIIIIAA44IIIIIII
IIIIIIIIIIIIIIIIIIIIIIIIIIIIIIIIIIIIIIIAAA44IIIIIIIIIAAA44IIIIII
IIIIIIIIIIIIIIIIIIIIIIIIIIIIIIIIIIIIIIIAAA44IIIIIIIIIAAAA44IIIII
IIIIIIIIIIIIIIIIIIIIIIIIIIIIIIIIIIIIIIIAAA44IIIIIIIIIAAIA44IIIII
IIIIIIIIIIIIIIIIIIIIIIIIIIIIIIIIIIIIIIIAAA44IIIIIIIIIAAII44IIIII
IIIIIIIIIIIIIIIIIIIIIIIIIIIIIIIIIIIIIIIAAI44IIIIIIIIIAAII44IIIII
IIIIIIIIIIIIIIIIIIIIIIIIIIIIIIIIIIIIIIIAAI44IIIIIIIIIIAII44IIIII
IIIIIIIIIIIIIIIIIIIIIIIIIIIIIIIIIIIIIIIIAI44IIIIIIIIIIAII44IIIII
IIIIIIIIIIIIIIIIIIIIIIIIIIIIIIIIIIIIIIIA44IIIII4IIIIIIIIIIIIIIII
IIIIIIIIIIIIIIIIIIIIIIIIIIIIIIIIIIIIIIIAA44IIII44IIIIIIIIIIIIIII
IIIIIIIIIIIIIIIIIIIIIIIIIIIIIIIIIIIIIIIAAA44III444IIIIIIIIIIIIII
IIIIIIIIIIIIIIIIIIIIIIIIIIIIIIIIIIIIIIIAAA44III444IIIA44IIIII4II
IIIIIIIIIIIIIIIIIIIIIIIIIIIIIIIIIIIIIIIAAA44III444IIIAA44IIII44I
IIIIIIIIIIIIIIIIIIIIIIIIIIIIIIIIIIIIIIIAAA44III444IIIAAA44III444
IIIIIIIIIIIIIIIIIIIIIIIIIIIIIIIIIIIIIIIAAA44III444IIIAAAA44II444
IIIIIIIIIIIIIIIIIIIIIIIIIIIIIIIIIIIIIIIAAA44III444IIIAAIA44II444
IIIIIIIIIIIIIIIIIIIIIIIIIIIIIIIIIIIIIIIAAA44III444IIIAAII44II444
IIIIIIIIIIIIIIIIIIIIIIIIIIIIIIIIIIIIIIIAAI44III444IIIAAII44II444
IIIIIIIIIIIIIIIIIIIIIIIIIIIIIIIIIIIIIIIAII44III444IIIAAII44II444
IIIIIIIIIIIIIIIIIIIIIIIIIIIIIIIIIIIIIIIIII44III444IIIAAII44II444
IIIIIIIIIIIIIIIIIIIIIIIIIIIIIIIIIIIIA44IIIIIIIIIIIIIIIIIIIIIIIII
IIIIIIIIIIIIIIIIIIIIIIIIIIIIIIIIIIIIAA44IIIIIIIIIIIIIIIIIIIIIIII
IIIIIIIIIIIIIIIIIIIIIIIIIIIIIIIIIIIIAAA44IIIIIIIIIIIIIIIIIIIIIII
IIIIIIIIIIIIIIIIIIIIIIIIIIIIIIIIIIIIAAAA44IIIIIIIIIIIIIIIIIIIIII
IIIIIIIIIIIIIIIIIIIIIIIIIIIIIIIIIIIIAAAAA44IIIIIIIIIIIIIIIIIIIII
IIIIIIIIIIIIIIIIIIIIIIIIIIIIIIIIIIIIAAAAAA44IIIIIIIIIIIIIIIIIIII
IIIIIIIIIIIIIIIIIIIIIIIIIIIIIIIIIIIIAAAAAA44IIIIIIIIIA44IIIIIIII
IIIIIIIIIIIIIIIIIIIIIIIIIIIIIIIIIIIIAAAAAA44IIIIIIIIIAA44IIIIIII
IIIIIIIIIIIIIIIIIIIIIIIIIIIIIIIIIIIIAAAAAA44IIIIIIIIIAAA44IIIIII
IIIIIIIIIIIIIIIIIIIIIIIIIIIIIIIIIIIIAAAAAA44IIIIIIIIIAAAA44IIIII
IIIIIIIIIIIIIIIIIIIIIIIIIIIIIIIIIIIIAAAAAA44IIIIIIIIIAAIA44IIIII
IIIIIIIIIIIIIIIIIIIIIIIIIIIIIIIIIIIIAAIAAA44IIIIIIIIIAAIA44IIIII
IIIIIIIIIIIIIIIIIIIIIIIIIIIIIIIIIIIIAAIAAA44IIIIIIIIIAAII44IIIII
IIIIIIIIIIIIIIIIIIIIIIIIIIIIIIIIIIIIAAIAIA44IIIIIIIIIAAII44IIIII
IIIIIIIIIIIIIIIIIIIIIIIIIIIIIIIIIIIIAAIAII44IIIIIIIIIAAII44IIIII
IIIIIIIIIIIIIIIIIIIIIIIIIIIIIIIIIIIIAAIAII44IIIIIIIIIAIII44IIIII
IIIIIIIIIIIIIIIIIIIIIIIIIIIIIIIIIIIIIIIA44IIIIIIIIIIIIIIIIIIIIII
IIIIIIIIIIIIIIIIIIIIIIIIIIIIIIIIIIIIIIIAA44IIIIIIIIIIIIIIIIIIIII
IIIIIIIIIIIIIIIIIIIIIIIIIIIIIIIIIIIIIIIAAA44IIIIIIIIIIIIIIIIIIII
IIIIIIIIIIIIIIIIIIIIIIIIIIIIIIIIIIIIIIIAAA44IIIIIIIIIA44IIIIIIII
IIIIIIIIIIIIIIIIIIIIIIIIIIIIIIIIIIIIIIIAAA44IIIIIIIIIAA44IIIIIII
IIIIIIIIIIIIIIIIIIIIIIIIIIIIIIIIIIIIIIIAAA44IIIIIIIIIAAA44IIIIII
IIIIIIIIIIIIIIIIIIIIIIIIIIIIIIIIIIIIIIIAAA44IIIIIIIIIAAAA44IIIII
IIIIIIIIIIIIIIIIIIIIIIIIIIIIIIIIIIIIIIIAAA44IIIIIIIIIAAIA44IIIII
IIIIIIIIIIIIIIIIIIIIIIIIIIIIIIIIIIIIIIIAIA44IIIIIIIIIAAIA44IIIII
IIIIIIIIIIIIIIIIIIIIIIIIIIIIIIIIIIIIIIIA44IIIIIIIIIIIIIIIIIIIIII
IIIIIIIIIIIIIIIIIIIIIIIIIIIIIIIIIIIIIIIAA44IIIIIIIIIIIIIIIIIIIII
IIIIIIIIIIIIIIIIIIIIIIIIIIIIIIIIIIIIIIIAAA44IIIIIIIIIIIIIIIIIIII
IIIIIIIIIIIIIIIIIIIIIIIIIIIIIIIIIIIIIIIAAA44IIA44IIIIIIIIIIIIIII
IIIIIIIIIIIIIIIIIIIIIIIIIIIIIIIIIIIIIIIAAA44IIAA44IIIIIIIIIIIIII
IIIIIIIIIIIIIIIIIIIIIIIIIIIIIIIIIIIIIIIAAA44IIAAA44IIIIIIIIIIIII
IIIIIIIIIIIIIIIIIIIIIIIIIIIIIIIIIIIIIIIAAA44IIAAA44IIA44IIIIIIII
IIIIIIIIIIIIIIIIIIIIIIIIIIIIIIIIIIIIIIIAAA44IIAAA44IIAA44IIIIIII
IIIIIIIIIIIIIIIIIIIIIIIIIIIIIIIIIIIIIIIAAA44IIAAA44IIAAA44IIIIII
IIIIIIIIIIIIIIIIIIIIIIIIIIIIIIIIIIIIIIIAAA44IIAAA44IIAAAA44IIIII
IIIIIIIIIIIIIIIIIIIIIIIIIIIIIIIIIIIIIIIAAA44IIAAA44IIAAIA44IIIII
IIIIIIIIIIIIIIIIIIIIIIIIIIIIIIIIIIIIIIIAIA44IIAAA44IIAAIA44IIIII
IIIIIIIIIIIIIIIIIIIIIIIIIIIIIIIIIIIIIIIIIA44IIAAA44IIAAIA44IIIII
IIIIIIIIIIIIIIIIIIIIIIIIIIIIIIIIIIIIIIIIII44IIAAA44IIAAIA44IIIII
IIIIIIIIIIIIIIIIIIIIIIIIIIIIIIIIIIIIIIIIII44IIIAA44IIAAIA44IIIII
IIIIIIIIIIIIIIIIIIIIIIIIIIIIIIIIIIIIIIIIIIIIIIA44IIIIIIIIIIIIIII
IIIIIIIIIIIIIIIIIIIIIIIIIIIIIIIIIIIIIIIIIIIIIIAA44IIIIIIIIIIIIII
IIIIIIIIIIIIIIIIIIIIIIIIIIIIIIIIIIIIIIIIIIIIIIAAA44IIIIIIIIIIIII
IIIIIIIIIIIIIIIIIIIIIIIIIIIIIIIIIIIIIIIIIIIIIIAAA44IIA44IIIIIIII
IIIIIIIIIIIIIIIIIIIIIIIIIIIIIIIIIIIIIIIIIIIIIIAAA44IIAA44IIIIIII
IIIIIIIIIIIIIIIIIIIIIIIIIIIIIIIIIIIIIIIIIIIIIIAAA44IIAAA44IIIIII
IIIIIIIIIIIIIIIIIIIIIIIIIIIIIIIIIIIIIIIIIIIIIIAAA44IIAAAA44IIIII
IIIIIIIIIIIIIIIIIIIIIIIIIIIIIIIIIIIIIIIIIIIIIIIAA44IIAAAA44IIIII
IIIIIIIIIIIIIIIIIIIIIIIIIIIIIIIIIIIIIIIIIIIIIIIAI44IIAAAA44IIIII
IIIIIIIIIIIIIIIIIIIIIIIIIIIIIIIIIIIIIIIIIIIIIIIAI44IIAAAI44IIIII
IIIIIIIIIIIIIIIIIIIIIIIIIIIIIIIIIIIIIIIIIIIIIIIAI44IIAAII44IIIII
IIIIIIIIIIIIIIIIIIIIIIIIIIIIIIIIIIIIIIIIIIIIIIIAI44IIAIII44IIIII
IIIIIIIIIIIIIIIIIIIIIIIIIIIIIIIIIIIIIIIIIIIIIIA44IIIIIIIIIIIIIII
IIIIIIIIIIIIIIIIIIIIIIIIIIIIIIIIIIIIIIIIIIIIIIAA44IIIIIIIIIIIIII
IIIIIIIIIIIIIIIIIIIIIIIIIIIIIIIIIIIIIIIIIIIIIIAAA44IIIIIIIIIIIII
IIIIIIIIIIIIIIIIIIIIIIIIIIIIIIIIIIIIIIIIIIIIIIAAA44IIA44IIIIIIII
IIIIIIIIIIIIIIIIIIIIIIIIIIIIIIIIIIIIIIIIIIIIIIAAA44IIAA44IIIIIII
IIIIIIIIIIIIIIIIIIIIIIIIIIIIIIIIIIIIIIIIIIIIIIAAA44IIAAA44IIIIII
IIIIIIIIIIIIIIIIIIIIIIIIIIIIIIIIIIIIIIIIIIIIIIAAA44IIAAAA44IIIII
IIIIIIIIIIIIIIIIIIIIIIIIIIIIIIIIIIIIIIIIIIIIIIAAA44IIAAIA44IIIII
[MLOP] Prefetch Degree Mean: 9.22489
[MLOP] Prefetch Degree SD: 5.91827
[MLOP] Max Score Left Mean (%): 41.19819
[MLOP] Max Score Left SD (%): 31.41332
[MLOP] Max Score Right Mean (%): 84.12430
[MLOP] Max Score Right SD (%): 16.62418

Channel_0_RQ_row_buffer_hit 668113
Channel_0_RQ_row_buffer_miss 361726
Channel_0_WQ_row_buffer_hit 17854
Channel_0_WQ_row_buffer_miss 40442
Channel_0_WQ_full 0
Channel_0_dbus_congested 482281

avg_congested_cycle 9

DRAM_bw_pochs 254517
DRAM_bw_level_0 96750
DRAM_bw_level_1 72016
DRAM_bw_level_2 55315
DRAM_bw_level_3 30436
