*************************************************
   ChampSim Multicore Out-of-Order Simulator
   Last compiled: Apr  3 2025 20:54:34
*************************************************
parsing config file: /home/zir/Pythia/config/mlop.ini

trace_0 /home/zir/ChampSim/ML-DPC/ChampSimTraces/spec06/429.mcf-s1.trace.gz
adding L2C_PREFETCHER: MLOP
Initialize SHIP state
warmup_instructions 10000000
simulation_instructions 50000000
champsim_seed 164
measure_ipc 0
measure_ipc_epoch 1000
measure_dram_bw 1
measure_dram_bw_epoch 256
measure_cache_acc 1
measure_cache_acc_epoch 1024
l1d_perfect 0
l2c_perfect 0
llc_perfect 0
l1d_semi_perfect 0
l2c_semi_perfect 0
llc_semi_perfect 0
semi_perfect_cache_page_buffer_size 64

num_cpus 1
cpu_freq 4000
dram_io_freq 2400
page_size 4096
block_size 64
max_read_per_cycle 8
max_fill_per_cycle 1
dram_channels 1
log2_dram_channels 0
dram_ranks 1
dram_banks 8
dram_rows 65536
dram_columns 128
dram_row_size 8
dram_size 4096
dram_pages 1048576

fetch_width 6
decode_width 6
exec_width 4
lq_width 2
sq_width 2
retire_width 4
scheduler_size 128
branch_mispredict_penalty 20
rob_size 256
lq_size 72
sq_size 56
num_instr_destinations_sparc 4
num_instr_destinations 2
num_instr_sources 4

itlb_set 16
itlb_way 8
itlb_rq_size 16
itlb_wq_size 16
itlb_pq_size 0
itlb_mshr_size 8
itlb_latency 1

dtlb_set 16
dtlb_way 4
dtlb_rq_size 16
dtlb_wq_size 16
dtlb_pq_size 0
dtlb_mshr_size 8
dtlb_latency 1

stlb_set 128
stlb_way 12
stlb_rq_size 32
stlb_wq_size 32
stlb_pq_size 0
stlb_mshr_size 16
stlb_latency 8

l1i_size 32
l1i_set 64
l1i_way 8
l1i_rq_size 64
l1i_wq_size 64
l1i_pq_size 8
l1i_mshr_size 8
l1i_latency 1

l1d_size 32
l1d_set 64
l1d_way 8
l1d_rq_size 64
l1d_wq_size 64
l1d_pq_size 8
l1d_mshr_size 16
l1d_latency 4

l2c_size 256
l2c_set 512
l2c_way 8
l2c_rq_size 32
l2c_wq_size 32
l2c_pq_size 32
l2c_mshr_size 32
l2c_latency 10

llc_size 2048
llc_set 2048
llc_way 16
llc_rq_size 32
llc_wq_size 32
llc_pq_size 32
llc_mshr_size 64
llc_latency 20

dram_channel_width 8
dram_wq_size 64
dram_rq_size 64
tRP 15
tRCD 15
tCAS 12.5
dram_dbus_turn_around_time 30
dram_write_high_wm 56
dram_write_low_wm 48
min_dram_writes_per_switch 16
dram_mtps 2400
dram_dbus_return_time 13

mlop_pref_degree 16
mlop_num_updates 500
mlop_l1d_thresh 2
mlop_l2c_thresh 0.75
mlop_llc_thresh 0.3
mlop_debug_level 0
mlop_blocks_in_cache 4096
mlop_blocks_in_zone 64
mlop_amt_size 2048
mlop_PF_DEGREE 16
mlop_NUM_UPDATES 500
mlop_L1D_THRESH 1000
mlop_L2C_THRESH 375
mlop_LLC_THRESH 150
mlop_ORIGIN 63
mlop_MAX_OFFSET 63
mlop_MIN_OFFSET -63
mlop_ORIGIN 63
mlop_NUM_OFFSETS 127


Heartbeat CPU  0 instructions:    1000000 cycles:     883352 heartbeat IPC: 1.13205 cumulative IPC: 1.13205 (Simulation time: 0 hr 0 min 1 sec) 
Heartbeat CPU  0 instructions:    2000000 cycles:    2010421 heartbeat IPC: 0.88726 cumulative IPC: 0.99482 (Simulation time: 0 hr 0 min 3 sec) 
Heartbeat CPU  0 instructions:    3000002 cycles:    3137680 heartbeat IPC: 0.88711 cumulative IPC: 0.95612 (Simulation time: 0 hr 0 min 5 sec) 
Heartbeat CPU  0 instructions:    4000000 cycles:    4423871 heartbeat IPC: 0.77749 cumulative IPC: 0.90419 (Simulation time: 0 hr 0 min 6 sec) 
Heartbeat CPU  0 instructions:    5000001 cycles:    5628755 heartbeat IPC: 0.82996 cumulative IPC: 0.88830 (Simulation time: 0 hr 0 min 8 sec) 
Heartbeat CPU  0 instructions:    6000000 cycles:    6843790 heartbeat IPC: 0.82302 cumulative IPC: 0.87671 (Simulation time: 0 hr 0 min 10 sec) 
Heartbeat CPU  0 instructions:    7000002 cycles:    8035094 heartbeat IPC: 0.83942 cumulative IPC: 0.87118 (Simulation time: 0 hr 0 min 12 sec) 
Heartbeat CPU  0 instructions:    8000000 cycles:    9356673 heartbeat IPC: 0.75667 cumulative IPC: 0.85500 (Simulation time: 0 hr 0 min 13 sec) 
Heartbeat CPU  0 instructions:    9000002 cycles:   10677871 heartbeat IPC: 0.75689 cumulative IPC: 0.84286 (Simulation time: 0 hr 0 min 15 sec) 
Heartbeat CPU  0 instructions:   10000000 cycles:   11964677 heartbeat IPC: 0.77712 cumulative IPC: 0.83579 (Simulation time: 0 hr 0 min 17 sec) 

Warmup complete CPU  0 instructions:   10000003 cycles:   11964678 (Simulation time: 0 hr 0 min 17 sec) 

Heartbeat CPU  0 instructions:   11000001 cycles:   23152886 heartbeat IPC: 0.08938 cumulative IPC: 0.08938 (Simulation time: 0 hr 0 min 21 sec) 
Heartbeat CPU  0 instructions:   12000000 cycles:   38213316 heartbeat IPC: 0.06640 cumulative IPC: 0.07619 (Simulation time: 0 hr 0 min 27 sec) 
Heartbeat CPU  0 instructions:   13000001 cycles:   54414396 heartbeat IPC: 0.06172 cumulative IPC: 0.07067 (Simulation time: 0 hr 0 min 33 sec) 
Heartbeat CPU  0 instructions:   14000003 cycles:   66350541 heartbeat IPC: 0.08378 cumulative IPC: 0.07355 (Simulation time: 0 hr 0 min 37 sec) 
Heartbeat CPU  0 instructions:   15000002 cycles:   77860517 heartbeat IPC: 0.08688 cumulative IPC: 0.07588 (Simulation time: 0 hr 0 min 42 sec) 
Heartbeat CPU  0 instructions:   16000000 cycles:   88688797 heartbeat IPC: 0.09235 cumulative IPC: 0.07820 (Simulation time: 0 hr 0 min 46 sec) 
Heartbeat CPU  0 instructions:   17000000 cycles:   99789503 heartbeat IPC: 0.09008 cumulative IPC: 0.07970 (Simulation time: 0 hr 0 min 50 sec) 
Heartbeat CPU  0 instructions:   18000002 cycles:  110457037 heartbeat IPC: 0.09374 cumulative IPC: 0.08122 (Simulation time: 0 hr 0 min 54 sec) 
Heartbeat CPU  0 instructions:   19000000 cycles:  121372384 heartbeat IPC: 0.09161 cumulative IPC: 0.08226 (Simulation time: 0 hr 0 min 58 sec) 
Heartbeat CPU  0 instructions:   20000000 cycles:  132199923 heartbeat IPC: 0.09236 cumulative IPC: 0.08317 (Simulation time: 0 hr 1 min 2 sec) 
Heartbeat CPU  0 instructions:   21000000 cycles:  142620171 heartbeat IPC: 0.09597 cumulative IPC: 0.08419 (Simulation time: 0 hr 1 min 7 sec) 
Heartbeat CPU  0 instructions:   22000000 cycles:  152811828 heartbeat IPC: 0.09812 cumulative IPC: 0.08520 (Simulation time: 0 hr 1 min 11 sec) 
Heartbeat CPU  0 instructions:   23000003 cycles:  163778744 heartbeat IPC: 0.09118 cumulative IPC: 0.08563 (Simulation time: 0 hr 1 min 15 sec) 
Heartbeat CPU  0 instructions:   24000000 cycles:  174691802 heartbeat IPC: 0.09163 cumulative IPC: 0.08603 (Simulation time: 0 hr 1 min 19 sec) 
Heartbeat CPU  0 instructions:   25000002 cycles:  185903817 heartbeat IPC: 0.08919 cumulative IPC: 0.08624 (Simulation time: 0 hr 1 min 23 sec) 
Heartbeat CPU  0 instructions:   26000000 cycles:  197447258 heartbeat IPC: 0.08663 cumulative IPC: 0.08626 (Simulation time: 0 hr 1 min 28 sec) 
Heartbeat CPU  0 instructions:   27000003 cycles:  208904739 heartbeat IPC: 0.08728 cumulative IPC: 0.08632 (Simulation time: 0 hr 1 min 32 sec) 
Heartbeat CPU  0 instructions:   28000000 cycles:  220443066 heartbeat IPC: 0.08667 cumulative IPC: 0.08634 (Simulation time: 0 hr 1 min 36 sec) 
Heartbeat CPU  0 instructions:   29000000 cycles:  232081819 heartbeat IPC: 0.08592 cumulative IPC: 0.08632 (Simulation time: 0 hr 1 min 40 sec) 
Heartbeat CPU  0 instructions:   30000000 cycles:  243516523 heartbeat IPC: 0.08745 cumulative IPC: 0.08637 (Simulation time: 0 hr 1 min 45 sec) 
Heartbeat CPU  0 instructions:   31000000 cycles:  254906355 heartbeat IPC: 0.08780 cumulative IPC: 0.08644 (Simulation time: 0 hr 1 min 49 sec) 
Heartbeat CPU  0 instructions:   32000000 cycles:  265922644 heartbeat IPC: 0.09077 cumulative IPC: 0.08663 (Simulation time: 0 hr 1 min 53 sec) 
Heartbeat CPU  0 instructions:   33000002 cycles:  277315025 heartbeat IPC: 0.08778 cumulative IPC: 0.08668 (Simulation time: 0 hr 1 min 57 sec) 
Heartbeat CPU  0 instructions:   34000000 cycles:  288632875 heartbeat IPC: 0.08836 cumulative IPC: 0.08675 (Simulation time: 0 hr 2 min 2 sec) 
Heartbeat CPU  0 instructions:   35000000 cycles:  302011036 heartbeat IPC: 0.07475 cumulative IPC: 0.08619 (Simulation time: 0 hr 2 min 6 sec) 
Heartbeat CPU  0 instructions:   36000000 cycles:  319207617 heartbeat IPC: 0.05815 cumulative IPC: 0.08462 (Simulation time: 0 hr 2 min 13 sec) 
Heartbeat CPU  0 instructions:   37000002 cycles:  331466692 heartbeat IPC: 0.08157 cumulative IPC: 0.08451 (Simulation time: 0 hr 2 min 18 sec) 
Heartbeat CPU  0 instructions:   38000000 cycles:  343092466 heartbeat IPC: 0.08602 cumulative IPC: 0.08456 (Simulation time: 0 hr 2 min 22 sec) 
Heartbeat CPU  0 instructions:   39000000 cycles:  354442300 heartbeat IPC: 0.08811 cumulative IPC: 0.08468 (Simulation time: 0 hr 2 min 26 sec) 
Heartbeat CPU  0 instructions:   40000000 cycles:  365805441 heartbeat IPC: 0.08800 cumulative IPC: 0.08478 (Simulation time: 0 hr 2 min 30 sec) 
Heartbeat CPU  0 instructions:   41000000 cycles:  377034472 heartbeat IPC: 0.08905 cumulative IPC: 0.08492 (Simulation time: 0 hr 2 min 35 sec) 
Heartbeat CPU  0 instructions:   42000000 cycles:  388231152 heartbeat IPC: 0.08931 cumulative IPC: 0.08505 (Simulation time: 0 hr 2 min 39 sec) 
Heartbeat CPU  0 instructions:   43000000 cycles:  399538718 heartbeat IPC: 0.08844 cumulative IPC: 0.08515 (Simulation time: 0 hr 2 min 43 sec) 
Heartbeat CPU  0 instructions:   44000000 cycles:  410917995 heartbeat IPC: 0.08788 cumulative IPC: 0.08522 (Simulation time: 0 hr 2 min 48 sec) 
Heartbeat CPU  0 instructions:   45000000 cycles:  422118178 heartbeat IPC: 0.08928 cumulative IPC: 0.08533 (Simulation time: 0 hr 2 min 52 sec) 
Heartbeat CPU  0 instructions:   46000002 cycles:  433302366 heartbeat IPC: 0.08941 cumulative IPC: 0.08544 (Simulation time: 0 hr 2 min 56 sec) 
Heartbeat CPU  0 instructions:   47000002 cycles:  444420717 heartbeat IPC: 0.08994 cumulative IPC: 0.08556 (Simulation time: 0 hr 3 min 0 sec) 
Heartbeat CPU  0 instructions:   48000000 cycles:  455401548 heartbeat IPC: 0.09107 cumulative IPC: 0.08569 (Simulation time: 0 hr 3 min 5 sec) 
Heartbeat CPU  0 instructions:   49000000 cycles:  466705464 heartbeat IPC: 0.08846 cumulative IPC: 0.08576 (Simulation time: 0 hr 3 min 9 sec) 
Heartbeat CPU  0 instructions:   50000002 cycles:  478079126 heartbeat IPC: 0.08792 cumulative IPC: 0.08582 (Simulation time: 0 hr 3 min 13 sec) 
Heartbeat CPU  0 instructions:   51000002 cycles:  489464252 heartbeat IPC: 0.08783 cumulative IPC: 0.08586 (Simulation time: 0 hr 3 min 17 sec) 
Heartbeat CPU  0 instructions:   52000000 cycles:  500799445 heartbeat IPC: 0.08822 cumulative IPC: 0.08592 (Simulation time: 0 hr 3 min 22 sec) 
Heartbeat CPU  0 instructions:   53000000 cycles:  512052521 heartbeat IPC: 0.08886 cumulative IPC: 0.08598 (Simulation time: 0 hr 3 min 26 sec) 
Heartbeat CPU  0 instructions:   54000000 cycles:  523352865 heartbeat IPC: 0.08849 cumulative IPC: 0.08604 (Simulation time: 0 hr 3 min 30 sec) 
Heartbeat CPU  0 instructions:   55000000 cycles:  534555069 heartbeat IPC: 0.08927 cumulative IPC: 0.08611 (Simulation time: 0 hr 3 min 34 sec) 
Heartbeat CPU  0 instructions:   56000000 cycles:  545836258 heartbeat IPC: 0.08864 cumulative IPC: 0.08616 (Simulation time: 0 hr 3 min 39 sec) 
Heartbeat CPU  0 instructions:   57000000 cycles:  557230847 heartbeat IPC: 0.08776 cumulative IPC: 0.08620 (Simulation time: 0 hr 3 min 43 sec) 
Heartbeat CPU  0 instructions:   58000000 cycles:  568438324 heartbeat IPC: 0.08923 cumulative IPC: 0.08626 (Simulation time: 0 hr 3 min 47 sec) 
Heartbeat CPU  0 instructions:   59000002 cycles:  579657943 heartbeat IPC: 0.08913 cumulative IPC: 0.08631 (Simulation time: 0 hr 3 min 52 sec) 
Heartbeat CPU  0 instructions:   60000000 cycles:  590639654 heartbeat IPC: 0.09106 cumulative IPC: 0.08640 (Simulation time: 0 hr 3 min 56 sec) 
Finished CPU 0 instructions: 50000001 cycles: 578675055 cumulative IPC: 0.08640 (Simulation time: 0 hr 3 min 56 sec) 

ChampSim completed all CPUs

[ROI Statistics]
Core_0_instructions 50000001
Core_0_cycles 578675055
Core_0_IPC 0.08640

Core_0_branch_prediction_accuracy 92.63452
Core_0_branch_MPKI 22.60140
Core_0_average_ROB_occupancy_at_mispredict 42.48386

Core_0_L1D_total_access 10424764
Core_0_L1D_total_hit 984209
Core_0_L1D_total_miss 9440555
Core_0_L1D_loads 10186254
Core_0_L1D_load_hit 760925
Core_0_L1D_load_miss 9425329
Core_0_L1D_RFOs 238510
Core_0_L1D_RFO_hit 223284
Core_0_L1D_RFO_miss 15226
Core_0_L1D_prefetches 0
Core_0_L1D_prefetch_hit 0
Core_0_L1D_prefetch_miss 0
Core_0_L1D_writebacks 0
Core_0_L1D_writeback_hit 0
Core_0_L1D_writeback_miss 0
Core_0_L1D_prefetch_requested 0
Core_0_L1D_prefetch_dropped 0
Core_0_L1D_prefetch_issued 0
Core_0_L1D_prefetch_filled 0
Core_0_L1D_prefetch_useful 0
Core_0_L1D_prefetch_useless 0
Core_0_L1D_prefetch_late 0
Core_0_L1D_average_miss_latency 81.83990

Core_0_L1D_rq_access 19899470
Core_0_L1D_rq_forward 0
Core_0_L1D_rq_merged 9513837
Core_0_L1D_rq_to_cache 10385633
Core_0_L1D_rq_full 0

Core_0_L1D_wq_access 254386
Core_0_L1D_wq_forward 0
Core_0_L1D_wq_merged 13915
Core_0_L1D_wq_to_cache 240471
Core_0_L1D_wq_full 0

Core_0_L1D_pq_access 0
Core_0_L1D_pq_forward 0
Core_0_L1D_pq_merged 0
Core_0_L1D_pq_to_cache 0
Core_0_L1D_pq_full 0

Core_0_L1D_acc_epochs 558136
Core_0_L1D_acc_level_0 558136
Core_0_L1D_acc_level_1 0
Core_0_L1D_acc_level_2 0
Core_0_L1D_acc_level_3 0
Core_0_L1D_acc_level_4 0
Core_0_L1D_acc_level_5 0
Core_0_L1D_acc_level_6 0
Core_0_L1D_acc_level_7 0
Core_0_L1D_acc_level_8 0
Core_0_L1D_acc_level_9 0

Core_0_L1I_total_access 9341875
Core_0_L1I_total_hit 9341875
Core_0_L1I_total_miss 0
Core_0_L1I_loads 9341875
Core_0_L1I_load_hit 9341875
Core_0_L1I_load_miss 0
Core_0_L1I_RFOs 0
Core_0_L1I_RFO_hit 0
Core_0_L1I_RFO_miss 0
Core_0_L1I_prefetches 0
Core_0_L1I_prefetch_hit 0
Core_0_L1I_prefetch_miss 0
Core_0_L1I_writebacks 0
Core_0_L1I_writeback_hit 0
Core_0_L1I_writeback_miss 0
Core_0_L1I_prefetch_requested 0
Core_0_L1I_prefetch_dropped 0
Core_0_L1I_prefetch_issued 0
Core_0_L1I_prefetch_filled 0
Core_0_L1I_prefetch_useful 0
Core_0_L1I_prefetch_useless 0
Core_0_L1I_prefetch_late 0
Core_0_L1I_average_miss_latency -nan

Core_0_L1I_rq_access 50000010
Core_0_L1I_rq_forward 0
Core_0_L1I_rq_merged 40658135
Core_0_L1I_rq_to_cache 9341875
Core_0_L1I_rq_full 0

Core_0_L1I_wq_access 0
Core_0_L1I_wq_forward 0
Core_0_L1I_wq_merged 0
Core_0_L1I_wq_to_cache 0
Core_0_L1I_wq_full 0

Core_0_L1I_pq_access 0
Core_0_L1I_pq_forward 0
Core_0_L1I_pq_merged 0
Core_0_L1I_pq_to_cache 0
Core_0_L1I_pq_full 0

Core_0_L1I_acc_epochs 558136
Core_0_L1I_acc_level_0 558136
Core_0_L1I_acc_level_1 0
Core_0_L1I_acc_level_2 0
Core_0_L1I_acc_level_3 0
Core_0_L1I_acc_level_4 0
Core_0_L1I_acc_level_5 0
Core_0_L1I_acc_level_6 0
Core_0_L1I_acc_level_7 0
Core_0_L1I_acc_level_8 0
Core_0_L1I_acc_level_9 0

Core_0_L2C_total_access 12848079
Core_0_L2C_total_hit 3713688
Core_0_L2C_total_miss 9134391
Core_0_L2C_loads 9425328
Core_0_L2C_load_hit 3574763
Core_0_L2C_load_miss 5850565
Core_0_L2C_RFOs 15226
Core_0_L2C_RFO_hit 2475
Core_0_L2C_RFO_miss 12751
Core_0_L2C_prefetches 3273721
Core_0_L2C_prefetch_hit 2689
Core_0_L2C_prefetch_miss 3271032
Core_0_L2C_writebacks 133804
Core_0_L2C_writeback_hit 133761
Core_0_L2C_writeback_miss 43
Core_0_L2C_prefetch_requested 8972469
Core_0_L2C_prefetch_dropped 0
Core_0_L2C_prefetch_issued 8972469
Core_0_L2C_prefetch_filled 3824538
Core_0_L2C_prefetch_useful 2049562
Core_0_L2C_prefetch_useless 1774089
Core_0_L2C_prefetch_late 181
Core_0_L2C_average_miss_latency 106.84309

Core_0_L2C_rq_access 9440556
Core_0_L2C_rq_forward 0
Core_0_L2C_rq_merged 0
Core_0_L2C_rq_to_cache 9440555
Core_0_L2C_rq_full 0

Core_0_L2C_wq_access 133804
Core_0_L2C_wq_forward 1
Core_0_L2C_wq_merged 0
Core_0_L2C_wq_to_cache 133804
Core_0_L2C_wq_full 0

Core_0_L2C_pq_access 8972469
Core_0_L2C_pq_forward 0
Core_0_L2C_pq_merged 814
Core_0_L2C_pq_to_cache 8971655
Core_0_L2C_pq_full 0

Core_0_L2C_acc_epochs 558136
Core_0_L2C_acc_level_0 150960
Core_0_L2C_acc_level_1 22655
Core_0_L2C_acc_level_2 44913
Core_0_L2C_acc_level_3 60289
Core_0_L2C_acc_level_4 61271
Core_0_L2C_acc_level_5 52447
Core_0_L2C_acc_level_6 41519
Core_0_L2C_acc_level_7 30739
Core_0_L2C_acc_level_8 21599
Core_0_L2C_acc_level_9 71744

Core_0_LLC_total_access 13466767
Core_0_LLC_total_hit 7315834
Core_0_LLC_total_miss 6150933
Core_0_LLC_loads 5850393
Core_0_LLC_load_hit 4161093
Core_0_LLC_load_miss 1689300
Core_0_LLC_RFOs 12748
Core_0_LLC_RFO_hit 3639
Core_0_LLC_RFO_miss 9109
Core_0_LLC_prefetches 7474377
Core_0_LLC_prefetch_hit 3086720
Core_0_LLC_prefetch_miss 4387657
Core_0_LLC_writebacks 129249
Core_0_LLC_writeback_hit 64382
Core_0_LLC_writeback_miss 64867
Core_0_LLC_prefetch_requested 0
Core_0_LLC_prefetch_dropped 0
Core_0_LLC_prefetch_issued 0
Core_0_LLC_prefetch_filled 5304482
Core_0_LLC_prefetch_useful 1511661
Core_0_LLC_prefetch_useless 3778385
Core_0_LLC_prefetch_late 364
Core_0_LLC_average_miss_latency 342.56910

Core_0_LLC_rq_access 5863142
Core_0_LLC_rq_forward 0
Core_0_LLC_rq_merged 0
Core_0_LLC_rq_to_cache 5863142
Core_0_LLC_rq_full 0

Core_0_LLC_wq_access 129249
Core_0_LLC_wq_forward 0
Core_0_LLC_wq_merged 0
Core_0_LLC_wq_to_cache 129249
Core_0_LLC_wq_full 0

Core_0_LLC_pq_access 8899244
Core_0_LLC_pq_forward 0
Core_0_LLC_pq_merged 39
Core_0_LLC_pq_to_cache 8899205
Core_0_LLC_pq_full 0

Core_0_LLC_acc_epochs 576797
Core_0_LLC_acc_level_0 92183
Core_0_LLC_acc_level_1 107009
Core_0_LLC_acc_level_2 103969
Core_0_LLC_acc_level_3 79486
Core_0_LLC_acc_level_4 54175
Core_0_LLC_acc_level_5 36752
Core_0_LLC_acc_level_6 25557
Core_0_LLC_acc_level_7 17300
Core_0_LLC_acc_level_8 12497
Core_0_LLC_acc_level_9 47869

Core_0_major_page_fault 0
Core_0_minor_page_fault 74348

[MLOP] History of tracked zone:
IIIIIIIIIIIIIIIIIIIIIIIIIIIIIIIIIIIIIIIIIIIIIIIIIIIIIIIIIIIIIIII
IIIIIIIIIIIIIIIIIIIIIIIIIIIIIIIIIIAIIIIIIIIIIIIIIIIIIIIIIIIIIIII
IIIIIIIIIIIIIIIIIIIIIIIIIIIIIIIIIIAIAIIIIIIIIIIIIIIIIIIIIIIIIIII
IIIIIIIIIIIIIIIIIIIIIIIIIIIIIIIA4IAIAIIIIIIIIIIIIIIIIIIIIIIIIIII
IIIIIIIIIIIIIIIIIIIIIIIIIIIIIIIA4IAIAIIIIIAI4IIIIIIIIIIIIIIIIIII
IIIIIIIIIIIIIIIIIIIIIIIIIIIAI44A4IAIAIIIIIAI4IIIIIIIIIIIIIIIIIII
IIIIIIIIIIIIIIIIIIIIIIIIIIIAIA4A44AIAIIIIIAI4IIIIIIIIIIIIIIIIIII
IIIIIIIIIIIIIIIIIIIAI44I44IAIA4A44AIAIIIIIAI4IIIIIIIIIIIIIIIIIII
IIIIIIIIIIIIIIIIIIIAI44I44IAIA4A44AIAIIIIIAI4IIIIIIIIAI44I44IIII
IIIIIIIIA4I4I4444IIAI44I44IAIA4A44AIAIIIIIAI4IIIIIIIIAI44I44IIII
IIIIIIIIA4I4I4444IIAI44I44IAIA4A44AIAIIIIIAI4IIIIIIIIAIA4I444444
IIIIIIIIA4IA44444IIAI44I44IAIA4A44AIAIIIIIAI4IIIIIIIIAIA4I444444
IIIIIIIIA4IA44444IIAI44I44IAIA4A44AIAIIIIIA44IIIII44IAIA4I444444
IIIIIIIIA4IA44444IAA444I44IAIA4A44AIAIIIIIA44IIIII44IAIA4I444444
IIIIIIIIA4IA44444IAA444I44IAIA4A44AIAIIIIIA44IIIII44IAIA4A444444
IIIIIIIIA4IA44444IAA444I44IAIA4A44AIAIIIIIA44AI44I44IA4A4A444444
IIIIIIIIA4IA4A444IAA444444IAIA4A44AIAIIIIIA44AI44I44IA4A4A444444
IIIIIIIIA4IA4A444IAA444444IAIA4A44AIAIIIIIA44AI44I44IA4A4AA44444
IIIIIIIIA4IA4A444IAA444444IAIA4A44AIA4444IA44AI44I44IA4A4AA44444
IIIIIIIIA4IA4AA444AA4444444AIA4A44AIA4444IA44AI44I44IA4A4AA44444
IIIAII4IA4IA4AA444AA4444444AIA4A44AIA4444IA44AI44I44IA4A4AA44444
IIIAII4IA4IA4AA444AA4444444AIA4A44AIA44A4IA44AI44I444A4A4AA44444
IAIA4I44A4IA4AA444AA4444444AIA4A44AIA44A4IA44AI44I444A4A4AA44444
IAIA4I44A4IA4AA4A4AA4444444A4A4A44AIA44A4IA44AI44I444A4A4AA44444
IAIA4I44A44A4AA4A4AA4444444A4A4A44AIA44A4IA44AI44I444A4A4AA44444
IAIA4I44A44A4AA4A4AA4444444A4A4A44AIA44A4IA44AI44I444A4A4AA4A444
IAIA4A44A44A4AA4A4AA4444444A4A4A44AIA44A4IA44AI44I444A4A4AA4A444
IAIA4A44A44A4AA4A4AA4444444A4A4A44AIA44A4IA44AIA44444A4A4AA4A444
AA4A4A44A44A4AA4A4AA4444444A4A4A44AIA44A4IA44AIA44444A4A4AA4A444
AA4A4A44A44A4AA4A4AA4444444A4A4A44AIA44A4IA44AIA44444A4A4AA4A4A4
AA4A4A44A4AA4AA4A4AA4444444A4A4A44AIA44A4IA44AIA44444A4A4AA4A4A4
AA4A4A44A4AA4AA4A4AA4444444A4A4A44AIA44A4IA44AIA44444A4A4AA4A4AA
AA4A4A44A4AA4AA4A4AA444A444A4A4A44AIA44A4IA44AIA44444A4A4AA4A4AA
AA4A4A44A4AA4AA4A4AA444A444A4A4A44AIA44A4IA44AIA4A444A4A4AA4A4AA
AA4A4A44A4AA4AA4A4AA444A444A4A4A44AIA44A4IA44AIA4A44AA4A4AA4A4AA
AA4A4A44A4AA4AA4A4AA444A444A4A4A44AIA44A4IA44AIA4A44AAAA4AA4A4AA
AA4A4A44A4AA4AA4A4AA444A444A4A4A44AIA44A4IA44AIA4A44AAAAAAA4A4AA
AA4A4A44A4AA4AA4A4AA444A444A4A4A44AIA44A4IA44AIA4A44AAAAAAA4AAAA
AA4A4A44A4AA4AA4A4AAA44A444A4A4A44AIA44A4IA44AIA4A44AAAAAAA4AAAA
AA4A4A44A4AA4AA4A4AAA44A444A4A4AA4AIA44A4IA44AIA4A44AAAAAAA4AAAA
AA4A4A44A4AA4AA4A4AAA44A444A4A4AAAAIA44A4IA44AIA4A44AAAAAAA4AAAA
AA4A4AA4A4AA4AA4A4AAA44A444A4A4AAAAIA44A4IA44AIA4A44AAAAAAA4AAAA
AA4A4AAAA4AA4AA4A4AAA44A444A4A4AAAAIA44A4IA44AIA4A44AAAAAAA4AAAA
IIIIIIIIIIIIIIIIIIIIIIIIIIIIIIIIIIIIIIIIIIIIIIIIIA4IIIIIIIIIIIII
IIIIIIIIIIIIIIIIA4IIIIIIIIIIIIIIIIIIIIIIIIIIIIIIIA4IIIIIIIIIIIII
IIIIIIIIIIIIIIIIAA4IIIIIIIIIIIIIIIIIIIIIIIIIIIIIIA4IIIIIIIIIIIII
IIIIIIIIA4IIIIIIAA4IIIIIIIIIIIIIIIIIIIIIIIIIIIIIIA4IIIIIIIIIIIII
IIIIIIIIAA4IIIIIAA4IIIIIIIIIIIIIIIIIIIIIIIIIIIIIIA4IIIIIIIIIIIII
IIIIIIIIAA4IIIIIAAA4IIIIIIIIIIIIIIIIIIIIIIIIIIIIIA4IIIIIIIIIIIII
IIIIIIIIAA4IIIIIAAA4IIIIIIIIIIIIIIIIIIIIIIIIIIIIIA4IIIIIIIA4IIII
IIIIIIIIAA4IIIIIAAA4IIIIIIIIIIIIIIIIIIIIIIIIIIIIIA4IIIIIIIAA4III
IIIIIIIIAA4IIIIIAAA4IIIIIIIIIIIIIIIIIIIA4IIIIIIIIA4IIIIIIIAA4III
IIIIIIIIAA4IIIIIAAA4IIIIIIIIIIIIIIIIIIIAA4IIIIIIIA4IIIIIIIAA4III
IIIIIIIIAA4IIIIIAAA4IA4IIIIIIIIIIIIIIIIAA4IIIIIIIA4IIIIIIIAA4III
IIIIIIIIAA4IIIIIAAA4IAA4IIIIIIIIIIIIIIIAA4IIIIIIIA4IIIIIIIAA4III
IIIIIIIIAA4IIIIIAAA4IAA4IIIIIA4IIIIIIIIAA4IIIIIIIA4IIIIIIIAA4III
IIIIIIIIAA4IIIIIAAA4IAA4IIIIIAA4IIIIIIIAA4IIIIIIIA4IIIIIIIAA4III
IIIIIIIIAA4IIIIIAAA4IAA4IIIIAAA4IIIIIIIAA4IIIIIIIA4IIIIIIIAA4III
IIIIIIIIAA4IIIIIAAA4IAA4IIIIAAA4IIIIIIIAA4IIIIIA4A4IIIIIIIAA4III
IIIIIIIIAA4IIIIIAAA4IAA4IIIIAAA4IIIIIIIAA4IIIIIAAA4IIIIIIIAA4III
IIA4IIIIAA4IIIIIAAA4IAA4IIIIAAA4IIIIIIIAA4IIIIIAAA4IIIIIIIAA4III
IIA4IIIIAA4IIIIIAAA4IAA4IIIIAAA4IIIIIIIAA4A4IIIAAA4IIIIIIIAA4III
IIA4IIIIAA4IIIIIAAA4IAA4IIIIAAA4IIIIIIIAA4AA4IIAAA4IIIIIIIAA4III
IIA4IIIIAA4IIIIIAAA4IAA4IIIIAAA4IIIIIIIAA4AA4A4AAA444IIIIIAA4III
IIA4IIIIAA4IIIIIAAA4IAA4IIIIAAA4IIIIIIIAA4AA4AAAAA4444IIIIAA4III
IIA4IIIIAA4A4IIIAAA4IAA4IIIIAAA4IIIIIIIAA4AA4AAAAA4444IIIIAA4III
IIA4IIIIAA4AA4IIAAA4IAA4IIIIAAA4IIIIIIIAA4AA4AAAAA4444IIIIAA4III
IIA4IIIIAA4AA4IIAAA4IAA4IIIIAAA4IIIIIA4AA4AA4AAAAA4444IIIIAA4III
IIA4IIIIAA4AA4IIAAA4IAA4IIIIAAA4IIIIIAAAA4AA4AAAAA4444IIIIAA4III
IIA4IIIIAA4AA4IIAAA4IAA4IIIIAAA4IIIIIAAAA4AA4AAAAA44A4IIIIAA4III
IIA4IIIIAA4AA4IIAAA4IAA4IIIIAAA4IIIIIAAAA4AA4AAAAA44AA4IIIAA4III
IIA4IIIIAA4AAA4IAAA4IAA4IIIIAAA4IIIIIAAAA4AA4AAAAA44AA4IIIAA4III
IIA4IIIIAA4AAAA4AAA44AA4IIIIAAA4IIIIIAAAA4AA4AAAAA44AA4IIIAA4III
IIA4IIIIAA4AAAAAAAA44AA4IIIIAAA4IIIIIAAAA4AA4AAAAA44AA4IIIAA4III
IIA4II44AAAAAAAAAAA44AA4IIIIAAA4IIIIIAAAA4AA4AAAAA44AA4IIIAA4III
IIA4II44AAAAAAAAAAA44AA4IIIIAAA444IIAAAAA4AA4AAAAA44AA4IIIAA4III
IIA4II44AAAAAAAAAAA44AA4IIIIAAA444IIAAAAA4AAAAAAAA44AA4IIIAA4III
IIA4II44AAAAAAAAAAA44AA4IIA4AAA444IIAAAAA4AAAAAAAA44AA4IIIAA4III
IIA4II44AAAAAAAAAAA44AA44IAAAAA444IIAAAAA4AAAAAAAA44AA4IIIAA4III
IIA4II44AAAAAAAAAAA44AA44IAAAAA444IIAAAAA4AAAAAAAA44AA4II4AA4IA4
IIA4II44AAAAAAAAAAA44AA44IAAAAA444IIAAAAA4AAAAAAAAA4AA4II4AA4IA4
IIA4II44AAAAAAAAAAA44AA44IAAAAA444IIAAAAA4AAAAAAAAAAAA4II4AA4IA4
IIA4II44AAAAAAAAAAA44AA44IAAAAA444A4AAAAA4AAAAAAAAAAAA4II4AA4IA4
IIA4II44AAAAAAAAAAA44AA44IAAAAA444AAAAAAA4AAAAAAAAAAAA4II4AA4IA4
IIA4II44AAAAAAAAAAA44AA44IAAAAAA44AAAAAAA4AAAAAAAAAAAA4II4AA4IA4
IIA4II44AAAAAAAAAAA44AA44IAAAAAA44AAAAAAAAAAAAAAAAAAAA4II4AA4IA4
IIA4II44AAAAAAAAAAA44AA4A4AAAAAA44AAAAAAAAAAAAAAAAAAAA4II4AA4IA4
IIA4II44AAAAAAAAAAA44AA4AAAAAAAA44AAAAAAAAAAAAAAAAAAAA4II4AA4IA4
IIA4II44AAAAAAAAAAA44AAAAAAAAAAA44AAAAAAAAAAAAAAAAAAAA4II4AA4IA4
I4AA4444AAAAAAAAAAA44AAAAAAAAAAA44AAAAAAAAAAAAAAAAAAAA4II4AA4IA4
I4AAA444AAAAAAAAAAA44AAAAAAAAAAA44AAAAAAAAAAAAAAAAAAAA4II4AA4IA4
I4AAA444AAAAAAAAAAA44AAAAAAAAAAA44AAAAAAAAAAAAAAAAAAAA44IAAA44A4
I4AAA444AAAAAAAAAAA44AAAAAAAAAAA44AAAAAAAAAAAAAAAAAAAA44IAAA44AA
I4AAA4A4AAAAAAAAAAA44AAAAAAAAAAA44AAAAAAAAAAAAAAAAAAAA44IAAA44AA
I4AAAAA4AAAAAAAAAAA44AAAAAAAAAAA44AAAAAAAAAAAAAAAAAAAA44IAAA44AA
IAAAAAA4AAAAAAAAAAA44AAAAAAAAAAA44AAAAAAAAAAAAAAAAAAAA44IAAA44AA
AAAAAAA4AAAAAAAAAAA44AAAAAAAAAAA44AAAAAAAAAAAAAAAAAAAA44IAAA44AA
AAAAAAA4AAAAAAAAAAA44AAAAAAAAAAA44AAAAAAAAAAAAAAAAAAAA4A4AAA44AA
AAAAAAA4AAAAAAAAAAA44AAAAAAAAAAAA4AAAAAAAAAAAAAAAAAAAA4A4AAA44AA
AAAAAAA4AAAAAAAAAAA44AAAAAAAAAAAA4AAAAAAAAAAAAAAAAAAAA4A4AAAA4AA
AAAAAAA4AAAAAAAAAAA44AAAAAAAAAAAA4AAAAAAAAAAAAAAAAAAAA4A4AAAA2AA
AAAAAAA4AAAAAAAAAAA44AAAAAAAAAAAA4AAAIAAAAAAAAAAAAAAAA4A4AAAA2AA
AAAAAAA4AAAAAAAAAAA44AAAAAAAAAAAA4AAA4AAAAAAAAAAAAAAAA4A4AAAA2AA
AAAAAAA4AAAAAAAAAAA44AAAAAAAAAAAA4AAI4AAAAAAAAAAAAAAAA4A4AAAA2AA
AAAAAAA4AAAAAAAAAAA44AAAAAAAAAAAA4AAI4AAIAAAAAAAAAAAAA4A4AAAA2AA
AAAAAAA4AAAAAAAAAAA44AAAAAAAAAAAA4AAIAAA2AAAAAAAAAAAAA4A4AAAA2AA
AAAAAIA4AAAAAAAAAAA44AAAAAAAAAAAA4AAIAAA2AAAAAAAAAAAAA4A4AAAA2AA
AAAAA4A4AAAAAAAAAAA44AAAAAAAAAAAA4AAIAAA2AAAAAAAAAAAAA4A4AAAA2AA
AAAAA4A4AAAAAAAAAAA44AAAAAAAAAAAA4AAIAAA2AAAAAAAAAAAAA4A4AAAA2AI
AAAAA4A4AAAAAAAAAAA44AAAAAAAAAAAI4AAIAAA2AAAAAAAAAAAAA4A4AAAA2AI
AAAAA4A4AAAAAAAAAAA44AAAAAAAAAAA44AAIAAA2AAAAAAAAAAAAA4A4AAAA2AI
AAAAAAA4AAAAAAAAAAA44AAAAAAAAAAA44AAIAAA2AAAAAAAAAAAAA4A4AAAA2AI
AAAAAAA4AAAAAAAAAAAA4AAAAAAAAAAA44AA4AAA2AAAAAAAAAAAAA4A4AAAA2AI
AAAAAAA4AAAAAAAAAAAA4AAAAAAAAAAA44AA4AAAAAAAAAAAAAAAAA4A4AAAA2AI
AAAAAAA4AAAAAAAAAAAA4AAAAAAAAAAA44AAAAAAAAAAAAAAAAAAAA4A4AAAA2AI
AAAAAAA4AAAAAAAAAAAA4AAAAAAAAAAA44AAAAAAAAAAAAAAAAAAAA4A4AAAA2A4
AAAAAAA4AAAAAAAAAAAA4AAAAAAAAAAA44AAAAAAAAAAAAAAAAAAAA4A4AAAA2AA
AAAAAAA4AAAAAAAAAAAA4AAAAAAAAAAA44AAAAAAAAAAAAAAAAAAAA4A4AAAA2IA
AAAIAAA4AAAAAAAAAAAA4AAAAAAAAAAA44AAAAAAAAAAAAAAAAAAAA4A4AAAA2IA
AAAIAAA4AAAAAAAAAAAA4AAAAAAAAAAA44AAAAAAAAAAAAAAAAAAAA4A4AAAA22A
AAAIAAA4AAAAAAAAAAAA4AAAAAAIAAAA44AAAAAAAAAAAAAAAAAAAA4A4AAAA22A
AAAIAAA4AAAAAAAAAAAA4AAAAAAIAAAA44AAAAAAAAAAIAAAAAAAAA4A4AAAA22A
AAAIAAA4AAAAAAAAAAAI4AAAAAAIAAAA44AAAAAAAAAAIAAAAAAAAA4A4AAAA22A
AAAIAAA4AAAAAAAAAAAI4IAAAAAIAAAA44AAAAAAAAAAIAAAAAAAAA4A4AAAA22A
AAAIAAA4AAAAAAAAAAAI4IAAAAAIAAAI44AAAAAAAAAAIAAAAAAAAA4A4AAAA22A
AAAIAAA4AAAAAAIAAAAI4IAAAAAIAAAI44AAAAAAAAAAIAAAAAAAAA4A4AAAA22A
AAA4AAA4AAAAAAIAAAAI4IAAAAAIAAAI44AAAAAAAAAAIAAAAAAAAA4A4AAAA22A
AAA4AAA4AAAAAA4AAAAI4IAAAAA4AAAI44AAAAAAAAAAIAAAAAAAAA4A4AAAA22A
AAA4AAA4AAAAAA4AAAA44IAAAAA4AAAI44AAAAAAAAAAIAAAAAAAAA4A4AAAA22A
AAA4AAA4AAAAAA4AAAA44IAAAAA4AAAI44AAAAAAAAAA4AAAAAAAAA4A4AAAA22A
AAA4AAA4AAAAAA4AAAA444AAAAA4AAAI44AAAAAAAAAA4AAAAAAAAA4A4AAAA22A
AAA4AIA4AAAAAA4AAAA444AAAAA4AAAI44AAAAAAAAAA4AAAAAAAAA4A4AAAA22A
AAA4AIA4AAAAAA4AAAA444AAAAA4AAA244AAAAAAAAAA4AAAAAAAAA4A4AAAA22A
AAA4AIA4AAAAAA2AAAA444AAAAA4AAA244AAAAAAAAAA4AAAAAAAAA4A4AAAA22A
AAA4AIA4AAAAAA2AAAA444AAAAAAAAA244AAAAAAAAAA4AAAAAAAAA4A4AAAA22A
AAAAAIA4AAAAAA2AAAA444AAAAAAAAA244AAAAAAAAAA4AAAAAAAAA4A4AAAA22A
AAAAA4A4AAAAAA2AAAA444AAAAAAAAA244AAAAAAAAAA4AAAAAAAAA4A4AAAA22A
AAAAA4A4AAAAAA2AAAA444AAAAAAAAA244AAAAAAAAAA4AAAAAAAAA4A4AIAA22A
AAAAA4A4AAAIAA2AAAA444AAAAAAAAA244AAAAAAAAAA4AAAAAAAAA4A4AIAA22A
AAAAA4A4AAAIAA2AAAA444AAAAAAAAA244AAAAAAAAAA4AAAAAIAAA4A4AIAA22A
AAAAA4A4AAAIAA2AAAA444AAAAAAAAA244AAAAAAAAAA4AAAAAAAAA4A4AIAA22A
AAAAA4A4AAAIAA2AAAA444AAAAAAAAA244AAAAAAAAAAAAAAAAAAAA4A4AIAA22A
AAAAA4A4AAA4AA2AAAA444AAAAAAAAA244AAAAAAAAAAAAAAAAAAAA4A4AIAA22A
AAAAA4A4AAA4AAAAAAA444AAAAAAAAA244AAAAAAAAAAAAAAAAAAAA4A4AIAA22A
AIAAA4A4AAA4AAAAAAA444AAAAAAAAA244AAAAAAAAAAAAAAAAAAAA4A4AIAA22A
AIAAAAA2AAA4AAAAAAA444AAAAAAAAA244AAAAAAAAAAAAAAAAAAAA4A4AIAA22A
AIAAAAI2AAA4AAAAAAA444AAAAAAAAA244AAAAAAAAAAAAAAAAAAAA4A4AIAA22A
AIAAAAI2AAA4AAAAAAA444AAAAAAAAA244AAAAAAAAAAAAAAAIAAAA4A4AIAA22A
AIAAAAI2AAA4AAAAAAA444AAAAAAAAA244AAAAAAAAAAAAAAAIIAAA4A4AIAA22A
AIAAAAIIAAA4AAAAAAA444AAAAAAAAA244AAAAAAAAAAAAAAAIIAAA4A4AIAA22A
AIAAAAIIAAI4AAAAAAA444AAAAAAAAA244AAAAAAAAAAAAAAAIIAAA4A4AIAA22A
AIAAAAIIAAI4AAAAAAA444AAAAAAAAA244AAAAAAAAAAAAAAAI4AAA4A4AIAA22A
AIAAAAIIAA44AAAAAAA444AAAAAAAAA244AAAAAAAAAAAAAAAI4AAA4A4AIAA22A
AIAAAAIIAA44AAAAAAA444AAAAAAAAA244AAAAAAAAIAAAAAAI4AAA4A4AIAA22A
AIAAAAIIAA44AAAAAAA444AAAAAAAAA244AAAAAAAAAAAAAAAI4AAA4A4A4AA22A
AIAAAAI2AA44AAAAAAA444AAAAAAAAA244AAAAAAAAAAAAAAAI4AAA4A4A4AA22A
AIAAAAI2AA44AAAAAAA444AAAAAAAAA244AAAAAAAAAAAAAAAI4AAA4A4AAAA22A
AIAAAAI2AA44AAAAAAA444AAAAAAAAA244AAAAAAAAAAAAAAAI4AAA4A4AAAA22I
AIAAAAI2AA44AAAAAAA444AAAAAAAAA244AAAAAAAAAAAAAAAI4AAA4A4AAAA222
AIAAAAIIAA44AAAAAAA444AAAAAAAAA244AAAAAAAAAAAAAAAI4AAA4A4AAAA222
AIAAAAIIAA44AAAAAAA444AAAAAAAAA244AAAAAAAAAAAAAAAI4AAA4A4AAAA2A2
AIAAAAIIAA44AAAAAAA444AAAAAAAAA244AAAAAAAAAAAAAAAI4AAA4A4AAAI2A2
AIAAAAIIAA44AAAAAAA444AAAAAAAAA244AAAAAAAAAAAAAAAI4AAA4A4AAA42A2
AIAAAAIIAA44AAAAAAA444AAAAAAAAA244AAAAAAAAAAAAAAAI4AAA4A4IAA42A2
AIAAAAIIAA44AAAAAAA444AAAAAAAAA244AAAAAAAAAAAAAAAI4AAA4A44AA42A2
AIAAAAIIAA44AAAAAAA444AAAAAAAAA244AAAAAAAAAAAAAAAI4AAA4A44IA42A2
AIAAAAIIAA44AAAAAAA424AAAAAAAAA244AAAAAAAAAAAAAAAI4AAA4A44IA42A2
AIAAAAIIAA44AAAAAAA424AAAAAAAAA2A4AAAAAAAAAAAAAAAI4AAA4A44IA42A2
AIAAAAIIAA44AAAAAAA424AAAAAAAAA2A4AAAAAAAAAAAAAAAI4AAA4A44IAA2A2
AIAAAAIIAA44AAAAAAA424AAAAAAAAA2A4AAAAAAAAAAAAAAAI4AAA4A44IAA2AA
AIAAAAIIAA44AAAAAAA424AAAAAAAAA2A4AAAAAAAAAAAAAAAI4AAA4A424AA2AA
AIAAAAIIAA44AAAAAAAA24AAAAAAAAA2A4AAAAAAAAAAAAAAAI4AAA4A424AA2AA
AIAAAAIIAA44AAAAAAAA24AAAAAAAAA2A4AAAAAAAAAAAAAAAI4AAA4I424AA2AA
AIAAAAIIAA44AAAAAAAA24AAAAAAAAA2A4AAAAAAAAAAAAAAA44AAA4I424AA2AA
AIAAAAIIAA44AAAAAAAA24AAAAAAAAA2A4AAAAAAIAAAAAAAA44AAA4I424AA2AA
AIAAAAIIAA44AAAAAAAA24AAAAAAAAA2A4AAAAAAIAAAAAAAA4AAAA4I424AA2AA
AIAAAAIIAA44AAAAAAAA24AAAAAAAAA2A4AAAAAAIAAAAAAAA4AAAA4A424AA2AA
AIAAAAIIAA44AAAAAAAI24AAAAAAAAA2A4AAAAAAIAAAAAAAA4AAAA4A424AA2AA
AIAAAAIIAA44AAAAAAAI24AAAAAAAAA2A4AAAAAAIAAAAAAAA4IAAA4A424AA2AA
AIAAAAIIAA44AAAAAAAA24AAAAAAAAA2A4AAAAAAIAAAAAAAA4IAAA4A424AA2AA
AIAAAAIIAA44AAAAAAAA24AAAAAAAAA2A4AAAAAAIAAAAAAAAA4AAA4A424AA2AA
AIAAAAIIAA44AAAAAAAA24AAAAAAAAA2A4AAAAAAIAAAAAAAAA4AAA4A42AAA2AA
AIAAAAIIAA44AAAAAAAA24AAAAAAAAA2A4AAAAAAIAAAAIAAAA4AAA4A42AAA2AA
AIAAAAIIAA44AAAAAAAA24AAAAAAAAA2A4AAAAAAIAAAAIAAAA4AAI4A42AAA2AA
AIAAAAIIAA44AAAAAAAA24AAAAAAAAA2A4AAAAAAIAAAIIAAAA4AAI4A42AAA2AA
AIAAAAIIAA44AAAAAAAA22AAAAAAAAA2A4AAAAAA4AAAIIAAAA4AAI4A42AAA2AA
AIAAAAIIAA44AAAAAAAA22AAAAAAAAA2A4AAAAAA4AAAIAAAAA4AA44A42AAA2AA
AIAAAAIIAA44AAAAAAAA22AAAAAAAAA2A4AAAAAA4AAAIAAAAA4AA44I42AAA2AA
AIAAAAIIAA44AAAAAAAA22AAAAAAAAA2A4IAAAAA4AAAIAAAAA4AA44I42AAA2AA
AIAAAAIIAA44AAAAAAAA22AAAAAAAAA2A4IAAAAA4AAAIAAAAA4AA44442AAA2AA
AIAAAAIIAA44AAAAAAAA22AAAAAAAAA2A4IAAAAA4AAAIAAAAA4AA44442AAA2IA
AIAAAAIIAA44AAAAAAAA22AAAAAAAAA2A4IAAAAA4AAAIAAAAA4AA44A42AAA2IA
AIAAAAIIAA44AAAAAAAA22AAAAAAAAA2A4IAAAAA4AAAIAAAAI4AA44A42AAA2IA
AIAAAAIIAA44AAAAAAAA22AAAAAAAAAAA44AAAAA4AAAIAAAAI4AA44A42AAA2IA
AIAAAAIIAA44AAAAAAAA22AAAAAAAAAAA44AAAAA4AAAAAAAA44AA44A42AAA2IA
AIAAAAIIAA44AAAAAAAA2AAAAAAAAAAAA44AAAAA4AAAAAAAA44AA44A42AAA2IA
AIAAAAIIAA44AAAAAAAA2AAAAAAAAAAAA44AAAAAAAAAAAAAA44AA44A42AAA2IA
AIAAAA2IAA44AAAAAAAA2AAAAAAAAAAAA44AAAAAAAAAAAAAA44AA44A42AAA2IA
AIAAAA2IAA42AAAAAAAA2AAAAAAAAAAAA44AAAAAAAAAAAAAA44AA44A42AAA2IA
AIAAAA2IAA42AAAAAAAA2AAAAAAAAAAIA44AAAAAAAAAAAAAA44AA44A42AAA2IA
AIAAAA2IAA42AAAAAAAA2AAAAAAAAAA4A44AAAAAAAAAAAAAA44AA44A42AAA2IA
AIAAAA2IAA42AAAAAAAA2AAAAAAAAAA4A4AAAAAAAAAAAAAAA44AA44A42AAA2IA
AIAAAA2IAAA2AAAAAAAA2AAAAAAAAAA4A4AAAAAAAAAAAAAAA44AA44A42AAA2IA
AIAAAA2IAAA2AAAAAAAA2AAAAAAAAAA4A4AAAAAAAAAAIAAAA44AA44A42AAA2IA
AIAAAA2IAAA2AAAAAAAA2AAAAAAAAAA4A4AAAAAAAAAAIIAAA44AA44A42AAA2IA
AIAAAA2IAAA2AAAAAAAA2AAIAAAAAAA4A4AAAAAAAAAAIIAAA44AA44A42AAA2IA
AIAAAA2IAAI2AAAAAAAA2AAIAAAAAAA4A4AAAAAAAAAAIIAAA44AA44A42AAA2IA
AIAAAAAIAA42AAAAAAAA2AAIAAAAAAA4A4AAAAAAAAAAIIAAA44AA44A42AAA2IA
AAAAAAAIAA42AAAAAAAA2AAIAAAAAAA4A4AAAAAAAAAAIIAAA44AA44A42AAA2IA
AAAAAAAIAA42AAAAAAAA2AAIAAIAAAA4A4AAAAAAAAAAIIAAA44AA44A42AAA2IA
AAAAAAAIAA4AAAAAAAAA2AAIAAIAAAA4A4AAAAAAAAAAIIAAA44AA44A42AAA2IA
AAAAAAAIAA4AAAAAAAAA2AAIAAIAAAA4A4AAAAAAAAAA44AAA44AA44A42AAA2IA
AAAAAAAIAA4AAAAAAAAA2AAIAAAAAAA2A4AAAAAAAAAA44AAA44AA44A42AAA2IA
AAAAAAAIAA4AAAAAAAAA2AA4AAAAAAA2A4AAAAAAAAAA44AAA44AA44A42AAA2IA
AAAAAAAIAA4AAAAAAAAA2AA4AAAAAIA2A4AAAAAAAAAA44AAA44AA44A42AAA2IA
AAAAAAAIIA4AAAAAAAAA2AA4AAAAAIA2A4AAAAAAAAAA44AAA44AA44A42AAA2IA
AAAAAAAIIA4AAAAAAAAA2AA4AAAAAIAIA4AAAAAAAAAA44AAA44AA44A42AAA2IA
AAAAAAAIIA4AAAAAAAAA2AA4AAAAAIAIA4AAAAAAAAAA44AAA44AA44A42AAA24A
AAAAAAAIIA4AAAAAAAAA2AA4AAAAAIAIA4AAAAAAAAAA44AAA44AA44A42AAA2AA
AAAAAAAIIAAAAAAAAAAA2AA4AAAAAIAIA4AAAAAAAAAA44AAA44AA44A42AAA2AA
AAAAAAAIIAAAAAAAAAAA2AA4AAAAAIAIA4AAAAAAAAAA22AAA44AA44A42AAA2AA
AAAAAAAIIAAAAAAAAAAA2AA4AAAAA4AIA4AAAAAAAAAA22AAA44AA44A42AAA2AA
AAAAAAAIIAAAAAAAAAAA2AA4AAAAA4AIA4AAAAAAAAAA2AAAA44AA44A42AAA2AA
AAAAAAA44AAAAAAAAAAA2AA4AAAAA4AIA4AAAAAAAAAA2AAAA44AA44A42AAA2AA
AAAAAAA44AAAAAAAAAAA2AA4AAAAA4AIA4AAAAAAAAIA2AAAA44AA44A42AAA2AA
AAAAAAA42AAAAAAAAAAA2AA4AAAAA4AIA4AAAAAAAAIA2AAAA44AA44A42AAA2AA
AAAAAAA42AAAAAAAAAIA2AA4AAAAA4AIA4AAAAAAAAIA2AAAA44AA44A42AAA2AA
AAAAAAA42AAAAAAAAAIA2AAAAAAAA4AIA4AAAAAAAAIA2AAAA44AA44A42AAA2AA
AAAAAAA42AAAAAAAAAIA2AAAAAAAA4AIA4AAAAAAAAIA2AAAAA4AA44A42AAA2AA
AAAAAAA42AAAAAAAAAIA2AAIAAAAA4AIA4AAAAAAAAIA2AAAAA4AA44A42AAA2AA
AAAAAAA42AAAAAAAAAIA2AAIAAAAA4A4A4AAAAAAAA4A2AAAAA4AA44A42AAA2AA
AAAAAAA42AAAAAAAAAIA2IAIAAAAA4A4A4AAAAAAAA4A2AAAAA4AA44A42AAA2AA
AAAAAAA42AAAAAAAAAIA2IAIAAAAA4A4A4AAAAAAAA4A2AAAAI4AA44A42AAA2AA
AAAAAAA42AAIAAAAAAIA2IAIAAAAA4A4A4AAAAAAAA4A2AAAAI4AA44A42AAA2AA
AAAAAAA42AAIAAAAAAIA2IAIAAAAA4A4A4AAAAAAAA4A2AAAAI4AA44I42AAA2AA
AAAAAAA42AAIAAAAAAIA2IAIAAAAA4AAA4AAAAAAAA4A2AAAAI4AA44I42AAA2AA
AAAAAAA4AAA4AAAAAAIA2IAIAAAAA4AAA4AAAAAAAA4A2AAAAI4AA44I42AAA2AA
AAAAAAA4AAA4AAAAAAIA24AIAAAAA4AAA4AAAAAAAA4A2AAAAI4AA44I42AAA2AA
AAAAAAA4AAA4AAAAAAIA24AAAAAAA4AAA4AAAAAAAA4A2AAAAI4AA44I42AAA2AA
AAAAAAA4AAA4AAAAAA4A24AAAAAAA4AAA4AAAAAAAA4A2AAAAI4AA44I42AAA2AA
AAAAAAA4AAA4AAAAAA4A24AAAAAAA4AIA4AAAAAAAA4A2AAAAI4AA44I42AAA2AA
AAAAAAA4AAA4AAAAAAAA24AAAAAAA4AIA4AAAAAAAA4A2AAAAI4AA44I42AAA2AA
AAAAAAA4AAA4AAAAAAAA24AAAAAAA4AIA4AAAAAAAA4A2AAAAI4AA44I42AAA2AI
AAAAAAA4AAA4AAAAAAAA24AAAAAAA4AIA4AAAAAAAA4A2AAAAI4AA44I4AAAA2A4
AAAAAAA4AAA4AAAAAAAA24AAAAAAA4AIA4AAAAAAAA4A2AAAAI4AAA422AAAA2A4
AAAAAAA4AAA4AAAAAAAA24AAAAAAA4AIA4AAAAAAAA4A2AAAAI4AAA422AIAA2A4
AAAAAAA4AAA4AAAAAAAA24AAAAAAA4AIA4AAAAAAAA4A2AAAAI4AAA422AIAA2I4
AAAAAAI4AAA4AAAAAAAA24AAAAAAA4AIA4AAAAAAAA4A2AAAAI4AAA422AIAA2I4
AAAAAAI4AAA4AAAAAAAA24AAAAAAA4AIA4AAAAAAAA4A2AAAAI4AAA222AIAA2I4
AAAAAAI4AAA4AAAAAAAA24AAAAAAA4AIA4AAAAAAAA4A2AAAA44AAA222AIAA244
AAAAAAI4AAA4AAAAAAAA24AAAAAAA4AIA4AAAAAAAA4A2AAAA44AAA222AIAA224
AAAAAAI4AAA4AAAAAAAA24AAAAAAA4AIA4AAAAAAAA4A2AAAA44AAI222AIAA224
AAAAAAI4AAA4AAAAAAAA24AAAAAAA4AIA4AAAAAAAA4A2AAAA44AAI222AIAA2A4
AAAAAAI4AAA4AAAAAAAA24AAAAAAA4AIA4AAAAAAAA4A2AAAA44AII222AIAA2A4
AAAAAAI4AAA4AAAAAAAA24AAAAAAA4AIA4AAAAAAAA4A2AAAA44AII222AIAA2AA
AAAAAAI4AAA4AAAAAAAA24AAAAAAA4AIA4AAAAAAAA4A2AAAA44AII22IAIAA2AA
AAAAAAI4AAA4AAAAAAAA24AAAAAAA4AIA4AAAAAAAA4A2AAAA44A4I22IAIAA2AA
AAAAAAI4AAA4AAAAAAAA24AAAAAAAAA2A4AAAAAAAA4A2AAAA44A4I22IAIAA2AA
AAAAAAI4AAA4AAAAAAAA24AAAAAAAAA2A4AAAAAAIA4A2AAAA44A4I22IAIAA2AA
AAAAAAI4AAA4AAAAAAIA24AAAAAAAAA2A4AAAAAAIA4A2AAAA44A4I22IAIAA2AA
AAAAAAI4AAA4AAAAAAIA24AAAAAAAAA2A4AAIAAAIA4A2AAAA44A4I22IAIAA2AA
AAAAAAI4AAA4AAAAAAIA22AAAAAAAAA2A4AAIAAAIA4A2AAAA44A4I22IAIAA2AA
AAAAAA44AAA4AAAAAAIA22AAAAAAAAA2A4AAIAAAIA4A2AAAA44A4I22IAIAA2AA
AAAAAA44AAA4AAAAAAIA22AAAAAAAAA2A4AAIAAAIA4A2AAAA22A4I22IAIAA2AA
AAAAAA44AAA4AAAAAAIA22AAAAAAAAA2A4AAIAAAIA4A2AAAA22A4I22IAIAA2AI
AAAAAA44AAA4AAAAAAIA2AAAAAAAAAA2A4AA4AAAIA4A2AAAA22A4I22IAIAA2AI
AAAAAA44AAA4AAAAAAAA2AAAAAAAAAA2A4AA4AAA4A4A2AAAA22A4I22IAIAA2AI
AAAAAA44AAA4AAAAAAAA2AAAAAAAAAA2A4AA4AAA4A4A2AAAA22A4A224A4AA2AI
AAAAAA44AAA4AAAAAAAA2AAAAAAAAAA2A4AA4AAA4A4A2AAAA22A4A224A4AA2A4
AAAAAA44AAAAAAAAAAAA2AAAAAAAAAA2A4AA4AAA4A4A2AAAA22A4A224A4AA2A4
AAAAAA44AAAAAAAAAAAI2AAAAAAAAAA2A4AA4AAA4A4A2AAAA22A4A224A4AA2A4
AAAAAA44AAAAAAAAAAAI2AAAAAAAAAA2A4AA4AAA4A4A2AAAAA2A4A224A4AA2A4
AIAAAA44AAAAAAAAAAAI2AAAAAAAAAA2A4AA4AAA4A4A2AAAAA2A4A224A4AA2A4
AIAAAA44AAAAAAAAAAA42AAAAAAAAAA2A4AA4AAA4A4A2AAAAA2A4A224A4AA2A4
AIAAAA44AAAAAAAAAAA42AAAAAAAAAA2A4AA4AAA4A4A2AAAAAAA4A224A4AA2A4
AIAAAA44AAAAAAAAAAA42IAAAAAAAAA2A4AA4AAA4A4A2AAAAAAA4A224A4AA2A4
AIAAAA44AAAAAAAAAAA42IAAAAAAAAA2A4AA4AAA4A4AAAAAAAAA4A224A4AA2A4
AIAAAA44AAAAAAAAAAA42IAAAAAAAAA2A4AA4AAA4A4AAAAAAAAA4I224A4AA2A4
AIAAAA44AAAAAAAAAAA42IAAAAAAAAA2A4AA4AAA4A4AAAAAAIAA4I224A4AA2A4
AIAAAA44AAAAAAAAAAA424AAAAAAAAA2A4AA4AAA4A4AAAAAAIAA4I224A4AA2A4
AIAAAA44AAAAAAAAAAA424AAAAAAAAA2A4AA4AAA4A4AAAAAAIAA4I224I4AA2A4
AIAAAA44AAAAAAAAAAA42AAAAAAAAAA2A4AA4AAA4A4AAAAAAIAA4I224I4AA2A4
AIAAAA44AAAAAAAAAAA42AAAAAAAAAA2A4AA4AAA4A4AAAAAAIAA4I2A424AA2A4
AIAAAA44AAAAAAAAAAA42AAAAAAAAAA2A4AA4AAA4A4AAAAAAIAAA42A424AA2A4
AIAAAA44AAAAAAAAAAA42AAAAAAAAAAAA2AA4AAA4A4AAAAAAIAAA42A424AA2A4
AIAAAA44AAAAAAAAAAA42AAAAAAAAAAAA2AA4AAA4A4AAIAAAIAAA42A424AA2A4
AIAAAA44AAAAAAAAAAA42IAAAAAAAAAAA2AA4AAA4A4AAIAAAIAAA42A424AA2A4
AIAAAA44AAAAAAAAAAA42IAAAAAAAAAIA2AA4AAA4A4AAIAAAIAAA42A424AA2A4
AIAAAA44AAAAAAAAAAA42IAAAAAAAAAIA2AA4AAA4A4AAIAAAIAAA22A424AA2A4
AIAAAA44AAAAAAAAAAA42IAAAAAAAAAIA2AA4AAA4A4AAIAAAIAAI22A424AA2A4
AIAAAA44AAAAAAAAAAA42IAAAAAAAAAIA2AA4AAA4A4AAIAAAIAAI22A4I4AA2A4
AIAAAA44AAAAAAAAAAA224AAAAAAAAAIA2AA4AAA4A4AAIAAAIAAI22A4I4AA2A4
AIAAAA44AAAAAAAAAAA224AAAAAAAAAIA2AA4AAAAA4AA4AAAIAAI22A4I4AA2A4
AIAAAA44AAAAAAAAAAA224AAAAAAAAA4A2AA4AAAAA4AA4AAAIAAI22A4I4AA2A4
AIAAAA44AAAAAAAAAAA22AAAAAAAAAA4A2AA4AAAAA4AA4AAAIAAI22A4I4AA2A4
AIAAAA44AAAAAAAAAAA22AAAAAAAAAA4A2AA4AAAIA4AA4AAAIAAI22A4I4AA2A4
AIAAAA44AAAAAAAAAAA22AAAAAAAAAA4A2AAAAAA4A4AA4AAAIAA422A4I4AA2A4
AIAAAA44AAAAAAAAAAA22AAAAAAAAAA4A2AAAAAA4A4AAAAAA4AA422A4I4AA2A4
AIAAAA44AAAAAAIAAAA22AAAAAAAAAA4A2AAAAAA4A4AAAAAA4AA422A4I4AA2A4
AIAAAA44AAAAAA2AAAA22AAAAAAAAAA4A2AAAAAA4A4AAAAAA4AA422A4I4AA2A4
AIAAAA44AAAAAA2AAAA22AAAAAAAAAA4A2AAAAAA4A4AAAAAA4AA422A4IAAA2A4
AAAAAA44AAAAAA2AAAA22AAAAAAAAAA4A2AAAAAA4A4AAAAAA4AA422A4IAAA2A4
AAAAAA44AAAAAA2AAAA22AAAAAAAAAA4A2AAAAAA2A4AAAAAA4AA422A4IAAA2A4
AAAAAA44AAAAAA2AAAA22AAAAAIAAAA4A2AAAAAA2A4AAAAAA4AA422A4IAAA2A4
AAAAAA44AAAAAA2AAAA22AAAAAIAAAA4A2AAAAAA2AAAAAAAA4AA422A4IAAA2A4
AAAAAA44AAAIAA2AAAA22AAAAAIAAAA4A2AAAAAA2AAAAAAAA4AA422A4IAAA2A4
AAAAAA44AAAIAA2AAAA22AAAAAIAAAA4A2AAAAAAAAAAAAAAA4AA422A4IAAA2A4
AAAIAA44AAAIAA2AAAA22AAAAAIAAAA4A2AAAAAAAAAAAAAAA4AA422A4IAAA2A4
AAAIAA44AAAIAA2AAAA22AAAAAIAAAA4A2AAAIAAAAAAAAAAA4AA422A4IAAA2A4
AAAIAA44AAAIAA2AAAA22AAAAAIAAAA4A2AAAIAAAAAAAAAAA4AAA22A44AAA2A4
AAA4AA44AAAIAA2AAAA22AAAAAIAAAA4A2AAAIAAAAAAAAAAA4AAA22A44AAA2A4
AAA2AA44AAAIAA2AAAA22AAAAAIAAAA4A2AAAIAAAAAAAAAAA4AAA22A44AAA2A4
AAA2AA44AAAIAA2AAAA22AAAAAIAAAA4A2AAAIAAIAAAAAAAA4AAA22A44AAA2A4
AAA2AA44AAA4AA2AAAA22AAAAAIAAAA4A2AAAIAAIAAAAAAAA4AAA22A44AAA2A4
AAA2AA44AAA4AA2AAAA22AAAAAIAAAA4A2AAAIAAIAAAAAAAA2AAA22A44AAA2A4
AAA2AA44IAA4AA2AAAA22AAAAAIAAAA4A2AAAIAAIAAAAAAAA2AAA22A44AAA2A4
AAA2AAA44AA4AA2AAAA22AAAAAIAAAA4A2AAAIAAIAAAAAAAA2AAA22A44AAA2A4
AAA2AAA44AA4AA2AAAA22AAAAAIAAAA4A2AAAAAA4AAAAAAAA2AAA22A44AAA2A4
AAA2AAA44AA4AA2AAAA22AAAAAIAAAA4A2AAAAAA4AAAAAAAA2AAA22A44AAA2A2
AAA2AAA44AA4AA2AAAA22AAAAAIAAAA4A2AAAAAA4AAAAAAAA2AAA22A44AAA2AA
AAA2AAA44AA4AA2AAAA22AAAAAIAAAA4A2AAAIAA4AAAAAAAA2AAA22A44AAA2AA
AAA2AAI44AA4AA2AAAA22AAAAAIAAAA4A2AAAIAA4AAAAAAAA2AAA22A44AAA2AA
AAA2AAI44AA4AA2AAAA22AAAAAIAAAA4A2AAAIAA4AAAAAAAA2AAA22A4AAAA2AA
AAA2AAI44AA4AA2AAAA22AAAAAIAAAA4A2AAAIAA4AAAAAAAA2AAA22A4IAAA2AA
AAA2AAI42AA4AA2AAAA22AAAAAIAAAA4A2AAAIAA4AAAAAAAA2AAA22A4IAAA2AA
AAA2AAI42AA4AA2AAAA22AAAAAIAAAA4A2AAAIAA4AAAAIAAA2AAA22A4IAAA2AA
AAA2AAI42AA4AA2AAAA22AAAAAIAAAA4A2AAAIAA4AAAAIAAAAAAA22A4IAAA2AA
AAA2AAI42AA4AA2AAAA22AAAAAIAAAAAA2AAAIAA4AAAA4AAAAAAA22A4IAAA2AA
AAA2AAI42AA4AA2AAAA22AAAAAIAAAAAA2AAAIAA4AAAA4AAAAAAA22A44AAA2AA
AAA2AAI42AA4AA2AAAA22AAAAAIAAAAAA2AAAIAA4AIAA4AAAAAAA22A44AAA2AA
AAA2AAI42AA4AA2AAAA22AAAAAAAAAAAA2AAAIAA4AIAA4AAAAAAA22A44AAA2AA
AAA2AAI42AA4AA2AAAA22AAAAAAAAAAAA2AAIIAA4AIAA4AAAAAAA22A44AAA2AA
AAA2AAI42AA4AA2AAAA22AAAAAAAAAAAA2AAIIAA4AIAA4AAAAAAA22A42AAA2AA
AAA2AAI42AAAAA2AAAA22AAAAAAAAAAAA2AAIIAA4AIAA4AAAAAAA22A42AAA2AA
AAA2AAI42AAAAA2AAAAA2AAAAAAAAAAAA2AAIIAA4AIAA4AAAAAAA22A42AAA2AA
AAA2AAI42AAAAA2AAAAA2AAAAAAAAAAAA2AA44AA4A4AA4AAAAAAA22A42AAA2AA
AAA2AAI42AAAAA2AAAAA2AAAAAAAAAAAA2AA44AA4A4AA4AAAAAAA22A42AAA2AI
AAA2AAI42AAAAA2AAAAA2AAAAAAAAAAAA2AA44AA4A4AA4AAAAAAA22I42AAA2AI
AAA2AAI42AAAAAAAAAAA2AAAAAAAAAAAA2AA44AA4A4AA4AAAAAAA22I42AAA2AI
AAA2AAI42AAAAAAAAAAA2AAAAAAAAAAIA2AA44AA4A4AA4AAAAAAA22I42AAA2AI
AAA2AAI42AAAAAAAAAAA2AAAAAAAAAAIA2AA44AA4A4AA4AAAAAAA22442AAA2AI
AAA2AAI42AAAAAAAAAAA2AAAAAAAAAAIA2AA44AA4A4AA4AAAAAAA22442IAA2AI
AAAAAA442AAAAAAAAAAA2AAAAAAAAAAIA2AA44AA4A4AA4AAAAAAA22442IAA2AI
AAAAAA442AAAAAAAAAAA2AAAAAAAAAAIA2AA44AA4A4AA4AAAAAAAA24424AA2AI
AAAAAA442AAAAAAAAAAA2AAAAAAAAAA4A2AA44AA4A4AA4AAAAAAAA24424AA2AI
AAAAAA442AAAAAAAAAAA2AAAAAAIAAA4A2AA44AA4A4AA4AAAAAAAA24424AA2AI
AAAAAA442AAAAAAAAAAA2AAAAAA2AAA4A2AA44AA4A4AA4AAAAAAAA24424AA2AI
AAAAAA442AAAAAAAAAAA2AAAAAA2AAA4A2AA44AA4A2AA4AAAAAAAA24424AA2AI
AAAAAA442AAAAAAAAAAA2AAAAAA2AAA4A2AA44AA4AAAA4AAAAAAAA24424AA2AI
AAAAAA442AAAAAAAAAAA2AAAAAA2AAA4A2AA44AA4AAAA4AAAIAAAA24424AA2AI
AAAAAA442AAAAAAAAAAA2AAAAAA2AAA4A2AA44AAAAAAA4AAAIAAAA24424AA2AI
AAAAAA442AAAAAAAAAAA2AAAAAA2AAA4A2AA44AAIAAAA4AAAIAAAA24424AA2AI
AAAAAA442AAAAAAAAAAA2AAAAAA2AAA4A2AA44AAIAIAA4AAAIAAAA24424AA2AI
AAAAAA442AAAAAAAAAAA2AAAAAA2AAA4A2AA4AAA4AIAA4AAAIAAAA24424AA2AI
AAAAAA442AAAAAAAAAAA2AAAAAA2AAA4A2AA4AAA4A4AA4AAAIAAAA24424AA2AI
AAAAAA442AAAAAAAAAAA2AAAAAA2AAA4A2AA4AAA4A4AA4AAA4AAAA24424AA2AI
AAAAAA442AAAAAAAAAAA2AAAAAA2AAA4A2AA4AAA4A4AA4AAA4AAAA24424AA2A4
AAAAAA442AAAAAAAAAAA2AAAAAA2AAA4A2AA4IAA4A4AA4AAA4AAAA24424AA2A4
AAAAAA442AAAAAAAAAAA2AAAAAA2AAA4A2AAAIAA4A4AA4AAA4AAAA24424AA2A4
AAAAAA442AAAAAAAAAAA2AAAAAA2AAA4I2AAAIAA4A4AA4AAA4AAAA24424AA2A4
AAAAAA442AAAAAAAAAAA2AAAAAA2AAA442AAAIAA4A4AA4AAA4AAAA24424AA2A4
AAAAAA442AAAAAAAAAAA2AAAAAA2AAA442AAAIAA4A4AA4AAA4AAAA2442AAA2A4
AAAAAA442AAAAAAAAAAA2AAAAAA2AAA442AAAIAA4A4AA4AAA4AAAA244AAAA2A4
AAAAAA442AAAAAAAAAAA2AAAAAA2AAA442AAAIAA4A4AA4AAA4AAAA244AAAA2AA
AAAAAA442AAAAAAAAAAA2AAAAAA2AAAA42AAA4AA4A4AA4AAA4AAAA244AAAA2AA
AAAAAA442AAAAAAAAAAA2AAAAAA2AIAA42AAA4AA4A4AA4AAA4AAAA244AAAA2AA
AAAAAA442AAAAAAAAAAA2AAAAAA2AIAA42AAA4AA4A4AA4AAAAAAAA244AAAA2AA
AAAAAA442AAAAAAAAAAA2AAAAAA2AIAA42AAA4AA4A4AAAAAAAAAAA244AAAA2AA
AAAAAA442AAAAAAAAAAA2AAAAAA2AIAA42AAAAAA4A4AAAAAAAAAAA244AAAA2AA
AAAAAA442AAAAAAAAAAA2AAAAAA2A4AA42AAAAAA4A4AAAAAAAAAAA244AAAA2AA
AAAAAA442AAAAAAAAAAA2AAAAAA2A4AA42AAAAAA4A4AAAAAAIAAAA244AAAA2AA
AAAAAA442AAAAAAAAAAA2AAAAAA2A4AA42AAAAAA4A4AAAAAAAAAAA244AAAA2AA
AAAAAA442AAAAAAAAAAA2AAAAAA2A4AA42AAAAAA4AAAAAAAAAAAAA244AAAA2AA
AAAAAA442AAAAAAAAAAA2AAAAAA2A4AA42AAAAAA4AAAAAAAAIAAAA244AAAA2AA
AAAAAA442AAAAAAAAAAA2AAAAAA2A4AA42AAAAAA4AAAAAAAA4AAAA244AAAA2AA
AAAAAA442AAAAAAAAAAA2AAAAAA2A4AA42AAAAAA2AAAAAAAA4AAAA244AAAA2AA
AAAAAA442AAAAAAAAAAA2AAAAAA2A4AA42AAAIAA2AAAAAAAA4AAAA244AAAA2AA
AAAAAA442AAAAAAAAAAA2AAAAAA2A4AA42AAAIAA2AIAAAAAA4AAAA244AAAA2AA
AAAAAA442AAAAAAAAAAA2AAAAAA2A4AAA2AAA4AA2AIAAAAAA4AAAA244AAAA2AA
AAAAAA222AAAAAAAAAAA2AAAAAA2A4AAA2AAA4AA2AIAAAAAA4AAAA244AAAA2AA
AAAAAA222AAAAAAAAAIA2AAAAAA2A4AAA2AAA4AA2AIAAAAAA4AAAA244AAAA2AA
AAAAAA222AAAAAAAAAIA2AAAAAA2A4AAI2AAA4AA2AIAAAAAA4AAAA244AAAA2AA
AAAAAA222AAAAAAAAAII2AAAAAA2A4AAI2AAA4AA2AIAAAAAA4AAAA244AAAA2AA
AAAAAA222AIAAAAAAAII2AAAAAA2A4AAI2AAA4AA2AIAAAAAA4AAAA244AAAA2AA
AAAAAA222AIAAIAAAAII2AAAAAA2A4AAI2AAA4AA2AIAAAAAA4AAAA244AAAA2AA
AAAAAA22AA4AA4AAAAII2AAAAAA2A4AAI2AAA4AA2AIAAAAAA4AAAA244AAAA2AA
AAAAAI22AA4AA4AAAAII2AAAAAA2A4AAI2AAA4AA2AIAAAAAA4AAAA244AAAA2AA
AAAAAII2AA4AA4AAAAII2AAAAAA2A4AAI2AAA4AA2AIAAAAAA4AAAA244AAAA2AA
AAAAAII2AA4AA4AAAAI22AAAAAA2A4AAI2AAA4AA2AIAAAAAA4AAAA244AAAA2AA
AAAAAII2AA4AA4AAAAI22AAIAAA2A4AAI2AAA4AA2AIAAAAAA4AAAA244AAAA2AA
AAAAAII2AA4AA4AAAAI22AAIAAA2A4AAI2AAA4AA2A4AAAAAA4AAAA244AAAA2AA
AAAAAII2AA4AAAAAAAI22AAIAAA2A4AAI2AAA4AA2A4AAAAAA4AAAA244AAAA2AA
AAAAAI22AA4AAAAAAAI22AA4AAA2A4AAI2AAA4AA2A4AAAAAA4AAAA244AAAA2AA
AAAAAI22AA4AAAAAAAII2AA4AAA2A4AAI2AAA4AA2A4AAAAAA4AAAA244AAAA2AA
AAAAAI22AA4AAAAAAA4I2AA4AAA2A4AAI2AAA4AA2A4AAAAAA4AAAA244AAAA2AA
AAAAAI22AA4AAAAAAA4I2AA4AAA2A4AAI2AAA4AA2A4AAAAAA4AAAA2A2AAAA2AA
AAAAAI22AA4AAAAAAAA22AA4AAA2A4AAI2AAA4AA2A4AAAAAA4AAAA2A2AAAA2AA
AAAAAI22AA4AAAAAAAA22AA4AAA2A4AAI2AAA4AA2A4AAAAAA4AAIA2A2AAAA2AA
AAAAA422AA4AAAAAAAA22AA4AAA2A4AAI2AAA4AA2A4AAAAAA4AAIA2A2AAAA2AA
AAAAA422AA4AAAAAAAA22AA4AAA2A4AAI2IAA4AA2A4AAAAAA4AAIA2A2AAAA2AA
AAAAA422AA4AAAAAAAA22AA4AAA2A4AAI2IAA4AA2A4AAAAAAAAA4A2A2AAAA2AA
AAAAA422AA4AAAAAAAAA2AA4AAA2A4AA424AA4AA2A4AAAAAAAAA4A2A2AAAA2AA
AAAAA422AA4AAAAAAAAA2AA4AAA2A4AA42AAA2AA2A4AAAAAAAAA4A2A2AAAA2AA
AAAAA422AA4AAAAAAAAA2AA4AAA2AAAA22AAA2AA2A4AAAAAAAAA4A2A2AAAA2AA
AAAAA422AA4AAAAAAAAI2AA4AAA2AAAA22AAA2AA2A4AAAAAAAAA4A2A2AAAA2AA
AAAAA422AA4AAAAAAAAI2AA4AAA2AAAA22AAA2AA2A4AAAAAAIAA4A2A2AAAA2AA
AAAAA422AA4AAAAAAAAI2AA4AAA2AAAA22IAA2AA2A4AAAAAAIAA4A2A2AAAA2AA
AAAAA422AA4AAAAAAAAI2AA4AAA2AAAA224AA2AA2A4AAAAAAIAA4A2A2AAAA2AA
AAAAA422AA4AAAAAAAAI2AA4AAA2AIAA224AA2AA2A4AAAAAAIAA4A2A2AAAA2AA
AAAAA422AA4AAAAAAAA42AA4AAA2AIAA224AA2AA2A4AAAAAAIAA4A2A2AAAA2AA
AAAAA422AA4AAAAAAAA42AA4AAA2AIAAI24AA2AA2A4AAAAAAIAA4A2A2AAAA2AA
AAAAA422AA4AAAAAAAA42AA4IAA2AIAAI24AA2AA2A4AAAAAAIAA4A2A2AAAA2AA
AAAAA422AA4AAAAAAAA42AA4IAA2AAAA424AA2AA2A4AAAAAAIAA4A2A2AAAA2AA
AAAAAA22AA4AAAAAAAA42AA44AA2AAAA424AA2AA2A4AAAAAAIAA4A2A2AAAA2AA
AAAAAA22AA4AAAAAAAA42AA44AA2AAAA424AA2AA2A4AAAAAAIAAAA2A2AAAA2AA
AAAAAA22AA4AAAAAAAA42AA44AA2AAAA424AA2AA2A4AAAAAA2AAAA2A2AAAA2AA
AAAAAA22AA4AAAAAAAA42AA44AA2AAAA424AA2AA2A4AAAAIA2AAAA2A2AAAA2AA
AAAAAA22AA4AAAAAAAA42AA44AA2AAAA424AA2AA2A4AAAAIA2AAAA2A2AAAA2AI
AAAAAA22AA4AAAAAAAA42AA44AA2AAAA424AA2AA2A4AAAAIA2AAAA2A2AAAA2A4
AAAAAA22AA4AAAAAAAA42AA44AA2AAAA424AA2AA2A4AAAAIA2AAAA2A2AIAA2A4
AAAAAA22AA4AAAAAAAA42AA44AA2AAAA424AA2AA2A4AAAAIAAAAAA2A2AIAA2A4
AAAAAA22AA4AAAAAAAA42AA44AA2AAAA424AA2AA2A2AAAA4AAAAAA2A2AIAA2A4
AAAAAA22AA4AAAAAAAA42AA44AA2AAAA424AA2AA2A2AAAA4AAAAAA2A2A4AA2A4
AAAAAA22AA4AAAAAAAA42AA44AA2AAAA424AA2AI2A2AAAA4AAAAAA2A2A4AA2A4
AAAAAA22AA4AAAAAAAA42AA44AA2AAAA424AA2AI2A2AAAA4AIAAAA2A2A4AA2A4
AAAAAA22AA4AAAAAAAA42AA44AAAAAAA424AA2AI2A2AAAA4AIAAAA2A2A4AA2A4
AAAAAA22AA4AAAAAAAA42AA44AAAAAAA424AA2AIAA2AAAA4AIAAAA2A2A4AA2A4
AAAAAA22AA4AAAAAAAA42AA44AAAAAAA424AA2AIAAAAAAA4AIAAAA2A2A4AA2A4
AAAAAA22AA4AAAAAAAA42AA44AAAAAAA424AAAA2AAAAAAA4AIAAAA2A2A4AA2A4
AAAAAA22AA4AAAAAAAA42AA44AAAAAAA424AAAA2AAAAAAA4A4AAAA2A2A4AA2A4
AAAAAA22AA4AAAAAAAA42AA44AAIAAAA424AAAA2AAAAAAA4A4AAAA2A2A4AA2A4
AAAAAA22AA4AAAAAAAA42AA44AAIAAAA42AAAAA2AAAAAAA4A4AAAA2A2A4AA2A4
AAAAAA22AA4AAAAAAAA42AA44AAIAAAA42IAAAA2AAAAAAA4A4AAAA2A2A4AA2A4
AAAAAA22AA4AAAAAAAA42AAA4AAIAAAA42IAAAA2AAAAAAA4A4AAAA2A2A4AA2A4
AAAAAA22AA4AAAAAAAA42AAI4AAIAAAA42IAAAA2AAAAAAA4A4AAAA2A2A4AA2A4
AAAAAA22AA4AAAAAAAAA2AAI4AAIAAAA42IAAAA2AAAAAAA4A4AAAA2A2A4AA2A4
AAAAAA22AA4AAAAAAAAA2AA44AA4AAAA42IAAAA2AAAAAAA4A4AAAA2A2A4AA2A4
AAAAAA22AA4AAAAAAAAI2AA44AA4AAAA42IAAAA2AAAAAAA4A4AAAA2A2A4AA2A4
AAAAAA22AAAAAAAAAAAI2AA44AA4AAAA42IAAAA2AAAAAAA4A4AAAA2A2A4AA2A4
AAAAAA22AAAAAAAAAAA42AA44AA4AAAA42IAAAA2AAAAAAA4A4AAAA2A2A4AA2A4
AAAAAA22AAAAAAAAAAA42AA44AA4AAAA42IAAAA2AAAAAAA4A4AAAA2A2A4AA2A2
AAAAAI22AAAAAAAAAAA42AA44AA4AAAA42IAAAA2AAAAAAA4A4AAAA2A2A4AA2A2
AAAAAI22AAAAAAAAAAA42AA44AA4AAAA22IAAAA2AAAAAAA4A4AAAA2A2A4AA2A2
AAAAAI22AAAAAAIAAAA42AA44AA4AAAA22IAAAA2AAAAAAA4A4AAAA2A2A4AA2A2
AAAAAI22AAAAAAIAAAA42AA42AA4AAAA22IAAAA2AAAAAAA4A4AAAA2A2A4AA2A2
AAAAAI22AAAAAAIAAAA42AA42AA4AAAAA24AAAA2AAAAAAA4A4AAAA2A2A4AA2A2
AAAAAI22AAAAAAIAAAA42AA42AA4AAAAI24AAAA2AAAAAAA4A4AAAA2A2A4AA2A2
AAAAAI22AAAAAAIAAAA42AA4IAA4AAAAI24AAAA2AAAAAAA4A4AAAA2A2A4AA2A2
AAAAAI22AAAAAAIAAAA42AA4IAA4AAAAI24AAAA2AAAAAAA4A4AAAA2A2I4AA2A2
AAAAAI22AAAAAAIAAAA42AA4IAA4AAAAI2AAAAA2AAAAAAA4A4AAAA2A2I4AA2A2
AAAAAI22AAAAAAIAAAA42AA4IAA4AAAAI2AAAAA2AAAAAAA4A4AAAA2A224AA2A2
AAAAAI22AAAAAAIAAAA42AA4IAA4AAAAI2AAAAA2AAAAAAA4A4AAAA2I224AA2A2
AAAAAI22AAAAAAIAAAA42AA4AAA2AAAAI2AAAAA2AAAAAAA4A4AAAA2I224AA2A2
AAAAAI22AAAAAAIAAAA42AA4AAA2AAAAI2AAAAA2AAAAAAA4AAAAAA2I224AA2A2
AAAAAI22AAAAAAIAAAA42AA4AAAIAAAAI2AAAAA2AAAAAAA4AAAAAA2I224AA2A2
AAAAAI22AAAAAAIAAAA42AA4AAAAAAAAI2AAAAA2AAAAAAA4AAAAAA2I224AA2A2
AAAAAI22AAAAAAIAAAA42AA4AAAAAAAAI2AAAAA2AAAAAAA4AAAAAA2I224AA2AA
AAAAAI22AAAAAAIAAAA42AA4AAAAAAAAI2AAAAA2AAAAAAA2AAAAAA2I224AA2AA
AAAAAI22AAAAAAIAAAA42AA4AAAAAAAAI2AAAAA2AAAAAAA2AAAAAA2I22AAA2AA
AAAAAI22AAAAAAIAAAA42AA4AAAAAAAAI2AAAAA2AAAAAAA2AAAAAA2422AAA2AA
AAAAAI22AAAAAAIAAAAA2AA4AAAAAAAAI2AAAAA2AAAAAAA2AAAAAA2422AAA2AA
AAAAAI22AAAAAAIAAAAA2AA4AAAAAAAAI2AAAAA2AAAAAAAAAAAAAA2422AAA2AA
AAAAAI22AAAAAAIAAAAA2AA4AAAAAAAAI2AAAAA2AAAAAIAAAAAAAA2422AAA2AA
AAAAAI22AAAAAAIAAAAA2AA4AAAAAAAAI2AAAAA2AAAAAIAIAAAAAA2422AAA2AA
AAAAAI22AAAAAAIAAAAA2AA4AAAAAAAAI2AAAAA2AAAAAIAIAAAAAA2222AAA2AA
AAAAAI22AAAAAAIAAAAA2AA4AAAAAAAAI2AAAAA2AAAAA4AIAAAAAA2222AAA2AA
AAAAAI22AAAAAAIAAAAA2AA4AAAAAAAAI2AAAAA2AAAAA4AAAAAAAA2222AAA2AA
AAAAAI22AAAAAAIAAAAA2AA4AAAAAAAAI2AAAAAAAAAAA4AAAAAAAA2222AAA2AA
AAAAAI22AAAAAAIAAAAA2AA4AAAAAAAAI2AAIAAAAAAAA4AAAAAAAA2222AAA2AA
AAAAAI22AAAAAAIAAAAA2AA4AAAAAAAAI2AAIAAAAAAAA4AIAAAAAA2222AAA2AA
AAAAAI22AAAAAAIAAAAA2AA4AAAAAAAAI2AAIAAIAAAAA4AIAAAAAA2222AAA2AA
AAAAAI22AAAAAAIAAAAA2AA4AAAAAAAAI2AAIAAIAAAAA2AIAAAAAA2222AAA2AA
AAAAAI22AAAAAAIAAAAA2AA4AAAAAAAAI2AAAAA2AAAAA2AIAAAAAA2222AAA2AA
AAAAAI22AAAAAAIAAAAA2AA4AAAAAAAA42AAAAA2AAAAA2AIAAAAAA2222AAA2AA
AAAAAI22AAAAAAIAAAAA2AA4AAAAAAAA42AAAAA2AAAAA2A4AAAAAA2222AAA2AA
AAAAAI22AAAAAAIAAAAA2AA4AAAAAAAA22AAAAA2AAAAA2A4AAAAAA2222AAA2AA
AAAAAI22AAAAAAIAAAAA2AA4AAAAAAAA22AAAAA2AAAAA2A2AAAAAA2222AAA2AA
AAAAAI22AAAAAAIAAAAA2AA4AAAAAAAAI2AAAAA2AAAAA2A2AAAAAA2222AAA2AA
AAAAAI22AAAAAAIAAAAA2AA4AAAIAAAAI2AAAAA2AAAAA2A2AAAAAA2222AAA2AA
AAAAAI22AAAAAAIAAAAI2AA4AAAIAAAAI2AAAAA2AAAAA2A2AAAAAA2222AAA2AA
AAAAAI22AAAAAAIAAAAI2AA4AAAIAAAAI2AAAAA2AAAAA2AIAAAAAA2222AAA2AA
AAAAAI22AAAAAAIAAAAI2AA4AAAIAAAII2AAAAA2AAAAA2AIAAAAAA2222AAA2AA
AAAAAI22AAAAAAIAAAAI2AA4AAAIAAAIA2AAAAA2AAAAA2AIAAAAAA2222AAA2AA
AAAAAI22AAAAAAIAAAAI2AA4AAAIAIAIA2AAAAA2AAAAA2AIAAAAAA2222AAA2AA
AAAAAI22AAAAAAAAAAA42AA4AAAIAIAIA2AAAAA2AAAAA2AIAAAAAA2222AAA2AA
AAAAAI22AAAAAAAAAAA42AA4AAAIAIAIA2AAAAA2AAAAA2AIAAAAAA222AAAA2AA
AAAAA422AAAAAAAAAAA42AA4AAAIAIAIA2AAAAA2AAAAA2AIAAAAAA222AAAA2AA
AAAAA422AAAAAAAAAAA42AA4IAAIAIAIA2AAAAA2AAAAA2AIAAAAAA222AAAA2AA
AAAAA422AAAAAAAAIAA42AA4IAAIAIAIA2AAAAA2AAAAA2AIAAAAAA222AAAA2AA
AAAAA422AAAAAAAAIAA42AA4IAAIAIAII2AAAAA2AAAAA2AIAAAAAA222AAAA2AA
AAAAA422AAAAAAAAIAA42AA4AAA2A4AI42AAAAA2AAAAA2A4AAAAAA222AAAA2AA
AAAAA422AAAAAAAAIAA42AA4AAA2AAA222AAAAA2AAAAA2A4AAAAAA222AAAA2AA
AAAAA422AAAAAAAAIAA42AA4AAA2AAA222AAAAA2AAAAA2A2AAAAAA222AAAA2AA
AAAAA422AAAAAAAAIAA42AA4AAA2AAA222AAAAA2AAAAA2A2AAAAAA222IAAA2AA
AAAAA422AAAAAAAAIAA42AA4AAA2AAA222AAAAA2AAAAAAA2AAAAAA222IAAA2AA
AAAAA422AAAAAAAAIAA42AA4AAA2AAA222AAAAA2AAAAIAA2AAAAAA222IAAA2AA
AAAAA422AAAAAAAA4AA42AA4AAA2AAA222AAAAA2AAAAIAA2AAAAAA222IAAA2AA
AAAAA422AAAAAAAA4AA42AA4AAAIAAA222AAAAA2AAAAIAA2AAAAAA222IAAA2AA
AAAAA422AAAAAAAA4AA42AA4AAAIAAA222AAAAA2AAAA4AA2AAAAAA222IAAA2AA
AAAAA422AAAAAAAA4AA42AA4AAAIAAA222AAAAA2AAAA4IA2AAAAAA222IAAA2AA
AAAAA422AAAAAAAA4AA42AA4AAAAAAA222AAAAA2AAAA44A2AAAAAA222IAAA2AA
AAAAA422AAAAAAAA4AA42AA4AAAAAAA2A2AAAAA2AAAA44A2AAAAAA222IAAA2AA
AAAAA422AAAAAAAA4AA42AA4IAAAAAA2A2AAAAA2AAAA44A2AAAAAA222IAAA2AA
AAAAA422AAAAAAAA4AA42AA4IAAAAAA2A2AAAAA2AAAA44A2AAAAAA2224AAA2AA
AAAAA422AAAAAAAA4AA42AA4IAAIAAA2A2AAAAA2AAAA44A2AAAAAA2224AAA2AA
AAAAA422AAAAAAAA2AA42AA4IAAIAAA2A2AAAAA2AAAA44A2AAAAAA2224AAA2AA
AAAAAA22AAAAAAAA2AA42AA4IAAIAAA2A2AAAAA2AAAA44A2AAAAAA2224AAA2AA
AAAAAA22AAAAAAAA2AA42AA4IAAIAIA2A2AAAAA2AAAA44A2AAAAAA2224AAA2AA
AAAAAA22AAAAAIAA2AA42AA4IAAIAIA2A2AAAAA2AAAA44A2AAAAAA2224AAA2AA
AAAAAA22AAAAA4AA2AA42AA4IAAIAIA2A2AAAAA2AAAA44A2AAAAAA2224AAA2AA
AAAAAA22IAAAA4AA2AA42AA4IAAIAIA2A2AAAAA2AAAA44A2AAAAAA2224AAA2AA
AAAAAAA2IAAAA4AA2AA42AA4IAAIA4A2A2AAAAA2AAAA44A2AAAAAA2224AAA2AA
AAAAAAA2IAAAA4AA2AA42AA44AAIA4A2A2AAAAA2AAAA44A2AAAAAA2224AAA2AA
AAAAAAA22AAAA4AA2AA42AA44AAIA4A2A2AAAAA2AAAA44A2AAAAAA2224AAA2AA
AAAAAAA2AAAAA4AA2AA42AA44AAIA4A2A2AAAAA2AAAA44A2AAAAAA2224AAA2AA
AAAAAAA2AAIAA4AA2AA42AA44AAIA4A2A2AAAAA2AAAA44A2AAAAAA2224AAA2AA
AAAAAAA2AAIAA4AA2AA42AA44AAIA4A2A2AAAAA2AAAA44A2AAAAAA2A24AAA2AA
AAAAAAA2AAIAA4AA2AA42AAA4AAIA4A2A2AAAAA2AAAA44A2AAAAAA2A24AAA2AA
AAAAAAA2AA4AA4AA2AA42AAA4AAIA4A2A2AAAAA2AAAA44A2AAAAAA2A24AAA2AA
AAAAAAA2AA4AA4AA2AA42AAA4AAIA4A2A2AAAAA2AAAA24A2AAAAAA2A24AAA2AA
AAAAAAA2AA4AA4AA2AA42AAA4AAIA4A2A2AAAAA2AAAAA4A2AAAAAA2A24AAA2AA
AAAAAAA2AA4AA4AA2AA42AAA4AAAA4A2A2AAAAA2AAAAA4A2AAAAAA2A24AAA2AA
AAAAAAA2AAAAA2AA2AA42AAA4AAAA4A2A2AAAAA2AAAAA4A2AAAAAA2A24AAA2AA
AAAAAAA2AAAAA2AA2AA42AAA4AAAA4AAA2AAAAA2AAAAA4A2AAAAAA2A24AAA2AA
AAAAAAA2AAAAAIAA2AA42AAA4AAAA4AAA2AAAAA2AAAAA4A2AAAAAA2A24AAA2AA
AAAAAIA2AAAAAIAA2AA42AAA4AAAA4AAA2AAAAA2AAAAA4A2AAAAAA2A24AAA2AA
AAAAAIA2AAAAAIAA2AA42AAA4AAAA4AAA2AAAAA2AAAAA4A2AAIAAA2A24AAA2AA
AAAAAIA2AAAAAIAAAAA22AAA4AAAA4AAA2AAAAA2AAAAA4A2AAIAAA2A24AAA2AA
AAAAAIA2AAAAAIAAAAA22AAA4AAAA4AAA2IAAAA2AAAAA4A2AAIAAA2A24AAA2AA
AAAAAIA2AAAAAIAAAAAI2AAA4AAAA4AAA2IAAAA2AAAAA4A2AAIAAA2A24AAA2AA
AAAAA2A2AAAAAIAAAAAI2AAA4AAAA4AAA2IAAAA2AAAAA4A2AAIAAA2A24AAA2AA
AAAAA2A2AAAAAIAAAAAI2AAA4AAAA4AAA2IAAAA2AAAAA4A2AA4AAA2A24AAA2AA
AAAAA2A2AAAAAIAAAAAI2AAA4AAAA4AAA2IAAAAAAAAAA4A2AA4AAA2A24AAA2AA
AAAAA2A2AAAAAIAAAAAI2AAA4AAAA4AAA2IAAAAAIAAAA4A2AA4AAA2A24AAA2AA
AAAAA2A2AAAAAIAAAAAI2AAA4AAAA4AAA2IAAAAA4AAAA4A2AA4AAA2A24AAA2AA
AAAAA2A2AAAAA2AAAAAI2AAA4AAAA4AAA2IAAAAA4AAAA4A2AA4AAA2A24AAA2AA
AAAAA2A2AAAAA2AAAAAI2AAA4AAAA4AAA2IAAAAA2AAAA4A2AA4AAA2A24AAA2AA
AAAAA2A2AAAAA2AAAAAI2AAA4AAAA4AAA2IAAAAI2AAAA4A2AA4AAA2A24AAA2AA
AAAAA2A2AAAAA2AAAAAI2AAA4AAAA4AAA2IAAAAIIAAAA4A2AA4AAA2A24AAA2AA
AAAAA2A2AAAAA2AAAAAI2AAA4AAIA4AAA2IAAAAIIAAAA4A2AA4AAA2A24AAA2AA
AAAAA2A2AAAAA2AAAAAI2AAA4AAIA4AAA2AAAAAIIAAAA4A2AA4AAA2A24AAA2AA
AAAAA2A2AAAAA2AAAAAI2AAA4AAIA4AAA2AAAAAIIAAAA4A2AAAAAA2A24AAA2AA
AAAAA2A2AAAAA2AAAAAI2AAA4AAIA4AAA2AAAAAIIAAAAAA2AAAAAA2A24AAA2AA
AAAAA2A2AAAAA2AAAAAI2AAA4AAIA4AAA2AAAAAIIAAAAAA2AAAAAI2A24AAA2AA
AAAAA2A2AAAAA2AAAAAI2AAA4AAIA4AAA2AAAAAAIAAAAAA2AAAAA42A24AAA2AA
AAAAA2A2AAAAA2AAAAAI2AAA4AAIA4AAA2AAAAAAIAAAAIA2AAAAA42A24AAA2AA
AAAAA2A2AAAAA2AAAAAI2AAA4AAIA4AAA2AAAAAAIAAAAIA2AAAAA42A2AAAA2AA
AAAAA2A2AAAAA2AAAAAI2AAA4AAIA4AAA2AAAAAA4AAAAIA2AAAAA42A2AAAA2AA
AAAAA2A2AAAAA2AAAAAI2AAA4AAIA4AAA2AAAAAI4AAAAIA2AAAAA42A2AAAA2AA
AAAAA2A2AAAAA2AAAAAI2AAA4AAIA4AAA2AAAAAA4AAAAIA2AAAAA42A2AAAA2AA
AAAAA2A2AAAAA2AAAAAI2AAA2AAIA4AAA2AAAAAA4AAAAIA2AAAAA42A2AAAA2AA
AAAAA2A2AAAAA2AAAAAI2AAA2AAIA4AAA2AAAAAA4AAAAIA2AAAAA42A2IAAA2AA
AAAAA2A2AAAAA2AAAAAI2AAA2AA4A4AAA2AAAAAA4AAAAIA2AAAAA42A2IAAA2AA
AAAAA2A2AAAAA2AAAAAI2AAA2AA4A4AAA2IAAAAA4AAAAIA2AAAAA42A2IAAA2AA
AAAAA2A2AAAAA2AAAAAI2AAA2AA4A4AAA2IAAAAA4AAAAIA2AAAAA42A2IIAA2AA
AAAAA2A2AAAAA2AAAAAI2AAA2AA4AAAAA24AAAAA4AAAAIA2AAAAA42A2IIAA2AA
AAAAA2A2AAAAA2AAAAAA2AAA2AA4AAAAA24AAAAA4AAAAIA2AAAAA42A2IIAA2AA
AAAAA2A2AAAAA2AAAAAA2AAA2AA4AAAAA24AAAAA2AAAA4A2AAAAA42A24IAA2AA
AAAAA2A2AAAAA2AAAAAI2AAA2AA4AAAAA24AAAAA2AAAA4A2AAAAA42A24IAA2AA
AAAAA2A2AAAAA2AAAAAI2IAA2AA4AAAAA24AAAAA2AAAA4A2AAAAA42A24IAA2AA
AAAAA2A2AAAAA2AAAAAI2IAA2AA4AAAAA24AAIAA2AAAA4A2AAAAA42A24IAA2AA
AAAAA2A2AAAAA2AAAAAI2IAA2AAAAAAAA24AAIAA2AAAA4A2AAAAA42A24IAA2AA
AAAAA2A2AAAAA2AAAAAI2AAA2AAAAAAAA24AA4AA2AAAA4A2AAAAA42A24IAA2AA
AAAAA2A2AAAAA2AAAAAI2AAA2AAAAAAAA24AA4AA2AAAA4A2AAAAA42A244AA2AA
AAAIA2A2AAAAA2AAAAAI2AAA2AAAAAAAA24AA4AA2AAAA4A2AAAAA42A244AA2AA
AAAIA2A2AAAAA2AAAAAI2AAA2AAAAAAAA24AA4AA2AAAA4AAAAAAA42A244AA2AA
AAAIA2A2AAAAA2AAAAAI2AAA2AAIAAAAA24AA4AA2AAAA4AAAAAAA42A244AA2AA
AAAIA2A2AAAAA2AAAAAI2AAAAAA2AAAAA24AA4AA2AAAA4AAAAAAA42A244AA2AA
AAA2A2A2AAAAA2AAAAAI2AAAAAA2AAAAA24AA4AA2AAAA4AAAAAAA42A244AA2AA
AAA2A2A2AAAAA2AAAAA42AAAAAA2AAAAA24AA4AA2AAAA4AAAAAAA42A244AA2AA
AAA2A2A2AAAAA2AAAAA42AAIAAA2AAAAA24AA4AA2AAAA4AAAAAAA42A244AA2AA
AAA2A2A2AAAAA2AAAAA42AAIAAA2AAAAA24AA4AA2AAAA4AAAAAAA42A244AA2AI
AAAAA2A2AAAAA2AAAAA42AAIAAA2AAAAA24AA4AA2AAAA4AAAAAAA42A244AA2AI
AAAAA2A2AAAAA2AAAAA42AAIIAA2AAAAA24AA4AA2AAAA4AAAAAAA42A244AA2AI
AAAAAAA2AAAAA2AAAAA42AA4IAA2AAAAA24AA4AA2AAAA4AAAAAAA42A244AA2AI
AAAIAAA2AAAAA2AAAAA42AA4IAA2AAAAA24AA4AA2AAAA4AAAAAAA42A244AA2AI
AAAIAAA2AAAAA2AAAAA42AA4IAA2AAAAA24AA4AA2AAAA4AAAAAAA42A244AA2A2
AAAIAAA2AAAAA2AAAAA42AA4IAA2AAAAA24AA4AI2AAAA4AAAAAAA42A244AA2A2
AAAIAAA2AAAAA2AAAAA42AA4IAA2AAAAA24AA4AI2AAAA4AAAAAAA42A244AA2AI
AAAIAAA2AAAAA2AAAAA42AA4IAA2AAAAA24AAAA22AAAA4AAAAAAA42A244AA2AI
AAAIAAA2AAAAA2AAAAA42AA4IAA2AAAAA2AAAAA22AAAA4AAAAAAA42A244AA2AI
AAAIAAA2AAAAA2AAAAA42AA4IAA2AAAAA2AAAAA22AAAA4AAAAAAA42A244AA2AA
AAAIAAA2AAAAA2AAAAA42AA4IAAAAAAAA2AAAAA22AAAA4AAAAAAA42A244AA2AA
AAAIAAA2AAAAA2AAAAA42AA4IAAAAAAAA2AAAIA22AAAA4AAAAAAA42A244AA2AA
AAAIAAA2AAAAA2AAAAA42AA4IAAAAAAAA2AAAIA22AAAA4AAAAAAI42A244AA2AA
AAAIAAA2AAAAA2AAAAA42AA4IAAAAAAAA2AAAIA22AAAA4AAAAAAI42A242AA2AA
AAAIAAA2AAAAA2AAAAA42AA4IAAAAAAAA2AAA4A22AAAA4AAAAAAI42A242AA2AA
AAAIAAA2AAAAA2AAAAA42AA4IAAAAAAAA2AAA4A22AAAA4AAAAAAI42A222AA2AA
AAAIAAA2AAAAA2AAAAA42AA4IAAAAAAAA2AAA4A22AAAA4AAAAAAI22A222AA2AA
AAAIAAA2AAAAA2AAAAA42AA44AAAAAAAA2AAA4A22AAAA4AAAAAAI22A222AA2AA
AAAIAAA2AAAAA2AAAAA42AA44AAAAAAAA2AAA4A22AAAAAAAAAAAI22A222AA2AA
AAAIAAA2AAAAA2AAAAAA2AA44AAAAAAAA2AAA4A22AAAAAAAAAAAI22A222AA2AA
AAAIAAA2AAAAA2AAAAAA2AA44AAAAIAAA2AAA4A22AAAAAAAAAAAI22A222AA2AA
AAAIAAA2AAAAA2AAAAAA2AA24AAAA4AAA2AAA4A22AAAAAAAAAAAI22A222AA2AA
AAAIAAA2AAAAA2AAAAAA2AA24AAAA4AAA2AAA4A22AAAAAAAAAAA222A222AA2AA
AAAIAAA2AAAAA2AAAAAA2AAA4AAAA4AAA2AAA4A22AAAAAAAAAAA222A222AA2AA
AAAIAAA2AAAAA2AAAAAA2AAA4AAAA2AAA2AAA4A22AAAAAAAAAAA222A222AA2AA
AAAIAAA2AAAAA2AAAAAA2AAA4AAAA2AAA2AAA4A22AAAAAAAAAAAI22A222AA2AA
AAAIAAA2AAAAA2AAAAAA2AAAAAAAA2AAA2AAA4A22AAAAAAAAAAAI22A222AA2AA
AAAIAAA2AAAAA2AAAAAA2AAIAAAAA2AAA2AAA4A22AAAAAAAAAAAI22A222AA2AA
AAAIAAA2AAAAA2AAAAAA2AAIIAAAA2AAA2AAA4A22AAAAAAAAAAAI22A222AA2AA
AAAIAAA2AAAAA2AAAAAA2AAIAAAAA2AAA2AAA4A22AAAAAAAAAAAI22A222AA2AA
AAAIAAA2AAAAA2AAAAAA2AAAAAAAA2AAA2AAA4A22AAAAAAAAAAAI22A222AA2AA
AAAIAAA2AAAAA2AAAAAA2AAAAAAAA2AAA2AAA4A22AAAIAAAAAAAI22A222AA2AA
AAAIAAA2AAAAA2AAAAAA2AAAAAAAA2AAA2AAA4A22AIAIAAAAAAAI22A222AA2AA
AAAIAAA2AAAAA2AAAAAA2AAAAAAIA2AAA2AAA4A22AIAIAAAAAAAI22A222AA2AA
AAAIAAA2AAAAA2AAAAAA2AAAAAA4A2AAA2AAA4A22AIAIAAAAAAAI22A222AA2AA
AAAIAAA2AAAAA2AAAAAA2AAAAAA4A2AAA2AAA4A22AIA4AAAAAAA422A222AA2AA
AAAIAAA2AAAAA2AAAAAA2AAAAAA4A2AAA2AAA4A22A4A4AAAAAAA422A222AA2AA
AAAIAAA2IAAAA2AAAAAA2AAAAAA4A2AAA2AAA4A22A4A4AAAAAAA422A222AA2AA
AAAIAAA2IAAAA2AAIAAA2AAAAAA4A2AAA2AAA4A22A4A4AAAAAAA422A222AA2AA
AAAIAAA2IAAAA2AAIAAA2AAAAAA4A2AAA2AAA4A22A4AAAAAAAAA422A222AA2AA
AAAIAAA2IAAAA2AAIAAA2AAAAAA4AAAAA2AAA4A22A4AAAAAAAAA422A222AA2AA
AAAIAAA2IAAAA2AA4AAA2AAAAAA4AAAAA2AAA4A22A4AAAAAAAAA422A222AA2AA
AAAIAAA2IAAAA2AA4AAA2AAAAAA4AAAAA2AAI4A22A4AAAAAAAAA422A222AA2AA
AAAIAAA2IAAAA2AA2AAA2AAAAAA4AAAAA2AAI4A22A4AAAAAAAAA422A222AA2AA
AAAIAAA2IAAAA2AA2AAA2AAAAAA4AAAAA2AAI4A2AA4AAAAAAAAA422A222AA2AA
AAAIAAA2IAAAA2AA2AAA2AAAAAA4AIAAA2AAI4A2AA4AAAAAAAAA422A222AA2AA
AAAIAAA2IAAAA2AA2AAA2AAAAAA4AIAAA2AAI4A2AA4AAAAAAAAAA22A222AA2AA
AAAIAAA2IAAAAAAA2AAA2AAAAAA4AIAAA2AAI4A2AA4AAAAAAAAAA22A222AA2AA
AAAIAAA2IAAAAAAAAAAA2AAAAAA4A4AAA2AAI4A2AA4AAAAAAAAAA22A222AA2AA
AAAIAAA2IAAAAAIAAAAA2AAAAAA4A4AAA2AAI4A2AA4AAAAAAAAAA22A222AA2AA
AAAIAAA2IAAAAAIAAAAA2AAAAAA4A4AAA2AAIAA2AA4AAAAAAAAAA22A222AA2AA
AAAIAAA2IAAAAAIAAAAA2AAAAAA4A4AAA2AAIAA2AA4AAAAAAAAAA22A22AAA2AA
AAAIAAA2IAAAAAIAAAAA2AAAAAA4A4AAA2AA4AA2AA4AAAAAAAAAA22A22AAA2AA
AAAIAAA2IAAAAAIAAAAA2AAAAAA4A4AAA2AA4AA2AA4AAAAAAAAAA22A22AAA2AI
AAAIAAA2IAAAAAIAAAAA2AAAAAA4A4AAA2AA4AA2AA4AAAAAAAAAA22A22AAI2AI
AAAIAAA2IAAAAAIAAAAA2AAAAAA4A4AAA2AA4AA2AA4AAAAAAAAAA22A22AA42AI
AAAIAAA2IAAAAA4AAAAA2AAAAAA4A4AAA2AA4AA2AA4AAAAAAAAAA22A22AA42AI
AAAIAAA2AAAAAA4AAAAA2AAAAAA4A4AAA2AA4AA2AA4AAAAAAAAAA22A22AA42AI
AAAIAAA2AAAAAA4AAAAA2IAAAAA4A4AAA2AA4AA2AA4AAAAAAAAAA22A22AA42AI
AAAIAAA2AAAAAA4AAAAA2IAAAAA4A4AAA2AA4AA2AA4AAAAAAAAAA22A22AA42A4
AAAIAAA2AAAAAA4AAAAA2IAAAAA4AAAAA2AA4AA2AA4AAAAAAAAAA22A22AA42A4
AAAIAAA2AAAAAA4AAAAA2IAAAAA4AAAAA2AA4IA2AA4AAAAAAAAAA22A22AA42A4
AAAIAAA2AAAAAA4AAAAA2IAAAAA2AAAAA2AA4IA2AA4AAAAAAAAAA22A22AA42A4
AAAIAAA2AAAAAA4AAAAA2IAIAAA2AAAAA2AA4IA2AA4AAAAAAAAAA22A22AA42A4
AAAIAAA2AAAAAA4AAAAA2IAAAAA2AAAAA2AA4IA2AA4AAAAAAAAAA22A22AA42A4
AAAIAAA2AAAAAA4AAAAA2IAAAAA2AAAAI2AA4IA2AA4AAAAAAAAAA22A22AA42A4
AAAIAAA2IAAAAA4AAAAA2IAAAAA2AAAAI2AA4IA2AA4AAAAAAAAAA22A22AA42A4
AAAIAAA22AAAAA4AAAAA24AAAAA2AAAAI2AA4IA2AA4AAAAAAAAAA22A22AA42A4
AAAIAAA22AAAAA4AAAAA24AAAAA2AAAAI2AA4IA2AA4AAAAAAAIAA22A22AA42A4
AAAIAAA22AAAAA4AAAAA24AAAAAIAAAAI2AA4IA2AA4AAAAAAAIAA22A22AA42A4
AAAIAAA22AAAAA4AAAAA24AAAAAIAAAAI2AA4AA2AA4AAAAAAAIAA22A22AA42A4
AAAIAAA22AAAAA4AAAAA24AAAAAIAAAAI2AA4AA2AA4AAAAAAA4AA22A22AA42A4
AAAIAAA22AAAAA4AAAAA24AAAAAIAAAA42AA4AA2AA4AAAAAAA4AA22A22AA42A4
AAAIAAA22AAAAA4AAAAA24AAAAAIAAAA42AAAAA2AA4AAAAAAA4AA22A22AA42A4
AAAIAAA22AAAAA4AAAAA24AAAAA4AAAA42AAAAA2AA4AAAAAAA4AA22A22AA42A4
AAAIAAA22AAAAA4AAAAA24AAAAI4AAAA42AAAAA2AA4AAAAAAA4AA22A22AA42A4
AAAIAAA22AAAAA4AAAAA24AAAA44AAAA42AAAAA2AA4AAAAAAA4AA22A22AA42A4
AAAIAAA22AAAAI4AAAAA24AAAA44AAAA42AAAAA2AA4AAAAAAA4AA22A22AA42A4
AAA4AAA22AAAAI4AAAAA24AAAA44AAAA42AAAAA2AA4AAAAAAA4AA22A22AA42A4
AAA4AAA22AAAAI4AAAAA24AAAA44AAAA42AAAIA2AA4AAAAAAA4AA22A22AA42A4
AAA2AAA22AAAAI4AAAAA24AAAA44AAAA42AAAIA2AA4AAAAAAA4AA22A22AA42A4
AAA2AAA22AAAAI4AAAAA24AAAA24AAAA42AAAIA2AA4AAAAAAA4AA22A22AA42A4
AAA2AAA22AAAAI4AAAAA24AAAAI4AAAA42AAAIA2AA4AAAAAAA4AA22A22AA42A4
AAA2AAA22AAAAI4AAAAA24AAAAI4AAAA42AAAIA2AA4AAAAAAA4AA22A22AA42AA
AAAIAAA22AAAAI4AAAAA24AAAAI4AAAA42AAAIA2AA4AAAAAAA4AA22A22AA42AA
AAAIAAA22AAAAI4AAAAA2AAAAA44AAAA42AAAIA2AA4AAAAAAA4AA22A22AA42AA
AAA4AAA22AAAAI4AAAAA2AAAAA44AAAA42AAAIA2AA4AAAAAAA4AA22A22AA42AA
AAA4AAA22AAAAI4AAAAA2AAAAA44AAAA42AAAIA2AA4AAAAAAA4AA22A22AA42AI
AAA4AAA22AAAA44AAAAA2AAAAA44AAAA42AAAIA2AA4AAAAAAA4AA22A22AA42AI
AAA4AAA22AAAAA4AAAAA2AAAAA44AAAA42AAAIA2AA4AAAAAAA4AA22A22AA42AI
AAA4AAA22AAAAA4AAAAA2AAAAA44AAAA42AAAIA2AA4AAAAAAA4AA22A22AA42A4
AAAAAAA22AAAAA4AAAAA2AAAAA44AAAA42AAAIA2AA4AAAAAAA4AA22A22AA42A4
AAAIAAA22AAAAA4AAAAA2AAAAA44AAAA42AAAIA2AA4AAAAAAA4AA22A22AA42A4
AAA4AAA22AAAAA4AAAAA2AAAAA44AAAA42AAAIA2AA4AAAAAAA4AA22A22AA42A4
AAA4AAA22AAAAA4AAAAA2AAAAA44AAAA42AAA2A2AA4AAAAAAA4AA22A22AA42A4
AAAAAAA22AAAAA4AAAAA2AAAAA44AAAA42AAA2A2AA4AAAAAAA4AA22A22AA42A4
AAAAAAA22AAAAA4AAAAA2AAAAA44AAAA42IAA2A2AA4AAAAAAA4AA22A22AA42A4
AAAIAAA22AAAAA4AAAAA2AAAAA44AAAA42IAA2A2AA4AAAAAAA4AA22A22AA42A4
AAAIAAA22AAAAA4AAAAA2AAAAA44AAAA42IAA2A2AA4AAAAAAA4AA22A2AAA22A4
AAAIAAA22AAAAA4AAAAA2AAAAA44AAAA424AA2A2AA4AAAAAAA4AA22A2AAA22A4
AAAIAAA2AAAAAA4AAAAA2AAAAA44AAAA424AA2A2AA4AAAAAAA4AA22A2AAA22A4
AAA2AAA2AAAAAA4AAAAA2AAAAA44AAAA424AA2A2AA4AAAAAAA4AA22A2AAA22A4
AAA2AAA2AAAAAA4AAAAA2AAAAA44AAAA424AA2A2AA4AAAAAAA4AAA2A2AAA22A4
AAA2AAA2AAAAAA4AAAAA2AAAAA44AAAA424AA2AAAA2AAAAAAA4AAA2A2AAA22A4
AAA2AAA2AAAAAA4AAAAA2AAAAA44AAAA224AA2AAAA2AAAAAAA4AAA2A2AAA22A4
AAA2AAA2AAAAAA4AAAAA2AAAAA44AAAA224AI2AAAA2AAAAAAA4AAA2A2AAA22A4
AAA2AAA2AAAAAA4AAAAA2AAAAA44AIAA224AI2AAAA2AAAAAAA4AAA2A2AAA22A4
AAAAAAA2AAAAAA4AAAAA2AAAAA44AIAA224AI2AAAA2AAAAAAA4AAA2A2AAA22A4
AAAAAAA2AAAAAA4AAAAA2AAAAA44AAAA224AI2AAAA2AAAAAAA4AAA2A2AAA22A4
AAAAAAA2AAAAAA4AAAAA2AAAAA44AAAAI24AI2AAAA2AAAAAAA4AAA2A2AAA22A4
AAAAAAA2AAAAAA4AAAAA2AAAAAA4AAAA424AI2AAAA2AAAAAAA4AAA2A2AAA22A4
AAAAAAA2IAAAAA4AAAAA2AAAAAA4AAAA424AI2AAAA2AAAAAAA4AAA2A2AAA22A4
AAAAAAA2IAAAAA4AAAAA2AAAAAA4AAAA424AA2AAAA2AAAAAAA4AAA2A2AAA22A4
AAAAAAA2IAAAAA4AAAAA2AAAAAA4AAAA424AAAAAAA2AAAAAAA4AAA2A2AAA22A4
AAAAAAA2IAAAAA4AAAAA2AAAAAA4AAAA424AIAAAAA2AAAAAAA4AAA2A2AAA22A4
AAAAAAA2IAAAAA4AAAAA2AAAAAA4AAAA424AIIAAAA2AAAAAAA4AAA2A2AAA22A4
AAAAAAA2IAAAAA4AAAAA2AAAAAA4AAAA424AIAAAAA2AAAAAAA4AAA2A2AAA22A4
AAAAAAA2IAAAAA4AAAAA2AAAAAA4AAAA424AIAAAAA2AAAAAAA2AAA2A2AAA22A4
AAAAAAA2IAAAAA4AAAAA2AAAAAA4AAAA424AIAAAAA2AAAAAAAAAAA2A2AAA22A4
AAAAAAA2IAAAAA4AAAAA2AAAAAA4AAAA424AIAAAAAAAAAAAAAAAAA2A2AAA22A4
AAAAAAA2IAAIAA4AAAAA2AAAAAA4AAAA424AIAAAAAAAAAAAAAAAAA2A2AAA22A4
AAAAAAA2IAAIAA4AAAAA2AAAAAA4AAAA424AIAAAAAIAAAAAAAAAAA2A2AAA22A4
AAAAAAA2IAAIAA4AAAAA2AAAAAA4AAAAA24A4AAAAA4AAAAAAAAAAA2A2AAA22A4
AAAAAAA2IAAIAA4AAAAA2AAAAAA4AAAAA24A4AAAAA4AAAAAAAAAAA2A2AAAA2A4
AAAAAAA2IAAIAA4AAAAA2AAAAAA4AAAAA24A4AAAAAAAAAAAAAAAAA2A2AAAA2A4
AAAAAAA2IAAIAA4AAAAA2AAAAAA4AAAAA2AA4AAAAAAAAAAAAAAAAA2A2AAAA2A4
AAAAAAA2IAIIAA4AAAAA2AAAAAA4AAAAA2AA4AAAAAAAAAAAAAAAAA2A2AAAA2A4
AAAAAAA2IAIIAA4AAAAA2AAAAAA4AAAAA2AA4AAAAAIAAAAAAAAAAA2A2AAAA2A4
AAAAAAA2IAIIAA4AAAAA2AAAAAA4AAAAA2AA4AAAAAAAAAAAAAAAAA2A2AAAA2A4
AAAAAAA2IAIIAA4AAAAA2AAAAAAAAAAAA2AA4AAAAAAAAAAAAAAAAA2A2AAAA2A4
AAAAAAA2IAIIAA4AAAAA2AAAAAAAAAAAA2AAAAAAAAAAAAAAAAAAAA2A2AAAA2A4
AAAAAAA2IAAIAA4AAAAA2AAAAAAAAAAAA2AAAAAAAAAAAAAAAAAAAA2A2AAAA2A4
AAAAAAA2IAAIAA4AAAAA2AAAAAAAAAAAA2AAAAAAAAIAAAAAAAAAAA2A2AAAA2A4
AAAAAAA2IAAIAA4AAAAI2AAAAAAAAAAAA2AAAAAAAAIAAAAAAAAAAA2A2AAAA2A4
AAAAAAA2IAAIAA4AAAAI2AAAAAAAAAAAA2AAAAAAAA4AAAAAAAAAAA2A2AAAA2A4
AAAAAAA2IAAIAI4AAAAI2AAAAAAAAAAAA2AAAAAAAA4AAAAAAAAAAA2A2AAAA2A4
AAAAAAA2IAAIAI4AAAAI2AAAAAAAAAAAA2AAAAAIAA4AAAAAAAAAAA2A2AAAA2A4
AAAAAAA2IAAIAI4AAAAI2AAAIAAAAAAAA2AAAAAIAA4AAAAAAAAAAA2A2AAAA2A4
AAAAAAA2IAIIAI4AAAAI2AAAIAAAAAAAA2AAAAAIAA4AAAAAAAAAAA2A2AAAA2A4
AAAAAAA2IAIIAI4AAAAI2AAAIAIAAAAAA2AAAAAIAA4AAAAAAAAAAA2A2AAAA2A4
AAAAAAA2IAAIA24AAAAI2AAAIAIAAAAAA2AAAAAIAA4AAAAAAAAAAA2A2AAAA2A4
AAAAAAA2IAAAA22AAAAI2AAA4AIAAAAAA2AAAAAIAA4AAAAAAAAAAA2A2AAAA2A4
AAAAAAA2IAAAA22AAAAI2AAA4A4AAAAAA2AAAAAIAA4AAAAAAAAAAA2A2AAAA2A4
AAAAAAA24AAAA22AAAA42AAA4A4AAAAAA2AAAAAIAA4AAAAAAAAAAA2A2AAAA2A4
AAAAAAA24AAAAI2AAAA42AAA4A4AAAAAA2AAAAAIAA4AAAAAAAAAAA2A2AAAA2A4
AAAAAAA22AAAAI2AAAA42AAA4A4AAAAAA2AAAAAIAA4AAAAAAAAAAA2A2AAAA2A4
AAAAAAA2IAAAAI2AAAA42AAA4A4AAAAAA2AAAAAIAA4AAAAAAAAAAA2A2AAAA2A4
AAAAAAA2IAAAAI2AAAA42AAA4A4AAAAAA2AAAAA4AA4AAAAAAAAAAA2A2AAAA2A4
AAAAAAA24AAAAI2AAAA42AAA4A4AAAAAA2AAAAA4AA4AAAAAAAAAAA2A2AAAA2A4
AAAAAAA24AAAAI2AAAA42AAA4A4IAAAAA2AAAAA4AA4AAAAAAAAAAA2A2AAAA2A4
AAAAAAA24AAAAI2AAAA42AAA4A4IAAAAA2AAAAA4AA4AAAAAAAAAAA2A2AAAA2AA
AAAIAAA24AAAAI2AAAA42AAA4A4IAAAAA2AAAAA4AA4AAAAAAAAAAA2A2AAAA2AA
AAAIAAA24AAAAI2AAAA42AAA4A4IAAAAA2AAAAA2AA4AAAAAAAAAAA2A2AAAA2AA
AAAIAAA24AAAAI2AAAA42AAA4A4IAAAAA2AAAAA2AA4AAAAAAAAAAA2A2AAAA2AI
AAAIAAA24AAAAI2AAAAA2AAA4A4IAAAAA2AAAAA2AA4AAAAAAAAAAA2A2AAAA2AI
AAAIAAA24AAAAI2AAAAA2AAA4A4IAAAAA2AAAAAIAA4AAAAAAAAAAA2A2AAAA2AI
AAAIAAA24AAAAI2AAAAA2AAA4A4IAAAAA2AAAAA4AA4AAAAAAAAAAA2A2AAAA2AI
AAAIAAA24AAAAI2AAAAA2AAA4A4IAAAAA2AAAAA4AA4AAAAAAAAAAA2A2AAAA2AA
AAAIAAA24AAAAI2AAAAA2AAA4A4AAAAAA2AAAAA4AA4AAAAAAAAAAA2A2AAAA2AA
AAAIAAA24AAAAA2AAAAA2AAA4A4AAAAAA2AAAAA4AA4AAAAAAAAAAA2A2AAAA2AA
AAAIAAA24AAAAA2AAAAA2AAA4A4AAAAAA2AAAAA4AA4AAAAAAAAAAI2A2AAAA2AA
AAAIAAA24AAAAAAAAAAA2AAA4A4AAAAAA2AAAAA4AA4AAAAAAAAAAI2A2AAAA2AA
AAAIAAA24AAAAAAAAAAA2AAA4A4AAAAIA2AAAAA4AA4AAAAAAAAAAI2A2AAAA2AA
AAAIAAA24AAAAAAAAAAA2AAA4A4AAAAIA2AAAAAAAA2AAAAAAAAAAI2A2AAAA2AA
AAAIAAA24AAAAAAAAAAA2AAA4A4AAAAIA2AAAAAAAA2AAAAAAAAAA42A2AAAA2AA
AAAIAAA24AAAAAAAAAAA2AAAAA4AAAAIA2AAAAAAAA2AAAAAAAAAA42A2AAAA2AA
AAAIAAA24AAAAAAAAAAA2AAAAA4AAAAII2AAAAAAAA2AAAAAAAAAA42A2AAAA2AA
AAAIAAA24AAAAAAAAAAA2AAAIA4AAAAII2AAAAAAAA2AAAAAAAAAA42A2AAAA2AA
AAAIAAA24AAAAAAAAAAA2AAAIA4AAAA222AAAAAAAA2AAAAAAAAAA42A2AAAA2AA
AAAIAAA24AAAAAAAAAAA2AAAIAAAAAA222AAAAAAAA2AAAAAAAAAA42A2AAAA2AA
AAAIAAA24AAAAAAAAAAA2AAAIAIAAAA222AAAAAAAA2AAAAAAAAAA42A2AAAA2AA
AAAIAAA24AAAAAAAAAAA2AAAIA2AAAA222AAAAAAAA2AAAAAAAAAA42A2AAAA2AA
AAAIAAA24AAAAAAAAAAA2AAAIA2AAAA222AAAAAAAA2AAAAAAAAAAA2A2AAAA2AA
AAAIAAA2AAAAAAAAAAAA2AAAIA2AAAA222AAAAAAAA2AAAAAAAAAAA2A2AAAA2AA
AAAAAAA2AAAAAAAAAAAA2AAAIA2AAAA222AAAAAAAA2AAAAAAAAAAA2A2AAAA2AA
AAAAAIA2AAAAAAAAAAAA2AAAIA2AAAA222AAAAAAAA2AAAAAAAAAAA2A2AAAA2AA
AAAAAIA2AAAAAAAAAAAA2AAAIA2AAAA2A2AAAAAAAA2AAAAAAAAAAA2A2AAAA2AA
AAAAAIA2AAAAAAAAAAAA2AAAAA2AAAA2A2AAAAAAAA2AAAAAAAAAAA2A2AAAA2AA
AAAAAAA2AAAAAAAAAAAA2AAAAA2AAAA2A2AAAAAAAA2AAAAAAAAAAA2A2AAAA2AA
AAAAAAA2AAAAAAAAAAAA2AAAAA2AAAA2A2AAAAAAAA2AAAAAAIAAAA2A2AAAA2AA
AAAAAAA2AAAAAAAAAAAA2AAAAA2AAAA2A2AAAAAAAA2AAAAAA2AAAA2A2AAAA2AA
AAAAAIA2AAAAAAAAAAAA2AAAAA2AAAA2A2AAAAAAAA2AAAAAA2AAAA2A2AAAA2AA
AAAAAIA2AAAAAAAAAAAA2AAAAA2AAAA2A2AAAAAAAA2AAAAAAAAAAA2A2AAAA2AA
AAAAAIA2AAAAAAAAAAAA2AAAAA2AAAA2I2AAAAAAAA2AAAAAAAAAAA2A2AAAA2AA
AAAAAIA2AAAAAAAAAAAA2AAAAA2AAAA2I2AAAAAAAA2AAAAAAAIAAA2A2AAAA2AA
AAAAAIA2AAAAAAAAAAAA2AAAAA2AAAA2I2AAAAAAAA2AAAAAAA4AAA2A2AAAA2AA
AAAAAIA2AAAAAAAAAAAA2AAAAA2AAAA242AAAAAAAA2AAAAAAA4AAA2A2AAAA2AA
AAAAAIA2AAAAAAAAAAAA2AAAAAAAAAA242AAAAAAAA2AAAAAAA4AAA2A2AAAA2AA
AAAAAIA2AAAAAAAAAAAA2AAAAAAIAAA242AAAAAAAA2AAAAAAA4AAA2A2AAAA2AA
AAAAAAA2AAAAAAAAAAAA2AAAAAAIAAA242AAAAAAAA2AAAAAAA4AAA2A2AAAA2AA
AAAAAAA2AAAAAAAAAAAI2AAAAAAIAAA242AAAAAAAA2AAAAAAA4AAA2A2AAAA2AA
AAAAAAA2AAAAAAAAAAAI2AAAAAA4AAA242AAAAAAAA2AAAAAAA4AAA2A2AAAA2AA
AIAAAAA2AAAAAAAAAAAI2AAAAAA4AAA242AAAAAAAA2AAAAAAA4AAA2A2AAAA2AA
AIAAAAA2AAAAAAAAAAII2AAAAAA4AAA242AAAAAAAA2AAAAAAA4AAA2A2AAAA2AA
AIAAAAA2AAAAAAAAAAII2AAAAAA4AAA242AAAAAAAA2AAAAAAA4AAA2A2AAAA2AI
AIAAAAA2AAAAAAAAAAII2AAAAAA4AAA242AAAAAAAA2AAAAAAA4AAA2A2AAAA2A2
AIAAAAA2AAAAAAAAAAII2AAAAAA4AAA242AAAAAAAAAAAAAAAA4AAA2A2AAAA2A2
AIAAAAA2AAAAAAAAAAII2AAAAAA4AAAA42AAAAAAAAAAAAAAAA4AAA2A2AAAA2A2
AIAAAAA2AAAAAAAAAAII2AAAAAA2AAAA42AAAAAAAAAAAAAAAA4AAA2A2AAAA2A2
AIAAAAA2AAAAAAAAAAII2AAAAAA2AAAA42AAAAAAAAAAAAAAAA4AAA2A2AAAI2A2
AIAAAAA2AAAAAAAAAAII2AAAAAA2AAAA42AAAAAAAAAAAAAAAA4AAA2A2AAA42A2
AIAAAAA2AAAAAAAAAAII2AAAAAA2AAAA42AAAAAAAAIAAAAAAA4AAA2A2AAA42A2
AIAAAAA2AAAAAAAAAAA22AAAAAA2AAAA42AAAAAAAAIAAAAAAA4AAA2A2AAA42A2
AIAAAAA2AAAAAAAAAAA22AAAAAA2AAAA42AAAAAAAA4AAAAAAA4AAA2A2AAA42A2
AIAAAAA2AAAAAAAAAAA22AAAAAA2AAAA42AAAAAAAA4AAAAAAA4AAA2A2IAA42A2
AIAAAAA2AAAAAAAAAAA22AAAAAAIAAAA42AAAAAAAA4AAAAAAA4AAA2A2IAA42A2
AIAAAAA2AAAAAAAAAAA22AAAAAAIAAAA42AAAAAAAA4AAAAAAA2AAA2A2IAA42A2
AIAAAAA2AAAAAAAAAAA22AAAAAAIAAAA42AAAAAAAA4AAAAAAA2AAA2I2IAA42A2
AIAAAIA2AAAAAAAAAAA22AAAAAAIAAAA42AAAAAAAA4AAAAAAA2AAA2I2IAA42A2
AIAAAIA2AAAAAAAAAAA22AAAAAAIAAAA42AAAAAAAA4AAAAAAAAAAA2I2IAA42A2
AIAAAIA2AAAAAAAAAAA22AAAIAAIAAAA42AAAAAAAA4AAAAAAAAAAA2I2IAA42A2
AIAAAIA2AAAAAAAAAAAA2AAA4AA4AAAA42AAAAAAAA4AAAAAAAAAAA2I2IAA42A2
AIAAAIA2AAAAAAAAAAAA2AAA4AA4AAAA22AAAAAAAA4AAAAAAAAAAA2I2IAA42A2
AIAAAIA2AAAAAAAAAAAA2AAA4AA4AAAA22AAAAAAAA4AAAAAAAAAAA2I2IAA42AA
AIAAAIA2AAAAAAAAAAAA2AAA4AI4AAAA22AAAAAAAA4AAAAAAAAAAA2I2IAA42AA
AIAIAIA2AAAAAAAAAAAA2AAA4AI4AAAA22AAAAAAAA4AAAAAAAAAAA2I2IAA42AA
AIAIAIA2AAAAAAAAAAAA2AAA4AI4AAAA22AAAAAAAA4AAAAAAAAAAA2I2IAAA2AA
AIAIAIA2AAAAAAAAAAAI2AAA4AI4AAAA22AAAAAAAA4AAAAAAAAAAA2I2IAAA2AA
AIAIAIA2AAAAAAAAAAAI2AAA4AI4AAAA22AAAAAAAA2AAAAAAAAAAA2I2IAAA2AA
AIAIAIA2AAAAAAAAAAAI2AAA4AI4AAAA22AAAAAAAA2AAAAAAAAAAA242IAAA2AA
AIAIAIA2AAAAAAAAAAAI2AAA4AIAAAAA22AAAAAAAA2AAAAAAAAAAA242IAAA2AA
AIAIAIA2AAAAAAAAAAAI2AAA4AIAAAAAA2AAAAAAAA2AAAAAAAAAAA242IAAA2AA
AIAIAIA2AAAAAAAAAAAI2AAA4AIAAAAAA2AAAAAIAA2AAAAAAAAAAA242IAAA2AA
AIAIAIA2AAAAAAAAAAA42AAA4AIAAAAAA2AAAAAIAA2AAAAAAAAAAA242IAAA2AA
AIAIAIA2AAAAAAAAAAA42AAA4A2AAAAAA2AAAAA4AA2AAAAAAAAAAA242IAAA2AA
AIAIAIA2AAAAAAAAAAA42AAA4A2AAAAAA2AAAAA4AA2AAAAAAAAAAA2224AAA2AA
AIAIAIA2AAAAAAAAAAAA2AAA4A2AAAAAA2AAAAA4AA2AAAAAAAAAAA2224AAA2AA
AIAIAIA2AAAAAAAAAAAA2AAA4A2AAAAIA2AAAAA4AA2AAAAAAAAAAA2224AAA2AA
AIAIAIA2AAAAAAAAAAAA2AAI4A2AAAAIA2AAAAA4AA2AAAAAAAAAAA2224AAA2AA
AIAIAIA2AAAAAAAAAAAA2AAI4A2AAAAIA2AAAAA4IA2AAAAAAAAAAA2224AAA2AA
AIAIAIA2AAAAAAAAAAAA2AAI4A2AAAAIA2AAAAA4IA2AAAAAAAAAAA2I24AAA2AA
AIAIAAA2AAAAAAAAAAAA2AAI4A2AAAAIA2AAAAA4IA2AAAAAAAAAAA2I24AAA2AA
AIAIAAA2AAAAAAAAAAAA2AAI4A2AAAAIA2AAAAA4IA2AAAAAAAAAAA2224AAA2AA
AIAIAAA2AAAAAAAAAAAA2AAI4A2AAAAIA2AAAAA4IA2AAAAAAAAAAA222AAAA2AA
AIAIAAA2AAAAAAAAAAAA2AAI4A2AAAAIA2AAAAA4IA2AAAAAAAAAAA2A2AAAA2AA
AIAIAAA2AAAAAAAAAAAA2AAI4A2AAAAIA2AAAAA44A2AAAAAAAAAAA2A2AAAA2AA
AIAIAAA2AAAAAAAAAAAA2AAI4A2AAAAIA2AAAAAA4A2AAAAAAAAAAA2A2AAAA2AA
AIAIAAA2AAAAAAAAAAAA2AAI4A2AAAAIA2AAAAAA4A2AAAAAAAAAAI2A2AAAA2AA
AIAIAAA2AAAAAAAAAAAA2AAI4A2AAAAIA2AAAAAA2A2AAAAAAAAAAI2A2AAAA2AA
AIAIAAA2AAAAAAAAAAAA2AAI4A2AAAAIA2AAAAAA2A2AAAAAAAAAAI2A2IAAA2AA
AIAIAAA2AAAAAAAAAAAA2AAI4A2AAAAIA2IAAAAA2A2AAAAAAAAAAI2A2IAAA2AA
AIAIAAA2AAAAAAAAAAAA2AAI4A2AAAAIA2IAAAAA2A2AAAAAAAAAAI2A24AAA2AA
AIAIAAA2AAAAAAAAAAAA2AAI4A2AAAAIA2IAIAAA2A2AAAAAAAAAAI2A24AAA2AA
AIAIAAA2AAAAAAAAAAAA2AAI4A2AAAAIA2IAIAAA2A2AIAAAAAAAAI2A24AAA2AA
AIAIAAA2AAAAAAAAAAAA2AAI4A2AAAAIA2AA4AAA2A2AIAAAAAAAAI2A24AAA2AA
AIAIAAA2AAAAAAAAAAAA2AAI4A2AAAA4A2AA4AAA2A2AIAAAAAAAAI2A24AAA2AA
AIAIAAA2AAAAAAAAAAAA2AAI4A2AAAA4A2AA4AAA2A2AIAAAAAAAAI2A24AAA2AI
AIAIAAA2AAAAAAAAAAAA2AAI4A2AAAA4A2AA4AAA2A2AIAAAAAAAA22A24AAA2AI
AIAIAAA2AAAAAAAAAAAA2AAA4A2AAAA4A2AA4AAA2A2AIAAAAAAAA22A24AAA2AI
AIAIAAA2AAAAAAAAAAAA2AAA4A2AAAA4A2IA4AAA2A2AIAAAAAAAA22A24AAA2AI
AIAIAAA2AAAAAAAAAAAA2AAA4A2AAAA4A2IA4AAA2A2AIAAAAAIAA22A24AAA2AI
AIAIAAA2AAAAAAAAAAAA2AAA4A2AAAA4A2IA4AAA2A2AIAAAAAIAA22A22AAA2AI
AIAIAAA2AAAAAAAAAAAA2AAA4A2AAAA4A2IA4AAA2A2AIAAAAAIAAA2A22AAA2AI
AIAIAAA2AAAAAAAAAAAA2AAA4A2AAAA4A2IA4AAA2A2A4AAAAAIAAA2A22AAA2AI
AIAIAAA2AAAAAAAAAAAA2AAA4A2AAAA4A2IA4AAA2A2A4AAAAAIAAA2A22AAA2AA
AIAIAAA2AAAAAAAAAAAA2AAA4A2AAAA4A2IA4AAA2A2AAAAAAA4AAA2A22AAA2AA
AIAIAAA2AAAAAAAAAAAA2AAI4A2AAAA4A2IA4AAA2A2AAAAAAA4AAA2A22AAA2AA
AIAIAAA2AAAAAAAAAAAA2AAA4A2AAAA4A2IA4AAA2A2AAAAAAA4AAA2A22AAA2AA
AIAIAAA2AAAAAAIAAAAA2AAA4A2AAAA4A2IA4AAA2A2AAAAAAA4AAA2A22AAA2AA
AIAIAAA2AAAAAAIAAAAA2AAA4A2AAAA4A2IA4AAA2A2AAAAAAA4AAA2A22AAA2AI
AIAIAAA2AAAAAAIAAAAA2AAA4A2AAAA4A2IA4AAA2A2AAAAAAA4AAA2I22AAA2AI
AIAIAAA2AAAAAAAAAAAA2AAA4A2AAAA4A2IA4AAA2A2AAAAAAA4AAA2I22AAA2AI
AIAIAAA2AAAAAAAAAAAA2AAAAA2AAAA4A2IA4AAA2A2AAAAAAA4AAA2I22AAA2AI
AIAIAAA2AAAAAAAAAAAA2AAAAA2AAAA4A2IA4AAA2A2AAAAAAA4AAA2222AAA2AI
AIAIAAA2AAAAAAAAAAAI2AAAAA2AAAA4A2IA4AAA2A2AAAAAAA4AAA2222AAA2AI
AAA2AAA2AAAAAAAAAAAI2AAAAA2AAAA4A2IA4AAA2A2AAAAAAA4AAA2222AAA2AI
AAAAAAA2AAAAAAAAAAAI2AAAAA2AAAA4A2IA4AAA2A2AAAAAAA4AAA2222AAA2AI
AAAAAAA2AAAAAAAAAAAI2AAAAA2AAAA4A2AA4AAA2A2AAAAAAA4AAA2222AAA2AI
AAAAAAA2AAAAAAAAAAAI2AAAAA2AAAAAA2AA4AAA2A2AAAAAAA4AAA2222AAA2AI
AAAAAAI2AAAAAAAAAAAI2AAAAA2AAAAAA2AA4AAA2A2AAAAAAA4AAA2222AAA2AI
AAAAAAI2AAAAAAAAAAAI2AAAAA2AAAAAA2AA4AAA2A2AAAAAAA4AAA2222AAA2II
AAAAAAI2AAAAAAAAAAAI2AAAAA2AAAAIA2AA4AAA2A2AAAAAAA4AAA2222AAA2II
AAAAAAI2AAAAAAAAAAAI2AAAAA2AAAAIA2AA4AAA2A2AAAAAAA4AAA2222AAA2IA
AAAAAAI2AAAAAAAAAAAI2AAAAA2AAAAIA2AA4AAA2A2AAAAAAA4AAA2222AAA2AA
AAAAAAI2AAAAAAAAAAAI2AAAAA2AAAAIA2AA4AAA2A2AAAAAAAAAAA2222AAA2AA
AAAAAAI2AAAAAAAAAAAA2AAAAA2AAAAIA2AA4AAA2A2AAAAAAAAAAA2222AAA2AA
AAAAAAI2AAAAAAAAAAAA2AAAAA2AAAAIA2AAAAAA2A2AAAAAAAAAAA2222AAA2AA
AAAAAAI2AAAAAAAAAAAA2AAAAA2AAAAIA2AAAAAA2A2AAAAIAAAAAA2222AAA2AA
AAAAAAI2AAAAAAAAAAAA2AAAAA2AAAAIA2AAAAAA2A2AAAAIAAAAAA2222AAA2IA
AAAAAA22AAAAAAAAAAAA2AAAAA2AAAAIA2AAAAAA2A2AAAAIAAAAAA2222AAA2IA
AAAAAA22AAAAAAAAAAAA2AAAAA2AAAA4A2AAAAAA2A2AAAAIAAAAAA2222AAA2IA
AAAAAA22AAAAAAAAAAAA2AAAAA2AAAA4A2AAAAAA2A2AAAAIAIAAAA2222AAA2IA
AAAAAA22AAIAAAAAAAAA2AAAAA2AAAA4A2AAAAAA2A2AAAAIAIAAAA2222AAA2IA
AAAAAA22AAIAAAAAAAAA2AAAAA2AAAA4A2AAAAAA2A2AAAAIAIIAAA2222AAA2IA
AAAAAA22AAIAAAAAAAAI2AAAAA2AAAA4A2AAAAAA2A2AAAAIAIIAAA2222AAA2IA
AAAIAA22AAIAAAAAAAAI2AAAAA2AAAA4A2AAAAAA2A2AAAAIAIIAAA2222AAA2IA
AAAIAA22AAIAAAAAAAAI2AAAAA2AAAA4A2AAAAAA2A2AAAAIA4IAAA2222AAA2IA
AAAIAA22AAIAAAAAAAAI2AAAAA2AAAA4A2AAAAAA2A2AAAAIA4IAAA2A22AAA2IA
AAAIAA22AAIAAAAAAAAI2AAAIA2AAAA4A2AAAAAA2A2AAAAIA4IAAA2A22AAA2IA
AAAIAA22AAIAAAAAAAAI2AAAIA2AAAA4A2AAAAAA2A2AAAA4A4IAAA2A22AAA2IA
AAAIAA22AAIAAAAAAAAA2AAAIA2AAAA4A2AAAAAA2A2AAAA4A4IAAA2A22AAA2IA
AAAIAA22AAIAAAAAAAAA2AAA4A2AAAA4A2AAAAAA2A2AAAA4A4IAAA2A22AAA2IA
AAAIAA22AAIAAAAAAAAA2AAA4A2AAAA4A2AAAAAA2A2AAAA4A4IAAA2A2AAAA2IA
AAAIAA22AA4AAAAAAAAA2AAA4A2AAAA4A2AAAAAA2A2AAAA4A4IAAA2A2AAAA2IA
AAAAAA22AA4AAAAAAAAA2AAA4A2AAAA4A2AAAAAA2A2AAAA4A4IAAA2A2AAAA2IA
AAAAAA22AA4AAAAAAAAA2AAA4A2AAAA4A2AAAAAA2A2AAAA4A4IAAA2A2IAAA2IA
AAAAAA22AA4AAAAAAAAA2AAA4A2AAAA4A2AAAAAA2A2AAAA2A44AAA2A2IAAA2IA
AAAIAA22AA4AAAAAAAAA2AAA4A2AAAA4A2AAAAAA2A2AAAA2A44AAA2A2IAAA2IA
AAAIAA22AAAAAAAAAAAA2AAA4A2AAAA4A2AAAAAA2A2AAAA2A44AAA2A2IAAA2IA
AAAIAA22AAAAAAAAAAAA2AAA4A2AAAA4A2AAAAAA2A2AAIA2A44AAA2A2IAAA2IA
AAAIAA22AAAAAIAAAAAA2AAA4A2AAAA4A2AAAAAA2A2AAIA2A44AAA2A2IAAA2IA
AAAIAA22AAAAAIAAAAAA2AAA4A2AAAA4A2AAAAAA2A2AAIA2A44AAA2A2IAAA22A
AAAIAA22AAAAAIAAAAAA2AAA4A2AAAA4A2AAAAAA2A2AIIA2A44AAA2A2IAAA22A
AAAIAA22AAAAAIAAAAAA2AAA4A2AAAA4A2AAAAAA2A2AIIA2A4AAAA2A2IAAA22A
AAAIAA22AAAAAIAAAAAA2AAA4A2AAAA4A2AAAAAA2A2AIIA2A4AAAA2A24AAA22A
AAAIAA22AAAAAIAAAAAA2AAA4A2AAAA4A2AAAAAA2A2AIIAAA2AAAA2A24AAA22A
AAAIAA22AAAAAIAAAAAA2AAA4A2AAAA4A2AAAAAA2A2A4IAAA2AAAA2A24AAA22A
AAAIAA22AAAAAIAAAAAA2AAA4A2AAAA4A2AAAAAA2A2AAIAAA2AAAA2A24AAA22A
AAAIAA22AAAAAIAAAAAA2AAA4A2AAAA4A2AAAAAA2A2AAIAAA2AAIA2A24AAA22A
AAA4AA22AAAAAIAAAAAA2AAA4A2AAAA4A2AAAAAA2A2AAIAAA2AAIA2A24AAA22A
AAA4AA22AAAAAIAAAAAA2AAA4A2AAAA4A2AAAAAA2A2AAIAAA2AA4A2A24AAA22A
AAA4AA22AAAAAIAAAAIA2AAA4A2AAAA4A2AAAAAA2A2AAIAAA2AA4A2A24AAA22A
AAA4AA22AAAAAIAAAAIA2AAA4A2AAAA4A2AAAAAA2A2AAIAAAAAA4A2A24AAA22A
AAA4AA22AAAAA4AAAAIA2AAA4A2AAAA4A2AAAAAA2A2AAIAAAAAA4A2A24AAA22A
AAA4AA22AAAAA4AAAAIA2AAA4A2AAAA4A2AAAAAA2A2AAIAIAAAA4A2A24AAA22A
AAA4AA22AAAAA4AAAAIA2AAA4A2AAAA4A2AAAAAI2A2AAIAIAAAA4A2A24AAA22A
AAA4AA22AAAAA2AAAAIA2AAA4A2AAAA4A2AAAAAI2A2AAIAIAAAA4A2A24AAA22A
AAA4AA22AAAAA2AAAAIA2AAA4A2AAAA4A2AAAAAI2A2AAIAIAAAAAA2A24AAA22A
AAA4AA22AAAAA2AAAAIA2AAA4A2AAAA4A2AAAAAI2A2AAIAIAAAAAA2A2AAAA22A
AAA4AA22AAAAA2AAAAIA2AAA4A2AAAA4A2AAAAAI2A2AAIAIAAAAAA2A2AIAA22A
AAA4AA22AAAAA2AAAAIA2AAA4A2AAAA4A2AAAAAI2A2AAIAIAAIAAA2A2AIAA22A
AAA4AA22AAAAA2AAAAII2AAA4A2AAAA4A2AAAAAI2A2AAIAIAAIAAA2A2AIAA22A
AAA4AA22AAAAA2AAAAII2AAA4A2AAAA4A2AAAAAI2A2AAIAIAAIAIA2A2AIAA22A
AAA4AA22AAAAA2AAAAII2AAA4A2AAAA4A2AAAAAI2A2AAIAIAAIAIA2A2A4AA22A
AAA4AA22AAAAA2AAAAII2AAA4A2AAAA4A2AAAAAI2A2AAIAIAAIAIA2A2A4AA2AA
AAA4AA22AAAAA2AAAAII2AAA4A2AAAA4A2AAAAAI2A2AAIAIAAAA4A2A2A4AA2AA
AAA4AA22AAAAA2AAAAII2AAA4A2AAAA4A2AAAAAIAA2AA2AIAAAA4A2A2A4AA2AA
AAA4AA22AAAAA2AAAAII2AAA4A2AAAA4A2AAAAAIAA2AA2AIAAAA4A2A2A4AI2AA
AAA4AA22AAAAA2AAAAII2AAA4A2AAAA4A2AAAAAIAA2AAAA4AAAA4A2A2A4AI2AA
AAA4AA22AAAAA2AAAAII2AAA4A2AAAA4A2AAAAAIAA2AAAA4AAAA4A2A2AAA42AA
AAA4AA22AAAAA2AAAAII2AAA4A2AAAA4A2AAAAA4AA2AAAA4AAAA4A2A2AAA42AA
AAA4AA22AAAAA2AAAAII2AAA4A2AAAA4A2AAAAA4AA2AAAA4AAAA4A2A2AAAA2AA
AAA4AA22AAAAAAAAAA4I2AAA4A2AAAA4A2AAAAA4AA2AAAA4AAAA4A2A2AAAA2AA
AAA4AA22AAAAAAAAAA4I2AAA4A2AAAA4A2AAAAA4AA2AAAAAAAAA2A2A2AAAA2AA
AAA4AA22AAAAAAAAAA4I2AAAAA2AAAA4A2AAAAA4AA2AAAAAAAAA2A2A2AAAA2AA
AAA4AA22AAAAAAAAAAAI2AAAAA2AAAA4A2AAAAA4AA2AAAAAAAAA2A2A2AAAA2AA
AAA4AA22AAAAAAAAAAAI2AAAAA2AAAA4A2AAAAA4AA2AAAAAAAAA2A2A2AAAI2AA
AAA4AA22AAAAAAAAAAAI2AAAAA2AAAA4A2AAAAA4AA2AAAAAAAAAIA2A2AAAI2AA
AAA4AA22AAAAAAAAAAAI2AAAAA2AAAA4A2AAIAA4AA2AAAAAAAAAIA2A2AAAI2AA
AAAAAA22AAAAAAAAAAAI2AAAAA2AAAA4A2AAIAA4AA2AAAAAAAAAIA2A2AAAI2AA
AAAAAA22AAAAAAAAAAA22AAAAA2AAAA4A2AAIAA4AA2AAAAAAAAAIA2A2AAAI2AA
AAAAAA22AAAAAAAAAAA22AAAAA2AAAA4A2AAIAA4AA2AAAAAAAAA4A2A2AAAI2AA
AAAAAA22AAAAAAAAAAA22AAAAA2AAAA4A2AAIAA4AAAAAAAAAAAA4A2A2AAAI2AA
AAAAAAA2AAAAAAAAAAA22AAAAA2AAAA4A2AAIAA4AAAAAAAAAAAA4A2A2AAAI2AA
AAAAAAA2AAAAAAAAAAA22AAAAA2AAAA4A2AAIAA4AAAAAAAAAAAA2A2A2AAA42AA
AAAAAAA2AAAAAAAAAAA22AAAAA2AAAA2A2AAIAA4AAAAAAAAAAAA2A2A2AAA42AA
AAAAAAA2AAAAAAAAAAA22AAAAA2AAAA2A2AAIAAAAAAAAAAAAAAA2A2A2AAA42AA
AAAAAAA2AAAAAAAAAAA22AAAAA2AAAA2A2AAAAAAAAAAAAAAAAAA2A2A2AAA42AA
AAAAAAA2AAAAAAAAAAA22AAAAA2AAAA2A2AAAAAAAAAAAAAAAAAAIA2A2AAA42AA
AAAAAAA2AAAAAAAAAAA22AAAAA2AAAA2A2AAAAAAAAAAAAAAAAAA4A2A2AAA42AA
AAAAAAA2AAAAAAAAAAA22AAAAA2AAAA2A2AAAIAAAAAAAAAAAAAA4A2A2AAA42AA
AAAAAAI2AAAAAAAAAAA22AAAAA2AAAA2A2AAAIAAAAAAAAAAAAAA4A2A2AAA42AA
AAAAAAI2AAAAAAAAAAA22AAIAA2AAAA2A2AAAIAAAAAAAAAAAAAA4A2A2AAA42AA
AAAAAAI2AAAAAAAAAAA22AAIAA2AAAAIA2AAAIAAAAAAAAAAAAAA4A2A2AAA42AA
AAAAAAI2AAAAAAAAAAA22AAIAA2AAAAIA2IAAIAAAAAAAAAAAAAA4A2A2AAA42AA
AAAAAAI2AAAAAAAAAAA22AAIAA2AAAA4A2IAAIAAAAAAAAAAAAAA4A2A2AAA42AA
AAAAAAI2AAAAAAAAAAA22AA4AA2AAAA4A2IAAIAAAAAAAAAAAAAA4A2A2AAA42AA
AAAAAAI2AAAAAAAAIAA22AA4AA2AAAA4A2IAAIAAAAAAAAAAAAAA4A2A2AAA42AA
AAAAAA22AAAAAAAAIAA22AA4AA2AAAA4A2IAAIAAAAAAAAAAAAAA4A2A2AAA42AA
AAAAAA22AAAAAAAAIAA22AA4AAAAAAA4A2IAAIAAAAAAAAAAAAAA4A2A2AAA42AA
AAAAAA22AAAAAAAAIAA22AA4AAAAAAA2A2IAAIAAAAAAAAAAAAAA4A2A2AAA42AA
AAAAAA22AAAAAAAAIAA22AAAAAAAAAA2A2IAAIAAAAAAAAAAAAAA4A2A2AAA42AA
AAAAAA22AAAAAAAAIAA22AAAAAAAAAAAA22AAIAAAAAAAAAAAAAA4A2A2AAA42AA
AAAAAA22AAAAAAAAIAA22AAAAAAAAAAAI22AAIAAAAAAAAAAAAAA4A2A2AAA42AA
AAAAAA22AAAAAAAA2AA22AAAAAAAAAAAI22AAIAAAAAAAAAAAAAA4A2A2AAA42AA
AAAAAA22AAAAAAAA2AA22AAAAAAAAAAAI22AAIAAAAAAAAAAAAAAAA2A2AAA42AA
AAAAAA22AAAAAAAA2AA22AAAAAAAAAAA222AAIAAAAAAAAAAAAAAAA2A2AAA42AA
AAAAAA22AAAAAAAA2AA22AAAAAAAAAAA22IAAIAAAAAAAAAAAAAAAA2A2AAA42AA
AAAAAA22AAAAAAAAAAA22AAAAAAAAAAA22IAAIAAAAAAAAAAAAAAAA2A2AAA42AA
AAAAAA22AAAAAAAAAAA22AAAAAAAAAAA22IAAIAAAAAAAAAAAAAAIA2A2AAA42AA
AAAAAA22AAAAAAAAAAA22AAAAAAAAIAA22IAAIAAAAAAAAAAAAAAIA2A2AAA42AA
AAAAAA22AAAAAAAAAAA22AAAAAAAA4AA22IAAIAAAAAAAAAAAAAAIA2A2AAA42AA
AAAAAA22AAAAAAAAAAA22AAAAAAAA4AAI2IAAIAAAAAAAAAAAAAAIA2A2AAA42AA
AAAAAA22AAAAAAAAAAAA2AAAAAAAA4AAI2IAAIAAAAAAAAAAAAAAIA2A2AAA42AA
AAAAAA22AAAAAAAAAAAA2AAAAAAAA4AAI2IAAIAAAAAAAAAAAAAA2A2A2AAA42AA
AAAAAA22AAAAAAAAAAAA2AAAAAAAA4AA42IAAIAAAAAAAAAAAAAA2A2A2AAA42AA
AAAIAA22AAAAAAAAAAAA2AAAAAAAA4AA42IAAIAAAAAAAAAAAAAA2A2A2AAA42AA
AAAIAA22AAAAAAAAAAAA2AAAAAAAA4AA42IAAIAAAAAAAAAAAAAAIA2A2AAA42AA
AAAIAA22AAAAAAAAAAAA2AAAAAAAA4AA42IAAIAAAAAAAAAAAAAAIA2A2AAAA2AA
AAAIAA22AAAAAAAAAAAA2AAAAAAAA4AA42IAAIAAAAAAAAAAAAAAAA2A2AAAA2AA
AAAIAAA2AAAAAAAAAAAA2AAAAAAAA4AA42IAAIAAAAAAAAAAAAAAAA2A2AAAA2AA
AAAIAAA2AAAIAAAAAAAA2AAAAAAAA4AA42IAAIAAAAAAAAAAAAAAAA2A2AAAA2AA
AAAIAAA2AAAIAAAAAAAA2AAAAAAAA4AA42IAAIAAAAIAAAAAAAAAAA2A2AAAA2AA
AAAIAAA2AAAIAAAAAAAA2AAAAAAAA4AA42IAA4AAAAIAAAAAAAAAAA2A2AAAA2AA
AAA2AAA2AAA4AAAAAAAA2AAAAAAAA4AA42IAA4AAAAIAAAAAAAAAAA2A2AAAA2AA
AAA2AAA2AAA4AAAAAAAA2AAAAAAAA4AA42IAA4AAAA2AAAAAAAAAAA2A2AAAA2AA
AAA2AAA2AAA4AAAAAAAA2AAAAAAAA2AA42IAA4AAAA2AAAAAAAAAAA2A2AAAA2AA
AAAIAAA2AAA4AAAAAAAA2AAAAAAAA2AA42IAA4AAAA2AAAAAAAAAAA2A2AAAA2AA
AAAIAAA2AAA4AAAAAAAA2AAAAAAAA2AA42IAA4AAAA2AAAAAAAAAAA2A2AAAI2AA
AAAIAAA2AAA4AAAAAAAA2AAAAAAAAIAA42IAA4AAAA2AAAAAAAAAAA2A2AAAI2AA
AAAIAAA2AAA4AAAAAAAA2AAAAAAAAIAA424AA4AAAA2AAAAAAAAAAA2A2AAAI2AA
AAAIAAA2AAA4AAAAAAAA2AAAAAAAAAAA224AA4AAAA2AAAAAAAAAAA2A2AAAI2AA
[...]
AAAAAAA2AAAAAAAA2AA42AAI2AAAAAA4A2AAAAAA2AAAA2AAAAAA2A242A4A22A4
AAAAAAA2AAAAAAAA2AA42AAI2AAAAAA4A2AAAAAAAAAAA2AAAAAA2A242A4A22A4
AAAAAAA2AAAAAAAA2AA42AAI2AAAAAA4A2AAAAAAAAAAA2AAAIAA2A242A4A22A4
AAAAAAA2AAAAAAAA2AA42AAI2AAAAAA4A2AAAAAAAAAAA2AAA4AA2A242A4A22A4
AAAAAIA2AAAAAAAA2AA42AAI2AAAAAA4A2AAAAAAAAAAA2AAA4AA2A242A4A22A4
AAAAAIA2AAAAAAAA2AA42AAI2AAAAAAAA2AAAAAAAAAAA2AAA4AA2A242A4A22A4
AAAAAIA2AAAAAAAA2AA42AAIAAAAAAAAA2AAAAAAAAAAA2AAA4AA2A242A4A22A4
AAAAAIA2AAAAAAAA2AA42AAIIAAAAAAAA2AAAAAAAAAAA2AAA4AA2A242A4A22A4
AAAAAIA2AAAAAAAA2AA42AAIIAIAAAAAA2AAAAAAAAAAA2AAA4AA2A242A4A22A4
AAAAAIA2AAAAAAAA2AA42AAIIAIAAAAAA2AAAAAAAAAAA2AAA4AA2A242A4A22I4
AAAAAIA2AAAIAAAA2AA42AAIIAIAAAAAA2AAAAAAAAAAA2AAA4AA2A242A4A22I4
AAAAAIA2AAAIAAAA2AA42AAI2A4AAAAAA2AAAAAAAAAAA2AAA4AA2A242A4A22I4
AAAAAIA2AAAIAAAA2AA42AAI2A4AAAAAA2AAAAAAAAAAA2AAAAAA2A242A4A22I4
AAAAAIA2AAAIAAAA2AA42AAI2A4AAAAAA2AAAAAAAAAAA2AAAAAA2A242A4A22IA
AAAAAAA2AAAIAAAA2AA42AAI2A4AAAAAA2AAAAAAAAAAA2AAAAAA2A242A4A22IA
AAAAAAA2AAAIAAAA2AA42IAI2A4AAAAAA2AAAAAAAAAAA2AAAAAA2A242A4A22IA
AAAAAAA2AAAIAAAA2AA42IAI2A4AAIAAA2AAAAAAAAAAA2AAAAAA2A242A4A22IA
AAAAAAA2AAAIAAAA2AA42IAI2A4AAIAAA2AAAAAAAAAAA2AAAIAA2A242A4A22IA
AAAAAAA2AAAIAAAA2AA42IAIIA4AAIAAA2AAAAAAAAAAA2AAAIAA2A242A4A22IA
AAAAAAA2AAAIAAAA2AA42IAIIA4AAIAAA2AAAAAAAAAAA2AAA4AA2A242A4A22IA
AAAAAAA2AAAIAAAA2AA422A4IA4AA4AAA2AAAAAAAAAAA2AAA4AA2A242A4A22IA
AAAAAAA2AAAIAAAA2AA422A4IA4AA4AAA2AAIAAAAAAAA2AAA4AA2A242A4A22IA
AAAAAAA2AAAIAAAA2AA422A4IA4AAAAAA2AAIAAAAAAAA2AAA4AA2A242A4A22IA
AAAAAAA2AAAIAAAA2AA422A4IA4AAAAAA2AA4AAAAAAAA2AAA4AA2A242A4A22IA
AAAAAAA2AAAIAAAA2AA422A4AA2AAAAAA2AA4AAAAAAAA2AAA4AA2A242A4A22IA
AAAAAAA2AAAIAAAA2AA422A4AAAAAAAAA2AA4AAAAAAAA2AAA4AA2A242A4A22IA
AAAAAAA2AAAIAAAA2AA422A4AAAAAAAAI2AA4AAAAAAAA2AAA4AA2A242A4A22IA
AAAAAAA2AAAIAAAA2AA422A4AAAAAAAAI2AA4AAAAAAAA2AAAAAA2A242A4A224A
AAAAAAA2AAAAAAAA2AA422A4AAAAAAAA42AA4AAAAAAAA2AAAAAA2A242A4A224A
AAAAAAA2AAAAAAAA2AA422A4AAAAAAAA42AA4AAAAAAAA2AAAIAA2A242A4A224A
AAAAAAA2AAAAAAAA2AA422A4AAIAAAAA42AA4AAAAAAAA2AAAIAA2A242A4A224A
AAAAAAA2AAAAAAAA2AAA22A4AA4AAAAA42AA4AAAAAAAA2AAAIAA2A242A4A224A
AAAAAAA2AAAIAAAA2AAA22A4AA4AAAAA42AA4AAAAAAAA2AAAIAA2A242A4A224A
AAAAAAA2AAAIAAAA2AAI22A4AA4AAAAA42AA4AAAAAAAA2AAAIAA2A242A4A224A
AAAAAAA2AAAIAAAA2AAI22A4AA4IAAAA42AA4AAAAAAAA2AAAIAA2A242A4A224A
AAAAAAA2AAAAAAAA2AAI22A4AA4IAAAA42AA4AAAAAAAA2AAAIAA2A242A4A224A
AAAAAAA2AAAAAIAA2AAI22A4AA4IAAAA42AA4AAAAAAAA2AAAIAA2A242A4A224A
AAAAAAA2AAAAAAAA2AAI22A4AA4IAAAA42AA4AAAAAAAA2AAAIAA2A242A4A224A
AAAAAAA2AAAAAAAA2AAI22A4AAAIAAAA42AA4AAAAAAAA2AAAIAA2A242A4A224A
AAAAAAA2AAAIAAAA2AAI22A4AAAIAAAA42AA4AAAAAAAA2AAAIAA2A242A4A224A
AAAAAAA2AAAIAAAA2AAI22A4AAAIAAAAA2AA4AAAAAAAA2AAAIAA2A242A4A224A
AAAAAAA2AAA4AAAA2AA422A4AAAIAAAAA2AA4AAAAAAAA2AAAIAA2A242A4A224A
AAAAAAA2AAA4AAAA2AA422A4AAA4AAAAA2AA4AAAAAAAA2AAAIAA2A242A4A224A
AAAAAIA2AAA4AAAA2AA422A4AAA4AAAAA2AA4AAAAAAAA2AAAIAA2A242A4A224A
AAAAA2A2AAA4AAAA2AA422A4AAA4AAAAA2AA4AAAAAAAA2AAAIAA2A242A4A224A
AAAAA2A2AAA4AAAA2AA422A4AAA4AAAAA2AA4AAAAAAAA2AAA4AA2A242A4A224A
AAAAA2A2AAA4AAIA2AA422A4AAA4AAAAA2AA4AAAAAAAA2AAA4AA2A242A4A224A
AAAAA2A2AAA4AAIA2AA422A4AAA4AAAAA2AA4AAAAAAAA2AIA4AA2A242A4A224A
AAAAA2A2AAA4AAIA2AA422A4AAA4AAAAA2AA4AAAAAAAA2A2A4AA2A242A4A224A
AAAAAAA2AAA4AAIA2AA422A4AAA4AAAAA2AA4AAAAAAAA2A2A4AA2A242A4A224A
AAAAAAA2AAA4AAIA2AA42AA4AAA4AAAAA2AA4AAAAAAAA2A2A4AA2A242A4A224A
AAAAAIA2AAA4AAIA2AA42AA4AAA4AAAAA2AA4AAAAAAAA2A2A4AA2A242A4A224A
AAAAAIA2AAA4AAIA2AA42AA4AAA4AAAAA2AA4IAAAAAAA2A2A4AA2A242A4A224A
AAAAAIA2AAA4AAIA2AA42AA4AAA4AAAAA2AA4IAAAAAAI2A2A4AA2A242A4A224A
AAAAAIA2AAA4AAIA2AA42AA4AAA2AAAAA2AA44AAAAAAI2A2A4AA2A242A4A224A
AAAAAIA2AAA4AAIA2AA42AA4AAA2AIAAA2AA44AAAAAAI2A2A4AA2A242A4A224A
AAAAAIA2AAA4AAIAAAA42AA4AAA2A4AAA2AA44AAAAAAI2A2A4AA2A242A4A224A
AAAAAIA2AAA4AAIAAAA42AA4IAA2A4AAA2AA44AAAAAAI2A2A4AA2A242A4A224A
AAAAAIA2AAA4AAIAAAA42AA4IAA2A4AAA2AA44AAAAAA42A2A4AA2A242A4A224A
AAAAA2A2AAA4AAIAAAA42AA4IAA2A4AAA2AA44AAAAAA42A2A4AA2A242A4A224A
AAAAA2A2AAA4AAIAAAA42AA4IAAAA2AAA2AA44AAAAAA42A2A4AA2A242A4A224A
AAAAA2A2AAA4AAIAAAA42AA4IAAAA2AAA2AA44AAAAAA42AAA4AA2A242A4A224A
AAAAA2A2AAA4AAIAAAA42AA4IAAAA2AAA2AA44AAAAAA42AIA4AA2A242A4A224A
AAAAA2A2AAA4AAIAAAA42AA4IAAAA2AAA2AA44AAAAAA42AIA4AA2A242AAA224A
AAAIA2A2AAA4AAIAAAA42AA4IAAAA2AAA2AA44AAAAAA42AIA4AA2A242AAA224A
AAAIA2A2AAA4AAIAAAA42AA4IAAAA2AAA2AA44AAAAAA42AIA4AA2A242AAA22AA
AAAIA2A2AAA4AAIAAAA42AA4IAAAA2AAA2AA44AAAAAA42AIA4AA2A222AAA22AA
AAAIA2A2AAA4AAIAAAA42AA4IAAAA2AAA2AA44AAAAAA42AIA4AA2A2A2AAA22AA
AAAIA2A2AAA4AAIAAAA42AA4IAAAA2AAA2AA44AAAAAAA2A4A4AA2A2A2AAA22AA
AAAIA2A2AAA4AAIAAAA42AA4AAAAA2AAA2AA44AAAAAAA2A4A4AA2A2A2AAA22AA
AAAIA2A2AAA2AAIAAAA42AA4AAAAA2AAA2AA44AAAAAAA2A4A4AA2A2A2AAA22AA
AAAIA2A2AAA2AAIAAAA42AA4AAAAA2AAA2AA44AAAAAAA2A4A4AA2I2A2AAA22AA
AAAIA2A2AAA2AAIAAAA42AA4AAAAA2AAA2AA44AAAAAAA2A4A4AA2I2I2AAA22AA
AAAIA2A2AAA2AAIAAAA42AA4AAAAA2AAA2AA4AAAAAAAA2A4A4AA2I2I2AAA22AA
AAAIA2A2AAAIAAIAAAA42AA4AAAAA2AAA2AA4AAAAAAAA2A4A4AA2I2I2AAA22AA
AAAIA2A2AAAIAAIAAAA42AA4AAAAAAAAA2AA4AAAAAAAA2A4A4AA2I2I2AAA22AA
AAAIA2A2AAAIAAIAAAA42AA4IAAAAAAAA2AA4AAAAAAAA2A4A4AA2I2I2AAA22AA
AAAIA2A2AAAIAAIAAAAA2AA44AAAAAAAA2AA4AAAAAAAA2A4A4AA2I2I2AAA22AA
AAAIA2A2AAAIAAIAAAAA2AA42AAAAAAAA2AA4AAAAAAAA2A4A4AA2I2I2AAA22AA
AAAIA2A2AAAIAAIAAAAA2AA42AAAAAAAA2AA4AAAAAAAA2A4A4AA222I2AAA22AA
AAAIA2A2AAAAAA2AAAAA2AA42AAAAAAAA2AA4AAAAAAAA2A4A4AA222I2AAA22AA
AAAIA2A2AAAAAA2AAAAA2AA42AAAAAAAA2AA4AAAAAAAA2A2A4AA222I2AAA22AA
AAA2A2A2AAAAAA2AAAAA2AA42AAAAAAAA2AA4AAAAAAAA2A2A4AA222I2AAA22AA
AAA2A2A2AAAAAA2AAAAA2AA42AAAAIAAA2AA4AAAAAAAA2A2A4AA222I2AAA22AA
AAA2A2A2AAAAAA2AAAAA2AA42AAAAIAAA2AA4AAAAAAAA2A2A4AA2I2I2AAA22AA
AAA2AAA2AAAAAA2AAAAA2AA42AAAAIAAA2AA4AAAAAAAA2A2A4AA2I2I2AAA22AA
AAA2AAA2AAAAAA2AAAAA2AA42AAAAIAAA2AA4AAAAAAAA2AIA4AA2I2I2AAA22AA
AAA2AAA2AAAAAA2AAAAA2AA42AAAAIAAA2AA4AAAAAAAA2AIA4AA2I242AAA22AA
AAA2AAA2AAAAAAIAAAAA2AA42AAAAIAAA2AA4AAAAAAAA2AIA4AA2I242AAA22AA
AAA2AAA2AAAAAAIAAAAA2AA42AAAAIAAA2AA4AAAAAAAA2AIA4AA2I242IAA22AA
AAA2AAA2AAAAAAIAAAAA2AA42AAAAIAAA2AA4AAAAAAAA2AIA4AA2I242IIA22AA
AAAIAAA2AAAAAAIAAAAA2AA42AAAAIAAA2AA4AAAAAAAA2AIA4AA2I242IIA22AA
AAAIAAA2AAAAAAIAAAAA2AA42AAAAIAAA2AA4AAAAAAAA2A2A4AA2I242IIA22AA
AAAIAAA2AAAAAA2AAAAA2AA42AAAAIAAA2AA4AAAAAAAA2A2A4AA2I242IIA22AA
AAAIAAA2AAAAAA2AAAAA2IA42AAAAIAAA2AA4AAAAAAAA2A2A4AA2I242IIA22AA
AAAAAAA2AAAAAA2AAAAA2IA42AAAAIAAA2AA4AAAAAAAA2A2A4AA2I242IIA22AA
AAAAAAA2AAAAAA2AAAAA2IA42AAAAIAAA2AA4AAIAAAAA2A2A4AA2I242IIA22AA
AAAAAAA2AAAAAA2AAAAA22A42AAAAIAAA2AA4AAIAAAAA2A2A4AA2I242IIA22AA
AAAAAAA2AAAAAA2AAAAA22A42AAAAIAAA2AA4AA4AAAAA2A2A4AA2I242IIA22AA
AAAAAAA2AAAAAA2AAAIA22A42AAAAIAAA2AA4AA4AAAAA2A2A4AA2I242IIA22AA
AAAAAAA2AAAAAA2AAAIA22A42AAAAIAAA2IA4AA4AAAAA2A2A4AA2I242IIA22AA
AAAIAAA2AAAAAA2AAAIA22A42AAAAIAAA2IA4AA4AAAAA2A2A4AA2I242IIA22AA
AAAIAAA2AAAAAAAAAA4A22A42AAAAIAAA2IA4AA4AAAAA2A2A4AA2I242IIA22AA
AAAIAAA2AAAAAAAAAA4A22A42AAAA2AAA2IA4AA4AAAAA2A2A4AA2I242IIA22AA
AAAIAAA2AAAAAAAAAA4A22A42AAAA2AAA2IAAAA2AAAAA2A2A4AA2I242IIA22AA
AAAIAAA2AAAAAAAAAAAA22A42AAAA2AAA2IAAAA2AAAAA2A2A4AA2I242IIA22AA
AAAIAAA2AAAAAAAAAAAA22A42AAAA2AAA2IAIAA2AAAAA2A2A4AA2I242IIA22AA
AAAIAAA2AAAAAAAAAAAA22A42AAAA2AAA2IAIAA2AAAAA2A2A4AA2I242IIAA2AA
AAAIAAA2AAAIAAAAAAAA22A42AAAA2AAA2IAIAA2AAAAA2A2A4AA2I242IIAA2AA
AAAIAAA2AAAIAAAAAAAA22A42AAAA2AAA2IAIAA2AAAAAAA2A4AA2I242IIAA2AA
AAAIAAA2AAAIAAAAAAAA22A42AAAA2AAA2IAIAA2AAAAAAAAA2AA2I242IIAA2AA
AAAIAAA2AAAIAAAAAAAA22A42AAAA2AAA2IAIAA2AAAAAAAAA2AA2I242IIAI2AA
AAAIAAA2AAAIAAAAAAAA22A4AAAAA2AAA2IAIAA2AAAAAAAAA2AA2I242IIAI2AA
AAAIAAA2AAAIAAAAAAAA22A4AAAAA2AAA2IAIAAAAAAAAAAAA2AA2I242IIA42AA
AAAIAAA2AAA4AAAAAAAA22A4AAAAA2AAA2IAIAAAAAAAAAAAA2AA2I242IIA42AA
AAAIAAA2AAA4AAAAAAAA22A4IAAAA2AAA2IAIAAAAAAAAAAAA2AA2I242IIA42AA
AAAIAAA2AAA4AAAAAAAA22A4IAAAA2AAA2IAIAAAAAAAAAAIA2AA2I242IIA42AA
AAAIAAA2IAA4AAAAAAAA22A4IAAAA2AAA2IAIAAAAAAAAAAIA2AA2I242IIA42AA
AAA2AAA24AA4AAAAAAAA22A4IAAAA2AAA2IAIAAAAAAAAAAIA2AA2I242IIA42AA
AAA2AAA24AA4AAAAAAAA22A4IAAAA2AAA2IA4AAAAAAAAAAIA2AA2I242IIA42AA
AAA2AAA24AA4AAAAAAAA22A44AAAA2AAA2IA4AAAAAAAAAAIA2AA2I242IIA42AA
AAA2AAA24AA4AAAAAAAA22A44AAAA2AAA2IA4AAAAAAAAAAIA2AA2I242AIA42AA
AAA2AAA24AA4AAAAAAAA22A44AAAA2AAA2IA4AAAAAAAAAAIA2AA2I242AAA22AA
AAA2AAA24AA4AAAAAAAA22A44AAAA2AAA2IA4AAAAAAAAAA4A2AA2I242AAA22AA
AAA2AAA24AA4AAAAAAAA22A44AAAA2AAA2IA4AAAAAAAAAA4A2AA2I242AIA22AA
AAA2AAA24AA4AAAAAAAA2AA22AAAA2AAA24A4AAAAAAAAAA4A2AA2I242AIA22AA
AAA2AAA24AA4AAAAAAAA2AA22AAAA2AAA24A4AAAAAAAAAA4A2AA2I242AIAI2AA
AAA2AAA24AA4AAAAAAAA2AA22AAAA2AAA24A4AAAAAAAAAA4A2AA2I242AAA22AA
AAA2AAA24AA4AAAAAAAA2AAI2AAAA2AAA24A4AAAAAAAAAA4A2AA2I242AAA22AA
AAA2AAA24AA4AAAAAAAA2AAI2AAAA2AAA24A4AAAAAAAAAA4A2AA2I242AAA22AI
AAA2AAA24AA4AAAAAAAA2AAI2AAAA2AAA24A4AAAAAAAAAA4A2AA2I242AIA22AI
AAA2AAA24AA4AAAAAAAA2AAI2AAAA2AAA24A4AAAAAAAAAA4A2AA2A242A4A22AI
AAA2AAA24AA4AAAAAAAA2AAI2AAAA2AAA24A4AAAAAAAAAA4A2AA2A242A4AI2AI
AAA2AAA24AA4AAAAAAAA2AAI2AAAA2AAA24A4AAAAAAAAAA4A2AAAA222A4A42AI
AAA2AAA24AA4AAAAAAIA2AAI2AAAA2AAA24A4AAAAAAAAAA4A2AAAA222A4A42AI
AAA2AAA24AA4AAAAAAIA2AAI2AAAA2AAA24AAAAAAAAAAAA4A2AAAA222A4A42AI
AAA2AAA24AA4AAAAAAIA2AAI2AAAA2AAA24AAAAAAAAAAAA4A2AAIA222A4A42AI
AAA2AAA24AA4AAAAAAIA2AA42AAAA2AAA24AAAAAAAAAAAA4A2AAIA222A4A42AI
AAA2AAA24AA2AAAAAAIA2AA42AAAA2AAA24AAAAAAAAAAAA4A2AAIA222A4A42AI
AAA2AAA24AA2AAAAAAIA2AA42AAAA2AAA24AAAAAAAAAAAA4A2AA2A222A4A42A4
AAA2AAA24AA2AAAAAAIA2AA42AAAA2AAA24AAAAAAAAAAAA4A2AA2A222AAA42A4
AAA2AAA24AA2AAAAAAIA2AA42AAAA2AAA24AAAAAAAIAAAA4A2AA2A222AAA42A4
AAA2AAA24AA2AAAAAAIA2AA42AAAA2AAA24AAAAAAAIAAAAAA2AA2A222AAA42A4
AAA2AAA24AA2AAAAAAIA2AA42AAAA2AAA24AAAAAAAIAAAAAA2AA2A222AIA42A4
AAA2AAA24AA2AAAAAAIA2AA42AAAA2AAA24AAAAAAAIAAAAAA2IA2A222AIA42A4
AAA2AAA24AA2AAAAAAAA2AA42AAAA2AAA24AAAAAAAIAAAAAA2IA2A222AIA42A4
AAA2AAA24AAIAAAAAAAA2AA42AAAA2AAA24AAAAAAAIAAAAAA2IA2A222AIA42A4
AAA2AAA24AAIAAAAAAAA2AA42AAAA2AAA24AAAAAAAIAAAAAA24A2A222A4A42A4
AAA2AAA24AAIAAAAAAAA2AA42AAAA2AAA22AAAAAAA4AAAAAA24A2A222A4A42A4
AAA2AAA24AAIAAAAAAAA2AA42AAAA2AAA22AAAAAAA4AAAAAA24A2A222A4A22A4
AAA2AAA24AAIAAAAAAAA2AA42AAAA2AAA22AAAAAAA4AAAAAA24A2A222A4A22AA
AAA2AAA24AAIAAAAAAAA2AA42AAAA2AAA22AAAAAAA2AAAAAA24A2A222A4A22AA
AAA2AAA24AAIAAAAAAAA2AA42AAAA2AAA22AAAAAAA2AAAAAA24A2A222A4AA2AA
AAA2AAA24AAIAAAAAAAA2AA42AAAAAAAA22AAAAAAA2AAAAAA24A2A222A4AA2AA
AAA2AAA24AAIAAAAAAAA2AA42AAAAAAAA22AAAAAAA2AAAAAA24A2A222AAAA2AA
AAA2AAA24AAIAAAAAAAA2AA42AAAAAAAA22AAAAAAA2AAAAAA24A2A222AAAA2AI
AAA2AAA24AAIAAAAAAAA2AA42AAAAAAAA2AAAAAAAA2AAAAAA24A2A222AAAA2AI
AAA2AAA24AAIAAAAAAAA2AA42AAAAAAAA2AAAAAAAA2AAAAAAA4A2A222AAAA2AI
AAA2AAA24AAIAAAAAAAA2AA42AAAAAAAA2AAAAAIAA2AAAAAAA4A2A222AAAA2AI
AAA2AAA24AAIAAAAAAAA2AA42AAAAAAAA2AAAAA2AA2AAAAAAA4A2A222AAAA2AI
AAA2AAA24AAIAAAAAAAA2AA42AAAAAAAA2AAIAA2AA2AAAAAAA4A2A222AAAA2AI
AAA2AAA24AAIAAAAAAAA2AA42AAAAAAAA2AAIAA2AA2AAIAAAA4A2A222AAAA2AI
AAA2AAA24AAIAAAAAAAA2AA42AAAAIAAA2AAIAA2AA2AAIAAAA4A2A222AAAA2AI
AAA2AAA24AAIAAAAAAAA2AAA2AAAAIAAA2AAIAA2AA2AAIAAAA4A2A222AAAA2AI
AAAAAAA24AAIAAAAAAAA2AAA2AAAAIAAA2AAIAA2AA2AAIAAAA4A2A222AAAA2AI
AAAAAAA24AAIAAAAAAAA2AAA2AAAAIAAA2AAIAA2AA2AAIAAAAAA2A222AAAA2AI
AAAAAAA22AAIAAAAAAAA2AAA2AAAAIAAA2AAIAA2AA2AAIAAAAAA2A222AAAA2AI
AAAAAAA22AAIAAAAAAAA2AAA2AIAAIAAA2AAIAA2AA2AAIAAAAAA2A222AAAA2AI
AAAIAAA22AAIAAAAAAAA2AAA2AIAAIAAA2AAIAA2AA2AAIAAAAAA2A222AAAA2AI
AAAIAAA22AAIAAAAAAAA2AAA2AIAAIAAA2AAIAA2AA2AAIAAAAAA2A222AAAA2AA
AAAIAAA22AAIAAAAAAAA2AAA2AIAAIAAA2AAIAA2AA2AAAAAAAAA2A222AAAA2AA
AAAIAAA22AAIAAAAAAAA2AAA2AIAAIAAA2AAAAA2AA2AAAAAAAAA2A222AAAA2AA
AAA4AAA22AAIAAAAAAAA2AAA2AIAAIAAA2AAAAA2AA2AAAAAAAAA2A222AAAA2AA
AAA4AAA22AAIAAAAAAAA2IAA2AIAAIAAA2AAAAA2AA2AAAAAAAAA2A222AAAA2AA
AAA4AAA22AAIAAAAAAAA2IAA2AIAAIAAA2AAAAA2AA2AAAAAAAAA2A222AAAA2AI
AAA4AAA22AAIAAAAAAAI2IAA2AIAAIAAA2AAAAA2AA2AAAAAAAAA2A222AAAA2AI
AAA4AAA22AAIAAAAAAA42IAA2AIAAIAAA2AAAAA2AA2AAAAAAAAA2A222AAAA2AI
AAA4AAA22AAIAIAAAAA42IAA2AIAAIAAA2AAAAA2AA2AAAAAAAAA2A222AAAA2AI
AAA4AAA22AAIA2AAAAA42IAA2AIAAIAAA2AAAAA2AA2AAAAAAAAA2A222AAAA2AI
AAA4AAA22AAIA2AAAAA42IAA2AIAAIAAA2AAAAA2AA2AAAAAAAAAAA222AAAA2A4
AAA4AAA22AAIAIAAAAA42IAA2AIAAIAAA2AAAAA2AA2AAAAAAAAAAA222AAAA2A4
AAA4AAA22AIIAIAAAAA42IAA2AIAAIAAA2AAAAA2AA2AAAAAAAAAAA222AAAA2A4
AAA4AAA22AIIAIAAAAA42IAA2AIAAIAAA2AAAAA2AA2AAAAAAAAAIA222AAAA2A4
AAA4AAA22AIIAIAAAAA42IAA2AIAAIAAA2AAAAA2AA2AAAAAAAAAIA222AIAA2A4
AAA4AAA22AIIAIAAAAA42IAA2AAAA2AAA2AAAAA2AA2AAAAAAAAAIA222AIAA2A4
AAA4AAA22AIIAIAAAAA42IAA2AAAA2AAA2AAAAA2AA2AAAAAAAAAIA2A2A2AA2A4
AAA4AAA22AIIAAAAAAA424AA2AAAA2AAA2AAAAA2AA2AAAAAAAAAIA2A2A2AA2A4
AAA4AAA22A44AAAAAAA424AA2AAAA2AAA2AAAAA2AA2AAAAAAAAAIA2A2A2AA2A4
AAA4AAA22A44AAAAAAA424AAAAAAA2AAA2AAAAA2AA2AAAAAAAAAIA2A2A2AA2A4
AAA4AAA22A44AAAAAAA424AAAAAAA2AAA2AAAAA2AA2AAAAAAAAAIA2A2AAAA2A4
AAA4AAA22A44AAAAAAA424AAIAAAA2AAA2AAAAA2AA2AAAAAAAAAIA2A2AAAA2A4
AAA4AAA22A44AAAAAAAA22AAIAAAA2AAA2AAAAA2AA2AAAAAAAAAIA2A2AAAA2A4
AAA4AAA22A44AAAAAAAA22AAIAAAA2AAA2AAAAA2AA2AAAAAAAAA2A2A2AAAA2A4
AAA4AAA22A44AAAAAAAA22AAIAAAA2AAA2AAAAA2AA2AAAAAAAAA2I2A2AAAA2A4
AAA4AAA22A44AAAAAAAA2IAAIAAAA2AAA2AAAAA2AA2AAAAAAAAA2I2A2AAAA2A4
AAAAAAA22A44AAAAAAAA2IAAIAAAA2AAA2AAAAA2AA2AAAAAAAAA2I2A2AAAA2A4
AAAAAAA22A44AAAAAAAA2IAAIAAAA2AAA2AAAAA2AA2AAAAAAAAA242A2AAAA2A4
AAAAAAA22A44AAAAAAAA2IAAIAAAA2AAA2AAAAA2AA2AAAAAAAIA242A2AAAA2A4
AAAAAAA22A44AAAAAAAA2IAAIAAAA2AAA2AAAAA2AA2AAAAAAA4A242A2AAAA2A4
AAAAAAA22A44AAAAAAAI2IAAIAAAA2AAA2AAAAA2AA2AAAAAAA4A242A2AAAA2A4
AAAAAAA22A44AAAAAAAI2IAAIAAAA2AAA2AAAAAAAA2AAAAAAA4A242A2AAAA2A4
AAAIAAA22A44AAAAAAAI2IAAIAAAA2AAA2AAAAAAAA2AAAAAAA4A242A2AAAA2A4
AAAIAAA22A44AAAAAAAI2IAAIAAAA2AAA2AAAAAAAA2AAAAAAAAA242A2AAAA2A4
AAAIAAA22A44AAAAAAAI2IAAIAAAA2AAA2AAAAAIAA2AAAAAAAAA242A2AAAA2A4
AAAIAAA22A44AAAAAAAI2IAAIAAAA2AAA2AAAAA2AA2AAAAAAAAA242A2AAAA2A4
AAAIAAA22A44AAAAAAA42IAAIAAAA2AAA2AAAAA2AA2AAAAAAAAA242A2AAAA2A4
AAAIAAA22A44AAAAAAA42IAAIAAAA2AAA2AAAAA2IA2AAAAAAAAA242A2AAAA2A4
AAAIAAA22A44AAAAAAA42IAAIAAAA2AAA2AAAAA22A2AAAAAAAAA242A2AAAA2A4
AAAIAAA22AA4AAAAAAA42IAAIAAAA2AAA2AAAAA22A2AAAAAAAAA242A2AAAA2A4
AAAIAAA22AAAAAAAAAA424AAIAAAA2AAA2AAAAA22A2AAAAAAAAA242A2AAAA2A4
AAAIAAA22AIAAAAAAAA424AAIAAAA2AAA2AAAAA22A2AAAAAAAAA242A2AAAA2A4
AAAIAAA22AIAAAAAAAA424AAIAAAA2AAA2AAIAA22A2AAAAAAAAA242A2AAAA2A4
AAAIAAA22AIAAAAAAAA424AAAAAAA2AAA2AAIAA22A2AAAAAAAAA242A2AAAA2A4
AAAIAAA22AIAAAAAAAA424AAAAAAA2AAA2AA4AA22A2AAAAAAAAA242A2AAAA2A4
AAAIAAA22AIIAAAAAAA424AAAAAAA2AAA2AA4AA22A2AAAAAAAAA242A2AAAA2A4
AAAIAAA22AIIAAAAAAA42AAAAAAAA2AAA2AA4AA22A2AAAAAAAAA242A2AAAA2A4
AAAIAAA22AIIAAAAAAA42AAAAAIAA2AAA2AA4AA22A2AAAAAAAAA242A2AAAA2A4
AAAIAAA22AIIAAAAAAA42AAAAAIIA2AAA2AA4AA22A2AAAAAAAAA242A2AAAA2A4
AAAIAAA22AIIAAAAAAA42IAAAAIIA2AAA2AA4AA22A2AAAAAAAAA242A2AAAA2A4
AAAIAAA22AIIAAAAAAAA22AAAAIIA2AAA2AA4AA22A2AAAAAAAAA242A2AAAA2A4
AAAIAAA22AIIAAAAAAAA22AAAA4IA2AAA2AA4AA22A2AAAAAAAAA242A2AAAA2A4
AAAIAAA22A4IAAAAAAAA22AAAA4IA2AAA2AA4AA22A2AAAAAAAAA242A2AAAA2A4
AAAIAAA22A4IAAAAAAAI22AAAA4IA2AAA2AA4AA22A2AAAAAAAAA242A2AAAA2A4
AAAIAAA22A4IAAAAAAAI22AAAA4IA2AAA2AA4AAA2A2AAAAAAAAA242A2AAAA2A4
AAAIAAA22A4IAAAAAAA422AAAA4IA2AAA2AA4AAA2A2AAAAAAAAA242A2AAAA2A4
AAAIAAA2AA42AAAAAAA422AAAA4IA2AAA2AA4AAA2A2AAAAAAAAA242A2AAAA2A4
AAAIAAA2AAA2AAAAAAA422AAAA4IA2AAA2AA4AAA2A2AAAAAAAAA242A2AAAA2A4
AAAAAAA2AAA2AAAAAAA422AAAA4IA2AAA2AA4AAA2A2AAAAAAAAA242A2AAAA2A4
AAAAAAA2AAAIAAAAAAA422AAAA4IA2AAA2AA4AAA2A2AAAAAAAAA242A2AAAA2A4
AAAAAAA2AAAIAAAAAAA422AAAA4IA2AAA2AA4AAA2A2AAAAAAAAAA42A2AAAA2A4
AAAAAAA2AAAIAAAAAAA422AAAA4IA2AAA2AA4AAA2A2AAAAAAAAAAA2A2AAAA2A4
AAAAAAA2AAA4AAAAAAA422AAAA4IA2AAA2AA4AAA2A2AAAAAAAAAAA2A2AAAA2A4
AAAAAAA2AAA4AAAAAAA422AAAA4IA2AAA2AA4AAA2A2AAAAAAAAAAA2I2AAAA2A4
AAAAAAA2AAA4AAAAAAA422AAAA4IA2AAA2AA2AAA2A2AAAAAAAAAAA2I2AAAA2A4
AAAAAAA2AAA4AAAAAAA42AAAAA4IA2AAA2AA2AAA2A2AAAAAAAAAAA2I2AAAA2A4
AAAAAAA2AAA4AAAAAAA42AAAAA42A2AAA2AA2AAA2A2AAAAAAAAAAA2I2AAAA2A4
AAAAAAA2AAA4AAAAAAA42IAAAA42A2AAA2AA2AAA2A2AAAAAAAAAAA2I2AAAA2A4
AAAAAAA2AAA4AAAAAAA42IAAAA42A2AAA2AA2AAA2A2AAAAAAAAAAA242AAAA2A4
AAAAAAA2AAA4AAAAAAA42IAAAA42A2AAA2AAAAAA2A2AAAAAAAAAAA242AAAA2A4
AAAAAAA2AAA4AAAAAAA42IAAAAA2A2AAA2AAAAAA2A2AAAAAAAAAAA242AAAA2A4
AAAAAAA2AAA4AAAAAAA42IAAAAAIA2AAA2AAAAAA2A2AAAAAAAAAAA242AAAA2A4
AAAAAAA2AAA4AAAAAAA42IAAIAAIA2AAA2AAAAAA2A2AAAAAAAAAAA242AAAA2A4
AAAAAAA2AAA4AAAAAAA42IAAIAAIA2AAA2AAAAAA2A2AAAAAAAAAAA222AAAA2A4
AAAAAAA2AAA4AAAAAAA42IAAIAA4A2AAA2AAAAAA2A2AAAAAAAAAAA222AAAA2A4
AAAAAAA2AAA4AAAAAAA42IAAIAA4A2AAA2AAAAAI2A2AAAAAAAAAAA222AAAA2A4
AAAAAAA2AAA4AAAAAAA42IAAIAA4A2AAA2AAAAAI2AAAAAAAAAAAAA222AAAA2A4
AAAAAAA2AAA4AAAAAAA42IAAIAA4AAAAA2AAAAAI2AAAAAAAAAAAAA222AAAA2A4
AAAAAAA2AAA4AAAAAAA42IAAIAA4AAAAA2AAAAAI2AAAAAAAAAAAIA222AAAA2A4
AAAAAAA2AAA4AAAAAAA42IAAIAA4AAAAA2AAAAAA2AAAAAAAAAAAIA222AAAA2A4
AAAAAAA2AAA4AAAAAAA42IAAIAA4AAAAA2AAAAAA2AAAAAAAAAAA4A222AAAA2A4
AAAAAAA2AAA4AAAAAAA424AA4AA4AAAAA2AAAAAA2AAAAAAAAAAA4A222AAAA2A4
AAAAAAA2AAA4AAAAAAA424AAAAA2AAAAA2AAAAAA2AAAAAAAAAAA4A222AAAA2A4
AAAAAAA2AAA4AAIAAAA424AAAAA2AAAAA2AAAAAA2AAAAAAAAAAA4A222AAAA2A4
AAAAAAA2AAA4AAIAAAA424AAAAA2AAAIA2AAAAAA2AAAAAAAAAAA4A222AAAA2A4
AAAAAAA2AAA4AAIAAAA424AAAAA2AAA4A2AAAAAA2AAAAAAAAAAA4A222AAAA2A4
AAAAAAA2AAA4AAIAIAA424AAAAA2AAA4A2AAAAAA2AAAAAAAAAAA4A222AAAA2A4
AAAAAAA2AAA4AA4AIAA424AAAAA2AAA4A2AAAAAA2AAAAAAAAAAA4A222AAAA2A4
AAAAAAA2AAA4AA4AIAA424AAAAA2AAA4A2AAAAAI2AAAAAAAAAAA4A222AAAA2A4
AAAAAAA2AAA4AA4AIAA424AIAAA2AAA4A2AAAAAI2AAAAAAAAAAA4A222AAAA2A4
AAAAAAA2AAA4AAAAIAA424A4AAA2AAA4A2AAAAAI2AAAAAAAAAAA4A222AAAA2A4
AAAAAAA2AAA4AAAAIAA424A4AAAIAAA4A2AAAAAI2AAAAAAAAAAA4A222AAAA2A4
AAAAAAA2AAA4AAAA2AA424A4AAAIAAA4A2AAAAAI2AAAAAAAAAAA4A222AAAA2A4
AAAAAAA2AAAAAAAA2AA424A4AAAIAAA4A2AAAAAI2AAAAAAAAAAA4A222AAAA2A4
AAAAAAA2AAAAAAAA2AA424A4AAAIAAA4A2AAAAAI2AAAAAAAAAAA2A222AAAA2A4
AAAAAAA2AAAAAAAAIAA424A4AAAIAAA4A2AAAAAI2AAAAAAAAAAA2A222AAAA2A4
AAAAAAA2AAAAAAAAIAA424A4AAAIAAA4A2AAAAAI2AAAAAAAAAAAIA222AAAA2A4
AAAAAAA2AAAAAAAAIAA424A4AAAIAAA4A2AAAAAIAAAAAAAAAAAA4A222AAAA2A4
AAAAAAA2AAAAAAAAIAA424A4AAAIAAA4A2AAAAA2AAAAAAAAAAAA4A222AAAA2A4
AAAAAAA2AAAAAAAA4AA424A4AAAIAAA4A2AAAAA2AAAAAAAAAAAA4A222AAAA2A4
AAAAAAA2AAAAAAAA4AA424A4AAAIAAA4A2AAAAA2AAAAAAAAAAAA4A222AAAA2A2
AAAAAAA2AAAAAAAA4AA424A4AAAIAAA4A2AAAAA2AAAAAAAAAAAA4A222AAAA2AI
AAAAAAA2AAAAAAAA4AA424A4AAAIAAA4A2AAAAA2AAAAAAAAAAAA4A222AAAA2AA
AAAAAAA2AAAAAAAA4AA424A4AAAIAAA4A2AAAAA2AAAAAAAAAAAA2A222AAAA2AA
AAAAAAA2AAAAAAAA4AA424A4AAAIAAA4A2AAAAA2AAAAAAAAAIAA2A222AAAA2AA
AAAAAAA2AAAAAAAAAAA224A4AAAIAAA4A2AAAAA2AAAAAAAAAIAA2A222AAAA2AA
AAAAAAA2AAAAAAAAAAAA22A4AAAIAAA4A2AAAAA2AAAAAAAAAIAA2A222AAAA2AA
AAAAAAA2AAAAAAAAAAAA2IA4AAAIAAA4A2AAAAA2AAAAAAAAAIAA2A222AAAA2AA
AAAAAAA2AAAAAAAAAAAA2IA4AAAIAAA4A2AAAIA2AAAAAAAAAIAA2A222AAAA2AA
AAAAAAA2AAAAAAAAAAAI2IA4AAAIAAA4A2AAAIA2AAAAAAAAAIAA2A222AAAA2AA
AAAAAAA2AAAAAAAAAAAI2IA4AAAIAAA4A2AAAIA2AAAAAAAAAIAA2A2A2AAAA2AA
AAAAAAA2AAIAAAAAAAAI2IA4AAAIAAA4A2AAAIA2AAAAAAAAAIAA2A2A2AAAA2AA
AAAAAAA2AAIAAAAAAAAI24A4AAAIAAA4A2AAAIA2AAAAAAAAAIAA2A2A2AAAA2AA
AAAAAAA2AAIAAAAAAAAI24A4AAAIAAA4A2AAAIA2AAAAAAAAAIAA2A2I2AAAA2AA
AAAAAAA2AAIAAAAAAAAI24A4AAAIAAA4A2AAA2A2AAAAAAAAAIAA2A2I2AAAA2AA
AAAAAAA2AAIAAAAAAAAI24A4AAAIAAA4A2AAA2A2AAAAAAAAAIAA2A2I2AIAA2AA
AAAAAAA2AAIAAAAAAAAI24A4AAAIAAA4A2AAA2A2AAAAAAAAAIAA2A242AIAA2AA
AAAAAAA2AAIAAAAAAAAI24A4AAAIAAA4A2AAA2A2AAAAAAAAAIAA2A242AIAI2AA
AAAAAAA2AAIAAAAAAAAI24A4AAAAAAA4A2AAA2A2AAAAAAAAAIAA2A242AIAI2AA
AAAAAAA2AAIAAAAAAAAI24A4AAAAAAA4A2AAA2A2AAAAAAAAAIAA2I242AIAI2AA
AAAAAAA2AAIAAAAAAAAI24A4AAAAAAA2A2AAA2A2AAAAAAAAA4AA2I242AIAI2AA
AAAAAAA2AAIAAAAAAAAI24A4AAAAAAA2A2AAA2A2AAAAAAAAA4AAAI222AIAI2AA
AAAAAAA2AAIAAAAAAAA224A4AAAAAAA2A2AAA2A2AAAAAAAAA4AAAI222AIAI2AA
AAAAAAA2AAIAAAAAAAA224A4AAAAAAA2A2AAA2A2AAAAAAAAA4AAII222AIAI2AA
AAAAAAA2AA2AAAAAAAA224A4AAAAAAA2A2AAA2A2AAAAAAAAA4AAII222AIAI2AA
AAAAAAA2AA2AAAAAAAA224A4AAAAAAA2A2AAA2A2AAAAAAAAA4AAII2I2AIAI2AA
AAAAAAA2AAIAAAAAAAA224A4AAAAAAA2A2AAA2A2AAAAAAAAA4AAII2I2AIAI2AA
AAAAAAA2AAIAAAAAAAA224A4AAAAAAA2A2AAAAA2AAAAAAAAA4AAI42I2AIAI2AA
AAAAAAA2AAIAAAAAAAA224A4AAAAAAA2A2AAAIA2AAAAAAAAA4AAI42I2AIAI2AA
[MLOP] Prefetch Degree Mean: 6.18472
[MLOP] Prefetch Degree SD: 1.79926
[MLOP] Max Score Left Mean (%): 36.91943
[MLOP] Max Score Left SD (%): 8.04201
[MLOP] Max Score Right Mean (%): 77.50376
[MLOP] Max Score Right SD (%): 8.31212

Channel_0_RQ_row_buffer_hit 937624
Channel_0_RQ_row_buffer_miss 5148339
Channel_0_WQ_row_buffer_hit 43145
Channel_0_WQ_row_buffer_miss 69783
Channel_0_WQ_full 0
Channel_0_dbus_congested 1632546

avg_congested_cycle 8

DRAM_bw_pochs 2307187
DRAM_bw_level_0 1357850
DRAM_bw_level_1 697482
DRAM_bw_level_2 179882
DRAM_bw_level_3 71973
