*************************************************
   ChampSim Multicore Out-of-Order Simulator
   Last compiled: Apr  3 2025 20:54:34
*************************************************
parsing config file: /home/zir/Pythia/config/nopref.ini

trace_0 /home/zir/ChampSim/ML-DPC/ChampSimTraces/spec06/459.GemsFDTD-s1.trace.gz
adding L2C_PREFETCHER: NONE
Initialize SHIP state
warmup_instructions 10000000
simulation_instructions 50000000
champsim_seed 164
measure_ipc 0
measure_ipc_epoch 1000
measure_dram_bw 1
measure_dram_bw_epoch 256
measure_cache_acc 1
measure_cache_acc_epoch 1024
l1d_perfect 0
l2c_perfect 0
llc_perfect 0
l1d_semi_perfect 0
l2c_semi_perfect 0
llc_semi_perfect 0
semi_perfect_cache_page_buffer_size 64

num_cpus 1
cpu_freq 4000
dram_io_freq 2400
page_size 4096
block_size 64
max_read_per_cycle 8
max_fill_per_cycle 1
dram_channels 1
log2_dram_channels 0
dram_ranks 1
dram_banks 8
dram_rows 65536
dram_columns 128
dram_row_size 8
dram_size 4096
dram_pages 1048576

fetch_width 6
decode_width 6
exec_width 4
lq_width 2
sq_width 2
retire_width 4
scheduler_size 128
branch_mispredict_penalty 20
rob_size 256
lq_size 72
sq_size 56
num_instr_destinations_sparc 4
num_instr_destinations 2
num_instr_sources 4

itlb_set 16
itlb_way 8
itlb_rq_size 16
itlb_wq_size 16
itlb_pq_size 0
itlb_mshr_size 8
itlb_latency 1

dtlb_set 16
dtlb_way 4
dtlb_rq_size 16
dtlb_wq_size 16
dtlb_pq_size 0
dtlb_mshr_size 8
dtlb_latency 1

stlb_set 128
stlb_way 12
stlb_rq_size 32
stlb_wq_size 32
stlb_pq_size 0
stlb_mshr_size 16
stlb_latency 8

l1i_size 32
l1i_set 64
l1i_way 8
l1i_rq_size 64
l1i_wq_size 64
l1i_pq_size 8
l1i_mshr_size 8
l1i_latency 1

l1d_size 32
l1d_set 64
l1d_way 8
l1d_rq_size 64
l1d_wq_size 64
l1d_pq_size 8
l1d_mshr_size 16
l1d_latency 4

l2c_size 256
l2c_set 512
l2c_way 8
l2c_rq_size 32
l2c_wq_size 32
l2c_pq_size 32
l2c_mshr_size 32
l2c_latency 10

llc_size 2048
llc_set 2048
llc_way 16
llc_rq_size 32
llc_wq_size 32
llc_pq_size 32
llc_mshr_size 64
llc_latency 20

dram_channel_width 8
dram_wq_size 64
dram_rq_size 64
tRP 15
tRCD 15
tCAS 12.5
dram_dbus_turn_around_time 30
dram_write_high_wm 56
dram_write_low_wm 48
min_dram_writes_per_switch 16
dram_mtps 2400
dram_dbus_return_time 13


Heartbeat CPU  0 instructions:    1000001 cycles:     613103 heartbeat IPC: 1.63105 cumulative IPC: 1.63105 (Simulation time: 0 hr 0 min 2 sec) 
Heartbeat CPU  0 instructions:    2000000 cycles:    1225514 heartbeat IPC: 1.63289 cumulative IPC: 1.63197 (Simulation time: 0 hr 0 min 4 sec) 
Heartbeat CPU  0 instructions:    3000000 cycles:    1838234 heartbeat IPC: 1.63207 cumulative IPC: 1.63200 (Simulation time: 0 hr 0 min 6 sec) 
Heartbeat CPU  0 instructions:    4000000 cycles:    2450992 heartbeat IPC: 1.63197 cumulative IPC: 1.63199 (Simulation time: 0 hr 0 min 8 sec) 
Heartbeat CPU  0 instructions:    5000001 cycles:    3064142 heartbeat IPC: 1.63092 cumulative IPC: 1.63178 (Simulation time: 0 hr 0 min 10 sec) 
Heartbeat CPU  0 instructions:    6000001 cycles:    3676834 heartbeat IPC: 1.63214 cumulative IPC: 1.63184 (Simulation time: 0 hr 0 min 12 sec) 
Heartbeat CPU  0 instructions:    7000000 cycles:    4289279 heartbeat IPC: 1.63280 cumulative IPC: 1.63198 (Simulation time: 0 hr 0 min 14 sec) 
Heartbeat CPU  0 instructions:    8000000 cycles:    4901403 heartbeat IPC: 1.63366 cumulative IPC: 1.63219 (Simulation time: 0 hr 0 min 16 sec) 
Heartbeat CPU  0 instructions:    9000001 cycles:    5514080 heartbeat IPC: 1.63218 cumulative IPC: 1.63219 (Simulation time: 0 hr 0 min 18 sec) 
Heartbeat CPU  0 instructions:   10000002 cycles:    6126591 heartbeat IPC: 1.63263 cumulative IPC: 1.63223 (Simulation time: 0 hr 0 min 20 sec) 

Warmup complete CPU  0 instructions:   10000002 cycles:    6126591 (Simulation time: 0 hr 0 min 20 sec) 

Heartbeat CPU  0 instructions:   11000001 cycles:    9416114 heartbeat IPC: 0.30400 cumulative IPC: 0.30400 (Simulation time: 0 hr 0 min 23 sec) 
Heartbeat CPU  0 instructions:   12000000 cycles:   12674850 heartbeat IPC: 0.30687 cumulative IPC: 0.30542 (Simulation time: 0 hr 0 min 26 sec) 
Heartbeat CPU  0 instructions:   13000002 cycles:   15964856 heartbeat IPC: 0.30395 cumulative IPC: 0.30493 (Simulation time: 0 hr 0 min 29 sec) 
Heartbeat CPU  0 instructions:   14000002 cycles:   19239766 heartbeat IPC: 0.30535 cumulative IPC: 0.30504 (Simulation time: 0 hr 0 min 33 sec) 
Heartbeat CPU  0 instructions:   15000001 cycles:   22495133 heartbeat IPC: 0.30718 cumulative IPC: 0.30546 (Simulation time: 0 hr 0 min 36 sec) 
Heartbeat CPU  0 instructions:   16000000 cycles:   25750317 heartbeat IPC: 0.30720 cumulative IPC: 0.30575 (Simulation time: 0 hr 0 min 39 sec) 
Heartbeat CPU  0 instructions:   17000000 cycles:   29022525 heartbeat IPC: 0.30560 cumulative IPC: 0.30573 (Simulation time: 0 hr 0 min 43 sec) 
Heartbeat CPU  0 instructions:   18000001 cycles:   32261619 heartbeat IPC: 0.30873 cumulative IPC: 0.30610 (Simulation time: 0 hr 0 min 46 sec) 
Heartbeat CPU  0 instructions:   19000000 cycles:   35526880 heartbeat IPC: 0.30625 cumulative IPC: 0.30612 (Simulation time: 0 hr 0 min 49 sec) 
Heartbeat CPU  0 instructions:   20000000 cycles:   38812051 heartbeat IPC: 0.30440 cumulative IPC: 0.30595 (Simulation time: 0 hr 0 min 52 sec) 
Heartbeat CPU  0 instructions:   21000002 cycles:   42072045 heartbeat IPC: 0.30675 cumulative IPC: 0.30602 (Simulation time: 0 hr 0 min 56 sec) 
Heartbeat CPU  0 instructions:   22000000 cycles:   45351258 heartbeat IPC: 0.30495 cumulative IPC: 0.30593 (Simulation time: 0 hr 0 min 59 sec) 
Heartbeat CPU  0 instructions:   23000002 cycles:   48608508 heartbeat IPC: 0.30701 cumulative IPC: 0.30601 (Simulation time: 0 hr 1 min 2 sec) 
Heartbeat CPU  0 instructions:   24000000 cycles:   51878843 heartbeat IPC: 0.30578 cumulative IPC: 0.30600 (Simulation time: 0 hr 1 min 5 sec) 
Heartbeat CPU  0 instructions:   25000000 cycles:   55180216 heartbeat IPC: 0.30290 cumulative IPC: 0.30579 (Simulation time: 0 hr 1 min 9 sec) 
Heartbeat CPU  0 instructions:   26000001 cycles:   58417266 heartbeat IPC: 0.30892 cumulative IPC: 0.30598 (Simulation time: 0 hr 1 min 12 sec) 
Heartbeat CPU  0 instructions:   27000002 cycles:   61662111 heartbeat IPC: 0.30818 cumulative IPC: 0.30611 (Simulation time: 0 hr 1 min 15 sec) 
Heartbeat CPU  0 instructions:   28000000 cycles:   64914841 heartbeat IPC: 0.30743 cumulative IPC: 0.30618 (Simulation time: 0 hr 1 min 19 sec) 
Heartbeat CPU  0 instructions:   29000001 cycles:   68207734 heartbeat IPC: 0.30368 cumulative IPC: 0.30605 (Simulation time: 0 hr 1 min 22 sec) 
Heartbeat CPU  0 instructions:   30000002 cycles:   71494242 heartbeat IPC: 0.30427 cumulative IPC: 0.30596 (Simulation time: 0 hr 1 min 25 sec) 
Heartbeat CPU  0 instructions:   31000001 cycles:   74775141 heartbeat IPC: 0.30479 cumulative IPC: 0.30591 (Simulation time: 0 hr 1 min 28 sec) 
Heartbeat CPU  0 instructions:   32000000 cycles:   78044821 heartbeat IPC: 0.30584 cumulative IPC: 0.30590 (Simulation time: 0 hr 1 min 32 sec) 
Heartbeat CPU  0 instructions:   33000000 cycles:   81326742 heartbeat IPC: 0.30470 cumulative IPC: 0.30585 (Simulation time: 0 hr 1 min 35 sec) 
Heartbeat CPU  0 instructions:   34000002 cycles:   84573625 heartbeat IPC: 0.30799 cumulative IPC: 0.30594 (Simulation time: 0 hr 1 min 38 sec) 
Heartbeat CPU  0 instructions:   35000000 cycles:   87834184 heartbeat IPC: 0.30670 cumulative IPC: 0.30597 (Simulation time: 0 hr 1 min 42 sec) 
Heartbeat CPU  0 instructions:   36000000 cycles:   91153450 heartbeat IPC: 0.30127 cumulative IPC: 0.30579 (Simulation time: 0 hr 1 min 45 sec) 
Heartbeat CPU  0 instructions:   37000000 cycles:   94418695 heartbeat IPC: 0.30626 cumulative IPC: 0.30580 (Simulation time: 0 hr 1 min 48 sec) 
Heartbeat CPU  0 instructions:   38000002 cycles:   97701268 heartbeat IPC: 0.30464 cumulative IPC: 0.30576 (Simulation time: 0 hr 1 min 51 sec) 
Heartbeat CPU  0 instructions:   39000001 cycles:  100973682 heartbeat IPC: 0.30558 cumulative IPC: 0.30576 (Simulation time: 0 hr 1 min 55 sec) 
Heartbeat CPU  0 instructions:   40000000 cycles:  104208985 heartbeat IPC: 0.30909 cumulative IPC: 0.30587 (Simulation time: 0 hr 1 min 58 sec) 
Heartbeat CPU  0 instructions:   41000002 cycles:  107469176 heartbeat IPC: 0.30673 cumulative IPC: 0.30589 (Simulation time: 0 hr 2 min 1 sec) 
Heartbeat CPU  0 instructions:   42000000 cycles:  110741607 heartbeat IPC: 0.30558 cumulative IPC: 0.30588 (Simulation time: 0 hr 2 min 5 sec) 
Heartbeat CPU  0 instructions:   43000000 cycles:  114012022 heartbeat IPC: 0.30577 cumulative IPC: 0.30588 (Simulation time: 0 hr 2 min 8 sec) 
Heartbeat CPU  0 instructions:   44000000 cycles:  117250311 heartbeat IPC: 0.30881 cumulative IPC: 0.30597 (Simulation time: 0 hr 2 min 11 sec) 
Heartbeat CPU  0 instructions:   45000000 cycles:  120522548 heartbeat IPC: 0.30560 cumulative IPC: 0.30595 (Simulation time: 0 hr 2 min 14 sec) 
Heartbeat CPU  0 instructions:   46000001 cycles:  123735578 heartbeat IPC: 0.31123 cumulative IPC: 0.30610 (Simulation time: 0 hr 2 min 18 sec) 
Heartbeat CPU  0 instructions:   47000001 cycles:  126998965 heartbeat IPC: 0.30643 cumulative IPC: 0.30611 (Simulation time: 0 hr 2 min 21 sec) 
Heartbeat CPU  0 instructions:   48000000 cycles:  130282907 heartbeat IPC: 0.30451 cumulative IPC: 0.30607 (Simulation time: 0 hr 2 min 24 sec) 
Heartbeat CPU  0 instructions:   49000001 cycles:  133521456 heartbeat IPC: 0.30878 cumulative IPC: 0.30613 (Simulation time: 0 hr 2 min 27 sec) 
Heartbeat CPU  0 instructions:   50000001 cycles:  136789764 heartbeat IPC: 0.30597 cumulative IPC: 0.30613 (Simulation time: 0 hr 2 min 31 sec) 
Heartbeat CPU  0 instructions:   51000002 cycles:  140046902 heartbeat IPC: 0.30702 cumulative IPC: 0.30615 (Simulation time: 0 hr 2 min 34 sec) 
Heartbeat CPU  0 instructions:   52000000 cycles:  143318600 heartbeat IPC: 0.30565 cumulative IPC: 0.30614 (Simulation time: 0 hr 2 min 37 sec) 
Heartbeat CPU  0 instructions:   53000000 cycles:  146627866 heartbeat IPC: 0.30218 cumulative IPC: 0.30605 (Simulation time: 0 hr 2 min 41 sec) 
Heartbeat CPU  0 instructions:   54000000 cycles:  149843509 heartbeat IPC: 0.31098 cumulative IPC: 0.30616 (Simulation time: 0 hr 2 min 44 sec) 
Heartbeat CPU  0 instructions:   55000002 cycles:  153125056 heartbeat IPC: 0.30473 cumulative IPC: 0.30613 (Simulation time: 0 hr 2 min 47 sec) 
Heartbeat CPU  0 instructions:   56000000 cycles:  156406735 heartbeat IPC: 0.30472 cumulative IPC: 0.30609 (Simulation time: 0 hr 2 min 50 sec) 
Heartbeat CPU  0 instructions:   57000000 cycles:  159652861 heartbeat IPC: 0.30806 cumulative IPC: 0.30614 (Simulation time: 0 hr 2 min 54 sec) 
Heartbeat CPU  0 instructions:   58000003 cycles:  162915006 heartbeat IPC: 0.30655 cumulative IPC: 0.30615 (Simulation time: 0 hr 2 min 57 sec) 
Heartbeat CPU  0 instructions:   59000002 cycles:  166198892 heartbeat IPC: 0.30452 cumulative IPC: 0.30611 (Simulation time: 0 hr 3 min 0 sec) 
Heartbeat CPU  0 instructions:   60000000 cycles:  169449329 heartbeat IPC: 0.30765 cumulative IPC: 0.30614 (Simulation time: 0 hr 3 min 3 sec) 
Finished CPU 0 instructions: 50000001 cycles: 163322756 cumulative IPC: 0.30614 (Simulation time: 0 hr 3 min 3 sec) 

ChampSim completed all CPUs

[ROI Statistics]
Core_0_instructions 50000001
Core_0_cycles 163322756
Core_0_IPC 0.30614

Core_0_branch_prediction_accuracy 98.19283
Core_0_branch_MPKI 0.35540
Core_0_average_ROB_occupancy_at_mispredict 156.62881

Core_0_L1D_total_access 16420566
Core_0_L1D_total_hit 14498486
Core_0_L1D_total_miss 1922080
Core_0_L1D_loads 11644405
Core_0_L1D_load_hit 9722330
Core_0_L1D_load_miss 1922075
Core_0_L1D_RFOs 4776161
Core_0_L1D_RFO_hit 4776156
Core_0_L1D_RFO_miss 5
Core_0_L1D_prefetches 0
Core_0_L1D_prefetch_hit 0
Core_0_L1D_prefetch_miss 0
Core_0_L1D_writebacks 0
Core_0_L1D_writeback_hit 0
Core_0_L1D_writeback_miss 0
Core_0_L1D_prefetch_requested 0
Core_0_L1D_prefetch_dropped 0
Core_0_L1D_prefetch_issued 0
Core_0_L1D_prefetch_filled 0
Core_0_L1D_prefetch_useful 0
Core_0_L1D_prefetch_useless 0
Core_0_L1D_prefetch_late 0
Core_0_L1D_average_miss_latency 273.06958

Core_0_L1D_rq_access 22446235
Core_0_L1D_rq_forward 0
Core_0_L1D_rq_merged 8535851
Core_0_L1D_rq_to_cache 13910384
Core_0_L1D_rq_full 0

Core_0_L1D_wq_access 4792472
Core_0_L1D_wq_forward 0
Core_0_L1D_wq_merged 16288
Core_0_L1D_wq_to_cache 4776184
Core_0_L1D_wq_full 0

Core_0_L1D_pq_access 0
Core_0_L1D_pq_forward 0
Core_0_L1D_pq_merged 0
Core_0_L1D_pq_to_cache 0
Core_0_L1D_pq_full 0

Core_0_L1D_acc_epochs 163098
Core_0_L1D_acc_level_0 163098
Core_0_L1D_acc_level_1 0
Core_0_L1D_acc_level_2 0
Core_0_L1D_acc_level_3 0
Core_0_L1D_acc_level_4 0
Core_0_L1D_acc_level_5 0
Core_0_L1D_acc_level_6 0
Core_0_L1D_acc_level_7 0
Core_0_L1D_acc_level_8 0
Core_0_L1D_acc_level_9 0

Core_0_L1I_total_access 12340561
Core_0_L1I_total_hit 12340561
Core_0_L1I_total_miss 0
Core_0_L1I_loads 12340561
Core_0_L1I_load_hit 12340561
Core_0_L1I_load_miss 0
Core_0_L1I_RFOs 0
Core_0_L1I_RFO_hit 0
Core_0_L1I_RFO_miss 0
Core_0_L1I_prefetches 0
Core_0_L1I_prefetch_hit 0
Core_0_L1I_prefetch_miss 0
Core_0_L1I_writebacks 0
Core_0_L1I_writeback_hit 0
Core_0_L1I_writeback_miss 0
Core_0_L1I_prefetch_requested 0
Core_0_L1I_prefetch_dropped 0
Core_0_L1I_prefetch_issued 0
Core_0_L1I_prefetch_filled 0
Core_0_L1I_prefetch_useful 0
Core_0_L1I_prefetch_useless 0
Core_0_L1I_prefetch_late 0
Core_0_L1I_average_miss_latency -nan

Core_0_L1I_rq_access 50000006
Core_0_L1I_rq_forward 0
Core_0_L1I_rq_merged 37659445
Core_0_L1I_rq_to_cache 12340561
Core_0_L1I_rq_full 0

Core_0_L1I_wq_access 0
Core_0_L1I_wq_forward 0
Core_0_L1I_wq_merged 0
Core_0_L1I_wq_to_cache 0
Core_0_L1I_wq_full 0

Core_0_L1I_pq_access 0
Core_0_L1I_pq_forward 0
Core_0_L1I_pq_merged 0
Core_0_L1I_pq_to_cache 0
Core_0_L1I_pq_full 0

Core_0_L1I_acc_epochs 163098
Core_0_L1I_acc_level_0 163098
Core_0_L1I_acc_level_1 0
Core_0_L1I_acc_level_2 0
Core_0_L1I_acc_level_3 0
Core_0_L1I_acc_level_4 0
Core_0_L1I_acc_level_5 0
Core_0_L1I_acc_level_6 0
Core_0_L1I_acc_level_7 0
Core_0_L1I_acc_level_8 0
Core_0_L1I_acc_level_9 0

Core_0_L2C_total_access 2643408
Core_0_L2C_total_hit 727524
Core_0_L2C_total_miss 1915884
Core_0_L2C_loads 1922074
Core_0_L2C_load_hit 6329
Core_0_L2C_load_miss 1915745
Core_0_L2C_RFOs 5
Core_0_L2C_RFO_hit 5
Core_0_L2C_RFO_miss 0
Core_0_L2C_prefetches 0
Core_0_L2C_prefetch_hit 0
Core_0_L2C_prefetch_miss 0
Core_0_L2C_writebacks 721329
Core_0_L2C_writeback_hit 721190
Core_0_L2C_writeback_miss 139
Core_0_L2C_prefetch_requested 0
Core_0_L2C_prefetch_dropped 0
Core_0_L2C_prefetch_issued 0
Core_0_L2C_prefetch_filled 0
Core_0_L2C_prefetch_useful 0
Core_0_L2C_prefetch_useless 0
Core_0_L2C_prefetch_late 0
Core_0_L2C_average_miss_latency 259.55652

Core_0_L2C_rq_access 1922080
Core_0_L2C_rq_forward 0
Core_0_L2C_rq_merged 0
Core_0_L2C_rq_to_cache 1922079
Core_0_L2C_rq_full 0

Core_0_L2C_wq_access 721329
Core_0_L2C_wq_forward 1
Core_0_L2C_wq_merged 0
Core_0_L2C_wq_to_cache 721329
Core_0_L2C_wq_full 0

Core_0_L2C_pq_access 0
Core_0_L2C_pq_forward 0
Core_0_L2C_pq_merged 0
Core_0_L2C_pq_to_cache 0
Core_0_L2C_pq_full 0

Core_0_L2C_acc_epochs 163098
Core_0_L2C_acc_level_0 163098
Core_0_L2C_acc_level_1 0
Core_0_L2C_acc_level_2 0
Core_0_L2C_acc_level_3 0
Core_0_L2C_acc_level_4 0
Core_0_L2C_acc_level_5 0
Core_0_L2C_acc_level_6 0
Core_0_L2C_acc_level_7 0
Core_0_L2C_acc_level_8 0
Core_0_L2C_acc_level_9 0

Core_0_LLC_total_access 2633478
Core_0_LLC_total_hit 22727
Core_0_LLC_total_miss 2610751
Core_0_LLC_loads 1915745
Core_0_LLC_load_hit 5477
Core_0_LLC_load_miss 1910268
Core_0_LLC_RFOs 0
Core_0_LLC_RFO_hit 0
Core_0_LLC_RFO_miss 0
Core_0_LLC_prefetches 0
Core_0_LLC_prefetch_hit 0
Core_0_LLC_prefetch_miss 0
Core_0_LLC_writebacks 717733
Core_0_LLC_writeback_hit 17250
Core_0_LLC_writeback_miss 700483
Core_0_LLC_prefetch_requested 0
Core_0_LLC_prefetch_dropped 0
Core_0_LLC_prefetch_issued 0
Core_0_LLC_prefetch_filled 0
Core_0_LLC_prefetch_useful 0
Core_0_LLC_prefetch_useless 0
Core_0_LLC_prefetch_late 0
Core_0_LLC_average_miss_latency 168.19937

Core_0_LLC_rq_access 1915745
Core_0_LLC_rq_forward 0
Core_0_LLC_rq_merged 0
Core_0_LLC_rq_to_cache 1915745
Core_0_LLC_rq_full 0

Core_0_LLC_wq_access 717733
Core_0_LLC_wq_forward 0
Core_0_LLC_wq_merged 0
Core_0_LLC_wq_to_cache 717733
Core_0_LLC_wq_full 0

Core_0_LLC_pq_access 0
Core_0_LLC_pq_forward 0
Core_0_LLC_pq_merged 0
Core_0_LLC_pq_to_cache 0
Core_0_LLC_pq_full 0

Core_0_LLC_acc_epochs 165478
Core_0_LLC_acc_level_0 165478
Core_0_LLC_acc_level_1 0
Core_0_LLC_acc_level_2 0
Core_0_LLC_acc_level_3 0
Core_0_LLC_acc_level_4 0
Core_0_LLC_acc_level_5 0
Core_0_LLC_acc_level_6 0
Core_0_LLC_acc_level_7 0
Core_0_LLC_acc_level_8 0
Core_0_LLC_acc_level_9 0

Core_0_major_page_fault 0
Core_0_minor_page_fault 29749

Channel_0_RQ_row_buffer_hit 1049243
Channel_0_RQ_row_buffer_miss 861025
Channel_0_WQ_row_buffer_hit 626690
Channel_0_WQ_row_buffer_miss 91020
Channel_0_WQ_full 0
Channel_0_dbus_congested 736022

avg_congested_cycle 10

DRAM_bw_pochs 661912
DRAM_bw_level_0 247523
DRAM_bw_level_1 398538
DRAM_bw_level_2 15665
DRAM_bw_level_3 186
