*************************************************
   ChampSim Multicore Out-of-Order Simulator
   Last compiled: Apr  3 2025 20:54:34
*************************************************
parsing config file: /home/zir/Pythia/config/pythia.ini

trace_0 /home/zir/ChampSim/ML-DPC/ChampSimTraces/spec17/654.roms-s2.trace.xz
adding L2C_PREFETCHER: Scooby
Initialize SHIP state
warmup_instructions 10000000
simulation_instructions 50000000
champsim_seed 165
measure_ipc 0
measure_ipc_epoch 1000
measure_dram_bw 1
measure_dram_bw_epoch 256
measure_cache_acc 1
measure_cache_acc_epoch 1024
l1d_perfect 0
l2c_perfect 0
llc_perfect 0
l1d_semi_perfect 0
l2c_semi_perfect 0
llc_semi_perfect 0
semi_perfect_cache_page_buffer_size 64

num_cpus 1
cpu_freq 4000
dram_io_freq 2400
page_size 4096
block_size 64
max_read_per_cycle 8
max_fill_per_cycle 1
dram_channels 1
log2_dram_channels 0
dram_ranks 1
dram_banks 8
dram_rows 65536
dram_columns 128
dram_row_size 8
dram_size 4096
dram_pages 1048576

fetch_width 6
decode_width 6
exec_width 4
lq_width 2
sq_width 2
retire_width 4
scheduler_size 128
branch_mispredict_penalty 20
rob_size 256
lq_size 72
sq_size 56
num_instr_destinations_sparc 4
num_instr_destinations 2
num_instr_sources 4

itlb_set 16
itlb_way 8
itlb_rq_size 16
itlb_wq_size 16
itlb_pq_size 0
itlb_mshr_size 8
itlb_latency 1

dtlb_set 16
dtlb_way 4
dtlb_rq_size 16
dtlb_wq_size 16
dtlb_pq_size 0
dtlb_mshr_size 8
dtlb_latency 1

stlb_set 128
stlb_way 12
stlb_rq_size 32
stlb_wq_size 32
stlb_pq_size 0
stlb_mshr_size 16
stlb_latency 8

l1i_size 32
l1i_set 64
l1i_way 8
l1i_rq_size 64
l1i_wq_size 64
l1i_pq_size 8
l1i_mshr_size 8
l1i_latency 1

l1d_size 32
l1d_set 64
l1d_way 8
l1d_rq_size 64
l1d_wq_size 64
l1d_pq_size 8
l1d_mshr_size 16
l1d_latency 4

l2c_size 256
l2c_set 512
l2c_way 8
l2c_rq_size 32
l2c_wq_size 32
l2c_pq_size 32
l2c_mshr_size 32
l2c_latency 10

llc_size 2048
llc_set 2048
llc_way 16
llc_rq_size 32
llc_wq_size 32
llc_pq_size 32
llc_mshr_size 64
llc_latency 20

dram_channel_width 8
dram_wq_size 64
dram_rq_size 64
tRP 15
tRCD 15
tCAS 12.5
dram_dbus_turn_around_time 30
dram_write_high_wm 56
dram_write_low_wm 48
min_dram_writes_per_switch 16
dram_mtps 2400
dram_dbus_return_time 13

scooby_alpha 0.0065088
scooby_gamma 0.556301
scooby_epsilon 0.00182284
scooby_state_num_bits 10
scooby_max_states 1024
scooby_seed 200
scooby_policy EGreedy
scooby_learning_type SARSA
scooby_actions 1,3,4,5,10,11,12,22,23,30,32,-1,-3,-6,0,
scooby_max_actions 15
scooby_pt_size 256
scooby_st_size 64
scooby_max_pcs 5
scooby_max_offsets 5
scooby_max_deltas 5
scooby_reward_none -4
scooby_reward_incorrect -8
scooby_reward_correct_untimely 12
scooby_reward_correct_timely 20
scooby_brain_zero_init 0
scooby_enable_reward_all 0
scooby_enable_track_multiple 0
scooby_enable_reward_out_of_bounds 1
scooby_reward_out_of_bounds -12
scooby_state_type 1
scooby_state_hash_type 11
scooby_access_debug 0
scooby_print_access_debug 0
scooby_print_access_debug_pc deadbeef
scooby_print_access_debug_pc_count 0
scooby_print_trace 0
scooby_enable_state_action_stats 1
scooby_enable_reward_tracker_hit 0
scooby_reward_tracker_hit -2
scooby_enable_featurewise_engine 1
scooby_pref_degree 1
scooby_enable_dyn_degree 1
scooby_max_to_avg_q_thresholds 0.5,1,2,
scooby_dyn_degrees 1,2,4,4,
scooby_multi_deg_select_type 2
scooby_last_pref_offset_conf_thresholds 1,3,8,
scooby_dyn_degrees_type2 1,2,4,6,
scooby_action_tracker_size 2
scooby_high_bw_thresh 4
scooby_enable_hbw_reward 1
scooby_reward_hbw_correct_timely 20
scooby_reward_hbw_correct_untimely 12
scooby_reward_hbw_incorrect -14
scooby_reward_hbw_none -2
scooby_reward_hbw_out_of_bounds -12
scooby_reward_hbw_tracker_hit -2
scooby_last_pref_offset_conf_thresholds_hbw 1,3,8,
scooby_dyn_degrees_type2_hbw 1,2,4,6,

le_enable_trace 0
le_trace_interval 0
le_trace_file_name 
le_trace_state 0
le_enable_score_plot 0
le_plot_file_name 
le_plot_actions 
le_enable_action_trace 0
le_action_trace_interval 0
le_action_trace_name 
le_enable_action_plot 0

le_featurewise_active_features PC, PC_Delta
le_featurewise_num_tilings 3,3,
le_featurewise_num_tiles 128,128,
le_featurewise_hash_types 2,2,
le_featurewise_enable_tiling_offset 1,1,
le_featurewise_max_q_thresh 0.5
le_featurewise_enable_action_fallback 1
le_featurewise_feature_weights 1,1,
le_featurewise_enable_dynamic_weight 0
le_featurewise_weight_gradient 0.001
le_featurewise_disable_adjust_weight_all_features_align 1
le_featurewise_selective_update 0
le_featurewise_pooling_type 2
le_featurewise_enable_dyn_action_fallback 1
le_featurewise_bw_acc_check_level 1
le_featurewise_acc_thresh 2
le_featurewise_enable_trace 0
le_featurewise_trace_feature_type 0
le_featurewise_trace_feature 
le_featurewise_trace_interval 0
le_featurewise_trace_record_count 0
le_featurewise_trace_file_name 
le_featurewise_enable_score_plot 0
le_featurewise_plot_actions 
le_featurewise_plot_file_name 


Heartbeat CPU  0 instructions:    1000002 cycles:     492570 heartbeat IPC: 2.03017 cumulative IPC: 2.03017 (Simulation time: 0 hr 0 min 1 sec) 
Heartbeat CPU  0 instructions:    2000002 cycles:     984926 heartbeat IPC: 2.03105 cumulative IPC: 2.03061 (Simulation time: 0 hr 0 min 3 sec) 
Heartbeat CPU  0 instructions:    3000001 cycles:    1469915 heartbeat IPC: 2.06190 cumulative IPC: 2.04094 (Simulation time: 0 hr 0 min 5 sec) 
Heartbeat CPU  0 instructions:    4000000 cycles:    1948280 heartbeat IPC: 2.09045 cumulative IPC: 2.05309 (Simulation time: 0 hr 0 min 7 sec) 
Heartbeat CPU  0 instructions:    5000001 cycles:    2426346 heartbeat IPC: 2.09176 cumulative IPC: 2.06071 (Simulation time: 0 hr 0 min 9 sec) 
Heartbeat CPU  0 instructions:    6000001 cycles:    2909205 heartbeat IPC: 2.07100 cumulative IPC: 2.06242 (Simulation time: 0 hr 0 min 11 sec) 
Heartbeat CPU  0 instructions:    7000000 cycles:    3434988 heartbeat IPC: 1.90192 cumulative IPC: 2.03785 (Simulation time: 0 hr 0 min 13 sec) 
Heartbeat CPU  0 instructions:    8000000 cycles:    3960731 heartbeat IPC: 1.90207 cumulative IPC: 2.01983 (Simulation time: 0 hr 0 min 15 sec) 
Heartbeat CPU  0 instructions:    9000000 cycles:    4486567 heartbeat IPC: 1.90173 cumulative IPC: 2.00599 (Simulation time: 0 hr 0 min 17 sec) 
Heartbeat CPU  0 instructions:   10000001 cycles:    5012332 heartbeat IPC: 1.90199 cumulative IPC: 1.99508 (Simulation time: 0 hr 0 min 18 sec) 

Warmup complete CPU  0 instructions:   10000001 cycles:    5012332 (Simulation time: 0 hr 0 min 18 sec) 

Heartbeat CPU  0 instructions:   11000000 cycles:    6677190 heartbeat IPC: 0.60065 cumulative IPC: 0.60065 (Simulation time: 0 hr 0 min 21 sec) 
Heartbeat CPU  0 instructions:   12000000 cycles:    8108136 heartbeat IPC: 0.69884 cumulative IPC: 0.64604 (Simulation time: 0 hr 0 min 23 sec) 
Heartbeat CPU  0 instructions:   13000002 cycles:    8880434 heartbeat IPC: 1.29484 cumulative IPC: 0.77557 (Simulation time: 0 hr 0 min 26 sec) 
Heartbeat CPU  0 instructions:   14000003 cycles:    9650012 heartbeat IPC: 1.29941 cumulative IPC: 0.86250 (Simulation time: 0 hr 0 min 28 sec) 
Heartbeat CPU  0 instructions:   15000003 cycles:   10423511 heartbeat IPC: 1.29283 cumulative IPC: 0.92401 (Simulation time: 0 hr 0 min 30 sec) 
Heartbeat CPU  0 instructions:   16000000 cycles:   11196732 heartbeat IPC: 1.29329 cumulative IPC: 0.97018 (Simulation time: 0 hr 0 min 32 sec) 
Heartbeat CPU  0 instructions:   17000003 cycles:   11964383 heartbeat IPC: 1.30268 cumulative IPC: 1.00690 (Simulation time: 0 hr 0 min 34 sec) 
Heartbeat CPU  0 instructions:   18000001 cycles:   12735943 heartbeat IPC: 1.29607 cumulative IPC: 1.03578 (Simulation time: 0 hr 0 min 37 sec) 
Heartbeat CPU  0 instructions:   19000001 cycles:   13501037 heartbeat IPC: 1.30703 cumulative IPC: 1.06023 (Simulation time: 0 hr 0 min 39 sec) 
Heartbeat CPU  0 instructions:   20000000 cycles:   14276607 heartbeat IPC: 1.28937 cumulative IPC: 1.07942 (Simulation time: 0 hr 0 min 41 sec) 
Heartbeat CPU  0 instructions:   21000003 cycles:   15052460 heartbeat IPC: 1.28891 cumulative IPC: 1.09560 (Simulation time: 0 hr 0 min 43 sec) 
Heartbeat CPU  0 instructions:   22000001 cycles:   15819121 heartbeat IPC: 1.30435 cumulative IPC: 1.11041 (Simulation time: 0 hr 0 min 46 sec) 
Heartbeat CPU  0 instructions:   23000001 cycles:   16588833 heartbeat IPC: 1.29919 cumulative IPC: 1.12296 (Simulation time: 0 hr 0 min 48 sec) 
Heartbeat CPU  0 instructions:   24000000 cycles:   17349787 heartbeat IPC: 1.31414 cumulative IPC: 1.13476 (Simulation time: 0 hr 0 min 50 sec) 
Heartbeat CPU  0 instructions:   25000003 cycles:   18120905 heartbeat IPC: 1.29682 cumulative IPC: 1.14429 (Simulation time: 0 hr 0 min 52 sec) 
Heartbeat CPU  0 instructions:   26000001 cycles:   18891334 heartbeat IPC: 1.29798 cumulative IPC: 1.15282 (Simulation time: 0 hr 0 min 54 sec) 
Heartbeat CPU  0 instructions:   27000000 cycles:   19689262 heartbeat IPC: 1.25324 cumulative IPC: 1.15828 (Simulation time: 0 hr 0 min 57 sec) 
Heartbeat CPU  0 instructions:   28000000 cycles:   21410891 heartbeat IPC: 0.58085 cumulative IPC: 1.09766 (Simulation time: 0 hr 0 min 59 sec) 
Heartbeat CPU  0 instructions:   29000000 cycles:   23174859 heartbeat IPC: 0.56690 cumulative IPC: 1.04611 (Simulation time: 0 hr 1 min 2 sec) 
Heartbeat CPU  0 instructions:   30000000 cycles:   24951292 heartbeat IPC: 0.56293 cumulative IPC: 1.00306 (Simulation time: 0 hr 1 min 4 sec) 
Heartbeat CPU  0 instructions:   31000003 cycles:   26649177 heartbeat IPC: 0.58897 cumulative IPC: 0.97057 (Simulation time: 0 hr 1 min 7 sec) 
Heartbeat CPU  0 instructions:   32000000 cycles:   28317458 heartbeat IPC: 0.59942 cumulative IPC: 0.94400 (Simulation time: 0 hr 1 min 10 sec) 
Heartbeat CPU  0 instructions:   33000000 cycles:   29983617 heartbeat IPC: 0.60018 cumulative IPC: 0.92106 (Simulation time: 0 hr 1 min 12 sec) 
Heartbeat CPU  0 instructions:   34000000 cycles:   31649723 heartbeat IPC: 0.60020 cumulative IPC: 0.90099 (Simulation time: 0 hr 1 min 15 sec) 
Heartbeat CPU  0 instructions:   35000003 cycles:   33315484 heartbeat IPC: 0.60033 cumulative IPC: 0.88329 (Simulation time: 0 hr 1 min 17 sec) 
Heartbeat CPU  0 instructions:   36000000 cycles:   34983518 heartbeat IPC: 0.59951 cumulative IPC: 0.86750 (Simulation time: 0 hr 1 min 20 sec) 
Heartbeat CPU  0 instructions:   37000000 cycles:   35954494 heartbeat IPC: 1.02989 cumulative IPC: 0.87260 (Simulation time: 0 hr 1 min 22 sec) 
Heartbeat CPU  0 instructions:   38000002 cycles:   36753060 heartbeat IPC: 1.25225 cumulative IPC: 0.88215 (Simulation time: 0 hr 1 min 24 sec) 
Heartbeat CPU  0 instructions:   39000000 cycles:   37542398 heartbeat IPC: 1.26688 cumulative IPC: 0.89148 (Simulation time: 0 hr 1 min 27 sec) 
Heartbeat CPU  0 instructions:   40000000 cycles:   38341597 heartbeat IPC: 1.25125 cumulative IPC: 0.90011 (Simulation time: 0 hr 1 min 29 sec) 
Heartbeat CPU  0 instructions:   41000000 cycles:   39137037 heartbeat IPC: 1.25717 cumulative IPC: 0.90843 (Simulation time: 0 hr 1 min 31 sec) 
Heartbeat CPU  0 instructions:   42000000 cycles:   39937766 heartbeat IPC: 1.24886 cumulative IPC: 0.91624 (Simulation time: 0 hr 1 min 33 sec) 
Heartbeat CPU  0 instructions:   43000002 cycles:   40741567 heartbeat IPC: 1.24409 cumulative IPC: 0.92361 (Simulation time: 0 hr 1 min 35 sec) 
Heartbeat CPU  0 instructions:   44000000 cycles:   41532841 heartbeat IPC: 1.26378 cumulative IPC: 0.93098 (Simulation time: 0 hr 1 min 38 sec) 
Heartbeat CPU  0 instructions:   45000000 cycles:   42334234 heartbeat IPC: 1.24783 cumulative IPC: 0.93779 (Simulation time: 0 hr 1 min 40 sec) 
Heartbeat CPU  0 instructions:   46000000 cycles:   43133626 heartbeat IPC: 1.25095 cumulative IPC: 0.94435 (Simulation time: 0 hr 1 min 42 sec) 
Heartbeat CPU  0 instructions:   47000000 cycles:   43937070 heartbeat IPC: 1.24464 cumulative IPC: 0.95055 (Simulation time: 0 hr 1 min 44 sec) 
Heartbeat CPU  0 instructions:   48000000 cycles:   44744279 heartbeat IPC: 1.23884 cumulative IPC: 0.95641 (Simulation time: 0 hr 1 min 47 sec) 
Heartbeat CPU  0 instructions:   49000000 cycles:   45527361 heartbeat IPC: 1.27701 cumulative IPC: 0.96261 (Simulation time: 0 hr 1 min 49 sec) 
Heartbeat CPU  0 instructions:   50000000 cycles:   46313352 heartbeat IPC: 1.27228 cumulative IPC: 0.96850 (Simulation time: 0 hr 1 min 51 sec) 
Heartbeat CPU  0 instructions:   51000002 cycles:   47085522 heartbeat IPC: 1.29505 cumulative IPC: 0.97449 (Simulation time: 0 hr 1 min 53 sec) 
Heartbeat CPU  0 instructions:   52000000 cycles:   48401574 heartbeat IPC: 0.75985 cumulative IPC: 0.96798 (Simulation time: 0 hr 1 min 56 sec) 
Heartbeat CPU  0 instructions:   53000001 cycles:   50152486 heartbeat IPC: 0.57113 cumulative IPC: 0.95259 (Simulation time: 0 hr 1 min 59 sec) 
Heartbeat CPU  0 instructions:   54000002 cycles:   51936245 heartbeat IPC: 0.56061 cumulative IPC: 0.93769 (Simulation time: 0 hr 2 min 1 sec) 
Heartbeat CPU  0 instructions:   55000002 cycles:   53663251 heartbeat IPC: 0.57904 cumulative IPC: 0.92496 (Simulation time: 0 hr 2 min 4 sec) 
Heartbeat CPU  0 instructions:   56000000 cycles:   55328062 heartbeat IPC: 0.60067 cumulative IPC: 0.91423 (Simulation time: 0 hr 2 min 6 sec) 
Heartbeat CPU  0 instructions:   57000003 cycles:   56994446 heartbeat IPC: 0.60010 cumulative IPC: 0.90416 (Simulation time: 0 hr 2 min 9 sec) 
Heartbeat CPU  0 instructions:   58000000 cycles:   58661858 heartbeat IPC: 0.59973 cumulative IPC: 0.89470 (Simulation time: 0 hr 2 min 11 sec) 
Heartbeat CPU  0 instructions:   59000002 cycles:   60326126 heartbeat IPC: 0.60087 cumulative IPC: 0.88586 (Simulation time: 0 hr 2 min 14 sec) 
Heartbeat CPU  0 instructions:   60000000 cycles:   61992932 heartbeat IPC: 0.59995 cumulative IPC: 0.87749 (Simulation time: 0 hr 2 min 16 sec) 
Finished CPU 0 instructions: 50000003 cycles: 56980609 cumulative IPC: 0.87749 (Simulation time: 0 hr 2 min 16 sec) 

ChampSim completed all CPUs

[ROI Statistics]
Core_0_instructions 50000003
Core_0_cycles 56980609
Core_0_IPC 0.87749

Core_0_branch_prediction_accuracy 99.88575
Core_0_branch_MPKI 0.06354
Core_0_average_ROB_occupancy_at_mispredict 253.94334

Core_0_L1D_total_access 11713925
Core_0_L1D_total_hit 10617318
Core_0_L1D_total_miss 1096607
Core_0_L1D_loads 11061301
Core_0_L1D_load_hit 10309078
Core_0_L1D_load_miss 752223
Core_0_L1D_RFOs 652624
Core_0_L1D_RFO_hit 308240
Core_0_L1D_RFO_miss 344384
Core_0_L1D_prefetches 0
Core_0_L1D_prefetch_hit 0
Core_0_L1D_prefetch_miss 0
Core_0_L1D_writebacks 0
Core_0_L1D_writeback_hit 0
Core_0_L1D_writeback_miss 0
Core_0_L1D_prefetch_requested 0
Core_0_L1D_prefetch_dropped 0
Core_0_L1D_prefetch_issued 0
Core_0_L1D_prefetch_filled 0
Core_0_L1D_prefetch_useful 0
Core_0_L1D_prefetch_useless 0
Core_0_L1D_prefetch_late 0
Core_0_L1D_average_miss_latency 161.12675

Core_0_L1D_rq_access 18807416
Core_0_L1D_rq_forward 0
Core_0_L1D_rq_merged 7399161
Core_0_L1D_rq_to_cache 11408255
Core_0_L1D_rq_full 0

Core_0_L1D_wq_access 2738726
Core_0_L1D_wq_forward 0
Core_0_L1D_wq_merged 0
Core_0_L1D_wq_to_cache 2738726
Core_0_L1D_wq_full 0

Core_0_L1D_pq_access 0
Core_0_L1D_pq_forward 0
Core_0_L1D_pq_merged 0
Core_0_L1D_pq_to_cache 0
Core_0_L1D_pq_full 0

Core_0_L1D_acc_epochs 58213
Core_0_L1D_acc_level_0 58213
Core_0_L1D_acc_level_1 0
Core_0_L1D_acc_level_2 0
Core_0_L1D_acc_level_3 0
Core_0_L1D_acc_level_4 0
Core_0_L1D_acc_level_5 0
Core_0_L1D_acc_level_6 0
Core_0_L1D_acc_level_7 0
Core_0_L1D_acc_level_8 0
Core_0_L1D_acc_level_9 0

Core_0_L1I_total_access 13424153
Core_0_L1I_total_hit 13424153
Core_0_L1I_total_miss 0
Core_0_L1I_loads 13424153
Core_0_L1I_load_hit 13424153
Core_0_L1I_load_miss 0
Core_0_L1I_RFOs 0
Core_0_L1I_RFO_hit 0
Core_0_L1I_RFO_miss 0
Core_0_L1I_prefetches 0
Core_0_L1I_prefetch_hit 0
Core_0_L1I_prefetch_miss 0
Core_0_L1I_writebacks 0
Core_0_L1I_writeback_hit 0
Core_0_L1I_writeback_miss 0
Core_0_L1I_prefetch_requested 0
Core_0_L1I_prefetch_dropped 0
Core_0_L1I_prefetch_issued 0
Core_0_L1I_prefetch_filled 0
Core_0_L1I_prefetch_useful 0
Core_0_L1I_prefetch_useless 0
Core_0_L1I_prefetch_late 0
Core_0_L1I_average_miss_latency -nan

Core_0_L1I_rq_access 50000006
Core_0_L1I_rq_forward 0
Core_0_L1I_rq_merged 36575853
Core_0_L1I_rq_to_cache 13424153
Core_0_L1I_rq_full 0

Core_0_L1I_wq_access 0
Core_0_L1I_wq_forward 0
Core_0_L1I_wq_merged 0
Core_0_L1I_wq_to_cache 0
Core_0_L1I_wq_full 0

Core_0_L1I_pq_access 0
Core_0_L1I_pq_forward 0
Core_0_L1I_pq_merged 0
Core_0_L1I_pq_to_cache 0
Core_0_L1I_pq_full 0

Core_0_L1I_acc_epochs 58213
Core_0_L1I_acc_level_0 58213
Core_0_L1I_acc_level_1 0
Core_0_L1I_acc_level_2 0
Core_0_L1I_acc_level_3 0
Core_0_L1I_acc_level_4 0
Core_0_L1I_acc_level_5 0
Core_0_L1I_acc_level_6 0
Core_0_L1I_acc_level_7 0
Core_0_L1I_acc_level_8 0
Core_0_L1I_acc_level_9 0

Core_0_L2C_total_access 4360054
Core_0_L2C_total_hit 3239745
Core_0_L2C_total_miss 1120309
Core_0_L2C_loads 752223
Core_0_L2C_load_hit 680232
Core_0_L2C_load_miss 71991
Core_0_L2C_RFOs 344384
Core_0_L2C_RFO_hit 3
Core_0_L2C_RFO_miss 344381
Core_0_L2C_prefetches 2917012
Core_0_L2C_prefetch_hit 2213075
Core_0_L2C_prefetch_miss 703937
Core_0_L2C_writebacks 346435
Core_0_L2C_writeback_hit 346435
Core_0_L2C_writeback_miss 0
Core_0_L2C_prefetch_requested 4410481
Core_0_L2C_prefetch_dropped 0
Core_0_L2C_prefetch_issued 4410481
Core_0_L2C_prefetch_filled 858350
Core_0_L2C_prefetch_useful 819326
Core_0_L2C_prefetch_useless 39018
Core_0_L2C_prefetch_late 51637
Core_0_L2C_average_miss_latency 389.86061

Core_0_L2C_rq_access 1096609
Core_0_L2C_rq_forward 0
Core_0_L2C_rq_merged 0
Core_0_L2C_rq_to_cache 1096609
Core_0_L2C_rq_full 0

Core_0_L2C_wq_access 346435
Core_0_L2C_wq_forward 0
Core_0_L2C_wq_merged 0
Core_0_L2C_wq_to_cache 346435
Core_0_L2C_wq_full 0

Core_0_L2C_pq_access 4410481
Core_0_L2C_pq_forward 0
Core_0_L2C_pq_merged 15612
Core_0_L2C_pq_to_cache 4394869
Core_0_L2C_pq_full 0

Core_0_L2C_acc_epochs 58213
Core_0_L2C_acc_level_0 1
Core_0_L2C_acc_level_1 2
Core_0_L2C_acc_level_2 19
Core_0_L2C_acc_level_3 95
Core_0_L2C_acc_level_4 288
Core_0_L2C_acc_level_5 624
Core_0_L2C_acc_level_6 992
Core_0_L2C_acc_level_7 2762
Core_0_L2C_acc_level_8 8946
Core_0_L2C_acc_level_9 44484

Core_0_LLC_total_access 1464652
Core_0_LLC_total_hit 17522
Core_0_LLC_total_miss 1447130
Core_0_LLC_loads 20374
Core_0_LLC_load_hit 155
Core_0_LLC_load_miss 20219
Core_0_LLC_RFOs 344381
Core_0_LLC_RFO_hit 0
Core_0_LLC_RFO_miss 344381
Core_0_LLC_prefetches 755555
Core_0_LLC_prefetch_hit 9282
Core_0_LLC_prefetch_miss 746273
Core_0_LLC_writebacks 344342
Core_0_LLC_writeback_hit 8085
Core_0_LLC_writeback_miss 336257
Core_0_LLC_prefetch_requested 0
Core_0_LLC_prefetch_dropped 0
Core_0_LLC_prefetch_issued 0
Core_0_LLC_prefetch_filled 900663
Core_0_LLC_prefetch_useful 2
Core_0_LLC_prefetch_useless 899957
Core_0_LLC_prefetch_late 0
Core_0_LLC_average_miss_latency 290.16013

Core_0_LLC_rq_access 364757
Core_0_LLC_rq_forward 0
Core_0_LLC_rq_merged 0
Core_0_LLC_rq_to_cache 364757
Core_0_LLC_rq_full 0

Core_0_LLC_wq_access 344343
Core_0_LLC_wq_forward 0
Core_0_LLC_wq_merged 0
Core_0_LLC_wq_to_cache 344343
Core_0_LLC_wq_full 0

Core_0_LLC_pq_access 909989
Core_0_LLC_pq_forward 0
Core_0_LLC_pq_merged 0
Core_0_LLC_pq_to_cache 909989
Core_0_LLC_pq_full 0

Core_0_LLC_acc_epochs 60540
Core_0_LLC_acc_level_0 60540
Core_0_LLC_acc_level_1 0
Core_0_LLC_acc_level_2 0
Core_0_LLC_acc_level_3 0
Core_0_LLC_acc_level_4 0
Core_0_LLC_acc_level_5 0
Core_0_LLC_acc_level_6 0
Core_0_LLC_acc_level_7 0
Core_0_LLC_acc_level_8 0
Core_0_LLC_acc_level_9 0

Core_0_major_page_fault 0
Core_0_minor_page_fault 15148

scooby_st_lookup 904437
scooby_st_hit 883024
scooby_st_evict 21349
scooby_st_insert 21413
scooby_st_streaming 0

scooby_predict_called 904437
scooby_predict_out_of_bounds 14270
scooby_predict_action_1 884561
scooby_predict_issue_action_1 883560
scooby_predict_hit_action_1 1001
scooby_predict_out_of_bounds_action_1 13964
scooby_predict_action_3 515
scooby_predict_issue_action_3 346
scooby_predict_hit_action_3 169
scooby_predict_out_of_bounds_action_3 22
scooby_predict_action_4 765
scooby_predict_issue_action_4 115
scooby_predict_hit_action_4 650
scooby_predict_out_of_bounds_action_4 6
scooby_predict_action_5 1194
scooby_predict_issue_action_5 1194
scooby_predict_hit_action_5 0
scooby_predict_out_of_bounds_action_5 9
scooby_predict_action_10 132
scooby_predict_issue_action_10 111
scooby_predict_hit_action_10 21
scooby_predict_out_of_bounds_action_10 18
scooby_predict_action_11 104
scooby_predict_issue_action_11 104
scooby_predict_hit_action_11 0
scooby_predict_out_of_bounds_action_11 15
scooby_predict_action_12 107
scooby_predict_issue_action_12 107
scooby_predict_hit_action_12 0
scooby_predict_out_of_bounds_action_12 16
scooby_predict_action_22 79
scooby_predict_issue_action_22 79
scooby_predict_hit_action_22 0
scooby_predict_out_of_bounds_action_22 50
scooby_predict_action_23 77
scooby_predict_issue_action_23 77
scooby_predict_hit_action_23 0
scooby_predict_out_of_bounds_action_23 48
scooby_predict_action_30 75
scooby_predict_issue_action_30 75
scooby_predict_hit_action_30 0
scooby_predict_out_of_bounds_action_30 57
scooby_predict_action_32 58
scooby_predict_issue_action_32 58
scooby_predict_hit_action_32 0
scooby_predict_out_of_bounds_action_32 46
scooby_predict_action_-1 123
scooby_predict_issue_action_-1 14
scooby_predict_hit_action_-1 109
scooby_predict_out_of_bounds_action_-1 2
scooby_predict_action_-3 112
scooby_predict_issue_action_-3 16
scooby_predict_hit_action_-3 96
scooby_predict_out_of_bounds_action_-3 5
scooby_predict_action_-6 90
scooby_predict_issue_action_-6 17
scooby_predict_hit_action_-6 73
scooby_predict_out_of_bounds_action_-6 12
scooby_predict_action_0 2175
scooby_predict_issue_action_0 0
scooby_predict_hit_action_0 0
scooby_predict_out_of_bounds_action_0 0
scooby_predict_multi_deg_called 815968
scooby_predict_predicted 4410481
scooby_predict_multi_deg 3524608
scooby_predict_multi_deg_2 802371
scooby_predict_multi_deg_3 748332
scooby_predict_multi_deg_4 734965
scooby_predict_multi_deg_5 625853
scooby_predict_multi_deg_6 613087
scooby_predict_multi_deg_7 0
scooby_predict_multi_deg_8 0
scooby_predict_multi_deg_9 0
scooby_predict_multi_deg_10 0
scooby_predict_multi_deg_11 0
scooby_predict_multi_deg_12 0
scooby_predict_multi_deg_13 0
scooby_predict_multi_deg_14 0
scooby_predict_multi_deg_15 0
scooby_predict_multi_deg_16 0

scooby_selected_deg_1 69905
scooby_selected_deg_2 40907
scooby_selected_deg_3 0
scooby_selected_deg_4 98118
scooby_selected_deg_5 0
scooby_selected_deg_6 676943
scooby_selected_deg_7 0
scooby_selected_deg_8 0
scooby_selected_deg_9 0
scooby_selected_deg_10 0
scooby_selected_deg_11 0
scooby_selected_deg_12 0
scooby_selected_deg_13 0
scooby_selected_deg_14 0
scooby_selected_deg_15 0
scooby_selected_deg_16 0

scooby_state_4668a0|0|0 1559,0,0,0,0,1,0,0,0,0,0,0,0,0,0,1560,
scooby_state_4668af|0|0 1555,0,1,0,1,0,0,0,1,0,0,1,1,0,0,1560,
scooby_state_4668af|1|1 1533,0,0,0,0,1,0,1,0,0,0,1,0,0,0,1536,
scooby_state_4668a0|1|1 1534,0,0,0,0,1,1,0,0,0,0,0,0,0,0,1536,
scooby_state_4668a0|22|1 1533,0,0,0,0,1,0,0,0,0,0,0,0,0,0,1534,
scooby_state_4668af|22|1 1531,0,0,0,1,0,0,2,0,0,0,0,0,0,0,1534,
scooby_state_4668a0|41|1 1530,0,1,0,0,0,1,0,0,1,0,0,0,0,1,1534,
scooby_state_4668a0|26|1 1530,0,1,0,1,0,1,0,0,0,1,0,0,0,0,1534,
scooby_state_4668af|56|1 1532,0,1,0,0,1,0,0,0,0,0,0,0,0,0,1534,
scooby_state_4668a0|56|1 1528,1,1,0,0,0,0,0,2,0,1,0,1,0,0,1534,
scooby_state_4668af|37|1 1533,0,1,0,0,0,0,0,0,0,0,0,0,0,0,1534,
scooby_state_4668af|52|1 1533,1,0,0,0,0,0,0,0,0,0,0,0,0,0,1534,
scooby_state_4668af|26|1 1533,0,0,0,0,0,0,0,0,0,0,1,0,0,0,1534,
scooby_state_4668af|41|1 1532,1,0,0,1,0,0,0,0,0,0,0,0,0,0,1534,
scooby_state_4668a0|49|1 1529,2,0,0,1,0,0,0,0,0,0,0,0,0,0,1532,
scooby_state_4668a0|29|1 1530,0,0,0,0,0,0,0,0,0,1,0,0,1,0,1532,
scooby_state_4668af|4|1 1530,0,1,0,0,0,0,0,0,0,0,0,0,1,0,1532,
scooby_state_4668af|3|1 1531,0,0,0,0,0,0,0,0,1,0,0,0,0,0,1532,
scooby_state_4668af|7|1 1529,0,1,0,0,0,0,0,0,0,0,0,0,1,1,1532,
scooby_state_4668a0|3|1 1529,0,0,0,0,0,0,0,0,1,1,0,0,1,0,1532,
scooby_state_4668af|29|1 1530,1,0,0,0,0,0,0,0,0,0,0,0,0,1,1532,
scooby_state_4668a0|30|1 1530,1,0,0,0,0,0,0,0,0,0,0,0,1,0,1532,
scooby_state_4668af|63|1 1529,0,0,0,0,1,0,1,0,0,0,0,0,1,0,1532,
scooby_state_4668a0|4|1 1532,0,0,0,0,0,0,0,0,0,0,0,0,0,0,1532,
scooby_state_4668af|59|1 1529,0,1,0,0,1,0,0,0,0,0,1,0,0,0,1532,
scooby_state_4668af|49|1 1529,0,1,0,0,1,0,1,0,0,0,0,0,0,0,1532,
scooby_state_4668a0|59|1 1529,0,0,0,0,0,0,0,0,1,0,1,1,0,0,1532,
scooby_state_4668a0|37|1 1529,1,1,0,0,0,0,0,0,0,0,0,1,0,0,1532,
scooby_state_4668af|48|1 1531,0,0,0,0,0,1,0,0,0,0,0,0,0,0,1532,
scooby_state_4668af|30|1 1531,0,0,0,0,0,0,0,0,0,0,0,0,0,1,1532,
scooby_state_4668af|14|1 1531,0,0,0,0,1,0,0,0,0,0,0,0,0,0,1532,
scooby_state_4668a0|48|1 1529,1,0,0,0,1,0,0,1,0,0,0,0,0,0,1532,
scooby_state_4668a0|45|1 1530,0,0,0,0,0,0,0,1,0,0,0,0,0,1,1532,
scooby_state_4668a0|60|1 1531,0,0,0,0,0,0,0,1,0,0,0,0,0,0,1532,
scooby_state_4668af|34|1 1527,0,0,0,1,0,0,0,0,1,0,1,0,1,1,1532,
scooby_state_4668a0|44|1 1529,1,0,0,0,0,1,1,0,0,0,0,0,0,0,1532,
scooby_state_4668a0|34|1 1527,0,0,1,1,0,0,1,1,1,0,0,0,0,0,1532,
scooby_state_4668a0|19|1 1529,0,0,0,0,0,0,0,1,0,0,0,1,1,0,1532,
scooby_state_4668a0|7|1 1530,0,0,0,0,0,0,0,0,0,0,1,0,1,0,1532,
scooby_state_4668a0|52|1 1529,0,0,0,1,0,0,2,0,0,0,0,0,0,0,1532,
scooby_state_4668af|15|1 1530,0,0,0,0,0,0,1,0,0,0,0,0,0,1,1532,
scooby_state_4668a0|63|1 1528,0,0,2,1,0,0,0,0,0,1,0,0,0,0,1532,
scooby_state_4668af|44|1 1527,1,0,0,0,0,0,0,0,2,0,0,1,0,1,1532,
scooby_state_4668af|19|1 1528,0,1,0,0,1,1,0,0,0,0,1,0,0,0,1532,
scooby_state_4668a0|15|1 1527,0,0,0,1,0,1,0,0,0,0,1,1,1,0,1532,
scooby_state_4668a0|14|1 1530,0,0,0,0,0,0,1,0,0,0,0,0,0,1,1532,
scooby_state_4668af|45|1 1530,0,0,1,0,0,0,0,0,0,0,1,0,0,0,1532,
scooby_state_4668af|60|1 1531,0,0,0,0,0,0,0,0,0,1,0,0,0,0,1532,
scooby_state_4668a0|11|1 1529,1,0,0,0,0,0,0,0,0,1,1,0,0,0,1532,
scooby_state_4668af|11|1 1530,0,0,0,0,0,0,1,1,0,0,0,0,0,0,1532,
scooby_state_4668a0|51|1 1526,0,0,0,0,1,0,2,0,1,0,0,0,0,1,1531,
scooby_state_4668af|10|1 1528,0,0,0,0,0,0,0,0,0,2,0,0,1,0,1531,
scooby_state_4668a0|10|1 1528,0,0,0,0,0,0,0,0,0,1,1,0,0,1,1531,
scooby_state_4668a0|23|1 1529,0,0,0,0,0,0,0,0,0,0,1,0,0,0,1530,
scooby_state_4668af|6|1 1528,0,0,0,1,0,0,0,0,0,0,0,1,0,0,1530,
scooby_state_4668a0|31|1 1525,1,0,0,0,0,0,0,1,1,1,0,0,1,0,1530,
scooby_state_4668a0|17|1 1530,0,0,0,0,0,0,0,0,0,0,0,0,0,0,1530,
scooby_state_4668af|23|1 1526,1,1,0,0,0,0,0,0,0,0,1,1,0,0,1530,
scooby_state_4668af|17|1 1525,0,0,0,0,0,0,0,1,0,1,2,0,0,1,1530,
scooby_state_4668a0|18|1 1528,0,0,0,0,0,0,1,0,0,0,0,0,1,0,1530,
scooby_state_4668af|18|1 1528,0,0,0,0,0,0,0,0,1,0,0,1,0,0,1530,
scooby_state_4668a0|27|1 1528,0,0,0,0,1,0,0,1,0,0,0,0,0,0,1530,
scooby_state_4668a0|38|1 1526,0,1,0,0,1,0,0,0,0,0,1,1,0,0,1530,
scooby_state_4668af|27|1 1528,0,0,0,0,1,0,0,0,0,0,1,0,0,0,1530,
scooby_state_4668a0|46|1 1528,0,0,0,0,0,0,0,1,0,0,1,0,0,0,1530,
scooby_state_4668af|46|1 1525,0,0,0,2,0,0,1,0,0,0,0,1,0,1,1530,
scooby_state_4668a0|36|1 1528,0,0,0,0,1,1,0,0,0,0,0,0,0,0,1530,
scooby_state_4668af|2|1 1528,0,0,0,0,0,0,0,0,0,0,0,0,2,0,1530,
scooby_state_4668af|42|1 1527,0,0,0,0,0,1,0,0,0,1,0,0,0,1,1530,
scooby_state_4668af|38|1 1525,1,0,0,0,1,0,1,1,0,0,1,0,0,0,1530,
scooby_state_4668af|31|1 1526,1,0,0,0,0,0,0,0,0,0,1,0,2,0,1530,
scooby_state_4668af|33|1 1528,0,0,1,0,1,0,0,0,0,0,0,0,0,0,1530,
scooby_state_4668a0|33|1 1529,0,0,0,0,0,1,0,0,0,0,0,0,0,0,1530,
scooby_state_4668af|8|1 1529,0,0,0,0,0,0,0,0,1,0,0,0,0,0,1530,
scooby_state_4668a0|42|1 1528,0,0,0,1,1,0,0,0,0,0,0,0,0,0,1530,
scooby_state_4668a0|8|1 1521,0,2,0,2,1,0,1,0,1,0,1,1,0,0,1530,
scooby_state_4668a0|6|1 1529,0,0,0,0,0,0,0,0,0,0,0,0,1,0,1530,
scooby_state_4668a0|12|1 1526,0,0,1,0,0,0,1,1,1,0,0,0,0,0,1530,
scooby_state_4668a0|2|1 1527,0,0,0,0,0,0,1,0,2,0,0,0,0,0,1530,
scooby_state_4668af|61|1 1530,0,0,0,0,0,0,0,0,0,0,0,0,0,0,1530,
scooby_state_4668a0|61|1 1528,1,0,0,0,0,0,0,0,0,0,0,1,0,0,1530,
scooby_state_4668a0|57|1 1529,1,0,0,0,0,0,0,0,0,0,0,0,0,0,1530,
scooby_state_4668af|12|1 1529,0,0,0,0,0,0,0,0,0,0,0,1,0,0,1530,
scooby_state_4668af|57|1 1527,1,0,0,0,0,1,0,0,0,1,0,0,0,0,1530,
scooby_state_4668af|53|1 1527,1,0,1,0,0,0,1,0,0,0,0,0,0,0,1530,
scooby_state_4668a0|53|1 1528,0,0,0,1,0,0,0,0,0,0,0,1,0,0,1530,
scooby_state_4668af|5|1 1528,0,0,0,0,0,0,0,0,0,0,0,0,0,0,1528,
scooby_state_4668a0|20|1 1524,0,0,0,0,0,2,0,0,0,1,0,1,0,0,1528,
scooby_state_4668af|25|1 1525,1,0,1,0,0,0,0,0,0,0,1,0,0,0,1528,
scooby_state_4668af|55|1 1523,0,1,0,0,0,0,2,1,1,0,0,0,0,0,1528,
scooby_state_4668af|21|1 1526,0,0,0,0,0,0,0,1,0,0,1,0,0,0,1528,
scooby_state_4668a0|5|1 1523,0,1,0,0,1,1,0,0,1,0,0,0,1,0,1528,
scooby_state_4668af|35|1 1524,1,0,0,0,0,0,0,0,1,0,0,1,0,1,1528,
scooby_state_4668af|20|1 1522,1,0,0,1,1,0,0,0,0,1,1,0,0,1,1528,
scooby_state_4668a0|40|1 1526,0,0,0,0,0,0,1,0,1,0,0,0,0,0,1528,
scooby_state_4668a0|32|1 1526,0,0,0,0,0,1,0,0,0,0,1,0,0,0,1528,
scooby_state_4668a0|25|1 1525,0,0,0,0,0,0,0,0,1,1,1,0,0,0,1528,
scooby_state_4668af|24|1 1527,0,0,0,0,0,1,0,0,0,0,0,0,0,0,1528,
scooby_state_4668af|16|1 1524,0,0,0,2,0,1,0,0,1,0,0,0,0,0,1528,
scooby_state_4668a0|35|1 1524,0,1,1,0,0,0,0,0,1,0,0,1,0,0,1528,
scooby_state_4668af|51|1 1524,1,0,0,2,0,0,0,0,0,0,0,0,0,1,1528,
scooby_state_4668af|32|1 1526,0,0,0,0,0,1,0,0,0,0,1,0,0,0,1528,
scooby_state_4668a0|24|1 1522,0,0,1,2,1,0,0,0,0,1,0,0,1,0,1528,
scooby_state_4668af|36|1 1527,0,0,1,0,0,0,0,0,0,0,0,0,0,0,1528,
scooby_state_4668a0|16|1 1525,2,0,0,0,1,0,0,0,0,0,0,0,0,0,1528,
scooby_state_4668af|40|1 1527,0,0,1,0,0,0,0,0,0,0,0,0,0,0,1528,
scooby_state_4668a0|55|1 1526,0,0,0,1,1,0,0,0,0,0,0,0,0,0,1528,
scooby_state_4668a0|39|1 1524,0,1,0,2,0,0,0,0,1,0,0,0,0,0,1528,
scooby_state_4668af|39|1 1525,0,0,0,1,1,0,0,0,0,0,0,0,0,1,1528,
scooby_state_4668af|54|1 1526,0,0,0,0,0,0,0,0,0,0,0,1,1,0,1528,
scooby_state_4668a0|21|1 1523,0,0,0,0,1,0,1,0,1,0,1,1,0,0,1528,
scooby_state_4668af|50|1 1525,1,0,0,0,0,0,0,2,0,0,0,0,0,0,1528,
scooby_state_4668a0|54|1 1525,0,0,0,1,0,0,1,1,0,0,0,0,0,0,1528,
scooby_state_4668a0|50|1 1525,0,0,0,0,1,0,1,0,0,0,0,0,0,0,1527,
scooby_state_4668a0|9|1 1526,0,1,0,0,0,0,0,0,0,0,0,0,0,0,1527,
scooby_state_4668af|9|1 1524,0,2,0,0,0,0,0,0,0,0,1,0,0,0,1527,
scooby_state_4668a0|47|1 1524,0,0,0,0,0,0,0,0,0,0,1,0,0,1,1526,
scooby_state_4668af|28|1 1522,0,0,0,1,0,1,0,0,0,0,0,1,0,1,1526,
scooby_state_4668af|13|1 1523,0,1,0,0,0,1,0,0,0,0,0,1,0,0,1526,
scooby_state_4668af|62|1 1525,0,0,0,0,0,0,0,1,0,0,0,0,0,0,1526,
scooby_state_4668af|47|1 1524,0,0,0,0,0,0,0,0,1,0,0,0,0,1,1526,
scooby_state_4668a0|43|1 1524,1,0,0,0,0,1,0,0,0,0,0,0,0,0,1526,
scooby_state_4668a0|28|1 1524,0,0,1,0,0,0,1,0,0,0,0,0,0,0,1526,
scooby_state_4668af|43|1 1525,0,0,0,0,0,0,0,0,0,0,1,0,0,0,1526,
scooby_state_4668a0|13|1 1523,0,1,0,1,0,0,0,0,0,1,0,0,0,0,1526,
scooby_state_4668a0|62|1 1522,0,0,0,0,0,0,1,0,1,0,0,1,0,1,1526,
scooby_state_4668a0|58|1 1522,1,1,0,0,0,0,0,1,0,1,0,0,0,0,1526,
scooby_state_4668af|58|1 1523,0,0,0,1,0,0,0,0,1,0,0,0,1,0,1526,
scooby_state_466986|57|1 1480,1,0,0,0,0,0,1,0,1,0,0,1,0,0,1484,
scooby_state_466986|43|1 1481,0,0,0,1,0,0,0,1,0,0,0,0,1,0,1484,
scooby_state_4669dd|54|1 1481,1,0,0,2,0,0,0,0,0,0,0,0,0,0,1484,
scooby_state_466986|41|1 1480,0,0,1,0,0,0,0,0,1,0,0,0,2,0,1484,
scooby_state_4669dd|62|1 1482,0,1,0,0,0,0,0,0,0,0,1,0,0,0,1484,
scooby_state_4669dd|53|1 1482,0,0,0,0,0,0,0,0,0,0,0,1,0,1,1484,
scooby_state_4669dd|52|1 1482,0,0,0,0,0,0,0,0,2,0,0,0,0,0,1484,
scooby_state_4669dd|7|1 1482,0,0,0,0,1,0,0,0,0,1,0,0,0,0,1484,
scooby_state_466986|40|1 1481,1,0,0,0,1,0,0,0,1,0,0,0,0,0,1484,
scooby_state_466986|39|1 1479,0,0,2,1,0,0,0,0,1,0,0,0,1,0,1484,
scooby_state_4669dd|50|1 1481,0,0,0,0,1,0,1,0,0,0,1,0,0,0,1484,
scooby_state_4669dd|45|1 1483,0,1,0,0,0,0,0,0,0,0,0,0,0,0,1484,
scooby_state_466986|36|1 1480,0,1,0,0,0,0,2,0,0,0,0,0,0,1,1484,
scooby_state_4669dd|9|1 1478,0,0,0,1,2,1,0,0,0,0,0,0,0,2,1484,
scooby_state_466986|35|1 1484,0,0,0,0,0,0,0,0,0,0,0,0,0,0,1484,
scooby_state_4669dd|47|1 1482,0,0,0,1,0,0,1,0,0,0,0,0,0,0,1484,
scooby_state_4669dd|57|1 1482,0,0,0,0,0,0,0,0,0,0,0,1,0,1,1484,
scooby_state_466986|34|1 1481,0,0,1,0,0,0,0,0,0,1,0,0,0,1,1484,
scooby_state_4669dd|51|1 1477,1,0,1,0,1,1,0,1,0,0,1,0,0,1,1484,
scooby_state_4669dd|46|1 1481,0,0,0,0,1,0,0,0,0,0,1,1,0,0,1484,
scooby_state_466986|32|1 1481,0,0,0,0,1,0,0,0,0,1,1,0,0,0,1484,
scooby_state_4669dd|0|0 1477,0,1,0,0,0,0,1,2,0,0,0,1,1,1,1484,
scooby_state_4669dd|5|1 1480,0,0,0,0,0,0,1,1,1,0,0,0,1,0,1484,
scooby_state_4669dd|4|1 1482,0,0,0,0,0,0,0,1,0,0,0,0,0,1,1484,
scooby_state_466986|59|1 1482,0,0,0,0,0,0,0,1,0,0,1,0,0,0,1484,
scooby_state_4669dd|8|1 1481,0,0,1,0,0,0,1,1,0,0,0,0,0,0,1484,
scooby_state_466986|60|1 1482,0,0,1,0,0,0,0,0,0,0,1,0,0,0,1484,
scooby_state_466986|61|1 1479,0,2,0,0,0,0,0,1,0,1,0,0,1,0,1484,
scooby_state_466986|37|1 1482,0,0,0,0,0,1,0,0,1,0,0,0,0,0,1484,
scooby_state_466986|55|1 1481,0,0,1,1,0,1,0,0,0,0,0,0,0,0,1484,
scooby_state_4669dd|2|1 1484,0,0,0,0,0,0,0,0,0,0,0,0,0,0,1484,
scooby_state_4669dd|1|1 1479,0,0,0,0,0,1,2,0,0,2,0,0,0,0,1484,
scooby_state_466986|53|1 1483,1,0,0,0,0,0,0,0,0,0,0,0,0,0,1484,
scooby_state_4669dd|55|1 1481,0,0,0,0,0,0,1,1,1,0,0,0,0,0,1484,
scooby_state_466986|51|1 1479,1,0,1,0,0,0,0,1,0,1,1,0,0,0,1484,
scooby_state_4669dd|63|1 1482,0,0,0,0,0,0,1,0,0,1,0,0,0,0,1484,
scooby_state_466986|50|1 1479,0,1,1,1,0,0,0,0,1,0,0,0,0,1,1484,
scooby_state_4669dd|61|1 1483,0,0,0,0,0,0,0,0,0,0,0,0,1,0,1484,
scooby_state_466986|48|1 1479,0,0,1,0,0,1,1,0,1,0,0,0,1,0,1484,
scooby_state_466986|47|1 1479,1,0,0,0,0,0,0,1,0,0,0,1,1,1,1484,
scooby_state_4669dd|59|1 1483,0,0,0,1,0,0,0,0,0,0,0,0,0,0,1484,
scooby_state_466986|58|1 1483,0,0,1,0,0,0,0,0,0,0,0,0,0,0,1484,
scooby_state_4669dd|58|1 1482,0,0,0,1,0,0,0,0,0,0,0,0,0,1,1484,
scooby_state_466986|45|1 1481,0,1,0,0,0,0,0,1,1,0,0,0,0,0,1484,
scooby_state_4669dd|10|1 1480,0,1,0,0,0,0,1,1,0,0,0,1,0,0,1484,
scooby_state_4669dd|6|1 1480,0,0,1,1,0,0,0,2,0,0,0,0,0,0,1484,
scooby_state_4669dd|49|1 1479,0,2,1,0,0,0,0,1,0,0,0,1,0,0,1484,
scooby_state_466986|42|1 1481,1,1,0,0,0,0,0,1,0,0,0,0,0,0,1484,
scooby_state_4669dd|3|1 1481,0,0,0,0,0,0,0,0,0,0,0,2,0,1,1484,
scooby_state_466986|56|1 1482,0,0,0,0,1,0,1,0,0,0,0,0,0,0,1484,
scooby_state_4669dd|56|1 1479,2,0,1,0,0,0,0,0,1,0,0,0,1,0,1484,
scooby_state_466986|52|1 1483,0,0,0,0,0,1,0,0,0,0,0,0,0,0,1484,
scooby_state_4669dd|60|1 1480,0,1,0,0,0,0,1,0,0,0,0,1,1,0,1484,
scooby_state_466986|38|1 1482,0,0,1,0,0,0,1,0,0,0,0,0,0,0,1484,
scooby_state_4669dd|44|1 1481,0,1,0,0,0,0,1,0,1,0,0,0,0,0,1484,
scooby_state_466986|44|1 1478,1,0,2,0,0,1,1,0,0,0,0,0,1,0,1484,
scooby_state_466986|31|1 1478,2,0,0,0,1,0,0,0,1,1,0,1,0,0,1484,
scooby_state_466986|54|1 1482,0,0,0,0,0,1,0,1,0,0,0,0,0,0,1484,
scooby_state_4669dd|48|1 1483,0,0,0,0,1,0,0,0,0,0,0,0,0,0,1484,
scooby_state_4669dd|27|1 1482,0,0,0,0,1,0,0,0,0,0,0,0,0,0,1483,
scooby_state_4669dd|19|1 1483,0,0,0,0,0,0,0,0,0,0,0,0,0,0,1483,
scooby_state_466986|14|1 1483,0,0,0,0,0,0,0,0,0,0,0,0,0,0,1483,
scooby_state_4669dd|26|1 1483,0,0,0,0,0,0,0,0,0,0,0,0,0,0,1483,
scooby_state_466986|13|1 1481,1,0,0,0,0,0,0,0,0,0,0,0,0,1,1483,
scooby_state_466986|17|1 1477,0,0,1,0,0,0,2,1,0,0,0,0,1,1,1483,
scooby_state_4669dd|25|1 1482,0,0,1,0,0,0,0,0,0,0,0,0,0,0,1483,
scooby_state_4669dd|24|1 1480,0,0,0,0,1,2,0,0,0,0,0,0,0,0,1483,
scooby_state_466986|10|1 1482,0,0,0,0,0,0,0,0,0,1,0,0,0,0,1483,
scooby_state_4669dd|22|1 1483,0,0,0,0,0,0,0,0,0,0,0,0,0,0,1483,
scooby_state_4669dd|21|1 1483,0,0,0,0,0,0,0,0,0,0,0,0,0,0,1483,
scooby_state_466986|8|1 1481,0,0,0,0,1,1,0,0,0,0,0,0,0,0,1483,
scooby_state_466986|1|1 1479,1,1,0,0,0,0,0,0,0,1,0,0,0,1,1483,
scooby_state_466986|18|1 1480,0,1,0,0,0,0,0,0,0,0,0,0,2,0,1483,
scooby_state_4669dd|35|1 1480,0,0,0,0,0,0,0,1,1,0,0,0,0,1,1483,
scooby_state_466986|23|1 1478,2,1,1,0,0,0,1,0,0,0,0,0,0,0,1483,
scooby_state_466986|30|1 1478,0,0,0,0,0,1,0,0,0,0,1,0,2,1,1483,
scooby_state_4669dd|42|1 1479,0,1,0,0,0,0,1,0,0,0,1,0,0,1,1483,
scooby_state_4669dd|41|1 1483,0,0,0,0,0,0,0,0,0,0,0,0,0,0,1483,
scooby_state_466986|28|1 1481,0,0,0,0,1,0,1,0,0,0,0,0,0,0,1483,
scooby_state_4669dd|40|1 1482,0,0,0,0,0,0,0,0,0,0,0,1,0,0,1483,
scooby_state_4669dd|39|1 1483,0,0,0,0,0,0,0,0,0,0,0,0,0,0,1483,
scooby_state_466986|27|1 1479,0,0,1,2,0,0,0,0,0,1,0,0,0,0,1483,
scooby_state_4669dd|38|1 1482,0,0,0,0,0,0,0,0,0,1,0,0,0,0,1483,
scooby_state_466986|15|1 1481,1,1,0,0,0,0,0,0,0,0,0,0,0,0,1483,
scooby_state_4669dd|32|1 1480,0,0,0,0,1,0,0,0,2,0,0,0,0,0,1483,
scooby_state_4669dd|34|1 1482,0,0,0,0,0,0,1,0,0,0,0,0,0,0,1483,
scooby_state_4669dd|33|1 1480,0,0,1,0,0,0,0,0,0,0,0,1,0,1,1483,
scooby_state_466986|21|1 1483,0,0,0,0,0,0,0,0,0,0,0,0,0,0,1483,
scooby_state_466986|20|1 1481,0,0,0,0,0,0,0,0,0,0,1,0,1,0,1483,
scooby_state_4669dd|31|1 1480,0,0,0,0,1,0,0,0,0,0,1,0,1,0,1483,
scooby_state_4669dd|29|1 1479,1,0,0,0,1,1,0,0,0,0,0,1,0,0,1483,
scooby_state_4669dd|28|1 1482,0,0,1,0,0,0,0,0,0,0,0,0,0,0,1483,
scooby_state_466986|19|1 1483,0,0,0,0,0,0,0,0,0,0,0,0,0,0,1483,
scooby_state_466986|22|1 1481,0,0,0,0,0,0,1,0,0,0,0,0,1,0,1483,
scooby_state_4669dd|30|1 1481,0,0,0,0,0,0,0,2,0,0,0,0,0,0,1483,
scooby_state_466986|9|1 1480,0,2,0,0,0,0,0,0,0,1,0,0,0,0,1483,
scooby_state_466986|0|0 1480,0,0,0,0,0,0,1,0,0,0,0,1,1,0,1483,
scooby_state_4669dd|36|1 1480,0,0,0,0,0,0,0,0,0,1,0,0,0,2,1483,
scooby_state_466986|29|1 1482,0,0,0,0,0,0,0,0,1,0,0,0,0,0,1483,
scooby_state_4669dd|17|1 1481,0,0,0,0,0,0,0,0,1,0,1,0,0,0,1483,
scooby_state_4669dd|23|1 1480,1,1,0,0,0,0,0,0,0,0,0,0,0,1,1483,
scooby_state_466986|11|1 1478,0,0,0,1,1,0,0,1,2,0,0,0,0,0,1483,
scooby_state_466986|5|1 1480,1,0,0,1,0,0,1,0,0,0,0,0,0,0,1483,
scooby_state_466986|49|1 1480,0,2,0,0,0,0,0,0,0,1,0,0,0,0,1483,
scooby_state_466986|33|1 1479,0,0,1,0,0,0,1,0,1,1,0,0,0,0,1483,
scooby_state_466986|16|1 1481,0,0,0,0,0,0,1,0,0,0,0,0,0,1,1483,
scooby_state_466986|4|1 1482,0,0,0,0,0,0,0,0,0,0,0,1,0,0,1483,
scooby_state_466986|26|1 1483,0,0,0,0,0,0,0,0,0,0,0,0,0,0,1483,
scooby_state_466986|62|1 1481,0,0,0,1,0,1,0,0,0,0,0,0,0,0,1483,
scooby_state_466986|46|1 1481,0,1,0,0,0,0,0,0,0,0,0,1,0,0,1483,
scooby_state_4669dd|20|1 1478,1,0,1,0,0,0,0,1,0,1,1,0,0,0,1483,
scooby_state_4669dd|11|1 1481,0,0,0,0,0,0,1,0,1,0,0,0,0,0,1483,
scooby_state_466986|63|1 1479,0,0,0,0,0,1,0,0,0,0,0,1,0,2,1483,
scooby_state_4669dd|12|1 1482,0,0,0,0,0,0,0,0,0,1,0,0,0,0,1483,
scooby_state_4669dd|13|1 1479,0,1,0,1,0,1,0,0,0,0,0,0,0,1,1483,
scooby_state_4669dd|14|1 1481,0,0,0,0,0,0,0,0,0,0,1,1,0,0,1483,
scooby_state_466986|2|1 1480,0,0,0,1,1,0,0,0,0,0,1,0,0,0,1483,
scooby_state_4669dd|15|1 1481,0,1,0,0,0,0,0,0,1,0,0,0,0,0,1483,
scooby_state_4669dd|16|1 1481,0,1,0,0,0,0,0,0,0,0,0,0,0,1,1483,
scooby_state_4669dd|18|1 1480,0,0,0,0,0,1,0,0,1,0,0,0,0,1,1483,
scooby_state_466986|7|1 1483,0,0,0,0,0,0,0,0,0,0,0,0,0,0,1483,
scooby_state_4669dd|37|1 1480,0,0,0,0,0,0,0,1,0,0,2,0,0,0,1483,
scooby_state_466986|3|1 1482,1,0,0,0,0,0,0,0,0,0,0,0,0,0,1483,
scooby_state_466986|24|1 1481,1,0,0,0,0,0,0,0,1,0,0,0,0,0,1483,
scooby_state_4669dd|43|1 1479,0,0,1,1,0,0,0,1,0,0,1,0,0,0,1483,
scooby_state_466986|25|1 1481,0,0,0,0,0,0,0,0,0,0,0,0,0,2,1483,
scooby_state_466986|6|1 1479,0,0,0,1,0,0,0,0,0,0,1,0,1,0,1482,
scooby_state_466986|12|1 1478,0,0,0,0,0,1,0,1,1,0,0,1,0,0,1482,
scooby_state_466b65|0|0 1121,0,0,0,1,0,0,0,1,0,0,1,1,0,0,1125,
scooby_state_466bbe|0|0 1123,0,0,0,0,0,1,0,0,0,0,0,0,0,0,1124,
scooby_state_466b77|0|0 1124,0,0,0,0,0,0,0,0,0,0,0,0,0,0,1124,
scooby_state_466ba2|0|0 1111,0,0,0,0,0,0,1,0,0,0,0,0,0,0,1112,
scooby_state_466b65|63|1 1108,0,0,0,0,0,0,0,0,0,0,0,0,0,0,1108,
scooby_state_466b77|11|1 1106,1,0,0,0,0,0,0,0,0,0,1,0,0,0,1108,
scooby_state_466bf1|11|1 1106,0,0,0,0,0,0,0,0,0,1,1,0,0,0,1108,
scooby_state_466bdc|0|0 1106,0,0,1,1,0,0,0,0,0,0,0,0,0,0,1108,
scooby_state_466bdc|9|1 1106,0,0,0,1,0,0,0,0,0,1,0,0,0,0,1108,
scooby_state_466b65|59|1 1105,0,0,1,0,1,1,0,0,0,0,0,0,0,0,1108,
scooby_state_466b77|14|1 1106,1,0,0,0,0,0,0,0,0,0,0,1,0,0,1108,
scooby_state_466bbe|16|1 1106,1,1,0,0,0,0,0,0,0,0,0,0,0,0,1108,
scooby_state_466bf1|15|1 1107,0,0,1,0,0,0,0,0,0,0,0,0,0,0,1108,
scooby_state_466bf1|8|1 1106,1,0,0,0,0,0,0,0,0,0,0,0,1,0,1108,
scooby_state_466bdc|10|1 1105,0,0,0,0,1,0,0,1,1,0,0,0,0,0,1108,
scooby_state_466b77|17|1 1102,0,0,1,2,0,1,0,1,0,0,0,1,0,0,1108,
scooby_state_466bf1|13|1 1108,0,0,0,0,0,0,0,0,0,0,0,0,0,0,1108,
scooby_state_466bbe|18|1 1107,0,0,0,0,0,0,1,0,0,0,0,0,0,0,1108,
scooby_state_466bbe|13|1 1105,0,0,0,1,0,1,0,0,0,0,0,1,0,0,1108,
scooby_state_466bdc|5|1 1108,0,0,0,0,0,0,0,0,0,0,0,0,0,0,1108,
scooby_state_466b65|2|1 1107,0,0,0,0,1,0,0,0,0,0,0,0,0,0,1108,
scooby_state_466bdc|3|1 1107,1,0,0,0,0,0,0,0,0,0,0,0,0,0,1108,
scooby_state_466b65|1|1 1104,1,1,0,0,0,0,0,0,1,0,1,0,0,0,1108,
scooby_state_466ba2|14|1 1107,0,0,1,0,0,0,0,0,0,0,0,0,0,0,1108,
scooby_state_466b77|12|1 1107,0,0,0,0,0,0,0,0,0,0,0,1,0,0,1108,
scooby_state_466bdc|8|1 1108,0,0,0,0,0,0,0,0,0,0,0,0,0,0,1108,
scooby_state_466bdc|4|1 1104,0,0,0,2,0,0,0,0,1,0,0,0,1,0,1108,
scooby_state_466ba2|11|1 1106,0,0,0,0,0,1,0,0,0,0,1,0,0,0,1108,
scooby_state_466b77|15|1 1107,0,0,0,0,0,1,0,0,0,0,0,0,0,0,1108,
scooby_state_466b65|61|1 1108,0,0,0,0,0,0,0,0,0,0,0,0,0,0,1108,
scooby_state_466bf1|7|1 1106,0,0,0,0,0,1,0,0,0,0,0,1,0,0,1108,
scooby_state_466bdc|2|1 1106,0,0,0,0,0,0,0,0,1,0,0,0,1,0,1108,
scooby_state_466bbe|12|1 1104,1,0,0,0,0,0,0,1,0,1,0,1,0,0,1108,
scooby_state_466ba2|12|1 1102,0,0,0,1,0,0,0,1,0,0,1,1,1,1,1108,
scooby_state_466bdc|1|1 1107,0,0,0,0,0,0,1,0,0,0,0,0,0,0,1108,
scooby_state_466b65|57|1 1106,0,1,0,0,0,0,0,0,0,0,0,1,0,0,1108,
scooby_state_466bdc|7|1 1105,0,0,0,0,1,0,1,0,1,0,0,0,0,0,1108,
scooby_state_466b77|19|1 1106,0,0,1,0,0,0,0,0,0,0,0,1,0,0,1108,
scooby_state_466bbe|14|1 1107,0,0,0,0,0,1,0,0,0,0,0,0,0,0,1108,
scooby_state_466bf1|9|1 1107,0,1,0,0,0,0,0,0,0,0,0,0,0,0,1108,
scooby_state_466bbe|17|1 1104,0,0,0,0,0,2,0,0,1,0,1,0,0,0,1108,
scooby_state_466ba2|17|1 1106,1,0,0,0,0,0,0,0,0,0,1,0,0,0,1108,
scooby_state_466b65|60|1 1106,0,0,0,0,0,0,0,0,1,0,0,1,0,0,1108,
scooby_state_466bf1|5|1 1104,0,1,0,1,0,0,0,1,1,0,0,0,0,0,1108,
scooby_state_466bf1|12|1 1106,0,0,0,1,0,1,0,0,0,0,0,0,0,0,1108,
scooby_state_466ba2|16|1 1108,0,0,0,0,0,0,0,0,0,0,0,0,0,0,1108,
scooby_state_466ba2|18|1 1106,1,0,0,0,0,1,0,0,0,0,0,0,0,0,1108,
scooby_state_466bbe|19|1 1107,0,0,0,0,0,0,0,0,0,0,1,0,0,0,1108,
scooby_state_466ba2|15|1 1103,1,0,0,1,0,0,1,1,0,0,0,0,0,1,1108,
scooby_state_466bbe|10|1 1105,0,0,1,0,0,1,0,0,0,0,0,0,0,1,1108,
scooby_state_466b65|56|1 1108,0,0,0,0,0,0,0,0,0,0,0,0,0,0,1108,
scooby_state_466b77|13|1 1108,0,0,0,0,0,0,0,0,0,0,0,0,0,0,1108,
scooby_state_466b77|20|1 1107,0,0,0,0,0,0,0,0,0,0,1,0,0,0,1108,
scooby_state_466bbe|20|1 1108,0,0,0,0,0,0,0,0,0,0,0,0,0,0,1108,
scooby_state_466ba2|19|1 1105,0,0,0,1,1,1,0,0,0,0,0,0,0,0,1108,
scooby_state_466b77|18|1 1105,0,1,1,0,0,0,0,0,1,0,0,0,0,0,1108,
scooby_state_466bdc|6|1 1108,0,0,0,0,0,0,0,0,0,0,0,0,0,0,1108,
scooby_state_466ba2|20|1 1107,0,0,1,0,0,0,0,0,0,0,0,0,0,0,1108,
scooby_state_466bf1|10|1 1108,0,0,0,0,0,0,0,0,0,0,0,0,0,0,1108,
scooby_state_466bbe|15|1 1107,0,1,0,0,0,0,0,0,0,0,0,0,0,0,1108,
scooby_state_466b77|16|1 1107,0,0,0,0,0,0,0,0,0,0,1,0,0,0,1108,
scooby_state_466bbe|11|1 1108,0,0,0,0,0,0,0,0,0,0,0,0,0,0,1108,
scooby_state_466ba2|10|1 1104,1,0,0,0,1,1,0,0,0,0,0,1,0,0,1108,
scooby_state_466b77|10|1 1107,0,0,0,0,1,0,0,0,0,0,0,0,0,0,1108,
scooby_state_466bf1|6|1 1105,1,0,0,0,0,0,0,0,1,0,0,1,0,0,1108,
scooby_state_466ba2|13|1 1107,0,0,0,0,0,0,0,0,0,0,0,1,0,0,1108,
scooby_state_466b65|62|1 1106,0,0,0,1,0,0,0,1,0,0,0,0,0,0,1108,
scooby_state_466bf1|14|1 1107,0,0,0,0,0,0,0,0,0,0,0,1,0,0,1108,
scooby_state_466b65|58|1 1103,2,0,0,0,0,0,0,0,0,1,1,0,1,0,1108,
scooby_state_466b77|8|1 1107,0,0,0,0,0,0,0,0,0,0,0,0,0,0,1107,
scooby_state_466bdc|43|1 1105,0,1,0,0,0,0,0,0,0,1,0,0,0,0,1107,
scooby_state_466b65|46|1 1105,0,0,1,0,0,0,0,0,0,0,0,0,1,0,1107,
scooby_state_466bf1|60|1 1106,0,0,0,0,0,0,1,0,0,0,0,0,0,0,1107,
scooby_state_466bdc|14|1 1105,0,0,0,1,0,0,0,0,0,0,0,0,0,1,1107,
scooby_state_466b77|7|1 1107,0,0,0,0,0,0,0,0,0,0,0,0,0,0,1107,
scooby_state_466b77|46|1 1105,0,0,0,0,1,0,0,0,1,0,0,0,0,0,1107,
scooby_state_466b65|5|1 1101,1,0,0,3,0,2,0,0,0,0,0,0,0,0,1107,
scooby_state_466bdc|15|1 1104,1,0,0,0,0,0,0,0,1,0,1,0,0,0,1107,
scooby_state_466b65|41|1 1106,0,0,0,0,0,0,0,1,0,0,0,0,0,0,1107,
scooby_state_466b65|38|1 1105,0,0,0,0,0,0,0,0,0,0,0,0,1,1,1107,
scooby_state_466bbe|44|1 1107,0,0,0,0,0,0,0,0,0,0,0,0,0,0,1107,
scooby_state_466bbe|23|1 1106,0,0,0,1,0,0,0,0,0,0,0,0,0,0,1107,
scooby_state_466b65|9|1 1106,0,0,0,1,0,0,0,0,0,0,0,0,0,0,1107,
scooby_state_466bdc|11|1 1105,0,0,0,0,0,0,0,0,0,0,0,1,0,1,1107,
scooby_state_466b77|49|1 1105,0,0,0,0,0,0,0,1,0,0,0,0,0,1,1107,
scooby_state_466ba2|24|1 1104,0,0,1,0,0,0,0,2,0,0,0,0,0,0,1107,
scooby_state_466bf1|32|1 1102,1,0,1,0,0,1,0,1,0,0,1,0,0,0,1107,
scooby_state_466bdc|49|1 1106,0,0,0,0,0,0,0,0,1,0,0,0,0,0,1107,
scooby_state_466b65|47|1 1105,1,0,1,0,0,0,0,0,0,0,0,0,0,0,1107,
scooby_state_466b65|8|1 1105,0,0,0,1,0,0,0,0,0,0,1,0,0,0,1107,
scooby_state_466b77|51|1 1106,0,0,0,0,0,1,0,0,0,0,0,0,0,0,1107,
scooby_state_466b77|2|1 1105,1,0,0,0,0,0,0,0,0,0,1,0,0,0,1107,
scooby_state_466bbe|39|1 1106,0,0,1,0,0,0,0,0,0,0,0,0,0,0,1107,
scooby_state_466b65|11|1 1103,1,0,0,0,0,1,0,0,1,0,1,0,0,0,1107,
scooby_state_466bdc|28|1 1106,0,0,1,0,0,0,0,0,0,0,0,0,0,0,1107,
scooby_state_466bf1|3|1 1103,0,0,0,0,1,0,0,0,1,0,0,0,0,2,1107,
scooby_state_466b65|52|1 1105,0,1,0,0,0,0,1,0,0,0,0,0,0,0,1107,
scooby_state_466bf1|17|1 1107,0,0,0,0,0,0,0,0,0,0,0,0,0,0,1107,
scooby_state_466ba2|22|1 1105,0,0,0,0,0,0,1,0,0,1,0,0,0,0,1107,
scooby_state_466bf1|18|1 1105,0,0,0,0,0,0,0,1,0,0,0,1,0,0,1107,
scooby_state_466b65|32|1 1105,0,0,0,1,1,0,0,0,0,0,0,0,0,0,1107,
scooby_state_466ba2|41|1 1104,0,0,0,0,0,0,1,0,1,0,0,0,1,0,1107,
scooby_state_466b77|26|1 1105,0,0,0,0,1,0,0,0,0,1,0,0,0,0,1107,
scooby_state_466bbe|58|1 1103,1,0,0,1,0,1,0,0,0,1,0,0,0,0,1107,
scooby_state_466bdc|22|1 1102,0,0,0,0,2,0,1,0,0,0,1,0,1,0,1107,
scooby_state_466ba2|45|1 1106,0,0,0,0,0,0,0,0,0,0,0,0,1,0,1107,
scooby_state_466bf1|0|0 1106,0,0,0,0,0,0,0,0,1,0,0,0,0,0,1107,
scooby_state_466b65|23|1 1106,0,0,0,0,0,1,0,0,0,0,0,0,0,0,1107,
scooby_state_466bf1|37|1 1106,0,0,0,0,0,0,0,0,0,0,0,1,0,0,1107,
scooby_state_466b65|30|1 1104,1,0,1,0,0,0,0,0,0,1,0,0,0,0,1107,
scooby_state_466b77|5|1 1106,0,0,0,0,0,0,0,0,0,0,1,0,0,0,1107,
scooby_state_466ba2|57|1 1104,0,0,0,0,1,0,0,0,0,0,1,0,1,0,1107,
scooby_state_466bf1|49|1 1105,0,1,0,0,0,0,0,0,0,0,1,0,0,0,1107,
scooby_state_466ba2|33|1 1102,0,0,1,0,0,0,2,0,0,0,0,0,0,2,1107,
scooby_state_466b65|54|1 1103,0,0,1,0,0,1,0,1,0,0,0,0,0,1,1107,
scooby_state_466bdc|60|1 1106,0,0,0,0,0,0,0,0,1,0,0,0,0,0,1107,
scooby_state_466b77|6|1 1106,0,0,0,1,0,0,0,0,0,0,0,0,0,0,1107,
scooby_state_466bf1|1|1 1106,0,0,0,0,0,0,0,0,0,0,0,0,0,1,1107,
scooby_state_466bf1|42|1 1104,0,0,1,1,0,0,0,0,1,0,0,0,0,0,1107,
scooby_state_466bdc|54|1 1107,0,0,0,0,0,0,0,0,0,0,0,0,0,0,1107,
scooby_state_466bf1|28|1 1103,0,0,1,1,2,0,0,0,0,0,0,0,0,0,1107,
scooby_state_466bbe|7|1 1103,1,1,0,0,0,1,0,0,0,0,0,0,1,0,1107,
scooby_state_466bf1|58|1 1106,1,0,0,0,0,0,0,0,0,0,0,0,0,0,1107,
scooby_state_466bf1|34|1 1106,0,0,0,0,0,1,0,0,0,0,0,0,0,0,1107,
scooby_state_466ba2|6|1 1104,0,0,0,0,0,1,1,0,0,1,0,0,0,0,1107,
scooby_state_466ba2|38|1 1104,0,0,0,0,0,0,0,0,0,0,1,2,0,0,1107,
scooby_state_466bdc|62|1 1106,0,0,0,0,0,0,0,0,0,0,1,0,0,0,1107,
scooby_state_466bf1|46|1 1106,0,0,0,0,0,0,0,0,1,0,0,0,0,0,1107,
scooby_state_466b65|45|1 1105,0,0,0,0,0,0,0,1,0,0,1,0,0,0,1107,
scooby_state_466b65|55|1 1103,1,1,0,0,0,1,0,0,0,0,0,0,0,1,1107,
scooby_state_466bdc|53|1 1103,0,0,0,0,0,0,0,0,1,1,1,0,0,1,1107,
scooby_state_466ba2|31|1 1106,1,0,0,0,0,0,0,0,0,0,0,0,0,0,1107,
scooby_state_466b65|3|1 1102,1,2,0,0,0,1,0,0,0,0,0,1,0,0,1107,
scooby_state_466b65|42|1 1107,0,0,0,0,0,0,0,0,0,0,0,0,0,0,1107,
scooby_state_466bdc|61|1 1106,0,0,0,0,0,0,0,0,0,0,1,0,0,0,1107,
scooby_state_466b77|4|1 1105,0,0,0,0,0,1,0,0,0,1,0,0,0,0,1107,
scooby_state_466bdc|55|1 1106,0,0,0,0,0,0,0,0,0,0,0,1,0,0,1107,
scooby_state_466bbe|2|1 1104,0,0,0,0,1,0,0,1,1,0,0,0,0,0,1107,
scooby_state_466ba2|47|1 1105,0,0,1,0,0,0,0,0,1,0,0,0,0,0,1107,
scooby_state_466b65|48|1 1106,0,0,1,0,0,0,0,0,0,0,0,0,0,0,1107,
scooby_state_466ba2|4|1 1107,0,0,0,0,0,0,0,0,0,0,0,0,0,0,1107,
scooby_state_466b77|56|1 1107,0,0,0,0,0,0,0,0,0,0,0,0,0,0,1107,
scooby_state_466b77|3|1 1106,0,0,1,0,0,0,0,0,0,0,0,0,0,0,1107,
scooby_state_466bbe|3|1 1107,0,0,0,0,0,0,0,0,0,0,0,0,0,0,1107,
scooby_state_466bf1|62|1 1104,1,0,0,0,0,1,1,0,0,0,0,0,0,0,1107,
scooby_state_466ba2|50|1 1104,1,0,0,0,1,0,0,0,0,0,1,0,0,0,1107,
scooby_state_466bf1|55|1 1106,0,0,0,0,1,0,0,0,0,0,0,0,0,0,1107,
scooby_state_466bf1|48|1 1106,0,0,0,0,0,0,0,0,0,1,0,0,0,0,1107,
scooby_state_466bdc|40|1 1106,0,0,0,0,0,0,0,0,0,0,1,0,0,0,1107,
scooby_state_466bf1|24|1 1104,0,0,2,0,0,0,0,0,0,0,0,0,0,1,1107,
scooby_state_466b65|28|1 1106,0,0,0,1,0,0,0,0,0,0,0,0,0,0,1107,
scooby_state_466bbe|41|1 1106,0,0,0,0,0,1,0,0,0,0,0,0,0,0,1107,
scooby_state_466bbe|4|1 1105,0,0,1,0,0,1,0,0,0,0,0,0,0,0,1107,
scooby_state_466bbe|40|1 1105,0,1,0,0,0,1,0,0,0,0,0,0,0,0,1107,
scooby_state_466ba2|5|1 1106,0,0,0,0,1,0,0,0,0,0,0,0,0,0,1107,
scooby_state_466b65|51|1 1105,0,0,1,0,0,0,0,0,1,0,0,0,0,0,1107,
scooby_state_466bbe|1|1 1106,0,0,0,0,0,1,0,0,0,0,0,0,0,0,1107,
scooby_state_466bf1|25|1 1104,0,0,1,0,0,1,0,0,0,0,0,0,0,1,1107,
scooby_state_466bf1|54|1 1106,0,0,0,0,0,0,0,0,1,0,0,0,0,0,1107,
scooby_state_466ba2|8|1 1106,0,0,0,0,0,0,0,1,0,0,0,0,0,0,1107,
scooby_state_466b77|61|1 1107,0,0,0,0,0,0,0,0,0,0,0,0,0,0,1107,
scooby_state_466bdc|50|1 1103,0,1,0,0,0,1,1,0,0,0,0,0,0,1,1107,
scooby_state_466bf1|61|1 1107,0,0,0,0,0,0,0,0,0,0,0,0,0,0,1107,
scooby_state_466ba2|56|1 1106,0,0,0,1,0,0,0,0,0,0,0,0,0,0,1107,
scooby_state_466b65|20|1 1102,0,0,0,0,1,2,2,0,0,0,0,0,0,0,1107,
scooby_state_466ba2|59|1 1106,0,0,0,0,0,0,0,1,0,0,0,0,0,0,1107,
scooby_state_466bdc|30|1 1107,0,0,0,0,0,0,0,0,0,0,0,0,0,0,1107,
scooby_state_466b77|60|1 1107,0,0,0,0,0,0,0,0,0,0,0,0,0,0,1107,
scooby_state_466bbe|36|1 1105,0,0,0,0,0,1,0,1,0,0,0,0,0,0,1107,
scooby_state_466ba2|63|1 1105,0,0,0,0,0,0,0,1,0,0,0,0,1,0,1107,
scooby_state_466b77|57|1 1107,0,0,0,0,0,0,0,0,0,0,0,0,0,0,1107,
scooby_state_466b77|45|1 1106,0,0,0,0,0,0,0,0,0,0,0,1,0,0,1107,
scooby_state_466ba2|54|1 1103,0,1,0,0,0,0,0,0,1,0,0,1,0,1,1107,
scooby_state_466ba2|55|1 1105,0,0,0,0,0,1,1,0,0,0,0,0,0,0,1107,
scooby_state_466bbe|22|1 1106,0,0,0,1,0,0,0,0,0,0,0,0,0,0,1107,
scooby_state_466bf1|29|1 1106,0,0,0,1,0,0,0,0,0,0,0,0,0,0,1107,
scooby_state_466bdc|32|1 1105,0,1,0,0,0,0,0,0,1,0,0,0,0,0,1107,
scooby_state_466b77|62|1 1107,0,0,0,0,0,0,0,0,0,0,0,0,0,0,1107,
scooby_state_466bbe|8|1 1104,0,0,0,0,1,1,0,0,1,0,0,0,0,0,1107,
scooby_state_466bf1|2|1 1105,0,0,0,0,0,0,1,0,0,0,1,0,0,0,1107,
scooby_state_466ba2|62|1 1106,0,0,0,0,1,0,0,0,0,0,0,0,0,0,1107,
scooby_state_466bf1|51|1 1106,0,0,0,0,0,0,0,0,0,1,0,0,0,0,1107,
scooby_state_466bdc|26|1 1106,0,1,0,0,0,0,0,0,0,0,0,0,0,0,1107,
scooby_state_466ba2|51|1 1106,0,0,0,0,1,0,0,0,0,0,0,0,0,0,1107,
scooby_state_466bdc|20|1 1107,0,0,0,0,0,0,0,0,0,0,0,0,0,0,1107,
scooby_state_466bdc|44|1 1103,0,1,0,1,0,0,1,1,0,0,0,0,0,0,1107,
scooby_state_466bdc|52|1 1107,0,0,0,0,0,0,0,0,0,0,0,0,0,0,1107,
scooby_state_466ba2|53|1 1105,0,0,0,0,0,0,1,0,0,0,1,0,0,0,1107,
scooby_state_466b77|44|1 1105,0,0,0,0,0,0,0,0,0,1,0,1,0,0,1107,
scooby_state_466b77|38|1 1105,0,1,0,0,0,0,0,0,0,0,1,0,0,0,1107,
scooby_state_466b65|21|1 1106,0,0,0,0,0,0,0,0,1,0,0,0,0,0,1107,
scooby_state_466bf1|16|1 1105,0,0,1,0,0,0,0,0,1,0,0,0,0,0,1107,
scooby_state_466bdc|58|1 1107,0,0,0,0,0,0,0,0,0,0,0,0,0,0,1107,
scooby_state_466bf1|36|1 1106,0,0,0,0,0,0,0,0,0,0,1,0,0,0,1107,
scooby_state_466ba2|58|1 1101,0,1,0,0,0,0,1,1,0,0,1,1,1,0,1107,
scooby_state_466bdc|47|1 1105,0,0,1,0,0,0,0,1,0,0,0,0,0,0,1107,
scooby_state_466b77|39|1 1105,1,0,0,0,0,0,0,0,0,1,0,0,0,0,1107,
scooby_state_466b65|44|1 1106,0,1,0,0,0,0,0,0,0,0,0,0,0,0,1107,
scooby_state_466bdc|51|1 1103,1,0,1,0,0,0,0,1,1,0,0,0,0,0,1107,
scooby_state_466b65|43|1 1105,0,0,0,0,0,0,1,0,0,0,0,0,1,0,1107,
scooby_state_466bbe|27|1 1105,0,0,0,0,0,0,0,0,0,0,0,1,0,1,1107,
scooby_state_466bf1|45|1 1104,0,0,0,0,0,0,0,0,0,0,0,1,2,0,1107,
scooby_state_466bdc|12|1 1105,0,0,0,0,1,0,0,0,0,0,0,0,0,1,1107,
scooby_state_466bf1|31|1 1104,0,0,0,0,0,1,0,0,0,0,0,1,0,1,1107,
scooby_state_466b65|50|1 1106,0,0,0,0,0,0,1,0,0,0,0,0,0,0,1107,
scooby_state_466ba2|3|1 1104,0,0,0,0,0,0,1,0,0,1,0,0,1,0,1107,
scooby_state_466b65|12|1 1104,1,0,1,0,0,0,0,0,0,1,0,0,0,0,1107,
scooby_state_466b65|13|1 1106,0,0,0,0,0,0,0,1,0,0,0,0,0,0,1107,
scooby_state_466bdc|13|1 1103,1,0,0,0,0,1,0,1,1,0,0,0,0,0,1107,
scooby_state_466bf1|35|1 1103,0,1,1,0,1,0,0,0,0,1,0,0,0,0,1107,
scooby_state_466b77|9|1 1105,0,0,0,0,0,0,0,1,0,0,1,0,0,0,1107,
scooby_state_466b65|24|1 1106,0,0,0,0,0,0,0,0,0,0,0,0,1,0,1107,
scooby_state_466b65|4|1 1105,0,0,0,0,0,0,0,0,0,1,0,1,0,0,1107,
scooby_state_466bdc|41|1 1105,0,1,0,0,0,1,0,0,0,0,0,0,0,0,1107,
scooby_state_466ba2|48|1 1104,1,0,0,0,0,0,0,0,0,0,0,2,0,0,1107,
scooby_state_466ba2|1|1 1106,0,0,0,0,1,0,0,0,0,0,0,0,0,0,1107,
scooby_state_466bf1|4|1 1103,0,0,1,0,0,0,0,0,0,0,0,2,0,1,1107,
scooby_state_466b77|50|1 1106,0,0,0,0,0,0,0,0,0,0,1,0,0,0,1107,
scooby_state_466b77|32|1 1106,1,0,0,0,0,0,0,0,0,0,0,0,0,0,1107,
scooby_state_466ba2|39|1 1105,0,0,0,0,0,0,0,0,0,1,0,0,0,1,1107,
scooby_state_466b65|16|1 1103,1,0,1,1,0,0,0,0,0,0,0,0,0,1,1107,
scooby_state_466b77|33|1 1106,0,1,0,0,0,0,0,0,0,0,0,0,0,0,1107,
scooby_state_466b65|25|1 1103,0,2,0,1,0,0,0,0,0,1,0,0,0,0,1107,
scooby_state_466bdc|39|1 1106,0,1,0,0,0,0,0,0,0,0,0,0,0,0,1107,
scooby_state_466bf1|59|1 1104,0,0,1,0,1,0,0,0,0,0,0,0,0,1,1107,
scooby_state_466ba2|60|1 1105,0,0,0,0,0,0,0,1,0,0,0,1,0,0,1107,
scooby_state_466bdc|27|1 1105,0,0,0,0,0,0,0,0,1,0,0,0,0,1,1107,
scooby_state_466bf1|33|1 1105,0,0,1,1,0,0,0,0,0,0,0,0,0,0,1107,
scooby_state_466bbe|51|1 1106,0,0,1,0,0,0,0,0,0,0,0,0,0,0,1107,
scooby_state_466b77|37|1 1106,0,0,0,0,0,0,0,1,0,0,0,0,0,0,1107,
scooby_state_466b65|29|1 1104,1,1,0,0,0,0,0,0,0,0,1,0,0,0,1107,
scooby_state_466b77|1|1 1106,0,0,0,0,0,0,0,0,0,0,0,0,0,1,1107,
scooby_state_466ba2|30|1 1106,0,0,1,0,0,0,0,0,0,0,0,0,0,0,1107,
scooby_state_466b00|11|0 1,1,1,1,1,1,1,1,1,1,2,3,1,1,1090,1107,
scooby_state_466bbe|53|1 1105,0,0,1,1,0,0,0,0,0,0,0,0,0,0,1107,
scooby_state_466b65|14|1 1104,0,0,0,0,0,1,0,0,1,0,1,0,0,0,1107,
scooby_state_466bdc|46|1 1106,0,0,0,0,0,0,1,0,0,0,0,0,0,0,1107,
scooby_state_466bf1|44|1 1105,0,0,0,0,0,0,0,1,0,0,0,0,0,1,1107,
scooby_state_466ba2|27|1 1105,1,0,0,0,0,0,0,0,0,0,0,1,0,0,1107,
scooby_state_466b65|34|1 1103,1,0,0,0,0,0,1,0,0,1,0,1,0,0,1107,
scooby_state_466bbe|52|1 1103,0,0,1,0,0,0,1,0,0,1,0,0,0,1,1107,
scooby_state_466b65|33|1 1106,0,0,0,0,0,0,0,0,1,0,0,0,0,0,1107,
scooby_state_466b77|47|1 1106,0,0,0,0,0,0,0,0,1,0,0,0,0,0,1107,
scooby_state_466bdc|42|1 1106,0,0,0,0,0,0,0,0,0,0,0,0,0,1,1107,
scooby_state_466bdc|63|1 1105,0,1,0,0,0,0,0,1,0,0,0,0,0,0,1107,
scooby_state_466bdc|56|1 1105,0,0,0,0,0,1,0,0,0,0,1,0,0,0,1107,
scooby_state_466bbe|56|1 1105,0,0,0,0,0,0,0,0,1,0,0,1,0,0,1107,
scooby_state_466ba2|2|1 1106,0,0,0,0,0,0,0,0,0,0,0,1,0,0,1107,
scooby_state_466b65|27|1 1106,0,0,0,0,0,0,0,0,1,0,0,0,0,0,1107,
scooby_state_466bdc|29|1 1105,0,0,0,0,0,0,0,0,0,0,0,0,0,2,1107,
scooby_state_466bf1|39|1 1106,1,0,0,0,0,0,0,0,0,0,0,0,0,0,1107,
scooby_state_466bbe|47|1 1106,0,0,0,0,0,0,0,0,0,1,0,0,0,0,1107,
scooby_state_466bf1|53|1 1106,0,0,0,0,0,0,0,0,0,1,0,0,0,0,1107,
scooby_state_466bdc|48|1 1106,0,0,0,0,0,0,0,0,0,0,0,0,1,0,1107,
scooby_state_466bbe|43|1 1102,1,0,1,1,0,0,0,0,0,1,1,0,0,0,1107,
scooby_state_466bbe|5|1 1103,0,1,1,0,0,0,0,0,2,0,0,0,0,0,1107,
scooby_state_466b65|6|1 1104,0,1,0,0,0,0,0,0,1,0,1,0,0,0,1107,
scooby_state_466ba2|43|1 1106,0,0,0,0,0,0,0,0,0,0,0,0,0,1,1107,
scooby_state_466ba2|32|1 1105,0,0,0,0,0,0,0,0,0,0,1,0,1,0,1107,
scooby_state_466ba2|46|1 1107,0,0,0,0,0,0,0,0,0,0,0,0,0,0,1107,
scooby_state_466bf1|57|1 1104,0,0,1,0,0,0,0,0,1,0,1,0,0,0,1107,
scooby_state_466b77|48|1 1105,0,0,0,0,0,0,0,1,0,0,0,1,0,0,1107,
scooby_state_466bbe|48|1 1105,0,1,0,0,0,0,0,0,0,0,0,0,0,1,1107,
scooby_state_466b77|22|1 1102,0,0,1,1,0,1,0,1,0,0,0,1,0,0,1107,
scooby_state_466bdc|33|1 1105,0,0,0,0,0,1,0,0,1,0,0,0,0,0,1107,
scooby_state_466bf1|38|1 1102,1,1,1,0,2,0,0,0,0,0,0,0,0,0,1107,
scooby_state_466bbe|6|1 1105,1,0,0,0,0,0,0,0,0,0,0,0,0,1,1107,
scooby_state_466bf1|63|1 1104,0,0,1,0,0,0,0,0,1,0,1,0,0,0,1107,
scooby_state_466b65|7|1 1107,0,0,0,0,0,0,0,0,0,0,0,0,0,0,1107,
scooby_state_466bdc|21|1 1107,0,0,0,0,0,0,0,0,0,0,0,0,0,0,1107,
scooby_state_466b65|53|1 1107,0,0,0,0,0,0,0,0,0,0,0,0,0,0,1107,
scooby_state_466b65|26|1 1103,0,0,0,1,0,0,0,0,0,1,2,0,0,0,1107,
scooby_state_466bdc|23|1 1106,0,0,1,0,0,0,0,0,0,0,0,0,0,0,1107,
scooby_state_466ba2|28|1 1106,0,1,0,0,0,0,0,0,0,0,0,0,0,0,1107,
scooby_state_466b65|19|1 1106,0,0,0,0,0,0,0,1,0,0,0,0,0,0,1107,
scooby_state_466b77|42|1 1106,0,1,0,0,0,0,0,0,0,0,0,0,0,0,1107,
scooby_state_466b65|31|1 1105,0,0,0,1,0,0,0,1,0,0,0,0,0,0,1107,
scooby_state_466b77|23|1 1105,0,1,0,0,0,0,0,0,0,0,0,0,1,0,1107,
scooby_state_466bdc|16|1 1106,0,0,0,0,0,1,0,0,0,0,0,0,0,0,1107,
scooby_state_466bbe|49|1 1106,0,0,0,0,1,0,0,0,0,0,0,0,0,0,1107,
scooby_state_466bdc|38|1 1106,0,0,0,0,0,0,0,0,0,1,0,0,0,0,1107,
scooby_state_466bbe|9|1 1105,0,0,0,1,1,0,0,0,0,0,0,0,0,0,1107,
scooby_state_466b77|58|1 1106,0,0,0,0,0,0,0,0,0,0,0,1,0,0,1107,
scooby_state_466ba2|49|1 1104,1,0,0,0,1,0,0,0,0,0,0,0,0,1,1107,
scooby_state_466b77|43|1 1104,0,0,0,0,0,0,1,0,1,0,0,1,0,0,1107,
scooby_state_466b65|22|1 1104,0,0,1,0,0,0,0,0,1,0,0,1,0,0,1107,
scooby_state_466bbe|21|1 1104,0,0,0,0,0,1,1,1,0,0,0,0,0,0,1107,
scooby_state_466ba2|25|1 1105,0,0,1,0,1,0,0,0,0,0,0,0,0,0,1107,
scooby_state_466bf1|30|1 1106,0,0,0,0,0,0,0,0,0,0,0,0,1,0,1107,
scooby_state_466bf1|40|1 1105,0,0,0,0,1,1,0,0,0,0,0,0,0,0,1107,
scooby_state_466ba2|52|1 1105,1,0,0,0,0,0,0,1,0,0,0,0,0,0,1107,
scooby_state_466bf1|43|1 1107,0,0,0,0,0,0,0,0,0,0,0,0,0,0,1107,
scooby_state_466bdc|17|1 1107,0,0,0,0,0,0,0,0,0,0,0,0,0,0,1107,
scooby_state_466b77|63|1 1104,0,0,0,0,0,2,1,0,0,0,0,0,0,0,1107,
scooby_state_466bbe|28|1 1106,0,1,0,0,0,0,0,0,0,0,0,0,0,0,1107,
scooby_state_466bf1|52|1 1106,0,0,0,0,0,0,0,0,0,0,0,0,0,1,1107,
scooby_state_466bf1|20|1 1105,0,0,0,0,0,0,0,1,0,0,0,1,0,0,1107,
scooby_state_466b77|53|1 1105,0,0,0,1,0,0,0,1,0,0,0,0,0,0,1107,
scooby_state_466bbe|24|1 1107,0,0,0,0,0,0,0,0,0,0,0,0,0,0,1107,
scooby_state_466bdc|45|1 1103,0,0,0,0,0,1,0,1,0,0,0,0,2,0,1107,
scooby_state_466bdc|18|1 1103,0,0,0,0,0,0,1,0,0,1,0,1,0,1,1107,
scooby_state_466b65|17|1 1105,0,0,1,0,0,0,0,0,0,1,0,0,0,0,1107,
scooby_state_466b77|59|1 1103,1,0,1,0,0,0,1,0,0,1,0,0,0,0,1107,
scooby_state_466b65|10|1 1107,0,0,0,0,0,0,0,0,0,0,0,0,0,0,1107,
scooby_state_466bf1|23|1 1106,0,0,0,0,0,0,0,1,0,0,0,0,0,0,1107,
scooby_state_466ba2|9|1 1106,0,0,0,0,1,0,0,0,0,0,0,0,0,0,1107,
scooby_state_466bdc|31|1 1107,0,0,0,0,0,0,0,0,0,0,0,0,0,0,1107,
scooby_state_466bbe|33|1 1105,0,0,0,0,1,0,0,0,0,0,0,0,0,1,1107,
scooby_state_466b77|29|1 1107,0,0,0,0,0,0,0,0,0,0,0,0,0,0,1107,
scooby_state_466bbe|57|1 1105,0,1,0,0,0,0,0,0,0,1,0,0,0,0,1107,
scooby_state_466bbe|30|1 1103,0,1,0,0,0,0,0,1,0,1,0,0,0,1,1107,
scooby_state_466bdc|59|1 1103,0,0,0,1,0,1,1,0,0,0,0,0,0,1,1107,
scooby_state_466ba2|29|1 1105,0,0,1,0,0,0,1,0,0,0,0,0,0,0,1107,
scooby_state_466bbe|59|1 1105,0,0,0,1,1,0,0,0,0,0,0,0,0,0,1107,
scooby_state_466b77|54|1 1106,0,0,0,0,0,0,0,0,1,0,0,0,0,0,1107,
scooby_state_466bdc|35|1 1105,0,0,0,0,0,0,0,0,1,0,0,0,1,0,1107,
scooby_state_466ba2|23|1 1106,0,0,0,0,0,1,0,0,0,0,0,0,0,0,1107,
scooby_state_466bf1|27|1 1106,1,0,0,0,0,0,0,0,0,0,0,0,0,0,1107,
scooby_state_466bbe|29|1 1105,0,0,1,0,0,0,0,0,0,0,0,0,1,0,1107,
scooby_state_466bdc|24|1 1105,0,1,0,0,0,0,0,0,0,0,1,0,0,0,1107,
scooby_state_466bbe|25|1 1106,0,0,0,0,1,0,0,0,0,0,0,0,0,0,1107,
scooby_state_466bbe|62|1 1104,1,0,0,1,0,0,0,0,0,0,0,1,0,0,1107,
scooby_state_466b77|36|1 1105,0,0,0,0,0,0,0,0,0,0,1,1,0,0,1107,
scooby_state_466b65|39|1 1106,0,1,0,0,0,0,0,0,0,0,0,0,0,0,1107,
scooby_state_466b65|37|1 1105,0,0,2,0,0,0,0,0,0,0,0,0,0,0,1107,
scooby_state_466b77|41|1 1103,1,0,0,0,0,0,2,1,0,0,0,0,0,0,1107,
scooby_state_466ba2|26|1 1106,0,0,0,0,0,0,1,0,0,0,0,0,0,0,1107,
scooby_state_466bbe|26|1 1105,0,0,0,0,0,0,1,0,0,1,0,0,0,0,1107,
scooby_state_466bbe|45|1 1105,0,0,0,1,0,0,0,0,0,0,0,0,1,0,1107,
scooby_state_466b65|49|1 1106,0,0,0,0,0,0,0,0,0,0,0,0,0,1,1107,
scooby_state_466bbe|46|1 1103,0,0,0,0,0,1,0,0,0,0,1,2,0,0,1107,
scooby_state_466ba2|40|1 1104,0,0,0,1,0,0,0,0,0,1,0,0,1,0,1107,
scooby_state_466bbe|50|1 1104,0,0,0,0,0,0,1,0,0,0,1,0,1,0,1107,
scooby_state_466bf1|19|1 1105,0,0,0,0,1,0,0,1,0,0,0,0,0,0,1107,
scooby_state_466bbe|34|1 1104,1,0,0,0,1,0,0,1,0,0,0,0,0,0,1107,
scooby_state_466b77|28|1 1106,0,0,0,0,1,0,0,0,0,0,0,0,0,0,1107,
scooby_state_466b77|40|1 1106,0,0,0,0,0,0,0,0,0,0,0,1,0,0,1107,
scooby_state_466bbe|63|1 1107,0,0,0,0,0,0,0,0,0,0,0,0,0,0,1107,
scooby_state_466bdc|37|1 1106,0,1,0,0,0,0,0,0,0,0,0,0,0,0,1107,
scooby_state_466bf1|21|1 1106,0,0,0,0,0,0,0,0,1,0,0,0,0,0,1107,
scooby_state_466ba2|7|1 1104,0,0,0,1,0,0,1,0,0,0,0,0,0,1,1107,
scooby_state_466b77|27|1 1105,0,0,0,1,0,0,0,1,0,0,0,0,0,0,1107,
scooby_state_466bf1|50|1 1104,0,0,1,0,0,0,0,0,0,0,0,0,2,0,1107,
scooby_state_466b65|18|1 1107,0,0,0,0,0,0,0,0,0,0,0,0,0,0,1107,
scooby_state_466bf1|22|1 1107,0,0,0,0,0,0,0,0,0,0,0,0,0,0,1107,
scooby_state_466bdc|34|1 1102,0,0,0,1,0,2,0,1,0,1,0,0,0,0,1107,
scooby_state_466bbe|37|1 1101,1,1,0,2,1,0,0,0,1,0,0,0,0,0,1107,
scooby_state_466bdc|19|1 1105,0,0,0,0,0,1,0,0,1,0,0,0,0,0,1107,
scooby_state_466bbe|54|1 1106,0,0,0,1,0,0,0,0,0,0,0,0,0,0,1107,
scooby_state_466ba2|34|1 1104,0,0,0,0,1,0,0,0,0,1,0,0,0,1,1107,
scooby_state_466bdc|36|1 1107,0,0,0,0,0,0,0,0,0,0,0,0,0,0,1107,
scooby_state_466b77|34|1 1107,0,0,0,0,0,0,0,0,0,0,0,0,0,0,1107,
scooby_state_466bbe|35|1 1105,0,0,1,0,1,0,0,0,0,0,0,0,0,0,1107,
scooby_state_466bbe|38|1 1105,0,0,0,0,1,0,0,0,0,0,0,0,0,1,1107,
scooby_state_466b65|35|1 1106,0,0,0,0,0,0,0,0,1,0,0,0,0,0,1107,
scooby_state_466ba2|37|1 1103,0,0,0,1,0,0,0,2,0,0,0,1,0,0,1107,
scooby_state_466bbe|60|1 1105,0,1,0,0,0,0,0,0,0,1,0,0,0,0,1107,
scooby_state_466b77|52|1 1107,0,0,0,0,0,0,0,0,0,0,0,0,0,0,1107,
scooby_state_466bbe|55|1 1106,1,0,0,0,0,0,0,0,0,0,0,0,0,0,1107,
scooby_state_466ba2|35|1 1106,0,0,0,0,1,0,0,0,0,0,0,0,0,0,1107,
scooby_state_466b77|35|1 1105,0,0,0,0,0,0,0,0,0,1,1,0,0,0,1107,
scooby_state_466ba2|61|1 1107,0,0,0,0,0,0,0,0,0,0,0,0,0,0,1107,
scooby_state_466bdc|25|1 1105,0,0,1,0,0,0,0,0,1,0,0,0,0,0,1107,
scooby_state_466bbe|61|1 1104,1,0,1,0,0,0,0,0,0,1,0,0,0,0,1107,
scooby_state_466bf1|56|1 1107,0,0,0,0,0,0,0,0,0,0,0,0,0,0,1107,
scooby_state_466ba2|44|1 1107,0,0,0,0,0,0,0,0,0,0,0,0,0,0,1107,
scooby_state_466ba2|36|1 1105,0,0,0,0,0,0,1,0,0,0,1,0,0,0,1107,
scooby_state_466ba2|21|1 1107,0,0,0,0,0,0,0,0,0,0,0,0,0,0,1107,
scooby_state_466b65|36|1 1102,0,0,0,1,0,0,0,3,0,1,0,0,0,0,1107,
scooby_state_466b77|30|1 1103,0,0,1,1,0,0,0,0,0,1,0,0,1,0,1107,
scooby_state_466b65|40|1 1105,1,0,0,0,0,0,0,0,1,0,0,0,0,0,1107,
scooby_state_466b77|24|1 1105,0,0,1,0,0,1,0,0,0,0,0,0,0,0,1107,
scooby_state_466bbe|42|1 1107,0,0,0,0,0,0,0,0,0,0,0,0,0,0,1107,
scooby_state_466ba2|42|1 1105,0,0,0,0,0,0,0,1,1,0,0,0,0,0,1107,
scooby_state_466bbe|31|1 1107,0,0,0,0,0,0,0,0,0,0,0,0,0,0,1107,
scooby_state_466b77|31|1 1106,0,0,0,0,0,0,0,1,0,0,0,0,0,0,1107,
scooby_state_466bf1|26|1 1106,0,0,0,0,0,1,0,0,0,0,0,0,0,0,1107,
scooby_state_466b77|25|1 1105,0,0,0,0,0,0,0,1,0,0,0,0,0,1,1107,
scooby_state_466b77|21|1 1106,1,0,0,0,0,0,0,0,0,0,0,0,0,0,1107,
scooby_state_466bbe|32|1 1106,0,0,0,0,0,1,0,0,0,0,0,0,0,0,1107,
scooby_state_466b65|15|1 1106,0,0,0,0,0,1,0,0,0,0,0,0,0,0,1107,
scooby_state_466bf1|47|1 1105,0,0,0,0,0,0,0,0,0,0,0,1,1,0,1107,
scooby_state_466b77|55|1 1104,0,0,0,0,1,0,0,1,0,0,0,0,0,1,1107,
scooby_state_466bf1|41|1 1106,0,0,0,0,1,0,0,0,0,0,0,0,0,0,1107,
scooby_state_466bdc|57|1 1104,0,0,0,1,0,0,1,0,1,0,0,0,0,0,1107,
scooby_state_466ce1|16|1 16,2,1,1054,0,0,0,0,0,0,0,0,0,0,0,1073,
scooby_state_466b0f|13|-8 1032,0,0,0,0,0,0,0,0,1,0,0,0,0,0,1033,
scooby_state_466af8|21|5 7,8,8,7,7,8,8,7,8,8,8,8,8,8,891,999,
scooby_state_466d17|14|3 948,1,0,0,1,0,0,0,0,0,0,0,0,0,0,950,
scooby_state_466ca3|15|1 949,0,0,0,0,0,0,0,1,0,0,0,0,0,0,950,
scooby_state_466b4e|11|-1 890,0,0,0,21,3,0,2,0,1,0,0,0,0,0,917,
scooby_state_466b36|12|-1 233,2,621,0,0,0,0,0,0,0,0,0,0,0,32,888,
scooby_state_466b97|51|1 704,0,0,0,0,0,0,0,0,0,0,0,1,0,0,705,
scooby_state_466b97|16|1 693,0,0,0,0,0,0,0,0,0,0,0,0,0,0,693,
scooby_state_466b97|20|1 678,0,0,0,0,0,0,0,0,0,1,0,0,0,0,679,
scooby_state_466b97|19|1 676,0,0,0,0,0,0,0,0,0,1,0,0,0,0,677,
scooby_state_466b97|18|1 671,0,0,0,1,0,1,0,0,0,0,0,0,1,0,674,
scooby_state_466b97|32|1 647,0,0,0,0,0,0,0,0,0,0,0,0,0,0,647,
scooby_state_466b97|15|1 644,0,0,1,0,0,0,0,0,0,0,0,0,2,0,647,
scooby_state_466b97|63|1 647,0,0,0,0,0,0,0,0,0,0,0,0,0,0,647,
scooby_state_466b97|47|1 646,0,0,0,0,0,0,0,0,0,0,0,0,0,0,646,
scooby_state_466b97|31|1 643,0,1,0,0,0,0,0,1,0,0,0,0,0,1,646,
scooby_state_466b97|48|1 646,0,0,0,0,0,0,0,0,0,0,0,0,0,0,646,
scooby_state_466b97|0|0 645,0,0,0,0,0,0,0,0,0,0,0,0,0,0,645,
scooby_state_466b97|38|1 644,0,0,0,0,0,0,0,0,1,0,0,0,0,0,645,
scooby_state_466b97|39|1 643,1,0,0,0,1,0,0,0,0,0,0,0,0,0,645,
scooby_state_466b97|40|1 642,0,0,0,1,1,0,0,0,0,0,0,0,0,0,644,
scooby_state_466b97|42|1 642,0,0,0,0,1,0,0,0,0,1,0,0,0,0,644,
scooby_state_466b97|54|1 644,0,0,0,0,0,0,0,0,0,0,0,0,0,0,644,
scooby_state_466b97|2|1 639,1,1,0,1,0,0,1,0,0,1,0,0,0,0,644,
scooby_state_466b97|14|1 644,0,0,0,0,0,0,0,0,0,0,0,0,0,0,644,
scooby_state_466b97|33|1 643,0,0,0,1,0,0,0,0,0,0,0,0,0,0,644,
scooby_state_466b97|41|1 644,0,0,0,0,0,0,0,0,0,0,0,0,0,0,644,
scooby_state_466b97|62|1 642,0,0,1,0,0,0,0,0,0,0,0,1,0,0,644,
scooby_state_466b97|17|1 644,0,0,0,0,0,0,0,0,0,0,0,0,0,0,644,
scooby_state_466b97|56|1 644,0,0,0,0,0,0,0,0,0,0,0,0,0,0,644,
scooby_state_466b97|22|1 644,0,0,0,0,0,0,0,0,0,0,0,0,0,0,644,
scooby_state_466b97|34|1 642,1,0,0,0,0,0,0,1,0,0,0,0,0,0,644,
scooby_state_466b97|27|1 643,0,0,0,0,0,1,0,0,0,0,0,0,0,0,644,
scooby_state_466b97|23|1 643,0,0,0,0,0,0,0,0,0,0,0,0,0,0,643,
scooby_state_466b97|1|1 643,0,0,0,0,0,0,0,0,0,0,0,0,0,0,643,
scooby_state_466b97|55|1 642,0,1,0,0,0,0,0,0,0,0,0,0,0,0,643,
scooby_state_466b97|61|1 641,0,0,0,0,0,0,0,0,0,1,1,0,0,0,643,
scooby_state_466b97|24|1 641,0,0,0,1,0,1,0,0,0,0,0,0,0,0,643,
scooby_state_466b97|13|1 641,0,0,0,0,0,0,0,0,0,0,0,0,1,1,643,
scooby_state_466b97|43|1 643,0,0,0,0,0,0,0,0,0,0,0,0,0,0,643,
scooby_state_466b97|30|1 642,0,0,0,0,0,0,0,0,0,0,0,0,0,1,643,
scooby_state_466b97|11|1 641,0,0,0,0,0,0,1,0,0,0,0,1,0,0,643,
scooby_state_466b97|49|1 641,0,0,0,0,0,0,0,0,0,0,1,0,1,0,643,
scooby_state_466b97|57|1 639,0,1,0,0,1,0,0,1,1,0,0,0,0,0,643,
scooby_state_466b97|29|1 640,0,0,1,1,0,0,0,0,0,0,0,0,1,0,643,
scooby_state_466b97|58|1 642,0,0,0,0,0,0,1,0,0,0,0,0,0,0,643,
scooby_state_466b97|59|1 643,0,0,0,0,0,0,0,0,0,0,0,0,0,0,643,
scooby_state_466b97|8|1 641,0,0,0,0,0,0,1,0,1,0,0,0,0,0,643,
scooby_state_466b97|26|1 643,0,0,0,0,0,0,0,0,0,0,0,0,0,0,643,
scooby_state_466b97|46|1 642,0,0,0,0,0,0,1,0,0,0,0,0,0,0,643,
scooby_state_466b97|6|1 641,0,0,0,1,0,0,0,0,0,0,0,1,0,0,643,
scooby_state_466b97|25|1 643,0,0,0,0,0,0,0,0,0,0,0,0,0,0,643,
scooby_state_466b97|45|1 640,0,0,0,0,0,1,0,0,0,0,0,0,0,1,642,
scooby_state_466b97|9|1 641,0,0,0,0,0,0,0,0,1,0,0,0,0,0,642,
scooby_state_466b97|37|1 642,0,0,0,0,0,0,0,0,0,0,0,0,0,0,642,
scooby_state_466b97|12|1 641,0,0,0,1,0,0,0,0,0,0,0,0,0,0,642,
scooby_state_466b97|10|1 642,0,0,0,0,0,0,0,0,0,0,0,0,0,0,642,
scooby_state_466b97|35|1 642,0,0,0,0,0,0,0,0,0,0,0,0,0,0,642,
scooby_state_466b97|50|1 641,0,0,0,0,0,0,0,0,0,0,1,0,0,0,642,
scooby_state_466b97|28|1 640,0,0,0,0,0,1,0,0,0,0,0,0,0,0,641,
scooby_state_466b97|52|1 641,0,0,0,0,0,0,0,0,0,0,0,0,0,0,641,
scooby_state_466b97|53|1 640,0,0,0,0,0,0,1,0,0,0,0,0,0,0,641,
scooby_state_466b97|5|1 638,0,1,0,1,0,0,0,0,0,0,0,0,1,0,641,
scooby_state_466b97|36|1 639,0,0,0,0,0,0,1,1,0,0,0,0,0,0,641,
scooby_state_466b97|4|1 641,0,0,0,0,0,0,0,0,0,0,0,0,0,0,641,
scooby_state_466b97|7|1 640,0,0,0,0,0,0,0,0,0,0,0,0,0,0,640,
scooby_state_466b97|44|1 639,0,0,0,0,0,0,0,1,0,0,0,0,0,0,640,
scooby_state_466b97|21|1 640,0,0,0,0,0,0,0,0,0,0,0,0,0,0,640,
scooby_state_466b97|3|1 640,0,0,0,0,0,0,0,0,0,0,0,0,0,0,640,
scooby_state_466b97|60|1 639,0,0,0,0,0,0,0,0,0,0,0,0,0,0,639,
scooby_state_466b90|60|1 481,0,0,0,0,0,0,0,0,0,0,0,0,0,0,481,
scooby_state_466b90|3|1 480,0,0,0,0,0,0,0,0,0,0,0,0,0,0,480,
scooby_state_466b90|44|1 479,0,0,0,0,1,0,0,0,0,0,0,0,0,0,480,
scooby_state_466b90|21|1 480,0,0,0,0,0,0,0,0,0,0,0,0,0,0,480,
scooby_state_466b90|7|1 479,0,0,0,0,0,0,0,0,0,0,0,0,1,0,480,
scooby_state_466b90|36|1 478,0,0,0,0,0,1,0,0,0,0,1,0,0,0,480,
scooby_state_466b90|53|1 479,0,0,0,0,0,0,0,0,0,0,0,0,0,0,479,
scooby_state_466b90|4|1 478,1,0,0,0,0,0,0,0,0,0,0,0,0,0,479,
scooby_state_466b90|35|1 479,0,0,0,0,0,0,0,0,0,0,0,0,0,0,479,
scooby_state_466b90|52|1 479,0,0,0,0,0,0,0,0,0,0,0,0,0,0,479,
scooby_state_466b90|37|1 479,0,0,0,0,0,0,0,0,0,0,0,0,0,0,479,
scooby_state_466b90|28|1 479,0,0,0,0,0,0,0,0,0,0,0,0,0,0,479,
scooby_state_466b90|5|1 478,0,1,0,0,0,0,0,0,0,0,0,0,0,0,479,
scooby_state_466b90|12|1 477,0,0,0,0,0,0,0,0,0,0,0,1,0,0,478,
scooby_state_466b90|30|1 478,0,0,0,0,0,0,0,0,0,0,0,0,0,0,478,
scooby_state_466b90|50|1 477,0,0,0,0,0,0,0,0,0,1,0,0,0,0,478,
scooby_state_466b90|10|1 478,0,0,0,0,0,0,0,0,0,0,0,0,0,0,478,
scooby_state_466b90|45|1 477,0,0,0,0,0,0,0,0,0,0,0,0,1,0,478,
scooby_state_466b90|9|1 477,0,0,0,0,0,0,0,0,0,1,0,0,0,0,478,
scooby_state_466b90|55|1 477,0,0,0,0,0,0,0,0,0,0,0,0,0,0,477,
scooby_state_466b90|1|1 476,0,0,0,0,0,0,0,0,1,0,0,0,0,0,477,
scooby_state_466b90|29|1 475,0,0,0,0,0,0,1,0,0,0,0,0,1,0,477,
scooby_state_466b90|58|1 476,0,0,0,0,0,0,0,0,0,0,1,0,0,0,477,
scooby_state_466b90|49|1 476,0,0,0,1,0,0,0,0,0,0,0,0,0,0,477,
scooby_state_466b90|8|1 477,0,0,0,0,0,0,0,0,0,0,0,0,0,0,477,
scooby_state_466b90|13|1 474,0,1,0,0,0,0,0,0,0,1,0,0,1,0,477,
scooby_state_466b90|26|1 477,0,0,0,0,0,0,0,0,0,0,0,0,0,0,477,
scooby_state_466b90|59|1 475,0,0,0,0,0,0,1,0,0,0,0,0,0,1,477,
scooby_state_466b90|33|1 477,0,0,0,0,0,0,0,0,0,0,0,0,0,0,477,
scooby_state_466b90|6|1 477,0,0,0,0,0,0,0,0,0,0,0,0,0,0,477,
scooby_state_466b90|61|1 476,0,0,0,0,0,0,0,0,0,0,0,1,0,0,477,
scooby_state_466b90|57|1 474,0,0,0,0,1,0,1,0,0,0,0,0,1,0,477,
scooby_state_466b90|43|1 476,0,0,0,0,0,0,0,0,0,0,1,0,0,0,477,
scooby_state_466b90|11|1 477,0,0,0,0,0,0,0,0,0,0,0,0,0,0,477,
scooby_state_466b90|24|1 476,0,0,0,0,0,0,0,0,0,0,1,0,0,0,477,
scooby_state_466b90|23|1 476,0,0,0,0,0,0,0,0,0,0,0,1,0,0,477,
scooby_state_466b90|46|1 477,0,0,0,0,0,0,0,0,0,0,0,0,0,0,477,
scooby_state_466b90|25|1 477,0,0,0,0,0,0,0,0,0,0,0,0,0,0,477,
scooby_state_466b90|56|1 476,0,0,0,0,0,0,0,0,0,0,0,0,0,0,476,
scooby_state_466b90|38|1 475,0,0,0,0,0,0,0,0,0,0,0,1,0,0,476,
scooby_state_466b90|34|1 476,0,0,0,0,0,0,0,0,0,0,0,0,0,0,476,
scooby_state_466b90|27|1 476,0,0,0,0,0,0,0,0,0,0,0,0,0,0,476,
scooby_state_466b90|41|1 476,0,0,0,0,0,0,0,0,0,0,0,0,0,0,476,
scooby_state_466b90|14|1 474,0,0,0,0,0,0,1,0,1,0,0,0,0,0,476,
scooby_state_466b90|2|1 476,0,0,0,0,0,0,0,0,0,0,0,0,0,0,476,
scooby_state_466b90|40|1 476,0,0,0,0,0,0,0,0,0,0,0,0,0,0,476,
scooby_state_466b90|17|1 475,0,0,0,0,0,0,1,0,0,0,0,0,0,0,476,
scooby_state_466b90|62|1 476,0,0,0,0,0,0,0,0,0,0,0,0,0,0,476,
scooby_state_466b90|54|1 475,0,0,0,0,0,0,0,0,0,0,1,0,0,0,476,
scooby_state_466b90|22|1 476,0,0,0,0,0,0,0,0,0,0,0,0,0,0,476,
scooby_state_466b90|42|1 474,0,0,0,0,0,0,0,0,0,0,1,0,0,1,476,
scooby_state_466b90|39|1 474,0,0,0,0,0,0,0,0,1,0,0,0,0,0,475,
scooby_state_466b90|0|0 474,0,0,0,0,0,0,0,0,1,0,0,0,0,0,475,
scooby_state_466b90|31|1 475,0,0,0,0,0,0,0,0,0,0,0,0,0,0,475,
scooby_state_466b90|47|1 473,0,0,0,0,0,0,0,0,0,0,0,0,0,1,474,
scooby_state_466b90|48|1 473,0,0,0,0,0,0,1,0,0,0,0,0,0,0,474,
scooby_state_466b90|32|1 471,0,0,0,0,0,1,0,0,0,1,0,1,0,0,474,
scooby_state_466b90|15|1 473,0,0,0,0,0,0,0,0,0,0,0,0,0,0,473,
scooby_state_466b90|63|1 471,0,0,0,0,1,0,0,0,0,1,0,0,0,0,473,
scooby_state_466b90|18|1 445,0,1,0,0,0,0,0,0,0,0,0,0,0,0,446,
scooby_state_466b90|19|1 443,0,0,0,0,0,0,0,0,0,0,0,0,0,0,443,
scooby_state_466b90|20|1 436,2,0,1,1,0,0,0,0,0,0,0,0,0,1,441,
scooby_state_466b90|16|1 425,0,0,0,0,1,0,0,0,0,0,0,0,0,1,427,
scooby_state_466b90|51|1 415,0,0,0,0,0,0,0,0,0,0,0,0,0,0,415,
scooby_state_466ca3|15|4 155,0,0,0,0,0,0,0,0,0,0,0,0,0,0,155,
scooby_state_466d17|14|2 145,0,0,0,0,0,0,0,0,0,0,0,0,0,0,145,
scooby_state_466ce9|12|-4 103,1,3,0,0,0,0,0,0,0,0,0,0,0,0,107,
scooby_state_466ce9|12|-1 64,1,26,0,0,0,0,0,0,0,0,0,0,0,0,91,
scooby_state_466b4e|11|-3 68,8,0,0,0,0,0,0,0,0,0,0,0,0,0,76,
scooby_state_466d27|13|-1 72,0,0,0,0,0,0,0,0,0,0,0,0,0,0,72,
scooby_state_466b4e|11|-2 48,12,0,0,0,0,0,0,0,0,0,0,0,0,0,60,
scooby_state_466af8|21|8 0,0,1,1,1,1,1,2,1,1,1,1,1,2,38,52,
scooby_state_466b4e|11|-10 52,0,0,0,0,0,0,0,0,0,0,0,0,0,0,52,
scooby_state_466af8|21|9 42,0,0,0,0,0,0,0,0,0,0,0,0,0,0,42,
scooby_state_466cb9|16|1 1,1,1,31,0,0,0,0,0,0,0,0,0,0,0,34,
scooby_state_4668af|26|0 24,0,0,0,0,0,0,0,0,0,0,0,0,0,0,24,
scooby_state_4668a0|24|0 24,0,0,0,0,0,0,0,0,0,0,0,0,0,0,24,
scooby_state_4668a0|37|0 24,0,0,0,0,0,0,0,0,0,0,0,0,0,0,24,
scooby_state_4668af|22|0 24,0,0,0,0,0,0,0,0,0,0,0,0,0,0,24,
scooby_state_4668af|54|0 24,0,0,0,0,0,0,0,0,0,0,0,0,0,0,24,
scooby_state_4668af|23|0 24,0,0,0,0,0,0,0,0,0,0,0,0,0,0,24,
scooby_state_4668af|31|0 24,0,0,0,0,0,0,0,0,0,0,0,0,0,0,24,
scooby_state_4668af|29|0 24,0,0,0,0,0,0,0,0,0,0,0,0,0,0,24,
scooby_state_4668a0|51|0 24,0,0,0,0,0,0,0,0,0,0,0,0,0,0,24,
scooby_state_4668a0|21|0 24,0,0,0,0,0,0,0,0,0,0,0,0,0,0,24,
scooby_state_4668a0|18|0 24,0,0,0,0,0,0,0,0,0,0,0,0,0,0,24,
scooby_state_4668af|18|0 23,1,0,0,0,0,0,0,0,0,0,0,0,0,0,24,
scooby_state_4668a0|19|0 24,0,0,0,0,0,0,0,0,0,0,0,0,0,0,24,
scooby_state_4668a0|20|0 24,0,0,0,0,0,0,0,0,0,0,0,0,0,0,24,
scooby_state_4668a0|39|0 24,0,0,0,0,0,0,0,0,0,0,0,0,0,0,24,
scooby_state_4668a0|22|0 24,0,0,0,0,0,0,0,0,0,0,0,0,0,0,24,
scooby_state_4668a0|23|0 24,0,0,0,0,0,0,0,0,0,0,0,0,0,0,24,
scooby_state_4668af|25|0 24,0,0,0,0,0,0,0,0,0,0,0,0,0,0,24,
scooby_state_4668a0|26|0 24,0,0,0,0,0,0,0,0,0,0,0,0,0,0,24,
scooby_state_4668af|27|0 24,0,0,0,0,0,0,0,0,0,0,0,0,0,0,24,
scooby_state_4668a0|28|0 24,0,0,0,0,0,0,0,0,0,0,0,0,0,0,24,
scooby_state_4668a0|29|0 24,0,0,0,0,0,0,0,0,0,0,0,0,0,0,24,
scooby_state_4668a0|54|0 24,0,0,0,0,0,0,0,0,0,0,0,0,0,0,24,
scooby_state_4668af|44|0 24,0,0,0,0,0,0,0,0,0,0,0,0,0,0,24,
scooby_state_4668a0|30|0 24,0,0,0,0,0,0,0,0,0,0,0,0,0,0,24,
scooby_state_4668a0|32|0 24,0,0,0,0,0,0,0,0,0,0,0,0,0,0,24,
scooby_state_4668af|21|0 24,0,0,0,0,0,0,0,0,0,0,0,0,0,0,24,
scooby_state_4668a0|34|0 24,0,0,0,0,0,0,0,0,0,0,0,0,0,0,24,
scooby_state_4668af|33|0 24,0,0,0,0,0,0,0,0,0,0,0,0,0,0,24,
scooby_state_4668a0|57|0 24,0,0,0,0,0,0,0,0,0,0,0,0,0,0,24,
scooby_state_4668a0|27|0 24,0,0,0,0,0,0,0,0,0,0,0,0,0,0,24,
scooby_state_4668a0|25|0 24,0,0,0,0,0,0,0,0,0,0,0,0,0,0,24,
scooby_state_4668af|32|0 24,0,0,0,0,0,0,0,0,0,0,0,0,0,0,24,
scooby_state_4668a0|6|0 24,0,0,0,0,0,0,0,0,0,0,0,0,0,0,24,
scooby_state_4668af|36|0 24,0,0,0,0,0,0,0,0,0,0,0,0,0,0,24,
scooby_state_4668af|4|0 24,0,0,0,0,0,0,0,0,0,0,0,0,0,0,24,
scooby_state_4668af|37|0 24,0,0,0,0,0,0,0,0,0,0,0,0,0,0,24,
scooby_state_4668af|19|0 23,1,0,0,0,0,0,0,0,0,0,0,0,0,0,24,
scooby_state_4668af|17|0 24,0,0,0,0,0,0,0,0,0,0,0,0,0,0,24,
scooby_state_4668af|2|0 24,0,0,0,0,0,0,0,0,0,0,0,0,0,0,24,
scooby_state_4668af|5|0 24,0,0,0,0,0,0,0,0,0,0,0,0,0,0,24,
scooby_state_4668af|24|0 24,0,0,0,0,0,0,0,0,0,0,0,0,0,0,24,
scooby_state_4668a0|10|0 24,0,0,0,0,0,0,0,0,0,0,0,0,0,0,24,
scooby_state_4668af|47|0 23,0,0,0,0,0,0,0,0,0,1,0,0,0,0,24,
scooby_state_4668a0|59|0 24,0,0,0,0,0,0,0,0,0,0,0,0,0,0,24,
scooby_state_4668af|61|0 24,0,0,0,0,0,0,0,0,0,0,0,0,0,0,24,
scooby_state_4668af|8|0 24,0,0,0,0,0,0,0,0,0,0,0,0,0,0,24,
scooby_state_4668af|51|0 24,0,0,0,0,0,0,0,0,0,0,0,0,0,0,24,
scooby_state_4668a0|49|0 24,0,0,0,0,0,0,0,0,0,0,0,0,0,0,24,
scooby_state_4668a0|53|0 23,0,0,1,0,0,0,0,0,0,0,0,0,0,0,24,
scooby_state_4668a0|44|0 24,0,0,0,0,0,0,0,0,0,0,0,0,0,0,24,
scooby_state_4668af|45|0 24,0,0,0,0,0,0,0,0,0,0,0,0,0,0,24,
scooby_state_4668af|46|0 24,0,0,0,0,0,0,0,0,0,0,0,0,0,0,24,
scooby_state_4668a0|46|0 24,0,0,0,0,0,0,0,0,0,0,0,0,0,0,24,
scooby_state_4668a0|48|0 24,0,0,0,0,0,0,0,0,0,0,0,0,0,0,24,
scooby_state_4668af|48|0 24,0,0,0,0,0,0,0,0,0,0,0,0,0,0,24,
scooby_state_4668a0|50|0 24,0,0,0,0,0,0,0,0,0,0,0,0,0,0,24,
scooby_state_4668af|49|0 24,0,0,0,0,0,0,0,0,0,0,0,0,0,0,24,
scooby_state_4668af|50|0 24,0,0,0,0,0,0,0,0,0,0,0,0,0,0,24,
scooby_state_4668a0|52|0 24,0,0,0,0,0,0,0,0,0,0,0,0,0,0,24,
scooby_state_4668af|52|0 24,0,0,0,0,0,0,0,0,0,0,0,0,0,0,24,
scooby_state_4668a0|43|0 24,0,0,0,0,0,0,0,0,0,0,0,0,0,0,24,
scooby_state_4668af|53|0 24,0,0,0,0,0,0,0,0,0,0,0,0,0,0,24,
scooby_state_4668a0|55|0 24,0,0,0,0,0,0,0,0,0,0,0,0,0,0,24,
scooby_state_4668af|55|0 24,0,0,0,0,0,0,0,0,0,0,0,0,0,0,24,
scooby_state_4668a0|56|0 24,0,0,0,0,0,0,0,0,0,0,0,0,0,0,24,
scooby_state_4668af|56|0 24,0,0,0,0,0,0,0,0,0,0,0,0,0,0,24,
scooby_state_4668af|57|0 24,0,0,0,0,0,0,0,0,0,0,0,0,0,0,24,
scooby_state_4668a0|58|0 24,0,0,0,0,0,0,0,0,0,0,0,0,0,0,24,
scooby_state_4668a0|16|0 24,0,0,0,0,0,0,0,0,0,0,0,0,0,0,24,
scooby_state_4668af|58|0 24,0,0,0,0,0,0,0,0,0,0,0,0,0,0,24,
scooby_state_4668a0|13|0 24,0,0,0,0,0,0,0,0,0,0,0,0,0,0,24,
scooby_state_4668af|35|0 24,0,0,0,0,0,0,0,0,0,0,0,0,0,0,24,
scooby_state_4668a0|17|0 24,0,0,0,0,0,0,0,0,0,0,0,0,0,0,24,
scooby_state_4668af|62|0 24,0,0,0,0,0,0,0,0,0,0,0,0,0,0,24,
scooby_state_4668af|20|0 24,0,0,0,0,0,0,0,0,0,0,0,0,0,0,24,
scooby_state_4668af|30|0 24,0,0,0,0,0,0,0,0,0,0,0,0,0,0,24,
scooby_state_4668a0|31|0 24,0,0,0,0,0,0,0,0,0,0,0,0,0,0,24,
scooby_state_4668a0|33|0 24,0,0,0,0,0,0,0,0,0,0,0,0,0,0,24,
scooby_state_4668af|34|0 24,0,0,0,0,0,0,0,0,0,0,0,0,0,0,24,
scooby_state_4668af|16|0 24,0,0,0,0,0,0,0,0,0,0,0,0,0,0,24,
scooby_state_4668af|28|0 24,0,0,0,0,0,0,0,0,0,0,0,0,0,0,24,
scooby_state_4668a0|47|0 24,0,0,0,0,0,0,0,0,0,0,0,0,0,0,24,
scooby_state_4668a0|2|0 24,0,0,0,0,0,0,0,0,0,0,0,0,0,0,24,
scooby_state_4668a0|35|0 24,0,0,0,0,0,0,0,0,0,0,0,0,0,0,24,
scooby_state_4668a0|36|0 24,0,0,0,0,0,0,0,0,0,0,0,0,0,0,24,
scooby_state_4668af|38|0 24,0,0,0,0,0,0,0,0,0,0,0,0,0,0,24,
scooby_state_4668af|39|0 24,0,0,0,0,0,0,0,0,0,0,0,0,0,0,24,
scooby_state_4668a0|38|0 24,0,0,0,0,0,0,0,0,0,0,0,0,0,0,24,
scooby_state_4668a0|40|0 24,0,0,0,0,0,0,0,0,0,0,0,0,0,0,24,
scooby_state_4668af|40|0 24,0,0,0,0,0,0,0,0,0,0,0,0,0,0,24,
scooby_state_4668a0|41|0 24,0,0,0,0,0,0,0,0,0,0,0,0,0,0,24,
scooby_state_4668af|41|0 24,0,0,0,0,0,0,0,0,0,0,0,0,0,0,24,
scooby_state_4668a0|42|0 24,0,0,0,0,0,0,0,0,0,0,0,0,0,0,24,
scooby_state_4668a0|7|0 24,0,0,0,0,0,0,0,0,0,0,0,0,0,0,24,
scooby_state_4668af|11|0 24,0,0,0,0,0,0,0,0,0,0,0,0,0,0,24,
scooby_state_4668a0|11|0 24,0,0,0,0,0,0,0,0,0,0,0,0,0,0,24,
scooby_state_4668af|43|0 24,0,0,0,0,0,0,0,0,0,0,0,0,0,0,24,
scooby_state_4668af|10|0 24,0,0,0,0,0,0,0,0,0,0,0,0,0,0,24,
scooby_state_4668a0|60|0 24,0,0,0,0,0,0,0,0,0,0,0,0,0,0,24,
scooby_state_4668af|60|0 24,0,0,0,0,0,0,0,0,0,0,0,0,0,0,24,
scooby_state_4668af|9|0 24,0,0,0,0,0,0,0,0,0,0,0,0,0,0,24,
scooby_state_4668a0|61|0 24,0,0,0,0,0,0,0,0,0,0,0,0,0,0,24,
scooby_state_4668a0|9|0 24,0,0,0,0,0,0,0,0,0,0,0,0,0,0,24,
scooby_state_4668a0|62|0 24,0,0,0,0,0,0,0,0,0,0,0,0,0,0,24,
scooby_state_4668a0|8|0 24,0,0,0,0,0,0,0,0,0,0,0,0,0,0,24,
scooby_state_4668af|7|0 24,0,0,0,0,0,0,0,0,0,0,0,0,0,0,24,
scooby_state_4668af|59|0 24,0,0,0,0,0,0,0,0,0,0,0,0,0,0,24,
scooby_state_4668af|42|0 24,0,0,0,0,0,0,0,0,0,0,0,0,0,0,24,
scooby_state_4668af|6|0 24,0,0,0,0,0,0,0,0,0,0,0,0,0,0,24,
scooby_state_4668a0|5|0 24,0,0,0,0,0,0,0,0,0,0,0,0,0,0,24,
scooby_state_4668a0|63|0 24,0,0,0,0,0,0,0,0,0,0,0,0,0,0,24,
scooby_state_4668af|63|0 24,0,0,0,0,0,0,0,0,0,0,0,0,0,0,24,
scooby_state_4668a0|1|0 24,0,0,0,0,0,0,0,0,0,0,0,0,0,0,24,
scooby_state_4668a0|4|0 24,0,0,0,0,0,0,0,0,0,0,0,0,0,0,24,
scooby_state_4668af|1|0 24,0,0,0,0,0,0,0,0,0,0,0,0,0,0,24,
scooby_state_4668af|3|0 24,0,0,0,0,0,0,0,0,0,0,0,0,0,0,24,
scooby_state_4668a0|45|0 24,0,0,0,0,0,0,0,0,0,0,0,0,0,0,24,
scooby_state_4668a0|3|0 24,0,0,0,0,0,0,0,0,0,0,0,0,0,0,24,
scooby_state_4668af|14|0 24,0,0,0,0,0,0,0,0,0,0,0,0,0,0,24,
scooby_state_4668a0|14|0 24,0,0,0,0,0,0,0,0,0,0,0,0,0,0,24,
scooby_state_4668a0|15|0 24,0,0,0,0,0,0,0,0,0,0,0,0,0,0,24,
scooby_state_4668af|13|0 23,0,0,0,0,0,0,0,1,0,0,0,0,0,0,24,
[...]
scooby_state_4668b5|3|-2 0,2,0,0,0,0,0,0,0,0,0,0,0,0,0,2,
scooby_state_4668b5|27|-2 0,2,0,0,0,0,0,0,0,0,0,0,0,0,0,2,
scooby_state_4668b5|31|-2 0,2,0,0,0,0,0,0,0,0,0,0,0,0,0,2,
scooby_state_4668a0|61|2 2,0,0,0,0,0,0,0,0,0,0,0,0,0,0,2,
scooby_state_4668af|45|3 2,0,0,0,0,0,0,0,0,0,0,0,0,0,0,2,
scooby_state_4668a6|33|-2 2,0,0,0,0,0,0,0,0,0,0,0,0,0,0,2,
scooby_state_4668a0|40|3 2,0,0,0,0,0,0,0,0,0,0,0,0,0,0,2,
scooby_state_4668a0|21|3 2,0,0,0,0,0,0,0,0,0,0,0,0,0,0,2,
scooby_state_466a76|10|3 2,0,0,0,0,0,0,0,0,0,0,0,0,0,0,2,
scooby_state_4668a6|52|-2 2,0,0,0,0,0,0,0,0,0,0,0,0,0,0,2,
scooby_state_4668b5|42|-2 0,2,0,0,0,0,0,0,0,0,0,0,0,0,0,2,
scooby_state_4668a6|10|-1 2,0,0,0,0,0,0,0,0,0,0,0,0,0,0,2,
scooby_state_4668af|36|3 2,0,0,0,0,0,0,0,0,0,0,0,0,0,0,2,
scooby_state_4668a6|8|-2 2,0,0,0,0,0,0,0,0,0,0,0,0,0,0,2,
scooby_state_4668a0|33|3 2,0,0,0,0,0,0,0,0,0,0,0,0,0,0,2,
scooby_state_4668a0|34|3 2,0,0,0,0,0,0,0,0,0,0,0,0,0,0,2,
scooby_state_466ca3|15|-5 2,0,0,0,0,0,0,0,0,0,0,0,0,0,0,2,
scooby_state_4668a0|36|3 2,0,0,0,0,0,0,0,0,0,0,0,0,0,0,2,
scooby_state_466af8|21|11 1,0,0,0,0,0,0,0,0,0,0,0,0,0,1,2,
scooby_state_4668af|60|2 2,0,0,0,0,0,0,0,0,0,0,0,0,0,0,2,
scooby_state_4668b5|44|-1 0,2,0,0,0,0,0,0,0,0,0,0,0,0,0,2,
scooby_state_4668a6|3|-2 2,0,0,0,0,0,0,0,0,0,0,0,0,0,0,2,
scooby_state_4668af|8|2 2,0,0,0,0,0,0,0,0,0,0,0,0,0,0,2,
scooby_state_4668a0|8|2 2,0,0,0,0,0,0,0,0,0,0,0,0,0,0,2,
scooby_state_4668a6|21|-1 2,0,0,0,0,0,0,0,0,0,0,0,0,0,0,2,
scooby_state_4668a0|30|2 2,0,0,0,0,0,0,0,0,0,0,0,0,0,0,2,
scooby_state_4668af|34|2 2,0,0,0,0,0,0,0,0,0,0,0,0,0,0,2,
scooby_state_4668b5|28|-1 0,2,0,0,0,0,0,0,0,0,0,0,0,0,0,2,
scooby_state_4668b5|4|-2 0,2,0,0,0,0,0,0,0,0,0,0,0,0,0,2,
scooby_state_4668b5|18|-2 0,2,0,0,0,0,0,0,0,0,0,0,0,0,0,2,
scooby_state_4668a0|11|2 2,0,0,0,0,0,0,0,0,0,0,0,0,0,0,2,
scooby_state_4668b5|20|-1 0,2,0,0,0,0,0,0,0,0,0,0,0,0,0,2,
scooby_state_4668a0|60|2 2,0,0,0,0,0,0,0,0,0,0,0,0,0,0,2,
scooby_state_4668af|33|3 2,0,0,0,0,0,0,0,0,0,0,0,0,0,0,2,
scooby_state_4668b5|58|-1 0,2,0,0,0,0,0,0,0,0,0,0,0,0,0,2,
scooby_state_4668a6|58|-1 2,0,0,0,0,0,0,0,0,0,0,0,0,0,0,2,
scooby_state_4667fc|8|-2 2,0,0,0,0,0,0,0,0,0,0,0,0,0,0,2,
scooby_state_4668af|11|2 2,0,0,0,0,0,0,0,0,0,0,0,0,0,0,2,
scooby_state_4668b5|22|-2 0,2,0,0,0,0,0,0,0,0,0,0,0,0,0,2,
scooby_state_4668af|57|2 2,0,0,0,0,0,0,0,0,0,0,0,0,0,0,2,
scooby_state_4668a0|57|2 2,0,0,0,0,0,0,0,0,0,0,0,0,0,0,2,
scooby_state_4668b5|43|-1 0,2,0,0,0,0,0,0,0,0,0,0,0,0,0,2,
scooby_state_4668b5|39|-1 0,2,0,0,0,0,0,0,0,0,0,0,0,0,0,2,
scooby_state_4668a0|27|2 2,0,0,0,0,0,0,0,0,0,0,0,0,0,0,2,
scooby_state_4668a6|39|-1 2,0,0,0,0,0,0,0,0,0,0,0,0,0,0,2,
scooby_state_4668af|38|2 2,0,0,0,0,0,0,0,0,0,0,0,0,0,0,2,
scooby_state_4668b5|36|-1 0,2,0,0,0,0,0,0,0,0,0,0,0,0,0,2,
scooby_state_4668b5|30|-2 0,2,0,0,0,0,0,0,0,0,0,0,0,0,0,2,
scooby_state_4668a6|30|-2 2,0,0,0,0,0,0,0,0,0,0,0,0,0,0,2,
scooby_state_4668b5|5|-1 0,2,0,0,0,0,0,0,0,0,0,0,0,0,0,2,
scooby_state_4668a6|54|-1 2,0,0,0,0,0,0,0,0,0,0,0,0,0,0,2,
scooby_state_4668b5|24|-1 0,2,0,0,0,0,0,0,0,0,0,0,0,0,0,2,
scooby_state_4668b5|55|-1 0,2,0,0,0,0,0,0,0,0,0,0,0,0,0,2,
scooby_state_4668a6|24|-1 2,0,0,0,0,0,0,0,0,0,0,0,0,0,0,2,
scooby_state_4668af|23|2 2,0,0,0,0,0,0,0,0,0,0,0,0,0,0,2,
scooby_state_4668a0|23|2 2,0,0,0,0,0,0,0,0,0,0,0,0,0,0,2,
scooby_state_4668b5|21|-1 0,2,0,0,0,0,0,0,0,0,0,0,0,0,0,2,
scooby_state_4668af|18|3 2,0,0,0,0,0,0,0,0,0,0,0,0,0,0,2,
scooby_state_4668b5|15|-2 0,2,0,0,0,0,0,0,0,0,0,0,0,0,0,2,
scooby_state_4668af|19|2 2,0,0,0,0,0,0,0,0,0,0,0,0,0,0,2,
scooby_state_4668a0|18|3 2,0,0,0,0,0,0,0,0,0,0,0,0,0,0,2,
scooby_state_4668a0|41|2 2,0,0,0,0,0,0,0,0,0,0,0,0,0,0,2,
scooby_state_4668af|46|2 2,0,0,0,0,0,0,0,0,0,0,0,0,0,0,2,
scooby_state_4668af|40|3 2,0,0,0,0,0,0,0,0,0,0,0,0,0,0,2,
scooby_state_466bd5|9|0 2,0,0,0,0,0,0,0,0,0,0,0,0,0,0,2,
scooby_state_466a5e|7|-4 2,0,0,0,0,0,0,0,0,0,0,0,0,0,0,2,
scooby_state_4668af|31|2 2,0,0,0,0,0,0,0,0,0,0,0,0,0,0,2,
scooby_state_4668af|26|2 2,0,0,0,0,0,0,0,0,0,0,0,0,0,0,2,
scooby_state_4668a0|45|3 2,0,0,0,0,0,0,0,0,0,0,0,0,0,0,2,
scooby_state_4668af|56|2 2,0,0,0,0,0,0,0,0,0,0,0,0,0,0,2,
scooby_state_4668b5|9|-1 0,2,0,0,0,0,0,0,0,0,0,0,0,0,0,2,
scooby_state_466b7d|18|5 2,0,0,0,0,0,0,0,0,0,0,0,0,0,0,2,
scooby_state_4668b5|37|-2 0,2,0,0,0,0,0,0,0,0,0,0,0,0,0,2,
scooby_state_466bea|14|0 2,0,0,0,0,0,0,0,0,0,0,0,0,0,0,2,
scooby_state_466d9a|7|-1 2,0,0,0,0,0,0,0,0,0,0,0,0,0,0,2,
scooby_state_4668a6|31|-2 2,0,0,0,0,0,0,0,0,0,0,0,0,0,0,2,
scooby_state_4668a6|6|-1 2,0,0,0,0,0,0,0,0,0,0,0,0,0,0,2,
scooby_state_4668a6|9|-1 2,0,0,0,0,0,0,0,0,0,0,0,0,0,0,2,
scooby_state_4668a6|36|-1 2,0,0,0,0,0,0,0,0,0,0,0,0,0,0,2,
scooby_state_4668a0|30|3 2,0,0,0,0,0,0,0,0,0,0,0,0,0,0,2,
scooby_state_4668a0|38|2 2,0,0,0,0,0,0,0,0,0,0,0,0,0,0,2,
scooby_state_4668a6|22|-2 2,0,0,0,0,0,0,0,0,0,0,0,0,0,0,2,
scooby_state_4668b5|35|-1 0,2,0,0,0,0,0,0,0,0,0,0,0,0,0,2,
scooby_state_4668b5|29|-1 0,2,0,0,0,0,0,0,0,0,0,0,0,0,0,2,
scooby_state_4668a0|42|2 2,0,0,0,0,0,0,0,0,0,0,0,0,0,0,2,
scooby_state_4668b5|17|-1 0,2,0,0,0,0,0,0,0,0,0,0,0,0,0,2,
scooby_state_466b90|29|0 2,0,0,0,0,0,0,0,0,0,0,0,0,0,0,2,
scooby_state_4668a6|49|-2 2,0,0,0,0,0,0,0,0,0,0,0,0,0,0,2,
scooby_state_4668af|45|2 2,0,0,0,0,0,0,0,0,0,0,0,0,0,0,2,
scooby_state_4668a0|45|2 2,0,0,0,0,0,0,0,0,0,0,0,0,0,0,2,
scooby_state_4668a6|43|-1 2,0,0,0,0,0,0,0,0,0,0,0,0,0,0,2,
scooby_state_4668af|49|3 2,0,0,0,0,0,0,0,0,0,0,0,0,0,0,2,
scooby_state_4668af|15|3 2,0,0,0,0,0,0,0,0,0,0,0,0,0,0,2,
scooby_state_4668af|42|2 2,0,0,0,0,0,0,0,0,0,0,0,0,0,0,2,
scooby_state_4668a0|49|3 2,0,0,0,0,0,0,0,0,0,0,0,0,0,0,2,
scooby_state_4668a6|1|-2 2,0,0,0,0,0,0,0,0,0,0,0,0,0,0,2,
scooby_state_4668b5|40|-1 0,2,0,0,0,0,0,0,0,0,0,0,0,0,0,2,
scooby_state_4668a6|40|-1 2,0,0,0,0,0,0,0,0,0,0,0,0,0,0,2,
scooby_state_4668a6|35|-1 2,0,0,0,0,0,0,0,0,0,0,0,0,0,0,2,
scooby_state_4668a0|37|3 2,0,0,0,0,0,0,0,0,0,0,0,0,0,0,2,
scooby_state_4668a6|34|-2 2,0,0,0,0,0,0,0,0,0,0,0,0,0,0,2,
scooby_state_4668b5|59|-1 0,2,0,0,0,0,0,0,0,0,0,0,0,0,0,2,
scooby_state_4668a0|60|3 2,0,0,0,0,0,0,0,0,0,0,0,0,0,0,2,
scooby_state_4668af|7|2 2,0,0,0,0,0,0,0,0,0,0,0,0,0,0,2,
scooby_state_4668af|30|2 2,0,0,0,0,0,0,0,0,0,0,0,0,0,0,2,
scooby_state_4668b5|13|-1 0,2,0,0,0,0,0,0,0,0,0,0,0,0,0,2,
scooby_state_4668a6|17|-1 2,0,0,0,0,0,0,0,0,0,0,0,0,0,0,2,
scooby_state_4668b5|16|-2 0,2,0,0,0,0,0,0,0,0,0,0,0,0,0,2,
scooby_state_4668af|51|3 2,0,0,0,0,0,0,0,0,0,0,0,0,0,0,2,
scooby_state_4668af|6|3 2,0,0,0,0,0,0,0,0,0,0,0,0,0,0,2,
scooby_state_4668b5|6|-1 0,2,0,0,0,0,0,0,0,0,0,0,0,0,0,2,
scooby_state_4668a0|26|2 2,0,0,0,0,0,0,0,0,0,0,0,0,0,0,2,
scooby_state_466a56|11|3 2,0,0,0,0,0,0,0,0,0,0,0,0,0,0,2,
scooby_state_4668af|15|2 2,0,0,0,0,0,0,0,0,0,0,0,0,0,0,2,
scooby_state_4668a0|15|2 2,0,0,0,0,0,0,0,0,0,0,0,0,0,0,2,
scooby_state_4668a0|19|2 2,0,0,0,0,0,0,0,0,0,0,0,0,0,0,2,
scooby_state_4668a6|13|-1 2,0,0,0,0,0,0,0,0,0,0,0,0,0,0,2,
scooby_state_4668af|12|2 2,0,0,0,0,0,0,0,0,0,0,0,0,0,0,2,
scooby_state_4668a0|12|2 2,0,0,0,0,0,0,0,0,0,0,0,0,0,0,2,
scooby_state_4668a6|42|-2 2,0,0,0,0,0,0,0,0,0,0,0,0,0,0,2,
scooby_state_4668b5|10|-1 0,2,0,0,0,0,0,0,0,0,0,0,0,0,0,2,
scooby_state_4668af|7|3 2,0,0,0,0,0,0,0,0,0,0,0,0,0,0,2,
scooby_state_4668a0|7|3 2,0,0,0,0,0,0,0,0,0,0,0,0,0,0,2,
scooby_state_4668a6|4|-2 2,0,0,0,0,0,0,0,0,0,0,0,0,0,0,2,
scooby_state_4668b5|8|-2 0,2,0,0,0,0,0,0,0,0,0,0,0,0,0,2,
scooby_state_4668a6|55|-1 2,0,0,0,0,0,0,0,0,0,0,0,0,0,0,2,
scooby_state_4668af|21|3 2,0,0,0,0,0,0,0,0,0,0,0,0,0,0,2,
scooby_state_466a47|8|0 2,0,0,0,0,0,0,0,0,0,0,0,0,0,0,2,
scooby_state_4668a6|14|-2 2,0,0,0,0,0,0,0,0,0,0,0,0,0,0,2,
scooby_state_4668b5|25|-1 0,2,0,0,0,0,0,0,0,0,0,0,0,0,0,2,
scooby_state_4668af|22|2 2,0,0,0,0,0,0,0,0,0,0,0,0,0,0,2,
scooby_state_4668a0|52|3 2,0,0,0,0,0,0,0,0,0,0,0,0,0,0,2,
scooby_state_4668a0|11|3 2,0,0,0,0,0,0,0,0,0,0,0,0,0,0,2,
scooby_state_4668b5|54|-1 0,2,0,0,0,0,0,0,0,0,0,0,0,0,0,2,
scooby_state_4668a0|46|2 2,0,0,0,0,0,0,0,0,0,0,0,0,0,0,2,
scooby_state_4668a6|28|-1 2,0,0,0,0,0,0,0,0,0,0,0,0,0,0,2,
scooby_state_4668af|11|3 2,0,0,0,0,0,0,0,0,0,0,0,0,0,0,2,
scooby_state_4668a6|61|-2 2,0,0,0,0,0,0,0,0,0,0,0,0,0,0,2,
scooby_state_4668a0|34|2 2,0,0,0,0,0,0,0,0,0,0,0,0,0,0,2,
scooby_state_4668b5|2|-1 0,2,0,0,0,0,0,0,0,0,0,0,0,0,0,2,
scooby_state_4668b5|12|-2 0,2,0,0,0,0,0,0,0,0,0,0,0,0,0,2,
scooby_state_4668b5|52|-2 0,2,0,0,0,0,0,0,0,0,0,0,0,0,0,2,
scooby_state_4668b5|47|-1 0,2,0,0,0,0,0,0,0,0,0,0,0,0,0,2,
scooby_state_4668af|19|3 2,0,0,0,0,0,0,0,0,0,0,0,0,0,0,2,
scooby_state_4668a6|29|-1 2,0,0,0,0,0,0,0,0,0,0,0,0,0,0,2,
scooby_state_4668a6|44|-1 2,0,0,0,0,0,0,0,0,0,0,0,0,0,0,2,
scooby_state_4668af|53|2 2,0,0,0,0,0,0,0,0,0,0,0,0,0,0,2,
scooby_state_4668af|37|2 2,0,0,0,0,0,0,0,0,0,0,0,0,0,0,2,
scooby_state_4668a0|56|2 2,0,0,0,0,0,0,0,0,0,0,0,0,0,0,2,
scooby_state_4668a0|37|2 2,0,0,0,0,0,0,0,0,0,0,0,0,0,0,2,
scooby_state_4668a6|15|-2 2,0,0,0,0,0,0,0,0,0,0,0,0,0,0,2,
scooby_state_4668a6|32|-1 2,0,0,0,0,0,0,0,0,0,0,0,0,0,0,2,
scooby_state_4668a0|4|2 2,0,0,0,0,0,0,0,0,0,0,0,0,0,0,2,
scooby_state_4668a0|31|2 2,0,0,0,0,0,0,0,0,0,0,0,0,0,0,2,
scooby_state_4668af|61|2 2,0,0,0,0,0,0,0,0,0,0,0,0,0,0,2,
scooby_state_4668a0|22|2 2,0,0,0,0,0,0,0,0,0,0,0,0,0,0,2,
scooby_state_4668af|4|2 2,0,0,0,0,0,0,0,0,0,0,0,0,0,0,2,
scooby_state_4668a6|20|-1 2,0,0,0,0,0,0,0,0,0,0,0,0,0,0,2,
scooby_state_4668b5|46|-2 0,2,0,0,0,0,0,0,0,0,0,0,0,0,0,2,
scooby_state_4668af|52|2 2,0,0,0,0,0,0,0,0,0,0,0,0,0,0,2,
scooby_state_4668a6|2|-1 2,0,0,0,0,0,0,0,0,0,0,0,0,0,0,2,
scooby_state_4668a0|7|2 2,0,0,0,0,0,0,0,0,0,0,0,0,0,0,2,
scooby_state_4668a6|5|-1 2,0,0,0,0,0,0,0,0,0,0,0,0,0,0,2,
scooby_state_4668b5|51|-1 0,2,0,0,0,0,0,0,0,0,0,0,0,0,0,2,
scooby_state_4668af|27|2 2,0,0,0,0,0,0,0,0,0,0,0,0,0,0,2,
scooby_state_466980|6|0 2,0,0,0,0,0,0,0,0,0,0,0,0,0,0,2,
scooby_state_4668a0|52|2 2,0,0,0,0,0,0,0,0,0,0,0,0,0,0,2,
scooby_state_4668a6|59|-1 2,0,0,0,0,0,0,0,0,0,0,0,0,0,0,2,
scooby_state_4668b5|50|-1 0,2,0,0,0,0,0,0,0,0,0,0,0,0,0,2,
scooby_state_4668af|41|2 2,0,0,0,0,0,0,0,0,0,0,0,0,0,0,2,
scooby_state_4668b5|48|-2 0,2,0,0,0,0,0,0,0,0,0,0,0,0,0,2,
scooby_state_4668b5|32|-1 0,2,0,0,0,0,0,0,0,0,0,0,0,0,0,2,
scooby_state_4668a6|50|-1 2,0,0,0,0,0,0,0,0,0,0,0,0,0,0,2,
scooby_state_4668af|49|2 2,0,0,0,0,0,0,0,0,0,0,0,0,0,0,2,
scooby_state_4668a6|51|-1 2,0,0,0,0,0,0,0,0,0,0,0,0,0,0,2,
scooby_state_4668a0|49|2 2,0,0,0,0,0,0,0,0,0,0,0,0,0,0,2,
scooby_state_4668a6|47|-1 2,0,0,0,0,0,0,0,0,0,0,0,0,0,0,2,
scooby_state_466901|36|1 1,0,0,0,0,0,0,0,0,0,0,0,0,0,0,1,
scooby_state_466ab0|42|-10 1,0,0,0,0,0,0,0,0,0,0,0,0,0,0,1,
scooby_state_466d01|52|1 1,0,0,0,0,0,0,0,0,0,0,0,0,0,0,1,
scooby_state_4668a6|7|-2 1,0,0,0,0,0,0,0,0,0,0,0,0,0,0,1,
scooby_state_466986|6|0 1,0,0,0,0,0,0,0,0,0,0,0,0,0,0,1,
scooby_state_4668a0|51|3 1,0,0,0,0,0,0,0,0,0,0,0,0,0,0,1,
scooby_state_466af8|21|6 0,0,0,0,0,0,0,0,0,0,0,0,0,0,1,1,
scooby_state_466b00|44|1 1,0,0,0,0,0,0,0,0,0,0,0,0,0,0,1,
scooby_state_466c80|50|1 1,0,0,0,0,0,0,0,0,0,0,0,0,0,0,1,
scooby_state_466d44|53|0 1,0,0,0,0,0,0,0,0,0,0,0,0,0,0,1,
scooby_state_466b36|12|-9 0,1,0,0,0,0,0,0,0,0,0,0,0,0,0,1,
scooby_state_466cc1|51|4 1,0,0,0,0,0,0,0,0,0,0,0,0,0,0,1,
scooby_state_466b85|46|1 1,0,0,0,0,0,0,0,0,0,0,0,0,0,0,1,
scooby_state_4668a6|48|-2 1,0,0,0,0,0,0,0,0,0,0,0,0,0,0,1,
scooby_state_466b90|34|0 1,0,0,0,0,0,0,0,0,0,0,0,0,0,0,1,
scooby_state_466b6f|17|-2 1,0,0,0,0,0,0,0,0,0,0,0,0,0,0,1,
scooby_state_466daa|8|1 1,0,0,0,0,0,0,0,0,0,0,0,0,0,0,1,
scooby_state_4668b5|7|-2 0,1,0,0,0,0,0,0,0,0,0,0,0,0,0,1,
scooby_state_466844|33|1 0,0,0,0,0,0,0,0,0,0,0,0,0,0,1,1,
scooby_state_466940|37|0 1,0,0,0,0,0,0,0,0,0,0,0,0,0,0,1,
scooby_state_466804|32|1 1,0,0,0,0,0,0,0,0,0,0,0,0,0,0,1,
scooby_state_4668a0|10|3 1,0,0,0,0,0,0,0,0,0,0,0,0,0,0,1,
scooby_state_466c55|18|0 1,0,0,0,0,0,0,0,0,0,0,0,0,0,0,1,
scooby_state_4668af|10|3 1,0,0,0,0,0,0,0,0,0,0,0,0,0,0,1,
scooby_state_466dc1|55|1 0,0,0,1,0,0,0,0,0,0,0,0,0,0,0,1,
scooby_state_466c44|49|1 1,0,0,0,0,0,0,0,0,0,0,0,0,0,0,1,
scooby_state_4669c0|39|1 1,0,0,0,0,0,0,0,0,0,0,0,0,0,0,1,
scooby_state_4668c2|35|1 1,0,0,0,0,0,0,0,0,0,0,0,0,0,0,1,
scooby_state_466a10|40|1 1,0,0,0,0,0,0,0,0,0,0,0,0,0,0,1,
scooby_state_466881|12|0 1,0,0,0,0,0,0,0,0,0,0,0,0,0,0,1,
scooby_state_466d82|54|1 1,0,0,0,0,0,0,0,0,0,0,0,0,0,0,1,
scooby_state_466c20|48|0 1,0,0,0,0,0,0,0,0,0,0,0,0,0,0,1,
scooby_state_466a41|41|1 1,0,0,0,0,0,0,0,0,0,0,0,0,0,0,1,
scooby_state_466bea|4|0 1,0,0,0,0,0,0,0,0,0,0,0,0,0,0,1,
scooby_state_466b60|45|-5 1,0,0,0,0,0,0,0,0,0,0,0,0,0,0,1,
scooby_state_466c78|19|-1 1,0,0,0,0,0,0,0,0,0,0,0,0,0,0,1,
scooby_state_466d9a|7|-3 1,0,0,0,0,0,0,0,0,0,0,0,0,0,0,1,
scooby_state_466b0f|13|-3 1,0,0,0,0,0,0,0,0,0,0,0,0,0,0,1,
scooby_state_466bd5|63|0 1,0,0,0,0,0,0,0,0,0,0,0,0,0,0,1,
scooby_state_466bc4|47|1 1,0,0,0,0,0,0,0,0,0,0,0,0,0,0,1,
scooby_state_466ac0|43|1 1,0,0,0,0,0,0,0,0,0,0,0,0,0,0,1,
scooby_state_466ca3|15|-2 1,0,0,0,0,0,0,0,0,0,0,0,0,0,0,1,
scooby_state_4667c0|31|-24 1,0,0,0,0,0,0,0,0,0,0,0,0,0,0,1,
scooby_state_466881|34|1 1,0,0,0,0,0,0,0,0,0,0,0,0,0,0,1,

scooby_action_0_deg_dist 0,2175,0,0,0,0,0,0,0,0,0,0,0,0,0,0,
scooby_action_-6_deg_dist 0,102,0,0,0,0,0,0,0,0,0,0,0,0,0,0,
scooby_action_4_deg_dist 0,771,0,0,0,0,0,0,0,0,0,0,0,0,0,0,
scooby_action_1_deg_dist 0,68181,41166,0,98740,0,690438,0,0,0,0,0,0,0,0,0,
scooby_action_30_deg_dist 0,132,0,0,0,0,0,0,0,0,0,0,0,0,0,0,
scooby_action_3_deg_dist 0,537,0,0,0,0,0,0,0,0,0,0,0,0,0,0,
scooby_action_32_deg_dist 0,104,0,0,0,0,0,0,0,0,0,0,0,0,0,0,
scooby_action_5_deg_dist 0,1203,0,0,0,0,0,0,0,0,0,0,0,0,0,0,
scooby_action_10_deg_dist 0,150,0,0,0,0,0,0,0,0,0,0,0,0,0,0,
scooby_action_23_deg_dist 0,125,0,0,0,0,0,0,0,0,0,0,0,0,0,0,
scooby_action_-1_deg_dist 0,125,0,0,0,0,0,0,0,0,0,0,0,0,0,0,
scooby_action_11_deg_dist 0,119,0,0,0,0,0,0,0,0,0,0,0,0,0,0,
scooby_action_12_deg_dist 0,123,0,0,0,0,0,0,0,0,0,0,0,0,0,0,
scooby_action_22_deg_dist 0,129,0,0,0,0,0,0,0,0,0,0,0,0,0,0,
scooby_action_-3_deg_dist 0,117,0,0,0,0,0,0,0,0,0,0,0,0,0,0,

scooby_track_called 904437
scooby_track_same_address 2119
scooby_track_evict 902062

scooby_reward_demand_called 904437
scooby_reward_demand_pt_not_found 29223
scooby_reward_demand_pt_found 875214
scooby_reward_demand_pt_found_total 875214
scooby_reward_demand_has_reward 0
scooby_reward_train_called 12832
scooby_reward_assign_reward_called 902316
scooby_reward_no_pref 2175
scooby_reward_incorrect 10657
scooby_reward_correct_untimely 779808
scooby_reward_correct_timely 95406
scooby_reward_out_of_bounds 14270
scooby_reward_tracker_hit 0

scooby_reward_none_low_bw 2175
scooby_reward_none_high_bw 0
scooby_reward_incorrect_low_bw 10657
scooby_reward_incorrect_high_bw 0
scooby_reward_correct_untimely_low_bw 779808
scooby_reward_correct_untimely_high_bw 0
scooby_reward_correct_timely_low_bw 95406
scooby_reward_correct_timely_high_bw 0
scooby_reward_out_of_bounds_low_bw 14270
scooby_reward_out_of_bounds_high_bw 0
scooby_reward_tracker_hit_low_bw 0
scooby_reward_tracker_hit_high_bw 0

scooby_reward_1 0,10408,778550,94600,13964,0,
scooby_reward_3 0,22,85,239,22,0,
scooby_reward_4 0,15,50,50,6,0,
scooby_reward_5 0,18,1123,53,9,0,
scooby_reward_10 0,18,0,93,18,0,
scooby_reward_11 0,20,0,84,15,0,
scooby_reward_12 0,18,0,89,16,0,
scooby_reward_22 0,20,0,59,50,0,
scooby_reward_23 0,21,0,56,48,0,
scooby_reward_30 0,27,0,48,57,0,
scooby_reward_32 0,23,0,35,46,0,
scooby_reward_-1 0,14,0,0,2,0,
scooby_reward_-3 0,16,0,0,5,0,
scooby_reward_-6 0,17,0,0,12,0,
scooby_reward_0 2175,0,0,0,0,0,

scooby_train_called 902061
scooby_train_compute_reward 12832

scooby_register_fill_called 858350
scooby_register_fill_set 97107
scooby_register_fill_set_total 97107

scooby_register_prefetch_hit_called 2800553
scooby_register_prefetch_hit_set 740332
scooby_register_prefetch_hit_set_total 740332

scooby_pref_issue_scooby 4410481

learning_engine_featurewise.action.called 904437
learning_engine_featurewise.action.explore 1661
learning_engine_featurewise.action.exploit 902776
learning_engine_featurewise.action.fallback 0
learning_engine_featurewise.action.dyn_fallback_saved_bw 0
learning_engine_featurewise.action.dyn_fallback_saved_bw_acc 156
learning_engine_featurewise.action.index_1_explored 114
learning_engine_featurewise.action.index_1_exploited 898411
learning_engine_featurewise.action.index_3_explored 119
learning_engine_featurewise.action.index_3_exploited 418
learning_engine_featurewise.action.index_4_explored 109
learning_engine_featurewise.action.index_4_exploited 662
learning_engine_featurewise.action.index_5_explored 108
learning_engine_featurewise.action.index_5_exploited 1095
learning_engine_featurewise.action.index_10_explored 120
learning_engine_featurewise.action.index_10_exploited 30
learning_engine_featurewise.action.index_11_explored 106
learning_engine_featurewise.action.index_11_exploited 13
learning_engine_featurewise.action.index_12_explored 114
learning_engine_featurewise.action.index_12_exploited 9
learning_engine_featurewise.action.index_22_explored 118
learning_engine_featurewise.action.index_22_exploited 11
learning_engine_featurewise.action.index_23_explored 116
learning_engine_featurewise.action.index_23_exploited 9
learning_engine_featurewise.action.index_30_explored 122
learning_engine_featurewise.action.index_30_exploited 10
learning_engine_featurewise.action.index_32_explored 93
learning_engine_featurewise.action.index_32_exploited 11
learning_engine_featurewise.action.index_-1_explored 113
learning_engine_featurewise.action.index_-1_exploited 12
learning_engine_featurewise.action.index_-3_explored 107
learning_engine_featurewise.action.index_-3_exploited 10
learning_engine_featurewise.action.index_-6_explored 91
learning_engine_featurewise.action.index_-6_exploited 11
learning_engine_featurewise.action.index_0_explored 111
learning_engine_featurewise.action.index_0_exploited 2064
learning_engine_featurewise.learn.called 902061
learning_engine_featurewise.learn.su_skip_PC 0
learning_engine_featurewise.learn.su_skip_PC_Delta 0

learning_engine_featurewise.q_value_histogram.bucket_0 0
learning_engine_featurewise.q_value_histogram.bucket_1 0
learning_engine_featurewise.q_value_histogram.bucket_2 0
learning_engine_featurewise.q_value_histogram.bucket_3 230
learning_engine_featurewise.q_value_histogram.bucket_4 3441
learning_engine_featurewise.q_value_histogram.bucket_5 3153
learning_engine_featurewise.q_value_histogram.bucket_6 895952
learning_engine_featurewise.q_value_histogram.bucket_7 0

learning_engine_featurewise.consensus.total 902776
learning_engine_featurewise.consensus.feature_align_PC 900940
learning_engine_featurewise.consensus.feature_align_PC_ratio 1.00
learning_engine_featurewise.consensus.feature_align_PC_Delta 900522
learning_engine_featurewise.consensus.feature_align_PC_Delta_ratio 1.00
learning_engine_featurewise.consensus.feature_align_all 898686
learning_engine_featurewise.consensus.feature_align_all_ratio 1.00

learning_engine_featurewise.feature_PC_min_weight 1000000.00000000
learning_engine_featurewise.feature_PC_max_weight 0.00000000
learning_engine_featurewise.feature_PC_Delta_min_weight 1000000.00000000
learning_engine_featurewise.feature_PC_Delta_max_weight 0.00000000
unique_pcs 74
unique_pages 12933
unique_trigger_pcs 29
total_bitmaps_seen 0
unique_bitmaps_seen 0

scooby_bw_epochs 242160
scooby_bw_level_0 35683
scooby_bw_level_1 115345
scooby_bw_level_2 61556
scooby_bw_level_3 29576

scooby_ipc_epochs 0
scooby_ipc_level_0 0
scooby_ipc_level_1 0
scooby_ipc_level_2 0
scooby_ipc_level_3 0

scooby_cache_acc_epochs 58213
scooby_cache_acc_level_0 1
scooby_cache_acc_level_1 2
scooby_cache_acc_level_2 19
scooby_cache_acc_level_3 95
scooby_cache_acc_level_4 288
scooby_cache_acc_level_5 624
scooby_cache_acc_level_6 992
scooby_cache_acc_level_7 2762
scooby_cache_acc_level_8 8946
scooby_cache_acc_level_9 44484

Channel_0_RQ_row_buffer_hit 282411
Channel_0_RQ_row_buffer_miss 828255
Channel_0_WQ_row_buffer_hit 63850
Channel_0_WQ_row_buffer_miss 279689
Channel_0_WQ_full 0
Channel_0_dbus_congested 732714

avg_congested_cycle 10

DRAM_bw_pochs 242160
DRAM_bw_level_0 35683
DRAM_bw_level_1 115345
DRAM_bw_level_2 61556
DRAM_bw_level_3 29576
