*************************************************
   ChampSim Multicore Out-of-Order Simulator
   Last compiled: Apr  3 2025 20:54:34
*************************************************
parsing config file: /home/zir/Pythia/config/nopref.ini

trace_0 /home/zir/ChampSim/ML-DPC/ChampSimTraces/spec17/654.roms-s2.trace.xz
adding L2C_PREFETCHER: NONE
Initialize SHIP state
warmup_instructions 10000000
simulation_instructions 50000000
champsim_seed 165
measure_ipc 0
measure_ipc_epoch 1000
measure_dram_bw 1
measure_dram_bw_epoch 256
measure_cache_acc 1
measure_cache_acc_epoch 1024
l1d_perfect 0
l2c_perfect 0
llc_perfect 0
l1d_semi_perfect 0
l2c_semi_perfect 0
llc_semi_perfect 0
semi_perfect_cache_page_buffer_size 64

num_cpus 1
cpu_freq 4000
dram_io_freq 2400
page_size 4096
block_size 64
max_read_per_cycle 8
max_fill_per_cycle 1
dram_channels 1
log2_dram_channels 0
dram_ranks 1
dram_banks 8
dram_rows 65536
dram_columns 128
dram_row_size 8
dram_size 4096
dram_pages 1048576

fetch_width 6
decode_width 6
exec_width 4
lq_width 2
sq_width 2
retire_width 4
scheduler_size 128
branch_mispredict_penalty 20
rob_size 256
lq_size 72
sq_size 56
num_instr_destinations_sparc 4
num_instr_destinations 2
num_instr_sources 4

itlb_set 16
itlb_way 8
itlb_rq_size 16
itlb_wq_size 16
itlb_pq_size 0
itlb_mshr_size 8
itlb_latency 1

dtlb_set 16
dtlb_way 4
dtlb_rq_size 16
dtlb_wq_size 16
dtlb_pq_size 0
dtlb_mshr_size 8
dtlb_latency 1

stlb_set 128
stlb_way 12
stlb_rq_size 32
stlb_wq_size 32
stlb_pq_size 0
stlb_mshr_size 16
stlb_latency 8

l1i_size 32
l1i_set 64
l1i_way 8
l1i_rq_size 64
l1i_wq_size 64
l1i_pq_size 8
l1i_mshr_size 8
l1i_latency 1

l1d_size 32
l1d_set 64
l1d_way 8
l1d_rq_size 64
l1d_wq_size 64
l1d_pq_size 8
l1d_mshr_size 16
l1d_latency 4

l2c_size 256
l2c_set 512
l2c_way 8
l2c_rq_size 32
l2c_wq_size 32
l2c_pq_size 32
l2c_mshr_size 32
l2c_latency 10

llc_size 2048
llc_set 2048
llc_way 16
llc_rq_size 32
llc_wq_size 32
llc_pq_size 32
llc_mshr_size 64
llc_latency 20

dram_channel_width 8
dram_wq_size 64
dram_rq_size 64
tRP 15
tRCD 15
tCAS 12.5
dram_dbus_turn_around_time 30
dram_write_high_wm 56
dram_write_low_wm 48
min_dram_writes_per_switch 16
dram_mtps 2400
dram_dbus_return_time 13


Heartbeat CPU  0 instructions:    1000002 cycles:     491269 heartbeat IPC: 2.03555 cumulative IPC: 2.03555 (Simulation time: 0 hr 0 min 2 sec) 
Heartbeat CPU  0 instructions:    2000002 cycles:     982352 heartbeat IPC: 2.03632 cumulative IPC: 2.03593 (Simulation time: 0 hr 0 min 4 sec) 
Heartbeat CPU  0 instructions:    3000000 cycles:    1459285 heartbeat IPC: 2.09673 cumulative IPC: 2.05580 (Simulation time: 0 hr 0 min 5 sec) 
Heartbeat CPU  0 instructions:    4000000 cycles:    1923362 heartbeat IPC: 2.15481 cumulative IPC: 2.07969 (Simulation time: 0 hr 0 min 7 sec) 
Heartbeat CPU  0 instructions:    5000001 cycles:    2387223 heartbeat IPC: 2.15582 cumulative IPC: 2.09448 (Simulation time: 0 hr 0 min 9 sec) 
Heartbeat CPU  0 instructions:    6000001 cycles:    2856823 heartbeat IPC: 2.12947 cumulative IPC: 2.10024 (Simulation time: 0 hr 0 min 10 sec) 
Heartbeat CPU  0 instructions:    7000000 cycles:    3378882 heartbeat IPC: 1.91549 cumulative IPC: 2.07169 (Simulation time: 0 hr 0 min 12 sec) 
Heartbeat CPU  0 instructions:    8000000 cycles:    3900978 heartbeat IPC: 1.91536 cumulative IPC: 2.05077 (Simulation time: 0 hr 0 min 13 sec) 
Heartbeat CPU  0 instructions:    9000000 cycles:    4423117 heartbeat IPC: 1.91520 cumulative IPC: 2.03476 (Simulation time: 0 hr 0 min 15 sec) 
Heartbeat CPU  0 instructions:   10000001 cycles:    4945197 heartbeat IPC: 1.91542 cumulative IPC: 2.02216 (Simulation time: 0 hr 0 min 17 sec) 

Warmup complete CPU  0 instructions:   10000001 cycles:    4945197 (Simulation time: 0 hr 0 min 17 sec) 

Heartbeat CPU  0 instructions:   11000000 cycles:    7552378 heartbeat IPC: 0.38356 cumulative IPC: 0.38356 (Simulation time: 0 hr 0 min 19 sec) 
Heartbeat CPU  0 instructions:   12000000 cycles:   10035546 heartbeat IPC: 0.40271 cumulative IPC: 0.39290 (Simulation time: 0 hr 0 min 22 sec) 
Heartbeat CPU  0 instructions:   13000000 cycles:   12214391 heartbeat IPC: 0.45896 cumulative IPC: 0.41270 (Simulation time: 0 hr 0 min 24 sec) 
Heartbeat CPU  0 instructions:   14000001 cycles:   14388034 heartbeat IPC: 0.46006 cumulative IPC: 0.42360 (Simulation time: 0 hr 0 min 27 sec) 
Heartbeat CPU  0 instructions:   15000003 cycles:   16570844 heartbeat IPC: 0.45813 cumulative IPC: 0.43008 (Simulation time: 0 hr 0 min 29 sec) 
Heartbeat CPU  0 instructions:   16000000 cycles:   18751468 heartbeat IPC: 0.45858 cumulative IPC: 0.43459 (Simulation time: 0 hr 0 min 32 sec) 
Heartbeat CPU  0 instructions:   17000003 cycles:   20959466 heartbeat IPC: 0.45290 cumulative IPC: 0.43711 (Simulation time: 0 hr 0 min 34 sec) 
Heartbeat CPU  0 instructions:   18000001 cycles:   23151270 heartbeat IPC: 0.45624 cumulative IPC: 0.43941 (Simulation time: 0 hr 0 min 37 sec) 
Heartbeat CPU  0 instructions:   19000001 cycles:   25317950 heartbeat IPC: 0.46154 cumulative IPC: 0.44177 (Simulation time: 0 hr 0 min 39 sec) 
Heartbeat CPU  0 instructions:   20000000 cycles:   27501198 heartbeat IPC: 0.45803 cumulative IPC: 0.44334 (Simulation time: 0 hr 0 min 42 sec) 
Heartbeat CPU  0 instructions:   21000003 cycles:   29679969 heartbeat IPC: 0.45898 cumulative IPC: 0.44472 (Simulation time: 0 hr 0 min 44 sec) 
Heartbeat CPU  0 instructions:   22000001 cycles:   31854168 heartbeat IPC: 0.45994 cumulative IPC: 0.44595 (Simulation time: 0 hr 0 min 46 sec) 
Heartbeat CPU  0 instructions:   23000001 cycles:   34012568 heartbeat IPC: 0.46331 cumulative IPC: 0.44724 (Simulation time: 0 hr 0 min 49 sec) 
Heartbeat CPU  0 instructions:   24000000 cycles:   36123672 heartbeat IPC: 0.47369 cumulative IPC: 0.44903 (Simulation time: 0 hr 0 min 51 sec) 
Heartbeat CPU  0 instructions:   25000003 cycles:   38255278 heartbeat IPC: 0.46913 cumulative IPC: 0.45031 (Simulation time: 0 hr 0 min 54 sec) 
Heartbeat CPU  0 instructions:   26000002 cycles:   40370296 heartbeat IPC: 0.47281 cumulative IPC: 0.45166 (Simulation time: 0 hr 0 min 56 sec) 
Heartbeat CPU  0 instructions:   27000000 cycles:   42479273 heartbeat IPC: 0.47416 cumulative IPC: 0.45292 (Simulation time: 0 hr 0 min 59 sec) 
Heartbeat CPU  0 instructions:   28000000 cycles:   45099347 heartbeat IPC: 0.38167 cumulative IPC: 0.44827 (Simulation time: 0 hr 1 min 1 sec) 
Heartbeat CPU  0 instructions:   29000000 cycles:   47749696 heartbeat IPC: 0.37731 cumulative IPC: 0.44388 (Simulation time: 0 hr 1 min 4 sec) 
Heartbeat CPU  0 instructions:   30000000 cycles:   50423831 heartbeat IPC: 0.37395 cumulative IPC: 0.43977 (Simulation time: 0 hr 1 min 7 sec) 
Heartbeat CPU  0 instructions:   31000003 cycles:   53040225 heartbeat IPC: 0.38221 cumulative IPC: 0.43664 (Simulation time: 0 hr 1 min 9 sec) 
Heartbeat CPU  0 instructions:   32000000 cycles:   55666853 heartbeat IPC: 0.38072 cumulative IPC: 0.43374 (Simulation time: 0 hr 1 min 12 sec) 
Heartbeat CPU  0 instructions:   33000000 cycles:   58281765 heartbeat IPC: 0.38242 cumulative IPC: 0.43122 (Simulation time: 0 hr 1 min 15 sec) 
Heartbeat CPU  0 instructions:   34000000 cycles:   60889075 heartbeat IPC: 0.38354 cumulative IPC: 0.42900 (Simulation time: 0 hr 1 min 18 sec) 
Heartbeat CPU  0 instructions:   35000003 cycles:   63500133 heartbeat IPC: 0.38299 cumulative IPC: 0.42695 (Simulation time: 0 hr 1 min 20 sec) 
Heartbeat CPU  0 instructions:   36000000 cycles:   66111144 heartbeat IPC: 0.38299 cumulative IPC: 0.42507 (Simulation time: 0 hr 1 min 23 sec) 
Heartbeat CPU  0 instructions:   37000000 cycles:   68723195 heartbeat IPC: 0.38284 cumulative IPC: 0.42334 (Simulation time: 0 hr 1 min 26 sec) 
Heartbeat CPU  0 instructions:   38000000 cycles:   71327320 heartbeat IPC: 0.38401 cumulative IPC: 0.42180 (Simulation time: 0 hr 1 min 28 sec) 
Heartbeat CPU  0 instructions:   39000000 cycles:   73915797 heartbeat IPC: 0.38633 cumulative IPC: 0.42047 (Simulation time: 0 hr 1 min 31 sec) 
Heartbeat CPU  0 instructions:   40000000 cycles:   76510002 heartbeat IPC: 0.38547 cumulative IPC: 0.41920 (Simulation time: 0 hr 1 min 34 sec) 
Heartbeat CPU  0 instructions:   41000000 cycles:   79115942 heartbeat IPC: 0.38374 cumulative IPC: 0.41795 (Simulation time: 0 hr 1 min 36 sec) 
Heartbeat CPU  0 instructions:   42000000 cycles:   81743440 heartbeat IPC: 0.38059 cumulative IPC: 0.41668 (Simulation time: 0 hr 1 min 39 sec) 
Heartbeat CPU  0 instructions:   43000002 cycles:   84347750 heartbeat IPC: 0.38398 cumulative IPC: 0.41560 (Simulation time: 0 hr 1 min 41 sec) 
Heartbeat CPU  0 instructions:   44000000 cycles:   86950814 heartbeat IPC: 0.38416 cumulative IPC: 0.41461 (Simulation time: 0 hr 1 min 44 sec) 
Heartbeat CPU  0 instructions:   45000000 cycles:   89537980 heartbeat IPC: 0.38652 cumulative IPC: 0.41375 (Simulation time: 0 hr 1 min 46 sec) 
Heartbeat CPU  0 instructions:   46000000 cycles:   92162354 heartbeat IPC: 0.38104 cumulative IPC: 0.41276 (Simulation time: 0 hr 1 min 49 sec) 
Heartbeat CPU  0 instructions:   47000000 cycles:   94763386 heartbeat IPC: 0.38446 cumulative IPC: 0.41194 (Simulation time: 0 hr 1 min 52 sec) 
Heartbeat CPU  0 instructions:   48000000 cycles:   97373898 heartbeat IPC: 0.38307 cumulative IPC: 0.41113 (Simulation time: 0 hr 1 min 54 sec) 
Heartbeat CPU  0 instructions:   49000000 cycles:   99881734 heartbeat IPC: 0.39875 cumulative IPC: 0.41080 (Simulation time: 0 hr 1 min 57 sec) 
Heartbeat CPU  0 instructions:   50000000 cycles:  102212129 heartbeat IPC: 0.42911 cumulative IPC: 0.41124 (Simulation time: 0 hr 1 min 59 sec) 
Heartbeat CPU  0 instructions:   51000000 cycles:  104488658 heartbeat IPC: 0.43927 cumulative IPC: 0.41188 (Simulation time: 0 hr 2 min 2 sec) 
Heartbeat CPU  0 instructions:   52000000 cycles:  107314277 heartbeat IPC: 0.35390 cumulative IPC: 0.41028 (Simulation time: 0 hr 2 min 4 sec) 
Heartbeat CPU  0 instructions:   53000001 cycles:  110533794 heartbeat IPC: 0.31061 cumulative IPC: 0.40724 (Simulation time: 0 hr 2 min 7 sec) 
Heartbeat CPU  0 instructions:   54000002 cycles:  113785873 heartbeat IPC: 0.30750 cumulative IPC: 0.40426 (Simulation time: 0 hr 2 min 10 sec) 
Heartbeat CPU  0 instructions:   55000002 cycles:  116885850 heartbeat IPC: 0.32258 cumulative IPC: 0.40200 (Simulation time: 0 hr 2 min 13 sec) 
Heartbeat CPU  0 instructions:   56000000 cycles:  119511896 heartbeat IPC: 0.38080 cumulative IPC: 0.40151 (Simulation time: 0 hr 2 min 16 sec) 
Heartbeat CPU  0 instructions:   57000003 cycles:  122128035 heartbeat IPC: 0.38224 cumulative IPC: 0.40108 (Simulation time: 0 hr 2 min 18 sec) 
Heartbeat CPU  0 instructions:   58000000 cycles:  124744226 heartbeat IPC: 0.38223 cumulative IPC: 0.40067 (Simulation time: 0 hr 2 min 21 sec) 
Heartbeat CPU  0 instructions:   59000002 cycles:  127351926 heartbeat IPC: 0.38348 cumulative IPC: 0.40030 (Simulation time: 0 hr 2 min 24 sec) 
Heartbeat CPU  0 instructions:   60000000 cycles:  129964007 heartbeat IPC: 0.38284 cumulative IPC: 0.39994 (Simulation time: 0 hr 2 min 26 sec) 
Finished CPU 0 instructions: 50000003 cycles: 125018819 cumulative IPC: 0.39994 (Simulation time: 0 hr 2 min 26 sec) 

ChampSim completed all CPUs

[ROI Statistics]
Core_0_instructions 50000003
Core_0_cycles 125018819
Core_0_IPC 0.39994

Core_0_branch_prediction_accuracy 99.88575
Core_0_branch_MPKI 0.06354
Core_0_average_ROB_occupancy_at_mispredict 254.04847

Core_0_L1D_total_access 11751200
Core_0_L1D_total_hit 10654578
Core_0_L1D_total_miss 1096622
Core_0_L1D_loads 10275288
Core_0_L1D_load_hit 9523051
Core_0_L1D_load_miss 752237
Core_0_L1D_RFOs 1475912
Core_0_L1D_RFO_hit 1131527
Core_0_L1D_RFO_miss 344385
Core_0_L1D_prefetches 0
Core_0_L1D_prefetch_hit 0
Core_0_L1D_prefetch_miss 0
Core_0_L1D_writebacks 0
Core_0_L1D_writeback_hit 0
Core_0_L1D_writeback_miss 0
Core_0_L1D_prefetch_requested 0
Core_0_L1D_prefetch_dropped 0
Core_0_L1D_prefetch_issued 0
Core_0_L1D_prefetch_filled 0
Core_0_L1D_prefetch_useful 0
Core_0_L1D_prefetch_useless 0
Core_0_L1D_prefetch_late 0
Core_0_L1D_average_miss_latency 283.16148

Core_0_L1D_rq_access 18807416
Core_0_L1D_rq_forward 0
Core_0_L1D_rq_merged 7425440
Core_0_L1D_rq_to_cache 11381976
Core_0_L1D_rq_full 0

Core_0_L1D_wq_access 2738726
Core_0_L1D_wq_forward 0
Core_0_L1D_wq_merged 0
Core_0_L1D_wq_to_cache 2738726
Core_0_L1D_wq_full 0

Core_0_L1D_pq_access 0
Core_0_L1D_pq_forward 0
Core_0_L1D_pq_merged 0
Core_0_L1D_pq_to_cache 0
Core_0_L1D_pq_full 0

Core_0_L1D_acc_epochs 124591
Core_0_L1D_acc_level_0 124591
Core_0_L1D_acc_level_1 0
Core_0_L1D_acc_level_2 0
Core_0_L1D_acc_level_3 0
Core_0_L1D_acc_level_4 0
Core_0_L1D_acc_level_5 0
Core_0_L1D_acc_level_6 0
Core_0_L1D_acc_level_7 0
Core_0_L1D_acc_level_8 0
Core_0_L1D_acc_level_9 0

Core_0_L1I_total_access 14094517
Core_0_L1I_total_hit 14094517
Core_0_L1I_total_miss 0
Core_0_L1I_loads 14094517
Core_0_L1I_load_hit 14094517
Core_0_L1I_load_miss 0
Core_0_L1I_RFOs 0
Core_0_L1I_RFO_hit 0
Core_0_L1I_RFO_miss 0
Core_0_L1I_prefetches 0
Core_0_L1I_prefetch_hit 0
Core_0_L1I_prefetch_miss 0
Core_0_L1I_writebacks 0
Core_0_L1I_writeback_hit 0
Core_0_L1I_writeback_miss 0
Core_0_L1I_prefetch_requested 0
Core_0_L1I_prefetch_dropped 0
Core_0_L1I_prefetch_issued 0
Core_0_L1I_prefetch_filled 0
Core_0_L1I_prefetch_useful 0
Core_0_L1I_prefetch_useless 0
Core_0_L1I_prefetch_late 0
Core_0_L1I_average_miss_latency -nan

Core_0_L1I_rq_access 50000006
Core_0_L1I_rq_forward 0
Core_0_L1I_rq_merged 35905489
Core_0_L1I_rq_to_cache 14094517
Core_0_L1I_rq_full 0

Core_0_L1I_wq_access 0
Core_0_L1I_wq_forward 0
Core_0_L1I_wq_merged 0
Core_0_L1I_wq_to_cache 0
Core_0_L1I_wq_full 0

Core_0_L1I_pq_access 0
Core_0_L1I_pq_forward 0
Core_0_L1I_pq_merged 0
Core_0_L1I_pq_to_cache 0
Core_0_L1I_pq_full 0

Core_0_L1I_acc_epochs 124591
Core_0_L1I_acc_level_0 124591
Core_0_L1I_acc_level_1 0
Core_0_L1I_acc_level_2 0
Core_0_L1I_acc_level_3 0
Core_0_L1I_acc_level_4 0
Core_0_L1I_acc_level_5 0
Core_0_L1I_acc_level_6 0
Core_0_L1I_acc_level_7 0
Core_0_L1I_acc_level_8 0
Core_0_L1I_acc_level_9 0

Core_0_L2C_total_access 1443058
Core_0_L2C_total_hit 354618
Core_0_L2C_total_miss 1088440
Core_0_L2C_loads 752237
Core_0_L2C_load_hit 8184
Core_0_L2C_load_miss 744053
Core_0_L2C_RFOs 344385
Core_0_L2C_RFO_hit 0
Core_0_L2C_RFO_miss 344385
Core_0_L2C_prefetches 0
Core_0_L2C_prefetch_hit 0
Core_0_L2C_prefetch_miss 0
Core_0_L2C_writebacks 346436
Core_0_L2C_writeback_hit 346434
Core_0_L2C_writeback_miss 2
Core_0_L2C_prefetch_requested 0
Core_0_L2C_prefetch_dropped 0
Core_0_L2C_prefetch_issued 0
Core_0_L2C_prefetch_filled 0
Core_0_L2C_prefetch_useful 0
Core_0_L2C_prefetch_useless 0
Core_0_L2C_prefetch_late 0
Core_0_L2C_average_miss_latency 270.06814

Core_0_L2C_rq_access 1096623
Core_0_L2C_rq_forward 0
Core_0_L2C_rq_merged 0
Core_0_L2C_rq_to_cache 1096623
Core_0_L2C_rq_full 0

Core_0_L2C_wq_access 346437
Core_0_L2C_wq_forward 0
Core_0_L2C_wq_merged 0
Core_0_L2C_wq_to_cache 346437
Core_0_L2C_wq_full 0

Core_0_L2C_pq_access 0
Core_0_L2C_pq_forward 0
Core_0_L2C_pq_merged 0
Core_0_L2C_pq_to_cache 0
Core_0_L2C_pq_full 0

Core_0_L2C_acc_epochs 124591
Core_0_L2C_acc_level_0 124591
Core_0_L2C_acc_level_1 0
Core_0_L2C_acc_level_2 0
Core_0_L2C_acc_level_3 0
Core_0_L2C_acc_level_4 0
Core_0_L2C_acc_level_5 0
Core_0_L2C_acc_level_6 0
Core_0_L2C_acc_level_7 0
Core_0_L2C_acc_level_8 0
Core_0_L2C_acc_level_9 0

Core_0_LLC_total_access 1432775
Core_0_LLC_total_hit 17473
Core_0_LLC_total_miss 1415302
Core_0_LLC_loads 744053
Core_0_LLC_load_hit 9469
Core_0_LLC_load_miss 734584
Core_0_LLC_RFOs 344385
Core_0_LLC_RFO_hit 0
Core_0_LLC_RFO_miss 344385
Core_0_LLC_prefetches 0
Core_0_LLC_prefetch_hit 0
Core_0_LLC_prefetch_miss 0
Core_0_LLC_writebacks 344337
Core_0_LLC_writeback_hit 8004
Core_0_LLC_writeback_miss 336333
Core_0_LLC_prefetch_requested 0
Core_0_LLC_prefetch_dropped 0
Core_0_LLC_prefetch_issued 0
Core_0_LLC_prefetch_filled 0
Core_0_LLC_prefetch_useful 0
Core_0_LLC_prefetch_useless 0
Core_0_LLC_prefetch_late 0
Core_0_LLC_average_miss_latency 184.24090

Core_0_LLC_rq_access 1088439
Core_0_LLC_rq_forward 0
Core_0_LLC_rq_merged 0
Core_0_LLC_rq_to_cache 1088439
Core_0_LLC_rq_full 0

Core_0_LLC_wq_access 344338
Core_0_LLC_wq_forward 0
Core_0_LLC_wq_merged 0
Core_0_LLC_wq_to_cache 344338
Core_0_LLC_wq_full 0

Core_0_LLC_pq_access 0
Core_0_LLC_pq_forward 0
Core_0_LLC_pq_merged 0
Core_0_LLC_pq_to_cache 0
Core_0_LLC_pq_full 0

Core_0_LLC_acc_epochs 126918
Core_0_LLC_acc_level_0 126918
Core_0_LLC_acc_level_1 0
Core_0_LLC_acc_level_2 0
Core_0_LLC_acc_level_3 0
Core_0_LLC_acc_level_4 0
Core_0_LLC_acc_level_5 0
Core_0_LLC_acc_level_6 0
Core_0_LLC_acc_level_7 0
Core_0_LLC_acc_level_8 0
Core_0_LLC_acc_level_9 0

Core_0_major_page_fault 0
Core_0_minor_page_fault 15148

Channel_0_RQ_row_buffer_hit 179083
Channel_0_RQ_row_buffer_miss 899885
Channel_0_WQ_row_buffer_hit 197279
Channel_0_WQ_row_buffer_miss 146331
Channel_0_WQ_full 0
Channel_0_dbus_congested 369206

avg_congested_cycle 10

DRAM_bw_pochs 507672
DRAM_bw_level_0 337652
DRAM_bw_level_1 163233
DRAM_bw_level_2 6787
DRAM_bw_level_3 0
