*************************************************
   ChampSim Multicore Out-of-Order Simulator
   Last compiled: Apr  3 2025 20:54:34
*************************************************
parsing config file: /home/zir/Pythia/config/mlop.ini

trace_0 /home/zir/ChampSim/ML-DPC/ChampSimTraces/spec06/470.lbm-s0.trace.gz
adding L2C_PREFETCHER: MLOP
Initialize SHIP state
warmup_instructions 10000000
simulation_instructions 50000000
champsim_seed 163
measure_ipc 0
measure_ipc_epoch 1000
measure_dram_bw 1
measure_dram_bw_epoch 256
measure_cache_acc 1
measure_cache_acc_epoch 1024
l1d_perfect 0
l2c_perfect 0
llc_perfect 0
l1d_semi_perfect 0
l2c_semi_perfect 0
llc_semi_perfect 0
semi_perfect_cache_page_buffer_size 64

num_cpus 1
cpu_freq 4000
dram_io_freq 2400
page_size 4096
block_size 64
max_read_per_cycle 8
max_fill_per_cycle 1
dram_channels 1
log2_dram_channels 0
dram_ranks 1
dram_banks 8
dram_rows 65536
dram_columns 128
dram_row_size 8
dram_size 4096
dram_pages 1048576

fetch_width 6
decode_width 6
exec_width 4
lq_width 2
sq_width 2
retire_width 4
scheduler_size 128
branch_mispredict_penalty 20
rob_size 256
lq_size 72
sq_size 56
num_instr_destinations_sparc 4
num_instr_destinations 2
num_instr_sources 4

itlb_set 16
itlb_way 8
itlb_rq_size 16
itlb_wq_size 16
itlb_pq_size 0
itlb_mshr_size 8
itlb_latency 1

dtlb_set 16
dtlb_way 4
dtlb_rq_size 16
dtlb_wq_size 16
dtlb_pq_size 0
dtlb_mshr_size 8
dtlb_latency 1

stlb_set 128
stlb_way 12
stlb_rq_size 32
stlb_wq_size 32
stlb_pq_size 0
stlb_mshr_size 16
stlb_latency 8

l1i_size 32
l1i_set 64
l1i_way 8
l1i_rq_size 64
l1i_wq_size 64
l1i_pq_size 8
l1i_mshr_size 8
l1i_latency 1

l1d_size 32
l1d_set 64
l1d_way 8
l1d_rq_size 64
l1d_wq_size 64
l1d_pq_size 8
l1d_mshr_size 16
l1d_latency 4

l2c_size 256
l2c_set 512
l2c_way 8
l2c_rq_size 32
l2c_wq_size 32
l2c_pq_size 32
l2c_mshr_size 32
l2c_latency 10

llc_size 2048
llc_set 2048
llc_way 16
llc_rq_size 32
llc_wq_size 32
llc_pq_size 32
llc_mshr_size 64
llc_latency 20

dram_channel_width 8
dram_wq_size 64
dram_rq_size 64
tRP 15
tRCD 15
tCAS 12.5
dram_dbus_turn_around_time 30
dram_write_high_wm 56
dram_write_low_wm 48
min_dram_writes_per_switch 16
dram_mtps 2400
dram_dbus_return_time 13

mlop_pref_degree 16
mlop_num_updates 500
mlop_l1d_thresh 2
mlop_l2c_thresh 0.75
mlop_llc_thresh 0.3
mlop_debug_level 0
mlop_blocks_in_cache 4096
mlop_blocks_in_zone 64
mlop_amt_size 2048
mlop_PF_DEGREE 16
mlop_NUM_UPDATES 500
mlop_L1D_THRESH 1000
mlop_L2C_THRESH 375
mlop_LLC_THRESH 150
mlop_ORIGIN 63
mlop_MAX_OFFSET 63
mlop_MIN_OFFSET -63
mlop_ORIGIN 63
mlop_NUM_OFFSETS 127


Heartbeat CPU  0 instructions:    1000002 cycles:     375183 heartbeat IPC: 2.66537 cumulative IPC: 2.66537 (Simulation time: 0 hr 0 min 2 sec) 
Heartbeat CPU  0 instructions:    2000003 cycles:     750452 heartbeat IPC: 2.66476 cumulative IPC: 2.66506 (Simulation time: 0 hr 0 min 3 sec) 
Heartbeat CPU  0 instructions:    3000002 cycles:    1125648 heartbeat IPC: 2.66527 cumulative IPC: 2.66513 (Simulation time: 0 hr 0 min 5 sec) 
Heartbeat CPU  0 instructions:    4000000 cycles:    1503481 heartbeat IPC: 2.64667 cumulative IPC: 2.66049 (Simulation time: 0 hr 0 min 7 sec) 
Heartbeat CPU  0 instructions:    5000000 cycles:    1878734 heartbeat IPC: 2.66487 cumulative IPC: 2.66137 (Simulation time: 0 hr 0 min 8 sec) 
Heartbeat CPU  0 instructions:    6000002 cycles:    2253969 heartbeat IPC: 2.66500 cumulative IPC: 2.66197 (Simulation time: 0 hr 0 min 10 sec) 
Heartbeat CPU  0 instructions:    7000001 cycles:    2631808 heartbeat IPC: 2.64663 cumulative IPC: 2.65977 (Simulation time: 0 hr 0 min 11 sec) 
Heartbeat CPU  0 instructions:    8000000 cycles:    3007096 heartbeat IPC: 2.66462 cumulative IPC: 2.66037 (Simulation time: 0 hr 0 min 13 sec) 
Heartbeat CPU  0 instructions:    9000003 cycles:    3382328 heartbeat IPC: 2.66503 cumulative IPC: 2.66089 (Simulation time: 0 hr 0 min 14 sec) 
Heartbeat CPU  0 instructions:   10000000 cycles:    3757540 heartbeat IPC: 2.66515 cumulative IPC: 2.66132 (Simulation time: 0 hr 0 min 16 sec) 

Warmup complete CPU  0 instructions:   10000004 cycles:    3757541 (Simulation time: 0 hr 0 min 16 sec) 

Heartbeat CPU  0 instructions:   11000000 cycles:    5397713 heartbeat IPC: 0.60969 cumulative IPC: 0.60969 (Simulation time: 0 hr 0 min 18 sec) 
Heartbeat CPU  0 instructions:   12000000 cycles:    6900513 heartbeat IPC: 0.66542 cumulative IPC: 0.63634 (Simulation time: 0 hr 0 min 20 sec) 
Heartbeat CPU  0 instructions:   13000002 cycles:    8503505 heartbeat IPC: 0.62383 cumulative IPC: 0.63212 (Simulation time: 0 hr 0 min 23 sec) 
Heartbeat CPU  0 instructions:   14000003 cycles:   10030523 heartbeat IPC: 0.65487 cumulative IPC: 0.63766 (Simulation time: 0 hr 0 min 25 sec) 
Heartbeat CPU  0 instructions:   15000003 cycles:   11583777 heartbeat IPC: 0.64381 cumulative IPC: 0.63888 (Simulation time: 0 hr 0 min 27 sec) 
Heartbeat CPU  0 instructions:   16000000 cycles:   13154525 heartbeat IPC: 0.63664 cumulative IPC: 0.63850 (Simulation time: 0 hr 0 min 30 sec) 
Heartbeat CPU  0 instructions:   17000000 cycles:   14800693 heartbeat IPC: 0.60747 cumulative IPC: 0.63388 (Simulation time: 0 hr 0 min 32 sec) 
Heartbeat CPU  0 instructions:   18000002 cycles:   16342601 heartbeat IPC: 0.64855 cumulative IPC: 0.63567 (Simulation time: 0 hr 0 min 34 sec) 
Heartbeat CPU  0 instructions:   19000002 cycles:   17947766 heartbeat IPC: 0.62299 cumulative IPC: 0.63424 (Simulation time: 0 hr 0 min 36 sec) 
Heartbeat CPU  0 instructions:   20000000 cycles:   19503275 heartbeat IPC: 0.64288 cumulative IPC: 0.63509 (Simulation time: 0 hr 0 min 39 sec) 
Heartbeat CPU  0 instructions:   21000003 cycles:   21147144 heartbeat IPC: 0.60832 cumulative IPC: 0.63256 (Simulation time: 0 hr 0 min 41 sec) 
Heartbeat CPU  0 instructions:   22000002 cycles:   22748575 heartbeat IPC: 0.62444 cumulative IPC: 0.63188 (Simulation time: 0 hr 0 min 43 sec) 
Heartbeat CPU  0 instructions:   23000001 cycles:   24264614 heartbeat IPC: 0.65961 cumulative IPC: 0.63393 (Simulation time: 0 hr 0 min 46 sec) 
Heartbeat CPU  0 instructions:   24000000 cycles:   25914780 heartbeat IPC: 0.60600 cumulative IPC: 0.63185 (Simulation time: 0 hr 0 min 48 sec) 
Heartbeat CPU  0 instructions:   25000003 cycles:   27474059 heartbeat IPC: 0.64132 cumulative IPC: 0.63247 (Simulation time: 0 hr 0 min 50 sec) 
Heartbeat CPU  0 instructions:   26000002 cycles:   29046249 heartbeat IPC: 0.63605 cumulative IPC: 0.63269 (Simulation time: 0 hr 0 min 52 sec) 
Heartbeat CPU  0 instructions:   27000001 cycles:   30597234 heartbeat IPC: 0.64475 cumulative IPC: 0.63339 (Simulation time: 0 hr 0 min 55 sec) 
Heartbeat CPU  0 instructions:   28000000 cycles:   32208781 heartbeat IPC: 0.62052 cumulative IPC: 0.63266 (Simulation time: 0 hr 0 min 57 sec) 
Heartbeat CPU  0 instructions:   29000000 cycles:   33767507 heartbeat IPC: 0.64155 cumulative IPC: 0.63312 (Simulation time: 0 hr 0 min 59 sec) 
Heartbeat CPU  0 instructions:   30000003 cycles:   35317064 heartbeat IPC: 0.64535 cumulative IPC: 0.63372 (Simulation time: 0 hr 1 min 2 sec) 
Heartbeat CPU  0 instructions:   31000001 cycles:   36929708 heartbeat IPC: 0.62010 cumulative IPC: 0.63306 (Simulation time: 0 hr 1 min 4 sec) 
Heartbeat CPU  0 instructions:   32000000 cycles:   38613692 heartbeat IPC: 0.59383 cumulative IPC: 0.63117 (Simulation time: 0 hr 1 min 6 sec) 
Heartbeat CPU  0 instructions:   33000003 cycles:   40108524 heartbeat IPC: 0.66897 cumulative IPC: 0.63272 (Simulation time: 0 hr 1 min 8 sec) 
Heartbeat CPU  0 instructions:   34000002 cycles:   41756210 heartbeat IPC: 0.60691 cumulative IPC: 0.63160 (Simulation time: 0 hr 1 min 11 sec) 
Heartbeat CPU  0 instructions:   35000003 cycles:   43460894 heartbeat IPC: 0.58662 cumulative IPC: 0.62967 (Simulation time: 0 hr 1 min 13 sec) 
Heartbeat CPU  0 instructions:   36000000 cycles:   44952595 heartbeat IPC: 0.67037 cumulative IPC: 0.63114 (Simulation time: 0 hr 1 min 15 sec) 
Heartbeat CPU  0 instructions:   37000002 cycles:   46498374 heartbeat IPC: 0.64692 cumulative IPC: 0.63171 (Simulation time: 0 hr 1 min 18 sec) 
Heartbeat CPU  0 instructions:   38000000 cycles:   48200417 heartbeat IPC: 0.58753 cumulative IPC: 0.63002 (Simulation time: 0 hr 1 min 20 sec) 
Heartbeat CPU  0 instructions:   39000003 cycles:   49633340 heartbeat IPC: 0.69788 cumulative IPC: 0.63214 (Simulation time: 0 hr 1 min 22 sec) 
Heartbeat CPU  0 instructions:   40000000 cycles:   51163977 heartbeat IPC: 0.65332 cumulative IPC: 0.63283 (Simulation time: 0 hr 1 min 24 sec) 
Heartbeat CPU  0 instructions:   41000002 cycles:   52699149 heartbeat IPC: 0.65139 cumulative IPC: 0.63341 (Simulation time: 0 hr 1 min 27 sec) 
Heartbeat CPU  0 instructions:   42000003 cycles:   54260460 heartbeat IPC: 0.64049 cumulative IPC: 0.63363 (Simulation time: 0 hr 1 min 29 sec) 
Heartbeat CPU  0 instructions:   43000000 cycles:   55784217 heartbeat IPC: 0.65627 cumulative IPC: 0.63429 (Simulation time: 0 hr 1 min 31 sec) 
Heartbeat CPU  0 instructions:   44000000 cycles:   57461189 heartbeat IPC: 0.59631 cumulative IPC: 0.63310 (Simulation time: 0 hr 1 min 34 sec) 
Heartbeat CPU  0 instructions:   45000000 cycles:   59144625 heartbeat IPC: 0.59402 cumulative IPC: 0.63192 (Simulation time: 0 hr 1 min 36 sec) 
Heartbeat CPU  0 instructions:   46000003 cycles:   60748942 heartbeat IPC: 0.62332 cumulative IPC: 0.63167 (Simulation time: 0 hr 1 min 38 sec) 
Heartbeat CPU  0 instructions:   47000002 cycles:   62213844 heartbeat IPC: 0.68264 cumulative IPC: 0.63295 (Simulation time: 0 hr 1 min 40 sec) 
Heartbeat CPU  0 instructions:   48000000 cycles:   63896882 heartbeat IPC: 0.59416 cumulative IPC: 0.63187 (Simulation time: 0 hr 1 min 43 sec) 
Heartbeat CPU  0 instructions:   49000000 cycles:   65527098 heartbeat IPC: 0.61342 cumulative IPC: 0.63138 (Simulation time: 0 hr 1 min 45 sec) 
Heartbeat CPU  0 instructions:   50000003 cycles:   67000219 heartbeat IPC: 0.67883 cumulative IPC: 0.63248 (Simulation time: 0 hr 1 min 47 sec) 
Heartbeat CPU  0 instructions:   51000001 cycles:   68499930 heartbeat IPC: 0.66679 cumulative IPC: 0.63328 (Simulation time: 0 hr 1 min 50 sec) 
Heartbeat CPU  0 instructions:   52000000 cycles:   70178100 heartbeat IPC: 0.59589 cumulative IPC: 0.63233 (Simulation time: 0 hr 1 min 52 sec) 
Heartbeat CPU  0 instructions:   53000002 cycles:   71692114 heartbeat IPC: 0.66050 cumulative IPC: 0.63296 (Simulation time: 0 hr 1 min 54 sec) 
Heartbeat CPU  0 instructions:   54000001 cycles:   73072870 heartbeat IPC: 0.72424 cumulative IPC: 0.63478 (Simulation time: 0 hr 1 min 56 sec) 
Heartbeat CPU  0 instructions:   55000001 cycles:   74799853 heartbeat IPC: 0.57904 cumulative IPC: 0.63343 (Simulation time: 0 hr 1 min 59 sec) 
Heartbeat CPU  0 instructions:   56000000 cycles:   76395809 heartbeat IPC: 0.62658 cumulative IPC: 0.63327 (Simulation time: 0 hr 2 min 1 sec) 
Heartbeat CPU  0 instructions:   57000003 cycles:   77840036 heartbeat IPC: 0.69241 cumulative IPC: 0.63443 (Simulation time: 0 hr 2 min 3 sec) 
Heartbeat CPU  0 instructions:   58000003 cycles:   79536224 heartbeat IPC: 0.58956 cumulative IPC: 0.63342 (Simulation time: 0 hr 2 min 6 sec) 
Heartbeat CPU  0 instructions:   59000000 cycles:   81070443 heartbeat IPC: 0.65180 cumulative IPC: 0.63379 (Simulation time: 0 hr 2 min 8 sec) 
Heartbeat CPU  0 instructions:   60000000 cycles:   82615514 heartbeat IPC: 0.64722 cumulative IPC: 0.63405 (Simulation time: 0 hr 2 min 10 sec) 
Finished CPU 0 instructions: 50000002 cycles: 78858001 cumulative IPC: 0.63405 (Simulation time: 0 hr 2 min 10 sec) 

ChampSim completed all CPUs

[ROI Statistics]
Core_0_instructions 50000002
Core_0_cycles 78858001
Core_0_IPC 0.63405

Core_0_branch_prediction_accuracy 99.71851
Core_0_branch_MPKI 0.03266
Core_0_average_ROB_occupancy_at_mispredict 248.59032

Core_0_L1D_total_access 7874390
Core_0_L1D_total_hit 5432624
Core_0_L1D_total_miss 2441766
Core_0_L1D_loads 3002169
Core_0_L1D_load_hit 2632172
Core_0_L1D_load_miss 369997
Core_0_L1D_RFOs 4872221
Core_0_L1D_RFO_hit 2800452
Core_0_L1D_RFO_miss 2071769
Core_0_L1D_prefetches 0
Core_0_L1D_prefetch_hit 0
Core_0_L1D_prefetch_miss 0
Core_0_L1D_writebacks 0
Core_0_L1D_writeback_hit 0
Core_0_L1D_writeback_miss 0
Core_0_L1D_prefetch_requested 0
Core_0_L1D_prefetch_dropped 0
Core_0_L1D_prefetch_issued 0
Core_0_L1D_prefetch_filled 0
Core_0_L1D_prefetch_useful 0
Core_0_L1D_prefetch_useless 0
Core_0_L1D_prefetch_late 0
Core_0_L1D_average_miss_latency 454.18163

Core_0_L1D_rq_access 8648181
Core_0_L1D_rq_forward 0
Core_0_L1D_rq_merged 5189884
Core_0_L1D_rq_to_cache 3056656
Core_0_L1D_rq_full 0

Core_0_L1D_wq_access 5084954
Core_0_L1D_wq_forward 401641
Core_0_L1D_wq_merged 130742
Core_0_L1D_wq_to_cache 4954212
Core_0_L1D_wq_full 0

Core_0_L1D_pq_access 0
Core_0_L1D_pq_forward 0
Core_0_L1D_pq_merged 0
Core_0_L1D_pq_to_cache 0
Core_0_L1D_pq_full 0

Core_0_L1D_acc_epochs 78443
Core_0_L1D_acc_level_0 78443
Core_0_L1D_acc_level_1 0
Core_0_L1D_acc_level_2 0
Core_0_L1D_acc_level_3 0
Core_0_L1D_acc_level_4 0
Core_0_L1D_acc_level_5 0
Core_0_L1D_acc_level_6 0
Core_0_L1D_acc_level_7 0
Core_0_L1D_acc_level_8 0
Core_0_L1D_acc_level_9 0

Core_0_L1I_total_access 11892463
Core_0_L1I_total_hit 11892463
Core_0_L1I_total_miss 0
Core_0_L1I_loads 11892463
Core_0_L1I_load_hit 11892463
Core_0_L1I_load_miss 0
Core_0_L1I_RFOs 0
Core_0_L1I_RFO_hit 0
Core_0_L1I_RFO_miss 0
Core_0_L1I_prefetches 0
Core_0_L1I_prefetch_hit 0
Core_0_L1I_prefetch_miss 0
Core_0_L1I_writebacks 0
Core_0_L1I_writeback_hit 0
Core_0_L1I_writeback_miss 0
Core_0_L1I_prefetch_requested 0
Core_0_L1I_prefetch_dropped 0
Core_0_L1I_prefetch_issued 0
Core_0_L1I_prefetch_filled 0
Core_0_L1I_prefetch_useful 0
Core_0_L1I_prefetch_useless 0
Core_0_L1I_prefetch_late 0
Core_0_L1I_average_miss_latency -nan

Core_0_L1I_rq_access 50000006
Core_0_L1I_rq_forward 0
Core_0_L1I_rq_merged 38107543
Core_0_L1I_rq_to_cache 11892463
Core_0_L1I_rq_full 0

Core_0_L1I_wq_access 0
Core_0_L1I_wq_forward 0
Core_0_L1I_wq_merged 0
Core_0_L1I_wq_to_cache 0
Core_0_L1I_wq_full 0

Core_0_L1I_pq_access 0
Core_0_L1I_pq_forward 0
Core_0_L1I_pq_merged 0
Core_0_L1I_pq_to_cache 0
Core_0_L1I_pq_full 0

Core_0_L1I_acc_epochs 78443
Core_0_L1I_acc_level_0 78443
Core_0_L1I_acc_level_1 0
Core_0_L1I_acc_level_2 0
Core_0_L1I_acc_level_3 0
Core_0_L1I_acc_level_4 0
Core_0_L1I_acc_level_5 0
Core_0_L1I_acc_level_6 0
Core_0_L1I_acc_level_7 0
Core_0_L1I_acc_level_8 0
Core_0_L1I_acc_level_9 0

Core_0_L2C_total_access 4863043
Core_0_L2C_total_hit 3368559
Core_0_L2C_total_miss 1494484
Core_0_L2C_loads 369997
Core_0_L2C_load_hit 349514
Core_0_L2C_load_miss 20483
Core_0_L2C_RFOs 2071766
Core_0_L2C_RFO_hit 947321
Core_0_L2C_RFO_miss 1124445
Core_0_L2C_prefetches 349511
Core_0_L2C_prefetch_hit 0
Core_0_L2C_prefetch_miss 349511
Core_0_L2C_writebacks 2071769
Core_0_L2C_writeback_hit 2071724
Core_0_L2C_writeback_miss 45
Core_0_L2C_prefetch_requested 740225
Core_0_L2C_prefetch_dropped 0
Core_0_L2C_prefetch_issued 740225
Core_0_L2C_prefetch_filled 419182
Core_0_L2C_prefetch_useful 419155
Core_0_L2C_prefetch_useless 15
Core_0_L2C_prefetch_late 3047
Core_0_L2C_average_miss_latency 829.56995

Core_0_L2C_rq_access 2441778
Core_0_L2C_rq_forward 0
Core_0_L2C_rq_merged 0
Core_0_L2C_rq_to_cache 2441778
Core_0_L2C_rq_full 0

Core_0_L2C_wq_access 2071769
Core_0_L2C_wq_forward 0
Core_0_L2C_wq_merged 0
Core_0_L2C_wq_to_cache 2071769
Core_0_L2C_wq_full 0

Core_0_L2C_pq_access 740225
Core_0_L2C_pq_forward 0
Core_0_L2C_pq_merged 1514
Core_0_L2C_pq_to_cache 738711
Core_0_L2C_pq_full 0

Core_0_L2C_acc_epochs 78443
Core_0_L2C_acc_level_0 490
Core_0_L2C_acc_level_1 1958
Core_0_L2C_acc_level_2 2810
Core_0_L2C_acc_level_3 2556
Core_0_L2C_acc_level_4 2756
Core_0_L2C_acc_level_5 3310
Core_0_L2C_acc_level_6 4013
Core_0_L2C_acc_level_7 5550
Core_0_L2C_acc_level_8 8385
Core_0_L2C_acc_level_9 46615

Core_0_LLC_total_access 2730747
Core_0_LLC_total_hit 201038
Core_0_LLC_total_miss 2529709
Core_0_LLC_loads 17441
Core_0_LLC_load_hit 0
Core_0_LLC_load_miss 17441
Core_0_LLC_RFOs 1124434
Core_0_LLC_RFO_hit 17124
Core_0_LLC_RFO_miss 1107310
Core_0_LLC_prefetches 464258
Core_0_LLC_prefetch_hit 111678
Core_0_LLC_prefetch_miss 352580
Core_0_LLC_writebacks 1124614
Core_0_LLC_writeback_hit 72236
Core_0_LLC_writeback_miss 1052378
Core_0_LLC_prefetch_requested 0
Core_0_LLC_prefetch_dropped 0
Core_0_LLC_prefetch_issued 0
Core_0_LLC_prefetch_filled 422263
Core_0_LLC_prefetch_useful 0
Core_0_LLC_prefetch_useless 414238
Core_0_LLC_prefetch_late 0
Core_0_LLC_average_miss_latency 523.36800

Core_0_LLC_rq_access 1141901
Core_0_LLC_rq_forward 0
Core_0_LLC_rq_merged 0
Core_0_LLC_rq_to_cache 1141890
Core_0_LLC_rq_full 0

Core_0_LLC_wq_access 1124613
Core_0_LLC_wq_forward 11
Core_0_LLC_wq_merged 0
Core_0_LLC_wq_to_cache 1124613
Core_0_LLC_wq_full 0

Core_0_LLC_pq_access 738642
Core_0_LLC_pq_forward 0
Core_0_LLC_pq_merged 1602
Core_0_LLC_pq_to_cache 737040
Core_0_LLC_pq_full 0

Core_0_LLC_acc_epochs 80680
Core_0_LLC_acc_level_0 80680
Core_0_LLC_acc_level_1 0
Core_0_LLC_acc_level_2 0
Core_0_LLC_acc_level_3 0
Core_0_LLC_acc_level_4 0
Core_0_LLC_acc_level_5 0
Core_0_LLC_acc_level_6 0
Core_0_LLC_acc_level_7 0
Core_0_LLC_acc_level_8 0
Core_0_LLC_acc_level_9 0

Core_0_major_page_fault 0
Core_0_minor_page_fault 14654

[MLOP] History of tracked zone:
IIIIIIIIIIIIIIIIIIIIIIIIIIIIIIIIIIIIIIIIIIIIIIIIIIIIIIIIIIIIIIII
AII2I2II2I2II2I2II4IIIIIIIIIIIIIIIIIIIIIIIIIIIIIIIIIIIIIIIIIIIII
AIA2I2I22I2I22I2I24I4IIIIIIIIIIIIIIIIIIIIIIIIIIIIIIIIIIIIIIIIIII
AAA222222222222222444IIIIIIIIIIIIIIIIIIIIIIIIIIIIIIIIIIIIIIIIIII
AAA22A222222222222242II4IIIIIIIIIIIIIIIIIIIIIIIIIIIIIIIIIIIIIIII
AAAA2A2222222222222424I4IIIIIIIIIIIIIIIIIIIIIIIIIIIIIIIIIIIIIIII
AAAAAA222222222222222444IIIIIIIIIIIIIIIIIIIIIIIIIIIIIIIIIIIIIIII
AAAAAA2A2222222222222424I4IIIIIIIIIIIIIIIIIIIIIIIIIIIIIIIIIIIIII
AAAAAAAA222222222222222444IIIIIIIIIIIIIIIIIIIIIIIIIIIIIIIIIIIIII
AAAAAAAA22A222222222222242II4IIIIIIIIIIIIIIIIIIIIIIIIIIIIIIIIIII
AAAAAAAAA2A2222222222222424I4IIIIIIIIIIIIIIIIIIIIIIIIIIIIIIIIIII
AAAAAAAAAAA222222222222222444IIIIIIIIIIIIIIIIIIIIIIIIIIIIIIIIIII
AAAAAAAAAAA2A2222222222222424I4IIIIIIIIIIIIIIIIIIIIIIIIIIIIIIIII
AAAAAAAAAAAAA222222222222222444IIIIIIIIIIIIIIIIIIIIIIIIIIIIIIIII
AAAAAAAAAAAAA22A222222222222242II4IIIIIIIIIIIIIIIIIIIIIIIIIIIIII
AAAAAAAAAAAAAA2A2222222222222424I4IIIIIIIIIIIIIIIIIIIIIIIIIIIIII
AAAAAAAAAAAAAAAA222222222222222444IIIIIIIIIIIIIIIIIIIIIIIIIIIIII
AAAAAAAAAAAAAAAA2A2222222222222424I4IIIIIIIIIIIIIIIIIIIIIIIIIIII
AAAAAAAAAAAAAAAAAA222222222222222444IIIIIIIIIIIIIIIIIIIIIIIIIIII
AAAAAAAAAAAAAAAAAA22A222222222222242II4IIIIIIIIIIIIIIIIIIIIIIIII
AAAAAAAAAAAAAAAAAAA2A2222222222222424I4IIIIIIIIIIIIIIIIIIIIIIIII
AAAAAAAAAAAAAAAAAAAAA222222222222222444IIIIIIIIIIIIIIIIIIIIIIIII
AAAAAAAAAAAAAAAAAAAAA2A2222222222222424I4IIIIIIIIIIIIIIIIIIIIIII
AAAAAAAAAAAAAAAAAAAAAAA222222222222222444IIIIIIIIIIIIIIIIIIIIIII
AAAAAAAAAAAAAAAAAAAAAAA22A222222222222242II4IIIIIIIIIIIIIIIIIIII
AAAAAAAAAAAAAAAAAAAAAAAA2A2222222222222424I4IIIIIIIIIIIIIIIIIIII
AAAAAAAAAAAAAAAAAAAAAAAAAA222222222222222444IIIIIIIIIIIIIIIIIIII
AAAAAAAAAAAAAAAAAAAAAAAAAA2A2222222222222424I4IIIIIIIIIIIIIIIIII
AAAAAAAAAAAAAAAAAAAAAAAAAAAA222222222222222444IIIIIIIIIIIIIIIIII
AAAAAAAAAAAAAAAAAAAAAAAAAAAA22A222222222222242II4IIIIIIIIIIIIIII
AAAAAAAAAAAAAAAAAAAAAAAAAAAAA2A2222222222222424I4IIIIIIIIIIIIIII
AAAAAAAAAAAAAAAAAAAAAAAAAAAAAAA222222222222222444IIIIIIIIIIIIIII
AAAAAAAAAAAAAAAAAAAAAAAAAAAAAAA2A2222222222222424I4IIIIIIIIIIIII
AAAAAAAAAAAAAAAAAAAAAAAAAAAAAAAAA222222222222222444IIIIIIIIIIIII
AAAAAAAAAAAAAAAAAAAAAAAAAAAAAAAAA22A222222222222242II4IIIIIIIIII
AAAAAAAAAAAAAAAAAAAAAAAAAAAAAAAAAA2A2222222222222424I4IIIIIIIIII
AAAAAAAAAAAAAAAAAAAAAAAAAAAAAAAAAAAA222222222222222444IIIIIIIIII
AAAAAAAAAAAAAAAAAAAAAAAAAAAAAAAAAAAA2A2222222222222424I4IIIIIIII
AAAAAAAAAAAAAAAAAAAAAAAAAAAAAAAAAAAAAA222222222222222444IIIIIIII
AAAAAAAAAAAAAAAAAAAAAAAAAAAAAAAAAAAAAA22A222222222222242II4IIIII
AAAAAAAAAAAAAAAAAAAAAAAAAAAAAAAAAAAAAAA2A2222222222222424I4IIIII
AAAAAAAAAAAAAAAAAAAAAAAAAAAAAAAAAAAAAAAAA222222222222222444IIIII
AAAAAAAAAAAAAAAAAAAAAAAAAAAAAAAAAAAAAAAAA2A2222222222222424I4III
AAAAAAAAAAAAAAAAAAAAAAAAAAAAAAAAAAAAAAAAAAA222222222222222444III
AAAAAAAAAAAAAAAAAAAAAAAAAAAAAAAAAAAAAAAAAAA22A222222222222242II4
AAAAAAAAAAAAAAAAAAAAAAAAAAAAAAAAAAAAAAAAAAAA2A2222222222222424I4
AAAAAAAAAAAAAAAAAAAAAAAAAAAAAAAAAAAAAAAAAAAAAA222222222222222444
AAAAAAAAAAAAAAAAAAAAAAAAAAAAAAAAAAAAAAAAAAAAAA2A2222222222222424
AAAAAAAAAAAAAAAAAAAAAAAAAAAAAAAAAAAAAAAAAAAAAAAA2222222222222224
AAAAAAAAAAAAAAAAAAAAAAAAAAAAAAAAAAAAAAAAAAAAAAAA22A2222222222222
AAAAAAAAAAAAAAAAAAAAAAAAAAAAAAAAAAAAAAAAAAAAAAAAA2A2222222222222
AAAAAAAAAAAAAAAAAAAAAAAAAAAAAAAAAAAAAAAAAAAAAAAAAAA2222222222222
AAAAAAAAAAAAAAAAAAAAAAAAAAAAAAAAAAAAAAAAAAAAAAAAAAA2A22222222222
AAAAAAAAAAAAAAAAAAAAAAAAAAAAAAAAAAAAAAAAAAAAAAAAAAAAA22222222222
AAAAAAAAAAAAAAAAAAAAAAAAAAAAAAAAAAAAAAAAAAAAAAAAAAAAA22A22222222
AAAAAAAAAAAAAAAAAAAAAAAAAAAAAAAAAAAAAAAAAAAAAAAAAAAAAA2A22222222
AAAAAAAAAAAAAAAAAAAAAAAAAAAAAAAAAAAAAAAAAAAAAAAAAAAAAAAA22222222
AAAAAAAAAAAAAAAAAAAAAAAAAAAAAAAAAAAAAAAAAAAAAAAAAAAAAAAA2A222222
AAAAAAAAAAAAAAAAAAAAAAAAAAAAAAAAAAAAAAAAAAAAAAAAAAAAAAAAAA222222
AAAAAAAAAAAAAAAAAAAAAAAAAAAAAAAAAAAAAAAAAAAAAAAAAAAAAAAAAA22A222
AAAAAAAAAAAAAAAAAAAAAAAAAAAAAAAAAAAAAAAAAAAAAAAAAAAAAAAAAAA2A222
AAAAAAAAAAAAAAAAAAAAAAAAAAAAAAAAAAAAAAAAAAAAAAAAAAAAAAAAAAAAA222
AAAAAAAAAAAAAAAAAAAAAAAAAAAAAAAAAAAAAAAAAAAAAAAAAAAAAAAAAAAAA2A2
AAAAAAAAAAAAAAAAAAAAAAAAAAAAAAAAAAAAAAAAAAAAAAAAAAAAAAAAAAAAAAA2
AAAAAAAAAAAAAAAAAAAAAAAAAAAAAAAAAAAAAAAAAAAAAAAAAAAAAAAAAAAAAAAA
AAAAAAAIAAAAAAAAAAAAAAAAAAAAAAAAAAAAAAAAAAAAAAAAAAAAAAAAAAAAAAAA
AAAAAAAIAAAAIAAAAAAAAAAAAAAAAAAAAAAAAAAAAAAAAAAAAAAAAAAAAAAAAAAA
AAAAAAAIAAAAIAAAAIAAAAAAAAAAAAAAAAAAAAAAAAAAAAAAAAAAAAAAAAAAAAAA
AAAAAAAIAAAAIAAAAIAAAAIAAAAAAAAAAAAAAAAAAAAAAAAAAAAAAAAAAAAAAAAA
AAAAAAAIAAAAIAAAAIAAAAIAAAAIAAAAAAAAAAAAAAAAAAAAAAAAAAAAAAAAAAAA
AAAAAAAIAAAAIAAAAIAAAAIAAAAIAAAAIAAAAAAAAAAAAAAAAAAAAAAAAAAAAAAA
AAAAAAAIAAAAIAAAAIAAAAIAAAAIAAAAIAAAAIAAAAAAAAAAAAAAAAAAAAAAAAAA
AAAAAAAIAAAAIAAAAIAAAAIAAAAIAAAAIAAAAIAAAAIAAAAAAAAAAAAAAAAAAAAA
AAAAAAAIAAAAIAAAAIAAAAIAAAAIAAAAIAAAAIAAAAIAAAAIAAAAAAAAAAAAAAAA
AAAAAAAIAAAAIAAAAIAAAAIAAAAIAAAAIAAAAIAAAAIAAAAIAAAAIAAAAAAAAAAA
AAAAAAAIAAAAIAAAAIAAAAIAAAAIAAAAIAAAAIAAAAIAAAAIAAAAIAAAAIAAAAAA
AAAAAAAIAAAAIAAAAIAAAAIAAAAIAAAAIAAAAIAAAAIAAAAIAAAAIAAAAIAAAAIA
AAAAAIAIAAAAIAAAAIAAAAIAAAAIAAAAIAAAAIAAAAIAAAAIAAAAIAAAAIAAAAIA
AAAAAIAIAAIAIAAAAIAAAAIAAAAIAAAAIAAAAIAAAAIAAAAIAAAAIAAAAIAAAAIA
AAAAAIAIAAIAIAAIAIAAAAIAAAAIAAAAIAAAAIAAAAIAAAAIAAAAIAAAAIAAAAIA
AAAAIIAIAAIAIAAIAIAAAAIAAAAIAAAAIAAAAIAAAAIAAAAIAAAAIAAAAIAAAAIA
AAAAIIAIAIIAIAAIAIAAAAIAAAAIAAAAIAAAAIAAAAIAAAAIAAAAIAAAAIAAAAIA
AAAAIIAIAIIAIAIIAIAAAAIAAAAIAAAAIAAAAIAAAAIAAAAIAAAAIAAAAIAAAAIA
AAAAIIAIAIIAIAIIAIAAIAIAAAAIAAAAIAAAAIAAAAIAAAAIAAAAIAAAAIAAAAIA
AAAAIIAIAIIAIAIIAIAIIAIAAAAIAAAAIAAAAIAAAAIAAAAIAAAAIAAAAIAAAAIA
AAAAIIAIAIIAIAIIAIAIIAIAAIAIAAAAIAAAAIAAAAIAAAAIAAAAIAAAAIAAAAIA
AAAAIIAIAIIAIAIIAIAIIAIAIIAIAAAAIAAAAIAAAAIAAAAIAAAAIAAAAIAAAAIA
AAAAIIAIAIIAIAIIAIAIIAIAIIAIAAIAIAAAAIAAAAIAAAAIAAAAIAAAAIAAAAIA
AAAAIIAIAIIAIAIIAIAIIAIAIIAIAIIAIAAAAIAAAAIAAAAIAAAAIAAAAIAAAAIA
AAAAIIAIAIIAIAIIAIAIIAIAIIAIAIIAIAAIAIAAAAIAAAAIAAAAIAAAAIAAAAIA
AAAAIIAIAIIAIAIIAIAIIAIAIIAIAIIAIAIIAIAAAAIAAAAIAAAAIAAAAIAAAAIA
AAAAIIAIAIIAIAIIAIAIIAIAIIAIAIIAIAIIAIAAIAIAAAAIAAAAIAAAAIAAAAIA
AAAAIIAIAIIAIAIIAIAIIAIAIIAIAIIAIAIIAIAIIAIAAAAIAAAAIAAAAIAAAAIA
AAAAIIAIAIIAIAIIAIAIIAIAIIAIAIIAIAIIAIAIIAIAAIAIAAAAIAAAAIAAAAIA
AAAAIIAIAIIAIAIIAIAIIAIAIIAIAIIAIAIIAIAIIAIAIIAIAAAAIAAAAIAAAAIA
AAAAIIAIAIIAIAIIAIAIIAIAIIAIAIIAIAIIAIAIIAIAIIAIAAIAIAAAAIAAAAIA
AAAAIIAIAIIAIAIIAIAIIAIAIIAIAIIAIAIIAIAIIAIAIIAIAIIAIAAAAIAAAAIA
AAAAIIAIAIIAIAIIAIAIIAIAIIAIAIIAIAIIAIAIIAIAIIAIAIIAIAAIAIAAAAIA
AAAAIIAIAIIAIAIIAIAIIAIAIIAIAIIAIAIIAIAIIAIAIIAIAIIAIAIIAIAAAAIA
AAAAIIAIAIIAIAIIAIAIIAIAIIAIAIIAIAIIAIAIIAIAIIAIAIIAIAIIAIAAIAIA
AAAAIIAIAIIAIAIIAIAIIAIAIIAIAIIAIAIIAIAIIAIAIIAIAIIAIAIIAIAIIAIA
AAAIIIAIAIIAIAIIAIAIIAIAIIAIAIIAIAIIAIAIIAIAIIAIAIIAIAIIAIAIIAIA
AAAIIIAIIIIAIAIIAIAIIAIAIIAIAIIAIAIIAIAIIAIAIIAIAIIAIAIIAIAIIAIA
AAAIIIAIIIIAIIIIAIAIIAIAIIAIAIIAIAIIAIAIIAIAIIAIAIIAIAIIAIAIIAIA
AAAIIIIIIIIAIIIIAIAIIAIAIIAIAIIAIAIIAIAIIAIAIIAIAIIAIAIIAIAIIAIA
AAAIIIIIIIIIIIIIAIAIIAIAIIAIAIIAIAIIAIAIIAIAIIAIAIIAIAIIAIAIIAIA
AAAIIIIIIIIIIIIIIIAIIAIAIIAIAIIAIAIIAIAIIAIAIIAIAIIAIAIIAIAIIAIA
AAAIIIIIIIIIIIIIIIIIIAIAIIAIAIIAIAIIAIAIIAIAIIAIAIIAIAIIAIAIIAIA
AAAIIIIIIIIIIIIIIIIIIIIAIIAIAIIAIAIIAIAIIAIAIIAIAIIAIAIIAIAIIAIA
AAAIIIIIIIIIIIIIIIIIIIIIIIAIAIIAIAIIAIAIIAIAIIAIAIIAIAIIAIAIIAIA
AAAIIIIIIIIIIIIIIIIIIIIIIIIIAIIAIAIIAIAIIAIAIIAIAIIAIAIIAIAIIAIA
AAAIIIIIIIIIIIIIIIIIIIIIIIIIIIIAIAIIAIAIIAIAIIAIAIIAIAIIAIAIIAIA
AAAIIIIIIIIIIIIIIIIIIIIIIIIIIIIIIAIIAIAIIAIAIIAIAIIAIAIIAIAIIAIA
AAAIIIIIIIIIIIIIIIIIIIIIIIIIIIIIIIIIAIAIIAIAIIAIAIIAIAIIAIAIIAIA
AAAIIIIIIIIIIIIIIIIIIIIIIIIIIIIIIIIIIIAIIAIAIIAIAIIAIAIIAIAIIAIA
AAAIIIIIIIIIIIIIIIIIIIIIIIIIIIIIIIIIIIIIIAIAIIAIAIIAIAIIAIAIIAIA
AAAIIIIIIIIIIIIIIIIIIIIIIIIIIIIIIIIIIIIIIIIAIIAIAIIAIAIIAIAIIAIA
AAAIIIIIIIIIIIIIIIIIIIIIIIIIIIIIIIIIIIIIIIIIIIAIAIIAIAIIAIAIIAIA
AAAIIIIIIIIIIIIIIIIIIIIIIIIIIIIIIIIIIIIIIIIIIIIIAIIAIAIIAIAIIAIA
AAAIIIIIIIIIIIIIIIIIIIIIIIIIIIIIIIIIIIIIIIIIIIIIIIIAIAIIAIAIIAIA
AAAIIIIIIIIIIIIIIIIIIIIIIIIIIIIIIIIIIIIIIIIIIIIIIIIIIAIIAIAIIAIA
AAAIIIIIIIIIIIIIIIIIIIIIIIIIIIIIIIIIIIIIIIIIIIIIIIIIIIIIAIAIIAIA
AAAIIIIIIIIIIIIIIIIIIIIIIIIIIIIIIIIIIIIIIIIIIIIIIIIIIIIIIIAIIAIA
AAAIIIIIIIIIIIIIIIIIIIIIIIIIIIIIIIIIIIIIIIIIIIIIIIIIIIIIIIIIIAIA
AAAIIIIIIIIIIIIIIIIIIIIIIIIIIIIIIIIIIIIIIIIIIIIIIIIIIIIIIIIIIIIA
AAAIIIIIIIIIIIIIIIIIIIIIIIIIIIIIIIIIIIIIIIIIIIIIIIIIIIIIIIIIIIII
[MLOP] Prefetch Degree Mean: 7.00000
[MLOP] Prefetch Degree SD: 0.00000
[MLOP] Max Score Left Mean (%): 73.00458
[MLOP] Max Score Left SD (%): 0.43107
[MLOP] Max Score Right Mean (%): 96.82085
[MLOP] Max Score Right SD (%): 0.12399

Channel_0_RQ_row_buffer_hit 286447
Channel_0_RQ_row_buffer_miss 1190871
Channel_0_WQ_row_buffer_hit 175576
Channel_0_WQ_row_buffer_miss 927718
Channel_0_WQ_full 0
Channel_0_dbus_congested 1933033

avg_congested_cycle 11

DRAM_bw_pochs 322717
DRAM_bw_level_0 50433
DRAM_bw_level_1 139236
DRAM_bw_level_2 103866
DRAM_bw_level_3 29182
