*************************************************
   ChampSim Multicore Out-of-Order Simulator
   Last compiled: Apr  3 2025 20:54:34
*************************************************
parsing config file: /home/zir/Pythia/config/nopref.ini

trace_0 /home/zir/ChampSim/ML-DPC/ChampSimTraces/spec17/602.gcc-s3.trace.xz
adding L2C_PREFETCHER: NONE
Initialize SHIP state
warmup_instructions 10000000
simulation_instructions 50000000
champsim_seed 166
measure_ipc 0
measure_ipc_epoch 1000
measure_dram_bw 1
measure_dram_bw_epoch 256
measure_cache_acc 1
measure_cache_acc_epoch 1024
l1d_perfect 0
l2c_perfect 0
llc_perfect 0
l1d_semi_perfect 0
l2c_semi_perfect 0
llc_semi_perfect 0
semi_perfect_cache_page_buffer_size 64

num_cpus 1
cpu_freq 4000
dram_io_freq 2400
page_size 4096
block_size 64
max_read_per_cycle 8
max_fill_per_cycle 1
dram_channels 1
log2_dram_channels 0
dram_ranks 1
dram_banks 8
dram_rows 65536
dram_columns 128
dram_row_size 8
dram_size 4096
dram_pages 1048576

fetch_width 6
decode_width 6
exec_width 4
lq_width 2
sq_width 2
retire_width 4
scheduler_size 128
branch_mispredict_penalty 20
rob_size 256
lq_size 72
sq_size 56
num_instr_destinations_sparc 4
num_instr_destinations 2
num_instr_sources 4

itlb_set 16
itlb_way 8
itlb_rq_size 16
itlb_wq_size 16
itlb_pq_size 0
itlb_mshr_size 8
itlb_latency 1

dtlb_set 16
dtlb_way 4
dtlb_rq_size 16
dtlb_wq_size 16
dtlb_pq_size 0
dtlb_mshr_size 8
dtlb_latency 1

stlb_set 128
stlb_way 12
stlb_rq_size 32
stlb_wq_size 32
stlb_pq_size 0
stlb_mshr_size 16
stlb_latency 8

l1i_size 32
l1i_set 64
l1i_way 8
l1i_rq_size 64
l1i_wq_size 64
l1i_pq_size 8
l1i_mshr_size 8
l1i_latency 1

l1d_size 32
l1d_set 64
l1d_way 8
l1d_rq_size 64
l1d_wq_size 64
l1d_pq_size 8
l1d_mshr_size 16
l1d_latency 4

l2c_size 256
l2c_set 512
l2c_way 8
l2c_rq_size 32
l2c_wq_size 32
l2c_pq_size 32
l2c_mshr_size 32
l2c_latency 10

llc_size 2048
llc_set 2048
llc_way 16
llc_rq_size 32
llc_wq_size 32
llc_pq_size 32
llc_mshr_size 64
llc_latency 20

dram_channel_width 8
dram_wq_size 64
dram_rq_size 64
tRP 15
tRCD 15
tCAS 12.5
dram_dbus_turn_around_time 30
dram_write_high_wm 56
dram_write_low_wm 48
min_dram_writes_per_switch 16
dram_mtps 2400
dram_dbus_return_time 13


Heartbeat CPU  0 instructions:    1000003 cycles:     537629 heartbeat IPC: 1.86002 cumulative IPC: 1.86002 (Simulation time: 0 hr 0 min 1 sec) 
Heartbeat CPU  0 instructions:    2000002 cycles:    1073958 heartbeat IPC: 1.86453 cumulative IPC: 1.86227 (Simulation time: 0 hr 0 min 3 sec) 
Heartbeat CPU  0 instructions:    3000001 cycles:    1607758 heartbeat IPC: 1.87336 cumulative IPC: 1.86595 (Simulation time: 0 hr 0 min 5 sec) 
Heartbeat CPU  0 instructions:    4000000 cycles:    2142646 heartbeat IPC: 1.86955 cumulative IPC: 1.86685 (Simulation time: 0 hr 0 min 6 sec) 
Heartbeat CPU  0 instructions:    5000002 cycles:    2677443 heartbeat IPC: 1.86987 cumulative IPC: 1.86745 (Simulation time: 0 hr 0 min 8 sec) 
Heartbeat CPU  0 instructions:    6000002 cycles:    3211644 heartbeat IPC: 1.87195 cumulative IPC: 1.86820 (Simulation time: 0 hr 0 min 10 sec) 
Heartbeat CPU  0 instructions:    7000001 cycles:    3747562 heartbeat IPC: 1.86596 cumulative IPC: 1.86788 (Simulation time: 0 hr 0 min 11 sec) 
Heartbeat CPU  0 instructions:    8000000 cycles:    4287298 heartbeat IPC: 1.85276 cumulative IPC: 1.86598 (Simulation time: 0 hr 0 min 13 sec) 
Heartbeat CPU  0 instructions:    9000001 cycles:    4830811 heartbeat IPC: 1.83988 cumulative IPC: 1.86304 (Simulation time: 0 hr 0 min 14 sec) 
Heartbeat CPU  0 instructions:   10000000 cycles:    5367109 heartbeat IPC: 1.86463 cumulative IPC: 1.86320 (Simulation time: 0 hr 0 min 16 sec) 

Warmup complete CPU  0 instructions:   10000001 cycles:    5367111 (Simulation time: 0 hr 0 min 16 sec) 

Heartbeat CPU  0 instructions:   11000000 cycles:    8107053 heartbeat IPC: 0.36497 cumulative IPC: 0.36497 (Simulation time: 0 hr 0 min 19 sec) 
Heartbeat CPU  0 instructions:   12000000 cycles:   10857012 heartbeat IPC: 0.36364 cumulative IPC: 0.36431 (Simulation time: 0 hr 0 min 21 sec) 
Heartbeat CPU  0 instructions:   13000002 cycles:   13643354 heartbeat IPC: 0.35889 cumulative IPC: 0.36248 (Simulation time: 0 hr 0 min 24 sec) 
Heartbeat CPU  0 instructions:   14000002 cycles:   16494107 heartbeat IPC: 0.35078 cumulative IPC: 0.35949 (Simulation time: 0 hr 0 min 27 sec) 
Heartbeat CPU  0 instructions:   15000001 cycles:   19402789 heartbeat IPC: 0.34380 cumulative IPC: 0.35624 (Simulation time: 0 hr 0 min 29 sec) 
Heartbeat CPU  0 instructions:   16000000 cycles:   22164889 heartbeat IPC: 0.36204 cumulative IPC: 0.35719 (Simulation time: 0 hr 0 min 32 sec) 
Heartbeat CPU  0 instructions:   17000000 cycles:   24917880 heartbeat IPC: 0.36324 cumulative IPC: 0.35804 (Simulation time: 0 hr 0 min 35 sec) 
Heartbeat CPU  0 instructions:   18000000 cycles:   27668543 heartbeat IPC: 0.36355 cumulative IPC: 0.35872 (Simulation time: 0 hr 0 min 37 sec) 
Heartbeat CPU  0 instructions:   19000000 cycles:   30428383 heartbeat IPC: 0.36234 cumulative IPC: 0.35912 (Simulation time: 0 hr 0 min 40 sec) 
Heartbeat CPU  0 instructions:   20000000 cycles:   33176198 heartbeat IPC: 0.36393 cumulative IPC: 0.35959 (Simulation time: 0 hr 0 min 42 sec) 
Heartbeat CPU  0 instructions:   21000003 cycles:   35917890 heartbeat IPC: 0.36474 cumulative IPC: 0.36006 (Simulation time: 0 hr 0 min 45 sec) 
Heartbeat CPU  0 instructions:   22000002 cycles:   38656605 heartbeat IPC: 0.36513 cumulative IPC: 0.36047 (Simulation time: 0 hr 0 min 48 sec) 
Heartbeat CPU  0 instructions:   23000000 cycles:   41412417 heartbeat IPC: 0.36287 cumulative IPC: 0.36066 (Simulation time: 0 hr 0 min 50 sec) 
Heartbeat CPU  0 instructions:   24000000 cycles:   44171324 heartbeat IPC: 0.36246 cumulative IPC: 0.36079 (Simulation time: 0 hr 0 min 53 sec) 
Heartbeat CPU  0 instructions:   25000000 cycles:   46928335 heartbeat IPC: 0.36271 cumulative IPC: 0.36091 (Simulation time: 0 hr 0 min 56 sec) 
Heartbeat CPU  0 instructions:   26000000 cycles:   49676792 heartbeat IPC: 0.36384 cumulative IPC: 0.36109 (Simulation time: 0 hr 0 min 58 sec) 
Heartbeat CPU  0 instructions:   27000002 cycles:   52428320 heartbeat IPC: 0.36344 cumulative IPC: 0.36123 (Simulation time: 0 hr 1 min 1 sec) 
Heartbeat CPU  0 instructions:   28000000 cycles:   55179712 heartbeat IPC: 0.36345 cumulative IPC: 0.36135 (Simulation time: 0 hr 1 min 4 sec) 
Heartbeat CPU  0 instructions:   29000000 cycles:   57932536 heartbeat IPC: 0.36326 cumulative IPC: 0.36145 (Simulation time: 0 hr 1 min 6 sec) 
Heartbeat CPU  0 instructions:   30000003 cycles:   60582012 heartbeat IPC: 0.37743 cumulative IPC: 0.36222 (Simulation time: 0 hr 1 min 9 sec) 
Heartbeat CPU  0 instructions:   31000000 cycles:   62995446 heartbeat IPC: 0.41435 cumulative IPC: 0.36440 (Simulation time: 0 hr 1 min 11 sec) 
Heartbeat CPU  0 instructions:   32000000 cycles:   65345228 heartbeat IPC: 0.42557 cumulative IPC: 0.36680 (Simulation time: 0 hr 1 min 14 sec) 
Heartbeat CPU  0 instructions:   33000001 cycles:   67776114 heartbeat IPC: 0.41137 cumulative IPC: 0.36854 (Simulation time: 0 hr 1 min 16 sec) 
Heartbeat CPU  0 instructions:   34000003 cycles:   70519269 heartbeat IPC: 0.36454 cumulative IPC: 0.36837 (Simulation time: 0 hr 1 min 19 sec) 
Heartbeat CPU  0 instructions:   35000001 cycles:   73245923 heartbeat IPC: 0.36675 cumulative IPC: 0.36830 (Simulation time: 0 hr 1 min 22 sec) 
Heartbeat CPU  0 instructions:   36000000 cycles:   75981299 heartbeat IPC: 0.36558 cumulative IPC: 0.36820 (Simulation time: 0 hr 1 min 24 sec) 
Heartbeat CPU  0 instructions:   37000000 cycles:   78825589 heartbeat IPC: 0.35158 cumulative IPC: 0.36755 (Simulation time: 0 hr 1 min 27 sec) 
Heartbeat CPU  0 instructions:   38000002 cycles:   81713980 heartbeat IPC: 0.34621 cumulative IPC: 0.36675 (Simulation time: 0 hr 1 min 30 sec) 
Heartbeat CPU  0 instructions:   39000000 cycles:   84655200 heartbeat IPC: 0.33999 cumulative IPC: 0.36575 (Simulation time: 0 hr 1 min 32 sec) 
Heartbeat CPU  0 instructions:   40000000 cycles:   87401104 heartbeat IPC: 0.36418 cumulative IPC: 0.36570 (Simulation time: 0 hr 1 min 35 sec) 
Heartbeat CPU  0 instructions:   41000000 cycles:   90154271 heartbeat IPC: 0.36322 cumulative IPC: 0.36562 (Simulation time: 0 hr 1 min 38 sec) 
Heartbeat CPU  0 instructions:   42000000 cycles:   92893959 heartbeat IPC: 0.36501 cumulative IPC: 0.36560 (Simulation time: 0 hr 1 min 40 sec) 
Heartbeat CPU  0 instructions:   43000000 cycles:   95645398 heartbeat IPC: 0.36345 cumulative IPC: 0.36554 (Simulation time: 0 hr 1 min 43 sec) 
Heartbeat CPU  0 instructions:   44000000 cycles:   98390048 heartbeat IPC: 0.36435 cumulative IPC: 0.36550 (Simulation time: 0 hr 1 min 46 sec) 
Heartbeat CPU  0 instructions:   45000002 cycles:  101128883 heartbeat IPC: 0.36512 cumulative IPC: 0.36549 (Simulation time: 0 hr 1 min 48 sec) 
Heartbeat CPU  0 instructions:   46000001 cycles:  103866028 heartbeat IPC: 0.36534 cumulative IPC: 0.36549 (Simulation time: 0 hr 1 min 51 sec) 
Heartbeat CPU  0 instructions:   47000000 cycles:  106611335 heartbeat IPC: 0.36426 cumulative IPC: 0.36545 (Simulation time: 0 hr 1 min 53 sec) 
Heartbeat CPU  0 instructions:   48000000 cycles:  109366494 heartbeat IPC: 0.36296 cumulative IPC: 0.36539 (Simulation time: 0 hr 1 min 56 sec) 
Heartbeat CPU  0 instructions:   49000002 cycles:  112109815 heartbeat IPC: 0.36452 cumulative IPC: 0.36536 (Simulation time: 0 hr 1 min 59 sec) 
Heartbeat CPU  0 instructions:   50000000 cycles:  114852378 heartbeat IPC: 0.36462 cumulative IPC: 0.36535 (Simulation time: 0 hr 2 min 1 sec) 
Heartbeat CPU  0 instructions:   51000001 cycles:  117608912 heartbeat IPC: 0.36277 cumulative IPC: 0.36528 (Simulation time: 0 hr 2 min 4 sec) 
Heartbeat CPU  0 instructions:   52000000 cycles:  120356266 heartbeat IPC: 0.36399 cumulative IPC: 0.36525 (Simulation time: 0 hr 2 min 7 sec) 
Heartbeat CPU  0 instructions:   53000000 cycles:  123109681 heartbeat IPC: 0.36319 cumulative IPC: 0.36520 (Simulation time: 0 hr 2 min 9 sec) 
Heartbeat CPU  0 instructions:   54000000 cycles:  125718271 heartbeat IPC: 0.38335 cumulative IPC: 0.36560 (Simulation time: 0 hr 2 min 12 sec) 
Heartbeat CPU  0 instructions:   55000001 cycles:  128127318 heartbeat IPC: 0.41510 cumulative IPC: 0.36657 (Simulation time: 0 hr 2 min 14 sec) 
Heartbeat CPU  0 instructions:   56000000 cycles:  130477192 heartbeat IPC: 0.42555 cumulative IPC: 0.36768 (Simulation time: 0 hr 2 min 17 sec) 
Heartbeat CPU  0 instructions:   57000002 cycles:  132939433 heartbeat IPC: 0.40613 cumulative IPC: 0.36842 (Simulation time: 0 hr 2 min 20 sec) 
Heartbeat CPU  0 instructions:   58000000 cycles:  135677249 heartbeat IPC: 0.36525 cumulative IPC: 0.36835 (Simulation time: 0 hr 2 min 22 sec) 
Heartbeat CPU  0 instructions:   59000002 cycles:  138397430 heartbeat IPC: 0.36762 cumulative IPC: 0.36834 (Simulation time: 0 hr 2 min 25 sec) 
Heartbeat CPU  0 instructions:   60000000 cycles:  141139070 heartbeat IPC: 0.36474 cumulative IPC: 0.36826 (Simulation time: 0 hr 2 min 27 sec) 
Finished CPU 0 instructions: 50000000 cycles: 135771968 cumulative IPC: 0.36826 (Simulation time: 0 hr 2 min 27 sec) 

ChampSim completed all CPUs

[ROI Statistics]
Core_0_instructions 50000000
Core_0_cycles 135771968
Core_0_IPC 0.36826

Core_0_branch_prediction_accuracy 99.93011
Core_0_branch_MPKI 0.14828
Core_0_average_ROB_occupancy_at_mispredict 115.26477

Core_0_L1D_total_access 15909340
Core_0_L1D_total_hit 15098686
Core_0_L1D_total_miss 810654
Core_0_L1D_loads 10277522
Core_0_L1D_load_hit 9466958
Core_0_L1D_load_miss 810564
Core_0_L1D_RFOs 5631818
Core_0_L1D_RFO_hit 5631728
Core_0_L1D_RFO_miss 90
Core_0_L1D_prefetches 0
Core_0_L1D_prefetch_hit 0
Core_0_L1D_prefetch_miss 0
Core_0_L1D_writebacks 0
Core_0_L1D_writeback_hit 0
Core_0_L1D_writeback_miss 0
Core_0_L1D_prefetch_requested 0
Core_0_L1D_prefetch_dropped 0
Core_0_L1D_prefetch_issued 0
Core_0_L1D_prefetch_filled 0
Core_0_L1D_prefetch_useful 0
Core_0_L1D_prefetch_useless 0
Core_0_L1D_prefetch_late 0
Core_0_L1D_average_miss_latency 63.52536

Core_0_L1D_rq_access 13117192
Core_0_L1D_rq_forward 0
Core_0_L1D_rq_merged 2323800
Core_0_L1D_rq_to_cache 10793392
Core_0_L1D_rq_full 0

Core_0_L1D_wq_access 5633019
Core_0_L1D_wq_forward 0
Core_0_L1D_wq_merged 977
Core_0_L1D_wq_to_cache 5632042
Core_0_L1D_wq_full 0

Core_0_L1D_pq_access 0
Core_0_L1D_pq_forward 0
Core_0_L1D_pq_merged 0
Core_0_L1D_pq_to_cache 0
Core_0_L1D_pq_full 0

Core_0_L1D_acc_epochs 136839
Core_0_L1D_acc_level_0 136839
Core_0_L1D_acc_level_1 0
Core_0_L1D_acc_level_2 0
Core_0_L1D_acc_level_3 0
Core_0_L1D_acc_level_4 0
Core_0_L1D_acc_level_5 0
Core_0_L1D_acc_level_6 0
Core_0_L1D_acc_level_7 0
Core_0_L1D_acc_level_8 0
Core_0_L1D_acc_level_9 0

Core_0_L1I_total_access 20253515
Core_0_L1I_total_hit 20253460
Core_0_L1I_total_miss 55
Core_0_L1I_loads 20253515
Core_0_L1I_load_hit 20253460
Core_0_L1I_load_miss 55
Core_0_L1I_RFOs 0
Core_0_L1I_RFO_hit 0
Core_0_L1I_RFO_miss 0
Core_0_L1I_prefetches 0
Core_0_L1I_prefetch_hit 0
Core_0_L1I_prefetch_miss 0
Core_0_L1I_writebacks 0
Core_0_L1I_writeback_hit 0
Core_0_L1I_writeback_miss 0
Core_0_L1I_prefetch_requested 0
Core_0_L1I_prefetch_dropped 0
Core_0_L1I_prefetch_issued 0
Core_0_L1I_prefetch_filled 0
Core_0_L1I_prefetch_useful 0
Core_0_L1I_prefetch_useless 0
Core_0_L1I_prefetch_late 0
Core_0_L1I_average_miss_latency 225.98182

Core_0_L1I_rq_access 50000000
Core_0_L1I_rq_forward 0
Core_0_L1I_rq_merged 29746476
Core_0_L1I_rq_to_cache 20253524
Core_0_L1I_rq_full 0

Core_0_L1I_wq_access 0
Core_0_L1I_wq_forward 0
Core_0_L1I_wq_merged 0
Core_0_L1I_wq_to_cache 0
Core_0_L1I_wq_full 0

Core_0_L1I_pq_access 0
Core_0_L1I_pq_forward 0
Core_0_L1I_pq_merged 0
Core_0_L1I_pq_to_cache 0
Core_0_L1I_pq_full 0

Core_0_L1I_acc_epochs 136839
Core_0_L1I_acc_level_0 136839
Core_0_L1I_acc_level_1 0
Core_0_L1I_acc_level_2 0
Core_0_L1I_acc_level_3 0
Core_0_L1I_acc_level_4 0
Core_0_L1I_acc_level_5 0
Core_0_L1I_acc_level_6 0
Core_0_L1I_acc_level_7 0
Core_0_L1I_acc_level_8 0
Core_0_L1I_acc_level_9 0

Core_0_L2C_total_access 818682
Core_0_L2C_total_hit 412465
Core_0_L2C_total_miss 406217
Core_0_L2C_loads 810619
Core_0_L2C_load_hit 404466
Core_0_L2C_load_miss 406153
Core_0_L2C_RFOs 90
Core_0_L2C_RFO_hit 27
Core_0_L2C_RFO_miss 63
Core_0_L2C_prefetches 0
Core_0_L2C_prefetch_hit 0
Core_0_L2C_prefetch_miss 0
Core_0_L2C_writebacks 7973
Core_0_L2C_writeback_hit 7972
Core_0_L2C_writeback_miss 1
Core_0_L2C_prefetch_requested 0
Core_0_L2C_prefetch_dropped 0
Core_0_L2C_prefetch_issued 0
Core_0_L2C_prefetch_filled 0
Core_0_L2C_prefetch_useful 0
Core_0_L2C_prefetch_useless 0
Core_0_L2C_prefetch_late 0
Core_0_L2C_average_miss_latency 98.79289

Core_0_L2C_rq_access 810709
Core_0_L2C_rq_forward 0
Core_0_L2C_rq_merged 0
Core_0_L2C_rq_to_cache 810709
Core_0_L2C_rq_full 0

Core_0_L2C_wq_access 7973
Core_0_L2C_wq_forward 0
Core_0_L2C_wq_merged 0
Core_0_L2C_wq_to_cache 7973
Core_0_L2C_wq_full 0

Core_0_L2C_pq_access 0
Core_0_L2C_pq_forward 0
Core_0_L2C_pq_merged 0
Core_0_L2C_pq_to_cache 0
Core_0_L2C_pq_full 0

Core_0_L2C_acc_epochs 136839
Core_0_L2C_acc_level_0 136839
Core_0_L2C_acc_level_1 0
Core_0_L2C_acc_level_2 0
Core_0_L2C_acc_level_3 0
Core_0_L2C_acc_level_4 0
Core_0_L2C_acc_level_5 0
Core_0_L2C_acc_level_6 0
Core_0_L2C_acc_level_7 0
Core_0_L2C_acc_level_8 0
Core_0_L2C_acc_level_9 0

Core_0_LLC_total_access 409475
Core_0_LLC_total_hit 51711
Core_0_LLC_total_miss 357764
Core_0_LLC_loads 406153
Core_0_LLC_load_hit 49408
Core_0_LLC_load_miss 356745
Core_0_LLC_RFOs 63
Core_0_LLC_RFO_hit 9
Core_0_LLC_RFO_miss 54
Core_0_LLC_prefetches 0
Core_0_LLC_prefetch_hit 0
Core_0_LLC_prefetch_miss 0
Core_0_LLC_writebacks 3259
Core_0_LLC_writeback_hit 2294
Core_0_LLC_writeback_miss 965
Core_0_LLC_prefetch_requested 0
Core_0_LLC_prefetch_dropped 0
Core_0_LLC_prefetch_issued 0
Core_0_LLC_prefetch_filled 0
Core_0_LLC_prefetch_useful 0
Core_0_LLC_prefetch_useless 0
Core_0_LLC_prefetch_late 0
Core_0_LLC_average_miss_latency 78.05212

Core_0_LLC_rq_access 406216
Core_0_LLC_rq_forward 0
Core_0_LLC_rq_merged 0
Core_0_LLC_rq_to_cache 406216
Core_0_LLC_rq_full 0

Core_0_LLC_wq_access 3259
Core_0_LLC_wq_forward 0
Core_0_LLC_wq_merged 0
Core_0_LLC_wq_to_cache 3259
Core_0_LLC_wq_full 0

Core_0_LLC_pq_access 0
Core_0_LLC_pq_forward 0
Core_0_LLC_pq_merged 0
Core_0_LLC_pq_to_cache 0
Core_0_LLC_pq_full 0

Core_0_LLC_acc_epochs 137832
Core_0_LLC_acc_level_0 137832
Core_0_LLC_acc_level_1 0
Core_0_LLC_acc_level_2 0
Core_0_LLC_acc_level_3 0
Core_0_LLC_acc_level_4 0
Core_0_LLC_acc_level_5 0
Core_0_LLC_acc_level_6 0
Core_0_LLC_acc_level_7 0
Core_0_LLC_acc_level_8 0
Core_0_LLC_acc_level_9 0

Core_0_major_page_fault 0
Core_0_minor_page_fault 5904

Channel_0_RQ_row_buffer_hit 332521
Channel_0_RQ_row_buffer_miss 24278
Channel_0_WQ_row_buffer_hit 3
Channel_0_WQ_row_buffer_miss 257
Channel_0_WQ_full 0
Channel_0_dbus_congested 862

avg_congested_cycle 9

DRAM_bw_pochs 551325
DRAM_bw_level_0 551289
DRAM_bw_level_1 36
DRAM_bw_level_2 0
DRAM_bw_level_3 0
