*************************************************
   ChampSim Multicore Out-of-Order Simulator
   Last compiled: Apr  3 2025 20:54:34
*************************************************
parsing config file: /home/zir/Pythia/config/nopref.ini

trace_0 /home/zir/ChampSim/ML-DPC/ChampSimTraces/spec06/429.mcf-s1.trace.gz
adding L2C_PREFETCHER: NONE
Initialize SHIP state
warmup_instructions 10000000
simulation_instructions 50000000
champsim_seed 164
measure_ipc 0
measure_ipc_epoch 1000
measure_dram_bw 1
measure_dram_bw_epoch 256
measure_cache_acc 1
measure_cache_acc_epoch 1024
l1d_perfect 0
l2c_perfect 0
llc_perfect 0
l1d_semi_perfect 0
l2c_semi_perfect 0
llc_semi_perfect 0
semi_perfect_cache_page_buffer_size 64

num_cpus 1
cpu_freq 4000
dram_io_freq 2400
page_size 4096
block_size 64
max_read_per_cycle 8
max_fill_per_cycle 1
dram_channels 1
log2_dram_channels 0
dram_ranks 1
dram_banks 8
dram_rows 65536
dram_columns 128
dram_row_size 8
dram_size 4096
dram_pages 1048576

fetch_width 6
decode_width 6
exec_width 4
lq_width 2
sq_width 2
retire_width 4
scheduler_size 128
branch_mispredict_penalty 20
rob_size 256
lq_size 72
sq_size 56
num_instr_destinations_sparc 4
num_instr_destinations 2
num_instr_sources 4

itlb_set 16
itlb_way 8
itlb_rq_size 16
itlb_wq_size 16
itlb_pq_size 0
itlb_mshr_size 8
itlb_latency 1

dtlb_set 16
dtlb_way 4
dtlb_rq_size 16
dtlb_wq_size 16
dtlb_pq_size 0
dtlb_mshr_size 8
dtlb_latency 1

stlb_set 128
stlb_way 12
stlb_rq_size 32
stlb_wq_size 32
stlb_pq_size 0
stlb_mshr_size 16
stlb_latency 8

l1i_size 32
l1i_set 64
l1i_way 8
l1i_rq_size 64
l1i_wq_size 64
l1i_pq_size 8
l1i_mshr_size 8
l1i_latency 1

l1d_size 32
l1d_set 64
l1d_way 8
l1d_rq_size 64
l1d_wq_size 64
l1d_pq_size 8
l1d_mshr_size 16
l1d_latency 4

l2c_size 256
l2c_set 512
l2c_way 8
l2c_rq_size 32
l2c_wq_size 32
l2c_pq_size 32
l2c_mshr_size 32
l2c_latency 10

llc_size 2048
llc_set 2048
llc_way 16
llc_rq_size 32
llc_wq_size 32
llc_pq_size 32
llc_mshr_size 64
llc_latency 20

dram_channel_width 8
dram_wq_size 64
dram_rq_size 64
tRP 15
tRCD 15
tCAS 12.5
dram_dbus_turn_around_time 30
dram_write_high_wm 56
dram_write_low_wm 48
min_dram_writes_per_switch 16
dram_mtps 2400
dram_dbus_return_time 13


Heartbeat CPU  0 instructions:    1000000 cycles:     887590 heartbeat IPC: 1.12665 cumulative IPC: 1.12665 (Simulation time: 0 hr 0 min 1 sec) 
Heartbeat CPU  0 instructions:    2000000 cycles:    2015113 heartbeat IPC: 0.88690 cumulative IPC: 0.99250 (Simulation time: 0 hr 0 min 3 sec) 
Heartbeat CPU  0 instructions:    3000002 cycles:    3141162 heartbeat IPC: 0.88806 cumulative IPC: 0.95506 (Simulation time: 0 hr 0 min 4 sec) 
Heartbeat CPU  0 instructions:    4000000 cycles:    4425839 heartbeat IPC: 0.77840 cumulative IPC: 0.90378 (Simulation time: 0 hr 0 min 6 sec) 
Heartbeat CPU  0 instructions:    5000001 cycles:    5629436 heartbeat IPC: 0.83084 cumulative IPC: 0.88819 (Simulation time: 0 hr 0 min 7 sec) 
Heartbeat CPU  0 instructions:    6000000 cycles:    6843143 heartbeat IPC: 0.82392 cumulative IPC: 0.87679 (Simulation time: 0 hr 0 min 8 sec) 
Heartbeat CPU  0 instructions:    7000002 cycles:    8030332 heartbeat IPC: 0.84233 cumulative IPC: 0.87170 (Simulation time: 0 hr 0 min 9 sec) 
Heartbeat CPU  0 instructions:    8000000 cycles:    9350832 heartbeat IPC: 0.75729 cumulative IPC: 0.85554 (Simulation time: 0 hr 0 min 11 sec) 
Heartbeat CPU  0 instructions:    9000002 cycles:   10670905 heartbeat IPC: 0.75754 cumulative IPC: 0.84342 (Simulation time: 0 hr 0 min 12 sec) 
Heartbeat CPU  0 instructions:   10000000 cycles:   11956238 heartbeat IPC: 0.77801 cumulative IPC: 0.83638 (Simulation time: 0 hr 0 min 13 sec) 

Warmup complete CPU  0 instructions:   10000003 cycles:   11956239 (Simulation time: 0 hr 0 min 13 sec) 

Heartbeat CPU  0 instructions:   11000001 cycles:   29139020 heartbeat IPC: 0.05820 cumulative IPC: 0.05820 (Simulation time: 0 hr 0 min 18 sec) 
Heartbeat CPU  0 instructions:   12000000 cycles:   45196057 heartbeat IPC: 0.06228 cumulative IPC: 0.06017 (Simulation time: 0 hr 0 min 23 sec) 
Heartbeat CPU  0 instructions:   13000000 cycles:   63217048 heartbeat IPC: 0.05549 cumulative IPC: 0.05852 (Simulation time: 0 hr 0 min 28 sec) 
Heartbeat CPU  0 instructions:   14000002 cycles:   80625547 heartbeat IPC: 0.05744 cumulative IPC: 0.05825 (Simulation time: 0 hr 0 min 33 sec) 
Heartbeat CPU  0 instructions:   15000002 cycles:   98042240 heartbeat IPC: 0.05742 cumulative IPC: 0.05808 (Simulation time: 0 hr 0 min 38 sec) 
Heartbeat CPU  0 instructions:   16000000 cycles:  114359579 heartbeat IPC: 0.06128 cumulative IPC: 0.05859 (Simulation time: 0 hr 0 min 42 sec) 
Heartbeat CPU  0 instructions:   17000000 cycles:  131278495 heartbeat IPC: 0.05911 cumulative IPC: 0.05866 (Simulation time: 0 hr 0 min 47 sec) 
Heartbeat CPU  0 instructions:   18000002 cycles:  147633626 heartbeat IPC: 0.06114 cumulative IPC: 0.05896 (Simulation time: 0 hr 0 min 52 sec) 
Heartbeat CPU  0 instructions:   19000000 cycles:  164626828 heartbeat IPC: 0.05885 cumulative IPC: 0.05895 (Simulation time: 0 hr 0 min 57 sec) 
Heartbeat CPU  0 instructions:   20000000 cycles:  181548192 heartbeat IPC: 0.05910 cumulative IPC: 0.05897 (Simulation time: 0 hr 1 min 2 sec) 
Heartbeat CPU  0 instructions:   21000000 cycles:  197569101 heartbeat IPC: 0.06242 cumulative IPC: 0.05926 (Simulation time: 0 hr 1 min 6 sec) 
Heartbeat CPU  0 instructions:   22000000 cycles:  213229377 heartbeat IPC: 0.06386 cumulative IPC: 0.05962 (Simulation time: 0 hr 1 min 11 sec) 
Heartbeat CPU  0 instructions:   23000002 cycles:  229928350 heartbeat IPC: 0.05988 cumulative IPC: 0.05964 (Simulation time: 0 hr 1 min 15 sec) 
Heartbeat CPU  0 instructions:   24000000 cycles:  246366133 heartbeat IPC: 0.06084 cumulative IPC: 0.05972 (Simulation time: 0 hr 1 min 20 sec) 
Heartbeat CPU  0 instructions:   25000002 cycles:  263329255 heartbeat IPC: 0.05895 cumulative IPC: 0.05967 (Simulation time: 0 hr 1 min 25 sec) 
Heartbeat CPU  0 instructions:   26000000 cycles:  280702910 heartbeat IPC: 0.05756 cumulative IPC: 0.05954 (Simulation time: 0 hr 1 min 29 sec) 
Heartbeat CPU  0 instructions:   27000002 cycles:  298353060 heartbeat IPC: 0.05666 cumulative IPC: 0.05936 (Simulation time: 0 hr 1 min 34 sec) 
Heartbeat CPU  0 instructions:   28000000 cycles:  316113317 heartbeat IPC: 0.05631 cumulative IPC: 0.05918 (Simulation time: 0 hr 1 min 39 sec) 
Heartbeat CPU  0 instructions:   29000000 cycles:  333974322 heartbeat IPC: 0.05599 cumulative IPC: 0.05900 (Simulation time: 0 hr 1 min 44 sec) 
Heartbeat CPU  0 instructions:   30000001 cycles:  351625157 heartbeat IPC: 0.05665 cumulative IPC: 0.05888 (Simulation time: 0 hr 1 min 49 sec) 
Heartbeat CPU  0 instructions:   31000000 cycles:  369029610 heartbeat IPC: 0.05746 cumulative IPC: 0.05881 (Simulation time: 0 hr 1 min 54 sec) 
Heartbeat CPU  0 instructions:   32000000 cycles:  385637877 heartbeat IPC: 0.06021 cumulative IPC: 0.05887 (Simulation time: 0 hr 1 min 58 sec) 
Heartbeat CPU  0 instructions:   33000000 cycles:  402991637 heartbeat IPC: 0.05762 cumulative IPC: 0.05882 (Simulation time: 0 hr 2 min 3 sec) 
Heartbeat CPU  0 instructions:   34000000 cycles:  420126126 heartbeat IPC: 0.05836 cumulative IPC: 0.05880 (Simulation time: 0 hr 2 min 8 sec) 
Heartbeat CPU  0 instructions:   35000000 cycles:  436682416 heartbeat IPC: 0.06040 cumulative IPC: 0.05886 (Simulation time: 0 hr 2 min 13 sec) 
Heartbeat CPU  0 instructions:   36000000 cycles:  453816417 heartbeat IPC: 0.05836 cumulative IPC: 0.05884 (Simulation time: 0 hr 2 min 18 sec) 
Heartbeat CPU  0 instructions:   37000002 cycles:  471520026 heartbeat IPC: 0.05649 cumulative IPC: 0.05875 (Simulation time: 0 hr 2 min 23 sec) 
Heartbeat CPU  0 instructions:   38000000 cycles:  489098675 heartbeat IPC: 0.05689 cumulative IPC: 0.05868 (Simulation time: 0 hr 2 min 28 sec) 
Heartbeat CPU  0 instructions:   39000000 cycles:  506624161 heartbeat IPC: 0.05706 cumulative IPC: 0.05863 (Simulation time: 0 hr 2 min 32 sec) 
Heartbeat CPU  0 instructions:   40000000 cycles:  524181876 heartbeat IPC: 0.05696 cumulative IPC: 0.05857 (Simulation time: 0 hr 2 min 37 sec) 
Heartbeat CPU  0 instructions:   41000000 cycles:  541466082 heartbeat IPC: 0.05786 cumulative IPC: 0.05854 (Simulation time: 0 hr 2 min 42 sec) 
Heartbeat CPU  0 instructions:   42000000 cycles:  558768985 heartbeat IPC: 0.05779 cumulative IPC: 0.05852 (Simulation time: 0 hr 2 min 47 sec) 
Heartbeat CPU  0 instructions:   43000000 cycles:  575983955 heartbeat IPC: 0.05809 cumulative IPC: 0.05851 (Simulation time: 0 hr 2 min 52 sec) 
Heartbeat CPU  0 instructions:   44000000 cycles:  593380853 heartbeat IPC: 0.05748 cumulative IPC: 0.05848 (Simulation time: 0 hr 2 min 57 sec) 
Heartbeat CPU  0 instructions:   45000000 cycles:  610681327 heartbeat IPC: 0.05780 cumulative IPC: 0.05846 (Simulation time: 0 hr 3 min 2 sec) 
Heartbeat CPU  0 instructions:   46000002 cycles:  627995808 heartbeat IPC: 0.05776 cumulative IPC: 0.05844 (Simulation time: 0 hr 3 min 6 sec) 
Heartbeat CPU  0 instructions:   47000002 cycles:  645368558 heartbeat IPC: 0.05756 cumulative IPC: 0.05841 (Simulation time: 0 hr 3 min 11 sec) 
Heartbeat CPU  0 instructions:   48000000 cycles:  662306253 heartbeat IPC: 0.05904 cumulative IPC: 0.05843 (Simulation time: 0 hr 3 min 16 sec) 
Heartbeat CPU  0 instructions:   49000000 cycles:  679772386 heartbeat IPC: 0.05725 cumulative IPC: 0.05840 (Simulation time: 0 hr 3 min 22 sec) 
Heartbeat CPU  0 instructions:   50000002 cycles:  697235465 heartbeat IPC: 0.05726 cumulative IPC: 0.05837 (Simulation time: 0 hr 3 min 26 sec) 
Heartbeat CPU  0 instructions:   51000002 cycles:  714655166 heartbeat IPC: 0.05741 cumulative IPC: 0.05835 (Simulation time: 0 hr 3 min 31 sec) 
Heartbeat CPU  0 instructions:   52000000 cycles:  732015173 heartbeat IPC: 0.05760 cumulative IPC: 0.05833 (Simulation time: 0 hr 3 min 36 sec) 
Heartbeat CPU  0 instructions:   53000000 cycles:  749549472 heartbeat IPC: 0.05703 cumulative IPC: 0.05830 (Simulation time: 0 hr 3 min 41 sec) 
Heartbeat CPU  0 instructions:   54000000 cycles:  766906304 heartbeat IPC: 0.05761 cumulative IPC: 0.05828 (Simulation time: 0 hr 3 min 46 sec) 
Heartbeat CPU  0 instructions:   55000001 cycles:  784211573 heartbeat IPC: 0.05779 cumulative IPC: 0.05827 (Simulation time: 0 hr 3 min 51 sec) 
Heartbeat CPU  0 instructions:   56000000 cycles:  801507921 heartbeat IPC: 0.05782 cumulative IPC: 0.05826 (Simulation time: 0 hr 3 min 56 sec) 
Heartbeat CPU  0 instructions:   57000000 cycles:  819040989 heartbeat IPC: 0.05704 cumulative IPC: 0.05823 (Simulation time: 0 hr 4 min 1 sec) 
Heartbeat CPU  0 instructions:   58000000 cycles:  836272696 heartbeat IPC: 0.05803 cumulative IPC: 0.05823 (Simulation time: 0 hr 4 min 5 sec) 
Heartbeat CPU  0 instructions:   59000001 cycles:  853587977 heartbeat IPC: 0.05775 cumulative IPC: 0.05822 (Simulation time: 0 hr 4 min 10 sec) 
Heartbeat CPU  0 instructions:   60000000 cycles:  870581438 heartbeat IPC: 0.05885 cumulative IPC: 0.05823 (Simulation time: 0 hr 4 min 15 sec) 
Finished CPU 0 instructions: 50000001 cycles: 858625278 cumulative IPC: 0.05823 (Simulation time: 0 hr 4 min 15 sec) 

ChampSim completed all CPUs

[ROI Statistics]
Core_0_instructions 50000001
Core_0_cycles 858625278
Core_0_IPC 0.05823

Core_0_branch_prediction_accuracy 92.63452
Core_0_branch_MPKI 22.60140
Core_0_average_ROB_occupancy_at_mispredict 42.49760

Core_0_L1D_total_access 10375624
Core_0_L1D_total_hit 933864
Core_0_L1D_total_miss 9441760
Core_0_L1D_loads 10137109
Core_0_L1D_load_hit 710578
Core_0_L1D_load_miss 9426531
Core_0_L1D_RFOs 238515
Core_0_L1D_RFO_hit 223286
Core_0_L1D_RFO_miss 15229
Core_0_L1D_prefetches 0
Core_0_L1D_prefetch_hit 0
Core_0_L1D_prefetch_miss 0
Core_0_L1D_writebacks 0
Core_0_L1D_writeback_hit 0
Core_0_L1D_writeback_miss 0
Core_0_L1D_prefetch_requested 0
Core_0_L1D_prefetch_dropped 0
Core_0_L1D_prefetch_issued 0
Core_0_L1D_prefetch_filled 0
Core_0_L1D_prefetch_useful 0
Core_0_L1D_prefetch_useless 0
Core_0_L1D_prefetch_late 0
Core_0_L1D_average_miss_latency 202.77122

Core_0_L1D_rq_access 19897054
Core_0_L1D_rq_forward 0
Core_0_L1D_rq_merged 9426522
Core_0_L1D_rq_to_cache 10470532
Core_0_L1D_rq_full 0

Core_0_L1D_wq_access 254386
Core_0_L1D_wq_forward 0
Core_0_L1D_wq_merged 13912
Core_0_L1D_wq_to_cache 240474
Core_0_L1D_wq_full 0

Core_0_L1D_pq_access 0
Core_0_L1D_pq_forward 0
Core_0_L1D_pq_merged 0
Core_0_L1D_pq_to_cache 0
Core_0_L1D_pq_full 0

Core_0_L1D_acc_epochs 831516
Core_0_L1D_acc_level_0 831516
Core_0_L1D_acc_level_1 0
Core_0_L1D_acc_level_2 0
Core_0_L1D_acc_level_3 0
Core_0_L1D_acc_level_4 0
Core_0_L1D_acc_level_5 0
Core_0_L1D_acc_level_6 0
Core_0_L1D_acc_level_7 0
Core_0_L1D_acc_level_8 0
Core_0_L1D_acc_level_9 0

Core_0_L1I_total_access 9492667
Core_0_L1I_total_hit 9492667
Core_0_L1I_total_miss 0
Core_0_L1I_loads 9492667
Core_0_L1I_load_hit 9492667
Core_0_L1I_load_miss 0
Core_0_L1I_RFOs 0
Core_0_L1I_RFO_hit 0
Core_0_L1I_RFO_miss 0
Core_0_L1I_prefetches 0
Core_0_L1I_prefetch_hit 0
Core_0_L1I_prefetch_miss 0
Core_0_L1I_writebacks 0
Core_0_L1I_writeback_hit 0
Core_0_L1I_writeback_miss 0
Core_0_L1I_prefetch_requested 0
Core_0_L1I_prefetch_dropped 0
Core_0_L1I_prefetch_issued 0
Core_0_L1I_prefetch_filled 0
Core_0_L1I_prefetch_useful 0
Core_0_L1I_prefetch_useless 0
Core_0_L1I_prefetch_late 0
Core_0_L1I_average_miss_latency -nan

Core_0_L1I_rq_access 50000010
Core_0_L1I_rq_forward 0
Core_0_L1I_rq_merged 40507343
Core_0_L1I_rq_to_cache 9492667
Core_0_L1I_rq_full 0

Core_0_L1I_wq_access 0
Core_0_L1I_wq_forward 0
Core_0_L1I_wq_merged 0
Core_0_L1I_wq_to_cache 0
Core_0_L1I_wq_full 0

Core_0_L1I_pq_access 0
Core_0_L1I_pq_forward 0
Core_0_L1I_pq_merged 0
Core_0_L1I_pq_to_cache 0
Core_0_L1I_pq_full 0

Core_0_L1I_acc_epochs 831516
Core_0_L1I_acc_level_0 831516
Core_0_L1I_acc_level_1 0
Core_0_L1I_acc_level_2 0
Core_0_L1I_acc_level_3 0
Core_0_L1I_acc_level_4 0
Core_0_L1I_acc_level_5 0
Core_0_L1I_acc_level_6 0
Core_0_L1I_acc_level_7 0
Core_0_L1I_acc_level_8 0
Core_0_L1I_acc_level_9 0

Core_0_L2C_total_access 9575567
Core_0_L2C_total_hit 2266772
Core_0_L2C_total_miss 7308795
Core_0_L2C_loads 9426530
Core_0_L2C_load_hit 2130394
Core_0_L2C_load_miss 7296136
Core_0_L2C_RFOs 15229
Core_0_L2C_RFO_hit 2570
Core_0_L2C_RFO_miss 12659
Core_0_L2C_prefetches 0
Core_0_L2C_prefetch_hit 0
Core_0_L2C_prefetch_miss 0
Core_0_L2C_writebacks 133808
Core_0_L2C_writeback_hit 133808
Core_0_L2C_writeback_miss 0
Core_0_L2C_prefetch_requested 0
Core_0_L2C_prefetch_dropped 0
Core_0_L2C_prefetch_issued 0
Core_0_L2C_prefetch_filled 0
Core_0_L2C_prefetch_useful 0
Core_0_L2C_prefetch_useless 0
Core_0_L2C_prefetch_late 0
Core_0_L2C_average_miss_latency 243.09939

Core_0_L2C_rq_access 9441761
Core_0_L2C_rq_forward 0
Core_0_L2C_rq_merged 0
Core_0_L2C_rq_to_cache 9441760
Core_0_L2C_rq_full 0

Core_0_L2C_wq_access 133808
Core_0_L2C_wq_forward 1
Core_0_L2C_wq_merged 0
Core_0_L2C_wq_to_cache 133808
Core_0_L2C_wq_full 0

Core_0_L2C_pq_access 0
Core_0_L2C_pq_forward 0
Core_0_L2C_pq_merged 0
Core_0_L2C_pq_to_cache 0
Core_0_L2C_pq_full 0

Core_0_L2C_acc_epochs 831516
Core_0_L2C_acc_level_0 831516
Core_0_L2C_acc_level_1 0
Core_0_L2C_acc_level_2 0
Core_0_L2C_acc_level_3 0
Core_0_L2C_acc_level_4 0
Core_0_L2C_acc_level_5 0
Core_0_L2C_acc_level_6 0
Core_0_L2C_acc_level_7 0
Core_0_L2C_acc_level_8 0
Core_0_L2C_acc_level_9 0

Core_0_LLC_total_access 7436898
Core_0_LLC_total_hit 3947991
Core_0_LLC_total_miss 3488907
Core_0_LLC_loads 7296136
Core_0_LLC_load_hit 3862950
Core_0_LLC_load_miss 3433186
Core_0_LLC_RFOs 12659
Core_0_LLC_RFO_hit 6857
Core_0_LLC_RFO_miss 5802
Core_0_LLC_prefetches 0
Core_0_LLC_prefetch_hit 0
Core_0_LLC_prefetch_miss 0
Core_0_LLC_writebacks 128103
Core_0_LLC_writeback_hit 78184
Core_0_LLC_writeback_miss 49919
Core_0_LLC_prefetch_requested 0
Core_0_LLC_prefetch_dropped 0
Core_0_LLC_prefetch_issued 0
Core_0_LLC_prefetch_filled 0
Core_0_LLC_prefetch_useful 0
Core_0_LLC_prefetch_useless 0
Core_0_LLC_prefetch_late 0
Core_0_LLC_average_miss_latency 445.92615

Core_0_LLC_rq_access 7308796
Core_0_LLC_rq_forward 0
Core_0_LLC_rq_merged 0
Core_0_LLC_rq_to_cache 7308796
Core_0_LLC_rq_full 0

Core_0_LLC_wq_access 128103
Core_0_LLC_wq_forward 0
Core_0_LLC_wq_merged 0
Core_0_LLC_wq_to_cache 128103
Core_0_LLC_wq_full 0

Core_0_LLC_pq_access 0
Core_0_LLC_pq_forward 0
Core_0_LLC_pq_merged 0
Core_0_LLC_pq_to_cache 0
Core_0_LLC_pq_full 0

Core_0_LLC_acc_epochs 850178
Core_0_LLC_acc_level_0 850178
Core_0_LLC_acc_level_1 0
Core_0_LLC_acc_level_2 0
Core_0_LLC_acc_level_3 0
Core_0_LLC_acc_level_4 0
Core_0_LLC_acc_level_5 0
Core_0_LLC_acc_level_6 0
Core_0_LLC_acc_level_7 0
Core_0_LLC_acc_level_8 0
Core_0_LLC_acc_level_9 0

Core_0_major_page_fault 0
Core_0_minor_page_fault 74348

Channel_0_RQ_row_buffer_hit 17918
Channel_0_RQ_row_buffer_miss 3421061
Channel_0_WQ_row_buffer_hit 23705
Channel_0_WQ_row_buffer_miss 57993
Channel_0_WQ_full 0
Channel_0_dbus_congested 86610

avg_congested_cycle 10

DRAM_bw_pochs 3400710
DRAM_bw_level_0 3175616
DRAM_bw_level_1 223232
DRAM_bw_level_2 1862
DRAM_bw_level_3 0
