*************************************************
   ChampSim Multicore Out-of-Order Simulator
   Last compiled: Apr  3 2025 20:54:34
*************************************************
parsing config file: /home/zir/Pythia/config/nopref.ini

trace_0 /home/zir/ChampSim/ML-DPC/ChampSimTraces/spec17/607.cactuBSSN-s0.trace.xz
adding L2C_PREFETCHER: NONE
Initialize SHIP state
warmup_instructions 10000000
simulation_instructions 50000000
champsim_seed 163
measure_ipc 0
measure_ipc_epoch 1000
measure_dram_bw 1
measure_dram_bw_epoch 256
measure_cache_acc 1
measure_cache_acc_epoch 1024
l1d_perfect 0
l2c_perfect 0
llc_perfect 0
l1d_semi_perfect 0
l2c_semi_perfect 0
llc_semi_perfect 0
semi_perfect_cache_page_buffer_size 64

num_cpus 1
cpu_freq 4000
dram_io_freq 2400
page_size 4096
block_size 64
max_read_per_cycle 8
max_fill_per_cycle 1
dram_channels 1
log2_dram_channels 0
dram_ranks 1
dram_banks 8
dram_rows 65536
dram_columns 128
dram_row_size 8
dram_size 4096
dram_pages 1048576

fetch_width 6
decode_width 6
exec_width 4
lq_width 2
sq_width 2
retire_width 4
scheduler_size 128
branch_mispredict_penalty 20
rob_size 256
lq_size 72
sq_size 56
num_instr_destinations_sparc 4
num_instr_destinations 2
num_instr_sources 4

itlb_set 16
itlb_way 8
itlb_rq_size 16
itlb_wq_size 16
itlb_pq_size 0
itlb_mshr_size 8
itlb_latency 1

dtlb_set 16
dtlb_way 4
dtlb_rq_size 16
dtlb_wq_size 16
dtlb_pq_size 0
dtlb_mshr_size 8
dtlb_latency 1

stlb_set 128
stlb_way 12
stlb_rq_size 32
stlb_wq_size 32
stlb_pq_size 0
stlb_mshr_size 16
stlb_latency 8

l1i_size 32
l1i_set 64
l1i_way 8
l1i_rq_size 64
l1i_wq_size 64
l1i_pq_size 8
l1i_mshr_size 8
l1i_latency 1

l1d_size 32
l1d_set 64
l1d_way 8
l1d_rq_size 64
l1d_wq_size 64
l1d_pq_size 8
l1d_mshr_size 16
l1d_latency 4

l2c_size 256
l2c_set 512
l2c_way 8
l2c_rq_size 32
l2c_wq_size 32
l2c_pq_size 32
l2c_mshr_size 32
l2c_latency 10

llc_size 2048
llc_set 2048
llc_way 16
llc_rq_size 32
llc_wq_size 32
llc_pq_size 32
llc_mshr_size 64
llc_latency 20

dram_channel_width 8
dram_wq_size 64
dram_rq_size 64
tRP 15
tRCD 15
tCAS 12.5
dram_dbus_turn_around_time 30
dram_write_high_wm 56
dram_write_low_wm 48
min_dram_writes_per_switch 16
dram_mtps 2400
dram_dbus_return_time 13


Heartbeat CPU  0 instructions:    1000003 cycles:     569867 heartbeat IPC: 1.75480 cumulative IPC: 1.75480 (Simulation time: 0 hr 0 min 2 sec) 
Heartbeat CPU  0 instructions:    2000000 cycles:    1138445 heartbeat IPC: 1.75877 cumulative IPC: 1.75678 (Simulation time: 0 hr 0 min 4 sec) 
Heartbeat CPU  0 instructions:    3000000 cycles:    1707650 heartbeat IPC: 1.75684 cumulative IPC: 1.75680 (Simulation time: 0 hr 0 min 6 sec) 
Heartbeat CPU  0 instructions:    4000000 cycles:    2277408 heartbeat IPC: 1.75513 cumulative IPC: 1.75638 (Simulation time: 0 hr 0 min 7 sec) 
Heartbeat CPU  0 instructions:    5000001 cycles:    2846025 heartbeat IPC: 1.75865 cumulative IPC: 1.75684 (Simulation time: 0 hr 0 min 9 sec) 
Heartbeat CPU  0 instructions:    6000002 cycles:    3415405 heartbeat IPC: 1.75630 cumulative IPC: 1.75675 (Simulation time: 0 hr 0 min 11 sec) 
Heartbeat CPU  0 instructions:    7000001 cycles:    3984809 heartbeat IPC: 1.75622 cumulative IPC: 1.75667 (Simulation time: 0 hr 0 min 13 sec) 
Heartbeat CPU  0 instructions:    8000000 cycles:    4553999 heartbeat IPC: 1.75688 cumulative IPC: 1.75670 (Simulation time: 0 hr 0 min 15 sec) 
Heartbeat CPU  0 instructions:    9000002 cycles:    5123212 heartbeat IPC: 1.75682 cumulative IPC: 1.75671 (Simulation time: 0 hr 0 min 17 sec) 
Heartbeat CPU  0 instructions:   10000000 cycles:    5691799 heartbeat IPC: 1.75874 cumulative IPC: 1.75691 (Simulation time: 0 hr 0 min 19 sec) 

Warmup complete CPU  0 instructions:   10000004 cycles:    5691800 (Simulation time: 0 hr 0 min 19 sec) 

Heartbeat CPU  0 instructions:   11000000 cycles:    6732468 heartbeat IPC: 0.96092 cumulative IPC: 0.96092 (Simulation time: 0 hr 0 min 21 sec) 
Heartbeat CPU  0 instructions:   12000000 cycles:    7764353 heartbeat IPC: 0.96910 cumulative IPC: 0.96499 (Simulation time: 0 hr 0 min 23 sec) 
Heartbeat CPU  0 instructions:   13000003 cycles:    8792340 heartbeat IPC: 0.97278 cumulative IPC: 0.96757 (Simulation time: 0 hr 0 min 25 sec) 
Heartbeat CPU  0 instructions:   14000003 cycles:    9829516 heartbeat IPC: 0.96416 cumulative IPC: 0.96672 (Simulation time: 0 hr 0 min 27 sec) 
Heartbeat CPU  0 instructions:   15000000 cycles:   10858755 heartbeat IPC: 0.97159 cumulative IPC: 0.96769 (Simulation time: 0 hr 0 min 29 sec) 
Heartbeat CPU  0 instructions:   16000000 cycles:   11896959 heartbeat IPC: 0.96320 cumulative IPC: 0.96694 (Simulation time: 0 hr 0 min 32 sec) 
Heartbeat CPU  0 instructions:   17000001 cycles:   12949205 heartbeat IPC: 0.95035 cumulative IPC: 0.96453 (Simulation time: 0 hr 0 min 34 sec) 
Heartbeat CPU  0 instructions:   18000000 cycles:   13990651 heartbeat IPC: 0.96020 cumulative IPC: 0.96399 (Simulation time: 0 hr 0 min 36 sec) 
Heartbeat CPU  0 instructions:   19000003 cycles:   15041058 heartbeat IPC: 0.95201 cumulative IPC: 0.96264 (Simulation time: 0 hr 0 min 38 sec) 
Heartbeat CPU  0 instructions:   20000000 cycles:   16079635 heartbeat IPC: 0.96285 cumulative IPC: 0.96266 (Simulation time: 0 hr 0 min 40 sec) 
Heartbeat CPU  0 instructions:   21000002 cycles:   17119630 heartbeat IPC: 0.96154 cumulative IPC: 0.96256 (Simulation time: 0 hr 0 min 42 sec) 
Heartbeat CPU  0 instructions:   22000002 cycles:   18156289 heartbeat IPC: 0.96464 cumulative IPC: 0.96273 (Simulation time: 0 hr 0 min 45 sec) 
Heartbeat CPU  0 instructions:   23000002 cycles:   19197004 heartbeat IPC: 0.96088 cumulative IPC: 0.96259 (Simulation time: 0 hr 0 min 47 sec) 
Heartbeat CPU  0 instructions:   24000000 cycles:   20223290 heartbeat IPC: 0.97439 cumulative IPC: 0.96342 (Simulation time: 0 hr 0 min 49 sec) 
Heartbeat CPU  0 instructions:   25000000 cycles:   21254072 heartbeat IPC: 0.97014 cumulative IPC: 0.96387 (Simulation time: 0 hr 0 min 51 sec) 
Heartbeat CPU  0 instructions:   26000000 cycles:   22282986 heartbeat IPC: 0.97190 cumulative IPC: 0.96437 (Simulation time: 0 hr 0 min 53 sec) 
Heartbeat CPU  0 instructions:   27000000 cycles:   23310770 heartbeat IPC: 0.97297 cumulative IPC: 0.96487 (Simulation time: 0 hr 0 min 55 sec) 
Heartbeat CPU  0 instructions:   28000000 cycles:   24348991 heartbeat IPC: 0.96319 cumulative IPC: 0.96478 (Simulation time: 0 hr 0 min 58 sec) 
Heartbeat CPU  0 instructions:   29000003 cycles:   25382557 heartbeat IPC: 0.96753 cumulative IPC: 0.96492 (Simulation time: 0 hr 1 min 0 sec) 
Heartbeat CPU  0 instructions:   30000001 cycles:   26424038 heartbeat IPC: 0.96017 cumulative IPC: 0.96468 (Simulation time: 0 hr 1 min 2 sec) 
Heartbeat CPU  0 instructions:   31000000 cycles:   27460435 heartbeat IPC: 0.96488 cumulative IPC: 0.96469 (Simulation time: 0 hr 1 min 4 sec) 
Heartbeat CPU  0 instructions:   32000000 cycles:   28492830 heartbeat IPC: 0.96862 cumulative IPC: 0.96487 (Simulation time: 0 hr 1 min 6 sec) 
Heartbeat CPU  0 instructions:   33000002 cycles:   29530527 heartbeat IPC: 0.96367 cumulative IPC: 0.96482 (Simulation time: 0 hr 1 min 8 sec) 
Heartbeat CPU  0 instructions:   34000000 cycles:   30556401 heartbeat IPC: 0.97478 cumulative IPC: 0.96523 (Simulation time: 0 hr 1 min 11 sec) 
Heartbeat CPU  0 instructions:   35000003 cycles:   31586373 heartbeat IPC: 0.97090 cumulative IPC: 0.96545 (Simulation time: 0 hr 1 min 13 sec) 
Heartbeat CPU  0 instructions:   36000000 cycles:   32623767 heartbeat IPC: 0.96395 cumulative IPC: 0.96540 (Simulation time: 0 hr 1 min 15 sec) 
Heartbeat CPU  0 instructions:   37000003 cycles:   33664347 heartbeat IPC: 0.96101 cumulative IPC: 0.96523 (Simulation time: 0 hr 1 min 17 sec) 
Heartbeat CPU  0 instructions:   38000002 cycles:   34699253 heartbeat IPC: 0.96627 cumulative IPC: 0.96527 (Simulation time: 0 hr 1 min 19 sec) 
Heartbeat CPU  0 instructions:   39000003 cycles:   35744961 heartbeat IPC: 0.95629 cumulative IPC: 0.96496 (Simulation time: 0 hr 1 min 21 sec) 
Heartbeat CPU  0 instructions:   40000000 cycles:   36778703 heartbeat IPC: 0.96736 cumulative IPC: 0.96504 (Simulation time: 0 hr 1 min 24 sec) 
Heartbeat CPU  0 instructions:   41000001 cycles:   37820960 heartbeat IPC: 0.95946 cumulative IPC: 0.96486 (Simulation time: 0 hr 1 min 26 sec) 
Heartbeat CPU  0 instructions:   42000003 cycles:   38857051 heartbeat IPC: 0.96517 cumulative IPC: 0.96487 (Simulation time: 0 hr 1 min 28 sec) 
Heartbeat CPU  0 instructions:   43000001 cycles:   39890527 heartbeat IPC: 0.96761 cumulative IPC: 0.96495 (Simulation time: 0 hr 1 min 30 sec) 
Heartbeat CPU  0 instructions:   44000000 cycles:   40925048 heartbeat IPC: 0.96663 cumulative IPC: 0.96500 (Simulation time: 0 hr 1 min 32 sec) 
Heartbeat CPU  0 instructions:   45000002 cycles:   41949282 heartbeat IPC: 0.97634 cumulative IPC: 0.96532 (Simulation time: 0 hr 1 min 34 sec) 
Heartbeat CPU  0 instructions:   46000001 cycles:   42976277 heartbeat IPC: 0.97371 cumulative IPC: 0.96555 (Simulation time: 0 hr 1 min 36 sec) 
Heartbeat CPU  0 instructions:   47000003 cycles:   44005669 heartbeat IPC: 0.97145 cumulative IPC: 0.96571 (Simulation time: 0 hr 1 min 39 sec) 
Heartbeat CPU  0 instructions:   48000000 cycles:   45033179 heartbeat IPC: 0.97322 cumulative IPC: 0.96590 (Simulation time: 0 hr 1 min 41 sec) 
Heartbeat CPU  0 instructions:   49000002 cycles:   46064134 heartbeat IPC: 0.96998 cumulative IPC: 0.96601 (Simulation time: 0 hr 1 min 43 sec) 
Heartbeat CPU  0 instructions:   50000003 cycles:   47099242 heartbeat IPC: 0.96608 cumulative IPC: 0.96601 (Simulation time: 0 hr 1 min 45 sec) 
Heartbeat CPU  0 instructions:   51000003 cycles:   48138878 heartbeat IPC: 0.96188 cumulative IPC: 0.96591 (Simulation time: 0 hr 1 min 47 sec) 
Heartbeat CPU  0 instructions:   52000000 cycles:   49448116 heartbeat IPC: 0.76380 cumulative IPC: 0.95986 (Simulation time: 0 hr 1 min 49 sec) 
Heartbeat CPU  0 instructions:   53000003 cycles:   50692881 heartbeat IPC: 0.80337 cumulative IPC: 0.95553 (Simulation time: 0 hr 1 min 52 sec) 
Heartbeat CPU  0 instructions:   54000001 cycles:   51849819 heartbeat IPC: 0.86435 cumulative IPC: 0.95325 (Simulation time: 0 hr 1 min 54 sec) 
Heartbeat CPU  0 instructions:   55000002 cycles:   52983001 heartbeat IPC: 0.88247 cumulative IPC: 0.95155 (Simulation time: 0 hr 1 min 56 sec) 
Heartbeat CPU  0 instructions:   56000000 cycles:   54103354 heartbeat IPC: 0.89257 cumulative IPC: 0.95019 (Simulation time: 0 hr 1 min 58 sec) 
Heartbeat CPU  0 instructions:   57000001 cycles:   55227177 heartbeat IPC: 0.88982 cumulative IPC: 0.94882 (Simulation time: 0 hr 2 min 0 sec) 
Heartbeat CPU  0 instructions:   58000000 cycles:   56380785 heartbeat IPC: 0.86684 cumulative IPC: 0.94695 (Simulation time: 0 hr 2 min 2 sec) 
Heartbeat CPU  0 instructions:   59000000 cycles:   57494317 heartbeat IPC: 0.89804 cumulative IPC: 0.94590 (Simulation time: 0 hr 2 min 4 sec) 
Heartbeat CPU  0 instructions:   60000000 cycles:   58598611 heartbeat IPC: 0.90556 cumulative IPC: 0.94506 (Simulation time: 0 hr 2 min 6 sec) 
Finished CPU 0 instructions: 50000003 cycles: 52906848 cumulative IPC: 0.94506 (Simulation time: 0 hr 2 min 6 sec) 

ChampSim completed all CPUs

[ROI Statistics]
Core_0_instructions 50000003
Core_0_cycles 52906848
Core_0_IPC 0.94506

Core_0_branch_prediction_accuracy 99.59821
Core_0_branch_MPKI 0.02508
Core_0_average_ROB_occupancy_at_mispredict 71.24402

Core_0_L1D_total_access 18718890
Core_0_L1D_total_hit 14448686
Core_0_L1D_total_miss 4270204
Core_0_L1D_loads 14471201
Core_0_L1D_load_hit 10540918
Core_0_L1D_load_miss 3930283
Core_0_L1D_RFOs 4247689
Core_0_L1D_RFO_hit 3907768
Core_0_L1D_RFO_miss 339921
Core_0_L1D_prefetches 0
Core_0_L1D_prefetch_hit 0
Core_0_L1D_prefetch_miss 0
Core_0_L1D_writebacks 0
Core_0_L1D_writeback_hit 0
Core_0_L1D_writeback_miss 0
Core_0_L1D_prefetch_requested 0
Core_0_L1D_prefetch_dropped 0
Core_0_L1D_prefetch_issued 0
Core_0_L1D_prefetch_filled 0
Core_0_L1D_prefetch_useful 0
Core_0_L1D_prefetch_useless 0
Core_0_L1D_prefetch_late 0
Core_0_L1D_average_miss_latency 32.59040

Core_0_L1D_rq_access 18453087
Core_0_L1D_rq_forward 0
Core_0_L1D_rq_merged 3790091
Core_0_L1D_rq_to_cache 14662788
Core_0_L1D_rq_full 0

Core_0_L1D_wq_access 4319810
Core_0_L1D_wq_forward 208
Core_0_L1D_wq_merged 22546
Core_0_L1D_wq_to_cache 4297264
Core_0_L1D_wq_full 0

Core_0_L1D_pq_access 0
Core_0_L1D_pq_forward 0
Core_0_L1D_pq_merged 0
Core_0_L1D_pq_to_cache 0
Core_0_L1D_pq_full 0

Core_0_L1D_acc_epochs 56930
Core_0_L1D_acc_level_0 56930
Core_0_L1D_acc_level_1 0
Core_0_L1D_acc_level_2 0
Core_0_L1D_acc_level_3 0
Core_0_L1D_acc_level_4 0
Core_0_L1D_acc_level_5 0
Core_0_L1D_acc_level_6 0
Core_0_L1D_acc_level_7 0
Core_0_L1D_acc_level_8 0
Core_0_L1D_acc_level_9 0

Core_0_L1I_total_access 11684725
Core_0_L1I_total_hit 10594962
Core_0_L1I_total_miss 1089763
Core_0_L1I_loads 11684725
Core_0_L1I_load_hit 10594962
Core_0_L1I_load_miss 1089763
Core_0_L1I_RFOs 0
Core_0_L1I_RFO_hit 0
Core_0_L1I_RFO_miss 0
Core_0_L1I_prefetches 0
Core_0_L1I_prefetch_hit 0
Core_0_L1I_prefetch_miss 0
Core_0_L1I_writebacks 0
Core_0_L1I_writeback_hit 0
Core_0_L1I_writeback_miss 0
Core_0_L1I_prefetch_requested 0
Core_0_L1I_prefetch_dropped 0
Core_0_L1I_prefetch_issued 0
Core_0_L1I_prefetch_filled 0
Core_0_L1I_prefetch_useful 0
Core_0_L1I_prefetch_useless 0
Core_0_L1I_prefetch_late 0
Core_0_L1I_average_miss_latency 11.70905

Core_0_L1I_rq_access 50000007
Core_0_L1I_rq_forward 0
Core_0_L1I_rq_merged 37074684
Core_0_L1I_rq_to_cache 12925323
Core_0_L1I_rq_full 0

Core_0_L1I_wq_access 0
Core_0_L1I_wq_forward 0
Core_0_L1I_wq_merged 0
Core_0_L1I_wq_to_cache 0
Core_0_L1I_wq_full 0

Core_0_L1I_pq_access 0
Core_0_L1I_pq_forward 0
Core_0_L1I_pq_merged 0
Core_0_L1I_pq_to_cache 0
Core_0_L1I_pq_full 0

Core_0_L1I_acc_epochs 56930
Core_0_L1I_acc_level_0 56930
Core_0_L1I_acc_level_1 0
Core_0_L1I_acc_level_2 0
Core_0_L1I_acc_level_3 0
Core_0_L1I_acc_level_4 0
Core_0_L1I_acc_level_5 0
Core_0_L1I_acc_level_6 0
Core_0_L1I_acc_level_7 0
Core_0_L1I_acc_level_8 0
Core_0_L1I_acc_level_9 0

Core_0_L2C_total_access 5730465
Core_0_L2C_total_hit 5105407
Core_0_L2C_total_miss 625058
Core_0_L2C_loads 5011895
Core_0_L2C_load_hit 4448501
Core_0_L2C_load_miss 563394
Core_0_L2C_RFOs 339684
Core_0_L2C_RFO_hit 278098
Core_0_L2C_RFO_miss 61586
Core_0_L2C_prefetches 0
Core_0_L2C_prefetch_hit 0
Core_0_L2C_prefetch_miss 0
Core_0_L2C_writebacks 378886
Core_0_L2C_writeback_hit 378808
Core_0_L2C_writeback_miss 78
Core_0_L2C_prefetch_requested 0
Core_0_L2C_prefetch_dropped 0
Core_0_L2C_prefetch_issued 0
Core_0_L2C_prefetch_filled 0
Core_0_L2C_prefetch_useful 0
Core_0_L2C_prefetch_useless 0
Core_0_L2C_prefetch_late 0
Core_0_L2C_average_miss_latency 120.64607

Core_0_L2C_rq_access 5359967
Core_0_L2C_rq_forward 0
Core_0_L2C_rq_merged 0
Core_0_L2C_rq_to_cache 5351580
Core_0_L2C_rq_full 0

Core_0_L2C_wq_access 378886
Core_0_L2C_wq_forward 8387
Core_0_L2C_wq_merged 0
Core_0_L2C_wq_to_cache 378886
Core_0_L2C_wq_full 0

Core_0_L2C_pq_access 0
Core_0_L2C_pq_forward 0
Core_0_L2C_pq_merged 0
Core_0_L2C_pq_to_cache 0
Core_0_L2C_pq_full 0

Core_0_L2C_acc_epochs 56930
Core_0_L2C_acc_level_0 56930
Core_0_L2C_acc_level_1 0
Core_0_L2C_acc_level_2 0
Core_0_L2C_acc_level_3 0
Core_0_L2C_acc_level_4 0
Core_0_L2C_acc_level_5 0
Core_0_L2C_acc_level_6 0
Core_0_L2C_acc_level_7 0
Core_0_L2C_acc_level_8 0
Core_0_L2C_acc_level_9 0

Core_0_LLC_total_access 687503
Core_0_LLC_total_hit 508545
Core_0_LLC_total_miss 178958
Core_0_LLC_loads 563385
Core_0_LLC_load_hit 411417
Core_0_LLC_load_miss 151968
Core_0_LLC_RFOs 58736
Core_0_LLC_RFO_hit 34062
Core_0_LLC_RFO_miss 24674
Core_0_LLC_prefetches 0
Core_0_LLC_prefetch_hit 0
Core_0_LLC_prefetch_miss 0
Core_0_LLC_writebacks 65382
Core_0_LLC_writeback_hit 63066
Core_0_LLC_writeback_miss 2316
Core_0_LLC_prefetch_requested 0
Core_0_LLC_prefetch_dropped 0
Core_0_LLC_prefetch_issued 0
Core_0_LLC_prefetch_filled 0
Core_0_LLC_prefetch_useful 0
Core_0_LLC_prefetch_useless 0
Core_0_LLC_prefetch_late 0
Core_0_LLC_average_miss_latency 315.44030

Core_0_LLC_rq_access 624980
Core_0_LLC_rq_forward 0
Core_0_LLC_rq_merged 0
Core_0_LLC_rq_to_cache 622121
Core_0_LLC_rq_full 0

Core_0_LLC_wq_access 65382
Core_0_LLC_wq_forward 2859
Core_0_LLC_wq_merged 0
Core_0_LLC_wq_to_cache 65382
Core_0_LLC_wq_full 0

Core_0_LLC_pq_access 0
Core_0_LLC_pq_forward 0
Core_0_LLC_pq_merged 0
Core_0_LLC_pq_to_cache 0
Core_0_LLC_pq_full 0

Core_0_LLC_acc_epochs 57226
Core_0_LLC_acc_level_0 57226
Core_0_LLC_acc_level_1 0
Core_0_LLC_acc_level_2 0
Core_0_LLC_acc_level_3 0
Core_0_LLC_acc_level_4 0
Core_0_LLC_acc_level_5 0
Core_0_LLC_acc_level_6 0
Core_0_LLC_acc_level_7 0
Core_0_LLC_acc_level_8 0
Core_0_LLC_acc_level_9 0

Core_0_major_page_fault 0
Core_0_minor_page_fault 3701

Channel_0_RQ_row_buffer_hit 89274
Channel_0_RQ_row_buffer_miss 87368
Channel_0_WQ_row_buffer_hit 13272
Channel_0_WQ_row_buffer_miss 17856
Channel_0_WQ_full 0
Channel_0_dbus_congested 39316

avg_congested_cycle 8

DRAM_bw_pochs 228901
DRAM_bw_level_0 202825
DRAM_bw_level_1 16236
DRAM_bw_level_2 7089
DRAM_bw_level_3 2751
