*************************************************
   ChampSim Multicore Out-of-Order Simulator
   Last compiled: Apr  3 2025 20:54:34
*************************************************
parsing config file: /home/zir/Pythia/config/nopref.ini

trace_0 /home/zir/ChampSim/ML-DPC/ChampSimTraces/spec06/462.libquantum-s1.trace.gz
adding L2C_PREFETCHER: NONE
Initialize SHIP state
warmup_instructions 10000000
simulation_instructions 50000000
champsim_seed 164
measure_ipc 0
measure_ipc_epoch 1000
measure_dram_bw 1
measure_dram_bw_epoch 256
measure_cache_acc 1
measure_cache_acc_epoch 1024
l1d_perfect 0
l2c_perfect 0
llc_perfect 0
l1d_semi_perfect 0
l2c_semi_perfect 0
llc_semi_perfect 0
semi_perfect_cache_page_buffer_size 64

num_cpus 1
cpu_freq 4000
dram_io_freq 2400
page_size 4096
block_size 64
max_read_per_cycle 8
max_fill_per_cycle 1
dram_channels 1
log2_dram_channels 0
dram_ranks 1
dram_banks 8
dram_rows 65536
dram_columns 128
dram_row_size 8
dram_size 4096
dram_pages 1048576

fetch_width 6
decode_width 6
exec_width 4
lq_width 2
sq_width 2
retire_width 4
scheduler_size 128
branch_mispredict_penalty 20
rob_size 256
lq_size 72
sq_size 56
num_instr_destinations_sparc 4
num_instr_destinations 2
num_instr_sources 4

itlb_set 16
itlb_way 8
itlb_rq_size 16
itlb_wq_size 16
itlb_pq_size 0
itlb_mshr_size 8
itlb_latency 1

dtlb_set 16
dtlb_way 4
dtlb_rq_size 16
dtlb_wq_size 16
dtlb_pq_size 0
dtlb_mshr_size 8
dtlb_latency 1

stlb_set 128
stlb_way 12
stlb_rq_size 32
stlb_wq_size 32
stlb_pq_size 0
stlb_mshr_size 16
stlb_latency 8

l1i_size 32
l1i_set 64
l1i_way 8
l1i_rq_size 64
l1i_wq_size 64
l1i_pq_size 8
l1i_mshr_size 8
l1i_latency 1

l1d_size 32
l1d_set 64
l1d_way 8
l1d_rq_size 64
l1d_wq_size 64
l1d_pq_size 8
l1d_mshr_size 16
l1d_latency 4

l2c_size 256
l2c_set 512
l2c_way 8
l2c_rq_size 32
l2c_wq_size 32
l2c_pq_size 32
l2c_mshr_size 32
l2c_latency 10

llc_size 2048
llc_set 2048
llc_way 16
llc_rq_size 32
llc_wq_size 32
llc_pq_size 32
llc_mshr_size 64
llc_latency 20

dram_channel_width 8
dram_wq_size 64
dram_rq_size 64
tRP 15
tRCD 15
tCAS 12.5
dram_dbus_turn_around_time 30
dram_write_high_wm 56
dram_write_low_wm 48
min_dram_writes_per_switch 16
dram_mtps 2400
dram_dbus_return_time 13


Heartbeat CPU  0 instructions:    1000000 cycles:     282159 heartbeat IPC: 3.54410 cumulative IPC: 3.54410 (Simulation time: 0 hr 0 min 1 sec) 
Heartbeat CPU  0 instructions:    2000003 cycles:     564276 heartbeat IPC: 3.54464 cumulative IPC: 3.54437 (Simulation time: 0 hr 0 min 2 sec) 
Heartbeat CPU  0 instructions:    3000002 cycles:    1210418 heartbeat IPC: 1.54765 cumulative IPC: 2.47848 (Simulation time: 0 hr 0 min 3 sec) 
Heartbeat CPU  0 instructions:    4000000 cycles:    2531930 heartbeat IPC: 0.75671 cumulative IPC: 1.57982 (Simulation time: 0 hr 0 min 4 sec) 
Heartbeat CPU  0 instructions:    5000003 cycles:    3853447 heartbeat IPC: 0.75671 cumulative IPC: 1.29754 (Simulation time: 0 hr 0 min 5 sec) 
Heartbeat CPU  0 instructions:    6000003 cycles:    5174997 heartbeat IPC: 0.75669 cumulative IPC: 1.15942 (Simulation time: 0 hr 0 min 6 sec) 
Heartbeat CPU  0 instructions:    7000000 cycles:    6496494 heartbeat IPC: 0.75672 cumulative IPC: 1.07750 (Simulation time: 0 hr 0 min 7 sec) 
Heartbeat CPU  0 instructions:    8000000 cycles:    7679049 heartbeat IPC: 0.84563 cumulative IPC: 1.04180 (Simulation time: 0 hr 0 min 8 sec) 
Heartbeat CPU  0 instructions:    9000002 cycles:    7959004 heartbeat IPC: 3.57201 cumulative IPC: 1.13080 (Simulation time: 0 hr 0 min 9 sec) 
Heartbeat CPU  0 instructions:   10000001 cycles:    8238950 heartbeat IPC: 3.57211 cumulative IPC: 1.21375 (Simulation time: 0 hr 0 min 10 sec) 

Warmup complete CPU  0 instructions:   10000001 cycles:    8238950 (Simulation time: 0 hr 0 min 10 sec) 

Heartbeat CPU  0 instructions:   11000001 cycles:    9589376 heartbeat IPC: 0.74051 cumulative IPC: 0.74051 (Simulation time: 0 hr 0 min 12 sec) 
Heartbeat CPU  0 instructions:   12000000 cycles:   10939362 heartbeat IPC: 0.74075 cumulative IPC: 0.74063 (Simulation time: 0 hr 0 min 13 sec) 
Heartbeat CPU  0 instructions:   13000000 cycles:   13757155 heartbeat IPC: 0.35489 cumulative IPC: 0.54365 (Simulation time: 0 hr 0 min 15 sec) 
Heartbeat CPU  0 instructions:   14000000 cycles:   19595041 heartbeat IPC: 0.17129 cumulative IPC: 0.35223 (Simulation time: 0 hr 0 min 17 sec) 
Heartbeat CPU  0 instructions:   15000000 cycles:   25407924 heartbeat IPC: 0.17203 cumulative IPC: 0.29122 (Simulation time: 0 hr 0 min 19 sec) 
Heartbeat CPU  0 instructions:   16000000 cycles:   31272258 heartbeat IPC: 0.17052 cumulative IPC: 0.26049 (Simulation time: 0 hr 0 min 21 sec) 
Heartbeat CPU  0 instructions:   17000002 cycles:   37091967 heartbeat IPC: 0.17183 cumulative IPC: 0.24261 (Simulation time: 0 hr 0 min 23 sec) 
Heartbeat CPU  0 instructions:   18000001 cycles:   41743341 heartbeat IPC: 0.21499 cumulative IPC: 0.23877 (Simulation time: 0 hr 0 min 25 sec) 
Heartbeat CPU  0 instructions:   19000000 cycles:   44063722 heartbeat IPC: 0.43096 cumulative IPC: 0.25122 (Simulation time: 0 hr 0 min 27 sec) 
Heartbeat CPU  0 instructions:   20000000 cycles:   46383923 heartbeat IPC: 0.43100 cumulative IPC: 0.26216 (Simulation time: 0 hr 0 min 29 sec) 
Heartbeat CPU  0 instructions:   21000001 cycles:   48704376 heartbeat IPC: 0.43095 cumulative IPC: 0.27184 (Simulation time: 0 hr 0 min 31 sec) 
Heartbeat CPU  0 instructions:   22000000 cycles:   51024582 heartbeat IPC: 0.43100 cumulative IPC: 0.28047 (Simulation time: 0 hr 0 min 33 sec) 
Heartbeat CPU  0 instructions:   23000001 cycles:   55227123 heartbeat IPC: 0.23795 cumulative IPC: 0.27667 (Simulation time: 0 hr 0 min 35 sec) 
Heartbeat CPU  0 instructions:   24000000 cycles:   61208708 heartbeat IPC: 0.16718 cumulative IPC: 0.26430 (Simulation time: 0 hr 0 min 37 sec) 
Heartbeat CPU  0 instructions:   25000000 cycles:   67095548 heartbeat IPC: 0.16987 cumulative IPC: 0.25486 (Simulation time: 0 hr 0 min 39 sec) 
Heartbeat CPU  0 instructions:   26000000 cycles:   72958466 heartbeat IPC: 0.17056 cumulative IPC: 0.24722 (Simulation time: 0 hr 0 min 41 sec) 
Heartbeat CPU  0 instructions:   27000001 cycles:   78924930 heartbeat IPC: 0.16760 cumulative IPC: 0.24050 (Simulation time: 0 hr 0 min 42 sec) 
Heartbeat CPU  0 instructions:   28000000 cycles:   82715955 heartbeat IPC: 0.26378 cumulative IPC: 0.24169 (Simulation time: 0 hr 0 min 44 sec) 
Heartbeat CPU  0 instructions:   29000000 cycles:   84992572 heartbeat IPC: 0.43925 cumulative IPC: 0.24755 (Simulation time: 0 hr 0 min 47 sec) 
Heartbeat CPU  0 instructions:   30000001 cycles:   87268945 heartbeat IPC: 0.43930 cumulative IPC: 0.25307 (Simulation time: 0 hr 0 min 49 sec) 
Heartbeat CPU  0 instructions:   31000000 cycles:   89545492 heartbeat IPC: 0.43926 cumulative IPC: 0.25828 (Simulation time: 0 hr 0 min 51 sec) 
Heartbeat CPU  0 instructions:   32000000 cycles:   91821859 heartbeat IPC: 0.43930 cumulative IPC: 0.26321 (Simulation time: 0 hr 0 min 53 sec) 
Heartbeat CPU  0 instructions:   33000000 cycles:   98272949 heartbeat IPC: 0.15501 cumulative IPC: 0.25546 (Simulation time: 0 hr 0 min 55 sec) 
Heartbeat CPU  0 instructions:   34000000 cycles:  106165299 heartbeat IPC: 0.12670 cumulative IPC: 0.24508 (Simulation time: 0 hr 0 min 57 sec) 
Heartbeat CPU  0 instructions:   35000000 cycles:  113876021 heartbeat IPC: 0.12969 cumulative IPC: 0.23666 (Simulation time: 0 hr 0 min 59 sec) 
Heartbeat CPU  0 instructions:   36000000 cycles:  121646958 heartbeat IPC: 0.12868 cumulative IPC: 0.22926 (Simulation time: 0 hr 1 min 1 sec) 
Heartbeat CPU  0 instructions:   37000002 cycles:  129343237 heartbeat IPC: 0.12993 cumulative IPC: 0.22295 (Simulation time: 0 hr 1 min 3 sec) 
Heartbeat CPU  0 instructions:   38000003 cycles:  133566009 heartbeat IPC: 0.23681 cumulative IPC: 0.22342 (Simulation time: 0 hr 1 min 5 sec) 
Heartbeat CPU  0 instructions:   39000002 cycles:  135842556 heartbeat IPC: 0.43926 cumulative IPC: 0.22727 (Simulation time: 0 hr 1 min 7 sec) 
Heartbeat CPU  0 instructions:   40000000 cycles:  138118922 heartbeat IPC: 0.43930 cumulative IPC: 0.23098 (Simulation time: 0 hr 1 min 9 sec) 
Heartbeat CPU  0 instructions:   41000000 cycles:  140395539 heartbeat IPC: 0.43925 cumulative IPC: 0.23457 (Simulation time: 0 hr 1 min 11 sec) 
Heartbeat CPU  0 instructions:   42000001 cycles:  142671912 heartbeat IPC: 0.43930 cumulative IPC: 0.23804 (Simulation time: 0 hr 1 min 13 sec) 
Heartbeat CPU  0 instructions:   43000001 cycles:  149512591 heartbeat IPC: 0.14618 cumulative IPC: 0.23359 (Simulation time: 0 hr 1 min 15 sec) 
Heartbeat CPU  0 instructions:   44000000 cycles:  157365900 heartbeat IPC: 0.12733 cumulative IPC: 0.22799 (Simulation time: 0 hr 1 min 17 sec) 
Heartbeat CPU  0 instructions:   45000001 cycles:  164998599 heartbeat IPC: 0.13102 cumulative IPC: 0.22327 (Simulation time: 0 hr 1 min 19 sec) 
Heartbeat CPU  0 instructions:   46000002 cycles:  172560789 heartbeat IPC: 0.13224 cumulative IPC: 0.21908 (Simulation time: 0 hr 1 min 21 sec) 
Heartbeat CPU  0 instructions:   47000000 cycles:  180408598 heartbeat IPC: 0.12742 cumulative IPC: 0.21490 (Simulation time: 0 hr 1 min 23 sec) 
Heartbeat CPU  0 instructions:   48000000 cycles:  184205686 heartbeat IPC: 0.26336 cumulative IPC: 0.21595 (Simulation time: 0 hr 1 min 25 sec) 
Heartbeat CPU  0 instructions:   49000002 cycles:  186526569 heartbeat IPC: 0.43087 cumulative IPC: 0.21875 (Simulation time: 0 hr 1 min 27 sec) 
Heartbeat CPU  0 instructions:   50000001 cycles:  188847211 heartbeat IPC: 0.43091 cumulative IPC: 0.22147 (Simulation time: 0 hr 1 min 29 sec) 
Heartbeat CPU  0 instructions:   51000000 cycles:  191168026 heartbeat IPC: 0.43088 cumulative IPC: 0.22413 (Simulation time: 0 hr 1 min 31 sec) 
Heartbeat CPU  0 instructions:   52000000 cycles:  193488771 heartbeat IPC: 0.43090 cumulative IPC: 0.22672 (Simulation time: 0 hr 1 min 33 sec) 
Heartbeat CPU  0 instructions:   53000002 cycles:  195809658 heartbeat IPC: 0.43087 cumulative IPC: 0.22925 (Simulation time: 0 hr 1 min 35 sec) 
Heartbeat CPU  0 instructions:   54000001 cycles:  198130298 heartbeat IPC: 0.43092 cumulative IPC: 0.23171 (Simulation time: 0 hr 1 min 38 sec) 
Heartbeat CPU  0 instructions:   55000000 cycles:  200451113 heartbeat IPC: 0.43088 cumulative IPC: 0.23412 (Simulation time: 0 hr 1 min 40 sec) 
Heartbeat CPU  0 instructions:   56000000 cycles:  202771748 heartbeat IPC: 0.43092 cumulative IPC: 0.23646 (Simulation time: 0 hr 1 min 42 sec) 
Heartbeat CPU  0 instructions:   57000000 cycles:  205092634 heartbeat IPC: 0.43087 cumulative IPC: 0.23876 (Simulation time: 0 hr 1 min 46 sec) 
Heartbeat CPU  0 instructions:   58000002 cycles:  207413275 heartbeat IPC: 0.43092 cumulative IPC: 0.24099 (Simulation time: 0 hr 1 min 48 sec) 
Heartbeat CPU  0 instructions:   59000001 cycles:  209734090 heartbeat IPC: 0.43088 cumulative IPC: 0.24318 (Simulation time: 0 hr 1 min 50 sec) 
Heartbeat CPU  0 instructions:   60000000 cycles:  212054724 heartbeat IPC: 0.43092 cumulative IPC: 0.24532 (Simulation time: 0 hr 1 min 52 sec) 
Finished CPU 0 instructions: 50000001 cycles: 203815782 cumulative IPC: 0.24532 (Simulation time: 0 hr 1 min 52 sec) 

ChampSim completed all CPUs

[ROI Statistics]
Core_0_instructions 50000001
Core_0_cycles 203815782
Core_0_IPC 0.24532

Core_0_branch_prediction_accuracy 93.65159
Core_0_branch_MPKI 13.64262
Core_0_average_ROB_occupancy_at_mispredict 29.87312

Core_0_L1D_total_access 3034921
Core_0_L1D_total_hit 1691790
Core_0_L1D_total_miss 1343131
Core_0_L1D_loads 2211011
Core_0_L1D_load_hit 867888
Core_0_L1D_load_miss 1343123
Core_0_L1D_RFOs 823910
Core_0_L1D_RFO_hit 823902
Core_0_L1D_RFO_miss 8
Core_0_L1D_prefetches 0
Core_0_L1D_prefetch_hit 0
Core_0_L1D_prefetch_miss 0
Core_0_L1D_writebacks 0
Core_0_L1D_writeback_hit 0
Core_0_L1D_writeback_miss 0
Core_0_L1D_prefetch_requested 0
Core_0_L1D_prefetch_dropped 0
Core_0_L1D_prefetch_issued 0
Core_0_L1D_prefetch_filled 0
Core_0_L1D_prefetch_useful 0
Core_0_L1D_prefetch_useless 0
Core_0_L1D_prefetch_late 0
Core_0_L1D_average_miss_latency 220.15513

Core_0_L1D_rq_access 5372486
Core_0_L1D_rq_forward 0
Core_0_L1D_rq_merged 1755810
Core_0_L1D_rq_to_cache 3616676
Core_0_L1D_rq_full 0

Core_0_L1D_wq_access 823930
Core_0_L1D_wq_forward 0
Core_0_L1D_wq_merged 0
Core_0_L1D_wq_to_cache 823930
Core_0_L1D_wq_full 0

Core_0_L1D_pq_access 0
Core_0_L1D_pq_forward 0
Core_0_L1D_pq_merged 0
Core_0_L1D_pq_to_cache 0
Core_0_L1D_pq_full 0

Core_0_L1D_acc_epochs 205056
Core_0_L1D_acc_level_0 205056
Core_0_L1D_acc_level_1 0
Core_0_L1D_acc_level_2 0
Core_0_L1D_acc_level_3 0
Core_0_L1D_acc_level_4 0
Core_0_L1D_acc_level_5 0
Core_0_L1D_acc_level_6 0
Core_0_L1D_acc_level_7 0
Core_0_L1D_acc_level_8 0
Core_0_L1D_acc_level_9 0

Core_0_L1I_total_access 10532326
Core_0_L1I_total_hit 10532326
Core_0_L1I_total_miss 0
Core_0_L1I_loads 10532326
Core_0_L1I_load_hit 10532326
Core_0_L1I_load_miss 0
Core_0_L1I_RFOs 0
Core_0_L1I_RFO_hit 0
Core_0_L1I_RFO_miss 0
Core_0_L1I_prefetches 0
Core_0_L1I_prefetch_hit 0
Core_0_L1I_prefetch_miss 0
Core_0_L1I_writebacks 0
Core_0_L1I_writeback_hit 0
Core_0_L1I_writeback_miss 0
Core_0_L1I_prefetch_requested 0
Core_0_L1I_prefetch_dropped 0
Core_0_L1I_prefetch_issued 0
Core_0_L1I_prefetch_filled 0
Core_0_L1I_prefetch_useful 0
Core_0_L1I_prefetch_useless 0
Core_0_L1I_prefetch_late 0
Core_0_L1I_average_miss_latency -nan

Core_0_L1I_rq_access 50000010
Core_0_L1I_rq_forward 0
Core_0_L1I_rq_merged 39467684
Core_0_L1I_rq_to_cache 10532326
Core_0_L1I_rq_full 0

Core_0_L1I_wq_access 0
Core_0_L1I_wq_forward 0
Core_0_L1I_wq_merged 0
Core_0_L1I_wq_to_cache 0
Core_0_L1I_wq_full 0

Core_0_L1I_pq_access 0
Core_0_L1I_pq_forward 0
Core_0_L1I_pq_merged 0
Core_0_L1I_pq_to_cache 0
Core_0_L1I_pq_full 0

Core_0_L1I_acc_epochs 205056
Core_0_L1I_acc_level_0 205056
Core_0_L1I_acc_level_1 0
Core_0_L1I_acc_level_2 0
Core_0_L1I_acc_level_3 0
Core_0_L1I_acc_level_4 0
Core_0_L1I_acc_level_5 0
Core_0_L1I_acc_level_6 0
Core_0_L1I_acc_level_7 0
Core_0_L1I_acc_level_8 0
Core_0_L1I_acc_level_9 0

Core_0_L2C_total_access 1785043
Core_0_L2C_total_hit 441912
Core_0_L2C_total_miss 1343131
Core_0_L2C_loads 1343123
Core_0_L2C_load_hit 0
Core_0_L2C_load_miss 1343123
Core_0_L2C_RFOs 8
Core_0_L2C_RFO_hit 0
Core_0_L2C_RFO_miss 8
Core_0_L2C_prefetches 0
Core_0_L2C_prefetch_hit 0
Core_0_L2C_prefetch_miss 0
Core_0_L2C_writebacks 441912
Core_0_L2C_writeback_hit 441912
Core_0_L2C_writeback_miss 0
Core_0_L2C_prefetch_requested 0
Core_0_L2C_prefetch_dropped 0
Core_0_L2C_prefetch_issued 0
Core_0_L2C_prefetch_filled 0
Core_0_L2C_prefetch_useful 0
Core_0_L2C_prefetch_useless 0
Core_0_L2C_prefetch_late 0
Core_0_L2C_average_miss_latency 206.15493

Core_0_L2C_rq_access 1343131
Core_0_L2C_rq_forward 0
Core_0_L2C_rq_merged 0
Core_0_L2C_rq_to_cache 1343131
Core_0_L2C_rq_full 0

Core_0_L2C_wq_access 441912
Core_0_L2C_wq_forward 0
Core_0_L2C_wq_merged 0
Core_0_L2C_wq_to_cache 441912
Core_0_L2C_wq_full 0

Core_0_L2C_pq_access 0
Core_0_L2C_pq_forward 0
Core_0_L2C_pq_merged 0
Core_0_L2C_pq_to_cache 0
Core_0_L2C_pq_full 0

Core_0_L2C_acc_epochs 205056
Core_0_L2C_acc_level_0 205056
Core_0_L2C_acc_level_1 0
Core_0_L2C_acc_level_2 0
Core_0_L2C_acc_level_3 0
Core_0_L2C_acc_level_4 0
Core_0_L2C_acc_level_5 0
Core_0_L2C_acc_level_6 0
Core_0_L2C_acc_level_7 0
Core_0_L2C_acc_level_8 0
Core_0_L2C_acc_level_9 0

Core_0_LLC_total_access 1785043
Core_0_LLC_total_hit 125
Core_0_LLC_total_miss 1784918
Core_0_LLC_loads 1343123
Core_0_LLC_load_hit 0
Core_0_LLC_load_miss 1343123
Core_0_LLC_RFOs 8
Core_0_LLC_RFO_hit 0
Core_0_LLC_RFO_miss 8
Core_0_LLC_prefetches 0
Core_0_LLC_prefetch_hit 0
Core_0_LLC_prefetch_miss 0
Core_0_LLC_writebacks 441912
Core_0_LLC_writeback_hit 125
Core_0_LLC_writeback_miss 441787
Core_0_LLC_prefetch_requested 0
Core_0_LLC_prefetch_dropped 0
Core_0_LLC_prefetch_issued 0
Core_0_LLC_prefetch_filled 0
Core_0_LLC_prefetch_useful 0
Core_0_LLC_prefetch_useless 0
Core_0_LLC_prefetch_late 0
Core_0_LLC_average_miss_latency 132.54034

Core_0_LLC_rq_access 1343131
Core_0_LLC_rq_forward 0
Core_0_LLC_rq_merged 0
Core_0_LLC_rq_to_cache 1343131
Core_0_LLC_rq_full 0

Core_0_LLC_wq_access 441912
Core_0_LLC_wq_forward 0
Core_0_LLC_wq_merged 0
Core_0_LLC_wq_to_cache 441912
Core_0_LLC_wq_full 0

Core_0_LLC_pq_access 0
Core_0_LLC_pq_forward 0
Core_0_LLC_pq_merged 0
Core_0_LLC_pq_to_cache 0
Core_0_LLC_pq_full 0

Core_0_LLC_acc_epochs 207085
Core_0_LLC_acc_level_0 207085
Core_0_LLC_acc_level_1 0
Core_0_LLC_acc_level_2 0
Core_0_LLC_acc_level_3 0
Core_0_LLC_acc_level_4 0
Core_0_LLC_acc_level_5 0
Core_0_LLC_acc_level_6 0
Core_0_LLC_acc_level_7 0
Core_0_LLC_acc_level_8 0
Core_0_LLC_acc_level_9 0

Core_0_major_page_fault 0
Core_0_minor_page_fault 8201

Channel_0_RQ_row_buffer_hit 191670
Channel_0_RQ_row_buffer_miss 1151461
Channel_0_WQ_row_buffer_hit 291600
Channel_0_WQ_row_buffer_miss 150255
Channel_0_WQ_full 0
Channel_0_dbus_congested 453606

avg_congested_cycle 8

DRAM_bw_pochs 828339
DRAM_bw_level_0 606745
DRAM_bw_level_1 212944
DRAM_bw_level_2 8650
DRAM_bw_level_3 0
