*************************************************
   ChampSim Multicore Out-of-Order Simulator
   Last compiled: Apr  3 2025 20:54:34
*************************************************
parsing config file: /home/zir/Pythia/config/spp_dev2.ini

trace_0 /home/zir/ChampSim/ML-DPC/ChampSimTraces/spec17/649.fotonik3d-s3.trace.xz
adding L2C_PREFETCHER: SPP_dev2
Initialize SIGNATURE TABLE
ST_SET: 1
ST_WAY: 256
ST_TAG_BIT: 16
ST_TAG_MASK: ffff

Initialize PATTERN TABLE
PT_SET: 512
PT_WAY: 4
SIG_DELTA_BIT: 7
C_SIG_BIT: 4
C_DELTA_BIT: 4

Initialize PREFETCH FILTER
FILTER_SET: 1024
fill_threshold: 90
pf_threshold: 40

Initialize SHIP state
warmup_instructions 10000000
simulation_instructions 50000000
champsim_seed 166
measure_ipc 0
measure_ipc_epoch 1000
measure_dram_bw 1
measure_dram_bw_epoch 256
measure_cache_acc 1
measure_cache_acc_epoch 1024
l1d_perfect 0
l2c_perfect 0
llc_perfect 0
l1d_semi_perfect 0
l2c_semi_perfect 0
llc_semi_perfect 0
semi_perfect_cache_page_buffer_size 64

num_cpus 1
cpu_freq 4000
dram_io_freq 2400
page_size 4096
block_size 64
max_read_per_cycle 8
max_fill_per_cycle 1
dram_channels 1
log2_dram_channels 0
dram_ranks 1
dram_banks 8
dram_rows 65536
dram_columns 128
dram_row_size 8
dram_size 4096
dram_pages 1048576

fetch_width 6
decode_width 6
exec_width 4
lq_width 2
sq_width 2
retire_width 4
scheduler_size 128
branch_mispredict_penalty 20
rob_size 256
lq_size 72
sq_size 56
num_instr_destinations_sparc 4
num_instr_destinations 2
num_instr_sources 4

itlb_set 16
itlb_way 8
itlb_rq_size 16
itlb_wq_size 16
itlb_pq_size 0
itlb_mshr_size 8
itlb_latency 1

dtlb_set 16
dtlb_way 4
dtlb_rq_size 16
dtlb_wq_size 16
dtlb_pq_size 0
dtlb_mshr_size 8
dtlb_latency 1

stlb_set 128
stlb_way 12
stlb_rq_size 32
stlb_wq_size 32
stlb_pq_size 0
stlb_mshr_size 16
stlb_latency 8

l1i_size 32
l1i_set 64
l1i_way 8
l1i_rq_size 64
l1i_wq_size 64
l1i_pq_size 8
l1i_mshr_size 8
l1i_latency 1

l1d_size 32
l1d_set 64
l1d_way 8
l1d_rq_size 64
l1d_wq_size 64
l1d_pq_size 8
l1d_mshr_size 16
l1d_latency 4

l2c_size 256
l2c_set 512
l2c_way 8
l2c_rq_size 32
l2c_wq_size 32
l2c_pq_size 32
l2c_mshr_size 32
l2c_latency 10

llc_size 2048
llc_set 2048
llc_way 16
llc_rq_size 32
llc_wq_size 32
llc_pq_size 32
llc_mshr_size 64
llc_latency 20

dram_channel_width 8
dram_wq_size 64
dram_rq_size 64
tRP 15
tRCD 15
tCAS 12.5
dram_dbus_turn_around_time 30
dram_write_high_wm 56
dram_write_low_wm 48
min_dram_writes_per_switch 16
dram_mtps 2400
dram_dbus_return_time 13


Heartbeat CPU  0 instructions:    1000001 cycles:     429060 heartbeat IPC: 2.33068 cumulative IPC: 2.33068 (Simulation time: 0 hr 0 min 2 sec) 
Heartbeat CPU  0 instructions:    2000002 cycles:     857824 heartbeat IPC: 2.33229 cumulative IPC: 2.33148 (Simulation time: 0 hr 0 min 4 sec) 
Heartbeat CPU  0 instructions:    3000003 cycles:    1286340 heartbeat IPC: 2.33364 cumulative IPC: 2.33220 (Simulation time: 0 hr 0 min 5 sec) 
Heartbeat CPU  0 instructions:    4000000 cycles:    1714832 heartbeat IPC: 2.33376 cumulative IPC: 2.33259 (Simulation time: 0 hr 0 min 7 sec) 
Heartbeat CPU  0 instructions:    5000000 cycles:    2143318 heartbeat IPC: 2.33380 cumulative IPC: 2.33283 (Simulation time: 0 hr 0 min 9 sec) 
Heartbeat CPU  0 instructions:    6000000 cycles:    2571946 heartbeat IPC: 2.33303 cumulative IPC: 2.33286 (Simulation time: 0 hr 0 min 11 sec) 
Heartbeat CPU  0 instructions:    7000003 cycles:    3000583 heartbeat IPC: 2.33298 cumulative IPC: 2.33288 (Simulation time: 0 hr 0 min 12 sec) 
Heartbeat CPU  0 instructions:    8000000 cycles:    3429181 heartbeat IPC: 2.33318 cumulative IPC: 2.33292 (Simulation time: 0 hr 0 min 14 sec) 
Heartbeat CPU  0 instructions:    9000003 cycles:    3857750 heartbeat IPC: 2.33335 cumulative IPC: 2.33297 (Simulation time: 0 hr 0 min 16 sec) 
Heartbeat CPU  0 instructions:   10000003 cycles:    4286356 heartbeat IPC: 2.33315 cumulative IPC: 2.33298 (Simulation time: 0 hr 0 min 18 sec) 

Warmup complete CPU  0 instructions:   10000003 cycles:    4286356 (Simulation time: 0 hr 0 min 18 sec) 

Heartbeat CPU  0 instructions:   11000002 cycles:    5047419 heartbeat IPC: 1.31395 cumulative IPC: 1.31395 (Simulation time: 0 hr 0 min 20 sec) 
Heartbeat CPU  0 instructions:   12000000 cycles:    5817921 heartbeat IPC: 1.29785 cumulative IPC: 1.30585 (Simulation time: 0 hr 0 min 22 sec) 
Heartbeat CPU  0 instructions:   13000003 cycles:    6587288 heartbeat IPC: 1.29977 cumulative IPC: 1.30382 (Simulation time: 0 hr 0 min 24 sec) 
Heartbeat CPU  0 instructions:   14000002 cycles:    7352498 heartbeat IPC: 1.30683 cumulative IPC: 1.30457 (Simulation time: 0 hr 0 min 26 sec) 
Heartbeat CPU  0 instructions:   15000000 cycles:    8122202 heartbeat IPC: 1.29920 cumulative IPC: 1.30349 (Simulation time: 0 hr 0 min 28 sec) 
Heartbeat CPU  0 instructions:   16000000 cycles:    8881825 heartbeat IPC: 1.31644 cumulative IPC: 1.30563 (Simulation time: 0 hr 0 min 30 sec) 
Heartbeat CPU  0 instructions:   17000000 cycles:    9657638 heartbeat IPC: 1.28897 cumulative IPC: 1.30323 (Simulation time: 0 hr 0 min 32 sec) 
Heartbeat CPU  0 instructions:   18000003 cycles:   10435720 heartbeat IPC: 1.28522 cumulative IPC: 1.30095 (Simulation time: 0 hr 0 min 34 sec) 
Heartbeat CPU  0 instructions:   19000001 cycles:   11228010 heartbeat IPC: 1.26216 cumulative IPC: 1.29652 (Simulation time: 0 hr 0 min 37 sec) 
Heartbeat CPU  0 instructions:   20000000 cycles:   12017297 heartbeat IPC: 1.26697 cumulative IPC: 1.29350 (Simulation time: 0 hr 0 min 39 sec) 
Heartbeat CPU  0 instructions:   21000003 cycles:   12809291 heartbeat IPC: 1.26264 cumulative IPC: 1.29064 (Simulation time: 0 hr 0 min 41 sec) 
Heartbeat CPU  0 instructions:   22000001 cycles:   13599480 heartbeat IPC: 1.26552 cumulative IPC: 1.28850 (Simulation time: 0 hr 0 min 43 sec) 
Heartbeat CPU  0 instructions:   23000001 cycles:   14392537 heartbeat IPC: 1.26094 cumulative IPC: 1.28634 (Simulation time: 0 hr 0 min 45 sec) 
Heartbeat CPU  0 instructions:   24000000 cycles:   15183116 heartbeat IPC: 1.26489 cumulative IPC: 1.28479 (Simulation time: 0 hr 0 min 47 sec) 
Heartbeat CPU  0 instructions:   25000001 cycles:   15969225 heartbeat IPC: 1.27209 cumulative IPC: 1.28393 (Simulation time: 0 hr 0 min 49 sec) 
Heartbeat CPU  0 instructions:   26000003 cycles:   16757335 heartbeat IPC: 1.26886 cumulative IPC: 1.28298 (Simulation time: 0 hr 0 min 51 sec) 
Heartbeat CPU  0 instructions:   27000003 cycles:   17536922 heartbeat IPC: 1.28273 cumulative IPC: 1.28296 (Simulation time: 0 hr 0 min 53 sec) 
Heartbeat CPU  0 instructions:   28000000 cycles:   18316633 heartbeat IPC: 1.28252 cumulative IPC: 1.28294 (Simulation time: 0 hr 0 min 55 sec) 
Heartbeat CPU  0 instructions:   29000000 cycles:   19095251 heartbeat IPC: 1.28433 cumulative IPC: 1.28301 (Simulation time: 0 hr 0 min 57 sec) 
Heartbeat CPU  0 instructions:   30000003 cycles:   19882884 heartbeat IPC: 1.26963 cumulative IPC: 1.28234 (Simulation time: 0 hr 1 min 0 sec) 
Heartbeat CPU  0 instructions:   31000003 cycles:   20668496 heartbeat IPC: 1.27289 cumulative IPC: 1.28188 (Simulation time: 0 hr 1 min 2 sec) 
Heartbeat CPU  0 instructions:   32000000 cycles:   21454608 heartbeat IPC: 1.27208 cumulative IPC: 1.28143 (Simulation time: 0 hr 1 min 4 sec) 
Heartbeat CPU  0 instructions:   33000003 cycles:   22241724 heartbeat IPC: 1.27046 cumulative IPC: 1.28095 (Simulation time: 0 hr 1 min 6 sec) 
Heartbeat CPU  0 instructions:   34000003 cycles:   23022054 heartbeat IPC: 1.28151 cumulative IPC: 1.28098 (Simulation time: 0 hr 1 min 8 sec) 
Heartbeat CPU  0 instructions:   35000002 cycles:   23811038 heartbeat IPC: 1.26745 cumulative IPC: 1.28043 (Simulation time: 0 hr 1 min 10 sec) 
Heartbeat CPU  0 instructions:   36000000 cycles:   24598054 heartbeat IPC: 1.27062 cumulative IPC: 1.28005 (Simulation time: 0 hr 1 min 12 sec) 
Heartbeat CPU  0 instructions:   37000001 cycles:   25386665 heartbeat IPC: 1.26805 cumulative IPC: 1.27960 (Simulation time: 0 hr 1 min 14 sec) 
Heartbeat CPU  0 instructions:   38000000 cycles:   26180172 heartbeat IPC: 1.26023 cumulative IPC: 1.27890 (Simulation time: 0 hr 1 min 16 sec) 
Heartbeat CPU  0 instructions:   39000002 cycles:   26972718 heartbeat IPC: 1.26176 cumulative IPC: 1.27830 (Simulation time: 0 hr 1 min 18 sec) 
Heartbeat CPU  0 instructions:   40000000 cycles:   27758585 heartbeat IPC: 1.27248 cumulative IPC: 1.27811 (Simulation time: 0 hr 1 min 20 sec) 
Heartbeat CPU  0 instructions:   41000002 cycles:   28553066 heartbeat IPC: 1.25869 cumulative IPC: 1.27747 (Simulation time: 0 hr 1 min 22 sec) 
Heartbeat CPU  0 instructions:   42000000 cycles:   29344740 heartbeat IPC: 1.26314 cumulative IPC: 1.27702 (Simulation time: 0 hr 1 min 25 sec) 
Heartbeat CPU  0 instructions:   43000001 cycles:   30128364 heartbeat IPC: 1.27612 cumulative IPC: 1.27699 (Simulation time: 0 hr 1 min 27 sec) 
Heartbeat CPU  0 instructions:   44000000 cycles:   30909022 heartbeat IPC: 1.28097 cumulative IPC: 1.27711 (Simulation time: 0 hr 1 min 29 sec) 
Heartbeat CPU  0 instructions:   45000001 cycles:   31709284 heartbeat IPC: 1.24959 cumulative IPC: 1.27630 (Simulation time: 0 hr 1 min 31 sec) 
Heartbeat CPU  0 instructions:   46000002 cycles:   32483195 heartbeat IPC: 1.29214 cumulative IPC: 1.27674 (Simulation time: 0 hr 1 min 33 sec) 
Heartbeat CPU  0 instructions:   47000002 cycles:   33278837 heartbeat IPC: 1.25685 cumulative IPC: 1.27619 (Simulation time: 0 hr 1 min 35 sec) 
Heartbeat CPU  0 instructions:   48000000 cycles:   34077353 heartbeat IPC: 1.25232 cumulative IPC: 1.27555 (Simulation time: 0 hr 1 min 37 sec) 
Heartbeat CPU  0 instructions:   49000001 cycles:   34859485 heartbeat IPC: 1.27856 cumulative IPC: 1.27563 (Simulation time: 0 hr 1 min 39 sec) 
Heartbeat CPU  0 instructions:   50000000 cycles:   35645506 heartbeat IPC: 1.27223 cumulative IPC: 1.27554 (Simulation time: 0 hr 1 min 41 sec) 
Heartbeat CPU  0 instructions:   51000001 cycles:   36436527 heartbeat IPC: 1.26419 cumulative IPC: 1.27527 (Simulation time: 0 hr 1 min 43 sec) 
Heartbeat CPU  0 instructions:   52000000 cycles:   37234315 heartbeat IPC: 1.25346 cumulative IPC: 1.27474 (Simulation time: 0 hr 1 min 45 sec) 
Heartbeat CPU  0 instructions:   53000001 cycles:   38024687 heartbeat IPC: 1.26523 cumulative IPC: 1.27451 (Simulation time: 0 hr 1 min 48 sec) 
Heartbeat CPU  0 instructions:   54000002 cycles:   38819453 heartbeat IPC: 1.25823 cumulative IPC: 1.27414 (Simulation time: 0 hr 1 min 50 sec) 
Heartbeat CPU  0 instructions:   55000002 cycles:   39617018 heartbeat IPC: 1.25382 cumulative IPC: 1.27368 (Simulation time: 0 hr 1 min 52 sec) 
Heartbeat CPU  0 instructions:   56000000 cycles:   40409461 heartbeat IPC: 1.26192 cumulative IPC: 1.27342 (Simulation time: 0 hr 1 min 54 sec) 
Heartbeat CPU  0 instructions:   57000003 cycles:   41219926 heartbeat IPC: 1.23386 cumulative IPC: 1.27255 (Simulation time: 0 hr 1 min 56 sec) 
Heartbeat CPU  0 instructions:   58000003 cycles:   42022455 heartbeat IPC: 1.24606 cumulative IPC: 1.27199 (Simulation time: 0 hr 1 min 58 sec) 
Heartbeat CPU  0 instructions:   59000001 cycles:   42811313 heartbeat IPC: 1.26765 cumulative IPC: 1.27190 (Simulation time: 0 hr 2 min 0 sec) 
Heartbeat CPU  0 instructions:   60000000 cycles:   43600298 heartbeat IPC: 1.26745 cumulative IPC: 1.27181 (Simulation time: 0 hr 2 min 2 sec) 
Finished CPU 0 instructions: 50000002 cycles: 39313965 cumulative IPC: 1.27181 (Simulation time: 0 hr 2 min 2 sec) 

ChampSim completed all CPUs

[ROI Statistics]
Core_0_instructions 50000002
Core_0_cycles 39313965
Core_0_IPC 1.27181

Core_0_branch_prediction_accuracy 99.18540
Core_0_branch_MPKI 0.05624
Core_0_average_ROB_occupancy_at_mispredict 254.77774

Core_0_L1D_total_access 13885371
Core_0_L1D_total_hit 13041272
Core_0_L1D_total_miss 844099
Core_0_L1D_loads 11426779
Core_0_L1D_load_hit 10582680
Core_0_L1D_load_miss 844099
Core_0_L1D_RFOs 2458592
Core_0_L1D_RFO_hit 2458592
Core_0_L1D_RFO_miss 0
Core_0_L1D_prefetches 0
Core_0_L1D_prefetch_hit 0
Core_0_L1D_prefetch_miss 0
Core_0_L1D_writebacks 0
Core_0_L1D_writeback_hit 0
Core_0_L1D_writeback_miss 0
Core_0_L1D_prefetch_requested 0
Core_0_L1D_prefetch_dropped 0
Core_0_L1D_prefetch_issued 0
Core_0_L1D_prefetch_filled 0
Core_0_L1D_prefetch_useful 0
Core_0_L1D_prefetch_useless 0
Core_0_L1D_prefetch_late 0
Core_0_L1D_average_miss_latency 33.53371

Core_0_L1D_rq_access 17132335
Core_0_L1D_rq_forward 0
Core_0_L1D_rq_merged 5627058
Core_0_L1D_rq_to_cache 11505277
Core_0_L1D_rq_full 0

Core_0_L1D_wq_access 2458593
Core_0_L1D_wq_forward 0
Core_0_L1D_wq_merged 0
Core_0_L1D_wq_to_cache 2458593
Core_0_L1D_wq_full 0

Core_0_L1D_pq_access 0
Core_0_L1D_pq_forward 0
Core_0_L1D_pq_merged 0
Core_0_L1D_pq_to_cache 0
Core_0_L1D_pq_full 0

Core_0_L1D_acc_epochs 41259
Core_0_L1D_acc_level_0 41259
Core_0_L1D_acc_level_1 0
Core_0_L1D_acc_level_2 0
Core_0_L1D_acc_level_3 0
Core_0_L1D_acc_level_4 0
Core_0_L1D_acc_level_5 0
Core_0_L1D_acc_level_6 0
Core_0_L1D_acc_level_7 0
Core_0_L1D_acc_level_8 0
Core_0_L1D_acc_level_9 0

Core_0_L1I_total_access 11014591
Core_0_L1I_total_hit 11014591
Core_0_L1I_total_miss 0
Core_0_L1I_loads 11014591
Core_0_L1I_load_hit 11014591
Core_0_L1I_load_miss 0
Core_0_L1I_RFOs 0
Core_0_L1I_RFO_hit 0
Core_0_L1I_RFO_miss 0
Core_0_L1I_prefetches 0
Core_0_L1I_prefetch_hit 0
Core_0_L1I_prefetch_miss 0
Core_0_L1I_writebacks 0
Core_0_L1I_writeback_hit 0
Core_0_L1I_writeback_miss 0
Core_0_L1I_prefetch_requested 0
Core_0_L1I_prefetch_dropped 0
Core_0_L1I_prefetch_issued 0
Core_0_L1I_prefetch_filled 0
Core_0_L1I_prefetch_useful 0
Core_0_L1I_prefetch_useless 0
Core_0_L1I_prefetch_late 0
Core_0_L1I_average_miss_latency -nan

Core_0_L1I_rq_access 50000005
Core_0_L1I_rq_forward 0
Core_0_L1I_rq_merged 38985414
Core_0_L1I_rq_to_cache 11014591
Core_0_L1I_rq_full 0

Core_0_L1I_wq_access 0
Core_0_L1I_wq_forward 0
Core_0_L1I_wq_merged 0
Core_0_L1I_wq_to_cache 0
Core_0_L1I_wq_full 0

Core_0_L1I_pq_access 0
Core_0_L1I_pq_forward 0
Core_0_L1I_pq_merged 0
Core_0_L1I_pq_to_cache 0
Core_0_L1I_pq_full 0

Core_0_L1I_acc_epochs 41259
Core_0_L1I_acc_level_0 41259
Core_0_L1I_acc_level_1 0
Core_0_L1I_acc_level_2 0
Core_0_L1I_acc_level_3 0
Core_0_L1I_acc_level_4 0
Core_0_L1I_acc_level_5 0
Core_0_L1I_acc_level_6 0
Core_0_L1I_acc_level_7 0
Core_0_L1I_acc_level_8 0
Core_0_L1I_acc_level_9 0

Core_0_L2C_total_access 1665603
Core_0_L2C_total_hit 830566
Core_0_L2C_total_miss 835037
Core_0_L2C_loads 844099
Core_0_L2C_load_hit 531041
Core_0_L2C_load_miss 313058
Core_0_L2C_RFOs 0
Core_0_L2C_RFO_hit 0
Core_0_L2C_RFO_miss 0
Core_0_L2C_prefetches 560364
Core_0_L2C_prefetch_hit 38414
Core_0_L2C_prefetch_miss 521950
Core_0_L2C_writebacks 261140
Core_0_L2C_writeback_hit 261111
Core_0_L2C_writeback_miss 29
Core_0_L2C_prefetch_requested 4124905
Core_0_L2C_prefetch_dropped 2541
Core_0_L2C_prefetch_issued 4122364
Core_0_L2C_prefetch_filled 627008
Core_0_L2C_prefetch_useful 607506
Core_0_L2C_prefetch_useless 19417
Core_0_L2C_prefetch_late 1289
Core_0_L2C_average_miss_latency 41.57938

Core_0_L2C_rq_access 844099
Core_0_L2C_rq_forward 0
Core_0_L2C_rq_merged 0
Core_0_L2C_rq_to_cache 844099
Core_0_L2C_rq_full 0

Core_0_L2C_wq_access 261140
Core_0_L2C_wq_forward 0
Core_0_L2C_wq_merged 0
Core_0_L2C_wq_to_cache 261140
Core_0_L2C_wq_full 0

Core_0_L2C_pq_access 4122364
Core_0_L2C_pq_forward 0
Core_0_L2C_pq_merged 8074
Core_0_L2C_pq_to_cache 4114290
Core_0_L2C_pq_full 0

Core_0_L2C_acc_epochs 41259
Core_0_L2C_acc_level_0 3
Core_0_L2C_acc_level_1 12
Core_0_L2C_acc_level_2 92
Core_0_L2C_acc_level_3 117
Core_0_L2C_acc_level_4 518
Core_0_L2C_acc_level_5 783
Core_0_L2C_acc_level_6 1052
Core_0_L2C_acc_level_7 2109
Core_0_L2C_acc_level_8 5054
Core_0_L2C_acc_level_9 31519

Core_0_LLC_total_access 3821918
Core_0_LLC_total_hit 2951547
Core_0_LLC_total_miss 870371
Core_0_LLC_loads 311769
Core_0_LLC_load_hit 289830
Core_0_LLC_load_miss 21939
Core_0_LLC_RFOs 0
Core_0_LLC_RFO_hit 0
Core_0_LLC_RFO_miss 0
Core_0_LLC_prefetches 3250476
Core_0_LLC_prefetch_hit 2402426
Core_0_LLC_prefetch_miss 848050
Core_0_LLC_writebacks 259673
Core_0_LLC_writeback_hit 259291
Core_0_LLC_writeback_miss 382
Core_0_LLC_prefetch_requested 0
Core_0_LLC_prefetch_dropped 0
Core_0_LLC_prefetch_issued 0
Core_0_LLC_prefetch_filled 1017918
Core_0_LLC_prefetch_useful 347524
Core_0_LLC_prefetch_useless 649409
Core_0_LLC_prefetch_late 1605
Core_0_LLC_average_miss_latency 281.88275

Core_0_LLC_rq_access 311769
Core_0_LLC_rq_forward 0
Core_0_LLC_rq_merged 0
Core_0_LLC_rq_to_cache 311769
Core_0_LLC_rq_full 0

Core_0_LLC_wq_access 259674
Core_0_LLC_wq_forward 0
Core_0_LLC_wq_merged 0
Core_0_LLC_wq_to_cache 259674
Core_0_LLC_wq_full 0

Core_0_LLC_pq_access 4070927
Core_0_LLC_pq_forward 0
Core_0_LLC_pq_merged 426
Core_0_LLC_pq_to_cache 4070501
Core_0_LLC_pq_full 0

Core_0_LLC_acc_epochs 42579
Core_0_LLC_acc_level_0 8
Core_0_LLC_acc_level_1 1338
Core_0_LLC_acc_level_2 17937
Core_0_LLC_acc_level_3 11294
Core_0_LLC_acc_level_4 5005
Core_0_LLC_acc_level_5 2723
Core_0_LLC_acc_level_6 1711
Core_0_LLC_acc_level_7 1010
Core_0_LLC_acc_level_8 655
Core_0_LLC_acc_level_9 898

Core_0_major_page_fault 0
Core_0_minor_page_fault 13866

spp.pref.total 4124905
spp.pref.at_L2 632512
spp.pref.at_LLC 3492393

spp.depth.max 8
spp.depth.min 0
spp.depth.avg 4

spp.breadth.max 2
spp.breadth.min 0
spp.breadth.avg 0

delta_1 4100648
delta_34 44759
delta_-33 43192
delta_2 2422
delta_-1 1370
delta_-3 1109
delta_5 1065
delta_-4 1054
delta_-2 361
delta_3 113
delta_33 44
delta_4 8

depth_1_delta_1 963266
depth_1_delta_34 13211
depth_1_delta_-33 13015
depth_1_delta_2 1668
depth_1_delta_-1 624
depth_1_delta_-4 469
depth_1_delta_5 447
depth_1_delta_-3 432
depth_1_delta_3 113
depth_1_delta_-2 104
depth_1_delta_33 44
depth_1_delta_4 8
depth_2_delta_1 917367
depth_2_delta_-33 13185
depth_2_delta_34 12722
depth_2_delta_2 420
depth_2_delta_-3 396
depth_2_delta_-1 385
depth_2_delta_-4 375
depth_2_delta_5 352
depth_2_delta_-2 96
depth_3_delta_1 827748
depth_3_delta_34 11613
depth_3_delta_-33 9316
depth_3_delta_-1 257
depth_3_delta_5 224
depth_3_delta_2 214
depth_3_delta_-3 211
depth_3_delta_-4 145
depth_3_delta_-2 74
depth_4_delta_1 758047
depth_4_delta_-33 5674
depth_4_delta_34 5116
depth_4_delta_2 90
depth_4_delta_-1 88
depth_4_delta_-3 70
depth_4_delta_-2 62
depth_4_delta_-4 58
depth_4_delta_5 37
depth_5_delta_1 509589
depth_5_delta_34 1883
depth_5_delta_-33 1763
depth_5_delta_2 28
depth_5_delta_-2 22
depth_5_delta_-1 16
depth_5_delta_-4 7
depth_5_delta_5 5
depth_6_delta_1 123397
depth_6_delta_-33 239
depth_6_delta_34 214
depth_6_delta_-2 3
depth_6_delta_2 2
depth_7_delta_1 1232
depth_8_delta_1 2

Channel_0_RQ_row_buffer_hit 340992
Channel_0_RQ_row_buffer_miss 528997
Channel_0_WQ_row_buffer_hit 66751
Channel_0_WQ_row_buffer_miss 192780
Channel_0_WQ_full 0
Channel_0_dbus_congested 652669

avg_congested_cycle 10

DRAM_bw_pochs 170314
DRAM_bw_level_0 28772
DRAM_bw_level_1 47710
DRAM_bw_level_2 69110
DRAM_bw_level_3 24722
