*************************************************
   ChampSim Multicore Out-of-Order Simulator
   Last compiled: Apr  3 2025 20:54:34
*************************************************
parsing config file: /home/zir/Pythia/config/mlop.ini

trace_0 /home/zir/ChampSim/ML-DPC/ChampSimTraces/spec06/450.soplex-s1.trace.gz
adding L2C_PREFETCHER: MLOP
Initialize SHIP state
warmup_instructions 10000000
simulation_instructions 50000000
champsim_seed 164
measure_ipc 0
measure_ipc_epoch 1000
measure_dram_bw 1
measure_dram_bw_epoch 256
measure_cache_acc 1
measure_cache_acc_epoch 1024
l1d_perfect 0
l2c_perfect 0
llc_perfect 0
l1d_semi_perfect 0
l2c_semi_perfect 0
llc_semi_perfect 0
semi_perfect_cache_page_buffer_size 64

num_cpus 1
cpu_freq 4000
dram_io_freq 2400
page_size 4096
block_size 64
max_read_per_cycle 8
max_fill_per_cycle 1
dram_channels 1
log2_dram_channels 0
dram_ranks 1
dram_banks 8
dram_rows 65536
dram_columns 128
dram_row_size 8
dram_size 4096
dram_pages 1048576

fetch_width 6
decode_width 6
exec_width 4
lq_width 2
sq_width 2
retire_width 4
scheduler_size 128
branch_mispredict_penalty 20
rob_size 256
lq_size 72
sq_size 56
num_instr_destinations_sparc 4
num_instr_destinations 2
num_instr_sources 4

itlb_set 16
itlb_way 8
itlb_rq_size 16
itlb_wq_size 16
itlb_pq_size 0
itlb_mshr_size 8
itlb_latency 1

dtlb_set 16
dtlb_way 4
dtlb_rq_size 16
dtlb_wq_size 16
dtlb_pq_size 0
dtlb_mshr_size 8
dtlb_latency 1

stlb_set 128
stlb_way 12
stlb_rq_size 32
stlb_wq_size 32
stlb_pq_size 0
stlb_mshr_size 16
stlb_latency 8

l1i_size 32
l1i_set 64
l1i_way 8
l1i_rq_size 64
l1i_wq_size 64
l1i_pq_size 8
l1i_mshr_size 8
l1i_latency 1

l1d_size 32
l1d_set 64
l1d_way 8
l1d_rq_size 64
l1d_wq_size 64
l1d_pq_size 8
l1d_mshr_size 16
l1d_latency 4

l2c_size 256
l2c_set 512
l2c_way 8
l2c_rq_size 32
l2c_wq_size 32
l2c_pq_size 32
l2c_mshr_size 32
l2c_latency 10

llc_size 2048
llc_set 2048
llc_way 16
llc_rq_size 32
llc_wq_size 32
llc_pq_size 32
llc_mshr_size 64
llc_latency 20

dram_channel_width 8
dram_wq_size 64
dram_rq_size 64
tRP 15
tRCD 15
tCAS 12.5
dram_dbus_turn_around_time 30
dram_write_high_wm 56
dram_write_low_wm 48
min_dram_writes_per_switch 16
dram_mtps 2400
dram_dbus_return_time 13

mlop_pref_degree 16
mlop_num_updates 500
mlop_l1d_thresh 2
mlop_l2c_thresh 0.75
mlop_llc_thresh 0.3
mlop_debug_level 0
mlop_blocks_in_cache 4096
mlop_blocks_in_zone 64
mlop_amt_size 2048
mlop_PF_DEGREE 16
mlop_NUM_UPDATES 500
mlop_L1D_THRESH 1000
mlop_L2C_THRESH 375
mlop_LLC_THRESH 150
mlop_ORIGIN 63
mlop_MAX_OFFSET 63
mlop_MIN_OFFSET -63
mlop_ORIGIN 63
mlop_NUM_OFFSETS 127


Heartbeat CPU  0 instructions:    1000001 cycles:     722489 heartbeat IPC: 1.38411 cumulative IPC: 1.38411 (Simulation time: 0 hr 0 min 2 sec) 
Heartbeat CPU  0 instructions:    2000003 cycles:    1277920 heartbeat IPC: 1.80041 cumulative IPC: 1.56505 (Simulation time: 0 hr 0 min 3 sec) 
Heartbeat CPU  0 instructions:    3000002 cycles:    1828406 heartbeat IPC: 1.81657 cumulative IPC: 1.64077 (Simulation time: 0 hr 0 min 4 sec) 
Heartbeat CPU  0 instructions:    4000000 cycles:    2439960 heartbeat IPC: 1.63518 cumulative IPC: 1.63937 (Simulation time: 0 hr 0 min 6 sec) 
Heartbeat CPU  0 instructions:    5000001 cycles:    3184095 heartbeat IPC: 1.34384 cumulative IPC: 1.57031 (Simulation time: 0 hr 0 min 7 sec) 
Heartbeat CPU  0 instructions:    6000000 cycles:    3737166 heartbeat IPC: 1.80808 cumulative IPC: 1.60549 (Simulation time: 0 hr 0 min 8 sec) 
Heartbeat CPU  0 instructions:    7000001 cycles:    4327960 heartbeat IPC: 1.69264 cumulative IPC: 1.61739 (Simulation time: 0 hr 0 min 9 sec) 
Heartbeat CPU  0 instructions:    8000000 cycles:    5082588 heartbeat IPC: 1.32515 cumulative IPC: 1.57400 (Simulation time: 0 hr 0 min 10 sec) 
Heartbeat CPU  0 instructions:    9000001 cycles:    5621205 heartbeat IPC: 1.85661 cumulative IPC: 1.60108 (Simulation time: 0 hr 0 min 12 sec) 
Heartbeat CPU  0 instructions:   10000000 cycles:    6147270 heartbeat IPC: 1.90090 cumulative IPC: 1.62674 (Simulation time: 0 hr 0 min 13 sec) 

Warmup complete CPU  0 instructions:   10000003 cycles:    6147271 (Simulation time: 0 hr 0 min 13 sec) 

Heartbeat CPU  0 instructions:   11000000 cycles:   10939836 heartbeat IPC: 0.20866 cumulative IPC: 0.20866 (Simulation time: 0 hr 0 min 17 sec) 
Heartbeat CPU  0 instructions:   12000000 cycles:   14680451 heartbeat IPC: 0.26734 cumulative IPC: 0.23438 (Simulation time: 0 hr 0 min 19 sec) 
Heartbeat CPU  0 instructions:   13000000 cycles:   16686916 heartbeat IPC: 0.49839 cumulative IPC: 0.28464 (Simulation time: 0 hr 0 min 21 sec) 
Heartbeat CPU  0 instructions:   14000000 cycles:   20053064 heartbeat IPC: 0.29708 cumulative IPC: 0.28765 (Simulation time: 0 hr 0 min 23 sec) 
Heartbeat CPU  0 instructions:   15000000 cycles:   22772385 heartbeat IPC: 0.36774 cumulative IPC: 0.30075 (Simulation time: 0 hr 0 min 25 sec) 
Heartbeat CPU  0 instructions:   16000000 cycles:   26813550 heartbeat IPC: 0.24745 cumulative IPC: 0.29033 (Simulation time: 0 hr 0 min 29 sec) 
Heartbeat CPU  0 instructions:   17000002 cycles:   29234779 heartbeat IPC: 0.41301 cumulative IPC: 0.30319 (Simulation time: 0 hr 0 min 31 sec) 
Heartbeat CPU  0 instructions:   18000000 cycles:   32608216 heartbeat IPC: 0.29643 cumulative IPC: 0.30233 (Simulation time: 0 hr 0 min 34 sec) 
Heartbeat CPU  0 instructions:   19000000 cycles:   37457474 heartbeat IPC: 0.20622 cumulative IPC: 0.28745 (Simulation time: 0 hr 0 min 37 sec) 
Heartbeat CPU  0 instructions:   20000000 cycles:   39621552 heartbeat IPC: 0.46209 cumulative IPC: 0.29874 (Simulation time: 0 hr 0 min 38 sec) 
Heartbeat CPU  0 instructions:   21000000 cycles:   41488129 heartbeat IPC: 0.53574 cumulative IPC: 0.31125 (Simulation time: 0 hr 0 min 40 sec) 
Heartbeat CPU  0 instructions:   22000001 cycles:   45210991 heartbeat IPC: 0.26861 cumulative IPC: 0.30719 (Simulation time: 0 hr 0 min 42 sec) 
Heartbeat CPU  0 instructions:   23000001 cycles:   48702689 heartbeat IPC: 0.28639 cumulative IPC: 0.30548 (Simulation time: 0 hr 0 min 45 sec) 
Heartbeat CPU  0 instructions:   24000000 cycles:   52606691 heartbeat IPC: 0.25615 cumulative IPC: 0.30134 (Simulation time: 0 hr 0 min 48 sec) 
Heartbeat CPU  0 instructions:   25000001 cycles:   54270671 heartbeat IPC: 0.60097 cumulative IPC: 0.31170 (Simulation time: 0 hr 0 min 50 sec) 
Heartbeat CPU  0 instructions:   26000002 cycles:   59362625 heartbeat IPC: 0.19639 cumulative IPC: 0.30067 (Simulation time: 0 hr 0 min 54 sec) 
Heartbeat CPU  0 instructions:   27000002 cycles:   62906190 heartbeat IPC: 0.28220 cumulative IPC: 0.29951 (Simulation time: 0 hr 0 min 56 sec) 
Heartbeat CPU  0 instructions:   28000000 cycles:   64927615 heartbeat IPC: 0.49470 cumulative IPC: 0.30622 (Simulation time: 0 hr 0 min 57 sec) 
Heartbeat CPU  0 instructions:   29000002 cycles:   68462772 heartbeat IPC: 0.28287 cumulative IPC: 0.30490 (Simulation time: 0 hr 1 min 0 sec) 
Heartbeat CPU  0 instructions:   30000002 cycles:   71246235 heartbeat IPC: 0.35926 cumulative IPC: 0.30722 (Simulation time: 0 hr 1 min 2 sec) 
Heartbeat CPU  0 instructions:   31000000 cycles:   74684188 heartbeat IPC: 0.29087 cumulative IPC: 0.30640 (Simulation time: 0 hr 1 min 5 sec) 
Heartbeat CPU  0 instructions:   32000000 cycles:   76548548 heartbeat IPC: 0.53638 cumulative IPC: 0.31249 (Simulation time: 0 hr 1 min 7 sec) 
Heartbeat CPU  0 instructions:   33000003 cycles:   80961839 heartbeat IPC: 0.22659 cumulative IPC: 0.30743 (Simulation time: 0 hr 1 min 10 sec) 
Heartbeat CPU  0 instructions:   34000000 cycles:   84920021 heartbeat IPC: 0.25264 cumulative IPC: 0.30467 (Simulation time: 0 hr 1 min 13 sec) 
Heartbeat CPU  0 instructions:   35000002 cycles:   87000458 heartbeat IPC: 0.48067 cumulative IPC: 0.30920 (Simulation time: 0 hr 1 min 14 sec) 
Heartbeat CPU  0 instructions:   36000000 cycles:   89830102 heartbeat IPC: 0.35340 cumulative IPC: 0.31070 (Simulation time: 0 hr 1 min 16 sec) 
Heartbeat CPU  0 instructions:   37000002 cycles:   92688880 heartbeat IPC: 0.34980 cumulative IPC: 0.31199 (Simulation time: 0 hr 1 min 19 sec) 
Heartbeat CPU  0 instructions:   38000000 cycles:   96488316 heartbeat IPC: 0.26320 cumulative IPC: 0.30994 (Simulation time: 0 hr 1 min 21 sec) 
Heartbeat CPU  0 instructions:   39000001 cycles:   98591047 heartbeat IPC: 0.47557 cumulative IPC: 0.31370 (Simulation time: 0 hr 1 min 23 sec) 
Heartbeat CPU  0 instructions:   40000000 cycles:  102496161 heartbeat IPC: 0.25607 cumulative IPC: 0.31137 (Simulation time: 0 hr 1 min 27 sec) 
Heartbeat CPU  0 instructions:   41000000 cycles:  106784329 heartbeat IPC: 0.23320 cumulative IPC: 0.30804 (Simulation time: 0 hr 1 min 29 sec) 
Heartbeat CPU  0 instructions:   42000002 cycles:  108919324 heartbeat IPC: 0.46839 cumulative IPC: 0.31137 (Simulation time: 0 hr 1 min 31 sec) 
Heartbeat CPU  0 instructions:   43000001 cycles:  111176192 heartbeat IPC: 0.44309 cumulative IPC: 0.31420 (Simulation time: 0 hr 1 min 32 sec) 
Heartbeat CPU  0 instructions:   44000000 cycles:  114378145 heartbeat IPC: 0.31231 cumulative IPC: 0.31414 (Simulation time: 0 hr 1 min 35 sec) 
Heartbeat CPU  0 instructions:   45000003 cycles:  118104778 heartbeat IPC: 0.26834 cumulative IPC: 0.31262 (Simulation time: 0 hr 1 min 38 sec) 
Heartbeat CPU  0 instructions:   46000000 cycles:  121625231 heartbeat IPC: 0.28405 cumulative IPC: 0.31175 (Simulation time: 0 hr 1 min 41 sec) 
Heartbeat CPU  0 instructions:   47000001 cycles:  123525821 heartbeat IPC: 0.52615 cumulative IPC: 0.31522 (Simulation time: 0 hr 1 min 43 sec) 
Heartbeat CPU  0 instructions:   48000000 cycles:  128327739 heartbeat IPC: 0.20825 cumulative IPC: 0.31102 (Simulation time: 0 hr 1 min 46 sec) 
Heartbeat CPU  0 instructions:   49000000 cycles:  132144654 heartbeat IPC: 0.26199 cumulative IPC: 0.30953 (Simulation time: 0 hr 1 min 49 sec) 
Heartbeat CPU  0 instructions:   50000001 cycles:  134208514 heartbeat IPC: 0.48453 cumulative IPC: 0.31235 (Simulation time: 0 hr 1 min 50 sec) 
Heartbeat CPU  0 instructions:   51000000 cycles:  137442832 heartbeat IPC: 0.30918 cumulative IPC: 0.31227 (Simulation time: 0 hr 1 min 52 sec) 
Heartbeat CPU  0 instructions:   52000000 cycles:  140241031 heartbeat IPC: 0.35737 cumulative IPC: 0.31321 (Simulation time: 0 hr 1 min 55 sec) 
Heartbeat CPU  0 instructions:   53000000 cycles:  143753080 heartbeat IPC: 0.28473 cumulative IPC: 0.31249 (Simulation time: 0 hr 1 min 58 sec) 
Heartbeat CPU  0 instructions:   54000000 cycles:  145693387 heartbeat IPC: 0.51538 cumulative IPC: 0.31531 (Simulation time: 0 hr 2 min 0 sec) 
Heartbeat CPU  0 instructions:   55000000 cycles:  149883321 heartbeat IPC: 0.23867 cumulative IPC: 0.31307 (Simulation time: 0 hr 2 min 3 sec) 
Heartbeat CPU  0 instructions:   56000000 cycles:  153954698 heartbeat IPC: 0.24562 cumulative IPC: 0.31122 (Simulation time: 0 hr 2 min 6 sec) 
Heartbeat CPU  0 instructions:   57000003 cycles:  156053014 heartbeat IPC: 0.47657 cumulative IPC: 0.31353 (Simulation time: 0 hr 2 min 7 sec) 
Heartbeat CPU  0 instructions:   58000000 cycles:  158777922 heartbeat IPC: 0.36698 cumulative IPC: 0.31448 (Simulation time: 0 hr 2 min 9 sec) 
Heartbeat CPU  0 instructions:   59000001 cycles:  161631705 heartbeat IPC: 0.35041 cumulative IPC: 0.31514 (Simulation time: 0 hr 2 min 11 sec) 
Heartbeat CPU  0 instructions:   60000000 cycles:  165295900 heartbeat IPC: 0.27291 cumulative IPC: 0.31417 (Simulation time: 0 hr 2 min 14 sec) 
Finished CPU 0 instructions: 50000000 cycles: 159148639 cumulative IPC: 0.31417 (Simulation time: 0 hr 2 min 14 sec) 

ChampSim completed all CPUs

[ROI Statistics]
Core_0_instructions 50000000
Core_0_cycles 159148639
Core_0_IPC 0.31417

Core_0_branch_prediction_accuracy 96.03125
Core_0_branch_MPKI 8.78132
Core_0_average_ROB_occupancy_at_mispredict 84.92535

Core_0_L1D_total_access 8915974
Core_0_L1D_total_hit 5863696
Core_0_L1D_total_miss 3052278
Core_0_L1D_loads 6429691
Core_0_L1D_load_hit 3720735
Core_0_L1D_load_miss 2708956
Core_0_L1D_RFOs 2486283
Core_0_L1D_RFO_hit 2142961
Core_0_L1D_RFO_miss 343322
Core_0_L1D_prefetches 0
Core_0_L1D_prefetch_hit 0
Core_0_L1D_prefetch_miss 0
Core_0_L1D_writebacks 0
Core_0_L1D_writeback_hit 0
Core_0_L1D_writeback_miss 0
Core_0_L1D_prefetch_requested 0
Core_0_L1D_prefetch_dropped 0
Core_0_L1D_prefetch_issued 0
Core_0_L1D_prefetch_filled 0
Core_0_L1D_prefetch_useful 0
Core_0_L1D_prefetch_useless 0
Core_0_L1D_prefetch_late 0
Core_0_L1D_average_miss_latency 133.98284

Core_0_L1D_rq_access 11431674
Core_0_L1D_rq_forward 0
Core_0_L1D_rq_merged 4119473
Core_0_L1D_rq_to_cache 7312201
Core_0_L1D_rq_full 0

Core_0_L1D_wq_access 2987112
Core_0_L1D_wq_forward 0
Core_0_L1D_wq_merged 95
Core_0_L1D_wq_to_cache 2987017
Core_0_L1D_wq_full 1732340

Core_0_L1D_pq_access 0
Core_0_L1D_pq_forward 0
Core_0_L1D_pq_merged 0
Core_0_L1D_pq_to_cache 0
Core_0_L1D_pq_full 0

Core_0_L1D_acc_epochs 156408
Core_0_L1D_acc_level_0 156408
Core_0_L1D_acc_level_1 0
Core_0_L1D_acc_level_2 0
Core_0_L1D_acc_level_3 0
Core_0_L1D_acc_level_4 0
Core_0_L1D_acc_level_5 0
Core_0_L1D_acc_level_6 0
Core_0_L1D_acc_level_7 0
Core_0_L1D_acc_level_8 0
Core_0_L1D_acc_level_9 0

Core_0_L1I_total_access 11210557
Core_0_L1I_total_hit 11210412
Core_0_L1I_total_miss 145
Core_0_L1I_loads 11210557
Core_0_L1I_load_hit 11210412
Core_0_L1I_load_miss 145
Core_0_L1I_RFOs 0
Core_0_L1I_RFO_hit 0
Core_0_L1I_RFO_miss 0
Core_0_L1I_prefetches 0
Core_0_L1I_prefetch_hit 0
Core_0_L1I_prefetch_miss 0
Core_0_L1I_writebacks 0
Core_0_L1I_writeback_hit 0
Core_0_L1I_writeback_miss 0
Core_0_L1I_prefetch_requested 0
Core_0_L1I_prefetch_dropped 0
Core_0_L1I_prefetch_issued 0
Core_0_L1I_prefetch_filled 0
Core_0_L1I_prefetch_useful 0
Core_0_L1I_prefetch_useless 0
Core_0_L1I_prefetch_late 0
Core_0_L1I_average_miss_latency 258.51034

Core_0_L1I_rq_access 50000221
Core_0_L1I_rq_forward 0
Core_0_L1I_rq_merged 38789493
Core_0_L1I_rq_to_cache 11210728
Core_0_L1I_rq_full 0

Core_0_L1I_wq_access 0
Core_0_L1I_wq_forward 0
Core_0_L1I_wq_merged 0
Core_0_L1I_wq_to_cache 0
Core_0_L1I_wq_full 0

Core_0_L1I_pq_access 0
Core_0_L1I_pq_forward 0
Core_0_L1I_pq_merged 0
Core_0_L1I_pq_to_cache 0
Core_0_L1I_pq_full 0

Core_0_L1I_acc_epochs 156408
Core_0_L1I_acc_level_0 156408
Core_0_L1I_acc_level_1 0
Core_0_L1I_acc_level_2 0
Core_0_L1I_acc_level_3 0
Core_0_L1I_acc_level_4 0
Core_0_L1I_acc_level_5 0
Core_0_L1I_acc_level_6 0
Core_0_L1I_acc_level_7 0
Core_0_L1I_acc_level_8 0
Core_0_L1I_acc_level_9 0

Core_0_L2C_total_access 4834594
Core_0_L2C_total_hit 2185665
Core_0_L2C_total_miss 2648929
Core_0_L2C_loads 2708910
Core_0_L2C_load_hit 800209
Core_0_L2C_load_miss 1908701
Core_0_L2C_RFOs 343308
Core_0_L2C_RFO_hit 28839
Core_0_L2C_RFO_miss 314469
Core_0_L2C_prefetches 427944
Core_0_L2C_prefetch_hit 2242
Core_0_L2C_prefetch_miss 425702
Core_0_L2C_writebacks 1354432
Core_0_L2C_writeback_hit 1354375
Core_0_L2C_writeback_miss 57
Core_0_L2C_prefetch_requested 2636379
Core_0_L2C_prefetch_dropped 0
Core_0_L2C_prefetch_issued 2636379
Core_0_L2C_prefetch_filled 526979
Core_0_L2C_prefetch_useful 344564
Core_0_L2C_prefetch_useless 182415
Core_0_L2C_prefetch_late 41427
Core_0_L2C_average_miss_latency 160.08383

Core_0_L2C_rq_access 3052437
Core_0_L2C_rq_forward 0
Core_0_L2C_rq_merged 0
Core_0_L2C_rq_to_cache 3052231
Core_0_L2C_rq_full 0

Core_0_L2C_wq_access 1354433
Core_0_L2C_wq_forward 206
Core_0_L2C_wq_merged 0
Core_0_L2C_wq_to_cache 1354433
Core_0_L2C_wq_full 0

Core_0_L2C_pq_access 2636379
Core_0_L2C_pq_forward 0
Core_0_L2C_pq_merged 33789
Core_0_L2C_pq_to_cache 2602590
Core_0_L2C_pq_full 0

Core_0_L2C_acc_epochs 156408
Core_0_L2C_acc_level_0 87755
Core_0_L2C_acc_level_1 4866
Core_0_L2C_acc_level_2 5321
Core_0_L2C_acc_level_3 6078
Core_0_L2C_acc_level_4 6457
Core_0_L2C_acc_level_5 8843
Core_0_L2C_acc_level_6 9014
Core_0_L2C_acc_level_7 8131
Core_0_L2C_acc_level_8 6213
Core_0_L2C_acc_level_9 13730

Core_0_LLC_total_access 5206406
Core_0_LLC_total_hit 2238296
Core_0_LLC_total_miss 2968110
Core_0_LLC_loads 1867806
Core_0_LLC_load_hit 1102417
Core_0_LLC_load_miss 765389
Core_0_LLC_RFOs 314465
Core_0_LLC_RFO_hit 76390
Core_0_LLC_RFO_miss 238075
Core_0_LLC_prefetches 2011869
Core_0_LLC_prefetch_hit 401813
Core_0_LLC_prefetch_miss 1610056
Core_0_LLC_writebacks 1012266
Core_0_LLC_writeback_hit 657676
Core_0_LLC_writeback_miss 354590
Core_0_LLC_prefetch_requested 0
Core_0_LLC_prefetch_dropped 0
Core_0_LLC_prefetch_issued 0
Core_0_LLC_prefetch_filled 1936581
Core_0_LLC_prefetch_useful 701097
Core_0_LLC_prefetch_useless 1232095
Core_0_LLC_prefetch_late 30947
Core_0_LLC_average_miss_latency 280.35168

Core_0_LLC_rq_access 2182309
Core_0_LLC_rq_forward 0
Core_0_LLC_rq_merged 0
Core_0_LLC_rq_to_cache 2182281
Core_0_LLC_rq_full 0

Core_0_LLC_wq_access 1012268
Core_0_LLC_wq_forward 41
Core_0_LLC_wq_merged 0
Core_0_LLC_wq_to_cache 1012268
Core_0_LLC_wq_full 0

Core_0_LLC_pq_access 2488572
Core_0_LLC_pq_forward 0
Core_0_LLC_pq_merged 5725
Core_0_LLC_pq_to_cache 2482834
Core_0_LLC_pq_full 0

Core_0_LLC_acc_epochs 161422
Core_0_LLC_acc_level_0 60121
Core_0_LLC_acc_level_1 17886
Core_0_LLC_acc_level_2 14439
Core_0_LLC_acc_level_3 11469
Core_0_LLC_acc_level_4 10055
Core_0_LLC_acc_level_5 9303
Core_0_LLC_acc_level_6 6668
Core_0_LLC_acc_level_7 5154
Core_0_LLC_acc_level_8 3975
Core_0_LLC_acc_level_9 22352

Core_0_major_page_fault 0
Core_0_minor_page_fault 6750

[MLOP] History of tracked zone:
IIIIIIIIIIIIIIIIIIIIIIIIIIIIIIIIIIIIIIIIIIIIIIIIIIIIIIIIIIIIIIII
IIIIIIIIIIIIIIIIIIIIIIIIIIIIIIIIIIIIIIIIIIIIIIIIIIIA4IIIIIIIIIII
IIIIIIIIIIIIIIIIIIIIIIIIIIIIIIIIIIIIIIIIIIIIIIIIA4IA4IIIIIIIIIII
IIIIIIIIIIIIIIIIIIIIIIIIIIIIIIIIIIIIIIIIIIIIIIIIAA4A4IIIIIIIIIII
IIIIIIIIIIIIIIIIIIIA4IIIIIIIIIIIIIIIIIIIIIIIIIIIAA4A4IIIIIIIIIII
IIIIIIIIIIIIIIIIA4IA4IIIIIIIIIIIIIIIIIIIIIIIIIIIAA4A4IIIIIIIIIII
IIIIIIIIIIIIIIIAA4IA4IIIIIIIIIIIIIIIIIIIIIIIIIIIAA4A4IIIIIIIIIII
IIIIIIIIIIIIIIIAA4IA4IIIIIIIIIIIIIIIIIIIIIIIIIIIAA4A4IIIIIA4II4I
IIIIIIIIIIIIIIIAA4IA4IIIIIIIIIIIIIIIIIIIIIIIIIIIAA4A44IIIIA4II4I
IIIIIIIIIIIIIIIAA4IA4IIIIIIIIIA4II4IIIIIIIIIIIIIAA4A44IIIIA4II4I
IIIIIIIIIIIIIIIAA4IA4II4IIIIIIA4II4IIIIIIIIIIIIIAA4A44IIIIA4II4I
IIIIIIIIIIIIIIIAA4IA4II4IIIIIIA4II4IIIIIIIIIIIIIAA4A44IIIIA4IIA4
IIIIIIIIIIIIIIIAA4IA4II4I4444IA4444IIIIIIIIIIIIIAA4A44IIIIA4IIA4
IIIIIIIIIIIIIIIAA44A4I4444444IA4444IIIIIIIIIIIIIAA4A44IIIIA4IIA4
IIIIIIIIIIIIIIIAA44A4I4444444AA4444I4I4444III44IAA4A44IIIIA4IIA4
IIIIIIIIIIIIIIIAA44A4I4444444AA4444I4I4444III44IAA4A4444IIA4IIA4
IIIIIIIIIIIIIIIAA44A4I4444444AA4444I4I4444III44IAA4A4444IIA4IIAA
IIIIIIIIIIIIIIIAA44A4I4444444AA4444I4I4444III44IAA4A4444IIAA24AA
IIIIIIIIIIIIIIIAA44A4I4444444AA4444I444444III44IAA4A4444IIAA24AA
IIIIIIIIIIIIIIIAA44A444444444AA4444I444444III44IAA4A4444IIAA24AA
IIIII444II444I4AA44A444444444AA4444I444444III44IAA4A4444IIAA24AA
IIIII444II44444AA44A444444444AA4444I444444III44IAA4A4444IIAA24AA
IIIII444II44444AA44A444444444AA4444I444444III44IAA4A4444I4AA24AA
IIIII444I444444AA44A444444444AA4444I444444III44IAA4A4444I4AA24AA
IIIII444I444444AA44A444444444AA4444I444444II4444AA4A4444I4AA24AA
IIIII444I444444AA44A444444444AA4444I4444444I444AAA4A4444I4AA24AA
IIIII444I444444AA44A444444444AA4444I4444444I444AAA4A4444A4AA24AA
IIIII444I444444AA44A444444444AA4444I4444444I444AAA4A4444A4AAA4AA
IIIII444I444444AA44A444444444AA444444444444A444AAA4A4444A4AAA4AA
IIIIA444I444444AA44A444444444AA444444444444A444AAA4A4444A4AAA4AA
4IIIA4A4I444444AA44A444444444AA444444444444A444AAA4A4444A4AAA4AA
4IIAA4A4I444444AA44A444444444AA444444444444A444AAA4A4444A4AAA4AA
4IAAA4A4I444444AA44A444444444AA444444444444A444AAA4A4444A4AAA4AA
4IAAA4A4I444444AA44A444444444AA444444444444A4A4AAA4A4444A4AAA4AA
4IAAA4A4I444444AA44A444444444AA444444444444A4A4AAA4A444AA4AAA4AA
4IAAA4A4I444444AA44A444444444AA4444444444A4A4A4AAA4A444AA4AAA4AA
4IAAA4A4I444444AA44A444444444AA4444444A44A4A4A4AAA4A444AA4AAA4AA
4IAAA4A44444444AA44A444444444AA4444444A44A4A4A4AAA4A444AA4AAA4AA
4IAAA4A44444444AA44AA44444444AA4444444A44A4A4A4AAA4A444AA4AAA4AA
44AAAAA44444444AA44AA44444444AA4444444A44A4A4A4AAA4A444AA4AAA4AA
44AAAAA44444444AA44AA44444444AA4444444A44A4AAA4AAA4A444AA4AAA4AA
44AAAAA44444444AA44AA44444444AA4444A44A44A4AAA4AAA4A444AA4AAA4AA
44AAAAA44444444AA44AA44444444AA4A44A44A44A4AAA4AAA4A444AA4AAA4AA
44AAAAA44444444AA44AA4444A444AA4A44A44A44A4AAA4AAA4A444AA4AAA4AA
44AAAAA44444444AA44AA444AA444AA4A44A44A44A4AAA4AAA4A444AA4AAA4AA
44AAAAA44444444AA4AAA444AA444AA4A44A44A44A4AAA4AAA4A444AA4AAA4AA
44AAAAA44444444AAAAAA444AA444AA4A44A44A44A4AAA4AAA4A444AA4AAA4AA
44AAAAA44444444AAAAAA444AAA44AA4A44A44A44A4AAA4AAA4A444AA4AAA4AA
44AAAAA44444444AAAAAA444AAA44AA4A44A44A44A4AAA4AAAAA444AA4AAA4AA
44AAAAA44444444AAAAAA444AAA44AA4A44A44A44A4AAA4AAAAA444AAAAAA4AA
44AAAAA4444444AAAAAAA444AAA44AA4A44A44A44A4AAA4AAAAA444AAAAAA4AA
44AAAAA444444AAAAAAAA444AAA44AA4A44A44A44A4AAA4AAAAA444AAAAAA4AA
44AAAAA444444AAAAAAAA444AAA4AAA4A44A44A44A4AAA4AAAAA444AAAAAA4AA
44AAAAA444444AAAAAAAA444AAA4AAA4A44A4AA44A4AAA4AAAAA444AAAAAA4AA
44AAAAA444444AAAAAAAA444AAA4AAAAA44A4AA44A4AAA4AAAAA444AAAAAA4AA
44AAAAA444444AAAAAAAA444AAA4AAAAA44A4AA44A4AAA4AAAAA444AAAAAAAAA
44AAAAA444444AAAAAAAA444AAAAAAAAA44A4AA44A4AAA4AAAAA444AAAAAAAAA
44AAAAA444444AAAAAAAA444AAAAAAAAA44AAAA44A4AAA4AAAAA444AAAAAAAAA
44AAAAA444444AAAAAAAAA44AAAAAAAAA44AAAA44A4AAA4AAAAA444AAAAAAAAA
4AAAAAA444444AAAAAAAAA44AAAAAAAAA44AAAA44A4AAA4AAAAA444AAAAAAAAA
4AAAAAA444444AAAAAAAAA44AAAAAAAAA44AAAA44A4AAAAAAAAA444AAAAAAAAA
4AAAAAAA44444AAAAAAAAA44AAAAAAAAA44AAAA44A4AAAAAAAAA444AAAAAAAAA
4AAAAAAAA4444AAAAAAAAA44AAAAAAAAA44AAAA44A4AAAAAAAAA444AAAAAAAAA
4AAAAAAAA4444AAAAAAAAA44AAAAAAAAA44AAAAA4A4AAAAAAAAA444AAAAAAAAA
4AAAAAAAA4444AAAAAAAAA44AAAAAAAAA44AAAAA4A4AAAAAAAAAA44AAAAAAAAA
4AAAAAAAA4444AAAAAAAAAA4AAAAAAAAA44AAAAA4A4AAAAAAAAAA44AAAAAAAAA
4AAAAAAAA4444AAAAAAAAAAAAAAAAAAAA44AAAAA4A4AAAAAAAAAA44AAAAAAAAA
4AAAAAAAA4444AAAAAAAAAAAAAAAAAAAA44AAAAA4AAAAAAAAAAAA44AAAAAAAAA
4AAAAAAAA4444AAAAAAAAAAAAAAAAAAAAA4AAAAA4AAAAAAAAAAAA44AAAAAAAAA
4AAAAAAAA4A44AAAAAAAAAAAAAAAAAAAAA4AAAAA4AAAAAAAAAAAA44AAAAAAAAA
4AAAAAAAA4A44AAAAAAAAAAAAAAAAAAAAA4AAAAA4AAAAAAAAAAAA4AAAAAAAAAA
4AAAAAAAA4A44AAAAAAAAAAAAAAAAAAAAAAAAAAA4AAAAAAAAAAAA4AAAAAAAAAA
4AAAAAAAAAA44AAAAAAAAAAAAAAAAAAAAAAAAAAA4AAAAAAAAAAAA4AAAAAAAAAA
4AAAAAAAAAAA4AAAAAAAAAAAAAAAAAAAAAAAAAAA4AAAAAAAAAAAA4AAAAAAAAAA
4AAAAAAAAAAA4AAAAAAAAAAAAAAAAAAAAAAAAAAA4AAAAAAAAAAAAAAAAAAAAAAA
4AAAAAAAAAAA4AAAAAAAAAAAAAAAAAAAAAAAAAAAAAAAAAAAAAAAAAAAAAAAAAAA
4AAAAAAAAAAA4AAAAAAAAAAAAAAAAAAAAAAAAAAAAAAAAAAAAAAAAAIAAAAAAAAA
4AAAAAAAAAAA4AAAAAAAAAAAAAAAAAAAAAAAAAAAAAAAAAAAAAAIAAIAAAAAAAAA
4AAAAAAAAAAA4AAAAAAAAAAAAAAAAAAAAAAAAAAAAAAAAAAIAAAIAAIAAAAAAAAA
4AAAAAAAAAAA4AAAAAAAAAAAAAAAAAAAAAAAAAAAAAAAAAIIAAAIAAIAAAAAAAAA
4AAAAAAAAAAA4AAAAAAAAAAAAAAAAAAAAAAAAAAAAAAIAAIIAAAIAAIAAAAAAAAA
4AAAAAAAAAAA4AAAAAAAAAAAAAAAAAAAAAAAAAAAIAAIAAIIAAAIAAIAAAAAAAAA
4AAAAAAAAAAA4AAAAAAAAAAAAAAIAAAAAAAAAAAAIAAIAAIIAAAIAAIAAAAAAAAA
4AAAAAAAAAAA4AAAAAAAAAAIAAAIAAAAAAAAAAAAIAAIAAIIAAAIAAIAAAAAAAAA
4AAAAAAAAAAA4AAAAAAAAAAIAAAIAAAAAAAAAAAAIAAIAAIIAAAIIAIAAAAAAAAA
4AAAAAAAIAAA4AAAAAAAAAAIAAAIAAAAAAAAAAAAIAAIAAIIAAAIIAIAAAAAAAAA
4AAAAAAAIAAA4AAAAAAAAAAIAAAIAAAAAAAAAAAIIAAIAAIIAAAIIAIAAAAAAAAA
4AAAAAAAIAAA4AAAAAAAAAAIAAAIAAAAIAAAAAAIIAAIAAIIAAAIIAIAAAAAAAAA
4AAAAAAAIAAA4AAAAAAIAAAIAAAIAAAAIAAAAAAIIAAIAAIIAAAIIAIAAAAAAAAA
4AAAAAAAIAAI4AAAAAAIAAAIAAAIAAAAIAAAAAAIIAAIAAIIAAAIIAIAAAAAAAAA
4AAAAAAAIAII4AAAAAAIAAAIAAAIAAAAIAAAAAAIIAAIAAIIAAAIIAIAAAAAAAAA
4AAAAAIAIAII4AAAAAAIAAAIAAAIAAAAIAAAAAAIIAAIAAIIAAAIIAIAAAAAAAAA
4AAAAAIAIAII4AAAAAAIAAAIAIAIAAAAIAAAAAAIIAAIAAIIAAAIIAIAAAAAAAAA
4AAAAAIAIAII4AAAAAAIAAAIIIAIAAAAIAAAAAAIIAAIAAIIAAAIIAIAAAAAAAAA
4AAAAAIAIAII4AAAAAAIAIAIIIAIAAAAIAAAAAAIIAAIAAIIAAAIIAIAAAAAAAAA
4AAAAAIAIAII4IAAAAAIAIAIIIAIAAAAIAAAAAAIIAAIAAIIAAAIIAIAAAAAAAAA
4AAAAAIAIAII4IAAAAAIAIAIIIAIAAAAIAAIAAAIIAAIAAIIAAAIIAIAAAAAAAAA
4AAAAAIAIAII4IAAAAAIAIAIIIAIAAAAIIAIAAAIIAAIAAIIAAAIIAIAAAAAAAAA
4IAAAAIAIAII4IAAAAAIAIAIIIAIAAAAIIAIAAAIIAAIAAIIAAAIIAIAAAAAAAAA
4IAAAAIAIAII4IAAAAAIAIAIIIAIAAAAIIAIAAAIIAA4AA44AAA42A2AAAAAAAAA
4IAAAAIAIAII4IAAAAAIAIAIIIAIAAAAIIAIAAAIIAA4AA44AAA22A2AAAAAAAAA
4IAAAAIAIAII4IAAAAAIAIAIIIAIAAAAIIAIAAAI4AA4AA44AAA22A2AAAAAAAAA
4IAAAAIAIAII4IAAAAAIAIAIIIAIAAAAIIAIAAA44AA4AA44AAA22A2AAAAAAAAA
4IAAAAIAIAII4IAAAAAIAIAIIIAIAAAAIIAIAAA44AA4AA42AAA22A2AAAAAAAAA
4IAAAAIAIAII4IAAAAAIAIAIIIAIAAAAIIAIAAA44AA4AA22AAA22A2AAAAAAAAA
4IAAAAIAIAII4IAAAAAIAIAIIIAIAAAAIIA4AAA44AA4AA22AAA22A2AAAAAAAAA
4IAAAAIAIAII4IAAAAAIAIAIIIAIAAAAIIA4AAA44AA2AA22AAA22AAAAAAAAAAA
4IAAAAIAIAII4IAAAAAIAIAIIIAIAAAAI4A4AAA44AA2AA22AAA22AAAAAAAAAAA
4IAAAAIAIAII4IAAAAAIAIAIIIAIAAAA44A4AAA44AA2AA22AAA2AAAAAAAAAAAA
4IAAAAIAIAII4IAAAAAIAIAIIIAIAAAA44A4AAA42AA2AA22AAAAAAAAAAAAAAAA
4IAAAAIAIAII4IAAAAAIAIAIIIAIAAAA44A4AAA22AA2AA22AAAAAAAAAAAAAAAA
4IAAAAIAIAII4IAAAAAIAIAIIIAIAAAA44A2AAA22AA2AAA2AAAAAAAAAAAAAAAA
4IAAAAIAIAII4IAAAAAIAIAII4A4AAAA44A2AAA22AA2AAA2AAAAAAAAAAAAAAAA
4IAAAAIAIAII4IAAAAAIAIAI44A4AAAA42A2AAA22AA2AAA2AAAAAAAAAAAAAAAA
4IAAAAIAIAII4IAAAAAIAIA444A4AAAA22A2AAA22AAAAAA2AAAAAAAAAAAAAAAA
4IAAAAIAIAII4IAAAAAIA4A444A4AAAA22A2AAA22AAAAAA2AAAAAAAAAAAAAAAA
4IAAAAIAIAII4IAAAAAIA4A444A4AAAA22A2AAA2AAAAAAA2AAAAAAAAAAAAAAAA
4IAAAAIAIAII4IAAAAA4A4A444A4AAAA22A2AAAAAAAAAAA2AAAAAAAAAAAAAAAA
4IAAAAIAIAII4IAAAAA4A4A444A2AAAA22A2AAAAAAAAAAA2AAAAAAAAAAAAAAAA
4IAAAAIAIAII4IAAAAA4A4A442A2AAAA22A2AAAAAAAAAAA2AAAAAAAAAAAAAAAA
4IAAAAIAIAII4IAAAAA4A4A422A2AAAA22AAAAAAAAAAAAA2AAAAAAAAAAAAAAAA
4IAAAAIAIAII4IAAAAA4A4A222A2AAAA22AAAAAAAAAAAAA2AAAAAAAAAAAAAAAA
4IAAAAIAIAII44AAAAA4A4A222A2AAAA2AAAAAAAAAAAAAA2AAAAAAAAAAAAAAAA
4IAAAAIAIAII44AAAAA4A2A222A2AAAAAAAAAAAAAAAAAAA2AAAAAAAAAAAAAAAA
4IAAAAIAIAI444AAAAA4A2A222A2AAAAAAAAAAAAAAAAAAA2AAAAAAAAAAAAAAAA
4IAAAAIAIA4444AAAAA2A2A222A2AAAAAAAAAAAAAAAAAAA2AAAAAAAAAAAAAAAA
4IAAAAIA4A4444AAAAA2A2A222A2AAAAAAAAAAAAAAAAAAA2AAAAAAAAAAAAAAAA
4IAAAAIA4A4444AAAAA2A2A222AAAAAAAAAAAAAAAAAAAAA2AAAAAAAAAAAAAAAA
4IAAAA4A4A4444AAAAA2A2A222AAAAAAAAAAAAAAAAAAAAA2AAAAAAAAAAAAAAAA
4IAAAA4A4A4444AAAAA2A2A22AAAAAAAAAAAAAAAAAAAAAA2AAAAAAAAAAAAAAAA
4IAAAA4A4A4442AAAAA2A2A2AAAAAAAAAAAAAAAAAAAAAAA2AAAAAAAAAAAAAAAA
4IAAAA4A4A4422AAAAA2A2AAAAAAAAAAAAAAAAAAAAAAAAA2AAAAAAAAAAAAAAAA
4IAAAA4A4A4222AAAAA2A2AAAAAAAAAAAAAAAAAAAAAAAAA2AAAAAAAAAAAAAAAA
44AAAA4A4A2222AAAAA2AAAAAAAAAAAAAAAAAAAAAAAAAAA2AAAAAAAAAAAAAAAA
44AAAA4A2A2222AAAAAAAAAAAAAAAAAAAAAAAAAAAAAAAAA2AAAAAAAAAAAAAAAA
44AAAA2A2A2222AAAAAAAAAAAAAAAAAAAAAAAAAAAAAAAAA2AAAAAAAAAAAAAAAA
44AAAA2A2A222AAAAAAAAAAAAAAAAAAAAAAAAAAAAAAAAAA2AAAAAAAAAAAAAAAA
42AAAA2A2A22AAAAAAAAAAAAAAAAAAAAAAAAAAAAAAAAAAA2AAAAAAAAAAAAAAAA
22AAAA2A2A2AAAAAAAAAAAAAAAAAAAAAAAAAAAAAAAAAAAA2AAAAAAAAAAAAAAAA
22AAAA2A2AAAAAAAAAAAAAAAAAAAAAAAAAAAAAAAAAAAAAA2AAAAAAAAAAAAAAAA
22AAAA2AAAAAAAAAAAAAAAAAAAAAAAAAAAAAAAAAAAAAAAA2AAAAAAAAAAAAAAAA
22AAAAAAAAAAAAAAAAAAAAAAAAAAAAAAAAAAAAAAAAAAAAA2AAAAAAAAAAAAAAAA
2AAAAAAAAAAAAAAAAAAAAAAAAAAAAAAAAAAAAAAAAAAAAAA2AAAAAAAAAAAAAAAA
AAAAAAAAAAAAAAAAAAAAAAAAAAAAAAAAAAAAAAAAAAAAAAA2AAAAAAAAAAAAAAAA
AAAAAAAAAAAAAAAAAAAAAAAAAAAAAAAAAAAAAAAAIAAAAAA2AAAAAAAAAAAAAAAA
AAAAAAAAAAAAAAAAAAAAAAAAAAAAAAAAAAAAAAAIIAAAAAA2AAAAAAAAAAAAAAAA
AAAIAAAAAAAAAAAAAAAAAAAAAAAAAAAAAAAAAAAIIAAAAAA2AAAAAAAAAAAAAAAA
AAAIAAAAAAAAAAAAAAAAAAAAAAAAAAAAAAAAAAIIIAAAAAA2AAAAAAAAAAAAAAAA
AAAIAAAAAAAAAAAAAAAAAAAAAAAAAAAAAAAAAAIIIAAAIAA2AAAAAAAAAAAAAAAA
AAAIAAAAAAAAAAAAAAAAAAAAAAAAAAAAAAAAAAIIIAAAIAA2AAAAAAAAAIAAAAAA
AAAIAAAAAAAAAAAAAAAAAAAAAAAAAAAAAAAAAAIIIAAAIAA2AAAAAAAIAIAAAAAA
AAAIAAAAAAAAAAAAAAAAAAAAAAAAAAAAAAAAAAIIIAAAIAA2AAAAAAIIAIAAAAAA
AAAIAAAAAAAAAAAAAAAAAAAAAAAAAAAAAAAAAAIIIAAAIAA2AAAAIAIIAIAAAAAA
AAAIAAAAAAAAAAAAAAAAAAAAAAAAAAAAAAAAAAIIIAAAIAA2AAIAIAIIAIAAAAAA
AAAIAAAAAAAAAAAAAAAAAAAAAAAAAAAAAAAAAAIIIAAAIAI2AAIAIAIIAIAAAAAA
AAAIAAAAAAAAAAAAAAAAAAAAAAAAAAAAAAAIAAIIIAAAIAI2AAIAIAIIAIAAAAAA
AAAIAAAAAAAAAAAAAAAAAAAAAAAAAAAAIAAIAAIIIAAAIAI2AAIAIAIIAIAAAAAA
AAAIAAAAAAAAAAAAAAAAAAAAAAAAAAAIIAAIAAIIIAAAIAI2AAIAIAIIAIAAAAAA
AAAIAAAAAAAAAAAAAAAAAAAIAAAAAAAIIAAIAAIIIAAAIAI2AAIAIAIIAIAAAAAA
AAAIAAAAAAAAAAAAAAAAAAIIAAAAAAAIIAAIAAIIIAAAIAI2AAIAIAIIAIAAAAAA
AAAIAAAAAAAAAAAAAAAAIAIIAAAAAAAIIAAIAAIIIAAAIAI2AAIAIAIIAIAAAAAA
AAAIAAAAAAAAAAAAAIAAIAIIAAAAAAAIIAAIAAIIIAAAIAI2AAIAIAIIAIAAAAAA
AAAIAAAAAAAAAAAIAIAAIAIIAAAAAAAIIAAIAAIIIAAAIAI2AAIAIAIIAIAAAAAA
IAAIAAAAAAAAAAAIAIAAIAIIAAAAAAAIIAAIAAIIIAAAIAI2AAIAIAIIAIAAAAAA
IAAIAAAAAAAAAAAIAIAAIAIIAAAAAAAIIAAIAAIIIAAAIAI2AAIAIAIIAIAIAAAA
IAAIAAAAAAAAAAAIAIAAIAIIIAAAAAAIIAAIAAIIIAAAIAI2AAIAIAIIAIAIAAAA
IAAIAAAAAAAAAAAIAIIAIAIIIAAAAAAIIAAIAAIIIAAAIAI2AAIAIAIIAIAIAAAA
IAAIAAAAAAAAAAAIAIIAIAIIIAAAAAAIIAAIAAIIIAAAIAI2AAIAIAIIAIAIIAAA
IAAIAAAAAIAAAAAIAIIAIAIIIAAAAAAIIAAIAAIIIAAAIAI2AAIAIAIIAIAIIAAA
IAAIIAAAAIAAAAAIAIIAIAIIIAAAAAAIIAAIAAIIIAAAIAI2AAIAIAIIAIAIIAAA
IAAIIAAIAIAAAAAIAIIAIAIIIAAAAAAIIAAIAAIIIAAAIAI2AAIAIAIIAIAIIAAA
IAAIIAAIAIAAAAAIAIIAIAIIIAAAAAAIIAAIIAIIIAAAIAI2AAIAIAIIAIAIIAAA
IIIA2II4II444III44III444IIII44IIIIIIIIIIIIIIIIIIIIIIIIIIIIIIIIII
IIIAA2I44I4444II444II4444III444IIIIIIIIIIIIIIIIIIIIIIIIIIIIIIIII
IIIAAA244444444I4444I44444II4444IIIIIIIIIIIIIIIIIIIIIIIIIIIIIIII
IIIAAA244444444A2444I44444II4444I444IIII44IIIIIIIIIIIIIIIIIIIIII
IIIAAA244444444AA244444444II4444I4444III444IIIIIIIIIIIIIIIIIIIII
IIIAAA244444444AA244A24444I44444I4444I44444II44IIIIIIIIIIIIIIIII
IIIAAA244444444AAA24A24444444444I44444444444I44IIIIIIIIIIIIIIIII
IIIAAA244444444AAAA2A24444444444444444444444444IIIIIIIIIIIIIIIII
IIIAAA244444444AAAAAA24444444444444444444444444IIIIIIIIIIIIIIIII
IIIAAA244444444AAAAAA24444444A24444444444444444444IIII44IIIIIIII
IIIAAA244444444AAAAAA244A2444A244444444444444444444III44IIIIIIII
IIIAAA244444444AAAAAA244A2444A244444444444444A24444I4444II44III4
IIIAAA244444444AAAAAA244AA244A244444444444444A2444444444II44III4
IIIAAA244444444AAAAAA244AA244AA24444444444444A24444444444I44III4
IIIAAA244444444AAAAAA244AA244AA24444444444444A244A2444444444II44
IIIAAA244444444AAAAAA244AA244AA2A244444444444A244A2444444444II44
IIIAAA244444444AAAAAA244AA244AA2A24A244444444A244A24444444444444
IIIAAA244444444AAAAAA244AA244AA2A24A24444444AA244A24444444444444
IIIAAA244444444AAAAAA244AA244AA2A24A24444444AA2A2A24444444444444
IIIAAA244444444AAAAAA244AA244AA2A24A24444444AA2AAA24444444444444
IIIAAA244444444AAAAAA244AA244AA2A24A24444444AA2AAA24444A24444444
IIIAAA244444444AAAAAA244AA244AA2A24A24444444AA2AAA24444AA2444444
IIIAAA244444444AAAAAA244AA244AA2A24A24444444AA2AAA24444AA2A24444
IIIAAA244444444AAAAAA244AA244AA2A24A24444444AA2AAA24444AA2A2A244
IIIAAA244444444AAAAAA244AA244AA2A24A24444444AA2AAA24444AA2A2A24A
IIIAAA244444444AAAAAA244AA244AA2A24A24444444AA2AAA24444AAIA2A24A
IIAAAA244444444AAAAAA244AA244AA2A24A24444444AA2AAA24444AAIA2A24A
IIAAAA224444444AAAAAA244AA244AA2A24A24444444AA2AAA24444AAIA2A24A
IIAAAA222444444AAAAAA244AA244AA2A24A24444444AA2AAA24444AAIA2A24A
IIAAAA222444444AAAAAA242AA244AA2A24A24444444AA2AAA24444AAIA2A24A
IIAAAA222444444AAAAAA222AA244AA2A24A24444444AA2AAA24444AAIA2A24A
IIAAAA222444444AAAAAA222AA244AA2A24A24444444AA2AAA22444AA4A2A24A
IIAAAA222444444AAAAAA222AA244AA2A24A24A24244AA2AAA22444AA4A2A24A
IIAAAA222444444AAAAAA222AA244AA2A24A24A24A24AA2AAA22444AA4A2A24A
IIAAAA222444444AAAAAA222AA244AA2A24A24A24A24AA2AAA22244AA4A2A24A
IIAAAA222444444AAAAAA222AA244AA2A24A24A24A24AA2AAA22244AA2A2A24A
IIAAAA222444444AAAAAA222AI244AA2A24A24A24A24AA2AAA22244AA2A2A24A
IIAAAA222444444AAAAAA222AI244AI2A24A24A24A24AA2AAA22244AA2A2A24A
IIAAAA222444444AAAAAA222AI244AI2A24A24A24A24AA2AAA22244AA2A2AI4A
IIAAAA222444444AAAAAA222AI244AI2A24A24A24A24AA2AAA22244AA2AIAI4A
IIAAAA222444444AAAAAA222AI244AIIA24A24A24A24AA2AAA22244AA2AIAI4A
IIAAAA222444444AAAAAA222AI244AIIA24A24A24A2AAA2AAA22244AA2A4AI4A
IIAAAA222444444AAAAAA222AI244AIIA24A24A24A2AAA2AAA22244AA2AAA44A
IIAAAA222444444AIAAAA222AI244AIIA24A24A24A2AAA2AAA22244AA2AAA44A
IIAAAA222444444AIAAAA222A4244A44A24A24A24A2AAA2AAA22244AA2AAA44A
IIAAAA222444444AAAAAA222A4244A44A24A24A24A2AAA2AAA22244AA2AAA44A
IIAAAA222444444AAAAAA222A4244A44A24A24A24A2AAA2AAA2A244AA2AAA44A
IIAAAA222444444AAAAAA222A4244A44A24A24A24A2AAA2AAA2A244IA2AAA44A
IIAAAA222444444AAAIAA222A4244A44A24A24A24A2AAA2AAA2A244IA2AAA44A
IIAAAA222444444AAAIAI222A4244A44A24A24A24A2AAA2AAA2A244IA2AAA44A
IIAAAA2I2444444AAAIAI222A4244A44A24A24A24A2AAA2AAA2A244IA2AAA44A
IIAAAA2I2444444AAAIAI222A4244A44A24A24A24A2AAA2AAA2A2444A2AAA44A
IIAAAA2I2444444AAAIAI222A4244AA2A24A24A24A2AAA2AAA2A2444A2AAA44A
IIAAAA2I2444444AAAIA2222A4244AA2A24A24A24A2AAA2AAA2A2444A2AAA44A
IIAAAA2I2444444AAA4A2222A4244AA2A24A24A24A2AAA2AAA2A2444A2AAA44A
IIAAAA2I2444444AAA4A2222A4244AA2AI4A24A24A2AAA2AAA2A2444A2AAA44A
IIAAAA2I2444444AAA4A2222A4244AA2AI4A24A24A2AAA2AAAIA2444A2AAA44A
IIAAAA2I2444444AAA4A2222A4244AA2AI4A24A24A2AAA2AAAIA2444A2AAA4AA
IIAAAA2I2444444AAA4A2222A4244AA2A44A24A24A2AAA2AAAIA2444A2AAA4AA
IIIAAA2I2444444AAA4A2222A4244AA2A44A24A24A2AAA2AAAIA2444A2AAA4AA
IIIIAA2I2444444AAA4A2222A4244AA2A44A24A24A2AAA2AAAIA2444A2AAA4AA
IIIIAI2I2444444AAA4A2222A4244AA2A44A24A24A2AAA2AAAIA2444A2AAA4AA
IIIIAI2I2444444AAA4A2222A4244AA2A44A24A24A2AAA2AAA2A2444A2AAA4AA
IIIIAI2I2444444AAA4A2I22A4244AA2A44A24A24A2AAA2AAA2A2444A2AAA4AA
IIIIAI2I2444444AAA4A2II2A4244AA2A44A24A24A2AAA2AAA2A2444A2AAA4AA
IIIIAI2I2444444AAA4A2IIIA4244AA2A44A24A24A2AAA2AAA2A2444A2AAA4AA
IIIIAI2I2444444AAA4A2IIIA4244AA2A44A24A24AIAAA2AAA2A2444A2AAA4AA
IIIIAI2I2444444AAA4A2IIIA4244AA2A44A24A24AIAAI2AAA2A2444A2AAA4AA
IIIIAI2I2444444AAA4A2IIIA4244AA2A44A24A24AIAAI2AAA2A2444AIAAA4AA
IIIIAI2I2444444AAA4A2IIIA4244AA2A44A24I24AIAAI2AAA2A2444AIAAA4AA
IIIIAI2I2444444AAA4I2IIIA4244AA2A44A24I24AIAAI2AAA2A2444AIAAA4AA
IIIIAI2I2444444AAA4IIIIIA4244AA2A44A24I24AIAAI2AAA2A2444AIAAA4AA
IIIIAI2I2444444IAA4IIIIIA4244AA2A44A24I24AIAAI2AAA2A2444AIAAA4AA
IIIIAI2I2444444IAA4IIIIIA4244AA2A44A24I24AIAAI2AAA2A2444AIAAA4IA
IIIIAI2I2444444IAA4IIIIIA4244AA2A44A24I24AIAAI2AAA2AI444AIAAA4IA
IIIIAI2I2444444IAA4IIIIIA4244AA2A44A24I24AIAAI2AAA2AI444AIIAA4IA
IIIIAI2I2444444IAA4IIIIIA4244AA2A44A24II4AIAAI2AAA2AI444AIIAA4IA
IIIIAI2I2444444IAA4IIIIIA4244AA2A44A24II4AIAAI2AAA2AI444AIIAA44A
IIIIAI2I2444444IAA4IIIIIA4244AA2A44A24II4AIAAI2AAA2AI444AI4AA44A
IIIIAI2I2444444IAA4IIIIIA4244AA2A44A24I44AIAAI2AAA2AI444AI4AA44A
IIIIAI2I2444444IAA4I44IIA4244AA2A44A24I44AIAAI2AAA2AI444AI4AA44A
IIIIA4242444444AAA4I44IIA4244AA2A44A24I44AIAAI2AAA2AI444AI4AA44A
IIIIA4242444444AAA4I44IIA4244AA2A44A24I44AIAAI2AAA2AI444A44AA4AA
IIIIA4242444444AAA4A44IIA4244AA2A44A24I44AIAAI2AAA2AI444A44AA4AA
IIIIA4242444444AAA4A44IIA4244AA2A44A24I44AIAA42AAA2AI444A44AA4AA
IIIIA4242444444AAA4A44IIA4244AA2A44A24I44AIAA42AAA2AI444A4AAA4AA
IIIIA4242444444AAA4A44IIA4244AA2A44A24I44AIAA42AAA2A4444A4AAA4AA
IIIIA4A42444444AAA4A44IIA4244AA2A44A24I44AIAA42AAA2A4444A4AAA4AA
IIIAA4A42444444AAA4A44IIA4244AA2A44A24I44AIAA42AAA2A4444A4AAA4AA
IIAAA4A42444444AAA4A44IIA4244AA2A44A24I44AIAA42AAA2A4444A4AAA4AA
IIAAA4A42444444AAA4A44IIA4244AA2A44A24I44A4AAA2AAA2A4444A4AAA4AA
IIAAA4A42444444AAA4A44IIA4244AA2A44A24I44A4AAA2AAA2A444AA4AAA4AA
IIAAA4A42444444AAA4A44IIA4244AA2A44A24444A4AAA2AAA2A444AA4AAA4AA
IIAAA4A42444444AAA4A44IIA4244AA2A44A24A44A4AAA2AAA2A444AA4AAA4AA
IIAAA4A42444444AAA4A44I4A4244AA2A44A24A44A4AAA2AAA2A444AA4AAA4AA
IIAAA4A42444444AAA4AA4I4A4244AA2A44A24A44A4AAA2AAA2A444AA4AAA4AA
44AAAAA42444444AAA4AA4I4A4244AA2A44A24A44A4AAA2AAA2A444AA4AAA4AA
44AAAAA42444444AAA4AA444AA244AA2A44A24A44A4AAA2AAA2A444AA4AAA4AA
44AAAAA42444444AAAAAA444AA244AA2A44A24A44A4AAA2AAA2A444AA4AAA4AA
44AAAAA42444444AAAAAA444AAA44AA2A44A24A44A4AAA2AAA2A444AA4AAA4AA
44AAAAA42444444AAAAAA444AAA44AA2A44A24A44A4AAA2AAAAA444AA4AAA4AA
44AAAAA42444444AAAAAA444AAA44AA2A44A24A44A4AAA2AAAAA444AAAAAA4AA
44AAAAA4244444AAAAAAA444AAA44AA2A44A24A44A4AAA2AAAAA444AAAAAA4AA
44AAAAA424444AAAAAAAA444AAA44AA2A44A24A44A4AAA2AAAAA444AAAAAA4AA
44AAAAA424444AAAAAAAA444AAA4AAA2A44A24A44A4AAA2AAAAA444AAAAAA4AA
44AAAAA424444AAAAAAAA444AAA4AAA2A44A2AA44A4AAA2AAAAA444AAAAAA4AA
44AAAAA424444AAAAAAAA444AAA4AAAAA44A2AA44A4AAA2AAAAA444AAAAAA4AA
44AAAAA424444AAAAAAAA444AAA4AAAAA44A2AA44A4AAA2AAAAA444AAAAAAAAA
44AAAAA424444AAAAAAAA444AAAAAAAAA44A2AA44A4AAA2AAAAA444AAAAAAAAA
44AAAAA424444AAAAAAAA444AAAAAAAAA44AAAA44A4AAA2AAAAA444AAAAAAAAA
44AAAAA424444AAAAAAAAA44AAAAAAAAA44AAAA44A4AAA2AAAAA444AAAAAAAAA
4AAAAAA424444AAAAAAAAA44AAAAAAAAA44AAAA44A4AAA2AAAAA444AAAAAAAAA
4AAAAAA424444AAAAAAAAA44AAAAAAAAA44AAAA44A4AAAAAAAAA444AAAAAAAAA
4AAAAAAA24444AAAAAAAAA44AAAAAAAAA44AAAA44A4AAAAAAAAA444AAAAAAAAA
4AAAAAAAA4444AAAAAAAAA44AAAAAAAAA44AAAA44A4AAAAAAAAA444AAAAAAAAA
4AAAAAAAA4444AAAAAAAAA44AAAAAAAAA44AAAAA4A4AAAAAAAAA444AAAAAAAAA
4AAAAAAAA4444AAAAAAAAA44AAAAAAAAA44AAAAA4A4AAAAAAAAAA44AAAAAAAAA
4AAAAAAAA4444AAAAAAAAAA4AAAAAAAAA44AAAAA4A4AAAAAAAAAA44AAAAAAAAA
4AAAAAAAA4444AAAAAAAAAAAAAAAAAAAA44AAAAA4A4AAAAAAAAAA44AAAAAAAAA
4AAAAAAAA4444AAAAAAAAAAAAAAAAAAAA44AAAAA4AAAAAAAAAAAA44AAAAAAAAA
4AAAAAAAA4444AAAAAAAAAAAAAAAAAAAAA4AAAAA4AAAAAAAAAAAA44AAAAAAAAA
4AAAAAAAA4A44AAAAAAAAAAAAAAAAAAAAA4AAAAA4AAAAAAAAAAAA44AAAAAAAAA
4AAAAAAAA4A44AAAAAAAAAAAAAAAAAAAAA4AAAAA4AAAAAAAAAAAA4AAAAAAAAAA
4AAAAAAAA4A44AAAAAAAAAAAAAAAAAAAAAAAAAAA4AAAAAAAAAAAA4AAAAAAAAAA
4AAAAAAAAAA44AAAAAAAAAAAAAAAAAAAAAAAAAAA4AAAAAAAAAAAA4AAAAAAAAAA
4AAAAAAAAAAA4AAAAAAAAAAAAAAAAAAAAAAAAAAA4AAAAAAAAAAAA4AAAAAAAAAA
4AAAAAAAAAAA4AAAAAAAAAAAAAAAAAAAAAAAAAAA4AAAAAAAAAAAAAAAAAAAAAAA
4AAAAAAAAAAA4AAAAAAAAAAAAAAAAAAAAAAAAAAAAAAAAAAAAAAAAAAAAAAAAAAA
4AAAAAAAIAAA4AAAAAAAAAAAAAAAAAAAAAAAAAAAAAAAAAAAAAAAAAAAAAAAAAAA
4AAAAAAAIAAA4AAAAAAAAAAAAAAAAAAAAAAAAAAAAAAAAAAAAAAAIAAAAAAAAAAA
4AAAAAAAIAAA4AAAAAAAAAAAAAAAAAAIAAAAAAAAAAAAAAAAAAAAIAAAAAAAAAAA
4AAAAAAAIAAA4AAAAAAAAAAAAAAAAAAIIAAAAAAAAAAAAAAAAAAAIAAAAAAAAAAA
4AAAAAAAIAAA4AAAAAAIAAAAAAAAAAAIIAAAAAAAAAAAAAAAAAAAIAAAAAAAAAAA
4AAAAAAAIAAI4AAAAAAIAAAAAAAAAAAIIAAAAAAAAAAAAAAAAAAAIAAAAAAAAAAA
4AAAAAAAIAII4AAAAAAIAAAAAAAAAAAIIAAAAAAAAAAAAAAAAAAAIAAAAAAAAAAA
4AAAAAIAIAII4AAAAAAIAAAAAAAAAAAIIAAAAAAAAAAAAAAAAAAAIAAAAAAAAAAA
4AAAAAIAIAII4AAAAAAIAAAAAIAAAAAIIAAAAAAAAAAAAAAAAAAAIAAAAAAAAAAA
4AAAAAIAIAII4AAAAAAIAAAAIIAAAAAIIAAAAAAAAAAAAAAAAAAAIAAAAAAAAAAA
4AAAAAIAIAII4AAAAAAIAIAAIIAAAAAIIAAAAAAAAAAAAAAAAAAAIAAAAAAAAAAA
4AAAAAIAIAII4IAAAAAIAIAAIIAAAAAIIAAAAAAAAAAAAAAAAAAAIAAAAAAAAAAA
4AAAAAIAIAII4IAAAAAIAIAAIIAAAAAIIAAIAAAAAAAAAAAAAAAAIAAAAAAAAAAA
4AAAAAIAIAII4IAAAAAIAIAAIIAAAAAIIIAIAAAAAAAAAAAAAAAAIAAAAAAAAAAA
4IAAAAIAIAII4IAAAAAIAIAAIIAAAAAIIIAIAAAAAAAAAAAAAAAAIAAAAAAAAAAA
4IAAAAIAIAII4IAAAAAIAIAAIIAAAAAIIIAIAAAAAAAAAAAAAAAA4AAAAAAAAAAA
4IAAAAIAIAII4IAAAAAIAIAAIIAAAAAIIIAIAAAAAAAAAAAAAAAA2AAAAAAAAAAA
4IAAAAIAIAII4IAAAAAIAIAAIIAAAAAIIIA4AAAAAAAAAAAAAAAA2AAAAAAAAAAA
4IAAAAIAIAII4IAAAAAIAIAAIIAAAAAII4A4AAAAAAAAAAAAAAAA2AAAAAAAAAAA
4IAAAAIAIAII4IAAAAAIAIAAIIAAAAAI44A4AAAAAAAAAAAAAAAAAAAAAAAAAAAA
4IAAAAIAIAII4IAAAAAIAIAAIIAAAAA444A4AAAAAAAAAAAAAAAAAAAAAAAAAAAA
4IAAAAIAIAII4IAAAAAIAIAAI4AAAAA444A4AAAAAAAAAAAAAAAAAAAAAAAAAAAA
4IAAAAIAIAII4IAAAAAIAIAA44AAAAA444A4AAAAAAAAAAAAAAAAAAAAAAAAAAAA
4IAAAAIAIAII4IAAAAAIAIAA44AAAAA444A2AAAAAAAAAAAAAAAAAAAAAAAAAAAA
4IAAAAIAIAII4IAAAAAIA4AA44AAAAA444A2AAAAAAAAAAAAAAAAAAAAAAAAAAAA
4IAAAAIAIAII4IAAAAAIA4AA44AAAAA442A2AAAAAAAAAAAAAAAAAAAAAAAAAAAA
4IAAAAIAIAII4IAAAAA4A4AA44AAAAA422A2AAAAAAAAAAAAAAAAAAAAAAAAAAAA
4IAAAAIAIAII4IAAAAA4A4AA44AAAAA222A2AAAAAAAAAAAAAAAAAAAAAAAAAAAA
4IAAAAIAIAII4IAAAAA4A4AA44AAAAA222AAAAAAAAAAAAAAAAAAAAAAAAAAAAAA
4IAAAAIAIAII44AAAAA4A4AA44AAAAA22AAAAAAAAAAAAAAAAAAAAAAAAAAAAAAA
4IAAAAIAIAII44AAAAA4A4AA42AAAAA2AAAAAAAAAAAAAAAAAAAAAAAAAAAAAAAA
4IAAAAIAIAI444AAAAA4A4AA22AAAAAAAAAAAAAAAAAAAAAAAAAAAAAAAAAAAAAA
4IAAAAIAIA4444AAAAA4A4AA22AAAAAAAAAAAAAAAAAAAAAAAAAAAAAAAAAAAAAA
4IAAAAIA4A4444AAAAA4A2AA22AAAAAAAAAAAAAAAAAAAAAAAAAAAAAAAAAAAAAA
4IAAAA4A4A4444AAAAA2A2AA22AAAAAAAAAAAAAAAAAAAAAAAAAAAAAAAAAAAAAA
4IAAAA4A4A4444AAAAA2A2AA2AAAAAAAAAAAAAAAAAAAAAAAAAAAAAAAAAAAAAAA
4IAAAA4A4A4444AAAAA2A2AAAAAAAAAAAAAAAAAAAAAAAAAAAAAAAAAAAAAAAAAA
44AAAA4A4A4444AAAAA2AAAAAAAAAAAAAAAAAAAAAAAAAAAAAAAAAAAAAAAAAAAA
44AAAA4A4A4442AAAAA2AAAAAAAAAAAAAAAAAAAAAAAAAAAAAAAAAAAAAAAAAAAA
44AAAA4A4A4422AAAAAAAAAAAAAAAAAAAAAAAAAAAAAAAAAAAAAAAAAAAAAAAAAA
44AAAA4A4A4222AAAAAAAAAAAAAAAAAAAAAAAAAAAAAAAAAAAAAAAAAAAAAAAAAA
44AAAA4A4A2222AAAAAAAAAAAAAAAAAAAAAAAAAAAAAAAAAAAAAAAAAAAAAAAAAA
44AAAA4A2A2222AAAAAAAAAAAAAAAAAAAAAAAAAAAAAAAAAAAAAAAAAAAAAAAAAA
44AAAA2A2A222AAAAAAAAAAAAAAAAAAAAAAAAAAAAAAAAAAAAAAAAAAAAAAAAAAA
44AAAA2A2A22AAAAAAAAAAAAAAAAAAAAAAAAAAAAAAAAAAAAAAAAAAAAAAAAAAAA
44AAAA2A2A2AAAAAAAAAAAAAAAAAAAAAAAAAAAAAAAAAAAAAAAAAAAAAAAAAAAAA
44AAAA2A2AAAAAAAAAAAAAAAAAAAAAAAAAAAAAAAAAAAAAAAAAAAAAAAAAAAAAAA
42AAAA2AAAAAAAAAAAAAAAAAAAAAAAAAAAAAAAAAAAAAAAAAAAAAAAAAAAAAAAAA
22AAAA2AAAAAAAAAAAAAAAAAAAAAAAAAAAAAAAAAAAAAAAAAAAAAAAAAAAAAAAAA
22AAAAAAAAAAAAAAAAAAAAAAAAAAAAAAAAAAAAAAAAAAAAAAAAAAAAAAAAAAAAAA
2AAAAAAAAAAAAAAAAAAAAAAAAAAAAAAAAAAAAAAAAAAAAAAAAAAAAAAAAAAAAAAA
AAAAAAAAAAAAAAAAAAAAAAAAAAAAAAAAAAAAAAAAAAAAAAAAAAAAAAAAAAAAAAAA
AAAAAAAAAAAAAAAAAAAAAAAAAAAAAAAAAAAAAAAAIAAAAAAAAAAAAAAAAAAAAAAA
AAAAAAAAAAAAAAAAAAAAAAAAAAAAAAAAAAAAAAAIIAAAAAAAAAAAAAAAAAAAAAAA
AAAIAAAAAAAAAAAAAAAAAAAAAAAAAAAAAAAAAAAIIAAAAAAAAAAAAAAAAAAAAAAA
AAAIAAAAAAAAAAAAAAAAAAAAAAAAAAAAAAAAAAIIIAAAAAAAAAAAAAAAAAAAAAAA
AAAIAAAAAAAAAAAAAAAAAAAAAAAAIAAAAAAAAAIIIAAAAAAAAAAAAAAAAAAAAAAA
AAAIAAAAAAAAAAAAAAAAAAAAAAAAIAAAAAAAAAIIIAAAAAAAIAAAAAAAAAAAAAAA
AAAIAAAAAAAAAAAAAAAAAAAAAAAAIAAAAAAAAAIIIAAAAAAAIAAAAAAAAIAAAAAA
AAAIAAAAAAAAAAAAAAAAAAAAAAAAIAAAAAAAAAIIIAAAAAAAIAAAAAIAAIAAAAAA
AAAIAAAAAAAAAAAAAAAAAAAAAAAAIAAAAAAAAAIIIAAAAAAAIAAAIAIAAIAAAAAA
AAAIAAAAAAAAAAAAAAAAAAAAAAAAIAAAAAAAAAIIIAAAAAAAIAIAIAIAAIAAAAAA
AAAIAAAAAAAAAAAAAAAAAAAAAAAAIAAAAAAAAAIIIAAAAAIAIAIAIAIAAIAAAAAA
AAAIAAAAAAAAAAAAAAAAAAAAAAAAIAAAAAAAAAIIIAAAIAIAIAIAIAIAAIAAAAAA
AAAIAAAAAAAAAAAAAAAAAAAAAAAAIAAAAAAIAAIIIAAAIAIAIAIAIAIAAIAAAAAA
AAAIAAAAAAAAAAAAAAAAAAAAAAAAIAAAAAIIAAIIIAAAIAIAIAIAIAIAAIAAAAAA
AAAIAAAAAAAAAAAAAAAAAAAAAAAAIAAAIAIIAAIIIAAAIAIAIAIAIAIAAIAAAAAA
AAAIAAAAAAAAAAAAAAAAAAAAAAAAIAAIIAIIAAIIIAAAIAIAIAIAIAIAAIAAAAAA
AAAIAAAAAAAAAAAAAAAAAAAAAAAAIAIIIAIIAAIIIAAAIAIAIAIAIAIAAIAAAAAA
AAAIAAAAAAAAAAAAAAAAAAIAAAAAIAIIIAIIAAIIIAAAIAIAIAIAIAIAAIAAAAAA
AAAIAAAAAAAAAAAAAAAAIAIAAAAAIAIIIAIIAAIIIAAAIAIAIAIAIAIAAIAAAAAA
AAAIAAAAAAAAAAAAAIAAIAIAAAAAIAIIIAIIAAIIIAAAIAIAIAIAIAIAAIAAAAAA
AAAIAAAAAAAAAAAIAIAAIAIAAAAAIAIIIAIIAAIIIAAAIAIAIAIAIAIAAIAAAAAA
AAAIAAAAAIAAAAAIAIAAIAIAAAAAIAIIIAIIAAIIIAAAIAIAIAIAIAIAAIAAAAAA
AAAIAAAAAIAAAAAIAIAAIAIAIAAAIAIIIAIIAAIIIAAAIAIAIAIAIAIAAIAAAAAA
AAAIAAAAAIAAAAAIAIAAIAIAIAAAIAIIIAIIAAIIIAAAIAIAIAIAIAIAAIAIAAAA
AAAIAAAIAIAAAAAIAIAAIAIAIAAAIAIIIAIIAAIIIAAAIAIAIAIAIAIAAIAIAAAA
AAAIAAAIAIAAAAAIAIAAIAIAIAAAIAIIIAIIIAIIIAAAIAIAIAIAIAIAAIAIAAAA
AAAIAIAIAIAAAAAIAIAAIAIAIAAAIAIIIAIIIAIIIAAAIAIAIAIAIAIAAIAIAAAA
IIIIIIIIIIIIIIIIIIIIIIIIIIIIIIIIIIIIIIIIIIIIIIIIIIIIIIIIIIIIIIII
[MLOP] Prefetch Degree Mean: 7.96821
[MLOP] Prefetch Degree SD: 4.00095
[MLOP] Max Score Left Mean (%): 31.10768
[MLOP] Max Score Left SD (%): 16.35224
[MLOP] Max Score Right Mean (%): 71.25868
[MLOP] Max Score Right SD (%): 14.90706

Channel_0_RQ_row_buffer_hit 1006440
Channel_0_RQ_row_buffer_miss 1606515
Channel_0_WQ_row_buffer_hit 163959
Channel_0_WQ_row_buffer_miss 539054
Channel_0_WQ_full 1551
Channel_0_dbus_congested 2076318

avg_congested_cycle 10

DRAM_bw_pochs 645688
DRAM_bw_level_0 276934
DRAM_bw_level_1 168044
DRAM_bw_level_2 104116
DRAM_bw_level_3 96594
