*************************************************
   ChampSim Multicore Out-of-Order Simulator
   Last compiled: Apr  3 2025 20:54:34
*************************************************
parsing config file: /home/zir/Pythia/config/pythia.ini

trace_0 /home/zir/ChampSim/ML-DPC/ChampSimTraces/spec06/482.sphinx3-s2.trace.gz
adding L2C_PREFETCHER: Scooby
Initialize SHIP state
warmup_instructions 10000000
simulation_instructions 50000000
champsim_seed 165
measure_ipc 0
measure_ipc_epoch 1000
measure_dram_bw 1
measure_dram_bw_epoch 256
measure_cache_acc 1
measure_cache_acc_epoch 1024
l1d_perfect 0
l2c_perfect 0
llc_perfect 0
l1d_semi_perfect 0
l2c_semi_perfect 0
llc_semi_perfect 0
semi_perfect_cache_page_buffer_size 64

num_cpus 1
cpu_freq 4000
dram_io_freq 2400
page_size 4096
block_size 64
max_read_per_cycle 8
max_fill_per_cycle 1
dram_channels 1
log2_dram_channels 0
dram_ranks 1
dram_banks 8
dram_rows 65536
dram_columns 128
dram_row_size 8
dram_size 4096
dram_pages 1048576

fetch_width 6
decode_width 6
exec_width 4
lq_width 2
sq_width 2
retire_width 4
scheduler_size 128
branch_mispredict_penalty 20
rob_size 256
lq_size 72
sq_size 56
num_instr_destinations_sparc 4
num_instr_destinations 2
num_instr_sources 4

itlb_set 16
itlb_way 8
itlb_rq_size 16
itlb_wq_size 16
itlb_pq_size 0
itlb_mshr_size 8
itlb_latency 1

dtlb_set 16
dtlb_way 4
dtlb_rq_size 16
dtlb_wq_size 16
dtlb_pq_size 0
dtlb_mshr_size 8
dtlb_latency 1

stlb_set 128
stlb_way 12
stlb_rq_size 32
stlb_wq_size 32
stlb_pq_size 0
stlb_mshr_size 16
stlb_latency 8

l1i_size 32
l1i_set 64
l1i_way 8
l1i_rq_size 64
l1i_wq_size 64
l1i_pq_size 8
l1i_mshr_size 8
l1i_latency 1

l1d_size 32
l1d_set 64
l1d_way 8
l1d_rq_size 64
l1d_wq_size 64
l1d_pq_size 8
l1d_mshr_size 16
l1d_latency 4

l2c_size 256
l2c_set 512
l2c_way 8
l2c_rq_size 32
l2c_wq_size 32
l2c_pq_size 32
l2c_mshr_size 32
l2c_latency 10

llc_size 2048
llc_set 2048
llc_way 16
llc_rq_size 32
llc_wq_size 32
llc_pq_size 32
llc_mshr_size 64
llc_latency 20

dram_channel_width 8
dram_wq_size 64
dram_rq_size 64
tRP 15
tRCD 15
tCAS 12.5
dram_dbus_turn_around_time 30
dram_write_high_wm 56
dram_write_low_wm 48
min_dram_writes_per_switch 16
dram_mtps 2400
dram_dbus_return_time 13

scooby_alpha 0.0065088
scooby_gamma 0.556301
scooby_epsilon 0.00182284
scooby_state_num_bits 10
scooby_max_states 1024
scooby_seed 200
scooby_policy EGreedy
scooby_learning_type SARSA
scooby_actions 1,3,4,5,10,11,12,22,23,30,32,-1,-3,-6,0,
scooby_max_actions 15
scooby_pt_size 256
scooby_st_size 64
scooby_max_pcs 5
scooby_max_offsets 5
scooby_max_deltas 5
scooby_reward_none -4
scooby_reward_incorrect -8
scooby_reward_correct_untimely 12
scooby_reward_correct_timely 20
scooby_brain_zero_init 0
scooby_enable_reward_all 0
scooby_enable_track_multiple 0
scooby_enable_reward_out_of_bounds 1
scooby_reward_out_of_bounds -12
scooby_state_type 1
scooby_state_hash_type 11
scooby_access_debug 0
scooby_print_access_debug 0
scooby_print_access_debug_pc deadbeef
scooby_print_access_debug_pc_count 0
scooby_print_trace 0
scooby_enable_state_action_stats 1
scooby_enable_reward_tracker_hit 0
scooby_reward_tracker_hit -2
scooby_enable_featurewise_engine 1
scooby_pref_degree 1
scooby_enable_dyn_degree 1
scooby_max_to_avg_q_thresholds 0.5,1,2,
scooby_dyn_degrees 1,2,4,4,
scooby_multi_deg_select_type 2
scooby_last_pref_offset_conf_thresholds 1,3,8,
scooby_dyn_degrees_type2 1,2,4,6,
scooby_action_tracker_size 2
scooby_high_bw_thresh 4
scooby_enable_hbw_reward 1
scooby_reward_hbw_correct_timely 20
scooby_reward_hbw_correct_untimely 12
scooby_reward_hbw_incorrect -14
scooby_reward_hbw_none -2
scooby_reward_hbw_out_of_bounds -12
scooby_reward_hbw_tracker_hit -2
scooby_last_pref_offset_conf_thresholds_hbw 1,3,8,
scooby_dyn_degrees_type2_hbw 1,2,4,6,

le_enable_trace 0
le_trace_interval 0
le_trace_file_name 
le_trace_state 0
le_enable_score_plot 0
le_plot_file_name 
le_plot_actions 
le_enable_action_trace 0
le_action_trace_interval 0
le_action_trace_name 
le_enable_action_plot 0

le_featurewise_active_features PC, PC_Delta
le_featurewise_num_tilings 3,3,
le_featurewise_num_tiles 128,128,
le_featurewise_hash_types 2,2,
le_featurewise_enable_tiling_offset 1,1,
le_featurewise_max_q_thresh 0.5
le_featurewise_enable_action_fallback 1
le_featurewise_feature_weights 1,1,
le_featurewise_enable_dynamic_weight 0
le_featurewise_weight_gradient 0.001
le_featurewise_disable_adjust_weight_all_features_align 1
le_featurewise_selective_update 0
le_featurewise_pooling_type 2
le_featurewise_enable_dyn_action_fallback 1
le_featurewise_bw_acc_check_level 1
le_featurewise_acc_thresh 2
le_featurewise_enable_trace 0
le_featurewise_trace_feature_type 0
le_featurewise_trace_feature 
le_featurewise_trace_interval 0
le_featurewise_trace_record_count 0
le_featurewise_trace_file_name 
le_featurewise_enable_score_plot 0
le_featurewise_plot_actions 
le_featurewise_plot_file_name 


Heartbeat CPU  0 instructions:    1000003 cycles:     533045 heartbeat IPC: 1.87602 cumulative IPC: 1.87602 (Simulation time: 0 hr 0 min 1 sec) 
Heartbeat CPU  0 instructions:    2000002 cycles:    1093656 heartbeat IPC: 1.78377 cumulative IPC: 1.82873 (Simulation time: 0 hr 0 min 3 sec) 
Heartbeat CPU  0 instructions:    3000003 cycles:    1645171 heartbeat IPC: 1.81319 cumulative IPC: 1.82352 (Simulation time: 0 hr 0 min 4 sec) 
Heartbeat CPU  0 instructions:    4000000 cycles:    2009100 heartbeat IPC: 2.74778 cumulative IPC: 1.99094 (Simulation time: 0 hr 0 min 6 sec) 
Heartbeat CPU  0 instructions:    5000000 cycles:    2406928 heartbeat IPC: 2.51365 cumulative IPC: 2.07734 (Simulation time: 0 hr 0 min 8 sec) 
Heartbeat CPU  0 instructions:    6000000 cycles:    2938610 heartbeat IPC: 1.88082 cumulative IPC: 2.04178 (Simulation time: 0 hr 0 min 9 sec) 
Heartbeat CPU  0 instructions:    7000000 cycles:    3499068 heartbeat IPC: 1.78426 cumulative IPC: 2.00053 (Simulation time: 0 hr 0 min 11 sec) 
Heartbeat CPU  0 instructions:    8000000 cycles:    4045145 heartbeat IPC: 1.83124 cumulative IPC: 1.97768 (Simulation time: 0 hr 0 min 12 sec) 
Heartbeat CPU  0 instructions:    9000001 cycles:    4408924 heartbeat IPC: 2.74892 cumulative IPC: 2.04131 (Simulation time: 0 hr 0 min 14 sec) 
Heartbeat CPU  0 instructions:   10000003 cycles:    4805282 heartbeat IPC: 2.52298 cumulative IPC: 2.08104 (Simulation time: 0 hr 0 min 15 sec) 

Warmup complete CPU  0 instructions:   10000003 cycles:    4805282 (Simulation time: 0 hr 0 min 15 sec) 

Heartbeat CPU  0 instructions:   11000002 cycles:    6479218 heartbeat IPC: 0.59739 cumulative IPC: 0.59739 (Simulation time: 0 hr 0 min 17 sec) 
Heartbeat CPU  0 instructions:   12000000 cycles:    8081055 heartbeat IPC: 0.62428 cumulative IPC: 0.61054 (Simulation time: 0 hr 0 min 19 sec) 
Heartbeat CPU  0 instructions:   13000001 cycles:    9366499 heartbeat IPC: 0.77794 cumulative IPC: 0.65772 (Simulation time: 0 hr 0 min 21 sec) 
Heartbeat CPU  0 instructions:   14000002 cycles:    9952373 heartbeat IPC: 1.70685 cumulative IPC: 0.77714 (Simulation time: 0 hr 0 min 23 sec) 
Heartbeat CPU  0 instructions:   15000000 cycles:   10647738 heartbeat IPC: 1.43809 cumulative IPC: 0.85580 (Simulation time: 0 hr 0 min 24 sec) 
Heartbeat CPU  0 instructions:   16000000 cycles:   12326570 heartbeat IPC: 0.59565 cumulative IPC: 0.79774 (Simulation time: 0 hr 0 min 27 sec) 
Heartbeat CPU  0 instructions:   17000000 cycles:   13924331 heartbeat IPC: 0.62588 cumulative IPC: 0.76762 (Simulation time: 0 hr 0 min 29 sec) 
Heartbeat CPU  0 instructions:   18000002 cycles:   15339213 heartbeat IPC: 0.70677 cumulative IPC: 0.75945 (Simulation time: 0 hr 0 min 30 sec) 
Heartbeat CPU  0 instructions:   19000001 cycles:   15989150 heartbeat IPC: 1.53861 cumulative IPC: 0.80473 (Simulation time: 0 hr 0 min 32 sec) 
Heartbeat CPU  0 instructions:   20000000 cycles:   16543612 heartbeat IPC: 1.80355 cumulative IPC: 0.85191 (Simulation time: 0 hr 0 min 34 sec) 
Heartbeat CPU  0 instructions:   21000000 cycles:   18173094 heartbeat IPC: 0.61369 cumulative IPC: 0.82287 (Simulation time: 0 hr 0 min 36 sec) 
Heartbeat CPU  0 instructions:   22000002 cycles:   19791203 heartbeat IPC: 0.61801 cumulative IPC: 0.80075 (Simulation time: 0 hr 0 min 38 sec) 
Heartbeat CPU  0 instructions:   23000003 cycles:   21444847 heartbeat IPC: 0.60473 cumulative IPC: 0.78127 (Simulation time: 0 hr 0 min 40 sec) 
Heartbeat CPU  0 instructions:   24000000 cycles:   22281523 heartbeat IPC: 1.19520 cumulative IPC: 0.80109 (Simulation time: 0 hr 0 min 42 sec) 
Heartbeat CPU  0 instructions:   25000000 cycles:   22838324 heartbeat IPC: 1.79597 cumulative IPC: 0.83181 (Simulation time: 0 hr 0 min 43 sec) 
Heartbeat CPU  0 instructions:   26000001 cycles:   24007257 heartbeat IPC: 0.85548 cumulative IPC: 0.83325 (Simulation time: 0 hr 0 min 45 sec) 
Heartbeat CPU  0 instructions:   27000001 cycles:   25678529 heartbeat IPC: 0.59835 cumulative IPC: 0.81444 (Simulation time: 0 hr 0 min 47 sec) 
Heartbeat CPU  0 instructions:   28000000 cycles:   27378864 heartbeat IPC: 0.58812 cumulative IPC: 0.79739 (Simulation time: 0 hr 0 min 49 sec) 
Heartbeat CPU  0 instructions:   29000000 cycles:   28438442 heartbeat IPC: 0.94377 cumulative IPC: 0.80396 (Simulation time: 0 hr 0 min 51 sec) 
Heartbeat CPU  0 instructions:   30000000 cycles:   28995812 heartbeat IPC: 1.79414 cumulative IPC: 0.82677 (Simulation time: 0 hr 0 min 53 sec) 
Heartbeat CPU  0 instructions:   31000003 cycles:   29963724 heartbeat IPC: 1.03315 cumulative IPC: 0.83471 (Simulation time: 0 hr 0 min 55 sec) 
Heartbeat CPU  0 instructions:   32000000 cycles:   31643044 heartbeat IPC: 0.59548 cumulative IPC: 0.81974 (Simulation time: 0 hr 0 min 57 sec) 
Heartbeat CPU  0 instructions:   33000000 cycles:   33230402 heartbeat IPC: 0.62998 cumulative IPC: 0.80914 (Simulation time: 0 hr 0 min 59 sec) 
Heartbeat CPU  0 instructions:   34000000 cycles:   34409327 heartbeat IPC: 0.84823 cumulative IPC: 0.81070 (Simulation time: 0 hr 1 min 1 sec) 
Heartbeat CPU  0 instructions:   35000003 cycles:   34968625 heartbeat IPC: 1.78796 cumulative IPC: 0.82882 (Simulation time: 0 hr 1 min 2 sec) 
Heartbeat CPU  0 instructions:   36000000 cycles:   35875185 heartbeat IPC: 1.10307 cumulative IPC: 0.83682 (Simulation time: 0 hr 1 min 4 sec) 
Heartbeat CPU  0 instructions:   37000001 cycles:   37564835 heartbeat IPC: 0.59184 cumulative IPC: 0.82419 (Simulation time: 0 hr 1 min 6 sec) 
Heartbeat CPU  0 instructions:   38000000 cycles:   39160391 heartbeat IPC: 0.62674 cumulative IPC: 0.81502 (Simulation time: 0 hr 1 min 8 sec) 
Heartbeat CPU  0 instructions:   39000000 cycles:   40346405 heartbeat IPC: 0.84316 cumulative IPC: 0.81596 (Simulation time: 0 hr 1 min 10 sec) 
Heartbeat CPU  0 instructions:   40000000 cycles:   40904806 heartbeat IPC: 1.79083 cumulative IPC: 0.83104 (Simulation time: 0 hr 1 min 12 sec) 
Heartbeat CPU  0 instructions:   41000003 cycles:   41792937 heartbeat IPC: 1.12596 cumulative IPC: 0.83812 (Simulation time: 0 hr 1 min 14 sec) 
Heartbeat CPU  0 instructions:   42000000 cycles:   43505466 heartbeat IPC: 0.58393 cumulative IPC: 0.82687 (Simulation time: 0 hr 1 min 16 sec) 
Heartbeat CPU  0 instructions:   43000003 cycles:   45186324 heartbeat IPC: 0.59494 cumulative IPC: 0.81722 (Simulation time: 0 hr 1 min 18 sec) 
Heartbeat CPU  0 instructions:   44000000 cycles:   46281221 heartbeat IPC: 0.91333 cumulative IPC: 0.81975 (Simulation time: 0 hr 1 min 20 sec) 
Heartbeat CPU  0 instructions:   45000001 cycles:   46840281 heartbeat IPC: 1.78872 cumulative IPC: 0.83264 (Simulation time: 0 hr 1 min 21 sec) 
Heartbeat CPU  0 instructions:   46000001 cycles:   47772827 heartbeat IPC: 1.07233 cumulative IPC: 0.83784 (Simulation time: 0 hr 1 min 23 sec) 
Heartbeat CPU  0 instructions:   47000002 cycles:   49452459 heartbeat IPC: 0.59537 cumulative IPC: 0.82872 (Simulation time: 0 hr 1 min 25 sec) 
Heartbeat CPU  0 instructions:   48000000 cycles:   51119725 heartbeat IPC: 0.59978 cumulative IPC: 0.82048 (Simulation time: 0 hr 1 min 27 sec) 
Heartbeat CPU  0 instructions:   49000003 cycles:   52084881 heartbeat IPC: 1.03611 cumulative IPC: 0.82488 (Simulation time: 0 hr 1 min 29 sec) 
Heartbeat CPU  0 instructions:   50000003 cycles:   52641768 heartbeat IPC: 1.79570 cumulative IPC: 0.83618 (Simulation time: 0 hr 1 min 31 sec) 
Heartbeat CPU  0 instructions:   51000003 cycles:   53640418 heartbeat IPC: 1.00135 cumulative IPC: 0.83956 (Simulation time: 0 hr 1 min 32 sec) 
Heartbeat CPU  0 instructions:   52000000 cycles:   55354776 heartbeat IPC: 0.58331 cumulative IPC: 0.83087 (Simulation time: 0 hr 1 min 35 sec) 
Heartbeat CPU  0 instructions:   53000000 cycles:   57231107 heartbeat IPC: 0.53295 cumulative IPC: 0.82021 (Simulation time: 0 hr 1 min 37 sec) 
Heartbeat CPU  0 instructions:   54000000 cycles:   58638384 heartbeat IPC: 0.71059 cumulative IPC: 0.81734 (Simulation time: 0 hr 1 min 38 sec) 
Heartbeat CPU  0 instructions:   55000003 cycles:   59485607 heartbeat IPC: 1.18033 cumulative IPC: 0.82297 (Simulation time: 0 hr 1 min 40 sec) 
Heartbeat CPU  0 instructions:   56000000 cycles:   60062956 heartbeat IPC: 1.73205 cumulative IPC: 0.83246 (Simulation time: 0 hr 1 min 42 sec) 
Heartbeat CPU  0 instructions:   57000002 cycles:   61098794 heartbeat IPC: 0.96540 cumulative IPC: 0.83491 (Simulation time: 0 hr 1 min 44 sec) 
Heartbeat CPU  0 instructions:   58000001 cycles:   62195466 heartbeat IPC: 0.91185 cumulative IPC: 0.83638 (Simulation time: 0 hr 1 min 45 sec) 
Heartbeat CPU  0 instructions:   59000000 cycles:   62787421 heartbeat IPC: 1.68932 cumulative IPC: 0.84509 (Simulation time: 0 hr 1 min 47 sec) 
Heartbeat CPU  0 instructions:   60000000 cycles:   63429600 heartbeat IPC: 1.55720 cumulative IPC: 0.85289 (Simulation time: 0 hr 1 min 49 sec) 
Finished CPU 0 instructions: 50000000 cycles: 58624340 cumulative IPC: 0.85289 (Simulation time: 0 hr 1 min 49 sec) 

ChampSim completed all CPUs

[ROI Statistics]
Core_0_instructions 50000000
Core_0_cycles 58624340
Core_0_IPC 0.85289

Core_0_branch_prediction_accuracy 96.58255
Core_0_branch_MPKI 3.13984
Core_0_average_ROB_occupancy_at_mispredict 116.54738

Core_0_L1D_total_access 8637155
Core_0_L1D_total_hit 7651497
Core_0_L1D_total_miss 985658
Core_0_L1D_loads 7386897
Core_0_L1D_load_hit 6461701
Core_0_L1D_load_miss 925196
Core_0_L1D_RFOs 1250258
Core_0_L1D_RFO_hit 1189796
Core_0_L1D_RFO_miss 60462
Core_0_L1D_prefetches 0
Core_0_L1D_prefetch_hit 0
Core_0_L1D_prefetch_miss 0
Core_0_L1D_writebacks 0
Core_0_L1D_writeback_hit 0
Core_0_L1D_writeback_miss 0
Core_0_L1D_prefetch_requested 0
Core_0_L1D_prefetch_dropped 0
Core_0_L1D_prefetch_issued 0
Core_0_L1D_prefetch_filled 0
Core_0_L1D_prefetch_useful 0
Core_0_L1D_prefetch_useless 0
Core_0_L1D_prefetch_late 0
Core_0_L1D_average_miss_latency 46.97887

Core_0_L1D_rq_access 12675124
Core_0_L1D_rq_forward 0
Core_0_L1D_rq_merged 4813261
Core_0_L1D_rq_to_cache 7861827
Core_0_L1D_rq_full 0

Core_0_L1D_wq_access 1387050
Core_0_L1D_wq_forward 36
Core_0_L1D_wq_merged 3711
Core_0_L1D_wq_to_cache 1383339
Core_0_L1D_wq_full 219290

Core_0_L1D_pq_access 0
Core_0_L1D_pq_forward 0
Core_0_L1D_pq_merged 0
Core_0_L1D_pq_to_cache 0
Core_0_L1D_pq_full 0

Core_0_L1D_acc_epochs 58851
Core_0_L1D_acc_level_0 58851
Core_0_L1D_acc_level_1 0
Core_0_L1D_acc_level_2 0
Core_0_L1D_acc_level_3 0
Core_0_L1D_acc_level_4 0
Core_0_L1D_acc_level_5 0
Core_0_L1D_acc_level_6 0
Core_0_L1D_acc_level_7 0
Core_0_L1D_acc_level_8 0
Core_0_L1D_acc_level_9 0

Core_0_L1I_total_access 11571175
Core_0_L1I_total_hit 11570252
Core_0_L1I_total_miss 923
Core_0_L1I_loads 11571175
Core_0_L1I_load_hit 11570252
Core_0_L1I_load_miss 923
Core_0_L1I_RFOs 0
Core_0_L1I_RFO_hit 0
Core_0_L1I_RFO_miss 0
Core_0_L1I_prefetches 0
Core_0_L1I_prefetch_hit 0
Core_0_L1I_prefetch_miss 0
Core_0_L1I_writebacks 0
Core_0_L1I_writeback_hit 0
Core_0_L1I_writeback_miss 0
Core_0_L1I_prefetch_requested 0
Core_0_L1I_prefetch_dropped 0
Core_0_L1I_prefetch_issued 0
Core_0_L1I_prefetch_filled 0
Core_0_L1I_prefetch_useful 0
Core_0_L1I_prefetch_useless 0
Core_0_L1I_prefetch_late 0
Core_0_L1I_average_miss_latency 160.40412

Core_0_L1I_rq_access 49999978
Core_0_L1I_rq_forward 0
Core_0_L1I_rq_merged 38428309
Core_0_L1I_rq_to_cache 11571669
Core_0_L1I_rq_full 0

Core_0_L1I_wq_access 0
Core_0_L1I_wq_forward 0
Core_0_L1I_wq_merged 0
Core_0_L1I_wq_to_cache 0
Core_0_L1I_wq_full 0

Core_0_L1I_pq_access 0
Core_0_L1I_pq_forward 0
Core_0_L1I_pq_merged 0
Core_0_L1I_pq_to_cache 0
Core_0_L1I_pq_full 0

Core_0_L1I_acc_epochs 58851
Core_0_L1I_acc_level_0 58851
Core_0_L1I_acc_level_1 0
Core_0_L1I_acc_level_2 0
Core_0_L1I_acc_level_3 0
Core_0_L1I_acc_level_4 0
Core_0_L1I_acc_level_5 0
Core_0_L1I_acc_level_6 0
Core_0_L1I_acc_level_7 0
Core_0_L1I_acc_level_8 0
Core_0_L1I_acc_level_9 0

Core_0_L2C_total_access 3861244
Core_0_L2C_total_hit 2862306
Core_0_L2C_total_miss 998938
Core_0_L2C_loads 926119
Core_0_L2C_load_hit 735679
Core_0_L2C_load_miss 190440
Core_0_L2C_RFOs 60454
Core_0_L2C_RFO_hit 8843
Core_0_L2C_RFO_miss 51611
Core_0_L2C_prefetches 2783984
Core_0_L2C_prefetch_hit 2027266
Core_0_L2C_prefetch_miss 756718
Core_0_L2C_writebacks 90687
Core_0_L2C_writeback_hit 90518
Core_0_L2C_writeback_miss 169
Core_0_L2C_prefetch_requested 3597152
Core_0_L2C_prefetch_dropped 1524
Core_0_L2C_prefetch_issued 3595628
Core_0_L2C_prefetch_filled 925739
Core_0_L2C_prefetch_useful 619138
Core_0_L2C_prefetch_useless 305762
Core_0_L2C_prefetch_late 33717
Core_0_L2C_average_miss_latency 135.79795

Core_0_L2C_rq_access 986581
Core_0_L2C_rq_forward 0
Core_0_L2C_rq_merged 0
Core_0_L2C_rq_to_cache 986573
Core_0_L2C_rq_full 0

Core_0_L2C_wq_access 90687
Core_0_L2C_wq_forward 9
Core_0_L2C_wq_merged 0
Core_0_L2C_wq_to_cache 90687
Core_0_L2C_wq_full 0

Core_0_L2C_pq_access 3595628
Core_0_L2C_pq_forward 0
Core_0_L2C_pq_merged 62559
Core_0_L2C_pq_to_cache 3533068
Core_0_L2C_pq_full 0

Core_0_L2C_acc_epochs 58851
Core_0_L2C_acc_level_0 2488
Core_0_L2C_acc_level_1 1450
Core_0_L2C_acc_level_2 3437
Core_0_L2C_acc_level_3 6284
Core_0_L2C_acc_level_4 8701
Core_0_L2C_acc_level_5 8129
Core_0_L2C_acc_level_6 5328
Core_0_L2C_acc_level_7 3221
Core_0_L2C_acc_level_8 2309
Core_0_L2C_acc_level_9 17504

Core_0_LLC_total_access 1075857
Core_0_LLC_total_hit 418517
Core_0_LLC_total_miss 657340
Core_0_LLC_loads 156990
Core_0_LLC_load_hit 57980
Core_0_LLC_load_miss 99010
Core_0_LLC_RFOs 51606
Core_0_LLC_RFO_hit 36494
Core_0_LLC_RFO_miss 15112
Core_0_LLC_prefetches 790174
Core_0_LLC_prefetch_hit 261518
Core_0_LLC_prefetch_miss 528656
Core_0_LLC_writebacks 77087
Core_0_LLC_writeback_hit 62525
Core_0_LLC_writeback_miss 14562
Core_0_LLC_prefetch_requested 0
Core_0_LLC_prefetch_dropped 0
Core_0_LLC_prefetch_issued 0
Core_0_LLC_prefetch_filled 665236
Core_0_LLC_prefetch_useful 2157
Core_0_LLC_prefetch_useless 643303
Core_0_LLC_prefetch_late 0
Core_0_LLC_average_miss_latency 163.49500

Core_0_LLC_rq_access 208596
Core_0_LLC_rq_forward 0
Core_0_LLC_rq_merged 0
Core_0_LLC_rq_to_cache 208596
Core_0_LLC_rq_full 0

Core_0_LLC_wq_access 77087
Core_0_LLC_wq_forward 0
Core_0_LLC_wq_merged 0
Core_0_LLC_wq_to_cache 77087
Core_0_LLC_wq_full 0

Core_0_LLC_pq_access 959457
Core_0_LLC_pq_forward 0
Core_0_LLC_pq_merged 0
Core_0_LLC_pq_to_cache 959457
Core_0_LLC_pq_full 0

Core_0_LLC_acc_epochs 61943
Core_0_LLC_acc_level_0 61396
Core_0_LLC_acc_level_1 289
Core_0_LLC_acc_level_2 130
Core_0_LLC_acc_level_3 11
Core_0_LLC_acc_level_4 6
Core_0_LLC_acc_level_5 74
Core_0_LLC_acc_level_6 5
Core_0_LLC_acc_level_7 2
Core_0_LLC_acc_level_8 4
Core_0_LLC_acc_level_9 26

Core_0_major_page_fault 0
Core_0_minor_page_fault 3924

scooby_st_lookup 1118047
scooby_st_hit 1060690
scooby_st_evict 57293
scooby_st_insert 57357
scooby_st_streaming 0

scooby_predict_called 1118047
scooby_predict_out_of_bounds 40341
scooby_predict_action_1 713754
scooby_predict_issue_action_1 697535
scooby_predict_hit_action_1 16219
scooby_predict_out_of_bounds_action_1 11568
scooby_predict_action_3 215407
scooby_predict_issue_action_3 200813
scooby_predict_hit_action_3 14594
scooby_predict_out_of_bounds_action_3 10899
scooby_predict_action_4 5230
scooby_predict_issue_action_4 4607
scooby_predict_hit_action_4 623
scooby_predict_out_of_bounds_action_4 331
scooby_predict_action_5 26049
scooby_predict_issue_action_5 24501
scooby_predict_hit_action_5 1548
scooby_predict_out_of_bounds_action_5 1962
scooby_predict_action_10 45058
scooby_predict_issue_action_10 42971
scooby_predict_hit_action_10 2087
scooby_predict_out_of_bounds_action_10 7681
scooby_predict_action_11 4225
scooby_predict_issue_action_11 3779
scooby_predict_hit_action_11 446
scooby_predict_out_of_bounds_action_11 701
scooby_predict_action_12 3742
scooby_predict_issue_action_12 3241
scooby_predict_hit_action_12 501
scooby_predict_out_of_bounds_action_12 738
scooby_predict_action_22 2791
scooby_predict_issue_action_22 2426
scooby_predict_hit_action_22 365
scooby_predict_out_of_bounds_action_22 1161
scooby_predict_action_23 2688
scooby_predict_issue_action_23 2343
scooby_predict_hit_action_23 345
scooby_predict_out_of_bounds_action_23 1206
scooby_predict_action_30 1967
scooby_predict_issue_action_30 1689
scooby_predict_hit_action_30 278
scooby_predict_out_of_bounds_action_30 1440
scooby_predict_action_32 1783
scooby_predict_issue_action_32 1547
scooby_predict_hit_action_32 236
scooby_predict_out_of_bounds_action_32 1508
scooby_predict_action_-1 28281
scooby_predict_issue_action_-1 25582
scooby_predict_hit_action_-1 2699
scooby_predict_out_of_bounds_action_-1 481
scooby_predict_action_-3 5544
scooby_predict_issue_action_-3 4905
scooby_predict_hit_action_-3 639
scooby_predict_out_of_bounds_action_-3 222
scooby_predict_action_-6 4935
scooby_predict_issue_action_-6 4383
scooby_predict_hit_action_-6 552
scooby_predict_out_of_bounds_action_-6 443
scooby_predict_action_0 16252
scooby_predict_issue_action_0 0
scooby_predict_hit_action_0 0
scooby_predict_out_of_bounds_action_0 0
scooby_predict_multi_deg_called 714881
scooby_predict_predicted 3597152
scooby_predict_multi_deg 2576830
scooby_predict_multi_deg_2 690814
scooby_predict_multi_deg_3 577611
scooby_predict_multi_deg_4 555105
scooby_predict_multi_deg_5 384230
scooby_predict_multi_deg_6 369070
scooby_predict_multi_deg_7 0
scooby_predict_multi_deg_8 0
scooby_predict_multi_deg_9 0
scooby_predict_multi_deg_10 0
scooby_predict_multi_deg_11 0
scooby_predict_multi_deg_12 0
scooby_predict_multi_deg_13 0
scooby_predict_multi_deg_14 0
scooby_predict_multi_deg_15 0
scooby_predict_multi_deg_16 0

scooby_selected_deg_1 305441
scooby_selected_deg_2 91759
scooby_selected_deg_3 0
scooby_selected_deg_4 160195
scooby_selected_deg_5 0
scooby_selected_deg_6 462927
scooby_selected_deg_7 0
scooby_selected_deg_8 0
scooby_selected_deg_9 0
scooby_selected_deg_10 0
scooby_selected_deg_11 0
scooby_selected_deg_12 0
scooby_selected_deg_13 0
scooby_selected_deg_14 0
scooby_selected_deg_15 0
scooby_selected_deg_16 0

scooby_state_407cae|0|0 1884,0,0,0,0,1,0,0,0,0,0,0,0,0,0,1885,
scooby_state_407cb3|0|0 1880,1,0,0,0,1,0,0,0,1,1,0,1,0,0,1885,
scooby_state_4268ce|30|1 0,1871,0,0,0,0,0,0,0,0,0,0,0,0,1,1872,
scooby_state_4268ce|53|1 0,1872,0,0,0,0,0,0,0,0,0,0,0,0,0,1872,
scooby_state_4268ce|21|1 0,1866,1,0,1,0,0,1,0,0,1,0,0,2,0,1872,
scooby_state_4268ce|62|1 0,1869,1,2,0,0,0,0,0,0,0,0,0,0,0,1872,
scooby_state_4268ce|54|1 1,1862,0,0,0,0,1,1,2,0,0,0,0,1,0,1868,
scooby_state_4268ce|31|1 0,1862,1,0,1,0,0,0,1,0,0,0,2,1,0,1868,
scooby_state_4268ce|19|1 1,1863,0,1,0,0,0,0,0,1,0,0,0,0,2,1868,
scooby_state_4268ce|63|1 0,1863,0,0,0,1,0,0,0,2,1,0,0,1,0,1868,
scooby_state_4268ce|44|1 0,1868,0,0,0,0,0,0,0,0,0,0,0,0,0,1868,
scooby_state_4268ce|35|1 0,1865,0,0,0,0,0,0,0,0,0,1,0,0,2,1868,
scooby_state_4268ce|22|1 0,1864,0,1,0,0,0,0,1,2,0,0,0,0,0,1868,
scooby_state_4268ce|37|1 0,1862,1,0,0,0,0,2,2,0,0,0,0,1,0,1868,
scooby_state_4268ce|5|1 0,1866,0,0,0,0,0,0,0,0,0,1,0,0,1,1868,
scooby_state_4268ce|3|1 0,1865,1,0,0,0,1,1,0,0,0,0,0,0,0,1868,
scooby_state_4268ce|51|1 1,1861,1,0,1,1,0,1,0,1,0,0,1,0,0,1868,
scooby_state_4268ce|50|1 0,1859,0,1,0,1,0,0,0,0,1,0,0,1,1,1864,
scooby_state_4268ce|60|1 0,1862,1,0,0,0,1,0,0,0,0,0,0,0,0,1864,
scooby_state_4268ce|0|0 1,1861,0,0,0,0,0,0,0,0,0,0,1,0,1,1864,
scooby_state_4268ce|38|1 0,1863,0,0,1,0,0,0,0,0,0,0,0,0,0,1864,
scooby_state_4268ce|1|1 0,1860,0,1,0,0,0,0,0,0,2,0,0,1,0,1864,
scooby_state_4268ce|14|1 1,1862,0,0,0,0,0,0,0,1,0,0,0,0,0,1864,
scooby_state_4268ce|43|1 0,1861,0,0,0,0,2,0,0,1,0,0,0,0,0,1864,
scooby_state_4268ce|33|1 0,1858,0,1,0,0,0,1,1,0,0,0,3,0,0,1864,
scooby_state_4268ce|32|1 0,1862,1,0,0,0,0,0,1,0,0,0,0,0,0,1864,
scooby_state_4268ce|4|1 0,1860,0,0,0,0,0,1,0,0,1,0,0,2,0,1864,
scooby_state_4268ce|59|1 1,1857,0,0,1,1,1,2,0,0,0,0,1,0,0,1864,
scooby_state_4268ce|49|1 0,1862,1,0,0,0,0,0,0,0,0,0,1,0,0,1864,
scooby_state_4268ce|46|1 0,1860,0,0,0,0,1,1,0,0,0,1,0,0,1,1864,
scooby_state_4268ce|52|1 0,1861,2,0,0,0,1,0,0,0,0,0,0,0,0,1864,
scooby_state_4268ce|17|1 1,1859,0,0,0,0,0,0,1,0,0,0,0,1,2,1864,
scooby_state_4268ce|55|1 0,1862,0,0,0,0,0,0,1,1,0,0,0,0,0,1864,
scooby_state_4268ce|28|1 0,1861,1,1,0,0,0,0,0,0,0,0,0,1,0,1864,
scooby_state_4268ce|36|1 0,1862,0,0,1,0,0,1,0,0,0,0,0,0,0,1864,
scooby_state_4268ce|18|1 1,1860,0,0,0,0,0,1,0,0,1,0,1,0,0,1864,
scooby_state_4268ce|20|1 0,1859,1,1,0,0,1,0,0,1,0,0,0,1,0,1864,
scooby_state_4268ce|23|1 0,1861,1,0,1,1,0,0,0,0,0,0,0,0,0,1864,
scooby_state_4268ce|27|1 2,1858,0,1,0,0,0,0,1,0,1,0,0,1,0,1864,
scooby_state_4268ce|42|1 0,1864,0,0,0,0,0,0,0,0,0,0,0,0,0,1864,
scooby_state_4268ce|6|1 0,1862,0,0,0,0,0,0,0,0,0,1,0,0,1,1864,
scooby_state_4268ce|57|1 0,1857,1,0,0,1,0,0,0,0,0,0,0,1,0,1860,
scooby_state_4268ce|45|1 0,1854,2,0,0,0,0,0,2,1,0,0,0,1,0,1860,
scooby_state_4268ce|56|1 0,1857,0,1,0,1,0,0,0,0,0,1,0,0,0,1860,
scooby_state_4268ce|47|1 0,1860,0,0,0,0,0,0,0,0,0,0,0,0,0,1860,
scooby_state_4268ce|39|1 0,1859,0,0,0,0,0,1,0,0,0,0,0,0,0,1860,
scooby_state_4268ce|34|1 0,1857,0,0,0,0,0,0,1,1,0,0,0,0,1,1860,
scooby_state_4268ce|41|1 1,1858,1,0,0,0,0,0,0,0,0,0,0,0,0,1860,
scooby_state_4268ce|2|1 0,1859,0,0,0,0,1,0,0,0,0,0,0,0,0,1860,
scooby_state_4268ce|26|1 0,1857,0,0,2,0,0,0,0,0,0,0,1,0,0,1860,
scooby_state_4268ce|24|1 1,1856,0,0,1,0,0,1,1,0,0,0,0,0,0,1860,
scooby_state_4268ce|40|1 0,1857,0,2,0,0,0,0,0,0,1,0,0,0,0,1860,
scooby_state_4268ce|7|1 0,1855,0,1,1,1,0,1,0,0,0,1,0,0,0,1860,
scooby_state_4268ce|25|1 0,1855,0,1,0,0,2,1,0,0,0,0,0,0,1,1860,
scooby_state_4268ce|58|1 0,1857,0,1,1,0,0,0,0,1,0,0,0,0,0,1860,
scooby_state_4268ce|15|1 1,1853,0,1,0,1,1,1,0,0,0,2,0,0,0,1860,
scooby_state_4268ce|9|1 1,1854,0,0,0,1,0,1,0,0,1,0,0,0,2,1860,
scooby_state_4268ce|8|1 1,1858,0,0,0,0,1,0,0,0,0,0,0,0,0,1860,
scooby_state_4268ce|29|1 0,1855,0,0,0,0,1,0,0,0,0,0,0,0,0,1856,
scooby_state_4268ce|48|1 0,1852,0,2,0,0,0,0,0,0,1,0,1,0,0,1856,
scooby_state_4268ce|61|1 1,1850,1,0,1,0,1,1,0,0,1,0,0,0,0,1856,
scooby_state_4268ce|16|1 0,1853,0,1,0,0,0,0,0,0,0,0,0,1,1,1856,
scooby_state_4268ce|10|1 0,1848,1,0,0,0,0,0,1,0,0,0,1,1,0,1852,
scooby_state_4268ce|13|1 0,1848,0,0,0,0,0,0,0,0,0,0,0,0,0,1848,
scooby_state_4268ce|12|1 0,1842,0,0,1,1,0,0,0,0,0,0,0,0,0,1844,
scooby_state_4268ce|11|1 0,1840,0,0,0,0,0,0,0,0,0,0,0,0,0,1840,
scooby_state_4268f9|51|1 1727,0,0,0,0,0,0,0,0,0,1,0,0,0,0,1728,
scooby_state_4268f9|19|1 1726,1,0,0,1,0,0,0,0,0,0,0,0,0,0,1728,
scooby_state_4268f9|36|1 1721,0,0,0,0,0,0,1,0,1,0,1,0,0,0,1724,
scooby_state_4268f9|2|1 1719,0,0,1,0,0,0,1,1,1,0,1,0,0,0,1724,
scooby_state_4268f9|35|1 1722,0,0,0,0,0,1,0,1,0,0,0,0,0,0,1724,
scooby_state_4268f9|21|1 1719,0,1,1,0,1,0,2,0,0,0,0,0,0,0,1724,
scooby_state_4268f9|3|1 1721,0,0,0,0,0,0,1,1,0,0,0,0,1,0,1724,
scooby_state_4268f9|34|1 1723,0,0,0,0,0,0,0,0,0,0,0,0,1,0,1724,
scooby_state_4268f9|4|1 1721,0,0,0,1,1,0,0,0,1,0,0,0,0,0,1724,
scooby_state_4268f9|5|1 1720,0,0,1,0,1,0,0,0,0,2,0,0,0,0,1724,
scooby_state_4268f9|7|1 1722,0,0,0,0,0,0,0,0,0,0,0,0,2,0,1724,
scooby_state_4268f9|57|1 1723,0,0,0,0,0,0,0,0,1,0,0,0,0,0,1724,
scooby_state_4268f9|39|1 1724,0,0,0,0,0,0,0,0,0,0,0,0,0,0,1724,
scooby_state_4268f9|25|1 1720,1,0,0,1,1,0,0,0,0,0,1,0,0,0,1724,
scooby_state_4268f9|23|1 1721,0,0,0,1,0,1,0,0,0,0,1,0,0,0,1724,
scooby_state_4268f9|55|1 1721,1,0,0,0,0,0,0,1,0,0,1,0,0,0,1724,
scooby_state_4268f9|11|1 1721,0,0,0,0,0,0,0,1,1,0,0,0,0,1,1724,
scooby_state_4268f9|53|1 1721,0,0,0,1,2,0,0,0,0,0,0,0,0,0,1724,
scooby_state_4268f9|37|1 1723,0,0,0,0,0,0,0,0,0,0,1,0,0,0,1724,
scooby_state_4268f9|43|1 1722,0,0,0,0,0,0,0,0,0,2,0,0,0,0,1724,
scooby_state_4268f9|60|1 1718,0,0,1,0,0,0,0,0,0,0,0,0,1,0,1720,
scooby_state_4268f9|13|1 1719,0,0,0,0,1,0,0,0,0,0,0,0,0,0,1720,
scooby_state_4268f9|54|1 1716,0,0,1,0,1,1,0,0,0,0,0,0,1,0,1720,
scooby_state_4268f9|28|1 1720,0,0,0,0,0,0,0,0,0,0,0,0,0,0,1720,
scooby_state_4268f9|44|1 1717,0,0,0,0,0,1,0,1,0,0,0,0,1,0,1720,
scooby_state_4268f9|45|1 1717,0,0,0,0,0,0,0,2,0,0,0,1,0,0,1720,
scooby_state_4268f9|12|1 1715,1,0,1,1,0,0,0,1,0,0,0,0,0,1,1720,
scooby_state_4268f9|24|1 1717,0,1,0,0,1,0,0,0,0,0,0,1,0,0,1720,
scooby_state_4268f9|56|1 1717,0,0,2,0,0,0,0,0,0,0,1,0,0,0,1720,
scooby_state_4268f9|22|1 1715,0,0,0,2,1,0,0,0,1,0,0,0,0,1,1720,
scooby_state_4268f9|52|1 1711,0,1,0,0,0,1,0,0,0,1,1,1,0,0,1716,
scooby_state_4268f9|26|1 1712,0,0,0,0,1,0,0,0,1,0,0,1,0,1,1716,
scooby_state_4268f9|40|1 1713,0,0,0,0,0,1,0,1,1,0,0,0,0,0,1716,
scooby_state_4268f9|15|1 1713,0,1,0,0,0,0,0,1,1,0,0,0,0,0,1716,
scooby_state_4268f9|18|1 1714,0,0,1,0,0,0,0,0,0,0,0,0,0,1,1716,
scooby_state_4268f9|17|1 1715,0,0,0,0,0,0,0,0,0,0,0,0,1,0,1716,
scooby_state_4268f9|14|1 1712,1,1,0,0,0,0,0,1,0,1,0,0,0,0,1716,
scooby_state_4268f9|42|1 1709,0,0,2,0,0,0,0,1,0,0,0,1,2,1,1716,
scooby_state_4268f9|41|1 1712,0,0,0,0,0,0,2,0,0,0,1,0,0,1,1716,
scooby_state_4268f9|20|1 1713,1,0,0,0,0,0,0,2,0,0,0,0,0,0,1716,
scooby_state_4268f9|49|1 1713,0,0,0,0,0,1,2,0,0,0,0,0,0,0,1716,
scooby_state_4268f9|10|1 1713,0,1,0,0,1,0,1,0,0,0,0,0,0,0,1716,
scooby_state_4268f9|47|1 1713,0,0,0,1,0,1,0,0,0,0,0,0,0,1,1716,
scooby_state_4268f9|33|1 1713,0,1,0,0,1,0,0,0,0,0,0,0,0,1,1716,
scooby_state_4268f9|16|1 1714,0,0,0,0,0,0,0,0,1,1,0,0,0,0,1716,
scooby_state_4268f9|9|1 1714,0,1,0,0,0,0,0,0,0,1,0,0,0,0,1716,
scooby_state_4268f9|8|1 1714,0,0,0,0,0,1,1,0,0,0,0,0,0,0,1716,
scooby_state_4268f9|29|1 1710,0,1,1,1,1,0,0,2,0,0,0,0,0,0,1716,
scooby_state_4268f9|46|1 1714,0,0,0,0,0,0,0,0,0,0,1,0,1,0,1716,
scooby_state_4268f9|32|1 1715,0,0,0,0,0,0,0,0,0,0,0,1,0,0,1716,
scooby_state_4268f9|58|1 1714,0,0,0,0,0,0,0,0,0,0,0,1,0,1,1716,
scooby_state_4268f9|61|1 1714,0,0,0,0,1,0,0,0,0,1,0,0,0,0,1716,
scooby_state_4268f9|50|1 1710,1,0,0,1,1,0,1,1,0,0,0,0,1,0,1716,
scooby_state_4268f9|0|0 1711,0,2,0,2,0,0,0,0,0,0,0,0,0,1,1716,
scooby_state_4268f9|48|1 1714,0,0,0,0,0,0,1,0,0,0,0,0,1,0,1716,
scooby_state_4268f9|59|1 1709,0,0,0,1,0,0,0,0,2,0,0,0,0,0,1712,
scooby_state_4268f9|6|1 1712,0,0,0,0,0,0,0,0,0,0,0,0,0,0,1712,
scooby_state_4268f9|30|1 1711,0,0,0,0,0,0,0,0,0,0,1,0,0,0,1712,
scooby_state_4268f9|62|1 1710,0,0,0,0,0,0,0,0,1,0,0,0,0,1,1712,
scooby_state_4268f9|1|1 1709,0,0,1,0,0,0,1,0,0,1,0,0,0,0,1712,
scooby_state_4268f9|27|1 1708,0,0,0,1,0,0,1,0,0,0,0,1,0,1,1712,
scooby_state_4268f9|38|1 1710,0,0,0,0,0,0,0,1,1,0,0,0,0,0,1712,
scooby_state_4268f9|63|1 1706,1,0,0,1,0,0,0,0,0,0,0,0,0,0,1708,
scooby_state_4268f9|31|1 1705,1,0,0,0,0,0,0,0,0,0,0,0,1,1,1708,
scooby_state_407cae|6|1 1516,1,1,0,0,0,0,1,0,0,0,0,0,0,0,1519,
scooby_state_407cb3|6|1 1519,0,0,0,0,0,0,0,0,0,0,0,0,0,0,1519,
scooby_state_407cae|7|1 1459,0,0,0,0,0,0,0,0,1,0,0,0,0,0,1460,
scooby_state_407cb3|7|1 1457,0,0,0,0,0,0,0,0,1,0,0,0,0,0,1458,
scooby_state_407cae|23|1 1445,0,0,1,0,0,0,1,0,0,1,0,0,0,0,1448,
scooby_state_407cb3|23|1 1448,0,0,0,0,0,0,0,0,0,0,0,0,0,0,1448,
scooby_state_407cae|5|1 1416,1,0,0,0,0,0,0,0,1,0,0,0,0,2,1420,
scooby_state_407cb3|5|1 1419,0,0,0,0,0,0,0,0,0,1,0,0,0,0,1420,
scooby_state_407cae|4|1 1395,0,0,0,0,0,0,0,0,0,1,0,0,0,0,1396,
scooby_state_407cb3|4|1 1395,0,0,0,0,0,0,0,0,0,0,0,0,0,1,1396,
scooby_state_407cae|63|1 1358,0,0,1,0,0,0,0,0,0,0,0,0,0,0,1359,
scooby_state_407cb3|63|1 1358,0,0,0,0,0,0,0,0,1,0,0,0,0,0,1359,
scooby_state_407cae|8|1 1348,0,0,0,0,0,0,0,0,0,1,0,0,2,0,1351,
scooby_state_407cae|1|1 1347,0,0,0,0,0,0,0,1,0,1,0,0,0,0,1349,
scooby_state_407cb3|1|1 1348,0,0,0,0,0,0,0,0,0,1,0,0,0,0,1349,
scooby_state_407cb3|8|1 1347,0,0,0,0,0,0,0,1,0,0,0,0,1,0,1349,
scooby_state_407cae|9|1 1340,1,1,0,1,0,0,1,0,0,1,1,1,0,0,1347,
scooby_state_407cb3|9|1 1345,0,0,0,0,0,0,0,0,1,0,1,0,0,0,1347,
scooby_state_407cb3|17|1 1343,0,0,0,0,0,0,0,0,1,0,0,0,1,1,1346,
scooby_state_407cae|17|1 1342,0,1,0,0,1,0,1,0,0,0,1,0,0,0,1346,
scooby_state_407cb3|18|1 1332,0,1,1,1,0,0,0,0,0,0,0,1,0,0,1336,
scooby_state_407cae|18|1 1335,0,1,0,0,0,0,0,0,0,0,0,0,0,0,1336,
scooby_state_407cae|22|1 1327,0,0,0,0,0,1,0,1,0,0,0,0,0,0,1329,
scooby_state_407cb3|22|1 1325,0,1,0,0,0,0,0,0,0,1,1,0,1,0,1329,
scooby_state_407cb3|31|1 1324,0,0,0,2,0,0,1,0,0,0,0,0,0,0,1327,
scooby_state_407cae|31|1 1326,0,1,0,0,0,0,0,0,0,0,0,0,0,0,1327,
scooby_state_407cae|3|1 1323,0,0,0,0,0,1,0,0,0,0,0,0,0,0,1324,
scooby_state_407cb3|3|1 1318,1,0,1,1,0,0,0,0,0,0,0,1,0,0,1322,
scooby_state_407cae|24|1 1317,1,1,1,0,0,0,1,0,0,0,0,0,0,0,1321,
scooby_state_407cb3|24|1 1319,0,0,0,0,0,0,0,0,0,0,0,1,1,0,1321,
scooby_state_407cae|2|1 1304,0,0,0,0,0,0,0,0,0,0,1,0,1,0,1306,
scooby_state_407cb3|2|1 1304,0,0,0,0,0,0,0,0,0,0,0,0,0,0,1304,
scooby_state_407cb3|38|1 1296,0,1,1,0,0,0,0,0,0,0,0,0,0,0,1298,
scooby_state_407cae|38|1 1290,2,1,1,0,0,0,2,1,0,0,0,0,0,1,1298,
scooby_state_407cb3|48|1 1293,0,0,0,0,0,0,0,0,0,0,0,1,0,0,1294,
scooby_state_407cae|48|1 1294,0,0,0,0,0,0,0,0,0,0,0,0,0,0,1294,
scooby_state_407cb3|26|1 1289,0,0,0,0,0,0,0,0,0,0,0,1,0,0,1290,
scooby_state_407cae|26|1 1288,0,0,0,0,0,0,0,0,1,0,0,1,0,0,1290,
scooby_state_407cae|60|1 1279,0,1,0,0,0,0,0,0,0,1,0,0,1,0,1282,
scooby_state_407cb3|60|1 1276,0,0,0,0,0,0,1,2,0,1,1,1,0,0,1282,
scooby_state_407cb3|37|1 1276,1,1,0,0,0,0,0,1,0,0,0,0,1,0,1280,
scooby_state_407cae|37|1 1277,1,1,0,0,0,0,0,1,0,0,0,0,0,0,1280,
scooby_state_407cae|47|1 1280,0,0,0,0,0,0,0,0,0,0,0,0,0,0,1280,
scooby_state_407cb3|47|1 1277,1,0,0,0,0,0,0,0,1,0,0,0,1,0,1280,
scooby_state_407cb3|12|1 1270,0,0,0,0,2,0,1,0,0,0,0,0,0,0,1273,
scooby_state_407cae|12|1 1268,1,0,1,0,0,0,1,0,0,0,0,0,1,1,1273,
scooby_state_407cae|28|1 1262,0,0,0,1,0,0,0,0,0,0,2,0,1,0,1266,
scooby_state_407cb3|28|1 1262,1,0,0,0,0,0,1,0,0,0,0,1,0,0,1265,
scooby_state_407cb3|25|1 1263,0,0,0,0,0,0,0,0,0,0,0,0,0,0,1263,
scooby_state_407cae|25|1 1261,0,0,0,0,1,0,0,0,0,1,0,0,0,0,1263,
scooby_state_407cb3|32|1 1257,0,0,1,0,0,1,0,0,0,0,0,0,0,0,1259,
scooby_state_407cae|32|1 1259,0,0,0,0,0,0,0,0,0,0,0,0,0,0,1259,
scooby_state_407cae|62|1 1255,0,0,0,0,0,0,1,1,0,0,0,1,0,0,1258,
scooby_state_407cb3|62|1 1255,0,1,0,1,1,0,0,0,0,0,0,0,0,0,1258,
scooby_state_407cae|33|1 1257,0,0,0,0,0,0,0,0,0,0,0,0,0,1,1258,
scooby_state_407cb3|33|1 1256,1,0,0,0,0,1,0,0,0,0,0,0,0,0,1258,
scooby_state_407cae|10|1 1251,1,0,0,0,0,0,0,0,1,0,0,0,1,0,1254,
scooby_state_407cb3|10|1 1250,0,1,0,0,0,0,0,1,0,0,0,1,0,0,1253,
scooby_state_407cb3|35|1 1244,0,0,0,0,0,0,0,0,0,0,0,0,0,1,1245,
scooby_state_407cae|35|1 1245,0,0,0,0,0,0,0,0,0,0,0,0,0,0,1245,
scooby_state_407cae|59|1 1238,0,0,0,0,0,0,0,0,1,0,0,0,0,0,1239,
scooby_state_407cb3|59|1 1239,0,0,0,0,0,0,0,0,0,0,0,0,0,0,1239,
scooby_state_407cb3|61|1 1234,0,0,1,0,0,0,0,0,0,0,0,0,0,0,1235,
scooby_state_407cae|61|1 1233,0,0,0,0,0,0,0,0,1,1,0,0,0,0,1235,
scooby_state_407cb3|42|1 1231,0,0,0,1,0,0,0,0,0,0,2,0,0,0,1234,
scooby_state_407cae|42|1 1234,0,0,0,0,0,0,0,0,0,0,0,0,0,0,1234,
scooby_state_407cae|16|1 1231,0,1,0,0,0,0,0,0,0,0,0,0,0,0,1232,
scooby_state_407cae|30|1 1230,0,0,0,1,0,0,0,0,0,0,0,0,0,0,1231,
scooby_state_407cb3|30|1 1230,0,0,0,0,0,0,0,0,0,0,0,0,0,1,1231,
scooby_state_407cb3|16|1 1227,0,0,0,0,1,0,0,0,1,1,0,0,1,0,1231,
scooby_state_407cae|11|1 1224,0,0,1,0,0,0,1,0,0,0,0,0,0,0,1226,
scooby_state_407cb3|11|1 1224,0,0,0,0,1,0,0,0,0,0,0,0,0,0,1225,
scooby_state_407cb3|55|1 1223,0,0,0,0,0,0,0,0,0,0,0,0,0,0,1223,
scooby_state_407cae|55|1 1222,0,0,0,0,0,0,0,0,1,0,0,0,0,0,1223,
scooby_state_407cb3|57|1 1222,0,0,0,0,0,1,0,0,0,0,0,0,0,0,1223,
scooby_state_407cae|57|1 1220,0,0,1,1,0,0,1,0,0,0,0,0,0,0,1223,
scooby_state_407cae|13|1 1212,0,0,0,0,0,0,1,0,0,0,0,0,0,0,1213,
scooby_state_407cb3|13|1 1212,0,0,1,0,0,0,0,0,0,0,0,0,0,0,1213,
scooby_state_407cb3|41|1 1210,0,0,0,0,1,1,0,0,0,0,0,0,0,0,1212,
scooby_state_407cae|41|1 1209,0,0,0,0,0,0,0,0,0,0,1,2,0,0,1212,
scooby_state_407cae|36|1 1202,0,0,0,0,0,0,0,0,0,0,0,0,0,0,1202,
scooby_state_407cb3|36|1 1198,0,0,0,0,0,0,1,1,0,0,2,0,0,0,1202,
scooby_state_407cae|27|1 1198,0,0,0,0,0,0,0,0,0,0,1,0,0,1,1200,
scooby_state_407cb3|27|1 1196,0,1,0,0,1,0,0,0,0,1,0,0,0,0,1199,
scooby_state_407cae|43|1 1194,2,0,0,0,0,1,1,0,0,0,0,0,0,0,1198,
scooby_state_407cb3|43|1 1195,0,0,1,0,1,0,0,1,0,0,0,0,0,0,1198,
scooby_state_407cae|52|1 1193,0,0,0,1,0,0,0,0,0,0,0,0,1,0,1195,
scooby_state_407cb3|52|1 1193,0,0,1,0,0,0,0,0,0,0,0,0,0,0,1194,
scooby_state_407cae|21|1 1190,0,0,1,0,0,0,0,0,0,0,0,0,0,1,1192,
scooby_state_407cb3|21|1 1192,0,0,0,0,0,0,0,0,0,0,0,0,0,0,1192,
scooby_state_407cae|49|1 1188,0,0,0,1,0,0,0,0,0,0,0,1,0,1,1191,
scooby_state_407cb3|49|1 1189,0,1,0,0,0,0,0,0,0,0,0,0,1,0,1191,
scooby_state_407cb3|51|1 1183,0,0,0,0,1,0,0,0,1,0,0,0,0,0,1185,
scooby_state_407cae|51|1 1180,0,0,0,0,0,0,0,0,1,2,0,2,0,0,1185,
scooby_state_407cb3|56|1 1181,0,0,1,0,0,1,0,0,0,0,0,0,0,0,1183,
scooby_state_407cae|56|1 1181,0,0,0,1,0,0,1,0,0,0,0,0,0,0,1183,
scooby_state_407cae|58|1 1176,0,0,0,0,0,0,0,0,0,0,0,0,0,1,1177,
scooby_state_407cb3|58|1 1175,1,0,0,0,0,0,0,0,0,0,0,1,0,0,1177,
scooby_state_407cae|46|1 1174,0,0,0,0,0,1,0,0,0,0,0,0,0,0,1175,
scooby_state_407cb3|46|1 1174,0,0,0,0,0,0,0,0,0,0,1,0,0,0,1175,
scooby_state_407cae|20|1 1166,2,1,0,0,0,0,0,0,0,0,0,0,0,2,1171,
scooby_state_407cb3|20|1 1167,0,0,2,0,1,0,1,0,0,0,0,0,0,0,1171,
scooby_state_407cae|34|1 1167,0,0,1,0,0,0,1,0,0,0,0,0,0,0,1169,
scooby_state_407cb3|34|1 1165,0,0,0,1,0,0,0,0,0,3,0,0,0,0,1169,
scooby_state_407cae|15|1 1163,0,0,0,0,0,0,0,1,0,0,0,0,0,0,1164,
scooby_state_407cb3|15|1 1160,0,0,0,0,0,0,0,0,1,1,0,1,0,0,1163,
scooby_state_407cb3|39|1 1155,0,0,0,0,0,0,2,0,0,0,0,0,0,0,1157,
scooby_state_407cae|39|1 1156,0,0,0,0,0,0,0,1,0,0,0,0,0,0,1157,
scooby_state_407cb3|44|1 1153,0,0,0,0,0,0,0,1,0,0,0,0,0,0,1154,
scooby_state_407cae|44|1 1153,0,0,0,0,0,0,0,0,0,1,0,0,0,0,1154,
scooby_state_407cb3|29|1 1145,0,0,0,0,0,0,0,0,0,0,0,1,0,0,1146,
scooby_state_407cae|29|1 1145,0,0,0,0,0,0,0,0,0,1,0,0,0,0,1146,
scooby_state_407cae|19|1 1132,0,0,0,0,0,0,0,0,0,0,0,0,1,0,1133,
scooby_state_407cb3|19|1 1131,0,0,0,0,1,0,0,0,0,0,0,0,0,1,1133,
scooby_state_407cb3|45|1 1126,0,0,0,0,1,0,0,0,0,0,0,2,0,0,1129,
scooby_state_407cae|45|1 1128,0,0,1,0,0,0,0,0,0,0,0,0,0,0,1129,
scooby_state_407cb3|54|1 1108,0,0,0,0,0,0,0,0,0,0,0,0,1,0,1109,
scooby_state_407cae|54|1 1104,0,0,0,0,0,2,0,0,1,0,0,0,2,0,1109,
scooby_state_407cb3|50|1 1102,1,0,0,0,0,0,0,0,0,0,0,0,1,0,1104,
scooby_state_407cae|50|1 1104,0,0,0,0,0,0,0,0,0,0,0,0,0,0,1104,
scooby_state_407cae|14|1 1102,0,0,0,0,0,0,0,0,0,0,0,0,0,0,1102,
scooby_state_407cb3|14|1 1100,0,0,1,0,0,0,1,0,0,0,0,0,0,0,1102,
scooby_state_407cae|40|1 1093,0,0,0,0,0,0,0,0,0,0,0,0,0,0,1093,
scooby_state_407cb3|40|1 1093,0,0,0,0,0,0,0,0,0,0,0,0,0,0,1093,
scooby_state_407cae|53|1 1063,0,1,0,1,0,0,0,0,0,0,0,0,0,0,1065,
scooby_state_407cb3|53|1 1057,1,0,0,2,1,0,0,0,0,1,0,1,0,1,1064,
scooby_state_407cb3|2|0 413,0,0,0,0,0,0,0,0,0,0,0,0,0,0,413,
scooby_state_407cae|2|0 411,0,0,0,0,0,0,0,0,0,0,0,0,0,0,411,
scooby_state_407cae|1|0 391,0,0,0,0,0,0,0,0,0,0,0,0,0,0,391,
scooby_state_407cb3|1|0 389,0,0,0,0,0,0,0,0,0,0,0,0,0,0,389,
scooby_state_41df40|31|1 383,0,0,0,1,0,0,0,0,0,0,0,0,0,0,384,
scooby_state_41df40|47|1 382,1,0,1,0,0,0,0,0,0,0,0,0,0,0,384,
scooby_state_41df40|21|1 383,0,1,0,0,0,0,0,0,0,0,0,0,0,0,384,
scooby_state_41df40|45|1 384,0,0,0,0,0,0,0,0,0,0,0,0,0,0,384,
scooby_state_41df40|39|1 383,0,0,0,0,0,1,0,0,0,0,0,0,0,0,384,
scooby_state_41df40|37|1 383,0,0,0,0,0,0,0,1,0,0,0,0,0,0,384,
scooby_state_41df40|36|1 381,0,0,0,1,1,0,1,0,0,0,0,0,0,0,384,
scooby_state_41df40|35|1 383,0,0,0,0,0,0,0,0,0,0,0,0,1,0,384,
scooby_state_41df40|34|1 383,0,0,0,0,0,0,0,0,0,1,0,0,0,0,384,
scooby_state_41df40|33|1 383,0,0,0,0,0,0,0,0,0,0,1,0,0,0,384,
scooby_state_41df40|32|1 383,0,0,0,0,0,0,1,0,0,0,0,0,0,0,384,
scooby_state_41df40|5|1 383,0,0,0,0,0,0,0,1,0,0,0,0,0,0,384,
scooby_state_41df40|51|1 384,0,0,0,0,0,0,0,0,0,0,0,0,0,0,384,
scooby_state_41df40|52|1 383,0,0,0,0,0,1,0,0,0,0,0,0,0,0,384,
scooby_state_41df40|53|1 384,0,0,0,0,0,0,0,0,0,0,0,0,0,0,384,
scooby_state_41df40|54|1 383,0,0,0,0,0,0,0,0,0,0,0,0,1,0,384,
scooby_state_41df40|3|1 384,0,0,0,0,0,0,0,0,0,0,0,0,0,0,384,
scooby_state_41df40|63|1 384,0,0,0,0,0,0,0,0,0,0,0,0,0,0,384,
scooby_state_41df40|12|1 384,0,0,0,0,0,0,0,0,0,0,0,0,0,0,384,
scooby_state_41df40|41|1 384,0,0,0,0,0,0,0,0,0,0,0,0,0,0,384,
scooby_state_41df40|17|1 383,0,0,0,0,0,0,0,1,0,0,0,0,0,0,384,
scooby_state_41df40|24|1 383,0,0,0,0,0,0,0,0,0,0,1,0,0,0,384,
scooby_state_41df40|28|1 383,0,0,0,0,0,0,0,1,0,0,0,0,0,0,384,
scooby_state_41df40|40|1 384,0,0,0,0,0,0,0,0,0,0,0,0,0,0,384,
scooby_state_41df40|27|1 384,0,0,0,0,0,0,0,0,0,0,0,0,0,0,384,
scooby_state_41df40|29|1 384,0,0,0,0,0,0,0,0,0,0,0,0,0,0,384,
scooby_state_41df40|48|1 383,0,0,0,0,0,0,0,0,0,0,0,0,0,1,384,
scooby_state_41df40|43|1 383,0,0,0,0,0,1,0,0,0,0,0,0,0,0,384,
scooby_state_41df40|44|1 383,0,0,0,0,0,0,0,0,0,0,0,1,0,0,384,
scooby_state_41df40|25|1 384,0,0,0,0,0,0,0,0,0,0,0,0,0,0,384,
scooby_state_41df40|9|1 381,0,0,0,0,0,1,0,0,0,1,0,1,0,0,384,
scooby_state_41df40|14|1 383,0,0,0,0,1,0,0,0,0,0,0,0,0,0,384,
scooby_state_41df40|1|1 383,0,0,0,0,0,1,0,0,0,0,0,0,0,0,384,
scooby_state_41df40|46|1 382,0,0,0,0,0,1,0,0,0,0,0,0,1,0,384,
scooby_state_41df40|15|1 384,0,0,0,0,0,0,0,0,0,0,0,0,0,0,384,
scooby_state_41df40|38|1 383,0,0,0,0,0,0,0,1,0,0,0,0,0,0,384,
scooby_state_41df40|23|1 383,1,0,0,0,0,0,0,0,0,0,0,0,0,0,384,
scooby_state_41df40|0|0 381,1,1,0,0,0,0,0,0,1,0,0,0,0,0,384,
scooby_state_41df40|18|1 383,0,0,0,0,0,0,0,0,0,0,1,0,0,0,384,
scooby_state_41df40|42|1 382,0,0,0,0,0,0,0,1,0,0,1,0,0,0,384,
scooby_state_41df40|2|1 383,0,0,0,0,0,0,1,0,0,0,0,0,0,0,384,
scooby_state_41df40|4|1 384,0,0,0,0,0,0,0,0,0,0,0,0,0,0,384,
scooby_state_41df40|10|1 383,0,0,0,0,1,0,0,0,0,0,0,0,0,0,384,
scooby_state_41df40|22|1 384,0,0,0,0,0,0,0,0,0,0,0,0,0,0,384,
scooby_state_41df40|11|1 384,0,0,0,0,0,0,0,0,0,0,0,0,0,0,384,
scooby_state_41df40|13|1 382,0,1,0,0,0,1,0,0,0,0,0,0,0,0,384,
scooby_state_41df40|8|1 384,0,0,0,0,0,0,0,0,0,0,0,0,0,0,384,
scooby_state_41df40|7|1 384,0,0,0,0,0,0,0,0,0,0,0,0,0,0,384,
scooby_state_41df40|20|1 384,0,0,0,0,0,0,0,0,0,0,0,0,0,0,384,
scooby_state_41df40|19|1 383,0,1,0,0,0,0,0,0,0,0,0,0,0,0,384,
scooby_state_41df40|16|1 384,0,0,0,0,0,0,0,0,0,0,0,0,0,0,384,
scooby_state_41df40|26|1 383,0,0,0,0,0,0,1,0,0,0,0,0,0,0,384,
scooby_state_41df40|30|1 384,0,0,0,0,0,0,0,0,0,0,0,0,0,0,384,
scooby_state_41df40|6|1 384,0,0,0,0,0,0,0,0,0,0,0,0,0,0,384,
scooby_state_407cae|4|0 382,0,0,0,0,0,0,0,0,0,0,0,0,0,0,382,
scooby_state_407cb3|4|0 380,0,0,0,1,0,0,0,0,1,0,0,0,0,0,382,
scooby_state_407cb3|5|0 381,0,0,0,0,0,0,0,0,0,0,0,0,0,0,381,
scooby_state_407cae|5|0 380,0,0,0,0,0,1,0,0,0,0,0,0,0,0,381,
scooby_state_41df40|50|1 378,0,0,0,0,0,0,0,0,0,0,0,0,0,0,378,
scooby_state_41df40|49|1 377,0,0,0,1,0,0,0,0,0,0,0,0,0,0,378,
scooby_state_41df40|61|1 374,0,0,0,0,0,0,0,0,0,0,0,0,0,0,374,
scooby_state_407cb3|3|0 373,0,0,0,0,0,0,0,0,0,0,0,0,0,0,373,
scooby_state_407cae|3|0 373,0,0,0,0,0,0,0,0,0,0,0,0,0,0,373,
scooby_state_41df40|59|1 372,0,0,0,0,0,0,0,0,0,0,0,0,0,0,372,
scooby_state_41df40|62|1 372,0,0,0,0,0,0,0,0,0,0,0,0,0,0,372,
scooby_state_41df40|60|1 372,0,0,0,0,0,0,0,0,0,0,0,0,0,0,372,
scooby_state_41df40|58|1 372,0,0,0,0,0,0,0,0,0,0,0,0,0,0,372,
scooby_state_41df40|55|1 371,1,0,0,0,0,0,0,0,0,0,0,0,0,0,372,
scooby_state_41df40|56|1 366,0,0,0,0,0,0,0,0,0,0,0,0,0,0,366,
scooby_state_41df40|57|1 366,0,0,0,0,0,0,0,0,0,0,0,0,0,0,366,
scooby_state_407c86|0|0 359,0,0,0,0,0,3,0,0,0,0,0,0,0,0,362,
scooby_state_407db7|0|0 1,344,0,0,0,0,0,0,0,0,1,0,1,1,0,348,
scooby_state_407d8e|0|0 2,0,0,0,346,0,0,0,0,0,0,0,0,0,0,348,
scooby_state_407c8e|0|0 314,0,0,0,0,0,0,0,0,0,0,0,0,0,0,314,
scooby_state_407cae|6|0 305,0,0,0,0,0,0,0,0,0,0,0,0,0,0,305,
scooby_state_407cb3|6|0 305,0,0,0,0,0,0,0,0,0,0,0,0,0,0,305,
scooby_state_4268ae|45|1 288,0,0,0,0,0,0,0,0,0,0,0,0,0,0,288,
scooby_state_4268ae|14|1 288,0,0,0,0,0,0,0,0,0,0,0,0,0,0,288,
scooby_state_4268ae|49|1 287,1,0,0,0,0,0,0,0,0,0,0,0,0,0,288,
scooby_state_4268ae|34|1 288,0,0,0,0,0,0,0,0,0,0,0,0,0,0,288,
scooby_state_4268a7|33|1 288,0,0,0,0,0,0,0,0,0,0,0,0,0,0,288,
scooby_state_4268a7|48|1 287,0,0,0,0,0,0,0,0,0,0,0,0,0,1,288,
scooby_state_4268ae|33|1 287,0,0,0,0,0,0,0,0,0,0,0,0,0,1,288,
scooby_state_4268a7|29|1 288,0,0,0,0,0,0,0,0,0,0,0,0,0,0,288,
scooby_state_4268ae|36|1 288,0,0,0,0,0,0,0,0,0,0,0,0,0,0,288,
scooby_state_4268a7|39|1 288,0,0,0,0,0,0,0,0,0,0,0,0,0,0,288,
scooby_state_4268ae|44|1 288,0,0,0,0,0,0,0,0,0,0,0,0,0,0,288,
scooby_state_4268ae|42|1 288,0,0,0,0,0,0,0,0,0,0,0,0,0,0,288,
scooby_state_4268a7|41|1 287,0,0,0,0,0,0,0,0,0,0,1,0,0,0,288,
scooby_state_4268ae|41|1 287,1,0,0,0,0,0,0,0,0,0,0,0,0,0,288,
scooby_state_4268ae|46|1 288,0,0,0,0,0,0,0,0,0,0,0,0,0,0,288,
scooby_state_4268ae|1|1 288,0,0,0,0,0,0,0,0,0,0,0,0,0,0,288,
scooby_state_4268a7|40|1 288,0,0,0,0,0,0,0,0,0,0,0,0,0,0,288,
scooby_state_4268ae|3|1 287,0,0,0,0,0,0,0,0,0,0,0,0,0,1,288,
scooby_state_4268a7|49|1 286,1,0,0,0,0,0,0,0,0,0,0,1,0,0,288,
scooby_state_4268a7|35|1 288,0,0,0,0,0,0,0,0,0,0,0,0,0,0,288,
scooby_state_4268ae|39|1 288,0,0,0,0,0,0,0,0,0,0,0,0,0,0,288,
scooby_state_4268a7|38|1 288,0,0,0,0,0,0,0,0,0,0,0,0,0,0,288,
scooby_state_4268a7|37|1 288,0,0,0,0,0,0,0,0,0,0,0,0,0,0,288,
scooby_state_4268ae|13|1 287,0,0,0,0,0,0,0,0,0,0,1,0,0,0,288,
scooby_state_4268ae|37|1 286,0,0,0,0,0,0,0,0,0,0,0,1,0,1,288,
scooby_state_4268a7|46|1 288,0,0,0,0,0,0,0,0,0,0,0,0,0,0,288,
scooby_state_4268ae|2|1 286,0,0,0,0,0,1,0,0,0,0,1,0,0,0,288,
scooby_state_4268a7|36|1 288,0,0,0,0,0,0,0,0,0,0,0,0,0,0,288,
scooby_state_4268ae|19|1 287,0,0,0,0,0,0,0,0,0,0,0,0,0,1,288,
scooby_state_4268a7|17|1 287,1,0,0,0,0,0,0,0,0,0,0,0,0,0,288,
scooby_state_4268ae|24|1 288,0,0,0,0,0,0,0,0,0,0,0,0,0,0,288,
scooby_state_4268ae|7|1 288,0,0,0,0,0,0,0,0,0,0,0,0,0,0,288,
scooby_state_4268ae|23|1 288,0,0,0,0,0,0,0,0,0,0,0,0,0,0,288,
scooby_state_4268a7|22|1 287,0,1,0,0,0,0,0,0,0,0,0,0,0,0,288,
scooby_state_4268a7|21|1 287,0,0,0,0,0,0,1,0,0,0,0,0,0,0,288,
scooby_state_4268ae|21|1 287,0,0,0,1,0,0,0,0,0,0,0,0,0,0,288,
scooby_state_4268a7|47|1 288,0,0,0,0,0,0,0,0,0,0,0,0,0,0,288,
scooby_state_4268ae|20|1 288,0,0,0,0,0,0,0,0,0,0,0,0,0,0,288,
scooby_state_4268ae|15|1 288,0,0,0,0,0,0,0,0,0,0,0,0,0,0,288,
scooby_state_4268a7|31|1 288,0,0,0,0,0,0,0,0,0,0,0,0,0,0,288,
scooby_state_4268ae|63|1 288,0,0,0,0,0,0,0,0,0,0,0,0,0,0,288,
scooby_state_4268a7|5|1 287,0,0,1,0,0,0,0,0,0,0,0,0,0,0,288,
scooby_state_4268a7|19|1 286,0,0,0,0,1,0,1,0,0,0,0,0,0,0,288,
scooby_state_4268a7|18|1 288,0,0,0,0,0,0,0,0,0,0,0,0,0,0,288,
scooby_state_4268a7|54|1 287,0,0,0,0,0,1,0,0,0,0,0,0,0,0,288,
scooby_state_4268ae|48|1 287,0,1,0,0,0,0,0,0,0,0,0,0,0,0,288,
scooby_state_4268ae|47|1 288,0,0,0,0,0,0,0,0,0,0,0,0,0,0,288,
scooby_state_4268ae|6|1 288,0,0,0,0,0,0,0,0,0,0,0,0,0,0,288,
scooby_state_4268ae|31|1 287,0,0,0,0,0,0,0,0,0,0,0,0,0,1,288,
scooby_state_4268ae|16|1 288,0,0,0,0,0,0,0,0,0,0,0,0,0,0,288,
scooby_state_4268a7|45|1 288,0,0,0,0,0,0,0,0,0,0,0,0,0,0,288,
scooby_state_4268a7|32|1 288,0,0,0,0,0,0,0,0,0,0,0,0,0,0,288,
scooby_state_4268a7|15|1 286,1,0,1,0,0,0,0,0,0,0,0,0,0,0,288,
scooby_state_4268ae|29|1 287,0,0,0,0,0,0,1,0,0,0,0,0,0,0,288,
scooby_state_4268a7|28|1 288,0,0,0,0,0,0,0,0,0,0,0,0,0,0,288,
scooby_state_4268ae|30|1 288,0,0,0,0,0,0,0,0,0,0,0,0,0,0,288,
scooby_state_4268a7|9|1 287,0,0,0,0,0,0,1,0,0,0,0,0,0,0,288,
scooby_state_4268ae|28|1 288,0,0,0,0,0,0,0,0,0,0,0,0,0,0,288,
scooby_state_4268ae|9|1 288,0,0,0,0,0,0,0,0,0,0,0,0,0,0,288,
scooby_state_4268ae|32|1 286,0,0,1,0,0,0,0,0,0,0,1,0,0,0,288,
scooby_state_4268ae|27|1 287,0,0,0,0,0,0,0,0,1,0,0,0,0,0,288,
scooby_state_4268a7|3|1 288,0,0,0,0,0,0,0,0,0,0,0,0,0,0,288,
scooby_state_4268ae|4|1 288,0,0,0,0,0,0,0,0,0,0,0,0,0,0,288,
scooby_state_4268a7|25|1 288,0,0,0,0,0,0,0,0,0,0,0,0,0,0,288,
scooby_state_4268a7|2|1 288,0,0,0,0,0,0,0,0,0,0,0,0,0,0,288,
scooby_state_4268a7|10|1 286,0,1,0,0,1,0,0,0,0,0,0,0,0,0,288,
scooby_state_4268a7|16|1 288,0,0,0,0,0,0,0,0,0,0,0,0,0,0,288,
scooby_state_4268ae|8|1 288,0,0,0,0,0,0,0,0,0,0,0,0,0,0,288,
scooby_state_4268a7|4|1 287,1,0,0,0,0,0,0,0,0,0,0,0,0,0,288,
scooby_state_4268a7|63|1 288,0,0,0,0,0,0,0,0,0,0,0,0,0,0,288,
scooby_state_4268a7|1|1 287,0,0,1,0,0,0,0,0,0,0,0,0,0,0,288,
scooby_state_4268ae|40|1 287,0,0,0,0,0,0,0,1,0,0,0,0,0,0,288,
scooby_state_4268a7|30|1 287,0,1,0,0,0,0,0,0,0,0,0,0,0,0,288,
scooby_state_4268a7|7|1 287,0,0,0,0,0,0,0,0,0,1,0,0,0,0,288,
scooby_state_4268ae|56|1 287,0,0,0,1,0,0,0,0,0,0,0,0,0,0,288,
scooby_state_4268a7|44|1 286,0,0,0,0,1,0,1,0,0,0,0,0,0,0,288,
scooby_state_4268a7|59|1 288,0,0,0,0,0,0,0,0,0,0,0,0,0,0,288,
scooby_state_4268a7|60|1 288,0,0,0,0,0,0,0,0,0,0,0,0,0,0,288,
scooby_state_4268a7|56|1 288,0,0,0,0,0,0,0,0,0,0,0,0,0,0,288,
scooby_state_4268a7|24|1 287,0,0,0,0,0,0,0,0,0,0,0,1,0,0,288,
scooby_state_4268a7|55|1 288,0,0,0,0,0,0,0,0,0,0,0,0,0,0,288,
scooby_state_4268a7|0|0 288,0,0,0,0,0,0,0,0,0,0,0,0,0,0,288,
scooby_state_4268ae|61|1 288,0,0,0,0,0,0,0,0,0,0,0,0,0,0,288,
scooby_state_4268a7|61|1 288,0,0,0,0,0,0,0,0,0,0,0,0,0,0,288,
scooby_state_4268ae|17|1 288,0,0,0,0,0,0,0,0,0,0,0,0,0,0,288,
scooby_state_4268a7|20|1 288,0,0,0,0,0,0,0,0,0,0,0,0,0,0,288,
scooby_state_4268a7|53|1 287,0,0,0,0,0,0,1,0,0,0,0,0,0,0,288,
scooby_state_4268ae|43|1 288,0,0,0,0,0,0,0,0,0,0,0,0,0,0,288,
scooby_state_4268ae|54|1 288,0,0,0,0,0,0,0,0,0,0,0,0,0,0,288,
scooby_state_4268ae|35|1 287,0,0,0,0,0,0,0,0,0,0,0,0,0,1,288,
scooby_state_4268ae|59|1 287,0,0,0,1,0,0,0,0,0,0,0,0,0,0,288,
scooby_state_4268ae|18|1 284,0,0,0,0,1,0,0,1,0,0,0,1,1,0,288,
scooby_state_4268a7|6|1 288,0,0,0,0,0,0,0,0,0,0,0,0,0,0,288,
scooby_state_4268a7|27|1 288,0,0,0,0,0,0,0,0,0,0,0,0,0,0,288,
scooby_state_4268ae|60|1 287,0,0,0,0,0,0,0,0,0,0,0,1,0,0,288,
scooby_state_4268a7|34|1 288,0,0,0,0,0,0,0,0,0,0,0,0,0,0,288,
scooby_state_4268a7|14|1 288,0,0,0,0,0,0,0,0,0,0,0,0,0,0,288,
scooby_state_4268a7|58|1 287,0,0,0,0,1,0,0,0,0,0,0,0,0,0,288,
scooby_state_4268a7|57|1 286,0,1,0,0,0,0,0,0,0,0,0,0,0,1,288,
scooby_state_4268ae|22|1 288,0,0,0,0,0,0,0,0,0,0,0,0,0,0,288,
scooby_state_4268ae|57|1 288,0,0,0,0,0,0,0,0,0,0,0,0,0,0,288,
scooby_state_4268ae|53|1 288,0,0,0,0,0,0,0,0,0,0,0,0,0,0,288,
scooby_state_4268ae|5|1 288,0,0,0,0,0,0,0,0,0,0,0,0,0,0,288,
scooby_state_4268ae|55|1 287,0,0,0,0,0,0,0,1,0,0,0,0,0,0,288,
scooby_state_4268a7|62|1 286,0,0,0,1,0,0,0,0,0,0,0,0,1,0,288,
scooby_state_4268a7|23|1 288,0,0,0,0,0,0,0,0,0,0,0,0,0,0,288,
scooby_state_4268a7|13|1 288,0,0,0,0,0,0,0,0,0,0,0,0,0,0,288,
scooby_state_4268ae|50|1 287,0,0,0,0,0,0,0,0,0,0,0,0,1,0,288,
scooby_state_4268a7|51|1 288,0,0,0,0,0,0,0,0,0,0,0,0,0,0,288,
scooby_state_4268a7|42|1 286,0,0,0,0,0,0,0,0,0,1,1,0,0,0,288,
scooby_state_4268ae|38|1 287,1,0,0,0,0,0,0,0,0,0,0,0,0,0,288,
scooby_state_4268ae|58|1 288,0,0,0,0,0,0,0,0,0,0,0,0,0,0,288,
scooby_state_4268a7|50|1 288,0,0,0,0,0,0,0,0,0,0,0,0,0,0,288,
scooby_state_4268ae|0|0 287,0,0,0,0,0,0,0,0,1,0,0,0,0,0,288,
scooby_state_4268ae|51|1 287,0,0,0,0,1,0,0,0,0,0,0,0,0,0,288,
scooby_state_4268a7|8|1 288,0,0,0,0,0,0,0,0,0,0,0,0,0,0,288,
scooby_state_4268a7|12|1 287,0,0,0,0,0,0,0,0,1,0,0,0,0,0,288,
scooby_state_4268a7|26|1 287,0,0,0,0,0,0,0,1,0,0,0,0,0,0,288,
scooby_state_4268a7|52|1 286,0,1,0,0,0,1,0,0,0,0,0,0,0,0,288,
scooby_state_4268a7|11|1 286,0,0,1,0,0,0,0,0,0,0,0,0,0,1,288,
scooby_state_4268ae|26|1 286,0,1,0,0,0,1,0,0,0,0,0,0,0,0,288,
scooby_state_4268ae|12|1 288,0,0,0,0,0,0,0,0,0,0,0,0,0,0,288,
scooby_state_4268ae|25|1 285,0,0,0,1,0,0,0,0,0,0,0,1,1,0,288,
scooby_state_4268a7|43|1 288,0,0,0,0,0,0,0,0,0,0,0,0,0,0,288,
scooby_state_4268ae|52|1 287,0,0,0,0,0,1,0,0,0,0,0,0,0,0,288,
scooby_state_4268ae|62|1 288,0,0,0,0,0,0,0,0,0,0,0,0,0,0,288,
scooby_state_4268ae|11|1 276,0,0,0,0,0,0,0,0,0,0,0,0,0,0,276,
scooby_state_4268ae|10|1 275,1,0,0,0,0,0,0,0,0,0,0,0,0,0,276,
scooby_state_407cf3|0|0 273,0,0,0,0,0,0,0,0,0,0,0,0,0,0,273,
scooby_state_407cae|7|0 268,0,0,0,0,0,0,0,0,0,0,0,0,1,0,269,
scooby_state_407cb3|7|0 269,0,0,0,0,0,0,0,0,0,0,0,0,0,0,269,
scooby_state_407c8e|12|1 260,1,0,0,0,0,0,0,0,0,0,0,1,0,0,262,
scooby_state_407c86|1|1 261,0,0,0,0,0,1,0,0,0,0,0,0,0,0,262,
scooby_state_407cae|11|0 259,0,0,0,0,0,0,0,0,0,0,0,0,0,0,259,
scooby_state_407cb3|11|0 259,0,0,0,0,0,0,0,0,0,0,0,0,0,0,259,
scooby_state_407d8e|2|1 0,1,0,0,250,0,0,0,0,0,1,0,0,0,0,252,
scooby_state_407d8e|1|1 0,1,0,0,251,0,0,0,0,0,0,0,0,0,0,252,
scooby_state_407db7|1|1 0,252,0,0,0,0,0,0,0,0,0,0,0,0,0,252,
scooby_state_407db7|2|1 0,250,0,0,0,0,0,1,0,0,0,0,1,0,0,252,
scooby_state_421ee8|0|0 171,71,0,9,0,0,1,0,0,0,0,0,0,0,0,252,
scooby_state_407cae|8|0 242,0,0,0,0,0,0,0,0,0,0,0,0,0,0,242,
scooby_state_407cb3|9|0 241,1,0,0,0,0,0,0,0,0,0,0,0,0,0,242,
scooby_state_407cae|9|0 242,0,0,0,0,0,0,0,0,0,0,0,0,0,0,242,
scooby_state_407cb3|8|0 241,0,0,0,0,0,0,0,0,0,0,0,0,1,0,242,
scooby_state_407c86|50|1 239,0,0,0,0,0,0,0,0,0,0,0,0,0,0,239,
scooby_state_407c86|34|1 239,0,0,0,0,0,0,0,0,0,0,0,0,0,0,239,
scooby_state_407c8e|1|1 237,0,1,0,0,0,0,0,0,0,0,0,0,0,0,238,
scooby_state_422013|40|1 0,0,0,233,0,0,1,0,0,0,0,0,0,0,0,234,
scooby_state_407c86|2|1 230,0,0,0,0,0,1,0,0,0,0,0,0,0,0,231,
scooby_state_407c86|20|1 228,0,0,0,1,0,1,0,0,0,0,0,0,0,0,230,
scooby_state_407c86|23|1 229,0,1,0,0,0,0,0,0,0,0,0,0,0,0,230,
scooby_state_407d8e|52|3 0,0,0,0,228,0,0,0,0,0,0,0,0,0,0,228,
scooby_state_422013|0|0 214,0,0,14,0,0,0,0,0,0,0,0,0,0,0,228,
scooby_state_407d8e|56|3 0,0,0,0,228,0,0,0,0,0,0,0,0,0,0,228,
scooby_state_407c8e|2|1 226,0,0,0,0,0,1,0,0,0,0,0,1,0,0,228,
scooby_state_407d8e|31|3 0,0,0,0,228,0,0,0,0,0,0,0,0,0,0,228,
scooby_state_407d8e|61|3 0,0,0,0,228,0,0,0,0,0,0,0,0,0,0,228,
scooby_state_407d8e|36|3 0,0,0,0,228,0,0,0,0,0,0,0,0,0,0,228,
scooby_state_407d8e|41|3 0,0,0,0,227,0,0,0,0,0,0,0,1,0,0,228,
scooby_state_407d8e|51|3 0,0,0,0,228,0,0,0,0,0,0,0,0,0,0,228,
scooby_state_407d8e|55|3 0,0,0,0,227,0,0,0,0,0,0,0,0,0,0,227,
scooby_state_407d8e|27|3 0,0,0,0,227,0,0,0,0,0,0,0,0,0,0,227,
scooby_state_407cae|15|0 227,0,0,0,0,0,0,0,0,0,0,0,0,0,0,227,
scooby_state_407cb3|15|0 227,0,0,0,0,0,0,0,0,0,0,0,0,0,0,227,
scooby_state_407d8e|26|3 0,0,0,0,227,0,0,0,0,0,0,0,0,0,0,227,
scooby_state_407c86|36|1 225,0,0,0,0,0,1,0,0,0,0,0,0,0,0,226,
scooby_state_407c86|12|1 224,0,0,0,1,0,1,0,0,0,0,0,0,0,0,226,
scooby_state_407c8e|50|1 225,0,0,0,0,0,0,0,0,0,0,0,0,0,0,225,
scooby_state_407c86|49|1 223,1,0,0,0,0,1,0,0,0,0,0,0,0,0,225,
scooby_state_407c86|37|1 221,0,0,0,0,0,2,0,0,1,0,0,0,0,0,224,
scooby_state_407c86|11|1 222,0,0,0,0,0,1,0,0,0,0,0,0,0,0,223,
scooby_state_421ee8|51|1 216,3,0,4,0,0,0,0,0,0,0,0,0,0,0,223,
scooby_state_407c8e|19|1 222,0,1,0,0,0,0,0,0,0,0,0,0,0,0,223,
scooby_state_407cae|10|0 220,0,0,0,0,0,0,0,0,0,0,0,0,0,0,220,
scooby_state_407cb3|10|0 220,0,0,0,0,0,0,0,0,0,0,0,0,0,0,220,
scooby_state_407c86|41|1 217,1,0,0,0,0,1,0,0,0,0,0,0,0,0,219,
scooby_state_407c8e|20|1 218,0,1,0,0,0,0,0,0,0,0,0,0,0,0,219,
scooby_state_407c86|19|1 217,0,0,0,0,0,2,0,0,0,0,0,0,0,0,219,
scooby_state_407c8e|34|1 219,0,0,0,0,0,0,0,0,0,0,0,0,0,0,219,
scooby_state_407c86|6|1 219,0,0,0,0,0,0,0,0,0,0,0,0,0,0,219,
scooby_state_407d8e|30|3 0,0,0,0,216,0,0,0,0,0,0,0,0,0,0,216,
scooby_state_407d8e|29|3 0,1,0,0,214,0,0,0,0,1,0,0,0,0,0,216,
scooby_state_407d8e|3|3 0,0,0,0,216,0,0,0,0,0,0,0,0,0,0,216,
scooby_state_407d8e|4|3 0,0,0,0,216,0,0,0,0,0,0,0,0,0,0,216,
scooby_state_407d8e|46|3 0,0,0,0,216,0,0,0,0,0,0,0,0,0,0,216,
scooby_state_407d8e|23|3 0,0,0,0,216,0,0,0,0,0,0,0,0,0,0,216,
scooby_state_407d8e|38|3 0,0,0,0,216,0,0,0,0,0,0,0,0,0,0,216,
scooby_state_407d8e|57|3 0,0,0,0,216,0,0,0,0,0,0,0,0,0,0,216,
scooby_state_407d8e|22|3 0,0,0,0,216,0,0,0,0,0,0,0,0,0,0,216,
scooby_state_407d8e|21|3 0,0,0,0,216,0,0,0,0,0,0,0,0,0,0,216,
scooby_state_407d8e|18|3 0,1,0,0,215,0,0,0,0,0,0,0,0,0,0,216,
scooby_state_407c8e|51|1 215,0,0,0,0,0,1,0,0,0,0,0,0,0,0,216,
scooby_state_407d8e|32|3 0,0,0,0,216,0,0,0,0,0,0,0,0,0,0,216,
scooby_state_407d8e|16|3 0,0,0,0,215,0,0,0,0,0,0,1,0,0,0,216,
scooby_state_407d8e|17|3 0,0,0,0,216,0,0,0,0,0,0,0,0,0,0,216,
scooby_state_407d8e|13|3 0,0,1,0,214,0,0,0,0,1,0,0,0,0,0,216,
scooby_state_407d8e|28|3 0,0,0,0,215,0,0,0,0,1,0,0,0,0,0,216,
scooby_state_407d8e|12|3 0,0,0,0,216,0,0,0,0,0,0,0,0,0,0,216,
scooby_state_407d8e|7|3 0,0,0,0,216,0,0,0,0,0,0,0,0,0,0,216,
scooby_state_407d8e|43|3 0,0,0,0,216,0,0,0,0,0,0,0,0,0,0,216,
scooby_state_407c86|39|1 214,0,0,0,0,0,1,0,0,0,0,0,0,0,0,215,
scooby_state_407d8e|33|3 0,0,0,0,215,0,0,0,0,0,0,0,0,0,0,215,
scooby_state_407c8e|11|1 214,0,0,0,0,0,0,0,0,0,0,0,0,0,1,215,
scooby_state_407c86|24|1 213,0,0,0,0,0,1,0,0,0,0,0,0,0,0,214,
scooby_state_407c8e|23|1 214,0,0,0,0,0,0,0,0,0,0,0,0,0,0,214,
scooby_state_407c86|33|1 213,0,0,0,0,0,0,0,0,1,0,0,0,0,0,214,
scooby_state_422003|14|1 51,162,0,0,0,0,0,0,0,0,0,0,0,0,0,213,
scooby_state_407cae|22|0 210,0,1,0,0,0,0,0,1,0,0,0,0,0,0,212,
scooby_state_422003|48|1 75,137,0,0,0,0,0,0,0,0,0,0,0,0,0,212,
scooby_state_407cb3|22|0 212,0,0,0,0,0,0,0,0,0,0,0,0,0,0,212,
scooby_state_407c8e|36|1 212,0,0,0,0,0,0,0,0,0,0,0,0,0,0,212,
scooby_state_407c86|32|1 210,0,0,0,0,0,0,0,0,0,0,0,0,0,0,210,
scooby_state_407c86|61|1 207,0,0,0,0,0,1,0,0,0,0,0,2,0,0,210,
scooby_state_407c8e|49|1 208,0,0,0,1,0,0,0,0,0,0,0,0,0,0,209,
scooby_state_407c96|0|0 0,208,0,0,0,0,0,0,0,0,0,0,0,0,0,208,
scooby_state_407c8e|27|1 207,0,0,0,0,0,0,0,0,0,0,0,0,0,0,207,
scooby_state_407c86|25|1 207,0,0,0,0,0,0,0,0,0,0,0,0,0,0,207,
scooby_state_407c86|56|1 204,0,0,0,0,1,1,0,0,1,0,0,0,0,0,207,
scooby_state_407c86|51|1 205,0,0,0,0,0,0,0,0,0,0,0,0,0,0,205,
scooby_state_407c8e|37|1 203,0,0,0,0,0,0,0,0,0,0,1,0,0,0,204,
scooby_state_407cf3|5|1 204,0,0,0,0,0,0,0,0,0,0,0,0,0,0,204,
scooby_state_407d8e|19|3 0,0,0,0,204,0,0,0,0,0,0,0,0,0,0,204,
scooby_state_407d8e|53|3 0,1,0,0,203,0,0,0,0,0,0,0,0,0,0,204,
scooby_state_407d8e|24|3 0,0,0,0,204,0,0,0,0,0,0,0,0,0,0,204,
scooby_state_407d8e|40|3 0,0,0,0,204,0,0,0,0,0,0,0,0,0,0,204,
scooby_state_407d8e|58|3 0,0,0,0,203,0,0,1,0,0,0,0,0,0,0,204,
scooby_state_407d8e|63|3 0,0,0,0,204,0,0,0,0,0,0,0,0,0,0,204,
scooby_state_407d8e|11|3 0,0,1,0,203,0,0,0,0,0,0,0,0,0,0,204,
scooby_state_407d8e|25|3 0,0,0,0,203,0,0,1,0,0,0,0,0,0,0,204,
scooby_state_407d8e|39|3 0,0,0,0,204,0,0,0,0,0,0,0,0,0,0,204,
scooby_state_407d8e|15|3 0,0,0,0,204,0,0,0,0,0,0,0,0,0,0,204,
scooby_state_407d8e|6|3 0,0,0,0,202,0,0,0,0,1,0,0,1,0,0,204,
scooby_state_407d8e|50|3 0,0,0,0,204,0,0,0,0,0,0,0,0,0,0,204,
scooby_state_407d8e|8|3 0,0,0,0,204,0,0,0,0,0,0,0,0,0,0,204,
scooby_state_407d8e|62|3 0,0,0,0,204,0,0,0,0,0,0,0,0,0,0,204,
scooby_state_407d8e|60|3 0,0,0,0,204,0,0,0,0,0,0,0,0,0,0,204,
scooby_state_407d8e|59|3 0,0,0,0,204,0,0,0,0,0,0,0,0,0,0,204,
scooby_state_422003|63|1 61,143,0,0,0,0,0,0,0,0,0,0,0,0,0,204,
scooby_state_407d8e|20|3 0,0,0,0,204,0,0,0,0,0,0,0,0,0,0,204,
scooby_state_407d8e|47|3 0,0,0,0,203,0,0,1,0,0,0,0,0,0,0,204,
scooby_state_407d8e|42|3 0,0,0,0,204,0,0,0,0,0,0,0,0,0,0,204,
scooby_state_407d8e|5|3 0,0,0,0,204,0,0,0,0,0,0,0,0,0,0,204,
scooby_state_407d8e|37|3 1,0,0,0,203,0,0,0,0,0,0,0,0,0,0,204,
scooby_state_407d8e|48|3 0,0,0,0,202,1,0,0,1,0,0,0,0,0,0,204,
scooby_state_407d8e|14|3 0,0,0,0,203,1,0,0,0,0,0,0,0,0,0,204,
scooby_state_407d8e|45|3 0,0,0,0,203,0,0,0,0,0,0,0,0,0,0,203,
scooby_state_422003|32|1 59,143,0,0,0,0,0,0,0,0,0,0,1,0,0,203,
scooby_state_407d8e|54|3 0,0,0,0,203,0,0,0,0,0,0,0,0,0,0,203,
scooby_state_407d8e|9|3 0,0,0,0,202,0,0,0,0,0,0,0,0,1,0,203,
scooby_state_407db7|56|3 2,200,0,0,0,0,1,0,0,0,0,0,0,0,0,203,
scooby_state_407db7|31|3 2,201,0,0,0,0,0,0,0,0,0,0,0,0,0,203,
scooby_state_407db7|36|3 2,201,0,0,0,0,0,0,0,0,0,0,0,0,0,203,
scooby_state_407c8e|33|1 203,0,0,0,0,0,0,0,0,0,0,0,0,0,0,203,
scooby_state_407d8e|44|3 0,0,0,0,203,0,0,0,0,0,0,0,0,0,0,203,
scooby_state_407c8e|24|1 202,0,0,0,0,0,0,0,0,0,0,0,0,0,0,202,
scooby_state_407db7|61|3 2,198,0,0,0,0,1,0,1,0,0,0,0,0,0,202,
scooby_state_407d8e|35|3 0,0,0,0,202,0,0,0,0,0,0,0,0,0,0,202,
scooby_state_407db7|41|3 1,201,0,0,0,0,0,0,0,0,0,0,0,0,0,202,
scooby_state_407c86|55|1 201,0,0,0,0,0,1,0,0,0,0,0,0,0,0,202,
scooby_state_407d8e|34|3 0,0,0,0,201,0,0,0,0,0,0,0,0,0,0,201,
scooby_state_407cf3|16|1 200,0,0,1,0,0,0,0,0,0,0,0,0,0,0,201,
scooby_state_407cae|13|0 200,0,0,0,0,0,0,0,0,0,0,0,0,0,0,200,
scooby_state_407cb3|13|0 200,0,0,0,0,0,0,0,0,0,0,0,0,0,0,200,
scooby_state_407c8e|41|1 200,0,0,0,0,0,0,0,0,0,0,0,0,0,0,200,
scooby_state_407c8e|32|1 200,0,0,0,0,0,0,0,0,0,0,0,0,0,0,200,
scooby_state_407c96|63|1 0,199,0,0,0,0,0,0,0,0,0,0,0,0,0,199,
scooby_state_407c8e|38|1 198,0,0,0,0,0,0,0,0,0,0,0,0,0,0,198,
scooby_state_407c96|62|1 0,197,0,0,0,1,0,0,0,0,0,0,0,0,0,198,
scooby_state_421ee8|13|1 187,6,0,4,0,0,0,0,0,1,0,0,0,0,0,198,
scooby_state_407cb3|14|0 196,1,0,0,0,0,0,0,0,0,0,0,0,0,0,197,
scooby_state_407c86|18|1 196,0,0,0,0,1,0,0,0,0,0,0,0,0,0,197,
scooby_state_407cae|14|0 196,0,0,0,0,0,0,0,0,0,0,1,0,0,0,197,
scooby_state_407c86|60|1 193,1,0,0,1,0,1,0,0,0,0,0,0,0,0,196,
scooby_state_407cf3|55|1 195,0,0,0,0,0,0,0,0,0,0,0,0,0,0,195,
scooby_state_422013|43|1 0,0,0,195,0,0,0,0,0,0,0,0,0,0,0,195,
scooby_state_407c86|17|1 195,0,0,0,0,0,0,0,0,0,0,0,0,0,0,195,
scooby_state_407c8e|26|1 194,0,1,0,0,0,0,0,0,0,0,0,0,0,0,195,
scooby_state_407cb3|21|0 194,0,0,0,0,0,0,0,0,0,0,0,0,0,0,194,
scooby_state_407cae|21|0 194,0,0,0,0,0,0,0,0,0,0,0,0,0,0,194,
scooby_state_407c8e|25|1 193,0,0,0,0,0,0,0,0,0,0,0,0,0,0,193,
scooby_state_407c86|46|1 191,0,0,0,1,0,1,0,0,0,0,0,0,0,0,193,
scooby_state_407cb3|16|0 192,0,0,0,0,0,0,0,0,0,0,0,0,0,0,192,
scooby_state_421ee8|21|1 180,6,0,6,0,0,0,0,0,0,0,0,0,0,0,192,
scooby_state_407cae|16|0 192,0,0,0,0,0,0,0,0,0,0,0,0,0,0,192,
scooby_state_407db7|51|3 1,191,0,0,0,0,0,0,0,0,0,0,0,0,0,192,
scooby_state_422013|45|1 1,0,0,190,0,1,0,0,0,0,0,0,0,0,0,192,
scooby_state_407db7|43|3 2,190,0,0,0,0,0,0,0,0,0,0,0,0,0,192,
scooby_state_407d8e|49|3 0,0,0,0,191,0,0,0,0,0,1,0,0,0,0,192,
scooby_state_407db7|26|3 1,190,0,0,0,0,0,0,0,0,0,0,0,0,0,191,
scooby_state_407db7|28|3 2,189,0,0,0,0,0,0,0,0,0,0,0,0,0,191,
scooby_state_407db7|18|3 2,188,0,0,0,0,0,0,0,0,0,0,1,0,0,191,
scooby_state_407db7|17|3 1,189,0,0,0,0,0,1,0,0,0,0,0,0,0,191,
scooby_state_407db7|4|3 2,189,0,0,0,0,0,0,0,0,0,0,0,0,0,191,
scooby_state_407c8e|61|1 191,0,0,0,0,0,0,0,0,0,0,0,0,0,0,191,
scooby_state_407db7|23|3 2,189,0,0,0,0,0,0,0,0,0,0,0,0,0,191,
scooby_state_407c86|31|1 190,0,0,0,0,0,0,0,0,0,1,0,0,0,0,191,
scooby_state_407c86|54|1 189,1,0,0,0,0,1,0,0,0,0,0,0,0,0,191,
scooby_state_407db7|52|3 2,189,0,0,0,0,0,0,0,0,0,0,0,0,0,191,
scooby_state_407d8e|10|3 0,0,0,0,191,0,0,0,0,0,0,0,0,0,0,191,
scooby_state_407db7|46|3 0,191,0,0,0,0,0,0,0,0,0,0,0,0,0,191,
scooby_state_407db7|55|3 1,189,0,0,0,0,0,0,0,0,0,0,0,1,0,191,
scooby_state_407db7|50|3 1,190,0,0,0,0,0,0,0,0,0,0,0,0,0,191,
scooby_state_407db7|21|3 0,191,0,0,0,0,0,0,0,0,0,0,0,0,0,191,
scooby_state_407db7|33|3 2,187,0,0,1,0,0,0,0,0,0,0,0,0,0,190,
scooby_state_407db7|57|3 2,188,0,0,0,0,0,0,0,0,0,0,0,0,0,190,
scooby_state_407db7|27|3 2,187,1,0,0,0,0,0,0,0,0,0,0,0,0,190,
scooby_state_407c8e|16|1 190,0,0,0,0,0,0,0,0,0,0,0,0,0,0,190,
scooby_state_407c8e|60|1 189,0,1,0,0,0,0,0,0,0,0,0,0,0,0,190,
scooby_state_407db7|7|3 1,189,0,0,0,0,0,0,0,0,0,0,0,0,0,190,
scooby_state_407db7|22|3 2,188,0,0,0,0,0,0,0,0,0,0,0,0,0,190,
scooby_state_407db7|32|3 2,188,0,0,0,0,0,0,0,0,0,0,0,0,0,190,
scooby_state_422013|4|1 0,0,0,188,0,0,1,0,0,0,0,0,0,0,0,189,
scooby_state_422003|39|1 59,127,0,1,1,0,0,0,0,0,0,1,0,0,0,189,
scooby_state_407db7|38|3 2,187,0,0,0,0,0,0,0,0,0,0,0,0,0,189,
scooby_state_407c8e|54|1 189,0,0,0,0,0,0,0,0,0,0,0,0,0,0,189,
scooby_state_407c86|42|1 187,0,0,0,0,0,1,0,0,0,0,0,0,0,0,188,
scooby_state_421ee8|27|1 181,2,0,5,0,0,0,0,0,0,0,0,0,0,0,188,
scooby_state_407c96|10|1 0,188,0,0,0,0,0,0,0,0,0,0,0,0,0,188,
scooby_state_422013|28|1 0,0,0,188,0,0,0,0,0,0,0,0,0,0,0,188,
scooby_state_407c8e|39|1 188,0,0,0,0,0,0,0,0,0,0,0,0,0,0,188,
scooby_state_407cf3|56|1 187,0,0,0,0,0,0,0,0,1,0,0,0,0,0,188,
scooby_state_407c86|26|1 184,0,0,0,1,0,1,1,0,0,0,0,0,0,0,187,
scooby_state_407c96|23|1 2,185,0,0,0,0,0,0,0,0,0,0,0,0,0,187,
scooby_state_407cf3|62|1 185,0,0,0,1,0,0,0,0,0,0,0,0,0,1,187,
scooby_state_422013|38|1 1,0,0,186,0,0,0,0,0,0,0,0,0,0,0,187,
scooby_state_407c86|14|1 186,0,0,0,0,0,0,0,0,0,0,0,0,0,0,186,
scooby_state_422003|53|1 60,126,0,0,0,0,0,0,0,0,0,0,0,0,0,186,
scooby_state_407c8e|52|1 186,0,0,0,0,0,0,0,0,0,0,0,0,0,0,186,
scooby_state_421ee8|2|1 176,4,0,5,0,1,0,0,0,0,0,0,0,0,0,186,
scooby_state_407c96|60|1 0,186,0,0,0,0,0,0,0,0,0,0,0,0,0,186,
scooby_state_407c86|13|1 185,0,0,0,0,0,0,0,0,0,0,0,0,0,0,185,
scooby_state_407c8e|31|1 185,0,0,0,0,0,0,0,0,0,0,0,0,0,0,185,
scooby_state_407c86|38|1 183,1,0,0,0,0,0,0,0,0,0,0,0,0,0,184,
scooby_state_407c8e|18|1 183,0,1,0,0,0,0,0,0,0,0,0,0,0,0,184,
scooby_state_407c86|27|1 183,0,0,0,0,0,0,0,0,0,0,0,0,0,0,183,
scooby_state_407c8e|6|1 182,0,0,0,0,0,0,0,0,0,0,0,0,0,0,182,
scooby_state_421ee8|3|1 170,6,0,6,0,0,0,0,0,0,0,0,0,0,0,182,
scooby_state_407c86|35|1 180,0,0,0,0,0,1,0,0,0,0,0,0,0,0,181,
scooby_state_407db7|44|3 0,180,0,0,0,0,0,0,0,0,0,0,0,0,0,180,
scooby_state_407c8e|15|1 180,0,0,0,0,0,0,0,0,0,0,0,0,0,0,180,
scooby_state_407db7|30|3 1,178,0,0,0,0,0,0,0,0,0,0,1,0,0,180,
scooby_state_422013|51|1 1,0,0,179,0,0,0,0,0,0,0,0,0,0,0,180,
scooby_state_407db7|45|3 0,180,0,0,0,0,0,0,0,0,0,0,0,0,0,180,
scooby_state_407db7|25|3 1,179,0,0,0,0,0,0,0,0,0,0,0,0,0,180,
scooby_state_407d96|49|-2 0,0,0,179,0,0,0,0,0,0,0,0,0,0,1,180,
scooby_state_407cf3|4|1 180,0,0,0,0,0,0,0,0,0,0,0,0,0,0,180,
scooby_state_407db7|24|3 1,179,0,0,0,0,0,0,0,0,0,0,0,0,0,180,
scooby_state_407db7|48|3 1,179,0,0,0,0,0,0,0,0,0,0,0,0,0,180,
scooby_state_407db7|12|3 1,179,0,0,0,0,0,0,0,0,0,0,0,0,0,180,
scooby_state_407db7|29|3 1,178,0,0,0,0,0,0,0,0,1,0,0,0,0,180,
scooby_state_407db7|40|3 0,179,0,0,0,0,0,0,0,0,0,0,0,0,0,179,
scooby_state_407db7|16|3 0,178,0,0,0,0,0,0,1,0,0,0,0,0,0,179,
scooby_state_407db7|35|3 0,179,0,0,0,0,0,0,0,0,0,0,0,0,0,179,
scooby_state_407db7|47|3 1,178,0,0,0,0,0,0,0,0,0,0,0,0,0,179,
scooby_state_407db7|13|3 1,177,0,0,0,0,0,0,0,0,0,0,0,1,0,179,
scooby_state_421ee8|62|1 169,4,0,6,0,0,0,0,0,0,0,0,0,0,0,179,
scooby_state_407db7|9|3 1,178,0,0,0,0,0,0,0,0,0,0,0,0,0,179,
scooby_state_407db7|14|3 1,178,0,0,0,0,0,0,0,0,0,0,0,0,0,179,
scooby_state_407c86|40|1 177,0,0,0,0,0,1,0,0,0,0,0,1,0,0,179,
scooby_state_407db7|19|3 1,178,0,0,0,0,0,0,0,0,0,0,0,0,0,179,
scooby_state_407db7|20|3 0,179,0,0,0,0,0,0,0,0,0,0,0,0,0,179,
scooby_state_407db7|42|3 1,177,0,0,0,0,0,0,0,0,0,0,0,0,0,178,
scooby_state_407db7|58|3 1,177,0,0,0,0,0,0,0,0,0,0,0,0,0,178,
scooby_state_407db7|8|3 1,177,0,0,0,0,0,0,0,0,0,0,0,0,0,178,
scooby_state_407db7|59|3 0,178,0,0,0,0,0,0,0,0,0,0,0,0,0,178,
scooby_state_422003|24|1 46,132,0,0,0,0,0,0,0,0,0,0,0,0,0,178,
scooby_state_407c86|62|1 177,0,0,0,0,0,1,0,0,0,0,0,0,0,0,178,
scooby_state_407db7|60|3 0,178,0,0,0,0,0,0,0,0,0,0,0,0,0,178,
scooby_state_407db7|3|3 1,177,0,0,0,0,0,0,0,0,0,0,0,0,0,178,
scooby_state_407db7|39|3 0,177,0,0,0,0,0,0,1,0,0,0,0,0,0,178,
scooby_state_407cf3|23|1 178,0,0,0,0,0,0,0,0,0,0,0,0,0,0,178,
scooby_state_407db7|5|3 0,178,0,0,0,0,0,0,0,0,0,0,0,0,0,178,
scooby_state_407db7|53|3 1,177,0,0,0,0,0,0,0,0,0,0,0,0,0,178,
scooby_state_407db7|34|3 0,178,0,0,0,0,0,0,0,0,0,0,0,0,0,178,
scooby_state_407db7|62|3 1,177,0,0,0,0,0,0,0,0,0,0,0,0,0,178,
scooby_state_407db7|11|3 0,176,0,0,0,0,1,0,1,0,0,0,0,0,0,178,
scooby_state_407cf3|39|1 177,0,0,0,0,0,0,0,0,0,0,0,0,0,0,177,
scooby_state_407c86|15|1 176,0,0,0,0,0,0,0,0,0,0,0,0,1,0,177,
scooby_state_407c86|9|1 175,0,0,0,0,0,2,0,0,0,0,0,0,0,0,177,
scooby_state_421ee8|56|1 169,3,0,5,0,0,0,0,0,0,0,0,0,0,0,177,
scooby_state_407cf3|10|1 177,0,0,0,0,0,0,0,0,0,0,0,0,0,0,177,
scooby_state_407c8e|35|1 177,0,0,0,0,0,0,0,0,0,0,0,0,0,0,177,
scooby_state_407db7|37|3 1,176,0,0,0,0,0,0,0,0,0,0,0,0,0,177,
scooby_state_407db7|6|3 0,177,0,0,0,0,0,0,0,0,0,0,0,0,0,177,
scooby_state_407db7|63|3 1,175,0,0,0,0,0,0,0,0,0,0,0,0,0,176,
scooby_state_421ee8|53|1 172,1,0,3,0,0,0,0,0,0,0,0,0,0,0,176,
scooby_state_407c8e|53|1 176,0,0,0,0,0,0,0,0,0,0,0,0,0,0,176,
scooby_state_407c8e|55|1 175,0,0,0,0,0,0,0,0,0,0,0,0,0,0,175,
scooby_state_421ee8|52|1 170,2,0,3,0,0,0,0,0,0,0,0,0,0,0,175,
scooby_state_407c86|43|1 172,0,0,1,0,0,1,0,0,0,0,0,0,0,0,174,
scooby_state_407c8e|14|1 174,0,0,0,0,0,0,0,0,0,0,0,0,0,0,174,
scooby_state_407cf3|57|1 174,0,0,0,0,0,0,0,0,0,0,0,0,0,0,174,
scooby_state_407c8e|7|1 172,0,0,0,0,0,0,0,0,0,0,0,0,0,0,172,
scooby_state_407cf3|37|1 172,0,0,0,0,0,0,0,0,0,0,0,0,0,0,172,
scooby_state_407cf3|63|1 171,0,0,0,0,0,0,0,0,0,0,0,0,0,0,171,
scooby_state_407c86|16|1 170,0,0,0,0,0,0,0,0,0,0,0,0,1,0,171,
scooby_state_407c8e|1|0 171,0,0,0,0,0,0,0,0,0,0,0,0,0,0,171,
scooby_state_422013|25|1 0,0,0,169,0,0,0,0,0,0,0,0,1,0,0,170,
scooby_state_422013|34|1 0,0,0,169,1,0,0,0,0,0,0,0,0,0,0,170,
scooby_state_421ee8|28|1 163,2,0,4,0,0,0,0,0,0,1,0,0,0,0,170,
scooby_state_407c86|53|1 168,0,0,0,0,1,1,0,0,0,0,0,0,0,0,170,
scooby_state_422003|26|1 53,117,0,0,0,0,0,0,0,0,0,0,0,0,0,170,
scooby_state_422013|15|1 0,0,0,169,0,0,0,0,1,0,0,0,0,0,0,170,
scooby_state_407cf3|20|1 168,0,0,0,0,0,0,0,0,0,0,1,0,0,0,169,
scooby_state_422013|55|1 0,0,0,169,0,0,0,0,0,0,0,0,0,0,0,169,
scooby_state_422013|58|1 0,0,0,169,0,0,0,0,0,0,0,0,0,0,0,169,
scooby_state_407c86|48|1 168,0,0,0,0,0,1,0,0,0,0,0,0,0,0,169,
scooby_state_407c86|8|1 167,0,0,0,0,0,2,0,0,0,0,0,0,0,0,169,
scooby_state_422003|58|1 47,121,0,0,0,0,0,0,0,0,0,1,0,0,0,169,
scooby_state_407c96|57|1 0,169,0,0,0,0,0,0,0,0,0,0,0,0,0,169,
scooby_state_407cf3|21|1 167,0,0,0,0,0,0,0,0,0,0,1,0,0,0,168,
scooby_state_407d96|43|-2 0,0,0,168,0,0,0,0,0,0,0,0,0,0,0,168,
scooby_state_407d96|28|-2 0,0,0,168,0,0,0,0,0,0,0,0,0,0,0,168,
scooby_state_407d96|33|-2 0,0,0,168,0,0,0,0,0,0,0,0,0,0,0,168,
scooby_state_407d96|10|-2 0,0,0,168,0,0,0,0,0,0,0,0,0,0,0,168,
scooby_state_407d96|23|-2 0,0,0,168,0,0,0,0,0,0,0,0,0,0,0,168,
scooby_state_422013|19|1 0,0,0,167,0,1,0,0,0,0,0,0,0,0,0,168,
scooby_state_407d96|29|-2 0,0,0,168,0,0,0,0,0,0,0,0,0,0,0,168,
scooby_state_407d96|18|-2 0,0,0,168,0,0,0,0,0,0,0,0,0,0,0,168,
scooby_state_407cf3|61|1 167,0,1,0,0,0,0,0,0,0,0,0,0,0,0,168,
scooby_state_407d96|0|-2 0,0,0,168,0,0,0,0,0,0,0,0,0,0,0,168,
scooby_state_407d96|38|-2 0,0,0,168,0,0,0,0,0,0,0,0,0,0,0,168,
scooby_state_407d96|15|-2 0,0,0,168,0,0,0,0,0,0,0,0,0,0,0,168,
scooby_state_407d96|25|-2 1,0,0,167,0,0,0,0,0,0,0,0,0,0,0,168,
scooby_state_407d96|4|-2 0,0,0,168,0,0,0,0,0,0,0,0,0,0,0,168,
scooby_state_407d96|63|1 2,0,0,166,0,0,0,0,0,0,0,0,0,0,0,168,
scooby_state_407d86|63|1 3,0,0,0,165,0,0,0,0,0,0,0,0,0,0,168,
scooby_state_407d96|30|-2 0,0,0,168,0,0,0,0,0,0,0,0,0,0,0,168,
scooby_state_407d96|35|-2 0,0,0,168,0,0,0,0,0,0,0,0,0,0,0,168,
scooby_state_407d96|53|-2 0,0,0,168,0,0,0,0,0,0,0,0,0,0,0,168,
scooby_state_407d96|13|-2 0,0,0,168,0,0,0,0,0,0,0,0,0,0,0,168,
scooby_state_407d96|20|-2 0,0,0,168,0,0,0,0,0,0,0,0,0,0,0,168,
scooby_state_407d96|54|-2 0,0,0,168,0,0,0,0,0,0,0,0,0,0,0,168,
scooby_state_407d96|40|-2 0,0,0,168,0,0,0,0,0,0,0,0,0,0,0,168,
scooby_state_407d96|58|-2 0,0,0,168,0,0,0,0,0,0,0,0,0,0,0,168,
scooby_state_407d96|1|-2 0,0,0,168,0,0,0,0,0,0,0,0,0,0,0,168,
scooby_state_421ee8|19|1 157,3,0,7,0,0,0,0,0,0,0,0,0,0,0,167,
scooby_state_407c86|5|1 165,1,0,0,0,1,0,0,0,0,0,0,0,0,0,167,
scooby_state_407c86|44|1 166,0,0,0,0,0,1,0,0,0,0,0,0,0,0,167,
scooby_state_407c8e|13|1 167,0,0,0,0,0,0,0,0,0,0,0,0,0,0,167,
scooby_state_407db7|15|3 0,167,0,0,0,0,0,0,0,0,0,0,0,0,0,167,
scooby_state_407d96|24|-2 0,0,0,166,0,0,0,0,0,0,0,0,0,1,0,167,
scooby_state_407d96|52|-2 1,0,0,166,0,0,0,0,0,0,0,0,0,0,0,167,
scooby_state_407c8e|40|1 166,0,0,0,0,0,0,0,0,0,0,0,1,0,0,167,
scooby_state_407db7|49|3 0,167,0,0,0,0,0,0,0,0,0,0,0,0,0,167,
scooby_state_407c96|61|1 0,167,0,0,0,0,0,0,0,0,0,0,0,0,0,167,
scooby_state_407cb3|25|0 166,0,0,0,0,0,0,0,0,0,0,0,0,0,0,166,
scooby_state_407c8e|17|1 165,0,0,1,0,0,0,0,0,0,0,0,0,0,0,166,
scooby_state_422013|48|1 0,0,0,166,0,0,0,0,0,0,0,0,0,0,0,166,
scooby_state_407db7|10|3 0,166,0,0,0,0,0,0,0,0,0,0,0,0,0,166,
scooby_state_407c96|4|1 0,165,0,0,0,0,0,0,0,0,0,1,0,0,0,166,
scooby_state_407cae|25|0 166,0,0,0,0,0,0,0,0,0,0,0,0,0,0,166,
scooby_state_407db7|54|3 0,166,0,0,0,0,0,0,0,0,0,0,0,0,0,166,
scooby_state_421ee8|20|1 154,6,0,5,0,0,0,0,0,0,0,0,0,0,0,165,
scooby_state_407cf3|14|1 165,0,0,0,0,0,0,0,0,0,0,0,0,0,0,165,
scooby_state_407c8e|56|1 164,0,0,0,0,0,0,0,0,0,0,1,0,0,0,165,
scooby_state_422013|18|1 0,0,0,165,0,0,0,0,0,0,0,0,0,0,0,165,
scooby_state_407cf3|40|1 165,0,0,0,0,0,0,0,0,0,0,0,0,0,0,165,
scooby_state_4268c5|31|1 164,0,0,0,0,0,0,0,0,0,0,0,0,0,0,164,
scooby_state_4268c5|63|1 164,0,0,0,0,0,0,0,0,0,0,0,0,0,0,164,
scooby_state_407c86|3|1 163,1,0,0,0,0,0,0,0,0,0,0,0,0,0,164,
scooby_state_421ee8|34|1 153,4,0,7,0,0,0,0,0,0,0,0,0,0,0,164,
scooby_state_402350|0|0 162,0,0,0,0,0,1,0,0,0,0,0,0,0,0,163,
scooby_state_407cf3|45|1 163,0,0,0,0,0,0,0,0,0,0,0,0,0,0,163,
scooby_state_421ee8|25|1 154,3,0,5,0,0,0,0,0,0,0,0,0,0,0,162,
scooby_state_407c86|59|1 161,0,0,0,0,0,1,0,0,0,0,0,0,0,0,162,
scooby_state_407c8e|47|1 161,0,1,0,0,0,0,0,0,0,0,0,0,0,0,162,
scooby_state_421ee8|26|1 154,5,0,3,0,0,0,0,0,0,0,0,0,0,0,162,
scooby_state_407cae|26|0 161,0,0,0,0,0,0,0,0,0,0,0,0,0,0,161,
scooby_state_407cf3|6|1 161,0,0,0,0,0,0,0,0,0,0,0,0,0,0,161,
scooby_state_421ee8|16|1 151,5,0,5,0,0,0,0,0,0,0,0,0,0,0,161,
scooby_state_421ee8|41|1 151,3,0,6,0,1,0,0,0,0,0,0,0,0,0,161,
scooby_state_422013|49|1 0,0,0,161,0,0,0,0,0,0,0,0,0,0,0,161,
scooby_state_407cb3|26|0 161,0,0,0,0,0,0,0,0,0,0,0,0,0,0,161,
scooby_state_407c96|5|1 0,159,0,0,0,0,0,0,1,0,0,0,0,0,0,160,
scooby_state_4268c5|62|1 160,0,0,0,0,0,0,0,0,0,0,0,0,0,0,160,
scooby_state_422013|42|1 0,0,0,160,0,0,0,0,0,0,0,0,0,0,0,160,
scooby_state_4268c5|30|1 159,0,0,0,0,0,0,1,0,0,0,0,0,0,0,160,
scooby_state_4268c5|1|1 160,0,0,0,0,0,0,0,0,0,0,0,0,0,0,160,
scooby_state_4268c5|27|1 160,0,0,0,0,0,0,0,0,0,0,0,0,0,0,160,
scooby_state_407c8e|29|1 160,0,0,0,0,0,0,0,0,0,0,0,0,0,0,160,
scooby_state_4268c5|38|1 160,0,0,0,0,0,0,0,0,0,0,0,0,0,0,160,
scooby_state_407cf3|50|1 160,0,0,0,0,0,0,0,0,0,0,0,0,0,0,160,
scooby_state_421ee8|36|1 149,4,0,7,0,0,0,0,0,0,0,0,0,0,0,160,
scooby_state_4268c5|6|1 160,0,0,0,0,0,0,0,0,0,0,0,0,0,0,160,
scooby_state_4268c5|59|1 160,0,0,0,0,0,0,0,0,0,0,0,0,0,0,160,
scooby_state_422013|47|1 1,0,0,156,1,1,0,0,0,0,1,0,0,0,0,160,
scooby_state_407c86|63|1 159,1,0,0,0,0,0,0,0,0,0,0,0,0,0,160,
scooby_state_407c8e|62|1 159,0,0,0,0,1,0,0,0,0,0,0,0,0,0,160,
scooby_state_407c8e|46|1 159,0,0,0,0,0,0,0,0,0,0,0,0,0,0,159,
scooby_state_407c8e|3|1 159,0,0,0,0,0,0,0,0,0,0,0,0,0,0,159,
scooby_state_421ee8|35|1 146,6,0,7,0,0,0,0,0,0,0,0,0,0,0,159,
scooby_state_407c8e|48|1 159,0,0,0,0,0,0,0,0,0,0,0,0,0,0,159,
scooby_state_422003|31|1 67,92,0,0,0,0,0,0,0,0,0,0,0,0,0,159,
scooby_state_422003|29|1 51,108,0,0,0,0,0,0,0,0,0,0,0,0,0,159,
scooby_state_407c8e|42|1 156,0,0,0,0,1,0,0,0,0,0,0,0,1,0,158,
scooby_state_407cf3|19|1 157,0,0,0,0,0,0,0,0,1,0,0,0,0,0,158,
scooby_state_407c8e|30|1 158,0,0,0,0,0,0,0,0,0,0,0,0,0,0,158,
scooby_state_407cf3|46|1 158,0,0,0,0,0,0,0,0,0,0,0,0,0,0,158,
scooby_state_407c8e|21|1 158,0,0,0,0,0,0,0,0,0,0,0,0,0,0,158,
scooby_state_407cb3|19|0 156,0,0,0,0,0,0,0,0,0,0,0,0,1,0,157,
scooby_state_407c96|50|1 0,156,0,0,0,0,0,0,0,1,0,0,0,0,0,157,
scooby_state_412104|40|0 100,10,3,2,1,2,3,3,1,1,3,14,3,2,9,157,
scooby_state_407c96|22|1 0,157,0,0,0,0,0,0,0,0,0,0,0,0,0,157,
scooby_state_407cae|19|0 157,0,0,0,0,0,0,0,0,0,0,0,0,0,0,157,
scooby_state_4268c5|0|0 156,0,0,0,0,0,0,0,0,0,0,0,0,0,0,156,
scooby_state_4268c5|52|1 156,0,0,0,0,0,0,0,0,0,0,0,0,0,0,156,
scooby_state_407d96|57|-2 0,0,0,156,0,0,0,0,0,0,0,0,0,0,0,156,
scooby_state_4268c5|42|1 156,0,0,0,0,0,0,0,0,0,0,0,0,0,0,156,
scooby_state_4268c5|47|1 156,0,0,0,0,0,0,0,0,0,0,0,0,0,0,156,
scooby_state_407cb3|12|0 156,0,0,0,0,0,0,0,0,0,0,0,0,0,0,156,
scooby_state_407c86|10|1 155,0,0,0,0,0,1,0,0,0,0,0,0,0,0,156,
scooby_state_4268c5|9|1 156,0,0,0,0,0,0,0,0,0,0,0,0,0,0,156,
scooby_state_407d86|48|-2 0,0,0,0,154,0,0,0,0,0,0,2,0,0,0,156,
scooby_state_407d96|8|-2 0,0,0,156,0,0,0,0,0,0,0,0,0,0,0,156,
scooby_state_407d86|33|-2 0,0,0,0,154,0,0,0,0,0,0,2,0,0,0,156,
scooby_state_4268c5|17|1 155,0,1,0,0,0,0,0,0,0,0,0,0,0,0,156,
scooby_state_407d86|43|-2 0,0,0,0,153,0,1,0,0,0,0,2,0,0,0,156,
scooby_state_4268c5|18|1 156,0,0,0,0,0,0,0,0,0,0,0,0,0,0,156,
scooby_state_407d86|53|-2 1,0,0,0,153,0,0,0,0,0,0,2,0,0,0,156,
scooby_state_407d96|34|-2 0,0,1,155,0,0,0,0,0,0,0,0,0,0,0,156,
scooby_state_421ee8|14|1 148,4,0,3,0,0,0,1,0,0,0,0,0,0,0,156,
scooby_state_4268c5|15|1 155,0,0,0,0,0,0,0,0,0,0,0,0,1,0,156,
scooby_state_4268c5|16|1 156,0,0,0,0,0,0,0,0,0,0,0,0,0,0,156,
scooby_state_4268c5|20|1 156,0,0,0,0,0,0,0,0,0,0,0,0,0,0,156,
scooby_state_4268c5|29|1 156,0,0,0,0,0,0,0,0,0,0,0,0,0,0,156,
scooby_state_4268c5|32|1 156,0,0,0,0,0,0,0,0,0,0,0,0,0,0,156,
scooby_state_407d96|26|-2 0,0,0,156,0,0,0,0,0,0,0,0,0,0,0,156,
scooby_state_407d96|19|-2 0,0,0,156,0,0,0,0,0,0,0,0,0,0,0,156,
scooby_state_407c96|45|1 0,156,0,0,0,0,0,0,0,0,0,0,0,0,0,156,
scooby_state_407d96|9|-2 0,0,0,156,0,0,0,0,0,0,0,0,0,0,0,156,
scooby_state_4268c5|40|1 156,0,0,0,0,0,0,0,0,0,0,0,0,0,0,156,
scooby_state_407d96|50|-2 1,0,0,155,0,0,0,0,0,0,0,0,0,0,0,156,
scooby_state_407d96|44|-2 0,0,0,156,0,0,0,0,0,0,0,0,0,0,0,156,
scooby_state_4268c5|41|1 156,0,0,0,0,0,0,0,0,0,0,0,0,0,0,156,
scooby_state_407c86|45|1 155,0,0,0,0,0,1,0,0,0,0,0,0,0,0,156,
scooby_state_407d96|6|-2 0,0,0,155,0,0,0,0,0,0,0,1,0,0,0,156,
scooby_state_4268c5|46|1 155,0,0,0,0,1,0,0,0,0,0,0,0,0,0,156,
scooby_state_407d96|60|-2 0,0,0,156,0,0,0,0,0,0,0,0,0,0,0,156,
scooby_state_4268c5|50|1 155,0,0,0,0,0,0,0,0,0,0,0,0,0,1,156,
scooby_state_407d96|39|-2 0,0,0,156,0,0,0,0,0,0,0,0,0,0,0,156,
scooby_state_4268c5|48|1 155,0,0,0,0,0,0,0,0,1,0,0,0,0,0,156,
scooby_state_407d96|16|-2 0,0,0,156,0,0,0,0,0,0,0,0,0,0,0,156,
scooby_state_4268c5|10|1 155,0,0,1,0,0,0,0,0,0,0,0,0,0,0,156,
scooby_state_407d96|11|-2 0,0,0,156,0,0,0,0,0,0,0,0,0,0,0,156,
scooby_state_4268c5|58|1 156,0,0,0,0,0,0,0,0,0,0,0,0,0,0,156,
scooby_state_421ee8|38|1 145,6,0,5,0,0,0,0,0,0,0,0,0,0,0,156,
scooby_state_407d96|59|-2 0,0,0,156,0,0,0,0,0,0,0,0,0,0,0,156,
scooby_state_4268c5|26|1 155,0,0,0,0,0,0,0,1,0,0,0,0,0,0,156,
scooby_state_407d96|21|-2 0,0,0,156,0,0,0,0,0,0,0,0,0,0,0,156,
scooby_state_4268c5|8|1 156,0,0,0,0,0,0,0,0,0,0,0,0,0,0,156,
scooby_state_4268c5|49|1 156,0,0,0,0,0,0,0,0,0,0,0,0,0,0,156,
scooby_state_407d96|37|-2 0,0,0,156,0,0,0,0,0,0,0,0,0,0,0,156,
scooby_state_407d96|14|-2 0,0,0,156,0,0,0,0,0,0,0,0,0,0,0,156,
scooby_state_407d86|38|-2 0,0,0,0,154,0,0,0,0,0,0,2,0,0,0,156,
scooby_state_407d96|5|-2 0,0,0,156,0,0,0,0,0,0,0,0,0,0,0,156,
scooby_state_407d86|28|-2 0,0,0,0,154,0,0,0,0,0,0,2,0,0,0,156,
scooby_state_407d86|18|-2 1,0,0,0,152,0,0,0,0,0,0,3,0,0,0,156,
scooby_state_4268c5|33|1 156,0,0,0,0,0,0,0,0,0,0,0,0,0,0,156,
scooby_state_407d86|23|-2 0,0,0,0,154,0,0,0,0,0,0,2,0,0,0,156,
scooby_state_407d96|47|-2 0,0,0,156,0,0,0,0,0,0,0,0,0,0,0,156,
scooby_state_407d96|27|-2 0,0,0,155,1,0,0,0,0,0,0,0,0,0,0,156,
scooby_state_407d96|3|-2 0,0,0,156,0,0,0,0,0,0,0,0,0,0,0,156,
scooby_state_407cae|12|0 156,0,0,0,0,0,0,0,0,0,0,0,0,0,0,156,
scooby_state_407d96|48|-2 0,0,0,156,0,0,0,0,0,0,0,0,0,0,0,156,
scooby_state_407d86|40|-2 0,0,0,0,154,0,0,0,0,0,0,2,0,0,0,156,
scooby_state_407d96|55|-2 0,0,0,156,0,0,0,0,0,0,0,0,0,0,0,156,
scooby_state_407d86|49|-2 0,0,0,0,154,0,0,0,0,0,0,2,0,0,0,156,
scooby_state_4268c5|61|1 156,0,0,0,0,0,0,0,0,0,0,0,0,0,0,156,
scooby_state_4268c5|14|1 156,0,0,0,0,0,0,0,0,0,0,0,0,0,0,156,
scooby_state_407d96|45|-2 0,0,0,156,0,0,0,0,0,0,0,0,0,0,0,156,
scooby_state_422003|42|1 65,89,0,0,0,0,0,0,0,0,1,0,0,0,0,155,
scooby_state_407d86|1|-2 0,0,0,0,153,0,0,0,0,0,0,2,0,0,0,155,
scooby_state_407d86|29|-2 0,0,0,0,153,0,0,0,0,0,0,2,0,0,0,155,
scooby_state_407c8e|58|1 155,0,0,0,0,0,0,0,0,0,0,0,0,0,0,155,
scooby_state_407c86|4|1 154,1,0,0,0,0,0,0,0,0,0,0,0,0,0,155,
scooby_state_407cf3|17|1 155,0,0,0,0,0,0,0,0,0,0,0,0,0,0,155,
scooby_state_407d86|30|-2 0,0,0,0,153,0,0,0,0,0,0,2,0,0,0,155,
scooby_state_407d86|54|-2 0,0,0,0,153,0,0,0,0,0,0,2,0,0,0,155,
[...]
scooby_state_411a54|33|17 1,0,0,0,0,0,0,0,0,0,0,0,0,0,0,1,
scooby_state_40a720|28|3 0,1,0,0,0,0,0,0,0,0,0,0,0,0,0,1,
scooby_state_412104|15|-19 1,0,0,0,0,0,0,0,0,0,0,0,0,0,0,1,
scooby_state_41bd26|59|41 0,0,0,0,0,0,0,0,0,0,0,0,0,0,1,1,
scooby_state_4020e0|3|2 1,0,0,0,0,0,0,0,0,0,0,0,0,0,0,1,
scooby_state_44a8cb|17|-14 1,0,0,0,0,0,0,0,0,0,0,0,0,0,0,1,
scooby_state_412182|51|-12 0,0,1,0,0,0,0,0,0,0,0,0,0,0,0,1,
scooby_state_417367|15|-21 0,0,0,0,0,0,0,0,0,0,0,1,0,0,0,1,
scooby_state_44a916|24|13 0,0,0,0,0,0,0,1,0,0,0,0,0,0,0,1,
scooby_state_411a54|23|-20 0,1,0,0,0,0,0,0,0,0,0,0,0,0,0,1,
scooby_state_41735b|14|-26 1,0,0,0,0,0,0,0,0,0,0,0,0,0,0,1,
scooby_state_417091|46|1 0,0,0,1,0,0,0,0,0,0,0,0,0,0,0,1,
scooby_state_405724|28|7 0,1,0,0,0,0,0,0,0,0,0,0,0,0,0,1,
scooby_state_4176a0|44|24 1,0,0,0,0,0,0,0,0,0,0,0,0,0,0,1,
scooby_state_412235|13|-29 0,0,0,0,0,1,0,0,0,0,0,0,0,0,0,1,
scooby_state_407cb3|5|4 1,0,0,0,0,0,0,0,0,0,0,0,0,0,0,1,
scooby_state_417b1f|34|-6 0,1,0,0,0,0,0,0,0,0,0,0,0,0,0,1,
scooby_state_41704f|10|-29 1,0,0,0,0,0,0,0,0,0,0,0,0,0,0,1,
scooby_state_407c8e|60|14 1,0,0,0,0,0,0,0,0,0,0,0,0,0,0,1,
scooby_state_411a54|20|-36 1,0,0,0,0,0,0,0,0,0,0,0,0,0,0,1,
scooby_state_412235|7|0 1,0,0,0,0,0,0,0,0,0,0,0,0,0,0,1,
scooby_state_417963|11|-50 1,0,0,0,0,0,0,0,0,0,0,0,0,0,0,1,
scooby_state_401e8a|5|1 1,0,0,0,0,0,0,0,0,0,0,0,0,0,0,1,
scooby_state_407c86|30|16 1,0,0,0,0,0,0,0,0,0,0,0,0,0,0,1,
scooby_state_44a916|3|3 1,0,0,0,0,0,0,0,0,0,0,0,0,0,0,1,
scooby_state_41bd26|60|9 0,0,0,0,0,0,0,0,0,0,0,0,0,0,1,1,
scooby_state_462078|31|-1 1,0,0,0,0,0,0,0,0,0,0,0,0,0,0,1,
scooby_state_407ca8|37|0 1,0,0,0,0,0,0,0,0,0,0,0,0,0,0,1,
scooby_state_417963|1|-7 0,1,0,0,0,0,0,0,0,0,0,0,0,0,0,1,
scooby_state_423339|46|5 1,0,0,0,0,0,0,0,0,0,0,0,0,0,0,1,
scooby_state_41bd26|38|19 0,0,0,0,0,0,0,0,0,0,0,0,0,0,1,1,
scooby_state_41704f|32|0 1,0,0,0,0,0,0,0,0,0,0,0,0,0,0,1,
scooby_state_421ee4|57|8 1,0,0,0,0,0,0,0,0,0,0,0,0,0,0,1,
scooby_state_403fa7|29|-18 1,0,0,0,0,0,0,0,0,0,0,0,0,0,0,1,
scooby_state_412069|31|-10 0,0,0,0,1,0,0,0,0,0,0,0,0,0,0,1,
scooby_state_412109|59|51 1,0,0,0,0,0,0,0,0,0,0,0,0,0,0,1,
scooby_state_4c4340|13|0 1,0,0,0,0,0,0,0,0,0,0,0,0,0,0,1,
scooby_state_412035|57|-2 1,0,0,0,0,0,0,0,0,0,0,0,0,0,0,1,
scooby_state_417b18|55|42 0,0,0,0,0,0,0,0,0,0,0,1,0,0,0,1,
scooby_state_41a53d|20|1 0,0,1,0,0,0,0,0,0,0,0,0,0,0,0,1,
scooby_state_49d1f5|7|1 1,0,0,0,0,0,0,0,0,0,0,0,0,0,0,1,
scooby_state_41bd26|19|-39 1,0,0,0,0,0,0,0,0,0,0,0,0,0,0,1,
scooby_state_402709|61|3 1,0,0,0,0,0,0,0,0,0,0,0,0,0,0,1,
scooby_state_41a3c7|50|1 1,0,0,0,0,0,0,0,0,0,0,0,0,0,0,1,
scooby_state_417b35|5|2 1,0,0,0,0,0,0,0,0,0,0,0,0,0,0,1,
scooby_state_4176f1|44|-12 1,0,0,0,0,0,0,0,0,0,0,0,0,0,0,1,
scooby_state_407cb3|47|25 1,0,0,0,0,0,0,0,0,0,0,0,0,0,0,1,
scooby_state_417939|14|4 0,0,0,0,0,0,0,0,0,0,0,1,0,0,0,1,
scooby_state_49d2c9|11|1 0,1,0,0,0,0,0,0,0,0,0,0,0,0,0,1,
scooby_state_41bd26|12|-24 0,1,0,0,0,0,0,0,0,0,0,0,0,0,0,1,
scooby_state_44a8cb|61|-1 0,1,0,0,0,0,0,0,0,0,0,0,0,0,0,1,
scooby_state_41bd00|52|0 1,0,0,0,0,0,0,0,0,0,0,0,0,0,0,1,
scooby_state_417946|20|0 1,0,0,0,0,0,0,0,0,0,0,0,0,0,0,1,
scooby_state_409f98|44|2 1,0,0,0,0,0,0,0,0,0,0,0,0,0,0,1,
scooby_state_41bd26|58|3 0,0,0,0,0,0,0,0,0,0,0,0,0,0,1,1,
scooby_state_407cb3|40|14 1,0,0,0,0,0,0,0,0,0,0,0,0,0,0,1,
scooby_state_41bd26|47|45 0,1,0,0,0,0,0,0,0,0,0,0,0,0,0,1,
scooby_state_412182|5|-8 1,0,0,0,0,0,0,0,0,0,0,0,0,0,0,1,
scooby_state_402978|37|12 1,0,0,0,0,0,0,0,0,0,0,0,0,0,0,1,
scooby_state_422017|14|-8 1,0,0,0,0,0,0,0,0,0,0,0,0,0,0,1,
scooby_state_417b18|18|5 0,0,0,0,0,0,0,0,0,0,0,1,0,0,0,1,
scooby_state_417091|29|1 0,0,0,1,0,0,0,0,0,0,0,0,0,0,0,1,
scooby_state_407cf3|54|15 1,0,0,0,0,0,0,0,0,0,0,0,0,0,0,1,
scooby_state_411a54|27|2 0,0,0,0,1,0,0,0,0,0,0,0,0,0,0,1,
scooby_state_41bd26|38|7 1,0,0,0,0,0,0,0,0,0,0,0,0,0,0,1,
scooby_state_41735b|18|-38 0,1,0,0,0,0,0,0,0,0,0,0,0,0,0,1,
scooby_state_41bd26|17|17 1,0,0,0,0,0,0,0,0,0,0,0,0,0,0,1,
scooby_state_417b27|8|-40 0,1,0,0,0,0,0,0,0,0,0,0,0,0,0,1,
scooby_state_412109|7|5 1,0,0,0,0,0,0,0,0,0,0,0,0,0,0,1,
scooby_state_44a8cb|59|24 0,0,0,0,1,0,0,0,0,0,0,0,0,0,0,1,
scooby_state_4176a0|63|25 1,0,0,0,0,0,0,0,0,0,0,0,0,0,0,1,
scooby_state_400380|0|-54 1,0,0,0,0,0,0,0,0,0,0,0,0,0,0,1,
scooby_state_422000|34|23 1,0,0,0,0,0,0,0,0,0,0,0,0,0,0,1,
scooby_state_41df60|61|43 0,0,0,0,1,0,0,0,0,0,0,0,0,0,0,1,
scooby_state_41796e|30|22 0,0,0,0,0,0,0,0,1,0,0,0,0,0,0,1,
scooby_state_407cf3|39|17 1,0,0,0,0,0,0,0,0,0,0,0,0,0,0,1,
scooby_state_44a916|25|-3 1,0,0,0,0,0,0,0,0,0,0,0,0,0,0,1,
scooby_state_44a905|0|-24 0,0,0,1,0,0,0,0,0,0,0,0,0,0,0,1,
scooby_state_407c8e|48|16 1,0,0,0,0,0,0,0,0,0,0,0,0,0,0,1,
scooby_state_41bd26|8|-51 1,0,0,0,0,0,0,0,0,0,0,0,0,0,0,1,
scooby_state_417b18|53|30 1,0,0,0,0,0,0,0,0,0,0,0,0,0,0,1,
scooby_state_417358|1|-13 1,0,0,0,0,0,0,0,0,0,0,0,0,0,0,1,
scooby_state_417b1f|5|-47 0,1,0,0,0,0,0,0,0,0,0,0,0,0,0,1,
scooby_state_417939|8|1 0,0,0,0,0,0,0,0,0,0,0,1,0,0,0,1,
scooby_state_41204e|35|-25 1,0,0,0,0,0,0,0,0,0,0,0,0,0,0,1,
scooby_state_412109|18|-40 1,0,0,0,0,0,0,0,0,0,0,0,0,0,0,1,
scooby_state_42da03|40|1 0,0,0,1,0,0,0,0,0,0,0,0,0,0,0,1,
scooby_state_4176d7|34|-4 0,0,0,0,0,0,0,0,0,0,0,1,0,0,0,1,
scooby_state_412109|63|38 0,0,0,0,1,0,0,0,0,0,0,0,0,0,0,1,
scooby_state_41bd26|25|-24 1,0,0,0,0,0,0,0,0,0,0,0,0,0,0,1,
scooby_state_41a53d|15|0 1,0,0,0,0,0,0,0,0,0,0,0,0,0,0,1,
scooby_state_44a916|48|-14 1,0,0,0,0,0,0,0,0,0,0,0,0,0,0,1,
scooby_state_41bd26|20|-20 0,0,0,0,1,0,0,0,0,0,0,0,0,0,0,1,
scooby_state_4176d7|48|-10 0,0,0,0,0,0,0,0,0,0,0,1,0,0,0,1,
scooby_state_412038|18|-1 0,1,0,0,0,0,0,0,0,0,0,0,0,0,0,1,
scooby_state_44a8cb|3|-24 1,0,0,0,0,0,0,0,0,0,0,0,0,0,0,1,
scooby_state_417b1f|46|23 1,0,0,0,0,0,0,0,0,0,0,0,0,0,0,1,
scooby_state_44a916|6|-37 0,0,0,0,0,0,0,0,0,0,0,1,0,0,0,1,
scooby_state_407c86|33|19 1,0,0,0,0,0,0,0,0,0,0,0,0,0,0,1,
scooby_state_44a8b6|33|24 1,0,0,0,0,0,0,0,0,0,0,0,0,0,0,1,
scooby_state_41bd26|30|29 0,0,0,0,0,0,0,0,0,0,0,0,0,0,1,1,
scooby_state_411a54|22|-17 0,1,0,0,0,0,0,0,0,0,0,0,0,0,0,1,
scooby_state_407c96|41|14 0,1,0,0,0,0,0,0,0,0,0,0,0,0,0,1,
scooby_state_44a916|56|4 1,0,0,0,0,0,0,0,0,0,0,0,0,0,0,1,
scooby_state_402350|59|39 1,0,0,0,0,0,0,0,0,0,0,0,0,0,0,1,
scooby_state_4176d7|20|-25 0,0,0,0,0,0,0,0,0,0,0,1,0,0,0,1,
scooby_state_44a916|29|-8 1,0,0,0,0,0,0,0,0,0,0,0,0,0,0,1,
scooby_state_41bd26|13|-39 1,0,0,0,0,0,0,0,0,0,0,0,0,0,0,1,
scooby_state_417939|46|17 0,0,0,0,0,0,0,0,0,0,0,1,0,0,0,1,
scooby_state_463608|53|1 0,0,0,0,0,0,0,0,0,0,0,1,0,0,0,1,
scooby_state_411a54|22|-20 0,1,0,0,0,0,0,0,0,0,0,0,0,0,0,1,
scooby_state_4247f4|29|2 0,0,0,0,0,0,0,0,0,0,0,1,0,0,0,1,
scooby_state_44a916|16|-18 0,0,0,0,0,0,0,1,0,0,0,0,0,0,0,1,
scooby_state_407c86|55|22 1,0,0,0,0,0,0,0,0,0,0,0,0,0,0,1,
scooby_state_411a54|9|-27 0,1,0,0,0,0,0,0,0,0,0,0,0,0,0,1,
scooby_state_4176d7|7|-47 0,0,0,0,0,0,0,0,0,0,0,1,0,0,0,1,
scooby_state_41704f|29|5 1,0,0,0,0,0,0,0,0,0,0,0,0,0,0,1,
scooby_state_44a8b6|20|-16 1,0,0,0,0,0,0,0,0,0,0,0,0,0,0,1,
scooby_state_41f889|50|1 1,0,0,0,0,0,0,0,0,0,0,0,0,0,0,1,
scooby_state_417939|6|-46 0,0,0,0,0,0,0,0,0,0,0,1,0,0,0,1,
scooby_state_407cf3|57|10 1,0,0,0,0,0,0,0,0,0,0,0,0,0,0,1,
scooby_state_407c96|41|0 0,1,0,0,0,0,0,0,0,0,0,0,0,0,0,1,
scooby_state_4176d7|27|-29 0,0,0,0,0,0,0,0,0,0,0,1,0,0,0,1,
scooby_state_4176d7|32|-16 0,0,0,0,0,0,0,0,0,0,0,1,0,0,0,1,
scooby_state_42df20|60|32 0,1,0,0,0,0,0,0,0,0,0,0,0,0,0,1,
scooby_state_41704c|21|-3 0,1,0,0,0,0,0,0,0,0,0,0,0,0,0,1,
scooby_state_407c8e|38|22 1,0,0,0,0,0,0,0,0,0,0,0,0,0,0,1,
scooby_state_41fd34|54|2 1,0,0,0,0,0,0,0,0,0,0,0,0,0,0,1,
scooby_state_411a54|5|1 0,0,0,0,1,0,0,0,0,0,0,0,0,0,0,1,
scooby_state_49c7e4|31|13 0,1,0,0,0,0,0,0,0,0,0,0,0,0,0,1,
scooby_state_44a905|4|-25 0,1,0,0,0,0,0,0,0,0,0,0,0,0,0,1,
scooby_state_422000|36|28 1,0,0,0,0,0,0,0,0,0,0,0,0,0,0,1,
scooby_state_44a916|26|-10 1,0,0,0,0,0,0,0,0,0,0,0,0,0,0,1,
scooby_state_407c8e|58|26 1,0,0,0,0,0,0,0,0,0,0,0,0,0,0,1,
scooby_state_4176d3|59|25 1,0,0,0,0,0,0,0,0,0,0,0,0,0,0,1,
scooby_state_417946|27|15 1,0,0,0,0,0,0,0,0,0,0,0,0,0,0,1,
scooby_state_407cae|47|44 1,0,0,0,0,0,0,0,0,0,0,0,0,0,0,1,
scooby_state_41704f|16|5 0,0,0,0,0,0,0,0,0,0,0,1,0,0,0,1,
scooby_state_411a54|52|1 0,0,0,0,1,0,0,0,0,0,0,0,0,0,0,1,
scooby_state_423390|14|0 0,0,0,0,0,0,0,0,0,0,0,1,0,0,0,1,
scooby_state_407cae|44|44 1,0,0,0,0,0,0,0,0,0,0,0,0,0,0,1,
scooby_state_42d580|22|1 1,0,0,0,0,0,0,0,0,0,0,0,0,0,0,1,
scooby_state_407cae|49|4 1,0,0,0,0,0,0,0,0,0,0,0,0,0,0,1,
scooby_state_41f8c0|35|1 1,0,0,0,0,0,0,0,0,0,0,0,0,0,0,1,
scooby_state_4178e0|19|-1 1,0,0,0,0,0,0,0,0,0,0,0,0,0,0,1,
scooby_state_422000|55|12 1,0,0,0,0,0,0,0,0,0,0,0,0,0,0,1,
scooby_state_412109|19|-13 1,0,0,0,0,0,0,0,0,0,0,0,0,0,0,1,
scooby_state_44a916|6|-6 1,0,0,0,0,0,0,0,0,0,0,0,0,0,0,1,
scooby_state_417b1f|11|5 1,0,0,0,0,0,0,0,0,0,0,0,0,0,0,1,
scooby_state_44a8b6|24|-3 1,0,0,0,0,0,0,0,0,0,0,0,0,0,0,1,
scooby_state_40f11d|17|0 0,0,0,0,0,0,1,0,0,0,0,0,0,0,0,1,
scooby_state_44a8b6|20|19 1,0,0,0,0,0,0,0,0,0,0,0,0,0,0,1,
scooby_state_44a916|28|19 0,0,0,0,0,0,0,0,0,0,0,1,0,0,0,1,
scooby_state_417b35|4|-22 1,0,0,0,0,0,0,0,0,0,0,0,0,0,0,1,
scooby_state_421ee8|39|14 1,0,0,0,0,0,0,0,0,0,0,0,0,0,0,1,
scooby_state_423380|14|0 1,0,0,0,0,0,0,0,0,0,0,0,0,0,0,1,
scooby_state_44a905|7|-21 0,0,0,0,0,0,0,0,0,0,0,1,0,0,0,1,
scooby_state_41796e|18|-25 0,0,0,0,1,0,0,0,0,0,0,0,0,0,0,1,
scooby_state_417b1f|18|6 1,0,0,0,0,0,0,0,0,0,0,0,0,0,0,1,
scooby_state_40d348|41|13 0,0,0,0,1,0,0,0,0,0,0,0,0,0,0,1,
scooby_state_41a53d|36|1 0,0,1,0,0,0,0,0,0,0,0,0,0,0,0,1,
scooby_state_405442|17|1 0,1,0,0,0,0,0,0,0,0,0,0,0,0,0,1,
scooby_state_438342|13|-29 1,0,0,0,0,0,0,0,0,0,0,0,0,0,0,1,
scooby_state_463542|21|1 0,0,0,0,0,0,0,0,0,0,0,0,1,0,0,1,
scooby_state_461918|52|1 0,0,0,0,1,0,0,0,0,0,0,0,0,0,0,1,
scooby_state_407d96|42|1 0,0,0,1,0,0,0,0,0,0,0,0,0,0,0,1,
scooby_state_412182|4|-24 1,0,0,0,0,0,0,0,0,0,0,0,0,0,0,1,
scooby_state_412031|36|-12 1,0,0,0,0,0,0,0,0,0,0,0,0,0,0,1,
scooby_state_412035|55|18 0,1,0,0,0,0,0,0,0,0,0,0,0,0,0,1,
scooby_state_407d80|53|1 1,0,0,0,0,0,0,0,0,0,0,0,0,0,0,1,
scooby_state_40efd9|37|8 1,0,0,0,0,0,0,0,0,0,0,0,0,0,0,1,
scooby_state_41ff25|18|0 1,0,0,0,0,0,0,0,0,0,0,0,0,0,0,1,
scooby_state_411a54|6|-55 0,1,0,0,0,0,0,0,0,0,0,0,0,0,0,1,
scooby_state_421ee4|50|6 1,0,0,0,0,0,0,0,0,0,0,0,0,0,0,1,
scooby_state_41704f|1|-39 0,0,0,0,1,0,0,0,0,0,0,0,0,0,0,1,
scooby_state_41bd26|35|-16 1,0,0,0,0,0,0,0,0,0,0,0,0,0,0,1,
scooby_state_407c86|36|14 1,0,0,0,0,0,0,0,0,0,0,0,0,0,0,1,
scooby_state_421ee4|5|2 1,0,0,0,0,0,0,0,0,0,0,0,0,0,0,1,
scooby_state_423e45|31|2 0,1,0,0,0,0,0,0,0,0,0,0,0,0,0,1,
scooby_state_44a8cb|10|-36 0,0,0,0,0,0,1,0,0,0,0,0,0,0,0,1,
scooby_state_44a8cb|9|2 1,0,0,0,0,0,0,0,0,0,0,0,0,0,0,1,
scooby_state_412109|52|-10 1,0,0,0,0,0,0,0,0,0,0,0,0,0,0,1,
scooby_state_41bd26|50|33 0,0,0,1,0,0,0,0,0,0,0,0,0,0,0,1,
scooby_state_417b1f|56|23 1,0,0,0,0,0,0,0,0,0,0,0,0,0,0,1,
scooby_state_489224|8|2 1,0,0,0,0,0,0,0,0,0,0,0,0,0,0,1,
scooby_state_407c96|43|4 0,1,0,0,0,0,0,0,0,0,0,0,0,0,0,1,
scooby_state_412109|6|3 0,1,0,0,0,0,0,0,0,0,0,0,0,0,0,1,
scooby_state_417b1f|21|-5 1,0,0,0,0,0,0,0,0,0,0,0,0,0,0,1,
scooby_state_49ce03|56|1 1,0,0,0,0,0,0,0,0,0,0,0,0,0,0,1,
scooby_state_41bd26|2|-3 1,0,0,0,0,0,0,0,0,0,0,0,0,0,0,1,
scooby_state_42d801|32|1 1,0,0,0,0,0,0,0,0,0,0,0,0,0,0,1,
scooby_state_438442|17|1 0,0,0,0,0,0,0,0,0,0,0,1,0,0,0,1,
scooby_state_407cf3|44|15 1,0,0,0,0,0,0,0,0,0,0,0,0,0,0,1,
scooby_state_41fd34|56|4 1,0,0,0,0,0,0,0,0,0,0,0,0,0,0,1,
scooby_state_417939|27|15 0,0,0,0,0,0,0,0,0,0,0,1,0,0,0,1,
scooby_state_44a916|36|31 0,0,0,0,0,1,0,0,0,0,0,0,0,0,0,1,
scooby_state_411a54|23|12 1,0,0,0,0,0,0,0,0,0,0,0,0,0,0,1,
scooby_state_412182|3|-28 1,0,0,0,0,0,0,0,0,0,0,0,0,0,0,1,
scooby_state_427004|0|0 1,0,0,0,0,0,0,0,0,0,0,0,0,0,0,1,
scooby_state_41bd26|55|54 0,0,0,0,0,0,0,0,0,0,0,0,0,0,1,1,
scooby_state_437910|36|0 1,0,0,0,0,0,0,0,0,0,0,0,0,0,0,1,
scooby_state_49dde8|55|2 0,1,0,0,0,0,0,0,0,0,0,0,0,0,0,1,
scooby_state_417939|45|-6 0,0,0,0,0,0,0,0,0,0,0,1,0,0,0,1,
scooby_state_417b18|26|-12 0,0,0,0,0,0,0,0,0,0,0,1,0,0,0,1,
scooby_state_42dac3|43|-19 0,0,0,0,1,0,0,0,0,0,0,0,0,0,0,1,
scooby_state_44a916|14|-24 1,0,0,0,0,0,0,0,0,0,0,0,0,0,0,1,
scooby_state_411a54|57|10 0,1,0,0,0,0,0,0,0,0,0,0,0,0,0,1,
scooby_state_44a916|2|-34 1,0,0,0,0,0,0,0,0,0,0,0,0,0,0,1,
scooby_state_44a905|59|8 0,0,0,0,0,0,1,0,0,0,0,0,0,0,0,1,
scooby_state_411a54|49|48 0,0,0,0,1,0,0,0,0,0,0,0,0,0,0,1,
scooby_state_417963|2|2 1,0,0,0,0,0,0,0,0,0,0,0,0,0,0,1,
scooby_state_407c86|11|5 1,0,0,0,0,0,0,0,0,0,0,0,0,0,0,1,
scooby_state_42200f|19|-28 1,0,0,0,0,0,0,0,0,0,0,0,0,0,0,1,
scooby_state_44a905|2|-2 1,0,0,0,0,0,0,0,0,0,0,0,0,0,0,1,
scooby_state_411a54|47|37 0,1,0,0,0,0,0,0,0,0,0,0,0,0,0,1,

scooby_action_0_deg_dist 0,16252,0,0,0,0,0,0,0,0,0,0,0,0,0,0,
scooby_action_-6_deg_dist 0,5354,24,0,0,0,0,0,0,0,0,0,0,0,0,0,
scooby_action_4_deg_dist 0,5505,22,0,15,0,19,0,0,0,0,0,0,0,0,0,
scooby_action_1_deg_dist 0,184129,77026,0,136737,0,327430,0,0,0,0,0,0,0,0,0,
scooby_action_30_deg_dist 0,3404,3,0,0,0,0,0,0,0,0,0,0,0,0,0,
scooby_action_5_deg_dist 0,15097,2873,0,4573,0,5468,0,0,0,0,0,0,0,0,0,
scooby_action_3_deg_dist 0,55545,11057,0,20443,0,139261,0,0,0,0,0,0,0,0,0,
scooby_action_32_deg_dist 0,3283,8,0,0,0,0,0,0,0,0,0,0,0,0,0,
scooby_action_10_deg_dist 0,22086,2724,0,5479,0,22450,0,0,0,0,0,0,0,0,0,
scooby_action_11_deg_dist 0,4909,17,0,0,0,0,0,0,0,0,0,0,0,0,0,
scooby_action_12_deg_dist 0,4437,12,0,13,0,18,0,0,0,0,0,0,0,0,0,
scooby_action_23_deg_dist 0,3889,5,0,0,0,0,0,0,0,0,0,0,0,0,0,
scooby_action_-1_deg_dist 0,25499,2592,0,669,0,2,0,0,0,0,0,0,0,0,0,
scooby_action_22_deg_dist 0,3937,15,0,0,0,0,0,0,0,0,0,0,0,0,0,
scooby_action_-3_deg_dist 0,5731,32,0,3,0,0,0,0,0,0,0,0,0,0,0,

scooby_track_called 1118047
scooby_track_same_address 41132
scooby_track_evict 1076659

scooby_reward_demand_called 1118047
scooby_reward_demand_pt_not_found 452160
scooby_reward_demand_pt_found 665887
scooby_reward_demand_pt_found_total 665887
scooby_reward_demand_has_reward 67
scooby_reward_train_called 370596
scooby_reward_assign_reward_called 1076757
scooby_reward_no_pref 16249
scooby_reward_incorrect 354347
scooby_reward_correct_untimely 532977
scooby_reward_correct_timely 132843
scooby_reward_out_of_bounds 40341
scooby_reward_tracker_hit 0

scooby_reward_none_low_bw 16249
scooby_reward_none_high_bw 0
scooby_reward_incorrect_low_bw 354347
scooby_reward_incorrect_high_bw 0
scooby_reward_correct_untimely_low_bw 532977
scooby_reward_correct_untimely_high_bw 0
scooby_reward_correct_timely_low_bw 132843
scooby_reward_correct_timely_high_bw 0
scooby_reward_out_of_bounds_low_bw 40341
scooby_reward_out_of_bounds_high_bw 0
scooby_reward_tracker_hit_low_bw 0
scooby_reward_tracker_hit_high_bw 0

scooby_reward_1 0,251761,354118,91546,11568,0,
scooby_reward_3 0,39426,137423,23938,10899,0,
scooby_reward_4 0,3961,543,103,331,0,
scooby_reward_5 0,9529,8085,6882,1962,0,
scooby_reward_10 0,13547,21346,8070,7681,0,
scooby_reward_11 0,3245,468,66,701,0,
scooby_reward_12 0,2835,341,65,738,0,
scooby_reward_22 0,2115,249,62,1161,0,
scooby_reward_23 0,2023,268,52,1206,0,
scooby_reward_30 0,1484,174,31,1440,0,
scooby_reward_32 0,1357,156,33,1508,0,
scooby_reward_-1 0,15045,8650,1882,481,0,
scooby_reward_-3 0,4232,598,75,222,0,
scooby_reward_-6 0,3787,558,38,443,0,
scooby_reward_0 16249,0,0,0,0,0,

scooby_train_called 1076658
scooby_train_compute_reward 370596

scooby_register_fill_called 925739
scooby_register_fill_set 230600
scooby_register_fill_set_total 230600

scooby_register_prefetch_hit_called 2454052
scooby_register_prefetch_hit_set 786217
scooby_register_prefetch_hit_set_total 786217

scooby_pref_issue_scooby 3597152

learning_engine_featurewise.action.called 1118047
learning_engine_featurewise.action.explore 2062
learning_engine_featurewise.action.exploit 1115985
learning_engine_featurewise.action.fallback 15086
learning_engine_featurewise.action.dyn_fallback_saved_bw 0
learning_engine_featurewise.action.dyn_fallback_saved_bw_acc 37353
learning_engine_featurewise.action.index_1_explored 136
learning_engine_featurewise.action.index_1_exploited 725186
learning_engine_featurewise.action.index_3_explored 148
learning_engine_featurewise.action.index_3_exploited 226158
learning_engine_featurewise.action.index_4_explored 143
learning_engine_featurewise.action.index_4_exploited 5418
learning_engine_featurewise.action.index_5_explored 133
learning_engine_featurewise.action.index_5_exploited 27878
learning_engine_featurewise.action.index_10_explored 150
learning_engine_featurewise.action.index_10_exploited 52589
learning_engine_featurewise.action.index_11_explored 133
learning_engine_featurewise.action.index_11_exploited 4793
learning_engine_featurewise.action.index_12_explored 140
learning_engine_featurewise.action.index_12_exploited 4340
learning_engine_featurewise.action.index_22_explored 145
learning_engine_featurewise.action.index_22_exploited 3807
learning_engine_featurewise.action.index_23_explored 138
learning_engine_featurewise.action.index_23_exploited 3756
learning_engine_featurewise.action.index_30_explored 147
learning_engine_featurewise.action.index_30_exploited 3260
learning_engine_featurewise.action.index_32_explored 119
learning_engine_featurewise.action.index_32_exploited 3172
learning_engine_featurewise.action.index_-1_explored 133
learning_engine_featurewise.action.index_-1_exploited 28629
learning_engine_featurewise.action.index_-3_explored 135
learning_engine_featurewise.action.index_-3_exploited 5631
learning_engine_featurewise.action.index_-6_explored 122
learning_engine_featurewise.action.index_-6_exploited 5256
learning_engine_featurewise.action.index_0_explored 140
learning_engine_featurewise.action.index_0_exploited 16112
learning_engine_featurewise.learn.called 1076658
learning_engine_featurewise.learn.su_skip_PC 0
learning_engine_featurewise.learn.su_skip_PC_Delta 0

learning_engine_featurewise.q_value_histogram.bucket_0 0
learning_engine_featurewise.q_value_histogram.bucket_1 896
learning_engine_featurewise.q_value_histogram.bucket_2 60298
learning_engine_featurewise.q_value_histogram.bucket_3 75360
learning_engine_featurewise.q_value_histogram.bucket_4 106445
learning_engine_featurewise.q_value_histogram.bucket_5 139843
learning_engine_featurewise.q_value_histogram.bucket_6 733143
learning_engine_featurewise.q_value_histogram.bucket_7 0

learning_engine_featurewise.consensus.total 1115985
learning_engine_featurewise.consensus.feature_align_PC 951364
learning_engine_featurewise.consensus.feature_align_PC_ratio 0.85
learning_engine_featurewise.consensus.feature_align_PC_Delta 1057891
learning_engine_featurewise.consensus.feature_align_PC_Delta_ratio 0.95
learning_engine_featurewise.consensus.feature_align_all 894159
learning_engine_featurewise.consensus.feature_align_all_ratio 0.80

learning_engine_featurewise.feature_PC_min_weight 1000000.00000000
learning_engine_featurewise.feature_PC_max_weight 0.00000000
learning_engine_featurewise.feature_PC_Delta_min_weight 1000000.00000000
learning_engine_featurewise.feature_PC_Delta_max_weight 0.00000000
unique_pcs 1446
unique_pages 3771
unique_trigger_pcs 444
total_bitmaps_seen 0
unique_bitmaps_seen 0

scooby_bw_epochs 247772
scooby_bw_level_0 134891
scooby_bw_level_1 75163
scooby_bw_level_2 27796
scooby_bw_level_3 9922

scooby_ipc_epochs 0
scooby_ipc_level_0 0
scooby_ipc_level_1 0
scooby_ipc_level_2 0
scooby_ipc_level_3 0

scooby_cache_acc_epochs 58851
scooby_cache_acc_level_0 2488
scooby_cache_acc_level_1 1450
scooby_cache_acc_level_2 3437
scooby_cache_acc_level_3 6284
scooby_cache_acc_level_4 8701
scooby_cache_acc_level_5 8129
scooby_cache_acc_level_6 5328
scooby_cache_acc_level_7 3221
scooby_cache_acc_level_8 2309
scooby_cache_acc_level_9 17504

Channel_0_RQ_row_buffer_hit 393855
Channel_0_RQ_row_buffer_miss 248919
Channel_0_WQ_row_buffer_hit 3662
Channel_0_WQ_row_buffer_miss 10958
Channel_0_WQ_full 11
Channel_0_dbus_congested 249536

avg_congested_cycle 9

DRAM_bw_pochs 247772
DRAM_bw_level_0 134891
DRAM_bw_level_1 75163
DRAM_bw_level_2 27796
DRAM_bw_level_3 9922
