*************************************************
   ChampSim Multicore Out-of-Order Simulator
   Last compiled: Apr  3 2025 20:54:34
*************************************************
parsing config file: /home/zir/Pythia/config/mlop.ini

trace_0 /home/zir/ChampSim/ML-DPC/ChampSimTraces/spec17/605.mcf-s5.trace.xz
adding L2C_PREFETCHER: MLOP
Initialize SHIP state
warmup_instructions 10000000
simulation_instructions 50000000
champsim_seed 168
measure_ipc 0
measure_ipc_epoch 1000
measure_dram_bw 1
measure_dram_bw_epoch 256
measure_cache_acc 1
measure_cache_acc_epoch 1024
l1d_perfect 0
l2c_perfect 0
llc_perfect 0
l1d_semi_perfect 0
l2c_semi_perfect 0
llc_semi_perfect 0
semi_perfect_cache_page_buffer_size 64

num_cpus 1
cpu_freq 4000
dram_io_freq 2400
page_size 4096
block_size 64
max_read_per_cycle 8
max_fill_per_cycle 1
dram_channels 1
log2_dram_channels 0
dram_ranks 1
dram_banks 8
dram_rows 65536
dram_columns 128
dram_row_size 8
dram_size 4096
dram_pages 1048576

fetch_width 6
decode_width 6
exec_width 4
lq_width 2
sq_width 2
retire_width 4
scheduler_size 128
branch_mispredict_penalty 20
rob_size 256
lq_size 72
sq_size 56
num_instr_destinations_sparc 4
num_instr_destinations 2
num_instr_sources 4

itlb_set 16
itlb_way 8
itlb_rq_size 16
itlb_wq_size 16
itlb_pq_size 0
itlb_mshr_size 8
itlb_latency 1

dtlb_set 16
dtlb_way 4
dtlb_rq_size 16
dtlb_wq_size 16
dtlb_pq_size 0
dtlb_mshr_size 8
dtlb_latency 1

stlb_set 128
stlb_way 12
stlb_rq_size 32
stlb_wq_size 32
stlb_pq_size 0
stlb_mshr_size 16
stlb_latency 8

l1i_size 32
l1i_set 64
l1i_way 8
l1i_rq_size 64
l1i_wq_size 64
l1i_pq_size 8
l1i_mshr_size 8
l1i_latency 1

l1d_size 32
l1d_set 64
l1d_way 8
l1d_rq_size 64
l1d_wq_size 64
l1d_pq_size 8
l1d_mshr_size 16
l1d_latency 4

l2c_size 256
l2c_set 512
l2c_way 8
l2c_rq_size 32
l2c_wq_size 32
l2c_pq_size 32
l2c_mshr_size 32
l2c_latency 10

llc_size 2048
llc_set 2048
llc_way 16
llc_rq_size 32
llc_wq_size 32
llc_pq_size 32
llc_mshr_size 64
llc_latency 20

dram_channel_width 8
dram_wq_size 64
dram_rq_size 64
tRP 15
tRCD 15
tCAS 12.5
dram_dbus_turn_around_time 30
dram_write_high_wm 56
dram_write_low_wm 48
min_dram_writes_per_switch 16
dram_mtps 2400
dram_dbus_return_time 13

mlop_pref_degree 16
mlop_num_updates 500
mlop_l1d_thresh 2
mlop_l2c_thresh 0.75
mlop_llc_thresh 0.3
mlop_debug_level 0
mlop_blocks_in_cache 4096
mlop_blocks_in_zone 64
mlop_amt_size 2048
mlop_PF_DEGREE 16
mlop_NUM_UPDATES 500
mlop_L1D_THRESH 1000
mlop_L2C_THRESH 375
mlop_LLC_THRESH 150
mlop_ORIGIN 63
mlop_MAX_OFFSET 63
mlop_MIN_OFFSET -63
mlop_ORIGIN 63
mlop_NUM_OFFSETS 127


Heartbeat CPU  0 instructions:    1000001 cycles:     561194 heartbeat IPC: 1.78192 cumulative IPC: 1.78192 (Simulation time: 0 hr 0 min 2 sec) 
Heartbeat CPU  0 instructions:    2000002 cycles:    1114192 heartbeat IPC: 1.80833 cumulative IPC: 1.79502 (Simulation time: 0 hr 0 min 4 sec) 
Heartbeat CPU  0 instructions:    3000001 cycles:    1671829 heartbeat IPC: 1.79328 cumulative IPC: 1.79444 (Simulation time: 0 hr 0 min 5 sec) 
Heartbeat CPU  0 instructions:    4000000 cycles:    2229378 heartbeat IPC: 1.79356 cumulative IPC: 1.79422 (Simulation time: 0 hr 0 min 7 sec) 
Heartbeat CPU  0 instructions:    5000002 cycles:    2791202 heartbeat IPC: 1.77992 cumulative IPC: 1.79134 (Simulation time: 0 hr 0 min 9 sec) 
Heartbeat CPU  0 instructions:    6000001 cycles:    3351772 heartbeat IPC: 1.78390 cumulative IPC: 1.79010 (Simulation time: 0 hr 0 min 11 sec) 
Heartbeat CPU  0 instructions:    7000001 cycles:    3928298 heartbeat IPC: 1.73453 cumulative IPC: 1.78194 (Simulation time: 0 hr 0 min 12 sec) 
Heartbeat CPU  0 instructions:    8000000 cycles:    4484784 heartbeat IPC: 1.79699 cumulative IPC: 1.78381 (Simulation time: 0 hr 0 min 14 sec) 
Heartbeat CPU  0 instructions:    9000000 cycles:    5040062 heartbeat IPC: 1.80090 cumulative IPC: 1.78569 (Simulation time: 0 hr 0 min 16 sec) 
Heartbeat CPU  0 instructions:   10000001 cycles:    5593810 heartbeat IPC: 1.80588 cumulative IPC: 1.78769 (Simulation time: 0 hr 0 min 18 sec) 

Warmup complete CPU  0 instructions:   10000001 cycles:    5593810 (Simulation time: 0 hr 0 min 18 sec) 

Heartbeat CPU  0 instructions:   11000003 cycles:    8160704 heartbeat IPC: 0.38958 cumulative IPC: 0.38958 (Simulation time: 0 hr 0 min 20 sec) 
Heartbeat CPU  0 instructions:   12000000 cycles:   10342194 heartbeat IPC: 0.45840 cumulative IPC: 0.42120 (Simulation time: 0 hr 0 min 23 sec) 
Heartbeat CPU  0 instructions:   13000000 cycles:   12334452 heartbeat IPC: 0.50194 cumulative IPC: 0.44506 (Simulation time: 0 hr 0 min 25 sec) 
Heartbeat CPU  0 instructions:   14000000 cycles:   14411484 heartbeat IPC: 0.48146 cumulative IPC: 0.45363 (Simulation time: 0 hr 0 min 28 sec) 
Heartbeat CPU  0 instructions:   15000000 cycles:   18301693 heartbeat IPC: 0.25706 cumulative IPC: 0.39346 (Simulation time: 0 hr 0 min 31 sec) 
Heartbeat CPU  0 instructions:   16000000 cycles:   22057594 heartbeat IPC: 0.26625 cumulative IPC: 0.36444 (Simulation time: 0 hr 0 min 35 sec) 
Heartbeat CPU  0 instructions:   17000002 cycles:   25122151 heartbeat IPC: 0.32631 cumulative IPC: 0.35845 (Simulation time: 0 hr 0 min 37 sec) 
Heartbeat CPU  0 instructions:   18000000 cycles:   28027639 heartbeat IPC: 0.34418 cumulative IPC: 0.35660 (Simulation time: 0 hr 0 min 40 sec) 
Heartbeat CPU  0 instructions:   19000000 cycles:   30260821 heartbeat IPC: 0.44779 cumulative IPC: 0.36486 (Simulation time: 0 hr 0 min 43 sec) 
Heartbeat CPU  0 instructions:   20000000 cycles:   32915275 heartbeat IPC: 0.37673 cumulative IPC: 0.36601 (Simulation time: 0 hr 0 min 45 sec) 
Heartbeat CPU  0 instructions:   21000001 cycles:   35294875 heartbeat IPC: 0.42024 cumulative IPC: 0.37036 (Simulation time: 0 hr 0 min 48 sec) 
Heartbeat CPU  0 instructions:   22000000 cycles:   37287924 heartbeat IPC: 0.50174 cumulative IPC: 0.37862 (Simulation time: 0 hr 0 min 50 sec) 
Heartbeat CPU  0 instructions:   23000000 cycles:   40847361 heartbeat IPC: 0.28094 cumulative IPC: 0.36876 (Simulation time: 0 hr 0 min 54 sec) 
Heartbeat CPU  0 instructions:   24000000 cycles:   44613647 heartbeat IPC: 0.26551 cumulative IPC: 0.35879 (Simulation time: 0 hr 0 min 57 sec) 
Heartbeat CPU  0 instructions:   25000003 cycles:   46587598 heartbeat IPC: 0.50660 cumulative IPC: 0.36591 (Simulation time: 0 hr 0 min 59 sec) 
Heartbeat CPU  0 instructions:   26000003 cycles:   48515649 heartbeat IPC: 0.51866 cumulative IPC: 0.37277 (Simulation time: 0 hr 1 min 2 sec) 
Heartbeat CPU  0 instructions:   27000003 cycles:   50575969 heartbeat IPC: 0.48536 cumulative IPC: 0.37793 (Simulation time: 0 hr 1 min 4 sec) 
Heartbeat CPU  0 instructions:   28000000 cycles:   52670500 heartbeat IPC: 0.47743 cumulative IPC: 0.38235 (Simulation time: 0 hr 1 min 6 sec) 
Heartbeat CPU  0 instructions:   29000001 cycles:   54726118 heartbeat IPC: 0.48647 cumulative IPC: 0.38671 (Simulation time: 0 hr 1 min 9 sec) 
Heartbeat CPU  0 instructions:   30000002 cycles:   57850139 heartbeat IPC: 0.32010 cumulative IPC: 0.38273 (Simulation time: 0 hr 1 min 12 sec) 
Heartbeat CPU  0 instructions:   31000001 cycles:   59852388 heartbeat IPC: 0.49944 cumulative IPC: 0.38704 (Simulation time: 0 hr 1 min 14 sec) 
Heartbeat CPU  0 instructions:   32000000 cycles:   62203517 heartbeat IPC: 0.42533 cumulative IPC: 0.38863 (Simulation time: 0 hr 1 min 17 sec) 
Heartbeat CPU  0 instructions:   33000002 cycles:   64547020 heartbeat IPC: 0.42671 cumulative IPC: 0.39014 (Simulation time: 0 hr 1 min 19 sec) 
Heartbeat CPU  0 instructions:   34000002 cycles:   66707852 heartbeat IPC: 0.46278 cumulative IPC: 0.39271 (Simulation time: 0 hr 1 min 22 sec) 
Heartbeat CPU  0 instructions:   35000000 cycles:   69062537 heartbeat IPC: 0.42468 cumulative IPC: 0.39389 (Simulation time: 0 hr 1 min 24 sec) 
Heartbeat CPU  0 instructions:   36000000 cycles:   71583724 heartbeat IPC: 0.39664 cumulative IPC: 0.39400 (Simulation time: 0 hr 1 min 27 sec) 
Heartbeat CPU  0 instructions:   37000001 cycles:   75235075 heartbeat IPC: 0.27387 cumulative IPC: 0.38770 (Simulation time: 0 hr 1 min 30 sec) 
Heartbeat CPU  0 instructions:   38000000 cycles:   77592700 heartbeat IPC: 0.42416 cumulative IPC: 0.38889 (Simulation time: 0 hr 1 min 33 sec) 
Heartbeat CPU  0 instructions:   39000002 cycles:   79583679 heartbeat IPC: 0.50227 cumulative IPC: 0.39195 (Simulation time: 0 hr 1 min 35 sec) 
Heartbeat CPU  0 instructions:   40000000 cycles:   82221571 heartbeat IPC: 0.37909 cumulative IPC: 0.39150 (Simulation time: 0 hr 1 min 38 sec) 
Heartbeat CPU  0 instructions:   41000002 cycles:   84363554 heartbeat IPC: 0.46686 cumulative IPC: 0.39355 (Simulation time: 0 hr 1 min 40 sec) 
Heartbeat CPU  0 instructions:   42000001 cycles:   86459163 heartbeat IPC: 0.47719 cumulative IPC: 0.39572 (Simulation time: 0 hr 1 min 42 sec) 
Heartbeat CPU  0 instructions:   43000001 cycles:   88526043 heartbeat IPC: 0.48382 cumulative IPC: 0.39792 (Simulation time: 0 hr 1 min 45 sec) 
Heartbeat CPU  0 instructions:   44000000 cycles:   91257453 heartbeat IPC: 0.36611 cumulative IPC: 0.39690 (Simulation time: 0 hr 1 min 48 sec) 
Heartbeat CPU  0 instructions:   45000003 cycles:   95393157 heartbeat IPC: 0.24180 cumulative IPC: 0.38976 (Simulation time: 0 hr 1 min 52 sec) 
Heartbeat CPU  0 instructions:   46000000 cycles:   98257236 heartbeat IPC: 0.34915 cumulative IPC: 0.38850 (Simulation time: 0 hr 1 min 54 sec) 
Heartbeat CPU  0 instructions:   47000003 cycles:  100774102 heartbeat IPC: 0.39732 cumulative IPC: 0.38874 (Simulation time: 0 hr 1 min 57 sec) 
Heartbeat CPU  0 instructions:   48000000 cycles:  103636513 heartbeat IPC: 0.34935 cumulative IPC: 0.38759 (Simulation time: 0 hr 2 min 0 sec) 
Heartbeat CPU  0 instructions:   49000001 cycles:  106169413 heartbeat IPC: 0.39480 cumulative IPC: 0.38777 (Simulation time: 0 hr 2 min 2 sec) 
Heartbeat CPU  0 instructions:   50000003 cycles:  108277044 heartbeat IPC: 0.47447 cumulative IPC: 0.38955 (Simulation time: 0 hr 2 min 5 sec) 
Heartbeat CPU  0 instructions:   51000002 cycles:  110619005 heartbeat IPC: 0.42699 cumulative IPC: 0.39038 (Simulation time: 0 hr 2 min 7 sec) 
Heartbeat CPU  0 instructions:   52000000 cycles:  113056943 heartbeat IPC: 0.41018 cumulative IPC: 0.39083 (Simulation time: 0 hr 2 min 10 sec) 
Heartbeat CPU  0 instructions:   53000000 cycles:  115999499 heartbeat IPC: 0.33984 cumulative IPC: 0.38947 (Simulation time: 0 hr 2 min 13 sec) 
Heartbeat CPU  0 instructions:   54000001 cycles:  117925416 heartbeat IPC: 0.51923 cumulative IPC: 0.39170 (Simulation time: 0 hr 2 min 15 sec) 
Heartbeat CPU  0 instructions:   55000000 cycles:  119870348 heartbeat IPC: 0.51416 cumulative IPC: 0.39378 (Simulation time: 0 hr 2 min 18 sec) 
Heartbeat CPU  0 instructions:   56000000 cycles:  121993154 heartbeat IPC: 0.47107 cumulative IPC: 0.39519 (Simulation time: 0 hr 2 min 20 sec) 
Heartbeat CPU  0 instructions:   57000002 cycles:  124028858 heartbeat IPC: 0.49123 cumulative IPC: 0.39684 (Simulation time: 0 hr 2 min 22 sec) 
Heartbeat CPU  0 instructions:   58000000 cycles:  126014128 heartbeat IPC: 0.50371 cumulative IPC: 0.39860 (Simulation time: 0 hr 2 min 25 sec) 
Heartbeat CPU  0 instructions:   59000002 cycles:  128475694 heartbeat IPC: 0.40625 cumulative IPC: 0.39876 (Simulation time: 0 hr 2 min 27 sec) 
Heartbeat CPU  0 instructions:   60000000 cycles:  132408469 heartbeat IPC: 0.25427 cumulative IPC: 0.39428 (Simulation time: 0 hr 2 min 31 sec) 
Finished CPU 0 instructions: 50000000 cycles: 126814667 cumulative IPC: 0.39428 (Simulation time: 0 hr 2 min 31 sec) 

ChampSim completed all CPUs

[ROI Statistics]
Core_0_instructions 50000000
Core_0_cycles 126814667
Core_0_IPC 0.39428

Core_0_branch_prediction_accuracy 98.57513
Core_0_branch_MPKI 1.38344
Core_0_average_ROB_occupancy_at_mispredict 211.02127

Core_0_L1D_total_access 23909064
Core_0_L1D_total_hit 22674065
Core_0_L1D_total_miss 1234999
Core_0_L1D_loads 9947742
Core_0_L1D_load_hit 8821981
Core_0_L1D_load_miss 1125761
Core_0_L1D_RFOs 13961322
Core_0_L1D_RFO_hit 13852084
Core_0_L1D_RFO_miss 109238
Core_0_L1D_prefetches 0
Core_0_L1D_prefetch_hit 0
Core_0_L1D_prefetch_miss 0
Core_0_L1D_writebacks 0
Core_0_L1D_writeback_hit 0
Core_0_L1D_writeback_miss 0
Core_0_L1D_prefetch_requested 0
Core_0_L1D_prefetch_dropped 0
Core_0_L1D_prefetch_issued 0
Core_0_L1D_prefetch_filled 0
Core_0_L1D_prefetch_useful 0
Core_0_L1D_prefetch_useless 0
Core_0_L1D_prefetch_late 0
Core_0_L1D_average_miss_latency 112.21695

Core_0_L1D_rq_access 15547683
Core_0_L1D_rq_forward 0
Core_0_L1D_rq_merged 5530230
Core_0_L1D_rq_to_cache 10017452
Core_0_L1D_rq_full 0

Core_0_L1D_wq_access 14570722
Core_0_L1D_wq_forward 1
Core_0_L1D_wq_merged 256783
Core_0_L1D_wq_to_cache 14313939
Core_0_L1D_wq_full 0

Core_0_L1D_pq_access 0
Core_0_L1D_pq_forward 0
Core_0_L1D_pq_merged 0
Core_0_L1D_pq_to_cache 0
Core_0_L1D_pq_full 0

Core_0_L1D_acc_epochs 125969
Core_0_L1D_acc_level_0 125969
Core_0_L1D_acc_level_1 0
Core_0_L1D_acc_level_2 0
Core_0_L1D_acc_level_3 0
Core_0_L1D_acc_level_4 0
Core_0_L1D_acc_level_5 0
Core_0_L1D_acc_level_6 0
Core_0_L1D_acc_level_7 0
Core_0_L1D_acc_level_8 0
Core_0_L1D_acc_level_9 0

Core_0_L1I_total_access 15127491
Core_0_L1I_total_hit 15127491
Core_0_L1I_total_miss 0
Core_0_L1I_loads 15127491
Core_0_L1I_load_hit 15127491
Core_0_L1I_load_miss 0
Core_0_L1I_RFOs 0
Core_0_L1I_RFO_hit 0
Core_0_L1I_RFO_miss 0
Core_0_L1I_prefetches 0
Core_0_L1I_prefetch_hit 0
Core_0_L1I_prefetch_miss 0
Core_0_L1I_writebacks 0
Core_0_L1I_writeback_hit 0
Core_0_L1I_writeback_miss 0
Core_0_L1I_prefetch_requested 0
Core_0_L1I_prefetch_dropped 0
Core_0_L1I_prefetch_issued 0
Core_0_L1I_prefetch_filled 0
Core_0_L1I_prefetch_useful 0
Core_0_L1I_prefetch_useless 0
Core_0_L1I_prefetch_late 0
Core_0_L1I_average_miss_latency -nan

Core_0_L1I_rq_access 50000004
Core_0_L1I_rq_forward 0
Core_0_L1I_rq_merged 34872513
Core_0_L1I_rq_to_cache 15127491
Core_0_L1I_rq_full 0

Core_0_L1I_wq_access 0
Core_0_L1I_wq_forward 0
Core_0_L1I_wq_merged 0
Core_0_L1I_wq_to_cache 0
Core_0_L1I_wq_full 0

Core_0_L1I_pq_access 0
Core_0_L1I_pq_forward 0
Core_0_L1I_pq_merged 0
Core_0_L1I_pq_to_cache 0
Core_0_L1I_pq_full 0

Core_0_L1I_acc_epochs 125969
Core_0_L1I_acc_level_0 125969
Core_0_L1I_acc_level_1 0
Core_0_L1I_acc_level_2 0
Core_0_L1I_acc_level_3 0
Core_0_L1I_acc_level_4 0
Core_0_L1I_acc_level_5 0
Core_0_L1I_acc_level_6 0
Core_0_L1I_acc_level_7 0
Core_0_L1I_acc_level_8 0
Core_0_L1I_acc_level_9 0

Core_0_L2C_total_access 1768500
Core_0_L2C_total_hit 520312
Core_0_L2C_total_miss 1248188
Core_0_L2C_loads 1125756
Core_0_L2C_load_hit 183803
Core_0_L2C_load_miss 941953
Core_0_L2C_RFOs 109235
Core_0_L2C_RFO_hit 1440
Core_0_L2C_RFO_miss 107795
Core_0_L2C_prefetches 205274
Core_0_L2C_prefetch_hit 7978
Core_0_L2C_prefetch_miss 197296
Core_0_L2C_writebacks 328235
Core_0_L2C_writeback_hit 327091
Core_0_L2C_writeback_miss 1144
Core_0_L2C_prefetch_requested 1630385
Core_0_L2C_prefetch_dropped 0
Core_0_L2C_prefetch_issued 1630385
Core_0_L2C_prefetch_filled 231446
Core_0_L2C_prefetch_useful 169086
Core_0_L2C_prefetch_useless 62097
Core_0_L2C_prefetch_late 47401
Core_0_L2C_average_miss_latency 108.38554

Core_0_L2C_rq_access 1235002
Core_0_L2C_rq_forward 0
Core_0_L2C_rq_merged 0
Core_0_L2C_rq_to_cache 1234994
Core_0_L2C_rq_full 0

Core_0_L2C_wq_access 328235
Core_0_L2C_wq_forward 8
Core_0_L2C_wq_merged 0
Core_0_L2C_wq_to_cache 328235
Core_0_L2C_wq_full 0

Core_0_L2C_pq_access 1630385
Core_0_L2C_pq_forward 0
Core_0_L2C_pq_merged 3066
Core_0_L2C_pq_to_cache 1627319
Core_0_L2C_pq_full 0

Core_0_L2C_acc_epochs 125969
Core_0_L2C_acc_level_0 113470
Core_0_L2C_acc_level_1 797
Core_0_L2C_acc_level_2 717
Core_0_L2C_acc_level_3 815
Core_0_L2C_acc_level_4 783
Core_0_L2C_acc_level_5 1293
Core_0_L2C_acc_level_6 3058
Core_0_L2C_acc_level_7 3535
Core_0_L2C_acc_level_8 878
Core_0_L2C_acc_level_9 623

Core_0_LLC_total_access 2635470
Core_0_LLC_total_hit 829216
Core_0_LLC_total_miss 1806254
Core_0_LLC_loads 894714
Core_0_LLC_load_hit 553241
Core_0_LLC_load_miss 341473
Core_0_LLC_RFOs 107795
Core_0_LLC_RFO_hit 4629
Core_0_LLC_RFO_miss 103166
Core_0_LLC_prefetches 1333729
Core_0_LLC_prefetch_hit 190331
Core_0_LLC_prefetch_miss 1143398
Core_0_LLC_writebacks 299232
Core_0_LLC_writeback_hit 81015
Core_0_LLC_writeback_miss 218217
Core_0_LLC_prefetch_requested 0
Core_0_LLC_prefetch_dropped 0
Core_0_LLC_prefetch_issued 0
Core_0_LLC_prefetch_filled 1324617
Core_0_LLC_prefetch_useful 639045
Core_0_LLC_prefetch_useless 672497
Core_0_LLC_prefetch_late 36660
Core_0_LLC_average_miss_latency 193.35079

Core_0_LLC_rq_access 1002512
Core_0_LLC_rq_forward 0
Core_0_LLC_rq_merged 0
Core_0_LLC_rq_to_cache 1002512
Core_0_LLC_rq_full 0

Core_0_LLC_wq_access 299233
Core_0_LLC_wq_forward 0
Core_0_LLC_wq_merged 0
Core_0_LLC_wq_to_cache 299233
Core_0_LLC_wq_full 0

Core_0_LLC_pq_access 1595713
Core_0_LLC_pq_forward 0
Core_0_LLC_pq_merged 306
Core_0_LLC_pq_to_cache 1595407
Core_0_LLC_pq_full 0

Core_0_LLC_acc_epochs 129306
Core_0_LLC_acc_level_0 6824
Core_0_LLC_acc_level_1 12842
Core_0_LLC_acc_level_2 12437
Core_0_LLC_acc_level_3 13255
Core_0_LLC_acc_level_4 15031
Core_0_LLC_acc_level_5 14982
Core_0_LLC_acc_level_6 13045
Core_0_LLC_acc_level_7 10074
Core_0_LLC_acc_level_8 7044
Core_0_LLC_acc_level_9 23772

Core_0_major_page_fault 0
Core_0_minor_page_fault 18172

[MLOP] History of tracked zone:
IIIIIIIIIIIIIIIIIIIIIIIIIIIIIIIIIIIIIIIIIIIIIIIIIIIIIIIIIIIIIIII
IIIIIIIIIIIIIIIIIIIIIIIIIIIII4IIIIII4II4III4II4III4II4IIIIII4IIA
IIIIIIIIIIIIIIIIIIIIIIIIIIII44IIIII44I44II44I44II44I44IIIII44IAA
IIIIIIIIIIIIIIIIIIIIIIIIIII444IIII444444I444444I444444IIII444AAA
IIIIIIIIIIIIIIIIIIIIIIIIII4444III444444444444444444444III444AAAA
IIIIIIIIIIIIIIIIIIIIIIII4I4444I4I444444444444444444444I4I4A4AAAA
IIIIIIIIIIIIIIIIIIIIIII44I444444I44444444444444444444444IAA4AAAA
IIIIIIIIIIIIIIIIIIIII4I44I444444I4444444444444444444444AIAA4AAAA
IIIIIIIIIIIIIIIIIII4I4I44I444444I44444444444444444444A4AIAA4AAAA
IIIIIIIIIIIIIIIIII44I4I44444444444444444444444444444AA4AIAA4AAAA
IIIIIIIIIIIIIIII4I44I4I444444444444444444444444444A4AA4AIAA4AAAA
IIIIIIIIIIIIIII44I44I4444444444444444444444444444AA4AA4AIAA4AAAA
IIIIIIIIIIIIII444I44I444444444444444444444444444AAA4AA4AIAA4AAAA
IIIIIIIIIIIII4444I44444444444444444444444444444AAAA4AA4AIAA4AAAA
IIIIIIIIIII4I4444I444444444444444444444444444A4AAAA4AA4AIAA4AAAA
IIIIIIIIII44I4444444444444444444444444444444AA4AAAA4AA4AIAA4AAAA
IIIIIIII4I44I44444444444444444444444444444A4AA4AAAA4AA4AIAA4AAAA
IIIIII4I4I44I444444444444444444444444444A4A4AA4AAAA4AA4AIAA4AAAA
IIIII44I4I44444444444444444444444444444AA4A4AA4AAAA4AA4AIAA4AAAA
III4I44I4I444444444444444444444444444A4AA4A4AA4AAAA4AA4AIAA4AAAA
II44I44I4444444444444444444444444444AA4AA4A4AA4AAAA4AA4AIAA4AAAA
I444I44I444444444444444444444444444AAA4AA4A4AA4AAAA4AA4AIAA4AAAA
4444I44444444444444444444444444444AAAA4AA4A4AA4AAAA4AA4AIAA4AAAA
4444I444444444444444444444444444A4AAAA4AA4A4AA4AAAA4AA4AIAA4AAAA
4444444444444444444444444444444AA4AAAA4AA4A4AA4AAAA4AA4AIAA4AAAA
44444444444444444444444444444A4AA4AAAA4AA4A4AA4AAAA4AA4AIAA4AAAA
444444444444444444444444444A4A4AA4AAAA4AA4A4AA4AAAA4AA4AIAA4AAAA
44444444444444444444444444AA4A4AA4AAAA4AA4A4AA4AAAA4AA4AIAA4AAAA
444444444444444444444444A4AA4A4AA4AAAA4AA4A4AA4AAAA4AA4AIAA4AAAA
44444444444444444444444AA4AA4A4AA4AAAA4AA4A4AA4AAAA4AA4AIAA4AAAA
4444444444444444444444AAA4AA4A4AA4AAAA4AA4A4AA4AAAA4AA4AIAA4AAAA
444444444444444444444AAAA4AA4A4AA4AAAA4AA4A4AA4AAAA4AA4AIAA4AAAA
4444444444444444444A4AAAA4AA4A4AA4AAAA4AA4A4AA4AAAA4AA4AIAA4AAAA
444444444444444444AA4AAAA4AA4A4AA4AAAA4AA4A4AA4AAAA4AA4AIAA4AAAA
4444444444444444A4AA4AAAA4AA4A4AA4AAAA4AA4A4AA4AAAA4AA4AIAA4AAAA
44444444444444A4A4AA4AAAA4AA4A4AA4AAAA4AA4A4AA4AAAA4AA4AIAA4AAAA
4444444444444AA4A4AA4AAAA4AA4A4AA4AAAA4AA4A4AA4AAAA4AA4AIAA4AAAA
44444444444A4AA4A4AA4AAAA4AA4A4AA4AAAA4AA4A4AA4AAAA4AA4AIAA4AAAA
4444444444AA4AA4A4AA4AAAA4AA4A4AA4AAAA4AA4A4AA4AAAA4AA4AIAA4AAAA
444444444AAA4AA4A4AA4AAAA4AA4A4AA4AAAA4AA4A4AA4AAAA4AA4AIAA4AAAA
44444444AAAA4AA4A4AA4AAAA4AA4A4AA4AAAA4AA4A4AA4AAAA4AA4AIAA4AAAA
444444A4AAAA4AA4A4AA4AAAA4AA4A4AA4AAAA4AA4A4AA4AAAA4AA4AIAA4AAAA
44444AA4AAAA4AA4A4AA4AAAA4AA4A4AA4AAAA4AA4A4AA4AAAA4AA4AIAA4AAAA
444A4AA4AAAA4AA4A4AA4AAAA4AA4A4AA4AAAA4AA4A4AA4AAAA4AA4AIAA4AAAA
4A4A4AA4AAAA4AA4A4AA4AAAA4AA4A4AA4AAAA4AA4A4AA4AAAA4AA4AIAA4AAAA
AA4A4AA4AAAA4AA4A4AA4AAAA4AA4A4AA4AAAA4AA4A4AA4AAAA4AA4AIAA4AAAA
IIIIIIIIIIIIIIIIIIIIIIIIIIIIIIIIIIII4II4III4II4III4II4IIIIII4IIA
IIIIIIIIIIIIIIIIIIIIIIIIIIIIIIIIIII44I44II44I44II44I44IIIII44IAA
IIIIIIIIIIIIIIIIIIIIIIIIIIIIIIIIII444444I444444I444444IIII444AAA
IIIIIIIIIIIIIIIIIIIIIIIIIIIIIIIII444444444444444444444III444AAAA
IIIIIIIIIIIIIIIIIIIIIIIIIIIIIII4I444444444444444444444I4I4A4AAAA
IIIIIIIIIIIIIIIIIIIIIIIIIIIIII44I44444444444444444444444IAA4AAAA
IIIIIIIIIIIIIIIIIIIIIIIIIIII4I44I4444444444444444444444AIAA4AAAA
IIIIIIIIIIIIIIIIIIIIIIIIII4I4444I44444444444444444444A4AIAA4AAAA
IIIIIIIIIIIIIIIIIIIIIIIII44I444444444444444444444444AA4AIAA4AAAA
IIIIIIIIIIIIIIIIIIIIIII4I44I4444444444444444444444A4AA4AIAA4AAAA
IIIIIIIIIIIIIIIIIIIIII44I44I444444444444444444444AA4AA4AIAA4AAAA
IIIIIIIIIIIIIIIIIIIII444444I44444444444444444444AAA4AA4AIAA4AAAA
IIIIIIIIIIIIIIIIIIII444444444444444444444444444AAAA4AA4AIAA4AAAA
IIIIIIIIIIIIIIIIII4I4444444444444444444444444A4AAAA4AA4AIAA4AAAA
IIIIIIIIIIIIIIIII44I444444444444444444444444AA4AAAA4AA4AIAA4AAAA
IIIIIIIIIIIIIII4I44I4444444444444444444444A4AA4AAAA4AA4AIAA4AAAA
IIIIIIIIIIIII4I4444I44444444444444444444A4A4AA4AAAA4AA4AIAA4AAAA
IIIIIIIIIIII44I444444444444444444444444AA4A4AA4AAAA4AA4AIAA4AAAA
IIIIIIIIII4I44I4444444444444444444444A4AA4A4AA4AAAA4AA4AIAA4AAAA
IIIIIIIII44I44I444444444444444444444AA4AA4A4AA4AAAA4AA4AIAA4AAAA
IIIIIIII444444I44444444444444444444AAA4AA4A4AA4AAAA4AA4AIAA4AAAA
IIIIIII444444444444444444444444444AAAA4AA4A4AA4AAAA4AA4AIAA4AAAA
IIIII4I4444444444444444444444444A4AAAA4AA4A4AA4AAAA4AA4AIAA4AAAA
IIII44I444444444444444444444444AA4AAAA4AA4A4AA4AAAA4AA4AIAA4AAAA
II4I44I4444444444444444444444A4AA4AAAA4AA4A4AA4AAAA4AA4AIAA4AAAA
4I4444I44444444444444444444A4A4AA4AAAA4AA4A4AA4AAAA4AA4AIAA4AAAA
4I444444444444444444444444AA4A4AA4AAAA4AA4A4AA4AAAA4AA4AIAA4AAAA
4I4444444444444444444444A4AA4A4AA4AAAA4AA4A4AA4AAAA4AA4AIAA4AAAA
4I444444444444444444444AA4AA4A4AA4AAAA4AA4A4AA4AAAA4AA4AIAA4AAAA
4I44444444444444444444AAA4AA4A4AA4AAAA4AA4A4AA4AAAA4AA4AIAA4AAAA
444444444444444444444AAAA4AA4A4AA4AAAA4AA4A4AA4AAAA4AA4AIAA4AAAA
4444444444444444444A4AAAA4AA4A4AA4AAAA4AA4A4AA4AAAA4AA4AIAA4AAAA
444444444444444444AA4AAAA4AA4A4AA4AAAA4AA4A4AA4AAAA4AA4AIAA4AAAA
4444444444444444A4AA4AAAA4AA4A4AA4AAAA4AA4A4AA4AAAA4AA4AIAA4AAAA
44444444444444A4A4AA4AAAA4AA4A4AA4AAAA4AA4A4AA4AAAA4AA4AIAA4AAAA
4444444444444AA4A4AA4AAAA4AA4A4AA4AAAA4AA4A4AA4AAAA4AA4AIAA4AAAA
44444444444A4AA4A4AA4AAAA4AA4A4AA4AAAA4AA4A4AA4AAAA4AA4AIAA4AAAA
4444444444AA4AA4A4AA4AAAA4AA4A4AA4AAAA4AA4A4AA4AAAA4AA4AIAA4AAAA
444444444AAA4AA4A4AA4AAAA4AA4A4AA4AAAA4AA4A4AA4AAAA4AA4AIAA4AAAA
44444444AAAA4AA4A4AA4AAAA4AA4A4AA4AAAA4AA4A4AA4AAAA4AA4AIAA4AAAA
444444A4AAAA4AA4A4AA4AAAA4AA4A4AA4AAAA4AA4A4AA4AAAA4AA4AIAA4AAAA
44444AA4AAAA4AA4A4AA4AAAA4AA4A4AA4AAAA4AA4A4AA4AAAA4AA4AIAA4AAAA
444A4AA4AAAA4AA4A4AA4AAAA4AA4A4AA4AAAA4AA4A4AA4AAAA4AA4AIAA4AAAA
4A4A4AA4AAAA4AA4A4AA4AAAA4AA4A4AA4AAAA4AA4A4AA4AAAA4AA4AIAA4AAAA
AA4A4AA4AAAA4AA4A4AA4AAAA4AA4A4AA4AAAA4AA4A4AA4AAAA4AA4AIAA4AAAA
IIIIIIIIIIIIIIIIIIIIIIIIIIIII4IIIIII44IIIII4II4III4II2IIIIII2IIA
IIIIIIIIIIIIIIIIIIIIIIIIIIII44IIIII444IIII44I44II44I22IIIII22IAA
IIIIIIIIIIIIIIIIIIIIIIIIIII444IIII4444III444444I444222IIII222AAA
IIIIIIIIIIIIIIIIIIIIIIIIII4444III44444II44444444442222III222AAAA
IIIIIIIIIIIIIIIIIIIIIIII4I4444I44444444I44444444242222I2I2A2AAAA
IIIIIIIIIIIIIIIIIIIIIII44I4444444444444I4444444224222222IAA2AAAA
IIIIIIIIIIIIIIIIIIIII4I44I4444444444444I444442422422222AIAA2AAAA
IIIIIIIIIIIIIIIIIII4I4I44I4444444444444I4442424224222A2AIAA2AAAA
IIIIIIIIIIIIIIIIII44I4I44444444444444444442242422222AA2AIAA2AAAA
IIIIIIIIIIIIIIII4I44I4I444444444444444442422424222A2AA2AIAA2AAAA
IIIIIIIIIIIIIII44I44I4444444444444444442242242222AA2AA2AIAA2AAAA
IIIIIIIIIIIIII444I44I444444444444444442224224222AAA2AA2AIAA2AAAA
IIIIIIIIIIIII4444I44444444444444444442222422222AAAA2AA2AIAA2AAAA
IIIIIIIIIII4I4444I444444444444444442422224222A2AAAA2AA2AIAA2AAAA
IIIIIIIIII44I4444444444444444444442242222222AA2AAAA2AA2AIAA2AAAA
IIIIIIII4I44I44444444444444444442422422222A2AA2AAAA2AA2AIAA2AAAA
IIIIII4I4I44I444444444444444442424224222A2A2AA2AAAA2AA2AIAA2AAAA
IIIII44I4I44444444444444444442242422222AA2A2AA2AAAA2AA2AIAA2AAAA
III4I44I4I444444444444444442422424222A2AA2A2AA2AAAA2AA2AIAA2AAAA
II44I44I4444444444444444442242242222AA2AA2A2AA2AAAA2AA2AIAA2AAAA
I444I44I444444444444444442224224222AAA2AA2A2AA2AAAA2AA2AIAA2AAAA
4444I44444444444444444442222422222AAAA2AA2A2AA2AAAA2AA2AIAA2AAAA
4444I444444444444444442422224222A2AAAA2AA2A2AA2AAAA2AA2AIAA2AAAA
4444444444444444444442242222222AA2AAAA2AA2A2AA2AAAA2AA2AIAA2AAAA
44444444444444444442422422222A2AA2AAAA2AA2A2AA2AAAA2AA2AIAA2AAAA
444444444444444442424224222A2A2AA2AAAA2AA2A2AA2AAAA2AA2AIAA2AAAA
44444444444444442242422222AA2A2AA2AAAA2AA2A2AA2AAAA2AA2AIAA2AAAA
444444444444442422424222A2AA2A2AA2AAAA2AA2A2AA2AAAA2AA2AIAA2AAAA
44444444444442242242222AA2AA2A2AA2AAAA2AA2A2AA2AAAA2AA2AIAA2AAAA
4444444444442224224222AAA2AA2A2AA2AAAA2AA2A2AA2AAAA2AA2AIAA2AAAA
444444444442222422222AAAA2AA2A2AA2AAAA2AA2A2AA2AAAA2AA2AIAA2AAAA
4444444442422224222A2AAAA2AA2A2AA2AAAA2AA2A2AA2AAAA2AA2AIAA2AAAA
444444442242222222AA2AAAA2AA2A2AA2AAAA2AA2A2AA2AAAA2AA2AIAA2AAAA
4444442422422222A2AA2AAAA2AA2A2AA2AAAA2AA2A2AA2AAAA2AA2AIAA2AAAA
44442424224222A2A2AA2AAAA2AA2A2AA2AAAA2AA2A2AA2AAAA2AA2AIAA2AAAA
4442242422222AA2A2AA2AAAA2AA2A2AA2AAAA2AA2A2AA2AAAA2AA2AIAA2AAAA
42422424222A2AA2A2AA2AAAA2AA2A2AA2AAAA2AA2A2AA2AAAA2AA2AIAA2AAAA
2242242222AA2AA2A2AA2AAAA2AA2A2AA2AAAA2AA2A2AA2AAAA2AA2AIAA2AAAA
224224222AAA2AA2A2AA2AAAA2AA2A2AA2AAAA2AA2A2AA2AAAA2AA2AIAA2AAAA
22422222AAAA2AA2A2AA2AAAA2AA2A2AA2AAAA2AA2A2AA2AAAA2AA2AIAA2AAAA
224222A2AAAA2AA2A2AA2AAAA2AA2A2AA2AAAA2AA2A2AA2AAAA2AA2AIAA2AAAA
22222AA2AAAA2AA2A2AA2AAAA2AA2A2AA2AAAA2AA2A2AA2AAAA2AA2AIAA2AAAA
222A2AA2AAAA2AA2A2AA2AAAA2AA2A2AA2AAAA2AA2A2AA2AAAA2AA2AIAA2AAAA
2A2A2AA2AAAA2AA2A2AA2AAAA2AA2A2AA2AAAA2AA2A2AA2AAAA2AA2AIAA2AAAA
AA2A2AA2AAAA2AA2A2AA2AAAA2AA2A2AA2AAAA2AA2A2AA2AAAA2AA2AIAA2AAAA
AA2A2AA2AAAA2AA2A2AA2AAAA2AA2A2AA2AAAA2AA2A2AAIAAAA2AA2AIAA2AAAA
AA2A2AA2AAAA2AA2A2AA2AAAA2AA2A2AA2AAAA2AA2A2AAIAAAA2AAIAIAA2AAAA
AA2A2AA2AAAA2AA2A2AA2AAAA2AA2A2AA2AAAA2AA2AIAAIAAAA2AAIAIAA2AAAA
AA2A2AA2AAAA2AA2A2AA2AAAA2AA2A2AA2AAIA2AA2AIAAIAAAA2AAIAIAA2AAAA
AA2A2AA2AAAA2AA2A2AA2AAAA2AA2A2AA2AAIA2AI2AIAAIAAAA2AAIAIAA2AAAA
AA2A2AA2AAAA2AA2A2AA2AAAA2AA2A2AAIAAIA2AI2AIAAIAAAA2AAIAIAA2AAAA
AA2A2AA2AAAA2AA2A2AA2AAAA2AA2A2AAIAAIA2AI2AIIAIAAAA2AAIAIAA2AAAA
AA2A2AA2AAAA2AA2A2AA2AAAA2AA2AIAAIAAIA2AI2AIIAIAAAA2AAIAIAA2AAAA
AA2A2AA2AAAA2AA2A2AAIAAAA2AA2AIAAIAAIA2AI2AIIAIAAAA2AAIAIAA2AAAA
AA2A2AA2AAAA2AA2A2AAIAAIA2AA2AIAAIAAIA2AI2AIIAIAAAA2AAIAIAA2AAAA
AA2A2AI2AAAA2AA2A2AAIAAIA2AA2AIAAIAAIA2AI2AIIAIAAAA2AAIAIAA2AAAA
AAIA2AI2AAAA2AA2A2AAIAAIA2AA2AIAAIAAIA2AI2AIIAIAAAA2AAIAIAA2AAAA
IAIA2AI2AAAA2AA2A2AAIAAIA2AA2AIAAIAAIA2AI2AIIAIAAAA2AAIAIAA2AAAA
IAIA2AI2AAAA2AA2A2AAIAAIA2AA2AIAAIAAIA2AI2AIIAIAAAA2AIIAIAA2AAAA
IAIA2AI2AAAA2AA2A2AAIAAIA2AA2AIAAIAAIA2AI2AIIAIAAAA2AIIAIIA2AAAA
IAIA2AI2AAAA2AA2A2AAIAAIA2AA2AIAAIAAIA2II2AIIAIAAAA2AIIAIIA2AAAA
IAIA2AI2AAAA2AA2A2AAIAAIA2AA2IIAAIAAIA2II2AIIAIAAAA2AIIAIIA2AAAA
IAIA2AI2AAAA2AA2A2AAIAAIAIAA2IIAAIAAIA2II2AIIAIAAAA2AIIAIIA2AAAA
IAIA2AI2AAAA2AA2A2AAIAAIAIIA2IIAAIAAIA2II2AIIAIAAAA2AIIAIIA2AAAA
IAIA2AI2AAAA2AA2A2AIIAAIAIIA2IIAAIAAIA2II2AIIAIAAAA2AIIAIIA2AAAA
IAIA2AI2AAAAIAA2A2AIIAAIAIIA2IIAAIAAIA2II2AIIAIAAAA2AIIAIIA2AAAA
IAIA2AI2AAAAIAA2I2AIIAAIAIIA2IIAAIAAIA2II2AIIAIAAAA2AIIAIIA2AAAA
IAIA2II2AAAAIAA2I2AIIAAIAIIA2IIAAIAAIA2II2AIIAIAAAA2AIIAIIA2AAAA
IAIA2II2AAAAIIA2I2AIIAAIAIIA2IIAAIAAIA2II2AIIAIAAAA2AIIAIIA2AAAA
IAII2II2AAAAIIA2I2AIIAAIAIIA2IIAAIAAIA2II2AIIAIAAAA2AIIAIIA2AAAA
IAII2II2AAAAIIA2I2AIIAAIAIIA2IIAAIAAIA2II2AIIAIAAAA2IIIAIIA2AAAA
IAII2II2AAAAIIA2I2AIIAAIAIIA2IIAAIAAIA2II2AIIAIAAAA2IIIAIII2AAAA
IAII2II2AAAAIIA2I2AIIAAIAIIA2IIAAIAAIA2II2AIIAIAAAI2IIIAIII2AAAA
IAII2II2AAAAIIA2I2AIIAAIAIIA2IIAAIAAIA2II2AIIAIAAII2IIIAIII2AAAA
IAII2II2AAAAIIA2I2AIIAAIAIIA2IIAAIAAIA2II2AIIAIAAII2IIIIIII2AAAA
IAII2II2AAAAIIA2I2AIIAAIAIIA2IIAAIAAIA2II2AIIAIIAII2IIIIIII2AAAA
IAII2II2AAAAIIA2I2AIIAAIAIIA2IIAAIAAIA2II2IIIAIIAII2IIIIIII2AAAA
IAII2II2AAAAIIA2I2AIIAAIAIIA2IIAAIAAII2II2IIIAIIAII2IIIIIII2AAAA
IAII2II2AAAAIIA2I2AIIAAIAIIA2IIAAIAIII2II2IIIAIIAII2IIIIIII2AAAA
IAII2II2AAAAIIA2I2AIIAAIAIIA2IIAIIAIII2II2IIIAIIAII2IIIIIII2AAAA
IAII2II2AAAAIIA2I2AIIAAIAIIA2IIIIIAIII2II2IIIAIIAII2IIIIIII2AAAA
IAII2II2AAAAIIA2I2AIIAAIAIIA2IIIIIAIII2II2IIIIIIAII2IIIIIII2AAAA
IAII2II2AAAAIIA2I2AIIAAIAIIA2IIIIIAIII2II2IIIIIIIII2IIIIIII2AAAA
IAII2II2AAAAIIA2I2AIIAAIAIII2IIIIIAIII2II2IIIIIIIII2IIIIIII2AAAA
IAII2II2AAAAIIA2I2AIIAIIAIII2IIIIIAIII2II2IIIIIIIII2IIIIIII2AAAA
IAII2II2AAAAIIAII2AIIAIIAIII2IIIIIAIII2II2IIIIIIIII2IIIIIII2AAAA
IAII2II2AAAAIIAII2AIIAIIIIII2IIIIIAIII2II2IIIIIIIII2IIIIIII2AAAA
IAII2II2AIAAIIAII2AIIAIIIIII2IIIIIAIII2II2IIIIIIIII2IIIIIII2AAAA
IIII2II2AIAAIIAII2AIIAIIIIII2IIIIIAIII2II2IIIIIIIII2IIIIIII2AAAA
IIII2II2AIAAIIAII2AIIIIIIIII2IIIIIAIII2II2IIIIIIIII2IIIIIII2AAAA
IIII2II2AIAAIIAII2IIIIIIIIII2IIIIIAIII2II2IIIIIIIII2IIIIIII2AAAA
IIII2II2AIIAIIAII2IIIIIIIIII2IIIIIAIII2II2IIIIIIIII2IIIIIII2AAAA
IIII2II2IIIAIIAII2IIIIIIIIII2IIIIIAIII2II2IIIIIIIII2IIIIIII2AAAA
IIII2II2IIIIIIAII2IIIIIIIIII2IIIIIAIII2II2IIIIIIIII2IIIIIII2AAAA
IIIIIIIIIIIIIIIIIIIIIIIIIIIIIIIIIIIIIIIIIIIIIIIIIIIIIIIIIIII4IIA
IIIIIIIIIIIIIIIIIIIIIIIIIIIIIIIIIIIIIIIIIIIIIIIIIIIIIIIIIII44IAA
IIIIIIIIIIIIIIIIIIIIIIIIIIIIIIIIIIIIIIIIIIIIIIIIIIIIIIIIII444AAA
IIIIIIIIIIIIIIIIIIIIIIIIIIIIIIIIIIIIIIIIIIIIIIIIIIIIIIIII444AAAA
IIIIIIIIIIIIIIIIIIIIIIIIIIIIIIIIIIIIIIIIIIIIIIIIIIIIIIIII4A4AAAA
IIIIIIIIIIIIIIIIIIIIIIIIIIIIIIIIIIIIIIIIIIIIIIIIIIIIIIIIIAA4AAAA
IIIIIIIIIIIIIIIIIIIIIIIIIIIIIIIIIIIIIIIIIIIIIIIIIIIIIIIA4AA4AAAA
IIIIIIIIIIIIIIIIIIIIIIIIIIIIIIIIIIIIIIIIIIIIIIIIIIIIIA4A4AA4AAAA
IIIIIIIIIIIIIIIIIIIIIIIIIIIIIIIIIIIIIIIIIIIIIIIIIIIIAA4A4AA4AAAA
IIIIIIIIIIIIIIIIIIIIIIIIIIIIIIIIIIIIIIIIIIIIIIIIIIA4AA4A4AA4AAAA
IIIIIIIIIIIIIIIIIIIIIIIIIIIIIIIIIIIIIIIIIIIIIIIIIAA4AA4A4AA4AAAA
IIIIIIIIIIIIIIIIIIIIIIIIIIIIIIIIIIIIIIIIIIIIIIIIAAA4AA4A4AA4AAAA
IIIIIIIIIIIIIIIIIIIIIIIIIIIIIIIIIIIIIIIIIIIIIIIAAAA4AA4A4AA4AAAA
IIIIIIIIIIIIIIIIIIIIIIIIIIIIIIIIIIIIIIIIIIIIIA4AAAA4AA4A4AA4AAAA
IIIIIIIIIIIIIIIIIIIIIIIIIIIIIIIIIIIIIIIIIIIIAA4AAAA4AA4A4AA4AAAA
IIIIIIIIIIIIIIIIIIIIIIIIIIIIIIIIIIIIIIIIIIA4AA4AAAA4AA4A4AA4AAAA
IIIIIIIIIIIIIIIIIIIIIIIIIIIIIIIIIIIIIIIIA4A4AA4AAAA4AA4A4AA4AAAA
IIIIIIIIIIIIIIIIIIIIIIIIIIIIIIIIIIIIIIIAA4A4AA4AAAA4AA4A4AA4AAAA
IIIIIIIIIIIIIIIIIIIIIIIIIIIIIIIIIIIIIA4AA4A4AA4AAAA4AA4A4AA4AAAA
IIIIIIIIIIIIIIIIIIIIIIIIIIIIIIIIIIIIAA4AA4A4AA4AAAA4AA4A4AA4AAAA
IIIIIIIIIIIIIIIIIIIIIIIIIIIIIIIIIIIAAA4AA4A4AA4AAAA4AA4A4AA4AAAA
IIIIIIIIIIIIIIIIIIIIIIIIIIIIIIIIIIAAAA4AA4A4AA4AAAA4AA4A4AA4AAAA
IIIIIIIIIIIIIIIIIIIIIIIIIIIIIIIIA4AAAA4AA4A4AA4AAAA4AA4A4AA4AAAA
IIIIIIIIIIIIIIIIIIIIIIIIIIIIIIIAA4AAAA4AA4A4AA4AAAA4AA4A4AA4AAAA
IIIIIIIIIIIIIIIIIIIIIIIIIIIIIA4AA4AAAA4AA4A4AA4AAAA4AA4A4AA4AAAA
IIIIIIIIIIIIIIIIIIIIIIIIIIIA4A4AA4AAAA4AA4A4AA4AAAA4AA4A4AA4AAAA
IIIIIIIIIIIIIIIIIIIIIIIIIIAA4A4AA4AAAA4AA4A4AA4AAAA4AA4A4AA4AAAA
IIIIIIIIIIIIIIIIIIIIIIIIA4AA4A4AA4AAAA4AA4A4AA4AAAA4AA4A4AA4AAAA
IIIIIIIIIIIIIIIIIIIIIIIAA4AA4A4AA4AAAA4AA4A4AA4AAAA4AA4A4AA4AAAA
IIIIIIIIIIIIIIIIIIIIIIAAA4AA4A4AA4AAAA4AA4A4AA4AAAA4AA4A4AA4AAAA
IIIIIIIIIIIIIIIIIIIIIAAAA4AA4A4AA4AAAA4AA4A4AA4AAAA4AA4A4AA4AAAA
IIIIIIIIIIIIIIIIIIIA4AAAA4AA4A4AA4AAAA4AA4A4AA4AAAA4AA4A4AA4AAAA
IIIIIIIIIIIIIIIIIIAA4AAAA4AA4A4AA4AAAA4AA4A4AA4AAAA4AA4A4AA4AAAA
IIIIIIIIIIIIIIIIA4AA4AAAA4AA4A4AA4AAAA4AA4A4AA4AAAA4AA4A4AA4AAAA
IIIIIIIIIIIIIIA4A4AA4AAAA4AA4A4AA4AAAA4AA4A4AA4AAAA4AA4A4AA4AAAA
IIIIIIIIIIIIIAA4A4AA4AAAA4AA4A4AA4AAAA4AA4A4AA4AAAA4AA4A4AA4AAAA
IIIIIIIIIIIA4AA4A4AA4AAAA4AA4A4AA4AAAA4AA4A4AA4AAAA4AA4A4AA4AAAA
IIIIIIIIIIAA4AA4A4AA4AAAA4AA4A4AA4AAAA4AA4A4AA4AAAA4AA4A4AA4AAAA
IIIIIIIIIAAA4AA4A4AA4AAAA4AA4A4AA4AAAA4AA4A4AA4AAAA4AA4A4AA4AAAA
IIIIIIIIAAAA4AA4A4AA4AAAA4AA4A4AA4AAAA4AA4A4AA4AAAA4AA4A4AA4AAAA
IIIIIIA4AAAA4AA4A4AA4AAAA4AA4A4AA4AAAA4AA4A4AA4AAAA4AA4A4AA4AAAA
IIIIIAA4AAAA4AA4A4AA4AAAA4AA4A4AA4AAAA4AA4A4AA4AAAA4AA4A4AA4AAAA
IIIA4AA4AAAA4AA4A4AA4AAAA4AA4A4AA4AAAA4AA4A4AA4AAAA4AA4A4AA4AAAA
IA4A4AA4AAAA4AA4A4AA4AAAA4AA4A4AA4AAAA4AA4A4AA4AAAA4AA4A4AA4AAAA
AA4A4AA4AAAA4AA4A4AA4AAAA4AA4A4AA4AAAA4AA4A4AA4AAAA4AA4A4AA4AAAA
IIIIIIIIIIIIIIIIIIIIIIIIIIIII4IIIIII44IIIII4II4III4II2IIIIII2IIA
IIIIIIIIIIIIIIIIIIIIIIIIIIII44IIIII444IIII44I44II44I22IIIII22IAA
IIIIIIIIIIIIIIIIIIIIIIIIIII444IIII4444III444444I444222IIII222AAA
IIIIIIIIIIIIIIIIIIIIIIIIII4444III44444II44444444442222III222AAAA
IIIIIIIIIIIIIIIIIIIIIIII4I4444I44444444I44444444242222I2I2A2AAAA
IIIIIIIIIIIIIIIIIIIIIII44I4444444444444I4444444224222222IAA2AAAA
IIIIIIIIIIIIIIIIIIIII4I44I4444444444444I444442422422222AIAA2AAAA
IIIIIIIIIIIIIIIIIII4I4I44I4444444444444I4442424224222A2AIAA2AAAA
IIIIIIIIIIIIIIIIII44I4I44444444444444444442242422222AA2AIAA2AAAA
IIIIIIIIIIIIIIII4I44I4I444444444444444442422424222A2AA2AIAA2AAAA
IIIIIIIIIIIIIII44I44I4444444444444444442242242222AA2AA2AIAA2AAAA
IIIIIIIIIIIII4I44I44444444444444444442422422222A2AA2AA2AIAA2AAAA
IIIIIIIIIII4I4I44I444444444444444442424224222A2A2AA2AA2AIAA2AAAA
IIIIIIIIIII4I4444I444444444444444442422224222A2AAAA2AA2AIAA2AAAA
IIIIIIIIII44I4444444444444444444442242222222AA2AAAA2AA2AIAA2AAAA
IIIIIIII4I44I44444444444444444442422422222A2AA2AAAA2AA2AIAA2AAAA
IIIIII4I4I44I444444444444444442424224222A2A2AA2AAAA2AA2AIAA2AAAA
IIIII44I4I44444444444444444442242422222AA2A2AA2AAAA2AA2AIAA2AAAA
III4I44I4I444444444444444442422424222A2AA2A2AA2AAAA2AA2AIAA2AAAA
II44I44I4444444444444444442242242222AA2AA2A2AA2AAAA2AA2AIAA2AAAA
I444I44I444444444444444442224224222AAA2AA2A2AA2AAAA2AA2AIAA2AAAA
4444I44444444444444444442222422222AAAA2AA2A2AA2AAAA2AA2AIAA2AAAA
4444I444444444444444442422224222A2AAAA2AA2A2AA2AAAA2AA2AIAA2AAAA
4444444444444444444442242222222AA2AAAA2AA2A2AA2AAAA2AA2AIAA2AAAA
44444444444444444442422422222A2AA2AAAA2AA2A2AA2AAAA2AA2AIAA2AAAA
444444444444444442424224222A2A2AA2AAAA2AA2A2AA2AAAA2AA2AIAA2AAAA
44444444444444442242422222AA2A2AA2AAAA2AA2A2AA2AAAA2AA2AIAA2AAAA
444444444444442422424222A2AA2A2AA2AAAA2AA2A2AA2AAAA2AA2AIAA2AAAA
44444444444442242242222AA2AA2A2AA2AAAA2AA2A2AA2AAAA2AA2AIAA2AAAA
4444444444442224224222AAA2AA2A2AA2AAAA2AA2A2AA2AAAA2AA2AIAA2AAAA
444444444442222422222AAAA2AA2A2AA2AAAA2AA2A2AA2AAAA2AA2AIAA2AAAA
4444444442422224222A2AAAA2AA2A2AA2AAAA2AA2A2AA2AAAA2AA2AIAA2AAAA
444444442242222222AA2AAAA2AA2A2AA2AAAA2AA2A2AA2AAAA2AA2AIAA2AAAA
4444442422422222A2AA2AAAA2AA2A2AA2AAAA2AA2A2AA2AAAA2AA2AIAA2AAAA
44442424224222A2A2AA2AAAA2AA2A2AA2AAAA2AA2A2AA2AAAA2AA2AIAA2AAAA
4442242422222AA2A2AA2AAAA2AA2A2AA2AAAA2AA2A2AA2AAAA2AA2AIAA2AAAA
42422424222A2AA2A2AA2AAAA2AA2A2AA2AAAA2AA2A2AA2AAAA2AA2AIAA2AAAA
2242242222AA2AA2A2AA2AAAA2AA2A2AA2AAAA2AA2A2AA2AAAA2AA2AIAA2AAAA
224224222AAA2AA2A2AA2AAAA2AA2A2AA2AAAA2AA2A2AA2AAAA2AA2AIAA2AAAA
22422222AAAA2AA2A2AA2AAAA2AA2A2AA2AAAA2AA2A2AA2AAAA2AA2AIAA2AAAA
224222A2AAAA2AA2A2AA2AAAA2AA2A2AA2AAAA2AA2A2AA2AAAA2AA2AIAA2AAAA
22222AA2AAAA2AA2A2AA2AAAA2AA2A2AA2AAAA2AA2A2AA2AAAA2AA2AIAA2AAAA
222A2AA2AAAA2AA2A2AA2AAAA2AA2A2AA2AAAA2AA2A2AA2AAAA2AA2AIAA2AAAA
2A2A2AA2AAAA2AA2A2AA2AAAA2AA2A2AA2AAAA2AA2A2AA2AAAA2AA2AIAA2AAAA
AA2A2AA2AAAA2AA2A2AA2AAAA2AA2A2AA2AAAA2AA2A2AA2AAAA2AA2AIAA2AAAA
AA2A2AA2AAAA2AA2A2AA2AAAA2AA2A2AA2IAAA2AA2A2AA2AAAA2AA2AIAA2AAAA
AA2A2AA2AAAA2AI2A2AA2AAAA2AA2A2AA2IAAA2AA2A2AA2AAAA2AA2AIAA2AAAA
AA2AIAA2AAAA2AI2A2AA2AAAA2AA2A2AA2IAAA2AA2A2AA2AAAA2AA2AIAA2AAAA
AA2AIAA2AAAA2AI2A2AI2AAAA2AA2A2AA2IAAA2AA2A2AA2AAAA2AA2AIAA2AAAA
AA2AIAA2AAAA2II2A2AI2AAAA2AA2A2AA2IAAA2AA2A2AA2AAAA2AA2AIAA2AAAA
AA2AIAI2AAAA2II2A2AI2AAAA2AA2A2AA2IAAA2AA2A2AA2AAAA2AA2AIAA2AAAA
AA2IIAI2AAAA2II2A2AI2AAAA2AA2A2AA2IAAA2AA2A2AA2AAAA2AA2AIAA2AAAA
AA2IIAI2AAAA2II2A2AI2AAAA2AA2A2AA2IAAA2AA2A2AA2AAAI2AA2AIAA2AAAA
AA2IIAI2AAAA2II2A2AI2AAAA2AA2A2AA2IAAI2AA2A2AA2AAAI2AA2AIAA2AAAA
AA2IIAI2AAAA2II2A2AI2AAAI2AA2A2AA2IAAI2AA2A2AA2AAAI2AA2AIAA2AAAA
AA2IIAI2AAAI2II2A2AI2AAAI2AA2A2AA2IAAI2AA2A2AA2AAAI2AA2AIAA2AAAA
IIIIIIIIIIIIIIIIIIIIIIIIIIIIIIIIIIII4IIIIII4II4III4II4IIIIII4IIA
IIIIIIIIIIIIIIIIIIIIIIIIIIIIIIIIIII44IIIII44I44II44I44IIIII44IAA
IIIIIIIIIIIIIIIIIIIIIIIIIIIIIIIIII444IIII444444I444444IIII444AAA
IIIIIIIIIIIIIIIIIIIIIIIIIIIIIIIII4444III44444444444444III444AAAA
IIIIIIIIIIIIIIIIIIIIIIIIIIIIIII4I4444I4I44444444444444I4I4A4AAAA
IIIIIIIIIIIIIIIIIIIIIIIIIIIIII44I444444I4444444444444444IAA4AAAA
IIIIIIIIIIIIIIIIIIIIIIIIIIII4I44I444444I444444444444444AIAA4AAAA
IIIIIIIIIIIIIIIIIIIIIIIIII4I4I44I444444I4444444444444A4AIAA4AAAA
IIIIIIIIIIIIIIIIIIIIIIIII44I4I4444444444444444444444AA4AIAA4AAAA
IIIIIIIIIIIIIIIIIIIIIII4I44I4I44444444444444444444A4AA4AIAA4AAAA
IIIIIIIIIIIIIIIIIIIIII44I44I444444444444444444444AA4AA4AIAA4AAAA
IIIIIIIIIIIIIIIIIIIII444I44I44444444444444444444AAA4AA4AIAA4AAAA
IIIIIIIIIIIIIIIIIIII4444I4444444444444444444444AAAA4AA4AIAA4AAAA
IIIIIIIIIIIIIIIIII4I4444I44444444444444444444A4AAAA4AA4AIAA4AAAA
IIIIIIIIIIIIIIIII44I444444444444444444444444AA4AAAA4AA4AIAA4AAAA
IIIIIIIIIIIIIII4I44I4444444444444444444444A4AA4AAAA4AA4AIAA4AAAA
IIIIIIIIIIIII4I4I44I44444444444444444444A4A4AA4AAAA4AA4AIAA4AAAA
IIIIIIIIIIII44I4I4444444444444444444444AA4A4AA4AAAA4AA4AIAA4AAAA
IIIIIIIIII4I44I4I44444444444444444444A4AA4A4AA4AAAA4AA4AIAA4AAAA
IIIIIIIII44I44I444444444444444444444AA4AA4A4AA4AAAA4AA4AIAA4AAAA
IIIIIIII444I44I44444444444444444444AAA4AA4A4AA4AAAA4AA4AIAA4AAAA
IIIIIII4444I4444444444444444444444AAAA4AA4A4AA4AAAA4AA4AIAA4AAAA
IIIII4I4444I44444444444444444444A4AAAA4AA4A4AA4AAAA4AA4AIAA4AAAA
IIII44I444444444444444444444444AA4AAAA4AA4A4AA4AAAA4AA4AIAA4AAAA
II4I44I4444444444444444444444A4AA4AAAA4AA4A4AA4AAAA4AA4AIAA4AAAA
4I4I44I44444444444444444444A4A4AA4AAAA4AA4A4AA4AAAA4AA4AIAA4AAAA
4I4I4444444444444444444444AA4A4AA4AAAA4AA4A4AA4AAAA4AA4AIAA4AAAA
4I4I44444444444444444444A4AA4A4AA4AAAA4AA4A4AA4AAAA4AA4AIAA4AAAA
4I444444444444444444444AA4AA4A4AA4AAAA4AA4A4AA4AAAA4AA4AIAA4AAAA
4I44444444444444444444AAA4AA4A4AA4AAAA4AA4A4AA4AAAA4AA4AIAA4AAAA
444444444444444444444AAAA4AA4A4AA4AAAA4AA4A4AA4AAAA4AA4AIAA4AAAA
4444444444444444444A4AAAA4AA4A4AA4AAAA4AA4A4AA4AAAA4AA4AIAA4AAAA
444444444444444444AA4AAAA4AA4A4AA4AAAA4AA4A4AA4AAAA4AA4AIAA4AAAA
4444444444444444A4AA4AAAA4AA4A4AA4AAAA4AA4A4AA4AAAA4AA4AIAA4AAAA
44444444444444A4A4AA4AAAA4AA4A4AA4AAAA4AA4A4AA4AAAA4AA4AIAA4AAAA
4444444444444AA4A4AA4AAAA4AA4A4AA4AAAA4AA4A4AA4AAAA4AA4AIAA4AAAA
44444444444A4AA4A4AA4AAAA4AA4A4AA4AAAA4AA4A4AA4AAAA4AA4AIAA4AAAA
4444444444AA4AA4A4AA4AAAA4AA4A4AA4AAAA4AA4A4AA4AAAA4AA4AIAA4AAAA
444444444AAA4AA4A4AA4AAAA4AA4A4AA4AAAA4AA4A4AA4AAAA4AA4AIAA4AAAA
44444444AAAA4AA4A4AA4AAAA4AA4A4AA4AAAA4AA4A4AA4AAAA4AA4AIAA4AAAA
444444A4AAAA4AA4A4AA4AAAA4AA4A4AA4AAAA4AA4A4AA4AAAA4AA4AIAA4AAAA
44444AA4AAAA4AA4A4AA4AAAA4AA4A4AA4AAAA4AA4A4AA4AAAA4AA4AIAA4AAAA
444A4AA4AAAA4AA4A4AA4AAAA4AA4A4AA4AAAA4AA4A4AA4AAAA4AA4AIAA4AAAA
4A4A4AA4AAAA4AA4A4AA4AAAA4AA4A4AA4AAAA4AA4A4AA4AAAA4AA4AIAA4AAAA
AA4A4AA4AAAA4AA4A4AA4AAAA4AA4A4AA4AAAA4AA4A4AA4AAAA4AA4AIAA4AAAA
IIIIIIIIIIIIIIIIIIIIIIIIIIIIIIIIIIIIIIIIIII4II4III4II4IIIIII4IIA
IIIIIIIIIIIIIIIIIIIIIIIIIIIIIIIIIIIIIIIIII44I44II44I44IIIII44IAA
IIIIIIIIIIIIIIIIIIIIIIIIIIIIIIIIIIIIIIIII444444I444444IIII444AAA
IIIIIIIIIIIIIIIIIIIIIIIIIIIIIIIIIIIIIIII44444444444444III444AAAA
IIIIIIIIIIIIIIIIIIIIIIIIIIIIIIIIIIIIII4I44444444444444I4I4A4AAAA
IIIIIIIIIIIIIIIIIIIIIIIIIIIIIIIIIIIII44I4444444444444444IAA4AAAA
IIIIIIIIIIIIIIIIIIIIIIIIIIIIIIIIIII4I44I444444444444444AIAA4AAAA
IIIIIIIIIIIIIIIIIIIIIIIIIIIIIIIII4I4444I4444444444444A4AIAA4AAAA
IIIIIIIIIIIIIIIIIIIIIIIIIIIIIIII44I44444444444444444AA4AIAA4AAAA
IIIIIIIIIIIIIIIIIIIIIIIIIIIIII4I44I444444444444444A4AA4AIAA4AAAA
IIIIIIIIIIIIIIIIIIIIIIIIIIIII44I44I44444444444444AA4AA4AIAA4AAAA
IIIIIIIIIIIIIIIIIIIIIIIIIIII444444I4444444444444AAA4AA4AIAA4AAAA
IIIIIIIIIIIIIIIIIIIIIIIIIII44444444444444444444AAAA4AA4AIAA4AAAA
IIIIIIIIIIIIIIIIIIIIIIIII4I444444444444444444A4AAAA4AA4AIAA4AAAA
IIIIIIIIIIIIIIIIIIIIIIII44I44444444444444444AA4AAAA4AA4AIAA4AAAA
IIIIIIIIIIIIIIIIIIIIII4I44I444444444444444A4AA4AAAA4AA4AIAA4AAAA
IIIIIIIIIIIIIIIIIIII4I4444I4444444444444A4A4AA4AAAA4AA4AIAA4AAAA
IIIIIIIIIIIIIIIIIII44I44444444444444444AA4A4AA4AAAA4AA4AIAA4AAAA
IIIIIIIIIIIIIIIII4I44I444444444444444A4AA4A4AA4AAAA4AA4AIAA4AAAA
IIIIIIIIIIIIIIII44I44I44444444444444AA4AA4A4AA4AAAA4AA4AIAA4AAAA
IIIIIIIIIIIIIII444444I4444444444444AAA4AA4A4AA4AAAA4AA4AIAA4AAAA
IIIIIIIIIIIIII44444444444444444444AAAA4AA4A4AA4AAAA4AA4AIAA4AAAA
IIIIIIIIIIII4I444444444444444444A4AAAA4AA4A4AA4AAAA4AA4AIAA4AAAA
IIIIIIIIIII44I44444444444444444AA4AAAA4AA4A4AA4AAAA4AA4AIAA4AAAA
IIIIIIIII4I44I444444444444444A4AA4AAAA4AA4A4AA4AAAA4AA4AIAA4AAAA
IIIIIII4I4444I4444444444444A4A4AA4AAAA4AA4A4AA4AAAA4AA4AIAA4AAAA
IIIIII44I44444444444444444AA4A4AA4AAAA4AA4A4AA4AAAA4AA4AIAA4AAAA
IIII4I44I444444444444444A4AA4A4AA4AAAA4AA4A4AA4AAAA4AA4AIAA4AAAA
III44I44I44444444444444AA4AA4A4AA4AAAA4AA4A4AA4AAAA4AA4AIAA4AAAA
II444444I4444444444444AAA4AA4A4AA4AAAA4AA4A4AA4AAAA4AA4AIAA4AAAA
I44444444444444444444AAAA4AA4A4AA4AAAA4AA4A4AA4AAAA4AA4AIAA4AAAA
I444444444444444444A4AAAA4AA4A4AA4AAAA4AA4A4AA4AAAA4AA4AIAA4AAAA
I44444444444444444AA4AAAA4AA4A4AA4AAAA4AA4A4AA4AAAA4AA4AIAA4AAAA
I444444444444444A4AA4AAAA4AA4A4AA4AAAA4AA4A4AA4AAAA4AA4AIAA4AAAA
I4444444444444A4A4AA4AAAA4AA4A4AA4AAAA4AA4A4AA4AAAA4AA4AIAA4AAAA
4444444444444AA4A4AA4AAAA4AA4A4AA4AAAA4AA4A4AA4AAAA4AA4AIAA4AAAA
44444444444A4AA4A4AA4AAAA4AA4A4AA4AAAA4AA4A4AA4AAAA4AA4AIAA4AAAA
4444444444AA4AA4A4AA4AAAA4AA4A4AA4AAAA4AA4A4AA4AAAA4AA4AIAA4AAAA
444444444AAA4AA4A4AA4AAAA4AA4A4AA4AAAA4AA4A4AA4AAAA4AA4AIAA4AAAA
44444444AAAA4AA4A4AA4AAAA4AA4A4AA4AAAA4AA4A4AA4AAAA4AA4AIAA4AAAA
444444A4AAAA4AA4A4AA4AAAA4AA4A4AA4AAAA4AA4A4AA4AAAA4AA4AIAA4AAAA
44444AA4AAAA4AA4A4AA4AAAA4AA4A4AA4AAAA4AA4A4AA4AAAA4AA4AIAA4AAAA
444A4AA4AAAA4AA4A4AA4AAAA4AA4A4AA4AAAA4AA4A4AA4AAAA4AA4AIAA4AAAA
4A4A4AA4AAAA4AA4A4AA4AAAA4AA4A4AA4AAAA4AA4A4AA4AAAA4AA4AIAA4AAAA
AA4A4AA4AAAA4AA4A4AA4AAAA4AA4A4AA4AAAA4AA4A4AA4AAAA4AA4AIAA4AAAA
IIIIIIIIIIIIIIIIIIIIIIIIIIIIIIIIIIII4IIIIII4II4III4II4IIIIII4IIA
IIIIIIIIIIIIIIIIIIIIIIIIIIIIIIIIIII44IIIII44I44II44I44IIIII44IAA
IIIIIIIIIIIIIIIIIIIIIIIIIIIIIIIIII444IIII444444I444444IIII444AAA
IIIIIIIIIIIIIIIIIIIIIIIIIIIIIIIII4444III44444444444444III444AAAA
IIIIIIIIIIIIIIIIIIIIIIIIIIIIIII4I4444I4I44444444444444I4I4A4AAAA
IIIIIIIIIIIIIIIIIIIIIIIIIIIIII44I444444I4444444444444444IAA4AAAA
IIIIIIIIIIIIIIIIIIIIIIIIIIII4I44I444444I444444444444444AIAA4AAAA
IIIIIIIIIIIIIIIIIIIIIIIIII4I4I44I444444I4444444444444A4AIAA4AAAA
IIIIIIIIIIIIIIIIIIIIIIIII44I4I4444444444444444444444AA4AIAA4AAAA
IIIIIIIIIIIIIIIIIIIIIII4I44I4I44444444444444444444A4AA4AIAA4AAAA
IIIIIIIIIIIIIIIIIIIIII44I44I444444444444444444444AA4AA4AIAA4AAAA
IIIIIIIIIIIIIIIIIIIII444I44I44444444444444444444AAA4AA4AIAA4AAAA
IIIIIIIIIIIIIIIIIIII4444I4444444444444444444444AAAA4AA4AIAA4AAAA
IIIIIIIIIIIIIIIIII4I4444I44444444444444444444A4AAAA4AA4AIAA4AAAA
IIIIIIIIIIIIIIIII44I444444444444444444444444AA4AAAA4AA4AIAA4AAAA
IIIIIIIIIIIIIII4I44I4444444444444444444444A4AA4AAAA4AA4AIAA4AAAA
IIIIIIIIIIIII4I4I44I44444444444444444444A4A4AA4AAAA4AA4AIAA4AAAA
IIIIIIIIIIII44I4I4444444444444444444444AA4A4AA4AAAA4AA4AIAA4AAAA
IIIIIIIIII4I44I4I44444444444444444444A4AA4A4AA4AAAA4AA4AIAA4AAAA
IIIIIIIII44I44I444444444444444444444AA4AA4A4AA4AAAA4AA4AIAA4AAAA
IIIIIIII444I44I44444444444444444444AAA4AA4A4AA4AAAA4AA4AIAA4AAAA
IIIIIII4444I4444444444444444444444AAAA4AA4A4AA4AAAA4AA4AIAA4AAAA
IIIII4I4444I44444444444444444444A4AAAA4AA4A4AA4AAAA4AA4AIAA4AAAA
IIII44I444444444444444444444444AA4AAAA4AA4A4AA4AAAA4AA4AIAA4AAAA
II4I44I4444444444444444444444A4AA4AAAA4AA4A4AA4AAAA4AA4AIAA4AAAA
4I4I44I44444444444444444444A4A4AA4AAAA4AA4A4AA4AAAA4AA4AIAA4AAAA
4I4I4444444444444444444444AA4A4AA4AAAA4AA4A4AA4AAAA4AA4AIAA4AAAA
4I4I44444444444444444444A4AA4A4AA4AAAA4AA4A4AA4AAAA4AA4AIAA4AAAA
4I444444444444444444444AA4AA4A4AA4AAAA4AA4A4AA4AAAA4AA4AIAA4AAAA
4I44444444444444444444AAA4AA4A4AA4AAAA4AA4A4AA4AAAA4AA4AIAA4AAAA
444444444444444444444AAAA4AA4A4AA4AAAA4AA4A4AA4AAAA4AA4AIAA4AAAA
4444444444444444444A4AAAA4AA4A4AA4AAAA4AA4A4AA4AAAA4AA4AIAA4AAAA
444444444444444444AA4AAAA4AA4A4AA4AAAA4AA4A4AA4AAAA4AA4AIAA4AAAA
4444444444444444A4AA4AAAA4AA4A4AA4AAAA4AA4A4AA4AAAA4AA4AIAA4AAAA
44444444444444A4A4AA4AAAA4AA4A4AA4AAAA4AA4A4AA4AAAA4AA4AIAA4AAAA
4444444444444AA4A4AA4AAAA4AA4A4AA4AAAA4AA4A4AA4AAAA4AA4AIAA4AAAA
44444444444A4AA4A4AA4AAAA4AA4A4AA4AAAA4AA4A4AA4AAAA4AA4AIAA4AAAA
4444444444AA4AA4A4AA4AAAA4AA4A4AA4AAAA4AA4A4AA4AAAA4AA4AIAA4AAAA
444444444AAA4AA4A4AA4AAAA4AA4A4AA4AAAA4AA4A4AA4AAAA4AA4AIAA4AAAA
44444444AAAA4AA4A4AA4AAAA4AA4A4AA4AAAA4AA4A4AA4AAAA4AA4AIAA4AAAA
444444A4AAAA4AA4A4AA4AAAA4AA4A4AA4AAAA4AA4A4AA4AAAA4AA4AIAA4AAAA
44444AA4AAAA4AA4A4AA4AAAA4AA4A4AA4AAAA4AA4A4AA4AAAA4AA4AIAA4AAAA
444A4AA4AAAA4AA4A4AA4AAAA4AA4A4AA4AAAA4AA4A4AA4AAAA4AA4AIAA4AAAA
4A4A4AA4AAAA4AA4A4AA4AAAA4AA4A4AA4AAAA4AA4A4AA4AAAA4AA4AIAA4AAAA
AA4A4AA4AAAA4AA4A4AA4AAAA4AA4A4AA4AAAA4AA4A4AA4AAAA4AA4AIAA4AAAA
IIIIIIIIIIIIIIIIIIIIIIIIIIIII4IIIIII44IIIII4II4III4II4IIIIII2IIA
IIIIIIIIIIIIIIIIIIIIIIIIIIII44IIIII444IIII44I44II44I44IIIII22IAA
IIIIIIIIIIIIIIIIIIIIIIIIIII444IIII4444III444444I444444IIII222AAA
IIIIIIIIIIIIIIIIIIIIIIIIII4444III44444II44444444444444III222AAAA
IIIIIIIIIIIIIIIIIIIIIIII4I4444I44444444I44444444444444I2I2A2AAAA
IIIIIIIIIIIIIIIIIIIIIII44I4444444444444I4444444444444422IAA2AAAA
IIIIIIIIIIIIIIIIIIIII4I44I4444444444444I444444444444242AIAA2AAAA
IIIIIIIIIIIIIIIIIII4I4I44I4444444444444I4444444444242A2AIAA2AAAA
IIIIIIIIIIIIIIIIII44I4I44444444444444444444444444224AA2AIAA2AAAA
IIIIIIIIIIIIIIII4I44I4I444444444444444444444444242A4AA2AIAA2AAAA
IIIIIIIIIIIIIII44I44I4444444444444444444444444224AA4AA2AIAA2AAAA
IIIIIIIIIIIIII444I44I444444444444444444444444222AAA4AA2AIAA2AAAA
IIIIIIIIIIIII4444I44444444444444444444444444222AAAA4AA2AIAA2AAAA
IIIIIIIIIII4I4444I444444444444444444444444242A2AAAA4AA2AIAA2AAAA
IIIIIIIIII44I4444444444444444444444444444224AA2AAAA4AA2AIAA2AAAA
IIIIIIII4I44I44444444444444444444444444242A4AA2AAAA4AA2AIAA2AAAA
IIIIII4I4I44I444444444444444444444444242A2A4AA2AAAA4AA2AIAA2AAAA
IIIII44I4I44444444444444444444444444224AA2A4AA2AAAA4AA2AIAA2AAAA
III4I44I4I444444444444444444444444242A4AA2A4AA2AAAA4AA2AIAA2AAAA
II44I44I4444444444444444444444444224AA4AA2A4AA2AAAA4AA2AIAA2AAAA
I444I44I444444444444444444444444222AAA4AA2A4AA2AAAA4AA2AIAA2AAAA
4444I44444444444444444444444444222AAAA4AA2A4AA2AAAA4AA2AIAA2AAAA
4444I444444444444444444444444242A2AAAA4AA2A4AA2AAAA4AA2AIAA2AAAA
4444444444444444444444444444224AA2AAAA4AA2A4AA2AAAA4AA2AIAA2AAAA
44444444444444444444444444242A4AA2AAAA4AA2A4AA2AAAA4AA2AIAA2AAAA
444444444444444444444444242A2A4AA2AAAA4AA2A4AA2AAAA4AA2AIAA2AAAA
44444444444444444444444224AA2A4AA2AAAA4AA2A4AA2AAAA4AA2AIAA2AAAA
444444444444444444444242A4AA2A4AA2AAAA4AA2A4AA2AAAA4AA2AIAA2AAAA
44444444444444444444224AA4AA2A4AA2AAAA4AA2A4AA2AAAA4AA2AIAA2AAAA
4444444444444444444222AAA4AA2A4AA2AAAA4AA2A4AA2AAAA4AA2AIAA2AAAA
444444444444444444222AAAA4AA2A4AA2AAAA4AA2A4AA2AAAA4AA2AIAA2AAAA
4444444444444444242A2AAAA4AA2A4AA2AAAA4AA2A4AA2AAAA4AA2AIAA2AAAA
444444444444444224AA2AAAA4AA2A4AA2AAAA4AA2A4AA2AAAA4AA2AIAA2AAAA
4444444444444242A4AA2AAAA4AA2A4AA2AAAA4AA2A4AA2AAAA4AA2AIAA2AAAA
44444444444242A2A4AA2AAAA4AA2A4AA2AAAA4AA2A4AA2AAAA4AA2AIAA2AAAA
4444444444224AA2A4AA2AAAA4AA2A4AA2AAAA4AA2A4AA2AAAA4AA2AIAA2AAAA
44444444242A4AA2A4AA2AAAA4AA2A4AA2AAAA4AA2A4AA2AAAA4AA2AIAA2AAAA
444444242A2A4AA2A4AA2AAAA4AA2A4AA2AAAA4AA2A4AA2AAAA4AA2AIAA2AAAA
444444222AAA4AA2A4AA2AAAA4AA2A4AA2AAAA4AA2A4AA2AAAA4AA2AIAA2AAAA
44444222AAAA4AA2A4AA2AAAA4AA2A4AA2AAAA4AA2A4AA2AAAA4AA2AIAA2AAAA
444242A2AAAA4AA2A4AA2AAAA4AA2A4AA2AAAA4AA2A4AA2AAAA4AA2AIAA2AAAA
44224AA2AAAA4AA2A4AA2AAAA4AA2A4AA2AAAA4AA2A4AA2AAAA4AA2AIAA2AAAA
242A4AA2AAAA4AA2A4AA2AAAA4AA2A4AA2AAAA4AA2A4AA2AAAA4AA2AIAA2AAAA
2A2A4AA2AAAA4AA2A4AA2AAAA4AA2A4AA2AAAA4AA2A4AA2AAAA4AA2AIAA2AAAA
AA2A4AA2AAAA4AA2A4AA2AAAA4AA2A4AA2AAAA4AA2A4AA2AAAA4AA2AIAA2AAAA
AA2A4AAIAAAA4AA2A4AA2AAAA4AA2A4AA2AAAA4AA2A4AA2AAAA4AA2AIAA2AAAA
AA2A4AAIAAAA4AA2A4AA2AAAA4AA2A4AA2AIAA4AA2A4AA2AAAA4AA2AIAA2AAAA
AA2A4AAIAAAA4AA2A4AA2AAAA4AA2A4AA2AIAA4AA2A4AA2AAAA4AA2IIAA2AAAA
AA2A4AAIAAAA4AA2A4AA2AAAA4AA2A4AA2AIAA4AA2A4AA2AAAA4AAIIIAA2AAAA
AA2A4AAIAAAA4AA2A4AA2AAAA4AA2A4AA2AIAA4AA2A4AA2AAAA4IAIIIAA2AAAA
AA2A4AAIAAAA4AA2A4AA2AAAA4AA2A4AA2AIAA4AA2A4AA2AAIA4IAIIIAA2AAAA
AA2A4AAIAAAA4AA2A4AA2AAAA4AA2A4AA2AIAA4AA2A4AA2AIIA4IAIIIAA2AAAA
AA2A4AAIAAAA4AA2A4AA2AAAA4AA2A4AA2AIAA4AA2A4IA2AIIA4IAIIIAA2AAAA
AA2A4AAIAAAA4AA2A4AA2AAAA4AA2A4AA2AIAA4AA2A4II2AIIA4IAIIIAA2AAAA
AA2A4AAIAAAA4AA2A4AA2AAAA4AA2A4AI2AIAA4AA2A4II2AIIA4IAIIIAA2AAAA
AA2A4AAIAAAA4AA2A4IA2AAAA4AA2A4AI2AIAA4AA2A4II2AIIA4IAIIIAA2AAAA
AA2A4AAIAAAA4AA2A4IA2AAAA4AI2A4AI2AIAA4AA2A4II2AIIA4IAIIIAA2AAAA
AA2A4AAIAAAA4AA2A4IA2AAAI4AI2A4AI2AIAA4AA2A4II2AIIA4IAIIIAA2AAAA
AA2A4AAIAAAI4AA2A4IA2AAAI4AI2A4AI2AIAA4AA2A4II2AIIA4IAIIIAA2AAAA
AA2I4AAIAAAI4AA2A4IA2AAAI4AI2A4AI2AIAA4AA2A4II2AIIA4IAIIIAA2AAAA
IA2I4AAIAAAI4AA2A4IA2AAAI4AI2A4AI2AIAA4AA2A4II2AIIA4IAIIIAA2AAAA
IIIIIIIIIIIIIIIIIIIIIIIIIIIIIIIIIIIIIIIIIIIIII4III4II4IIIIII4IIA
IIIIIIIIIIIIIIIIIIIIIIIIIIIIIIIIIIIIIIIIIIIII44II44I44IIIII44IAA
IIIIIIIIIIIIIIIIIIIIIIIIIIIIIIIIIIIIIIIIIIII444I444444IIII444AAA
IIIIIIIIIIIIIIIIIIIIIIIIIIIIIIIIIIIIIIIIIII44444444444III444AAAA
IIIIIIIIIIIIIIIIIIIIIIIIIIIIIIIIIIIIIIIII4I44444444444I4I4A4AAAA
IIIIIIIIIIIIIIIIIIIIIIIIIIIIIIIIIIIIIIII44I4444444444444IAA4AAAA
IIIIIIIIIIIIIIIIIIIIIIIIIIIIIIIIIIIIII4I444444444444444AIAA4AAAA
IIIIIIIIIIIIIIIIIIIIIIIIIIIIIIIIIIII4I4I4444444444444A4AIAA4AAAA
IIIIIIIIIIIIIIIIIIIIIIIIIIIIIIIIIII44I44444444444444AA4AIAA4AAAA
IIIIIIIIIIIIIIIIIIIIIIIIIIIIIIIII4I444444444444444A4AA4AIAA4AAAA
IIIIIIIIIIIIIIIIIIIIIIIIIIIIIIII44I44444444444444AA4AA4AIAA4AAAA
IIIIIIIIIIIIIIIIIIIIIIIIIIIIIII444I4444444444444AAA4AA4AIAA4AAAA
IIIIIIIIIIIIIIIIIIIIIIIIIIIIII44444444444444444AAAA4AA4AIAA4AAAA
IIIIIIIIIIIIIIIIIIIIIIIIIIII4I444444444444444A4AAAA4AA4AIAA4AAAA
IIIIIIIIIIIIIIIIIIIIIIIIIII44I44444444444444AA4AAAA4AA4AIAA4AAAA
IIIIIIIIIIIIIIIIIIIIIIIII4I444444444444444A4AA4AAAA4AA4AIAA4AAAA
IIIIIIIIIIIIIIIIIIIIIII4I4I4444444444444A4A4AA4AAAA4AA4AIAA4AAAA
IIIIIIIIIIIIIIIIIIIIII44I44444444444444AA4A4AA4AAAA4AA4AIAA4AAAA
IIIIIIIIIIIIIIIIIIII4I444444444444444A4AA4A4AA4AAAA4AA4AIAA4AAAA
IIIIIIIIIIIIIIIIIII44I44444444444444AA4AA4A4AA4AAAA4AA4AIAA4AAAA
IIIIIIIIIIIIIIIIII444I4444444444444AAA4AA4A4AA4AAAA4AA4AIAA4AAAA
IIIIIIIIIIIIIIIII44444444444444444AAAA4AA4A4AA4AAAA4AA4AIAA4AAAA
IIIIIIIIIIIIIII4I444444444444444A4AAAA4AA4A4AA4AAAA4AA4AIAA4AAAA
IIIIIIIIIIIIII44I44444444444444AA4AAAA4AA4A4AA4AAAA4AA4AIAA4AAAA
IIIIIIIIIIII4I444444444444444A4AA4AAAA4AA4A4AA4AAAA4AA4AIAA4AAAA
IIIIIIIIIIII4I4444444444444A4A4AA4AAAA4AA4A4AA4AAAA4AA4AIAA4AAAA
IIIIIIIIIIII44444444444444AA4A4AA4AAAA4AA4A4AA4AAAA4AA4AIAA4AAAA
IIIIIIIIIII4444444444444A4AA4A4AA4AAAA4AA4A4AA4AAAA4AA4AIAA4AAAA
IIIIIIIIII4444444444444AA4AA4A4AA4AAAA4AA4A4AA4AAAA4AA4AIAA4AAAA
IIIIIIIII4444444444444AAA4AA4A4AA4AAAA4AA4A4AA4AAAA4AA4AIAA4AAAA
IIIIIIII4444444444444AAAA4AA4A4AA4AAAA4AA4A4AA4AAAA4AA4AIAA4AAAA
IIIIII4I44444444444A4AAAA4AA4A4AA4AAAA4AA4A4AA4AAAA4AA4AIAA4AAAA
IIIII44I4444444444AA4AAAA4AA4A4AA4AAAA4AA4A4AA4AAAA4AA4AIAA4AAAA
III4I44I44444444A4AA4AAAA4AA4A4AA4AAAA4AA4A4AA4AAAA4AA4AIAA4AAAA
I4I4444I444444A4A4AA4AAAA4AA4A4AA4AAAA4AA4A4AA4AAAA4AA4AIAA4AAAA
44I4444I44444AA4A4AA4AAAA4AA4A4AA4AAAA4AA4A4AA4AAAA4AA4AIAA4AAAA
44I4444I444A4AA4A4AA4AAAA4AA4A4AA4AAAA4AA4A4AA4AAAA4AA4AIAA4AAAA
44I4444444AA4AA4A4AA4AAAA4AA4A4AA4AAAA4AA4A4AA4AAAA4AA4AIAA4AAAA
44I444444AAA4AA4A4AA4AAAA4AA4A4AA4AAAA4AA4A4AA4AAAA4AA4AIAA4AAAA
44I44444AAAA4AA4A4AA4AAAA4AA4A4AA4AAAA4AA4A4AA4AAAA4AA4AIAA4AAAA
44I444A4AAAA4AA4A4AA4AAAA4AA4A4AA4AAAA4AA4A4AA4AAAA4AA4AIAA4AAAA
44444AA4AAAA4AA4A4AA4AAAA4AA4A4AA4AAAA4AA4A4AA4AAAA4AA4AIAA4AAAA
444A4AA4AAAA4AA4A4AA4AAAA4AA4A4AA4AAAA4AA4A4AA4AAAA4AA4AIAA4AAAA
4A4A4AA4AAAA4AA4A4AA4AAAA4AA4A4AA4AAAA4AA4A4AA4AAAA4AA4AIAA4AAAA
AA4A4AA4AAAA4AA4A4AA4AAAA4AA4A4AA4AAAA4AA4A4AA4AAAA4AA4AIAA4AAAA
IIIIIIIIIIIIIIIIIIIIIIIIIIIIIIIIIIII4IIIIII4II4III4II4IIIIII4IIA
IIIIIIIIIIIIIIIIIIIIIIIIIIIIIIIIIII44IIIII44I44II44I44IIIII44IAA
IIIIIIIIIIIIIIIIIIIIIIIIIIIIIIIIII444IIII444444I444444IIII444AAA
IIIIIIIIIIIIIIIIIIIIIIIIIIIIIIIII4444III44444444444444III444AAAA
IIIIIIIIIIIIIIIIIIIIIIIIIIIIIII4I4444I4I44444444444444I4I4A4AAAA
IIIIIIIIIIIIIIIIIIIIIIIIIIIIII44I444444I4444444444444444IAA4AAAA
IIIIIIIIIIIIIIIIIIIIIIIIIIII4I44I444444I444444444444444AIAA4AAAA
IIIIIIIIIIIIIIIIIIIIIIIIII4I4I44I444444I4444444444444A4AIAA4AAAA
IIIIIIIIIIIIIIIIIIIIIIIII44I4I4444444444444444444444AA4AIAA4AAAA
IIIIIIIIIIIIIIIIIIIIIII4I44I4I44444444444444444444A4AA4AIAA4AAAA
IIIIIIIIIIIIIIIIIIIII4I4I44I4I444444444444444444A4A4AA4AIAA4AAAA
IIIIIIIIIIIIIIIIIIII44I4I4444I44444444444444444AA4A4AA4AIAA4AAAA
IIIIIIIIIIIIIIIIIIII4444I4444444444444444444444AAAA4AA4AIAA4AAAA
IIIIIIIIIIIIIIIIII4I4444I44444444444444444444A4AAAA4AA4AIAA4AAAA
IIIIIIIIIIIIIIIII44I444444444444444444444444AA4AAAA4AA4AIAA4AAAA
IIIIIIIIIIIIIII4I44I4444444444444444444444A4AA4AAAA4AA4AIAA4AAAA
IIIIIIIIIIIII4I4I44I44444444444444444444A4A4AA4AAAA4AA4AIAA4AAAA
IIIIIIIIIIII44I4I4444444444444444444444AA4A4AA4AAAA4AA4AIAA4AAAA
IIIIIIIIII4I44I4I44444444444444444444A4AA4A4AA4AAAA4AA4AIAA4AAAA
II4IIIIII44I44I444444444444444444444AA4AA4A4AA4AAAA4AA4AIAA4AAAA
I44IIIII444444I44444444444444444444AAA4AA4A4AA4AAAA4AA4AIAA4AAAA
444IIII444444444444444444444444444AAAA4AA4A4AA4AAAA4AA4AIAA4AAAA
444II4I4444444444444444444444444A4AAAA4AA4A4AA4AAAA4AA4AIAA4AAAA
444I44I444444444444444444444444AA4AAAA4AA4A4AA4AAAA4AA4AIAA4AAAA
444I44I4444444444444444444444A4AA4AAAA4AA4A4AA4AAAA4AA4AIAA4AAAA
444444I44444444444444444444A4A4AA4AAAA4AA4A4AA4AAAA4AA4AIAA4AAAA
44444444444444444444444444AA4A4AA4AAAA4AA4A4AA4AAAA4AA4AIAA4AAAA
444444444444444444444444A4AA4A4AA4AAAA4AA4A4AA4AAAA4AA4AIAA4AAAA
44444444444444444444444AA4AA4A4AA4AAAA4AA4A4AA4AAAA4AA4AIAA4AAAA
4444444444444444444444AAA4AA4A4AA4AAAA4AA4A4AA4AAAA4AA4AIAA4AAAA
444444444444444444444AAAA4AA4A4AA4AAAA4AA4A4AA4AAAA4AA4AIAA4AAAA
4444444444444444444A4AAAA4AA4A4AA4AAAA4AA4A4AA4AAAA4AA4AIAA4AAAA
444444444444444444AA4AAAA4AA4A4AA4AAAA4AA4A4AA4AAAA4AA4AIAA4AAAA
4444444444444444A4AA4AAAA4AA4A4AA4AAAA4AA4A4AA4AAAA4AA4AIAA4AAAA
44444444444444A4A4AA4AAAA4AA4A4AA4AAAA4AA4A4AA4AAAA4AA4AIAA4AAAA
4444444444444AA4A4AA4AAAA4AA4A4AA4AAAA4AA4A4AA4AAAA4AA4AIAA4AAAA
44444444444A4AA4A4AA4AAAA4AA4A4AA4AAAA4AA4A4AA4AAAA4AA4AIAA4AAAA
4444444444AA4AA4A4AA4AAAA4AA4A4AA4AAAA4AA4A4AA4AAAA4AA4AIAA4AAAA
444444444AAA4AA4A4AA4AAAA4AA4A4AA4AAAA4AA4A4AA4AAAA4AA4AIAA4AAAA
44444444AAAA4AA4A4AA4AAAA4AA4A4AA4AAAA4AA4A4AA4AAAA4AA4AIAA4AAAA
444444A4AAAA4AA4A4AA4AAAA4AA4A4AA4AAAA4AA4A4AA4AAAA4AA4AIAA4AAAA
44444AA4AAAA4AA4A4AA4AAAA4AA4A4AA4AAAA4AA4A4AA4AAAA4AA4AIAA4AAAA
444A4AA4AAAA4AA4A4AA4AAAA4AA4A4AA4AAAA4AA4A4AA4AAAA4AA4AIAA4AAAA
4A4A4AA4AAAA4AA4A4AA4AAAA4AA4A4AA4AAAA4AA4A4AA4AAAA4AA4AIAA4AAAA
AA4A4AA4AAAA4AA4A4AA4AAAA4AA4A4AA4AAAA4AA4A4AA4AAAA4AA4AIAA4AAAA
IIIIIIIIIIIIIIIIIIIIIIIIIIIII4IIIIII44IIIII4II4III4II2IIIIII2IIA
IIIIIIIIIIIIIIIIIIIIIIIIIIII44IIIII444IIII44I44II44I22IIIII22IAA
IIIIIIIIIIIIIIIIIIIIIIIIIII444IIII4444III444444I444222IIII222AAA
IIIIIIIIIIIIIIIIIIIIIIIIII4444III44444II44444444442222III222AAAA
IIIIIIIIIIIIIIIIIIIIIIII4I4444I44444444I44444444242222I2I2A2AAAA
IIIIIIIIIIIIIIIIIIIIIII44I4444444444444I4444444224222222IAA2AAAA
IIIIIIIIIIIIIIIIIIIII4I44I4444444444444I444442422422222AIAA2AAAA
IIIIIIIIIIIIIIIIIII4I4I44I4444444444444I4442424224222A2AIAA2AAAA
IIIIIIIIIIIIIIIIII44I4I44444444444444444442242422222AA2AIAA2AAAA
IIIIIIIIIIIIIIII4I44I4I444444444444444442422424222A2AA2AIAA2AAAA
IIIIIIIIIIIIIII44I44I4444444444444444442242242222AA2AA2AIAA2AAAA
IIIIIIIIIIIIII444I44I444444444444444442224224222AAA2AA2AIAA2AAAA
IIIIIIIIIIIII4444I44444444444444444442222422222AAAA2AA2AIAA2AAAA
IIIIIIIIIII4I4444I444444444444444442422224222A2AAAA2AA2AIAA2AAAA
IIIIIIIIII44I4444444444444444444442242222222AA2AAAA2AA2AIAA2AAAA
IIIIIIII4I44I44444444444444444442422422222A2AA2AAAA2AA2AIAA2AAAA
IIIIII4I4I44I444444444444444442424224222A2A2AA2AAAA2AA2AIAA2AAAA
IIIII44I4I44444444444444444442242422222AA2A2AA2AAAA2AA2AIAA2AAAA
III4I44I4I444444444444444442422424222A2AA2A2AA2AAAA2AA2AIAA2AAAA
II44I44I4444444444444444442242242222AA2AA2A2AA2AAAA2AA2AIAA2AAAA
I444I44I444444444444444442224224222AAA2AA2A2AA2AAAA2AA2AIAA2AAAA
4444I44444444444444444442222422222AAAA2AA2A2AA2AAAA2AA2AIAA2AAAA
4444I444444444444444442422224222A2AAAA2AA2A2AA2AAAA2AA2AIAA2AAAA
4444444444444444444442242222222AA2AAAA2AA2A2AA2AAAA2AA2AIAA2AAAA
44444444444444444442422422222A2AA2AAAA2AA2A2AA2AAAA2AA2AIAA2AAAA
444444444444444442424224222A2A2AA2AAAA2AA2A2AA2AAAA2AA2AIAA2AAAA
44444444444444442242422222AA2A2AA2AAAA2AA2A2AA2AAAA2AA2AIAA2AAAA
444444444444442422424222A2AA2A2AA2AAAA2AA2A2AA2AAAA2AA2AIAA2AAAA
44444444444442242242222AA2AA2A2AA2AAAA2AA2A2AA2AAAA2AA2AIAA2AAAA
4444444444442224224222AAA2AA2A2AA2AAAA2AA2A2AA2AAAA2AA2AIAA2AAAA
444444444442222422222AAAA2AA2A2AA2AAAA2AA2A2AA2AAAA2AA2AIAA2AAAA
4444444442422224222A2AAAA2AA2A2AA2AAAA2AA2A2AA2AAAA2AA2AIAA2AAAA
444444442242222222AA2AAAA2AA2A2AA2AAAA2AA2A2AA2AAAA2AA2AIAA2AAAA
4444442422422222A2AA2AAAA2AA2A2AA2AAAA2AA2A2AA2AAAA2AA2AIAA2AAAA
44442424224222A2A2AA2AAAA2AA2A2AA2AAAA2AA2A2AA2AAAA2AA2AIAA2AAAA
4442242422222AA2A2AA2AAAA2AA2A2AA2AAAA2AA2A2AA2AAAA2AA2AIAA2AAAA
42422424222A2AA2A2AA2AAAA2AA2A2AA2AAAA2AA2A2AA2AAAA2AA2AIAA2AAAA
2242242222AA2AA2A2AA2AAAA2AA2A2AA2AAAA2AA2A2AA2AAAA2AA2AIAA2AAAA
224224222AAA2AA2A2AA2AAAA2AA2A2AA2AAAA2AA2A2AA2AAAA2AA2AIAA2AAAA
22422222AAAA2AA2A2AA2AAAA2AA2A2AA2AAAA2AA2A2AA2AAAA2AA2AIAA2AAAA
224222A2AAAA2AA2A2AA2AAAA2AA2A2AA2AAAA2AA2A2AA2AAAA2AA2AIAA2AAAA
22222AA2AAAA2AA2A2AA2AAAA2AA2A2AA2AAAA2AA2A2AA2AAAA2AA2AIAA2AAAA
222A2AA2AAAA2AA2A2AA2AAAA2AA2A2AA2AAAA2AA2A2AA2AAAA2AA2AIAA2AAAA
2A2A2AA2AAAA2AA2A2AA2AAAA2AA2A2AA2AAAA2AA2A2AA2AAAA2AA2AIAA2AAAA
AA2A2AA2AAAA2AA2A2AA2AAAA2AA2A2AA2AAAA2AA2A2AA2AAAA2AA2AIAA2AAAA
AA2A2AA2AAAA2AA2A2AA2AAAA2AA2AIAA2AAAA2AA2A2AA2AAAA2AA2AIAA2AAAA
AA2A2AA2AAAA2AA2A2AA2AAAA2IA2AIAA2AAAA2AA2A2AA2AAAA2AA2AIAA2AAAA
AA2A2AA2AAAA2AA2AIAA2AAAA2IA2AIAA2AAAA2AA2A2AA2AAAA2AA2AIAA2AAAA
AA2AIAA2AAAA2AA2AIAA2AAAA2IA2AIAA2AAAA2AA2A2AA2AAAA2AA2AIAA2AAAA
IA2AIAA2AAAA2AA2AIAA2AAAA2IA2AIAA2AAAA2AA2A2AA2AAAA2AA2AIAA2AAAA
IA2AIAA2AAAA2AA2AIAA2AAAA2IA2AIAA2AAAA2AI2A2AA2AAAA2AA2AIAA2AAAA
IA2AIAA2AAAA2AA2AIAA2AAAA2IA2AIAA2AAAA2AI2A2AA2AAAA2AAIAIAA2AAAA
IA2AIAA2AAAA2AA2AIAA2AAAA2II2AIAA2AAAA2AI2A2AA2AAAA2AAIAIAA2AAAA
IA2AIAA2AAAA2AA2AIAA2AAIA2II2AIAA2AAAA2AI2A2AA2AAAA2AAIAIAA2AAAA
IA2AIAA2AAAA2AA2AIAI2AAIA2II2AIAA2AAAA2AI2A2AA2AAAA2AAIAIAA2AAAA
IA2IIAA2AAAA2AA2AIAI2AAIA2II2AIAA2AAAA2AI2A2AA2AAAA2AAIAIAA2AAAA
IA2IIAA2AAAI2AA2AIAI2AAIA2II2AIAA2AAAA2AI2A2AA2AAAA2AAIAIAA2AAAA
[MLOP] Prefetch Degree Mean: 4.90595
[MLOP] Prefetch Degree SD: 1.87034
[MLOP] Max Score Left Mean (%): 30.90114
[MLOP] Max Score Left SD (%): 10.65826
[MLOP] Max Score Right Mean (%): 63.10560
[MLOP] Max Score Right SD (%): 14.75598

Channel_0_RQ_row_buffer_hit 836685
Channel_0_RQ_row_buffer_miss 751353
Channel_0_WQ_row_buffer_hit 43215
Channel_0_WQ_row_buffer_miss 258115
Channel_0_WQ_full 0
Channel_0_dbus_congested 1072261

avg_congested_cycle 10

DRAM_bw_pochs 517221
DRAM_bw_level_0 335848
DRAM_bw_level_1 96129
DRAM_bw_level_2 27936
DRAM_bw_level_3 57308
