*************************************************
   ChampSim Multicore Out-of-Order Simulator
   Last compiled: Apr  3 2025 20:54:34
*************************************************
parsing config file: /home/zir/Pythia/config/nopref.ini

trace_0 /home/zir/ChampSim/ML-DPC/ChampSimTraces/spec17/654.roms-s0.trace.xz
adding L2C_PREFETCHER: NONE
Initialize SHIP state
warmup_instructions 10000000
simulation_instructions 50000000
champsim_seed 163
measure_ipc 0
measure_ipc_epoch 1000
measure_dram_bw 1
measure_dram_bw_epoch 256
measure_cache_acc 1
measure_cache_acc_epoch 1024
l1d_perfect 0
l2c_perfect 0
llc_perfect 0
l1d_semi_perfect 0
l2c_semi_perfect 0
llc_semi_perfect 0
semi_perfect_cache_page_buffer_size 64

num_cpus 1
cpu_freq 4000
dram_io_freq 2400
page_size 4096
block_size 64
max_read_per_cycle 8
max_fill_per_cycle 1
dram_channels 1
log2_dram_channels 0
dram_ranks 1
dram_banks 8
dram_rows 65536
dram_columns 128
dram_row_size 8
dram_size 4096
dram_pages 1048576

fetch_width 6
decode_width 6
exec_width 4
lq_width 2
sq_width 2
retire_width 4
scheduler_size 128
branch_mispredict_penalty 20
rob_size 256
lq_size 72
sq_size 56
num_instr_destinations_sparc 4
num_instr_destinations 2
num_instr_sources 4

itlb_set 16
itlb_way 8
itlb_rq_size 16
itlb_wq_size 16
itlb_pq_size 0
itlb_mshr_size 8
itlb_latency 1

dtlb_set 16
dtlb_way 4
dtlb_rq_size 16
dtlb_wq_size 16
dtlb_pq_size 0
dtlb_mshr_size 8
dtlb_latency 1

stlb_set 128
stlb_way 12
stlb_rq_size 32
stlb_wq_size 32
stlb_pq_size 0
stlb_mshr_size 16
stlb_latency 8

l1i_size 32
l1i_set 64
l1i_way 8
l1i_rq_size 64
l1i_wq_size 64
l1i_pq_size 8
l1i_mshr_size 8
l1i_latency 1

l1d_size 32
l1d_set 64
l1d_way 8
l1d_rq_size 64
l1d_wq_size 64
l1d_pq_size 8
l1d_mshr_size 16
l1d_latency 4

l2c_size 256
l2c_set 512
l2c_way 8
l2c_rq_size 32
l2c_wq_size 32
l2c_pq_size 32
l2c_mshr_size 32
l2c_latency 10

llc_size 2048
llc_set 2048
llc_way 16
llc_rq_size 32
llc_wq_size 32
llc_pq_size 32
llc_mshr_size 64
llc_latency 20

dram_channel_width 8
dram_wq_size 64
dram_rq_size 64
tRP 15
tRCD 15
tCAS 12.5
dram_dbus_turn_around_time 30
dram_write_high_wm 56
dram_write_low_wm 48
min_dram_writes_per_switch 16
dram_mtps 2400
dram_dbus_return_time 13


Heartbeat CPU  0 instructions:    1000000 cycles:     466148 heartbeat IPC: 2.14524 cumulative IPC: 2.14524 (Simulation time: 0 hr 0 min 1 sec) 
Heartbeat CPU  0 instructions:    2000001 cycles:     931914 heartbeat IPC: 2.14700 cumulative IPC: 2.14612 (Simulation time: 0 hr 0 min 3 sec) 
Heartbeat CPU  0 instructions:    3000000 cycles:    1397638 heartbeat IPC: 2.14719 cumulative IPC: 2.14648 (Simulation time: 0 hr 0 min 5 sec) 
Heartbeat CPU  0 instructions:    4000000 cycles:    1863081 heartbeat IPC: 2.14849 cumulative IPC: 2.14698 (Simulation time: 0 hr 0 min 6 sec) 
Heartbeat CPU  0 instructions:    5000001 cycles:    2328630 heartbeat IPC: 2.14800 cumulative IPC: 2.14719 (Simulation time: 0 hr 0 min 8 sec) 
Heartbeat CPU  0 instructions:    6000000 cycles:    2794386 heartbeat IPC: 2.14704 cumulative IPC: 2.14716 (Simulation time: 0 hr 0 min 10 sec) 
Heartbeat CPU  0 instructions:    7000000 cycles:    3260060 heartbeat IPC: 2.14742 cumulative IPC: 2.14720 (Simulation time: 0 hr 0 min 11 sec) 
Heartbeat CPU  0 instructions:    8000000 cycles:    3725621 heartbeat IPC: 2.14795 cumulative IPC: 2.14729 (Simulation time: 0 hr 0 min 13 sec) 
Heartbeat CPU  0 instructions:    9000000 cycles:    4191225 heartbeat IPC: 2.14775 cumulative IPC: 2.14734 (Simulation time: 0 hr 0 min 15 sec) 
Heartbeat CPU  0 instructions:   10000002 cycles:    4656941 heartbeat IPC: 2.14724 cumulative IPC: 2.14733 (Simulation time: 0 hr 0 min 16 sec) 

Warmup complete CPU  0 instructions:   10000002 cycles:    4656941 (Simulation time: 0 hr 0 min 16 sec) 

Heartbeat CPU  0 instructions:   11000001 cycles:    6372290 heartbeat IPC: 0.58297 cumulative IPC: 0.58297 (Simulation time: 0 hr 0 min 19 sec) 
Heartbeat CPU  0 instructions:   12000000 cycles:    8091596 heartbeat IPC: 0.58163 cumulative IPC: 0.58230 (Simulation time: 0 hr 0 min 21 sec) 
Heartbeat CPU  0 instructions:   13000001 cycles:    9802551 heartbeat IPC: 0.58447 cumulative IPC: 0.58302 (Simulation time: 0 hr 0 min 23 sec) 
Heartbeat CPU  0 instructions:   14000001 cycles:   11513072 heartbeat IPC: 0.58462 cumulative IPC: 0.58342 (Simulation time: 0 hr 0 min 26 sec) 
Heartbeat CPU  0 instructions:   15000001 cycles:   13222618 heartbeat IPC: 0.58495 cumulative IPC: 0.58372 (Simulation time: 0 hr 0 min 28 sec) 
Heartbeat CPU  0 instructions:   16000000 cycles:   14929181 heartbeat IPC: 0.58597 cumulative IPC: 0.58410 (Simulation time: 0 hr 0 min 31 sec) 
Heartbeat CPU  0 instructions:   17000000 cycles:   16638835 heartbeat IPC: 0.58491 cumulative IPC: 0.58421 (Simulation time: 0 hr 0 min 33 sec) 
Heartbeat CPU  0 instructions:   18000000 cycles:   18344341 heartbeat IPC: 0.58634 cumulative IPC: 0.58448 (Simulation time: 0 hr 0 min 36 sec) 
Heartbeat CPU  0 instructions:   19000003 cycles:   20049493 heartbeat IPC: 0.58646 cumulative IPC: 0.58470 (Simulation time: 0 hr 0 min 39 sec) 
Heartbeat CPU  0 instructions:   20000000 cycles:   21757145 heartbeat IPC: 0.58560 cumulative IPC: 0.58479 (Simulation time: 0 hr 0 min 41 sec) 
Heartbeat CPU  0 instructions:   21000003 cycles:   23472515 heartbeat IPC: 0.58297 cumulative IPC: 0.58462 (Simulation time: 0 hr 0 min 44 sec) 
Heartbeat CPU  0 instructions:   22000001 cycles:   25190147 heartbeat IPC: 0.58220 cumulative IPC: 0.58442 (Simulation time: 0 hr 0 min 46 sec) 
Heartbeat CPU  0 instructions:   23000000 cycles:   26904993 heartbeat IPC: 0.58314 cumulative IPC: 0.58432 (Simulation time: 0 hr 0 min 49 sec) 
Heartbeat CPU  0 instructions:   24000000 cycles:   28618400 heartbeat IPC: 0.58363 cumulative IPC: 0.58427 (Simulation time: 0 hr 0 min 51 sec) 
Heartbeat CPU  0 instructions:   25000003 cycles:   30332411 heartbeat IPC: 0.58343 cumulative IPC: 0.58422 (Simulation time: 0 hr 0 min 54 sec) 
Heartbeat CPU  0 instructions:   26000003 cycles:   32047712 heartbeat IPC: 0.58299 cumulative IPC: 0.58414 (Simulation time: 0 hr 0 min 57 sec) 
Heartbeat CPU  0 instructions:   27000000 cycles:   33755758 heartbeat IPC: 0.58546 cumulative IPC: 0.58422 (Simulation time: 0 hr 0 min 59 sec) 
Heartbeat CPU  0 instructions:   28000000 cycles:   35466486 heartbeat IPC: 0.58455 cumulative IPC: 0.58423 (Simulation time: 0 hr 1 min 1 sec) 
Heartbeat CPU  0 instructions:   29000000 cycles:   37188177 heartbeat IPC: 0.58082 cumulative IPC: 0.58405 (Simulation time: 0 hr 1 min 4 sec) 
Heartbeat CPU  0 instructions:   30000000 cycles:   38909271 heartbeat IPC: 0.58103 cumulative IPC: 0.58390 (Simulation time: 0 hr 1 min 6 sec) 
Heartbeat CPU  0 instructions:   31000001 cycles:   40629561 heartbeat IPC: 0.58130 cumulative IPC: 0.58378 (Simulation time: 0 hr 1 min 9 sec) 
Heartbeat CPU  0 instructions:   32000000 cycles:   42350119 heartbeat IPC: 0.58121 cumulative IPC: 0.58366 (Simulation time: 0 hr 1 min 11 sec) 
Heartbeat CPU  0 instructions:   33000000 cycles:   44085816 heartbeat IPC: 0.57614 cumulative IPC: 0.58333 (Simulation time: 0 hr 1 min 14 sec) 
Heartbeat CPU  0 instructions:   34000000 cycles:   45811213 heartbeat IPC: 0.57958 cumulative IPC: 0.58317 (Simulation time: 0 hr 1 min 16 sec) 
Heartbeat CPU  0 instructions:   35000000 cycles:   47531336 heartbeat IPC: 0.58135 cumulative IPC: 0.58310 (Simulation time: 0 hr 1 min 18 sec) 
Heartbeat CPU  0 instructions:   36000000 cycles:   49260280 heartbeat IPC: 0.57839 cumulative IPC: 0.58292 (Simulation time: 0 hr 1 min 21 sec) 
Heartbeat CPU  0 instructions:   37000001 cycles:   50977267 heartbeat IPC: 0.58242 cumulative IPC: 0.58290 (Simulation time: 0 hr 1 min 23 sec) 
Heartbeat CPU  0 instructions:   38000002 cycles:   52695870 heartbeat IPC: 0.58187 cumulative IPC: 0.58286 (Simulation time: 0 hr 1 min 26 sec) 
Heartbeat CPU  0 instructions:   39000000 cycles:   54411770 heartbeat IPC: 0.58278 cumulative IPC: 0.58286 (Simulation time: 0 hr 1 min 28 sec) 
Heartbeat CPU  0 instructions:   40000000 cycles:   56127789 heartbeat IPC: 0.58274 cumulative IPC: 0.58285 (Simulation time: 0 hr 1 min 31 sec) 
Heartbeat CPU  0 instructions:   41000001 cycles:   57848697 heartbeat IPC: 0.58109 cumulative IPC: 0.58280 (Simulation time: 0 hr 1 min 33 sec) 
Heartbeat CPU  0 instructions:   42000003 cycles:   59571682 heartbeat IPC: 0.58039 cumulative IPC: 0.58272 (Simulation time: 0 hr 1 min 35 sec) 
Heartbeat CPU  0 instructions:   43000000 cycles:   61287337 heartbeat IPC: 0.58287 cumulative IPC: 0.58273 (Simulation time: 0 hr 1 min 38 sec) 
Heartbeat CPU  0 instructions:   44000000 cycles:   63505934 heartbeat IPC: 0.45074 cumulative IPC: 0.57775 (Simulation time: 0 hr 1 min 41 sec) 
Heartbeat CPU  0 instructions:   45000001 cycles:   66906520 heartbeat IPC: 0.29407 cumulative IPC: 0.56225 (Simulation time: 0 hr 1 min 44 sec) 
Heartbeat CPU  0 instructions:   46000002 cycles:   70067736 heartbeat IPC: 0.31633 cumulative IPC: 0.55037 (Simulation time: 0 hr 1 min 47 sec) 
Heartbeat CPU  0 instructions:   47000003 cycles:   73518140 heartbeat IPC: 0.28982 cumulative IPC: 0.53731 (Simulation time: 0 hr 1 min 50 sec) 
Heartbeat CPU  0 instructions:   48000000 cycles:   77200814 heartbeat IPC: 0.27154 cumulative IPC: 0.52382 (Simulation time: 0 hr 1 min 53 sec) 
Heartbeat CPU  0 instructions:   49000000 cycles:   80941345 heartbeat IPC: 0.26734 cumulative IPC: 0.51124 (Simulation time: 0 hr 1 min 56 sec) 
Heartbeat CPU  0 instructions:   50000003 cycles:   84685537 heartbeat IPC: 0.26708 cumulative IPC: 0.49982 (Simulation time: 0 hr 2 min 0 sec) 
Heartbeat CPU  0 instructions:   51000000 cycles:   88423419 heartbeat IPC: 0.26753 cumulative IPC: 0.48946 (Simulation time: 0 hr 2 min 3 sec) 
Heartbeat CPU  0 instructions:   52000000 cycles:   92152281 heartbeat IPC: 0.26818 cumulative IPC: 0.48003 (Simulation time: 0 hr 2 min 6 sec) 
Heartbeat CPU  0 instructions:   53000002 cycles:   96838121 heartbeat IPC: 0.21341 cumulative IPC: 0.46647 (Simulation time: 0 hr 2 min 9 sec) 
Heartbeat CPU  0 instructions:   54000002 cycles:  101709457 heartbeat IPC: 0.20528 cumulative IPC: 0.45336 (Simulation time: 0 hr 2 min 12 sec) 
Heartbeat CPU  0 instructions:   55000001 cycles:  104947275 heartbeat IPC: 0.30885 cumulative IPC: 0.44870 (Simulation time: 0 hr 2 min 15 sec) 
Heartbeat CPU  0 instructions:   56000000 cycles:  106724123 heartbeat IPC: 0.56279 cumulative IPC: 0.45068 (Simulation time: 0 hr 2 min 18 sec) 
Heartbeat CPU  0 instructions:   57000000 cycles:  108501631 heartbeat IPC: 0.56259 cumulative IPC: 0.45260 (Simulation time: 0 hr 2 min 20 sec) 
Heartbeat CPU  0 instructions:   58000003 cycles:  110278016 heartbeat IPC: 0.56294 cumulative IPC: 0.45445 (Simulation time: 0 hr 2 min 23 sec) 
Heartbeat CPU  0 instructions:   59000003 cycles:  112054321 heartbeat IPC: 0.56297 cumulative IPC: 0.45625 (Simulation time: 0 hr 2 min 25 sec) 
Heartbeat CPU  0 instructions:   60000000 cycles:  113819363 heartbeat IPC: 0.56656 cumulative IPC: 0.45803 (Simulation time: 0 hr 2 min 27 sec) 
Finished CPU 0 instructions: 50000000 cycles: 109162432 cumulative IPC: 0.45803 (Simulation time: 0 hr 2 min 27 sec) 

ChampSim completed all CPUs

[ROI Statistics]
Core_0_instructions 50000000
Core_0_cycles 109162432
Core_0_IPC 0.45803

Core_0_branch_prediction_accuracy 99.95464
Core_0_branch_MPKI 0.03442
Core_0_average_ROB_occupancy_at_mispredict 247.60488

Core_0_L1D_total_access 14606751
Core_0_L1D_total_hit 14152823
Core_0_L1D_total_miss 453928
Core_0_L1D_loads 9205390
Core_0_L1D_load_hit 8905194
Core_0_L1D_load_miss 300196
Core_0_L1D_RFOs 5401361
Core_0_L1D_RFO_hit 5247629
Core_0_L1D_RFO_miss 153732
Core_0_L1D_prefetches 0
Core_0_L1D_prefetch_hit 0
Core_0_L1D_prefetch_miss 0
Core_0_L1D_writebacks 0
Core_0_L1D_writeback_hit 0
Core_0_L1D_writeback_miss 0
Core_0_L1D_prefetch_requested 0
Core_0_L1D_prefetch_dropped 0
Core_0_L1D_prefetch_issued 0
Core_0_L1D_prefetch_filled 0
Core_0_L1D_prefetch_useful 0
Core_0_L1D_prefetch_useless 0
Core_0_L1D_prefetch_late 0
Core_0_L1D_average_miss_latency 265.14236

Core_0_L1D_rq_access 12350106
Core_0_L1D_rq_forward 0
Core_0_L1D_rq_merged 2781186
Core_0_L1D_rq_to_cache 9568920
Core_0_L1D_rq_full 0

Core_0_L1D_wq_access 6118340
Core_0_L1D_wq_forward 0
Core_0_L1D_wq_merged 320351
Core_0_L1D_wq_to_cache 5797989
Core_0_L1D_wq_full 0

Core_0_L1D_pq_access 0
Core_0_L1D_pq_forward 0
Core_0_L1D_pq_merged 0
Core_0_L1D_pq_to_cache 0
Core_0_L1D_pq_full 0

Core_0_L1D_acc_epochs 110097
Core_0_L1D_acc_level_0 110097
Core_0_L1D_acc_level_1 0
Core_0_L1D_acc_level_2 0
Core_0_L1D_acc_level_3 0
Core_0_L1D_acc_level_4 0
Core_0_L1D_acc_level_5 0
Core_0_L1D_acc_level_6 0
Core_0_L1D_acc_level_7 0
Core_0_L1D_acc_level_8 0
Core_0_L1D_acc_level_9 0

Core_0_L1I_total_access 18261825
Core_0_L1I_total_hit 18261762
Core_0_L1I_total_miss 63
Core_0_L1I_loads 18261825
Core_0_L1I_load_hit 18261762
Core_0_L1I_load_miss 63
Core_0_L1I_RFOs 0
Core_0_L1I_RFO_hit 0
Core_0_L1I_RFO_miss 0
Core_0_L1I_prefetches 0
Core_0_L1I_prefetch_hit 0
Core_0_L1I_prefetch_miss 0
Core_0_L1I_writebacks 0
Core_0_L1I_writeback_hit 0
Core_0_L1I_writeback_miss 0
Core_0_L1I_prefetch_requested 0
Core_0_L1I_prefetch_dropped 0
Core_0_L1I_prefetch_issued 0
Core_0_L1I_prefetch_filled 0
Core_0_L1I_prefetch_useful 0
Core_0_L1I_prefetch_useless 0
Core_0_L1I_prefetch_late 0
Core_0_L1I_average_miss_latency 221.50794

Core_0_L1I_rq_access 50000004
Core_0_L1I_rq_forward 0
Core_0_L1I_rq_merged 31738132
Core_0_L1I_rq_to_cache 18261872
Core_0_L1I_rq_full 0

Core_0_L1I_wq_access 0
Core_0_L1I_wq_forward 0
Core_0_L1I_wq_merged 0
Core_0_L1I_wq_to_cache 0
Core_0_L1I_wq_full 0

Core_0_L1I_pq_access 0
Core_0_L1I_pq_forward 0
Core_0_L1I_pq_merged 0
Core_0_L1I_pq_to_cache 0
Core_0_L1I_pq_full 0

Core_0_L1I_acc_epochs 110097
Core_0_L1I_acc_level_0 110097
Core_0_L1I_acc_level_1 0
Core_0_L1I_acc_level_2 0
Core_0_L1I_acc_level_3 0
Core_0_L1I_acc_level_4 0
Core_0_L1I_acc_level_5 0
Core_0_L1I_acc_level_6 0
Core_0_L1I_acc_level_7 0
Core_0_L1I_acc_level_8 0
Core_0_L1I_acc_level_9 0

Core_0_L2C_total_access 608748
Core_0_L2C_total_hit 157629
Core_0_L2C_total_miss 451119
Core_0_L2C_loads 300259
Core_0_L2C_load_hit 3072
Core_0_L2C_load_miss 297187
Core_0_L2C_RFOs 153732
Core_0_L2C_RFO_hit 0
Core_0_L2C_RFO_miss 153732
Core_0_L2C_prefetches 0
Core_0_L2C_prefetch_hit 0
Core_0_L2C_prefetch_miss 0
Core_0_L2C_writebacks 154757
Core_0_L2C_writeback_hit 154557
Core_0_L2C_writeback_miss 200
Core_0_L2C_prefetch_requested 0
Core_0_L2C_prefetch_dropped 0
Core_0_L2C_prefetch_issued 0
Core_0_L2C_prefetch_filled 0
Core_0_L2C_prefetch_useful 0
Core_0_L2C_prefetch_useless 0
Core_0_L2C_prefetch_late 0
Core_0_L2C_average_miss_latency 252.29905

Core_0_L2C_rq_access 453991
Core_0_L2C_rq_forward 0
Core_0_L2C_rq_merged 0
Core_0_L2C_rq_to_cache 453991
Core_0_L2C_rq_full 0

Core_0_L2C_wq_access 154757
Core_0_L2C_wq_forward 0
Core_0_L2C_wq_merged 0
Core_0_L2C_wq_to_cache 154757
Core_0_L2C_wq_full 0

Core_0_L2C_pq_access 0
Core_0_L2C_pq_forward 0
Core_0_L2C_pq_merged 0
Core_0_L2C_pq_to_cache 0
Core_0_L2C_pq_full 0

Core_0_L2C_acc_epochs 110097
Core_0_L2C_acc_level_0 110097
Core_0_L2C_acc_level_1 0
Core_0_L2C_acc_level_2 0
Core_0_L2C_acc_level_3 0
Core_0_L2C_acc_level_4 0
Core_0_L2C_acc_level_5 0
Core_0_L2C_acc_level_6 0
Core_0_L2C_acc_level_7 0
Core_0_L2C_acc_level_8 0
Core_0_L2C_acc_level_9 0

Core_0_LLC_total_access 604669
Core_0_LLC_total_hit 30723
Core_0_LLC_total_miss 573946
Core_0_LLC_loads 297187
Core_0_LLC_load_hit 89
Core_0_LLC_load_miss 297098
Core_0_LLC_RFOs 153732
Core_0_LLC_RFO_hit 0
Core_0_LLC_RFO_miss 153732
Core_0_LLC_prefetches 0
Core_0_LLC_prefetch_hit 0
Core_0_LLC_prefetch_miss 0
Core_0_LLC_writebacks 153750
Core_0_LLC_writeback_hit 30634
Core_0_LLC_writeback_miss 123116
Core_0_LLC_prefetch_requested 0
Core_0_LLC_prefetch_dropped 0
Core_0_LLC_prefetch_issued 0
Core_0_LLC_prefetch_filled 0
Core_0_LLC_prefetch_useful 0
Core_0_LLC_prefetch_useless 0
Core_0_LLC_prefetch_late 0
Core_0_LLC_average_miss_latency 174.29444

Core_0_LLC_rq_access 450919
Core_0_LLC_rq_forward 0
Core_0_LLC_rq_merged 0
Core_0_LLC_rq_to_cache 450919
Core_0_LLC_rq_full 0

Core_0_LLC_wq_access 153750
Core_0_LLC_wq_forward 0
Core_0_LLC_wq_merged 0
Core_0_LLC_wq_to_cache 153750
Core_0_LLC_wq_full 0

Core_0_LLC_pq_access 0
Core_0_LLC_pq_forward 0
Core_0_LLC_pq_merged 0
Core_0_LLC_pq_to_cache 0
Core_0_LLC_pq_full 0

Core_0_LLC_acc_epochs 111152
Core_0_LLC_acc_level_0 111152
Core_0_LLC_acc_level_1 0
Core_0_LLC_acc_level_2 0
Core_0_LLC_acc_level_3 0
Core_0_LLC_acc_level_4 0
Core_0_LLC_acc_level_5 0
Core_0_LLC_acc_level_6 0
Core_0_LLC_acc_level_7 0
Core_0_LLC_acc_level_8 0
Core_0_LLC_acc_level_9 0

Core_0_major_page_fault 0
Core_0_minor_page_fault 10418

Channel_0_RQ_row_buffer_hit 115779
Channel_0_RQ_row_buffer_miss 335051
Channel_0_WQ_row_buffer_hit 79976
Channel_0_WQ_row_buffer_miss 50825
Channel_0_WQ_full 0
Channel_0_dbus_congested 156032

avg_congested_cycle 10

DRAM_bw_pochs 444607
DRAM_bw_level_0 373128
DRAM_bw_level_1 71247
DRAM_bw_level_2 232
DRAM_bw_level_3 0
