*************************************************
   ChampSim Multicore Out-of-Order Simulator
   Last compiled: Apr  3 2025 20:54:34
*************************************************
parsing config file: /home/zir/Pythia/config/pythia.ini

trace_0 /home/zir/ChampSim/ML-DPC/ChampSimTraces/spec06/470.lbm-s0.trace.gz
adding L2C_PREFETCHER: Scooby
Initialize SHIP state
warmup_instructions 10000000
simulation_instructions 50000000
champsim_seed 163
measure_ipc 0
measure_ipc_epoch 1000
measure_dram_bw 1
measure_dram_bw_epoch 256
measure_cache_acc 1
measure_cache_acc_epoch 1024
l1d_perfect 0
l2c_perfect 0
llc_perfect 0
l1d_semi_perfect 0
l2c_semi_perfect 0
llc_semi_perfect 0
semi_perfect_cache_page_buffer_size 64

num_cpus 1
cpu_freq 4000
dram_io_freq 2400
page_size 4096
block_size 64
max_read_per_cycle 8
max_fill_per_cycle 1
dram_channels 1
log2_dram_channels 0
dram_ranks 1
dram_banks 8
dram_rows 65536
dram_columns 128
dram_row_size 8
dram_size 4096
dram_pages 1048576

fetch_width 6
decode_width 6
exec_width 4
lq_width 2
sq_width 2
retire_width 4
scheduler_size 128
branch_mispredict_penalty 20
rob_size 256
lq_size 72
sq_size 56
num_instr_destinations_sparc 4
num_instr_destinations 2
num_instr_sources 4

itlb_set 16
itlb_way 8
itlb_rq_size 16
itlb_wq_size 16
itlb_pq_size 0
itlb_mshr_size 8
itlb_latency 1

dtlb_set 16
dtlb_way 4
dtlb_rq_size 16
dtlb_wq_size 16
dtlb_pq_size 0
dtlb_mshr_size 8
dtlb_latency 1

stlb_set 128
stlb_way 12
stlb_rq_size 32
stlb_wq_size 32
stlb_pq_size 0
stlb_mshr_size 16
stlb_latency 8

l1i_size 32
l1i_set 64
l1i_way 8
l1i_rq_size 64
l1i_wq_size 64
l1i_pq_size 8
l1i_mshr_size 8
l1i_latency 1

l1d_size 32
l1d_set 64
l1d_way 8
l1d_rq_size 64
l1d_wq_size 64
l1d_pq_size 8
l1d_mshr_size 16
l1d_latency 4

l2c_size 256
l2c_set 512
l2c_way 8
l2c_rq_size 32
l2c_wq_size 32
l2c_pq_size 32
l2c_mshr_size 32
l2c_latency 10

llc_size 2048
llc_set 2048
llc_way 16
llc_rq_size 32
llc_wq_size 32
llc_pq_size 32
llc_mshr_size 64
llc_latency 20

dram_channel_width 8
dram_wq_size 64
dram_rq_size 64
tRP 15
tRCD 15
tCAS 12.5
dram_dbus_turn_around_time 30
dram_write_high_wm 56
dram_write_low_wm 48
min_dram_writes_per_switch 16
dram_mtps 2400
dram_dbus_return_time 13

scooby_alpha 0.0065088
scooby_gamma 0.556301
scooby_epsilon 0.00182284
scooby_state_num_bits 10
scooby_max_states 1024
scooby_seed 200
scooby_policy EGreedy
scooby_learning_type SARSA
scooby_actions 1,3,4,5,10,11,12,22,23,30,32,-1,-3,-6,0,
scooby_max_actions 15
scooby_pt_size 256
scooby_st_size 64
scooby_max_pcs 5
scooby_max_offsets 5
scooby_max_deltas 5
scooby_reward_none -4
scooby_reward_incorrect -8
scooby_reward_correct_untimely 12
scooby_reward_correct_timely 20
scooby_brain_zero_init 0
scooby_enable_reward_all 0
scooby_enable_track_multiple 0
scooby_enable_reward_out_of_bounds 1
scooby_reward_out_of_bounds -12
scooby_state_type 1
scooby_state_hash_type 11
scooby_access_debug 0
scooby_print_access_debug 0
scooby_print_access_debug_pc deadbeef
scooby_print_access_debug_pc_count 0
scooby_print_trace 0
scooby_enable_state_action_stats 1
scooby_enable_reward_tracker_hit 0
scooby_reward_tracker_hit -2
scooby_enable_featurewise_engine 1
scooby_pref_degree 1
scooby_enable_dyn_degree 1
scooby_max_to_avg_q_thresholds 0.5,1,2,
scooby_dyn_degrees 1,2,4,4,
scooby_multi_deg_select_type 2
scooby_last_pref_offset_conf_thresholds 1,3,8,
scooby_dyn_degrees_type2 1,2,4,6,
scooby_action_tracker_size 2
scooby_high_bw_thresh 4
scooby_enable_hbw_reward 1
scooby_reward_hbw_correct_timely 20
scooby_reward_hbw_correct_untimely 12
scooby_reward_hbw_incorrect -14
scooby_reward_hbw_none -2
scooby_reward_hbw_out_of_bounds -12
scooby_reward_hbw_tracker_hit -2
scooby_last_pref_offset_conf_thresholds_hbw 1,3,8,
scooby_dyn_degrees_type2_hbw 1,2,4,6,

le_enable_trace 0
le_trace_interval 0
le_trace_file_name 
le_trace_state 0
le_enable_score_plot 0
le_plot_file_name 
le_plot_actions 
le_enable_action_trace 0
le_action_trace_interval 0
le_action_trace_name 
le_enable_action_plot 0

le_featurewise_active_features PC, PC_Delta
le_featurewise_num_tilings 3,3,
le_featurewise_num_tiles 128,128,
le_featurewise_hash_types 2,2,
le_featurewise_enable_tiling_offset 1,1,
le_featurewise_max_q_thresh 0.5
le_featurewise_enable_action_fallback 1
le_featurewise_feature_weights 1,1,
le_featurewise_enable_dynamic_weight 0
le_featurewise_weight_gradient 0.001
le_featurewise_disable_adjust_weight_all_features_align 1
le_featurewise_selective_update 0
le_featurewise_pooling_type 2
le_featurewise_enable_dyn_action_fallback 1
le_featurewise_bw_acc_check_level 1
le_featurewise_acc_thresh 2
le_featurewise_enable_trace 0
le_featurewise_trace_feature_type 0
le_featurewise_trace_feature 
le_featurewise_trace_interval 0
le_featurewise_trace_record_count 0
le_featurewise_trace_file_name 
le_featurewise_enable_score_plot 0
le_featurewise_plot_actions 
le_featurewise_plot_file_name 


Heartbeat CPU  0 instructions:    1000002 cycles:     375188 heartbeat IPC: 2.66534 cumulative IPC: 2.66534 (Simulation time: 0 hr 0 min 2 sec) 
Heartbeat CPU  0 instructions:    2000003 cycles:     750339 heartbeat IPC: 2.66560 cumulative IPC: 2.66547 (Simulation time: 0 hr 0 min 3 sec) 
Heartbeat CPU  0 instructions:    3000002 cycles:    1125407 heartbeat IPC: 2.66618 cumulative IPC: 2.66570 (Simulation time: 0 hr 0 min 5 sec) 
Heartbeat CPU  0 instructions:    4000000 cycles:    1503136 heartbeat IPC: 2.64740 cumulative IPC: 2.66110 (Simulation time: 0 hr 0 min 7 sec) 
Heartbeat CPU  0 instructions:    5000000 cycles:    1878262 heartbeat IPC: 2.66577 cumulative IPC: 2.66204 (Simulation time: 0 hr 0 min 8 sec) 
Heartbeat CPU  0 instructions:    6000002 cycles:    2253389 heartbeat IPC: 2.66577 cumulative IPC: 2.66266 (Simulation time: 0 hr 0 min 10 sec) 
Heartbeat CPU  0 instructions:    7000001 cycles:    2631107 heartbeat IPC: 2.64748 cumulative IPC: 2.66048 (Simulation time: 0 hr 0 min 12 sec) 
Heartbeat CPU  0 instructions:    8000000 cycles:    3006290 heartbeat IPC: 2.66536 cumulative IPC: 2.66109 (Simulation time: 0 hr 0 min 13 sec) 
Heartbeat CPU  0 instructions:    9000003 cycles:    3381403 heartbeat IPC: 2.66587 cumulative IPC: 2.66162 (Simulation time: 0 hr 0 min 15 sec) 
Heartbeat CPU  0 instructions:   10000000 cycles:    3756559 heartbeat IPC: 2.66555 cumulative IPC: 2.66201 (Simulation time: 0 hr 0 min 16 sec) 

Warmup complete CPU  0 instructions:   10000004 cycles:    3756560 (Simulation time: 0 hr 0 min 16 sec) 

Heartbeat CPU  0 instructions:   11000000 cycles:    5483132 heartbeat IPC: 0.57918 cumulative IPC: 0.57918 (Simulation time: 0 hr 0 min 19 sec) 
Heartbeat CPU  0 instructions:   12000000 cycles:    7074653 heartbeat IPC: 0.62833 cumulative IPC: 0.60275 (Simulation time: 0 hr 0 min 21 sec) 
Heartbeat CPU  0 instructions:   13000002 cycles:    8583302 heartbeat IPC: 0.66285 cumulative IPC: 0.62154 (Simulation time: 0 hr 0 min 23 sec) 
Heartbeat CPU  0 instructions:   14000003 cycles:   10225289 heartbeat IPC: 0.60902 cumulative IPC: 0.61836 (Simulation time: 0 hr 0 min 26 sec) 
Heartbeat CPU  0 instructions:   15000000 cycles:   11810204 heartbeat IPC: 0.63095 cumulative IPC: 0.62084 (Simulation time: 0 hr 0 min 28 sec) 
Heartbeat CPU  0 instructions:   16000000 cycles:   13407637 heartbeat IPC: 0.62600 cumulative IPC: 0.62169 (Simulation time: 0 hr 0 min 31 sec) 
Heartbeat CPU  0 instructions:   17000000 cycles:   15088467 heartbeat IPC: 0.59494 cumulative IPC: 0.61772 (Simulation time: 0 hr 0 min 33 sec) 
Heartbeat CPU  0 instructions:   18000002 cycles:   16667634 heartbeat IPC: 0.63325 cumulative IPC: 0.61962 (Simulation time: 0 hr 0 min 35 sec) 
Heartbeat CPU  0 instructions:   19000002 cycles:   18237969 heartbeat IPC: 0.63681 cumulative IPC: 0.62149 (Simulation time: 0 hr 0 min 38 sec) 
Heartbeat CPU  0 instructions:   20000000 cycles:   19837410 heartbeat IPC: 0.62522 cumulative IPC: 0.62186 (Simulation time: 0 hr 0 min 40 sec) 
Heartbeat CPU  0 instructions:   21000003 cycles:   21517469 heartbeat IPC: 0.59522 cumulative IPC: 0.61934 (Simulation time: 0 hr 0 min 42 sec) 
Heartbeat CPU  0 instructions:   22000002 cycles:   23139570 heartbeat IPC: 0.61648 cumulative IPC: 0.61910 (Simulation time: 0 hr 0 min 45 sec) 
Heartbeat CPU  0 instructions:   23000001 cycles:   24685860 heartbeat IPC: 0.64671 cumulative IPC: 0.62114 (Simulation time: 0 hr 0 min 47 sec) 
Heartbeat CPU  0 instructions:   24000000 cycles:   26371217 heartbeat IPC: 0.59335 cumulative IPC: 0.61907 (Simulation time: 0 hr 0 min 50 sec) 
Heartbeat CPU  0 instructions:   25000003 cycles:   27958700 heartbeat IPC: 0.62993 cumulative IPC: 0.61978 (Simulation time: 0 hr 0 min 52 sec) 
Heartbeat CPU  0 instructions:   26000002 cycles:   29581695 heartbeat IPC: 0.61614 cumulative IPC: 0.61955 (Simulation time: 0 hr 0 min 54 sec) 
Heartbeat CPU  0 instructions:   27000001 cycles:   31117281 heartbeat IPC: 0.65122 cumulative IPC: 0.62133 (Simulation time: 0 hr 0 min 57 sec) 
Heartbeat CPU  0 instructions:   28000000 cycles:   32801110 heartbeat IPC: 0.59388 cumulative IPC: 0.61974 (Simulation time: 0 hr 0 min 59 sec) 
Heartbeat CPU  0 instructions:   29000000 cycles:   34384599 heartbeat IPC: 0.63152 cumulative IPC: 0.62035 (Simulation time: 0 hr 1 min 1 sec) 
Heartbeat CPU  0 instructions:   30000003 cycles:   36002154 heartbeat IPC: 0.61822 cumulative IPC: 0.62024 (Simulation time: 0 hr 1 min 4 sec) 
Heartbeat CPU  0 instructions:   31000003 cycles:   37682000 heartbeat IPC: 0.59529 cumulative IPC: 0.61900 (Simulation time: 0 hr 1 min 6 sec) 
Heartbeat CPU  0 instructions:   32000000 cycles:   39331736 heartbeat IPC: 0.60616 cumulative IPC: 0.61841 (Simulation time: 0 hr 1 min 8 sec) 
Heartbeat CPU  0 instructions:   33000003 cycles:   40839298 heartbeat IPC: 0.66332 cumulative IPC: 0.62023 (Simulation time: 0 hr 1 min 11 sec) 
Heartbeat CPU  0 instructions:   34000000 cycles:   42541686 heartbeat IPC: 0.58741 cumulative IPC: 0.61879 (Simulation time: 0 hr 1 min 13 sec) 
Heartbeat CPU  0 instructions:   35000003 cycles:   44156865 heartbeat IPC: 0.61913 cumulative IPC: 0.61881 (Simulation time: 0 hr 1 min 15 sec) 
Heartbeat CPU  0 instructions:   36000000 cycles:   45669712 heartbeat IPC: 0.66100 cumulative IPC: 0.62033 (Simulation time: 0 hr 1 min 18 sec) 
Heartbeat CPU  0 instructions:   37000002 cycles:   47089214 heartbeat IPC: 0.70447 cumulative IPC: 0.62309 (Simulation time: 0 hr 1 min 20 sec) 
Heartbeat CPU  0 instructions:   38000000 cycles:   48666007 heartbeat IPC: 0.63420 cumulative IPC: 0.62348 (Simulation time: 0 hr 1 min 22 sec) 
Heartbeat CPU  0 instructions:   39000003 cycles:   50233332 heartbeat IPC: 0.63803 cumulative IPC: 0.62397 (Simulation time: 0 hr 1 min 25 sec) 
Heartbeat CPU  0 instructions:   40000000 cycles:   51672818 heartbeat IPC: 0.69469 cumulative IPC: 0.62609 (Simulation time: 0 hr 1 min 27 sec) 
Heartbeat CPU  0 instructions:   41000002 cycles:   53261019 heartbeat IPC: 0.62964 cumulative IPC: 0.62621 (Simulation time: 0 hr 1 min 29 sec) 
Heartbeat CPU  0 instructions:   42000003 cycles:   54825461 heartbeat IPC: 0.63921 cumulative IPC: 0.62660 (Simulation time: 0 hr 1 min 32 sec) 
Heartbeat CPU  0 instructions:   43000000 cycles:   56422805 heartbeat IPC: 0.62604 cumulative IPC: 0.62659 (Simulation time: 0 hr 1 min 34 sec) 
Heartbeat CPU  0 instructions:   44000000 cycles:   58126300 heartbeat IPC: 0.58703 cumulative IPC: 0.62535 (Simulation time: 0 hr 1 min 36 sec) 
Heartbeat CPU  0 instructions:   45000003 cycles:   59758249 heartbeat IPC: 0.61277 cumulative IPC: 0.62498 (Simulation time: 0 hr 1 min 39 sec) 
Heartbeat CPU  0 instructions:   46000003 cycles:   61242345 heartbeat IPC: 0.67381 cumulative IPC: 0.62624 (Simulation time: 0 hr 1 min 41 sec) 
Heartbeat CPU  0 instructions:   47000002 cycles:   62774315 heartbeat IPC: 0.65275 cumulative IPC: 0.62693 (Simulation time: 0 hr 1 min 43 sec) 
Heartbeat CPU  0 instructions:   48000000 cycles:   64428386 heartbeat IPC: 0.60457 cumulative IPC: 0.62632 (Simulation time: 0 hr 1 min 46 sec) 
Heartbeat CPU  0 instructions:   49000000 cycles:   65927764 heartbeat IPC: 0.66694 cumulative IPC: 0.62730 (Simulation time: 0 hr 1 min 48 sec) 
Heartbeat CPU  0 instructions:   50000003 cycles:   67302265 heartbeat IPC: 0.72754 cumulative IPC: 0.62947 (Simulation time: 0 hr 1 min 50 sec) 
Heartbeat CPU  0 instructions:   51000001 cycles:   68520306 heartbeat IPC: 0.82099 cumulative IPC: 0.63307 (Simulation time: 0 hr 1 min 52 sec) 
Heartbeat CPU  0 instructions:   52000000 cycles:   70100550 heartbeat IPC: 0.63281 cumulative IPC: 0.63306 (Simulation time: 0 hr 1 min 55 sec) 
Heartbeat CPU  0 instructions:   53000002 cycles:   71583848 heartbeat IPC: 0.67417 cumulative IPC: 0.63396 (Simulation time: 0 hr 1 min 57 sec) 
Heartbeat CPU  0 instructions:   54000001 cycles:   73077473 heartbeat IPC: 0.66951 cumulative IPC: 0.63473 (Simulation time: 0 hr 1 min 59 sec) 
Heartbeat CPU  0 instructions:   55000001 cycles:   74780215 heartbeat IPC: 0.58729 cumulative IPC: 0.63359 (Simulation time: 0 hr 2 min 2 sec) 
Heartbeat CPU  0 instructions:   56000000 cycles:   76283941 heartbeat IPC: 0.66501 cumulative IPC: 0.63424 (Simulation time: 0 hr 2 min 4 sec) 
Heartbeat CPU  0 instructions:   57000003 cycles:   77906897 heartbeat IPC: 0.61616 cumulative IPC: 0.63385 (Simulation time: 0 hr 2 min 6 sec) 
Heartbeat CPU  0 instructions:   58000003 cycles:   79636563 heartbeat IPC: 0.57815 cumulative IPC: 0.63258 (Simulation time: 0 hr 2 min 9 sec) 
Heartbeat CPU  0 instructions:   59000002 cycles:   81158384 heartbeat IPC: 0.65711 cumulative IPC: 0.63306 (Simulation time: 0 hr 2 min 11 sec) 
Heartbeat CPU  0 instructions:   60000000 cycles:   82769596 heartbeat IPC: 0.62065 cumulative IPC: 0.63281 (Simulation time: 0 hr 2 min 13 sec) 
Finished CPU 0 instructions: 50000002 cycles: 79013064 cumulative IPC: 0.63281 (Simulation time: 0 hr 2 min 13 sec) 

ChampSim completed all CPUs

[ROI Statistics]
Core_0_instructions 50000002
Core_0_cycles 79013064
Core_0_IPC 0.63281

Core_0_branch_prediction_accuracy 99.71851
Core_0_branch_MPKI 0.03266
Core_0_average_ROB_occupancy_at_mispredict 248.97918

Core_0_L1D_total_access 8000004
Core_0_L1D_total_hit 5558232
Core_0_L1D_total_miss 2441772
Core_0_L1D_loads 3071263
Core_0_L1D_load_hit 2701266
Core_0_L1D_load_miss 369997
Core_0_L1D_RFOs 4928741
Core_0_L1D_RFO_hit 2856966
Core_0_L1D_RFO_miss 2071775
Core_0_L1D_prefetches 0
Core_0_L1D_prefetch_hit 0
Core_0_L1D_prefetch_miss 0
Core_0_L1D_writebacks 0
Core_0_L1D_writeback_hit 0
Core_0_L1D_writeback_miss 0
Core_0_L1D_prefetch_requested 0
Core_0_L1D_prefetch_dropped 0
Core_0_L1D_prefetch_issued 0
Core_0_L1D_prefetch_filled 0
Core_0_L1D_prefetch_useful 0
Core_0_L1D_prefetch_useless 0
Core_0_L1D_prefetch_late 0
Core_0_L1D_average_miss_latency 421.08415

Core_0_L1D_rq_access 8623284
Core_0_L1D_rq_forward 0
Core_0_L1D_rq_merged 5233804
Core_0_L1D_rq_to_cache 3151017
Core_0_L1D_rq_full 0

Core_0_L1D_wq_access 5084954
Core_0_L1D_wq_forward 238463
Core_0_L1D_wq_merged 80390
Core_0_L1D_wq_to_cache 5004564
Core_0_L1D_wq_full 0

Core_0_L1D_pq_access 0
Core_0_L1D_pq_forward 0
Core_0_L1D_pq_merged 0
Core_0_L1D_pq_to_cache 0
Core_0_L1D_pq_full 0

Core_0_L1D_acc_epochs 78593
Core_0_L1D_acc_level_0 78593
Core_0_L1D_acc_level_1 0
Core_0_L1D_acc_level_2 0
Core_0_L1D_acc_level_3 0
Core_0_L1D_acc_level_4 0
Core_0_L1D_acc_level_5 0
Core_0_L1D_acc_level_6 0
Core_0_L1D_acc_level_7 0
Core_0_L1D_acc_level_8 0
Core_0_L1D_acc_level_9 0

Core_0_L1I_total_access 11770865
Core_0_L1I_total_hit 11770865
Core_0_L1I_total_miss 0
Core_0_L1I_loads 11770865
Core_0_L1I_load_hit 11770865
Core_0_L1I_load_miss 0
Core_0_L1I_RFOs 0
Core_0_L1I_RFO_hit 0
Core_0_L1I_RFO_miss 0
Core_0_L1I_prefetches 0
Core_0_L1I_prefetch_hit 0
Core_0_L1I_prefetch_miss 0
Core_0_L1I_writebacks 0
Core_0_L1I_writeback_hit 0
Core_0_L1I_writeback_miss 0
Core_0_L1I_prefetch_requested 0
Core_0_L1I_prefetch_dropped 0
Core_0_L1I_prefetch_issued 0
Core_0_L1I_prefetch_filled 0
Core_0_L1I_prefetch_useful 0
Core_0_L1I_prefetch_useless 0
Core_0_L1I_prefetch_late 0
Core_0_L1I_average_miss_latency -nan

Core_0_L1I_rq_access 50000006
Core_0_L1I_rq_forward 0
Core_0_L1I_rq_merged 38229141
Core_0_L1I_rq_to_cache 11770865
Core_0_L1I_rq_full 0

Core_0_L1I_wq_access 0
Core_0_L1I_wq_forward 0
Core_0_L1I_wq_merged 0
Core_0_L1I_wq_to_cache 0
Core_0_L1I_wq_full 0

Core_0_L1I_pq_access 0
Core_0_L1I_pq_forward 0
Core_0_L1I_pq_merged 0
Core_0_L1I_pq_to_cache 0
Core_0_L1I_pq_full 0

Core_0_L1I_acc_epochs 78593
Core_0_L1I_acc_level_0 78593
Core_0_L1I_acc_level_1 0
Core_0_L1I_acc_level_2 0
Core_0_L1I_acc_level_3 0
Core_0_L1I_acc_level_4 0
Core_0_L1I_acc_level_5 0
Core_0_L1I_acc_level_6 0
Core_0_L1I_acc_level_7 0
Core_0_L1I_acc_level_8 0
Core_0_L1I_acc_level_9 0

Core_0_L2C_total_access 5303581
Core_0_L2C_total_hit 3809412
Core_0_L2C_total_miss 1494169
Core_0_L2C_loads 369997
Core_0_L2C_load_hit 296645
Core_0_L2C_load_miss 73352
Core_0_L2C_RFOs 2071772
Core_0_L2C_RFO_hit 947665
Core_0_L2C_RFO_miss 1124107
Core_0_L2C_prefetches 790038
Core_0_L2C_prefetch_hit 493373
Core_0_L2C_prefetch_miss 296665
Core_0_L2C_writebacks 2071774
Core_0_L2C_writeback_hit 2071729
Core_0_L2C_writeback_miss 45
Core_0_L2C_prefetch_requested 1438073
Core_0_L2C_prefetch_dropped 0
Core_0_L2C_prefetch_issued 1438073
Core_0_L2C_prefetch_filled 365585
Core_0_L2C_prefetch_useful 365554
Core_0_L2C_prefetch_useless 22
Core_0_L2C_prefetch_late 49326
Core_0_L2C_average_miss_latency 812.87309

Core_0_L2C_rq_access 2441778
Core_0_L2C_rq_forward 0
Core_0_L2C_rq_merged 0
Core_0_L2C_rq_to_cache 2441778
Core_0_L2C_rq_full 0

Core_0_L2C_wq_access 2071775
Core_0_L2C_wq_forward 0
Core_0_L2C_wq_merged 0
Core_0_L2C_wq_to_cache 2071775
Core_0_L2C_wq_full 0

Core_0_L2C_pq_access 1438073
Core_0_L2C_pq_forward 0
Core_0_L2C_pq_merged 116776
Core_0_L2C_pq_to_cache 1321297
Core_0_L2C_pq_full 0

Core_0_L2C_acc_epochs 78593
Core_0_L2C_acc_level_0 37
Core_0_L2C_acc_level_1 235
Core_0_L2C_acc_level_2 635
Core_0_L2C_acc_level_3 1269
Core_0_L2C_acc_level_4 1793
Core_0_L2C_acc_level_5 3068
Core_0_L2C_acc_level_6 6150
Core_0_L2C_acc_level_7 8787
Core_0_L2C_acc_level_8 9515
Core_0_L2C_acc_level_9 47104

Core_0_LLC_total_access 2618405
Core_0_LLC_total_hit 146537
Core_0_LLC_total_miss 2471868
Core_0_LLC_loads 24037
Core_0_LLC_load_hit 5
Core_0_LLC_load_miss 24032
Core_0_LLC_RFOs 1124102
Core_0_LLC_RFO_hit 46110
Core_0_LLC_RFO_miss 1077992
Core_0_LLC_prefetches 345980
Core_0_LLC_prefetch_hit 2
Core_0_LLC_prefetch_miss 345978
Core_0_LLC_writebacks 1124286
Core_0_LLC_writeback_hit 100420
Core_0_LLC_writeback_miss 1023866
Core_0_LLC_prefetch_requested 0
Core_0_LLC_prefetch_dropped 0
Core_0_LLC_prefetch_issued 0
Core_0_LLC_prefetch_filled 414909
Core_0_LLC_prefetch_useful 0
Core_0_LLC_prefetch_useless 414734
Core_0_LLC_prefetch_late 0
Core_0_LLC_average_miss_latency 484.69866

Core_0_LLC_rq_access 1148153
Core_0_LLC_rq_forward 0
Core_0_LLC_rq_merged 0
Core_0_LLC_rq_to_cache 1148147
Core_0_LLC_rq_full 0

Core_0_LLC_wq_access 1124286
Core_0_LLC_wq_forward 6
Core_0_LLC_wq_merged 0
Core_0_LLC_wq_to_cache 1124286
Core_0_LLC_wq_full 0

Core_0_LLC_pq_access 414917
Core_0_LLC_pq_forward 0
Core_0_LLC_pq_merged 0
Core_0_LLC_pq_to_cache 414917
Core_0_LLC_pq_full 0

Core_0_LLC_acc_epochs 80830
Core_0_LLC_acc_level_0 80830
Core_0_LLC_acc_level_1 0
Core_0_LLC_acc_level_2 0
Core_0_LLC_acc_level_3 0
Core_0_LLC_acc_level_4 0
Core_0_LLC_acc_level_5 0
Core_0_LLC_acc_level_6 0
Core_0_LLC_acc_level_7 0
Core_0_LLC_acc_level_8 0
Core_0_LLC_acc_level_9 0

Core_0_major_page_fault 0
Core_0_minor_page_fault 14654

scooby_st_lookup 443601
scooby_st_hit 436650
scooby_st_evict 6887
scooby_st_insert 6951
scooby_st_streaming 0

scooby_predict_called 443601
scooby_predict_out_of_bounds 12387
scooby_predict_action_1 264344
scooby_predict_issue_action_1 181735
scooby_predict_hit_action_1 82609
scooby_predict_out_of_bounds_action_1 4153
scooby_predict_action_3 166281
scooby_predict_issue_action_3 162862
scooby_predict_hit_action_3 3419
scooby_predict_out_of_bounds_action_3 8089
scooby_predict_action_4 47
scooby_predict_issue_action_4 47
scooby_predict_hit_action_4 0
scooby_predict_out_of_bounds_action_4 2
scooby_predict_action_5 47
scooby_predict_issue_action_5 47
scooby_predict_hit_action_5 0
scooby_predict_out_of_bounds_action_5 4
scooby_predict_action_10 58
scooby_predict_issue_action_10 58
scooby_predict_hit_action_10 0
scooby_predict_out_of_bounds_action_10 9
scooby_predict_action_11 46
scooby_predict_issue_action_11 46
scooby_predict_hit_action_11 0
scooby_predict_out_of_bounds_action_11 12
scooby_predict_action_12 54
scooby_predict_issue_action_12 54
scooby_predict_hit_action_12 0
scooby_predict_out_of_bounds_action_12 9
scooby_predict_action_22 33
scooby_predict_issue_action_22 33
scooby_predict_hit_action_22 0
scooby_predict_out_of_bounds_action_22 26
scooby_predict_action_23 36
scooby_predict_issue_action_23 36
scooby_predict_hit_action_23 0
scooby_predict_out_of_bounds_action_23 20
scooby_predict_action_30 33
scooby_predict_issue_action_30 33
scooby_predict_hit_action_30 0
scooby_predict_out_of_bounds_action_30 34
scooby_predict_action_32 20
scooby_predict_issue_action_32 20
scooby_predict_hit_action_32 0
scooby_predict_out_of_bounds_action_32 24
scooby_predict_action_-1 66
scooby_predict_issue_action_-1 17
scooby_predict_hit_action_-1 49
scooby_predict_out_of_bounds_action_-1 2
scooby_predict_action_-3 51
scooby_predict_issue_action_-3 16
scooby_predict_hit_action_-3 35
scooby_predict_out_of_bounds_action_-3 2
scooby_predict_action_-6 42
scooby_predict_issue_action_-6 7
scooby_predict_hit_action_-6 35
scooby_predict_out_of_bounds_action_-6 1
scooby_predict_action_0 56
scooby_predict_issue_action_0 0
scooby_predict_hit_action_0 0
scooby_predict_out_of_bounds_action_0 0
scooby_predict_multi_deg_called 301652
scooby_predict_predicted 1438073
scooby_predict_multi_deg 1093062
scooby_predict_multi_deg_2 290726
scooby_predict_multi_deg_3 251591
scooby_predict_multi_deg_4 240869
scooby_predict_multi_deg_5 160205
scooby_predict_multi_deg_6 149671
scooby_predict_multi_deg_7 0
scooby_predict_multi_deg_8 0
scooby_predict_multi_deg_9 0
scooby_predict_multi_deg_10 0
scooby_predict_multi_deg_11 0
scooby_predict_multi_deg_12 0
scooby_predict_multi_deg_13 0
scooby_predict_multi_deg_14 0
scooby_predict_multi_deg_15 0
scooby_predict_multi_deg_16 0

scooby_selected_deg_1 43359
scooby_selected_deg_2 28427
scooby_selected_deg_3 0
scooby_selected_deg_4 70345
scooby_selected_deg_5 0
scooby_selected_deg_6 202880
scooby_selected_deg_7 0
scooby_selected_deg_8 0
scooby_selected_deg_9 0
scooby_selected_deg_10 0
scooby_selected_deg_11 0
scooby_selected_deg_12 0
scooby_selected_deg_13 0
scooby_selected_deg_14 0
scooby_selected_deg_15 0
scooby_selected_deg_16 0

scooby_state_401804|1|0 2768,1,0,0,1,0,1,0,1,0,0,0,0,0,0,2772,
scooby_state_401804|0|0 2767,0,0,1,0,0,1,1,0,0,0,1,1,0,0,2772,
scooby_state_401804|3|3 2763,0,1,0,1,0,1,1,2,0,0,2,1,0,0,2772,
scooby_state_401804|4|4 1458,0,0,0,1,0,0,0,0,0,0,0,0,0,1,1460,
scooby_state_401804|49|3 1385,0,0,0,0,0,0,0,0,1,1,0,0,0,0,1387,
scooby_state_401804|61|4 1384,0,0,0,0,0,1,1,0,0,0,0,0,0,0,1386,
scooby_state_401804|23|3 1385,0,0,0,1,0,0,0,0,0,0,0,0,0,0,1386,
scooby_state_401804|63|3 1384,1,0,0,0,0,1,0,0,0,0,0,0,0,0,1386,
scooby_state_401804|5|4 1381,1,0,0,0,0,1,0,1,0,0,0,1,0,1,1386,
scooby_state_401804|42|4 1380,0,0,0,1,0,0,2,1,0,0,0,1,0,1,1386,
scooby_state_401804|42|3 1382,0,1,0,1,0,0,0,0,0,0,0,0,2,0,1386,
scooby_state_401804|34|3 1383,1,1,0,0,0,0,0,0,1,0,0,0,0,0,1386,
scooby_state_401804|56|4 1380,0,1,1,0,0,1,0,0,2,0,1,0,0,0,1386,
scooby_state_401804|43|3 1385,0,0,0,0,0,0,0,0,0,0,0,1,0,0,1386,
scooby_state_401804|55|4 1382,0,0,0,1,0,0,0,0,1,0,1,0,0,1,1386,
scooby_state_401804|35|4 1386,0,0,0,0,0,0,0,0,0,0,0,0,0,0,1386,
scooby_state_401804|11|4 1382,0,0,0,2,1,0,1,0,0,0,0,0,0,0,1386,
scooby_state_401804|58|4 1384,0,0,0,0,1,1,0,0,0,0,0,0,0,0,1386,
scooby_state_401804|53|4 1383,0,0,0,0,0,0,0,0,1,0,0,1,1,0,1386,
scooby_state_401804|58|3 1382,0,0,0,0,0,1,1,1,0,1,0,0,0,0,1386,
scooby_state_401804|51|4 1382,1,1,0,1,0,0,0,0,0,0,0,0,1,0,1386,
scooby_state_401804|60|3 1385,0,0,0,0,0,0,0,0,0,0,1,0,0,0,1386,
scooby_state_401804|17|4 1384,1,0,0,0,1,0,0,0,0,0,0,0,0,0,1386,
scooby_state_401804|25|4 1386,0,0,0,0,0,0,0,0,0,0,0,0,0,0,1386,
scooby_state_401804|51|3 1385,0,0,0,0,0,1,0,0,0,0,0,0,0,0,1386,
scooby_state_401804|5|3 1384,0,0,1,0,0,1,0,0,0,0,0,0,0,0,1386,
scooby_state_401804|24|3 1383,0,1,0,0,0,0,0,0,1,1,0,0,0,0,1386,
scooby_state_401804|20|4 1385,0,0,0,0,0,0,0,0,1,0,0,0,0,0,1386,
scooby_state_401804|54|4 1385,0,0,0,1,0,0,0,0,0,0,0,0,0,0,1386,
scooby_state_401804|57|4 1382,0,0,1,0,1,0,0,1,0,1,0,0,0,0,1386,
scooby_state_401804|32|4 1385,1,0,0,0,0,0,0,0,0,0,0,0,0,0,1386,
scooby_state_401804|10|4 1383,1,0,0,1,0,0,0,0,0,0,1,0,0,0,1386,
scooby_state_401804|62|4 1382,0,0,0,0,1,0,3,0,0,0,0,0,0,0,1386,
scooby_state_401804|39|3 1384,0,0,0,0,0,0,0,0,0,0,0,1,1,0,1386,
scooby_state_401804|33|3 1386,0,0,0,0,0,0,0,0,0,0,0,0,0,0,1386,
scooby_state_401804|63|4 1385,0,0,0,0,0,0,0,0,0,0,0,1,0,0,1386,
scooby_state_401804|36|4 1382,0,0,0,0,2,0,0,0,1,0,1,0,0,0,1386,
scooby_state_401804|16|4 1385,0,0,0,0,0,0,0,0,0,0,0,0,1,0,1386,
scooby_state_401804|60|4 1381,0,1,0,0,0,0,0,1,0,2,1,0,0,0,1386,
scooby_state_401804|57|3 1384,0,0,0,0,0,0,2,0,0,0,0,0,0,0,1386,
scooby_state_401804|2|0 1386,0,0,0,0,0,0,0,0,0,0,0,0,0,0,1386,
scooby_state_401804|31|4 1383,0,0,0,0,1,0,0,0,0,1,1,0,0,0,1386,
scooby_state_401804|45|4 1382,1,0,0,0,1,0,0,0,0,0,1,0,0,1,1386,
scooby_state_401804|22|3 1385,0,0,0,0,0,0,0,0,0,0,0,0,0,1,1386,
scooby_state_401804|28|3 1384,0,0,2,0,0,0,0,0,0,0,0,0,0,0,1386,
scooby_state_401804|26|4 1384,0,0,1,0,0,1,0,0,0,0,0,0,0,0,1386,
scooby_state_401804|56|3 1383,0,0,0,0,0,0,0,0,0,1,1,1,0,0,1386,
scooby_state_401804|17|3 1382,1,0,0,0,0,0,1,0,0,0,1,1,0,0,1386,
scooby_state_401804|18|3 1385,0,0,0,1,0,0,0,0,0,0,0,0,0,0,1386,
scooby_state_401804|54|3 1381,0,0,1,0,1,0,0,0,1,0,0,0,1,1,1386,
scooby_state_401804|13|3 1384,1,0,0,1,0,0,0,0,0,0,0,0,0,0,1386,
scooby_state_401804|43|4 1383,0,0,0,1,0,0,0,0,0,0,0,1,0,1,1386,
scooby_state_401804|41|4 1385,0,0,0,0,0,0,0,1,0,0,0,0,0,0,1386,
scooby_state_401804|50|3 1384,0,0,0,1,0,0,0,1,0,0,0,0,0,0,1386,
scooby_state_401804|21|4 1385,1,0,0,0,0,0,0,0,0,0,0,0,0,0,1386,
scooby_state_401804|7|3 1383,0,0,0,1,0,0,0,1,0,0,0,0,1,0,1386,
scooby_state_401804|2|2 1383,0,0,0,0,0,0,0,0,1,1,0,0,0,1,1386,
scooby_state_401804|8|3 1386,0,0,0,0,0,0,0,0,0,0,0,0,0,0,1386,
scooby_state_401804|38|3 1382,1,0,0,0,1,1,0,0,0,0,0,1,0,0,1386,
scooby_state_401804|44|3 1384,0,0,1,0,0,0,0,0,0,0,1,0,0,0,1386,
scooby_state_401804|30|3 1383,0,0,0,0,1,0,0,0,0,1,0,1,0,0,1386,
scooby_state_401804|29|4 1383,1,0,0,0,0,0,0,0,0,1,0,1,0,0,1386,
scooby_state_401804|48|3 1381,1,0,0,0,1,0,2,0,0,0,1,0,0,0,1386,
scooby_state_401804|7|4 1384,0,0,0,0,1,0,1,0,0,0,0,0,0,0,1386,
scooby_state_401804|22|4 1386,0,0,0,0,0,0,0,0,0,0,0,0,0,0,1386,
scooby_state_401804|14|4 1383,0,0,0,0,0,1,0,0,0,0,0,1,1,0,1386,
scooby_state_401804|19|4 1383,0,1,0,1,0,0,0,1,0,0,0,0,0,0,1386,
scooby_state_401804|10|3 1382,1,0,0,0,1,2,0,0,0,0,0,0,0,0,1386,
scooby_state_401804|6|4 1384,0,0,0,0,0,0,1,0,0,0,1,0,0,0,1386,
scooby_state_401804|62|3 1383,0,0,0,0,0,0,0,0,1,0,0,1,0,1,1386,
scooby_state_401804|61|3 1384,0,0,0,0,0,0,0,0,0,0,0,0,1,1,1386,
scooby_state_401804|15|3 1383,0,0,2,0,0,0,0,0,0,1,0,0,0,0,1386,
scooby_state_401804|20|3 1384,0,0,0,1,0,1,0,0,0,0,0,0,0,0,1386,
scooby_state_401804|23|4 1382,0,1,0,0,0,2,0,0,0,0,0,0,1,0,1386,
scooby_state_401804|37|4 1383,1,0,0,0,0,0,1,0,0,1,0,0,0,0,1386,
scooby_state_401804|36|3 1384,0,0,0,0,1,0,0,0,0,0,0,1,0,0,1386,
scooby_state_401804|34|4 1381,2,0,0,0,1,0,0,0,0,0,1,0,0,1,1386,
scooby_state_401804|33|4 1385,0,0,0,0,0,0,0,0,0,0,1,0,0,0,1386,
scooby_state_401804|35|3 1381,0,1,0,0,1,0,1,0,0,0,1,1,0,0,1386,
scooby_state_401804|38|4 1385,0,0,0,0,0,0,0,0,0,0,1,0,0,0,1386,
scooby_state_401804|40|3 1382,0,0,1,1,1,0,0,1,0,0,0,0,0,0,1386,
scooby_state_401804|48|4 1386,0,0,0,0,0,0,0,0,0,0,0,0,0,0,1386,
scooby_state_401804|27|4 1384,0,0,0,0,0,0,0,0,1,0,1,0,0,0,1386,
scooby_state_401804|31|3 1385,0,0,0,0,0,0,1,0,0,0,0,0,0,0,1386,
scooby_state_401804|55|3 1383,1,0,0,0,1,0,0,0,0,0,0,0,1,0,1386,
scooby_state_401804|13|4 1384,0,0,2,0,0,0,0,0,0,0,0,0,0,0,1386,
scooby_state_401804|40|4 1385,0,0,0,1,0,0,0,0,0,0,0,0,0,0,1386,
scooby_state_401804|11|3 1385,0,0,0,0,0,0,0,0,0,0,1,0,0,0,1386,
scooby_state_401804|37|3 1384,0,0,0,0,0,0,1,1,0,0,0,0,0,0,1386,
scooby_state_401804|32|3 1384,0,0,1,0,0,0,0,0,0,0,0,1,0,0,1386,
scooby_state_401804|9|4 1384,0,0,1,0,0,1,0,0,0,0,0,0,0,0,1386,
scooby_state_401804|25|3 1385,0,0,0,0,0,0,0,1,0,0,0,0,0,0,1386,
scooby_state_401804|59|4 1384,0,0,1,0,0,0,0,0,1,0,0,0,0,0,1386,
scooby_state_401804|9|3 1385,0,0,0,0,0,0,0,0,1,0,0,0,0,0,1386,
scooby_state_401804|24|4 1385,0,1,0,0,0,0,0,0,0,0,0,0,0,0,1386,
scooby_state_401804|21|3 1386,0,0,0,0,0,0,0,0,0,0,0,0,0,0,1386,
scooby_state_401804|26|3 1385,0,0,0,0,0,1,0,0,0,0,0,0,0,0,1386,
scooby_state_401804|59|3 1383,0,0,0,0,1,0,0,0,0,0,0,0,1,1,1386,
scooby_state_401804|19|3 1384,0,0,0,0,0,1,0,0,0,0,0,0,0,1,1386,
scooby_state_401804|30|4 1382,0,0,0,1,0,0,1,2,0,0,0,0,0,0,1386,
scooby_state_401804|16|3 1385,0,0,0,0,0,0,0,0,0,0,0,0,0,1,1386,
scooby_state_401804|47|3 1384,0,0,0,0,1,0,0,0,0,0,0,0,1,0,1386,
scooby_state_401804|27|3 1384,0,0,0,0,0,0,0,1,0,0,0,0,1,0,1386,
scooby_state_401804|28|4 1382,0,1,1,0,0,0,0,1,0,0,1,0,0,0,1386,
scooby_state_401804|8|4 1385,0,0,0,0,0,0,0,1,0,0,0,0,0,0,1386,
scooby_state_401804|29|3 1386,0,0,0,0,0,0,0,0,0,0,0,0,0,0,1386,
scooby_state_401804|52|3 1383,0,0,1,0,0,0,1,0,0,0,1,0,0,0,1386,
scooby_state_401804|45|3 1385,0,0,0,0,0,0,0,0,0,0,0,0,1,0,1386,
scooby_state_401804|52|4 1379,0,0,0,0,1,1,2,1,0,0,0,0,1,1,1386,
scooby_state_401804|46|4 1383,0,0,0,1,1,1,0,0,0,0,0,0,0,0,1386,
scooby_state_401804|15|4 1383,0,0,0,0,1,0,1,0,0,0,0,1,0,0,1386,
scooby_state_401804|47|4 1382,1,0,0,0,0,1,0,0,0,1,1,0,0,0,1386,
scooby_state_401804|18|4 1384,0,0,1,0,0,0,0,0,0,0,1,0,0,0,1386,
scooby_state_401804|12|3 1384,1,0,0,0,0,0,1,0,0,0,0,0,0,0,1386,
scooby_state_401804|53|3 1385,0,0,0,0,0,0,0,0,0,0,1,0,0,0,1386,
scooby_state_401804|14|3 1385,0,0,0,0,0,0,0,0,1,0,0,0,0,0,1386,
scooby_state_401804|12|4 1384,0,0,0,0,0,0,0,0,1,0,0,0,0,1,1386,
scooby_state_401804|6|3 1386,0,0,0,0,0,0,0,0,0,0,0,0,0,0,1386,
scooby_state_401804|50|4 1383,0,1,0,0,0,0,0,0,0,0,1,1,0,0,1386,
scooby_state_401804|49|4 1383,0,0,0,1,0,0,0,0,0,0,0,0,1,0,1385,
scooby_state_401804|46|3 1384,0,0,0,0,0,0,0,1,0,0,0,0,0,0,1385,
scooby_state_401804|41|3 1383,0,0,1,0,0,0,0,0,1,0,0,0,0,0,1385,
scooby_state_401804|39|4 1383,0,1,0,1,0,0,0,0,0,0,0,0,0,0,1385,
scooby_state_401804|44|4 1384,0,0,0,0,0,0,1,0,0,0,0,0,0,0,1385,
scooby_state_40187e|48|1 1,1355,0,0,1,0,0,0,0,2,0,0,0,2,0,1361,
scooby_state_40182a|7|-2 1360,0,0,0,0,0,0,0,0,0,0,0,1,0,0,1361,
scooby_state_40187e|56|1 1,1357,0,0,0,0,1,1,0,1,0,0,0,0,0,1361,
scooby_state_40187e|8|1 0,1359,0,0,0,0,0,0,0,1,0,1,0,0,0,1361,
scooby_state_40187e|46|1 2,1356,0,1,0,0,0,0,0,1,0,0,0,0,1,1361,
scooby_state_40182a|61|-2 1358,0,0,0,0,0,0,0,0,1,0,0,1,1,0,1361,
scooby_state_40182a|55|-2 1357,0,0,0,0,1,0,1,0,0,0,1,1,0,0,1361,
scooby_state_40187e|32|1 1,1358,0,0,0,1,0,0,0,0,0,0,0,0,1,1361,
scooby_state_40185c|34|-1 2,1359,0,0,0,0,0,0,0,0,0,0,0,0,0,1361,
scooby_state_40185c|50|-1 1,1358,0,0,1,0,0,0,0,0,1,0,0,0,0,1361,
scooby_state_40185c|48|-1 1,1359,0,0,0,0,0,1,0,0,0,0,0,0,0,1361,
scooby_state_40182a|31|-2 1357,0,0,0,0,0,1,0,1,1,0,0,0,0,1,1361,
scooby_state_40187e|62|1 0,1360,0,0,0,0,0,0,0,1,0,0,0,0,0,1361,
scooby_state_40182a|21|-2 1355,0,0,0,0,0,0,2,1,1,0,0,1,0,1,1361,
scooby_state_40187e|22|1 1,1358,0,0,0,0,1,0,0,1,0,0,0,0,0,1361,
scooby_state_40185c|10|-1 0,1358,2,0,0,0,1,0,0,0,0,0,0,0,0,1361,
scooby_state_40182a|47|-2 1360,0,0,0,0,0,1,0,0,0,0,0,0,0,0,1361,
scooby_state_40185c|24|-1 1,1358,0,0,0,0,0,0,1,0,0,0,0,0,1,1361,
scooby_state_40182a|45|-2 1357,0,0,0,0,0,0,0,1,0,1,0,0,1,1,1361,
scooby_state_40185c|58|-1 1,1360,0,0,0,0,0,0,0,0,0,0,0,0,0,1361,
scooby_state_40187e|30|1 1,1356,0,0,0,1,1,0,0,1,0,0,0,0,0,1360,
scooby_state_40182a|15|-2 1358,0,1,0,0,0,0,0,0,1,0,0,0,0,0,1360,
scooby_state_40182a|39|-2 1358,0,0,0,0,0,0,0,0,1,0,0,0,1,0,1360,
scooby_state_40182a|37|-2 1358,0,1,1,0,0,0,0,0,0,0,0,0,0,0,1360,
scooby_state_40185c|32|-1 2,1354,0,0,1,0,1,0,0,0,2,0,0,0,0,1360,
scooby_state_40187e|24|1 1,1359,0,0,0,0,0,0,0,0,0,0,0,0,0,1360,
scooby_state_40185c|40|-1 0,1358,1,0,0,0,0,0,1,0,0,0,0,0,0,1360,
scooby_state_40187e|54|1 1,1355,1,0,0,1,0,0,0,2,0,0,0,0,0,1360,
scooby_state_40182a|5|-2 1359,0,0,0,0,0,0,1,0,0,0,0,0,0,0,1360,
scooby_state_40182a|63|2 1358,0,0,1,0,0,0,0,0,0,0,0,0,0,1,1360,
scooby_state_40185c|26|-1 1,1358,0,0,0,0,0,0,1,0,0,0,0,0,0,1360,
scooby_state_40182a|13|-2 1356,0,1,1,1,0,1,0,0,0,0,0,0,0,0,1360,
scooby_state_40187e|6|1 1,1356,0,0,0,0,0,0,0,0,1,0,2,0,0,1360,
scooby_state_40185c|2|-1 1,1358,0,0,0,0,0,1,0,0,0,0,0,0,0,1360,
scooby_state_40185c|8|-1 1,1357,1,0,0,0,0,0,0,0,0,0,0,0,1,1360,
scooby_state_40185c|42|-1 1,1354,0,1,1,0,1,0,0,0,1,1,0,0,0,1360,
scooby_state_40182a|23|-2 1356,1,1,0,0,0,0,0,0,0,0,1,1,0,0,1360,
scooby_state_40187e|14|1 1,1358,0,0,0,0,0,0,0,1,0,0,0,0,0,1360,
scooby_state_40182a|29|-2 1360,0,0,0,0,0,0,0,0,0,0,0,0,0,0,1360,
scooby_state_40187e|38|1 0,1359,1,0,0,0,0,0,0,0,0,0,0,0,0,1360,
scooby_state_40187e|40|1 1,1355,1,0,0,1,0,1,0,0,0,1,0,0,0,1360,
scooby_state_40185c|18|-1 1,1358,0,0,0,0,1,0,0,0,0,0,0,0,0,1360,
scooby_state_40182a|53|-2 1357,0,0,0,0,1,1,0,0,0,0,0,0,0,1,1360,
scooby_state_40185c|16|-1 1,1359,0,0,0,0,0,0,0,0,0,0,0,0,0,1360,
scooby_state_40182a|41|-2 1357,0,0,0,0,0,0,0,0,0,0,2,0,0,0,1359,
scooby_state_40187e|18|1 0,1356,0,0,1,0,1,0,1,0,0,0,0,0,0,1359,
scooby_state_40182a|1|-2 1359,0,0,0,0,0,0,0,0,0,0,0,0,0,0,1359,
scooby_state_40187e|52|1 0,1356,0,0,1,0,0,1,0,0,0,1,0,0,0,1359,
scooby_state_40182a|27|-2 1356,0,0,1,0,0,0,0,0,0,0,0,1,1,0,1359,
scooby_state_40187e|2|1 1,1358,0,0,0,0,0,0,0,0,0,0,0,0,0,1359,
scooby_state_40182a|11|-2 1356,0,1,0,0,0,2,0,0,0,0,0,0,0,0,1359,
scooby_state_40187e|42|1 1,1357,0,0,0,0,0,0,0,0,0,0,1,0,0,1359,
scooby_state_40185c|56|-1 1,1357,0,0,0,0,0,0,0,0,0,0,0,0,1,1359,
scooby_state_40187e|12|1 1,1357,0,0,0,0,1,0,0,0,0,0,0,0,0,1359,
scooby_state_40185c|4|-1 2,1354,0,0,0,0,0,1,1,0,0,0,1,0,0,1359,
scooby_state_40182a|17|-2 1357,0,1,0,0,0,0,0,0,0,1,0,0,0,0,1359,
scooby_state_40182a|51|-2 1354,1,0,0,1,1,0,0,0,0,0,1,0,1,0,1359,
scooby_state_40182a|43|-2 1356,0,0,0,0,0,0,0,0,0,0,0,1,0,1,1358,
scooby_state_40187e|10|1 1,1354,0,0,0,1,0,0,0,0,0,1,0,0,1,1358,
scooby_state_40187e|36|1 1,1353,0,0,0,0,0,1,0,0,1,1,0,1,0,1358,
scooby_state_40182a|35|-2 1358,0,0,0,0,0,0,0,0,0,0,0,0,0,0,1358,
scooby_state_40187e|58|1 1,1356,0,0,0,0,0,0,0,0,0,0,0,0,1,1358,
scooby_state_40187e|60|1 1,1355,0,0,1,0,0,0,0,0,1,0,0,0,0,1358,
scooby_state_40185c|44|-1 1,1353,0,0,0,1,0,0,0,1,1,1,0,0,0,1358,
scooby_state_40182a|49|-2 1356,1,0,0,0,0,0,0,1,0,0,0,0,0,0,1358,
scooby_state_40187e|26|1 1,1354,0,0,1,0,0,0,0,1,0,0,0,0,1,1358,
scooby_state_40182a|25|-2 1357,0,0,0,0,0,1,0,0,0,0,0,0,0,0,1358,
scooby_state_40187e|16|1 1,1354,0,0,0,0,1,0,1,1,0,0,0,0,0,1358,
scooby_state_40182a|59|-2 1356,0,0,0,1,0,0,0,1,0,0,0,0,0,0,1358,
scooby_state_40187e|20|1 2,1353,0,0,0,0,1,0,0,0,1,0,0,1,0,1358,
scooby_state_40182a|57|-2 1357,0,0,0,0,0,0,0,0,0,0,0,1,0,0,1358,
scooby_state_40182a|19|-2 1355,1,0,0,1,0,0,0,0,0,0,0,1,0,0,1358,
scooby_state_40187e|34|1 1,1357,0,0,0,0,0,0,0,0,0,0,0,0,0,1358,
scooby_state_40187e|28|1 0,1358,0,0,0,0,0,0,0,0,0,0,0,0,0,1358,
scooby_state_40182a|33|-2 1353,0,0,0,0,0,1,0,1,0,0,1,0,0,2,1358,
scooby_state_40182a|9|-2 1357,0,0,1,0,0,0,0,0,0,0,0,0,0,0,1358,
scooby_state_40187e|4|1 1,1355,0,0,0,0,1,0,0,0,0,1,0,0,0,1358,
scooby_state_40182a|3|-2 1353,1,0,0,0,0,0,0,0,1,0,1,0,0,2,1358,
scooby_state_40187e|44|1 1,1353,0,0,0,0,0,0,0,0,0,1,0,1,1,1357,
scooby_state_40185c|12|-1 1,1355,0,1,0,0,0,0,0,0,0,0,0,0,0,1357,
scooby_state_40185c|20|-1 1,1355,0,0,0,1,0,0,0,0,0,0,0,0,0,1357,
scooby_state_40185c|60|-1 1,1353,1,1,0,0,0,0,0,0,0,0,0,0,1,1357,
scooby_state_40185c|28|-1 1,1354,0,0,0,1,0,0,0,0,0,0,0,0,0,1356,
scooby_state_40185c|36|-1 1,1348,0,0,1,1,0,0,0,1,0,1,0,0,1,1354,
scooby_state_40185c|52|-1 1,1349,1,0,1,0,1,0,0,0,0,0,1,0,0,1354,
scooby_state_401804|4|3 1312,0,0,0,0,0,0,0,0,0,0,0,0,0,0,1312,
scooby_state_40182a|26|-2 1305,0,0,0,0,0,0,0,0,0,0,1,0,0,0,1306,
scooby_state_40185c|35|-1 1,1302,1,1,0,0,1,0,0,0,0,0,0,0,0,1306,
scooby_state_40187e|13|1 0,1303,0,0,1,0,0,0,0,0,0,2,0,0,0,1306,
scooby_state_40182a|12|-2 1303,0,1,0,0,0,0,0,0,0,1,0,0,0,1,1306,
scooby_state_40187e|7|1 1,1304,0,0,0,0,0,1,0,0,0,0,0,0,0,1306,
scooby_state_40187e|47|1 1,1303,0,0,0,1,0,0,0,0,0,0,0,0,1,1306,
scooby_state_40182a|60|-2 1305,0,0,0,0,1,0,0,0,0,0,0,0,0,0,1306,
scooby_state_40185c|5|-1 0,1301,0,0,1,0,1,0,0,0,1,0,0,0,2,1306,
scooby_state_40187e|3|1 0,1305,0,0,0,0,0,0,0,0,0,0,0,1,0,1306,
scooby_state_40187e|37|1 1,1305,0,0,0,0,0,0,0,0,0,0,0,0,0,1306,
scooby_state_40182a|32|-2 1302,1,0,1,0,0,0,1,1,0,0,0,0,0,0,1306,
scooby_state_40185c|29|-1 1,1303,1,0,0,0,0,0,0,0,0,0,0,0,1,1306,
scooby_state_40187e|27|1 1,1303,0,0,0,0,1,0,0,0,0,1,0,0,0,1306,
scooby_state_40182a|46|-2 1302,1,0,0,0,0,1,0,1,0,0,0,0,1,0,1306,
scooby_state_40185c|15|-1 0,1305,0,0,0,0,0,0,0,1,0,0,0,0,0,1306,
scooby_state_40185c|63|2 1,1303,0,0,0,0,0,1,1,0,0,0,0,0,0,1306,
scooby_state_40182a|2|-2 1303,0,0,0,1,0,0,0,1,1,0,0,0,0,0,1306,
scooby_state_40182a|36|-2 1303,0,0,1,0,0,0,1,0,0,1,0,0,0,0,1306,
scooby_state_40187e|61|1 1,1301,0,1,0,0,0,0,0,1,0,1,0,0,1,1306,
scooby_state_40185c|39|-1 1,1303,1,0,0,0,0,0,0,0,0,0,1,0,0,1306,
scooby_state_40182a|6|-2 1302,0,0,1,0,0,0,0,0,0,0,0,0,2,1,1306,
scooby_state_40187e|19|1 1,1301,0,0,0,0,2,0,0,0,0,0,0,1,0,1305,
scooby_state_40182a|50|-2 1304,0,0,0,1,0,0,0,0,0,0,0,0,0,0,1305,
scooby_state_40187e|51|1 1,1302,0,0,0,0,0,1,0,1,0,0,0,0,0,1305,
scooby_state_40185c|11|-1 1,1302,1,0,0,0,0,0,0,0,0,0,0,0,1,1305,
scooby_state_40182a|52|-2 1305,0,0,0,0,0,0,0,0,0,0,0,0,0,0,1305,
scooby_state_40185c|23|-1 1,1301,0,1,0,0,0,1,0,0,0,0,0,0,1,1305,
scooby_state_40182a|48|-2 1303,0,0,0,0,0,0,0,1,0,0,0,1,0,0,1305,
scooby_state_40182a|14|-2 1302,1,0,0,0,0,0,1,0,0,1,0,0,0,0,1305,
scooby_state_40185c|43|-1 1,1302,0,0,1,0,0,0,0,0,1,0,0,0,0,1305,
scooby_state_40182a|42|-2 1305,0,0,0,0,0,0,0,0,0,0,0,0,0,0,1305,
scooby_state_40187e|49|1 2,1301,0,0,0,0,0,0,1,0,0,0,0,1,0,1305,
scooby_state_40182a|22|-2 1301,0,1,0,0,0,0,0,1,1,1,0,0,0,0,1305,
scooby_state_40185c|27|-1 1,1301,0,1,0,0,0,0,0,1,1,0,0,0,0,1305,
scooby_state_40182a|20|-2 1302,0,0,0,0,2,0,0,0,1,0,0,0,0,0,1305,
scooby_state_40187e|57|1 2,1302,1,0,0,0,0,0,0,0,0,0,0,0,0,1305,
scooby_state_40187e|31|1 1,1303,0,0,0,0,0,0,0,0,0,0,0,1,0,1305,
scooby_state_40187e|55|1 1,1301,0,2,1,0,0,0,0,0,0,0,0,0,0,1305,
scooby_state_40182a|30|-2 1303,0,0,0,0,0,0,0,0,0,1,0,0,0,1,1305,
scooby_state_40182a|24|-2 1303,0,1,0,0,0,0,0,1,0,0,0,0,0,0,1305,
scooby_state_40187e|9|1 1,1300,0,0,0,0,1,0,0,1,1,0,0,0,1,1305,
scooby_state_40187e|41|1 1,1300,0,0,0,0,0,0,0,0,1,1,0,1,1,1305,
scooby_state_40187e|43|1 0,1300,0,0,2,1,0,0,0,0,0,2,0,0,0,1305,
scooby_state_40185c|21|-1 1,1301,0,0,0,2,0,0,0,0,0,0,1,0,0,1305,
scooby_state_40187e|53|1 1,1301,0,0,0,0,0,1,0,0,1,0,0,1,0,1305,
scooby_state_40182a|56|-2 1303,0,1,0,0,0,0,0,0,1,0,0,0,0,0,1305,
scooby_state_40187e|15|1 1,1302,0,0,0,0,0,0,0,0,0,1,0,0,1,1305,
scooby_state_40182a|16|-2 1305,0,0,0,0,0,0,0,0,0,0,0,0,0,0,1305,
scooby_state_40185c|45|-1 1,1303,0,0,0,0,0,0,0,1,0,0,0,0,0,1305,
scooby_state_40187e|25|1 1,1303,0,0,0,1,0,0,0,0,0,0,0,0,0,1305,
scooby_state_40182a|54|-2 1305,0,0,0,0,0,0,0,0,0,0,0,0,0,0,1305,
scooby_state_40187e|17|1 1,1301,0,1,0,0,0,0,1,0,1,0,0,0,0,1305,
scooby_state_40187e|23|1 1,1301,0,1,0,0,0,1,1,0,0,0,0,0,0,1305,
scooby_state_40182a|40|-2 1303,0,0,0,0,0,1,1,0,0,0,0,0,0,0,1305,
scooby_state_40185c|3|-1 1,1298,0,0,1,0,0,2,1,0,1,0,1,0,0,1305,
scooby_state_40182a|38|-2 1302,0,0,0,0,1,1,0,0,0,0,0,1,0,0,1305,
scooby_state_40185c|51|-1 1,1302,0,1,1,0,0,0,0,0,0,0,0,0,0,1305,
scooby_state_40182a|8|-2 1305,0,0,0,0,0,0,0,0,0,0,0,0,0,0,1305,
scooby_state_40182a|18|-2 1305,0,0,0,0,0,0,0,0,0,0,0,0,0,0,1305,
scooby_state_40185c|19|-1 1,1302,0,0,0,1,0,0,0,0,0,1,0,0,0,1305,
scooby_state_40187e|39|1 1,1299,0,1,1,2,0,1,0,0,0,0,0,0,0,1305,
scooby_state_40185c|59|-1 0,1302,1,0,1,1,0,0,0,0,0,0,0,0,0,1305,
scooby_state_40187e|21|1 1,1303,0,0,0,1,0,0,0,0,0,0,0,0,0,1305,
scooby_state_40185c|7|-1 1,1301,0,0,0,0,0,0,0,0,0,1,0,1,0,1304,
scooby_state_40187e|5|1 1,1302,0,0,1,0,0,0,0,0,0,0,0,0,0,1304,
scooby_state_40182a|4|-2 1301,0,0,0,0,0,0,0,1,0,1,1,0,0,0,1304,
scooby_state_40182a|10|-2 1302,1,0,0,0,0,0,0,0,0,0,1,0,0,0,1304,
scooby_state_40187e|35|1 1,1301,0,0,0,0,0,0,1,1,0,0,0,0,0,1304,
scooby_state_40187e|63|1 1,1303,0,0,0,0,0,0,0,0,0,0,0,0,0,1304,
scooby_state_40182a|58|-2 1301,0,0,0,1,0,0,0,0,0,1,0,0,0,1,1304,
scooby_state_40185c|47|-1 1,1300,2,0,0,0,0,0,1,0,0,0,0,0,0,1304,
scooby_state_40182a|62|2 1302,0,0,0,0,0,0,1,0,0,0,0,1,0,0,1304,
scooby_state_40187e|11|1 1,1302,0,1,0,0,0,0,0,0,0,0,0,0,0,1304,
scooby_state_40187e|59|1 0,1303,0,0,0,0,0,0,0,0,0,0,0,1,0,1304,
scooby_state_40182a|34|-2 1301,1,0,1,0,0,0,0,1,0,0,0,0,0,0,1304,
scooby_state_40182a|28|-2 1301,1,0,0,0,0,0,0,0,2,0,0,0,0,0,1304,
scooby_state_40185c|53|-1 1,1300,0,0,1,0,0,0,0,1,0,0,1,0,0,1304,
scooby_state_40185c|55|-1 1,1300,0,0,1,1,0,0,0,1,0,0,0,0,0,1304,
scooby_state_40187e|29|1 1,1300,0,0,1,0,0,0,0,1,0,0,1,0,0,1304,
scooby_state_40187e|45|1 1,1301,1,0,0,0,0,1,0,0,0,0,0,0,0,1304,
scooby_state_40182a|44|-2 1301,0,0,1,0,0,0,0,0,0,0,1,0,0,1,1304,
scooby_state_40185c|31|-1 3,1293,0,0,1,0,0,1,1,1,0,2,1,0,0,1303,
scooby_state_40185c|13|-1 1,1298,0,0,0,1,0,0,0,0,0,0,1,2,0,1303,
scooby_state_40185c|37|-1 1,1300,1,0,0,0,1,0,0,0,0,0,0,0,0,1303,
scooby_state_40185c|61|-1 1,1299,0,0,1,0,0,0,0,1,0,0,0,0,0,1302,
scooby_state_40187e|50|1 1,1271,1,0,0,0,0,0,0,1,0,0,0,0,0,1274,
scooby_state_40185c|0|-1 0,1246,0,0,0,0,0,0,0,2,0,0,1,0,0,1249,
scooby_state_40187e|0|-1 2,1244,0,0,0,1,0,0,0,0,0,0,0,0,0,1247,
scooby_state_40185c|54|-1 0,1236,0,1,0,0,0,0,0,0,0,1,0,0,0,1238,
scooby_state_40185c|22|-1 1,1234,0,0,0,0,0,0,0,0,0,0,0,0,0,1235,
scooby_state_40187e|1|1 1,1231,0,0,0,0,0,0,0,0,0,0,0,0,0,1232,
scooby_state_40185c|38|-1 1,1223,0,1,0,1,0,0,0,0,1,1,0,0,0,1228,
scooby_state_40185c|30|-1 0,1219,0,0,0,0,0,0,0,1,0,1,0,0,0,1221,
scooby_state_40185c|6|-1 1,1217,0,0,1,0,0,0,1,0,0,0,1,0,0,1221,
scooby_state_40185c|62|-1 1,1217,0,0,0,0,0,0,0,0,0,0,1,0,1,1220,
scooby_state_40185c|46|-1 1,1217,1,0,0,0,0,0,1,0,0,0,0,0,0,1220,
scooby_state_40187e|33|1 0,1215,1,0,0,0,0,0,0,0,0,0,0,0,0,1216,
scooby_state_40185c|14|-1 1,1209,0,1,0,0,0,0,0,1,0,1,0,0,0,1213,
scooby_state_40185c|49|-1 0,1179,0,0,0,0,2,0,1,0,0,0,0,0,0,1182,
scooby_state_40185c|57|-1 1,1174,0,0,0,0,0,0,0,0,1,0,0,1,0,1177,
scooby_state_40185c|33|-1 1,1175,1,0,0,0,0,0,0,0,0,0,0,0,0,1177,
scooby_state_40185c|41|-1 1,1171,0,0,1,0,0,0,0,1,0,0,0,0,1,1175,
scooby_state_40185c|25|-1 0,1169,0,0,0,0,1,0,0,0,0,0,2,0,0,1172,
scooby_state_40185c|9|-1 1,1170,0,0,0,0,0,0,0,0,0,0,0,0,0,1171,
scooby_state_40185c|17|-1 1,1170,0,0,0,0,0,0,0,0,0,0,0,0,0,1171,
scooby_state_40185c|1|-1 1,1167,0,0,0,0,0,0,0,0,0,0,0,0,0,1168,
scooby_state_40182a|0|-2 1135,1,0,0,0,1,0,0,0,0,0,1,0,0,0,1138,
scooby_state_401884|0|-1 155,0,0,0,0,0,0,1,0,0,0,0,0,0,0,156,
scooby_state_401861|14|-1 146,0,0,0,0,0,0,0,0,0,0,0,0,0,0,146,
scooby_state_401861|46|-1 137,0,0,0,0,0,0,0,0,0,0,1,0,0,0,138,
scooby_state_401861|30|-1 138,0,0,0,0,0,0,0,0,0,0,0,0,0,0,138,
scooby_state_401861|62|-1 138,0,0,0,0,0,0,0,0,0,0,0,0,0,0,138,
scooby_state_401861|6|-1 137,0,0,0,0,0,0,0,0,0,0,0,0,0,0,137,
scooby_state_401861|1|-1 136,0,0,0,0,0,0,0,0,0,0,0,0,0,0,136,
scooby_state_401861|9|-1 134,0,0,0,1,0,0,0,0,0,0,0,0,0,0,135,
scooby_state_401861|17|-1 133,1,0,0,0,0,0,0,0,0,0,0,0,0,0,134,
scooby_state_401861|25|-1 132,0,0,0,1,0,0,0,0,0,0,0,0,0,0,133,
scooby_state_401861|38|-1 130,0,0,0,0,0,0,0,0,0,0,0,0,0,0,130,
scooby_state_401861|41|-1 130,0,0,0,0,0,0,0,0,0,0,0,0,0,0,130,
scooby_state_401861|57|-1 127,0,0,0,0,0,0,0,0,0,0,0,1,0,0,128,
scooby_state_401861|33|-1 127,0,0,0,0,0,0,0,0,1,0,0,0,0,0,128,
scooby_state_401861|49|-1 124,0,0,0,0,0,0,0,0,0,0,0,0,0,0,124,
scooby_state_401861|22|-1 123,0,0,0,0,0,0,0,0,0,0,0,0,0,0,123,
scooby_state_401861|54|-1 121,0,0,0,0,0,0,0,0,0,0,0,0,0,0,121,
scooby_state_401861|0|-2 92,1,0,0,0,0,0,0,0,0,0,0,0,0,0,93,
scooby_state_401884|33|1 90,0,0,0,0,0,0,0,0,0,0,0,0,0,0,90,
scooby_state_401884|50|1 84,0,0,0,0,0,0,0,0,0,0,0,0,0,0,84,
scooby_state_401736|13|-1 82,0,0,0,0,0,0,0,0,0,0,0,0,0,0,82,
scooby_state_401736|1|-1 82,0,0,0,0,0,0,0,0,0,0,0,0,0,0,82,
scooby_state_40176a|59|1 1,81,0,0,0,0,0,0,0,0,0,0,0,0,0,82,
scooby_state_401736|47|-1 82,0,0,0,0,0,0,0,0,0,0,0,0,0,0,82,
scooby_state_401705|4|-2 0,81,0,0,0,0,0,0,0,0,0,0,1,0,0,82,
scooby_state_40176a|11|1 0,82,0,0,0,0,0,0,0,0,0,0,0,0,0,82,
scooby_state_401705|10|-2 0,82,0,0,0,0,0,0,0,0,0,0,0,0,0,82,
scooby_state_401736|61|-1 82,0,0,0,0,0,0,0,0,0,0,0,0,0,0,82,
scooby_state_401705|44|-2 0,82,0,0,0,0,0,0,0,0,0,0,0,0,0,82,
scooby_state_401705|62|2 77,5,0,0,0,0,0,0,0,0,0,0,0,0,0,82,
scooby_state_40176a|63|1 0,82,0,0,0,0,0,0,0,0,0,0,0,0,0,82,
scooby_state_401736|31|-1 82,0,0,0,0,0,0,0,0,0,0,0,0,0,0,82,
scooby_state_40176a|29|1 0,82,0,0,0,0,0,0,0,0,0,0,0,0,0,82,
scooby_state_401705|28|-2 0,80,0,0,1,0,1,0,0,0,0,0,0,0,0,82,
scooby_state_401736|37|-1 82,0,0,0,0,0,0,0,0,0,0,0,0,0,0,82,
scooby_state_40176a|35|1 0,82,0,0,0,0,0,0,0,0,0,0,0,0,0,82,
scooby_state_40176a|5|1 0,82,0,0,0,0,0,0,0,0,0,0,0,0,0,82,
scooby_state_401736|7|-1 82,0,0,0,0,0,0,0,0,0,0,0,0,0,0,82,
scooby_state_401705|58|-2 1,81,0,0,0,0,0,0,0,0,0,0,0,0,0,82,
scooby_state_40176a|45|1 0,82,0,0,0,0,0,0,0,0,0,0,0,0,0,82,
scooby_state_401705|34|-2 0,81,0,0,0,0,0,0,1,0,0,0,0,0,0,82,
scooby_state_401705|48|-2 0,80,0,0,0,0,0,1,0,0,0,0,0,0,0,81,
scooby_state_401705|18|-2 0,81,0,0,0,0,0,0,0,0,0,0,0,0,0,81,
scooby_state_401705|20|-2 0,81,0,0,0,0,0,0,0,0,0,0,0,0,0,81,
scooby_state_40176a|31|1 0,80,0,0,0,0,0,0,0,0,0,0,0,1,0,81,
scooby_state_40176a|57|1 0,81,0,0,0,0,0,0,0,0,0,0,0,0,0,81,
scooby_state_401705|8|-2 0,81,0,0,0,0,0,0,0,0,0,0,0,0,0,81,
scooby_state_40176a|19|1 0,81,0,0,0,0,0,0,0,0,0,0,0,0,0,81,
scooby_state_40176a|15|1 0,81,0,0,0,0,0,0,0,0,0,0,0,0,0,81,
scooby_state_401736|53|-1 81,0,0,0,0,0,0,0,0,0,0,0,0,0,0,81,
scooby_state_401736|17|-1 81,0,0,0,0,0,0,0,0,0,0,0,0,0,0,81,
scooby_state_401736|33|-1 81,0,0,0,0,0,0,0,0,0,0,0,0,0,0,81,
scooby_state_401705|24|-2 0,81,0,0,0,0,0,0,0,0,0,0,0,0,0,81,
scooby_state_40176a|25|1 0,81,0,0,0,0,0,0,0,0,0,0,0,0,0,81,
scooby_state_401736|27|-1 81,0,0,0,0,0,0,0,0,0,0,0,0,0,0,81,
scooby_state_401705|50|-2 0,81,0,0,0,0,0,0,0,0,0,0,0,0,0,81,
scooby_state_401705|52|-2 1,80,0,0,0,0,0,0,0,0,0,0,0,0,0,81,
scooby_state_401736|23|-1 80,0,0,0,0,0,0,0,0,0,1,0,0,0,0,81,
scooby_state_401736|11|-1 81,0,0,0,0,0,0,0,0,0,0,0,0,0,0,81,
scooby_state_40176a|49|1 0,80,0,0,0,0,0,0,1,0,0,0,0,0,0,81,
scooby_state_401736|57|-1 80,0,0,0,0,0,0,0,0,0,1,0,0,0,0,81,
scooby_state_401736|41|-1 79,0,0,0,0,0,1,1,0,0,0,0,0,0,0,81,
scooby_state_40176a|39|1 0,81,0,0,0,0,0,0,0,0,0,0,0,0,0,81,
scooby_state_40176a|21|1 0,81,0,0,0,0,0,0,0,0,0,0,0,0,0,81,
scooby_state_40176a|51|1 0,81,0,0,0,0,0,0,0,0,0,0,0,0,0,81,
scooby_state_401705|40|-2 0,81,0,0,0,0,0,0,0,0,0,0,0,0,0,81,
scooby_state_401705|38|-2 0,81,0,0,0,0,0,0,0,0,0,0,0,0,0,81,
scooby_state_401736|19|-1 81,0,0,0,0,0,0,0,0,0,0,0,0,0,0,81,
scooby_state_40176a|41|1 0,81,0,0,0,0,0,0,0,0,0,0,0,0,0,81,
scooby_state_401705|22|-2 0,81,0,0,0,0,0,0,0,0,0,0,0,0,0,81,
scooby_state_401705|56|-2 0,81,0,0,0,0,0,0,0,0,0,0,0,0,0,81,
scooby_state_40176a|23|1 0,81,0,0,0,0,0,0,0,0,0,0,0,0,0,81,
scooby_state_401736|25|-1 81,0,0,0,0,0,0,0,0,0,0,0,0,0,0,81,
scooby_state_401705|16|-2 0,81,0,0,0,0,0,0,0,0,0,0,0,0,0,81,
scooby_state_40176a|17|1 0,81,0,0,0,0,0,0,0,0,0,0,0,0,0,81,
scooby_state_40176a|9|1 0,81,0,0,0,0,0,0,0,0,0,0,0,0,0,81,
scooby_state_401705|54|-2 0,81,0,0,0,0,0,0,0,0,0,0,0,0,0,81,
scooby_state_401736|21|-1 80,0,0,0,0,0,0,0,0,0,0,0,1,0,0,81,
scooby_state_401736|59|-1 81,0,0,0,0,0,0,0,0,0,0,0,0,0,0,81,
scooby_state_401736|3|-1 81,0,0,0,0,0,0,0,0,0,0,0,0,0,0,81,
scooby_state_401736|55|-1 81,0,0,0,0,0,0,0,0,0,0,0,0,0,0,81,
scooby_state_401705|14|-2 0,81,0,0,0,0,0,0,0,0,0,0,0,0,0,81,
scooby_state_401736|43|-1 81,0,0,0,0,0,0,0,0,0,0,0,0,0,0,81,
scooby_state_401705|30|-2 0,81,0,0,0,0,0,0,0,0,0,0,0,0,0,81,
scooby_state_40176a|53|1 1,80,0,0,0,0,0,0,0,0,0,0,0,0,0,81,
scooby_state_401736|51|-1 81,0,0,0,0,0,0,0,0,0,0,0,0,0,0,81,
scooby_state_401736|5|-1 78,1,0,0,0,0,0,0,0,1,0,0,0,0,0,80,
scooby_state_401736|9|-1 80,0,0,0,0,0,0,0,0,0,0,0,0,0,0,80,
scooby_state_401736|39|-1 80,0,0,0,0,0,0,0,0,0,0,0,0,0,0,80,
scooby_state_40176a|13|1 0,80,0,0,0,0,0,0,0,0,0,0,0,0,0,80,
scooby_state_401736|15|-1 80,0,0,0,0,0,0,0,0,0,0,0,0,0,0,80,
scooby_state_40176a|27|1 0,80,0,0,0,0,0,0,0,0,0,0,0,0,0,80,
scooby_state_401736|63|2 0,80,0,0,0,0,0,0,0,0,0,0,0,0,0,80,
scooby_state_401736|35|-1 80,0,0,0,0,0,0,0,0,0,0,0,0,0,0,80,
scooby_state_40176a|55|1 0,80,0,0,0,0,0,0,0,0,0,0,0,0,0,80,
scooby_state_40176a|61|1 0,80,0,0,0,0,0,0,0,0,0,0,0,0,0,80,
scooby_state_401705|60|-2 0,79,0,0,0,0,0,0,0,1,0,0,0,0,0,80,
scooby_state_401705|36|-2 0,79,0,0,1,0,0,0,0,0,0,0,0,0,0,80,
scooby_state_401736|29|-1 80,0,0,0,0,0,0,0,0,0,0,0,0,0,0,80,
scooby_state_401705|6|-2 0,80,0,0,0,0,0,0,0,0,0,0,0,0,0,80,
scooby_state_40176a|43|1 0,79,0,0,1,0,0,0,0,0,0,0,0,0,0,80,
scooby_state_40176a|1|1 0,80,0,0,0,0,0,0,0,0,0,0,0,0,0,80,
scooby_state_40176a|47|1 0,80,0,0,0,0,0,0,0,0,0,0,0,0,0,80,
scooby_state_401705|12|-2 0,80,0,0,0,0,0,0,0,0,0,0,0,0,0,80,
scooby_state_401705|42|-2 0,80,0,0,0,0,0,0,0,0,0,0,0,0,0,80,
scooby_state_401736|49|-1 80,0,0,0,0,0,0,0,0,0,0,0,0,0,0,80,
scooby_state_401705|32|-2 0,80,0,0,0,0,0,0,0,0,0,0,0,0,0,80,
scooby_state_401705|26|-2 0,80,0,0,0,0,0,0,0,0,0,0,0,0,0,80,
scooby_state_40176a|7|1 0,80,0,0,0,0,0,0,0,0,0,0,0,0,0,80,
scooby_state_40176a|3|1 0,80,0,0,0,0,0,0,0,0,0,0,0,0,0,80,
scooby_state_401736|45|-1 80,0,0,0,0,0,0,0,0,0,0,0,0,0,0,80,
scooby_state_401705|46|-2 1,79,0,0,0,0,0,0,0,0,0,0,0,0,0,80,
scooby_state_40176a|33|1 0,79,0,0,0,0,0,0,0,0,0,1,0,0,0,80,
scooby_state_401705|2|-2 0,80,0,0,0,0,0,0,0,0,0,0,0,0,0,80,
scooby_state_401705|0|-2 0,80,0,0,0,0,0,0,0,0,0,0,0,0,0,80,
scooby_state_40176a|37|1 0,80,0,0,0,0,0,0,0,0,0,0,0,0,0,80,
scooby_state_401884|1|-1 73,0,0,0,0,0,0,0,0,0,0,0,0,0,0,73,
scooby_state_40182a|0|-1 73,0,0,0,0,0,0,0,0,0,0,0,0,0,0,73,
scooby_state_4018a5|0|-1 63,0,0,0,0,0,0,0,0,0,0,0,0,0,0,63,
scooby_state_401736|6|-1 28,0,0,0,0,0,0,0,0,0,0,0,0,0,0,28,
scooby_state_401705|57|-2 0,28,0,0,0,0,0,0,0,0,0,0,0,0,0,28,
scooby_state_401705|3|-2 0,28,0,0,0,0,0,0,0,0,0,0,0,0,0,28,
scooby_state_40176a|20|1 0,28,0,0,0,0,0,0,0,0,0,0,0,0,0,28,
scooby_state_40176a|4|1 0,28,0,0,0,0,0,0,0,0,0,0,0,0,0,28,
scooby_state_401705|19|-2 0,28,0,0,0,0,0,0,0,0,0,0,0,0,0,28,
scooby_state_401705|25|-2 0,28,0,0,0,0,0,0,0,0,0,0,0,0,0,28,
scooby_state_401736|12|-1 28,0,0,0,0,0,0,0,0,0,0,0,0,0,0,28,
scooby_state_401736|22|-1 28,0,0,0,0,0,0,0,0,0,0,0,0,0,0,28,
scooby_state_401736|52|-1 28,0,0,0,0,0,0,0,0,0,0,0,0,0,0,28,
scooby_state_401736|36|-1 28,0,0,0,0,0,0,0,0,0,0,0,0,0,0,28,
scooby_state_401705|59|-2 0,28,0,0,0,0,0,0,0,0,0,0,0,0,0,28,
scooby_state_40176a|60|1 0,28,0,0,0,0,0,0,0,0,0,0,0,0,0,28,
scooby_state_401705|9|-2 0,28,0,0,0,0,0,0,0,0,0,0,0,0,0,28,
scooby_state_401705|43|-2 0,28,0,0,0,0,0,0,0,0,0,0,0,0,0,28,
scooby_state_40176a|34|1 0,28,0,0,0,0,0,0,0,0,0,0,0,0,0,28,
scooby_state_401705|49|-2 0,28,0,0,0,0,0,0,0,0,0,0,0,0,0,28,
scooby_state_401736|28|-1 28,0,0,0,0,0,0,0,0,0,0,0,0,0,0,28,
scooby_state_401705|35|-2 0,28,0,0,0,0,0,0,0,0,0,0,0,0,0,28,
scooby_state_40176a|36|1 0,28,0,0,0,0,0,0,0,0,0,0,0,0,0,28,
scooby_state_401705|33|-2 0,28,0,0,0,0,0,0,0,0,0,0,0,0,0,28,
scooby_state_401736|38|-1 28,0,0,0,0,0,0,0,0,0,0,0,0,0,0,28,
scooby_state_401736|60|-1 28,0,0,0,0,0,0,0,0,0,0,0,0,0,0,28,
scooby_state_40176a|50|1 0,28,0,0,0,0,0,0,0,0,0,0,0,0,0,28,
scooby_state_40176a|52|1 0,27,0,0,0,0,0,0,0,0,0,0,0,0,0,27,
scooby_state_401705|17|-2 0,27,0,0,0,0,0,0,0,0,0,0,0,0,0,27,
scooby_state_401705|27|-2 0,27,0,0,0,0,0,0,0,0,0,0,0,0,0,27,
scooby_state_40176a|12|1 0,26,0,0,0,0,0,0,0,0,0,0,0,0,1,27,
scooby_state_40176a|44|1 0,27,0,0,0,0,0,0,0,0,0,0,0,0,0,27,
scooby_state_401705|1|-2 0,27,0,0,0,0,0,0,0,0,0,0,0,0,0,27,
scooby_state_40176a|2|1 0,27,0,0,0,0,0,0,0,0,0,0,0,0,0,27,
scooby_state_401736|20|-1 27,0,0,0,0,0,0,0,0,0,0,0,0,0,0,27,
scooby_state_401736|44|-1 27,0,0,0,0,0,0,0,0,0,0,0,0,0,0,27,
scooby_state_40176a|28|1 0,27,0,0,0,0,0,0,0,0,0,0,0,0,0,27,
scooby_state_401705|51|-2 0,27,0,0,0,0,0,0,0,0,0,0,0,0,0,27,
scooby_state_401736|54|-1 27,0,0,0,0,0,0,0,0,0,0,0,0,0,0,27,
scooby_state_401705|11|-2 0,27,0,0,0,0,0,0,0,0,0,0,0,0,0,27,
scooby_state_401705|41|-2 0,27,0,0,0,0,0,0,0,0,0,0,0,0,0,27,
scooby_state_401736|4|-1 27,0,0,0,0,0,0,0,0,0,0,0,0,0,0,27,
scooby_state_40176a|14|1 0,26,0,0,0,0,0,0,0,0,0,0,0,0,0,26,
scooby_state_40176a|40|1 0,26,0,0,0,0,0,0,0,0,0,0,0,0,0,26,
scooby_state_401736|42|-1 26,0,0,0,0,0,0,0,0,0,0,0,0,0,0,26,
scooby_state_401736|16|-1 26,0,0,0,0,0,0,0,0,0,0,0,0,0,0,26,
scooby_state_401736|56|-1 26,0,0,0,0,0,0,0,0,0,0,0,0,0,0,26,
scooby_state_40176a|24|1 0,26,0,0,0,0,0,0,0,0,0,0,0,0,0,26,
scooby_state_401705|29|-2 0,26,0,0,0,0,0,0,0,0,0,0,0,0,0,26,
scooby_state_40176a|54|1 0,26,0,0,0,0,0,0,0,0,0,0,0,0,0,26,
scooby_state_401736|18|-1 26,0,0,0,0,0,0,0,0,0,0,0,0,0,0,26,
scooby_state_40176a|6|1 0,26,0,0,0,0,0,0,0,0,0,0,0,0,0,26,
scooby_state_401736|8|-1 26,0,0,0,0,0,0,0,0,0,0,0,0,0,0,26,
scooby_state_401736|32|-1 26,0,0,0,0,0,0,0,0,0,0,0,0,0,0,26,
scooby_state_40176a|18|1 0,26,0,0,0,0,0,0,0,0,0,0,0,0,0,26,
scooby_state_401705|63|2 24,2,0,0,0,0,0,0,0,0,0,0,0,0,0,26,
scooby_state_401705|39|-2 0,26,0,0,0,0,0,0,0,0,0,0,0,0,0,26,
scooby_state_40176a|0|-1 0,26,0,0,0,0,0,0,0,0,0,0,0,0,0,26,
scooby_state_401736|2|-1 26,0,0,0,0,0,0,0,0,0,0,0,0,0,0,26,
scooby_state_401736|26|-1 26,0,0,0,0,0,0,0,0,0,0,0,0,0,0,26,
scooby_state_40176a|16|1 0,26,0,0,0,0,0,0,0,0,0,0,0,0,0,26,
scooby_state_401705|23|-2 0,26,0,0,0,0,0,0,0,0,0,0,0,0,0,26,
scooby_state_40176a|30|1 0,26,0,0,0,0,0,0,0,0,0,0,0,0,0,26,
scooby_state_401705|13|-2 0,26,0,0,0,0,0,0,0,0,0,0,0,0,0,26,
scooby_state_401705|15|-2 0,26,0,0,0,0,0,0,0,0,0,0,0,0,0,26,
scooby_state_401705|31|-2 0,25,0,0,0,0,0,0,0,0,0,0,0,0,0,25,
scooby_state_401705|55|-2 0,25,0,0,0,0,0,0,0,0,0,0,0,0,0,25,
scooby_state_40176a|46|1 0,25,0,0,0,0,0,0,0,0,0,0,0,0,0,25,
scooby_state_401705|61|-2 0,25,0,0,0,0,0,0,0,0,0,0,0,0,0,25,
scooby_state_40176a|56|1 0,25,0,0,0,0,0,0,0,0,0,0,0,0,0,25,
scooby_state_401736|58|-1 25,0,0,0,0,0,0,0,0,0,0,0,0,0,0,25,
scooby_state_401736|10|-1 25,0,0,0,0,0,0,0,0,0,0,0,0,0,0,25,
scooby_state_401736|0|-1 25,0,0,0,0,0,0,0,0,0,0,0,0,0,0,25,
scooby_state_401705|47|-2 0,25,0,0,0,0,0,0,0,0,0,0,0,0,0,25,
scooby_state_401736|34|-1 25,0,0,0,0,0,0,0,0,0,0,0,0,0,0,25,
scooby_state_40176a|32|1 0,25,0,0,0,0,0,0,0,0,0,0,0,0,0,25,
scooby_state_401736|48|-1 25,0,0,0,0,0,0,0,0,0,0,0,0,0,0,25,
scooby_state_40176a|38|1 0,25,0,0,0,0,0,0,0,0,0,0,0,0,0,25,
scooby_state_401736|40|-1 25,0,0,0,0,0,0,0,0,0,0,0,0,0,0,25,
scooby_state_40176a|48|1 0,25,0,0,0,0,0,0,0,0,0,0,0,0,0,25,
scooby_state_40176a|62|1 0,25,0,0,0,0,0,0,0,0,0,0,0,0,0,25,
scooby_state_401705|45|-2 0,25,0,0,0,0,0,0,0,0,0,0,0,0,0,25,
scooby_state_401705|7|-2 0,25,0,0,0,0,0,0,0,0,0,0,0,0,0,25,
scooby_state_401736|50|-1 25,0,0,0,0,0,0,0,0,0,0,0,0,0,0,25,
scooby_state_401736|24|-1 25,0,0,0,0,0,0,0,0,0,0,0,0,0,0,25,
scooby_state_40176a|22|1 0,25,0,0,0,0,0,0,0,0,0,0,0,0,0,25,
scooby_state_40176a|8|1 0,24,0,0,0,0,0,0,0,0,0,0,0,0,0,24,
scooby_state_40176a|58|1 0,24,0,0,0,0,0,0,0,0,0,0,0,0,0,24,
scooby_state_40176a|26|1 0,23,0,0,0,0,0,0,0,0,0,0,0,0,0,23,
scooby_state_40176a|10|1 0,23,0,0,0,0,0,0,0,0,0,0,0,0,0,23,
scooby_state_401736|30|-1 22,0,0,0,0,0,0,0,0,0,0,0,0,0,0,22,
scooby_state_401736|62|-1 22,0,0,0,0,0,0,0,0,0,0,0,0,0,0,22,
scooby_state_401736|46|-1 22,0,0,0,0,0,0,0,0,0,0,0,0,0,0,22,
scooby_state_401705|37|-2 0,22,0,0,0,0,0,0,0,0,0,0,0,0,0,22,
scooby_state_401705|5|-2 0,22,0,0,0,0,0,0,0,0,0,0,0,0,0,22,
scooby_state_401705|53|-2 0,21,0,0,0,0,0,0,0,0,0,0,0,0,0,21,
scooby_state_40176a|42|1 0,21,0,0,0,0,0,0,0,0,0,0,0,0,0,21,
scooby_state_401736|14|-1 21,0,0,0,0,0,0,0,0,0,0,0,0,0,0,21,
scooby_state_401705|21|-2 0,20,0,0,0,0,0,0,0,0,0,0,0,0,0,20,
scooby_state_401c9e|44|-1 15,3,0,0,0,0,0,0,0,0,0,0,0,0,0,18,
scooby_state_4019c1|43|0 17,0,0,0,0,0,0,0,0,0,0,0,0,0,0,17,
scooby_state_401baf|45|2 1,1,1,1,1,1,1,1,1,1,0,0,0,0,0,10,
scooby_state_401b1c|45|2 1,1,1,1,1,1,1,0,0,0,0,0,0,0,0,7,
scooby_state_401750|46|-1 0,6,0,0,0,0,0,0,0,0,0,0,0,0,0,6,
scooby_state_401750|62|-1 0,6,0,0,0,0,0,0,0,0,0,0,0,0,0,6,
scooby_state_401777|42|1 6,0,0,0,0,0,0,0,0,0,0,0,0,0,0,6,
scooby_state_401750|14|-1 0,6,0,0,0,0,0,0,0,0,0,0,0,0,0,6,
scooby_state_401777|26|1 5,0,0,0,0,0,0,0,0,0,0,0,0,0,0,5,
scooby_state_401777|10|1 5,0,0,0,0,0,0,0,0,0,0,0,0,0,0,5,
scooby_state_401712|21|-2 5,0,0,0,0,0,0,0,0,0,0,0,0,0,0,5,
scooby_state_401750|30|-1 0,5,0,0,0,0,0,0,0,0,0,0,0,0,0,5,
scooby_state_401712|53|-2 5,0,0,0,0,0,0,0,0,0,0,0,0,0,0,5,
scooby_state_401861|36|-1 4,0,0,0,0,0,0,0,0,0,0,0,0,0,0,4,
scooby_state_401861|52|-1 4,0,0,0,0,0,0,0,0,0,0,0,0,0,0,4,
scooby_state_401712|5|-2 4,0,0,0,0,0,0,0,0,0,0,0,0,0,0,4,
scooby_state_401777|58|1 4,0,0,0,0,0,0,0,0,0,0,0,0,0,0,4,
scooby_state_401895|0|-1 4,0,0,0,0,0,0,0,0,0,0,0,0,0,0,4,
scooby_state_401712|37|-2 3,0,0,0,0,0,0,0,0,0,0,0,0,0,0,3,
scooby_state_401861|28|-1 2,0,0,0,0,0,0,0,0,0,0,0,0,0,0,2,
scooby_state_401884|16|1 2,0,0,0,0,0,0,0,0,0,0,0,0,0,0,2,
scooby_state_401861|20|-1 2,0,0,0,0,0,0,0,0,0,0,0,0,0,0,2,
scooby_state_401861|61|-1 2,0,0,0,0,0,0,0,0,0,0,0,0,0,0,2,
scooby_state_40186d|0|-1 1,0,0,0,0,0,0,0,0,0,0,0,0,0,0,1,
scooby_state_401d93|45|1 1,0,0,0,0,0,0,0,0,0,0,0,0,0,0,1,
scooby_state_401c42|49|1 1,0,0,0,0,0,0,0,0,0,0,0,0,0,0,1,
scooby_state_401ac3|43|1 1,0,0,0,0,0,0,0,0,0,0,0,0,0,0,1,
scooby_state_401ec1|59|1 1,0,0,0,0,0,0,0,0,0,0,0,0,0,0,1,
scooby_state_401861|55|-1 1,0,0,0,0,0,0,0,0,0,0,0,0,0,0,1,
scooby_state_401b02|44|1 1,0,0,0,0,0,0,0,0,0,0,0,0,0,0,1,
scooby_state_401905|36|1 1,0,0,0,0,0,0,0,0,0,0,0,0,0,0,1,
scooby_state_401cc2|51|1 1,0,0,0,0,0,0,0,0,0,0,0,0,0,0,1,
scooby_state_401e80|58|1 1,0,0,0,0,0,0,0,0,0,0,0,0,0,0,1,
scooby_state_401705|28|1 1,0,0,0,0,0,0,0,0,0,0,0,0,0,0,1,
scooby_state_4019c1|39|1 1,0,0,0,0,0,0,0,0,0,0,0,0,0,0,1,
scooby_state_401861|60|-1 1,0,0,0,0,0,0,0,0,0,0,0,0,0,0,1,
scooby_state_401c83|50|1 1,0,0,0,0,0,0,0,0,0,0,0,0,0,0,1,
scooby_state_401861|12|-1 1,0,0,0,0,0,0,0,0,0,0,0,0,0,0,1,
scooby_state_401e42|57|1 1,0,0,0,0,0,0,0,0,0,0,0,0,0,0,1,
scooby_state_401942|37|1 1,0,0,0,0,0,0,0,0,0,0,0,0,0,0,1,
scooby_state_4017e8|31|-28 1,0,0,0,0,0,0,0,0,0,0,0,0,0,0,1,
scooby_state_401b41|45|1 1,0,0,0,0,0,0,0,0,0,0,0,0,0,0,1,
scooby_state_401980|38|1 1,0,0,0,0,0,0,0,0,0,0,0,0,0,0,1,
scooby_state_401777|8|1 1,0,0,0,0,0,0,0,0,0,0,0,0,0,0,1,
scooby_state_401861|53|-1 1,0,0,0,0,0,0,0,0,0,0,0,0,0,0,1,
scooby_state_401861|37|-1 1,0,0,0,0,0,0,0,0,0,0,0,0,0,0,1,
scooby_state_401861|56|-1 1,0,0,0,0,0,0,0,0,0,0,0,0,0,0,1,
scooby_state_401884|44|1 1,0,0,0,0,0,0,0,0,0,0,0,0,0,0,1,
scooby_state_401861|31|-1 1,0,0,0,0,0,0,0,0,0,0,0,0,0,0,1,
scooby_state_401784|1|-1 1,0,0,0,0,0,0,0,0,0,0,0,0,0,0,1,
scooby_state_401861|13|-1 1,0,0,0,0,0,0,0,0,0,0,0,0,0,0,1,
scooby_state_401878|0|-1 1,0,0,0,0,0,0,0,0,0,0,0,0,0,0,1,
scooby_state_40186d|0|-2 1,0,0,0,0,0,0,0,0,0,0,0,0,0,0,1,
scooby_state_401777|55|1 1,0,0,0,0,0,0,0,0,0,0,0,0,0,0,1,
scooby_state_401cca|44|0 1,0,0,0,0,0,0,0,0,0,0,0,0,0,0,1,
scooby_state_401777|44|1 1,0,0,0,0,0,0,0,0,0,0,0,0,0,0,1,
scooby_state_401884|28|1 1,0,0,0,0,0,0,0,0,0,0,0,0,0,0,1,
scooby_state_401705|0|-1 0,1,0,0,0,0,0,0,0,0,0,0,0,0,0,1,
scooby_state_401bc2|47|1 1,0,0,0,0,0,0,0,0,0,0,0,0,0,0,1,
scooby_state_401a44|41|0 1,0,0,0,0,0,0,0,0,0,0,0,0,0,0,1,
scooby_state_401c03|48|1 1,0,0,0,0,0,0,0,0,0,0,0,0,0,0,1,
scooby_state_401d03|52|1 1,0,0,0,0,0,0,0,0,0,0,0,0,0,0,1,
scooby_state_401743|29|1 1,0,0,0,0,0,0,0,0,0,0,0,0,0,0,1,
scooby_state_401b82|46|1 1,0,0,0,0,0,0,0,0,0,0,0,0,0,0,1,
scooby_state_401e65|46|1 1,0,0,0,0,0,0,0,0,0,0,0,0,0,0,1,
scooby_state_401baf|45|0 1,0,0,0,0,0,0,0,0,0,0,0,0,0,0,1,
scooby_state_401a83|42|1 1,0,0,0,0,0,0,0,0,0,0,0,0,0,0,1,
scooby_state_401861|44|-1 1,0,0,0,0,0,0,0,0,0,0,0,0,0,0,1,
scooby_state_401804|32|1 1,0,0,0,0,0,0,0,0,0,0,0,0,0,0,1,
scooby_state_401840|33|1 1,0,0,0,0,0,0,0,0,0,0,0,0,0,0,1,
scooby_state_4019c1|43|-1 1,0,0,0,0,0,0,0,0,0,0,0,0,0,0,1,
scooby_state_401784|30|1 1,0,0,0,0,0,0,0,0,0,0,0,0,0,0,1,
scooby_state_4016f0|27|-13 1,0,0,0,0,0,0,0,0,0,0,0,0,0,0,1,
scooby_state_401dc5|55|1 1,0,0,0,0,0,0,0,0,0,0,0,0,0,0,1,
scooby_state_401e02|56|1 1,0,0,0,0,0,0,0,0,0,0,0,0,0,0,1,
scooby_state_4018c3|35|1 1,0,0,0,0,0,0,0,0,0,0,0,0,0,0,1,
scooby_state_401884|34|1 1,0,0,0,0,0,0,0,0,0,0,0,0,0,0,1,
scooby_state_401d83|54|1 1,0,0,0,0,0,0,0,0,0,0,0,0,0,0,1,
scooby_state_401a01|40|1 1,0,0,0,0,0,0,0,0,0,0,0,0,0,0,1,
scooby_state_401cb4|43|0 1,0,0,0,0,0,0,0,0,0,0,0,0,0,0,1,
scooby_state_401d42|53|1 1,0,0,0,0,0,0,0,0,0,0,0,0,0,0,1,
scooby_state_401777|18|1 1,0,0,0,0,0,0,0,0,0,0,0,0,0,0,1,

scooby_action_0_deg_dist 0,56,0,0,0,0,0,0,0,0,0,0,0,0,0,0,
scooby_action_4_deg_dist 0,49,0,0,0,0,0,0,0,0,0,0,0,0,0,0,
scooby_action_3_deg_dist 0,22176,14653,0,36226,0,101315,0,0,0,0,0,0,0,0,0,
scooby_action_32_deg_dist 0,44,0,0,0,0,0,0,0,0,0,0,0,0,0,0,
scooby_action_5_deg_dist 0,51,0,0,0,0,0,0,0,0,0,0,0,0,0,0,
scooby_action_1_deg_dist 0,23040,19613,0,52305,0,173539,0,0,0,0,0,0,0,0,0,
scooby_action_30_deg_dist 0,67,0,0,0,0,0,0,0,0,0,0,0,0,0,0,
scooby_action_-3_deg_dist 0,53,0,0,0,0,0,0,0,0,0,0,0,0,0,0,
scooby_action_10_deg_dist 0,67,0,0,0,0,0,0,0,0,0,0,0,0,0,0,
scooby_action_-1_deg_dist 0,68,0,0,0,0,0,0,0,0,0,0,0,0,0,0,
scooby_action_23_deg_dist 0,56,0,0,0,0,0,0,0,0,0,0,0,0,0,0,
scooby_action_-6_deg_dist 0,43,0,0,0,0,0,0,0,0,0,0,0,0,0,0,
scooby_action_11_deg_dist 0,58,0,0,0,0,0,0,0,0,0,0,0,0,0,0,
scooby_action_22_deg_dist 0,59,0,0,0,0,0,0,0,0,0,0,0,0,0,0,
scooby_action_12_deg_dist 0,63,0,0,0,0,0,0,0,0,0,0,0,0,0,0,

scooby_track_called 443601
scooby_track_same_address 86147
scooby_track_evict 357198

scooby_reward_demand_called 443601
scooby_reward_demand_pt_not_found 99626
scooby_reward_demand_pt_found 343975
scooby_reward_demand_pt_found_total 343975
scooby_reward_demand_has_reward 0
scooby_reward_train_called 1090
scooby_reward_assign_reward_called 357452
scooby_reward_no_pref 56
scooby_reward_incorrect 1034
scooby_reward_correct_untimely 255220
scooby_reward_correct_timely 88755
scooby_reward_out_of_bounds 12387
scooby_reward_tracker_hit 0

scooby_reward_none_low_bw 56
scooby_reward_none_high_bw 0
scooby_reward_incorrect_low_bw 1034
scooby_reward_incorrect_high_bw 0
scooby_reward_correct_untimely_low_bw 255220
scooby_reward_correct_untimely_high_bw 0
scooby_reward_correct_timely_low_bw 88755
scooby_reward_correct_timely_high_bw 0
scooby_reward_out_of_bounds_low_bw 12387
scooby_reward_out_of_bounds_high_bw 0
scooby_reward_tracker_hit_low_bw 0
scooby_reward_tracker_hit_high_bw 0

scooby_reward_1 0,982,143367,37385,4153,0,
scooby_reward_3 0,5,111770,51086,8089,0,
scooby_reward_4 0,2,30,15,2,0,
scooby_reward_5 0,2,25,20,4,0,
scooby_reward_10 0,2,20,36,9,0,
scooby_reward_11 0,2,3,41,12,0,
scooby_reward_12 0,2,2,50,9,0,
scooby_reward_22 0,0,0,33,26,0,
scooby_reward_23 0,0,0,36,20,0,
scooby_reward_30 0,0,0,33,34,0,
scooby_reward_32 0,0,0,20,24,0,
scooby_reward_-1 0,14,3,0,2,0,
scooby_reward_-3 0,16,0,0,2,0,
scooby_reward_-6 0,7,0,0,1,0,
scooby_reward_0 56,0,0,0,0,0,

scooby_train_called 357197
scooby_train_compute_reward 1090

scooby_register_fill_called 365585
scooby_register_fill_set 88775
scooby_register_fill_set_total 88775

scooby_register_prefetch_hit_called 640914
scooby_register_prefetch_hit_set 219151
scooby_register_prefetch_hit_set_total 219151

scooby_pref_issue_scooby 1438073

learning_engine_featurewise.action.called 443601
learning_engine_featurewise.action.explore 824
learning_engine_featurewise.action.exploit 442777
learning_engine_featurewise.action.fallback 0
learning_engine_featurewise.action.dyn_fallback_saved_bw 0
learning_engine_featurewise.action.dyn_fallback_saved_bw_acc 2397
learning_engine_featurewise.action.index_1_explored 46
learning_engine_featurewise.action.index_1_exploited 268451
learning_engine_featurewise.action.index_3_explored 57
learning_engine_featurewise.action.index_3_exploited 174313
learning_engine_featurewise.action.index_4_explored 47
learning_engine_featurewise.action.index_4_exploited 2
learning_engine_featurewise.action.index_5_explored 49
learning_engine_featurewise.action.index_5_exploited 2
learning_engine_featurewise.action.index_10_explored 65
learning_engine_featurewise.action.index_10_exploited 2
learning_engine_featurewise.action.index_11_explored 56
learning_engine_featurewise.action.index_11_exploited 2
learning_engine_featurewise.action.index_12_explored 61
learning_engine_featurewise.action.index_12_exploited 2
learning_engine_featurewise.action.index_22_explored 58
learning_engine_featurewise.action.index_22_exploited 1
learning_engine_featurewise.action.index_23_explored 55
learning_engine_featurewise.action.index_23_exploited 1
learning_engine_featurewise.action.index_30_explored 66
learning_engine_featurewise.action.index_30_exploited 1
learning_engine_featurewise.action.index_32_explored 44
learning_engine_featurewise.action.index_32_exploited 0
learning_engine_featurewise.action.index_-1_explored 68
learning_engine_featurewise.action.index_-1_exploited 0
learning_engine_featurewise.action.index_-3_explored 53
learning_engine_featurewise.action.index_-3_exploited 0
learning_engine_featurewise.action.index_-6_explored 43
learning_engine_featurewise.action.index_-6_exploited 0
learning_engine_featurewise.action.index_0_explored 56
learning_engine_featurewise.action.index_0_exploited 0
learning_engine_featurewise.learn.called 357197
learning_engine_featurewise.learn.su_skip_PC 0
learning_engine_featurewise.learn.su_skip_PC_Delta 0

learning_engine_featurewise.q_value_histogram.bucket_0 0
learning_engine_featurewise.q_value_histogram.bucket_1 0
learning_engine_featurewise.q_value_histogram.bucket_2 0
learning_engine_featurewise.q_value_histogram.bucket_3 0
learning_engine_featurewise.q_value_histogram.bucket_4 1012
learning_engine_featurewise.q_value_histogram.bucket_5 1680
learning_engine_featurewise.q_value_histogram.bucket_6 440085
learning_engine_featurewise.q_value_histogram.bucket_7 0

learning_engine_featurewise.consensus.total 442777
learning_engine_featurewise.consensus.feature_align_PC 439319
learning_engine_featurewise.consensus.feature_align_PC_ratio 0.99
learning_engine_featurewise.consensus.feature_align_PC_Delta 439877
learning_engine_featurewise.consensus.feature_align_PC_Delta_ratio 0.99
learning_engine_featurewise.consensus.feature_align_all 436419
learning_engine_featurewise.consensus.feature_align_all_ratio 0.99

learning_engine_featurewise.feature_PC_min_weight 1000000.00000000
learning_engine_featurewise.feature_PC_max_weight 0.00000000
learning_engine_featurewise.feature_PC_Delta_min_weight 1000000.00000000
learning_engine_featurewise.feature_PC_Delta_max_weight 0.00000000
unique_pcs 53
unique_pages 6934
unique_trigger_pcs 6
total_bitmaps_seen 0
unique_bitmaps_seen 0

scooby_bw_epochs 323319
scooby_bw_level_0 63610
scooby_bw_level_1 126594
scooby_bw_level_2 101142
scooby_bw_level_3 31973

scooby_ipc_epochs 0
scooby_ipc_level_0 0
scooby_ipc_level_1 0
scooby_ipc_level_2 0
scooby_ipc_level_3 0

scooby_cache_acc_epochs 78593
scooby_cache_acc_level_0 37
scooby_cache_acc_level_1 235
scooby_cache_acc_level_2 635
scooby_cache_acc_level_3 1269
scooby_cache_acc_level_4 1793
scooby_cache_acc_level_5 3068
scooby_cache_acc_level_6 6150
scooby_cache_acc_level_7 8787
scooby_cache_acc_level_8 9515
scooby_cache_acc_level_9 47104

Channel_0_RQ_row_buffer_hit 244199
Channel_0_RQ_row_buffer_miss 1203777
Channel_0_WQ_row_buffer_hit 198933
Channel_0_WQ_row_buffer_miss 878678
Channel_0_WQ_full 0
Channel_0_dbus_congested 1838181

avg_congested_cycle 11

DRAM_bw_pochs 323319
DRAM_bw_level_0 63610
DRAM_bw_level_1 126594
DRAM_bw_level_2 101142
DRAM_bw_level_3 31973
