*************************************************
   ChampSim Multicore Out-of-Order Simulator
   Last compiled: Apr  3 2025 20:54:34
*************************************************
parsing config file: /home/zir/Pythia/config/nopref.ini

trace_0 /home/zir/ChampSim/ML-DPC/ChampSimTraces/spec06/473.astar-s0.trace.gz
adding L2C_PREFETCHER: NONE
Initialize SHIP state
warmup_instructions 10000000
simulation_instructions 50000000
champsim_seed 163
measure_ipc 0
measure_ipc_epoch 1000
measure_dram_bw 1
measure_dram_bw_epoch 256
measure_cache_acc 1
measure_cache_acc_epoch 1024
l1d_perfect 0
l2c_perfect 0
llc_perfect 0
l1d_semi_perfect 0
l2c_semi_perfect 0
llc_semi_perfect 0
semi_perfect_cache_page_buffer_size 64

num_cpus 1
cpu_freq 4000
dram_io_freq 2400
page_size 4096
block_size 64
max_read_per_cycle 8
max_fill_per_cycle 1
dram_channels 1
log2_dram_channels 0
dram_ranks 1
dram_banks 8
dram_rows 65536
dram_columns 128
dram_row_size 8
dram_size 4096
dram_pages 1048576

fetch_width 6
decode_width 6
exec_width 4
lq_width 2
sq_width 2
retire_width 4
scheduler_size 128
branch_mispredict_penalty 20
rob_size 256
lq_size 72
sq_size 56
num_instr_destinations_sparc 4
num_instr_destinations 2
num_instr_sources 4

itlb_set 16
itlb_way 8
itlb_rq_size 16
itlb_wq_size 16
itlb_pq_size 0
itlb_mshr_size 8
itlb_latency 1

dtlb_set 16
dtlb_way 4
dtlb_rq_size 16
dtlb_wq_size 16
dtlb_pq_size 0
dtlb_mshr_size 8
dtlb_latency 1

stlb_set 128
stlb_way 12
stlb_rq_size 32
stlb_wq_size 32
stlb_pq_size 0
stlb_mshr_size 16
stlb_latency 8

l1i_size 32
l1i_set 64
l1i_way 8
l1i_rq_size 64
l1i_wq_size 64
l1i_pq_size 8
l1i_mshr_size 8
l1i_latency 1

l1d_size 32
l1d_set 64
l1d_way 8
l1d_rq_size 64
l1d_wq_size 64
l1d_pq_size 8
l1d_mshr_size 16
l1d_latency 4

l2c_size 256
l2c_set 512
l2c_way 8
l2c_rq_size 32
l2c_wq_size 32
l2c_pq_size 32
l2c_mshr_size 32
l2c_latency 10

llc_size 2048
llc_set 2048
llc_way 16
llc_rq_size 32
llc_wq_size 32
llc_pq_size 32
llc_mshr_size 64
llc_latency 20

dram_channel_width 8
dram_wq_size 64
dram_rq_size 64
tRP 15
tRCD 15
tCAS 12.5
dram_dbus_turn_around_time 30
dram_write_high_wm 56
dram_write_low_wm 48
min_dram_writes_per_switch 16
dram_mtps 2400
dram_dbus_return_time 13


Heartbeat CPU  0 instructions:    1000002 cycles:     682328 heartbeat IPC: 1.46557 cumulative IPC: 1.46557 (Simulation time: 0 hr 0 min 2 sec) 
Heartbeat CPU  0 instructions:    2000003 cycles:    1356998 heartbeat IPC: 1.48221 cumulative IPC: 1.47384 (Simulation time: 0 hr 0 min 3 sec) 
Heartbeat CPU  0 instructions:    3000003 cycles:    2014457 heartbeat IPC: 1.52101 cumulative IPC: 1.48924 (Simulation time: 0 hr 0 min 7 sec) 
Heartbeat CPU  0 instructions:    4000000 cycles:    2669037 heartbeat IPC: 1.52769 cumulative IPC: 1.49867 (Simulation time: 0 hr 0 min 8 sec) 
Heartbeat CPU  0 instructions:    5000000 cycles:    3316413 heartbeat IPC: 1.54470 cumulative IPC: 1.50765 (Simulation time: 0 hr 0 min 9 sec) 
Heartbeat CPU  0 instructions:    6000003 cycles:    3939839 heartbeat IPC: 1.60404 cumulative IPC: 1.52291 (Simulation time: 0 hr 0 min 11 sec) 
Heartbeat CPU  0 instructions:    7000001 cycles:    4574680 heartbeat IPC: 1.57519 cumulative IPC: 1.53016 (Simulation time: 0 hr 0 min 12 sec) 
Heartbeat CPU  0 instructions:    8000000 cycles:    5207500 heartbeat IPC: 1.58023 cumulative IPC: 1.53625 (Simulation time: 0 hr 0 min 13 sec) 
Heartbeat CPU  0 instructions:    9000000 cycles:    5850865 heartbeat IPC: 1.55433 cumulative IPC: 1.53823 (Simulation time: 0 hr 0 min 15 sec) 
Heartbeat CPU  0 instructions:   10000000 cycles:    6506026 heartbeat IPC: 1.52634 cumulative IPC: 1.53704 (Simulation time: 0 hr 0 min 16 sec) 

Warmup complete CPU  0 instructions:   10000001 cycles:    6506029 (Simulation time: 0 hr 0 min 16 sec) 

Heartbeat CPU  0 instructions:   11000003 cycles:    8766212 heartbeat IPC: 0.44244 cumulative IPC: 0.44244 (Simulation time: 0 hr 0 min 18 sec) 
Heartbeat CPU  0 instructions:   12000000 cycles:   11054105 heartbeat IPC: 0.43708 cumulative IPC: 0.43975 (Simulation time: 0 hr 0 min 20 sec) 
Heartbeat CPU  0 instructions:   13000000 cycles:   13336419 heartbeat IPC: 0.43815 cumulative IPC: 0.43921 (Simulation time: 0 hr 0 min 22 sec) 
Heartbeat CPU  0 instructions:   14000000 cycles:   15648300 heartbeat IPC: 0.43255 cumulative IPC: 0.43753 (Simulation time: 0 hr 0 min 24 sec) 
Heartbeat CPU  0 instructions:   15000000 cycles:   18004176 heartbeat IPC: 0.42447 cumulative IPC: 0.43485 (Simulation time: 0 hr 0 min 26 sec) 
Heartbeat CPU  0 instructions:   16000000 cycles:   20419994 heartbeat IPC: 0.41394 cumulative IPC: 0.43122 (Simulation time: 0 hr 0 min 28 sec) 
Heartbeat CPU  0 instructions:   17000003 cycles:   22775223 heartbeat IPC: 0.42459 cumulative IPC: 0.43026 (Simulation time: 0 hr 0 min 30 sec) 
Heartbeat CPU  0 instructions:   18000002 cycles:   25106971 heartbeat IPC: 0.42886 cumulative IPC: 0.43009 (Simulation time: 0 hr 0 min 32 sec) 
Heartbeat CPU  0 instructions:   19000000 cycles:   27432160 heartbeat IPC: 0.43007 cumulative IPC: 0.43008 (Simulation time: 0 hr 0 min 34 sec) 
Heartbeat CPU  0 instructions:   20000000 cycles:   29774970 heartbeat IPC: 0.42684 cumulative IPC: 0.42976 (Simulation time: 0 hr 0 min 36 sec) 
Heartbeat CPU  0 instructions:   21000003 cycles:   32166583 heartbeat IPC: 0.41813 cumulative IPC: 0.42867 (Simulation time: 0 hr 0 min 38 sec) 
Heartbeat CPU  0 instructions:   22000002 cycles:   34691178 heartbeat IPC: 0.39610 cumulative IPC: 0.42576 (Simulation time: 0 hr 0 min 40 sec) 
Heartbeat CPU  0 instructions:   23000001 cycles:   37188962 heartbeat IPC: 0.40035 cumulative IPC: 0.42369 (Simulation time: 0 hr 0 min 42 sec) 
Heartbeat CPU  0 instructions:   24000000 cycles:   39707332 heartbeat IPC: 0.39708 cumulative IPC: 0.42167 (Simulation time: 0 hr 0 min 44 sec) 
Heartbeat CPU  0 instructions:   25000003 cycles:   41940883 heartbeat IPC: 0.44772 cumulative IPC: 0.42331 (Simulation time: 0 hr 0 min 46 sec) 
Heartbeat CPU  0 instructions:   26000003 cycles:   43639184 heartbeat IPC: 0.58882 cumulative IPC: 0.43088 (Simulation time: 0 hr 0 min 47 sec) 
Heartbeat CPU  0 instructions:   27000000 cycles:   45400140 heartbeat IPC: 0.56787 cumulative IPC: 0.43708 (Simulation time: 0 hr 0 min 49 sec) 
Heartbeat CPU  0 instructions:   28000000 cycles:   47269723 heartbeat IPC: 0.53488 cumulative IPC: 0.44157 (Simulation time: 0 hr 0 min 51 sec) 
Heartbeat CPU  0 instructions:   29000000 cycles:   49085151 heartbeat IPC: 0.55083 cumulative IPC: 0.44623 (Simulation time: 0 hr 0 min 53 sec) 
Heartbeat CPU  0 instructions:   30000000 cycles:   50937556 heartbeat IPC: 0.53984 cumulative IPC: 0.45013 (Simulation time: 0 hr 0 min 55 sec) 
Heartbeat CPU  0 instructions:   31000002 cycles:   52769362 heartbeat IPC: 0.54591 cumulative IPC: 0.45392 (Simulation time: 0 hr 0 min 57 sec) 
Heartbeat CPU  0 instructions:   32000000 cycles:   54596444 heartbeat IPC: 0.54732 cumulative IPC: 0.45747 (Simulation time: 0 hr 0 min 59 sec) 
Heartbeat CPU  0 instructions:   33000000 cycles:   56452354 heartbeat IPC: 0.53882 cumulative IPC: 0.46049 (Simulation time: 0 hr 1 min 1 sec) 
Heartbeat CPU  0 instructions:   34000001 cycles:   58265320 heartbeat IPC: 0.55158 cumulative IPC: 0.46368 (Simulation time: 0 hr 1 min 3 sec) 
Heartbeat CPU  0 instructions:   35000000 cycles:   60093579 heartbeat IPC: 0.54697 cumulative IPC: 0.46653 (Simulation time: 0 hr 1 min 5 sec) 
Heartbeat CPU  0 instructions:   36000000 cycles:   61852783 heartbeat IPC: 0.56844 cumulative IPC: 0.46977 (Simulation time: 0 hr 1 min 8 sec) 
Heartbeat CPU  0 instructions:   37000001 cycles:   63686230 heartbeat IPC: 0.54542 cumulative IPC: 0.47219 (Simulation time: 0 hr 1 min 10 sec) 
Heartbeat CPU  0 instructions:   38000000 cycles:   65543519 heartbeat IPC: 0.53842 cumulative IPC: 0.47427 (Simulation time: 0 hr 1 min 12 sec) 
Heartbeat CPU  0 instructions:   39000001 cycles:   67350415 heartbeat IPC: 0.55344 cumulative IPC: 0.47663 (Simulation time: 0 hr 1 min 14 sec) 
Heartbeat CPU  0 instructions:   40000000 cycles:   69196177 heartbeat IPC: 0.54178 cumulative IPC: 0.47854 (Simulation time: 0 hr 1 min 16 sec) 
Heartbeat CPU  0 instructions:   41000001 cycles:   70978239 heartbeat IPC: 0.56115 cumulative IPC: 0.48083 (Simulation time: 0 hr 1 min 18 sec) 
Heartbeat CPU  0 instructions:   42000001 cycles:   72858791 heartbeat IPC: 0.53176 cumulative IPC: 0.48227 (Simulation time: 0 hr 1 min 20 sec) 
Heartbeat CPU  0 instructions:   43000001 cycles:   74788519 heartbeat IPC: 0.51821 cumulative IPC: 0.48329 (Simulation time: 0 hr 1 min 22 sec) 
Heartbeat CPU  0 instructions:   44000000 cycles:   76733015 heartbeat IPC: 0.51427 cumulative IPC: 0.48414 (Simulation time: 0 hr 1 min 23 sec) 
Heartbeat CPU  0 instructions:   45000000 cycles:   78733590 heartbeat IPC: 0.49986 cumulative IPC: 0.48458 (Simulation time: 0 hr 1 min 25 sec) 
Heartbeat CPU  0 instructions:   46000002 cycles:   80606589 heartbeat IPC: 0.53390 cumulative IPC: 0.48583 (Simulation time: 0 hr 1 min 27 sec) 
Heartbeat CPU  0 instructions:   47000000 cycles:   82490272 heartbeat IPC: 0.53087 cumulative IPC: 0.48694 (Simulation time: 0 hr 1 min 29 sec) 
Heartbeat CPU  0 instructions:   48000000 cycles:   84381812 heartbeat IPC: 0.52867 cumulative IPC: 0.48796 (Simulation time: 0 hr 1 min 31 sec) 
Heartbeat CPU  0 instructions:   49000003 cycles:   86257743 heartbeat IPC: 0.53307 cumulative IPC: 0.48902 (Simulation time: 0 hr 1 min 33 sec) 
Heartbeat CPU  0 instructions:   50000001 cycles:   88092895 heartbeat IPC: 0.54491 cumulative IPC: 0.49027 (Simulation time: 0 hr 1 min 35 sec) 
Heartbeat CPU  0 instructions:   51000001 cycles:   89931682 heartbeat IPC: 0.54384 cumulative IPC: 0.49146 (Simulation time: 0 hr 1 min 37 sec) 
Heartbeat CPU  0 instructions:   52000000 cycles:   91878569 heartbeat IPC: 0.51364 cumulative IPC: 0.49196 (Simulation time: 0 hr 1 min 39 sec) 
Heartbeat CPU  0 instructions:   53000001 cycles:   93790224 heartbeat IPC: 0.52311 cumulative IPC: 0.49264 (Simulation time: 0 hr 1 min 41 sec) 
Heartbeat CPU  0 instructions:   54000003 cycles:   95641868 heartbeat IPC: 0.54006 cumulative IPC: 0.49363 (Simulation time: 0 hr 1 min 43 sec) 
Heartbeat CPU  0 instructions:   55000003 cycles:   97443111 heartbeat IPC: 0.55517 cumulative IPC: 0.49485 (Simulation time: 0 hr 1 min 45 sec) 
Heartbeat CPU  0 instructions:   56000000 cycles:   99261945 heartbeat IPC: 0.54980 cumulative IPC: 0.49593 (Simulation time: 0 hr 1 min 47 sec) 
Heartbeat CPU  0 instructions:   57000000 cycles:  101055552 heartbeat IPC: 0.55754 cumulative IPC: 0.49709 (Simulation time: 0 hr 1 min 50 sec) 
Heartbeat CPU  0 instructions:   58000003 cycles:  102896385 heartbeat IPC: 0.54323 cumulative IPC: 0.49798 (Simulation time: 0 hr 1 min 52 sec) 
Heartbeat CPU  0 instructions:   59000003 cycles:  104720144 heartbeat IPC: 0.54832 cumulative IPC: 0.49891 (Simulation time: 0 hr 1 min 54 sec) 
Heartbeat CPU  0 instructions:   60000000 cycles:  106556086 heartbeat IPC: 0.54468 cumulative IPC: 0.49975 (Simulation time: 0 hr 1 min 56 sec) 
Finished CPU 0 instructions: 50000002 cycles: 100050066 cumulative IPC: 0.49975 (Simulation time: 0 hr 1 min 56 sec) 

ChampSim completed all CPUs

[ROI Statistics]
Core_0_instructions 50000002
Core_0_cycles 100050066
Core_0_IPC 0.49975

Core_0_branch_prediction_accuracy 96.99000
Core_0_branch_MPKI 3.91610
Core_0_average_ROB_occupancy_at_mispredict 120.45744

Core_0_L1D_total_access 14450449
Core_0_L1D_total_hit 14192524
Core_0_L1D_total_miss 257925
Core_0_L1D_loads 9375011
Core_0_L1D_load_hit 9161554
Core_0_L1D_load_miss 213457
Core_0_L1D_RFOs 5075438
Core_0_L1D_RFO_hit 5030970
Core_0_L1D_RFO_miss 44468
Core_0_L1D_prefetches 0
Core_0_L1D_prefetch_hit 0
Core_0_L1D_prefetch_miss 0
Core_0_L1D_writebacks 0
Core_0_L1D_writeback_hit 0
Core_0_L1D_writeback_miss 0
Core_0_L1D_prefetch_requested 0
Core_0_L1D_prefetch_dropped 0
Core_0_L1D_prefetch_issued 0
Core_0_L1D_prefetch_filled 0
Core_0_L1D_prefetch_useful 0
Core_0_L1D_prefetch_useless 0
Core_0_L1D_prefetch_late 0
Core_0_L1D_average_miss_latency 74.63718

Core_0_L1D_rq_access 12407606
Core_0_L1D_rq_forward 0
Core_0_L1D_rq_merged 2999917
Core_0_L1D_rq_to_cache 9407689
Core_0_L1D_rq_full 0

Core_0_L1D_wq_access 5183844
Core_0_L1D_wq_forward 0
Core_0_L1D_wq_merged 4
Core_0_L1D_wq_to_cache 5183840
Core_0_L1D_wq_full 0

Core_0_L1D_pq_access 0
Core_0_L1D_pq_forward 0
Core_0_L1D_pq_merged 0
Core_0_L1D_pq_to_cache 0
Core_0_L1D_pq_full 0

Core_0_L1D_acc_epochs 102671
Core_0_L1D_acc_level_0 102671
Core_0_L1D_acc_level_1 0
Core_0_L1D_acc_level_2 0
Core_0_L1D_acc_level_3 0
Core_0_L1D_acc_level_4 0
Core_0_L1D_acc_level_5 0
Core_0_L1D_acc_level_6 0
Core_0_L1D_acc_level_7 0
Core_0_L1D_acc_level_8 0
Core_0_L1D_acc_level_9 0

Core_0_L1I_total_access 13198710
Core_0_L1I_total_hit 13198624
Core_0_L1I_total_miss 86
Core_0_L1I_loads 13198710
Core_0_L1I_load_hit 13198624
Core_0_L1I_load_miss 86
Core_0_L1I_RFOs 0
Core_0_L1I_RFO_hit 0
Core_0_L1I_RFO_miss 0
Core_0_L1I_prefetches 0
Core_0_L1I_prefetch_hit 0
Core_0_L1I_prefetch_miss 0
Core_0_L1I_writebacks 0
Core_0_L1I_writeback_hit 0
Core_0_L1I_writeback_miss 0
Core_0_L1I_prefetch_requested 0
Core_0_L1I_prefetch_dropped 0
Core_0_L1I_prefetch_issued 0
Core_0_L1I_prefetch_filled 0
Core_0_L1I_prefetch_useful 0
Core_0_L1I_prefetch_useless 0
Core_0_L1I_prefetch_late 0
Core_0_L1I_average_miss_latency 240.36047

Core_0_L1I_rq_access 50000126
Core_0_L1I_rq_forward 0
Core_0_L1I_rq_merged 36801394
Core_0_L1I_rq_to_cache 13198732
Core_0_L1I_rq_full 0

Core_0_L1I_wq_access 0
Core_0_L1I_wq_forward 0
Core_0_L1I_wq_merged 0
Core_0_L1I_wq_to_cache 0
Core_0_L1I_wq_full 0

Core_0_L1I_pq_access 0
Core_0_L1I_pq_forward 0
Core_0_L1I_pq_merged 0
Core_0_L1I_pq_to_cache 0
Core_0_L1I_pq_full 0

Core_0_L1I_acc_epochs 102671
Core_0_L1I_acc_level_0 102671
Core_0_L1I_acc_level_1 0
Core_0_L1I_acc_level_2 0
Core_0_L1I_acc_level_3 0
Core_0_L1I_acc_level_4 0
Core_0_L1I_acc_level_5 0
Core_0_L1I_acc_level_6 0
Core_0_L1I_acc_level_7 0
Core_0_L1I_acc_level_8 0
Core_0_L1I_acc_level_9 0

Core_0_L2C_total_access 374873
Core_0_L2C_total_hit 262121
Core_0_L2C_total_miss 112752
Core_0_L2C_loads 213537
Core_0_L2C_load_hit 135555
Core_0_L2C_load_miss 77982
Core_0_L2C_RFOs 44468
Core_0_L2C_RFO_hit 9705
Core_0_L2C_RFO_miss 34763
Core_0_L2C_prefetches 0
Core_0_L2C_prefetch_hit 0
Core_0_L2C_prefetch_miss 0
Core_0_L2C_writebacks 116868
Core_0_L2C_writeback_hit 116861
Core_0_L2C_writeback_miss 7
Core_0_L2C_prefetch_requested 0
Core_0_L2C_prefetch_dropped 0
Core_0_L2C_prefetch_issued 0
Core_0_L2C_prefetch_filled 0
Core_0_L2C_prefetch_useful 0
Core_0_L2C_prefetch_useless 0
Core_0_L2C_prefetch_late 0
Core_0_L2C_average_miss_latency 136.66701

Core_0_L2C_rq_access 258011
Core_0_L2C_rq_forward 0
Core_0_L2C_rq_merged 0
Core_0_L2C_rq_to_cache 258005
Core_0_L2C_rq_full 0

Core_0_L2C_wq_access 116868
Core_0_L2C_wq_forward 6
Core_0_L2C_wq_merged 0
Core_0_L2C_wq_to_cache 116868
Core_0_L2C_wq_full 0

Core_0_L2C_pq_access 0
Core_0_L2C_pq_forward 0
Core_0_L2C_pq_merged 0
Core_0_L2C_pq_to_cache 0
Core_0_L2C_pq_full 0

Core_0_L2C_acc_epochs 102671
Core_0_L2C_acc_level_0 102671
Core_0_L2C_acc_level_1 0
Core_0_L2C_acc_level_2 0
Core_0_L2C_acc_level_3 0
Core_0_L2C_acc_level_4 0
Core_0_L2C_acc_level_5 0
Core_0_L2C_acc_level_6 0
Core_0_L2C_acc_level_7 0
Core_0_L2C_acc_level_8 0
Core_0_L2C_acc_level_9 0

Core_0_LLC_total_access 191611
Core_0_LLC_total_hit 92489
Core_0_LLC_total_miss 99122
Core_0_LLC_loads 77982
Core_0_LLC_load_hit 25334
Core_0_LLC_load_miss 52648
Core_0_LLC_RFOs 34763
Core_0_LLC_RFO_hit 18759
Core_0_LLC_RFO_miss 16004
Core_0_LLC_prefetches 0
Core_0_LLC_prefetch_hit 0
Core_0_LLC_prefetch_miss 0
Core_0_LLC_writebacks 78866
Core_0_LLC_writeback_hit 48396
Core_0_LLC_writeback_miss 30470
Core_0_LLC_prefetch_requested 0
Core_0_LLC_prefetch_dropped 0
Core_0_LLC_prefetch_issued 0
Core_0_LLC_prefetch_filled 0
Core_0_LLC_prefetch_useful 0
Core_0_LLC_prefetch_useless 0
Core_0_LLC_prefetch_late 0
Core_0_LLC_average_miss_latency 121.17983

Core_0_LLC_rq_access 112745
Core_0_LLC_rq_forward 0
Core_0_LLC_rq_merged 0
Core_0_LLC_rq_to_cache 112745
Core_0_LLC_rq_full 0

Core_0_LLC_wq_access 78866
Core_0_LLC_wq_forward 0
Core_0_LLC_wq_merged 0
Core_0_LLC_wq_to_cache 78866
Core_0_LLC_wq_full 0

Core_0_LLC_pq_access 0
Core_0_LLC_pq_forward 0
Core_0_LLC_pq_merged 0
Core_0_LLC_pq_to_cache 0
Core_0_LLC_pq_full 0

Core_0_LLC_acc_epochs 104059
Core_0_LLC_acc_level_0 104059
Core_0_LLC_acc_level_1 0
Core_0_LLC_acc_level_2 0
Core_0_LLC_acc_level_3 0
Core_0_LLC_acc_level_4 0
Core_0_LLC_acc_level_5 0
Core_0_LLC_acc_level_6 0
Core_0_LLC_acc_level_7 0
Core_0_LLC_acc_level_8 0
Core_0_LLC_acc_level_9 0

Core_0_major_page_fault 0
Core_0_minor_page_fault 5010

Channel_0_RQ_row_buffer_hit 11263
Channel_0_RQ_row_buffer_miss 57389
Channel_0_WQ_row_buffer_hit 1026
Channel_0_WQ_row_buffer_miss 35313
Channel_0_WQ_full 0
Channel_0_dbus_congested 4687

avg_congested_cycle 9

DRAM_bw_pochs 416235
DRAM_bw_level_0 416208
DRAM_bw_level_1 14
DRAM_bw_level_2 7
DRAM_bw_level_3 6
