*************************************************
   ChampSim Multicore Out-of-Order Simulator
   Last compiled: Apr  3 2025 20:54:34
*************************************************
parsing config file: /home/zir/Pythia/config/spp_dev2.ini

trace_0 /home/zir/ChampSim/ML-DPC/ChampSimTraces/spec17/649.fotonik3d-s0.trace.xz
adding L2C_PREFETCHER: SPP_dev2
Initialize SIGNATURE TABLE
ST_SET: 1
ST_WAY: 256
ST_TAG_BIT: 16
ST_TAG_MASK: ffff

Initialize PATTERN TABLE
PT_SET: 512
PT_WAY: 4
SIG_DELTA_BIT: 7
C_SIG_BIT: 4
C_DELTA_BIT: 4

Initialize PREFETCH FILTER
FILTER_SET: 1024
fill_threshold: 90
pf_threshold: 40

Initialize SHIP state
warmup_instructions 10000000
simulation_instructions 50000000
champsim_seed 163
measure_ipc 0
measure_ipc_epoch 1000
measure_dram_bw 1
measure_dram_bw_epoch 256
measure_cache_acc 1
measure_cache_acc_epoch 1024
l1d_perfect 0
l2c_perfect 0
llc_perfect 0
l1d_semi_perfect 0
l2c_semi_perfect 0
llc_semi_perfect 0
semi_perfect_cache_page_buffer_size 64

num_cpus 1
cpu_freq 4000
dram_io_freq 2400
page_size 4096
block_size 64
max_read_per_cycle 8
max_fill_per_cycle 1
dram_channels 1
log2_dram_channels 0
dram_ranks 1
dram_banks 8
dram_rows 65536
dram_columns 128
dram_row_size 8
dram_size 4096
dram_pages 1048576

fetch_width 6
decode_width 6
exec_width 4
lq_width 2
sq_width 2
retire_width 4
scheduler_size 128
branch_mispredict_penalty 20
rob_size 256
lq_size 72
sq_size 56
num_instr_destinations_sparc 4
num_instr_destinations 2
num_instr_sources 4

itlb_set 16
itlb_way 8
itlb_rq_size 16
itlb_wq_size 16
itlb_pq_size 0
itlb_mshr_size 8
itlb_latency 1

dtlb_set 16
dtlb_way 4
dtlb_rq_size 16
dtlb_wq_size 16
dtlb_pq_size 0
dtlb_mshr_size 8
dtlb_latency 1

stlb_set 128
stlb_way 12
stlb_rq_size 32
stlb_wq_size 32
stlb_pq_size 0
stlb_mshr_size 16
stlb_latency 8

l1i_size 32
l1i_set 64
l1i_way 8
l1i_rq_size 64
l1i_wq_size 64
l1i_pq_size 8
l1i_mshr_size 8
l1i_latency 1

l1d_size 32
l1d_set 64
l1d_way 8
l1d_rq_size 64
l1d_wq_size 64
l1d_pq_size 8
l1d_mshr_size 16
l1d_latency 4

l2c_size 256
l2c_set 512
l2c_way 8
l2c_rq_size 32
l2c_wq_size 32
l2c_pq_size 32
l2c_mshr_size 32
l2c_latency 10

llc_size 2048
llc_set 2048
llc_way 16
llc_rq_size 32
llc_wq_size 32
llc_pq_size 32
llc_mshr_size 64
llc_latency 20

dram_channel_width 8
dram_wq_size 64
dram_rq_size 64
tRP 15
tRCD 15
tCAS 12.5
dram_dbus_turn_around_time 30
dram_write_high_wm 56
dram_write_low_wm 48
min_dram_writes_per_switch 16
dram_mtps 2400
dram_dbus_return_time 13


Heartbeat CPU  0 instructions:    1000000 cycles:     838087 heartbeat IPC: 1.19319 cumulative IPC: 1.19319 (Simulation time: 0 hr 0 min 2 sec) 
Heartbeat CPU  0 instructions:    2000003 cycles:    1671166 heartbeat IPC: 1.20037 cumulative IPC: 1.19677 (Simulation time: 0 hr 0 min 4 sec) 
Heartbeat CPU  0 instructions:    3000002 cycles:    2501970 heartbeat IPC: 1.20365 cumulative IPC: 1.19906 (Simulation time: 0 hr 0 min 7 sec) 
Heartbeat CPU  0 instructions:    4000000 cycles:    3348468 heartbeat IPC: 1.18134 cumulative IPC: 1.19458 (Simulation time: 0 hr 0 min 9 sec) 
Heartbeat CPU  0 instructions:    5000001 cycles:    4171955 heartbeat IPC: 1.21435 cumulative IPC: 1.19848 (Simulation time: 0 hr 0 min 11 sec) 
Heartbeat CPU  0 instructions:    6000002 cycles:    5006502 heartbeat IPC: 1.19826 cumulative IPC: 1.19844 (Simulation time: 0 hr 0 min 13 sec) 
Heartbeat CPU  0 instructions:    7000001 cycles:    5849535 heartbeat IPC: 1.18619 cumulative IPC: 1.19668 (Simulation time: 0 hr 0 min 16 sec) 
Heartbeat CPU  0 instructions:    8000000 cycles:    6688148 heartbeat IPC: 1.19244 cumulative IPC: 1.19615 (Simulation time: 0 hr 0 min 18 sec) 
Heartbeat CPU  0 instructions:    9000001 cycles:    7519565 heartbeat IPC: 1.20277 cumulative IPC: 1.19688 (Simulation time: 0 hr 0 min 20 sec) 
Heartbeat CPU  0 instructions:   10000001 cycles:    8368377 heartbeat IPC: 1.17812 cumulative IPC: 1.19498 (Simulation time: 0 hr 0 min 23 sec) 

Warmup complete CPU  0 instructions:   10000001 cycles:    8368377 (Simulation time: 0 hr 0 min 23 sec) 

Heartbeat CPU  0 instructions:   11000000 cycles:   10242429 heartbeat IPC: 0.53360 cumulative IPC: 0.53360 (Simulation time: 0 hr 0 min 26 sec) 
Heartbeat CPU  0 instructions:   12000000 cycles:   12110810 heartbeat IPC: 0.53522 cumulative IPC: 0.53441 (Simulation time: 0 hr 0 min 28 sec) 
Heartbeat CPU  0 instructions:   13000000 cycles:   13987415 heartbeat IPC: 0.53288 cumulative IPC: 0.53390 (Simulation time: 0 hr 0 min 31 sec) 
Heartbeat CPU  0 instructions:   14000003 cycles:   15862416 heartbeat IPC: 0.53333 cumulative IPC: 0.53376 (Simulation time: 0 hr 0 min 34 sec) 
Heartbeat CPU  0 instructions:   15000001 cycles:   17718719 heartbeat IPC: 0.53870 cumulative IPC: 0.53474 (Simulation time: 0 hr 0 min 37 sec) 
Heartbeat CPU  0 instructions:   16000000 cycles:   19598280 heartbeat IPC: 0.53204 cumulative IPC: 0.53429 (Simulation time: 0 hr 0 min 40 sec) 
Heartbeat CPU  0 instructions:   17000001 cycles:   21463250 heartbeat IPC: 0.53620 cumulative IPC: 0.53456 (Simulation time: 0 hr 0 min 43 sec) 
Heartbeat CPU  0 instructions:   18000000 cycles:   23340377 heartbeat IPC: 0.53273 cumulative IPC: 0.53433 (Simulation time: 0 hr 0 min 45 sec) 
Heartbeat CPU  0 instructions:   19000001 cycles:   25216386 heartbeat IPC: 0.53305 cumulative IPC: 0.53419 (Simulation time: 0 hr 0 min 48 sec) 
Heartbeat CPU  0 instructions:   20000000 cycles:   27077814 heartbeat IPC: 0.53722 cumulative IPC: 0.53449 (Simulation time: 0 hr 0 min 51 sec) 
Heartbeat CPU  0 instructions:   21000002 cycles:   28952590 heartbeat IPC: 0.53340 cumulative IPC: 0.53439 (Simulation time: 0 hr 0 min 54 sec) 
Heartbeat CPU  0 instructions:   22000001 cycles:   30836525 heartbeat IPC: 0.53080 cumulative IPC: 0.53409 (Simulation time: 0 hr 0 min 57 sec) 
Heartbeat CPU  0 instructions:   23000002 cycles:   32680734 heartbeat IPC: 0.54224 cumulative IPC: 0.53471 (Simulation time: 0 hr 0 min 59 sec) 
Heartbeat CPU  0 instructions:   24000000 cycles:   34556214 heartbeat IPC: 0.53320 cumulative IPC: 0.53460 (Simulation time: 0 hr 1 min 2 sec) 
Heartbeat CPU  0 instructions:   25000000 cycles:   36433110 heartbeat IPC: 0.53279 cumulative IPC: 0.53448 (Simulation time: 0 hr 1 min 5 sec) 
Heartbeat CPU  0 instructions:   26000003 cycles:   38297354 heartbeat IPC: 0.53641 cumulative IPC: 0.53460 (Simulation time: 0 hr 1 min 8 sec) 
Heartbeat CPU  0 instructions:   27000000 cycles:   40162696 heartbeat IPC: 0.53609 cumulative IPC: 0.53469 (Simulation time: 0 hr 1 min 11 sec) 
Heartbeat CPU  0 instructions:   28000000 cycles:   42053104 heartbeat IPC: 0.52899 cumulative IPC: 0.53437 (Simulation time: 0 hr 1 min 14 sec) 
Heartbeat CPU  0 instructions:   29000001 cycles:   43922085 heartbeat IPC: 0.53505 cumulative IPC: 0.53440 (Simulation time: 0 hr 1 min 16 sec) 
Heartbeat CPU  0 instructions:   30000000 cycles:   45783346 heartbeat IPC: 0.53727 cumulative IPC: 0.53455 (Simulation time: 0 hr 1 min 19 sec) 
Heartbeat CPU  0 instructions:   31000001 cycles:   47667375 heartbeat IPC: 0.53078 cumulative IPC: 0.53436 (Simulation time: 0 hr 1 min 22 sec) 
Heartbeat CPU  0 instructions:   32000000 cycles:   49544641 heartbeat IPC: 0.53269 cumulative IPC: 0.53429 (Simulation time: 0 hr 1 min 25 sec) 
Heartbeat CPU  0 instructions:   33000002 cycles:   51414652 heartbeat IPC: 0.53476 cumulative IPC: 0.53431 (Simulation time: 0 hr 1 min 28 sec) 
Heartbeat CPU  0 instructions:   34000001 cycles:   53299956 heartbeat IPC: 0.53042 cumulative IPC: 0.53415 (Simulation time: 0 hr 1 min 31 sec) 
Heartbeat CPU  0 instructions:   35000003 cycles:   55184164 heartbeat IPC: 0.53073 cumulative IPC: 0.53401 (Simulation time: 0 hr 1 min 33 sec) 
Heartbeat CPU  0 instructions:   36000000 cycles:   57078788 heartbeat IPC: 0.52781 cumulative IPC: 0.53377 (Simulation time: 0 hr 1 min 36 sec) 
Heartbeat CPU  0 instructions:   37000002 cycles:   58968056 heartbeat IPC: 0.52931 cumulative IPC: 0.53360 (Simulation time: 0 hr 1 min 39 sec) 
Heartbeat CPU  0 instructions:   38000001 cycles:   60847245 heartbeat IPC: 0.53214 cumulative IPC: 0.53355 (Simulation time: 0 hr 1 min 42 sec) 
Heartbeat CPU  0 instructions:   39000003 cycles:   62749183 heartbeat IPC: 0.52578 cumulative IPC: 0.53328 (Simulation time: 0 hr 1 min 45 sec) 
Heartbeat CPU  0 instructions:   40000000 cycles:   64615350 heartbeat IPC: 0.53586 cumulative IPC: 0.53336 (Simulation time: 0 hr 1 min 48 sec) 
Heartbeat CPU  0 instructions:   41000000 cycles:   66510471 heartbeat IPC: 0.52767 cumulative IPC: 0.53318 (Simulation time: 0 hr 1 min 50 sec) 
Heartbeat CPU  0 instructions:   42000002 cycles:   68424177 heartbeat IPC: 0.52255 cumulative IPC: 0.53284 (Simulation time: 0 hr 1 min 53 sec) 
Heartbeat CPU  0 instructions:   43000002 cycles:   70319484 heartbeat IPC: 0.52762 cumulative IPC: 0.53268 (Simulation time: 0 hr 1 min 56 sec) 
Heartbeat CPU  0 instructions:   44000000 cycles:   72184693 heartbeat IPC: 0.53613 cumulative IPC: 0.53278 (Simulation time: 0 hr 1 min 59 sec) 
Heartbeat CPU  0 instructions:   45000000 cycles:   74086632 heartbeat IPC: 0.52578 cumulative IPC: 0.53258 (Simulation time: 0 hr 2 min 2 sec) 
Heartbeat CPU  0 instructions:   46000003 cycles:   75975772 heartbeat IPC: 0.52934 cumulative IPC: 0.53249 (Simulation time: 0 hr 2 min 4 sec) 
Heartbeat CPU  0 instructions:   47000002 cycles:   77853525 heartbeat IPC: 0.53255 cumulative IPC: 0.53249 (Simulation time: 0 hr 2 min 7 sec) 
Heartbeat CPU  0 instructions:   48000000 cycles:   79748259 heartbeat IPC: 0.52778 cumulative IPC: 0.53236 (Simulation time: 0 hr 2 min 10 sec) 
Heartbeat CPU  0 instructions:   49000002 cycles:   81654926 heartbeat IPC: 0.52448 cumulative IPC: 0.53216 (Simulation time: 0 hr 2 min 13 sec) 
Heartbeat CPU  0 instructions:   50000001 cycles:   83522937 heartbeat IPC: 0.53533 cumulative IPC: 0.53224 (Simulation time: 0 hr 2 min 16 sec) 
Heartbeat CPU  0 instructions:   51000001 cycles:   85416987 heartbeat IPC: 0.52797 cumulative IPC: 0.53213 (Simulation time: 0 hr 2 min 19 sec) 
Heartbeat CPU  0 instructions:   52000000 cycles:   87304597 heartbeat IPC: 0.52977 cumulative IPC: 0.53208 (Simulation time: 0 hr 2 min 21 sec) 
Heartbeat CPU  0 instructions:   53000003 cycles:   89187446 heartbeat IPC: 0.53111 cumulative IPC: 0.53205 (Simulation time: 0 hr 2 min 24 sec) 
Heartbeat CPU  0 instructions:   54000000 cycles:   91074818 heartbeat IPC: 0.52984 cumulative IPC: 0.53200 (Simulation time: 0 hr 2 min 27 sec) 
Heartbeat CPU  0 instructions:   55000003 cycles:   92967703 heartbeat IPC: 0.52830 cumulative IPC: 0.53192 (Simulation time: 0 hr 2 min 30 sec) 
Heartbeat CPU  0 instructions:   56000000 cycles:   94861256 heartbeat IPC: 0.52811 cumulative IPC: 0.53184 (Simulation time: 0 hr 2 min 33 sec) 
Heartbeat CPU  0 instructions:   57000000 cycles:   96743170 heartbeat IPC: 0.53137 cumulative IPC: 0.53183 (Simulation time: 0 hr 2 min 35 sec) 
Heartbeat CPU  0 instructions:   58000001 cycles:   98630012 heartbeat IPC: 0.52999 cumulative IPC: 0.53179 (Simulation time: 0 hr 2 min 38 sec) 
Heartbeat CPU  0 instructions:   59000000 cycles:  100510912 heartbeat IPC: 0.53166 cumulative IPC: 0.53178 (Simulation time: 0 hr 2 min 41 sec) 
Heartbeat CPU  0 instructions:   60000000 cycles:  102389680 heartbeat IPC: 0.53226 cumulative IPC: 0.53179 (Simulation time: 0 hr 2 min 44 sec) 
Finished CPU 0 instructions: 50000000 cycles: 94021336 cumulative IPC: 0.53179 (Simulation time: 0 hr 2 min 44 sec) 

ChampSim completed all CPUs

[ROI Statistics]
Core_0_instructions 50000000
Core_0_cycles 94021336
Core_0_IPC 0.53179

Core_0_branch_prediction_accuracy 99.99301
Core_0_branch_MPKI 0.00084
Core_0_average_ROB_occupancy_at_mispredict 253.57143

Core_0_L1D_total_access 26780787
Core_0_L1D_total_hit 25818767
Core_0_L1D_total_miss 962020
Core_0_L1D_loads 23575127
Core_0_L1D_load_hit 22613107
Core_0_L1D_load_miss 962020
Core_0_L1D_RFOs 3205660
Core_0_L1D_RFO_hit 3205660
Core_0_L1D_RFO_miss 0
Core_0_L1D_prefetches 0
Core_0_L1D_prefetch_hit 0
Core_0_L1D_prefetch_miss 0
Core_0_L1D_writebacks 0
Core_0_L1D_writeback_hit 0
Core_0_L1D_writeback_miss 0
Core_0_L1D_prefetch_requested 0
Core_0_L1D_prefetch_dropped 0
Core_0_L1D_prefetch_issued 0
Core_0_L1D_prefetch_filled 0
Core_0_L1D_prefetch_useful 0
Core_0_L1D_prefetch_useless 0
Core_0_L1D_prefetch_late 0
Core_0_L1D_average_miss_latency 99.81764

Core_0_L1D_rq_access 31895830
Core_0_L1D_rq_forward 0
Core_0_L1D_rq_merged 8151719
Core_0_L1D_rq_to_cache 23744111
Core_0_L1D_rq_full 0

Core_0_L1D_wq_access 3205660
Core_0_L1D_wq_forward 0
Core_0_L1D_wq_merged 0
Core_0_L1D_wq_to_cache 3205660
Core_0_L1D_wq_full 0

Core_0_L1D_pq_access 0
Core_0_L1D_pq_forward 0
Core_0_L1D_pq_merged 0
Core_0_L1D_pq_to_cache 0
Core_0_L1D_pq_full 0

Core_0_L1D_acc_epochs 83576
Core_0_L1D_acc_level_0 83576
Core_0_L1D_acc_level_1 0
Core_0_L1D_acc_level_2 0
Core_0_L1D_acc_level_3 0
Core_0_L1D_acc_level_4 0
Core_0_L1D_acc_level_5 0
Core_0_L1D_acc_level_6 0
Core_0_L1D_acc_level_7 0
Core_0_L1D_acc_level_8 0
Core_0_L1D_acc_level_9 0

Core_0_L1I_total_access 14582673
Core_0_L1I_total_hit 14582673
Core_0_L1I_total_miss 0
Core_0_L1I_loads 14582673
Core_0_L1I_load_hit 14582673
Core_0_L1I_load_miss 0
Core_0_L1I_RFOs 0
Core_0_L1I_RFO_hit 0
Core_0_L1I_RFO_miss 0
Core_0_L1I_prefetches 0
Core_0_L1I_prefetch_hit 0
Core_0_L1I_prefetch_miss 0
Core_0_L1I_writebacks 0
Core_0_L1I_writeback_hit 0
Core_0_L1I_writeback_miss 0
Core_0_L1I_prefetch_requested 0
Core_0_L1I_prefetch_dropped 0
Core_0_L1I_prefetch_issued 0
Core_0_L1I_prefetch_filled 0
Core_0_L1I_prefetch_useful 0
Core_0_L1I_prefetch_useless 0
Core_0_L1I_prefetch_late 0
Core_0_L1I_average_miss_latency -nan

Core_0_L1I_rq_access 50000007
Core_0_L1I_rq_forward 0
Core_0_L1I_rq_merged 35417334
Core_0_L1I_rq_to_cache 14582673
Core_0_L1I_rq_full 0

Core_0_L1I_wq_access 0
Core_0_L1I_wq_forward 0
Core_0_L1I_wq_merged 0
Core_0_L1I_wq_to_cache 0
Core_0_L1I_wq_full 0

Core_0_L1I_pq_access 0
Core_0_L1I_pq_forward 0
Core_0_L1I_pq_merged 0
Core_0_L1I_pq_to_cache 0
Core_0_L1I_pq_full 0

Core_0_L1I_acc_epochs 83576
Core_0_L1I_acc_level_0 83576
Core_0_L1I_acc_level_1 0
Core_0_L1I_acc_level_2 0
Core_0_L1I_acc_level_3 0
Core_0_L1I_acc_level_4 0
Core_0_L1I_acc_level_5 0
Core_0_L1I_acc_level_6 0
Core_0_L1I_acc_level_7 0
Core_0_L1I_acc_level_8 0
Core_0_L1I_acc_level_9 0

Core_0_L2C_total_access 1767707
Core_0_L2C_total_hit 803382
Core_0_L2C_total_miss 964325
Core_0_L2C_loads 962020
Core_0_L2C_load_hit 317623
Core_0_L2C_load_miss 644397
Core_0_L2C_RFOs 0
Core_0_L2C_RFO_hit 0
Core_0_L2C_RFO_miss 0
Core_0_L2C_prefetches 319941
Core_0_L2C_prefetch_hit 13
Core_0_L2C_prefetch_miss 319928
Core_0_L2C_writebacks 485746
Core_0_L2C_writeback_hit 485746
Core_0_L2C_writeback_miss 0
Core_0_L2C_prefetch_requested 2766809
Core_0_L2C_prefetch_dropped 24
Core_0_L2C_prefetch_issued 2766785
Core_0_L2C_prefetch_filled 384631
Core_0_L2C_prefetch_useful 381805
Core_0_L2C_prefetch_useless 2806
Core_0_L2C_prefetch_late 3218
Core_0_L2C_average_miss_latency 102.45603

Core_0_L2C_rq_access 962020
Core_0_L2C_rq_forward 0
Core_0_L2C_rq_merged 0
Core_0_L2C_rq_to_cache 962020
Core_0_L2C_rq_full 0

Core_0_L2C_wq_access 485746
Core_0_L2C_wq_forward 0
Core_0_L2C_wq_merged 0
Core_0_L2C_wq_to_cache 485746
Core_0_L2C_wq_full 0

Core_0_L2C_pq_access 2766785
Core_0_L2C_pq_forward 0
Core_0_L2C_pq_merged 13287
Core_0_L2C_pq_to_cache 2753498
Core_0_L2C_pq_full 0

Core_0_L2C_acc_epochs 83576
Core_0_L2C_acc_level_0 183
Core_0_L2C_acc_level_1 429
Core_0_L2C_acc_level_2 642
Core_0_L2C_acc_level_3 833
Core_0_L2C_acc_level_4 1365
Core_0_L2C_acc_level_5 1698
Core_0_L2C_acc_level_6 2302
Core_0_L2C_acc_level_7 3688
Core_0_L2C_acc_level_8 6619
Core_0_L2C_acc_level_9 65817

Core_0_LLC_total_access 3425751
Core_0_LLC_total_hit 2453619
Core_0_LLC_total_miss 972132
Core_0_LLC_loads 641183
Core_0_LLC_load_hit 405136
Core_0_LLC_load_miss 236047
Core_0_LLC_RFOs 0
Core_0_LLC_RFO_hit 0
Core_0_LLC_RFO_miss 0
Core_0_LLC_prefetches 2298791
Core_0_LLC_prefetch_hit 1566896
Core_0_LLC_prefetch_miss 731895
Core_0_LLC_writebacks 485777
Core_0_LLC_writeback_hit 481587
Core_0_LLC_writeback_miss 4190
Core_0_LLC_prefetch_requested 0
Core_0_LLC_prefetch_dropped 0
Core_0_LLC_prefetch_issued 0
Core_0_LLC_prefetch_filled 870840
Core_0_LLC_prefetch_useful 387633
Core_0_LLC_prefetch_useless 469748
Core_0_LLC_prefetch_late 4748
Core_0_LLC_average_miss_latency 206.79705

Core_0_LLC_rq_access 641183
Core_0_LLC_rq_forward 0
Core_0_LLC_rq_merged 0
Core_0_LLC_rq_to_cache 641183
Core_0_LLC_rq_full 0

Core_0_LLC_wq_access 485777
Core_0_LLC_wq_forward 0
Core_0_LLC_wq_merged 0
Core_0_LLC_wq_to_cache 485777
Core_0_LLC_wq_full 0

Core_0_LLC_pq_access 2748023
Core_0_LLC_pq_forward 0
Core_0_LLC_pq_merged 1237
Core_0_LLC_pq_to_cache 2746786
Core_0_LLC_pq_full 0

Core_0_LLC_acc_epochs 99990
Core_0_LLC_acc_level_0 65
Core_0_LLC_acc_level_1 1422
Core_0_LLC_acc_level_2 6478
Core_0_LLC_acc_level_3 17561
Core_0_LLC_acc_level_4 22761
Core_0_LLC_acc_level_5 17747
Core_0_LLC_acc_level_6 11245
Core_0_LLC_acc_level_7 7225
Core_0_LLC_acc_level_8 4372
Core_0_LLC_acc_level_9 11114

Core_0_major_page_fault 0
Core_0_minor_page_fault 154361

spp.pref.total 2766809
spp.pref.at_L2 390128
spp.pref.at_LLC 2376681

spp.depth.max 10
spp.depth.min 0
spp.depth.avg 2

spp.breadth.max 2
spp.breadth.min 0
spp.breadth.avg 0

delta_1 2469323
delta_32 278600
delta_31 40548
delta_-1 141
delta_3 139
delta_33 16
delta_-32 15
delta_34 8

depth_1_delta_1 815207
depth_1_delta_32 206244
depth_1_delta_31 40457
depth_1_delta_-1 95
depth_1_delta_3 59
depth_1_delta_-32 15
depth_1_delta_33 13
depth_1_delta_34 8
depth_2_delta_1 577146
depth_2_delta_32 71820
depth_2_delta_31 88
depth_2_delta_-1 46
depth_2_delta_3 45
depth_2_delta_33 3
depth_3_delta_1 299577
depth_3_delta_32 536
depth_3_delta_3 35
depth_3_delta_31 3
depth_4_delta_1 239785
depth_5_delta_1 227296
depth_6_delta_1 179983
depth_7_delta_1 105546
depth_8_delta_1 22788
depth_9_delta_1 1991
depth_10_delta_1 4

Channel_0_RQ_row_buffer_hit 362133
Channel_0_RQ_row_buffer_miss 605809
Channel_0_WQ_row_buffer_hit 81851
Channel_0_WQ_row_buffer_miss 404114
Channel_0_WQ_full 0
Channel_0_dbus_congested 655327

avg_congested_cycle 10

DRAM_bw_pochs 399960
DRAM_bw_level_0 243955
DRAM_bw_level_1 118511
DRAM_bw_level_2 28994
DRAM_bw_level_3 8500
