*************************************************
   ChampSim Multicore Out-of-Order Simulator
   Last compiled: Apr  3 2025 20:54:34
*************************************************
parsing config file: /home/zir/Pythia/config/pythia.ini

trace_0 /home/zir/ChampSim/ML-DPC/ChampSimTraces/spec17/623.xalancbmk-s2.trace.xz
adding L2C_PREFETCHER: Scooby
Initialize SHIP state
warmup_instructions 10000000
simulation_instructions 50000000
champsim_seed 165
measure_ipc 0
measure_ipc_epoch 1000
measure_dram_bw 1
measure_dram_bw_epoch 256
measure_cache_acc 1
measure_cache_acc_epoch 1024
l1d_perfect 0
l2c_perfect 0
llc_perfect 0
l1d_semi_perfect 0
l2c_semi_perfect 0
llc_semi_perfect 0
semi_perfect_cache_page_buffer_size 64

num_cpus 1
cpu_freq 4000
dram_io_freq 2400
page_size 4096
block_size 64
max_read_per_cycle 8
max_fill_per_cycle 1
dram_channels 1
log2_dram_channels 0
dram_ranks 1
dram_banks 8
dram_rows 65536
dram_columns 128
dram_row_size 8
dram_size 4096
dram_pages 1048576

fetch_width 6
decode_width 6
exec_width 4
lq_width 2
sq_width 2
retire_width 4
scheduler_size 128
branch_mispredict_penalty 20
rob_size 256
lq_size 72
sq_size 56
num_instr_destinations_sparc 4
num_instr_destinations 2
num_instr_sources 4

itlb_set 16
itlb_way 8
itlb_rq_size 16
itlb_wq_size 16
itlb_pq_size 0
itlb_mshr_size 8
itlb_latency 1

dtlb_set 16
dtlb_way 4
dtlb_rq_size 16
dtlb_wq_size 16
dtlb_pq_size 0
dtlb_mshr_size 8
dtlb_latency 1

stlb_set 128
stlb_way 12
stlb_rq_size 32
stlb_wq_size 32
stlb_pq_size 0
stlb_mshr_size 16
stlb_latency 8

l1i_size 32
l1i_set 64
l1i_way 8
l1i_rq_size 64
l1i_wq_size 64
l1i_pq_size 8
l1i_mshr_size 8
l1i_latency 1

l1d_size 32
l1d_set 64
l1d_way 8
l1d_rq_size 64
l1d_wq_size 64
l1d_pq_size 8
l1d_mshr_size 16
l1d_latency 4

l2c_size 256
l2c_set 512
l2c_way 8
l2c_rq_size 32
l2c_wq_size 32
l2c_pq_size 32
l2c_mshr_size 32
l2c_latency 10

llc_size 2048
llc_set 2048
llc_way 16
llc_rq_size 32
llc_wq_size 32
llc_pq_size 32
llc_mshr_size 64
llc_latency 20

dram_channel_width 8
dram_wq_size 64
dram_rq_size 64
tRP 15
tRCD 15
tCAS 12.5
dram_dbus_turn_around_time 30
dram_write_high_wm 56
dram_write_low_wm 48
min_dram_writes_per_switch 16
dram_mtps 2400
dram_dbus_return_time 13

scooby_alpha 0.0065088
scooby_gamma 0.556301
scooby_epsilon 0.00182284
scooby_state_num_bits 10
scooby_max_states 1024
scooby_seed 200
scooby_policy EGreedy
scooby_learning_type SARSA
scooby_actions 1,3,4,5,10,11,12,22,23,30,32,-1,-3,-6,0,
scooby_max_actions 15
scooby_pt_size 256
scooby_st_size 64
scooby_max_pcs 5
scooby_max_offsets 5
scooby_max_deltas 5
scooby_reward_none -4
scooby_reward_incorrect -8
scooby_reward_correct_untimely 12
scooby_reward_correct_timely 20
scooby_brain_zero_init 0
scooby_enable_reward_all 0
scooby_enable_track_multiple 0
scooby_enable_reward_out_of_bounds 1
scooby_reward_out_of_bounds -12
scooby_state_type 1
scooby_state_hash_type 11
scooby_access_debug 0
scooby_print_access_debug 0
scooby_print_access_debug_pc deadbeef
scooby_print_access_debug_pc_count 0
scooby_print_trace 0
scooby_enable_state_action_stats 1
scooby_enable_reward_tracker_hit 0
scooby_reward_tracker_hit -2
scooby_enable_featurewise_engine 1
scooby_pref_degree 1
scooby_enable_dyn_degree 1
scooby_max_to_avg_q_thresholds 0.5,1,2,
scooby_dyn_degrees 1,2,4,4,
scooby_multi_deg_select_type 2
scooby_last_pref_offset_conf_thresholds 1,3,8,
scooby_dyn_degrees_type2 1,2,4,6,
scooby_action_tracker_size 2
scooby_high_bw_thresh 4
scooby_enable_hbw_reward 1
scooby_reward_hbw_correct_timely 20
scooby_reward_hbw_correct_untimely 12
scooby_reward_hbw_incorrect -14
scooby_reward_hbw_none -2
scooby_reward_hbw_out_of_bounds -12
scooby_reward_hbw_tracker_hit -2
scooby_last_pref_offset_conf_thresholds_hbw 1,3,8,
scooby_dyn_degrees_type2_hbw 1,2,4,6,

le_enable_trace 0
le_trace_interval 0
le_trace_file_name 
le_trace_state 0
le_enable_score_plot 0
le_plot_file_name 
le_plot_actions 
le_enable_action_trace 0
le_action_trace_interval 0
le_action_trace_name 
le_enable_action_plot 0

le_featurewise_active_features PC, PC_Delta
le_featurewise_num_tilings 3,3,
le_featurewise_num_tiles 128,128,
le_featurewise_hash_types 2,2,
le_featurewise_enable_tiling_offset 1,1,
le_featurewise_max_q_thresh 0.5
le_featurewise_enable_action_fallback 1
le_featurewise_feature_weights 1,1,
le_featurewise_enable_dynamic_weight 0
le_featurewise_weight_gradient 0.001
le_featurewise_disable_adjust_weight_all_features_align 1
le_featurewise_selective_update 0
le_featurewise_pooling_type 2
le_featurewise_enable_dyn_action_fallback 1
le_featurewise_bw_acc_check_level 1
le_featurewise_acc_thresh 2
le_featurewise_enable_trace 0
le_featurewise_trace_feature_type 0
le_featurewise_trace_feature 
le_featurewise_trace_interval 0
le_featurewise_trace_record_count 0
le_featurewise_trace_file_name 
le_featurewise_enable_score_plot 0
le_featurewise_plot_actions 
le_featurewise_plot_file_name 


Heartbeat CPU  0 instructions:    1000000 cycles:     427004 heartbeat IPC: 2.34190 cumulative IPC: 2.34190 (Simulation time: 0 hr 0 min 2 sec) 
Heartbeat CPU  0 instructions:    2000002 cycles:     859958 heartbeat IPC: 2.30972 cumulative IPC: 2.32570 (Simulation time: 0 hr 0 min 4 sec) 
Heartbeat CPU  0 instructions:    3000001 cycles:    1292926 heartbeat IPC: 2.30964 cumulative IPC: 2.32032 (Simulation time: 0 hr 0 min 6 sec) 
Heartbeat CPU  0 instructions:    4000000 cycles:    1725753 heartbeat IPC: 2.31039 cumulative IPC: 2.31783 (Simulation time: 0 hr 0 min 8 sec) 
Heartbeat CPU  0 instructions:    5000000 cycles:    2156894 heartbeat IPC: 2.31943 cumulative IPC: 2.31815 (Simulation time: 0 hr 0 min 9 sec) 
Heartbeat CPU  0 instructions:    6000001 cycles:    2584751 heartbeat IPC: 2.33723 cumulative IPC: 2.32131 (Simulation time: 0 hr 0 min 11 sec) 
Heartbeat CPU  0 instructions:    7000002 cycles:    3015191 heartbeat IPC: 2.32321 cumulative IPC: 2.32158 (Simulation time: 0 hr 0 min 13 sec) 
Heartbeat CPU  0 instructions:    8000000 cycles:    3440819 heartbeat IPC: 2.34946 cumulative IPC: 2.32503 (Simulation time: 0 hr 0 min 15 sec) 
Heartbeat CPU  0 instructions:    9000000 cycles:    3871554 heartbeat IPC: 2.32161 cumulative IPC: 2.32465 (Simulation time: 0 hr 0 min 17 sec) 
Heartbeat CPU  0 instructions:   10000000 cycles:    4297610 heartbeat IPC: 2.34711 cumulative IPC: 2.32687 (Simulation time: 0 hr 0 min 19 sec) 

Warmup complete CPU  0 instructions:   10000004 cycles:    4297611 (Simulation time: 0 hr 0 min 19 sec) 

Heartbeat CPU  0 instructions:   11000001 cycles:    5624055 heartbeat IPC: 0.75390 cumulative IPC: 0.75389 (Simulation time: 0 hr 0 min 21 sec) 
Heartbeat CPU  0 instructions:   12000000 cycles:    6955671 heartbeat IPC: 0.75097 cumulative IPC: 0.75243 (Simulation time: 0 hr 0 min 24 sec) 
Heartbeat CPU  0 instructions:   13000001 cycles:    8295999 heartbeat IPC: 0.74609 cumulative IPC: 0.75030 (Simulation time: 0 hr 0 min 26 sec) 
Heartbeat CPU  0 instructions:   14000001 cycles:    9691060 heartbeat IPC: 0.71681 cumulative IPC: 0.74164 (Simulation time: 0 hr 0 min 28 sec) 
Heartbeat CPU  0 instructions:   15000002 cycles:   11033956 heartbeat IPC: 0.74466 cumulative IPC: 0.74224 (Simulation time: 0 hr 0 min 31 sec) 
Heartbeat CPU  0 instructions:   16000000 cycles:   12370714 heartbeat IPC: 0.74808 cumulative IPC: 0.74321 (Simulation time: 0 hr 0 min 33 sec) 
Heartbeat CPU  0 instructions:   17000000 cycles:   13669981 heartbeat IPC: 0.76966 cumulative IPC: 0.74688 (Simulation time: 0 hr 0 min 36 sec) 
Heartbeat CPU  0 instructions:   18000001 cycles:   14988362 heartbeat IPC: 0.75851 cumulative IPC: 0.74831 (Simulation time: 0 hr 0 min 38 sec) 
Heartbeat CPU  0 instructions:   19000001 cycles:   16297691 heartbeat IPC: 0.76375 cumulative IPC: 0.74999 (Simulation time: 0 hr 0 min 40 sec) 
Heartbeat CPU  0 instructions:   20000000 cycles:   17637474 heartbeat IPC: 0.74639 cumulative IPC: 0.74963 (Simulation time: 0 hr 0 min 43 sec) 
Heartbeat CPU  0 instructions:   21000001 cycles:   18979955 heartbeat IPC: 0.74489 cumulative IPC: 0.74920 (Simulation time: 0 hr 0 min 45 sec) 
Heartbeat CPU  0 instructions:   22000001 cycles:   20275820 heartbeat IPC: 0.77169 cumulative IPC: 0.75102 (Simulation time: 0 hr 0 min 48 sec) 
Heartbeat CPU  0 instructions:   23000001 cycles:   21616504 heartbeat IPC: 0.74589 cumulative IPC: 0.75063 (Simulation time: 0 hr 0 min 50 sec) 
Heartbeat CPU  0 instructions:   24000000 cycles:   22905959 heartbeat IPC: 0.77552 cumulative IPC: 0.75235 (Simulation time: 0 hr 0 min 52 sec) 
Heartbeat CPU  0 instructions:   25000000 cycles:   24220004 heartbeat IPC: 0.76101 cumulative IPC: 0.75292 (Simulation time: 0 hr 0 min 55 sec) 
Heartbeat CPU  0 instructions:   26000003 cycles:   25531065 heartbeat IPC: 0.76274 cumulative IPC: 0.75353 (Simulation time: 0 hr 0 min 57 sec) 
Heartbeat CPU  0 instructions:   27000000 cycles:   26843401 heartbeat IPC: 0.76200 cumulative IPC: 0.75402 (Simulation time: 0 hr 0 min 59 sec) 
Heartbeat CPU  0 instructions:   28000000 cycles:   28206694 heartbeat IPC: 0.73352 cumulative IPC: 0.75285 (Simulation time: 0 hr 1 min 2 sec) 
Heartbeat CPU  0 instructions:   29000002 cycles:   29442182 heartbeat IPC: 0.80940 cumulative IPC: 0.75563 (Simulation time: 0 hr 1 min 4 sec) 
Heartbeat CPU  0 instructions:   30000002 cycles:   30751299 heartbeat IPC: 0.76387 cumulative IPC: 0.75604 (Simulation time: 0 hr 1 min 7 sec) 
Heartbeat CPU  0 instructions:   31000000 cycles:   32050363 heartbeat IPC: 0.76978 cumulative IPC: 0.75668 (Simulation time: 0 hr 1 min 9 sec) 
Heartbeat CPU  0 instructions:   32000000 cycles:   33411290 heartbeat IPC: 0.73479 cumulative IPC: 0.75566 (Simulation time: 0 hr 1 min 11 sec) 
Heartbeat CPU  0 instructions:   33000000 cycles:   34705467 heartbeat IPC: 0.77269 cumulative IPC: 0.75638 (Simulation time: 0 hr 1 min 14 sec) 
Heartbeat CPU  0 instructions:   34000003 cycles:   36079295 heartbeat IPC: 0.72790 cumulative IPC: 0.75515 (Simulation time: 0 hr 1 min 16 sec) 
Heartbeat CPU  0 instructions:   35000002 cycles:   37385112 heartbeat IPC: 0.76580 cumulative IPC: 0.75557 (Simulation time: 0 hr 1 min 19 sec) 
Heartbeat CPU  0 instructions:   36000000 cycles:   38787871 heartbeat IPC: 0.71288 cumulative IPC: 0.75384 (Simulation time: 0 hr 1 min 21 sec) 
Heartbeat CPU  0 instructions:   37000000 cycles:   40076810 heartbeat IPC: 0.77583 cumulative IPC: 0.75463 (Simulation time: 0 hr 1 min 23 sec) 
Heartbeat CPU  0 instructions:   38000002 cycles:   41466094 heartbeat IPC: 0.71980 cumulative IPC: 0.75333 (Simulation time: 0 hr 1 min 26 sec) 
Heartbeat CPU  0 instructions:   39000001 cycles:   42781249 heartbeat IPC: 0.76037 cumulative IPC: 0.75357 (Simulation time: 0 hr 1 min 28 sec) 
Heartbeat CPU  0 instructions:   40000000 cycles:   44084743 heartbeat IPC: 0.76717 cumulative IPC: 0.75401 (Simulation time: 0 hr 1 min 31 sec) 
Heartbeat CPU  0 instructions:   41000002 cycles:   45436099 heartbeat IPC: 0.74000 cumulative IPC: 0.75355 (Simulation time: 0 hr 1 min 33 sec) 
Heartbeat CPU  0 instructions:   42000003 cycles:   46685453 heartbeat IPC: 0.80041 cumulative IPC: 0.75493 (Simulation time: 0 hr 1 min 35 sec) 
Heartbeat CPU  0 instructions:   43000001 cycles:   47951657 heartbeat IPC: 0.78976 cumulative IPC: 0.75594 (Simulation time: 0 hr 1 min 38 sec) 
Heartbeat CPU  0 instructions:   44000000 cycles:   49310666 heartbeat IPC: 0.73583 cumulative IPC: 0.75534 (Simulation time: 0 hr 1 min 40 sec) 
Heartbeat CPU  0 instructions:   45000000 cycles:   50648357 heartbeat IPC: 0.74756 cumulative IPC: 0.75511 (Simulation time: 0 hr 1 min 42 sec) 
Heartbeat CPU  0 instructions:   46000000 cycles:   51902592 heartbeat IPC: 0.79730 cumulative IPC: 0.75622 (Simulation time: 0 hr 1 min 45 sec) 
Heartbeat CPU  0 instructions:   47000001 cycles:   53230728 heartbeat IPC: 0.75294 cumulative IPC: 0.75613 (Simulation time: 0 hr 1 min 47 sec) 
Heartbeat CPU  0 instructions:   48000000 cycles:   54487507 heartbeat IPC: 0.79568 cumulative IPC: 0.75712 (Simulation time: 0 hr 1 min 50 sec) 
Heartbeat CPU  0 instructions:   49000000 cycles:   55859452 heartbeat IPC: 0.72889 cumulative IPC: 0.75637 (Simulation time: 0 hr 1 min 52 sec) 
Heartbeat CPU  0 instructions:   50000002 cycles:   57182690 heartbeat IPC: 0.75572 cumulative IPC: 0.75636 (Simulation time: 0 hr 1 min 54 sec) 
Heartbeat CPU  0 instructions:   51000000 cycles:   58506013 heartbeat IPC: 0.75567 cumulative IPC: 0.75634 (Simulation time: 0 hr 1 min 57 sec) 
Heartbeat CPU  0 instructions:   52000000 cycles:   59848925 heartbeat IPC: 0.74465 cumulative IPC: 0.75606 (Simulation time: 0 hr 1 min 59 sec) 
Heartbeat CPU  0 instructions:   53000002 cycles:   61136793 heartbeat IPC: 0.77648 cumulative IPC: 0.75652 (Simulation time: 0 hr 2 min 2 sec) 
Heartbeat CPU  0 instructions:   54000003 cycles:   62433009 heartbeat IPC: 0.77148 cumulative IPC: 0.75685 (Simulation time: 0 hr 2 min 4 sec) 
Heartbeat CPU  0 instructions:   55000001 cycles:   63685733 heartbeat IPC: 0.79826 cumulative IPC: 0.75773 (Simulation time: 0 hr 2 min 6 sec) 
Heartbeat CPU  0 instructions:   56000000 cycles:   65034158 heartbeat IPC: 0.74161 cumulative IPC: 0.75737 (Simulation time: 0 hr 2 min 9 sec) 
Heartbeat CPU  0 instructions:   57000002 cycles:   66366393 heartbeat IPC: 0.75062 cumulative IPC: 0.75722 (Simulation time: 0 hr 2 min 11 sec) 
Heartbeat CPU  0 instructions:   58000001 cycles:   67675122 heartbeat IPC: 0.76410 cumulative IPC: 0.75737 (Simulation time: 0 hr 2 min 14 sec) 
Heartbeat CPU  0 instructions:   59000001 cycles:   69179367 heartbeat IPC: 0.66479 cumulative IPC: 0.75522 (Simulation time: 0 hr 2 min 16 sec) 
Heartbeat CPU  0 instructions:   60000000 cycles:   70438370 heartbeat IPC: 0.79428 cumulative IPC: 0.75596 (Simulation time: 0 hr 2 min 18 sec) 
Finished CPU 0 instructions: 50000000 cycles: 66140783 cumulative IPC: 0.75596 (Simulation time: 0 hr 2 min 18 sec) 

ChampSim completed all CPUs

[ROI Statistics]
Core_0_instructions 50000000
Core_0_cycles 66140783
Core_0_IPC 0.75596

Core_0_branch_prediction_accuracy 99.97672
Core_0_branch_MPKI 0.06030
Core_0_average_ROB_occupancy_at_mispredict 157.02056

Core_0_L1D_total_access 9485126
Core_0_L1D_total_hit 8227570
Core_0_L1D_total_miss 1257556
Core_0_L1D_loads 8599263
Core_0_L1D_load_hit 7341707
Core_0_L1D_load_miss 1257556
Core_0_L1D_RFOs 885863
Core_0_L1D_RFO_hit 885863
Core_0_L1D_RFO_miss 0
Core_0_L1D_prefetches 0
Core_0_L1D_prefetch_hit 0
Core_0_L1D_prefetch_miss 0
Core_0_L1D_writebacks 0
Core_0_L1D_writeback_hit 0
Core_0_L1D_writeback_miss 0
Core_0_L1D_prefetch_requested 0
Core_0_L1D_prefetch_dropped 0
Core_0_L1D_prefetch_issued 0
Core_0_L1D_prefetch_filled 0
Core_0_L1D_prefetch_useful 0
Core_0_L1D_prefetch_useless 0
Core_0_L1D_prefetch_late 0
Core_0_L1D_average_miss_latency 23.83080

Core_0_L1D_rq_access 14945412
Core_0_L1D_rq_forward 0
Core_0_L1D_rq_merged 6050760
Core_0_L1D_rq_to_cache 8894652
Core_0_L1D_rq_full 0

Core_0_L1D_wq_access 885863
Core_0_L1D_wq_forward 0
Core_0_L1D_wq_merged 0
Core_0_L1D_wq_to_cache 885863
Core_0_L1D_wq_full 0

Core_0_L1D_pq_access 0
Core_0_L1D_pq_forward 0
Core_0_L1D_pq_merged 0
Core_0_L1D_pq_to_cache 0
Core_0_L1D_pq_full 0

Core_0_L1D_acc_epochs 68763
Core_0_L1D_acc_level_0 68763
Core_0_L1D_acc_level_1 0
Core_0_L1D_acc_level_2 0
Core_0_L1D_acc_level_3 0
Core_0_L1D_acc_level_4 0
Core_0_L1D_acc_level_5 0
Core_0_L1D_acc_level_6 0
Core_0_L1D_acc_level_7 0
Core_0_L1D_acc_level_8 0
Core_0_L1D_acc_level_9 0

Core_0_L1I_total_access 18120965
Core_0_L1I_total_hit 18120965
Core_0_L1I_total_miss 0
Core_0_L1I_loads 18120965
Core_0_L1I_load_hit 18120965
Core_0_L1I_load_miss 0
Core_0_L1I_RFOs 0
Core_0_L1I_RFO_hit 0
Core_0_L1I_RFO_miss 0
Core_0_L1I_prefetches 0
Core_0_L1I_prefetch_hit 0
Core_0_L1I_prefetch_miss 0
Core_0_L1I_writebacks 0
Core_0_L1I_writeback_hit 0
Core_0_L1I_writeback_miss 0
Core_0_L1I_prefetch_requested 0
Core_0_L1I_prefetch_dropped 0
Core_0_L1I_prefetch_issued 0
Core_0_L1I_prefetch_filled 0
Core_0_L1I_prefetch_useful 0
Core_0_L1I_prefetch_useless 0
Core_0_L1I_prefetch_late 0
Core_0_L1I_average_miss_latency -nan

Core_0_L1I_rq_access 50000006
Core_0_L1I_rq_forward 0
Core_0_L1I_rq_merged 31879041
Core_0_L1I_rq_to_cache 18120965
Core_0_L1I_rq_full 0

Core_0_L1I_wq_access 0
Core_0_L1I_wq_forward 0
Core_0_L1I_wq_merged 0
Core_0_L1I_wq_to_cache 0
Core_0_L1I_wq_full 0

Core_0_L1I_pq_access 0
Core_0_L1I_pq_forward 0
Core_0_L1I_pq_merged 0
Core_0_L1I_pq_to_cache 0
Core_0_L1I_pq_full 0

Core_0_L1I_acc_epochs 68763
Core_0_L1I_acc_level_0 68763
Core_0_L1I_acc_level_1 0
Core_0_L1I_acc_level_2 0
Core_0_L1I_acc_level_3 0
Core_0_L1I_acc_level_4 0
Core_0_L1I_acc_level_5 0
Core_0_L1I_acc_level_6 0
Core_0_L1I_acc_level_7 0
Core_0_L1I_acc_level_8 0
Core_0_L1I_acc_level_9 0

Core_0_L2C_total_access 3990265
Core_0_L2C_total_hit 2680359
Core_0_L2C_total_miss 1309906
Core_0_L2C_loads 1257556
Core_0_L2C_load_hit 1039357
Core_0_L2C_load_miss 218199
Core_0_L2C_RFOs 0
Core_0_L2C_RFO_hit 0
Core_0_L2C_RFO_miss 0
Core_0_L2C_prefetches 2732669
Core_0_L2C_prefetch_hit 1640962
Core_0_L2C_prefetch_miss 1091707
Core_0_L2C_writebacks 40
Core_0_L2C_writeback_hit 40
Core_0_L2C_writeback_miss 0
Core_0_L2C_prefetch_requested 5395817
Core_0_L2C_prefetch_dropped 0
Core_0_L2C_prefetch_issued 5395817
Core_0_L2C_prefetch_filled 1316603
Core_0_L2C_prefetch_useful 1238702
Core_0_L2C_prefetch_useless 77894
Core_0_L2C_prefetch_late 54641
Core_0_L2C_average_miss_latency 64.46231

Core_0_L2C_rq_access 1257556
Core_0_L2C_rq_forward 0
Core_0_L2C_rq_merged 0
Core_0_L2C_rq_to_cache 1257556
Core_0_L2C_rq_full 0

Core_0_L2C_wq_access 40
Core_0_L2C_wq_forward 0
Core_0_L2C_wq_merged 0
Core_0_L2C_wq_to_cache 40
Core_0_L2C_wq_full 0

Core_0_L2C_pq_access 5395817
Core_0_L2C_pq_forward 0
Core_0_L2C_pq_merged 1545911
Core_0_L2C_pq_to_cache 3849906
Core_0_L2C_pq_full 0

Core_0_L2C_acc_epochs 68763
Core_0_L2C_acc_level_0 256
Core_0_L2C_acc_level_1 70
Core_0_L2C_acc_level_2 42
Core_0_L2C_acc_level_3 55
Core_0_L2C_acc_level_4 60
Core_0_L2C_acc_level_5 111
Core_0_L2C_acc_level_6 211
Core_0_L2C_acc_level_7 6041
Core_0_L2C_acc_level_8 14105
Core_0_L2C_acc_level_9 47812

Core_0_LLC_total_access 1309943
Core_0_LLC_total_hit 778697
Core_0_LLC_total_miss 531246
Core_0_LLC_loads 165746
Core_0_LLC_load_hit 113988
Core_0_LLC_load_miss 51758
Core_0_LLC_RFOs 0
Core_0_LLC_RFO_hit 0
Core_0_LLC_RFO_miss 0
Core_0_LLC_prefetches 1144160
Core_0_LLC_prefetch_hit 664672
Core_0_LLC_prefetch_miss 479488
Core_0_LLC_writebacks 37
Core_0_LLC_writeback_hit 37
Core_0_LLC_writeback_miss 0
Core_0_LLC_prefetch_requested 0
Core_0_LLC_prefetch_dropped 0
Core_0_LLC_prefetch_issued 0
Core_0_LLC_prefetch_filled 632294
Core_0_LLC_prefetch_useful 2146
Core_0_LLC_prefetch_useless 601498
Core_0_LLC_prefetch_late 0
Core_0_LLC_average_miss_latency 89.43583

Core_0_LLC_rq_access 165746
Core_0_LLC_rq_forward 0
Core_0_LLC_rq_merged 0
Core_0_LLC_rq_to_cache 165746
Core_0_LLC_rq_full 0

Core_0_LLC_wq_access 37
Core_0_LLC_wq_forward 0
Core_0_LLC_wq_merged 0
Core_0_LLC_wq_to_cache 37
Core_0_LLC_wq_full 0

Core_0_LLC_pq_access 1371248
Core_0_LLC_pq_forward 0
Core_0_LLC_pq_merged 0
Core_0_LLC_pq_to_cache 1371248
Core_0_LLC_pq_full 0

Core_0_LLC_acc_epochs 68788
Core_0_LLC_acc_level_0 67725
Core_0_LLC_acc_level_1 413
Core_0_LLC_acc_level_2 252
Core_0_LLC_acc_level_3 90
Core_0_LLC_acc_level_4 23
Core_0_LLC_acc_level_5 156
Core_0_LLC_acc_level_6 22
Core_0_LLC_acc_level_7 23
Core_0_LLC_acc_level_8 8
Core_0_LLC_acc_level_9 76

Core_0_major_page_fault 0
Core_0_minor_page_fault 1296

scooby_st_lookup 1510070
scooby_st_hit 1483876
scooby_st_evict 26130
scooby_st_insert 26194
scooby_st_streaming 0

scooby_predict_called 1510070
scooby_predict_out_of_bounds 32971
scooby_predict_action_1 1203057
scooby_predict_issue_action_1 935058
scooby_predict_hit_action_1 267999
scooby_predict_out_of_bounds_action_1 20461
scooby_predict_action_3 272121
scooby_predict_issue_action_3 268136
scooby_predict_hit_action_3 3985
scooby_predict_out_of_bounds_action_3 12033
scooby_predict_action_4 182
scooby_predict_issue_action_4 182
scooby_predict_hit_action_4 0
scooby_predict_out_of_bounds_action_4 11
scooby_predict_action_5 169
scooby_predict_issue_action_5 169
scooby_predict_hit_action_5 0
scooby_predict_out_of_bounds_action_5 8
scooby_predict_action_10 180
scooby_predict_issue_action_10 180
scooby_predict_hit_action_10 0
scooby_predict_out_of_bounds_action_10 33
scooby_predict_action_11 134
scooby_predict_issue_action_11 134
scooby_predict_hit_action_11 0
scooby_predict_out_of_bounds_action_11 30
scooby_predict_action_12 157
scooby_predict_issue_action_12 157
scooby_predict_hit_action_12 0
scooby_predict_out_of_bounds_action_12 35
scooby_predict_action_22 101
scooby_predict_issue_action_22 101
scooby_predict_hit_action_22 0
scooby_predict_out_of_bounds_action_22 91
scooby_predict_action_23 121
scooby_predict_issue_action_23 121
scooby_predict_hit_action_23 0
scooby_predict_out_of_bounds_action_23 63
scooby_predict_action_30 101
scooby_predict_issue_action_30 101
scooby_predict_hit_action_30 0
scooby_predict_out_of_bounds_action_30 90
scooby_predict_action_32 78
scooby_predict_issue_action_32 78
scooby_predict_hit_action_32 0
scooby_predict_out_of_bounds_action_32 83
scooby_predict_action_-1 180
scooby_predict_issue_action_-1 54
scooby_predict_hit_action_-1 126
scooby_predict_out_of_bounds_action_-1 3
scooby_predict_action_-3 171
scooby_predict_issue_action_-3 28
scooby_predict_hit_action_-3 143
scooby_predict_out_of_bounds_action_-3 10
scooby_predict_action_-6 157
scooby_predict_issue_action_-6 38
scooby_predict_hit_action_-6 119
scooby_predict_out_of_bounds_action_-6 20
scooby_predict_action_0 190
scooby_predict_issue_action_0 0
scooby_predict_hit_action_0 0
scooby_predict_out_of_bounds_action_0 0
scooby_predict_multi_deg_called 1068866
scooby_predict_predicted 5395817
scooby_predict_multi_deg 4191280
scooby_predict_multi_deg_2 1042262
scooby_predict_multi_deg_3 925744
scooby_predict_multi_deg_4 899519
scooby_predict_multi_deg_5 671613
scooby_predict_multi_deg_6 652142
scooby_predict_multi_deg_7 0
scooby_predict_multi_deg_8 0
scooby_predict_multi_deg_9 0
scooby_predict_multi_deg_10 0
scooby_predict_multi_deg_11 0
scooby_predict_multi_deg_12 0
scooby_predict_multi_deg_13 0
scooby_predict_multi_deg_14 0
scooby_predict_multi_deg_15 0
scooby_predict_multi_deg_16 0

scooby_selected_deg_1 135671
scooby_selected_deg_2 87745
scooby_selected_deg_3 0
scooby_selected_deg_4 213597
scooby_selected_deg_5 0
scooby_selected_deg_6 767524
scooby_selected_deg_7 0
scooby_selected_deg_8 0
scooby_selected_deg_9 0
scooby_selected_deg_10 0
scooby_selected_deg_11 0
scooby_selected_deg_12 0
scooby_selected_deg_13 0
scooby_selected_deg_14 0
scooby_selected_deg_15 0
scooby_selected_deg_16 0

scooby_state_59cdbf|31|1 4390,0,0,0,0,2,1,1,0,0,0,0,1,0,0,4395,
scooby_state_59cd9b|30|1 4382,1,2,1,1,0,0,1,0,1,1,2,0,2,1,4395,
scooby_state_59cd9b|36|1 4382,0,1,1,1,1,0,1,0,1,1,3,0,2,1,4395,
scooby_state_59cdbf|37|1 4388,0,1,0,2,1,0,0,0,0,0,1,0,0,2,4395,
scooby_state_59cd9b|24|1 4347,0,1,2,0,1,0,0,2,0,0,2,0,1,0,4356,
scooby_state_59cdbf|7|1 4353,0,1,0,0,0,0,0,0,0,0,0,0,0,1,4355,
scooby_state_59cd9b|18|1 4352,0,0,0,0,0,0,0,1,1,0,0,0,0,0,4354,
scooby_state_59cdbf|13|1 4345,0,1,1,0,0,1,0,1,2,1,0,1,1,0,4354,
scooby_state_59cdbf|19|1 4348,1,1,0,2,0,1,0,0,0,0,0,1,0,0,4354,
scooby_state_59cdbf|25|1 4344,1,1,1,0,0,2,0,1,0,1,0,0,2,0,4353,
scooby_state_59cd9b|12|1 4345,0,0,0,0,1,0,1,0,2,1,1,1,1,0,4353,
scooby_state_59cd9b|6|1 4314,1,0,0,1,1,1,0,0,0,4,0,0,3,4,4329,
scooby_state_59cdbf|39|1 4315,0,0,1,0,2,0,1,0,0,1,1,0,1,0,4322,
scooby_state_59cd9b|38|1 4314,0,0,1,2,1,0,0,1,0,0,0,1,0,0,4320,
scooby_state_59cdbf|45|1 4311,0,0,1,1,0,0,0,1,0,0,0,0,1,2,4317,
scooby_state_59cdbf|51|1 4306,2,0,0,2,1,0,1,0,0,2,1,0,0,1,4316,
scooby_state_59cd9b|44|1 4309,1,0,0,1,1,0,1,0,1,0,0,1,0,1,4316,
scooby_state_59cd9b|50|1 4308,2,1,2,0,1,0,0,1,0,0,0,0,0,1,4316,
scooby_state_59cdbf|1|1 4293,0,0,0,1,0,1,0,0,3,2,3,4,0,2,4309,
scooby_state_59cdbf|43|1 4300,0,0,0,0,0,1,1,0,1,1,0,0,0,0,4304,
scooby_state_59cd9b|2|1 4282,0,1,0,0,1,1,1,1,1,0,1,0,0,1,4290,
scooby_state_59cdbf|3|1 4282,1,0,2,0,1,1,1,0,0,1,0,0,1,0,4290,
scooby_state_59cdbf|9|1 4279,1,0,2,0,1,2,0,0,1,1,0,1,1,0,4289,
scooby_state_59cdbf|15|1 4277,0,1,2,0,3,0,1,0,1,0,0,1,0,2,4288,
scooby_state_59cd9b|14|1 4283,0,1,0,0,1,0,0,1,0,0,0,0,1,1,4288,
scooby_state_59cd9b|20|1 4277,1,1,0,1,0,0,0,0,0,1,1,0,1,1,4284,
scooby_state_59cdbf|21|1 4281,0,0,0,0,0,0,1,0,1,0,0,0,0,0,4283,
scooby_state_59cd9b|26|1 4276,0,0,1,0,0,0,0,0,0,1,2,1,0,1,4282,
scooby_state_59cdbf|27|1 4274,0,0,0,0,0,1,0,0,1,1,1,1,2,1,4282,
scooby_state_59cdbf|33|1 4271,1,0,2,0,0,1,1,0,2,0,0,0,0,3,4281,
scooby_state_59cd9b|32|1 4269,2,0,0,0,0,0,0,1,1,1,2,0,0,0,4276,
scooby_state_59cdbf|59|1 4264,1,0,1,1,1,0,1,0,2,1,1,0,0,0,4273,
scooby_state_59cdbf|57|1 4267,0,0,0,0,0,0,0,2,0,0,1,0,0,0,4270,
scooby_state_59cd9b|56|1 4262,0,2,0,1,0,1,1,0,2,0,0,0,0,1,4270,
scooby_state_59cdbf|63|1 4263,1,0,0,0,2,0,0,0,0,2,0,0,1,0,4269,
scooby_state_59cd9b|62|1 4264,0,0,0,1,0,0,0,0,0,1,1,2,0,0,4269,
scooby_state_59cd9b|4|1 4266,0,0,0,0,0,0,0,1,0,0,0,0,0,0,4267,
scooby_state_59cdbf|5|1 4257,0,0,1,1,1,4,0,1,0,0,0,0,0,2,4267,
scooby_state_59cdbf|11|1 4261,1,1,1,0,0,0,0,0,0,0,0,0,0,0,4264,
scooby_state_59cd9b|0|0 4256,1,0,0,0,2,0,0,0,0,1,0,0,0,0,4260,
scooby_state_59cd9b|42|1 4251,0,0,0,1,1,1,1,0,0,1,0,0,0,2,4258,
scooby_state_59cdbf|49|1 4250,1,0,0,0,1,0,0,0,0,0,0,1,4,0,4257,
scooby_state_59cd9b|48|1 4247,0,0,1,0,0,0,2,1,0,2,0,4,0,0,4257,
scooby_state_59cd9b|58|1 4247,0,0,0,0,0,0,1,1,0,1,0,0,2,1,4253,
scooby_state_59cd9b|8|1 4241,4,0,0,0,1,1,2,0,1,0,0,1,0,1,4252,
scooby_state_59cdbf|17|1 4246,0,0,1,1,0,0,0,0,0,1,2,0,0,0,4251,
scooby_state_59cdbf|55|1 4243,0,0,1,0,0,1,1,0,0,1,1,0,1,1,4250,
scooby_state_59cd9b|54|1 4244,0,0,1,1,1,0,1,0,1,1,0,0,0,0,4250,
scooby_state_59cdbf|61|1 4241,0,1,2,0,1,1,2,0,0,0,0,1,0,1,4250,
scooby_state_59cd9b|16|1 4242,0,1,1,0,0,0,1,0,0,2,0,2,0,0,4249,
scooby_state_59cd9b|60|1 4241,0,1,1,0,0,0,0,1,0,0,0,1,0,1,4246,
scooby_state_59cdf2|0|0 4233,1,1,1,0,1,1,1,0,0,1,0,1,1,0,4242,
scooby_state_59cd9b|52|1 4221,0,0,1,0,0,0,1,1,0,1,3,1,1,2,4232,
scooby_state_59cd9b|46|1 4225,1,0,1,1,0,0,0,0,0,0,0,0,1,0,4229,
scooby_state_59cdbf|47|1 4221,0,0,1,1,0,0,2,0,1,1,0,0,1,1,4229,
scooby_state_59cdbf|53|1 4223,0,0,0,0,0,0,1,2,0,0,0,2,0,0,4228,
scooby_state_59cdbf|23|1 4211,0,1,0,3,1,3,0,0,0,1,0,0,1,1,4222,
scooby_state_59cdbf|29|1 4217,1,0,0,1,0,1,0,0,0,0,0,0,1,1,4222,
scooby_state_59cd9b|28|1 4207,0,0,1,1,0,0,0,0,4,1,0,0,1,0,4215,
scooby_state_59cd9b|22|1 4205,2,0,1,1,0,0,0,1,2,0,0,0,0,0,4212,
scooby_state_59cd9b|34|1 4185,0,0,1,1,0,0,0,0,1,0,1,0,0,0,4189,
scooby_state_59cdbf|35|1 4182,1,1,1,1,0,0,1,0,0,1,0,1,0,0,4189,
scooby_state_59cd9b|40|1 4172,0,2,0,1,2,4,0,1,1,1,1,1,0,1,4187,
scooby_state_59cdbf|41|1 4179,0,1,0,0,1,1,2,1,0,1,0,0,0,1,4187,
scooby_state_59cd9b|10|1 4160,0,0,2,0,0,3,0,0,0,0,0,0,1,1,4167,
scooby_state_59cde2|33|2 3837,1,2,0,1,2,0,0,0,1,0,0,0,0,0,3844,
scooby_state_59cdcf|32|-1 0,3834,0,0,0,0,0,0,1,0,0,0,2,1,0,3838,
scooby_state_59cde2|47|2 3828,1,0,0,2,1,0,1,0,0,0,2,0,1,0,3836,
scooby_state_59cdcf|46|-1 0,3830,0,0,0,1,0,0,0,1,0,0,0,0,0,3832,
scooby_state_59cdcf|0|-1 0,3802,0,0,1,0,0,0,0,1,1,1,1,1,0,3808,
scooby_state_59cde2|1|0 3795,2,0,1,0,0,2,1,0,0,0,1,0,0,0,3802,
scooby_state_59cde2|61|2 3773,0,0,0,0,0,0,2,0,1,0,1,0,0,0,3777,
scooby_state_59cdcf|60|-1 0,3768,1,0,2,1,0,1,0,0,1,0,0,0,0,3774,
scooby_state_59cde2|13|2 3763,0,0,0,1,0,0,0,1,0,0,0,1,2,0,3768,
scooby_state_59cde2|27|2 3758,0,0,0,0,0,0,0,1,1,1,2,0,0,0,3763,
scooby_state_59cde2|45|2 3757,1,0,2,0,0,0,0,0,0,1,0,1,0,0,3762,
scooby_state_59cde2|15|2 3748,1,0,0,4,1,0,1,1,1,0,0,0,1,0,3758,
scooby_state_59cdcf|44|-1 3,3750,0,0,0,1,0,0,0,1,1,1,0,0,0,3757,
scooby_state_59cde2|41|2 3751,0,0,0,0,0,1,0,1,1,1,0,0,0,0,3755,
scooby_state_59cde2|53|2 3742,2,2,0,1,1,0,1,0,0,0,0,0,1,2,3752,
scooby_state_59cde2|3|2 3744,0,0,1,1,0,0,0,4,1,0,0,0,1,0,3752,
scooby_state_59cdcf|40|-1 1,3740,1,0,0,1,0,1,0,2,2,1,0,0,0,3749,
scooby_state_59cde2|39|2 3744,0,0,0,2,1,0,0,0,0,0,1,0,0,1,3749,
scooby_state_59cdcf|52|-1 0,3742,1,1,1,0,1,0,0,0,1,0,1,0,1,3749,
scooby_state_59cde2|29|2 3741,0,0,0,0,0,0,0,0,1,1,0,1,0,0,3744,
scooby_state_59cdcf|38|-1 0,3736,0,1,0,0,1,2,0,0,0,0,1,1,1,3743,
scooby_state_59cde2|49|2 3733,0,0,0,0,1,1,0,0,1,1,0,0,1,1,3739,
scooby_state_59cde2|19|2 3734,0,0,0,0,0,0,0,2,0,0,1,0,0,1,3738,
scooby_state_59cdcf|48|-1 0,3730,0,1,0,0,3,2,0,1,0,1,0,0,0,3738,
scooby_state_59cde2|9|2 3733,0,0,1,0,0,1,1,0,0,0,0,0,0,1,3737,
scooby_state_59cde2|21|2 3733,0,0,1,1,0,0,0,0,1,0,0,0,0,0,3736,
scooby_state_59cde2|35|2 3728,1,0,2,1,0,0,1,0,1,0,0,0,0,0,3734,
scooby_state_59cdcf|34|-1 1,3727,0,1,1,0,0,1,0,0,0,0,0,1,1,3733,
scooby_state_59cde2|25|2 3716,0,2,0,0,0,0,0,1,0,1,0,0,1,1,3722,
scooby_state_59cde2|59|2 3713,2,1,0,0,1,0,0,1,0,0,1,0,1,0,3720,
scooby_state_59cdcf|58|-1 0,3715,0,0,1,0,0,1,0,0,0,0,0,1,0,3718,
scooby_state_59cde2|55|2 3711,0,1,0,0,0,0,0,0,0,0,1,0,0,0,3713,
scooby_state_59cde2|31|2 3701,1,1,0,1,1,0,0,2,4,0,0,1,0,0,3712,
scooby_state_59cde2|23|2 3702,1,0,2,3,1,0,0,0,1,0,0,0,0,0,3710,
scooby_state_59cde2|7|2 3695,1,0,0,0,2,2,0,1,0,0,0,0,0,0,3701,
scooby_state_59cde2|17|2 3695,0,0,1,2,1,0,0,1,0,0,0,0,0,0,3700,
scooby_state_59cdcf|26|-1 1,3690,1,1,1,0,0,0,0,0,1,1,0,1,0,3697,
scooby_state_59cdcf|54|-1 1,3678,1,2,0,0,0,1,0,0,1,1,1,0,1,3687,
scooby_state_59cde2|11|2 3677,0,0,1,2,0,2,0,2,1,0,0,0,0,0,3685,
scooby_state_59cdcf|50|-1 0,3677,0,0,0,0,2,1,0,0,0,2,1,0,0,3683,
scooby_state_59cde2|51|2 3678,0,0,0,0,0,0,1,1,1,1,0,1,0,0,3683,
scooby_state_59cde2|57|2 3667,0,0,0,1,0,2,1,1,1,0,2,2,0,0,3677,
scooby_state_59cdcf|62|-1 1,3670,1,0,1,0,0,0,0,0,0,1,0,0,0,3674,
scooby_state_59cde2|63|2 3670,0,0,0,0,0,1,1,1,0,0,0,1,0,0,3674,
scooby_state_59cdcf|56|-1 0,3668,0,1,1,0,0,0,0,0,0,0,2,0,0,3672,
scooby_state_59cde2|43|2 3653,0,0,0,1,0,1,1,0,2,1,3,0,1,2,3665,
scooby_state_59cdcf|42|-1 0,3656,0,0,1,0,0,1,0,1,0,0,1,3,1,3664,
scooby_state_59cdcf|22|-1 0,3652,0,1,1,0,1,0,1,1,1,0,1,2,0,3661,
scooby_state_59cdcf|14|-1 0,3653,0,0,0,0,1,0,0,0,0,2,0,0,1,3657,
scooby_state_59cdcf|30|-1 0,3639,1,1,1,0,1,0,1,1,1,0,1,0,0,3647,
scooby_state_59cdcf|28|-1 0,3645,1,0,1,0,0,0,0,0,0,0,0,0,0,3647,
scooby_state_59cde2|5|2 3632,0,0,0,0,0,0,0,0,0,0,0,0,1,1,3634,
scooby_state_59cdcf|18|-1 0,3631,0,0,0,0,1,1,0,0,0,0,1,0,0,3634,
scooby_state_59cde2|37|2 3625,1,0,1,1,0,0,0,2,1,0,0,0,0,0,3631,
scooby_state_59cdcf|20|-1 0,3617,0,0,2,1,0,3,1,1,0,0,1,3,1,3630,
scooby_state_59cdcf|36|-1 2,3618,1,1,1,0,0,0,0,0,0,0,0,2,0,3625,
scooby_state_59cdcf|2|-1 0,3614,0,1,0,0,0,1,3,0,0,1,0,0,0,3620,
scooby_state_59cdcf|16|-1 1,3610,1,0,1,0,0,1,1,0,1,1,0,0,0,3617,
scooby_state_59cdcf|10|-1 0,3591,0,0,0,1,1,0,1,0,0,0,1,0,0,3595,
scooby_state_59cdcf|8|-1 0,3580,0,2,0,0,0,0,0,0,1,0,1,0,0,3584,
scooby_state_59cdcf|12|-1 1,3548,1,4,2,1,0,0,0,0,1,0,0,1,0,3559,
scooby_state_59d4d1|1|1 3478,1,0,0,2,0,0,1,0,1,0,1,0,0,1,3485,
scooby_state_59cdcf|4|-1 1,3462,0,1,0,0,0,0,1,0,0,2,0,0,1,3468,
scooby_state_59cdcf|6|-1 0,3431,0,0,0,0,0,0,0,2,0,0,1,0,0,3434,
scooby_state_59cdcf|24|-1 0,3387,1,0,1,0,1,1,1,0,0,2,0,0,0,3394,
scooby_state_59cde2|0|0 2778,1,0,0,0,0,0,0,0,1,0,0,0,2,0,2782,
scooby_state_59d4e0|43|1 2706,0,1,0,1,0,0,0,1,2,0,0,1,0,0,2712,
scooby_state_59d4e0|55|1 2706,0,0,0,1,1,0,0,0,0,0,0,0,2,0,2710,
scooby_state_59d4e0|49|1 2702,0,0,1,0,1,3,0,0,1,1,0,1,0,0,2710,
scooby_state_59d4e0|3|1 2704,0,1,0,1,0,1,0,1,0,0,0,0,1,0,2709,
scooby_state_59d4e0|63|1 2695,0,1,0,0,0,0,0,0,2,1,0,0,0,0,2699,
scooby_state_59d4e0|17|1 2688,0,1,0,2,1,1,1,0,0,0,1,1,1,1,2698,
scooby_state_59d4e0|29|1 2694,1,0,1,0,0,0,0,0,0,0,0,0,0,1,2697,
scooby_state_59d4e0|23|1 2694,0,1,1,0,0,0,0,0,0,0,1,0,0,0,2697,
scooby_state_59d4e0|11|1 2689,0,0,0,0,0,1,0,0,0,0,1,0,0,2,2693,
scooby_state_59d4e0|35|1 2686,2,0,0,0,2,0,0,0,1,1,0,0,1,0,2693,
scooby_state_59d4e0|1|1 2677,1,0,0,1,0,0,0,0,0,0,0,1,2,0,2682,
scooby_state_59d4e0|19|1 2675,0,0,1,1,1,0,0,1,0,0,0,0,1,0,2680,
scooby_state_59d4e0|31|1 2672,0,0,0,0,0,0,0,1,0,0,1,0,2,0,2676,
scooby_state_59d4e0|13|1 2669,0,1,1,1,0,0,0,1,1,0,0,0,1,1,2676,
scooby_state_59d4e0|25|1 2671,2,0,0,0,1,1,0,0,0,1,0,0,0,0,2676,
scooby_state_59d4e0|37|1 2672,0,0,1,0,1,0,0,0,0,0,0,0,0,1,2675,
scooby_state_59cdf2|42|2 2667,0,0,1,0,0,2,1,0,0,0,0,0,0,0,2671,
scooby_state_59cdf2|34|2 2666,0,0,0,1,0,1,0,0,0,0,0,0,0,0,2668,
scooby_state_59d4e0|61|1 2661,1,0,0,0,0,1,0,0,0,0,0,1,0,0,2664,
scooby_state_59cdf2|28|2 2656,0,1,0,2,0,0,0,0,0,0,1,0,2,0,2662,
scooby_state_59d4e0|15|1 2652,0,0,0,2,0,0,0,0,0,0,1,0,0,0,2655,
scooby_state_59d4e0|47|1 2645,1,0,1,0,0,0,0,0,0,1,1,0,0,0,2649,
scooby_state_59d4e0|41|1 2645,0,0,0,0,1,0,0,1,0,0,0,1,1,0,2649,
scooby_state_59d4e0|53|1 2642,0,2,1,0,0,0,0,0,0,0,0,3,0,0,2648,
scooby_state_59d4e0|45|1 2640,1,2,0,0,0,0,0,0,0,0,0,1,0,0,2644,
scooby_state_59d4e0|51|1 2639,0,0,0,0,1,0,0,0,1,1,0,0,0,0,2642,
scooby_state_59d4e0|59|1 2638,0,0,1,0,0,0,0,0,0,0,0,0,1,1,2641,
scooby_state_59d4e0|57|1 2631,0,1,0,0,0,0,1,0,1,1,0,0,0,3,2638,
scooby_state_59d4e0|5|1 2627,0,0,0,2,0,0,1,1,0,2,0,0,0,2,2635,
scooby_state_59d4e0|33|1 2626,0,1,1,0,0,1,0,2,1,0,1,0,0,0,2633,
scooby_state_59cdf2|40|2 2628,0,1,0,0,0,0,0,0,0,1,0,0,0,0,2630,
scooby_state_59d4e0|21|1 2620,2,0,0,0,0,0,1,1,0,0,0,0,0,0,2624,
scooby_state_59cdf2|10|2 2618,0,0,0,0,0,1,1,0,1,1,0,0,1,0,2623,
scooby_state_59cdf2|24|2 2611,0,0,0,1,0,1,0,0,0,0,0,1,0,1,2615,
scooby_state_59cdf2|30|2 2610,0,1,0,0,1,0,0,1,0,0,0,0,0,1,2614,
scooby_state_59d4e0|9|1 2597,0,1,0,1,0,0,0,1,0,0,0,1,0,1,2602,
scooby_state_59d4e0|39|1 2594,0,2,0,0,0,1,1,0,0,1,1,0,0,0,2600,
scooby_state_59cdf2|46|2 2596,0,0,0,0,0,1,0,1,0,1,0,1,0,0,2600,
scooby_state_59cdf2|22|2 2592,0,1,0,0,0,0,1,1,0,1,0,1,0,0,2597,
scooby_state_59cdf2|48|2 2587,0,0,0,0,0,0,1,1,0,1,1,0,0,0,2591,
scooby_state_59cdf2|36|2 2580,0,1,0,1,0,0,0,1,0,1,0,0,0,1,2585,
scooby_state_59cdf2|62|2 2575,1,0,0,0,0,1,0,1,1,0,0,1,0,1,2581,
scooby_state_59cdf2|54|2 2576,0,0,0,0,0,0,0,0,0,0,0,0,0,0,2576,
scooby_state_59cdf2|14|2 2572,0,0,0,0,0,0,0,0,0,0,0,0,0,0,2572,
scooby_state_59cdf2|12|2 2569,0,0,0,0,0,0,0,0,0,0,0,0,0,1,2570,
scooby_state_59d4e0|7|1 2559,0,0,0,2,0,0,0,0,1,2,0,0,1,0,2565,
scooby_state_59cdf2|2|2 2561,0,0,0,1,0,1,0,0,1,0,0,0,0,0,2564,
scooby_state_59cdf2|18|2 2562,1,0,0,0,0,0,0,0,0,0,0,0,0,0,2563,
scooby_state_59cdf2|50|2 2562,0,0,0,1,0,0,0,0,0,0,0,0,0,0,2563,
scooby_state_59cdf2|16|2 2540,0,1,0,0,0,1,0,0,0,0,1,0,0,1,2544,
scooby_state_59cdf2|20|2 2534,1,1,1,0,0,1,0,1,0,0,2,0,0,0,2541,
scooby_state_59cdf2|56|2 2533,0,0,0,0,1,0,2,0,1,0,0,1,0,0,2538,
scooby_state_59cdf2|58|2 2528,0,1,1,1,0,2,0,0,0,0,0,0,1,0,2534,
scooby_state_59cdf2|52|2 2523,0,0,1,1,0,0,0,0,0,0,0,0,1,0,2526,
scooby_state_59cdf2|44|2 2515,0,0,1,0,0,0,0,0,1,0,0,2,0,0,2519,
scooby_state_59cdf2|60|2 2498,1,1,0,1,0,1,0,0,1,0,0,1,0,0,2504,
scooby_state_59cdf2|38|2 2482,0,0,0,1,0,0,0,1,0,0,0,0,0,0,2484,
scooby_state_59cdf2|32|2 2480,0,0,0,0,1,0,0,1,0,0,0,0,1,0,2483,
scooby_state_59cdf2|4|2 2472,0,1,1,0,0,1,0,0,1,1,0,2,0,0,2479,
scooby_state_59cdf2|6|2 2435,0,1,1,0,1,0,3,0,0,0,0,0,0,0,2441,
scooby_state_59d4e0|27|1 2388,0,1,0,0,0,0,0,0,0,0,0,1,1,0,2391,
scooby_state_59cdf2|8|2 2383,0,0,0,1,0,0,0,0,1,0,0,0,1,1,2387,
scooby_state_59cdf2|26|2 2317,0,0,0,0,0,1,0,0,0,0,0,0,1,0,2319,
scooby_state_59cdbf|0|0 2099,0,0,0,0,0,0,0,1,1,0,1,1,0,0,2103,
scooby_state_59d4d1|0|0 1997,0,0,1,1,0,0,0,0,0,0,1,0,0,1,2001,
scooby_state_59cde2|32|2 1940,0,1,0,1,0,0,0,0,1,0,0,0,2,1,1946,
scooby_state_59cde2|50|2 1943,0,0,0,0,0,0,1,0,0,0,0,0,0,0,1944,
scooby_state_59cdcf|31|-1 2,1932,1,0,0,0,1,0,0,0,0,0,0,0,1,1937,
scooby_state_59cde2|14|2 1933,0,0,0,0,0,0,0,0,0,1,0,1,0,0,1935,
scooby_state_59cde2|20|2 1933,0,0,0,0,0,0,0,0,0,0,1,0,0,0,1934,
scooby_state_59cdcf|49|-1 2,1923,0,0,1,0,0,1,1,0,0,0,0,0,0,1928,
scooby_state_59cdbf|54|2 1919,2,0,0,1,0,0,0,0,1,0,0,1,0,0,1924,
scooby_state_59cdbf|51|2 1917,1,1,0,0,0,0,0,0,0,1,0,0,0,0,1920,
scooby_state_59cdbf|57|2 1918,0,0,0,0,1,0,0,1,0,0,0,0,0,0,1920,
scooby_state_59d4d1|23|1 1915,0,0,0,0,0,0,0,0,0,0,0,0,0,0,1915,
scooby_state_59cdbf|63|2 1914,0,0,0,0,0,0,0,0,0,0,0,0,0,1,1915,
scooby_state_59cdcf|63|1 4,1907,0,0,1,0,0,0,0,0,0,0,0,0,0,1912,
scooby_state_59cdf2|26|1 1901,1,0,0,0,0,0,1,0,0,0,0,0,0,0,1903,
scooby_state_59cde2|16|2 1897,0,0,0,0,0,2,0,0,0,0,0,0,0,0,1899,
scooby_state_59cdbf|23|2 1893,0,0,1,0,0,1,0,0,0,1,0,1,0,0,1897,
scooby_state_59cdbf|29|2 1895,0,0,1,0,0,0,0,0,0,0,1,0,0,0,1897,
scooby_state_59cdbf|35|2 1896,0,0,0,0,1,0,0,0,0,0,0,0,0,0,1897,
scooby_state_59cdbf|40|2 1889,0,0,0,0,0,0,1,2,0,0,1,0,2,0,1895,
scooby_state_59cdbf|52|2 1890,1,0,0,0,0,0,0,1,0,0,0,0,0,2,1894,
scooby_state_59cdbf|58|2 1892,0,0,0,0,0,0,0,1,0,0,0,0,1,0,1894,
scooby_state_59cdbf|46|2 1891,0,0,0,0,0,0,0,0,2,1,0,0,0,0,1894,
scooby_state_59cde2|30|2 1885,1,0,0,0,0,0,0,1,1,0,0,0,1,0,1889,
scooby_state_59cde2|48|2 1883,0,0,0,0,0,1,0,0,0,0,0,0,0,0,1884,
scooby_state_59cdcf|29|-1 1,1879,1,0,0,0,0,1,0,0,0,0,1,0,0,1883,
scooby_state_59cde2|34|2 1877,0,1,0,0,0,0,0,2,0,1,0,0,0,1,1882,
scooby_state_59cde2|62|2 1878,0,1,1,0,0,0,0,0,0,1,0,0,0,0,1881,
scooby_state_59cdcf|47|-1 1,1871,1,1,1,1,1,1,0,1,0,2,0,0,0,1881,
scooby_state_59cd8d|38|1 1,1876,0,1,1,0,0,0,1,0,0,1,0,0,0,1881,
scooby_state_59cde2|36|2 1878,0,0,0,1,0,0,0,1,1,0,0,0,0,0,1881,
scooby_state_59cd8d|50|1 1,1878,0,0,1,0,0,0,0,0,0,1,0,0,0,1881,
scooby_state_59cd8d|56|1 1,1878,0,0,0,0,0,0,0,1,0,1,0,0,0,1881,
scooby_state_59cdf2|8|1 1879,0,0,0,0,0,0,1,0,0,0,0,0,0,0,1880,
scooby_state_59cde2|2|2 1875,0,2,0,0,0,1,0,0,1,0,0,0,0,1,1880,
scooby_state_59cdbf|24|2 1875,0,1,0,0,0,1,0,1,1,0,1,0,0,0,1880,
scooby_state_59cdbf|36|2 1878,0,1,0,0,0,0,0,0,0,0,0,0,1,0,1880,
scooby_state_59cdbf|38|2 1878,0,1,0,1,0,0,0,0,0,0,0,0,0,0,1880,
scooby_state_59cdbf|18|2 1875,0,0,0,0,1,0,0,0,1,0,1,1,0,1,1880,
scooby_state_59cdbf|42|2 1879,0,1,0,0,0,0,0,0,0,0,0,0,0,0,1880,
scooby_state_59cdbf|30|2 1876,0,1,0,0,1,1,0,0,0,0,1,0,0,0,1880,
scooby_state_59cdbf|48|2 1873,0,0,0,0,0,1,2,0,0,0,1,2,0,0,1879,
scooby_state_59cde2|5|1 1873,1,1,0,1,0,0,0,0,0,1,1,0,1,0,1879,
scooby_state_59cdbf|12|2 1867,3,0,1,1,1,3,1,0,0,1,0,0,1,0,1879,
scooby_state_59cdbf|44|2 1877,0,0,0,0,0,0,0,0,0,0,0,0,1,1,1879,
scooby_state_59cde2|4|2 1876,1,0,0,0,0,0,1,0,0,0,1,0,0,0,1879,
scooby_state_59cdbf|6|2 1875,0,1,0,0,1,0,0,0,1,0,0,0,1,0,1879,
scooby_state_59cd8d|44|1 2,1875,0,0,1,0,0,0,0,0,0,0,0,0,0,1878,
scooby_state_59cdbf|4|2 1876,0,0,0,1,0,0,0,1,0,0,0,0,0,0,1878,
scooby_state_59cdcf|35|-1 1,1875,0,0,1,0,0,0,0,0,0,0,0,0,0,1877,
scooby_state_59cdbf|50|2 1876,0,0,0,0,0,0,0,0,0,0,1,0,0,0,1877,
scooby_state_59cdbf|56|2 1870,0,0,0,0,1,2,1,1,1,0,0,0,1,0,1877,
scooby_state_59cdbf|62|2 1873,1,0,0,0,0,0,0,0,0,0,0,0,1,2,1877,
scooby_state_59cde2|18|2 1874,0,0,0,0,0,0,0,0,1,0,1,0,0,0,1876,
scooby_state_59cde2|40|2 1873,0,0,0,0,1,0,0,0,0,0,0,1,0,0,1875,
scooby_state_59cdbf|45|2 1873,0,0,0,0,0,0,0,0,0,1,1,0,0,0,1875,
scooby_state_59cdcf|39|-1 2,1860,1,0,0,0,1,1,0,0,0,1,0,0,2,1868,
scooby_state_59cdbf|22|2 1862,1,0,1,1,1,0,0,0,0,0,1,0,0,1,1868,
scooby_state_59cdbf|10|2 1868,0,0,0,0,0,0,0,0,0,0,0,0,0,0,1868,
scooby_state_59cdbf|16|2 1867,0,1,0,0,0,0,0,0,0,0,0,0,0,0,1868,
scooby_state_59cde2|21|1 1863,0,0,1,0,0,0,1,1,0,1,0,0,0,0,1867,
scooby_state_59cdbf|28|2 1862,1,0,0,0,2,0,1,0,0,0,1,0,0,0,1867,
scooby_state_59cdbf|34|2 1865,0,1,1,0,0,0,0,0,0,0,0,0,0,0,1867,
scooby_state_59cd8d|2|1 1,1865,0,0,0,1,0,0,0,0,0,0,0,0,0,1867,
scooby_state_59cd8d|42|1 2,1862,0,0,0,0,0,0,1,0,0,0,1,0,0,1866,
scooby_state_59cd8d|58|1 2,1862,0,0,1,0,0,1,0,0,0,0,0,0,0,1866,
scooby_state_59cdbf|17|2 1860,1,0,1,0,0,1,0,0,1,0,0,1,0,0,1865,
scooby_state_59cdbf|11|2 1862,0,0,1,0,0,0,0,0,1,0,0,1,0,0,1865,
scooby_state_59cdbf|5|2 1862,1,0,1,0,0,0,0,0,0,0,0,1,0,0,1865,
scooby_state_59cd8d|54|1 1,1862,0,1,0,0,0,0,0,0,1,0,0,0,0,1865,
scooby_state_59cde2|44|2 1860,1,1,0,0,0,0,0,0,2,0,0,0,0,0,1864,
scooby_state_59cd8d|40|1 2,1861,1,0,0,0,0,0,0,0,0,0,0,0,0,1864,
scooby_state_59cd8d|60|1 1,1860,0,1,0,0,0,0,0,1,0,0,1,0,0,1864,
scooby_state_59cd8d|62|1 1,1860,0,0,0,0,1,0,0,0,1,0,0,0,0,1863,
scooby_state_59cd8d|48|1 1,1856,0,0,1,0,1,2,0,0,0,1,0,0,0,1862,
scooby_state_59cd8d|34|1 3,1852,1,0,0,0,3,0,0,0,0,0,0,1,1,1861,
scooby_state_59cd8d|46|1 2,1856,0,0,0,0,0,0,0,1,1,0,1,0,0,1861,
scooby_state_59d4d1|3|1 1858,0,0,1,0,0,0,1,0,0,0,0,0,0,1,1861,
scooby_state_59cd8d|52|1 2,1854,3,0,0,0,0,0,0,0,0,0,0,0,1,1860,
scooby_state_59d4d1|9|1 1854,0,0,0,1,0,1,2,0,0,0,0,0,0,0,1858,
scooby_state_59d4d1|11|1 1854,0,0,1,0,0,0,0,1,0,1,1,0,0,0,1858,
scooby_state_59cdcf|43|-1 2,1850,0,0,0,0,1,1,0,0,1,1,0,0,0,1856,
scooby_state_59cde2|28|2 1848,2,0,0,1,0,0,0,1,0,0,0,0,0,1,1853,
scooby_state_59cdbf|7|2 1851,0,0,0,1,0,0,0,0,0,0,0,0,0,1,1853,
scooby_state_59cde2|52|2 1851,1,0,0,0,0,0,0,0,0,0,0,0,1,0,1853,
scooby_state_59cde2|56|2 1846,0,0,0,0,1,3,0,1,0,0,1,0,0,1,1853,
scooby_state_59cdcf|61|-1 2,1849,0,0,0,0,0,0,1,0,0,0,0,0,0,1852,
scooby_state_59cdbf|47|2 1849,0,0,0,0,2,0,0,1,0,0,0,0,0,0,1852,
scooby_state_59cdbf|59|2 1851,0,0,0,1,0,0,0,0,0,0,0,0,0,0,1852,
scooby_state_59cdbf|41|2 1852,0,0,0,0,0,0,0,0,0,0,0,0,0,0,1852,
scooby_state_59cdbf|53|2 1849,0,0,0,0,0,0,0,0,1,0,0,1,1,0,1852,
scooby_state_59cd8d|32|1 1,1848,0,0,0,0,1,0,0,1,0,0,0,0,0,1851,
scooby_state_59cdcf|51|-1 2,1847,0,0,0,0,0,0,1,0,1,0,0,0,0,1851,
scooby_state_59cdbf|13|2 1849,0,0,1,0,0,0,0,0,0,0,0,0,1,0,1851,
scooby_state_59cdcf|55|-1 3,1846,0,0,1,0,0,1,0,0,0,0,0,0,0,1851,
scooby_state_59cdbf|19|2 1848,0,1,0,0,0,1,0,0,1,0,0,0,0,0,1851,
scooby_state_59d4d1|33|2 1847,0,1,0,0,1,0,0,0,0,1,0,0,0,0,1850,
scooby_state_59cdf2|6|1 1848,0,1,0,0,0,0,0,0,0,0,0,0,0,0,1849,
scooby_state_59cde2|15|1 1840,0,0,1,1,1,0,0,1,0,0,0,1,0,0,1845,
scooby_state_59cdcf|19|-1 1,1839,0,0,0,0,0,1,0,0,0,0,1,0,1,1843,
scooby_state_59d4d1|7|1 1841,0,0,0,0,0,0,0,0,0,0,0,0,0,0,1841,
scooby_state_59cde2|26|2 1834,0,2,0,0,0,0,0,0,0,0,0,1,1,1,1839,
scooby_state_59d4d1|31|2 1836,0,0,0,0,0,0,0,0,0,0,1,0,0,1,1838,
scooby_state_59cdbf|2|2 1833,1,0,0,2,0,0,0,0,0,0,0,1,0,0,1837,
scooby_state_59cdbf|60|2 1836,0,0,0,0,1,0,0,0,0,0,0,0,0,0,1837,
scooby_state_59cde2|46|2 1835,0,0,1,0,0,1,0,0,0,0,0,0,0,0,1837,
scooby_state_59d4d1|49|2 1834,0,0,0,0,0,1,0,0,0,0,1,0,1,0,1837,
scooby_state_59cdbf|8|2 1835,0,1,0,1,0,0,0,0,0,0,0,0,0,0,1837,
scooby_state_59cdbf|26|2 1832,0,0,0,0,1,0,1,0,1,0,1,0,0,0,1836,
scooby_state_59cdbf|32|2 1834,1,0,0,0,0,1,0,0,0,0,0,0,0,0,1836,
scooby_state_59cdbf|14|2 1836,0,0,0,0,0,0,0,0,0,0,0,0,0,0,1836,
scooby_state_59cdbf|20|2 1831,1,1,1,0,0,0,0,0,1,0,1,0,0,0,1836,
scooby_state_59cdcf|15|-1 2,1831,0,0,0,0,1,0,0,0,0,0,0,0,2,1836,
scooby_state_59cdcf|13|-1 1,1830,1,0,0,1,1,0,0,0,0,0,0,0,1,1835,
scooby_state_59cde2|8|2 1834,0,0,0,0,0,0,0,0,0,0,0,0,0,0,1834,
scooby_state_59cde2|38|2 1830,0,0,0,0,0,1,0,0,0,1,0,0,0,0,1832,
scooby_state_59cdcf|45|-1 2,1827,0,0,0,1,1,0,0,1,0,0,0,0,0,1832,
scooby_state_59d4d1|37|2 1826,0,1,0,0,1,0,1,1,1,0,0,0,0,1,1832,
scooby_state_59cde2|53|1 1827,0,0,1,0,0,0,0,0,0,0,2,0,1,0,1831,
scooby_state_59cdf2|4|1 1827,0,1,1,0,0,0,0,0,0,1,0,0,0,0,1830,
scooby_state_59cd8d|0|0 4,1822,0,0,0,0,0,0,1,0,0,0,0,0,0,1827,
scooby_state_59cdcf|37|-1 3,1821,0,0,0,0,1,0,0,0,0,0,0,0,1,1826,
scooby_state_59cdbf|49|2 1823,1,0,0,0,0,0,0,0,0,0,0,0,0,0,1824,
scooby_state_59cdbf|43|2 1822,0,0,0,0,0,0,1,1,0,0,0,0,0,0,1824,
scooby_state_59cde2|12|2 1820,1,0,0,0,1,0,0,0,0,1,0,0,0,0,1823,
scooby_state_59cdbf|55|2 1815,0,1,0,1,2,2,0,0,0,1,0,0,0,0,1822,
scooby_state_59cde2|9|1 1819,1,0,0,1,0,0,0,0,0,0,0,0,0,1,1822,
scooby_state_59cde2|59|1 1813,0,0,0,0,1,0,0,0,0,1,0,0,0,2,1817,
scooby_state_59cde2|60|2 1813,0,0,0,0,0,0,2,0,0,0,0,0,1,0,1816,
scooby_state_59cde2|24|2 1810,0,0,0,0,0,0,1,0,0,0,1,1,0,0,1813,
scooby_state_59d4d1|29|1 1807,0,0,1,0,1,0,0,2,0,0,0,0,1,0,1812,
scooby_state_59cdbf|1|0 1805,0,0,0,0,0,1,0,1,1,0,0,1,1,1,1811,
scooby_state_59cdcf|59|-1 1,1806,1,0,0,0,0,0,0,1,0,0,1,0,0,1810,
scooby_state_59cdf2|16|1 1807,0,1,0,0,1,0,0,0,0,0,0,0,0,1,1810,
scooby_state_59cd8d|28|1 2,1802,0,0,0,0,1,1,0,1,0,0,1,0,0,1808,
scooby_state_59cde2|37|1 1805,0,1,0,0,0,1,0,0,1,0,0,0,0,0,1808,
scooby_state_59d4d1|53|2 1803,0,0,1,0,0,1,0,1,0,1,0,0,0,0,1807,
scooby_state_59d4d1|51|2 1805,0,0,0,0,0,0,0,0,1,0,0,1,0,0,1807,
scooby_state_59d4d1|13|1 1801,0,1,0,0,0,0,0,2,0,0,1,1,0,0,1806,
scooby_state_59cdbf|25|2 1805,0,0,0,0,0,0,0,0,0,1,0,0,0,0,1806,
scooby_state_59cdcf|27|-1 2,1797,0,0,0,1,0,1,0,0,0,0,1,2,2,1806,
scooby_state_59cdbf|31|2 1802,1,0,0,0,0,1,0,0,0,0,1,0,0,0,1805,
scooby_state_59d4d1|35|1 1795,0,1,0,0,0,1,0,1,2,0,1,0,0,0,1801,
scooby_state_59cd8d|26|1 2,1790,1,0,0,0,0,0,1,0,0,0,1,0,0,1795,
scooby_state_59cde2|57|1 1791,0,0,0,0,2,0,2,0,0,0,0,0,0,0,1795,
scooby_state_59d4d1|47|2 1791,0,0,1,0,0,0,0,0,1,0,1,0,0,0,1794,
scooby_state_59cde2|27|1 1791,0,0,1,0,0,0,0,1,0,0,0,0,0,1,1794,
scooby_state_59cde2|63|1 1790,1,0,0,0,0,0,0,0,1,0,0,0,0,1,1793,
scooby_state_59cde2|22|2 1790,0,0,0,0,0,0,0,0,0,0,1,0,0,0,1791,
scooby_state_59d4d1|19|1 1786,0,0,0,0,0,0,1,0,2,1,0,0,0,0,1790,
scooby_state_59cde2|42|2 1782,0,1,1,0,0,0,0,0,2,0,1,0,0,0,1787,
scooby_state_59d4d1|41|2 1786,0,0,0,0,0,0,0,0,0,0,0,0,0,0,1786,
scooby_state_59cdbf|33|2 1777,0,2,1,1,1,0,0,0,1,0,0,0,2,0,1785,
scooby_state_59cdbf|21|2 1777,1,0,0,0,0,0,1,0,0,0,1,2,2,1,1785,
scooby_state_59cdbf|39|2 1784,0,0,0,0,0,0,1,0,0,0,0,0,0,0,1785,
scooby_state_59cdbf|61|2 1782,0,0,0,0,0,1,1,0,0,0,0,1,0,0,1785,
scooby_state_59cdbf|3|2 1780,0,1,0,0,1,0,0,0,0,0,0,1,1,1,1785,
scooby_state_59cdbf|9|2 1782,0,0,0,1,0,1,0,0,0,0,1,0,0,0,1785,
scooby_state_59cdbf|27|2 1781,0,0,2,0,0,1,0,1,0,0,0,0,0,0,1785,
scooby_state_59cdbf|15|2 1779,0,0,1,0,1,1,0,1,1,0,0,0,0,1,1785,
scooby_state_59cde2|7|1 1781,0,0,1,1,0,0,0,1,0,0,0,0,0,0,1784,
scooby_state_59d4d1|55|1 1780,0,2,0,0,0,0,0,1,0,0,0,1,0,0,1784,
scooby_state_59cde2|11|1 1778,0,1,1,0,0,0,1,0,0,0,0,0,0,1,1782,
scooby_state_59cde2|10|2 1779,0,0,0,0,0,1,0,0,0,1,0,0,0,0,1781,
scooby_state_59cdcf|41|-1 1,1777,1,0,0,0,1,0,0,0,0,0,1,0,0,1781,
scooby_state_59cdbf|37|2 1774,0,1,0,0,0,1,1,2,1,0,0,0,0,0,1780,
scooby_state_59d4d1|27|1 1775,2,2,0,0,0,0,0,0,0,0,0,0,0,0,1779,
scooby_state_59cd8d|16|1 2,1776,0,0,1,0,0,0,0,0,0,0,0,0,0,1779,
scooby_state_59cd8d|22|1 2,1775,0,0,0,0,0,0,0,1,0,0,0,1,0,1779,
scooby_state_59cde2|39|1 1779,0,0,0,0,0,0,0,0,0,0,0,0,0,0,1779,
scooby_state_59cdcf|3|-1 2,1772,1,0,1,0,0,0,0,0,0,1,0,1,0,1778,
scooby_state_59cdcf|25|-1 2,1770,1,1,0,0,1,0,0,2,0,0,0,0,0,1777,
scooby_state_59cdcf|33|-1 2,1772,1,0,1,0,0,0,0,0,0,0,0,0,0,1776,
scooby_state_59d4d1|59|1 1773,0,0,0,1,0,0,0,0,0,0,0,0,0,0,1774,
scooby_state_59cde2|6|2 1773,0,0,0,0,0,0,0,0,0,0,1,0,0,0,1774,
scooby_state_59cd8d|12|1 3,1760,1,0,0,0,1,0,1,1,1,0,0,0,0,1768,
scooby_state_59d4d1|61|2 1763,0,0,0,0,1,0,1,0,0,0,1,0,0,1,1767,
scooby_state_59d4d1|45|2 1766,0,0,0,0,0,0,1,0,0,0,0,0,0,0,1767,
scooby_state_59d4d1|63|2 1763,0,0,0,0,0,0,2,0,0,0,0,1,1,0,1767,
scooby_state_59d4d1|25|1 1763,0,0,0,0,0,1,0,1,1,0,0,0,0,1,1767,
scooby_state_59cdf2|60|1 1763,0,0,0,0,0,1,1,0,0,0,0,0,0,1,1766,
scooby_state_59cde2|17|1 1760,1,0,0,2,0,0,0,1,0,0,1,1,0,0,1766,
scooby_state_59cde2|55|1 1764,0,0,0,1,0,0,0,0,0,0,0,0,0,0,1765,
scooby_state_59cd8d|18|1 2,1761,0,1,0,0,0,0,0,0,0,0,0,0,0,1764,
scooby_state_59cd8d|36|1 2,1757,0,0,0,0,0,0,0,0,2,1,1,1,0,1764,
scooby_state_59d4d1|43|1 1763,0,0,0,0,0,0,0,0,0,1,0,0,0,0,1764,
scooby_state_59d4d1|57|2 1753,0,0,0,2,0,2,1,1,2,1,1,0,0,0,1763,
scooby_state_59cde2|54|2 1758,1,1,0,1,1,0,0,0,0,0,0,0,0,0,1762,
scooby_state_59cde2|3|1 1758,0,0,0,0,0,1,0,1,0,0,1,0,1,0,1762,
scooby_state_59cde2|35|1 1758,0,0,1,0,0,0,0,1,0,1,0,0,0,0,1761,
scooby_state_59cde2|31|1 1756,0,0,0,0,0,1,0,1,0,1,0,0,1,0,1760,
scooby_state_59cdcf|53|-1 2,1754,0,0,0,0,1,1,0,0,0,0,0,1,0,1759,
scooby_state_59d4d1|15|2 1750,0,1,0,1,1,0,1,1,1,0,0,1,0,0,1757,
scooby_state_59cd8d|8|1 2,1754,0,0,0,0,0,0,0,0,1,0,0,0,0,1757,
scooby_state_59cdf2|22|1 1753,1,0,0,0,1,0,0,0,0,2,0,0,0,0,1757,
scooby_state_59cde2|58|2 1753,1,0,0,1,0,0,0,1,1,0,0,0,0,0,1757,
scooby_state_59d4d1|21|2 1752,2,1,0,0,1,0,0,0,0,0,0,0,0,1,1757,
scooby_state_59cde2|33|1 1752,0,0,0,0,1,0,0,0,1,0,0,0,0,0,1754,
scooby_state_59cdcf|57|-1 3,1747,0,0,0,0,0,0,2,0,1,1,0,0,0,1754,
scooby_state_59cde2|51|1 1746,0,1,0,0,0,0,1,1,0,0,0,1,1,0,1751,
scooby_state_59cdcf|23|-1 2,1748,0,0,0,0,0,0,0,0,1,0,0,0,0,1751,
scooby_state_59cde2|23|1 1748,1,0,0,0,0,0,1,0,0,0,0,0,0,1,1751,
scooby_state_59cde2|25|1 1745,0,0,1,0,0,0,0,1,2,0,0,0,0,1,1750,
scooby_state_59d4d1|41|1 1747,1,0,0,0,0,0,0,0,0,0,1,0,0,1,1750,
scooby_state_59cd8d|14|1 3,1743,0,1,0,0,0,0,0,1,0,1,0,0,0,1749,
scooby_state_59cde2|47|1 1745,0,0,0,1,0,0,0,1,0,0,0,0,1,0,1748,
scooby_state_59d4d1|17|2 1745,0,0,0,0,1,1,0,0,0,0,0,1,0,0,1748,
scooby_state_59cd8d|10|1 2,1744,0,0,0,0,0,0,0,0,0,0,0,1,0,1747,
scooby_state_59d4d1|5|1 1739,2,0,0,0,2,0,0,1,0,0,1,1,0,0,1746,
scooby_state_59d4d1|17|1 1742,0,0,0,1,0,0,0,0,0,0,0,0,0,1,1744,
scooby_state_59cd8d|30|1 3,1737,0,1,0,0,0,0,0,0,0,0,0,0,1,1742,
scooby_state_59cdf2|54|1 1737,0,0,0,0,0,0,1,0,0,0,0,1,1,0,1740,
scooby_state_59d4d1|39|2 1740,0,0,0,0,0,0,0,0,0,0,0,0,0,0,1740,
scooby_state_59cde2|41|1 1738,1,0,0,0,0,0,0,0,0,0,1,0,0,0,1740,
scooby_state_59cdf2|32|1 1737,0,0,0,0,0,0,1,0,0,1,0,0,0,0,1739,
scooby_state_59cd8d|6|1 2,1731,2,0,0,0,0,1,1,0,0,0,0,0,1,1738,
scooby_state_59d4d1|43|2 1732,0,0,0,1,1,1,0,0,0,0,0,0,2,0,1737,
scooby_state_59cdf2|28|1 1729,0,2,0,0,1,0,1,0,0,0,1,0,1,1,1736,
scooby_state_59cdf2|52|1 1729,0,0,0,0,0,0,0,1,0,0,1,0,0,0,1731,
scooby_state_59cdf2|10|1 1729,0,0,1,0,1,0,0,0,0,0,0,0,0,0,1731,
scooby_state_59cde2|19|1 1729,0,0,0,0,0,0,1,0,0,0,0,1,0,0,1731,
scooby_state_59cdf2|62|1 1728,0,1,0,0,0,0,0,0,0,0,0,1,0,0,1730,
scooby_state_59d4d1|39|1 1727,0,1,0,0,0,0,0,0,0,0,0,0,0,0,1728,
scooby_state_59cdcf|17|-1 2,1725,0,0,0,0,0,0,0,0,0,1,0,0,0,1728,
scooby_state_59cdf2|34|1 1724,0,0,1,0,0,0,1,0,0,0,0,0,0,1,1727,
scooby_state_59cde2|43|1 1724,0,0,0,0,0,0,0,0,0,0,1,1,0,1,1727,
scooby_state_59cde2|1|1 1725,1,0,0,0,0,0,0,1,0,0,0,0,0,0,1727,
scooby_state_59cdf2|48|1 1722,1,0,0,1,0,0,0,0,0,0,0,1,1,0,1726,
scooby_state_59cde2|61|1 1723,1,0,1,0,0,0,0,0,0,1,0,0,0,0,1726,
scooby_state_59cdf2|18|1 1722,1,0,0,0,0,0,0,0,0,0,0,1,0,1,1725,
scooby_state_59d4d1|15|1 1722,0,0,0,0,0,0,0,0,0,0,0,0,0,1,1723,
scooby_state_59cdcf|9|-1 2,1718,0,0,0,0,0,0,0,1,0,1,0,0,0,1722,
scooby_state_59cdf2|40|1 1716,0,1,0,0,0,0,0,2,1,0,0,0,0,0,1720,
scooby_state_59cdf2|12|1 1715,0,0,0,0,2,0,0,0,1,0,0,0,0,1,1719,
scooby_state_59d4d1|61|1 1717,0,0,0,1,0,0,0,0,0,0,1,0,0,0,1719,
scooby_state_59d4d1|55|2 1715,0,0,0,0,0,0,0,0,0,1,0,0,0,0,1716,
scooby_state_59cdf2|58|1 1715,0,1,0,0,0,0,0,0,0,0,0,0,0,0,1716,
scooby_state_59cde2|29|1 1713,1,0,0,1,0,0,0,0,0,0,0,0,0,0,1715,
scooby_state_59cde2|13|1 1709,0,0,1,1,0,0,0,0,1,0,0,0,1,1,1714,
scooby_state_59d4d1|21|1 1708,1,0,0,0,0,0,1,0,1,0,0,0,0,0,1711,
scooby_state_59d4d1|59|2 1709,0,1,0,0,0,1,0,0,0,0,0,0,0,0,1711,
scooby_state_59cdcf|11|-1 2,1706,0,1,1,0,0,0,0,0,0,0,0,0,0,1710,
scooby_state_59cdf2|20|1 1709,0,0,0,0,0,0,0,0,0,1,0,0,0,0,1710,
scooby_state_59cd8d|20|1 1,1705,0,0,1,0,1,0,0,0,0,0,0,1,0,1709,
scooby_state_59d4d1|25|2 1703,0,1,1,0,0,1,0,0,0,1,0,0,0,0,1707,
scooby_state_59cdf2|38|1 1702,0,0,2,0,0,0,0,0,1,0,0,0,0,0,1705,
scooby_state_59cdf2|2|1 1702,0,2,0,0,0,0,0,0,0,0,0,0,0,1,1705,
scooby_state_59d4d1|57|1 1702,0,0,0,0,0,0,0,0,0,0,0,0,1,0,1703,
scooby_state_59d4d1|5|2 1698,0,1,0,1,0,0,0,0,0,0,1,0,1,0,1702,
scooby_state_59d4d1|45|1 1700,0,0,0,0,1,0,0,0,0,0,0,0,0,0,1701,
scooby_state_59cd8d|24|1 2,1693,1,0,0,0,1,0,0,0,0,0,0,1,0,1698,
scooby_state_59cdf2|36|1 1694,1,0,0,0,0,0,0,0,0,0,1,0,0,0,1696,
scooby_state_59cde2|49|1 1693,0,0,0,0,0,0,0,0,0,0,1,1,0,0,1695,
scooby_state_59d4d1|47|1 1694,0,0,0,0,0,0,1,0,0,0,0,0,0,0,1695,
scooby_state_59cdf2|14|1 1689,0,0,0,2,0,0,0,0,0,0,0,1,0,0,1692,
scooby_state_59d4d1|35|2 1686,1,0,0,1,0,0,0,0,0,0,2,0,1,0,1691,
scooby_state_59cdf2|56|1 1688,0,0,0,0,1,0,1,0,0,0,0,0,0,0,1690,
scooby_state_59d4d1|27|2 1687,0,0,0,0,1,0,1,0,0,0,0,0,0,0,1689,
scooby_state_59d4d1|19|2 1686,0,0,0,0,0,0,0,0,0,0,0,0,0,0,1686,
scooby_state_59d4d1|63|1 1680,1,0,0,0,0,0,0,0,0,0,1,0,0,0,1682,
scooby_state_59cdcf|5|-1 2,1677,0,1,0,0,0,0,0,0,0,0,0,1,0,1681,
scooby_state_59d4d1|29|2 1679,0,0,1,0,0,0,0,0,0,0,0,0,0,0,1680,
scooby_state_59d4d1|53|1 1675,0,0,0,0,0,0,0,0,0,0,0,1,2,1,1679,
scooby_state_59cde2|45|1 1669,1,0,0,0,0,0,0,3,0,0,0,0,1,0,1674,
scooby_state_59d4d1|13|2 1667,0,0,0,0,0,0,1,0,1,0,1,0,0,0,1670,
scooby_state_59cdf2|24|1 1664,0,0,0,1,0,0,0,2,0,0,0,0,1,0,1668,
scooby_state_59cdf2|30|1 1666,0,0,0,0,0,1,0,0,0,1,0,0,0,0,1668,
scooby_state_59cdf2|44|1 1668,0,0,0,0,0,0,0,0,0,0,0,0,0,0,1668,
scooby_state_59cdf2|50|1 1661,0,0,0,2,0,0,1,0,1,0,0,1,0,0,1666,
scooby_state_59d4d1|49|1 1658,1,0,1,0,1,0,0,1,0,0,0,1,0,0,1663,
scooby_state_59cdcf|21|-1 2,1658,0,2,0,0,0,0,0,0,0,0,0,0,1,1663,
scooby_state_59cdcf|1|-1 1,1659,1,0,0,0,0,0,0,0,0,1,0,0,0,1662,
scooby_state_59cdf2|46|1 1657,0,0,0,1,0,0,0,0,0,0,0,1,0,0,1659,
scooby_state_59d4d1|51|1 1658,0,0,0,0,0,0,0,0,0,1,0,0,0,0,1659,
scooby_state_59cdcf|7|-1 1,1655,0,1,0,0,0,0,0,0,0,0,0,0,0,1657,
scooby_state_59cdcb|32|1 1651,1,0,0,3,1,0,0,0,0,0,0,0,0,0,1656,
scooby_state_59cdcb|38|1 1653,0,0,0,0,0,0,1,1,0,1,0,0,0,0,1656,
scooby_state_59cdcb|14|1 1652,0,1,0,0,0,0,0,0,0,1,1,0,0,1,1656,
scooby_state_59cdcb|20|1 1654,1,0,0,0,0,0,0,0,0,0,0,1,0,0,1656,
scooby_state_59cdcb|8|1 1653,1,0,0,0,1,1,0,0,0,0,0,0,0,0,1656,
scooby_state_59cd8d|4|1 1,1652,0,0,0,0,1,0,1,0,0,1,0,0,0,1656,
scooby_state_59cdcb|26|1 1654,0,0,0,0,1,0,1,0,0,0,0,0,0,0,1656,
scooby_state_59cdcb|44|1 1652,0,0,0,0,2,0,0,1,0,0,0,0,0,0,1655,
scooby_state_59cdf2|42|1 1646,0,0,0,0,0,0,0,0,1,0,0,0,0,0,1647,
scooby_state_59d4d1|7|2 1643,0,0,0,0,0,0,0,0,0,1,1,0,0,0,1645,
scooby_state_59d4d1|37|1 1637,0,1,0,0,0,0,0,0,0,1,1,1,0,0,1641,
scooby_state_59d4d1|11|2 1630,1,0,1,0,0,0,0,0,0,0,0,2,1,0,1635,
scooby_state_59d4d1|31|1 1634,0,0,0,0,0,0,0,0,0,0,1,0,0,0,1635,
scooby_state_59d4d1|9|2 1621,0,0,0,0,0,0,0,0,1,1,0,1,0,0,1624,
scooby_state_59d4d1|3|2 1623,0,0,0,0,0,0,0,0,0,0,0,0,0,0,1623,
scooby_state_59d4d1|33|1 1618,0,0,0,0,0,0,0,0,0,0,0,0,0,0,1618,
scooby_state_59cdcb|60|1 1606,1,0,0,0,1,1,1,0,1,0,1,0,0,0,1612,
scooby_state_59cdcb|2|1 1610,0,0,0,0,0,0,0,0,1,0,0,0,0,0,1611,
scooby_state_59cdcb|50|1 1605,0,0,0,1,0,0,0,1,0,0,0,1,1,0,1609,
scooby_state_59cdcb|10|1 1605,0,1,1,0,0,0,0,0,0,0,0,0,1,0,1608,
scooby_state_59cdcb|56|1 1603,1,0,1,0,2,0,1,0,0,0,0,0,0,0,1608,
scooby_state_59cdcb|62|1 1606,0,0,0,0,0,0,0,0,0,0,1,0,0,1,1608,
scooby_state_59cdcb|4|1 1605,0,0,0,0,0,0,0,0,0,1,0,1,0,1,1608,
scooby_state_59cdcb|16|1 1602,0,0,0,2,0,0,2,0,0,2,0,0,0,0,1608,
scooby_state_59cdcb|52|1 1601,0,0,0,0,0,0,2,1,1,0,0,0,1,0,1606,
scooby_state_59cdcb|22|1 1603,1,0,0,0,0,0,0,0,1,0,0,1,0,0,1606,
scooby_state_59cdcb|46|1 1602,0,0,1,0,0,0,0,1,0,0,0,1,1,0,1606,
scooby_state_59cdcb|58|1 1603,0,1,0,0,0,0,0,0,0,1,0,1,0,0,1606,
scooby_state_59cdcb|28|1 1606,0,0,0,0,0,0,0,0,0,0,0,0,0,0,1606,
scooby_state_59cdcb|34|1 1602,0,0,0,0,1,0,1,0,0,1,0,0,0,1,1606,
scooby_state_59cdcb|40|1 1601,0,0,0,0,0,0,2,0,0,0,0,1,1,1,1606,
scooby_state_59cdcb|0|0 1602,0,0,0,0,0,0,0,1,1,1,0,0,0,0,1605,
scooby_state_59cdcb|6|1 1599,0,0,1,0,0,0,0,0,0,0,0,2,0,1,1603,
scooby_state_59cdcb|12|1 1598,0,0,1,0,0,0,0,0,2,0,0,0,0,0,1601,
scooby_state_59cdcb|30|1 1585,0,1,0,0,0,1,0,1,0,0,0,0,0,0,1588,
scooby_state_59cdcb|24|1 1588,0,0,0,0,0,0,0,0,0,0,0,0,0,0,1588,
scooby_state_59cdcb|18|1 1585,0,0,0,0,0,0,0,0,0,0,0,1,1,1,1588,
scooby_state_59cdcb|42|1 1584,0,0,0,1,1,0,0,0,0,1,1,0,0,0,1588,
scooby_state_59cdcb|36|1 1585,0,1,0,0,0,0,0,0,0,0,0,1,1,0,1588,
scooby_state_59cdcb|54|1 1583,1,0,0,0,1,0,1,0,1,0,0,0,0,0,1587,
scooby_state_59cdcb|48|1 1584,0,0,1,0,0,1,0,1,0,0,0,0,0,0,1587,
scooby_state_59d4d1|23|2 1572,0,0,0,0,1,0,1,0,1,1,0,0,0,1,1577,
scooby_state_59cd8d|61|1 0,1252,0,0,0,0,0,1,0,0,0,0,0,1,1,1255,
scooby_state_59cd8d|49|1 0,1252,0,0,0,0,0,1,1,0,0,0,0,0,0,1254,
scooby_state_59cd8d|55|1 0,1254,0,0,0,0,0,0,0,0,0,0,0,0,0,1254,
scooby_state_59d4d1|2|2 1243,0,0,0,1,0,0,0,0,0,0,0,0,0,0,1244,
scooby_state_59d4d1|48|2 1238,0,2,0,0,0,0,0,0,0,0,0,0,1,0,1241,
scooby_state_59cd8d|57|1 0,1235,0,0,0,0,0,2,0,0,0,0,0,0,0,1237,
scooby_state_59cd8d|35|1 0,1232,0,0,0,0,0,0,0,0,0,1,0,0,0,1233,
scooby_state_59d4d1|60|2 1212,0,0,0,0,0,0,0,0,0,0,0,1,0,1,1214,
scooby_state_59cd8d|37|1 0,1201,0,0,0,0,0,0,0,0,0,0,0,1,1,1203,
scooby_state_59cd8d|51|1 0,1194,0,0,0,0,0,0,0,0,0,0,0,0,0,1194,
scooby_state_59cd8d|45|1 0,1193,0,0,0,0,0,1,0,0,0,0,0,0,0,1194,
scooby_state_59d4d1|62|2 1192,0,0,0,1,0,0,0,0,0,0,0,0,0,0,1193,
scooby_state_59cd8d|63|1 0,1190,1,0,0,1,0,0,0,0,0,0,0,0,1,1193,
scooby_state_59cd8d|39|1 1,1188,0,0,0,0,0,0,0,0,0,0,0,0,0,1189,
scooby_state_59cd8d|3|1 0,1181,0,0,0,0,0,0,0,0,0,0,1,0,0,1182,
scooby_state_59d4d1|50|2 1171,0,1,0,0,1,0,0,0,1,1,0,0,0,0,1175,
scooby_state_59d4d1|54|2 1171,1,0,0,0,0,0,0,1,0,0,0,0,0,0,1173,
scooby_state_59d4d1|34|2 1169,0,0,1,0,0,0,0,0,0,0,0,0,0,0,1170,
scooby_state_59cd8d|1|1 0,1164,1,0,0,0,0,1,0,0,0,0,0,0,1,1167,
scooby_state_59cd8d|53|1 1,1166,0,0,0,0,0,0,0,0,0,0,0,0,0,1167,
scooby_state_59cd8d|59|1 0,1165,0,0,0,0,0,1,0,1,0,0,0,0,0,1167,
scooby_state_59d4d1|32|2 1163,0,0,0,0,0,0,1,0,0,0,0,0,0,0,1164,
scooby_state_59cd8d|27|1 0,1162,0,0,0,0,0,0,0,0,0,0,0,0,0,1162,
scooby_state_59cd8d|47|1 0,1162,0,0,0,0,0,0,0,0,0,0,0,0,0,1162,
scooby_state_59cd8d|43|1 0,1159,0,0,0,1,0,0,0,0,1,0,0,0,1,1162,
scooby_state_59cd8d|41|1 0,1161,0,0,0,0,0,0,0,1,0,0,0,0,0,1162,
scooby_state_59d4d1|46|2 1154,0,0,0,0,0,0,1,0,0,0,1,0,1,0,1157,
scooby_state_59d4d1|52|2 1157,0,0,0,0,0,0,0,0,0,0,0,0,0,0,1157,
scooby_state_59cd8d|7|1 0,1154,0,0,1,0,0,0,0,0,0,0,0,0,0,1155,
scooby_state_59cd8d|5|1 0,1149,1,0,0,1,0,0,0,0,0,0,0,0,0,1151,
scooby_state_59d4d1|56|2 1147,1,0,0,0,0,0,0,1,0,0,0,0,0,0,1149,
scooby_state_59d4d1|36|2 1145,0,0,0,0,1,0,0,1,1,0,0,0,0,0,1148,
scooby_state_59d4d1|44|2 1143,0,0,0,0,0,0,0,0,0,0,0,0,2,0,1145,
scooby_state_59d4d1|4|2 1140,0,0,0,0,1,0,0,0,0,0,0,0,0,0,1141,
scooby_state_59cd8d|17|1 0,1135,0,1,0,1,0,0,0,0,0,1,0,0,0,1138,
scooby_state_59cd8d|29|1 0,1134,0,0,0,0,0,0,0,0,0,0,0,0,1,1135,
scooby_state_59cd8d|33|1 0,1131,0,0,0,0,1,0,0,0,0,0,1,0,0,1133,
scooby_state_59cd8d|21|1 0,1125,0,0,0,0,0,0,0,0,0,0,0,0,0,1125,
scooby_state_59cd8d|25|1 0,1118,0,0,0,0,0,0,0,0,1,0,0,0,0,1119,
scooby_state_59d4d1|10|1 1112,0,0,0,0,0,0,0,0,0,0,1,0,1,0,1114,
scooby_state_59d4d1|40|2 1112,0,0,0,0,0,0,0,0,1,0,0,0,0,0,1113,
scooby_state_59d4d1|16|2 1110,2,0,0,0,0,0,0,0,1,0,0,0,0,0,1113,
scooby_state_59cd8d|9|1 0,1102,0,0,0,0,0,0,0,0,0,0,0,0,0,1102,
scooby_state_59d4d1|14|1 1098,0,0,0,1,0,0,0,1,0,0,0,0,0,0,1100,
scooby_state_59d4d1|38|2 1097,0,0,0,0,0,0,0,0,0,1,0,0,0,1,1099,
scooby_state_59d4d1|58|2 1092,0,0,0,0,1,0,0,0,0,0,0,0,0,1,1094,
scooby_state_59d4d1|20|2 1091,0,0,1,0,1,0,0,0,0,0,0,0,0,0,1093,
scooby_state_59cd8d|23|1 1,1087,0,0,0,1,0,0,0,0,0,0,0,0,0,1089,
scooby_state_59cd8d|19|1 0,1083,0,0,0,0,0,0,0,0,0,0,1,0,0,1084,
scooby_state_59cd8d|13|1 0,1080,0,0,0,1,0,0,0,0,0,1,0,0,0,1082,
scooby_state_59d4d1|42|2 1075,0,1,0,0,0,0,0,0,0,1,0,0,1,0,1078,
scooby_state_59cd8d|31|1 0,1074,0,0,0,0,0,0,0,0,0,0,0,1,0,1075,
scooby_state_59d4d1|26|2 1073,1,0,0,0,0,0,1,0,0,0,0,0,0,0,1075,
scooby_state_59d4d1|28|2 1071,0,0,0,1,0,0,0,0,0,0,0,0,0,0,1072,
scooby_state_59d4d1|18|2 1053,0,0,0,0,0,0,0,1,0,0,0,0,0,0,1054,
scooby_state_59d4d1|8|2 1046,0,0,1,0,0,0,0,0,0,0,0,0,0,0,1047,
scooby_state_59cd8d|11|1 0,1045,1,0,0,0,0,0,0,0,0,1,0,0,0,1047,
scooby_state_59cde2|54|1 1042,0,0,0,1,0,0,1,1,0,0,0,0,0,1,1046,
scooby_state_59d4d1|24|2 1043,0,1,0,1,0,1,0,0,0,0,0,0,0,0,1046,
scooby_state_59d4d1|26|1 1042,1,0,0,0,0,0,0,1,0,0,0,0,0,0,1044,
scooby_state_59cde2|58|1 1035,2,0,0,0,0,0,1,0,0,1,0,1,0,0,1040,
scooby_state_59d4d1|8|1 1036,0,0,0,0,1,0,0,0,0,0,2,1,0,0,1040,
scooby_state_59d4d1|22|1 1032,1,1,1,0,0,0,0,1,0,0,0,0,0,0,1036,
scooby_state_59d4d1|30|2 1033,0,0,0,0,0,0,0,0,0,0,0,0,0,0,1033,
scooby_state_59d4d1|22|2 1032,0,0,1,0,0,0,0,0,0,0,0,0,0,0,1033,
scooby_state_59d4d1|6|2 1027,0,0,0,0,0,0,0,0,0,0,0,0,0,0,1027,
scooby_state_59d4d1|12|2 1023,0,0,0,0,0,0,0,0,0,0,1,0,0,1,1025,
scooby_state_59cde2|42|1 1019,1,0,1,0,0,0,0,0,1,0,0,0,0,0,1022,
scooby_state_59d4d1|12|1 1018,0,0,0,0,0,1,0,0,0,0,1,2,0,0,1022,
scooby_state_59d4d1|6|1 1018,0,0,0,0,0,0,1,0,0,0,0,0,0,1,1020,
scooby_state_59cde2|6|1 1016,0,0,0,0,0,0,1,0,0,0,0,0,0,0,1017,
scooby_state_59cde2|10|1 1016,0,0,0,0,0,0,0,0,0,0,0,0,0,0,1016,
scooby_state_59d4d1|30|1 1014,0,0,0,0,0,0,0,0,0,0,0,0,0,0,1014,
scooby_state_59cd8d|15|1 0,1007,0,0,0,0,0,0,0,0,0,0,1,0,1,1009,
scooby_state_59cde2|22|1 1003,0,0,1,0,0,0,0,0,0,0,0,1,0,0,1005,
scooby_state_59cde2|8|1 1005,0,0,0,0,0,0,0,0,0,0,0,0,0,0,1005,
scooby_state_59d4d1|60|1 1003,0,0,0,0,0,0,0,1,0,0,0,0,0,1,1005,
scooby_state_59d4d1|24|1 998,2,0,0,0,0,1,0,0,0,0,0,0,0,0,1001,
scooby_state_59d4d1|20|1 992,2,0,0,0,0,0,0,0,0,0,0,0,0,0,994,
scooby_state_59d4d1|18|1 991,0,0,0,0,0,0,0,0,0,0,0,0,1,1,993,
scooby_state_59d4d1|14|2 986,0,0,0,0,0,0,1,0,0,0,0,0,0,0,987,
scooby_state_59cde2|60|1 978,0,0,0,0,0,0,1,0,0,0,0,0,0,0,979,
scooby_state_59cde2|56|1 978,0,0,0,0,0,0,0,0,0,0,0,0,0,0,978,
scooby_state_59d4d1|38|1 973,1,0,0,1,0,0,0,0,0,0,0,0,0,0,975,
scooby_state_59d4d1|42|1 973,0,0,0,0,0,0,1,0,0,0,0,0,0,0,974,
scooby_state_59cde2|44|1 969,0,0,0,0,0,0,0,0,0,0,1,0,0,0,970,
scooby_state_59cde2|40|1 966,0,0,0,0,1,1,0,0,1,0,0,1,0,0,970,
scooby_state_59d4d1|54|1 966,1,1,0,0,0,0,0,1,0,0,0,0,0,0,969,
scooby_state_59cde2|24|1 968,0,0,0,0,0,0,0,0,0,0,0,0,0,0,968,
scooby_state_59cde2|46|1 957,2,0,0,0,0,1,0,2,0,0,0,0,0,0,962,
scooby_state_59d4d1|10|2 960,0,0,0,0,0,0,0,0,0,0,0,1,0,0,961,
scooby_state_59cde2|12|1 958,0,0,0,0,0,0,0,0,0,0,0,0,0,0,958,
scooby_state_59cde2|38|1 954,0,0,0,1,0,2,0,0,0,0,0,0,0,0,957,
scooby_state_59d4d1|16|1 954,0,0,0,1,0,0,0,0,0,0,0,1,0,0,956,
scooby_state_59d4d1|32|1 954,0,1,0,0,0,0,0,0,0,0,0,0,0,0,955,
scooby_state_59d4d1|28|1 952,0,0,0,0,0,0,0,0,0,0,0,0,0,0,952,
scooby_state_59cde2|26|1 950,0,0,0,0,0,0,0,0,0,0,1,0,0,0,951,
scooby_state_59d4d1|58|1 943,1,0,0,0,0,0,0,0,0,1,0,0,0,0,945,
scooby_state_59cde2|52|1 942,0,0,0,1,0,1,0,0,0,0,0,0,0,0,944,
scooby_state_59cde2|28|1 941,0,0,0,1,1,0,0,0,0,0,0,0,0,0,943,
scooby_state_59d4d1|2|1 937,0,1,0,0,0,0,0,0,0,0,0,0,0,0,938,
scooby_state_59cde2|50|1 933,0,0,0,0,0,1,0,0,0,0,0,0,0,0,934,
scooby_state_59d4d1|4|1 933,0,0,1,0,0,0,0,0,0,0,0,0,0,0,934,
scooby_state_59d4d1|40|1 929,0,0,0,0,0,0,0,0,0,0,0,0,0,0,929,
scooby_state_59d4d1|44|1 926,0,0,0,0,0,1,1,0,1,0,0,0,0,0,929,
scooby_state_59d4d1|56|1 923,0,0,0,0,0,1,0,0,0,0,0,0,0,1,925,
scooby_state_59cde2|48|1 924,0,0,0,0,0,0,0,0,0,0,0,0,0,0,924,
scooby_state_59cde2|4|1 916,0,0,0,0,1,0,0,0,0,0,0,0,0,1,918,
scooby_state_59cde2|62|1 915,0,0,0,0,0,0,1,0,0,0,0,0,0,0,916,
scooby_state_59cde2|34|1 913,0,0,0,0,0,0,0,0,1,0,0,0,0,0,914,
scooby_state_59cde2|2|1 912,0,0,1,0,0,1,0,0,0,0,0,0,0,0,914,
scooby_state_59cde2|18|1 905,0,0,0,0,0,0,0,0,0,0,0,0,0,0,905,
scooby_state_59d4d1|48|1 899,0,0,0,0,1,0,1,0,0,0,0,0,0,0,901,
scooby_state_59cde2|36|1 899,0,0,0,0,0,0,0,0,0,0,0,1,0,0,900,
scooby_state_59d4d1|50|1 896,0,0,0,0,1,0,0,0,0,0,0,1,1,0,899,
scooby_state_59cde2|16|1 896,1,0,0,0,0,0,0,0,0,0,0,0,0,0,897,
scooby_state_59cde2|30|1 890,0,0,1,0,0,0,0,0,0,0,1,0,0,0,892,
scooby_state_59d4d1|46|1 884,0,0,0,0,0,0,0,0,0,0,0,0,0,0,884,
scooby_state_59d4d1|52|1 883,0,0,0,0,0,0,1,0,0,0,0,0,0,0,884,
scooby_state_59d4d1|36|1 858,0,0,0,0,0,0,0,0,0,0,0,0,0,1,859,
scooby_state_59cde2|20|1 854,0,0,0,0,0,1,0,0,0,0,0,0,1,0,856,
scooby_state_59cde2|14|1 852,0,0,0,0,0,0,2,0,0,0,0,0,0,0,854,
scooby_state_59d4d1|34|1 850,0,0,1,0,0,1,0,0,0,0,0,1,0,0,853,
scooby_state_59cde2|32|1 842,1,0,0,0,0,0,0,1,0,0,0,0,0,0,844,
scooby_state_59d4d1|62|1 833,0,0,0,0,1,0,0,0,1,0,1,0,0,1,837,
scooby_state_59cdee|9|1 701,1,0,0,0,0,0,1,0,0,0,0,0,0,0,703,
scooby_state_59cdb0|61|1 680,0,0,0,0,0,0,0,0,0,0,0,0,0,0,680,
scooby_state_59cdee|47|1 663,0,0,0,0,0,0,0,0,0,0,0,0,0,0,663,
scooby_state_59cdee|41|1 663,0,0,0,0,0,0,0,0,0,0,0,0,0,0,663,
scooby_state_59cdee|53|1 661,0,0,0,0,1,1,0,0,0,0,0,0,0,0,663,
scooby_state_59cdee|59|1 662,0,1,0,0,0,0,0,0,0,0,0,0,0,0,663,
scooby_state_59cdee|1|1 658,0,0,0,0,0,0,0,0,0,0,0,0,0,0,658,
scooby_state_59cdee|3|1 658,0,0,0,0,0,0,0,0,0,0,0,0,0,0,658,
scooby_state_59cdee|61|1 655,0,1,0,0,0,0,0,0,0,0,0,0,0,1,657,
scooby_state_59cdee|7|1 657,0,0,0,0,0,0,0,0,0,0,0,0,0,0,657,
scooby_state_59cdee|49|1 657,0,0,0,0,0,0,0,0,0,0,0,0,0,0,657,
scooby_state_59cdee|45|1 657,0,0,0,0,0,0,0,0,0,0,0,0,0,0,657,
scooby_state_59cdee|13|1 657,0,0,0,0,0,0,0,0,0,0,0,0,0,0,657,
scooby_state_59cdee|43|1 655,0,0,0,0,0,0,0,0,0,1,0,0,0,1,657,
scooby_state_59cdee|51|1 657,0,0,0,0,0,0,0,0,0,0,0,0,0,0,657,
scooby_state_59cdee|25|1 656,0,0,0,0,0,0,0,0,0,0,0,1,0,0,657,
scooby_state_59cdee|31|1 656,0,0,0,0,0,0,0,0,0,0,0,1,0,0,657,
scooby_state_59cdee|37|1 655,0,1,1,0,0,0,0,0,0,0,0,0,0,0,657,
scooby_state_59cdee|19|1 656,0,0,0,1,0,0,0,0,0,0,0,0,0,0,657,
scooby_state_59cdee|39|1 656,0,0,0,0,0,0,0,0,0,0,0,1,0,0,657,
scooby_state_59cdee|55|1 655,0,0,0,1,0,0,0,0,0,0,0,0,0,1,657,
scooby_state_59cdee|57|1 653,0,1,0,1,0,0,0,0,0,0,0,0,0,0,655,
scooby_state_59cdb0|21|1 647,0,0,0,0,0,0,0,0,0,0,0,0,0,0,647,
scooby_state_59cdb0|5|1 640,1,0,0,0,0,0,1,0,0,0,1,0,0,0,643,
scooby_state_59cdb0|59|1 638,0,0,0,0,0,0,0,1,0,0,0,0,0,0,639,
scooby_state_59cdb0|39|1 638,0,0,0,0,0,0,0,0,0,0,0,0,0,0,638,
scooby_state_59cdb0|49|1 635,0,0,0,0,0,0,0,0,1,0,0,1,0,0,637,
scooby_state_59cdb0|15|1 636,0,0,0,0,0,0,0,0,0,0,0,0,0,1,637,
scooby_state_59cdb0|43|1 635,0,0,0,0,0,0,0,0,0,0,0,0,0,0,635,
scooby_state_59cdb0|51|1 632,0,0,0,0,0,0,0,1,1,0,0,0,0,0,634,
scooby_state_59cdb0|57|1 634,0,0,0,0,0,0,0,0,0,0,0,0,0,0,634,
scooby_state_59cdb0|53|1 632,0,0,1,0,0,0,0,0,0,0,0,1,0,0,634,
scooby_state_59cdb0|33|1 632,1,0,0,0,0,1,0,0,0,0,0,0,0,0,634,
scooby_state_59cdb0|27|1 633,0,0,0,0,0,0,0,0,0,0,0,0,0,1,634,
scooby_state_59cdb0|47|1 630,1,0,0,0,0,0,0,0,0,0,0,1,0,0,632,
scooby_state_59cdb0|63|1 632,0,0,0,0,0,0,0,0,0,0,0,0,0,0,632,
scooby_state_59cdb0|9|1 630,0,0,0,1,0,0,0,0,0,0,0,0,0,0,631,
scooby_state_59cdb0|3|1 629,0,0,0,0,0,0,0,0,0,1,0,0,0,0,630,
scooby_state_59cdb0|41|1 629,0,0,0,0,0,0,0,0,0,0,0,0,0,0,629,
scooby_state_59cdb0|45|1 624,0,0,0,0,0,0,0,1,0,0,0,0,0,0,625,
scooby_state_59cdee|5|1 618,0,0,0,0,0,0,0,0,0,0,0,0,0,0,618,
scooby_state_59cdee|35|1 618,0,0,0,0,0,0,0,0,0,0,0,0,0,0,618,
scooby_state_59cdee|29|1 618,0,0,0,0,0,0,0,0,0,0,0,0,0,0,618,
scooby_state_59cdee|11|1 616,0,0,0,0,0,0,0,1,0,0,0,1,0,0,618,
scooby_state_59cdee|23|1 617,0,0,0,0,0,0,0,0,1,0,0,0,0,0,618,
scooby_state_59cdee|63|1 616,0,0,0,0,0,1,0,0,0,0,0,0,0,1,618,
scooby_state_59cdee|17|1 615,1,0,0,0,1,0,0,0,0,0,0,0,1,0,618,
scooby_state_59cdee|21|1 611,0,0,0,0,0,0,0,0,0,0,0,0,0,1,612,
scooby_state_59cdee|33|1 612,0,0,0,0,0,0,0,0,0,0,0,0,0,0,612,
scooby_state_59cdee|27|1 610,1,0,0,0,0,1,0,0,0,0,0,0,0,0,612,
scooby_state_59cdee|15|1 612,0,0,0,0,0,0,0,0,0,0,0,0,0,0,612,
scooby_state_59cdb0|7|1 603,0,0,0,0,0,0,0,0,0,0,1,0,0,0,604,
scooby_state_59cdb0|19|1 603,0,0,1,0,0,0,0,0,0,0,0,0,0,0,604,
scooby_state_59cdb0|37|1 599,0,0,0,0,2,0,0,0,0,0,0,0,0,0,601,
scooby_state_59cdb0|31|1 598,0,1,0,0,0,1,0,0,0,0,0,0,0,0,600,
scooby_state_59cdb0|55|1 599,0,0,0,0,0,1,0,0,0,0,0,0,0,0,600,
scooby_state_59cdb0|35|1 599,0,0,0,0,0,0,0,0,0,0,0,0,0,0,599,
scooby_state_59cdb0|13|1 592,0,0,0,0,0,0,1,0,0,2,0,0,0,1,596,
scooby_state_59cdb0|1|1 594,0,0,0,0,0,1,0,0,0,0,0,0,0,0,595,
scooby_state_59cdb0|11|1 592,0,0,1,1,0,0,0,0,0,0,0,0,0,0,594,
scooby_state_59cdb0|25|1 591,0,0,0,0,0,0,0,0,0,1,0,0,0,0,592,
scooby_state_59cdb0|23|1 592,0,0,0,0,0,0,0,0,0,0,0,0,0,0,592,
scooby_state_59cdb0|29|1 587,0,0,0,2,0,0,0,0,0,0,0,0,0,0,589,
scooby_state_59cdb0|17|1 588,0,0,0,0,0,0,0,0,0,0,0,0,0,0,588,
scooby_state_59cd89|31|1 539,0,0,0,1,0,0,0,0,0,0,0,0,0,0,540,
scooby_state_59cd89|30|1 539,0,0,0,0,0,0,0,0,0,0,0,0,0,1,540,
scooby_state_59cd89|32|1 539,0,0,0,0,0,0,0,0,0,0,1,0,0,0,540,
scooby_state_59cd89|34|1 538,0,0,1,0,0,0,0,0,0,0,0,0,0,1,540,
scooby_state_59cd89|35|1 538,0,0,0,0,0,0,0,0,1,0,0,0,0,0,539,
scooby_state_59cd89|33|1 539,0,0,0,0,0,0,0,0,0,0,0,0,0,0,539,
scooby_state_59cd89|36|1 537,0,0,0,0,0,0,0,0,0,0,1,0,0,0,538,
scooby_state_59cd89|40|1 534,0,0,0,0,1,0,0,1,0,0,0,0,0,0,536,
scooby_state_59cd89|38|1 534,0,0,1,0,0,0,0,1,0,0,0,0,0,0,536,
scooby_state_59cd89|37|1 535,0,0,0,0,0,0,0,0,0,0,0,0,1,0,536,
scooby_state_59cd89|39|1 536,0,0,0,0,0,0,0,0,0,0,0,0,0,0,536,
scooby_state_59cd89|41|1 532,0,0,0,0,0,1,0,0,0,0,0,0,0,0,533,
scooby_state_59cd89|42|1 532,0,0,0,0,0,0,0,0,0,0,0,0,0,0,532,
scooby_state_59cd89|43|1 531,0,0,0,0,0,0,0,0,0,0,0,0,0,0,531,
scooby_state_59cd89|44|1 530,0,0,0,0,0,0,0,0,0,0,0,0,0,0,530,
scooby_state_59cd89|45|1 526,0,0,0,0,0,1,0,0,1,0,0,0,0,0,528,
scooby_state_59cd89|46|1 527,0,0,0,0,0,0,0,0,0,0,0,0,0,0,527,
scooby_state_59cd89|47|1 525,0,0,0,0,0,0,0,0,0,0,1,1,0,0,527,
scooby_state_59cd89|48|1 525,0,0,0,1,0,0,1,0,0,0,0,0,0,0,527,
scooby_state_59cd89|49|1 526,0,0,0,0,0,0,0,0,0,1,0,0,0,0,527,
scooby_state_59cd89|50|1 525,1,0,0,0,0,0,0,0,0,0,0,0,0,1,527,
scooby_state_59cd89|52|1 526,0,0,0,0,0,0,0,0,0,0,0,1,0,0,527,
scooby_state_59cd89|51|1 527,0,0,0,0,0,0,0,0,0,0,0,0,0,0,527,
scooby_state_59cd89|53|1 526,0,0,0,0,0,0,0,0,0,0,0,0,0,0,526,
scooby_state_59cd89|54|1 525,0,0,0,1,0,0,0,0,0,0,0,0,0,0,526,
scooby_state_59cd89|55|1 525,0,0,0,0,0,0,1,0,0,0,0,0,0,0,526,
scooby_state_59cd89|56|1 525,0,0,0,0,0,0,0,0,0,0,0,0,0,0,525,
scooby_state_59cd89|57|1 523,0,0,0,0,0,0,0,0,0,0,0,0,0,0,523,
scooby_state_59cd89|58|1 522,0,0,0,0,0,0,0,0,0,0,0,0,0,0,522,
scooby_state_59cd89|59|1 520,0,0,0,1,0,0,0,0,0,0,0,0,0,0,521,
scooby_state_59cd89|60|1 519,0,1,0,0,0,0,0,0,0,0,0,0,1,0,521,
scooby_state_59cd89|61|1 520,0,0,0,1,0,0,0,0,0,0,0,0,0,0,521,
scooby_state_59cd89|62|1 519,0,0,0,0,0,0,1,0,0,0,0,0,0,0,520,
scooby_state_59cd89|63|1 519,0,0,0,0,0,0,0,0,0,0,0,0,0,0,519,
scooby_state_59cd89|3|1 517,0,0,0,0,0,0,0,0,0,0,0,0,1,0,518,
scooby_state_59cd89|2|1 517,0,0,0,1,0,0,0,0,0,0,0,0,0,0,518,
scooby_state_59cd89|1|1 518,0,0,0,0,0,0,0,0,0,0,0,0,0,0,518,
scooby_state_59cd89|6|1 513,0,0,0,0,0,0,0,0,0,1,0,0,0,0,514,
scooby_state_59cd89|4|1 514,0,0,0,0,0,0,0,0,0,0,0,0,0,0,514,
scooby_state_59cd89|5|1 514,0,0,0,0,0,0,0,0,0,0,0,0,0,0,514,
scooby_state_59cd89|0|0 513,0,0,0,0,0,0,0,0,0,0,0,0,0,0,513,
scooby_state_59cd89|7|1 513,0,0,0,0,0,0,0,0,0,0,0,0,0,0,513,
scooby_state_59cd89|8|1 511,0,0,1,0,0,0,1,0,0,0,0,0,0,0,513,
scooby_state_59cd89|9|1 512,0,0,0,0,0,0,0,0,0,0,0,0,0,0,512,
scooby_state_59cd89|10|1 509,0,0,0,0,0,0,0,0,0,0,0,0,0,0,509,
scooby_state_59cd89|11|1 505,1,0,0,1,0,0,0,0,1,0,1,0,0,0,509,
scooby_state_59cd89|12|1 508,1,0,0,0,0,0,0,0,0,0,0,0,0,0,509,
scooby_state_59cd89|13|1 508,0,0,0,0,0,0,0,0,0,0,0,0,0,0,508,
scooby_state_59cd89|14|1 506,0,0,0,0,0,0,0,0,0,0,0,0,0,0,506,
scooby_state_59cd89|16|1 505,0,0,0,0,0,0,0,0,0,0,0,0,0,0,505,
scooby_state_59cd89|15|1 504,0,0,0,0,0,0,0,0,0,0,0,0,1,0,505,
scooby_state_59cd89|17|1 503,0,1,0,0,0,0,0,0,0,0,0,0,0,0,504,
scooby_state_59cd89|18|1 502,0,0,0,0,0,0,0,0,0,0,0,0,0,0,502,
scooby_state_59cd89|19|1 500,0,0,0,0,0,0,0,0,0,0,0,0,0,0,500,
scooby_state_59cd89|22|1 498,0,1,0,0,0,0,0,0,0,0,0,0,0,0,499,
scooby_state_59cd89|24|1 497,0,1,0,0,1,0,0,0,0,0,0,0,0,0,499,
scooby_state_59cd89|20|1 498,0,0,1,0,0,0,0,0,0,0,0,0,0,0,499,
scooby_state_59cd89|21|1 499,0,0,0,0,0,0,0,0,0,0,0,0,0,0,499,
scooby_state_59cd89|23|1 496,0,0,0,1,0,0,0,1,0,0,0,0,1,0,499,
scooby_state_59cd89|26|1 498,0,0,0,0,0,0,0,1,0,0,0,0,0,0,499,
scooby_state_59cd89|25|1 499,0,0,0,0,0,0,0,0,0,0,0,0,0,0,499,
scooby_state_59cd89|27|1 497,0,0,0,0,0,0,0,0,0,0,0,0,0,0,497,
scooby_state_59cd89|28|1 496,0,0,0,0,0,0,0,0,0,1,0,0,0,0,497,
scooby_state_59cd89|29|1 495,0,0,0,0,0,0,0,0,0,0,0,0,0,0,495,
scooby_state_59cd9b|25|1 423,0,0,0,0,0,0,0,0,0,0,0,0,0,0,423,
scooby_state_59cd9b|1|1 420,0,0,0,0,0,0,0,0,0,0,0,0,0,0,420,
scooby_state_59cdbf|26|1 397,0,0,0,0,0,0,0,0,0,0,0,0,0,0,397,
scooby_state_59cd9b|47|1 377,0,0,0,0,0,0,0,0,0,0,0,0,0,0,377,
scooby_state_59cd9b|13|1 374,0,0,0,0,0,0,0,0,0,0,0,0,0,0,374,
scooby_state_59cd9b|31|1 370,0,0,0,0,0,0,0,0,0,0,0,0,0,0,370,
scooby_state_59cd9b|59|1 366,0,0,0,0,0,0,1,0,0,0,1,0,0,0,368,
scooby_state_59cd9b|11|1 364,1,0,0,0,0,0,0,0,0,0,0,0,0,0,365,
scooby_state_59cd9b|7|1 360,0,0,0,0,0,0,0,0,0,0,0,0,0,0,360,
scooby_state_59cdbf|14|1 351,0,0,0,0,0,0,0,0,0,0,1,0,0,0,352,
scooby_state_59cdbf|60|1 350,1,0,0,0,0,0,0,0,1,0,0,0,0,0,352,
scooby_state_59cdbf|2|1 351,0,0,0,0,0,0,0,0,1,0,0,0,0,0,352,
scooby_state_59cdbf|48|1 351,0,0,0,0,0,0,0,0,0,0,0,1,0,0,352,
scooby_state_59cdbf|20|1 350,0,0,1,0,0,0,0,0,0,1,0,0,0,0,352,
scooby_state_59cdbf|32|1 352,0,0,0,0,0,0,0,0,0,0,0,0,0,0,352,
scooby_state_59cdbf|8|1 351,0,0,0,0,0,0,0,0,1,0,0,0,0,0,352,
scooby_state_59cd9b|43|1 335,1,0,0,0,0,0,0,0,0,0,0,0,0,0,336,
scooby_state_59cd9b|41|1 334,0,0,0,0,1,0,0,0,0,0,0,0,0,0,335,
scooby_state_59cd9b|29|1 330,0,0,0,0,0,0,0,0,0,0,0,1,0,0,331,
scooby_state_59cd9b|37|1 329,0,0,0,0,0,0,0,0,0,0,0,0,0,0,329,
scooby_state_59cd9b|17|1 327,0,0,0,0,0,0,0,0,0,0,0,0,0,1,328,
scooby_state_59cd9b|23|1 327,0,0,0,0,0,0,0,0,0,1,0,0,0,0,328,
scooby_state_59cd9b|53|1 327,0,0,0,0,0,0,0,0,0,0,0,0,1,0,328,
scooby_state_59cdcf|24|-2 0,318,1,0,2,0,0,0,0,0,0,0,0,0,0,321,
scooby_state_59cd9b|19|1 319,0,0,0,0,0,0,0,0,1,0,0,0,0,0,320,
scooby_state_59cd9b|35|1 319,0,0,0,0,0,0,0,0,0,0,0,1,0,0,320,
scooby_state_59cdf2|63|1 311,0,0,0,0,0,0,0,0,0,0,0,1,0,0,312,
scooby_state_59cdbf|38|1 311,0,0,0,0,0,1,0,0,0,0,0,0,0,0,312,
scooby_state_59cdbf|18|1 307,0,0,0,1,0,0,0,0,0,0,0,0,0,0,308,
scooby_state_59cdbf|30|1 308,0,0,0,0,0,0,0,0,0,0,0,0,0,0,308,
scooby_state_59cdbf|12|1 307,0,0,0,0,0,0,0,0,0,0,0,0,0,1,308,
scooby_state_59cdbf|24|1 308,0,0,0,0,0,0,0,0,0,0,0,0,0,0,308,
scooby_state_59cdbf|54|1 307,0,0,0,0,0,0,0,0,0,0,0,0,0,0,307,
scooby_state_59cdbf|42|1 307,0,0,0,0,0,0,0,0,0,0,0,0,0,0,307,
scooby_state_59cdbf|36|1 306,0,0,0,0,0,0,0,0,0,1,0,0,0,0,307,
scooby_state_59cd9b|45|1 297,0,2,0,0,0,0,0,0,0,0,0,0,0,0,299,
scooby_state_59cd9b|3|1 294,0,0,0,0,0,0,0,0,0,0,0,0,0,0,294,
scooby_state_59cd9b|49|1 293,0,0,0,0,0,0,0,0,0,0,0,0,0,0,293,
scooby_state_59cd9b|63|1 293,0,0,0,0,0,0,0,0,0,0,0,0,0,0,293,
scooby_state_59cd9b|33|1 289,0,0,0,0,0,0,0,0,0,1,0,0,0,0,290,
scooby_state_59cd9b|27|1 287,0,1,0,0,1,0,0,1,0,0,0,0,0,0,290,
scooby_state_59cd9b|61|1 290,0,0,0,0,0,0,0,0,0,0,0,0,0,0,290,
scooby_state_59cd9b|51|1 290,0,0,0,0,0,0,0,0,0,0,0,0,0,0,290,
scooby_state_59cd9b|57|1 290,0,0,0,0,0,0,0,0,0,0,0,0,0,0,290,
scooby_state_59cd9b|9|1 288,0,0,0,0,0,0,0,0,0,0,0,0,0,0,288,
scooby_state_59cd9b|39|1 285,0,0,0,1,0,0,0,0,0,0,0,0,0,0,286,
scooby_state_59cd9b|15|1 285,0,0,0,0,0,0,0,0,0,0,0,0,0,0,285,
scooby_state_59cd9b|55|1 285,0,0,0,0,0,0,0,0,0,0,0,0,0,0,285,
scooby_state_59cd9b|5|1 282,0,0,0,0,0,0,0,0,0,0,0,0,0,0,282,
scooby_state_59cd9b|21|1 275,1,0,0,1,0,0,0,0,0,0,0,0,0,0,277,
scooby_state_59cdf2|5|1 276,0,0,0,0,0,0,0,0,0,0,0,0,0,0,276,
scooby_state_59cdbf|4|1 266,0,0,0,0,0,0,0,0,0,0,0,0,1,1,268,
scooby_state_59cdbf|16|1 267,0,0,0,0,0,0,0,0,0,0,0,0,0,0,267,
scooby_state_59cdbf|52|1 266,0,0,0,0,1,0,0,0,0,0,0,0,0,0,267,
scooby_state_59cdbf|10|1 267,0,0,0,0,0,0,0,0,0,0,0,0,0,0,267,
scooby_state_59cdbf|40|1 267,0,0,0,0,0,0,0,0,0,0,0,0,0,0,267,
scooby_state_59cdbf|46|1 266,0,0,0,1,0,0,0,0,0,0,0,0,0,0,267,
scooby_state_59cdbf|34|1 267,0,0,0,0,0,0,0,0,0,0,0,0,0,0,267,
scooby_state_59cdbf|56|1 267,0,0,0,0,0,0,0,0,0,0,0,0,0,0,267,
scooby_state_59cdbf|22|1 267,0,0,0,0,0,0,0,0,0,0,0,0,0,0,267,
scooby_state_59cdbf|6|1 267,0,0,0,0,0,0,0,0,0,0,0,0,0,0,267,
scooby_state_59cdbf|28|1 267,0,0,0,0,0,0,0,0,0,0,0,0,0,0,267,
scooby_state_59cdf2|1|1 265,0,0,1,0,0,0,0,0,0,0,0,0,1,0,267,
scooby_state_59cdbf|58|1 266,0,1,0,0,0,0,0,0,0,0,0,0,0,0,267,
scooby_state_59cdbf|62|1 265,1,0,0,0,0,1,0,0,0,0,0,0,0,0,267,
scooby_state_59cdbf|44|1 267,0,0,0,0,0,0,0,0,0,0,0,0,0,0,267,
scooby_state_59cdbf|50|1 265,0,0,0,1,0,0,0,0,0,0,0,0,0,1,267,
scooby_state_59cdf2|23|1 265,0,0,0,0,0,0,0,0,0,0,0,1,0,0,266,
scooby_state_59cdf2|11|1 265,0,0,0,0,0,0,0,0,0,0,0,0,0,0,265,
scooby_state_59cdf2|17|1 264,0,0,0,0,0,0,0,0,0,0,0,0,0,0,264,
scooby_state_59cdf2|29|1 263,0,0,0,0,0,0,0,0,0,0,0,0,0,0,263,
scooby_state_59cdcb|61|1 261,0,0,0,0,0,1,0,0,0,0,0,0,0,0,262,
scooby_state_59cdcb|21|1 261,1,0,0,0,0,0,0,0,0,0,0,0,0,0,262,
scooby_state_59cdcb|9|1 262,0,0,0,0,0,0,0,0,0,0,0,0,0,0,262,
scooby_state_59cdcb|27|1 261,0,0,0,0,0,0,0,0,0,0,0,1,0,0,262,
scooby_state_59cdcb|3|1 259,0,1,0,0,0,0,0,1,0,0,0,0,0,1,262,
scooby_state_59cdcb|33|1 262,0,0,0,0,0,0,0,0,0,0,0,0,0,0,262,
scooby_state_59cdcb|15|1 261,0,0,0,1,0,0,0,0,0,0,0,0,0,0,262,
scooby_state_59d4e0|27|3 243,0,0,0,0,0,0,0,0,0,0,0,0,0,0,243,
scooby_state_59cdf2|9|1 233,0,0,0,0,0,0,0,0,0,0,0,0,0,1,234,
scooby_state_59cdf2|51|1 231,0,0,0,0,0,0,0,0,0,0,0,0,0,0,231,
scooby_state_59cdf2|7|1 230,0,0,0,0,0,0,0,0,0,0,1,0,0,0,231,
scooby_state_59cdf2|41|1 230,0,0,0,0,0,0,0,0,0,0,0,0,0,0,230,
scooby_state_59cdf2|15|1 229,1,0,0,0,0,0,0,0,0,0,0,0,0,0,230,
scooby_state_59cdf2|47|1 228,0,0,0,1,0,0,0,0,0,0,0,0,0,0,229,
scooby_state_59cdf2|3|1 228,0,0,0,0,0,0,0,0,0,0,0,0,0,0,228,
scooby_state_59cdf2|13|1 227,0,0,0,0,0,0,0,0,0,0,0,0,0,0,227,
scooby_state_59cdf2|35|1 227,0,0,0,0,0,0,0,0,0,0,0,0,0,0,227,
scooby_state_59cdf2|19|1 225,0,0,0,0,0,0,0,0,0,0,0,0,0,0,225,
scooby_state_59cdf2|61|1 224,0,0,0,0,0,0,0,0,0,0,0,0,0,0,224,
scooby_state_59cdf2|55|1 222,0,1,0,0,0,0,0,0,0,0,0,1,0,0,224,
scooby_state_59cdf2|59|1 224,0,0,0,0,0,0,0,0,0,0,0,0,0,0,224,
scooby_state_59cdf2|53|1 223,0,0,0,0,0,0,0,0,0,0,0,0,0,0,223,
scooby_state_59cdf2|43|1 223,0,0,0,0,0,0,0,0,0,0,0,0,0,0,223,
scooby_state_59cdf2|25|1 223,0,0,0,0,0,0,0,0,0,0,0,0,0,0,223,
scooby_state_59cdf2|49|1 223,0,0,0,0,0,0,0,0,0,0,0,0,0,0,223,
scooby_state_59cdcb|59|1 222,0,0,0,0,0,0,0,0,0,0,0,0,0,0,222,
scooby_state_59cdcb|7|1 222,0,0,0,0,0,0,0,0,0,0,0,0,0,0,222,
scooby_state_59cdcb|51|1 222,0,0,0,0,0,0,0,0,0,0,0,0,0,0,222,
scooby_state_59cdcb|57|1 222,0,0,0,0,0,0,0,0,0,0,0,0,0,0,222,
scooby_state_59cdcb|39|1 222,0,0,0,0,0,0,0,0,0,0,0,0,0,0,222,
scooby_state_59cdcb|45|1 222,0,0,0,0,0,0,0,0,0,0,0,0,0,0,222,
scooby_state_59cdcb|47|1 222,0,0,0,0,0,0,0,0,0,0,0,0,0,0,222,
scooby_state_59cdf2|31|1 221,0,0,0,0,0,0,0,0,0,1,0,0,0,0,222,
scooby_state_59cdcb|41|1 222,0,0,0,0,0,0,0,0,0,0,0,0,0,0,222,
scooby_state_59cdcb|1|1 222,0,0,0,0,0,0,0,0,0,0,0,0,0,0,222,
scooby_state_59cdcb|11|1 222,0,0,0,0,0,0,0,0,0,0,0,0,0,0,222,
scooby_state_59cdcb|53|1 221,0,0,1,0,0,0,0,0,0,0,0,0,0,0,222,
scooby_state_59cdcb|29|1 221,0,0,0,0,0,0,0,0,0,0,1,0,0,0,222,
scooby_state_59cdf2|37|1 221,0,0,0,1,0,0,0,0,0,0,0,0,0,0,222,
scooby_state_59cdcb|23|1 221,0,0,0,0,0,0,0,0,0,0,0,0,1,0,222,
scooby_state_59cdcb|35|1 221,0,0,0,0,1,0,0,0,0,0,0,0,0,0,222,
scooby_state_59cdcb|17|1 221,0,0,0,0,0,0,0,0,0,0,0,0,1,0,222,
scooby_state_59cdcb|5|1 222,0,0,0,0,0,0,0,0,0,0,0,0,0,0,222,
scooby_state_59cdcb|63|1 222,0,0,0,0,0,0,0,0,0,0,0,0,0,0,222,
scooby_state_59cdf2|21|1 221,0,0,0,0,0,0,0,0,0,0,1,0,0,0,222,
scooby_state_59cdf2|39|1 221,0,0,0,0,0,0,0,0,0,0,0,0,0,0,221,
scooby_state_59cdf2|33|1 221,0,0,0,0,0,0,0,0,0,0,0,0,0,0,221,
scooby_state_59cdf2|27|1 218,0,0,1,0,0,0,0,0,1,0,0,0,0,0,220,
scooby_state_59cdf2|57|1 219,0,0,0,0,0,0,0,0,0,0,0,0,0,0,219,
scooby_state_59cdcb|13|1 217,0,0,0,0,0,1,0,0,0,0,0,0,0,0,218,
scooby_state_59cdcf|1|-2 0,216,0,0,0,0,0,1,0,0,0,0,0,0,1,218,
scooby_state_59cdcb|25|1 218,0,0,0,0,0,0,0,0,0,0,0,0,0,0,218,
scooby_state_59cdf2|45|1 218,0,0,0,0,0,0,0,0,0,0,0,0,0,0,218,
scooby_state_59cdcb|19|1 217,0,0,0,0,0,1,0,0,0,0,0,0,0,0,218,
scooby_state_59cdcb|31|1 218,0,0,0,0,0,0,0,0,0,0,0,0,0,0,218,
scooby_state_59cdcb|37|1 217,0,0,0,0,0,0,0,0,0,0,0,0,0,0,217,
scooby_state_59cdcb|49|1 217,0,0,0,0,0,0,0,0,0,0,0,0,0,0,217,
scooby_state_59cdcb|55|1 217,0,0,0,0,0,0,0,0,0,0,0,0,0,0,217,
scooby_state_59cdcb|43|1 216,0,0,0,0,0,0,0,1,0,0,0,0,0,0,217,
scooby_state_59cdcf|52|1 0,215,0,0,0,0,0,0,0,0,0,0,0,0,0,215,
scooby_state_59cdcf|4|1 0,214,0,0,0,0,0,0,1,0,0,0,0,0,0,215,
scooby_state_59cd8d|4|3 0,212,1,0,0,0,0,0,0,0,0,0,0,0,0,213,
scooby_state_59cdcf|36|1 0,210,0,0,0,0,0,0,0,0,0,0,0,0,0,210,
scooby_state_59cdcf|12|-2 0,207,0,0,0,0,0,0,0,0,0,0,0,0,0,207,
scooby_state_59cdcf|20|1 0,199,0,0,0,0,0,1,0,1,0,0,0,0,0,201,
scooby_state_59cdcf|58|1 0,201,0,0,0,0,0,0,0,0,0,0,0,0,0,201,
scooby_state_59cd8d|15|3 0,199,0,0,0,0,0,0,0,0,0,0,0,0,0,199,
scooby_state_59cdcf|14|1 0,179,0,0,0,0,0,0,0,0,0,0,0,0,0,179,
scooby_state_59cdcf|56|1 0,177,0,0,0,0,0,0,0,0,0,0,0,0,0,177,
scooby_state_59cdcf|62|1 0,175,0,0,0,0,0,0,0,0,0,0,0,0,0,175,
scooby_state_59cdcf|7|-2 0,170,0,0,0,0,1,0,0,0,0,0,0,0,0,171,
[...]
scooby_state_59ce04|59|1 1,0,0,0,0,0,0,0,0,0,0,0,0,0,0,1,
scooby_state_59d4f7|26|0 1,0,0,0,0,0,0,0,0,0,0,0,0,0,0,1,
scooby_state_59cd46|29|0 0,1,0,0,0,0,0,0,0,0,0,0,0,0,0,1,
scooby_state_59cd53|20|11 1,0,0,0,0,0,0,0,0,0,0,0,0,0,0,1,
scooby_state_59cd53|52|12 1,0,0,0,0,0,0,0,0,0,0,0,0,0,0,1,
scooby_state_59d4f7|7|-29 1,0,0,0,0,0,0,0,0,0,0,0,0,0,0,1,
scooby_state_59cd89|0|-43 1,0,0,0,0,0,0,0,0,0,0,0,0,0,0,1,
scooby_state_59ce04|25|0 1,0,0,0,0,0,0,0,0,0,0,0,0,0,0,1,
scooby_state_59cd46|12|0 0,1,0,0,0,0,0,0,0,0,0,0,0,0,0,1,
scooby_state_59ce04|25|1 1,0,0,0,0,0,0,0,0,0,0,0,0,0,0,1,
scooby_state_59d4f7|2|-25 0,1,0,0,0,0,0,0,0,0,0,0,0,0,0,1,
scooby_state_59cdcf|15|-3 0,1,0,0,0,0,0,0,0,0,0,0,0,0,0,1,
scooby_state_59d4e0|59|3 1,0,0,0,0,0,0,0,0,0,0,0,0,0,0,1,
scooby_state_59cd53|40|11 1,0,0,0,0,0,0,0,0,0,0,0,0,0,0,1,
scooby_state_59ce04|42|2 0,1,0,0,0,0,0,0,0,0,0,0,0,0,0,1,
scooby_state_59ce27|63|0 1,0,0,0,0,0,0,0,0,0,0,0,0,0,0,1,
scooby_state_59ce37|43|1 1,0,0,0,0,0,0,0,0,0,0,0,0,0,0,1,
scooby_state_59cd46|52|0 0,1,0,0,0,0,0,0,0,0,0,0,0,0,0,1,
scooby_state_59ce04|63|1 1,0,0,0,0,0,0,0,0,0,0,0,0,0,0,1,
scooby_state_59ce27|19|0 1,0,0,0,0,0,0,0,0,0,0,0,0,0,0,1,
scooby_state_59ce14|9|1 1,0,0,0,0,0,0,0,0,0,0,0,0,0,0,1,
scooby_state_59cdf6|34|1 1,0,0,0,0,0,0,0,0,0,0,0,0,0,0,1,
scooby_state_59d4f7|59|0 1,0,0,0,0,0,0,0,0,0,0,0,0,0,0,1,
scooby_state_59ce37|20|3 1,0,0,0,0,0,0,0,0,0,0,0,0,0,0,1,
scooby_state_59cd53|17|-2 0,1,0,0,0,0,0,0,0,0,0,0,0,0,0,1,
scooby_state_59cdf6|6|1 1,0,0,0,0,0,0,0,0,0,0,0,0,0,0,1,
scooby_state_59cd46|5|0 0,1,0,0,0,0,0,0,0,0,0,0,0,0,0,1,
scooby_state_59ce14|48|1 1,0,0,0,0,0,0,0,0,0,0,0,0,0,0,1,
scooby_state_59cdf6|19|1 1,0,0,0,0,0,0,0,0,0,0,0,0,0,0,1,
scooby_state_59ce27|54|0 1,0,0,0,0,0,0,0,0,0,0,0,0,0,0,1,
scooby_state_59ce04|8|2 1,0,0,0,0,0,0,0,0,0,0,0,0,0,0,1,
scooby_state_59cd46|59|0 0,1,0,0,0,0,0,0,0,0,0,0,0,0,0,1,
scooby_state_59ce14|34|1 1,0,0,0,0,0,0,0,0,0,0,0,0,0,0,1,
scooby_state_59ce27|43|0 1,0,0,0,0,0,0,0,0,0,0,0,0,0,0,1,
scooby_state_59cd53|31|10 1,0,0,0,0,0,0,0,0,0,0,0,0,0,0,1,
scooby_state_59d4e0|49|3 1,0,0,0,0,0,0,0,0,0,0,0,0,0,0,1,
scooby_state_59ce27|36|0 1,0,0,0,0,0,0,0,0,0,0,0,0,0,0,1,
scooby_state_59cdcf|34|-2 0,1,0,0,0,0,0,0,0,0,0,0,0,0,0,1,
scooby_state_59ce04|9|0 1,0,0,0,0,0,0,0,0,0,0,0,0,0,0,1,
scooby_state_59cd53|34|0 1,0,0,0,0,0,0,0,0,0,0,0,0,0,0,1,
scooby_state_59d4f7|41|0 1,0,0,0,0,0,0,0,0,0,0,0,0,0,0,1,
scooby_state_59ce37|33|1 1,0,0,0,0,0,0,0,0,0,0,0,0,0,0,1,
scooby_state_59ce14|32|1 1,0,0,0,0,0,0,0,0,0,0,0,0,0,0,1,
scooby_state_59ce27|53|0 1,0,0,0,0,0,0,0,0,0,0,0,0,0,0,1,
scooby_state_59ce04|31|1 1,0,0,0,0,0,0,0,0,0,0,0,0,0,0,1,
scooby_state_59cd8d|37|3 0,1,0,0,0,0,0,0,0,0,0,0,0,0,0,1,
scooby_state_59ce04|54|33 1,0,0,0,0,0,0,0,0,0,0,0,0,0,0,1,
scooby_state_59cdcf|42|-2 0,1,0,0,0,0,0,0,0,0,0,0,0,0,0,1,
scooby_state_59cd9b|44|4 1,0,0,0,0,0,0,0,0,0,0,0,0,0,0,1,
scooby_state_59d4e0|35|3 1,0,0,0,0,0,0,0,0,0,0,0,0,0,0,1,
scooby_state_59ce27|1|0 1,0,0,0,0,0,0,0,0,0,0,0,0,0,0,1,
scooby_state_59ce04|45|1 1,0,0,0,0,0,0,0,0,0,0,0,0,0,0,1,
scooby_state_59cd46|36|0 0,1,0,0,0,0,0,0,0,0,0,0,0,0,0,1,
scooby_state_59cd53|33|8 1,0,0,0,0,0,0,0,0,0,0,0,0,0,0,1,
scooby_state_59ce14|3|-48 1,0,0,0,0,0,0,0,0,0,0,0,0,0,0,1,
scooby_state_59cd46|39|34 1,0,0,0,0,0,0,0,0,0,0,0,0,0,0,1,
scooby_state_59d510|45|1 1,0,0,0,0,0,0,0,0,0,0,0,0,0,0,1,
scooby_state_59d4f7|44|0 1,0,0,0,0,0,0,0,0,0,0,0,0,0,0,1,
scooby_state_59ce37|5|1 1,0,0,0,0,0,0,0,0,0,0,0,0,0,0,1,
scooby_state_59ce27|37|0 1,0,0,0,0,0,0,0,0,0,0,0,0,0,0,1,
scooby_state_59cd53|2|0 1,0,0,0,0,0,0,0,0,0,0,0,0,0,0,1,
scooby_state_59cd46|56|0 0,1,0,0,0,0,0,0,0,0,0,0,0,0,0,1,
scooby_state_59d4f7|63|0 1,0,0,0,0,0,0,0,0,0,0,0,0,0,0,1,
scooby_state_59cd53|51|11 1,0,0,0,0,0,0,0,0,0,0,0,0,0,0,1,
scooby_state_59ce27|25|0 1,0,0,0,0,0,0,0,0,0,0,0,0,0,0,1,
scooby_state_59ce04|51|-6 1,0,0,0,0,0,0,0,0,0,0,0,0,0,0,1,
scooby_state_59cd8d|3|3 0,1,0,0,0,0,0,0,0,0,0,0,0,0,0,1,
scooby_state_59cdcf|0|-2 0,1,0,0,0,0,0,0,0,0,0,0,0,0,0,1,
scooby_state_59cd89|0|-52 1,0,0,0,0,0,0,0,0,0,0,0,0,0,0,1,
scooby_state_59ce10|54|1 1,0,0,0,0,0,0,0,0,0,0,0,0,0,0,1,
scooby_state_59ce04|53|1 1,0,0,0,0,0,0,0,0,0,0,0,0,0,0,1,
scooby_state_59cdcf|48|-2 0,1,0,0,0,0,0,0,0,0,0,0,0,0,0,1,
scooby_state_59ce04|53|2 1,0,0,0,0,0,0,0,0,0,0,0,0,0,0,1,
scooby_state_59ce37|54|1 1,0,0,0,0,0,0,0,0,0,0,0,0,0,0,1,
scooby_state_59cd46|25|0 0,1,0,0,0,0,0,0,0,0,0,0,0,0,0,1,
scooby_state_59d4f7|58|0 1,0,0,0,0,0,0,0,0,0,0,0,0,0,0,1,
scooby_state_59cdbf|1|-23 1,0,0,0,0,0,0,0,0,0,0,0,0,0,0,1,
scooby_state_59cde2|1|-43 1,0,0,0,0,0,0,0,0,0,0,0,0,0,0,1,
scooby_state_59d4e0|0|-43 1,0,0,0,0,0,0,0,0,0,0,0,0,0,0,1,
scooby_state_59cdf6|32|1 1,0,0,0,0,0,0,0,0,0,0,0,0,0,0,1,
scooby_state_59d4f7|47|15 0,1,0,0,0,0,0,0,0,0,0,0,0,0,0,1,
scooby_state_59d4f7|21|0 1,0,0,0,0,0,0,0,0,0,0,0,0,0,0,1,
scooby_state_59cd53|45|26 1,0,0,0,0,0,0,0,0,0,0,0,0,0,0,1,
scooby_state_59cd46|27|0 0,1,0,0,0,0,0,0,0,0,0,0,0,0,0,1,
scooby_state_59cd53|38|11 1,0,0,0,0,0,0,0,0,0,0,0,0,0,0,1,
scooby_state_59ce27|29|0 1,0,0,0,0,0,0,0,0,0,0,0,0,0,0,1,
scooby_state_59cd9b|55|-8 1,0,0,0,0,0,0,0,0,0,0,0,0,0,0,1,
scooby_state_59ce04|4|2 1,0,0,0,0,0,0,0,0,0,0,0,0,0,0,1,
scooby_state_59cd80|54|-3 1,0,0,0,0,0,0,0,0,0,0,0,0,0,0,1,
scooby_state_59ce14|41|1 1,0,0,0,0,0,0,0,0,0,0,0,0,0,0,1,
scooby_state_59cd53|38|35 1,0,0,0,0,0,0,0,0,0,0,0,0,0,0,1,
scooby_state_59ce27|58|0 1,0,0,0,0,0,0,0,0,0,0,0,0,0,0,1,
scooby_state_59ce37|15|1 1,0,0,0,0,0,0,0,0,0,0,0,0,0,0,1,
scooby_state_59cd46|46|0 0,1,0,0,0,0,0,0,0,0,0,0,0,0,0,1,
scooby_state_59cd53|21|-2 1,0,0,0,0,0,0,0,0,0,0,0,0,0,0,1,
scooby_state_59ce04|40|2 1,0,0,0,0,0,0,0,0,0,0,0,0,0,0,1,
scooby_state_59cdc2|55|1 1,0,0,0,0,0,0,0,0,0,0,0,0,0,0,1,
scooby_state_59d4f7|13|0 1,0,0,0,0,0,0,0,0,0,0,0,0,0,0,1,
scooby_state_59ce27|29|-25 1,0,0,0,0,0,0,0,0,0,0,0,0,0,0,1,
scooby_state_59ce33|63|1 1,0,0,0,0,0,0,0,0,0,0,0,0,0,0,1,
scooby_state_59cd53|19|11 1,0,0,0,0,0,0,0,0,0,0,0,0,0,0,1,
scooby_state_59ce04|34|1 1,0,0,0,0,0,0,0,0,0,0,0,0,0,0,1,
scooby_state_59ce04|26|2 0,1,0,0,0,0,0,0,0,0,0,0,0,0,0,1,
scooby_state_59d4ea|19|0 1,0,0,0,0,0,0,0,0,0,0,0,0,0,0,1,
scooby_state_59ce33|38|1 1,0,0,0,0,0,0,0,0,0,0,0,0,0,0,1,
scooby_state_59ce02|56|1 1,0,0,0,0,0,0,0,0,0,0,0,0,0,0,1,
scooby_state_59ce27|7|0 1,0,0,0,0,0,0,0,0,0,0,0,0,0,0,1,
scooby_state_59ce33|35|1 1,0,0,0,0,0,0,0,0,0,0,0,0,0,0,1,
scooby_state_59d5c4|51|0 1,0,0,0,0,0,0,0,0,0,0,0,0,0,0,1,
scooby_state_59cdf6|38|0 1,0,0,0,0,0,0,0,0,0,0,0,0,0,0,1,
scooby_state_59d4e0|25|3 1,0,0,0,0,0,0,0,0,0,0,0,0,0,0,1,
scooby_state_59ce04|6|0 1,0,0,0,0,0,0,0,0,0,0,0,0,0,0,1,
scooby_state_59ce10|35|1 1,0,0,0,0,0,0,0,0,0,0,0,0,0,0,1,
scooby_state_59cd8d|51|3 0,1,0,0,0,0,0,0,0,0,0,0,0,0,0,1,
scooby_state_59ce27|49|0 1,0,0,0,0,0,0,0,0,0,0,0,0,0,0,1,
scooby_state_59ce04|33|2 1,0,0,0,0,0,0,0,0,0,0,0,0,0,0,1,
scooby_state_59d4e0|0|-63 1,0,0,0,0,0,0,0,0,0,0,0,0,0,0,1,
scooby_state_59cdcf|60|-3 0,1,0,0,0,0,0,0,0,0,0,0,0,0,0,1,
scooby_state_59d4e0|15|0 1,0,0,0,0,0,0,0,0,0,0,0,0,0,0,1,
scooby_state_59ce04|47|2 1,0,0,0,0,0,0,0,0,0,0,0,0,0,0,1,
scooby_state_59cd20|52|-7 1,0,0,0,0,0,0,0,0,0,0,0,0,0,0,1,
scooby_state_59cd53|12|11 1,0,0,0,0,0,0,0,0,0,0,0,0,0,0,1,
scooby_state_59cd46|37|0 0,1,0,0,0,0,0,0,0,0,0,0,0,0,0,1,
scooby_state_59d510|22|-37 1,0,0,0,0,0,0,0,0,0,0,0,0,0,0,1,
scooby_state_59d6a2|26|0 1,0,0,0,0,0,0,0,0,0,0,0,0,0,0,1,
scooby_state_59d6d1|27|1 1,0,0,0,0,0,0,0,0,0,0,0,0,0,0,1,
scooby_state_59cd40|53|1 1,0,0,0,0,0,0,0,0,0,0,0,0,0,0,1,
scooby_state_59cd46|28|0 0,1,0,0,0,0,0,0,0,0,0,0,0,0,0,1,
scooby_state_59ce04|39|1 1,0,0,0,0,0,0,0,0,0,0,0,0,0,0,1,
scooby_state_59ce14|23|1 1,0,0,0,0,0,0,0,0,0,0,0,0,0,0,1,
scooby_state_59ce27|57|0 1,0,0,0,0,0,0,0,0,0,0,0,0,0,0,1,
scooby_state_59cd89|0|-42 1,0,0,0,0,0,0,0,0,0,0,0,0,0,0,1,
scooby_state_59d510|40|1 1,0,0,0,0,0,0,0,0,0,0,0,0,0,0,1,
scooby_state_59cdcf|40|-3 0,1,0,0,0,0,0,0,0,0,0,0,0,0,0,1,
scooby_state_59cd53|58|12 1,0,0,0,0,0,0,0,0,0,0,0,0,0,0,1,
scooby_state_59d4f7|9|0 1,0,0,0,0,0,0,0,0,0,0,0,0,0,0,1,
scooby_state_59cdf6|57|1 1,0,0,0,0,0,0,0,0,0,0,0,0,0,0,1,
scooby_state_59cd8d|46|-17 0,1,0,0,0,0,0,0,0,0,0,0,0,0,0,1,
scooby_state_59d5c7|44|0 1,0,0,0,0,0,0,0,0,0,0,0,0,0,0,1,
scooby_state_59ce04|57|2 1,0,0,0,0,0,0,0,0,0,0,0,0,0,0,1,
scooby_state_59ce37|47|1 1,0,0,0,0,0,0,0,0,0,0,0,0,0,0,1,
scooby_state_59ce14|47|1 1,0,0,0,0,0,0,0,0,0,0,0,0,0,0,1,
scooby_state_59ce04|54|16 1,0,0,0,0,0,0,0,0,0,0,0,0,0,0,1,
scooby_state_59d4f7|39|0 0,1,0,0,0,0,0,0,0,0,0,0,0,0,0,1,
scooby_state_59ce33|60|1 1,0,0,0,0,0,0,0,0,0,0,0,0,0,0,1,
scooby_state_59cdbf|0|-34 1,0,0,0,0,0,0,0,0,0,0,0,0,0,0,1,
scooby_state_59cd53|54|0 1,0,0,0,0,0,0,0,0,0,0,0,0,0,0,1,
scooby_state_59ce10|0|0 1,0,0,0,0,0,0,0,0,0,0,0,0,0,0,1,
scooby_state_59cd53|12|0 1,0,0,0,0,0,0,0,0,0,0,0,0,0,0,1,
scooby_state_59d4f7|55|0 1,0,0,0,0,0,0,0,0,0,0,0,0,0,0,1,
scooby_state_59ce6f|43|-1 1,0,0,0,0,0,0,0,0,0,0,0,0,0,0,1,
scooby_state_4dde10|56|0 1,0,0,0,0,0,0,0,0,0,0,0,0,0,0,1,
scooby_state_59d4f7|60|38 1,0,0,0,0,0,0,0,0,0,0,0,0,0,0,1,
scooby_state_59cd53|62|0 1,0,0,0,0,0,0,0,0,0,0,0,0,0,0,1,
scooby_state_59d4f7|6|-30 1,0,0,0,0,0,0,0,0,0,0,0,0,0,0,1,
scooby_state_59d4f7|15|-43 1,0,0,0,0,0,0,0,0,0,0,0,0,0,0,1,
scooby_state_59ce14|15|1 1,0,0,0,0,0,0,0,0,0,0,0,0,0,0,1,
scooby_state_59cd46|47|0 0,1,0,0,0,0,0,0,0,0,0,0,0,0,0,1,
scooby_state_59ce14|45|1 1,0,0,0,0,0,0,0,0,0,0,0,0,0,0,1,
scooby_state_59cd53|62|10 1,0,0,0,0,0,0,0,0,0,0,0,0,0,0,1,
scooby_state_59ce10|40|1 1,0,0,0,0,0,0,0,0,0,0,0,0,0,0,1,
scooby_state_59d4f7|1|-6 1,0,0,0,0,0,0,0,0,0,0,0,0,0,0,1,
scooby_state_59d4e0|33|3 1,0,0,0,0,0,0,0,0,0,0,0,0,0,0,1,
scooby_state_59d510|2|0 1,0,0,0,0,0,0,0,0,0,0,0,0,0,0,1,
scooby_state_59ce33|3|1 1,0,0,0,0,0,0,0,0,0,0,0,0,0,0,1,
scooby_state_59d4d1|0|-61 1,0,0,0,0,0,0,0,0,0,0,0,0,0,0,1,
scooby_state_59cd53|55|0 1,0,0,0,0,0,0,0,0,0,0,0,0,0,0,1,
scooby_state_59cd46|48|0 0,1,0,0,0,0,0,0,0,0,0,0,0,0,0,1,
scooby_state_59cd46|3|0 0,1,0,0,0,0,0,0,0,0,0,0,0,0,0,1,
scooby_state_59ce37|10|1 1,0,0,0,0,0,0,0,0,0,0,0,0,0,0,1,
scooby_state_59d4f7|2|0 1,0,0,0,0,0,0,0,0,0,0,0,0,0,0,1,
scooby_state_59ce04|55|32 1,0,0,0,0,0,0,0,0,0,0,0,0,0,0,1,
scooby_state_59cd46|18|0 0,1,0,0,0,0,0,0,0,0,0,0,0,0,0,1,
scooby_state_59cdcf|8|-3 0,1,0,0,0,0,0,0,0,0,0,0,0,0,0,1,
scooby_state_59ce37|48|1 1,0,0,0,0,0,0,0,0,0,0,0,0,0,0,1,
scooby_state_59d4f7|24|0 1,0,0,0,0,0,0,0,0,0,0,0,0,0,0,1,
scooby_state_59ce37|24|3 1,0,0,0,0,0,0,0,0,0,0,0,0,0,0,1,
scooby_state_59ce04|23|13 1,0,0,0,0,0,0,0,0,0,0,0,0,0,0,1,
scooby_state_59d4f7|25|8 1,0,0,0,0,0,0,0,0,0,0,0,0,0,0,1,
scooby_state_59ce33|5|1 1,0,0,0,0,0,0,0,0,0,0,0,0,0,0,1,
scooby_state_59cd53|44|8 1,0,0,0,0,0,0,0,0,0,0,0,0,0,0,1,
scooby_state_59cdcf|0|-36 0,1,0,0,0,0,0,0,0,0,0,0,0,0,0,1,
scooby_state_59cd53|17|0 1,0,0,0,0,0,0,0,0,0,0,0,0,0,0,1,
scooby_state_59d4f7|34|0 1,0,0,0,0,0,0,0,0,0,0,0,0,0,0,1,
scooby_state_59ce14|27|1 1,0,0,0,0,0,0,0,0,0,0,0,0,0,0,1,
scooby_state_59cd53|24|9 1,0,0,0,0,0,0,0,0,0,0,0,0,0,0,1,
scooby_state_59ce04|55|1 1,0,0,0,0,0,0,0,0,0,0,0,0,0,0,1,
scooby_state_59cd46|15|0 0,1,0,0,0,0,0,0,0,0,0,0,0,0,0,1,
scooby_state_59cdf6|10|1 1,0,0,0,0,0,0,0,0,0,0,0,0,0,0,1,
scooby_state_59ce37|27|1 1,0,0,0,0,0,0,0,0,0,0,0,0,0,0,1,
scooby_state_59d5c4|23|2 1,0,0,0,0,0,0,0,0,0,0,0,0,0,0,1,
scooby_state_59cd53|42|11 1,0,0,0,0,0,0,0,0,0,0,0,0,0,0,1,
scooby_state_59cd53|59|11 1,0,0,0,0,0,0,0,0,0,0,0,0,0,0,1,
scooby_state_59cd9b|12|4 1,0,0,0,0,0,0,0,0,0,0,0,0,0,0,1,
scooby_state_59cdf6|40|1 1,0,0,0,0,0,0,0,0,0,0,0,0,0,0,1,
scooby_state_59d501|20|1 1,0,0,0,0,0,0,0,0,0,0,0,0,0,0,1,
scooby_state_59cd53|24|12 1,0,0,0,0,0,0,0,0,0,0,0,0,0,0,1,
scooby_state_59cdf6|5|1 1,0,0,0,0,0,0,0,0,0,0,0,0,0,0,1,
scooby_state_59cd46|32|0 0,1,0,0,0,0,0,0,0,0,0,0,0,0,0,1,
scooby_state_59cd89|33|0 1,0,0,0,0,0,0,0,0,0,0,0,0,0,0,1,
scooby_state_59cd80|45|2 1,0,0,0,0,0,0,0,0,0,0,0,0,0,0,1,
scooby_state_59d510|61|1 1,0,0,0,0,0,0,0,0,0,0,0,0,0,0,1,
scooby_state_4dde41|57|1 1,0,0,0,0,0,0,0,0,0,0,0,0,0,0,1,
scooby_state_59d5d4|57|0 1,0,0,0,0,0,0,0,0,0,0,0,0,0,0,1,
scooby_state_59ce27|46|0 1,0,0,0,0,0,0,0,0,0,0,0,0,0,0,1,
scooby_state_59cd89|0|-13 1,0,0,0,0,0,0,0,0,0,0,0,0,0,0,1,
scooby_state_59cdf6|29|1 1,0,0,0,0,0,0,0,0,0,0,0,0,0,0,1,
scooby_state_59ce43|57|0 1,0,0,0,0,0,0,0,0,0,0,0,0,0,0,1,
scooby_state_59ce33|56|1 1,0,0,0,0,0,0,0,0,0,0,0,0,0,0,1,
scooby_state_59ce10|46|1 1,0,0,0,0,0,0,0,0,0,0,0,0,0,0,1,
scooby_state_59d510|9|1 1,0,0,0,0,0,0,0,0,0,0,0,0,0,0,1,
scooby_state_59ce14|40|1 1,0,0,0,0,0,0,0,0,0,0,0,0,0,0,1,
scooby_state_59cd53|57|0 1,0,0,0,0,0,0,0,0,0,0,0,0,0,0,1,
scooby_state_59ce27|30|0 1,0,0,0,0,0,0,0,0,0,0,0,0,0,0,1,
scooby_state_59cd53|30|8 1,0,0,0,0,0,0,0,0,0,0,0,0,0,0,1,
scooby_state_59ce04|19|13 1,0,0,0,0,0,0,0,0,0,0,0,0,0,0,1,
scooby_state_59ce14|60|-1 1,0,0,0,0,0,0,0,0,0,0,0,0,0,0,1,
scooby_state_59d4d1|1|0 1,0,0,0,0,0,0,0,0,0,0,0,0,0,0,1,
scooby_state_59d4e0|12|3 1,0,0,0,0,0,0,0,0,0,0,0,0,0,0,1,
scooby_state_59ce14|62|1 1,0,0,0,0,0,0,0,0,0,0,0,0,0,0,1,
scooby_state_59ce04|29|2 1,0,0,0,0,0,0,0,0,0,0,0,0,0,0,1,

scooby_action_0_deg_dist 0,190,0,0,0,0,0,0,0,0,0,0,0,0,0,0,
scooby_action_4_deg_dist 0,193,0,0,0,0,0,0,0,0,0,0,0,0,0,0,
scooby_action_3_deg_dist 0,56792,36742,0,87474,0,103146,0,0,0,0,0,0,0,0,0,
scooby_action_32_deg_dist 0,161,0,0,0,0,0,0,0,0,0,0,0,0,0,0,
scooby_action_5_deg_dist 0,177,0,0,0,0,0,0,0,0,0,0,0,0,0,0,
scooby_action_1_deg_dist 0,108165,88928,0,227140,0,799285,0,0,0,0,0,0,0,0,0,
scooby_action_30_deg_dist 0,191,0,0,0,0,0,0,0,0,0,0,0,0,0,0,
scooby_action_-3_deg_dist 0,181,0,0,0,0,0,0,0,0,0,0,0,0,0,0,
scooby_action_10_deg_dist 0,213,0,0,0,0,0,0,0,0,0,0,0,0,0,0,
scooby_action_-1_deg_dist 0,183,0,0,0,0,0,0,0,0,0,0,0,0,0,0,
scooby_action_23_deg_dist 0,184,0,0,0,0,0,0,0,0,0,0,0,0,0,0,
scooby_action_-6_deg_dist 0,177,0,0,0,0,0,0,0,0,0,0,0,0,0,0,
scooby_action_11_deg_dist 0,164,0,0,0,0,0,0,0,0,0,0,0,0,0,0,
scooby_action_22_deg_dist 0,192,0,0,0,0,0,0,0,0,0,0,0,0,0,0,
scooby_action_12_deg_dist 0,192,0,0,0,0,0,0,0,0,0,0,0,0,0,0,

scooby_track_called 1510070
scooby_track_same_address 272372
scooby_track_evict 1237442

scooby_reward_demand_called 1510070
scooby_reward_demand_pt_not_found 327961
scooby_reward_demand_pt_found 1182109
scooby_reward_demand_pt_found_total 1182109
scooby_reward_demand_has_reward 0
scooby_reward_train_called 22615
scooby_reward_assign_reward_called 1237695
scooby_reward_no_pref 190
scooby_reward_incorrect 22425
scooby_reward_correct_untimely 922280
scooby_reward_correct_timely 259829
scooby_reward_out_of_bounds 32971
scooby_reward_tracker_hit 0

scooby_reward_none_low_bw 190
scooby_reward_none_high_bw 0
scooby_reward_incorrect_low_bw 22425
scooby_reward_incorrect_high_bw 0
scooby_reward_correct_untimely_low_bw 922280
scooby_reward_correct_untimely_high_bw 0
scooby_reward_correct_timely_low_bw 259829
scooby_reward_correct_timely_high_bw 0
scooby_reward_out_of_bounds_low_bw 32971
scooby_reward_out_of_bounds_high_bw 0
scooby_reward_tracker_hit_low_bw 0
scooby_reward_tracker_hit_high_bw 0

scooby_reward_1 0,21554,713240,200263,20461,0,
scooby_reward_3 0,651,208906,58578,12033,0,
scooby_reward_4 0,14,76,92,11,0,
scooby_reward_5 0,14,33,122,8,0,
scooby_reward_10 0,21,7,152,33,0,
scooby_reward_11 0,17,3,114,30,0,
scooby_reward_12 0,2,12,143,35,0,
scooby_reward_22 0,12,0,89,91,0,
scooby_reward_23 0,14,0,107,63,0,
scooby_reward_30 0,2,2,97,90,0,
scooby_reward_32 0,6,0,72,83,0,
scooby_reward_-1 0,52,1,0,3,0,
scooby_reward_-3 0,28,0,0,10,0,
scooby_reward_-6 0,38,0,0,20,0,
scooby_reward_0 190,0,0,0,0,0,

scooby_train_called 1237441
scooby_train_compute_reward 22615

scooby_register_fill_called 1316603
scooby_register_fill_set 262144
scooby_register_fill_set_total 262144

scooby_register_prefetch_hit_called 1982589
scooby_register_prefetch_hit_set 873677
scooby_register_prefetch_hit_set_total 873677

scooby_pref_issue_scooby 5395817

learning_engine_featurewise.action.called 1510070
learning_engine_featurewise.action.explore 2782
learning_engine_featurewise.action.exploit 1507288
learning_engine_featurewise.action.fallback 0
learning_engine_featurewise.action.dyn_fallback_saved_bw 0
learning_engine_featurewise.action.dyn_fallback_saved_bw_acc 1
learning_engine_featurewise.action.index_1_explored 179
learning_engine_featurewise.action.index_1_exploited 1223339
learning_engine_featurewise.action.index_3_explored 205
learning_engine_featurewise.action.index_3_exploited 283949
learning_engine_featurewise.action.index_4_explored 193
learning_engine_featurewise.action.index_4_exploited 0
learning_engine_featurewise.action.index_5_explored 177
learning_engine_featurewise.action.index_5_exploited 0
learning_engine_featurewise.action.index_10_explored 213
learning_engine_featurewise.action.index_10_exploited 0
learning_engine_featurewise.action.index_11_explored 164
learning_engine_featurewise.action.index_11_exploited 0
learning_engine_featurewise.action.index_12_explored 192
learning_engine_featurewise.action.index_12_exploited 0
learning_engine_featurewise.action.index_22_explored 192
learning_engine_featurewise.action.index_22_exploited 0
learning_engine_featurewise.action.index_23_explored 184
learning_engine_featurewise.action.index_23_exploited 0
learning_engine_featurewise.action.index_30_explored 191
learning_engine_featurewise.action.index_30_exploited 0
learning_engine_featurewise.action.index_32_explored 161
learning_engine_featurewise.action.index_32_exploited 0
learning_engine_featurewise.action.index_-1_explored 183
learning_engine_featurewise.action.index_-1_exploited 0
learning_engine_featurewise.action.index_-3_explored 181
learning_engine_featurewise.action.index_-3_exploited 0
learning_engine_featurewise.action.index_-6_explored 177
learning_engine_featurewise.action.index_-6_exploited 0
learning_engine_featurewise.action.index_0_explored 190
learning_engine_featurewise.action.index_0_exploited 0
learning_engine_featurewise.learn.called 1237441
learning_engine_featurewise.learn.su_skip_PC 0
learning_engine_featurewise.learn.su_skip_PC_Delta 0

learning_engine_featurewise.q_value_histogram.bucket_0 0
learning_engine_featurewise.q_value_histogram.bucket_1 0
learning_engine_featurewise.q_value_histogram.bucket_2 0
learning_engine_featurewise.q_value_histogram.bucket_3 0
learning_engine_featurewise.q_value_histogram.bucket_4 1123
learning_engine_featurewise.q_value_histogram.bucket_5 22194
learning_engine_featurewise.q_value_histogram.bucket_6 1483971
learning_engine_featurewise.q_value_histogram.bucket_7 0

learning_engine_featurewise.consensus.total 1507288
learning_engine_featurewise.consensus.feature_align_PC 1507101
learning_engine_featurewise.consensus.feature_align_PC_ratio 1.00
learning_engine_featurewise.consensus.feature_align_PC_Delta 1498672
learning_engine_featurewise.consensus.feature_align_PC_Delta_ratio 0.99
learning_engine_featurewise.consensus.feature_align_all 1498485
learning_engine_featurewise.consensus.feature_align_all_ratio 0.99

learning_engine_featurewise.feature_PC_min_weight 1000000.00000000
learning_engine_featurewise.feature_PC_max_weight 0.00000000
learning_engine_featurewise.feature_PC_Delta_min_weight 1000000.00000000
learning_engine_featurewise.feature_PC_Delta_max_weight 0.00000000
unique_pcs 46
unique_pages 1296
unique_trigger_pcs 32
total_bitmaps_seen 0
unique_bitmaps_seen 0

scooby_bw_epochs 275150
scooby_bw_level_0 185136
scooby_bw_level_1 54805
scooby_bw_level_2 35115
scooby_bw_level_3 94

scooby_ipc_epochs 0
scooby_ipc_level_0 0
scooby_ipc_level_1 0
scooby_ipc_level_2 0
scooby_ipc_level_3 0

scooby_cache_acc_epochs 68763
scooby_cache_acc_level_0 256
scooby_cache_acc_level_1 70
scooby_cache_acc_level_2 42
scooby_cache_acc_level_3 55
scooby_cache_acc_level_4 60
scooby_cache_acc_level_5 111
scooby_cache_acc_level_6 211
scooby_cache_acc_level_7 6041
scooby_cache_acc_level_8 14105
scooby_cache_acc_level_9 47812

Channel_0_RQ_row_buffer_hit 498663
Channel_0_RQ_row_buffer_miss 32583
Channel_0_WQ_row_buffer_hit 0
Channel_0_WQ_row_buffer_miss 1
Channel_0_WQ_full 0
Channel_0_dbus_congested 286019

avg_congested_cycle 10

DRAM_bw_pochs 275150
DRAM_bw_level_0 185136
DRAM_bw_level_1 54805
DRAM_bw_level_2 35115
DRAM_bw_level_3 94
