*************************************************
   ChampSim Multicore Out-of-Order Simulator
   Last compiled: Apr  3 2025 20:54:34
*************************************************
parsing config file: /home/zir/Pythia/config/nopref.ini

trace_0 /home/zir/ChampSim/ML-DPC/ChampSimTraces/spec17/605.mcf-s2.trace.xz
adding L2C_PREFETCHER: NONE
Initialize SHIP state
warmup_instructions 10000000
simulation_instructions 50000000
champsim_seed 165
measure_ipc 0
measure_ipc_epoch 1000
measure_dram_bw 1
measure_dram_bw_epoch 256
measure_cache_acc 1
measure_cache_acc_epoch 1024
l1d_perfect 0
l2c_perfect 0
llc_perfect 0
l1d_semi_perfect 0
l2c_semi_perfect 0
llc_semi_perfect 0
semi_perfect_cache_page_buffer_size 64

num_cpus 1
cpu_freq 4000
dram_io_freq 2400
page_size 4096
block_size 64
max_read_per_cycle 8
max_fill_per_cycle 1
dram_channels 1
log2_dram_channels 0
dram_ranks 1
dram_banks 8
dram_rows 65536
dram_columns 128
dram_row_size 8
dram_size 4096
dram_pages 1048576

fetch_width 6
decode_width 6
exec_width 4
lq_width 2
sq_width 2
retire_width 4
scheduler_size 128
branch_mispredict_penalty 20
rob_size 256
lq_size 72
sq_size 56
num_instr_destinations_sparc 4
num_instr_destinations 2
num_instr_sources 4

itlb_set 16
itlb_way 8
itlb_rq_size 16
itlb_wq_size 16
itlb_pq_size 0
itlb_mshr_size 8
itlb_latency 1

dtlb_set 16
dtlb_way 4
dtlb_rq_size 16
dtlb_wq_size 16
dtlb_pq_size 0
dtlb_mshr_size 8
dtlb_latency 1

stlb_set 128
stlb_way 12
stlb_rq_size 32
stlb_wq_size 32
stlb_pq_size 0
stlb_mshr_size 16
stlb_latency 8

l1i_size 32
l1i_set 64
l1i_way 8
l1i_rq_size 64
l1i_wq_size 64
l1i_pq_size 8
l1i_mshr_size 8
l1i_latency 1

l1d_size 32
l1d_set 64
l1d_way 8
l1d_rq_size 64
l1d_wq_size 64
l1d_pq_size 8
l1d_mshr_size 16
l1d_latency 4

l2c_size 256
l2c_set 512
l2c_way 8
l2c_rq_size 32
l2c_wq_size 32
l2c_pq_size 32
l2c_mshr_size 32
l2c_latency 10

llc_size 2048
llc_set 2048
llc_way 16
llc_rq_size 32
llc_wq_size 32
llc_pq_size 32
llc_mshr_size 64
llc_latency 20

dram_channel_width 8
dram_wq_size 64
dram_rq_size 64
tRP 15
tRCD 15
tCAS 12.5
dram_dbus_turn_around_time 30
dram_write_high_wm 56
dram_write_low_wm 48
min_dram_writes_per_switch 16
dram_mtps 2400
dram_dbus_return_time 13


Heartbeat CPU  0 instructions:    1000001 cycles:     595485 heartbeat IPC: 1.67931 cumulative IPC: 1.67931 (Simulation time: 0 hr 0 min 1 sec) 
Heartbeat CPU  0 instructions:    2000000 cycles:    1230731 heartbeat IPC: 1.57419 cumulative IPC: 1.62505 (Simulation time: 0 hr 0 min 3 sec) 
Heartbeat CPU  0 instructions:    3000001 cycles:    1866995 heartbeat IPC: 1.57168 cumulative IPC: 1.60686 (Simulation time: 0 hr 0 min 5 sec) 
Heartbeat CPU  0 instructions:    4000000 cycles:    2549559 heartbeat IPC: 1.46506 cumulative IPC: 1.56890 (Simulation time: 0 hr 0 min 7 sec) 
Heartbeat CPU  0 instructions:    5000000 cycles:    3246601 heartbeat IPC: 1.43463 cumulative IPC: 1.54007 (Simulation time: 0 hr 0 min 8 sec) 
Heartbeat CPU  0 instructions:    6000001 cycles:    3804114 heartbeat IPC: 1.79368 cumulative IPC: 1.57724 (Simulation time: 0 hr 0 min 10 sec) 
Heartbeat CPU  0 instructions:    7000001 cycles:    4483301 heartbeat IPC: 1.47235 cumulative IPC: 1.56135 (Simulation time: 0 hr 0 min 12 sec) 
Heartbeat CPU  0 instructions:    8000000 cycles:    5073928 heartbeat IPC: 1.69311 cumulative IPC: 1.57669 (Simulation time: 0 hr 0 min 13 sec) 
Heartbeat CPU  0 instructions:    9000000 cycles:    5708472 heartbeat IPC: 1.57593 cumulative IPC: 1.57660 (Simulation time: 0 hr 0 min 15 sec) 
Heartbeat CPU  0 instructions:   10000003 cycles:    6343618 heartbeat IPC: 1.57445 cumulative IPC: 1.57639 (Simulation time: 0 hr 0 min 17 sec) 

Warmup complete CPU  0 instructions:   10000003 cycles:    6343618 (Simulation time: 0 hr 0 min 17 sec) 

Heartbeat CPU  0 instructions:   11000001 cycles:   10048764 heartbeat IPC: 0.26989 cumulative IPC: 0.26989 (Simulation time: 0 hr 0 min 20 sec) 
Heartbeat CPU  0 instructions:   12000000 cycles:   15230615 heartbeat IPC: 0.19298 cumulative IPC: 0.22505 (Simulation time: 0 hr 0 min 23 sec) 
Heartbeat CPU  0 instructions:   13000000 cycles:   20129933 heartbeat IPC: 0.20411 cumulative IPC: 0.21761 (Simulation time: 0 hr 0 min 26 sec) 
Heartbeat CPU  0 instructions:   14000002 cycles:   24334746 heartbeat IPC: 0.23782 cumulative IPC: 0.22233 (Simulation time: 0 hr 0 min 29 sec) 
Heartbeat CPU  0 instructions:   15000002 cycles:   28410238 heartbeat IPC: 0.24537 cumulative IPC: 0.22659 (Simulation time: 0 hr 0 min 33 sec) 
Heartbeat CPU  0 instructions:   16000000 cycles:   32547054 heartbeat IPC: 0.24173 cumulative IPC: 0.22898 (Simulation time: 0 hr 0 min 36 sec) 
Heartbeat CPU  0 instructions:   17000000 cycles:   37367564 heartbeat IPC: 0.20745 cumulative IPC: 0.22563 (Simulation time: 0 hr 0 min 39 sec) 
Heartbeat CPU  0 instructions:   18000002 cycles:   41868250 heartbeat IPC: 0.22219 cumulative IPC: 0.22520 (Simulation time: 0 hr 0 min 42 sec) 
Heartbeat CPU  0 instructions:   19000000 cycles:   46794647 heartbeat IPC: 0.20299 cumulative IPC: 0.22249 (Simulation time: 0 hr 0 min 45 sec) 
Heartbeat CPU  0 instructions:   20000000 cycles:   50393112 heartbeat IPC: 0.27790 cumulative IPC: 0.22702 (Simulation time: 0 hr 0 min 48 sec) 
Heartbeat CPU  0 instructions:   21000003 cycles:   54549645 heartbeat IPC: 0.24059 cumulative IPC: 0.22819 (Simulation time: 0 hr 0 min 51 sec) 
Heartbeat CPU  0 instructions:   22000003 cycles:   59797784 heartbeat IPC: 0.19054 cumulative IPC: 0.22449 (Simulation time: 0 hr 0 min 55 sec) 
Heartbeat CPU  0 instructions:   23000000 cycles:   63506054 heartbeat IPC: 0.26967 cumulative IPC: 0.22742 (Simulation time: 0 hr 0 min 58 sec) 
Heartbeat CPU  0 instructions:   24000000 cycles:   67417814 heartbeat IPC: 0.25564 cumulative IPC: 0.22923 (Simulation time: 0 hr 1 min 1 sec) 
Heartbeat CPU  0 instructions:   25000000 cycles:   72084267 heartbeat IPC: 0.21430 cumulative IPC: 0.22817 (Simulation time: 0 hr 1 min 4 sec) 
Heartbeat CPU  0 instructions:   26000001 cycles:   76242902 heartbeat IPC: 0.24046 cumulative IPC: 0.22890 (Simulation time: 0 hr 1 min 7 sec) 
Heartbeat CPU  0 instructions:   27000000 cycles:   80769695 heartbeat IPC: 0.22091 cumulative IPC: 0.22841 (Simulation time: 0 hr 1 min 10 sec) 
Heartbeat CPU  0 instructions:   28000000 cycles:   85244842 heartbeat IPC: 0.22346 cumulative IPC: 0.22813 (Simulation time: 0 hr 1 min 14 sec) 
Heartbeat CPU  0 instructions:   29000000 cycles:   89468686 heartbeat IPC: 0.23675 cumulative IPC: 0.22857 (Simulation time: 0 hr 1 min 17 sec) 
Heartbeat CPU  0 instructions:   30000003 cycles:   93558127 heartbeat IPC: 0.24453 cumulative IPC: 0.22932 (Simulation time: 0 hr 1 min 20 sec) 
Heartbeat CPU  0 instructions:   31000001 cycles:   97631152 heartbeat IPC: 0.24552 cumulative IPC: 0.23004 (Simulation time: 0 hr 1 min 23 sec) 
Heartbeat CPU  0 instructions:   32000000 cycles:  101812769 heartbeat IPC: 0.23914 cumulative IPC: 0.23044 (Simulation time: 0 hr 1 min 26 sec) 
Heartbeat CPU  0 instructions:   33000000 cycles:  106695870 heartbeat IPC: 0.20479 cumulative IPC: 0.22919 (Simulation time: 0 hr 1 min 30 sec) 
Heartbeat CPU  0 instructions:   34000000 cycles:  110912365 heartbeat IPC: 0.23716 cumulative IPC: 0.22951 (Simulation time: 0 hr 1 min 33 sec) 
Heartbeat CPU  0 instructions:   35000002 cycles:  114968795 heartbeat IPC: 0.24652 cumulative IPC: 0.23015 (Simulation time: 0 hr 1 min 36 sec) 
Heartbeat CPU  0 instructions:   36000000 cycles:  119506050 heartbeat IPC: 0.22040 cumulative IPC: 0.22976 (Simulation time: 0 hr 1 min 39 sec) 
Heartbeat CPU  0 instructions:   37000001 cycles:  123506873 heartbeat IPC: 0.24995 cumulative IPC: 0.23045 (Simulation time: 0 hr 1 min 42 sec) 
Heartbeat CPU  0 instructions:   38000000 cycles:  128506632 heartbeat IPC: 0.20001 cumulative IPC: 0.22920 (Simulation time: 0 hr 1 min 45 sec) 
Heartbeat CPU  0 instructions:   39000001 cycles:  132907644 heartbeat IPC: 0.22722 cumulative IPC: 0.22913 (Simulation time: 0 hr 1 min 48 sec) 
Heartbeat CPU  0 instructions:   40000000 cycles:  137124031 heartbeat IPC: 0.23717 cumulative IPC: 0.22939 (Simulation time: 0 hr 1 min 52 sec) 
Heartbeat CPU  0 instructions:   41000002 cycles:  141222083 heartbeat IPC: 0.24402 cumulative IPC: 0.22984 (Simulation time: 0 hr 1 min 55 sec) 
Heartbeat CPU  0 instructions:   42000000 cycles:  146160810 heartbeat IPC: 0.20248 cumulative IPC: 0.22887 (Simulation time: 0 hr 1 min 58 sec) 
Heartbeat CPU  0 instructions:   43000003 cycles:  149862795 heartbeat IPC: 0.27013 cumulative IPC: 0.22993 (Simulation time: 0 hr 2 min 1 sec) 
Heartbeat CPU  0 instructions:   44000000 cycles:  154009940 heartbeat IPC: 0.24113 cumulative IPC: 0.23025 (Simulation time: 0 hr 2 min 4 sec) 
Heartbeat CPU  0 instructions:   45000001 cycles:  158420519 heartbeat IPC: 0.22673 cumulative IPC: 0.23015 (Simulation time: 0 hr 2 min 8 sec) 
Heartbeat CPU  0 instructions:   46000000 cycles:  162977136 heartbeat IPC: 0.21946 cumulative IPC: 0.22984 (Simulation time: 0 hr 2 min 11 sec) 
Heartbeat CPU  0 instructions:   47000000 cycles:  167177786 heartbeat IPC: 0.23806 cumulative IPC: 0.23005 (Simulation time: 0 hr 2 min 14 sec) 
Heartbeat CPU  0 instructions:   48000000 cycles:  171695716 heartbeat IPC: 0.22134 cumulative IPC: 0.22981 (Simulation time: 0 hr 2 min 17 sec) 
Heartbeat CPU  0 instructions:   49000000 cycles:  176253152 heartbeat IPC: 0.21942 cumulative IPC: 0.22953 (Simulation time: 0 hr 2 min 20 sec) 
Heartbeat CPU  0 instructions:   50000000 cycles:  181156259 heartbeat IPC: 0.20395 cumulative IPC: 0.22882 (Simulation time: 0 hr 2 min 23 sec) 
Heartbeat CPU  0 instructions:   51000002 cycles:  184965935 heartbeat IPC: 0.26249 cumulative IPC: 0.22953 (Simulation time: 0 hr 2 min 27 sec) 
Heartbeat CPU  0 instructions:   52000000 cycles:  189010626 heartbeat IPC: 0.24724 cumulative IPC: 0.22993 (Simulation time: 0 hr 2 min 30 sec) 
Heartbeat CPU  0 instructions:   53000003 cycles:  192897810 heartbeat IPC: 0.25726 cumulative IPC: 0.23050 (Simulation time: 0 hr 2 min 33 sec) 
Heartbeat CPU  0 instructions:   54000001 cycles:  198055655 heartbeat IPC: 0.19388 cumulative IPC: 0.22951 (Simulation time: 0 hr 2 min 36 sec) 
Heartbeat CPU  0 instructions:   55000001 cycles:  202641154 heartbeat IPC: 0.21808 cumulative IPC: 0.22924 (Simulation time: 0 hr 2 min 39 sec) 
Heartbeat CPU  0 instructions:   56000000 cycles:  206760827 heartbeat IPC: 0.24274 cumulative IPC: 0.22952 (Simulation time: 0 hr 2 min 42 sec) 
Heartbeat CPU  0 instructions:   57000001 cycles:  210884200 heartbeat IPC: 0.24252 cumulative IPC: 0.22978 (Simulation time: 0 hr 2 min 46 sec) 
Heartbeat CPU  0 instructions:   58000003 cycles:  215167250 heartbeat IPC: 0.23348 cumulative IPC: 0.22986 (Simulation time: 0 hr 2 min 49 sec) 
Heartbeat CPU  0 instructions:   59000001 cycles:  220110045 heartbeat IPC: 0.20231 cumulative IPC: 0.22922 (Simulation time: 0 hr 2 min 52 sec) 
Heartbeat CPU  0 instructions:   60000000 cycles:  224701900 heartbeat IPC: 0.21778 cumulative IPC: 0.22898 (Simulation time: 0 hr 2 min 55 sec) 
Finished CPU 0 instructions: 50000000 cycles: 218358459 cumulative IPC: 0.22898 (Simulation time: 0 hr 2 min 55 sec) 

ChampSim completed all CPUs

[ROI Statistics]
Core_0_instructions 50000000
Core_0_cycles 218358459
Core_0_IPC 0.22898

Core_0_branch_prediction_accuracy 97.85477
Core_0_branch_MPKI 3.90788
Core_0_average_ROB_occupancy_at_mispredict 77.49890

Core_0_L1D_total_access 19192615
Core_0_L1D_total_hit 11500038
Core_0_L1D_total_miss 7692577
Core_0_L1D_loads 15944902
Core_0_L1D_load_hit 8405906
Core_0_L1D_load_miss 7538996
Core_0_L1D_RFOs 3247713
Core_0_L1D_RFO_hit 3094132
Core_0_L1D_RFO_miss 153581
Core_0_L1D_prefetches 0
Core_0_L1D_prefetch_hit 0
Core_0_L1D_prefetch_miss 0
Core_0_L1D_writebacks 0
Core_0_L1D_writeback_hit 0
Core_0_L1D_writeback_miss 0
Core_0_L1D_prefetch_requested 0
Core_0_L1D_prefetch_dropped 0
Core_0_L1D_prefetch_issued 0
Core_0_L1D_prefetch_filled 0
Core_0_L1D_prefetch_useful 0
Core_0_L1D_prefetch_useless 0
Core_0_L1D_prefetch_late 0
Core_0_L1D_average_miss_latency 74.13901

Core_0_L1D_rq_access 20648702
Core_0_L1D_rq_forward 0
Core_0_L1D_rq_merged 3834118
Core_0_L1D_rq_to_cache 16814584
Core_0_L1D_rq_full 0

Core_0_L1D_wq_access 3596625
Core_0_L1D_wq_forward 0
Core_0_L1D_wq_merged 4052
Core_0_L1D_wq_to_cache 3592573
Core_0_L1D_wq_full 0

Core_0_L1D_pq_access 0
Core_0_L1D_pq_forward 0
Core_0_L1D_pq_merged 0
Core_0_L1D_pq_to_cache 0
Core_0_L1D_pq_full 0

Core_0_L1D_acc_epochs 219010
Core_0_L1D_acc_level_0 219010
Core_0_L1D_acc_level_1 0
Core_0_L1D_acc_level_2 0
Core_0_L1D_acc_level_3 0
Core_0_L1D_acc_level_4 0
Core_0_L1D_acc_level_5 0
Core_0_L1D_acc_level_6 0
Core_0_L1D_acc_level_7 0
Core_0_L1D_acc_level_8 0
Core_0_L1D_acc_level_9 0

Core_0_L1I_total_access 17846715
Core_0_L1I_total_hit 17846715
Core_0_L1I_total_miss 0
Core_0_L1I_loads 17846715
Core_0_L1I_load_hit 17846715
Core_0_L1I_load_miss 0
Core_0_L1I_RFOs 0
Core_0_L1I_RFO_hit 0
Core_0_L1I_RFO_miss 0
Core_0_L1I_prefetches 0
Core_0_L1I_prefetch_hit 0
Core_0_L1I_prefetch_miss 0
Core_0_L1I_writebacks 0
Core_0_L1I_writeback_hit 0
Core_0_L1I_writeback_miss 0
Core_0_L1I_prefetch_requested 0
Core_0_L1I_prefetch_dropped 0
Core_0_L1I_prefetch_issued 0
Core_0_L1I_prefetch_filled 0
Core_0_L1I_prefetch_useful 0
Core_0_L1I_prefetch_useless 0
Core_0_L1I_prefetch_late 0
Core_0_L1I_average_miss_latency -nan

Core_0_L1I_rq_access 50000008
Core_0_L1I_rq_forward 0
Core_0_L1I_rq_merged 32153293
Core_0_L1I_rq_to_cache 17846715
Core_0_L1I_rq_full 0

Core_0_L1I_wq_access 0
Core_0_L1I_wq_forward 0
Core_0_L1I_wq_merged 0
Core_0_L1I_wq_to_cache 0
Core_0_L1I_wq_full 0

Core_0_L1I_pq_access 0
Core_0_L1I_pq_forward 0
Core_0_L1I_pq_merged 0
Core_0_L1I_pq_to_cache 0
Core_0_L1I_pq_full 0

Core_0_L1I_acc_epochs 219010
Core_0_L1I_acc_level_0 219010
Core_0_L1I_acc_level_1 0
Core_0_L1I_acc_level_2 0
Core_0_L1I_acc_level_3 0
Core_0_L1I_acc_level_4 0
Core_0_L1I_acc_level_5 0
Core_0_L1I_acc_level_6 0
Core_0_L1I_acc_level_7 0
Core_0_L1I_acc_level_8 0
Core_0_L1I_acc_level_9 0

Core_0_L2C_total_access 7877827
Core_0_L2C_total_hit 186106
Core_0_L2C_total_miss 7691721
Core_0_L2C_loads 7538996
Core_0_L2C_load_hit 1121
Core_0_L2C_load_miss 7537875
Core_0_L2C_RFOs 153581
Core_0_L2C_RFO_hit 360
Core_0_L2C_RFO_miss 153221
Core_0_L2C_prefetches 0
Core_0_L2C_prefetch_hit 0
Core_0_L2C_prefetch_miss 0
Core_0_L2C_writebacks 185250
Core_0_L2C_writeback_hit 184625
Core_0_L2C_writeback_miss 625
Core_0_L2C_prefetch_requested 0
Core_0_L2C_prefetch_dropped 0
Core_0_L2C_prefetch_issued 0
Core_0_L2C_prefetch_filled 0
Core_0_L2C_prefetch_useful 0
Core_0_L2C_prefetch_useless 0
Core_0_L2C_prefetch_late 0
Core_0_L2C_average_miss_latency 60.02089

Core_0_L2C_rq_access 7692579
Core_0_L2C_rq_forward 0
Core_0_L2C_rq_merged 0
Core_0_L2C_rq_to_cache 7692578
Core_0_L2C_rq_full 0

Core_0_L2C_wq_access 185250
Core_0_L2C_wq_forward 1
Core_0_L2C_wq_merged 0
Core_0_L2C_wq_to_cache 185250
Core_0_L2C_wq_full 0

Core_0_L2C_pq_access 0
Core_0_L2C_pq_forward 0
Core_0_L2C_pq_merged 0
Core_0_L2C_pq_to_cache 0
Core_0_L2C_pq_full 0

Core_0_L2C_acc_epochs 219010
Core_0_L2C_acc_level_0 219010
Core_0_L2C_acc_level_1 0
Core_0_L2C_acc_level_2 0
Core_0_L2C_acc_level_3 0
Core_0_L2C_acc_level_4 0
Core_0_L2C_acc_level_5 0
Core_0_L2C_acc_level_6 0
Core_0_L2C_acc_level_7 0
Core_0_L2C_acc_level_8 0
Core_0_L2C_acc_level_9 0

Core_0_LLC_total_access 7875604
Core_0_LLC_total_hit 6108910
Core_0_LLC_total_miss 1766694
Core_0_LLC_loads 7537875
Core_0_LLC_load_hit 5990554
Core_0_LLC_load_miss 1547321
Core_0_LLC_RFOs 153221
Core_0_LLC_RFO_hit 917
Core_0_LLC_RFO_miss 152304
Core_0_LLC_prefetches 0
Core_0_LLC_prefetch_hit 0
Core_0_LLC_prefetch_miss 0
Core_0_LLC_writebacks 184508
Core_0_LLC_writeback_hit 117439
Core_0_LLC_writeback_miss 67069
Core_0_LLC_prefetch_requested 0
Core_0_LLC_prefetch_dropped 0
Core_0_LLC_prefetch_issued 0
Core_0_LLC_prefetch_filled 0
Core_0_LLC_prefetch_useful 0
Core_0_LLC_prefetch_useless 0
Core_0_LLC_prefetch_late 0
Core_0_LLC_average_miss_latency 130.62897

Core_0_LLC_rq_access 7691097
Core_0_LLC_rq_forward 0
Core_0_LLC_rq_merged 0
Core_0_LLC_rq_to_cache 7691097
Core_0_LLC_rq_full 0

Core_0_LLC_wq_access 184508
Core_0_LLC_wq_forward 0
Core_0_LLC_wq_merged 0
Core_0_LLC_wq_to_cache 184508
Core_0_LLC_wq_full 0

Core_0_LLC_pq_access 0
Core_0_LLC_pq_forward 0
Core_0_LLC_pq_merged 0
Core_0_LLC_pq_to_cache 0
Core_0_LLC_pq_full 0

Core_0_LLC_acc_epochs 219436
Core_0_LLC_acc_level_0 219436
Core_0_LLC_acc_level_1 0
Core_0_LLC_acc_level_2 0
Core_0_LLC_acc_level_3 0
Core_0_LLC_acc_level_4 0
Core_0_LLC_acc_level_5 0
Core_0_LLC_acc_level_6 0
Core_0_LLC_acc_level_7 0
Core_0_LLC_acc_level_8 0
Core_0_LLC_acc_level_9 0

Core_0_major_page_fault 0
Core_0_minor_page_fault 6272

Channel_0_RQ_row_buffer_hit 960484
Channel_0_RQ_row_buffer_miss 739142
Channel_0_WQ_row_buffer_hit 126452
Channel_0_WQ_row_buffer_miss 56321
Channel_0_WQ_full 0
Channel_0_dbus_congested 449330

avg_congested_cycle 9

DRAM_bw_pochs 877743
DRAM_bw_level_0 595713
DRAM_bw_level_1 202821
DRAM_bw_level_2 65703
DRAM_bw_level_3 13506
