*************************************************
   ChampSim Multicore Out-of-Order Simulator
   Last compiled: Apr  3 2025 20:54:34
*************************************************
parsing config file: /home/zir/Pythia/config/mlop.ini

trace_0 /home/zir/ChampSim/ML-DPC/ChampSimTraces/spec17/654.roms-s3.trace.xz
adding L2C_PREFETCHER: MLOP
Initialize SHIP state
warmup_instructions 10000000
simulation_instructions 50000000
champsim_seed 166
measure_ipc 0
measure_ipc_epoch 1000
measure_dram_bw 1
measure_dram_bw_epoch 256
measure_cache_acc 1
measure_cache_acc_epoch 1024
l1d_perfect 0
l2c_perfect 0
llc_perfect 0
l1d_semi_perfect 0
l2c_semi_perfect 0
llc_semi_perfect 0
semi_perfect_cache_page_buffer_size 64

num_cpus 1
cpu_freq 4000
dram_io_freq 2400
page_size 4096
block_size 64
max_read_per_cycle 8
max_fill_per_cycle 1
dram_channels 1
log2_dram_channels 0
dram_ranks 1
dram_banks 8
dram_rows 65536
dram_columns 128
dram_row_size 8
dram_size 4096
dram_pages 1048576

fetch_width 6
decode_width 6
exec_width 4
lq_width 2
sq_width 2
retire_width 4
scheduler_size 128
branch_mispredict_penalty 20
rob_size 256
lq_size 72
sq_size 56
num_instr_destinations_sparc 4
num_instr_destinations 2
num_instr_sources 4

itlb_set 16
itlb_way 8
itlb_rq_size 16
itlb_wq_size 16
itlb_pq_size 0
itlb_mshr_size 8
itlb_latency 1

dtlb_set 16
dtlb_way 4
dtlb_rq_size 16
dtlb_wq_size 16
dtlb_pq_size 0
dtlb_mshr_size 8
dtlb_latency 1

stlb_set 128
stlb_way 12
stlb_rq_size 32
stlb_wq_size 32
stlb_pq_size 0
stlb_mshr_size 16
stlb_latency 8

l1i_size 32
l1i_set 64
l1i_way 8
l1i_rq_size 64
l1i_wq_size 64
l1i_pq_size 8
l1i_mshr_size 8
l1i_latency 1

l1d_size 32
l1d_set 64
l1d_way 8
l1d_rq_size 64
l1d_wq_size 64
l1d_pq_size 8
l1d_mshr_size 16
l1d_latency 4

l2c_size 256
l2c_set 512
l2c_way 8
l2c_rq_size 32
l2c_wq_size 32
l2c_pq_size 32
l2c_mshr_size 32
l2c_latency 10

llc_size 2048
llc_set 2048
llc_way 16
llc_rq_size 32
llc_wq_size 32
llc_pq_size 32
llc_mshr_size 64
llc_latency 20

dram_channel_width 8
dram_wq_size 64
dram_rq_size 64
tRP 15
tRCD 15
tCAS 12.5
dram_dbus_turn_around_time 30
dram_write_high_wm 56
dram_write_low_wm 48
min_dram_writes_per_switch 16
dram_mtps 2400
dram_dbus_return_time 13

mlop_pref_degree 16
mlop_num_updates 500
mlop_l1d_thresh 2
mlop_l2c_thresh 0.75
mlop_llc_thresh 0.3
mlop_debug_level 0
mlop_blocks_in_cache 4096
mlop_blocks_in_zone 64
mlop_amt_size 2048
mlop_PF_DEGREE 16
mlop_NUM_UPDATES 500
mlop_L1D_THRESH 1000
mlop_L2C_THRESH 375
mlop_LLC_THRESH 150
mlop_ORIGIN 63
mlop_MAX_OFFSET 63
mlop_MIN_OFFSET -63
mlop_ORIGIN 63
mlop_NUM_OFFSETS 127


Heartbeat CPU  0 instructions:    1000003 cycles:     651111 heartbeat IPC: 1.53584 cumulative IPC: 1.53584 (Simulation time: 0 hr 0 min 2 sec) 
Heartbeat CPU  0 instructions:    2000003 cycles:    1302237 heartbeat IPC: 1.53580 cumulative IPC: 1.53582 (Simulation time: 0 hr 0 min 5 sec) 
Heartbeat CPU  0 instructions:    3000002 cycles:    1953397 heartbeat IPC: 1.53572 cumulative IPC: 1.53579 (Simulation time: 0 hr 0 min 7 sec) 
Heartbeat CPU  0 instructions:    4000000 cycles:    2604507 heartbeat IPC: 1.53584 cumulative IPC: 1.53580 (Simulation time: 0 hr 0 min 9 sec) 
Heartbeat CPU  0 instructions:    5000001 cycles:    3255736 heartbeat IPC: 1.53556 cumulative IPC: 1.53575 (Simulation time: 0 hr 0 min 11 sec) 
Heartbeat CPU  0 instructions:    6000003 cycles:    3944115 heartbeat IPC: 1.45269 cumulative IPC: 1.52125 (Simulation time: 0 hr 0 min 13 sec) 
Heartbeat CPU  0 instructions:    7000003 cycles:    4657309 heartbeat IPC: 1.40214 cumulative IPC: 1.50301 (Simulation time: 0 hr 0 min 15 sec) 
Heartbeat CPU  0 instructions:    8000000 cycles:    5370508 heartbeat IPC: 1.40213 cumulative IPC: 1.48962 (Simulation time: 0 hr 0 min 18 sec) 
Heartbeat CPU  0 instructions:    9000003 cycles:    6083779 heartbeat IPC: 1.40200 cumulative IPC: 1.47934 (Simulation time: 0 hr 0 min 20 sec) 
Heartbeat CPU  0 instructions:   10000002 cycles:    6796973 heartbeat IPC: 1.40214 cumulative IPC: 1.47124 (Simulation time: 0 hr 0 min 22 sec) 

Warmup complete CPU  0 instructions:   10000002 cycles:    6796973 (Simulation time: 0 hr 0 min 22 sec) 

Heartbeat CPU  0 instructions:   11000001 cycles:    7934839 heartbeat IPC: 0.87884 cumulative IPC: 0.87884 (Simulation time: 0 hr 0 min 24 sec) 
Heartbeat CPU  0 instructions:   12000000 cycles:    9060842 heartbeat IPC: 0.88810 cumulative IPC: 0.88344 (Simulation time: 0 hr 0 min 27 sec) 
Heartbeat CPU  0 instructions:   13000002 cycles:   10186865 heartbeat IPC: 0.88808 cumulative IPC: 0.88498 (Simulation time: 0 hr 0 min 29 sec) 
Heartbeat CPU  0 instructions:   14000002 cycles:   11139054 heartbeat IPC: 1.05021 cumulative IPC: 0.92122 (Simulation time: 0 hr 0 min 31 sec) 
Heartbeat CPU  0 instructions:   15000003 cycles:   12569609 heartbeat IPC: 0.69903 cumulative IPC: 0.86616 (Simulation time: 0 hr 0 min 33 sec) 
Heartbeat CPU  0 instructions:   16000000 cycles:   14106133 heartbeat IPC: 0.65082 cumulative IPC: 0.82089 (Simulation time: 0 hr 0 min 35 sec) 
Heartbeat CPU  0 instructions:   17000003 cycles:   16498350 heartbeat IPC: 0.41802 cumulative IPC: 0.72155 (Simulation time: 0 hr 0 min 38 sec) 
Heartbeat CPU  0 instructions:   18000003 cycles:   18208369 heartbeat IPC: 0.58479 cumulative IPC: 0.70105 (Simulation time: 0 hr 0 min 40 sec) 
Heartbeat CPU  0 instructions:   19000003 cycles:   19604266 heartbeat IPC: 0.71639 cumulative IPC: 0.70272 (Simulation time: 0 hr 0 min 42 sec) 
Heartbeat CPU  0 instructions:   20000000 cycles:   20816220 heartbeat IPC: 0.82511 cumulative IPC: 0.71330 (Simulation time: 0 hr 0 min 44 sec) 
Heartbeat CPU  0 instructions:   21000003 cycles:   21948148 heartbeat IPC: 0.88345 cumulative IPC: 0.72602 (Simulation time: 0 hr 0 min 46 sec) 
Heartbeat CPU  0 instructions:   22000003 cycles:   23108914 heartbeat IPC: 0.86150 cumulative IPC: 0.73566 (Simulation time: 0 hr 0 min 48 sec) 
Heartbeat CPU  0 instructions:   23000003 cycles:   24332385 heartbeat IPC: 0.81735 cumulative IPC: 0.74136 (Simulation time: 0 hr 0 min 50 sec) 
Heartbeat CPU  0 instructions:   24000000 cycles:   25510558 heartbeat IPC: 0.84877 cumulative IPC: 0.74812 (Simulation time: 0 hr 0 min 53 sec) 
Heartbeat CPU  0 instructions:   25000001 cycles:   26693398 heartbeat IPC: 0.84542 cumulative IPC: 0.75390 (Simulation time: 0 hr 0 min 55 sec) 
Heartbeat CPU  0 instructions:   26000003 cycles:   27894528 heartbeat IPC: 0.83255 cumulative IPC: 0.75838 (Simulation time: 0 hr 0 min 57 sec) 
Heartbeat CPU  0 instructions:   27000003 cycles:   29062819 heartbeat IPC: 0.85595 cumulative IPC: 0.76350 (Simulation time: 0 hr 0 min 59 sec) 
Heartbeat CPU  0 instructions:   28000000 cycles:   30460459 heartbeat IPC: 0.71549 cumulative IPC: 0.76067 (Simulation time: 0 hr 1 min 1 sec) 
Heartbeat CPU  0 instructions:   29000003 cycles:   31951397 heartbeat IPC: 0.67072 cumulative IPC: 0.75533 (Simulation time: 0 hr 1 min 3 sec) 
Heartbeat CPU  0 instructions:   30000002 cycles:   33452193 heartbeat IPC: 0.66631 cumulative IPC: 0.75032 (Simulation time: 0 hr 1 min 5 sec) 
Heartbeat CPU  0 instructions:   31000002 cycles:   34968946 heartbeat IPC: 0.65930 cumulative IPC: 0.74542 (Simulation time: 0 hr 1 min 7 sec) 
Heartbeat CPU  0 instructions:   32000000 cycles:   36394431 heartbeat IPC: 0.70151 cumulative IPC: 0.74331 (Simulation time: 0 hr 1 min 10 sec) 
Heartbeat CPU  0 instructions:   33000003 cycles:   37904370 heartbeat IPC: 0.66228 cumulative IPC: 0.73937 (Simulation time: 0 hr 1 min 12 sec) 
Heartbeat CPU  0 instructions:   34000001 cycles:   39429820 heartbeat IPC: 0.65554 cumulative IPC: 0.73546 (Simulation time: 0 hr 1 min 14 sec) 
Heartbeat CPU  0 instructions:   35000000 cycles:   41070864 heartbeat IPC: 0.60937 cumulative IPC: 0.72942 (Simulation time: 0 hr 1 min 17 sec) 
Heartbeat CPU  0 instructions:   36000000 cycles:   43078788 heartbeat IPC: 0.49803 cumulative IPC: 0.71661 (Simulation time: 0 hr 1 min 20 sec) 
Heartbeat CPU  0 instructions:   37000000 cycles:   44612045 heartbeat IPC: 0.65221 cumulative IPC: 0.71400 (Simulation time: 0 hr 1 min 23 sec) 
Heartbeat CPU  0 instructions:   38000003 cycles:   46217897 heartbeat IPC: 0.62272 cumulative IPC: 0.71028 (Simulation time: 0 hr 1 min 26 sec) 
Heartbeat CPU  0 instructions:   39000000 cycles:   47787347 heartbeat IPC: 0.63716 cumulative IPC: 0.70748 (Simulation time: 0 hr 1 min 29 sec) 
Heartbeat CPU  0 instructions:   40000000 cycles:   49357547 heartbeat IPC: 0.63686 cumulative IPC: 0.70488 (Simulation time: 0 hr 1 min 32 sec) 
Heartbeat CPU  0 instructions:   41000003 cycles:   50964772 heartbeat IPC: 0.62219 cumulative IPC: 0.70187 (Simulation time: 0 hr 1 min 35 sec) 
Heartbeat CPU  0 instructions:   42000003 cycles:   52514604 heartbeat IPC: 0.64523 cumulative IPC: 0.69995 (Simulation time: 0 hr 1 min 38 sec) 
Heartbeat CPU  0 instructions:   43000003 cycles:   54122250 heartbeat IPC: 0.62203 cumulative IPC: 0.69730 (Simulation time: 0 hr 1 min 41 sec) 
Heartbeat CPU  0 instructions:   44000000 cycles:   55650707 heartbeat IPC: 0.65425 cumulative IPC: 0.69595 (Simulation time: 0 hr 1 min 44 sec) 
Heartbeat CPU  0 instructions:   45000001 cycles:   57269198 heartbeat IPC: 0.61786 cumulative IPC: 0.69345 (Simulation time: 0 hr 1 min 47 sec) 
Heartbeat CPU  0 instructions:   46000002 cycles:   58805850 heartbeat IPC: 0.65077 cumulative IPC: 0.69219 (Simulation time: 0 hr 1 min 50 sec) 
Heartbeat CPU  0 instructions:   47000001 cycles:   60419258 heartbeat IPC: 0.61981 cumulative IPC: 0.69001 (Simulation time: 0 hr 1 min 53 sec) 
Heartbeat CPU  0 instructions:   48000000 cycles:   61932320 heartbeat IPC: 0.66091 cumulative IPC: 0.68921 (Simulation time: 0 hr 1 min 56 sec) 
Heartbeat CPU  0 instructions:   49000001 cycles:   63170426 heartbeat IPC: 0.80769 cumulative IPC: 0.69181 (Simulation time: 0 hr 1 min 57 sec) 
Heartbeat CPU  0 instructions:   50000003 cycles:   64686711 heartbeat IPC: 0.65951 cumulative IPC: 0.69097 (Simulation time: 0 hr 1 min 59 sec) 
Heartbeat CPU  0 instructions:   51000001 cycles:   66134724 heartbeat IPC: 0.69060 cumulative IPC: 0.69096 (Simulation time: 0 hr 2 min 1 sec) 
Heartbeat CPU  0 instructions:   52000000 cycles:   67177070 heartbeat IPC: 0.95937 cumulative IPC: 0.69559 (Simulation time: 0 hr 2 min 3 sec) 
Heartbeat CPU  0 instructions:   53000002 cycles:   68066433 heartbeat IPC: 1.12440 cumulative IPC: 0.70182 (Simulation time: 0 hr 2 min 5 sec) 
Heartbeat CPU  0 instructions:   54000003 cycles:   68915330 heartbeat IPC: 1.17800 cumulative IPC: 0.70833 (Simulation time: 0 hr 2 min 7 sec) 
Heartbeat CPU  0 instructions:   55000001 cycles:   69695684 heartbeat IPC: 1.28147 cumulative IPC: 0.71544 (Simulation time: 0 hr 2 min 8 sec) 
Heartbeat CPU  0 instructions:   56000000 cycles:   70425595 heartbeat IPC: 1.37003 cumulative IPC: 0.72295 (Simulation time: 0 hr 2 min 10 sec) 
Heartbeat CPU  0 instructions:   57000003 cycles:   71151916 heartbeat IPC: 1.37681 cumulative IPC: 0.73032 (Simulation time: 0 hr 2 min 12 sec) 
Heartbeat CPU  0 instructions:   58000003 cycles:   71886155 heartbeat IPC: 1.36195 cumulative IPC: 0.73745 (Simulation time: 0 hr 2 min 13 sec) 
Heartbeat CPU  0 instructions:   59000002 cycles:   72627945 heartbeat IPC: 1.34809 cumulative IPC: 0.74433 (Simulation time: 0 hr 2 min 15 sec) 
Heartbeat CPU  0 instructions:   60000000 cycles:   73366406 heartbeat IPC: 1.35416 cumulative IPC: 0.75110 (Simulation time: 0 hr 2 min 17 sec) 
Finished CPU 0 instructions: 50000000 cycles: 66569441 cumulative IPC: 0.75110 (Simulation time: 0 hr 2 min 17 sec) 

ChampSim completed all CPUs

[ROI Statistics]
Core_0_instructions 50000000
Core_0_cycles 66569441
Core_0_IPC 0.75110

Core_0_branch_prediction_accuracy 99.79431
Core_0_branch_MPKI 0.12722
Core_0_average_ROB_occupancy_at_mispredict 247.26018

Core_0_L1D_total_access 11560192
Core_0_L1D_total_hit 9739430
Core_0_L1D_total_miss 1820762
Core_0_L1D_loads 9501892
Core_0_L1D_load_hit 8179611
Core_0_L1D_load_miss 1322281
Core_0_L1D_RFOs 2058300
Core_0_L1D_RFO_hit 1559819
Core_0_L1D_RFO_miss 498481
Core_0_L1D_prefetches 0
Core_0_L1D_prefetch_hit 0
Core_0_L1D_prefetch_miss 0
Core_0_L1D_writebacks 0
Core_0_L1D_writeback_hit 0
Core_0_L1D_writeback_miss 0
Core_0_L1D_prefetch_requested 0
Core_0_L1D_prefetch_dropped 0
Core_0_L1D_prefetch_issued 0
Core_0_L1D_prefetch_filled 0
Core_0_L1D_prefetch_useful 0
Core_0_L1D_prefetch_useless 0
Core_0_L1D_prefetch_late 0
Core_0_L1D_average_miss_latency 222.21937

Core_0_L1D_rq_access 17792455
Core_0_L1D_rq_forward 0
Core_0_L1D_rq_merged 7513718
Core_0_L1D_rq_to_cache 10278733
Core_0_L1D_rq_full 0

Core_0_L1D_wq_access 5193404
Core_0_L1D_wq_forward 4
Core_0_L1D_wq_merged 0
Core_0_L1D_wq_to_cache 5193404
Core_0_L1D_wq_full 3193

Core_0_L1D_pq_access 0
Core_0_L1D_pq_forward 0
Core_0_L1D_pq_merged 0
Core_0_L1D_pq_to_cache 0
Core_0_L1D_pq_full 0

Core_0_L1D_acc_epochs 67880
Core_0_L1D_acc_level_0 67880
Core_0_L1D_acc_level_1 0
Core_0_L1D_acc_level_2 0
Core_0_L1D_acc_level_3 0
Core_0_L1D_acc_level_4 0
Core_0_L1D_acc_level_5 0
Core_0_L1D_acc_level_6 0
Core_0_L1D_acc_level_7 0
Core_0_L1D_acc_level_8 0
Core_0_L1D_acc_level_9 0

Core_0_L1I_total_access 10700853
Core_0_L1I_total_hit 10700434
Core_0_L1I_total_miss 419
Core_0_L1I_loads 10700853
Core_0_L1I_load_hit 10700434
Core_0_L1I_load_miss 419
Core_0_L1I_RFOs 0
Core_0_L1I_RFO_hit 0
Core_0_L1I_RFO_miss 0
Core_0_L1I_prefetches 0
Core_0_L1I_prefetch_hit 0
Core_0_L1I_prefetch_miss 0
Core_0_L1I_writebacks 0
Core_0_L1I_writeback_hit 0
Core_0_L1I_writeback_miss 0
Core_0_L1I_prefetch_requested 0
Core_0_L1I_prefetch_dropped 0
Core_0_L1I_prefetch_issued 0
Core_0_L1I_prefetch_filled 0
Core_0_L1I_prefetch_useful 0
Core_0_L1I_prefetch_useless 0
Core_0_L1I_prefetch_late 0
Core_0_L1I_average_miss_latency 372.78520

Core_0_L1I_rq_access 50000006
Core_0_L1I_rq_forward 0
Core_0_L1I_rq_merged 39298836
Core_0_L1I_rq_to_cache 10701170
Core_0_L1I_rq_full 0

Core_0_L1I_wq_access 0
Core_0_L1I_wq_forward 0
Core_0_L1I_wq_merged 0
Core_0_L1I_wq_to_cache 0
Core_0_L1I_wq_full 0

Core_0_L1I_pq_access 0
Core_0_L1I_pq_forward 0
Core_0_L1I_pq_merged 0
Core_0_L1I_pq_to_cache 0
Core_0_L1I_pq_full 0

Core_0_L1I_acc_epochs 67880
Core_0_L1I_acc_level_0 67880
Core_0_L1I_acc_level_1 0
Core_0_L1I_acc_level_2 0
Core_0_L1I_acc_level_3 0
Core_0_L1I_acc_level_4 0
Core_0_L1I_acc_level_5 0
Core_0_L1I_acc_level_6 0
Core_0_L1I_acc_level_7 0
Core_0_L1I_acc_level_8 0
Core_0_L1I_acc_level_9 0

Core_0_L2C_total_access 3642838
Core_0_L2C_total_hit 1912895
Core_0_L2C_total_miss 1729943
Core_0_L2C_loads 1322700
Core_0_L2C_load_hit 1245011
Core_0_L2C_load_miss 77689
Core_0_L2C_RFOs 498481
Core_0_L2C_RFO_hit 16
Core_0_L2C_RFO_miss 498465
Core_0_L2C_prefetches 1153794
Core_0_L2C_prefetch_hit 31
Core_0_L2C_prefetch_miss 1153763
Core_0_L2C_writebacks 667863
Core_0_L2C_writeback_hit 667837
Core_0_L2C_writeback_miss 26
Core_0_L2C_prefetch_requested 2432460
Core_0_L2C_prefetch_dropped 0
Core_0_L2C_prefetch_issued 2432460
Core_0_L2C_prefetch_filled 1412567
Core_0_L2C_prefetch_useful 1285600
Core_0_L2C_prefetch_useless 126746
Core_0_L2C_prefetch_late 36588
Core_0_L2C_average_miss_latency 424.87387

Core_0_L2C_rq_access 1821182
Core_0_L2C_rq_forward 0
Core_0_L2C_rq_merged 0
Core_0_L2C_rq_to_cache 1821182
Core_0_L2C_rq_full 0

Core_0_L2C_wq_access 667863
Core_0_L2C_wq_forward 0
Core_0_L2C_wq_merged 0
Core_0_L2C_wq_to_cache 667863
Core_0_L2C_wq_full 0

Core_0_L2C_pq_access 2432460
Core_0_L2C_pq_forward 0
Core_0_L2C_pq_merged 4844
Core_0_L2C_pq_to_cache 2427616
Core_0_L2C_pq_full 0

Core_0_L2C_acc_epochs 67880
Core_0_L2C_acc_level_0 284
Core_0_L2C_acc_level_1 553
Core_0_L2C_acc_level_2 969
Core_0_L2C_acc_level_3 1347
Core_0_L2C_acc_level_4 2325
Core_0_L2C_acc_level_5 3110
Core_0_L2C_acc_level_6 4220
Core_0_L2C_acc_level_7 6089
Core_0_L2C_acc_level_8 8946
Core_0_L2C_acc_level_9 40037

Core_0_LLC_total_access 2987534
Core_0_LLC_total_hit 763339
Core_0_LLC_total_miss 2224195
Core_0_LLC_loads 41135
Core_0_LLC_load_hit 670
Core_0_LLC_load_miss 40465
Core_0_LLC_RFOs 498463
Core_0_LLC_RFO_hit 24
Core_0_LLC_RFO_miss 498439
Core_0_LLC_prefetches 1782188
Core_0_LLC_prefetch_hit 542685
Core_0_LLC_prefetch_miss 1239503
Core_0_LLC_writebacks 665748
Core_0_LLC_writeback_hit 219960
Core_0_LLC_writeback_miss 445788
Core_0_LLC_prefetch_requested 0
Core_0_LLC_prefetch_dropped 0
Core_0_LLC_prefetch_issued 0
Core_0_LLC_prefetch_filled 1503923
Core_0_LLC_prefetch_useful 84
Core_0_LLC_prefetch_useless 1474927
Core_0_LLC_prefetch_late 0
Core_0_LLC_average_miss_latency 546.49034

Core_0_LLC_rq_access 539598
Core_0_LLC_rq_forward 0
Core_0_LLC_rq_merged 0
Core_0_LLC_rq_to_cache 539598
Core_0_LLC_rq_full 0

Core_0_LLC_wq_access 665748
Core_0_LLC_wq_forward 0
Core_0_LLC_wq_merged 0
Core_0_LLC_wq_to_cache 665748
Core_0_LLC_wq_full 2065

Core_0_LLC_pq_access 2420240
Core_0_LLC_pq_forward 0
Core_0_LLC_pq_merged 3344
Core_0_LLC_pq_to_cache 2416896
Core_0_LLC_pq_full 0

Core_0_LLC_acc_epochs 71647
Core_0_LLC_acc_level_0 71622
Core_0_LLC_acc_level_1 12
Core_0_LLC_acc_level_2 2
Core_0_LLC_acc_level_3 3
Core_0_LLC_acc_level_4 0
Core_0_LLC_acc_level_5 1
Core_0_LLC_acc_level_6 1
Core_0_LLC_acc_level_7 1
Core_0_LLC_acc_level_8 0
Core_0_LLC_acc_level_9 5

Core_0_major_page_fault 0
Core_0_minor_page_fault 31732

[MLOP] History of tracked zone:
IIIIIIIIIIIIIIIIIIIIIIIIIIIIIIIIIIIIIIIIIIIIIIIIIIIIIIIIIIIIIIII
IIIIIIIIIIIIIIIIIIIIIIIIIA2222222222IIIIIIIIIIIIIIIIIIIIIIIIIIII
IIIIIIIIIIIIIIIIIIIIIIIIIAA2222222222222444IIIIIIIIIIIIIIIIIIIII
IIIIIIIIIIIIIIIIIIIIIIIIIAAA2222222222222444IIIIIIIIIIIIIIIIIIII
IIIIIIIIIIIIIIIIIIIIIIIIIAAAA2222222222222444IIIIIIIIIIIIIIIIIII
IIIIIIIIIIIIIIIIIIIIIIIIIAAAAA2222222222222444IIIIIIIIIIIIIIIIII
IIIIIIIIIIIIIIIIIIIIIIIIIAAAAAA2222222222222444IIIIIIIIIIIIIIIII
IIIIIIIIIIIIIIIIIIIIIIIIIAAAAAAA2222222222222444IIIIIIIIIIIIIIII
IIIIIIIIIIIIIIIIIIIIIIIIIAAAAAAAA2222222222222444IIIIIIIIIIIIIII
IIIIIIIIIIIIIIIIIIIIIIIIIAAAAAAAAA2222222222222444IIIIIIIIIIIIII
IIIIIIIIIIIIIIIIIIIIIIIIIAAAAAAAAAA2222222222222444IIIIIIIIIIIII
IIIIIIIIIIIIIIIIIIIIIIIIIAAAAAAAAAAA2222222222222444IIIIIIIIIIII
IIIIIIIIIIIIIIIIIIIIIIIIIAAAAAAAAAAAA2222222222222444IIIIIIIIIII
IIIIIIIIIIIIIIIIIIIIIIIIIAAAAAAAAAAAAA2222222222222444IIIIIIIIII
IIIIIIIIIIIIIIIIIIIIIIIIIAAAAAAAAAAAAAA2222222222222444IIIIIIIII
IIIIIIIIIIIIIIIIIIIIIIIIIAAAAAAAAAAAAAAA2222222222222444IIIIIIII
IIIIIIIIIIIIIIIIIIIIIIIIIAAAAAAAAAAAAAAAA2222222222222444IIIIIII
IIIIIIIIIIIIIIIIIIIIIIIIIAAAAAAAAAAAAAAAAA2222222222222444IIIIII
IIIIIIIIIIIIIIIIIIIIIIIIIAAAAAAAAAAAAAAAAAA2222222222222444IIIII
IIIIIIIIIIIIIIIIIIIIIIIIIAAAAAAAAAAAAAAAAAAA2222222222222444IIII
IIIIIIIIIIIIIIIIIIIIIIIIIAAAAAAAAAAAAAAAAAAAA2222222222222444III
IIIIIIIIIIIIIIIIIIIIIIIIIAAAAAAAAAAAAAAAAAAAAA2222222222222444II
IIIIIIIIIIIIIIIIIIIIIIIIIAAAAAAAAAAAAAAAAAAAAAA2222222222222444I
IIIIIIIIIIIIIIIIIIIIIIIIIAAAAAAAAAAAAAAAAAAAAAAA2222222222222444
IIIIIIIIIIIIIIIIIIIIIIIIIAAAAAAAAAAAAAAAAAAAAAAAA222222222222244
IIIIIIIIIIIIIIIIIIIIIIIIIAAAAAAAAAAAAAAAAAAAAAAAAA22222222222224
IIIIIIIIIIIIIIIIIIIIIIIIIAAAAAAAAAAAAAAAAAAAAAAAAAA2222222222222
IIIIIIIIIIIIIIIIIIIIIIIIIAAAAAAAAAAAAAAAAAAAAAAAAAAA222222222222
IIIIIIIIIIIIIIIIIIIIIIIIIAAAAAAAAAAAAAAAAAAAAAAAAAAAA22222222222
IIIIIIIIIIIIIIIIIIIIIIIIIAAAAAAAAAAAAAAAAAAAAAAAAAAAAA2222222222
IIIIIIIIIIIIIIIIIIIIIIIIIAAAAAAAAAAAAAAAAAAAAAAAAAAAAAA222222222
IIIIIIIIIIIIIIIIIIIIIIIIIAAAAAAAAAAAAAAAAAAAAAAAAAAAAAAA22222222
IIIIIIIIIIIIIIIIIIIIIIIIIAAAAAAAAAAAAAAAAAAAAAAAAAAAAAAAA2222222
IIIIIIIIIIIIIIIIIIIIIIIIIAAAAAAAAAAAAAAAAAAAAAAAAAAAAAAAAA222222
IIIIIIIIIIIIIIIIIIIIIIIIIAAAAAAAAAAAAAAAAAAAAAAAAAAAAAAAAAA22222
IIIIIIIIIIIIIIIIIIIIIIIIIAAAAAAAAAAAAAAAAAAAAAAAAAAAAAAAAAAA2222
IIIIIIIIIIIIIIIIIIIIIIIIIAAAAAAAAAAAAAAAAAAAAAAAAAAAAAAAAAAAA222
IIIIIIIIIIIIIIIIIIIIIIIIIAAAAAAAAAAAAAAAAAAAAAAAAAAAAAAAAAAAAA22
IIIIIIIIIIIIIIIIIIIIIIIIIAAAAAAAAAAAAAAAAAAAAAAAAAAAAAAAAAAAAAA2
IIIIIIIIIIIIIIIIIIIIIIIIIAAAAAAAAAAAAAAAAAAAAAAAAAAAAAAAAAAAAAAA
IIIIIIIIIIIIIIIIIIIIIIIIIAAAAIAAAAAAAAAAAAAAAAAAAAAAAAAAAAAAAAAA
IIIIIIIIIIIIIIIIIIIIIIIIIAAAAIIAAAAAAAAAAAAAAAAAAAAAAAAAAAAAAAAA
IIIIIIIIIIIIIIIIIIIIIIIIIAAAAIIIAAAAAAAAAAAAAAAAAAAAAAAAAAAAAAAA
IIIIIIIIIIIIIIIIIIIIIIIIIAAAAIIIIAAAAAAAAAAAAAAAAAAAAAAAAAAAAAAA
IIIIIIIIIIIIIIIIIIIIIIIIIAAAAIIIIIAAAAAAAAAAAAAAAAAAAAAAAAAAAAAA
IIIIIIIIIIIIIIIIIIIIIIIIIAAAAIIIIIIAAAAAAAAAAAAAAAAAAAAAAAAAAAAA
IIIIIIIIIIIIIIIIIIIIIIIIIAAAAIIIIIIIAAAAAAAAAAAAAAAAAAAAAAAAAAAA
IIIIIIIIIIIIIIIIIIIIIIIIIAAIAIIIIIIIAAAAAAAAAAAAAAAAAAAAAAAAAAAA
IIIIIIIIIIIIIIIIIIIIIIIIIAAIIIIIIIIIAAAAAAAAAAAAAAAAAAAAAAAAAAAA
IIIIIIIIIIIIIIIIIIIIIIIIIAAIIIIIIIIIIAAAAAAAAAAAAAAAAAAAAAAAAAAA
IIIIIIIIIIIIIIIIIIIIIIIIIAAIIIIIIIIIIIAAAAAAAAAAAAAAAAAAAAAAAAAA
IIIIIIIIIIIIIIIIIIIIIIIIIAAIIIIIIIIIIIIAAAAAAAAAAAAAAAAAAAAAAAAA
IIIIIIIIIIIIIIIIIIIIIIIIIAAIIIIIIIIIIIIIAAAAAAAAAAAAAAAAAAAAAAAA
IIIIIIIIIIIIIIIIIIIIIIIIIAAIIIIIIIIIIIIIIAAAAAAAAAAAAAAAAAAAAAAA
IIIIIIIIIIIIIIIIIIIIIIIIIAAIIIIIIIIIIIIIIIAAAAAAAAAAAAAAAAAAAAAA
IIIIIIIIIIIIIIIIIIIIIIIIIAAIIIIIIIIIIIIIIIIAAAAAAAAAAAAAAAAAAAAA
IIIIIIIIIIIIIIIIIIIIIIIIIIAIIIIIIIIIIIIIIIIAAAAAAAAAAAAAAAAAAAAA
IIIIIIIIIIIIIIIIIIIIIIIIIIIIIIIIIIIIIIIIIIIAAAAAAAAAAAAAAAAAAAAA
IIIIIIIIIIIIIIIIIIIIIIIIIA22222222222IIIIIIIIIIIIIIIIIIIIIIIIIII
IIIIIIIIIIIIIIIIIIIIIIIIIAA2222222222244444IIIIIIIIIIIIIIIIIIIII
IIIIIIIIIIIIIIIIIIIIIIIIIAAA2222222222244444IIIIIIIIIIIIIIIIIIII
IIIIIIIIIIIIIIIIIIIIIIIIIAAAA2222222222244444IIIIIIIIIIIIIIIIIII
IIIIIIIIIIIIIIIIIIIIIIIIIAAAAA2222222222244444IIIIIIIIIIIIIIIIII
IIIIIIIIIIIIIIIIIIIIIIIIIAAAAAA2222222222244444IIIIIIIIIIIIIIIII
IIIIIIIIIIIIIIIIIIIIIIIIIAAAAAAA2222222222244444IIIIIIIIIIIIIIII
IIIIIIIIIIIIIIIIIIIIIIIIIAAAAAAAA2222222222244444IIIIIIIIIIIIIII
IIIIIIIIIIIIIIIIIIIIIIIIIAAAAAAAAA2222222222244444IIIIIIIIIIIIII
IIIIIIIIIIIIIIIIIIIIIIIIIAAAAAAAAAA2222222222244444IIIIIIIIIIIII
IIIIIIIIIIIIIIIIIIIIIIIIIAAAAAAAAAAA2222222222244444IIIIIIIIIIII
IIIIIIIIIIIIIIIIIIIIIIIIIAAAAAAAAAAAA2222222222244444IIIIIIIIIII
IIIIIIIIIIIIIIIIIIIIIIIIIAAAAAAAAAAAAA2222222222244444IIIIIIIIII
IIIIIIIIIIIIIIIIIIIIIIIIIAAAAAAAAAAAAAA2222222222244444IIIIIIIII
IIIIIIIIIIIIIIIIIIIIIIIIIAAAAAAAAAAAAAAA2222222222244444IIIIIIII
IIIIIIIIIIIIIIIIIIIIIIIIIAAAAAAAAAAAAAAAA2222222222244444IIIIIII
IIIIIIIIIIIIIIIIIIIIIIIIIAAAAAAAAAAAAAAAAA2222222222244444IIIIII
IIIIIIIIIIIIIIIIIIIIIIIIIAAAAAAAAAAAAAAAAAA2222222222244444IIIII
IIIIIIIIIIIIIIIIIIIIIIIIIAAAAAAAAAAAAAAAAAAA2222222222244444IIII
IIIIIIIIIIIIIIIIIIIIIIIIIAAAAAAAAAAAAAAAAAAAA2222222222244444III
IIIIIIIIIIIIIIIIIIIIIIIIIAAAAAAAAAAAAAAAAAAAAA2222222222244444II
IIIIIIIIIIIIIIIIIIIIIIIIIAAAAAAAAAAAAAAAAAAAAAA2222222222244444I
IIIIIIIIIIIIIIIIIIIIIIIIIAAAAAAAAAAAAAAAAAAAAAAA2222222222244444
IIIIIIIIIIIIIIIIIIIIIIIIIAAAAAAAAAAAAAAAAAAAAAAAA222222222224444
IIIIIIIIIIIIIIIIIIIIIIIIIAAAAAAAAAAAAAAAAAAAAAAAAA22222222222444
IIIIIIIIIIIIIIIIIIIIIIIIIAAAAAAAAAAAAAAAAAAAAAAAAAA2222222222244
IIIIIIIIIIIIIIIIIIIIIIIIIAAAAAAAAAAAAAAAAAAAAAAAAAAA222222222224
IIIIIIIIIIIIIIIIIIIIIIIIIAAAAAAAAAAAAAAAAAAAAAAAAAAAA22222222222
IIIIIIIIIIIIIIIIIIIIIIIIIAAAAAAAAAAAAAAAAAAAAAAAAAAAAA2222222222
IIIIIIIIIIIIIIIIIIIIIIIIIAAAAAAAAAAAAAAAAAAAAAAAAAAAAAA222222222
IIIIIIIIIIIIIIIIIIIIIIIIIAAAAAAAAAAAAAAAAAAAAAAAAAAAAAAA22222222
IIIIIIIIIIIIIIIIIIIIIIIIIAAAAAAAAAAAAAAAAAAAAAAAAAAAAAAAA2222222
IIIIIIIIIIIIIIIIIIIIIIIIIAAAAAAAAAAAAAAAAAAAAAAAAAAAAAAAAA222222
IIIIIIIIIIIIIIIIIIIIIIIIIAAAAAAAAAAAAAAAAAAAAAAAAAAAAAAAAAA22222
IIIIIIIIIIIIIIIIIIIIIIIIIAAAAAAAAAAAAAAAAAAAAAAAAAAAAAAAAAAA2222
IIIIIIIIIIIIIIIIIIIIIIIIIAAAAAAAAAAAAAAAAAAAAAAAAAAAAAAAAAAAA222
IIIIIIIIIIIIIIIIIIIIIIIIIAAAAAAAAAAAAAAAAAAAAAAAAAAAAAAAAAAAAA22
IIIIIIIIIIIIIIIIIIIIIIIIIAAAAAAAAAAAAAAAAAAAAAAAAAAAAAAAAAAAAAA2
IIIIIIIIIIIIIIIIIIIIIIIIIAAAAAAAAAAAAAAAAAAAAAAAAAAAAAAAAAAAAAAA
IIIIIIIIIIIIIIIIIIIIIIIIIAAIAAAAAAAAAAAAAAAAAAAAAAAAAAAAAAAAAAAA
IIIIIIIIIIIIIIIIIIIIIIIIIAAIIAAAAAAAAAAAAAAAAAAAAAAAAAAAAAAAAAAA
IIIIIIIIIIIIIIIIIIIIIIIIIAAIIIAAAAAAAAAAAAAAAAAAAAAAAAAAAAAAAAAA
IIIIIIIIIIIIIIIIIIIIIIIIIAAIIIIAAAAAAAAAAAAAAAAAAAAAAAAAAAAAAAAA
IIIIIIIIIIIIIIIIIIIIIIIIIAAIIIIAAAIAAAAAAAAAAAAAAAAAAAAAAAAAAAAA
IIIIIIIIIIIIIIIIIIIIIIIIIAAIIIIAAAIIAAAAAAAAAAAAAAAAAAAAAAAAAAAA
IIIIIIIIIIIIIIIIIIIIIIIIIAAIIIIAAAIIIAAAAAAAAAAAAAAAAAAAAAAAAAAA
IIIIIIIIIIIIIIIIIIIIIIIIIAAIIIIAAAIIIIAAAAAAAAAAAAAAAAAAAAAAAAAA
IIIIIIIIIIIIIIIIIIIIIIIIIAAIIIIAAAIIIIIAAAAAAAAAAAAAAAAAAAAAAAAA
IIIIIIIIIIIIIIIIIIIIIIIIIAAIIIIAAAIIIIIIAAAAAAAAAAAAAAAAAAAAAAAA
IIIIIIIIIIIIIIIIIIIIIIIIIAAIIIIIAAIIIIIIAAAAAAAAAAAAAAAAAAAAAAAA
IIIIIIIIIIIIIIIIIIIIIIIIIAAIIIIIIAIIIIIIAAAAAAAAAAAAAAAAAAAAAAAA
IIIIIIIIIIIIIIIIIIIIIIIIIAAIIIIIIIIIIIIIAAAAAAAAAAAAAAAAAAAAAAAA
IIIIIIIIIIIIIIIIIIIIIIIIIAAIIIIIIIIIIIIIIAAAAAAAAAAAAAAAAAAAAAAA
IIIIIIIIIIIIIIIIIIIIIIIIIAAIIIIIIIIIIIIIIIAAAAAAAAAAAAAAAAAAAAAA
IIIIIIIIIIIIIIIIIIIIIIIIIAAIIIIIIIIIIIIIIIIAAAAAAAAAAAAAAAAAAAAA
IIIIIIIIIIIIIIIIIIIIIIIIIAAIIIIIIIIIIIIIIIIIAAAAAAAAAAAAAAAAAAAA
IIIIIIIIIIIIIIIIIIIIIIIIIAAIIIIIIIIIIIIIIIIIIAAAAAAAAAAAAAAAAAAA
IIIIIIIIIIIIIIIIIIIIIIIIIAAIIIIIIIIIIIIIIIIIIIAAAAAAAAAAAAAAAAAA
IIIIIIIIIIIIIIIIIIIIIIIIIAAIIIIIIIIIIIIIIIIIIIIAAAAAAAAAAAAAAAAA
IIIIIIIIIIIIIIIIIIIIIIIIIAAIIIIIIIIIIIIIIIIIIIIIAAAAAAAAAAAAAAAA
IIIIIIIIIIIIIIIIIIIIIIIIIAAIIIIIIIIIIIIIIIIIIIIIIAAAAAAAAAAAAAAA
IIIIIIIIIIIIIIIIIIIIIIIIIAAIIIIIIIIIIIIIIIIIIIIIIIAAAAAAAAAAAAAA
IIIIIIIIIIIIIIIIIIIIIIIIIAAIIIIIIIIIIIIIIIIIIIIIIIIAAAAAAAAAAAAA
IIIIIIIIIIIIIIIIIIIIIIIIIAAIIIIIIIIIIIIIIIIIIIIIIIIIAAAAAAAAAAAA
IIIIIIIIIIIIIIIIIIIIIIIIIAAIIIIIIIIIIIIIIIIIIIIIIIIIIAAAAAAAAAAA
IIIIIIIIIIIIIIIIIIIIIIIIIAAIIIIIIIIIIIIIIIIIIIIIIIIIIIAAAAAAAAAA
IIIIIIIIIIIIIIIIIIIIIIIIIAAIIIIIIIIIIIIIIIIIIIIIIIIIIIIAAAAAAAAA
IIIIIIIIIIIIIIIIIIIIIIIIIAAIIIIIIIIIIIIIIIIIIIIIIIIIIIIIAAAAAAAA
IIIIIIIIIIIIIIIIIIIIIIIIIAAIIIIIIIIIIIIIIIIIIIIIIIIIIIIIIAAAAAAA
IIIIIIIIIIIIIIIIIIIIIIIIIAAIIIIIIIIIIIIIIIIIIIIIIIIIIIIIIIAAAAAA
IIIIIIIIIIIIIIIIIIIIIIIIIAAIIIIIIIIIIIIIIIIIIIIIIIIIIIIIIIIAAAAA
IIIIIIIIIIIIIIIIIIIIIIIIIAAIIIIIIIIIIIIIIIIIIIIIIIIIIIIIIIIIAAAA
IIIIIIIIIIIIIIIIIIIIIIIIIAAIIIIIIIIIIIIIIIIIIIIIIIIIIIIIIIIIIAAA
IIIIIIIIIIIIIIIIIIIIIIIIIAAIIIIIIIIIIIIIIIIIIIIIIIIIIIIIIIIIIIAA
IIIIIIIIIIIIIIIIIIIIIIIIIAAIIIIIIIIIIIIIIIIIIIIIIIIIIIIIIIIIIIIA
IIIIIIIIIIIIIIIIIIIIIIIIIAAIIIIIIIIIIIIIIIIIIIIIIIIIIIIIIIIIIIII
A2222222222244444IIIIIIIIIIIIIIIIIIIIIIIIIIIIIIIIIIIIIIIIIIIIIII
AA2222222222244444IIIIIIIIIIIIIIIIIIIIIIIIIIIIIIIIIIIIIIIIIIIIII
AAA2222222222244444IIIIIIIIIIIIIIIIIIIIIIIIIIIIIIIIIIIIIIIIIIIII
AAAA2222222222244444IIIIIIIIIIIIIIIIIIIIIIIIIIIIIIIIIIIIIIIIIIII
AAAAA2222222222244444IIIIIIIIIIIIIIIIIIIIIIIIIIIIIIIIIIIIIIIIIII
AAAAAA2222222222244444IIIIIIIIIIIIIIIIIIIIIIIIIIIIIIIIIIIIIIIIII
AAAAAAA2222222222244444IIIIIIIIIIIIIIIIIIIIIIIIIIIIIIIIIIIIIIIII
AAAAAAAA2222222222244444IIIIIIIIIIIIIIIIIIIIIIIIIIIIIIIIIIIIIIII
AAAAAAAAA2222222222244444IIIIIIIIIIIIIIIIIIIIIIIIIIIIIIIIIIIIIII
AAAAAAAAAA2222222222244444IIIIIIIIIIIIIIIIIIIIIIIIIIIIIIIIIIIIII
AAAAAAAAAAA2222222222244444IIIIIIIIIIIIIIIIIIIIIIIIIIIIIIIIIIIII
AAAAAAAAAAAA2222222222244444IIIIIIIIIIIIIIIIIIIIIIIIIIIIIIIIIIII
AAAAAAAAAAAAA2222222222244444IIIIIIIIIIIIIIIIIIIIIIIIIIIIIIIIIII
AAAAAAAAAAAAAA2222222222244444IIIIIIIIIIIIIIIIIIIIIIIIIIIIIIIIII
AAAAAAAAAAAAAAA2222222222244444IIIIIIIIIIIIIIIIIIIIIIIIIIIIIIIII
AAAAAAAAAAAAAAAA2222222222244444IIIIIIIIIIIIIIIIIIIIIIIIIIIIIIII
AAAAAAAAAAAAAAAAA2222222222244444IIIIIIIIIIIIIIIIIIIIIIIIIIIIIII
AAAAAAAAAAAAAAAAAA2222222222244444IIIIIIIIIIIIIIIIIIIIIIIIIIIIII
AAAAAAAAAAAAAAAAAAA2222222222244444IIIIIIIIIIIIIIIIIIIIIIIIIIIII
AAAAAAAAAAAAAAAAAAAA2222222222244444IIIIIIIIIIIIIIIIIIIIIIIIIIII
AAAAAAAAAAAAAAAAAAAAA2222222222244444IIIIIIIIIIIIIIIIIIIIIIIIIII
AAAAAAAAAAAAAAAAAAAAAA2222222222244444IIIIIIIIIIIIIIIIIIIIIIIIII
AAAAAAAAAAAAAAAAAAAAAAA2222222222244444IIIIIIIIIIIIIIIIIIIIIIIII
AAAAAAAAAAAAAAAAAAAAAAAA2222222222244444IIIIIIIIIIIIIIIIIIIIIIII
AAAAAAAAAAAAAAAAAAAAAAAAA2222222222244444IIIIIIIIIIIIIIIIIIIIIII
AAAAAAAAAAAAAAAAAAAAAAAAAA2222222222244444IIIIIIIIIIIIIIIIIIIIII
AAAAAAAAAAAAAAAAAAAAAAAAAA2I22222222244444IIIIIIIIIIIIIIIIIIIIII
AAAAAAAAAAAAAAAAAAAAAAAAAA2II2222222244444IIIIIIIIIIIIIIIIIIIIII
AAAAAAAAAAAAAAAAAAAAAAAAAA2III222222244444IIIIIIIIIIIIIIIIIIIIII
AAAAAAAAAAAAAAAAAAAAAAAAAA2IIII22222244444IIIIIIIIIIIIIIIIIIIIII
AAAAAAAAAAAAAAAAAAAAAAAAAA2IIIII2222244444IIIIIIIIIIIIIIIIIIIIII
AAAAAAAAAAAAAAAAAAAAAAAAAA2IIIIII222244444IIIIIIIIIIIIIIIIIIIIII
AAAAAAAAAAAAAAAAAAAAAAAAAA2IIIIIII22244444IIIIIIIIIIIIIIIIIIIIII
AAAAAAAAAAAAAAAAAAAAAAAAAA2IIIIIIII2244444IIIIIIIIIIIIIIIIIIIIII
[MLOP] Prefetch Degree Mean: 15.99775
[MLOP] Prefetch Degree SD: 0.07745
[MLOP] Max Score Left Mean (%): 65.17771
[MLOP] Max Score Left SD (%): 7.54730
[MLOP] Max Score Right Mean (%): 99.91422
[MLOP] Max Score Right SD (%): 0.31832

Channel_0_RQ_row_buffer_hit 800174
Channel_0_RQ_row_buffer_miss 978234
Channel_0_WQ_row_buffer_hit 87415
Channel_0_WQ_row_buffer_miss 577366
Channel_0_WQ_full 10553
Channel_0_dbus_congested 1890833

avg_congested_cycle 11

DRAM_bw_pochs 286588
DRAM_bw_level_0 64821
DRAM_bw_level_1 53248
DRAM_bw_level_2 64841
DRAM_bw_level_3 103678
