*************************************************
   ChampSim Multicore Out-of-Order Simulator
   Last compiled: Apr  3 2025 20:54:34
*************************************************
parsing config file: /home/zir/Pythia/config/mlop.ini

trace_0 /home/zir/ChampSim/ML-DPC/ChampSimTraces/spec06/437.leslie3d-s1.trace.gz
adding L2C_PREFETCHER: MLOP
Initialize SHIP state
warmup_instructions 10000000
simulation_instructions 50000000
champsim_seed 164
measure_ipc 0
measure_ipc_epoch 1000
measure_dram_bw 1
measure_dram_bw_epoch 256
measure_cache_acc 1
measure_cache_acc_epoch 1024
l1d_perfect 0
l2c_perfect 0
llc_perfect 0
l1d_semi_perfect 0
l2c_semi_perfect 0
llc_semi_perfect 0
semi_perfect_cache_page_buffer_size 64

num_cpus 1
cpu_freq 4000
dram_io_freq 2400
page_size 4096
block_size 64
max_read_per_cycle 8
max_fill_per_cycle 1
dram_channels 1
log2_dram_channels 0
dram_ranks 1
dram_banks 8
dram_rows 65536
dram_columns 128
dram_row_size 8
dram_size 4096
dram_pages 1048576

fetch_width 6
decode_width 6
exec_width 4
lq_width 2
sq_width 2
retire_width 4
scheduler_size 128
branch_mispredict_penalty 20
rob_size 256
lq_size 72
sq_size 56
num_instr_destinations_sparc 4
num_instr_destinations 2
num_instr_sources 4

itlb_set 16
itlb_way 8
itlb_rq_size 16
itlb_wq_size 16
itlb_pq_size 0
itlb_mshr_size 8
itlb_latency 1

dtlb_set 16
dtlb_way 4
dtlb_rq_size 16
dtlb_wq_size 16
dtlb_pq_size 0
dtlb_mshr_size 8
dtlb_latency 1

stlb_set 128
stlb_way 12
stlb_rq_size 32
stlb_wq_size 32
stlb_pq_size 0
stlb_mshr_size 16
stlb_latency 8

l1i_size 32
l1i_set 64
l1i_way 8
l1i_rq_size 64
l1i_wq_size 64
l1i_pq_size 8
l1i_mshr_size 8
l1i_latency 1

l1d_size 32
l1d_set 64
l1d_way 8
l1d_rq_size 64
l1d_wq_size 64
l1d_pq_size 8
l1d_mshr_size 16
l1d_latency 4

l2c_size 256
l2c_set 512
l2c_way 8
l2c_rq_size 32
l2c_wq_size 32
l2c_pq_size 32
l2c_mshr_size 32
l2c_latency 10

llc_size 2048
llc_set 2048
llc_way 16
llc_rq_size 32
llc_wq_size 32
llc_pq_size 32
llc_mshr_size 64
llc_latency 20

dram_channel_width 8
dram_wq_size 64
dram_rq_size 64
tRP 15
tRCD 15
tCAS 12.5
dram_dbus_turn_around_time 30
dram_write_high_wm 56
dram_write_low_wm 48
min_dram_writes_per_switch 16
dram_mtps 2400
dram_dbus_return_time 13

mlop_pref_degree 16
mlop_num_updates 500
mlop_l1d_thresh 2
mlop_l2c_thresh 0.75
mlop_llc_thresh 0.3
mlop_debug_level 0
mlop_blocks_in_cache 4096
mlop_blocks_in_zone 64
mlop_amt_size 2048
mlop_PF_DEGREE 16
mlop_NUM_UPDATES 500
mlop_L1D_THRESH 1000
mlop_L2C_THRESH 375
mlop_LLC_THRESH 150
mlop_ORIGIN 63
mlop_MAX_OFFSET 63
mlop_MIN_OFFSET -63
mlop_ORIGIN 63
mlop_NUM_OFFSETS 127


Heartbeat CPU  0 instructions:    1000002 cycles:     550884 heartbeat IPC: 1.81527 cumulative IPC: 1.81527 (Simulation time: 0 hr 0 min 2 sec) 
Heartbeat CPU  0 instructions:    2000003 cycles:    1146849 heartbeat IPC: 1.67795 cumulative IPC: 1.74391 (Simulation time: 0 hr 0 min 3 sec) 
Heartbeat CPU  0 instructions:    3000001 cycles:    1742890 heartbeat IPC: 1.67773 cumulative IPC: 1.72128 (Simulation time: 0 hr 0 min 5 sec) 
Heartbeat CPU  0 instructions:    4000000 cycles:    2313706 heartbeat IPC: 1.75188 cumulative IPC: 1.72883 (Simulation time: 0 hr 0 min 7 sec) 
Heartbeat CPU  0 instructions:    5000003 cycles:    2886317 heartbeat IPC: 1.74639 cumulative IPC: 1.73231 (Simulation time: 0 hr 0 min 9 sec) 
Heartbeat CPU  0 instructions:    6000003 cycles:    3482522 heartbeat IPC: 1.67728 cumulative IPC: 1.72289 (Simulation time: 0 hr 0 min 11 sec) 
Heartbeat CPU  0 instructions:    7000001 cycles:    4077886 heartbeat IPC: 1.67964 cumulative IPC: 1.71658 (Simulation time: 0 hr 0 min 13 sec) 
Heartbeat CPU  0 instructions:    8000000 cycles:    4625321 heartbeat IPC: 1.82670 cumulative IPC: 1.72961 (Simulation time: 0 hr 0 min 15 sec) 
Heartbeat CPU  0 instructions:    9000000 cycles:    5220688 heartbeat IPC: 1.67964 cumulative IPC: 1.72391 (Simulation time: 0 hr 0 min 17 sec) 
Heartbeat CPU  0 instructions:   10000001 cycles:    5816068 heartbeat IPC: 1.67960 cumulative IPC: 1.71937 (Simulation time: 0 hr 0 min 19 sec) 

Warmup complete CPU  0 instructions:   10000001 cycles:    5816068 (Simulation time: 0 hr 0 min 19 sec) 

Heartbeat CPU  0 instructions:   11000000 cycles:    6778055 heartbeat IPC: 1.03951 cumulative IPC: 1.03951 (Simulation time: 0 hr 0 min 21 sec) 
Heartbeat CPU  0 instructions:   12000000 cycles:    7829078 heartbeat IPC: 0.95145 cumulative IPC: 0.99354 (Simulation time: 0 hr 0 min 23 sec) 
Heartbeat CPU  0 instructions:   13000000 cycles:    8866800 heartbeat IPC: 0.96365 cumulative IPC: 0.98337 (Simulation time: 0 hr 0 min 25 sec) 
Heartbeat CPU  0 instructions:   14000001 cycles:    9901749 heartbeat IPC: 0.96623 cumulative IPC: 0.97903 (Simulation time: 0 hr 0 min 28 sec) 
Heartbeat CPU  0 instructions:   15000002 cycles:   10922982 heartbeat IPC: 0.97921 cumulative IPC: 0.97907 (Simulation time: 0 hr 0 min 30 sec) 
Heartbeat CPU  0 instructions:   16000000 cycles:   11985618 heartbeat IPC: 0.94105 cumulative IPC: 0.97252 (Simulation time: 0 hr 0 min 32 sec) 
Heartbeat CPU  0 instructions:   17000003 cycles:   13070668 heartbeat IPC: 0.92162 cumulative IPC: 0.96491 (Simulation time: 0 hr 0 min 34 sec) 
Heartbeat CPU  0 instructions:   18000002 cycles:   14048459 heartbeat IPC: 1.02271 cumulative IPC: 0.97177 (Simulation time: 0 hr 0 min 37 sec) 
Heartbeat CPU  0 instructions:   19000003 cycles:   15115736 heartbeat IPC: 0.93696 cumulative IPC: 0.96778 (Simulation time: 0 hr 0 min 39 sec) 
Heartbeat CPU  0 instructions:   20000000 cycles:   16206136 heartbeat IPC: 0.91709 cumulative IPC: 0.96246 (Simulation time: 0 hr 0 min 41 sec) 
Heartbeat CPU  0 instructions:   21000003 cycles:   17182638 heartbeat IPC: 1.02407 cumulative IPC: 0.96775 (Simulation time: 0 hr 0 min 43 sec) 
Heartbeat CPU  0 instructions:   22000003 cycles:   18215054 heartbeat IPC: 0.96860 cumulative IPC: 0.96782 (Simulation time: 0 hr 0 min 45 sec) 
Heartbeat CPU  0 instructions:   23000003 cycles:   19320467 heartbeat IPC: 0.90464 cumulative IPC: 0.96265 (Simulation time: 0 hr 0 min 48 sec) 
Heartbeat CPU  0 instructions:   24000000 cycles:   20393296 heartbeat IPC: 0.93211 cumulative IPC: 0.96040 (Simulation time: 0 hr 0 min 50 sec) 
Heartbeat CPU  0 instructions:   25000003 cycles:   21362378 heartbeat IPC: 1.03191 cumulative IPC: 0.96486 (Simulation time: 0 hr 0 min 52 sec) 
Heartbeat CPU  0 instructions:   26000002 cycles:   22460422 heartbeat IPC: 0.91071 cumulative IPC: 0.96129 (Simulation time: 0 hr 0 min 54 sec) 
Heartbeat CPU  0 instructions:   27000002 cycles:   23561941 heartbeat IPC: 0.90784 cumulative IPC: 0.95797 (Simulation time: 0 hr 0 min 57 sec) 
Heartbeat CPU  0 instructions:   28000000 cycles:   24513107 heartbeat IPC: 1.05134 cumulative IPC: 0.96272 (Simulation time: 0 hr 0 min 59 sec) 
Heartbeat CPU  0 instructions:   29000002 cycles:   25579448 heartbeat IPC: 0.93779 cumulative IPC: 0.96137 (Simulation time: 0 hr 1 min 1 sec) 
Heartbeat CPU  0 instructions:   30000002 cycles:   26635811 heartbeat IPC: 0.94664 cumulative IPC: 0.96063 (Simulation time: 0 hr 1 min 3 sec) 
Heartbeat CPU  0 instructions:   31000001 cycles:   27624841 heartbeat IPC: 1.01109 cumulative IPC: 0.96292 (Simulation time: 0 hr 1 min 6 sec) 
Heartbeat CPU  0 instructions:   32000000 cycles:   28624927 heartbeat IPC: 0.99991 cumulative IPC: 0.96454 (Simulation time: 0 hr 1 min 8 sec) 
Heartbeat CPU  0 instructions:   33000000 cycles:   29693619 heartbeat IPC: 0.93572 cumulative IPC: 0.96325 (Simulation time: 0 hr 1 min 10 sec) 
Heartbeat CPU  0 instructions:   34000002 cycles:   30746307 heartbeat IPC: 0.94995 cumulative IPC: 0.96269 (Simulation time: 0 hr 1 min 12 sec) 
Heartbeat CPU  0 instructions:   35000000 cycles:   31709491 heartbeat IPC: 1.03822 cumulative IPC: 0.96550 (Simulation time: 0 hr 1 min 14 sec) 
Heartbeat CPU  0 instructions:   36000000 cycles:   32791229 heartbeat IPC: 0.92444 cumulative IPC: 0.96385 (Simulation time: 0 hr 1 min 17 sec) 
Heartbeat CPU  0 instructions:   37000002 cycles:   33860107 heartbeat IPC: 0.93556 cumulative IPC: 0.96277 (Simulation time: 0 hr 1 min 19 sec) 
Heartbeat CPU  0 instructions:   38000003 cycles:   34830277 heartbeat IPC: 1.03075 cumulative IPC: 0.96504 (Simulation time: 0 hr 1 min 21 sec) 
Heartbeat CPU  0 instructions:   39000001 cycles:   35902394 heartbeat IPC: 0.93273 cumulative IPC: 0.96389 (Simulation time: 0 hr 1 min 23 sec) 
Heartbeat CPU  0 instructions:   40000000 cycles:   36972869 heartbeat IPC: 0.93416 cumulative IPC: 0.96287 (Simulation time: 0 hr 1 min 26 sec) 
Heartbeat CPU  0 instructions:   41000000 cycles:   38027000 heartbeat IPC: 0.94865 cumulative IPC: 0.96241 (Simulation time: 0 hr 1 min 28 sec) 
Heartbeat CPU  0 instructions:   42000003 cycles:   39012993 heartbeat IPC: 1.01421 cumulative IPC: 0.96394 (Simulation time: 0 hr 1 min 30 sec) 
Heartbeat CPU  0 instructions:   43000001 cycles:   40089264 heartbeat IPC: 0.92913 cumulative IPC: 0.96285 (Simulation time: 0 hr 1 min 32 sec) 
Heartbeat CPU  0 instructions:   44000000 cycles:   41154576 heartbeat IPC: 0.93869 cumulative IPC: 0.96212 (Simulation time: 0 hr 1 min 35 sec) 
Heartbeat CPU  0 instructions:   45000000 cycles:   42157669 heartbeat IPC: 0.99692 cumulative IPC: 0.96308 (Simulation time: 0 hr 1 min 37 sec) 
Heartbeat CPU  0 instructions:   46000000 cycles:   43562837 heartbeat IPC: 0.71166 cumulative IPC: 0.95372 (Simulation time: 0 hr 1 min 39 sec) 
Heartbeat CPU  0 instructions:   47000001 cycles:   45175042 heartbeat IPC: 0.62027 cumulative IPC: 0.94007 (Simulation time: 0 hr 1 min 42 sec) 
Heartbeat CPU  0 instructions:   48000000 cycles:   46313742 heartbeat IPC: 0.87819 cumulative IPC: 0.93833 (Simulation time: 0 hr 1 min 44 sec) 
Heartbeat CPU  0 instructions:   49000001 cycles:   47682425 heartbeat IPC: 0.73063 cumulative IPC: 0.93154 (Simulation time: 0 hr 1 min 46 sec) 
Heartbeat CPU  0 instructions:   50000001 cycles:   48841115 heartbeat IPC: 0.86304 cumulative IPC: 0.92969 (Simulation time: 0 hr 1 min 49 sec) 
Heartbeat CPU  0 instructions:   51000000 cycles:   50175885 heartbeat IPC: 0.74919 cumulative IPC: 0.92426 (Simulation time: 0 hr 1 min 51 sec) 
Heartbeat CPU  0 instructions:   52000000 cycles:   51356041 heartbeat IPC: 0.84735 cumulative IPC: 0.92227 (Simulation time: 0 hr 1 min 53 sec) 
Heartbeat CPU  0 instructions:   53000002 cycles:   52708085 heartbeat IPC: 0.73962 cumulative IPC: 0.91700 (Simulation time: 0 hr 1 min 56 sec) 
Heartbeat CPU  0 instructions:   54000002 cycles:   53890245 heartbeat IPC: 0.84591 cumulative IPC: 0.91525 (Simulation time: 0 hr 1 min 58 sec) 
Heartbeat CPU  0 instructions:   55000000 cycles:   55470121 heartbeat IPC: 0.63296 cumulative IPC: 0.90627 (Simulation time: 0 hr 2 min 1 sec) 
Heartbeat CPU  0 instructions:   56000000 cycles:   57142461 heartbeat IPC: 0.59796 cumulative IPC: 0.89623 (Simulation time: 0 hr 2 min 3 sec) 
Heartbeat CPU  0 instructions:   57000002 cycles:   59464118 heartbeat IPC: 0.43073 cumulative IPC: 0.87608 (Simulation time: 0 hr 2 min 6 sec) 
Heartbeat CPU  0 instructions:   58000000 cycles:   62199190 heartbeat IPC: 0.36562 cumulative IPC: 0.85132 (Simulation time: 0 hr 2 min 9 sec) 
Heartbeat CPU  0 instructions:   59000002 cycles:   64751760 heartbeat IPC: 0.39176 cumulative IPC: 0.83141 (Simulation time: 0 hr 2 min 12 sec) 
Heartbeat CPU  0 instructions:   60000000 cycles:   67055082 heartbeat IPC: 0.43415 cumulative IPC: 0.81647 (Simulation time: 0 hr 2 min 15 sec) 
Finished CPU 0 instructions: 50000000 cycles: 61239022 cumulative IPC: 0.81647 (Simulation time: 0 hr 2 min 15 sec) 

ChampSim completed all CPUs

[ROI Statistics]
Core_0_instructions 50000000
Core_0_cycles 61239022
Core_0_IPC 0.81647

Core_0_branch_prediction_accuracy 98.44449
Core_0_branch_MPKI 0.79430
Core_0_average_ROB_occupancy_at_mispredict 245.87662

Core_0_L1D_total_access 13708491
Core_0_L1D_total_hit 11417625
Core_0_L1D_total_miss 2290866
Core_0_L1D_loads 9754804
Core_0_L1D_load_hit 7977131
Core_0_L1D_load_miss 1777673
Core_0_L1D_RFOs 3953687
Core_0_L1D_RFO_hit 3440494
Core_0_L1D_RFO_miss 513193
Core_0_L1D_prefetches 0
Core_0_L1D_prefetch_hit 0
Core_0_L1D_prefetch_miss 0
Core_0_L1D_writebacks 0
Core_0_L1D_writeback_hit 0
Core_0_L1D_writeback_miss 0
Core_0_L1D_prefetch_requested 0
Core_0_L1D_prefetch_dropped 0
Core_0_L1D_prefetch_issued 0
Core_0_L1D_prefetch_filled 0
Core_0_L1D_prefetch_useful 0
Core_0_L1D_prefetch_useless 0
Core_0_L1D_prefetch_late 0
Core_0_L1D_average_miss_latency 103.83669

Core_0_L1D_rq_access 20616337
Core_0_L1D_rq_forward 0
Core_0_L1D_rq_merged 9870697
Core_0_L1D_rq_to_cache 10745519
Core_0_L1D_rq_full 0

Core_0_L1D_wq_access 6416910
Core_0_L1D_wq_forward 121
Core_0_L1D_wq_merged 6893
Core_0_L1D_wq_to_cache 6410017
Core_0_L1D_wq_full 7277

Core_0_L1D_pq_access 0
Core_0_L1D_pq_forward 0
Core_0_L1D_pq_merged 0
Core_0_L1D_pq_to_cache 0
Core_0_L1D_pq_full 0

Core_0_L1D_acc_epochs 63931
Core_0_L1D_acc_level_0 63931
Core_0_L1D_acc_level_1 0
Core_0_L1D_acc_level_2 0
Core_0_L1D_acc_level_3 0
Core_0_L1D_acc_level_4 0
Core_0_L1D_acc_level_5 0
Core_0_L1D_acc_level_6 0
Core_0_L1D_acc_level_7 0
Core_0_L1D_acc_level_8 0
Core_0_L1D_acc_level_9 0

Core_0_L1I_total_access 10991597
Core_0_L1I_total_hit 10991430
Core_0_L1I_total_miss 167
Core_0_L1I_loads 10991597
Core_0_L1I_load_hit 10991430
Core_0_L1I_load_miss 167
Core_0_L1I_RFOs 0
Core_0_L1I_RFO_hit 0
Core_0_L1I_RFO_miss 0
Core_0_L1I_prefetches 0
Core_0_L1I_prefetch_hit 0
Core_0_L1I_prefetch_miss 0
Core_0_L1I_writebacks 0
Core_0_L1I_writeback_hit 0
Core_0_L1I_writeback_miss 0
Core_0_L1I_prefetch_requested 0
Core_0_L1I_prefetch_dropped 0
Core_0_L1I_prefetch_issued 0
Core_0_L1I_prefetch_filled 0
Core_0_L1I_prefetch_useful 0
Core_0_L1I_prefetch_useless 0
Core_0_L1I_prefetch_late 0
Core_0_L1I_average_miss_latency 315.31138

Core_0_L1I_rq_access 49999980
Core_0_L1I_rq_forward 0
Core_0_L1I_rq_merged 39008247
Core_0_L1I_rq_to_cache 10991733
Core_0_L1I_rq_full 0

Core_0_L1I_wq_access 0
Core_0_L1I_wq_forward 0
Core_0_L1I_wq_merged 0
Core_0_L1I_wq_to_cache 0
Core_0_L1I_wq_full 0

Core_0_L1I_pq_access 0
Core_0_L1I_pq_forward 0
Core_0_L1I_pq_merged 0
Core_0_L1I_pq_to_cache 0
Core_0_L1I_pq_full 0

Core_0_L1I_acc_epochs 63931
Core_0_L1I_acc_level_0 63931
Core_0_L1I_acc_level_1 0
Core_0_L1I_acc_level_2 0
Core_0_L1I_acc_level_3 0
Core_0_L1I_acc_level_4 0
Core_0_L1I_acc_level_5 0
Core_0_L1I_acc_level_6 0
Core_0_L1I_acc_level_7 0
Core_0_L1I_acc_level_8 0
Core_0_L1I_acc_level_9 0

Core_0_L2C_total_access 4213037
Core_0_L2C_total_hit 2448445
Core_0_L2C_total_miss 1764592
Core_0_L2C_loads 1777636
Core_0_L2C_load_hit 1528894
Core_0_L2C_load_miss 248742
Core_0_L2C_RFOs 513139
Core_0_L2C_RFO_hit 207618
Core_0_L2C_RFO_miss 305521
Core_0_L2C_prefetches 1227442
Core_0_L2C_prefetch_hit 17191
Core_0_L2C_prefetch_miss 1210251
Core_0_L2C_writebacks 694820
Core_0_L2C_writeback_hit 694742
Core_0_L2C_writeback_miss 78
Core_0_L2C_prefetch_requested 1953479
Core_0_L2C_prefetch_dropped 0
Core_0_L2C_prefetch_issued 1953479
Core_0_L2C_prefetch_filled 1420534
Core_0_L2C_prefetch_useful 1407279
Core_0_L2C_prefetch_useless 13151
Core_0_L2C_prefetch_late 29996
Core_0_L2C_average_miss_latency 297.52383

Core_0_L2C_rq_access 2291037
Core_0_L2C_rq_forward 0
Core_0_L2C_rq_merged 0
Core_0_L2C_rq_to_cache 2290779
Core_0_L2C_rq_full 0

Core_0_L2C_wq_access 694820
Core_0_L2C_wq_forward 293
Core_0_L2C_wq_merged 0
Core_0_L2C_wq_to_cache 694820
Core_0_L2C_wq_full 0

Core_0_L2C_pq_access 1953479
Core_0_L2C_pq_forward 0
Core_0_L2C_pq_merged 17230
Core_0_L2C_pq_to_cache 1936214
Core_0_L2C_pq_full 0

Core_0_L2C_acc_epochs 63931
Core_0_L2C_acc_level_0 530
Core_0_L2C_acc_level_1 1189
Core_0_L2C_acc_level_2 2580
Core_0_L2C_acc_level_3 2944
Core_0_L2C_acc_level_4 2948
Core_0_L2C_acc_level_5 3039
Core_0_L2C_acc_level_6 3096
Core_0_L2C_acc_level_7 3812
Core_0_L2C_acc_level_8 5282
Core_0_L2C_acc_level_9 38511

Core_0_LLC_total_access 2494803
Core_0_LLC_total_hit 886423
Core_0_LLC_total_miss 1608380
Core_0_LLC_loads 218921
Core_0_LLC_load_hit 130661
Core_0_LLC_load_miss 88260
Core_0_LLC_RFOs 305522
Core_0_LLC_RFO_hit 35910
Core_0_LLC_RFO_miss 269612
Core_0_LLC_prefetches 1516027
Core_0_LLC_prefetch_hit 516843
Core_0_LLC_prefetch_miss 999184
Core_0_LLC_writebacks 454333
Core_0_LLC_writeback_hit 203009
Core_0_LLC_writeback_miss 251324
Core_0_LLC_prefetch_requested 0
Core_0_LLC_prefetch_dropped 0
Core_0_LLC_prefetch_issued 0
Core_0_LLC_prefetch_filled 1192754
Core_0_LLC_prefetch_useful 96521
Core_0_LLC_prefetch_useless 1087900
Core_0_LLC_prefetch_late 24
Core_0_LLC_average_miss_latency 352.22606

Core_0_LLC_rq_access 524447
Core_0_LLC_rq_forward 0
Core_0_LLC_rq_merged 0
Core_0_LLC_rq_to_cache 524446
Core_0_LLC_rq_full 0

Core_0_LLC_wq_access 454333
Core_0_LLC_wq_forward 1
Core_0_LLC_wq_merged 0
Core_0_LLC_wq_to_cache 454333
Core_0_LLC_wq_full 0

Core_0_LLC_pq_access 1907207
Core_0_LLC_pq_forward 0
Core_0_LLC_pq_merged 14856
Core_0_LLC_pq_to_cache 1892351
Core_0_LLC_pq_full 0

Core_0_LLC_acc_epochs 65484
Core_0_LLC_acc_level_0 54102
Core_0_LLC_acc_level_1 2210
Core_0_LLC_acc_level_2 1180
Core_0_LLC_acc_level_3 825
Core_0_LLC_acc_level_4 571
Core_0_LLC_acc_level_5 522
Core_0_LLC_acc_level_6 503
Core_0_LLC_acc_level_7 531
Core_0_LLC_acc_level_8 552
Core_0_LLC_acc_level_9 4488

Core_0_major_page_fault 0
Core_0_minor_page_fault 12097

[MLOP] History of tracked zone:
IIIIIIIIIIIIIIIIIIIIIIIIIIIIIIIIIIIIIIIIIIIIIIIIIIIIIIIIIIIIIIII
A2222222222222222IIIIIIIIIIIIIIIIIIIIIIIIIIIIIIIIIIIIIIIIIIIIIII
AA2222222222222222IIIIIIIIIIIIIIIIIIIIIIIIIIIIIIIIIIIIIIIIIIIIII
AAA2222222222222222IIIIIIIIIIIIIIIIIIIIIIIIIIIIIIIIIIIIIIIIIIIII
AAAA2222222222222222IIIIIIIIIIIIIIIIIIIIIIIIIIIIIIIIIIIIIIIIIIII
AAAAA2222222222222224IIIIIIIIIIIIIIIIIIIIIIIIIIIIIIIIIIIIIIIIIII
AAAAAA2222222222222224IIIIIIIIIIIIIIIIIIIIIIIIIIIIIIIIIIIIIIIIII
AAAAAAA2222222222222224IIIIIIIIIIIIIIIIIIIIIIIIIIIIIIIIIIIIIIIII
AAAAAAAA2222222222222224IIIIIIIIIIIIIIIIIIIIIIIIIIIIIIIIIIIIIIII
AAAAAAAAA2222222222222224IIIIIIIIIIIIIIIIIIIIIIIIIIIIIIIIIIIIIII
AAAAAAAAAA2222222222222224IIIIIIIIIIIIIIIIIIIIIIIIIIIIIIIIIIIIII
AAAAAAAAAAA2222222222222224IIIIIIIIIIIIIIIIIIIIIIIIIIIIIIIIIIIII
AAAAAAAAAAAA2222222222222224IIIIIIIIIIIIIIIIIIIIIIIIIIIIIIIIIIII
AAAAAAAAAAAAA2222222222222224IIIIIIIIIIIIIIIIIIIIIIIIIIIIIIIIIII
AAAAAAAAAAAAAA2222222222222224IIIIIIIIIIIIIIIIIIIIIIIIIIIIIIIIII
AAAAAAAAAAAAAAA2222222222222224IIIIIIIIIIIIIIIIIIIIIIIIIIIIIIIII
AAAAAAAAAAAAAAAA2222222222222224IIIIIIIIIIIIIIIIIIIIIIIIIIIIIIII
AAAAAAAAAAAAAAAAA2222222222222224IIIIIIIIIIIIIIIIIIIIIIIIIIIIIII
AAAAAAAAAAAAAAAAAA2222222222222224IIIIIIIIIIIIIIIIIIIIIIIIIIIIII
AAAAAAAAAAAAAAAAAAA2222222222222224IIIIIIIIIIIIIIIIIIIIIIIIIIIII
AAAAAAAAAAAAAAAAAAAA2222222222222224IIIIIIIIIIIIIIIIIIIIIIIIIIII
AAAAAAAAAAAAAAAAAAAAA222222222222222IIIIIIII4IIIIIIIIIIIIIIIIIII
AAAAAAAAAAAAAAAAAAAAAA222222222222222IIIIIII44IIIIIIIIIIIIIIIIII
AAAAAAAAAAAAAAAAAAAAAAA222222222222222IIIIII444IIIIIIIIIIIIIIIII
AAAAAAAAAAAAAAAAAAAAAAAA222222222222222IIIII4444IIIIIIIIIIIIIIII
AAAAAAAAAAAAAAAAAAAAAAAAA222222222222222IIII44444IIIIIIIIIIIIIII
AAAAAAAAAAAAAAAAAAAAAAAAAA222222222222222III444444IIIIIIIIIIIIII
AAAAAAAAAAAAAAAAAAAAAAAAAAA222222222222222II4444444IIIIIIIIIIIII
AAAAAAAAAAAAAAAAAAAAAAAAAAAA222222222222222I44444444IIIIIIIIIIII
AAAAAAAAAAAAAAAAAAAAAAAAAAAAA222222222222222444444444IIIIIIIIIII
AAAAAAAAAAAAAAAAAAAAAAAAAAAAAA222222222222222444444444IIIIIIIIII
AAAAAAAAAAAAAAAAAAAAAAAAAAAAAAA222222222222222444444444IIIIIIIII
AAAAAAAAAAAAAAAAAAAAAAAAAAAAAAAA222222222222222444444444IIIIIIII
AAAAAAAAAAAAAAAAAAAAAAAAAAAAAAAAA222222222222222444444444IIIIIII
AAAAAAAAAAAAAAAAAAAAAAAAAAAAAAAAAA222222222222222444444444IIIIII
AAAAAAAAAAAAAAAAAAAAAAAAAAAAAAAAAAA222222222222222444444444IIIII
AAAAAAAAAAAAAAAAAAAAAAAAAAAAAAAAAAAA222222222222222444444444IIII
AAAAAAAAAAAAAAAAAAAAAAAAAAAAAAAAAAAAA22222222222222444444444IIII
AAAAAAAAAAAAAAAAAAAAAAAAAAAAAAAAAAAAAA2222222222222444444444IIII
AAAAAAAAAAAAAAAAAAAAAAAAAAAAAAAAAAAAAAA222222222222244444444IIII
AAAAAAAAAAAAAAAAAAAAAAAAAAAAAAAAAAAAAAAA22222222222224444444IIII
AAAAAAAAAAAAAAAAAAAAAAAAAAAAAAAAAAAAAAAAA2222222222222444444IIII
AAAAAAAAAAAAAAAAAAAAAAAAAAAAAAAAAAAAAAAAAA222222222222244444IIII
AAAAAAAAAAAAAAAAAAAAAAAAAAAAAAAAAAAAAAAAAAA22222222222224444IIII
AAAAAAAAAAAAAAAAAAAAAAAAAAAAAAAAAAAAAAAAAAAA2222222222222444IIII
AAAAAAAAAAAAAAAAAAAAAAAAAAAAAAAAAAAAAAAAAAAAA2222222222222444III
AAAAAAAAAAAAAAAAAAAAAAAAAAAAAAAAAAAAAAAAAAAAAA2222222222222444II
AAAAAAAAAAAAAAAAAAAAAAAAAAAAAAAAAAAAAAAAAAAAAAA2222222222222444I
AAAAAAAAAAAAAAAAAAAAAAAAAAAAAAAAAAAAAAAAAAAAAAAA2222222222222444
AAAAAAAAAAAAAAAAAAAAAAAAAAAAAAAAAAAAAAAAAAAAAAAAA222222222222244
AAAAAAAAAAAAAAAAAAAAAAAAAAAAAAAAAAAAAAAAAAAAAAAAAA22222222222224
AAAAAAAAAAAAAAAAAAAAAAAAAAAAAAAAAAAAAAAAAAAAAAAAAAA2222222222222
AAAAAAAAAAAAAAAAAAAAAAAAAAAAAAAAAAAAAAAAAAAAAAAAAAAA222222222222
AAAAAAAAAAAAAAAAAAAAAAAAAAAAAAAAAAAAAAAAAAAAAAAAAAAAA22222222222
AAAAAAAAAAAAAAAAAAAAAAAAAAAAAAAAAAAAAAAAAAAAAAAAAAAAAA2222222222
AAAAAAAAAAAAAAAAAAAAAAAAAAAAAAAAAAAAAAAAAAAAAAAAAAAAAAA222222222
AAAAAAAAAAAAAAAAAAAAAAAAAAAAAAAAAAAAAAAAAAAAAAAAAAAAAAAA22222222
AAAAAAAAAAAAAAAAAAAAAAAAAAAAAAAAAAAAAAAAAAAAAAAAAAAAAAAAA2222222
AAAAAAAAAAAAAAAAAAAAAAAAAAAAAAAAAAAAAAAAAAAAAAAAAAAAAAAAAA222222
AAAAAAAAAAAAAAAAAAAAAAAAAAAAAAAAAAAAAAAAAAAAAAAAAAAAAAAAAAA22222
AAAAAAAAAAAAAAAAAAAAAAAAAAAAAAAAAAAAAAAAAAAAAAAAAAAAAAAAAAAA2222
AAAAAAAAAAAAAAAAAAAAAAAAAAAAAAAAAAAAAAAAAAAAAAAAAAAAAAAAAAAAA222
AAAAAAAAAAAAAAAAAAAAAAAAAAAAAAAAAAAAAAAAAAAAAAAAAAAAAAAAAAAAAA22
AAAAAAAAAAAAAAAAAAAAAAAAAAAAAAAAAAAAAAAAAAAAAAAAAAAAAAAAAAAAAAA2
AAAAAAAAAAAAAAAAAAAAAAAAAAAAAAAAAAAAAAAAAAAAAAAAAAAAAAAAAAAAAAAA
AAAAAAAAAAAAAAAAAAAAAAAAAAAAAAIAAAAAAAAAAAAAAAAAAAAAAAAAAAAAAAAA
AAAAAAAAAAAAAAAAAAAAAAAAAAAAAAIIAAAAAAAAAAAAAAAAAAAAAAAAAAAAAAAA
AAAAAAAAAAAAAAAAAAAAAAAAAAAAAAIIAIAAAAAAAAAAAAAAAAAAAAAAAAAAAAAA
AIAAAAAAAAAAAAAAAAAAAAAAAAAAAAIIAIAAAAAAAAAAAAAAAAAAAAAAAAAAAAAA
AIIAAAAAAAAAAAAAAAAAAAAAAAAAAAIIAIAAAAAAAAAAAAAAAAAAAAAAAAAAAAAA
AIIIAAAAAAAAAAAAAAAAAAAAAAAAAAIIAIAAAAAAAAAAAAAAAAAAAAAAAAAAAAAA
AIIIAIAAAAAAAAAAAAAAAAAAAAAAAAIIAIAAAAAAAAAAAAAAAAAAAAAAAAAAAAAA
AIIIAIIAAAAAAAAAAAAAAAAAAAAAAAIIAIAAAAAAAAAAAAAAAAAAAAAAAAAAAAAA
AIIIAIIIAAAAAAAAAAAAAAAAAAAAAAIIAIAAAAAAAAAAAAAAAAAAAAAAAAAAAAAA
AIIIAIIIIAAAAAAAAAAAAAAAAAAAAAIIAIAAAAAAAAAAAAAAAAAAAAAAAAAAAAAA
AIIIAIIIIIAAAAAAAAAAAAAAAAAAAAIIAIAAAAAAAAAAAAAAAAAAAAAAAAAAAAAA
AIIIAIIIIIIAAAAAAAAAAAAAAAAAAAIIAIAAAAAAAAAAAAAAAAAAAAAAAAAAAAAA
AIIIAIIIIIIIAAAAAAAAAAAAAAAAAAIIAIAAAAAAAAAAAAAAAAAAAAAAAAAAAAAA
AIIIAIIIIIIIIAAAAAAAAAAAAAAAAAIIAIAAAAAAAAAAAAAAAAAAAAAAAAAAAAAA
AIIIAIIIIIIIIIAAAAAAAAAAAAAAAAIIAIAAAAAAAAAAAAAAAAAAAAAAAAAAAAAA
AIIIAIIIIIIIIIIAAAAAAAAAAAAAAAIIAIAAAAAAAAAAAAAAAAAAAAAAAAAAAAAA
AIIIAIIIIIIIIIIIAAAAAAAAAAAAAAIIAIAAAAAAAAAAAAAAAAAAAAAAAAAAAAAA
AIIIAIIIIIIIIIIIIAAAAAAAAAAAAAIIAIAAAAAAAAAAAAAAAAAAAAAAAAAAAAAA
AIIIAIIIIIIIIIIIIIAAAAAAAAAAAAIIAIAAAAAAAAAAAAAAAAAAAAAAAAAAAAAA
AIIIAIIIIIIIIIIIIIIAAAAAAAAAAAIIAIAAAAAAAAAAAAAAAAAAAAAAAAAAAAAA
AIIIAIIIIIIIIIIIIIIIAAAAAAAAAAIIAIAAAAAAAAAAAAAAAAAAAAAAAAAAAAAA
AIIIAIIIIIIIIIIIIIIIAIAAAAAAAAIIAIAAAAAAAAAAAAAAAAAAAAAAAAAAAAAA
AIIIAIIIIIIIIIIIIIIIAIIAAAAAAAIIAIAAAAAAAAAAAAAAAAAAAAAAAAAAAAAA
AIIIAIIIIIIIIIIIIIIIAIIIAAAAAAIIAIAAAAAAAAAAAAAAAAAAAAAAAAAAAAAA
AIIIAIIIIIIIIIIIIIIIAIIIIAAAAAIIAIAAAAAAAAAAAAAAAAAAAAAAAAAAAAAA
AIIIAIIIIIIIIIIIIIIIAIIIIIAAAAIIAIAAAAAAAAAAAAAAAAAAAAAAAAAAAAAA
AIIIAIIIIIIIIIIIIIIIAIIIIIIAAAIIAIAAAAAAAAAAAAAAAAAAAAAAAAAAAAAA
AIIIAIIIIIIIIIIIIIIIAIIIIIIIAAIIAIAAAAAAAAAAAAAAAAAAAAAAAAAAAAAA
AIIIAIIIIIIIIIIIIIIIAIIIIIIIIAIIAIAAAAAAAAAAAAAAAAAAAAAAAAAAAAAA
AIIIAIIIIIIIIIIIIIIIAIIIIIIIIIIIAIAAAAAAAAAAAAAAAAAAAAAAAAAAAAAA
AIIIAIIIIIIIIIIIIIIIAIIIIIIIIIIIIIAAAAAAAAAAAAAAAAAAAAAAAAAAAAAA
AIIIIIIIIIIIIIIIIIIIAIIIIIIIIIIIIIAAAAAAAAAAAAAAAAAAAAAAAAAAAAAA
AIIIIIIIIIIIIIIIIIIIIIIIIIIIIIIIIIAAAAAAAAAAAAAAAAAAAAAAAAAAAAAA
AIIIIIIIIIIIIIIIIIIIIIIIIIIIIIIIIIAIAAAAAAAAAAAAAAAAAAAAAAAAAAAA
AIIIIIIIIIIIIIIIIIIIIIIIIIIIIIIIIIAIAIAAAAAAAAAAAAAAAAAAAAAAAAAA
AIIIIIIIIIIIIIIIIIIIIIIIIIIIIIIIIIAIAIIAAAAAAAAAAAAAAAAAAAAAAAAA
AIIIIIIIIIIIIIIIIIIIIIIIIIIIIIIIIIAIAIIIAAAAAAAAAAAAAAAAAAAAAAAA
AIIIIIIIIIIIIIIIIIIIIIIIIIIIIIIIIIAIAIIIIAAAAAAAAAAAAAAAAAAAAAAA
AIIIIIIIIIIIIIIIIIIIIIIIIIIIIIIIIIAIAIIIIIAAAAAAAAAAAAAAAAAAAAAA
AIIIIIIIIIIIIIIIIIIIIIIIIIIIIIIIIIAIAIIIIIIAAAAAAAAAAAAAAAAAAAAA
AIIIIIIIIIIIIIIIIIIIIIIIIIIIIIIIIIAIAIIIIIIIAAAAAAAAAAAAAAAAAAAA
AIIIIIIIIIIIIIIIIIIIIIIIIIIIIIIIIIAIAIIIIIIIIAAAAAAAAAAAAAAAAAAA
AIIIIIIIIIIIIIIIIIIIIIIIIIIIIIIIIIAIAIIIIIIIIIAAAAAAAAAAAAAAAAAA
AIIIIIIIIIIIIIIIIIIIIIIIIIIIIIIIIIAIAIIIIIIIIIIAAAAAAAAAAAAAAAAA
AIIIIIIIIIIIIIIIIIIIIIIIIIIIIIIIIIAIAIIIIIIIIIIIAAAAAAAAAAAAAAAA
AIIIIIIIIIIIIIIIIIIIIIIIIIIIIIIIIIAIAIIIIIIIIIIIIAAAAAAAAAAAAAAA
AIIIIIIIIIIIIIIIIIIIIIIIIIIIIIIIIIAIAIIIIIIIIIIIIAIAAAAAAAAAAAAA
AIIIIIIIIIIIIIIIIIIIIIIIIIIIIIIIIIAIAIIIIIIIIIIIIAIAAIAAAAAAAAAA
AIIIIIIIIIIIIIIIIIIIIIIIIIIIIIIIIIIIAIIIIIIIIIIIIAIAAIAAAAAAAAAA
AIIIIIIIIIIIIIIIIIIIIIIIIIIIIIIIIIIIIIIIIIIIIIIIIAIAAIAAAAAAAAAA
AIIIIIIIIIIIIIIIIIIIIIIIIIIIIIIIIIIIIIIIIIIIIIIIIIIAAIAAAAAAAAAA
AIIIIIIIIIIIIIIIIIIIIIIIIIIIIIIIIIIIIIIIIIIIIIIIIIIAIIAAAAAAAAAA
AIIIIIIIIIIIIIIIIIIIIIIIIIIIIIIIIIIIIIIIIIIIIIIIIIIAIIIAAAAAAAAA
AIIIIIIIIIIIIIIIIIIIIIIIIIIIIIIIIIIIIIIIIIIIIIIIIIIAIIIIAAAAAAAA
AIIIIIIIIIIIIIIIIIIIIIIIIIIIIIIIIIIIIIIIIIIIIIIIIIIAIIIIIAAAAAAA
AIIIIIIIIIIIIIIIIIIIIIIIIIIIIIIIIIIIIIIIIIIIIIIIIIIAIIIIIIAAAAAA
AIIIIIIIIIIIIIIIIIIIIIIIIIIIIIIIIIIIIIIIIIIIIIIIIIIAIIIIIIIAAAAA
AIIIIIIIIIIIIIIIIIIIIIIIIIIIIIIIIIIIIIIIIIIIIIIIIIIIIIIIIIIAAAAA
AIIIIIIIIIIIIIIIIIIIIIIIIIIIIIIIIIIIIIIIIIIIIIIIIIIIIIIIIIIIAAAA
AIIIIIIIIIIIIIIIIIIIIIIIIIIIIIIIIIIIIIIIIIIIIIIIIIIIIIIIIIIIIAAA
AIIIIIIIIIIIIIIIIIIIIIIIIIIIIIIIIIIIIIIIIIIIIIIIIIIIIIIIIIIIIIAA
AIIIIIIIIIIIIIIIIIIIIIIIIIIIIIIIIIIIIIIIIIIIIIIIIIIIIIIIIIIIIIIA
AIIIIIIIIIIIIIIIIIIIIIIIIIIIIIIIIIIIIIIIIIIIIIIIIIIIIIIIIIIIIIII
IIIIIIIIIIIIIIIIIIIIIIIIIIIIIIIIIIIIIIIIIIIIIIIIIIIIIIIIIIIIIIII
[MLOP] Prefetch Degree Mean: 15.97308
[MLOP] Prefetch Degree SD: 0.44953
[MLOP] Max Score Left Mean (%): 71.21931
[MLOP] Max Score Left SD (%): 10.50765
[MLOP] Max Score Right Mean (%): 99.94056
[MLOP] Max Score Right SD (%): 0.35036

Channel_0_RQ_row_buffer_hit 652850
Channel_0_RQ_row_buffer_miss 704078
Channel_0_WQ_row_buffer_hit 85206
Channel_0_WQ_row_buffer_miss 296416
Channel_0_WQ_full 9518
Channel_0_dbus_congested 1126600

avg_congested_cycle 10

DRAM_bw_pochs 261934
DRAM_bw_level_0 92638
DRAM_bw_level_1 51259
DRAM_bw_level_2 44020
DRAM_bw_level_3 74017
