*************************************************
   ChampSim Multicore Out-of-Order Simulator
   Last compiled: Apr  3 2025 20:54:34
*************************************************
parsing config file: /home/zir/Pythia/config/nopref.ini

trace_0 /home/zir/ChampSim/ML-DPC/ChampSimTraces/spec17/623.xalancbmk-s1.trace.xz
adding L2C_PREFETCHER: NONE
Initialize SHIP state
warmup_instructions 10000000
simulation_instructions 50000000
champsim_seed 164
measure_ipc 0
measure_ipc_epoch 1000
measure_dram_bw 1
measure_dram_bw_epoch 256
measure_cache_acc 1
measure_cache_acc_epoch 1024
l1d_perfect 0
l2c_perfect 0
llc_perfect 0
l1d_semi_perfect 0
l2c_semi_perfect 0
llc_semi_perfect 0
semi_perfect_cache_page_buffer_size 64

num_cpus 1
cpu_freq 4000
dram_io_freq 2400
page_size 4096
block_size 64
max_read_per_cycle 8
max_fill_per_cycle 1
dram_channels 1
log2_dram_channels 0
dram_ranks 1
dram_banks 8
dram_rows 65536
dram_columns 128
dram_row_size 8
dram_size 4096
dram_pages 1048576

fetch_width 6
decode_width 6
exec_width 4
lq_width 2
sq_width 2
retire_width 4
scheduler_size 128
branch_mispredict_penalty 20
rob_size 256
lq_size 72
sq_size 56
num_instr_destinations_sparc 4
num_instr_destinations 2
num_instr_sources 4

itlb_set 16
itlb_way 8
itlb_rq_size 16
itlb_wq_size 16
itlb_pq_size 0
itlb_mshr_size 8
itlb_latency 1

dtlb_set 16
dtlb_way 4
dtlb_rq_size 16
dtlb_wq_size 16
dtlb_pq_size 0
dtlb_mshr_size 8
dtlb_latency 1

stlb_set 128
stlb_way 12
stlb_rq_size 32
stlb_wq_size 32
stlb_pq_size 0
stlb_mshr_size 16
stlb_latency 8

l1i_size 32
l1i_set 64
l1i_way 8
l1i_rq_size 64
l1i_wq_size 64
l1i_pq_size 8
l1i_mshr_size 8
l1i_latency 1

l1d_size 32
l1d_set 64
l1d_way 8
l1d_rq_size 64
l1d_wq_size 64
l1d_pq_size 8
l1d_mshr_size 16
l1d_latency 4

l2c_size 256
l2c_set 512
l2c_way 8
l2c_rq_size 32
l2c_wq_size 32
l2c_pq_size 32
l2c_mshr_size 32
l2c_latency 10

llc_size 2048
llc_set 2048
llc_way 16
llc_rq_size 32
llc_wq_size 32
llc_pq_size 32
llc_mshr_size 64
llc_latency 20

dram_channel_width 8
dram_wq_size 64
dram_rq_size 64
tRP 15
tRCD 15
tCAS 12.5
dram_dbus_turn_around_time 30
dram_write_high_wm 56
dram_write_low_wm 48
min_dram_writes_per_switch 16
dram_mtps 2400
dram_dbus_return_time 13


Heartbeat CPU  0 instructions:    1000001 cycles:     444390 heartbeat IPC: 2.25028 cumulative IPC: 2.25028 (Simulation time: 0 hr 0 min 1 sec) 
Heartbeat CPU  0 instructions:    2000002 cycles:     881514 heartbeat IPC: 2.28768 cumulative IPC: 2.26883 (Simulation time: 0 hr 0 min 2 sec) 
Heartbeat CPU  0 instructions:    3000002 cycles:    1318168 heartbeat IPC: 2.29014 cumulative IPC: 2.27589 (Simulation time: 0 hr 0 min 4 sec) 
Heartbeat CPU  0 instructions:    4000000 cycles:    1755570 heartbeat IPC: 2.28622 cumulative IPC: 2.27846 (Simulation time: 0 hr 0 min 5 sec) 
Heartbeat CPU  0 instructions:    5000000 cycles:    2188787 heartbeat IPC: 2.30831 cumulative IPC: 2.28437 (Simulation time: 0 hr 0 min 7 sec) 
Heartbeat CPU  0 instructions:    6000003 cycles:    2627047 heartbeat IPC: 2.28176 cumulative IPC: 2.28393 (Simulation time: 0 hr 0 min 8 sec) 
Heartbeat CPU  0 instructions:    7000000 cycles:    3059219 heartbeat IPC: 2.31389 cumulative IPC: 2.28817 (Simulation time: 0 hr 0 min 10 sec) 
Heartbeat CPU  0 instructions:    8000000 cycles:    3496161 heartbeat IPC: 2.28863 cumulative IPC: 2.28822 (Simulation time: 0 hr 0 min 11 sec) 
Heartbeat CPU  0 instructions:    9000001 cycles:    3927837 heartbeat IPC: 2.31655 cumulative IPC: 2.29134 (Simulation time: 0 hr 0 min 13 sec) 
Heartbeat CPU  0 instructions:   10000001 cycles:    4364732 heartbeat IPC: 2.28888 cumulative IPC: 2.29109 (Simulation time: 0 hr 0 min 14 sec) 

Warmup complete CPU  0 instructions:   10000001 cycles:    4364732 (Simulation time: 0 hr 0 min 14 sec) 

Heartbeat CPU  0 instructions:   11000000 cycles:    5794564 heartbeat IPC: 0.69938 cumulative IPC: 0.69938 (Simulation time: 0 hr 0 min 16 sec) 
Heartbeat CPU  0 instructions:   12000000 cycles:    7200307 heartbeat IPC: 0.71137 cumulative IPC: 0.70532 (Simulation time: 0 hr 0 min 18 sec) 
Heartbeat CPU  0 instructions:   13000000 cycles:    8676113 heartbeat IPC: 0.67760 cumulative IPC: 0.69583 (Simulation time: 0 hr 0 min 20 sec) 
Heartbeat CPU  0 instructions:   14000001 cycles:   10033566 heartbeat IPC: 0.73667 cumulative IPC: 0.70561 (Simulation time: 0 hr 0 min 22 sec) 
Heartbeat CPU  0 instructions:   15000001 cycles:   11543398 heartbeat IPC: 0.66233 cumulative IPC: 0.69651 (Simulation time: 0 hr 0 min 24 sec) 
Heartbeat CPU  0 instructions:   16000000 cycles:   12868313 heartbeat IPC: 0.75476 cumulative IPC: 0.70559 (Simulation time: 0 hr 0 min 26 sec) 
Heartbeat CPU  0 instructions:   17000000 cycles:   14391471 heartbeat IPC: 0.65653 cumulative IPC: 0.69813 (Simulation time: 0 hr 0 min 28 sec) 
Heartbeat CPU  0 instructions:   18000000 cycles:   15707508 heartbeat IPC: 0.75986 cumulative IPC: 0.70529 (Simulation time: 0 hr 0 min 30 sec) 
Heartbeat CPU  0 instructions:   19000003 cycles:   17231481 heartbeat IPC: 0.65618 cumulative IPC: 0.69948 (Simulation time: 0 hr 0 min 32 sec) 
Heartbeat CPU  0 instructions:   20000000 cycles:   18602905 heartbeat IPC: 0.72917 cumulative IPC: 0.70234 (Simulation time: 0 hr 0 min 34 sec) 
Heartbeat CPU  0 instructions:   21000002 cycles:   20064707 heartbeat IPC: 0.68409 cumulative IPC: 0.70064 (Simulation time: 0 hr 0 min 36 sec) 
Heartbeat CPU  0 instructions:   22000000 cycles:   21516249 heartbeat IPC: 0.68892 cumulative IPC: 0.69965 (Simulation time: 0 hr 0 min 38 sec) 
Heartbeat CPU  0 instructions:   23000001 cycles:   22899236 heartbeat IPC: 0.72307 cumulative IPC: 0.70139 (Simulation time: 0 hr 0 min 40 sec) 
Heartbeat CPU  0 instructions:   24000000 cycles:   24402413 heartbeat IPC: 0.66526 cumulative IPC: 0.69868 (Simulation time: 0 hr 0 min 42 sec) 
Heartbeat CPU  0 instructions:   25000001 cycles:   25737577 heartbeat IPC: 0.74897 cumulative IPC: 0.70183 (Simulation time: 0 hr 0 min 44 sec) 
Heartbeat CPU  0 instructions:   26000002 cycles:   27257579 heartbeat IPC: 0.65789 cumulative IPC: 0.69891 (Simulation time: 0 hr 0 min 46 sec) 
Heartbeat CPU  0 instructions:   27000000 cycles:   28575023 heartbeat IPC: 0.75904 cumulative IPC: 0.70218 (Simulation time: 0 hr 0 min 48 sec) 
Heartbeat CPU  0 instructions:   28000000 cycles:   30101472 heartbeat IPC: 0.65512 cumulative IPC: 0.69939 (Simulation time: 0 hr 0 min 50 sec) 
Heartbeat CPU  0 instructions:   29000003 cycles:   31422278 heartbeat IPC: 0.75712 cumulative IPC: 0.70221 (Simulation time: 0 hr 0 min 52 sec) 
Heartbeat CPU  0 instructions:   30000001 cycles:   32939274 heartbeat IPC: 0.65920 cumulative IPC: 0.69992 (Simulation time: 0 hr 0 min 54 sec) 
Heartbeat CPU  0 instructions:   31000002 cycles:   34348996 heartbeat IPC: 0.70936 cumulative IPC: 0.70037 (Simulation time: 0 hr 0 min 56 sec) 
Heartbeat CPU  0 instructions:   32000000 cycles:   35777304 heartbeat IPC: 0.70013 cumulative IPC: 0.70036 (Simulation time: 0 hr 0 min 58 sec) 
Heartbeat CPU  0 instructions:   33000000 cycles:   37245269 heartbeat IPC: 0.68122 cumulative IPC: 0.69950 (Simulation time: 0 hr 1 min 0 sec) 
Heartbeat CPU  0 instructions:   34000003 cycles:   38614338 heartbeat IPC: 0.73043 cumulative IPC: 0.70074 (Simulation time: 0 hr 1 min 2 sec) 
Heartbeat CPU  0 instructions:   35000000 cycles:   40117233 heartbeat IPC: 0.66538 cumulative IPC: 0.69925 (Simulation time: 0 hr 1 min 4 sec) 
Heartbeat CPU  0 instructions:   36000000 cycles:   41444599 heartbeat IPC: 0.75337 cumulative IPC: 0.70119 (Simulation time: 0 hr 1 min 6 sec) 
Heartbeat CPU  0 instructions:   37000001 cycles:   42959831 heartbeat IPC: 0.65997 cumulative IPC: 0.69957 (Simulation time: 0 hr 1 min 8 sec) 
Heartbeat CPU  0 instructions:   38000000 cycles:   44275630 heartbeat IPC: 0.75999 cumulative IPC: 0.70156 (Simulation time: 0 hr 1 min 10 sec) 
Heartbeat CPU  0 instructions:   39000000 cycles:   45797085 heartbeat IPC: 0.65727 cumulative IPC: 0.69994 (Simulation time: 0 hr 1 min 12 sec) 
Heartbeat CPU  0 instructions:   40000000 cycles:   47138206 heartbeat IPC: 0.74564 cumulative IPC: 0.70137 (Simulation time: 0 hr 1 min 14 sec) 
Heartbeat CPU  0 instructions:   41000000 cycles:   48629658 heartbeat IPC: 0.67049 cumulative IPC: 0.70033 (Simulation time: 0 hr 1 min 16 sec) 
Heartbeat CPU  0 instructions:   42000002 cycles:   50059539 heartbeat IPC: 0.69936 cumulative IPC: 0.70030 (Simulation time: 0 hr 1 min 18 sec) 
Heartbeat CPU  0 instructions:   43000000 cycles:   51461186 heartbeat IPC: 0.71344 cumulative IPC: 0.70069 (Simulation time: 0 hr 1 min 20 sec) 
Heartbeat CPU  0 instructions:   44000000 cycles:   52934448 heartbeat IPC: 0.67877 cumulative IPC: 0.70002 (Simulation time: 0 hr 1 min 22 sec) 
Heartbeat CPU  0 instructions:   45000001 cycles:   54295376 heartbeat IPC: 0.73479 cumulative IPC: 0.70097 (Simulation time: 0 hr 1 min 24 sec) 
Heartbeat CPU  0 instructions:   46000002 cycles:   55807265 heartbeat IPC: 0.66142 cumulative IPC: 0.69981 (Simulation time: 0 hr 1 min 26 sec) 
Heartbeat CPU  0 instructions:   47000001 cycles:   57132340 heartbeat IPC: 0.75467 cumulative IPC: 0.70119 (Simulation time: 0 hr 1 min 28 sec) 
Heartbeat CPU  0 instructions:   48000000 cycles:   58655962 heartbeat IPC: 0.65633 cumulative IPC: 0.69993 (Simulation time: 0 hr 1 min 30 sec) 
Heartbeat CPU  0 instructions:   49000001 cycles:   59966926 heartbeat IPC: 0.76280 cumulative IPC: 0.70141 (Simulation time: 0 hr 1 min 32 sec) 
Heartbeat CPU  0 instructions:   50000003 cycles:   61491296 heartbeat IPC: 0.65601 cumulative IPC: 0.70020 (Simulation time: 0 hr 1 min 34 sec) 
Heartbeat CPU  0 instructions:   51000002 cycles:   62855154 heartbeat IPC: 0.73321 cumulative IPC: 0.70097 (Simulation time: 0 hr 1 min 36 sec) 
Heartbeat CPU  0 instructions:   52000000 cycles:   64327592 heartbeat IPC: 0.67914 cumulative IPC: 0.70043 (Simulation time: 0 hr 1 min 38 sec) 
Heartbeat CPU  0 instructions:   53000001 cycles:   65776885 heartbeat IPC: 0.68999 cumulative IPC: 0.70019 (Simulation time: 0 hr 1 min 40 sec) 
Heartbeat CPU  0 instructions:   54000000 cycles:   67166228 heartbeat IPC: 0.71976 cumulative IPC: 0.70062 (Simulation time: 0 hr 1 min 42 sec) 
Heartbeat CPU  0 instructions:   55000000 cycles:   68660742 heartbeat IPC: 0.66911 cumulative IPC: 0.69989 (Simulation time: 0 hr 1 min 44 sec) 
Heartbeat CPU  0 instructions:   56000000 cycles:   70002980 heartbeat IPC: 0.74502 cumulative IPC: 0.70081 (Simulation time: 0 hr 1 min 46 sec) 
Heartbeat CPU  0 instructions:   57000002 cycles:   71516652 heartbeat IPC: 0.66065 cumulative IPC: 0.69991 (Simulation time: 0 hr 1 min 48 sec) 
Heartbeat CPU  0 instructions:   58000002 cycles:   72837285 heartbeat IPC: 0.75721 cumulative IPC: 0.70101 (Simulation time: 0 hr 1 min 50 sec) 
Heartbeat CPU  0 instructions:   59000001 cycles:   74363047 heartbeat IPC: 0.65541 cumulative IPC: 0.70002 (Simulation time: 0 hr 1 min 52 sec) 
Heartbeat CPU  0 instructions:   60000000 cycles:   75680213 heartbeat IPC: 0.75920 cumulative IPC: 0.70111 (Simulation time: 0 hr 1 min 54 sec) 
Finished CPU 0 instructions: 50000002 cycles: 71315494 cumulative IPC: 0.70111 (Simulation time: 0 hr 1 min 54 sec) 

ChampSim completed all CPUs

[ROI Statistics]
Core_0_instructions 50000002
Core_0_cycles 71315494
Core_0_IPC 0.70111

Core_0_branch_prediction_accuracy 99.97853
Core_0_branch_MPKI 0.05708
Core_0_average_ROB_occupancy_at_mispredict 225.35599

Core_0_L1D_total_access 9043434
Core_0_L1D_total_hit 8092214
Core_0_L1D_total_miss 951220
Core_0_L1D_loads 8387657
Core_0_L1D_load_hit 7436717
Core_0_L1D_load_miss 950940
Core_0_L1D_RFOs 655777
Core_0_L1D_RFO_hit 655497
Core_0_L1D_RFO_miss 280
Core_0_L1D_prefetches 0
Core_0_L1D_prefetch_hit 0
Core_0_L1D_prefetch_miss 0
Core_0_L1D_writebacks 0
Core_0_L1D_writeback_hit 0
Core_0_L1D_writeback_miss 0
Core_0_L1D_prefetch_requested 0
Core_0_L1D_prefetch_dropped 0
Core_0_L1D_prefetch_issued 0
Core_0_L1D_prefetch_filled 0
Core_0_L1D_prefetch_useful 0
Core_0_L1D_prefetch_useless 0
Core_0_L1D_prefetch_late 0
Core_0_L1D_average_miss_latency 53.28723

Core_0_L1D_rq_access 14751815
Core_0_L1D_rq_forward 0
Core_0_L1D_rq_merged 5650108
Core_0_L1D_rq_to_cache 9101707
Core_0_L1D_rq_full 0

Core_0_L1D_wq_access 656260
Core_0_L1D_wq_forward 0
Core_0_L1D_wq_merged 0
Core_0_L1D_wq_to_cache 656260
Core_0_L1D_wq_full 0

Core_0_L1D_pq_access 0
Core_0_L1D_pq_forward 0
Core_0_L1D_pq_merged 0
Core_0_L1D_pq_to_cache 0
Core_0_L1D_pq_full 0

Core_0_L1D_acc_epochs 73901
Core_0_L1D_acc_level_0 73901
Core_0_L1D_acc_level_1 0
Core_0_L1D_acc_level_2 0
Core_0_L1D_acc_level_3 0
Core_0_L1D_acc_level_4 0
Core_0_L1D_acc_level_5 0
Core_0_L1D_acc_level_6 0
Core_0_L1D_acc_level_7 0
Core_0_L1D_acc_level_8 0
Core_0_L1D_acc_level_9 0

Core_0_L1I_total_access 17495168
Core_0_L1I_total_hit 17495168
Core_0_L1I_total_miss 0
Core_0_L1I_loads 17495168
Core_0_L1I_load_hit 17495168
Core_0_L1I_load_miss 0
Core_0_L1I_RFOs 0
Core_0_L1I_RFO_hit 0
Core_0_L1I_RFO_miss 0
Core_0_L1I_prefetches 0
Core_0_L1I_prefetch_hit 0
Core_0_L1I_prefetch_miss 0
Core_0_L1I_writebacks 0
Core_0_L1I_writeback_hit 0
Core_0_L1I_writeback_miss 0
Core_0_L1I_prefetch_requested 0
Core_0_L1I_prefetch_dropped 0
Core_0_L1I_prefetch_issued 0
Core_0_L1I_prefetch_filled 0
Core_0_L1I_prefetch_useful 0
Core_0_L1I_prefetch_useless 0
Core_0_L1I_prefetch_late 0
Core_0_L1I_average_miss_latency -nan

Core_0_L1I_rq_access 50000006
Core_0_L1I_rq_forward 0
Core_0_L1I_rq_merged 32504838
Core_0_L1I_rq_to_cache 17495168
Core_0_L1I_rq_full 0

Core_0_L1I_wq_access 0
Core_0_L1I_wq_forward 0
Core_0_L1I_wq_merged 0
Core_0_L1I_wq_to_cache 0
Core_0_L1I_wq_full 0

Core_0_L1I_pq_access 0
Core_0_L1I_pq_forward 0
Core_0_L1I_pq_merged 0
Core_0_L1I_pq_to_cache 0
Core_0_L1I_pq_full 0

Core_0_L1I_acc_epochs 73901
Core_0_L1I_acc_level_0 73901
Core_0_L1I_acc_level_1 0
Core_0_L1I_acc_level_2 0
Core_0_L1I_acc_level_3 0
Core_0_L1I_acc_level_4 0
Core_0_L1I_acc_level_5 0
Core_0_L1I_acc_level_6 0
Core_0_L1I_acc_level_7 0
Core_0_L1I_acc_level_8 0
Core_0_L1I_acc_level_9 0

Core_0_L2C_total_access 951632
Core_0_L2C_total_hit 601
Core_0_L2C_total_miss 951031
Core_0_L2C_loads 950940
Core_0_L2C_load_hit 189
Core_0_L2C_load_miss 950751
Core_0_L2C_RFOs 280
Core_0_L2C_RFO_hit 0
Core_0_L2C_RFO_miss 280
Core_0_L2C_prefetches 0
Core_0_L2C_prefetch_hit 0
Core_0_L2C_prefetch_miss 0
Core_0_L2C_writebacks 412
Core_0_L2C_writeback_hit 412
Core_0_L2C_writeback_miss 0
Core_0_L2C_prefetch_requested 0
Core_0_L2C_prefetch_dropped 0
Core_0_L2C_prefetch_issued 0
Core_0_L2C_prefetch_filled 0
Core_0_L2C_prefetch_useful 0
Core_0_L2C_prefetch_useless 0
Core_0_L2C_prefetch_late 0
Core_0_L2C_average_miss_latency 39.11608

Core_0_L2C_rq_access 951220
Core_0_L2C_rq_forward 0
Core_0_L2C_rq_merged 0
Core_0_L2C_rq_to_cache 951220
Core_0_L2C_rq_full 0

Core_0_L2C_wq_access 412
Core_0_L2C_wq_forward 0
Core_0_L2C_wq_merged 0
Core_0_L2C_wq_to_cache 412
Core_0_L2C_wq_full 0

Core_0_L2C_pq_access 0
Core_0_L2C_pq_forward 0
Core_0_L2C_pq_merged 0
Core_0_L2C_pq_to_cache 0
Core_0_L2C_pq_full 0

Core_0_L2C_acc_epochs 73901
Core_0_L2C_acc_level_0 73901
Core_0_L2C_acc_level_1 0
Core_0_L2C_acc_level_2 0
Core_0_L2C_acc_level_3 0
Core_0_L2C_acc_level_4 0
Core_0_L2C_acc_level_5 0
Core_0_L2C_acc_level_6 0
Core_0_L2C_acc_level_7 0
Core_0_L2C_acc_level_8 0
Core_0_L2C_acc_level_9 0

Core_0_LLC_total_access 951443
Core_0_LLC_total_hit 848794
Core_0_LLC_total_miss 102649
Core_0_LLC_loads 950751
Core_0_LLC_load_hit 848281
Core_0_LLC_load_miss 102470
Core_0_LLC_RFOs 280
Core_0_LLC_RFO_hit 108
Core_0_LLC_RFO_miss 172
Core_0_LLC_prefetches 0
Core_0_LLC_prefetch_hit 0
Core_0_LLC_prefetch_miss 0
Core_0_LLC_writebacks 412
Core_0_LLC_writeback_hit 405
Core_0_LLC_writeback_miss 7
Core_0_LLC_prefetch_requested 0
Core_0_LLC_prefetch_dropped 0
Core_0_LLC_prefetch_issued 0
Core_0_LLC_prefetch_filled 0
Core_0_LLC_prefetch_useful 0
Core_0_LLC_prefetch_useless 0
Core_0_LLC_prefetch_late 0
Core_0_LLC_average_miss_latency 84.44602

Core_0_LLC_rq_access 951031
Core_0_LLC_rq_forward 0
Core_0_LLC_rq_merged 0
Core_0_LLC_rq_to_cache 951031
Core_0_LLC_rq_full 0

Core_0_LLC_wq_access 412
Core_0_LLC_wq_forward 0
Core_0_LLC_wq_merged 0
Core_0_LLC_wq_to_cache 412
Core_0_LLC_wq_full 0

Core_0_LLC_pq_access 0
Core_0_LLC_pq_forward 0
Core_0_LLC_pq_merged 0
Core_0_LLC_pq_to_cache 0
Core_0_LLC_pq_full 0

Core_0_LLC_acc_epochs 73907
Core_0_LLC_acc_level_0 73907
Core_0_LLC_acc_level_1 0
Core_0_LLC_acc_level_2 0
Core_0_LLC_acc_level_3 0
Core_0_LLC_acc_level_4 0
Core_0_LLC_acc_level_5 0
Core_0_LLC_acc_level_6 0
Core_0_LLC_acc_level_7 0
Core_0_LLC_acc_level_8 0
Core_0_LLC_acc_level_9 0

Core_0_major_page_fault 0
Core_0_minor_page_fault 698

Channel_0_RQ_row_buffer_hit 92537
Channel_0_RQ_row_buffer_miss 10105
Channel_0_WQ_row_buffer_hit 7
Channel_0_WQ_row_buffer_miss 176
Channel_0_WQ_full 0
Channel_0_dbus_congested 18979

avg_congested_cycle 11

DRAM_bw_pochs 295626
DRAM_bw_level_0 292567
DRAM_bw_level_1 3059
DRAM_bw_level_2 0
DRAM_bw_level_3 0
