*************************************************
   ChampSim Multicore Out-of-Order Simulator
   Last compiled: Apr  3 2025 20:54:34
*************************************************
parsing config file: /home/zir/Pythia/config/pythia.ini

trace_0 /home/zir/ChampSim/ML-DPC/ChampSimTraces/spec06/437.leslie3d-s1.trace.gz
adding L2C_PREFETCHER: Scooby
Initialize SHIP state
warmup_instructions 10000000
simulation_instructions 50000000
champsim_seed 164
measure_ipc 0
measure_ipc_epoch 1000
measure_dram_bw 1
measure_dram_bw_epoch 256
measure_cache_acc 1
measure_cache_acc_epoch 1024
l1d_perfect 0
l2c_perfect 0
llc_perfect 0
l1d_semi_perfect 0
l2c_semi_perfect 0
llc_semi_perfect 0
semi_perfect_cache_page_buffer_size 64

num_cpus 1
cpu_freq 4000
dram_io_freq 2400
page_size 4096
block_size 64
max_read_per_cycle 8
max_fill_per_cycle 1
dram_channels 1
log2_dram_channels 0
dram_ranks 1
dram_banks 8
dram_rows 65536
dram_columns 128
dram_row_size 8
dram_size 4096
dram_pages 1048576

fetch_width 6
decode_width 6
exec_width 4
lq_width 2
sq_width 2
retire_width 4
scheduler_size 128
branch_mispredict_penalty 20
rob_size 256
lq_size 72
sq_size 56
num_instr_destinations_sparc 4
num_instr_destinations 2
num_instr_sources 4

itlb_set 16
itlb_way 8
itlb_rq_size 16
itlb_wq_size 16
itlb_pq_size 0
itlb_mshr_size 8
itlb_latency 1

dtlb_set 16
dtlb_way 4
dtlb_rq_size 16
dtlb_wq_size 16
dtlb_pq_size 0
dtlb_mshr_size 8
dtlb_latency 1

stlb_set 128
stlb_way 12
stlb_rq_size 32
stlb_wq_size 32
stlb_pq_size 0
stlb_mshr_size 16
stlb_latency 8

l1i_size 32
l1i_set 64
l1i_way 8
l1i_rq_size 64
l1i_wq_size 64
l1i_pq_size 8
l1i_mshr_size 8
l1i_latency 1

l1d_size 32
l1d_set 64
l1d_way 8
l1d_rq_size 64
l1d_wq_size 64
l1d_pq_size 8
l1d_mshr_size 16
l1d_latency 4

l2c_size 256
l2c_set 512
l2c_way 8
l2c_rq_size 32
l2c_wq_size 32
l2c_pq_size 32
l2c_mshr_size 32
l2c_latency 10

llc_size 2048
llc_set 2048
llc_way 16
llc_rq_size 32
llc_wq_size 32
llc_pq_size 32
llc_mshr_size 64
llc_latency 20

dram_channel_width 8
dram_wq_size 64
dram_rq_size 64
tRP 15
tRCD 15
tCAS 12.5
dram_dbus_turn_around_time 30
dram_write_high_wm 56
dram_write_low_wm 48
min_dram_writes_per_switch 16
dram_mtps 2400
dram_dbus_return_time 13

scooby_alpha 0.0065088
scooby_gamma 0.556301
scooby_epsilon 0.00182284
scooby_state_num_bits 10
scooby_max_states 1024
scooby_seed 200
scooby_policy EGreedy
scooby_learning_type SARSA
scooby_actions 1,3,4,5,10,11,12,22,23,30,32,-1,-3,-6,0,
scooby_max_actions 15
scooby_pt_size 256
scooby_st_size 64
scooby_max_pcs 5
scooby_max_offsets 5
scooby_max_deltas 5
scooby_reward_none -4
scooby_reward_incorrect -8
scooby_reward_correct_untimely 12
scooby_reward_correct_timely 20
scooby_brain_zero_init 0
scooby_enable_reward_all 0
scooby_enable_track_multiple 0
scooby_enable_reward_out_of_bounds 1
scooby_reward_out_of_bounds -12
scooby_state_type 1
scooby_state_hash_type 11
scooby_access_debug 0
scooby_print_access_debug 0
scooby_print_access_debug_pc deadbeef
scooby_print_access_debug_pc_count 0
scooby_print_trace 0
scooby_enable_state_action_stats 1
scooby_enable_reward_tracker_hit 0
scooby_reward_tracker_hit -2
scooby_enable_featurewise_engine 1
scooby_pref_degree 1
scooby_enable_dyn_degree 1
scooby_max_to_avg_q_thresholds 0.5,1,2,
scooby_dyn_degrees 1,2,4,4,
scooby_multi_deg_select_type 2
scooby_last_pref_offset_conf_thresholds 1,3,8,
scooby_dyn_degrees_type2 1,2,4,6,
scooby_action_tracker_size 2
scooby_high_bw_thresh 4
scooby_enable_hbw_reward 1
scooby_reward_hbw_correct_timely 20
scooby_reward_hbw_correct_untimely 12
scooby_reward_hbw_incorrect -14
scooby_reward_hbw_none -2
scooby_reward_hbw_out_of_bounds -12
scooby_reward_hbw_tracker_hit -2
scooby_last_pref_offset_conf_thresholds_hbw 1,3,8,
scooby_dyn_degrees_type2_hbw 1,2,4,6,

le_enable_trace 0
le_trace_interval 0
le_trace_file_name 
le_trace_state 0
le_enable_score_plot 0
le_plot_file_name 
le_plot_actions 
le_enable_action_trace 0
le_action_trace_interval 0
le_action_trace_name 
le_enable_action_plot 0

le_featurewise_active_features PC, PC_Delta
le_featurewise_num_tilings 3,3,
le_featurewise_num_tiles 128,128,
le_featurewise_hash_types 2,2,
le_featurewise_enable_tiling_offset 1,1,
le_featurewise_max_q_thresh 0.5
le_featurewise_enable_action_fallback 1
le_featurewise_feature_weights 1,1,
le_featurewise_enable_dynamic_weight 0
le_featurewise_weight_gradient 0.001
le_featurewise_disable_adjust_weight_all_features_align 1
le_featurewise_selective_update 0
le_featurewise_pooling_type 2
le_featurewise_enable_dyn_action_fallback 1
le_featurewise_bw_acc_check_level 1
le_featurewise_acc_thresh 2
le_featurewise_enable_trace 0
le_featurewise_trace_feature_type 0
le_featurewise_trace_feature 
le_featurewise_trace_interval 0
le_featurewise_trace_record_count 0
le_featurewise_trace_file_name 
le_featurewise_enable_score_plot 0
le_featurewise_plot_actions 
le_featurewise_plot_file_name 


Heartbeat CPU  0 instructions:    1000002 cycles:     551009 heartbeat IPC: 1.81486 cumulative IPC: 1.81486 (Simulation time: 0 hr 0 min 2 sec) 
Heartbeat CPU  0 instructions:    2000003 cycles:    1146961 heartbeat IPC: 1.67799 cumulative IPC: 1.74374 (Simulation time: 0 hr 0 min 4 sec) 
Heartbeat CPU  0 instructions:    3000001 cycles:    1742978 heartbeat IPC: 1.67780 cumulative IPC: 1.72119 (Simulation time: 0 hr 0 min 7 sec) 
Heartbeat CPU  0 instructions:    4000000 cycles:    2313857 heartbeat IPC: 1.75168 cumulative IPC: 1.72872 (Simulation time: 0 hr 0 min 9 sec) 
Heartbeat CPU  0 instructions:    5000003 cycles:    2886698 heartbeat IPC: 1.74569 cumulative IPC: 1.73208 (Simulation time: 0 hr 0 min 11 sec) 
Heartbeat CPU  0 instructions:    6000003 cycles:    3482976 heartbeat IPC: 1.67707 cumulative IPC: 1.72267 (Simulation time: 0 hr 0 min 13 sec) 
Heartbeat CPU  0 instructions:    7000001 cycles:    4078725 heartbeat IPC: 1.67856 cumulative IPC: 1.71622 (Simulation time: 0 hr 0 min 16 sec) 
Heartbeat CPU  0 instructions:    8000000 cycles:    4626508 heartbeat IPC: 1.82554 cumulative IPC: 1.72917 (Simulation time: 0 hr 0 min 18 sec) 
Heartbeat CPU  0 instructions:    9000000 cycles:    5222142 heartbeat IPC: 1.67888 cumulative IPC: 1.72343 (Simulation time: 0 hr 0 min 20 sec) 
Heartbeat CPU  0 instructions:   10000001 cycles:    5817926 heartbeat IPC: 1.67846 cumulative IPC: 1.71883 (Simulation time: 0 hr 0 min 23 sec) 

Warmup complete CPU  0 instructions:   10000001 cycles:    5817926 (Simulation time: 0 hr 0 min 23 sec) 

Heartbeat CPU  0 instructions:   11000001 cycles:    6800930 heartbeat IPC: 1.01729 cumulative IPC: 1.01729 (Simulation time: 0 hr 0 min 25 sec) 
Heartbeat CPU  0 instructions:   12000000 cycles:    7760007 heartbeat IPC: 1.04267 cumulative IPC: 1.02982 (Simulation time: 0 hr 0 min 28 sec) 
Heartbeat CPU  0 instructions:   13000001 cycles:    8678584 heartbeat IPC: 1.08864 cumulative IPC: 1.04871 (Simulation time: 0 hr 0 min 30 sec) 
Heartbeat CPU  0 instructions:   14000001 cycles:    9580388 heartbeat IPC: 1.10889 cumulative IPC: 1.06313 (Simulation time: 0 hr 0 min 33 sec) 
Heartbeat CPU  0 instructions:   15000002 cycles:   10648549 heartbeat IPC: 0.93619 cumulative IPC: 1.03506 (Simulation time: 0 hr 0 min 35 sec) 
Heartbeat CPU  0 instructions:   16000000 cycles:   11571770 heartbeat IPC: 1.08316 cumulative IPC: 1.04278 (Simulation time: 0 hr 0 min 38 sec) 
Heartbeat CPU  0 instructions:   17000003 cycles:   12495833 heartbeat IPC: 1.08218 cumulative IPC: 1.04823 (Simulation time: 0 hr 0 min 40 sec) 
Heartbeat CPU  0 instructions:   18000002 cycles:   13551282 heartbeat IPC: 0.94746 cumulative IPC: 1.03448 (Simulation time: 0 hr 0 min 43 sec) 
Heartbeat CPU  0 instructions:   19000003 cycles:   14481881 heartbeat IPC: 1.07458 cumulative IPC: 1.03879 (Simulation time: 0 hr 0 min 45 sec) 
Heartbeat CPU  0 instructions:   20000000 cycles:   15399140 heartbeat IPC: 1.09020 cumulative IPC: 1.04371 (Simulation time: 0 hr 0 min 48 sec) 
Heartbeat CPU  0 instructions:   21000003 cycles:   16353446 heartbeat IPC: 1.04789 cumulative IPC: 1.04409 (Simulation time: 0 hr 0 min 50 sec) 
Heartbeat CPU  0 instructions:   22000003 cycles:   17388840 heartbeat IPC: 0.96582 cumulative IPC: 1.03708 (Simulation time: 0 hr 0 min 53 sec) 
Heartbeat CPU  0 instructions:   23000003 cycles:   18309811 heartbeat IPC: 1.08581 cumulative IPC: 1.04068 (Simulation time: 0 hr 0 min 55 sec) 
Heartbeat CPU  0 instructions:   24000000 cycles:   19232966 heartbeat IPC: 1.08324 cumulative IPC: 1.04360 (Simulation time: 0 hr 0 min 58 sec) 
Heartbeat CPU  0 instructions:   25000003 cycles:   20283567 heartbeat IPC: 0.95184 cumulative IPC: 1.03694 (Simulation time: 0 hr 1 min 0 sec) 
Heartbeat CPU  0 instructions:   26000002 cycles:   21201665 heartbeat IPC: 1.08921 cumulative IPC: 1.04006 (Simulation time: 0 hr 1 min 3 sec) 
Heartbeat CPU  0 instructions:   27000002 cycles:   22121112 heartbeat IPC: 1.08761 cumulative IPC: 1.04274 (Simulation time: 0 hr 1 min 5 sec) 
Heartbeat CPU  0 instructions:   28000000 cycles:   23143536 heartbeat IPC: 0.97807 cumulative IPC: 1.03892 (Simulation time: 0 hr 1 min 8 sec) 
Heartbeat CPU  0 instructions:   29000002 cycles:   24089447 heartbeat IPC: 1.05718 cumulative IPC: 1.03987 (Simulation time: 0 hr 1 min 10 sec) 
Heartbeat CPU  0 instructions:   30000002 cycles:   25012543 heartbeat IPC: 1.08331 cumulative IPC: 1.04196 (Simulation time: 0 hr 1 min 13 sec) 
Heartbeat CPU  0 instructions:   31000001 cycles:   25922394 heartbeat IPC: 1.09908 cumulative IPC: 1.04454 (Simulation time: 0 hr 1 min 15 sec) 
Heartbeat CPU  0 instructions:   32000000 cycles:   26994277 heartbeat IPC: 0.93294 cumulative IPC: 1.03889 (Simulation time: 0 hr 1 min 18 sec) 
Heartbeat CPU  0 instructions:   33000000 cycles:   27913372 heartbeat IPC: 1.08803 cumulative IPC: 1.04094 (Simulation time: 0 hr 1 min 21 sec) 
Heartbeat CPU  0 instructions:   34000002 cycles:   28834704 heartbeat IPC: 1.08539 cumulative IPC: 1.04272 (Simulation time: 0 hr 1 min 23 sec) 
Heartbeat CPU  0 instructions:   35000002 cycles:   29885794 heartbeat IPC: 0.95139 cumulative IPC: 1.03873 (Simulation time: 0 hr 1 min 26 sec) 
Heartbeat CPU  0 instructions:   36000000 cycles:   30805433 heartbeat IPC: 1.08738 cumulative IPC: 1.04052 (Simulation time: 0 hr 1 min 28 sec) 
Heartbeat CPU  0 instructions:   37000002 cycles:   31725651 heartbeat IPC: 1.08670 cumulative IPC: 1.04216 (Simulation time: 0 hr 1 min 31 sec) 
Heartbeat CPU  0 instructions:   38000003 cycles:   32691594 heartbeat IPC: 1.03526 cumulative IPC: 1.04191 (Simulation time: 0 hr 1 min 33 sec) 
Heartbeat CPU  0 instructions:   39000001 cycles:   33703899 heartbeat IPC: 0.98784 cumulative IPC: 1.03995 (Simulation time: 0 hr 1 min 36 sec) 
Heartbeat CPU  0 instructions:   40000000 cycles:   34627085 heartbeat IPC: 1.08320 cumulative IPC: 1.04134 (Simulation time: 0 hr 1 min 38 sec) 
Heartbeat CPU  0 instructions:   41000000 cycles:   35544612 heartbeat IPC: 1.08989 cumulative IPC: 1.04283 (Simulation time: 0 hr 1 min 41 sec) 
Heartbeat CPU  0 instructions:   42000003 cycles:   36598760 heartbeat IPC: 0.94864 cumulative IPC: 1.03961 (Simulation time: 0 hr 1 min 43 sec) 
Heartbeat CPU  0 instructions:   43000001 cycles:   37520919 heartbeat IPC: 1.08441 cumulative IPC: 1.04091 (Simulation time: 0 hr 1 min 46 sec) 
Heartbeat CPU  0 instructions:   44000000 cycles:   38443055 heartbeat IPC: 1.08444 cumulative IPC: 1.04214 (Simulation time: 0 hr 1 min 48 sec) 
Heartbeat CPU  0 instructions:   45000000 cycles:   39684561 heartbeat IPC: 0.80547 cumulative IPC: 1.03347 (Simulation time: 0 hr 1 min 51 sec) 
Heartbeat CPU  0 instructions:   46000000 cycles:   41647875 heartbeat IPC: 0.50934 cumulative IPC: 1.00475 (Simulation time: 0 hr 1 min 54 sec) 
Heartbeat CPU  0 instructions:   47000001 cycles:   43432437 heartbeat IPC: 0.56036 cumulative IPC: 0.98366 (Simulation time: 0 hr 1 min 57 sec) 
Heartbeat CPU  0 instructions:   48000000 cycles:   44887923 heartbeat IPC: 0.68706 cumulative IPC: 0.97261 (Simulation time: 0 hr 2 min 0 sec) 
Heartbeat CPU  0 instructions:   49000001 cycles:   46442182 heartbeat IPC: 0.64339 cumulative IPC: 0.96002 (Simulation time: 0 hr 2 min 3 sec) 
Heartbeat CPU  0 instructions:   50000001 cycles:   47900439 heartbeat IPC: 0.68575 cumulative IPC: 0.95051 (Simulation time: 0 hr 2 min 5 sec) 
Heartbeat CPU  0 instructions:   51000001 cycles:   49427382 heartbeat IPC: 0.65490 cumulative IPC: 0.94016 (Simulation time: 0 hr 2 min 8 sec) 
Heartbeat CPU  0 instructions:   52000000 cycles:   50906501 heartbeat IPC: 0.67608 cumulative IPC: 0.93150 (Simulation time: 0 hr 2 min 11 sec) 
Heartbeat CPU  0 instructions:   53000002 cycles:   52443621 heartbeat IPC: 0.65057 cumulative IPC: 0.92224 (Simulation time: 0 hr 2 min 14 sec) 
Heartbeat CPU  0 instructions:   54000002 cycles:   53911727 heartbeat IPC: 0.68115 cumulative IPC: 0.91488 (Simulation time: 0 hr 2 min 17 sec) 
Heartbeat CPU  0 instructions:   55000000 cycles:   55821430 heartbeat IPC: 0.52364 cumulative IPC: 0.89994 (Simulation time: 0 hr 2 min 20 sec) 
Heartbeat CPU  0 instructions:   56000000 cycles:   57831264 heartbeat IPC: 0.49755 cumulative IPC: 0.88439 (Simulation time: 0 hr 2 min 23 sec) 
Heartbeat CPU  0 instructions:   57000002 cycles:   60154851 heartbeat IPC: 0.43037 cumulative IPC: 0.86497 (Simulation time: 0 hr 2 min 26 sec) 
Heartbeat CPU  0 instructions:   58000000 cycles:   62834182 heartbeat IPC: 0.37323 cumulative IPC: 0.84187 (Simulation time: 0 hr 2 min 29 sec) 
Heartbeat CPU  0 instructions:   59000002 cycles:   65630696 heartbeat IPC: 0.35759 cumulative IPC: 0.81922 (Simulation time: 0 hr 2 min 33 sec) 
Heartbeat CPU  0 instructions:   60000000 cycles:   67573961 heartbeat IPC: 0.51460 cumulative IPC: 0.80964 (Simulation time: 0 hr 2 min 36 sec) 
Finished CPU 0 instructions: 50000000 cycles: 61756043 cumulative IPC: 0.80964 (Simulation time: 0 hr 2 min 36 sec) 

ChampSim completed all CPUs

[ROI Statistics]
Core_0_instructions 50000000
Core_0_cycles 61756043
Core_0_IPC 0.80964

Core_0_branch_prediction_accuracy 98.44449
Core_0_branch_MPKI 0.79430
Core_0_average_ROB_occupancy_at_mispredict 245.91917

Core_0_L1D_total_access 13779518
Core_0_L1D_total_hit 11488570
Core_0_L1D_total_miss 2290948
Core_0_L1D_loads 9818542
Core_0_L1D_load_hit 8040772
Core_0_L1D_load_miss 1777770
Core_0_L1D_RFOs 3960976
Core_0_L1D_RFO_hit 3447798
Core_0_L1D_RFO_miss 513178
Core_0_L1D_prefetches 0
Core_0_L1D_prefetch_hit 0
Core_0_L1D_prefetch_miss 0
Core_0_L1D_writebacks 0
Core_0_L1D_writeback_hit 0
Core_0_L1D_writeback_miss 0
Core_0_L1D_prefetch_requested 0
Core_0_L1D_prefetch_dropped 0
Core_0_L1D_prefetch_issued 0
Core_0_L1D_prefetch_filled 0
Core_0_L1D_prefetch_useful 0
Core_0_L1D_prefetch_useless 0
Core_0_L1D_prefetch_late 0
Core_0_L1D_average_miss_latency 85.39939

Core_0_L1D_rq_access 20616420
Core_0_L1D_rq_forward 0
Core_0_L1D_rq_merged 9788450
Core_0_L1D_rq_to_cache 10827934
Core_0_L1D_rq_full 0

Core_0_L1D_wq_access 6416910
Core_0_L1D_wq_forward 36
Core_0_L1D_wq_merged 6709
Core_0_L1D_wq_to_cache 6410201
Core_0_L1D_wq_full 0

Core_0_L1D_pq_access 0
Core_0_L1D_pq_forward 0
Core_0_L1D_pq_merged 0
Core_0_L1D_pq_to_cache 0
Core_0_L1D_pq_full 0

Core_0_L1D_acc_epochs 64438
Core_0_L1D_acc_level_0 64438
Core_0_L1D_acc_level_1 0
Core_0_L1D_acc_level_2 0
Core_0_L1D_acc_level_3 0
Core_0_L1D_acc_level_4 0
Core_0_L1D_acc_level_5 0
Core_0_L1D_acc_level_6 0
Core_0_L1D_acc_level_7 0
Core_0_L1D_acc_level_8 0
Core_0_L1D_acc_level_9 0

Core_0_L1I_total_access 10986938
Core_0_L1I_total_hit 10986771
Core_0_L1I_total_miss 167
Core_0_L1I_loads 10986938
Core_0_L1I_load_hit 10986771
Core_0_L1I_load_miss 167
Core_0_L1I_RFOs 0
Core_0_L1I_RFO_hit 0
Core_0_L1I_RFO_miss 0
Core_0_L1I_prefetches 0
Core_0_L1I_prefetch_hit 0
Core_0_L1I_prefetch_miss 0
Core_0_L1I_writebacks 0
Core_0_L1I_writeback_hit 0
Core_0_L1I_writeback_miss 0
Core_0_L1I_prefetch_requested 0
Core_0_L1I_prefetch_dropped 0
Core_0_L1I_prefetch_issued 0
Core_0_L1I_prefetch_filled 0
Core_0_L1I_prefetch_useful 0
Core_0_L1I_prefetch_useless 0
Core_0_L1I_prefetch_late 0
Core_0_L1I_average_miss_latency 162.31737

Core_0_L1I_rq_access 49999980
Core_0_L1I_rq_forward 0
Core_0_L1I_rq_merged 39012883
Core_0_L1I_rq_to_cache 10987097
Core_0_L1I_rq_full 0

Core_0_L1I_wq_access 0
Core_0_L1I_wq_forward 0
Core_0_L1I_wq_merged 0
Core_0_L1I_wq_to_cache 0
Core_0_L1I_wq_full 0

Core_0_L1I_pq_access 0
Core_0_L1I_pq_forward 0
Core_0_L1I_pq_merged 0
Core_0_L1I_pq_to_cache 0
Core_0_L1I_pq_full 0

Core_0_L1I_acc_epochs 64438
Core_0_L1I_acc_level_0 64438
Core_0_L1I_acc_level_1 0
Core_0_L1I_acc_level_2 0
Core_0_L1I_acc_level_3 0
Core_0_L1I_acc_level_4 0
Core_0_L1I_acc_level_5 0
Core_0_L1I_acc_level_6 0
Core_0_L1I_acc_level_7 0
Core_0_L1I_acc_level_8 0
Core_0_L1I_acc_level_9 0

Core_0_L2C_total_access 9092210
Core_0_L2C_total_hit 7333561
Core_0_L2C_total_miss 1758649
Core_0_L2C_loads 1777733
Core_0_L2C_load_hit 1524300
Core_0_L2C_load_miss 253433
Core_0_L2C_RFOs 513124
Core_0_L2C_RFO_hit 180769
Core_0_L2C_RFO_miss 332355
Core_0_L2C_prefetches 6106511
Core_0_L2C_prefetch_hit 4933672
Core_0_L2C_prefetch_miss 1172839
Core_0_L2C_writebacks 694842
Core_0_L2C_writeback_hit 694820
Core_0_L2C_writeback_miss 22
Core_0_L2C_prefetch_requested 10812619
Core_0_L2C_prefetch_dropped 206279
Core_0_L2C_prefetch_issued 10606340
Core_0_L2C_prefetch_filled 1376999
Core_0_L2C_prefetch_useful 1371284
Core_0_L2C_prefetch_useless 5680
Core_0_L2C_prefetch_late 212659
Core_0_L2C_average_miss_latency 270.98594

Core_0_L2C_rq_access 2291119
Core_0_L2C_rq_forward 0
Core_0_L2C_rq_merged 0
Core_0_L2C_rq_to_cache 2290861
Core_0_L2C_rq_full 0

Core_0_L2C_wq_access 694842
Core_0_L2C_wq_forward 1322
Core_0_L2C_wq_merged 0
Core_0_L2C_wq_to_cache 694842
Core_0_L2C_wq_full 0

Core_0_L2C_pq_access 10606340
Core_0_L2C_pq_forward 0
Core_0_L2C_pq_merged 1174908
Core_0_L2C_pq_to_cache 9430368
Core_0_L2C_pq_full 0

Core_0_L2C_acc_epochs 64438
Core_0_L2C_acc_level_0 8
Core_0_L2C_acc_level_1 27
Core_0_L2C_acc_level_2 75
Core_0_L2C_acc_level_3 342
Core_0_L2C_acc_level_4 1224
Core_0_L2C_acc_level_5 1833
Core_0_L2C_acc_level_6 2404
Core_0_L2C_acc_level_7 3312
Core_0_L2C_acc_level_8 5316
Core_0_L2C_acc_level_9 49897

Core_0_LLC_total_access 2212843
Core_0_LLC_total_hit 651366
Core_0_LLC_total_miss 1561477
Core_0_LLC_loads 41484
Core_0_LLC_load_hit 10224
Core_0_LLC_load_miss 31260
Core_0_LLC_RFOs 332356
Core_0_LLC_RFO_hit 78831
Core_0_LLC_RFO_miss 253525
Core_0_LLC_prefetches 1384788
Core_0_LLC_prefetch_hit 382419
Core_0_LLC_prefetch_miss 1002369
Core_0_LLC_writebacks 454215
Core_0_LLC_writeback_hit 179892
Core_0_LLC_writeback_miss 274323
Core_0_LLC_prefetch_requested 0
Core_0_LLC_prefetch_dropped 0
Core_0_LLC_prefetch_issued 0
Core_0_LLC_prefetch_filled 1172508
Core_0_LLC_prefetch_useful 8146
Core_0_LLC_prefetch_useless 1151260
Core_0_LLC_prefetch_late 0
Core_0_LLC_average_miss_latency 302.73976

Core_0_LLC_rq_access 373843
Core_0_LLC_rq_forward 0
Core_0_LLC_rq_merged 0
Core_0_LLC_rq_to_cache 373843
Core_0_LLC_rq_full 0

Core_0_LLC_wq_access 454215
Core_0_LLC_wq_forward 0
Core_0_LLC_wq_merged 0
Core_0_LLC_wq_to_cache 454215
Core_0_LLC_wq_full 0

Core_0_LLC_pq_access 1589666
Core_0_LLC_pq_forward 0
Core_0_LLC_pq_merged 0
Core_0_LLC_pq_to_cache 1589666
Core_0_LLC_pq_full 0

Core_0_LLC_acc_epochs 65991
Core_0_LLC_acc_level_0 64834
Core_0_LLC_acc_level_1 743
Core_0_LLC_acc_level_2 207
Core_0_LLC_acc_level_3 96
Core_0_LLC_acc_level_4 77
Core_0_LLC_acc_level_5 27
Core_0_LLC_acc_level_6 0
Core_0_LLC_acc_level_7 1
Core_0_LLC_acc_level_8 0
Core_0_LLC_acc_level_9 6

Core_0_major_page_fault 0
Core_0_minor_page_fault 12097

scooby_st_lookup 2091403
scooby_st_hit 2063648
scooby_st_evict 27691
scooby_st_insert 27755
scooby_st_streaming 0

scooby_predict_called 2091403
scooby_predict_out_of_bounds 33460
scooby_predict_action_1 2055014
scooby_predict_issue_action_1 2045309
scooby_predict_hit_action_1 9705
scooby_predict_out_of_bounds_action_1 32815
scooby_predict_action_3 261
scooby_predict_issue_action_3 253
scooby_predict_hit_action_3 8
scooby_predict_out_of_bounds_action_3 11
scooby_predict_action_4 240
scooby_predict_issue_action_4 229
scooby_predict_hit_action_4 11
scooby_predict_out_of_bounds_action_4 24
scooby_predict_action_5 217
scooby_predict_issue_action_5 207
scooby_predict_hit_action_5 10
scooby_predict_out_of_bounds_action_5 23
scooby_predict_action_10 243
scooby_predict_issue_action_10 221
scooby_predict_hit_action_10 22
scooby_predict_out_of_bounds_action_10 44
scooby_predict_action_11 207
scooby_predict_issue_action_11 188
scooby_predict_hit_action_11 19
scooby_predict_out_of_bounds_action_11 46
scooby_predict_action_12 214
scooby_predict_issue_action_12 198
scooby_predict_hit_action_12 16
scooby_predict_out_of_bounds_action_12 41
scooby_predict_action_22 174
scooby_predict_issue_action_22 173
scooby_predict_hit_action_22 1
scooby_predict_out_of_bounds_action_22 92
scooby_predict_action_23 165
scooby_predict_issue_action_23 163
scooby_predict_hit_action_23 2
scooby_predict_out_of_bounds_action_23 96
scooby_predict_action_30 127
scooby_predict_issue_action_30 116
scooby_predict_hit_action_30 11
scooby_predict_out_of_bounds_action_30 118
scooby_predict_action_32 105
scooby_predict_issue_action_32 98
scooby_predict_hit_action_32 7
scooby_predict_out_of_bounds_action_32 106
scooby_predict_action_-1 250
scooby_predict_issue_action_-1 25
scooby_predict_hit_action_-1 225
scooby_predict_out_of_bounds_action_-1 7
scooby_predict_action_-3 242
scooby_predict_issue_action_-3 33
scooby_predict_hit_action_-3 209
scooby_predict_out_of_bounds_action_-3 17
scooby_predict_action_-6 224
scooby_predict_issue_action_-6 65
scooby_predict_hit_action_-6 159
scooby_predict_out_of_bounds_action_-6 20
scooby_predict_action_0 260
scooby_predict_issue_action_0 0
scooby_predict_hit_action_0 0
scooby_predict_out_of_bounds_action_0 0
scooby_predict_multi_deg_called 1953856
scooby_predict_predicted 10812619
scooby_predict_multi_deg 8765341
scooby_predict_multi_deg_2 1921222
scooby_predict_multi_deg_3 1833361
scooby_predict_multi_deg_4 1800559
scooby_predict_multi_deg_5 1621465
scooby_predict_multi_deg_6 1588734
scooby_predict_multi_deg_7 0
scooby_predict_multi_deg_8 0
scooby_predict_multi_deg_9 0
scooby_predict_multi_deg_10 0
scooby_predict_multi_deg_11 0
scooby_predict_multi_deg_12 0
scooby_predict_multi_deg_13 0
scooby_predict_multi_deg_14 0
scooby_predict_multi_deg_15 0
scooby_predict_multi_deg_16 0

scooby_selected_deg_1 93422
scooby_selected_deg_2 55259
scooby_selected_deg_3 0
scooby_selected_deg_4 146616
scooby_selected_deg_5 0
scooby_selected_deg_6 1751981
scooby_selected_deg_7 0
scooby_selected_deg_8 0
scooby_selected_deg_9 0
scooby_selected_deg_10 0
scooby_selected_deg_11 0
scooby_selected_deg_12 0
scooby_selected_deg_13 0
scooby_selected_deg_14 0
scooby_selected_deg_15 0
scooby_selected_deg_16 0

scooby_state_40f127|63|1 2202,0,1,3,1,0,1,1,1,0,0,0,0,0,0,2210,
scooby_state_40f127|6|1 2200,0,1,0,1,0,0,1,0,0,0,0,0,0,1,2204,
scooby_state_40f127|5|1 2199,0,0,0,0,0,0,0,1,1,0,0,0,0,0,2201,
scooby_state_40f127|2|1 2197,0,0,0,0,0,0,0,0,0,0,0,0,0,1,2198,
scooby_state_40f127|1|1 2196,0,0,0,0,0,0,0,0,0,0,0,0,1,0,2197,
scooby_state_40f127|32|1 2195,1,0,0,0,0,0,0,0,0,0,0,0,1,0,2197,
scooby_state_40f127|31|1 2192,1,0,0,0,0,0,0,1,0,0,0,0,1,1,2196,
scooby_state_40f127|14|1 2194,0,0,0,0,0,0,0,1,0,0,0,0,0,0,2195,
scooby_state_40f127|13|1 2187,1,0,0,1,3,1,0,0,0,0,0,1,0,0,2194,
scooby_state_40f127|24|1 2190,1,0,0,0,0,0,1,0,0,1,0,1,0,0,2194,
scooby_state_40f127|11|1 2190,0,0,0,1,1,1,0,0,0,0,0,0,0,0,2193,
scooby_state_40f127|10|1 2187,1,0,0,1,1,1,0,1,0,1,0,0,0,0,2193,
scooby_state_40f127|40|1 2191,0,0,0,0,0,0,0,0,0,0,1,1,0,0,2193,
scooby_state_40f127|28|1 2190,0,0,0,0,0,0,0,1,0,1,0,0,1,0,2193,
scooby_state_40f127|50|1 2190,1,0,0,0,0,0,0,0,0,0,0,0,0,1,2192,
scooby_state_40f127|26|1 2186,0,1,0,1,0,0,0,1,0,0,0,2,1,0,2192,
scooby_state_40f127|25|1 2191,0,0,0,0,0,0,0,0,0,0,1,0,0,0,2192,
scooby_state_40f127|51|1 2189,0,0,0,0,0,0,1,0,0,0,0,1,0,0,2191,
scooby_state_40f127|27|1 2183,3,0,0,0,0,2,0,0,0,0,1,0,1,1,2191,
scooby_state_40f127|38|1 2183,0,0,1,2,0,0,0,1,1,0,0,1,0,1,2190,
scooby_state_40f127|20|1 2188,0,0,0,1,0,0,0,0,0,0,0,0,1,0,2190,
scooby_state_40f127|62|1 2189,0,0,0,0,0,0,0,1,0,0,0,0,0,0,2190,
scooby_state_40f127|52|1 2188,0,0,1,0,0,0,0,0,0,0,1,0,0,0,2190,
scooby_state_40f127|21|1 2187,0,0,0,1,0,0,0,1,0,1,0,0,0,0,2190,
scooby_state_40f127|43|1 2189,0,0,0,0,0,0,0,0,0,0,0,0,1,0,2190,
scooby_state_40f127|29|1 2185,1,0,0,1,0,1,1,1,0,0,0,0,0,0,2190,
scooby_state_40f127|23|1 2183,0,0,0,0,1,0,0,1,0,0,2,2,0,1,2190,
scooby_state_40f127|16|1 2183,0,0,1,0,0,1,0,0,1,1,1,0,0,1,2189,
scooby_state_40f127|39|1 2185,0,1,1,0,2,0,0,0,0,0,0,0,0,0,2189,
scooby_state_40f127|12|1 2186,0,0,1,1,0,0,0,0,0,0,1,0,0,0,2189,
scooby_state_40f127|3|1 2185,0,0,1,0,1,0,0,0,0,1,0,0,0,1,2189,
scooby_state_40f127|49|1 2185,1,0,0,0,0,1,0,0,0,1,0,0,1,0,2189,
scooby_state_40f127|47|1 2188,0,0,0,0,0,0,0,1,0,0,0,0,0,0,2189,
scooby_state_40f127|54|1 2186,0,0,0,0,0,0,1,0,0,1,0,0,1,0,2189,
scooby_state_40f127|17|1 2188,0,0,0,0,0,0,1,0,0,0,0,0,0,0,2189,
scooby_state_40f127|33|1 2185,0,0,0,1,0,0,0,0,0,0,2,1,0,0,2189,
scooby_state_40f127|36|1 2184,0,0,0,1,1,0,0,0,1,0,1,1,0,0,2189,
scooby_state_40f127|53|1 2187,1,0,0,0,1,0,0,0,0,0,0,0,0,0,2189,
scooby_state_40f127|15|1 2187,0,1,0,0,0,1,0,0,0,0,0,0,0,0,2189,
scooby_state_40f127|34|1 2184,0,0,0,0,0,1,0,0,1,0,0,1,0,2,2189,
scooby_state_40f127|44|1 2185,0,0,0,1,0,0,0,1,1,0,0,1,0,0,2189,
scooby_state_40f127|22|1 2185,0,0,0,0,0,1,0,0,2,0,0,0,0,1,2189,
scooby_state_40f127|18|1 2188,0,0,0,0,0,0,0,0,0,0,0,0,0,0,2188,
scooby_state_40f127|45|1 2185,0,0,0,0,1,0,0,0,0,0,0,0,2,0,2188,
scooby_state_40f127|42|1 2180,1,1,0,0,0,0,0,2,1,1,0,1,0,1,2188,
scooby_state_40f127|60|1 2181,0,1,0,0,0,1,2,0,0,1,0,0,1,1,2188,
scooby_state_40f127|48|1 2184,0,0,0,1,1,0,0,0,0,0,1,0,0,1,2188,
scooby_state_40f127|35|1 2186,0,0,0,0,0,0,0,0,1,1,0,0,0,0,2188,
scooby_state_40f127|9|1 2185,0,1,1,0,0,0,0,0,0,0,0,1,0,0,2188,
scooby_state_40f127|59|1 2182,0,1,0,0,1,1,1,0,0,0,1,0,0,0,2187,
scooby_state_40f127|37|1 2184,0,0,1,0,0,1,0,0,0,0,0,0,0,1,2187,
scooby_state_40f127|55|1 2181,0,1,1,0,0,1,0,1,0,0,0,1,0,0,2186,
scooby_state_40f127|30|1 2183,1,1,0,0,0,0,0,1,0,0,0,0,0,0,2186,
scooby_state_40f127|46|1 2186,0,0,0,0,0,0,0,0,0,0,0,0,0,0,2186,
scooby_state_40f127|0|0 2181,0,0,0,1,0,0,0,0,0,0,0,1,2,0,2185,
scooby_state_40f127|19|1 2181,0,0,0,0,0,0,0,1,0,1,1,1,0,0,2185,
scooby_state_40f127|56|1 2181,1,0,0,0,0,0,0,0,0,0,0,1,1,1,2185,
scooby_state_40f127|58|1 2181,0,0,1,0,0,0,0,1,1,0,0,0,1,0,2185,
scooby_state_40f127|4|1 2181,0,0,0,0,0,0,1,1,0,0,1,0,0,0,2184,
scooby_state_40f127|41|1 2182,0,0,0,0,0,1,0,0,1,0,0,0,0,0,2184,
scooby_state_40f127|61|1 2180,0,0,1,1,0,0,0,0,0,0,0,0,1,1,2184,
scooby_state_40f127|8|1 2179,0,0,0,1,1,0,1,1,0,0,0,1,0,0,2184,
scooby_state_40f105|0|0 2177,0,0,0,0,1,0,1,0,1,2,0,2,0,0,2184,
scooby_state_40f105|60|1 2181,0,1,0,0,0,0,0,0,0,1,0,0,0,0,2183,
scooby_state_40f105|63|1 2179,0,0,0,0,0,0,0,0,1,0,1,1,1,0,2183,
scooby_state_40f105|54|1 2179,0,1,0,0,0,0,0,1,1,0,0,0,0,1,2183,
scooby_state_40f10e|29|1 2181,0,0,0,1,0,0,0,0,0,1,0,0,0,0,2183,
scooby_state_40f105|2|1 2180,0,0,1,1,0,0,0,1,0,0,0,0,0,0,2183,
scooby_state_40f105|18|1 2180,1,0,1,1,0,0,0,0,0,0,0,0,0,0,2183,
scooby_state_40f105|1|1 2179,0,1,1,0,0,0,0,0,0,1,0,1,0,0,2183,
scooby_state_40f105|6|1 2181,0,0,0,1,0,0,0,0,0,0,1,0,0,0,2183,
scooby_state_40f10e|28|1 2178,0,0,0,0,3,0,0,0,0,0,0,1,0,1,2183,
scooby_state_40f127|57|1 2177,0,1,1,0,2,0,0,0,0,0,2,0,0,0,2183,
scooby_state_40f10e|32|1 2181,0,0,0,0,0,0,0,1,0,0,0,1,0,0,2183,
scooby_state_40f105|53|1 2180,0,0,0,0,1,0,0,1,0,0,0,0,0,0,2182,
scooby_state_40f105|61|1 2178,0,0,0,0,0,1,0,0,0,0,2,0,1,0,2182,
scooby_state_40f105|55|1 2176,0,0,2,1,1,0,1,0,0,0,1,0,0,0,2182,
scooby_state_40f10e|27|1 2182,0,0,0,0,0,0,0,0,0,0,0,0,0,0,2182,
scooby_state_40f105|8|1 2175,0,1,0,2,0,0,0,1,0,0,0,0,2,1,2182,
scooby_state_40f105|50|1 2176,1,0,0,1,2,1,0,0,0,0,0,1,0,0,2182,
scooby_state_40f10e|54|1 2181,0,0,0,0,1,0,0,0,0,0,0,0,0,0,2182,
scooby_state_40f105|11|1 2178,0,1,1,0,0,0,0,0,2,0,0,0,0,0,2182,
scooby_state_40f10e|18|1 2180,0,0,0,0,1,0,1,0,0,0,0,0,0,0,2182,
scooby_state_40f10e|31|1 2180,0,0,0,0,0,0,0,0,0,1,0,0,1,0,2182,
scooby_state_40f105|9|1 2179,0,0,0,0,0,0,1,1,1,0,0,0,0,0,2182,
scooby_state_40f105|28|1 2177,0,0,1,0,0,1,0,2,0,0,1,0,0,0,2182,
scooby_state_40f10e|19|1 2178,0,0,0,1,0,0,0,0,2,0,0,1,0,0,2182,
scooby_state_40f10e|22|1 2175,0,1,1,0,2,0,0,0,1,0,0,1,1,0,2182,
scooby_state_40f10e|33|1 2180,0,1,0,1,0,0,0,0,0,0,0,0,0,0,2182,
scooby_state_40f10e|50|1 2181,0,0,0,0,0,0,0,0,1,0,0,0,0,0,2182,
scooby_state_40f105|19|1 2180,0,0,0,1,0,0,0,0,0,0,0,1,0,0,2182,
scooby_state_40f105|7|1 2177,0,1,1,0,1,0,0,0,0,0,0,1,0,1,2182,
scooby_state_40f10e|17|1 2180,1,0,0,0,0,0,0,0,0,0,1,0,0,0,2182,
scooby_state_40f105|17|1 2179,0,1,0,0,0,0,0,0,1,0,0,0,1,0,2182,
scooby_state_40f10e|16|1 2180,0,1,0,0,0,0,0,0,0,0,0,1,0,0,2182,
scooby_state_40f105|12|1 2181,0,0,0,0,0,0,0,0,0,1,0,0,0,0,2182,
scooby_state_40f10e|51|1 2180,0,0,1,0,0,1,0,0,0,0,0,0,0,0,2182,
scooby_state_40f10e|30|1 2177,0,0,0,2,0,0,0,1,0,0,1,0,1,0,2182,
scooby_state_40f105|62|1 2180,0,0,0,0,1,0,0,1,0,0,0,0,0,0,2182,
scooby_state_40f105|16|1 2177,0,1,0,0,0,0,2,1,0,0,0,0,1,0,2182,
scooby_state_40f105|10|1 2177,0,1,0,0,1,0,2,1,0,0,0,0,0,0,2182,
scooby_state_40f105|52|1 2177,0,0,0,1,0,1,0,1,0,0,0,1,0,0,2181,
scooby_state_40f10e|0|0 2176,0,0,1,0,0,0,1,0,0,0,1,1,1,0,2181,
scooby_state_40f10e|6|1 2176,0,0,1,0,0,0,2,0,2,0,0,0,0,0,2181,
scooby_state_40f105|21|1 2180,0,0,0,0,0,0,0,0,0,0,0,1,0,0,2181,
scooby_state_40f105|51|1 2176,0,0,1,0,0,0,1,0,0,0,2,0,0,1,2181,
scooby_state_40f10e|26|1 2174,0,0,0,0,0,2,1,0,0,1,1,1,1,0,2181,
scooby_state_40f10e|52|1 2174,0,0,0,0,1,1,3,0,0,0,0,0,1,1,2181,
scooby_state_40f10e|23|1 2177,0,0,0,0,0,0,0,1,0,0,1,1,0,1,2181,
scooby_state_40f105|22|1 2175,1,0,3,0,1,0,0,0,0,1,0,0,0,0,2181,
scooby_state_40f105|59|1 2178,0,1,1,0,1,0,0,0,0,0,0,0,0,0,2181,
scooby_state_40f10e|7|1 2180,0,0,0,0,1,0,0,0,0,0,0,0,0,0,2181,
scooby_state_40f10e|60|1 2179,0,0,0,0,1,0,1,0,0,0,0,0,0,0,2181,
scooby_state_40f10e|55|1 2175,0,0,0,1,3,0,1,0,0,0,0,0,0,1,2181,
scooby_state_40f105|29|1 2177,0,0,1,1,0,0,2,0,0,0,0,0,0,0,2181,
scooby_state_40f10e|61|1 2176,0,0,0,0,1,0,0,1,0,1,0,0,2,0,2181,
scooby_state_40f10e|20|1 2177,0,0,1,0,1,1,0,0,1,0,0,0,0,0,2181,
scooby_state_40f10e|12|1 2178,1,0,0,0,1,0,0,0,0,0,0,0,0,1,2181,
scooby_state_40f105|20|1 2179,0,0,0,0,0,1,0,0,0,1,0,0,0,0,2181,
scooby_state_40f10e|53|1 2178,0,1,0,0,0,0,0,0,1,0,0,1,0,0,2181,
scooby_state_40f105|56|1 2178,0,0,0,1,0,0,1,0,0,0,0,0,1,0,2181,
scooby_state_40f105|5|1 2181,0,0,0,0,0,0,0,0,0,0,0,0,0,0,2181,
scooby_state_40f105|27|1 2181,0,0,0,0,0,0,0,0,0,0,0,0,0,0,2181,
scooby_state_40f10e|21|1 2179,0,1,0,0,0,0,0,0,0,1,0,0,0,0,2181,
scooby_state_40f10e|34|1 2175,0,0,0,0,1,0,0,0,1,0,2,0,2,0,2181,
scooby_state_40f105|49|1 2179,0,1,0,0,0,0,0,1,0,0,0,0,0,0,2181,
scooby_state_40f105|48|1 2178,0,0,0,0,0,1,0,0,0,0,1,0,0,0,2180,
scooby_state_40f10e|10|1 2175,1,0,0,0,0,0,1,0,0,0,1,1,0,1,2180,
scooby_state_40f10e|11|1 2175,0,0,1,0,1,0,1,0,0,0,0,2,0,0,2180,
scooby_state_40f10e|1|1 2177,1,0,0,0,0,0,1,0,0,0,1,0,0,0,2180,
scooby_state_40f10e|39|1 2178,0,0,0,0,0,0,0,0,0,1,1,0,0,0,2180,
scooby_state_40f10e|44|1 2173,0,0,0,2,1,0,3,0,1,0,0,0,0,0,2180,
scooby_state_40f10e|62|1 2178,0,0,0,0,0,0,1,0,0,1,0,0,0,0,2180,
scooby_state_40f10e|13|1 2175,1,1,0,2,0,0,0,0,0,0,1,0,0,0,2180,
scooby_state_40f10e|49|1 2177,1,0,0,0,0,0,0,0,0,1,0,1,0,0,2180,
scooby_state_40f10e|56|1 2178,0,0,0,0,0,0,0,0,0,0,0,0,2,0,2180,
scooby_state_40f127|7|1 2175,0,1,0,2,0,0,1,0,0,0,1,0,0,0,2180,
scooby_state_40f10e|2|1 2177,0,1,0,1,0,1,0,0,0,0,0,0,0,0,2180,
scooby_state_40f105|32|1 2179,0,1,0,0,0,0,0,0,0,0,0,0,0,0,2180,
scooby_state_40f10e|63|1 2175,0,2,0,0,0,0,1,0,1,1,0,0,0,0,2180,
scooby_state_40f105|30|1 2177,0,1,1,0,0,0,0,0,0,0,0,0,1,0,2180,
scooby_state_40f10e|9|1 2176,0,0,1,0,1,0,1,1,0,0,0,0,0,0,2180,
scooby_state_40f10e|35|1 2177,0,0,0,1,0,0,0,1,0,1,0,0,0,0,2180,
scooby_state_40f105|31|1 2176,0,0,0,0,1,0,0,1,0,0,0,0,1,1,2180,
scooby_state_40f10e|8|1 2174,0,0,1,0,0,1,0,2,0,0,0,1,1,0,2180,
scooby_state_40f10e|38|1 2179,0,0,0,0,0,0,0,0,0,0,0,0,0,1,2180,
scooby_state_40f105|26|1 2175,0,0,0,0,0,0,1,1,1,1,0,0,0,1,2180,
scooby_state_40f105|3|1 2178,2,0,0,0,0,0,0,0,0,0,0,0,0,0,2180,
scooby_state_40f105|15|1 2178,0,0,0,1,0,1,0,0,0,0,0,0,0,0,2180,
scooby_state_40f10e|36|1 2173,0,0,0,0,0,1,1,0,0,1,1,0,1,1,2179,
scooby_state_40f10e|15|1 2176,0,0,0,0,0,0,0,0,1,1,0,0,1,0,2179,
scooby_state_40f10e|25|1 2177,0,0,1,0,0,0,0,1,0,0,0,0,0,0,2179,
scooby_state_40f10e|3|1 2176,0,0,0,0,0,0,0,0,0,0,2,1,0,0,2179,
scooby_state_40f105|58|1 2175,1,0,0,0,0,1,0,0,0,0,1,1,0,0,2179,
scooby_state_40f105|44|1 2178,0,0,0,0,0,0,0,0,0,0,0,0,0,1,2179,
scooby_state_40f105|47|1 2173,1,0,0,1,1,1,0,0,1,0,0,1,0,0,2179,
scooby_state_40f105|57|1 2173,0,1,0,1,0,0,1,0,1,0,1,0,0,1,2179,
scooby_state_40f105|4|1 2174,1,1,0,0,0,0,0,1,0,0,0,1,0,1,2179,
scooby_state_40f10e|40|1 2175,2,0,0,0,0,0,1,1,0,0,0,0,0,0,2179,
scooby_state_40f105|13|1 2171,0,1,1,1,1,0,0,0,2,0,0,1,1,0,2179,
scooby_state_40f10e|45|1 2174,2,0,0,1,0,0,0,0,0,0,0,2,0,0,2179,
scooby_state_40f105|38|1 2174,0,0,0,0,0,1,0,1,0,0,1,1,0,1,2179,
scooby_state_40f10e|37|1 2177,0,1,0,0,0,0,0,0,0,0,0,0,0,1,2179,
scooby_state_40f10e|43|1 2175,1,0,0,0,0,0,0,1,0,1,0,0,0,1,2179,
scooby_state_40f10e|48|1 2178,0,0,0,0,0,0,0,0,1,0,0,0,0,0,2179,
scooby_state_40f10e|24|1 2174,0,0,0,0,1,0,0,1,0,0,0,0,1,2,2179,
scooby_state_40f10e|59|1 2177,0,0,0,0,0,0,0,0,1,0,0,0,0,0,2178,
scooby_state_40f10e|41|1 2174,0,1,1,0,0,1,0,0,0,0,0,1,0,0,2178,
scooby_state_40f10e|14|1 2174,1,0,1,0,0,1,0,0,0,0,1,0,0,0,2178,
scooby_state_40f10e|57|1 2174,0,0,0,0,0,0,2,0,0,0,0,1,0,1,2178,
scooby_state_40f105|25|1 2173,0,0,0,0,0,0,0,1,3,0,0,1,0,0,2178,
scooby_state_40f10e|47|1 2175,1,0,0,0,0,0,0,1,0,0,0,1,0,0,2178,
scooby_state_40f105|39|1 2175,0,1,0,0,0,1,0,0,0,0,0,0,0,1,2178,
scooby_state_40f10e|5|1 2177,0,0,0,0,0,1,0,0,0,0,0,0,0,0,2178,
scooby_state_40f105|45|1 2174,0,0,0,0,1,0,0,0,0,0,2,1,0,0,2178,
scooby_state_40f105|23|1 2177,0,0,0,0,0,0,0,0,0,0,0,0,0,1,2178,
scooby_state_40f105|46|1 2176,0,0,0,0,0,0,0,0,0,1,0,0,1,0,2178,
scooby_state_40f10e|42|1 2172,2,0,0,1,2,0,0,0,0,0,0,0,1,0,2178,
scooby_state_40f10e|46|1 2178,0,0,0,0,0,0,0,0,0,0,0,0,0,0,2178,
scooby_state_40f105|33|1 2174,0,3,0,0,0,0,0,0,0,1,0,0,0,0,2178,
scooby_state_40f105|43|1 2175,0,1,1,0,0,0,0,0,0,0,0,0,1,0,2178,
scooby_state_40f105|34|1 2176,0,0,0,0,1,0,0,0,0,0,0,0,0,1,2178,
scooby_state_40f105|14|1 2172,1,1,0,0,1,0,0,0,1,0,1,1,0,0,2178,
scooby_state_40f105|37|1 2174,0,1,0,1,0,0,1,0,0,0,1,0,0,0,2178,
scooby_state_40f10e|4|1 2174,0,0,0,0,0,0,0,0,1,1,1,0,0,0,2177,
scooby_state_40f10e|58|1 2175,2,0,0,0,0,0,0,0,0,0,0,0,0,0,2177,
scooby_state_40f105|42|1 2174,0,0,0,0,0,0,0,0,1,0,0,1,1,0,2177,
scooby_state_40f105|40|1 2174,0,0,0,0,0,1,1,0,0,0,0,0,0,1,2177,
scooby_state_40f105|35|1 2169,0,1,1,0,2,0,0,0,0,0,1,0,2,1,2177,
scooby_state_40f105|36|1 2175,1,0,0,0,0,0,0,0,0,1,0,0,0,0,2177,
scooby_state_40f105|24|1 2172,0,1,0,1,0,1,1,0,0,0,0,1,0,0,2177,
scooby_state_40f105|41|1 2174,0,0,0,0,0,0,1,0,0,0,1,0,0,0,2176,
scooby_state_419760|19|1 1945,2,1,0,0,0,0,1,0,0,0,0,0,0,0,1949,
scooby_state_419760|18|1 1946,0,0,0,1,0,0,0,0,0,0,0,0,1,1,1949,
scooby_state_419760|21|1 1946,0,0,0,0,1,0,0,1,0,0,0,0,0,0,1948,
scooby_state_419760|20|1 1947,0,0,0,0,1,0,0,0,0,0,0,0,0,0,1948,
scooby_state_419760|22|1 1945,0,0,0,0,0,0,1,0,1,0,0,0,0,1,1948,
scooby_state_419760|28|1 1946,0,0,0,0,0,0,0,1,0,0,0,0,0,0,1947,
scooby_state_419760|17|1 1944,0,0,0,0,1,0,0,0,0,0,0,2,0,0,1947,
scooby_state_419760|29|1 1942,0,1,0,2,0,1,0,1,0,0,0,0,0,0,1947,
scooby_state_419760|31|1 1944,0,0,0,0,0,0,0,0,0,0,1,0,0,1,1946,
scooby_state_419760|27|1 1944,0,1,0,0,0,0,0,0,0,0,0,0,0,0,1945,
scooby_state_419760|32|1 1945,0,0,0,0,0,0,0,0,0,0,0,0,0,0,1945,
scooby_state_419760|16|1 1942,0,0,0,0,0,0,0,0,2,0,0,0,0,1,1945,
scooby_state_419760|33|1 1943,0,0,1,0,0,1,0,0,0,0,0,0,0,0,1945,
scooby_state_419760|23|1 1942,0,0,1,0,0,0,0,0,1,0,0,0,1,0,1945,
scooby_state_419760|30|1 1942,0,0,0,0,1,0,0,0,0,0,0,1,0,0,1944,
scooby_state_419760|34|1 1937,0,0,1,0,0,1,1,0,1,0,0,0,2,0,1943,
scooby_state_419760|38|1 1935,0,0,1,0,1,1,3,0,0,0,1,0,0,1,1943,
scooby_state_419760|15|1 1936,0,1,0,0,0,0,0,0,1,0,0,3,1,0,1942,
scooby_state_419760|12|1 1938,1,0,0,2,0,0,0,0,1,0,0,0,0,0,1942,
scooby_state_419760|35|1 1941,0,0,0,0,0,1,0,0,0,0,0,0,0,0,1942,
scooby_state_419760|37|1 1935,2,1,0,1,0,1,1,0,0,0,0,0,0,0,1941,
scooby_state_419760|39|1 1935,0,0,0,0,0,1,0,0,1,0,0,1,1,2,1941,
scooby_state_419760|24|1 1937,0,0,0,0,0,1,0,0,1,0,1,0,1,0,1941,
scooby_state_419760|13|1 1939,0,0,0,0,0,0,1,0,0,0,0,0,0,1,1941,
scooby_state_419760|26|1 1935,2,1,0,0,0,1,0,1,1,0,0,0,0,0,1941,
scooby_state_419760|36|1 1938,0,0,0,0,0,1,0,0,1,0,0,0,0,0,1940,
scooby_state_419760|11|1 1935,1,0,0,0,0,0,1,1,0,0,1,0,1,0,1940,
scooby_state_419760|14|1 1932,0,3,0,0,1,1,0,0,1,0,0,1,0,1,1940,
scooby_state_419760|25|1 1936,0,0,0,0,0,0,1,0,1,0,1,0,0,0,1939,
scooby_state_419760|40|1 1933,0,1,0,1,0,1,0,0,0,0,0,1,0,0,1937,
scooby_state_419760|10|1 1936,0,0,0,0,0,0,0,0,0,0,0,0,0,0,1936,
scooby_state_419760|41|1 1929,0,0,0,0,0,0,0,0,0,0,1,1,0,2,1933,
scooby_state_419760|9|1 1930,1,0,0,0,0,0,0,0,0,0,0,0,2,0,1933,
scooby_state_419760|7|1 1928,0,0,1,1,0,2,0,0,0,0,0,0,0,0,1932,
scooby_state_419760|8|1 1928,1,0,0,0,1,1,0,0,0,0,1,0,0,0,1932,
scooby_state_419760|6|1 1930,0,0,0,0,0,0,0,1,0,0,0,0,0,0,1931,
scooby_state_419760|43|1 1927,0,1,0,0,0,0,1,0,0,0,1,0,0,1,1931,
scooby_state_419760|42|1 1927,0,0,0,0,0,0,0,0,0,0,2,0,0,2,1931,
scooby_state_419760|44|1 1925,0,0,1,1,2,1,0,0,0,0,0,0,0,0,1930,
scooby_state_419760|60|1 1927,0,0,0,0,0,0,0,0,1,0,0,0,0,1,1929,
scooby_state_419760|48|1 1929,0,0,0,0,0,0,0,0,0,0,0,0,0,0,1929,
scooby_state_419760|49|1 1925,1,0,0,0,0,0,1,1,0,0,0,0,1,0,1929,
scooby_state_419760|50|1 1926,1,0,0,1,0,0,0,0,0,0,0,1,0,0,1929,
scooby_state_419760|51|1 1926,0,1,0,0,0,0,0,0,1,0,0,0,0,0,1928,
scooby_state_419760|45|1 1925,0,0,1,0,0,0,0,0,1,0,1,0,0,0,1928,
scooby_state_419760|0|0 1924,1,0,1,0,0,0,0,1,0,0,0,0,0,1,1928,
scooby_state_419760|5|1 1923,0,1,0,0,0,1,2,0,0,0,0,0,0,1,1928,
scooby_state_419760|59|1 1922,0,0,1,3,0,0,0,0,0,1,0,0,0,1,1928,
scooby_state_419760|55|1 1926,0,0,0,0,1,0,1,0,0,0,0,0,0,0,1928,
scooby_state_419760|54|1 1926,1,0,0,0,0,0,0,1,0,0,0,0,0,0,1928,
scooby_state_419760|61|1 1923,0,1,0,1,0,1,0,0,0,1,0,0,1,0,1928,
scooby_state_419760|47|1 1925,0,0,0,1,0,1,0,0,0,0,0,0,0,0,1927,
scooby_state_419760|1|1 1925,0,0,0,0,0,0,1,1,0,0,0,0,0,0,1927,
scooby_state_419760|2|1 1923,0,2,0,0,0,0,0,0,1,1,0,0,0,0,1927,
scooby_state_419760|53|1 1925,0,0,1,1,0,0,0,0,0,0,0,0,0,0,1927,
scooby_state_419760|63|1 1917,2,1,0,0,1,0,0,0,0,1,1,2,0,1,1926,
scooby_state_419760|58|1 1921,0,0,0,0,0,0,1,2,1,0,0,0,0,1,1926,
scooby_state_419760|4|1 1926,0,0,0,0,0,0,0,0,0,0,0,0,0,0,1926,
scooby_state_419760|52|1 1921,0,1,0,0,1,1,1,0,0,0,1,0,0,0,1926,
scooby_state_419760|46|1 1925,0,0,0,0,1,0,0,0,0,0,0,0,0,0,1926,
scooby_state_419760|3|1 1922,0,0,0,0,0,2,0,0,1,0,0,0,0,1,1926,
scooby_state_419760|56|1 1925,0,1,0,0,0,0,0,0,0,0,0,0,0,0,1926,
scooby_state_419760|57|1 1923,1,0,0,0,1,0,0,0,0,0,0,0,0,0,1925,
scooby_state_419760|62|1 1919,0,0,0,0,0,2,1,0,0,0,0,0,2,1,1925,
scooby_state_419750|8|1 1844,0,0,1,0,0,0,0,0,0,1,1,1,0,0,1848,
scooby_state_419750|5|1 1843,2,0,0,0,0,1,0,0,0,1,0,0,0,1,1848,
scooby_state_419750|28|1 1845,0,0,0,0,0,1,0,0,0,0,2,0,0,0,1848,
scooby_state_419750|51|1 1846,0,0,0,0,0,0,1,0,0,0,1,0,0,0,1848,
scooby_state_419750|12|1 1844,0,1,0,0,0,1,0,0,1,0,1,0,0,0,1848,
scooby_state_419750|10|1 1844,0,1,0,1,0,0,0,0,1,0,0,0,1,0,1848,
scooby_state_419750|46|1 1845,0,1,0,0,0,0,0,1,0,0,1,0,0,0,1848,
scooby_state_419750|9|1 1848,0,0,0,0,0,0,0,0,0,0,0,0,0,0,1848,
scooby_state_419750|13|1 1843,0,0,0,0,1,0,0,1,0,0,0,0,1,2,1848,
scooby_state_419750|6|1 1846,0,1,0,0,0,0,0,0,0,0,0,0,1,0,1848,
scooby_state_417b11|17|1 1843,0,0,0,0,0,0,0,1,0,0,1,0,0,0,1845,
scooby_state_417b11|18|1 1844,0,0,0,0,0,0,0,1,0,0,0,0,0,0,1845,
scooby_state_417b11|16|1 1839,1,0,0,0,1,1,0,1,1,0,0,0,0,0,1844,
scooby_state_417b11|19|1 1839,0,0,0,0,0,1,0,0,0,1,0,0,1,1,1843,
scooby_state_417b11|15|1 1838,0,0,0,1,0,0,0,0,0,1,0,1,0,1,1842,
scooby_state_417b11|20|1 1836,1,0,0,0,0,0,0,0,0,1,0,1,1,1,1841,
scooby_state_417b11|21|1 1836,0,1,0,1,0,0,0,0,0,1,0,0,0,1,1840,
scooby_state_417b11|22|1 1837,0,0,1,0,0,0,0,0,0,0,1,0,0,0,1839,
scooby_state_417b11|14|1 1839,0,0,0,0,0,0,0,0,0,0,0,0,0,0,1839,
scooby_state_417b11|13|1 1837,0,0,0,0,0,0,0,0,0,0,1,0,0,0,1838,
scooby_state_417b11|23|1 1834,0,0,0,1,0,1,0,0,0,0,0,0,1,0,1837,
scooby_state_417b11|12|1 1832,0,1,1,0,0,0,2,0,0,0,1,0,0,0,1837,
scooby_state_419750|2|1 1833,0,0,0,0,0,0,1,0,0,0,0,0,0,0,1834,
scooby_state_419750|25|1 1833,0,0,0,0,0,0,0,0,0,0,0,0,0,1,1834,
scooby_state_419750|23|1 1832,0,0,0,0,0,1,0,0,0,0,0,0,0,1,1834,
scooby_state_419750|50|1 1830,0,0,0,1,0,1,0,0,1,0,1,0,0,0,1834,
scooby_state_419750|31|1 1832,0,0,1,0,0,0,0,1,0,0,0,0,0,0,1834,
scooby_state_419750|43|1 1833,0,0,1,0,0,0,0,0,0,0,0,0,0,0,1834,
scooby_state_419750|47|1 1831,1,0,0,1,0,0,0,0,0,0,0,1,0,0,1834,
scooby_state_419750|1|1 1830,0,0,1,0,0,0,0,0,1,1,1,0,0,0,1834,
scooby_state_419750|54|1 1833,0,1,0,0,0,0,0,0,0,0,0,0,0,0,1834,
scooby_state_419750|21|1 1830,0,1,1,0,0,0,0,0,1,1,0,0,0,0,1834,
scooby_state_419750|7|1 1830,0,0,0,0,2,0,0,1,0,0,1,0,0,0,1834,
scooby_state_419750|24|1 1827,2,0,1,0,1,0,1,1,0,0,0,0,1,0,1834,
scooby_state_419750|27|1 1832,0,0,0,0,0,0,0,0,0,0,1,0,1,0,1834,
scooby_state_417b11|11|1 1833,0,0,0,0,0,0,0,0,0,1,0,0,0,0,1834,
scooby_state_419750|11|1 1832,0,1,0,0,0,0,1,0,0,0,0,0,0,0,1834,
scooby_state_419750|20|1 1828,0,2,0,0,0,0,2,0,1,0,0,1,0,0,1834,
scooby_state_417b11|24|1 1826,1,0,0,1,0,0,1,1,0,0,0,1,1,1,1833,
scooby_state_417b11|28|1 1826,1,0,0,0,1,2,0,0,1,0,0,1,0,0,1832,
scooby_state_417b11|39|1 1827,0,0,0,0,0,0,0,0,0,0,0,1,1,1,1830,
scooby_state_417b11|29|1 1827,0,0,0,0,0,0,1,1,0,0,0,0,0,1,1830,
scooby_state_417b11|7|1 1828,0,0,0,0,1,0,0,1,0,0,0,0,0,0,1830,
scooby_state_417b11|27|1 1829,0,0,0,0,0,0,0,0,0,0,0,0,0,1,1830,
scooby_state_417b11|25|1 1829,0,0,0,0,0,0,0,0,0,0,0,0,0,0,1829,
scooby_state_417b11|8|1 1828,0,0,0,0,0,1,0,0,0,0,0,0,0,0,1829,
scooby_state_417b11|10|1 1821,0,1,0,0,1,0,1,0,1,0,0,1,2,1,1829,
scooby_state_417b11|49|1 1823,1,0,0,1,0,0,0,2,0,0,1,0,1,0,1829,
scooby_state_417b11|38|1 1826,0,0,0,0,1,0,0,1,0,0,0,1,0,0,1829,
scooby_state_417b11|6|1 1826,1,0,0,0,0,0,0,0,0,0,0,1,1,0,1829,
scooby_state_417b11|59|1 1824,0,0,1,0,0,0,0,2,0,0,1,0,0,0,1828,
scooby_state_417b11|48|1 1827,0,0,0,0,0,1,0,0,0,0,0,0,0,0,1828,
scooby_state_417b11|50|1 1824,1,0,0,0,1,0,0,0,0,0,0,0,0,2,1828,
scooby_state_417b11|26|1 1824,1,0,0,2,0,0,0,1,0,0,0,0,0,0,1828,
scooby_state_417b11|60|1 1825,0,0,0,0,2,0,0,0,0,1,0,0,0,0,1828,
scooby_state_417b11|30|1 1824,0,1,0,0,1,0,1,0,0,0,0,1,0,0,1828,
scooby_state_417b11|40|1 1823,0,0,0,1,1,1,0,0,0,0,0,0,1,1,1828,
scooby_state_417b11|5|1 1826,0,0,0,0,1,0,0,0,0,0,0,0,0,0,1827,
scooby_state_417b11|9|1 1824,0,0,0,1,0,0,0,0,0,0,1,0,1,0,1827,
scooby_state_417b11|31|1 1823,1,1,0,0,0,0,1,1,0,0,0,0,0,0,1827,
scooby_state_417b11|61|1 1822,0,0,0,1,0,0,0,0,0,0,1,1,1,0,1826,
scooby_state_417b11|51|1 1823,1,0,0,0,1,0,0,0,0,0,1,0,0,0,1826,
scooby_state_417b11|32|1 1823,0,0,0,0,0,0,0,2,0,1,0,0,0,0,1826,
scooby_state_417b11|41|1 1823,1,0,0,0,0,0,0,0,0,0,1,0,0,0,1825,
scooby_state_417b11|58|1 1824,0,1,0,0,0,0,0,0,0,0,0,0,0,0,1825,
scooby_state_417b11|37|1 1816,1,0,0,0,0,0,2,2,2,0,2,0,0,0,1825,
scooby_state_417b11|4|1 1821,0,0,0,1,0,0,0,1,0,1,0,0,1,0,1825,
scooby_state_417b11|47|1 1822,1,0,0,0,0,0,0,0,1,0,0,0,0,0,1824,
scooby_state_417b11|33|1 1822,0,1,0,0,0,0,0,0,0,0,0,0,0,1,1824,
scooby_state_417b11|3|1 1819,1,0,1,1,0,0,0,0,0,0,1,0,0,0,1823,
scooby_state_417b11|35|1 1820,0,0,0,0,0,0,0,0,1,0,0,0,0,1,1822,
scooby_state_417b11|56|1 1821,0,0,0,1,0,0,0,0,0,0,0,0,0,0,1822,
scooby_state_417b11|62|1 1820,0,0,0,1,0,1,0,0,0,0,0,0,0,0,1822,
scooby_state_417b11|43|1 1818,1,0,0,0,1,1,0,1,0,0,0,0,0,0,1822,
scooby_state_417b11|34|1 1820,0,0,1,0,0,0,1,0,0,0,0,0,0,0,1822,
scooby_state_417b11|2|1 1818,1,0,1,1,0,0,0,0,0,1,0,0,0,0,1822,
scooby_state_417b11|36|1 1822,0,0,0,0,0,0,0,0,0,0,0,0,0,0,1822,
scooby_state_417b11|57|1 1821,0,0,0,0,0,0,1,0,0,0,0,0,0,0,1822,
scooby_state_417b11|42|1 1820,0,0,0,0,0,0,1,0,0,0,1,0,0,0,1822,
scooby_state_417b11|55|1 1821,0,0,0,0,0,0,0,0,0,0,1,0,0,0,1822,
scooby_state_417b11|52|1 1820,0,0,1,0,0,0,1,0,0,0,0,0,0,0,1822,
scooby_state_417b11|46|1 1818,0,0,0,0,1,0,0,1,0,0,0,0,0,1,1821,
scooby_state_417b11|1|1 1818,0,0,0,0,0,1,1,0,0,0,0,1,0,0,1821,
scooby_state_417b11|63|1 1817,0,0,1,0,0,0,1,0,0,1,0,1,0,0,1821,
scooby_state_417b11|54|1 1815,1,0,1,2,0,1,0,0,0,0,0,0,0,1,1821,
scooby_state_417b11|44|1 1818,0,1,0,0,0,0,1,0,0,1,0,0,0,0,1821,
scooby_state_417b11|53|1 1816,1,0,0,0,0,0,1,0,1,0,0,1,0,1,1821,
scooby_state_417b11|0|0 1818,0,0,0,0,0,0,1,0,0,0,1,1,0,0,1821,
scooby_state_417b11|45|1 1817,0,0,0,0,0,1,2,0,0,1,0,0,0,0,1821,
scooby_state_419750|32|1 1820,0,0,0,0,0,0,0,0,0,0,0,0,0,0,1820,
scooby_state_419750|39|1 1820,0,0,0,0,0,0,0,0,0,0,0,0,0,0,1820,
scooby_state_419750|29|1 1819,0,0,0,0,0,1,0,0,0,0,0,0,0,0,1820,
scooby_state_419750|40|1 1815,0,0,0,0,0,0,1,0,2,1,0,0,1,0,1820,
scooby_state_419750|62|1 1819,0,0,1,0,0,0,0,0,0,0,0,0,0,0,1820,
scooby_state_419750|35|1 1816,0,1,0,0,0,1,1,0,0,0,0,0,1,0,1820,
scooby_state_419750|53|1 1817,0,0,1,0,0,0,1,0,0,0,1,0,0,0,1820,
scooby_state_419750|30|1 1816,0,0,0,1,0,0,1,0,1,0,0,0,1,0,1820,
scooby_state_419750|15|1 1818,0,0,0,0,0,0,0,0,0,0,0,1,0,1,1820,
scooby_state_419750|36|1 1814,1,0,0,0,1,0,1,0,2,0,0,1,0,0,1820,
scooby_state_419750|44|1 1816,0,2,1,0,0,0,0,0,0,1,0,0,0,0,1820,
scooby_state_419750|0|0 1818,0,0,0,0,0,0,0,0,0,0,1,0,1,0,1820,
scooby_state_419750|61|1 1818,0,0,0,0,0,0,0,0,0,1,0,0,0,1,1820,
scooby_state_419750|58|1 1819,0,0,0,0,0,0,0,0,0,0,0,0,0,1,1820,
scooby_state_419750|14|1 1818,0,0,0,0,1,0,0,0,0,0,0,1,0,0,1820,
scooby_state_419750|48|1 1819,0,0,0,0,0,0,0,1,0,0,0,0,0,0,1820,
scooby_state_419750|45|1 1819,0,0,0,0,0,0,0,0,0,0,1,0,0,0,1820,
scooby_state_419750|16|1 1816,0,1,0,0,0,0,1,0,0,1,1,0,0,0,1820,
scooby_state_419750|3|1 1819,0,0,0,0,0,0,0,0,1,0,0,0,0,0,1820,
scooby_state_419750|52|1 1818,0,0,0,0,0,0,0,0,0,0,0,1,0,1,1820,
scooby_state_419750|55|1 1819,0,0,0,0,0,0,0,0,0,0,0,0,1,0,1820,
scooby_state_419750|4|1 1818,0,0,0,1,0,0,0,0,0,0,0,0,1,0,1820,
scooby_state_419750|26|1 1818,0,0,0,0,0,0,0,0,0,1,0,1,0,0,1820,
scooby_state_419750|42|1 1816,0,1,0,0,0,0,0,0,0,1,0,0,1,1,1820,
scooby_state_419750|49|1 1819,0,0,0,0,0,1,0,0,0,0,0,0,0,0,1820,
scooby_state_419750|57|1 1813,1,0,1,0,1,0,0,0,0,1,0,0,2,1,1820,
scooby_state_419750|17|1 1817,0,0,0,0,1,0,1,0,0,0,0,1,0,0,1820,
scooby_state_419750|22|1 1816,2,0,1,1,0,0,0,0,0,0,0,0,0,0,1820,
scooby_state_419750|56|1 1804,1,0,0,0,0,0,0,1,0,0,0,0,0,0,1806,
scooby_state_419750|59|1 1803,0,0,1,0,0,0,0,0,0,0,0,1,1,0,1806,
scooby_state_419750|63|1 1803,0,0,0,0,0,1,0,0,1,0,0,1,0,0,1806,
scooby_state_419750|41|1 1804,1,0,0,1,0,0,0,0,0,0,0,0,0,0,1806,
scooby_state_419750|18|1 1805,0,0,0,0,0,0,0,0,0,1,0,0,0,0,1806,
scooby_state_419750|34|1 1801,0,0,0,0,0,0,0,0,2,1,0,1,1,0,1806,
scooby_state_419750|33|1 1806,0,0,0,0,0,0,0,0,0,0,0,0,0,0,1806,
scooby_state_419750|38|1 1805,0,0,0,0,0,1,0,0,0,0,0,0,0,0,1806,
scooby_state_419750|19|1 1803,0,1,0,0,0,0,0,0,0,1,0,1,0,0,1806,
scooby_state_419750|60|1 1792,0,0,0,0,0,0,0,0,0,0,0,0,0,0,1792,
scooby_state_419750|37|1 1789,1,0,0,0,0,0,2,0,0,0,0,0,0,0,1792,
scooby_state_419a8a|47|-3 993,0,0,0,0,0,0,1,0,0,0,0,0,0,0,994,
scooby_state_4191b9|60|1 803,1,0,0,0,0,0,0,0,0,0,0,0,0,0,804,
scooby_state_419a79|50|7 777,0,1,0,1,0,0,1,0,0,0,0,1,0,0,781,
scooby_state_4192a2|6|1 775,0,0,1,0,0,0,0,0,0,1,0,0,0,0,777,
scooby_state_4192a2|3|1 771,0,0,0,0,0,0,0,0,0,0,0,0,0,0,771,
scooby_state_4192a2|4|1 771,0,0,0,0,0,0,0,0,0,0,0,0,0,0,771,
scooby_state_4192a2|5|1 770,0,0,0,0,0,0,0,0,0,0,0,0,0,0,770,
scooby_state_4192a2|2|1 756,0,0,0,0,0,0,0,0,0,0,0,0,0,1,757,
scooby_state_4191b9|59|1 755,0,0,0,0,0,0,0,0,0,0,0,0,0,0,755,
scooby_state_4192a2|1|1 746,0,0,0,0,0,0,0,0,0,0,1,0,0,0,747,
scooby_state_4191b9|58|1 689,0,0,0,0,0,0,0,0,0,0,0,0,0,0,689,
scooby_state_419d84|42|-2 661,0,1,0,0,0,1,0,0,0,0,0,0,0,0,663,
scooby_state_4191b9|57|1 642,1,1,1,0,0,0,0,0,0,0,0,0,0,1,646,
scooby_state_4191b9|56|1 609,0,0,0,0,0,0,0,0,1,0,0,0,0,0,610,
scooby_state_4191b9|55|1 569,0,0,0,0,0,0,0,1,0,0,0,0,0,0,570,
scooby_state_4192a2|0|-6 558,0,0,0,0,1,0,0,0,0,0,0,0,0,0,559,
scooby_state_419e6d|35|-7 532,0,0,0,0,0,0,0,0,0,0,0,0,0,0,532,
scooby_state_4191b9|54|1 526,0,0,0,0,0,0,0,0,0,0,0,0,0,0,526,
scooby_state_419d3b|44|-3 514,0,0,0,0,0,0,0,0,0,0,0,0,0,0,514,
scooby_state_4191b9|53|1 496,0,0,0,0,0,0,0,0,0,0,0,0,0,0,496,
scooby_state_41a608|45|10 495,0,0,0,0,0,0,0,0,0,0,0,0,0,0,495,
scooby_state_417dc5|18|1 483,0,0,1,0,0,0,0,0,0,0,0,0,1,0,485,
scooby_state_4191b9|52|1 457,0,0,0,0,0,0,0,0,0,0,1,0,0,1,459,
scooby_state_40f90b|33|1 449,0,0,1,0,0,0,0,0,0,0,0,0,0,0,450,
scooby_state_40f90b|35|1 450,0,0,0,0,0,0,0,0,0,0,0,0,0,0,450,
scooby_state_40f696|34|1 448,0,0,0,0,1,0,0,0,0,0,0,0,0,0,449,
scooby_state_40f413|59|1 448,0,0,0,0,0,0,0,0,0,0,0,0,1,0,449,
scooby_state_40f413|30|1 449,0,0,0,0,0,0,0,0,0,0,0,0,0,0,449,
scooby_state_40f413|56|1 449,0,0,0,0,0,0,0,0,0,0,0,0,0,0,449,
scooby_state_40f413|54|1 449,0,0,0,0,0,0,0,0,0,0,0,0,0,0,449,
scooby_state_40f696|46|1 449,0,0,0,0,0,0,0,0,0,0,0,0,0,0,449,
scooby_state_40f90b|54|1 447,0,0,1,0,0,0,0,0,0,0,0,0,0,1,449,
scooby_state_40f413|57|1 448,0,0,0,0,0,0,0,1,0,0,0,0,0,0,449,
scooby_state_40f413|39|1 449,0,0,0,0,0,0,0,0,0,0,0,0,0,0,449,
scooby_state_40f413|7|1 448,0,0,0,0,0,0,0,0,0,0,0,0,0,0,448,
scooby_state_40f90b|14|1 447,0,0,0,0,0,0,1,0,0,0,0,0,0,0,448,
scooby_state_40f90b|29|1 445,0,0,0,0,1,0,0,1,0,0,0,0,0,1,448,
scooby_state_40f90b|19|1 447,0,0,1,0,0,0,0,0,0,0,0,0,0,0,448,
scooby_state_40f413|31|1 447,0,0,0,0,0,0,0,0,0,0,0,0,1,0,448,
scooby_state_40f696|35|1 448,0,0,0,0,0,0,0,0,0,0,0,0,0,0,448,
scooby_state_40f413|16|1 448,0,0,0,0,0,0,0,0,0,0,0,0,0,0,448,
scooby_state_40f413|55|1 446,0,0,0,0,1,0,0,0,0,0,0,0,0,1,448,
scooby_state_40f696|49|1 447,0,0,0,0,0,0,1,0,0,0,0,0,0,0,448,
scooby_state_40f90b|20|1 447,0,0,0,0,0,1,0,0,0,0,0,0,0,0,448,
scooby_state_40f413|23|1 448,0,0,0,0,0,0,0,0,0,0,0,0,0,0,448,
scooby_state_40f90b|46|1 448,0,0,0,0,0,0,0,0,0,0,0,0,0,0,448,
scooby_state_40f696|39|1 448,0,0,0,0,0,0,0,0,0,0,0,0,0,0,448,
scooby_state_40f413|58|1 448,0,0,0,0,0,0,0,0,0,0,0,0,0,0,448,
scooby_state_40f413|44|1 448,0,0,0,0,0,0,0,0,0,0,0,0,0,0,448,
scooby_state_40f90b|13|1 448,0,0,0,0,0,0,0,0,0,0,0,0,0,0,448,
scooby_state_40f413|28|1 448,0,0,0,0,0,0,0,0,0,0,0,0,0,0,448,
scooby_state_40f413|29|1 447,0,0,0,0,1,0,0,0,0,0,0,0,0,0,448,
scooby_state_40f90b|50|1 448,0,0,0,0,0,0,0,0,0,0,0,0,0,0,448,
scooby_state_40f90b|21|1 448,0,0,0,0,0,0,0,0,0,0,0,0,0,0,448,
scooby_state_40f696|13|1 448,0,0,0,0,0,0,0,0,0,0,0,0,0,0,448,
scooby_state_40f696|28|1 447,0,0,0,0,0,0,1,0,0,0,0,0,0,0,448,
scooby_state_40f413|18|1 448,0,0,0,0,0,0,0,0,0,0,0,0,0,0,448,
scooby_state_40f696|11|1 447,0,0,1,0,0,0,0,0,0,0,0,0,0,0,448,
scooby_state_40f413|1|1 448,0,0,0,0,0,0,0,0,0,0,0,0,0,0,448,
scooby_state_40f90b|16|1 448,0,0,0,0,0,0,0,0,0,0,0,0,0,0,448,
scooby_state_40f696|51|1 446,1,0,0,0,0,0,0,0,0,0,0,1,0,0,448,
scooby_state_40f696|21|1 448,0,0,0,0,0,0,0,0,0,0,0,0,0,0,448,
scooby_state_40f696|37|1 448,0,0,0,0,0,0,0,0,0,0,0,0,0,0,448,
scooby_state_40f696|36|1 448,0,0,0,0,0,0,0,0,0,0,0,0,0,0,448,
scooby_state_40f696|17|1 447,0,0,0,0,0,0,0,0,0,0,0,1,0,0,448,
scooby_state_40f696|15|1 448,0,0,0,0,0,0,0,0,0,0,0,0,0,0,448,
scooby_state_40f413|52|1 443,0,0,0,1,2,0,0,0,0,0,1,1,0,0,448,
scooby_state_40f90b|63|1 445,0,2,0,0,0,0,0,0,0,0,0,0,0,1,448,
scooby_state_40f90b|31|1 447,0,0,0,0,0,0,0,0,0,0,0,0,0,1,448,
scooby_state_4191ff|24|1 446,1,0,0,0,0,0,0,0,1,0,0,0,0,0,448,
scooby_state_40f90b|47|1 447,1,0,0,0,0,0,0,0,0,0,0,0,0,0,448,
scooby_state_40f696|56|1 445,0,0,0,0,1,0,0,0,1,0,1,0,0,0,448,
scooby_state_40f413|3|1 448,0,0,0,0,0,0,0,0,0,0,0,0,0,0,448,
scooby_state_40f90b|11|1 444,0,0,0,1,0,1,0,0,0,0,0,0,1,0,447,
scooby_state_40f413|13|1 447,0,0,0,0,0,0,0,0,0,0,0,0,0,0,447,
scooby_state_40f696|48|1 447,0,0,0,0,0,0,0,0,0,0,0,0,0,0,447,
scooby_state_40f696|23|1 447,0,0,0,0,0,0,0,0,0,0,0,0,0,0,447,
scooby_state_40f90b|37|1 447,0,0,0,0,0,0,0,0,0,0,0,0,0,0,447,
scooby_state_40f696|38|1 445,0,0,0,1,1,0,0,0,0,0,0,0,0,0,447,
scooby_state_40f696|53|1 447,0,0,0,0,0,0,0,0,0,0,0,0,0,0,447,
scooby_state_40f413|15|1 446,0,1,0,0,0,0,0,0,0,0,0,0,0,0,447,
scooby_state_40f696|30|1 444,0,0,0,1,0,1,0,0,0,0,0,0,1,0,447,
scooby_state_40f413|11|1 446,0,0,0,0,0,0,0,0,0,0,1,0,0,0,447,
scooby_state_40f90b|48|1 443,1,1,0,1,0,0,0,0,0,0,1,0,0,0,447,
scooby_state_40f413|42|1 447,0,0,0,0,0,0,0,0,0,0,0,0,0,0,447,
scooby_state_40f413|45|1 446,0,0,0,0,0,0,0,0,0,0,1,0,0,0,447,
scooby_state_40f413|26|1 445,0,0,1,0,0,0,0,0,0,0,0,1,0,0,447,
scooby_state_40f696|57|1 447,0,0,0,0,0,0,0,0,0,0,0,0,0,0,447,
scooby_state_40f90b|49|1 447,0,0,0,0,0,0,0,0,0,0,0,0,0,0,447,
scooby_state_40f90b|26|1 446,0,0,0,0,0,0,0,0,1,0,0,0,0,0,447,
scooby_state_40f696|44|1 447,0,0,0,0,0,0,0,0,0,0,0,0,0,0,447,
scooby_state_40f413|36|1 446,0,0,0,0,0,0,1,0,0,0,0,0,0,0,447,
scooby_state_40f90b|55|1 447,0,0,0,0,0,0,0,0,0,0,0,0,0,0,447,
scooby_state_40f696|27|1 447,0,0,0,0,0,0,0,0,0,0,0,0,0,0,447,
scooby_state_40f90b|44|1 446,0,0,0,0,0,0,1,0,0,0,0,0,0,0,447,
scooby_state_40f90b|0|0 447,0,0,0,0,0,0,0,0,0,0,0,0,0,0,447,
scooby_state_40f90b|62|1 447,0,0,0,0,0,0,0,0,0,0,0,0,0,0,447,
scooby_state_40f90b|24|1 447,0,0,0,0,0,0,0,0,0,0,0,0,0,0,447,
scooby_state_40f90b|12|1 446,0,0,0,0,1,0,0,0,0,0,0,0,0,0,447,
scooby_state_40f413|60|1 445,1,0,0,0,0,0,0,0,0,0,1,0,0,0,447,
scooby_state_40f90b|32|1 447,0,0,0,0,0,0,0,0,0,0,0,0,0,0,447,
scooby_state_40f413|17|1 447,0,0,0,0,0,0,0,0,0,0,0,0,0,0,447,
scooby_state_40f696|55|1 446,0,1,0,0,0,0,0,0,0,0,0,0,0,0,447,
scooby_state_40f90b|17|1 446,0,0,0,0,0,0,1,0,0,0,0,0,0,0,447,
scooby_state_40f90b|18|1 446,0,1,0,0,0,0,0,0,0,0,0,0,0,0,447,
scooby_state_40f90b|34|1 446,1,0,0,0,0,0,0,0,0,0,0,0,0,0,447,
scooby_state_40f90b|22|1 447,0,0,0,0,0,0,0,0,0,0,0,0,0,0,447,
scooby_state_40f696|16|1 447,0,0,0,0,0,0,0,0,0,0,0,0,0,0,447,
scooby_state_40f696|20|1 447,0,0,0,0,0,0,0,0,0,0,0,0,0,0,447,
scooby_state_40f696|14|1 447,0,0,0,0,0,0,0,0,0,0,0,0,0,0,447,
scooby_state_40f413|34|1 445,1,0,0,0,0,1,0,0,0,0,0,0,0,0,447,
scooby_state_40f696|47|1 446,1,0,0,0,0,0,0,0,0,0,0,0,0,0,447,
scooby_state_40f413|5|1 445,0,0,0,0,1,0,1,0,0,0,0,0,0,0,447,
scooby_state_40f413|49|1 447,0,0,0,0,0,0,0,0,0,0,0,0,0,0,447,
scooby_state_40f413|51|1 446,0,0,0,0,0,0,0,0,0,0,0,0,0,1,447,
scooby_state_40f696|54|1 447,0,0,0,0,0,0,0,0,0,0,0,0,0,0,447,
scooby_state_40f696|18|1 446,0,0,1,0,0,0,0,0,0,0,0,0,0,0,447,
scooby_state_40f696|33|1 446,0,0,0,0,1,0,0,0,0,0,0,0,0,0,447,
scooby_state_40f90b|15|1 445,0,0,0,0,0,0,0,0,1,0,0,0,0,1,447,
scooby_state_40f90b|25|1 444,0,0,0,0,0,0,0,1,0,0,1,1,0,0,447,
scooby_state_40f413|61|1 447,0,0,0,0,0,0,0,0,0,0,0,0,0,0,447,
scooby_state_40f413|0|0 446,0,0,0,0,0,0,0,0,0,0,0,0,0,0,446,
scooby_state_40f413|35|1 446,0,0,0,0,0,0,0,0,0,0,0,0,0,0,446,
scooby_state_40f696|45|1 446,0,0,0,0,0,0,0,0,0,0,0,0,0,0,446,
scooby_state_40f90b|53|1 444,0,0,0,0,0,0,0,1,0,0,0,0,0,1,446,
scooby_state_40f90b|58|1 446,0,0,0,0,0,0,0,0,0,0,0,0,0,0,446,
scooby_state_40f696|6|1 444,0,0,1,0,0,0,0,0,0,0,1,0,0,0,446,
scooby_state_40f413|62|1 444,0,0,1,0,0,0,0,0,0,1,0,0,0,0,446,
scooby_state_40f413|14|1 444,1,0,0,0,0,0,0,0,0,0,0,0,0,1,446,
scooby_state_40f90b|59|1 444,0,0,0,0,1,0,0,0,0,0,0,0,0,1,446,
scooby_state_40f696|7|1 446,0,0,0,0,0,0,0,0,0,0,0,0,0,0,446,
scooby_state_40f90b|30|1 443,0,0,0,0,1,1,0,0,0,0,1,0,0,0,446,
scooby_state_40f413|27|1 445,0,0,0,0,0,0,0,1,0,0,0,0,0,0,446,
scooby_state_40f413|46|1 446,0,0,0,0,0,0,0,0,0,0,0,0,0,0,446,
scooby_state_40f696|24|1 446,0,0,0,0,0,0,0,0,0,0,0,0,0,0,446,
scooby_state_40f696|8|1 445,0,0,0,0,0,0,0,0,0,0,0,1,0,0,446,
scooby_state_40f90b|4|1 444,0,0,0,1,0,0,0,0,1,0,0,0,0,0,446,
scooby_state_40f696|4|1 446,0,0,0,0,0,0,0,0,0,0,0,0,0,0,446,
scooby_state_40f90b|45|1 446,0,0,0,0,0,0,0,0,0,0,0,0,0,0,446,
scooby_state_40f90b|28|1 445,0,0,0,0,1,0,0,0,0,0,0,0,0,0,446,
scooby_state_40f413|33|1 444,0,0,1,1,0,0,0,0,0,0,0,0,0,0,446,
scooby_state_40f413|48|1 446,0,0,0,0,0,0,0,0,0,0,0,0,0,0,446,
scooby_state_40f413|19|1 446,0,0,0,0,0,0,0,0,0,0,0,0,0,0,446,
scooby_state_40f696|40|1 446,0,0,0,0,0,0,0,0,0,0,0,0,0,0,446,
scooby_state_40f696|58|1 445,1,0,0,0,0,0,0,0,0,0,0,0,0,0,446,
scooby_state_40f90b|56|1 445,0,0,0,0,0,0,0,0,0,0,0,0,0,1,446,
scooby_state_40f696|59|1 445,0,0,0,1,0,0,0,0,0,0,0,0,0,0,446,
scooby_state_40f90b|27|1 445,0,0,0,0,0,1,0,0,0,0,0,0,0,0,446,
scooby_state_40f90b|51|1 446,0,0,0,0,0,0,0,0,0,0,0,0,0,0,446,
scooby_state_40f90b|52|1 446,0,0,0,0,0,0,0,0,0,0,0,0,0,0,446,
scooby_state_40f90b|41|1 446,0,0,0,0,0,0,0,0,0,0,0,0,0,0,446,
scooby_state_40f413|32|1 445,0,0,0,0,0,0,0,0,1,0,0,0,0,0,446,
scooby_state_40f90b|39|1 446,0,0,0,0,0,0,0,0,0,0,0,0,0,0,446,
scooby_state_40f90b|57|1 444,0,1,0,0,0,0,0,1,0,0,0,0,0,0,446,
scooby_state_40f413|38|1 444,0,1,0,0,0,0,0,0,0,0,0,0,0,0,445,
scooby_state_40f90b|6|1 444,0,0,0,0,0,0,0,0,0,0,0,0,1,0,445,
scooby_state_40f696|26|1 444,0,0,0,1,0,0,0,0,0,0,0,0,0,0,445,
scooby_state_40f696|3|1 444,0,0,0,0,0,0,0,0,0,0,0,1,0,0,445,
scooby_state_40f696|12|1 445,0,0,0,0,0,0,0,0,0,0,0,0,0,0,445,
scooby_state_40f696|32|1 445,0,0,0,0,0,0,0,0,0,0,0,0,0,0,445,
scooby_state_40f413|22|1 444,0,0,0,0,0,0,0,0,0,0,0,0,1,0,445,
scooby_state_40f413|20|1 444,0,0,1,0,0,0,0,0,0,0,0,0,0,0,445,
scooby_state_40f413|63|1 444,0,0,0,0,0,0,0,0,0,0,0,0,1,0,445,
scooby_state_40f90b|7|1 445,0,0,0,0,0,0,0,0,0,0,0,0,0,0,445,
scooby_state_40f413|12|1 444,0,0,0,0,0,0,0,0,0,0,1,0,0,0,445,
scooby_state_40f90b|23|1 444,0,1,0,0,0,0,0,0,0,0,0,0,0,0,445,
scooby_state_40f696|10|1 444,0,0,0,0,1,0,0,0,0,0,0,0,0,0,445,
scooby_state_40f90b|61|1 445,0,0,0,0,0,0,0,0,0,0,0,0,0,0,445,
scooby_state_40f696|31|1 445,0,0,0,0,0,0,0,0,0,0,0,0,0,0,445,
scooby_state_40f413|40|1 443,1,0,0,0,0,0,1,0,0,0,0,0,0,0,445,
scooby_state_40f696|25|1 443,0,0,0,1,0,1,0,0,0,0,0,0,0,0,445,
scooby_state_40f696|62|1 444,0,0,0,0,0,0,0,0,0,0,0,0,0,1,445,
scooby_state_40f90b|38|1 445,0,0,0,0,0,0,0,0,0,0,0,0,0,0,445,
scooby_state_40f90b|10|1 442,0,0,0,0,0,1,0,1,0,0,0,0,0,1,445,
scooby_state_40f696|19|1 444,0,0,0,0,0,0,0,0,0,0,0,1,0,0,445,
scooby_state_40f90b|9|1 445,0,0,0,0,0,0,0,0,0,0,0,0,0,0,445,
scooby_state_40f696|1|1 444,0,0,0,0,0,0,0,0,0,1,0,0,0,0,445,
scooby_state_40f90b|5|1 443,0,0,0,0,0,1,0,0,0,0,0,0,1,0,445,
scooby_state_40f696|29|1 444,0,0,1,0,0,0,0,0,0,0,0,0,0,0,445,
scooby_state_40f696|42|1 445,0,0,0,0,0,0,0,0,0,0,0,0,0,0,445,
scooby_state_40f413|50|1 445,0,0,0,0,0,0,0,0,0,0,0,0,0,0,445,
scooby_state_40f90b|60|1 444,0,0,0,0,0,0,0,0,1,0,0,0,0,0,445,
scooby_state_40f696|63|1 445,0,0,0,0,0,0,0,0,0,0,0,0,0,0,445,
scooby_state_40f413|41|1 445,0,0,0,0,0,0,0,0,0,0,0,0,0,0,445,
scooby_state_40f90b|1|1 445,0,0,0,0,0,0,0,0,0,0,0,0,0,0,445,
scooby_state_40f413|21|1 445,0,0,0,0,0,0,0,0,0,0,0,0,0,0,445,
scooby_state_40f90b|43|1 444,0,0,0,0,0,0,0,0,0,0,0,0,0,0,444,
scooby_state_40f696|61|1 443,0,1,0,0,0,0,0,0,0,0,0,0,0,0,444,
scooby_state_40f413|53|1 442,0,0,0,0,0,0,0,0,0,0,0,0,1,1,444,
scooby_state_40f413|4|1 443,0,0,1,0,0,0,0,0,0,0,0,0,0,0,444,
scooby_state_40f696|9|1 444,0,0,0,0,0,0,0,0,0,0,0,0,0,0,444,
scooby_state_40f413|9|1 443,0,0,0,0,0,0,0,0,0,0,0,0,0,1,444,
scooby_state_40f413|10|1 441,0,0,1,1,0,1,0,0,0,0,0,0,0,0,444,
scooby_state_40f413|37|1 444,0,0,0,0,0,0,0,0,0,0,0,0,0,0,444,
scooby_state_40f90b|42|1 444,0,0,0,0,0,0,0,0,0,0,0,0,0,0,444,
scooby_state_40f696|22|1 443,0,0,0,0,0,1,0,0,0,0,0,0,0,0,444,
scooby_state_40f413|47|1 443,0,0,0,0,0,1,0,0,0,0,0,0,0,0,444,
scooby_state_4191b9|51|1 442,0,0,0,1,0,0,0,0,0,0,0,0,0,1,444,
scooby_state_40f696|60|1 444,0,0,0,0,0,0,0,0,0,0,0,0,0,0,444,
scooby_state_40f90b|3|1 444,0,0,0,0,0,0,0,0,0,0,0,0,0,0,444,
scooby_state_40f413|43|1 443,0,0,0,0,0,0,0,0,0,0,0,1,0,0,444,
scooby_state_40f90b|36|1 441,0,0,0,0,0,0,1,0,0,1,0,1,0,0,444,
scooby_state_40f413|24|1 443,0,0,0,0,0,0,0,0,0,0,1,0,0,0,444,
scooby_state_40f696|0|0 443,0,0,0,0,0,1,0,0,0,0,0,0,0,0,444,
scooby_state_40f696|50|1 442,0,0,0,1,0,0,0,0,0,0,0,0,0,0,443,
scooby_state_40f413|8|1 442,0,0,0,0,0,0,1,0,0,0,0,0,0,0,443,
scooby_state_40f696|43|1 443,0,0,0,0,0,0,0,0,0,0,0,0,0,0,443,
scooby_state_40f90b|2|1 442,0,0,0,0,0,0,0,0,0,0,0,0,0,1,443,
scooby_state_40f696|52|1 441,0,0,1,0,0,1,0,0,0,0,0,0,0,0,443,
scooby_state_40f413|6|1 442,0,0,0,0,0,0,0,0,0,0,1,0,0,0,443,
scooby_state_40f90b|40|1 442,0,0,0,0,0,1,0,0,0,0,0,0,0,0,443,
scooby_state_40f90b|8|1 443,0,0,0,0,0,0,0,0,0,0,0,0,0,0,443,
scooby_state_40f413|25|1 442,0,1,0,0,0,0,0,0,0,0,0,0,0,0,443,
scooby_state_40f413|2|1 442,0,0,0,0,0,0,0,0,0,0,0,0,0,0,442,
scooby_state_40f696|2|1 441,0,0,0,0,1,0,0,0,0,0,0,0,0,0,442,
scooby_state_40f696|5|1 441,0,0,0,0,0,0,0,0,0,0,0,0,0,0,441,
scooby_state_40f696|41|1 440,0,0,0,0,0,0,0,0,0,0,1,0,0,0,441,
scooby_state_40f913|1|1 440,0,0,0,0,0,0,0,0,0,0,0,0,0,0,440,
scooby_state_40f41b|45|1 439,0,0,0,0,0,1,0,0,0,0,0,0,0,0,440,
scooby_state_40f41b|44|1 438,1,0,0,0,0,0,0,0,0,0,0,0,1,0,440,
scooby_state_40f69e|58|1 440,0,0,0,0,0,0,0,0,0,0,0,0,0,0,440,
scooby_state_40f913|2|1 438,1,0,0,0,0,0,0,0,1,0,0,0,0,0,440,
scooby_state_40f69e|56|1 440,0,0,0,0,0,0,0,0,0,0,0,0,0,0,440,
scooby_state_40f69e|59|1 439,0,0,0,0,0,0,0,0,0,0,0,0,0,1,440,
scooby_state_40f913|5|1 440,0,0,0,0,0,0,0,0,0,0,0,0,0,0,440,
scooby_state_40f41b|49|1 439,0,0,0,0,0,0,0,0,0,0,0,1,0,0,440,
scooby_state_40f69e|54|1 439,0,0,0,0,0,0,0,0,0,0,1,0,0,0,440,
scooby_state_40f69e|55|1 439,0,0,0,0,0,0,1,0,0,0,0,0,0,0,440,
scooby_state_40f913|4|1 439,0,0,0,0,0,0,0,0,0,0,0,0,1,0,440,
scooby_state_40f41b|48|1 439,0,0,1,0,0,0,0,0,0,0,0,0,0,0,440,
scooby_state_40f913|0|0 440,0,0,0,0,0,0,0,0,0,0,0,0,0,0,440,
scooby_state_40f913|3|1 440,0,0,0,0,0,0,0,0,0,0,0,0,0,0,440,
scooby_state_40f41b|46|1 440,0,0,0,0,0,0,0,0,0,0,0,0,0,0,440,
scooby_state_40f41b|47|1 440,0,0,0,0,0,0,0,0,0,0,0,0,0,0,440,
scooby_state_40f69e|57|1 439,0,0,0,0,0,0,0,1,0,0,0,0,0,0,440,
scooby_state_40f913|6|1 438,0,0,0,0,0,0,0,0,0,1,0,0,0,0,439,
scooby_state_40f41b|50|1 439,0,0,0,0,0,0,0,0,0,0,0,0,0,0,439,
scooby_state_40f69e|60|1 438,0,0,0,0,0,1,0,0,0,0,0,0,0,0,439,
scooby_state_40f41b|43|1 438,0,0,0,0,0,0,0,0,0,0,0,0,0,0,438,
scooby_state_40f69e|53|1 438,0,0,0,0,0,0,0,0,0,0,0,0,0,0,438,
scooby_state_40f913|63|1 437,0,0,0,0,0,0,0,1,0,0,0,0,0,0,438,
scooby_state_40f41b|29|1 437,0,0,0,0,0,0,0,0,0,0,0,0,0,0,437,
scooby_state_40f69e|43|1 437,0,0,0,0,0,0,0,0,0,0,0,0,0,0,437,
scooby_state_40f41b|31|1 437,0,0,0,0,0,0,0,0,0,0,0,0,0,0,437,
scooby_state_40f913|51|1 437,0,0,0,0,0,0,0,0,0,0,0,0,0,0,437,
scooby_state_40f913|53|1 437,0,0,0,0,0,0,0,0,0,0,0,0,0,0,437,
scooby_state_40f41b|34|1 436,0,1,0,0,0,0,0,0,0,0,0,0,0,0,437,
scooby_state_40f913|52|1 436,0,0,0,0,0,0,0,1,0,0,0,0,0,0,437,
scooby_state_40f69e|38|1 436,0,0,0,0,0,1,0,0,0,0,0,0,0,0,437,
scooby_state_40f41b|28|1 437,0,0,0,0,0,0,0,0,0,0,0,0,0,0,437,
scooby_state_40f913|50|1 437,0,0,0,0,0,0,0,0,0,0,0,0,0,0,437,
scooby_state_40f913|54|1 436,0,0,0,0,0,0,0,0,0,0,1,0,0,0,437,
scooby_state_40f41b|32|1 437,0,0,0,0,0,0,0,0,0,0,0,0,0,0,437,
scooby_state_40f69e|44|1 436,0,0,0,1,0,0,0,0,0,0,0,0,0,0,437,
scooby_state_40f41b|33|1 437,0,0,0,0,0,0,0,0,0,0,0,0,0,0,437,
scooby_state_40f41b|30|1 436,0,0,0,0,1,0,0,0,0,0,0,0,0,0,437,
scooby_state_40f69e|39|1 437,0,0,0,0,0,0,0,0,0,0,0,0,0,0,437,
scooby_state_40f913|49|1 437,0,0,0,0,0,0,0,0,0,0,0,0,0,0,437,
scooby_state_40f913|48|1 436,0,0,0,0,0,0,0,0,0,0,0,0,1,0,437,
scooby_state_40f69e|40|1 437,0,0,0,0,0,0,0,0,0,0,0,0,0,0,437,
scooby_state_40f69e|41|1 434,0,0,0,0,0,0,1,2,0,0,0,0,0,0,437,
scooby_state_40f69e|42|1 437,0,0,0,0,0,0,0,0,0,0,0,0,0,0,437,
scooby_state_40f41b|39|1 432,1,0,0,3,0,0,0,0,0,0,0,0,0,0,436,
scooby_state_40f41b|35|1 435,0,0,0,1,0,0,0,0,0,0,0,0,0,0,436,
scooby_state_40f913|32|1 435,0,1,0,0,0,0,0,0,0,0,0,0,0,0,436,
scooby_state_40f913|47|1 436,0,0,0,0,0,0,0,0,0,0,0,0,0,0,436,
scooby_state_40f41b|15|1 435,1,0,0,0,0,0,0,0,0,0,0,0,0,0,436,
scooby_state_40f69e|48|1 435,0,0,0,0,0,0,0,1,0,0,0,0,0,0,436,
scooby_state_40f913|19|1 434,0,0,1,0,0,0,0,0,0,0,0,0,0,1,436,
scooby_state_40f913|59|1 436,0,0,0,0,0,0,0,0,0,0,0,0,0,0,436,
scooby_state_40f69e|22|1 436,0,0,0,0,0,0,0,0,0,0,0,0,0,0,436,
scooby_state_40f41b|40|1 434,0,0,0,0,0,0,0,0,0,0,1,0,1,0,436,
scooby_state_40f41b|27|1 434,1,0,0,0,0,1,0,0,0,0,0,0,0,0,436,
scooby_state_40f913|37|1 435,0,0,0,0,0,0,0,0,1,0,0,0,0,0,436,
scooby_state_40f69e|7|1 434,1,0,0,0,1,0,0,0,0,0,0,0,0,0,436,
scooby_state_40f41b|38|1 435,1,0,0,0,0,0,0,0,0,0,0,0,0,0,436,
scooby_state_40f69e|37|1 435,0,0,0,0,0,0,0,0,0,1,0,0,0,0,436,
scooby_state_40f913|18|1 435,0,0,0,0,0,0,0,0,0,0,0,0,1,0,436,
scooby_state_40f913|38|1 436,0,0,0,0,0,0,0,0,0,0,0,0,0,0,436,
scooby_state_40f69e|52|1 436,0,0,0,0,0,0,0,0,0,0,0,0,0,0,436,
scooby_state_40f41b|2|1 436,0,0,0,0,0,0,0,0,0,0,0,0,0,0,436,
scooby_state_40f69e|10|1 433,1,0,1,1,0,0,0,0,0,0,0,0,0,0,436,
scooby_state_40f913|21|1 435,0,0,0,0,0,0,0,0,0,0,0,1,0,0,436,
scooby_state_40f69e|50|1 434,0,2,0,0,0,0,0,0,0,0,0,0,0,0,436,
scooby_state_40f41b|18|1 435,0,0,0,0,0,0,0,0,0,0,0,0,0,1,436,
scooby_state_40f41b|17|1 435,0,0,0,0,0,1,0,0,0,0,0,0,0,0,436,
scooby_state_40f41b|13|1 434,0,0,0,1,0,0,0,0,0,0,1,0,0,0,436,
scooby_state_40f41b|61|1 435,0,1,0,0,0,0,0,0,0,0,0,0,0,0,436,
scooby_state_40f41b|12|1 435,0,0,0,0,0,0,0,0,0,1,0,0,0,0,436,
scooby_state_40f913|36|1 433,0,1,0,0,0,0,0,1,1,0,0,0,0,0,436,
scooby_state_40f41b|63|1 435,0,0,0,0,0,0,1,0,0,0,0,0,0,0,436,
scooby_state_40f41b|60|1 436,0,0,0,0,0,0,0,0,0,0,0,0,0,0,436,
scooby_state_40f41b|0|0 435,0,0,0,0,0,0,0,0,0,1,0,0,0,0,436,
scooby_state_40f913|56|1 436,0,0,0,0,0,0,0,0,0,0,0,0,0,0,436,
scooby_state_40f69e|49|1 435,0,0,0,1,0,0,0,0,0,0,0,0,0,0,436,
scooby_state_40f913|60|1 435,0,0,0,0,0,0,0,0,0,1,0,0,0,0,436,
scooby_state_40f69e|25|1 436,0,0,0,0,0,0,0,0,0,0,0,0,0,0,436,
scooby_state_40f69e|12|1 436,0,0,0,0,0,0,0,0,0,0,0,0,0,0,436,
scooby_state_40f41b|14|1 436,0,0,0,0,0,0,0,0,0,0,0,0,0,0,436,
scooby_state_40f69e|45|1 434,0,0,0,0,0,0,0,0,0,2,0,0,0,0,436,
scooby_state_40f913|35|1 436,0,0,0,0,0,0,0,0,0,0,0,0,0,0,436,
scooby_state_40f913|34|1 436,0,0,0,0,0,0,0,0,0,0,0,0,0,0,436,
scooby_state_40f69e|61|1 436,0,0,0,0,0,0,0,0,0,0,0,0,0,0,436,
scooby_state_40f41b|1|1 434,0,0,0,0,0,0,0,1,0,0,0,1,0,0,436,
scooby_state_40f913|16|1 436,0,0,0,0,0,0,0,0,0,0,0,0,0,0,436,
scooby_state_40f69e|24|1 434,0,0,0,0,0,0,0,0,0,1,0,0,1,0,436,
scooby_state_40f913|62|1 436,0,0,0,0,0,0,0,0,0,0,0,0,0,0,436,
scooby_state_40f69e|47|1 436,0,0,0,0,0,0,0,0,0,0,0,0,0,0,436,
scooby_state_40f913|33|1 434,0,0,0,1,0,0,0,0,0,0,0,0,1,0,436,
scooby_state_40f41b|16|1 436,0,0,0,0,0,0,0,0,0,0,0,0,0,0,436,
scooby_state_40f41b|42|1 435,0,0,0,0,0,0,0,0,0,0,0,0,1,0,436,
scooby_state_40f913|20|1 435,0,0,0,0,1,0,0,0,0,0,0,0,0,0,436,
scooby_state_40f913|61|1 434,0,1,0,0,0,0,0,0,1,0,0,0,0,0,436,
scooby_state_40f913|7|1 436,0,0,0,0,0,0,0,0,0,0,0,0,0,0,436,
scooby_state_40f41b|41|1 434,0,0,0,0,0,0,2,0,0,0,0,0,0,0,436,
scooby_state_40f69e|9|1 436,0,0,0,0,0,0,0,0,0,0,0,0,0,0,436,
scooby_state_40f69e|8|1 436,0,0,0,0,0,0,0,0,0,0,0,0,0,0,436,
scooby_state_40f69e|23|1 436,0,0,0,0,0,0,0,0,0,0,0,0,0,0,436,
scooby_state_40f69e|46|1 435,0,0,0,0,0,0,0,0,0,0,1,0,0,0,436,
scooby_state_40f913|22|1 436,0,0,0,0,0,0,0,0,0,0,0,0,0,0,436,
scooby_state_40f69e|26|1 436,0,0,0,0,0,0,0,0,0,0,0,0,0,0,436,
scooby_state_40f913|57|1 435,0,0,0,0,0,0,0,0,0,0,0,0,0,1,436,
scooby_state_40f69e|51|1 435,0,0,0,0,0,0,0,0,0,0,0,0,0,1,436,
scooby_state_40f41b|51|1 436,0,0,0,0,0,0,0,0,0,0,0,0,0,0,436,
scooby_state_40f41b|37|1 434,0,0,0,0,0,0,0,0,0,0,2,0,0,0,436,
scooby_state_40f913|55|1 435,0,0,0,0,1,0,0,0,0,0,0,0,0,0,436,
scooby_state_40f69e|28|1 436,0,0,0,0,0,0,0,0,0,0,0,0,0,0,436,
scooby_state_40f913|58|1 435,1,0,0,0,0,0,0,0,0,0,0,0,0,0,436,
scooby_state_40f41b|36|1 435,0,0,0,0,0,0,0,0,0,0,0,0,1,0,436,
scooby_state_40f69e|11|1 436,0,0,0,0,0,0,0,0,0,0,0,0,0,0,436,
scooby_state_40f41b|62|1 436,0,0,0,0,0,0,0,0,0,0,0,0,0,0,436,
scooby_state_40f913|17|1 434,0,0,0,0,0,0,0,0,0,0,0,0,1,1,436,
scooby_state_40f69e|27|1 435,0,0,0,0,0,0,0,1,0,0,0,0,0,0,436,
scooby_state_40f69e|6|1 435,0,0,0,0,0,0,0,0,0,0,0,0,1,0,436,
scooby_state_40f41b|59|1 435,0,0,0,0,0,0,0,0,0,0,0,0,0,0,435,
scooby_state_40f913|12|1 433,0,1,0,1,0,0,0,0,0,0,0,0,0,0,435,
scooby_state_40f913|8|1 435,0,0,0,0,0,0,0,0,0,0,0,0,0,0,435,
scooby_state_40f913|10|1 435,0,0,0,0,0,0,0,0,0,0,0,0,0,0,435,
scooby_state_40f69e|3|1 433,1,0,1,0,0,0,0,0,0,0,0,0,0,0,435,
scooby_state_40f41b|19|1 434,0,0,0,0,1,0,0,0,0,0,0,0,0,0,435,
scooby_state_40f41b|55|1 435,0,0,0,0,0,0,0,0,0,0,0,0,0,0,435,
scooby_state_40f41b|21|1 434,0,0,0,0,0,0,0,0,0,0,0,0,1,0,435,
scooby_state_40f69e|32|1 433,0,0,0,0,0,0,0,1,0,0,0,0,0,1,435,
scooby_state_40f69e|35|1 435,0,0,0,0,0,0,0,0,0,0,0,0,0,0,435,
scooby_state_40f69e|2|1 435,0,0,0,0,0,0,0,0,0,0,0,0,0,0,435,
scooby_state_40f913|14|1 434,0,0,0,0,0,0,1,0,0,0,0,0,0,0,435,
scooby_state_40f913|45|1 433,0,0,0,0,0,0,0,0,0,0,0,1,1,0,435,
scooby_state_40f41b|56|1 435,0,0,0,0,0,0,0,0,0,0,0,0,0,0,435,
scooby_state_40f913|9|1 435,0,0,0,0,0,0,0,0,0,0,0,0,0,0,435,
scooby_state_40f69e|1|1 435,0,0,0,0,0,0,0,0,0,0,0,0,0,0,435,
scooby_state_40f41b|54|1 434,1,0,0,0,0,0,0,0,0,0,0,0,0,0,435,
scooby_state_40f41b|11|1 435,0,0,0,0,0,0,0,0,0,0,0,0,0,0,435,
scooby_state_40f41b|23|1 435,0,0,0,0,0,0,0,0,0,0,0,0,0,0,435,
scooby_state_40f41b|24|1 434,0,0,0,0,0,0,0,0,0,0,0,0,1,0,435,
scooby_state_40f69e|30|1 434,0,0,0,0,0,1,0,0,0,0,0,0,0,0,435,
scooby_state_40f913|13|1 434,0,0,0,0,0,0,0,1,0,0,0,0,0,0,435,
scooby_state_40f69e|21|1 434,0,1,0,0,0,0,0,0,0,0,0,0,0,0,435,
scooby_state_40f69e|36|1 434,0,0,0,0,0,1,0,0,0,0,0,0,0,0,435,
scooby_state_40f913|31|1 435,0,0,0,0,0,0,0,0,0,0,0,0,0,0,435,
scooby_state_40f41b|20|1 434,0,0,0,0,0,0,1,0,0,0,0,0,0,0,435,
scooby_state_40f41b|22|1 434,0,0,1,0,0,0,0,0,0,0,0,0,0,0,435,
scooby_state_40f41b|26|1 434,0,0,0,0,1,0,0,0,0,0,0,0,0,0,435,
scooby_state_40f913|44|1 431,0,0,0,0,1,1,0,1,0,0,0,0,0,1,435,
scooby_state_40f41b|57|1 435,0,0,0,0,0,0,0,0,0,0,0,0,0,0,435,
scooby_state_40f41b|25|1 435,0,0,0,0,0,0,0,0,0,0,0,0,0,0,435,
scooby_state_40f913|11|1 434,1,0,0,0,0,0,0,0,0,0,0,0,0,0,435,
scooby_state_40f913|39|1 434,0,0,0,0,1,0,0,0,0,0,0,0,0,0,435,
scooby_state_40f913|23|1 435,0,0,0,0,0,0,0,0,0,0,0,0,0,0,435,
scooby_state_40f69e|33|1 435,0,0,0,0,0,0,0,0,0,0,0,0,0,0,435,
scooby_state_40f41b|3|1 433,0,0,0,0,0,1,0,0,0,1,0,0,0,0,435,
scooby_state_40f41b|53|1 435,0,0,0,0,0,0,0,0,0,0,0,0,0,0,435,
scooby_state_40f69e|62|1 434,1,0,0,0,0,0,0,0,0,0,0,0,0,0,435,
scooby_state_40f913|41|1 434,1,0,0,0,0,0,0,0,0,0,0,0,0,0,435,
scooby_state_40f913|15|1 434,1,0,0,0,0,0,0,0,0,0,0,0,0,0,435,
scooby_state_40f41b|58|1 434,0,0,0,0,0,0,0,0,0,1,0,0,0,0,435,
scooby_state_40f69e|4|1 435,0,0,0,0,0,0,0,0,0,0,0,0,0,0,435,
scooby_state_40f41b|52|1 435,0,0,0,0,0,0,0,0,0,0,0,0,0,0,435,
scooby_state_40f69e|34|1 434,0,1,0,0,0,0,0,0,0,0,0,0,0,0,435,
scooby_state_40f913|46|1 433,0,0,0,0,0,0,0,0,0,1,0,0,0,1,435,
scooby_state_40f913|42|1 433,0,0,0,0,0,1,0,0,0,1,0,0,0,0,435,
scooby_state_40f69e|29|1 435,0,0,0,0,0,0,0,0,0,0,0,0,0,0,435,
scooby_state_40f69e|63|1 433,0,0,0,0,0,0,0,0,0,0,1,0,0,1,435,
scooby_state_40f69e|31|1 432,0,0,0,0,1,0,0,0,1,0,0,1,0,0,435,
scooby_state_40f69e|13|1 434,0,0,0,0,1,0,0,0,0,0,0,0,0,0,435,
scooby_state_40f913|40|1 435,0,0,0,0,0,0,0,0,0,0,0,0,0,0,435,
scooby_state_40f913|43|1 434,0,0,0,0,0,0,1,0,0,0,0,0,0,0,435,
scooby_state_40f69e|0|0 435,0,0,0,0,0,0,0,0,0,0,0,0,0,0,435,
scooby_state_40f69e|5|1 435,0,0,0,0,0,0,0,0,0,0,0,0,0,0,435,
scooby_state_40f69e|16|1 433,0,0,1,0,0,0,0,0,0,0,0,0,0,0,434,
scooby_state_40f913|30|1 433,0,0,0,0,0,0,1,0,0,0,0,0,0,0,434,
scooby_state_40f913|27|1 434,0,0,0,0,0,0,0,0,0,0,0,0,0,0,434,
scooby_state_40f913|25|1 433,0,0,0,0,0,0,0,1,0,0,0,0,0,0,434,
scooby_state_40f69e|20|1 432,0,0,0,0,0,0,0,2,0,0,0,0,0,0,434,
scooby_state_40f41b|6|1 433,0,0,0,0,0,0,0,1,0,0,0,0,0,0,434,
scooby_state_40f69e|14|1 434,0,0,0,0,0,0,0,0,0,0,0,0,0,0,434,
scooby_state_40f41b|9|1 430,0,0,1,1,0,1,1,0,0,0,0,0,0,0,434,
scooby_state_40f913|28|1 434,0,0,0,0,0,0,0,0,0,0,0,0,0,0,434,
scooby_state_40f913|24|1 433,0,0,0,1,0,0,0,0,0,0,0,0,0,0,434,
scooby_state_40f69e|18|1 433,0,0,0,0,0,0,0,0,0,0,0,1,0,0,434,
scooby_state_40f69e|15|1 433,0,0,0,0,0,0,0,0,0,0,0,0,1,0,434,
scooby_state_40f41b|10|1 434,0,0,0,0,0,0,0,0,0,0,0,0,0,0,434,
scooby_state_40f41b|8|1 434,0,0,0,0,0,0,0,0,0,0,0,0,0,0,434,
scooby_state_40f913|29|1 433,0,0,0,0,0,0,0,0,0,0,0,0,1,0,434,
scooby_state_40f69e|19|1 434,0,0,0,0,0,0,0,0,0,0,0,0,0,0,434,
scooby_state_40f41b|7|1 434,0,0,0,0,0,0,0,0,0,0,0,0,0,0,434,
scooby_state_40f69e|17|1 434,0,0,0,0,0,0,0,0,0,0,0,0,0,0,434,
scooby_state_40f41b|5|1 433,0,0,0,0,0,0,0,1,0,0,0,0,0,0,434,
scooby_state_40f41b|4|1 434,0,0,0,0,0,0,0,0,0,0,0,0,0,0,434,
scooby_state_40f913|26|1 433,0,0,0,0,0,1,0,0,0,0,0,0,0,0,434,
scooby_state_4191b9|50|1 428,0,0,1,0,0,0,0,0,0,0,0,0,0,0,429,
scooby_state_4191b9|49|1 423,0,0,0,0,0,0,0,0,0,0,0,0,0,0,423,
scooby_state_419226|31|1 412,1,0,0,0,0,0,0,0,0,0,0,1,0,0,414,
scooby_state_419226|34|1 410,0,0,0,1,0,0,0,1,0,0,0,0,0,0,412,
scooby_state_419226|35|1 411,0,0,0,0,0,0,0,0,0,0,0,0,0,0,411,
scooby_state_4192a2|55|16 411,0,0,0,0,0,0,0,0,0,0,0,0,0,0,411,
scooby_state_419226|36|1 410,0,0,0,0,0,0,0,0,0,0,0,0,0,0,410,
scooby_state_419226|33|1 402,0,0,0,1,0,0,0,0,0,0,0,0,0,0,403,
scooby_state_4192a2|59|1 402,0,0,0,0,0,0,0,0,0,0,0,0,0,0,402,
scooby_state_4192a2|60|1 399,0,0,0,0,0,0,1,0,0,0,0,0,2,0,402,
scooby_state_419226|25|1 398,0,0,1,0,0,0,1,0,0,1,0,0,0,0,401,
scooby_state_41914f|4|1 401,0,0,0,0,0,0,0,0,0,0,0,0,0,0,401,
scooby_state_4192a2|58|1 400,0,0,0,0,0,0,0,0,0,0,0,0,0,0,400,
scooby_state_4192a2|57|1 398,0,0,0,0,0,0,0,0,0,0,0,0,0,0,398,
scooby_state_419226|37|1 394,0,0,0,1,0,0,0,0,0,0,0,0,0,0,395,
scooby_state_4192a2|56|1 394,0,0,0,0,0,0,0,0,0,0,0,0,0,0,394,
scooby_state_419226|30|1 390,0,0,0,0,0,1,0,0,0,0,0,0,1,0,392,
scooby_state_418e79|43|-1 387,0,0,0,0,0,0,0,0,0,0,0,0,1,0,388,
scooby_state_41914f|5|1 387,0,1,0,0,0,0,0,0,0,0,0,0,0,0,388,
scooby_state_419226|39|1 383,0,0,0,0,0,0,0,0,0,1,0,0,0,0,384,
scooby_state_419226|29|1 378,0,0,0,0,1,0,0,0,0,0,0,0,0,0,379,
scooby_state_419226|27|1 378,1,0,0,0,0,0,0,0,0,0,0,0,0,0,379,
scooby_state_41914f|6|1 376,0,1,0,0,0,0,0,0,1,0,0,0,0,0,378,
scooby_state_419b68|8|1 377,0,0,0,0,0,0,0,0,0,0,0,0,0,0,377,
scooby_state_418a54|40|1 376,0,0,0,0,0,0,1,0,0,0,0,0,0,0,377,
scooby_state_419b68|7|1 376,0,0,0,0,0,0,0,0,1,0,0,0,0,0,377,
scooby_state_419b68|40|1 377,0,0,0,0,0,0,0,0,0,0,0,0,0,0,377,
scooby_state_419b68|4|1 376,0,0,0,0,0,0,0,0,0,0,0,0,0,0,376,
scooby_state_41916b|13|1 376,0,0,0,0,0,0,0,0,0,0,0,0,0,0,376,
scooby_state_41916b|14|1 375,0,0,1,0,0,0,0,0,0,0,0,0,0,0,376,
scooby_state_418a17|57|1 375,0,1,0,0,0,0,0,0,0,0,0,0,0,0,376,
scooby_state_419b68|3|1 376,0,0,0,0,0,0,0,0,0,0,0,0,0,0,376,
scooby_state_419b68|5|1 376,0,0,0,0,0,0,0,0,0,0,0,0,0,0,376,
scooby_state_4189c9|63|1 375,0,0,0,0,0,0,0,0,1,0,0,0,0,0,376,
scooby_state_418a54|1|1 375,0,0,0,0,0,0,0,0,0,0,0,0,0,1,376,
scooby_state_419b68|41|1 376,0,0,0,0,0,0,0,0,0,0,0,0,0,0,376,
scooby_state_419b68|55|1 375,0,0,0,0,0,0,0,1,0,0,0,0,0,0,376,
scooby_state_41916b|2|1 375,0,0,0,0,0,1,0,0,0,0,0,0,0,0,376,
scooby_state_419b68|39|1 376,0,0,0,0,0,0,0,0,0,0,0,0,0,0,376,
scooby_state_4191ff|24|0 375,0,0,0,0,1,0,0,0,0,0,0,0,0,0,376,
scooby_state_418a54|41|1 375,0,0,0,0,0,0,0,1,0,0,0,0,0,0,376,
scooby_state_4191b9|48|1 376,0,0,0,0,0,0,0,0,0,0,0,0,0,0,376,
scooby_state_41916b|15|1 376,0,0,0,0,0,0,0,0,0,0,0,0,0,0,376,
scooby_state_418a6b|56|1 376,0,0,0,0,0,0,0,0,0,0,0,0,0,0,376,
scooby_state_419b68|6|1 375,0,0,0,0,0,0,0,1,0,0,0,0,0,0,376,
scooby_state_419b68|56|1 376,0,0,0,0,0,0,0,0,0,0,0,0,0,0,376,
scooby_state_418a17|7|1 373,0,0,1,0,0,0,1,0,0,0,0,0,0,0,375,
scooby_state_419b68|57|1 375,0,0,0,0,0,0,0,0,0,0,0,0,0,0,375,
scooby_state_41916b|1|1 375,0,0,0,0,0,0,0,0,0,0,0,0,0,0,375,
scooby_state_418a54|52|1 375,0,0,0,0,0,0,0,0,0,0,0,0,0,0,375,
scooby_state_418a54|55|1 374,0,0,0,0,0,0,0,0,0,1,0,0,0,0,375,
scooby_state_41916b|12|1 375,0,0,0,0,0,0,0,0,0,0,0,0,0,0,375,
scooby_state_419b68|53|1 375,0,0,0,0,0,0,0,0,0,0,0,0,0,0,375,
scooby_state_419b68|51|1 375,0,0,0,0,0,0,0,0,0,0,0,0,0,0,375,
scooby_state_419b68|9|1 374,0,0,0,0,0,0,0,1,0,0,0,0,0,0,375,
scooby_state_418a6b|2|1 375,0,0,0,0,0,0,0,0,0,0,0,0,0,0,375,
scooby_state_418a17|2|1 374,1,0,0,0,0,0,0,0,0,0,0,0,0,0,375,
scooby_state_418a6b|41|1 374,0,1,0,0,0,0,0,0,0,0,0,0,0,0,375,
scooby_state_418a6b|7|1 375,0,0,0,0,0,0,0,0,0,0,0,0,0,0,375,
scooby_state_41914f|62|1 374,0,0,0,0,0,0,0,0,0,1,0,0,0,0,375,
scooby_state_418a54|63|1 374,0,0,0,0,0,1,0,0,0,0,0,0,0,0,375,
scooby_state_418a6b|52|1 372,1,0,1,0,0,0,0,0,1,0,0,0,0,0,375,
scooby_state_418a54|56|1 375,0,0,0,0,0,0,0,0,0,0,0,0,0,0,375,
scooby_state_41916b|3|1 372,0,0,0,0,0,1,0,1,0,0,0,0,0,1,375,
scooby_state_418a54|18|1 373,0,1,0,0,0,1,0,0,0,0,0,0,0,0,375,
scooby_state_419b68|52|1 374,0,0,1,0,0,0,0,0,0,0,0,0,0,0,375,
scooby_state_418a6b|57|1 374,0,0,0,0,0,0,0,0,0,0,0,0,1,0,375,
scooby_state_419226|28|1 375,0,0,0,0,0,0,0,0,0,0,0,0,0,0,375,
scooby_state_418a54|53|1 375,0,0,0,0,0,0,0,0,0,0,0,0,0,0,375,
scooby_state_419b68|18|1 375,0,0,0,0,0,0,0,0,0,0,0,0,0,0,375,
scooby_state_4191b9|47|1 375,0,0,0,0,0,0,0,0,0,0,0,0,0,0,375,
scooby_state_41914f|63|1 374,0,0,0,0,0,0,0,0,0,0,0,0,0,1,375,
scooby_state_418ca5|18|1 375,0,0,0,0,0,0,0,0,0,0,0,0,0,0,375,
scooby_state_419b68|54|1 375,0,0,0,0,0,0,0,0,0,0,0,0,0,0,375,
scooby_state_419b68|2|1 374,0,0,0,0,0,0,0,0,0,0,0,1,0,0,375,
scooby_state_419b68|19|1 373,0,0,0,0,1,0,1,0,0,0,0,0,0,0,375,
scooby_state_418a17|1|1 373,1,0,0,0,0,0,0,0,0,0,0,0,0,0,374,
scooby_state_418a54|57|1 373,0,0,0,0,0,1,0,0,0,0,0,0,0,0,374,
scooby_state_4189c9|5|1 374,0,0,0,0,0,0,0,0,0,0,0,0,0,0,374,
scooby_state_419b68|62|1 374,0,0,0,0,0,0,0,0,0,0,0,0,0,0,374,
scooby_state_41916b|5|1 374,0,0,0,0,0,0,0,0,0,0,0,0,0,0,374,
scooby_state_418a17|53|1 373,0,0,0,0,0,0,0,1,0,0,0,0,0,0,374,
scooby_state_419b68|16|1 374,0,0,0,0,0,0,0,0,0,0,0,0,0,0,374,
scooby_state_418a54|8|1 374,0,0,0,0,0,0,0,0,0,0,0,0,0,0,374,
scooby_state_418a54|19|1 374,0,0,0,0,0,0,0,0,0,0,0,0,0,0,374,
scooby_state_419b68|50|1 372,1,0,1,0,0,0,0,0,0,0,0,0,0,0,374,
scooby_state_419b68|45|1 373,0,0,0,0,1,0,0,0,0,0,0,0,0,0,374,
scooby_state_41916b|7|1 374,0,0,0,0,0,0,0,0,0,0,0,0,0,0,374,
scooby_state_41916b|11|1 374,0,0,0,0,0,0,0,0,0,0,0,0,0,0,374,
scooby_state_419b68|17|1 374,0,0,0,0,0,0,0,0,0,0,0,0,0,0,374,
scooby_state_418a17|55|1 373,0,0,0,0,0,0,0,0,0,0,1,0,0,0,374,
scooby_state_419b68|48|1 374,0,0,0,0,0,0,0,0,0,0,0,0,0,0,374,
scooby_state_418a6b|4|1 374,0,0,0,0,0,0,0,0,0,0,0,0,0,0,374,
scooby_state_41916b|4|1 374,0,0,0,0,0,0,0,0,0,0,0,0,0,0,374,
scooby_state_418a17|41|1 374,0,0,0,0,0,0,0,0,0,0,0,0,0,0,374,
scooby_state_418a54|0|0 373,0,0,0,1,0,0,0,0,0,0,0,0,0,0,374,
scooby_state_4189c9|53|1 374,0,0,0,0,0,0,0,0,0,0,0,0,0,0,374,
scooby_state_418a6b|48|1 372,0,0,0,0,0,0,1,0,0,0,0,0,0,1,374,
scooby_state_419b68|43|1 373,0,0,0,0,0,0,0,0,1,0,0,0,0,0,374,
scooby_state_419b68|44|1 373,0,0,0,0,0,0,1,0,0,0,0,0,0,0,374,
scooby_state_419b68|63|1 373,0,1,0,0,0,0,0,0,0,0,0,0,0,0,374,
scooby_state_418a54|44|1 374,0,0,0,0,0,0,0,0,0,0,0,0,0,0,374,
scooby_state_418a54|3|1 373,0,1,0,0,0,0,0,0,0,0,0,0,0,0,374,
scooby_state_418a54|7|1 374,0,0,0,0,0,0,0,0,0,0,0,0,0,0,374,
scooby_state_418a54|17|1 374,0,0,0,0,0,0,0,0,0,0,0,0,0,0,374,
scooby_state_419b68|47|1 374,0,0,0,0,0,0,0,0,0,0,0,0,0,0,374,
scooby_state_419b68|42|1 373,0,0,0,0,0,0,0,0,0,0,0,0,1,0,374,
scooby_state_418a17|9|1 371,0,0,0,1,0,0,0,0,0,0,2,0,0,0,374,
scooby_state_419b68|11|1 373,1,0,0,0,0,0,0,0,0,0,0,0,0,0,374,
scooby_state_418a17|51|1 373,0,0,0,0,0,0,0,0,0,0,0,1,0,0,374,
scooby_state_418a6b|19|1 373,0,0,0,0,0,0,1,0,0,0,0,0,0,0,374,
scooby_state_418a54|51|1 374,0,0,0,0,0,0,0,0,0,0,0,0,0,0,374,
scooby_state_419b68|14|1 374,0,0,0,0,0,0,0,0,0,0,0,0,0,0,374,
scooby_state_41916b|9|1 373,0,0,1,0,0,0,0,0,0,0,0,0,0,0,374,
scooby_state_418a17|0|0 374,0,0,0,0,0,0,0,0,0,0,0,0,0,0,374,
scooby_state_419b68|15|1 373,0,0,0,0,0,0,0,0,0,0,0,1,0,0,374,
scooby_state_41916b|10|1 372,0,0,0,0,1,0,0,0,0,0,1,0,0,0,374,
scooby_state_419b68|60|1 374,0,0,0,0,0,0,0,0,0,0,0,0,0,0,374,
scooby_state_419b68|46|1 374,0,0,0,0,0,0,0,0,0,0,0,0,0,0,374,
scooby_state_418a6b|53|1 374,0,0,0,0,0,0,0,0,0,0,0,0,0,0,374,
[...]
scooby_state_41abf1|5|-15 1,0,0,0,0,0,0,0,0,0,0,0,0,0,0,1,
scooby_state_40f127|63|3 1,0,0,0,0,0,0,0,0,0,0,0,0,0,0,1,
scooby_state_41ac32|5|-15 1,0,0,0,0,0,0,0,0,0,0,0,0,0,0,1,
scooby_state_41ac11|5|-15 1,0,0,0,0,0,0,0,0,0,0,0,0,0,0,1,
scooby_state_4191dc|49|5 0,0,0,0,0,1,0,0,0,0,0,0,0,0,0,1,
scooby_state_41ac02|20|16 1,0,0,0,0,0,0,0,0,0,0,0,0,0,0,1,
scooby_state_417d84|22|0 1,0,0,0,0,0,0,0,0,0,0,0,0,0,0,1,
scooby_state_418a54|56|2 1,0,0,0,0,0,0,0,0,0,0,0,0,0,0,1,
scooby_state_418a17|26|2 1,0,0,0,0,0,0,0,0,0,0,0,0,0,0,1,
scooby_state_418724|24|-1 1,0,0,0,0,0,0,0,0,0,0,0,0,0,0,1,
scooby_state_419226|33|9 1,0,0,0,0,0,0,0,0,0,0,0,0,0,0,1,
scooby_state_41913d|4|-15 1,0,0,0,0,0,0,0,0,0,0,0,0,0,0,1,
scooby_state_40f127|8|2 1,0,0,0,0,0,0,0,0,0,0,0,0,0,0,1,
scooby_state_4191dc|54|3 1,0,0,0,0,0,0,0,0,0,0,0,0,0,0,1,
scooby_state_4109c2|39|1 1,0,0,0,0,0,0,0,0,0,0,0,0,0,0,1,
scooby_state_41a248|42|2 1,0,0,0,0,0,0,0,0,0,0,0,0,0,0,1,
scooby_state_41813d|42|-14 1,0,0,0,0,0,0,0,0,0,0,0,0,0,0,1,
scooby_state_417dae|56|-1 1,0,0,0,0,0,0,0,0,0,0,0,0,0,0,1,
scooby_state_41924e|40|0 1,0,0,0,0,0,0,0,0,0,0,0,0,0,0,1,
scooby_state_41914f|10|0 1,0,0,0,0,0,0,0,0,0,0,0,0,0,0,1,
scooby_state_417df6|26|1 1,0,0,0,0,0,0,0,0,0,0,0,0,0,0,1,
scooby_state_418c78|24|16 1,0,0,0,0,0,0,0,0,0,0,0,0,0,0,1,
scooby_state_41ac2b|21|16 1,0,0,0,0,0,0,0,0,0,0,0,0,0,0,1,
scooby_state_417907|43|6 1,0,0,0,0,0,0,0,0,0,0,0,0,0,0,1,
scooby_state_41a26e|37|-5 1,0,0,0,0,0,0,0,0,0,0,0,0,0,0,1,
scooby_state_418456|27|1 1,0,0,0,0,0,0,0,0,0,0,0,0,0,0,1,
scooby_state_418a6b|26|2 1,0,0,0,0,0,0,0,0,0,0,0,0,0,0,1,
scooby_state_418456|58|32 1,0,0,0,0,0,0,0,0,0,0,0,0,0,0,1,
scooby_state_4192a2|59|-1 1,0,0,0,0,0,0,0,0,0,0,0,0,0,0,1,
scooby_state_40fd7f|2|1 1,0,0,0,0,0,0,0,0,0,0,0,0,0,0,1,
scooby_state_4190ef|5|-31 1,0,0,0,0,0,0,0,0,0,0,0,0,0,0,1,
scooby_state_41875e|50|-1 1,0,0,0,0,0,0,0,0,0,0,0,0,0,0,1,
scooby_state_41875e|51|-1 1,0,0,0,0,0,0,0,0,0,0,0,0,0,0,1,
scooby_state_4181ce|36|-14 1,0,0,0,0,0,0,0,0,0,0,0,0,0,0,1,
scooby_state_418a6b|52|2 1,0,0,0,0,0,0,0,0,0,0,0,0,0,0,1,
scooby_state_417de1|0|-4 1,0,0,0,0,0,0,0,0,0,0,0,0,0,0,1,
scooby_state_41ae8c|38|1 1,0,0,0,0,0,0,0,0,0,0,0,0,0,0,1,
scooby_state_4177b3|49|-1 1,0,0,0,0,0,0,0,0,0,0,0,0,0,0,1,
scooby_state_4181f8|19|1 1,0,0,0,0,0,0,0,0,0,0,0,0,0,0,1,
scooby_state_4181ce|42|1 1,0,0,0,0,0,0,0,0,0,0,0,0,0,0,1,
scooby_state_4190d5|5|-31 1,0,0,0,0,0,0,0,0,0,0,0,0,0,0,1,
scooby_state_41ae1a|6|1 1,0,0,0,0,0,0,0,0,0,0,0,0,0,0,1,
scooby_state_41ac2b|21|17 1,0,0,0,0,0,0,0,0,0,0,0,0,0,0,1,
scooby_state_40f38f|47|1 1,0,0,0,0,0,0,0,0,0,0,0,0,0,0,1,
scooby_state_417907|39|6 1,0,0,0,0,0,0,0,0,0,0,0,0,0,0,1,
scooby_state_418387|54|32 1,0,0,0,0,0,0,0,0,0,0,0,0,0,0,1,
scooby_state_41a26e|36|-3 1,0,0,0,0,0,0,0,0,0,0,0,0,0,0,1,
scooby_state_417dae|4|-1 1,0,0,0,0,0,0,0,0,0,0,0,0,0,0,1,
scooby_state_417e7b|45|31 1,0,0,0,0,0,0,0,0,0,0,0,0,0,0,1,
scooby_state_418a6b|37|2 1,0,0,0,0,0,0,0,0,0,0,0,0,0,0,1,
scooby_state_417d84|44|17 1,0,0,0,0,0,0,0,0,0,0,0,0,0,0,1,
scooby_state_40f035|51|-1 1,0,0,0,0,0,0,0,0,0,0,0,0,0,0,1,
scooby_state_418c78|36|-15 1,0,0,0,0,0,0,0,0,0,0,0,0,0,0,1,
scooby_state_417df6|52|32 1,0,0,0,0,0,0,0,0,0,0,0,0,0,0,1,
scooby_state_41a248|54|2 1,0,0,0,0,0,0,0,0,0,0,0,0,0,0,1,
scooby_state_4186db|55|-1 1,0,0,0,0,0,0,0,0,0,0,0,0,0,0,1,
scooby_state_417e7b|51|32 1,0,0,0,0,0,0,0,0,0,0,0,0,0,0,1,
scooby_state_418d9d|22|-30 1,0,0,0,0,0,0,0,0,0,0,0,0,0,0,1,
scooby_state_41a26e|34|0 1,0,0,0,0,0,0,0,0,0,0,0,0,0,0,1,
scooby_state_4190e1|15|9 1,0,0,0,0,0,0,0,0,0,0,0,0,0,0,1,
scooby_state_417d84|22|1 1,0,0,0,0,0,0,0,0,0,0,0,0,0,0,1,
scooby_state_417907|39|3 1,0,0,0,0,0,0,0,0,0,0,0,0,0,0,1,
scooby_state_417e28|23|17 1,0,0,0,0,0,0,0,0,0,0,0,0,0,0,1,
scooby_state_417907|56|4 1,0,0,0,0,0,0,0,0,0,0,0,0,0,0,1,
scooby_state_417907|48|4 1,0,0,0,0,0,0,0,0,0,0,0,0,0,0,1,
scooby_state_41ac2b|49|0 1,0,0,0,0,0,0,0,0,0,0,0,0,0,0,1,
scooby_state_41913d|3|-25 1,0,0,0,0,0,0,0,0,0,0,0,0,0,0,1,
scooby_state_417e37|61|31 1,0,0,0,0,0,0,0,0,0,0,0,0,0,0,1,
scooby_state_40f6e6|46|1 1,0,0,0,0,0,0,0,0,0,0,0,0,0,0,1,
scooby_state_417907|47|6 1,0,0,0,0,0,0,0,0,0,0,0,0,0,0,1,
scooby_state_4190e1|9|9 1,0,0,0,0,0,0,0,0,0,0,0,0,0,0,1,
scooby_state_40f38f|61|1 1,0,0,0,0,0,0,0,0,0,0,0,0,0,0,1,
scooby_state_410c85|50|1 1,0,0,0,0,0,0,0,0,0,0,0,0,0,0,1,
scooby_state_419121|28|-19 1,0,0,0,0,0,0,0,0,0,0,0,0,0,0,1,
scooby_state_419289|42|12 1,0,0,0,0,0,0,0,0,0,0,0,0,0,0,1,
scooby_state_417dae|37|31 1,0,0,0,0,0,0,0,0,0,0,0,0,0,0,1,
scooby_state_41920b|9|-22 1,0,0,0,0,0,0,0,0,0,0,0,0,0,0,1,
scooby_state_41a248|50|2 1,0,0,0,0,0,0,0,0,0,0,0,0,0,0,1,
scooby_state_40ff81|54|0 1,0,0,0,0,0,0,0,0,0,0,0,0,0,0,1,
scooby_state_4104c2|19|1 1,0,0,0,0,0,0,0,0,0,0,0,0,0,0,1,
scooby_state_417d84|18|17 1,0,0,0,0,0,0,0,0,0,0,0,0,0,0,1,
scooby_state_41a1df|37|1 1,0,0,0,0,0,0,0,0,0,0,0,0,0,0,1,
scooby_state_48b6f8|27|23 1,0,0,0,0,0,0,0,0,0,0,0,0,0,0,1,
scooby_state_41913d|58|1 1,0,0,0,0,0,0,0,0,0,0,0,0,0,0,1,
scooby_state_41a1df|31|1 1,0,0,0,0,0,0,0,0,0,0,0,0,0,0,1,
scooby_state_41914f|7|-40 1,0,0,0,0,0,0,0,0,0,0,0,0,0,0,1,
scooby_state_417e28|8|4 1,0,0,0,0,0,0,0,0,0,0,0,0,0,0,1,
scooby_state_4190d5|20|-14 1,0,0,0,0,0,0,0,0,0,0,0,0,0,0,1,
scooby_state_41924e|14|6 1,0,0,0,0,0,0,0,0,0,0,0,0,0,0,1,
scooby_state_48989b|39|15 1,0,0,0,0,0,0,0,0,0,0,0,0,0,0,1,
scooby_state_419182|6|1 1,0,0,0,0,0,0,0,0,0,0,0,0,0,0,1,
scooby_state_417907|33|3 1,0,0,0,0,0,0,0,0,0,0,0,0,0,0,1,
scooby_state_41820d|21|-15 1,0,0,0,0,0,0,0,0,0,0,0,0,0,0,1,
scooby_state_41920b|7|2 1,0,0,0,0,0,0,0,0,0,0,0,0,0,0,1,
scooby_state_419e4a|58|-1 1,0,0,0,0,0,0,0,0,0,0,0,0,0,0,1,
scooby_state_41913d|59|1 1,0,0,0,0,0,0,0,0,0,0,0,0,0,0,1,
scooby_state_4192c9|14|2 1,0,0,0,0,0,0,0,0,0,0,0,0,0,0,1,
scooby_state_4191b9|58|6 1,0,0,0,0,0,0,0,0,0,0,0,0,0,0,1,
scooby_state_41924e|56|7 1,0,0,0,0,0,0,0,0,0,0,0,0,0,0,1,
scooby_state_41a18d|11|1 1,0,0,0,0,0,0,0,0,0,0,0,0,0,0,1,
scooby_state_419887|34|1 1,0,0,0,0,0,0,0,0,0,0,0,0,0,0,1,
scooby_state_48989b|21|15 1,0,0,0,0,0,0,0,0,0,0,0,0,0,0,1,
scooby_state_40eeb1|23|5 1,0,0,0,0,0,0,0,0,0,0,0,0,0,0,1,
scooby_state_41abf1|4|-15 1,0,0,0,0,0,0,0,0,0,0,0,0,0,0,1,
scooby_state_41913d|56|1 1,0,0,0,0,0,0,0,0,0,0,0,0,0,0,1,
scooby_state_419801|32|1 1,0,0,0,0,0,0,0,0,0,0,0,0,0,0,1,
scooby_state_419a60|41|19 1,0,0,0,0,0,0,0,0,0,0,0,0,0,0,1,
scooby_state_4192a2|1|-4 1,0,0,0,0,0,0,0,0,0,0,0,0,0,0,1,
scooby_state_41ac68|8|-15 1,0,0,0,0,0,0,0,0,0,0,0,0,0,0,1,
scooby_state_40fd7f|58|1 1,0,0,0,0,0,0,0,0,0,0,0,0,0,0,1,
scooby_state_41911b|2|-24 1,0,0,0,0,0,0,0,0,0,0,0,0,0,0,1,
scooby_state_40f463|23|1 1,0,0,0,0,0,0,0,0,0,0,0,0,0,0,1,
scooby_state_41ae8c|7|1 1,0,0,0,0,0,0,0,0,0,0,0,0,0,0,1,
scooby_state_417907|41|5 1,0,0,0,0,0,0,0,0,0,0,0,0,0,0,1,
scooby_state_41a26e|36|-4 1,0,0,0,0,0,0,0,0,0,0,0,0,0,0,1,
scooby_state_419bc0|47|1 1,0,0,0,0,0,0,0,0,0,0,0,0,0,0,1,
scooby_state_417e21|62|0 1,0,0,0,0,0,0,0,0,0,0,0,0,0,0,1,
scooby_state_418758|18|-1 1,0,0,0,0,0,0,0,0,0,0,0,0,0,0,1,
scooby_state_417907|46|3 1,0,0,0,0,0,0,0,0,0,0,0,0,0,0,1,
scooby_state_4192c9|55|13 1,0,0,0,0,0,0,0,0,0,0,0,0,0,0,1,
scooby_state_4190c1|23|-14 1,0,0,0,0,0,0,0,0,0,0,0,0,0,0,1,
scooby_state_40f6c0|27|1 1,0,0,0,0,0,0,0,0,0,0,0,0,0,0,1,
scooby_state_41913d|0|-2 1,0,0,0,0,0,0,0,0,0,0,0,0,0,0,1,
scooby_state_417d84|13|1 1,0,0,0,0,0,0,0,0,0,0,0,0,0,0,1,
scooby_state_41a232|52|1 1,0,0,0,0,0,0,0,0,0,0,0,0,0,0,1,
scooby_state_489c50|49|15 1,0,0,0,0,0,0,0,0,0,0,0,0,0,0,1,
scooby_state_417d77|62|0 1,0,0,0,0,0,0,0,0,0,0,0,0,0,0,1,
scooby_state_418c6a|7|-14 1,0,0,0,0,0,0,0,0,0,0,0,0,0,0,1,
scooby_state_41a26e|9|-4 1,0,0,0,0,0,0,0,0,0,0,0,0,0,0,1,
scooby_state_41913d|8|5 1,0,0,0,0,0,0,0,0,0,0,0,0,0,0,1,
scooby_state_418103|4|1 1,0,0,0,0,0,0,0,0,0,0,0,0,0,0,1,
scooby_state_4192a2|63|5 1,0,0,0,0,0,0,0,0,0,0,0,0,0,0,1,
scooby_state_410a89|42|1 1,0,0,0,0,0,0,0,0,0,0,0,0,0,0,1,
scooby_state_419289|24|6 1,0,0,0,0,0,0,0,0,0,0,0,0,0,0,1,
scooby_state_4192ad|60|51 1,0,0,0,0,0,0,0,0,0,0,0,0,0,0,1,
scooby_state_40fd7f|34|1 1,0,0,0,0,0,0,0,0,0,0,0,0,0,0,1,
scooby_state_40efc0|63|1 1,0,0,0,0,0,0,0,0,0,0,0,0,0,0,1,
scooby_state_417d84|31|0 1,0,0,0,0,0,0,0,0,0,0,0,0,0,0,1,
scooby_state_41911b|60|1 1,0,0,0,0,0,0,0,0,0,0,0,0,0,0,1,
scooby_state_419303|61|3 1,0,0,0,0,0,0,0,0,0,0,0,0,0,0,1,
scooby_state_41a003|0|0 1,0,0,0,0,0,0,0,0,0,0,0,0,0,0,1,
scooby_state_418c6a|4|-31 1,0,0,0,0,0,0,0,0,0,0,0,0,0,0,1,
scooby_state_41a18d|15|1 1,0,0,0,0,0,0,0,0,0,0,0,0,0,0,1,
scooby_state_40f60f|20|1 1,0,0,0,0,0,0,0,0,0,0,0,0,0,0,1,
scooby_state_41a1ab|32|-1 1,0,0,0,0,0,0,0,0,0,0,0,0,0,0,1,
scooby_state_419289|45|2 1,0,0,0,0,0,0,0,0,0,0,0,0,0,0,1,
scooby_state_41a26e|17|-2 1,0,0,0,0,0,0,0,0,0,0,0,0,0,0,1,
scooby_state_410788|30|1 1,0,0,0,0,0,0,0,0,0,0,0,0,0,0,1,
scooby_state_417e5f|45|2 1,0,0,0,0,0,0,0,0,0,0,0,0,0,0,1,
scooby_state_417907|45|5 1,0,0,0,0,0,0,0,0,0,0,0,0,0,0,1,
scooby_state_40fd7f|26|1 1,0,0,0,0,0,0,0,0,0,0,0,0,0,0,1,
scooby_state_48b219|15|15 1,0,0,0,0,0,0,0,0,0,0,0,0,0,0,1,
scooby_state_41a26e|36|1 1,0,0,0,0,0,0,0,0,0,0,0,0,0,0,1,
scooby_state_41a538|40|1 1,0,0,0,0,0,0,0,0,0,0,0,0,0,0,1,
scooby_state_41a507|41|16 1,0,0,0,0,0,0,0,0,0,0,0,0,0,0,1,
scooby_state_4190db|47|6 1,0,0,0,0,0,0,0,0,0,0,0,0,0,0,1,
scooby_state_41ac32|7|-16 1,0,0,0,0,0,0,0,0,0,0,0,0,0,0,1,
scooby_state_41a1df|45|1 1,0,0,0,0,0,0,0,0,0,0,0,0,0,0,1,
scooby_state_4192c9|28|3 1,0,0,0,0,0,0,0,0,0,0,0,0,0,0,1,
scooby_state_41a26e|56|-3 1,0,0,0,0,0,0,0,0,0,0,0,0,0,0,1,
scooby_state_4191dc|52|-4 1,0,0,0,0,0,0,0,0,0,0,0,0,0,0,1,
scooby_state_4192a2|62|0 1,0,0,0,0,0,0,0,0,0,0,0,0,0,0,1,
scooby_state_41ac02|19|1 1,0,0,0,0,0,0,0,0,0,0,0,0,0,0,1,
scooby_state_41924e|45|31 1,0,0,0,0,0,0,0,0,0,0,0,0,0,0,1,
scooby_state_41a232|63|1 1,0,0,0,0,0,0,0,0,0,0,0,0,0,0,1,
scooby_state_417907|61|3 1,0,0,0,0,0,0,0,0,0,0,0,0,0,0,1,
scooby_state_40f4dd|5|0 1,0,0,0,0,0,0,0,0,0,0,0,0,0,0,1,
scooby_state_41ae1a|5|-16 1,0,0,0,0,0,0,0,0,0,0,0,0,0,0,1,
scooby_state_41a232|3|1 1,0,0,0,0,0,0,0,0,0,0,0,0,0,0,1,
scooby_state_418325|33|32 1,0,0,0,0,0,0,0,0,0,0,0,0,0,0,1,
scooby_state_41a538|32|1 1,0,0,0,0,0,0,0,0,0,0,0,0,0,0,1,
scooby_state_417e21|33|0 1,0,0,0,0,0,0,0,0,0,0,0,0,0,0,1,
scooby_state_417de1|33|0 1,0,0,0,0,0,0,0,0,0,0,0,0,0,0,1,
scooby_state_41ac11|37|-15 1,0,0,0,0,0,0,0,0,0,0,0,0,0,0,1,
scooby_state_4190d5|6|-30 1,0,0,0,0,0,0,0,0,0,0,0,0,0,0,1,
scooby_state_419303|43|9 1,0,0,0,0,0,0,0,0,0,0,0,0,0,0,1,
scooby_state_417e7b|55|31 1,0,0,0,0,0,0,0,0,0,0,0,0,0,0,1,
scooby_state_41a26e|17|0 1,0,0,0,0,0,0,0,0,0,0,0,0,0,0,1,
scooby_state_41813d|37|-14 1,0,0,0,0,0,0,0,0,0,0,0,0,0,0,1,
scooby_state_41ae1a|37|1 1,0,0,0,0,0,0,0,0,0,0,0,0,0,0,1,
scooby_state_417d84|45|1 1,0,0,0,0,0,0,0,0,0,0,0,0,0,0,1,
scooby_state_41911b|14|8 1,0,0,0,0,0,0,0,0,0,0,0,0,0,0,1,
scooby_state_41911b|15|10 1,0,0,0,0,0,0,0,0,0,0,0,0,0,0,1,
scooby_state_41875e|13|-1 1,0,0,0,0,0,0,0,0,0,0,0,0,0,0,1,
scooby_state_40f38f|55|1 1,0,0,0,0,0,0,0,0,0,0,0,0,0,0,1,
scooby_state_417e7b|61|31 1,0,0,0,0,0,0,0,0,0,0,0,0,0,0,1,
scooby_state_4191b9|50|4 1,0,0,0,0,0,0,0,0,0,0,0,0,0,0,1,
scooby_state_41ac11|4|-16 1,0,0,0,0,0,0,0,0,0,0,0,0,0,0,1,
scooby_state_41ac02|20|17 1,0,0,0,0,0,0,0,0,0,0,0,0,0,0,1,
scooby_state_41abf1|4|-16 1,0,0,0,0,0,0,0,0,0,0,0,0,0,0,1,
scooby_state_41914f|5|-44 1,0,0,0,0,0,0,0,0,0,0,0,0,0,0,1,
scooby_state_419226|30|-6 1,0,0,0,0,0,0,0,0,0,0,0,0,0,0,1,
scooby_state_41875e|54|-1 1,0,0,0,0,0,0,0,0,0,0,0,0,0,0,1,
scooby_state_418a6b|7|2 1,0,0,0,0,0,0,0,0,0,0,0,0,0,0,1,
scooby_state_41913d|54|1 1,0,0,0,0,0,0,0,0,0,0,0,0,0,0,1,
scooby_state_41ac68|4|-16 1,0,0,0,0,0,0,0,0,0,0,0,0,0,0,1,
scooby_state_419289|46|16 1,0,0,0,0,0,0,0,0,0,0,0,0,0,0,1,
scooby_state_418758|30|-1 1,0,0,0,0,0,0,0,0,0,0,0,0,0,0,1,
scooby_state_41a1df|33|1 1,0,0,0,0,0,0,0,0,0,0,0,0,0,0,1,
scooby_state_4192a2|4|-1 1,0,0,0,0,0,0,0,0,0,0,0,0,0,0,1,
scooby_state_4190ce|40|-14 1,0,0,0,0,0,0,0,0,0,0,0,0,0,0,1,
scooby_state_418a6b|53|2 1,0,0,0,0,0,0,0,0,0,0,0,0,0,0,1,
scooby_state_40fd75|38|1 1,0,0,0,0,0,0,0,0,0,0,0,0,0,0,1,
scooby_state_41a1df|39|1 1,0,0,0,0,0,0,0,0,0,0,0,0,0,0,1,
scooby_state_40f127|13|3 1,0,0,0,0,0,0,0,0,0,0,0,0,0,0,1,
scooby_state_418e00|56|1 1,0,0,0,0,0,0,0,0,0,0,0,0,0,0,1,
scooby_state_41913d|51|1 1,0,0,0,0,0,0,0,0,0,0,0,0,0,0,1,
scooby_state_41911b|51|1 1,0,0,0,0,0,0,0,0,0,0,0,0,0,0,1,
scooby_state_41ac68|35|-15 1,0,0,0,0,0,0,0,0,0,0,0,0,0,0,1,
scooby_state_41ac11|35|-15 1,0,0,0,0,0,0,0,0,0,0,0,0,0,0,1,
scooby_state_41abf1|35|-15 1,0,0,0,0,0,0,0,0,0,0,0,0,0,0,1,
scooby_state_40f38f|58|1 1,0,0,0,0,0,0,0,0,0,0,0,0,0,0,1,
scooby_state_419908|33|3 1,0,0,0,0,0,0,0,0,0,0,0,0,0,0,1,
scooby_state_4190d5|4|-31 1,0,0,0,0,0,0,0,0,0,0,0,0,0,0,1,
scooby_state_418d9d|5|-15 1,0,0,0,0,0,0,0,0,0,0,0,0,0,0,1,
scooby_state_418d8f|20|16 1,0,0,0,0,0,0,0,0,0,0,0,0,0,0,1,
scooby_state_41ae8c|5|1 1,0,0,0,0,0,0,0,0,0,0,0,0,0,0,1,
scooby_state_41aa2d|50|3 1,0,0,0,0,0,0,0,0,0,0,0,0,0,0,1,
scooby_state_41ae60|5|1 1,0,0,0,0,0,0,0,0,0,0,0,0,0,0,1,
scooby_state_41ae1a|5|1 1,0,0,0,0,0,0,0,0,0,0,0,0,0,0,1,

scooby_action_0_deg_dist 0,260,0,0,0,0,0,0,0,0,0,0,0,0,0,0,
scooby_action_4_deg_dist 0,264,0,0,0,0,0,0,0,0,0,0,0,0,0,0,
scooby_action_32_deg_dist 0,211,0,0,0,0,0,0,0,0,0,0,0,0,0,0,
scooby_action_3_deg_dist 0,272,0,0,0,0,0,0,0,0,0,0,0,0,0,0,
scooby_action_5_deg_dist 0,240,0,0,0,0,0,0,0,0,0,0,0,0,0,0,
scooby_action_1_deg_dist 0,92241,55308,0,146737,0,1793543,0,0,0,0,0,0,0,0,0,
scooby_action_30_deg_dist 0,245,0,0,0,0,0,0,0,0,0,0,0,0,0,0,
scooby_action_-3_deg_dist 0,259,0,0,0,0,0,0,0,0,0,0,0,0,0,0,
scooby_action_10_deg_dist 0,287,0,0,0,0,0,0,0,0,0,0,0,0,0,0,
scooby_action_-1_deg_dist 0,257,0,0,0,0,0,0,0,0,0,0,0,0,0,0,
scooby_action_23_deg_dist 0,261,0,0,0,0,0,0,0,0,0,0,0,0,0,0,
scooby_action_-6_deg_dist 0,244,0,0,0,0,0,0,0,0,0,0,0,0,0,0,
scooby_action_11_deg_dist 0,253,0,0,0,0,0,0,0,0,0,0,0,0,0,0,
scooby_action_22_deg_dist 0,266,0,0,0,0,0,0,0,0,0,0,0,0,0,0,
scooby_action_12_deg_dist 0,255,0,0,0,0,0,0,0,0,0,0,0,0,0,0,

scooby_track_called 2091403
scooby_track_same_address 10405
scooby_track_evict 2080742

scooby_reward_demand_called 2091403
scooby_reward_demand_pt_not_found 131339
scooby_reward_demand_pt_found 1960064
scooby_reward_demand_pt_found_total 1960064
scooby_reward_demand_has_reward 5893
scooby_reward_train_called 93359
scooby_reward_assign_reward_called 2080990
scooby_reward_no_pref 260
scooby_reward_incorrect 93099
scooby_reward_correct_untimely 1794673
scooby_reward_correct_timely 159498
scooby_reward_out_of_bounds 33460
scooby_reward_tracker_hit 0

scooby_reward_none_low_bw 260
scooby_reward_none_high_bw 0
scooby_reward_incorrect_low_bw 93099
scooby_reward_incorrect_high_bw 0
scooby_reward_correct_untimely_low_bw 1794673
scooby_reward_correct_untimely_high_bw 0
scooby_reward_correct_timely_low_bw 159498
scooby_reward_correct_timely_high_bw 0
scooby_reward_out_of_bounds_low_bw 33460
scooby_reward_out_of_bounds_high_bw 0
scooby_reward_tracker_hit_low_bw 0
scooby_reward_tracker_hit_high_bw 0

scooby_reward_1 0,92412,1794211,158678,32815,0,
scooby_reward_3 0,21,168,64,11,0,
scooby_reward_4 0,35,132,62,24,0,
scooby_reward_5 0,31,86,90,23,0,
scooby_reward_10 0,79,15,127,44,0,
scooby_reward_11 0,64,19,105,46,0,
scooby_reward_12 0,72,9,117,41,0,
scooby_reward_22 0,80,10,83,92,0,
scooby_reward_23 0,78,8,77,96,0,
scooby_reward_30 0,60,0,56,118,0,
scooby_reward_32 0,58,1,39,106,0,
scooby_reward_-1 0,21,4,0,7,0,
scooby_reward_-3 0,29,4,0,17,0,
scooby_reward_-6 0,59,6,0,20,0,
scooby_reward_0 260,0,0,0,0,0,

scooby_train_called 2080741
scooby_train_compute_reward 93359

scooby_register_fill_called 1376999
scooby_register_fill_set 167292
scooby_register_fill_set_total 167292

scooby_register_prefetch_hit_called 6275436
scooby_register_prefetch_hit_set 1893586
scooby_register_prefetch_hit_set_total 1893586

scooby_pref_issue_scooby 10812619

learning_engine_featurewise.action.called 2091403
learning_engine_featurewise.action.explore 3818
learning_engine_featurewise.action.exploit 2087585
learning_engine_featurewise.action.fallback 0
learning_engine_featurewise.action.dyn_fallback_saved_bw 0
learning_engine_featurewise.action.dyn_fallback_saved_bw_acc 193
learning_engine_featurewise.action.index_1_explored 245
learning_engine_featurewise.action.index_1_exploited 2087584
learning_engine_featurewise.action.index_3_explored 271
learning_engine_featurewise.action.index_3_exploited 1
learning_engine_featurewise.action.index_4_explored 264
learning_engine_featurewise.action.index_4_exploited 0
learning_engine_featurewise.action.index_5_explored 240
learning_engine_featurewise.action.index_5_exploited 0
learning_engine_featurewise.action.index_10_explored 287
learning_engine_featurewise.action.index_10_exploited 0
learning_engine_featurewise.action.index_11_explored 253
learning_engine_featurewise.action.index_11_exploited 0
learning_engine_featurewise.action.index_12_explored 255
learning_engine_featurewise.action.index_12_exploited 0
learning_engine_featurewise.action.index_22_explored 266
learning_engine_featurewise.action.index_22_exploited 0
learning_engine_featurewise.action.index_23_explored 261
learning_engine_featurewise.action.index_23_exploited 0
learning_engine_featurewise.action.index_30_explored 245
learning_engine_featurewise.action.index_30_exploited 0
learning_engine_featurewise.action.index_32_explored 211
learning_engine_featurewise.action.index_32_exploited 0
learning_engine_featurewise.action.index_-1_explored 257
learning_engine_featurewise.action.index_-1_exploited 0
learning_engine_featurewise.action.index_-3_explored 259
learning_engine_featurewise.action.index_-3_exploited 0
learning_engine_featurewise.action.index_-6_explored 244
learning_engine_featurewise.action.index_-6_exploited 0
learning_engine_featurewise.action.index_0_explored 260
learning_engine_featurewise.action.index_0_exploited 0
learning_engine_featurewise.learn.called 2080741
learning_engine_featurewise.learn.su_skip_PC 0
learning_engine_featurewise.learn.su_skip_PC_Delta 0

learning_engine_featurewise.q_value_histogram.bucket_0 0
learning_engine_featurewise.q_value_histogram.bucket_1 0
learning_engine_featurewise.q_value_histogram.bucket_2 0
learning_engine_featurewise.q_value_histogram.bucket_3 0
learning_engine_featurewise.q_value_histogram.bucket_4 2357
learning_engine_featurewise.q_value_histogram.bucket_5 5267
learning_engine_featurewise.q_value_histogram.bucket_6 2079961
learning_engine_featurewise.q_value_histogram.bucket_7 0

learning_engine_featurewise.consensus.total 2087585
learning_engine_featurewise.consensus.feature_align_PC 2086949
learning_engine_featurewise.consensus.feature_align_PC_ratio 1.00
learning_engine_featurewise.consensus.feature_align_PC_Delta 2087544
learning_engine_featurewise.consensus.feature_align_PC_Delta_ratio 1.00
learning_engine_featurewise.consensus.feature_align_all 2086908
learning_engine_featurewise.consensus.feature_align_all_ratio 1.00

learning_engine_featurewise.feature_PC_min_weight 1000000.00000000
learning_engine_featurewise.feature_PC_max_weight 0.00000000
learning_engine_featurewise.feature_PC_Delta_min_weight 1000000.00000000
learning_engine_featurewise.feature_PC_Delta_max_weight 0.00000000
unique_pcs 703
unique_pages 11849
unique_trigger_pcs 205
total_bitmaps_seen 0
unique_bitmaps_seen 0

scooby_bw_epochs 263961
scooby_bw_level_0 77015
scooby_bw_level_1 79167
scooby_bw_level_2 50910
scooby_bw_level_3 56869

scooby_ipc_epochs 0
scooby_ipc_level_0 0
scooby_ipc_level_1 0
scooby_ipc_level_2 0
scooby_ipc_level_3 0

scooby_cache_acc_epochs 64438
scooby_cache_acc_level_0 8
scooby_cache_acc_level_1 27
scooby_cache_acc_level_2 75
scooby_cache_acc_level_3 342
scooby_cache_acc_level_4 1224
scooby_cache_acc_level_5 1833
scooby_cache_acc_level_6 2404
scooby_cache_acc_level_7 3312
scooby_cache_acc_level_8 5316
scooby_cache_acc_level_9 49897

Channel_0_RQ_row_buffer_hit 523034
Channel_0_RQ_row_buffer_miss 764120
Channel_0_WQ_row_buffer_hit 81334
Channel_0_WQ_row_buffer_miss 278885
Channel_0_WQ_full 1059
Channel_0_dbus_congested 973886

avg_congested_cycle 10

DRAM_bw_pochs 263961
DRAM_bw_level_0 77015
DRAM_bw_level_1 79167
DRAM_bw_level_2 50910
DRAM_bw_level_3 56869
