*************************************************
   ChampSim Multicore Out-of-Order Simulator
   Last compiled: Apr  3 2025 20:54:34
*************************************************
parsing config file: /home/zir/Pythia/config/pythia.ini

trace_0 /home/zir/ChampSim/ML-DPC/ChampSimTraces/spec06/473.astar-s0.trace.gz
adding L2C_PREFETCHER: Scooby
Initialize SHIP state
warmup_instructions 10000000
simulation_instructions 50000000
champsim_seed 163
measure_ipc 0
measure_ipc_epoch 1000
measure_dram_bw 1
measure_dram_bw_epoch 256
measure_cache_acc 1
measure_cache_acc_epoch 1024
l1d_perfect 0
l2c_perfect 0
llc_perfect 0
l1d_semi_perfect 0
l2c_semi_perfect 0
llc_semi_perfect 0
semi_perfect_cache_page_buffer_size 64

num_cpus 1
cpu_freq 4000
dram_io_freq 2400
page_size 4096
block_size 64
max_read_per_cycle 8
max_fill_per_cycle 1
dram_channels 1
log2_dram_channels 0
dram_ranks 1
dram_banks 8
dram_rows 65536
dram_columns 128
dram_row_size 8
dram_size 4096
dram_pages 1048576

fetch_width 6
decode_width 6
exec_width 4
lq_width 2
sq_width 2
retire_width 4
scheduler_size 128
branch_mispredict_penalty 20
rob_size 256
lq_size 72
sq_size 56
num_instr_destinations_sparc 4
num_instr_destinations 2
num_instr_sources 4

itlb_set 16
itlb_way 8
itlb_rq_size 16
itlb_wq_size 16
itlb_pq_size 0
itlb_mshr_size 8
itlb_latency 1

dtlb_set 16
dtlb_way 4
dtlb_rq_size 16
dtlb_wq_size 16
dtlb_pq_size 0
dtlb_mshr_size 8
dtlb_latency 1

stlb_set 128
stlb_way 12
stlb_rq_size 32
stlb_wq_size 32
stlb_pq_size 0
stlb_mshr_size 16
stlb_latency 8

l1i_size 32
l1i_set 64
l1i_way 8
l1i_rq_size 64
l1i_wq_size 64
l1i_pq_size 8
l1i_mshr_size 8
l1i_latency 1

l1d_size 32
l1d_set 64
l1d_way 8
l1d_rq_size 64
l1d_wq_size 64
l1d_pq_size 8
l1d_mshr_size 16
l1d_latency 4

l2c_size 256
l2c_set 512
l2c_way 8
l2c_rq_size 32
l2c_wq_size 32
l2c_pq_size 32
l2c_mshr_size 32
l2c_latency 10

llc_size 2048
llc_set 2048
llc_way 16
llc_rq_size 32
llc_wq_size 32
llc_pq_size 32
llc_mshr_size 64
llc_latency 20

dram_channel_width 8
dram_wq_size 64
dram_rq_size 64
tRP 15
tRCD 15
tCAS 12.5
dram_dbus_turn_around_time 30
dram_write_high_wm 56
dram_write_low_wm 48
min_dram_writes_per_switch 16
dram_mtps 2400
dram_dbus_return_time 13

scooby_alpha 0.0065088
scooby_gamma 0.556301
scooby_epsilon 0.00182284
scooby_state_num_bits 10
scooby_max_states 1024
scooby_seed 200
scooby_policy EGreedy
scooby_learning_type SARSA
scooby_actions 1,3,4,5,10,11,12,22,23,30,32,-1,-3,-6,0,
scooby_max_actions 15
scooby_pt_size 256
scooby_st_size 64
scooby_max_pcs 5
scooby_max_offsets 5
scooby_max_deltas 5
scooby_reward_none -4
scooby_reward_incorrect -8
scooby_reward_correct_untimely 12
scooby_reward_correct_timely 20
scooby_brain_zero_init 0
scooby_enable_reward_all 0
scooby_enable_track_multiple 0
scooby_enable_reward_out_of_bounds 1
scooby_reward_out_of_bounds -12
scooby_state_type 1
scooby_state_hash_type 11
scooby_access_debug 0
scooby_print_access_debug 0
scooby_print_access_debug_pc deadbeef
scooby_print_access_debug_pc_count 0
scooby_print_trace 0
scooby_enable_state_action_stats 1
scooby_enable_reward_tracker_hit 0
scooby_reward_tracker_hit -2
scooby_enable_featurewise_engine 1
scooby_pref_degree 1
scooby_enable_dyn_degree 1
scooby_max_to_avg_q_thresholds 0.5,1,2,
scooby_dyn_degrees 1,2,4,4,
scooby_multi_deg_select_type 2
scooby_last_pref_offset_conf_thresholds 1,3,8,
scooby_dyn_degrees_type2 1,2,4,6,
scooby_action_tracker_size 2
scooby_high_bw_thresh 4
scooby_enable_hbw_reward 1
scooby_reward_hbw_correct_timely 20
scooby_reward_hbw_correct_untimely 12
scooby_reward_hbw_incorrect -14
scooby_reward_hbw_none -2
scooby_reward_hbw_out_of_bounds -12
scooby_reward_hbw_tracker_hit -2
scooby_last_pref_offset_conf_thresholds_hbw 1,3,8,
scooby_dyn_degrees_type2_hbw 1,2,4,6,

le_enable_trace 0
le_trace_interval 0
le_trace_file_name 
le_trace_state 0
le_enable_score_plot 0
le_plot_file_name 
le_plot_actions 
le_enable_action_trace 0
le_action_trace_interval 0
le_action_trace_name 
le_enable_action_plot 0

le_featurewise_active_features PC, PC_Delta
le_featurewise_num_tilings 3,3,
le_featurewise_num_tiles 128,128,
le_featurewise_hash_types 2,2,
le_featurewise_enable_tiling_offset 1,1,
le_featurewise_max_q_thresh 0.5
le_featurewise_enable_action_fallback 1
le_featurewise_feature_weights 1,1,
le_featurewise_enable_dynamic_weight 0
le_featurewise_weight_gradient 0.001
le_featurewise_disable_adjust_weight_all_features_align 1
le_featurewise_selective_update 0
le_featurewise_pooling_type 2
le_featurewise_enable_dyn_action_fallback 1
le_featurewise_bw_acc_check_level 1
le_featurewise_acc_thresh 2
le_featurewise_enable_trace 0
le_featurewise_trace_feature_type 0
le_featurewise_trace_feature 
le_featurewise_trace_interval 0
le_featurewise_trace_record_count 0
le_featurewise_trace_file_name 
le_featurewise_enable_score_plot 0
le_featurewise_plot_actions 
le_featurewise_plot_file_name 


Heartbeat CPU  0 instructions:    1000002 cycles:     682525 heartbeat IPC: 1.46515 cumulative IPC: 1.46515 (Simulation time: 0 hr 0 min 1 sec) 
Heartbeat CPU  0 instructions:    2000003 cycles:    1357477 heartbeat IPC: 1.48159 cumulative IPC: 1.47332 (Simulation time: 0 hr 0 min 3 sec) 
Heartbeat CPU  0 instructions:    3000003 cycles:    2015184 heartbeat IPC: 1.52043 cumulative IPC: 1.48870 (Simulation time: 0 hr 0 min 4 sec) 
Heartbeat CPU  0 instructions:    4000000 cycles:    2670091 heartbeat IPC: 1.52693 cumulative IPC: 1.49808 (Simulation time: 0 hr 0 min 5 sec) 
Heartbeat CPU  0 instructions:    5000000 cycles:    3317769 heartbeat IPC: 1.54398 cumulative IPC: 1.50704 (Simulation time: 0 hr 0 min 7 sec) 
Heartbeat CPU  0 instructions:    6000003 cycles:    3941562 heartbeat IPC: 1.60310 cumulative IPC: 1.52224 (Simulation time: 0 hr 0 min 8 sec) 
Heartbeat CPU  0 instructions:    7000001 cycles:    4576665 heartbeat IPC: 1.57454 cumulative IPC: 1.52950 (Simulation time: 0 hr 0 min 10 sec) 
Heartbeat CPU  0 instructions:    8000000 cycles:    5209729 heartbeat IPC: 1.57962 cumulative IPC: 1.53559 (Simulation time: 0 hr 0 min 11 sec) 
Heartbeat CPU  0 instructions:    9000000 cycles:    5853382 heartbeat IPC: 1.55363 cumulative IPC: 1.53757 (Simulation time: 0 hr 0 min 13 sec) 
Heartbeat CPU  0 instructions:   10000000 cycles:    6508886 heartbeat IPC: 1.52554 cumulative IPC: 1.53636 (Simulation time: 0 hr 0 min 14 sec) 

Warmup complete CPU  0 instructions:   10000001 cycles:    6508889 (Simulation time: 0 hr 0 min 14 sec) 

Heartbeat CPU  0 instructions:   11000003 cycles:    8709764 heartbeat IPC: 0.45437 cumulative IPC: 0.45437 (Simulation time: 0 hr 0 min 16 sec) 
Heartbeat CPU  0 instructions:   12000000 cycles:   10932677 heartbeat IPC: 0.44986 cumulative IPC: 0.45210 (Simulation time: 0 hr 0 min 18 sec) 
Heartbeat CPU  0 instructions:   13000000 cycles:   13142014 heartbeat IPC: 0.45262 cumulative IPC: 0.45228 (Simulation time: 0 hr 0 min 20 sec) 
Heartbeat CPU  0 instructions:   14000000 cycles:   15375093 heartbeat IPC: 0.44781 cumulative IPC: 0.45115 (Simulation time: 0 hr 0 min 22 sec) 
Heartbeat CPU  0 instructions:   15000000 cycles:   17639724 heartbeat IPC: 0.44157 cumulative IPC: 0.44920 (Simulation time: 0 hr 0 min 24 sec) 
Heartbeat CPU  0 instructions:   16000000 cycles:   19955174 heartbeat IPC: 0.43188 cumulative IPC: 0.44622 (Simulation time: 0 hr 0 min 26 sec) 
Heartbeat CPU  0 instructions:   17000003 cycles:   22213873 heartbeat IPC: 0.44273 cumulative IPC: 0.44572 (Simulation time: 0 hr 0 min 28 sec) 
Heartbeat CPU  0 instructions:   18000002 cycles:   24458865 heartbeat IPC: 0.44544 cumulative IPC: 0.44568 (Simulation time: 0 hr 0 min 31 sec) 
Heartbeat CPU  0 instructions:   19000001 cycles:   26700597 heartbeat IPC: 0.44608 cumulative IPC: 0.44573 (Simulation time: 0 hr 0 min 33 sec) 
Heartbeat CPU  0 instructions:   20000000 cycles:   28945928 heartbeat IPC: 0.44537 cumulative IPC: 0.44569 (Simulation time: 0 hr 0 min 35 sec) 
Heartbeat CPU  0 instructions:   21000003 cycles:   31236324 heartbeat IPC: 0.43661 cumulative IPC: 0.44485 (Simulation time: 0 hr 0 min 37 sec) 
Heartbeat CPU  0 instructions:   22000002 cycles:   33663234 heartbeat IPC: 0.41205 cumulative IPC: 0.44192 (Simulation time: 0 hr 0 min 39 sec) 
Heartbeat CPU  0 instructions:   23000001 cycles:   36053266 heartbeat IPC: 0.41840 cumulative IPC: 0.44002 (Simulation time: 0 hr 0 min 41 sec) 
Heartbeat CPU  0 instructions:   24000000 cycles:   38461917 heartbeat IPC: 0.41517 cumulative IPC: 0.43814 (Simulation time: 0 hr 0 min 43 sec) 
Heartbeat CPU  0 instructions:   25000003 cycles:   40609633 heartbeat IPC: 0.46561 cumulative IPC: 0.43987 (Simulation time: 0 hr 0 min 45 sec) 
Heartbeat CPU  0 instructions:   26000003 cycles:   42305109 heartbeat IPC: 0.58980 cumulative IPC: 0.44697 (Simulation time: 0 hr 0 min 47 sec) 
Heartbeat CPU  0 instructions:   27000000 cycles:   44058272 heartbeat IPC: 0.57040 cumulative IPC: 0.45274 (Simulation time: 0 hr 0 min 49 sec) 
Heartbeat CPU  0 instructions:   28000000 cycles:   45917191 heartbeat IPC: 0.53795 cumulative IPC: 0.45676 (Simulation time: 0 hr 0 min 51 sec) 
Heartbeat CPU  0 instructions:   29000000 cycles:   47728360 heartbeat IPC: 0.55213 cumulative IPC: 0.46095 (Simulation time: 0 hr 0 min 53 sec) 
Heartbeat CPU  0 instructions:   30000000 cycles:   49577342 heartbeat IPC: 0.54084 cumulative IPC: 0.46438 (Simulation time: 0 hr 0 min 55 sec) 
Heartbeat CPU  0 instructions:   31000002 cycles:   51408741 heartbeat IPC: 0.54603 cumulative IPC: 0.46771 (Simulation time: 0 hr 0 min 57 sec) 
Heartbeat CPU  0 instructions:   32000000 cycles:   53235854 heartbeat IPC: 0.54731 cumulative IPC: 0.47082 (Simulation time: 0 hr 0 min 59 sec) 
Heartbeat CPU  0 instructions:   33000000 cycles:   55087035 heartbeat IPC: 0.54020 cumulative IPC: 0.47346 (Simulation time: 0 hr 1 min 0 sec) 
Heartbeat CPU  0 instructions:   34000001 cycles:   56897112 heartbeat IPC: 0.55246 cumulative IPC: 0.47630 (Simulation time: 0 hr 1 min 3 sec) 
Heartbeat CPU  0 instructions:   35000000 cycles:   58713619 heartbeat IPC: 0.55051 cumulative IPC: 0.47888 (Simulation time: 0 hr 1 min 5 sec) 
Heartbeat CPU  0 instructions:   36000000 cycles:   60470739 heartbeat IPC: 0.56911 cumulative IPC: 0.48182 (Simulation time: 0 hr 1 min 7 sec) 
Heartbeat CPU  0 instructions:   37000001 cycles:   62298399 heartbeat IPC: 0.54715 cumulative IPC: 0.48396 (Simulation time: 0 hr 1 min 9 sec) 
Heartbeat CPU  0 instructions:   38000000 cycles:   64147162 heartbeat IPC: 0.54090 cumulative IPC: 0.48579 (Simulation time: 0 hr 1 min 11 sec) 
Heartbeat CPU  0 instructions:   39000001 cycles:   65949238 heartbeat IPC: 0.55492 cumulative IPC: 0.48788 (Simulation time: 0 hr 1 min 13 sec) 
Heartbeat CPU  0 instructions:   40000000 cycles:   67784321 heartbeat IPC: 0.54493 cumulative IPC: 0.48959 (Simulation time: 0 hr 1 min 15 sec) 
Heartbeat CPU  0 instructions:   41000001 cycles:   69567490 heartbeat IPC: 0.56080 cumulative IPC: 0.49161 (Simulation time: 0 hr 1 min 17 sec) 
Heartbeat CPU  0 instructions:   42000001 cycles:   71429996 heartbeat IPC: 0.53691 cumulative IPC: 0.49291 (Simulation time: 0 hr 1 min 19 sec) 
Heartbeat CPU  0 instructions:   43000001 cycles:   73340090 heartbeat IPC: 0.52353 cumulative IPC: 0.49378 (Simulation time: 0 hr 1 min 21 sec) 
Heartbeat CPU  0 instructions:   44000000 cycles:   75267514 heartbeat IPC: 0.51883 cumulative IPC: 0.49448 (Simulation time: 0 hr 1 min 23 sec) 
Heartbeat CPU  0 instructions:   45000000 cycles:   77263374 heartbeat IPC: 0.50104 cumulative IPC: 0.49467 (Simulation time: 0 hr 1 min 25 sec) 
Heartbeat CPU  0 instructions:   46000002 cycles:   79131105 heartbeat IPC: 0.53541 cumulative IPC: 0.49572 (Simulation time: 0 hr 1 min 27 sec) 
Heartbeat CPU  0 instructions:   47000000 cycles:   81009381 heartbeat IPC: 0.53240 cumulative IPC: 0.49664 (Simulation time: 0 hr 1 min 29 sec) 
Heartbeat CPU  0 instructions:   48000000 cycles:   82892244 heartbeat IPC: 0.53111 cumulative IPC: 0.49749 (Simulation time: 0 hr 1 min 31 sec) 
Heartbeat CPU  0 instructions:   49000003 cycles:   84758658 heartbeat IPC: 0.53579 cumulative IPC: 0.49840 (Simulation time: 0 hr 1 min 33 sec) 
Heartbeat CPU  0 instructions:   50000001 cycles:   86582825 heartbeat IPC: 0.54819 cumulative IPC: 0.49954 (Simulation time: 0 hr 1 min 35 sec) 
Heartbeat CPU  0 instructions:   51000001 cycles:   88409332 heartbeat IPC: 0.54749 cumulative IPC: 0.50061 (Simulation time: 0 hr 1 min 37 sec) 
Heartbeat CPU  0 instructions:   52000000 cycles:   90341667 heartbeat IPC: 0.51751 cumulative IPC: 0.50100 (Simulation time: 0 hr 1 min 39 sec) 
Heartbeat CPU  0 instructions:   53000001 cycles:   92243850 heartbeat IPC: 0.52571 cumulative IPC: 0.50155 (Simulation time: 0 hr 1 min 41 sec) 
Heartbeat CPU  0 instructions:   54000003 cycles:   94090676 heartbeat IPC: 0.54147 cumulative IPC: 0.50239 (Simulation time: 0 hr 1 min 43 sec) 
Heartbeat CPU  0 instructions:   55000003 cycles:   95886510 heartbeat IPC: 0.55684 cumulative IPC: 0.50348 (Simulation time: 0 hr 1 min 45 sec) 
Heartbeat CPU  0 instructions:   56000000 cycles:   97692326 heartbeat IPC: 0.55376 cumulative IPC: 0.50448 (Simulation time: 0 hr 1 min 47 sec) 
Heartbeat CPU  0 instructions:   57000000 cycles:   99480858 heartbeat IPC: 0.55912 cumulative IPC: 0.50553 (Simulation time: 0 hr 1 min 49 sec) 
Heartbeat CPU  0 instructions:   58000003 cycles:  101304317 heartbeat IPC: 0.54841 cumulative IPC: 0.50635 (Simulation time: 0 hr 1 min 52 sec) 
Heartbeat CPU  0 instructions:   59000003 cycles:  103119413 heartbeat IPC: 0.55094 cumulative IPC: 0.50719 (Simulation time: 0 hr 1 min 54 sec) 
Heartbeat CPU  0 instructions:   60000000 cycles:  104950551 heartbeat IPC: 0.54611 cumulative IPC: 0.50792 (Simulation time: 0 hr 1 min 56 sec) 
Finished CPU 0 instructions: 50000002 cycles: 98441671 cumulative IPC: 0.50791 (Simulation time: 0 hr 1 min 56 sec) 

ChampSim completed all CPUs

[ROI Statistics]
Core_0_instructions 50000002
Core_0_cycles 98441671
Core_0_IPC 0.50791

Core_0_branch_prediction_accuracy 96.99000
Core_0_branch_MPKI 3.91610
Core_0_average_ROB_occupancy_at_mispredict 120.47913

Core_0_L1D_total_access 14519774
Core_0_L1D_total_hit 14261830
Core_0_L1D_total_miss 257944
Core_0_L1D_loads 9451444
Core_0_L1D_load_hit 9237967
Core_0_L1D_load_miss 213477
Core_0_L1D_RFOs 5068330
Core_0_L1D_RFO_hit 5023863
Core_0_L1D_RFO_miss 44467
Core_0_L1D_prefetches 0
Core_0_L1D_prefetch_hit 0
Core_0_L1D_prefetch_miss 0
Core_0_L1D_writebacks 0
Core_0_L1D_writeback_hit 0
Core_0_L1D_writeback_miss 0
Core_0_L1D_prefetch_requested 0
Core_0_L1D_prefetch_dropped 0
Core_0_L1D_prefetch_issued 0
Core_0_L1D_prefetch_filled 0
Core_0_L1D_prefetch_useful 0
Core_0_L1D_prefetch_useless 0
Core_0_L1D_prefetch_late 0
Core_0_L1D_average_miss_latency 61.22627

Core_0_L1D_rq_access 12476083
Core_0_L1D_rq_forward 0
Core_0_L1D_rq_merged 2998028
Core_0_L1D_rq_to_cache 9478055
Core_0_L1D_rq_full 0

Core_0_L1D_wq_access 5183844
Core_0_L1D_wq_forward 0
Core_0_L1D_wq_merged 4
Core_0_L1D_wq_to_cache 5183840
Core_0_L1D_wq_full 0

Core_0_L1D_pq_access 0
Core_0_L1D_pq_forward 0
Core_0_L1D_pq_merged 0
Core_0_L1D_pq_to_cache 0
Core_0_L1D_pq_full 0

Core_0_L1D_acc_epochs 101103
Core_0_L1D_acc_level_0 101103
Core_0_L1D_acc_level_1 0
Core_0_L1D_acc_level_2 0
Core_0_L1D_acc_level_3 0
Core_0_L1D_acc_level_4 0
Core_0_L1D_acc_level_5 0
Core_0_L1D_acc_level_6 0
Core_0_L1D_acc_level_7 0
Core_0_L1D_acc_level_8 0
Core_0_L1D_acc_level_9 0

Core_0_L1I_total_access 13242156
Core_0_L1I_total_hit 13242070
Core_0_L1I_total_miss 86
Core_0_L1I_loads 13242156
Core_0_L1I_load_hit 13242070
Core_0_L1I_load_miss 86
Core_0_L1I_RFOs 0
Core_0_L1I_RFO_hit 0
Core_0_L1I_RFO_miss 0
Core_0_L1I_prefetches 0
Core_0_L1I_prefetch_hit 0
Core_0_L1I_prefetch_miss 0
Core_0_L1I_writebacks 0
Core_0_L1I_writeback_hit 0
Core_0_L1I_writeback_miss 0
Core_0_L1I_prefetch_requested 0
Core_0_L1I_prefetch_dropped 0
Core_0_L1I_prefetch_issued 0
Core_0_L1I_prefetch_filled 0
Core_0_L1I_prefetch_useful 0
Core_0_L1I_prefetch_useless 0
Core_0_L1I_prefetch_late 0
Core_0_L1I_average_miss_latency 179.56977

Core_0_L1I_rq_access 50000126
Core_0_L1I_rq_forward 0
Core_0_L1I_rq_merged 36757947
Core_0_L1I_rq_to_cache 13242179
Core_0_L1I_rq_full 0

Core_0_L1I_wq_access 0
Core_0_L1I_wq_forward 0
Core_0_L1I_wq_merged 0
Core_0_L1I_wq_to_cache 0
Core_0_L1I_wq_full 0

Core_0_L1I_pq_access 0
Core_0_L1I_pq_forward 0
Core_0_L1I_pq_merged 0
Core_0_L1I_pq_to_cache 0
Core_0_L1I_pq_full 0

Core_0_L1I_acc_epochs 101103
Core_0_L1I_acc_level_0 101103
Core_0_L1I_acc_level_1 0
Core_0_L1I_acc_level_2 0
Core_0_L1I_acc_level_3 0
Core_0_L1I_acc_level_4 0
Core_0_L1I_acc_level_5 0
Core_0_L1I_acc_level_6 0
Core_0_L1I_acc_level_7 0
Core_0_L1I_acc_level_8 0
Core_0_L1I_acc_level_9 0

Core_0_L2C_total_access 602359
Core_0_L2C_total_hit 426125
Core_0_L2C_total_miss 176234
Core_0_L2C_loads 213557
Core_0_L2C_load_hit 152979
Core_0_L2C_load_miss 60578
Core_0_L2C_RFOs 44467
Core_0_L2C_RFO_hit 8743
Core_0_L2C_RFO_miss 35724
Core_0_L2C_prefetches 227461
Core_0_L2C_prefetch_hit 148307
Core_0_L2C_prefetch_miss 79154
Core_0_L2C_writebacks 116874
Core_0_L2C_writeback_hit 116096
Core_0_L2C_writeback_miss 778
Core_0_L2C_prefetch_requested 334311
Core_0_L2C_prefetch_dropped 0
Core_0_L2C_prefetch_issued 334311
Core_0_L2C_prefetch_filled 114495
Core_0_L2C_prefetch_useful 33616
Core_0_L2C_prefetch_useless 80060
Core_0_L2C_prefetch_late 518
Core_0_L2C_average_miss_latency 132.95344

Core_0_L2C_rq_access 258030
Core_0_L2C_rq_forward 0
Core_0_L2C_rq_merged 0
Core_0_L2C_rq_to_cache 258024
Core_0_L2C_rq_full 0

Core_0_L2C_wq_access 116874
Core_0_L2C_wq_forward 6
Core_0_L2C_wq_merged 0
Core_0_L2C_wq_to_cache 116874
Core_0_L2C_wq_full 0

Core_0_L2C_pq_access 334311
Core_0_L2C_pq_forward 0
Core_0_L2C_pq_merged 24
Core_0_L2C_pq_to_cache 334287
Core_0_L2C_pq_full 0

Core_0_L2C_acc_epochs 101103
Core_0_L2C_acc_level_0 60582
Core_0_L2C_acc_level_1 10766
Core_0_L2C_acc_level_2 10006
Core_0_L2C_acc_level_3 6630
Core_0_L2C_acc_level_4 2315
Core_0_L2C_acc_level_5 5298
Core_0_L2C_acc_level_6 2698
Core_0_L2C_acc_level_7 1164
Core_0_L2C_acc_level_8 769
Core_0_L2C_acc_level_9 875

Core_0_LLC_total_access 255824
Core_0_LLC_total_hit 130583
Core_0_LLC_total_miss 125241
Core_0_LLC_loads 60101
Core_0_LLC_load_hit 27764
Core_0_LLC_load_miss 32337
Core_0_LLC_RFOs 35724
Core_0_LLC_RFO_hit 15927
Core_0_LLC_RFO_miss 19797
Core_0_LLC_prefetches 79631
Core_0_LLC_prefetch_hit 31155
Core_0_LLC_prefetch_miss 48476
Core_0_LLC_writebacks 80368
Core_0_LLC_writeback_hit 55737
Core_0_LLC_writeback_miss 24631
Core_0_LLC_prefetch_requested 0
Core_0_LLC_prefetch_dropped 0
Core_0_LLC_prefetch_issued 0
Core_0_LLC_prefetch_filled 72195
Core_0_LLC_prefetch_useful 5033
Core_0_LLC_prefetch_useless 60929
Core_0_LLC_prefetch_late 0
Core_0_LLC_average_miss_latency 144.59648

Core_0_LLC_rq_access 95825
Core_0_LLC_rq_forward 0
Core_0_LLC_rq_merged 0
Core_0_LLC_rq_to_cache 95825
Core_0_LLC_rq_full 0

Core_0_LLC_wq_access 80368
Core_0_LLC_wq_forward 0
Core_0_LLC_wq_merged 0
Core_0_LLC_wq_to_cache 80368
Core_0_LLC_wq_full 0

Core_0_LLC_pq_access 115013
Core_0_LLC_pq_forward 0
Core_0_LLC_pq_merged 0
Core_0_LLC_pq_to_cache 115013
Core_0_LLC_pq_full 0

Core_0_LLC_acc_epochs 102491
Core_0_LLC_acc_level_0 96728
Core_0_LLC_acc_level_1 2380
Core_0_LLC_acc_level_2 1675
Core_0_LLC_acc_level_3 398
Core_0_LLC_acc_level_4 109
Core_0_LLC_acc_level_5 901
Core_0_LLC_acc_level_6 101
Core_0_LLC_acc_level_7 57
Core_0_LLC_acc_level_8 24
Core_0_LLC_acc_level_9 118

Core_0_major_page_fault 0
Core_0_minor_page_fault 5010

scooby_st_lookup 283240
scooby_st_hit 126094
scooby_st_evict 157082
scooby_st_insert 157146
scooby_st_streaming 0

scooby_predict_called 283240
scooby_predict_out_of_bounds 8260
scooby_predict_action_1 225041
scooby_predict_issue_action_1 178393
scooby_predict_hit_action_1 46648
scooby_predict_out_of_bounds_action_1 4483
scooby_predict_action_3 1384
scooby_predict_issue_action_3 1072
scooby_predict_hit_action_3 312
scooby_predict_out_of_bounds_action_3 43
scooby_predict_action_4 1138
scooby_predict_issue_action_4 963
scooby_predict_hit_action_4 175
scooby_predict_out_of_bounds_action_4 76
scooby_predict_action_5 1193
scooby_predict_issue_action_5 950
scooby_predict_hit_action_5 243
scooby_predict_out_of_bounds_action_5 126
scooby_predict_action_10 986
scooby_predict_issue_action_10 894
scooby_predict_hit_action_10 92
scooby_predict_out_of_bounds_action_10 146
scooby_predict_action_11 860
scooby_predict_issue_action_11 834
scooby_predict_hit_action_11 26
scooby_predict_out_of_bounds_action_11 146
scooby_predict_action_12 863
scooby_predict_issue_action_12 839
scooby_predict_hit_action_12 24
scooby_predict_out_of_bounds_action_12 168
scooby_predict_action_22 712
scooby_predict_issue_action_22 662
scooby_predict_hit_action_22 50
scooby_predict_out_of_bounds_action_22 313
scooby_predict_action_23 803
scooby_predict_issue_action_23 712
scooby_predict_hit_action_23 91
scooby_predict_out_of_bounds_action_23 260
scooby_predict_action_30 659
scooby_predict_issue_action_30 571
scooby_predict_hit_action_30 88
scooby_predict_out_of_bounds_action_30 417
scooby_predict_action_32 3935
scooby_predict_issue_action_32 2199
scooby_predict_hit_action_32 1736
scooby_predict_out_of_bounds_action_32 1321
scooby_predict_action_-1 33204
scooby_predict_issue_action_-1 32826
scooby_predict_hit_action_-1 378
scooby_predict_out_of_bounds_action_-1 574
scooby_predict_action_-3 1538
scooby_predict_issue_action_-3 1266
scooby_predict_hit_action_-3 272
scooby_predict_out_of_bounds_action_-3 56
scooby_predict_action_-6 991
scooby_predict_issue_action_-6 915
scooby_predict_hit_action_-6 76
scooby_predict_out_of_bounds_action_-6 131
scooby_predict_action_0 1673
scooby_predict_issue_action_0 0
scooby_predict_hit_action_0 0
scooby_predict_out_of_bounds_action_0 0
scooby_predict_multi_deg_called 28827
scooby_predict_predicted 334311
scooby_predict_multi_deg 111215
scooby_predict_multi_deg_2 28213
scooby_predict_multi_deg_3 23601
scooby_predict_multi_deg_4 23093
scooby_predict_multi_deg_5 18378
scooby_predict_multi_deg_6 17930
scooby_predict_multi_deg_7 0
scooby_predict_multi_deg_8 0
scooby_predict_multi_deg_9 0
scooby_predict_multi_deg_10 0
scooby_predict_multi_deg_11 0
scooby_predict_multi_deg_12 0
scooby_predict_multi_deg_13 0
scooby_predict_multi_deg_14 0
scooby_predict_multi_deg_15 0
scooby_predict_multi_deg_16 0

scooby_selected_deg_1 194269
scooby_selected_deg_2 4116
scooby_selected_deg_3 0
scooby_selected_deg_4 4459
scooby_selected_deg_5 0
scooby_selected_deg_6 20252
scooby_selected_deg_7 0
scooby_selected_deg_8 0
scooby_selected_deg_9 0
scooby_selected_deg_10 0
scooby_selected_deg_11 0
scooby_selected_deg_12 0
scooby_selected_deg_13 0
scooby_selected_deg_14 0
scooby_selected_deg_15 0
scooby_selected_deg_16 0

scooby_state_406cfe|62|0 2752,3,0,0,0,3,1,1,0,3,2,1,0,1,1,2768,
scooby_state_406cfe|61|0 2750,1,1,0,3,0,1,1,1,0,0,0,1,2,0,2761,
scooby_state_406cfe|26|0 2533,5,0,0,2,0,0,0,0,0,0,1,0,0,3,2544,
scooby_state_406cfe|63|0 2499,0,0,0,1,4,0,0,2,2,0,0,1,0,1,2510,
scooby_state_406c70|13|0 2211,2,0,0,1,1,1,0,0,1,163,0,0,1,2,2383,
scooby_state_406cfe|13|0 2339,1,0,2,1,0,1,0,3,0,0,1,1,0,3,2352,
scooby_state_406cfe|12|0 2312,3,0,1,2,3,0,0,2,4,2,1,0,0,2,2332,
scooby_state_406cfe|5|0 2267,2,0,0,2,2,0,0,4,0,2,0,2,0,5,2286,
scooby_state_406cfe|14|0 2221,1,7,0,3,0,2,5,3,1,0,0,1,4,6,2254,
scooby_state_406cfe|4|0 2064,0,1,0,6,0,2,0,4,0,1,0,0,2,4,2084,
scooby_state_406cfe|27|0 2035,0,0,0,1,1,1,1,0,2,0,2,1,0,1,2045,
scooby_state_406cfe|11|0 2030,0,0,2,0,0,0,0,2,0,0,0,1,3,0,2038,
scooby_state_406cfe|0|0 2022,1,0,1,0,0,1,0,0,3,0,1,0,0,1,2030,
scooby_state_406cfe|21|0 1916,1,0,0,1,0,1,1,0,1,0,0,0,1,0,1922,
scooby_state_406c70|16|0 1860,2,0,1,4,2,0,0,15,1,27,0,0,4,1,1917,
scooby_state_406cfe|28|0 1892,1,0,0,0,2,1,0,0,0,1,1,0,0,0,1898,
scooby_state_406cfe|22|0 1872,1,0,1,3,1,0,0,3,1,0,0,0,1,4,1887,
scooby_state_406c70|27|0 1832,2,3,0,0,3,4,1,2,0,0,3,0,0,5,1855,
scooby_state_406cfe|6|0 1772,2,3,0,6,3,2,0,4,1,2,2,2,1,4,1804,
scooby_state_406c70|14|0 1665,2,3,1,0,2,1,0,0,1,73,3,0,0,3,1754,
scooby_state_406c70|17|0 1649,2,0,0,0,2,0,0,0,1,90,1,1,0,1,1747,
scooby_state_406cfe|17|0 1715,0,0,1,4,0,1,0,1,4,0,0,0,0,6,1732,
scooby_state_406c70|10|0 1664,2,0,1,1,3,0,0,1,2,53,0,0,1,2,1730,
scooby_state_406c70|45|32 1572,2,1,0,2,0,0,1,0,0,129,1,0,1,3,1712,
scooby_state_406c70|45|0 1491,1,0,0,0,1,1,0,1,1,155,0,0,1,0,1652,
scooby_state_406c70|9|0 1628,0,0,1,1,0,0,2,1,0,0,0,2,2,0,1637,
scooby_state_406cfe|25|0 1566,0,0,0,0,4,0,0,0,21,2,23,0,1,0,1617,
scooby_state_406cfe|18|0 1601,3,0,0,0,0,1,0,0,0,0,0,3,0,0,1608,
scooby_state_406cfe|41|0 1588,0,0,0,0,0,0,0,1,0,0,0,0,0,2,1591,
scooby_state_406c70|15|0 1536,0,0,0,1,0,0,0,0,0,30,0,0,0,0,1567,
scooby_state_406cfe|60|0 1545,0,2,0,2,0,7,0,3,0,1,0,4,0,3,1567,
scooby_state_406cfe|10|0 1531,0,0,1,0,0,0,2,0,0,1,1,0,0,0,1536,
scooby_state_406cfe|7|0 1339,4,10,43,0,4,10,35,0,0,0,20,3,48,1,1517,
scooby_state_406c70|49|32 1476,1,1,0,0,1,0,0,0,2,23,1,0,1,3,1509,
scooby_state_406c70|48|32 1420,1,1,1,2,2,2,0,13,1,18,2,3,5,2,1473,
scooby_state_406c70|59|32 1437,2,2,1,0,4,1,5,1,1,2,0,0,1,11,1468,
scooby_state_406c70|4|0 1434,3,0,4,2,2,0,0,6,0,3,0,3,2,2,1461,
scooby_state_406c70|42|32 1382,2,9,0,0,3,1,1,1,3,51,1,0,1,3,1458,
scooby_state_406cfe|15|0 1436,2,1,0,0,1,2,0,0,1,2,0,2,0,0,1447,
scooby_state_406c70|5|0 1417,0,3,1,0,0,0,4,2,0,1,3,1,0,0,1432,
scooby_state_406cfe|3|0 1411,0,5,3,0,1,5,2,0,0,0,0,4,0,0,1431,
scooby_state_406cfe|42|0 1422,0,2,0,1,0,3,1,0,0,0,0,2,0,0,1431,
scooby_state_406c70|42|0 1367,2,0,0,1,5,0,0,0,2,43,0,0,1,0,1421,
scooby_state_406c70|13|-32 743,0,0,1,0,0,0,1,0,1,614,0,0,1,1,1362,
scooby_state_406c70|49|0 1314,2,0,0,0,0,0,0,0,0,38,0,0,0,0,1354,
scooby_state_406cfe|2|0 1331,0,0,0,0,0,0,1,1,0,0,0,0,0,1,1334,
scooby_state_406c70|59|0 1317,1,2,0,0,1,1,0,1,0,0,3,0,0,3,1329,
scooby_state_406cfe|16|0 1314,0,0,0,2,0,1,1,2,0,0,2,0,1,2,1325,
scooby_state_406cfe|40|0 1286,3,0,0,0,2,0,1,2,0,15,2,0,0,6,1317,
scooby_state_406cfe|20|0 1291,0,0,1,3,0,0,0,0,2,1,0,1,0,5,1304,
scooby_state_406c70|47|32 1280,0,0,0,0,0,0,0,0,0,19,1,0,0,0,1300,
scooby_state_406c70|41|32 1286,0,1,1,0,2,1,1,2,1,0,0,2,1,0,1298,
scooby_state_406c70|17|-32 1253,2,0,2,1,0,0,0,1,0,21,0,0,0,1,1281,
scooby_state_406c70|46|32 1221,1,0,1,0,0,1,1,1,0,48,0,1,0,2,1277,
scooby_state_406cfe|23|0 1215,0,4,1,8,0,5,0,25,0,1,0,6,0,7,1272,
scooby_state_406c70|41|0 1239,0,1,1,0,0,0,0,0,0,0,0,2,0,0,1243,
scooby_state_406c70|6|0 1204,0,1,0,1,1,0,1,2,2,0,2,0,1,2,1217,
scooby_state_406cfe|43|0 1213,0,1,0,0,0,0,0,0,0,0,0,0,0,2,1216,
scooby_state_406cfe|30|0 1186,3,0,3,1,1,0,2,1,0,2,2,0,3,1,1205,
scooby_state_406cfe|24|0 1180,0,1,0,0,0,0,0,0,0,0,1,1,0,1,1184,
scooby_state_406c70|18|0 1169,0,0,0,0,0,1,0,0,1,12,0,0,0,0,1183,
scooby_state_406c70|12|0 1147,1,3,1,2,1,5,0,2,0,12,3,0,1,5,1183,
scooby_state_406cfe|29|0 1161,5,1,0,1,2,0,1,0,3,2,0,0,0,0,1176,
scooby_state_406c70|8|0 1120,5,0,0,0,8,0,0,0,8,7,0,0,0,10,1158,
scooby_state_406c70|46|0 1119,1,0,0,0,1,0,0,0,1,26,1,0,0,0,1149,
scooby_state_406c70|10|-32 761,1,1,0,1,0,0,0,1,0,374,0,0,0,3,1142,
scooby_state_406cfe|9|0 1108,0,5,2,0,0,1,0,0,0,0,0,4,2,1,1123,
scooby_state_406c70|1|0 1102,1,0,1,2,1,0,0,0,2,6,0,1,0,5,1121,
scooby_state_406cfe|19|0 1100,1,0,0,3,2,0,0,0,3,0,0,8,0,4,1121,
scooby_state_406cfe|31|0 1097,0,0,0,0,0,0,0,1,0,2,0,1,0,2,1103,
scooby_state_406c70|36|32 1036,1,3,2,3,4,3,5,0,3,1,6,5,1,3,1076,
scooby_state_406cfe|49|0 1067,1,0,0,0,0,0,0,0,0,0,2,0,0,1,1071,
scooby_state_406cfe|33|0 1070,0,0,0,0,0,1,0,0,0,0,0,0,0,0,1071,
scooby_state_406cfe|32|0 1042,4,1,2,0,4,0,0,0,0,2,4,0,0,0,1059,
scooby_state_406c70|16|-32 981,1,1,2,2,0,0,3,11,12,37,2,2,0,3,1057,
scooby_state_406c70|36|0 1021,1,0,1,3,1,0,0,1,1,1,1,0,1,8,1040,
scooby_state_406c70|26|0 1008,4,0,0,0,6,2,0,0,0,1,4,1,0,4,1030,
scooby_state_406c70|48|0 972,1,0,0,4,1,1,0,1,11,29,0,0,2,1,1023,
scooby_state_406c70|27|-32 995,3,1,0,0,0,0,0,0,0,0,1,0,0,3,1003,
scooby_state_406c70|30|0 963,2,1,0,6,1,1,3,2,3,0,1,1,6,1,991,
scooby_state_406cfe|34|0 981,0,0,0,0,0,0,2,0,0,0,0,0,1,0,984,
scooby_state_406c70|37|32 965,1,2,2,1,0,1,3,0,3,0,2,0,0,0,980,
scooby_state_406c70|37|0 961,0,3,0,1,0,1,2,0,0,0,0,3,1,0,972,
scooby_state_406cfe|8|0 960,0,1,1,0,2,0,0,1,0,0,0,0,1,0,966,
scooby_state_406c70|47|0 950,0,0,0,0,0,0,0,0,0,12,0,0,0,0,962,
scooby_state_406be9|62|0 935,3,0,0,0,3,0,1,1,2,3,1,0,0,2,951,
scooby_state_406c70|7|0 923,2,4,1,2,2,4,0,0,1,3,1,0,0,6,949,
scooby_state_406be9|26|0 916,3,0,0,0,3,0,0,0,0,0,0,0,0,0,922,
scooby_state_406c70|44|32 829,1,3,0,1,1,3,3,0,0,69,1,1,3,4,919,
scooby_state_406c70|14|-32 699,0,0,0,0,0,0,0,0,0,208,0,0,0,1,908,
scooby_state_406cfe|1|0 870,3,0,0,2,11,3,0,2,0,4,0,8,0,2,905,
scooby_state_406c70|9|-32 888,0,0,1,0,0,0,0,0,0,0,1,0,1,2,893,
scooby_state_406be9|13|0 870,1,0,3,3,0,0,0,4,3,0,0,0,3,0,887,
scooby_state_406c70|38|0 871,0,1,1,1,1,1,0,1,1,1,1,0,1,2,883,
scooby_state_406cfe|48|0 847,0,1,0,3,2,0,1,2,1,4,0,0,0,2,863,
scooby_state_406c70|2|0 828,4,0,3,0,3,0,1,1,0,2,0,1,1,2,846,
scooby_state_406c70|15|-32 818,0,0,0,0,0,0,0,0,1,19,0,0,0,0,838,
scooby_state_406c70|28|0 764,2,6,22,2,2,2,0,2,0,4,2,25,1,4,838,
scooby_state_406be9|17|0 813,0,0,1,4,0,0,0,6,0,0,0,1,1,6,832,
scooby_state_406c70|38|32 804,0,1,1,2,2,2,0,2,0,1,1,1,3,6,826,
scooby_state_406c70|44|0 793,0,2,0,1,0,1,0,0,1,17,4,0,2,3,824,
scooby_state_406c70|11|0 741,0,0,1,4,0,0,1,4,0,64,0,1,5,1,822,
scooby_state_406c70|50|32 807,0,0,0,1,0,0,0,0,0,7,0,0,0,0,815,
scooby_state_406be9|2|0 811,0,0,1,0,0,0,0,0,0,0,0,0,0,1,813,
scooby_state_406c70|29|0 791,0,0,2,3,0,1,0,3,0,3,0,2,2,0,807,
scooby_state_406c70|25|0 770,0,5,0,0,0,4,0,0,0,4,4,0,0,0,787,
scooby_state_406cfe|57|0 774,1,0,0,0,2,0,0,0,1,0,0,5,0,0,783,
scooby_state_406be9|63|0 770,1,0,0,0,1,0,0,0,2,0,0,0,0,1,775,
scooby_state_406be9|40|0 744,3,0,0,2,3,0,5,0,4,2,3,1,2,0,769,
scooby_state_406cfe|56|0 730,4,0,0,5,2,0,0,0,3,4,0,0,0,18,766,
scooby_state_406be9|18|0 759,1,0,0,0,0,0,1,2,0,1,1,0,0,1,766,
scooby_state_406be9|31|0 756,0,0,0,1,0,1,0,0,1,1,0,0,0,2,762,
scooby_state_406be9|14|0 739,0,1,5,0,0,1,0,3,3,0,0,2,1,1,756,
scooby_state_406c70|40|32 681,6,0,1,3,4,0,2,2,29,6,0,0,4,14,752,
scooby_state_406be9|16|0 740,0,0,0,0,0,0,0,0,1,0,0,0,1,0,742,
scooby_state_406c70|33|32 712,2,0,0,1,1,1,4,5,2,1,2,1,2,3,737,
scooby_state_406be9|30|0 709,4,0,4,1,2,0,3,0,3,1,2,0,3,2,734,
scooby_state_406be9|12|0 715,1,0,0,6,0,1,2,1,3,2,0,0,2,1,734,
scooby_state_406be9|61|0 730,0,0,0,0,0,0,0,0,1,0,0,1,2,0,734,
scooby_state_406be9|29|0 722,4,0,0,0,1,0,0,0,1,1,0,1,0,1,731,
scooby_state_406cfe|44|0 719,0,0,1,0,0,0,0,1,1,0,0,0,0,0,722,
scooby_state_406be9|7|0 674,2,9,1,0,6,2,0,0,1,6,8,5,2,4,720,
scooby_state_406cfe|59|0 702,0,3,2,0,0,3,1,0,0,0,1,3,3,0,718,
scooby_state_406be9|59|0 662,0,4,2,0,0,3,3,0,4,0,0,8,2,4,692,
scooby_state_406be9|0|0 684,0,0,0,0,0,0,0,0,0,0,0,0,0,1,685,
scooby_state_406c70|31|0 656,1,0,1,2,3,0,0,1,4,0,3,0,6,3,680,
scooby_state_406c70|33|0 674,0,0,0,0,1,0,0,0,1,0,0,0,0,2,678,
scooby_state_406be9|27|0 647,0,0,0,3,0,0,0,2,1,0,0,0,0,6,659,
scooby_state_406be9|15|0 634,2,2,0,3,1,2,0,0,2,5,2,0,0,4,657,
scooby_state_406c70|58|32 616,2,0,0,1,7,2,1,0,0,5,2,1,3,10,650,
scooby_state_406be9|57|0 639,1,0,0,0,0,0,0,0,2,0,0,5,0,2,649,
scooby_state_406be9|25|0 638,0,0,0,0,0,0,0,0,3,3,0,0,0,2,646,
scooby_state_406be9|60|0 619,1,3,0,1,0,5,1,0,1,0,0,4,1,5,641,
scooby_state_406c70|58|0 623,0,0,0,1,2,0,0,1,0,0,3,0,0,3,633,
scooby_state_406c70|39|32 573,4,4,2,3,1,3,2,1,2,2,5,15,2,9,628,
scooby_state_406c70|60|32 508,19,7,21,14,10,11,3,0,1,2,13,13,2,3,627,
scooby_state_406be9|43|0 625,0,0,0,0,0,0,0,0,0,0,0,0,0,0,625,
scooby_state_406be9|8|0 611,0,0,3,0,0,0,2,0,3,0,0,0,3,1,623,
scooby_state_406cfe|50|0 613,2,0,0,0,2,0,0,0,0,1,3,1,0,0,622,
scooby_state_406c70|43|32 526,0,2,2,3,1,2,1,4,2,58,2,4,4,2,613,
scooby_state_406c70|62|32 574,1,2,3,3,1,3,3,3,2,1,5,2,7,2,612,
scooby_state_406c70|0|0 591,0,2,1,0,0,3,0,2,1,2,2,0,3,0,607,
scooby_state_406be9|3|0 584,0,3,3,0,4,0,1,0,0,3,3,0,0,2,603,
scooby_state_406be9|41|0 599,0,0,0,0,0,0,1,0,0,0,1,0,0,1,602,
scooby_state_406be9|58|0 583,0,4,0,0,0,5,0,0,0,0,0,4,0,2,598,
scooby_state_406c70|60|0 551,1,4,2,0,1,2,18,1,0,9,3,2,2,1,597,
scooby_state_406c70|40|0 556,6,0,0,0,4,0,0,0,1,2,0,0,1,24,594,
scooby_state_406cfe|55|0 528,4,0,0,0,5,0,0,0,11,39,4,2,0,0,593,
scooby_state_406c70|12|-32 194,1,0,3,1,1,0,0,0,0,384,0,2,0,0,586,
scooby_state_406c70|4|-32 559,1,0,0,1,0,1,1,2,1,0,0,2,8,1,577,
scooby_state_406be9|4|0 547,0,2,0,4,2,0,3,4,4,2,0,0,2,7,577,
scooby_state_407060|63|0 0,4,2,1,4,3,1,1,0,2,3,547,3,1,2,574,
scooby_state_406be9|32|0 558,2,0,1,0,2,0,0,0,0,2,4,1,0,1,571,
scooby_state_406c70|3|0 564,1,0,0,2,0,0,1,0,1,0,0,0,1,0,570,
scooby_state_406cfe|27|1 563,0,0,0,2,0,0,0,0,0,0,0,0,0,1,566,
scooby_state_406be9|42|0 554,0,2,0,0,0,0,0,0,0,0,1,4,0,0,561,
scooby_state_406cfe|52|0 552,0,0,0,0,0,3,0,0,0,0,0,0,0,2,557,
scooby_state_407060|57|-1 1,0,1,1,1,1,1,1,0,1,0,541,6,0,1,556,
scooby_state_406be9|39|0 509,0,5,3,1,0,5,5,1,4,1,0,8,4,9,555,
scooby_state_407060|58|-1 1,1,0,1,1,1,1,1,0,1,0,538,2,0,2,550,
scooby_state_406be9|1|0 509,5,4,0,1,6,0,0,1,2,8,4,3,0,7,550,
scooby_state_407060|60|-1 1,1,1,0,2,1,2,1,0,2,0,530,2,0,1,544,
scooby_state_407060|0|-1 2,1,1,1,0,1,1,1,0,1,1,526,3,2,2,543,
scooby_state_407060|59|-1 1,1,1,0,1,1,2,1,0,1,0,529,3,0,2,543,
scooby_state_406cfe|58|0 529,0,4,0,0,0,4,1,0,0,0,0,0,0,2,540,
scooby_state_407060|62|-1 1,1,2,0,1,1,1,1,0,1,0,528,2,0,0,539,
scooby_state_406be9|6|0 514,1,1,0,3,1,1,2,0,2,3,3,0,5,2,538,
scooby_state_407060|61|-1 1,1,1,0,1,1,1,1,0,1,0,528,2,0,0,538,
scooby_state_406c70|50|0 532,0,0,0,0,0,0,0,0,0,5,0,0,0,0,537,
scooby_state_406c70|62|0 519,0,3,0,3,0,1,0,2,1,1,0,2,3,1,536,
scooby_state_406be9|28|0 524,2,0,0,0,2,0,0,0,0,2,3,0,0,2,535,
scooby_state_407060|2|-1 1,1,1,1,0,1,1,1,0,1,1,517,3,0,2,531,
scooby_state_407060|4|-1 0,1,1,1,0,2,1,1,0,2,1,515,3,1,1,530,
scooby_state_407060|3|-1 0,1,1,1,0,2,1,1,0,2,1,516,2,0,1,529,
scooby_state_407060|56|-1 1,0,1,1,1,1,1,1,0,1,0,516,5,0,0,529,
scooby_state_407060|7|-1 0,1,0,1,0,1,1,1,0,1,1,518,3,0,0,528,
scooby_state_407060|1|-1 2,1,1,1,0,1,1,1,0,1,1,511,2,2,2,527,
scooby_state_406c70|5|-32 489,1,2,2,1,2,7,0,0,0,7,1,9,0,2,523,
scooby_state_407060|6|-1 0,1,1,1,0,1,1,1,0,1,1,510,4,0,1,523,
scooby_state_406c70|57|32 500,4,3,0,4,0,2,2,1,0,0,4,1,0,2,523,
scooby_state_406be9|33|0 520,0,0,0,0,0,0,0,0,0,0,0,0,0,0,520,
scooby_state_406be9|11|0 514,0,0,1,0,0,0,1,0,1,0,0,0,1,1,519,
scooby_state_406be9|5|0 497,1,1,0,3,2,0,0,3,3,2,1,1,2,2,518,
scooby_state_407060|10|-1 0,1,0,1,0,1,1,1,0,1,1,507,2,2,0,518,
scooby_state_407060|16|-1 0,1,0,1,0,1,1,1,1,1,1,501,9,0,0,518,
scooby_state_407060|5|-1 0,1,1,1,0,1,1,1,0,1,1,502,3,0,1,514,
scooby_state_406c70|61|32 492,0,2,0,0,0,2,2,2,0,0,4,3,3,1,511,
scooby_state_406cfe|36|0 497,2,0,0,1,3,0,0,0,1,3,3,0,0,0,510,
scooby_state_407060|8|-1 0,1,0,1,0,1,1,1,0,1,1,500,3,0,0,510,
scooby_state_407060|12|-1 0,1,0,1,0,1,1,1,0,1,1,497,4,0,0,508,
scooby_state_407060|9|-1 0,1,0,1,0,1,1,1,0,1,1,496,2,0,0,505,
scooby_state_406c70|34|32 487,4,0,2,0,1,0,2,0,0,3,1,0,2,2,504,
scooby_state_406be9|44|0 499,0,0,0,0,0,0,0,1,1,0,0,0,1,0,502,
scooby_state_407060|15|-1 0,1,0,1,1,1,1,1,0,1,1,480,8,0,1,497,
scooby_state_407060|11|-1 0,1,0,1,0,1,1,1,0,1,1,484,4,0,0,495,
scooby_state_406cfe|45|0 473,0,6,0,0,0,0,7,0,0,0,1,0,7,0,494,
scooby_state_407060|14|-1 0,1,0,1,0,1,2,1,1,1,1,478,4,0,0,491,
scooby_state_406be9|10|0 482,0,1,0,0,0,1,0,0,1,1,1,0,0,1,488,
scooby_state_407060|55|-1 1,0,2,1,1,1,1,1,0,1,0,472,6,0,0,487,
scooby_state_406c70|19|0 455,1,0,4,1,3,0,2,1,0,17,0,0,1,1,486,
scooby_state_407060|17|-1 0,1,0,1,0,1,0,1,0,1,1,465,13,0,0,484,
scooby_state_407060|51|-1 1,0,1,1,1,0,2,0,1,1,0,470,5,0,0,483,
scooby_state_406c70|11|-32 196,1,0,0,4,0,0,4,1,0,264,1,2,2,2,477,
scooby_state_406c70|6|-32 451,0,1,1,1,0,0,11,0,1,1,0,4,0,3,474,
scooby_state_407060|52|-1 1,0,1,1,1,0,1,1,1,1,0,456,6,1,0,471,
scooby_state_406be9|51|0 440,3,3,0,2,1,4,0,2,0,1,1,4,0,8,469,
scooby_state_406cfe|46|0 468,0,0,0,0,0,0,0,0,0,0,0,0,0,0,468,
scooby_state_406cfe|39|0 440,0,5,4,2,0,5,0,3,0,0,1,4,4,0,468,
scooby_state_406be9|9|0 448,0,4,1,0,0,2,0,0,0,4,4,2,0,2,467,
scooby_state_406be9|23|0 437,0,2,0,5,0,2,0,5,4,0,0,3,5,1,464,
scooby_state_407060|18|-1 1,1,0,1,0,1,0,1,0,1,1,448,6,1,0,462,
scooby_state_406c70|39|0 458,0,0,0,0,1,3,0,0,0,0,0,0,0,0,462,
scooby_state_407060|13|-1 0,1,0,1,0,1,1,1,0,2,1,450,4,0,0,462,
scooby_state_407060|54|-1 1,0,1,1,1,1,1,0,1,1,0,445,9,0,0,462,
scooby_state_406cfe|51|0 444,1,3,0,1,2,3,0,0,1,3,2,1,0,0,461,
scooby_state_407060|48|-1 1,0,1,1,1,0,1,1,1,1,0,446,6,0,0,460,
scooby_state_407060|33|-1 1,0,0,1,1,0,0,1,1,1,0,450,2,1,0,459,
scooby_state_406c70|34|0 448,0,0,1,0,2,0,1,0,0,3,0,1,0,2,458,
scooby_state_406be9|56|0 437,1,0,0,7,0,1,0,4,1,2,0,0,0,3,456,
scooby_state_406cfe|47|0 446,2,1,0,1,1,1,0,0,1,0,0,2,0,1,456,
scooby_state_407060|50|-1 1,0,1,1,1,0,2,0,1,1,0,438,8,0,0,454,
scooby_state_407060|53|-1 1,0,1,2,1,1,0,0,1,1,0,440,6,0,0,454,
scooby_state_407060|25|-1 0,1,0,1,0,1,0,1,1,0,1,444,3,0,0,453,
scooby_state_406c70|18|-32 437,0,0,1,0,0,0,0,0,0,10,0,0,0,0,448,
scooby_state_406be9|19|0 414,3,0,0,3,3,0,0,5,3,4,1,0,3,7,446,
scooby_state_406c70|57|0 435,0,1,0,1,0,6,0,0,0,1,2,0,0,0,446,
scooby_state_406c70|43|0 406,0,0,0,4,0,0,0,2,0,29,0,0,3,1,445,
scooby_state_407060|26|-1 0,2,0,1,0,1,0,1,1,0,1,433,4,0,0,444,
scooby_state_406cfe|62|1 437,0,1,0,0,0,1,0,0,0,3,0,0,0,1,443,
scooby_state_407060|34|-1 1,0,0,2,1,0,0,1,1,1,0,434,2,0,0,443,
scooby_state_407060|42|-1 1,0,1,1,2,0,1,1,1,1,0,431,2,0,0,442,
scooby_state_406cfe|29|1 435,0,0,1,0,0,4,0,0,1,0,0,1,0,0,442,
scooby_state_406c70|63|32 412,1,1,1,1,1,0,2,2,1,5,1,1,7,4,440,
scooby_state_407060|44|-1 1,0,1,1,1,0,1,1,1,1,0,430,2,0,0,440,
scooby_state_407060|35|-1 1,0,0,1,1,0,0,1,1,1,0,430,3,0,0,439,
scooby_state_407060|46|-1 1,0,1,2,1,0,2,2,1,1,0,419,9,0,0,439,
scooby_state_407060|19|-1 0,1,0,1,0,1,1,1,0,1,2,427,2,1,1,439,
scooby_state_407060|32|-1 2,0,0,1,1,0,0,1,1,0,1,429,2,1,0,439,
scooby_state_406be9|24|0 435,0,0,0,0,0,0,0,0,0,0,1,0,0,0,436,
scooby_state_407060|30|-1 0,1,0,1,1,0,0,2,1,0,1,427,2,0,0,436,
scooby_state_407060|47|-1 1,0,1,1,1,0,1,1,1,1,0,421,6,0,0,435,
scooby_state_407060|43|-1 1,0,1,1,1,0,1,1,1,2,0,424,2,0,0,435,
scooby_state_407060|36|-1 1,0,0,2,1,0,0,2,1,1,0,425,2,0,0,435,
scooby_state_407060|27|-1 0,1,0,1,0,2,0,1,1,1,2,421,3,0,0,433,
scooby_state_407060|45|-1 1,0,1,2,1,0,1,1,1,1,0,418,6,0,0,433,
scooby_state_407060|49|-1 1,0,1,1,1,0,2,0,1,1,0,421,4,0,0,433,
scooby_state_407060|41|-1 1,0,1,1,1,0,1,0,1,1,0,422,4,0,0,433,
scooby_state_407060|22|-1 1,1,0,1,0,1,1,1,1,1,2,417,1,2,0,430,
scooby_state_407060|39|-1 1,0,1,1,1,0,1,1,1,1,2,417,2,0,0,429,
scooby_state_406be9|45|0 415,1,1,2,0,0,0,1,1,0,0,0,3,1,2,427,
scooby_state_407060|31|-1 1,0,0,1,1,0,0,1,1,0,1,417,2,1,1,427,
scooby_state_407060|20|-1 3,1,0,1,0,1,0,1,0,1,1,414,2,1,1,427,
scooby_state_406c70|61|0 419,0,0,1,0,0,1,0,1,0,0,0,2,2,0,426,
scooby_state_407060|21|-1 1,1,0,1,0,1,0,1,0,1,1,414,3,1,1,426,
scooby_state_406be9|22|0 410,0,0,3,0,0,1,2,2,4,0,0,0,3,0,425,
scooby_state_406cfe|38|0 418,0,0,1,1,0,0,0,2,1,0,0,0,0,1,424,
scooby_state_407060|40|-1 1,0,1,1,1,0,1,0,1,1,0,415,2,0,0,424,
scooby_state_407060|29|-1 0,2,0,1,0,1,0,1,1,0,1,415,2,0,0,424,
scooby_state_406be9|20|0 409,0,0,0,2,0,0,3,2,3,0,0,0,3,0,422,
scooby_state_407060|28|-1 0,1,0,1,0,1,0,1,1,0,1,409,3,0,0,418,
scooby_state_407060|37|-1 1,0,0,1,1,0,0,1,1,1,1,407,2,0,0,416,
scooby_state_406be9|50|0 409,1,0,0,0,1,0,0,0,0,0,1,0,0,0,412,
scooby_state_407060|38|-1 1,0,0,1,1,0,0,1,1,1,0,403,2,0,0,411,
scooby_state_407060|24|-1 0,1,0,1,0,1,0,1,1,1,1,402,2,0,0,411,
scooby_state_406cfe|37|0 375,0,0,7,0,0,0,27,0,0,0,0,0,0,1,410,
scooby_state_406cfe|26|1 355,0,0,0,5,1,0,6,40,0,0,0,0,0,0,407,
scooby_state_407060|23|-1 0,1,0,1,0,2,0,1,1,0,1,399,1,0,0,407,
scooby_state_406cfe|63|1 399,0,0,0,0,0,0,0,0,4,0,0,0,2,0,405,
scooby_state_406cfe|61|1 390,5,1,4,0,1,0,0,0,1,1,0,0,0,0,403,
scooby_state_406be9|34|0 401,0,0,0,0,0,0,1,0,0,0,0,0,0,0,402,
scooby_state_406cfe|5|1 374,0,0,7,10,0,0,0,0,0,4,0,5,0,0,400,
scooby_state_406cfe|14|1 386,3,0,0,0,0,0,0,1,0,1,0,1,0,0,392,
scooby_state_406c70|63|0 375,1,0,0,3,1,0,0,0,2,0,1,0,1,1,385,
scooby_state_406c70|28|-32 152,13,12,40,0,25,27,1,12,17,2,44,2,1,28,376,
scooby_state_406be9|52|0 363,0,1,0,0,0,2,0,0,1,0,0,1,0,7,375,
scooby_state_406cfe|28|1 370,0,0,0,0,0,2,0,0,0,0,0,0,1,0,373,
scooby_state_406be9|48|0 339,3,0,3,0,2,0,0,3,6,2,0,0,3,6,367,
scooby_state_406cfe|26|-1 354,0,0,5,0,0,0,0,3,0,0,0,0,1,0,363,
scooby_state_406cfe|28|3 3,0,21,0,98,0,39,1,78,0,0,0,0,65,56,361,
scooby_state_406be9|38|0 336,0,0,2,3,0,0,4,2,4,0,0,5,0,3,359,
scooby_state_406be9|47|0 336,0,3,0,3,0,0,0,3,0,0,0,2,0,2,349,
scooby_state_406be9|21|0 346,0,1,0,0,0,0,0,0,0,0,0,0,0,0,347,
scooby_state_406cfe|13|1 341,3,0,2,0,0,0,0,0,0,0,1,0,0,0,347,
scooby_state_406cfe|3|1 323,0,3,0,0,0,2,0,0,6,0,0,0,7,0,341,
scooby_state_406c70|35|32 331,0,0,1,1,0,0,0,0,0,0,1,1,1,1,337,
scooby_state_406be9|49|0 334,0,0,0,0,0,0,0,0,0,0,0,0,0,0,334,
scooby_state_406be9|37|0 320,1,0,6,0,0,0,2,0,0,0,0,0,2,0,331,
scooby_state_406cfe|18|1 322,1,0,0,0,0,0,0,0,3,0,0,0,0,0,326,
scooby_state_406be9|46|0 325,0,0,0,0,0,0,0,0,0,0,0,0,0,1,326,
scooby_state_406c70|32|0 318,0,1,0,2,0,1,0,0,0,1,1,0,0,0,324,
scooby_state_406cfe|15|1 312,0,0,1,0,0,3,1,1,0,4,0,0,0,0,322,
scooby_state_406cfe|35|0 312,0,1,0,1,0,0,0,2,0,0,0,0,1,1,318,
scooby_state_406c70|20|0 306,0,3,0,0,0,5,1,0,0,1,2,0,0,0,318,
scooby_state_406cfe|6|1 311,0,3,0,0,0,0,0,0,0,0,0,0,3,0,317,
scooby_state_406cfe|22|1 314,0,0,0,0,0,0,0,0,0,0,0,0,0,0,314,
scooby_state_406cfe|23|1 294,1,0,1,1,0,5,0,0,0,2,4,0,0,4,312,
scooby_state_406cfe|17|1 303,0,2,2,0,0,0,2,0,0,0,0,0,0,2,311,
scooby_state_406c70|32|32 271,2,11,0,2,7,4,0,1,2,0,3,1,2,0,306,
scooby_state_406be9|55|0 274,5,0,0,0,4,1,1,0,0,3,4,2,0,9,303,
scooby_state_406c70|35|0 297,0,0,1,1,0,0,1,0,1,1,0,0,1,0,303,
scooby_state_406cfe|20|1 284,2,0,2,1,2,0,3,0,0,0,0,3,0,3,300,
scooby_state_406cfe|7|1 201,50,0,0,0,0,0,0,0,0,5,43,0,1,0,300,
scooby_state_406be9|35|0 285,0,0,0,3,0,0,0,2,3,0,0,0,0,1,294,
scooby_state_406c70|51|0 270,1,0,3,0,0,0,13,0,0,2,0,0,1,1,291,
scooby_state_406cfe|25|-3 0,0,96,0,64,0,54,0,75,0,0,0,0,0,0,289,
scooby_state_406cfe|21|1 284,0,0,1,0,0,0,1,0,0,0,0,0,0,0,286,
scooby_state_406c70|51|32 267,1,1,2,0,2,0,2,0,1,4,0,0,2,2,284,
scooby_state_406cfe|12|1 282,0,0,0,0,0,0,0,0,0,0,0,1,0,0,283,
scooby_state_406be9|36|0 269,2,0,1,0,2,0,0,0,0,1,2,0,0,2,279,
scooby_state_406cfe|11|1 275,0,0,0,0,0,0,0,1,0,0,0,1,0,2,279,
scooby_state_406cfe|54|0 267,3,0,0,0,3,1,0,0,0,0,3,0,0,0,277,
scooby_state_406cfe|25|1 274,0,0,0,0,0,0,0,0,0,0,0,0,0,0,274,
scooby_state_406cfe|10|1 249,4,2,0,2,4,0,2,0,4,0,0,0,4,2,273,
scooby_state_406cfe|27|-1 264,0,0,0,0,0,0,1,0,0,0,0,1,4,2,272,
scooby_state_406cfe|1|1 243,0,7,0,0,0,1,0,0,0,1,0,0,7,0,259,
scooby_state_406cfe|19|1 249,0,4,0,0,0,0,0,0,0,0,1,0,0,2,256,
scooby_state_406c70|21|0 250,0,0,0,0,0,0,0,0,0,1,0,0,0,0,251,
scooby_state_406cfe|4|1 243,0,3,0,0,1,2,0,0,0,0,0,0,0,0,249,
scooby_state_406cfe|12|-1 237,0,0,1,0,0,0,2,0,0,0,3,3,0,0,246,
scooby_state_406cfe|44|1 241,0,0,0,0,0,1,0,0,0,0,0,0,0,0,242,
scooby_state_406c70|1|-32 221,3,4,0,2,0,0,1,1,1,0,0,2,1,4,240,
scooby_state_406cfe|16|1 232,0,1,0,0,0,0,0,0,0,0,0,0,1,0,234,
scooby_state_406cfe|25|-1 218,0,0,1,1,0,0,0,3,1,3,0,0,0,5,232,
scooby_state_406cfe|33|1 224,0,0,0,0,1,0,0,0,4,0,0,0,2,0,231,
scooby_state_406cfe|41|1 225,0,1,3,0,0,0,0,0,0,0,0,0,0,0,229,
scooby_state_406cfe|57|1 217,0,0,0,0,0,0,4,1,0,0,0,5,1,0,228,
scooby_state_406cfe|20|-1 223,0,0,0,0,1,0,0,0,0,2,0,0,0,0,226,
scooby_state_406cfe|9|-1 194,2,6,2,4,7,2,2,3,0,0,0,2,0,2,226,
scooby_state_406c70|48|31 218,1,1,0,0,0,3,0,0,0,0,0,0,1,0,224,
scooby_state_406cfe|13|-1 216,0,0,0,0,0,1,0,0,0,0,0,4,0,2,223,
scooby_state_406cfe|14|-1 221,0,0,0,0,1,0,0,0,0,0,0,0,0,0,222,
scooby_state_406cfe|42|1 218,0,0,0,0,0,0,0,0,0,0,0,0,0,0,218,
scooby_state_406be9|53|0 216,0,0,0,0,0,1,0,0,0,0,0,0,0,0,217,
scooby_state_406cfe|28|-1 195,1,1,1,2,3,0,0,0,0,0,0,0,9,0,212,
scooby_state_406cfe|43|1 212,0,0,0,0,0,0,0,0,0,0,0,0,0,0,212,
scooby_state_406c70|17|-31 0,1,0,0,0,0,0,0,0,0,182,27,0,0,0,210,
scooby_state_406cfe|53|0 209,0,0,0,0,0,0,0,0,0,0,0,0,0,0,209,
scooby_state_406cfe|31|1 200,0,0,0,0,0,3,0,0,1,0,0,0,0,3,207,
scooby_state_406cfe|16|-1 201,0,4,1,0,0,0,0,0,0,0,0,0,0,0,206,
scooby_state_406cfe|17|-1 197,3,0,0,1,0,0,0,3,0,0,1,0,0,1,206,
scooby_state_406cfe|34|1 204,0,0,0,0,0,0,0,0,0,0,0,1,0,0,205,
scooby_state_406c70|24|0 194,0,2,0,0,0,1,0,0,0,1,3,0,0,0,201,
scooby_state_406cfe|9|1 190,2,0,0,0,3,0,0,0,0,0,0,0,0,5,200,
scooby_state_406c70|26|-32 181,3,1,0,2,1,0,1,0,1,4,2,1,0,1,198,
scooby_state_406cfe|18|-1 185,3,0,0,1,3,0,0,0,0,0,0,0,0,4,196,
scooby_state_406cfe|8|1 169,5,0,0,5,6,4,0,0,0,0,0,0,5,1,195,
scooby_state_406cfe|30|1 182,2,0,0,0,2,3,0,0,3,0,0,0,0,0,192,
scooby_state_406cfe|32|1 175,0,1,0,4,2,0,2,0,0,0,0,5,0,3,192,
scooby_state_406cfe|11|-1 184,0,0,0,1,3,0,0,0,0,0,1,0,0,0,189,
scooby_state_406cfe|21|-1 181,0,0,0,4,0,0,2,0,0,0,0,0,0,0,187,
scooby_state_406c70|52|0 179,0,1,0,0,0,0,0,0,0,1,1,0,0,0,182,
scooby_state_406c70|56|0 176,0,1,0,0,0,4,0,0,0,0,1,0,0,0,182,
scooby_state_406cfe|10|-1 172,0,1,0,0,0,1,0,0,0,0,3,1,0,1,179,
scooby_state_406c70|8|-32 143,1,2,0,5,0,1,0,3,0,1,0,2,19,2,179,
scooby_state_406c70|52|32 156,3,3,0,3,0,3,1,0,1,0,1,0,0,5,176,
scooby_state_406c70|7|-32 159,0,1,0,5,0,0,0,0,1,3,1,0,0,3,173,
scooby_state_406cfe|56|1 80,0,0,0,0,0,0,11,0,1,0,25,25,0,26,168,
scooby_state_406cfe|15|-1 163,0,2,0,0,1,0,1,0,0,0,0,0,0,0,167,
scooby_state_406cfe|50|1 162,0,1,0,0,0,0,0,0,1,0,0,1,2,0,167,
scooby_state_406cfe|2|1 162,0,0,3,0,0,0,0,0,0,0,2,0,0,0,167,
scooby_state_406c70|19|-32 125,0,0,1,1,0,1,11,0,1,21,0,0,0,0,161,
scooby_state_406cfe|19|-1 150,5,0,4,0,0,0,0,1,0,0,0,1,0,0,161,
scooby_state_406c70|53|0 159,0,0,0,0,0,0,0,0,0,0,0,0,0,0,159,
scooby_state_406cfe|60|-1 124,5,2,0,3,1,2,1,0,2,1,3,3,4,5,156,
scooby_state_406cfe|40|1 125,0,0,2,0,1,0,0,1,0,7,3,0,0,17,156,
scooby_state_406cfe|60|1 144,0,0,2,2,0,0,0,0,1,0,0,0,0,3,152,
scooby_state_406cfe|45|1 117,3,0,3,5,7,3,2,0,0,0,3,0,0,5,148,
scooby_state_406cfe|5|-1 128,0,0,0,0,3,0,1,0,2,1,2,1,1,6,145,
scooby_state_406c70|30|-32 119,0,3,0,2,1,0,4,2,0,2,0,6,2,2,143,
scooby_state_406be9|54|0 137,2,0,0,0,1,0,0,0,0,0,1,0,0,0,141,
scooby_state_406cfe|6|-1 133,0,0,0,0,0,0,0,0,0,2,6,0,0,0,141,
scooby_state_406cfe|8|-1 119,3,3,0,0,0,3,0,3,4,0,0,3,0,2,140,
scooby_state_406cfe|49|1 139,0,0,0,0,0,0,0,0,0,0,0,0,0,0,139,
scooby_state_406c70|25|-32 120,2,0,1,0,6,0,0,0,1,7,0,1,0,0,138,
scooby_state_406cfe|7|-1 98,1,5,0,0,1,4,0,1,5,0,4,6,4,5,134,
scooby_state_406c70|53|32 127,0,0,1,0,0,0,1,0,0,1,0,1,0,0,131,
scooby_state_406c70|22|0 125,2,0,0,0,1,0,0,0,1,0,0,0,0,1,130,
scooby_state_406cfe|24|1 118,0,0,0,4,0,0,0,0,0,6,0,0,0,0,128,
scooby_state_406c70|29|-32 122,0,0,1,0,0,0,0,0,0,0,1,0,0,0,124,
scooby_state_406cfe|38|1 121,0,0,0,0,0,0,0,0,0,3,0,0,0,0,124,
scooby_state_406cfe|58|1 110,0,0,2,0,0,0,0,0,5,0,0,0,5,0,122,
scooby_state_406cfe|29|-1 89,3,0,0,4,0,2,3,0,1,4,2,3,6,4,121,
scooby_state_406c70|56|32 102,3,2,1,2,0,0,1,0,2,0,3,0,0,4,120,
scooby_state_406cfe|4|-1 113,0,4,0,1,0,0,0,0,0,0,2,0,0,0,120,
scooby_state_406cfe|59|1 115,0,0,0,0,0,0,0,0,0,0,0,0,0,0,115,
scooby_state_406cfe|32|-1 110,0,0,0,0,3,0,0,0,0,0,1,0,0,1,115,
scooby_state_406cfe|33|-1 111,0,0,0,0,3,0,0,0,0,0,0,0,0,0,114,
scooby_state_406c70|2|-32 110,1,0,0,2,0,0,0,0,0,0,0,0,0,0,113,
scooby_state_406cfe|31|-1 97,0,0,0,0,2,0,2,4,1,3,1,0,1,0,111,
scooby_state_406cfe|22|-1 89,0,0,0,5,3,0,2,0,0,0,5,4,0,2,110,
scooby_state_406c70|31|-32 87,3,0,0,3,1,0,1,2,1,2,0,3,1,3,107,
scooby_state_406cfe|43|-1 88,0,0,4,3,0,6,0,0,1,0,3,0,0,0,105,
scooby_state_406c70|49|1 90,1,0,0,0,2,0,0,1,0,7,0,1,1,0,103,
scooby_state_406c70|51|1 95,0,0,0,0,0,0,0,0,0,7,0,0,0,0,102,
scooby_state_406c70|18|-1 57,0,0,0,0,0,1,1,0,0,42,0,0,0,0,101,
scooby_state_406c70|17|1 94,1,1,0,0,0,0,0,0,1,3,0,0,1,0,101,
scooby_state_407060|49|0 0,0,0,1,1,0,0,2,2,5,8,62,15,3,1,100,
scooby_state_406cfe|48|1 98,1,0,0,0,0,0,0,0,0,0,0,0,0,0,99,
scooby_state_406cfe|0|-1 93,0,0,0,0,0,3,0,1,0,0,2,0,0,0,99,
scooby_state_406cfe|30|-1 97,0,0,0,0,0,0,0,0,0,0,0,0,0,0,97,
scooby_state_406c70|54|0 94,0,0,0,0,1,0,0,0,1,0,0,0,0,1,97,
scooby_state_406cfe|39|1 71,2,2,1,1,0,3,2,0,0,8,2,0,0,4,96,
scooby_state_406cfe|36|1 92,0,0,3,0,0,0,0,0,0,0,0,0,0,0,95,
scooby_state_406c70|14|1 89,1,0,0,0,0,0,0,0,0,1,1,3,0,0,95,
scooby_state_406c70|3|-32 92,0,0,1,0,0,0,0,1,0,0,0,0,0,0,94,
scooby_state_406cfe|1|-1 90,0,0,0,0,1,0,0,0,0,1,0,0,0,0,92,
scooby_state_406c70|14|-33 57,2,0,0,0,2,1,2,0,0,20,0,1,0,3,88,
scooby_state_406cfe|3|-1 79,0,2,0,0,1,0,0,3,0,0,0,0,2,0,87,
scooby_state_406cfe|51|1 80,1,0,0,0,0,3,0,0,0,0,1,0,0,2,87,
scooby_state_406cfe|57|-1 70,3,0,3,1,0,0,0,0,3,0,2,0,3,0,85,
scooby_state_406c70|42|1 76,1,0,0,2,0,0,0,1,0,0,0,1,1,2,84,
scooby_state_406c70|10|1 75,0,0,0,1,1,0,1,2,0,0,0,1,0,2,83,
scooby_state_406cfe|52|1 68,0,3,0,0,0,4,0,0,2,0,4,0,0,2,83,
scooby_state_406c70|0|-32 69,0,0,1,3,1,0,0,0,0,1,2,1,2,2,82,
scooby_state_406cfe|24|-1 79,0,0,0,0,0,0,0,3,0,0,0,0,0,0,82,
scooby_state_406c70|15|1 77,0,0,0,0,0,1,0,0,1,1,0,0,1,0,81,
scooby_state_406cfe|35|1 80,0,0,0,0,0,0,0,0,0,0,0,0,0,0,80,
scooby_state_406cfe|47|1 79,1,0,0,0,0,0,0,0,0,0,0,0,0,0,80,
scooby_state_406c70|23|0 79,0,0,0,0,0,0,0,0,0,0,0,0,0,0,79,
scooby_state_406cfe|46|1 68,0,4,0,0,4,0,0,0,0,0,0,0,0,0,76,
scooby_state_406cfe|62|-1 74,0,0,0,0,0,1,0,0,0,0,1,0,0,0,76,
scooby_state_406cfe|42|-1 75,0,0,0,0,0,0,1,0,0,0,0,0,0,0,76,
scooby_state_406c70|48|-1 69,0,0,0,0,0,0,0,0,0,2,0,0,0,4,75,
scooby_state_406c70|16|1 69,1,0,0,0,0,1,0,0,0,1,0,0,0,1,73,
scooby_state_406cfe|37|1 64,0,0,0,0,5,0,3,0,0,0,0,0,0,0,72,
scooby_state_406cfe|10|-10 0,0,0,29,0,0,20,19,0,0,0,0,3,0,0,71,
scooby_state_406c70|55|0 71,0,0,0,0,0,0,0,0,0,0,0,0,0,0,71,
scooby_state_406cfe|2|-1 61,1,3,0,3,0,0,0,0,0,0,0,0,1,1,70,
scooby_state_406cfe|61|-1 63,0,0,0,0,0,0,0,0,0,0,0,2,0,3,68,
scooby_state_406c70|43|34 11,9,0,7,0,12,1,12,12,3,0,0,0,0,0,67,
scooby_state_406c70|41|31 5,0,44,0,0,14,0,0,0,0,0,1,1,0,1,66,
scooby_state_406c70|46|1 60,1,0,0,0,0,0,0,1,0,0,0,3,1,0,66,
scooby_state_406cfe|59|-1 58,0,0,3,0,0,0,1,1,0,0,1,1,0,0,65,
scooby_state_406c70|13|-2 0,8,1,1,10,3,3,17,13,0,7,0,1,1,0,65,
scooby_state_406c70|28|1 22,2,2,31,1,0,0,0,0,3,1,2,0,0,0,64,
scooby_state_406c70|11|1 54,2,0,0,1,2,0,0,1,0,1,1,2,0,0,64,
scooby_state_406cfe|26|-3 6,42,0,4,0,0,0,4,0,0,0,7,0,0,0,63,
scooby_state_406c70|43|33 11,4,0,0,0,7,0,0,1,9,0,24,0,5,2,63,
scooby_state_406c70|24|-32 54,1,1,2,1,0,0,0,0,1,2,0,1,0,0,63,
scooby_state_406c70|60|1 21,2,3,30,1,1,0,0,0,2,0,1,0,0,1,62,
scooby_state_406cfe|44|-1 54,0,1,2,0,0,1,0,0,0,0,1,3,0,0,62,
scooby_state_406c70|13|1 50,0,0,0,2,0,0,0,0,1,6,0,1,0,2,62,
scooby_state_406cfe|38|-1 37,3,0,1,3,0,0,4,0,2,1,1,5,1,3,61,
scooby_state_406cfe|47|-1 57,0,0,0,0,0,0,0,0,1,3,0,0,0,0,61,
scooby_state_406cfe|20|10 0,0,0,0,13,25,0,0,0,23,0,0,0,0,0,61,
scooby_state_406c70|4|-33 4,0,5,2,1,6,2,1,4,6,1,2,2,22,3,61,
scooby_state_406cfe|24|-5 27,0,0,33,0,0,0,0,0,0,0,0,0,0,0,60,
scooby_state_406cfe|24|-4 59,0,0,0,0,0,0,0,0,0,0,0,0,0,0,59,
scooby_state_406cfe|35|2 53,0,0,0,0,0,0,0,0,0,0,6,0,0,0,59,
scooby_state_406c70|54|32 53,1,0,0,0,0,0,0,0,2,0,0,0,0,2,58,
scooby_state_406cfe|55|1 49,0,3,0,1,2,0,0,0,0,0,0,0,2,0,57,
scooby_state_406c70|13|-1 20,2,0,0,1,0,0,0,0,1,30,2,0,1,0,57,
scooby_state_406c70|5|1 5,1,3,0,1,0,6,0,0,3,2,2,3,3,28,57,
scooby_state_406cfe|29|5 0,0,0,0,0,0,0,0,0,6,51,0,0,0,0,57,
scooby_state_406cfe|36|4 33,0,0,0,0,1,0,0,0,0,0,0,22,0,0,56,
scooby_state_406c70|37|1 4,2,2,0,0,1,2,1,1,4,2,5,2,1,28,55,
scooby_state_406cfe|39|-1 31,0,8,4,0,0,3,0,0,3,0,0,3,0,3,55,
scooby_state_406c70|59|-4 2,4,5,8,5,3,1,1,4,2,5,4,4,3,3,54,
scooby_state_406c70|20|-32 41,1,0,0,7,0,0,0,0,0,4,0,0,0,1,54,
scooby_state_406cfe|41|-1 53,0,0,0,0,0,0,0,0,0,0,1,0,0,0,54,
scooby_state_406cfe|34|-1 53,1,0,0,0,0,0,0,0,0,0,0,0,0,0,54,
scooby_state_406cfe|29|3 2,0,0,0,0,0,0,0,0,0,23,21,8,0,0,54,
scooby_state_406cfe|5|-16 0,0,4,4,4,4,0,6,4,0,0,23,0,0,4,53,
scooby_state_406cfe|2|-16 0,0,6,0,7,0,6,7,5,6,6,1,4,0,5,53,
scooby_state_406c70|21|-32 53,0,0,0,0,0,0,0,0,0,0,0,0,0,0,53,
scooby_state_406c70|48|1 51,1,0,0,0,0,0,0,0,0,1,0,0,0,0,53,
scooby_state_407060|17|0 0,0,0,2,0,0,0,0,0,2,0,42,1,5,0,52,
scooby_state_406cfe|40|-1 42,0,0,0,3,0,0,0,0,1,0,1,1,0,4,52,
scooby_state_406cfe|4|-16 0,5,0,6,6,6,6,0,0,0,6,4,6,0,6,51,
scooby_state_406cfe|37|-1 47,2,0,0,0,0,0,0,0,0,0,0,2,0,0,51,
scooby_state_406cfe|10|-11 1,0,0,0,0,0,0,0,0,15,0,0,34,0,0,50,
scooby_state_406cfe|33|-2 39,11,0,0,0,0,0,0,0,0,0,0,0,0,0,50,
scooby_state_406cfe|32|-4 49,0,0,0,0,0,0,1,0,0,0,0,0,0,0,50,
scooby_state_406cfe|23|-1 46,0,0,0,0,0,0,3,0,0,0,0,0,0,0,49,
scooby_state_406c70|46|-1 33,0,0,0,0,0,0,0,0,0,15,1,0,0,0,49,
scooby_state_407060|11|-2 0,0,0,0,1,0,0,0,0,0,2,38,0,8,0,49,
scooby_state_406c70|16|-33 30,0,0,7,4,0,0,1,0,1,0,5,0,0,0,48,
scooby_state_406cfe|56|-1 45,0,0,0,1,0,0,2,0,0,0,0,0,0,0,48,
scooby_state_406c70|19|-31 0,0,0,0,0,0,0,0,0,0,48,0,0,0,0,48,
scooby_state_406cfe|58|-1 45,0,0,0,0,0,0,0,0,2,0,1,0,0,0,48,
scooby_state_406c70|12|1 29,1,1,0,0,1,2,0,0,0,8,1,0,1,2,46,
scooby_state_406c70|47|31 44,0,0,0,0,0,0,0,0,0,0,0,0,2,0,46,
scooby_state_406cfe|5|-6 0,0,0,2,0,0,0,0,0,0,0,28,0,0,16,46,
scooby_state_406cfe|33|-3 37,0,0,0,0,0,0,0,0,0,6,2,0,0,0,45,
scooby_state_406c70|45|1 37,0,0,0,0,0,0,0,0,1,1,3,0,3,0,45,
scooby_state_406c70|50|1 44,0,0,0,0,0,0,0,0,0,0,0,0,0,0,44,
scooby_state_406c70|16|-1 40,0,1,0,0,0,0,0,0,0,2,0,0,0,1,44,
scooby_state_406c70|44|-1 11,0,1,0,0,0,1,0,0,0,30,0,0,0,1,44,
scooby_state_406cfe|36|3 36,2,2,0,0,0,0,0,0,0,0,3,0,0,1,44,
scooby_state_406cfe|13|-5 0,0,0,37,0,0,2,2,0,0,0,0,0,0,2,43,
scooby_state_406cfe|46|-1 36,0,4,0,0,0,0,0,3,0,0,0,0,0,0,43,
scooby_state_406cfe|41|-4 0,0,6,0,0,0,6,0,0,6,7,6,6,0,6,43,
scooby_state_406cfe|35|-1 41,0,0,0,0,0,0,0,0,0,0,0,0,0,2,43,
scooby_state_406cfe|5|-5 0,0,0,43,0,0,0,0,0,0,0,0,0,0,0,43,
scooby_state_406cfe|53|1 41,0,0,0,0,0,0,0,0,1,0,0,0,0,0,42,
scooby_state_406cfe|50|-1 39,3,0,0,0,0,0,0,0,0,0,0,0,0,0,42,
scooby_state_406c70|7|1 31,0,2,0,2,1,1,0,1,1,3,0,0,0,0,42,
scooby_state_407060|61|0 0,0,4,1,0,0,0,1,0,0,4,27,0,3,2,42,
scooby_state_407060|45|0 0,2,0,0,5,3,0,3,0,0,0,27,1,0,0,41,
scooby_state_406cfe|21|11 41,0,0,0,0,0,0,0,0,0,0,0,0,0,0,41,
scooby_state_406cfe|48|-1 41,0,0,0,0,0,0,0,0,0,0,0,0,0,0,41,
scooby_state_406be9|16|-1 35,0,0,2,0,0,0,2,0,1,1,0,0,0,0,41,
scooby_state_406c70|9|-34 0,0,0,0,1,0,0,0,0,0,40,0,0,0,0,41,
scooby_state_407060|20|0 0,5,0,0,1,4,0,2,0,0,0,26,2,0,0,40,
scooby_state_406cfe|45|4 0,0,0,0,0,0,0,0,0,0,0,0,40,0,0,40,
scooby_state_406cfe|1|-13 23,3,0,3,3,0,0,0,0,0,4,0,0,3,0,39,
scooby_state_406be9|59|-1 19,4,3,0,0,0,0,3,0,3,1,0,0,0,5,38,
scooby_state_406cfe|3|-16 0,5,4,0,0,6,0,2,4,0,2,7,0,3,5,38,
scooby_state_407060|46|0 0,0,4,1,0,0,10,1,0,1,0,20,0,0,0,37,
scooby_state_406cfe|27|-3 0,0,0,3,1,0,0,0,0,0,0,0,30,2,1,37,
scooby_state_406c70|19|1 37,0,0,0,0,0,0,0,0,0,0,0,0,0,0,37,
scooby_state_406c70|45|31 11,0,0,0,10,1,0,0,0,1,0,14,0,0,0,37,
scooby_state_406c70|39|1 29,3,0,0,0,2,0,0,1,1,1,0,0,0,0,37,
scooby_state_407060|48|0 0,0,0,0,0,0,0,0,1,0,0,25,3,3,4,36,
scooby_state_407060|18|-2 0,0,0,0,0,0,0,0,0,0,0,32,0,0,4,36,
scooby_state_406c70|13|-33 22,1,1,1,0,1,1,0,1,3,1,2,1,0,0,35,
scooby_state_407060|62|0 1,1,0,0,3,1,0,0,0,0,0,28,0,0,1,35,
scooby_state_406c70|59|31 4,0,0,0,0,0,0,1,0,0,0,0,30,0,0,35,
scooby_state_406cfe|17|-13 28,0,0,0,0,0,0,0,4,3,0,0,0,0,0,35,
scooby_state_406be9|12|-1 33,1,0,0,0,0,0,0,0,0,0,0,1,0,0,35,
scooby_state_407060|13|0 0,0,0,0,6,4,0,2,0,0,0,22,0,0,0,34,
scooby_state_406c70|18|1 33,0,0,0,0,0,0,0,0,0,1,0,0,0,0,34,
scooby_state_406cfe|36|-1 30,0,0,0,0,0,0,0,1,0,0,0,3,0,0,34,
scooby_state_407060|16|-2 0,0,0,0,0,0,0,0,0,0,0,29,1,0,4,34,
scooby_state_406c70|14|-1 4,0,0,1,0,0,0,0,0,0,28,1,0,0,0,34,
scooby_state_407060|13|-2 0,0,0,0,0,0,0,1,0,1,0,31,0,1,0,34,
scooby_state_406be9|61|-1 32,0,0,0,0,0,0,0,0,0,0,0,0,1,0,33,
scooby_state_406c70|43|-2 0,10,0,0,0,0,0,0,0,4,3,3,7,3,3,33,
scooby_state_406c70|20|1 4,0,1,1,0,0,0,26,0,0,1,0,0,0,0,33,
scooby_state_406cfe|7|-2 0,20,1,4,1,1,0,1,1,0,0,2,0,2,0,33,
scooby_state_406cfe|55|-1 23,0,0,1,0,0,3,2,1,0,3,0,0,0,0,33,
scooby_state_407060|19|0 0,0,0,0,4,0,0,0,0,0,0,26,2,0,0,32,
scooby_state_406cfe|54|1 31,0,0,0,0,0,0,0,0,0,0,0,0,0,1,32,
scooby_state_407060|15|-3 0,1,3,0,0,0,5,2,0,1,0,6,0,5,9,32,
scooby_state_406be9|27|-1 27,0,0,1,0,0,0,2,0,1,0,0,0,0,1,32,
scooby_state_406cfe|30|3 0,0,0,0,0,0,0,0,0,0,0,30,0,0,2,32,
scooby_state_406cfe|52|-1 28,0,0,0,0,0,0,0,0,0,3,0,0,0,1,32,
scooby_state_407060|27|0 0,0,0,0,0,0,0,0,0,1,0,22,9,0,0,32,
scooby_state_406cfe|45|-1 27,0,0,0,0,0,0,0,0,0,4,0,0,0,0,31,
scooby_state_406cfe|10|5 0,0,0,18,0,0,0,13,0,0,0,0,0,0,0,31,
scooby_state_407060|18|0 1,0,0,1,0,0,0,0,1,0,0,26,0,1,1,31,
scooby_state_407060|50|0 0,0,0,0,0,0,0,0,1,0,0,28,0,0,1,30,
scooby_state_407060|51|0 0,0,1,1,0,0,0,1,0,0,0,19,2,5,1,30,
scooby_state_406be9|19|-1 26,0,0,0,0,2,0,1,0,0,1,0,0,0,0,30,
scooby_state_406be9|6|-1 23,0,0,1,1,0,0,0,0,1,0,0,1,1,2,30,
scooby_state_406c70|17|-1 12,0,0,0,0,0,5,3,0,0,10,0,0,0,0,30,
scooby_state_406cfe|18|5 6,0,0,4,0,15,3,0,0,2,0,0,0,0,0,30,
scooby_state_407060|31|0 8,0,0,0,0,0,0,0,0,0,0,20,0,2,0,30,
scooby_state_406cfe|6|-4 29,0,0,0,0,0,0,0,0,0,0,0,0,0,0,29,
scooby_state_406c70|52|1 3,0,0,1,0,0,0,25,0,0,0,0,0,0,0,29,
scooby_state_406c70|50|31 29,0,0,0,0,0,0,0,0,0,0,0,0,0,0,29,
scooby_state_406c70|42|-1 2,0,0,1,1,1,1,0,0,0,22,0,0,0,1,29,
scooby_state_407060|58|0 0,0,2,2,1,1,0,0,0,0,0,18,0,2,3,29,
scooby_state_406be9|7|-2 0,8,3,3,0,1,3,3,0,3,0,3,0,2,0,29,
scooby_state_406c70|47|1 28,0,0,0,0,0,0,0,0,1,0,0,0,0,0,29,
scooby_state_406cfe|11|6 4,10,0,0,0,0,0,0,0,0,0,15,0,0,0,29,
scooby_state_406cfe|25|-2 0,0,0,0,0,0,0,0,0,0,0,29,0,0,0,29,
scooby_state_406c70|2|-1 2,1,1,2,2,4,2,5,1,2,2,0,0,1,4,29,
scooby_state_407060|47|0 2,1,1,0,0,0,0,0,0,0,0,22,0,2,0,28,
scooby_state_406cfe|49|-1 28,0,0,0,0,0,0,0,0,0,0,0,0,0,0,28,
scooby_state_407060|28|0 0,0,0,0,0,0,0,0,0,2,2,23,1,0,0,28,
scooby_state_4070c5|27|1 15,0,13,0,0,0,0,0,0,0,0,0,0,0,0,28,
scooby_state_407060|10|-4 2,3,0,0,1,2,1,1,1,1,0,13,1,1,1,28,
scooby_state_407060|44|0 0,0,0,0,0,0,0,0,0,0,0,27,0,0,1,28,
scooby_state_406c70|17|-29 0,0,0,1,0,0,1,0,0,23,3,0,0,0,0,28,
scooby_state_407060|32|0 0,0,2,0,0,0,0,0,0,0,0,23,3,0,0,28,
scooby_state_4072fb|49|0 28,0,0,0,0,0,0,0,0,0,0,0,0,0,0,28,
scooby_state_406c70|22|-32 9,0,15,0,1,1,0,1,0,0,0,0,1,0,0,28,
scooby_state_406c70|58|1 20,0,2,0,1,0,0,0,2,0,0,0,0,1,2,28,
scooby_state_406be9|30|-1 25,0,0,2,0,0,0,0,0,0,1,0,0,0,0,28,
scooby_state_406cfe|54|-1 20,0,0,1,0,1,2,0,0,0,3,0,0,0,0,27,
scooby_state_406c70|45|-1 15,2,0,0,1,0,0,1,0,0,8,0,0,0,0,27,
scooby_state_406be9|26|-1 23,0,1,0,0,1,0,1,0,0,1,0,0,0,0,27,
scooby_state_406cfe|6|-16 0,0,0,3,0,0,0,3,3,0,3,0,4,7,4,27,
scooby_state_406cfe|16|-3 9,1,0,0,0,4,0,3,0,4,0,0,0,0,6,27,
scooby_state_406c70|44|31 5,0,0,0,0,0,2,0,3,0,0,0,0,0,17,27,
scooby_state_406c70|55|32 27,0,0,0,0,0,0,0,0,0,0,0,0,0,0,27,
scooby_state_407060|20|-2 0,0,0,0,0,0,1,0,0,0,0,25,0,0,0,26,
scooby_state_407060|57|0 1,2,0,1,0,2,2,0,0,0,0,16,2,0,0,26,
scooby_state_406c70|12|-3 0,0,0,0,0,0,0,0,0,11,0,0,0,0,15,26,
scooby_state_406c70|19|-33 0,0,0,1,1,0,0,0,0,0,24,0,0,0,0,26,
scooby_state_406cfe|44|2 0,0,5,6,5,0,0,0,0,0,0,6,0,0,4,26,
scooby_state_406be9|32|-1 25,0,0,0,0,0,0,0,0,0,0,0,0,0,1,26,
scooby_state_407060|13|-4 0,0,0,1,0,0,1,0,0,0,4,18,1,0,1,26,
scooby_state_406be9|60|1 0,0,4,5,1,0,0,1,2,4,3,2,4,0,0,26,
scooby_state_407060|60|0 0,2,0,0,0,1,0,1,0,0,0,15,3,2,2,26,
scooby_state_406be9|13|-1 26,0,0,0,0,0,0,0,0,0,0,0,0,0,0,26,
scooby_state_406be9|14|-1 21,0,0,0,0,0,0,0,2,0,0,0,1,0,1,25,
scooby_state_4072fb|42|0 25,0,0,0,0,0,0,0,0,0,0,0,0,0,0,25,
scooby_state_407060|34|0 0,0,2,2,0,0,0,0,0,0,0,21,0,0,0,25,
scooby_state_407060|59|0 0,0,1,2,0,0,0,0,0,0,0,19,0,2,1,25,
scooby_state_406c70|44|1 13,1,2,0,0,1,3,0,0,0,1,1,0,1,2,25,
scooby_state_406be9|58|-1 19,0,1,0,0,0,1,0,1,0,0,0,0,1,2,25,
scooby_state_407060|16|0 0,0,0,2,0,0,0,0,0,0,0,21,0,0,2,25,
scooby_state_406c70|59|1 6,1,0,0,0,1,0,0,1,0,0,14,1,1,0,25,
scooby_state_406be9|58|-4 2,2,0,12,0,2,2,0,0,0,0,2,0,0,3,25,
scooby_state_406c70|15|-31 0,2,0,0,0,0,0,0,0,0,20,2,0,0,0,24,
scooby_state_406c70|27|-33 0,0,14,0,1,0,0,0,0,0,3,2,1,2,1,24,
scooby_state_406cfe|4|-7 0,0,6,0,0,0,0,0,12,0,0,6,0,0,0,24,
scooby_state_406be9|9|2 0,0,0,4,0,2,3,0,3,0,3,2,3,0,4,24,
scooby_state_406cfe|35|4 0,0,0,0,0,0,0,1,0,0,2,0,21,0,0,24,
scooby_state_406be9|40|-1 18,0,0,0,0,0,2,0,0,1,0,0,1,1,1,24,
scooby_state_407060|43|0 0,0,0,0,0,0,0,0,0,0,0,24,0,0,0,24,
scooby_state_406be9|1|-1 21,0,0,0,0,1,1,1,0,0,0,0,0,0,0,24,
scooby_state_406be9|9|-1 5,2,4,2,1,3,0,0,0,1,0,1,1,1,2,23,
scooby_state_406cfe|30|2 2,0,0,0,0,0,0,0,0,0,0,21,0,0,0,23,
scooby_state_407060|30|0 0,0,0,0,0,0,0,0,0,0,0,16,1,2,4,23,
scooby_state_406cfe|31|-4 2,2,2,4,2,2,2,0,2,0,0,0,2,3,0,23,
scooby_state_407060|17|-9 0,0,1,2,0,0,0,1,0,1,0,1,10,7,0,23,
scooby_state_407060|46|-3 1,0,0,0,0,1,1,0,0,2,2,16,0,0,0,23,
scooby_state_406cfe|51|-1 17,1,0,2,0,0,0,0,0,0,1,0,0,0,2,23,
scooby_state_406c70|10|-33 0,0,0,0,0,0,0,0,1,0,21,0,0,0,1,23,
scooby_state_406cfe|9|-12 0,0,0,0,0,0,0,23,0,0,0,0,0,0,0,23,
scooby_state_406be9|28|-1 17,0,1,1,0,0,1,0,0,1,0,0,1,0,1,23,
scooby_state_406c70|43|-1 0,0,0,0,0,0,0,1,0,1,20,1,0,0,0,23,
scooby_state_406c70|3|-31 0,0,0,1,1,1,1,1,0,1,10,4,1,1,1,23,
scooby_state_406c70|15|2 0,0,0,0,2,1,2,3,0,1,5,2,5,0,1,22,
scooby_state_406c70|13|-30 0,0,0,0,0,0,0,0,0,0,22,0,0,0,0,22,
scooby_state_406be9|17|-1 21,0,0,0,0,1,0,0,0,0,0,0,0,0,0,22,
scooby_state_406c70|2|1 5,1,2,1,2,2,0,1,3,1,2,2,0,0,0,22,
scooby_state_406cfe|20|9 0,0,0,0,0,0,0,0,0,13,0,9,0,0,0,22,
scooby_state_406cfe|17|3 0,0,1,0,0,7,0,0,0,0,0,8,2,2,2,22,
scooby_state_406c70|12|-33 16,1,0,0,0,0,1,1,2,0,0,0,1,0,0,22,
scooby_state_407060|14|-2 0,0,0,0,1,0,0,0,0,0,0,21,0,0,0,22,
scooby_state_406c70|27|1 3,0,0,0,0,0,0,0,0,0,1,15,3,0,0,22,
scooby_state_406cfe|1|-14 0,0,6,0,6,3,1,0,0,0,6,0,0,0,0,22,
scooby_state_406cfe|26|-2 0,3,0,0,0,0,0,2,0,0,0,4,13,0,0,22,
scooby_state_406cfe|17|-2 4,15,0,0,0,0,0,3,0,0,0,0,0,0,0,22,
scooby_state_406c70|38|1 17,0,0,0,1,0,1,0,0,0,1,2,0,0,0,22,
scooby_state_406cfe|21|4 1,0,0,0,0,0,0,0,0,0,0,0,21,0,0,22,
scooby_state_406cfe|28|2 1,0,0,0,0,0,0,0,0,0,0,21,0,0,0,22,
scooby_state_407060|55|0 0,0,0,2,0,0,2,0,1,0,0,13,0,1,3,22,
scooby_state_407060|42|-4 1,4,0,0,2,1,1,1,0,1,0,9,0,1,1,22,
scooby_state_406cfe|62|4 0,0,2,3,4,1,2,2,0,0,2,0,3,2,1,22,
scooby_state_406c70|37|33 3,2,2,1,2,2,2,1,2,2,0,0,0,0,2,21,
scooby_state_407060|29|0 0,1,0,1,0,0,0,0,1,3,0,14,1,0,0,21,
scooby_state_406be9|31|-1 18,0,0,0,3,0,0,0,0,0,0,0,0,0,0,21,
scooby_state_406c70|12|-47 1,3,0,3,1,0,1,1,2,1,2,4,1,1,0,21,
scooby_state_406cfe|23|-2 0,16,0,0,1,3,0,0,0,0,0,0,0,0,1,21,
scooby_state_407060|11|-3 1,0,0,0,0,0,0,0,1,0,0,19,0,0,0,21,
scooby_state_407060|53|0 1,0,0,0,0,0,0,0,3,0,0,16,1,0,0,21,
scooby_state_406be9|0|-1 15,0,0,0,0,0,2,0,1,0,0,0,2,0,1,21,
scooby_state_406cfe|9|2 2,0,0,0,0,2,1,2,3,1,0,5,2,2,1,21,
scooby_state_407060|25|0 0,0,0,0,0,0,0,0,3,0,0,15,0,0,3,21,
scooby_state_4072fb|43|0 21,0,0,0,0,0,0,0,0,0,0,0,0,0,0,21,
scooby_state_406be9|5|-1 7,0,3,1,1,0,1,1,1,1,0,0,0,1,4,21,
scooby_state_406be9|25|-1 12,0,1,2,0,1,0,0,1,0,3,1,0,0,0,21,
scooby_state_407060|26|0 0,0,0,0,0,0,0,0,0,0,0,15,3,2,1,21,
scooby_state_406be9|29|-1 14,1,1,0,0,1,0,1,1,0,0,0,1,0,1,21,
scooby_state_406c70|15|-30 0,0,0,4,1,0,0,1,0,0,6,1,0,0,8,21,
scooby_state_406c70|43|31 11,0,0,0,0,0,1,0,9,0,0,0,0,0,0,21,
scooby_state_406c70|49|33 0,2,0,0,0,0,0,15,0,1,0,0,0,0,3,21,
scooby_state_407060|52|0 3,0,0,2,0,0,0,0,0,0,0,15,0,0,0,20,
scooby_state_406c70|26|1 12,1,0,0,0,1,2,0,1,0,1,0,0,2,0,20,
scooby_state_406cfe|4|-17 0,0,0,0,0,0,0,7,0,12,0,0,0,1,0,20,
scooby_state_407060|17|-8 0,0,0,0,0,0,0,0,0,0,0,16,0,3,1,20,
scooby_state_406cfe|14|13 0,0,0,0,0,0,0,0,0,0,18,2,0,0,0,20,
scooby_state_406c70|25|-33 2,1,0,0,3,0,1,0,0,2,0,2,4,0,5,20,
scooby_state_407060|15|-2 0,0,0,0,0,0,0,0,0,0,0,15,2,3,0,20,
scooby_state_406cfe|62|3 3,0,2,0,0,0,0,0,0,0,1,7,4,1,2,20,
scooby_state_406c70|10|-4 1,1,1,0,1,0,5,0,2,1,1,0,3,4,0,20,
scooby_state_406c70|11|-1 0,0,0,1,1,1,1,1,1,0,11,1,1,1,0,20,
scooby_state_406cfe|0|-29 0,0,0,1,0,0,0,0,0,0,0,0,13,6,0,20,
scooby_state_406be9|20|-1 12,0,0,0,0,0,0,0,0,0,0,1,3,2,2,20,
scooby_state_406cfe|13|-4 11,0,0,9,0,0,0,0,0,0,0,0,0,0,0,20,
scooby_state_406c70|13|-34 0,2,0,0,0,0,0,0,0,0,18,0,0,0,0,20,
scooby_state_406c70|30|1 14,1,1,0,0,1,0,1,0,0,0,2,0,0,0,20,
scooby_state_406be9|41|-1 15,0,2,1,0,0,1,1,0,0,0,0,0,0,0,20,
scooby_state_406be9|2|-1 18,0,0,0,0,0,1,0,1,0,0,0,0,0,0,20,
scooby_state_406c70|43|30 20,0,0,0,0,0,0,0,0,0,0,0,0,0,0,20,
scooby_state_406cfe|6|-40 13,0,0,0,2,5,0,0,0,0,0,0,0,0,0,20,
scooby_state_406c70|26|-31 0,0,0,0,0,0,0,0,0,0,19,0,1,0,0,20,
scooby_state_407060|31|-2 0,0,0,0,0,0,0,0,0,0,0,20,0,0,0,20,
scooby_state_406be9|10|-1 17,0,1,0,0,0,0,0,0,0,0,0,2,0,0,20,
scooby_state_406cfe|7|-16 0,0,0,4,0,0,4,0,3,4,0,4,0,0,0,19,
scooby_state_407060|47|-2 0,0,0,0,0,0,0,0,0,0,0,7,11,1,0,19,
scooby_state_4072fb|44|0 19,0,0,0,0,0,0,0,0,0,0,0,0,0,0,19,
scooby_state_406cfe|26|3 0,0,0,0,0,0,0,0,0,0,0,13,2,2,2,19,
scooby_state_4070c5|49|1 14,0,5,0,0,0,0,0,0,0,0,0,0,0,0,19,
scooby_state_406c70|4|-1 3,2,2,0,1,1,0,0,4,2,0,1,3,0,0,19,
scooby_state_406cfe|28|-2 2,5,0,6,0,0,2,0,0,2,0,0,0,1,1,19,
scooby_state_406c70|63|1 3,2,1,0,3,0,2,0,2,1,2,1,0,2,0,19,
scooby_state_406c70|43|1 13,2,0,0,0,1,0,0,0,0,0,1,2,0,0,19,
scooby_state_407060|46|-2 0,0,0,0,1,0,0,0,0,0,0,18,0,0,0,19,
scooby_state_406c70|12|-1 0,0,2,0,0,0,2,0,0,0,14,1,0,0,0,19,
scooby_state_407060|9|-2 0,0,0,0,1,0,0,0,0,0,0,12,0,6,0,19,
scooby_state_407060|23|-2 0,0,0,0,0,0,0,0,0,0,0,19,0,0,0,19,
scooby_state_4070c5|17|1 14,0,5,0,0,0,0,0,0,0,0,0,0,0,0,19,
scooby_state_406c70|34|1 7,1,1,0,0,2,0,0,1,3,1,1,2,0,0,19,
scooby_state_406be9|23|-2 1,7,0,1,1,0,1,0,1,3,1,0,1,0,1,18,
scooby_state_406be9|15|-1 12,0,2,0,0,0,1,0,2,0,0,0,1,0,0,18,
scooby_state_406c70|6|1 15,0,0,0,1,0,1,0,0,0,1,0,0,0,0,18,
scooby_state_407060|14|0 0,0,0,0,0,0,4,0,0,0,0,14,0,0,0,18,
scooby_state_406be9|35|4 0,1,0,0,0,1,1,1,2,0,0,8,1,1,2,18,
scooby_state_406be9|62|1 3,1,0,4,0,0,0,0,2,0,3,2,3,0,0,18,
scooby_state_407060|10|-2 0,0,0,0,0,0,0,0,0,0,0,18,0,0,0,18,
scooby_state_406c70|58|31 18,0,0,0,0,0,0,0,0,0,0,0,0,0,0,18,
scooby_state_406c70|38|31 16,1,0,1,0,0,0,0,0,0,0,0,0,0,0,18,
scooby_state_407060|21|0 4,0,0,0,0,0,0,1,0,0,0,10,0,3,0,18,
scooby_state_407060|14|-3 0,0,0,0,0,2,0,0,1,0,6,9,0,0,0,18,
scooby_state_407060|15|0 0,0,1,0,1,0,1,0,0,1,0,13,1,0,0,18,
scooby_state_406cfe|29|-4 0,0,0,18,0,0,0,0,0,0,0,0,0,0,0,18,
scooby_state_406be9|57|-1 11,0,0,1,2,0,0,0,0,0,0,2,0,2,0,18,
scooby_state_406cfe|22|5 10,1,0,0,1,0,0,0,0,5,0,0,0,0,0,17,
scooby_state_407060|52|-2 0,0,0,0,0,0,1,0,0,0,0,16,0,0,0,17,
scooby_state_407060|54|0 0,0,0,0,0,0,0,0,1,0,0,16,0,0,0,17,
scooby_state_406be9|18|5 1,0,1,0,0,0,0,0,0,0,0,14,0,1,0,17,
scooby_state_406cfe|17|4 0,0,2,2,0,0,1,2,1,0,2,0,6,1,0,17,
scooby_state_406be9|3|-1 10,1,0,0,1,1,1,0,0,0,2,0,0,1,0,17,
scooby_state_407060|26|-3 4,0,0,0,0,0,0,0,0,0,0,12,1,0,0,17,
scooby_state_407060|17|-10 0,0,0,0,0,0,0,0,0,0,0,12,4,1,0,17,
scooby_state_406cfe|17|2 0,0,0,0,0,0,0,0,0,0,0,17,0,0,0,17,
scooby_state_406c70|12|-31 0,0,0,0,0,0,0,0,0,0,16,1,0,0,0,17,
scooby_state_406c70|18|-33 15,1,0,0,0,0,0,0,0,0,0,0,0,0,1,17,
scooby_state_406cfe|42|-2 0,8,0,2,0,0,0,2,0,4,0,0,1,0,0,17,
scooby_state_406c70|10|-36 2,0,0,1,3,0,3,0,2,0,2,1,1,2,0,17,
scooby_state_406be9|18|-1 13,0,1,0,0,0,0,0,2,0,0,0,0,0,0,16,
scooby_state_406cfe|15|14 0,0,0,0,4,1,0,0,1,2,0,0,3,0,5,16,
scooby_state_406c70|1|-33 1,1,1,1,1,1,2,2,2,1,0,1,0,0,2,16,
scooby_state_407060|22|0 3,0,0,0,0,0,0,0,3,0,0,7,0,2,1,16,
scooby_state_406c70|17|-33 13,1,0,0,0,0,0,0,0,0,1,1,0,0,0,16,
scooby_state_407060|22|-3 0,0,0,0,0,0,0,0,0,0,0,11,5,0,0,16,
scooby_state_406c70|2|-31 0,0,0,0,0,0,0,0,1,1,12,1,0,1,0,16,
scooby_state_406be9|62|-1 12,0,0,0,2,0,0,0,0,0,1,0,0,1,0,16,
scooby_state_406cfe|17|-4 15,0,0,0,0,0,0,0,0,0,0,1,0,0,0,16,
scooby_state_406c70|31|1 4,1,2,0,1,1,1,0,1,0,1,1,1,2,0,16,
scooby_state_406c70|14|-28 0,1,1,1,2,3,0,0,0,2,2,2,0,0,2,16,
scooby_state_406c70|46|31 9,1,1,0,0,0,1,0,0,0,2,0,0,2,0,16,
scooby_state_4070c5|26|1 15,0,1,0,0,0,0,0,0,0,0,0,0,0,0,16,
scooby_state_406be9|38|-1 5,0,1,1,0,0,0,2,0,1,2,1,0,1,2,16,
scooby_state_406be9|60|-1 14,0,0,0,0,0,0,1,0,0,1,0,0,0,0,16,
scooby_state_406be9|62|4 0,2,2,0,2,1,0,0,0,2,1,1,1,2,2,16,
scooby_state_4072fb|48|0 16,0,0,0,0,0,0,0,0,0,0,0,0,0,0,16,
scooby_state_406cfe|1|-15 0,4,9,0,1,0,0,0,0,0,0,2,0,0,0,16,
scooby_state_406be9|16|-6 2,2,2,1,3,0,3,1,1,1,0,0,0,0,0,16,
scooby_state_406be9|31|-4 2,0,0,5,2,1,1,2,1,0,0,0,1,0,1,16,
scooby_state_407060|5|-4 0,7,0,4,0,0,2,0,0,1,0,0,0,0,1,15,
scooby_state_406c70|34|-1 2,0,0,2,2,3,1,2,0,1,1,0,0,0,1,15,
scooby_state_406be9|21|-1 8,0,1,3,0,0,0,0,0,0,0,0,1,1,1,15,
scooby_state_406cfe|11|7 0,0,0,0,0,0,0,0,0,0,0,0,0,15,0,15,
scooby_state_407060|33|0 0,0,0,0,0,0,0,0,0,0,0,15,0,0,0,15,
scooby_state_406c70|42|-4 0,3,0,0,2,0,3,0,3,0,0,1,1,2,0,15,
scooby_state_406be9|7|-1 11,0,0,0,0,0,1,0,0,1,0,1,0,1,0,15,
scooby_state_406be9|4|-1 11,0,0,0,0,0,0,0,0,0,2,0,0,1,1,15,
scooby_state_4070c5|25|8 14,0,1,0,0,0,0,0,0,0,0,0,0,0,0,15,
scooby_state_406cfe|7|4 0,3,0,0,0,0,1,0,0,0,0,0,11,0,0,15,
scooby_state_407060|18|-4 0,0,6,0,1,2,0,0,0,0,0,6,0,0,0,15,
scooby_state_4070c5|28|1 15,0,0,0,0,0,0,0,0,0,0,0,0,0,0,15,
scooby_state_407060|56|0 0,0,1,3,0,0,0,0,1,0,0,9,0,0,1,15,
scooby_state_406c70|14|4 0,0,0,0,0,0,0,0,0,0,0,15,0,0,0,15,
scooby_state_406c70|10|-1 1,0,0,1,0,0,1,0,0,0,11,0,0,0,1,15,
scooby_state_406c70|35|1 6,0,1,0,1,0,0,0,0,1,3,1,1,1,0,15,
scooby_state_406cfe|14|-4 8,3,0,0,0,2,0,0,0,0,0,0,0,2,0,15,
scooby_state_407060|13|-3 0,0,0,2,0,0,0,1,0,0,0,10,2,0,0,15,
scooby_state_407060|42|0 0,0,0,0,0,0,0,0,0,0,0,15,0,0,0,15,
scooby_state_406cfe|15|-3 0,2,6,0,0,0,0,0,0,0,0,1,0,2,4,15,
scooby_state_407060|18|-3 1,0,3,0,0,0,4,4,0,1,0,2,0,0,0,15,
scooby_state_406cfe|58|-5 0,0,2,2,2,0,0,2,0,0,2,1,2,2,0,15,
scooby_state_406be9|29|-6 0,2,0,3,0,0,0,1,3,0,2,0,3,0,1,15,
scooby_state_407060|23|0 0,0,0,0,1,0,0,0,0,0,0,12,2,0,0,15,
scooby_state_406be9|51|-1 11,1,0,0,0,0,0,0,0,0,0,1,2,0,0,15,
scooby_state_406be9|7|5 11,0,0,2,0,0,0,0,2,0,0,0,0,0,0,15,
scooby_state_406c70|47|-1 11,0,1,0,0,0,0,0,0,0,1,1,0,0,0,14,
scooby_state_406cfe|7|-45 0,2,4,4,4,0,0,0,0,0,0,0,0,0,0,14,
scooby_state_406c70|11|-2 0,2,0,0,0,0,0,0,0,2,2,2,2,2,2,14,
scooby_state_406be9|56|-1 8,2,0,2,0,1,0,0,0,1,0,0,0,0,0,14,
scooby_state_406be9|11|-1 13,0,0,1,0,0,0,0,0,0,0,0,0,0,0,14,
scooby_state_407060|19|-2 0,0,0,0,0,0,0,0,0,0,0,14,0,0,0,14,
scooby_state_4072fb|41|0 14,0,0,0,0,0,0,0,0,0,0,0,0,0,0,14,
scooby_state_406cfe|27|-15 2,0,0,0,3,0,0,0,3,2,0,2,2,0,0,14,
scooby_state_406cfe|16|-2 0,11,1,0,0,0,0,0,0,0,0,0,0,0,2,14,
scooby_state_406c70|2|-33 0,2,0,2,1,0,1,1,0,1,5,0,0,0,1,14,
scooby_state_407060|8|0 0,0,0,0,0,0,0,0,0,0,0,14,0,0,0,14,
scooby_state_407060|49|-13 0,0,1,0,0,0,1,1,0,0,0,11,0,0,0,14,
scooby_state_407060|3|-7 0,0,0,0,0,0,0,0,2,0,0,10,0,0,2,14,
scooby_state_407060|15|-5 5,0,0,0,0,0,0,0,0,0,0,4,1,0,4,14,
scooby_state_406c70|30|-2 1,11,1,0,0,0,1,0,0,0,0,0,0,0,0,14,
scooby_state_406cfe|21|17 0,0,0,2,0,4,0,0,0,8,0,0,0,0,0,14,
scooby_state_406be9|24|-1 13,0,0,0,1,0,0,0,0,0,0,0,0,0,0,14,
scooby_state_406c70|51|33 3,0,0,5,4,1,0,0,0,0,0,0,0,1,0,14,
scooby_state_406cfe|15|-4 14,0,0,0,0,0,0,0,0,0,0,0,0,0,0,14,
scooby_state_406c70|28|-31 0,2,0,0,0,0,0,0,0,0,11,1,0,0,0,14,
scooby_state_406be9|43|-1 14,0,0,0,0,0,0,0,0,0,0,0,0,0,0,14,
scooby_state_407060|9|-3 0,0,0,0,1,0,1,0,0,0,0,11,0,0,1,14,
scooby_state_4070c5|48|20 14,0,0,0,0,0,0,0,0,0,0,0,0,0,0,14,
scooby_state_407060|53|-2 0,0,0,0,0,0,0,0,0,0,0,14,0,0,0,14,
scooby_state_406be9|35|6 0,0,3,3,1,0,1,0,2,0,1,0,0,3,0,14,
scooby_state_406c70|41|1 6,1,0,0,2,1,0,0,1,1,0,1,0,1,0,14,
scooby_state_406cfe|17|-5 4,0,0,9,0,0,0,1,0,0,0,0,0,0,0,14,
scooby_state_406c70|44|-15 2,1,0,1,1,0,1,1,0,1,1,1,1,2,1,14,
scooby_state_406c70|3|1 7,1,0,0,0,1,1,0,0,0,2,0,1,0,1,14,
scooby_state_406cfe|24|8 0,0,0,0,0,0,0,0,0,0,13,0,0,0,0,13,
scooby_state_406c70|59|28 1,1,1,0,0,0,0,1,3,0,2,0,1,2,1,13,
scooby_state_406c70|46|4 0,0,0,0,0,0,1,0,1,0,0,10,0,0,1,13,
scooby_state_406be9|37|-1 11,0,0,0,1,0,1,0,0,0,0,0,0,0,0,13,
scooby_state_406cfe|2|-5 0,0,2,4,0,0,0,1,0,1,1,0,1,0,3,13,
scooby_state_406be9|50|-1 12,0,0,0,0,0,0,0,0,0,0,0,1,0,0,13,
scooby_state_406cfe|12|-10 0,0,0,0,7,0,0,0,0,0,6,0,0,0,0,13,
scooby_state_406cfe|58|-4 0,0,0,12,0,0,0,0,1,0,0,0,0,0,0,13,
scooby_state_406c70|60|28 0,0,0,0,2,2,2,1,0,2,0,1,1,0,2,13,
scooby_state_406cfe|57|13 0,2,0,0,2,0,0,0,0,0,0,9,0,0,0,13,
scooby_state_406be9|8|-1 7,1,0,0,0,2,1,0,0,0,1,1,0,0,0,13,
scooby_state_406c70|59|-1 0,1,1,1,0,0,0,0,1,0,1,1,3,2,2,13,
scooby_state_407060|9|0 0,1,0,0,0,0,0,0,0,0,0,12,0,0,0,13,
scooby_state_406be9|59|-3 0,1,2,1,0,3,0,2,1,0,0,1,0,2,0,13,
scooby_state_406be9|32|-4 8,0,0,0,0,0,0,0,0,0,0,4,0,0,1,13,
scooby_state_406c70|49|3 0,0,0,2,0,0,1,0,0,0,0,0,9,0,1,13,
scooby_state_406cfe|50|13 0,0,0,0,0,0,3,0,0,0,1,2,0,5,2,13,
scooby_state_406c70|49|31 10,0,0,0,0,0,0,0,0,1,1,0,0,1,0,13,
scooby_state_406cfe|29|12 13,0,0,0,0,0,0,0,0,0,0,0,0,0,0,13,
scooby_state_406be9|54|-1 8,0,0,1,0,0,0,1,0,2,0,0,0,1,0,13,
scooby_state_406cfe|35|6 0,1,2,1,1,0,0,4,2,0,0,1,0,1,0,13,
scooby_state_406be9|26|3 1,1,1,3,1,0,0,0,0,1,1,1,1,2,0,13,
scooby_state_406be9|42|1 0,1,0,0,0,2,2,2,0,0,0,0,0,4,2,13,
scooby_state_406be9|60|-2 1,7,0,0,0,1,0,0,0,0,1,0,0,3,0,13,
scooby_state_407060|11|0 0,0,0,0,1,0,0,0,0,0,0,11,0,0,0,12,
scooby_state_406cfe|10|4 0,0,0,0,0,0,0,0,4,0,0,0,0,0,8,12,
scooby_state_407060|54|-2 0,0,0,0,0,0,0,0,0,0,0,12,0,0,0,12,
scooby_state_406cfe|30|13 8,0,0,0,0,0,0,4,0,0,0,0,0,0,0,12,
scooby_state_406be9|22|10 0,3,0,0,0,2,0,0,0,0,7,0,0,0,0,12,
scooby_state_406be9|44|-1 10,0,0,0,0,0,0,1,0,0,1,0,0,0,0,12,
scooby_state_407060|29|-13 0,0,1,0,0,0,1,0,0,0,0,10,0,0,0,12,
scooby_state_407060|28|-14 1,1,1,0,1,0,1,0,0,0,0,4,0,2,1,12,
scooby_state_407060|25|-2 0,0,0,0,0,0,0,0,0,0,0,12,0,0,0,12,
scooby_state_406c70|1|1 4,1,1,0,1,0,0,0,0,0,0,1,0,4,0,12,
scooby_state_407060|10|0 0,0,0,0,0,0,0,0,0,0,0,12,0,0,0,12,
scooby_state_406cfe|22|6 0,0,2,3,0,0,2,3,0,0,0,2,0,0,0,12,
scooby_state_406cfe|7|-40 12,0,0,0,0,0,0,0,0,0,0,0,0,0,0,12,
scooby_state_406cfe|33|4 0,0,0,0,0,0,0,0,0,0,0,0,8,2,2,12,
scooby_state_406cfe|49|2 0,0,0,0,0,0,0,0,0,0,0,12,0,0,0,12,
scooby_state_406cfe|15|15 2,2,0,0,0,0,0,0,0,0,6,0,0,0,2,12,
scooby_state_407060|30|-11 1,0,0,0,0,0,0,0,0,0,0,11,0,0,0,12,
scooby_state_407060|1|0 0,0,0,0,0,0,0,0,0,0,0,12,0,0,0,12,
scooby_state_407060|5|-6 0,0,0,0,0,0,0,0,0,0,1,11,0,0,0,12,
scooby_state_407060|43|-2 0,0,0,0,0,0,0,0,0,0,3,9,0,0,0,12,
scooby_state_406cfe|15|-2 0,0,3,1,2,2,0,0,0,3,0,0,0,0,1,12,
scooby_state_406c70|43|28 0,0,0,1,0,0,0,0,0,0,5,0,6,0,0,12,
scooby_state_406be9|27|1 1,0,0,1,1,0,0,0,0,1,0,5,1,1,1,12,
scooby_state_406c70|36|1 6,0,0,0,0,3,0,0,0,0,2,0,0,1,0,12,
scooby_state_407060|48|-2 0,0,0,0,0,0,1,0,0,0,0,9,0,0,2,12,
scooby_state_407060|17|-3 0,0,0,3,0,0,0,0,0,0,0,9,0,0,0,12,
scooby_state_406c70|14|-31 0,0,0,0,1,0,0,0,0,0,10,0,0,1,0,12,
scooby_state_406be9|22|-24 0,0,0,2,0,0,3,3,0,0,0,3,0,1,0,12,
scooby_state_406cfe|17|-12 0,0,0,0,0,1,0,0,0,3,1,0,0,4,2,11,
scooby_state_407060|47|-4 0,0,0,0,1,0,0,0,0,0,0,10,0,0,0,11,
scooby_state_406c70|11|-33 3,0,2,0,0,0,2,1,0,0,1,2,0,0,0,11,
scooby_state_406c70|9|1 4,0,0,0,1,1,0,0,2,0,0,1,1,0,1,11,
scooby_state_406c70|7|2 2,1,1,3,1,0,0,1,0,0,0,1,0,1,0,11,
scooby_state_4070c5|16|-33 6,0,0,0,0,0,0,0,0,0,0,0,0,5,0,11,
scooby_state_407060|43|-6 2,0,0,0,0,0,0,0,0,0,0,9,0,0,0,11,
scooby_state_406be9|62|2 1,3,0,0,0,0,0,3,0,0,1,3,0,0,0,11,
scooby_state_406be9|34|1 0,0,0,0,0,0,0,0,0,0,0,11,0,0,0,11,
scooby_state_406be9|29|12 10,0,0,0,0,0,1,0,0,0,0,0,0,0,0,11,
scooby_state_406cfe|56|37 0,0,0,0,0,0,0,0,0,1,0,10,0,0,0,11,
scooby_state_406be9|58|25 3,2,0,0,2,0,3,0,1,0,0,0,0,0,0,11,
scooby_state_406c70|0|-31 0,0,0,0,0,0,0,1,1,0,8,1,0,0,0,11,
scooby_state_407060|17|-11 5,0,0,0,0,0,0,0,0,0,0,5,0,1,0,11,
scooby_state_406be9|23|-1 9,1,0,0,0,0,0,0,1,0,0,0,0,0,0,11,
scooby_state_406c70|15|-1 9,0,1,0,0,0,0,0,0,0,0,1,0,0,0,11,
scooby_state_4072fb|45|0 11,0,0,0,0,0,0,0,0,0,0,0,0,0,0,11,
scooby_state_406be9|39|-1 5,0,0,2,0,0,0,0,1,2,0,1,0,0,0,11,
scooby_state_407060|18|-7 0,0,0,4,0,3,0,0,0,0,0,4,0,0,0,11,
scooby_state_406c70|33|-4 0,0,0,0,0,1,1,2,0,0,0,2,2,2,1,11,
scooby_state_406c70|15|-33 11,0,0,0,0,0,0,0,0,0,0,0,0,0,0,11,
scooby_state_407060|15|-4 6,1,0,0,0,0,0,0,1,0,0,0,1,1,1,11,
scooby_state_406be9|33|-1 9,0,0,0,0,0,0,0,1,0,1,0,0,0,0,11,
scooby_state_4072fb|41|-1 11,0,0,0,0,0,0,0,0,0,0,0,0,0,0,11,
scooby_state_406c70|1|-1 0,0,1,1,1,1,1,0,0,1,1,2,0,1,1,11,
scooby_state_406c70|25|-1 0,2,0,0,1,0,1,0,1,1,0,0,3,0,2,11,
scooby_state_407060|27|-2 0,0,0,0,0,0,0,0,0,0,0,10,1,0,0,11,
scooby_state_406be9|45|-1 10,0,0,0,0,1,0,0,0,0,0,0,0,0,0,11,
scooby_state_406be9|52|-1 10,0,0,0,0,0,1,0,0,0,0,0,0,0,0,11,
scooby_state_406c70|8|1 5,0,1,0,1,1,1,0,1,0,0,0,1,0,0,11,
scooby_state_407060|10|-3 0,0,0,1,3,3,0,0,0,0,0,4,0,0,0,11,
scooby_state_406c70|62|1 7,0,0,0,0,1,0,1,0,0,0,2,0,0,0,11,
scooby_state_406c70|6|-33 1,0,2,0,1,0,0,0,1,2,0,1,1,0,2,11,
scooby_state_406c70|45|2 2,0,1,0,0,0,0,0,3,0,0,2,0,3,0,11,
scooby_state_406cfe|14|-3 0,0,0,1,0,0,0,2,0,2,2,0,1,1,2,11,
scooby_state_406be9|17|3 1,3,1,0,0,1,0,0,0,0,1,1,0,1,2,11,
scooby_state_406be9|2|-5 0,1,0,1,0,1,1,2,2,1,0,0,0,1,1,11,
scooby_state_406c70|9|7 1,0,2,2,1,0,0,1,0,0,0,0,2,0,2,11,
scooby_state_406be9|42|-1 7,0,1,0,0,1,0,0,2,0,0,0,0,0,0,11,
scooby_state_406cfe|7|-27 11,0,0,0,0,0,0,0,0,0,0,0,0,0,0,11,
scooby_state_406cfe|19|7 0,0,0,0,0,0,0,0,0,0,0,0,0,0,11,11,
scooby_state_407060|45|-2 0,0,0,0,0,0,0,0,0,0,0,10,1,0,0,11,
scooby_state_406c70|8|-33 0,2,2,2,1,1,0,0,1,0,0,2,0,0,0,11,
scooby_state_406c70|11|2 0,0,0,0,0,0,0,0,0,7,0,0,0,1,3,11,
scooby_state_406c70|14|-3 1,0,0,1,0,0,0,0,8,0,0,0,0,0,0,10,
scooby_state_406be9|29|-4 0,0,0,9,0,0,0,0,0,0,1,0,0,0,0,10,
scooby_state_4072fb|39|-9 0,10,0,0,0,0,0,0,0,0,0,0,0,0,0,10,
scooby_state_406be9|35|-21 0,2,0,0,0,1,0,0,0,0,2,3,0,0,2,10,
scooby_state_406cfe|59|-3 0,1,2,0,0,0,0,0,0,0,1,0,1,1,4,10,
scooby_state_407060|27|-15 0,0,0,1,0,0,0,1,0,0,0,8,0,0,0,10,
scooby_state_4072fb|31|1 0,10,0,0,0,0,0,0,0,0,0,0,0,0,0,10,
scooby_state_406cfe|46|-4 0,0,0,10,0,0,0,0,0,0,0,0,0,0,0,10,
scooby_state_406c70|57|-1 0,0,1,1,0,0,2,0,1,1,0,1,2,0,1,10,
scooby_state_407060|15|-6 1,0,0,0,0,0,0,0,0,0,0,0,0,5,4,10,
scooby_state_406d50|49|1 1,0,0,4,0,1,0,0,3,0,1,0,0,0,0,10,
scooby_state_406cfe|22|10 0,0,5,3,0,0,0,0,0,0,0,0,2,0,0,10,
scooby_state_406c70|40|-1 1,1,0,1,1,0,1,2,1,0,0,1,0,0,1,10,
scooby_state_407060|35|0 0,0,0,0,0,0,0,0,0,0,0,10,0,0,0,10,
scooby_state_406c70|57|1 8,0,1,0,0,0,1,0,0,0,0,0,0,0,0,10,
scooby_state_406be9|33|4 0,0,0,0,0,0,2,2,1,0,0,3,2,0,0,10,
scooby_state_406cfe|41|-7 2,2,0,0,2,2,0,0,0,0,2,0,0,0,0,10,
scooby_state_406c70|27|-1 1,1,1,1,0,0,0,0,0,0,1,1,1,2,1,10,
scooby_state_406be9|22|-1 6,0,0,0,1,0,0,0,1,0,0,2,0,0,0,10,
scooby_state_406c70|27|-36 0,0,1,0,1,1,2,0,0,1,0,0,1,1,2,10,
scooby_state_406cfe|27|-2 1,3,0,0,0,0,0,0,0,0,0,0,6,0,0,10,
scooby_state_407060|4|0 0,0,0,0,0,0,0,0,1,0,0,8,0,0,1,10,
scooby_state_406c70|47|34 0,0,4,1,0,1,0,0,0,0,0,4,0,0,0,10,
scooby_state_406cfe|47|-2 2,0,0,0,1,0,2,0,0,0,0,2,0,0,3,10,
scooby_state_406cfe|25|-4 10,0,0,0,0,0,0,0,0,0,0,0,0,0,0,10,
scooby_state_406cfe|60|3 0,0,0,0,0,0,0,0,0,0,0,4,2,0,4,10,
scooby_state_406cfe|34|2 2,0,0,2,0,0,0,0,0,0,0,6,0,0,0,10,
scooby_state_406c70|60|60 0,1,0,0,1,0,2,1,0,1,2,1,1,0,0,10,
scooby_state_406c70|9|-33 1,1,0,0,0,1,0,1,2,1,1,0,1,0,1,10,
scooby_state_406c70|4|1 6,0,0,0,0,2,1,0,0,0,0,0,0,1,0,10,
scooby_state_406cfe|50|4 0,2,0,0,0,2,0,0,2,0,0,0,4,0,0,10,
scooby_state_406be9|28|1 0,0,1,0,0,0,0,1,0,1,0,6,0,0,1,10,
scooby_state_407060|50|-2 0,0,0,0,0,0,0,0,0,0,0,10,0,0,0,10,
scooby_state_406be9|33|-25 0,3,0,2,0,0,0,0,0,2,0,2,0,1,0,10,
scooby_state_406c70|36|31 3,0,0,1,0,1,1,0,1,1,0,0,0,1,1,10,
scooby_state_406be9|55|-1 10,0,0,0,0,0,0,0,0,0,0,0,0,0,0,10,
scooby_state_406c70|23|-32 9,0,0,0,0,0,0,0,0,0,0,1,0,0,0,10,
scooby_state_406be9|3|-16 0,0,0,2,0,0,0,1,1,0,1,3,1,0,1,10,
scooby_state_406cfe|39|-2 0,0,0,0,0,0,0,0,2,0,0,2,0,4,2,10,
scooby_state_407060|4|-6 0,0,0,0,0,0,0,0,0,0,0,9,0,0,1,10,
scooby_state_406c70|12|-25 1,0,0,0,0,0,0,1,1,1,1,1,1,2,1,10,
scooby_state_406cfe|31|-5 0,0,0,2,2,0,0,0,0,2,0,0,2,0,2,10,
scooby_state_407060|20|-12 0,0,0,0,2,0,0,0,1,0,3,4,0,0,0,10,
scooby_state_406c70|60|22 1,1,1,1,1,1,0,2,0,0,1,0,0,1,0,10,
[...]
scooby_state_406be9|49|-8 0,0,0,0,0,0,0,0,0,0,1,0,0,0,0,1,
scooby_state_4070c5|63|0 0,0,0,0,0,0,0,1,0,0,0,0,0,0,0,1,
scooby_state_406d50|59|0 1,0,0,0,0,0,0,0,0,0,0,0,0,0,0,1,
scooby_state_406c70|13|-6 0,0,0,0,0,1,0,0,0,0,0,0,0,0,0,1,
scooby_state_406c70|63|24 1,0,0,0,0,0,0,0,0,0,0,0,0,0,0,1,
scooby_state_406c70|49|6 1,0,0,0,0,0,0,0,0,0,0,0,0,0,0,1,
scooby_state_406c70|62|3 0,0,0,0,0,0,0,0,1,0,0,0,0,0,0,1,
scooby_state_406be9|46|17 0,0,1,0,0,0,0,0,0,0,0,0,0,0,0,1,
scooby_state_438403|16|1 1,0,0,0,0,0,0,0,0,0,0,0,0,0,0,1,
scooby_state_406c70|27|19 0,0,0,0,0,0,0,0,0,0,0,0,0,0,1,1,
scooby_state_40740e|31|-2 1,0,0,0,0,0,0,0,0,0,0,0,0,0,0,1,
scooby_state_406c70|48|12 0,0,0,0,0,0,0,1,0,0,0,0,0,0,0,1,
scooby_state_406cfe|10|8 1,0,0,0,0,0,0,0,0,0,0,0,0,0,0,1,
scooby_state_406c70|59|18 0,0,0,0,0,0,0,0,0,0,0,1,0,0,0,1,
scooby_state_406c70|50|38 0,0,0,0,0,0,0,0,1,0,0,0,0,0,0,1,
scooby_state_406c70|28|-8 0,0,0,0,0,0,1,0,0,0,0,0,0,0,0,1,
scooby_state_406c70|62|62 0,0,0,0,0,0,0,0,0,1,0,0,0,0,0,1,
scooby_state_439b01|44|1 1,0,0,0,0,0,0,0,0,0,0,0,0,0,0,1,
scooby_state_439f04|60|1 0,0,0,0,0,0,0,0,0,0,0,1,0,0,0,1,
scooby_state_406c70|15|-27 0,0,0,0,0,1,0,0,0,0,0,0,0,0,0,1,
scooby_state_406be9|37|6 1,0,0,0,0,0,0,0,0,0,0,0,0,0,0,1,
scooby_state_4070c5|8|0 0,0,0,0,0,0,0,0,0,0,0,0,0,0,1,1,
scooby_state_439d86|54|1 0,0,0,0,0,0,0,0,0,0,0,1,0,0,0,1,
scooby_state_407060|37|-12 0,0,0,0,0,0,0,0,0,0,0,1,0,0,0,1,
scooby_state_406cfe|9|-25 0,1,0,0,0,0,0,0,0,0,0,0,0,0,0,1,
scooby_state_406be9|61|2 0,0,0,0,0,0,0,0,0,0,0,1,0,0,0,1,
scooby_state_4070c5|62|0 0,0,0,0,0,0,1,0,0,0,0,0,0,0,0,1,
scooby_state_406d50|38|0 0,0,0,0,0,0,0,0,0,0,0,0,0,0,1,1,
scooby_state_406c43|49|1 1,0,0,0,0,0,0,0,0,0,0,0,0,0,0,1,
scooby_state_406d50|5|-1 0,0,0,0,0,0,0,0,0,0,0,0,1,0,0,1,
scooby_state_406c70|14|-17 0,0,1,0,0,0,0,0,0,0,0,0,0,0,0,1,
scooby_state_406c70|26|-13 0,0,0,0,1,0,0,0,0,0,0,0,0,0,0,1,
scooby_state_406c70|43|-18 1,0,0,0,0,0,0,0,0,0,0,0,0,0,0,1,
scooby_state_406c70|13|-28 0,0,0,0,0,0,0,0,0,0,0,0,1,0,0,1,
scooby_state_406be9|54|1 0,0,0,1,0,0,0,0,0,0,0,0,0,0,0,1,
scooby_state_406be9|62|14 0,0,0,0,0,0,0,0,0,0,0,1,0,0,0,1,
scooby_state_4070c5|25|1 1,0,0,0,0,0,0,0,0,0,0,0,0,0,0,1,
scooby_state_406be9|48|38 0,0,0,0,0,0,0,0,1,0,0,0,0,0,0,1,
scooby_state_406c70|12|-29 0,0,0,0,0,0,0,0,0,1,0,0,0,0,0,1,
scooby_state_439c14|37|0 1,0,0,0,0,0,0,0,0,0,0,0,0,0,0,1,
scooby_state_406be9|35|2 0,0,0,0,0,0,0,0,0,0,0,1,0,0,0,1,
scooby_state_406c70|8|-51 0,0,1,0,0,0,0,0,0,0,0,0,0,0,0,1,
scooby_state_406c70|58|36 0,0,0,0,0,0,0,0,0,0,0,0,0,0,1,1,
scooby_state_406c70|10|-39 0,0,0,0,0,0,1,0,0,0,0,0,0,0,0,1,
scooby_state_406d87|9|0 1,0,0,0,0,0,0,0,0,0,0,0,0,0,0,1,
scooby_state_406cfe|6|-41 0,0,0,1,0,0,0,0,0,0,0,0,0,0,0,1,
scooby_state_406cfe|6|-8 0,0,0,0,0,0,0,0,0,0,0,0,0,0,1,1,
scooby_state_406cfe|11|8 0,0,0,0,1,0,0,0,0,0,0,0,0,0,0,1,
scooby_state_406be9|16|-16 0,0,0,0,1,0,0,0,0,0,0,0,0,0,0,1,
scooby_state_406c70|41|-3 0,0,0,0,0,0,0,0,0,0,1,0,0,0,0,1,
scooby_state_406c70|0|-61 0,0,0,0,1,0,0,0,0,0,0,0,0,0,0,1,
scooby_state_407060|21|-6 0,0,0,0,0,0,0,0,0,0,0,1,0,0,0,1,
scooby_state_406c70|36|2 0,0,0,0,0,0,0,1,0,0,0,0,0,0,0,1,
scooby_state_406c70|40|29 0,0,0,0,0,0,0,0,0,0,1,0,0,0,0,1,
scooby_state_406c70|63|29 0,0,0,0,0,0,0,0,1,0,0,0,0,0,0,1,
scooby_state_406be9|41|-6 0,0,0,0,0,1,0,0,0,0,0,0,0,0,0,1,
scooby_state_406cfe|2|-48 0,0,0,0,0,0,1,0,0,0,0,0,0,0,0,1,
scooby_state_406be9|5|-54 0,0,0,0,0,0,1,0,0,0,0,0,0,0,0,1,
scooby_state_406c70|31|24 0,0,0,0,0,0,0,0,0,0,0,1,0,0,0,1,
scooby_state_406cfe|36|-4 0,0,0,0,0,0,0,0,0,1,0,0,0,0,0,1,
scooby_state_406c70|2|-2 0,0,0,0,0,0,0,0,0,0,0,1,0,0,0,1,
scooby_state_406cfe|41|25 0,0,0,0,0,1,0,0,0,0,0,0,0,0,0,1,
scooby_state_406c70|6|-39 0,0,0,0,0,0,0,0,0,0,0,0,0,1,0,1,
scooby_state_406c70|40|36 0,0,0,0,0,0,0,0,0,0,0,0,0,1,0,1,
scooby_state_406cfe|8|2 0,0,0,0,0,0,0,0,0,0,0,1,0,0,0,1,
scooby_state_406c70|42|36 0,0,0,0,0,0,0,0,0,0,0,0,0,0,1,1,
scooby_state_4070c5|33|1 1,0,0,0,0,0,0,0,0,0,0,0,0,0,0,1,
scooby_state_4070c5|23|1 1,0,0,0,0,0,0,0,0,0,0,0,0,0,0,1,
scooby_state_406cfe|2|-28 1,0,0,0,0,0,0,0,0,0,0,0,0,0,0,1,
scooby_state_4070c5|36|0 1,0,0,0,0,0,0,0,0,0,0,0,0,0,0,1,
scooby_state_407060|2|-11 0,0,0,0,0,0,0,0,0,0,0,1,0,0,0,1,
scooby_state_43a903|36|1 1,0,0,0,0,0,0,0,0,0,0,0,0,0,0,1,
scooby_state_406c70|5|-37 1,0,0,0,0,0,0,0,0,0,0,0,0,0,0,1,
scooby_state_40740e|30|-1 1,0,0,0,0,0,0,0,0,0,0,0,0,0,0,1,
scooby_state_406c70|8|-54 0,0,0,1,0,0,0,0,0,0,0,0,0,0,0,1,
scooby_state_406be9|46|3 0,0,1,0,0,0,0,0,0,0,0,0,0,0,0,1,
scooby_state_406bb2|46|0 1,0,0,0,0,0,0,0,0,0,0,0,0,0,0,1,
scooby_state_4070c5|60|0 0,0,0,0,1,0,0,0,0,0,0,0,0,0,0,1,
scooby_state_4072fb|30|-2 0,1,0,0,0,0,0,0,0,0,0,0,0,0,0,1,
scooby_state_406c70|30|20 0,0,0,0,0,0,0,0,0,0,1,0,0,0,0,1,
scooby_state_406be9|5|4 0,0,0,0,0,0,0,0,0,0,0,0,1,0,0,1,
scooby_state_406ca4|51|0 1,0,0,0,0,0,0,0,0,0,0,0,0,0,0,1,
scooby_state_407060|13|-19 0,0,0,0,0,0,0,0,0,0,0,1,0,0,0,1,
scooby_state_406d50|20|0 0,0,0,0,0,1,0,0,0,0,0,0,0,0,0,1,
scooby_state_406be9|42|27 0,0,0,0,0,0,0,0,0,0,0,1,0,0,0,1,
scooby_state_406c70|16|11 0,0,0,0,0,0,0,1,0,0,0,0,0,0,0,1,
scooby_state_406cfe|7|-53 0,0,0,0,0,0,0,0,1,0,0,0,0,0,0,1,
scooby_state_406c70|30|4 0,0,0,0,0,0,0,0,0,0,0,0,1,0,0,1,
scooby_state_406d50|48|-1 0,0,0,0,1,0,0,0,0,0,0,0,0,0,0,1,
scooby_state_406c70|56|-1 0,1,0,0,0,0,0,0,0,0,0,0,0,0,0,1,
scooby_state_406be9|7|-54 0,0,0,0,0,0,0,1,0,0,0,0,0,0,0,1,
scooby_state_406c70|29|25 0,0,1,0,0,0,0,0,0,0,0,0,0,0,0,1,
scooby_state_4070c5|7|0 0,0,0,0,0,0,0,0,0,0,0,0,0,1,0,1,
scooby_state_406cfe|56|21 0,0,0,0,0,0,0,0,0,0,0,1,0,0,0,1,
scooby_state_406cfe|22|-26 1,0,0,0,0,0,0,0,0,0,0,0,0,0,0,1,
scooby_state_406be9|5|-2 0,0,0,0,0,0,0,0,1,0,0,0,0,0,0,1,
scooby_state_406be9|10|-30 1,0,0,0,0,0,0,0,0,0,0,0,0,0,0,1,
scooby_state_406ca4|33|1 1,0,0,0,0,0,0,0,0,0,0,0,0,0,0,1,
scooby_state_406cfe|6|5 0,0,0,0,0,1,0,0,0,0,0,0,0,0,0,1,
scooby_state_406c70|41|13 0,0,0,0,0,0,0,0,0,0,0,1,0,0,0,1,
scooby_state_406c70|31|-5 0,0,0,0,0,0,0,0,1,0,0,0,0,0,0,1,
scooby_state_406d02|52|1 1,0,0,0,0,0,0,0,0,0,0,0,0,0,0,1,
scooby_state_406c70|25|4 0,0,0,0,0,0,0,0,0,0,0,0,1,0,0,1,
scooby_state_406c70|33|-28 0,0,0,0,0,0,0,0,0,0,0,0,1,0,0,1,
scooby_state_40169d|49|0 0,1,0,0,0,0,0,0,0,0,0,0,0,0,0,1,
scooby_state_406c70|32|25 1,0,0,0,0,0,0,0,0,0,0,0,0,0,0,1,
scooby_state_4070c5|13|0 0,0,0,0,0,0,0,0,0,1,0,0,0,0,0,1,
scooby_state_406c70|27|18 0,0,0,0,0,0,0,0,0,0,0,1,0,0,0,1,
scooby_state_407060|15|-8 0,0,0,0,0,0,0,0,0,0,0,1,0,0,0,1,
scooby_state_406cb2|12|0 0,0,0,0,0,0,0,0,0,0,0,0,0,1,0,1,
scooby_state_407680|26|10 1,0,0,0,0,0,0,0,0,0,0,0,0,0,0,1,
scooby_state_406c70|9|-3 0,0,0,0,0,0,0,0,0,0,1,0,0,0,0,1,
scooby_state_406be9|4|-17 0,0,0,0,0,0,0,0,0,0,0,1,0,0,0,1,
scooby_state_4070c5|21|0 0,0,0,0,1,0,0,0,0,0,0,0,0,0,0,1,
scooby_state_43ba09|40|1 0,0,0,0,0,0,0,0,0,0,0,0,0,0,1,1,
scooby_state_406c70|55|31 1,0,0,0,0,0,0,0,0,0,0,0,0,0,0,1,
scooby_state_406be9|31|-9 0,0,0,0,0,0,0,0,0,1,0,0,0,0,0,1,
scooby_state_4070c5|22|1 1,0,0,0,0,0,0,0,0,0,0,0,0,0,0,1,
scooby_state_407060|40|-6 0,0,0,0,0,0,0,0,0,0,0,1,0,0,0,1,
scooby_state_406cfe|60|53 1,0,0,0,0,0,0,0,0,0,0,0,0,0,0,1,
scooby_state_406cfe|7|-5 0,0,0,1,0,0,0,0,0,0,0,0,0,0,0,1,
scooby_state_407060|2|-3 0,0,0,0,0,0,0,0,0,0,0,1,0,0,0,1,
scooby_state_406c70|5|-4 0,0,0,0,0,0,0,0,0,0,0,0,0,0,1,1,
scooby_state_406be9|20|-5 0,0,0,0,0,0,0,0,0,0,0,0,0,0,1,1,
scooby_state_406c70|29|26 0,0,0,0,0,0,0,0,0,0,0,1,0,0,0,1,
scooby_state_406cfe|59|51 1,0,0,0,0,0,0,0,0,0,0,0,0,0,0,1,
scooby_state_406cfe|50|3 0,0,0,0,0,0,0,0,0,0,0,1,0,0,0,1,
scooby_state_406c70|59|46 1,0,0,0,0,0,0,0,0,0,0,0,0,0,0,1,
scooby_state_407060|46|-4 0,0,0,0,0,0,1,0,0,0,0,0,0,0,0,1,
scooby_state_406c70|26|4 0,0,0,0,0,0,1,0,0,0,0,0,0,0,0,1,
scooby_state_4070c5|35|0 0,0,0,0,0,0,0,0,1,0,0,0,0,0,0,1,
scooby_state_406be9|27|-13 0,0,0,0,0,0,0,0,0,1,0,0,0,0,0,1,
scooby_state_406cfe|43|36 1,0,0,0,0,0,0,0,0,0,0,0,0,0,0,1,
scooby_state_406c70|32|-5 1,0,0,0,0,0,0,0,0,0,0,0,0,0,0,1,
scooby_state_407060|8|-3 0,0,0,0,0,0,0,0,0,0,0,1,0,0,0,1,
scooby_state_40705b|0|-1 0,1,0,0,0,0,0,0,0,0,0,0,0,0,0,1,
scooby_state_407060|11|-16 0,0,0,0,0,0,0,0,0,0,0,1,0,0,0,1,
scooby_state_406c70|3|-13 0,0,0,1,0,0,0,0,0,0,0,0,0,0,0,1,
scooby_state_406c70|59|13 0,0,0,0,0,0,0,0,0,0,0,1,0,0,0,1,
scooby_state_4070c5|31|0 1,0,0,0,0,0,0,0,0,0,0,0,0,0,0,1,
scooby_state_406c70|1|-29 0,0,0,0,0,0,0,0,1,0,0,0,0,0,0,1,
scooby_state_407500|20|1 1,0,0,0,0,0,0,0,0,0,0,0,0,0,0,1,
scooby_state_406be9|39|-21 0,0,0,0,0,0,0,0,0,0,0,1,0,0,0,1,
scooby_state_406be9|46|-10 1,0,0,0,0,0,0,0,0,0,0,0,0,0,0,1,
scooby_state_406c70|39|-9 0,0,0,0,0,0,0,0,0,0,0,1,0,0,0,1,
scooby_state_406c70|8|-5 0,0,0,0,0,1,0,0,0,0,0,0,0,0,0,1,
scooby_state_406d50|61|32 0,0,0,0,0,0,0,0,0,1,0,0,0,0,0,1,
scooby_state_406d50|4|1 0,0,0,0,0,0,0,0,0,0,0,0,1,0,0,1,
scooby_state_40152e|14|1 1,0,0,0,0,0,0,0,0,0,0,0,0,0,0,1,
scooby_state_406be9|36|-5 0,0,0,0,0,0,0,0,0,0,0,0,0,1,0,1,
scooby_state_406be9|47|5 0,0,0,0,0,0,0,0,0,0,0,0,0,1,0,1,
scooby_state_406be9|22|-26 0,0,0,0,0,1,0,0,0,0,0,0,0,0,0,1,
scooby_state_407060|6|-2 0,0,0,0,0,0,0,0,0,0,0,1,0,0,0,1,
scooby_state_40740e|40|-1 1,0,0,0,0,0,0,0,0,0,0,0,0,0,0,1,
scooby_state_406c70|30|-19 0,0,0,0,0,0,0,0,0,0,0,0,0,0,1,1,
scooby_state_4070c5|6|0 0,0,0,0,0,0,0,0,0,0,0,0,1,0,0,1,
scooby_state_406c70|6|-57 0,0,1,0,0,0,0,0,0,0,0,0,0,0,0,1,
scooby_state_406be9|45|3 1,0,0,0,0,0,0,0,0,0,0,0,0,0,0,1,
scooby_state_406c70|0|-4 0,0,0,0,0,0,0,1,0,0,0,0,0,0,0,1,
scooby_state_406cfe|48|39 1,0,0,0,0,0,0,0,0,0,0,0,0,0,0,1,
scooby_state_406c70|4|4 0,0,0,0,0,0,0,0,0,0,0,0,0,1,0,1,
scooby_state_438f15|7|0 1,0,0,0,0,0,0,0,0,0,0,0,0,0,0,1,
scooby_state_406c70|46|15 0,0,0,0,0,0,1,0,0,0,0,0,0,0,0,1,
scooby_state_406c70|47|21 0,0,0,0,0,0,0,0,0,0,1,0,0,0,0,1,
scooby_state_4070c5|29|1 1,0,0,0,0,0,0,0,0,0,0,0,0,0,0,1,
scooby_state_406d50|51|1 0,1,0,0,0,0,0,0,0,0,0,0,0,0,0,1,
scooby_state_407060|22|-7 0,0,0,0,0,0,0,0,0,0,0,1,0,0,0,1,
scooby_state_406c70|59|47 0,0,0,0,0,0,0,0,0,0,1,0,0,0,0,1,
scooby_state_406be9|47|2 0,0,0,0,0,0,0,0,0,0,0,1,0,0,0,1,
scooby_state_406c70|11|-5 0,0,0,0,0,0,0,0,1,0,0,0,0,0,0,1,
scooby_state_406be9|50|6 0,0,0,0,0,0,0,0,0,0,0,1,0,0,0,1,
scooby_state_406c70|44|6 0,0,0,1,0,0,0,0,0,0,0,0,0,0,0,1,
scooby_state_406d50|36|31 0,1,0,0,0,0,0,0,0,0,0,0,0,0,0,1,
scooby_state_406c70|4|-37 0,0,1,0,0,0,0,0,0,0,0,0,0,0,0,1,
scooby_state_406be9|61|4 0,0,0,0,0,0,0,1,0,0,0,0,0,0,0,1,
scooby_state_406be9|4|-40 0,0,0,0,0,0,0,0,0,0,0,1,0,0,0,1,
scooby_state_406cfe|53|33 0,0,0,1,0,0,0,0,0,0,0,0,0,0,0,1,
scooby_state_406c70|36|25 0,0,0,0,0,0,0,0,0,0,0,0,0,0,1,1,
scooby_state_406c70|36|7 0,0,0,0,0,0,0,0,0,0,0,0,0,1,0,1,
scooby_state_4070c5|51|1 1,0,0,0,0,0,0,0,0,0,0,0,0,0,0,1,
scooby_state_406be9|22|-28 0,0,0,0,0,0,0,0,0,0,0,0,0,1,0,1,
scooby_state_406be9|54|10 0,0,0,0,0,0,0,0,0,0,0,1,0,0,0,1,
scooby_state_438541|21|-39 1,0,0,0,0,0,0,0,0,0,0,0,0,0,0,1,
scooby_state_406be9|39|1 0,0,0,0,0,0,0,0,0,0,1,0,0,0,0,1,
scooby_state_406cfe|44|-10 0,0,0,1,0,0,0,0,0,0,0,0,0,0,0,1,
scooby_state_4072fb|39|-6 0,1,0,0,0,0,0,0,0,0,0,0,0,0,0,1,
scooby_state_407060|19|-15 0,0,0,0,0,0,0,0,0,0,0,1,0,0,0,1,
scooby_state_406be9|59|54 1,0,0,0,0,0,0,0,0,0,0,0,0,0,0,1,
scooby_state_406d50|32|31 0,0,0,0,0,0,0,0,0,0,0,0,0,0,1,1,
scooby_state_406c70|57|11 0,0,0,0,0,0,0,0,0,0,0,0,0,0,1,1,
scooby_state_401ec7|59|1 1,0,0,0,0,0,0,0,0,0,0,0,0,0,0,1,
scooby_state_407060|56|-3 0,0,0,0,0,0,0,0,0,0,0,1,0,0,0,1,
scooby_state_406be9|17|-19 0,0,0,0,0,0,0,0,0,0,0,0,0,0,1,1,
scooby_state_406c70|47|24 0,0,0,0,0,0,0,0,0,0,0,0,0,0,1,1,
scooby_state_407060|26|-22 0,0,0,0,0,0,0,0,0,0,0,0,1,0,0,1,
scooby_state_406be9|30|15 0,0,0,0,0,1,0,0,0,0,0,0,0,0,0,1,
scooby_state_406c70|54|42 0,0,0,0,0,0,1,0,0,0,0,0,0,0,0,1,
scooby_state_406c70|31|26 0,0,0,0,0,0,0,0,0,0,0,1,0,0,0,1,
scooby_state_406be9|28|-12 0,0,0,0,0,0,0,0,0,0,1,0,0,0,0,1,
scooby_state_406be9|1|-6 0,0,0,0,0,1,0,0,0,0,0,0,0,0,0,1,
scooby_state_406be9|43|-13 0,0,1,0,0,0,0,0,0,0,0,0,0,0,0,1,
scooby_state_406cfe|30|-5 0,0,1,0,0,0,0,0,0,0,0,0,0,0,0,1,
scooby_state_406c02|48|-6 1,0,0,0,0,0,0,0,0,0,0,0,0,0,0,1,
scooby_state_407060|55|-6 0,0,0,0,0,0,0,0,0,0,1,0,0,0,0,1,
scooby_state_406c70|52|-1 0,0,0,0,0,0,0,0,1,0,0,0,0,0,0,1,
scooby_state_439f56|57|0 1,0,0,0,0,0,0,0,0,0,0,0,0,0,0,1,
scooby_state_406c70|26|-28 1,0,0,0,0,0,0,0,0,0,0,0,0,0,0,1,
scooby_state_406c70|26|12 0,0,0,0,0,0,1,0,0,0,0,0,0,0,0,1,
scooby_state_406c70|39|-24 0,0,0,0,0,0,0,0,0,0,1,0,0,0,0,1,
scooby_state_406c70|36|-6 0,0,0,0,0,0,0,0,0,0,0,0,0,1,0,1,
scooby_state_406cfe|6|-17 1,0,0,0,0,0,0,0,0,0,0,0,0,0,0,1,
scooby_state_406cfe|16|11 0,0,0,0,0,1,0,0,0,0,0,0,0,0,0,1,
scooby_state_406c70|58|45 0,0,0,0,0,0,0,0,1,0,0,0,0,0,0,1,
scooby_state_406cfe|12|-23 0,0,0,0,0,0,0,0,0,0,0,1,0,0,0,1,
scooby_state_406c70|28|-13 0,1,0,0,0,0,0,0,0,0,0,0,0,0,0,1,
scooby_state_406c70|39|36 0,0,0,0,0,0,0,0,0,0,0,1,0,0,0,1,
scooby_state_406cb2|49|-1 0,0,0,0,0,1,0,0,0,0,0,0,0,0,0,1,
scooby_state_406cfe|51|-5 0,0,0,0,0,0,0,0,0,0,0,0,0,1,0,1,

scooby_action_0_deg_dist 0,1673,0,0,0,0,0,0,0,0,0,0,0,0,0,0,
scooby_action_-6_deg_dist 0,1121,1,0,0,0,0,0,0,0,0,0,0,0,0,0,
scooby_action_4_deg_dist 0,1177,23,0,6,0,8,0,0,0,0,0,0,0,0,0,
scooby_action_1_deg_dist 0,221993,6585,0,918,0,28,0,0,0,0,0,0,0,0,0,
scooby_action_30_deg_dist 0,1063,2,0,5,0,6,0,0,0,0,0,0,0,0,0,
scooby_action_5_deg_dist 0,1263,3,0,5,0,48,0,0,0,0,0,0,0,0,0,
scooby_action_10_deg_dist 0,1111,2,0,5,0,14,0,0,0,0,0,0,0,0,0,
scooby_action_3_deg_dist 0,1388,15,0,5,0,19,0,0,0,0,0,0,0,0,0,
scooby_action_32_deg_dist 0,5178,52,0,5,0,21,0,0,0,0,0,0,0,0,0,
scooby_action_11_deg_dist 0,980,2,0,5,0,19,0,0,0,0,0,0,0,0,0,
scooby_action_12_deg_dist 0,1001,6,0,10,0,14,0,0,0,0,0,0,0,0,0,
scooby_action_22_deg_dist 0,989,2,0,6,0,28,0,0,0,0,0,0,0,0,0,
scooby_action_23_deg_dist 0,1048,2,0,5,0,8,0,0,0,0,0,0,0,0,0,
scooby_action_-1_deg_dist 0,6660,2454,0,4270,0,20394,0,0,0,0,0,0,0,0,0,
scooby_action_-3_deg_dist 0,1460,23,0,21,0,90,0,0,0,0,0,0,0,0,0,

scooby_track_called 283240
scooby_track_same_address 50211
scooby_track_evict 232773

scooby_reward_demand_called 283240
scooby_reward_demand_pt_not_found 229652
scooby_reward_demand_pt_found 53588
scooby_reward_demand_pt_found_total 53588
scooby_reward_demand_has_reward 7017
scooby_reward_train_called 177950
scooby_reward_assign_reward_called 232781
scooby_reward_no_pref 1671
scooby_reward_incorrect 176279
scooby_reward_correct_untimely 36970
scooby_reward_correct_timely 9601
scooby_reward_out_of_bounds 8260
scooby_reward_tracker_hit 0

scooby_reward_none_low_bw 1671
scooby_reward_none_high_bw 0
scooby_reward_incorrect_low_bw 176279
scooby_reward_incorrect_high_bw 0
scooby_reward_correct_untimely_low_bw 36970
scooby_reward_correct_untimely_high_bw 0
scooby_reward_correct_timely_low_bw 9601
scooby_reward_correct_timely_high_bw 0
scooby_reward_out_of_bounds_low_bw 8260
scooby_reward_out_of_bounds_high_bw 0
scooby_reward_tracker_hit_low_bw 0
scooby_reward_tracker_hit_high_bw 0

scooby_reward_1 0,161912,10522,5724,4483,0,
scooby_reward_3 0,1063,5,3,43,0,
scooby_reward_4 0,956,4,3,76,0,
scooby_reward_5 0,913,36,1,126,0,
scooby_reward_10 0,887,5,2,146,0,
scooby_reward_11 0,834,0,0,146,0,
scooby_reward_12 0,839,0,0,168,0,
scooby_reward_22 0,662,0,0,313,0,
scooby_reward_23 0,711,1,0,260,0,
scooby_reward_30 0,563,7,1,417,0,
scooby_reward_32 0,990,1006,203,1321,0,
scooby_reward_-1 0,3971,25231,3617,574,0,
scooby_reward_-3 0,1108,118,37,56,0,
scooby_reward_-6 0,870,35,10,131,0,
scooby_reward_0 1671,0,0,0,0,0,

scooby_train_called 232772
scooby_train_compute_reward 177950

scooby_register_fill_called 114495
scooby_register_fill_set 90342
scooby_register_fill_set_total 90342

scooby_register_prefetch_hit_called 217985
scooby_register_prefetch_hit_set 132314
scooby_register_prefetch_hit_set_total 132314

scooby_pref_issue_scooby 334311

learning_engine_featurewise.action.called 283240
learning_engine_featurewise.action.explore 526
learning_engine_featurewise.action.exploit 282714
learning_engine_featurewise.action.fallback 210590
learning_engine_featurewise.action.dyn_fallback_saved_bw 0
learning_engine_featurewise.action.dyn_fallback_saved_bw_acc 278
learning_engine_featurewise.action.index_1_explored 31
learning_engine_featurewise.action.index_1_exploited 229493
learning_engine_featurewise.action.index_3_explored 36
learning_engine_featurewise.action.index_3_exploited 1391
learning_engine_featurewise.action.index_4_explored 29
learning_engine_featurewise.action.index_4_exploited 1185
learning_engine_featurewise.action.index_5_explored 36
learning_engine_featurewise.action.index_5_exploited 1283
learning_engine_featurewise.action.index_10_explored 45
learning_engine_featurewise.action.index_10_exploited 1087
learning_engine_featurewise.action.index_11_explored 33
learning_engine_featurewise.action.index_11_exploited 973
learning_engine_featurewise.action.index_12_explored 34
learning_engine_featurewise.action.index_12_exploited 997
learning_engine_featurewise.action.index_22_explored 42
learning_engine_featurewise.action.index_22_exploited 983
learning_engine_featurewise.action.index_23_explored 31
learning_engine_featurewise.action.index_23_exploited 1032
learning_engine_featurewise.action.index_30_explored 38
learning_engine_featurewise.action.index_30_exploited 1038
learning_engine_featurewise.action.index_32_explored 29
learning_engine_featurewise.action.index_32_exploited 5227
learning_engine_featurewise.action.index_-1_explored 39
learning_engine_featurewise.action.index_-1_exploited 33739
learning_engine_featurewise.action.index_-3_explored 33
learning_engine_featurewise.action.index_-3_exploited 1561
learning_engine_featurewise.action.index_-6_explored 30
learning_engine_featurewise.action.index_-6_exploited 1092
learning_engine_featurewise.action.index_0_explored 40
learning_engine_featurewise.action.index_0_exploited 1633
learning_engine_featurewise.learn.called 232772
learning_engine_featurewise.learn.su_skip_PC 0
learning_engine_featurewise.learn.su_skip_PC_Delta 0

learning_engine_featurewise.q_value_histogram.bucket_0 70
learning_engine_featurewise.q_value_histogram.bucket_1 104
learning_engine_featurewise.q_value_histogram.bucket_2 218882
learning_engine_featurewise.q_value_histogram.bucket_3 12934
learning_engine_featurewise.q_value_histogram.bucket_4 13460
learning_engine_featurewise.q_value_histogram.bucket_5 32463
learning_engine_featurewise.q_value_histogram.bucket_6 4801
learning_engine_featurewise.q_value_histogram.bucket_7 0

learning_engine_featurewise.consensus.total 282714
learning_engine_featurewise.consensus.feature_align_PC 266086
learning_engine_featurewise.consensus.feature_align_PC_ratio 0.94
learning_engine_featurewise.consensus.feature_align_PC_Delta 279370
learning_engine_featurewise.consensus.feature_align_PC_Delta_ratio 0.99
learning_engine_featurewise.consensus.feature_align_all 262916
learning_engine_featurewise.consensus.feature_align_all_ratio 0.93

learning_engine_featurewise.feature_PC_min_weight 1000000.00000000
learning_engine_featurewise.feature_PC_max_weight 0.00000000
learning_engine_featurewise.feature_PC_Delta_min_weight 1000000.00000000
learning_engine_featurewise.feature_PC_Delta_max_weight 0.00000000
unique_pcs 141
unique_pages 4984
unique_trigger_pcs 53
total_bitmaps_seen 0
unique_bitmaps_seen 0

scooby_bw_epochs 409964
scooby_bw_level_0 408895
scooby_bw_level_1 1055
scooby_bw_level_2 6
scooby_bw_level_3 8

scooby_ipc_epochs 0
scooby_ipc_level_0 0
scooby_ipc_level_1 0
scooby_ipc_level_2 0
scooby_ipc_level_3 0

scooby_cache_acc_epochs 101103
scooby_cache_acc_level_0 60582
scooby_cache_acc_level_1 10766
scooby_cache_acc_level_2 10006
scooby_cache_acc_level_3 6630
scooby_cache_acc_level_4 2315
scooby_cache_acc_level_5 5298
scooby_cache_acc_level_6 2698
scooby_cache_acc_level_7 1164
scooby_cache_acc_level_8 769
scooby_cache_acc_level_9 875

Channel_0_RQ_row_buffer_hit 15906
Channel_0_RQ_row_buffer_miss 84704
Channel_0_WQ_row_buffer_hit 1537
Channel_0_WQ_row_buffer_miss 41225
Channel_0_WQ_full 0
Channel_0_dbus_congested 29390

avg_congested_cycle 7

DRAM_bw_pochs 409964
DRAM_bw_level_0 408895
DRAM_bw_level_1 1055
DRAM_bw_level_2 6
DRAM_bw_level_3 8
