*************************************************
   ChampSim Multicore Out-of-Order Simulator
   Last compiled: Apr  3 2025 20:54:34
*************************************************
parsing config file: /home/zir/Pythia/config/pythia.ini

trace_0 /home/zir/ChampSim/ML-DPC/ChampSimTraces/spec06/410.bwaves-s1.trace.gz
adding L2C_PREFETCHER: Scooby
Initialize SHIP state
warmup_instructions 10000000
simulation_instructions 50000000
champsim_seed 164
measure_ipc 0
measure_ipc_epoch 1000
measure_dram_bw 1
measure_dram_bw_epoch 256
measure_cache_acc 1
measure_cache_acc_epoch 1024
l1d_perfect 0
l2c_perfect 0
llc_perfect 0
l1d_semi_perfect 0
l2c_semi_perfect 0
llc_semi_perfect 0
semi_perfect_cache_page_buffer_size 64

num_cpus 1
cpu_freq 4000
dram_io_freq 2400
page_size 4096
block_size 64
max_read_per_cycle 8
max_fill_per_cycle 1
dram_channels 1
log2_dram_channels 0
dram_ranks 1
dram_banks 8
dram_rows 65536
dram_columns 128
dram_row_size 8
dram_size 4096
dram_pages 1048576

fetch_width 6
decode_width 6
exec_width 4
lq_width 2
sq_width 2
retire_width 4
scheduler_size 128
branch_mispredict_penalty 20
rob_size 256
lq_size 72
sq_size 56
num_instr_destinations_sparc 4
num_instr_destinations 2
num_instr_sources 4

itlb_set 16
itlb_way 8
itlb_rq_size 16
itlb_wq_size 16
itlb_pq_size 0
itlb_mshr_size 8
itlb_latency 1

dtlb_set 16
dtlb_way 4
dtlb_rq_size 16
dtlb_wq_size 16
dtlb_pq_size 0
dtlb_mshr_size 8
dtlb_latency 1

stlb_set 128
stlb_way 12
stlb_rq_size 32
stlb_wq_size 32
stlb_pq_size 0
stlb_mshr_size 16
stlb_latency 8

l1i_size 32
l1i_set 64
l1i_way 8
l1i_rq_size 64
l1i_wq_size 64
l1i_pq_size 8
l1i_mshr_size 8
l1i_latency 1

l1d_size 32
l1d_set 64
l1d_way 8
l1d_rq_size 64
l1d_wq_size 64
l1d_pq_size 8
l1d_mshr_size 16
l1d_latency 4

l2c_size 256
l2c_set 512
l2c_way 8
l2c_rq_size 32
l2c_wq_size 32
l2c_pq_size 32
l2c_mshr_size 32
l2c_latency 10

llc_size 2048
llc_set 2048
llc_way 16
llc_rq_size 32
llc_wq_size 32
llc_pq_size 32
llc_mshr_size 64
llc_latency 20

dram_channel_width 8
dram_wq_size 64
dram_rq_size 64
tRP 15
tRCD 15
tCAS 12.5
dram_dbus_turn_around_time 30
dram_write_high_wm 56
dram_write_low_wm 48
min_dram_writes_per_switch 16
dram_mtps 2400
dram_dbus_return_time 13

scooby_alpha 0.0065088
scooby_gamma 0.556301
scooby_epsilon 0.00182284
scooby_state_num_bits 10
scooby_max_states 1024
scooby_seed 200
scooby_policy EGreedy
scooby_learning_type SARSA
scooby_actions 1,3,4,5,10,11,12,22,23,30,32,-1,-3,-6,0,
scooby_max_actions 15
scooby_pt_size 256
scooby_st_size 64
scooby_max_pcs 5
scooby_max_offsets 5
scooby_max_deltas 5
scooby_reward_none -4
scooby_reward_incorrect -8
scooby_reward_correct_untimely 12
scooby_reward_correct_timely 20
scooby_brain_zero_init 0
scooby_enable_reward_all 0
scooby_enable_track_multiple 0
scooby_enable_reward_out_of_bounds 1
scooby_reward_out_of_bounds -12
scooby_state_type 1
scooby_state_hash_type 11
scooby_access_debug 0
scooby_print_access_debug 0
scooby_print_access_debug_pc deadbeef
scooby_print_access_debug_pc_count 0
scooby_print_trace 0
scooby_enable_state_action_stats 1
scooby_enable_reward_tracker_hit 0
scooby_reward_tracker_hit -2
scooby_enable_featurewise_engine 1
scooby_pref_degree 1
scooby_enable_dyn_degree 1
scooby_max_to_avg_q_thresholds 0.5,1,2,
scooby_dyn_degrees 1,2,4,4,
scooby_multi_deg_select_type 2
scooby_last_pref_offset_conf_thresholds 1,3,8,
scooby_dyn_degrees_type2 1,2,4,6,
scooby_action_tracker_size 2
scooby_high_bw_thresh 4
scooby_enable_hbw_reward 1
scooby_reward_hbw_correct_timely 20
scooby_reward_hbw_correct_untimely 12
scooby_reward_hbw_incorrect -14
scooby_reward_hbw_none -2
scooby_reward_hbw_out_of_bounds -12
scooby_reward_hbw_tracker_hit -2
scooby_last_pref_offset_conf_thresholds_hbw 1,3,8,
scooby_dyn_degrees_type2_hbw 1,2,4,6,

le_enable_trace 0
le_trace_interval 0
le_trace_file_name 
le_trace_state 0
le_enable_score_plot 0
le_plot_file_name 
le_plot_actions 
le_enable_action_trace 0
le_action_trace_interval 0
le_action_trace_name 
le_enable_action_plot 0

le_featurewise_active_features PC, PC_Delta
le_featurewise_num_tilings 3,3,
le_featurewise_num_tiles 128,128,
le_featurewise_hash_types 2,2,
le_featurewise_enable_tiling_offset 1,1,
le_featurewise_max_q_thresh 0.5
le_featurewise_enable_action_fallback 1
le_featurewise_feature_weights 1,1,
le_featurewise_enable_dynamic_weight 0
le_featurewise_weight_gradient 0.001
le_featurewise_disable_adjust_weight_all_features_align 1
le_featurewise_selective_update 0
le_featurewise_pooling_type 2
le_featurewise_enable_dyn_action_fallback 1
le_featurewise_bw_acc_check_level 1
le_featurewise_acc_thresh 2
le_featurewise_enable_trace 0
le_featurewise_trace_feature_type 0
le_featurewise_trace_feature 
le_featurewise_trace_interval 0
le_featurewise_trace_record_count 0
le_featurewise_trace_file_name 
le_featurewise_enable_score_plot 0
le_featurewise_plot_actions 
le_featurewise_plot_file_name 


Heartbeat CPU  0 instructions:    1000002 cycles:     626402 heartbeat IPC: 1.59642 cumulative IPC: 1.59642 (Simulation time: 0 hr 0 min 3 sec) 
Heartbeat CPU  0 instructions:    2000002 cycles:    1250849 heartbeat IPC: 1.60142 cumulative IPC: 1.59892 (Simulation time: 0 hr 0 min 5 sec) 
Heartbeat CPU  0 instructions:    3000000 cycles:    1875230 heartbeat IPC: 1.60158 cumulative IPC: 1.59980 (Simulation time: 0 hr 0 min 7 sec) 
Heartbeat CPU  0 instructions:    4000000 cycles:    2499653 heartbeat IPC: 1.60148 cumulative IPC: 1.60022 (Simulation time: 0 hr 0 min 10 sec) 
Heartbeat CPU  0 instructions:    5000000 cycles:    3124067 heartbeat IPC: 1.60150 cumulative IPC: 1.60048 (Simulation time: 0 hr 0 min 12 sec) 
Heartbeat CPU  0 instructions:    6000001 cycles:    3748634 heartbeat IPC: 1.60111 cumulative IPC: 1.60058 (Simulation time: 0 hr 0 min 14 sec) 
Heartbeat CPU  0 instructions:    7000000 cycles:    4373124 heartbeat IPC: 1.60131 cumulative IPC: 1.60069 (Simulation time: 0 hr 0 min 17 sec) 
Heartbeat CPU  0 instructions:    8000000 cycles:    4997502 heartbeat IPC: 1.60159 cumulative IPC: 1.60080 (Simulation time: 0 hr 0 min 19 sec) 
Heartbeat CPU  0 instructions:    9000000 cycles:    5621934 heartbeat IPC: 1.60146 cumulative IPC: 1.60087 (Simulation time: 0 hr 0 min 21 sec) 
Heartbeat CPU  0 instructions:   10000002 cycles:    6246488 heartbeat IPC: 1.60115 cumulative IPC: 1.60090 (Simulation time: 0 hr 0 min 24 sec) 

Warmup complete CPU  0 instructions:   10000002 cycles:    6246488 (Simulation time: 0 hr 0 min 24 sec) 

Heartbeat CPU  0 instructions:   11000000 cycles:    7108146 heartbeat IPC: 1.16055 cumulative IPC: 1.16055 (Simulation time: 0 hr 0 min 26 sec) 
Heartbeat CPU  0 instructions:   12000000 cycles:    7964756 heartbeat IPC: 1.16739 cumulative IPC: 1.16396 (Simulation time: 0 hr 0 min 29 sec) 
Heartbeat CPU  0 instructions:   13000001 cycles:    8828326 heartbeat IPC: 1.15798 cumulative IPC: 1.16196 (Simulation time: 0 hr 0 min 31 sec) 
Heartbeat CPU  0 instructions:   14000000 cycles:    9690967 heartbeat IPC: 1.15923 cumulative IPC: 1.16128 (Simulation time: 0 hr 0 min 34 sec) 
Heartbeat CPU  0 instructions:   15000000 cycles:   10551907 heartbeat IPC: 1.16152 cumulative IPC: 1.16133 (Simulation time: 0 hr 0 min 36 sec) 
Heartbeat CPU  0 instructions:   16000000 cycles:   11415228 heartbeat IPC: 1.15832 cumulative IPC: 1.16082 (Simulation time: 0 hr 0 min 39 sec) 
Heartbeat CPU  0 instructions:   17000001 cycles:   12275157 heartbeat IPC: 1.16289 cumulative IPC: 1.16112 (Simulation time: 0 hr 0 min 42 sec) 
Heartbeat CPU  0 instructions:   18000000 cycles:   13137790 heartbeat IPC: 1.15924 cumulative IPC: 1.16088 (Simulation time: 0 hr 0 min 44 sec) 
Heartbeat CPU  0 instructions:   19000002 cycles:   13999155 heartbeat IPC: 1.16095 cumulative IPC: 1.16089 (Simulation time: 0 hr 0 min 47 sec) 
Heartbeat CPU  0 instructions:   20000000 cycles:   14860988 heartbeat IPC: 1.16032 cumulative IPC: 1.16083 (Simulation time: 0 hr 0 min 49 sec) 
Heartbeat CPU  0 instructions:   21000001 cycles:   15724069 heartbeat IPC: 1.15864 cumulative IPC: 1.16063 (Simulation time: 0 hr 0 min 52 sec) 
Heartbeat CPU  0 instructions:   22000003 cycles:   16584310 heartbeat IPC: 1.16247 cumulative IPC: 1.16079 (Simulation time: 0 hr 0 min 54 sec) 
Heartbeat CPU  0 instructions:   23000000 cycles:   17444756 heartbeat IPC: 1.16218 cumulative IPC: 1.16089 (Simulation time: 0 hr 0 min 57 sec) 
Heartbeat CPU  0 instructions:   24000000 cycles:   18311634 heartbeat IPC: 1.15356 cumulative IPC: 1.16037 (Simulation time: 0 hr 1 min 0 sec) 
Heartbeat CPU  0 instructions:   25000000 cycles:   19175139 heartbeat IPC: 1.15807 cumulative IPC: 1.16021 (Simulation time: 0 hr 1 min 2 sec) 
Heartbeat CPU  0 instructions:   26000001 cycles:   20037606 heartbeat IPC: 1.15947 cumulative IPC: 1.16017 (Simulation time: 0 hr 1 min 5 sec) 
Heartbeat CPU  0 instructions:   27000003 cycles:   20901911 heartbeat IPC: 1.15700 cumulative IPC: 1.15998 (Simulation time: 0 hr 1 min 7 sec) 
Heartbeat CPU  0 instructions:   28000000 cycles:   21762823 heartbeat IPC: 1.16156 cumulative IPC: 1.16007 (Simulation time: 0 hr 1 min 10 sec) 
Heartbeat CPU  0 instructions:   29000000 cycles:   22629532 heartbeat IPC: 1.15379 cumulative IPC: 1.15974 (Simulation time: 0 hr 1 min 12 sec) 
Heartbeat CPU  0 instructions:   30000002 cycles:   23488895 heartbeat IPC: 1.16365 cumulative IPC: 1.15993 (Simulation time: 0 hr 1 min 15 sec) 
Heartbeat CPU  0 instructions:   31000001 cycles:   24354953 heartbeat IPC: 1.15466 cumulative IPC: 1.15968 (Simulation time: 0 hr 1 min 18 sec) 
Heartbeat CPU  0 instructions:   32000000 cycles:   25219726 heartbeat IPC: 1.15637 cumulative IPC: 1.15953 (Simulation time: 0 hr 1 min 20 sec) 
Heartbeat CPU  0 instructions:   33000000 cycles:   26078519 heartbeat IPC: 1.16442 cumulative IPC: 1.15974 (Simulation time: 0 hr 1 min 23 sec) 
Heartbeat CPU  0 instructions:   34000002 cycles:   26944097 heartbeat IPC: 1.15530 cumulative IPC: 1.15955 (Simulation time: 0 hr 1 min 25 sec) 
Heartbeat CPU  0 instructions:   35000002 cycles:   27807313 heartbeat IPC: 1.15846 cumulative IPC: 1.15951 (Simulation time: 0 hr 1 min 28 sec) 
Heartbeat CPU  0 instructions:   36000000 cycles:   28674493 heartbeat IPC: 1.15316 cumulative IPC: 1.15926 (Simulation time: 0 hr 1 min 30 sec) 
Heartbeat CPU  0 instructions:   37000001 cycles:   29538841 heartbeat IPC: 1.15694 cumulative IPC: 1.15918 (Simulation time: 0 hr 1 min 33 sec) 
Heartbeat CPU  0 instructions:   38000003 cycles:   30395985 heartbeat IPC: 1.16667 cumulative IPC: 1.15944 (Simulation time: 0 hr 1 min 36 sec) 
Heartbeat CPU  0 instructions:   39000000 cycles:   31261036 heartbeat IPC: 1.15600 cumulative IPC: 1.15933 (Simulation time: 0 hr 1 min 38 sec) 
Heartbeat CPU  0 instructions:   40000000 cycles:   32118081 heartbeat IPC: 1.16680 cumulative IPC: 1.15957 (Simulation time: 0 hr 1 min 41 sec) 
Heartbeat CPU  0 instructions:   41000000 cycles:   32979548 heartbeat IPC: 1.16081 cumulative IPC: 1.15961 (Simulation time: 0 hr 1 min 43 sec) 
Heartbeat CPU  0 instructions:   42000001 cycles:   33851705 heartbeat IPC: 1.14658 cumulative IPC: 1.15920 (Simulation time: 0 hr 1 min 46 sec) 
Heartbeat CPU  0 instructions:   43000002 cycles:   34718698 heartbeat IPC: 1.15341 cumulative IPC: 1.15902 (Simulation time: 0 hr 1 min 48 sec) 
Heartbeat CPU  0 instructions:   44000000 cycles:   35582520 heartbeat IPC: 1.15764 cumulative IPC: 1.15898 (Simulation time: 0 hr 1 min 51 sec) 
Heartbeat CPU  0 instructions:   45000001 cycles:   36445779 heartbeat IPC: 1.15840 cumulative IPC: 1.15897 (Simulation time: 0 hr 1 min 54 sec) 
Heartbeat CPU  0 instructions:   46000000 cycles:   37305440 heartbeat IPC: 1.16325 cumulative IPC: 1.15909 (Simulation time: 0 hr 1 min 56 sec) 
Heartbeat CPU  0 instructions:   47000001 cycles:   38176411 heartbeat IPC: 1.14814 cumulative IPC: 1.15879 (Simulation time: 0 hr 1 min 59 sec) 
Heartbeat CPU  0 instructions:   48000000 cycles:   39038633 heartbeat IPC: 1.15979 cumulative IPC: 1.15881 (Simulation time: 0 hr 2 min 1 sec) 
Heartbeat CPU  0 instructions:   49000003 cycles:   39910520 heartbeat IPC: 1.14694 cumulative IPC: 1.15851 (Simulation time: 0 hr 2 min 4 sec) 
Heartbeat CPU  0 instructions:   50000000 cycles:   40782425 heartbeat IPC: 1.14691 cumulative IPC: 1.15821 (Simulation time: 0 hr 2 min 6 sec) 
Heartbeat CPU  0 instructions:   51000000 cycles:   41644288 heartbeat IPC: 1.16028 cumulative IPC: 1.15826 (Simulation time: 0 hr 2 min 9 sec) 
Heartbeat CPU  0 instructions:   52000000 cycles:   42507911 heartbeat IPC: 1.15791 cumulative IPC: 1.15826 (Simulation time: 0 hr 2 min 12 sec) 
Heartbeat CPU  0 instructions:   53000003 cycles:   43379273 heartbeat IPC: 1.14763 cumulative IPC: 1.15801 (Simulation time: 0 hr 2 min 14 sec) 
Heartbeat CPU  0 instructions:   54000001 cycles:   44240225 heartbeat IPC: 1.16150 cumulative IPC: 1.15809 (Simulation time: 0 hr 2 min 17 sec) 
Heartbeat CPU  0 instructions:   55000002 cycles:   45110146 heartbeat IPC: 1.14953 cumulative IPC: 1.15789 (Simulation time: 0 hr 2 min 19 sec) 
Heartbeat CPU  0 instructions:   56000000 cycles:   45973793 heartbeat IPC: 1.15788 cumulative IPC: 1.15789 (Simulation time: 0 hr 2 min 22 sec) 
Heartbeat CPU  0 instructions:   57000001 cycles:   46839889 heartbeat IPC: 1.15461 cumulative IPC: 1.15782 (Simulation time: 0 hr 2 min 25 sec) 
Heartbeat CPU  0 instructions:   58000000 cycles:   47701671 heartbeat IPC: 1.16039 cumulative IPC: 1.15788 (Simulation time: 0 hr 2 min 27 sec) 
Heartbeat CPU  0 instructions:   59000003 cycles:   48568367 heartbeat IPC: 1.15381 cumulative IPC: 1.15779 (Simulation time: 0 hr 2 min 30 sec) 
Heartbeat CPU  0 instructions:   60000000 cycles:   49436573 heartbeat IPC: 1.15180 cumulative IPC: 1.15767 (Simulation time: 0 hr 2 min 32 sec) 
Finished CPU 0 instructions: 50000000 cycles: 43190128 cumulative IPC: 1.15767 (Simulation time: 0 hr 2 min 32 sec) 

ChampSim completed all CPUs

[ROI Statistics]
Core_0_instructions 50000000
Core_0_cycles 43190128
Core_0_IPC 1.15767

Core_0_branch_prediction_accuracy 99.94993
Core_0_branch_MPKI 0.01498
Core_0_average_ROB_occupancy_at_mispredict 248.48465

Core_0_L1D_total_access 19917431
Core_0_L1D_total_hit 18706247
Core_0_L1D_total_miss 1211184
Core_0_L1D_loads 18536209
Core_0_L1D_load_hit 17355822
Core_0_L1D_load_miss 1180387
Core_0_L1D_RFOs 1381222
Core_0_L1D_RFO_hit 1350425
Core_0_L1D_RFO_miss 30797
Core_0_L1D_prefetches 0
Core_0_L1D_prefetch_hit 0
Core_0_L1D_prefetch_miss 0
Core_0_L1D_writebacks 0
Core_0_L1D_writeback_hit 0
Core_0_L1D_writeback_miss 0
Core_0_L1D_prefetch_requested 0
Core_0_L1D_prefetch_dropped 0
Core_0_L1D_prefetch_issued 0
Core_0_L1D_prefetch_filled 0
Core_0_L1D_prefetch_useful 0
Core_0_L1D_prefetch_useless 0
Core_0_L1D_prefetch_late 0
Core_0_L1D_average_miss_latency 40.91682

Core_0_L1D_rq_access 26135642
Core_0_L1D_rq_forward 0
Core_0_L1D_rq_merged 7399439
Core_0_L1D_rq_to_cache 18736203
Core_0_L1D_rq_full 0

Core_0_L1D_wq_access 1408345
Core_0_L1D_wq_forward 0
Core_0_L1D_wq_merged 0
Core_0_L1D_wq_to_cache 1408345
Core_0_L1D_wq_full 0

Core_0_L1D_pq_access 0
Core_0_L1D_pq_forward 0
Core_0_L1D_pq_merged 0
Core_0_L1D_pq_to_cache 0
Core_0_L1D_pq_full 0

Core_0_L1D_acc_epochs 46607
Core_0_L1D_acc_level_0 46607
Core_0_L1D_acc_level_1 0
Core_0_L1D_acc_level_2 0
Core_0_L1D_acc_level_3 0
Core_0_L1D_acc_level_4 0
Core_0_L1D_acc_level_5 0
Core_0_L1D_acc_level_6 0
Core_0_L1D_acc_level_7 0
Core_0_L1D_acc_level_8 0
Core_0_L1D_acc_level_9 0

Core_0_L1I_total_access 13624500
Core_0_L1I_total_hit 13624500
Core_0_L1I_total_miss 0
Core_0_L1I_loads 13624500
Core_0_L1I_load_hit 13624500
Core_0_L1I_load_miss 0
Core_0_L1I_RFOs 0
Core_0_L1I_RFO_hit 0
Core_0_L1I_RFO_miss 0
Core_0_L1I_prefetches 0
Core_0_L1I_prefetch_hit 0
Core_0_L1I_prefetch_miss 0
Core_0_L1I_writebacks 0
Core_0_L1I_writeback_hit 0
Core_0_L1I_writeback_miss 0
Core_0_L1I_prefetch_requested 0
Core_0_L1I_prefetch_dropped 0
Core_0_L1I_prefetch_issued 0
Core_0_L1I_prefetch_filled 0
Core_0_L1I_prefetch_useful 0
Core_0_L1I_prefetch_useless 0
Core_0_L1I_prefetch_late 0
Core_0_L1I_average_miss_latency -nan

Core_0_L1I_rq_access 50000007
Core_0_L1I_rq_forward 0
Core_0_L1I_rq_merged 36375507
Core_0_L1I_rq_to_cache 13624500
Core_0_L1I_rq_full 0

Core_0_L1I_wq_access 0
Core_0_L1I_wq_forward 0
Core_0_L1I_wq_merged 0
Core_0_L1I_wq_to_cache 0
Core_0_L1I_wq_full 0

Core_0_L1I_pq_access 0
Core_0_L1I_pq_forward 0
Core_0_L1I_pq_merged 0
Core_0_L1I_pq_to_cache 0
Core_0_L1I_pq_full 0

Core_0_L1I_acc_epochs 46607
Core_0_L1I_acc_level_0 46607
Core_0_L1I_acc_level_1 0
Core_0_L1I_acc_level_2 0
Core_0_L1I_acc_level_3 0
Core_0_L1I_acc_level_4 0
Core_0_L1I_acc_level_5 0
Core_0_L1I_acc_level_6 0
Core_0_L1I_acc_level_7 0
Core_0_L1I_acc_level_8 0
Core_0_L1I_acc_level_9 0

Core_0_L2C_total_access 4636348
Core_0_L2C_total_hit 3497741
Core_0_L2C_total_miss 1138607
Core_0_L2C_loads 1180288
Core_0_L2C_load_hit 1090736
Core_0_L2C_load_miss 89552
Core_0_L2C_RFOs 30711
Core_0_L2C_RFO_hit 1522
Core_0_L2C_RFO_miss 29189
Core_0_L2C_prefetches 3392212
Core_0_L2C_prefetch_hit 2372531
Core_0_L2C_prefetch_miss 1019681
Core_0_L2C_writebacks 33137
Core_0_L2C_writeback_hit 32952
Core_0_L2C_writeback_miss 185
Core_0_L2C_prefetch_requested 7245092
Core_0_L2C_prefetch_dropped 2195758
Core_0_L2C_prefetch_issued 5049334
Core_0_L2C_prefetch_filled 1233362
Core_0_L2C_prefetch_useful 1233285
Core_0_L2C_prefetch_useless 55
Core_0_L2C_prefetch_late 35150
Core_0_L2C_average_miss_latency 290.34428

Core_0_L2C_rq_access 1211187
Core_0_L2C_rq_forward 0
Core_0_L2C_rq_merged 0
Core_0_L2C_rq_to_cache 1210999
Core_0_L2C_rq_full 0

Core_0_L2C_wq_access 33137
Core_0_L2C_wq_forward 188
Core_0_L2C_wq_merged 0
Core_0_L2C_wq_to_cache 33137
Core_0_L2C_wq_full 0

Core_0_L2C_pq_access 5049334
Core_0_L2C_pq_forward 0
Core_0_L2C_pq_merged 526033
Core_0_L2C_pq_to_cache 4523301
Core_0_L2C_pq_full 0

Core_0_L2C_acc_epochs 46607
Core_0_L2C_acc_level_0 1
Core_0_L2C_acc_level_1 0
Core_0_L2C_acc_level_2 3
Core_0_L2C_acc_level_3 8
Core_0_L2C_acc_level_4 30
Core_0_L2C_acc_level_5 71
Core_0_L2C_acc_level_6 274
Core_0_L2C_acc_level_7 1709
Core_0_L2C_acc_level_8 6651
Core_0_L2C_acc_level_9 37860

Core_0_LLC_total_access 1167835
Core_0_LLC_total_hit 676
Core_0_LLC_total_miss 1167159
Core_0_LLC_loads 54482
Core_0_LLC_load_hit 12
Core_0_LLC_load_miss 54470
Core_0_LLC_RFOs 29189
Core_0_LLC_RFO_hit 0
Core_0_LLC_RFO_miss 29189
Core_0_LLC_prefetches 1054751
Core_0_LLC_prefetch_hit 362
Core_0_LLC_prefetch_miss 1054389
Core_0_LLC_writebacks 29413
Core_0_LLC_writeback_hit 302
Core_0_LLC_writeback_miss 29111
Core_0_LLC_prefetch_requested 0
Core_0_LLC_prefetch_dropped 0
Core_0_LLC_prefetch_issued 0
Core_0_LLC_prefetch_filled 1266102
Core_0_LLC_prefetch_useful 45
Core_0_LLC_prefetch_useless 1261171
Core_0_LLC_prefetch_late 0
Core_0_LLC_average_miss_latency 256.59894

Core_0_LLC_rq_access 83671
Core_0_LLC_rq_forward 0
Core_0_LLC_rq_merged 0
Core_0_LLC_rq_to_cache 83671
Core_0_LLC_rq_full 0

Core_0_LLC_wq_access 29413
Core_0_LLC_wq_forward 0
Core_0_LLC_wq_merged 0
Core_0_LLC_wq_to_cache 29413
Core_0_LLC_wq_full 0

Core_0_LLC_pq_access 1268521
Core_0_LLC_pq_forward 0
Core_0_LLC_pq_merged 0
Core_0_LLC_pq_to_cache 1268521
Core_0_LLC_pq_full 0

Core_0_LLC_acc_epochs 48278
Core_0_LLC_acc_level_0 48277
Core_0_LLC_acc_level_1 1
Core_0_LLC_acc_level_2 0
Core_0_LLC_acc_level_3 0
Core_0_LLC_acc_level_4 0
Core_0_LLC_acc_level_5 0
Core_0_LLC_acc_level_6 0
Core_0_LLC_acc_level_7 0
Core_0_LLC_acc_level_8 0
Core_0_LLC_acc_level_9 0

Core_0_major_page_fault 0
Core_0_minor_page_fault 20347

scooby_st_lookup 1420556
scooby_st_hit 1399740
scooby_st_evict 20752
scooby_st_insert 20816
scooby_st_streaming 0

scooby_predict_called 1420556
scooby_predict_out_of_bounds 22304
scooby_predict_action_1 1396215
scooby_predict_issue_action_1 1379620
scooby_predict_hit_action_1 16595
scooby_predict_out_of_bounds_action_1 21867
scooby_predict_action_3 184
scooby_predict_issue_action_3 183
scooby_predict_hit_action_3 1
scooby_predict_out_of_bounds_action_3 9
scooby_predict_action_4 168
scooby_predict_issue_action_4 168
scooby_predict_hit_action_4 0
scooby_predict_out_of_bounds_action_4 15
scooby_predict_action_5 161
scooby_predict_issue_action_5 161
scooby_predict_hit_action_5 0
scooby_predict_out_of_bounds_action_5 8
scooby_predict_action_10 163
scooby_predict_issue_action_10 163
scooby_predict_hit_action_10 0
scooby_predict_out_of_bounds_action_10 38
scooby_predict_action_11 146
scooby_predict_issue_action_11 146
scooby_predict_hit_action_11 0
scooby_predict_out_of_bounds_action_11 16
scooby_predict_action_12 159
scooby_predict_issue_action_12 159
scooby_predict_hit_action_12 0
scooby_predict_out_of_bounds_action_12 26
scooby_predict_action_22 115
scooby_predict_issue_action_22 115
scooby_predict_hit_action_22 0
scooby_predict_out_of_bounds_action_22 67
scooby_predict_action_23 119
scooby_predict_issue_action_23 119
scooby_predict_hit_action_23 0
scooby_predict_out_of_bounds_action_23 58
scooby_predict_action_30 104
scooby_predict_issue_action_30 104
scooby_predict_hit_action_30 0
scooby_predict_out_of_bounds_action_30 79
scooby_predict_action_32 67
scooby_predict_issue_action_32 67
scooby_predict_hit_action_32 0
scooby_predict_out_of_bounds_action_32 86
scooby_predict_action_-1 170
scooby_predict_issue_action_-1 6
scooby_predict_hit_action_-1 164
scooby_predict_out_of_bounds_action_-1 2
scooby_predict_action_-3 160
scooby_predict_issue_action_-3 6
scooby_predict_hit_action_-3 154
scooby_predict_out_of_bounds_action_-3 10
scooby_predict_action_-6 141
scooby_predict_issue_action_-6 13
scooby_predict_hit_action_-6 128
scooby_predict_out_of_bounds_action_-6 23
scooby_predict_action_0 180
scooby_predict_issue_action_0 0
scooby_predict_hit_action_0 0
scooby_predict_out_of_bounds_action_0 0
scooby_predict_multi_deg_called 1313294
scooby_predict_predicted 7245092
scooby_predict_multi_deg 5864062
scooby_predict_multi_deg_2 1291455
scooby_predict_multi_deg_3 1227978
scooby_predict_multi_deg_4 1206157
scooby_predict_multi_deg_5 1080151
scooby_predict_multi_deg_6 1058321
scooby_predict_multi_deg_7 0
scooby_predict_multi_deg_8 0
scooby_predict_multi_deg_9 0
scooby_predict_multi_deg_10 0
scooby_predict_multi_deg_11 0
scooby_predict_multi_deg_12 0
scooby_predict_multi_deg_13 0
scooby_predict_multi_deg_14 0
scooby_predict_multi_deg_15 0
scooby_predict_multi_deg_16 0

scooby_selected_deg_1 67736
scooby_selected_deg_2 41637
scooby_selected_deg_3 0
scooby_selected_deg_4 104176
scooby_selected_deg_5 0
scooby_selected_deg_6 1167481
scooby_selected_deg_7 0
scooby_selected_deg_8 0
scooby_selected_deg_9 0
scooby_selected_deg_10 0
scooby_selected_deg_11 0
scooby_selected_deg_12 0
scooby_selected_deg_13 0
scooby_selected_deg_14 0
scooby_selected_deg_15 0
scooby_selected_deg_16 0

scooby_state_4019e0|41|1 2829,0,0,0,0,0,0,1,0,0,0,0,0,1,1,2832,
scooby_state_401a54|41|1 2782,0,0,0,0,0,0,0,1,0,0,0,0,1,0,2784,
scooby_state_401a3d|41|1 2768,0,0,0,0,0,1,0,1,0,0,1,0,0,0,2771,
scooby_state_4019f7|41|1 2760,0,0,0,0,0,0,0,0,2,1,0,1,0,0,2764,
scooby_state_401a07|41|1 2762,0,0,0,1,0,0,0,0,0,0,0,0,1,0,2764,
scooby_state_401a26|41|1 2761,0,0,0,1,1,0,0,1,0,0,0,0,0,0,2764,
scooby_state_401a16|41|1 2751,1,0,3,0,0,0,0,0,1,0,1,2,1,0,2760,
scooby_state_4019e0|46|1 2749,0,0,0,0,0,0,0,1,0,0,0,0,1,0,2751,
scooby_state_4019f7|46|1 2735,0,0,1,2,1,0,0,0,0,0,1,1,0,0,2741,
scooby_state_401a54|46|1 2737,0,0,1,0,2,0,1,0,0,0,0,0,0,0,2741,
scooby_state_401a3d|46|1 2731,1,0,0,0,0,1,2,1,0,1,0,0,1,2,2740,
scooby_state_401a16|46|1 2738,0,0,0,0,0,0,0,0,1,0,0,1,0,0,2740,
scooby_state_401a16|50|1 2734,0,0,0,0,2,0,0,0,1,1,0,0,1,0,2739,
scooby_state_401a3d|50|1 2736,0,0,0,0,2,0,0,0,0,0,0,0,0,1,2739,
scooby_state_401a07|50|1 2737,1,0,0,0,1,0,0,0,0,0,0,0,0,0,2739,
scooby_state_4019f7|50|1 2734,0,0,0,1,0,0,0,0,1,1,1,0,1,0,2739,
scooby_state_401a26|46|1 2730,1,0,1,0,1,1,0,0,0,0,2,2,1,0,2739,
scooby_state_4019e0|50|1 2733,0,0,0,2,0,2,0,0,0,0,1,0,0,1,2739,
scooby_state_401a07|46|1 2736,0,0,0,0,0,0,1,0,0,0,0,0,1,0,2738,
scooby_state_401a54|50|1 2731,0,1,0,1,1,0,0,0,1,0,1,0,2,0,2738,
scooby_state_4019e0|1|1 2732,0,1,0,0,0,0,0,2,0,0,0,0,2,0,2737,
scooby_state_401a26|62|1 2735,0,0,1,0,0,0,1,0,0,0,0,0,0,0,2737,
scooby_state_401a3d|57|1 2729,1,0,0,1,1,1,1,0,0,1,0,1,0,1,2737,
scooby_state_401a54|59|1 2726,2,3,0,0,0,0,0,0,0,0,1,3,2,0,2737,
scooby_state_401a54|58|1 2734,1,0,0,0,2,0,0,0,0,0,0,0,0,0,2737,
scooby_state_401a07|57|1 2735,0,0,1,0,0,0,1,0,0,0,0,0,0,0,2737,
scooby_state_401a3d|62|1 2734,0,1,1,0,0,0,0,0,0,0,0,0,1,0,2737,
scooby_state_401a3d|60|1 2730,0,1,1,1,0,0,1,1,1,0,0,0,0,1,2737,
scooby_state_401a54|61|1 2730,0,2,1,0,0,1,0,0,0,1,0,2,0,0,2737,
scooby_state_401a3d|40|1 2736,0,0,0,0,0,0,0,0,0,1,0,0,0,0,2737,
scooby_state_401a3d|58|1 2732,1,2,0,0,0,0,0,0,0,0,0,0,0,2,2737,
scooby_state_401a07|62|1 2731,0,0,0,0,0,1,0,1,1,0,2,0,0,1,2737,
scooby_state_401a07|52|1 2731,0,1,1,0,0,0,0,0,0,1,3,0,0,0,2737,
scooby_state_401a07|61|1 2729,0,0,1,0,0,0,1,1,1,1,1,0,1,1,2737,
scooby_state_4019e0|62|1 2730,1,1,0,0,0,0,1,1,0,0,1,0,2,0,2737,
scooby_state_4019f7|61|1 2736,0,0,0,0,0,0,0,0,1,0,0,0,0,0,2737,
scooby_state_4019f7|2|1 2736,0,0,0,0,0,0,1,0,0,0,0,0,0,0,2737,
scooby_state_401a16|58|1 2732,1,0,0,1,0,0,0,0,0,0,2,0,1,0,2737,
scooby_state_401a16|56|1 2733,1,0,0,0,1,0,2,0,0,0,0,0,0,0,2737,
scooby_state_4019f7|58|1 2731,0,0,0,1,0,2,1,0,0,0,0,1,1,0,2737,
scooby_state_4019f7|39|1 2734,0,0,0,0,1,0,0,0,1,0,0,0,1,0,2737,
scooby_state_4019f7|54|1 2732,0,0,1,0,0,1,1,0,0,1,0,0,0,1,2737,
scooby_state_4019f7|55|1 2736,1,0,0,0,0,0,0,0,0,0,0,0,0,0,2737,
scooby_state_4019e0|51|1 2733,0,0,0,1,0,0,0,1,0,0,1,1,0,0,2737,
scooby_state_401a16|59|1 2733,0,0,0,0,0,0,0,1,1,0,0,1,0,1,2737,
scooby_state_401a26|5|1 2733,0,2,0,0,1,1,0,0,0,0,0,0,0,0,2737,
scooby_state_401a16|3|1 2731,0,0,1,0,0,1,0,0,0,1,2,0,1,0,2737,
scooby_state_401a16|57|1 2731,0,0,1,0,0,0,0,0,0,2,1,2,0,0,2737,
scooby_state_4019e0|3|1 2734,0,0,0,0,1,0,1,0,1,0,0,0,0,0,2737,
scooby_state_4019e0|60|1 2734,0,1,0,0,0,1,0,0,0,1,0,0,0,0,2737,
scooby_state_4019e0|55|1 2734,0,0,0,0,0,1,0,0,1,0,0,0,0,1,2737,
scooby_state_4019e0|39|1 2736,0,0,0,0,0,0,0,0,0,0,1,0,0,0,2737,
scooby_state_4019f7|59|1 2733,0,0,0,0,0,1,1,0,1,0,0,1,0,0,2737,
scooby_state_401a54|57|1 2733,0,0,0,1,0,1,0,1,1,0,0,0,0,0,2737,
scooby_state_401a07|40|1 2733,0,0,0,2,0,0,0,0,0,0,0,1,1,0,2737,
scooby_state_4019f7|0|0 2731,0,0,1,0,0,0,1,1,2,0,0,1,0,0,2737,
scooby_state_401a3d|51|1 2730,0,0,0,3,2,1,0,0,0,0,0,0,0,1,2737,
scooby_state_401a16|47|1 2734,1,0,0,0,0,0,0,0,0,0,1,0,0,1,2737,
scooby_state_401a26|56|1 2727,2,0,1,1,2,1,1,0,0,1,1,0,0,0,2737,
scooby_state_401a3d|59|1 2736,0,0,0,0,0,0,0,0,1,0,0,0,0,0,2737,
scooby_state_4019f7|60|1 2727,0,0,0,1,0,1,1,0,1,2,0,2,1,1,2737,
scooby_state_401a26|2|1 2732,1,0,0,1,0,0,0,1,0,0,0,0,1,1,2737,
scooby_state_401a54|40|1 2731,1,1,0,1,0,0,0,0,0,0,1,2,0,0,2737,
scooby_state_401a26|59|1 2733,0,0,0,1,0,0,1,1,1,0,0,0,0,0,2737,
scooby_state_401a07|56|1 2731,0,1,0,1,0,0,0,1,0,0,0,2,0,1,2737,
scooby_state_401a26|39|1 2734,0,0,0,0,1,1,0,0,0,0,0,1,0,0,2737,
scooby_state_401a07|2|1 2730,0,1,1,1,0,0,0,1,0,1,1,0,0,1,2737,
scooby_state_401a26|60|1 2735,0,0,0,0,0,0,0,0,0,1,1,0,0,0,2737,
scooby_state_401a07|55|1 2731,2,1,0,1,0,1,1,0,0,0,0,0,0,0,2737,
scooby_state_4019f7|56|1 2729,2,1,0,0,0,0,0,1,0,0,1,0,1,2,2737,
scooby_state_401a07|39|1 2733,0,0,0,1,1,0,1,0,0,0,0,0,0,1,2737,
scooby_state_401a26|0|0 2727,0,0,1,0,1,1,0,0,2,0,1,0,4,0,2737,
scooby_state_401a26|61|1 2732,0,0,0,2,0,0,0,0,0,1,1,1,0,0,2737,
scooby_state_401a26|58|1 2732,2,0,0,1,1,0,1,0,0,0,0,0,0,0,2737,
scooby_state_401a26|3|1 2731,0,0,0,1,2,0,1,0,1,0,1,0,0,0,2737,
scooby_state_401a26|1|1 2734,0,0,0,1,0,0,0,0,0,0,1,0,1,0,2737,
scooby_state_401a3d|3|1 2734,0,0,0,0,2,0,0,0,0,1,0,0,0,0,2737,
scooby_state_401a3d|55|1 2734,0,0,0,0,0,0,1,0,0,1,0,0,0,1,2737,
scooby_state_4019f7|3|1 2727,0,0,0,1,0,0,0,0,1,1,2,0,3,2,2737,
scooby_state_401a07|3|1 2733,0,0,1,0,0,0,1,0,0,1,0,1,0,0,2737,
scooby_state_401a3d|56|1 2733,0,1,0,0,0,0,0,1,0,0,1,0,0,1,2737,
scooby_state_401a07|5|1 2734,0,0,0,0,0,0,0,1,1,0,1,0,0,0,2737,
scooby_state_401a26|51|1 2730,0,0,1,0,2,0,0,1,0,0,1,0,0,2,2737,
scooby_state_401a16|55|1 2732,0,0,1,0,0,0,1,0,0,1,0,0,1,1,2737,
scooby_state_401a54|39|1 2733,0,2,0,0,0,0,0,0,2,0,0,0,0,0,2737,
scooby_state_4019f7|62|1 2734,0,0,0,0,0,2,0,0,0,0,1,0,0,0,2737,
scooby_state_401a07|0|0 2733,0,1,1,0,0,0,1,0,0,0,0,1,0,0,2737,
scooby_state_401a07|59|1 2735,0,0,0,0,0,0,0,0,0,0,0,0,1,1,2737,
scooby_state_4019e0|59|1 2730,0,2,0,0,0,0,0,0,2,0,0,0,0,3,2737,
scooby_state_4019f7|1|1 2730,0,0,0,0,1,0,1,1,0,0,1,2,1,0,2737,
scooby_state_401a26|55|1 2731,0,0,1,0,1,0,1,1,0,0,0,1,0,1,2737,
scooby_state_401a16|2|1 2731,0,0,0,0,2,0,1,0,2,0,0,0,0,1,2737,
scooby_state_4019f7|40|1 2733,0,0,0,2,1,0,0,0,0,1,0,0,0,0,2737,
scooby_state_401a16|39|1 2730,1,0,0,2,1,0,1,0,1,1,0,0,0,0,2737,
scooby_state_401a07|53|1 2733,0,0,0,0,1,0,0,2,0,0,1,0,0,0,2737,
scooby_state_401a3d|0|0 2733,0,0,0,2,1,1,0,0,0,0,0,0,0,0,2737,
scooby_state_4019f7|51|1 2730,2,1,0,0,0,1,1,0,0,0,1,0,1,0,2737,
scooby_state_4019e0|40|1 2733,0,0,0,2,0,0,0,0,0,1,0,0,0,1,2737,
scooby_state_401a07|1|1 2733,0,0,0,0,0,1,1,0,0,0,0,0,1,1,2737,
scooby_state_401a54|62|1 2732,1,0,0,2,0,0,0,0,0,1,0,0,0,1,2737,
scooby_state_401a26|50|1 2731,0,1,0,1,0,0,1,1,1,0,1,0,0,0,2737,
scooby_state_401a07|60|1 2731,0,1,0,0,0,1,2,0,1,0,0,0,1,0,2737,
scooby_state_401a07|58|1 2732,1,1,0,0,0,0,0,1,0,1,1,0,0,0,2737,
scooby_state_401a54|60|1 2734,0,0,0,0,0,0,0,1,0,0,0,0,1,1,2737,
scooby_state_4019e0|2|1 2729,1,1,1,0,0,1,1,0,0,1,0,1,0,1,2737,
scooby_state_401a26|40|1 2730,0,0,3,0,0,0,0,1,0,1,0,2,0,0,2737,
scooby_state_401a16|61|1 2735,0,0,0,0,0,0,0,0,1,0,0,0,1,0,2737,
scooby_state_401a54|56|1 2735,0,1,0,0,0,0,0,0,0,0,0,1,0,0,2737,
scooby_state_401a16|1|1 2736,0,0,0,0,0,0,0,0,0,0,1,0,0,0,2737,
scooby_state_401a54|0|0 2732,0,1,1,0,0,1,0,1,0,0,0,0,0,1,2737,
scooby_state_401a26|57|1 2733,0,0,0,1,1,0,0,0,0,0,0,0,1,1,2737,
scooby_state_401a3d|61|1 2729,1,1,0,1,0,0,2,1,0,0,1,0,1,0,2737,
scooby_state_4019e0|0|0 2733,0,1,0,0,0,0,0,0,0,1,0,2,0,0,2737,
scooby_state_401a3d|2|1 2732,0,1,1,0,0,0,0,1,0,0,0,0,0,2,2737,
scooby_state_401a16|40|1 2733,1,0,0,0,0,0,0,0,2,0,0,0,1,0,2737,
scooby_state_4019e0|58|1 2731,2,0,1,0,0,0,0,2,0,0,1,0,0,0,2737,
scooby_state_401a16|62|1 2729,0,3,0,2,0,1,0,0,0,0,0,0,1,1,2737,
scooby_state_401a3d|1|1 2728,2,0,0,0,0,1,0,1,0,0,1,2,2,0,2737,
scooby_state_401a16|60|1 2731,0,0,2,0,0,1,0,0,1,0,1,1,0,0,2737,
scooby_state_4019f7|57|1 2734,0,0,0,1,0,0,0,2,0,0,0,0,0,0,2737,
scooby_state_401a07|51|1 2731,0,1,0,1,0,0,1,0,0,0,1,1,0,1,2737,
scooby_state_401a16|51|1 2732,0,0,2,0,0,1,0,0,0,2,0,0,0,0,2737,
scooby_state_401a54|55|1 2731,0,0,1,0,0,0,1,0,1,2,1,0,0,0,2737,
scooby_state_401a3d|47|1 2733,0,0,1,0,0,0,0,2,0,1,0,0,0,0,2737,
scooby_state_4019e0|47|1 2733,0,0,0,0,1,1,0,1,0,0,0,0,0,1,2737,
scooby_state_4019e0|57|1 2730,1,1,0,1,0,1,0,0,1,1,0,0,1,0,2737,
scooby_state_401a16|0|0 2732,0,3,0,0,0,0,0,0,0,0,1,0,1,0,2737,
scooby_state_401a07|54|1 2731,0,2,0,0,0,0,2,0,0,1,0,0,0,1,2737,
scooby_state_401a54|51|1 2732,0,1,0,1,0,0,0,0,0,0,1,0,0,2,2737,
scooby_state_4019e0|56|1 2732,1,0,0,1,0,1,0,0,1,0,0,1,0,0,2737,
scooby_state_401a3d|39|1 2732,0,1,0,0,0,0,0,0,1,1,1,0,1,0,2737,
scooby_state_4019e0|61|1 2733,1,0,0,1,0,0,0,1,0,0,0,1,0,0,2737,
scooby_state_401a26|63|1 2734,1,0,0,0,1,0,0,0,0,0,0,0,0,0,2736,
scooby_state_4019e0|18|1 2732,0,2,0,1,0,0,1,0,0,0,0,0,0,0,2736,
scooby_state_401a16|12|1 2730,1,0,0,0,0,0,1,0,1,1,0,1,0,1,2736,
scooby_state_4019f7|34|1 2731,1,0,0,0,1,1,1,0,0,0,0,0,1,0,2736,
scooby_state_401a07|25|1 2732,0,0,0,1,0,1,0,0,0,0,0,1,1,0,2736,
scooby_state_401a3d|63|1 2731,0,1,0,2,0,0,1,0,0,0,0,0,1,0,2736,
scooby_state_401a26|34|1 2731,0,1,1,0,0,0,1,0,0,1,0,0,0,1,2736,
scooby_state_401a26|9|1 2732,0,0,0,0,2,0,0,0,0,0,1,0,0,1,2736,
scooby_state_401a26|19|1 2731,0,0,0,3,1,0,1,0,0,0,0,0,0,0,2736,
scooby_state_401a16|18|1 2730,0,0,0,0,2,1,1,0,0,0,0,1,1,0,2736,
scooby_state_401a54|19|1 2729,0,1,1,0,2,2,0,0,0,1,0,0,0,0,2736,
scooby_state_4019f7|28|1 2727,1,1,0,1,1,2,0,0,1,1,0,0,1,0,2736,
scooby_state_401a26|18|1 2728,0,2,1,1,0,0,0,1,0,2,0,0,1,0,2736,
scooby_state_4019f7|27|1 2733,0,1,0,0,0,0,0,0,1,0,1,0,0,0,2736,
scooby_state_401a26|24|1 2732,1,1,0,0,0,0,2,0,0,0,0,0,0,0,2736,
scooby_state_4019f7|10|1 2726,1,1,1,0,2,1,1,0,0,1,0,0,1,1,2736,
scooby_state_401a3d|23|1 2731,0,1,0,0,0,0,2,0,0,1,0,0,0,1,2736,
scooby_state_4019e0|23|1 2731,0,0,1,1,0,0,1,1,0,1,0,0,0,0,2736,
scooby_state_401a26|25|1 2733,1,0,0,0,0,0,0,1,0,0,0,1,0,0,2736,
scooby_state_401a16|13|1 2731,0,0,0,0,1,2,0,1,0,1,0,0,0,0,2736,
scooby_state_401a3d|35|1 2734,0,0,0,0,0,1,1,0,0,0,0,0,0,0,2736,
scooby_state_401a26|13|1 2730,0,0,2,1,0,0,0,2,1,0,0,0,0,0,2736,
scooby_state_401a3d|13|1 2728,0,1,0,1,1,1,0,0,2,0,1,0,1,0,2736,
scooby_state_401a3d|25|1 2731,0,1,1,1,0,0,0,1,1,0,0,0,0,0,2736,
scooby_state_401a07|14|1 2732,0,2,1,0,0,0,0,0,0,0,0,0,0,1,2736,
scooby_state_401a26|14|1 2731,0,0,1,0,1,0,0,1,1,0,1,0,0,0,2736,
scooby_state_4019e0|9|1 2734,0,0,1,0,0,0,0,0,0,0,0,0,1,0,2736,
scooby_state_401a16|11|1 2730,0,0,0,2,0,0,1,1,0,1,1,0,0,0,2736,
scooby_state_401a54|28|1 2731,0,0,1,0,0,0,0,2,1,0,0,1,0,0,2736,
scooby_state_4019e0|14|1 2734,0,0,0,0,1,0,0,0,0,0,0,1,0,0,2736,
scooby_state_401a3d|14|1 2734,0,0,1,0,0,0,0,0,0,0,0,0,0,1,2736,
scooby_state_4019e0|27|1 2732,1,0,1,1,0,0,0,0,0,0,0,0,1,0,2736,
scooby_state_401a16|25|1 2729,1,1,0,0,0,0,1,0,0,1,1,2,0,0,2736,
scooby_state_401a26|52|1 2733,1,0,0,0,1,0,0,0,0,0,0,0,0,1,2736,
scooby_state_401a54|35|1 2733,0,1,0,0,2,0,0,0,0,0,0,0,0,0,2736,
scooby_state_401a16|26|1 2729,0,0,0,0,1,1,1,0,2,0,0,2,0,0,2736,
scooby_state_4019e0|10|1 2733,0,1,0,1,0,0,0,0,0,0,1,0,0,0,2736,
scooby_state_401a16|8|1 2732,1,1,0,0,0,0,0,0,0,0,0,1,0,1,2736,
scooby_state_401a16|28|1 2730,0,0,0,1,0,2,0,0,2,0,0,0,0,1,2736,
scooby_state_401a26|28|1 2733,1,0,0,0,0,0,0,0,0,1,0,0,1,0,2736,
scooby_state_401a3d|28|1 2730,0,0,1,0,1,0,1,0,0,1,0,1,1,0,2736,
scooby_state_401a16|23|1 2731,1,0,0,0,0,2,0,0,0,0,1,1,0,0,2736,
scooby_state_4019f7|29|1 2733,0,0,1,0,0,0,0,1,0,0,0,0,0,1,2736,
scooby_state_401a54|34|1 2732,0,0,0,0,0,1,1,0,0,1,1,0,0,0,2736,
scooby_state_401a54|24|1 2728,0,0,0,0,0,2,1,1,1,1,0,0,0,2,2736,
scooby_state_401a3d|12|1 2730,0,0,0,1,0,0,0,0,0,2,0,1,1,1,2736,
scooby_state_401a16|29|1 2731,0,0,0,1,0,0,1,0,0,1,1,0,1,0,2736,
scooby_state_4019e0|7|1 2732,1,0,0,0,1,1,0,0,0,0,0,0,1,0,2736,
scooby_state_401a54|29|1 2733,1,0,0,0,0,0,1,1,0,0,0,0,0,0,2736,
scooby_state_401a07|29|1 2730,0,1,0,0,1,1,2,0,0,0,1,0,0,0,2736,
scooby_state_4019f7|13|1 2736,0,0,0,0,0,0,0,0,0,0,0,0,0,0,2736,
scooby_state_4019e0|30|1 2729,0,1,1,1,1,1,0,0,1,0,1,0,0,0,2736,
scooby_state_401a3d|18|1 2734,0,0,0,0,1,0,0,1,0,0,0,0,0,0,2736,
scooby_state_4019f7|30|1 2729,1,1,0,1,1,1,2,0,0,0,0,0,0,0,2736,
scooby_state_401a07|30|1 2730,0,0,0,0,0,1,0,0,1,0,0,2,1,1,2736,
scooby_state_4019e0|29|1 2732,1,1,0,0,0,1,0,0,0,0,0,0,0,1,2736,
scooby_state_4019f7|18|1 2731,1,0,0,1,0,1,0,0,0,0,0,2,0,0,2736,
scooby_state_401a16|34|1 2730,0,0,0,1,1,0,1,0,2,1,0,0,0,0,2736,
scooby_state_401a3d|21|1 2729,0,0,0,0,0,1,2,1,0,0,2,0,0,1,2736,
scooby_state_401a54|30|1 2732,0,0,0,0,0,1,1,1,0,0,1,0,0,0,2736,
scooby_state_401a07|18|1 2733,0,0,1,0,0,0,0,0,0,0,0,0,1,1,2736,
scooby_state_4019e0|35|1 2730,0,0,1,1,0,0,4,0,0,0,0,0,0,0,2736,
scooby_state_4019f7|8|1 2732,0,1,0,1,0,0,1,0,0,0,1,0,0,0,2736,
scooby_state_401a07|47|1 2731,1,0,1,0,0,2,0,1,0,0,0,0,0,0,2736,
scooby_state_401a07|10|1 2730,1,1,0,1,0,0,0,1,0,0,1,1,0,0,2736,
scooby_state_401a26|33|1 2732,1,0,0,0,0,1,0,0,0,0,0,0,0,2,2736,
scooby_state_4019e0|24|1 2733,0,0,0,0,0,1,0,0,1,0,1,0,0,0,2736,
scooby_state_401a26|23|1 2733,0,0,0,0,1,0,0,0,1,1,0,0,0,0,2736,
scooby_state_401a16|24|1 2734,0,0,0,0,0,0,0,1,0,0,0,1,0,0,2736,
scooby_state_4019f7|35|1 2732,0,0,1,0,0,1,0,1,0,0,1,0,0,0,2736,
scooby_state_401a3d|9|1 2735,0,0,1,0,0,0,0,0,0,0,0,0,0,0,2736,
scooby_state_401a26|27|1 2730,0,2,0,1,0,0,0,0,0,0,1,1,1,0,2736,
scooby_state_401a07|24|1 2734,0,0,0,0,0,0,0,1,0,1,0,0,0,0,2736,
scooby_state_401a07|19|1 2728,2,1,0,1,1,1,0,0,0,0,0,0,0,2,2736,
scooby_state_401a3d|24|1 2730,0,0,0,0,0,1,1,1,1,1,0,0,0,1,2736,
scooby_state_401a54|18|1 2730,1,1,0,0,0,1,0,1,0,0,1,0,1,0,2736,
scooby_state_401a54|26|1 2733,0,0,0,0,0,0,0,1,1,0,1,0,0,0,2736,
scooby_state_401a16|53|1 2731,0,0,1,0,1,0,0,0,1,1,0,1,0,0,2736,
scooby_state_401a54|11|1 2731,0,0,0,0,0,1,2,1,0,0,1,0,0,0,2736,
scooby_state_401a26|26|1 2732,0,0,0,2,0,0,0,0,0,0,1,0,0,1,2736,
scooby_state_4019e0|13|1 2732,1,0,0,0,0,0,0,0,1,0,0,0,2,0,2736,
scooby_state_401a16|35|1 2730,1,0,0,0,0,0,1,1,1,1,0,0,0,1,2736,
scooby_state_401a07|28|1 2730,4,0,0,0,0,0,0,0,0,0,2,0,0,0,2736,
scooby_state_4019f7|25|1 2728,1,0,1,0,0,2,1,1,0,0,1,1,0,0,2736,
scooby_state_401a07|35|1 2733,1,1,0,0,0,0,0,0,0,0,0,0,0,1,2736,
scooby_state_401a3d|5|1 2730,0,1,0,1,0,0,1,0,1,0,1,1,0,0,2736,
scooby_state_401a3d|7|1 2733,0,0,0,0,0,0,0,0,2,0,0,0,0,1,2736,
scooby_state_401a16|30|1 2733,1,0,0,0,0,0,1,0,1,0,0,0,0,0,2736,
scooby_state_401a26|7|1 2733,0,0,0,0,0,1,0,0,0,0,0,1,0,1,2736,
scooby_state_4019f7|23|1 2730,0,1,0,1,0,2,1,0,0,0,0,0,0,1,2736,
scooby_state_401a3d|37|1 2731,1,1,0,0,0,1,0,1,0,0,0,0,1,0,2736,
scooby_state_4019f7|36|1 2729,0,0,0,0,1,0,1,1,1,0,0,0,1,2,2736,
scooby_state_4019f7|7|1 2731,2,0,0,0,0,0,1,0,1,0,1,0,0,0,2736,
scooby_state_401a07|13|1 2734,0,0,0,0,0,0,1,0,0,1,0,0,0,0,2736,
scooby_state_401a16|10|1 2733,0,0,0,0,1,0,0,0,0,0,0,1,1,0,2736,
scooby_state_4019e0|28|1 2731,0,0,0,0,1,1,0,1,0,1,1,0,0,0,2736,
scooby_state_401a26|12|1 2726,0,0,1,0,0,2,1,1,1,0,1,0,1,2,2736,
scooby_state_4019e0|19|1 2731,0,1,0,1,0,0,0,2,0,0,1,0,0,0,2736,
scooby_state_4019f7|9|1 2729,0,0,1,1,1,0,1,1,0,1,1,0,0,0,2736,
scooby_state_401a16|14|1 2733,1,0,0,0,1,1,0,0,0,0,0,0,0,0,2736,
scooby_state_401a16|63|1 2732,0,0,0,0,0,0,0,0,1,1,0,0,1,1,2736,
scooby_state_401a3d|26|1 2730,1,0,1,1,0,0,0,0,2,0,0,0,0,1,2736,
scooby_state_4019f7|19|1 2732,0,0,1,0,0,0,0,0,1,0,0,1,1,0,2736,
scooby_state_401a07|27|1 2735,0,0,0,0,0,0,0,0,0,0,0,0,0,1,2736,
scooby_state_401a07|26|1 2731,1,0,0,1,1,0,0,0,2,0,0,0,0,0,2736,
scooby_state_401a16|36|1 2729,0,1,0,0,0,0,1,2,1,1,1,0,0,0,2736,
scooby_state_401a16|7|1 2733,1,0,1,0,0,0,0,0,0,1,0,0,0,0,2736,
scooby_state_401a54|7|1 2731,1,1,0,0,1,0,0,0,1,0,0,0,1,0,2736,
scooby_state_401a54|23|1 2731,2,0,0,0,1,0,1,1,0,0,0,0,0,0,2736,
scooby_state_401a26|35|1 2731,1,0,0,0,0,0,0,0,1,0,0,2,0,1,2736,
scooby_state_401a26|53|1 2730,0,1,0,1,0,1,0,0,0,1,2,0,0,0,2736,
scooby_state_401a26|47|1 2730,0,1,1,0,1,0,0,1,1,0,1,0,0,0,2736,
scooby_state_401a26|8|1 2732,0,0,1,0,0,0,0,0,0,0,1,0,0,2,2736,
scooby_state_401a16|27|1 2729,0,1,0,1,0,0,0,2,1,0,1,1,0,0,2736,
scooby_state_401a26|37|1 2733,2,0,0,0,0,0,0,0,0,0,0,0,1,0,2736,
scooby_state_401a54|14|1 2731,0,0,0,1,1,1,0,0,1,1,0,0,0,0,2736,
scooby_state_401a07|7|1 2730,1,0,1,0,1,0,0,0,0,0,0,1,1,1,2736,
scooby_state_4019e0|34|1 2734,0,0,1,0,0,0,0,0,0,0,0,1,0,0,2736,
scooby_state_401a54|12|1 2731,0,1,1,0,0,0,0,1,1,0,0,0,1,0,2736,
scooby_state_401a3d|19|1 2731,0,1,0,0,1,0,0,1,1,1,0,0,0,0,2736,
scooby_state_401a3d|10|1 2731,0,0,0,1,1,0,1,0,0,0,0,1,1,0,2736,
scooby_state_4019f7|52|1 2729,0,1,0,0,0,1,2,0,1,1,0,0,1,0,2736,
scooby_state_401a26|11|1 2733,0,0,0,0,0,0,2,1,0,0,0,0,0,0,2736,
scooby_state_401a16|19|1 2730,0,1,1,2,0,0,1,0,1,0,0,0,0,0,2736,
scooby_state_401a54|9|1 2731,1,0,0,1,0,1,1,0,0,0,0,0,0,1,2736,
scooby_state_4019f7|26|1 2733,0,0,1,0,0,0,0,1,0,0,0,0,0,1,2736,
scooby_state_401a07|34|1 2728,1,1,1,0,0,1,0,2,0,1,1,0,0,0,2736,
scooby_state_4019f7|14|1 2733,0,2,0,0,0,0,0,0,1,0,0,0,0,0,2736,
scooby_state_401a3d|29|1 2732,1,1,0,1,1,0,0,0,0,0,0,0,0,0,2736,
scooby_state_4019e0|11|1 2733,0,1,0,0,0,0,0,0,0,0,1,1,0,0,2736,
scooby_state_401a54|8|1 2729,2,0,0,1,0,1,0,1,0,0,0,0,0,2,2736,
scooby_state_4019f7|11|1 2732,0,0,1,0,0,0,1,0,0,0,0,1,0,1,2736,
scooby_state_401a16|37|1 2731,0,0,0,1,0,0,0,0,0,3,0,0,1,0,2736,
scooby_state_401a54|13|1 2735,0,0,0,0,0,0,0,0,1,0,0,0,0,0,2736,
scooby_state_401a07|11|1 2729,1,0,0,0,1,1,1,0,1,0,0,2,0,0,2736,
scooby_state_401a26|10|1 2730,0,0,2,1,0,1,1,0,0,0,0,0,1,0,2736,
scooby_state_4019e0|8|1 2734,0,0,1,1,0,0,0,0,0,0,0,0,0,0,2736,
scooby_state_401a3d|27|1 2732,0,0,1,0,0,1,1,0,0,1,0,0,0,0,2736,
scooby_state_401a07|23|1 2735,0,1,0,0,0,0,0,0,0,0,0,0,0,0,2736,
scooby_state_4019f7|24|1 2731,0,0,0,1,0,0,0,1,0,0,1,0,0,2,2736,
scooby_state_401a3d|11|1 2729,2,0,0,1,0,0,0,0,0,1,2,0,1,0,2736,
scooby_state_401a3d|53|1 2731,0,0,0,1,0,0,1,1,1,0,0,0,0,1,2736,
scooby_state_4019e0|12|1 2726,2,2,1,0,1,0,0,1,0,0,1,0,1,1,2736,
scooby_state_401a3d|8|1 2733,0,0,0,1,0,0,1,1,0,0,0,0,0,0,2736,
scooby_state_401a07|8|1 2730,0,0,1,0,0,1,0,2,1,0,1,0,0,0,2736,
scooby_state_401a54|25|1 2734,0,0,0,0,0,2,0,0,0,0,0,0,0,0,2736,
scooby_state_4019f7|12|1 2733,0,1,0,0,0,0,0,0,0,0,0,2,0,0,2736,
scooby_state_4019e0|25|1 2732,0,0,0,1,1,0,0,1,0,0,0,0,1,0,2736,
scooby_state_401a07|12|1 2733,0,0,0,0,0,0,1,0,0,0,0,0,1,1,2736,
scooby_state_401a26|4|1 2729,0,1,1,1,0,0,0,2,0,0,0,2,0,0,2736,
scooby_state_4019e0|26|1 2735,0,0,0,0,0,1,0,0,0,0,0,0,0,0,2736,
scooby_state_401a16|9|1 2732,0,0,2,0,0,1,0,0,0,0,0,0,1,0,2736,
scooby_state_401a07|36|1 2730,0,0,1,1,0,0,0,0,0,0,2,1,0,1,2736,
scooby_state_401a16|52|1 2733,1,0,0,0,0,0,0,0,1,1,0,0,0,0,2736,
scooby_state_401a3d|30|1 2732,1,0,0,0,0,0,1,0,0,0,0,0,0,2,2736,
scooby_state_401a26|29|1 2733,0,0,0,0,2,0,0,0,0,0,0,0,1,0,2736,
scooby_state_401a07|38|1 2733,0,0,0,0,1,0,1,0,1,0,0,0,0,0,2736,
scooby_state_401a3d|34|1 2732,0,0,0,1,0,1,1,0,1,0,0,0,0,0,2736,
scooby_state_401a54|10|1 2731,0,1,2,1,0,0,0,0,0,1,0,0,0,0,2736,
scooby_state_401a26|30|1 2730,0,0,0,0,1,0,1,1,1,0,0,2,0,0,2736,
scooby_state_401a54|27|1 2726,0,1,0,0,0,1,1,0,1,2,1,1,0,2,2736,
scooby_state_401a07|9|1 2732,0,2,0,1,0,0,0,0,0,0,1,0,0,0,2736,
scooby_state_4019f7|5|1 2729,2,0,0,0,0,0,0,0,1,1,0,0,0,2,2735,
scooby_state_401a26|15|1 2733,0,0,0,0,0,0,1,0,0,0,0,0,1,0,2735,
scooby_state_4019f7|6|1 2732,0,0,0,0,1,0,0,1,0,0,0,0,0,1,2735,
scooby_state_401a07|6|1 2729,0,0,3,0,0,1,0,0,0,0,0,1,1,0,2735,
scooby_state_401a3d|15|1 2731,0,1,0,1,0,0,1,0,0,0,0,0,1,0,2735,
scooby_state_401a3d|17|1 2732,0,2,0,0,0,0,0,1,0,0,0,0,0,0,2735,
scooby_state_401a26|17|1 2734,0,0,1,0,0,0,0,0,0,0,0,0,0,0,2735,
scooby_state_401a3d|31|1 2733,0,2,0,0,0,0,0,0,0,0,0,0,0,0,2735,
scooby_state_401a07|20|1 2728,0,0,1,0,0,0,0,0,1,1,0,3,1,0,2735,
scooby_state_401a16|17|1 2730,0,1,0,0,0,0,0,1,0,0,0,1,2,0,2735,
scooby_state_4019f7|38|1 2733,0,1,0,0,0,0,0,0,1,0,0,0,0,0,2735,
scooby_state_401a16|31|1 2731,1,1,0,0,1,0,0,0,0,0,0,1,0,0,2735,
scooby_state_401a3d|52|1 2730,1,0,0,1,0,0,1,0,1,0,1,0,0,0,2735,
scooby_state_401a54|53|1 2731,0,1,0,0,0,0,1,1,0,0,0,0,1,0,2735,
scooby_state_401a07|33|1 2730,0,0,1,1,0,1,0,2,0,0,0,0,0,0,2735,
scooby_state_401a3d|32|1 2731,0,1,0,1,0,0,0,0,0,0,1,0,1,0,2735,
scooby_state_4019f7|47|1 2729,0,1,1,1,0,1,0,1,0,0,0,0,1,0,2735,
scooby_state_4019f7|16|1 2728,1,0,0,1,0,0,1,0,1,1,0,0,1,1,2735,
scooby_state_401a26|32|1 2734,0,0,1,0,0,0,0,0,0,0,0,0,0,0,2735,
scooby_state_401a16|33|1 2731,1,0,0,0,0,0,0,1,0,0,0,1,0,1,2735,
scooby_state_4019f7|20|1 2728,1,0,0,0,0,1,0,1,0,0,1,2,1,0,2735,
scooby_state_401a26|16|1 2731,0,0,0,0,0,2,0,0,1,0,1,0,0,0,2735,
scooby_state_401a16|32|1 2730,0,1,1,0,0,0,1,0,1,0,0,1,0,0,2735,
scooby_state_401a16|21|1 2728,2,0,0,2,0,0,0,1,1,0,0,0,0,1,2735,
scooby_state_401a07|37|1 2730,1,1,0,0,1,0,0,1,0,0,0,1,0,0,2735,
scooby_state_401a3d|36|1 2731,0,0,1,0,0,0,0,0,0,0,2,0,0,1,2735,
scooby_state_401a26|36|1 2733,0,0,0,0,0,1,0,0,0,0,1,0,0,0,2735,
scooby_state_401a07|17|1 2729,0,0,2,0,0,0,1,1,0,0,0,1,0,1,2735,
scooby_state_401a26|21|1 2727,1,0,1,2,0,2,0,0,0,1,1,0,0,0,2735,
scooby_state_401a26|31|1 2731,0,0,0,0,0,0,0,0,1,1,1,1,0,0,2735,
scooby_state_401a54|5|1 2731,1,0,0,0,1,0,1,0,0,0,0,1,0,0,2735,
scooby_state_4019f7|22|1 2729,0,0,1,0,0,1,0,1,1,0,1,0,1,0,2735,
scooby_state_401a07|22|1 2731,1,1,0,0,0,0,0,0,2,0,0,0,0,0,2735,
scooby_state_401a16|20|1 2728,1,0,0,1,0,1,0,2,0,0,0,0,1,1,2735,
scooby_state_401a54|2|1 2729,0,0,1,0,1,1,0,0,0,1,0,0,1,0,2734,
scooby_state_401a16|38|1 2729,0,0,0,1,0,1,1,0,0,1,0,0,1,0,2734,
scooby_state_4019f7|32|1 2726,1,0,0,1,0,0,1,1,0,1,0,0,2,1,2734,
scooby_state_401a16|5|1 2724,0,2,1,1,0,1,0,2,1,0,0,1,1,0,2734,
scooby_state_401a07|21|1 2726,0,1,0,1,0,1,0,1,2,1,0,1,0,0,2734,
scooby_state_401a54|47|1 2728,1,0,0,0,1,2,0,1,0,0,0,1,0,0,2734,
scooby_state_401a07|15|1 2730,1,0,0,2,0,0,0,0,0,1,0,0,0,0,2734,
scooby_state_401a07|31|1 2732,1,0,0,0,0,0,0,0,0,0,0,1,0,0,2734,
scooby_state_401a54|20|1 2729,0,1,0,0,0,2,0,1,0,0,1,0,0,0,2734,
scooby_state_401a3d|20|1 2729,0,0,1,0,0,0,1,1,0,1,0,1,0,0,2734,
scooby_state_401a54|36|1 2730,0,0,0,0,1,0,0,0,0,0,2,0,1,0,2734,
scooby_state_401a16|15|1 2731,0,0,0,1,1,0,0,0,0,0,0,0,1,0,2734,
scooby_state_401a26|54|1 2731,1,0,0,1,0,0,0,0,0,0,1,0,0,0,2734,
scooby_state_401a3d|54|1 2729,0,1,0,0,0,0,1,1,0,0,0,2,0,0,2734,
scooby_state_401a54|3|1 2729,0,0,1,0,0,0,1,0,0,0,0,2,0,1,2734,
scooby_state_401a16|16|1 2724,1,0,0,1,1,0,1,1,0,0,3,2,0,0,2734,
scooby_state_401a3d|38|1 2733,0,0,0,1,0,0,0,0,0,0,0,0,0,0,2734,
scooby_state_401a3d|16|1 2730,0,0,0,0,2,1,0,0,0,0,0,1,0,0,2734,
scooby_state_4019f7|21|1 2727,0,0,1,0,2,1,0,0,1,2,0,0,0,0,2734,
scooby_state_4019e0|54|1 2730,1,0,1,0,1,0,0,0,0,0,0,0,1,0,2734,
scooby_state_401a54|54|1 2731,0,1,0,0,0,0,0,0,0,0,0,0,1,1,2734,
scooby_state_401a54|37|1 2730,0,0,1,0,0,0,0,0,0,1,0,1,0,1,2734,
scooby_state_401a16|54|1 2728,0,0,0,1,0,0,1,0,3,0,1,0,0,0,2734,
scooby_state_4019f7|37|1 2730,0,1,0,2,0,0,0,0,0,0,0,0,1,0,2734,
scooby_state_401a07|63|1 2726,1,0,0,2,0,0,0,1,1,2,0,0,1,0,2734,
scooby_state_401a26|20|1 2727,0,0,0,0,1,0,1,0,1,2,0,0,2,0,2734,
scooby_state_401a54|1|1 2732,0,0,0,0,0,0,0,0,1,0,0,0,1,0,2734,
scooby_state_401a54|21|1 2730,0,1,0,1,0,0,0,1,0,0,0,0,1,0,2734,
scooby_state_4019f7|31|1 2729,0,0,1,1,0,0,0,0,0,0,1,0,0,1,2733,
scooby_state_401a07|4|1 2725,1,0,0,0,2,0,1,1,0,1,0,1,0,1,2733,
scooby_state_401a54|52|1 2728,0,0,1,1,0,1,1,0,1,0,0,0,0,0,2733,
scooby_state_4019f7|63|1 2727,1,1,0,0,0,0,1,0,1,0,2,0,0,0,2733,
scooby_state_4019e0|63|1 2730,1,0,0,0,0,0,1,0,0,0,0,0,0,1,2733,
scooby_state_401a54|38|1 2729,0,0,0,0,0,1,1,0,0,0,0,1,1,0,2733,
scooby_state_4019e0|21|1 2725,0,1,1,0,0,1,0,0,2,0,2,1,0,0,2733,
scooby_state_4019e0|5|1 2731,0,0,0,1,0,0,0,1,0,0,0,0,0,0,2733,
scooby_state_401a26|38|1 2727,0,0,0,1,1,0,0,0,0,0,1,1,0,2,2733,
scooby_state_4019e0|52|1 2732,0,0,1,0,0,0,0,0,0,0,0,0,0,0,2733,
scooby_state_401a16|4|1 2728,0,0,1,2,0,1,0,0,1,0,0,0,0,0,2733,
scooby_state_4019e0|53|1 2732,0,0,0,0,0,0,1,0,0,0,0,0,0,0,2733,
scooby_state_4019e0|36|1 2730,0,0,0,0,1,0,0,1,0,0,0,1,0,0,2733,
scooby_state_401a07|16|1 2729,0,0,1,1,0,1,0,0,1,0,0,0,0,0,2733,
scooby_state_401a3d|33|1 2723,0,0,1,0,2,1,1,2,1,0,0,0,2,0,2733,
scooby_state_4019f7|4|1 2727,0,0,1,0,0,0,0,1,0,1,0,2,1,0,2733,
scooby_state_4019e0|4|1 2730,0,1,0,0,0,0,0,1,0,0,0,0,0,1,2733,
scooby_state_401a54|31|1 2728,0,0,0,1,1,0,0,0,1,1,0,1,0,0,2733,
scooby_state_401a3d|4|1 2727,1,1,1,1,0,0,0,0,1,0,0,0,0,1,2733,
scooby_state_401a54|63|1 2733,0,0,0,0,0,0,0,0,0,0,0,0,0,0,2733,
scooby_state_4019e0|38|1 2729,0,0,1,0,0,0,2,0,0,0,0,0,1,0,2733,
scooby_state_401a54|4|1 2729,1,0,0,0,1,2,0,0,0,0,0,0,0,0,2733,
scooby_state_4019e0|37|1 2730,0,1,0,0,0,0,0,0,2,0,0,0,0,0,2733,
scooby_state_401a3d|6|1 2730,0,0,0,0,1,0,0,0,0,1,0,1,0,0,2733,
scooby_state_401a07|32|1 2726,1,0,0,2,0,1,0,1,0,0,0,1,0,1,2733,
scooby_state_4019e0|31|1 2728,0,1,0,0,0,0,0,1,0,0,3,0,0,0,2733,
scooby_state_4019e0|20|1 2729,0,1,0,0,0,1,0,0,1,0,0,0,1,0,2733,
scooby_state_4019f7|53|1 2730,0,0,0,0,0,0,0,0,1,0,0,1,0,1,2733,
scooby_state_401a54|33|1 2722,1,0,0,0,0,0,1,1,1,0,2,2,0,2,2732,
scooby_state_4019e0|16|1 2729,0,0,0,0,0,0,0,1,0,1,0,0,1,0,2732,
scooby_state_401a54|16|1 2725,1,0,0,1,0,1,0,0,1,1,1,1,0,0,2732,
scooby_state_401a3d|22|1 2726,0,0,1,0,1,1,1,0,0,0,0,1,0,1,2732,
scooby_state_401a16|6|1 2724,0,1,0,0,1,0,2,1,0,0,1,0,0,2,2732,
scooby_state_401a54|32|1 2730,0,0,0,0,0,0,0,0,2,0,0,0,0,0,2732,
scooby_state_4019e0|22|1 2730,0,0,0,0,0,0,0,0,1,0,0,1,0,0,2732,
scooby_state_401a16|22|1 2729,0,1,0,0,0,0,0,0,1,0,0,1,0,0,2732,
scooby_state_401a54|17|1 2727,0,1,0,0,0,1,0,0,0,0,1,0,1,1,2732,
scooby_state_401a54|15|1 2722,0,1,0,2,0,2,0,2,1,0,1,1,0,0,2732,
scooby_state_4019f7|15|1 2724,0,2,0,1,0,0,0,1,0,0,0,2,2,0,2732,
scooby_state_4019e0|15|1 2725,0,0,0,1,0,0,2,0,1,0,0,2,0,1,2732,
scooby_state_4019e0|33|1 2727,1,0,0,1,0,1,2,0,0,0,0,0,0,0,2732,
scooby_state_401a54|6|1 2728,0,0,0,0,1,0,0,2,0,1,0,0,0,0,2732,
scooby_state_4019e0|6|1 2727,2,0,0,0,1,0,0,0,0,0,0,0,1,1,2732,
scooby_state_401a26|22|1 2729,0,0,0,0,1,0,0,0,0,0,0,0,1,1,2732,
scooby_state_4019e0|17|1 2731,0,0,0,0,0,0,0,0,0,0,0,0,0,1,2732,
scooby_state_4019f7|17|1 2729,0,0,1,0,1,1,0,0,0,0,0,0,0,0,2732,
scooby_state_4019e0|32|1 2725,0,0,0,0,4,1,0,0,0,0,0,0,0,2,2732,
scooby_state_401a54|22|1 2728,0,0,0,0,1,1,0,1,0,0,0,1,0,0,2732,
scooby_state_401a26|6|1 2727,1,0,0,0,0,1,0,0,0,1,0,2,0,0,2732,
scooby_state_4019f7|33|1 2726,0,0,0,0,0,0,1,0,3,1,0,0,0,1,2732,
scooby_state_401a07|45|1 2723,0,0,0,0,1,0,0,0,0,1,0,0,0,0,2725,
scooby_state_4019f7|45|1 2723,0,0,0,0,0,0,0,1,0,0,0,0,0,0,2724,
scooby_state_401a16|45|1 2716,0,0,0,0,0,1,0,0,0,1,0,0,1,0,2719,
scooby_state_401a16|42|1 2705,0,1,1,0,0,0,1,0,0,0,0,1,0,0,2709,
scooby_state_401a07|42|1 2696,0,1,0,0,0,1,0,0,0,1,0,0,0,1,2700,
scooby_state_401a3d|45|1 2697,0,0,0,0,1,0,0,0,0,0,0,0,0,0,2698,
scooby_state_401a07|43|1 2689,0,1,1,0,0,0,0,0,0,0,1,0,0,0,2692,
scooby_state_401a16|43|1 2686,1,1,0,0,1,1,0,0,1,1,0,0,0,0,2692,
scooby_state_401a07|44|1 2683,1,1,0,0,0,0,0,1,0,0,0,0,1,1,2688,
scooby_state_401a3d|42|1 2679,1,1,0,1,0,1,0,0,0,1,0,1,0,0,2685,
scooby_state_401a16|44|1 2682,1,0,0,0,0,0,0,0,0,0,2,0,0,0,2685,
scooby_state_401a26|42|1 2683,0,0,0,1,0,0,0,0,0,0,0,0,0,1,2685,
scooby_state_4019e0|45|1 2673,0,0,0,0,0,1,1,0,1,1,1,0,1,2,2681,
scooby_state_401a3d|43|1 2678,1,0,1,0,0,0,0,0,0,0,1,0,0,0,2681,
scooby_state_4019f7|43|1 2673,1,0,0,0,0,0,0,1,0,1,0,0,0,1,2677,
scooby_state_401a3d|44|1 2671,0,0,1,0,1,0,0,0,0,1,0,0,0,1,2675,
scooby_state_401a26|43|1 2664,0,1,0,0,0,0,1,0,0,2,1,0,3,0,2672,
scooby_state_401a07|48|1 2667,0,0,0,0,0,0,1,0,0,1,0,0,0,0,2669,
scooby_state_401a16|48|1 2660,1,1,0,0,1,0,0,0,0,0,0,0,0,1,2664,
scooby_state_401a16|49|1 2657,1,0,0,0,0,0,3,0,0,1,0,0,0,1,2663,
scooby_state_401a3d|48|1 2650,1,0,1,2,0,1,1,0,0,0,0,1,1,0,2658,
scooby_state_4019f7|44|1 2654,0,0,1,1,0,0,0,1,0,0,0,0,0,0,2657,
scooby_state_401a07|49|1 2648,0,0,1,1,0,0,0,1,0,0,0,0,0,0,2651,
scooby_state_4019f7|42|1 2639,0,0,1,0,0,0,2,1,0,0,0,0,1,0,2644,
scooby_state_401a54|45|1 2639,0,0,0,1,0,0,1,1,0,0,0,1,0,0,2643,
scooby_state_401a54|42|1 2633,2,1,0,0,0,0,0,1,0,0,0,1,0,1,2639,
scooby_state_401a26|44|1 2631,0,0,0,1,0,0,0,0,0,0,0,1,1,0,2634,
scooby_state_401a3d|49|1 2629,1,0,0,0,0,1,0,0,0,0,0,0,1,0,2632,
scooby_state_401a54|43|1 2627,0,0,0,0,0,0,0,0,4,0,0,0,0,0,2631,
scooby_state_401a26|45|1 2617,0,1,0,1,0,0,1,0,0,0,1,0,0,0,2621,
scooby_state_401a26|48|1 2588,0,1,1,2,2,0,0,0,0,1,0,1,1,1,2598,
scooby_state_401a54|44|1 2592,0,0,1,1,0,1,0,3,0,0,0,0,0,0,2598,
scooby_state_401a54|48|1 2586,0,0,0,0,0,0,0,0,0,0,1,0,0,1,2588,
scooby_state_4019e0|42|1 2572,0,0,0,2,0,0,0,0,1,0,0,0,1,0,2576,
scooby_state_4019e0|44|1 2564,1,0,1,1,0,1,2,0,0,1,0,0,0,0,2571,
scooby_state_401a26|49|1 2562,0,0,1,0,0,0,1,0,0,0,1,0,0,0,2565,
scooby_state_4019e0|43|1 2558,0,0,1,0,2,0,1,1,0,0,0,0,0,0,2563,
scooby_state_4019f7|48|1 2554,0,0,0,0,0,0,1,0,0,0,0,0,0,0,2555,
scooby_state_401a54|49|1 2539,1,0,2,0,1,2,1,0,0,0,1,0,1,1,2549,
scooby_state_4019f7|49|1 2542,0,0,1,0,0,0,1,1,2,0,0,0,0,0,2547,
scooby_state_4019e0|49|1 2510,1,0,0,0,0,0,0,0,1,0,0,0,0,1,2513,
scooby_state_4019e0|48|1 2506,0,1,3,0,0,0,0,0,0,0,0,0,1,0,2511,
scooby_state_40195b|46|0 1748,0,0,1,1,0,2,0,0,0,0,0,0,0,0,1752,
scooby_state_4019e0|46|0 885,0,0,1,0,0,0,0,0,0,1,0,0,0,0,887,
scooby_state_401ae7|45|1 861,2,0,0,0,0,0,0,0,0,0,0,0,0,0,863,
scooby_state_4019e0|40|0 648,0,0,0,0,0,0,0,0,0,0,0,0,0,0,648,
scooby_state_401a5c|43|1 568,0,0,0,0,0,0,0,0,0,0,0,0,0,0,568,
scooby_state_4019fd|37|1 561,1,0,0,0,0,1,0,0,0,0,0,0,0,0,563,
scooby_state_4019fd|40|1 562,0,0,0,0,0,0,0,0,0,0,0,0,0,0,562,
scooby_state_4019fd|36|1 561,0,0,1,0,0,0,0,0,0,0,0,0,0,0,562,
scooby_state_4019fd|33|1 561,1,0,0,0,0,0,0,0,0,0,0,0,0,0,562,
scooby_state_4019fd|29|1 562,0,0,0,0,0,0,0,0,0,0,0,0,0,0,562,
scooby_state_4019fd|34|1 558,1,2,0,0,0,0,0,0,0,0,0,0,0,0,561,
scooby_state_4019fd|25|1 560,0,1,0,0,0,0,0,0,0,0,0,0,0,0,561,
scooby_state_4019fd|32|1 559,0,0,0,0,0,0,0,1,0,0,0,0,0,0,560,
scooby_state_4019fd|38|1 560,0,0,0,0,0,0,0,0,0,0,0,0,0,0,560,
scooby_state_4019fd|26|1 559,0,0,0,0,0,0,0,0,1,0,0,0,0,0,560,
scooby_state_4019fd|30|1 560,0,0,0,0,0,0,0,0,0,0,0,0,0,0,560,
scooby_state_4019fd|27|1 560,0,0,0,0,0,0,0,0,0,0,0,0,0,0,560,
scooby_state_4019fd|39|1 558,0,0,0,0,0,0,0,0,0,1,0,0,0,0,559,
scooby_state_4019fd|35|1 559,0,0,0,0,0,0,0,0,0,0,0,0,0,0,559,
scooby_state_4019fd|28|1 557,0,0,0,0,0,0,0,0,0,0,0,0,0,0,557,
scooby_state_4019fd|31|1 555,0,0,0,0,1,0,0,0,0,0,0,0,0,0,556,
scooby_state_401a0d|2|1 550,0,0,0,0,0,0,0,0,0,0,0,1,0,0,551,
scooby_state_401a0d|5|1 547,1,0,0,0,0,0,0,0,0,0,0,0,1,0,549,
scooby_state_401a0d|16|1 548,0,0,0,0,0,0,0,1,0,0,0,0,0,0,549,
scooby_state_401a0d|13|1 549,0,0,0,0,0,0,0,0,0,0,0,0,0,0,549,
scooby_state_401a0d|10|1 547,0,0,0,0,0,0,0,1,1,0,0,0,0,0,549,
scooby_state_401a0d|0|0 548,0,0,0,0,0,0,0,0,0,0,0,0,1,0,549,
scooby_state_401a0d|14|1 548,0,0,1,0,0,0,0,0,0,0,0,0,0,0,549,
scooby_state_401a0d|11|1 549,0,0,0,0,0,0,0,0,0,0,0,0,0,0,549,
scooby_state_401a5c|32|1 547,0,0,0,0,0,0,0,1,0,0,0,0,0,0,548,
scooby_state_401a5c|29|1 547,0,0,0,0,0,1,0,0,0,0,0,0,0,0,548,
scooby_state_401a1c|1|1 547,0,0,0,0,1,0,0,0,0,0,0,0,0,0,548,
scooby_state_401a0d|8|1 547,0,0,0,0,0,0,0,0,0,0,0,0,0,1,548,
scooby_state_401a0d|12|1 546,0,0,0,0,0,0,0,0,1,0,0,0,1,0,548,
scooby_state_401a5c|31|1 547,0,0,0,0,0,0,0,0,0,1,0,0,0,0,548,
scooby_state_401a0d|7|1 547,0,0,0,1,0,0,0,0,0,0,0,0,0,0,548,
scooby_state_401a0d|24|1 547,0,0,0,0,0,0,0,0,0,0,1,0,0,0,548,
scooby_state_401a0d|18|1 548,0,0,0,0,0,0,0,0,0,0,0,0,0,0,548,
scooby_state_401a0d|9|1 547,0,0,0,0,1,0,0,0,0,0,0,0,0,0,548,
scooby_state_401a5c|35|1 548,0,0,0,0,0,0,0,0,0,0,0,0,0,0,548,
scooby_state_401a5c|28|1 548,0,0,0,0,0,0,0,0,0,0,0,0,0,0,548,
scooby_state_401a1c|4|1 548,0,0,0,0,0,0,0,0,0,0,0,0,0,0,548,
scooby_state_401a5c|27|1 545,0,0,0,0,1,0,1,1,0,0,0,0,0,0,548,
scooby_state_401a5c|33|1 547,0,0,1,0,0,0,0,0,0,0,0,0,0,0,548,
scooby_state_401a1c|2|1 547,0,0,0,0,0,1,0,0,0,0,0,0,0,0,548,
scooby_state_401a5c|30|1 546,0,0,0,0,0,1,0,0,0,0,0,0,1,0,548,
scooby_state_401a5c|34|1 548,0,0,0,0,0,0,0,0,0,0,0,0,0,0,548,
scooby_state_401a0d|1|1 548,0,0,0,0,0,0,0,0,0,0,0,0,0,0,548,
scooby_state_401a5c|25|1 547,0,0,0,0,1,0,0,0,0,0,0,0,0,0,548,
scooby_state_401a5c|24|1 547,0,0,0,0,0,0,0,0,0,1,0,0,0,0,548,
scooby_state_401a1c|3|1 546,1,0,0,0,0,0,0,0,0,0,0,1,0,0,548,
scooby_state_401a0d|6|1 548,0,0,0,0,0,0,0,0,0,0,0,0,0,0,548,
scooby_state_401a1c|0|0 547,0,0,0,0,0,1,0,0,0,0,0,0,0,0,548,
scooby_state_401a5c|26|1 546,0,0,0,0,0,0,1,0,0,0,0,1,0,0,548,
scooby_state_401a1c|14|1 546,0,0,0,1,0,0,0,0,0,0,0,0,0,0,547,
scooby_state_401a5c|51|1 546,1,0,0,0,0,0,0,0,0,0,0,0,0,0,547,
scooby_state_401a5c|36|1 547,0,0,0,0,0,0,0,0,0,0,0,0,0,0,547,
scooby_state_401a5c|55|1 547,0,0,0,0,0,0,0,0,0,0,0,0,0,0,547,
scooby_state_401a5c|50|1 547,0,0,0,0,0,0,0,0,0,0,0,0,0,0,547,
scooby_state_401a0d|34|1 546,0,0,1,0,0,0,0,0,0,0,0,0,0,0,547,
scooby_state_401a1c|10|1 545,0,1,0,0,0,0,0,0,0,1,0,0,0,0,547,
scooby_state_401a5c|41|1 543,0,0,0,0,0,0,0,0,1,1,0,1,0,1,547,
scooby_state_401a0d|23|1 546,1,0,0,0,0,0,0,0,0,0,0,0,0,0,547,
scooby_state_401a1c|5|1 545,1,0,1,0,0,0,0,0,0,0,0,0,0,0,547,
scooby_state_401a1c|25|1 546,1,0,0,0,0,0,0,0,0,0,0,0,0,0,547,
scooby_state_401a0d|33|1 545,1,0,0,0,0,0,0,0,0,1,0,0,0,0,547,
scooby_state_401a1c|11|1 545,0,1,0,0,0,0,1,0,0,0,0,0,0,0,547,
scooby_state_401a1c|15|1 547,0,0,0,0,0,0,0,0,0,0,0,0,0,0,547,
scooby_state_401a0d|21|1 546,0,0,0,0,0,0,1,0,0,0,0,0,0,0,547,
scooby_state_401a5c|42|1 547,0,0,0,0,0,0,0,0,0,0,0,0,0,0,547,
scooby_state_401a1c|17|1 546,0,0,0,0,0,0,0,0,0,0,0,0,0,1,547,
scooby_state_401a5c|45|1 547,0,0,0,0,0,0,0,0,0,0,0,0,0,0,547,
scooby_state_401a1c|23|1 545,1,0,0,0,0,0,0,1,0,0,0,0,0,0,547,
scooby_state_401a0d|25|1 546,0,0,0,0,0,0,0,0,0,1,0,0,0,0,547,
scooby_state_401a1c|22|1 546,1,0,0,0,0,0,0,0,0,0,0,0,0,0,547,
scooby_state_401a1c|20|1 547,0,0,0,0,0,0,0,0,0,0,0,0,0,0,547,
scooby_state_401a1c|28|1 546,0,1,0,0,0,0,0,0,0,0,0,0,0,0,547,
scooby_state_401a1c|19|1 547,0,0,0,0,0,0,0,0,0,0,0,0,0,0,547,
scooby_state_401a5c|37|1 547,0,0,0,0,0,0,0,0,0,0,0,0,0,0,547,
scooby_state_401a1c|7|1 546,0,0,0,0,0,0,0,0,0,0,0,0,0,1,547,
scooby_state_401a1c|18|1 547,0,0,0,0,0,0,0,0,0,0,0,0,0,0,547,
scooby_state_401a1c|31|1 545,0,0,0,0,1,1,0,0,0,0,0,0,0,0,547,
scooby_state_401a5c|48|1 547,0,0,0,0,0,0,0,0,0,0,0,0,0,0,547,
scooby_state_401a1c|40|1 547,0,0,0,0,0,0,0,0,0,0,0,0,0,0,547,
scooby_state_401a1c|21|1 547,0,0,0,0,0,0,0,0,0,0,0,0,0,0,547,
scooby_state_401a0d|17|1 547,0,0,0,0,0,0,0,0,0,0,0,0,0,0,547,
scooby_state_401a1c|9|1 544,1,0,0,0,0,1,0,0,0,0,0,0,0,1,547,
scooby_state_401a1c|34|1 545,1,0,0,0,0,0,0,0,0,0,0,1,0,0,547,
scooby_state_401a5c|47|1 545,0,0,0,0,1,0,0,0,0,0,0,1,0,0,547,
scooby_state_401a5c|46|1 545,0,1,0,0,0,1,0,0,0,0,0,0,0,0,547,
scooby_state_401a5c|57|1 546,0,0,1,0,0,0,0,0,0,0,0,0,0,0,547,
scooby_state_401a0d|27|1 545,0,0,0,0,0,1,0,1,0,0,0,0,0,0,547,
scooby_state_401a0d|22|1 546,0,0,0,1,0,0,0,0,0,0,0,0,0,0,547,
scooby_state_401a5c|53|1 546,0,0,0,0,0,0,0,0,0,0,0,0,0,1,547,
scooby_state_401a5c|38|1 545,0,0,1,0,0,0,1,0,0,0,0,0,0,0,547,
scooby_state_401a5c|39|1 547,0,0,0,0,0,0,0,0,0,0,0,0,0,0,547,
scooby_state_401a5c|54|1 546,1,0,0,0,0,0,0,0,0,0,0,0,0,0,547,
scooby_state_401a1c|8|1 547,0,0,0,0,0,0,0,0,0,0,0,0,0,0,547,
scooby_state_401a5c|52|1 545,0,0,1,0,0,0,0,0,0,0,1,0,0,0,547,
scooby_state_401a1c|16|1 546,0,0,0,0,0,0,0,0,0,0,1,0,0,0,547,
scooby_state_401a1c|6|1 546,0,0,0,0,0,0,0,0,0,0,0,1,0,0,547,
scooby_state_401a1c|33|1 544,0,0,0,0,0,0,0,0,1,1,1,0,0,0,547,
scooby_state_401a1c|39|1 546,1,0,0,0,0,0,0,0,0,0,0,0,0,0,547,
scooby_state_401a1c|30|1 546,0,0,0,0,0,0,0,0,0,0,0,0,0,1,547,
scooby_state_401a5c|58|1 546,0,0,0,1,0,0,0,0,0,0,0,0,0,0,547,
scooby_state_401a1c|37|1 545,0,0,1,0,1,0,0,0,0,0,0,0,0,0,547,
scooby_state_401a1c|24|1 546,0,0,0,0,0,0,0,0,1,0,0,0,0,0,547,
scooby_state_401a5c|60|1 546,0,0,0,0,0,1,0,0,0,0,0,0,0,0,547,
scooby_state_401a1c|38|1 547,0,0,0,0,0,0,0,0,0,0,0,0,0,0,547,
scooby_state_401a1c|35|1 546,0,0,0,0,0,0,0,0,0,0,0,1,0,0,547,
scooby_state_401a0d|28|1 546,0,0,0,0,0,0,0,0,1,0,0,0,0,0,547,
scooby_state_401a5c|56|1 546,0,0,0,0,0,0,0,0,0,1,0,0,0,0,547,
scooby_state_401a1c|13|1 546,0,0,0,0,0,0,0,0,0,0,0,0,1,0,547,
scooby_state_401a5c|40|1 547,0,0,0,0,0,0,0,0,0,0,0,0,0,0,547,
scooby_state_401a1c|27|1 547,0,0,0,0,0,0,0,0,0,0,0,0,0,0,547,
scooby_state_401a0d|26|1 546,0,0,0,0,0,0,0,0,0,1,0,0,0,0,547,
scooby_state_401a5c|59|1 546,0,0,0,0,0,0,0,0,0,0,0,0,0,1,547,
scooby_state_401a0d|3|1 546,0,0,0,0,0,0,0,0,0,0,1,0,0,0,547,
scooby_state_401a1c|29|1 545,0,0,0,0,0,0,0,0,0,0,1,0,0,1,547,
scooby_state_401a1c|36|1 547,0,0,0,0,0,0,0,0,0,0,0,0,0,0,547,
scooby_state_401a1c|26|1 547,0,0,0,0,0,0,0,0,0,0,0,0,0,0,547,
scooby_state_401a5c|62|1 547,0,0,0,0,0,0,0,0,0,0,0,0,0,0,547,
scooby_state_401a1c|12|1 546,0,0,0,1,0,0,0,0,0,0,0,0,0,0,547,
scooby_state_401a1c|32|1 546,1,0,0,0,0,0,0,0,0,0,0,0,0,0,547,
scooby_state_401a5c|61|1 545,0,0,1,0,0,0,0,0,0,0,0,1,0,0,547,
scooby_state_401a5c|63|1 547,0,0,0,0,0,0,0,0,0,0,0,0,0,0,547,
scooby_state_401a5c|49|1 547,0,0,0,0,0,0,0,0,0,0,0,0,0,0,547,
scooby_state_401a0d|37|1 545,0,0,0,0,0,0,0,0,0,1,0,0,0,0,546,
scooby_state_401a0d|19|1 546,0,0,0,0,0,0,0,0,0,0,0,0,0,0,546,
scooby_state_401a0d|30|1 543,0,0,0,0,0,0,1,0,1,0,1,0,0,0,546,
scooby_state_401a0d|39|1 545,0,0,0,0,0,0,0,1,0,0,0,0,0,0,546,
scooby_state_401a0d|38|1 545,0,0,0,0,0,0,0,0,0,1,0,0,0,0,546,
scooby_state_401a0d|29|1 545,0,0,0,0,1,0,0,0,0,0,0,0,0,0,546,
scooby_state_401a0d|32|1 546,0,0,0,0,0,0,0,0,0,0,0,0,0,0,546,
scooby_state_401a5c|44|1 546,0,0,0,0,0,0,0,0,0,0,0,0,0,0,546,
scooby_state_401a0d|4|1 544,0,0,0,0,0,0,0,0,0,0,0,1,0,0,545,
scooby_state_401a0d|20|1 543,0,1,0,0,0,0,0,0,0,0,0,0,0,0,544,
scooby_state_401a0d|35|1 544,0,0,0,0,0,0,0,0,0,0,0,0,0,0,544,
scooby_state_401a0d|36|1 542,0,0,0,0,0,0,0,1,0,0,0,0,0,0,543,
scooby_state_401a0d|31|1 543,0,0,0,0,0,0,0,0,0,0,0,0,0,0,543,
scooby_state_401a0d|15|1 542,0,0,0,0,0,0,0,0,1,0,0,0,0,0,543,
scooby_state_401a1c|59|1 541,0,0,0,0,0,0,0,0,0,0,0,0,0,0,541,
scooby_state_401a1c|58|1 540,0,0,0,0,0,0,0,0,0,0,0,0,1,0,541,
scooby_state_401a1c|60|1 540,0,0,0,0,0,0,0,0,0,0,0,0,0,0,540,
scooby_state_401a5c|16|1 539,0,0,0,0,0,0,0,1,0,0,0,0,0,0,540,
scooby_state_401a5c|17|1 539,0,0,0,0,0,0,0,0,0,0,1,0,0,0,540,
scooby_state_401a5c|1|1 540,0,0,0,0,0,0,0,0,0,0,0,0,0,0,540,
scooby_state_401a5c|2|1 540,0,0,0,0,0,0,0,0,0,0,0,0,0,0,540,
scooby_state_401a5c|18|1 539,0,0,0,0,0,0,0,0,0,0,0,0,0,1,540,
scooby_state_401a5c|15|1 539,0,0,1,0,0,0,0,0,0,0,0,0,0,0,540,
scooby_state_401a1c|41|1 538,0,0,0,1,0,0,0,0,0,0,1,0,0,0,540,
scooby_state_401a1c|56|1 539,0,0,0,0,0,0,0,0,0,0,1,0,0,0,540,
scooby_state_401a1c|57|1 539,0,0,0,0,0,0,0,0,1,0,0,0,0,0,540,
scooby_state_401a1c|61|1 539,0,0,0,1,0,0,0,0,0,0,0,0,0,0,540,
scooby_state_401a1c|55|1 536,1,0,0,0,0,0,1,1,0,0,0,0,0,0,539,
scooby_state_401a1c|63|1 538,0,0,0,0,0,0,0,0,0,0,0,0,0,1,539,
scooby_state_401a1c|62|1 539,0,0,0,0,0,0,0,0,0,0,0,0,0,0,539,
scooby_state_401a5c|3|1 539,0,0,0,0,0,0,0,0,0,0,0,0,0,0,539,
scooby_state_401a5c|14|1 539,0,0,0,0,0,0,0,0,0,0,0,0,0,0,539,
scooby_state_401a5c|4|1 539,0,0,0,0,0,0,0,0,0,0,0,0,0,0,539,
scooby_state_401a5c|19|1 538,0,0,0,0,0,0,0,0,0,0,1,0,0,0,539,
scooby_state_401a5c|5|1 539,0,0,0,0,0,0,0,0,0,0,0,0,0,0,539,
scooby_state_401a1c|53|1 538,1,0,0,0,0,0,0,0,0,0,0,0,0,0,539,
scooby_state_401a5c|13|1 535,0,0,0,0,0,0,2,0,1,0,0,1,0,0,539,
scooby_state_401821|43|1 537,0,0,0,0,0,1,0,0,0,1,0,0,0,0,539,
scooby_state_401a1c|42|1 537,0,0,1,0,0,1,0,0,0,0,0,0,0,0,539,
scooby_state_401a5c|20|1 537,0,0,0,0,0,0,0,0,0,0,1,1,0,0,539,
scooby_state_401a1c|54|1 536,0,1,0,1,0,0,0,0,0,0,0,0,0,1,539,
scooby_state_401a5c|21|1 539,0,0,0,0,0,0,0,0,0,0,0,0,0,0,539,
scooby_state_401a1c|43|1 534,0,0,0,1,0,0,0,0,0,0,2,0,0,1,538,
scooby_state_401a1c|52|1 536,0,1,0,0,0,0,0,0,0,1,0,0,0,0,538,
scooby_state_401a5c|22|1 538,0,0,0,0,0,0,0,0,0,0,0,0,0,0,538,
scooby_state_401a1c|51|1 538,0,0,0,0,0,0,0,0,0,0,0,0,0,0,538,
scooby_state_401a5c|6|1 534,0,1,0,0,0,0,1,1,1,0,0,0,0,0,538,
scooby_state_401a1c|44|1 538,0,0,0,0,0,0,0,0,0,0,0,0,0,0,538,
scooby_state_401a5c|11|1 537,1,0,0,0,0,0,0,0,0,0,0,0,0,0,538,
scooby_state_401a5c|7|1 537,0,0,0,0,0,0,0,0,0,0,0,0,1,0,538,
scooby_state_401a5c|23|1 538,0,0,0,0,0,0,0,0,0,0,0,0,0,0,538,
scooby_state_401a5c|12|1 537,0,0,0,0,0,0,0,0,0,0,0,1,0,0,538,
scooby_state_401a1c|45|1 538,0,0,0,0,0,0,0,0,0,0,0,0,0,0,538,
scooby_state_401a1c|47|1 537,0,0,0,0,0,0,0,0,0,0,0,0,0,0,537,
scooby_state_401a1c|46|1 535,0,0,0,1,0,0,0,0,0,1,0,0,0,0,537,
scooby_state_401a1c|50|1 537,0,0,0,0,0,0,0,0,0,0,0,0,0,0,537,
scooby_state_401a5c|8|1 537,0,0,0,0,0,0,0,0,0,0,0,0,0,0,537,
scooby_state_401a43|50|1 537,0,0,0,0,0,0,0,0,0,0,0,0,0,0,537,
scooby_state_401a5c|10|1 535,0,0,0,0,0,0,0,0,0,0,1,0,0,1,537,
scooby_state_401a5c|9|1 537,0,0,0,0,0,0,0,0,0,0,0,0,0,0,537,
scooby_state_401a43|62|1 536,0,0,0,0,0,0,0,0,0,0,0,0,0,0,536,
scooby_state_401a1c|49|1 535,0,1,0,0,0,0,0,0,0,0,0,0,0,0,536,
scooby_state_401a1c|48|1 535,0,1,0,0,0,0,0,0,0,0,0,0,0,0,536,
scooby_state_401a43|31|1 535,0,0,0,0,0,0,0,0,0,0,1,0,0,0,536,
scooby_state_401a43|61|1 535,0,0,0,0,0,0,0,0,0,0,0,0,0,0,535,
scooby_state_401a43|28|1 534,0,1,0,0,0,0,0,0,0,0,0,0,0,0,535,
scooby_state_401a43|24|1 531,0,0,0,1,0,0,1,0,0,0,0,0,0,2,535,
scooby_state_401a43|59|1 534,1,0,0,0,0,0,0,0,0,0,0,0,0,0,535,
scooby_state_401a43|58|1 534,0,0,0,0,1,0,0,0,0,0,0,0,0,0,535,
scooby_state_401a43|54|1 531,0,0,0,1,0,0,0,1,1,0,0,0,0,0,534,
scooby_state_401a43|60|1 532,1,0,0,1,0,0,0,0,0,0,0,0,0,0,534,
scooby_state_401a43|57|1 533,0,0,0,0,0,0,0,0,0,0,0,0,1,0,534,
scooby_state_401a43|43|1 533,0,0,0,0,0,1,0,0,0,0,0,0,0,0,534,
scooby_state_401a43|35|1 532,0,0,0,0,0,1,0,0,0,0,0,0,0,0,533,
scooby_state_401a43|38|1 532,1,0,0,0,0,0,0,0,0,0,0,0,0,0,533,
scooby_state_401a43|39|1 533,0,0,0,0,0,0,0,0,0,0,0,0,0,0,533,
scooby_state_401a43|63|1 532,0,0,0,0,0,0,0,0,0,1,0,0,0,0,533,
scooby_state_401a43|27|1 532,0,0,0,0,0,0,0,0,0,1,0,0,0,0,533,
scooby_state_401a43|32|1 532,0,0,0,0,0,0,0,0,0,0,0,0,0,0,532,
scooby_state_401a43|46|1 531,0,0,0,0,0,0,0,0,1,0,0,0,0,0,532,
scooby_state_401a43|42|1 530,1,0,1,0,0,0,0,0,0,0,0,0,0,0,532,
scooby_state_401a43|47|1 531,0,0,0,1,0,0,0,0,0,0,0,0,0,0,532,
scooby_state_401a43|33|1 531,0,1,0,0,0,0,0,0,0,0,0,0,0,0,532,
scooby_state_401a43|26|1 530,1,0,0,0,0,1,0,0,0,0,0,0,0,0,532,
scooby_state_401a43|30|1 529,0,0,0,0,0,0,0,0,1,1,0,0,0,1,532,
scooby_state_401a43|53|1 531,0,1,0,0,0,0,0,0,0,0,0,0,0,0,532,
scooby_state_401a43|34|1 530,1,0,0,0,0,0,0,0,0,0,0,0,0,0,531,
scooby_state_401a43|45|1 530,0,0,0,0,0,0,0,0,0,0,0,0,1,0,531,
scooby_state_401a43|49|1 531,0,0,0,0,0,0,0,0,0,0,0,0,0,0,531,
scooby_state_401a43|51|1 530,0,0,0,0,0,0,0,1,0,0,0,0,0,0,531,
scooby_state_401a43|25|1 531,0,0,0,0,0,0,0,0,0,0,0,0,0,0,531,
scooby_state_401a43|55|1 531,0,0,0,0,0,0,0,0,0,0,0,0,0,0,531,
scooby_state_401a43|37|1 528,0,0,0,0,0,0,0,0,0,1,0,0,0,1,530,
scooby_state_401a43|44|1 530,0,0,0,0,0,0,0,0,0,0,0,0,0,0,530,
scooby_state_401a43|56|1 529,0,0,1,0,0,0,0,0,0,0,0,0,0,0,530,
scooby_state_401a43|36|1 530,0,0,0,0,0,0,0,0,0,0,0,0,0,0,530,
scooby_state_401a43|40|1 527,0,0,0,0,1,0,0,1,1,0,0,0,0,0,530,
scooby_state_401a43|48|1 530,0,0,0,0,0,0,0,0,0,0,0,0,0,0,530,
scooby_state_401a43|29|1 530,0,0,0,0,0,0,0,0,0,0,0,0,0,0,530,
scooby_state_401a43|41|1 530,0,0,0,0,0,0,0,0,0,0,0,0,0,0,530,
scooby_state_401a5c|0|0 528,0,0,0,0,0,0,0,0,0,0,0,0,0,1,529,
scooby_state_401a43|52|1 528,0,0,1,0,0,0,0,0,0,0,0,0,0,0,529,
scooby_state_401a0d|61|40 526,1,0,0,0,0,0,0,0,0,0,0,0,0,0,527,
scooby_state_401a0d|58|40 524,0,0,1,1,0,0,0,0,0,0,0,0,0,0,526,
scooby_state_401a0d|41|40 525,0,0,0,0,0,0,0,0,0,0,0,0,0,0,525,
scooby_state_401a0d|45|40 524,0,0,0,0,0,1,0,0,0,0,0,0,0,0,525,
scooby_state_401a0d|40|40 523,1,0,0,0,0,0,0,0,0,0,0,0,0,0,524,
scooby_state_4019fd|0|-39 524,0,0,0,0,0,0,0,0,0,0,0,0,0,0,524,
scooby_state_401a0d|55|40 523,0,0,0,1,0,0,0,0,0,0,0,0,0,0,524,
scooby_state_401a0d|56|40 521,0,1,0,0,1,0,0,0,0,0,0,0,0,0,523,
scooby_state_401a0d|53|40 523,0,0,0,0,0,0,0,0,0,0,0,0,0,0,523,
scooby_state_4019fd|41|1 523,0,0,0,0,0,0,0,0,0,0,0,0,0,0,523,
scooby_state_401a0d|59|40 523,0,0,0,0,0,0,0,0,0,0,0,0,0,0,523,
scooby_state_401a0d|54|40 522,0,0,0,0,0,0,0,0,0,0,0,0,0,0,522,
scooby_state_401a0d|57|40 521,0,0,0,0,0,0,0,0,0,0,0,0,0,0,521,
scooby_state_401a0d|47|40 521,0,0,0,0,0,0,0,0,0,0,0,0,0,0,521,
scooby_state_401a0d|52|40 520,0,1,0,0,0,0,0,0,0,0,0,0,0,0,521,
scooby_state_401a0d|43|40 518,0,0,0,0,1,0,0,1,0,0,0,0,0,0,520,
scooby_state_401a0d|50|40 516,0,1,0,0,0,0,0,0,0,0,1,0,0,1,519,
scooby_state_401a0d|46|40 519,0,0,0,0,0,0,0,0,0,0,0,0,0,0,519,
scooby_state_401a0d|51|40 519,0,0,0,0,0,0,0,0,0,0,0,0,0,0,519,
scooby_state_401a0d|44|40 519,0,0,0,0,0,0,0,0,0,0,0,0,0,0,519,
scooby_state_401a0d|42|40 517,0,0,0,0,1,0,0,0,0,0,0,1,0,0,519,
scooby_state_401a0d|62|40 518,0,0,0,0,0,0,0,0,0,0,0,0,0,0,518,
scooby_state_40195b|46|1 517,0,0,1,0,0,0,0,0,0,0,0,0,0,0,518,
scooby_state_401a0d|63|40 518,0,0,0,0,0,0,0,0,0,0,0,0,0,0,518,
scooby_state_401a0d|49|40 518,0,0,0,0,0,0,0,0,0,0,0,0,0,0,518,
scooby_state_401a0d|60|40 515,1,1,0,0,0,0,0,0,0,0,0,0,0,0,517,
scooby_state_4019fd|24|-39 515,1,0,0,0,0,0,0,0,0,0,0,0,0,0,516,
scooby_state_401a0d|48|40 515,0,0,0,0,0,0,1,0,0,0,0,0,0,0,516,
scooby_state_401a43|11|-41 514,0,0,0,0,0,0,0,0,0,0,0,0,0,0,514,
scooby_state_4019fd|1|-39 509,0,0,0,0,0,0,0,1,0,0,0,0,0,0,510,
scooby_state_4019fd|19|-39 508,0,0,1,0,0,0,0,0,0,0,0,0,0,0,509,
scooby_state_401a43|1|-41 505,0,0,0,0,0,1,0,0,0,0,1,0,0,0,507,
scooby_state_4019fd|15|-39 502,0,0,1,0,1,1,0,0,1,0,0,0,1,0,507,
scooby_state_4019fd|18|-39 506,0,0,0,0,1,0,0,0,0,0,0,0,0,0,507,
scooby_state_4019fd|14|-39 506,0,0,0,0,0,0,0,0,0,0,0,0,0,0,506,
scooby_state_401a43|18|-41 506,0,0,0,0,0,0,0,0,0,0,0,0,0,0,506,
scooby_state_4019fd|16|-39 506,0,0,0,0,0,0,0,0,0,0,0,0,0,0,506,
scooby_state_4019fd|13|-39 504,0,0,0,0,0,0,0,1,0,0,0,0,0,0,505,
scooby_state_4019fd|2|-39 503,0,0,0,0,0,0,0,0,0,0,1,0,0,0,504,
scooby_state_401a43|13|-41 500,0,0,1,1,0,1,0,0,0,0,0,1,0,0,504,
scooby_state_4019fd|7|-39 503,0,0,0,0,0,0,0,0,0,0,0,0,0,0,503,
scooby_state_4019fd|17|-39 501,0,1,0,0,0,0,0,0,1,0,0,0,0,0,503,
scooby_state_401a43|2|-41 502,0,0,0,0,0,0,0,0,0,0,0,0,0,0,502,
scooby_state_4019fd|22|-39 502,0,0,0,0,0,0,0,0,0,0,0,0,0,0,502,
scooby_state_401a43|8|-41 500,0,0,0,0,0,0,0,0,0,0,1,0,0,0,501,
scooby_state_4019fd|6|-39 501,0,0,0,0,0,0,0,0,0,0,0,0,0,0,501,
scooby_state_401a43|5|-41 500,0,0,0,0,0,1,0,0,0,0,0,0,0,0,501,
scooby_state_4019fd|20|-39 501,0,0,0,0,0,0,0,0,0,0,0,0,0,0,501,
scooby_state_401a43|20|-41 501,0,0,0,0,0,0,0,0,0,0,0,0,0,0,501,
scooby_state_401a43|17|-41 501,0,0,0,0,0,0,0,0,0,0,0,0,0,0,501,
scooby_state_401a43|3|-41 499,1,0,0,0,1,0,0,0,0,0,0,0,0,0,501,
scooby_state_4019fd|5|-39 499,0,0,0,0,1,0,0,0,0,0,0,0,0,0,500,
scooby_state_401a43|10|-41 498,1,0,0,0,0,0,0,0,0,0,0,0,1,0,500,
scooby_state_4019fd|21|-39 499,0,1,0,0,0,0,0,0,0,0,0,0,0,0,500,
scooby_state_4019fd|4|-39 498,0,0,0,0,1,0,0,0,0,1,0,0,0,0,500,
scooby_state_401a43|16|-41 499,0,0,0,0,0,0,0,0,0,0,0,0,0,0,499,
scooby_state_4019fd|12|-39 497,0,0,0,1,1,0,0,0,0,0,0,0,0,0,499,
scooby_state_401a43|22|-41 498,0,0,0,0,0,0,0,0,0,0,0,1,0,0,499,
scooby_state_4019fd|8|-39 498,0,0,0,0,0,1,0,0,0,0,0,0,0,0,499,
scooby_state_4019fd|3|-39 498,0,0,0,0,0,0,0,0,0,0,0,1,0,0,499,
scooby_state_401a43|4|-41 498,0,0,0,0,0,0,0,0,0,0,1,0,0,0,499,
scooby_state_4019fd|9|-39 498,0,0,0,0,0,0,0,0,0,0,0,0,0,0,498,
scooby_state_4019fd|10|-39 498,0,0,0,0,0,0,0,0,0,0,0,0,0,0,498,
scooby_state_4019fd|23|-39 498,0,0,0,0,0,0,0,0,0,0,0,0,0,0,498,
scooby_state_401a43|0|-41 498,0,0,0,0,0,0,0,0,0,0,0,0,0,0,498,
scooby_state_401a43|9|-41 498,0,0,0,0,0,0,0,0,0,0,0,0,0,0,498,
scooby_state_401a43|12|-41 497,0,0,0,0,0,0,0,0,0,0,0,0,0,0,497,
scooby_state_401a43|15|-41 497,0,0,0,0,0,0,0,0,0,0,0,0,0,0,497,
scooby_state_401a43|6|-41 496,0,0,0,1,0,0,0,0,0,0,0,0,0,0,497,
scooby_state_4019fd|11|-39 493,0,1,0,0,0,1,0,0,0,0,0,0,0,0,495,
scooby_state_401a43|19|-41 495,0,0,0,0,0,0,0,0,0,0,0,0,0,0,495,
scooby_state_4019f7|40|0 491,0,0,0,1,0,0,0,0,0,0,0,0,0,0,492,
scooby_state_401a43|21|-41 488,0,0,1,0,0,0,0,0,1,0,0,0,0,2,492,
scooby_state_401a43|14|-41 488,0,0,0,0,0,0,0,0,0,0,0,0,0,0,488,
scooby_state_401a43|23|1 488,0,0,0,0,0,0,0,0,0,0,0,0,0,0,488,
scooby_state_4019fd|52|42 481,0,0,1,0,0,0,0,0,0,0,0,0,0,0,482,
scooby_state_4019fd|53|42 476,0,0,0,0,0,0,0,0,0,0,0,0,0,0,476,
scooby_state_4019fd|59|42 470,0,0,0,0,0,0,0,0,0,0,0,0,0,0,470,
scooby_state_4019fd|43|42 467,0,0,0,0,0,0,0,0,0,0,0,0,1,0,468,
scooby_state_4019fd|42|42 466,0,0,0,0,0,0,0,0,0,0,0,0,0,0,466,
scooby_state_4019fd|44|42 463,1,0,0,1,0,0,0,0,0,0,0,0,0,1,466,
scooby_state_4019fd|51|42 464,0,0,0,0,0,0,0,0,1,0,0,0,0,0,465,
scooby_state_4019fd|54|42 463,0,0,0,0,0,0,0,0,0,0,1,0,1,0,465,
scooby_state_4019fd|58|42 464,0,0,0,0,0,0,0,0,0,0,0,0,0,0,464,
scooby_state_4019fd|45|42 463,0,0,0,0,0,0,0,0,0,0,0,0,0,0,463,
scooby_state_4019fd|47|42 461,0,0,0,0,0,0,0,0,0,0,0,1,0,0,462,
scooby_state_4019fd|50|42 460,0,0,0,0,0,0,0,0,0,0,0,0,0,1,461,
scooby_state_4019fd|60|42 458,0,0,0,2,0,1,0,0,0,0,0,0,0,0,461,
scooby_state_4019fd|46|42 458,1,0,0,0,0,1,0,0,0,0,0,0,0,0,460,
scooby_state_4019fd|63|42 459,0,1,0,0,0,0,0,0,0,0,0,0,0,0,460,
scooby_state_4019fd|62|42 458,0,0,0,0,0,1,0,0,0,0,0,0,0,0,459,
scooby_state_4019fd|61|42 457,0,0,0,0,0,0,0,0,0,1,0,0,0,0,458,
scooby_state_4019fd|55|42 457,0,0,0,0,0,0,0,0,0,0,0,0,0,0,457,
scooby_state_4019fd|57|42 455,0,0,0,0,1,0,0,0,1,0,0,0,0,0,457,
scooby_state_4019fd|56|42 450,0,0,0,0,0,0,0,0,0,0,1,0,0,0,451,
scooby_state_4019fd|48|42 449,1,0,0,0,0,0,0,0,0,0,0,0,0,0,450,
scooby_state_4019f7|46|0 408,0,2,1,0,0,0,0,0,0,0,0,0,0,0,411,
scooby_state_401ad7|44|3 410,0,0,0,0,0,0,0,0,0,0,1,0,0,0,411,
scooby_state_401aa1|42|-4 381,1,0,2,0,0,0,0,0,0,0,0,0,0,0,384,
scooby_state_401a43|7|-41 381,0,0,0,0,0,0,0,0,1,0,0,0,0,1,383,
scooby_state_401a54|46|0 365,1,0,0,0,0,0,1,0,0,0,0,0,0,0,367,
scooby_state_4019fd|49|3 332,0,0,0,0,0,0,0,0,0,0,0,0,0,0,332,
scooby_state_401a2c|46|39 318,0,0,0,0,0,0,0,0,0,0,0,0,0,0,318,
scooby_state_401a2c|46|0 315,0,0,0,0,0,0,0,0,0,0,0,0,0,0,315,
scooby_state_401a26|46|0 255,1,0,0,0,0,0,0,0,0,0,0,0,0,0,256,
scooby_state_401950|41|0 256,0,0,0,0,0,0,0,0,0,0,0,0,0,0,256,
scooby_state_401a54|40|0 234,0,0,0,0,0,0,0,0,0,0,0,0,0,0,234,
scooby_state_4019e0|48|2 226,0,0,0,0,0,0,0,0,0,0,0,0,0,0,226,
scooby_state_4019e0|46|-1 224,0,0,0,0,1,0,0,0,0,0,0,0,0,0,225,
scooby_state_4019e0|49|3 224,0,0,0,0,0,0,0,0,0,0,0,0,0,0,224,
scooby_state_4019e0|46|-2 221,0,0,0,0,0,0,0,0,0,1,0,0,0,0,222,
scooby_state_401a3d|46|0 219,1,0,0,0,0,0,0,0,0,0,0,0,0,0,220,
scooby_state_4019e0|43|0 217,0,0,0,0,0,0,0,0,0,0,0,0,0,0,217,
scooby_state_401821|43|0 214,0,0,0,0,0,0,0,0,0,0,0,0,0,0,214,
scooby_state_401ad7|44|1 213,0,0,0,0,0,0,0,0,0,0,0,0,0,0,213,
scooby_state_401a3d|40|0 209,0,0,0,0,0,1,0,0,0,0,0,0,0,0,210,
scooby_state_401a07|46|0 206,0,0,0,0,0,0,0,0,0,0,0,0,0,0,206,
scooby_state_401a07|40|0 203,0,0,0,1,0,0,0,0,0,0,0,0,0,0,204,
scooby_state_401a5c|43|0 196,0,0,0,0,0,0,0,0,0,1,0,0,0,0,197,
scooby_state_401a16|40|0 191,0,0,0,0,0,0,0,0,0,0,0,0,0,0,191,
scooby_state_4019e0|40|-1 189,0,0,0,0,0,0,0,0,0,0,0,0,0,0,189,
scooby_state_4019f7|49|3 189,0,0,0,0,0,0,0,0,0,0,0,0,0,0,189,
scooby_state_4019f7|46|-2 188,0,0,0,0,0,0,0,0,0,0,0,0,0,0,188,
scooby_state_401a54|49|3 186,0,0,0,0,0,0,0,0,0,0,0,0,0,0,186,
scooby_state_401a97|41|0 185,0,0,0,0,1,0,0,0,0,0,0,0,0,0,186,
scooby_state_401a54|46|-2 183,0,0,0,0,0,0,0,0,1,0,0,0,1,0,185,
scooby_state_4019f7|48|2 179,0,0,0,0,0,0,0,0,0,0,0,0,1,0,180,
scooby_state_4019f7|46|-1 180,0,0,0,0,0,0,0,0,0,0,0,0,0,0,180,
scooby_state_401ad7|44|-2 176,0,0,0,0,0,1,0,0,0,0,0,0,0,0,177,
scooby_state_401a16|46|0 177,0,0,0,0,0,0,0,0,0,0,0,0,0,0,177,
scooby_state_401a26|40|0 171,0,0,0,0,0,0,0,0,0,0,0,1,0,0,172,
scooby_state_401a26|46|-2 169,0,0,0,0,0,0,0,0,0,0,0,0,0,0,169,
scooby_state_401a26|49|3 169,0,0,0,0,0,0,0,0,0,0,0,0,0,0,169,
scooby_state_4019e0|41|-2 166,0,0,0,0,0,0,0,0,0,0,0,0,0,0,166,
scooby_state_4019e0|44|3 166,0,0,0,0,0,0,0,0,0,0,0,0,0,0,166,
scooby_state_4019fd|49|42 163,0,0,0,0,0,0,0,0,0,1,0,0,0,0,164,
scooby_state_401aa1|42|-3 163,0,0,0,0,0,0,0,0,0,0,0,0,0,0,163,
scooby_state_4019e0|42|2 161,0,0,0,0,0,0,0,0,0,0,0,0,0,0,161,
scooby_state_401a54|41|0 159,0,0,0,0,0,0,0,0,0,0,0,0,0,0,159,
scooby_state_401a54|48|2 149,0,0,0,0,0,0,0,0,0,0,0,0,0,0,149,
scooby_state_401a54|46|-1 146,1,0,0,0,0,0,0,0,0,0,0,0,0,0,147,
scooby_state_401a2c|46|-2 146,0,0,0,0,0,0,0,0,0,0,0,0,0,0,146,
scooby_state_4019e0|43|2 141,0,0,0,0,0,0,0,0,0,0,0,0,0,0,141,
scooby_state_401a26|48|2 139,0,0,0,0,0,0,0,0,0,0,0,0,0,0,139,
scooby_state_401a54|41|-2 138,0,0,0,0,1,0,0,0,0,0,0,0,0,0,139,
scooby_state_401a54|44|3 139,0,0,0,0,0,0,0,0,0,0,0,0,0,0,139,
scooby_state_401a26|46|-1 137,0,0,0,0,0,0,0,0,0,0,0,0,0,0,137,
scooby_state_401950|41|-2 127,0,0,0,0,0,0,0,0,0,0,0,0,0,0,127,
scooby_state_401a74|40|0 124,0,0,0,0,0,1,0,0,0,0,0,0,0,0,125,
scooby_state_401a74|40|-3 125,0,0,0,0,0,0,0,0,0,0,0,0,0,0,125,
scooby_state_401a26|41|-3 116,0,0,0,0,0,0,0,0,0,0,0,0,0,0,116,
scooby_state_401a26|45|4 116,0,0,0,0,0,0,0,0,0,0,0,0,0,0,116,
scooby_state_401a54|40|-1 116,0,0,0,0,0,0,0,0,0,0,0,0,0,0,116,
scooby_state_401950|41|1 114,0,1,0,0,0,0,0,0,0,0,0,0,0,0,115,
scooby_state_4019f7|40|-1 113,0,0,0,0,0,0,0,0,0,0,0,0,0,0,113,
scooby_state_4019e0|42|0 110,0,0,0,0,0,0,0,0,0,1,0,0,0,0,111,
scooby_state_401a43|7|-39 107,0,0,0,0,0,0,0,0,0,0,0,0,0,0,107,
scooby_state_4019e0|40|-2 103,0,1,0,0,0,0,0,0,0,0,0,1,0,0,105,
scooby_state_4019e0|41|0 105,0,0,0,0,0,0,0,0,0,0,0,0,0,0,105,
scooby_state_401a5c|42|0 103,1,0,0,0,0,0,0,0,0,0,0,0,0,0,104,
scooby_state_401a3d|49|3 104,0,0,0,0,0,0,0,0,0,0,0,0,0,0,104,
scooby_state_401a3d|46|-2 103,0,0,0,0,0,0,0,0,0,0,0,0,0,0,103,
scooby_state_401a26|44|3 98,0,0,0,0,0,0,0,0,0,0,0,0,0,0,98,
scooby_state_401a54|42|2 97,1,0,0,0,0,0,0,0,0,0,0,0,0,0,98,
scooby_state_401a26|41|-2 98,0,0,0,0,0,0,0,0,0,0,0,0,0,0,98,
scooby_state_401a54|45|4 93,0,0,0,0,0,1,0,0,0,0,0,0,0,0,94,
scooby_state_401a54|41|-3 94,0,0,0,0,0,0,0,0,0,0,0,0,0,0,94,
scooby_state_4019f7|42|2 93,0,0,0,0,0,0,0,0,0,0,0,0,0,0,93,
scooby_state_401a07|49|3 85,0,0,0,0,0,0,0,0,0,0,0,0,0,0,85,
scooby_state_401a07|46|-2 85,0,0,0,0,0,0,0,0,0,0,0,0,0,0,85,
scooby_state_401a3d|41|0 82,0,0,0,0,0,0,0,0,0,0,0,0,0,0,82,
scooby_state_4019f7|44|3 80,0,0,0,0,0,0,0,0,0,0,0,0,0,0,80,
scooby_state_4019f7|41|-2 80,0,0,0,0,0,0,0,0,0,0,0,0,0,0,80,
scooby_state_401a3d|48|2 78,0,0,0,0,0,0,0,0,0,0,0,0,0,0,78,
scooby_state_401a3d|46|-1 78,0,0,0,0,0,0,0,0,0,0,0,0,0,0,78,
scooby_state_4019e0|41|-1 74,0,0,0,0,0,0,0,0,0,0,0,0,0,0,74,
scooby_state_401a16|49|3 74,0,0,0,0,0,0,0,0,0,0,0,0,0,0,74,
scooby_state_401a16|48|2 73,0,0,0,0,0,0,0,0,0,0,0,0,0,0,73,
scooby_state_4019f7|41|0 73,0,0,0,0,0,0,0,0,0,0,0,0,0,0,73,
scooby_state_401a16|46|-2 73,0,0,0,0,0,0,0,0,0,0,0,0,0,0,73,
scooby_state_401a3d|40|-1 72,0,0,0,0,0,0,0,0,0,0,0,0,0,0,72,
scooby_state_401a16|46|-1 72,0,0,0,0,0,0,0,0,0,0,0,0,0,0,72,
scooby_state_401a54|40|-2 72,0,0,0,0,0,0,0,0,0,0,0,0,0,0,72,
scooby_state_401a97|41|-2 71,0,0,0,0,0,0,0,0,0,0,0,0,0,0,71,
scooby_state_4019fd|56|1 69,0,0,0,0,0,0,0,0,0,0,1,0,0,0,70,
scooby_state_401a54|43|2 68,0,0,0,0,0,0,0,0,1,0,0,0,0,0,69,
scooby_state_401a16|41|0 67,0,0,0,0,0,0,0,0,0,0,0,0,0,0,67,
scooby_state_401a07|48|2 67,0,0,0,0,0,0,0,0,0,0,0,0,0,0,67,
scooby_state_401a26|40|-1 67,0,0,0,0,0,0,0,0,0,0,0,0,0,0,67,
scooby_state_4019fd|63|1 67,0,0,0,0,0,0,0,0,0,0,0,0,0,0,67,
scooby_state_401a07|46|-1 66,0,0,0,0,0,0,0,0,0,0,0,0,0,0,66,
scooby_state_4019fd|61|1 65,0,0,0,0,0,0,0,0,0,0,0,0,0,0,65,
scooby_state_4019fd|46|1 63,0,0,0,0,0,0,0,0,0,0,0,0,0,0,63,
scooby_state_401a26|41|0 63,0,0,0,0,0,0,0,0,0,0,0,0,0,0,63,
scooby_state_4019fd|57|1 63,0,0,0,0,0,0,0,0,0,0,0,0,0,0,63,
scooby_state_4019fd|51|1 62,0,0,0,0,0,0,0,0,0,0,0,0,0,0,62,
scooby_state_4019fd|42|1 62,0,0,0,0,0,0,0,0,0,0,0,0,0,0,62,
scooby_state_4019fd|44|1 61,0,0,0,0,0,0,0,0,0,0,0,0,0,0,61,
scooby_state_4019fd|48|1 61,0,0,0,0,0,0,0,0,0,0,0,0,0,0,61,
scooby_state_4019fd|47|1 60,0,0,0,0,0,0,0,0,0,0,0,0,0,0,60,
scooby_state_4019fd|58|1 60,0,0,0,0,0,0,0,0,0,0,0,0,0,0,60,
scooby_state_401a07|41|0 60,0,0,0,0,0,0,0,0,0,0,0,0,0,0,60,
scooby_state_4019fd|52|1 60,0,0,0,0,0,0,0,0,0,0,0,0,0,0,60,
scooby_state_4019fd|50|1 59,0,0,0,0,0,0,0,0,0,0,0,0,0,0,59,
scooby_state_4019fd|54|1 59,0,0,0,0,0,0,0,0,0,0,0,0,0,0,59,
scooby_state_4019fd|45|1 59,0,0,0,0,0,0,0,0,0,0,0,0,0,0,59,
scooby_state_401a3d|41|-2 57,0,0,0,0,0,0,0,0,0,0,0,0,0,0,57,
scooby_state_4019fd|55|1 57,0,0,0,0,0,0,0,0,0,0,0,0,0,0,57,
scooby_state_401a3d|44|3 57,0,0,0,0,0,0,0,0,0,0,0,0,0,0,57,
scooby_state_4019fd|60|1 57,0,0,0,0,0,0,0,0,0,0,0,0,0,0,57,
scooby_state_4019e0|45|4 56,0,0,0,0,0,0,0,0,0,0,0,0,0,0,56,
scooby_state_4019fd|62|1 56,0,0,0,0,0,0,0,0,0,0,0,0,0,0,56,
scooby_state_401a74|40|-5 55,0,0,0,0,0,0,1,0,0,0,0,0,0,0,56,
scooby_state_4019e0|41|-3 56,0,0,0,0,0,0,0,0,0,0,0,0,0,0,56,
scooby_state_401a07|40|-1 55,0,0,0,0,0,0,0,0,0,0,0,0,0,0,55,
scooby_state_4019fd|59|1 55,0,0,0,0,0,0,0,0,0,0,0,0,0,0,55,
scooby_state_401a26|42|2 52,0,0,0,0,0,0,0,0,0,0,0,0,0,0,52,
scooby_state_4019fd|43|1 52,0,0,0,0,0,0,0,0,0,0,0,0,0,0,52,
scooby_state_401a3d|42|2 52,0,0,0,0,0,0,0,0,0,0,0,0,0,0,52,
scooby_state_401a16|44|3 50,0,0,0,0,0,0,0,0,0,0,0,0,0,0,50,
scooby_state_401a16|41|-2 50,0,0,0,0,0,0,0,0,0,0,0,0,0,0,50,
scooby_state_401a07|41|-2 49,0,0,0,0,0,0,0,0,0,0,0,0,0,0,49,
scooby_state_401a54|43|0 49,0,0,0,0,0,0,0,0,0,0,0,0,0,0,49,
scooby_state_401a07|44|3 49,0,0,0,0,0,0,0,0,0,0,0,0,0,0,49,
scooby_state_4019fd|55|41 47,0,0,0,0,0,0,0,0,0,0,0,0,0,0,47,
scooby_state_401950|41|-4 46,0,0,0,0,0,0,0,0,0,0,0,0,0,0,46,
scooby_state_401a16|43|0 46,0,0,0,0,0,0,0,0,0,0,0,0,0,0,46,
scooby_state_401a43|23|-40 46,0,0,0,0,0,0,0,0,0,0,0,0,0,0,46,
scooby_state_401a16|40|-1 46,0,0,0,0,0,0,0,0,0,0,0,0,0,0,46,
scooby_state_4019f7|43|0 44,0,0,0,0,0,0,0,0,0,0,0,0,0,0,44,
scooby_state_4019fd|53|1 44,0,0,0,0,0,0,0,0,0,0,0,0,0,0,44,
scooby_state_4019fd|62|41 43,0,0,0,0,0,0,0,0,0,0,0,0,0,0,43,
scooby_state_4019fd|23|1 43,0,0,0,0,0,0,0,0,0,0,0,0,0,0,43,
scooby_state_401a54|43|3 43,0,0,0,0,0,0,0,0,0,0,0,0,0,0,43,
[...]
scooby_state_401a26|13|-2 1,0,0,0,0,0,0,0,0,0,0,0,0,0,0,1,
scooby_state_401a5c|44|2 1,0,0,0,0,0,0,0,0,0,0,0,0,0,0,1,
scooby_state_401a26|32|3 1,0,0,0,0,0,0,0,0,0,0,0,0,0,0,1,
scooby_state_401a16|17|4 1,0,0,0,0,0,0,0,0,0,0,0,0,0,0,1,
scooby_state_4019f7|22|4 1,0,0,0,0,0,0,0,0,0,0,0,0,0,0,1,
scooby_state_401a2c|40|-1 1,0,0,0,0,0,0,0,0,0,0,0,0,0,0,1,
scooby_state_4016ed|27|-17 1,0,0,0,0,0,0,0,0,0,0,0,0,0,0,1,
scooby_state_4019fd|0|0 1,0,0,0,0,0,0,0,0,0,0,0,0,0,0,1,
scooby_state_401a26|16|3 1,0,0,0,0,0,0,0,0,0,0,0,0,0,0,1,
scooby_state_401a2c|54|40 1,0,0,0,0,0,0,0,0,0,0,0,0,0,0,1,
scooby_state_401a3d|34|-1 1,0,0,0,0,0,0,0,0,0,0,0,0,0,0,1,
scooby_state_4019ec|52|41 1,0,0,0,0,0,0,0,0,0,0,0,0,0,0,1,
scooby_state_401800|42|0 1,0,0,0,0,0,0,0,0,0,0,0,0,0,0,1,
scooby_state_401a31|39|0 1,0,0,0,0,0,0,0,0,0,0,0,0,0,0,1,
scooby_state_401a22|40|0 1,0,0,0,0,0,0,0,0,0,0,0,0,0,0,1,
scooby_state_4019ec|42|41 1,0,0,0,0,0,0,0,0,0,0,0,0,0,0,1,
scooby_state_401a3d|49|4 1,0,0,0,0,0,0,0,0,0,0,0,0,0,0,1,
scooby_state_401a2c|46|38 1,0,0,0,0,0,0,0,0,0,0,0,0,0,0,1,
scooby_state_4019fd|7|-41 1,0,0,0,0,0,0,0,0,0,0,0,0,0,0,1,
scooby_state_401a0d|40|0 1,0,0,0,0,0,0,0,0,0,0,0,0,0,0,1,
scooby_state_4019ec|37|1 1,0,0,0,0,0,0,0,0,0,0,0,0,0,0,1,
scooby_state_401a0d|12|0 1,0,0,0,0,0,0,0,0,0,0,0,0,0,0,1,
scooby_state_4019ec|17|-40 1,0,0,0,0,0,0,0,0,0,0,0,0,0,0,1,
scooby_state_401a43|52|-11 1,0,0,0,0,0,0,0,0,0,0,0,0,0,0,1,
scooby_state_401a2c|52|41 1,0,0,0,0,0,0,0,0,0,0,0,0,0,0,1,
scooby_state_4019f7|50|4 1,0,0,0,0,0,0,0,0,0,0,0,0,0,0,1,
scooby_state_401a5c|0|-2 1,0,0,0,0,0,0,0,0,0,0,0,0,0,0,1,
scooby_state_4019f7|46|-3 1,0,0,0,0,0,0,0,0,0,0,0,0,0,0,1,
scooby_state_4019fd|42|-21 1,0,0,0,0,0,0,0,0,0,0,0,0,0,0,1,
scooby_state_4019fd|0|-16 1,0,0,0,0,0,0,0,0,0,0,0,0,0,0,1,
scooby_state_401a2c|7|0 1,0,0,0,0,0,0,0,0,0,0,0,0,0,0,1,
scooby_state_401a26|17|4 1,0,0,0,0,0,0,0,0,0,0,0,0,0,0,1,
scooby_state_401a43|35|-28 1,0,0,0,0,0,0,0,0,0,0,0,0,0,0,1,
scooby_state_401a2c|21|0 1,0,0,0,0,0,0,0,0,0,0,0,0,0,0,1,
scooby_state_4019fd|9|-41 1,0,0,0,0,0,0,0,0,0,0,0,0,0,0,1,
scooby_state_4019fd|0|-31 1,0,0,0,0,0,0,0,0,0,0,0,0,0,0,1,
scooby_state_401a0d|14|0 1,0,0,0,0,0,0,0,0,0,0,0,0,0,0,1,
scooby_state_401aab|41|-2 1,0,0,0,0,0,0,0,0,0,0,0,0,0,0,1,
scooby_state_4019fd|59|-4 1,0,0,0,0,0,0,0,0,0,0,0,0,0,0,1,
scooby_state_401a43|54|-9 1,0,0,0,0,0,0,0,0,0,0,0,0,0,0,1,
scooby_state_4019fd|0|-14 1,0,0,0,0,0,0,0,0,0,0,0,0,0,0,1,
scooby_state_401a2c|37|0 1,0,0,0,0,0,0,0,0,0,0,0,0,0,0,1,
scooby_state_401a43|37|-26 1,0,0,0,0,0,0,0,0,0,0,0,0,0,0,1,
scooby_state_401a07|34|-2 1,0,0,0,0,0,0,0,0,0,0,0,0,0,0,1,
scooby_state_4019f7|33|0 1,0,0,0,0,0,0,0,0,0,0,0,0,0,0,1,
scooby_state_401a16|61|-1 1,0,0,0,0,0,0,0,0,0,0,0,0,0,0,1,
scooby_state_401a5c|6|-39 1,0,0,0,0,0,0,0,0,0,0,0,0,0,0,1,
scooby_state_401a0d|28|0 1,0,0,0,0,0,0,0,0,0,0,0,0,0,0,1,
scooby_state_4019ec|3|-40 1,0,0,0,0,0,0,0,0,0,0,0,0,0,0,1,
scooby_state_401a07|61|-2 1,0,0,0,0,0,0,0,0,0,0,0,0,0,0,1,
scooby_state_4019fd|28|-35 1,0,0,0,0,0,0,0,0,0,0,0,0,0,0,1,
scooby_state_401a2c|4|0 1,0,0,0,0,0,0,0,0,0,0,0,0,0,0,1,
scooby_state_401a07|37|3 1,0,0,0,0,0,0,0,0,0,0,0,0,0,0,1,
scooby_state_401a2c|18|0 1,0,0,0,0,0,0,0,0,0,0,0,0,0,0,1,
scooby_state_401a5c|4|-41 1,0,0,0,0,0,0,0,0,0,0,0,0,0,0,1,
scooby_state_401a07|48|3 1,0,0,0,0,0,0,0,0,0,0,0,0,0,0,1,
scooby_state_4019fd|0|-28 1,0,0,0,0,0,0,0,0,0,0,0,0,0,0,1,
scooby_state_401a5c|0|-5 1,0,0,0,0,0,0,0,0,0,0,0,0,0,0,1,
scooby_state_401a2c|35|0 1,0,0,0,0,0,0,0,0,0,0,0,0,0,0,1,
scooby_state_4019f7|34|-3 1,0,0,0,0,0,0,0,0,0,0,0,0,0,0,1,
scooby_state_401a07|38|0 1,0,0,0,0,0,0,0,0,0,0,0,0,0,0,1,
scooby_state_401834|42|0 1,0,0,0,0,0,0,0,0,0,0,0,0,0,0,1,
scooby_state_401942|37|1 1,0,0,0,0,0,0,0,0,0,0,0,0,0,0,1,
scooby_state_401a16|46|-3 1,0,0,0,0,0,0,0,0,0,0,0,0,0,0,1,
scooby_state_401a43|49|-14 1,0,0,0,0,0,0,0,0,0,0,0,0,0,0,1,
scooby_state_401a07|1|0 1,0,0,0,0,0,0,0,0,0,0,0,0,0,0,1,
scooby_state_4019ec|23|-40 1,0,0,0,0,0,0,0,0,0,0,0,0,0,0,1,
scooby_state_401a0d|26|0 1,0,0,0,0,0,0,0,0,0,0,0,0,0,0,1,
scooby_state_401a5c|0|-7 1,0,0,0,0,0,0,0,0,0,0,0,0,0,0,1,
scooby_state_4019fd|0|-9 1,0,0,0,0,0,0,0,0,0,0,0,0,0,0,1,
scooby_state_4019ec|27|1 1,0,0,0,0,0,0,0,0,0,0,0,0,0,0,1,
scooby_state_401a26|34|-1 1,0,0,0,0,0,0,0,0,0,0,0,0,0,0,1,
scooby_state_401b05|44|0 1,0,0,0,0,0,0,0,0,0,0,0,0,0,0,1,
scooby_state_401a26|38|0 1,0,0,0,0,0,0,0,0,0,0,0,0,0,0,1,
scooby_state_401a26|61|-1 1,0,0,0,0,0,0,0,0,0,0,0,0,0,0,1,
scooby_state_40174a|29|-10 1,0,0,0,0,0,0,0,0,0,0,0,0,0,0,1,
scooby_state_4019f7|13|-2 1,0,0,0,0,0,0,0,0,0,0,0,0,0,0,1,
scooby_state_401a3d|61|-2 1,0,0,0,0,0,0,0,0,0,0,0,0,0,0,1,
scooby_state_401a3d|36|2 1,0,0,0,0,0,0,0,0,0,0,0,0,0,0,1,
scooby_state_401a3d|17|4 1,0,0,0,0,0,0,0,0,0,0,0,0,0,0,1,
scooby_state_401a16|33|4 1,0,0,0,0,0,0,0,0,0,0,0,0,0,0,1,
scooby_state_401a54|38|0 1,0,0,0,0,0,0,0,0,0,0,0,0,0,0,1,
scooby_state_401a3d|29|-1 1,0,0,0,0,0,0,0,0,0,0,0,0,0,0,1,
scooby_state_4019fd|0|-11 1,0,0,0,0,0,0,0,0,0,0,0,0,0,0,1,
scooby_state_401a16|50|-1 1,0,0,0,0,0,0,0,0,0,0,0,0,0,0,1,
scooby_state_401a07|33|0 1,0,0,0,0,0,0,0,0,0,0,0,0,0,0,1,
scooby_state_4019f7|6|4 1,0,0,0,0,0,0,0,0,0,0,0,0,0,0,1,
scooby_state_401a5c|0|-24 1,0,0,0,0,0,0,0,0,0,0,0,0,0,0,1,
scooby_state_401780|30|1 1,0,0,0,0,0,0,0,0,0,0,0,0,0,0,1,
scooby_state_401a3d|29|-2 1,0,0,0,0,0,0,0,0,0,0,0,0,0,0,1,
scooby_state_401701|28|1 1,0,0,0,0,0,0,0,0,0,0,0,0,0,0,1,
scooby_state_401a26|29|-1 1,0,0,0,0,0,0,0,0,0,0,0,0,0,0,1,
scooby_state_401a2c|23|0 1,0,0,0,0,0,0,0,0,0,0,0,0,0,0,1,
scooby_state_401a5c|0|-19 1,0,0,0,0,0,0,0,0,0,0,0,0,0,0,1,
scooby_state_40182f|43|0 1,0,0,0,0,0,0,0,0,0,0,0,0,0,0,1,
scooby_state_4019fd|61|-2 1,0,0,0,0,0,0,0,0,0,0,0,0,0,0,1,
scooby_state_4019f7|50|-1 1,0,0,0,0,0,0,0,0,0,0,0,0,0,0,1,
scooby_state_401980|38|1 1,0,0,0,0,0,0,0,0,0,0,0,0,0,0,1,
scooby_state_401a1c|49|0 1,0,0,0,0,0,0,0,0,0,0,0,0,0,0,1,
scooby_state_4019fd|12|-41 1,0,0,0,0,0,0,0,0,0,0,0,0,0,0,1,
scooby_state_401a07|18|-3 1,0,0,0,0,0,0,0,0,0,0,0,0,0,0,1,
scooby_state_4019f7|49|4 1,0,0,0,0,0,0,0,0,0,0,0,0,0,0,1,
scooby_state_401ac2|43|1 1,0,0,0,0,0,0,0,0,0,0,0,0,0,0,1,
scooby_state_401a16|52|2 1,0,0,0,0,0,0,0,0,0,0,0,0,0,0,1,
scooby_state_401800|32|1 1,0,0,0,0,0,0,0,0,0,0,0,0,0,0,1,
scooby_state_401a07|22|4 1,0,0,0,0,0,0,0,0,0,0,0,0,0,0,1,
scooby_state_4019c1|39|1 1,0,0,0,0,0,0,0,0,0,0,0,0,0,0,1,
scooby_state_401a84|42|1 1,0,0,0,0,0,0,0,0,0,0,0,0,0,0,1,
scooby_state_401a74|40|1 1,0,0,0,0,0,0,0,0,0,0,0,0,0,0,1,
scooby_state_401881|34|1 1,0,0,0,0,0,0,0,0,0,0,0,0,0,0,1,
scooby_state_401a26|13|-3 1,0,0,0,0,0,0,0,0,0,0,0,0,0,0,1,
scooby_state_401a2c|49|-1 1,0,0,0,0,0,0,0,0,0,0,0,0,0,0,1,
scooby_state_401a54|17|0 1,0,0,0,0,0,0,0,0,0,0,0,0,0,0,1,
scooby_state_401a26|52|2 1,0,0,0,0,0,0,0,0,0,0,0,0,0,0,1,
scooby_state_401a16|53|3 1,0,0,0,0,0,0,0,0,0,0,0,0,0,0,1,
scooby_state_4019fd|2|-41 1,0,0,0,0,0,0,0,0,0,0,0,0,0,0,1,
scooby_state_401a43|32|-31 1,0,0,0,0,0,0,0,0,0,0,0,0,0,0,1,
scooby_state_401a5c|0|-16 1,0,0,0,0,0,0,0,0,0,0,0,0,0,0,1,
scooby_state_401a5c|16|0 1,0,0,0,0,0,0,0,0,0,0,0,0,0,0,1,
scooby_state_401a3d|38|0 1,0,0,0,0,0,0,0,0,0,0,0,0,0,0,1,
scooby_state_4019ec|48|2 1,0,0,0,0,0,0,0,0,0,0,0,0,0,0,1,
scooby_state_401a26|63|2 1,0,0,0,0,0,0,0,0,0,0,0,0,0,0,1,
scooby_state_401a3d|61|-1 1,0,0,0,0,0,0,0,0,0,0,0,0,0,0,1,
scooby_state_401a16|20|2 1,0,0,0,0,0,0,0,0,0,0,0,0,0,0,1,
scooby_state_401a5c|14|-41 1,0,0,0,0,0,0,0,0,0,0,0,0,0,0,1,
scooby_state_401a16|13|-3 1,0,0,0,0,0,0,0,0,0,0,0,0,0,0,1,
scooby_state_4018c2|35|1 1,0,0,0,0,0,0,0,0,0,0,0,0,0,0,1,
scooby_state_4019e0|38|0 1,0,0,0,0,0,0,0,0,0,0,0,0,0,0,1,
scooby_state_401a26|29|-2 1,0,0,0,0,0,0,0,0,0,0,0,0,0,0,1,
scooby_state_4019f7|38|0 1,0,0,0,0,0,0,0,0,0,0,0,0,0,0,1,
scooby_state_401842|33|1 1,0,0,0,0,0,0,0,0,0,0,0,0,0,0,1,
scooby_state_4019e0|45|-2 1,0,0,0,0,0,0,0,0,0,0,0,0,0,0,1,
scooby_state_401901|36|1 1,0,0,0,0,0,0,0,0,0,0,0,0,0,0,1,
scooby_state_401a43|56|0 1,0,0,0,0,0,0,0,0,0,0,0,0,0,0,1,
scooby_state_4019fd|2|-38 1,0,0,0,0,0,0,0,0,0,0,0,0,0,0,1,
scooby_state_4019fd|45|-18 1,0,0,0,0,0,0,0,0,0,0,0,0,0,0,1,
scooby_state_401a26|2|-1 1,0,0,0,0,0,0,0,0,0,0,0,0,0,0,1,
scooby_state_40195b|46|3 1,0,0,0,0,0,0,0,0,0,0,0,0,0,0,1,
scooby_state_401a3d|32|3 1,0,0,0,0,0,0,0,0,0,0,0,0,0,0,1,
scooby_state_401a3d|1|0 1,0,0,0,0,0,0,0,0,0,0,0,0,0,0,1,
scooby_state_401aab|41|-4 1,0,0,0,0,0,0,0,0,0,0,0,0,0,0,1,
scooby_state_401a16|45|-1 1,0,0,0,0,0,0,0,0,0,0,0,0,0,0,1,
scooby_state_401a07|47|2 1,0,0,0,0,0,0,0,0,0,0,0,0,0,0,1,
scooby_state_401a26|36|2 1,0,0,0,0,0,0,0,0,0,0,0,0,0,0,1,
scooby_state_401a3d|5|3 1,0,0,0,0,0,0,0,0,0,0,0,0,0,0,1,
scooby_state_401a16|38|0 1,0,0,0,0,0,0,0,0,0,0,0,0,0,0,1,
scooby_state_401a0d|3|2 1,0,0,0,0,0,0,0,0,0,0,0,0,0,0,1,
scooby_state_401a3d|2|-2 1,0,0,0,0,0,0,0,0,0,0,0,0,0,0,1,
scooby_state_401a26|4|2 1,0,0,0,0,0,0,0,0,0,0,0,0,0,0,1,
scooby_state_401a54|1|0 1,0,0,0,0,0,0,0,0,0,0,0,0,0,0,1,
scooby_state_4019f7|18|-3 1,0,0,0,0,0,0,0,0,0,0,0,0,0,0,1,
scooby_state_401a26|1|0 1,0,0,0,0,0,0,0,0,0,0,0,0,0,0,1,
scooby_state_401a16|1|0 1,0,0,0,0,0,0,0,0,0,0,0,0,0,0,1,
scooby_state_4019fd|15|-41 1,0,0,0,0,0,0,0,0,0,0,0,0,0,0,1,
scooby_state_401a2c|49|0 1,0,0,0,0,0,0,0,0,0,0,0,0,0,0,1,
scooby_state_401a07|50|0 1,0,0,0,0,0,0,0,0,0,0,0,0,0,0,1,
scooby_state_401a2c|38|1 1,0,0,0,0,0,0,0,0,0,0,0,0,0,0,1,
scooby_state_401a07|33|4 1,0,0,0,0,0,0,0,0,0,0,0,0,0,0,1,
scooby_state_401a07|29|-3 1,0,0,0,0,0,0,0,0,0,0,0,0,0,0,1,
scooby_state_401a5c|0|-21 1,0,0,0,0,0,0,0,0,0,0,0,0,0,0,1,
scooby_state_401a07|49|4 1,0,0,0,0,0,0,0,0,0,0,0,0,0,0,1,
scooby_state_401a26|21|3 1,0,0,0,0,0,0,0,0,0,0,0,0,0,0,1,
scooby_state_401a16|18|-2 1,0,0,0,0,0,0,0,0,0,0,0,0,0,0,1,
scooby_state_401a26|18|-2 1,0,0,0,0,0,0,0,0,0,0,0,0,0,0,1,
scooby_state_401a26|47|2 1,0,0,0,0,0,0,0,0,0,0,0,0,0,0,1,
scooby_state_401a07|20|2 1,0,0,0,0,0,0,0,0,0,0,0,0,0,0,1,
scooby_state_4019f7|20|2 1,0,0,0,0,0,0,0,0,0,0,0,0,0,0,1,
scooby_state_401a16|18|-1 1,0,0,0,0,0,0,0,0,0,0,0,0,0,0,1,
scooby_state_4019f7|18|-1 1,0,0,0,0,0,0,0,0,0,0,0,0,0,0,1,
scooby_state_401a26|17|0 1,0,0,0,0,0,0,0,0,0,0,0,0,0,0,1,
scooby_state_401a16|32|3 1,0,0,0,0,0,0,0,0,0,0,0,0,0,0,1,
scooby_state_401a07|45|-3 1,0,0,0,0,0,0,0,0,0,0,0,0,0,0,1,
scooby_state_401a16|45|-3 1,0,0,0,0,0,0,0,0,0,0,0,0,0,0,1,
scooby_state_4019ec|22|-40 1,0,0,0,0,0,0,0,0,0,0,0,0,0,0,1,
scooby_state_401a3d|31|2 1,0,0,0,0,0,0,0,0,0,0,0,0,0,0,1,
scooby_state_401a26|31|2 1,0,0,0,0,0,0,0,0,0,0,0,0,0,0,1,
scooby_state_401a16|31|2 1,0,0,0,0,0,0,0,0,0,0,0,0,0,0,1,
scooby_state_4017f0|42|0 1,0,0,0,0,0,0,0,0,0,0,0,0,0,0,1,
scooby_state_401aba|42|0 1,0,0,0,0,0,0,0,0,0,0,0,0,0,0,1,
scooby_state_4019fd|19|-41 1,0,0,0,0,0,0,0,0,0,0,0,0,0,0,1,
scooby_state_401a07|17|4 1,0,0,0,0,0,0,0,0,0,0,0,0,0,0,1,
scooby_state_4019f7|2|-3 1,0,0,0,0,0,0,0,0,0,0,0,0,0,0,1,
scooby_state_401a16|49|0 1,0,0,0,0,0,0,0,0,0,0,0,0,0,0,1,
scooby_state_401a3d|53|3 1,0,0,0,0,0,0,0,0,0,0,0,0,0,0,1,
scooby_state_401a26|53|3 1,0,0,0,0,0,0,0,0,0,0,0,0,0,0,1,
scooby_state_401a26|50|-2 1,0,0,0,0,0,0,0,0,0,0,0,0,0,0,1,
scooby_state_401a3d|50|-2 1,0,0,0,0,0,0,0,0,0,0,0,0,0,0,1,
scooby_state_401a16|50|-2 1,0,0,0,0,0,0,0,0,0,0,0,0,0,0,1,
scooby_state_4019f7|52|2 1,0,0,0,0,0,0,0,0,0,0,0,0,0,0,1,
scooby_state_401a5c|0|-33 1,0,0,0,0,0,0,0,0,0,0,0,0,0,0,1,
scooby_state_401a07|2|-3 1,0,0,0,0,0,0,0,0,0,0,0,0,0,0,1,
scooby_state_401a5c|0|-35 1,0,0,0,0,0,0,0,0,0,0,0,0,0,0,1,
scooby_state_401a26|50|-1 1,0,0,0,0,0,0,0,0,0,0,0,0,0,0,1,
scooby_state_401a5c|0|-38 1,0,0,0,0,0,0,0,0,0,0,0,0,0,0,1,
scooby_state_401a3d|63|2 1,0,0,0,0,0,0,0,0,0,0,0,0,0,0,1,
scooby_state_401869|43|1 1,0,0,0,0,0,0,0,0,0,0,0,0,0,0,1,
scooby_state_4019fd|47|-16 1,0,0,0,0,0,0,0,0,0,0,0,0,0,0,1,
scooby_state_401a3d|49|0 1,0,0,0,0,0,0,0,0,0,0,0,0,0,0,1,
scooby_state_401a26|49|0 1,0,0,0,0,0,0,0,0,0,0,0,0,0,0,1,
scooby_state_4017f0|31|-12 1,0,0,0,0,0,0,0,0,0,0,0,0,0,0,1,
scooby_state_401a26|15|2 1,0,0,0,0,0,0,0,0,0,0,0,0,0,0,1,
scooby_state_401a43|57|-6 1,0,0,0,0,0,0,0,0,0,0,0,0,0,0,1,
scooby_state_401a16|29|-2 1,0,0,0,0,0,0,0,0,0,0,0,0,0,0,1,
scooby_state_401a07|18|0 1,0,0,0,0,0,0,0,0,0,0,0,0,0,0,1,
scooby_state_401aa1|42|-1 1,0,0,0,0,0,0,0,0,0,0,0,0,0,0,1,
scooby_state_4019fd|0|-26 1,0,0,0,0,0,0,0,0,0,0,0,0,0,0,1,
scooby_state_401a3d|15|2 1,0,0,0,0,0,0,0,0,0,0,0,0,0,0,1,
scooby_state_401a3d|13|-1 1,0,0,0,0,0,0,0,0,0,0,0,0,0,0,1,
scooby_state_401a26|13|-1 1,0,0,0,0,0,0,0,0,0,0,0,0,0,0,1,
scooby_state_401a2c|46|-1 1,0,0,0,0,0,0,0,0,0,0,0,0,0,0,1,
scooby_state_401a07|6|4 1,0,0,0,0,0,0,0,0,0,0,0,0,0,0,1,
scooby_state_4019fd|4|-41 1,0,0,0,0,0,0,0,0,0,0,0,0,0,0,1,
scooby_state_401a16|45|-2 1,0,0,0,0,0,0,0,0,0,0,0,0,0,0,1,
scooby_state_401a3d|13|-3 1,0,0,0,0,0,0,0,0,0,0,0,0,0,0,1,
scooby_state_401a3d|17|0 1,0,0,0,0,0,0,0,0,0,0,0,0,0,0,1,
scooby_state_401a07|17|0 1,0,0,0,0,0,0,0,0,0,0,0,0,0,0,1,
scooby_state_401860|42|-1 1,0,0,0,0,0,0,0,0,0,0,0,0,0,0,1,
scooby_state_401a16|21|3 1,0,0,0,0,0,0,0,0,0,0,0,0,0,0,1,
scooby_state_4019fd|56|-7 1,0,0,0,0,0,0,0,0,0,0,0,0,0,0,1,
scooby_state_4019ec|18|-40 1,0,0,0,0,0,0,0,0,0,0,0,0,0,0,1,

scooby_action_0_deg_dist 0,180,0,0,0,0,0,0,0,0,0,0,0,0,0,0,
scooby_action_4_deg_dist 0,183,0,0,0,0,0,0,0,0,0,0,0,0,0,0,
scooby_action_32_deg_dist 0,153,0,0,0,0,0,0,0,0,0,0,0,0,0,0,
scooby_action_3_deg_dist 0,193,0,0,0,0,0,0,0,0,0,0,0,0,0,0,
scooby_action_5_deg_dist 0,169,0,0,0,0,0,0,0,0,0,0,0,0,0,0,
scooby_action_1_deg_dist 0,68880,41705,0,104386,0,1203111,0,0,0,0,0,0,0,0,0,
scooby_action_30_deg_dist 0,183,0,0,0,0,0,0,0,0,0,0,0,0,0,0,
scooby_action_-3_deg_dist 0,170,0,0,0,0,0,0,0,0,0,0,0,0,0,0,
scooby_action_10_deg_dist 0,201,0,0,0,0,0,0,0,0,0,0,0,0,0,0,
scooby_action_-1_deg_dist 0,172,0,0,0,0,0,0,0,0,0,0,0,0,0,0,
scooby_action_23_deg_dist 0,177,0,0,0,0,0,0,0,0,0,0,0,0,0,0,
scooby_action_-6_deg_dist 0,164,0,0,0,0,0,0,0,0,0,0,0,0,0,0,
scooby_action_11_deg_dist 0,162,0,0,0,0,0,0,0,0,0,0,0,0,0,0,
scooby_action_22_deg_dist 0,182,0,0,0,0,0,0,0,0,0,0,0,0,0,0,
scooby_action_12_deg_dist 0,185,0,0,0,0,0,0,0,0,0,0,0,0,0,0,

scooby_track_called 1420556
scooby_track_same_address 17042
scooby_track_evict 1403258

scooby_reward_demand_called 1420556
scooby_reward_demand_pt_not_found 28689
scooby_reward_demand_pt_found 1391867
scooby_reward_demand_pt_found_total 1391867
scooby_reward_demand_has_reward 13353
scooby_reward_train_called 2682
scooby_reward_assign_reward_called 1403500
scooby_reward_no_pref 180
scooby_reward_incorrect 2502
scooby_reward_correct_untimely 1278408
scooby_reward_correct_timely 100106
scooby_reward_out_of_bounds 22304
scooby_reward_tracker_hit 0

scooby_reward_none_low_bw 180
scooby_reward_none_high_bw 0
scooby_reward_incorrect_low_bw 2502
scooby_reward_incorrect_high_bw 0
scooby_reward_correct_untimely_low_bw 1278408
scooby_reward_correct_untimely_high_bw 0
scooby_reward_correct_timely_low_bw 100106
scooby_reward_correct_timely_high_bw 0
scooby_reward_out_of_bounds_low_bw 22304
scooby_reward_out_of_bounds_high_bw 0
scooby_reward_tracker_hit_low_bw 0
scooby_reward_tracker_hit_high_bw 0

scooby_reward_1 0,2340,1278147,99119,21867,0,
scooby_reward_3 0,3,127,53,9,0,
scooby_reward_4 0,1,83,84,15,0,
scooby_reward_5 0,4,41,116,8,0,
scooby_reward_10 0,15,2,146,38,0,
scooby_reward_11 0,19,0,127,16,0,
scooby_reward_12 0,26,4,129,26,0,
scooby_reward_22 0,11,1,103,67,0,
scooby_reward_23 0,14,3,102,58,0,
scooby_reward_30 0,15,0,89,79,0,
scooby_reward_32 0,29,0,38,86,0,
scooby_reward_-1 0,6,0,0,2,0,
scooby_reward_-3 0,6,0,0,10,0,
scooby_reward_-6 0,13,0,0,23,0,
scooby_reward_0 180,0,0,0,0,0,

scooby_train_called 1403257
scooby_train_compute_reward 2682

scooby_register_fill_called 1233362
scooby_register_fill_set 100237
scooby_register_fill_set_total 100237

scooby_register_prefetch_hit_called 2932043
scooby_register_prefetch_hit_set 1098772
scooby_register_prefetch_hit_set_total 1098772

scooby_pref_issue_scooby 7245092

learning_engine_featurewise.action.called 1420556
learning_engine_featurewise.action.explore 2640
learning_engine_featurewise.action.exploit 1417916
learning_engine_featurewise.action.fallback 0
learning_engine_featurewise.action.dyn_fallback_saved_bw 0
learning_engine_featurewise.action.dyn_fallback_saved_bw_acc 16
learning_engine_featurewise.action.index_1_explored 167
learning_engine_featurewise.action.index_1_exploited 1417915
learning_engine_featurewise.action.index_3_explored 192
learning_engine_featurewise.action.index_3_exploited 1
learning_engine_featurewise.action.index_4_explored 183
learning_engine_featurewise.action.index_4_exploited 0
learning_engine_featurewise.action.index_5_explored 169
learning_engine_featurewise.action.index_5_exploited 0
learning_engine_featurewise.action.index_10_explored 201
learning_engine_featurewise.action.index_10_exploited 0
learning_engine_featurewise.action.index_11_explored 162
learning_engine_featurewise.action.index_11_exploited 0
learning_engine_featurewise.action.index_12_explored 185
learning_engine_featurewise.action.index_12_exploited 0
learning_engine_featurewise.action.index_22_explored 182
learning_engine_featurewise.action.index_22_exploited 0
learning_engine_featurewise.action.index_23_explored 177
learning_engine_featurewise.action.index_23_exploited 0
learning_engine_featurewise.action.index_30_explored 183
learning_engine_featurewise.action.index_30_exploited 0
learning_engine_featurewise.action.index_32_explored 153
learning_engine_featurewise.action.index_32_exploited 0
learning_engine_featurewise.action.index_-1_explored 172
learning_engine_featurewise.action.index_-1_exploited 0
learning_engine_featurewise.action.index_-3_explored 170
learning_engine_featurewise.action.index_-3_exploited 0
learning_engine_featurewise.action.index_-6_explored 164
learning_engine_featurewise.action.index_-6_exploited 0
learning_engine_featurewise.action.index_0_explored 180
learning_engine_featurewise.action.index_0_exploited 0
learning_engine_featurewise.learn.called 1403257
learning_engine_featurewise.learn.su_skip_PC 0
learning_engine_featurewise.learn.su_skip_PC_Delta 0

learning_engine_featurewise.q_value_histogram.bucket_0 0
learning_engine_featurewise.q_value_histogram.bucket_1 0
learning_engine_featurewise.q_value_histogram.bucket_2 0
learning_engine_featurewise.q_value_histogram.bucket_3 0
learning_engine_featurewise.q_value_histogram.bucket_4 874
learning_engine_featurewise.q_value_histogram.bucket_5 1172
learning_engine_featurewise.q_value_histogram.bucket_6 1415870
learning_engine_featurewise.q_value_histogram.bucket_7 0

learning_engine_featurewise.consensus.total 1417916
learning_engine_featurewise.consensus.feature_align_PC 1417906
learning_engine_featurewise.consensus.feature_align_PC_ratio 1.00
learning_engine_featurewise.consensus.feature_align_PC_Delta 1417041
learning_engine_featurewise.consensus.feature_align_PC_Delta_ratio 1.00
learning_engine_featurewise.consensus.feature_align_all 1417031
learning_engine_featurewise.consensus.feature_align_all_ratio 1.00

learning_engine_featurewise.feature_PC_min_weight 1000000.00000000
learning_engine_featurewise.feature_PC_max_weight 0.00000000
learning_engine_featurewise.feature_PC_Delta_min_weight 1000000.00000000
learning_engine_featurewise.feature_PC_Delta_max_weight 0.00000000
unique_pcs 50
unique_pages 19799
unique_trigger_pcs 15
total_bitmaps_seen 0
unique_bitmaps_seen 0

scooby_bw_epochs 193112
scooby_bw_level_0 48492
scooby_bw_level_1 41256
scooby_bw_level_2 39994
scooby_bw_level_3 63370

scooby_ipc_epochs 0
scooby_ipc_level_0 0
scooby_ipc_level_1 0
scooby_ipc_level_2 0
scooby_ipc_level_3 0

scooby_cache_acc_epochs 46607
scooby_cache_acc_level_0 1
scooby_cache_acc_level_1 0
scooby_cache_acc_level_2 3
scooby_cache_acc_level_3 8
scooby_cache_acc_level_4 30
scooby_cache_acc_level_5 71
scooby_cache_acc_level_6 274
scooby_cache_acc_level_7 1709
scooby_cache_acc_level_8 6651
scooby_cache_acc_level_9 37860

Channel_0_RQ_row_buffer_hit 862672
Channel_0_RQ_row_buffer_miss 275376
Channel_0_WQ_row_buffer_hit 2371
Channel_0_WQ_row_buffer_miss 4667
Channel_0_WQ_full 0
Channel_0_dbus_congested 483464

avg_congested_cycle 8

DRAM_bw_pochs 193112
DRAM_bw_level_0 48492
DRAM_bw_level_1 41256
DRAM_bw_level_2 39994
DRAM_bw_level_3 63370
