*************************************************
   ChampSim Multicore Out-of-Order Simulator
   Last compiled: Apr  3 2025 20:54:34
*************************************************
parsing config file: /home/zir/Pythia/config/pythia.ini

trace_0 /home/zir/ChampSim/ML-DPC/ChampSimTraces/spec06/459.GemsFDTD-s2.trace.gz
adding L2C_PREFETCHER: Scooby
Initialize SHIP state
warmup_instructions 10000000
simulation_instructions 50000000
champsim_seed 165
measure_ipc 0
measure_ipc_epoch 1000
measure_dram_bw 1
measure_dram_bw_epoch 256
measure_cache_acc 1
measure_cache_acc_epoch 1024
l1d_perfect 0
l2c_perfect 0
llc_perfect 0
l1d_semi_perfect 0
l2c_semi_perfect 0
llc_semi_perfect 0
semi_perfect_cache_page_buffer_size 64

num_cpus 1
cpu_freq 4000
dram_io_freq 2400
page_size 4096
block_size 64
max_read_per_cycle 8
max_fill_per_cycle 1
dram_channels 1
log2_dram_channels 0
dram_ranks 1
dram_banks 8
dram_rows 65536
dram_columns 128
dram_row_size 8
dram_size 4096
dram_pages 1048576

fetch_width 6
decode_width 6
exec_width 4
lq_width 2
sq_width 2
retire_width 4
scheduler_size 128
branch_mispredict_penalty 20
rob_size 256
lq_size 72
sq_size 56
num_instr_destinations_sparc 4
num_instr_destinations 2
num_instr_sources 4

itlb_set 16
itlb_way 8
itlb_rq_size 16
itlb_wq_size 16
itlb_pq_size 0
itlb_mshr_size 8
itlb_latency 1

dtlb_set 16
dtlb_way 4
dtlb_rq_size 16
dtlb_wq_size 16
dtlb_pq_size 0
dtlb_mshr_size 8
dtlb_latency 1

stlb_set 128
stlb_way 12
stlb_rq_size 32
stlb_wq_size 32
stlb_pq_size 0
stlb_mshr_size 16
stlb_latency 8

l1i_size 32
l1i_set 64
l1i_way 8
l1i_rq_size 64
l1i_wq_size 64
l1i_pq_size 8
l1i_mshr_size 8
l1i_latency 1

l1d_size 32
l1d_set 64
l1d_way 8
l1d_rq_size 64
l1d_wq_size 64
l1d_pq_size 8
l1d_mshr_size 16
l1d_latency 4

l2c_size 256
l2c_set 512
l2c_way 8
l2c_rq_size 32
l2c_wq_size 32
l2c_pq_size 32
l2c_mshr_size 32
l2c_latency 10

llc_size 2048
llc_set 2048
llc_way 16
llc_rq_size 32
llc_wq_size 32
llc_pq_size 32
llc_mshr_size 64
llc_latency 20

dram_channel_width 8
dram_wq_size 64
dram_rq_size 64
tRP 15
tRCD 15
tCAS 12.5
dram_dbus_turn_around_time 30
dram_write_high_wm 56
dram_write_low_wm 48
min_dram_writes_per_switch 16
dram_mtps 2400
dram_dbus_return_time 13

scooby_alpha 0.0065088
scooby_gamma 0.556301
scooby_epsilon 0.00182284
scooby_state_num_bits 10
scooby_max_states 1024
scooby_seed 200
scooby_policy EGreedy
scooby_learning_type SARSA
scooby_actions 1,3,4,5,10,11,12,22,23,30,32,-1,-3,-6,0,
scooby_max_actions 15
scooby_pt_size 256
scooby_st_size 64
scooby_max_pcs 5
scooby_max_offsets 5
scooby_max_deltas 5
scooby_reward_none -4
scooby_reward_incorrect -8
scooby_reward_correct_untimely 12
scooby_reward_correct_timely 20
scooby_brain_zero_init 0
scooby_enable_reward_all 0
scooby_enable_track_multiple 0
scooby_enable_reward_out_of_bounds 1
scooby_reward_out_of_bounds -12
scooby_state_type 1
scooby_state_hash_type 11
scooby_access_debug 0
scooby_print_access_debug 0
scooby_print_access_debug_pc deadbeef
scooby_print_access_debug_pc_count 0
scooby_print_trace 0
scooby_enable_state_action_stats 1
scooby_enable_reward_tracker_hit 0
scooby_reward_tracker_hit -2
scooby_enable_featurewise_engine 1
scooby_pref_degree 1
scooby_enable_dyn_degree 1
scooby_max_to_avg_q_thresholds 0.5,1,2,
scooby_dyn_degrees 1,2,4,4,
scooby_multi_deg_select_type 2
scooby_last_pref_offset_conf_thresholds 1,3,8,
scooby_dyn_degrees_type2 1,2,4,6,
scooby_action_tracker_size 2
scooby_high_bw_thresh 4
scooby_enable_hbw_reward 1
scooby_reward_hbw_correct_timely 20
scooby_reward_hbw_correct_untimely 12
scooby_reward_hbw_incorrect -14
scooby_reward_hbw_none -2
scooby_reward_hbw_out_of_bounds -12
scooby_reward_hbw_tracker_hit -2
scooby_last_pref_offset_conf_thresholds_hbw 1,3,8,
scooby_dyn_degrees_type2_hbw 1,2,4,6,

le_enable_trace 0
le_trace_interval 0
le_trace_file_name 
le_trace_state 0
le_enable_score_plot 0
le_plot_file_name 
le_plot_actions 
le_enable_action_trace 0
le_action_trace_interval 0
le_action_trace_name 
le_enable_action_plot 0

le_featurewise_active_features PC, PC_Delta
le_featurewise_num_tilings 3,3,
le_featurewise_num_tiles 128,128,
le_featurewise_hash_types 2,2,
le_featurewise_enable_tiling_offset 1,1,
le_featurewise_max_q_thresh 0.5
le_featurewise_enable_action_fallback 1
le_featurewise_feature_weights 1,1,
le_featurewise_enable_dynamic_weight 0
le_featurewise_weight_gradient 0.001
le_featurewise_disable_adjust_weight_all_features_align 1
le_featurewise_selective_update 0
le_featurewise_pooling_type 2
le_featurewise_enable_dyn_action_fallback 1
le_featurewise_bw_acc_check_level 1
le_featurewise_acc_thresh 2
le_featurewise_enable_trace 0
le_featurewise_trace_feature_type 0
le_featurewise_trace_feature 
le_featurewise_trace_interval 0
le_featurewise_trace_record_count 0
le_featurewise_trace_file_name 
le_featurewise_enable_score_plot 0
le_featurewise_plot_actions 
le_featurewise_plot_file_name 


Heartbeat CPU  0 instructions:    1000000 cycles:     397299 heartbeat IPC: 2.51700 cumulative IPC: 2.51700 (Simulation time: 0 hr 0 min 2 sec) 
Heartbeat CPU  0 instructions:    2000003 cycles:     794320 heartbeat IPC: 2.51877 cumulative IPC: 2.51788 (Simulation time: 0 hr 0 min 3 sec) 
Heartbeat CPU  0 instructions:    3000000 cycles:    1211367 heartbeat IPC: 2.39780 cumulative IPC: 2.47654 (Simulation time: 0 hr 0 min 5 sec) 
Heartbeat CPU  0 instructions:    4000000 cycles:    1626127 heartbeat IPC: 2.41103 cumulative IPC: 2.45983 (Simulation time: 0 hr 0 min 6 sec) 
Heartbeat CPU  0 instructions:    5000000 cycles:    2023062 heartbeat IPC: 2.51930 cumulative IPC: 2.47150 (Simulation time: 0 hr 0 min 7 sec) 
Heartbeat CPU  0 instructions:    6000000 cycles:    2419984 heartbeat IPC: 2.51939 cumulative IPC: 2.47936 (Simulation time: 0 hr 0 min 9 sec) 
Heartbeat CPU  0 instructions:    7000000 cycles:    2816898 heartbeat IPC: 2.51944 cumulative IPC: 2.48500 (Simulation time: 0 hr 0 min 10 sec) 
Heartbeat CPU  0 instructions:    8000000 cycles:    3212368 heartbeat IPC: 2.52864 cumulative IPC: 2.49037 (Simulation time: 0 hr 0 min 12 sec) 
Heartbeat CPU  0 instructions:    9000001 cycles:    3649577 heartbeat IPC: 2.28724 cumulative IPC: 2.46604 (Simulation time: 0 hr 0 min 14 sec) 
Heartbeat CPU  0 instructions:   10000001 cycles:    4145444 heartbeat IPC: 2.01667 cumulative IPC: 2.41229 (Simulation time: 0 hr 0 min 17 sec) 

Warmup complete CPU  0 instructions:   10000001 cycles:    4145444 (Simulation time: 0 hr 0 min 17 sec) 

Heartbeat CPU  0 instructions:   11000000 cycles:    7323827 heartbeat IPC: 0.31463 cumulative IPC: 0.31463 (Simulation time: 0 hr 0 min 21 sec) 
Heartbeat CPU  0 instructions:   12000000 cycles:   10501823 heartbeat IPC: 0.31466 cumulative IPC: 0.31464 (Simulation time: 0 hr 0 min 25 sec) 
Heartbeat CPU  0 instructions:   13000000 cycles:   13660197 heartbeat IPC: 0.31662 cumulative IPC: 0.31530 (Simulation time: 0 hr 0 min 29 sec) 
Heartbeat CPU  0 instructions:   14000000 cycles:   16936120 heartbeat IPC: 0.30526 cumulative IPC: 0.31273 (Simulation time: 0 hr 0 min 33 sec) 
Heartbeat CPU  0 instructions:   15000000 cycles:   20159199 heartbeat IPC: 0.31026 cumulative IPC: 0.31223 (Simulation time: 0 hr 0 min 37 sec) 
Heartbeat CPU  0 instructions:   16000000 cycles:   23362904 heartbeat IPC: 0.31214 cumulative IPC: 0.31222 (Simulation time: 0 hr 0 min 41 sec) 
Heartbeat CPU  0 instructions:   17000002 cycles:   26608103 heartbeat IPC: 0.30815 cumulative IPC: 0.31163 (Simulation time: 0 hr 0 min 45 sec) 
Heartbeat CPU  0 instructions:   18000002 cycles:   29793287 heartbeat IPC: 0.31395 cumulative IPC: 0.31192 (Simulation time: 0 hr 0 min 49 sec) 
Heartbeat CPU  0 instructions:   19000003 cycles:   32968888 heartbeat IPC: 0.31490 cumulative IPC: 0.31225 (Simulation time: 0 hr 0 min 53 sec) 
Heartbeat CPU  0 instructions:   20000000 cycles:   35367653 heartbeat IPC: 0.41688 cumulative IPC: 0.32028 (Simulation time: 0 hr 0 min 57 sec) 
Heartbeat CPU  0 instructions:   21000000 cycles:   37524404 heartbeat IPC: 0.46366 cumulative IPC: 0.32955 (Simulation time: 0 hr 1 min 0 sec) 
Heartbeat CPU  0 instructions:   22000002 cycles:   39655243 heartbeat IPC: 0.46930 cumulative IPC: 0.33793 (Simulation time: 0 hr 1 min 4 sec) 
Heartbeat CPU  0 instructions:   23000002 cycles:   41784378 heartbeat IPC: 0.46967 cumulative IPC: 0.34539 (Simulation time: 0 hr 1 min 7 sec) 
Heartbeat CPU  0 instructions:   24000000 cycles:   43948105 heartbeat IPC: 0.46216 cumulative IPC: 0.35174 (Simulation time: 0 hr 1 min 11 sec) 
Heartbeat CPU  0 instructions:   25000002 cycles:   46133642 heartbeat IPC: 0.45755 cumulative IPC: 0.35724 (Simulation time: 0 hr 1 min 14 sec) 
Heartbeat CPU  0 instructions:   26000000 cycles:   48026833 heartbeat IPC: 0.52821 cumulative IPC: 0.36462 (Simulation time: 0 hr 1 min 18 sec) 
Heartbeat CPU  0 instructions:   27000002 cycles:   49907254 heartbeat IPC: 0.53180 cumulative IPC: 0.37149 (Simulation time: 0 hr 1 min 21 sec) 
Heartbeat CPU  0 instructions:   28000000 cycles:   51672914 heartbeat IPC: 0.56636 cumulative IPC: 0.37873 (Simulation time: 0 hr 1 min 25 sec) 
Heartbeat CPU  0 instructions:   29000002 cycles:   53479464 heartbeat IPC: 0.55354 cumulative IPC: 0.38513 (Simulation time: 0 hr 1 min 28 sec) 
Heartbeat CPU  0 instructions:   30000001 cycles:   55241006 heartbeat IPC: 0.56768 cumulative IPC: 0.39142 (Simulation time: 0 hr 1 min 32 sec) 
Heartbeat CPU  0 instructions:   31000002 cycles:   56464249 heartbeat IPC: 0.81750 cumulative IPC: 0.40139 (Simulation time: 0 hr 1 min 35 sec) 
Heartbeat CPU  0 instructions:   32000000 cycles:   57665614 heartbeat IPC: 0.83238 cumulative IPC: 0.41106 (Simulation time: 0 hr 1 min 38 sec) 
Heartbeat CPU  0 instructions:   33000000 cycles:   58865543 heartbeat IPC: 0.83338 cumulative IPC: 0.42032 (Simulation time: 0 hr 1 min 40 sec) 
Heartbeat CPU  0 instructions:   34000000 cycles:   60062838 heartbeat IPC: 0.83522 cumulative IPC: 0.42920 (Simulation time: 0 hr 1 min 43 sec) 
Heartbeat CPU  0 instructions:   35000003 cycles:   61268896 heartbeat IPC: 0.82915 cumulative IPC: 0.43765 (Simulation time: 0 hr 1 min 46 sec) 
Heartbeat CPU  0 instructions:   36000000 cycles:   62539224 heartbeat IPC: 0.78720 cumulative IPC: 0.44525 (Simulation time: 0 hr 1 min 49 sec) 
Heartbeat CPU  0 instructions:   37000001 cycles:   63898439 heartbeat IPC: 0.73572 cumulative IPC: 0.45186 (Simulation time: 0 hr 1 min 52 sec) 
Heartbeat CPU  0 instructions:   38000002 cycles:   65169354 heartbeat IPC: 0.78684 cumulative IPC: 0.45884 (Simulation time: 0 hr 1 min 55 sec) 
Heartbeat CPU  0 instructions:   39000000 cycles:   66444857 heartbeat IPC: 0.78400 cumulative IPC: 0.46549 (Simulation time: 0 hr 1 min 58 sec) 
Heartbeat CPU  0 instructions:   40000000 cycles:   67714240 heartbeat IPC: 0.78778 cumulative IPC: 0.47193 (Simulation time: 0 hr 2 min 1 sec) 
Heartbeat CPU  0 instructions:   41000003 cycles:   68972871 heartbeat IPC: 0.79452 cumulative IPC: 0.47819 (Simulation time: 0 hr 2 min 4 sec) 
Heartbeat CPU  0 instructions:   42000000 cycles:   70223501 heartbeat IPC: 0.79959 cumulative IPC: 0.48428 (Simulation time: 0 hr 2 min 7 sec) 
Heartbeat CPU  0 instructions:   43000002 cycles:   72901080 heartbeat IPC: 0.37347 cumulative IPC: 0.47996 (Simulation time: 0 hr 2 min 11 sec) 
Heartbeat CPU  0 instructions:   44000000 cycles:   76053441 heartbeat IPC: 0.31722 cumulative IPC: 0.47283 (Simulation time: 0 hr 2 min 15 sec) 
Heartbeat CPU  0 instructions:   45000001 cycles:   79238320 heartbeat IPC: 0.31398 cumulative IPC: 0.46609 (Simulation time: 0 hr 2 min 19 sec) 
Heartbeat CPU  0 instructions:   46000000 cycles:   82418095 heartbeat IPC: 0.31449 cumulative IPC: 0.45993 (Simulation time: 0 hr 2 min 23 sec) 
Heartbeat CPU  0 instructions:   47000000 cycles:   85576848 heartbeat IPC: 0.31658 cumulative IPC: 0.45437 (Simulation time: 0 hr 2 min 27 sec) 
Heartbeat CPU  0 instructions:   48000000 cycles:   88864991 heartbeat IPC: 0.30412 cumulative IPC: 0.44854 (Simulation time: 0 hr 2 min 31 sec) 
Heartbeat CPU  0 instructions:   49000000 cycles:   92108695 heartbeat IPC: 0.30829 cumulative IPC: 0.44337 (Simulation time: 0 hr 2 min 35 sec) 
Heartbeat CPU  0 instructions:   50000000 cycles:   95283002 heartbeat IPC: 0.31503 cumulative IPC: 0.43890 (Simulation time: 0 hr 2 min 39 sec) 
Heartbeat CPU  0 instructions:   51000002 cycles:   98565724 heartbeat IPC: 0.30463 cumulative IPC: 0.43423 (Simulation time: 0 hr 2 min 43 sec) 
Heartbeat CPU  0 instructions:   52000000 cycles:  101747569 heartbeat IPC: 0.31428 cumulative IPC: 0.43032 (Simulation time: 0 hr 2 min 47 sec) 
Heartbeat CPU  0 instructions:   53000000 cycles:  105016641 heartbeat IPC: 0.30590 cumulative IPC: 0.42629 (Simulation time: 0 hr 2 min 51 sec) 
Heartbeat CPU  0 instructions:   54000001 cycles:  106753182 heartbeat IPC: 0.57586 cumulative IPC: 0.42882 (Simulation time: 0 hr 2 min 55 sec) 
Heartbeat CPU  0 instructions:   55000001 cycles:  108418849 heartbeat IPC: 0.60036 cumulative IPC: 0.43156 (Simulation time: 0 hr 2 min 58 sec) 
Heartbeat CPU  0 instructions:   56000000 cycles:  110131018 heartbeat IPC: 0.58405 cumulative IPC: 0.43402 (Simulation time: 0 hr 3 min 1 sec) 
Heartbeat CPU  0 instructions:   57000002 cycles:  111826715 heartbeat IPC: 0.58973 cumulative IPC: 0.43647 (Simulation time: 0 hr 3 min 5 sec) 
Heartbeat CPU  0 instructions:   58000001 cycles:  113457427 heartbeat IPC: 0.61323 cumulative IPC: 0.43911 (Simulation time: 0 hr 3 min 8 sec) 
Heartbeat CPU  0 instructions:   59000002 cycles:  115247923 heartbeat IPC: 0.55850 cumulative IPC: 0.44103 (Simulation time: 0 hr 3 min 11 sec) 
Heartbeat CPU  0 instructions:   60000000 cycles:  116758191 heartbeat IPC: 0.66213 cumulative IPC: 0.44400 (Simulation time: 0 hr 3 min 15 sec) 
Finished CPU 0 instructions: 50000000 cycles: 112612768 cumulative IPC: 0.44400 (Simulation time: 0 hr 3 min 15 sec) 

ChampSim completed all CPUs

[ROI Statistics]
Core_0_instructions 50000000
Core_0_cycles 112612768
Core_0_IPC 0.44400

Core_0_branch_prediction_accuracy 99.44730
Core_0_branch_MPKI 0.03336
Core_0_average_ROB_occupancy_at_mispredict 251.79496

Core_0_L1D_total_access 18942517
Core_0_L1D_total_hit 14577108
Core_0_L1D_total_miss 4365409
Core_0_L1D_loads 12854264
Core_0_L1D_load_hit 8488858
Core_0_L1D_load_miss 4365406
Core_0_L1D_RFOs 6088253
Core_0_L1D_RFO_hit 6088250
Core_0_L1D_RFO_miss 3
Core_0_L1D_prefetches 0
Core_0_L1D_prefetch_hit 0
Core_0_L1D_prefetch_miss 0
Core_0_L1D_writebacks 0
Core_0_L1D_writeback_hit 0
Core_0_L1D_writeback_miss 0
Core_0_L1D_prefetch_requested 0
Core_0_L1D_prefetch_dropped 0
Core_0_L1D_prefetch_issued 0
Core_0_L1D_prefetch_filled 0
Core_0_L1D_prefetch_useful 0
Core_0_L1D_prefetch_useless 0
Core_0_L1D_prefetch_late 0
Core_0_L1D_average_miss_latency 55.57094

Core_0_L1D_rq_access 17751436
Core_0_L1D_rq_forward 0
Core_0_L1D_rq_merged 4885551
Core_0_L1D_rq_to_cache 12865781
Core_0_L1D_rq_full 0

Core_0_L1D_wq_access 6088692
Core_0_L1D_wq_forward 104
Core_0_L1D_wq_merged 428
Core_0_L1D_wq_to_cache 6088264
Core_0_L1D_wq_full 0

Core_0_L1D_pq_access 0
Core_0_L1D_pq_forward 0
Core_0_L1D_pq_merged 0
Core_0_L1D_pq_to_cache 0
Core_0_L1D_pq_full 0

Core_0_L1D_acc_epochs 95002
Core_0_L1D_acc_level_0 95002
Core_0_L1D_acc_level_1 0
Core_0_L1D_acc_level_2 0
Core_0_L1D_acc_level_3 0
Core_0_L1D_acc_level_4 0
Core_0_L1D_acc_level_5 0
Core_0_L1D_acc_level_6 0
Core_0_L1D_acc_level_7 0
Core_0_L1D_acc_level_8 0
Core_0_L1D_acc_level_9 0

Core_0_L1I_total_access 13123816
Core_0_L1I_total_hit 13123694
Core_0_L1I_total_miss 122
Core_0_L1I_loads 13123816
Core_0_L1I_load_hit 13123694
Core_0_L1I_load_miss 122
Core_0_L1I_RFOs 0
Core_0_L1I_RFO_hit 0
Core_0_L1I_RFO_miss 0
Core_0_L1I_prefetches 0
Core_0_L1I_prefetch_hit 0
Core_0_L1I_prefetch_miss 0
Core_0_L1I_writebacks 0
Core_0_L1I_writeback_hit 0
Core_0_L1I_writeback_miss 0
Core_0_L1I_prefetch_requested 0
Core_0_L1I_prefetch_dropped 0
Core_0_L1I_prefetch_issued 0
Core_0_L1I_prefetch_filled 0
Core_0_L1I_prefetch_useful 0
Core_0_L1I_prefetch_useless 0
Core_0_L1I_prefetch_late 0
Core_0_L1I_average_miss_latency 215.81967

Core_0_L1I_rq_access 50000007
Core_0_L1I_rq_forward 0
Core_0_L1I_rq_merged 36876155
Core_0_L1I_rq_to_cache 13123852
Core_0_L1I_rq_full 0

Core_0_L1I_wq_access 0
Core_0_L1I_wq_forward 0
Core_0_L1I_wq_merged 0
Core_0_L1I_wq_to_cache 0
Core_0_L1I_wq_full 0

Core_0_L1I_pq_access 0
Core_0_L1I_pq_forward 0
Core_0_L1I_pq_merged 0
Core_0_L1I_pq_to_cache 0
Core_0_L1I_pq_full 0

Core_0_L1I_acc_epochs 95002
Core_0_L1I_acc_level_0 95002
Core_0_L1I_acc_level_1 0
Core_0_L1I_acc_level_2 0
Core_0_L1I_acc_level_3 0
Core_0_L1I_acc_level_4 0
Core_0_L1I_acc_level_5 0
Core_0_L1I_acc_level_6 0
Core_0_L1I_acc_level_7 0
Core_0_L1I_acc_level_8 0
Core_0_L1I_acc_level_9 0

Core_0_L2C_total_access 11271553
Core_0_L2C_total_hit 8273671
Core_0_L2C_total_miss 2997882
Core_0_L2C_loads 4365527
Core_0_L2C_load_hit 3075758
Core_0_L2C_load_miss 1289769
Core_0_L2C_RFOs 3
Core_0_L2C_RFO_hit 3
Core_0_L2C_RFO_miss 0
Core_0_L2C_prefetches 6134116
Core_0_L2C_prefetch_hit 4426077
Core_0_L2C_prefetch_miss 1708039
Core_0_L2C_writebacks 771907
Core_0_L2C_writeback_hit 771833
Core_0_L2C_writeback_miss 74
Core_0_L2C_prefetch_requested 6621313
Core_0_L2C_prefetch_dropped 236
Core_0_L2C_prefetch_issued 6621077
Core_0_L2C_prefetch_filled 1799957
Core_0_L2C_prefetch_useful 884655
Core_0_L2C_prefetch_useless 914373
Core_0_L2C_prefetch_late 35376
Core_0_L2C_average_miss_latency 98.86626

Core_0_L2C_rq_access 4365531
Core_0_L2C_rq_forward 0
Core_0_L2C_rq_merged 0
Core_0_L2C_rq_to_cache 4365530
Core_0_L2C_rq_full 0

Core_0_L2C_wq_access 771907
Core_0_L2C_wq_forward 1
Core_0_L2C_wq_merged 0
Core_0_L2C_wq_to_cache 771907
Core_0_L2C_wq_full 0

Core_0_L2C_pq_access 6621077
Core_0_L2C_pq_forward 0
Core_0_L2C_pq_merged 1055
Core_0_L2C_pq_to_cache 6620022
Core_0_L2C_pq_full 0

Core_0_L2C_acc_epochs 95002
Core_0_L2C_acc_level_0 247
Core_0_L2C_acc_level_1 712
Core_0_L2C_acc_level_2 5001
Core_0_L2C_acc_level_3 15340
Core_0_L2C_acc_level_4 26796
Core_0_L2C_acc_level_5 25558
Core_0_L2C_acc_level_6 12314
Core_0_L2C_acc_level_7 4314
Core_0_L2C_acc_level_8 1544
Core_0_L2C_acc_level_9 3176

Core_0_LLC_total_access 3253401
Core_0_LLC_total_hit 2200507
Core_0_LLC_total_miss 1052894
Core_0_LLC_loads 1254517
Core_0_LLC_load_hit 705642
Core_0_LLC_load_miss 548875
Core_0_LLC_RFOs 0
Core_0_LLC_RFO_hit 0
Core_0_LLC_RFO_miss 0
Core_0_LLC_prefetches 1742657
Core_0_LLC_prefetch_hit 1238727
Core_0_LLC_prefetch_miss 503930
Core_0_LLC_writebacks 256227
Core_0_LLC_writeback_hit 256138
Core_0_LLC_writeback_miss 89
Core_0_LLC_prefetch_requested 0
Core_0_LLC_prefetch_dropped 0
Core_0_LLC_prefetch_issued 0
Core_0_LLC_prefetch_filled 555747
Core_0_LLC_prefetch_useful 130287
Core_0_LLC_prefetch_useless 415703
Core_0_LLC_prefetch_late 0
Core_0_LLC_average_miss_latency 186.30932

Core_0_LLC_rq_access 1254543
Core_0_LLC_rq_forward 0
Core_0_LLC_rq_merged 0
Core_0_LLC_rq_to_cache 1254517
Core_0_LLC_rq_full 0

Core_0_LLC_wq_access 256227
Core_0_LLC_wq_forward 634
Core_0_LLC_wq_merged 0
Core_0_LLC_wq_to_cache 256227
Core_0_LLC_wq_full 0

Core_0_LLC_pq_access 1835333
Core_0_LLC_pq_forward 0
Core_0_LLC_pq_merged 0
Core_0_LLC_pq_to_cache 1834725
Core_0_LLC_pq_full 0

Core_0_LLC_acc_epochs 114022
Core_0_LLC_acc_level_0 49629
Core_0_LLC_acc_level_1 15308
Core_0_LLC_acc_level_2 7546
Core_0_LLC_acc_level_3 5964
Core_0_LLC_acc_level_4 5614
Core_0_LLC_acc_level_5 6142
Core_0_LLC_acc_level_6 5252
Core_0_LLC_acc_level_7 4266
Core_0_LLC_acc_level_8 3286
Core_0_LLC_acc_level_9 11015

Core_0_major_page_fault 0
Core_0_minor_page_fault 67715

scooby_st_lookup 4545750
scooby_st_hit 2938416
scooby_st_evict 1607270
scooby_st_insert 1607334
scooby_st_streaming 0

scooby_predict_called 4545750
scooby_predict_out_of_bounds 748379
scooby_predict_action_1 1602547
scooby_predict_issue_action_1 1537368
scooby_predict_hit_action_1 65179
scooby_predict_out_of_bounds_action_1 26833
scooby_predict_action_3 146182
scooby_predict_issue_action_3 145864
scooby_predict_hit_action_3 318
scooby_predict_out_of_bounds_action_3 7152
scooby_predict_action_4 3746
scooby_predict_issue_action_4 3735
scooby_predict_hit_action_4 11
scooby_predict_out_of_bounds_action_4 283
scooby_predict_action_5 4289
scooby_predict_issue_action_5 4275
scooby_predict_hit_action_5 14
scooby_predict_out_of_bounds_action_5 440
scooby_predict_action_10 3247
scooby_predict_issue_action_10 3232
scooby_predict_hit_action_10 15
scooby_predict_out_of_bounds_action_10 790
scooby_predict_action_11 875873
scooby_predict_issue_action_11 869005
scooby_predict_hit_action_11 6868
scooby_predict_out_of_bounds_action_11 182264
scooby_predict_action_12 3799
scooby_predict_issue_action_12 3644
scooby_predict_hit_action_12 155
scooby_predict_out_of_bounds_action_12 1180
scooby_predict_action_22 80807
scooby_predict_issue_action_22 80807
scooby_predict_hit_action_22 0
scooby_predict_out_of_bounds_action_22 22340
scooby_predict_action_23 956985
scooby_predict_issue_action_23 956803
scooby_predict_hit_action_23 182
scooby_predict_out_of_bounds_action_23 502090
scooby_predict_action_30 14899
scooby_predict_issue_action_30 14899
scooby_predict_hit_action_30 0
scooby_predict_out_of_bounds_action_30 2833
scooby_predict_action_32 1543
scooby_predict_issue_action_32 1543
scooby_predict_hit_action_32 0
scooby_predict_out_of_bounds_action_32 1773
scooby_predict_action_-1 5136
scooby_predict_issue_action_-1 4234
scooby_predict_hit_action_-1 902
scooby_predict_out_of_bounds_action_-1 43
scooby_predict_action_-3 4081
scooby_predict_issue_action_-3 3922
scooby_predict_hit_action_-3 159
scooby_predict_out_of_bounds_action_-3 132
scooby_predict_action_-6 3841
scooby_predict_issue_action_-6 3696
scooby_predict_hit_action_-6 145
scooby_predict_out_of_bounds_action_-6 226
scooby_predict_action_0 90396
scooby_predict_issue_action_0 0
scooby_predict_hit_action_0 0
scooby_predict_out_of_bounds_action_0 0
scooby_predict_multi_deg_called 1009167
scooby_predict_predicted 6621313
scooby_predict_multi_deg 2988286
scooby_predict_multi_deg_2 807986
scooby_predict_multi_deg_3 626379
scooby_predict_multi_deg_4 599619
scooby_predict_multi_deg_5 484490
scooby_predict_multi_deg_6 469812
scooby_predict_multi_deg_7 0
scooby_predict_multi_deg_8 0
scooby_predict_multi_deg_9 0
scooby_predict_multi_deg_10 0
scooby_predict_multi_deg_11 0
scooby_predict_multi_deg_12 0
scooby_predict_multi_deg_13 0
scooby_predict_multi_deg_14 0
scooby_predict_multi_deg_15 0
scooby_predict_multi_deg_16 0

scooby_selected_deg_1 2623860
scooby_selected_deg_2 326923
scooby_selected_deg_3 0
scooby_selected_deg_4 94446
scooby_selected_deg_5 0
scooby_selected_deg_6 587798
scooby_selected_deg_7 0
scooby_selected_deg_8 0
scooby_selected_deg_9 0
scooby_selected_deg_10 0
scooby_selected_deg_11 0
scooby_selected_deg_12 0
scooby_selected_deg_13 0
scooby_selected_deg_14 0
scooby_selected_deg_15 0
scooby_selected_deg_16 0

scooby_state_42b00e|27|0 1045,3,1,2,1,1,0,2,2,1,2,2,1,0,1,1064,
scooby_state_42b13d|42|0 1034,3,2,1,1,1,2,2,2,2,2,1,3,1,5,1062,
scooby_state_42b13d|32|0 1032,0,2,1,2,2,0,2,1,0,2,3,1,5,9,1062,
scooby_state_42b00e|36|0 1043,2,1,2,1,1,0,1,2,1,3,1,1,2,1,1062,
scooby_state_42b00e|28|0 1040,4,0,1,0,0,2,0,1,0,0,4,3,2,3,1060,
scooby_state_42b00e|37|0 1041,3,1,1,0,0,2,0,1,1,0,3,2,2,3,1060,
scooby_state_42b13d|41|0 1039,0,1,0,2,2,0,2,1,0,0,3,1,2,7,1060,
scooby_state_42b13d|33|0 1032,3,1,1,1,0,1,1,2,3,2,4,2,2,5,1060,
scooby_state_42b00e|29|0 1039,0,1,0,0,2,0,3,1,0,1,0,2,1,2,1052,
scooby_state_42b00e|38|0 1037,0,0,0,1,2,0,3,1,0,1,0,2,0,1,1048,
scooby_state_42b13d|40|0 1019,3,1,2,3,1,2,0,3,1,2,1,1,3,6,1048,
scooby_state_42b13d|34|0 1031,0,0,0,0,1,1,1,1,1,1,3,2,2,4,1048,
scooby_state_42b00e|34|0 1028,1,2,4,2,1,1,1,1,2,1,1,0,0,3,1048,
scooby_state_42b13d|30|0 1019,1,4,2,1,2,0,1,2,0,0,1,1,0,14,1048,
scooby_state_42b13d|44|0 1018,2,0,1,1,2,2,1,2,3,2,3,0,0,11,1048,
scooby_state_42b13d|23|0 1019,0,3,0,1,3,1,1,2,1,1,3,2,1,10,1048,
scooby_state_42b13d|37|0 1024,2,1,1,2,1,1,1,1,2,1,0,0,0,11,1048,
scooby_state_42b13d|51|0 1019,1,2,2,2,2,1,1,2,1,2,2,2,1,8,1048,
scooby_state_42b13d|43|0 1028,2,1,1,0,1,1,1,1,0,0,3,2,2,3,1046,
scooby_state_42b00e|46|0 1028,2,2,1,0,0,0,1,1,1,0,1,1,3,5,1046,
scooby_state_42b00e|35|0 1027,2,1,1,0,1,2,1,2,1,1,1,2,2,2,1046,
scooby_state_42b00e|18|0 1026,3,1,2,0,2,0,2,3,0,2,2,1,0,2,1046,
scooby_state_42b00e|39|0 1022,3,1,3,2,0,2,0,0,1,1,2,1,1,7,1046,
scooby_state_42b13d|35|0 1017,3,0,1,1,3,1,2,2,4,1,1,1,1,8,1046,
scooby_state_42b13d|31|0 1022,2,2,3,2,1,2,1,1,0,1,0,1,4,4,1046,
scooby_state_42b13d|39|0 1020,1,3,1,1,2,1,1,0,0,0,2,1,1,12,1046,
scooby_state_42b00e|25|0 1025,2,1,4,1,2,0,1,1,1,1,1,0,2,4,1046,
scooby_state_42b00e|32|0 1026,0,2,2,1,2,1,0,0,2,0,0,0,2,8,1046,
scooby_state_42b00e|19|0 1024,1,0,1,1,0,2,0,2,0,1,2,4,1,5,1044,
scooby_state_42b00e|30|0 1024,1,2,2,2,0,2,0,0,1,0,1,2,1,6,1044,
scooby_state_42b13d|24|0 1021,3,0,1,1,1,1,2,3,1,2,1,3,1,3,1044,
scooby_state_42b00e|26|0 1025,1,2,1,1,2,2,0,2,1,0,2,1,2,2,1044,
scooby_state_42b13d|50|0 1024,1,1,1,1,0,0,2,0,0,0,3,0,2,9,1044,
scooby_state_42b00e|45|0 1022,1,1,3,1,3,4,1,2,2,1,0,1,1,1,1044,
scooby_state_42b01a|6|0 1,0,1,0,0,0,0,0,1036,0,1,0,1,0,0,1040,
scooby_state_42b01a|3|0 0,0,1,0,0,1,0,0,1038,0,0,0,0,0,0,1040,
scooby_state_42a473|5|0 2,0,0,0,0,1037,1,0,0,0,0,0,0,0,0,1040,
scooby_state_42b142|5|0 5,2,0,0,0,725,0,0,307,0,0,0,1,0,0,1040,
scooby_state_42a9df|5|0 0,1,1,0,0,1036,0,1,0,0,0,0,0,0,1,1040,
scooby_state_42a473|3|0 2,1,0,0,0,1036,1,0,0,0,0,0,0,0,0,1040,
scooby_state_42a594|6|0 0,0,1,1,0,1035,1,0,0,1,0,0,0,0,1,1040,
scooby_state_42a594|3|0 1,1,0,0,0,1038,0,0,0,0,0,0,0,0,0,1040,
scooby_state_42b142|1|0 3,3,0,0,0,724,0,0,307,0,1,0,0,2,0,1040,
scooby_state_42aaff|1|0 2,0,0,0,0,1038,0,0,0,0,0,0,0,0,0,1040,
scooby_state_42af5e|1|0 3,0,0,0,0,1036,0,0,0,1,0,0,0,0,0,1040,
scooby_state_42b082|1|0 0,0,0,0,0,0,0,0,1040,0,0,0,0,0,0,1040,
scooby_state_42b01a|4|0 0,0,0,0,0,2,0,0,1035,0,0,0,0,0,3,1040,
scooby_state_42aa9a|7|0 0,2,0,0,1,1034,0,0,1,1,0,1,0,0,0,1040,
scooby_state_42abc8|2|0 0,0,1,0,0,1038,0,0,0,0,0,0,0,1,0,1040,
scooby_state_42a538|2|0 3,1,0,0,1,1034,0,1,0,0,0,0,0,0,0,1040,
scooby_state_42b01a|9|0 0,0,0,2,0,1,1,0,1032,0,0,0,1,1,2,1040,
scooby_state_42a3fa|3|0 1,0,0,1,0,1038,0,0,0,0,0,0,0,0,0,1040,
scooby_state_42af5e|9|0 2,0,0,0,0,1035,0,0,0,0,0,1,1,0,1,1040,
scooby_state_42abc8|7|0 0,0,0,0,0,1039,0,0,0,0,1,0,0,0,0,1040,
scooby_state_42a594|4|0 0,6,0,0,0,1032,1,0,1,0,0,0,0,0,0,1040,
scooby_state_42abc8|4|0 0,0,0,0,0,1037,0,0,0,0,0,3,0,0,0,1040,
scooby_state_42b142|6|0 0,0,0,0,0,722,0,0,316,1,0,0,1,0,0,1040,
scooby_state_42a473|2|0 3,0,1,0,0,1035,0,0,0,0,0,0,0,0,1,1040,
scooby_state_42a594|2|0 0,1,0,1,1,1036,0,0,0,0,0,1,0,0,0,1040,
scooby_state_42a538|7|0 2,1,0,0,0,1034,2,0,0,0,0,0,0,0,1,1040,
scooby_state_42a594|10|0 0,3,0,0,0,1036,0,1,0,0,0,0,0,0,0,1040,
scooby_state_42b082|4|0 0,0,0,0,0,0,0,1,1038,0,0,1,0,0,0,1040,
scooby_state_42b082|9|0 0,0,0,0,0,0,0,0,1040,0,0,0,0,0,0,1040,
scooby_state_42aa9a|8|0 0,3,0,4,0,1032,0,0,0,0,1,0,0,0,0,1040,
scooby_state_42aaff|6|0 0,0,0,0,1,1038,0,1,0,0,0,0,0,0,0,1040,
scooby_state_42b082|5|0 0,0,0,0,0,0,0,0,1040,0,0,0,0,0,0,1040,
scooby_state_42b01a|5|0 0,0,1,0,1,2,0,2,1030,0,0,0,0,1,3,1040,
scooby_state_42af5e|5|0 3,0,0,1,0,1036,0,0,0,0,0,0,0,0,0,1040,
scooby_state_42a9df|6|0 0,0,0,0,0,1039,0,0,0,1,0,0,0,0,0,1040,
scooby_state_42b00e|20|0 1029,1,1,0,0,2,1,2,1,0,1,0,1,0,1,1040,
scooby_state_42a3fa|8|0 2,0,2,0,0,1033,2,0,0,0,1,0,0,0,0,1040,
scooby_state_42abc8|1|0 0,0,0,0,1,1038,0,0,0,0,0,1,0,0,0,1040,
scooby_state_42a9df|7|0 0,0,0,0,0,1040,0,0,0,0,0,0,0,0,0,1040,
scooby_state_42b01a|2|0 0,0,2,0,0,1,0,1,1034,0,1,0,1,0,0,1040,
scooby_state_42abc8|5|0 0,1,0,0,1,1038,0,0,0,0,0,0,0,0,0,1040,
scooby_state_42b142|3|0 2,0,0,0,0,714,0,0,322,0,0,0,1,0,1,1040,
scooby_state_42a538|8|0 3,1,0,0,0,1035,0,0,0,0,1,0,0,0,0,1040,
scooby_state_42abc8|3|0 0,0,0,0,0,1038,1,0,0,1,0,0,0,0,0,1040,
scooby_state_42a538|10|0 1,1,0,0,0,1038,0,0,0,0,0,0,0,0,0,1040,
scooby_state_42a9df|9|0 1,0,0,0,0,1037,0,1,0,0,0,0,1,0,0,1040,
scooby_state_42a533|11|0 1002,2,1,2,2,5,2,4,1,3,2,1,2,3,8,1040,
scooby_state_42aaff|7|0 0,0,0,0,0,1039,0,0,0,0,0,0,0,0,1,1040,
scooby_state_42a3fa|10|0 2,0,0,0,0,1037,0,0,0,1,0,0,0,0,0,1040,
scooby_state_42af5e|6|0 0,0,0,0,0,1039,0,0,0,0,0,1,0,0,0,1040,
scooby_state_42a473|8|0 2,1,0,0,0,1037,0,0,0,0,0,0,0,0,0,1040,
scooby_state_42b01a|1|0 0,0,0,0,0,2,0,0,1034,0,1,0,0,0,3,1040,
scooby_state_42a3fa|1|0 2,0,1,0,0,1037,0,0,0,0,0,0,0,0,0,1040,
scooby_state_42a473|1|0 3,0,0,0,0,1036,0,0,0,0,0,0,0,1,0,1040,
scooby_state_42a538|1|0 3,1,0,0,0,1034,0,0,1,1,0,0,0,0,0,1040,
scooby_state_42b142|8|0 4,3,0,0,0,723,1,2,307,0,0,0,0,0,0,1040,
scooby_state_42a473|6|0 0,0,0,0,0,1040,0,0,0,0,0,0,0,0,0,1040,
scooby_state_42a9df|1|0 0,1,1,0,1,1037,0,0,0,0,0,0,0,0,0,1040,
scooby_state_42a3fa|2|0 1,1,0,1,0,1037,0,0,0,0,0,0,0,0,0,1040,
scooby_state_42a3fa|5|0 2,0,1,0,1,1032,0,0,2,0,1,0,0,0,1,1040,
scooby_state_42aa9a|4|0 0,3,0,4,0,1031,0,0,0,0,0,1,1,0,0,1040,
scooby_state_42a594|7|0 0,2,1,0,0,1037,0,0,0,0,0,0,0,0,0,1040,
scooby_state_42a3fa|9|0 0,0,0,1,0,1037,0,0,0,0,0,0,0,1,1,1040,
scooby_state_42a594|1|0 1,3,0,0,0,1036,0,0,0,0,0,0,0,0,0,1040,
scooby_state_42a473|10|0 3,0,0,0,0,1037,0,0,0,0,0,0,0,0,0,1040,
scooby_state_42b01a|8|0 0,0,0,0,0,0,0,0,1035,0,0,0,0,0,5,1040,
scooby_state_42af5e|2|0 1,0,0,0,1,1037,0,1,0,0,0,0,0,0,0,1040,
scooby_state_42a3fa|7|0 1,0,0,1,1,1034,0,0,0,1,1,0,1,0,0,1040,
scooby_state_42a594|5|0 0,4,0,0,0,1035,0,1,0,0,0,0,0,0,0,1040,
scooby_state_42a3fa|4|0 3,0,0,0,1,1033,1,0,0,0,0,1,0,0,1,1040,
scooby_state_42aa9a|1|0 0,1,0,3,1,1033,0,0,0,0,0,0,1,1,0,1040,
scooby_state_42a9df|4|0 0,0,0,0,0,1039,0,0,0,0,0,0,0,1,0,1040,
scooby_state_42aaff|4|0 0,0,0,0,0,1040,0,0,0,0,0,0,0,0,0,1040,
scooby_state_42a538|6|0 0,1,0,0,0,1038,0,0,0,0,0,0,0,0,1,1040,
scooby_state_42a538|3|0 2,1,0,0,0,1037,0,0,0,0,0,0,0,0,0,1040,
scooby_state_42b082|8|0 0,0,0,0,0,0,0,0,1039,0,1,0,0,0,0,1040,
scooby_state_42b082|2|0 0,0,0,0,0,0,0,0,1040,0,0,0,0,0,0,1040,
scooby_state_42a473|9|0 3,0,0,0,2,1033,0,0,0,0,0,0,0,2,0,1040,
scooby_state_42a538|4|0 2,1,0,0,0,1036,1,0,0,0,0,0,0,0,0,1040,
scooby_state_42a594|9|0 0,0,0,0,0,1038,0,0,1,0,0,0,1,0,0,1040,
scooby_state_42a9df|2|0 0,0,0,0,0,1037,0,0,0,0,1,0,0,0,2,1040,
scooby_state_42a538|5|0 3,1,0,0,0,1034,1,0,1,0,0,0,0,0,0,1040,
scooby_state_42aa9a|5|0 0,0,0,2,0,1037,0,0,0,0,1,0,0,0,0,1040,
scooby_state_42af5e|7|0 0,1,0,1,0,1037,0,0,0,0,0,0,0,0,1,1040,
scooby_state_42aaff|9|0 1,0,0,0,0,1036,0,0,0,0,0,0,1,2,0,1040,
scooby_state_42aa9a|3|0 2,1,0,0,0,1035,0,0,0,1,1,0,0,0,0,1040,
scooby_state_42b01a|10|0 0,0,1,0,1,1,0,0,1036,0,1,0,0,0,0,1040,
scooby_state_42aaff|8|0 0,0,0,0,0,1038,0,0,0,0,1,0,0,0,1,1040,
scooby_state_42aa9a|10|0 0,0,0,0,0,1040,0,0,0,0,0,0,0,0,0,1040,
scooby_state_42af5e|10|0 1,1,1,0,0,1036,0,0,0,1,0,0,0,0,0,1040,
scooby_state_42aaff|10|0 0,0,0,0,0,1039,0,0,0,0,0,0,0,0,1,1040,
scooby_state_42a9df|8|0 0,0,0,1,0,1038,0,0,1,0,0,0,0,0,0,1040,
scooby_state_42aa9a|9|0 0,0,0,1,0,1039,0,0,0,0,0,0,0,0,0,1040,
scooby_state_42a9df|3|0 0,0,0,0,0,1040,0,0,0,0,0,0,0,0,0,1040,
scooby_state_42a9df|10|0 0,0,0,0,0,1039,1,0,0,0,0,0,0,0,0,1040,
scooby_state_42b01a|7|0 0,0,0,0,0,0,0,0,1038,0,0,0,1,0,1,1040,
scooby_state_42aa9a|2|0 0,0,1,0,0,1039,0,0,0,0,0,0,0,0,0,1040,
scooby_state_42b142|4|0 4,3,0,0,0,729,0,0,304,0,0,0,0,0,0,1040,
scooby_state_42abc8|10|0 0,0,0,0,0,1040,0,0,0,0,0,0,0,0,0,1040,
scooby_state_42a538|9|0 3,1,0,0,1,1034,0,0,0,0,0,1,0,0,0,1040,
scooby_state_42b082|7|0 0,0,0,0,0,0,0,0,1040,0,0,0,0,0,0,1040,
scooby_state_42a473|4|0 3,1,0,0,0,1034,1,0,0,0,1,0,0,0,0,1040,
scooby_state_42aaff|3|0 1,1,1,0,0,1034,1,0,0,0,0,0,1,0,1,1040,
scooby_state_42b142|2|0 0,1,0,0,0,726,0,0,313,0,0,0,0,0,0,1040,
scooby_state_42abc8|6|0 0,0,0,0,0,1039,0,0,0,0,0,0,0,1,0,1040,
scooby_state_42af5e|4|0 3,0,0,2,0,1034,0,0,0,1,0,0,0,0,0,1040,
scooby_state_42b082|6|0 0,1,0,0,0,0,0,1,1038,0,0,0,0,0,0,1040,
scooby_state_42b142|10|0 0,0,0,0,0,711,0,0,329,0,0,0,0,0,0,1040,
scooby_state_42a3fa|6|0 0,0,0,0,0,1038,0,0,0,0,0,0,0,1,1,1040,
scooby_state_42abc8|9|0 0,0,0,0,0,1037,0,0,0,0,1,1,0,1,0,1040,
scooby_state_42a594|8|0 0,3,0,0,0,1037,0,0,0,0,0,0,0,0,0,1040,
scooby_state_42aa9a|6|0 0,0,0,1,0,1039,0,0,0,0,0,0,0,0,0,1040,
scooby_state_42aaff|2|0 0,0,0,0,0,1039,0,1,0,0,0,0,0,0,0,1040,
scooby_state_42b142|7|0 1,1,0,0,0,718,0,1,316,1,0,0,1,0,1,1040,
scooby_state_42b082|10|0 0,2,0,0,0,0,0,0,1037,0,1,0,0,0,0,1040,
scooby_state_42b082|3|0 0,0,1,0,0,0,0,0,1039,0,0,0,0,0,0,1040,
scooby_state_42af5e|3|0 0,0,0,0,0,1038,0,1,0,0,0,1,0,0,0,1040,
scooby_state_42a473|7|0 4,0,0,0,0,1033,2,1,0,0,0,0,0,0,0,1040,
scooby_state_42af5e|8|0 4,0,1,1,0,1033,0,0,1,0,0,0,0,0,0,1040,
scooby_state_42b142|9|0 1,3,0,0,0,724,0,0,310,0,0,1,0,1,0,1040,
scooby_state_42abc8|8|0 0,1,1,0,0,1037,0,0,0,0,0,0,0,0,1,1040,
scooby_state_42aaff|5|0 0,0,0,0,0,1038,0,0,1,0,0,0,1,0,0,1040,
scooby_state_42a9da|56|0 16,2,1,1,0,2,1,1,1012,0,0,0,0,1,1,1038,
scooby_state_42b07d|60|0 1023,0,1,3,1,1,0,0,0,0,2,1,1,1,4,1038,
scooby_state_42af52|55|0 1020,2,2,1,1,2,3,1,2,0,0,1,0,1,2,1038,
scooby_state_42af52|45|0 1017,3,1,1,1,3,1,1,2,1,1,0,2,2,2,1038,
scooby_state_42b07d|56|0 1020,2,1,2,1,2,2,1,1,1,0,1,0,1,3,1038,
scooby_state_42af52|5|0 1020,0,1,1,1,3,2,1,4,1,0,1,1,0,2,1038,
scooby_state_42af52|2|0 1020,2,0,1,2,2,0,0,3,1,1,2,0,2,2,1038,
scooby_state_42af52|48|0 1019,1,1,1,1,3,2,2,3,1,0,1,0,1,2,1038,
scooby_state_42af52|58|0 1020,2,4,2,0,1,2,0,3,0,1,0,0,1,2,1038,
scooby_state_42a3f5|56|0 18,0,1,1,2,5,0,0,1003,0,0,2,1,1,4,1038,
scooby_state_42af52|44|0 1017,3,3,2,0,1,2,1,2,1,0,1,0,1,4,1038,
scooby_state_42af52|52|0 1021,2,0,1,3,1,0,1,2,0,1,2,0,2,2,1038,
scooby_state_42b07d|13|0 1018,2,1,0,2,4,2,2,1,1,0,0,2,0,3,1038,
scooby_state_42b07d|46|0 1022,0,2,2,1,1,0,0,1,0,1,1,1,1,5,1038,
scooby_state_42b07d|52|0 1016,1,1,0,0,5,3,1,2,2,1,1,1,1,3,1038,
scooby_state_42af52|38|0 1019,2,1,0,1,4,0,2,1,2,1,0,2,2,1,1038,
scooby_state_42b07d|53|0 1021,0,1,2,1,2,1,1,1,0,1,1,1,1,4,1038,
scooby_state_42b07d|63|0 1019,2,0,3,1,2,2,2,1,1,0,1,1,1,2,1038,
scooby_state_42b07d|9|0 1016,2,0,0,2,5,3,1,2,0,1,1,2,0,3,1038,
scooby_state_42a533|13|0 991,3,4,1,1,8,4,2,1,1,2,6,6,2,6,1038,
scooby_state_42af52|34|0 1019,3,0,2,2,2,0,1,2,0,0,2,2,1,2,1038,
scooby_state_42b07d|42|0 1020,2,1,3,0,2,1,2,1,1,1,1,0,1,2,1038,
scooby_state_42b07d|59|0 1017,3,1,0,0,4,2,2,1,3,0,1,1,1,2,1038,
scooby_state_42af52|31|0 1021,1,1,0,0,5,0,1,2,2,1,1,2,1,0,1038,
scooby_state_42b07d|2|0 1020,2,0,0,0,5,3,2,2,0,1,1,1,0,1,1038,
scooby_state_42a3f5|45|0 32,1,0,1,0,4,1,0,992,1,0,1,1,1,3,1038,
scooby_state_42af52|37|0 1020,2,2,4,1,0,0,0,1,2,0,2,0,1,3,1038,
scooby_state_42b07d|17|0 1019,1,1,0,1,4,0,2,0,2,1,1,3,0,3,1038,
scooby_state_42b07d|6|0 1020,2,2,1,2,2,2,1,1,1,1,0,2,0,1,1038,
scooby_state_42af52|62|0 1021,0,1,1,1,2,3,0,3,1,0,1,0,1,3,1038,
scooby_state_42a533|20|0 993,4,2,3,2,7,4,0,2,1,1,6,5,0,8,1038,
scooby_state_42b07d|10|0 1023,1,1,1,1,2,0,2,0,2,1,1,1,0,2,1038,
scooby_state_42b07d|45|0 1018,1,2,0,0,5,2,2,1,2,1,1,1,0,2,1038,
scooby_state_42af52|30|0 1019,2,2,1,1,0,0,0,3,1,1,2,0,1,5,1038,
scooby_state_42aafa|11|0 972,6,2,2,1,11,1,2,4,1,5,3,3,2,23,1038,
scooby_state_42af52|59|0 1021,2,0,1,2,2,0,0,1,1,1,2,0,3,2,1038,
scooby_state_42b07d|49|0 1020,1,2,2,1,3,1,2,0,1,1,1,0,1,2,1038,
scooby_state_42af52|51|0 1019,2,3,3,0,1,2,1,2,0,1,0,0,1,3,1038,
scooby_state_42af52|1|0 1016,1,4,2,2,2,2,0,3,0,1,0,1,0,4,1038,
scooby_state_42b07d|3|0 1022,0,1,1,1,1,0,2,0,2,2,3,0,1,2,1038,
scooby_state_42b07d|16|0 1018,2,0,0,1,3,3,1,1,1,1,1,1,1,4,1038,
scooby_state_42a533|0|0 996,1,3,3,2,8,3,2,1,4,1,0,3,2,9,1038,
scooby_state_42aafa|13|0 973,8,2,4,6,7,2,2,3,1,2,2,1,0,25,1038,
scooby_state_42af52|41|0 1022,2,0,1,2,1,1,1,3,0,0,1,1,1,2,1038,
scooby_state_42a9da|14|0 11,2,1,1,0,4,1,2,1013,0,0,0,0,0,2,1037,
scooby_state_42a3f5|23|0 14,1,1,0,1,6,0,0,1012,1,0,1,0,0,0,1037,
scooby_state_42aafa|20|0 976,7,1,4,3,7,2,2,2,2,2,1,1,4,22,1036,
scooby_state_42a9da|45|0 30,0,1,0,0,2,1,0,997,0,0,1,1,2,1,1036,
scooby_state_42b13d|49|0 1006,2,2,2,1,3,2,1,1,0,3,2,2,1,8,1036,
scooby_state_42aafa|2|0 975,8,1,3,3,8,1,2,0,1,3,3,2,2,24,1036,
scooby_state_42a9df|0|0 0,0,0,0,0,1036,0,0,0,0,0,0,0,0,0,1036,
scooby_state_42aafa|15|0 971,7,3,1,2,10,3,2,0,2,1,2,1,1,30,1036,
scooby_state_42a594|0|0 1,3,0,1,0,1031,0,0,0,0,0,0,0,0,0,1036,
scooby_state_42a3f5|58|0 25,0,1,0,2,8,0,0,996,1,0,0,1,1,1,1036,
scooby_state_42aaff|0|0 0,0,1,0,0,1033,0,0,1,0,0,1,0,0,0,1036,
scooby_state_42a533|4|0 985,2,2,2,4,9,3,4,1,5,2,0,3,3,11,1036,
scooby_state_42aa9a|0|0 1,3,0,3,0,1027,1,1,0,0,0,0,0,0,0,1036,
scooby_state_42a3fa|0|0 2,0,0,0,1,1032,0,0,0,1,0,0,0,0,0,1036,
scooby_state_42abc8|0|0 0,0,0,0,0,1036,0,0,0,0,0,0,0,0,0,1036,
scooby_state_42a3f5|47|0 41,1,0,1,1,5,0,1,978,1,2,1,0,3,1,1036,
scooby_state_42a9da|43|0 30,3,0,0,1,4,1,0,990,0,2,3,0,0,2,1036,
scooby_state_42a3f5|54|0 33,1,0,1,1,2,0,0,991,2,1,1,0,2,1,1036,
scooby_state_42b01a|0|0 0,0,0,0,0,4,0,0,1027,0,0,1,1,0,3,1036,
scooby_state_42a533|2|0 986,3,4,4,1,7,1,1,1,5,5,4,1,2,11,1036,
scooby_state_42a9da|47|0 43,3,1,0,0,3,0,0,979,0,2,2,1,0,2,1036,
scooby_state_42aafa|0|0 968,10,2,4,1,8,2,2,4,2,2,4,5,1,21,1036,
scooby_state_42a9da|58|0 21,4,1,1,1,0,0,1,1005,1,1,0,0,0,0,1036,
scooby_state_42af5e|0|0 3,0,0,0,0,1030,0,1,0,0,0,0,0,2,0,1036,
scooby_state_42b082|0|0 0,0,0,0,0,1,1,0,1033,0,1,0,0,0,0,1036,
scooby_state_42a3f5|34|0 14,0,2,0,0,7,0,0,1010,0,0,1,0,0,2,1036,
scooby_state_42b142|0|0 4,2,0,1,0,722,0,0,307,0,0,0,0,0,0,1036,
scooby_state_42b13d|25|0 1019,1,1,0,0,1,1,1,1,1,1,3,1,2,3,1036,
scooby_state_42a3f5|43|0 34,2,1,0,1,3,1,2,984,1,3,1,0,1,2,1036,
scooby_state_42a3f5|63|0 16,0,2,1,0,6,0,0,1009,0,0,1,0,0,1,1036,
scooby_state_42aafa|4|0 967,5,3,3,1,12,1,3,5,1,4,2,2,2,25,1036,
scooby_state_42a3f5|12|0 21,2,0,0,2,2,0,0,1007,0,1,0,1,0,0,1036,
scooby_state_42a538|0|0 3,2,0,0,1,1029,1,0,0,0,0,0,0,0,0,1036,
scooby_state_42a473|0|0 3,2,1,0,0,1027,2,0,0,0,1,0,0,0,0,1036,
scooby_state_42a533|9|0 986,4,3,4,2,8,2,1,1,4,5,5,1,1,9,1036,
scooby_state_42a9da|25|0 9,3,1,1,2,0,0,1,1016,0,1,0,0,0,1,1035,
scooby_state_42a9da|36|0 26,2,1,0,1,3,1,0,995,0,2,2,0,0,2,1035,
scooby_state_42a3f5|25|0 17,1,0,1,0,2,1,2,1007,0,0,0,0,1,3,1035,
scooby_state_42a3f5|14|0 15,0,0,2,0,1,1,1,1011,0,0,0,1,1,2,1035,
scooby_state_42a3f5|41|0 23,1,1,0,0,7,0,0,999,1,1,1,0,0,1,1035,
scooby_state_42a3f5|36|0 24,2,0,1,1,2,1,3,994,0,2,1,1,0,3,1035,
scooby_state_42a9da|23|0 16,1,0,0,0,1,1,0,1009,2,1,0,2,1,0,1034,
scooby_state_42b07d|57|0 1021,0,2,1,0,0,0,0,1,0,1,1,1,3,3,1034,
scooby_state_42abc3|13|0 300,6,3,1,2,1,2,2,3,3,1,3,1,1,705,1034,
scooby_state_42a58f|13|0 134,2,2,2,2,381,3,1,398,2,2,3,2,2,98,1034,
scooby_state_42af52|42|0 1013,3,2,1,1,4,0,0,2,1,1,1,1,1,3,1034,
scooby_state_42a9da|54|0 31,3,1,0,0,2,0,0,993,0,2,1,0,0,1,1034,
scooby_state_42aa95|46|0 189,1,0,2,0,1,0,6,827,1,0,1,1,1,4,1034,
scooby_state_42b07d|50|0 1019,0,2,1,0,1,0,0,2,0,1,1,2,2,3,1034,
scooby_state_42a9da|3|0 11,2,0,0,2,3,1,2,1011,0,0,0,1,1,0,1034,
scooby_state_42b07d|43|0 1017,0,1,1,0,0,1,0,1,1,1,1,1,3,6,1034,
scooby_state_42af52|35|0 1015,1,1,0,1,4,0,1,4,2,1,0,1,1,2,1034,
scooby_state_42a9da|49|0 26,2,1,1,0,2,1,1,997,0,0,1,0,1,1,1034,
scooby_state_42a3f5|52|0 29,1,0,1,0,4,1,0,993,1,0,1,1,1,1,1034,
scooby_state_42b13d|38|0 1013,1,1,2,2,1,1,3,0,0,1,0,1,3,5,1034,
scooby_state_42a3f5|21|0 15,1,0,2,0,2,1,1,1007,0,0,0,1,2,2,1034,
scooby_state_42af52|56|0 1016,3,0,1,2,1,0,0,2,1,1,1,2,3,1,1034,
scooby_state_42b07d|7|0 1017,1,3,2,1,0,0,2,0,1,1,1,1,1,3,1034,
scooby_state_42a9da|63|0 15,2,1,0,0,2,1,1,1007,0,1,0,0,2,2,1034,
scooby_state_42b00e|33|0 1018,0,1,1,2,2,2,1,0,2,0,0,0,3,2,1034,
scooby_state_42b07d|14|0 1016,1,1,2,0,1,0,2,1,1,1,1,1,2,4,1034,
scooby_state_42aa95|25|0 194,1,1,1,1,3,1,1,822,1,0,2,1,1,4,1034,
scooby_state_42aafa|6|0 971,9,3,2,7,10,2,2,2,2,1,0,1,0,22,1034,
scooby_state_42a58f|15|0 152,1,3,1,3,361,1,2,381,2,1,1,6,3,116,1034,
scooby_state_42af52|6|0 1015,3,0,1,3,0,0,0,3,2,1,1,1,2,2,1034,
scooby_state_42af52|63|0 1016,3,0,1,2,0,0,1,3,0,2,1,2,2,1,1034,
scooby_state_42af52|49|0 1018,2,0,1,2,2,0,0,2,0,1,1,1,3,1,1034,
scooby_state_42b00e|31|0 1020,0,1,0,1,2,1,1,1,0,1,1,1,1,3,1034,
scooby_state_42a3f5|5|0 21,2,0,0,2,4,0,0,1003,0,1,0,1,0,0,1034,
scooby_state_42a533|18|0 992,3,2,2,3,6,2,4,1,3,1,0,2,4,9,1034,
scooby_state_42b13d|36|0 1015,0,1,0,1,0,2,0,0,0,1,1,2,4,7,1034,
scooby_state_42a3f5|16|0 14,1,1,0,1,2,0,0,1012,1,0,2,0,0,0,1034,
scooby_state_42abc3|15|0 290,7,4,4,3,1,1,3,7,1,2,5,1,2,703,1034,
scooby_state_42a533|15|0 986,2,1,1,2,7,3,4,4,5,3,1,2,3,10,1034,
scooby_state_42b07d|0|0 1019,0,2,1,0,1,0,1,0,1,1,2,1,3,2,1034,
scooby_state_42a3f5|27|0 10,0,2,0,0,5,0,0,1013,0,1,1,0,0,1,1033,
scooby_state_42a9da|34|0 12,2,0,1,1,3,0,0,1009,1,1,1,0,1,1,1033,
scooby_state_42a3f5|1|0 25,1,1,0,1,6,0,2,994,0,1,0,1,0,1,1033,
scooby_state_42a3f5|3|0 12,0,2,1,0,3,3,1,1008,1,0,0,1,0,1,1033,
scooby_state_42a9da|27|0 11,1,0,1,1,2,0,0,1014,1,0,0,0,1,1,1033,
scooby_state_42a9da|16|0 17,1,0,0,0,1,1,0,1007,2,1,0,2,1,0,1033,
scooby_state_42a3f5|32|0 23,1,0,1,0,3,1,2,995,1,0,1,0,1,4,1033,
scooby_state_42b0d2|14|0 1,1,1,0,1,2,0,1,1017,1,2,1,1,1,2,1032,
scooby_state_42aadd|19|0 3,0,0,0,0,0,0,0,1029,0,0,0,0,0,0,1032,
scooby_state_42a451|11|0 5,1,0,0,0,0,0,0,1026,0,0,0,0,0,0,1032,
scooby_state_42b191|8|0 9,3,0,5,0,6,2,2,1001,0,1,0,0,2,1,1032,
scooby_state_42a57a|20|0 0,1,0,2,0,0,0,1,1027,0,0,0,0,1,0,1032,
scooby_state_42b0d2|1|0 1,2,1,3,0,2,2,1,1012,2,0,1,1,3,1,1032,
scooby_state_42b0d2|13|0 2,2,1,0,0,2,3,3,1012,0,0,2,2,0,3,1032,
scooby_state_42a58f|4|0 128,1,2,2,1,384,2,1,397,2,1,4,2,2,103,1032,
scooby_state_42a451|10|0 4,1,0,0,0,0,0,0,1025,0,0,0,1,1,0,1032,
scooby_state_42b00e|44|0 1009,2,1,2,1,1,2,1,2,3,0,4,1,1,2,1032,
scooby_state_42a57a|15|0 0,1,0,0,1,0,1,1,1027,1,0,0,0,0,0,1032,
scooby_state_42ab4f|12|0 3,5,0,0,1,1,1,1021,0,0,0,0,0,0,0,1032,
scooby_state_42af52|40|0 1014,2,3,0,0,2,2,2,1,0,0,1,1,1,3,1032,
scooby_state_42a9da|52|0 28,0,1,0,0,3,1,0,993,0,0,1,1,3,1,1032,
scooby_state_42b0d2|8|0 3,0,1,2,2,4,0,1,1012,1,0,1,1,2,2,1032,
scooby_state_42ac17|10|0 0,1,0,0,0,1,1,0,1027,0,1,0,0,0,1,1032,
scooby_state_42af6c|14|0 1,2,0,0,0,0,0,0,1029,0,0,0,0,0,0,1032,
scooby_state_42b0d2|12|0 1,2,0,4,1,2,1,1,1011,2,1,1,0,2,3,1032,
scooby_state_42aa95|19|0 195,0,0,2,1,1,0,5,820,1,2,1,1,0,3,1032,
scooby_state_42a57a|18|0 0,0,1,1,0,1,0,1,1025,1,0,0,1,1,0,1032,
scooby_state_42b191|17|0 6,0,1,4,0,6,0,1,1011,1,2,0,0,0,0,1032,
scooby_state_42ab4f|2|0 2,1,1,1,0,0,0,1026,0,1,0,0,0,0,0,1032,
scooby_state_42a5d8|21|0 3,0,0,0,0,6,0,0,1022,0,0,0,0,0,1,1032,
scooby_state_42a57a|10|0 0,0,1,0,0,0,0,1,1029,0,0,1,0,0,0,1032,
scooby_state_42aa95|53|0 190,0,2,1,1,0,1,5,825,1,0,1,1,2,2,1032,
scooby_state_42b07d|41|0 1008,1,2,1,2,5,0,1,3,1,0,1,3,1,3,1032,
scooby_state_42aadd|18|0 2,0,0,0,0,0,0,1,1029,0,0,0,0,0,0,1032,
scooby_state_42b060|19|0 0,3,1,0,1,0,3,512,510,0,0,0,0,1,1,1032,
scooby_state_42a57a|1|0 0,1,0,0,1,0,0,1,1028,0,1,0,0,0,0,1032,
scooby_state_42b0d2|7|0 1,0,1,0,0,1,0,3,1020,1,2,0,1,0,2,1032,
scooby_state_42aa25|17|0 0,0,0,0,0,0,0,0,1030,1,0,0,0,1,0,1032,
scooby_state_42b060|7|0 2,2,1,0,0,0,0,516,510,0,0,0,0,0,1,1032,
scooby_state_42a46e|58|0 2,0,1,0,3,2,2,0,1018,2,0,0,0,0,2,1032,
scooby_state_42a3f5|49|0 31,0,1,1,1,3,1,1,985,2,0,1,2,0,3,1032,
scooby_state_42ac17|17|0 0,0,0,1,1,1,0,0,1025,0,1,1,0,1,1,1032,
scooby_state_42ac17|3|0 1,1,0,2,0,1,1,0,1026,0,0,0,0,0,0,1032,
scooby_state_42a3fd|8|0 2,0,1,1,0,0,1,1,1025,0,1,0,0,0,0,1032,
scooby_state_42aa95|51|0 187,1,2,1,1,1,1,2,824,2,2,2,0,1,5,1032,
scooby_state_42b07d|12|0 1011,1,2,1,1,4,1,0,2,0,1,2,0,2,4,1032,
scooby_state_42a9da|60|0 15,3,0,0,1,2,1,2,1006,0,0,1,0,0,1,1032,
scooby_state_42a9da|41|0 21,1,0,0,1,3,0,0,1002,1,1,0,0,1,1,1032,
scooby_state_42ab4f|4|0 4,1,0,0,1,1,0,1024,0,0,0,0,0,1,0,1032,
scooby_state_42a5d8|5|0 2,0,0,1,1,2,1,2,1021,1,0,0,0,0,1,1032,
scooby_state_42aa25|19|0 1,0,0,0,0,1,0,0,1029,0,0,1,0,0,0,1032,
scooby_state_42a5d8|10|0 1,0,0,1,0,3,1,1,1025,0,0,0,0,0,0,1032,
scooby_state_42a451|21|0 6,1,0,0,0,0,0,0,1025,0,0,0,0,0,0,1032,
scooby_state_42aa95|9|0 186,2,0,2,0,2,0,6,825,0,0,2,2,2,3,1032,
scooby_state_42a451|1|0 4,1,1,1,0,0,0,1,1024,0,0,0,0,0,0,1032,
scooby_state_42a5d8|1|0 3,0,0,0,0,3,0,1,1025,0,0,0,0,0,0,1032,
scooby_state_42a3fd|9|0 1,0,1,0,0,1,0,0,1029,0,0,0,0,0,0,1032,
scooby_state_42aadd|4|0 3,0,0,0,0,0,0,0,1028,0,0,0,0,0,1,1032,
scooby_state_42ac17|2|0 0,0,0,1,1,1,0,1,1024,1,1,0,0,0,2,1032,
scooby_state_42a46e|51|0 2,0,1,1,2,2,0,0,1019,2,0,1,0,0,2,1032,
scooby_state_42aadd|1|0 1,0,1,0,0,0,0,0,1029,0,0,0,0,1,0,1032,
scooby_state_42b060|20|0 0,4,0,1,0,0,0,515,511,0,1,0,0,0,0,1032,
scooby_state_42ab4f|19|0 4,0,0,0,0,1,0,1025,1,1,0,0,0,0,0,1032,
scooby_state_42a3fd|20|0 0,1,0,0,0,0,1,0,1029,0,0,0,0,0,1,1032,
scooby_state_42af6c|7|0 0,2,0,0,0,0,0,0,1029,0,0,0,1,0,0,1032,
scooby_state_42a451|20|0 3,0,0,0,0,0,0,0,1028,0,1,0,0,0,0,1032,
scooby_state_42af6c|4|0 0,6,0,0,0,0,1,0,1024,0,0,1,0,0,0,1032,
scooby_state_42aadd|15|0 2,0,0,0,0,0,1,1,1028,0,0,0,0,0,0,1032,
scooby_state_42b191|14|0 8,3,0,2,1,2,1,0,1008,1,1,3,1,0,1,1032,
scooby_state_42b060|17|0 0,3,0,1,0,2,1,512,510,1,1,1,0,0,0,1032,
scooby_state_42a57a|8|0 1,1,1,1,0,1,0,1,1026,0,0,0,0,0,0,1032,
scooby_state_42b060|15|0 0,4,0,0,0,1,1,512,512,0,0,0,0,0,2,1032,
scooby_state_42a3fd|19|0 1,0,0,0,0,1,0,1,1028,0,0,1,0,0,0,1032,
scooby_state_42aa25|10|0 0,0,0,0,0,0,0,0,1032,0,0,0,0,0,0,1032,
scooby_state_42aa25|5|0 1,0,0,0,0,0,0,0,1030,0,1,0,0,0,0,1032,
scooby_state_42ab4f|10|0 2,2,0,0,1,0,0,1024,0,0,1,1,1,0,0,1032,
scooby_state_42aadd|10|0 1,0,0,1,0,0,0,0,1029,0,0,1,0,0,0,1032,
scooby_state_42ab4f|13|0 4,2,1,1,1,0,0,1023,0,0,0,0,0,0,0,1032,
scooby_state_42ac17|14|0 0,1,0,1,1,2,0,0,1024,1,1,0,0,0,1,1032,
scooby_state_42af6c|5|0 0,4,0,0,0,0,0,1,1027,0,0,0,0,0,0,1032,
scooby_state_42a5d8|12|0 3,0,1,0,0,4,0,0,1021,0,1,1,0,1,0,1032,
scooby_state_42a57a|9|0 0,1,0,0,2,0,0,1,1024,1,1,2,0,0,0,1032,
scooby_state_42b060|8|0 0,5,1,0,0,0,1,510,511,0,0,0,1,1,2,1032,
scooby_state_42a3fd|5|0 1,1,0,0,0,2,0,1,1026,1,0,0,0,0,0,1032,
scooby_state_42aa25|1|0 2,0,0,1,0,1,0,0,1026,2,0,0,0,0,0,1032,
scooby_state_42b191|4|0 7,3,0,4,1,2,2,3,1006,0,1,0,1,2,0,1032,
scooby_state_42aafa|17|0 970,8,0,3,5,10,2,1,4,1,2,2,2,2,20,1032,
scooby_state_42aadd|6|0 2,0,0,1,0,0,0,0,1029,0,0,0,0,0,0,1032,
scooby_state_42ab4f|5|0 3,3,1,0,0,0,1,1024,0,0,0,0,0,0,0,1032,
scooby_state_42b191|16|0 7,1,0,5,0,8,0,1,1006,0,0,1,1,0,2,1032,
scooby_state_42aa25|6|0 0,0,0,0,0,0,0,0,1032,0,0,0,0,0,0,1032,
scooby_state_42a3fd|1|0 1,1,0,0,0,1,0,1,1027,0,0,1,0,0,0,1032,
scooby_state_42a5d8|18|0 2,0,0,0,0,3,1,0,1025,0,0,0,1,0,0,1032,
scooby_state_42a451|2|0 5,1,2,0,0,0,0,0,1022,0,0,0,0,1,1,1032,
scooby_state_42ac17|19|0 0,0,1,1,0,1,0,1,1027,0,0,0,1,0,0,1032,
scooby_state_42b0d2|3|0 1,1,0,0,0,1,0,2,1020,0,2,0,3,0,2,1032,
scooby_state_42aa25|18|0 1,1,1,0,0,0,0,0,1028,0,0,0,0,1,0,1032,
scooby_state_42b191|10|0 8,2,1,2,1,3,1,0,1010,1,1,2,0,0,0,1032,
scooby_state_42b191|13|0 3,0,2,3,0,8,0,1,1014,0,0,0,0,0,1,1032,
scooby_state_42a451|9|0 3,0,0,0,0,1,0,1,1027,0,0,0,0,0,0,1032,
scooby_state_42b0d2|15|0 1,0,1,0,2,2,0,2,1018,2,2,1,0,0,1,1032,
scooby_state_42a57a|19|0 0,0,0,0,1,1,0,1,1029,0,0,0,0,0,0,1032,
scooby_state_42ab4f|11|0 5,2,0,0,0,0,1,1024,0,0,0,0,0,0,0,1032,
scooby_state_42af6c|6|0 1,3,1,0,0,1,0,0,1025,0,0,0,1,0,0,1032,
scooby_state_42af52|47|0 1011,2,2,2,1,2,1,3,2,1,1,0,1,1,2,1032,
scooby_state_42aafa|18|0 968,5,3,2,2,10,2,2,4,4,3,3,2,1,21,1032,
scooby_state_42a57a|4|0 2,0,1,0,0,1,1,0,1027,0,0,0,0,0,0,1032,
scooby_state_42aadd|8|0 3,0,0,1,0,0,0,1,1024,0,0,1,1,1,0,1032,
scooby_state_42a57a|2|0 0,0,0,1,0,0,1,1,1029,0,0,0,0,0,0,1032,
scooby_state_42b191|12|0 8,2,0,5,0,7,0,1,1004,1,2,0,0,1,1,1032,
scooby_state_42a5d8|2|0 2,0,1,0,0,2,0,0,1024,0,1,1,1,0,0,1032,
scooby_state_42aa25|8|0 1,0,0,0,0,1,0,0,1030,0,0,0,0,0,0,1032,
scooby_state_42aa95|60|0 193,1,2,0,1,1,1,2,821,1,2,2,0,2,3,1032,
scooby_state_42aa25|20|0 2,0,0,1,0,0,0,1,1027,0,0,0,0,1,0,1032,
scooby_state_42aadd|7|0 2,0,0,1,0,0,0,0,1028,0,0,0,0,0,1,1032,
scooby_state_42a3fd|17|0 1,0,2,0,1,0,1,1,1026,0,0,0,0,0,0,1032,
scooby_state_42b0d2|16|0 2,2,0,3,1,3,1,4,1011,0,0,0,0,2,3,1032,
scooby_state_42aa25|7|0 2,0,0,0,1,0,0,0,1027,1,0,0,1,0,0,1032,
scooby_state_42a5d8|13|0 1,0,0,0,2,2,1,0,1024,1,0,0,1,0,0,1032,
scooby_state_42b0d2|10|0 1,0,1,1,1,2,0,1,1015,1,2,1,3,1,2,1032,
scooby_state_42ab4f|7|0 4,3,0,0,0,0,0,1023,1,0,0,0,1,0,0,1032,
scooby_state_42ab4f|3|0 3,2,2,0,0,0,0,1025,0,0,0,0,0,0,0,1032,
scooby_state_42a451|8|0 5,1,0,0,0,1,0,0,1024,0,0,0,0,0,1,1032,
scooby_state_42ac17|1|0 0,0,0,1,1,1,1,0,1027,0,0,0,1,0,0,1032,
scooby_state_42b0d2|6|0 2,0,2,0,2,2,0,3,1013,0,1,2,1,1,3,1032,
scooby_state_42b191|5|0 3,0,0,5,0,9,0,1,1013,0,0,0,0,0,1,1032,
scooby_state_42b060|4|0 0,6,0,0,1,0,1,509,511,0,0,1,1,0,2,1032,
scooby_state_42a3fd|18|0 0,1,0,1,0,1,0,0,1028,0,0,1,0,0,0,1032,
scooby_state_42aadd|14|0 1,0,0,0,0,0,0,0,1031,0,0,0,0,0,0,1032,
scooby_state_42a451|14|0 3,0,0,0,0,1,0,0,1028,0,0,0,0,0,0,1032,
scooby_state_42af6c|8|0 0,5,0,0,0,0,1,0,1024,0,1,0,0,1,0,1032,
scooby_state_42a451|15|0 5,1,0,0,0,0,0,0,1025,0,0,0,1,0,0,1032,
scooby_state_42aa25|12|0 2,0,0,0,0,0,0,0,1030,0,0,0,0,0,0,1032,
scooby_state_42a57a|3|0 0,1,0,0,0,0,0,1,1029,0,0,1,0,0,0,1032,
scooby_state_42a57a|7|0 0,1,0,2,1,0,0,0,1027,1,0,0,0,0,0,1032,
scooby_state_42b0d2|9|0 2,2,1,2,0,2,2,3,1014,0,0,1,2,0,1,1032,
scooby_state_42a5d8|9|0 2,1,0,1,0,2,2,0,1023,0,0,0,0,1,0,1032,
scooby_state_42a3fd|3|0 1,0,0,0,0,0,2,0,1028,0,0,1,0,0,0,1032,
scooby_state_42ac17|18|0 0,1,0,1,0,1,1,0,1026,0,0,1,0,1,0,1032,
scooby_state_42aadd|16|0 2,0,0,0,0,0,1,0,1028,0,0,0,0,0,1,1032,
scooby_state_42ab4f|17|0 2,1,0,1,0,0,0,1028,0,0,0,0,0,0,0,1032,
scooby_state_42a5d8|20|0 1,0,1,0,0,4,1,1,1023,0,0,0,0,0,1,1032,
scooby_state_42b191|1|0 4,1,0,4,0,8,0,1,1010,0,0,1,0,1,2,1032,
scooby_state_42abc3|12|0 306,8,5,2,2,1,2,4,3,2,2,1,2,1,691,1032,
scooby_state_42a451|17|0 4,3,0,0,0,0,0,0,1025,0,0,0,0,0,0,1032,
scooby_state_42a451|16|0 3,0,0,0,1,0,1,0,1026,0,1,0,0,0,0,1032,
scooby_state_42aa25|21|0 0,0,1,0,0,1,0,0,1030,0,0,0,0,0,0,1032,
scooby_state_42a451|7|0 3,1,0,0,0,0,0,1,1027,0,0,0,0,0,0,1032,
scooby_state_42a5d8|8|0 3,0,1,0,1,3,0,0,1022,0,0,1,0,1,0,1032,
scooby_state_42a451|13|0 4,0,1,0,0,1,0,0,1025,0,0,0,1,0,0,1032,
scooby_state_42a9da|5|0 16,1,0,1,1,1,0,0,1008,1,0,1,2,0,0,1032,
scooby_state_42a5d8|19|0 2,0,1,1,0,3,0,0,1024,0,0,0,0,0,1,1032,
scooby_state_42a451|4|0 4,1,1,0,0,1,0,0,1024,1,0,0,0,0,0,1032,
scooby_state_42aadd|17|0 3,1,0,0,0,0,0,0,1028,0,0,0,0,0,0,1032,
scooby_state_42a3fd|15|0 1,1,0,0,1,0,0,1,1026,0,0,1,0,0,1,1032,
scooby_state_42ab4f|14|0 2,2,0,0,1,0,0,1025,0,0,1,0,0,1,0,1032,
scooby_state_42aa25|3|0 2,0,0,0,0,1,0,0,1029,0,0,0,0,0,0,1032,
scooby_state_42a5d8|3|0 1,0,0,0,0,5,1,0,1025,0,0,0,0,0,0,1032,
scooby_state_42a451|3|0 3,0,0,0,1,0,0,1,1023,0,2,0,0,1,1,1032,
scooby_state_42ab4f|18|0 3,3,0,0,1,0,0,1025,0,0,0,0,0,0,0,1032,
scooby_state_42a5d8|15|0 3,0,0,1,0,2,0,1,1025,0,0,0,0,0,0,1032,
scooby_state_42a5d8|7|0 2,0,0,0,1,6,0,0,1020,0,0,0,1,0,2,1032,
scooby_state_42b060|2|0 0,5,0,0,1,1,0,512,511,1,0,0,0,1,0,1032,
scooby_state_42a3fd|7|0 0,1,1,0,0,0,0,0,1027,0,0,1,0,0,2,1032,
scooby_state_42a57a|13|0 1,0,0,0,0,1,1,1,1028,0,0,0,0,0,0,1032,
scooby_state_42a57a|14|0 1,0,1,0,1,1,0,0,1028,0,0,0,0,0,0,1032,
scooby_state_42aadd|2|0 2,0,0,0,0,0,0,0,1030,0,0,0,0,0,0,1032,
scooby_state_42a3fd|10|0 0,1,1,0,1,0,0,1,1026,0,1,0,0,1,0,1032,
scooby_state_42aa25|4|0 2,0,0,0,0,3,0,0,1027,0,0,0,0,0,0,1032,
scooby_state_42aa25|14|0 1,0,0,0,0,0,0,0,1031,0,0,0,0,0,0,1032,
scooby_state_42ab4f|6|0 2,1,1,2,0,0,0,1024,1,0,0,0,0,1,0,1032,
scooby_state_42a57a|12|0 0,1,0,1,0,2,0,1,1027,0,0,0,0,0,0,1032,
scooby_state_42b00e|0|0 1018,2,0,2,0,2,1,1,0,0,1,2,1,1,1,1032,
scooby_state_42ac17|6|0 0,1,0,1,3,0,0,0,1023,1,1,1,0,0,1,1032,
scooby_state_42a3fd|21|0 2,0,1,1,2,0,0,1,1025,0,0,0,0,0,0,1032,
scooby_state_42ab4f|16|0 3,2,1,0,0,0,1,1025,0,0,0,0,0,0,0,1032,
scooby_state_42a451|5|0 5,0,0,0,1,1,0,0,1022,1,0,0,1,0,1,1032,
scooby_state_42ab4f|1|0 2,4,0,0,0,1,1,1024,0,0,0,0,0,0,0,1032,
scooby_state_42a57a|16|0 0,1,0,0,0,0,1,0,1030,0,0,0,0,0,0,1032,
scooby_state_42a5d8|16|0 2,0,1,0,0,3,0,0,1025,0,0,0,1,0,0,1032,
scooby_state_42ac17|11|0 0,0,2,4,0,0,2,1,1022,0,0,1,0,0,0,1032,
scooby_state_42b060|10|0 0,2,0,0,2,1,0,514,512,1,0,0,0,0,0,1032,
scooby_state_42b191|3|0 4,6,0,1,1,3,1,1,1011,1,0,1,1,0,1,1032,
scooby_state_42a3fd|16|0 0,0,0,0,2,0,1,0,1029,0,0,0,0,0,0,1032,
scooby_state_42b191|2|0 2,0,1,4,0,5,0,0,1017,0,1,2,0,0,0,1032,
scooby_state_42ac17|7|0 0,0,1,3,0,1,1,0,1025,0,0,1,0,0,0,1032,
scooby_state_42aadd|20|0 3,0,0,1,0,0,0,0,1028,0,0,0,0,0,0,1032,
scooby_state_42a3fd|14|0 0,1,0,1,0,0,0,0,1030,0,0,0,0,0,0,1032,
scooby_state_42aa95|10|0 194,1,0,2,1,0,1,5,822,0,2,0,2,0,2,1032,
scooby_state_42ac17|21|0 0,0,0,0,1,1,0,0,1027,0,2,0,0,0,1,1032,
scooby_state_42a9da|32|0 8,3,1,1,1,1,0,2,1013,0,1,0,0,0,1,1032,
scooby_state_42a46e|60|0 2,0,1,0,3,2,0,0,1019,2,0,1,1,0,1,1032,
scooby_state_42b07d|48|0 1011,1,1,1,2,6,2,2,2,1,0,0,3,0,0,1032,
scooby_state_42a451|12|0 4,1,0,0,0,0,1,0,1026,0,0,0,0,0,0,1032,
scooby_state_42a9da|12|0 20,1,0,1,1,1,0,0,1003,1,0,1,2,0,1,1032,
scooby_state_42aa95|3|0 198,2,2,1,1,0,1,3,821,1,0,0,0,0,2,1032,
scooby_state_42af6c|21|0 0,2,0,0,1,1,0,1,1027,0,0,0,0,0,0,1032,
scooby_state_42b07d|5|0 1012,0,1,1,2,6,1,0,2,1,1,1,0,0,4,1032,
scooby_state_42aa25|16|0 2,0,0,0,0,0,0,0,1027,1,0,0,1,0,1,1032,
scooby_state_42aadd|21|0 1,0,0,0,0,0,0,0,1031,0,0,0,0,0,0,1032,
scooby_state_42a57a|6|0 0,1,0,0,0,0,2,0,1025,0,1,1,2,0,0,1032,
scooby_state_42b191|9|0 4,0,1,4,0,6,0,1,1012,1,0,0,0,0,3,1032,
scooby_state_42a57a|11|0 0,1,0,0,1,0,1,1,1028,0,0,0,0,0,0,1032,
scooby_state_42a5d8|6|0 1,0,1,0,0,2,0,0,1028,0,0,0,0,0,0,1032,
scooby_state_42b191|21|0 4,1,2,2,0,1,0,1,1018,0,1,2,0,0,0,1032,
scooby_state_42aadd|3|0 1,0,0,0,0,0,1,0,1029,1,0,0,0,0,0,1032,
scooby_state_42ac17|16|0 0,0,0,1,0,0,0,1,1028,1,0,0,1,0,0,1032,
scooby_state_42a3fd|12|0 0,0,1,1,0,0,1,0,1029,0,0,0,0,0,0,1032,
scooby_state_42a57a|5|0 0,0,1,0,1,0,0,1,1028,0,0,0,0,1,0,1032,
scooby_state_42a58f|6|0 142,1,2,0,2,376,1,0,390,3,1,2,4,5,103,1032,
scooby_state_42b191|15|0 3,5,0,2,1,0,2,1,1014,0,1,0,1,2,0,1032,
scooby_state_42aadd|9|0 2,1,0,0,0,0,1,0,1026,1,0,0,0,1,0,1032,
scooby_state_42ab4f|8|0 5,2,0,0,1,2,0,1022,0,0,0,0,0,0,0,1032,
scooby_state_42a5d8|11|0 3,0,0,0,0,3,0,1,1025,0,0,0,0,0,0,1032,
scooby_state_42b060|3|0 0,1,0,0,0,0,0,518,512,0,0,0,0,0,1,1032,
scooby_state_42af6c|15|0 1,4,0,0,0,0,1,0,1026,0,0,0,0,0,0,1032,
scooby_state_42af6c|3|0 1,1,0,0,0,0,0,1,1028,0,0,1,0,0,0,1032,
scooby_state_42aadd|12|0 2,0,0,1,0,0,0,0,1028,0,0,0,1,0,0,1032,
scooby_state_42ab4f|9|0 3,2,2,1,0,0,1,1023,0,0,0,0,0,0,0,1032,
scooby_state_42abc3|21|0 288,8,3,2,2,1,4,3,3,1,2,1,2,2,710,1032,
scooby_state_42a451|19|0 3,1,1,0,0,0,0,0,1027,0,0,0,0,0,0,1032,
scooby_state_42ac17|12|0 0,0,0,1,0,0,0,1,1027,0,0,1,2,0,0,1032,
scooby_state_42af6c|20|0 0,6,0,0,0,0,0,0,1026,0,0,0,0,0,0,1032,
scooby_state_42ac17|15|0 0,0,1,1,0,1,1,1,1025,1,0,1,0,0,0,1032,
scooby_state_42b0d2|20|0 2,2,1,3,0,2,2,2,1013,0,0,0,2,1,2,1032,
scooby_state_42ac17|9|0 0,0,0,1,1,1,0,0,1027,1,0,0,0,1,0,1032,
scooby_state_42aa25|15|0 1,0,0,0,0,1,0,0,1028,1,0,0,0,1,0,1032,
scooby_state_42af6c|16|0 0,4,0,0,0,0,0,0,1028,0,0,0,0,0,0,1032,
scooby_state_42b191|20|0 7,1,0,5,0,9,0,1,1008,0,0,0,0,0,1,1032,
scooby_state_42b191|18|0 5,4,0,2,1,2,1,0,1012,1,0,2,1,0,1,1032,
scooby_state_42a5d8|4|0 3,0,1,1,1,4,0,0,1020,0,0,2,0,0,0,1032,
scooby_state_42b0d2|5|0 1,2,0,2,0,3,3,2,1015,0,0,0,2,1,1,1032,
scooby_state_42b0d2|18|0 1,2,0,0,1,3,0,2,1015,1,2,1,1,1,2,1032,
scooby_state_42af6c|18|0 0,4,1,0,0,0,0,0,1027,0,0,0,0,0,0,1032,
scooby_state_42aa95|30|0 196,1,1,2,1,0,2,6,816,2,1,1,0,1,2,1032,
scooby_state_42b00e|9|0 1013,4,0,2,1,2,0,1,2,1,1,2,1,0,2,1032,
scooby_state_42a3fd|6|0 0,0,0,0,1,0,0,1,1030,0,0,0,0,0,0,1032,
scooby_state_42af6c|1|0 1,5,0,0,2,0,0,0,1024,0,0,0,0,0,0,1032,
scooby_state_42aa95|18|0 188,2,1,1,1,3,1,4,825,0,0,2,1,2,1,1032,
scooby_state_42ac17|4|0 0,0,1,2,0,1,1,1,1024,0,0,1,1,0,0,1032,
scooby_state_42a57a|17|0 1,0,0,1,0,1,0,0,1027,0,0,1,1,0,0,1032,
scooby_state_42aa25|2|0 0,0,1,1,0,0,0,0,1030,0,0,0,0,0,0,1032,
scooby_state_42ab4f|15|0 4,1,0,0,0,1,0,1026,0,0,0,0,0,0,0,1032,
scooby_state_42b191|19|0 1,3,0,3,0,1,1,4,1015,0,1,0,0,2,1,1032,
scooby_state_42aa95|39|0 191,1,0,2,2,3,2,6,820,0,1,1,0,0,3,1032,
scooby_state_42b060|6|0 0,3,0,0,1,1,0,513,512,2,0,0,0,0,0,1032,
scooby_state_42af52|4|0 1014,2,2,1,0,2,0,2,3,2,2,0,0,0,2,1032,
scooby_state_42abc3|6|0 299,7,4,2,2,1,1,3,7,1,2,4,0,2,697,1032,
scooby_state_42a3fd|13|0 1,1,0,0,0,1,0,0,1028,0,0,0,0,1,0,1032,
scooby_state_42a451|18|0 4,0,0,0,0,1,1,0,1025,1,0,0,0,0,0,1032,
scooby_state_42af52|61|0 1010,2,4,1,0,2,0,2,3,2,2,0,2,0,2,1032,
scooby_state_42aafa|9|0 972,7,1,4,3,7,1,2,2,1,1,3,2,3,23,1032,
scooby_state_42a5d8|14|0 2,0,0,1,0,4,0,1,1024,0,0,0,0,0,0,1032,
scooby_state_42b13d|60|0 1009,1,1,1,0,1,1,1,2,3,2,3,2,0,5,1032,
scooby_state_42af52|54|0 1012,2,2,1,0,2,0,3,2,2,1,1,1,0,3,1032,
scooby_state_42a533|6|0 978,3,4,2,1,7,5,2,1,3,2,7,4,3,10,1032,
scooby_state_42b060|18|0 0,3,0,1,2,0,0,516,510,0,0,0,0,0,0,1032,
scooby_state_42b07d|55|0 1011,0,1,0,2,5,1,1,3,2,0,1,2,1,2,1032,
scooby_state_42af6c|19|0 0,3,1,0,0,0,0,0,1026,0,1,1,0,0,0,1032,
scooby_state_42ab4f|20|0 3,2,1,0,0,1,1,1024,0,0,0,0,0,0,0,1032,
scooby_state_42ab4f|21|0 2,2,0,1,0,0,0,1026,1,0,0,0,0,0,0,1032,
scooby_state_42af6c|12|0 0,4,0,1,0,0,1,0,1026,0,0,0,0,0,0,1032,
scooby_state_42b060|12|0 0,4,1,0,1,0,0,509,512,0,1,0,1,2,1,1032,
scooby_state_42a3fd|4|0 1,1,1,1,0,0,0,0,1028,0,0,0,0,0,0,1032,
scooby_state_42af52|33|0 1013,2,3,0,0,2,2,2,1,1,0,1,1,0,4,1032,
scooby_state_42ac17|20|0 0,0,0,2,0,1,0,1,1025,1,0,0,1,1,0,1032,
scooby_state_42b0d2|4|0 2,0,2,1,2,3,0,1,1012,2,2,1,0,2,2,1032,
scooby_state_42aa95|27|0 185,1,1,0,2,3,1,1,827,0,1,1,2,5,2,1032,
scooby_state_42b07d|62|0 1010,0,1,1,2,6,1,0,2,3,0,0,2,1,3,1032,
scooby_state_42ac17|8|0 1,0,1,2,0,1,0,1,1024,0,0,1,1,0,0,1032,
scooby_state_42b060|16|0 0,4,0,0,0,0,0,514,512,0,0,0,0,2,0,1032,
scooby_state_42ac17|5|0 0,0,0,1,0,1,0,0,1029,1,0,0,0,0,0,1032,
scooby_state_42af6c|11|0 0,3,0,0,0,0,0,0,1027,0,0,0,1,0,1,1032,
scooby_state_42b060|5|0 0,4,0,1,0,0,0,513,510,0,2,0,0,1,1,1032,
scooby_state_42aadd|11|0 3,0,0,0,0,0,1,0,1025,0,1,0,0,1,1,1032,
scooby_state_42aa25|11|0 4,0,0,1,0,1,0,0,1026,0,0,0,0,0,0,1032,
scooby_state_42b191|7|0 5,6,0,1,0,1,2,0,1011,1,0,0,1,1,3,1032,
scooby_state_42b00e|48|0 1008,1,2,2,2,3,2,1,0,1,0,1,0,1,8,1032,
scooby_state_42aa25|13|0 0,0,1,0,1,1,1,1,1027,0,0,0,0,0,0,1032,
scooby_state_42a9da|18|0 10,3,1,1,1,1,1,1,1009,1,1,0,0,0,2,1032,
scooby_state_42aa25|9|0 1,0,0,1,0,0,0,0,1030,0,0,0,0,0,0,1032,
scooby_state_42af6c|9|0 0,5,0,0,0,0,0,0,1027,0,0,0,0,0,0,1032,
scooby_state_42b060|9|0 0,4,0,1,0,0,0,513,512,0,1,1,0,0,0,1032,
scooby_state_42aa95|16|0 190,1,2,1,1,2,1,1,827,1,0,2,1,1,1,1032,
scooby_state_42b0d2|2|0 2,1,2,0,2,2,2,3,1011,0,1,2,1,1,2,1032,
scooby_state_42af6c|2|0 0,5,2,0,0,1,0,0,1023,0,0,0,0,1,0,1032,
scooby_state_42b060|1|0 0,3,0,1,0,0,0,514,512,0,1,0,0,1,0,1032,
scooby_state_42b191|6|0 4,0,1,4,1,4,0,0,1014,0,1,2,0,0,1,1032,
scooby_state_42b060|13|0 0,5,0,1,0,1,0,511,511,1,1,1,0,0,0,1032,
scooby_state_42a3fd|11|0 1,1,0,0,2,0,0,0,1028,0,0,0,0,0,0,1032,
scooby_state_42aadd|13|0 3,0,0,0,0,0,0,0,1028,0,1,0,0,0,0,1032,
scooby_state_42a5d8|17|0 3,0,0,0,1,4,0,0,1022,1,1,0,0,0,0,1032,
scooby_state_42af6c|17|0 1,3,0,0,0,1,0,0,1027,0,0,0,0,0,0,1032,
scooby_state_42ac17|13|0 0,0,0,2,1,1,0,0,1025,1,0,0,0,0,2,1032,
scooby_state_42b13d|14|0 1011,0,1,1,0,1,2,2,3,0,1,3,1,2,4,1032,
scooby_state_42b0d2|17|0 2,0,3,0,2,1,2,1,1014,1,0,1,2,1,2,1032,
scooby_state_42b13d|5|0 1009,0,1,2,1,1,1,1,2,1,2,3,2,1,5,1032,
scooby_state_42aadd|5|0 1,0,0,0,0,0,0,0,1031,0,0,0,0,0,0,1032,
scooby_state_42b0d2|19|0 1,0,2,0,2,4,0,2,1016,1,0,1,1,1,1,1032,
scooby_state_42b00e|55|0 1015,2,1,1,0,2,1,1,0,0,1,3,1,1,3,1032,
scooby_state_42b060|14|0 0,2,0,0,1,1,0,515,512,0,0,0,0,1,0,1032,
scooby_state_42b060|21|0 0,2,0,0,1,1,0,515,512,1,0,0,0,0,0,1032,
scooby_state_42a451|6|0 3,0,0,0,0,0,0,0,1029,0,0,0,0,0,0,1032,
scooby_state_42b0d2|21|0 1,0,2,1,2,1,0,1,1013,2,1,2,2,2,2,1032,
scooby_state_42b060|11|0 0,3,0,0,0,0,1,515,512,0,0,0,0,0,1,1032,
scooby_state_42a57a|21|0 0,1,0,1,0,0,1,0,1027,0,0,0,1,1,0,1032,
scooby_state_42a3fd|2|0 0,0,1,0,1,0,1,1,1025,0,1,1,0,1,0,1032,
scooby_state_42b191|11|0 6,6,1,1,0,0,2,2,1010,1,0,0,1,1,1,1032,
scooby_state_42af6c|10|0 0,3,1,0,0,1,0,1,1024,0,0,0,0,2,0,1032,
scooby_state_42a46e|46|0 0,3,0,1,1,0,1,1,1019,0,1,0,3,0,2,1032,
scooby_state_42af6c|13|0 0,5,1,0,0,1,1,1,1022,0,1,0,0,0,0,1032,
scooby_state_42b00e|41|0 1014,0,1,2,2,2,2,0,0,2,1,1,0,1,4,1032,
scooby_state_42b0d2|11|0 1,0,1,0,2,2,0,2,1021,1,1,0,0,0,1,1032,
scooby_state_42a9da|38|0 16,1,2,0,0,2,0,1,1005,0,1,1,0,2,0,1031,
scooby_state_42a9da|7|0 6,2,0,1,1,4,2,2,1011,0,0,0,0,0,2,1031,
scooby_state_42a3f5|10|0 13,0,1,1,0,2,2,1,1009,0,0,0,1,0,1,1031,
scooby_state_42a3f5|30|0 17,1,1,1,1,4,0,0,1003,2,0,1,0,0,0,1031,
scooby_state_42a9da|1|0 18,3,1,1,1,0,0,0,1005,1,1,0,0,0,0,1031,
scooby_state_42b060|0|0 0,5,0,1,0,0,1,507,512,0,0,1,1,0,2,1030,
scooby_state_42aa95|45|0 190,0,2,1,1,3,0,2,824,0,1,1,2,2,1,1030,
scooby_state_42aa95|5|0 198,0,2,1,1,1,1,3,816,1,1,2,1,0,2,1030,
scooby_state_42abc3|19|0 275,7,3,3,1,2,2,4,6,2,2,1,2,2,718,1030,
scooby_state_42a46e|47|0 2,2,0,1,0,0,1,2,1017,1,0,0,0,1,3,1030,
scooby_state_42a58f|5|0 139,7,2,1,0,364,2,0,392,5,1,2,2,2,111,1030,
scooby_state_42aa95|62|0 191,0,1,2,1,0,1,3,822,1,0,1,2,2,3,1030,
scooby_state_42aa95|1|0 191,0,0,2,1,1,0,3,827,0,2,0,1,0,2,1030,
scooby_state_42aa95|33|0 191,1,2,0,2,1,1,2,820,1,2,3,0,0,4,1030,
scooby_state_42a3f5|50|0 38,3,0,2,0,2,1,2,974,1,3,1,0,1,2,1030,
scooby_state_42a46e|53|0 0,2,2,1,2,1,2,1,1014,1,1,2,0,1,0,1030,
scooby_state_42a533|7|0 982,4,3,3,3,11,2,2,2,1,2,1,2,2,10,1030,
scooby_state_42af52|60|0 1014,2,0,1,1,3,1,0,3,0,1,1,2,1,0,1030,
scooby_state_42b13d|53|0 1003,1,0,2,0,2,2,0,2,3,2,3,1,0,9,1030,
scooby_state_42aa95|34|0 188,1,1,1,0,4,1,0,824,2,0,1,3,1,3,1030,
scooby_state_42aa95|2|0 189,1,0,1,2,2,2,6,819,0,1,2,1,2,2,1030,
scooby_state_42b00e|47|0 1013,2,0,0,0,3,1,3,1,0,1,0,2,0,4,1030,
scooby_state_42ac17|0|0 0,0,1,3,0,1,1,1,1021,1,0,1,0,0,0,1030,
scooby_state_42abc3|14|0 319,7,1,2,2,2,1,1,4,1,0,2,0,2,686,1030,
scooby_state_42b00e|43|0 1011,1,1,4,2,3,1,0,0,2,2,1,0,1,1,1030,
scooby_state_42aa95|54|0 193,0,0,2,1,4,0,3,822,0,1,1,2,0,1,1030,
scooby_state_42a46e|45|0 1,2,0,2,0,0,2,1,1018,0,0,0,0,2,2,1030,
scooby_state_42a3f5|38|0 20,2,1,2,0,3,2,0,994,1,0,1,1,1,2,1030,
scooby_state_42aa95|11|0 192,2,2,0,2,3,0,5,816,0,1,2,1,2,2,1030,
scooby_state_42af52|3|0 1011,3,1,0,0,3,2,1,4,1,0,1,2,1,0,1030,
scooby_state_42aa95|8|0 187,1,1,2,1,7,0,2,822,2,0,0,1,1,3,1030,
scooby_state_42a533|17|0 986,0,3,4,3,5,5,1,2,1,2,3,5,1,9,1030,
scooby_state_42af52|43|0 1012,2,0,1,0,1,3,3,1,1,1,1,2,0,2,1030,
scooby_state_42a58f|20|0 133,3,4,4,2,373,0,3,395,2,2,4,3,1,101,1030,
scooby_state_42a58f|11|0 134,3,3,4,2,373,0,5,398,1,2,3,3,0,99,1030,
scooby_state_42aa95|32|0 193,2,1,0,4,1,3,1,817,2,0,0,2,2,2,1030,
scooby_state_42a3fd|0|0 2,1,1,0,0,0,0,1,1024,1,0,0,0,0,0,1030,
scooby_state_42b191|0|0 5,4,0,4,2,0,2,3,1006,0,1,0,1,1,1,1030,
scooby_state_42b0d2|0|0 2,1,1,0,2,3,0,4,1012,0,2,0,1,0,2,1030,
scooby_state_42b00e|57|0 1010,2,1,2,0,3,1,1,0,1,1,1,1,2,4,1030,
scooby_state_42b13d|21|0 997,2,4,0,1,2,2,1,1,0,1,2,2,0,15,1030,
scooby_state_42a46e|63|0 1,2,0,1,0,0,1,0,1019,2,0,2,0,0,2,1030,
scooby_state_42aa95|4|0 187,4,2,0,1,2,2,3,820,1,2,0,2,0,4,1030,
scooby_state_42a57a|0|0 1,0,1,0,0,1,0,0,1027,0,0,0,0,0,0,1030,
scooby_state_42abc3|20|0 274,8,3,2,5,1,3,2,4,3,2,1,2,1,719,1030,
scooby_state_42aa95|37|0 186,1,0,3,1,1,1,7,826,1,0,1,1,0,1,1030,
scooby_state_42a5d8|0|0 2,0,0,1,1,3,0,0,1022,0,0,0,1,0,0,1030,
scooby_state_42aa95|12|0 197,0,2,1,1,0,0,3,818,1,1,1,1,2,2,1030,
scooby_state_42aadd|0|0 4,1,0,0,0,0,0,0,1025,0,0,0,0,0,0,1030,
scooby_state_42a46e|49|0 1,0,1,0,3,3,1,0,1019,2,0,0,0,0,0,1030,
scooby_state_42aa95|44|0 192,0,1,1,1,0,1,4,824,1,0,1,1,1,2,1030,
scooby_state_42b07d|11|0 1017,1,1,1,0,3,0,0,0,0,1,1,2,1,2,1030,
scooby_state_42abc3|1|0 296,9,2,1,1,1,1,3,6,1,2,1,2,2,702,1030,
scooby_state_42aa95|38|0 187,1,1,0,1,2,0,4,824,0,2,1,1,2,4,1030,
scooby_state_42a58f|21|0 143,3,2,0,2,356,4,0,399,5,4,5,0,2,105,1030,
scooby_state_42b13d|28|0 1001,2,1,0,2,4,2,2,1,1,1,1,0,0,12,1030,
scooby_state_42a58f|8|0 128,1,2,3,1,362,2,0,402,3,2,3,5,8,108,1030,
scooby_state_42a46e|54|0 1,3,0,1,0,0,0,0,1021,1,0,0,0,1,2,1030,
scooby_state_42b00e|40|0 1017,0,1,0,1,2,0,3,1,1,1,0,2,0,1,1030,
scooby_state_42b07d|8|0 1012,1,1,1,1,4,0,0,2,0,1,2,1,1,3,1030,
scooby_state_42abc3|4|0 312,6,0,2,2,1,3,2,2,2,2,5,3,1,687,1030,
scooby_state_42aa95|17|0 186,1,1,2,1,3,1,5,821,2,0,0,1,1,5,1030,
scooby_state_42a46e|52|0 1,3,1,0,0,1,1,2,1016,1,0,0,2,1,1,1030,
scooby_state_42abc3|7|0 303,9,1,4,4,0,1,0,6,3,1,3,1,1,693,1030,
scooby_state_42a3f5|60|0 20,0,1,0,1,3,2,1,997,1,0,0,1,0,3,1030,
scooby_state_42b07d|51|0 1014,2,0,0,2,3,0,1,2,0,1,1,2,0,2,1030,
scooby_state_42af52|53|0 1014,2,1,1,2,3,1,0,3,0,0,1,2,0,0,1030,
scooby_state_42aa95|47|0 191,1,1,3,1,4,0,2,819,0,2,2,0,1,3,1030,
scooby_state_42b07d|4|0 1019,1,1,1,0,2,0,0,0,0,1,1,1,1,2,1030,
scooby_state_42a451|0|0 5,1,0,0,0,0,0,0,1022,1,0,0,0,1,0,1030,
scooby_state_42a9da|51|0 27,3,1,1,1,1,0,0,993,2,0,0,1,0,0,1030,
scooby_state_42af52|36|0 1011,2,1,1,0,3,3,0,4,0,1,0,1,1,2,1030,
scooby_state_42b13d|46|0 1005,2,2,1,1,1,3,0,0,3,1,0,1,0,10,1030,
scooby_state_42b07d|47|0 1017,1,0,1,0,1,0,0,0,0,1,1,0,3,5,1030,
scooby_state_42aa95|26|0 187,1,2,1,0,2,0,5,823,2,0,2,1,1,3,1030,
scooby_state_42af52|32|0 1014,1,0,1,1,1,1,3,4,0,1,0,0,1,2,1030,
scooby_state_42b07d|44|0 1009,3,0,1,2,4,0,1,2,1,1,1,2,0,3,1030,
scooby_state_42af52|0|0 1009,2,1,0,1,6,1,2,2,2,1,1,1,0,1,1030,
scooby_state_42b07d|54|0 1018,1,0,1,0,1,1,1,0,0,1,1,0,2,3,1030,
scooby_state_42b07d|15|0 1012,1,1,1,1,4,0,0,1,0,2,1,1,2,3,1030,
scooby_state_42af6c|0|0 0,5,0,0,0,0,0,0,1024,1,0,0,0,0,0,1030,
scooby_state_42aa95|55|0 189,2,0,2,0,1,0,6,819,1,0,1,1,4,4,1030,
scooby_state_42ab4f|0|0 7,0,0,0,1,0,0,1021,0,1,0,0,0,0,0,1030,
scooby_state_42a58f|7|0 146,4,1,2,1,354,1,5,387,4,5,1,3,3,113,1030,
scooby_state_42a3f5|61|0 29,2,0,1,1,3,0,1,987,2,1,0,0,1,2,1030,
scooby_state_42b07d|58|0 1014,2,0,0,2,3,0,1,2,1,1,1,1,0,2,1030,
scooby_state_42a46e|44|0 0,2,2,1,1,0,2,1,1016,0,1,3,0,0,1,1030,
scooby_state_42af52|57|0 1007,3,0,3,0,4,1,2,2,2,0,2,2,0,2,1030,
scooby_state_42abc3|5|0 336,5,4,2,2,1,1,3,3,2,1,2,0,2,666,1030,
scooby_state_42aa25|0|0 2,0,1,0,0,2,0,0,1024,0,0,1,0,0,0,1030,
scooby_state_42aa95|24|0 183,2,2,1,0,3,2,2,823,2,2,3,0,1,4,1030,
scooby_state_42a58f|12|0 138,4,2,0,0,351,3,1,406,6,4,3,1,2,109,1030,
scooby_state_42b07d|1|0 1010,1,0,1,3,4,0,0,2,1,0,3,2,0,3,1030,
scooby_state_42a58f|18|0 136,3,1,5,0,372,1,4,381,2,3,0,1,3,118,1030,
scooby_state_42af52|46|0 1014,2,2,0,1,3,2,0,3,0,0,1,1,0,1,1030,
scooby_state_42af52|50|0 1011,2,0,0,1,4,1,2,2,2,0,1,2,0,2,1030,
scooby_state_42b07d|61|0 1018,1,1,0,0,1,0,1,1,0,1,1,0,3,2,1030,
scooby_state_42aa95|48|0 186,1,0,1,1,3,0,6,824,0,1,1,2,2,2,1030,
scooby_state_42af52|39|0 1013,2,0,1,1,2,1,2,4,0,1,1,0,0,2,1030,
scooby_state_42a9da|29|0 18,4,2,0,1,3,0,0,996,0,2,2,0,0,1,1029,
scooby_state_42a46e|43|0 2,2,1,1,1,2,0,2,1012,0,0,1,2,0,2,1028,
scooby_state_42a58f|2|0 135,1,2,4,3,367,0,4,397,1,4,4,4,1,101,1028,
scooby_state_42b00e|21|0 1009,2,0,2,2,0,1,0,0,1,0,1,3,1,6,1028,
scooby_state_42abc3|0|0 302,8,0,4,1,1,3,1,6,1,1,0,2,2,696,1028,
scooby_state_42aa95|49|0 193,2,3,1,1,0,2,3,818,1,1,1,0,1,1,1028,
scooby_state_42aa95|59|0 190,2,2,0,1,1,2,2,821,1,1,0,3,0,2,1028,
scooby_state_42a9da|50|0 25,3,0,1,1,4,1,1,989,0,1,1,0,0,1,1028,
scooby_state_42b13d|29|0 1004,1,0,3,2,2,2,2,0,0,2,0,1,2,7,1028,
scooby_state_42aa95|35|0 188,1,1,1,1,3,1,5,821,1,0,1,0,1,3,1028,
scooby_state_42b13d|15|0 1001,2,1,1,1,0,1,2,2,1,2,2,3,1,8,1028,
scooby_state_42a46e|62|0 1,2,1,2,0,0,1,1,1012,2,1,2,1,1,1,1028,
scooby_state_42a9da|9|0 20,1,0,2,0,2,1,0,993,4,0,0,4,1,0,1028,
scooby_state_42a58f|0|0 141,3,2,3,2,355,1,5,384,2,3,1,3,0,123,1028,
scooby_state_42b13d|48|0 1002,0,2,2,2,1,1,2,0,2,1,1,2,1,9,1028,
scooby_state_42b13d|26|0 1003,3,0,1,1,1,1,2,2,4,0,2,0,2,6,1028,
scooby_state_42b00e|63|0 1008,1,1,1,1,1,2,0,2,1,1,3,2,1,3,1028,
scooby_state_42a58f|14|0 145,6,2,1,0,349,1,0,399,5,1,2,2,4,111,1028,
scooby_state_42abc3|8|0 285,8,2,2,2,1,1,2,5,2,4,2,2,3,707,1028,
scooby_state_42aa95|7|0 192,0,1,2,1,1,1,2,823,0,0,2,2,1,0,1028,
scooby_state_42a9da|62|0 20,2,0,1,2,2,0,1,996,1,0,0,3,0,0,1028,
scooby_state_42abc3|3|0 303,8,5,2,2,1,2,3,3,2,2,1,1,2,691,1028,
scooby_state_42abc3|18|0 269,8,0,2,2,2,3,0,7,2,1,0,2,3,727,1028,
scooby_state_42a58f|1|0 128,2,2,1,3,354,2,3,416,3,3,2,3,2,104,1028,
scooby_state_42aa95|21|0 194,1,1,1,2,1,1,6,815,1,1,1,0,1,2,1028,
scooby_state_42a3f5|51|0 29,0,1,0,2,9,0,0,982,1,1,0,1,1,1,1028,
scooby_state_42a3f5|7|0 13,0,1,1,0,4,2,1,1002,0,0,0,1,1,2,1028,
scooby_state_42b13d|59|0 1003,1,1,2,1,1,2,2,0,1,1,2,1,5,5,1028,
scooby_state_42a46e|42|0 1,1,2,1,2,1,0,0,1013,1,1,3,0,0,2,1028,
scooby_state_42aa95|31|0 189,1,3,1,0,2,1,2,819,1,2,2,0,1,4,1028,
scooby_state_42aa95|6|0 187,0,1,0,0,3,3,3,824,2,0,1,2,0,2,1028,
scooby_state_42b00e|54|0 1012,1,1,3,1,2,1,1,2,1,0,0,1,1,1,1028,
scooby_state_42aa95|23|0 195,0,1,0,2,1,4,2,818,1,0,1,1,2,0,1028,
scooby_state_42aafa|7|0 963,7,2,5,1,9,1,2,4,2,2,4,3,2,21,1028,
scooby_state_42a46e|48|0 1,1,1,2,0,1,0,3,1013,1,1,0,1,1,2,1028,
scooby_state_42a46e|61|0 3,4,1,0,1,0,1,1,1012,0,1,1,2,0,1,1028,
scooby_state_42aa95|61|0 191,0,1,1,0,4,2,2,821,1,0,0,3,0,2,1028,
scooby_state_42a46e|59|0 1,3,0,0,0,1,0,1,1017,0,0,0,2,1,2,1028,
scooby_state_42aa95|36|0 189,1,1,1,1,2,0,1,825,0,1,1,2,2,1,1028,
scooby_state_42aa95|63|0 185,0,1,2,1,5,0,1,825,2,0,1,1,0,4,1028,
scooby_state_42a46e|56|0 1,1,0,1,0,0,1,1,1017,2,1,0,0,1,2,1028,
scooby_state_42aa95|43|0 187,1,1,3,0,3,1,0,824,2,0,1,4,0,1,1028,
scooby_state_42aa95|42|0 186,1,2,1,1,0,1,1,825,0,2,3,0,1,4,1028,
scooby_state_42b00e|2|0 1010,2,1,2,0,2,1,2,0,1,1,1,1,2,2,1028,
scooby_state_42b13d|22|0 1005,2,1,3,2,0,3,1,0,0,1,1,1,3,5,1028,
scooby_state_42aa95|28|0 191,1,0,2,1,1,0,6,822,1,0,1,0,0,2,1028,
scooby_state_42aa95|14|0 197,0,2,0,2,2,3,2,814,1,1,1,1,1,1,1028,
scooby_state_42b13d|52|0 1008,1,1,0,1,1,1,3,2,1,0,4,2,2,1,1028,
scooby_state_42b13d|12|0 995,1,3,2,1,2,2,1,1,0,0,2,3,0,15,1028,
scooby_state_42b13d|62|0 1004,1,0,1,0,3,1,0,1,3,1,3,2,1,7,1028,
scooby_state_42abc3|2|0 294,8,0,2,3,2,3,2,5,3,2,2,2,2,698,1028,
scooby_state_42a46e|57|0 1,2,0,1,1,0,0,1,1018,0,1,0,1,1,1,1028,
scooby_state_42b00e|23|0 1007,0,2,3,2,1,1,0,0,2,1,1,0,0,8,1028,
scooby_state_42a58f|3|0 134,3,3,1,0,365,2,1,402,5,5,3,3,0,101,1028,
scooby_state_42aa95|40|0 194,1,3,0,1,1,1,2,816,0,4,2,0,1,2,1028,
scooby_state_42aa95|57|0 188,1,1,1,1,1,1,7,819,1,1,1,1,2,2,1028,
scooby_state_42aa95|41|0 197,1,3,0,1,3,2,2,810,2,1,0,2,2,2,1028,
scooby_state_42aafa|8|0 959,6,3,1,1,12,3,2,3,3,2,0,1,2,30,1028,
scooby_state_42a46e|55|0 1,2,1,2,1,0,1,1,1015,0,1,1,0,0,2,1028,
scooby_state_42b00e|56|0 1014,0,1,0,0,0,2,2,2,0,1,1,2,1,2,1028,
scooby_state_42abc3|10|0 282,8,2,1,2,1,2,3,5,1,2,1,1,4,713,1028,
scooby_state_42aa95|56|0 190,2,0,2,1,2,1,3,820,0,2,2,0,0,3,1028,
scooby_state_42a9da|21|0 6,2,1,1,0,1,1,2,1011,0,1,0,0,0,2,1028,
scooby_state_42b00e|16|0 1006,2,1,4,2,1,0,3,1,1,1,2,1,1,2,1028,
scooby_state_42aa95|58|0 196,1,1,2,1,0,1,2,818,1,0,1,0,2,2,1028,
scooby_state_42a9da|61|0 18,3,1,1,0,1,0,0,999,0,2,1,0,0,2,1028,
scooby_state_42a58f|19|0 131,4,2,1,2,340,3,3,415,2,3,2,2,2,116,1028,
scooby_state_42aa95|52|0 187,0,3,1,0,8,2,2,820,1,0,0,3,0,1,1028,
scooby_state_42aa95|0|0 187,2,0,2,0,1,0,7,822,0,0,2,1,3,1,1028,
scooby_state_42a9da|30|0 13,1,0,1,1,1,0,0,1007,2,0,0,2,0,0,1028,
scooby_state_42b13d|45|0 1010,0,1,1,1,1,1,2,1,0,1,1,1,2,5,1028,
scooby_state_42a9da|10|0 16,3,2,0,0,4,1,1,997,1,0,1,0,1,0,1027,
scooby_state_42a3f5|39|0 33,1,0,1,1,3,1,3,978,0,0,0,1,1,4,1027,
scooby_state_42a3f5|18|0 13,1,0,1,0,3,1,2,1001,0,0,1,0,1,3,1027,
scooby_state_42b00e|10|0 1006,1,0,0,1,0,2,0,3,0,1,3,4,1,4,1026,
scooby_state_42a533|16|0 983,5,3,4,2,7,1,0,1,4,3,4,1,0,8,1026,
scooby_state_42aafa|19|0 965,7,1,4,1,11,3,3,2,0,0,2,2,2,23,1026,
scooby_state_42a3f5|48|0 31,3,1,0,1,10,0,0,976,1,1,0,1,0,1,1026,
scooby_state_42a533|5|0 982,4,2,3,3,8,0,3,4,4,5,2,0,1,5,1026,
scooby_state_42a3f5|8|0 24,2,0,0,1,6,1,2,986,0,1,1,1,0,1,1026,
scooby_state_42abc3|17|0 277,7,2,2,2,1,2,3,4,1,4,2,2,3,714,1026,
scooby_state_42a3f5|29|0 20,2,0,0,1,2,1,2,994,0,1,1,1,0,1,1026,
scooby_state_42b13d|3|0 993,3,2,1,1,2,1,1,1,0,2,2,3,0,14,1026,
scooby_state_42aafa|5|0 965,5,2,3,1,8,2,3,2,2,2,3,2,4,22,1026,
scooby_state_42b13d|4|0 1004,2,2,2,1,1,1,2,0,0,1,1,0,2,7,1026,
scooby_state_42aa95|13|0 188,2,2,0,0,2,3,4,813,1,3,1,1,1,5,1026,
scooby_state_42b07d|18|0 1013,0,1,2,1,1,1,0,1,0,1,1,1,0,3,1026,
scooby_state_42aa95|22|0 193,2,2,0,0,2,1,2,816,1,2,1,0,0,4,1026,
scooby_state_42b00e|7|0 1004,1,1,5,0,1,1,3,1,2,1,1,1,2,2,1026,
scooby_state_42a58f|16|0 142,5,1,2,1,353,2,8,385,4,4,1,3,3,112,1026,
scooby_state_42aa95|20|0 191,2,0,0,1,2,1,3,815,0,3,1,1,2,4,1026,
scooby_state_42a46e|50|0 2,2,0,0,0,1,0,1,1017,0,0,0,2,1,0,1026,
scooby_state_42b13d|13|0 1004,2,2,3,2,0,1,1,0,0,2,0,1,3,5,1026,
scooby_state_42a9da|40|0 32,2,1,0,0,2,0,0,983,0,1,2,1,1,1,1026,
scooby_state_42a58f|9|0 134,3,1,4,1,358,1,6,390,3,3,1,3,2,116,1026,
scooby_state_42a9da|42|0 24,3,1,1,0,2,1,2,989,0,0,1,0,1,1,1026,
scooby_state_42b00e|24|0 1010,0,1,2,3,2,2,1,1,0,1,0,0,2,1,1026,
scooby_state_42a533|8|0 979,4,1,1,3,6,2,4,4,4,4,1,1,3,9,1026,
scooby_state_42b00e|1|0 1007,2,1,0,1,0,2,1,3,0,0,2,3,0,4,1026,
scooby_state_42a9da|8|0 18,3,1,1,3,0,2,0,996,0,1,1,0,0,0,1026,
scooby_state_42b00e|11|0 1013,2,1,2,0,2,0,2,0,1,1,1,0,0,1,1026,
scooby_state_42b00e|8|0 1009,1,1,1,1,1,2,0,2,0,2,2,0,2,2,1026,
scooby_state_42aa95|15|0 190,2,1,1,0,2,2,3,817,2,1,1,1,0,3,1026,
scooby_state_42aa95|50|0 192,2,1,0,2,1,2,1,818,2,1,0,1,1,2,1026,
scooby_state_42abc3|9|0 291,7,0,2,2,1,2,0,6,1,3,0,2,2,707,1026,
scooby_state_42b00e|17|0 1007,0,3,1,1,2,2,0,4,0,0,2,1,2,1,1026,
scooby_state_42a3f5|59|0 21,1,0,1,0,6,0,0,992,2,0,1,0,1,1,1026,
scooby_state_42a58f|17|0 137,1,0,1,1,356,2,2,402,3,4,4,4,5,104,1026,
scooby_state_42b13d|61|0 1004,1,1,1,1,1,1,1,2,0,2,3,2,2,4,1026,
scooby_state_42a58f|10|0 134,3,1,2,2,357,3,2,405,2,4,2,3,2,104,1026,
scooby_state_42abc3|16|0 290,9,1,2,4,0,1,1,5,2,1,1,1,1,707,1026,
scooby_state_42b13d|7|0 1004,1,0,2,0,2,1,1,2,1,2,3,1,2,4,1026,
scooby_state_42abc3|11|0 281,8,0,4,4,1,3,3,5,4,2,1,2,1,707,1026,
scooby_state_42b13d|6|0 1005,1,2,0,2,1,1,1,2,1,1,1,3,1,4,1026,
scooby_state_42a3f5|62|0 20,1,1,0,2,8,2,0,988,1,0,1,1,0,1,1026,
scooby_state_42aa95|29|0 190,2,0,0,1,2,1,3,818,0,1,1,1,2,4,1026,
scooby_state_42a3f5|19|0 21,2,0,0,2,0,0,0,997,1,1,0,1,0,0,1025,
scooby_state_42a3f5|9|0 15,1,1,0,1,2,0,0,1004,0,0,1,0,0,0,1025,
scooby_state_42a9da|6|0 15,1,1,0,0,3,1,0,1002,0,0,0,0,2,0,1025,
scooby_state_42a9da|59|0 20,0,1,0,0,3,1,0,996,0,0,0,2,1,0,1024,
scooby_state_42a3f5|42|0 33,1,1,1,3,2,1,0,974,0,1,1,1,2,3,1024,
scooby_state_42a9da|48|0 33,1,0,1,1,2,0,0,981,1,0,0,1,2,1,1024,
scooby_state_42b00e|62|0 998,2,2,4,1,1,1,4,1,1,1,3,1,1,3,1024,
scooby_state_42af52|29|0 1003,2,1,3,0,2,3,0,3,0,1,0,1,2,3,1024,
scooby_state_42b13d|58|0 991,2,4,2,0,2,2,2,1,0,1,3,2,1,11,1024,
scooby_state_42aafa|10|0 954,11,1,6,6,9,2,1,3,3,1,2,1,0,24,1024,
scooby_state_42a533|3|0 983,1,3,2,2,8,5,1,2,1,0,3,4,1,8,1024,
scooby_state_42b13d|16|0 1003,1,1,1,0,2,1,1,2,1,1,4,1,1,4,1024,
scooby_state_42a9da|20|0 9,2,0,0,0,3,2,0,1004,1,0,0,0,2,1,1024,
scooby_state_42aafa|16|0 966,8,1,2,1,7,1,2,1,1,0,2,3,4,25,1024,
scooby_state_42a9da|53|0 18,3,1,1,1,2,1,2,994,0,0,0,0,0,1,1024,
scooby_state_42a3f5|40|0 33,1,0,0,2,3,0,0,977,1,2,1,1,1,1,1023,
scooby_state_42a3f5|6|0 12,0,1,1,0,4,1,0,1002,0,0,1,0,0,1,1023,
scooby_state_42a3f5|28|0 18,0,1,2,0,1,1,1,994,0,0,1,1,1,2,1023,
scooby_state_42a9da|0|0 12,2,0,1,1,5,2,1,995,0,1,1,0,0,2,1023,
scooby_state_42af52|15|0 1001,2,2,2,0,1,3,0,3,0,2,0,1,0,5,1022,
scooby_state_42af52|20|0 1002,4,0,2,3,0,0,0,1,0,2,1,1,3,3,1022,
scooby_state_42af52|27|0 1001,4,0,2,2,2,1,1,2,0,0,1,2,2,2,1022,
scooby_state_42af52|16|0 1001,2,0,1,3,2,0,1,3,1,1,2,0,2,3,1022,
scooby_state_42b07d|32|0 1003,1,4,2,1,2,0,0,0,1,1,1,1,1,4,1022,
scooby_state_42b07d|39|0 1007,1,2,2,0,1,0,0,0,0,1,1,1,2,4,1022,
scooby_state_42b07d|27|0 999,3,3,0,3,4,1,1,1,2,1,0,2,1,1,1022,
scooby_state_42b07d|24|0 1002,1,1,1,1,2,0,2,2,2,1,2,1,1,3,1022,
scooby_state_42b07d|25|0 996,2,2,2,1,3,1,1,2,1,2,1,2,1,5,1022,
scooby_state_42a9da|57|0 21,2,0,0,1,6,1,1,984,0,1,1,0,1,3,1022,
scooby_state_42a9da|19|0 22,1,0,1,1,0,0,0,991,2,1,1,2,0,0,1022,
scooby_state_42b07d|30|0 997,2,0,0,3,4,2,1,1,2,1,1,1,0,7,1022,
scooby_state_42b07d|20|0 997,2,1,0,2,5,3,1,1,2,0,0,4,1,3,1022,
scooby_state_42af52|24|0 1004,2,0,0,0,4,0,0,1,2,1,2,3,2,1,1022,
scooby_state_42a9da|46|0 21,3,0,1,2,2,1,2,986,0,1,0,0,0,3,1022,
scooby_state_42a3f5|20|0 12,1,2,0,0,5,0,0,998,0,2,1,0,0,1,1022,
scooby_state_42b07d|21|0 1002,2,1,3,0,2,1,2,0,2,1,1,0,1,4,1022,
scooby_state_42af52|17|0 1002,3,0,0,1,4,1,0,2,2,1,1,2,1,2,1022,
scooby_state_42a3f5|55|0 26,1,1,0,1,7,1,0,981,1,1,0,1,0,1,1022,
scooby_state_42a9da|44|0 30,2,2,0,1,2,0,0,980,2,0,0,1,2,0,1022,
scooby_state_42aafa|1|0 957,6,3,1,1,12,2,2,2,4,2,0,0,2,28,1022,
scooby_state_42af52|10|0 999,2,2,0,2,4,2,1,2,2,2,1,2,1,0,1022,
scooby_state_42b07d|35|0 1000,2,1,2,0,4,1,2,2,2,1,1,0,1,3,1022,
scooby_state_42aafa|3|0 954,11,3,4,6,10,2,2,3,2,2,2,2,0,19,1022,
scooby_state_42af52|13|0 999,5,0,1,3,0,1,1,1,0,4,1,2,3,1,1022,
scooby_state_42b07d|28|0 1000,2,1,2,1,4,0,2,1,2,1,1,0,1,4,1022,
scooby_state_42a533|19|0 978,2,1,2,2,7,3,2,3,5,6,2,1,2,6,1022,
scooby_state_42b07d|38|0 1001,1,1,0,1,3,1,3,1,2,1,1,1,1,4,1022,
scooby_state_42b07d|23|0 1000,2,0,1,2,4,2,1,1,1,1,1,1,0,5,1022,
scooby_state_42a9da|39|0 20,3,0,1,1,3,1,1,989,1,1,0,0,0,1,1022,
scooby_state_42af52|8|0 1003,1,3,2,0,1,2,0,3,0,1,1,1,0,4,1022,
scooby_state_42a533|14|0 984,1,3,4,3,6,1,2,1,1,2,0,2,2,10,1022,
scooby_state_42af52|19|0 1000,0,2,2,1,2,2,1,4,2,0,1,1,0,4,1022,
scooby_state_42a3f5|46|0 40,1,1,0,3,2,1,2,965,1,0,1,1,0,4,1022,
scooby_state_42b07d|31|0 1001,1,1,1,1,3,1,2,1,2,1,1,1,1,4,1022,
scooby_state_42b07d|34|0 1000,1,1,2,3,6,0,1,2,1,0,0,2,2,1,1022,
scooby_state_42a533|10|0 975,1,4,2,2,4,4,1,2,2,2,4,4,3,12,1022,
scooby_state_42af52|22|0 1003,2,2,3,0,1,3,0,3,0,1,0,1,0,3,1022,
scooby_state_42af52|23|0 1001,2,2,1,2,0,0,1,3,1,1,3,0,2,3,1022,
scooby_state_42a3f5|44|0 32,0,1,0,1,9,0,0,973,2,1,2,0,1,0,1022,
scooby_state_42a533|1|0 972,3,1,2,4,7,1,3,4,3,4,2,1,3,12,1022,
scooby_state_42a3f5|53|0 30,1,1,0,1,3,1,3,977,1,0,1,0,0,3,1022,
scooby_state_42af52|26|0 998,2,2,2,1,3,2,1,3,1,0,1,1,0,5,1022,
scooby_state_42b07d|37|0 995,1,0,1,5,7,2,1,2,1,1,1,1,0,4,1022,
scooby_state_42a9da|55|0 24,1,0,1,1,2,0,0,989,1,0,0,1,1,1,1022,
scooby_state_42af52|12|0 1005,0,1,1,1,2,2,1,3,1,0,1,2,0,2,1022,
scooby_state_42af52|9|0 1001,2,1,1,3,2,0,1,3,1,1,2,0,2,2,1022,
scooby_state_42a9da|11|0 10,3,1,1,0,1,1,1,1000,0,1,0,0,0,2,1021,
scooby_state_42a9da|22|0 15,4,1,0,1,1,0,0,994,0,2,2,0,0,1,1021,
scooby_state_42a3f5|31|0 14,2,2,2,0,2,1,0,992,1,0,0,1,2,2,1021,
scooby_state_42a9da|31|0 11,1,1,1,0,2,0,1,997,0,1,1,1,3,1,1021,
scooby_state_42b00e|53|0 997,2,1,2,0,1,2,1,2,3,1,4,1,1,2,1020,
scooby_state_42a3f5|37|0 24,0,1,0,1,4,1,0,987,1,0,1,0,0,0,1020,
scooby_state_42a3f5|15|0 19,2,0,1,1,3,1,2,988,0,1,0,1,0,1,1020,
scooby_state_42a9da|17|0 6,2,1,0,0,4,1,1,1004,0,0,0,0,1,0,1020,
scooby_state_42b00e|22|0 1008,0,2,0,1,2,1,1,1,0,1,0,1,1,1,1020,
scooby_state_42a3f5|17|0 13,0,1,2,0,1,1,1,998,0,1,0,1,0,1,1020,
scooby_state_42a3f5|57|0 30,2,0,1,0,1,1,2,979,0,1,0,1,2,0,1020,
scooby_state_42aafa|12|0 956,4,2,4,1,11,2,3,1,4,0,3,2,3,24,1020,
scooby_state_42aafa|21|0 953,7,3,3,5,10,2,3,3,1,2,3,3,1,21,1020,
scooby_state_42aafa|14|0 955,8,2,3,2,11,1,2,5,1,4,4,2,1,19,1020,
scooby_state_42a9da|2|0 18,1,1,0,0,3,1,0,991,1,0,0,2,1,0,1019,
scooby_state_42a3f5|0|0 18,1,0,1,1,3,2,1,989,0,0,0,1,1,1,1019,
scooby_state_42a3f5|22|0 18,2,0,0,1,2,1,2,989,0,1,1,1,0,1,1019,
scooby_state_42a9da|28|0 8,2,1,1,0,1,1,2,1001,0,0,1,0,0,1,1019,
scooby_state_42a9da|15|0 16,3,1,1,2,0,0,0,994,0,1,1,0,0,0,1019,
scooby_state_42af52|21|0 998,2,0,0,0,5,0,3,3,2,2,1,1,0,1,1018,
scooby_state_42a3f5|11|0 15,1,0,1,1,2,2,2,988,0,0,2,0,1,3,1018,
scooby_state_42a533|21|0 970,2,3,3,2,8,2,3,1,2,2,1,3,4,12,1018,
scooby_state_42af52|28|0 997,0,1,0,1,4,1,3,3,2,0,1,2,1,2,1018,
scooby_state_42b07d|22|0 1001,0,1,3,0,2,0,0,1,0,1,2,1,2,4,1018,
scooby_state_42af52|7|0 1001,1,1,0,0,5,0,4,2,0,0,2,1,0,1,1018,
[...]
scooby_state_42b281|10|0 1,0,0,0,0,0,0,0,0,0,0,0,0,0,0,1,
scooby_state_42a3f5|39|-22 1,0,0,0,0,0,0,0,0,0,0,0,0,0,0,1,
scooby_state_42b565|37|0 1,0,0,0,0,0,0,0,0,0,0,0,0,0,0,1,
scooby_state_4f3601|24|1 1,0,0,0,0,0,0,0,0,0,0,0,0,0,0,1,
scooby_state_429142|5|1 1,0,0,0,0,0,0,0,0,0,0,0,0,0,0,1,
scooby_state_42b58e|45|0 1,0,0,0,0,0,0,0,0,0,0,0,0,0,0,1,
scooby_state_42a403|16|1 1,0,0,0,0,0,0,0,0,0,0,0,0,0,0,1,
scooby_state_42afee|13|2 1,0,0,0,0,0,0,0,0,0,0,0,0,0,0,1,
scooby_state_4cd493|40|0 1,0,0,0,0,0,0,0,0,0,0,0,0,0,0,1,
scooby_state_42b50a|58|2 0,1,0,0,0,0,0,0,0,0,0,0,0,0,0,1,
scooby_state_42a533|26|0 1,0,0,0,0,0,0,0,0,0,0,0,0,0,0,1,
scooby_state_42b4d1|54|-1 1,0,0,0,0,0,0,0,0,0,0,0,0,0,0,1,
scooby_state_429885|34|1 1,0,0,0,0,0,0,0,0,0,0,0,0,0,0,1,
scooby_state_4f5169|21|-1 1,0,0,0,0,0,0,0,0,0,0,0,0,0,0,1,
scooby_state_40d4be|7|1 1,0,0,0,0,0,0,0,0,0,0,0,0,0,0,1,
scooby_state_42aef0|55|1 0,0,0,0,0,0,0,0,1,0,0,0,0,0,0,1,
scooby_state_40dff9|24|5 1,0,0,0,0,0,0,0,0,0,0,0,0,0,0,1,
scooby_state_42bc81|50|1 1,0,0,0,0,0,0,0,0,0,0,0,0,0,0,1,
scooby_state_42b4b1|27|0 0,1,0,0,0,0,0,0,0,0,0,0,0,0,0,1,
scooby_state_42b442|17|1 1,0,0,0,0,0,0,0,0,0,0,0,0,0,0,1,
scooby_state_42a9da|16|-23 1,0,0,0,0,0,0,0,0,0,0,0,0,0,0,1,
scooby_state_429b84|46|1 1,0,0,0,0,0,0,0,0,0,0,0,0,0,0,1,
scooby_state_40dff9|55|5 1,0,0,0,0,0,0,0,0,0,0,0,0,0,0,1,
scooby_state_40dff9|22|6 1,0,0,0,0,0,0,0,0,0,0,0,0,0,0,1,
scooby_state_40d940|37|-18 1,0,0,0,0,0,0,0,0,0,0,0,0,0,0,1,
scooby_state_4f3882|34|1 1,0,0,0,0,0,0,0,0,0,0,0,0,0,0,1,
scooby_state_400420|0|-54 1,0,0,0,0,0,0,0,0,0,0,0,0,0,0,1,
scooby_state_4cd4c5|19|1 1,0,0,0,0,0,0,0,0,0,0,0,0,0,0,1,
scooby_state_428dc1|55|1 1,0,0,0,0,0,0,0,0,0,0,0,0,0,0,1,
scooby_state_42b58e|30|0 1,0,0,0,0,0,0,0,0,0,0,0,0,0,0,1,
scooby_state_4aaf02|60|1 1,0,0,0,0,0,0,0,0,0,0,0,0,0,0,1,
scooby_state_4cd481|18|1 1,0,0,0,0,0,0,0,0,0,0,0,0,0,0,1,
scooby_state_42b006|41|-1 0,1,0,0,0,0,0,0,0,0,0,0,0,0,0,1,
scooby_state_40e11b|4|0 1,0,0,0,0,0,0,0,0,0,0,0,0,0,0,1,
scooby_state_42b600|24|1 1,0,0,0,0,0,0,0,0,0,0,0,0,0,0,1,
scooby_state_403acf|61|0 0,1,0,0,0,0,0,0,0,0,0,0,0,0,0,1,
scooby_state_40d640|25|1 1,0,0,0,0,0,0,0,0,0,0,0,0,0,0,1,
scooby_state_4f4135|4|0 1,0,0,0,0,0,0,0,0,0,0,0,0,0,0,1,
scooby_state_42b9cf|62|0 1,0,0,0,0,0,0,0,0,0,0,0,0,0,0,1,
scooby_state_40dff9|23|5 1,0,0,0,0,0,0,0,0,0,0,0,0,0,0,1,
scooby_state_42afee|18|-1 1,0,0,0,0,0,0,0,0,0,0,0,0,0,0,1,
scooby_state_40ddaa|15|1 0,1,0,0,0,0,0,0,0,0,0,0,0,0,0,1,
scooby_state_40dff9|33|5 1,0,0,0,0,0,0,0,0,0,0,0,0,0,0,1,
scooby_state_40dfa5|23|6 0,1,0,0,0,0,0,0,0,0,0,0,0,0,0,1,
scooby_state_42b58e|40|0 1,0,0,0,0,0,0,0,0,0,0,0,0,0,0,1,
scooby_state_480487|18|0 1,0,0,0,0,0,0,0,0,0,0,0,0,0,0,1,
scooby_state_429244|9|1 1,0,0,0,0,0,0,0,0,0,0,0,0,0,0,1,
scooby_state_42bd45|53|1 1,0,0,0,0,0,0,0,0,0,0,0,0,0,0,1,
scooby_state_429333|25|23 1,0,0,0,0,0,0,0,0,0,0,0,0,0,0,1,
scooby_state_403241|9|1 1,0,0,0,0,0,0,0,0,0,0,0,0,0,0,1,
scooby_state_40dff9|12|5 1,0,0,0,0,0,0,0,0,0,0,0,0,0,0,1,
scooby_state_4f3ba0|46|15 1,0,0,0,0,0,0,0,0,0,0,0,0,0,0,1,
scooby_state_40d700|28|0 1,0,0,0,0,0,0,0,0,0,0,0,0,0,0,1,
scooby_state_40d544|13|-1 1,0,0,0,0,0,0,0,0,0,0,0,0,0,0,1,
scooby_state_42bad3|43|-1 0,1,0,0,0,0,0,0,0,0,0,0,0,0,0,1,
scooby_state_42b565|52|0 1,0,0,0,0,0,0,0,0,0,0,0,0,0,0,1,
scooby_state_42b046|57|0 1,0,0,0,0,0,0,0,0,0,0,0,0,0,0,1,
scooby_state_4f3744|29|-13 1,0,0,0,0,0,0,0,0,0,0,0,0,0,0,1,
scooby_state_40dfa5|46|5 0,1,0,0,0,0,0,0,0,0,0,0,0,0,0,1,
scooby_state_4cd5e7|57|0 1,0,0,0,0,0,0,0,0,0,0,0,0,0,0,1,
scooby_state_40dfa5|34|5 0,1,0,0,0,0,0,0,0,0,0,0,0,0,0,1,
scooby_state_4f6c00|48|1 0,1,0,0,0,0,0,0,0,0,0,0,0,0,0,1,
scooby_state_40dff9|56|5 1,0,0,0,0,0,0,0,0,0,0,0,0,0,0,1,
scooby_state_40d9be|12|1 1,0,0,0,0,0,0,0,0,0,0,0,0,0,0,1,
scooby_state_42b006|38|0 0,0,0,0,0,0,0,0,0,0,0,0,0,0,1,1,
scooby_state_40d4be|18|0 1,0,0,0,0,0,0,0,0,0,0,0,0,0,0,1,
scooby_state_42b006|17|2 0,1,0,0,0,0,0,0,0,0,0,0,0,0,0,1,
scooby_state_4f4aee|55|0 0,1,0,0,0,0,0,0,0,0,0,0,0,0,0,1,
scooby_state_40dfa5|35|5 0,1,0,0,0,0,0,0,0,0,0,0,0,0,0,1,
scooby_state_429585|22|1 1,0,0,0,0,0,0,0,0,0,0,0,0,0,0,1,
scooby_state_4031c4|7|1 1,0,0,0,0,0,0,0,0,0,0,0,0,0,0,1,
scooby_state_40d937|36|-3 1,0,0,0,0,0,0,0,0,0,0,0,0,0,0,1,
scooby_state_42afee|2|2 1,0,0,0,0,0,0,0,0,0,0,0,0,0,0,1,
scooby_state_42a9da|19|-22 1,0,0,0,0,0,0,0,0,0,0,0,0,0,0,1,
scooby_state_42bac5|43|1 0,1,0,0,0,0,0,0,0,0,0,0,0,0,0,1,
scooby_state_42a533|44|0 1,0,0,0,0,0,0,0,0,0,0,0,0,0,0,1,
scooby_state_42b58e|21|0 1,0,0,0,0,0,0,0,0,0,0,0,0,0,0,1,
scooby_state_42be04|56|1 0,1,0,0,0,0,0,0,0,0,0,0,0,0,0,1,
scooby_state_429185|6|1 1,0,0,0,0,0,0,0,0,0,0,0,0,0,0,1,
scooby_state_42b006|53|-1 0,1,0,0,0,0,0,0,0,0,0,0,0,0,0,1,
scooby_state_429966|14|-1 0,0,0,0,0,0,0,0,0,0,0,1,0,0,0,1,
scooby_state_4f7281|10|1 1,0,0,0,0,0,0,0,0,0,0,0,0,0,0,1,
scooby_state_40da07|40|0 0,1,0,0,0,0,0,0,0,0,0,0,0,0,0,1,
scooby_state_42b046|44|0 1,0,0,0,0,0,0,0,0,0,0,0,0,0,0,1,
scooby_state_403ba5|46|0 1,0,0,0,0,0,0,0,0,0,0,0,0,0,0,1,
scooby_state_42a601|24|1 1,0,0,0,0,0,0,0,0,0,0,0,0,0,0,1,
scooby_state_40d9be|23|1 1,0,0,0,0,0,0,0,0,0,0,0,0,0,0,1,
scooby_state_40dfa5|15|6 0,1,0,0,0,0,0,0,0,0,0,0,0,0,0,1,
scooby_state_40d800|32|1 1,0,0,0,0,0,0,0,0,0,0,0,0,0,0,1,
scooby_state_4f37e0|31|1 1,0,0,0,0,0,0,0,0,0,0,0,0,0,0,1,
scooby_state_4cd565|61|0 1,0,0,0,0,0,0,0,0,0,0,0,0,0,0,1,
scooby_state_40db9a|14|1 0,1,0,0,0,0,0,0,0,0,0,0,0,0,0,1,
scooby_state_4f3c2e|48|14 1,0,0,0,0,0,0,0,0,0,0,0,0,0,0,1,
scooby_state_42a686|26|1 0,1,0,0,0,0,0,0,0,0,0,0,0,0,0,1,
scooby_state_40dfa5|59|6 0,1,0,0,0,0,0,0,0,0,0,0,0,0,0,1,
scooby_state_42a6c3|27|1 1,0,0,0,0,0,0,0,0,0,0,0,0,0,0,1,
scooby_state_4f4c42|49|1 0,1,0,0,0,0,0,0,0,0,0,0,0,0,0,1,
scooby_state_4f7260|9|0 0,1,0,0,0,0,0,0,0,0,0,0,0,0,0,1,
scooby_state_429d00|52|1 1,0,0,0,0,0,0,0,0,0,0,0,0,0,0,1,
scooby_state_4f3835|32|-14 1,0,0,0,0,0,0,0,0,0,0,0,0,0,0,1,
scooby_state_42921b|36|-1 1,0,0,0,0,0,0,0,0,0,0,0,0,0,0,1,
scooby_state_40d9be|22|1 1,0,0,0,0,0,0,0,0,0,0,0,0,0,0,1,
scooby_state_4f4140|5|1 1,0,0,0,0,0,0,0,0,0,0,0,0,0,0,1,
scooby_state_4aaed3|59|0 1,0,0,0,0,0,0,0,0,0,0,0,0,0,0,1,
scooby_state_40d9be|9|1 1,0,0,0,0,0,0,0,0,0,0,0,0,0,0,1,
scooby_state_42b565|31|0 1,0,0,0,0,0,0,0,0,0,0,0,0,0,0,1,
scooby_state_429ac4|43|1 1,0,0,0,0,0,0,0,0,0,0,0,0,0,0,1,
scooby_state_428d72|56|-1 1,0,0,0,0,0,0,0,0,0,0,0,0,0,0,1,
scooby_state_429205|8|1 1,0,0,0,0,0,0,0,0,0,0,0,0,0,0,1,
scooby_state_42a8f7|58|-2 1,0,0,0,0,0,0,0,0,0,0,0,0,0,0,1,
scooby_state_40dff9|44|5 1,0,0,0,0,0,0,0,0,0,0,0,0,0,0,1,
scooby_state_429e8c|46|1 0,1,0,0,0,0,0,0,0,0,0,0,0,0,0,1,
scooby_state_40dc03|48|1 1,0,0,0,0,0,0,0,0,0,0,0,0,0,0,1,
scooby_state_42a3f5|22|-23 0,0,0,0,0,0,0,0,1,0,0,0,0,0,0,1,
scooby_state_44f92f|0|-63 1,0,0,0,0,0,0,0,0,0,0,0,0,0,0,1,
scooby_state_42b180|6|1 0,0,0,0,0,0,0,0,1,0,0,0,0,0,0,1,
scooby_state_48044a|7|0 1,0,0,0,0,0,0,0,0,0,0,0,0,0,0,1,
scooby_state_429d74|63|1 1,0,0,0,0,0,0,0,0,0,0,0,0,0,0,1,
scooby_state_44f7fd|14|-1 1,0,0,0,0,0,0,0,0,0,0,0,0,0,0,1,
scooby_state_40d880|34|1 1,0,0,0,0,0,0,0,0,0,0,0,0,0,0,1,
scooby_state_42b05c|28|2 1,0,0,0,0,0,0,0,0,0,0,0,0,0,0,1,
scooby_state_40dff9|45|5 1,0,0,0,0,0,0,0,0,0,0,0,0,0,0,1,
scooby_state_42a044|1|1 1,0,0,0,0,0,0,0,0,0,0,0,0,0,0,1,
scooby_state_42b006|37|-1 0,1,0,0,0,0,0,0,0,0,0,0,0,0,0,1,
scooby_state_429e40|57|1 1,0,0,0,0,0,0,0,0,0,0,0,0,0,0,1,
scooby_state_40dfa5|48|5 0,1,0,0,0,0,0,0,0,0,0,0,0,0,0,1,
scooby_state_429643|60|-1 1,0,0,0,0,0,0,0,0,0,0,0,0,0,0,1,
scooby_state_42b4d1|62|0 1,0,0,0,0,0,0,0,0,0,0,0,0,0,0,1,
scooby_state_4f3751|53|-1 0,1,0,0,0,0,0,0,0,0,0,0,0,0,0,1,
scooby_state_40dfa5|38|0 1,0,0,0,0,0,0,0,0,0,0,0,0,0,0,1,
scooby_state_4f3720|28|3 1,0,0,0,0,0,0,0,0,0,0,0,0,0,0,1,
scooby_state_40dda9|14|0 0,0,0,0,0,0,1,0,0,0,0,0,0,0,0,1,
scooby_state_42ae82|58|1 1,0,0,0,0,0,0,0,0,0,0,0,0,0,0,1,
scooby_state_429ec5|59|1 0,1,0,0,0,0,0,0,0,0,0,0,0,0,0,1,
scooby_state_4f5048|0|0 1,0,0,0,0,0,0,0,0,0,0,0,0,0,0,1,
scooby_state_40dd51|53|3 1,0,0,0,0,0,0,0,0,0,0,0,0,0,0,1,
scooby_state_429563|10|-3 1,0,0,0,0,0,0,0,0,0,0,0,0,0,0,1,
scooby_state_429413|14|-1 1,0,0,0,0,0,0,0,0,0,0,0,0,0,0,1,
scooby_state_42b743|29|0 0,1,0,0,0,0,0,0,0,0,0,0,0,0,0,1,
scooby_state_40dfa5|45|6 0,1,0,0,0,0,0,0,0,0,0,0,0,0,0,1,
scooby_state_4293a3|1|-24 1,0,0,0,0,0,0,0,0,0,0,0,0,0,0,1,
scooby_state_42b565|41|0 1,0,0,0,0,0,0,0,0,0,0,0,0,0,0,1,
scooby_state_42b58e|29|0 1,0,0,0,0,0,0,0,0,0,0,0,0,0,0,1,
scooby_state_429b2a|44|1 1,0,0,0,0,0,0,0,0,0,0,0,0,0,0,1,
scooby_state_429253|26|-1 1,0,0,0,0,0,0,0,0,0,0,0,0,0,0,1,
scooby_state_403af8|60|1 0,0,0,0,0,0,1,0,0,0,0,0,0,0,0,1,
scooby_state_42906b|21|-1 1,0,0,0,0,0,0,0,0,0,0,0,0,0,0,1,
scooby_state_44f843|33|1 1,0,0,0,0,0,0,0,0,0,0,0,0,0,0,1,
scooby_state_42a846|33|1 0,0,0,0,0,1,0,0,0,0,0,0,0,0,0,1,
scooby_state_40dd84|50|0 1,0,0,0,0,0,0,0,0,0,0,0,0,0,0,1,
scooby_state_44f782|6|-44 1,0,0,0,0,0,0,0,0,0,0,0,0,0,0,1,
scooby_state_42b4b1|8|0 0,1,0,0,0,0,0,0,0,0,0,0,0,0,0,1,
scooby_state_428d43|53|1 1,0,0,0,0,0,0,0,0,0,0,0,0,0,0,1,
scooby_state_42b97c|41|-14 0,1,0,0,0,0,0,0,0,0,0,0,0,0,0,1,
scooby_state_42b046|31|0 1,0,0,0,0,0,0,0,0,0,0,0,0,0,0,1,
scooby_state_40d4f3|8|-1 0,1,0,0,0,0,0,0,0,0,0,0,0,0,0,1,
scooby_state_42b4b1|53|0 0,1,0,0,0,0,0,0,0,0,0,0,0,0,0,1,
scooby_state_429505|20|1 0,1,0,0,0,0,0,0,0,0,0,0,0,0,0,1,
scooby_state_42ad06|52|1 1,0,0,0,0,0,0,0,0,0,0,0,0,0,0,1,
scooby_state_4f6c40|49|1 1,0,0,0,0,0,0,0,0,0,0,0,0,0,0,1,
scooby_state_42b4b1|56|0 0,1,0,0,0,0,0,0,0,0,0,0,0,0,0,1,
scooby_state_40dff9|43|6 1,0,0,0,0,0,0,0,0,0,0,0,0,0,0,1,
scooby_state_40dd84|54|0 1,0,0,0,0,0,0,0,0,0,0,0,0,0,0,1,
scooby_state_48048b|8|1 1,0,0,0,0,0,0,0,0,0,0,0,0,0,0,1,
scooby_state_42b58e|55|0 1,0,0,0,0,0,0,0,0,0,0,0,0,0,0,1,
scooby_state_40dff9|34|5 1,0,0,0,0,0,0,0,0,0,0,0,0,0,0,1,
scooby_state_4cd4a7|41|1 1,0,0,0,0,0,0,0,0,0,0,0,0,0,0,1,
scooby_state_42a101|4|1 0,1,0,0,0,0,0,0,0,0,0,0,0,0,0,1,
scooby_state_42a3f5|41|-22 1,0,0,0,0,0,0,0,0,0,0,0,0,0,0,1,
scooby_state_40d605|24|1 1,0,0,0,0,0,0,0,0,0,0,0,0,0,0,1,
scooby_state_42b8c4|35|1 1,0,0,0,0,0,0,0,0,0,0,0,0,0,0,1,
scooby_state_40d9be|2|1 0,0,0,0,0,0,1,0,0,0,0,0,0,0,0,1,
scooby_state_44f928|38|0 0,1,0,0,0,0,0,0,0,0,0,0,0,0,0,1,
scooby_state_42a583|22|1 1,0,0,0,0,0,0,0,0,0,0,0,0,0,0,1,
scooby_state_40db48|45|1 1,0,0,0,0,0,0,0,0,0,0,0,0,0,0,1,
scooby_state_42a744|29|0 0,1,0,0,0,0,0,0,0,0,0,0,0,0,0,1,
scooby_state_42b05c|5|2 1,0,0,0,0,0,0,0,0,0,0,0,0,0,0,1,
scooby_state_4f53a8|14|5 1,0,0,0,0,0,0,0,0,0,0,0,0,0,0,1,
scooby_state_4f6be0|47|0 0,1,0,0,0,0,0,0,0,0,0,0,0,0,0,1,
scooby_state_42b565|55|0 1,0,0,0,0,0,0,0,0,0,0,0,0,0,0,1,
scooby_state_40d9be|5|1 1,0,0,0,0,0,0,0,0,0,0,0,0,0,0,1,
scooby_state_42b824|60|-1 0,0,0,0,0,0,0,0,1,0,0,0,0,0,0,1,
scooby_state_4f3aa0|53|-1 1,0,0,0,0,0,0,0,0,0,0,0,0,0,0,1,
scooby_state_42afee|0|-1 1,0,0,0,0,0,0,0,0,0,0,0,0,0,0,1,
scooby_state_40dfa5|25|5 0,1,0,0,0,0,0,0,0,0,0,0,0,0,0,1,
scooby_state_403bc4|47|2 1,0,0,0,0,0,0,0,0,0,0,0,0,0,0,1,
scooby_state_40db6e|52|0 1,0,0,0,0,0,0,0,0,0,0,0,0,0,0,1,
scooby_state_4cd504|20|1 1,0,0,0,0,0,0,0,0,0,0,0,0,0,0,1,
scooby_state_40d9be|14|1 1,0,0,0,0,0,0,0,0,0,0,0,0,0,0,1,
scooby_state_40df80|62|37 1,0,0,0,0,0,0,0,0,0,0,0,0,0,0,1,
scooby_state_4f4be8|47|2 0,1,0,0,0,0,0,0,0,0,0,0,0,0,0,1,
scooby_state_428d83|48|8 0,1,0,0,0,0,0,0,0,0,0,0,0,0,0,1,
scooby_state_40dff9|36|6 1,0,0,0,0,0,0,0,0,0,0,0,0,0,0,1,
scooby_state_429705|28|1 1,0,0,0,0,0,0,0,0,0,0,0,0,0,0,1,
scooby_state_42ba0d|44|0 0,1,0,0,0,0,0,0,0,0,0,0,0,0,0,1,
scooby_state_429e07|56|1 0,1,0,0,0,0,0,0,0,0,0,0,0,0,0,1,
scooby_state_428ccd|40|0 1,0,0,0,0,0,0,0,0,0,0,0,0,0,0,1,
scooby_state_42bc41|49|1 1,0,0,0,0,0,0,0,0,0,0,0,0,0,0,1,
scooby_state_42a0c0|3|1 1,0,0,0,0,0,0,0,0,0,0,0,0,0,0,1,
scooby_state_4294bb|22|-1 0,1,0,0,0,0,0,0,0,0,0,0,0,0,0,1,
scooby_state_40d716|50|-1 1,0,0,0,0,0,0,0,0,0,0,0,0,0,0,1,
scooby_state_40d4df|52|0 1,0,0,0,0,0,0,0,0,0,0,0,0,0,0,1,
scooby_state_428cfd|57|51 0,1,0,0,0,0,0,0,0,0,0,0,0,0,0,1,
scooby_state_42b05c|62|0 1,0,0,0,0,0,0,0,0,0,0,0,0,0,0,1,
scooby_state_42c100|4|1 1,0,0,0,0,0,0,0,0,0,0,0,0,0,0,1,
scooby_state_42b53a|41|0 1,0,0,0,0,0,0,0,0,0,0,0,0,0,0,1,
scooby_state_40dfa5|33|5 0,1,0,0,0,0,0,0,0,0,0,0,0,0,0,1,
scooby_state_42ab02|44|1 1,0,0,0,0,0,0,0,0,0,0,0,0,0,0,1,
scooby_state_42b565|21|0 1,0,0,0,0,0,0,0,0,0,0,0,0,0,0,1,
scooby_state_4f5648|25|24 0,1,0,0,0,0,0,0,0,0,0,0,0,0,0,1,
scooby_state_429003|0|0 1,0,0,0,0,0,0,0,0,0,0,0,0,0,0,1,
scooby_state_480442|17|1 0,1,0,0,0,0,0,0,0,0,0,0,0,0,0,1,
scooby_state_42a3f5|0|-23 0,1,0,0,0,0,0,0,0,0,0,0,0,0,0,1,
scooby_state_42b006|60|-1 0,1,0,0,0,0,0,0,0,0,0,0,0,0,0,1,
scooby_state_4f3a80|42|14 1,0,0,0,0,0,0,0,0,0,0,0,0,0,0,1,
scooby_state_44f838|36|0 1,0,0,0,0,0,0,0,0,0,0,0,0,0,0,1,
scooby_state_42afee|53|-1 1,0,0,0,0,0,0,0,0,0,0,0,0,0,0,1,

scooby_action_0_deg_dist 0,90396,0,0,0,0,0,0,0,0,0,0,0,0,0,0,
scooby_action_4_deg_dist 0,4016,12,0,1,0,0,0,0,0,0,0,0,0,0,0,
scooby_action_32_deg_dist 0,3316,0,0,0,0,0,0,0,0,0,0,0,0,0,0,
scooby_action_3_deg_dist 0,29072,6242,0,15411,0,102609,0,0,0,0,0,0,0,0,0,
scooby_action_5_deg_dist 0,4707,20,0,2,0,0,0,0,0,0,0,0,0,0,0,
scooby_action_1_deg_dist 0,1066016,37123,0,71988,0,454253,0,0,0,0,0,0,0,0,0,
scooby_action_30_deg_dist 0,17719,5,0,6,0,2,0,0,0,0,0,0,0,0,0,
scooby_action_-3_deg_dist 0,4204,9,0,0,0,0,0,0,0,0,0,0,0,0,0,
scooby_action_10_deg_dist 0,4021,16,0,0,0,0,0,0,0,0,0,0,0,0,0,
scooby_action_-1_deg_dist 0,5159,13,0,7,0,0,0,0,0,0,0,0,0,0,0,
scooby_action_23_deg_dist 0,1382188,76748,0,70,0,69,0,0,0,0,0,0,0,0,0,
scooby_action_-6_deg_dist 0,4056,11,0,0,0,0,0,0,0,0,0,0,0,0,0,
scooby_action_11_deg_dist 0,558650,328617,0,110606,0,60264,0,0,0,0,0,0,0,0,0,
scooby_action_22_deg_dist 0,102966,177,0,4,0,0,0,0,0,0,0,0,0,0,0,
scooby_action_12_deg_dist 0,4920,59,0,0,0,0,0,0,0,0,0,0,0,0,0,

scooby_track_called 4545750
scooby_track_same_address 73948
scooby_track_evict 4471546

scooby_reward_demand_called 4545750
scooby_reward_demand_pt_not_found 2566324
scooby_reward_demand_pt_found 1979426
scooby_reward_demand_pt_found_total 1979426
scooby_reward_demand_has_reward 2
scooby_reward_train_called 1743877
scooby_reward_assign_reward_called 4471680
scooby_reward_no_pref 90396
scooby_reward_incorrect 1653481
scooby_reward_correct_untimely 1467929
scooby_reward_correct_timely 511495
scooby_reward_out_of_bounds 748379
scooby_reward_tracker_hit 0

scooby_reward_none_low_bw 90396
scooby_reward_none_high_bw 0
scooby_reward_incorrect_low_bw 1653481
scooby_reward_incorrect_high_bw 0
scooby_reward_correct_untimely_low_bw 1467929
scooby_reward_correct_untimely_high_bw 0
scooby_reward_correct_timely_low_bw 511495
scooby_reward_correct_timely_high_bw 0
scooby_reward_out_of_bounds_low_bw 748379
scooby_reward_out_of_bounds_high_bw 0
scooby_reward_tracker_hit_low_bw 0
scooby_reward_tracker_hit_high_bw 0

scooby_reward_1 0,950931,568180,18181,26833,0,
scooby_reward_3 0,19662,120098,6101,7152,0,
scooby_reward_4 0,3640,87,8,283,0,
scooby_reward_5 0,3831,429,15,440,0,
scooby_reward_10 0,3065,138,29,790,0,
scooby_reward_11 0,294924,384660,189397,182264,0,
scooby_reward_12 0,3078,307,259,1180,0,
scooby_reward_22 0,45447,20263,15097,22340,0,
scooby_reward_23 0,305877,370506,280401,502090,0,
scooby_reward_30 0,9891,3004,2004,2833,0,
scooby_reward_32 0,1540,0,3,1773,0,
scooby_reward_-1 0,4078,156,0,43,0,
scooby_reward_-3 0,3821,101,0,132,0,
scooby_reward_-6 0,3696,0,0,226,0,
scooby_reward_0 90396,0,0,0,0,0,

scooby_train_called 4471545
scooby_train_compute_reward 1743877

scooby_register_fill_called 1799957
scooby_register_fill_set 1470551
scooby_register_fill_set_total 1470551

scooby_register_prefetch_hit_called 4755673
scooby_register_prefetch_hit_set 2113058
scooby_register_prefetch_hit_set_total 2113058

scooby_pref_issue_scooby 6621313

learning_engine_featurewise.action.called 4545750
learning_engine_featurewise.action.explore 8338
learning_engine_featurewise.action.exploit 4537412
learning_engine_featurewise.action.fallback 971330
learning_engine_featurewise.action.dyn_fallback_saved_bw 0
learning_engine_featurewise.action.dyn_fallback_saved_bw_acc 62063
learning_engine_featurewise.action.index_1_explored 562
learning_engine_featurewise.action.index_1_exploited 1628818
learning_engine_featurewise.action.index_3_explored 566
learning_engine_featurewise.action.index_3_exploited 152768
learning_engine_featurewise.action.index_4_explored 562
learning_engine_featurewise.action.index_4_exploited 3467
learning_engine_featurewise.action.index_5_explored 530
learning_engine_featurewise.action.index_5_exploited 4199
learning_engine_featurewise.action.index_10_explored 594
learning_engine_featurewise.action.index_10_exploited 3443
learning_engine_featurewise.action.index_11_explored 563
learning_engine_featurewise.action.index_11_exploited 1057574
learning_engine_featurewise.action.index_12_explored 583
learning_engine_featurewise.action.index_12_exploited 4396
learning_engine_featurewise.action.index_22_explored 555
learning_engine_featurewise.action.index_22_exploited 102592
learning_engine_featurewise.action.index_23_explored 562
learning_engine_featurewise.action.index_23_exploited 1458513
learning_engine_featurewise.action.index_30_explored 556
learning_engine_featurewise.action.index_30_exploited 17176
learning_engine_featurewise.action.index_32_explored 511
learning_engine_featurewise.action.index_32_exploited 2805
learning_engine_featurewise.action.index_-1_explored 558
learning_engine_featurewise.action.index_-1_exploited 4621
learning_engine_featurewise.action.index_-3_explored 534
learning_engine_featurewise.action.index_-3_exploited 3679
learning_engine_featurewise.action.index_-6_explored 543
learning_engine_featurewise.action.index_-6_exploited 3524
learning_engine_featurewise.action.index_0_explored 559
learning_engine_featurewise.action.index_0_exploited 89837
learning_engine_featurewise.learn.called 4471545
learning_engine_featurewise.learn.su_skip_PC 0
learning_engine_featurewise.learn.su_skip_PC_Delta 0

learning_engine_featurewise.q_value_histogram.bucket_0 848
learning_engine_featurewise.q_value_histogram.bucket_1 8679
learning_engine_featurewise.q_value_histogram.bucket_2 1338853
learning_engine_featurewise.q_value_histogram.bucket_3 317384
learning_engine_featurewise.q_value_histogram.bucket_4 654133
learning_engine_featurewise.q_value_histogram.bucket_5 924208
learning_engine_featurewise.q_value_histogram.bucket_6 1293307
learning_engine_featurewise.q_value_histogram.bucket_7 0

learning_engine_featurewise.consensus.total 4537412
learning_engine_featurewise.consensus.feature_align_PC 4202988
learning_engine_featurewise.consensus.feature_align_PC_ratio 0.93
learning_engine_featurewise.consensus.feature_align_PC_Delta 3460371
learning_engine_featurewise.consensus.feature_align_PC_Delta_ratio 0.76
learning_engine_featurewise.consensus.feature_align_all 3135463
learning_engine_featurewise.consensus.feature_align_all_ratio 0.69

learning_engine_featurewise.feature_PC_min_weight 1000000.00000000
learning_engine_featurewise.feature_PC_max_weight 0.00000000
learning_engine_featurewise.feature_PC_Delta_min_weight 1000000.00000000
learning_engine_featurewise.feature_PC_Delta_max_weight 0.00000000
unique_pcs 706
unique_pages 67073
unique_trigger_pcs 219
total_bitmaps_seen 0
unique_bitmaps_seen 0

scooby_bw_epochs 456087
scooby_bw_level_0 256796
scooby_bw_level_1 179538
scooby_bw_level_2 18303
scooby_bw_level_3 1450

scooby_ipc_epochs 0
scooby_ipc_level_0 0
scooby_ipc_level_1 0
scooby_ipc_level_2 0
scooby_ipc_level_3 0

scooby_cache_acc_epochs 95002
scooby_cache_acc_level_0 247
scooby_cache_acc_level_1 712
scooby_cache_acc_level_2 5001
scooby_cache_acc_level_3 15340
scooby_cache_acc_level_4 26796
scooby_cache_acc_level_5 25558
scooby_cache_acc_level_6 12314
scooby_cache_acc_level_7 4314
scooby_cache_acc_level_8 1544
scooby_cache_acc_level_9 3176

Channel_0_RQ_row_buffer_hit 386534
Channel_0_RQ_row_buffer_miss 666271
Channel_0_WQ_row_buffer_hit 1842
Channel_0_WQ_row_buffer_miss 7359
Channel_0_WQ_full 0
Channel_0_dbus_congested 309388

avg_congested_cycle 8

DRAM_bw_pochs 456087
DRAM_bw_level_0 256796
DRAM_bw_level_1 179538
DRAM_bw_level_2 18303
DRAM_bw_level_3 1450
