*************************************************
   ChampSim Multicore Out-of-Order Simulator
   Last compiled: Apr  3 2025 20:54:34
*************************************************
parsing config file: /home/zir/Pythia/config/spp_dev2.ini

trace_0 /home/zir/ChampSim/ML-DPC/ChampSimTraces/spec06/470.lbm-s1.trace.gz
adding L2C_PREFETCHER: SPP_dev2
Initialize SIGNATURE TABLE
ST_SET: 1
ST_WAY: 256
ST_TAG_BIT: 16
ST_TAG_MASK: ffff

Initialize PATTERN TABLE
PT_SET: 512
PT_WAY: 4
SIG_DELTA_BIT: 7
C_SIG_BIT: 4
C_DELTA_BIT: 4

Initialize PREFETCH FILTER
FILTER_SET: 1024
fill_threshold: 90
pf_threshold: 40

Initialize SHIP state
warmup_instructions 10000000
simulation_instructions 50000000
champsim_seed 164
measure_ipc 0
measure_ipc_epoch 1000
measure_dram_bw 1
measure_dram_bw_epoch 256
measure_cache_acc 1
measure_cache_acc_epoch 1024
l1d_perfect 0
l2c_perfect 0
llc_perfect 0
l1d_semi_perfect 0
l2c_semi_perfect 0
llc_semi_perfect 0
semi_perfect_cache_page_buffer_size 64

num_cpus 1
cpu_freq 4000
dram_io_freq 2400
page_size 4096
block_size 64
max_read_per_cycle 8
max_fill_per_cycle 1
dram_channels 1
log2_dram_channels 0
dram_ranks 1
dram_banks 8
dram_rows 65536
dram_columns 128
dram_row_size 8
dram_size 4096
dram_pages 1048576

fetch_width 6
decode_width 6
exec_width 4
lq_width 2
sq_width 2
retire_width 4
scheduler_size 128
branch_mispredict_penalty 20
rob_size 256
lq_size 72
sq_size 56
num_instr_destinations_sparc 4
num_instr_destinations 2
num_instr_sources 4

itlb_set 16
itlb_way 8
itlb_rq_size 16
itlb_wq_size 16
itlb_pq_size 0
itlb_mshr_size 8
itlb_latency 1

dtlb_set 16
dtlb_way 4
dtlb_rq_size 16
dtlb_wq_size 16
dtlb_pq_size 0
dtlb_mshr_size 8
dtlb_latency 1

stlb_set 128
stlb_way 12
stlb_rq_size 32
stlb_wq_size 32
stlb_pq_size 0
stlb_mshr_size 16
stlb_latency 8

l1i_size 32
l1i_set 64
l1i_way 8
l1i_rq_size 64
l1i_wq_size 64
l1i_pq_size 8
l1i_mshr_size 8
l1i_latency 1

l1d_size 32
l1d_set 64
l1d_way 8
l1d_rq_size 64
l1d_wq_size 64
l1d_pq_size 8
l1d_mshr_size 16
l1d_latency 4

l2c_size 256
l2c_set 512
l2c_way 8
l2c_rq_size 32
l2c_wq_size 32
l2c_pq_size 32
l2c_mshr_size 32
l2c_latency 10

llc_size 2048
llc_set 2048
llc_way 16
llc_rq_size 32
llc_wq_size 32
llc_pq_size 32
llc_mshr_size 64
llc_latency 20

dram_channel_width 8
dram_wq_size 64
dram_rq_size 64
tRP 15
tRCD 15
tCAS 12.5
dram_dbus_turn_around_time 30
dram_write_high_wm 56
dram_write_low_wm 48
min_dram_writes_per_switch 16
dram_mtps 2400
dram_dbus_return_time 13


Heartbeat CPU  0 instructions:    1000001 cycles:     392290 heartbeat IPC: 2.54914 cumulative IPC: 2.54914 (Simulation time: 0 hr 0 min 2 sec) 
Heartbeat CPU  0 instructions:    2000000 cycles:     766466 heartbeat IPC: 2.67254 cumulative IPC: 2.60938 (Simulation time: 0 hr 0 min 3 sec) 
Heartbeat CPU  0 instructions:    3000002 cycles:    1145584 heartbeat IPC: 2.63771 cumulative IPC: 2.61875 (Simulation time: 0 hr 0 min 5 sec) 
Heartbeat CPU  0 instructions:    4000000 cycles:    1536312 heartbeat IPC: 2.55932 cumulative IPC: 2.60364 (Simulation time: 0 hr 0 min 7 sec) 
Heartbeat CPU  0 instructions:    5000001 cycles:    1910529 heartbeat IPC: 2.67225 cumulative IPC: 2.61708 (Simulation time: 0 hr 0 min 8 sec) 
Heartbeat CPU  0 instructions:    6000002 cycles:    2290568 heartbeat IPC: 2.63131 cumulative IPC: 2.61944 (Simulation time: 0 hr 0 min 10 sec) 
Heartbeat CPU  0 instructions:    7000001 cycles:    2680548 heartbeat IPC: 2.56423 cumulative IPC: 2.61141 (Simulation time: 0 hr 0 min 11 sec) 
Heartbeat CPU  0 instructions:    8000000 cycles:    3054719 heartbeat IPC: 2.67257 cumulative IPC: 2.61890 (Simulation time: 0 hr 0 min 13 sec) 
Heartbeat CPU  0 instructions:    9000003 cycles:    3434779 heartbeat IPC: 2.63117 cumulative IPC: 2.62026 (Simulation time: 0 hr 0 min 15 sec) 
Heartbeat CPU  0 instructions:   10000001 cycles:    3823554 heartbeat IPC: 2.57218 cumulative IPC: 2.61537 (Simulation time: 0 hr 0 min 16 sec) 

Warmup complete CPU  0 instructions:   10000001 cycles:    3823554 (Simulation time: 0 hr 0 min 16 sec) 

Heartbeat CPU  0 instructions:   11000003 cycles:    5332836 heartbeat IPC: 0.66257 cumulative IPC: 0.66257 (Simulation time: 0 hr 0 min 18 sec) 
Heartbeat CPU  0 instructions:   12000000 cycles:    7125267 heartbeat IPC: 0.55790 cumulative IPC: 0.60575 (Simulation time: 0 hr 0 min 21 sec) 
Heartbeat CPU  0 instructions:   13000000 cycles:    9069871 heartbeat IPC: 0.51424 cumulative IPC: 0.57183 (Simulation time: 0 hr 0 min 23 sec) 
Heartbeat CPU  0 instructions:   14000003 cycles:   10521280 heartbeat IPC: 0.68899 cumulative IPC: 0.59722 (Simulation time: 0 hr 0 min 26 sec) 
Heartbeat CPU  0 instructions:   15000001 cycles:   12345315 heartbeat IPC: 0.54823 cumulative IPC: 0.58673 (Simulation time: 0 hr 0 min 28 sec) 
Heartbeat CPU  0 instructions:   16000000 cycles:   14231581 heartbeat IPC: 0.53015 cumulative IPC: 0.57648 (Simulation time: 0 hr 0 min 31 sec) 
Heartbeat CPU  0 instructions:   17000001 cycles:   15927935 heartbeat IPC: 0.58950 cumulative IPC: 0.57830 (Simulation time: 0 hr 0 min 33 sec) 
Heartbeat CPU  0 instructions:   18000001 cycles:   17577653 heartbeat IPC: 0.60616 cumulative IPC: 0.58164 (Simulation time: 0 hr 0 min 35 sec) 
Heartbeat CPU  0 instructions:   19000000 cycles:   19411779 heartbeat IPC: 0.54522 cumulative IPC: 0.57736 (Simulation time: 0 hr 0 min 38 sec) 
Heartbeat CPU  0 instructions:   20000000 cycles:   21132584 heartbeat IPC: 0.58112 cumulative IPC: 0.57773 (Simulation time: 0 hr 0 min 40 sec) 
Heartbeat CPU  0 instructions:   21000001 cycles:   22966271 heartbeat IPC: 0.54535 cumulative IPC: 0.57463 (Simulation time: 0 hr 0 min 43 sec) 
Heartbeat CPU  0 instructions:   22000000 cycles:   24770775 heartbeat IPC: 0.55417 cumulative IPC: 0.57287 (Simulation time: 0 hr 0 min 45 sec) 
Heartbeat CPU  0 instructions:   23000000 cycles:   26348230 heartbeat IPC: 0.63393 cumulative IPC: 0.57714 (Simulation time: 0 hr 0 min 47 sec) 
Heartbeat CPU  0 instructions:   24000000 cycles:   28150816 heartbeat IPC: 0.55476 cumulative IPC: 0.57549 (Simulation time: 0 hr 0 min 50 sec) 
Heartbeat CPU  0 instructions:   25000000 cycles:   30121116 heartbeat IPC: 0.50754 cumulative IPC: 0.57040 (Simulation time: 0 hr 0 min 52 sec) 
Heartbeat CPU  0 instructions:   26000003 cycles:   31647743 heartbeat IPC: 0.65504 cumulative IPC: 0.57504 (Simulation time: 0 hr 0 min 55 sec) 
Heartbeat CPU  0 instructions:   27000002 cycles:   33173466 heartbeat IPC: 0.65543 cumulative IPC: 0.57922 (Simulation time: 0 hr 0 min 57 sec) 
Heartbeat CPU  0 instructions:   28000000 cycles:   35025054 heartbeat IPC: 0.54008 cumulative IPC: 0.57690 (Simulation time: 0 hr 0 min 59 sec) 
Heartbeat CPU  0 instructions:   29000000 cycles:   36571835 heartbeat IPC: 0.64650 cumulative IPC: 0.58018 (Simulation time: 0 hr 1 min 2 sec) 
Heartbeat CPU  0 instructions:   30000000 cycles:   38307608 heartbeat IPC: 0.57611 cumulative IPC: 0.57998 (Simulation time: 0 hr 1 min 4 sec) 
Heartbeat CPU  0 instructions:   31000003 cycles:   40092103 heartbeat IPC: 0.56038 cumulative IPC: 0.57901 (Simulation time: 0 hr 1 min 6 sec) 
Heartbeat CPU  0 instructions:   32000000 cycles:   41660854 heartbeat IPC: 0.63745 cumulative IPC: 0.58144 (Simulation time: 0 hr 1 min 9 sec) 
Heartbeat CPU  0 instructions:   33000002 cycles:   43264405 heartbeat IPC: 0.62362 cumulative IPC: 0.58315 (Simulation time: 0 hr 1 min 11 sec) 
Heartbeat CPU  0 instructions:   34000003 cycles:   45205325 heartbeat IPC: 0.51522 cumulative IPC: 0.57997 (Simulation time: 0 hr 1 min 14 sec) 
Heartbeat CPU  0 instructions:   35000003 cycles:   46661648 heartbeat IPC: 0.68666 cumulative IPC: 0.58359 (Simulation time: 0 hr 1 min 16 sec) 
Heartbeat CPU  0 instructions:   36000000 cycles:   48363019 heartbeat IPC: 0.58776 cumulative IPC: 0.58375 (Simulation time: 0 hr 1 min 18 sec) 
Heartbeat CPU  0 instructions:   37000003 cycles:   50129058 heartbeat IPC: 0.56624 cumulative IPC: 0.58308 (Simulation time: 0 hr 1 min 21 sec) 
Heartbeat CPU  0 instructions:   38000000 cycles:   51753060 heartbeat IPC: 0.61576 cumulative IPC: 0.58419 (Simulation time: 0 hr 1 min 23 sec) 
Heartbeat CPU  0 instructions:   39000000 cycles:   53293470 heartbeat IPC: 0.64918 cumulative IPC: 0.58621 (Simulation time: 0 hr 1 min 25 sec) 
Heartbeat CPU  0 instructions:   40000000 cycles:   55117246 heartbeat IPC: 0.54831 cumulative IPC: 0.58487 (Simulation time: 0 hr 1 min 28 sec) 
Heartbeat CPU  0 instructions:   41000003 cycles:   56858541 heartbeat IPC: 0.57429 cumulative IPC: 0.58452 (Simulation time: 0 hr 1 min 30 sec) 
Heartbeat CPU  0 instructions:   42000003 cycles:   58165465 heartbeat IPC: 0.76516 cumulative IPC: 0.58886 (Simulation time: 0 hr 1 min 32 sec) 
Heartbeat CPU  0 instructions:   43000003 cycles:   59914773 heartbeat IPC: 0.57165 cumulative IPC: 0.58833 (Simulation time: 0 hr 1 min 35 sec) 
Heartbeat CPU  0 instructions:   44000000 cycles:   61835740 heartbeat IPC: 0.52057 cumulative IPC: 0.58608 (Simulation time: 0 hr 1 min 37 sec) 
Heartbeat CPU  0 instructions:   45000002 cycles:   63279944 heartbeat IPC: 0.69242 cumulative IPC: 0.58867 (Simulation time: 0 hr 1 min 39 sec) 
Heartbeat CPU  0 instructions:   46000001 cycles:   64891242 heartbeat IPC: 0.62062 cumulative IPC: 0.58951 (Simulation time: 0 hr 1 min 42 sec) 
Heartbeat CPU  0 instructions:   47000003 cycles:   66608305 heartbeat IPC: 0.58239 cumulative IPC: 0.58932 (Simulation time: 0 hr 1 min 44 sec) 
Heartbeat CPU  0 instructions:   48000000 cycles:   68226388 heartbeat IPC: 0.61801 cumulative IPC: 0.59004 (Simulation time: 0 hr 1 min 46 sec) 
Heartbeat CPU  0 instructions:   49000000 cycles:   69813210 heartbeat IPC: 0.63019 cumulative IPC: 0.59100 (Simulation time: 0 hr 1 min 49 sec) 
Heartbeat CPU  0 instructions:   50000003 cycles:   71289663 heartbeat IPC: 0.67730 cumulative IPC: 0.59289 (Simulation time: 0 hr 1 min 51 sec) 
Heartbeat CPU  0 instructions:   51000000 cycles:   72934375 heartbeat IPC: 0.60801 cumulative IPC: 0.59325 (Simulation time: 0 hr 1 min 53 sec) 
Heartbeat CPU  0 instructions:   52000000 cycles:   74520876 heartbeat IPC: 0.63032 cumulative IPC: 0.59408 (Simulation time: 0 hr 1 min 55 sec) 
Heartbeat CPU  0 instructions:   53000001 cycles:   76150996 heartbeat IPC: 0.61345 cumulative IPC: 0.59452 (Simulation time: 0 hr 1 min 58 sec) 
Heartbeat CPU  0 instructions:   54000000 cycles:   77857141 heartbeat IPC: 0.58612 cumulative IPC: 0.59432 (Simulation time: 0 hr 2 min 0 sec) 
Heartbeat CPU  0 instructions:   55000000 cycles:   79472465 heartbeat IPC: 0.61907 cumulative IPC: 0.59485 (Simulation time: 0 hr 2 min 2 sec) 
Heartbeat CPU  0 instructions:   56000000 cycles:   81086129 heartbeat IPC: 0.61971 cumulative IPC: 0.59537 (Simulation time: 0 hr 2 min 5 sec) 
Heartbeat CPU  0 instructions:   57000003 cycles:   82628236 heartbeat IPC: 0.64847 cumulative IPC: 0.59641 (Simulation time: 0 hr 2 min 7 sec) 
Heartbeat CPU  0 instructions:   58000000 cycles:   84024367 heartbeat IPC: 0.71626 cumulative IPC: 0.59850 (Simulation time: 0 hr 2 min 9 sec) 
Heartbeat CPU  0 instructions:   59000002 cycles:   85570478 heartbeat IPC: 0.64679 cumulative IPC: 0.59941 (Simulation time: 0 hr 2 min 11 sec) 
Heartbeat CPU  0 instructions:   60000000 cycles:   87185434 heartbeat IPC: 0.61921 cumulative IPC: 0.59979 (Simulation time: 0 hr 2 min 14 sec) 
Finished CPU 0 instructions: 50000000 cycles: 83361889 cumulative IPC: 0.59979 (Simulation time: 0 hr 2 min 14 sec) 

ChampSim completed all CPUs

[ROI Statistics]
Core_0_instructions 50000000
Core_0_cycles 83361889
Core_0_IPC 0.59979

Core_0_branch_prediction_accuracy 99.43496
Core_0_branch_MPKI 0.06736
Core_0_average_ROB_occupancy_at_mispredict 223.47150

Core_0_L1D_total_access 8278748
Core_0_L1D_total_hit 5680969
Core_0_L1D_total_miss 2597779
Core_0_L1D_loads 3176159
Core_0_L1D_load_hit 2782134
Core_0_L1D_load_miss 394025
Core_0_L1D_RFOs 5102589
Core_0_L1D_RFO_hit 2898835
Core_0_L1D_RFO_miss 2203754
Core_0_L1D_prefetches 0
Core_0_L1D_prefetch_hit 0
Core_0_L1D_prefetch_miss 0
Core_0_L1D_writebacks 0
Core_0_L1D_writeback_hit 0
Core_0_L1D_writeback_miss 0
Core_0_L1D_prefetch_requested 0
Core_0_L1D_prefetch_dropped 0
Core_0_L1D_prefetch_issued 0
Core_0_L1D_prefetch_filled 0
Core_0_L1D_prefetch_useful 0
Core_0_L1D_prefetch_useless 0
Core_0_L1D_prefetch_late 0
Core_0_L1D_average_miss_latency 434.42069

Core_0_L1D_rq_access 8810441
Core_0_L1D_rq_forward 0
Core_0_L1D_rq_merged 5299262
Core_0_L1D_rq_to_cache 3283545
Core_0_L1D_rq_full 0

Core_0_L1D_wq_access 5240596
Core_0_L1D_wq_forward 227634
Core_0_L1D_wq_merged 64087
Core_0_L1D_wq_to_cache 5176509
Core_0_L1D_wq_full 0

Core_0_L1D_pq_access 0
Core_0_L1D_pq_forward 0
Core_0_L1D_pq_merged 0
Core_0_L1D_pq_to_cache 0
Core_0_L1D_pq_full 0

Core_0_L1D_acc_epochs 82763
Core_0_L1D_acc_level_0 82763
Core_0_L1D_acc_level_1 0
Core_0_L1D_acc_level_2 0
Core_0_L1D_acc_level_3 0
Core_0_L1D_acc_level_4 0
Core_0_L1D_acc_level_5 0
Core_0_L1D_acc_level_6 0
Core_0_L1D_acc_level_7 0
Core_0_L1D_acc_level_8 0
Core_0_L1D_acc_level_9 0

Core_0_L1I_total_access 12101503
Core_0_L1I_total_hit 12101503
Core_0_L1I_total_miss 0
Core_0_L1I_loads 12101503
Core_0_L1I_load_hit 12101503
Core_0_L1I_load_miss 0
Core_0_L1I_RFOs 0
Core_0_L1I_RFO_hit 0
Core_0_L1I_RFO_miss 0
Core_0_L1I_prefetches 0
Core_0_L1I_prefetch_hit 0
Core_0_L1I_prefetch_miss 0
Core_0_L1I_writebacks 0
Core_0_L1I_writeback_hit 0
Core_0_L1I_writeback_miss 0
Core_0_L1I_prefetch_requested 0
Core_0_L1I_prefetch_dropped 0
Core_0_L1I_prefetch_issued 0
Core_0_L1I_prefetch_filled 0
Core_0_L1I_prefetch_useful 0
Core_0_L1I_prefetch_useless 0
Core_0_L1I_prefetch_late 0
Core_0_L1I_average_miss_latency -nan

Core_0_L1I_rq_access 50000007
Core_0_L1I_rq_forward 0
Core_0_L1I_rq_merged 37898504
Core_0_L1I_rq_to_cache 12101503
Core_0_L1I_rq_full 0

Core_0_L1I_wq_access 0
Core_0_L1I_wq_forward 0
Core_0_L1I_wq_merged 0
Core_0_L1I_wq_to_cache 0
Core_0_L1I_wq_full 0

Core_0_L1I_pq_access 0
Core_0_L1I_pq_forward 0
Core_0_L1I_pq_merged 0
Core_0_L1I_pq_to_cache 0
Core_0_L1I_pq_full 0

Core_0_L1I_acc_epochs 82763
Core_0_L1I_acc_level_0 82763
Core_0_L1I_acc_level_1 0
Core_0_L1I_acc_level_2 0
Core_0_L1I_acc_level_3 0
Core_0_L1I_acc_level_4 0
Core_0_L1I_acc_level_5 0
Core_0_L1I_acc_level_6 0
Core_0_L1I_acc_level_7 0
Core_0_L1I_acc_level_8 0
Core_0_L1I_acc_level_9 0

Core_0_L2C_total_access 4922636
Core_0_L2C_total_hit 3336291
Core_0_L2C_total_miss 1586345
Core_0_L2C_loads 394025
Core_0_L2C_load_hit 118795
Core_0_L2C_load_miss 275230
Core_0_L2C_RFOs 2203755
Core_0_L2C_RFO_hit 1011029
Core_0_L2C_RFO_miss 1192726
Core_0_L2C_prefetches 121101
Core_0_L2C_prefetch_hit 2810
Core_0_L2C_prefetch_miss 118291
Core_0_L2C_writebacks 2203755
Core_0_L2C_writeback_hit 2203657
Core_0_L2C_writeback_miss 98
Core_0_L2C_prefetch_requested 3097866
Core_0_L2C_prefetch_dropped 0
Core_0_L2C_prefetch_issued 3097866
Core_0_L2C_prefetch_filled 154580
Core_0_L2C_prefetch_useful 154571
Core_0_L2C_prefetch_useless 8
Core_0_L2C_prefetch_late 61760
Core_0_L2C_average_miss_latency 690.66497

Core_0_L2C_rq_access 2597795
Core_0_L2C_rq_forward 0
Core_0_L2C_rq_merged 0
Core_0_L2C_rq_to_cache 2597794
Core_0_L2C_rq_full 0

Core_0_L2C_wq_access 2203755
Core_0_L2C_wq_forward 1
Core_0_L2C_wq_merged 0
Core_0_L2C_wq_to_cache 2203755
Core_0_L2C_wq_full 0

Core_0_L2C_pq_access 3097866
Core_0_L2C_pq_forward 0
Core_0_L2C_pq_merged 1022846
Core_0_L2C_pq_to_cache 2075020
Core_0_L2C_pq_full 0

Core_0_L2C_acc_epochs 82763
Core_0_L2C_acc_level_0 1009
Core_0_L2C_acc_level_1 2174
Core_0_L2C_acc_level_2 3368
Core_0_L2C_acc_level_3 4110
Core_0_L2C_acc_level_4 5744
Core_0_L2C_acc_level_5 5821
Core_0_L2C_acc_level_6 6543
Core_0_L2C_acc_level_7 8228
Core_0_L2C_acc_level_8 9502
Core_0_L2C_acc_level_9 36264

Core_0_LLC_total_access 3645919
Core_0_LLC_total_hit 928484
Core_0_LLC_total_miss 2717435
Core_0_LLC_loads 213859
Core_0_LLC_load_hit 176643
Core_0_LLC_load_miss 37216
Core_0_LLC_RFOs 1192723
Core_0_LLC_RFO_hit 12801
Core_0_LLC_RFO_miss 1179922
Core_0_LLC_prefetches 1047370
Core_0_LLC_prefetch_hit 691082
Core_0_LLC_prefetch_miss 356288
Core_0_LLC_writebacks 1191967
Core_0_LLC_writeback_hit 47958
Core_0_LLC_writeback_miss 1144009
Core_0_LLC_prefetch_requested 0
Core_0_LLC_prefetch_dropped 0
Core_0_LLC_prefetch_issued 0
Core_0_LLC_prefetch_filled 439462
Core_0_LLC_prefetch_useful 223067
Core_0_LLC_prefetch_useless 210654
Core_0_LLC_prefetch_late 25070
Core_0_LLC_average_miss_latency 470.02342

Core_0_LLC_rq_access 1406596
Core_0_LLC_rq_forward 0
Core_0_LLC_rq_merged 0
Core_0_LLC_rq_to_cache 1406593
Core_0_LLC_rq_full 0

Core_0_LLC_wq_access 1191967
Core_0_LLC_wq_forward 3
Core_0_LLC_wq_merged 0
Core_0_LLC_wq_to_cache 1191967
Core_0_LLC_wq_full 0

Core_0_LLC_pq_access 1948636
Core_0_LLC_pq_forward 0
Core_0_LLC_pq_merged 112135
Core_0_LLC_pq_to_cache 1836501
Core_0_LLC_pq_full 0

Core_0_LLC_acc_epochs 85143
Core_0_LLC_acc_level_0 836
Core_0_LLC_acc_level_1 3391
Core_0_LLC_acc_level_2 7101
Core_0_LLC_acc_level_3 10780
Core_0_LLC_acc_level_4 13723
Core_0_LLC_acc_level_5 14056
Core_0_LLC_acc_level_6 11215
Core_0_LLC_acc_level_7 7657
Core_0_LLC_acc_level_8 5004
Core_0_LLC_acc_level_9 11380

Core_0_major_page_fault 0
Core_0_minor_page_fault 15768

spp.pref.total 3097866
spp.pref.at_L2 301021
spp.pref.at_LLC 2796845

spp.depth.max 11
spp.depth.min 0
spp.depth.avg 6

spp.breadth.max 1
spp.breadth.min 0
spp.breadth.avg 0

delta_1 644434
delta_-1 642721
delta_-2 627487
delta_3 623589
delta_4 592582
delta_2 1642

depth_1_delta_1 94213
depth_1_delta_-1 93393
depth_1_delta_-2 92829
depth_1_delta_4 91456
depth_1_delta_3 91342
depth_1_delta_2 283
depth_2_delta_1 94315
depth_2_delta_-1 93480
depth_2_delta_-2 92817
depth_2_delta_4 89826
depth_2_delta_3 89704
depth_2_delta_2 271
depth_3_delta_3 92819
depth_3_delta_-2 92817
depth_3_delta_-1 91713
depth_3_delta_1 91318
depth_3_delta_4 86959
depth_3_delta_2 252
depth_4_delta_-1 94799
depth_4_delta_1 91316
depth_4_delta_-2 89947
depth_4_delta_3 86822
depth_4_delta_4 85206
depth_4_delta_2 243
depth_5_delta_-1 88492
depth_5_delta_4 88228
depth_5_delta_1 88212
depth_5_delta_-2 88008
depth_5_delta_3 86631
depth_5_delta_2 214
depth_6_delta_-1 83398
depth_6_delta_1 83157
depth_6_delta_-2 83155
depth_6_delta_3 78091
depth_6_delta_4 69271
depth_6_delta_2 163
depth_7_delta_1 67074
depth_7_delta_3 61262
depth_7_delta_-1 60135
depth_7_delta_-2 54683
depth_7_delta_4 51830
depth_7_delta_2 113
depth_8_delta_3 31826
depth_8_delta_-1 31313
depth_8_delta_1 28535
depth_8_delta_-2 27781
depth_8_delta_4 24284
depth_8_delta_2 70
depth_9_delta_1 6220
depth_9_delta_-1 5839
depth_9_delta_-2 5319
depth_9_delta_4 5281
depth_9_delta_3 4940
depth_9_delta_2 27
depth_10_delta_4 239
depth_10_delta_-1 154
depth_10_delta_3 152
depth_10_delta_-2 128
depth_10_delta_1 74
depth_10_delta_2 6
depth_11_delta_-1 5
depth_11_delta_-2 3
depth_11_delta_4 2

Channel_0_RQ_row_buffer_hit 287518
Channel_0_RQ_row_buffer_miss 1285895
Channel_0_WQ_row_buffer_hit 229110
Channel_0_WQ_row_buffer_miss 946266
Channel_0_WQ_full 0
Channel_0_dbus_congested 2045764

avg_congested_cycle 11

DRAM_bw_pochs 340569
DRAM_bw_level_0 57667
DRAM_bw_level_1 130504
DRAM_bw_level_2 119074
DRAM_bw_level_3 33324
