*************************************************
   ChampSim Multicore Out-of-Order Simulator
   Last compiled: Apr  3 2025 20:54:34
*************************************************
parsing config file: /home/zir/Pythia/config/mlop.ini

trace_0 /home/zir/ChampSim/ML-DPC/ChampSimTraces/spec06/459.GemsFDTD-s2.trace.gz
adding L2C_PREFETCHER: MLOP
Initialize SHIP state
warmup_instructions 10000000
simulation_instructions 50000000
champsim_seed 165
measure_ipc 0
measure_ipc_epoch 1000
measure_dram_bw 1
measure_dram_bw_epoch 256
measure_cache_acc 1
measure_cache_acc_epoch 1024
l1d_perfect 0
l2c_perfect 0
llc_perfect 0
l1d_semi_perfect 0
l2c_semi_perfect 0
llc_semi_perfect 0
semi_perfect_cache_page_buffer_size 64

num_cpus 1
cpu_freq 4000
dram_io_freq 2400
page_size 4096
block_size 64
max_read_per_cycle 8
max_fill_per_cycle 1
dram_channels 1
log2_dram_channels 0
dram_ranks 1
dram_banks 8
dram_rows 65536
dram_columns 128
dram_row_size 8
dram_size 4096
dram_pages 1048576

fetch_width 6
decode_width 6
exec_width 4
lq_width 2
sq_width 2
retire_width 4
scheduler_size 128
branch_mispredict_penalty 20
rob_size 256
lq_size 72
sq_size 56
num_instr_destinations_sparc 4
num_instr_destinations 2
num_instr_sources 4

itlb_set 16
itlb_way 8
itlb_rq_size 16
itlb_wq_size 16
itlb_pq_size 0
itlb_mshr_size 8
itlb_latency 1

dtlb_set 16
dtlb_way 4
dtlb_rq_size 16
dtlb_wq_size 16
dtlb_pq_size 0
dtlb_mshr_size 8
dtlb_latency 1

stlb_set 128
stlb_way 12
stlb_rq_size 32
stlb_wq_size 32
stlb_pq_size 0
stlb_mshr_size 16
stlb_latency 8

l1i_size 32
l1i_set 64
l1i_way 8
l1i_rq_size 64
l1i_wq_size 64
l1i_pq_size 8
l1i_mshr_size 8
l1i_latency 1

l1d_size 32
l1d_set 64
l1d_way 8
l1d_rq_size 64
l1d_wq_size 64
l1d_pq_size 8
l1d_mshr_size 16
l1d_latency 4

l2c_size 256
l2c_set 512
l2c_way 8
l2c_rq_size 32
l2c_wq_size 32
l2c_pq_size 32
l2c_mshr_size 32
l2c_latency 10

llc_size 2048
llc_set 2048
llc_way 16
llc_rq_size 32
llc_wq_size 32
llc_pq_size 32
llc_mshr_size 64
llc_latency 20

dram_channel_width 8
dram_wq_size 64
dram_rq_size 64
tRP 15
tRCD 15
tCAS 12.5
dram_dbus_turn_around_time 30
dram_write_high_wm 56
dram_write_low_wm 48
min_dram_writes_per_switch 16
dram_mtps 2400
dram_dbus_return_time 13

mlop_pref_degree 16
mlop_num_updates 500
mlop_l1d_thresh 2
mlop_l2c_thresh 0.75
mlop_llc_thresh 0.3
mlop_debug_level 0
mlop_blocks_in_cache 4096
mlop_blocks_in_zone 64
mlop_amt_size 2048
mlop_PF_DEGREE 16
mlop_NUM_UPDATES 500
mlop_L1D_THRESH 1000
mlop_L2C_THRESH 375
mlop_LLC_THRESH 150
mlop_ORIGIN 63
mlop_MAX_OFFSET 63
mlop_MIN_OFFSET -63
mlop_ORIGIN 63
mlop_NUM_OFFSETS 127


Heartbeat CPU  0 instructions:    1000000 cycles:     397479 heartbeat IPC: 2.51586 cumulative IPC: 2.51586 (Simulation time: 0 hr 0 min 1 sec) 
Heartbeat CPU  0 instructions:    2000003 cycles:     794500 heartbeat IPC: 2.51877 cumulative IPC: 2.51731 (Simulation time: 0 hr 0 min 3 sec) 
Heartbeat CPU  0 instructions:    3000000 cycles:    1211281 heartbeat IPC: 2.39933 cumulative IPC: 2.47672 (Simulation time: 0 hr 0 min 4 sec) 
Heartbeat CPU  0 instructions:    4000000 cycles:    1626042 heartbeat IPC: 2.41103 cumulative IPC: 2.45996 (Simulation time: 0 hr 0 min 5 sec) 
Heartbeat CPU  0 instructions:    5000000 cycles:    2022977 heartbeat IPC: 2.51930 cumulative IPC: 2.47161 (Simulation time: 0 hr 0 min 7 sec) 
Heartbeat CPU  0 instructions:    6000000 cycles:    2419899 heartbeat IPC: 2.51939 cumulative IPC: 2.47944 (Simulation time: 0 hr 0 min 8 sec) 
Heartbeat CPU  0 instructions:    7000000 cycles:    2816814 heartbeat IPC: 2.51943 cumulative IPC: 2.48508 (Simulation time: 0 hr 0 min 10 sec) 
Heartbeat CPU  0 instructions:    8000000 cycles:    3212281 heartbeat IPC: 2.52866 cumulative IPC: 2.49044 (Simulation time: 0 hr 0 min 11 sec) 
Heartbeat CPU  0 instructions:    9000001 cycles:    3649632 heartbeat IPC: 2.28650 cumulative IPC: 2.46600 (Simulation time: 0 hr 0 min 13 sec) 
Heartbeat CPU  0 instructions:   10000001 cycles:    4146106 heartbeat IPC: 2.01420 cumulative IPC: 2.41190 (Simulation time: 0 hr 0 min 15 sec) 

Warmup complete CPU  0 instructions:   10000001 cycles:    4146106 (Simulation time: 0 hr 0 min 15 sec) 

Heartbeat CPU  0 instructions:   11000000 cycles:    7407085 heartbeat IPC: 0.30666 cumulative IPC: 0.30666 (Simulation time: 0 hr 0 min 18 sec) 
Heartbeat CPU  0 instructions:   12000000 cycles:   10681005 heartbeat IPC: 0.30544 cumulative IPC: 0.30605 (Simulation time: 0 hr 0 min 21 sec) 
Heartbeat CPU  0 instructions:   13000000 cycles:   13874373 heartbeat IPC: 0.31315 cumulative IPC: 0.30838 (Simulation time: 0 hr 0 min 25 sec) 
Heartbeat CPU  0 instructions:   14000003 cycles:   17139974 heartbeat IPC: 0.30622 cumulative IPC: 0.30784 (Simulation time: 0 hr 0 min 28 sec) 
Heartbeat CPU  0 instructions:   15000000 cycles:   20170157 heartbeat IPC: 0.33001 cumulative IPC: 0.31203 (Simulation time: 0 hr 0 min 31 sec) 
Heartbeat CPU  0 instructions:   16000000 cycles:   23327707 heartbeat IPC: 0.31670 cumulative IPC: 0.31280 (Simulation time: 0 hr 0 min 34 sec) 
Heartbeat CPU  0 instructions:   17000002 cycles:   26533680 heartbeat IPC: 0.31192 cumulative IPC: 0.31267 (Simulation time: 0 hr 0 min 37 sec) 
Heartbeat CPU  0 instructions:   18000000 cycles:   29668932 heartbeat IPC: 0.31895 cumulative IPC: 0.31344 (Simulation time: 0 hr 0 min 40 sec) 
Heartbeat CPU  0 instructions:   19000000 cycles:   32811405 heartbeat IPC: 0.31822 cumulative IPC: 0.31397 (Simulation time: 0 hr 0 min 44 sec) 
Heartbeat CPU  0 instructions:   20000000 cycles:   35070620 heartbeat IPC: 0.44263 cumulative IPC: 0.32337 (Simulation time: 0 hr 0 min 46 sec) 
Heartbeat CPU  0 instructions:   21000000 cycles:   37044929 heartbeat IPC: 0.50651 cumulative IPC: 0.33436 (Simulation time: 0 hr 0 min 49 sec) 
Heartbeat CPU  0 instructions:   22000000 cycles:   39019053 heartbeat IPC: 0.50655 cumulative IPC: 0.34411 (Simulation time: 0 hr 0 min 52 sec) 
Heartbeat CPU  0 instructions:   23000002 cycles:   40966941 heartbeat IPC: 0.51338 cumulative IPC: 0.35306 (Simulation time: 0 hr 0 min 54 sec) 
Heartbeat CPU  0 instructions:   24000000 cycles:   42934287 heartbeat IPC: 0.50830 cumulative IPC: 0.36093 (Simulation time: 0 hr 0 min 57 sec) 
Heartbeat CPU  0 instructions:   25000000 cycles:   45183946 heartbeat IPC: 0.44451 cumulative IPC: 0.36552 (Simulation time: 0 hr 0 min 59 sec) 
Heartbeat CPU  0 instructions:   26000000 cycles:   46930623 heartbeat IPC: 0.57252 cumulative IPC: 0.37397 (Simulation time: 0 hr 1 min 2 sec) 
Heartbeat CPU  0 instructions:   27000002 cycles:   48676597 heartbeat IPC: 0.57275 cumulative IPC: 0.38176 (Simulation time: 0 hr 1 min 5 sec) 
Heartbeat CPU  0 instructions:   28000000 cycles:   50311860 heartbeat IPC: 0.61152 cumulative IPC: 0.38990 (Simulation time: 0 hr 1 min 7 sec) 
Heartbeat CPU  0 instructions:   29000003 cycles:   51978463 heartbeat IPC: 0.60002 cumulative IPC: 0.39722 (Simulation time: 0 hr 1 min 10 sec) 
Heartbeat CPU  0 instructions:   30000002 cycles:   53763870 heartbeat IPC: 0.56010 cumulative IPC: 0.40308 (Simulation time: 0 hr 1 min 13 sec) 
Heartbeat CPU  0 instructions:   31000002 cycles:   54904990 heartbeat IPC: 0.87633 cumulative IPC: 0.41372 (Simulation time: 0 hr 1 min 15 sec) 
Heartbeat CPU  0 instructions:   32000000 cycles:   55965799 heartbeat IPC: 0.94267 cumulative IPC: 0.42455 (Simulation time: 0 hr 1 min 17 sec) 
Heartbeat CPU  0 instructions:   33000000 cycles:   57100114 heartbeat IPC: 0.88159 cumulative IPC: 0.43434 (Simulation time: 0 hr 1 min 20 sec) 
Heartbeat CPU  0 instructions:   34000003 cycles:   58169865 heartbeat IPC: 0.93480 cumulative IPC: 0.44425 (Simulation time: 0 hr 1 min 22 sec) 
Heartbeat CPU  0 instructions:   35000001 cycles:   59312872 heartbeat IPC: 0.87488 cumulative IPC: 0.45317 (Simulation time: 0 hr 1 min 24 sec) 
Heartbeat CPU  0 instructions:   36000000 cycles:   60543944 heartbeat IPC: 0.81230 cumulative IPC: 0.46101 (Simulation time: 0 hr 1 min 27 sec) 
Heartbeat CPU  0 instructions:   37000000 cycles:   61783631 heartbeat IPC: 0.80666 cumulative IPC: 0.46844 (Simulation time: 0 hr 1 min 29 sec) 
Heartbeat CPU  0 instructions:   38000002 cycles:   62900203 heartbeat IPC: 0.89560 cumulative IPC: 0.47656 (Simulation time: 0 hr 1 min 32 sec) 
Heartbeat CPU  0 instructions:   39000000 cycles:   64091311 heartbeat IPC: 0.83955 cumulative IPC: 0.48378 (Simulation time: 0 hr 1 min 34 sec) 
Heartbeat CPU  0 instructions:   40000000 cycles:   65242122 heartbeat IPC: 0.86895 cumulative IPC: 0.49103 (Simulation time: 0 hr 1 min 37 sec) 
Heartbeat CPU  0 instructions:   41000000 cycles:   66427969 heartbeat IPC: 0.84328 cumulative IPC: 0.49774 (Simulation time: 0 hr 1 min 39 sec) 
Heartbeat CPU  0 instructions:   42000000 cycles:   67560943 heartbeat IPC: 0.88263 cumulative IPC: 0.50461 (Simulation time: 0 hr 1 min 41 sec) 
Heartbeat CPU  0 instructions:   43000002 cycles:   70218845 heartbeat IPC: 0.37624 cumulative IPC: 0.49945 (Simulation time: 0 hr 1 min 44 sec) 
Heartbeat CPU  0 instructions:   44000000 cycles:   73438962 heartbeat IPC: 0.31055 cumulative IPC: 0.49067 (Simulation time: 0 hr 1 min 48 sec) 
Heartbeat CPU  0 instructions:   45000001 cycles:   76722342 heartbeat IPC: 0.30456 cumulative IPC: 0.48225 (Simulation time: 0 hr 1 min 51 sec) 
Heartbeat CPU  0 instructions:   46000002 cycles:   80021664 heartbeat IPC: 0.30309 cumulative IPC: 0.47446 (Simulation time: 0 hr 1 min 54 sec) 
Heartbeat CPU  0 instructions:   47000000 cycles:   83236730 heartbeat IPC: 0.31103 cumulative IPC: 0.46782 (Simulation time: 0 hr 1 min 57 sec) 
Heartbeat CPU  0 instructions:   48000000 cycles:   86489216 heartbeat IPC: 0.30746 cumulative IPC: 0.46148 (Simulation time: 0 hr 2 min 1 sec) 
Heartbeat CPU  0 instructions:   49000000 cycles:   89492230 heartbeat IPC: 0.33300 cumulative IPC: 0.45696 (Simulation time: 0 hr 2 min 4 sec) 
Heartbeat CPU  0 instructions:   50000003 cycles:   92626864 heartbeat IPC: 0.31902 cumulative IPC: 0.45208 (Simulation time: 0 hr 2 min 7 sec) 
Heartbeat CPU  0 instructions:   51000002 cycles:   95777056 heartbeat IPC: 0.31744 cumulative IPC: 0.44745 (Simulation time: 0 hr 2 min 10 sec) 
Heartbeat CPU  0 instructions:   52000000 cycles:   98872366 heartbeat IPC: 0.32307 cumulative IPC: 0.44338 (Simulation time: 0 hr 2 min 13 sec) 
Heartbeat CPU  0 instructions:   53000000 cycles:  102063263 heartbeat IPC: 0.31339 cumulative IPC: 0.43915 (Simulation time: 0 hr 2 min 16 sec) 
Heartbeat CPU  0 instructions:   54000001 cycles:  103683236 heartbeat IPC: 0.61729 cumulative IPC: 0.44205 (Simulation time: 0 hr 2 min 19 sec) 
Heartbeat CPU  0 instructions:   55000001 cycles:  105157947 heartbeat IPC: 0.67810 cumulative IPC: 0.44549 (Simulation time: 0 hr 2 min 21 sec) 
Heartbeat CPU  0 instructions:   56000000 cycles:  106788338 heartbeat IPC: 0.61335 cumulative IPC: 0.44816 (Simulation time: 0 hr 2 min 24 sec) 
Heartbeat CPU  0 instructions:   57000002 cycles:  108333131 heartbeat IPC: 0.64734 cumulative IPC: 0.45111 (Simulation time: 0 hr 2 min 26 sec) 
Heartbeat CPU  0 instructions:   58000001 cycles:  109849290 heartbeat IPC: 0.65956 cumulative IPC: 0.45410 (Simulation time: 0 hr 2 min 29 sec) 
Heartbeat CPU  0 instructions:   59000002 cycles:  111630968 heartbeat IPC: 0.56127 cumulative IPC: 0.45588 (Simulation time: 0 hr 2 min 32 sec) 
Heartbeat CPU  0 instructions:   60000000 cycles:  113003323 heartbeat IPC: 0.72867 cumulative IPC: 0.45932 (Simulation time: 0 hr 2 min 34 sec) 
Finished CPU 0 instructions: 50000000 cycles: 108857238 cumulative IPC: 0.45932 (Simulation time: 0 hr 2 min 34 sec) 

ChampSim completed all CPUs

[ROI Statistics]
Core_0_instructions 50000000
Core_0_cycles 108857238
Core_0_IPC 0.45932

Core_0_branch_prediction_accuracy 99.44730
Core_0_branch_MPKI 0.03336
Core_0_average_ROB_occupancy_at_mispredict 251.78118

Core_0_L1D_total_access 18893204
Core_0_L1D_total_hit 14527793
Core_0_L1D_total_miss 4365411
Core_0_L1D_loads 12804917
Core_0_L1D_load_hit 8439509
Core_0_L1D_load_miss 4365408
Core_0_L1D_RFOs 6088287
Core_0_L1D_RFO_hit 6088284
Core_0_L1D_RFO_miss 3
Core_0_L1D_prefetches 0
Core_0_L1D_prefetch_hit 0
Core_0_L1D_prefetch_miss 0
Core_0_L1D_writebacks 0
Core_0_L1D_writeback_hit 0
Core_0_L1D_writeback_miss 0
Core_0_L1D_prefetch_requested 0
Core_0_L1D_prefetch_dropped 0
Core_0_L1D_prefetch_issued 0
Core_0_L1D_prefetch_filled 0
Core_0_L1D_prefetch_useful 0
Core_0_L1D_prefetch_useless 0
Core_0_L1D_prefetch_late 0
Core_0_L1D_average_miss_latency 49.67072

Core_0_L1D_rq_access 17726590
Core_0_L1D_rq_forward 0
Core_0_L1D_rq_merged 4908623
Core_0_L1D_rq_to_cache 12817857
Core_0_L1D_rq_full 0

Core_0_L1D_wq_access 6088692
Core_0_L1D_wq_forward 110
Core_0_L1D_wq_merged 394
Core_0_L1D_wq_to_cache 6088298
Core_0_L1D_wq_full 0

Core_0_L1D_pq_access 0
Core_0_L1D_pq_forward 0
Core_0_L1D_pq_merged 0
Core_0_L1D_pq_to_cache 0
Core_0_L1D_pq_full 0

Core_0_L1D_acc_epochs 91338
Core_0_L1D_acc_level_0 91338
Core_0_L1D_acc_level_1 0
Core_0_L1D_acc_level_2 0
Core_0_L1D_acc_level_3 0
Core_0_L1D_acc_level_4 0
Core_0_L1D_acc_level_5 0
Core_0_L1D_acc_level_6 0
Core_0_L1D_acc_level_7 0
Core_0_L1D_acc_level_8 0
Core_0_L1D_acc_level_9 0

Core_0_L1I_total_access 13143949
Core_0_L1I_total_hit 13143827
Core_0_L1I_total_miss 122
Core_0_L1I_loads 13143949
Core_0_L1I_load_hit 13143827
Core_0_L1I_load_miss 122
Core_0_L1I_RFOs 0
Core_0_L1I_RFO_hit 0
Core_0_L1I_RFO_miss 0
Core_0_L1I_prefetches 0
Core_0_L1I_prefetch_hit 0
Core_0_L1I_prefetch_miss 0
Core_0_L1I_writebacks 0
Core_0_L1I_writeback_hit 0
Core_0_L1I_writeback_miss 0
Core_0_L1I_prefetch_requested 0
Core_0_L1I_prefetch_dropped 0
Core_0_L1I_prefetch_issued 0
Core_0_L1I_prefetch_filled 0
Core_0_L1I_prefetch_useful 0
Core_0_L1I_prefetch_useless 0
Core_0_L1I_prefetch_late 0
Core_0_L1I_average_miss_latency 225.77869

Core_0_L1I_rq_access 50000007
Core_0_L1I_rq_forward 0
Core_0_L1I_rq_merged 36856022
Core_0_L1I_rq_to_cache 13143985
Core_0_L1I_rq_full 0

Core_0_L1I_wq_access 0
Core_0_L1I_wq_forward 0
Core_0_L1I_wq_merged 0
Core_0_L1I_wq_to_cache 0
Core_0_L1I_wq_full 0

Core_0_L1I_pq_access 0
Core_0_L1I_pq_forward 0
Core_0_L1I_pq_merged 0
Core_0_L1I_pq_to_cache 0
Core_0_L1I_pq_full 0

Core_0_L1I_acc_epochs 91338
Core_0_L1I_acc_level_0 91338
Core_0_L1I_acc_level_1 0
Core_0_L1I_acc_level_2 0
Core_0_L1I_acc_level_3 0
Core_0_L1I_acc_level_4 0
Core_0_L1I_acc_level_5 0
Core_0_L1I_acc_level_6 0
Core_0_L1I_acc_level_7 0
Core_0_L1I_acc_level_8 0
Core_0_L1I_acc_level_9 0

Core_0_L2C_total_access 5388026
Core_0_L2C_total_hit 3928602
Core_0_L2C_total_miss 1459424
Core_0_L2C_loads 4365529
Core_0_L2C_load_hit 3156714
Core_0_L2C_load_miss 1208815
Core_0_L2C_RFOs 3
Core_0_L2C_RFO_hit 1
Core_0_L2C_RFO_miss 2
Core_0_L2C_prefetches 250585
Core_0_L2C_prefetch_hit 8
Core_0_L2C_prefetch_miss 250577
Core_0_L2C_writebacks 771909
Core_0_L2C_writeback_hit 771879
Core_0_L2C_writeback_miss 30
Core_0_L2C_prefetch_requested 1161364
Core_0_L2C_prefetch_dropped 0
Core_0_L2C_prefetch_issued 1161364
Core_0_L2C_prefetch_filled 288632
Core_0_L2C_prefetch_useful 103208
Core_0_L2C_prefetch_useless 184462
Core_0_L2C_prefetch_late 39
Core_0_L2C_average_miss_latency 106.01835

Core_0_L2C_rq_access 4365533
Core_0_L2C_rq_forward 0
Core_0_L2C_rq_merged 0
Core_0_L2C_rq_to_cache 4365532
Core_0_L2C_rq_full 0

Core_0_L2C_wq_access 771909
Core_0_L2C_wq_forward 1
Core_0_L2C_wq_merged 0
Core_0_L2C_wq_to_cache 771909
Core_0_L2C_wq_full 0

Core_0_L2C_pq_access 1161364
Core_0_L2C_pq_forward 0
Core_0_L2C_pq_merged 52
Core_0_L2C_pq_to_cache 1161312
Core_0_L2C_pq_full 0

Core_0_L2C_acc_epochs 91338
Core_0_L2C_acc_level_0 82485
Core_0_L2C_acc_level_1 3199
Core_0_L2C_acc_level_2 1870
Core_0_L2C_acc_level_3 741
Core_0_L2C_acc_level_4 325
Core_0_L2C_acc_level_5 235
Core_0_L2C_acc_level_6 97
Core_0_L2C_acc_level_7 153
Core_0_L2C_acc_level_8 173
Core_0_L2C_acc_level_9 2060

Core_0_LLC_total_access 2356696
Core_0_LLC_total_hit 1075918
Core_0_LLC_total_miss 1280778
Core_0_LLC_loads 1208465
Core_0_LLC_load_hit 762382
Core_0_LLC_load_miss 446083
Core_0_LLC_RFOs 2
Core_0_LLC_RFO_hit 2
Core_0_LLC_RFO_miss 0
Core_0_LLC_prefetches 1042165
Core_0_LLC_prefetch_hit 209047
Core_0_LLC_prefetch_miss 833118
Core_0_LLC_writebacks 106064
Core_0_LLC_writeback_hit 104487
Core_0_LLC_writeback_miss 1577
Core_0_LLC_prefetch_requested 0
Core_0_LLC_prefetch_dropped 0
Core_0_LLC_prefetch_issued 0
Core_0_LLC_prefetch_filled 917973
Core_0_LLC_prefetch_useful 356483
Core_0_LLC_prefetch_useless 548388
Core_0_LLC_prefetch_late 1340
Core_0_LLC_average_miss_latency 207.45527

Core_0_LLC_rq_access 1208788
Core_0_LLC_rq_forward 0
Core_0_LLC_rq_merged 0
Core_0_LLC_rq_to_cache 1208467
Core_0_LLC_rq_full 0

Core_0_LLC_wq_access 106064
Core_0_LLC_wq_forward 358
Core_0_LLC_wq_merged 0
Core_0_LLC_wq_to_cache 106064
Core_0_LLC_wq_full 0

Core_0_LLC_pq_access 1159801
Core_0_LLC_pq_forward 0
Core_0_LLC_pq_merged 0
Core_0_LLC_pq_to_cache 1159764
Core_0_LLC_pq_full 0

Core_0_LLC_acc_epochs 110355
Core_0_LLC_acc_level_0 20706
Core_0_LLC_acc_level_1 10867
Core_0_LLC_acc_level_2 9063
Core_0_LLC_acc_level_3 9131
Core_0_LLC_acc_level_4 9144
Core_0_LLC_acc_level_5 9439
Core_0_LLC_acc_level_6 8457
Core_0_LLC_acc_level_7 7376
Core_0_LLC_acc_level_8 5981
Core_0_LLC_acc_level_9 20191

Core_0_major_page_fault 0
Core_0_minor_page_fault 67715

[MLOP] History of tracked zone:
IIIIIIIIIIIIIIIIIIIIIIIIIIIIIIIIIIIIIIIIIIIIIIIIIIIIIIIIIIIIIIII
A2222222IIIII244444444IIIIIIIIIIIIIIIIIIIIIIIIIIIIIIIIIIIIIIIIII
AA2222222IIII2244444444IIIIIIIIIIIIIIIIIIIIIIIIIIIIIIIIIIIIIIIII
AAA2222222III22244444444IIIIIIIIIIIIIIIIIIIIIIIIIIIIIIIIIIIIIIII
AAAA2222222II222244444444IIIIIIIIIIIIIIIIIIIIIIIIIIIIIIIIIIIIIII
AAAAA2222222I2222244444444IIIIIIIIIIIIIIIIIIIIIIIIIIIIIIIIIIIIII
AAAAAA222222222222244444444IIIIIIIIIIIIIIIIIIIIIIIIIIIIIIIIIIIII
AAAAAAA222222222222244444444IIIIIIIIIIIIIIIIIIIIIIIIIIIIIIIIIIII
AAAAAAAA222222222222244444444IIIIIIIIIIIIIIIIIIIIIIIIIIIIIIIIIII
AAAAAAAAA222222222222244444444IIIIIIIIIIIIIIIIIIIIIIIIIIIIIIIIII
AAAAAAAAAA222222222222244444444IIIIIIIIIIIIIIIIIIIIIIIIIIIIIIIII
AAAAAAAAAAA222222222222244444444IIIIIIIIIIIIIIIIIIIIIIIIIIIIIIII
AAAAAAAAAAAA222222222222244444444IIIIIIIIIIIIIIIIIIIIIIIIIIIIIII
AAAAAAAAAAAAA222222222222244444444IIIIIIIIIIIIIIIIIIIIIIIIIIIIII
AAAAAAAAAAAAAA222222222222244444444IIIIIIIIIIIIIIIIIIIIIIIIIIIII
AAAAAAAAAAAAAAA222222222222244444444IIIIIIIIIIIIIIIIIIIIIIIIIIII
AAAAAAAAAAAAAAAA222222222222244444444IIIIIIIIIIIIIIIIIIIIIIIIIII
AAAAAAAAAAAAAAAAA222222222222244444444IIIIIIIIIIIIIIIIIIIIIIIIII
AAAAAAAAAAAAAAAAAA222222222222244444444IIIIIIIIIIIIIIIIIIIIIIIII
AAAAAAAAAAAAAAAAAAA222222222222244444444IIIIIIIIIIIIIIIIIIIIIIII
AAAAAAAAAAAAAAAAAAAA222222222222244444444IIIIIIIIIIIIIIIIIIIIIII
AAAAAAAAAAAAAAAAAAAAA222222222222244444444IIIIIIIIIIIIIIIIIIIIII
AAAAAAAAAAAAAAAAAAAAAA222222222222244444444IIIIIIIIIIIIIIIIIIIII
AAAAAAAAAAAAAAAAAAAAAAA222222222222244444444IIIIIIIIIIIIIIIIIIII
AAAAAAAAAAAAAAAAAAAAAAAA222222222222244444444IIIIIIIIIIIIIIIIIII
AAAAAAAAAAAAAAAAAAAAAAAAA222222222222244444444IIIIIIIIIIIIIIIIII
AAAAAAAAAAAAAAAAAAAAAAAAAA222222222222244444444IIIIIIIIIIIIIIIII
AAAAAAAAAAAAAAAAAAAAAAAAAAA222222222222244444444IIIIIIIIIIIIIIII
AAAAAAAAAAAAAAAAAAAAAAAAAAAA222222222222244444444IIIIIIIIIIIIIII
AAAAAAAAAAAAAAAAAAAAAAAAAAAAA222222222222244444444IIIIIIIIIIIIII
AAAAAAAAAAAAAAAAAAAAAAAAAAAAAA222222222222244444444IIIIIIIIIIIII
AAAAAAAAAAAAAAAAAAAAAAAAAAAAAAA222222222222244444444IIIIIIIIIIII
AAAAAAAAAAAAAAAAAAAAAAAAAAAAAAAA222222222222244444444IIIIIIIIIII
AAAAAAAAAAAAAAAAAAAAAAAAAAAAAAAAA222222222222244444444IIIIIIIIII
AAAAAAAAAAAAAAAAAAAAAAAAAAAAAAAAAA222222222222244444444IIIIIIIII
AAAAAAAAAAAAAAAAAAAAAAAAAAAAAAAAAAA222222222222244444444IIIIIIII
AAAAAAAAAAAAAAAAAAAAAAAAAAAAAAAAAAAA222222222222244444444IIIIIII
AAAAAAAAAAAAAAAAAAAAAAAAAAAAAAAAAAAAA222222222222244444444IIIIII
AAAAAAAAAAAAAAAAAAAAAAAAAAAAAAAAAAAAAA222222222222244444444IIIII
AAAAAAAAAAAAAAAAAAAAAAAAAAAAAAAAAAAAAAA222222222222244444444IIII
AAAAAAAAAAAAAAAAAAAAAAAAAAAAAAAAAAAAAAAA222222222222244444444III
AAAAAAAAAAAAAAAAAAAAAAAAAAAAAAAAAAAAAAAAA222222222222244444444II
AAAAAAAAAAAAAAAAAAAAAAAAAAAAAAAAAAAAAAAAAA222222222222244444444I
AAAAAAAAAAAAAAAAAAAAAAAAAAAAAAAAAAAAAAAAAAA222222222222244444444
AAAAAAAAAAAAAAAAAAAAAAAAAAAAAAAAAAAAAAAAAAAA22222222222224444444
AAAAAAAAAAAAAAAAAAAAAAAAAAAAAAAAAAAAAAAAAAAAA2222222222222444444
AAAAAAAAAAAAAAAAAAAAAAAAAAAAAAAAAAAAAAAAAAAAAA222222222222244444
AAAAAAAAAAAAAAAAAAAAAAAAAAAAAAAAAAAAAAAAAAAAAAA22222222222224444
AAAAAAAAAAAAAAAAAAAAAAAAAAAAAAAAAAAAAAAAAAAAAAAA2222222222222444
AAAAAAAAAAAAAAAAAAAAAAAAAAAAAAAAAAAAAAAAAAAAAAAAA222222222222244
AAAAAAAAAAAAAAAAAAAAAAAAAAAAAAAAAAAAAAAAAAAAAAAAAA22222222222224
AAAAAAAAAAAAAAAAAAAAAAAAAAAAAAAAAAAAAAAAAAAAAAAAAAA2222222222222
AAAAAAAAAAAAAAAAAAAAAAAAAAAAAAAAAAAAAAAAAAAAAAAAAAAA222222222222
AAAAAAAAAAAAAAAAAAAAAAAAAAAAAAAAAAAAAAAAAAAAAAAAAAAAA22222222222
AAAAAAAAAAAAAAAAAAAAAAAAAAAAAAAAAAAAAAAAAAAAAAAAAAAAAA2222222222
AAAAAAAAAAAAAAAAAAAAAAAAAAAAAAAAAAAAAAAAAAAAAAAAAAAAAAA222222222
AAAAAAAAAAAAAAAAAAAAAAAAAAAAAAAAAAAAAAAAAAAAAAAAAAAAAAAA22222222
AAAAAAAAAAAAAAAAAAAAAAAAAAAAAAAAAAAAAAAAAAAAAAAAAAAAAAAAA2222222
AAAAAAAAAAAAAAAAAAAAAAAAAAAAAAAAAAAAAAAAAAAAAAAAAAAAAAAAAA222222
AAAAAAAAAAAAAAAAAAAAAAAAAAAAAAAAAAAAAAAAAAAAAAAAAAAAAAAAAAA22222
AAAAAAAAAAAAAAAAAAAAAAAAAAAAAAAAAAAAAAAAAAAAAAAAAAAAAAAAAAAA2222
AAAAAAAAAAAAAAAAAAAAAAAAAAAAAAAAAAAAAAAAAAAAAAAAAAAAAAAAAAAAA222
AAAAAAAAAAAAAAAAAAAAAAAAAAAAAAAAAAAAAAAAAAAAAAAAAAAAAAAAAAAAAA22
AAAAAAAAAAAAAAAAAAAAAAAAAAAAAAAAAAAAAAAAAAAAAAAAAAAAAAAAAAAAAAA2
AAAAAAAAAAAAAAAAAAAAAAAAAAAAAAAAAAAAAAAAAAAAAAAAAAAAAAAAAAAAAAAA
AIAAAAAAAAAAAAAAAAAAAAAAAAAAAAAAAAAAAAAAAAAAAAAAAAAAAAAAAAAAAAAA
AIIAAAAAAAAAAAAAAAAAAAAAAAAAAAAAAAAAAAAAAAAAAAAAAAAAAAAAAAAAAAAA
AIIIAAAAAAAAAAAAAAAAAAAAAAAAAAAAAAAAAAAAAAAAAAAAAAAAAAAAAAAAAAAA
AIIIIAAAAAAAAAAAAAAAAAAAAAAAAAAAAAAAAAAAAAAAAAAAAAAAAAAAAAAAAAAA
AIIIIIAAAAAAAAAAAAAAAAAAAAAAAAAAAAAAAAAAAAAAAAAAAAAAAAAAAAAAAAAA
AIIIIIIAAAAAAAAAAAAAAAAAAAAAAAAAAAAAAAAAAAAAAAAAAAAAAAAAAAAAAAAA
AIIIIIIIAAAAAAAAAAAAAAAAAAAAAAAAAAAAAAAAAAAAAAAAAAAAAAAAAAAAAAAA
AIIIIIIIIAAAAAAAAAAAAAAAAAAAAAAAAAAAAAAAAAAAAAAAAAAAAAAAAAAAAAAA
AIIIIIIIIIAAAAAAAAAAAAAAAAAAAAAAAAAAAAAAAAAAAAAAAAAAAAAAAAAAAAAA
AIIIIIIIIIIAAAAAAAAAAAAAAAAAAAAAAAAAAAAAAAAAAAAAAAAAAAAAAAAAAAAA
AIIIIIIIIIIIAAAAAAAAAAAAAAAAAAAAAAAAAAAAAAAAAAAAAAAAAAAAAAAAAAAA
AIIIIIIIIIIIIAAAAAAAAAAAAAAAAAAAAAAAAAAAAAAAAAAAAAAAAAAAAAAAAAAA
AIIIIIIIIIIIIIAAAAAAAAAAAAAAAAAAAAAAAAAAAAAAAAAAAAAAAAAAAAAAAAAA
AIIIIIIIIIIIIIIAAAAAAAAAAAAAAAAAAAAAAAAAAAAAAAAAAAAAAAAAAAAAAAAA
AIIIIIIIIIIIIIIIAAAAAAAAAAAAAAAAAAAAAAAAAAAAAAAAAAAAAAAAAAAAAAAA
AIIIIIIIIIIIIIIIIAAAAAAAAAAAAAAAAAAAAAAAAAAAAAAAAAAAAAAAAAAAAAAA
AIIIIIIIIIIIIIIIIIAAAAAAAAAAAAAAAAAAAAAAAAAAAAAAAAAAAAAAAAAAAAAA
AIIIIIIIIIIIIIIIIIIAAAAAAAAAAAAAAAAAAAAAAAAAAAAAAAAAAAAAAAAAAAAA
AIIIIIIIIIIIIIIIIIIIAAAAAAAAAAAAAAAAAAAAAAAAAAAAAAAAAAAAAAAAAAAA
AIIIIIIIIIIIIIIIIIIIIAAAAAAAAAAAAAAAAAAAAAAAAAAAAAAAAAAAAAAAAAAA
AIIIIIIIIIIIIIIIIIIIIIAAAAAAAAAAAAAAAAAAAAAAAAAAAAAAAAAAAAAAAAAA
AIIIIIIIIIIIIIIIIIIIIIIAAAAAAAAAAAAAAAAAAAAAAAAAAAAAAAAAAAAAAAAA
AIIIIIIIIIIIIIIIIIIIIIIIAAAAAAAAAAAAAAAAAAAAAAAAAAAAAAAAAAAAAAAA
AIIIIIIIIIIIIIIIIIIIIIIIIAAAAAAAAAAAAAAAAAAAAAAAAAAAAAAAAAAAAAAA
AIIIIIIIIIIIIIIIIIIIIIIIIIAAAAAAAAAAAAAAAAAAAAAAAAAAAAAAAAAAAAAA
AIIIIIIIIIIIIIIIIIIIIIIIIIIAAAAAAAAAAAAAAAAAAAAAAAAAAAAAAAAAAAAA
AIIIIIIIIIIIIIIIIIIIIIIIIIIIAAAAAAAAAAAAAAAAAAAAAAAAAAAAAAAAAAAA
AIIIIIIIIIIIIIIIIIIIIIIIIIIIIAAAAAAAAAAAAAAAAAAAAAAAAAAAAAAAAAAA
AIIIIIIIIIIIIIIIIIIIIIIIIIIIIIAAAAAAAAAAAAAAAAAAAAAAAAAAAAAAAAAA
AIIIIIIIIIIIIIIIIIIIIIIIIIIIIIIAAAAAAAAAAAAAAAAAAAAAAAAAAAAAAAAA
AIIIIIIIIIIIIIIIIIIIIIIIIIIIIIIIAAAAAAAAAAAAAAAAAAAAAAAAAAAAAAAA
AIIIIIIIIIIIIIIIIIIIIIIIIIIIIIIIIAAAAAAAAAAAAAAAAAAAAAAAAAAAAAAA
AIIIIIIIIIIIIIIIIIIIIIIIIIIIIIIIIIAAAAAAAAAAAAAAAAAAAAAAAAAAAAAA
AIIIIIIIIIIIIIIIIIIIIIIIIIIIIIIIIIIAAAAAAAAAAAAAAAAAAAAAAAAAAAAA
AIIIIIIIIIIIIIIIIIIIIIIIIIIIIIIIIIIIAAAAAAAAAAAAAAAAAAAAAAAAAAAA
AIIIIIIIIIIIIIIIIIIIIIIIIIIIIIIIIIIIIAAAAAAAAAAAAAAAAAAAAAAAAAAA
AIIIIIIIIIIIIIIIIIIIIIIIIIIIIIIIIIIIIIAAAAAAAAAAAAAAAAAAAAAAAAAA
AIIIIIIIIIIIIIIIIIIIIIIIIIIIIIIIIIIIIIIAAAAAAAAAAAAAAAAAAAAAAAAA
AIIIIIIIIIIIIIIIIIIIIIIIIIIIIIIIIIIIIIIIAAAAAAAAAAAAAAAAAAAAAAAA
AIIIIIIIIIIIIIIIIIIIIIIIIIIIIIIIIIIIIIIIIAAAAAAAAAAAAAAAAAAAAAAA
AIIIIIIIIIIIIIIIIIIIIIIIIIIIIIIIIIIIIIIIIIAAAAAAAAAAAAAAAAAAAAAA
AIIIIIIIIIIIIIIIIIIIIIIIIIIIIIIIIIIIIIIIIIIAAAAAAAAAAAAAAAAAAAAA
AIIIIIIIIIIIIIIIIIIIIIIIIIIIIIIIIIIIIIIIIIIIAAAAAAAAAAAAAAAAAAAA
AIIIIIIIIIIIIIIIIIIIIIIIIIIIIIIIIIIIIIIIIIIIIAAAAAAAAAAAAAAAAAAA
AIIIIIIIIIIIIIIIIIIIIIIIIIIIIIIIIIIIIIIIIIIIIIAAAAAAAAAAAAAAAAAA
AIIIIIIIIIIIIIIIIIIIIIIIIIIIIIIIIIIIIIIIIIIIIIIAAAAAAAAAAAAAAAAA
AIIIIIIIIIIIIIIIIIIIIIIIIIIIIIIIIIIIIIIIIIIIIIIIAAAAAAAAAAAAAAAA
AIIIIIIIIIIIIIIIIIIIIIIIIIIIIIIIIIIIIIIIIIIIIIIIIAAAAAAAAAAAAAAA
AIIIIIIIIIIIIIIIIIIIIIIIIIIIIIIIIIIIIIIIIIIIIIIIIIAAAAAAAAAAAAAA
AIIIIIIIIIIIIIIIIIIIIIIIIIIIIIIIIIIIIIIIIIIIIIIIIIIAAAAAAAAAAAAA
AIIIIIIIIIIIIIIIIIIIIIIIIIIIIIIIIIIIIIIIIIIIIIIIIIIIAAAAAAAAAAAA
AIIIIIIIIIIIIIIIIIIIIIIIIIIIIIIIIIIIIIIIIIIIIIIIIIIIIAAAAAAAAAAA
AIIIIIIIIIIIIIIIIIIIIIIIIIIIIIIIIIIIIIIIIIIIIIIIIIIIIIAAAAAAAAAA
AIIIIIIIIIIIIIIIIIIIIIIIIIIIIIIIIIIIIIIIIIIIIIIIIIIIIIIAAAAAAAAA
AIIIIIIIIIIIIIIIIIIIIIIIIIIIIIIIIIIIIIIIIIIIIIIIIIIIIIIIAAAAAAAA
AIIIIIIIIIIIIIIIIIIIIIIIIIIIIIIIIIIIIIIIIIIIIIIIIIIIIIIIIAAAAAAA
AIIIIIIIIIIIIIIIIIIIIIIIIIIIIIIIIIIIIIIIIIIIIIIIIIIIIIIIIIAAAAAA
AIIIIIIIIIIIIIIIIIIIIIIIIIIIIIIIIIIIIIIIIIIIIIIIIIIIIIIIIIIAAAAA
AIIIIIIIIIIIIIIIIIIIIIIIIIIIIIIIIIIIIIIIIIIIIIIIIIIIIIIIIIIIAAAA
AIIIIIIIIIIIIIIIIIIIIIIIIIIIIIIIIIIIIIIIIIIIIIIIIIIIIIIIIIIIIAAA
AIIIIIIIIIIIIIIIIIIIIIIIIIIIIIIIIIIIIIIIIIIIIIIIIIIIIIIIIIIIIIAA
AIIIIIIIIIIIIIIIIIIIIIIIIIIIIIIIIIIIIIIIIIIIIIIIIIIIIIIIIIIIIIIA
AIIIIIIIIIIIIIIIIIIIIIIIIIIIIIIIIIIIIIIIIIIIIIIIIIIIIIIIIIIIIIII
A2222222IIIII4444444IIIIIIIIIIIIIIIIIIIIIIIIIIIIIIIIIIIIIIIIIIII
AA2222222IIII4444444444IIIIIIIIIIIIIIIIIIIIIIIIIIIIIIIIIIIIIIIII
AAA2222222III44444444444IIIIIIIIIIIIIIIIIIIIIIIIIIIIIIIIIIIIIIII
AAAA2222222II444444444444IIIIIIIIIIIIIIIIIIIIIIIIIIIIIIIIIIIIIII
AAAAA2222222I4444444444444IIIIIIIIIIIIIIIIIIIIIIIIIIIIIIIIIIIIII
AAAAAA222222244444444444444IIIIIIIIIIIIIIIIIIIIIIIIIIIIIIIIIIIII
AAAAAAA222222244444444444444IIIIIIIIIIIIIIIIIIIIIIIIIIIIIIIIIIII
AAAAAAAA222222244444444444444IIIIIIIIIIIIIIIIIIIIIIIIIIIIIIIIIII
AAAAAAAAA222222244444444444444IIIIIIIIIIIIIIIIIIIIIIIIIIIIIIIIII
AAAAAAAAAA222222244444444444444IIIIIIIIIIIIIIIIIIIIIIIIIIIIIIIII
AAAAAAAAAAA222222244444444444444IIIIIIIIIIIIIIIIIIIIIIIIIIIIIIII
AAAAAAAAAAAA222222244444444444444IIIIIIIIIIIIIIIIIIIIIIIIIIIIIII
AAAAAAAAAAAAA222222244444444444444IIIIIIIIIIIIIIIIIIIIIIIIIIIIII
AAAAAAAAAAAAAA222222244444444444444IIIIIIIIIIIIIIIIIIIIIIIIIIIII
AAAAAAAAAAAAAAA222222244444444444444IIIIIIIIIIIIIIIIIIIIIIIIIIII
AAAAAAAAAAAAAAAA222222244444444444444IIIIIIIIIIIIIIIIIIIIIIIIIII
AAAAAAAAAAAAAAAAA222222244444444444444IIIIIIIIIIIIIIIIIIIIIIIIII
AAAAAAAAAAAAAAAAAA222222244444444444444IIIIIIIIIIIIIIIIIIIIIIIII
AAAAAAAAAAAAAAAAAAA222222244444444444444IIIIIIIIIIIIIIIIIIIIIIII
AAAAAAAAAAAAAAAAAAAA222222244444444444444IIIIIIIIIIIIIIIIIIIIIII
AAAAAAAAAAAAAAAAAAAAA222222244444444444444IIIIIIIIIIIIIIIIIIIIII
AAAAAAAAAAAAAAAAAAAAAA222222244444444444444IIIIIIIIIIIIIIIIIIIII
AAAAAAAAAAAAAAAAAAAAAAA222222244444444444444IIIIIIIIIIIIIIIIIIII
AAAAAAAAAAAAAAAAAAAAAAAA222222244444444444444IIIIIIIIIIIIIIIIIII
AAAAAAAAAAAAAAAAAAAAAAAAA222222244444444444444IIIIIIIIIIIIIIIIII
AAAAAAAAAAAAAAAAAAAAAAAAAA222222244444444444444IIIIIIIIIIIIIIIII
AAAAAAAAAAAAAAAAAAAAAAAAAAA222222244444444444444IIIIIIIIIIIIIIII
AAAAAAAAAAAAAAAAAAAAAAAAAAAA222222244444444444444IIIIIIIIIIIIIII
AAAAAAAAAAAAAAAAAAAAAAAAAAAAA222222244444444444444IIIIIIIIIIIIII
AAAAAAAAAAAAAAAAAAAAAAAAAAAAAA222222244444444444444IIIIIIIIIIIII
AAAAAAAAAAAAAAAAAAAAAAAAAAAAAAA222222244444444444444IIIIIIIIIIII
AAAAAAAAAAAAAAAAAAAAAAAAAAAAAAAA222222244444444444444IIIIIIIIIII
AAAAAAAAAAAAAAAAAAAAAAAAAAAAAAAAA222222244444444444444IIIIIIIIII
AAAAAAAAAAAAAAAAAAAAAAAAAAAAAAAAAA222222244444444444444IIIIIIIII
AAAAAAAAAAAAAAAAAAAAAAAAAAAAAAAAAAA222222244444444444444IIIIIIII
AAAAAAAAAAAAAAAAAAAAAAAAAAAAAAAAAAAA222222244444444444444IIIIIII
AAAAAAAAAAAAAAAAAAAAAAAAAAAAAAAAAAAAA222222244444444444444IIIIII
AAAAAAAAAAAAAAAAAAAAAAAAAAAAAAAAAAAAAA222222244444444444444IIIII
AAAAAAAAAAAAAAAAAAAAAAAAAAAAAAAAAAAAAAA222222244444444444444IIII
AAAAAAAAAAAAAAAAAAAAAAAAAAAAAAAAAAAAAAAA222222244444444444444III
AAAAAAAAAAAAAAAAAAAAAAAAAAAAAAAAAAAAAAAAA222222244444444444444II
AAAAAAAAAAAAAAAAAAAAAAAAAAAAAAAAAAAAAAAAAA222222244444444444444I
AAAAAAAAAAAAAAAAAAAAAAAAAAAAAAAAAAAAAAAAAAA222222244444444444444
AAAAAAAAAAAAAAAAAAAAAAAAAAAAAAAAAAAAAAAAAAAA22222224444444444444
AAAAAAAAAAAAAAAAAAAAAAAAAAAAAAAAAAAAAAAAAAAAA2222222444444444444
AAAAAAAAAAAAAAAAAAAAAAAAAAAAAAAAAAAAAAAAAAAAAA222222244444444444
AAAAAAAAAAAAAAAAAAAAAAAAAAAAAAAAAAAAAAAAAAAAAAA22222224444444444
AAAAAAAAAAAAAAAAAAAAAAAAAAAAAAAAAAAAAAAAAAAAAAAA2222222444444444
AAAAAAAAAAAAAAAAAAAAAAAAAAAAAAAAAAAAAAAAAAAAAAAAA222222244444444
AAAAAAAAAAAAAAAAAAAAAAAAAAAAAAAAAAAAAAAAAAAAAAAAAA22222224444444
AAAAAAAAAAAAAAAAAAAAAAAAAAAAAAAAAAAAAAAAAAAAAAAAAAA2222222444444
AAAAAAAAAAAAAAAAAAAAAAAAAAAAAAAAAAAAAAAAAAAAAAAAAAAA222222244444
AAAAAAAAAAAAAAAAAAAAAAAAAAAAAAAAAAAAAAAAAAAAAAAAAAAAA22222224444
AAAAAAAAAAAAAAAAAAAAAAAAAAAAAAAAAAAAAAAAAAAAAAAAAAAAAA2222222444
AAAAAAAAAAAAAAAAAAAAAAAAAAAAAAAAAAAAAAAAAAAAAAAAAAAAAAA222222244
AAAAAAAAAAAAAAAAAAAAAAAAAAAAAAAAAAAAAAAAAAAAAAAAAAAAAAAA22222224
AAAAAAAAAAAAAAAAAAAAAAAAAAAAAAAAAAAAAAAAAAAAAAAAAAAAAAAAA2222222
AAAAAAAAAAAAAAAAAAAAAAAAAAAAAAAAAAAAAAAAAAAAAAAAAAAAAAAAAA222222
AAAAAAAAAAAAAAAAAAAAAAAAAAAAAAAAAAAAAAAAAAAAAAAAAAAAAAAAAAA22222
AAAAAAAAAAAAAAAAAAAAAAAAAAAAAAAAAAAAAAAAAAAAAAAAAAAAAAAAAAAA2222
AAAAAAAAAAAAAAAAAAAAAAAAAAAAAAAAAAAAAAAAAAAAAAAAAAAAAAAAAAAAA222
AAAAAAAAAAAAAAAAAAAAAAAAAAAAAAAAAAAAAAAAAAAAAAAAAAAAAAAAAAAAAA22
AAAAAAAAAAAAAAAAAAAAAAAAAAAAAAAAAAAAAAAAAAAAAAAAAAAAAAAAAAAAAAA2
AAAAAAAAAAAAAAAAAAAAAAAAAAAAAAAAAAAAAAAAAAAAAAAAAAAAAAAAAAAAAAAA
AAAIAAAAAAAAAAAAAAAAAAAAAAAAAAAAAAAAAAAAAAAAAAAAAAAAAAAAAAAAAAAA
AAAIIAAAAAAAAAAAAAAAAAAAAAAAAAAAAAAAAAAAAAAAAAAAAAAAAAAAAAAAAAAA
AAAIIIAAAAAAAAAAAAAAAAAAAAAAAAAAAAAAAAAAAAAAAAAAAAAAAAAAAAAAAAAA
AAAIIIIAAAAAAAAAAAAAAAAAAAAAAAAAAAAAAAAAAAAAAAAAAAAAAAAAAAAAAAAA
AAAIIIIIAAAAAAAAAAAAAAAAAAAAAAAAAAAAAAAAAAAAAAAAAAAAAAAAAAAAAAAA
AAAIIIIIIAAAAAAAAAAAAAAAAAAAAAAAAAAAAAAAAAAAAAAAAAAAAAAAAAAAAAAA
AAAIIIIIIIAAAAAAAAAAAAAAAAAAAAAAAAAAAAAAAAAAAAAAAAAAAAAAAAAAAAAA
AAAIIIIIIIIAAAAAAAAAAAAAAAAAAAAAAAAAAAAAAAAAAAAAAAAAAAAAAAAAAAAA
AAAIIIIIIIIIAAAAAAAAAAAAAAAAAAAAAAAAAAAAAAAAAAAAAAAAAAAAAAAAAAAA
AAAIIIIIIIIIIAAAAAAAAAAAAAAAAAAAAAAAAAAAAAAAAAAAAAAAAAAAAAAAAAAA
AAAIIIIIIIIIIIAAAAAAAAAAAAAAAAAAAAAAAAAAAAAAAAAAAAAAAAAAAAAAAAAA
AAAIIIIIIIIIIIIAAAAAAAAAAAAAAAAAAAAAAAAAAAAAAAAAAAAAAAAAAAAAAAAA
AAAIIIIIIIIIIIIIAAAAAAAAAAAAAAAAAAAAAAAAAAAAAAAAAAAAAAAAAAAAAAAA
AAAIIIIIIIIIIIIIIAAAAAAAAAAAAAAAAAAAAAAAAAAAAAAAAAAAAAAAAAAAAAAA
AAAIIIIIIIIIIIIIIIAAAAAAAAAAAAAAAAAAAAAAAAAAAAAAAAAAAAAAAAAAAAAA
AAAIIIIIIIIIIIIIIIIAAAAAAAAAAAAAAAAAAAAAAAAAAAAAAAAAAAAAAAAAAAAA
AAAIIIIIIIIIIIIIIIIIAAAAAAAAAAAAAAAAAAAAAAAAAAAAAAAAAAAAAAAAAAAA
AAAIIIIIIIIIIIIIIIIIIAAAAAAAAAAAAAAAAAAAAAAAAAAAAAAAAAAAAAAAAAAA
AAAIIIIIIIIIIIIIIIIIIIAAAAAAAAAAAAAAAAAAAAAAAAAAAAAAAAAAAAAAAAAA
AAAIIIIIIIIIIIIIIIIIIIIAAAAAAAAAAAAAAAAAAAAAAAAAAAAAAAAAAAAAAAAA
AAAIIIIIIIIIIIIIIIIIIIIIAAAAAAAAAAAAAAAAAAAAAAAAAAAAAAAAAAAAAAAA
AAAIIIIIIIIIIIIIIIIIIIIIIAAAAAAAAAAAAAAAAAAAAAAAAAAAAAAAAAAAAAAA
AAAIIIIIIIIIIIIIIIIIIIIIIIAAAAAAAAAAAAAAAAAAAAAAAAAAAAAAAAAAAAAA
AAAIIIIIIIIIIIIIIIIIIIIIIIIAAAAAAAAAAAAAAAAAAAAAAAAAAAAAAAAAAAAA
AAAIIIIIIIIIIIIIIIIIIIIIIIIIAAAAAAAAAAAAAAAAAAAAAAAAAAAAAAAAAAAA
AAAIIIIIIIIIIIIIIIIIIIIIIIIIIAAAAAAAAAAAAAAAAAAAAAAAAAAAAAAAAAAA
AAAIIIIIIIIIIIIIIIIIIIIIIIIIIIAAAAAAAAAAAAAAAAAAAAAAAAAAAAAAAAAA
AAAIIIIIIIIIIIIIIIIIIIIIIIIIIIIAAAAAAAAAAAAAAAAAAAAAAAAAAAAAAAAA
AAAIIIIIIIIIIIIIIIIIIIIIIIIIIIIIAAAAAAAAAAAAAAAAAAAAAAAAAAAAAAAA
AAAIIIIIIIIIIIIIIIIIIIIIIIIIIIIIIAAAAAAAAAAAAAAAAAAAAAAAAAAAAAAA
AAAIIIIIIIIIIIIIIIIIIIIIIIIIIIIIIIAAAAAAAAAAAAAAAAAAAAAAAAAAAAAA
AAAIIIIIIIIIIIIIIIIIIIIIIIIIIIIIIIIAAAAAAAAAAAAAAAAAAAAAAAAAAAAA
AAAIIIIIIIIIIIIIIIIIIIIIIIIIIIIIIIIIAAAAAAAAAAAAAAAAAAAAAAAAAAAA
AAAIIIIIIIIIIIIIIIIIIIIIIIIIIIIIIIIIIAAAAAAAAAAAAAAAAAAAAAAAAAAA
AAAIIIIIIIIIIIIIIIIIIIIIIIIIIIIIIIIIIIAAAAAAAAAAAAAAAAAAAAAAAAAA
AAAIIIIIIIIIIIIIIIIIIIIIIIIIIIIIIIIIIIIAAAAAAAAAAAAAAAAAAAAAAAAA
AAAIIIIIIIIIIIIIIIIIIIIIIIIIIIIIIIIIIIIIAAAAAAAAAAAAAAAAAAAAAAAA
AAAIIIIIIIIIIIIIIIIIIIIIIIIIIIIIIIIIIIIIIAAAAAAAAAAAAAAAAAAAAAAA
AAAIIIIIIIIIIIIIIIIIIIIIIIIIIIIIIIIIIIIIIIAAAAAAAAAAAAAAAAAAAAAA
AAAIIIIIIIIIIIIIIIIIIIIIIIIIIIIIIIIIIIIIIIIAAAAAAAAAAAAAAAAAAAAA
AAAIIIIIIIIIIIIIIIIIIIIIIIIIIIIIIIIIIIIIIIIIAAAAAAAAAAAAAAAAAAAA
AAAIIIIIIIIIIIIIIIIIIIIIIIIIIIIIIIIIIIIIIIIIIAAAAAAAAAAAAAAAAAAA
AAAIIIIIIIIIIIIIIIIIIIIIIIIIIIIIIIIIIIIIIIIIIIAAAAAAAAAAAAAAAAAA
AAAIIIIIIIIIIIIIIIIIIIIIIIIIIIIIIIIIIIIIIIIIIIIAAAAAAAAAAAAAAAAA
AAAIIIIIIIIIIIIIIIIIIIIIIIIIIIIIIIIIIIIIIIIIIIIIAAAAAAAAAAAAAAAA
AAAIIIIIIIIIIIIIIIIIIIIIIIIIIIIIIIIIIIIIIIIIIIIIIAAAAAAAAAAAAAAA
AAAIIIIIIIIIIIIIIIIIIIIIIIIIIIIIIIIIIIIIIIIIIIIIIIAAAAAAAAAAAAAA
AAAIIIIIIIIIIIIIIIIIIIIIIIIIIIIIIIIIIIIIIIIIIIIIIIIAAAAAAAAAAAAA
AAAIIIIIIIIIIIIIIIIIIIIIIIIIIIIIIIIIIIIIIIIIIIIIIIIIAAAAAAAAAAAA
AAAIIIIIIIIIIIIIIIIIIIIIIIIIIIIIIIIIIIIIIIIIIIIIIIIIIAAAAAAAAAAA
AAAIIIIIIIIIIIIIIIIIIIIIIIIIIIIIIIIIIIIIIIIIIIIIIIIIIIAAAAAAAAAA
AAAIIIIIIIIIIIIIIIIIIIIIIIIIIIIIIIIIIIIIIIIIIIIIIIIIIIIAAAAAAAAA
AAAIIIIIIIIIIIIIIIIIIIIIIIIIIIIIIIIIIIIIIIIIIIIIIIIIIIIIAAAAAAAA
AAAIIIIIIIIIIIIIIIIIIIIIIIIIIIIIIIIIIIIIIIIIIIIIIIIIIIIIIAAAAAAA
AAAIIIIIIIIIIIIIIIIIIIIIIIIIIIIIIIIIIIIIIIIIIIIIIIIIIIIIIIAAAAAA
AAAIIIIIIIIIIIIIIIIIIIIIIIIIIIIIIIIIIIIIIIIIIIIIIIIIIIIIIIIAAAAA
AAAIIIIIIIIIIIIIIIIIIIIIIIIIIIIIIIIIIIIIIIIIIIIIIIIIIIIIIIIIAAAA
AAAIIIIIIIIIIIIIIIIIIIIIIIIIIIIIIIIIIIIIIIIIIIIIIIIIIIIIIIIIIAAA
AAAIIIIIIIIIIIIIIIIIIIIIIIIIIIIIIIIIIIIIIIIIIIIIIIIIIIIIIIIIIIAA
AAAIIIIIIIIIIIIIIIIIIIIIIIIIIIIIIIIIIIIIIIIIIIIIIIIIIIIIIIIIIIIA
AAAIIIIIIIIIIIIIIIIIIIIIIIIIIIIIIIIIIIIIIIIIIIIIIIIIIIIIIIIIIIII
AIAIIIIIIIIIIIIIIIIIIIIIIIIIIIIIIIIIIIIIIIIIIIIIIIIIIIIIIIIIIIII
AIIIIIIIIIIIIIIIIIIIIIIIIIIIIIIIIIIIIIIIIIIIIIIIIIIIIIIIIIIIIIII
[MLOP] Prefetch Degree Mean: 2.41055
[MLOP] Prefetch Degree SD: 3.09884
[MLOP] Max Score Left Mean (%): 30.03614
[MLOP] Max Score Left SD (%): 20.15973
[MLOP] Max Score Right Mean (%): 63.60146
[MLOP] Max Score Right SD (%): 22.40132

Channel_0_RQ_row_buffer_hit 545172
Channel_0_RQ_row_buffer_miss 734025
Channel_0_WQ_row_buffer_hit 879
Channel_0_WQ_row_buffer_miss 4595
Channel_0_WQ_full 0
Channel_0_dbus_congested 476547

avg_congested_cycle 8

DRAM_bw_pochs 441420
DRAM_bw_level_0 224018
DRAM_bw_level_1 153038
DRAM_bw_level_2 36491
DRAM_bw_level_3 27873
