*************************************************
   ChampSim Multicore Out-of-Order Simulator
   Last compiled: Apr  3 2025 20:54:34
*************************************************
parsing config file: /home/zir/Pythia/config/pythia.ini

trace_0 /home/zir/ChampSim/ML-DPC/ChampSimTraces/spec17/602.gcc-s0.trace.xz
adding L2C_PREFETCHER: Scooby
Initialize SHIP state
warmup_instructions 10000000
simulation_instructions 50000000
champsim_seed 163
measure_ipc 0
measure_ipc_epoch 1000
measure_dram_bw 1
measure_dram_bw_epoch 256
measure_cache_acc 1
measure_cache_acc_epoch 1024
l1d_perfect 0
l2c_perfect 0
llc_perfect 0
l1d_semi_perfect 0
l2c_semi_perfect 0
llc_semi_perfect 0
semi_perfect_cache_page_buffer_size 64

num_cpus 1
cpu_freq 4000
dram_io_freq 2400
page_size 4096
block_size 64
max_read_per_cycle 8
max_fill_per_cycle 1
dram_channels 1
log2_dram_channels 0
dram_ranks 1
dram_banks 8
dram_rows 65536
dram_columns 128
dram_row_size 8
dram_size 4096
dram_pages 1048576

fetch_width 6
decode_width 6
exec_width 4
lq_width 2
sq_width 2
retire_width 4
scheduler_size 128
branch_mispredict_penalty 20
rob_size 256
lq_size 72
sq_size 56
num_instr_destinations_sparc 4
num_instr_destinations 2
num_instr_sources 4

itlb_set 16
itlb_way 8
itlb_rq_size 16
itlb_wq_size 16
itlb_pq_size 0
itlb_mshr_size 8
itlb_latency 1

dtlb_set 16
dtlb_way 4
dtlb_rq_size 16
dtlb_wq_size 16
dtlb_pq_size 0
dtlb_mshr_size 8
dtlb_latency 1

stlb_set 128
stlb_way 12
stlb_rq_size 32
stlb_wq_size 32
stlb_pq_size 0
stlb_mshr_size 16
stlb_latency 8

l1i_size 32
l1i_set 64
l1i_way 8
l1i_rq_size 64
l1i_wq_size 64
l1i_pq_size 8
l1i_mshr_size 8
l1i_latency 1

l1d_size 32
l1d_set 64
l1d_way 8
l1d_rq_size 64
l1d_wq_size 64
l1d_pq_size 8
l1d_mshr_size 16
l1d_latency 4

l2c_size 256
l2c_set 512
l2c_way 8
l2c_rq_size 32
l2c_wq_size 32
l2c_pq_size 32
l2c_mshr_size 32
l2c_latency 10

llc_size 2048
llc_set 2048
llc_way 16
llc_rq_size 32
llc_wq_size 32
llc_pq_size 32
llc_mshr_size 64
llc_latency 20

dram_channel_width 8
dram_wq_size 64
dram_rq_size 64
tRP 15
tRCD 15
tCAS 12.5
dram_dbus_turn_around_time 30
dram_write_high_wm 56
dram_write_low_wm 48
min_dram_writes_per_switch 16
dram_mtps 2400
dram_dbus_return_time 13

scooby_alpha 0.0065088
scooby_gamma 0.556301
scooby_epsilon 0.00182284
scooby_state_num_bits 10
scooby_max_states 1024
scooby_seed 200
scooby_policy EGreedy
scooby_learning_type SARSA
scooby_actions 1,3,4,5,10,11,12,22,23,30,32,-1,-3,-6,0,
scooby_max_actions 15
scooby_pt_size 256
scooby_st_size 64
scooby_max_pcs 5
scooby_max_offsets 5
scooby_max_deltas 5
scooby_reward_none -4
scooby_reward_incorrect -8
scooby_reward_correct_untimely 12
scooby_reward_correct_timely 20
scooby_brain_zero_init 0
scooby_enable_reward_all 0
scooby_enable_track_multiple 0
scooby_enable_reward_out_of_bounds 1
scooby_reward_out_of_bounds -12
scooby_state_type 1
scooby_state_hash_type 11
scooby_access_debug 0
scooby_print_access_debug 0
scooby_print_access_debug_pc deadbeef
scooby_print_access_debug_pc_count 0
scooby_print_trace 0
scooby_enable_state_action_stats 1
scooby_enable_reward_tracker_hit 0
scooby_reward_tracker_hit -2
scooby_enable_featurewise_engine 1
scooby_pref_degree 1
scooby_enable_dyn_degree 1
scooby_max_to_avg_q_thresholds 0.5,1,2,
scooby_dyn_degrees 1,2,4,4,
scooby_multi_deg_select_type 2
scooby_last_pref_offset_conf_thresholds 1,3,8,
scooby_dyn_degrees_type2 1,2,4,6,
scooby_action_tracker_size 2
scooby_high_bw_thresh 4
scooby_enable_hbw_reward 1
scooby_reward_hbw_correct_timely 20
scooby_reward_hbw_correct_untimely 12
scooby_reward_hbw_incorrect -14
scooby_reward_hbw_none -2
scooby_reward_hbw_out_of_bounds -12
scooby_reward_hbw_tracker_hit -2
scooby_last_pref_offset_conf_thresholds_hbw 1,3,8,
scooby_dyn_degrees_type2_hbw 1,2,4,6,

le_enable_trace 0
le_trace_interval 0
le_trace_file_name 
le_trace_state 0
le_enable_score_plot 0
le_plot_file_name 
le_plot_actions 
le_enable_action_trace 0
le_action_trace_interval 0
le_action_trace_name 
le_enable_action_plot 0

le_featurewise_active_features PC, PC_Delta
le_featurewise_num_tilings 3,3,
le_featurewise_num_tiles 128,128,
le_featurewise_hash_types 2,2,
le_featurewise_enable_tiling_offset 1,1,
le_featurewise_max_q_thresh 0.5
le_featurewise_enable_action_fallback 1
le_featurewise_feature_weights 1,1,
le_featurewise_enable_dynamic_weight 0
le_featurewise_weight_gradient 0.001
le_featurewise_disable_adjust_weight_all_features_align 1
le_featurewise_selective_update 0
le_featurewise_pooling_type 2
le_featurewise_enable_dyn_action_fallback 1
le_featurewise_bw_acc_check_level 1
le_featurewise_acc_thresh 2
le_featurewise_enable_trace 0
le_featurewise_trace_feature_type 0
le_featurewise_trace_feature 
le_featurewise_trace_interval 0
le_featurewise_trace_record_count 0
le_featurewise_trace_file_name 
le_featurewise_enable_score_plot 0
le_featurewise_plot_actions 
le_featurewise_plot_file_name 


Heartbeat CPU  0 instructions:    1000000 cycles:     729706 heartbeat IPC: 1.37041 cumulative IPC: 1.37041 (Simulation time: 0 hr 0 min 2 sec) 
Heartbeat CPU  0 instructions:    2000002 cycles:    1457734 heartbeat IPC: 1.37358 cumulative IPC: 1.37199 (Simulation time: 0 hr 0 min 4 sec) 
Heartbeat CPU  0 instructions:    3000000 cycles:    2186985 heartbeat IPC: 1.37127 cumulative IPC: 1.37175 (Simulation time: 0 hr 0 min 5 sec) 
Heartbeat CPU  0 instructions:    4000000 cycles:    2915945 heartbeat IPC: 1.37182 cumulative IPC: 1.37177 (Simulation time: 0 hr 0 min 7 sec) 
Heartbeat CPU  0 instructions:    5000000 cycles:    3645161 heartbeat IPC: 1.37134 cumulative IPC: 1.37168 (Simulation time: 0 hr 0 min 8 sec) 
Heartbeat CPU  0 instructions:    6000003 cycles:    4374372 heartbeat IPC: 1.37135 cumulative IPC: 1.37163 (Simulation time: 0 hr 0 min 10 sec) 
Heartbeat CPU  0 instructions:    7000001 cycles:    5101410 heartbeat IPC: 1.37544 cumulative IPC: 1.37217 (Simulation time: 0 hr 0 min 12 sec) 
Heartbeat CPU  0 instructions:    8000000 cycles:    5828297 heartbeat IPC: 1.37573 cumulative IPC: 1.37261 (Simulation time: 0 hr 0 min 13 sec) 
Heartbeat CPU  0 instructions:    9000002 cycles:    6558569 heartbeat IPC: 1.36936 cumulative IPC: 1.37225 (Simulation time: 0 hr 0 min 15 sec) 
Heartbeat CPU  0 instructions:   10000001 cycles:    7289370 heartbeat IPC: 1.36836 cumulative IPC: 1.37186 (Simulation time: 0 hr 0 min 16 sec) 

Warmup complete CPU  0 instructions:   10000001 cycles:    7289370 (Simulation time: 0 hr 0 min 16 sec) 

Heartbeat CPU  0 instructions:   11000002 cycles:    9938960 heartbeat IPC: 0.37742 cumulative IPC: 0.37742 (Simulation time: 0 hr 0 min 19 sec) 
Heartbeat CPU  0 instructions:   12000000 cycles:   12591854 heartbeat IPC: 0.37695 cumulative IPC: 0.37718 (Simulation time: 0 hr 0 min 21 sec) 
Heartbeat CPU  0 instructions:   13000000 cycles:   15247201 heartbeat IPC: 0.37660 cumulative IPC: 0.37699 (Simulation time: 0 hr 0 min 23 sec) 
Heartbeat CPU  0 instructions:   14000000 cycles:   17903486 heartbeat IPC: 0.37647 cumulative IPC: 0.37686 (Simulation time: 0 hr 0 min 25 sec) 
Heartbeat CPU  0 instructions:   15000000 cycles:   20558748 heartbeat IPC: 0.37661 cumulative IPC: 0.37681 (Simulation time: 0 hr 0 min 28 sec) 
Heartbeat CPU  0 instructions:   16000000 cycles:   23225308 heartbeat IPC: 0.37501 cumulative IPC: 0.37651 (Simulation time: 0 hr 0 min 30 sec) 
Heartbeat CPU  0 instructions:   17000000 cycles:   25879716 heartbeat IPC: 0.37673 cumulative IPC: 0.37654 (Simulation time: 0 hr 0 min 32 sec) 
Heartbeat CPU  0 instructions:   18000002 cycles:   28532278 heartbeat IPC: 0.37699 cumulative IPC: 0.37660 (Simulation time: 0 hr 0 min 34 sec) 
Heartbeat CPU  0 instructions:   19000000 cycles:   31176130 heartbeat IPC: 0.37824 cumulative IPC: 0.37678 (Simulation time: 0 hr 0 min 37 sec) 
Heartbeat CPU  0 instructions:   20000000 cycles:   33816296 heartbeat IPC: 0.37876 cumulative IPC: 0.37698 (Simulation time: 0 hr 0 min 39 sec) 
Heartbeat CPU  0 instructions:   21000000 cycles:   36458744 heartbeat IPC: 0.37844 cumulative IPC: 0.37711 (Simulation time: 0 hr 0 min 41 sec) 
Heartbeat CPU  0 instructions:   22000000 cycles:   39101490 heartbeat IPC: 0.37839 cumulative IPC: 0.37721 (Simulation time: 0 hr 0 min 43 sec) 
Heartbeat CPU  0 instructions:   23000003 cycles:   41739919 heartbeat IPC: 0.37901 cumulative IPC: 0.37735 (Simulation time: 0 hr 0 min 46 sec) 
Heartbeat CPU  0 instructions:   24000000 cycles:   44380254 heartbeat IPC: 0.37874 cumulative IPC: 0.37745 (Simulation time: 0 hr 0 min 48 sec) 
Heartbeat CPU  0 instructions:   25000002 cycles:   47028262 heartbeat IPC: 0.37764 cumulative IPC: 0.37746 (Simulation time: 0 hr 0 min 50 sec) 
Heartbeat CPU  0 instructions:   26000003 cycles:   49684402 heartbeat IPC: 0.37649 cumulative IPC: 0.37740 (Simulation time: 0 hr 0 min 52 sec) 
Heartbeat CPU  0 instructions:   27000000 cycles:   52344878 heartbeat IPC: 0.37587 cumulative IPC: 0.37731 (Simulation time: 0 hr 0 min 55 sec) 
Heartbeat CPU  0 instructions:   28000000 cycles:   55005403 heartbeat IPC: 0.37587 cumulative IPC: 0.37723 (Simulation time: 0 hr 0 min 57 sec) 
Heartbeat CPU  0 instructions:   29000003 cycles:   57656722 heartbeat IPC: 0.37717 cumulative IPC: 0.37723 (Simulation time: 0 hr 0 min 59 sec) 
Heartbeat CPU  0 instructions:   30000003 cycles:   60312784 heartbeat IPC: 0.37650 cumulative IPC: 0.37719 (Simulation time: 0 hr 1 min 1 sec) 
Heartbeat CPU  0 instructions:   31000000 cycles:   62964589 heartbeat IPC: 0.37710 cumulative IPC: 0.37719 (Simulation time: 0 hr 1 min 4 sec) 
Heartbeat CPU  0 instructions:   32000000 cycles:   65673300 heartbeat IPC: 0.36918 cumulative IPC: 0.37682 (Simulation time: 0 hr 1 min 6 sec) 
Heartbeat CPU  0 instructions:   33000003 cycles:   68329818 heartbeat IPC: 0.37643 cumulative IPC: 0.37680 (Simulation time: 0 hr 1 min 8 sec) 
Heartbeat CPU  0 instructions:   34000000 cycles:   70978817 heartbeat IPC: 0.37750 cumulative IPC: 0.37683 (Simulation time: 0 hr 1 min 10 sec) 
Heartbeat CPU  0 instructions:   35000003 cycles:   73631508 heartbeat IPC: 0.37698 cumulative IPC: 0.37683 (Simulation time: 0 hr 1 min 13 sec) 
Heartbeat CPU  0 instructions:   36000000 cycles:   76277065 heartbeat IPC: 0.37799 cumulative IPC: 0.37688 (Simulation time: 0 hr 1 min 15 sec) 
Heartbeat CPU  0 instructions:   37000000 cycles:   78935647 heartbeat IPC: 0.37614 cumulative IPC: 0.37685 (Simulation time: 0 hr 1 min 17 sec) 
Heartbeat CPU  0 instructions:   38000000 cycles:   81586547 heartbeat IPC: 0.37723 cumulative IPC: 0.37686 (Simulation time: 0 hr 1 min 19 sec) 
Heartbeat CPU  0 instructions:   39000001 cycles:   84234698 heartbeat IPC: 0.37762 cumulative IPC: 0.37689 (Simulation time: 0 hr 1 min 22 sec) 
Heartbeat CPU  0 instructions:   40000000 cycles:   86874180 heartbeat IPC: 0.37886 cumulative IPC: 0.37696 (Simulation time: 0 hr 1 min 24 sec) 
Heartbeat CPU  0 instructions:   41000001 cycles:   89517818 heartbeat IPC: 0.37827 cumulative IPC: 0.37700 (Simulation time: 0 hr 1 min 26 sec) 
Heartbeat CPU  0 instructions:   42000003 cycles:   92157853 heartbeat IPC: 0.37878 cumulative IPC: 0.37705 (Simulation time: 0 hr 1 min 28 sec) 
Heartbeat CPU  0 instructions:   43000000 cycles:   94802584 heartbeat IPC: 0.37811 cumulative IPC: 0.37709 (Simulation time: 0 hr 1 min 31 sec) 
Heartbeat CPU  0 instructions:   44000000 cycles:   97450650 heartbeat IPC: 0.37763 cumulative IPC: 0.37710 (Simulation time: 0 hr 1 min 33 sec) 
Heartbeat CPU  0 instructions:   45000000 cycles:  100095750 heartbeat IPC: 0.37806 cumulative IPC: 0.37713 (Simulation time: 0 hr 1 min 35 sec) 
Heartbeat CPU  0 instructions:   46000002 cycles:  102739895 heartbeat IPC: 0.37819 cumulative IPC: 0.37716 (Simulation time: 0 hr 1 min 38 sec) 
Heartbeat CPU  0 instructions:   47000001 cycles:  105387741 heartbeat IPC: 0.37767 cumulative IPC: 0.37717 (Simulation time: 0 hr 1 min 40 sec) 
Heartbeat CPU  0 instructions:   48000000 cycles:  108039991 heartbeat IPC: 0.37704 cumulative IPC: 0.37717 (Simulation time: 0 hr 1 min 42 sec) 
Heartbeat CPU  0 instructions:   49000001 cycles:  110697005 heartbeat IPC: 0.37636 cumulative IPC: 0.37715 (Simulation time: 0 hr 1 min 44 sec) 
Heartbeat CPU  0 instructions:   50000003 cycles:  113347043 heartbeat IPC: 0.37735 cumulative IPC: 0.37715 (Simulation time: 0 hr 1 min 47 sec) 
Heartbeat CPU  0 instructions:   51000002 cycles:  115997722 heartbeat IPC: 0.37726 cumulative IPC: 0.37716 (Simulation time: 0 hr 1 min 49 sec) 
Heartbeat CPU  0 instructions:   52000000 cycles:  118646798 heartbeat IPC: 0.37749 cumulative IPC: 0.37716 (Simulation time: 0 hr 1 min 51 sec) 
Heartbeat CPU  0 instructions:   53000002 cycles:  121295773 heartbeat IPC: 0.37751 cumulative IPC: 0.37717 (Simulation time: 0 hr 1 min 53 sec) 
Heartbeat CPU  0 instructions:   54000003 cycles:  123939237 heartbeat IPC: 0.37829 cumulative IPC: 0.37720 (Simulation time: 0 hr 1 min 56 sec) 
Heartbeat CPU  0 instructions:   55000000 cycles:  126589906 heartbeat IPC: 0.37726 cumulative IPC: 0.37720 (Simulation time: 0 hr 1 min 58 sec) 
Heartbeat CPU  0 instructions:   56000000 cycles:  129238619 heartbeat IPC: 0.37754 cumulative IPC: 0.37721 (Simulation time: 0 hr 2 min 0 sec) 
Heartbeat CPU  0 instructions:   57000001 cycles:  131895183 heartbeat IPC: 0.37643 cumulative IPC: 0.37719 (Simulation time: 0 hr 2 min 2 sec) 
Heartbeat CPU  0 instructions:   58000003 cycles:  134544822 heartbeat IPC: 0.37741 cumulative IPC: 0.37719 (Simulation time: 0 hr 2 min 5 sec) 
Heartbeat CPU  0 instructions:   59000000 cycles:  137191117 heartbeat IPC: 0.37789 cumulative IPC: 0.37721 (Simulation time: 0 hr 2 min 7 sec) 
Heartbeat CPU  0 instructions:   60000000 cycles:  139838441 heartbeat IPC: 0.37774 cumulative IPC: 0.37722 (Simulation time: 0 hr 2 min 9 sec) 
Finished CPU 0 instructions: 50000001 cycles: 132549079 cumulative IPC: 0.37722 (Simulation time: 0 hr 2 min 9 sec) 

ChampSim completed all CPUs

[ROI Statistics]
Core_0_instructions 50000001
Core_0_cycles 132549079
Core_0_IPC 0.37722

Core_0_branch_prediction_accuracy 96.27842
Core_0_branch_MPKI 8.73810
Core_0_average_ROB_occupancy_at_mispredict 84.02330

Core_0_L1D_total_access 15325590
Core_0_L1D_total_hit 13967729
Core_0_L1D_total_miss 1357861
Core_0_L1D_loads 10473185
Core_0_L1D_load_hit 9115720
Core_0_L1D_load_miss 1357465
Core_0_L1D_RFOs 4852405
Core_0_L1D_RFO_hit 4852009
Core_0_L1D_RFO_miss 396
Core_0_L1D_prefetches 0
Core_0_L1D_prefetch_hit 0
Core_0_L1D_prefetch_miss 0
Core_0_L1D_writebacks 0
Core_0_L1D_writeback_hit 0
Core_0_L1D_writeback_miss 0
Core_0_L1D_prefetch_requested 0
Core_0_L1D_prefetch_dropped 0
Core_0_L1D_prefetch_issued 0
Core_0_L1D_prefetch_filled 0
Core_0_L1D_prefetch_useful 0
Core_0_L1D_prefetch_useless 0
Core_0_L1D_prefetch_late 0
Core_0_L1D_average_miss_latency 17.02508

Core_0_L1D_rq_access 13897882
Core_0_L1D_rq_forward 0
Core_0_L1D_rq_merged 3325830
Core_0_L1D_rq_to_cache 10572052
Core_0_L1D_rq_full 0

Core_0_L1D_wq_access 4852413
Core_0_L1D_wq_forward 0
Core_0_L1D_wq_merged 10
Core_0_L1D_wq_to_cache 4852403
Core_0_L1D_wq_full 0

Core_0_L1D_pq_access 0
Core_0_L1D_pq_forward 0
Core_0_L1D_pq_merged 0
Core_0_L1D_pq_to_cache 0
Core_0_L1D_pq_full 0

Core_0_L1D_acc_epochs 135090
Core_0_L1D_acc_level_0 135090
Core_0_L1D_acc_level_1 0
Core_0_L1D_acc_level_2 0
Core_0_L1D_acc_level_3 0
Core_0_L1D_acc_level_4 0
Core_0_L1D_acc_level_5 0
Core_0_L1D_acc_level_6 0
Core_0_L1D_acc_level_7 0
Core_0_L1D_acc_level_8 0
Core_0_L1D_acc_level_9 0

Core_0_L1I_total_access 10661163
Core_0_L1I_total_hit 10661163
Core_0_L1I_total_miss 0
Core_0_L1I_loads 10661163
Core_0_L1I_load_hit 10661163
Core_0_L1I_load_miss 0
Core_0_L1I_RFOs 0
Core_0_L1I_RFO_hit 0
Core_0_L1I_RFO_miss 0
Core_0_L1I_prefetches 0
Core_0_L1I_prefetch_hit 0
Core_0_L1I_prefetch_miss 0
Core_0_L1I_writebacks 0
Core_0_L1I_writeback_hit 0
Core_0_L1I_writeback_miss 0
Core_0_L1I_prefetch_requested 0
Core_0_L1I_prefetch_dropped 0
Core_0_L1I_prefetch_issued 0
Core_0_L1I_prefetch_filled 0
Core_0_L1I_prefetch_useful 0
Core_0_L1I_prefetch_useless 0
Core_0_L1I_prefetch_late 0
Core_0_L1I_average_miss_latency -nan

Core_0_L1I_rq_access 50000124
Core_0_L1I_rq_forward 0
Core_0_L1I_rq_merged 39338961
Core_0_L1I_rq_to_cache 10661163
Core_0_L1I_rq_full 0

Core_0_L1I_wq_access 0
Core_0_L1I_wq_forward 0
Core_0_L1I_wq_merged 0
Core_0_L1I_wq_to_cache 0
Core_0_L1I_wq_full 0

Core_0_L1I_pq_access 0
Core_0_L1I_pq_forward 0
Core_0_L1I_pq_merged 0
Core_0_L1I_pq_to_cache 0
Core_0_L1I_pq_full 0

Core_0_L1I_acc_epochs 135090
Core_0_L1I_acc_level_0 135090
Core_0_L1I_acc_level_1 0
Core_0_L1I_acc_level_2 0
Core_0_L1I_acc_level_3 0
Core_0_L1I_acc_level_4 0
Core_0_L1I_acc_level_5 0
Core_0_L1I_acc_level_6 0
Core_0_L1I_acc_level_7 0
Core_0_L1I_acc_level_8 0
Core_0_L1I_acc_level_9 0

Core_0_L2C_total_access 5433243
Core_0_L2C_total_hit 4534643
Core_0_L2C_total_miss 898600
Core_0_L2C_loads 1357465
Core_0_L2C_load_hit 1311901
Core_0_L2C_load_miss 45564
Core_0_L2C_RFOs 396
Core_0_L2C_RFO_hit 320
Core_0_L2C_RFO_miss 76
Core_0_L2C_prefetches 4072158
Core_0_L2C_prefetch_hit 3219198
Core_0_L2C_prefetch_miss 852960
Core_0_L2C_writebacks 3224
Core_0_L2C_writeback_hit 3224
Core_0_L2C_writeback_miss 0
Core_0_L2C_prefetch_requested 5923952
Core_0_L2C_prefetch_dropped 0
Core_0_L2C_prefetch_issued 5923952
Core_0_L2C_prefetch_filled 1029276
Core_0_L2C_prefetch_useful 1016298
Core_0_L2C_prefetch_useless 12900
Core_0_L2C_prefetch_late 26133
Core_0_L2C_average_miss_latency 107.44627

Core_0_L2C_rq_access 1357861
Core_0_L2C_rq_forward 0
Core_0_L2C_rq_merged 0
Core_0_L2C_rq_to_cache 1357861
Core_0_L2C_rq_full 0

Core_0_L2C_wq_access 3224
Core_0_L2C_wq_forward 0
Core_0_L2C_wq_merged 0
Core_0_L2C_wq_to_cache 3224
Core_0_L2C_wq_full 0

Core_0_L2C_pq_access 5923952
Core_0_L2C_pq_forward 0
Core_0_L2C_pq_merged 83132
Core_0_L2C_pq_to_cache 5840820
Core_0_L2C_pq_full 0

Core_0_L2C_acc_epochs 135090
Core_0_L2C_acc_level_0 115
Core_0_L2C_acc_level_1 22
Core_0_L2C_acc_level_2 60
Core_0_L2C_acc_level_3 133
Core_0_L2C_acc_level_4 895
Core_0_L2C_acc_level_5 1995
Core_0_L2C_acc_level_6 3281
Core_0_L2C_acc_level_7 5258
Core_0_L2C_acc_level_8 12934
Core_0_L2C_acc_level_9 110397

Core_0_LLC_total_access 899865
Core_0_LLC_total_hit 2361
Core_0_LLC_total_miss 897504
Core_0_LLC_loads 19552
Core_0_LLC_load_hit 219
Core_0_LLC_load_miss 19333
Core_0_LLC_RFOs 6
Core_0_LLC_RFO_hit 0
Core_0_LLC_RFO_miss 6
Core_0_LLC_prefetches 879042
Core_0_LLC_prefetch_hit 1866
Core_0_LLC_prefetch_miss 877176
Core_0_LLC_writebacks 1265
Core_0_LLC_writeback_hit 276
Core_0_LLC_writeback_miss 989
Core_0_LLC_prefetch_requested 0
Core_0_LLC_prefetch_dropped 0
Core_0_LLC_prefetch_issued 0
Core_0_LLC_prefetch_filled 1052972
Core_0_LLC_prefetch_useful 183
Core_0_LLC_prefetch_useless 1023521
Core_0_LLC_prefetch_late 0
Core_0_LLC_average_miss_latency 78.91746

Core_0_LLC_rq_access 19558
Core_0_LLC_rq_forward 0
Core_0_LLC_rq_merged 0
Core_0_LLC_rq_to_cache 19558
Core_0_LLC_rq_full 0

Core_0_LLC_wq_access 1265
Core_0_LLC_wq_forward 0
Core_0_LLC_wq_merged 0
Core_0_LLC_wq_to_cache 1265
Core_0_LLC_wq_full 0

Core_0_LLC_pq_access 1055409
Core_0_LLC_pq_forward 0
Core_0_LLC_pq_merged 0
Core_0_LLC_pq_to_cache 1055409
Core_0_LLC_pq_full 0

Core_0_LLC_acc_epochs 136561
Core_0_LLC_acc_level_0 136425
Core_0_LLC_acc_level_1 102
Core_0_LLC_acc_level_2 26
Core_0_LLC_acc_level_3 3
Core_0_LLC_acc_level_4 0
Core_0_LLC_acc_level_5 5
Core_0_LLC_acc_level_6 0
Core_0_LLC_acc_level_7 0
Core_0_LLC_acc_level_8 0
Core_0_LLC_acc_level_9 0

Core_0_major_page_fault 0
Core_0_minor_page_fault 18216

scooby_st_lookup 1629241
scooby_st_hit 1610594
scooby_st_evict 18583
scooby_st_insert 18647
scooby_st_streaming 0

scooby_predict_called 1629241
scooby_predict_out_of_bounds 39346
scooby_predict_action_1 1442903
scooby_predict_issue_action_1 1382454
scooby_predict_hit_action_1 60449
scooby_predict_out_of_bounds_action_1 30597
scooby_predict_action_3 14684
scooby_predict_issue_action_3 14589
scooby_predict_hit_action_3 95
scooby_predict_out_of_bounds_action_3 1223
scooby_predict_action_4 2916
scooby_predict_issue_action_4 2823
scooby_predict_hit_action_4 93
scooby_predict_out_of_bounds_action_4 203
scooby_predict_action_5 521
scooby_predict_issue_action_5 492
scooby_predict_hit_action_5 29
scooby_predict_out_of_bounds_action_5 64
scooby_predict_action_10 445
scooby_predict_issue_action_10 392
scooby_predict_hit_action_10 53
scooby_predict_out_of_bounds_action_10 139
scooby_predict_action_11 385
scooby_predict_issue_action_11 364
scooby_predict_hit_action_11 21
scooby_predict_out_of_bounds_action_11 136
scooby_predict_action_12 433
scooby_predict_issue_action_12 388
scooby_predict_hit_action_12 45
scooby_predict_out_of_bounds_action_12 131
scooby_predict_action_22 315
scooby_predict_issue_action_22 293
scooby_predict_hit_action_22 22
scooby_predict_out_of_bounds_action_22 212
scooby_predict_action_23 301
scooby_predict_issue_action_23 281
scooby_predict_hit_action_23 20
scooby_predict_out_of_bounds_action_23 206
scooby_predict_action_30 202
scooby_predict_issue_action_30 185
scooby_predict_hit_action_30 17
scooby_predict_out_of_bounds_action_30 280
scooby_predict_action_32 159
scooby_predict_issue_action_32 151
scooby_predict_hit_action_32 8
scooby_predict_out_of_bounds_action_32 275
scooby_predict_action_-1 123145
scooby_predict_issue_action_-1 110261
scooby_predict_hit_action_-1 12884
scooby_predict_out_of_bounds_action_-1 5819
scooby_predict_action_-3 566
scooby_predict_issue_action_-3 434
scooby_predict_hit_action_-3 132
scooby_predict_out_of_bounds_action_-3 22
scooby_predict_action_-6 538
scooby_predict_issue_action_-6 419
scooby_predict_hit_action_-6 119
scooby_predict_out_of_bounds_action_-6 39
scooby_predict_action_0 2382
scooby_predict_issue_action_0 0
scooby_predict_hit_action_0 0
scooby_predict_out_of_bounds_action_0 0
scooby_predict_multi_deg_called 1017451
scooby_predict_predicted 5923952
scooby_predict_multi_deg 4410426
scooby_predict_multi_deg_2 996938
scooby_predict_multi_deg_3 930224
scooby_predict_multi_deg_4 912658
scooby_predict_multi_deg_5 793490
scooby_predict_multi_deg_6 777116
scooby_predict_multi_deg_7 0
scooby_predict_multi_deg_8 0
scooby_predict_multi_deg_9 0
scooby_predict_multi_deg_10 0
scooby_predict_multi_deg_11 0
scooby_predict_multi_deg_12 0
scooby_predict_multi_deg_13 0
scooby_predict_multi_deg_14 0
scooby_predict_multi_deg_15 0
scooby_predict_multi_deg_16 0

scooby_selected_deg_1 496075
scooby_selected_deg_2 51248
scooby_selected_deg_3 0
scooby_selected_deg_4 108091
scooby_selected_deg_5 0
scooby_selected_deg_6 858112
scooby_selected_deg_7 0
scooby_selected_deg_8 0
scooby_selected_deg_9 0
scooby_selected_deg_10 0
scooby_selected_deg_11 0
scooby_selected_deg_12 0
scooby_selected_deg_13 0
scooby_selected_deg_14 0
scooby_selected_deg_15 0
scooby_selected_deg_16 0

scooby_state_40f7c0|31|1 13657,0,2,1,1,1,2,0,3,0,1,1,3,0,4,13676,
scooby_state_40f7c0|4|1 13650,1,3,0,5,3,1,0,5,5,0,1,2,0,0,13676,
scooby_state_40f7c0|16|1 13639,0,2,0,1,1,0,1,1,2,0,2,2,4,2,13657,
scooby_state_40f7c0|20|1 13619,3,1,4,2,1,1,2,0,3,2,3,2,1,0,13644,
scooby_state_40f7c0|8|1 13607,2,0,4,2,2,4,1,1,1,2,0,5,3,1,13635,
scooby_state_40f7c0|12|1 13614,1,1,4,0,3,0,0,0,1,2,1,3,1,2,13633,
scooby_state_40f7c0|61|1 13606,1,1,3,1,1,0,1,1,0,2,2,0,1,2,13622,
scooby_state_40f7c0|7|1 13588,1,3,1,1,1,5,3,4,2,2,3,2,1,2,13619,
scooby_state_40f7c0|57|1 13590,2,6,2,2,3,3,1,3,2,0,4,1,0,0,13619,
scooby_state_40f7c0|49|1 13600,3,1,0,1,2,1,1,0,3,1,0,0,1,3,13617,
scooby_state_40f7c0|9|1 13590,1,1,2,3,2,2,1,3,1,0,1,2,1,1,13611,
scooby_state_40f7c0|34|1 13584,2,3,0,1,0,6,1,4,1,2,3,0,0,3,13610,
scooby_state_40f7c0|19|1 13582,3,1,5,1,1,0,3,2,3,1,1,2,3,1,13609,
scooby_state_40f7c0|1|1 13579,2,4,1,2,0,3,0,1,4,1,1,3,3,2,13606,
scooby_state_40f7c0|53|1 13583,0,3,3,2,0,1,1,1,3,2,0,0,2,2,13603,
scooby_state_40f7c0|39|1 13584,0,3,2,1,0,0,2,1,1,0,4,0,3,2,13603,
scooby_state_40f7c0|11|1 13576,1,5,1,3,2,0,3,2,1,0,2,1,1,0,13598,
scooby_state_40f7c0|15|1 13562,2,3,2,3,0,2,2,3,1,4,1,3,1,2,13591,
scooby_state_40f7c0|42|1 13563,1,2,3,2,1,0,2,1,2,2,0,2,2,5,13588,
scooby_state_40f7c0|22|1 13564,4,0,3,0,1,1,2,1,2,1,3,1,2,2,13587,
scooby_state_40f7c0|23|1 13561,1,1,1,4,2,2,2,2,3,2,0,2,2,1,13586,
scooby_state_40f7c0|46|1 13556,2,2,1,1,4,4,1,1,1,2,2,2,0,2,13581,
scooby_state_40f7c0|38|1 13549,1,6,1,3,0,1,2,2,3,3,2,0,1,1,13575,
scooby_state_40f7c0|36|1 13561,0,1,0,0,1,0,2,2,1,1,1,1,2,2,13575,
scooby_state_40f7c0|35|1 13542,6,1,0,0,0,3,0,3,4,3,0,4,2,3,13571,
scooby_state_40f7c0|18|1 13539,3,1,3,1,1,2,6,4,0,3,1,3,3,0,13570,
scooby_state_40f7c0|5|1 13549,2,2,0,3,0,1,2,4,0,3,1,0,1,2,13570,
scooby_state_40f7c0|60|1 13554,1,2,0,2,2,3,1,0,2,0,1,0,0,1,13569,
scooby_state_40f7c0|27|1 13540,1,2,1,4,2,1,3,2,2,1,3,1,2,3,13568,
scooby_state_40f7c0|6|1 13546,2,4,0,2,3,1,0,1,0,1,4,2,1,0,13567,
scooby_state_40f7c0|37|1 13538,3,5,1,2,0,3,2,2,1,0,1,2,1,2,13563,
scooby_state_40f7c0|2|1 13535,3,2,4,1,1,2,3,2,1,1,3,0,3,0,13561,
scooby_state_40f7c0|29|1 13528,1,4,0,2,3,1,3,2,2,2,3,4,2,0,13557,
scooby_state_40f7c0|45|1 13529,5,3,2,2,3,2,1,2,1,1,1,2,2,0,13556,
scooby_state_40f7c0|0|0 13537,2,0,2,1,0,2,1,2,1,1,3,1,1,1,13555,
scooby_state_40f7c0|41|1 13530,0,0,0,3,0,2,0,3,1,1,5,2,3,4,13554,
scooby_state_40f7c0|63|1 13525,1,1,0,3,1,0,2,1,2,2,3,2,3,3,13549,
scooby_state_40f7c0|43|1 13529,3,1,0,1,1,2,2,2,2,0,0,2,4,0,13549,
scooby_state_40f7c0|14|1 13516,3,1,2,2,0,2,3,2,3,0,3,1,3,3,13544,
scooby_state_40f7c0|30|1 13522,3,2,2,1,1,1,0,2,1,1,2,2,0,2,13542,
scooby_state_40f7c0|3|1 13520,2,1,3,2,1,1,2,1,3,0,3,1,1,1,13542,
scooby_state_40f7c0|44|1 13519,1,0,1,0,3,1,2,2,1,1,3,2,0,3,13539,
scooby_state_40f7c0|26|1 13520,0,2,0,2,2,3,2,1,0,1,0,3,1,2,13539,
scooby_state_40f7c0|13|1 13516,0,1,2,5,1,3,1,1,2,1,2,0,2,2,13539,
scooby_state_40f7c0|55|1 13511,2,0,4,2,2,2,0,3,1,3,1,3,2,1,13537,
scooby_state_40f7c0|51|1 13513,2,0,2,1,0,0,2,1,2,2,3,1,4,3,13536,
scooby_state_40f7c0|56|1 13518,0,1,3,1,1,1,0,3,3,0,0,3,2,0,13536,
scooby_state_40f7c0|58|1 13512,1,1,3,1,3,3,1,0,1,1,0,1,0,3,13531,
scooby_state_40f7c0|17|1 13509,1,2,1,3,3,0,1,2,1,1,3,1,2,1,13531,
scooby_state_40f7c0|28|1 13506,2,3,2,4,3,0,1,0,2,1,3,1,0,0,13528,
scooby_state_40f7c0|25|1 13495,3,3,2,0,1,1,3,3,1,0,3,1,3,1,13520,
scooby_state_40f7c0|32|1 13496,3,2,0,2,1,0,3,2,1,2,2,1,0,4,13519,
scooby_state_40f7c0|47|1 13495,2,2,3,0,0,1,5,1,0,3,1,2,1,1,13517,
scooby_state_40f7c0|21|1 13492,1,0,3,4,1,2,1,3,1,1,1,3,4,0,13517,
scooby_state_40f7c0|48|1 13485,1,2,2,1,0,0,2,2,2,1,3,3,2,2,13508,
scooby_state_40f7c0|62|1 13483,4,1,1,1,1,2,0,1,3,0,3,0,2,2,13504,
scooby_state_40f7c0|50|1 13494,0,1,2,1,1,0,1,0,0,1,0,2,0,0,13503,
scooby_state_40f7c0|40|1 13474,1,1,1,1,2,2,3,4,0,5,3,0,1,1,13499,
scooby_state_40f7c0|24|1 13466,2,3,3,2,1,3,3,1,3,1,3,4,1,3,13499,
scooby_state_40f7c0|33|1 13478,1,0,2,2,1,1,2,1,1,1,1,3,3,1,13498,
scooby_state_40f7c0|54|1 13473,1,2,6,2,2,0,1,2,0,2,2,1,1,3,13498,
scooby_state_40f7c0|10|1 13472,2,2,2,1,3,1,3,2,6,0,2,1,0,0,13497,
scooby_state_40f7c0|59|1 13474,0,4,1,1,2,4,1,3,0,5,1,0,0,0,13496,
scooby_state_40f7c0|52|1 13468,3,1,2,4,0,3,0,1,2,2,0,0,1,0,13487,
scooby_state_40f886|62|-1 2,1,4,1,2,7,1,4,2,0,1,7639,1,1,0,7666,
scooby_state_40f70a|6|1 5794,1,0,1,2,0,0,1,1,0,2,0,1,0,1,5804,
scooby_state_40f7b9|33|-1 5790,1,0,0,2,2,0,0,1,0,3,1,2,1,0,5803,
scooby_state_40f7b9|41|-1 5796,1,0,0,2,0,2,1,0,0,0,1,0,0,0,5803,
scooby_state_40f7b9|58|-2 5791,1,0,1,2,2,1,0,2,0,0,2,0,0,1,5803,
scooby_state_40f7b9|59|-3 5726,0,0,0,2,0,0,0,1,2,0,0,1,0,0,5732,
scooby_state_40f7b9|6|-1 5575,1,0,2,0,1,1,2,1,2,1,1,0,0,0,5587,
scooby_state_40f7b9|62|-1 5378,2,0,1,0,3,1,1,0,0,0,1,1,0,1,5389,
scooby_state_40f7b9|4|1 3888,0,0,1,0,0,0,0,0,0,0,2,0,1,0,3892,
scooby_state_40f70a|60|1 3863,1,0,0,2,0,1,0,1,1,0,0,1,0,0,3870,
scooby_state_40f886|52|-1 1,1,1,2,0,1,1,0,3,1,0,3858,0,1,0,3870,
scooby_state_40f7b9|9|1 3864,0,1,0,0,1,0,0,0,0,0,0,1,0,3,3870,
scooby_state_40f7b9|18|-1 3866,1,0,0,0,0,0,0,1,0,1,0,0,1,0,3870,
scooby_state_40f70a|11|1 3866,1,1,0,0,1,0,0,0,0,0,0,1,0,0,3870,
scooby_state_40f886|42|-1 0,2,1,1,0,1,3,0,1,1,0,3855,3,0,1,3869,
scooby_state_40f7b9|5|1 3860,3,0,0,0,0,1,1,1,0,1,0,0,1,1,3869,
scooby_state_40f7b9|61|-1 3862,1,0,2,1,1,0,1,0,0,0,0,0,0,1,3869,
scooby_state_40f886|3|-1 1,1,2,2,1,2,2,0,2,0,0,3853,2,1,0,3869,
scooby_state_40f886|0|-1 1,1,0,2,0,0,3,0,1,2,1,3857,0,0,1,3869,
scooby_state_40f7b9|10|4 3861,2,1,0,0,0,0,1,2,0,1,0,0,0,1,3869,
scooby_state_40f7b9|39|-1 3860,2,0,1,0,1,1,1,0,1,0,0,0,0,2,3869,
scooby_state_40f886|40|-1 0,3,0,1,1,0,2,2,0,3,0,3852,1,3,1,3869,
scooby_state_40f70a|45|1 3859,2,0,0,1,1,3,1,1,0,1,0,0,0,0,3869,
scooby_state_40f7b9|19|-1 3860,3,0,0,0,1,0,0,1,1,1,1,0,1,0,3869,
scooby_state_40f886|29|-1 2,1,1,0,1,1,2,0,2,1,1,3857,0,0,0,3869,
scooby_state_40f70a|56|1 3863,1,1,0,0,0,1,0,0,2,1,0,0,0,0,3869,
scooby_state_40f7b9|34|-1 3861,1,1,1,0,0,2,0,0,0,1,0,1,0,1,3869,
scooby_state_40f886|35|-1 1,0,3,1,3,0,3,0,0,3,2,3853,0,0,0,3869,
scooby_state_40f7b9|36|-1 3858,2,2,0,0,4,0,0,0,2,0,0,0,0,1,3869,
scooby_state_40f7b9|15|2 3856,4,0,1,0,2,2,2,0,1,0,0,0,1,0,3869,
scooby_state_40f886|8|-1 1,1,1,4,0,2,1,2,1,2,0,3851,0,1,2,3869,
scooby_state_40f7b9|42|-1 3861,2,0,0,1,0,0,1,0,1,1,1,0,0,0,3868,
scooby_state_40f7b9|63|1 3862,0,0,1,0,0,0,0,1,0,2,1,1,0,0,3868,
scooby_state_40f7b9|48|-1 3853,1,1,1,3,1,1,1,0,1,0,1,1,1,2,3868,
scooby_state_40f7b9|12|-1 3865,1,0,0,0,0,0,0,0,0,0,0,2,0,0,3868,
scooby_state_40f7b9|23|-3 3861,0,0,1,1,1,0,1,0,0,1,0,1,1,0,3868,
scooby_state_40f7b9|43|-1 3861,1,0,0,1,0,1,0,0,1,0,2,0,1,0,3868,
scooby_state_40f7b9|2|-1 3857,0,1,0,1,0,1,1,1,3,1,0,0,1,1,3868,
scooby_state_40f7b9|7|-1 3864,0,0,0,0,0,0,2,0,0,1,0,0,1,0,3868,
scooby_state_40f886|37|-1 1,3,1,1,0,1,2,0,1,2,0,3855,0,0,1,3868,
scooby_state_40f7b9|5|-1 3862,2,0,0,0,1,0,1,0,0,0,0,1,0,1,3868,
scooby_state_40f7b9|40|-1 3862,2,0,0,0,0,1,1,0,1,0,0,1,0,0,3868,
scooby_state_40f886|13|-1 1,2,2,0,2,1,0,2,0,1,1,3856,0,0,0,3868,
scooby_state_40f886|57|-1 2,1,1,1,1,3,2,1,2,2,1,3850,0,0,0,3867,
scooby_state_40f7b9|20|-2 3079,0,0,0,1,0,0,0,1,1,0,0,0,0,1,3083,
scooby_state_40f70a|3|1 2908,0,0,1,0,1,0,0,0,0,0,2,1,0,0,2913,
scooby_state_40f886|1|-1 1,1,0,0,2,1,1,2,0,0,1,2881,1,0,0,2891,
scooby_state_40f70f|62|1 2612,0,0,1,0,0,1,1,0,0,0,0,1,0,1,2617,
scooby_state_40f70f|32|1 2580,0,0,1,0,0,1,2,0,0,0,0,2,0,2,2588,
scooby_state_40f70f|47|1 2571,1,0,0,0,0,0,1,2,1,1,0,2,0,0,2579,
scooby_state_40f70f|58|1 2575,1,0,0,0,0,1,0,0,0,0,0,0,0,0,2577,
scooby_state_40f70f|17|1 2569,2,1,0,0,0,0,0,0,1,0,0,0,1,0,2574,
scooby_state_40f70f|28|1 2568,0,0,1,0,0,1,0,0,0,0,1,0,0,1,2572,
scooby_state_40f70f|50|1 2564,0,0,0,0,1,0,1,0,1,0,0,1,0,0,2568,
scooby_state_40f70f|24|1 2559,0,0,0,0,0,1,0,0,1,1,0,0,1,1,2564,
scooby_state_40f70f|1|1 2560,1,1,0,0,1,1,0,0,0,0,0,0,0,0,2564,
scooby_state_40f70f|54|1 2560,0,0,0,0,0,1,0,1,0,0,0,0,1,0,2563,
scooby_state_40f70f|13|1 2558,0,0,0,1,0,0,0,0,1,0,0,1,1,1,2563,
scooby_state_40f70f|30|1 2555,1,0,0,1,1,0,0,0,1,0,0,0,0,0,2559,
scooby_state_40f70f|5|1 2543,1,1,1,1,1,0,0,1,1,0,0,2,0,0,2552,
scooby_state_40f70f|56|1 2540,0,0,0,2,0,0,0,0,1,0,0,0,1,0,2544,
scooby_state_40f70f|10|1 2539,0,0,0,1,1,0,1,0,1,1,0,0,0,0,2544,
scooby_state_40f70f|21|1 2538,1,0,0,1,0,0,1,0,0,0,0,0,1,1,2543,
scooby_state_40f70f|2|1 2538,0,0,0,0,0,0,2,1,1,0,0,0,1,0,2543,
scooby_state_40f70f|40|1 2538,0,1,0,0,0,0,1,0,0,0,0,0,0,0,2540,
scooby_state_40f70f|52|1 2533,0,2,0,0,0,1,0,0,0,0,0,1,0,0,2537,
scooby_state_40f70f|35|1 2532,1,0,0,1,0,0,0,0,0,0,2,0,0,1,2537,
scooby_state_40f70f|9|1 2534,0,0,1,0,0,1,0,0,0,0,0,0,0,0,2536,
scooby_state_40f70f|14|1 2531,0,0,0,0,1,0,0,1,0,0,0,0,0,0,2533,
scooby_state_40f70f|15|1 2527,1,0,0,1,0,0,0,2,0,0,0,1,0,0,2532,
scooby_state_40f70f|43|1 2525,0,0,0,0,0,0,0,0,0,1,1,0,2,2,2531,
scooby_state_40f70f|45|1 2525,0,0,0,0,0,1,1,0,0,1,1,1,0,0,2530,
scooby_state_40f70f|46|1 2525,0,0,0,1,0,0,0,0,1,0,1,0,0,1,2529,
scooby_state_40f70f|3|1 2522,0,0,0,0,0,0,1,0,0,1,0,1,1,1,2527,
scooby_state_40f70f|33|1 2517,2,2,1,1,0,1,1,0,0,1,0,1,0,0,2527,
scooby_state_40f70f|60|1 2517,0,0,0,2,0,0,0,0,0,0,2,1,0,0,2522,
scooby_state_40f70f|59|1 2512,1,0,0,4,1,1,1,0,0,1,0,0,0,0,2521,
scooby_state_40f70f|51|1 2514,0,0,1,0,0,0,0,1,1,0,0,2,0,1,2520,
scooby_state_40f70f|41|1 2505,1,1,1,0,0,2,0,0,1,0,0,0,0,0,2511,
scooby_state_40f70f|39|1 2506,1,0,0,0,0,0,0,0,0,0,0,2,0,0,2509,
scooby_state_40f70f|26|1 2505,0,0,0,0,1,0,0,0,1,0,0,1,0,0,2508,
scooby_state_40f70f|18|1 2502,1,1,1,0,0,1,0,0,0,2,0,0,0,0,2508,
scooby_state_40f70f|55|1 2504,0,0,0,0,0,1,0,0,0,0,0,0,0,0,2505,
scooby_state_40f70f|25|1 2496,0,2,1,0,0,0,2,0,1,1,0,1,1,0,2505,
scooby_state_40f70f|7|1 2496,0,1,1,1,2,0,1,0,0,0,1,0,0,1,2504,
scooby_state_40f70f|8|1 2495,0,0,0,0,0,0,2,0,1,1,0,0,0,1,2500,
scooby_state_40f70f|29|1 2496,0,0,0,0,1,0,0,0,2,0,0,0,0,0,2499,
scooby_state_40f70f|63|1 2495,0,0,0,0,0,0,1,0,0,0,0,1,1,1,2499,
scooby_state_40f70f|6|1 2488,1,1,1,0,0,0,0,0,1,3,0,0,0,2,2497,
scooby_state_40f70f|20|1 2494,1,0,0,0,0,0,0,0,0,1,0,1,0,0,2497,
scooby_state_40f70f|38|1 2491,0,0,1,0,0,0,0,0,0,2,0,0,1,1,2496,
scooby_state_40f70f|19|1 2493,0,0,0,1,0,0,0,0,0,1,0,0,0,0,2495,
scooby_state_40f70f|11|1 2488,1,0,0,0,1,0,0,1,0,0,4,0,0,0,2495,
scooby_state_40f70f|12|1 2486,1,0,0,0,0,0,1,0,0,0,1,0,1,0,2490,
scooby_state_40f70f|16|1 2484,1,0,1,0,0,1,0,0,0,1,0,1,0,1,2490,
scooby_state_40f70f|48|1 2483,1,0,0,0,0,0,3,1,0,0,0,0,1,0,2489,
scooby_state_40f70f|27|1 2487,0,0,0,0,0,0,0,1,0,0,0,0,1,0,2489,
scooby_state_40f70f|23|1 2480,0,0,2,1,0,2,0,0,0,0,1,0,0,0,2486,
scooby_state_40f70f|36|1 2475,0,2,0,1,2,1,0,0,0,1,0,0,0,1,2483,
scooby_state_40f70f|61|1 2479,0,1,0,0,0,0,1,0,0,0,0,0,1,0,2482,
scooby_state_40f70f|37|1 2469,0,0,1,0,0,1,0,0,0,0,2,0,0,2,2475,
scooby_state_40f70f|31|1 2460,1,0,0,1,0,1,0,1,0,0,0,0,0,0,2464,
scooby_state_40f70f|42|1 2460,1,0,0,0,0,0,1,0,0,0,0,0,0,0,2462,
scooby_state_40f70f|22|1 2455,0,1,0,0,0,0,0,0,0,0,2,0,1,1,2460,
scooby_state_40f70f|44|1 2452,1,0,0,0,1,1,1,0,0,0,0,1,0,1,2458,
scooby_state_40f70f|49|1 2453,0,0,0,0,1,0,1,0,0,1,0,0,0,0,2456,
scooby_state_40f70f|34|1 2452,0,0,0,1,0,0,1,0,0,0,0,0,1,0,2455,
scooby_state_40f70f|57|1 2448,0,0,0,0,0,0,0,0,0,0,1,1,0,0,2450,
scooby_state_40f70f|53|1 2420,0,0,0,3,0,0,0,1,0,0,0,0,1,0,2425,
scooby_state_40f70f|0|0 2417,0,0,0,0,0,0,0,0,0,0,0,1,0,0,2418,
scooby_state_40f70f|4|1 2407,0,1,0,0,0,1,0,0,0,0,0,0,1,1,2411,
scooby_state_40f7b9|20|-1 2216,0,0,0,0,0,1,0,0,0,1,1,1,0,0,2220,
scooby_state_40f7b9|63|15 1948,0,1,0,0,1,1,0,1,0,0,0,0,1,0,1953,
scooby_state_40f70a|59|1 1935,0,0,0,0,1,0,0,1,0,0,0,0,0,0,1937,
scooby_state_40f70a|39|1 1932,0,1,0,0,0,1,0,0,0,1,0,0,0,1,1936,
scooby_state_40f7b9|60|1 1934,0,1,0,0,0,0,0,0,0,0,0,0,0,0,1935,
scooby_state_40f7b9|0|-39 1933,0,1,0,0,0,0,1,0,0,0,0,0,0,0,1935,
scooby_state_40f7b9|43|-2 1932,1,1,0,0,0,0,0,0,0,0,0,1,0,0,1935,
scooby_state_40f7b9|10|1 1934,0,0,0,1,0,0,0,0,0,0,0,0,0,0,1935,
scooby_state_40f7b9|7|0 1932,0,1,0,0,0,0,0,0,1,1,0,0,0,0,1935,
scooby_state_40f7b9|13|-39 1931,1,0,1,0,0,0,0,0,1,0,0,0,0,1,1935,
scooby_state_a52679|46|-1 1307,46,45,45,45,46,47,30,29,32,30,45,47,45,96,1935,
scooby_state_40f70a|32|1 1933,0,1,0,0,0,0,0,0,0,0,0,1,0,0,1935,
scooby_state_40f7b9|19|-8 1932,0,0,1,1,0,1,0,0,0,0,0,0,0,0,1935,
scooby_state_40f70a|2|2 1934,0,0,0,0,0,0,0,0,0,0,0,0,1,0,1935,
scooby_state_40f70a|1|1 1933,0,0,0,0,1,1,0,0,0,0,0,0,0,0,1935,
scooby_state_40f797|40|0 952,57,63,71,61,62,65,60,53,32,35,74,62,59,229,1935,
scooby_state_40f7b9|30|-2 1933,0,0,0,1,0,0,1,0,0,0,0,0,0,0,1935,
scooby_state_40f7b9|21|-8 1931,2,0,0,0,1,0,0,0,0,1,0,0,0,0,1935,
scooby_state_40f7b9|7|1 1932,0,0,0,0,2,0,1,0,0,0,0,0,0,0,1935,
scooby_state_40f7b9|53|-4 1933,0,0,0,0,0,0,0,0,0,0,0,0,2,0,1935,
scooby_state_40f7b9|53|35 1924,1,0,0,1,2,0,1,0,3,0,3,0,0,0,1935,
scooby_state_40f7b9|14|-4 1932,0,0,1,0,0,1,0,0,0,0,0,0,1,0,1935,
scooby_state_40f886|32|-1 1,2,1,1,0,1,1,1,0,1,0,1925,0,1,0,1935,
scooby_state_40f7b9|34|25 1935,0,0,0,0,0,0,0,0,0,0,0,0,0,0,1935,
scooby_state_40f7b9|44|27 1928,0,1,2,1,0,0,0,1,0,0,1,0,1,0,1935,
scooby_state_40f7b9|57|1 1932,0,0,0,0,0,0,1,0,1,1,0,0,0,0,1935,
scooby_state_40f7b9|12|1 1926,1,0,0,0,1,1,3,0,2,0,1,0,0,0,1935,
scooby_state_40f70a|61|1 1934,0,0,0,0,0,0,0,0,0,1,0,0,0,0,1935,
scooby_state_40f7b9|4|-1 1931,0,1,0,1,0,0,0,1,1,0,0,0,0,0,1935,
scooby_state_40f7b9|38|19 1931,0,0,0,0,0,1,1,0,0,0,0,0,0,2,1935,
scooby_state_40f886|45|-1 1,1,0,1,0,1,0,0,1,0,0,1930,0,0,0,1935,
scooby_state_40f7b9|16|-18 1934,0,0,0,0,0,1,0,0,0,0,0,0,0,0,1935,
scooby_state_40f7b9|61|1 1932,0,0,0,0,0,1,0,0,0,2,0,0,0,0,1935,
scooby_state_40f886|60|-1 0,1,0,0,1,1,0,2,0,2,0,1926,1,1,0,1935,
scooby_state_40f7b9|35|-4 1933,1,0,0,1,0,0,0,0,0,0,0,0,0,0,1935,
scooby_state_40f7b9|35|-1 1931,0,0,0,0,0,0,0,2,0,1,0,0,1,0,1935,
scooby_state_40f7b9|33|-2 1929,2,0,0,0,2,1,0,0,0,0,0,1,0,0,1935,
scooby_state_40f70a|8|1 1932,0,0,0,1,0,0,0,1,0,0,0,0,1,0,1935,
scooby_state_40f886|12|-1 0,2,0,1,1,0,1,0,0,1,0,1927,0,0,2,1935,
scooby_state_40f7b9|58|1 1933,0,1,0,0,0,0,0,1,0,0,0,0,0,0,1935,
scooby_state_40f7b9|11|1 1932,0,0,1,1,0,0,0,0,0,0,1,0,0,0,1935,
scooby_state_40f886|7|-2 2,1,0,1,1,0,0,1,0,0,0,1928,1,0,0,1935,
scooby_state_40f7b9|62|1 1931,0,0,1,0,2,0,0,1,0,0,0,0,0,0,1935,
scooby_state_40f7b9|0|-3 1935,0,0,0,0,0,0,0,0,0,0,0,0,0,0,1935,
scooby_state_40f7b9|63|2 1933,0,0,1,0,1,0,0,0,0,0,0,0,0,0,1935,
scooby_state_40f7b9|46|-6 1933,0,0,0,1,0,0,0,0,0,1,0,0,0,0,1935,
scooby_state_40f70a|13|1 1931,3,0,0,0,0,0,0,0,0,1,0,0,0,0,1935,
scooby_state_40f7b9|29|-1 1927,1,0,1,0,1,2,0,0,1,1,0,1,0,0,1935,
scooby_state_40f70a|0|0 1928,0,0,1,0,2,0,1,1,1,0,0,1,0,0,1935,
scooby_state_a4c416|61|0 182,584,46,35,34,35,34,34,34,34,34,39,55,55,700,1935,
scooby_state_40f7b9|3|1 1932,0,0,1,0,0,0,0,1,0,0,0,0,1,0,1935,
scooby_state_40f7b9|28|14 1930,0,0,0,1,0,0,0,0,0,0,0,1,1,2,1935,
scooby_state_40f7b9|26|-2 1930,0,0,0,0,0,0,0,1,1,0,1,1,1,0,1935,
scooby_state_40f7b9|10|-2 1935,0,0,0,0,0,0,0,0,0,0,0,0,0,0,1935,
scooby_state_40f70a|17|1 1932,0,1,0,0,0,0,0,0,0,1,1,0,0,0,1935,
scooby_state_40f7b9|9|-2 1932,1,0,0,0,0,0,1,0,0,0,0,1,0,0,1935,
scooby_state_40f7b9|31|-1 1930,1,0,0,0,0,1,0,1,2,0,0,0,0,0,1935,
scooby_state_40f886|30|-1 0,1,1,1,1,1,2,0,1,1,0,1925,0,1,0,1935,
scooby_state_40f7b9|31|-2 1931,1,0,0,0,0,0,0,0,1,0,1,1,0,0,1935,
scooby_state_40f7b9|2|1 1933,0,0,0,0,0,0,0,0,0,1,0,1,0,0,1935,
scooby_state_40f7b9|17|2 1931,1,0,0,0,0,0,1,0,0,0,0,1,0,1,1935,
scooby_state_40f7b9|37|-1 1929,1,0,0,1,0,0,1,0,1,0,0,0,0,1,1934,
scooby_state_40f7b9|9|-53 1929,0,0,0,3,0,0,0,0,0,0,2,0,0,0,1934,
scooby_state_40f7b9|52|-4 1931,1,0,0,0,0,0,0,1,0,0,0,0,0,1,1934,
scooby_state_40f70a|36|1 1929,1,1,0,0,0,0,0,1,1,1,0,0,0,0,1934,
scooby_state_40f7b9|15|-1 1931,1,0,0,0,2,0,0,0,0,0,0,0,0,0,1934,
scooby_state_40f7b9|44|-3 1933,1,0,0,0,0,0,0,0,0,0,0,0,0,0,1934,
scooby_state_40f7b9|11|-1 1930,1,1,0,0,0,0,0,0,0,0,1,0,1,0,1934,
scooby_state_40f886|0|-2 0,0,1,1,1,1,0,0,0,0,1,1929,0,0,0,1934,
scooby_state_40f886|11|-1 0,2,1,1,1,0,1,0,0,1,0,1927,0,0,0,1934,
scooby_state_40f7b9|8|-2 1932,0,0,0,0,0,1,0,0,0,0,0,1,0,0,1934,
scooby_state_40f70a|48|1 1922,2,1,0,1,0,1,1,0,0,0,2,3,0,1,1934,
scooby_state_40f886|50|-1 0,1,0,0,1,0,0,2,0,0,0,1930,0,0,0,1934,
scooby_state_40f7b9|10|-1 1934,0,0,0,0,0,0,0,0,0,0,0,0,0,0,1934,
scooby_state_40f7b9|35|-2 1932,1,0,1,0,0,0,0,0,0,0,0,0,0,0,1934,
scooby_state_40f886|25|-1 1,1,1,0,1,0,0,1,0,1,0,1926,2,0,0,1934,
scooby_state_40f886|34|-2 2,1,0,1,0,0,0,0,1,0,0,1927,1,0,1,1934,
scooby_state_40f7b9|47|-1 1932,1,0,0,1,0,0,0,0,0,0,0,0,0,0,1934,
scooby_state_40f886|43|-2 1,1,0,1,1,1,0,0,0,0,0,1929,0,0,0,1934,
scooby_state_40f7b9|8|-1 1929,0,0,0,0,1,0,2,0,0,2,0,0,0,0,1934,
scooby_state_a4c43f|55|1 1396,42,43,42,30,29,28,29,29,30,29,42,42,42,81,1934,
scooby_state_40f7b9|37|-3 1932,0,0,0,0,0,1,0,0,0,0,1,0,0,0,1934,
scooby_state_40f886|10|-1 0,0,1,0,1,0,1,2,1,0,0,1928,0,0,0,1934,
scooby_state_40f886|24|-1 0,1,0,0,1,1,1,0,0,3,0,1927,0,0,0,1934,
scooby_state_40f70a|27|4 1930,0,0,0,1,1,0,1,0,0,0,0,0,0,1,1934,
scooby_state_40f7b9|17|-3 1929,0,1,0,0,0,1,0,2,0,0,0,0,1,0,1934,
scooby_state_40f7b9|55|9 1930,0,0,1,1,0,0,0,0,1,0,0,0,1,0,1934,
scooby_state_40f886|38|-1 1,0,1,0,2,0,1,0,0,0,0,1928,1,0,0,1934,
scooby_state_40f886|54|21 70,0,2,1,0,0,0,0,0,0,0,1861,0,0,0,1934,
scooby_state_40f7b9|44|-2 1930,0,0,0,0,1,0,1,1,0,0,0,0,0,1,1934,
scooby_state_40f7b9|30|6 1929,0,0,0,0,0,0,0,1,0,0,1,1,0,2,1934,
scooby_state_40f7b9|29|28 1930,1,0,0,0,0,0,1,1,0,0,0,0,0,1,1934,
scooby_state_40f7b9|55|-7 1928,0,0,0,0,1,1,1,0,0,0,0,1,1,1,1934,
scooby_state_40f7b9|52|-1 1932,0,0,0,0,0,0,0,0,0,0,0,1,0,1,1934,
scooby_state_40f7b9|57|-1 1928,1,1,0,2,0,0,1,0,1,0,0,0,0,0,1934,
scooby_state_40f70a|30|1 1932,1,0,0,1,0,0,0,0,0,0,0,0,0,0,1934,
scooby_state_40f70a|27|-2 1934,0,0,0,0,0,0,0,0,0,0,0,0,0,0,1934,
scooby_state_40f7b9|17|-1 1934,0,0,0,0,0,0,0,0,0,0,0,0,0,0,1934,
scooby_state_40f886|21|-1 0,1,0,0,1,0,2,0,0,1,0,1929,0,0,0,1934,
scooby_state_40f7b9|3|-2 1932,0,0,0,0,0,0,1,0,0,0,1,0,0,0,1934,
scooby_state_40f886|14|-1 1,2,0,0,1,0,2,1,0,1,0,1926,0,0,0,1934,
scooby_state_40f7b9|9|-1 1933,0,0,0,0,0,0,0,1,0,0,0,0,0,0,1934,
scooby_state_40f7b9|47|-16 1930,0,1,0,0,0,0,0,0,1,0,1,0,1,0,1934,
scooby_state_40f7b9|53|52 1929,0,0,1,2,0,0,0,0,1,0,1,0,0,0,1934,
scooby_state_40f7b9|28|-1 1932,0,1,0,1,0,0,0,0,0,0,0,0,0,0,1934,
scooby_state_40f7b9|19|-34 1915,14,0,0,0,1,0,0,2,0,0,1,1,0,0,1934,
scooby_state_40f7b9|3|-1 1931,0,0,1,1,0,0,0,0,0,0,0,1,0,0,1934,
scooby_state_40f886|16|-1 2,1,0,0,1,0,1,0,0,1,0,1928,0,0,0,1934,
scooby_state_40f7b9|38|-1 1932,1,0,0,0,0,0,0,0,0,0,0,0,1,0,1934,
scooby_state_40f886|41|-1 0,1,0,1,1,0,1,0,0,1,0,1929,0,0,0,1934,
scooby_state_40f7b9|2|2 1933,0,0,0,0,0,0,0,0,0,0,0,0,0,1,1934,
scooby_state_40f7b9|63|40 1931,0,0,0,0,0,0,0,0,1,0,2,0,0,0,1934,
scooby_state_40f7b9|16|-1 1932,0,0,1,0,0,0,0,0,0,0,0,0,1,0,1934,
scooby_state_40f7b9|63|63 1929,0,0,0,0,2,0,0,0,2,0,0,0,0,1,1934,
scooby_state_40f886|15|-1 1,0,2,0,2,0,0,1,0,0,1,1925,2,0,0,1934,
scooby_state_40f7b9|4|-4 1931,0,0,0,0,0,0,0,0,1,0,0,0,0,2,1934,
scooby_state_40f7b9|56|-1 1929,0,0,0,1,0,2,0,0,0,0,1,0,0,1,1934,
scooby_state_40f7b9|26|-20 1928,0,1,1,0,0,0,0,0,0,0,1,1,0,2,1934,
scooby_state_40f7b9|46|-1 1930,0,1,0,0,0,0,1,0,0,1,0,0,1,0,1934,
scooby_state_40f886|28|-2 0,1,1,0,2,1,1,0,0,1,0,1927,0,0,0,1934,
scooby_state_40f886|55|-1 0,1,1,1,1,0,0,1,0,0,0,1928,0,0,1,1934,
scooby_state_40f7b9|13|-1 1934,0,0,0,0,0,0,0,0,0,0,0,0,0,0,1934,
scooby_state_40f7b9|38|30 1926,1,1,1,0,0,1,1,0,0,0,1,0,1,1,1934,
scooby_state_40f886|6|-1 0,1,2,0,1,0,0,1,1,1,0,1927,0,0,0,1934,
scooby_state_40f7b9|31|31 1929,1,1,1,1,0,0,0,0,0,0,0,1,0,0,1934,
scooby_state_40f7b9|7|-30 1934,0,0,0,0,0,0,0,0,0,0,0,0,0,0,1934,
scooby_state_40f7b9|25|23 1926,0,1,0,3,0,0,1,0,0,0,1,1,1,0,1934,
scooby_state_40f7b9|48|21 841,1090,0,0,0,0,0,1,0,0,0,0,0,1,1,1934,
scooby_state_40f886|44|-1 2,1,1,0,0,2,0,0,2,1,0,1924,0,1,0,1934,
scooby_state_40f7b9|58|-1 1929,1,0,0,0,0,1,0,0,0,1,0,0,0,2,1934,
scooby_state_40f70a|62|1 1932,0,0,0,0,0,0,0,1,0,0,0,0,0,1,1934,
scooby_state_40f886|53|-1 0,1,1,1,1,0,0,1,0,0,0,1929,0,0,0,1934,
scooby_state_40f7b9|14|-1 1930,0,0,2,0,1,0,0,1,0,0,0,0,0,0,1934,
scooby_state_40f886|5|-1 0,0,1,0,0,1,0,0,1,1,0,1930,0,0,0,1934,
scooby_state_40f7b9|1|-31 1933,0,0,0,1,0,0,0,0,0,0,0,0,0,0,1934,
scooby_state_40f7b9|54|-1 1932,0,0,0,1,0,0,0,0,0,1,0,0,0,0,1934,
scooby_state_40f886|4|-1 1,2,0,0,1,0,0,1,2,1,1,1925,0,0,0,1934,
scooby_state_40f7b9|22|-1 1929,0,0,0,0,1,1,0,2,0,1,0,0,0,0,1934,
scooby_state_40f7b9|23|-27 1931,0,0,2,0,0,0,1,0,0,0,0,0,0,0,1934,
scooby_state_40f7b9|1|-4 1930,1,0,0,0,0,0,0,0,1,0,1,1,0,0,1934,
scooby_state_40f7b9|51|-1 1933,0,0,0,0,0,0,0,0,1,0,0,0,0,0,1934,
scooby_state_40f7b9|49|-1 1931,0,0,0,2,0,1,0,0,0,0,0,0,0,0,1934,
scooby_state_40f886|18|-1 1,0,1,0,1,0,0,1,0,2,0,1926,0,1,1,1934,
scooby_state_40f7b9|52|-5 1931,1,1,0,0,1,0,0,0,0,0,0,0,0,0,1934,
scooby_state_40f7b9|45|19 1929,0,0,0,0,0,1,1,1,0,0,0,1,1,0,1934,
scooby_state_40f7b9|46|-3 1930,0,0,1,1,1,0,0,0,0,0,0,0,0,1,1934,
scooby_state_40f7b9|32|-1 1933,1,0,0,0,0,0,0,0,0,0,0,0,0,0,1934,
scooby_state_40f7b9|60|-1 1932,0,0,0,0,0,0,0,0,0,0,0,1,0,1,1934,
scooby_state_40f7b9|49|-3 1929,0,1,0,1,2,1,0,0,0,0,0,0,0,0,1934,
scooby_state_40f7b9|50|-1 1930,1,0,0,0,0,1,0,0,0,1,0,1,0,0,1934,
scooby_state_40f886|47|-1 0,0,1,1,0,1,0,0,2,0,0,1929,0,0,0,1934,
scooby_state_40f7b9|25|-6 1927,2,0,0,0,0,0,2,0,0,1,0,1,1,0,1934,
scooby_state_40f886|49|-1 0,1,3,1,1,0,1,0,1,1,0,1924,0,0,1,1934,
scooby_state_40f7b9|26|1 1930,0,0,0,0,1,1,0,0,0,0,0,2,0,0,1934,
scooby_state_40f7b9|46|-12 1931,0,1,0,0,0,0,1,1,0,0,0,0,0,0,1934,
scooby_state_40f886|51|-1 0,1,0,1,1,0,1,0,1,1,1,1927,0,0,0,1934,
scooby_state_40f886|9|-1 0,1,0,0,2,0,1,0,0,1,0,1929,0,0,0,1934,
scooby_state_40f886|39|-1 1,0,1,0,0,1,0,0,1,2,0,1928,0,0,0,1934,
scooby_state_40f7b9|1|-2 1929,2,0,0,0,1,0,1,0,0,0,0,0,1,0,1934,
scooby_state_40f7b9|14|3 1931,0,0,0,0,1,1,1,0,0,0,0,0,0,0,1934,
scooby_state_40f8df|45|-1 1928,1,0,0,0,0,0,0,0,1,1,0,0,0,2,1933,
scooby_state_40f7b9|27|-1 1932,0,0,0,0,0,0,0,0,0,1,0,0,0,0,1933,
scooby_state_40f7b9|36|1 1928,0,1,0,1,0,0,0,0,0,0,0,1,1,1,1933,
scooby_state_40f7b9|26|-1 1929,1,0,0,0,0,1,0,1,0,0,0,0,1,0,1933,
scooby_state_40f7b9|0|-15 1932,0,0,0,0,0,0,1,0,0,0,0,0,0,0,1933,
scooby_state_40f7b9|5|5 1931,0,0,0,0,0,0,0,1,0,0,0,0,0,1,1933,
scooby_state_40f7b9|63|18 1930,0,1,0,1,0,0,0,0,0,0,0,0,1,0,1933,
scooby_state_40f886|63|32 2,1,0,1,0,0,1,1,0,0,0,1923,1,1,1,1932,
scooby_state_a4c41d|54|-1 1931,0,0,0,0,0,1,0,0,0,0,0,0,0,0,1932,
scooby_state_40f7b9|0|-19 1922,0,0,0,0,0,0,0,0,0,0,2,0,0,0,1924,
scooby_state_40f7b9|62|14 1911,1,0,0,1,0,0,0,0,0,0,0,0,2,0,1915,
scooby_state_40f7b9|8|5 1911,0,1,0,0,0,0,0,0,0,0,0,0,0,0,1912,
scooby_state_40f7b9|22|-3 1888,1,0,0,0,0,0,0,0,0,0,0,0,2,0,1891,
scooby_state_40f7b9|28|28 1857,0,0,0,1,0,0,0,0,0,0,0,0,1,0,1859,
scooby_state_40f886|2|-26 0,1,3,1,0,0,1,1,0,1,0,1851,0,0,0,1859,
scooby_state_a525bd|47|2 581,1,1,1,1,1,1,2,1,1,1,1208,3,0,0,1803,
scooby_state_40f70a|22|1 1665,2,0,0,0,0,0,0,1,0,1,0,1,0,0,1670,
scooby_state_40f886|31|-1 1,2,0,1,2,0,2,0,0,1,0,1612,0,0,0,1621,
scooby_state_40f7b9|32|-22 1616,0,1,0,2,0,0,0,1,0,0,0,0,1,0,1621,
scooby_state_40f886|61|-1 0,0,1,0,0,0,0,1,0,0,1,1498,1,0,0,1502,
scooby_state_40f7b9|19|1 1059,0,1,0,0,0,1,0,0,0,0,0,0,1,0,1062,
scooby_state_40f70a|18|1 1061,1,0,0,0,0,0,0,0,0,0,0,0,0,0,1062,
scooby_state_40f70a|5|-1 1023,0,0,0,0,0,1,0,0,0,0,0,0,0,0,1024,
scooby_state_40f70a|3|2 955,0,0,0,0,0,0,1,0,0,1,0,0,0,0,957,
scooby_state_40f70a|5|1 909,0,0,0,0,0,0,0,0,0,0,0,0,1,0,910,
scooby_state_40f7b9|4|-2 904,0,0,0,0,1,0,1,0,1,1,0,0,0,2,910,
scooby_state_40f7b9|19|2 871,1,0,0,0,0,0,0,0,0,0,0,0,0,0,872,
scooby_state_40f7b9|50|22 854,0,1,0,0,0,1,0,0,0,0,0,0,0,0,856,
scooby_state_40f7b9|50|29 784,0,0,0,0,1,2,0,0,0,1,0,0,0,0,788,
scooby_state_40f7b9|63|0 671,0,0,0,0,0,0,0,0,0,0,0,0,0,0,671,
scooby_state_40f7b9|21|-7 667,0,0,0,0,0,0,0,0,0,0,0,0,0,0,667,
scooby_state_40f7b9|20|-3 499,0,0,0,0,0,0,1,0,0,0,0,0,0,0,500,
scooby_state_40f70a|23|1 498,0,1,0,0,0,0,0,0,0,0,0,1,0,0,500,
scooby_state_40f886|61|-2 0,0,0,0,1,0,0,0,0,0,0,431,0,0,0,432,
scooby_state_40f7b9|59|31 406,2,0,0,0,0,0,0,0,0,0,0,0,0,0,408,
scooby_state_40f886|31|-23 0,0,0,0,0,0,0,0,0,0,0,312,0,0,1,313,
scooby_state_40f7b9|50|-9 266,0,0,0,0,0,0,0,0,0,0,0,0,0,0,266,
scooby_state_40f7cb|63|1 3,242,0,0,0,0,0,0,0,0,0,0,0,0,0,245,
scooby_state_40f7cb|33|1 0,238,0,0,0,0,0,0,0,0,0,0,0,0,0,238,
scooby_state_40f7cb|44|1 0,226,0,0,0,0,0,0,0,0,0,0,0,0,0,226,
scooby_state_40f7cb|59|1 0,224,1,0,0,0,0,0,0,0,0,0,0,0,0,225,
scooby_state_40f7cb|18|1 0,218,0,0,0,0,0,0,0,0,0,0,0,0,1,219,
scooby_state_40f7cb|10|1 0,219,0,0,0,0,0,0,0,0,0,0,0,0,0,219,
scooby_state_40f7b9|0|-7 215,0,0,0,0,0,0,0,0,0,0,0,0,0,0,215,
scooby_state_40f7b9|6|6 215,0,0,0,0,0,0,0,0,0,0,0,0,0,0,215,
scooby_state_40f7cb|48|1 0,210,0,0,0,0,0,0,0,0,0,0,0,0,0,210,
scooby_state_40f7cb|6|1 0,209,0,0,0,0,0,0,0,0,0,0,0,0,0,209,
scooby_state_40f7cb|29|1 0,207,0,0,1,0,0,0,0,0,0,0,0,0,0,208,
scooby_state_40f7cb|25|1 0,205,0,0,0,0,0,0,0,0,0,0,0,0,0,205,
scooby_state_40f7cb|55|1 1,202,0,0,0,0,0,0,0,0,0,1,0,0,0,204,
scooby_state_40f7cb|3|1 0,204,0,0,0,0,0,0,0,0,0,0,0,0,0,204,
scooby_state_40f7cb|51|1 0,201,0,0,0,0,0,0,0,0,0,0,0,0,0,201,
scooby_state_40f7cb|21|1 0,199,0,0,0,0,0,0,0,0,0,0,0,0,0,199,
scooby_state_40f7cb|17|1 0,197,0,0,0,0,0,0,0,0,0,0,0,0,0,197,
scooby_state_40f7cb|40|1 0,197,0,0,0,0,0,0,0,0,0,0,0,0,0,197,
scooby_state_40f7cb|37|1 0,196,0,0,0,0,0,0,0,0,0,0,0,0,0,196,
scooby_state_40f7cb|22|1 0,195,0,0,0,0,0,0,0,0,0,0,0,0,0,195,
scooby_state_40f7cb|13|1 0,194,0,0,0,0,0,0,0,0,0,0,0,0,0,194,
scooby_state_40f7cb|52|1 0,194,0,0,0,0,0,0,0,0,0,0,0,0,0,194,
scooby_state_40f7cb|14|1 0,191,0,0,0,0,0,0,0,0,0,0,0,0,0,191,
scooby_state_40f7cb|36|1 0,187,0,0,0,1,0,0,0,0,0,0,0,0,0,188,
scooby_state_40f7cb|53|1 0,187,0,0,0,0,0,0,0,0,0,0,0,0,0,187,
scooby_state_40f7cb|32|1 0,185,0,0,0,0,0,0,0,0,0,0,0,0,0,185,
scooby_state_40f7cb|49|1 1,179,0,0,0,0,0,0,0,0,0,0,0,0,0,180,
scooby_state_40f7cb|0|0 0,178,0,0,0,0,0,0,0,0,1,0,0,0,0,179,
scooby_state_40f7cb|43|1 0,179,0,0,0,0,0,0,0,0,0,0,0,0,0,179,
scooby_state_40f7cb|38|1 0,178,0,0,0,0,0,0,0,0,0,0,0,0,0,178,
scooby_state_40f7cb|34|1 0,178,0,0,0,0,0,0,0,0,0,0,0,0,0,178,
scooby_state_40f534|42|1 177,0,0,0,0,0,0,0,0,0,0,0,0,0,0,177,
scooby_state_40f7cb|15|1 0,175,1,0,0,0,0,0,0,0,0,0,0,0,0,176,
scooby_state_40f7cb|11|1 0,176,0,0,0,0,0,0,0,0,0,0,0,0,0,176,
scooby_state_40f7cb|41|1 0,175,0,0,0,0,0,0,0,0,0,0,0,0,0,175,
scooby_state_40f7cb|2|1 0,174,0,0,0,0,0,0,0,0,0,0,0,0,0,174,
scooby_state_40f7cb|28|1 0,173,0,0,0,0,0,0,0,0,0,0,0,0,0,173,
scooby_state_40f7cb|4|1 0,172,0,0,0,0,0,0,0,0,0,0,0,0,0,172,
scooby_state_40f534|34|1 171,0,0,0,0,0,0,0,0,0,0,0,0,0,1,172,
scooby_state_40f7cb|24|1 0,171,0,0,0,0,0,0,0,0,0,0,0,0,0,171,
scooby_state_40f7cb|57|1 1,170,0,0,0,0,0,0,0,0,0,0,0,0,0,171,
scooby_state_40f534|57|1 170,0,0,0,0,0,0,0,0,1,0,0,0,0,0,171,
scooby_state_40f7cb|45|1 0,170,0,0,0,0,0,0,0,0,0,0,0,0,0,170,
scooby_state_40f7cb|26|1 0,170,0,0,0,0,0,0,0,0,0,0,0,0,0,170,
scooby_state_40f7cb|62|1 0,170,0,0,0,0,0,0,0,0,0,0,0,0,0,170,
scooby_state_40f534|61|1 169,0,0,0,0,0,0,0,0,0,0,0,0,0,0,169,
scooby_state_40f534|14|1 169,0,0,0,0,0,0,0,0,0,0,0,0,0,0,169,
scooby_state_40f7cb|27|1 0,167,0,0,0,0,0,0,0,0,0,0,0,1,0,168,
scooby_state_40f7cb|60|1 0,168,0,0,0,0,0,0,0,0,0,0,0,0,0,168,
scooby_state_40f7cb|19|1 0,165,1,0,0,0,0,0,0,0,1,0,1,0,0,168,
scooby_state_40f7cb|56|1 0,167,0,0,0,0,0,0,0,0,0,0,0,0,0,167,
scooby_state_40f534|27|1 166,0,0,0,0,0,0,0,0,0,0,0,0,0,1,167,
scooby_state_40f534|59|1 167,0,0,0,0,0,0,0,0,0,0,0,0,0,0,167,
scooby_state_40f534|48|1 167,0,0,0,0,0,0,0,0,0,0,0,0,0,0,167,
scooby_state_40f534|30|1 166,0,0,0,0,0,0,0,0,0,0,0,0,0,0,166,
scooby_state_40f7cb|9|1 0,164,0,0,0,0,0,0,0,0,0,0,0,0,0,164,
scooby_state_40f534|37|1 162,0,0,0,0,0,0,0,0,0,0,0,0,0,0,162,
scooby_state_40f7cb|47|1 0,160,0,0,0,0,0,1,0,0,0,0,0,0,0,161,
scooby_state_40f7cb|7|1 0,160,0,0,0,0,0,0,0,0,0,0,0,1,0,161,
scooby_state_40f534|26|1 161,0,0,0,0,0,0,0,0,0,0,0,0,0,0,161,
scooby_state_40f7cb|58|1 0,160,0,0,0,0,0,0,0,0,0,0,0,0,0,160,
scooby_state_40f7cb|42|1 0,159,0,0,0,1,0,0,0,0,0,0,0,0,0,160,
scooby_state_40f534|10|1 160,0,0,0,0,0,0,0,0,0,0,0,0,0,0,160,
scooby_state_40f534|8|1 160,0,0,0,0,0,0,0,0,0,0,0,0,0,0,160,
scooby_state_40f7cb|23|1 0,159,0,0,0,0,0,0,0,0,0,0,0,0,0,159,
scooby_state_40f534|44|1 159,0,0,0,0,0,0,0,0,0,0,0,0,0,0,159,
scooby_state_40f534|4|1 159,0,0,0,0,0,0,0,0,0,0,0,0,0,0,159,
scooby_state_40f534|23|1 159,0,0,0,0,0,0,0,0,0,0,0,0,0,0,159,
scooby_state_40f534|7|1 158,0,0,0,0,0,0,0,0,0,0,0,0,0,0,158,
scooby_state_40f7cb|30|1 0,158,0,0,0,0,0,0,0,0,0,0,0,0,0,158,
scooby_state_40f534|19|1 156,0,0,0,0,0,0,0,0,0,0,0,0,0,1,157,
scooby_state_40f534|41|1 157,0,0,0,0,0,0,0,0,0,0,0,0,0,0,157,
scooby_state_40f7cb|31|1 0,156,0,0,0,0,0,0,0,0,0,0,0,0,0,156,
scooby_state_40f534|38|1 156,0,0,0,0,0,0,0,0,0,0,0,0,0,0,156,
scooby_state_40f534|22|1 155,0,0,0,0,0,0,0,1,0,0,0,0,0,0,156,
scooby_state_40f534|63|1 156,0,0,0,0,0,0,0,0,0,0,0,0,0,0,156,
scooby_state_40f534|50|1 156,0,0,0,0,0,0,0,0,0,0,0,0,0,0,156,
scooby_state_40f534|6|1 155,0,0,0,0,1,0,0,0,0,0,0,0,0,0,156,
scooby_state_40f534|54|1 154,0,1,0,0,0,0,0,0,0,0,0,0,0,0,155,
scooby_state_40f7cb|54|1 0,155,0,0,0,0,0,0,0,0,0,0,0,0,0,155,
scooby_state_40f7cb|20|1 0,155,0,0,0,0,0,0,0,0,0,0,0,0,0,155,
scooby_state_40f534|53|1 154,0,0,0,0,0,0,0,0,0,0,0,0,0,0,154,
scooby_state_40f7cb|8|1 0,153,1,0,0,0,0,0,0,0,0,0,0,0,0,154,
scooby_state_40f534|36|1 152,0,0,0,0,0,0,0,0,0,0,0,0,0,0,152,
scooby_state_40f7cb|16|1 0,152,0,0,0,0,0,0,0,0,0,0,0,0,0,152,
scooby_state_40f534|33|1 152,0,0,0,0,0,0,0,0,0,0,0,0,0,0,152,
scooby_state_40f534|52|1 151,0,0,0,0,0,0,0,0,0,0,0,0,0,0,151,
scooby_state_40f7cb|12|1 0,150,0,0,0,0,0,0,0,0,0,0,0,0,0,150,
scooby_state_40f534|11|1 150,0,0,0,0,0,0,0,0,0,0,0,0,0,0,150,
scooby_state_40f534|60|1 150,0,0,0,0,0,0,0,0,0,0,0,0,0,0,150,
scooby_state_40f534|12|1 149,0,0,0,0,0,0,0,0,0,0,0,0,0,0,149,
scooby_state_40f7cb|50|1 0,148,0,0,0,0,0,0,0,0,0,0,0,0,0,148,
scooby_state_40f534|0|0 147,0,0,0,0,0,1,0,0,0,0,0,0,0,0,148,
scooby_state_40f534|1|1 147,0,0,0,1,0,0,0,0,0,0,0,0,0,0,148,
scooby_state_40f534|2|1 148,0,0,0,0,0,0,0,0,0,0,0,0,0,0,148,
scooby_state_40f7cb|35|1 0,148,0,0,0,0,0,0,0,0,0,0,0,0,0,148,
scooby_state_40f534|3|1 147,0,0,0,0,0,1,0,0,0,0,0,0,0,0,148,
scooby_state_40f534|29|1 148,0,0,0,0,0,0,0,0,0,0,0,0,0,0,148,
scooby_state_40f534|5|1 147,0,0,0,0,0,0,0,0,0,0,0,0,0,0,147,
scooby_state_40f7cb|1|1 0,147,0,0,0,0,0,0,0,0,0,0,0,0,0,147,
scooby_state_40f534|35|1 147,0,0,0,0,0,0,0,0,0,0,0,0,0,0,147,
scooby_state_40f7cb|5|1 0,147,0,0,0,0,0,0,0,0,0,0,0,0,0,147,
scooby_state_40f534|40|1 146,0,0,0,0,0,0,0,0,0,0,0,0,0,0,146,
scooby_state_40f7cb|39|1 0,144,0,0,0,0,0,0,0,0,0,0,0,0,0,144,
scooby_state_40f534|56|1 143,0,0,0,0,0,0,0,0,0,0,0,0,0,0,143,
scooby_state_40f534|46|1 143,0,0,0,0,0,0,0,0,0,0,0,0,0,0,143,
scooby_state_40f534|39|1 141,0,0,0,0,0,0,0,0,0,0,0,0,1,0,142,
scooby_state_40f7b9|21|-38 141,1,0,0,0,0,0,0,0,0,0,0,0,0,0,142,
scooby_state_40f534|25|1 141,0,0,0,0,0,0,0,0,0,0,0,0,0,0,141,
scooby_state_40f534|13|1 140,0,0,0,0,0,0,0,0,0,0,0,0,1,0,141,
scooby_state_40f534|24|1 141,0,0,0,0,0,0,0,0,0,0,0,0,0,0,141,
scooby_state_40f534|58|1 140,0,0,0,0,0,0,0,0,0,1,0,0,0,0,141,
scooby_state_40f534|45|1 140,0,0,0,0,0,0,0,0,0,0,0,0,0,0,140,
scooby_state_40f534|16|1 140,0,0,0,0,0,0,0,0,0,0,0,0,0,0,140,
scooby_state_40f534|21|1 140,0,0,0,0,0,0,0,0,0,0,0,0,0,0,140,
scooby_state_40f534|18|1 140,0,0,0,0,0,0,0,0,0,0,0,0,0,0,140,
scooby_state_40f534|17|1 137,1,0,0,0,0,0,0,0,0,0,0,0,0,0,138,
scooby_state_40f534|55|1 137,0,0,0,0,0,0,0,0,0,0,0,0,0,0,137,
scooby_state_40f7cb|61|1 0,137,0,0,0,0,0,0,0,0,0,0,0,0,0,137,
scooby_state_40f534|15|1 135,0,0,0,0,0,0,0,0,0,0,0,0,1,0,136,
scooby_state_40f534|49|1 135,0,0,0,0,0,0,0,0,0,0,0,0,0,0,135,
scooby_state_40f534|47|1 134,0,0,0,0,0,0,0,0,0,0,0,0,0,0,134,
scooby_state_40f534|43|1 133,0,0,0,0,0,0,0,0,0,0,0,0,0,0,133,
scooby_state_40f7c0|0|-63 133,0,0,0,0,0,0,0,0,0,0,0,0,0,0,133,
scooby_state_a525d9|47|2 91,0,0,0,0,0,0,0,0,0,0,41,0,0,0,132,
scooby_state_40f534|9|1 132,0,0,0,0,0,0,0,0,0,0,0,0,0,0,132,
scooby_state_40f534|31|1 131,0,0,0,0,0,0,0,0,0,0,0,0,0,0,131,
scooby_state_40f7cb|46|1 0,129,0,0,0,0,0,0,0,0,0,0,0,0,0,129,
scooby_state_40f534|28|1 127,0,0,0,0,0,0,0,0,0,0,0,0,0,0,127,
scooby_state_40f534|32|1 120,0,0,0,1,0,0,0,0,0,0,0,0,0,0,121,
scooby_state_40f534|51|1 117,0,0,0,0,0,0,0,0,0,0,0,0,0,0,117,
scooby_state_40f534|20|1 116,0,0,0,0,0,0,0,1,0,0,0,0,0,0,117,
scooby_state_40f534|62|1 112,0,0,0,0,0,0,0,0,0,0,0,0,0,0,112,
scooby_state_40f7c0|37|2 90,0,0,0,0,0,0,0,0,0,0,0,0,0,0,90,
scooby_state_40f7c0|53|2 90,0,0,0,0,0,0,0,0,0,0,0,0,0,0,90,
scooby_state_40f7c0|44|2 89,0,0,0,0,0,0,0,0,0,0,0,0,0,0,89,
scooby_state_40f7c0|11|2 89,0,0,0,0,0,0,0,0,0,0,0,0,0,0,89,
scooby_state_40f7c0|20|2 88,0,0,0,0,0,0,0,0,0,0,0,0,0,0,88,
scooby_state_40f7c0|21|2 88,0,0,0,0,0,0,0,0,0,0,0,0,0,0,88,
scooby_state_40f7c0|25|2 88,0,0,0,0,0,0,0,0,0,0,0,0,0,0,88,
scooby_state_40f7c0|54|2 87,0,0,0,0,0,0,0,0,0,0,0,0,0,0,87,
scooby_state_40f7c0|32|2 87,0,0,0,0,0,0,0,0,0,0,0,0,0,0,87,
scooby_state_40f7c0|39|2 87,0,0,0,0,0,0,0,0,0,0,0,0,0,0,87,
scooby_state_40f7c0|23|2 86,0,0,0,0,0,0,0,0,0,0,0,0,0,0,86,
scooby_state_40f7c0|26|2 86,0,0,0,0,0,0,0,0,0,0,0,0,0,0,86,
scooby_state_40f7c0|40|2 86,0,0,0,0,0,0,0,0,0,0,0,0,0,0,86,
scooby_state_40f7c0|62|2 86,0,0,0,0,0,0,0,0,0,0,0,0,0,0,86,
scooby_state_40f7c0|42|2 85,0,0,0,0,0,0,0,0,0,0,0,0,0,0,85,
scooby_state_40f7c0|41|2 84,0,0,0,0,0,0,0,0,1,0,0,0,0,0,85,
scooby_state_40f7c0|12|2 85,0,0,0,0,0,0,0,0,0,0,0,0,0,0,85,
scooby_state_40f7c0|10|2 85,0,0,0,0,0,0,0,0,0,0,0,0,0,0,85,
scooby_state_40f7c0|55|2 85,0,0,0,0,0,0,0,0,0,0,0,0,0,0,85,
scooby_state_40f7c0|24|2 85,0,0,0,0,0,0,0,0,0,0,0,0,0,0,85,
scooby_state_40f7c0|13|2 85,0,0,0,0,0,0,0,0,0,0,0,0,0,0,85,
scooby_state_40f7c0|50|2 84,0,0,0,0,0,0,0,0,0,0,0,0,0,0,84,
scooby_state_40f7c0|45|2 84,0,0,0,0,0,0,0,0,0,0,0,0,0,0,84,
scooby_state_40f7c0|36|2 83,0,0,0,0,0,0,0,0,0,0,0,0,0,0,83,
scooby_state_40f7c0|27|2 83,0,0,0,0,0,0,0,0,0,0,0,0,0,0,83,
scooby_state_40f7c0|46|2 83,0,0,0,0,0,0,0,0,0,0,0,0,0,0,83,
scooby_state_40f7c0|52|2 82,0,0,0,0,0,0,0,0,0,0,0,0,0,0,82,
scooby_state_40f7c0|28|2 82,0,0,0,0,0,0,0,0,0,0,0,0,0,0,82,
scooby_state_40f7c0|43|2 82,0,0,0,0,0,0,0,0,0,0,0,0,0,0,82,
scooby_state_40f7c0|61|2 82,0,0,0,0,0,0,0,0,0,0,0,0,0,0,82,
scooby_state_40f7c0|56|2 82,0,0,0,0,0,0,0,0,0,0,0,0,0,0,82,
scooby_state_40f7c0|5|2 81,0,0,0,0,0,0,0,0,0,0,0,0,0,0,81,
scooby_state_40f7c0|47|2 81,0,0,0,0,0,0,0,0,0,0,0,0,0,0,81,
scooby_state_40f7c0|22|2 80,0,0,0,0,0,0,0,0,0,0,0,0,0,0,80,
scooby_state_40f7c0|33|2 80,0,0,0,0,0,0,0,0,0,0,0,0,0,0,80,
scooby_state_40f7c0|6|2 80,0,0,0,0,0,0,0,0,0,0,0,0,0,0,80,
scooby_state_40f7c0|51|2 80,0,0,0,0,0,0,0,0,0,0,0,0,0,0,80,
scooby_state_40f7c0|29|2 79,0,0,0,0,0,0,0,0,0,0,0,0,0,0,79,
scooby_state_40f7c0|49|2 79,0,0,0,0,0,0,0,0,0,0,0,0,0,0,79,
scooby_state_40f7c0|4|2 79,0,0,0,0,0,0,0,0,0,0,0,0,0,0,79,
scooby_state_40f7c0|63|2 78,0,0,0,0,0,0,0,0,0,0,0,0,0,0,78,
scooby_state_40f7c0|58|2 78,0,0,0,0,0,0,0,0,0,0,0,0,0,0,78,
scooby_state_40f7c0|19|2 77,0,0,0,0,0,0,0,0,0,0,0,0,0,0,77,
scooby_state_40f7c0|38|2 77,0,0,0,0,0,0,0,0,0,0,0,0,0,0,77,
scooby_state_40f7c0|48|2 77,0,0,0,0,0,0,0,0,0,0,0,0,0,0,77,
scooby_state_40f7c0|59|2 76,0,0,0,0,0,0,0,0,0,0,0,0,1,0,77,
scooby_state_40f7c0|30|2 77,0,0,0,0,0,0,0,0,0,0,0,0,0,0,77,
scooby_state_40f7c0|60|2 76,0,0,0,0,0,0,0,0,0,0,0,0,0,0,76,
scooby_state_40f7c0|57|2 76,0,0,0,0,0,0,0,0,0,0,0,0,0,0,76,
scooby_state_40f886|2|2 0,0,0,0,0,0,0,0,0,0,0,75,0,0,0,75,
scooby_state_40f7c0|14|2 75,0,0,0,0,0,0,0,0,0,0,0,0,0,0,75,
scooby_state_40f7c0|2|2 75,0,0,0,0,0,0,0,0,0,0,0,0,0,0,75,
scooby_state_40f7c0|1|0 74,0,0,0,0,0,0,0,0,0,0,0,0,0,0,74,
scooby_state_40f7c0|15|2 73,0,0,0,0,0,0,0,0,0,0,0,0,0,0,73,
scooby_state_40f7c0|34|2 73,0,0,0,0,0,0,0,0,0,0,0,0,0,0,73,
scooby_state_40f7c0|3|2 72,0,0,0,0,0,0,0,0,0,0,0,0,0,0,72,
scooby_state_40f7b9|59|-4 71,0,0,0,0,0,0,0,0,0,0,0,0,0,0,71,
scooby_state_40f7c0|16|2 69,0,0,0,0,0,0,0,0,0,0,0,0,1,0,70,
scooby_state_40f7c0|17|2 69,0,0,0,0,0,0,0,0,0,0,0,0,0,0,69,
scooby_state_40f7c0|31|2 69,0,0,0,0,0,0,0,0,0,0,0,0,0,0,69,
scooby_state_40f7c0|8|2 69,0,0,0,0,0,0,0,0,0,0,0,0,0,0,69,
scooby_state_40f7c0|7|2 68,0,0,0,0,0,0,0,0,0,0,0,0,0,0,68,
scooby_state_40f7c0|18|2 68,0,0,0,0,0,0,0,0,0,0,0,0,0,0,68,
scooby_state_40f7c0|35|2 66,0,0,0,0,0,0,0,0,0,0,0,0,0,0,66,
scooby_state_40f7c0|9|2 65,0,0,0,0,0,0,0,0,0,0,0,0,0,0,65,
scooby_state_a4c443|7|0 38,2,1,0,0,0,0,1,0,1,1,8,0,0,2,54,
scooby_state_40f7c0|63|0 48,0,0,0,0,0,0,0,0,0,0,0,0,0,0,48,
scooby_state_40f70f|0|-63 47,0,0,0,0,0,0,0,0,0,0,0,0,0,0,47,
scooby_state_40f7c0|46|0 46,0,0,0,0,0,0,0,0,0,0,0,0,0,0,46,
scooby_state_40f7c0|32|0 46,0,0,0,0,0,0,0,0,0,0,0,0,0,0,46,
scooby_state_40f7cb|9|-1 3,42,0,0,0,0,0,0,0,0,0,0,0,0,0,45,
scooby_state_40f7cb|26|-1 7,37,0,0,0,0,0,0,0,0,0,0,0,0,0,44,
scooby_state_40f7c0|8|0 44,0,0,0,0,0,0,0,0,0,0,0,0,0,0,44,
scooby_state_40f7c0|26|0 44,0,0,0,0,0,0,0,0,0,0,0,0,0,0,44,
scooby_state_40f8cc|54|-9 44,0,0,0,0,0,0,0,0,0,0,0,0,0,0,44,
scooby_state_a4c443|18|0 15,1,1,1,2,2,2,1,3,1,2,5,1,2,4,43,
scooby_state_a5266d|0|0 10,0,9,0,2,1,3,1,0,1,2,8,3,2,1,43,
scooby_state_40f8cc|1|-62 42,0,0,0,0,0,0,0,0,0,0,0,1,0,0,43,
scooby_state_40f7b9|24|-1 43,0,0,0,0,0,0,0,0,0,0,0,0,0,0,43,
scooby_state_40f8cc|35|-28 43,0,0,0,0,0,0,0,0,0,0,0,0,0,0,43,
scooby_state_40f7b9|22|-2 43,0,0,0,0,0,0,0,0,0,0,0,0,0,0,43,
scooby_state_a4c443|8|0 21,3,1,0,1,0,2,2,0,1,1,7,1,1,2,43,
scooby_state_40f7cb|52|-1 4,37,0,1,0,0,0,0,0,0,0,0,0,0,0,42,
scooby_state_40f8cc|5|-58 42,0,0,0,0,0,0,0,0,0,0,0,0,0,0,42,
scooby_state_40f8cc|12|-51 20,0,6,0,0,0,0,0,0,0,0,16,0,0,0,42,
scooby_state_40f7c0|40|0 42,0,0,0,0,0,0,0,0,0,0,0,0,0,0,42,
scooby_state_40f7c0|5|0 42,0,0,0,0,0,0,0,0,0,0,0,0,0,0,42,
scooby_state_a4c443|6|0 21,7,1,3,1,1,1,0,2,0,0,3,1,1,0,42,
scooby_state_40f8cc|50|-13 41,0,0,0,0,0,0,0,0,0,0,0,0,0,0,41,
scooby_state_40f7c0|3|0 41,0,0,0,0,0,0,0,0,0,0,0,0,0,0,41,
scooby_state_40f8cc|20|-43 0,0,0,1,1,1,1,1,1,1,1,29,1,1,2,41,
scooby_state_a4c443|28|0 20,1,1,0,0,2,2,1,0,2,1,8,0,0,2,40,
scooby_state_40f7c0|12|0 40,0,0,0,0,0,0,0,0,0,0,0,0,0,0,40,
scooby_state_40f7cb|24|-1 5,34,0,0,0,0,0,0,0,0,0,0,0,1,0,40,
scooby_state_40f7cb|60|-1 4,36,0,0,0,0,0,0,0,0,0,0,0,0,0,40,
scooby_state_40f7c0|27|0 40,0,0,0,0,0,0,0,0,0,0,0,0,0,0,40,
scooby_state_40f7c0|19|0 40,0,0,0,0,0,0,0,0,0,0,0,0,0,0,40,
scooby_state_40f8cc|16|-47 39,0,0,0,0,0,0,0,0,0,0,0,0,0,0,39,
scooby_state_40f7c0|17|0 39,0,0,0,0,0,0,0,0,0,0,0,0,0,0,39,
scooby_state_40f7c0|2|0 39,0,0,0,0,0,0,0,0,0,0,0,0,0,0,39,
scooby_state_40f7c0|62|0 38,1,0,0,0,0,0,0,0,0,0,0,0,0,0,39,
scooby_state_40f7cb|50|-1 5,33,0,0,0,0,0,0,0,0,0,0,0,1,0,39,
scooby_state_a5266d|21|0 12,1,4,1,1,0,2,2,1,0,1,6,4,1,3,39,
scooby_state_40f7c0|15|0 39,0,0,0,0,0,0,0,0,0,0,0,0,0,0,39,
scooby_state_40f7cb|22|-1 5,33,0,0,0,0,0,0,0,0,0,0,0,0,0,38,
scooby_state_40f7c0|16|0 38,0,0,0,0,0,0,0,0,0,0,0,0,0,0,38,
scooby_state_40f7c0|60|0 38,0,0,0,0,0,0,0,0,0,0,0,0,0,0,38,
scooby_state_40f7cb|48|-1 4,33,0,1,0,0,0,0,0,0,0,0,0,0,0,38,
scooby_state_40f8cc|24|-39 5,1,3,2,2,2,2,3,2,2,3,4,2,2,3,38,
scooby_state_40f7cb|38|-1 5,33,0,0,0,0,0,0,0,0,0,0,0,0,0,38,
scooby_state_40f7c0|36|0 38,0,0,0,0,0,0,0,0,0,0,0,0,0,0,38,
scooby_state_40f7cb|40|-1 3,34,0,0,0,0,0,0,0,0,0,0,0,1,0,38,
scooby_state_40f7cb|59|-1 5,33,0,0,0,0,0,0,0,0,0,0,0,0,0,38,
scooby_state_a4c443|31|0 18,2,2,0,2,0,0,0,1,0,1,6,1,2,3,38,
scooby_state_40f7c0|37|0 36,1,0,0,0,0,0,0,0,0,0,0,0,0,0,37,
scooby_state_40f7cb|42|-1 7,29,0,0,0,0,0,0,0,0,0,0,0,1,0,37,
scooby_state_40f7cb|58|-1 5,32,0,0,0,0,0,0,0,0,0,0,0,0,0,37,
scooby_state_40f7cb|10|-1 4,33,0,0,0,0,0,0,0,0,0,0,0,0,0,37,
scooby_state_40f7cb|19|-1 2,35,0,0,0,0,0,0,0,0,0,0,0,0,0,37,
scooby_state_40f7c0|21|0 37,0,0,0,0,0,0,0,0,0,0,0,0,0,0,37,
scooby_state_40f7c0|59|0 37,0,0,0,0,0,0,0,0,0,0,0,0,0,0,37,
scooby_state_40f7cb|57|-1 6,30,0,0,0,0,0,0,0,0,0,0,0,0,0,36,
scooby_state_40f7c0|11|0 36,0,0,0,0,0,0,0,0,0,0,0,0,0,0,36,
scooby_state_40f7c0|61|0 36,0,0,0,0,0,0,0,0,0,0,0,0,0,0,36,
scooby_state_40f8cc|31|-32 36,0,0,0,0,0,0,0,0,0,0,0,0,0,0,36,
scooby_state_40f7cb|35|-1 5,30,0,0,0,0,0,0,0,0,0,0,0,1,0,36,
scooby_state_40f7c0|56|0 36,0,0,0,0,0,0,0,0,0,0,0,0,0,0,36,
scooby_state_40f7c0|39|0 36,0,0,0,0,0,0,0,0,0,0,0,0,0,0,36,
scooby_state_40f8cc|46|-17 35,0,0,0,0,0,0,0,0,0,0,1,0,0,0,36,
scooby_state_40f7cb|54|-1 6,30,0,0,0,0,0,0,0,0,0,0,0,0,0,36,
scooby_state_40f7c0|35|0 36,0,0,0,0,0,0,0,0,0,0,0,0,0,0,36,
scooby_state_40f7c0|38|0 35,0,0,0,0,0,0,0,0,0,0,0,0,0,0,35,
scooby_state_40f7c0|52|0 35,0,0,0,0,0,0,0,0,0,0,0,0,0,0,35,
scooby_state_40f89a|3|0 35,0,0,0,0,0,0,0,0,0,0,0,0,0,0,35,
scooby_state_40f8cc|28|-35 3,2,5,2,2,2,2,2,1,2,2,3,2,2,3,35,
scooby_state_40f7cb|28|-1 7,28,0,0,0,0,0,0,0,0,0,0,0,0,0,35,
scooby_state_40f7c0|7|0 35,0,0,0,0,0,0,0,0,0,0,0,0,0,0,35,
scooby_state_40f7cb|20|-1 3,32,0,0,0,0,0,0,0,0,0,0,0,0,0,35,
scooby_state_40f7cb|37|-1 4,31,0,0,0,0,0,0,0,0,0,0,0,0,0,35,
scooby_state_40f8cc|61|-2 0,0,0,0,0,0,0,0,0,0,0,35,0,0,0,35,
scooby_state_a4c443|17|0 13,4,2,0,1,0,1,1,1,2,1,4,2,1,2,35,
scooby_state_40f7cb|46|-1 3,32,0,0,0,0,0,0,0,0,0,0,0,0,0,35,
scooby_state_40f7cb|31|-1 4,31,0,0,0,0,0,0,0,0,0,0,0,0,0,35,
scooby_state_40f7cb|18|-1 4,31,0,0,0,0,0,0,0,0,0,0,0,0,0,35,
scooby_state_40f7c0|24|0 34,0,0,0,0,0,0,0,0,1,0,0,0,0,0,35,
scooby_state_40f7c0|4|0 34,0,0,0,0,0,0,0,0,0,0,0,0,0,0,34,
scooby_state_40f7c0|34|0 34,0,0,0,0,0,0,0,0,0,0,0,0,0,0,34,
scooby_state_40f89a|33|0 34,0,0,0,0,0,0,0,0,0,0,0,0,0,0,34,
scooby_state_a4c443|27|0 19,6,1,1,1,0,0,0,0,0,1,4,0,1,0,34,
scooby_state_40f89a|5|0 34,0,0,0,0,0,0,0,0,0,0,0,0,0,0,34,
scooby_state_40f7cb|14|-1 2,32,0,0,0,0,0,0,0,0,0,0,0,0,0,34,
scooby_state_40f89a|28|0 33,0,0,0,0,0,0,0,0,0,0,1,0,0,0,34,
scooby_state_40f7c0|58|0 34,0,0,0,0,0,0,0,0,0,0,0,0,0,0,34,
scooby_state_40f8cc|58|-5 4,2,3,2,2,2,2,2,2,2,1,3,2,2,3,34,
scooby_state_40f7cb|36|-1 5,29,0,0,0,0,0,0,0,0,0,0,0,0,0,34,
scooby_state_40f7cb|27|-1 2,32,0,0,0,0,0,0,0,0,0,0,0,0,0,34,
scooby_state_40f7c0|57|0 34,0,0,0,0,0,0,0,0,0,0,0,0,0,0,34,
scooby_state_40f7c0|13|0 33,0,0,0,0,0,0,0,0,0,0,0,0,0,0,33,
scooby_state_40f8cc|9|-54 32,0,0,0,0,0,0,0,0,0,0,1,0,0,0,33,
scooby_state_40f7c0|10|0 33,0,0,0,0,0,0,0,0,0,0,0,0,0,0,33,
scooby_state_a4c443|1|0 14,1,0,1,0,1,1,1,2,1,1,7,0,2,1,33,
scooby_state_40f7c0|25|0 33,0,0,0,0,0,0,0,0,0,0,0,0,0,0,33,
scooby_state_40f7cb|53|-1 3,30,0,0,0,0,0,0,0,0,0,0,0,0,0,33,
scooby_state_40f89a|1|0 31,0,0,0,0,0,0,0,1,0,0,0,0,0,1,33,
scooby_state_40f89a|46|0 33,0,0,0,0,0,0,0,0,0,0,0,0,0,0,33,
scooby_state_40f7cb|30|-1 6,27,0,0,0,0,0,0,0,0,0,0,0,0,0,33,
scooby_state_40f7cb|56|-1 6,27,0,0,0,0,0,0,0,0,0,0,0,0,0,33,
scooby_state_a4c443|15|0 17,2,1,1,1,1,1,1,0,2,0,2,0,0,3,32,
scooby_state_a5266d|1|0 8,1,7,1,1,1,0,1,1,1,1,7,1,0,1,32,
scooby_state_40f7cb|6|-1 6,25,0,0,0,0,0,0,0,0,0,0,0,1,0,32,
scooby_state_40f7cb|12|-1 2,30,0,0,0,0,0,0,0,0,0,0,0,0,0,32,
scooby_state_a4c443|22|0 15,2,0,2,1,0,1,0,2,1,2,4,1,1,0,32,
scooby_state_40f7c0|30|0 32,0,0,0,0,0,0,0,0,0,0,0,0,0,0,32,
scooby_state_a4c443|5|0 13,1,2,0,2,2,0,0,0,1,0,6,1,1,3,32,
scooby_state_40f7cb|55|-1 3,28,0,0,0,0,0,0,0,0,0,0,0,1,0,32,
scooby_state_40f7c0|44|0 31,0,0,0,0,0,0,0,0,0,0,0,0,1,0,32,
scooby_state_40f89a|54|0 30,0,0,0,2,0,0,0,0,0,0,0,0,0,0,32,
scooby_state_40f7cb|41|-1 6,26,0,0,0,0,0,0,0,0,0,0,0,0,0,32,
scooby_state_40f8cc|39|-24 32,0,0,0,0,0,0,0,0,0,0,0,0,0,0,32,
scooby_state_40f7cb|51|-1 3,29,0,0,0,0,0,0,0,0,0,0,0,0,0,32,
scooby_state_a4c443|4|0 12,3,0,1,1,0,1,1,1,1,2,5,2,0,1,31,
scooby_state_a5266d|20|0 7,1,11,0,1,0,0,0,1,0,2,5,1,0,2,31,
scooby_state_40f7c0|45|0 31,0,0,0,0,0,0,0,0,0,0,0,0,0,0,31,
scooby_state_40f8cc|23|-40 29,0,0,0,0,0,0,0,0,0,0,2,0,0,0,31,
scooby_state_40f7c0|55|0 31,0,0,0,0,0,0,0,0,0,0,0,0,0,0,31,
scooby_state_40f7cb|25|-1 4,27,0,0,0,0,0,0,0,0,0,0,0,0,0,31,
scooby_state_40f7cb|32|-1 3,28,0,0,0,0,0,0,0,0,0,0,0,0,0,31,
scooby_state_40f89a|0|0 31,0,0,0,0,0,0,0,0,0,0,0,0,0,0,31,
scooby_state_40f7c0|14|0 31,0,0,0,0,0,0,0,0,0,0,0,0,0,0,31,
scooby_state_a4c443|14|0 16,2,0,2,1,1,0,0,2,1,1,4,0,1,0,31,
scooby_state_40f8cc|43|-20 23,0,0,1,1,1,1,1,1,0,1,1,0,0,0,31,
scooby_state_40f8cc|27|-36 27,0,0,0,1,0,0,0,0,0,0,3,0,0,0,31,
scooby_state_40f89a|7|0 31,0,0,0,0,0,0,0,0,0,0,0,0,0,0,31,
scooby_state_40f7c0|18|0 31,0,0,0,0,0,0,0,0,0,0,0,0,0,0,31,
scooby_state_40f8cc|8|-55 0,0,0,0,0,0,0,0,0,0,0,31,0,0,0,31,
scooby_state_40f89a|51|0 31,0,0,0,0,0,0,0,0,0,0,0,0,0,0,31,
scooby_state_40f7cb|61|-1 4,27,0,0,0,0,0,0,0,0,0,0,0,0,0,31,
scooby_state_40f7cb|2|-1 3,28,0,0,0,0,0,0,0,0,0,0,0,0,0,31,
scooby_state_40f7cb|49|-1 3,28,0,0,0,0,0,0,0,0,0,0,0,0,0,31,
scooby_state_40f7c0|29|0 31,0,0,0,0,0,0,0,0,0,0,0,0,0,0,31,
scooby_state_40f7c0|33|0 31,0,0,0,0,0,0,0,0,0,0,0,0,0,0,31,
scooby_state_40f7c0|47|0 31,0,0,0,0,0,0,0,0,0,0,0,0,0,0,31,
scooby_state_40f7cb|43|-1 2,29,0,0,0,0,0,0,0,0,0,0,0,0,0,31,
scooby_state_40f89a|53|0 31,0,0,0,0,0,0,0,0,0,0,0,0,0,0,31,
scooby_state_40f7cb|44|-1 5,26,0,0,0,0,0,0,0,0,0,0,0,0,0,31,
scooby_state_40f89a|30|0 30,0,0,0,0,0,0,0,0,0,0,0,0,0,0,30,
scooby_state_40f7c0|28|0 30,0,0,0,0,0,0,0,0,0,0,0,0,0,0,30,
scooby_state_40f7c0|9|0 30,0,0,0,0,0,0,0,0,0,0,0,0,0,0,30,
scooby_state_40f7cb|47|-1 3,26,0,0,0,0,0,0,0,0,0,0,0,1,0,30,
scooby_state_40f7c0|50|0 30,0,0,0,0,0,0,0,0,0,0,0,0,0,0,30,
scooby_state_a5266d|9|0 9,0,11,0,0,0,1,1,1,0,0,6,0,0,1,30,
scooby_state_a4c443|23|0 14,3,1,0,0,0,1,2,0,1,0,3,2,1,2,30,
scooby_state_40f7cb|23|-1 1,29,0,0,0,0,0,0,0,0,0,0,0,0,0,30,
scooby_state_40f7cb|11|-1 0,30,0,0,0,0,0,0,0,0,0,0,0,0,0,30,
scooby_state_40f7cb|39|-1 6,24,0,0,0,0,0,0,0,0,0,0,0,0,0,30,
scooby_state_a4c443|41|0 12,3,0,2,0,1,0,0,1,0,0,7,2,0,2,30,
scooby_state_a4c443|12|0 12,4,0,1,2,2,0,2,0,1,0,3,0,1,2,30,
scooby_state_40f7c0|6|0 30,0,0,0,0,0,0,0,0,0,0,0,0,0,0,30,
scooby_state_a4c443|36|0 6,3,1,3,1,0,1,0,1,2,1,6,3,0,2,30,
scooby_state_40f8cc|42|-21 1,2,2,2,2,2,3,1,1,1,1,6,2,2,2,30,
scooby_state_a4c443|3|0 18,1,0,0,0,1,2,2,1,0,0,4,0,0,1,30,
scooby_state_40f7cb|16|-1 2,28,0,0,0,0,0,0,0,0,0,0,0,0,0,30,
scooby_state_40f7cb|4|-1 4,25,0,0,0,0,0,0,0,0,0,0,0,1,0,30,
scooby_state_40f7c0|43|0 30,0,0,0,0,0,0,0,0,0,0,0,0,0,0,30,
scooby_state_40f7cb|13|-1 3,27,0,0,0,0,0,0,0,0,0,0,0,0,0,30,
scooby_state_40f7cb|62|-1 5,25,0,0,0,0,0,0,0,0,0,0,0,0,0,30,
scooby_state_40f7c0|31|0 29,0,0,0,0,0,0,0,0,0,0,0,0,0,0,29,
scooby_state_a5266d|24|0 7,0,5,0,2,0,0,1,1,0,1,9,0,0,3,29,
scooby_state_40f7cb|21|-1 3,26,0,0,0,0,0,0,0,0,0,0,0,0,0,29,
scooby_state_40f7c0|54|0 29,0,0,0,0,0,0,0,0,0,0,0,0,0,0,29,
scooby_state_40f7c0|41|0 29,0,0,0,0,0,0,0,0,0,0,0,0,0,0,29,
scooby_state_a52672|0|0 14,0,0,0,1,0,0,0,1,0,0,10,0,0,3,29,
scooby_state_40f7cb|7|-1 2,27,0,0,0,0,0,0,0,0,0,0,0,0,0,29,
scooby_state_40f7cb|0|-1 3,24,0,0,0,0,0,0,0,0,0,0,0,2,0,29,
scooby_state_40f8cc|57|-6 3,2,2,2,2,1,2,2,2,2,1,5,2,0,1,29,
scooby_state_40f7c0|20|0 29,0,0,0,0,0,0,0,0,0,0,0,0,0,0,29,
scooby_state_40f89a|4|0 29,0,0,0,0,0,0,0,0,0,0,0,0,0,0,29,
scooby_state_40f89a|26|0 29,0,0,0,0,0,0,0,0,0,0,0,0,0,0,29,
scooby_state_a4c443|24|0 10,3,2,1,0,2,1,0,0,1,0,6,0,0,2,28,
scooby_state_a5266d|15|0 6,0,6,0,2,0,0,0,0,2,1,6,3,0,2,28,
scooby_state_40f89a|39|0 28,0,0,0,0,0,0,0,0,0,0,0,0,0,0,28,
scooby_state_40f7cb|3|-1 4,24,0,0,0,0,0,0,0,0,0,0,0,0,0,28,
scooby_state_40f89a|32|0 28,0,0,0,0,0,0,0,0,0,0,0,0,0,0,28,
scooby_state_a5266d|22|0 7,0,3,2,1,1,1,0,0,1,1,10,1,0,0,28,
scooby_state_a4c443|38|0 8,4,2,1,0,1,2,1,0,0,0,6,0,0,3,28,
scooby_state_a5266d|19|0 6,1,10,0,0,0,1,0,0,0,0,7,0,2,1,28,
scooby_state_a4c443|61|0 14,0,2,2,1,1,0,1,1,1,1,1,2,0,1,28,
scooby_state_40f7cb|1|-1 4,24,0,0,0,0,0,0,0,0,0,0,0,0,0,28,
scooby_state_40f89a|25|0 27,0,0,0,0,0,0,0,1,0,0,0,0,0,0,28,
scooby_state_40f89a|17|0 28,0,0,0,0,0,0,0,0,0,0,0,0,0,0,28,
scooby_state_40f7cb|33|-1 3,25,0,0,0,0,0,0,0,0,0,0,0,0,0,28,
scooby_state_a4c443|0|0 14,5,0,0,1,0,1,1,0,0,0,3,1,0,1,27,
scooby_state_a4c443|11|0 11,2,1,1,0,1,0,0,2,1,2,3,2,1,0,27,
scooby_state_a4c443|32|0 13,4,0,0,0,0,2,1,1,2,1,1,0,0,2,27,
scooby_state_40f89a|19|0 27,0,0,0,0,0,0,0,0,0,0,0,0,0,0,27,
scooby_state_40f89a|50|0 27,0,0,0,0,0,0,0,0,0,0,0,0,0,0,27,
scooby_state_a5266d|63|0 7,0,3,2,0,0,0,0,2,1,0,7,2,0,3,27,
scooby_state_40f7cb|8|-1 1,26,0,0,0,0,0,0,0,0,0,0,0,0,0,27,
scooby_state_40f7c0|48|0 27,0,0,0,0,0,0,0,0,0,0,0,0,0,0,27,
scooby_state_a4c443|37|0 7,1,1,1,2,1,1,2,1,1,1,3,0,4,1,27,
scooby_state_40f89a|15|0 27,0,0,0,0,0,0,0,0,0,0,0,0,0,0,27,
scooby_state_40f7c0|51|0 27,0,0,0,0,0,0,0,0,0,0,0,0,0,0,27,
scooby_state_40f7cb|15|-1 3,24,0,0,0,0,0,0,0,0,0,0,0,0,0,27,
scooby_state_40f7c0|42|0 27,0,0,0,0,0,0,0,0,0,0,0,0,0,0,27,
scooby_state_a4c443|39|0 12,3,1,0,2,1,1,0,1,0,1,3,1,0,1,27,
scooby_state_40f89a|20|0 27,0,0,0,0,0,0,0,0,0,0,0,0,0,0,27,
scooby_state_40f8cc|38|-25 0,1,2,1,1,1,1,1,1,1,1,6,1,1,8,27,
scooby_state_40f89a|52|0 26,0,0,0,0,0,0,0,0,0,0,0,0,0,0,26,
scooby_state_40f89a|58|0 25,0,0,0,0,0,0,0,0,0,0,1,0,0,0,26,
scooby_state_40f7c0|22|0 26,0,0,0,0,0,0,0,0,0,0,0,0,0,0,26,
scooby_state_40f89a|41|0 24,0,0,1,0,0,0,0,0,0,1,0,0,0,0,26,
scooby_state_40f7cb|29|-1 4,22,0,0,0,0,0,0,0,0,0,0,0,0,0,26,
scooby_state_40f89a|44|0 25,0,0,0,0,0,1,0,0,0,0,0,0,0,0,26,
scooby_state_40f89a|40|0 26,0,0,0,0,0,0,0,0,0,0,0,0,0,0,26,
scooby_state_a4c443|60|0 14,1,0,0,1,0,1,0,0,0,0,5,0,1,3,26,
scooby_state_a4c443|20|0 3,1,0,1,2,1,0,3,0,0,3,6,2,1,3,26,
scooby_state_40f89a|36|0 26,0,0,0,0,0,0,0,0,0,0,0,0,0,0,26,
scooby_state_a4c443|29|0 15,1,1,1,1,1,1,1,2,1,0,0,0,0,1,26,
scooby_state_40f7cb|5|-1 3,23,0,0,0,0,0,0,0,0,0,0,0,0,0,26,
scooby_state_40f89a|47|0 26,0,0,0,0,0,0,0,0,0,0,0,0,0,0,26,
scooby_state_40f89a|16|0 26,0,0,0,0,0,0,0,0,0,0,0,0,0,0,26,
scooby_state_40f7c0|53|0 26,0,0,0,0,0,0,0,0,0,0,0,0,0,0,26,
scooby_state_a5266d|23|0 8,0,4,0,0,2,1,1,0,1,1,4,1,2,1,26,
scooby_state_a5266d|44|0 6,0,5,0,1,0,0,1,0,0,0,12,0,1,0,26,
scooby_state_a4c443|26|0 15,2,0,0,2,0,0,1,0,1,1,1,0,1,2,26,
scooby_state_40f7b0|4|-1 0,0,25,0,0,0,0,0,0,0,0,0,0,0,0,25,
scooby_state_40f7c0|23|0 25,0,0,0,0,0,0,0,0,0,0,0,0,0,0,25,
scooby_state_40f8cc|47|-16 25,0,0,0,0,0,0,0,0,0,0,0,0,0,0,25,
scooby_state_40f89a|22|0 25,0,0,0,0,0,0,0,0,0,0,0,0,0,0,25,
scooby_state_40f89a|14|0 25,0,0,0,0,0,0,0,0,0,0,0,0,0,0,25,
scooby_state_40f89a|49|0 25,0,0,0,0,0,0,0,0,0,0,0,0,0,0,25,
scooby_state_a4c443|33|0 15,0,0,0,1,2,0,1,1,0,1,1,0,1,2,25,
scooby_state_40f7cb|34|-1 5,20,0,0,0,0,0,0,0,0,0,0,0,0,0,25,
scooby_state_40f8cc|13|-50 4,1,2,2,1,2,2,1,3,1,1,1,1,1,2,25,
scooby_state_40f8cc|4|-59 25,0,0,0,0,0,0,0,0,0,0,0,0,0,0,25,
scooby_state_40f8cc|62|-1 24,0,0,0,0,0,0,0,0,0,0,1,0,0,0,25,
scooby_state_a4c443|13|0 8,2,1,0,0,1,2,1,2,1,1,3,1,0,2,25,
scooby_state_40f8cc|53|-10 0,2,2,2,2,1,1,1,1,1,1,4,2,3,2,25,
scooby_state_40f7cb|45|-1 3,21,0,0,0,0,0,0,0,0,0,0,0,0,0,24,
scooby_state_a5266d|5|0 7,0,3,0,2,1,0,1,0,0,1,4,1,3,1,24,
scooby_state_40f7b9|50|28 24,0,0,0,0,0,0,0,0,0,0,0,0,0,0,24,
scooby_state_40f89a|24|0 23,0,0,0,0,0,0,0,0,0,0,0,0,0,1,24,
scooby_state_40f89a|27|0 23,0,0,0,0,0,0,0,0,0,0,0,0,0,1,24,
scooby_state_40f7b0|3|-1 0,0,24,0,0,0,0,0,0,0,0,0,0,0,0,24,
scooby_state_40f7c0|49|0 24,0,0,0,0,0,0,0,0,0,0,0,0,0,0,24,
scooby_state_40f89a|10|0 24,0,0,0,0,0,0,0,0,0,0,0,0,0,0,24,
scooby_state_40f7b0|39|-1 0,0,24,0,0,0,0,0,0,0,0,0,0,0,0,24,
scooby_state_40f89a|2|0 24,0,0,0,0,0,0,0,0,0,0,0,0,0,0,24,
scooby_state_40f7b0|44|-1 0,0,24,0,0,0,0,0,0,0,0,0,0,0,0,24,
scooby_state_a5266d|13|0 5,1,6,0,2,0,0,1,0,0,2,6,0,0,1,24,
scooby_state_a4c443|62|0 14,2,1,0,0,0,0,0,0,0,0,4,0,1,2,24,
scooby_state_40f89a|55|0 24,0,0,0,0,0,0,0,0,0,0,0,0,0,0,24,
scooby_state_40f89a|8|0 23,0,0,0,0,0,0,1,0,0,0,0,0,0,0,24,
scooby_state_40f89a|56|0 24,0,0,0,0,0,0,0,0,0,0,0,0,0,0,24,
scooby_state_40f89a|48|0 24,0,0,0,0,0,0,0,0,0,0,0,0,0,0,24,
scooby_state_40f89a|63|0 22,0,0,0,0,0,1,0,0,0,0,0,0,0,0,23,
scooby_state_40f89a|59|0 22,0,0,0,0,1,0,0,0,0,0,0,0,0,0,23,
scooby_state_a5266d|17|0 4,0,7,1,0,2,0,0,0,0,0,9,0,0,0,23,
scooby_state_a4c443|40|0 9,1,1,0,0,0,1,1,1,1,0,4,1,1,2,23,
scooby_state_a5266d|18|0 7,0,7,1,0,0,1,0,1,1,0,4,0,1,0,23,
scooby_state_40f7b9|8|4 23,0,0,0,0,0,0,0,0,0,0,0,0,0,0,23,
scooby_state_40f89a|37|0 23,0,0,0,0,0,0,0,0,0,0,0,0,0,0,23,
scooby_state_40f7b0|11|-1 0,0,23,0,0,0,0,0,0,0,0,0,0,0,0,23,
scooby_state_40f7b0|35|-1 0,0,23,0,0,0,0,0,0,0,0,0,0,0,0,23,
scooby_state_40f89a|35|0 20,1,0,0,0,0,0,1,0,0,0,0,0,1,0,23,
scooby_state_a5266d|43|0 6,0,1,1,0,3,1,0,1,0,0,7,2,1,0,23,
scooby_state_40f89a|6|0 23,0,0,0,0,0,0,0,0,0,0,0,0,0,0,23,
scooby_state_a5266d|52|0 10,0,3,0,0,1,1,1,0,0,2,4,0,1,0,23,
scooby_state_40f89a|12|0 23,0,0,0,0,0,0,0,0,0,0,0,0,0,0,23,
scooby_state_40f89a|43|0 22,0,1,0,0,0,0,0,0,0,0,0,0,0,0,23,
scooby_state_40f7b0|23|-1 0,0,23,0,0,0,0,0,0,0,0,0,0,0,0,23,
scooby_state_40f89a|29|0 23,0,0,0,0,0,0,0,0,0,0,0,0,0,0,23,
scooby_state_40f7b0|0|-1 0,0,23,0,0,0,0,0,0,0,0,0,0,0,0,23,
scooby_state_40f7b0|54|-1 0,0,23,0,0,0,0,0,0,0,0,0,0,0,0,23,
scooby_state_40f8cc|32|-31 11,1,1,1,1,1,1,1,1,1,1,1,1,0,0,23,
scooby_state_a4c443|42|0 7,0,1,0,1,1,0,1,2,1,0,4,0,2,2,22,
scooby_state_a5266d|56|0 6,1,6,0,1,0,2,0,0,0,0,3,0,2,1,22,
scooby_state_40f8cc|63|0 7,0,0,0,0,0,0,0,0,0,0,15,0,0,0,22,
scooby_state_a4c443|58|0 5,2,2,2,1,1,0,0,0,1,0,4,2,1,1,22,
scooby_state_a5266d|25|0 5,1,3,1,0,2,0,0,0,1,0,5,1,3,0,22,
scooby_state_40f8cc|19|-44 22,0,0,0,0,0,0,0,0,0,0,0,0,0,0,22,
scooby_state_40f89a|11|0 22,0,0,0,0,0,0,0,0,0,0,0,0,0,0,22,
scooby_state_a4c443|2|0 11,2,1,0,1,0,0,1,0,1,1,1,0,0,3,22,
scooby_state_40f8cc|49|-14 22,0,0,0,0,0,0,0,0,0,0,0,0,0,0,22,
scooby_state_a4c443|56|0 10,2,0,1,0,0,1,1,1,0,1,2,1,0,2,22,
scooby_state_a5266d|53|0 3,0,3,1,0,0,0,1,0,1,0,10,1,1,1,22,
scooby_state_40f89a|23|0 20,0,0,0,0,0,0,0,0,0,0,0,0,1,0,21,
scooby_state_40f8cc|2|-61 21,0,0,0,0,0,0,0,0,0,0,0,0,0,0,21,
scooby_state_40f89a|60|0 20,0,0,0,0,0,0,0,0,0,0,0,1,0,0,21,
scooby_state_40f89a|18|0 21,0,0,0,0,0,0,0,0,0,0,0,0,0,0,21,
scooby_state_40f89a|38|0 20,0,0,0,0,0,0,0,0,1,0,0,0,0,0,21,
scooby_state_40f7c0|62|-1 21,0,0,0,0,0,0,0,0,0,0,0,0,0,0,21,
scooby_state_40f7b0|25|-1 0,0,21,0,0,0,0,0,0,0,0,0,0,0,0,21,
scooby_state_40f89a|45|0 19,0,0,1,0,0,1,0,0,0,0,0,0,0,0,21,
scooby_state_a4c443|21|0 6,1,1,0,0,1,1,0,1,1,0,5,0,1,3,21,
scooby_state_40f7b0|45|-1 0,0,21,0,0,0,0,0,0,0,0,0,0,0,0,21,
scooby_state_a5266d|42|0 6,0,6,0,2,0,0,0,0,0,1,4,0,0,2,21,
scooby_state_a5266d|14|0 8,0,5,1,0,0,1,0,1,0,1,3,0,0,1,21,
scooby_state_40f7b0|61|-1 0,0,21,0,0,0,0,0,0,0,0,0,0,0,0,21,
scooby_state_a5266d|16|0 5,0,4,0,0,1,0,2,0,0,0,8,0,1,0,21,
scooby_state_a5266d|57|0 7,1,5,1,0,0,0,0,1,1,0,4,0,0,1,21,
scooby_state_40f7b0|1|-1 0,0,21,0,0,0,0,0,0,0,0,0,0,0,0,21,
scooby_state_40f7b0|49|-1 0,0,21,0,0,0,0,0,0,0,0,0,0,0,0,21,
scooby_state_40f89a|13|0 21,0,0,0,0,0,0,0,0,0,0,0,0,0,0,21,
scooby_state_40f7b0|42|-1 0,0,20,0,0,0,0,0,0,0,0,0,0,0,0,20,
scooby_state_40f8cc|14|-49 20,0,0,0,0,0,0,0,0,0,0,0,0,0,0,20,
scooby_state_40f8cc|17|-46 20,0,0,0,0,0,0,0,0,0,0,0,0,0,0,20,
scooby_state_a5266d|6|0 7,0,6,1,1,1,0,0,0,0,1,3,0,0,0,20,
scooby_state_40f7cb|17|-1 2,18,0,0,0,0,0,0,0,0,0,0,0,0,0,20,
scooby_state_40f89a|62|0 20,0,0,0,0,0,0,0,0,0,0,0,0,0,0,20,
scooby_state_40f7b0|34|-1 0,0,20,0,0,0,0,0,0,0,0,0,0,0,0,20,
scooby_state_40f89a|61|0 19,0,0,0,0,0,0,1,0,0,0,0,0,0,0,20,
scooby_state_40f7b0|21|-1 0,0,20,0,0,0,0,0,0,0,0,0,0,0,0,20,
scooby_state_40f7b0|15|-1 0,0,20,0,0,0,0,0,0,0,0,0,0,0,0,20,
scooby_state_a4c443|54|0 9,4,2,0,1,1,0,1,0,0,0,1,0,0,1,20,
scooby_state_40f8cc|40|-23 20,0,0,0,0,0,0,0,0,0,0,0,0,0,0,20,
scooby_state_40f7b0|46|-1 0,0,20,0,0,0,0,0,0,0,0,0,0,0,0,20,
scooby_state_a5266d|37|0 5,2,1,0,0,1,0,0,1,0,0,8,0,1,1,20,
scooby_state_40f89a|42|0 19,0,1,0,0,0,0,0,0,0,0,0,0,0,0,20,
scooby_state_a4c443|35|0 11,2,0,1,0,1,0,1,0,0,0,4,0,0,0,20,
scooby_state_a5266d|61|0 4,3,1,1,1,0,2,0,1,0,0,6,0,1,0,20,
scooby_state_40f89a|57|0 20,0,0,0,0,0,0,0,0,0,0,0,0,0,0,20,
scooby_state_40f89a|21|0 20,0,0,0,0,0,0,0,0,0,0,0,0,0,0,20,
scooby_state_40f89a|34|0 20,0,0,0,0,0,0,0,0,0,0,0,0,0,0,20,
scooby_state_40f7b0|53|-1 0,0,20,0,0,0,0,0,0,0,0,0,0,0,0,20,
scooby_state_a4c443|19|0 3,5,1,1,0,0,1,0,1,0,0,4,2,1,0,19,
scooby_state_40f7b0|56|-1 0,1,18,0,0,0,0,0,0,0,0,0,0,0,0,19,
scooby_state_40f7b0|30|-1 0,0,19,0,0,0,0,0,0,0,0,0,0,0,0,19,
scooby_state_40f8cc|0|-63 17,0,0,0,0,0,0,0,0,0,0,2,0,0,0,19,
scooby_state_40f8cc|34|-29 1,0,1,1,0,1,0,0,0,0,0,2,1,4,8,19,
scooby_state_a52672|2|0 6,0,0,2,0,0,0,0,0,0,1,7,1,0,2,19,
scooby_state_40f7b0|43|-1 0,0,19,0,0,0,0,0,0,0,0,0,0,0,0,19,
scooby_state_40f7b0|17|-1 0,0,19,0,0,0,0,0,0,0,0,0,0,0,0,19,
scooby_state_a4c443|34|0 12,2,0,0,0,1,1,1,0,0,0,1,1,0,0,19,
scooby_state_a52672|1|0 6,0,0,0,0,2,0,0,1,0,0,4,0,1,5,19,
scooby_state_40f7b0|38|-1 0,0,19,0,0,0,0,0,0,0,0,0,0,0,0,19,
scooby_state_40f7b0|5|-1 0,0,19,0,0,0,0,0,0,0,0,0,0,0,0,19,
scooby_state_a4c443|25|0 7,2,0,1,1,1,0,0,1,0,0,4,1,0,0,18,
scooby_state_a5266d|4|0 8,1,3,0,1,0,1,0,1,0,1,1,1,0,0,18,
scooby_state_40f89a|9|0 18,0,0,0,0,0,0,0,0,0,0,0,0,0,0,18,
scooby_state_40f8cc|30|-33 0,0,0,0,0,1,0,0,0,0,0,16,0,0,1,18,
scooby_state_40f7b0|0|0 0,0,18,0,0,0,0,0,0,0,0,0,0,0,0,18,
scooby_state_40f8cc|3|-60 18,0,0,0,0,0,0,0,0,0,0,0,0,0,0,18,
scooby_state_40f8cc|29|-34 0,18,0,0,0,0,0,0,0,0,0,0,0,0,0,18,
scooby_state_40f8cc|6|-57 14,0,0,0,0,0,0,0,0,0,0,4,0,0,0,18,
scooby_state_40f8cc|44|-19 0,1,1,2,1,1,1,2,1,1,1,2,1,1,2,18,
scooby_state_a5266d|50|0 3,1,3,0,1,0,0,0,1,1,1,6,0,0,1,18,
scooby_state_a5266d|38|0 6,0,3,1,0,0,0,1,1,0,0,4,0,2,0,18,
scooby_state_a5266d|8|0 5,1,4,0,0,1,0,2,0,0,0,4,0,0,1,18,
scooby_state_a5266d|60|0 5,0,4,1,0,0,0,0,0,0,0,7,0,0,1,18,
scooby_state_40f7b0|51|-1 0,0,18,0,0,0,0,0,0,0,0,0,0,0,0,18,
scooby_state_a5266d|10|0 6,0,4,0,0,1,0,2,0,0,0,4,1,0,0,18,
scooby_state_40f7b0|31|-1 0,0,18,0,0,0,0,0,0,0,0,0,0,0,0,18,
scooby_state_40f8cc|36|-27 18,0,0,0,0,0,0,0,0,0,0,0,0,0,0,18,
scooby_state_40f89a|31|0 18,0,0,0,0,0,0,0,0,0,0,0,0,0,0,18,
[...]
scooby_state_40f89a|49|1 1,0,0,0,0,0,0,0,0,0,0,0,0,0,0,1,
scooby_state_a52672|42|29 0,1,0,0,0,0,0,0,0,0,0,0,0,0,0,1,
scooby_state_40f89a|48|29 1,0,0,0,0,0,0,0,0,0,0,0,0,0,0,1,
scooby_state_a525fb|21|-15 1,0,0,0,0,0,0,0,0,0,0,0,0,0,0,1,
scooby_state_40f7b0|32|20 0,0,1,0,0,0,0,0,0,0,0,0,0,0,0,1,
scooby_state_40f7c0|23|-12 1,0,0,0,0,0,0,0,0,0,0,0,0,0,0,1,
scooby_state_a5266d|41|3 1,0,0,0,0,0,0,0,0,0,0,0,0,0,0,1,
scooby_state_40f7b0|57|21 0,0,1,0,0,0,0,0,0,0,0,0,0,0,0,1,
scooby_state_40f7c0|1|-4 1,0,0,0,0,0,0,0,0,0,0,0,0,0,0,1,
scooby_state_40f7c0|17|17 1,0,0,0,0,0,0,0,0,0,0,0,0,0,0,1,
scooby_state_40f7c0|55|16 1,0,0,0,0,0,0,0,0,0,0,0,0,0,0,1,
scooby_state_40f7c0|62|18 1,0,0,0,0,0,0,0,0,0,0,0,0,0,0,1,
scooby_state_40f7b0|36|6 0,0,1,0,0,0,0,0,0,0,0,0,0,0,0,1,
scooby_state_40f7c0|11|-3 1,0,0,0,0,0,0,0,0,0,0,0,0,0,0,1,
scooby_state_a52672|11|7 1,0,0,0,0,0,0,0,0,0,0,0,0,0,0,1,
scooby_state_40f89a|17|1 1,0,0,0,0,0,0,0,0,0,0,0,0,0,0,1,
scooby_state_a52672|62|8 0,0,0,0,0,0,0,0,0,0,0,0,0,0,1,1,
scooby_state_40f7c0|19|-32 1,0,0,0,0,0,0,0,0,0,0,0,0,0,0,1,
scooby_state_40f7cb|25|2 0,1,0,0,0,0,0,0,0,0,0,0,0,0,0,1,
scooby_state_a5266d|57|6 1,0,0,0,0,0,0,0,0,0,0,0,0,0,0,1,
scooby_state_40f7cb|13|2 0,1,0,0,0,0,0,0,0,0,0,0,0,0,0,1,
scooby_state_a52672|35|6 0,0,0,0,0,0,0,0,0,0,0,0,0,0,1,1,
scooby_state_40f7c0|52|-6 1,0,0,0,0,0,0,0,0,0,0,0,0,0,0,1,
scooby_state_40f7c0|29|17 1,0,0,0,0,0,0,0,0,0,0,0,0,0,0,1,
scooby_state_40f7b0|49|43 0,0,1,0,0,0,0,0,0,0,0,0,0,0,0,1,
scooby_state_a5266d|50|5 0,0,0,0,0,0,0,0,0,0,0,0,1,0,0,1,
scooby_state_40f7c0|56|16 1,0,0,0,0,0,0,0,0,0,0,0,0,0,0,1,
scooby_state_40f7b0|22|16 0,0,1,0,0,0,0,0,0,0,0,0,0,0,0,1,
scooby_state_a5266d|44|4 1,0,0,0,0,0,0,0,0,0,0,0,0,0,0,1,
scooby_state_a52672|33|-20 1,0,0,0,0,0,0,0,0,0,0,0,0,0,0,1,
scooby_state_a52608|45|0 1,0,0,0,0,0,0,0,0,0,0,0,0,0,0,1,
scooby_state_a5266d|3|3 1,0,0,0,0,0,0,0,0,0,0,0,0,0,0,1,
scooby_state_a52672|53|32 1,0,0,0,0,0,0,0,0,0,0,0,0,0,0,1,
scooby_state_40f7cb|12|2 0,1,0,0,0,0,0,0,0,0,0,0,0,0,0,1,
scooby_state_a52672|37|-18 1,0,0,0,0,0,0,0,0,0,0,0,0,0,0,1,
scooby_state_40f7b0|21|10 0,0,1,0,0,0,0,0,0,0,0,0,0,0,0,1,
scooby_state_40f7b0|55|19 0,0,1,0,0,0,0,0,0,0,0,0,0,0,0,1,
scooby_state_40f7b0|54|21 0,0,1,0,0,0,0,0,0,0,0,0,0,0,0,1,
scooby_state_a4c443|50|2 0,1,0,0,0,0,0,0,0,0,0,0,0,0,0,1,
scooby_state_40f7b0|53|21 0,0,1,0,0,0,0,0,0,0,0,0,0,0,0,1,
scooby_state_a52672|10|3 1,0,0,0,0,0,0,0,0,0,0,0,0,0,0,1,
scooby_state_40f7b0|23|19 0,0,1,0,0,0,0,0,0,0,0,0,0,0,0,1,
scooby_state_40f7b0|36|32 0,0,1,0,0,0,0,0,0,0,0,0,0,0,0,1,
scooby_state_a52672|60|10 1,0,0,0,0,0,0,0,0,0,0,0,0,0,0,1,
scooby_state_40f7cb|20|2 0,1,0,0,0,0,0,0,0,0,0,0,0,0,0,1,
scooby_state_a52672|15|6 0,0,0,0,0,0,0,0,0,0,0,0,0,0,1,1,
scooby_state_40f7c0|4|-53 1,0,0,0,0,0,0,0,0,0,0,0,0,0,0,1,
scooby_state_a52672|63|19 0,1,0,0,0,0,0,0,0,0,0,0,0,0,0,1,
scooby_state_a525fb|16|0 1,0,0,0,0,0,0,0,0,0,0,0,0,0,0,1,
scooby_state_40f7c0|63|49 1,0,0,0,0,0,0,0,0,0,0,0,0,0,0,1,
scooby_state_40f7c0|43|33 1,0,0,0,0,0,0,0,0,0,0,0,0,0,0,1,
scooby_state_40f7b9|63|3 1,0,0,0,0,0,0,0,0,0,0,0,0,0,0,1,
scooby_state_40f534|58|2 1,0,0,0,0,0,0,0,0,0,0,0,0,0,0,1,
scooby_state_40f7c0|29|-14 1,0,0,0,0,0,0,0,0,0,0,0,0,0,0,1,
scooby_state_40f7c0|61|57 1,0,0,0,0,0,0,0,0,0,0,0,0,0,0,1,
scooby_state_a52672|63|32 1,0,0,0,0,0,0,0,0,0,0,0,0,0,0,1,
scooby_state_40f7c0|60|5 1,0,0,0,0,0,0,0,0,0,0,0,0,0,0,1,
scooby_state_40f7c0|32|6 1,0,0,0,0,0,0,0,0,0,0,0,0,0,0,1,
scooby_state_a52672|19|7 1,0,0,0,0,0,0,0,0,0,0,0,0,0,0,1,
scooby_state_40f534|5|-1 1,0,0,0,0,0,0,0,0,0,0,0,0,0,0,1,
scooby_state_40f7c0|43|-13 1,0,0,0,0,0,0,0,0,0,0,0,0,0,0,1,
scooby_state_40f7c0|42|-10 1,0,0,0,0,0,0,0,0,0,0,0,0,0,0,1,
scooby_state_40f7c0|12|-12 1,0,0,0,0,0,0,0,0,0,0,0,0,0,0,1,
scooby_state_a52672|9|4 0,1,0,0,0,0,0,0,0,0,0,0,0,0,0,1,
scooby_state_a52672|7|7 1,0,0,0,0,0,0,0,0,0,0,0,0,0,0,1,
scooby_state_40f8cc|33|1 0,0,0,0,0,0,0,0,0,0,0,1,0,0,0,1,
scooby_state_a52672|18|7 1,0,0,0,0,0,0,0,0,0,0,0,0,0,0,1,
scooby_state_a525ef|56|1 0,0,1,0,0,0,0,0,0,0,0,0,0,0,0,1,
scooby_state_a525fb|3|-36 0,0,0,1,0,0,0,0,0,0,0,0,0,0,0,1,
scooby_state_40f7b0|61|12 0,0,1,0,0,0,0,0,0,0,0,0,0,0,0,1,
scooby_state_a525fb|40|-15 1,0,0,0,0,0,0,0,0,0,0,0,0,0,0,1,
scooby_state_40f7c0|23|17 1,0,0,0,0,0,0,0,0,0,0,0,0,0,0,1,
scooby_state_a52672|56|8 1,0,0,0,0,0,0,0,0,0,0,0,0,0,0,1,
scooby_state_40f7c0|53|16 1,0,0,0,0,0,0,0,0,0,0,0,0,0,0,1,
scooby_state_40f7b0|46|0 0,0,1,0,0,0,0,0,0,0,0,0,0,0,0,1,
scooby_state_40f534|30|0 1,0,0,0,0,0,0,0,0,0,0,0,0,0,0,1,
scooby_state_a5266d|34|6 1,0,0,0,0,0,0,0,0,0,0,0,0,0,0,1,
scooby_state_a4c443|45|3 1,0,0,0,0,0,0,0,0,0,0,0,0,0,0,1,
scooby_state_40f7b0|42|32 0,0,1,0,0,0,0,0,0,0,0,0,0,0,0,1,
scooby_state_40f7c0|35|24 1,0,0,0,0,0,0,0,0,0,0,0,0,0,0,1,
scooby_state_40f70f|5|2 1,0,0,0,0,0,0,0,0,0,0,0,0,0,0,1,
scooby_state_40f7b9|61|-2 1,0,0,0,0,0,0,0,0,0,0,0,0,0,0,1,
scooby_state_40f7c0|22|-33 1,0,0,0,0,0,0,0,0,0,0,0,0,0,0,1,
scooby_state_a525d0|23|1 1,0,0,0,0,0,0,0,0,0,0,0,0,0,0,1,
scooby_state_40f7cb|58|2 0,1,0,0,0,0,0,0,0,0,0,0,0,0,0,1,
scooby_state_40f7b0|44|11 0,0,1,0,0,0,0,0,0,0,0,0,0,0,0,1,
scooby_state_a52683|26|0 1,0,0,0,0,0,0,0,0,0,0,0,0,0,0,1,
scooby_state_a52672|35|7 1,0,0,0,0,0,0,0,0,0,0,0,0,0,0,1,
scooby_state_40f7b0|13|11 0,0,1,0,0,0,0,0,0,0,0,0,0,0,0,1,
scooby_state_a52602|24|1 1,0,0,0,0,0,0,0,0,0,0,0,0,0,0,1,
scooby_state_40f70f|0|-41 1,0,0,0,0,0,0,0,0,0,0,0,0,0,0,1,
scooby_state_a52672|14|-12 0,0,0,0,0,1,0,0,0,0,0,0,0,0,0,1,
scooby_state_a52672|30|-22 0,0,0,0,0,0,0,0,0,0,0,1,0,0,0,1,
scooby_state_40f7b0|63|10 0,0,1,0,0,0,0,0,0,0,0,0,0,0,0,1,
scooby_state_40f7c0|25|16 1,0,0,0,0,0,0,0,0,0,0,0,0,0,0,1,
scooby_state_40f7cb|28|2 0,1,0,0,0,0,0,0,0,0,0,0,0,0,0,1,
scooby_state_40f7c0|18|17 1,0,0,0,0,0,0,0,0,0,0,0,0,0,0,1,
scooby_state_a525ef|49|0 0,0,0,0,0,0,0,0,0,0,0,1,0,0,0,1,
scooby_state_40f7c0|35|-28 1,0,0,0,0,0,0,0,0,0,0,0,0,0,0,1,
scooby_state_a5266d|38|4 1,0,0,0,0,0,0,0,0,0,0,0,0,0,0,1,
scooby_state_40f7c0|17|-4 1,0,0,0,0,0,0,0,0,0,0,0,0,0,0,1,
scooby_state_40f7c0|0|-26 1,0,0,0,0,0,0,0,0,0,0,0,0,0,0,1,
scooby_state_a52672|31|4 0,1,0,0,0,0,0,0,0,0,0,0,0,0,0,1,
scooby_state_a52672|37|-26 1,0,0,0,0,0,0,0,0,0,0,0,0,0,0,1,
scooby_state_40f7c0|17|-19 1,0,0,0,0,0,0,0,0,0,0,0,0,0,0,1,
scooby_state_40f7c0|1|-32 1,0,0,0,0,0,0,0,0,0,0,0,0,0,0,1,
scooby_state_a4c443|53|2 0,1,0,0,0,0,0,0,0,0,0,0,0,0,0,1,
scooby_state_40f70f|13|2 1,0,0,0,0,0,0,0,0,0,0,0,0,0,0,1,
scooby_state_40f7c0|54|17 1,0,0,0,0,0,0,0,0,0,0,0,0,0,0,1,
scooby_state_a52672|10|-31 1,0,0,0,0,0,0,0,0,0,0,0,0,0,0,1,
scooby_state_a52672|32|8 0,0,0,0,0,0,0,0,0,0,0,0,0,1,0,1,
scooby_state_a5266d|35|6 1,0,0,0,0,0,0,0,0,0,0,0,0,0,0,1,
scooby_state_40f7c0|18|-3 1,0,0,0,0,0,0,0,0,0,0,0,0,0,0,1,
scooby_state_a52672|46|6 0,0,0,0,0,0,0,0,0,0,0,0,0,0,1,1,
scooby_state_a525b0|22|-4 1,0,0,0,0,0,0,0,0,0,0,0,0,0,0,1,
scooby_state_40f7c0|55|33 1,0,0,0,0,0,0,0,0,0,0,0,0,0,0,1,
scooby_state_a52672|60|5 0,0,0,0,0,0,0,0,0,0,0,0,0,1,0,1,
scooby_state_a4c443|46|19 0,1,0,0,0,0,0,0,0,0,0,0,0,0,0,1,
scooby_state_40f7b9|62|0 0,1,0,0,0,0,0,0,0,0,0,0,0,0,0,1,
scooby_state_40f7c0|33|12 0,0,0,1,0,0,0,0,0,0,0,0,0,0,0,1,
scooby_state_a4c443|30|5 1,0,0,0,0,0,0,0,0,0,0,0,0,0,0,1,
scooby_state_a52672|57|3 1,0,0,0,0,0,0,0,0,0,0,0,0,0,0,1,
scooby_state_a52672|3|-20 1,0,0,0,0,0,0,0,0,0,0,0,0,0,0,1,
scooby_state_a52672|2|-29 1,0,0,0,0,0,0,0,0,0,0,0,0,0,0,1,
scooby_state_a525ef|6|1 0,0,1,0,0,0,0,0,0,0,0,0,0,0,0,1,
scooby_state_40f7c0|56|-7 1,0,0,0,0,0,0,0,0,0,0,0,0,0,0,1,
scooby_state_a525fb|6|-57 1,0,0,0,0,0,0,0,0,0,0,0,0,0,0,1,
scooby_state_a5266d|43|7 1,0,0,0,0,0,0,0,0,0,0,0,0,0,0,1,
scooby_state_40f8c7|35|5 1,0,0,0,0,0,0,0,0,0,0,0,0,0,0,1,
scooby_state_40f70f|0|-26 1,0,0,0,0,0,0,0,0,0,0,0,0,0,0,1,
scooby_state_40f7c0|8|-55 1,0,0,0,0,0,0,0,0,0,0,0,0,0,0,1,
scooby_state_40f7b0|46|13 0,0,1,0,0,0,0,0,0,0,0,0,0,0,0,1,
scooby_state_40f7b0|42|16 0,0,1,0,0,0,0,0,0,0,0,0,0,0,0,1,
scooby_state_40f7c0|8|-53 1,0,0,0,0,0,0,0,0,0,0,0,0,0,0,1,
scooby_state_40f7c0|0|-47 1,0,0,0,0,0,0,0,0,0,0,0,0,0,0,1,
scooby_state_a52672|55|9 0,0,0,0,0,0,0,0,0,0,0,0,1,0,0,1,
scooby_state_40f8cc|38|1 0,0,0,0,0,0,0,0,0,0,0,1,0,0,0,1,
scooby_state_a52672|50|-12 0,0,0,0,1,0,0,0,0,0,0,0,0,0,0,1,
scooby_state_40f7b9|0|0 1,0,0,0,0,0,0,0,0,0,0,0,0,0,0,1,
scooby_state_40f7c0|55|18 1,0,0,0,0,0,0,0,0,0,0,0,0,0,0,1,
scooby_state_40f7c0|23|-32 1,0,0,0,0,0,0,0,0,0,0,0,0,0,0,1,
scooby_state_a4c443|38|6 1,0,0,0,0,0,0,0,0,0,0,0,0,0,0,1,
scooby_state_40f4f0|19|0 1,0,0,0,0,0,0,0,0,0,0,0,0,0,0,1,
scooby_state_40f7c0|50|33 1,0,0,0,0,0,0,0,0,0,0,0,0,0,0,1,
scooby_state_40f7b0|53|14 0,0,1,0,0,0,0,0,0,0,0,0,0,0,0,1,
scooby_state_a52672|16|-17 1,0,0,0,0,0,0,0,0,0,0,0,0,0,0,1,
scooby_state_a52672|12|-23 1,0,0,0,0,0,0,0,0,0,0,0,0,0,0,1,
scooby_state_a52672|39|11 1,0,0,0,0,0,0,0,0,0,0,0,0,0,0,1,
scooby_state_a52672|8|-16 0,0,0,1,0,0,0,0,0,0,0,0,0,0,0,1,
scooby_state_40f7cb|10|2 0,1,0,0,0,0,0,0,0,0,0,0,0,0,0,1,
scooby_state_40f7b0|44|14 0,0,1,0,0,0,0,0,0,0,0,0,0,0,0,1,
scooby_state_a52608|1|0 1,0,0,0,0,0,0,0,0,0,0,0,0,0,0,1,
scooby_state_a52672|26|12 1,0,0,0,0,0,0,0,0,0,0,0,0,0,0,1,
scooby_state_40f7b0|56|16 0,0,1,0,0,0,0,0,0,0,0,0,0,0,0,1,
scooby_state_a52672|43|17 1,0,0,0,0,0,0,0,0,0,0,0,0,0,0,1,
scooby_state_a525fb|2|0 1,0,0,0,0,0,0,0,0,0,0,0,0,0,0,1,
scooby_state_a525fb|12|0 1,0,0,0,0,0,0,0,0,0,0,0,0,0,0,1,
scooby_state_40f7c0|24|-39 1,0,0,0,0,0,0,0,0,0,0,0,0,0,0,1,
scooby_state_40f7c0|54|16 1,0,0,0,0,0,0,0,0,0,0,0,0,0,0,1,
scooby_state_40f8cc|0|-1 1,0,0,0,0,0,0,0,0,0,0,0,0,0,0,1,
scooby_state_a52672|18|5 1,0,0,0,0,0,0,0,0,0,0,0,0,0,0,1,
scooby_state_40f89a|25|21 0,0,1,0,0,0,0,0,0,0,0,0,0,0,0,1,
scooby_state_40f7c0|42|-4 1,0,0,0,0,0,0,0,0,0,0,0,0,0,0,1,
scooby_state_40f7c0|34|-6 1,0,0,0,0,0,0,0,0,0,0,0,0,0,0,1,
scooby_state_40f7b0|28|26 0,0,1,0,0,0,0,0,0,0,0,0,0,0,0,1,
scooby_state_a52672|61|17 1,0,0,0,0,0,0,0,0,0,0,0,0,0,0,1,
scooby_state_40f89a|49|15 1,0,0,0,0,0,0,0,0,0,0,0,0,0,0,1,
scooby_state_40f70f|0|-52 1,0,0,0,0,0,0,0,0,0,0,0,0,0,0,1,
scooby_state_a525ef|26|1 0,0,0,0,0,0,0,0,0,0,0,1,0,0,0,1,
scooby_state_a52672|60|4 0,1,0,0,0,0,0,0,0,0,0,0,0,0,0,1,
scooby_state_40f7c0|21|12 1,0,0,0,0,0,0,0,0,0,0,0,0,0,0,1,
scooby_state_40f7b0|20|9 0,0,1,0,0,0,0,0,0,0,0,0,0,0,0,1,
scooby_state_40f7c0|44|18 1,0,0,0,0,0,0,0,0,0,0,0,0,0,0,1,
scooby_state_40f7cb|15|-7 0,1,0,0,0,0,0,0,0,0,0,0,0,0,0,1,
scooby_state_a525ef|14|0 1,0,0,0,0,0,0,0,0,0,0,0,0,0,0,1,
scooby_state_40f7b0|55|23 0,0,1,0,0,0,0,0,0,0,0,0,0,0,0,1,
scooby_state_a52672|48|48 1,0,0,0,0,0,0,0,0,0,0,0,0,0,0,1,
scooby_state_a4c443|36|2 0,1,0,0,0,0,0,0,0,0,0,0,0,0,0,1,
scooby_state_a4c443|60|2 0,0,0,0,0,1,0,0,0,0,0,0,0,0,0,1,
scooby_state_40f7c0|3|-55 1,0,0,0,0,0,0,0,0,0,0,0,0,0,0,1,
scooby_state_40f7b0|55|3 0,0,1,0,0,0,0,0,0,0,0,0,0,0,0,1,
scooby_state_40f7c0|50|34 1,0,0,0,0,0,0,0,0,0,0,0,0,0,0,1,
scooby_state_a5266d|60|2 1,0,0,0,0,0,0,0,0,0,0,0,0,0,0,1,
scooby_state_40f8cc|49|-1 1,0,0,0,0,0,0,0,0,0,0,0,0,0,0,1,
scooby_state_a5266d|7|2 1,0,0,0,0,0,0,0,0,0,0,0,0,0,0,1,
scooby_state_a52672|55|42 0,0,0,0,0,0,0,0,0,0,0,1,0,0,0,1,
scooby_state_a5266d|18|2 1,0,0,0,0,0,0,0,0,0,0,0,0,0,0,1,
scooby_state_40f534|24|0 1,0,0,0,0,0,0,0,0,0,0,0,0,0,0,1,
scooby_state_40f7c0|7|4 1,0,0,0,0,0,0,0,0,0,0,0,0,0,0,1,
scooby_state_40f7b0|16|14 0,0,1,0,0,0,0,0,0,0,0,0,0,0,0,1,
scooby_state_40f7c0|0|-2 1,0,0,0,0,0,0,0,0,0,0,0,0,0,0,1,
scooby_state_40f7b0|38|17 0,0,1,0,0,0,0,0,0,0,0,0,0,0,0,1,
scooby_state_a52672|34|23 0,0,0,0,0,0,0,0,0,0,0,1,0,0,0,1,
scooby_state_a5266d|36|27 1,0,0,0,0,0,0,0,0,0,0,0,0,0,0,1,
scooby_state_40f7c0|18|16 1,0,0,0,0,0,0,0,0,0,0,0,0,0,0,1,
scooby_state_40f7b0|9|4 0,0,1,0,0,0,0,0,0,0,0,0,0,0,0,1,
scooby_state_a52672|62|51 1,0,0,0,0,0,0,0,0,0,0,0,0,0,0,1,
scooby_state_a5266d|36|2 1,0,0,0,0,0,0,0,0,0,0,0,0,0,0,1,
scooby_state_40f7b0|44|35 0,0,1,0,0,0,0,0,0,0,0,0,0,0,0,1,
scooby_state_40f7b0|41|12 0,0,1,0,0,0,0,0,0,0,0,0,0,0,0,1,
scooby_state_a52672|9|-29 1,0,0,0,0,0,0,0,0,0,0,0,0,0,0,1,
scooby_state_40f7c0|28|-18 1,0,0,0,0,0,0,0,0,0,0,0,0,0,0,1,
scooby_state_a525ef|36|0 1,0,0,0,0,0,0,0,0,0,0,0,0,0,0,1,
scooby_state_40f534|6|0 1,0,0,0,0,0,0,0,0,0,0,0,0,0,0,1,
scooby_state_40f7c0|19|-18 1,0,0,0,0,0,0,0,0,0,0,0,0,0,0,1,
scooby_state_40f7b0|11|3 0,0,1,0,0,0,0,0,0,0,0,0,0,0,0,1,
scooby_state_a5266d|49|12 0,0,0,0,0,0,0,0,0,0,0,1,0,0,0,1,
scooby_state_a52672|35|-26 1,0,0,0,0,0,0,0,0,0,0,0,0,0,0,1,
scooby_state_a4c443|20|5 1,0,0,0,0,0,0,0,0,0,0,0,0,0,0,1,
scooby_state_a525fb|25|-1 1,0,0,0,0,0,0,0,0,0,0,0,0,0,0,1,
scooby_state_a52672|53|8 0,0,0,0,0,0,0,0,0,0,0,0,0,0,1,1,
scooby_state_a5266d|3|2 0,0,0,0,0,0,0,0,0,1,0,0,0,0,0,1,
scooby_state_40f8cc|24|0 1,0,0,0,0,0,0,0,0,0,0,0,0,0,0,1,
scooby_state_a5266d|26|2 1,0,0,0,0,0,0,0,0,0,0,0,0,0,0,1,
scooby_state_a52608|54|0 1,0,0,0,0,0,0,0,0,0,0,0,0,0,0,1,
scooby_state_a5266d|13|3 1,0,0,0,0,0,0,0,0,0,0,0,0,0,0,1,
scooby_state_a4c410|16|0 1,0,0,0,0,0,0,0,0,0,0,0,0,0,0,1,
scooby_state_40f7c0|35|15 1,0,0,0,0,0,0,0,0,0,0,0,0,0,0,1,

scooby_action_0_deg_dist 0,2382,0,0,0,0,0,0,0,0,0,0,0,0,0,0,
scooby_action_-6_deg_dist 0,577,0,0,0,0,0,0,0,0,0,0,0,0,0,0,
scooby_action_4_deg_dist 0,2250,223,0,334,0,312,0,0,0,0,0,0,0,0,0,
scooby_action_1_deg_dist 0,433104,48713,0,103400,0,888283,0,0,0,0,0,0,0,0,0,
scooby_action_30_deg_dist 0,482,0,0,0,0,0,0,0,0,0,0,0,0,0,0,
scooby_action_5_deg_dist 0,580,5,0,0,0,0,0,0,0,0,0,0,0,0,0,
scooby_action_3_deg_dist 0,15297,562,0,27,0,21,0,0,0,0,0,0,0,0,0,
scooby_action_32_deg_dist 0,434,0,0,0,0,0,0,0,0,0,0,0,0,0,0,
scooby_action_10_deg_dist 0,584,0,0,0,0,0,0,0,0,0,0,0,0,0,0,
scooby_action_11_deg_dist 0,517,4,0,0,0,0,0,0,0,0,0,0,0,0,0,
scooby_action_12_deg_dist 0,564,0,0,0,0,0,0,0,0,0,0,0,0,0,0,
scooby_action_22_deg_dist 0,526,1,0,0,0,0,0,0,0,0,0,0,0,0,0,
scooby_action_23_deg_dist 0,507,0,0,0,0,0,0,0,0,0,0,0,0,0,0,
scooby_action_-1_deg_dist 0,114921,5997,0,8002,0,44,0,0,0,0,0,0,0,0,0,
scooby_action_-3_deg_dist 0,588,0,0,0,0,0,0,0,0,0,0,0,0,0,0,

scooby_track_called 1629241
scooby_track_same_address 73987
scooby_track_evict 1554998

scooby_reward_demand_called 1629241
scooby_reward_demand_pt_not_found 410660
scooby_reward_demand_pt_found 1218581
scooby_reward_demand_pt_found_total 1218581
scooby_reward_demand_has_reward 0
scooby_reward_train_called 297267
scooby_reward_assign_reward_called 1555194
scooby_reward_no_pref 2381
scooby_reward_incorrect 294886
scooby_reward_correct_untimely 1132805
scooby_reward_correct_timely 85776
scooby_reward_out_of_bounds 39346
scooby_reward_tracker_hit 0

scooby_reward_none_low_bw 2381
scooby_reward_none_high_bw 0
scooby_reward_incorrect_low_bw 294886
scooby_reward_incorrect_high_bw 0
scooby_reward_correct_untimely_low_bw 1132805
scooby_reward_correct_untimely_high_bw 0
scooby_reward_correct_timely_low_bw 85776
scooby_reward_correct_timely_high_bw 0
scooby_reward_out_of_bounds_low_bw 39346
scooby_reward_out_of_bounds_high_bw 0
scooby_reward_tracker_hit_low_bw 0
scooby_reward_tracker_hit_high_bw 0

scooby_reward_1 0,249947,1049570,82890,30597,0,
scooby_reward_3 0,1781,10995,1813,1223,0,
scooby_reward_4 0,1834,615,374,203,0,
scooby_reward_5 0,360,59,72,64,0,
scooby_reward_10 0,266,6,120,139,0,
scooby_reward_11 0,280,1,83,136,0,
scooby_reward_12 0,277,12,98,131,0,
scooby_reward_22 0,204,4,85,212,0,
scooby_reward_23 0,187,3,91,206,0,
scooby_reward_30 0,113,0,72,280,0,
scooby_reward_32 0,100,1,50,275,0,
scooby_reward_-1 0,38754,71471,26,5819,0,
scooby_reward_-3 0,395,39,0,22,0,
scooby_reward_-6 0,388,29,2,39,0,
scooby_reward_0 2381,0,0,0,0,0,

scooby_train_called 1554997
scooby_train_compute_reward 297267

scooby_register_fill_called 1029276
scooby_register_fill_set 92642
scooby_register_fill_set_total 92642

scooby_register_prefetch_hit_called 4038984
scooby_register_prefetch_hit_set 1454653
scooby_register_prefetch_hit_set_total 1454653

scooby_pref_issue_scooby 5923952

learning_engine_featurewise.action.called 1629241
learning_engine_featurewise.action.explore 3007
learning_engine_featurewise.action.exploit 1626234
learning_engine_featurewise.action.fallback 3689
learning_engine_featurewise.action.dyn_fallback_saved_bw 0
learning_engine_featurewise.action.dyn_fallback_saved_bw_acc 92
learning_engine_featurewise.action.index_1_explored 197
learning_engine_featurewise.action.index_1_exploited 1473303
learning_engine_featurewise.action.index_3_explored 219
learning_engine_featurewise.action.index_3_exploited 15688
learning_engine_featurewise.action.index_4_explored 207
learning_engine_featurewise.action.index_4_exploited 2912
learning_engine_featurewise.action.index_5_explored 186
learning_engine_featurewise.action.index_5_exploited 399
learning_engine_featurewise.action.index_10_explored 231
learning_engine_featurewise.action.index_10_exploited 353
learning_engine_featurewise.action.index_11_explored 182
learning_engine_featurewise.action.index_11_exploited 339
learning_engine_featurewise.action.index_12_explored 209
learning_engine_featurewise.action.index_12_exploited 355
learning_engine_featurewise.action.index_22_explored 208
learning_engine_featurewise.action.index_22_exploited 319
learning_engine_featurewise.action.index_23_explored 199
learning_engine_featurewise.action.index_23_exploited 308
learning_engine_featurewise.action.index_30_explored 205
learning_engine_featurewise.action.index_30_exploited 277
learning_engine_featurewise.action.index_32_explored 175
learning_engine_featurewise.action.index_32_exploited 259
learning_engine_featurewise.action.index_-1_explored 194
learning_engine_featurewise.action.index_-1_exploited 128770
learning_engine_featurewise.action.index_-3_explored 203
learning_engine_featurewise.action.index_-3_exploited 385
learning_engine_featurewise.action.index_-6_explored 191
learning_engine_featurewise.action.index_-6_exploited 386
learning_engine_featurewise.action.index_0_explored 201
learning_engine_featurewise.action.index_0_exploited 2181
learning_engine_featurewise.learn.called 1554997
learning_engine_featurewise.learn.su_skip_PC 0
learning_engine_featurewise.learn.su_skip_PC_Delta 0

learning_engine_featurewise.q_value_histogram.bucket_0 0
learning_engine_featurewise.q_value_histogram.bucket_1 0
learning_engine_featurewise.q_value_histogram.bucket_2 6919
learning_engine_featurewise.q_value_histogram.bucket_3 4497
learning_engine_featurewise.q_value_histogram.bucket_4 5708
learning_engine_featurewise.q_value_histogram.bucket_5 145110
learning_engine_featurewise.q_value_histogram.bucket_6 1464000
learning_engine_featurewise.q_value_histogram.bucket_7 0

learning_engine_featurewise.consensus.total 1626234
learning_engine_featurewise.consensus.feature_align_PC 1613665
learning_engine_featurewise.consensus.feature_align_PC_ratio 0.99
learning_engine_featurewise.consensus.feature_align_PC_Delta 1597225
learning_engine_featurewise.consensus.feature_align_PC_Delta_ratio 0.98
learning_engine_featurewise.consensus.feature_align_all 1584656
learning_engine_featurewise.consensus.feature_align_all_ratio 0.97

learning_engine_featurewise.feature_PC_min_weight 1000000.00000000
learning_engine_featurewise.feature_PC_max_weight 0.00000000
learning_engine_featurewise.feature_PC_Delta_min_weight 1000000.00000000
learning_engine_featurewise.feature_PC_Delta_max_weight 0.00000000
unique_pcs 40
unique_pages 18216
unique_trigger_pcs 23
total_bitmaps_seen 0
unique_bitmaps_seen 0

scooby_bw_epochs 546244
scooby_bw_level_0 451881
scooby_bw_level_1 81180
scooby_bw_level_2 12004
scooby_bw_level_3 1179

scooby_ipc_epochs 0
scooby_ipc_level_0 0
scooby_ipc_level_1 0
scooby_ipc_level_2 0
scooby_ipc_level_3 0

scooby_cache_acc_epochs 135090
scooby_cache_acc_level_0 115
scooby_cache_acc_level_1 22
scooby_cache_acc_level_2 60
scooby_cache_acc_level_3 133
scooby_cache_acc_level_4 895
scooby_cache_acc_level_5 1995
scooby_cache_acc_level_6 3281
scooby_cache_acc_level_7 5258
scooby_cache_acc_level_8 12934
scooby_cache_acc_level_9 110397

Channel_0_RQ_row_buffer_hit 844481
Channel_0_RQ_row_buffer_miss 52034
Channel_0_WQ_row_buffer_hit 2
Channel_0_WQ_row_buffer_miss 8
Channel_0_WQ_full 0
Channel_0_dbus_congested 122675

avg_congested_cycle 10

DRAM_bw_pochs 546244
DRAM_bw_level_0 451881
DRAM_bw_level_1 81180
DRAM_bw_level_2 12004
DRAM_bw_level_3 1179
