*************************************************
   ChampSim Multicore Out-of-Order Simulator
   Last compiled: Apr  3 2025 20:54:34
*************************************************
parsing config file: /home/zir/Pythia/config/pythia.ini

trace_0 /home/zir/ChampSim/ML-DPC/ChampSimTraces/spec06/471.omnetpp-s2.trace.gz
adding L2C_PREFETCHER: Scooby
Initialize SHIP state
warmup_instructions 10000000
simulation_instructions 50000000
champsim_seed 165
measure_ipc 0
measure_ipc_epoch 1000
measure_dram_bw 1
measure_dram_bw_epoch 256
measure_cache_acc 1
measure_cache_acc_epoch 1024
l1d_perfect 0
l2c_perfect 0
llc_perfect 0
l1d_semi_perfect 0
l2c_semi_perfect 0
llc_semi_perfect 0
semi_perfect_cache_page_buffer_size 64

num_cpus 1
cpu_freq 4000
dram_io_freq 2400
page_size 4096
block_size 64
max_read_per_cycle 8
max_fill_per_cycle 1
dram_channels 1
log2_dram_channels 0
dram_ranks 1
dram_banks 8
dram_rows 65536
dram_columns 128
dram_row_size 8
dram_size 4096
dram_pages 1048576

fetch_width 6
decode_width 6
exec_width 4
lq_width 2
sq_width 2
retire_width 4
scheduler_size 128
branch_mispredict_penalty 20
rob_size 256
lq_size 72
sq_size 56
num_instr_destinations_sparc 4
num_instr_destinations 2
num_instr_sources 4

itlb_set 16
itlb_way 8
itlb_rq_size 16
itlb_wq_size 16
itlb_pq_size 0
itlb_mshr_size 8
itlb_latency 1

dtlb_set 16
dtlb_way 4
dtlb_rq_size 16
dtlb_wq_size 16
dtlb_pq_size 0
dtlb_mshr_size 8
dtlb_latency 1

stlb_set 128
stlb_way 12
stlb_rq_size 32
stlb_wq_size 32
stlb_pq_size 0
stlb_mshr_size 16
stlb_latency 8

l1i_size 32
l1i_set 64
l1i_way 8
l1i_rq_size 64
l1i_wq_size 64
l1i_pq_size 8
l1i_mshr_size 8
l1i_latency 1

l1d_size 32
l1d_set 64
l1d_way 8
l1d_rq_size 64
l1d_wq_size 64
l1d_pq_size 8
l1d_mshr_size 16
l1d_latency 4

l2c_size 256
l2c_set 512
l2c_way 8
l2c_rq_size 32
l2c_wq_size 32
l2c_pq_size 32
l2c_mshr_size 32
l2c_latency 10

llc_size 2048
llc_set 2048
llc_way 16
llc_rq_size 32
llc_wq_size 32
llc_pq_size 32
llc_mshr_size 64
llc_latency 20

dram_channel_width 8
dram_wq_size 64
dram_rq_size 64
tRP 15
tRCD 15
tCAS 12.5
dram_dbus_turn_around_time 30
dram_write_high_wm 56
dram_write_low_wm 48
min_dram_writes_per_switch 16
dram_mtps 2400
dram_dbus_return_time 13

scooby_alpha 0.0065088
scooby_gamma 0.556301
scooby_epsilon 0.00182284
scooby_state_num_bits 10
scooby_max_states 1024
scooby_seed 200
scooby_policy EGreedy
scooby_learning_type SARSA
scooby_actions 1,3,4,5,10,11,12,22,23,30,32,-1,-3,-6,0,
scooby_max_actions 15
scooby_pt_size 256
scooby_st_size 64
scooby_max_pcs 5
scooby_max_offsets 5
scooby_max_deltas 5
scooby_reward_none -4
scooby_reward_incorrect -8
scooby_reward_correct_untimely 12
scooby_reward_correct_timely 20
scooby_brain_zero_init 0
scooby_enable_reward_all 0
scooby_enable_track_multiple 0
scooby_enable_reward_out_of_bounds 1
scooby_reward_out_of_bounds -12
scooby_state_type 1
scooby_state_hash_type 11
scooby_access_debug 0
scooby_print_access_debug 0
scooby_print_access_debug_pc deadbeef
scooby_print_access_debug_pc_count 0
scooby_print_trace 0
scooby_enable_state_action_stats 1
scooby_enable_reward_tracker_hit 0
scooby_reward_tracker_hit -2
scooby_enable_featurewise_engine 1
scooby_pref_degree 1
scooby_enable_dyn_degree 1
scooby_max_to_avg_q_thresholds 0.5,1,2,
scooby_dyn_degrees 1,2,4,4,
scooby_multi_deg_select_type 2
scooby_last_pref_offset_conf_thresholds 1,3,8,
scooby_dyn_degrees_type2 1,2,4,6,
scooby_action_tracker_size 2
scooby_high_bw_thresh 4
scooby_enable_hbw_reward 1
scooby_reward_hbw_correct_timely 20
scooby_reward_hbw_correct_untimely 12
scooby_reward_hbw_incorrect -14
scooby_reward_hbw_none -2
scooby_reward_hbw_out_of_bounds -12
scooby_reward_hbw_tracker_hit -2
scooby_last_pref_offset_conf_thresholds_hbw 1,3,8,
scooby_dyn_degrees_type2_hbw 1,2,4,6,

le_enable_trace 0
le_trace_interval 0
le_trace_file_name 
le_trace_state 0
le_enable_score_plot 0
le_plot_file_name 
le_plot_actions 
le_enable_action_trace 0
le_action_trace_interval 0
le_action_trace_name 
le_enable_action_plot 0

le_featurewise_active_features PC, PC_Delta
le_featurewise_num_tilings 3,3,
le_featurewise_num_tiles 128,128,
le_featurewise_hash_types 2,2,
le_featurewise_enable_tiling_offset 1,1,
le_featurewise_max_q_thresh 0.5
le_featurewise_enable_action_fallback 1
le_featurewise_feature_weights 1,1,
le_featurewise_enable_dynamic_weight 0
le_featurewise_weight_gradient 0.001
le_featurewise_disable_adjust_weight_all_features_align 1
le_featurewise_selective_update 0
le_featurewise_pooling_type 2
le_featurewise_enable_dyn_action_fallback 1
le_featurewise_bw_acc_check_level 1
le_featurewise_acc_thresh 2
le_featurewise_enable_trace 0
le_featurewise_trace_feature_type 0
le_featurewise_trace_feature 
le_featurewise_trace_interval 0
le_featurewise_trace_record_count 0
le_featurewise_trace_file_name 
le_featurewise_enable_score_plot 0
le_featurewise_plot_actions 
le_featurewise_plot_file_name 


Heartbeat CPU  0 instructions:    1000001 cycles:     574015 heartbeat IPC: 1.74212 cumulative IPC: 1.74212 (Simulation time: 0 hr 0 min 1 sec) 
Heartbeat CPU  0 instructions:    2000001 cycles:    1111722 heartbeat IPC: 1.85975 cumulative IPC: 1.79901 (Simulation time: 0 hr 0 min 2 sec) 
Heartbeat CPU  0 instructions:    3000001 cycles:    1644899 heartbeat IPC: 1.87555 cumulative IPC: 1.82382 (Simulation time: 0 hr 0 min 4 sec) 
Heartbeat CPU  0 instructions:    4000000 cycles:    2181395 heartbeat IPC: 1.86394 cumulative IPC: 1.83369 (Simulation time: 0 hr 0 min 5 sec) 
Heartbeat CPU  0 instructions:    5000001 cycles:    2703766 heartbeat IPC: 1.91435 cumulative IPC: 1.84927 (Simulation time: 0 hr 0 min 6 sec) 
Heartbeat CPU  0 instructions:    6000002 cycles:    3223496 heartbeat IPC: 1.92408 cumulative IPC: 1.86133 (Simulation time: 0 hr 0 min 7 sec) 
Heartbeat CPU  0 instructions:    7000000 cycles:    3740734 heartbeat IPC: 1.93334 cumulative IPC: 1.87129 (Simulation time: 0 hr 0 min 9 sec) 
Heartbeat CPU  0 instructions:    8000000 cycles:    4243563 heartbeat IPC: 1.98875 cumulative IPC: 1.88521 (Simulation time: 0 hr 0 min 10 sec) 
Heartbeat CPU  0 instructions:    9000001 cycles:    4762189 heartbeat IPC: 1.92817 cumulative IPC: 1.88989 (Simulation time: 0 hr 0 min 12 sec) 
Heartbeat CPU  0 instructions:   10000000 cycles:    5269358 heartbeat IPC: 1.97173 cumulative IPC: 1.89776 (Simulation time: 0 hr 0 min 13 sec) 

Warmup complete CPU  0 instructions:   10000003 cycles:    5269359 (Simulation time: 0 hr 0 min 13 sec) 

Heartbeat CPU  0 instructions:   11000000 cycles:    8534922 heartbeat IPC: 0.30623 cumulative IPC: 0.30623 (Simulation time: 0 hr 0 min 15 sec) 
Heartbeat CPU  0 instructions:   12000000 cycles:    9829609 heartbeat IPC: 0.77239 cumulative IPC: 0.43857 (Simulation time: 0 hr 0 min 16 sec) 
Heartbeat CPU  0 instructions:   13000003 cycles:   11106233 heartbeat IPC: 0.78332 cumulative IPC: 0.51397 (Simulation time: 0 hr 0 min 18 sec) 
Heartbeat CPU  0 instructions:   14000000 cycles:   12357657 heartbeat IPC: 0.79909 cumulative IPC: 0.56431 (Simulation time: 0 hr 0 min 19 sec) 
Heartbeat CPU  0 instructions:   15000000 cycles:   13626568 heartbeat IPC: 0.78808 cumulative IPC: 0.59829 (Simulation time: 0 hr 0 min 20 sec) 
Heartbeat CPU  0 instructions:   16000000 cycles:   16571268 heartbeat IPC: 0.33959 cumulative IPC: 0.53088 (Simulation time: 0 hr 0 min 22 sec) 
Heartbeat CPU  0 instructions:   17000003 cycles:   19517071 heartbeat IPC: 0.33947 cumulative IPC: 0.49131 (Simulation time: 0 hr 0 min 24 sec) 
Heartbeat CPU  0 instructions:   18000002 cycles:   22382619 heartbeat IPC: 0.34897 cumulative IPC: 0.46747 (Simulation time: 0 hr 0 min 26 sec) 
Heartbeat CPU  0 instructions:   19000002 cycles:   25279924 heartbeat IPC: 0.34515 cumulative IPC: 0.44976 (Simulation time: 0 hr 0 min 28 sec) 
Heartbeat CPU  0 instructions:   20000000 cycles:   28679974 heartbeat IPC: 0.29411 cumulative IPC: 0.42716 (Simulation time: 0 hr 0 min 30 sec) 
Heartbeat CPU  0 instructions:   21000000 cycles:   32106258 heartbeat IPC: 0.29186 cumulative IPC: 0.40988 (Simulation time: 0 hr 0 min 32 sec) 
Heartbeat CPU  0 instructions:   22000001 cycles:   35388785 heartbeat IPC: 0.30464 cumulative IPC: 0.39841 (Simulation time: 0 hr 0 min 34 sec) 
Heartbeat CPU  0 instructions:   23000000 cycles:   38307000 heartbeat IPC: 0.34267 cumulative IPC: 0.39349 (Simulation time: 0 hr 0 min 36 sec) 
Heartbeat CPU  0 instructions:   24000000 cycles:   41179562 heartbeat IPC: 0.34812 cumulative IPC: 0.38986 (Simulation time: 0 hr 0 min 37 sec) 
Heartbeat CPU  0 instructions:   25000000 cycles:   44062817 heartbeat IPC: 0.34683 cumulative IPC: 0.38666 (Simulation time: 0 hr 0 min 39 sec) 
Heartbeat CPU  0 instructions:   26000002 cycles:   46923921 heartbeat IPC: 0.34952 cumulative IPC: 0.38411 (Simulation time: 0 hr 0 min 41 sec) 
Heartbeat CPU  0 instructions:   27000001 cycles:   49842585 heartbeat IPC: 0.34262 cumulative IPC: 0.38139 (Simulation time: 0 hr 0 min 43 sec) 
Heartbeat CPU  0 instructions:   28000000 cycles:   52704257 heartbeat IPC: 0.34945 cumulative IPC: 0.37947 (Simulation time: 0 hr 0 min 45 sec) 
Heartbeat CPU  0 instructions:   29000001 cycles:   55630958 heartbeat IPC: 0.34168 cumulative IPC: 0.37727 (Simulation time: 0 hr 0 min 47 sec) 
Heartbeat CPU  0 instructions:   30000000 cycles:   58496030 heartbeat IPC: 0.34903 cumulative IPC: 0.37575 (Simulation time: 0 hr 0 min 49 sec) 
Heartbeat CPU  0 instructions:   31000002 cycles:   61355281 heartbeat IPC: 0.34974 cumulative IPC: 0.37443 (Simulation time: 0 hr 0 min 51 sec) 
Heartbeat CPU  0 instructions:   32000000 cycles:   64261727 heartbeat IPC: 0.34406 cumulative IPC: 0.37293 (Simulation time: 0 hr 0 min 53 sec) 
Heartbeat CPU  0 instructions:   33000000 cycles:   67514422 heartbeat IPC: 0.30744 cumulative IPC: 0.36951 (Simulation time: 0 hr 0 min 55 sec) 
Heartbeat CPU  0 instructions:   34000001 cycles:   70916255 heartbeat IPC: 0.29396 cumulative IPC: 0.36559 (Simulation time: 0 hr 0 min 57 sec) 
Heartbeat CPU  0 instructions:   35000001 cycles:   74037888 heartbeat IPC: 0.32035 cumulative IPC: 0.36354 (Simulation time: 0 hr 0 min 59 sec) 
Heartbeat CPU  0 instructions:   36000000 cycles:   77391972 heartbeat IPC: 0.29814 cumulative IPC: 0.36050 (Simulation time: 0 hr 1 min 1 sec) 
Heartbeat CPU  0 instructions:   37000001 cycles:   80272538 heartbeat IPC: 0.34715 cumulative IPC: 0.35998 (Simulation time: 0 hr 1 min 3 sec) 
Heartbeat CPU  0 instructions:   38000001 cycles:   83538606 heartbeat IPC: 0.30618 cumulative IPC: 0.35774 (Simulation time: 0 hr 1 min 5 sec) 
Heartbeat CPU  0 instructions:   39000001 cycles:   86192853 heartbeat IPC: 0.37675 cumulative IPC: 0.35836 (Simulation time: 0 hr 1 min 7 sec) 
Heartbeat CPU  0 instructions:   40000000 cycles:   87453481 heartbeat IPC: 0.79325 cumulative IPC: 0.36503 (Simulation time: 0 hr 1 min 8 sec) 
Heartbeat CPU  0 instructions:   41000001 cycles:   88708527 heartbeat IPC: 0.79678 cumulative IPC: 0.37153 (Simulation time: 0 hr 1 min 9 sec) 
Heartbeat CPU  0 instructions:   42000001 cycles:   89973031 heartbeat IPC: 0.79082 cumulative IPC: 0.37779 (Simulation time: 0 hr 1 min 10 sec) 
Heartbeat CPU  0 instructions:   43000002 cycles:   91320759 heartbeat IPC: 0.74199 cumulative IPC: 0.38349 (Simulation time: 0 hr 1 min 12 sec) 
Heartbeat CPU  0 instructions:   44000000 cycles:   94291935 heartbeat IPC: 0.33657 cumulative IPC: 0.38193 (Simulation time: 0 hr 1 min 14 sec) 
Heartbeat CPU  0 instructions:   45000000 cycles:   97262053 heartbeat IPC: 0.33669 cumulative IPC: 0.38046 (Simulation time: 0 hr 1 min 15 sec) 
Heartbeat CPU  0 instructions:   46000000 cycles:  100692664 heartbeat IPC: 0.29149 cumulative IPC: 0.37727 (Simulation time: 0 hr 1 min 17 sec) 
Heartbeat CPU  0 instructions:   47000000 cycles:  104133844 heartbeat IPC: 0.29060 cumulative IPC: 0.37425 (Simulation time: 0 hr 1 min 19 sec) 
Heartbeat CPU  0 instructions:   48000000 cycles:  107384795 heartbeat IPC: 0.30760 cumulative IPC: 0.37213 (Simulation time: 0 hr 1 min 21 sec) 
Heartbeat CPU  0 instructions:   49000000 cycles:  110357917 heartbeat IPC: 0.33635 cumulative IPC: 0.37112 (Simulation time: 0 hr 1 min 23 sec) 
Heartbeat CPU  0 instructions:   50000001 cycles:  113238441 heartbeat IPC: 0.34716 cumulative IPC: 0.37048 (Simulation time: 0 hr 1 min 25 sec) 
Heartbeat CPU  0 instructions:   51000003 cycles:  116125972 heartbeat IPC: 0.34632 cumulative IPC: 0.36985 (Simulation time: 0 hr 1 min 27 sec) 
Heartbeat CPU  0 instructions:   52000000 cycles:  118999297 heartbeat IPC: 0.34803 cumulative IPC: 0.36930 (Simulation time: 0 hr 1 min 29 sec) 
Heartbeat CPU  0 instructions:   53000003 cycles:  121890616 heartbeat IPC: 0.34586 cumulative IPC: 0.36871 (Simulation time: 0 hr 1 min 31 sec) 
Heartbeat CPU  0 instructions:   54000001 cycles:  124748033 heartbeat IPC: 0.34997 cumulative IPC: 0.36827 (Simulation time: 0 hr 1 min 33 sec) 
Heartbeat CPU  0 instructions:   55000001 cycles:  127771968 heartbeat IPC: 0.33069 cumulative IPC: 0.36734 (Simulation time: 0 hr 1 min 35 sec) 
Heartbeat CPU  0 instructions:   56000000 cycles:  130657925 heartbeat IPC: 0.34651 cumulative IPC: 0.36686 (Simulation time: 0 hr 1 min 37 sec) 
Heartbeat CPU  0 instructions:   57000003 cycles:  133526444 heartbeat IPC: 0.34861 cumulative IPC: 0.36645 (Simulation time: 0 hr 1 min 38 sec) 
Heartbeat CPU  0 instructions:   58000001 cycles:  136603999 heartbeat IPC: 0.32493 cumulative IPC: 0.36548 (Simulation time: 0 hr 1 min 40 sec) 
Heartbeat CPU  0 instructions:   59000001 cycles:  139969697 heartbeat IPC: 0.29712 cumulative IPC: 0.36377 (Simulation time: 0 hr 1 min 42 sec) 
Heartbeat CPU  0 instructions:   60000000 cycles:  143049778 heartbeat IPC: 0.32467 cumulative IPC: 0.36290 (Simulation time: 0 hr 1 min 44 sec) 
Finished CPU 0 instructions: 50000002 cycles: 137780429 cumulative IPC: 0.36290 (Simulation time: 0 hr 1 min 44 sec) 

ChampSim completed all CPUs

[ROI Statistics]
Core_0_instructions 50000002
Core_0_cycles 137780429
Core_0_IPC 0.36290

Core_0_branch_prediction_accuracy 98.23849
Core_0_branch_MPKI 5.44690
Core_0_average_ROB_occupancy_at_mispredict 114.02108

Core_0_L1D_total_access 6982114
Core_0_L1D_total_hit 5738965
Core_0_L1D_total_miss 1243149
Core_0_L1D_loads 4633092
Core_0_L1D_load_hit 3409290
Core_0_L1D_load_miss 1223802
Core_0_L1D_RFOs 2349022
Core_0_L1D_RFO_hit 2329675
Core_0_L1D_RFO_miss 19347
Core_0_L1D_prefetches 0
Core_0_L1D_prefetch_hit 0
Core_0_L1D_prefetch_miss 0
Core_0_L1D_writebacks 0
Core_0_L1D_writeback_hit 0
Core_0_L1D_writeback_miss 0
Core_0_L1D_prefetch_requested 0
Core_0_L1D_prefetch_dropped 0
Core_0_L1D_prefetch_issued 0
Core_0_L1D_prefetch_filled 0
Core_0_L1D_prefetch_useful 0
Core_0_L1D_prefetch_useless 0
Core_0_L1D_prefetch_late 0
Core_0_L1D_average_miss_latency 225.05015

Core_0_L1D_rq_access 6005358
Core_0_L1D_rq_forward 0
Core_0_L1D_rq_merged 1265900
Core_0_L1D_rq_to_cache 4738419
Core_0_L1D_rq_full 0

Core_0_L1D_wq_access 2415879
Core_0_L1D_wq_forward 1039
Core_0_L1D_wq_merged 8301
Core_0_L1D_wq_to_cache 2407578
Core_0_L1D_wq_full 0

Core_0_L1D_pq_access 0
Core_0_L1D_pq_forward 0
Core_0_L1D_pq_merged 0
Core_0_L1D_pq_to_cache 0
Core_0_L1D_pq_full 0

Core_0_L1D_acc_epochs 70900
Core_0_L1D_acc_level_0 70900
Core_0_L1D_acc_level_1 0
Core_0_L1D_acc_level_2 0
Core_0_L1D_acc_level_3 0
Core_0_L1D_acc_level_4 0
Core_0_L1D_acc_level_5 0
Core_0_L1D_acc_level_6 0
Core_0_L1D_acc_level_7 0
Core_0_L1D_acc_level_8 0
Core_0_L1D_acc_level_9 0

Core_0_L1I_total_access 13065235
Core_0_L1I_total_hit 13028992
Core_0_L1I_total_miss 36243
Core_0_L1I_loads 13065235
Core_0_L1I_load_hit 13028992
Core_0_L1I_load_miss 36243
Core_0_L1I_RFOs 0
Core_0_L1I_RFO_hit 0
Core_0_L1I_RFO_miss 0
Core_0_L1I_prefetches 0
Core_0_L1I_prefetch_hit 0
Core_0_L1I_prefetch_miss 0
Core_0_L1I_writebacks 0
Core_0_L1I_writeback_hit 0
Core_0_L1I_writeback_miss 0
Core_0_L1I_prefetch_requested 0
Core_0_L1I_prefetch_dropped 0
Core_0_L1I_prefetch_issued 0
Core_0_L1I_prefetch_filled 0
Core_0_L1I_prefetch_useful 0
Core_0_L1I_prefetch_useless 0
Core_0_L1I_prefetch_late 0
Core_0_L1I_average_miss_latency 32.90274

Core_0_L1I_rq_access 50000003
Core_0_L1I_rq_forward 0
Core_0_L1I_rq_merged 36912951
Core_0_L1I_rq_to_cache 13087052
Core_0_L1I_rq_full 0

Core_0_L1I_wq_access 0
Core_0_L1I_wq_forward 0
Core_0_L1I_wq_merged 0
Core_0_L1I_wq_to_cache 0
Core_0_L1I_wq_full 0

Core_0_L1I_pq_access 0
Core_0_L1I_pq_forward 0
Core_0_L1I_pq_merged 0
Core_0_L1I_pq_to_cache 0
Core_0_L1I_pq_full 0

Core_0_L1I_acc_epochs 70900
Core_0_L1I_acc_level_0 70900
Core_0_L1I_acc_level_1 0
Core_0_L1I_acc_level_2 0
Core_0_L1I_acc_level_3 0
Core_0_L1I_acc_level_4 0
Core_0_L1I_acc_level_5 0
Core_0_L1I_acc_level_6 0
Core_0_L1I_acc_level_7 0
Core_0_L1I_acc_level_8 0
Core_0_L1I_acc_level_9 0

Core_0_L2C_total_access 2848149
Core_0_L2C_total_hit 830555
Core_0_L2C_total_miss 2017594
Core_0_L2C_loads 1260044
Core_0_L2C_load_hit 178794
Core_0_L2C_load_miss 1081250
Core_0_L2C_RFOs 19347
Core_0_L2C_RFO_hit 883
Core_0_L2C_RFO_miss 18464
Core_0_L2C_prefetches 1528531
Core_0_L2C_prefetch_hit 610787
Core_0_L2C_prefetch_miss 917744
Core_0_L2C_writebacks 40227
Core_0_L2C_writeback_hit 40091
Core_0_L2C_writeback_miss 136
Core_0_L2C_prefetch_requested 2083188
Core_0_L2C_prefetch_dropped 0
Core_0_L2C_prefetch_issued 2083188
Core_0_L2C_prefetch_filled 1202060
Core_0_L2C_prefetch_useful 203102
Core_0_L2C_prefetch_useless 997431
Core_0_L2C_prefetch_late 9590
Core_0_L2C_average_miss_latency 170.90830

Core_0_L2C_rq_access 1279391
Core_0_L2C_rq_forward 0
Core_0_L2C_rq_merged 0
Core_0_L2C_rq_to_cache 1279390
Core_0_L2C_rq_full 0

Core_0_L2C_wq_access 40227
Core_0_L2C_wq_forward 1
Core_0_L2C_wq_merged 0
Core_0_L2C_wq_to_cache 40227
Core_0_L2C_wq_full 0

Core_0_L2C_pq_access 2083188
Core_0_L2C_pq_forward 0
Core_0_L2C_pq_merged 94027
Core_0_L2C_pq_to_cache 1989161
Core_0_L2C_pq_full 0

Core_0_L2C_acc_epochs 70900
Core_0_L2C_acc_level_0 42482
Core_0_L2C_acc_level_1 16213
Core_0_L2C_acc_level_2 3852
Core_0_L2C_acc_level_3 1764
Core_0_L2C_acc_level_4 1299
Core_0_L2C_acc_level_5 1227
Core_0_L2C_acc_level_6 883
Core_0_L2C_acc_level_7 800
Core_0_L2C_acc_level_8 819
Core_0_L2C_acc_level_9 1561

Core_0_LLC_total_access 2056410
Core_0_LLC_total_hit 1206633
Core_0_LLC_total_miss 849777
Core_0_LLC_loads 1071686
Core_0_LLC_load_hit 654899
Core_0_LLC_load_miss 416787
Core_0_LLC_RFOs 18459
Core_0_LLC_RFO_hit 9768
Core_0_LLC_RFO_miss 8691
Core_0_LLC_prefetches 927313
Core_0_LLC_prefetch_hit 511285
Core_0_LLC_prefetch_miss 416028
Core_0_LLC_writebacks 38952
Core_0_LLC_writeback_hit 30681
Core_0_LLC_writeback_miss 8271
Core_0_LLC_prefetch_requested 0
Core_0_LLC_prefetch_dropped 0
Core_0_LLC_prefetch_issued 0
Core_0_LLC_prefetch_filled 601522
Core_0_LLC_prefetch_useful 11103
Core_0_LLC_prefetch_useless 576828
Core_0_LLC_prefetch_late 0
Core_0_LLC_average_miss_latency 164.33388

Core_0_LLC_rq_access 1090144
Core_0_LLC_rq_forward 0
Core_0_LLC_rq_merged 0
Core_0_LLC_rq_to_cache 1090144
Core_0_LLC_rq_full 0

Core_0_LLC_wq_access 38952
Core_0_LLC_wq_forward 0
Core_0_LLC_wq_merged 0
Core_0_LLC_wq_to_cache 38952
Core_0_LLC_wq_full 0

Core_0_LLC_pq_access 1211652
Core_0_LLC_pq_forward 0
Core_0_LLC_pq_merged 0
Core_0_LLC_pq_to_cache 1211652
Core_0_LLC_pq_full 0

Core_0_LLC_acc_epochs 139698
Core_0_LLC_acc_level_0 137377
Core_0_LLC_acc_level_1 639
Core_0_LLC_acc_level_2 539
Core_0_LLC_acc_level_3 300
Core_0_LLC_acc_level_4 197
Core_0_LLC_acc_level_5 327
Core_0_LLC_acc_level_6 60
Core_0_LLC_acc_level_7 59
Core_0_LLC_acc_level_8 31
Core_0_LLC_acc_level_9 169

Core_0_major_page_fault 0
Core_0_minor_page_fault 15893

scooby_st_lookup 1558429
scooby_st_hit 670013
scooby_st_evict 888352
scooby_st_insert 888416
scooby_st_streaming 0

scooby_predict_called 1558429
scooby_predict_out_of_bounds 30994
scooby_predict_action_1 1189773
scooby_predict_issue_action_1 1169083
scooby_predict_hit_action_1 20690
scooby_predict_out_of_bounds_action_1 17817
scooby_predict_action_3 6866
scooby_predict_issue_action_3 5918
scooby_predict_hit_action_3 948
scooby_predict_out_of_bounds_action_3 452
scooby_predict_action_4 19418
scooby_predict_issue_action_4 17558
scooby_predict_hit_action_4 1860
scooby_predict_out_of_bounds_action_4 1247
scooby_predict_action_5 4991
scooby_predict_issue_action_5 4449
scooby_predict_hit_action_5 542
scooby_predict_out_of_bounds_action_5 631
scooby_predict_action_10 2239
scooby_predict_issue_action_10 2142
scooby_predict_hit_action_10 97
scooby_predict_out_of_bounds_action_10 860
scooby_predict_action_11 2341
scooby_predict_issue_action_11 2241
scooby_predict_hit_action_11 100
scooby_predict_out_of_bounds_action_11 991
scooby_predict_action_12 3024
scooby_predict_issue_action_12 2837
scooby_predict_hit_action_12 187
scooby_predict_out_of_bounds_action_12 1074
scooby_predict_action_22 3229
scooby_predict_issue_action_22 3180
scooby_predict_hit_action_22 49
scooby_predict_out_of_bounds_action_22 2652
scooby_predict_action_23 1181
scooby_predict_issue_action_23 1139
scooby_predict_hit_action_23 42
scooby_predict_out_of_bounds_action_23 1557
scooby_predict_action_30 790
scooby_predict_issue_action_30 755
scooby_predict_hit_action_30 35
scooby_predict_out_of_bounds_action_30 1733
scooby_predict_action_32 695
scooby_predict_issue_action_32 668
scooby_predict_hit_action_32 27
scooby_predict_out_of_bounds_action_32 1774
scooby_predict_action_-1 5263
scooby_predict_issue_action_-1 4510
scooby_predict_hit_action_-1 753
scooby_predict_out_of_bounds_action_-1 21
scooby_predict_action_-3 4445
scooby_predict_issue_action_-3 3864
scooby_predict_hit_action_-3 581
scooby_predict_out_of_bounds_action_-3 57
scooby_predict_action_-6 4013
scooby_predict_issue_action_-6 3795
scooby_predict_hit_action_-6 218
scooby_predict_out_of_bounds_action_-6 128
scooby_predict_action_0 279167
scooby_predict_issue_action_0 0
scooby_predict_hit_action_0 0
scooby_predict_out_of_bounds_action_0 0
scooby_predict_multi_deg_called 204875
scooby_predict_predicted 2083188
scooby_predict_multi_deg 861049
scooby_predict_multi_deg_2 200200
scooby_predict_multi_deg_3 182686
scooby_predict_multi_deg_4 178873
scooby_predict_multi_deg_5 151463
scooby_predict_multi_deg_6 147827
scooby_predict_multi_deg_7 0
scooby_predict_multi_deg_8 0
scooby_predict_multi_deg_9 0
scooby_predict_multi_deg_10 0
scooby_predict_multi_deg_11 0
scooby_predict_multi_deg_12 0
scooby_predict_multi_deg_13 0
scooby_predict_multi_deg_14 0
scooby_predict_multi_deg_15 0
scooby_predict_multi_deg_16 0

scooby_selected_deg_1 1017264
scooby_selected_deg_2 13293
scooby_selected_deg_3 0
scooby_selected_deg_4 24554
scooby_selected_deg_5 0
scooby_selected_deg_6 167028
scooby_selected_deg_7 0
scooby_selected_deg_8 0
scooby_selected_deg_9 0
scooby_selected_deg_10 0
scooby_selected_deg_11 0
scooby_selected_deg_12 0
scooby_selected_deg_13 0
scooby_selected_deg_14 0
scooby_selected_deg_15 0
scooby_selected_deg_16 0

scooby_state_454b26|9|0 16742,11,14,11,10,8,5,14,6,4,6,7,12,8,4860,21718,
scooby_state_454b26|1|0 16325,10,13,15,12,4,8,10,11,8,6,7,9,9,4392,20839,
scooby_state_454b26|8|0 15506,11,17,7,7,15,10,10,4,13,7,9,9,12,4967,20604,
scooby_state_454b26|12|0 15817,10,12,12,16,9,8,13,6,6,7,10,7,5,4631,20569,
scooby_state_454b26|16|0 15820,8,15,11,5,4,9,15,9,8,10,5,10,4,4598,20531,
scooby_state_454b26|3|0 15851,20,12,14,5,4,12,7,13,6,11,5,6,7,4467,20440,
scooby_state_454b26|20|0 15528,11,12,13,10,16,10,11,9,8,9,13,11,5,4678,20344,
scooby_state_454b26|2|0 15590,13,9,7,7,7,13,7,10,3,5,10,7,4,4619,20311,
scooby_state_454b26|14|0 15248,7,9,7,10,10,9,3,13,8,10,7,6,6,4775,20128,
scooby_state_454b26|6|0 15583,7,18,16,4,7,4,7,11,7,6,6,5,7,4361,20049,
scooby_state_454b26|15|0 15078,13,6,7,12,11,10,7,7,6,3,6,6,11,4634,19817,
scooby_state_454b26|13|0 15038,11,17,13,6,6,8,8,6,7,7,8,8,8,4485,19636,
scooby_state_454b26|19|0 14823,7,12,11,10,9,6,8,4,12,10,6,7,6,4279,19210,
scooby_state_454b26|0|0 14722,8,7,16,12,7,3,13,5,6,4,6,6,6,4319,19140,
scooby_state_454b26|5|0 14404,8,9,6,8,2,7,7,7,7,3,9,10,6,4643,19136,
scooby_state_454b26|11|0 14129,3,10,7,5,8,8,11,9,5,6,8,4,15,4814,19042,
scooby_state_454b26|17|0 14183,16,6,8,5,4,5,11,9,3,9,14,4,6,4662,18945,
scooby_state_454b26|18|0 13889,7,5,12,9,8,7,9,7,12,0,7,7,9,4737,18725,
scooby_state_454b26|7|0 13794,4,10,15,8,7,10,11,12,5,6,9,9,4,4370,18274,
scooby_state_454b26|4|0 13951,6,8,6,5,7,9,4,8,6,6,8,9,14,4114,18161,
scooby_state_454b26|21|0 13274,8,8,15,7,8,9,10,7,8,3,3,4,5,4380,17749,
scooby_state_454b26|23|0 13238,10,8,11,10,3,11,13,3,12,3,8,8,3,4370,17711,
scooby_state_454b26|10|0 13206,6,7,12,7,4,12,4,9,2,5,10,8,5,4068,17365,
scooby_state_454b26|28|0 13266,7,15,7,6,7,3,3,7,7,7,13,7,7,3827,17189,
scooby_state_454b26|26|0 12806,14,7,12,7,10,8,8,6,4,5,6,3,5,4193,17094,
scooby_state_454b26|25|0 12874,9,8,8,4,4,6,3,6,5,7,10,6,9,3843,16802,
scooby_state_454b26|27|0 12115,6,9,13,8,7,8,8,3,1,6,4,2,4,3903,16097,
scooby_state_454b26|24|0 11827,5,8,7,5,2,7,7,7,8,6,8,6,6,3810,15719,
scooby_state_454b26|29|0 11713,10,7,9,5,4,10,3,8,10,8,6,11,6,3587,15397,
scooby_state_454b26|22|0 11987,7,11,8,9,8,7,8,8,5,7,7,8,3,3298,15381,
scooby_state_454b26|30|0 11462,9,8,8,6,4,8,5,6,6,2,7,3,7,3445,14986,
scooby_state_454b26|34|0 11219,13,8,14,5,8,4,4,5,10,5,6,8,4,3166,14479,
scooby_state_454b26|33|0 10355,8,6,3,4,3,6,8,4,3,5,2,6,5,3142,13560,
scooby_state_454b26|37|0 10112,5,5,9,4,2,8,6,6,4,2,7,4,6,3192,13372,
scooby_state_454b26|35|0 10114,5,8,10,2,8,5,5,8,6,3,3,7,5,2871,13060,
scooby_state_454b26|32|0 9984,6,2,6,5,6,5,2,8,6,3,7,4,5,2932,12981,
scooby_state_454b26|38|0 9886,1,7,5,4,5,5,7,4,6,4,5,5,5,2831,12780,
scooby_state_454b26|31|0 9623,6,8,10,7,7,5,9,7,6,7,6,6,4,3042,12753,
scooby_state_454b26|36|0 9324,6,4,8,6,5,2,6,5,5,4,3,9,6,3157,12550,
scooby_state_454b26|39|0 9410,4,6,9,4,2,2,3,5,2,3,5,1,6,3067,12529,
scooby_state_454b26|40|0 8342,6,6,7,7,6,7,8,3,5,5,6,5,6,2456,10875,
scooby_state_454b26|42|0 8217,5,7,10,3,2,6,4,4,2,6,13,5,1,2474,10759,
scooby_state_454b26|45|0 7970,5,6,4,2,3,4,3,5,3,0,2,2,3,2510,10522,
scooby_state_454b26|43|0 7457,5,7,2,2,4,3,1,4,4,3,8,0,4,1912,9416,
scooby_state_454b26|41|0 7085,3,9,6,3,4,9,5,3,8,6,7,3,5,2240,9396,
scooby_state_454b26|44|0 6842,3,3,7,3,1,2,3,4,1,4,2,3,3,1940,8821,
scooby_state_454b26|57|0 5747,3,4,2,4,5,4,4,4,3,1,5,2,2,1569,7359,
scooby_state_454b26|51|0 5607,6,3,4,4,3,3,6,3,2,2,3,2,3,1568,7219,
scooby_state_454b26|50|0 5429,3,4,4,2,3,7,4,2,3,1,2,2,4,1667,7137,
scooby_state_454b26|47|0 5474,1,2,1,1,3,2,2,1,3,3,3,1,4,1373,6874,
scooby_state_454b26|62|0 5501,2,4,3,1,4,2,5,2,3,1,1,3,3,1309,6844,
scooby_state_454b26|46|0 5550,4,5,4,4,2,5,3,2,6,2,4,3,0,1202,6796,
scooby_state_454b26|53|0 5108,3,5,2,3,2,4,3,2,1,5,2,2,4,1639,6785,
scooby_state_454b26|56|0 5420,2,3,5,1,0,2,4,1,2,2,2,1,1,1295,6741,
scooby_state_454b26|63|0 5011,2,2,1,4,1,5,2,1,0,3,5,0,3,1657,6697,
scooby_state_454b26|48|0 5198,3,0,0,2,1,0,4,1,4,2,4,2,2,1470,6693,
scooby_state_454b26|58|0 5310,6,4,2,2,3,2,1,2,5,1,1,1,2,1282,6624,
scooby_state_454b26|55|0 5093,6,3,2,5,5,2,3,2,3,6,4,4,2,1368,6508,
scooby_state_454b26|60|0 4912,3,3,6,3,2,0,2,3,4,0,3,3,0,1501,6445,
scooby_state_454b26|59|0 4736,3,3,3,2,6,0,2,1,2,2,2,2,3,1253,6020,
scooby_state_454b26|61|0 4759,1,2,2,1,0,4,3,3,1,1,6,2,3,1164,5952,
scooby_state_454b26|54|0 4550,3,1,2,3,1,0,2,5,3,0,3,2,2,1357,5934,
scooby_state_454b26|52|0 4459,3,4,4,2,3,2,3,2,5,1,1,2,4,1320,5815,
scooby_state_454b26|49|0 4467,2,1,5,5,4,2,3,3,3,1,1,1,2,1219,5719,
scooby_state_454b26|47|46 2597,12,14,6,15,13,6,6,11,10,12,13,10,14,710,3449,
scooby_state_454b26|51|46 2528,16,11,12,5,10,16,5,8,6,14,17,15,13,772,3448,
scooby_state_454b26|58|46 2337,15,19,5,12,8,15,8,9,10,9,15,11,17,783,3273,
scooby_state_454b26|27|21 2506,2,5,6,5,8,5,5,4,3,8,4,5,6,599,3171,
scooby_state_454b26|60|46 2325,12,14,15,8,8,5,6,13,2,7,6,10,10,624,3065,
scooby_state_454b26|49|46 2330,11,10,8,11,4,8,6,9,8,10,4,10,12,496,2937,
scooby_state_454b26|46|21 2152,5,7,7,8,9,9,2,1,3,4,13,5,10,659,2894,
scooby_state_454b26|54|46 2098,9,14,15,13,9,5,10,7,9,7,10,14,11,653,2884,
scooby_state_454b26|46|46 2148,10,8,7,7,11,4,5,7,6,7,15,9,13,543,2800,
scooby_state_454b26|55|46 2011,10,20,8,10,5,7,8,5,8,7,21,17,14,619,2770,
scooby_state_454b26|48|46 2147,12,5,8,7,6,4,7,5,5,4,13,13,11,522,2769,
scooby_state_454b26|63|46 1956,11,7,9,8,4,10,7,8,5,10,19,13,11,691,2769,
scooby_state_454b26|57|46 1960,14,9,11,3,8,7,5,8,6,4,12,15,15,643,2720,
scooby_state_454b26|62|46 2023,10,12,7,8,10,7,4,10,12,3,17,14,8,569,2714,
scooby_state_454b26|53|46 1961,11,7,14,10,7,8,10,8,7,6,10,12,5,557,2633,
scooby_state_454b26|40|31 1973,19,10,11,9,6,8,5,6,7,15,7,6,5,517,2604,
scooby_state_454b26|61|46 1982,10,9,9,10,13,6,6,3,9,6,13,10,13,504,2603,
scooby_state_454b26|40|21 2055,7,5,6,4,4,2,6,3,3,1,8,7,7,430,2548,
scooby_state_454b26|52|46 1797,9,8,8,5,7,8,7,5,8,3,7,13,18,635,2538,
scooby_state_454b1e|57|1 2492,0,0,1,0,0,0,1,0,0,1,1,1,1,0,2498,
scooby_state_454b1e|59|1 2498,0,0,0,0,0,0,0,0,0,0,0,0,0,0,2498,
scooby_state_454b1e|58|1 2493,0,0,0,1,0,0,0,1,1,0,1,1,0,0,2498,
scooby_state_454b1e|60|1 2491,0,0,0,0,0,3,1,0,0,0,1,1,0,0,2497,
scooby_state_454b1e|53|1 2486,1,2,0,0,1,1,4,0,0,0,0,0,1,0,2496,
scooby_state_454b1e|54|1 2491,1,0,0,0,2,0,0,0,0,0,1,0,0,0,2495,
scooby_state_454b1e|61|1 2491,0,0,0,0,0,0,2,0,0,0,0,0,0,1,2494,
scooby_state_454b1e|55|1 2490,0,0,0,0,0,1,0,0,0,0,2,0,0,0,2493,
scooby_state_454b1e|49|1 2488,0,1,1,0,0,0,0,0,0,0,0,0,0,1,2491,
scooby_state_454b1e|48|1 2488,0,0,0,0,0,1,0,1,0,0,1,0,0,0,2491,
scooby_state_454b1e|56|1 2488,0,0,0,1,0,0,0,0,1,0,0,1,0,0,2491,
scooby_state_454b1e|51|1 2487,0,0,0,0,0,0,1,0,0,0,0,1,1,0,2490,
scooby_state_454b1e|50|1 2488,0,0,0,0,0,0,0,1,0,1,0,0,0,0,2490,
scooby_state_454b1e|52|1 2489,0,0,0,0,1,0,0,0,0,0,0,0,0,0,2490,
scooby_state_454b1e|62|1 2485,0,0,1,0,0,0,1,1,0,0,0,1,1,0,2490,
scooby_state_454b1e|0|0 2487,0,0,0,0,0,1,0,0,1,0,0,0,1,0,2490,
scooby_state_454b26|55|21 1961,9,5,6,3,6,5,4,4,6,1,7,7,7,459,2490,
scooby_state_454b26|21|21 1823,3,4,7,5,3,4,6,5,6,3,4,5,8,603,2489,
scooby_state_454b1e|1|1 2484,1,0,0,0,0,0,1,0,0,0,0,0,1,1,2488,
scooby_state_454b26|63|21 1803,4,5,10,6,6,6,3,7,2,2,12,6,4,612,2488,
scooby_state_454b1e|63|1 2484,0,0,0,0,0,0,0,0,0,0,1,0,1,0,2486,
scooby_state_454b1e|45|1 2482,0,0,0,0,0,1,0,0,0,0,2,0,0,0,2485,
scooby_state_454b1e|40|1 2474,1,1,0,2,0,1,3,0,1,0,1,0,1,0,2485,
scooby_state_454b1e|42|1 2482,0,0,1,0,0,0,0,1,0,0,0,1,0,0,2485,
scooby_state_454b1e|46|1 2482,1,0,1,0,0,0,0,0,0,0,0,0,1,0,2485,
scooby_state_454b1e|41|1 2482,1,0,1,0,0,0,0,0,0,0,1,0,0,0,2485,
scooby_state_454b1e|47|1 2482,0,0,0,0,0,0,0,1,0,1,0,0,0,1,2485,
scooby_state_454b1e|44|1 2484,0,1,0,0,0,0,0,0,0,0,0,0,0,0,2485,
scooby_state_454b1e|43|1 2482,0,1,0,0,0,0,0,0,1,0,0,0,1,0,2485,
scooby_state_454b26|56|46 1727,11,11,9,9,12,7,5,6,8,4,8,14,11,642,2484,
scooby_state_454b1e|2|1 2479,1,0,0,0,0,0,1,0,0,0,1,1,1,0,2484,
scooby_state_454b1e|13|1 2478,1,1,0,1,0,1,0,0,1,0,0,0,0,0,2483,
scooby_state_454b1e|6|1 2479,0,1,0,0,0,0,0,2,0,0,1,0,0,0,2483,
scooby_state_454b1e|31|1 2474,0,1,2,0,0,1,0,1,1,0,1,1,0,0,2482,
scooby_state_454b1e|19|1 2477,1,1,0,1,0,0,0,0,0,0,1,0,0,1,2482,
scooby_state_454b1e|33|1 2481,0,0,0,0,1,0,0,0,0,0,0,0,0,0,2482,
scooby_state_454b1e|32|1 2478,1,0,0,0,1,0,0,0,0,1,0,1,0,0,2482,
scooby_state_454b1e|14|1 2477,0,0,0,0,1,0,0,1,1,0,0,1,0,1,2482,
scooby_state_454b1e|34|1 2481,0,0,0,0,0,0,0,0,0,0,0,0,0,1,2482,
scooby_state_454b1e|18|1 2477,2,0,0,0,0,0,1,1,0,0,0,0,0,1,2482,
scooby_state_454b1e|15|1 2480,0,0,1,0,0,0,0,0,1,0,0,0,0,0,2482,
scooby_state_454b1e|16|1 2478,1,0,0,0,1,1,0,0,0,0,0,0,1,0,2482,
scooby_state_454b1e|17|1 2477,1,1,0,0,0,0,0,1,0,1,0,1,0,0,2482,
scooby_state_454b1e|29|1 2478,0,0,0,0,1,1,1,0,0,0,0,0,0,0,2481,
scooby_state_454b1e|30|1 2474,0,1,0,0,3,0,0,0,1,0,2,0,0,0,2481,
scooby_state_454b1e|26|1 2481,0,0,0,0,0,0,0,0,0,0,0,0,0,0,2481,
scooby_state_454b1e|7|1 2477,0,0,0,1,0,1,0,0,1,0,0,1,0,0,2481,
scooby_state_454b1e|27|1 2477,0,0,0,1,0,0,0,0,1,1,1,0,0,0,2481,
scooby_state_454b1e|28|1 2476,0,0,1,2,0,0,0,1,0,0,0,1,0,0,2481,
scooby_state_454b1e|25|1 2478,0,0,0,1,1,0,0,1,0,0,0,0,0,0,2481,
scooby_state_454b1e|20|1 2475,2,0,1,0,0,1,0,1,0,0,0,0,1,0,2481,
scooby_state_454b1e|35|1 2472,0,0,0,0,0,0,2,1,1,1,0,1,2,0,2480,
scooby_state_454b1e|3|1 2479,0,0,0,0,0,0,0,0,1,0,0,0,0,0,2480,
scooby_state_454b1e|24|1 2474,0,0,0,0,2,1,0,1,1,1,0,0,0,0,2480,
scooby_state_454b1e|39|1 2474,0,1,1,0,0,1,0,0,0,0,0,1,1,0,2479,
scooby_state_454b1e|38|1 2471,1,4,0,1,0,1,0,0,0,0,0,1,0,0,2479,
scooby_state_454b1e|21|1 2475,0,0,0,1,0,0,0,0,0,1,0,0,0,2,2479,
scooby_state_454b1e|8|1 2474,0,0,0,1,0,1,0,1,0,1,0,0,1,0,2479,
scooby_state_454b1e|4|1 2470,2,0,1,0,0,0,0,0,2,1,1,0,1,1,2479,
scooby_state_454b1e|36|1 2473,1,1,1,0,1,1,0,0,0,0,0,0,0,0,2478,
scooby_state_454b1e|5|1 2471,2,0,0,0,1,0,0,1,1,1,0,0,0,1,2478,
scooby_state_454b1e|37|1 2470,1,1,0,1,0,0,1,1,1,0,0,1,1,0,2478,
scooby_state_454b1e|22|1 2474,0,0,0,0,0,0,0,1,0,0,0,0,1,2,2478,
scooby_state_454b1e|10|1 2473,0,0,0,0,0,0,1,0,0,0,0,1,1,1,2477,
scooby_state_454b1e|9|1 2474,0,0,0,0,0,0,1,0,0,1,0,1,0,0,2477,
scooby_state_454b1e|12|1 2471,0,0,0,0,0,0,0,1,1,1,0,0,1,1,2476,
scooby_state_454b1e|23|1 2471,0,0,0,0,0,1,0,0,2,1,0,0,1,0,2476,
scooby_state_454b1e|11|1 2473,1,0,0,0,0,0,1,0,1,0,0,0,0,0,2476,
scooby_state_454b26|35|21 1831,6,4,6,5,7,4,6,3,2,7,6,7,5,546,2445,
scooby_state_454b26|60|21 1725,8,1,8,7,11,3,2,5,3,4,7,10,4,588,2386,
scooby_state_454b26|24|21 1794,5,4,5,3,6,7,3,2,1,4,6,7,7,521,2375,
scooby_state_454b26|32|21 1611,8,7,5,1,11,3,3,5,10,3,11,6,15,673,2372,
scooby_state_454b26|59|46 1774,8,7,13,2,5,7,9,5,7,9,9,9,10,495,2369,
scooby_state_454b26|41|21 1737,4,4,2,8,11,3,5,6,1,3,10,2,4,568,2368,
scooby_state_454b26|49|41 1761,6,12,7,7,13,12,10,15,9,2,17,12,16,431,2330,
scooby_state_454b26|48|21 1726,8,1,4,6,5,5,1,3,5,2,4,4,8,532,2314,
scooby_state_454b26|36|21 1617,8,2,3,7,2,5,2,6,6,4,7,3,5,636,2313,
scooby_state_454b26|25|21 1660,3,5,9,6,2,5,5,9,2,3,7,5,6,577,2304,
scooby_state_454b26|53|21 1788,4,5,3,6,3,4,1,6,2,5,6,7,2,456,2298,
scooby_state_454b26|33|31 1744,12,14,4,4,7,10,4,4,5,6,7,4,6,450,2281,
scooby_state_454b26|50|46 1733,5,9,5,7,4,5,4,6,3,5,13,10,12,452,2273,
scooby_state_454b26|59|21 1658,3,7,6,2,11,7,2,4,3,6,10,2,4,537,2262,
scooby_state_454b26|58|21 1736,5,7,7,7,0,1,2,3,4,6,7,4,9,463,2261,
scooby_state_454b26|34|21 1631,6,8,6,3,6,12,4,4,4,4,7,8,6,550,2259,
scooby_state_454b26|57|21 1691,8,5,2,4,4,7,4,4,3,1,8,5,7,505,2258,
scooby_state_454b26|51|21 1738,4,2,5,6,5,3,2,3,2,6,3,3,4,471,2257,
scooby_state_454b26|45|21 1579,4,3,5,3,6,9,6,2,1,3,3,9,3,618,2254,
scooby_state_454b26|42|21 1549,5,7,4,4,4,7,8,5,5,5,6,6,9,581,2205,
scooby_state_454b26|29|21 1624,4,4,7,9,4,8,5,3,6,1,3,8,4,513,2203,
scooby_state_454b26|48|31 1570,17,10,8,9,6,5,2,2,9,3,5,9,6,496,2157,
scooby_state_454b26|54|21 1586,6,7,4,5,7,3,2,4,6,2,5,5,10,496,2148,
scooby_state_454b26|39|21 1478,3,7,8,7,8,2,3,2,2,5,7,10,4,599,2145,
scooby_state_454b26|52|21 1606,3,5,1,5,7,2,10,1,3,3,4,7,5,482,2144,
scooby_state_454b26|54|41 1627,10,10,7,4,10,8,7,6,2,9,14,5,9,367,2095,
scooby_state_454b26|47|21 1411,6,5,5,7,9,3,2,8,6,4,10,9,6,602,2093,
scooby_state_454b26|44|21 1547,4,4,10,5,5,8,2,6,1,7,5,3,5,479,2091,
scooby_state_454b26|33|21 1626,7,2,6,2,5,3,3,3,3,2,4,4,4,398,2072,
scooby_state_454b26|50|21 1461,3,3,1,4,2,2,2,4,3,1,7,2,6,544,2045,
scooby_state_454b26|39|30 1616,3,10,7,4,6,5,5,3,5,6,9,10,7,345,2041,
scooby_state_454b26|26|21 1383,2,3,2,10,7,4,3,1,4,3,2,6,0,608,2038,
scooby_state_454b26|22|21 1554,4,6,2,1,8,3,3,3,5,2,4,6,4,431,2036,
scooby_state_454b26|23|21 1384,4,3,5,7,5,2,2,7,6,3,6,4,7,558,2003,
scooby_state_454b26|28|21 1523,3,6,3,0,6,6,2,3,2,5,5,6,5,425,2000,
scooby_state_454b26|31|21 1460,8,3,6,4,5,1,2,4,0,3,5,4,5,469,1979,
scooby_state_454b26|49|21 1506,4,4,4,1,5,7,3,2,6,2,9,7,4,415,1979,
scooby_state_454b26|57|30 1456,4,5,7,2,3,6,6,7,6,2,5,8,14,447,1978,
scooby_state_454b26|43|21 1504,5,7,3,6,1,6,4,2,4,7,7,3,4,386,1949,
scooby_state_454b26|59|31 1403,11,4,9,6,13,9,6,2,3,5,7,6,15,430,1929,
scooby_state_454b26|30|21 1541,8,3,0,6,3,2,4,5,2,5,8,2,3,330,1922,
scooby_state_454b26|52|40 1388,19,11,18,9,5,8,9,6,8,10,12,10,10,398,1921,
scooby_state_454b26|37|21 1351,8,5,5,3,6,2,2,3,4,1,7,7,6,509,1919,
scooby_state_454b26|61|21 1411,3,5,3,1,1,3,2,3,5,2,5,4,2,469,1919,
scooby_state_454b26|53|31 1482,9,5,7,6,4,3,4,7,7,1,1,6,9,320,1871,
scooby_state_454b26|53|30 1311,5,9,9,8,6,9,10,6,5,5,9,12,14,451,1869,
scooby_state_454b26|41|41 1450,6,8,6,14,7,9,7,9,4,3,8,12,9,315,1867,
scooby_state_454b26|34|31 1411,9,5,8,4,6,5,4,4,6,4,6,5,7,383,1867,
scooby_state_454b26|58|41 1348,12,6,10,4,8,6,4,5,10,9,13,15,12,404,1866,
scooby_state_454b26|32|30 1349,13,8,5,6,4,6,4,7,1,1,5,6,7,390,1812,
scooby_state_454b26|38|31 1313,14,8,4,3,9,8,3,3,3,7,7,1,12,416,1811,
scooby_state_454b26|57|31 1289,13,5,6,8,14,9,3,4,1,7,9,9,9,422,1808,
scooby_state_454b26|34|30 1292,3,4,4,6,5,11,5,5,5,3,7,9,9,440,1808,
scooby_state_454b26|49|30 1338,8,8,3,7,3,1,7,4,7,6,11,4,7,393,1807,
scooby_state_454b26|38|21 1355,2,2,4,5,4,2,3,3,2,5,6,1,2,383,1779,
scooby_state_454b26|62|21 1245,4,7,3,1,10,3,4,3,6,5,6,5,3,453,1758,
scooby_state_454b26|42|31 1234,11,9,5,4,9,5,5,9,0,0,6,9,9,439,1754,
scooby_state_454b26|58|30 1295,6,8,7,7,5,6,5,3,6,6,9,4,7,380,1754,
scooby_state_454b26|60|30 1255,8,4,10,4,9,3,5,3,2,4,9,10,7,420,1753,
scooby_state_454b26|51|30 1301,2,10,7,6,6,4,6,1,4,8,8,6,8,376,1753,
scooby_state_454b26|48|41 1206,10,10,14,9,10,10,8,4,4,8,10,11,9,428,1751,
scooby_state_454b26|58|40 1319,5,6,13,7,5,7,6,7,7,7,10,11,8,333,1751,
scooby_state_454b26|45|31 1165,7,5,10,11,8,9,7,3,5,1,9,6,11,494,1751,
scooby_state_454b26|56|31 1361,5,0,3,4,4,11,2,0,0,4,6,7,6,319,1732,
scooby_state_454b26|42|41 1275,12,7,4,12,7,6,11,6,7,8,10,8,13,339,1725,
scooby_state_454b26|60|31 1173,8,4,4,10,7,10,2,4,6,8,7,1,14,441,1699,
scooby_state_454b26|42|30 1271,3,4,9,5,5,3,6,7,4,2,7,5,7,360,1698,
scooby_state_454b26|43|41 1246,9,7,9,5,13,9,5,5,3,3,9,9,6,358,1696,
scooby_state_454b26|55|40 1262,11,11,12,9,6,5,7,4,5,3,15,11,10,325,1696,
scooby_state_454b26|52|31 1235,9,7,9,6,5,6,6,5,3,4,3,5,8,384,1695,
scooby_state_454b26|60|41 1248,8,14,9,13,3,10,4,6,5,7,14,9,10,313,1673,
scooby_state_454b26|41|31 1226,12,2,6,7,4,9,3,5,6,7,8,6,8,357,1666,
scooby_state_454b26|61|41 1205,8,9,9,7,5,11,7,9,6,5,11,10,7,333,1642,
scooby_state_454b26|56|41 1278,11,9,4,4,10,9,2,8,8,9,9,5,2,274,1642,
scooby_state_454b26|36|31 1152,10,8,2,8,4,7,2,10,5,5,6,9,8,405,1641,
scooby_state_454b26|54|40 1157,17,7,11,8,9,9,9,7,7,10,11,10,6,362,1640,
scooby_state_454b26|47|31 1112,15,7,8,3,2,8,8,6,4,2,11,7,7,439,1639,
scooby_state_454b26|61|40 1164,15,10,8,8,7,6,8,4,7,6,10,10,17,359,1639,
scooby_state_454b26|54|31 1142,8,6,8,4,3,4,5,7,5,1,2,6,5,432,1638,
scooby_state_454b26|40|40 1299,2,15,9,4,5,6,2,6,9,4,6,10,12,249,1638,
scooby_state_454b26|63|41 1203,8,8,8,6,5,8,7,9,9,6,11,7,9,334,1638,
scooby_state_454b26|59|40 1147,11,5,12,8,9,8,8,8,5,2,11,8,12,383,1637,
scooby_state_454b26|46|30 1190,9,7,7,6,4,9,4,7,9,1,5,6,6,366,1636,
scooby_state_454b26|63|31 1057,7,4,4,2,3,6,2,5,4,4,9,6,8,469,1590,
scooby_state_454b26|46|31 1204,9,4,5,2,5,4,1,4,7,2,6,5,5,322,1585,
scooby_state_454b26|52|41 1250,3,4,10,7,5,7,3,3,6,3,6,8,13,257,1585,
scooby_state_454b26|56|21 1175,3,1,3,1,1,1,2,4,1,3,5,2,4,378,1584,
scooby_state_454b26|32|31 1131,10,6,4,6,2,7,5,4,2,2,10,9,5,379,1582,
scooby_state_454b26|44|40 1141,12,2,13,7,7,9,9,1,6,10,15,7,12,331,1582,
scooby_state_454b26|62|31 1106,10,7,5,6,4,9,7,13,1,5,12,7,6,384,1582,
scooby_state_454b26|46|41 1129,7,5,8,12,2,10,12,5,6,7,15,13,8,340,1579,
scooby_state_454b26|39|31 1144,4,7,8,7,7,5,4,5,3,1,6,4,6,365,1576,
scooby_state_454b26|36|30 1164,2,4,8,6,6,7,3,4,8,7,5,10,7,326,1567,
scooby_state_454b26|38|30 1028,3,7,5,7,3,6,7,7,2,8,5,8,9,430,1535,
scooby_state_454b26|44|31 1138,7,6,9,4,6,8,4,0,3,4,8,6,2,323,1528,
scooby_state_454b26|47|41 1241,8,7,6,4,3,8,1,7,2,6,6,8,8,211,1526,
scooby_state_454b26|58|31 991,7,2,5,7,7,5,2,6,4,3,6,10,9,457,1521,
scooby_state_454b26|62|30 1136,8,3,5,3,5,3,3,7,2,5,7,5,3,300,1495,
scooby_state_454b26|60|40 1120,9,10,16,5,2,9,8,7,5,2,6,12,6,254,1471,
scooby_state_454b26|56|30 1018,9,6,2,12,4,6,4,3,4,2,4,10,6,379,1469,
scooby_state_454b26|54|30 1030,1,11,5,6,8,1,3,2,3,2,7,13,11,365,1468,
scooby_state_454b26|48|30 1026,1,9,3,3,7,6,2,5,0,5,9,4,6,380,1466,
scooby_state_454b26|49|31 994,7,4,6,9,6,4,7,4,6,6,4,8,8,392,1465,
scooby_state_454b26|50|41 1039,10,6,8,9,6,8,7,2,5,5,8,6,12,334,1465,
scooby_state_454b26|52|30 1136,7,8,7,10,5,5,4,3,4,2,4,4,4,259,1462,
scooby_state_454b26|51|31 1085,9,4,3,6,4,1,3,6,5,2,8,3,4,274,1417,
scooby_state_454b26|48|40 1040,7,4,13,6,8,8,5,6,3,4,8,4,13,285,1414,
scooby_state_454b26|50|40 1095,4,0,6,7,5,7,4,5,3,3,6,7,8,252,1412,
scooby_state_454b26|43|30 944,7,9,6,8,3,4,5,4,6,7,5,3,8,392,1411,
scooby_state_454b26|46|40 1118,9,8,9,10,6,4,3,6,5,4,7,8,9,204,1410,
scooby_state_454b26|53|40 1095,7,4,10,6,10,2,2,4,3,5,7,6,14,211,1386,
scooby_state_454b26|42|40 1004,11,6,10,7,9,8,4,8,3,2,6,6,9,274,1367,
scooby_state_454b26|53|41 1016,11,9,10,7,8,6,2,4,1,3,8,9,3,261,1358,
scooby_state_454b26|55|31 974,8,6,5,4,2,5,5,6,3,5,6,4,4,320,1357,
scooby_state_454b26|62|40 999,8,7,12,4,8,7,6,4,7,3,9,12,3,268,1357,
scooby_state_454b26|37|30 969,5,6,5,5,4,2,5,6,2,2,5,3,8,329,1356,
scooby_state_454b26|33|30 993,3,4,4,4,5,5,3,3,3,0,4,5,4,316,1356,
scooby_state_454b26|37|31 965,3,9,8,3,3,5,8,3,3,4,5,4,5,328,1356,
scooby_state_454b26|62|41 963,6,8,5,4,6,15,3,11,3,7,7,6,14,297,1355,
scooby_state_454b26|47|40 971,10,7,9,10,10,6,4,5,6,9,8,6,4,290,1355,
scooby_state_454b26|59|30 930,3,6,6,3,2,6,3,4,2,1,5,8,4,371,1354,
scooby_state_454b26|61|31 965,1,2,3,2,2,4,6,5,3,2,9,6,6,338,1354,
scooby_state_454b26|30|30 943,4,7,7,6,3,2,3,5,5,2,8,7,6,344,1352,
scooby_state_454b26|55|30 986,11,2,4,4,5,4,5,4,4,7,10,4,4,294,1348,
scooby_state_454b26|35|30 935,5,4,3,6,6,3,4,2,1,1,7,5,5,338,1325,
scooby_state_454b26|57|41 1074,8,2,4,4,7,6,5,4,3,2,3,3,9,172,1306,
scooby_state_454b26|35|31 994,4,3,6,2,4,5,7,6,1,1,6,4,4,253,1300,
scooby_state_454b26|41|40 1009,4,4,9,4,5,5,4,5,5,6,11,3,4,216,1294,
scooby_state_454b26|31|31 1035,7,10,5,3,5,0,0,2,3,5,4,8,7,196,1290,
scooby_state_454b26|60|22 1027,7,11,6,4,3,4,7,5,3,2,7,3,6,151,1246,
scooby_state_454b26|44|30 916,8,4,1,2,6,3,4,5,2,1,3,9,2,277,1243,
scooby_state_454b26|56|40 1010,4,4,3,3,2,6,3,3,0,6,6,5,11,171,1237,
scooby_state_454b26|44|41 926,7,6,3,10,2,6,2,4,4,5,8,9,11,216,1219,
scooby_state_454b26|45|30 863,4,2,6,6,4,2,3,2,4,4,6,2,9,301,1218,
scooby_state_454b26|31|30 976,2,4,3,3,0,6,3,2,1,4,8,4,3,170,1189,
scooby_state_454b26|61|30 828,6,4,2,3,7,5,2,5,6,4,1,5,3,307,1188,
scooby_state_454b26|63|40 820,5,9,9,9,4,7,6,6,10,5,6,5,8,278,1187,
scooby_state_454b26|50|31 871,7,9,5,4,3,5,7,3,3,3,5,4,3,255,1187,
scooby_state_454b26|49|40 896,9,5,9,3,7,2,5,7,2,6,7,5,4,218,1185,
scooby_state_454b26|51|41 818,9,11,4,7,2,9,2,1,6,4,9,7,7,289,1185,
scooby_state_454b26|55|41 885,9,6,9,7,7,7,6,5,3,4,5,11,5,215,1184,
scooby_state_454b26|63|30 854,4,2,6,6,5,5,2,2,3,4,5,4,8,273,1183,
scooby_state_454b26|59|41 785,8,8,6,11,3,5,6,4,5,8,9,10,12,302,1182,
scooby_state_454b26|41|30 781,5,6,2,7,4,6,3,5,3,1,6,2,2,303,1136,
scooby_state_454b26|45|41 835,5,3,11,5,5,6,3,4,3,4,2,7,6,234,1133,
scooby_state_454b26|34|22 826,10,10,7,5,6,4,10,7,4,5,12,8,7,208,1129,
scooby_state_454b26|43|40 854,4,6,7,3,4,3,6,8,2,2,6,8,2,214,1129,
scooby_state_454b26|40|30 865,6,4,4,0,5,6,1,1,2,3,4,8,6,208,1123,
scooby_state_454b26|43|31 802,1,3,2,5,0,8,2,1,5,4,3,5,5,226,1072,
scooby_state_454b26|52|22 831,10,11,4,9,4,4,3,6,4,2,4,3,1,124,1020,
scooby_state_454b26|45|40 753,4,2,6,3,1,4,4,1,4,4,3,9,7,212,1017,
scooby_state_454b26|50|30 685,2,4,4,3,0,1,2,1,3,5,7,4,2,242,965,
scooby_state_454b26|51|40 662,6,3,8,5,1,6,2,6,1,4,2,4,1,254,965,
scooby_state_454b26|47|30 652,4,4,6,6,2,2,3,2,1,4,10,3,5,258,962,
scooby_state_454b26|54|22 694,10,12,6,4,7,8,7,4,1,4,4,7,1,189,958,
scooby_state_454b26|57|40 612,6,1,3,8,12,4,2,5,5,4,7,4,2,234,909,
scooby_state_454b26|45|22 655,11,10,5,7,10,5,4,6,0,2,8,4,6,173,906,
scooby_state_454b26|27|22 714,6,10,8,9,4,5,4,3,2,4,5,5,6,120,905,
scooby_state_454b26|39|22 727,5,9,6,4,6,9,3,4,2,2,5,3,2,118,905,
scooby_state_454b26|59|22 506,16,21,4,2,4,9,5,5,4,8,14,10,4,235,847,
scooby_state_454b26|42|22 613,6,11,5,7,4,6,9,1,3,4,6,4,8,160,847,
scooby_state_454b26|50|22 566,6,6,5,10,3,6,3,5,3,5,2,4,6,163,793,
scooby_state_454b26|30|22 605,3,8,6,3,3,2,1,5,2,2,6,4,7,136,793,
scooby_state_454b26|37|22 649,2,6,6,4,5,2,3,4,5,2,5,3,1,95,792,
scooby_state_454b26|46|22 613,3,7,5,3,4,3,3,4,4,8,2,2,5,125,791,
scooby_state_454b26|41|22 536,9,5,4,5,5,2,3,4,4,1,8,8,6,139,739,
scooby_state_454b26|53|22 521,8,15,2,7,4,4,2,4,2,3,8,3,5,129,717,
scooby_state_454b26|55|22 506,4,4,7,7,3,3,3,7,5,5,6,4,7,139,710,
scooby_state_454b26|23|22 486,4,9,5,3,6,5,5,4,3,2,2,6,3,138,681,
scooby_state_454b26|26|22 511,8,8,3,4,4,2,7,5,6,1,6,2,5,108,680,
scooby_state_454b26|62|22 516,6,6,3,4,2,2,1,2,2,3,7,3,7,116,680,
scooby_state_454b26|43|22 509,3,8,6,5,3,3,2,3,3,3,7,2,6,116,679,
scooby_state_454b26|48|22 475,9,8,4,6,4,4,5,1,2,5,11,5,4,136,679,
scooby_state_454b26|47|22 503,5,5,4,4,4,3,4,3,5,2,6,4,5,121,678,
scooby_state_454b26|57|22 526,2,4,4,4,4,5,2,2,2,2,5,7,6,102,677,
scooby_state_454b26|36|22 481,4,4,4,4,4,6,4,4,2,5,7,6,3,139,677,
scooby_state_454b26|61|22 475,7,9,1,4,7,4,4,5,6,4,9,7,6,128,676,
scooby_state_454b26|38|22 504,6,7,1,4,2,3,4,2,5,4,6,6,3,105,662,
scooby_state_454b26|58|22 540,2,8,4,5,3,3,1,2,1,2,3,2,1,49,626,
scooby_state_454b26|22|22 461,4,3,2,1,2,4,5,3,3,2,10,1,9,114,624,
scooby_state_454b26|28|22 507,4,4,2,2,0,2,1,4,1,6,6,3,4,78,624,
scooby_state_454b26|49|22 395,4,5,5,3,4,2,4,3,5,3,7,6,12,164,622,
scooby_state_454b26|25|22 474,8,4,4,5,3,3,3,2,3,5,2,3,5,98,622,
scooby_state_454b26|44|22 398,6,8,2,2,2,7,2,1,9,4,8,6,3,163,621,
scooby_state_454b26|51|22 446,1,3,2,3,2,7,3,3,3,5,4,3,1,133,619,
scooby_state_454b26|63|22 443,8,4,5,3,1,4,2,2,1,1,9,1,1,82,567,
scooby_state_454b26|33|22 369,6,8,6,3,4,2,2,1,1,3,3,8,4,145,565,
scooby_state_454b26|32|22 427,3,7,2,1,4,2,1,2,2,3,8,5,1,97,565,
scooby_state_454b26|24|22 401,9,2,7,2,7,4,3,4,1,1,10,5,3,105,564,
scooby_state_454b26|29|22 334,6,5,2,3,4,0,2,5,4,2,5,1,2,140,515,
scooby_state_454b26|35|22 358,3,6,3,1,1,7,1,2,4,2,6,5,3,107,509,
scooby_state_454b26|40|22 376,4,6,5,5,3,2,2,0,1,1,2,2,5,67,481,
scooby_state_454b26|31|22 284,1,5,3,1,5,3,4,1,1,2,4,6,6,124,450,
scooby_state_454b26|40|17 281,2,10,12,1,4,11,11,4,4,3,10,7,10,25,395,
scooby_state_454b26|56|22 271,1,0,3,3,3,1,2,0,1,1,1,2,3,50,342,
scooby_state_454b26|48|44 261,6,4,4,6,9,6,3,3,7,4,3,8,4,13,341,
scooby_state_454b26|38|17 287,3,3,4,3,2,7,4,2,2,1,3,4,6,9,340,
scooby_state_454b26|58|39 177,6,9,9,11,15,6,8,6,8,6,24,11,16,27,339,
scooby_state_454b26|51|17 189,7,8,12,8,6,5,21,6,8,6,11,9,9,34,339,
scooby_state_454b26|55|17 227,7,3,9,9,5,7,17,4,13,3,6,3,1,25,339,
scooby_state_454b26|47|29 238,2,3,5,3,1,3,2,4,1,3,6,5,4,5,285,
scooby_state_454b26|63|29 225,4,6,2,2,4,5,2,2,3,2,3,3,7,14,284,
scooby_state_454b26|53|45 192,7,8,7,6,5,9,6,6,3,4,4,3,13,10,283,
scooby_state_454b26|45|29 224,6,4,2,3,4,5,2,2,3,3,3,3,7,12,283,
scooby_state_454b26|34|29 168,11,7,11,8,9,6,6,7,3,5,12,4,8,18,283,
scooby_state_454b26|34|17 166,4,3,8,7,7,6,17,6,3,4,7,6,12,26,282,
scooby_state_454b26|42|28 176,7,8,8,9,7,5,5,4,4,5,10,11,9,14,282,
scooby_state_454b26|29|17 224,2,1,3,4,4,2,11,3,1,5,4,8,2,8,282,
scooby_state_454b26|63|17 230,7,1,5,3,2,4,6,0,0,3,5,3,2,11,282,
scooby_state_454b26|38|29 206,5,5,5,8,6,8,2,0,0,1,7,9,5,15,282,
scooby_state_454b26|60|45 197,7,2,4,7,5,8,5,4,4,5,7,10,4,13,282,
scooby_state_454b26|63|44 176,5,6,8,5,5,3,7,8,11,6,11,5,7,16,279,
scooby_state_454b26|19|17 171,2,3,4,7,6,9,19,4,4,7,6,14,3,19,278,
scooby_state_444441|17|0 77,2,0,105,5,4,4,15,8,4,5,1,3,3,13,249,
scooby_state_554469|15|1 0,1,241,0,0,0,0,0,0,0,0,0,0,0,0,242,
scooby_state_554469|17|1 0,0,242,0,0,0,0,0,0,0,0,0,0,0,0,242,
scooby_state_554469|7|1 0,0,241,0,0,0,0,0,0,0,0,0,0,0,0,241,
scooby_state_554469|9|1 0,0,241,0,0,0,0,0,0,0,0,0,0,0,0,241,
scooby_state_554469|11|1 0,0,241,0,0,0,0,0,0,0,0,0,0,0,0,241,
scooby_state_554469|13|1 0,0,241,0,0,0,0,0,0,0,0,0,0,0,0,241,
scooby_state_554462|10|1 241,0,0,0,0,0,0,0,0,0,0,0,0,0,0,241,
scooby_state_554462|8|1 241,0,0,0,0,0,0,0,0,0,0,0,0,0,0,241,
scooby_state_554462|12|1 241,0,0,0,0,0,0,0,0,0,0,0,0,0,0,241,
scooby_state_554462|4|1 240,0,0,0,0,0,0,0,0,0,0,0,0,0,0,240,
scooby_state_554469|29|1 0,0,239,0,0,0,1,0,0,0,0,0,0,0,0,240,
scooby_state_554469|21|1 0,0,240,0,0,0,0,0,0,0,0,0,0,0,0,240,
scooby_state_554469|27|1 0,0,240,0,0,0,0,0,0,0,0,0,0,0,0,240,
scooby_state_554469|43|1 0,0,240,0,0,0,0,0,0,0,0,0,0,0,0,240,
scooby_state_554469|49|1 0,0,240,0,0,0,0,0,0,0,0,0,0,0,0,240,
scooby_state_554469|33|1 0,0,239,0,0,0,0,0,0,0,0,0,1,0,0,240,
scooby_state_554469|47|1 0,1,237,0,1,0,0,1,0,0,0,0,0,0,0,240,
scooby_state_554462|42|1 239,0,1,0,0,0,0,0,0,0,0,0,0,0,0,240,
scooby_state_554469|5|1 0,0,239,1,0,0,0,0,0,0,0,0,0,0,0,240,
scooby_state_554469|39|1 0,0,240,0,0,0,0,0,0,0,0,0,0,0,0,240,
scooby_state_554462|48|1 240,0,0,0,0,0,0,0,0,0,0,0,0,0,0,240,
scooby_state_554469|3|1 0,0,240,0,0,0,0,0,0,0,0,0,0,0,0,240,
scooby_state_554469|41|1 0,0,239,0,0,0,1,0,0,0,0,0,0,0,0,240,
scooby_state_554469|19|1 0,0,240,0,0,0,0,0,0,0,0,0,0,0,0,240,
scooby_state_554469|35|1 0,0,240,0,0,0,0,0,0,0,0,0,0,0,0,240,
scooby_state_554469|37|1 0,0,239,0,0,0,1,0,0,0,0,0,0,0,0,240,
scooby_state_554469|31|1 0,0,240,0,0,0,0,0,0,0,0,0,0,0,0,240,
scooby_state_554469|45|1 0,0,240,0,0,0,0,0,0,0,0,0,0,0,0,240,
scooby_state_554462|46|1 240,0,0,0,0,0,0,0,0,0,0,0,0,0,0,240,
scooby_state_554462|44|1 239,0,0,0,0,0,1,0,0,0,0,0,0,0,0,240,
scooby_state_554469|61|1 0,0,239,0,0,0,0,0,0,0,0,0,0,0,0,239,
scooby_state_554469|57|1 0,0,239,0,0,0,0,0,0,0,0,0,0,0,0,239,
scooby_state_554462|38|1 239,0,0,0,0,0,0,0,0,0,0,0,0,0,0,239,
scooby_state_554462|30|1 239,0,0,0,0,0,0,0,0,0,0,0,0,0,0,239,
scooby_state_554462|60|1 239,0,0,0,0,0,0,0,0,0,0,0,0,0,0,239,
scooby_state_554469|55|1 0,0,238,0,0,1,0,0,0,0,0,0,0,0,0,239,
scooby_state_554462|62|1 238,0,1,0,0,0,0,0,0,0,0,0,0,0,0,239,
scooby_state_554469|53|1 0,0,239,0,0,0,0,0,0,0,0,0,0,0,0,239,
scooby_state_554469|63|1 0,0,239,0,0,0,0,0,0,0,0,0,0,0,0,239,
scooby_state_554462|54|1 239,0,0,0,0,0,0,0,0,0,0,0,0,0,0,239,
scooby_state_554462|34|1 239,0,0,0,0,0,0,0,0,0,0,0,0,0,0,239,
scooby_state_554469|1|1 0,0,238,0,0,0,0,0,0,0,0,0,1,0,0,239,
scooby_state_554469|51|1 1,0,237,0,0,0,0,0,0,0,0,0,0,1,0,239,
scooby_state_554469|59|1 0,1,237,0,0,0,0,0,0,0,0,0,0,1,0,239,
scooby_state_554462|2|1 239,0,0,0,0,0,0,0,0,0,0,0,0,0,0,239,
scooby_state_554462|32|1 238,0,0,0,0,0,0,0,0,1,0,0,0,0,0,239,
scooby_state_554462|50|1 239,0,0,0,0,0,0,0,0,0,0,0,0,0,0,239,
scooby_state_554462|58|1 239,0,0,0,0,0,0,0,0,0,0,0,0,0,0,239,
scooby_state_554469|23|1 0,0,238,0,0,0,1,0,0,0,0,0,0,0,0,239,
scooby_state_554462|0|0 238,0,0,0,0,0,0,0,0,0,1,0,0,0,0,239,
scooby_state_554469|25|1 0,0,239,0,0,0,0,0,0,0,0,0,0,0,0,239,
scooby_state_554462|6|1 239,0,0,0,0,0,0,0,0,0,0,0,0,0,0,239,
scooby_state_554462|36|1 239,0,0,0,0,0,0,0,0,0,0,0,0,0,0,239,
scooby_state_554462|56|1 238,0,0,0,0,1,0,0,0,0,0,0,0,0,0,239,
scooby_state_554462|52|1 239,0,0,0,0,0,0,0,0,0,0,0,0,0,0,239,
scooby_state_554462|28|1 239,0,0,0,0,0,0,0,0,0,0,0,0,0,0,239,
scooby_state_554462|40|1 239,0,0,0,0,0,0,0,0,0,0,0,0,0,0,239,
scooby_state_554462|16|1 238,0,0,0,0,0,0,0,0,0,0,0,0,0,0,238,
scooby_state_554462|24|1 237,0,0,0,0,0,0,0,0,0,0,0,0,0,0,237,
scooby_state_554462|22|1 237,0,0,0,0,0,0,0,0,0,0,0,0,0,0,237,
scooby_state_554462|20|1 237,0,0,0,0,0,0,0,0,0,0,0,0,0,0,237,
scooby_state_554462|26|1 237,0,0,0,0,0,0,0,0,0,0,0,0,0,0,237,
scooby_state_554462|14|1 237,0,0,0,0,0,0,0,0,0,0,0,0,0,0,237,
scooby_state_554462|18|1 236,0,0,0,0,0,0,0,0,0,0,0,0,0,0,236,
scooby_state_454b26|60|44 201,1,2,1,3,2,0,1,2,2,1,3,2,3,4,228,
scooby_state_454b26|45|45 182,6,3,0,4,2,6,1,2,2,1,2,4,3,10,228,
scooby_state_454b26|59|25 129,6,3,17,5,6,4,2,5,7,4,7,9,7,17,228,
scooby_state_454b26|33|25 105,8,4,28,7,6,5,2,7,6,7,8,8,8,19,228,
scooby_state_454b26|54|44 159,3,9,5,4,2,4,1,4,6,4,4,7,3,12,227,
scooby_state_454b26|51|45 203,1,0,1,3,2,2,1,0,1,1,3,5,0,4,227,
scooby_state_454b26|45|20 192,4,3,2,3,3,1,2,2,3,5,0,2,2,3,227,
scooby_state_454b26|59|29 179,5,4,2,3,4,1,2,4,1,1,9,2,4,6,227,
scooby_state_454b26|28|20 197,5,1,0,2,1,1,1,4,1,2,2,3,2,5,227,
scooby_state_454b26|57|39 167,6,4,4,3,4,4,3,6,3,3,2,5,2,11,227,
scooby_state_454b26|23|17 167,3,2,2,3,5,5,6,2,5,5,1,3,5,12,226,
scooby_state_454b26|61|45 132,13,5,5,5,3,6,3,3,7,6,10,5,8,15,226,
scooby_state_454b26|57|17 160,0,3,4,5,5,8,7,3,2,3,3,7,3,13,226,
scooby_state_454b26|26|18 141,3,5,3,7,4,8,5,2,5,3,11,9,1,19,226,
scooby_state_454b26|59|39 151,7,6,6,8,2,5,5,7,4,1,2,5,4,13,226,
scooby_state_454b26|56|44 142,5,4,8,8,5,1,5,10,3,3,5,6,9,12,226,
scooby_state_454b26|22|17 183,0,1,3,2,6,2,5,2,2,3,4,2,2,9,226,
scooby_state_454b26|27|17 165,6,2,7,1,2,4,12,6,2,2,2,2,4,9,226,
scooby_state_454b26|52|45 138,10,11,6,7,5,4,3,7,2,5,7,5,6,10,226,
scooby_state_454b26|49|29 167,3,4,4,6,5,2,4,6,2,2,4,8,3,6,226,
scooby_state_454b26|61|17 190,3,2,0,3,4,3,3,2,3,2,3,0,1,7,226,
scooby_state_454b26|42|17 170,3,3,6,4,3,5,8,0,2,0,0,8,6,8,226,
scooby_state_454b26|49|38 117,6,5,8,14,9,12,5,5,4,5,6,8,6,15,225,
scooby_state_454b26|20|17 122,3,3,6,1,9,4,17,8,7,5,10,5,4,21,225,
scooby_state_454b26|52|17 161,2,6,3,7,2,4,6,2,2,6,4,4,1,15,225,
scooby_state_454b26|54|20 161,7,5,6,2,2,6,3,5,4,2,3,5,4,10,225,
scooby_state_454b26|54|45 128,11,7,7,5,6,1,11,3,8,4,8,11,3,12,225,
scooby_state_454b26|62|17 125,4,3,5,3,5,5,16,5,2,5,3,8,8,27,224,
scooby_state_4005c0|23|0 218,0,0,0,0,0,0,0,0,0,0,0,0,0,0,218,
scooby_state_5555d0|23|0 217,0,0,0,0,0,0,0,0,0,0,0,0,0,0,217,
scooby_state_43f8e0|35|0 123,0,91,0,0,0,0,0,2,0,0,0,0,0,0,216,
scooby_state_56dd0f|52|-2 47,87,1,1,0,0,6,73,0,0,0,0,0,0,0,215,
scooby_state_5544bb|8|1 201,0,0,0,0,0,0,0,0,0,0,0,0,0,0,201,
scooby_state_5544c2|7|1 201,0,0,0,0,0,0,0,0,0,0,0,0,0,0,201,
scooby_state_5544c2|9|1 200,0,0,0,0,0,0,0,0,0,0,1,0,0,0,201,
scooby_state_531d10|52|0 200,0,0,0,0,0,1,0,0,0,0,0,0,0,0,201,
scooby_state_5544bb|10|1 200,0,0,0,0,0,0,0,0,0,0,0,0,0,0,200,
scooby_state_5544c2|1|1 200,0,0,0,0,0,0,0,0,0,0,0,0,0,0,200,
scooby_state_5544c2|11|1 200,0,0,0,0,0,0,0,0,0,0,0,0,0,0,200,
scooby_state_5544c2|39|1 200,0,0,0,0,0,0,0,0,0,0,0,0,0,0,200,
scooby_state_5544c2|13|1 200,0,0,0,0,0,0,0,0,0,0,0,0,0,0,200,
scooby_state_5544c2|27|1 200,0,0,0,0,0,0,0,0,0,0,0,0,0,0,200,
scooby_state_5544bb|6|1 200,0,0,0,0,0,0,0,0,0,0,0,0,0,0,200,
scooby_state_5544bb|40|1 199,1,0,0,0,0,0,0,0,0,0,0,0,0,0,200,
scooby_state_5544c2|41|1 200,0,0,0,0,0,0,0,0,0,0,0,0,0,0,200,
scooby_state_5544c2|35|1 200,0,0,0,0,0,0,0,0,0,0,0,0,0,0,200,
scooby_state_5544c2|5|1 200,0,0,0,0,0,0,0,0,0,0,0,0,0,0,200,
scooby_state_5544bb|12|1 199,0,0,0,0,0,0,0,0,0,0,0,1,0,0,200,
scooby_state_5544bb|4|1 200,0,0,0,0,0,0,0,0,0,0,0,0,0,0,200,
scooby_state_453481|18|1 200,0,0,0,0,0,0,0,0,0,0,0,0,0,0,200,
scooby_state_5544c2|3|1 200,0,0,0,0,0,0,0,0,0,0,0,0,0,0,200,
scooby_state_5544bb|0|0 198,0,0,0,0,0,0,1,1,0,0,0,0,0,0,200,
scooby_state_5544c2|59|1 199,0,0,0,0,0,0,0,1,0,0,0,0,0,0,200,
scooby_state_454b26|43|17 140,5,2,8,3,1,5,10,0,0,1,3,3,6,12,199,
scooby_state_5544c2|51|1 199,0,0,0,0,0,0,0,0,0,0,0,0,0,0,199,
scooby_state_5544c2|55|1 199,0,0,0,0,0,0,0,0,0,0,0,0,0,0,199,
scooby_state_5544c2|33|1 198,0,0,0,0,0,0,0,1,0,0,0,0,0,0,199,
scooby_state_5544c2|37|1 198,0,1,0,0,0,0,0,0,0,0,0,0,0,0,199,
scooby_state_5544c2|29|1 199,0,0,0,0,0,0,0,0,0,0,0,0,0,0,199,
scooby_state_5544bb|38|1 198,0,0,0,0,0,0,1,0,0,0,0,0,0,0,199,
scooby_state_5544bb|34|1 199,0,0,0,0,0,0,0,0,0,0,0,0,0,0,199,
scooby_state_5544bb|2|1 199,0,0,0,0,0,0,0,0,0,0,0,0,0,0,199,
scooby_state_5544bb|28|1 199,0,0,0,0,0,0,0,0,0,0,0,0,0,0,199,
scooby_state_44b480|18|1 194,0,0,2,0,1,0,1,0,0,0,0,1,0,0,199,
scooby_state_5544bb|36|1 199,0,0,0,0,0,0,0,0,0,0,0,0,0,0,199,
scooby_state_5544bb|60|1 198,0,0,0,0,0,0,0,0,0,0,0,0,0,0,198,
scooby_state_5544c2|53|1 198,0,0,0,0,0,0,0,0,0,0,0,0,0,0,198,
scooby_state_5544bb|54|1 197,0,0,0,0,0,0,0,0,0,1,0,0,0,0,198,
scooby_state_5544c2|57|1 197,0,0,0,1,0,0,0,0,0,0,0,0,0,0,198,
scooby_state_5544c2|45|1 197,0,0,0,1,0,0,0,0,0,0,0,0,0,0,198,
scooby_state_5544c2|47|1 198,0,0,0,0,0,0,0,0,0,0,0,0,0,0,198,
scooby_state_5544bb|56|1 198,0,0,0,0,0,0,0,0,0,0,0,0,0,0,198,
scooby_state_5544bb|58|1 198,0,0,0,0,0,0,0,0,0,0,0,0,0,0,198,
scooby_state_5544c2|61|1 198,0,0,0,0,0,0,0,0,0,0,0,0,0,0,198,
scooby_state_5544c2|23|1 196,0,0,0,0,1,0,0,0,0,0,0,0,0,0,197,
scooby_state_5544c2|63|1 197,0,0,0,0,0,0,0,0,0,0,0,0,0,0,197,
scooby_state_5544bb|52|1 197,0,0,0,0,0,0,0,0,0,0,0,0,0,0,197,
scooby_state_5544c2|31|1 196,0,0,0,0,0,0,0,0,1,0,0,0,0,0,197,
scooby_state_5544bb|62|1 197,0,0,0,0,0,0,0,0,0,0,0,0,0,0,197,
scooby_state_5544c2|19|1 197,0,0,0,0,0,0,0,0,0,0,0,0,0,0,197,
scooby_state_5544bb|32|1 197,0,0,0,0,0,0,0,0,0,0,0,0,0,0,197,
scooby_state_5544c2|25|1 196,0,0,0,0,0,0,0,0,0,0,0,0,0,0,196,
scooby_state_5544bb|30|1 196,0,0,0,0,0,0,0,0,0,0,0,0,0,0,196,
scooby_state_5544c2|43|1 193,1,0,1,1,0,0,0,0,0,0,0,0,0,0,196,
scooby_state_5544bb|46|1 195,0,0,0,0,0,0,1,0,0,0,0,0,0,0,196,
scooby_state_5544bb|26|1 196,0,0,0,0,0,0,0,0,0,0,0,0,0,0,196,
scooby_state_5544bb|42|1 196,0,0,0,0,0,0,0,0,0,0,0,0,0,0,196,
scooby_state_5544c2|49|1 193,0,0,0,0,1,0,0,0,0,0,0,0,1,0,195,
scooby_state_5544bb|50|1 194,0,0,0,0,0,0,1,0,0,0,0,0,0,0,195,
scooby_state_5544bb|44|1 194,1,0,0,0,0,0,0,0,0,0,0,0,0,0,195,
scooby_state_5544bb|24|1 194,0,0,0,0,0,0,0,0,0,0,0,0,0,0,194,
scooby_state_454502|20|1 1,1,184,2,1,3,0,1,0,0,0,0,0,0,0,193,
scooby_state_4544ed|19|1 193,0,0,0,0,0,0,0,0,0,0,0,0,0,0,193,
scooby_state_454b26|54|17 137,2,3,1,1,3,6,8,2,0,2,4,2,7,15,193,
scooby_state_5544bb|48|1 193,0,0,0,0,0,0,0,0,0,0,0,0,0,0,193,
scooby_state_5544c2|15|1 192,0,0,0,0,0,0,0,0,0,0,0,0,0,0,192,
scooby_state_5544bb|14|1 190,0,0,0,0,0,0,0,0,0,0,0,0,0,0,190,
scooby_state_5485c2|23|0 155,15,1,0,1,1,1,1,2,1,2,0,2,3,2,187,
scooby_state_5544c2|21|1 184,0,0,0,0,0,0,0,0,0,1,0,0,0,0,185,
scooby_state_5544bb|22|1 185,0,0,0,0,0,0,0,0,0,0,0,0,0,0,185,
scooby_state_5544c2|17|1 176,0,0,0,0,0,0,0,0,0,0,0,0,0,0,176,
scooby_state_5544bb|20|1 173,1,0,0,0,0,0,0,0,0,0,0,0,0,0,174,
scooby_state_454b26|35|20 109,7,5,2,0,3,4,5,5,2,2,7,5,9,6,171,
scooby_state_454b26|55|29 136,2,3,3,1,1,2,2,2,2,5,1,2,1,8,171,
scooby_state_454b26|56|29 133,3,2,2,1,2,2,5,0,3,2,8,2,2,4,171,
scooby_state_454b26|50|17 154,1,1,0,0,0,0,2,1,0,1,2,0,2,7,171,
scooby_state_454b26|59|58 70,5,8,8,10,9,4,3,7,6,7,8,5,9,12,171,
scooby_state_454b26|47|38 150,3,3,0,0,2,2,1,2,2,0,0,1,1,4,171,
scooby_state_454b26|59|38 100,1,13,5,4,6,6,3,6,6,2,4,3,2,10,171,
scooby_state_454b26|36|29 140,3,1,1,2,1,5,1,1,2,1,2,2,4,5,171,
scooby_state_454b26|53|28 148,3,4,1,1,0,3,1,1,2,1,2,0,3,1,171,
scooby_state_454b26|51|39 149,1,2,2,4,1,0,4,0,1,2,0,2,1,2,171,
scooby_state_454b26|59|28 109,19,4,7,2,3,6,1,1,1,2,6,2,2,6,171,
scooby_state_454b26|50|20 136,3,2,1,3,3,1,0,3,6,2,2,0,3,6,171,
scooby_state_454b26|55|44 137,1,3,1,2,1,3,0,2,2,2,3,4,1,9,171,
scooby_state_454b26|58|29 162,0,2,0,0,0,0,1,0,0,2,0,1,2,1,171,
scooby_state_454b26|63|39 148,1,0,1,0,2,2,2,2,1,0,2,4,1,5,171,
scooby_state_454b26|28|28 78,30,3,4,4,5,3,3,8,4,4,4,6,3,11,170,
scooby_state_454b26|61|39 126,3,1,4,3,4,1,2,3,1,6,4,6,0,6,170,
scooby_state_454b26|61|58 72,9,10,6,6,6,3,5,3,3,9,7,10,7,14,170,
scooby_state_454b26|33|20 132,3,2,2,7,1,3,5,0,4,3,0,3,2,3,170,
scooby_state_454b26|30|28 120,5,4,3,0,5,2,1,5,3,2,4,6,4,6,170,
scooby_state_454b26|41|17 124,6,4,5,0,0,5,7,4,1,1,3,2,2,6,170,
scooby_state_454b26|63|28 114,5,5,4,3,5,1,2,2,0,5,6,6,4,8,170,
scooby_state_454b26|35|29 118,5,4,4,8,1,2,0,3,1,1,6,3,2,12,170,
scooby_state_454b26|51|29 114,2,2,6,0,2,5,6,4,6,6,3,3,1,10,170,
scooby_state_454b26|37|28 132,2,2,3,2,1,1,4,1,2,4,3,5,5,3,170,
scooby_state_454b26|40|28 133,5,2,1,1,3,3,1,2,5,2,2,4,4,2,170,
scooby_state_454b26|35|17 128,3,0,4,2,3,4,9,2,1,1,1,5,1,6,170,
scooby_state_454b26|46|29 129,0,3,2,2,7,4,4,3,1,1,3,2,4,5,170,
scooby_state_454b26|55|20 129,2,4,5,2,3,2,3,2,1,0,5,3,5,4,170,
scooby_state_454b26|30|29 126,3,1,3,5,5,4,2,1,1,1,4,4,3,7,170,
scooby_state_454b26|41|29 118,1,1,1,3,2,3,2,1,2,2,11,11,4,8,170,
scooby_state_454b26|56|39 84,6,4,8,6,4,5,5,9,5,4,4,8,3,15,170,
scooby_state_454b26|58|45 136,3,2,3,5,2,2,1,4,1,3,2,2,0,4,170,
scooby_state_454b26|46|20 94,19,4,4,5,1,3,4,4,2,5,3,2,9,11,170,
scooby_state_454b26|31|20 127,5,1,0,1,5,4,2,2,4,3,3,0,7,6,170,
scooby_state_454b26|59|20 133,3,3,4,3,3,1,1,4,3,0,4,3,2,3,170,
scooby_state_454b26|53|44 108,3,4,6,6,3,4,1,2,3,2,2,10,6,10,170,
scooby_state_454b26|46|17 117,2,2,3,4,2,5,6,2,2,1,4,1,6,12,169,
scooby_state_454b26|54|29 120,6,2,3,4,5,4,5,5,2,1,2,4,0,6,169,
scooby_state_454b26|28|17 124,2,0,7,1,3,5,1,1,1,6,2,4,3,9,169,
scooby_state_454b26|46|18 95,2,4,4,5,5,6,0,3,1,6,7,15,8,8,169,
scooby_state_454b26|58|18 91,10,4,2,6,1,4,8,6,4,5,8,6,5,9,169,
scooby_state_454b26|55|39 101,5,3,7,4,2,4,3,4,4,5,5,8,6,8,169,
scooby_state_454b26|59|42 116,2,2,6,2,4,5,4,2,2,1,6,2,6,9,169,
scooby_state_454b26|33|17 116,2,2,8,1,5,6,4,2,1,7,2,6,2,5,169,
scooby_state_454b26|45|44 100,2,4,5,4,4,10,3,2,3,4,6,4,9,9,169,
scooby_state_454b26|45|39 115,5,1,3,4,1,7,5,1,2,3,2,4,8,8,169,
scooby_state_454b26|38|18 95,5,5,6,7,5,4,3,7,5,6,3,4,8,6,169,
scooby_state_454b26|58|44 106,2,4,3,2,5,4,6,4,1,6,4,3,4,15,169,
scooby_state_454b26|39|29 103,7,1,7,2,5,1,5,5,3,1,4,5,4,16,169,
scooby_state_454b26|62|44 102,4,5,5,2,7,4,3,2,3,4,5,10,4,9,169,
scooby_state_454b26|45|42 97,3,3,2,3,4,4,5,7,4,6,7,8,7,9,169,
scooby_state_454b26|62|18 76,16,3,6,6,8,4,5,4,5,5,8,5,5,13,169,
scooby_state_454b26|32|20 122,4,3,4,4,2,2,1,4,1,3,3,4,6,6,169,
scooby_state_454b26|44|20 139,2,3,1,0,0,3,3,1,2,3,5,0,4,3,169,
scooby_state_454b26|37|20 146,3,1,0,1,1,4,2,0,1,2,1,1,3,3,169,
scooby_state_454b26|59|17 114,4,1,4,1,3,8,5,4,3,0,1,3,4,14,169,
scooby_state_454b26|46|38 111,3,4,2,5,3,7,1,4,3,2,7,4,4,8,168,
scooby_state_454b26|48|17 99,3,7,4,5,3,2,9,2,1,3,5,5,5,15,168,
scooby_state_454b26|47|44 78,4,8,4,6,9,7,3,4,6,6,7,3,12,11,168,
scooby_state_5544bb|16|1 168,0,0,0,0,0,0,0,0,0,0,0,0,0,0,168,
scooby_state_454b26|62|28 97,7,3,2,7,4,1,5,7,3,6,6,7,4,9,168,
scooby_state_445a41|41|1 4,0,0,3,0,3,0,0,0,0,0,152,0,3,0,165,
scooby_state_5544bb|18|1 165,0,0,0,0,0,0,0,0,0,0,0,0,0,0,165,
scooby_state_454b26|18|17 114,1,3,4,2,2,2,3,6,2,4,3,0,3,15,164,
scooby_state_590a44|41|1 93,0,0,0,1,31,2,3,0,3,3,9,19,0,0,164,
scooby_state_454b26|44|17 92,5,2,4,4,2,4,14,4,8,1,2,5,4,13,164,
scooby_state_441a41|41|1 164,0,0,0,0,0,0,0,0,0,0,0,0,0,0,164,
scooby_state_539a40|41|0 159,0,0,0,0,0,0,0,0,0,1,2,0,0,0,162,
scooby_state_5544bb|3|1 161,0,0,0,0,0,0,0,0,0,0,0,0,0,0,161,
scooby_state_5544bb|5|1 161,0,0,0,0,0,0,0,0,0,0,0,0,0,0,161,
scooby_state_5544c2|6|1 161,0,0,0,0,0,0,0,0,0,0,0,0,0,0,161,
scooby_state_5544bb|7|1 160,0,0,1,0,0,0,0,0,0,0,0,0,0,0,161,
scooby_state_5544bb|1|1 160,0,0,0,0,0,0,0,0,0,0,1,0,0,0,161,
scooby_state_5544c2|2|1 160,0,0,0,0,0,0,0,0,0,0,0,1,0,0,161,
scooby_state_5544c2|62|1 160,0,0,0,0,1,0,0,0,0,0,0,0,0,0,161,
scooby_state_5544bb|63|1 161,0,0,0,0,0,0,0,0,0,0,0,0,0,0,161,
scooby_state_5544c2|4|1 161,0,0,0,0,0,0,0,0,0,0,0,0,0,0,161,
scooby_state_5544c2|0|0 161,0,0,0,0,0,0,0,0,0,0,0,0,0,0,161,
scooby_state_5544c2|8|1 161,0,0,0,0,0,0,0,0,0,0,0,0,0,0,161,
scooby_state_5544c2|60|1 159,0,0,0,0,0,0,0,0,0,0,0,0,0,1,160,
scooby_state_447a10|40|0 159,1,0,0,0,0,0,0,0,0,0,0,0,0,0,160,
scooby_state_5544bb|59|1 160,0,0,0,0,0,0,0,0,0,0,0,0,0,0,160,
scooby_state_5544c2|10|1 160,0,0,0,0,0,0,0,0,0,0,0,0,0,0,160,
scooby_state_5544bb|9|1 160,0,0,0,0,0,0,0,0,0,0,0,0,0,0,160,
scooby_state_595901|36|1 159,0,0,0,0,0,0,0,1,0,0,0,0,0,0,160,
scooby_state_5544bb|55|1 160,0,0,0,0,0,0,0,0,0,0,0,0,0,0,160,
scooby_state_5544bb|57|1 160,0,0,0,0,0,0,0,0,0,0,0,0,0,0,160,
scooby_state_5544c2|54|1 160,0,0,0,0,0,0,0,0,0,0,0,0,0,0,160,
scooby_state_5544bb|61|1 160,0,0,0,0,0,0,0,0,0,0,0,0,0,0,160,
scooby_state_5544c2|56|1 159,0,0,0,0,0,0,0,0,0,1,0,0,0,0,160,
scooby_state_5544c2|58|1 160,0,0,0,0,0,0,0,0,0,0,0,0,0,0,160,
scooby_state_5544bb|45|1 159,0,0,0,0,0,0,0,0,0,0,0,0,0,0,159,
scooby_state_5544c2|44|1 159,0,0,0,0,0,0,0,0,0,0,0,0,0,0,159,
scooby_state_5544c2|30|1 159,0,0,0,0,0,0,0,0,0,0,0,0,0,0,159,
scooby_state_5544bb|11|1 158,0,0,0,0,0,0,0,0,0,0,0,0,1,0,159,
scooby_state_5544bb|41|1 158,1,0,0,0,0,0,0,0,0,0,0,0,0,0,159,
scooby_state_5544c2|40|1 158,0,1,0,0,0,0,0,0,0,0,0,0,0,0,159,
scooby_state_5544c2|50|1 159,0,0,0,0,0,0,0,0,0,0,0,0,0,0,159,
scooby_state_5544c2|42|1 159,0,0,0,0,0,0,0,0,0,0,0,0,0,0,159,
scooby_state_5544bb|39|1 159,0,0,0,0,0,0,0,0,0,0,0,0,0,0,159,
scooby_state_5544bb|43|1 159,0,0,0,0,0,0,0,0,0,0,0,0,0,0,159,
scooby_state_5544c2|28|1 159,0,0,0,0,0,0,0,0,0,0,0,0,0,0,159,
scooby_state_5544bb|29|1 159,0,0,0,0,0,0,0,0,0,0,0,0,0,0,159,
scooby_state_5544c2|46|1 159,0,0,0,0,0,0,0,0,0,0,0,0,0,0,159,
scooby_state_5544c2|12|1 159,0,0,0,0,0,0,0,0,0,0,0,0,0,0,159,
scooby_state_5544c2|38|1 159,0,0,0,0,0,0,0,0,0,0,0,0,0,0,159,
scooby_state_5544c2|22|1 158,0,0,0,0,0,0,0,0,0,0,0,0,0,0,158,
scooby_state_5544c2|16|1 158,0,0,0,0,0,0,0,0,0,0,0,0,0,0,158,
scooby_state_45cd20|52|-2 72,0,6,79,0,0,0,0,0,0,0,0,0,1,0,158,
scooby_state_5544bb|47|1 158,0,0,0,0,0,0,0,0,0,0,0,0,0,0,158,
scooby_state_5544c2|32|1 156,1,0,0,0,0,0,0,0,0,0,0,0,0,1,158,
scooby_state_5544bb|49|1 158,0,0,0,0,0,0,0,0,0,0,0,0,0,0,158,
scooby_state_5544c2|48|1 157,0,0,0,0,0,0,0,1,0,0,0,0,0,0,158,
scooby_state_5544bb|31|1 158,0,0,0,0,0,0,0,0,0,0,0,0,0,0,158,
scooby_state_5544c2|18|1 157,0,0,0,0,0,0,0,0,0,0,0,0,0,0,157,
scooby_state_56ada0|54|13 4,2,1,9,4,16,1,2,3,6,3,7,17,75,7,157,
scooby_state_5544bb|27|1 157,0,0,0,0,0,0,0,0,0,0,0,0,0,0,157,
scooby_state_5544c2|52|1 156,0,0,0,0,0,0,1,0,0,0,0,0,0,0,157,
scooby_state_5544c2|24|1 157,0,0,0,0,0,0,0,0,0,0,0,0,0,0,157,
scooby_state_5544c2|26|1 157,0,0,0,0,0,0,0,0,0,0,0,0,0,0,157,
scooby_state_5544bb|51|1 157,0,0,0,0,0,0,0,0,0,0,0,0,0,0,157,
scooby_state_5544bb|53|1 157,0,0,0,0,0,0,0,0,0,0,0,0,0,0,157,
scooby_state_5544bb|17|1 156,0,0,0,0,0,0,0,0,0,0,0,0,0,0,156,
scooby_state_5544c2|14|1 156,0,0,0,0,0,0,0,0,0,0,0,0,0,0,156,
scooby_state_5544c2|36|1 156,0,0,0,0,0,0,0,0,0,0,0,0,0,0,156,
scooby_state_5544bb|37|1 156,0,0,0,0,0,0,0,0,0,0,0,0,0,0,156,
scooby_state_58bd87|54|2 147,0,0,0,0,0,0,9,0,0,0,0,0,0,0,156,
scooby_state_5544bb|25|1 156,0,0,0,0,0,0,0,0,0,0,0,0,0,0,156,
scooby_state_5544bb|13|1 156,0,0,0,0,0,0,0,0,0,0,0,0,0,0,156,
scooby_state_57cd80|54|2 156,0,0,0,0,0,0,0,0,0,0,0,0,0,0,156,
scooby_state_5544bb|23|1 156,0,0,0,0,0,0,0,0,0,0,0,0,0,0,156,
scooby_state_5544c2|34|1 156,0,0,0,0,0,0,0,0,0,0,0,0,0,0,156,
scooby_state_5544bb|35|1 155,0,0,0,0,0,0,0,0,0,0,0,0,0,0,155,
scooby_state_58f8d8|35|0 106,49,0,0,0,0,0,0,0,0,0,0,0,0,0,155,
scooby_state_5544bb|33|1 155,0,0,0,0,0,0,0,0,0,0,0,0,0,0,155,
scooby_state_58c440|17|9 154,0,0,0,0,0,0,1,0,0,0,0,0,0,0,155,
scooby_state_5544bb|15|1 154,0,0,0,0,0,0,0,0,1,0,0,0,0,0,155,
scooby_state_58f236|8|0 117,0,0,0,0,0,0,0,0,0,0,37,0,0,0,154,
scooby_state_5544c2|20|1 148,0,0,0,0,0,0,0,0,0,0,0,0,0,0,148,
scooby_state_558f9e|3|1 147,0,0,0,0,0,0,0,0,0,0,0,0,0,0,147,
scooby_state_454b26|61|47 66,1,11,10,3,6,2,7,2,9,9,5,7,2,6,146,
scooby_state_5544bb|21|1 146,0,0,0,0,0,0,0,0,0,0,0,0,0,0,146,
scooby_state_5544bb|19|1 145,0,0,0,0,0,0,0,0,0,0,0,0,0,0,145,
scooby_state_558f9e|2|1 144,0,0,0,0,0,0,0,0,0,0,0,0,0,0,144,
scooby_state_44a530|20|0 1,69,26,2,5,13,0,1,2,4,1,2,1,10,4,141,
scooby_state_4534c0|19|1 123,1,0,0,1,1,1,0,2,0,0,2,9,0,0,140,
scooby_state_454480|18|1 138,0,0,0,0,0,0,0,0,0,0,0,0,0,0,138,
scooby_state_52ca41|41|1 126,0,12,0,0,0,0,0,0,0,0,0,0,0,0,138,
scooby_state_533541|21|1 101,27,0,0,0,0,0,3,1,2,0,0,2,1,0,137,
scooby_state_45e502|20|1 136,0,0,0,0,0,0,0,0,0,0,0,0,0,0,136,
scooby_state_558f9e|4|1 135,0,0,0,0,0,0,0,0,0,0,0,0,0,0,135,
scooby_state_458e02|56|45 32,0,8,1,7,5,0,27,4,7,6,7,2,13,16,135,
scooby_state_58c517|20|3 131,0,0,0,0,0,0,0,0,0,0,0,0,0,0,131,
scooby_state_595d02|52|16 130,0,0,0,0,0,0,0,0,0,0,0,0,0,0,130,
scooby_state_454b26|21|19 74,3,5,5,8,6,3,3,2,3,2,2,4,2,8,130,
scooby_state_558f9e|6|1 129,0,0,0,0,0,0,0,0,0,0,0,0,0,0,129,
scooby_state_56b510|20|-3 18,0,111,0,0,0,0,0,0,0,0,0,0,0,0,129,
scooby_state_45ce40|10|0 125,0,0,0,1,0,0,0,0,0,0,0,0,0,0,126,
scooby_state_56b5c0|23|3 18,0,0,3,0,0,0,1,0,0,0,0,104,0,0,126,
scooby_state_455442|17|0 125,0,0,0,0,0,0,0,0,0,0,0,0,0,0,125,
scooby_state_44b460|17|-3 123,0,0,0,0,0,0,0,0,0,0,0,0,0,0,123,
scooby_state_56b605|24|1 116,0,0,0,0,0,0,0,0,0,0,0,5,0,0,121,
scooby_state_56b510|20|-4 11,1,109,0,0,0,0,0,0,0,0,0,0,0,0,121,
scooby_state_554469|24|1 0,0,119,0,0,0,0,0,0,0,0,0,0,0,1,120,
scooby_state_554469|6|1 0,0,119,0,0,1,0,0,0,0,0,0,0,0,0,120,
scooby_state_554462|7|1 120,0,0,0,0,0,0,0,0,0,0,0,0,0,0,120,
scooby_state_554469|62|1 0,0,120,0,0,0,0,0,0,0,0,0,0,0,0,120,
scooby_state_554462|1|1 120,0,0,0,0,0,0,0,0,0,0,0,0,0,0,120,
scooby_state_554469|0|0 0,0,120,0,0,0,0,0,0,0,0,0,0,0,0,120,
scooby_state_554469|2|1 0,0,120,0,0,0,0,0,0,0,0,0,0,0,0,120,
scooby_state_554469|54|1 0,0,120,0,0,0,0,0,0,0,0,0,0,0,0,120,
scooby_state_554469|60|1 0,0,120,0,0,0,0,0,0,0,0,0,0,0,0,120,
scooby_state_554469|56|1 0,0,120,0,0,0,0,0,0,0,0,0,0,0,0,120,
scooby_state_554462|11|1 120,0,0,0,0,0,0,0,0,0,0,0,0,0,0,120,
scooby_state_554469|14|1 0,0,120,0,0,0,0,0,0,0,0,0,0,0,0,120,
scooby_state_554469|12|1 0,0,120,0,0,0,0,0,0,0,0,0,0,0,0,120,
scooby_state_554469|10|1 0,0,120,0,0,0,0,0,0,0,0,0,0,0,0,120,
scooby_state_554469|58|1 0,0,120,0,0,0,0,0,0,0,0,0,0,0,0,120,
scooby_state_554469|4|1 0,0,120,0,0,0,0,0,0,0,0,0,0,0,0,120,
scooby_state_554462|9|1 119,0,0,0,0,0,1,0,0,0,0,0,0,0,0,120,
scooby_state_554462|5|1 120,0,0,0,0,0,0,0,0,0,0,0,0,0,0,120,
scooby_state_554469|8|1 0,0,120,0,0,0,0,0,0,0,0,0,0,0,0,120,
scooby_state_554462|3|1 120,0,0,0,0,0,0,0,0,0,0,0,0,0,0,120,
scooby_state_554469|20|1 0,0,120,0,0,0,0,0,0,0,0,0,0,0,0,120,
scooby_state_554462|13|1 119,0,0,0,0,0,0,0,1,0,0,0,0,0,0,120,
scooby_state_554469|22|1 0,0,120,0,0,0,0,0,0,0,0,0,0,0,0,120,
scooby_state_554462|23|1 119,0,0,0,0,0,0,0,0,0,0,0,0,0,0,119,
scooby_state_58c4b4|18|1 60,0,0,0,0,0,0,47,0,0,0,0,0,12,0,119,
scooby_state_58c517|20|2 62,0,0,0,5,0,0,2,0,4,3,2,31,4,6,119,
scooby_state_554462|51|1 119,0,0,0,0,0,0,0,0,0,0,0,0,0,0,119,
scooby_state_554469|30|1 0,0,119,0,0,0,0,0,0,0,0,0,0,0,0,119,
scooby_state_554462|17|1 119,0,0,0,0,0,0,0,0,0,0,0,0,0,0,119,
scooby_state_554462|53|1 119,0,0,0,0,0,0,0,0,0,0,0,0,0,0,119,
scooby_state_554469|32|1 0,0,119,0,0,0,0,0,0,0,0,0,0,0,0,119,
scooby_state_554469|18|1 0,0,119,0,0,0,0,0,0,0,0,0,0,0,0,119,
scooby_state_554462|33|1 119,0,0,0,0,0,0,0,0,0,0,0,0,0,0,119,
scooby_state_554469|26|1 0,0,119,0,0,0,0,0,0,0,0,0,0,0,0,119,
scooby_state_554469|16|1 1,0,118,0,0,0,0,0,0,0,0,0,0,0,0,119,
scooby_state_554469|42|1 0,0,119,0,0,0,0,0,0,0,0,0,0,0,0,119,
scooby_state_554462|19|1 118,0,0,0,0,0,0,0,1,0,0,0,0,0,0,119,
scooby_state_554462|35|1 119,0,0,0,0,0,0,0,0,0,0,0,0,0,0,119,
scooby_state_554469|40|1 0,0,119,0,0,0,0,0,0,0,0,0,0,0,0,119,
scooby_state_554469|34|1 0,0,119,0,0,0,0,0,0,0,0,0,0,0,0,119,
scooby_state_554469|50|1 0,0,119,0,0,0,0,0,0,0,0,0,0,0,0,119,
scooby_state_554469|44|1 0,0,119,0,0,0,0,0,0,0,0,0,0,0,0,119,
scooby_state_554469|46|1 0,0,119,0,0,0,0,0,0,0,0,0,0,0,0,119,
scooby_state_554469|48|1 0,0,119,0,0,0,0,0,0,0,0,0,0,0,0,119,
scooby_state_554462|57|1 119,0,0,0,0,0,0,0,0,0,0,0,0,0,0,119,
scooby_state_454b26|59|44 75,2,0,2,2,4,3,5,1,3,3,6,2,4,7,119,
scooby_state_554462|55|1 118,0,0,0,0,0,0,0,0,0,0,0,0,0,1,119,
scooby_state_554469|52|1 0,0,119,0,0,0,0,0,0,0,0,0,0,0,0,119,
scooby_state_554469|38|1 0,0,119,0,0,0,0,0,0,0,0,0,0,0,0,119,
scooby_state_554469|36|1 0,0,119,0,0,0,0,0,0,0,0,0,0,0,0,119,
scooby_state_554462|59|1 119,0,0,0,0,0,0,0,0,0,0,0,0,0,0,119,
scooby_state_554469|28|1 0,0,118,0,1,0,0,0,0,0,0,0,0,0,0,119,
scooby_state_554462|21|1 118,0,0,1,0,0,0,0,0,0,0,0,0,0,0,119,
scooby_state_554462|63|1 119,0,0,0,0,0,0,0,0,0,0,0,0,0,0,119,
scooby_state_554462|15|1 119,0,0,0,0,0,0,0,0,0,0,0,0,0,0,119,
scooby_state_554462|61|1 119,0,0,0,0,0,0,0,0,0,0,0,0,0,0,119,
scooby_state_554462|49|1 118,0,0,0,0,0,0,0,0,0,0,0,0,0,0,118,
scooby_state_554462|45|1 118,0,0,0,0,0,0,0,0,0,0,0,0,0,0,118,
scooby_state_554462|31|1 118,0,0,0,0,0,0,0,0,0,0,0,0,0,0,118,
scooby_state_554462|27|1 118,0,0,0,0,0,0,0,0,0,0,0,0,0,0,118,
scooby_state_558f9e|5|1 118,0,0,0,0,0,0,0,0,0,0,0,0,0,0,118,
scooby_state_554462|47|1 117,1,0,0,0,0,0,0,0,0,0,0,0,0,0,118,
scooby_state_554462|25|1 118,0,0,0,0,0,0,0,0,0,0,0,0,0,0,118,
scooby_state_554462|37|1 118,0,0,0,0,0,0,0,0,0,0,0,0,0,0,118,
scooby_state_554462|43|1 118,0,0,0,0,0,0,0,0,0,0,0,0,0,0,118,
scooby_state_554462|29|1 118,0,0,0,0,0,0,0,0,0,0,0,0,0,0,118,
scooby_state_44b460|17|-6 118,0,0,0,0,0,0,0,0,0,0,0,0,0,0,118,
scooby_state_554462|41|1 118,0,0,0,0,0,0,0,0,0,0,0,0,0,0,118,
scooby_state_453470|17|0 118,0,0,0,0,0,0,0,0,0,0,0,0,0,0,118,
scooby_state_554462|39|1 118,0,0,0,0,0,0,0,0,0,0,0,0,0,0,118,
scooby_state_45e4c0|19|0 116,0,0,0,0,0,0,0,0,0,0,0,0,0,0,116,
scooby_state_590608|24|4 91,0,0,0,0,0,3,22,0,0,0,0,0,0,0,116,
scooby_state_53ca4f|41|1 114,0,0,1,0,0,0,0,0,0,0,0,0,0,0,115,
scooby_state_558f9e|8|1 115,0,0,0,0,0,0,0,0,0,0,0,0,0,0,115,
scooby_state_454b26|44|39 102,3,1,1,0,1,0,0,1,0,2,0,2,0,1,114,
scooby_state_454b26|44|43 87,0,4,1,1,2,1,3,0,3,2,2,2,3,3,114,
scooby_state_454b26|27|25 59,2,2,11,3,4,2,0,3,3,2,5,5,5,8,114,
scooby_state_454b26|63|51 63,1,2,4,5,2,2,2,5,3,3,2,5,2,13,114,
scooby_state_454b26|10|-44 66,1,0,0,3,4,16,1,3,5,2,2,2,2,7,114,
scooby_state_454b26|32|29 78,6,3,3,0,2,2,2,4,3,1,4,1,0,5,114,
scooby_state_454b26|55|45 77,4,3,1,2,1,2,2,3,4,3,5,0,2,5,114,
scooby_state_454b26|10|-40 19,10,2,6,5,6,12,10,2,4,10,10,1,7,10,114,
scooby_state_454b26|46|39 100,0,0,0,3,0,1,2,0,1,0,1,0,3,3,114,
scooby_state_454b26|42|39 69,1,2,2,7,2,3,3,1,2,4,2,3,3,10,114,
scooby_state_454b26|59|45 84,4,1,0,2,2,2,2,3,2,1,3,2,1,5,114,
scooby_state_454b26|32|17 101,0,1,0,1,0,2,0,0,2,0,1,1,2,3,114,
scooby_state_454b26|63|59 18,1,8,1,6,6,5,6,5,5,5,12,10,14,12,114,
scooby_state_454b26|62|29 91,1,1,3,2,1,0,1,0,1,2,5,2,1,3,114,
scooby_state_454b26|61|20 93,2,2,0,2,1,2,1,0,1,1,2,3,2,2,114,
scooby_state_454b26|54|47 52,2,9,20,3,3,3,1,2,2,1,4,5,3,4,114,
scooby_state_454b26|21|-29 37,8,7,2,2,5,3,3,3,8,4,3,3,13,13,114,
scooby_state_454b26|61|29 84,0,3,1,1,2,2,0,1,2,4,1,1,8,4,114,
scooby_state_454b26|44|29 100,2,1,2,1,0,0,1,0,4,1,1,0,0,1,114,
scooby_state_454b26|40|25 53,6,8,6,4,3,5,0,1,1,3,7,3,1,13,114,
scooby_state_454b26|47|25 86,1,2,1,3,4,0,2,2,3,1,0,2,3,4,114,
scooby_state_454b26|58|58 43,4,6,5,1,3,6,6,6,7,2,4,8,7,6,114,
scooby_state_454b26|44|44 103,0,2,1,1,1,0,0,1,1,1,1,1,0,1,114,
scooby_state_454b26|57|52 99,2,2,2,2,2,0,0,1,0,0,3,1,0,0,114,
scooby_state_454b26|58|38 102,1,0,2,2,0,1,0,0,1,0,1,1,1,2,114,
scooby_state_454b26|62|39 72,1,2,2,2,2,3,3,2,4,1,5,1,4,10,114,
scooby_state_454b26|56|45 103,2,1,1,0,1,0,0,1,0,1,1,2,1,0,114,
scooby_state_454b26|45|27 41,6,2,3,5,4,3,8,5,8,5,5,4,6,9,114,
scooby_state_454b26|40|19 81,2,4,4,2,1,0,0,4,2,1,1,3,4,5,114,
scooby_state_454b26|58|28 89,15,0,1,1,1,0,0,2,0,2,0,1,1,1,114,
scooby_state_454b26|59|47 50,2,5,9,5,3,5,2,4,3,3,8,4,5,6,114,
scooby_state_454b26|52|29 103,0,1,0,1,0,1,1,1,1,0,1,1,2,1,114,
scooby_state_454b26|39|25 46,3,1,17,3,8,3,1,6,2,6,2,4,5,7,114,
scooby_state_454b26|63|45 101,0,1,2,0,2,0,2,1,1,2,0,0,2,0,114,
scooby_state_454b26|43|29 56,7,1,5,1,6,4,6,5,2,3,5,1,6,6,114,
scooby_state_454b26|56|17 62,1,0,4,3,5,5,5,3,1,0,1,6,5,12,113,
scooby_state_454b26|50|39 84,1,1,2,3,2,0,2,2,1,4,4,3,1,3,113,
scooby_state_454b26|48|45 92,2,4,2,1,2,0,0,1,1,3,2,1,0,2,113,
scooby_state_454b26|36|28 82,2,2,4,4,2,3,2,1,3,0,1,1,3,3,113,
scooby_state_454b26|47|20 75,3,4,1,3,2,4,5,4,0,1,5,0,4,2,113,
scooby_state_454b26|44|38 63,1,12,4,3,2,1,3,2,3,0,5,4,5,5,113,
scooby_state_454b26|29|29 85,2,2,2,2,1,5,1,4,3,2,1,1,0,2,113,
scooby_state_454b26|31|28 81,4,6,0,3,2,3,2,1,2,3,2,1,1,2,113,
scooby_state_454b26|37|18 80,5,2,4,5,3,1,1,1,2,2,1,0,1,5,113,
scooby_state_454b26|51|38 75,5,5,3,3,2,1,1,2,3,3,1,1,2,6,113,
scooby_state_454b26|49|45 75,11,2,3,0,1,2,1,2,2,0,3,3,4,4,113,
scooby_state_454b26|26|20 79,2,5,2,1,2,2,2,2,0,1,3,2,2,8,113,
scooby_state_454b26|58|20 104,1,0,1,1,0,0,1,0,0,0,0,3,2,0,113,
scooby_state_454b26|49|39 76,1,6,2,3,2,0,1,2,1,5,2,5,4,3,113,
scooby_state_454b26|61|38 82,3,2,0,1,3,1,1,3,1,1,0,4,5,6,113,
scooby_state_454b26|39|18 43,8,2,2,7,6,9,2,3,5,3,3,2,6,12,113,
scooby_state_454b26|21|20 62,4,1,5,1,9,4,1,3,2,3,3,6,2,7,113,
scooby_state_454b26|62|20 79,3,0,2,1,3,3,1,0,4,1,4,4,4,4,113,
scooby_state_454b26|53|17 68,3,1,0,3,6,3,6,3,3,0,3,2,2,10,113,
scooby_state_454b26|11|-49 99,0,6,1,1,0,1,1,0,2,1,0,0,0,1,113,
scooby_state_454b26|51|44 61,4,3,3,3,4,3,2,3,3,2,4,7,4,7,113,
scooby_state_454b26|46|28 73,3,3,3,1,0,1,2,5,5,1,8,1,2,5,113,
scooby_state_454b26|57|38 82,2,5,2,2,1,1,2,0,0,1,2,4,3,6,113,
scooby_state_454b26|39|38 81,1,3,3,1,3,6,1,3,1,1,3,3,3,0,113,
scooby_state_454b26|57|29 75,2,0,4,2,2,2,2,0,4,1,4,5,3,7,113,
scooby_state_56b5c0|23|0 7,4,0,0,1,1,1,0,1,0,1,2,95,0,0,113,
scooby_state_454b26|60|29 65,2,2,4,4,0,4,3,3,4,1,6,1,3,11,113,
scooby_state_454b26|54|42 67,6,0,5,2,3,1,3,2,3,1,3,6,3,8,113,
scooby_state_454b26|40|38 54,4,5,0,3,1,5,6,4,3,5,5,4,3,11,113,
scooby_state_454b26|3|-48 46,3,4,3,4,4,1,11,5,4,7,5,4,5,7,113,
scooby_state_454b26|27|18 63,11,0,5,3,2,3,3,2,4,4,5,0,5,3,113,
scooby_state_454b26|58|43 77,2,3,3,2,3,2,1,2,2,0,1,4,3,8,113,
scooby_state_454b26|48|39 72,1,6,2,1,2,4,1,2,5,3,2,7,0,5,113,
scooby_state_454b26|55|18 68,5,5,1,0,5,4,1,5,2,3,2,3,4,5,113,
scooby_state_454b26|24|20 89,0,0,0,1,4,1,4,3,1,0,2,1,2,5,113,
scooby_state_454b26|43|39 59,5,6,3,2,4,5,1,2,5,4,2,4,4,7,113,
scooby_state_454b26|60|28 74,6,6,1,6,2,5,3,1,1,3,2,0,2,1,113,
scooby_state_454b26|45|17 87,3,3,2,1,0,0,2,0,1,1,2,3,3,5,113,
scooby_state_454b26|21|17 96,1,1,2,0,0,2,0,2,2,0,0,0,1,6,113,
scooby_state_522903|43|0 108,1,1,0,0,0,0,0,0,0,0,2,1,0,0,113,
scooby_state_454b26|42|20 93,0,4,0,1,1,1,1,3,1,1,3,2,2,0,113,
scooby_state_454b26|34|18 26,16,3,7,5,6,3,5,4,3,7,3,5,9,11,113,
scooby_state_454b26|31|29 96,0,1,2,1,1,2,1,1,0,1,1,1,2,3,113,
scooby_state_454b26|38|20 73,1,4,2,5,3,3,3,1,2,1,3,3,4,5,113,
scooby_state_454b26|62|38 78,2,1,3,3,2,0,5,0,2,3,2,2,4,6,113,
scooby_state_454b26|31|18 40,5,3,6,1,4,0,9,6,5,2,2,7,6,16,112,
scooby_state_559212|8|0 3,4,0,26,1,1,0,1,0,1,3,1,1,63,7,112,
scooby_state_454b26|60|39 65,6,3,2,1,1,3,1,0,2,3,10,3,5,7,112,
scooby_state_454b26|41|38 43,2,6,10,3,6,8,2,3,2,3,6,5,6,7,112,
scooby_state_454b26|40|20 92,0,2,2,4,1,1,2,0,1,1,1,2,2,1,112,
scooby_state_454b26|49|47 34,3,4,7,6,4,0,9,4,2,3,5,13,6,12,112,
scooby_state_454b26|62|43 68,3,6,6,0,3,1,2,1,3,2,2,4,7,4,112,
scooby_state_454b26|61|28 47,3,2,5,5,7,4,6,6,2,2,6,6,6,5,112,
scooby_state_460da0|54|0 110,0,0,0,1,1,0,0,0,0,0,0,0,0,0,112,
scooby_state_454b26|59|18 45,4,5,6,2,8,4,3,3,5,5,3,4,6,9,112,
scooby_state_454b26|46|45 84,2,2,3,0,2,1,1,2,3,1,2,3,5,1,112,
scooby_state_454b26|56|28 62,3,5,1,3,4,5,1,4,3,3,3,3,3,9,112,
scooby_state_454b26|49|17 64,1,1,3,4,5,7,3,2,0,0,1,3,5,13,112,
scooby_state_533500|20|0 112,0,0,0,0,0,0,0,0,0,0,0,0,0,0,112,
scooby_state_454b26|62|42 61,3,3,3,4,3,3,3,4,3,1,4,4,3,10,112,
scooby_state_454b26|49|32 59,4,2,5,1,4,3,5,4,1,4,9,4,2,5,112,
scooby_state_454b26|43|42 78,6,3,5,2,1,4,1,0,1,3,0,1,4,3,112,
scooby_state_454b26|55|42 61,8,2,7,4,4,3,1,0,0,3,7,2,3,7,112,
scooby_state_454b26|30|17 75,4,1,6,0,3,4,6,1,1,1,1,3,1,5,112,
scooby_state_454b26|57|44 59,4,4,2,3,5,4,1,5,3,3,5,2,3,9,112,
scooby_state_46d5f0|23|0 111,0,0,0,0,0,0,0,0,0,0,0,0,0,0,111,
scooby_state_597d83|54|0 11,1,94,0,1,1,0,0,1,0,0,0,0,1,0,110,
scooby_state_44fa80|42|1 110,0,0,0,0,0,0,0,0,0,0,0,0,0,0,110,
scooby_state_441a00|40|-1 110,0,0,0,0,0,0,0,0,0,0,0,0,0,0,110,
scooby_state_59a2e2|11|0 3,1,1,0,1,1,103,0,0,0,0,0,0,0,0,110,
scooby_state_454b26|17|17 76,4,1,0,0,1,4,5,3,1,1,4,3,0,7,110,
scooby_state_52ea42|41|1 4,2,102,0,0,0,0,0,0,0,0,0,0,0,0,108,
scooby_state_590a3d|40|-1 36,0,71,0,0,1,0,0,0,0,0,0,0,0,0,108,
scooby_state_445a12|40|7 38,0,69,0,0,0,0,0,0,0,0,0,0,0,0,107,
scooby_state_42cfc0|63|23 13,32,0,0,4,4,14,0,4,4,3,1,5,6,17,107,
scooby_state_42ca00|40|0 49,4,1,21,1,6,0,3,0,0,0,0,22,0,0,107,
scooby_state_58c218|8|-12 85,0,0,16,4,0,0,0,0,1,0,0,0,0,0,106,
scooby_state_598a77|41|6 2,0,100,2,0,2,0,0,0,0,0,0,0,0,0,106,
scooby_state_56dd81|54|2 104,0,0,0,0,1,1,0,0,0,0,0,0,0,0,106,
scooby_state_5958c0|35|2 104,0,0,0,1,0,0,0,0,0,0,0,0,0,0,105,
scooby_state_445850|33|-8 102,0,0,0,0,0,0,2,0,0,0,0,0,0,0,104,
scooby_state_590500|20|0 89,0,0,0,0,0,0,0,0,0,0,15,0,0,0,104,
scooby_state_45cd80|54|2 38,0,0,0,0,0,0,0,0,0,0,66,0,0,0,104,
[...]
scooby_state_40c0be|2|-60 1,0,0,0,0,0,0,0,0,0,0,0,0,0,0,1,
scooby_state_53def3|45|-18 1,0,0,0,0,0,0,0,0,0,0,0,0,0,0,1,
scooby_state_53e076|1|1 1,0,0,0,0,0,0,0,0,0,0,0,0,0,0,1,
scooby_state_44b200|8|-27 0,0,1,0,0,0,0,0,0,0,0,0,0,0,0,1,
scooby_state_45e8c8|35|-1 1,0,0,0,0,0,0,0,0,0,0,0,0,0,0,1,
scooby_state_53c398|10|0 1,0,0,0,0,0,0,0,0,0,0,0,0,0,0,1,
scooby_state_447a40|62|21 1,0,0,0,0,0,0,0,0,0,0,0,0,0,0,1,
scooby_state_53e3b8|11|0 1,0,0,0,0,0,0,0,0,0,0,0,0,0,0,1,
scooby_state_4459c4|54|0 1,0,0,0,0,0,0,0,0,0,0,0,0,0,0,1,
scooby_state_447a8e|47|2 1,0,0,0,0,0,0,0,0,0,0,0,0,0,0,1,
scooby_state_53c345|31|1 1,0,0,0,0,0,0,0,0,0,0,0,0,0,0,1,
scooby_state_4479d0|23|-1 1,0,0,0,0,0,0,0,0,0,0,0,0,0,0,1,
scooby_state_539980|38|2 1,0,0,0,0,0,0,0,0,0,0,0,0,0,0,1,
scooby_state_53c345|9|1 1,0,0,0,0,0,0,0,0,0,0,0,0,0,0,1,
scooby_state_445945|37|0 1,0,0,0,0,0,0,0,0,0,0,0,0,0,0,1,
scooby_state_453c55|38|38 0,0,0,0,0,0,0,0,0,0,0,0,0,1,0,1,
scooby_state_447a20|46|21 1,0,0,0,0,0,0,0,0,0,0,0,0,0,0,1,
scooby_state_454c23|29|6 1,0,0,0,0,0,0,0,0,0,0,0,0,0,0,1,
scooby_state_447a20|46|13 1,0,0,0,0,0,0,0,0,0,0,0,0,0,0,1,
scooby_state_45f040|41|17 1,0,0,0,0,0,0,0,0,0,0,0,0,0,0,1,
scooby_state_4551dd|8|-3 0,0,0,0,0,0,0,0,0,0,0,0,1,0,0,1,
scooby_state_44737a|13|-25 1,0,0,0,0,0,0,0,0,0,0,0,0,0,0,1,
scooby_state_44a040|1|0 1,0,0,0,0,0,0,0,0,0,0,0,0,0,0,1,
scooby_state_454c23|22|19 1,0,0,0,0,0,0,0,0,0,0,0,0,0,0,1,
scooby_state_45e8a7|16|-1 1,0,0,0,0,0,0,0,0,0,0,0,0,0,0,1,
scooby_state_453c4a|43|-1 0,0,1,0,0,0,0,0,0,0,0,0,0,0,0,1,
scooby_state_4556c0|27|1 1,0,0,0,0,0,0,0,0,0,0,0,0,0,0,1,
scooby_state_53ffd1|43|-2 1,0,0,0,0,0,0,0,0,0,0,0,0,0,0,1,
scooby_state_55449c|3|-14 1,0,0,0,0,0,0,0,0,0,0,0,0,0,0,1,
scooby_state_441a3b|0|-31 1,0,0,0,0,0,0,0,0,0,0,0,0,0,0,1,
scooby_state_4551dd|29|25 0,0,0,0,0,0,1,0,0,0,0,0,0,0,0,1,
scooby_state_45f040|26|-9 1,0,0,0,0,0,0,0,0,0,0,0,0,0,0,1,
scooby_state_4551dd|49|35 1,0,0,0,0,0,0,0,0,0,0,0,0,0,0,1,
scooby_state_441a3b|6|5 1,0,0,0,0,0,0,0,0,0,0,0,0,0,0,1,
scooby_state_55449c|17|-14 1,0,0,0,0,0,0,0,0,0,0,0,0,0,0,1,
scooby_state_454b52|10|2 0,0,0,0,0,0,0,0,0,0,0,1,0,0,0,1,
scooby_state_447a20|49|1 1,0,0,0,0,0,0,0,0,0,0,0,0,0,0,1,
scooby_state_56a470|17|-36 1,0,0,0,0,0,0,0,0,0,0,0,0,0,0,1,
scooby_state_53ff59|28|0 1,0,0,0,0,0,0,0,0,0,0,0,0,0,0,1,
scooby_state_56a9cb|39|10 1,0,0,0,0,0,0,0,0,0,0,0,0,0,0,1,
scooby_state_447a19|53|-1 1,0,0,0,0,0,0,0,0,0,0,0,0,0,0,1,
scooby_state_4551f0|51|3 1,0,0,0,0,0,0,0,0,0,0,0,0,0,0,1,
scooby_state_453c55|14|-9 1,0,0,0,0,0,0,0,0,0,0,0,0,0,0,1,
scooby_state_54500a|35|6 0,1,0,0,0,0,0,0,0,0,0,0,0,0,0,1,
scooby_state_441a5f|19|10 1,0,0,0,0,0,0,0,0,0,0,0,0,0,0,1,
scooby_state_54060a|24|1 1,0,0,0,0,0,0,0,0,0,0,0,0,0,0,1,
scooby_state_554443|2|1 0,1,0,0,0,0,0,0,0,0,0,0,0,0,0,1,
scooby_state_53e601|24|-15 1,0,0,0,0,0,0,0,0,0,0,0,0,0,0,1,
scooby_state_53de87|5|-11 1,0,0,0,0,0,0,0,0,0,0,0,0,0,0,1,
scooby_state_455430|16|-11 1,0,0,0,0,0,0,0,0,0,0,0,0,0,0,1,
scooby_state_455200|23|-1 0,0,1,0,0,0,0,0,0,0,0,0,0,0,0,1,
scooby_state_54500a|23|0 0,0,0,0,0,0,0,0,0,1,0,0,0,0,0,1,
scooby_state_53c9bf|2|2 0,0,1,0,0,0,0,0,0,0,0,0,0,0,0,1,
scooby_state_4551f0|36|12 1,0,0,0,0,0,0,0,0,0,0,0,0,0,0,1,
scooby_state_454c23|52|46 1,0,0,0,0,0,0,0,0,0,0,0,0,0,0,1,
scooby_state_447a20|23|-2 1,0,0,0,0,0,0,0,0,0,0,0,0,0,0,1,
scooby_state_4551dd|6|3 0,0,0,0,0,0,1,0,0,0,0,0,0,0,0,1,
scooby_state_5544c2|45|2 1,0,0,0,0,0,0,0,0,0,0,0,0,0,0,1,
scooby_state_4551dd|58|31 0,0,0,0,0,0,1,0,0,0,0,0,0,0,0,1,
scooby_state_447a39|44|-1 0,0,0,1,0,0,0,0,0,0,0,0,0,0,0,1,
scooby_state_46d75a|51|1 0,0,0,0,0,0,0,1,0,0,0,0,0,0,0,1,
scooby_state_453c55|17|2 1,0,0,0,0,0,0,0,0,0,0,0,0,0,0,1,
scooby_state_45e8c8|37|18 0,0,0,0,0,0,0,1,0,0,0,0,0,0,0,1,
scooby_state_441a3b|5|-23 1,0,0,0,0,0,0,0,0,0,0,0,0,0,0,1,
scooby_state_45f040|39|-10 1,0,0,0,0,0,0,0,0,0,0,0,0,0,0,1,
scooby_state_53ef44|61|1 1,0,0,0,0,0,0,0,0,0,0,0,0,0,0,1,
scooby_state_4474f8|19|-21 1,0,0,0,0,0,0,0,0,0,0,0,0,0,0,1,
scooby_state_413160|5|-52 1,0,0,0,0,0,0,0,0,0,0,0,0,0,0,1,
scooby_state_441a3b|28|0 1,0,0,0,0,0,0,0,0,0,0,0,0,0,0,1,
scooby_state_45e8c8|3|1 1,0,0,0,0,0,0,0,0,0,0,0,0,0,0,1,
scooby_state_53eec6|59|1 0,1,0,0,0,0,0,0,0,0,0,0,0,0,0,1,
scooby_state_53e4d9|62|17 1,0,0,0,0,0,0,0,0,0,0,0,0,0,0,1,
scooby_state_454c23|32|19 1,0,0,0,0,0,0,0,0,0,0,0,0,0,0,1,
scooby_state_5405e9|43|21 1,0,0,0,0,0,0,0,0,0,0,0,0,0,0,1,
scooby_state_447a19|30|-1 1,0,0,0,0,0,0,0,0,0,0,0,0,0,0,1,
scooby_state_45f040|33|5 1,0,0,0,0,0,0,0,0,0,0,0,0,0,0,1,
scooby_state_53e768|29|10 1,0,0,0,0,0,0,0,0,0,0,0,0,0,0,1,
scooby_state_43f645|25|1 1,0,0,0,0,0,0,0,0,0,0,0,0,0,0,1,
scooby_state_5544bb|34|2 1,0,0,0,0,0,0,0,0,0,0,0,0,0,0,1,
scooby_state_45f040|52|-3 1,0,0,0,0,0,0,0,0,0,0,0,0,0,0,1,
scooby_state_53df0a|26|0 1,0,0,0,0,0,0,0,0,0,0,0,0,0,0,1,
scooby_state_558f9a|9|4 0,0,0,1,0,0,0,0,0,0,0,0,0,0,0,1,
scooby_state_558f9e|17|16 1,0,0,0,0,0,0,0,0,0,0,0,0,0,0,1,
scooby_state_53cb1d|62|-1 0,0,1,0,0,0,0,0,0,0,0,0,0,0,0,1,
scooby_state_53cbaf|3|0 1,0,0,0,0,0,0,0,0,0,0,0,0,0,0,1,
scooby_state_5405e9|12|9 1,0,0,0,0,0,0,0,0,0,0,0,0,0,0,1,
scooby_state_44a54c|63|1 0,0,0,0,0,0,0,0,0,0,0,0,1,0,0,1,
scooby_state_447a20|9|-5 1,0,0,0,0,0,0,0,0,0,0,0,0,0,0,1,
scooby_state_44fbd0|40|-3 1,0,0,0,0,0,0,0,0,0,0,0,0,0,0,1,
scooby_state_53c9bf|18|1 0,0,0,0,0,0,0,0,0,0,0,1,0,0,0,1,
scooby_state_45f040|19|-13 1,0,0,0,0,0,0,0,0,0,0,0,0,0,0,1,
scooby_state_44592c|36|2 1,0,0,0,0,0,0,0,0,0,0,0,0,0,0,1,
scooby_state_454c23|50|24 0,0,1,0,0,0,0,0,0,0,0,0,0,0,0,1,
scooby_state_447a40|22|-22 1,0,0,0,0,0,0,0,0,0,0,0,0,0,0,1,
scooby_state_454c1b|54|1 0,0,1,0,0,0,0,0,0,0,0,0,0,0,0,1,
scooby_state_4551f0|19|0 1,0,0,0,0,0,0,0,0,0,0,0,0,0,0,1,
scooby_state_453c4a|19|5 0,0,0,0,0,0,1,0,0,0,0,0,0,0,0,1,
scooby_state_53e4d9|62|10 1,0,0,0,0,0,0,0,0,0,0,0,0,0,0,1,
scooby_state_462719|3|2 1,0,0,0,0,0,0,0,0,0,0,0,0,0,0,1,
scooby_state_447a20|32|-5 0,1,0,0,0,0,0,0,0,0,0,0,0,0,0,1,
scooby_state_453c4a|61|44 0,0,0,0,0,0,0,0,0,0,0,1,0,0,0,1,
scooby_state_447a20|32|22 1,0,0,0,0,0,0,0,0,0,0,0,0,0,0,1,
scooby_state_45e8c8|43|43 0,0,0,0,0,0,0,1,0,0,0,0,0,0,0,1,
scooby_state_453b9c|2|1 0,0,0,0,0,0,0,0,0,0,0,1,0,0,0,1,
scooby_state_53de87|34|0 1,0,0,0,0,0,0,0,0,0,0,0,0,0,0,1,
scooby_state_58f82a|32|-3 1,0,0,0,0,0,0,0,0,0,0,0,0,0,0,1,
scooby_state_454b52|24|0 1,0,0,0,0,0,0,0,0,0,0,0,0,0,0,1,
scooby_state_453c55|24|3 1,0,0,0,0,0,0,0,0,0,0,0,0,0,0,1,
scooby_state_447a20|63|31 1,0,0,0,0,0,0,0,0,0,0,0,0,0,0,1,
scooby_state_45f040|22|15 1,0,0,0,0,0,0,0,0,0,0,0,0,0,0,1,
scooby_state_53c9bf|5|2 0,0,1,0,0,0,0,0,0,0,0,0,0,0,0,1,
scooby_state_4551dd|24|3 0,0,0,0,0,0,1,0,0,0,0,0,0,0,0,1,
scooby_state_447a20|15|5 1,0,0,0,0,0,0,0,0,0,0,0,0,0,0,1,
scooby_state_5405e9|17|-1 1,0,0,0,0,0,0,0,0,0,0,0,0,0,0,1,
scooby_state_4551f0|15|-7 1,0,0,0,0,0,0,0,0,0,0,0,0,0,0,1,
scooby_state_558f9e|10|2 1,0,0,0,0,0,0,0,0,0,0,0,0,0,0,1,
scooby_state_595d90|54|17 1,0,0,0,0,0,0,0,0,0,0,0,0,0,0,1,
scooby_state_53c345|4|1 1,0,0,0,0,0,0,0,0,0,0,0,0,0,0,1,
scooby_state_453c4a|45|-6 0,0,0,0,0,0,0,0,0,0,0,1,0,0,0,1,
scooby_state_45f050|47|1 1,0,0,0,0,0,0,0,0,0,0,0,0,0,0,1,
scooby_state_44737a|58|-3 1,0,0,0,0,0,0,0,0,0,0,0,0,0,0,1,
scooby_state_558f9a|54|45 1,0,0,0,0,0,0,0,0,0,0,0,0,0,0,1,
scooby_state_4551f0|6|3 1,0,0,0,0,0,0,0,0,0,0,0,0,0,0,1,
scooby_state_4626b2|20|1 1,0,0,0,0,0,0,0,0,0,0,0,0,0,0,1,
scooby_state_453c4a|19|4 0,0,0,0,0,0,0,0,0,0,0,1,0,0,0,1,
scooby_state_56a510|20|8 1,0,0,0,0,0,0,0,0,0,0,0,0,0,0,1,
scooby_state_45f040|13|-11 1,0,0,0,0,0,0,0,0,0,0,0,0,0,0,1,
scooby_state_4479d5|29|7 0,0,0,0,0,0,0,0,0,0,0,0,1,0,0,1,
scooby_state_53e3c0|15|5 0,0,0,0,0,1,0,0,0,0,0,0,0,0,0,1,
scooby_state_453c4a|2|-41 0,0,0,0,0,0,0,0,0,0,0,1,0,0,0,1,
scooby_state_44a974|55|0 1,0,0,0,0,0,0,0,0,0,0,0,0,0,0,1,
scooby_state_4479d5|30|7 1,0,0,0,0,0,0,0,0,0,0,0,0,0,0,1,
scooby_state_53c332|2|0 1,0,0,0,0,0,0,0,0,0,0,0,0,0,0,1,
scooby_state_53de87|26|0 1,0,0,0,0,0,0,0,0,0,0,0,0,0,0,1,
scooby_state_4551dd|55|3 1,0,0,0,0,0,0,0,0,0,0,0,0,0,0,1,
scooby_state_53e30f|12|9 1,0,0,0,0,0,0,0,0,0,0,0,0,0,0,1,
scooby_state_454b1e|47|38 1,0,0,0,0,0,0,0,0,0,0,0,0,0,0,1,
scooby_state_45348d|50|1 1,0,0,0,0,0,0,0,0,0,0,0,0,0,0,1,
scooby_state_54502b|41|0 0,0,0,0,0,0,0,0,1,0,0,0,0,0,0,1,
scooby_state_45ceb0|58|1 1,0,0,0,0,0,0,0,0,0,0,0,0,0,0,1,
scooby_state_45e8a7|13|2 1,0,0,0,0,0,0,0,0,0,0,0,0,0,0,1,
scooby_state_453c55|33|4 1,0,0,0,0,0,0,0,0,0,0,0,0,0,0,1,
scooby_state_44fc70|49|1 1,0,0,0,0,0,0,0,0,0,0,0,0,0,0,1,
scooby_state_4551dd|12|-50 0,0,0,0,0,0,1,0,0,0,0,0,0,0,0,1,
scooby_state_53c398|38|3 1,0,0,0,0,0,0,0,0,0,0,0,0,0,0,1,
scooby_state_595e44|57|1 1,0,0,0,0,0,0,0,0,0,0,0,0,0,0,1,
scooby_state_4551f0|30|-10 1,0,0,0,0,0,0,0,0,0,0,0,0,0,0,1,
scooby_state_53df14|45|1 1,0,0,0,0,0,0,0,0,0,0,0,0,0,0,1,
scooby_state_454b1e|5|2 1,0,0,0,0,0,0,0,0,0,0,0,0,0,0,1,
scooby_state_5544bb|30|2 1,0,0,0,0,0,0,0,0,0,0,0,0,0,0,1,
scooby_state_453c4a|56|7 0,0,1,0,0,0,0,0,0,0,0,0,0,0,0,1,
scooby_state_45f040|47|-14 1,0,0,0,0,0,0,0,0,0,0,0,0,0,0,1,
scooby_state_44737a|4|0 1,0,0,0,0,0,0,0,0,0,0,0,0,0,0,1,
scooby_state_554443|58|1 0,1,0,0,0,0,0,0,0,0,0,0,0,0,0,1,
scooby_state_45f040|18|15 1,0,0,0,0,0,0,0,0,0,0,0,0,0,0,1,
scooby_state_441a3b|10|2 1,0,0,0,0,0,0,0,0,0,0,0,0,0,0,1,
scooby_state_56a781|30|13 1,0,0,0,0,0,0,0,0,0,0,0,0,0,0,1,
scooby_state_453c4a|34|31 0,0,0,0,0,0,0,0,0,0,0,1,0,0,0,1,
scooby_state_44a974|12|-23 1,0,0,0,0,0,0,0,0,0,0,0,0,0,0,1,
scooby_state_58c440|17|1 1,0,0,0,0,0,0,0,0,0,0,0,0,0,0,1,
scooby_state_441ac1|43|1 1,0,0,0,0,0,0,0,0,0,0,0,0,0,0,1,
scooby_state_447a40|32|22 1,0,0,0,0,0,0,0,0,0,0,0,0,0,0,1,
scooby_state_44b38c|20|-1 1,0,0,0,0,0,0,0,0,0,0,0,0,0,0,1,
scooby_state_56a323|12|-6 1,0,0,0,0,0,0,0,0,0,0,0,0,0,0,1,
scooby_state_53c398|48|0 1,0,0,0,0,0,0,0,0,0,0,0,0,0,0,1,
scooby_state_57ce01|56|1 1,0,0,0,0,0,0,0,0,0,0,0,0,0,0,1,
scooby_state_558f9a|60|3 0,0,1,0,0,0,0,0,0,0,0,0,0,0,0,1,
scooby_state_44bcc4|9|0 1,0,0,0,0,0,0,0,0,0,0,0,0,0,0,1,
scooby_state_45f040|54|26 1,0,0,0,0,0,0,0,0,0,0,0,0,0,0,1,
scooby_state_441b90|46|0 1,0,0,0,0,0,0,0,0,0,0,0,0,0,0,1,
scooby_state_44fbd0|35|-9 0,0,0,0,0,0,1,0,0,0,0,0,0,0,0,1,
scooby_state_590ac6|43|1 1,0,0,0,0,0,0,0,0,0,0,0,0,0,0,1,
scooby_state_44a54c|3|2 1,0,0,0,0,0,0,0,0,0,0,0,0,0,0,1,
scooby_state_44cf70|61|0 1,0,0,0,0,0,0,0,0,0,0,0,0,0,0,1,
scooby_state_404bf0|47|-1 1,0,0,0,0,0,0,0,0,0,0,0,0,0,0,1,
scooby_state_44d5d9|18|-23 0,1,0,0,0,0,0,0,0,0,0,0,0,0,0,1,
scooby_state_441aa0|7|0 1,0,0,0,0,0,0,0,0,0,0,0,0,0,0,1,
scooby_state_447a20|46|32 1,0,0,0,0,0,0,0,0,0,0,0,0,0,0,1,
scooby_state_4479de|30|0 1,0,0,0,0,0,0,0,0,0,0,0,0,0,0,1,
scooby_state_53e0f7|54|-1 0,0,0,0,0,0,0,0,0,0,0,0,1,0,0,1,
scooby_state_44b38c|14|-1 1,0,0,0,0,0,0,0,0,0,0,0,0,0,0,1,
scooby_state_454c23|49|6 0,0,0,0,0,0,1,0,0,0,0,0,0,0,0,1,
scooby_state_463386|54|0 1,0,0,0,0,0,0,0,0,0,0,0,0,0,0,1,
scooby_state_45348d|1|-36 0,1,0,0,0,0,0,0,0,0,0,0,0,0,0,1,
scooby_state_413e66|6|-1 1,0,0,0,0,0,0,0,0,0,0,0,0,0,0,1,
scooby_state_454b52|15|1 1,0,0,0,0,0,0,0,0,0,0,0,0,0,0,1,
scooby_state_558f9a|10|-9 0,0,1,0,0,0,0,0,0,0,0,0,0,0,0,1,
scooby_state_4551dd|13|1 0,0,0,0,0,0,1,0,0,0,0,0,0,0,0,1,
scooby_state_45f040|28|-10 1,0,0,0,0,0,0,0,0,0,0,0,0,0,0,1,
scooby_state_454b4e|6|1 0,0,1,0,0,0,0,0,0,0,0,0,0,0,0,1,
scooby_state_454c23|4|3 0,0,0,0,0,0,0,0,0,0,0,0,0,1,0,1,
scooby_state_45e8c8|46|-1 0,0,0,0,0,0,0,1,0,0,0,0,0,0,0,1,
scooby_state_4551dd|28|0 0,0,0,0,0,0,0,0,0,0,0,0,0,1,0,1,
scooby_state_44a54c|43|0 0,1,0,0,0,0,0,0,0,0,0,0,0,0,0,1,
scooby_state_53cbaf|32|0 1,0,0,0,0,0,0,0,0,0,0,0,0,0,0,1,
scooby_state_453c55|36|-17 1,0,0,0,0,0,0,0,0,0,0,0,0,0,0,1,
scooby_state_45f046|0|-9 0,1,0,0,0,0,0,0,0,0,0,0,0,0,0,1,
scooby_state_454c23|59|23 0,0,0,0,0,0,0,0,0,0,1,0,0,0,0,1,
scooby_state_4551f0|55|-7 1,0,0,0,0,0,0,0,0,0,0,0,0,0,0,1,
scooby_state_453c55|0|-1 1,0,0,0,0,0,0,0,0,0,0,0,0,0,0,1,
scooby_state_4532e3|1|-1 1,0,0,0,0,0,0,0,0,0,0,0,0,0,0,1,
scooby_state_447a20|39|0 1,0,0,0,0,0,0,0,0,0,0,0,0,0,0,1,
scooby_state_454c23|33|-1 1,0,0,0,0,0,0,0,0,0,0,0,0,0,0,1,
scooby_state_453c4a|17|5 0,0,0,0,0,0,0,0,0,0,0,1,0,0,0,1,
scooby_state_454c23|43|30 0,0,0,0,0,0,0,1,0,0,0,0,0,0,0,1,
scooby_state_413f30|24|-32 1,0,0,0,0,0,0,0,0,0,0,0,0,0,0,1,
scooby_state_44d3fc|15|0 1,0,0,0,0,0,0,0,0,0,0,0,0,0,0,1,
scooby_state_558f9a|51|8 0,0,1,0,0,0,0,0,0,0,0,0,0,0,0,1,
scooby_state_554462|57|13 1,0,0,0,0,0,0,0,0,0,0,0,0,0,0,1,
scooby_state_45f040|58|17 1,0,0,0,0,0,0,0,0,0,0,0,0,0,0,1,
scooby_state_58f882|34|-16 1,0,0,0,0,0,0,0,0,0,0,0,0,0,0,1,
scooby_state_4551f0|34|-29 1,0,0,0,0,0,0,0,0,0,0,0,0,0,0,1,
scooby_state_454c23|3|3 0,0,0,0,0,0,0,0,0,0,0,0,0,1,0,1,
scooby_state_44d103|4|1 0,0,0,1,0,0,0,0,0,0,0,0,0,0,0,1,
scooby_state_4551f0|12|0 1,0,0,0,0,0,0,0,0,0,0,0,0,0,0,1,
scooby_state_53e3b8|53|37 1,0,0,0,0,0,0,0,0,0,0,0,0,0,0,1,
scooby_state_453c4a|52|2 0,0,0,0,0,0,0,0,0,0,0,1,0,0,0,1,

scooby_action_0_deg_dist 0,279167,0,0,0,0,0,0,0,0,0,0,0,0,0,0,
scooby_action_-6_deg_dist 0,4124,13,0,4,0,0,0,0,0,0,0,0,0,0,0,
scooby_action_4_deg_dist 0,9981,978,0,1905,0,7801,0,0,0,0,0,0,0,0,0,
scooby_action_1_deg_dist 0,1004729,14354,0,24859,0,163648,0,0,0,0,0,0,0,0,0,
scooby_action_30_deg_dist 0,2520,3,0,0,0,0,0,0,0,0,0,0,0,0,0,
scooby_action_3_deg_dist 0,7250,53,0,15,0,0,0,0,0,0,0,0,0,0,0,
scooby_action_32_deg_dist 0,2469,0,0,0,0,0,0,0,0,0,0,0,0,0,0,
scooby_action_5_deg_dist 0,5617,3,0,2,0,0,0,0,0,0,0,0,0,0,0,
scooby_action_10_deg_dist 0,3093,4,0,2,0,0,0,0,0,0,0,0,0,0,0,
scooby_action_11_deg_dist 0,3331,1,0,0,0,0,0,0,0,0,0,0,0,0,0,
scooby_action_23_deg_dist 0,2738,0,0,0,0,0,0,0,0,0,0,0,0,0,0,
scooby_action_-1_deg_dist 0,5257,18,0,6,0,3,0,0,0,0,0,0,0,0,0,
scooby_action_12_deg_dist 0,4065,2,0,5,0,26,0,0,0,0,0,0,0,0,0,
scooby_action_22_deg_dist 0,3757,126,0,190,0,1808,0,0,0,0,0,0,0,0,0,
scooby_action_-3_deg_dist 0,4498,4,0,0,0,0,0,0,0,0,0,0,0,0,0,

scooby_track_called 1558429
scooby_track_same_address 26129
scooby_track_evict 1532044

scooby_reward_demand_called 1558429
scooby_reward_demand_pt_not_found 1335567
scooby_reward_demand_pt_found 222862
scooby_reward_demand_pt_found_total 222862
scooby_reward_demand_has_reward 3389
scooby_reward_train_called 1281609
scooby_reward_assign_reward_called 1532076
scooby_reward_no_pref 279084
scooby_reward_incorrect 1002525
scooby_reward_correct_untimely 193677
scooby_reward_correct_timely 25796
scooby_reward_out_of_bounds 30994
scooby_reward_tracker_hit 0

scooby_reward_none_low_bw 279084
scooby_reward_none_high_bw 0
scooby_reward_incorrect_low_bw 1002525
scooby_reward_incorrect_high_bw 0
scooby_reward_correct_untimely_low_bw 193677
scooby_reward_correct_untimely_high_bw 0
scooby_reward_correct_timely_low_bw 25796
scooby_reward_correct_timely_high_bw 0
scooby_reward_out_of_bounds_low_bw 30994
scooby_reward_out_of_bounds_high_bw 0
scooby_reward_tracker_hit_low_bw 0
scooby_reward_tracker_hit_high_bw 0

scooby_reward_1 0,965608,182885,20453,17817,0,
scooby_reward_3 0,4773,305,838,452,0,
scooby_reward_4 0,6074,9255,2229,1247,0,
scooby_reward_5 0,3886,99,464,631,0,
scooby_reward_10 0,2110,8,24,860,0,
scooby_reward_11 0,2116,5,120,991,0,
scooby_reward_12 0,2479,92,266,1074,0,
scooby_reward_22 0,1637,584,959,2652,0,
scooby_reward_23 0,1096,3,40,1557,0,
scooby_reward_30 0,727,18,10,1733,0,
scooby_reward_32 0,663,0,5,1774,0,
scooby_reward_-1 0,4126,227,156,21,0,
scooby_reward_-3 0,3630,156,77,57,0,
scooby_reward_-6 0,3600,40,155,128,0,
scooby_reward_0 279084,0,0,0,0,0,

scooby_train_called 1532043
scooby_train_compute_reward 1281609

scooby_register_fill_called 1202060
scooby_register_fill_set 1015383
scooby_register_fill_set_total 1015383

scooby_register_prefetch_hit_called 753865
scooby_register_prefetch_hit_set 202981
scooby_register_prefetch_hit_set_total 202981

scooby_pref_issue_scooby 2083188

learning_engine_featurewise.action.called 1558429
learning_engine_featurewise.action.explore 2880
learning_engine_featurewise.action.exploit 1555549
learning_engine_featurewise.action.fallback 952693
learning_engine_featurewise.action.dyn_fallback_saved_bw 0
learning_engine_featurewise.action.dyn_fallback_saved_bw_acc 354599
learning_engine_featurewise.action.index_1_explored 189
learning_engine_featurewise.action.index_1_exploited 1207401
learning_engine_featurewise.action.index_3_explored 210
learning_engine_featurewise.action.index_3_exploited 7108
learning_engine_featurewise.action.index_4_explored 196
learning_engine_featurewise.action.index_4_exploited 20469
learning_engine_featurewise.action.index_5_explored 185
learning_engine_featurewise.action.index_5_exploited 5437
learning_engine_featurewise.action.index_10_explored 220
learning_engine_featurewise.action.index_10_exploited 2879
learning_engine_featurewise.action.index_11_explored 174
learning_engine_featurewise.action.index_11_exploited 3158
learning_engine_featurewise.action.index_12_explored 198
learning_engine_featurewise.action.index_12_exploited 3900
learning_engine_featurewise.action.index_22_explored 198
learning_engine_featurewise.action.index_22_exploited 5683
learning_engine_featurewise.action.index_23_explored 196
learning_engine_featurewise.action.index_23_exploited 2542
learning_engine_featurewise.action.index_30_explored 194
learning_engine_featurewise.action.index_30_exploited 2329
learning_engine_featurewise.action.index_32_explored 165
learning_engine_featurewise.action.index_32_exploited 2304
learning_engine_featurewise.action.index_-1_explored 189
learning_engine_featurewise.action.index_-1_exploited 5095
learning_engine_featurewise.action.index_-3_explored 190
learning_engine_featurewise.action.index_-3_exploited 4312
learning_engine_featurewise.action.index_-6_explored 183
learning_engine_featurewise.action.index_-6_exploited 3958
learning_engine_featurewise.action.index_0_explored 193
learning_engine_featurewise.action.index_0_exploited 278974
learning_engine_featurewise.learn.called 1532043
learning_engine_featurewise.learn.su_skip_PC 0
learning_engine_featurewise.learn.su_skip_PC_Delta 0

learning_engine_featurewise.q_value_histogram.bucket_0 295034
learning_engine_featurewise.q_value_histogram.bucket_1 3667
learning_engine_featurewise.q_value_histogram.bucket_2 958933
learning_engine_featurewise.q_value_histogram.bucket_3 10679
learning_engine_featurewise.q_value_histogram.bucket_4 67109
learning_engine_featurewise.q_value_histogram.bucket_5 157194
learning_engine_featurewise.q_value_histogram.bucket_6 62933
learning_engine_featurewise.q_value_histogram.bucket_7 0

learning_engine_featurewise.consensus.total 1555549
learning_engine_featurewise.consensus.feature_align_PC 1233768
learning_engine_featurewise.consensus.feature_align_PC_ratio 0.79
learning_engine_featurewise.consensus.feature_align_PC_Delta 1219300
learning_engine_featurewise.consensus.feature_align_PC_Delta_ratio 0.78
learning_engine_featurewise.consensus.feature_align_all 1196208
learning_engine_featurewise.consensus.feature_align_all_ratio 0.77

learning_engine_featurewise.feature_PC_min_weight 1000000.00000000
learning_engine_featurewise.feature_PC_max_weight 0.00000000
learning_engine_featurewise.feature_PC_Delta_min_weight 1000000.00000000
learning_engine_featurewise.feature_PC_Delta_max_weight 0.00000000
unique_pcs 1355
unique_pages 15892
unique_trigger_pcs 497
total_bitmaps_seen 0
unique_bitmaps_seen 0

scooby_bw_epochs 558789
scooby_bw_level_0 437997
scooby_bw_level_1 77022
scooby_bw_level_2 28522
scooby_bw_level_3 15248

scooby_ipc_epochs 0
scooby_ipc_level_0 0
scooby_ipc_level_1 0
scooby_ipc_level_2 0
scooby_ipc_level_3 0

scooby_cache_acc_epochs 70900
scooby_cache_acc_level_0 42482
scooby_cache_acc_level_1 16213
scooby_cache_acc_level_2 3852
scooby_cache_acc_level_3 1764
scooby_cache_acc_level_4 1299
scooby_cache_acc_level_5 1227
scooby_cache_acc_level_6 883
scooby_cache_acc_level_7 800
scooby_cache_acc_level_8 819
scooby_cache_acc_level_9 1561

Channel_0_RQ_row_buffer_hit 475276
Channel_0_RQ_row_buffer_miss 366225
Channel_0_WQ_row_buffer_hit 4714
Channel_0_WQ_row_buffer_miss 23747
Channel_0_WQ_full 0
Channel_0_dbus_congested 374467

avg_congested_cycle 9

DRAM_bw_pochs 558789
DRAM_bw_level_0 437997
DRAM_bw_level_1 77022
DRAM_bw_level_2 28522
DRAM_bw_level_3 15248
