*************************************************
   ChampSim Multicore Out-of-Order Simulator
   Last compiled: Apr  3 2025 20:54:34
*************************************************
parsing config file: /home/zir/Pythia/config/mlop.ini

trace_0 /home/zir/ChampSim/ML-DPC/ChampSimTraces/spec06/410.bwaves-s2.trace.gz
adding L2C_PREFETCHER: MLOP
Initialize SHIP state
warmup_instructions 10000000
simulation_instructions 50000000
champsim_seed 165
measure_ipc 0
measure_ipc_epoch 1000
measure_dram_bw 1
measure_dram_bw_epoch 256
measure_cache_acc 1
measure_cache_acc_epoch 1024
l1d_perfect 0
l2c_perfect 0
llc_perfect 0
l1d_semi_perfect 0
l2c_semi_perfect 0
llc_semi_perfect 0
semi_perfect_cache_page_buffer_size 64

num_cpus 1
cpu_freq 4000
dram_io_freq 2400
page_size 4096
block_size 64
max_read_per_cycle 8
max_fill_per_cycle 1
dram_channels 1
log2_dram_channels 0
dram_ranks 1
dram_banks 8
dram_rows 65536
dram_columns 128
dram_row_size 8
dram_size 4096
dram_pages 1048576

fetch_width 6
decode_width 6
exec_width 4
lq_width 2
sq_width 2
retire_width 4
scheduler_size 128
branch_mispredict_penalty 20
rob_size 256
lq_size 72
sq_size 56
num_instr_destinations_sparc 4
num_instr_destinations 2
num_instr_sources 4

itlb_set 16
itlb_way 8
itlb_rq_size 16
itlb_wq_size 16
itlb_pq_size 0
itlb_mshr_size 8
itlb_latency 1

dtlb_set 16
dtlb_way 4
dtlb_rq_size 16
dtlb_wq_size 16
dtlb_pq_size 0
dtlb_mshr_size 8
dtlb_latency 1

stlb_set 128
stlb_way 12
stlb_rq_size 32
stlb_wq_size 32
stlb_pq_size 0
stlb_mshr_size 16
stlb_latency 8

l1i_size 32
l1i_set 64
l1i_way 8
l1i_rq_size 64
l1i_wq_size 64
l1i_pq_size 8
l1i_mshr_size 8
l1i_latency 1

l1d_size 32
l1d_set 64
l1d_way 8
l1d_rq_size 64
l1d_wq_size 64
l1d_pq_size 8
l1d_mshr_size 16
l1d_latency 4

l2c_size 256
l2c_set 512
l2c_way 8
l2c_rq_size 32
l2c_wq_size 32
l2c_pq_size 32
l2c_mshr_size 32
l2c_latency 10

llc_size 2048
llc_set 2048
llc_way 16
llc_rq_size 32
llc_wq_size 32
llc_pq_size 32
llc_mshr_size 64
llc_latency 20

dram_channel_width 8
dram_wq_size 64
dram_rq_size 64
tRP 15
tRCD 15
tCAS 12.5
dram_dbus_turn_around_time 30
dram_write_high_wm 56
dram_write_low_wm 48
min_dram_writes_per_switch 16
dram_mtps 2400
dram_dbus_return_time 13

mlop_pref_degree 16
mlop_num_updates 500
mlop_l1d_thresh 2
mlop_l2c_thresh 0.75
mlop_llc_thresh 0.3
mlop_debug_level 0
mlop_blocks_in_cache 4096
mlop_blocks_in_zone 64
mlop_amt_size 2048
mlop_PF_DEGREE 16
mlop_NUM_UPDATES 500
mlop_L1D_THRESH 1000
mlop_L2C_THRESH 375
mlop_LLC_THRESH 150
mlop_ORIGIN 63
mlop_MAX_OFFSET 63
mlop_MIN_OFFSET -63
mlop_ORIGIN 63
mlop_NUM_OFFSETS 127


Heartbeat CPU  0 instructions:    1000000 cycles:     630162 heartbeat IPC: 1.58689 cumulative IPC: 1.58689 (Simulation time: 0 hr 0 min 1 sec) 
Heartbeat CPU  0 instructions:    2000003 cycles:    1227859 heartbeat IPC: 1.67309 cumulative IPC: 1.62885 (Simulation time: 0 hr 0 min 2 sec) 
Heartbeat CPU  0 instructions:    3000003 cycles:    1823470 heartbeat IPC: 1.67895 cumulative IPC: 1.64522 (Simulation time: 0 hr 0 min 3 sec) 
Heartbeat CPU  0 instructions:    4000000 cycles:    2420054 heartbeat IPC: 1.67620 cumulative IPC: 1.65286 (Simulation time: 0 hr 0 min 4 sec) 
Heartbeat CPU  0 instructions:    5000001 cycles:    2984120 heartbeat IPC: 1.77284 cumulative IPC: 1.67554 (Simulation time: 0 hr 0 min 5 sec) 
Heartbeat CPU  0 instructions:    6000002 cycles:    3585569 heartbeat IPC: 1.66265 cumulative IPC: 1.67338 (Simulation time: 0 hr 0 min 6 sec) 
Heartbeat CPU  0 instructions:    7000000 cycles:    4179951 heartbeat IPC: 1.68242 cumulative IPC: 1.67466 (Simulation time: 0 hr 0 min 7 sec) 
Heartbeat CPU  0 instructions:    8000000 cycles:    4772965 heartbeat IPC: 1.68630 cumulative IPC: 1.67611 (Simulation time: 0 hr 0 min 8 sec) 
Heartbeat CPU  0 instructions:    9000003 cycles:    5348679 heartbeat IPC: 1.73698 cumulative IPC: 1.68266 (Simulation time: 0 hr 0 min 8 sec) 
Heartbeat CPU  0 instructions:   10000000 cycles:    5946684 heartbeat IPC: 1.67222 cumulative IPC: 1.68161 (Simulation time: 0 hr 0 min 9 sec) 

Warmup complete CPU  0 instructions:   10000004 cycles:    5946685 (Simulation time: 0 hr 0 min 9 sec) 

Heartbeat CPU  0 instructions:   11000000 cycles:    7029095 heartbeat IPC: 0.92386 cumulative IPC: 0.92386 (Simulation time: 0 hr 0 min 11 sec) 
Heartbeat CPU  0 instructions:   12000000 cycles:    8067994 heartbeat IPC: 0.96256 cumulative IPC: 0.94281 (Simulation time: 0 hr 0 min 12 sec) 
Heartbeat CPU  0 instructions:   13000002 cycles:    9098940 heartbeat IPC: 0.96998 cumulative IPC: 0.95170 (Simulation time: 0 hr 0 min 14 sec) 
Heartbeat CPU  0 instructions:   14000001 cycles:   10175633 heartbeat IPC: 0.92877 cumulative IPC: 0.94586 (Simulation time: 0 hr 0 min 15 sec) 
Heartbeat CPU  0 instructions:   15000001 cycles:   11228755 heartbeat IPC: 0.94956 cumulative IPC: 0.94660 (Simulation time: 0 hr 0 min 16 sec) 
Heartbeat CPU  0 instructions:   16000000 cycles:   12287515 heartbeat IPC: 0.94450 cumulative IPC: 0.94625 (Simulation time: 0 hr 0 min 17 sec) 
Heartbeat CPU  0 instructions:   17000001 cycles:   13365111 heartbeat IPC: 0.92799 cumulative IPC: 0.94360 (Simulation time: 0 hr 0 min 19 sec) 
Heartbeat CPU  0 instructions:   18000003 cycles:   14428459 heartbeat IPC: 0.94043 cumulative IPC: 0.94320 (Simulation time: 0 hr 0 min 20 sec) 
Heartbeat CPU  0 instructions:   19000000 cycles:   15498527 heartbeat IPC: 0.93452 cumulative IPC: 0.94223 (Simulation time: 0 hr 0 min 21 sec) 
Heartbeat CPU  0 instructions:   20000000 cycles:   16554425 heartbeat IPC: 0.94706 cumulative IPC: 0.94271 (Simulation time: 0 hr 0 min 22 sec) 
Heartbeat CPU  0 instructions:   21000001 cycles:   17647495 heartbeat IPC: 0.91486 cumulative IPC: 0.94011 (Simulation time: 0 hr 0 min 24 sec) 
Heartbeat CPU  0 instructions:   22000000 cycles:   18702790 heartbeat IPC: 0.94760 cumulative IPC: 0.94073 (Simulation time: 0 hr 0 min 25 sec) 
Heartbeat CPU  0 instructions:   23000003 cycles:   19781026 heartbeat IPC: 0.92744 cumulative IPC: 0.93969 (Simulation time: 0 hr 0 min 26 sec) 
Heartbeat CPU  0 instructions:   24000000 cycles:   20831485 heartbeat IPC: 0.95196 cumulative IPC: 0.94056 (Simulation time: 0 hr 0 min 27 sec) 
Heartbeat CPU  0 instructions:   25000000 cycles:   21919542 heartbeat IPC: 0.91907 cumulative IPC: 0.93909 (Simulation time: 0 hr 0 min 28 sec) 
Heartbeat CPU  0 instructions:   26000001 cycles:   22973264 heartbeat IPC: 0.94902 cumulative IPC: 0.93971 (Simulation time: 0 hr 0 min 30 sec) 
Heartbeat CPU  0 instructions:   27000000 cycles:   24039129 heartbeat IPC: 0.93820 cumulative IPC: 0.93962 (Simulation time: 0 hr 0 min 31 sec) 
Heartbeat CPU  0 instructions:   28000000 cycles:   25122151 heartbeat IPC: 0.92334 cumulative IPC: 0.93870 (Simulation time: 0 hr 0 min 33 sec) 
Heartbeat CPU  0 instructions:   29000001 cycles:   26209407 heartbeat IPC: 0.91975 cumulative IPC: 0.93768 (Simulation time: 0 hr 0 min 34 sec) 
Heartbeat CPU  0 instructions:   30000000 cycles:   27274419 heartbeat IPC: 0.93896 cumulative IPC: 0.93775 (Simulation time: 0 hr 0 min 35 sec) 
Heartbeat CPU  0 instructions:   31000000 cycles:   28359816 heartbeat IPC: 0.92132 cumulative IPC: 0.93695 (Simulation time: 0 hr 0 min 37 sec) 
Heartbeat CPU  0 instructions:   32000000 cycles:   29421833 heartbeat IPC: 0.94160 cumulative IPC: 0.93716 (Simulation time: 0 hr 0 min 38 sec) 
Heartbeat CPU  0 instructions:   33000003 cycles:   30502021 heartbeat IPC: 0.92577 cumulative IPC: 0.93666 (Simulation time: 0 hr 0 min 40 sec) 
Heartbeat CPU  0 instructions:   34000001 cycles:   31566369 heartbeat IPC: 0.93954 cumulative IPC: 0.93678 (Simulation time: 0 hr 0 min 41 sec) 
Heartbeat CPU  0 instructions:   35000003 cycles:   32641559 heartbeat IPC: 0.93007 cumulative IPC: 0.93651 (Simulation time: 0 hr 0 min 42 sec) 
Heartbeat CPU  0 instructions:   36000000 cycles:   33713923 heartbeat IPC: 0.93252 cumulative IPC: 0.93636 (Simulation time: 0 hr 0 min 43 sec) 
Heartbeat CPU  0 instructions:   37000000 cycles:   34766722 heartbeat IPC: 0.94985 cumulative IPC: 0.93685 (Simulation time: 0 hr 0 min 44 sec) 
Heartbeat CPU  0 instructions:   38000001 cycles:   35825885 heartbeat IPC: 0.94414 cumulative IPC: 0.93711 (Simulation time: 0 hr 0 min 46 sec) 
Heartbeat CPU  0 instructions:   39000001 cycles:   36890169 heartbeat IPC: 0.93960 cumulative IPC: 0.93719 (Simulation time: 0 hr 0 min 47 sec) 
Heartbeat CPU  0 instructions:   40000000 cycles:   37951765 heartbeat IPC: 0.94198 cumulative IPC: 0.93735 (Simulation time: 0 hr 0 min 48 sec) 
Heartbeat CPU  0 instructions:   41000000 cycles:   39012717 heartbeat IPC: 0.94255 cumulative IPC: 0.93752 (Simulation time: 0 hr 0 min 49 sec) 
Heartbeat CPU  0 instructions:   42000001 cycles:   40058246 heartbeat IPC: 0.95645 cumulative IPC: 0.93810 (Simulation time: 0 hr 0 min 50 sec) 
Heartbeat CPU  0 instructions:   43000001 cycles:   41131834 heartbeat IPC: 0.93146 cumulative IPC: 0.93790 (Simulation time: 0 hr 0 min 52 sec) 
Heartbeat CPU  0 instructions:   44000000 cycles:   42192051 heartbeat IPC: 0.94320 cumulative IPC: 0.93805 (Simulation time: 0 hr 0 min 53 sec) 
Heartbeat CPU  0 instructions:   45000001 cycles:   43245175 heartbeat IPC: 0.94956 cumulative IPC: 0.93838 (Simulation time: 0 hr 0 min 54 sec) 
Heartbeat CPU  0 instructions:   46000001 cycles:   44280780 heartbeat IPC: 0.96562 cumulative IPC: 0.93911 (Simulation time: 0 hr 0 min 55 sec) 
Heartbeat CPU  0 instructions:   47000000 cycles:   45294707 heartbeat IPC: 0.98626 cumulative IPC: 0.94033 (Simulation time: 0 hr 0 min 57 sec) 
Heartbeat CPU  0 instructions:   48000000 cycles:   46341753 heartbeat IPC: 0.95507 cumulative IPC: 0.94071 (Simulation time: 0 hr 0 min 58 sec) 
Heartbeat CPU  0 instructions:   49000000 cycles:   47423195 heartbeat IPC: 0.92469 cumulative IPC: 0.94029 (Simulation time: 0 hr 0 min 59 sec) 
Heartbeat CPU  0 instructions:   50000001 cycles:   48480094 heartbeat IPC: 0.94617 cumulative IPC: 0.94044 (Simulation time: 0 hr 1 min 1 sec) 
Heartbeat CPU  0 instructions:   51000001 cycles:   49523486 heartbeat IPC: 0.95841 cumulative IPC: 0.94087 (Simulation time: 0 hr 1 min 2 sec) 
Heartbeat CPU  0 instructions:   52000000 cycles:   50604285 heartbeat IPC: 0.92524 cumulative IPC: 0.94049 (Simulation time: 0 hr 1 min 3 sec) 
Heartbeat CPU  0 instructions:   53000002 cycles:   51658993 heartbeat IPC: 0.94813 cumulative IPC: 0.94067 (Simulation time: 0 hr 1 min 4 sec) 
Heartbeat CPU  0 instructions:   54000000 cycles:   52705907 heartbeat IPC: 0.95519 cumulative IPC: 0.94099 (Simulation time: 0 hr 1 min 5 sec) 
Heartbeat CPU  0 instructions:   55000003 cycles:   53771624 heartbeat IPC: 0.93834 cumulative IPC: 0.94093 (Simulation time: 0 hr 1 min 6 sec) 
Heartbeat CPU  0 instructions:   56000000 cycles:   54860479 heartbeat IPC: 0.91839 cumulative IPC: 0.94043 (Simulation time: 0 hr 1 min 8 sec) 
Heartbeat CPU  0 instructions:   57000001 cycles:   55911602 heartbeat IPC: 0.95136 cumulative IPC: 0.94066 (Simulation time: 0 hr 1 min 9 sec) 
Heartbeat CPU  0 instructions:   58000000 cycles:   56958201 heartbeat IPC: 0.95547 cumulative IPC: 0.94096 (Simulation time: 0 hr 1 min 10 sec) 
Heartbeat CPU  0 instructions:   59000003 cycles:   58054233 heartbeat IPC: 0.91238 cumulative IPC: 0.94036 (Simulation time: 0 hr 1 min 11 sec) 
Heartbeat CPU  0 instructions:   60000000 cycles:   59117642 heartbeat IPC: 0.94037 cumulative IPC: 0.94036 (Simulation time: 0 hr 1 min 13 sec) 
Finished CPU 0 instructions: 50000003 cycles: 53170974 cumulative IPC: 0.94036 (Simulation time: 0 hr 1 min 13 sec) 

ChampSim completed all CPUs

[ROI Statistics]
Core_0_instructions 50000003
Core_0_cycles 53170974
Core_0_IPC 0.94036

Core_0_branch_prediction_accuracy 92.27390
Core_0_branch_MPKI 10.73426
Core_0_average_ROB_occupancy_at_mispredict 75.78979

Core_0_L1D_total_access 8678285
Core_0_L1D_total_hit 8651681
Core_0_L1D_total_miss 26604
Core_0_L1D_loads 6616730
Core_0_L1D_load_hit 6612153
Core_0_L1D_load_miss 4577
Core_0_L1D_RFOs 2061555
Core_0_L1D_RFO_hit 2039528
Core_0_L1D_RFO_miss 22027
Core_0_L1D_prefetches 0
Core_0_L1D_prefetch_hit 0
Core_0_L1D_prefetch_miss 0
Core_0_L1D_writebacks 0
Core_0_L1D_writeback_hit 0
Core_0_L1D_writeback_miss 0
Core_0_L1D_prefetch_requested 0
Core_0_L1D_prefetch_dropped 0
Core_0_L1D_prefetch_issued 0
Core_0_L1D_prefetch_filled 0
Core_0_L1D_prefetch_useful 0
Core_0_L1D_prefetch_useless 0
Core_0_L1D_prefetch_late 0
Core_0_L1D_average_miss_latency 106.85483

Core_0_L1D_rq_access 12043825
Core_0_L1D_rq_forward 0
Core_0_L1D_rq_merged 5426488
Core_0_L1D_rq_to_cache 6617276
Core_0_L1D_rq_full 0

Core_0_L1D_wq_access 2218478
Core_0_L1D_wq_forward 61
Core_0_L1D_wq_merged 30666
Core_0_L1D_wq_to_cache 2187812
Core_0_L1D_wq_full 0

Core_0_L1D_pq_access 0
Core_0_L1D_pq_forward 0
Core_0_L1D_pq_merged 0
Core_0_L1D_pq_to_cache 0
Core_0_L1D_pq_full 0

Core_0_L1D_acc_epochs 57697
Core_0_L1D_acc_level_0 57697
Core_0_L1D_acc_level_1 0
Core_0_L1D_acc_level_2 0
Core_0_L1D_acc_level_3 0
Core_0_L1D_acc_level_4 0
Core_0_L1D_acc_level_5 0
Core_0_L1D_acc_level_6 0
Core_0_L1D_acc_level_7 0
Core_0_L1D_acc_level_8 0
Core_0_L1D_acc_level_9 0

Core_0_L1I_total_access 9135883
Core_0_L1I_total_hit 9135880
Core_0_L1I_total_miss 3
Core_0_L1I_loads 9135883
Core_0_L1I_load_hit 9135880
Core_0_L1I_load_miss 3
Core_0_L1I_RFOs 0
Core_0_L1I_RFO_hit 0
Core_0_L1I_RFO_miss 0
Core_0_L1I_prefetches 0
Core_0_L1I_prefetch_hit 0
Core_0_L1I_prefetch_miss 0
Core_0_L1I_writebacks 0
Core_0_L1I_writeback_hit 0
Core_0_L1I_writeback_miss 0
Core_0_L1I_prefetch_requested 0
Core_0_L1I_prefetch_dropped 0
Core_0_L1I_prefetch_issued 0
Core_0_L1I_prefetch_filled 0
Core_0_L1I_prefetch_useful 0
Core_0_L1I_prefetch_useless 0
Core_0_L1I_prefetch_late 0
Core_0_L1I_average_miss_latency 191.33333

Core_0_L1I_rq_access 50000241
Core_0_L1I_rq_forward 0
Core_0_L1I_rq_merged 40864358
Core_0_L1I_rq_to_cache 9135883
Core_0_L1I_rq_full 0

Core_0_L1I_wq_access 0
Core_0_L1I_wq_forward 0
Core_0_L1I_wq_merged 0
Core_0_L1I_wq_to_cache 0
Core_0_L1I_wq_full 0

Core_0_L1I_pq_access 0
Core_0_L1I_pq_forward 0
Core_0_L1I_pq_merged 0
Core_0_L1I_pq_to_cache 0
Core_0_L1I_pq_full 0

Core_0_L1I_acc_epochs 57697
Core_0_L1I_acc_level_0 57697
Core_0_L1I_acc_level_1 0
Core_0_L1I_acc_level_2 0
Core_0_L1I_acc_level_3 0
Core_0_L1I_acc_level_4 0
Core_0_L1I_acc_level_5 0
Core_0_L1I_acc_level_6 0
Core_0_L1I_acc_level_7 0
Core_0_L1I_acc_level_8 0
Core_0_L1I_acc_level_9 0

Core_0_L2C_total_access 50860
Core_0_L2C_total_hit 26414
Core_0_L2C_total_miss 24446
Core_0_L2C_loads 4580
Core_0_L2C_load_hit 3897
Core_0_L2C_load_miss 683
Core_0_L2C_RFOs 22027
Core_0_L2C_RFO_hit 544
Core_0_L2C_RFO_miss 21483
Core_0_L2C_prefetches 2251
Core_0_L2C_prefetch_hit 29
Core_0_L2C_prefetch_miss 2222
Core_0_L2C_writebacks 22002
Core_0_L2C_writeback_hit 21944
Core_0_L2C_writeback_miss 58
Core_0_L2C_prefetch_requested 3747
Core_0_L2C_prefetch_dropped 0
Core_0_L2C_prefetch_issued 3747
Core_0_L2C_prefetch_filled 2222
Core_0_L2C_prefetch_useful 1715
Core_0_L2C_prefetch_useless 475
Core_0_L2C_prefetch_late 1
Core_0_L2C_average_miss_latency 110.73738

Core_0_L2C_rq_access 26607
Core_0_L2C_rq_forward 0
Core_0_L2C_rq_merged 0
Core_0_L2C_rq_to_cache 26607
Core_0_L2C_rq_full 0

Core_0_L2C_wq_access 22002
Core_0_L2C_wq_forward 0
Core_0_L2C_wq_merged 0
Core_0_L2C_wq_to_cache 22002
Core_0_L2C_wq_full 0

Core_0_L2C_pq_access 3747
Core_0_L2C_pq_forward 0
Core_0_L2C_pq_merged 1
Core_0_L2C_pq_to_cache 3746
Core_0_L2C_pq_full 0

Core_0_L2C_acc_epochs 57697
Core_0_L2C_acc_level_0 55706
Core_0_L2C_acc_level_1 160
Core_0_L2C_acc_level_2 200
Core_0_L2C_acc_level_3 196
Core_0_L2C_acc_level_4 315
Core_0_L2C_acc_level_5 166
Core_0_L2C_acc_level_6 229
Core_0_L2C_acc_level_7 250
Core_0_L2C_acc_level_8 278
Core_0_L2C_acc_level_9 197

Core_0_LLC_total_access 44772
Core_0_LLC_total_hit 20681
Core_0_LLC_total_miss 24091
Core_0_LLC_loads 682
Core_0_LLC_load_hit 629
Core_0_LLC_load_miss 53
Core_0_LLC_RFOs 21483
Core_0_LLC_RFO_hit 125
Core_0_LLC_RFO_miss 21358
Core_0_LLC_prefetches 3717
Core_0_LLC_prefetch_hit 1037
Core_0_LLC_prefetch_miss 2680
Core_0_LLC_writebacks 18890
Core_0_LLC_writeback_hit 18890
Core_0_LLC_writeback_miss 0
Core_0_LLC_prefetch_requested 0
Core_0_LLC_prefetch_dropped 0
Core_0_LLC_prefetch_issued 0
Core_0_LLC_prefetch_filled 2680
Core_0_LLC_prefetch_useful 488
Core_0_LLC_prefetch_useless 0
Core_0_LLC_prefetch_late 0
Core_0_LLC_average_miss_latency 91.27595

Core_0_LLC_rq_access 22165
Core_0_LLC_rq_forward 0
Core_0_LLC_rq_merged 0
Core_0_LLC_rq_to_cache 22165
Core_0_LLC_rq_full 0

Core_0_LLC_wq_access 18890
Core_0_LLC_wq_forward 0
Core_0_LLC_wq_merged 0
Core_0_LLC_wq_to_cache 18890
Core_0_LLC_wq_full 0

Core_0_LLC_pq_access 3717
Core_0_LLC_pq_forward 0
Core_0_LLC_pq_merged 0
Core_0_LLC_pq_to_cache 3717
Core_0_LLC_pq_full 0

Core_0_LLC_acc_epochs 57733
Core_0_LLC_acc_level_0 57146
Core_0_LLC_acc_level_1 39
Core_0_LLC_acc_level_2 32
Core_0_LLC_acc_level_3 80
Core_0_LLC_acc_level_4 105
Core_0_LLC_acc_level_5 30
Core_0_LLC_acc_level_6 74
Core_0_LLC_acc_level_7 107
Core_0_LLC_acc_level_8 101
Core_0_LLC_acc_level_9 19

Core_0_major_page_fault 0
Core_0_minor_page_fault 426

[MLOP] History of tracked zone:
[MLOP] Prefetch Degree Mean: 14.60000
[MLOP] Prefetch Degree SD: 2.80000
[MLOP] Max Score Left Mean (%): 61.44000
[MLOP] Max Score Left SD (%): 19.97815
[MLOP] Max Score Right Mean (%): 93.00000
[MLOP] Max Score Right SD (%): 9.90111

Channel_0_RQ_row_buffer_hit 21492
Channel_0_RQ_row_buffer_miss 2599
Channel_0_WQ_row_buffer_hit 0
Channel_0_WQ_row_buffer_miss 0
Channel_0_WQ_full 0
Channel_0_dbus_congested 9148

avg_congested_cycle 9

DRAM_bw_pochs 230929
DRAM_bw_level_0 228317
DRAM_bw_level_1 2504
DRAM_bw_level_2 64
DRAM_bw_level_3 44
