*************************************************
   ChampSim Multicore Out-of-Order Simulator
   Last compiled: Apr  3 2025 20:54:34
*************************************************
parsing config file: /home/zir/Pythia/config/pythia.ini

trace_0 /home/zir/ChampSim/ML-DPC/ChampSimTraces/spec17/654.roms-s4.trace.xz
adding L2C_PREFETCHER: Scooby
Initialize SHIP state
warmup_instructions 10000000
simulation_instructions 50000000
champsim_seed 167
measure_ipc 0
measure_ipc_epoch 1000
measure_dram_bw 1
measure_dram_bw_epoch 256
measure_cache_acc 1
measure_cache_acc_epoch 1024
l1d_perfect 0
l2c_perfect 0
llc_perfect 0
l1d_semi_perfect 0
l2c_semi_perfect 0
llc_semi_perfect 0
semi_perfect_cache_page_buffer_size 64

num_cpus 1
cpu_freq 4000
dram_io_freq 2400
page_size 4096
block_size 64
max_read_per_cycle 8
max_fill_per_cycle 1
dram_channels 1
log2_dram_channels 0
dram_ranks 1
dram_banks 8
dram_rows 65536
dram_columns 128
dram_row_size 8
dram_size 4096
dram_pages 1048576

fetch_width 6
decode_width 6
exec_width 4
lq_width 2
sq_width 2
retire_width 4
scheduler_size 128
branch_mispredict_penalty 20
rob_size 256
lq_size 72
sq_size 56
num_instr_destinations_sparc 4
num_instr_destinations 2
num_instr_sources 4

itlb_set 16
itlb_way 8
itlb_rq_size 16
itlb_wq_size 16
itlb_pq_size 0
itlb_mshr_size 8
itlb_latency 1

dtlb_set 16
dtlb_way 4
dtlb_rq_size 16
dtlb_wq_size 16
dtlb_pq_size 0
dtlb_mshr_size 8
dtlb_latency 1

stlb_set 128
stlb_way 12
stlb_rq_size 32
stlb_wq_size 32
stlb_pq_size 0
stlb_mshr_size 16
stlb_latency 8

l1i_size 32
l1i_set 64
l1i_way 8
l1i_rq_size 64
l1i_wq_size 64
l1i_pq_size 8
l1i_mshr_size 8
l1i_latency 1

l1d_size 32
l1d_set 64
l1d_way 8
l1d_rq_size 64
l1d_wq_size 64
l1d_pq_size 8
l1d_mshr_size 16
l1d_latency 4

l2c_size 256
l2c_set 512
l2c_way 8
l2c_rq_size 32
l2c_wq_size 32
l2c_pq_size 32
l2c_mshr_size 32
l2c_latency 10

llc_size 2048
llc_set 2048
llc_way 16
llc_rq_size 32
llc_wq_size 32
llc_pq_size 32
llc_mshr_size 64
llc_latency 20

dram_channel_width 8
dram_wq_size 64
dram_rq_size 64
tRP 15
tRCD 15
tCAS 12.5
dram_dbus_turn_around_time 30
dram_write_high_wm 56
dram_write_low_wm 48
min_dram_writes_per_switch 16
dram_mtps 2400
dram_dbus_return_time 13

scooby_alpha 0.0065088
scooby_gamma 0.556301
scooby_epsilon 0.00182284
scooby_state_num_bits 10
scooby_max_states 1024
scooby_seed 200
scooby_policy EGreedy
scooby_learning_type SARSA
scooby_actions 1,3,4,5,10,11,12,22,23,30,32,-1,-3,-6,0,
scooby_max_actions 15
scooby_pt_size 256
scooby_st_size 64
scooby_max_pcs 5
scooby_max_offsets 5
scooby_max_deltas 5
scooby_reward_none -4
scooby_reward_incorrect -8
scooby_reward_correct_untimely 12
scooby_reward_correct_timely 20
scooby_brain_zero_init 0
scooby_enable_reward_all 0
scooby_enable_track_multiple 0
scooby_enable_reward_out_of_bounds 1
scooby_reward_out_of_bounds -12
scooby_state_type 1
scooby_state_hash_type 11
scooby_access_debug 0
scooby_print_access_debug 0
scooby_print_access_debug_pc deadbeef
scooby_print_access_debug_pc_count 0
scooby_print_trace 0
scooby_enable_state_action_stats 1
scooby_enable_reward_tracker_hit 0
scooby_reward_tracker_hit -2
scooby_enable_featurewise_engine 1
scooby_pref_degree 1
scooby_enable_dyn_degree 1
scooby_max_to_avg_q_thresholds 0.5,1,2,
scooby_dyn_degrees 1,2,4,4,
scooby_multi_deg_select_type 2
scooby_last_pref_offset_conf_thresholds 1,3,8,
scooby_dyn_degrees_type2 1,2,4,6,
scooby_action_tracker_size 2
scooby_high_bw_thresh 4
scooby_enable_hbw_reward 1
scooby_reward_hbw_correct_timely 20
scooby_reward_hbw_correct_untimely 12
scooby_reward_hbw_incorrect -14
scooby_reward_hbw_none -2
scooby_reward_hbw_out_of_bounds -12
scooby_reward_hbw_tracker_hit -2
scooby_last_pref_offset_conf_thresholds_hbw 1,3,8,
scooby_dyn_degrees_type2_hbw 1,2,4,6,

le_enable_trace 0
le_trace_interval 0
le_trace_file_name 
le_trace_state 0
le_enable_score_plot 0
le_plot_file_name 
le_plot_actions 
le_enable_action_trace 0
le_action_trace_interval 0
le_action_trace_name 
le_enable_action_plot 0

le_featurewise_active_features PC, PC_Delta
le_featurewise_num_tilings 3,3,
le_featurewise_num_tiles 128,128,
le_featurewise_hash_types 2,2,
le_featurewise_enable_tiling_offset 1,1,
le_featurewise_max_q_thresh 0.5
le_featurewise_enable_action_fallback 1
le_featurewise_feature_weights 1,1,
le_featurewise_enable_dynamic_weight 0
le_featurewise_weight_gradient 0.001
le_featurewise_disable_adjust_weight_all_features_align 1
le_featurewise_selective_update 0
le_featurewise_pooling_type 2
le_featurewise_enable_dyn_action_fallback 1
le_featurewise_bw_acc_check_level 1
le_featurewise_acc_thresh 2
le_featurewise_enable_trace 0
le_featurewise_trace_feature_type 0
le_featurewise_trace_feature 
le_featurewise_trace_interval 0
le_featurewise_trace_record_count 0
le_featurewise_trace_file_name 
le_featurewise_enable_score_plot 0
le_featurewise_plot_actions 
le_featurewise_plot_file_name 


Heartbeat CPU  0 instructions:    1000001 cycles:     416070 heartbeat IPC: 2.40344 cumulative IPC: 2.40344 (Simulation time: 0 hr 0 min 1 sec) 
Heartbeat CPU  0 instructions:    2000002 cycles:     831590 heartbeat IPC: 2.40663 cumulative IPC: 2.40503 (Simulation time: 0 hr 0 min 3 sec) 
Heartbeat CPU  0 instructions:    3000002 cycles:    1246818 heartbeat IPC: 2.40832 cumulative IPC: 2.40613 (Simulation time: 0 hr 0 min 4 sec) 
Heartbeat CPU  0 instructions:    4000000 cycles:    1662220 heartbeat IPC: 2.40730 cumulative IPC: 2.40642 (Simulation time: 0 hr 0 min 6 sec) 
Heartbeat CPU  0 instructions:    5000000 cycles:    2077700 heartbeat IPC: 2.40685 cumulative IPC: 2.40651 (Simulation time: 0 hr 0 min 7 sec) 
Heartbeat CPU  0 instructions:    6000001 cycles:    2493153 heartbeat IPC: 2.40701 cumulative IPC: 2.40659 (Simulation time: 0 hr 0 min 9 sec) 
Heartbeat CPU  0 instructions:    7000003 cycles:    2908513 heartbeat IPC: 2.40755 cumulative IPC: 2.40673 (Simulation time: 0 hr 0 min 10 sec) 
Heartbeat CPU  0 instructions:    8000000 cycles:    3324171 heartbeat IPC: 2.40582 cumulative IPC: 2.40662 (Simulation time: 0 hr 0 min 12 sec) 
Heartbeat CPU  0 instructions:    9000003 cycles:    3739522 heartbeat IPC: 2.40761 cumulative IPC: 2.40673 (Simulation time: 0 hr 0 min 13 sec) 
Heartbeat CPU  0 instructions:   10000000 cycles:    4155013 heartbeat IPC: 2.40678 cumulative IPC: 2.40673 (Simulation time: 0 hr 0 min 15 sec) 

Warmup complete CPU  0 instructions:   10000004 cycles:    4155014 (Simulation time: 0 hr 0 min 15 sec) 

Heartbeat CPU  0 instructions:   11000003 cycles:    5481676 heartbeat IPC: 0.75377 cumulative IPC: 0.75377 (Simulation time: 0 hr 0 min 17 sec) 
Heartbeat CPU  0 instructions:   12000000 cycles:    6807813 heartbeat IPC: 0.75407 cumulative IPC: 0.75392 (Simulation time: 0 hr 0 min 19 sec) 
Heartbeat CPU  0 instructions:   13000000 cycles:    8134371 heartbeat IPC: 0.75383 cumulative IPC: 0.75389 (Simulation time: 0 hr 0 min 21 sec) 
Heartbeat CPU  0 instructions:   14000001 cycles:    9460552 heartbeat IPC: 0.75405 cumulative IPC: 0.75393 (Simulation time: 0 hr 0 min 24 sec) 
Heartbeat CPU  0 instructions:   15000000 cycles:   10787234 heartbeat IPC: 0.75376 cumulative IPC: 0.75389 (Simulation time: 0 hr 0 min 26 sec) 
Heartbeat CPU  0 instructions:   16000000 cycles:   12108303 heartbeat IPC: 0.75696 cumulative IPC: 0.75440 (Simulation time: 0 hr 0 min 28 sec) 
Heartbeat CPU  0 instructions:   17000000 cycles:   13434358 heartbeat IPC: 0.75412 cumulative IPC: 0.75436 (Simulation time: 0 hr 0 min 30 sec) 
Heartbeat CPU  0 instructions:   18000000 cycles:   14758979 heartbeat IPC: 0.75493 cumulative IPC: 0.75443 (Simulation time: 0 hr 0 min 32 sec) 
Heartbeat CPU  0 instructions:   19000001 cycles:   16083325 heartbeat IPC: 0.75509 cumulative IPC: 0.75451 (Simulation time: 0 hr 0 min 34 sec) 
Heartbeat CPU  0 instructions:   20000000 cycles:   17408327 heartbeat IPC: 0.75472 cumulative IPC: 0.75453 (Simulation time: 0 hr 0 min 36 sec) 
Heartbeat CPU  0 instructions:   21000000 cycles:   18733118 heartbeat IPC: 0.75484 cumulative IPC: 0.75456 (Simulation time: 0 hr 0 min 39 sec) 
Heartbeat CPU  0 instructions:   22000000 cycles:   20057755 heartbeat IPC: 0.75492 cumulative IPC: 0.75459 (Simulation time: 0 hr 0 min 41 sec) 
Heartbeat CPU  0 instructions:   23000001 cycles:   21381561 heartbeat IPC: 0.75540 cumulative IPC: 0.75465 (Simulation time: 0 hr 0 min 43 sec) 
Heartbeat CPU  0 instructions:   24000000 cycles:   22701771 heartbeat IPC: 0.75745 cumulative IPC: 0.75485 (Simulation time: 0 hr 0 min 45 sec) 
Heartbeat CPU  0 instructions:   25000002 cycles:   24026641 heartbeat IPC: 0.75479 cumulative IPC: 0.75484 (Simulation time: 0 hr 0 min 47 sec) 
Heartbeat CPU  0 instructions:   26000003 cycles:   25351610 heartbeat IPC: 0.75474 cumulative IPC: 0.75484 (Simulation time: 0 hr 0 min 49 sec) 
Heartbeat CPU  0 instructions:   27000000 cycles:   26676187 heartbeat IPC: 0.75496 cumulative IPC: 0.75485 (Simulation time: 0 hr 0 min 51 sec) 
Heartbeat CPU  0 instructions:   28000000 cycles:   28000561 heartbeat IPC: 0.75507 cumulative IPC: 0.75486 (Simulation time: 0 hr 0 min 54 sec) 
Heartbeat CPU  0 instructions:   29000002 cycles:   29325309 heartbeat IPC: 0.75486 cumulative IPC: 0.75486 (Simulation time: 0 hr 0 min 56 sec) 
Heartbeat CPU  0 instructions:   30000002 cycles:   30650835 heartbeat IPC: 0.75442 cumulative IPC: 0.75484 (Simulation time: 0 hr 0 min 58 sec) 
Heartbeat CPU  0 instructions:   31000003 cycles:   31977643 heartbeat IPC: 0.75369 cumulative IPC: 0.75478 (Simulation time: 0 hr 1 min 0 sec) 
Heartbeat CPU  0 instructions:   32000000 cycles:   33298483 heartbeat IPC: 0.75709 cumulative IPC: 0.75489 (Simulation time: 0 hr 1 min 2 sec) 
Heartbeat CPU  0 instructions:   33000001 cycles:   34624689 heartbeat IPC: 0.75403 cumulative IPC: 0.75485 (Simulation time: 0 hr 1 min 4 sec) 
Heartbeat CPU  0 instructions:   34000001 cycles:   35950132 heartbeat IPC: 0.75446 cumulative IPC: 0.75483 (Simulation time: 0 hr 1 min 6 sec) 
Heartbeat CPU  0 instructions:   35000003 cycles:   37276245 heartbeat IPC: 0.75409 cumulative IPC: 0.75480 (Simulation time: 0 hr 1 min 9 sec) 
Heartbeat CPU  0 instructions:   36000000 cycles:   38603119 heartbeat IPC: 0.75365 cumulative IPC: 0.75476 (Simulation time: 0 hr 1 min 11 sec) 
Heartbeat CPU  0 instructions:   37000000 cycles:   39929895 heartbeat IPC: 0.75371 cumulative IPC: 0.75472 (Simulation time: 0 hr 1 min 13 sec) 
Heartbeat CPU  0 instructions:   38000002 cycles:   41257214 heartbeat IPC: 0.75340 cumulative IPC: 0.75467 (Simulation time: 0 hr 1 min 15 sec) 
Heartbeat CPU  0 instructions:   39000001 cycles:   42582619 heartbeat IPC: 0.75449 cumulative IPC: 0.75467 (Simulation time: 0 hr 1 min 17 sec) 
Heartbeat CPU  0 instructions:   40000000 cycles:   43906204 heartbeat IPC: 0.75552 cumulative IPC: 0.75469 (Simulation time: 0 hr 1 min 19 sec) 
Heartbeat CPU  0 instructions:   41000000 cycles:   45234300 heartbeat IPC: 0.75296 cumulative IPC: 0.75464 (Simulation time: 0 hr 1 min 21 sec) 
Heartbeat CPU  0 instructions:   42000002 cycles:   50815826 heartbeat IPC: 0.17916 cumulative IPC: 0.68580 (Simulation time: 0 hr 1 min 26 sec) 
Heartbeat CPU  0 instructions:   43000003 cycles:   52977979 heartbeat IPC: 0.46250 cumulative IPC: 0.67591 (Simulation time: 0 hr 1 min 29 sec) 
Heartbeat CPU  0 instructions:   44000000 cycles:   54629952 heartbeat IPC: 0.60533 cumulative IPC: 0.67360 (Simulation time: 0 hr 1 min 31 sec) 
Heartbeat CPU  0 instructions:   45000000 cycles:   55984334 heartbeat IPC: 0.73834 cumulative IPC: 0.67529 (Simulation time: 0 hr 1 min 33 sec) 
Heartbeat CPU  0 instructions:   46000000 cycles:   57311063 heartbeat IPC: 0.75373 cumulative IPC: 0.67725 (Simulation time: 0 hr 1 min 36 sec) 
Heartbeat CPU  0 instructions:   47000000 cycles:   58637875 heartbeat IPC: 0.75369 cumulative IPC: 0.67911 (Simulation time: 0 hr 1 min 38 sec) 
Heartbeat CPU  0 instructions:   48000000 cycles:   59960115 heartbeat IPC: 0.75629 cumulative IPC: 0.68094 (Simulation time: 0 hr 1 min 40 sec) 
Heartbeat CPU  0 instructions:   49000000 cycles:   61287153 heartbeat IPC: 0.75356 cumulative IPC: 0.68263 (Simulation time: 0 hr 1 min 42 sec) 
Heartbeat CPU  0 instructions:   50000000 cycles:   62614589 heartbeat IPC: 0.75333 cumulative IPC: 0.68423 (Simulation time: 0 hr 1 min 44 sec) 
Heartbeat CPU  0 instructions:   51000001 cycles:   63951967 heartbeat IPC: 0.74773 cumulative IPC: 0.68565 (Simulation time: 0 hr 1 min 46 sec) 
Heartbeat CPU  0 instructions:   52000000 cycles:   65281096 heartbeat IPC: 0.75237 cumulative IPC: 0.68710 (Simulation time: 0 hr 1 min 48 sec) 
Heartbeat CPU  0 instructions:   53000001 cycles:   66609153 heartbeat IPC: 0.75298 cumulative IPC: 0.68851 (Simulation time: 0 hr 1 min 51 sec) 
Heartbeat CPU  0 instructions:   54000003 cycles:   67936283 heartbeat IPC: 0.75351 cumulative IPC: 0.68986 (Simulation time: 0 hr 1 min 53 sec) 
Heartbeat CPU  0 instructions:   55000000 cycles:   69262737 heartbeat IPC: 0.75389 cumulative IPC: 0.69116 (Simulation time: 0 hr 1 min 55 sec) 
Heartbeat CPU  0 instructions:   56000000 cycles:   70589222 heartbeat IPC: 0.75387 cumulative IPC: 0.69241 (Simulation time: 0 hr 1 min 57 sec) 
Heartbeat CPU  0 instructions:   57000002 cycles:   71913190 heartbeat IPC: 0.75531 cumulative IPC: 0.69364 (Simulation time: 0 hr 1 min 59 sec) 
Heartbeat CPU  0 instructions:   58000001 cycles:   73240933 heartbeat IPC: 0.75316 cumulative IPC: 0.69479 (Simulation time: 0 hr 2 min 1 sec) 
Heartbeat CPU  0 instructions:   59000002 cycles:   74569773 heartbeat IPC: 0.75254 cumulative IPC: 0.69588 (Simulation time: 0 hr 2 min 3 sec) 
Heartbeat CPU  0 instructions:   60000000 cycles:   75897474 heartbeat IPC: 0.75318 cumulative IPC: 0.69694 (Simulation time: 0 hr 2 min 6 sec) 
Finished CPU 0 instructions: 50000000 cycles: 71742470 cumulative IPC: 0.69694 (Simulation time: 0 hr 2 min 6 sec) 

ChampSim completed all CPUs

[ROI Statistics]
Core_0_instructions 50000000
Core_0_cycles 71742470
Core_0_IPC 0.69694

Core_0_branch_prediction_accuracy 99.95458
Core_0_branch_MPKI 0.03402
Core_0_average_ROB_occupancy_at_mispredict 190.47795

Core_0_L1D_total_access 12592857
Core_0_L1D_total_hit 12371354
Core_0_L1D_total_miss 221503
Core_0_L1D_loads 7827757
Core_0_L1D_load_hit 7694771
Core_0_L1D_load_miss 132986
Core_0_L1D_RFOs 4765100
Core_0_L1D_RFO_hit 4676583
Core_0_L1D_RFO_miss 88517
Core_0_L1D_prefetches 0
Core_0_L1D_prefetch_hit 0
Core_0_L1D_prefetch_miss 0
Core_0_L1D_writebacks 0
Core_0_L1D_writeback_hit 0
Core_0_L1D_writeback_miss 0
Core_0_L1D_prefetch_requested 0
Core_0_L1D_prefetch_dropped 0
Core_0_L1D_prefetch_issued 0
Core_0_L1D_prefetch_filled 0
Core_0_L1D_prefetch_useful 0
Core_0_L1D_prefetch_useless 0
Core_0_L1D_prefetch_late 0
Core_0_L1D_average_miss_latency 147.39156

Core_0_L1D_rq_access 10185963
Core_0_L1D_rq_forward 0
Core_0_L1D_rq_merged 2264980
Core_0_L1D_rq_to_cache 7920983
Core_0_L1D_rq_full 0

Core_0_L1D_wq_access 5563751
Core_0_L1D_wq_forward 0
Core_0_L1D_wq_merged 343171
Core_0_L1D_wq_to_cache 5220580
Core_0_L1D_wq_full 0

Core_0_L1D_pq_access 0
Core_0_L1D_pq_forward 0
Core_0_L1D_pq_merged 0
Core_0_L1D_pq_to_cache 0
Core_0_L1D_pq_full 0

Core_0_L1D_acc_epochs 73679
Core_0_L1D_acc_level_0 73679
Core_0_L1D_acc_level_1 0
Core_0_L1D_acc_level_2 0
Core_0_L1D_acc_level_3 0
Core_0_L1D_acc_level_4 0
Core_0_L1D_acc_level_5 0
Core_0_L1D_acc_level_6 0
Core_0_L1D_acc_level_7 0
Core_0_L1D_acc_level_8 0
Core_0_L1D_acc_level_9 0

Core_0_L1I_total_access 19840559
Core_0_L1I_total_hit 19840382
Core_0_L1I_total_miss 177
Core_0_L1I_loads 19840559
Core_0_L1I_load_hit 19840382
Core_0_L1I_load_miss 177
Core_0_L1I_RFOs 0
Core_0_L1I_RFO_hit 0
Core_0_L1I_RFO_miss 0
Core_0_L1I_prefetches 0
Core_0_L1I_prefetch_hit 0
Core_0_L1I_prefetch_miss 0
Core_0_L1I_writebacks 0
Core_0_L1I_writeback_hit 0
Core_0_L1I_writeback_miss 0
Core_0_L1I_prefetch_requested 0
Core_0_L1I_prefetch_dropped 0
Core_0_L1I_prefetch_issued 0
Core_0_L1I_prefetch_filled 0
Core_0_L1I_prefetch_useful 0
Core_0_L1I_prefetch_useless 0
Core_0_L1I_prefetch_late 0
Core_0_L1I_average_miss_latency 126.63842

Core_0_L1I_rq_access 50000004
Core_0_L1I_rq_forward 0
Core_0_L1I_rq_merged 30159379
Core_0_L1I_rq_to_cache 19840625
Core_0_L1I_rq_full 0

Core_0_L1I_wq_access 0
Core_0_L1I_wq_forward 0
Core_0_L1I_wq_merged 0
Core_0_L1I_wq_to_cache 0
Core_0_L1I_wq_full 0

Core_0_L1I_pq_access 0
Core_0_L1I_pq_forward 0
Core_0_L1I_pq_merged 0
Core_0_L1I_pq_to_cache 0
Core_0_L1I_pq_full 0

Core_0_L1I_acc_epochs 73679
Core_0_L1I_acc_level_0 73679
Core_0_L1I_acc_level_1 0
Core_0_L1I_acc_level_2 0
Core_0_L1I_acc_level_3 0
Core_0_L1I_acc_level_4 0
Core_0_L1I_acc_level_5 0
Core_0_L1I_acc_level_6 0
Core_0_L1I_acc_level_7 0
Core_0_L1I_acc_level_8 0
Core_0_L1I_acc_level_9 0

Core_0_L2C_total_access 729202
Core_0_L2C_total_hit 500087
Core_0_L2C_total_miss 229115
Core_0_L2C_loads 133163
Core_0_L2C_load_hit 109315
Core_0_L2C_load_miss 23848
Core_0_L2C_RFOs 88517
Core_0_L2C_RFO_hit 12
Core_0_L2C_RFO_miss 88505
Core_0_L2C_prefetches 418997
Core_0_L2C_prefetch_hit 302446
Core_0_L2C_prefetch_miss 116551
Core_0_L2C_writebacks 88525
Core_0_L2C_writeback_hit 88314
Core_0_L2C_writeback_miss 211
Core_0_L2C_prefetch_requested 682275
Core_0_L2C_prefetch_dropped 0
Core_0_L2C_prefetch_issued 682275
Core_0_L2C_prefetch_filled 123831
Core_0_L2C_prefetch_useful 116281
Core_0_L2C_prefetch_useless 7481
Core_0_L2C_prefetch_late 18662
Core_0_L2C_average_miss_latency 268.35457

Core_0_L2C_rq_access 221680
Core_0_L2C_rq_forward 0
Core_0_L2C_rq_merged 0
Core_0_L2C_rq_to_cache 221680
Core_0_L2C_rq_full 0

Core_0_L2C_wq_access 88525
Core_0_L2C_wq_forward 0
Core_0_L2C_wq_merged 0
Core_0_L2C_wq_to_cache 88525
Core_0_L2C_wq_full 0

Core_0_L2C_pq_access 682275
Core_0_L2C_pq_forward 0
Core_0_L2C_pq_merged 13681
Core_0_L2C_pq_to_cache 668594
Core_0_L2C_pq_full 0

Core_0_L2C_acc_epochs 73679
Core_0_L2C_acc_level_0 13432
Core_0_L2C_acc_level_1 14082
Core_0_L2C_acc_level_2 13776
Core_0_L2C_acc_level_3 2924
Core_0_L2C_acc_level_4 394
Core_0_L2C_acc_level_5 13628
Core_0_L2C_acc_level_6 3081
Core_0_L2C_acc_level_7 1143
Core_0_L2C_acc_level_8 1691
Core_0_L2C_acc_level_9 9528

Core_0_LLC_total_access 317655
Core_0_LLC_total_hit 32882
Core_0_LLC_total_miss 284773
Core_0_LLC_loads 5186
Core_0_LLC_load_hit 28
Core_0_LLC_load_miss 5158
Core_0_LLC_RFOs 88505
Core_0_LLC_RFO_hit 1
Core_0_LLC_RFO_miss 88504
Core_0_LLC_prefetches 135213
Core_0_LLC_prefetch_hit 1396
Core_0_LLC_prefetch_miss 133817
Core_0_LLC_writebacks 88751
Core_0_LLC_writeback_hit 31457
Core_0_LLC_writeback_miss 57294
Core_0_LLC_prefetch_requested 0
Core_0_LLC_prefetch_dropped 0
Core_0_LLC_prefetch_issued 0
Core_0_LLC_prefetch_filled 141097
Core_0_LLC_prefetch_useful 0
Core_0_LLC_prefetch_useless 136060
Core_0_LLC_prefetch_late 0
Core_0_LLC_average_miss_latency 205.39077

Core_0_LLC_rq_access 93691
Core_0_LLC_rq_forward 0
Core_0_LLC_rq_merged 0
Core_0_LLC_rq_to_cache 93691
Core_0_LLC_rq_full 0

Core_0_LLC_wq_access 88751
Core_0_LLC_wq_forward 0
Core_0_LLC_wq_merged 0
Core_0_LLC_wq_to_cache 88751
Core_0_LLC_wq_full 0

Core_0_LLC_pq_access 142493
Core_0_LLC_pq_forward 0
Core_0_LLC_pq_merged 0
Core_0_LLC_pq_to_cache 142493
Core_0_LLC_pq_full 0

Core_0_LLC_acc_epochs 74119
Core_0_LLC_acc_level_0 74119
Core_0_LLC_acc_level_1 0
Core_0_LLC_acc_level_2 0
Core_0_LLC_acc_level_3 0
Core_0_LLC_acc_level_4 0
Core_0_LLC_acc_level_5 0
Core_0_LLC_acc_level_6 0
Core_0_LLC_acc_level_7 0
Core_0_LLC_acc_level_8 0
Core_0_LLC_acc_level_9 0

Core_0_major_page_fault 0
Core_0_minor_page_fault 4269

scooby_st_lookup 140347
scooby_st_hit 136668
scooby_st_evict 3615
scooby_st_insert 3679
scooby_st_streaming 0

scooby_predict_called 140347
scooby_predict_out_of_bounds 2243
scooby_predict_action_1 137851
scooby_predict_issue_action_1 137712
scooby_predict_hit_action_1 139
scooby_predict_out_of_bounds_action_1 2189
scooby_predict_action_3 61
scooby_predict_issue_action_3 59
scooby_predict_hit_action_3 2
scooby_predict_out_of_bounds_action_3 3
scooby_predict_action_4 26
scooby_predict_issue_action_4 26
scooby_predict_hit_action_4 0
scooby_predict_out_of_bounds_action_4 2
scooby_predict_action_5 14
scooby_predict_issue_action_5 14
scooby_predict_hit_action_5 0
scooby_predict_out_of_bounds_action_5 3
scooby_predict_action_10 23
scooby_predict_issue_action_10 23
scooby_predict_hit_action_10 0
scooby_predict_out_of_bounds_action_10 2
scooby_predict_action_11 19
scooby_predict_issue_action_11 19
scooby_predict_hit_action_11 0
scooby_predict_out_of_bounds_action_11 1
scooby_predict_action_12 15
scooby_predict_issue_action_12 15
scooby_predict_hit_action_12 0
scooby_predict_out_of_bounds_action_12 4
scooby_predict_action_22 11
scooby_predict_issue_action_22 11
scooby_predict_hit_action_22 0
scooby_predict_out_of_bounds_action_22 10
scooby_predict_action_23 6
scooby_predict_issue_action_23 6
scooby_predict_hit_action_23 0
scooby_predict_out_of_bounds_action_23 10
scooby_predict_action_30 11
scooby_predict_issue_action_30 11
scooby_predict_hit_action_30 0
scooby_predict_out_of_bounds_action_30 10
scooby_predict_action_32 8
scooby_predict_issue_action_32 8
scooby_predict_hit_action_32 0
scooby_predict_out_of_bounds_action_32 8
scooby_predict_action_-1 18
scooby_predict_issue_action_-1 0
scooby_predict_hit_action_-1 18
scooby_predict_out_of_bounds_action_-1 0
scooby_predict_action_-3 13
scooby_predict_issue_action_-3 1
scooby_predict_hit_action_-3 12
scooby_predict_out_of_bounds_action_-3 0
scooby_predict_action_-6 11
scooby_predict_issue_action_-6 1
scooby_predict_hit_action_-6 10
scooby_predict_out_of_bounds_action_-6 1
scooby_predict_action_0 17
scooby_predict_issue_action_0 0
scooby_predict_hit_action_0 0
scooby_predict_out_of_bounds_action_0 0
scooby_predict_multi_deg_called 126968
scooby_predict_predicted 682275
scooby_predict_multi_deg 544369
scooby_predict_multi_deg_2 124844
scooby_predict_multi_deg_3 115936
scooby_predict_multi_deg_4 113850
scooby_predict_multi_deg_5 95860
scooby_predict_multi_deg_6 93879
scooby_predict_multi_deg_7 0
scooby_predict_multi_deg_8 0
scooby_predict_multi_deg_9 0
scooby_predict_multi_deg_10 0
scooby_predict_multi_deg_11 0
scooby_predict_multi_deg_12 0
scooby_predict_multi_deg_13 0
scooby_predict_multi_deg_14 0
scooby_predict_multi_deg_15 0
scooby_predict_multi_deg_16 0

scooby_selected_deg_1 10938
scooby_selected_deg_2 6876
scooby_selected_deg_3 0
scooby_selected_deg_4 16340
scooby_selected_deg_5 0
scooby_selected_deg_6 103752
scooby_selected_deg_7 0
scooby_selected_deg_8 0
scooby_selected_deg_9 0
scooby_selected_deg_10 0
scooby_selected_deg_11 0
scooby_selected_deg_12 0
scooby_selected_deg_13 0
scooby_selected_deg_14 0
scooby_selected_deg_15 0
scooby_selected_deg_16 0

scooby_state_45e300|0|0 518,0,0,0,1,0,1,0,0,0,0,0,0,0,0,520,
scooby_state_45e304|0|0 519,0,0,0,1,0,0,0,0,0,0,0,0,0,0,520,
scooby_state_576a7b|27|1 518,0,0,0,0,0,0,0,0,0,0,0,0,0,0,518,
scooby_state_576a7b|22|1 517,0,0,0,0,0,0,0,0,0,0,0,0,0,1,518,
scooby_state_576a7b|25|1 517,0,1,0,0,0,0,0,0,0,0,0,0,0,0,518,
scooby_state_576a7b|32|1 515,0,1,0,0,1,0,0,0,0,0,1,0,0,0,518,
scooby_state_576a7b|33|1 516,0,0,0,0,0,0,0,0,0,1,0,0,0,1,518,
scooby_state_576a7b|17|1 516,0,0,0,0,0,0,0,1,0,1,0,0,0,0,518,
scooby_state_576a7b|35|1 516,0,0,0,1,0,0,1,0,0,0,0,0,0,0,518,
scooby_state_576a7b|10|1 517,0,0,0,0,1,0,0,0,0,0,0,0,0,0,518,
scooby_state_576a7b|21|1 518,0,0,0,0,0,0,0,0,0,0,0,0,0,0,518,
scooby_state_576a7b|39|1 517,0,0,0,0,0,0,0,0,0,0,0,0,1,0,518,
scooby_state_576a7b|34|1 518,0,0,0,0,0,0,0,0,0,0,0,0,0,0,518,
scooby_state_576a7b|8|1 517,0,0,0,0,0,1,0,0,0,0,0,0,0,0,518,
scooby_state_576a7b|40|1 517,0,0,0,1,0,0,0,0,0,0,0,0,0,0,518,
scooby_state_576a7b|44|1 517,0,0,0,0,0,0,1,0,0,0,0,0,0,0,518,
scooby_state_576a7b|60|1 518,0,0,0,0,0,0,0,0,0,0,0,0,0,0,518,
scooby_state_576a7b|55|1 517,0,0,0,0,0,0,1,0,0,0,0,0,0,0,518,
scooby_state_576a7b|59|1 517,0,0,0,0,0,0,1,0,0,0,0,0,0,0,518,
scooby_state_576a7b|62|1 518,0,0,0,0,0,0,0,0,0,0,0,0,0,0,518,
scooby_state_576a7b|56|1 518,0,0,0,0,0,0,0,0,0,0,0,0,0,0,518,
scooby_state_576a7b|43|1 518,0,0,0,0,0,0,0,0,0,0,0,0,0,0,518,
scooby_state_576a7b|36|1 518,0,0,0,0,0,0,0,0,0,0,0,0,0,0,518,
scooby_state_576a7b|61|1 518,0,0,0,0,0,0,0,0,0,0,0,0,0,0,518,
scooby_state_576a7b|24|1 518,0,0,0,0,0,0,0,0,0,0,0,0,0,0,518,
scooby_state_576a7b|1|1 518,0,0,0,0,0,0,0,0,0,0,0,0,0,0,518,
scooby_state_576a7b|6|1 518,0,0,0,0,0,0,0,0,0,0,0,0,0,0,518,
scooby_state_576a7b|5|1 518,0,0,0,0,0,0,0,0,0,0,0,0,0,0,518,
scooby_state_576a7b|53|1 518,0,0,0,0,0,0,0,0,0,0,0,0,0,0,518,
scooby_state_576a7b|58|1 518,0,0,0,0,0,0,0,0,0,0,0,0,0,0,518,
scooby_state_576a7b|42|1 518,0,0,0,0,0,0,0,0,0,0,0,0,0,0,518,
scooby_state_576a7b|23|1 518,0,0,0,0,0,0,0,0,0,0,0,0,0,0,518,
scooby_state_576a7b|11|1 518,0,0,0,0,0,0,0,0,0,0,0,0,0,0,518,
scooby_state_576a7b|47|1 518,0,0,0,0,0,0,0,0,0,0,0,0,0,0,518,
scooby_state_576a7b|12|1 518,0,0,0,0,0,0,0,0,0,0,0,0,0,0,518,
scooby_state_576a7b|13|1 517,0,0,0,0,0,0,0,0,1,0,0,0,0,0,518,
scooby_state_576a7b|3|1 518,0,0,0,0,0,0,0,0,0,0,0,0,0,0,518,
scooby_state_576a7b|2|1 517,0,0,0,0,0,0,0,0,0,0,1,0,0,0,518,
scooby_state_576a7b|19|1 517,0,0,0,0,0,0,0,0,0,0,1,0,0,0,518,
scooby_state_576a7b|57|1 517,0,0,0,0,0,0,0,0,0,0,0,1,0,0,518,
scooby_state_576a7b|41|1 515,0,0,1,1,0,0,0,0,0,0,1,0,0,0,518,
scooby_state_576a7b|7|1 518,0,0,0,0,0,0,0,0,0,0,0,0,0,0,518,
scooby_state_576a7b|30|1 518,0,0,0,0,0,0,0,0,0,0,0,0,0,0,518,
scooby_state_576a7b|48|1 517,0,0,0,1,0,0,0,0,0,0,0,0,0,0,518,
scooby_state_576a7b|45|1 515,1,1,0,0,0,0,0,0,1,0,0,0,0,0,518,
scooby_state_576a7b|46|1 516,0,0,0,0,0,0,0,1,0,1,0,0,0,0,518,
scooby_state_576a7b|49|1 518,0,0,0,0,0,0,0,0,0,0,0,0,0,0,518,
scooby_state_576a7b|16|1 517,0,0,0,0,0,0,0,1,0,0,0,0,0,0,518,
scooby_state_576a7b|63|1 517,0,0,0,0,0,0,1,0,0,0,0,0,0,0,518,
scooby_state_576a7b|52|1 517,0,0,0,0,0,0,0,0,1,0,0,0,0,0,518,
scooby_state_576a7b|20|1 518,0,0,0,0,0,0,0,0,0,0,0,0,0,0,518,
scooby_state_576a7b|51|1 517,0,0,0,0,0,0,0,0,1,0,0,0,0,0,518,
scooby_state_576a7b|28|1 517,0,0,0,1,0,0,0,0,0,0,0,0,0,0,518,
scooby_state_576a7b|38|1 516,0,0,0,0,0,0,1,0,1,0,0,0,0,0,518,
scooby_state_576a7b|26|1 517,1,0,0,0,0,0,0,0,0,0,0,0,0,0,518,
scooby_state_576a7b|50|1 517,0,0,0,0,0,0,0,0,1,0,0,0,0,0,518,
scooby_state_576a7b|29|1 515,0,0,0,0,0,2,0,0,0,0,0,0,0,1,518,
scooby_state_576a7b|31|1 516,1,0,0,0,0,0,1,0,0,0,0,0,0,0,518,
scooby_state_576a7b|15|1 518,0,0,0,0,0,0,0,0,0,0,0,0,0,0,518,
scooby_state_576a7b|37|1 517,0,1,0,0,0,0,0,0,0,0,0,0,0,0,518,
scooby_state_576a7b|0|0 515,1,0,0,1,0,1,0,0,0,0,0,0,0,0,518,
scooby_state_576a7b|4|1 518,0,0,0,0,0,0,0,0,0,0,0,0,0,0,518,
scooby_state_576a7b|18|1 517,1,0,0,0,0,0,0,0,0,0,0,0,0,0,518,
scooby_state_576a7b|14|1 517,0,1,0,0,0,0,0,0,0,0,0,0,0,0,518,
scooby_state_576a7b|54|1 518,0,0,0,0,0,0,0,0,0,0,0,0,0,0,518,
scooby_state_576a7b|9|1 517,0,0,0,0,0,0,0,0,0,0,0,0,0,0,517,
scooby_state_45e300|12|1 512,0,0,0,0,1,0,0,0,0,0,0,0,0,0,513,
scooby_state_45e300|37|1 509,0,0,2,0,1,0,0,0,0,0,0,0,0,0,512,
scooby_state_45e304|63|1 512,0,0,0,0,0,0,0,0,0,0,0,0,0,0,512,
scooby_state_45e300|14|1 511,0,0,0,0,0,0,0,0,0,0,0,0,1,0,512,
scooby_state_45e300|46|1 509,0,0,0,1,0,0,2,0,0,0,0,0,0,0,512,
scooby_state_45e300|3|1 511,0,0,0,0,0,0,0,1,0,0,0,0,0,0,512,
scooby_state_45e304|62|1 512,0,0,0,0,0,0,0,0,0,0,0,0,0,0,512,
scooby_state_45e300|45|1 511,0,0,0,0,0,0,1,0,0,0,0,0,0,0,512,
scooby_state_45e300|19|1 512,0,0,0,0,0,0,0,0,0,0,0,0,0,0,512,
scooby_state_45e300|13|1 510,1,0,0,0,0,0,0,0,0,0,0,0,0,1,512,
scooby_state_45e300|52|1 511,0,0,0,1,0,0,0,0,0,0,0,0,0,0,512,
scooby_state_45e300|18|1 512,0,0,0,0,0,0,0,0,0,0,0,0,0,0,512,
scooby_state_45e300|51|1 510,0,0,0,0,0,0,0,1,0,0,1,0,0,0,512,
scooby_state_45e300|24|1 509,0,0,0,0,0,0,0,0,2,0,0,1,0,0,512,
scooby_state_45e300|15|1 511,0,1,0,0,0,0,0,0,0,0,0,0,0,0,512,
scooby_state_45e300|25|1 512,0,0,0,0,0,0,0,0,0,0,0,0,0,0,512,
scooby_state_45e300|47|1 510,1,0,0,0,0,1,0,0,0,0,0,0,0,0,512,
scooby_state_45e300|48|1 512,0,0,0,0,0,0,0,0,0,0,0,0,0,0,512,
scooby_state_45e300|23|1 510,0,0,0,0,0,0,0,0,0,1,1,0,0,0,512,
scooby_state_45e300|7|1 511,0,0,0,0,1,0,0,0,0,0,0,0,0,0,512,
scooby_state_45e300|35|1 512,0,0,0,0,0,0,0,0,0,0,0,0,0,0,512,
scooby_state_45e304|1|1 512,0,0,0,0,0,0,0,0,0,0,0,0,0,0,512,
scooby_state_45e300|26|1 510,1,0,0,0,1,0,0,0,0,0,0,0,0,0,512,
scooby_state_45e300|27|1 510,0,0,0,0,1,0,0,0,0,0,0,0,0,1,512,
scooby_state_45e300|41|1 510,0,0,1,0,0,0,1,0,0,0,0,0,0,0,512,
scooby_state_45e300|59|1 509,1,1,0,0,0,1,0,0,0,0,0,0,0,0,512,
scooby_state_45e300|2|1 511,0,0,0,0,0,0,1,0,0,0,0,0,0,0,512,
scooby_state_45e304|27|1 512,0,0,0,0,0,0,0,0,0,0,0,0,0,0,512,
scooby_state_45e300|34|1 511,0,0,0,1,0,0,0,0,0,0,0,0,0,0,512,
scooby_state_45e300|62|1 511,0,0,0,0,0,0,0,0,0,0,0,1,0,0,512,
scooby_state_45e300|63|1 510,0,0,0,0,1,1,0,0,0,0,0,0,0,0,512,
scooby_state_45e300|61|1 510,0,0,0,0,0,1,1,0,0,0,0,0,0,0,512,
scooby_state_45e300|16|1 510,0,1,0,0,0,0,0,0,0,0,0,1,0,0,512,
scooby_state_45e300|60|1 512,0,0,0,0,0,0,0,0,0,0,0,0,0,0,512,
scooby_state_45e300|40|1 510,0,0,0,0,0,0,0,1,0,0,0,0,0,1,512,
scooby_state_45e300|57|1 509,0,0,0,1,0,0,0,0,0,1,0,0,0,1,512,
scooby_state_45e300|56|1 512,0,0,0,0,0,0,0,0,0,0,0,0,0,0,512,
scooby_state_45e300|55|1 512,0,0,0,0,0,0,0,0,0,0,0,0,0,0,512,
scooby_state_45e300|54|1 512,0,0,0,0,0,0,0,0,0,0,0,0,0,0,512,
scooby_state_45e300|30|1 511,0,0,0,0,0,1,0,0,0,0,0,0,0,0,512,
scooby_state_45e300|31|1 511,0,0,0,0,0,1,0,0,0,0,0,0,0,0,512,
scooby_state_45e300|20|1 511,0,0,0,0,0,0,0,0,1,0,0,0,0,0,512,
scooby_state_45e300|32|1 510,0,0,0,1,1,0,0,0,0,0,0,0,0,0,512,
scooby_state_45e300|33|1 512,0,0,0,0,0,0,0,0,0,0,0,0,0,0,512,
scooby_state_45e300|36|1 512,0,0,0,0,0,0,0,0,0,0,0,0,0,0,512,
scooby_state_45e300|49|1 512,0,0,0,0,0,0,0,0,0,0,0,0,0,0,512,
scooby_state_45e300|38|1 511,0,0,0,0,0,0,0,0,0,0,1,0,0,0,512,
scooby_state_45e300|29|1 512,0,0,0,0,0,0,0,0,0,0,0,0,0,0,512,
scooby_state_45e304|26|1 512,0,0,0,0,0,0,0,0,0,0,0,0,0,0,512,
scooby_state_45e300|17|1 512,0,0,0,0,0,0,0,0,0,0,0,0,0,0,512,
scooby_state_45e300|39|1 511,0,0,1,0,0,0,0,0,0,0,0,0,0,0,512,
scooby_state_45e300|42|1 512,0,0,0,0,0,0,0,0,0,0,0,0,0,0,512,
scooby_state_45e300|50|1 508,0,0,0,0,0,1,0,0,1,0,0,0,1,1,512,
scooby_state_45e300|43|1 512,0,0,0,0,0,0,0,0,0,0,0,0,0,0,512,
scooby_state_45e300|44|1 511,0,0,1,0,0,0,0,0,0,0,0,0,0,0,512,
scooby_state_45e300|8|1 511,0,0,0,0,0,0,1,0,0,0,0,0,0,0,512,
scooby_state_45e300|4|1 510,0,0,1,0,0,0,0,0,0,0,1,0,0,0,512,
scooby_state_45e300|28|1 510,0,0,0,1,0,0,0,0,0,0,0,0,0,1,512,
scooby_state_45e300|21|1 512,0,0,0,0,0,0,0,0,0,0,0,0,0,0,512,
scooby_state_45e300|58|1 512,0,0,0,0,0,0,0,0,0,0,0,0,0,0,512,
scooby_state_45e300|9|1 511,0,0,0,0,0,0,0,0,0,0,0,0,1,0,512,
scooby_state_45e300|10|1 512,0,0,0,0,0,0,0,0,0,0,0,0,0,0,512,
scooby_state_45e300|1|1 511,0,0,0,0,0,0,0,0,0,0,0,0,0,1,512,
scooby_state_45e300|6|1 509,1,0,0,0,0,0,0,0,1,0,1,0,0,0,512,
scooby_state_45e300|5|1 511,0,0,0,0,0,0,0,0,0,1,0,0,0,0,512,
scooby_state_45e300|11|1 510,0,0,0,0,1,0,0,0,0,0,0,1,0,0,512,
scooby_state_45e300|53|1 511,0,0,0,0,0,0,1,0,0,0,0,0,0,0,512,
scooby_state_45e300|22|1 511,0,0,0,0,0,0,0,1,0,0,0,0,0,0,512,
scooby_state_45e304|24|1 511,0,0,0,0,0,0,0,0,0,0,0,0,0,0,511,
scooby_state_45e304|20|1 511,0,0,0,0,0,0,0,0,0,0,0,0,0,0,511,
scooby_state_45e304|8|1 511,0,0,0,0,0,0,0,0,0,0,0,0,0,0,511,
scooby_state_45e304|11|1 509,2,0,0,0,0,0,0,0,0,0,0,0,0,0,511,
scooby_state_45e304|28|1 510,0,0,0,0,0,0,0,0,0,0,1,0,0,0,511,
scooby_state_45e304|12|1 510,0,1,0,0,0,0,0,0,0,0,0,0,0,0,511,
scooby_state_45e304|61|1 508,0,1,2,0,0,0,0,0,0,0,0,0,0,0,511,
scooby_state_45e304|3|1 510,0,0,0,0,0,0,0,0,0,0,0,1,0,0,511,
scooby_state_45e304|10|1 510,0,0,0,0,0,0,0,0,0,0,0,0,1,0,511,
scooby_state_45e304|37|1 511,0,0,0,0,0,0,0,0,0,0,0,0,0,0,511,
scooby_state_45e304|25|1 509,0,0,0,0,0,0,0,0,0,0,1,0,1,0,511,
scooby_state_45e304|23|1 509,0,0,0,1,0,0,0,0,0,0,0,0,0,0,510,
scooby_state_45e304|29|1 510,0,0,0,0,0,0,0,0,0,0,0,0,0,0,510,
scooby_state_45e304|53|1 510,0,0,0,0,0,0,0,0,0,0,0,0,0,0,510,
scooby_state_45e304|21|1 509,0,0,0,1,0,0,0,0,0,0,0,0,0,0,510,
scooby_state_45e304|22|1 508,0,0,0,0,0,1,0,0,0,0,0,0,0,1,510,
scooby_state_45e304|18|1 508,1,0,0,0,0,0,1,0,0,0,0,0,0,0,510,
scooby_state_45e304|47|1 508,0,0,0,0,0,0,0,1,0,0,0,0,0,1,510,
scooby_state_45e304|44|1 510,0,0,0,0,0,0,0,0,0,0,0,0,0,0,510,
scooby_state_45e304|45|1 509,0,0,0,1,0,0,0,0,0,0,0,0,0,0,510,
scooby_state_45e304|32|1 508,1,0,0,0,0,0,0,0,0,0,0,0,0,1,510,
scooby_state_45e304|34|1 509,1,0,0,0,0,0,0,0,0,0,0,0,0,0,510,
scooby_state_45e304|4|1 508,0,0,0,0,0,0,0,0,0,1,0,0,1,0,510,
scooby_state_45e304|6|1 509,0,0,0,0,0,1,0,0,0,0,0,0,0,0,510,
scooby_state_45e304|43|1 509,0,1,0,0,0,0,0,0,0,0,0,0,0,0,510,
scooby_state_45e304|7|1 509,0,0,0,0,0,0,0,1,0,0,0,0,0,0,510,
scooby_state_45e304|42|1 509,0,0,0,0,0,0,0,0,1,0,0,0,0,0,510,
scooby_state_45e304|41|1 509,0,0,0,0,0,1,0,0,0,0,0,0,0,0,510,
scooby_state_45e304|39|1 510,0,0,0,0,0,0,0,0,0,0,0,0,0,0,510,
scooby_state_45e304|49|1 509,0,0,0,0,0,0,0,0,0,0,1,0,0,0,510,
scooby_state_45e304|2|1 509,0,0,0,1,0,0,0,0,0,0,0,0,0,0,510,
scooby_state_45e304|46|1 507,1,0,0,0,0,0,0,0,0,0,0,0,0,1,509,
scooby_state_45e304|56|1 506,0,0,0,0,0,1,1,1,0,0,0,0,0,0,509,
scooby_state_45e304|40|1 509,0,0,0,0,0,0,0,0,0,0,0,0,0,0,509,
scooby_state_45e304|30|1 508,0,0,0,0,0,0,0,0,0,0,0,1,0,0,509,
scooby_state_45e304|9|1 508,0,0,0,0,1,0,0,0,0,0,0,0,0,0,509,
scooby_state_45e304|51|1 507,0,0,0,0,0,0,0,1,0,0,1,0,0,0,509,
scooby_state_45e304|13|1 509,0,0,0,0,0,0,0,0,0,0,0,0,0,0,509,
scooby_state_45e304|38|1 507,0,0,0,0,1,0,0,0,0,0,0,1,0,0,509,
scooby_state_45e304|19|1 508,0,1,0,0,0,0,0,0,0,0,0,0,0,0,509,
scooby_state_45e304|48|1 505,0,0,0,0,0,1,0,0,0,1,1,0,1,0,509,
scooby_state_45e304|5|1 509,0,0,0,0,0,0,0,0,0,0,0,0,0,0,509,
scooby_state_45e304|16|1 508,0,0,0,0,0,0,0,0,0,0,0,0,0,0,508,
scooby_state_45e304|35|1 507,0,0,0,0,0,0,0,0,0,0,1,0,0,0,508,
scooby_state_45e304|50|1 506,0,0,0,1,0,0,0,0,0,0,0,1,0,0,508,
scooby_state_45e304|15|1 506,0,0,0,0,0,0,0,0,0,0,0,1,1,0,508,
scooby_state_45e304|57|1 506,2,0,0,0,0,0,0,0,0,0,0,0,0,0,508,
scooby_state_45e304|17|1 505,0,0,0,0,1,1,0,0,0,1,0,0,0,0,508,
scooby_state_45e304|14|1 508,0,0,0,0,0,0,0,0,0,0,0,0,0,0,508,
scooby_state_45e304|60|1 506,0,0,0,0,0,0,0,1,0,0,0,0,0,0,507,
scooby_state_45e304|59|1 505,0,0,1,0,0,0,0,0,1,0,0,0,0,0,507,
scooby_state_45e304|31|1 506,0,0,0,0,0,0,0,0,1,0,0,0,0,0,507,
scooby_state_45e304|36|1 507,0,0,0,0,0,0,0,0,0,0,0,0,0,0,507,
scooby_state_45e304|58|1 507,0,0,0,0,0,0,0,0,0,0,0,0,0,0,507,
scooby_state_45e304|55|1 507,0,0,0,0,0,0,0,0,0,0,0,0,0,0,507,
scooby_state_45e304|54|1 506,0,0,1,0,0,0,0,0,0,0,0,0,0,0,507,
scooby_state_45e304|33|1 506,0,0,0,0,0,0,0,0,0,0,0,0,0,0,506,
scooby_state_45e304|52|1 505,0,0,0,0,1,0,0,0,0,0,0,0,0,0,506,
scooby_state_445440|55|1 415,0,0,0,0,0,0,0,0,0,1,0,0,0,0,416,
scooby_state_445440|57|1 415,0,0,0,0,0,0,0,0,1,0,0,0,0,0,416,
scooby_state_445440|50|1 415,0,0,0,1,0,0,0,0,0,0,0,0,0,0,416,
scooby_state_445440|60|1 416,0,0,0,0,0,0,0,0,0,0,0,0,0,0,416,
scooby_state_445440|51|1 416,0,0,0,0,0,0,0,0,0,0,0,0,0,0,416,
scooby_state_445440|56|1 416,0,0,0,0,0,0,0,0,0,0,0,0,0,0,416,
scooby_state_445440|58|1 415,0,0,0,0,0,0,0,0,0,1,0,0,0,0,416,
scooby_state_445440|52|1 415,0,0,1,0,0,0,0,0,0,0,0,0,0,0,416,
scooby_state_445440|54|1 416,0,0,0,0,0,0,0,0,0,0,0,0,0,0,416,
scooby_state_445440|53|1 414,0,1,0,0,0,0,0,0,0,0,0,1,0,0,416,
scooby_state_445440|59|1 415,0,0,0,1,0,0,0,0,0,0,0,0,0,0,416,
scooby_state_445440|42|1 415,0,0,0,0,0,0,0,0,0,0,0,0,0,0,415,
scooby_state_445440|10|1 414,0,0,0,1,0,0,0,0,0,0,0,0,0,0,415,
scooby_state_445440|44|1 414,0,0,0,0,0,0,0,0,0,0,1,0,0,0,415,
scooby_state_445440|8|1 415,0,0,0,0,0,0,0,0,0,0,0,0,0,0,415,
scooby_state_445440|47|1 415,0,0,0,0,0,0,0,0,0,0,0,0,0,0,415,
scooby_state_445440|30|1 414,0,0,0,0,0,0,0,0,1,0,0,0,0,0,415,
scooby_state_445440|21|1 415,0,0,0,0,0,0,0,0,0,0,0,0,0,0,415,
scooby_state_445440|46|1 415,0,0,0,0,0,0,0,0,0,0,0,0,0,0,415,
scooby_state_445440|18|1 415,0,0,0,0,0,0,0,0,0,0,0,0,0,0,415,
scooby_state_445440|22|1 413,0,0,1,0,0,0,1,0,0,0,0,0,0,0,415,
scooby_state_445440|24|1 415,0,0,0,0,0,0,0,0,0,0,0,0,0,0,415,
scooby_state_445440|32|1 415,0,0,0,0,0,0,0,0,0,0,0,0,0,0,415,
scooby_state_445440|43|1 415,0,0,0,0,0,0,0,0,0,0,0,0,0,0,415,
scooby_state_445440|37|1 415,0,0,0,0,0,0,0,0,0,0,0,0,0,0,415,
scooby_state_445440|27|1 415,0,0,0,0,0,0,0,0,0,0,0,0,0,0,415,
scooby_state_445440|41|1 415,0,0,0,0,0,0,0,0,0,0,0,0,0,0,415,
scooby_state_445440|17|1 415,0,0,0,0,0,0,0,0,0,0,0,0,0,0,415,
scooby_state_445440|31|1 415,0,0,0,0,0,0,0,0,0,0,0,0,0,0,415,
scooby_state_445440|1|1 414,1,0,0,0,0,0,0,0,0,0,0,0,0,0,415,
scooby_state_445440|9|1 415,0,0,0,0,0,0,0,0,0,0,0,0,0,0,415,
scooby_state_445440|3|1 415,0,0,0,0,0,0,0,0,0,0,0,0,0,0,415,
scooby_state_445440|4|1 414,0,0,0,0,0,0,0,0,0,0,0,0,0,1,415,
scooby_state_445440|16|1 413,0,0,0,0,0,0,1,0,0,0,0,0,0,1,415,
scooby_state_445440|19|1 415,0,0,0,0,0,0,0,0,0,0,0,0,0,0,415,
scooby_state_445440|12|1 412,1,0,0,0,2,0,0,0,0,0,0,0,0,0,415,
scooby_state_445440|20|1 415,0,0,0,0,0,0,0,0,0,0,0,0,0,0,415,
scooby_state_445440|45|1 413,0,0,0,0,0,0,0,1,0,0,0,0,1,0,415,
scooby_state_445440|38|1 415,0,0,0,0,0,0,0,0,0,0,0,0,0,0,415,
scooby_state_445440|23|1 413,0,0,0,0,1,0,0,0,1,0,0,0,0,0,415,
scooby_state_445440|34|1 415,0,0,0,0,0,0,0,0,0,0,0,0,0,0,415,
scooby_state_445440|40|1 414,1,0,0,0,0,0,0,0,0,0,0,0,0,0,415,
scooby_state_445440|35|1 414,0,0,0,0,0,0,0,0,1,0,0,0,0,0,415,
scooby_state_445440|28|1 415,0,0,0,0,0,0,0,0,0,0,0,0,0,0,415,
scooby_state_445440|63|1 415,0,0,0,0,0,0,0,0,0,0,0,0,0,0,415,
scooby_state_445440|13|1 414,0,0,0,0,0,0,0,0,1,0,0,0,0,0,415,
scooby_state_445440|26|1 415,0,0,0,0,0,0,0,0,0,0,0,0,0,0,415,
scooby_state_445440|0|0 414,0,0,0,0,0,0,0,0,1,0,0,0,0,0,415,
scooby_state_445440|11|1 414,0,0,0,0,0,0,0,0,0,1,0,0,0,0,415,
scooby_state_445440|61|1 415,0,0,0,0,0,0,0,0,0,0,0,0,0,0,415,
scooby_state_445440|36|1 415,0,0,0,0,0,0,0,0,0,0,0,0,0,0,415,
scooby_state_445440|29|1 414,1,0,0,0,0,0,0,0,0,0,0,0,0,0,415,
scooby_state_445440|7|1 414,0,0,0,1,0,0,0,0,0,0,0,0,0,0,415,
scooby_state_445440|6|1 415,0,0,0,0,0,0,0,0,0,0,0,0,0,0,415,
scooby_state_445440|15|1 415,0,0,0,0,0,0,0,0,0,0,0,0,0,0,415,
scooby_state_445440|39|1 415,0,0,0,0,0,0,0,0,0,0,0,0,0,0,415,
scooby_state_445440|49|1 415,0,0,0,0,0,0,0,0,0,0,0,0,0,0,415,
scooby_state_445440|25|1 415,0,0,0,0,0,0,0,0,0,0,0,0,0,0,415,
scooby_state_445440|62|1 415,0,0,0,0,0,0,0,0,0,0,0,0,0,0,415,
scooby_state_445440|48|1 413,0,0,0,0,1,0,0,1,0,0,0,0,0,0,415,
scooby_state_445440|33|1 415,0,0,0,0,0,0,0,0,0,0,0,0,0,0,415,
scooby_state_445440|2|1 415,0,0,0,0,0,0,0,0,0,0,0,0,0,0,415,
scooby_state_445440|5|1 415,0,0,0,0,0,0,0,0,0,0,0,0,0,0,415,
scooby_state_445440|14|1 414,0,0,0,0,0,0,0,0,0,0,0,0,0,0,414,
scooby_state_4453e0|45|1 240,0,0,0,0,0,0,0,0,0,0,0,0,0,0,240,
scooby_state_4453e0|48|1 238,0,0,0,0,0,0,0,0,0,1,0,1,0,0,240,
scooby_state_4453e0|49|1 239,0,0,0,0,0,0,0,0,0,0,0,0,0,0,239,
scooby_state_4453e0|47|1 238,0,0,0,0,0,0,0,1,0,0,0,0,0,0,239,
scooby_state_4453e0|46|1 239,0,0,0,0,0,0,0,0,0,0,0,0,0,0,239,
scooby_state_4453e0|44|1 239,0,0,0,0,0,0,0,0,0,0,0,0,0,0,239,
scooby_state_4453e0|50|1 238,0,0,0,0,0,0,0,0,0,0,0,0,0,0,238,
scooby_state_4453e0|43|1 238,0,0,0,0,0,0,0,0,0,0,0,0,0,0,238,
scooby_state_4453e0|42|1 236,0,0,0,0,0,0,0,0,0,0,0,0,0,0,236,
scooby_state_4453e0|51|1 235,0,1,0,0,0,0,0,0,0,0,0,0,0,0,236,
scooby_state_4453e0|52|1 233,0,0,0,0,0,0,0,0,0,0,0,0,0,0,233,
scooby_state_4453e0|41|1 233,0,0,0,0,0,0,0,0,0,0,0,0,0,0,233,
scooby_state_4453e0|53|1 230,0,0,0,0,0,0,0,0,0,0,0,0,0,0,230,
scooby_state_4453e0|40|1 229,0,0,0,0,0,0,1,0,0,0,0,0,0,0,230,
scooby_state_4453e0|39|1 228,0,0,0,0,0,0,0,0,0,0,0,0,0,0,228,
scooby_state_4453e0|54|1 228,0,0,0,0,0,0,0,0,0,0,0,0,0,0,228,
scooby_state_4453e0|38|1 225,0,0,0,0,0,0,0,0,0,0,0,0,0,0,225,
scooby_state_4453e0|55|1 225,0,0,0,0,0,0,0,0,0,0,0,0,0,0,225,
scooby_state_4453e0|56|1 222,0,0,0,0,0,0,0,0,0,0,0,0,0,0,222,
scooby_state_4453e0|37|1 222,0,0,0,0,0,0,0,0,0,0,0,0,0,0,222,
scooby_state_4453e0|36|1 220,0,0,0,0,0,0,0,0,0,0,0,0,0,0,220,
scooby_state_4453e0|57|1 220,0,0,0,0,0,0,0,0,0,0,0,0,0,0,220,
scooby_state_4453e0|35|1 216,0,0,0,0,0,0,0,0,0,0,0,1,0,0,217,
scooby_state_4453e0|58|1 216,0,0,0,0,0,0,0,1,0,0,0,0,0,0,217,
scooby_state_4453e0|34|1 213,0,0,1,0,0,0,0,0,0,0,0,0,0,0,214,
scooby_state_4453e0|59|1 214,0,0,0,0,0,0,0,0,0,0,0,0,0,0,214,
scooby_state_4453e0|60|1 212,0,0,0,0,0,0,0,0,0,0,0,0,0,0,212,
scooby_state_4453e0|33|1 210,0,0,0,0,0,1,0,0,0,1,0,0,0,0,212,
scooby_state_4453e0|61|1 209,0,0,0,0,0,0,0,0,0,0,0,0,0,0,209,
scooby_state_4453e0|32|1 208,0,1,0,0,0,0,0,0,0,0,0,0,0,0,209,
scooby_state_4453e0|31|1 206,0,0,0,0,0,0,0,0,0,0,0,0,0,0,206,
scooby_state_4453e0|62|1 206,0,0,0,0,0,0,0,0,0,0,0,0,0,0,206,
scooby_state_4453e0|0|0 206,0,0,0,0,0,0,0,0,0,0,0,0,0,0,206,
scooby_state_4453e0|30|1 203,0,0,0,0,0,0,0,0,1,0,0,0,0,0,204,
scooby_state_4453e0|63|1 204,0,0,0,0,0,0,0,0,0,0,0,0,0,0,204,
scooby_state_4453e0|29|1 201,0,0,0,0,0,0,0,0,0,0,0,0,0,0,201,
scooby_state_4453e0|28|1 198,0,0,0,0,0,0,0,0,0,0,0,0,0,0,198,
scooby_state_4453e0|1|1 198,0,0,0,0,0,0,0,0,0,0,0,0,0,0,198,
scooby_state_4453e0|27|1 195,0,0,0,0,0,0,0,0,0,0,1,0,0,0,196,
scooby_state_4453e0|2|1 196,0,0,0,0,0,0,0,0,0,0,0,0,0,0,196,
scooby_state_4453e0|3|1 193,0,0,0,0,0,0,0,0,0,0,0,0,0,0,193,
scooby_state_4453e0|26|1 192,0,0,0,0,0,0,0,0,0,0,0,0,0,1,193,
scooby_state_4453e0|4|1 190,0,0,0,0,0,0,0,0,0,0,0,0,0,0,190,
scooby_state_4453e0|25|1 190,0,0,0,0,0,0,0,0,0,0,0,0,0,0,190,
scooby_state_4453e0|24|1 188,0,0,0,0,0,0,0,0,0,0,0,0,0,0,188,
scooby_state_4453e0|5|1 187,0,0,0,0,0,0,0,0,0,1,0,0,0,0,188,
scooby_state_4453e0|23|1 185,0,0,0,0,0,0,0,0,0,0,0,0,0,0,185,
scooby_state_4453e0|6|1 185,0,0,0,0,0,0,0,0,0,0,0,0,0,0,185,
scooby_state_4453e0|22|1 182,0,0,0,0,0,0,0,0,0,0,0,0,0,0,182,
scooby_state_4453e0|7|1 182,0,0,0,0,0,0,0,0,0,0,0,0,0,0,182,
scooby_state_4453e0|8|1 178,0,0,0,1,0,0,0,0,0,1,0,0,0,0,180,
scooby_state_4453e0|21|1 180,0,0,0,0,0,0,0,0,0,0,0,0,0,0,180,
scooby_state_4453e0|9|1 177,0,0,0,0,0,0,0,0,0,0,0,0,0,0,177,
scooby_state_4453e0|20|1 174,1,0,0,1,0,0,0,0,0,0,0,0,1,0,177,
scooby_state_4453e0|19|1 174,0,0,0,0,0,0,0,0,0,0,0,0,0,0,174,
scooby_state_4453e0|10|1 174,0,0,0,0,0,0,0,0,0,0,0,0,0,0,174,
scooby_state_4453e0|18|1 172,0,0,0,0,0,0,0,0,0,0,0,0,0,0,172,
scooby_state_4453e0|11|1 172,0,0,0,0,0,0,0,0,0,0,0,0,0,0,172,
scooby_state_4453e0|12|1 171,0,0,0,0,0,0,0,0,0,0,0,0,0,0,171,
scooby_state_4453e0|15|1 170,0,0,0,0,0,0,0,0,0,0,0,0,1,0,171,
scooby_state_4453e0|17|1 171,0,0,0,0,0,0,0,0,0,0,0,0,0,0,171,
scooby_state_4453e0|14|1 170,0,0,1,0,0,0,0,0,0,0,0,0,0,0,171,
scooby_state_4453e0|16|1 169,0,0,0,0,1,0,0,0,0,0,0,0,0,0,170,
scooby_state_4453e0|13|1 169,0,0,1,0,0,0,0,0,0,0,0,0,0,0,170,
scooby_state_45e304|59|0 11,0,0,0,0,0,0,0,0,0,0,0,0,0,0,11,
scooby_state_45e304|5|0 11,0,0,0,0,0,0,0,0,0,0,0,0,0,0,11,
scooby_state_45e304|9|0 10,0,0,0,0,0,0,0,0,0,0,0,0,0,0,10,
scooby_state_45e304|46|0 10,0,0,0,0,0,0,0,0,0,0,0,0,0,0,10,
scooby_state_45e304|2|0 10,0,0,0,0,0,0,0,0,0,0,0,0,0,0,10,
scooby_state_45e304|33|0 10,0,0,0,0,0,0,0,0,0,0,0,0,0,0,10,
scooby_state_45e304|31|0 10,0,0,0,0,0,0,0,0,0,0,0,0,0,0,10,
scooby_state_45e304|58|0 9,0,0,0,0,0,0,0,0,0,0,0,0,0,0,9,
scooby_state_45e304|40|0 9,0,0,0,0,0,0,0,0,0,0,0,0,0,0,9,
scooby_state_45e304|23|0 9,0,0,0,0,0,0,0,0,0,0,0,0,0,0,9,
scooby_state_45e304|13|0 9,0,0,0,0,0,0,0,0,0,0,0,0,0,0,9,
scooby_state_45e304|36|0 9,0,0,0,0,0,0,0,0,0,0,0,0,0,0,9,
scooby_state_45e304|16|0 9,0,0,0,0,0,0,0,0,0,0,0,0,0,0,9,
scooby_state_45e304|54|0 9,0,0,0,0,0,0,0,0,0,0,0,0,0,0,9,
scooby_state_45e304|41|0 9,0,0,0,0,0,0,0,0,0,0,0,0,0,0,9,
scooby_state_45e304|15|0 9,0,0,0,0,0,0,0,0,0,0,0,0,0,0,9,
scooby_state_45e304|50|0 9,0,0,0,0,0,0,0,0,0,0,0,0,0,0,9,
scooby_state_45e300|55|0 8,0,0,0,0,0,0,0,0,0,0,0,0,0,0,8,
scooby_state_45e300|57|0 8,0,0,0,0,0,0,0,0,0,0,0,0,0,0,8,
scooby_state_45e300|1|0 8,0,0,0,0,0,0,0,0,0,0,0,0,0,0,8,
scooby_state_45e300|51|0 8,0,0,0,0,0,0,0,0,0,0,0,0,0,0,8,
scooby_state_45e304|7|0 8,0,0,0,0,0,0,0,0,0,0,0,0,0,0,8,
scooby_state_45e300|2|0 8,0,0,0,0,0,0,0,0,0,0,0,0,0,0,8,
scooby_state_45e300|7|0 8,0,0,0,0,0,0,0,0,0,0,0,0,0,0,8,
scooby_state_45e300|47|0 8,0,0,0,0,0,0,0,0,0,0,0,0,0,0,8,
scooby_state_45e304|22|0 8,0,0,0,0,0,0,0,0,0,0,0,0,0,0,8,
scooby_state_45e300|56|0 8,0,0,0,0,0,0,0,0,0,0,0,0,0,0,8,
scooby_state_45e304|21|0 8,0,0,0,0,0,0,0,0,0,0,0,0,0,0,8,
scooby_state_45e300|8|0 8,0,0,0,0,0,0,0,0,0,0,0,0,0,0,8,
scooby_state_45e300|62|0 8,0,0,0,0,0,0,0,0,0,0,0,0,0,0,8,
scooby_state_45e304|38|0 8,0,0,0,0,0,0,0,0,0,0,0,0,0,0,8,
scooby_state_4453e0|42|0 8,0,0,0,0,0,0,0,0,0,0,0,0,0,0,8,
scooby_state_45e304|37|0 8,0,0,0,0,0,0,0,0,0,0,0,0,0,0,8,
scooby_state_45e300|63|0 8,0,0,0,0,0,0,0,0,0,0,0,0,0,0,8,
scooby_state_45e300|43|0 8,0,0,0,0,0,0,0,0,0,0,0,0,0,0,8,
scooby_state_45e300|58|0 8,0,0,0,0,0,0,0,0,0,0,0,0,0,0,8,
scooby_state_45e304|43|0 8,0,0,0,0,0,0,0,0,0,0,0,0,0,0,8,
scooby_state_45e304|25|0 8,0,0,0,0,0,0,0,0,0,0,0,0,0,0,8,
scooby_state_45e300|60|0 8,0,0,0,0,0,0,0,0,0,0,0,0,0,0,8,
scooby_state_45e300|9|0 8,0,0,0,0,0,0,0,0,0,0,0,0,0,0,8,
scooby_state_45e300|44|0 8,0,0,0,0,0,0,0,0,0,0,0,0,0,0,8,
scooby_state_4453e0|24|0 8,0,0,0,0,0,0,0,0,0,0,0,0,0,0,8,
scooby_state_45e300|30|0 8,0,0,0,0,0,0,0,0,0,0,0,0,0,0,8,
scooby_state_45e304|26|0 7,0,0,0,0,0,0,1,0,0,0,0,0,0,0,8,
scooby_state_45e300|26|0 8,0,0,0,0,0,0,0,0,0,0,0,0,0,0,8,
scooby_state_45e300|34|0 8,0,0,0,0,0,0,0,0,0,0,0,0,0,0,8,
scooby_state_45e304|61|0 8,0,0,0,0,0,0,0,0,0,0,0,0,0,0,8,
scooby_state_4453e0|21|0 8,0,0,0,0,0,0,0,0,0,0,0,0,0,0,8,
scooby_state_45e300|31|0 8,0,0,0,0,0,0,0,0,0,0,0,0,0,0,8,
scooby_state_45e300|6|0 8,0,0,0,0,0,0,0,0,0,0,0,0,0,0,8,
scooby_state_45e304|62|0 8,0,0,0,0,0,0,0,0,0,0,0,0,0,0,8,
scooby_state_45e300|39|0 8,0,0,0,0,0,0,0,0,0,0,0,0,0,0,8,
scooby_state_45e304|18|0 8,0,0,0,0,0,0,0,0,0,0,0,0,0,0,8,
scooby_state_4453e0|28|0 8,0,0,0,0,0,0,0,0,0,0,0,0,0,0,8,
scooby_state_45e300|59|0 8,0,0,0,0,0,0,0,0,0,0,0,0,0,0,8,
scooby_state_45e300|61|0 8,0,0,0,0,0,0,0,0,0,0,0,0,0,0,8,
scooby_state_45e300|29|0 8,0,0,0,0,0,0,0,0,0,0,0,0,0,0,8,
scooby_state_45e304|10|0 8,0,0,0,0,0,0,0,0,0,0,0,0,0,0,8,
scooby_state_45e300|28|0 8,0,0,0,0,0,0,0,0,0,0,0,0,0,0,8,
scooby_state_4453e0|35|0 8,0,0,0,0,0,0,0,0,0,0,0,0,0,0,8,
scooby_state_45e300|36|0 8,0,0,0,0,0,0,0,0,0,0,0,0,0,0,8,
scooby_state_45e300|46|0 8,0,0,0,0,0,0,0,0,0,0,0,0,0,0,8,
scooby_state_45e300|16|0 8,0,0,0,0,0,0,0,0,0,0,0,0,0,0,8,
scooby_state_45e300|27|0 8,0,0,0,0,0,0,0,0,0,0,0,0,0,0,8,
scooby_state_45e300|49|0 8,0,0,0,0,0,0,0,0,0,0,0,0,0,0,8,
scooby_state_45e300|40|0 8,0,0,0,0,0,0,0,0,0,0,0,0,0,0,8,
scooby_state_45e304|35|0 8,0,0,0,0,0,0,0,0,0,0,0,0,0,0,8,
scooby_state_45e300|54|0 8,0,0,0,0,0,0,0,0,0,0,0,0,0,0,8,
scooby_state_45e304|52|0 8,0,0,0,0,0,0,0,0,0,0,0,0,0,0,8,
scooby_state_45e300|50|0 8,0,0,0,0,0,0,0,0,0,0,0,0,0,0,8,
scooby_state_45e304|29|0 8,0,0,0,0,0,0,0,0,0,0,0,0,0,0,8,
scooby_state_45e300|45|0 8,0,0,0,0,0,0,0,0,0,0,0,0,0,0,8,
scooby_state_4453e0|18|0 8,0,0,0,0,0,0,0,0,0,0,0,0,0,0,8,
scooby_state_45e300|13|0 8,0,0,0,0,0,0,0,0,0,0,0,0,0,0,8,
scooby_state_45e300|32|0 8,0,0,0,0,0,0,0,0,0,0,0,0,0,0,8,
scooby_state_45e300|41|0 8,0,0,0,0,0,0,0,0,0,0,0,0,0,0,8,
scooby_state_45e304|20|0 8,0,0,0,0,0,0,0,0,0,0,0,0,0,0,8,
scooby_state_4453e0|20|0 8,0,0,0,0,0,0,0,0,0,0,0,0,0,0,8,
scooby_state_4453e0|23|0 8,0,0,0,0,0,0,0,0,0,0,0,0,0,0,8,
scooby_state_45e300|11|0 8,0,0,0,0,0,0,0,0,0,0,0,0,0,0,8,
scooby_state_45e300|38|0 8,0,0,0,0,0,0,0,0,0,0,0,0,0,0,8,
scooby_state_4453e0|34|0 8,0,0,0,0,0,0,0,0,0,0,0,0,0,0,8,
scooby_state_45e300|53|0 8,0,0,0,0,0,0,0,0,0,0,0,0,0,0,8,
scooby_state_45e304|17|0 8,0,0,0,0,0,0,0,0,0,0,0,0,0,0,8,
scooby_state_45e300|37|0 8,0,0,0,0,0,0,0,0,0,0,0,0,0,0,8,
scooby_state_45e300|42|0 8,0,0,0,0,0,0,0,0,0,0,0,0,0,0,8,
scooby_state_45e304|24|0 8,0,0,0,0,0,0,0,0,0,0,0,0,0,0,8,
scooby_state_45e300|35|0 8,0,0,0,0,0,0,0,0,0,0,0,0,0,0,8,
scooby_state_4453e0|40|0 8,0,0,0,0,0,0,0,0,0,0,0,0,0,0,8,
scooby_state_45e300|24|0 8,0,0,0,0,0,0,0,0,0,0,0,0,0,0,8,
scooby_state_45e300|21|0 8,0,0,0,0,0,0,0,0,0,0,0,0,0,0,8,
scooby_state_45e300|23|0 8,0,0,0,0,0,0,0,0,0,0,0,0,0,0,8,
scooby_state_45e304|19|0 8,0,0,0,0,0,0,0,0,0,0,0,0,0,0,8,
scooby_state_45e300|20|0 8,0,0,0,0,0,0,0,0,0,0,0,0,0,0,8,
scooby_state_45e304|63|0 8,0,0,0,0,0,0,0,0,0,0,0,0,0,0,8,
scooby_state_45e300|19|0 8,0,0,0,0,0,0,0,0,0,0,0,0,0,0,8,
scooby_state_45e304|60|0 8,0,0,0,0,0,0,0,0,0,0,0,0,0,0,8,
scooby_state_45e300|25|0 8,0,0,0,0,0,0,0,0,0,0,0,0,0,0,8,
scooby_state_45e300|15|0 8,0,0,0,0,0,0,0,0,0,0,0,0,0,0,8,
scooby_state_45e300|14|0 8,0,0,0,0,0,0,0,0,0,0,0,0,0,0,8,
scooby_state_45e304|56|0 8,0,0,0,0,0,0,0,0,0,0,0,0,0,0,8,
scooby_state_45e304|55|0 8,0,0,0,0,0,0,0,0,0,0,0,0,0,0,8,
scooby_state_4453e0|41|0 8,0,0,0,0,0,0,0,0,0,0,0,0,0,0,8,
scooby_state_4453e0|22|0 8,0,0,0,0,0,0,0,0,0,0,0,0,0,0,8,
scooby_state_4453e0|32|0 8,0,0,0,0,0,0,0,0,0,0,0,0,0,0,8,
scooby_state_45e304|53|0 8,0,0,0,0,0,0,0,0,0,0,0,0,0,0,8,
scooby_state_45e300|48|0 8,0,0,0,0,0,0,0,0,0,0,0,0,0,0,8,
scooby_state_45e300|10|0 8,0,0,0,0,0,0,0,0,0,0,0,0,0,0,8,
scooby_state_45e300|52|0 8,0,0,0,0,0,0,0,0,0,0,0,0,0,0,8,
scooby_state_4453e0|33|0 8,0,0,0,0,0,0,0,0,0,0,0,0,0,0,8,
scooby_state_4453e0|19|0 8,0,0,0,0,0,0,0,0,0,0,0,0,0,0,8,
scooby_state_4453e0|37|0 8,0,0,0,0,0,0,0,0,0,0,0,0,0,0,8,
scooby_state_45e300|33|0 8,0,0,0,0,0,0,0,0,0,0,0,0,0,0,8,
scooby_state_4453e0|27|0 8,0,0,0,0,0,0,0,0,0,0,0,0,0,0,8,
scooby_state_4453e0|36|0 8,0,0,0,0,0,0,0,0,0,0,0,0,0,0,8,
scooby_state_45e300|3|0 8,0,0,0,0,0,0,0,0,0,0,0,0,0,0,8,
scooby_state_45e300|18|0 8,0,0,0,0,0,0,0,0,0,0,0,0,0,0,8,
scooby_state_4453e0|38|0 8,0,0,0,0,0,0,0,0,0,0,0,0,0,0,8,
scooby_state_4453e0|26|0 8,0,0,0,0,0,0,0,0,0,0,0,0,0,0,8,
scooby_state_45e300|5|0 8,0,0,0,0,0,0,0,0,0,0,0,0,0,0,8,
scooby_state_4453e0|31|0 8,0,0,0,0,0,0,0,0,0,0,0,0,0,0,8,
scooby_state_45e304|45|0 8,0,0,0,0,0,0,0,0,0,0,0,0,0,0,8,
scooby_state_4453e0|39|0 8,0,0,0,0,0,0,0,0,0,0,0,0,0,0,8,
scooby_state_4453e0|30|0 8,0,0,0,0,0,0,0,0,0,0,0,0,0,0,8,
scooby_state_4453e0|29|0 8,0,0,0,0,0,0,0,0,0,0,0,0,0,0,8,
scooby_state_45e300|4|0 8,0,0,0,0,0,0,0,0,0,0,0,0,0,0,8,
scooby_state_45e304|48|0 8,0,0,0,0,0,0,0,0,0,0,0,0,0,0,8,
scooby_state_45e300|17|0 8,0,0,0,0,0,0,0,0,0,0,0,0,0,0,8,
scooby_state_45e300|12|0 8,0,0,0,0,0,0,0,0,0,0,0,0,0,0,8,
scooby_state_4453e0|25|0 8,0,0,0,0,0,0,0,0,0,0,0,0,0,0,8,
scooby_state_45e300|22|0 8,0,0,0,0,0,0,0,0,0,0,0,0,0,0,8,
scooby_state_45e304|44|0 7,0,0,0,0,0,0,0,0,0,0,0,0,0,0,7,
scooby_state_45e304|12|0 7,0,0,0,0,0,0,0,0,0,0,0,0,0,0,7,
scooby_state_45e304|8|0 7,0,0,0,0,0,0,0,0,0,0,0,0,0,0,7,
scooby_state_45e304|51|0 7,0,0,0,0,0,0,0,0,0,0,0,0,0,0,7,
scooby_state_45e304|6|0 7,0,0,0,0,0,0,0,0,0,0,0,0,0,0,7,
scooby_state_45e304|49|0 7,0,0,0,0,0,0,0,0,0,0,0,0,0,0,7,
scooby_state_45e304|34|0 7,0,0,0,0,0,0,0,0,0,0,0,0,0,0,7,
scooby_state_45e304|30|0 7,0,0,0,0,0,0,0,0,0,0,0,0,0,0,7,
scooby_state_45e304|28|0 7,0,0,0,0,0,0,0,0,0,0,0,0,0,0,7,
scooby_state_45e304|27|0 7,0,0,0,0,0,0,0,0,0,0,0,0,0,0,7,
scooby_state_45e304|14|0 7,0,0,0,0,0,0,0,0,0,0,0,0,0,0,7,
scooby_state_45e304|39|0 7,0,0,0,0,0,0,0,0,0,0,0,0,0,0,7,
scooby_state_45e304|3|0 7,0,0,0,0,0,0,0,0,0,0,0,0,0,0,7,
scooby_state_45e304|42|0 7,0,0,0,0,0,0,0,0,0,0,0,0,0,0,7,
scooby_state_4453e0|10|0 6,0,0,0,0,0,0,0,0,0,0,0,0,0,0,6,
scooby_state_4453e0|62|0 6,0,0,0,0,0,0,0,0,0,0,0,0,0,0,6,
scooby_state_4453e0|47|0 6,0,0,0,0,0,0,0,0,0,0,0,0,0,0,6,
scooby_state_45e304|1|0 6,0,0,0,0,0,0,0,0,0,0,0,0,0,0,6,
scooby_state_4453e0|43|0 6,0,0,0,0,0,0,0,0,0,0,0,0,0,0,6,
scooby_state_45e304|4|0 6,0,0,0,0,0,0,0,0,0,0,0,0,0,0,6,
scooby_state_4453e0|53|0 6,0,0,0,0,0,0,0,0,0,0,0,0,0,0,6,
scooby_state_4453e0|59|0 6,0,0,0,0,0,0,0,0,0,0,0,0,0,0,6,
scooby_state_45e304|57|0 6,0,0,0,0,0,0,0,0,0,0,0,0,0,0,6,
scooby_state_4453e0|44|0 6,0,0,0,0,0,0,0,0,0,0,0,0,0,0,6,
scooby_state_4453e0|13|0 6,0,0,0,0,0,0,0,0,0,0,0,0,0,0,6,
scooby_state_4453e0|56|0 6,0,0,0,0,0,0,0,0,0,0,0,0,0,0,6,
scooby_state_4453e0|17|0 6,0,0,0,0,0,0,0,0,0,0,0,0,0,0,6,
scooby_state_4453e0|16|0 5,0,0,0,0,1,0,0,0,0,0,0,0,0,0,6,
scooby_state_4453e0|50|0 6,0,0,0,0,0,0,0,0,0,0,0,0,0,0,6,
scooby_state_45e304|11|0 6,0,0,0,0,0,0,0,0,0,0,0,0,0,0,6,
scooby_state_4453e0|1|0 6,0,0,0,0,0,0,0,0,0,0,0,0,0,0,6,
scooby_state_45e304|47|0 6,0,0,0,0,0,0,0,0,0,0,0,0,0,0,6,
scooby_state_45e304|32|0 6,0,0,0,0,0,0,0,0,0,0,0,0,0,0,6,
scooby_state_4453e0|7|0 6,0,0,0,0,0,0,0,0,0,0,0,0,0,0,6,
scooby_state_4453e0|4|0 6,0,0,0,0,0,0,0,0,0,0,0,0,0,0,6,
scooby_state_4453e0|15|0 5,0,0,0,0,0,0,0,0,0,0,0,0,0,0,5,
scooby_state_4453e0|54|0 5,0,0,0,0,0,0,0,0,0,0,0,0,0,0,5,
scooby_state_4453e0|12|0 5,0,0,0,0,0,0,0,0,0,0,0,0,0,0,5,
scooby_state_4453e0|6|0 5,0,0,0,0,0,0,0,0,0,0,0,0,0,0,5,
scooby_state_4453e0|57|0 5,0,0,0,0,0,0,0,0,0,0,0,0,0,0,5,
scooby_state_4453e0|11|0 5,0,0,0,0,0,0,0,0,0,0,0,0,0,0,5,
scooby_state_4453e0|48|0 5,0,0,0,0,0,0,0,0,0,0,0,0,0,0,5,
scooby_state_4453e0|46|0 5,0,0,0,0,0,0,0,0,0,0,0,0,0,0,5,
scooby_state_4453e0|49|0 5,0,0,0,0,0,0,0,0,0,0,0,0,0,0,5,
scooby_state_4453e0|9|0 5,0,0,0,0,0,0,0,0,0,0,0,0,0,0,5,
scooby_state_4453e0|8|0 5,0,0,0,0,0,0,0,0,0,0,0,0,0,0,5,
scooby_state_4453e0|63|0 5,0,0,0,0,0,0,0,0,0,0,0,0,0,0,5,
scooby_state_4453e0|51|0 5,0,0,0,0,0,0,0,0,0,0,0,0,0,0,5,
scooby_state_4453e0|60|0 5,0,0,0,0,0,0,0,0,0,0,0,0,0,0,5,
scooby_state_4453e0|5|0 5,0,0,0,0,0,0,0,0,0,0,0,0,0,0,5,
scooby_state_4453e0|61|0 5,0,0,0,0,0,0,0,0,0,0,0,0,0,0,5,
scooby_state_4453e0|2|0 5,0,0,0,0,0,0,0,0,0,0,0,0,0,0,5,
scooby_state_4453e0|55|0 5,0,0,0,0,0,0,0,0,0,0,0,0,0,0,5,
scooby_state_4453e0|58|0 5,0,0,0,0,0,0,0,0,0,0,0,0,0,0,5,
scooby_state_4453e0|3|0 5,0,0,0,0,0,0,0,0,0,0,0,0,0,0,5,
scooby_state_4453e0|52|0 5,0,0,0,0,0,0,0,0,0,0,0,0,0,0,5,
scooby_state_4453e0|45|0 5,0,0,0,0,0,0,0,0,0,0,0,0,0,0,5,
scooby_state_4453e0|14|0 5,0,0,0,0,0,0,0,0,0,0,0,0,0,0,5,
scooby_state_45e304|57|-2 4,0,0,0,0,0,0,0,0,0,0,0,0,0,0,4,
scooby_state_45e304|14|-2 3,0,0,0,0,0,0,0,0,0,0,0,0,0,0,3,
scooby_state_45e304|30|-2 3,0,0,0,0,0,0,0,0,0,0,0,0,0,0,3,
scooby_state_4453a8|18|-1 3,0,0,0,0,0,0,0,0,0,0,0,0,0,0,3,
scooby_state_45e304|52|-2 3,0,0,0,0,0,0,0,0,0,0,0,0,0,0,3,
scooby_state_45e304|49|-2 3,0,0,0,0,0,0,0,0,0,0,0,0,0,0,3,
scooby_state_44539f|19|0 3,0,0,0,0,0,0,0,0,0,0,0,0,0,0,3,
scooby_state_45e304|60|3 3,0,0,0,0,0,0,0,0,0,0,0,0,0,0,3,
scooby_state_45e304|33|3 3,0,0,0,0,0,0,0,0,0,0,0,0,0,0,3,
scooby_state_445407|6|-2 2,0,0,0,0,0,0,0,0,0,0,0,0,0,0,2,
scooby_state_45e304|47|-2 2,0,0,0,0,0,0,0,0,0,0,0,0,0,0,2,
scooby_state_45e304|57|3 2,0,0,0,0,0,0,0,0,0,0,0,0,0,0,2,
scooby_state_45e304|58|3 2,0,0,0,0,0,0,0,0,0,0,0,0,0,0,2,
scooby_state_45e304|36|2 2,0,0,0,0,0,0,0,0,0,0,0,0,0,0,2,
scooby_state_45e304|54|-2 2,0,0,0,0,0,0,0,0,0,0,0,0,0,0,2,
scooby_state_45e304|35|-2 2,0,0,0,0,0,0,0,0,0,0,0,0,0,0,2,
scooby_state_45e304|38|3 2,0,0,0,0,0,0,0,0,0,0,0,0,0,0,2,
scooby_state_45e304|31|3 2,0,0,0,0,0,0,0,0,0,0,0,0,0,0,2,
scooby_state_530bea|56|0 2,0,0,0,0,0,0,0,0,0,0,0,0,0,0,2,
scooby_state_45e304|13|-2 2,0,0,0,0,0,0,0,0,0,0,0,0,0,0,2,
scooby_state_45e304|4|-2 2,0,0,0,0,0,0,0,0,0,0,0,0,0,0,2,
scooby_state_45e304|54|3 2,0,0,0,0,0,0,0,0,0,0,0,0,0,0,2,
scooby_state_45e304|52|2 2,0,0,0,0,0,0,0,0,0,0,0,0,0,0,2,
scooby_state_45e304|59|3 2,0,0,0,0,0,0,0,0,0,0,0,0,0,0,2,
scooby_state_45e304|47|3 2,0,0,0,0,0,0,0,0,0,0,0,0,0,0,2,
scooby_state_45e304|12|-2 2,0,0,0,0,0,0,0,0,0,0,0,0,0,0,2,
scooby_state_44549f|32|-17 2,0,0,0,0,0,0,0,0,0,0,0,0,0,0,2,
scooby_state_50901a|49|0 1,1,0,0,0,0,0,0,0,0,0,0,0,0,0,2,
scooby_state_45e304|11|-2 2,0,0,0,0,0,0,0,0,0,0,0,0,0,0,2,
scooby_state_45e304|55|-2 2,0,0,0,0,0,0,0,0,0,0,0,0,0,0,2,
scooby_state_530bf6|51|1 1,0,1,0,0,0,0,0,0,0,0,0,0,0,0,2,
scooby_state_45e304|51|-2 2,0,0,0,0,0,0,0,0,0,0,0,0,0,0,2,
scooby_state_45e304|55|2 2,0,0,0,0,0,0,0,0,0,0,0,0,0,0,2,
scooby_state_45e304|28|-2 2,0,0,0,0,0,0,0,0,0,0,0,0,0,0,2,
scooby_state_45e304|34|-1 2,0,0,0,0,0,0,0,0,0,0,0,0,0,0,2,
scooby_state_4453f8|8|-1 1,1,0,0,0,0,0,0,0,0,0,0,0,0,0,2,
scooby_state_45e304|15|3 2,0,0,0,0,0,0,0,0,0,0,0,0,0,0,2,
scooby_state_45e304|29|-2 2,0,0,0,0,0,0,0,0,0,0,0,0,0,0,2,
scooby_state_45e304|56|-2 2,0,0,0,0,0,0,0,0,0,0,0,0,0,0,2,
scooby_state_45e304|32|3 2,0,0,0,0,0,0,0,0,0,0,0,0,0,0,2,
scooby_state_45e304|60|2 2,0,0,0,0,0,0,0,0,0,0,0,0,0,0,2,
scooby_state_45e304|35|3 2,0,0,0,0,0,0,0,0,0,0,0,0,0,0,2,
scooby_state_45e304|50|3 2,0,0,0,0,0,0,0,0,0,0,0,0,0,0,2,
scooby_state_4453b5|25|0 2,0,0,0,0,0,0,0,0,0,0,0,0,0,0,2,
scooby_state_45e304|32|-2 2,0,0,0,0,0,0,0,0,0,0,0,0,0,0,2,
scooby_state_45e304|39|-2 2,0,0,0,0,0,0,0,0,0,0,0,0,0,0,2,
scooby_state_45e304|17|3 2,0,0,0,0,0,0,0,0,0,0,0,0,0,0,2,
scooby_state_45e304|42|3 2,0,0,0,0,0,0,0,0,0,0,0,0,0,0,2,
scooby_state_45e304|16|3 2,0,0,0,0,0,0,0,0,0,0,0,0,0,0,2,
scooby_state_45e304|7|3 2,0,0,0,0,0,0,0,0,0,0,0,0,0,0,2,
scooby_state_561002|0|0 1,0,0,0,0,0,0,0,0,0,0,0,0,0,0,1,
scooby_state_530ca3|17|0 0,0,1,0,0,0,0,0,0,0,0,0,0,0,0,1,
scooby_state_530be2|50|0 1,0,0,0,0,0,0,0,0,0,0,0,0,0,0,1,
scooby_state_50d2c0|11|7 0,1,0,0,0,0,0,0,0,0,0,0,0,0,0,1,
scooby_state_50cb81|46|1 0,1,0,0,0,0,0,0,0,0,0,0,0,0,0,1,
scooby_state_50b653|62|1 0,0,1,0,0,0,0,0,0,0,0,0,0,0,0,1,
scooby_state_44544f|63|1 1,0,0,0,0,0,0,0,0,0,0,0,0,0,0,1,
scooby_state_50cc01|48|1 1,0,0,0,0,0,0,0,0,0,0,0,0,0,0,1,
scooby_state_50cc82|50|1 1,0,0,0,0,0,0,0,0,0,0,0,0,0,0,1,
scooby_state_560d81|54|1 1,0,0,0,0,0,0,0,0,0,0,0,0,0,0,1,
scooby_state_560dae|2|0 1,0,0,0,0,0,0,0,0,0,0,0,0,0,0,1,
scooby_state_50cfc0|63|1 1,0,0,0,0,0,0,0,0,0,0,0,0,0,0,1,
scooby_state_530d36|29|0 1,0,0,0,0,0,0,0,0,0,0,0,0,0,0,1,
scooby_state_560e29|56|2 1,0,0,0,0,0,0,0,0,0,0,0,0,0,0,1,
scooby_state_561043|1|-15 1,0,0,0,0,0,0,0,0,0,0,0,0,0,0,1,
scooby_state_44546a|60|1 1,0,0,0,0,0,0,0,0,0,0,0,0,0,0,1,
scooby_state_50ccc1|51|1 1,0,0,0,0,0,0,0,0,0,0,0,0,0,0,1,
scooby_state_535090|2|0 1,0,0,0,0,0,0,0,0,0,0,0,0,0,0,1,
scooby_state_50cde9|55|1 1,0,0,0,0,0,0,0,0,0,0,0,0,0,0,1,
scooby_state_50ce01|56|1 1,0,0,0,0,0,0,0,0,0,0,0,0,0,0,1,
scooby_state_4451c2|7|1 1,0,0,0,0,0,0,0,0,0,0,0,0,0,0,1,
scooby_state_576950|37|-3 1,0,0,0,0,0,0,0,0,0,0,0,0,0,0,1,
scooby_state_530ca3|19|-23 1,0,0,0,0,0,0,0,0,0,0,0,0,0,0,1,
scooby_state_561080|2|2 0,1,0,0,0,0,0,0,0,0,0,0,0,0,0,1,
scooby_state_561203|8|1 1,0,0,0,0,0,0,0,0,0,0,0,0,0,0,1,
scooby_state_50bff0|63|3 1,0,0,0,0,0,0,0,0,0,0,0,0,0,0,1,
scooby_state_445302|12|1 1,0,0,0,0,0,0,0,0,0,0,0,0,0,0,1,
scooby_state_535103|4|1 1,0,0,0,0,0,0,0,0,0,0,0,0,0,0,1,
scooby_state_530ca3|15|-42 1,0,0,0,0,0,0,0,0,0,0,0,0,0,0,1,
scooby_state_45e304|44|2 1,0,0,0,0,0,0,0,0,0,0,0,0,0,0,1,
scooby_state_50be4d|57|1 1,0,0,0,0,0,0,0,0,0,0,0,0,0,0,1,
scooby_state_44527a|42|-1 1,0,0,0,0,0,0,0,0,0,0,0,0,0,0,1,
scooby_state_530ca3|36|-22 1,0,0,0,0,0,0,0,0,0,0,0,0,0,0,1,
scooby_state_530ca3|56|42 0,0,1,0,0,0,0,0,0,0,0,0,0,0,0,1,
scooby_state_4003f0|0|-6 1,0,0,0,0,0,0,0,0,0,0,0,0,0,0,1,
scooby_state_50be81|58|1 1,0,0,0,0,0,0,0,0,0,0,0,0,0,0,1,
scooby_state_50bec3|59|1 1,0,0,0,0,0,0,0,0,0,0,0,0,0,0,1,
scooby_state_535142|5|1 0,1,0,0,0,0,0,0,0,0,0,0,0,0,0,1,
scooby_state_530ca3|21|0 0,1,0,0,0,0,0,0,0,0,0,0,0,0,0,1,
scooby_state_445282|10|1 1,0,0,0,0,0,0,0,0,0,0,0,0,0,0,1,
scooby_state_4452bb|10|0 1,0,0,0,0,0,0,0,0,0,0,0,0,0,0,1,
scooby_state_50c201|8|1 1,0,0,0,0,0,0,0,0,0,0,0,0,0,0,1,
scooby_state_50b840|33|-30 1,0,0,0,0,0,0,0,0,0,0,0,0,0,0,1,
scooby_state_50b883|34|1 1,0,0,0,0,0,0,0,0,0,0,0,0,0,0,1,
scooby_state_530ca3|22|10 0,0,1,0,0,0,0,0,0,0,0,0,0,0,0,1,
scooby_state_530ca3|31|2 1,0,0,0,0,0,0,0,0,0,0,0,0,0,0,1,
scooby_state_530ccd|35|0 1,0,0,0,0,0,0,0,0,0,0,0,0,0,0,1,
scooby_state_530ca3|6|-16 0,0,1,0,0,0,0,0,0,0,0,0,0,0,0,1,
scooby_state_530ca3|57|-1 1,0,0,0,0,0,0,0,0,0,0,0,0,0,0,1,
scooby_state_44546a|17|1 1,0,0,0,0,0,0,0,0,0,0,0,0,0,0,1,
scooby_state_50c443|17|1 1,0,0,0,0,0,0,0,0,0,0,0,0,0,0,1,
scooby_state_50c901|36|1 1,0,0,0,0,0,0,0,0,0,0,0,0,0,0,1,
scooby_state_44544f|25|1 1,0,0,0,0,0,0,0,0,0,0,0,0,0,0,1,
scooby_state_560fdf|28|0 1,0,0,0,0,0,0,0,0,0,0,0,0,0,0,1,
scooby_state_44546a|4|1 1,0,0,0,0,0,0,0,0,0,0,0,0,0,0,1,
scooby_state_560fbe|60|2 1,0,0,0,0,0,0,0,0,0,0,0,0,0,0,1,
scooby_state_56103f|27|-1 1,0,0,0,0,0,0,0,0,0,0,0,0,0,0,1,
scooby_state_561580|22|1 1,0,0,0,0,0,0,0,0,0,0,0,0,0,0,1,
scooby_state_530c91|42|14 1,0,0,0,0,0,0,0,0,0,0,0,0,0,0,1,
scooby_state_50b642|25|1 1,0,0,0,0,0,0,0,0,0,0,0,0,0,0,1,
scooby_state_50cf95|62|6 1,0,0,0,0,0,0,0,0,0,0,0,0,0,0,1,
scooby_state_5615e0|23|1 1,0,0,0,0,0,0,0,0,0,0,0,0,0,0,1,
scooby_state_50b680|26|1 1,0,0,0,0,0,0,0,0,0,0,0,0,0,0,1,
scooby_state_50c713|28|-2 1,0,0,0,0,0,0,0,0,0,0,0,0,0,0,1,
scooby_state_530ca3|58|-1 1,0,0,0,0,0,0,0,0,0,0,0,0,0,0,1,
scooby_state_44529b|53|-1 1,0,0,0,0,0,0,0,0,0,0,0,0,0,0,1,
scooby_state_445247|9|1 0,0,0,0,0,0,0,0,0,0,0,1,0,0,0,1,
scooby_state_50d202|8|3 1,0,0,0,0,0,0,0,0,0,0,0,0,0,0,1,
scooby_state_50be0f|56|27 1,0,0,0,0,0,0,0,0,0,0,0,0,0,0,1,
scooby_state_53d803|32|1 1,0,0,0,0,0,0,0,0,0,0,0,0,0,0,1,
scooby_state_50c841|33|1 1,0,0,0,0,0,0,0,0,0,0,0,0,0,0,1,
scooby_state_4451ec|16|0 1,0,0,0,0,0,0,0,0,0,0,0,0,0,0,1,
scooby_state_50c880|34|1 1,0,0,0,0,0,0,0,0,0,0,0,0,0,0,1,
scooby_state_50bc00|48|16 1,0,0,0,0,0,0,0,0,0,0,0,0,0,0,1,
scooby_state_530ccd|40|5 1,0,0,0,0,0,0,0,0,0,0,0,0,0,0,1,
scooby_state_44546a|31|1 1,0,0,0,0,0,0,0,0,0,0,0,0,0,0,1,
scooby_state_530ccd|2|0 1,0,0,0,0,0,0,0,0,0,0,0,0,0,0,1,
scooby_state_45e304|19|-2 1,0,0,0,0,0,0,0,0,0,0,0,0,0,0,1,
scooby_state_45e346|13|0 1,0,0,0,0,0,0,0,0,0,0,0,0,0,0,1,
scooby_state_50c980|38|1 1,0,0,0,0,0,0,0,0,0,0,0,0,0,0,1,
scooby_state_50c67e|25|2 1,0,0,0,0,0,0,0,0,0,0,0,0,0,0,1,
scooby_state_56ad10|52|0 0,1,0,0,0,0,0,0,0,0,0,0,0,0,0,1,
scooby_state_56139c|14|4 1,0,0,0,0,0,0,0,0,0,0,0,0,0,0,1,
scooby_state_55faab|13|0 1,0,0,0,0,0,0,0,0,0,0,0,0,0,0,1,
scooby_state_50c540|21|1 1,0,0,0,0,0,0,0,0,0,0,0,0,0,0,1,
scooby_state_445494|7|1 1,0,0,0,0,0,0,0,0,0,0,0,0,0,0,1,
scooby_state_50c750|29|2 1,0,0,0,0,0,0,0,0,0,0,0,0,0,0,1,
scooby_state_50b6c2|27|1 1,0,0,0,0,0,0,0,0,0,0,0,0,0,0,1,
scooby_state_45e304|8|-2 1,0,0,0,0,0,0,0,0,0,0,0,0,0,0,1,
scooby_state_45e304|11|3 1,0,0,0,0,0,0,0,0,0,0,0,0,0,0,1,
scooby_state_45e304|18|-2 1,0,0,0,0,0,0,0,0,0,0,0,0,0,0,1,
scooby_state_530cb4|58|23 1,0,0,0,0,0,0,0,0,0,0,0,0,0,0,1,
scooby_state_445494|10|0 1,0,0,0,0,0,0,0,0,0,0,0,0,0,0,1,
scooby_state_45e304|30|3 1,0,0,0,0,0,0,0,0,0,0,0,0,0,0,1,
scooby_state_45e304|48|-2 1,0,0,0,0,0,0,0,0,0,0,0,0,0,0,1,
scooby_state_45e304|34|2 1,0,0,0,0,0,0,0,0,0,0,0,0,0,0,1,
scooby_state_562f09|60|1 0,1,0,0,0,0,0,0,0,0,0,0,0,0,0,1,
scooby_state_50bbd1|41|0 1,0,0,0,0,0,0,0,0,0,0,0,0,0,0,1,
scooby_state_5350c7|14|0 1,0,0,0,0,0,0,0,0,0,0,0,0,0,0,1,
scooby_state_45e304|51|3 1,0,0,0,0,0,0,0,0,0,0,0,0,0,0,1,
scooby_state_44546a|43|1 1,0,0,0,0,0,0,0,0,0,0,0,0,0,0,1,
scooby_state_530c83|50|1 1,0,0,0,0,0,0,0,0,0,0,0,0,0,0,1,
scooby_state_45e304|38|-2 1,0,0,0,0,0,0,0,0,0,0,0,0,0,0,1,
scooby_state_50ba39|40|4 1,0,0,0,0,0,0,0,0,0,0,0,0,0,0,1,
scooby_state_45e304|14|2 1,0,0,0,0,0,0,0,0,0,0,0,0,0,0,1,
scooby_state_45e304|17|2 1,0,0,0,0,0,0,0,0,0,0,0,0,0,0,1,
scooby_state_44544f|40|1 1,0,0,0,0,0,0,0,0,0,0,0,0,0,0,1,
scooby_state_50c481|18|-10 1,0,0,0,0,0,0,0,0,0,0,0,0,0,0,1,
scooby_state_50baed|3|0 1,0,0,0,0,0,0,0,0,0,0,0,0,0,0,1,
scooby_state_45e304|23|3 1,0,0,0,0,0,0,0,0,0,0,0,0,0,0,1,
scooby_state_45e304|55|3 1,0,0,0,0,0,0,0,0,0,0,0,0,0,0,1,
scooby_state_45e304|46|3 1,0,0,0,0,0,0,0,0,0,0,0,0,0,0,1,
scooby_state_530ca3|12|-24 0,0,1,0,0,0,0,0,0,0,0,0,0,0,0,1,
scooby_state_45e304|43|-2 1,0,0,0,0,0,0,0,0,0,0,0,0,0,0,1,
scooby_state_445401|16|1 1,0,0,0,0,0,0,0,0,0,0,0,0,0,0,1,
scooby_state_45e200|8|-9 1,0,0,0,0,0,0,0,0,0,0,0,0,0,0,1,
scooby_state_530ccd|63|46 1,0,0,0,0,0,0,0,0,0,0,0,0,0,0,1,
scooby_state_45e304|43|3 1,0,0,0,0,0,0,0,0,0,0,0,0,0,0,1,
scooby_state_45e304|40|-2 1,0,0,0,0,0,0,0,0,0,0,0,0,0,0,1,
scooby_state_45e304|48|3 1,0,0,0,0,0,0,0,0,0,0,0,0,0,0,1,
scooby_state_530be2|50|48 1,0,0,0,0,0,0,0,0,0,0,0,0,0,0,1,
scooby_state_561281|10|1 1,0,0,0,0,0,0,0,0,0,0,0,0,0,0,1,
scooby_state_530bc1|47|1 1,0,0,0,0,0,0,0,0,0,0,0,0,0,0,1,
scooby_state_445206|8|1 1,0,0,0,0,0,0,0,0,0,0,0,0,0,0,1,
scooby_state_45e304|3|-2 1,0,0,0,0,0,0,0,0,0,0,0,0,0,0,1,
scooby_state_5350c2|3|1 1,0,0,0,0,0,0,0,0,0,0,0,0,0,0,1,
scooby_state_45e304|56|3 1,0,0,0,0,0,0,0,0,0,0,0,0,0,0,1,
scooby_state_50cd01|52|1 1,0,0,0,0,0,0,0,0,0,0,0,0,0,0,1,
scooby_state_562ef4|25|0 1,0,0,0,0,0,0,0,0,0,0,0,0,0,0,1,
scooby_state_45e304|31|-2 1,0,0,0,0,0,0,0,0,0,0,0,0,0,0,1,
scooby_state_561128|4|2 1,0,0,0,0,0,0,0,0,0,0,0,0,0,0,1,
scooby_state_5769e0|39|1 1,0,0,0,0,0,0,0,0,0,0,0,0,0,0,1,
scooby_state_50b601|24|1 1,0,0,0,0,0,0,0,0,0,0,0,0,0,0,1,
scooby_state_45e304|58|-2 1,0,0,0,0,0,0,0,0,0,0,0,0,0,0,1,
scooby_state_50bb04|49|0 1,0,0,0,0,0,0,0,0,0,0,0,0,0,0,1,
scooby_state_45e3c1|15|0 1,0,0,0,0,0,0,0,0,0,0,0,0,0,0,1,
scooby_state_50c5e9|23|1 1,0,0,0,0,0,0,0,0,0,0,0,0,0,0,1,
scooby_state_45e304|36|3 1,0,0,0,0,0,0,0,0,0,0,0,0,0,0,1,
scooby_state_530cc1|51|1 1,0,0,0,0,0,0,0,0,0,0,0,0,0,0,1,
scooby_state_45e304|50|2 1,0,0,0,0,0,0,0,0,0,0,0,0,0,0,1,
scooby_state_45e304|42|-1 1,0,0,0,0,0,0,0,0,0,0,0,0,0,0,1,
scooby_state_44544f|46|1 1,0,0,0,0,0,0,0,0,0,0,0,0,0,0,1,
scooby_state_53d782|30|1 1,0,0,0,0,0,0,0,0,0,0,0,0,0,0,1,
scooby_state_50bc50|49|1 0,1,0,0,0,0,0,0,0,0,0,0,0,0,0,1,
scooby_state_530d45|53|1 1,0,0,0,0,0,0,0,0,0,0,0,0,0,0,1,
scooby_state_45e304|52|3 1,0,0,0,0,0,0,0,0,0,0,0,0,0,0,1,
scooby_state_45e304|17|-1 1,0,0,0,0,0,0,0,0,0,0,0,0,0,0,1,
scooby_state_445494|27|1 1,0,0,0,0,0,0,0,0,0,0,0,0,0,0,1,
scooby_state_45e304|19|2 1,0,0,0,0,0,0,0,0,0,0,0,0,0,0,1,
scooby_state_50bc90|50|1 1,0,0,0,0,0,0,0,0,0,0,0,0,0,0,1,
scooby_state_50bcce|51|1 1,0,0,0,0,0,0,0,0,0,0,0,0,0,0,1,
scooby_state_50b5e0|23|-28 1,0,0,0,0,0,0,0,0,0,0,0,0,0,0,1,
scooby_state_50b75c|29|1 0,1,0,0,0,0,0,0,0,0,0,0,0,0,0,1,
scooby_state_45e304|48|-1 1,0,0,0,0,0,0,0,0,0,0,0,0,0,0,1,
scooby_state_45e304|40|3 1,0,0,0,0,0,0,0,0,0,0,0,0,0,0,1,
scooby_state_50c581|22|1 1,0,0,0,0,0,0,0,0,0,0,0,0,0,0,1,
scooby_state_57a2f0|11|0 1,0,0,0,0,0,0,0,0,0,0,0,0,0,0,1,
scooby_state_44546a|20|1 1,0,0,0,0,0,0,0,0,0,0,0,0,0,0,1,
scooby_state_45e394|44|-15 1,0,0,0,0,0,0,0,0,0,0,0,0,0,0,1,
scooby_state_57a306|12|1 1,0,0,0,0,0,0,0,0,0,0,0,0,0,0,1,
scooby_state_45e387|14|1 1,0,0,0,0,0,0,0,0,0,0,0,0,0,0,1,
scooby_state_576a01|40|0 1,0,0,0,0,0,0,0,0,0,0,0,0,0,0,1,
scooby_state_445182|6|1 1,0,0,0,0,0,0,0,0,0,0,0,0,0,0,1,
scooby_state_57bc90|50|0 1,0,0,0,0,0,0,0,0,0,0,0,0,0,0,1,
scooby_state_50bbc0|47|4 1,0,0,0,0,0,0,0,0,0,0,0,0,0,0,1,
scooby_state_562ec0|59|0 1,0,0,0,0,0,0,0,0,0,0,0,0,0,0,1,
scooby_state_50ca80|42|1 1,0,0,0,0,0,0,0,0,0,0,0,0,0,0,1,
scooby_state_445182|11|6 1,0,0,0,0,0,0,0,0,0,0,0,0,0,0,1,
scooby_state_44544f|6|1 1,0,0,0,0,0,0,0,0,0,0,0,0,0,0,1,
scooby_state_44544f|57|1 1,0,0,0,0,0,0,0,0,0,0,0,0,0,0,1,
scooby_state_45e304|44|-2 1,0,0,0,0,0,0,0,0,0,0,0,0,0,0,1,
scooby_state_530ca3|43|0 0,0,1,0,0,0,0,0,0,0,0,0,0,0,0,1,
scooby_state_44544f|53|1 1,0,0,0,0,0,0,0,0,0,0,0,0,0,0,1,
scooby_state_44544f|62|1 1,0,0,0,0,0,0,0,0,0,0,0,0,0,0,1,
scooby_state_50c682|26|1 0,1,0,0,0,0,0,0,0,0,0,0,0,0,0,1,
scooby_state_45e304|58|-1 1,0,0,0,0,0,0,0,0,0,0,0,0,0,0,1,
scooby_state_53d663|60|0 1,0,0,0,0,0,0,0,0,0,0,0,0,0,0,1,
scooby_state_561541|21|1 0,1,0,0,0,0,0,0,0,0,0,0,0,0,0,1,
scooby_state_50cd2a|53|4 0,1,0,0,0,0,0,0,0,0,0,0,0,0,0,1,
scooby_state_45e304|4|3 1,0,0,0,0,0,0,0,0,0,0,0,0,0,0,1,
scooby_state_44544f|39|1 1,0,0,0,0,0,0,0,0,0,0,0,0,0,0,1,
scooby_state_53d66a|58|-2 1,0,0,0,0,0,0,0,0,0,0,0,0,0,0,1,
scooby_state_50bb40|45|1 1,0,0,0,0,0,0,0,0,0,0,0,0,0,0,1,
scooby_state_560d70|53|0 1,0,0,0,0,0,0,0,0,0,0,0,0,0,0,1,
scooby_state_45e304|22|3 1,0,0,0,0,0,0,0,0,0,0,0,0,0,0,1,
scooby_state_45e304|22|-2 1,0,0,0,0,0,0,0,0,0,0,0,0,0,0,1,
scooby_state_445494|39|1 1,0,0,0,0,0,0,0,0,0,0,0,0,0,0,1,
scooby_state_53d880|34|8 1,0,0,0,0,0,0,0,0,0,0,0,0,0,0,1,
scooby_state_50c4c0|19|1 1,0,0,0,0,0,0,0,0,0,0,0,0,0,0,1,
scooby_state_45e304|1|-1 1,0,0,0,0,0,0,0,0,0,0,0,0,0,0,1,
scooby_state_56203d|0|-60 1,0,0,0,0,0,0,0,0,0,0,0,0,0,0,1,
scooby_state_50c8c3|35|1 0,1,0,0,0,0,0,0,0,0,0,0,0,0,0,1,
scooby_state_45e304|24|3 1,0,0,0,0,0,0,0,0,0,0,0,0,0,0,1,
scooby_state_535181|6|1 1,0,0,0,0,0,0,0,0,0,0,0,0,0,0,1,
scooby_state_45e304|18|3 1,0,0,0,0,0,0,0,0,0,0,0,0,0,0,1,
scooby_state_50c503|20|1 0,1,0,0,0,0,0,0,0,0,0,0,0,0,0,1,
scooby_state_45e304|21|-2 1,0,0,0,0,0,0,0,0,0,0,0,0,0,0,1,
scooby_state_44544f|26|1 1,0,0,0,0,0,0,0,0,0,0,0,0,0,0,1,
scooby_state_45e304|27|-2 1,0,0,0,0,0,0,0,0,0,0,0,0,0,0,1,
scooby_state_44544f|36|1 1,0,0,0,0,0,0,0,0,0,0,0,0,0,0,1,
scooby_state_50d126|4|0 1,0,0,0,0,0,0,0,0,0,0,0,0,0,0,1,
scooby_state_50c6c3|27|1 1,0,0,0,0,0,0,0,0,0,0,0,0,0,0,1,
scooby_state_445494|31|1 1,0,0,0,0,0,0,0,0,0,0,0,0,0,0,1,
scooby_state_50bc13|61|5 1,0,0,0,0,0,0,0,0,0,0,0,0,0,0,1,
scooby_state_44546a|32|1 1,0,0,0,0,0,0,0,0,0,0,0,0,0,0,1,
scooby_state_50bb04|44|-3 1,0,0,0,0,0,0,0,0,0,0,0,0,0,0,1,
scooby_state_50c400|16|0 1,0,0,0,0,0,0,0,0,0,0,0,0,0,0,1,
scooby_state_44544f|30|1 1,0,0,0,0,0,0,0,0,0,0,0,0,0,0,1,
scooby_state_45e208|56|-6 1,0,0,0,0,0,0,0,0,0,0,0,0,0,0,1,
scooby_state_50c600|24|-5 1,0,0,0,0,0,0,0,0,0,0,0,0,0,0,1,
scooby_state_44544f|58|1 1,0,0,0,0,0,0,0,0,0,0,0,0,0,0,1,
scooby_state_445494|6|1 1,0,0,0,0,0,0,0,0,0,0,0,0,0,0,1,
scooby_state_44546a|27|1 1,0,0,0,0,0,0,0,0,0,0,0,0,0,0,1,
scooby_state_45e304|25|3 1,0,0,0,0,0,0,0,0,0,0,0,0,0,0,1,
scooby_state_56ad41|53|-3 0,1,0,0,0,0,0,0,0,0,0,0,0,0,0,1,
scooby_state_44546a|30|1 1,0,0,0,0,0,0,0,0,0,0,0,0,0,0,1,
scooby_state_44544f|60|1 1,0,0,0,0,0,0,0,0,0,0,0,0,0,0,1,
scooby_state_530ccd|55|14 1,0,0,0,0,0,0,0,0,0,0,0,0,0,0,1,
scooby_state_44521b|44|0 1,0,0,0,0,0,0,0,0,0,0,0,0,0,0,1,
scooby_state_50c1c9|7|5 1,0,0,0,0,0,0,0,0,0,0,0,0,0,0,1,
scooby_state_44546a|26|1 1,0,0,0,0,0,0,0,0,0,0,0,0,0,0,1,
scooby_state_44546a|50|1 1,0,0,0,0,0,0,0,0,0,0,0,0,0,0,1,
scooby_state_561642|25|1 1,0,0,0,0,0,0,0,0,0,0,0,0,0,0,1,
scooby_state_44546a|34|1 1,0,0,0,0,0,0,0,0,0,0,0,0,0,0,1,
scooby_state_445390|14|-6 1,0,0,0,0,0,0,0,0,0,0,0,0,0,0,1,
scooby_state_530ca3|55|1 0,1,0,0,0,0,0,0,0,0,0,0,0,0,0,1,
scooby_state_4454e7|31|-1 1,0,0,0,0,0,0,0,0,0,0,0,0,0,0,1,
scooby_state_55fabf|60|1 1,0,0,0,0,0,0,0,0,0,0,0,0,0,0,1,
scooby_state_445504|20|3 1,0,0,0,0,0,0,0,0,0,0,0,0,0,0,1,
scooby_state_44546a|8|1 1,0,0,0,0,0,0,0,0,0,0,0,0,0,0,1,
scooby_state_50bf00|60|1 0,1,0,0,0,0,0,0,0,0,0,0,0,0,0,1,
scooby_state_445266|43|-2 1,0,0,0,0,0,0,0,0,0,0,0,0,0,0,1,
scooby_state_44546a|28|1 1,0,0,0,0,0,0,0,0,0,0,0,0,0,0,1,
scooby_state_44546a|6|1 1,0,0,0,0,0,0,0,0,0,0,0,0,0,0,1,
scooby_state_44544f|22|1 1,0,0,0,0,0,0,0,0,0,0,0,0,0,0,1,
scooby_state_445494|4|1 1,0,0,0,0,0,0,0,0,0,0,0,0,0,0,1,
scooby_state_53d6c2|27|-7 1,0,0,0,0,0,0,0,0,0,0,0,0,0,0,1,
scooby_state_44544f|3|1 1,0,0,0,0,0,0,0,0,0,0,0,0,0,0,1,
scooby_state_55fb03|44|1 1,0,0,0,0,0,0,0,0,0,0,0,0,0,0,1,
scooby_state_530ca3|11|-10 1,0,0,0,0,0,0,0,0,0,0,0,0,0,0,1,
scooby_state_530ca3|47|0 0,1,0,0,0,0,0,0,0,0,0,0,0,0,0,1,
scooby_state_445494|3|1 1,0,0,0,0,0,0,0,0,0,0,0,0,0,0,1,
scooby_state_45e304|14|3 1,0,0,0,0,0,0,0,0,0,0,0,0,0,0,1,
scooby_state_44546a|35|1 1,0,0,0,0,0,0,0,0,0,0,0,0,0,0,1,
scooby_state_44546a|13|1 1,0,0,0,0,0,0,0,0,0,0,0,0,0,0,1,
scooby_state_576a60|30|2 1,0,0,0,0,0,0,0,0,0,0,0,0,0,0,1,
scooby_state_4454c3|19|1 1,0,0,0,0,0,0,0,0,0,0,0,0,0,0,1,
scooby_state_44546a|19|1 1,0,0,0,0,0,0,0,0,0,0,0,0,0,0,1,
scooby_state_45e304|41|3 1,0,0,0,0,0,0,0,0,0,0,0,0,0,0,1,
scooby_state_445494|17|1 1,0,0,0,0,0,0,0,0,0,0,0,0,0,0,1,
scooby_state_44546a|53|1 1,0,0,0,0,0,0,0,0,0,0,0,0,0,0,1,
scooby_state_530cb4|60|6 1,0,0,0,0,0,0,0,0,0,0,0,0,0,0,1,
scooby_state_445494|51|1 1,0,0,0,0,0,0,0,0,0,0,0,0,0,0,1,
scooby_state_44546a|56|1 1,0,0,0,0,0,0,0,0,0,0,0,0,0,0,1,
scooby_state_445150|5|0 1,0,0,0,0,0,0,0,0,0,0,0,0,0,0,1,
scooby_state_45e304|51|-1 1,0,0,0,0,0,0,0,0,0,0,0,0,0,0,1,
scooby_state_445494|26|1 1,0,0,0,0,0,0,0,0,0,0,0,0,0,0,1,
scooby_state_4452c2|11|1 1,0,0,0,0,0,0,0,0,0,0,0,0,0,0,1,
scooby_state_50b8c1|35|1 1,0,0,0,0,0,0,0,0,0,0,0,0,0,0,1,
scooby_state_445494|28|1 1,0,0,0,0,0,0,0,0,0,0,0,0,0,0,1,
scooby_state_50ca10|40|9 0,1,0,0,0,0,0,0,0,0,0,0,0,0,0,1,
scooby_state_44544f|52|1 1,0,0,0,0,0,0,0,0,0,0,0,0,0,0,1,
scooby_state_445494|12|1 1,0,0,0,0,0,0,0,0,0,0,0,0,0,0,1,
scooby_state_44544f|17|1 1,0,0,0,0,0,0,0,0,0,0,0,0,0,0,1,
scooby_state_508ffd|30|1 1,0,0,0,0,0,0,0,0,0,0,0,0,0,0,1,
scooby_state_44544f|29|1 1,0,0,0,0,0,0,0,0,0,0,0,0,0,0,1,
scooby_state_44546a|29|1 1,0,0,0,0,0,0,0,0,0,0,0,0,0,0,1,
scooby_state_44546a|47|1 1,0,0,0,0,0,0,0,0,0,0,0,0,0,0,1,
scooby_state_44544f|18|1 1,0,0,0,0,0,0,0,0,0,0,0,0,0,0,1,
scooby_state_44544f|5|1 1,0,0,0,0,0,0,0,0,0,0,0,0,0,0,1,
scooby_state_44544f|20|1 1,0,0,0,0,0,0,0,0,0,0,0,0,0,0,1,
scooby_state_50cd82|54|1 1,0,0,0,0,0,0,0,0,0,0,0,0,0,0,1,
scooby_state_44546a|33|1 1,0,0,0,0,0,0,0,0,0,0,0,0,0,0,1,
scooby_state_560fc2|63|1 1,0,0,0,0,0,0,0,0,0,0,0,0,0,0,1,
scooby_state_445218|19|8 1,0,0,0,0,0,0,0,0,0,0,0,0,0,0,1,
scooby_state_44544f|55|1 1,0,0,0,0,0,0,0,0,0,0,0,0,0,0,1,
scooby_state_445494|41|1 1,0,0,0,0,0,0,0,0,0,0,0,0,0,0,1,
scooby_state_45e304|16|-2 1,0,0,0,0,0,0,0,0,0,0,0,0,0,0,1,
scooby_state_44544f|21|1 1,0,0,0,0,0,0,0,0,0,0,0,0,0,0,1,
scooby_state_44544f|59|1 1,0,0,0,0,0,0,0,0,0,0,0,0,0,0,1,
scooby_state_445494|49|1 1,0,0,0,0,0,0,0,0,0,0,0,0,0,0,1,
scooby_state_44546a|22|1 1,0,0,0,0,0,0,0,0,0,0,0,0,0,0,1,
scooby_state_4453c3|15|1 1,0,0,0,0,0,0,0,0,0,0,0,0,0,0,1,
scooby_state_55f8c1|35|1 1,0,0,0,0,0,0,0,0,0,0,0,0,0,0,1,
scooby_state_55fa1d|9|0 1,0,0,0,0,0,0,0,0,0,0,0,0,0,0,1,
scooby_state_50cbc0|47|1 1,0,0,0,0,0,0,0,0,0,0,0,0,0,0,1,
scooby_state_45e304|19|3 1,0,0,0,0,0,0,0,0,0,0,0,0,0,0,1,
scooby_state_44544f|31|1 1,0,0,0,0,0,0,0,0,0,0,0,0,0,0,1,
scooby_state_45e3e0|0|0 1,0,0,0,0,0,0,0,0,0,0,0,0,0,0,1,
scooby_state_44546a|62|1 1,0,0,0,0,0,0,0,0,0,0,0,0,0,0,1,
scooby_state_530ccd|50|0 1,0,0,0,0,0,0,0,0,0,0,0,0,0,0,1,
scooby_state_44544f|13|1 1,0,0,0,0,0,0,0,0,0,0,0,0,0,0,1,
scooby_state_508ff3|63|0 1,0,0,0,0,0,0,0,0,0,0,0,0,0,0,1,
scooby_state_445494|24|1 1,0,0,0,0,0,0,0,0,0,0,0,0,0,0,1,
scooby_state_561400|16|8 1,0,0,0,0,0,0,0,0,0,0,0,0,0,0,1,
scooby_state_55fd40|53|14 1,0,0,0,0,0,0,0,0,0,0,0,0,0,0,1,
scooby_state_45e402|16|1 0,1,0,0,0,0,0,0,0,0,0,0,0,0,0,1,
scooby_state_530ed8|59|0 1,0,0,0,0,0,0,0,0,0,0,0,0,0,0,1,
scooby_state_530ca3|15|-18 1,0,0,0,0,0,0,0,0,0,0,0,0,0,0,1,
scooby_state_445494|35|1 1,0,0,0,0,0,0,0,0,0,0,0,0,0,0,1,
scooby_state_45e304|45|-2 1,0,0,0,0,0,0,0,0,0,0,0,0,0,0,1,
scooby_state_53d640|25|0 0,1,0,0,0,0,0,0,0,0,0,0,0,0,0,1,
scooby_state_50c090|2|1 1,0,0,0,0,0,0,0,0,0,0,0,0,0,0,1,
scooby_state_445494|60|1 1,0,0,0,0,0,0,0,0,0,0,0,0,0,0,1,
scooby_state_45e304|53|2 1,0,0,0,0,0,0,0,0,0,0,0,0,0,0,1,
scooby_state_44525a|54|0 1,0,0,0,0,0,0,0,0,0,0,0,0,0,0,1,
scooby_state_44546a|7|1 1,0,0,0,0,0,0,0,0,0,0,0,0,0,0,1,
scooby_state_44544f|48|1 1,0,0,0,0,0,0,0,0,0,0,0,0,0,0,1,
scooby_state_56124f|9|8 0,1,0,0,0,0,0,0,0,0,0,0,0,0,0,1,
scooby_state_50c940|37|1 1,0,0,0,0,0,0,0,0,0,0,0,0,0,0,1,
scooby_state_44546a|21|1 1,0,0,0,0,0,0,0,0,0,0,0,0,0,0,1,
scooby_state_50b902|36|1 1,0,0,0,0,0,0,0,0,0,0,0,0,0,0,1,
scooby_state_44523f|45|1 0,1,0,0,0,0,0,0,0,0,0,0,0,0,0,1,
scooby_state_560f44|61|1 1,0,0,0,0,0,0,0,0,0,0,0,0,0,0,1,
scooby_state_50cb47|45|1 1,0,0,0,0,0,0,0,0,0,0,0,0,0,0,1,
scooby_state_576a7b|9|0 1,0,0,0,0,0,0,0,0,0,0,0,0,0,0,1,
scooby_state_44554f|33|0 0,1,0,0,0,0,0,0,0,0,0,0,0,0,0,1,
scooby_state_445542|21|0 1,0,0,0,0,0,0,0,0,0,0,0,0,0,0,1,
scooby_state_55fefd|57|-3 1,0,0,0,0,0,0,0,0,0,0,0,0,0,0,1,
scooby_state_530ca3|21|-11 1,0,0,0,0,0,0,0,0,0,0,0,0,0,0,1,
scooby_state_530ca3|59|-2 1,0,0,0,0,0,0,0,0,0,0,0,0,0,0,1,
scooby_state_530ca3|61|6 1,0,0,0,0,0,0,0,0,0,0,0,0,0,0,1,
scooby_state_530ca3|1|-4 1,0,0,0,0,0,0,0,0,0,0,0,0,0,0,1,
scooby_state_530ca3|5|-3 1,0,0,0,0,0,0,0,0,0,0,0,0,0,0,1,
scooby_state_530ca3|8|-17 0,1,0,0,0,0,0,0,0,0,0,0,0,0,0,1,
scooby_state_530ca3|25|10 0,1,0,0,0,0,0,0,0,0,0,0,0,0,0,1,
scooby_state_530ccd|0|-1 0,0,1,0,0,0,0,0,0,0,0,0,0,0,0,1,
scooby_state_530cb4|33|7 1,0,0,0,0,0,0,0,0,0,0,0,0,0,0,1,
scooby_state_530ccd|1|-7 1,0,0,0,0,0,0,0,0,0,0,0,0,0,0,1,
scooby_state_530c91|8|-30 1,0,0,0,0,0,0,0,0,0,0,0,0,0,0,1,
scooby_state_530ccd|38|-6 1,0,0,0,0,0,0,0,0,0,0,0,0,0,0,1,
scooby_state_55faa0|42|1 0,1,0,0,0,0,0,0,0,0,0,0,0,0,0,1,
scooby_state_530ccd|32|17 1,0,0,0,0,0,0,0,0,0,0,0,0,0,0,1,
scooby_state_530ca3|26|-1 1,0,0,0,0,0,0,0,0,0,0,0,0,0,0,1,
scooby_state_530ccd|44|26 0,0,1,0,0,0,0,0,0,0,0,0,0,0,0,1,
scooby_state_530ca3|54|25 1,0,0,0,0,0,0,0,0,0,0,0,0,0,0,1,
scooby_state_530c91|57|19 0,1,0,0,0,0,0,0,0,0,0,0,0,0,0,1,
scooby_state_530ccd|38|-24 1,0,0,0,0,0,0,0,0,0,0,0,0,0,0,1,
scooby_state_530ca3|18|-27 1,0,0,0,0,0,0,0,0,0,0,0,0,0,0,1,
scooby_state_530ca3|29|-2 1,0,0,0,0,0,0,0,0,0,0,0,0,0,0,1,
scooby_state_530ccd|30|11 1,0,0,0,0,0,0,0,0,0,0,0,0,0,0,1,
scooby_state_530ca3|45|32 0,1,0,0,0,0,0,0,0,0,0,0,0,0,0,1,
scooby_state_530ccd|18|-22 1,0,0,0,0,0,0,0,0,0,0,0,0,0,0,1,
scooby_state_45e358|5|0 1,0,0,0,0,0,0,0,0,0,0,0,0,0,0,1,
scooby_state_44546a|42|1 1,0,0,0,0,0,0,0,0,0,0,0,0,0,0,1,
scooby_state_44544f|28|1 1,0,0,0,0,0,0,0,0,0,0,0,0,0,0,1,
scooby_state_50b5ec|56|3 1,0,0,0,0,0,0,0,0,0,0,0,0,0,0,1,
scooby_state_44546a|54|1 1,0,0,0,0,0,0,0,0,0,0,0,0,0,0,1,
scooby_state_45e304|6|3 1,0,0,0,0,0,0,0,0,0,0,0,0,0,0,1,
scooby_state_45e45f|62|-1 0,1,0,0,0,0,0,0,0,0,0,0,0,0,0,1,
scooby_state_44544f|47|1 1,0,0,0,0,0,0,0,0,0,0,0,0,0,0,1,
scooby_state_45e304|10|2 1,0,0,0,0,0,0,0,0,0,0,0,0,0,0,1,
scooby_state_55fa3a|28|0 1,0,0,0,0,0,0,0,0,0,0,0,0,0,0,1,
scooby_state_445440|17|-2 1,0,0,0,0,0,0,0,0,0,0,0,0,0,0,1,
scooby_state_45e3c9|63|2 1,0,0,0,0,0,0,0,0,0,0,0,0,0,0,1,
scooby_state_45e304|15|-2 1,0,0,0,0,0,0,0,0,0,0,0,0,0,0,1,
scooby_state_445494|38|1 1,0,0,0,0,0,0,0,0,0,0,0,0,0,0,1,
scooby_state_530ccd|28|-27 1,0,0,0,0,0,0,0,0,0,0,0,0,0,0,1,
scooby_state_45e22d|40|-21 1,0,0,0,0,0,0,0,0,0,0,0,0,0,0,1,
scooby_state_44546a|1|1 1,0,0,0,0,0,0,0,0,0,0,0,0,0,0,1,
scooby_state_45e304|36|-2 1,0,0,0,0,0,0,0,0,0,0,0,0,0,0,1,
scooby_state_4453e6|9|9 1,0,0,0,0,0,0,0,0,0,0,0,0,0,0,1,
scooby_state_445494|34|1 1,0,0,0,0,0,0,0,0,0,0,0,0,0,0,1,
scooby_state_55fb42|45|1 1,0,0,0,0,0,0,0,0,0,0,0,0,0,0,1,
scooby_state_4453ad|34|3 1,0,0,0,0,0,0,0,0,0,0,0,0,0,0,1,
scooby_state_530ca3|27|9 1,0,0,0,0,0,0,0,0,0,0,0,0,0,0,1,
scooby_state_530ccd|30|9 1,0,0,0,0,0,0,0,0,0,0,0,0,0,0,1,
scooby_state_445494|47|1 1,0,0,0,0,0,0,0,0,0,0,0,0,0,0,1,
scooby_state_5603f5|16|0 1,0,0,0,0,0,0,0,0,0,0,0,0,0,0,1,
scooby_state_5603f5|15|0 1,0,0,0,0,0,0,0,0,0,0,0,0,0,0,1,
scooby_state_55fd60|58|0 1,0,0,0,0,0,0,0,0,0,0,0,0,0,0,1,
scooby_state_55fe18|56|-4 1,0,0,0,0,0,0,0,0,0,0,0,0,0,0,1,
scooby_state_55f8b0|34|0 1,0,0,0,0,0,0,0,0,0,0,0,0,0,0,1,
scooby_state_45e304|6|2 1,0,0,0,0,0,0,0,0,0,0,0,0,0,0,1,
scooby_state_576a80|42|1 1,0,0,0,0,0,0,0,0,0,0,0,0,0,0,1,
scooby_state_530ca3|35|-21 0,1,0,0,0,0,0,0,0,0,0,0,0,0,0,1,
scooby_state_563540|21|0 1,0,0,0,0,0,0,0,0,0,0,0,0,0,0,1,
scooby_state_562ec9|56|0 1,0,0,0,0,0,0,0,0,0,0,0,0,0,0,1,
scooby_state_445494|61|1 1,0,0,0,0,0,0,0,0,0,0,0,0,0,0,1,
scooby_state_530d2a|52|0 1,0,0,0,0,0,0,0,0,0,0,0,0,0,0,1,
scooby_state_53d680|26|1 1,0,0,0,0,0,0,0,0,0,0,0,0,0,0,1,
scooby_state_44544f|51|1 1,0,0,0,0,0,0,0,0,0,0,0,0,0,0,1,
scooby_state_53d8c0|35|8 1,0,0,0,0,0,0,0,0,0,0,0,0,0,0,1,
scooby_state_445494|14|1 1,0,0,0,0,0,0,0,0,0,0,0,0,0,0,1,
scooby_state_44544f|10|1 1,0,0,0,0,0,0,0,0,0,0,0,0,0,0,1,
scooby_state_50c800|32|-31 1,0,0,0,0,0,0,0,0,0,0,0,0,0,0,1,
scooby_state_45e2da|20|0 1,0,0,0,0,0,0,0,0,0,0,0,0,0,0,1,
scooby_state_56add2|55|3 1,0,0,0,0,0,0,0,0,0,0,0,0,0,0,1,
scooby_state_44544f|24|1 1,0,0,0,0,0,0,0,0,0,0,0,0,0,0,1,
scooby_state_45e304|39|3 1,0,0,0,0,0,0,0,0,0,0,0,0,0,0,1,
scooby_state_55fac3|43|1 1,0,0,0,0,0,0,0,0,0,0,0,0,0,0,1,
scooby_state_45e304|1|-2 1,0,0,0,0,0,0,0,0,0,0,0,0,0,0,1,
scooby_state_44546a|51|1 1,0,0,0,0,0,0,0,0,0,0,0,0,0,0,1,
scooby_state_44546a|44|1 1,0,0,0,0,0,0,0,0,0,0,0,0,0,0,1,
scooby_state_445494|1|1 1,0,0,0,0,0,0,0,0,0,0,0,0,0,0,1,
scooby_state_44546a|45|1 1,0,0,0,0,0,0,0,0,0,0,0,0,0,0,1,
scooby_state_445494|40|1 1,0,0,0,0,0,0,0,0,0,0,0,0,0,0,1,
scooby_state_44546a|59|1 1,0,0,0,0,0,0,0,0,0,0,0,0,0,0,1,
scooby_state_445494|18|1 1,0,0,0,0,0,0,0,0,0,0,0,0,0,0,1,
scooby_state_45e304|8|-1 1,0,0,0,0,0,0,0,0,0,0,0,0,0,0,1,
scooby_state_53d840|33|1 1,0,0,0,0,0,0,0,0,0,0,0,0,0,0,1,
scooby_state_4003f0|15|0 1,0,0,0,0,0,0,0,0,0,0,0,0,0,0,1,
scooby_state_445440|14|0 1,0,0,0,0,0,0,0,0,0,0,0,0,0,0,1,
scooby_state_53d701|28|-7 1,0,0,0,0,0,0,0,0,0,0,0,0,0,0,1,
scooby_state_4454ad|32|2 1,0,0,0,0,0,0,0,0,0,0,0,0,0,0,1,
scooby_state_44544f|45|1 1,0,0,0,0,0,0,0,0,0,0,0,0,0,0,1,
scooby_state_55f8fb|2|0 0,1,0,0,0,0,0,0,0,0,0,0,0,0,0,1,
scooby_state_576920|36|0 1,0,0,0,0,0,0,0,0,0,0,0,0,0,0,1,
scooby_state_45e2d0|11|3 1,0,0,0,0,0,0,0,0,0,0,0,0,0,0,1,
scooby_state_445494|46|1 1,0,0,0,0,0,0,0,0,0,0,0,0,0,0,1,
scooby_state_44546a|49|1 1,0,0,0,0,0,0,0,0,0,0,0,0,0,0,1,
scooby_state_530ccd|41|-22 1,0,0,0,0,0,0,0,0,0,0,0,0,0,0,1,
scooby_state_44546a|3|1 1,0,0,0,0,0,0,0,0,0,0,0,0,0,0,1,
scooby_state_445494|25|1 1,0,0,0,0,0,0,0,0,0,0,0,0,0,0,1,
scooby_state_44544f|14|1 1,0,0,0,0,0,0,0,0,0,0,0,0,0,0,1,
scooby_state_445494|50|1 1,0,0,0,0,0,0,0,0,0,0,0,0,0,0,1,
scooby_state_44546a|46|1 1,0,0,0,0,0,0,0,0,0,0,0,0,0,0,1,
scooby_state_50bb80|46|1 1,0,0,0,0,0,0,0,0,0,0,0,0,0,0,1,
scooby_state_50cc43|49|1 1,0,0,0,0,0,0,0,0,0,0,0,0,0,0,1,
scooby_state_530ca3|24|23 0,0,0,1,0,0,0,0,0,0,0,0,0,0,0,1,
scooby_state_445494|43|1 1,0,0,0,0,0,0,0,0,0,0,0,0,0,0,1,
scooby_state_55f9e0|39|3 1,0,0,0,0,0,0,0,0,0,0,0,0,0,0,1,
scooby_state_44546a|25|1 1,0,0,0,0,0,0,0,0,0,0,0,0,0,0,1,
scooby_state_44546a|39|1 1,0,0,0,0,0,0,0,0,0,0,0,0,0,0,1,
scooby_state_445494|33|1 1,0,0,0,0,0,0,0,0,0,0,0,0,0,0,1,
scooby_state_445494|30|1 1,0,0,0,0,0,0,0,0,0,0,0,0,0,0,1,
scooby_state_44546a|41|1 1,0,0,0,0,0,0,0,0,0,0,0,0,0,0,1,
scooby_state_445494|55|1 1,0,0,0,0,0,0,0,0,0,0,0,0,0,0,1,
scooby_state_445494|45|1 1,0,0,0,0,0,0,0,0,0,0,0,0,0,0,1,
scooby_state_45e304|21|3 1,0,0,0,0,0,0,0,0,0,0,0,0,0,0,1,
scooby_state_45e33e|62|0 1,0,0,0,0,0,0,0,0,0,0,0,0,0,0,1,
scooby_state_50cb31|44|2 0,1,0,0,0,0,0,0,0,0,0,0,0,0,0,1,
scooby_state_445494|36|1 1,0,0,0,0,0,0,0,0,0,0,0,0,0,0,1,
scooby_state_55f902|36|1 1,0,0,0,0,0,0,0,0,0,0,0,0,0,0,1,
scooby_state_44546a|55|1 1,0,0,0,0,0,0,0,0,0,0,0,0,0,0,1,
scooby_state_44544f|2|1 1,0,0,0,0,0,0,0,0,0,0,0,0,0,0,1,
scooby_state_44544f|42|1 1,0,0,0,0,0,0,0,0,0,0,0,0,0,0,1,
scooby_state_445494|44|1 1,0,0,0,0,0,0,0,0,0,0,0,0,0,0,1,
scooby_state_562ee0|33|0 1,0,0,0,0,0,0,0,0,0,0,0,0,0,0,1,
scooby_state_445494|32|1 1,0,0,0,0,0,0,0,0,0,0,0,0,0,0,1,
scooby_state_4453e6|9|0 1,0,0,0,0,0,0,0,0,0,0,0,0,0,0,1,
scooby_state_44546a|0|0 1,0,0,0,0,0,0,0,0,0,0,0,0,0,0,1,
scooby_state_45e304|3|2 1,0,0,0,0,0,0,0,0,0,0,0,0,0,0,1,
scooby_state_45e422|61|5 1,0,0,0,0,0,0,0,0,0,0,0,0,0,0,1,
scooby_state_50c7c5|31|7 1,0,0,0,0,0,0,0,0,0,0,0,0,0,0,1,
scooby_state_55fa04|40|-13 1,0,0,0,0,0,0,0,0,0,0,0,0,0,0,1,
scooby_state_53d742|29|1 1,0,0,0,0,0,0,0,0,0,0,0,0,0,0,1,
scooby_state_44546a|11|0 1,0,0,0,0,0,0,0,0,0,0,0,0,0,0,1,
scooby_state_44544f|1|1 1,0,0,0,0,0,0,0,0,0,0,0,0,0,0,1,
scooby_state_445494|2|1 1,0,0,0,0,0,0,0,0,0,0,0,0,0,0,1,
scooby_state_56ae01|56|1 0,1,0,0,0,0,0,0,0,0,0,0,0,0,0,1,
scooby_state_445494|16|1 1,0,0,0,0,0,0,0,0,0,0,0,0,0,0,1,
scooby_state_445494|63|1 1,0,0,0,0,0,0,0,0,0,0,0,0,0,0,1,
scooby_state_45e2dd|12|0 1,0,0,0,0,0,0,0,0,0,0,0,0,0,0,1,
scooby_state_44544f|12|1 1,0,0,0,0,0,0,0,0,0,0,0,0,0,0,1,
scooby_state_50c003|0|-38 1,0,0,0,0,0,0,0,0,0,0,0,0,0,0,1,
scooby_state_562f09|58|2 0,1,0,0,0,0,0,0,0,0,0,0,0,0,0,1,
scooby_state_45e39c|43|-1 1,0,0,0,0,0,0,0,0,0,0,0,0,0,0,1,
scooby_state_445440|49|0 1,0,0,0,0,0,0,0,0,0,0,0,0,0,0,1,
scooby_state_445494|19|1 1,0,0,0,0,0,0,0,0,0,0,0,0,0,0,1,
scooby_state_44546a|2|1 1,0,0,0,0,0,0,0,0,0,0,0,0,0,0,1,
scooby_state_561601|24|1 0,1,0,0,0,0,0,0,0,0,0,0,0,0,0,1,
scooby_state_561419|20|-7 1,0,0,0,0,0,0,0,0,0,0,0,0,0,0,1,
scooby_state_445343|13|1 1,0,0,0,0,0,0,0,0,0,0,0,0,0,0,1,
scooby_state_445494|57|1 1,0,0,0,0,0,0,0,0,0,0,0,0,0,0,1,
scooby_state_44546a|52|1 1,0,0,0,0,0,0,0,0,0,0,0,0,0,0,1,
scooby_state_44544f|56|1 1,0,0,0,0,0,0,0,0,0,0,0,0,0,0,1,
scooby_state_45e304|4|-1 1,0,0,0,0,0,0,0,0,0,0,0,0,0,0,1,
scooby_state_445494|52|1 1,0,0,0,0,0,0,0,0,0,0,0,0,0,0,1,
scooby_state_530ca3|29|0 0,0,1,0,0,0,0,0,0,0,0,0,0,0,0,1,
scooby_state_445494|0|-63 1,0,0,0,0,0,0,0,0,0,0,0,0,0,0,1,
scooby_state_44546a|5|1 1,0,0,0,0,0,0,0,0,0,0,0,0,0,0,1,
scooby_state_44544f|54|1 1,0,0,0,0,0,0,0,0,0,0,0,0,0,0,1,
scooby_state_45e304|20|-2 1,0,0,0,0,0,0,0,0,0,0,0,0,0,0,1,
scooby_state_445494|29|1 1,0,0,0,0,0,0,0,0,0,0,0,0,0,0,1,
scooby_state_50c048|1|1 1,0,0,0,0,0,0,0,0,0,0,0,0,0,0,1,
scooby_state_445494|37|1 1,0,0,0,0,0,0,0,0,0,0,0,0,0,0,1,
scooby_state_530ccd|62|32 1,0,0,0,0,0,0,0,0,0,0,0,0,0,0,1,
scooby_state_530cb4|13|7 1,0,0,0,0,0,0,0,0,0,0,0,0,0,0,1,
scooby_state_45e34b|59|-3 1,0,0,0,0,0,0,0,0,0,0,0,0,0,0,1,
scooby_state_57bcc0|51|1 1,0,0,0,0,0,0,0,0,0,0,0,0,0,0,1,
scooby_state_445494|58|1 1,0,0,0,0,0,0,0,0,0,0,0,0,0,0,1,
scooby_state_45e304|44|-1 1,0,0,0,0,0,0,0,0,0,0,0,0,0,0,1,
scooby_state_560ea8|58|2 0,1,0,0,0,0,0,0,0,0,0,0,0,0,0,1,
scooby_state_445494|59|1 1,0,0,0,0,0,0,0,0,0,0,0,0,0,0,1,
scooby_state_45e3c1|61|28 0,1,0,0,0,0,0,0,0,0,0,0,0,0,0,1,
scooby_state_445494|22|1 1,0,0,0,0,0,0,0,0,0,0,0,0,0,0,1,
scooby_state_560400|16|1 1,0,0,0,0,0,0,0,0,0,0,0,0,0,0,1,
scooby_state_50c798|30|13 1,0,0,0,0,0,0,0,0,0,0,0,0,0,0,1,
scooby_state_44544f|27|1 1,0,0,0,0,0,0,0,0,0,0,0,0,0,0,1,
scooby_state_530b90|46|-7 1,0,0,0,0,0,0,0,0,0,0,0,0,0,0,1,
scooby_state_445494|15|1 1,0,0,0,0,0,0,0,0,0,0,0,0,0,0,1,
scooby_state_445494|48|1 1,0,0,0,0,0,0,0,0,0,0,0,0,0,0,1,
scooby_state_44546a|15|1 1,0,0,0,0,0,0,0,0,0,0,0,0,0,0,1,
scooby_state_530ccd|14|-37 1,0,0,0,0,0,0,0,0,0,0,0,0,0,0,1,
scooby_state_55fd49|25|0 1,0,0,0,0,0,0,0,0,0,0,0,0,0,0,1,
scooby_state_5769a0|38|2 1,0,0,0,0,0,0,0,0,0,0,0,0,0,0,1,
scooby_state_44546a|63|1 1,0,0,0,0,0,0,0,0,0,0,0,0,0,0,1,
scooby_state_44546a|14|1 1,0,0,0,0,0,0,0,0,0,0,0,0,0,0,1,
scooby_state_50b800|32|-14 1,0,0,0,0,0,0,0,0,0,0,0,0,0,0,1,
scooby_state_44544f|16|1 1,0,0,0,0,0,0,0,0,0,0,0,0,0,0,1,
scooby_state_44544f|50|1 1,0,0,0,0,0,0,0,0,0,0,0,0,0,0,1,
scooby_state_530ca3|54|0 1,0,0,0,0,0,0,0,0,0,0,0,0,0,0,1,
scooby_state_445494|53|1 1,0,0,0,0,0,0,0,0,0,0,0,0,0,0,1,
scooby_state_44544f|33|1 1,0,0,0,0,0,0,0,0,0,0,0,0,0,0,1,
scooby_state_530ca3|14|-29 0,0,1,0,0,0,0,0,0,0,0,0,0,0,0,1,
scooby_state_44549f|18|0 1,0,0,0,0,0,0,0,0,0,0,0,0,0,0,1,
scooby_state_45e3d1|62|-1 0,1,0,0,0,0,0,0,0,0,0,0,0,0,0,1,
scooby_state_55f9ff|59|1 1,0,0,0,0,0,0,0,0,0,0,0,0,0,0,1,
scooby_state_445494|21|1 1,0,0,0,0,0,0,0,0,0,0,0,0,0,0,1,
scooby_state_562041|1|1 1,0,0,0,0,0,0,0,0,0,0,0,0,0,0,1,
scooby_state_530c41|49|1 1,0,0,0,0,0,0,0,0,0,0,0,0,0,0,1,
scooby_state_445494|23|1 1,0,0,0,0,0,0,0,0,0,0,0,0,0,0,1,
scooby_state_44544f|44|1 1,0,0,0,0,0,0,0,0,0,0,0,0,0,0,1,
scooby_state_45e442|17|0 1,0,0,0,0,0,0,0,0,0,0,0,0,0,0,1,
scooby_state_44546a|12|1 1,0,0,0,0,0,0,0,0,0,0,0,0,0,0,1,
scooby_state_560fcb|6|0 1,0,0,0,0,0,0,0,0,0,0,0,0,0,0,1,
scooby_state_4003f0|0|0 1,0,0,0,0,0,0,0,0,0,0,0,0,0,0,1,
scooby_state_44544f|23|1 1,0,0,0,0,0,0,0,0,0,0,0,0,0,0,1,
scooby_state_50ba42|41|1 1,0,0,0,0,0,0,0,0,0,0,0,0,0,0,1,
scooby_state_55feee|59|14 1,0,0,0,0,0,0,0,0,0,0,0,0,0,0,1,
scooby_state_445494|20|1 1,0,0,0,0,0,0,0,0,0,0,0,0,0,0,1,
scooby_state_530c02|48|1 1,0,0,0,0,0,0,0,0,0,0,0,0,0,0,1,
scooby_state_45e304|6|-2 1,0,0,0,0,0,0,0,0,0,0,0,0,0,0,1,
scooby_state_44544f|38|1 1,0,0,0,0,0,0,0,0,0,0,0,0,0,0,1,
scooby_state_44544f|32|1 1,0,0,0,0,0,0,0,0,0,0,0,0,0,0,1,
scooby_state_44544f|61|1 1,0,0,0,0,0,0,0,0,0,0,0,0,0,0,1,
scooby_state_445494|62|1 1,0,0,0,0,0,0,0,0,0,0,0,0,0,0,1,
scooby_state_44544f|37|1 1,0,0,0,0,0,0,0,0,0,0,0,0,0,0,1,
scooby_state_45e304|33|-2 1,0,0,0,0,0,0,0,0,0,0,0,0,0,0,1,
scooby_state_45e304|53|-2 1,0,0,0,0,0,0,0,0,0,0,0,0,0,0,1,
scooby_state_560f02|60|1 1,0,0,0,0,0,0,0,0,0,0,0,0,0,0,1,
scooby_state_55fa42|41|1 1,0,0,0,0,0,0,0,0,0,0,0,0,0,0,1,
scooby_state_509003|0|0 1,0,0,0,0,0,0,0,0,0,0,0,0,0,0,1,
scooby_state_445494|5|1 1,0,0,0,0,0,0,0,0,0,0,0,0,0,0,1,
scooby_state_44546a|24|1 1,0,0,0,0,0,0,0,0,0,0,0,0,0,0,1,
scooby_state_57a313|30|0 1,0,0,0,0,0,0,0,0,0,0,0,0,0,0,1,
scooby_state_44544f|19|1 1,0,0,0,0,0,0,0,0,0,0,0,0,0,0,1,
scooby_state_44546a|36|1 1,0,0,0,0,0,0,0,0,0,0,0,0,0,0,1,
scooby_state_44544f|49|1 1,0,0,0,0,0,0,0,0,0,0,0,0,0,0,1,
scooby_state_44544f|9|0 1,0,0,0,0,0,0,0,0,0,0,0,0,0,0,1,
scooby_state_44544f|41|1 1,0,0,0,0,0,0,0,0,0,0,0,0,0,0,1,
scooby_state_5611f8|7|3 0,0,1,0,0,0,0,0,0,0,0,0,0,0,0,1,
scooby_state_44546a|23|1 1,0,0,0,0,0,0,0,0,0,0,0,0,0,0,1,
scooby_state_44546a|58|1 1,0,0,0,0,0,0,0,0,0,0,0,0,0,0,1,
scooby_state_560fbe|62|1 1,0,0,0,0,0,0,0,0,0,0,0,0,0,0,1,
scooby_state_445494|54|1 1,0,0,0,0,0,0,0,0,0,0,0,0,0,0,1,
scooby_state_44544f|35|1 1,0,0,0,0,0,0,0,0,0,0,0,0,0,0,1,
scooby_state_560ec0|59|1 1,0,0,0,0,0,0,0,0,0,0,0,0,0,0,1,
scooby_state_50cd41|53|1 1,0,0,0,0,0,0,0,0,0,0,0,0,0,0,1,
scooby_state_44546a|37|1 1,0,0,0,0,0,0,0,0,0,0,0,0,0,0,1,
scooby_state_56153c|20|6 1,0,0,0,0,0,0,0,0,0,0,0,0,0,0,1,
scooby_state_445494|56|1 1,0,0,0,0,0,0,0,0,0,0,0,0,0,0,1,
scooby_state_45e304|9|2 1,0,0,0,0,0,0,0,0,0,0,0,0,0,0,1,
scooby_state_55fe46|57|1 1,0,0,0,0,0,0,0,0,0,0,0,0,0,0,1,
scooby_state_45e304|45|-1 1,0,0,0,0,0,0,0,0,0,0,0,0,0,0,1,
scooby_state_563540|61|0 1,0,0,0,0,0,0,0,0,0,0,0,0,0,0,1,
scooby_state_44546a|38|1 1,0,0,0,0,0,0,0,0,0,0,0,0,0,0,1,
scooby_state_445494|42|1 1,0,0,0,0,0,0,0,0,0,0,0,0,0,0,1,
scooby_state_44544f|0|-63 1,0,0,0,0,0,0,0,0,0,0,0,0,0,0,1,
scooby_state_53d7c1|31|1 1,0,0,0,0,0,0,0,0,0,0,0,0,0,0,1,
scooby_state_45e407|63|0 1,0,0,0,0,0,0,0,0,0,0,0,0,0,0,1,
scooby_state_50b700|28|1 1,0,0,0,0,0,0,0,0,0,0,0,0,0,0,1,
scooby_state_50d160|5|-6 1,0,0,0,0,0,0,0,0,0,0,0,0,0,0,1,
scooby_state_445494|13|1 1,0,0,0,0,0,0,0,0,0,0,0,0,0,0,1,
scooby_state_44546a|57|1 1,0,0,0,0,0,0,0,0,0,0,0,0,0,0,1,
scooby_state_576a60|41|2 1,0,0,0,0,0,0,0,0,0,0,0,0,0,0,1,
scooby_state_45e304|61|3 1,0,0,0,0,0,0,0,0,0,0,0,0,0,0,1,
scooby_state_45e304|37|-2 1,0,0,0,0,0,0,0,0,0,0,0,0,0,0,1,
scooby_state_50ca50|41|1 1,0,0,0,0,0,0,0,0,0,0,0,0,0,0,1,
scooby_state_44546a|16|1 1,0,0,0,0,0,0,0,0,0,0,0,0,0,0,1,
scooby_state_55ff04|60|1 1,0,0,0,0,0,0,0,0,0,0,0,0,0,0,1,
scooby_state_44546a|48|1 1,0,0,0,0,0,0,0,0,0,0,0,0,0,0,1,
scooby_state_44546a|61|1 1,0,0,0,0,0,0,0,0,0,0,0,0,0,0,1,
scooby_state_44546a|18|1 1,0,0,0,0,0,0,0,0,0,0,0,0,0,0,1,
scooby_state_44544f|15|1 1,0,0,0,0,0,0,0,0,0,0,0,0,0,0,1,
scooby_state_44546a|40|1 1,0,0,0,0,0,0,0,0,0,0,0,0,0,0,1,
scooby_state_445494|11|1 1,0,0,0,0,0,0,0,0,0,0,0,0,0,0,1,
scooby_state_44544f|4|1 1,0,0,0,0,0,0,0,0,0,0,0,0,0,0,1,
scooby_state_50bad0|43|0 1,0,0,0,0,0,0,0,0,0,0,0,0,0,0,1,
scooby_state_44544f|11|1 1,0,0,0,0,0,0,0,0,0,0,0,0,0,0,1,
scooby_state_44544f|43|1 1,0,0,0,0,0,0,0,0,0,0,0,0,0,0,1,
scooby_state_562f41|61|60 1,0,0,0,0,0,0,0,0,0,0,0,0,0,0,1,
scooby_state_44544f|34|1 1,0,0,0,0,0,0,0,0,0,0,0,0,0,0,1,

scooby_action_0_deg_dist 0,17,0,0,0,0,0,0,0,0,0,0,0,0,0,0,
scooby_action_4_deg_dist 0,28,0,0,0,0,0,0,0,0,0,0,0,0,0,0,
scooby_action_32_deg_dist 0,16,0,0,0,0,0,0,0,0,0,0,0,0,0,0,
scooby_action_3_deg_dist 0,62,2,0,0,0,0,0,0,0,0,0,0,0,0,0,
scooby_action_5_deg_dist 0,17,0,0,0,0,0,0,0,0,0,0,0,0,0,0,
scooby_action_1_deg_dist 0,10819,6919,0,16461,0,105841,0,0,0,0,0,0,0,0,0,
scooby_action_30_deg_dist 0,21,0,0,0,0,0,0,0,0,0,0,0,0,0,0,
scooby_action_-3_deg_dist 0,13,0,0,0,0,0,0,0,0,0,0,0,0,0,0,
scooby_action_10_deg_dist 0,25,0,0,0,0,0,0,0,0,0,0,0,0,0,0,
scooby_action_-1_deg_dist 0,18,0,0,0,0,0,0,0,0,0,0,0,0,0,0,
scooby_action_23_deg_dist 0,16,0,0,0,0,0,0,0,0,0,0,0,0,0,0,
scooby_action_-6_deg_dist 0,12,0,0,0,0,0,0,0,0,0,0,0,0,0,0,
scooby_action_11_deg_dist 0,20,0,0,0,0,0,0,0,0,0,0,0,0,0,0,
scooby_action_22_deg_dist 0,21,0,0,0,0,0,0,0,0,0,0,0,0,0,0,
scooby_action_12_deg_dist 0,19,0,0,0,0,0,0,0,0,0,0,0,0,0,0,

scooby_track_called 140347
scooby_track_same_address 181
scooby_track_evict 139910

scooby_reward_demand_called 140347
scooby_reward_demand_pt_not_found 4152
scooby_reward_demand_pt_found 136195
scooby_reward_demand_pt_found_total 136195
scooby_reward_demand_has_reward 0
scooby_reward_train_called 1724
scooby_reward_assign_reward_called 140162
scooby_reward_no_pref 17
scooby_reward_incorrect 1707
scooby_reward_correct_untimely 116302
scooby_reward_correct_timely 19893
scooby_reward_out_of_bounds 2243
scooby_reward_tracker_hit 0

scooby_reward_none_low_bw 17
scooby_reward_none_high_bw 0
scooby_reward_incorrect_low_bw 1707
scooby_reward_incorrect_high_bw 0
scooby_reward_correct_untimely_low_bw 116302
scooby_reward_correct_untimely_high_bw 0
scooby_reward_correct_timely_low_bw 19893
scooby_reward_correct_timely_high_bw 0
scooby_reward_out_of_bounds_low_bw 2243
scooby_reward_out_of_bounds_high_bw 0
scooby_reward_tracker_hit_low_bw 0
scooby_reward_tracker_hit_high_bw 0

scooby_reward_1 0,1648,116276,19784,2189,0,
scooby_reward_3 0,27,13,19,3,0,
scooby_reward_4 0,12,9,5,2,0,
scooby_reward_5 0,1,4,9,3,0,
scooby_reward_10 0,1,0,22,2,0,
scooby_reward_11 0,1,0,18,1,0,
scooby_reward_12 0,3,0,12,4,0,
scooby_reward_22 0,4,0,7,10,0,
scooby_reward_23 0,1,0,5,10,0,
scooby_reward_30 0,2,0,9,10,0,
scooby_reward_32 0,5,0,3,8,0,
scooby_reward_-1 0,0,0,0,0,0,
scooby_reward_-3 0,1,0,0,0,0,
scooby_reward_-6 0,1,0,0,1,0,
scooby_reward_0 17,0,0,0,0,0,

scooby_train_called 139909
scooby_train_compute_reward 1724

scooby_register_fill_called 123831
scooby_register_fill_set 20503
scooby_register_fill_set_total 20503

scooby_register_prefetch_hit_called 329900
scooby_register_prefetch_hit_set 99631
scooby_register_prefetch_hit_set_total 99631

scooby_pref_issue_scooby 682275

learning_engine_featurewise.action.called 140347
learning_engine_featurewise.action.explore 269
learning_engine_featurewise.action.exploit 140078
learning_engine_featurewise.action.fallback 0
learning_engine_featurewise.action.dyn_fallback_saved_bw 0
learning_engine_featurewise.action.dyn_fallback_saved_bw_acc 171
learning_engine_featurewise.action.index_1_explored 17
learning_engine_featurewise.action.index_1_exploited 140023
learning_engine_featurewise.action.index_3_explored 23
learning_engine_featurewise.action.index_3_exploited 41
learning_engine_featurewise.action.index_4_explored 15
learning_engine_featurewise.action.index_4_exploited 13
learning_engine_featurewise.action.index_5_explored 16
learning_engine_featurewise.action.index_5_exploited 1
learning_engine_featurewise.action.index_10_explored 25
learning_engine_featurewise.action.index_10_exploited 0
learning_engine_featurewise.action.index_11_explored 20
learning_engine_featurewise.action.index_11_exploited 0
learning_engine_featurewise.action.index_12_explored 19
learning_engine_featurewise.action.index_12_exploited 0
learning_engine_featurewise.action.index_22_explored 21
learning_engine_featurewise.action.index_22_exploited 0
learning_engine_featurewise.action.index_23_explored 16
learning_engine_featurewise.action.index_23_exploited 0
learning_engine_featurewise.action.index_30_explored 21
learning_engine_featurewise.action.index_30_exploited 0
learning_engine_featurewise.action.index_32_explored 16
learning_engine_featurewise.action.index_32_exploited 0
learning_engine_featurewise.action.index_-1_explored 18
learning_engine_featurewise.action.index_-1_exploited 0
learning_engine_featurewise.action.index_-3_explored 13
learning_engine_featurewise.action.index_-3_exploited 0
learning_engine_featurewise.action.index_-6_explored 12
learning_engine_featurewise.action.index_-6_exploited 0
learning_engine_featurewise.action.index_0_explored 17
learning_engine_featurewise.action.index_0_exploited 0
learning_engine_featurewise.learn.called 139909
learning_engine_featurewise.learn.su_skip_PC 0
learning_engine_featurewise.learn.su_skip_PC_Delta 0

learning_engine_featurewise.q_value_histogram.bucket_0 0
learning_engine_featurewise.q_value_histogram.bucket_1 0
learning_engine_featurewise.q_value_histogram.bucket_2 0
learning_engine_featurewise.q_value_histogram.bucket_3 0
learning_engine_featurewise.q_value_histogram.bucket_4 1101
learning_engine_featurewise.q_value_histogram.bucket_5 351
learning_engine_featurewise.q_value_histogram.bucket_6 138626
learning_engine_featurewise.q_value_histogram.bucket_7 0

learning_engine_featurewise.consensus.total 140078
learning_engine_featurewise.consensus.feature_align_PC 139953
learning_engine_featurewise.consensus.feature_align_PC_ratio 1.00
learning_engine_featurewise.consensus.feature_align_PC_Delta 140003
learning_engine_featurewise.consensus.feature_align_PC_Delta_ratio 1.00
learning_engine_featurewise.consensus.feature_align_all 139878
learning_engine_featurewise.consensus.feature_align_all_ratio 1.00

learning_engine_featurewise.feature_PC_min_weight 1000000.00000000
learning_engine_featurewise.feature_PC_max_weight 0.00000000
learning_engine_featurewise.feature_PC_Delta_min_weight 1000000.00000000
learning_engine_featurewise.feature_PC_Delta_max_weight 0.00000000
unique_pcs 272
unique_pages 3647
unique_trigger_pcs 73
total_bitmaps_seen 0
unique_bitmaps_seen 0

scooby_bw_epochs 296475
scooby_bw_level_0 265124
scooby_bw_level_1 20729
scooby_bw_level_2 4706
scooby_bw_level_3 5916

scooby_ipc_epochs 0
scooby_ipc_level_0 0
scooby_ipc_level_1 0
scooby_ipc_level_2 0
scooby_ipc_level_3 0

scooby_cache_acc_epochs 73679
scooby_cache_acc_level_0 13432
scooby_cache_acc_level_1 14082
scooby_cache_acc_level_2 13776
scooby_cache_acc_level_3 2924
scooby_cache_acc_level_4 394
scooby_cache_acc_level_5 13628
scooby_cache_acc_level_6 3081
scooby_cache_acc_level_7 1143
scooby_cache_acc_level_8 1691
scooby_cache_acc_level_9 9528

Channel_0_RQ_row_buffer_hit 82148
Channel_0_RQ_row_buffer_miss 145331
Channel_0_WQ_row_buffer_hit 13297
Channel_0_WQ_row_buffer_miss 51743
Channel_0_WQ_full 0
Channel_0_dbus_congested 138207

avg_congested_cycle 10

DRAM_bw_pochs 296475
DRAM_bw_level_0 265124
DRAM_bw_level_1 20729
DRAM_bw_level_2 4706
DRAM_bw_level_3 5916
