*************************************************
   ChampSim Multicore Out-of-Order Simulator
   Last compiled: Apr  3 2025 20:54:34
*************************************************
parsing config file: /home/zir/Pythia/config/nopref.ini

trace_0 /home/zir/ChampSim/ML-DPC/ChampSimTraces/spec17/621.wrf-s2.trace.xz
adding L2C_PREFETCHER: NONE
Initialize SHIP state
warmup_instructions 10000000
simulation_instructions 50000000
champsim_seed 165
measure_ipc 0
measure_ipc_epoch 1000
measure_dram_bw 1
measure_dram_bw_epoch 256
measure_cache_acc 1
measure_cache_acc_epoch 1024
l1d_perfect 0
l2c_perfect 0
llc_perfect 0
l1d_semi_perfect 0
l2c_semi_perfect 0
llc_semi_perfect 0
semi_perfect_cache_page_buffer_size 64

num_cpus 1
cpu_freq 4000
dram_io_freq 2400
page_size 4096
block_size 64
max_read_per_cycle 8
max_fill_per_cycle 1
dram_channels 1
log2_dram_channels 0
dram_ranks 1
dram_banks 8
dram_rows 65536
dram_columns 128
dram_row_size 8
dram_size 4096
dram_pages 1048576

fetch_width 6
decode_width 6
exec_width 4
lq_width 2
sq_width 2
retire_width 4
scheduler_size 128
branch_mispredict_penalty 20
rob_size 256
lq_size 72
sq_size 56
num_instr_destinations_sparc 4
num_instr_destinations 2
num_instr_sources 4

itlb_set 16
itlb_way 8
itlb_rq_size 16
itlb_wq_size 16
itlb_pq_size 0
itlb_mshr_size 8
itlb_latency 1

dtlb_set 16
dtlb_way 4
dtlb_rq_size 16
dtlb_wq_size 16
dtlb_pq_size 0
dtlb_mshr_size 8
dtlb_latency 1

stlb_set 128
stlb_way 12
stlb_rq_size 32
stlb_wq_size 32
stlb_pq_size 0
stlb_mshr_size 16
stlb_latency 8

l1i_size 32
l1i_set 64
l1i_way 8
l1i_rq_size 64
l1i_wq_size 64
l1i_pq_size 8
l1i_mshr_size 8
l1i_latency 1

l1d_size 32
l1d_set 64
l1d_way 8
l1d_rq_size 64
l1d_wq_size 64
l1d_pq_size 8
l1d_mshr_size 16
l1d_latency 4

l2c_size 256
l2c_set 512
l2c_way 8
l2c_rq_size 32
l2c_wq_size 32
l2c_pq_size 32
l2c_mshr_size 32
l2c_latency 10

llc_size 2048
llc_set 2048
llc_way 16
llc_rq_size 32
llc_wq_size 32
llc_pq_size 32
llc_mshr_size 64
llc_latency 20

dram_channel_width 8
dram_wq_size 64
dram_rq_size 64
tRP 15
tRCD 15
tCAS 12.5
dram_dbus_turn_around_time 30
dram_write_high_wm 56
dram_write_low_wm 48
min_dram_writes_per_switch 16
dram_mtps 2400
dram_dbus_return_time 13


Heartbeat CPU  0 instructions:    1000003 cycles:     483108 heartbeat IPC: 2.06994 cumulative IPC: 2.06994 (Simulation time: 0 hr 0 min 2 sec) 
Heartbeat CPU  0 instructions:    2000002 cycles:     932614 heartbeat IPC: 2.22466 cumulative IPC: 2.14451 (Simulation time: 0 hr 0 min 4 sec) 
Heartbeat CPU  0 instructions:    3000003 cycles:    1357913 heartbeat IPC: 2.35129 cumulative IPC: 2.20927 (Simulation time: 0 hr 0 min 5 sec) 
Heartbeat CPU  0 instructions:    4000000 cycles:    1765424 heartbeat IPC: 2.45391 cumulative IPC: 2.26574 (Simulation time: 0 hr 0 min 7 sec) 
Heartbeat CPU  0 instructions:    5000000 cycles:    2184517 heartbeat IPC: 2.38611 cumulative IPC: 2.28884 (Simulation time: 0 hr 0 min 9 sec) 
Heartbeat CPU  0 instructions:    6000002 cycles:    2627739 heartbeat IPC: 2.25621 cumulative IPC: 2.28333 (Simulation time: 0 hr 0 min 10 sec) 
Heartbeat CPU  0 instructions:    7000003 cycles:    3157135 heartbeat IPC: 1.88895 cumulative IPC: 2.21720 (Simulation time: 0 hr 0 min 12 sec) 
Heartbeat CPU  0 instructions:    8000000 cycles:    3619833 heartbeat IPC: 2.16123 cumulative IPC: 2.21005 (Simulation time: 0 hr 0 min 14 sec) 
Heartbeat CPU  0 instructions:    9000000 cycles:    4099414 heartbeat IPC: 2.08515 cumulative IPC: 2.19544 (Simulation time: 0 hr 0 min 15 sec) 
Heartbeat CPU  0 instructions:   10000003 cycles:    4578414 heartbeat IPC: 2.08769 cumulative IPC: 2.18416 (Simulation time: 0 hr 0 min 17 sec) 

Warmup complete CPU  0 instructions:   10000003 cycles:    4578414 (Simulation time: 0 hr 0 min 17 sec) 

Heartbeat CPU  0 instructions:   11000000 cycles:    5716490 heartbeat IPC: 0.87867 cumulative IPC: 0.87867 (Simulation time: 0 hr 0 min 19 sec) 
Heartbeat CPU  0 instructions:   12000000 cycles:    6872071 heartbeat IPC: 0.86537 cumulative IPC: 0.87197 (Simulation time: 0 hr 0 min 21 sec) 
Heartbeat CPU  0 instructions:   13000001 cycles:    8044559 heartbeat IPC: 0.85289 cumulative IPC: 0.86551 (Simulation time: 0 hr 0 min 23 sec) 
Heartbeat CPU  0 instructions:   14000000 cycles:    9038348 heartbeat IPC: 1.00625 cumulative IPC: 0.89687 (Simulation time: 0 hr 0 min 24 sec) 
Heartbeat CPU  0 instructions:   15000000 cycles:    9985271 heartbeat IPC: 1.05605 cumulative IPC: 0.92475 (Simulation time: 0 hr 0 min 26 sec) 
Heartbeat CPU  0 instructions:   16000000 cycles:   10910556 heartbeat IPC: 1.08075 cumulative IPC: 0.94755 (Simulation time: 0 hr 0 min 28 sec) 
Heartbeat CPU  0 instructions:   17000003 cycles:   11793422 heartbeat IPC: 1.13268 cumulative IPC: 0.97020 (Simulation time: 0 hr 0 min 30 sec) 
Heartbeat CPU  0 instructions:   18000002 cycles:   12682429 heartbeat IPC: 1.12485 cumulative IPC: 0.98716 (Simulation time: 0 hr 0 min 31 sec) 
Heartbeat CPU  0 instructions:   19000000 cycles:   13596477 heartbeat IPC: 1.09403 cumulative IPC: 0.99800 (Simulation time: 0 hr 0 min 33 sec) 
Heartbeat CPU  0 instructions:   20000000 cycles:   14489834 heartbeat IPC: 1.11937 cumulative IPC: 1.00894 (Simulation time: 0 hr 0 min 35 sec) 
Heartbeat CPU  0 instructions:   21000001 cycles:   15374655 heartbeat IPC: 1.13017 cumulative IPC: 1.01887 (Simulation time: 0 hr 0 min 37 sec) 
Heartbeat CPU  0 instructions:   22000000 cycles:   16258162 heartbeat IPC: 1.13185 cumulative IPC: 1.02742 (Simulation time: 0 hr 0 min 38 sec) 
Heartbeat CPU  0 instructions:   23000002 cycles:   17166109 heartbeat IPC: 1.10139 cumulative IPC: 1.03275 (Simulation time: 0 hr 0 min 40 sec) 
Heartbeat CPU  0 instructions:   24000000 cycles:   18179122 heartbeat IPC: 0.98715 cumulative IPC: 1.02936 (Simulation time: 0 hr 0 min 42 sec) 
Heartbeat CPU  0 instructions:   25000001 cycles:   19369282 heartbeat IPC: 0.84022 cumulative IPC: 1.01414 (Simulation time: 0 hr 0 min 44 sec) 
Heartbeat CPU  0 instructions:   26000000 cycles:   20639388 heartbeat IPC: 0.78734 cumulative IPC: 0.99620 (Simulation time: 0 hr 0 min 46 sec) 
Heartbeat CPU  0 instructions:   27000001 cycles:   21817910 heartbeat IPC: 0.84852 cumulative IPC: 0.98611 (Simulation time: 0 hr 0 min 48 sec) 
Heartbeat CPU  0 instructions:   28000000 cycles:   22840321 heartbeat IPC: 0.97808 cumulative IPC: 0.98566 (Simulation time: 0 hr 0 min 50 sec) 
Heartbeat CPU  0 instructions:   29000001 cycles:   24547610 heartbeat IPC: 0.58572 cumulative IPC: 0.95147 (Simulation time: 0 hr 0 min 52 sec) 
Heartbeat CPU  0 instructions:   30000000 cycles:   26073259 heartbeat IPC: 0.65546 cumulative IPC: 0.93046 (Simulation time: 0 hr 0 min 54 sec) 
Heartbeat CPU  0 instructions:   31000000 cycles:   28711873 heartbeat IPC: 0.37899 cumulative IPC: 0.87016 (Simulation time: 0 hr 0 min 57 sec) 
Heartbeat CPU  0 instructions:   32000000 cycles:   30039430 heartbeat IPC: 0.75326 cumulative IPC: 0.86407 (Simulation time: 0 hr 0 min 59 sec) 
Heartbeat CPU  0 instructions:   33000002 cycles:   31374955 heartbeat IPC: 0.74877 cumulative IPC: 0.85832 (Simulation time: 0 hr 1 min 1 sec) 
Heartbeat CPU  0 instructions:   34000000 cycles:   32715655 heartbeat IPC: 0.74588 cumulative IPC: 0.85296 (Simulation time: 0 hr 1 min 2 sec) 
Heartbeat CPU  0 instructions:   35000003 cycles:   34049210 heartbeat IPC: 0.74988 cumulative IPC: 0.84830 (Simulation time: 0 hr 1 min 4 sec) 
Heartbeat CPU  0 instructions:   36000000 cycles:   35364636 heartbeat IPC: 0.76021 cumulative IPC: 0.84453 (Simulation time: 0 hr 1 min 6 sec) 
Heartbeat CPU  0 instructions:   37000000 cycles:   36315219 heartbeat IPC: 1.05199 cumulative IPC: 0.85075 (Simulation time: 0 hr 1 min 8 sec) 
Heartbeat CPU  0 instructions:   38000002 cycles:   37137064 heartbeat IPC: 1.21678 cumulative IPC: 0.85999 (Simulation time: 0 hr 1 min 10 sec) 
Heartbeat CPU  0 instructions:   39000001 cycles:   37932463 heartbeat IPC: 1.25723 cumulative IPC: 0.86946 (Simulation time: 0 hr 1 min 12 sec) 
Heartbeat CPU  0 instructions:   40000000 cycles:   38724060 heartbeat IPC: 1.26327 cumulative IPC: 0.87859 (Simulation time: 0 hr 1 min 13 sec) 
Heartbeat CPU  0 instructions:   41000002 cycles:   39517011 heartbeat IPC: 1.26111 cumulative IPC: 0.88727 (Simulation time: 0 hr 1 min 15 sec) 
Heartbeat CPU  0 instructions:   42000003 cycles:   40401011 heartbeat IPC: 1.13122 cumulative IPC: 0.89329 (Simulation time: 0 hr 1 min 17 sec) 
Heartbeat CPU  0 instructions:   43000000 cycles:   41286942 heartbeat IPC: 1.12875 cumulative IPC: 0.89897 (Simulation time: 0 hr 1 min 19 sec) 
Heartbeat CPU  0 instructions:   44000000 cycles:   42162655 heartbeat IPC: 1.14193 cumulative IPC: 0.90463 (Simulation time: 0 hr 1 min 20 sec) 
Heartbeat CPU  0 instructions:   45000002 cycles:   43037062 heartbeat IPC: 1.14363 cumulative IPC: 0.91007 (Simulation time: 0 hr 1 min 22 sec) 
Heartbeat CPU  0 instructions:   46000001 cycles:   44140186 heartbeat IPC: 0.90652 cumulative IPC: 0.90997 (Simulation time: 0 hr 1 min 24 sec) 
Heartbeat CPU  0 instructions:   47000003 cycles:   45443054 heartbeat IPC: 0.76754 cumulative IPC: 0.90543 (Simulation time: 0 hr 1 min 26 sec) 
Heartbeat CPU  0 instructions:   48000000 cycles:   46742096 heartbeat IPC: 0.76980 cumulative IPC: 0.90125 (Simulation time: 0 hr 1 min 28 sec) 
Heartbeat CPU  0 instructions:   49000001 cycles:   48044033 heartbeat IPC: 0.76809 cumulative IPC: 0.89726 (Simulation time: 0 hr 1 min 30 sec) 
Heartbeat CPU  0 instructions:   50000001 cycles:   49321788 heartbeat IPC: 0.78262 cumulative IPC: 0.89399 (Simulation time: 0 hr 1 min 32 sec) 
Heartbeat CPU  0 instructions:   51000001 cycles:   50659480 heartbeat IPC: 0.74756 cumulative IPC: 0.88974 (Simulation time: 0 hr 1 min 34 sec) 
Heartbeat CPU  0 instructions:   52000000 cycles:   52693000 heartbeat IPC: 0.49176 cumulative IPC: 0.87292 (Simulation time: 0 hr 1 min 36 sec) 
Heartbeat CPU  0 instructions:   53000000 cycles:   53739251 heartbeat IPC: 0.95579 cumulative IPC: 0.87468 (Simulation time: 0 hr 1 min 38 sec) 
Heartbeat CPU  0 instructions:   54000003 cycles:   54783097 heartbeat IPC: 0.95800 cumulative IPC: 0.87641 (Simulation time: 0 hr 1 min 40 sec) 
Heartbeat CPU  0 instructions:   55000001 cycles:   55832290 heartbeat IPC: 0.95311 cumulative IPC: 0.87798 (Simulation time: 0 hr 1 min 42 sec) 
Heartbeat CPU  0 instructions:   56000000 cycles:   56888221 heartbeat IPC: 0.94703 cumulative IPC: 0.87938 (Simulation time: 0 hr 1 min 44 sec) 
Heartbeat CPU  0 instructions:   57000002 cycles:   57927260 heartbeat IPC: 0.96243 cumulative IPC: 0.88099 (Simulation time: 0 hr 1 min 46 sec) 
Heartbeat CPU  0 instructions:   58000002 cycles:   58840774 heartbeat IPC: 1.09467 cumulative IPC: 0.88459 (Simulation time: 0 hr 1 min 47 sec) 
Heartbeat CPU  0 instructions:   59000001 cycles:   59650532 heartbeat IPC: 1.23494 cumulative IPC: 0.88974 (Simulation time: 0 hr 1 min 49 sec) 
Heartbeat CPU  0 instructions:   60000000 cycles:   60447962 heartbeat IPC: 1.25403 cumulative IPC: 0.89494 (Simulation time: 0 hr 1 min 51 sec) 
Finished CPU 0 instructions: 50000000 cycles: 55869593 cumulative IPC: 0.89494 (Simulation time: 0 hr 1 min 51 sec) 

ChampSim completed all CPUs

[ROI Statistics]
Core_0_instructions 50000000
Core_0_cycles 55869593
Core_0_IPC 0.89494

Core_0_branch_prediction_accuracy 98.99778
Core_0_branch_MPKI 0.32838
Core_0_average_ROB_occupancy_at_mispredict 232.85419

Core_0_L1D_total_access 11981798
Core_0_L1D_total_hit 11254463
Core_0_L1D_total_miss 727335
Core_0_L1D_loads 10389838
Core_0_L1D_load_hit 9802689
Core_0_L1D_load_miss 587149
Core_0_L1D_RFOs 1591960
Core_0_L1D_RFO_hit 1451774
Core_0_L1D_RFO_miss 140186
Core_0_L1D_prefetches 0
Core_0_L1D_prefetch_hit 0
Core_0_L1D_prefetch_miss 0
Core_0_L1D_writebacks 0
Core_0_L1D_writeback_hit 0
Core_0_L1D_writeback_miss 0
Core_0_L1D_prefetch_requested 0
Core_0_L1D_prefetch_dropped 0
Core_0_L1D_prefetch_issued 0
Core_0_L1D_prefetch_filled 0
Core_0_L1D_prefetch_useful 0
Core_0_L1D_prefetch_useless 0
Core_0_L1D_prefetch_late 0
Core_0_L1D_average_miss_latency 142.12956

Core_0_L1D_rq_access 16578902
Core_0_L1D_rq_forward 0
Core_0_L1D_rq_merged 5707046
Core_0_L1D_rq_to_cache 10868266
Core_0_L1D_rq_full 0

Core_0_L1D_wq_access 2065746
Core_0_L1D_wq_forward 3590
Core_0_L1D_wq_merged 10242
Core_0_L1D_wq_to_cache 2055504
Core_0_L1D_wq_full 2420975

Core_0_L1D_pq_access 0
Core_0_L1D_pq_forward 0
Core_0_L1D_pq_merged 0
Core_0_L1D_pq_to_cache 0
Core_0_L1D_pq_full 0

Core_0_L1D_acc_epochs 58731
Core_0_L1D_acc_level_0 58731
Core_0_L1D_acc_level_1 0
Core_0_L1D_acc_level_2 0
Core_0_L1D_acc_level_3 0
Core_0_L1D_acc_level_4 0
Core_0_L1D_acc_level_5 0
Core_0_L1D_acc_level_6 0
Core_0_L1D_acc_level_7 0
Core_0_L1D_acc_level_8 0
Core_0_L1D_acc_level_9 0

Core_0_L1I_total_access 12350306
Core_0_L1I_total_hit 12348817
Core_0_L1I_total_miss 1489
Core_0_L1I_loads 12350306
Core_0_L1I_load_hit 12348817
Core_0_L1I_load_miss 1489
Core_0_L1I_RFOs 0
Core_0_L1I_RFO_hit 0
Core_0_L1I_RFO_miss 0
Core_0_L1I_prefetches 0
Core_0_L1I_prefetch_hit 0
Core_0_L1I_prefetch_miss 0
Core_0_L1I_writebacks 0
Core_0_L1I_writeback_hit 0
Core_0_L1I_writeback_miss 0
Core_0_L1I_prefetch_requested 0
Core_0_L1I_prefetch_dropped 0
Core_0_L1I_prefetch_issued 0
Core_0_L1I_prefetch_filled 0
Core_0_L1I_prefetch_useful 0
Core_0_L1I_prefetch_useless 0
Core_0_L1I_prefetch_late 0
Core_0_L1I_average_miss_latency 280.30154

Core_0_L1I_rq_access 50000007
Core_0_L1I_rq_forward 0
Core_0_L1I_rq_merged 37647917
Core_0_L1I_rq_to_cache 12352090
Core_0_L1I_rq_full 0

Core_0_L1I_wq_access 0
Core_0_L1I_wq_forward 0
Core_0_L1I_wq_merged 0
Core_0_L1I_wq_to_cache 0
Core_0_L1I_wq_full 0

Core_0_L1I_pq_access 0
Core_0_L1I_pq_forward 0
Core_0_L1I_pq_merged 0
Core_0_L1I_pq_to_cache 0
Core_0_L1I_pq_full 0

Core_0_L1I_acc_epochs 58731
Core_0_L1I_acc_level_0 58731
Core_0_L1I_acc_level_1 0
Core_0_L1I_acc_level_2 0
Core_0_L1I_acc_level_3 0
Core_0_L1I_acc_level_4 0
Core_0_L1I_acc_level_5 0
Core_0_L1I_acc_level_6 0
Core_0_L1I_acc_level_7 0
Core_0_L1I_acc_level_8 0
Core_0_L1I_acc_level_9 0

Core_0_L2C_total_access 994854
Core_0_L2C_total_hit 502940
Core_0_L2C_total_miss 491914
Core_0_L2C_loads 588611
Core_0_L2C_load_hit 220925
Core_0_L2C_load_miss 367686
Core_0_L2C_RFOs 140186
Core_0_L2C_RFO_hit 17037
Core_0_L2C_RFO_miss 123149
Core_0_L2C_prefetches 0
Core_0_L2C_prefetch_hit 0
Core_0_L2C_prefetch_miss 0
Core_0_L2C_writebacks 266057
Core_0_L2C_writeback_hit 264978
Core_0_L2C_writeback_miss 1079
Core_0_L2C_prefetch_requested 0
Core_0_L2C_prefetch_dropped 0
Core_0_L2C_prefetch_issued 0
Core_0_L2C_prefetch_filled 0
Core_0_L2C_prefetch_useful 0
Core_0_L2C_prefetch_useless 0
Core_0_L2C_prefetch_late 0
Core_0_L2C_average_miss_latency 189.38802

Core_0_L2C_rq_access 728824
Core_0_L2C_rq_forward 0
Core_0_L2C_rq_merged 0
Core_0_L2C_rq_to_cache 728797
Core_0_L2C_rq_full 0

Core_0_L2C_wq_access 266057
Core_0_L2C_wq_forward 27
Core_0_L2C_wq_merged 0
Core_0_L2C_wq_to_cache 266057
Core_0_L2C_wq_full 0

Core_0_L2C_pq_access 0
Core_0_L2C_pq_forward 0
Core_0_L2C_pq_merged 0
Core_0_L2C_pq_to_cache 0
Core_0_L2C_pq_full 0

Core_0_L2C_acc_epochs 58731
Core_0_L2C_acc_level_0 58731
Core_0_L2C_acc_level_1 0
Core_0_L2C_acc_level_2 0
Core_0_L2C_acc_level_3 0
Core_0_L2C_acc_level_4 0
Core_0_L2C_acc_level_5 0
Core_0_L2C_acc_level_6 0
Core_0_L2C_acc_level_7 0
Core_0_L2C_acc_level_8 0
Core_0_L2C_acc_level_9 0

Core_0_LLC_total_access 732330
Core_0_LLC_total_hit 471544
Core_0_LLC_total_miss 260786
Core_0_LLC_loads 367686
Core_0_LLC_load_hit 200608
Core_0_LLC_load_miss 167078
Core_0_LLC_RFOs 123149
Core_0_LLC_RFO_hit 35050
Core_0_LLC_RFO_miss 88099
Core_0_LLC_prefetches 0
Core_0_LLC_prefetch_hit 0
Core_0_LLC_prefetch_miss 0
Core_0_LLC_writebacks 241495
Core_0_LLC_writeback_hit 235886
Core_0_LLC_writeback_miss 5609
Core_0_LLC_prefetch_requested 0
Core_0_LLC_prefetch_dropped 0
Core_0_LLC_prefetch_issued 0
Core_0_LLC_prefetch_filled 0
Core_0_LLC_prefetch_useful 0
Core_0_LLC_prefetch_useless 0
Core_0_LLC_prefetch_late 0
Core_0_LLC_average_miss_latency 300.15556

Core_0_LLC_rq_access 490835
Core_0_LLC_rq_forward 0
Core_0_LLC_rq_merged 0
Core_0_LLC_rq_to_cache 490835
Core_0_LLC_rq_full 0

Core_0_LLC_wq_access 241495
Core_0_LLC_wq_forward 0
Core_0_LLC_wq_merged 0
Core_0_LLC_wq_to_cache 241495
Core_0_LLC_wq_full 0

Core_0_LLC_pq_access 0
Core_0_LLC_pq_forward 0
Core_0_LLC_pq_merged 0
Core_0_LLC_pq_to_cache 0
Core_0_LLC_pq_full 0

Core_0_LLC_acc_epochs 59032
Core_0_LLC_acc_level_0 59032
Core_0_LLC_acc_level_1 0
Core_0_LLC_acc_level_2 0
Core_0_LLC_acc_level_3 0
Core_0_LLC_acc_level_4 0
Core_0_LLC_acc_level_5 0
Core_0_LLC_acc_level_6 0
Core_0_LLC_acc_level_7 0
Core_0_LLC_acc_level_8 0
Core_0_LLC_acc_level_9 0

Core_0_major_page_fault 0
Core_0_minor_page_fault 5200

Channel_0_RQ_row_buffer_hit 72771
Channel_0_RQ_row_buffer_miss 182391
Channel_0_WQ_row_buffer_hit 30753
Channel_0_WQ_row_buffer_miss 110485
Channel_0_WQ_full 0
Channel_0_dbus_congested 159376

avg_congested_cycle 11

DRAM_bw_pochs 236126
DRAM_bw_level_0 213110
DRAM_bw_level_1 15491
DRAM_bw_level_2 6762
DRAM_bw_level_3 763
