*************************************************
   ChampSim Multicore Out-of-Order Simulator
   Last compiled: Apr  3 2025 20:54:34
*************************************************
parsing config file: /home/zir/Pythia/config/nopref.ini

trace_0 /home/zir/ChampSim/ML-DPC/ChampSimTraces/spec06/437.leslie3d-s1.trace.gz
adding L2C_PREFETCHER: NONE
Initialize SHIP state
warmup_instructions 10000000
simulation_instructions 50000000
champsim_seed 164
measure_ipc 0
measure_ipc_epoch 1000
measure_dram_bw 1
measure_dram_bw_epoch 256
measure_cache_acc 1
measure_cache_acc_epoch 1024
l1d_perfect 0
l2c_perfect 0
llc_perfect 0
l1d_semi_perfect 0
l2c_semi_perfect 0
llc_semi_perfect 0
semi_perfect_cache_page_buffer_size 64

num_cpus 1
cpu_freq 4000
dram_io_freq 2400
page_size 4096
block_size 64
max_read_per_cycle 8
max_fill_per_cycle 1
dram_channels 1
log2_dram_channels 0
dram_ranks 1
dram_banks 8
dram_rows 65536
dram_columns 128
dram_row_size 8
dram_size 4096
dram_pages 1048576

fetch_width 6
decode_width 6
exec_width 4
lq_width 2
sq_width 2
retire_width 4
scheduler_size 128
branch_mispredict_penalty 20
rob_size 256
lq_size 72
sq_size 56
num_instr_destinations_sparc 4
num_instr_destinations 2
num_instr_sources 4

itlb_set 16
itlb_way 8
itlb_rq_size 16
itlb_wq_size 16
itlb_pq_size 0
itlb_mshr_size 8
itlb_latency 1

dtlb_set 16
dtlb_way 4
dtlb_rq_size 16
dtlb_wq_size 16
dtlb_pq_size 0
dtlb_mshr_size 8
dtlb_latency 1

stlb_set 128
stlb_way 12
stlb_rq_size 32
stlb_wq_size 32
stlb_pq_size 0
stlb_mshr_size 16
stlb_latency 8

l1i_size 32
l1i_set 64
l1i_way 8
l1i_rq_size 64
l1i_wq_size 64
l1i_pq_size 8
l1i_mshr_size 8
l1i_latency 1

l1d_size 32
l1d_set 64
l1d_way 8
l1d_rq_size 64
l1d_wq_size 64
l1d_pq_size 8
l1d_mshr_size 16
l1d_latency 4

l2c_size 256
l2c_set 512
l2c_way 8
l2c_rq_size 32
l2c_wq_size 32
l2c_pq_size 32
l2c_mshr_size 32
l2c_latency 10

llc_size 2048
llc_set 2048
llc_way 16
llc_rq_size 32
llc_wq_size 32
llc_pq_size 32
llc_mshr_size 64
llc_latency 20

dram_channel_width 8
dram_wq_size 64
dram_rq_size 64
tRP 15
tRCD 15
tCAS 12.5
dram_dbus_turn_around_time 30
dram_write_high_wm 56
dram_write_low_wm 48
min_dram_writes_per_switch 16
dram_mtps 2400
dram_dbus_return_time 13


Heartbeat CPU  0 instructions:    1000002 cycles:     541529 heartbeat IPC: 1.84663 cumulative IPC: 1.84663 (Simulation time: 0 hr 0 min 1 sec) 
Heartbeat CPU  0 instructions:    2000003 cycles:    1132733 heartbeat IPC: 1.69147 cumulative IPC: 1.76564 (Simulation time: 0 hr 0 min 3 sec) 
Heartbeat CPU  0 instructions:    3000001 cycles:    1723946 heartbeat IPC: 1.69143 cumulative IPC: 1.74019 (Simulation time: 0 hr 0 min 5 sec) 
Heartbeat CPU  0 instructions:    4000000 cycles:    2289350 heartbeat IPC: 1.76865 cumulative IPC: 1.74722 (Simulation time: 0 hr 0 min 7 sec) 
Heartbeat CPU  0 instructions:    5000003 cycles:    2857035 heartbeat IPC: 1.76155 cumulative IPC: 1.75007 (Simulation time: 0 hr 0 min 9 sec) 
Heartbeat CPU  0 instructions:    6000003 cycles:    3448607 heartbeat IPC: 1.69041 cumulative IPC: 1.73983 (Simulation time: 0 hr 0 min 11 sec) 
Heartbeat CPU  0 instructions:    7000001 cycles:    4039595 heartbeat IPC: 1.69208 cumulative IPC: 1.73285 (Simulation time: 0 hr 0 min 12 sec) 
Heartbeat CPU  0 instructions:    8000000 cycles:    4581013 heartbeat IPC: 1.84700 cumulative IPC: 1.74634 (Simulation time: 0 hr 0 min 14 sec) 
Heartbeat CPU  0 instructions:    9000000 cycles:    5171928 heartbeat IPC: 1.69229 cumulative IPC: 1.74016 (Simulation time: 0 hr 0 min 16 sec) 
Heartbeat CPU  0 instructions:   10000001 cycles:    5762760 heartbeat IPC: 1.69253 cumulative IPC: 1.73528 (Simulation time: 0 hr 0 min 18 sec) 

Warmup complete CPU  0 instructions:   10000001 cycles:    5762760 (Simulation time: 0 hr 0 min 18 sec) 

Heartbeat CPU  0 instructions:   11000000 cycles:    7609143 heartbeat IPC: 0.54160 cumulative IPC: 0.54160 (Simulation time: 0 hr 0 min 20 sec) 
Heartbeat CPU  0 instructions:   12000000 cycles:    9445721 heartbeat IPC: 0.54449 cumulative IPC: 0.54304 (Simulation time: 0 hr 0 min 23 sec) 
Heartbeat CPU  0 instructions:   13000001 cycles:   11186758 heartbeat IPC: 0.57437 cumulative IPC: 0.55310 (Simulation time: 0 hr 0 min 25 sec) 
Heartbeat CPU  0 instructions:   14000000 cycles:   12909404 heartbeat IPC: 0.58050 cumulative IPC: 0.55970 (Simulation time: 0 hr 0 min 28 sec) 
Heartbeat CPU  0 instructions:   15000002 cycles:   14931744 heartbeat IPC: 0.49448 cumulative IPC: 0.54532 (Simulation time: 0 hr 0 min 30 sec) 
Heartbeat CPU  0 instructions:   16000000 cycles:   16707705 heartbeat IPC: 0.56307 cumulative IPC: 0.54820 (Simulation time: 0 hr 0 min 32 sec) 
Heartbeat CPU  0 instructions:   17000003 cycles:   18482650 heartbeat IPC: 0.56340 cumulative IPC: 0.55032 (Simulation time: 0 hr 0 min 35 sec) 
Heartbeat CPU  0 instructions:   18000002 cycles:   20446954 heartbeat IPC: 0.50909 cumulative IPC: 0.54480 (Simulation time: 0 hr 0 min 37 sec) 
Heartbeat CPU  0 instructions:   19000003 cycles:   22244030 heartbeat IPC: 0.55646 cumulative IPC: 0.54607 (Simulation time: 0 hr 0 min 40 sec) 
Heartbeat CPU  0 instructions:   20000000 cycles:   24001030 heartbeat IPC: 0.56915 cumulative IPC: 0.54830 (Simulation time: 0 hr 0 min 42 sec) 
Heartbeat CPU  0 instructions:   21000002 cycles:   25805940 heartbeat IPC: 0.55405 cumulative IPC: 0.54882 (Simulation time: 0 hr 0 min 44 sec) 
Heartbeat CPU  0 instructions:   22000003 cycles:   27781342 heartbeat IPC: 0.50623 cumulative IPC: 0.54499 (Simulation time: 0 hr 0 min 47 sec) 
Heartbeat CPU  0 instructions:   23000003 cycles:   29554873 heartbeat IPC: 0.56385 cumulative IPC: 0.54640 (Simulation time: 0 hr 0 min 49 sec) 
Heartbeat CPU  0 instructions:   24000000 cycles:   31332905 heartbeat IPC: 0.56242 cumulative IPC: 0.54751 (Simulation time: 0 hr 0 min 52 sec) 
Heartbeat CPU  0 instructions:   25000003 cycles:   33324552 heartbeat IPC: 0.50210 cumulative IPC: 0.54423 (Simulation time: 0 hr 0 min 54 sec) 
Heartbeat CPU  0 instructions:   26000000 cycles:   35076874 heartbeat IPC: 0.57067 cumulative IPC: 0.54581 (Simulation time: 0 hr 0 min 57 sec) 
Heartbeat CPU  0 instructions:   27000003 cycles:   36837451 heartbeat IPC: 0.56800 cumulative IPC: 0.54707 (Simulation time: 0 hr 0 min 59 sec) 
Heartbeat CPU  0 instructions:   28000000 cycles:   38764175 heartbeat IPC: 0.51901 cumulative IPC: 0.54543 (Simulation time: 0 hr 1 min 1 sec) 
Heartbeat CPU  0 instructions:   29000002 cycles:   40587291 heartbeat IPC: 0.54851 cumulative IPC: 0.54559 (Simulation time: 0 hr 1 min 4 sec) 
Heartbeat CPU  0 instructions:   30000002 cycles:   42370234 heartbeat IPC: 0.56087 cumulative IPC: 0.54634 (Simulation time: 0 hr 1 min 6 sec) 
Heartbeat CPU  0 instructions:   31000001 cycles:   44104695 heartbeat IPC: 0.57655 cumulative IPC: 0.54770 (Simulation time: 0 hr 1 min 9 sec) 
Heartbeat CPU  0 instructions:   32000000 cycles:   46103096 heartbeat IPC: 0.50040 cumulative IPC: 0.54536 (Simulation time: 0 hr 1 min 11 sec) 
Heartbeat CPU  0 instructions:   33000000 cycles:   47870412 heartbeat IPC: 0.56583 cumulative IPC: 0.54622 (Simulation time: 0 hr 1 min 14 sec) 
Heartbeat CPU  0 instructions:   34000002 cycles:   49631813 heartbeat IPC: 0.56773 cumulative IPC: 0.54708 (Simulation time: 0 hr 1 min 16 sec) 
Heartbeat CPU  0 instructions:   35000002 cycles:   51595642 heartbeat IPC: 0.50921 cumulative IPC: 0.54546 (Simulation time: 0 hr 1 min 18 sec) 
Heartbeat CPU  0 instructions:   36000000 cycles:   53373373 heartbeat IPC: 0.56251 cumulative IPC: 0.54610 (Simulation time: 0 hr 1 min 21 sec) 
Heartbeat CPU  0 instructions:   37000002 cycles:   55138946 heartbeat IPC: 0.56639 cumulative IPC: 0.54682 (Simulation time: 0 hr 1 min 23 sec) 
Heartbeat CPU  0 instructions:   38000003 cycles:   56960468 heartbeat IPC: 0.54899 cumulative IPC: 0.54690 (Simulation time: 0 hr 1 min 26 sec) 
Heartbeat CPU  0 instructions:   39000001 cycles:   58875446 heartbeat IPC: 0.52220 cumulative IPC: 0.54601 (Simulation time: 0 hr 1 min 28 sec) 
Heartbeat CPU  0 instructions:   40000000 cycles:   60644471 heartbeat IPC: 0.56528 cumulative IPC: 0.54663 (Simulation time: 0 hr 1 min 31 sec) 
Heartbeat CPU  0 instructions:   41000001 cycles:   62417548 heartbeat IPC: 0.56399 cumulative IPC: 0.54717 (Simulation time: 0 hr 1 min 33 sec) 
Heartbeat CPU  0 instructions:   42000003 cycles:   64396989 heartbeat IPC: 0.50519 cumulative IPC: 0.54576 (Simulation time: 0 hr 1 min 35 sec) 
Heartbeat CPU  0 instructions:   43000001 cycles:   66145837 heartbeat IPC: 0.57180 cumulative IPC: 0.54651 (Simulation time: 0 hr 1 min 38 sec) 
Heartbeat CPU  0 instructions:   44000000 cycles:   67917704 heartbeat IPC: 0.56438 cumulative IPC: 0.54702 (Simulation time: 0 hr 1 min 40 sec) 
Heartbeat CPU  0 instructions:   45000001 cycles:   70009085 heartbeat IPC: 0.47815 cumulative IPC: 0.54478 (Simulation time: 0 hr 1 min 43 sec) 
Heartbeat CPU  0 instructions:   46000000 cycles:   72871604 heartbeat IPC: 0.34934 cumulative IPC: 0.53644 (Simulation time: 0 hr 1 min 45 sec) 
Heartbeat CPU  0 instructions:   47000001 cycles:   75758805 heartbeat IPC: 0.34636 cumulative IPC: 0.52860 (Simulation time: 0 hr 1 min 48 sec) 
Heartbeat CPU  0 instructions:   48000000 cycles:   78421892 heartbeat IPC: 0.37550 cumulative IPC: 0.52299 (Simulation time: 0 hr 1 min 51 sec) 
Heartbeat CPU  0 instructions:   49000001 cycles:   81187305 heartbeat IPC: 0.36161 cumulative IPC: 0.51707 (Simulation time: 0 hr 1 min 54 sec) 
Heartbeat CPU  0 instructions:   50000001 cycles:   83840687 heartbeat IPC: 0.37688 cumulative IPC: 0.51231 (Simulation time: 0 hr 1 min 57 sec) 
Heartbeat CPU  0 instructions:   51000000 cycles:   86588516 heartbeat IPC: 0.36392 cumulative IPC: 0.50726 (Simulation time: 0 hr 1 min 59 sec) 
Heartbeat CPU  0 instructions:   52000000 cycles:   89243627 heartbeat IPC: 0.37663 cumulative IPC: 0.50311 (Simulation time: 0 hr 2 min 2 sec) 
Heartbeat CPU  0 instructions:   53000002 cycles:   91991228 heartbeat IPC: 0.36395 cumulative IPC: 0.49868 (Simulation time: 0 hr 2 min 5 sec) 
Heartbeat CPU  0 instructions:   54000002 cycles:   94648696 heartbeat IPC: 0.37630 cumulative IPC: 0.49502 (Simulation time: 0 hr 2 min 8 sec) 
Heartbeat CPU  0 instructions:   55000000 cycles:   97658248 heartbeat IPC: 0.33227 cumulative IPC: 0.48969 (Simulation time: 0 hr 2 min 10 sec) 
Heartbeat CPU  0 instructions:   56000000 cycles:  100794562 heartbeat IPC: 0.31885 cumulative IPC: 0.48405 (Simulation time: 0 hr 2 min 13 sec) 
Heartbeat CPU  0 instructions:   57000002 cycles:  104311013 heartbeat IPC: 0.28438 cumulative IPC: 0.47692 (Simulation time: 0 hr 2 min 16 sec) 
Heartbeat CPU  0 instructions:   58000001 cycles:  108353926 heartbeat IPC: 0.24735 cumulative IPC: 0.46788 (Simulation time: 0 hr 2 min 19 sec) 
Heartbeat CPU  0 instructions:   59000002 cycles:  113894300 heartbeat IPC: 0.18049 cumulative IPC: 0.45315 (Simulation time: 0 hr 2 min 23 sec) 
Heartbeat CPU  0 instructions:   60000000 cycles:  119355214 heartbeat IPC: 0.18312 cumulative IPC: 0.44017 (Simulation time: 0 hr 2 min 28 sec) 
Finished CPU 0 instructions: 50000000 cycles: 113592462 cumulative IPC: 0.44017 (Simulation time: 0 hr 2 min 28 sec) 

ChampSim completed all CPUs

[ROI Statistics]
Core_0_instructions 50000000
Core_0_cycles 113592462
Core_0_IPC 0.44017

Core_0_branch_prediction_accuracy 98.44449
Core_0_branch_MPKI 0.79430
Core_0_average_ROB_occupancy_at_mispredict 246.18960

Core_0_L1D_total_access 13271862
Core_0_L1D_total_hit 10982074
Core_0_L1D_total_miss 2289788
Core_0_L1D_loads 9130764
Core_0_L1D_load_hit 7353983
Core_0_L1D_load_miss 1776781
Core_0_L1D_RFOs 4141098
Core_0_L1D_RFO_hit 3628091
Core_0_L1D_RFO_miss 513007
Core_0_L1D_prefetches 0
Core_0_L1D_prefetch_hit 0
Core_0_L1D_prefetch_miss 0
Core_0_L1D_writebacks 0
Core_0_L1D_writeback_hit 0
Core_0_L1D_writeback_miss 0
Core_0_L1D_prefetch_requested 0
Core_0_L1D_prefetch_dropped 0
Core_0_L1D_prefetch_issued 0
Core_0_L1D_prefetch_filled 0
Core_0_L1D_prefetch_useful 0
Core_0_L1D_prefetch_useless 0
Core_0_L1D_prefetch_late 0
Core_0_L1D_average_miss_latency 166.71423

Core_0_L1D_rq_access 20621573
Core_0_L1D_rq_forward 0
Core_0_L1D_rq_merged 9632370
Core_0_L1D_rq_to_cache 10989168
Core_0_L1D_rq_full 0

Core_0_L1D_wq_access 6416910
Core_0_L1D_wq_forward 35
Core_0_L1D_wq_merged 6723
Core_0_L1D_wq_to_cache 6410187
Core_0_L1D_wq_full 0

Core_0_L1D_pq_access 0
Core_0_L1D_pq_forward 0
Core_0_L1D_pq_merged 0
Core_0_L1D_pq_to_cache 0
Core_0_L1D_pq_full 0

Core_0_L1D_acc_epochs 115005
Core_0_L1D_acc_level_0 115005
Core_0_L1D_acc_level_1 0
Core_0_L1D_acc_level_2 0
Core_0_L1D_acc_level_3 0
Core_0_L1D_acc_level_4 0
Core_0_L1D_acc_level_5 0
Core_0_L1D_acc_level_6 0
Core_0_L1D_acc_level_7 0
Core_0_L1D_acc_level_8 0
Core_0_L1D_acc_level_9 0

Core_0_L1I_total_access 11624204
Core_0_L1I_total_hit 11624037
Core_0_L1I_total_miss 167
Core_0_L1I_loads 11624204
Core_0_L1I_load_hit 11624037
Core_0_L1I_load_miss 167
Core_0_L1I_RFOs 0
Core_0_L1I_RFO_hit 0
Core_0_L1I_RFO_miss 0
Core_0_L1I_prefetches 0
Core_0_L1I_prefetch_hit 0
Core_0_L1I_prefetch_miss 0
Core_0_L1I_writebacks 0
Core_0_L1I_writeback_hit 0
Core_0_L1I_writeback_miss 0
Core_0_L1I_prefetch_requested 0
Core_0_L1I_prefetch_dropped 0
Core_0_L1I_prefetch_issued 0
Core_0_L1I_prefetch_filled 0
Core_0_L1I_prefetch_useful 0
Core_0_L1I_prefetch_useless 0
Core_0_L1I_prefetch_late 0
Core_0_L1I_average_miss_latency 280.47305

Core_0_L1I_rq_access 49999980
Core_0_L1I_rq_forward 0
Core_0_L1I_rq_merged 38375578
Core_0_L1I_rq_to_cache 11624402
Core_0_L1I_rq_full 0

Core_0_L1I_wq_access 0
Core_0_L1I_wq_forward 0
Core_0_L1I_wq_merged 0
Core_0_L1I_wq_to_cache 0
Core_0_L1I_wq_full 0

Core_0_L1I_pq_access 0
Core_0_L1I_pq_forward 0
Core_0_L1I_pq_merged 0
Core_0_L1I_pq_to_cache 0
Core_0_L1I_pq_full 0

Core_0_L1I_acc_epochs 115005
Core_0_L1I_acc_level_0 115005
Core_0_L1I_acc_level_1 0
Core_0_L1I_acc_level_2 0
Core_0_L1I_acc_level_3 0
Core_0_L1I_acc_level_4 0
Core_0_L1I_acc_level_5 0
Core_0_L1I_acc_level_6 0
Core_0_L1I_acc_level_7 0
Core_0_L1I_acc_level_8 0
Core_0_L1I_acc_level_9 0

Core_0_L2C_total_access 2984315
Core_0_L2C_total_hit 1230417
Core_0_L2C_total_miss 1753898
Core_0_L2C_loads 1776775
Core_0_L2C_load_hit 372699
Core_0_L2C_load_miss 1404076
Core_0_L2C_RFOs 512983
Core_0_L2C_RFO_hit 163228
Core_0_L2C_RFO_miss 349755
Core_0_L2C_prefetches 0
Core_0_L2C_prefetch_hit 0
Core_0_L2C_prefetch_miss 0
Core_0_L2C_writebacks 694557
Core_0_L2C_writeback_hit 694490
Core_0_L2C_writeback_miss 67
Core_0_L2C_prefetch_requested 0
Core_0_L2C_prefetch_dropped 0
Core_0_L2C_prefetch_issued 0
Core_0_L2C_prefetch_filled 0
Core_0_L2C_prefetch_useful 0
Core_0_L2C_prefetch_useless 0
Core_0_L2C_prefetch_late 0
Core_0_L2C_average_miss_latency 198.92978

Core_0_L2C_rq_access 2289957
Core_0_L2C_rq_forward 0
Core_0_L2C_rq_merged 0
Core_0_L2C_rq_to_cache 2289760
Core_0_L2C_rq_full 0

Core_0_L2C_wq_access 694557
Core_0_L2C_wq_forward 197
Core_0_L2C_wq_merged 0
Core_0_L2C_wq_to_cache 694557
Core_0_L2C_wq_full 0

Core_0_L2C_pq_access 0
Core_0_L2C_pq_forward 0
Core_0_L2C_pq_merged 0
Core_0_L2C_pq_to_cache 0
Core_0_L2C_pq_full 0

Core_0_L2C_acc_epochs 115005
Core_0_L2C_acc_level_0 115005
Core_0_L2C_acc_level_1 0
Core_0_L2C_acc_level_2 0
Core_0_L2C_acc_level_3 0
Core_0_L2C_acc_level_4 0
Core_0_L2C_acc_level_5 0
Core_0_L2C_acc_level_6 0
Core_0_L2C_acc_level_7 0
Core_0_L2C_acc_level_8 0
Core_0_L2C_acc_level_9 0

Core_0_LLC_total_access 2208070
Core_0_LLC_total_hit 649221
Core_0_LLC_total_miss 1558849
Core_0_LLC_loads 1404076
Core_0_LLC_load_hit 373060
Core_0_LLC_load_miss 1031016
Core_0_LLC_RFOs 349755
Core_0_LLC_RFO_hit 96227
Core_0_LLC_RFO_miss 253528
Core_0_LLC_prefetches 0
Core_0_LLC_prefetch_hit 0
Core_0_LLC_prefetch_miss 0
Core_0_LLC_writebacks 454239
Core_0_LLC_writeback_hit 179934
Core_0_LLC_writeback_miss 274305
Core_0_LLC_prefetch_requested 0
Core_0_LLC_prefetch_dropped 0
Core_0_LLC_prefetch_issued 0
Core_0_LLC_prefetch_filled 0
Core_0_LLC_prefetch_useful 0
Core_0_LLC_prefetch_useless 0
Core_0_LLC_prefetch_late 0
Core_0_LLC_average_miss_latency 189.54164

Core_0_LLC_rq_access 1753833
Core_0_LLC_rq_forward 0
Core_0_LLC_rq_merged 0
Core_0_LLC_rq_to_cache 1753833
Core_0_LLC_rq_full 0

Core_0_LLC_wq_access 454239
Core_0_LLC_wq_forward 0
Core_0_LLC_wq_merged 0
Core_0_LLC_wq_to_cache 454239
Core_0_LLC_wq_full 0

Core_0_LLC_pq_access 0
Core_0_LLC_pq_forward 0
Core_0_LLC_pq_merged 0
Core_0_LLC_pq_to_cache 0
Core_0_LLC_pq_full 0

Core_0_LLC_acc_epochs 116558
Core_0_LLC_acc_level_0 116558
Core_0_LLC_acc_level_1 0
Core_0_LLC_acc_level_2 0
Core_0_LLC_acc_level_3 0
Core_0_LLC_acc_level_4 0
Core_0_LLC_acc_level_5 0
Core_0_LLC_acc_level_6 0
Core_0_LLC_acc_level_7 0
Core_0_LLC_acc_level_8 0
Core_0_LLC_acc_level_9 0

Core_0_major_page_fault 0
Core_0_minor_page_fault 12097

Channel_0_RQ_row_buffer_hit 442794
Channel_0_RQ_row_buffer_miss 841749
Channel_0_WQ_row_buffer_hit 206707
Channel_0_WQ_row_buffer_miss 153936
Channel_0_WQ_full 0
Channel_0_dbus_congested 627029

avg_congested_cycle 9

DRAM_bw_pochs 466232
DRAM_bw_level_0 218387
DRAM_bw_level_1 189595
DRAM_bw_level_2 54631
DRAM_bw_level_3 3619
