*************************************************
   ChampSim Multicore Out-of-Order Simulator
   Last compiled: Apr  3 2025 20:54:34
*************************************************
parsing config file: /home/zir/Pythia/config/mlop.ini

trace_0 /home/zir/ChampSim/ML-DPC/ChampSimTraces/spec17/607.cactuBSSN-s2.trace.xz
adding L2C_PREFETCHER: MLOP
Initialize SHIP state
warmup_instructions 10000000
simulation_instructions 50000000
champsim_seed 165
measure_ipc 0
measure_ipc_epoch 1000
measure_dram_bw 1
measure_dram_bw_epoch 256
measure_cache_acc 1
measure_cache_acc_epoch 1024
l1d_perfect 0
l2c_perfect 0
llc_perfect 0
l1d_semi_perfect 0
l2c_semi_perfect 0
llc_semi_perfect 0
semi_perfect_cache_page_buffer_size 64

num_cpus 1
cpu_freq 4000
dram_io_freq 2400
page_size 4096
block_size 64
max_read_per_cycle 8
max_fill_per_cycle 1
dram_channels 1
log2_dram_channels 0
dram_ranks 1
dram_banks 8
dram_rows 65536
dram_columns 128
dram_row_size 8
dram_size 4096
dram_pages 1048576

fetch_width 6
decode_width 6
exec_width 4
lq_width 2
sq_width 2
retire_width 4
scheduler_size 128
branch_mispredict_penalty 20
rob_size 256
lq_size 72
sq_size 56
num_instr_destinations_sparc 4
num_instr_destinations 2
num_instr_sources 4

itlb_set 16
itlb_way 8
itlb_rq_size 16
itlb_wq_size 16
itlb_pq_size 0
itlb_mshr_size 8
itlb_latency 1

dtlb_set 16
dtlb_way 4
dtlb_rq_size 16
dtlb_wq_size 16
dtlb_pq_size 0
dtlb_mshr_size 8
dtlb_latency 1

stlb_set 128
stlb_way 12
stlb_rq_size 32
stlb_wq_size 32
stlb_pq_size 0
stlb_mshr_size 16
stlb_latency 8

l1i_size 32
l1i_set 64
l1i_way 8
l1i_rq_size 64
l1i_wq_size 64
l1i_pq_size 8
l1i_mshr_size 8
l1i_latency 1

l1d_size 32
l1d_set 64
l1d_way 8
l1d_rq_size 64
l1d_wq_size 64
l1d_pq_size 8
l1d_mshr_size 16
l1d_latency 4

l2c_size 256
l2c_set 512
l2c_way 8
l2c_rq_size 32
l2c_wq_size 32
l2c_pq_size 32
l2c_mshr_size 32
l2c_latency 10

llc_size 2048
llc_set 2048
llc_way 16
llc_rq_size 32
llc_wq_size 32
llc_pq_size 32
llc_mshr_size 64
llc_latency 20

dram_channel_width 8
dram_wq_size 64
dram_rq_size 64
tRP 15
tRCD 15
tCAS 12.5
dram_dbus_turn_around_time 30
dram_write_high_wm 56
dram_write_low_wm 48
min_dram_writes_per_switch 16
dram_mtps 2400
dram_dbus_return_time 13

mlop_pref_degree 16
mlop_num_updates 500
mlop_l1d_thresh 2
mlop_l2c_thresh 0.75
mlop_llc_thresh 0.3
mlop_debug_level 0
mlop_blocks_in_cache 4096
mlop_blocks_in_zone 64
mlop_amt_size 2048
mlop_PF_DEGREE 16
mlop_NUM_UPDATES 500
mlop_L1D_THRESH 1000
mlop_L2C_THRESH 375
mlop_LLC_THRESH 150
mlop_ORIGIN 63
mlop_MAX_OFFSET 63
mlop_MIN_OFFSET -63
mlop_ORIGIN 63
mlop_NUM_OFFSETS 127


Heartbeat CPU  0 instructions:    1000002 cycles:     570473 heartbeat IPC: 1.75293 cumulative IPC: 1.75293 (Simulation time: 0 hr 0 min 2 sec) 
Heartbeat CPU  0 instructions:    2000001 cycles:    1140202 heartbeat IPC: 1.75522 cumulative IPC: 1.75408 (Simulation time: 0 hr 0 min 4 sec) 
Heartbeat CPU  0 instructions:    3000000 cycles:    1710537 heartbeat IPC: 1.75335 cumulative IPC: 1.75384 (Simulation time: 0 hr 0 min 6 sec) 
Heartbeat CPU  0 instructions:    4000000 cycles:    2280329 heartbeat IPC: 1.75503 cumulative IPC: 1.75413 (Simulation time: 0 hr 0 min 8 sec) 
Heartbeat CPU  0 instructions:    5000003 cycles:    2850468 heartbeat IPC: 1.75396 cumulative IPC: 1.75410 (Simulation time: 0 hr 0 min 10 sec) 
Heartbeat CPU  0 instructions:    6000003 cycles:    3420560 heartbeat IPC: 1.75410 cumulative IPC: 1.75410 (Simulation time: 0 hr 0 min 12 sec) 
Heartbeat CPU  0 instructions:    7000000 cycles:    3990911 heartbeat IPC: 1.75330 cumulative IPC: 1.75399 (Simulation time: 0 hr 0 min 14 sec) 
Heartbeat CPU  0 instructions:    8000000 cycles:    4560884 heartbeat IPC: 1.75447 cumulative IPC: 1.75405 (Simulation time: 0 hr 0 min 16 sec) 
Heartbeat CPU  0 instructions:    9000002 cycles:    5130862 heartbeat IPC: 1.75446 cumulative IPC: 1.75409 (Simulation time: 0 hr 0 min 18 sec) 
Heartbeat CPU  0 instructions:   10000000 cycles:    5700795 heartbeat IPC: 1.75459 cumulative IPC: 1.75414 (Simulation time: 0 hr 0 min 20 sec) 

Warmup complete CPU  0 instructions:   10000001 cycles:    5700796 (Simulation time: 0 hr 0 min 20 sec) 

Heartbeat CPU  0 instructions:   11000003 cycles:    6591545 heartbeat IPC: 1.12265 cumulative IPC: 1.12265 (Simulation time: 0 hr 0 min 22 sec) 
Heartbeat CPU  0 instructions:   12000000 cycles:    7482094 heartbeat IPC: 1.12290 cumulative IPC: 1.12278 (Simulation time: 0 hr 0 min 25 sec) 
Heartbeat CPU  0 instructions:   13000003 cycles:    8366779 heartbeat IPC: 1.13035 cumulative IPC: 1.12529 (Simulation time: 0 hr 0 min 27 sec) 
Heartbeat CPU  0 instructions:   14000000 cycles:    9259578 heartbeat IPC: 1.12007 cumulative IPC: 1.12398 (Simulation time: 0 hr 0 min 29 sec) 
Heartbeat CPU  0 instructions:   15000001 cycles:   10145421 heartbeat IPC: 1.12887 cumulative IPC: 1.12495 (Simulation time: 0 hr 0 min 31 sec) 
Heartbeat CPU  0 instructions:   16000000 cycles:   11030731 heartbeat IPC: 1.12955 cumulative IPC: 1.12572 (Simulation time: 0 hr 0 min 34 sec) 
Heartbeat CPU  0 instructions:   17000002 cycles:   11919571 heartbeat IPC: 1.12506 cumulative IPC: 1.12562 (Simulation time: 0 hr 0 min 36 sec) 
Heartbeat CPU  0 instructions:   18000001 cycles:   12804302 heartbeat IPC: 1.13029 cumulative IPC: 1.12620 (Simulation time: 0 hr 0 min 38 sec) 
Heartbeat CPU  0 instructions:   19000003 cycles:   13690027 heartbeat IPC: 1.12902 cumulative IPC: 1.12652 (Simulation time: 0 hr 0 min 40 sec) 
Heartbeat CPU  0 instructions:   20000000 cycles:   14576127 heartbeat IPC: 1.12854 cumulative IPC: 1.12672 (Simulation time: 0 hr 0 min 42 sec) 
Heartbeat CPU  0 instructions:   21000002 cycles:   15462743 heartbeat IPC: 1.12789 cumulative IPC: 1.12682 (Simulation time: 0 hr 0 min 45 sec) 
Heartbeat CPU  0 instructions:   22000003 cycles:   16347777 heartbeat IPC: 1.12990 cumulative IPC: 1.12708 (Simulation time: 0 hr 0 min 47 sec) 
Heartbeat CPU  0 instructions:   23000001 cycles:   17241282 heartbeat IPC: 1.11919 cumulative IPC: 1.12647 (Simulation time: 0 hr 0 min 49 sec) 
Heartbeat CPU  0 instructions:   24000000 cycles:   18127663 heartbeat IPC: 1.12818 cumulative IPC: 1.12659 (Simulation time: 0 hr 0 min 51 sec) 
Heartbeat CPU  0 instructions:   25000000 cycles:   19011211 heartbeat IPC: 1.13180 cumulative IPC: 1.12694 (Simulation time: 0 hr 0 min 54 sec) 
Heartbeat CPU  0 instructions:   26000001 cycles:   19894162 heartbeat IPC: 1.13257 cumulative IPC: 1.12729 (Simulation time: 0 hr 0 min 56 sec) 
Heartbeat CPU  0 instructions:   27000003 cycles:   20781583 heartbeat IPC: 1.12686 cumulative IPC: 1.12726 (Simulation time: 0 hr 0 min 58 sec) 
Heartbeat CPU  0 instructions:   28000000 cycles:   21669412 heartbeat IPC: 1.12634 cumulative IPC: 1.12721 (Simulation time: 0 hr 1 min 0 sec) 
Heartbeat CPU  0 instructions:   29000002 cycles:   22554071 heartbeat IPC: 1.13038 cumulative IPC: 1.12738 (Simulation time: 0 hr 1 min 2 sec) 
Heartbeat CPU  0 instructions:   30000003 cycles:   23443255 heartbeat IPC: 1.12463 cumulative IPC: 1.12724 (Simulation time: 0 hr 1 min 5 sec) 
Heartbeat CPU  0 instructions:   31000000 cycles:   24330989 heartbeat IPC: 1.12646 cumulative IPC: 1.12720 (Simulation time: 0 hr 1 min 7 sec) 
Heartbeat CPU  0 instructions:   32000000 cycles:   25213848 heartbeat IPC: 1.13268 cumulative IPC: 1.12745 (Simulation time: 0 hr 1 min 9 sec) 
Heartbeat CPU  0 instructions:   33000000 cycles:   26104873 heartbeat IPC: 1.12230 cumulative IPC: 1.12723 (Simulation time: 0 hr 1 min 11 sec) 
Heartbeat CPU  0 instructions:   34000000 cycles:   26992153 heartbeat IPC: 1.12704 cumulative IPC: 1.12722 (Simulation time: 0 hr 1 min 14 sec) 
Heartbeat CPU  0 instructions:   35000001 cycles:   27877000 heartbeat IPC: 1.13014 cumulative IPC: 1.12733 (Simulation time: 0 hr 1 min 16 sec) 
Heartbeat CPU  0 instructions:   36000000 cycles:   28765872 heartbeat IPC: 1.12502 cumulative IPC: 1.12725 (Simulation time: 0 hr 1 min 18 sec) 
Heartbeat CPU  0 instructions:   37000002 cycles:   29653375 heartbeat IPC: 1.12676 cumulative IPC: 1.12723 (Simulation time: 0 hr 1 min 20 sec) 
Heartbeat CPU  0 instructions:   38000002 cycles:   30538840 heartbeat IPC: 1.12935 cumulative IPC: 1.12730 (Simulation time: 0 hr 1 min 22 sec) 
Heartbeat CPU  0 instructions:   39000001 cycles:   31423195 heartbeat IPC: 1.13077 cumulative IPC: 1.12742 (Simulation time: 0 hr 1 min 25 sec) 
Heartbeat CPU  0 instructions:   40000000 cycles:   32307685 heartbeat IPC: 1.13059 cumulative IPC: 1.12753 (Simulation time: 0 hr 1 min 27 sec) 
Heartbeat CPU  0 instructions:   41000002 cycles:   33194227 heartbeat IPC: 1.12798 cumulative IPC: 1.12754 (Simulation time: 0 hr 1 min 29 sec) 
Heartbeat CPU  0 instructions:   42000000 cycles:   34082305 heartbeat IPC: 1.12602 cumulative IPC: 1.12749 (Simulation time: 0 hr 1 min 31 sec) 
Heartbeat CPU  0 instructions:   43000002 cycles:   34969212 heartbeat IPC: 1.12752 cumulative IPC: 1.12750 (Simulation time: 0 hr 1 min 34 sec) 
Heartbeat CPU  0 instructions:   44000000 cycles:   35856934 heartbeat IPC: 1.12648 cumulative IPC: 1.12747 (Simulation time: 0 hr 1 min 36 sec) 
Heartbeat CPU  0 instructions:   45000002 cycles:   36740424 heartbeat IPC: 1.13188 cumulative IPC: 1.12759 (Simulation time: 0 hr 1 min 38 sec) 
Heartbeat CPU  0 instructions:   46000002 cycles:   37630085 heartbeat IPC: 1.12402 cumulative IPC: 1.12749 (Simulation time: 0 hr 1 min 40 sec) 
Heartbeat CPU  0 instructions:   47000003 cycles:   38514983 heartbeat IPC: 1.13007 cumulative IPC: 1.12756 (Simulation time: 0 hr 1 min 43 sec) 
Heartbeat CPU  0 instructions:   48000000 cycles:   39400063 heartbeat IPC: 1.12984 cumulative IPC: 1.12762 (Simulation time: 0 hr 1 min 45 sec) 
Heartbeat CPU  0 instructions:   49000003 cycles:   40286978 heartbeat IPC: 1.12751 cumulative IPC: 1.12762 (Simulation time: 0 hr 1 min 47 sec) 
Heartbeat CPU  0 instructions:   50000000 cycles:   41177765 heartbeat IPC: 1.12260 cumulative IPC: 1.12749 (Simulation time: 0 hr 1 min 49 sec) 
Heartbeat CPU  0 instructions:   51000002 cycles:   42060901 heartbeat IPC: 1.13233 cumulative IPC: 1.12761 (Simulation time: 0 hr 1 min 51 sec) 
Heartbeat CPU  0 instructions:   52000000 cycles:   42950066 heartbeat IPC: 1.12465 cumulative IPC: 1.12754 (Simulation time: 0 hr 1 min 54 sec) 
Heartbeat CPU  0 instructions:   53000003 cycles:   43838278 heartbeat IPC: 1.12586 cumulative IPC: 1.12750 (Simulation time: 0 hr 1 min 56 sec) 
Heartbeat CPU  0 instructions:   54000000 cycles:   44722448 heartbeat IPC: 1.13100 cumulative IPC: 1.12758 (Simulation time: 0 hr 1 min 58 sec) 
Heartbeat CPU  0 instructions:   55000000 cycles:   45611397 heartbeat IPC: 1.12492 cumulative IPC: 1.12752 (Simulation time: 0 hr 2 min 0 sec) 
Heartbeat CPU  0 instructions:   56000000 cycles:   46495866 heartbeat IPC: 1.13062 cumulative IPC: 1.12759 (Simulation time: 0 hr 2 min 3 sec) 
Heartbeat CPU  0 instructions:   57000001 cycles:   47383775 heartbeat IPC: 1.12624 cumulative IPC: 1.12756 (Simulation time: 0 hr 2 min 5 sec) 
Heartbeat CPU  0 instructions:   58000000 cycles:   48267153 heartbeat IPC: 1.13202 cumulative IPC: 1.12765 (Simulation time: 0 hr 2 min 7 sec) 
Heartbeat CPU  0 instructions:   59000002 cycles:   49153223 heartbeat IPC: 1.12858 cumulative IPC: 1.12767 (Simulation time: 0 hr 2 min 9 sec) 
Heartbeat CPU  0 instructions:   60000000 cycles:   50037352 heartbeat IPC: 1.13105 cumulative IPC: 1.12774 (Simulation time: 0 hr 2 min 12 sec) 
Finished CPU 0 instructions: 50000000 cycles: 44336603 cumulative IPC: 1.12774 (Simulation time: 0 hr 2 min 12 sec) 

ChampSim completed all CPUs

[ROI Statistics]
Core_0_instructions 50000000
Core_0_cycles 44336603
Core_0_IPC 1.12774

Core_0_branch_prediction_accuracy 99.98365
Core_0_branch_MPKI 0.00110
Core_0_average_ROB_occupancy_at_mispredict 253.34545

Core_0_L1D_total_access 19648291
Core_0_L1D_total_hit 15641751
Core_0_L1D_total_miss 4006540
Core_0_L1D_loads 15648015
Core_0_L1D_load_hit 11970231
Core_0_L1D_load_miss 3677784
Core_0_L1D_RFOs 4000276
Core_0_L1D_RFO_hit 3671520
Core_0_L1D_RFO_miss 328756
Core_0_L1D_prefetches 0
Core_0_L1D_prefetch_hit 0
Core_0_L1D_prefetch_miss 0
Core_0_L1D_writebacks 0
Core_0_L1D_writeback_hit 0
Core_0_L1D_writeback_miss 0
Core_0_L1D_prefetch_requested 0
Core_0_L1D_prefetch_dropped 0
Core_0_L1D_prefetch_issued 0
Core_0_L1D_prefetch_filled 0
Core_0_L1D_prefetch_useful 0
Core_0_L1D_prefetch_useless 0
Core_0_L1D_prefetch_late 0
Core_0_L1D_average_miss_latency 21.43825

Core_0_L1D_rq_access 19272779
Core_0_L1D_rq_forward 0
Core_0_L1D_rq_merged 3438777
Core_0_L1D_rq_to_cache 15833798
Core_0_L1D_rq_full 0

Core_0_L1D_wq_access 4053156
Core_0_L1D_wq_forward 204
Core_0_L1D_wq_merged 26765
Core_0_L1D_wq_to_cache 4026391
Core_0_L1D_wq_full 0

Core_0_L1D_pq_access 0
Core_0_L1D_pq_forward 0
Core_0_L1D_pq_merged 0
Core_0_L1D_pq_to_cache 0
Core_0_L1D_pq_full 0

Core_0_L1D_acc_epochs 48666
Core_0_L1D_acc_level_0 48666
Core_0_L1D_acc_level_1 0
Core_0_L1D_acc_level_2 0
Core_0_L1D_acc_level_3 0
Core_0_L1D_acc_level_4 0
Core_0_L1D_acc_level_5 0
Core_0_L1D_acc_level_6 0
Core_0_L1D_acc_level_7 0
Core_0_L1D_acc_level_8 0
Core_0_L1D_acc_level_9 0

Core_0_L1I_total_access 11582750
Core_0_L1I_total_hit 10282744
Core_0_L1I_total_miss 1300006
Core_0_L1I_loads 11582750
Core_0_L1I_load_hit 10282744
Core_0_L1I_load_miss 1300006
Core_0_L1I_RFOs 0
Core_0_L1I_RFO_hit 0
Core_0_L1I_RFO_miss 0
Core_0_L1I_prefetches 0
Core_0_L1I_prefetch_hit 0
Core_0_L1I_prefetch_miss 0
Core_0_L1I_writebacks 0
Core_0_L1I_writeback_hit 0
Core_0_L1I_writeback_miss 0
Core_0_L1I_prefetch_requested 0
Core_0_L1I_prefetch_dropped 0
Core_0_L1I_prefetch_issued 0
Core_0_L1I_prefetch_filled 0
Core_0_L1I_prefetch_useful 0
Core_0_L1I_prefetch_useless 0
Core_0_L1I_prefetch_late 0
Core_0_L1I_average_miss_latency 11.76214

Core_0_L1I_rq_access 50000004
Core_0_L1I_rq_forward 0
Core_0_L1I_rq_merged 36906821
Core_0_L1I_rq_to_cache 13093183
Core_0_L1I_rq_full 0

Core_0_L1I_wq_access 0
Core_0_L1I_wq_forward 0
Core_0_L1I_wq_merged 0
Core_0_L1I_wq_to_cache 0
Core_0_L1I_wq_full 0

Core_0_L1I_pq_access 0
Core_0_L1I_pq_forward 0
Core_0_L1I_pq_merged 0
Core_0_L1I_pq_to_cache 0
Core_0_L1I_pq_full 0

Core_0_L1I_acc_epochs 48666
Core_0_L1I_acc_level_0 48666
Core_0_L1I_acc_level_1 0
Core_0_L1I_acc_level_2 0
Core_0_L1I_acc_level_3 0
Core_0_L1I_acc_level_4 0
Core_0_L1I_acc_level_5 0
Core_0_L1I_acc_level_6 0
Core_0_L1I_acc_level_7 0
Core_0_L1I_acc_level_8 0
Core_0_L1I_acc_level_9 0

Core_0_L2C_total_access 5993507
Core_0_L2C_total_hit 5516181
Core_0_L2C_total_miss 477326
Core_0_L2C_loads 4976934
Core_0_L2C_load_hit 4859097
Core_0_L2C_load_miss 117837
Core_0_L2C_RFOs 328348
Core_0_L2C_RFO_hit 290003
Core_0_L2C_RFO_miss 38345
Core_0_L2C_prefetches 320909
Core_0_L2C_prefetch_hit 7
Core_0_L2C_prefetch_miss 320902
Core_0_L2C_writebacks 367316
Core_0_L2C_writeback_hit 367074
Core_0_L2C_writeback_miss 242
Core_0_L2C_prefetch_requested 404009
Core_0_L2C_prefetch_dropped 0
Core_0_L2C_prefetch_issued 404009
Core_0_L2C_prefetch_filled 397889
Core_0_L2C_prefetch_useful 368824
Core_0_L2C_prefetch_useless 28270
Core_0_L2C_prefetch_late 37
Core_0_L2C_average_miss_latency 128.83998

Core_0_L2C_rq_access 5306552
Core_0_L2C_rq_forward 0
Core_0_L2C_rq_merged 0
Core_0_L2C_rq_to_cache 5305285
Core_0_L2C_rq_full 0

Core_0_L2C_wq_access 367316
Core_0_L2C_wq_forward 1267
Core_0_L2C_wq_merged 0
Core_0_L2C_wq_to_cache 367316
Core_0_L2C_wq_full 0

Core_0_L2C_pq_access 404009
Core_0_L2C_pq_forward 0
Core_0_L2C_pq_merged 8
Core_0_L2C_pq_to_cache 404001
Core_0_L2C_pq_full 0

Core_0_L2C_acc_epochs 48666
Core_0_L2C_acc_level_0 20023
Core_0_L2C_acc_level_1 5427
Core_0_L2C_acc_level_2 3448
Core_0_L2C_acc_level_3 2579
Core_0_L2C_acc_level_4 3238
Core_0_L2C_acc_level_5 2922
Core_0_L2C_acc_level_6 2111
Core_0_L2C_acc_level_7 2625
Core_0_L2C_acc_level_8 2385
Core_0_L2C_acc_level_9 3908

Core_0_LLC_total_access 515818
Core_0_LLC_total_hit 381853
Core_0_LLC_total_miss 133965
Core_0_LLC_loads 117797
Core_0_LLC_load_hit 115761
Core_0_LLC_load_miss 2036
Core_0_LLC_RFOs 37972
Core_0_LLC_RFO_hit 8547
Core_0_LLC_RFO_miss 29425
Core_0_LLC_prefetches 321164
Core_0_LLC_prefetch_hit 221312
Core_0_LLC_prefetch_miss 99852
Core_0_LLC_writebacks 38885
Core_0_LLC_writeback_hit 36233
Core_0_LLC_writeback_miss 2652
Core_0_LLC_prefetch_requested 0
Core_0_LLC_prefetch_dropped 0
Core_0_LLC_prefetch_issued 0
Core_0_LLC_prefetch_filled 125145
Core_0_LLC_prefetch_useful 54321
Core_0_LLC_prefetch_useless 56346
Core_0_LLC_prefetch_late 0
Core_0_LLC_average_miss_latency 350.98387

Core_0_LLC_rq_access 156146
Core_0_LLC_rq_forward 0
Core_0_LLC_rq_merged 0
Core_0_LLC_rq_to_cache 155769
Core_0_LLC_rq_full 0

Core_0_LLC_wq_access 38885
Core_0_LLC_wq_forward 378
Core_0_LLC_wq_merged 0
Core_0_LLC_wq_to_cache 38885
Core_0_LLC_wq_full 0

Core_0_LLC_pq_access 403814
Core_0_LLC_pq_forward 0
Core_0_LLC_pq_merged 0
Core_0_LLC_pq_to_cache 403813
Core_0_LLC_pq_full 0

Core_0_LLC_acc_epochs 48865
Core_0_LLC_acc_level_0 41795
Core_0_LLC_acc_level_1 2011
Core_0_LLC_acc_level_2 1188
Core_0_LLC_acc_level_3 936
Core_0_LLC_acc_level_4 559
Core_0_LLC_acc_level_5 696
Core_0_LLC_acc_level_6 386
Core_0_LLC_acc_level_7 280
Core_0_LLC_acc_level_8 158
Core_0_LLC_acc_level_9 856

Core_0_major_page_fault 0
Core_0_minor_page_fault 2672

[MLOP] History of tracked zone:
IIIIIIIIIIIIIIIIIIIIIIIIIIIIIIIIIIIIIIIIIIIIIIIIIIIIIIIIIIIIIIII
IIIIIIIIIIIIIIIIIIIAIIIIIIIIIIIIIIIIIIIIIIIIIIIIIIIIIIIIIIIIIIII
IIIIIIIIIIIIIIIIIIIA4IIIIIIIIIIIIIIIIIIIIIIIIIIIIIIIIIIIIIIIIIII
IIIIIIIIIIIIIIIIIIIAA44444444444444IIIIIIIIIIIIIIIIIIIIIIIIIIIII
IIIIIIIIIIIIIIIIIIIAA44444444444444IIIIIIII4IIIIIIIIIIIIIIIIIIII
IIIIIIIIIIIIIIIIIIIAAA4444444444444IIIIIIII44IIIIIIIIIIIIIIIIIII
A24IIIIIIIIIIIIIIIIAAA4444444444444IIIIIIII44IIIIIIIIIIIIIIIIIII
A24IIIIIIIIIIIIIIIIAAAA244444444444IIIIIIII44IIIIIIIIIIIIIIIIIII
A24IIIIIIIIIIIIIIIIAAAAI44444444444IIIIIIII44IIIIIIIIIIIIIIIIIII
AA24IIIIIIIIIIIIIIIAAAAI44444444444IIIIIIII44IIIIIIIIIIIIIIIIIII
AA24IIIIIIIIIIIIIIIAAAA244444444444IIIIIIII44IIIIIIIIIIIIIIIIIII
AA24IIIIIIIIIIIIIIIAAAAA24444444444IIIIIIII44IIIIIIIIIIIIIIIIIII
AA224IIIIIIIIIIIIIIAAAAA24444444444IIIIIIII44IIIIIIIIIIIIIIIIIII
AA224IIIIIIIIIIIIIIAAAAA22444444444IIIIIIII44IIIIIIIIIIIIIIIIIII
AA224IIIIIIIIIIIIIIAAAAAI2444444444IIIIIIII44IIIIIIIIIIIIIIIIIII
AA224IIIIIIIIIIIIIIAAAAA22444444444IIIIIIII44IIIIIIIIIIIIIIIIIII
AAA224IIIIIIIIIIIIIAAAAA22444444444IIIIIIII44IIIIIIIIIIIIIIIIIII
AAA224IIIIIIIIIIIIIAAAAA2I444444444IIIIIIII44IIIIIIIIIIIIIIIIIII
AAA224IIIIIIIIIIIIIAAAAA22444444444IIIIIIII44IIIIIIIIIIIIIIIIIII
AAA224IIIIIIIIIIIIIAAAAAI2444444444IIIIIIII44IIIIIIIIIIIIIIIIIII
AAA224IIIIIIIIIIIIIAAAAA22444444444IIIIIIII44IIIIIIIIIIIIIIIIIII
AAA224IIIIIIIIIIIIIAAAAA2I444444444IIIIIIII44IIIIIIIIIIIIIIIIIII
AAA224IIIIIIIIIIIIIAAAAA22444444444IIIIIIII44IIIIIIIIIIIIIIIIIII
AAA224IIIIIIIIIIIIIAAAAAI2444444444IIIIIIII44IIIIIIIIIIIIIIIIIII
AAA224IIIIIIIIIIIIIAAAAAA2244444444IIIIIIII44IIIIIIIIIIIIIIIIIII
AAA224IIIIIIIIIIIIIAAAAAAI244444444IIIIIIII44IIIIIIIIIIIIIIIIIII
AAA224IIIIIIIIIIIIIAAAAAA2244444444IIIIIIII44IIIIIIIIIIIIIIIIIII
AAA224IIIIIIIIIIIIIAAAAAAI244444444IIIIIIII44IIIIIIIIIIIIIIIIIII
AAA224IIIIIIIIIIIIIAAAAAA2244444444IIIIIIII44IIIIIIIIIIIIIIIIIII
AAA224IIIIIIIIIIIIIAAAAAAI244444444IIIIIIII44IIIIIIIIIIIIIIIIIII
AAAA2422IIIIIIIIIIIAAAAAAI244444444IIIIIIII44IIIIIIIIIIIIIIIIIII
AAAA2422IIIIIIIIIIIAAAAAA2222444444IIIIIIII44IIIIIIIIIIIIIIIIIII
AAAA24I2IIIIIIIIIIIAAAAAA2222444444IIIIIIII44IIIIIIIIIIIIIIIIIII
AAAA2422IIIIIIIIIIIAAAAAA2222444444IIIIIIII44IIIIIIIIIIIIIIIIIII
AAAA2422IIIIIIIIIIIAAAAAA222I444444IIIIIIII44IIIIIIIIIIIIIIIIIII
AAAA24I2IIIIIIIIIIIAAAAAA222I444444IIIIIIII44IIIIIIIIIIIIIIIIIII
AAAA2422IIIIIIIIIIIAAAAAA222I444444IIIIIIII44IIIIIIIIIIIIIIIIIII
AAAA2422IIIIIIIIIIIAAAAAA2222444444IIIIIIII44IIIIIIIIIIIIIIIIIII
AAAA24I2IIIIIIIIIIIAAAAAA2222444444IIIIIIII44IIIIIIIIIIIIIIIIIII
AAAA2422IIIIIIIIIIIAAAAAA2222444444IIIIIIII44IIIIIIIIIIIIIIIIIII
AAAA2422IIIIIIIIIIIAAAAAA222I444444IIIIIIII44IIIIIIIIIIIIIIIIIII
AAAA242IIIIIIIIIIIIAAAAAA222I444444IIIIIIII44IIIIIIIIIIIIIIIIIII
AAAA24IIIIIIIIIIIIIAAAAAA222I444444IIIIIIII44IIIIIIIIIIIIIIIIIII
AAAA2422IIIIIIIIIIIAAAAAA222I444444IIIIIIII44IIIIIIIIIIIIIIIIIII
AAAA2422IIIIIIIIIIIAAAAAAA222244444IIIIIIII44IIIIIIIIIIIIIIIIIII
AAAA242IIIIIIIIIIIIAAAAAAA222244444IIIIIIII44IIIIIIIIIIIIIIIIIII
AAAA2422IIIIIIIIIIIAAAAAAA222244444IIIIIIII44IIIIIIIIIIIIIIIIIII
AAAA2422IIIIIIIIIIIAAAAAAA22I244444IIIIIIII44IIIIIIIIIIIIIIIIIII
AAAA242IIIIIIIIIIIIAAAAAAA22I244444IIIIIIII44IIIIIIIIIIIIIIIIIII
AAAA2422IIIIIIIIIIIAAAAAAA22I244444IIIIIIII44IIIIIIIIIIIIIIIIIII
AAAA2422IIIIIIIIIIIAAAAAAA222244444IIIIIIII44IIIIIIIIIIIIIIIIIII
AAAA242IIIIIIIIIIIIAAAAAAA222244444IIIIIIII44IIIIIIIIIIIIIIIIIII
AAAA242IIIIIIIIIIIIAAAAAAA2I2244444IIIIIIII44IIIIIIIIIIIIIIIIIII
AAAA242IIIIIIIIIIIIAAAAAAAII2244444IIIIIIII44IIIIIIIIIIIIIIIIIII
AAAA242IIIIIIIIIIIIAAAAAAAIII244444IIIIIIII44IIIIIIIIIIIIIIIIIII
AAAAA2222IIIIIIIIIIAAAAAAAIII244444IIIIIIII44IIIIIIIIIIIIIIIIIII
AAAAA2222IIIIIIIIIIAAAAAAA2I2244444IIIIIIII44IIIIIIIIIIIIIIIIIII
AAAAA2222IIIIIIIIIIAAAAAAAII2244444IIIIIIII44IIIIIIIIIIIIIIIIIII
AAAAA2222IIIIIIIIIIAAAAAAA2I2244444IIIIIIII44IIIIIIIIIIIIIIIIIII
AAAAA22I2IIIIIIIIIIAAAAAAA2I2244444IIIIIIII44IIIIIIIIIIIIIIIIIII
AAAAA22I2IIIIIIIIIIAAAAAAA2I2I44444IIIIIIII44IIIIIIIIIIIIIIIIIII
AAAAA22I2IIIIIIIIIIAAAAIAA2I2I44444IIIIIIII44IIIIIIIIIIIIIIIIIII
AAAAA2222IIIIIIIIIIAAAAIAA2I2I44444IIIIIIII44IIIIIIIIIIIIIIIIIII
AAAAA2222IIIIIIIIIIAAAAIAA2I2244444IIIIIIII44IIIIIIIIIIIIIIIIIII
AAAAAI222IIIIIIIIIIAAAAIAA2I2244444IIIIIIII44IIIIIIIIIIIIIIIIIII
AAAAAII22IIIIIIIIIIAAAAIAA2I2244444IIIIIIII44IIIIIIIIIIIIIIIIIII
AAAAA2222IIIIIIIIIIAAAAIAA2I2244444IIIIIIII44IIIIIIIIIIIIIIIIIII
AAAAA2222IIIIIIIIIIAAAAIAA222244444IIIIIIII44IIIIIIIIIIIIIIIIIII
AAAAA2222IIIIIIIIIIAAAAIAA22I244444IIIIIIII44IIIIIIIIIIIIIIIIIII
AAAAA2222IIIIIIIIIIAAAAIAAA22244444IIIIIIII44IIIIIIIIIIIIIIIIIII
AAAAA2222IIIIIIIIIIAAAAIAAAI2244444IIIIIIII44IIIIIIIIIIIIIIIIIII
AAAAA22I2IIIIIIIIIIAAAAIAAAI2244444IIIIIIII44IIIIIIIIIIIIIIIIIII
AAAAA2222IIIIIIIIIIAAAAIAAAI2244444IIIIIIII44IIIIIIIIIIIIIIIIIII
AAAAA2222IIIIIIIIIIAAAAIAAA22244444IIIIIIII44IIIIIIIIIIIIIIIIIII
AAAAA2222IIIIIIIIIIAAAAIAAA2I244444IIIIIIII44IIIIIIIIIIIIIIIIIII
AAAAA2222IIIIIIIIIIAAAAIAAA22244444IIIIIIII44IIIIIIIIIIIIIIIIIII
AAAAA2222IIIIIIIIIIAAAAIAAAI2244444IIIIIIII44IIIIIIIIIIIIIIIIIII
AAAAA2222IIIIIIIIIIAAAAIAAA22244444IIIIIIII44IIIIIIIIIIIIIIIIIII
AAAAA2222IIIIIIIIIIAAAAIAAA2I244444IIIIIIII44IIIIIIIIIIIIIIIIIII
AAAAA2222IIIIIIIIIIAAAAIAAAII244444IIIIIIII44IIIIIIIIIIIIIIIIIII
AAAAA2222IIIIIIIIIIAAAAIAAAIII44444IIIIIIII44IIIIIIIIIIIIIIIIIII
AAAAAA222IIIIIIIIIIAAAAIAAAIII44444IIIIIIII44IIIIIIIIIIIIIIIIIII
AAAAAA222IIIIIIIIIIAAAAIAAA22244444IIIIIIII44IIIIIIIIIIIIIIIIIII
AAAAAA222IIIIIIIIIIAAAAIAAA2I244444IIIIIIII44IIIIIIIIIIIIIIIIIII
AAAAAA222IIIIIIIIIIAAAAIAAA2II44444IIIIIIII44IIIIIIIIIIIIIIIIIII
AAAAAA222IIIIIIIIIIAAAAIAAA22244444IIIIIIII44IIIIIIIIIIIIIIIIIII
AAAAAA222IIIIIIIIIIAAAAIAAA2I244444IIIIIIII44IIIIIIIIIIIIIIIIIII
AAAAAA222IIIIIIIIIIAAAAIAAA2II44444IIIIIIII44IIIIIIIIIIIIIIIIIII
AAAAAA222IIIIIIIIIIAAAAIAAAA2224444IIIIIIII44IIIIIIIIIIIIIIIIIII
AAAAAA22IIIIIIIIIIIAAAAIAAAA2224444IIIIIIII44IIIIIIIIIIIIIIIIIII
AAAAAA222IIIIIIIIIIAAAAIAAAA2224444IIIIIIII44IIIIIIIIIIIIIIIIIII
AAAAAA222IIIIIIIIIIAAAAIAAAAI224444IIIIIIII44IIIIIIIIIIIIIIIIIII
AAAAAA22IIIIIIIIIIIAAAAIAAAAI224444IIIIIIII44IIIIIIIIIIIIIIIIIII
AAAAAA22IIIIIIIIIIIAAAAIAAAAII24444IIIIIIII44IIIIIIIIIIIIIIIIIII
AAAAAA222IIIIIIIIIIAAAAIAAAAII24444IIIIIIII44IIIIIIIIIIIIIIIIIII
AAAAAA222IIIIIIIIIIAAAAIAAAA2224444IIIIIIII44IIIIIIIIIIIIIIIIIII
AAAAAA22IIIIIIIIIIIAAAAIAAAA2224444IIIIIIII44IIIIIIIIIIIIIIIIIII
AAAAAA222IIIIIIIIIIAAAAIAAAA2224444IIIIIIII44IIIIIIIIIIIIIIIIIII
AAAAAA222IIIIIIIIIIAAAAIAAAAI224444IIIIIIII44IIIIIIIIIIIIIIIIIII
AAAAAA222IIIIIIIIIIAAAAIAAAAII24444IIIIIIII44IIIIIIIIIIIIIIIIIII
AAAAAAA222IIIIIIIIIAAAAIAAAAII24444IIIIIIII44IIIIIIIIIIIIIIIIIII
AAAAAAA222IIIIIIIIIAAAAIAAAA2224444IIIIIIII44IIIIIIIIIIIIIIIIIII
AAAAAAA222IIIIIIIIIAAAAIAAAA22I4444IIIIIIII44IIIIIIIIIIIIIIIIIII
AAAAAAA222IIIIIIIIIAAAAIAAAAI2I4444IIIIIIII44IIIIIIIIIIIIIIIIIII
AAAAAAA222IIIIIIIIIAAAAIAAAAIII4444IIIIIIII44IIIIIIIIIIIIIIIIIII
AAAAAAA222IIIIIIIIIAAAAIAAAA2224444IIIIIIII44IIIIIIIIIIIIIIIIIII
AAAAAAA222IIIIIIIIIAAAAIIAAA2224444IIIIIIII44IIIIIIIIIIIIIIIIIII
AAAAAAA222IIIIIIIIIAAAAIIAAAI224444IIIIIIII44IIIIIIIIIIIIIIIIIII
AAAAAAA222IIIIIIIIIAAAAIIAAAII24444IIIIIIII44IIIIIIIIIIIIIIIIIII
AAAAAAA222IIIIIIIIIAAAAIIAAAIII4444IIIIIIII44IIIIIIIIIIIIIIIIIII
AAAAAAA222IIIIIIIIIAAAAIIAAAA222444IIIIIIII44IIIIIIIIIIIIIIIIIII
AAAAAAA22IIIIIIIIIIAAAAIIAAAA222444IIIIIIII44IIIIIIIIIIIIIIIIIII
AAAAAAA222IIIIIIIIIAAAAIIAAAA222444IIIIIIII44IIIIIIIIIIIIIIIIIII
AIAAAAA222IIIIIIIIIAAAAIIAAAA222444IIIIIIII44IIIIIIIIIIIIIIIIIII
AIIAAAA222IIIIIIIIIAAAAIIAAAA222444IIIIIIII44IIIIIIIIIIIIIIIIIII
AIIIAAA222IIIIIIIIIAAAAIIAAAA222444IIIIIIII44IIIIIIIIIIIIIIIIIII
AIIIAAA22IIIIIIIIIIAAAAIIAAAA222444IIIIIIII44IIIIIIIIIIIIIIIIIII
AIIIAAA22IIIIIIIIIIAAAAIIAAAAI22444IIIIIIII44IIIIIIIIIIIIIIIIIII
AIIIAAA22IIIIIIIIIIAAAAIIAAAAII2444IIIIIIII44IIIIIIIIIIIIIIIIIII
AIIIAAA222IIIIIIIIIAAAAIIAAAAII2444IIIIIIII44IIIIIIIIIIIIIIIIIII
AIIIAAA222IIIIIIIIIAAAAIIAAAA222444IIIIIIII44IIIIIIIIIIIIIIIIIII
AIIIAAA22IIIIIIIIIIAAAAIIAAAA222444IIIIIIII44IIIIIIIIIIIIIIIIIII
AIIIAAA222IIIIIIIIIAAAAIIAAAA222444IIIIIIII44IIIIIIIIIIIIIIIIIII
AIIIAAA222IIIIIIIIIAAAAIIAAAAI22444IIIIIIII44IIIIIIIIIIIIIIIIIII
AIIIAAA222IIIIIIIIIAAAAIIAAAAII2444IIIIIIII44IIIIIIIIIIIIIIIIIII
AIIIAAAA222IIIIIIIIAAAAIIAAAAII2444IIIIIIII44IIIIIIIIIIIIIIIIIII
AIIIAAAA222IIIIIIIIAAAAIIAAAA222444IIIIIIII44IIIIIIIIIIIIIIIIIII
AIIIAAAA222IIIIIIIIAAAAIIIAAA222444IIIIIIII44IIIIIIIIIIIIIIIIIII
AIIIAAAA222IIIIIIIIAAAAIIIAAAI22444IIIIIIII44IIIIIIIIIIIIIIIIIII
AIIIAAAA222IIIIIIIIAAAAIIIAAAII2444IIIIIIII44IIIIIIIIIIIIIIIIIII
AIIIAAAA222IIIIIIIIAAAAIIIAAA222444IIIIIIII44IIIIIIIIIIIIIIIIIII
AIIIAAAA222IIIIIIIIAAAAIIIAAAI22444IIIIIIII44IIIIIIIIIIIIIIIIIII
AIIIAAAA222IIIIIIIIAAAAIIIAAAII2444IIIIIIII44IIIIIIIIIIIIIIIIIII
AIIIAAAA222IIIIIIIIAAAAIIIAAAA22244IIIIIIII44IIIIIIIIIIIIIIIIIII
AIIIAAAA22IIIIIIIIIAAAAIIIAAAA22244IIIIIIII44IIIIIIIIIIIIIIIIIII
AIIIAAAA222IIIIIIIIAAAAIIIAAAA22244IIIIIIII44IIIIIIIIIIIIIIIIIII
AIIIIAAA222IIIIIIIIAAAAIIIAAAA22244IIIIIIII44IIIIIIIIIIIIIIIIIII
AIIIIAAA22IIIIIIIIIAAAAIIIAAAA22244IIIIIIII44IIIIIIIIIIIIIIIIIII
AIIIIAAA22IIIIIIIIIAAAAIIIAAAAI2244IIIIIIII44IIIIIIIIIIIIIIIIIII
AIIIIAAA222IIIIIIIIAAAAIIIAAAAI2244IIIIIIII44IIIIIIIIIIIIIIIIIII
AIIIIAAA222IIIIIIIIAAAAIIIAAAA22244IIIIIIII44IIIIIIIIIIIIIIIIIII
AIIIIAAA22IIIIIIIIIAAAAIIIAAAA22244IIIIIIII44IIIIIIIIIIIIIIIIIII
AIIIIAAA222IIIIIIIIAAAAIIIAAAA22244IIIIIIII44IIIIIIIIIIIIIIIIIII
AIIIIAAA222IIIIIIIIAAAAIIIAAAAI2244IIIIIIII44IIIIIIIIIIIIIIIIIII
AIIIIAAAA222IIIIIIIAAAAIIIAAAAI2244IIIIIIII44IIIIIIIIIIIIIIIIIII
AIIIIAAAA222IIIIIIIAAAAIIIAAAA22244IIIIIIII44IIIIIIIIIIIIIIIIIII
AIIIIAAAA222IIIIIIIAAAAIIIIAAA22244IIIIIIII44IIIIIIIIIIIIIIIIIII
AIIIIAAAA222IIIIIIIAAAAIIIIAAAI2244IIIIIIII44IIIIIIIIIIIIIIIIIII
AIIIIAAAA222IIIIIIIAAAAIIIIAAA22244IIIIIIII44IIIIIIIIIIIIIIIIIII
AIIIIAAAA222IIIIIIIAAAAIIIIAAAI2244IIIIIIII44IIIIIIIIIIIIIIIIIII
AIIIIAAAA222IIIIIIIAAAAIIIIAAAA2224IIIIIIII44IIIIIIIIIIIIIIIIIII
AIIIIAAAA22IIIIIIIIAAAAIIIIAAAA2224IIIIIIII44IIIIIIIIIIIIIIIIIII
AIIIIAAAA222IIIIIIIAAAAIIIIAAAA2224IIIIIIII44IIIIIIIIIIIIIIIIIII
AIIIIAAAA22IIIIIIIIAAAAIIIIAAAA2224IIIIIIII44IIIIIIIIIIIIIIIIIII
AIIIIAAAA222IIIIIIIAAAAIIIIAAAA2224IIIIIIII44IIIIIIIIIIIIIIIIIII
AIIIIAAAA22IIIIIIIIAAAAIIIIAAAA2224IIIIIIII44IIIIIIIIIIIIIIIIIII
AIIIIAAAA222IIIIIIIAAAAIIIIAAAA2224IIIIIIII44IIIIIIIIIIIIIIIIIII
AIIIIAAAA22IIIIIIIIAAAAIIIIAAAA2224IIIIIIII44IIIIIIIIIIIIIIIIIII
AIIIIAAAAA222IIIIIIAAAAIIIIAAAA2224IIIIIIII44IIIIIIIIIIIIIIIIIII
AIIIIAAAAA2I2IIIIIIAAAAIIIIAAAA2224IIIIIIII44IIIIIIIIIIIIIIIIIII
AIIIIAAAAA222IIIIIIAAAAIIIIAAAA2224IIIIIIII44IIIIIIIIIIIIIIIIIII
AIIIIAAAAA222IIIIIIAAAAIIIIIAAA2224IIIIIIII44IIIIIIIIIIIIIIIIIII
AIIIIAAAAA222IIIIIIAAAAIIIIIAAAA222IIIIIIII44IIIIIIIIIIIIIIIIIII
AIIIIAAAAA22IIIIIIIAAAAIIIIIAAAA222IIIIIIII44IIIIIIIIIIIIIIIIIII
AIIIIAAAAA222IIIIIIAAAAIIIIIAAAA222IIIIIIII44IIIIIIIIIIIIIIIIIII
AIIIIAAAAA22IIIIIIIAAAAIIIIIAAAA222IIIIIIII44IIIIIIIIIIIIIIIIIII
AIIIIAAAAA222IIIIIIAAAAIIIIIAAAA222IIIIIIII44IIIIIIIIIIIIIIIIIII
AIIIIAAAAAA222IIIIIAAAAIIIIIAAAA222IIIIIIII44IIIIIIIIIIIIIIIIIII
AIIIIAAAAAA2I2IIIIIAAAAIIIIIAAAA222IIIIIIII44IIIIIIIIIIIIIIIIIII
AIIIIAAAAAA222IIIIIAAAAIIIIIAAAA222IIIIIIII44IIIIIIIIIIIIIIIIIII
AIIIIAAAAAA2I2IIIIIAAAAIIIIIAAAA222IIIIIIII44IIIIIIIIIIIIIIIIIII
AIIIIAAAAAA2I2IIIIIAAAAIIIIIIAAA222IIIIIIII44IIIIIIIIIIIIIIIIIII
AIIIIAAAAAA222IIIIIAAAAIIIIIIAAA222IIIIIIII44IIIIIIIIIIIIIIIIIII
AIIIIAAAAAA222IIIIIAAAAIIIIIIAAAA222IIIIIII44IIIIIIIIIIIIIIIIIII
AIIIIAAAAAA2I2IIIIIAAAAIIIIIIAAAA222IIIIIII44IIIIIIIIIIIIIIIIIII
AIIIIAAAAAA2IIIIIIIAAAAIIIIIIAAAA222IIIIIII44IIIIIIIIIIIIIIIIIII
AIIIIAAAAAA222IIIIIAAAAIIIIIIAAAA222IIIIIII44IIIIIIIIIIIIIIIIIII
AIIIIAAAAAA22IIIIIIAAAAIIIIIIAAAA222IIIIIII44IIIIIIIIIIIIIIIIIII
AIIIIAAAAAA222IIIIIAAAAIIIIIIAAAA222IIIIIII44IIIIIIIIIIIIIIIIIII
AIIIIAAAAAA2I2IIIIIAAAAIIIIIIAAAA222IIIIIII44IIIIIIIIIIIIIIIIIII
AIIIIAAAAAA2IIIIIIIAAAAIIIIIIAAAA222IIIIIII44IIIIIIIIIIIIIIIIIII
AIIIIAAAAAA222IIIIIAAAAIIIIIIAAAA222IIIIIII44IIIIIIIIIIIIIIIIIII
AIIIIAAAAAA22IIIIIIAAAAIIIIIIAAAA222IIIIIII44IIIIIIIIIIIIIIIIIII
AIIIIAAAAAAA222IIIIAAAAIIIIIIAAAA222IIIIIII44IIIIIIIIIIIIIIIIIII
AIIIIAAAAAAAI22IIIIAAAAIIIIIIAAAA222IIIIIII44IIIIIIIIIIIIIIIIIII
AIIIIAAAAAAAII2IIIIAAAAIIIIIIAAAA222IIIIIII44IIIIIIIIIIIIIIIIIII
AIIIIAAAAAAA222IIIIAAAAIIIIIIAAAA222IIIIIII44IIIIIIIIIIIIIIIIIII
AIIIIAAAAAAA2I2IIIIAAAAIIIIIIAAAA222IIIIIII44IIIIIIIIIIIIIIIIIII
AIIIIAAAAAAA222IIIIAAAAIIIIIIAAAA222IIIIIII44IIIIIIIIIIIIIIIIIII
AIIIIAAAAAAAI22IIIIAAAAIIIIIIAAAA222IIIIIII44IIIIIIIIIIIIIIIIIII
AIIIIAAAAAAAI22IIIIAAAAIIIIIIIAAA222IIIIIII44IIIIIIIIIIIIIIIIIII
AIIIIAAAAAAAII2IIIIAAAAIIIIIIIAAA222IIIIIII44IIIIIIIIIIIIIIIIIII
AIIIIAAAAAAA222IIIIAAAAIIIIIIIAAA222IIIIIII44IIIIIIIIIIIIIIIIIII
AIIIIAAAAAAA2I2IIIIAAAAIIIIIIIAAA222IIIIIII44IIIIIIIIIIIIIIIIIII
AIIIIAAAAAAA222IIIIAAAAIIIIIIIAAA222IIIIIII44IIIIIIIIIIIIIIIIIII
AIIIIAAAAAAA222IIIIAAAAIIIIIIIAAAA222IIIIII44IIIIIIIIIIIIIIIIIII
AIIIIAAAAAAA2I2IIIIAAAAIIIIIIIAAAA222IIIIII44IIIIIIIIIIIIIIIIIII
AIIIIAAAAAAA2IIIIIIAAAAIIIIIIIAAAA222IIIIII44IIIIIIIIIIIIIIIIIII
AIIIIAAAAAAA222IIIIAAAAIIIIIIIAAAA222IIIIII44IIIIIIIIIIIIIIIIIII
AIIIIAAAAAAA2I2IIIIAAAAIIIIIIIAAAA222IIIIII44IIIIIIIIIIIIIIIIIII
AIIIIAAAAAAA222IIIIAAAAIIIIIIIAAAA222IIIIII44IIIIIIIIIIIIIIIIIII
AIIIIAAAAAAA22IIIIIAAAAIIIIIIIAAAA222IIIIII44IIIIIIIIIIIIIIIIIII
AIIIIAAAAAAA2IIIIIIAAAAIIIIIIIAAAA222IIIIII44IIIIIIIIIIIIIIIIIII
AIIIIAAAAAAA222IIIIAAAAIIIIIIIAAAA222IIIIII44IIIIIIIIIIIIIIIIIII
AIIIIAAAAAAA2I2IIIIAAAAIIIIIIIAAAA222IIIIII44IIIIIIIIIIIIIIIIIII
AIIIIAAAAAAAA222IIIAAAAIIIIIIIAAAA222IIIIII44IIIIIIIIIIIIIIIIIII
AIIIIAAAAAAAA2I2IIIAAAAIIIIIIIAAAA222IIIIII44IIIIIIIIIIIIIIIIIII
AIIIIAAAAAAAAII2IIIAAAAIIIIIIIAAAA222IIIIII44IIIIIIIIIIIIIIIIIII
AIIIIAAAAAAAA222IIIAAAAIIIIIIIAAAA222IIIIII44IIIIIIIIIIIIIIIIIII
AIIIIAAAAAAAAI22IIIAAAAIIIIIIIAAAA222IIIIII44IIIIIIIIIIIIIIIIIII
AIIIIAAAAAAAA222IIIAAAAIIIIIIIAAAA222IIIIII44IIIIIIIIIIIIIIIIIII
AIIIIAAAAAAAA222IIIAAAAIIIIIIIIAAA222IIIIII44IIIIIIIIIIIIIIIIIII
AIIIIAAAAAAAA2I2IIIAAAAIIIIIIIIAAA222IIIIII44IIIIIIIIIIIIIIIIIII
AIIIIAAAAAAAAII2IIIAAAAIIIIIIIIAAA222IIIIII44IIIIIIIIIIIIIIIIIII
AIIIIAAAAAAAA222IIIAAAAIIIIIIIIAAA222IIIIII44IIIIIIIIIIIIIIIIIII
AIIIIAAAAAAAA222IIIAAAAIIIIIIIIAAAA222IIIII44IIIIIIIIIIIIIIIIIII
AIIIIAAAAAAAA2I2IIIAAAAIIIIIIIIAAAA222IIIII44IIIIIIIIIIIIIIIIIII
AIIIIAAAAAAAA222IIIAAAAIIIIIIIIAAAA222IIIII44IIIIIIIIIIIIIIIIIII
AIIIIAAAAAAAA2I2IIIAAAAIIIIIIIIAAAA222IIIII44IIIIIIIIIIIIIIIIIII
AIIIIAAAAAAAA222IIIAAAAIIIIIIIIAAAA222IIIII44IIIIIIIIIIIIIIIIIII
AIIIIAAAAAAAAA222IIAAAAIIIIIIIIAAAA222IIIII44IIIIIIIIIIIIIIIIIII
AIIIIAAAAAAAAAI22IIAAAAIIIIIIIIAAAA222IIIII44IIIIIIIIIIIIIIIIIII
AIIIIAAAAAAAAA222IIAAAAIIIIIIIIAAAA222IIIII44IIIIIIIIIIIIIIIIIII
AIIIIAAAAAAAAAI22IIAAAAIIIIIIIIAAAA222IIIII44IIIIIIIIIIIIIIIIIII
AIIIIAAAAAAAAA222IIAAAAIIIIIIIIAAAA222IIIII44IIIIIIIIIIIIIIIIIII
AIIIIAAAAAAAAA222IIAAAAIIIIIIIIAAAAA222IIII44IIIIIIIIIIIIIIIIIII
AIIIIAAAAAAAAAI22IIAAAAIIIIIIIIAAAAA222IIII44IIIIIIIIIIIIIIIIIII
AIIIIAAAAAAAAA222IIAAAAIIIIIIIIAAAAA222IIII44IIIIIIIIIIIIIIIIIII
AIIIIAAAAAAAAAI22IIAAAAIIIIIIIIAAAAA222IIII44IIIIIIIIIIIIIIIIIII
AIIIIAAAAAAAAA222IIAAAAIIIIIIIIAAAAA222IIII44IIIIIIIIIIIIIIIIIII
AIIIIAAAAAAAAAA222IAAAAIIIIIIIIAAAAA222IIII44IIIIIIIIIIIIIIIIIII
AIIIIAAAAAAAAAA222IAAAAIIIIIIIIAAAAA22IIIII44IIIIIIIIIIIIIIIIIII
AIIIIAAAAAAAAAA222IAAAAIIIIIIIIAAAAA222IIII44IIIIIIIIIIIIIIIIIII
AIIIIAAAAAAAAAA222IAAAAIIIIIIIIAAAAA22IIIII44IIIIIIIIIIIIIIIIIII
AIIIIAAAAAAAAAA222IAAAAIIIIIIIIAAAAA222IIII44IIIIIIIIIIIIIIIIIII
AIIIIAAAAAAAAAA222IAAAAIIIIIIIIAAAAAA222III44IIIIIIIIIIIIIIIIIII
AIIIIAAAAAAAAAA222IAAAAIIIIIIIIAAAAAA2I2III44IIIIIIIIIIIIIIIIIII
AIIIIAAAAAAAAAA222IAAAAIIIIIIIIAAAAAA222III44IIIIIIIIIIIIIIIIIII
AIIIIAAAAAAAAAA222IAAAAIIIIIIIIAAAAAA2I2III44IIIIIIIIIIIIIIIIIII
AIIIIAAAAAAAAAA222IAAAAIIIIIIIIAAAAAA222III44IIIIIIIIIIIIIIIIIII
AIIIIAAAAAAAAAAA222AAAAIIIIIIIIAAAAAA222III44IIIIIIIIIIIIIIIIIII
AIIIIAAAAAAAAAAA222AAAAIIIIIIIIAAAAAA2I2III44IIIIIIIIIIIIIIIIIII
AIIIIAAAAAAAAAAA222AAAAIIIIIIIIAAAAAA2IIIII44IIIIIIIIIIIIIIIIIII
AIIIIAAAAAAAAAAA222AAAAIIIIIIIIAAAAAA222III44IIIIIIIIIIIIIIIIIII
AIIIIAAAAAAAAAAA222AAAAIIIIIIIIAAAAAA2I2III44IIIIIIIIIIIIIIIIIII
AIIIIAAAAAAAAAAA222AAAAIIIIIIIIAAAAAA2IIIII44IIIIIIIIIIIIIIIIIII
AIIIIAAAAAAAAAAA222AAAAIIIIIIIIAAAAAA222III44IIIIIIIIIIIIIIIIIII
AIIIIAAAAAAAAAAA222AAAAIIIIIIIIAAAAAAA222II44IIIIIIIIIIIIIIIIIII
AIIIIAAAAAAAAAAA222AAAAIIIIIIIIAAAAAAAI22II44IIIIIIIIIIIIIIIIIII
AIIIIAAAAAAAAAAA222AAAAIIIIIIIIAAAAAAAII2II44IIIIIIIIIIIIIIIIIII
AIIIIAAAAAAAAAAA222AAAAIIIIIIIIAAAAAAA222II44IIIIIIIIIIIIIIIIIII
AIIIIAAAAAAAIAAA222AAAAIIIIIIIIAAAAAAA222II44IIIIIIIIIIIIIIIIIII
AIIIIAAAAAAAIAAA222AAAAIIIIIIIIAAAAAAAI22II44IIIIIIIIIIIIIIIIIII
AIIIIAAAAAAAIAAA222AAAAIIIIIIIIAAAAAAAII2II44IIIIIIIIIIIIIIIIIII
AIIIIAAAAAAAIAAA222AAAAIIIIIIIIAAAAAAA222II44IIIIIIIIIIIIIIIIIII
AIIIIAAAAAAAIAAA222AAAAIIIIIIIIAAAAAAAI22II44IIIIIIIIIIIIIIIIIII
AIIIIAAAAAAAIAAAA22AAAAIIIIIIIIAAAAAAAI22II44IIIIIIIIIIIIIIIIIII
AIIIIAAAAAAAIAAAA22AAAAIIIIIIIIAAAAAAA222II44IIIIIIIIIIIIIIIIIII
AIIIIAAAAAAAIAAAA22AAAAIIIIIIIIAAAAAAA2I2II44IIIIIIIIIIIIIIIIIII
AIIIIAAAAAAAIAAAA22AAAAIIIIIIIIAAAAAAA222II44IIIIIIIIIIIIIIIIIII
AIIIIAAAAAAAIAAAA22AAAAIIIIIIIIAAAAAAA22III44IIIIIIIIIIIIIIIIIII
AIIIIAAAAAAAIAAAA22AAAAIIIIIIIIAAAAAAA222II44IIIIIIIIIIIIIIIIIII
AIIIIAAAAAAAIAAAA22AAAAIIIIIIIIAAAAAAA2I2II44IIIIIIIIIIIIIIIIIII
AIIIIAAAAAAAIAAAA22AAAAIIIIIIIIAAAAAAA222II44IIIIIIIIIIIIIIIIIII
AIIIIAAAAAAAIAAAA22AAAAIIIIIIIIAAAAAAA22III44IIIIIIIIIIIIIIIIIII
AIIIIAAAAAAAIAAAA22AAAAIIIIIIIIAAAAAAAA222I44IIIIIIIIIIIIIIIIIII
AIIIIAAAAAAAIAAAA22AAAAIIIIIIIIAAAAAAAAI22I44IIIIIIIIIIIIIIIIIII
AIIIIAAAAAAAIAAAA22AAAAIIIIIIIIAAAAAAAA222I44IIIIIIIIIIIIIIIIIII
AIIIIAAAAAAAIIAAA22AAAAIIIIIIIIAAAAAAAA222I44IIIIIIIIIIIIIIIIIII
AIIIIAAAAAAAIIAAA22AAAAIIIIIIIIAAAAAAAA2I2I44IIIIIIIIIIIIIIIIIII
AIIIIAAAAAAAIIAAA22AAAAIIIIIIIIAAAAAAAA222I44IIIIIIIIIIIIIIIIIII
AIIIIAAAAAAAIIAAA22AAAAIIIIIIIIAAAAAAAAI22I44IIIIIIIIIIIIIIIIIII
AIIIIAAAAAAAIIAAA22AAAAIIIIIIIIAAAAAAAA222I44IIIIIIIIIIIIIIIIIII
AIIIIAAAAAAAIIAAA22AAAAIIIIIIIIAAAAAAAA2I2I44IIIIIIIIIIIIIIIIIII
AIIIIAAAAAAAIIAAA22AAAAIIIIIIIIAAAAAAAAII2I44IIIIIIIIIIIIIIIIIII
AIIIIAAAAAAAIIAAAA2AAAAIIIIIIIIAAAAAAAAII2I44IIIIIIIIIIIIIIIIIII
AIIIIAAAAAAAIIAAAA2AAAAIIIIIIIIAAAAAAAA222I44IIIIIIIIIIIIIIIIIII
AIIIIAAAAAAAIIAAAA2AAAAIIIIIIIIAAAAAAAA2I2I44IIIIIIIIIIIIIIIIIII
AIIIIAAAAAAAIIAAAA2AAAAIIIIIIIIAAAAAAAA222I44IIIIIIIIIIIIIIIIIII
AIIIIAAAAAAAIIAAAA2AAAAIIIIIIIIAAAAAAAA2I2I44IIIIIIIIIIIIIIIIIII
AIIIIAAAAAAAIIAAAA2AAAAIIIIIIIIAAAAAAAAA22244IIIIIIIIIIIIIIIIIII
AIIIIAAAAAAAIIIAAA2AAAAIIIIIIIIAAAAAAAAA22244IIIIIIIIIIIIIIIIIII
AIIIIAAAAAAAIIIAAA2AAAAIIIIIIIIAAAAAAAAAI2244IIIIIIIIIIIIIIIIIII
AIIIIAAAAAAAIIIAAA2AAAAIIIIIIIIAAAAAAAAA22244IIIIIIIIIIIIIIIIIII
AIIIIAAAAAAAIIIAAA2AAAAIIIIIIIIAAAAAAAAAI2244IIIIIIIIIIIIIIIIIII
AIIIIAAAAAAAIIIAAAAAAAAIIIIIIIIAAAAAAAAAI2244IIIIIIIIIIIIIIIIIII
AIIIIAAAAAAAIIIAAAAAAAAIIIIIIIIAAAAAAAAA22244IIIIIIIIIIIIIIIIIII
AIIIIAAAAAAAIIIAAAAAAAAIIIIIIIIAAAAAAAAAA2224IIIIIIIIIIIIIIIIIII
AIIIIAAAAAAAIIIIAAAAAAAIIIIIIIIAAAAAAAAAA2224IIIIIIIIIIIIIIIIIII
AIIIIAAAAAAAIIIIAAAAAAAIIIIIIIIAAAAAAAAAAA222IIIIIIIIIIIIIIIIIII
AIIIIAAAAAAAIIIIIAAAAAAIIIIIIIIAAAAAAAAAAA222IIIIIIIIIIIIIIIIIII
AIIIIAAAAAAAIIIIIAAAAAA2IIIIIIIAAAAAAAAAAA222IIIIIIIIIIIIIIIIIII
AIIIIAAAAAAAIIIIIAAAAAA2IIIIIIIAAAAAAAIAAA222IIIIIIIIIIIIIIIIIII
AIIIIAAAAAAAIIIIIAAAAAA2IIIIIIIAAAAAAAIAAAA222IIIIIIIIIIIIIIIIII
AIIIIAAAAAAAIIIIIIAAAAA2IIIIIIIAAAAAAAIAAAA222IIIIIIIIIIIIIIIIII
AIIIIAAAAAAAIIIIIIAAAAA22IIIIIIAAAAAAAIAAAA222IIIIIIIIIIIIIIIIII
AIIIIAAAAAAAIIIIIIAAAAA22IIIIIIAAAAAAAIIAAA222IIIIIIIIIIIIIIIIII
A222IAAAAAAAIIIIIIAAAAA22IIIIIIAAAAAAAIIAAA222IIIIIIIIIIIIIIIIII
A222IAAAAAAAIIIIIIAAAAA222IIIIIAAAAAAAIIAAA222IIIIIIIIIIIIIIIIII
A222IAAAAAAAIIIIIIAAAAA222IIIIIAAAAAAAIIAAAA222IIIIIIIIIIIIIIIII
A222IAAAAAAAIIIIIIIAAAA222IIIIIAAAAAAAIIAAAA222IIIIIIIIIIIIIIIII
AA222AAAAAAAIIIIIIIAAAA222IIIIIAAAAAAAIIAAAA222IIIIIIIIIIIIIIIII
AA222AAAAAAAIIIIIIIAAAA222IIIIIAAAAAAAIIAAAAA222IIIIIIIIIIIIIIII
AA222AAAAAAAIIIIIIIIAAA222IIIIIAAAAAAAIIAAAAA222IIIIIIIIIIIIIIII
AA222AAAAAAAIIIIIIIIAAA2222IIIIAAAAAAAIIAAAAA222IIIIIIIIIIIIIIII
AA222AAAAAAAIIIIIIIIAAA2222IIIIAAAAAAAIIAAAAA2222IIIIIIIIIIIIIII
AA222AAAAAAAIIIIIIIIIAA2222IIIIAAAAAAAIIAAAAA2222IIIIIIIIIIIIIII
AA222AAAAAAAIIIIIIIIIAA2222IIIIAAAAAAAIIAAAAA22I2IIIIIIIIIIIIIII
AA222AAAAAAAIIIIIIIIIAA2222IIIIAAAAAAAIIAAAAA22IIIIIIIIIIIIIIIII
AA222AAAAAAAIIIIIIIIIAAA2222IIIAAAAAAAIIAAAAA22IIIIIIIIIIIIIIIII
AA222AAAAAAAIIIIIIIIIAAA2222IIIAAAAAAAIIAAAAA2222IIIIIIIIIIIIIII
AA222AAAAAAAIIIIIIIIIAAA2222IIIAAAAAAAIIAAAAA222IIIIIIIIIIIIIIII
AA222AAAAAAAIIIIIIIIIAAA2222IIIAAAAAAAIIAAAAA2222IIIIIIIIIIIIIII
AA222AAAAAAAIIIIIIIIIAAA2222IIIAAAAAAAIIAAAAA222IIIIIIIIIIIIIIII
AAA22AAAAAAAIIIIIIIIIAAA2222IIIAAAAAAAIIAAAAA222IIIIIIIIIIIIIIII
AAA22AAAAAAAIIIIIIIIIAAA2222IIIAAAAAAAIIAAAAA2222IIIIIIIIIIIIIII
AAA22AAAAAAAIIIIIIIIIAAA2222IIIAAAAAAAIIAAAAA22I2IIIIIIIIIIIIIII
AAA22AAAAAAAIIIIIIIIIAAA2222IIIAAAAAAAIIAAAAA22IIIIIIIIIIIIIIIII
AAA22AAAAAAAIIIIIIIIIAAA2222IIIAAAAAAAIIAAAAA2222IIIIIIIIIIIIIII
AAA22AAAAAAAIIIIIIIIIAAA2222IIIAAAAAAAIIAAAAA222IIIIIIIIIIIIIIII
AAA22AAAAAAAIIIIIIIIIAAA2222IIIAAAAAAAIIAAAAAA2222IIIIIIIIIIIIII
AAA22AAAAAAAIIIIIIIIIAAA2222IIIAAAAAAAIIAAAAAA22I2IIIIIIIIIIIIII
AAA22AAAAAAAIIIIIIIIIAAA2222IIIAAAAAAAIIAAAAAA2222IIIIIIIIIIIIII
AAA22AAAAAAAIIIIIIIIIIAA2222IIIAAAAAAAIIAAAAAA2222IIIIIIIIIIIIII
AAA22AAAAAAAIIIIIIIIIIAA2222IIIAAAAAAAIIAAAAAA2I22IIIIIIIIIIIIII
AAA22AAAAAAAIIIIIIIIIIAA2222IIIAAAAAAAIIAAAAAA2II2IIIIIIIIIIIIII
AAA22AAAAAAAIIIIIIIIIIAA2222IIIAAAAAAAIIAAAAAA2222IIIIIIIIIIIIII
AAA22AAAAAAAIIIIIIIIIIAA2222IIIAAAAAAAIIAAAAAA22I2IIIIIIIIIIIIII
AAA22AAAAAAAIIIIIIIIIIAA2222IIIAAAAAAAIIAAAAAA2222IIIIIIIIIIIIII
AAA22AAAAAAAIIIIIIIIIIAA2222IIIAAAAAAAIIAAAAAA22I2IIIIIIIIIIIIII
AAA22AAAAAAAIIIIIIIIIIAAA2222IIAAAAAAAIIAAAAAA22I2IIIIIIIIIIIIII
AAA22AAAAAAAIIIIIIIIIIAAA2222IIAAAAAAAIIAAAAAA2222IIIIIIIIIIIIII
AAA22AAAAAAAIIIIIIIIIIAAA2222IIAAAAAAAIIAAAAAA2I22IIIIIIIIIIIIII
AAA22AAAAAAAIIIIIIIIIIAAA2222IIAAAAAAAIIAAAAAA2II2IIIIIIIIIIIIII
AAA22AAAAAAAIIIIIIIIIIAAA2222IIAAAAAAAIIAAAAAA2222IIIIIIIIIIIIII
AAA22AAAAAAAIIIIIIIIIIAAA2222IIAAAAAAAIIAAAAAA22I2IIIIIIIIIIIIII
AAAA2AAAAAAAIIIIIIIIIIAAA2222IIAAAAAAAIIAAAAAA22I2IIIIIIIIIIIIII
AAAA2AAAAAAAIIIIIIIIIIAAA2222IIAAAAAAAIIAAAAAA2222IIIIIIIIIIIIII
AAAA2AAAAAAAIIIIIIIIIIAAA2222IIAAAAAAAIIAAAIAA2222IIIIIIIIIIIIII
AAAA2AAAAAAAIIIIIIIIIIAAA2222IIAAAAAAAIIAAAIAA22I2IIIIIIIIIIIIII
AAAA2AAAAAAAIIIIIIIIIIAAA2222IIAAAAAAAIIAAAIAA2222IIIIIIIIIIIIII
AAAA2AAAAAAAIIIIIIIIIIAAA2222IIAAAAAAAIIAAAIAA2I22IIIIIIIIIIIIII
AAAA2AAAAAAAIIIIIIIIIIAAA2222IIAAAAAAAIIAAAIAA2II2IIIIIIIIIIIIII
AAAA2AAAAAAAIIIIIIIIIIAAA2222IIAAAAAAAIIAAAIAAA222IIIIIIIIIIIIII
AAAA2AAAAAAAIIIIIIIIIIAAA2222IIAAAAAAAIIAAAIAAAI22IIIIIIIIIIIIII
AAAA2AAAAAAAIIIIIIIIIIAAA2222IIAAAAAAAIIAAAIAAA222IIIIIIIIIIIIII
AAAA2AAAAAAAIIIIIIIIIIAAAA222IIAAAAAAAIIAAAIAAA222IIIIIIIIIIIIII
AAAAAAAAAAAAIIIIIIIIIIAAAA222IIAAAAAAAIIAAAIAAA222IIIIIIIIIIIIII
AAAAAAAAAAAAIIIIIIIIIIAAAA222IIAAAAAAAIIAAAIAAAA222IIIIIIIIIIIII
AAAAAAAAAAAAIIIIIIIIIIIAAA222IIAAAAAAAIIAAAIAAAA222IIIIIIIIIIIII
AAAAAAAAAAAAIIIIIIIIIIIAAAA222IAAAAAAAIIAAAIAAAA222IIIIIIIIIIIII
AAAAAAAAAAAAIIIIIIIIIIIAAAA222IAAAAAAAIIAAAIIAAA222IIIIIIIIIIIII
AAAAAAAAAAAAIIIIIIIIIIIIAAA222IAAAAAAAIIAAAIIAAA222IIIIIIIIIIIII
AAAAAAAAAAAAIIIIIIIIIIIIAAA222IAAAAAAAIIAAAIIAAAA222IIIIIIIIIIII
AAAAAAAAAAAAIIIIIIIIIIIIAAAA222AAAAAAAIIAAAIIAAAA222IIIIIIIIIIII
AAAAAAAAAAAAIIIIIIIIIIIIAAAA222AAAAAAAIIAAAIIAAAAA222IIIIIIIIIII
AAAAAAAAAAAAIIIIIIIIIIIIIAAA222AAAAAAAIIAAAIIAAAAA222IIIIIIIIIII
AAAAAAAAAAAAIIIIIIIIIIIIIAAAA22AAAAAAAIIAAAIIAAAAA222IIIIIIIIIII
AAAAAAAAAAAAIIIIIIIIIIIIIIAAA22AAAAAAAIIAAAIIAAAAA222IIIIIIIIIII
AAAAAAAAAAAAIIIIIIIIIIIIIIAAA22AAAAAAAIIAAAIIAAAAAA222IIIIIIIIII
AAAAAAAAAAAAIIIIIIIIIIIIIIAAAA2AAAAAAAIIAAAIIAAAAAA222IIIIIIIIII
AAAAAAAAAAAAIIIIIIIIIIIIIIIAAA2AAAAAAAIIAAAIIAAAAAA222IIIIIIIIII
AAAAAAAAAAAAIIIIIIIIIIIIIIIAAA2AAAAAAAIIAAAIIAAIAAA222IIIIIIIIII
AAAAAAAAAAAAIIIIIIIIIIIIIIIAAA2AAAAAAAIIAAAIIAAIAAAA222IIIIIIIII
AAAAAAAAAAAAIIIIIIIIIIIIIIIAAAAAAAAAAAIIAAAIIAAIAAAA222IIIIIIIII
AAAAAIAAAAAAIIIIIIIIIIIIIIIAAAAAAAAAAAIIAAAIIAAIAAAA222IIIIIIIII
AAAAAIAAAAAAIIIIIIIIIIIIIIIIAAAAAAAAAAIIAAAIIAAIAAAA222IIIIIIIII
AAAAAIAAAAAA2IIIIIIIIIIIIIIIAAAAAAAAAAIIAAAIIAAIAAAA222IIIIIIIII
AAAAAIAAAAAA2IIIIIIIIIIIIIIIAAAAAAAAAAIIAAAIIAAIAAAAA222IIIIIIII
AAAAAIAAAAAA2IIIIIIIIIIIIIIIAAAAAAAAAAIIAAIIIAAIAAAAA222IIIIIIII
AAAAAIIAAAAA2IIIIIIIIIIIIIIIAAAAAAAAAAIIAAIIIAAIAAAAA222IIIIIIII
AAAAAIIAAAAA22IIIIIIIIIIIIIIAAAAAAAAAAIIAAIIIAAIAAAAA222IIIIIIII
AAAAAIIAAAAA22IIIIIIIIIIIIIIAAAAAAAAAAIIAAIIIAAIAAAAAA222IIIIIII
AAAAAIIAAAAA22IIIIIIIIIIIIIIIAAAAAAAAAIIAAIIIAAIAAAAAA222IIIIIII
AAAAAIIIAAAA22IIIIIIIIIIIIIIIAAAAAAAAAIIAAIIIAAIAAAAAA222IIIIIII
AAAAAIIIAAAA222IIIIIIIIIIIIIIAAAAAAAAAIIAAIIIAAIAAAAAA222IIIIIII
AAAAAIIIAAAA222IIIIIIIIIIIIIIAAAAAAAAAIIAAIIIAAIAAAAAAA222IIIIII
AAAAAIIIAAAA222IIIIIIIIIIIIIIIAAAAAAAAIIAAIIIAAIAAAAAAA222IIIIII
AAAAAIIIIAAA222IIIIIIIIIIIIIIIAAAAAAAAIIAAIIIAAIAAAAAAA222IIIIII
AAAAAIIIIAAAA222IIIIIIIIIIIIIIAAAAAAAAIIAAIIIAAIAAAAAAA222IIIIII
AAAAAIIIIAAAA222IIIIIIIIIIIIIIAAAAAAAAIIAAIIIAAIAAAAAAAA222IIIII
AAAAAIIIIAAAA222IIIIIIIIIIIIIIIAAAAAAAIIAAIIIAAIAAAAAAAA222IIIII
AAAAAIIIIIAAA222IIIIIIIIIIIIIIIAAAAAAAIIAAIIIAAIAAAAAAAA222IIIII
AAAAAIIIIIAAAA222IIIIIIIIIIIIIIAAAAAAAIIAAIIIAAIAAAAAAAA222IIIII
AAAAAIIIIIAAAA222IIIIIIIIIIIIIIAAAAAAAIIAAIIIAAIAAAAAAAAA222IIII
AAAAAIIIIIAAAA222IIIIIIIIIIIIIIIAAAAAAIIAAIIIAAIAAAAAAAAA222IIII
AAAAAIIIIIAAAA222IIIIIIIIIIIIIIIAAAAAA2IAAIIIAAIAAAAAAAAA222IIII
AAAAAIIIIIIAAA222IIIIIIIIIIIIIIIAAAAAA2IAAIIIAAIAAAAAAAAA222IIII
AIAAAIIIIIIAAA222IIIIIIIIIIIIIIIAAAAAA2IAAIIIAAIAAAAAAAAA222IIII
AIIAAIIIIIIAAA222IIIIIIIIIIIIIIIAAAAAA2IAAIIIAAIAAAAAAAAA222IIII
AIIIAIIIIIIAAA222IIIIIIIIIIIIIIIAAAAAA2IAAIIIAAIAAAAAAAAA222IIII
AIIIAIIIIIIAAAA222IIIIIIIIIIIIIIAAAAAA2IAAIIIAAIAAAAAAAAA222IIII
AIIIAIIIIIIAAAA222IIIIIIIIIIIIIIAAAAAA2IAAIIIAAIAAAAAAAAAA222III
AIIIAIIIIIIAAAA222IIIIIIIIIIIIIIIAAAAA2IAAIIIAAIAAAAAAAAAA222III
AIIIAIIIIIIAAAA222IIIIIIIIIIIIIIIAAAAA22AAIIIAAIAAAAAAAAAA222III
AIIIAIIIIIIIAAA222IIIIIIIIIIIIIIIAAAAA22AAIIIAAIAAAAAAAAAA222III
AIIIIIIIIIIIAAA222IIIIIIIIIIIIIIIAAAAA22AAIIIAAIAAAAAAAAAA222III
AIIIIIIIIIIIAAAA222IIIIIIIIIIIIIIAAAAA22AAIIIAAIAAAAAAAAAA222III
AIIIIIIIIIIIAAAA222IIIIIIIIIIIIIIAAAAA22AAIIIAAIAAAAAAAAAAA222II
AIIIIIIIIIIIAAAA222IIIIIIIIIIIIIIIAAAA22AAIIIAAIAAAAAAAAAAA222II
AIIIIIIIIIIIAAAAA222IIIIIIIIIIIIIIAAAA22AAIIIAAIAAAAAAAAAAA222II
AIIIIIIIIIIIAAAAA222IIIIIIIIIIIIIIAAAA22AAIIIAAIAAAAAAAAAAAA222I
AIIIIIIIIIIIAAAAA222IIIIIIIIIIIIIIIAAA22AAIIIAAIAAAAAAAAAAAA222I
AIIIIIIIIIIIAAAAA222IIIIIIIIIIIIIIIAAAA2AAIIIAAIAAAAAAAAAAAA222I
AIIIIIIIIIIIAAAAAA222IIIIIIIIIIIIIIAAAA2AAIIIAAIAAAAAAAAAAAA222I
AIIIIIIIIIIIAAAAAA222IIIIIIIIIIIIIIAAAA2AAIIIAAIAAAAAAAAAAAAA222
AIIIIIIIIIIIAAAAAA222IIIIIIIIIIIIIIIAAA2AAIIIAAIAAAAAAAAAAAAA222
AIIIIIIIIIIIAAAAAA222IIIIIIIIIIIIIIIAAAAAA2IIAAIAAAAAAAAAAAAA222
AIIIIIIIIIIIAAAAAAA222IIIIIIIIIIIIIIAAAAAA2IIAAIAAAAAAAAAAAAA222
AIIIIIIIIIIIAAAAAAA222IIIIIIIIIIIIIIAAAAAA2IIAAIAAAAAAAAAAAAAA22
AIIIIIIIIIIIAAAAAAA222IIIIIIIIIIIIIIIAAAAA2IIAAIAAAAAAAAAAAAAA22
AIIIIIIIIIIIAAAAAAA222IIIIIIIIIIIIIIIAAAAA22IAAIAAAAAAAAAAAAAA22
AIIIIIIIIIIIAAAAAAAA222IIIIIIIIIIIIIIAAAAA22IAAIAAAAAAAAAAAAAA22
AIIIIIIIIIIIAAAAAAAA222IIIIIIIIIIIIIIAAAAA22IAAIAAAAAAAAAAAAAAA2
AIIIIIIIIIIIAAAAAAAA222IIIIIIIIIIIIIIIAAAA22IAAIAAAAAAAAAAAAAAA2
AIIIIIIIIIIIAAAAAAAA222IIIIIIIIIIIIIIIAAAA222AAIAAAAAAAAAAAAAAA2
AIIIIIIIIIIIAAAAAAAA222IIIIIIIIIIIIIIIIAAA222AAIAAAAAAAAAAAAAAA2
AIIIIIIIIIIIAAAAAAAAA222IIIIIIIIIIIIIIIAAA222AAIAAAAAAAAAAAAAAA2
AIIIIIIIIIIIAAAAAAAAA222IIIIIIIIIIIIIIIAAA222AAIAAAAAAAAAAAAAAAA
AIIIIIIIIIIIAAAAAAAAA222IIIIIIIIIIIIIIIAAAA22AAIAAAAAAAAAAAAAAAA
AIIIIIIIIIIIAAAAAAAAA222IIIIIIIIIIIIIIIIAAA22AAIAAAAAAAAAAAAAAAA
AIIIIIIIIIIIAAAAAAAAAA222IIIIIIIIIIIIIIIAAA22AAIAAAAAAAAAAAAAAAA
AIIIIIIIIIIIAAAAAAAAAA222IIIIIIIIIIIIIIIAAA22AAIAAAAAAAAAAAAAIAA
AIIIIIIIIIIIAAAAAAAAAAA222IIIIIIIIIIIIIIAAA22AAIAAAAAAAAAAAAAIAA
A222IIIIIIIIAAAAAAAAAAA222IIIIIIIIIIIIIIAAA22AAIAAAAAAAAAAAAAIAA
A222IIIIIIIIAAAAAAAAAAA222IIIIIIIIIIIIIIAAAA2AAIAAAAAAAAAAAAAIAA
A222IIIIIIIIIAAAAAAAAAA222IIIIIIIIIIIIIIAAAA2AAIAAAAAAAAAAAAAIAA
A222IIIIIIIIIAAAAAAAAAA222IIIIIIIIIIIIIIAAAA2AAIAAAAAAAAAAAAAIIA
A222IIIIIIIIIAAAAAAAAAA222IIIIIIIIIIIIIIIAAA2AAIAAAAAAAAAAAAAIIA
A222IIIIIIIIIAAAAAAAAAA222IIIIIIIIIIIIIIIIAA2AAIAAAAAAAAAAAAAIIA
A222IIIIIIIIIAAAAAAAAAA2222IIIIIIIIIIIIIIIAA2AAIAAAAAAAAAAAAAIIA
A2222IIIIIIIIAAAAAAAAAA2222IIIIIIIIIIIIIIIAA2AAIAAAAAAAAAAAAAIIA
A2222IIIIIIIIAAAAAAAAAA2222IIIIIIIIIIIIIIIAA2AA2AAAAAAAAAAAAAIIA
A2222IIIIIIIIAAIAAAAAAA2222IIIIIIIIIIIIIIIAA2AA2AAAAAAAAAAAAAIIA
AA2222IIIIIIIAAIAAAAAAA2222IIIIIIIIIIIIIIIAA2AA2AAAAAAAAAAAAAIIA
AA2222IIIIIIIAAIAAAAAAA2222IIIIIIIIIIIIIIIAAAAA2AAAAAAAAAAAAAIIA
AA2222IIIIIIIIAIAAAAAAA2222IIIIIIIIIIIIIIIAAAAA2AAAAAAAAAAAAAIIA
AA2222IIIIIIIIAIAAAAAAAA2222IIIIIIIIIIIIIIAAAAA2AAAAAAAAAAAAAIIA
AAA2222IIIIIIIAIAAAAAAAA2222IIIIIIIIIIIIIIAAAAA2AAAAAAAAAAAAAIIA
AAA2222IIIIIIIIIAAAAAAAA2222IIIIIIIIIIIIIIAAAAA2AAAAAAAAAAAAAIIA
AAA222IIIIIIIIIIAAAAAAAA2222IIIIIIIIIIIIIIAAAAA2AAAAAAAAAAAAAIIA
AAA2222IIIIIIIIIAAAAAAAA2222IIIIIIIIIIIIIIAAAAA2AAAAAAAAAAAAAIIA
AAA2222IIIIIIIIIAAAAAAAAA222IIIIIIIIIIIIIIAAAAA2AAAAAAAAAAAAAIIA
AAAA222IIIIIIIIIAAAAAAAAA222IIIIIIIIIIIIIIAAAAA2AAAAAAAAAAAAAIIA
AAAA222IIIIIIIIIAAAAAAAAAA224IIIIIIIIIIIIIAAAAA2AAAAAAAAAAAAAIIA
AAAA222IIIIIIIIIAAAAAAAAAA222IIIIIIIIIIIIIAAAAA2AAAAAAAAAAAAAIIA
AAAAA222IIIIIIIIAAAAAAAAAA222IIIIIIIIIIIIIAAAAA2AAAAAAAAAAAAAIIA
AAAAA222IIIIIIIIAAAAAAAAAA222IIIIIIIIIIIIIAAAAAAAAAAAAAAAAAAAIIA
AAAAA222IIIIIIIIAAAAAAAAAA222IIIIIIIIIIIIIAIAAAAAAAAAAAAAAAAAIIA
AAAAA22IIIIIIIIIAAAAAAAAAA222IIIIIIIIIIIIIAIAAAAAAAAAAAAAAAAAIIA
AAAAA22IIIIIIIIIAAAAAAAAAA222IIIIIIIIIIIIIAIIAAAAAAAAAAAAAAAAIIA
AAAAA222IIIIIIIIAAAAAAAAAA222IIIIIIIIIIIIIAIIAAAAAAAAAAAAAAAAIIA
AAAAA222IIIIIIIIAAAAAAAAAAA222IIIIIIIIIIIIAIIAAAAAAAAAAAAAAAAIIA
AAAAA22IIIIIIIIIAAAAAAAAAAA222IIIIIIIIIIIIAIIAAAAAAAAAAAAAAAAIIA
AAAAA222IIIIIIIIAAAAAAAAAAA222IIIIIIIIIIIIAIIAAAAAAAAAAAAAAAAIIA
AAAAA22IIIIIIIIIAAAAAAAAAAA222IIIIIIIIIIIIAIIAAAAAAAAAAAAAAAAIIA
AAAAA222IIIIIIIIAAAAAAAAAAA222IIIIIIIIIIIIAIIAAAAAAAAAAAAAAAAIIA
AAAAA22IIIIIIIIIAAAAAAAAAAA222IIIIIIIIIIIIAIIAAAAAAAAAAAAAAAAIIA
AAAAAA222IIIIIIIAAAAAAAAAAA222IIIIIIIIIIIIAIIAAAAAAAAAAAAAAAAIIA
AAAAAA22IIIIIIIIAAAAAAAAAAA222IIIIIIIIIIIIAIIAAAAAAAAAAAAAAAAIIA
AAAAAA222IIIIIIIAAAAAAAAAAA222IIIIIIIIIIIIAIIAAAAAAAAAAAAAAAAIIA
AAAAAA222IIIIIIIIAAAAAAAAAA222IIIIIIIIIIIIAIIAAAAAAAAAAAAAAAAIIA
AAAAAA222IIIIIIIIAAAAAAAAAAA222IIIIIIIIIIIAIIAAAAAAAAAAAAAAAAIIA
AAAAAA222IIIIIIIIAAAAAAAAAAA222IIIIIIIIIIIAIIIAAAAAAAAAAAAAAAIIA
AAAAAAA222IIIIIIIAAAAAAAAAAA222IIIIIIIIIIIAIIIAAAAAAAAAAAAAAAIIA
AAAAAAA22IIIIIIIIAAAAAAAAAAA222IIIIIIIIIIIAIIIAAAAAAAAAAAAAAAIIA
AAAAAAA222IIIIIIIAAAAAAAAAAA222IIIIIIIIIIIAIIIAAAAAAAAAAAAAAAIIA
AAAAAAA222IIIIIIIIAAAAAAAAAA222IIIIIIIIIIIAIIIAAAAAAAAAAAAAAAIIA
AAAAAAA222IIIIIIIIAAAAAAAAAAA222IIIIIIIIIIAIIIAAAAAAAAAAAAAAAIIA
AAAAAAA222IIIIIIIIAAAAAAAAAAA222IIIIIIIIIIAIIIIAAAAAAAAAAAAAAIIA
AAAAAAAA222IIIIIIIAAAAAAAAAAA222IIIIIIIIIIAIIIIAAAAAAAAAAAAAAIIA
AAAAAAAA222IIIIIIIIAAAAAAAAAA222IIIIIIIIIIAIIIIAAAAAAAAAAAAAAIIA
AAAAAAAA222IIIIIIIIAAAAAAAAAAA222IIIIIIIIIAIIIIAAAAAAAAAAAAAAIIA
AAAAAAAA222IIIIIIIIAAAAAAAAAAA222IIIIIIIIIAIIIIIAAAAAAAAAAAAAIIA
AAAAAAAAA222IIIIIIIAAAAAAAAAAA222IIIIIIIIIAIIIIIAAAAAAAAAAAAAIIA
AAAAAAAAA22IIIIIIIIAAAAAAAAAAA222IIIIIIIIIAIIIIIAAAAAAAAAAAAAIIA
AAAAAAAAA222IIIIIIIAAAAAAAAAAA222IIIIIIIIIAIIIIIAAAAAAAAAAAAAIIA
AAAAAAAAA222IIIIIIIIAAAAAAAAAA222IIIIIIIIIAIIIIIAAAAAAAAAAAAAIIA
AAAAAAAAA222IIIIIIIIAAAAAAAAAAA222IIIIIIIIAIIIIIAAAAAAAAAAAAAIIA
AAAAAIAAA222IIIIIIIIAAAAAAAAAAA222IIIIIIIIAIIIIIAAAAAAAAAAAAAIIA
AAAAAIAAA222IIIIIIIIAAAAAAAAAAA222IIIIIIIIAIIIIIIAAAAAAAAAAAAIIA
AAAAAIAAAA222IIIIIIIAAAAAAAAAAA222IIIIIIIIAIIIIIIAAAAAAAAAAAAIIA
AAAAAIAAAA222IIIIIIIIAAAAAAAAAA222IIIIIIIIAIIIIIIAAAAAAAAAAAAIIA
AAAAAIAAAA222IIIIIIIIAAAAAAAAAAA222IIIIIIIAIIIIIIAAAAAAAAAAAAIIA
AAAAAIIAAA222IIIIIIIIAAAAAAAAAAA222IIIIIIIAIIIIIIAAAAAAAAAAAAIIA
AAAAAIIAAA222IIIIIIIIAAAAAAAAAAA222IIIIIIIAIIIIIIIAAAAAAAAAAAIIA
AAAAAIIAAA222IIIIIIIIAAAAAAAAAAA222IIIIIIIIIIIIIIIAAAAAAAAAAAIIA
AAAAAIIAAAA222IIIIIIIAAAAAAAAAAA222IIIIIIIIIIIIIIIAAAAAAAAAAAIIA
AAAAAIIAAAA222IIIIIIIIAAAAAAAAAA222IIIIIIIIIIIIIIIAAAAAAAAAAAIIA
AAAAAIIAAAA222IIIIIIIIAAAAAAAAAAA222IIIIIIIIIIIIIIAAAAAAAAAAAIIA
AAAAAIIIAAA222IIIIIIIIAAAAAAAAAAA222IIIIIIIIIIIIIIAAAAAAAAAAAIIA
AAAAAIIIAAA222IIIIIIIIAAAAAAAAAAA222IIIIIIIIIIIIIIIAAAAAAAAAAIIA
AAAAAIIIAAAA222IIIIIIIAAAAAAAAAAA222IIIIIIIIIIIIIIIAAAAAAAAAAIIA
AAAAAIIIAAAA222IIIIIIIIAAAAAAAAAA222IIIIIIIIIIIIIIIAAAAAAAAAAIIA
AAAAAIIIAAAA222IIIIIIIIAAAAAAAAAAA222IIIIIIIIIIIIIIAAAAAAAAAAIIA
AAAAAIIIIAAA222IIIIIIIIAAAAAAAAAAA222IIIIIIIIIIIIIIAAAAAAAAAAIIA
AAAAAIIIIAAA222IIIIIIIIIAAAAAAAAAA222IIIIIIIIIIIIIIAAAAAAAAAAIIA
AAAAAIIIIAAA222IIIIIIIIIAAAAAAAAAA222IIIIIIIIIIIIIIIAAAAAAAAAIIA
AAAAAIIIIAAAA222IIIIIIIIAAAAAAAAAA222IIIIIIIIIIIIIIIAAAAAAAAAIIA
AAAAAIIIIAAAA222IIIIIIIIAAAAAAAAAAA222IIIIIIIIIIIIIIAAAAAAAAAIIA
AAAAAIIIIIAAA222IIIIIIIIAAAAAAAAAAA222IIIIIIIIIIIIIIAAAAAAAAAIIA
AAAAAIIIIIAAA222IIIIIIIIAAAAAAAAAAA222IIIIIIIIIIIIIIIAAAAAAAAIIA
AIAAAIIIIIAAA222IIIIIIIIAAAAAAAAAAA222IIIIIIIIIIIIIIIAAAAAAAAIIA
AIIAAIIIIIAAA222IIIIIIIIAAAAAAAAAAA222IIIIIIIIIIIIIIIAAAAAAAAIIA
AIIIAIIIIIAAA222IIIIIIIIAAAAAAAAAAA222IIIIIIIIIIIIIIIAAAAAAAAIIA
AIIIAIIIIIAAAA222IIIIIIIAAAAAAAAAAA222IIIIIIIIIIIIIIIAAAAAAAAIIA
AIIIAIIIIIAAAA222IIIIIIIIAAAAAAAAAA222IIIIIIIIIIIIIIIAAAAAAAAIIA
AIIIAIIIIIAAAA222IIIIIIIIAAAAAAAAAAA222IIIIIIIIIIIIIIAAAAAAAAIIA
AIIIAIIIIIIAAA222IIIIIIIIAAAAAAAAAAA222IIIIIIIIIIIIIIAAAAAAAAIIA
AIIIAIIIIIIAAA222IIIIIIIIIAAAAAAAAAA222IIIIIIIIIIIIIIAAAAAAAAIIA
AIIIAIIIIIIAAA222IIIIIIIIIAAAAAAAAAA222IIIIIIIIIIIIIIIAAAAAAAIIA
AIIIIIIIIIIAAA222IIIIIIIIIAAAAAAAAAA222IIIIIIIIIIIIIIIAAAAAAAIIA
AIIIIIIIIIIAAAA222IIIIIIIIAAAAAAAAAA222IIIIIIIIIIIIIIIAAAAAAAIIA
AIIIIIIIIIIAAAA222IIIIIIIIAAAAAAAAAAA222IIIIIIIIIIIIIIAAAAAAAIIA
AIIIIIIIIIIIAAA222IIIIIIIIAAAAAAAAAAA222IIIIIIIIIIIIIIAAAAAAAIIA
AIIIIIIIIIIIAAA222IIIIIIIIIAAAAAAAAAA222IIIIIIIIIIIIIIAAAAAAAIIA
AIIIIIIIIIIIAAA222IIIIIIIIIAAAAAAAAAA222IIIIIIIIIIIIIIIAAAAAAIIA
AIIIIIIIIIIIAAAA222IIIIIIIIAAAAAAAAAA222IIIIIIIIIIIIIIIAAAAAAIIA
AIIIIIIIIIIIAAAA222IIIIIIIIAAAAAAAAAA222IIIIIIIIIIIIIIIAAAAAA2IA
AIIIIIIIIIIIAAAA222IIIIIIIIAAAAAAAAAAA222IIIIIIIIIIIIIIAAAAAA2IA
AIIIIIIIIIIIAAAA222IIIIIIIIIAAAAAAAAAA222IIIIIIIIIIIIIIAAAAAA2IA
AIIIIIIIIIIIAAAA222IIIIIIIIIAAAAAAAAAA222IIIIIIIIIIIIIIIAAAAA2IA
AIIIIIIIIIIIAAAAA222IIIIIIIIAAAAAAAAAA222IIIIIIIIIIIIIIIAAAAA2IA
AIIIIIIIIIIIAAAAA222IIIIIIIIAAAAAAAAAA222IIIIIIIIIIIIIIIAAAAA22A
AIIIIIIIIIIIAAAAA222IIIIIIIIAAAAAAAAAAA222IIIIIIIIIIIIIIAAAAA22A
AIIIIIIIIIIIAAAAA222IIIIIIIIAAAAAAAAAAA222IIIIIIIIIIIIIIIAAAA22A
AIIIIIIIIIIIAAAAAA222IIIIIIIAAAAAAAAAAA222IIIIIIIIIIIIIIIAAAA22A
AIIIIIIIIIIIAAAAAA222IIIIIIIIAAAAAAAAAA222IIIIIIIIIIIIIIIAAAA22A
AIIIIIIIIIIIAAAAAA222IIIIIIIIAAAAAAAAAAA222IIIIIIIIIIIIIIAAAA22A
AIIIIIIIIIIIAAAAAA222IIIIIIIIAAAAAAAAAAA222IIIIIIIIIIIIIIIAAA22A
AIIIIIIIIIIIAAAAAAA222IIIIIIIAAAAAAAAAAA222IIIIIIIIIIIIIIIAAA22A
AIIIIIIIIIIIAAAAAAA222IIIIIIIAAAAAAAAAAA222IIIIIIIIIIIIIIIAAAA2A
AIIIIIIIIIIIAAAAAAA222IIIIIIIIAAAAAAAAAA222IIIIIIIIIIIIIIIAAAA2A
AIIIIIIIIIIIAAAAAAA222IIIIIIIIAAAAAAAAAAA222IIIIIIIIIIIIIIAAAA2A
AIIIIIIIIIIIAAAAAAA222IIIIIIIIAAAAAAAAAAA222IIIIIIIIIIIIIIIAAA2A
AIIIIIIIIIIIAAAAAAAA222IIIIIIIAAAAAAAAAAA222IIIIIIIIIIIIIIIAAA2A
AIIIIIIIIIIIAAAAAAAA222IIIIIIIAAAAAAAAAAA222IIIIIIIIIIIIIIIAAAAA
AIIIIIIIIIIIAAAAAAAA222IIIIIIIIAAAAAAAAAA222IIIIIIIIIIIIIIIAAAAA
AIIIIIIIIIIIAAAAAAAA222IIIIIIIIAAAAAAAAAAA222IIIIIIIIIIIIIIAAAAA
AIIIIIIIIIIIAAAAAAAA222IIIIIIIIAAAAAAAAAAA222IIIIIIIIIIIIIIIAAAA
AIIIIIIIIIIIAAAAAAAAA222IIIIIIIAAAAAAAAAAA222IIIIIIIIIIIIIIIAAAA
AIIIIIIIIIIIAAAAAAAAA222IIIIIIIIAAAAAAAAAA222IIIIIIIIIIIIIIIAAAA
AIIIIIIIIIIIAAAAAAAAA222IIIIIIIIAAAAAAAAAAA222IIIIIIIIIIIIIIAAAA
AIIIIIIIIIIIAAAAAAAAA222IIIIIIIIAAAAAAAAAAA222IIIIIIIIIIIIIIIAAA
AIIIIIIIIIIIAAAAAAAAAA222IIIIIIIAAAAAAAAAAA222IIIIIIIIIIIIIIIAAA
AIIIIIIIIIIIAAAAAAAAAA222IIIIIIIAAAAAAAAAAA222IIIIIIIIIIIIIIIIAA
AIIIIIIIIIIIAAAAAAAAAA222IIIIIIIIAAAAAAAAAA222IIIIIIIIIIIIIIIIAA
AIIIIIIIIIIIAAAAAAAAAA222IIIIIIIIAAAAAAAAAAA222IIIIIIIIIIIIIIIAA
AIIIIIIIIIIIAAAAAAAAAAA222IIIIIIIAAAAAAAAAAA222IIIIIIIIIIIIIIIAA
AI22IIIIIIIIAAAAAAAAAAA222IIIIIIIAAAAAAAAAAA222IIIIIIIIIIIIIIIAA
AI22IIIIIIIIAAAAAAAAAAA222IIIIIIIAAAAAAAAAAA222IIIIIIIIIIIIIIIIA
AI22IIIIIIIIAAAAAAAAAAA222IIIIIIIIAAAAAAAAAA222IIIIIIIIIIIIIIIIA
A222IIIIIIIIAAAAAAAAAAA222IIIIIIIIAAAAAAAAAA222IIIIIIIIIIIIIIIIA
A222IIIIIIIIAAAAAAAAAAA222IIIIIIIIAAAAAAAAAAA222IIIIIIIIIIIIIIIA
AA222IIIIIIIAAAAAAAAAAA222IIIIIIIIAAAAAAAAAAA222IIIIIIIIIIIIIIIA
AA222IIIIIIIAAAAAAAAAAAA222IIIIIIIAAAAAAAAAAA222IIIIIIIIIIIIIIIA
AA222IIIIIIIAAAAAAAAAAAA222IIIIIIIIAAAAAAAAAA222IIIIIIIIIIIIIIIA
AA222IIIIIIIAAAAAAAAAAAA222IIIIIIIIAAAAAAAAAAA222IIIIIIIIIIIIIIA
AAA222IIIIIIAAAAAAAAAAAA222IIIIIIIIAAAAAAAAAAA222IIIIIIIIIIIIIIA
AAA222IIIIIIAAAAAAAAAAAA222IIIIIIIIAAAAAAAAAAA222IIIIIIIIIIIIIII
AAA222IIIIIIAAIAAAAAAAAA222IIIIIIIIAAAAAAAAAAA222IIIIIIIIIIIIIII
AAA222IIIIIIAAIAAAAAAAAAA222IIIIIIIAAAAAAAAAAA222IIIIIIIIIIIIIII
AAA222IIIIIIAAIAAAAAAAAAA222IIIIIIIIAAAAAAAAAA222IIIIIIIIIIIIIII
AAA222IIIIIIAAIIAAAAAAAAA222IIIIIIIIAAAAAAAAAA222IIIIIIIIIIIIIII
AAA222IIIIIIAAIIAAAAAAAAA222IIIIIIIIAAAAAAAAAA2222IIIIIIIIIIIIII
AAA222IIIIIIAAIIAAAAAAAAA2222IIIIIIIAAAAAAAAAA2222IIIIIIIIIIIIII
AAA2222IIIIIAAIIAAAAAAAAA2222IIIIIIIAAAAAAAAAA2222IIIIIIIIIIIIII
AAA2222IIIIIAAIIAAAAAAAAA2222IIIIIIIIAAAAAAAAA2222IIIIIIIIIIIIII
AAA2222IIIIIAAIIAAAAAAAAA2222IIIIIIIIAAAAAAAAAA2222IIIIIIIIIIIII
AAAA2222IIIIAAIIAAAAAAAAA2222IIIIIIIIAAAAAAAAAA2222IIIIIIIIIIIII
AAAA2222IIIIAAIIIAAAAAAAA2222IIIIIIIIAAAAAAAAAA2222IIIIIIIIIIIII
AAAA2222IIIIAAIIIAAAAAAAAA2222IIIIIIIAAAAAAAAAA2222IIIIIIIIIIIII
AAAA2222IIIIAAIIIAAAAAAAAA2222IIIIIIIIAAAAAAAAA2222IIIIIIIIIIIII
AAAA2222IIIIAAIIIAAAAAAAAA2222IIIIIIIIAAAAAAAAAA2222IIIIIIIIIIII
AAAA2222IIIIAAIIIAAAAAAAAA2222IIIIIIIIIAAAAAAAAA2222IIIIIIIIIIII
AAAAA2222IIIAAIIIAAAAAAAAA2222IIIIIIIIIAAAAAAAAA2222IIIIIIIIIIII
AAAAA2222IIIAAIIIAAAAAAAAAA222IIIIIIIIIAAAAAAAAA2222IIIIIIIIIIII
AAAAA2222IIIAAIIIAAAAAAAAAA222IIIIIIIIIAAAAAAAAAA222IIIIIIIIIIII
AAAAAA222IIIAAIIIAAAAAAAAAA222IIIIIIIIIAAAAAAAAAA222IIIIIIIIIIII
AAAAAA222IIIAAIIIIAAAAAAAAA222IIIIIIIIIAAAAAAAAAA222IIIIIIIIIIII
AAAAAA222IIIAAIIIIAAAAAAAAAA222IIIIIIIIAAAAAAAAAA222IIIIIIIIIIII
AAAAAA222IIIAAIIIIAAAAAAAAAA222IIIIIIIIAAAAAAAAAAA222IIIIIIIIIII
AAAAAA222IIIAAIIIIAAAAAAAAAA222IIIIIIIIIAAAAAAAAAA222IIIIIIIIIII
AAAAAAA222IIAAIIIIAAAAAAAAAA222IIIIIIIIIAAAAAAAAAA222IIIIIIIIIII
AAAAAAA222IIAAIIIIIAAAAAAAAA222IIIIIIIIIAAAAAAAAAA222IIIIIIIIIII
AAAAAAA222IIAAIIIIIAAAAAAAAAA222IIIIIIIIAAAAAAAAAA222IIIIIIIIIII
AAAAAAA222IIAAIIIIIAAAAAAAAAA222IIIIIIIIAAAAAAAAAAA222IIIIIIIIII
AAAAAAAA222IAAIIIIIAAAAAAAAAA222IIIIIIIIAAAAAAAAAAA222IIIIIIIIII
AAAAAAAA222IAAIIIIIIAAAAAAAAA222IIIIIIIIAAAAAAAAAAA222IIIIIIIIII
AAAAAAAA222IAAIIIIIIAAAAAAAAAA222IIIIIIIAAAAAAAAAAA222IIIIIIIIII
AAAAAAAA222IAAIIIIIIAAAAAAAAAA222IIIIIIIIAAAAAAAAAA222IIIIIIIIII
AAAAAAAA222IAAIIIIIIAAAAAAAAAA222IIIIIIIIAAAAAAAAAAA222IIIIIIIII
AAAAAAAAA222AAIIIIIIAAAAAAAAAA222IIIIIIIIAAAAAAAAAAA222IIIIIIIII
AAAAAAAAA222AAIIIIIIIAAAAAAAAA222IIIIIIIIAAAAAAAAAAA222IIIIIIIII
AAAAAAAAA222AAIIIIIIIAAAAAAAAAA222IIIIIIIAAAAAAAAAAA222IIIIIIIII
AAAAAIAAA222AAIIIIIIIAAAAAAAAAA222IIIIIIIAAAAAAAAAAA222IIIIIIIII
AAAAAIAAA222AAIIIIIIIAAAAAAAAAA222IIIIIIIIAAAAAAAAAA222IIIIIIIII
AAAAAIAAA222AAIIIIIIIAAAAAAAAAA222IIIIIIIIAAAAAAAAAAA222IIIIIIII
AAAAAIAAAA22AAIIIIIIIAAAAAAAAAA222IIIIIIIIAAAAAAAAAAA222IIIIIIII
AAAAAIAAAA22AAIIIIIIIIAAAAAAAAA222IIIIIIIIAAAAAAAAAAA222IIIIIIII
AAAAAIAAAA22AAIIIIIIIIAAAAAAAAAA222IIIIIIIAAAAAAAAAAA222IIIIIIII
AAAAAIIAAA22AAIIIIIIIIAAAAAAAAAA222IIIIIIIAAAAAAAAAAA222IIIIIIII
AAAAAIIAAA22AAIIIIIIIIAAAAAAAAAA222IIIIIIIIAAAAAAAAAA222IIIIIIII
AAAAAIIAAA22AAIIIIIIIIAAAAAAAAAA222IIIIIIIIAAAAAAAAAAA222IIIIIII
AAAAAIIAAAA2AAIIIIIIIIAAAAAAAAAA222IIIIIIIIAAAAAAAAAAA222IIIIIII
AAAAAIIAAAA2AAIIIIIIIIIAAAAAAAAA222IIIIIIIIAAAAAAAAAAA222IIIIIII
AAAAAIIAAAA2AAIIIIIIIIIAAAAAAAAAA222IIIIIIIAAAAAAAAAAA222IIIIIII
AAAAAIIIAAA2AAIIIIIIIIIAAAAAAAAAA222IIIIIIIAAAAAAAAAAA222IIIIIII
AAAAAIIIAAA2AAIIIIIIIIIAAAAAAAAAA222IIIIIIIAAAAAAAAAAAA222IIIIII
AAAAAIIIAAAAAA2IIIIIIIIAAAAAAAAAA222IIIIIIIAAAAAAAAAAAA222IIIIII
AAAAAIIIAAAAAA2IIIIIIIIAAAAAAAAAAA222IIIIIIAAAAAAAAAAAA222IIIIII
AAAAAIIIIAAAAA2IIIIIIIIAAAAAAAAAAA222IIIIIIAAAAAAAAAAAA222IIIIII
AAAAAIIIIAAAAA2IIIIIIIIAAAAAAAAAAA222IIIIIIAAAAAAAAAAAAA222IIIII
AAAAAIIIIAAAAA22IIIIIIIAAAAAAAAAAA222IIIIIIAAAAAAAAAAAAA222IIIII
AAAAAIIIIAAAAA22IIIIIIIAIAAAAAAAAA222IIIIIIAAAAAAAAAAAAA222IIIII
AAAAAIIIIAAAAA22IIIIIIIAIAAAAAAAAAA222IIIIIAAAAAAAAAAAAA222IIIII
AAAAAIIIIAAAAA22IIIIIIIAIAAAAAAAAAA222IIIIIAAIAAAAAAAAAA222IIIII
AAAAAIIIIIAAAA22IIIIIIIAIAAAAAAAAAA222IIIIIAAIAAAAAAAAAA222IIIII
AAAAAIIIIIAAAA22IIIIIIIAIAAAAAAAAAA222IIIIIAAIAAAAAAAAAAA222IIII
AAAAAIIIIIAAAA222IIIIIIAIAAAAAAAAAA222IIIIIAAIAAAAAAAAAAA222IIII
AAAAAIIIIIIAAA222IIIIIIAIAAAAAAAAAA222IIIIIAAIAAAAAAAAAAA222IIII
AAAAAIIIIIIAAA222IIIIIIAIAAAAAAAAAAA222IIIIAAIAAAAAAAAAAA222IIII
AAAAAIIIIIIAAA222IIIIIIAIAAAAAAAAAAA222IIIIAAIIAAAAAAAAAA222IIII
AAAAAIIIIIIAAA222IIIIIIAIAAAAAAAAAAA222IIIIAAIIAAAAAAAAAAA222III
AAAAAIIIIIIAAAA222IIIIIAIAAAAAAAAAAA222IIIIAAIIAAAAAAAAAAA222III
AAAAAIIIIIIAAAA222IIIIIAIAAAAAAAAAAAA222IIIAAIIAAAAAAAAAAA222III
AAAAAIIIIIIIAAA222IIIIIAIAAAAAAAAAAAA222IIIAAIIAAAAAAAAAAA222III
AAAAAIIIIIIIAAA222IIIIIAIAAAAAAAAAAAA222IIIAAIIIAAAAAAAAAA222III
AAAAAIIIIIIIAAA222IIIIIAIAAAAAAAAAAAA222IIIAAIIIAAAAAAAAAAA222II
AAAAAIIIIIIIAAAA222IIIIAIAAAAAAAAAAAA222IIIAAIIIAAAAAAAAAAA222II
AAAAAIIIIIIIAAAA222IIIIAIAAAAAAAAAAAAA222IIAAIIIAAAAAAAAAAA222II
AAAAAIIIIIIIAAAA222IIIIAIAAAAAAAAAAAAA222IIAAIIIIAAAAAAAAAA222II
AAAAAIIIIIIIAAAA222IIIIAIAAAAAAAAAAAAA222IIAAIIIIAAAAAAAAAAA222I
AAAAAIIIIIIIAAAAA222IIIAIAAAAAAAAAAAAA222IIAAIIIIAAAAAAAAAAA222I
AAAAAIIIIIIIAAAAA222IIIAIAAAIAAAAAAAAA222IIAAIIIIAAAAAAAAAAA222I
AAAAAIIIIIIIAAAAA222IIIAIAAAIAAAAAAAAAA222IAAIIIIAAAAAAAAAAA222I
AAAAAIIIIIIIAAAAA222IIIAIAAAIAAAAAAAAAA222IAAIIIIIAAAAAAAAAA222I
AAAAAIIIIIIIAAAAA222IIIAIAAAIAAAAAAAAAA222IAAIIIIIAAAAAAAAAAA222
AAAAAIIIIIIIAAAAAA222IIAIAAAIAAAAAAAAAA222IAAIIIIIAAAAAAAAAAA222
AAAAAIIIIIIIAAAAAA222IIAIAAAIIAAAAAAAAA222IAAIIIIIAAAAAAAAAAA222
AAAAAIIIIIIIAAAAAA222IIAIAAAIIAAAAAAAAAA222AAIIIIIAAAAAAAAAAA222
AAAAAIIIIIIIAAAAAA222IIAIAAAIIAAAAAAAAAA222AAIIIIIIAAAAAAAAAA222
AAAAAIIIIIIIAAAAAA222IIAIAAAIIAAAAAAAAAA222AAIIIIIIAAAAAAAAAAA22
AAAAAIIIIIIIAAAAAAA222IAIAAAIIAAAAAAAAAA222AAIIIIIIAAAAAAAAAAA22
AAAAAIIIIIIIAAAAAAA222IAIAAAIIIAAAAAAAAA222AAIIIIIIAAAAAAAAAAA22
AAAAAIIIIIIIAAAAAAA222IAIAAAIIIAAAAAAAAAA22AAIIIIIIAAAAAAAAAAA22
AAAAAIIIIIIIAAAAAAA222IAIAAAIIIAAAAAAAAAA22AAIIIIIIIAAAAAAAAAA22
AAAAAIIIIIIIAAAAAAA222IAIAAAIIIAAAAAAAAAA22AAIIIIIIIAAAAAAAAAAA2
AAAAAIIIIIIIAAAAAAAA222AIAAAIIIAAAAAAAAAA22AAIIIIIIIAAAAAAAAAAA2
AAAAAIIIIIIIAAAAAAAA222AIAAAIIIIAAAAAAAAA22AAIIIIIIIAAAAAAAAAAA2
AAAAAIIIIIIIAAAAAAAA222AIAAAIIIIAAAAAAAAAA2AAIIIIIIIAAAAAAAAAAA2
AAAAAIIIIIIIAAAAAAAA222AIAAAIIIIAAAAAAAAAA2AAIIIIIIIIAAAAAAAAAA2
AAAAAIIIIIIIAAAAAAAA222AIAAAIIIIAAAAAAAAAA2AAIIIIIIIIAAAAAAAAAAA
AAAAAIIIIIIIAAAAAAAAA22AIAAAIIIIAAAAAAAAAA2AAIIIIIIIIAAAAAAAAAAA
AAAAAIIIIIIIAAAAAAAAA22AIAAAIIIIIAAAAAAAAA2AAIIIIIIIIAAAAAAAAAAA
AAAAAIIIIIIIAAAAAAAAA22AIAAAIIIIIAAAAAAAAAAAA2IIIIIIIAAAAAAAAAAA
AAAAAIIIIIIIAAAAAAAAA22AIAAAIIIIIAAAAAAAAAAAA2IIIIIIIIAAAAAAAAAA
AAAAAIIIIIIIAAAAAAAAAA2A2AAAIIIIIAAAAAAAAAAAA2IIIIIIIIAAAAAAAAAA
AAAAAIIIIIIIAAAAAAAAAA2A2AAAIIIIIIAAAAAAAAAAA2IIIIIIIIAAAAAAAAAA
AAAAAIIIIIIIAAAAAAAAAA2A2AAAIIIIIIAAAAAAAAAAA22IIIIIIIAAAAAAAAAA
AAAAAIIIIIIIAAAAAAAAAAAA2AAAIIIIIIAAAAAAAAAAA22IIIIIIIAAAAAAAAAA
AAAAAIIIIIIIAAAAAAAAAAAA2AAAIIIIIIAAAAAAAAAAA22IIIIIIIIAAAAAAAAA
AAAAAIIIIIIIAAAAAAAAAAAA2AAAIIIIIIIAAAAAAAAAA22IIIIIIIIAAAAAAAAA
AAAAAIIIIIIIAAAAAAAAAAAA2AAAIIIIIIIAAAAAAAAAA222IIIIIIIAAAAAAAAA
AAAAAIIIIIIIAAAAAAAAAAAA2AAAIIIIIIIAAAAAAAAAA222IIIIIIIIAAAAAAAA
AAAAAIIIIIIIAAAAAAAAAAAA2AAAIIIIIIIIAAAAAAAAA222IIIIIIIIAAAAAAAA
AAAAAIIIIIIIAAAAAAAAAAAA2AAAIIIIIIIIAAAAAAAAA2222IIIIIIIAAAAAAAA
AAAAAIIIIIIIIAAAAAAAAAAA2AAAIIIIIIIIAAAAAAAAA2222IIIIIIIAAAAAAAA
AAAAAIIIIIIIIIAAAAAAAAAA2AAAIIIIIIIIAAAAAAAAA2222IIIIIIIAAAAAAAA
AAAAAIIIIIIIIIAAAAAAAAAA2AAAIIIIIIIIAAAAAAAAA2222IIIIIIIIAAAAAAA
AAAAAIIIIIIIIIAIAAAAAAAA2AAAIIIIIIIIAAAAAAAAA2222IIIIIIIIAAAAAAA
AAAAAIIIIIIIIIAIAAAAAAAA2AAAIIIIIIIIIAAAAAAAA2222IIIIIIIIAAAAAAA
AAAAAIIIIIIIIIAIAAAAAAAA2AAAIIIIIIIIIAAAAAAAAA2222IIIIIIIAAAAAAA
AAAAAIIIIIIIIIAIAAAAAAAA2AAAIIIIIIIIIAAAAAAAAA2222IIIIIIIIAAAAAA
AAAAAIIIIIIIIIAIAAAAAAAAAAAA2IIIIIIIIAAAAAAAAA2222IIIIIIIIAAAAAA
AAAAAIIIIIIIIIIIAAAAAAAAAAAA2IIIIIIIIAAAAAAAAA2222IIIIIIIIAAAAAA
AAAAAIIIIIIIIIIIAAAAAAAAAAAA2IIIIIIIIIAAAAAAAA2222IIIIIIIIAAAAAA
AAAAAIIIIIIIIIIIAAAAAAAAAAAA2IIIIIIIIIAAAAAAAAA2222IIIIIIIAAAAAA
AAAAAIIIIIIIIIIIAAAAAAAAAAAA2IIIIIIIIIAAAAAAAAAA222IIIIIIIAAAAAA
AAAAAIIIIIIIIIIIAAAAAAAAAAAA2IIIIIIIIIAAAAAAAAAA222IIIIIIIIAAAAA
AAAAAIIIIIIIIIIIAAAAAAAAAAAA22IIIIIIIIAAAAAAAAAA222IIIIIIIIAAAAA
AAAAAIIIIIIIIIIIAAAAAAAAAAAA22IIIIIIIIAAAAAAAAAAA222IIIIIIIAAAAA
AAAAAIIIIIIIIIIIAAAAAAAAAAAA22IIIIIIIIAAAAAAAAAAA222IIIIIIIIAAAA
AAAAAIIIIIIIIIIIAAAAAAAAAAAA222IIIIIIIAAAAAAAAAAA222IIIIIIIIAAAA
AAAAAIIIIIIIIIIIAAAAAAAAAAAA222IIIIIIIAAAAAAAAAAAA222IIIIIIIAAAA
AAAAAIIIIIIIIIIIAAAAAAAAAAAA222IIIIIIIAAAAAAAAAAAA222IIIIIIIIAAA
AAAAAIIIIIIIIIIIAAAAAAAAAAAA222IIIIIIIAAAAAAAAAAAA222IIIIIIIIIAA
AAAAAIIIIIIIIIIIAAAAAAAAAAAAA222IIIIIIAAAAAAAAAAAA222IIIIIIIIIAA
AAAAAIIIIIIIIIIIAAAAAAAAAAAAA222IIIIIIAAIAAAAAAAAA222IIIIIIIIIAA
AAAAAIIIIIIIIIIIAAAAAAAAAAAAA222IIIIIIAAIAAAAAAAAAA222IIIIIIIIAA
AAAAAIIIIIIIIIIIAAAAAAAAAAAAA222IIIIIIAAIAAAAAAAAAA222IIIIIIIIIA
AAAAAIIIIIIIIIIIAAAAAAAAAAAAAA222IIIIIAAIAAAAAAAAAA222IIIIIIIIIA
AAAAAIIIIIIIIIIIAAAAAAAAAAAAAA222IIIIIAAIIAAAAAAAAA222IIIIIIIIIA
AAAAAIIIIIIIIIIIAAAAAAAAAAAAAA222IIIIIAAIIAAAAAAAAAA222IIIIIIIIA
AAAAAIIIIIIIIIIIAAAAAAAAAAAAAAA222IIIIAAIIAAAAAAAAAA222IIIIIIIIA
AAAAAIIIIIIIIIIIAAAAAAAAAAAAAAA222IIIIAAIIIAAAAAAAAA222IIIIIIIIA
AAAAAIIIIIIIIIIIAAAAAAAAAAAAAAA222IIIIAAIIIAAAAAAAAAA222IIIIIIIA
AAAAAIIIIIIIIIIIAAAAAAAAAAAAAAA222IIIIAAIIIAAAAAAAAAA222IIIIIIII
AAAAAIIIIIIIIIIIAAAAAAAAAAAAAAAA222IIIAAIIIAAAAAAAAAA222IIIIIIII
AAAAAIIIIIIIIIIIAAAAAAAAAAAAAAAA222IIIAAIIIAAAAAAAAAAA222IIIIIII
AAAAAIIIIIIIIIIIAAAAAAAAAAAAAAAAA222IIAAIIIAAAAAAAAAAA222IIIIIII
AAAAAIIIIIIIIIIIAAAAAAAAAAAAAAAAA222IIAAIIIAAAAAAAAAAAA222IIIIII
AAAAAIIIIIIIIIIIAAAAAAAAAAAAAAAAAA222IAAIIIAAAAAAAAAAAA222IIIIII
AAAAAIIIIIIIIIIIAAAAAAAIAAAAAAAAAA222IAAIIIAAAAAAAAAAAA222IIIIII
AAAAAIIIIIIIIIIIAAAAAAAIAAAAAAAAAA222IAAIIIAAAAAAAAAAAAA222IIIII
AAAAAIIIIIIIIIIIAAAAAAAIAAAAAAAAAAA222AAIIIAAAAAAAAAAAAA222IIIII
AAAAAIIIIIIIIIIIAAAAAAAIAAAAAAAAAAA222AAIIIAAAIAAAAAAAAA222IIIII
AAAAAIIIIIIIIIIIAAAAAAAIAAAAAAAAAAA222AAIIIAAAIAAAAAAAAAA222IIII
AAAAAIIIIIIIIIIIAAAAAAAIAAAAAAAAAAAA22AAIIIAAAIAAAAAAAAAA222IIII
AAAAAIIIIIIIIIIIAAAAAAAIAAAAAAAAAAAA22AAIIIAAAIIAAAAAAAAA222IIII
AAAAAIIIIIIIIIIIAAAAAAAIAIAAAAAAAAAA22AAIIIAAAIIAAAAAAAAA222IIII
AAAAAIIIIIIIIIIIAAAAAAAIAIAAAAAAAAAA22AAIIIAAAIIAAAAAAAAAA222III
AAAAAIIIIIIIIIIIAAAAAAAIAIAAAAAAAAAAA2AAIIIAAAIIAAAAAAAAAA222III
AAAAAIIIIIIIIIIIAAAAAAAIAIAAAAAAAAAAA2AAIIIAAAIIIAAAAAAAAA222III
AAAAAIIIIIIIIIIIAAAAAAAIAIIAAAAAAAAAA2AAIIIAAAIIIAAAAAAAAA222III
AAAAAIIIIIIIIIIIAAAAAAAIAIIAAAAAAAAAA2AAIIIAAAIIIAAAAAAAAAA222II
AAAAAIIIIIIIIIIIAAAAAAAIAIIAAAAAAAAAAAAA2IIAAAIIIAAAAAAAAAA222II
AAAAAIIIIIIIIIIIAAAAAAAIAIIAAAAAAAAAAAAA2IIAAAIIIIAAAAAAAAA222II
AAAAAIIIIIIIIIIIAAAAAAAIAIIIAAAAAAAAAAAA2IIAAAIIIIAAAAAAAAA222II
AAAAAIIIIIIIIIIIAAAAAAAIAIIIAAAAAAAAAAAA2IIAAAIIIIAAAAAAAAAA222I
AAAAAIIIIIIIIIIIAAAAAAAIAIIIAAAAAAAAAAAA22IAAAIIIIAAAAAAAAAA222I
AAAAAIIIIIIIIIIIAAAAAAAIAIIIAAAAAAAAAAAA22IAAAIIIIIAAAAAAAAA222I
AAAAAIIIIIIIIIIIAAAAAAAIAIIIAAAAAAAAAAAA22IAAAIIIIIAAAAAAAAAA222
AAAAAIIIIIIIIIIIAAAAAAAIAIIIAAAAAAAAAAAA222AAAIIIIIAAAAAAAAAA222
AAAAAIIIIIIIIIIIAAAAAAAIAIIIAAAAAAAAAAAA222AAAIIIIIIAAAAAAAAA222
AAAAAIIIIIIIIIIIAAAAAAAIAIIIAAAAAAAAAAAA222AAAIIIIIIAAAAAAAAAA22
AAAAAIIIIIIIIIIIAAAAAAAIAIIIAAAAAAAAAAAAA22AAAIIIIIIAAAAAAAAAA22
AAAAAIIIIIIIIIIIAAAAAAAIAIIIAAAAAAAAAAAAA22AAAIIIIIIIAAAAAAAAA22
AAAAAIIIIIIIIIIIAAAAAAAIAIIIAAAAAAAAAAAAA22AAAIIIIIIIAAAAAAAAAA2
AAAAAIIIIIIIIIIIAAAAAAAIAIIIAAAAAAAAAAAAAA2AAAIIIIIIIAAAAAAAAAA2
AAAAAIIIIIIIIIIIAAAAAAAIAIIIAAAAAAAAAAAAAA2AAAIIIIIIIIAAAAAAAAA2
AAAAAIIIIIIIIIIIAAAAAAAIAIIIAAAAAAAAAAAAAA2AAAIIIIIIIIAAAAAAAAAA
AAAAAIIIIIIIIIIIAAAAAAAIAIIIAAAAAAAAAAAAAAAAAAIIIIIIIIAAAAAAAAAA
AAAAAIIIIIIIIIIIAAAAAAAIAIIIAAAAAAAAAAAAAAAAAAIIIIIIIIIAAAAAAAAA
AAAAAIIIIIIIIIIIAAAAAAAIAIIIAAAAAAAAAAAAAAAAAAIIIIIIIIIIAAAAAAAA
AAAAAIIIIIIIIIIIAAAAAAAIAIIIAAAAAAAAAAAAAAAAAA2IIIIIIIIIAAAAAAAA
AAAAAIIIIIIIIIIIAAAAAAAIAIIIAAAAAAAAAAAAAAAAAA22IIIIIIIIAAAAAAAA
AAAAAIIIIIIIIIIIAAAAAAAIAIIIAAAAAAAAAAAAAAAAAA22IIIIIIIIIAAAAAAA
AAAAAIIIIIIIIIIIAAAAAAAIAIIIAAAAAAAAAAAAAAAAAA2222IIIIIIIAAAAAAA
AAAAAIIIIIIIIIIIAAAAAAAIAIIIAAAAAAAAAAAAAAAAAA2222IIIIIIIIAAAAAA
AAAAAIIIIIIIIIIIAAAAAAAIAIIIAAAAAAAAAAAAAAAAAA2222IIIIIIIIIAAAAA
AAAAAIIIIIIIIIIIAAAAAAAIAIIIAAAAAAAAAAAAAAAAAAA2222IIIIIIIIAAAAA
AAAAAIIIIIIIIIIIAAAAAAAIAIIIAAAAAAAAAAAAAAAAAAA2222IIIIIIIIIAAAA
AAAAAIIIIIIIIIIIAAAAAAAIAIIIAAAAAAAAAAAAAAAAAAAA222IIIIIIIIIAAAA
AAAAAIIIIIIIIIIIAAAAAAAIAIIIAAAAAAAAAAAAAAAAAAAAA222IIIIIIIIAAAA
AAAAAIIIIIIIIIIIAAAAAAAIAIIIAAAAAAAAAAAAAAAAAAAAA222IIIIIIIIIAAA
AAAAAIIIIIIIIIIIAAAAAAAIAIIIAAAAAAAAAAIAAAAAAAAAA222IIIIIIIIIAAA
AAAAAIIIIIIIIIIIAAAAAAAIAIIIAAAAAAAAAAIAAAAAAAAAAA222IIIIIIIIAAA
AAAAAIIIIIIIIIIIAAAAAAAIAIIIAAAAAAAAAAIIAAAAAAAAAA222IIIIIIIIAAA
AAAAAIIIIIIIIIIIAAAAAAAIAIIIAAAAAAAAAAIIAAAAAAAAAAA222IIIIIIIAAA
AAAAAIIIIIIIIIIIAAAAAAAIAIIIAAAAAAAAAAIIAAAAAAAAAAAA222IIIIIIAAA
AAAAAIIIIIIIIIIIAAAAAAAIAIIIAAAAAAAAAAIIAAAAAAAAAAAA222IIIIIIAAI
AAAAAIIIIIIIIIIIAAAAAAAIAIIIAAAAAAAAAAIIAAAAAAAAAAAAA222IIIIIAAI
AAAAAIIIIIIIIIIIAAAAAAAIAIIIAAAAAAAAAAIIAAAAAAAAAAAAAA222IIIIAAI
AAAAAIIIIIIIIIIIAAAAAAAIAIIIAAAAAAAAAAIIAAAAAAAAAAAAAAA222IIIAAI
AAAAAIIIIIIIIIIIAAAAAAAIAIIIAAAAAAAAAAIIAAAAAAAAAAAAAAAA222IIAAI
AAAAAIIIIIIIIIIIAAAAAAAIAIIIAAAAAAAAAAIIAAAAAAAAAAAAAAAAA222IAAI
AAAAAIIIIIIIIIIIAAAAAAAIAIIIAAAAAAAAAAIIAAAAAIAAAAAAAAAAA222IAAI
AAAAAIIIIIIIIIIIAAAAAAAIAIIIAAAAAAAAAAIIAAAAAIAAAAAAAAAAAA222AAI
AAAAAIIIIIIIIIIIAAAAAAAIAIIIAAAAAAAAAAIIAAAAAIAAAAAAAAAAAAA22AAI
AAAAAIIIIIIIIIIIAAAAAAAIAIIIAAAAAAAAAAIIAAAAAIAAAAAAAAAAAAAA2AAI
AAAAAIIIIIIIIIIIAAAAAAAIAIIIAAAAAAAAAAIIAAAAAIAAAAAAAAAAAAAAAAA2
AAAAAIIIIIIIIIIIAAAAAAAIAIIIAAAAAAAAAAIIAAAAAIAAAAAAAAAAAAAAAAAA
AAAAAIIIIIIIIIIIAAAAAAAIAIIIAAAAAAAAAAIIAAAAAIAAAAAAAAAAAAAAAIAA
AAAAAIIIIIIIIIIIAAAAAAAIAIIIAAAAAAAAAAIIAAAAAIAAAAAAAAAAAAAAAIIA
[MLOP] Prefetch Degree Mean: 3.00529
[MLOP] Prefetch Degree SD: 0.63619
[MLOP] Max Score Left Mean (%): 94.92381
[MLOP] Max Score Left SD (%): 6.27085
[MLOP] Max Score Right Mean (%): 99.56878
[MLOP] Max Score Right SD (%): 1.34124

Channel_0_RQ_row_buffer_hit 95118
Channel_0_RQ_row_buffer_miss 36195
Channel_0_WQ_row_buffer_hit 12381
Channel_0_WQ_row_buffer_miss 20776
Channel_0_WQ_full 0
Channel_0_dbus_congested 43015

avg_congested_cycle 8

DRAM_bw_pochs 195459
DRAM_bw_level_0 177268
DRAM_bw_level_1 5436
DRAM_bw_level_2 9769
DRAM_bw_level_3 2986
