*************************************************
   ChampSim Multicore Out-of-Order Simulator
   Last compiled: Apr  3 2025 20:54:34
*************************************************
parsing config file: /home/zir/Pythia/config/nopref.ini

trace_0 /home/zir/ChampSim/ML-DPC/ChampSimTraces/spec17/619.lbm-s0.trace.xz
adding L2C_PREFETCHER: NONE
Initialize SHIP state
warmup_instructions 10000000
simulation_instructions 50000000
champsim_seed 163
measure_ipc 0
measure_ipc_epoch 1000
measure_dram_bw 1
measure_dram_bw_epoch 256
measure_cache_acc 1
measure_cache_acc_epoch 1024
l1d_perfect 0
l2c_perfect 0
llc_perfect 0
l1d_semi_perfect 0
l2c_semi_perfect 0
llc_semi_perfect 0
semi_perfect_cache_page_buffer_size 64

num_cpus 1
cpu_freq 4000
dram_io_freq 2400
page_size 4096
block_size 64
max_read_per_cycle 8
max_fill_per_cycle 1
dram_channels 1
log2_dram_channels 0
dram_ranks 1
dram_banks 8
dram_rows 65536
dram_columns 128
dram_row_size 8
dram_size 4096
dram_pages 1048576

fetch_width 6
decode_width 6
exec_width 4
lq_width 2
sq_width 2
retire_width 4
scheduler_size 128
branch_mispredict_penalty 20
rob_size 256
lq_size 72
sq_size 56
num_instr_destinations_sparc 4
num_instr_destinations 2
num_instr_sources 4

itlb_set 16
itlb_way 8
itlb_rq_size 16
itlb_wq_size 16
itlb_pq_size 0
itlb_mshr_size 8
itlb_latency 1

dtlb_set 16
dtlb_way 4
dtlb_rq_size 16
dtlb_wq_size 16
dtlb_pq_size 0
dtlb_mshr_size 8
dtlb_latency 1

stlb_set 128
stlb_way 12
stlb_rq_size 32
stlb_wq_size 32
stlb_pq_size 0
stlb_mshr_size 16
stlb_latency 8

l1i_size 32
l1i_set 64
l1i_way 8
l1i_rq_size 64
l1i_wq_size 64
l1i_pq_size 8
l1i_mshr_size 8
l1i_latency 1

l1d_size 32
l1d_set 64
l1d_way 8
l1d_rq_size 64
l1d_wq_size 64
l1d_pq_size 8
l1d_mshr_size 16
l1d_latency 4

l2c_size 256
l2c_set 512
l2c_way 8
l2c_rq_size 32
l2c_wq_size 32
l2c_pq_size 32
l2c_mshr_size 32
l2c_latency 10

llc_size 2048
llc_set 2048
llc_way 16
llc_rq_size 32
llc_wq_size 32
llc_pq_size 32
llc_mshr_size 64
llc_latency 20

dram_channel_width 8
dram_wq_size 64
dram_rq_size 64
tRP 15
tRCD 15
tCAS 12.5
dram_dbus_turn_around_time 30
dram_write_high_wm 56
dram_write_low_wm 48
min_dram_writes_per_switch 16
dram_mtps 2400
dram_dbus_return_time 13


Heartbeat CPU  0 instructions:    1000002 cycles:     408363 heartbeat IPC: 2.44881 cumulative IPC: 2.44881 (Simulation time: 0 hr 0 min 1 sec) 
Heartbeat CPU  0 instructions:    2000002 cycles:     814765 heartbeat IPC: 2.46062 cumulative IPC: 2.45470 (Simulation time: 0 hr 0 min 3 sec) 
Heartbeat CPU  0 instructions:    3000003 cycles:    1236981 heartbeat IPC: 2.36846 cumulative IPC: 2.42526 (Simulation time: 0 hr 0 min 5 sec) 
Heartbeat CPU  0 instructions:    4000000 cycles:    1663087 heartbeat IPC: 2.34683 cumulative IPC: 2.40517 (Simulation time: 0 hr 0 min 7 sec) 
Heartbeat CPU  0 instructions:    5000000 cycles:    2083798 heartbeat IPC: 2.37693 cumulative IPC: 2.39946 (Simulation time: 0 hr 0 min 9 sec) 
Heartbeat CPU  0 instructions:    6000003 cycles:    2506072 heartbeat IPC: 2.36814 cumulative IPC: 2.39419 (Simulation time: 0 hr 0 min 10 sec) 
Heartbeat CPU  0 instructions:    7000001 cycles:    2927730 heartbeat IPC: 2.37159 cumulative IPC: 2.39093 (Simulation time: 0 hr 0 min 12 sec) 
Heartbeat CPU  0 instructions:    8000000 cycles:    3347688 heartbeat IPC: 2.38119 cumulative IPC: 2.38971 (Simulation time: 0 hr 0 min 14 sec) 
Heartbeat CPU  0 instructions:    9000001 cycles:    3765025 heartbeat IPC: 2.39615 cumulative IPC: 2.39042 (Simulation time: 0 hr 0 min 16 sec) 
Heartbeat CPU  0 instructions:   10000000 cycles:    4172221 heartbeat IPC: 2.45582 cumulative IPC: 2.39681 (Simulation time: 0 hr 0 min 18 sec) 

Warmup complete CPU  0 instructions:   10000004 cycles:    4172222 (Simulation time: 0 hr 0 min 18 sec) 

Heartbeat CPU  0 instructions:   11000002 cycles:    6892446 heartbeat IPC: 0.36762 cumulative IPC: 0.36762 (Simulation time: 0 hr 0 min 21 sec) 
Heartbeat CPU  0 instructions:   12000000 cycles:   10099743 heartbeat IPC: 0.31179 cumulative IPC: 0.33741 (Simulation time: 0 hr 0 min 24 sec) 
Heartbeat CPU  0 instructions:   13000000 cycles:   13196981 heartbeat IPC: 0.32287 cumulative IPC: 0.33242 (Simulation time: 0 hr 0 min 27 sec) 
Heartbeat CPU  0 instructions:   14000000 cycles:   16325844 heartbeat IPC: 0.31960 cumulative IPC: 0.32912 (Simulation time: 0 hr 0 min 31 sec) 
Heartbeat CPU  0 instructions:   15000003 cycles:   19364067 heartbeat IPC: 0.32914 cumulative IPC: 0.32912 (Simulation time: 0 hr 0 min 34 sec) 
Heartbeat CPU  0 instructions:   16000000 cycles:   22400726 heartbeat IPC: 0.32931 cumulative IPC: 0.32915 (Simulation time: 0 hr 0 min 37 sec) 
Heartbeat CPU  0 instructions:   17000003 cycles:   25440396 heartbeat IPC: 0.32898 cumulative IPC: 0.32913 (Simulation time: 0 hr 0 min 41 sec) 
Heartbeat CPU  0 instructions:   18000003 cycles:   28337007 heartbeat IPC: 0.34523 cumulative IPC: 0.33106 (Simulation time: 0 hr 0 min 44 sec) 
Heartbeat CPU  0 instructions:   19000000 cycles:   30955547 heartbeat IPC: 0.38189 cumulative IPC: 0.33603 (Simulation time: 0 hr 0 min 47 sec) 
Heartbeat CPU  0 instructions:   20000000 cycles:   33655157 heartbeat IPC: 0.37042 cumulative IPC: 0.33918 (Simulation time: 0 hr 0 min 50 sec) 
Heartbeat CPU  0 instructions:   21000003 cycles:   36646223 heartbeat IPC: 0.33433 cumulative IPC: 0.33873 (Simulation time: 0 hr 0 min 53 sec) 
Heartbeat CPU  0 instructions:   22000002 cycles:   39716392 heartbeat IPC: 0.32571 cumulative IPC: 0.33761 (Simulation time: 0 hr 0 min 57 sec) 
Heartbeat CPU  0 instructions:   23000001 cycles:   42752758 heartbeat IPC: 0.32934 cumulative IPC: 0.33696 (Simulation time: 0 hr 1 min 0 sec) 
Heartbeat CPU  0 instructions:   24000000 cycles:   45569355 heartbeat IPC: 0.35504 cumulative IPC: 0.33819 (Simulation time: 0 hr 1 min 3 sec) 
Heartbeat CPU  0 instructions:   25000002 cycles:   48627399 heartbeat IPC: 0.32701 cumulative IPC: 0.33742 (Simulation time: 0 hr 1 min 7 sec) 
Heartbeat CPU  0 instructions:   26000001 cycles:   51541641 heartbeat IPC: 0.34314 cumulative IPC: 0.33777 (Simulation time: 0 hr 1 min 10 sec) 
Heartbeat CPU  0 instructions:   27000001 cycles:   54610269 heartbeat IPC: 0.32588 cumulative IPC: 0.33705 (Simulation time: 0 hr 1 min 13 sec) 
Heartbeat CPU  0 instructions:   28000000 cycles:   57305188 heartbeat IPC: 0.37107 cumulative IPC: 0.33877 (Simulation time: 0 hr 1 min 16 sec) 
Heartbeat CPU  0 instructions:   29000001 cycles:   59770337 heartbeat IPC: 0.40566 cumulative IPC: 0.34174 (Simulation time: 0 hr 1 min 19 sec) 
Heartbeat CPU  0 instructions:   30000003 cycles:   62547133 heartbeat IPC: 0.36013 cumulative IPC: 0.34261 (Simulation time: 0 hr 1 min 22 sec) 
Heartbeat CPU  0 instructions:   31000003 cycles:   65484652 heartbeat IPC: 0.34042 cumulative IPC: 0.34251 (Simulation time: 0 hr 1 min 25 sec) 
Heartbeat CPU  0 instructions:   32000000 cycles:   68198703 heartbeat IPC: 0.36845 cumulative IPC: 0.34361 (Simulation time: 0 hr 1 min 29 sec) 
Heartbeat CPU  0 instructions:   33000002 cycles:   71079091 heartbeat IPC: 0.34718 cumulative IPC: 0.34376 (Simulation time: 0 hr 1 min 32 sec) 
Heartbeat CPU  0 instructions:   34000003 cycles:   73830864 heartbeat IPC: 0.36340 cumulative IPC: 0.34454 (Simulation time: 0 hr 1 min 35 sec) 
Heartbeat CPU  0 instructions:   35000003 cycles:   76461117 heartbeat IPC: 0.38019 cumulative IPC: 0.34583 (Simulation time: 0 hr 1 min 38 sec) 
Heartbeat CPU  0 instructions:   36000000 cycles:   79236691 heartbeat IPC: 0.36028 cumulative IPC: 0.34637 (Simulation time: 0 hr 1 min 41 sec) 
Heartbeat CPU  0 instructions:   37000000 cycles:   82267427 heartbeat IPC: 0.32995 cumulative IPC: 0.34573 (Simulation time: 0 hr 1 min 44 sec) 
Heartbeat CPU  0 instructions:   38000001 cycles:   84893255 heartbeat IPC: 0.38083 cumulative IPC: 0.34687 (Simulation time: 0 hr 1 min 47 sec) 
Heartbeat CPU  0 instructions:   39000000 cycles:   87384176 heartbeat IPC: 0.40146 cumulative IPC: 0.34851 (Simulation time: 0 hr 1 min 50 sec) 
Heartbeat CPU  0 instructions:   40000000 cycles:   89966654 heartbeat IPC: 0.38722 cumulative IPC: 0.34967 (Simulation time: 0 hr 1 min 53 sec) 
Heartbeat CPU  0 instructions:   41000001 cycles:   92671684 heartbeat IPC: 0.36968 cumulative IPC: 0.35028 (Simulation time: 0 hr 1 min 57 sec) 
Heartbeat CPU  0 instructions:   42000001 cycles:   95210218 heartbeat IPC: 0.39393 cumulative IPC: 0.35150 (Simulation time: 0 hr 2 min 0 sec) 
Heartbeat CPU  0 instructions:   43000002 cycles:   98128296 heartbeat IPC: 0.34269 cumulative IPC: 0.35123 (Simulation time: 0 hr 2 min 3 sec) 
Heartbeat CPU  0 instructions:   44000000 cycles:  100638048 heartbeat IPC: 0.39844 cumulative IPC: 0.35246 (Simulation time: 0 hr 2 min 6 sec) 
Heartbeat CPU  0 instructions:   45000003 cycles:  103277519 heartbeat IPC: 0.37886 cumulative IPC: 0.35316 (Simulation time: 0 hr 2 min 9 sec) 
Heartbeat CPU  0 instructions:   46000000 cycles:  105820206 heartbeat IPC: 0.39328 cumulative IPC: 0.35416 (Simulation time: 0 hr 2 min 13 sec) 
Heartbeat CPU  0 instructions:   47000001 cycles:  108746925 heartbeat IPC: 0.34168 cumulative IPC: 0.35381 (Simulation time: 0 hr 2 min 16 sec) 
Heartbeat CPU  0 instructions:   48000000 cycles:  111384749 heartbeat IPC: 0.37910 cumulative IPC: 0.35444 (Simulation time: 0 hr 2 min 20 sec) 
Heartbeat CPU  0 instructions:   49000002 cycles:  113767076 heartbeat IPC: 0.41976 cumulative IPC: 0.35586 (Simulation time: 0 hr 2 min 23 sec) 
Heartbeat CPU  0 instructions:   50000001 cycles:  116287237 heartbeat IPC: 0.39680 cumulative IPC: 0.35678 (Simulation time: 0 hr 2 min 26 sec) 
Heartbeat CPU  0 instructions:   51000000 cycles:  118671753 heartbeat IPC: 0.41937 cumulative IPC: 0.35808 (Simulation time: 0 hr 2 min 28 sec) 
Heartbeat CPU  0 instructions:   52000000 cycles:  121187649 heartbeat IPC: 0.39747 cumulative IPC: 0.35893 (Simulation time: 0 hr 2 min 31 sec) 
Heartbeat CPU  0 instructions:   53000002 cycles:  123822848 heartbeat IPC: 0.37948 cumulative IPC: 0.35938 (Simulation time: 0 hr 2 min 35 sec) 
Heartbeat CPU  0 instructions:   54000003 cycles:  126386427 heartbeat IPC: 0.39008 cumulative IPC: 0.36002 (Simulation time: 0 hr 2 min 38 sec) 
Heartbeat CPU  0 instructions:   55000000 cycles:  128871262 heartbeat IPC: 0.40244 cumulative IPC: 0.36087 (Simulation time: 0 hr 2 min 40 sec) 
Heartbeat CPU  0 instructions:   56000000 cycles:  131333724 heartbeat IPC: 0.40610 cumulative IPC: 0.36174 (Simulation time: 0 hr 2 min 43 sec) 
Heartbeat CPU  0 instructions:   57000003 cycles:  133678684 heartbeat IPC: 0.42645 cumulative IPC: 0.36292 (Simulation time: 0 hr 2 min 46 sec) 
Heartbeat CPU  0 instructions:   58000002 cycles:  136558176 heartbeat IPC: 0.34728 cumulative IPC: 0.36258 (Simulation time: 0 hr 2 min 49 sec) 
Heartbeat CPU  0 instructions:   59000003 cycles:  138909557 heartbeat IPC: 0.42528 cumulative IPC: 0.36367 (Simulation time: 0 hr 2 min 52 sec) 
Heartbeat CPU  0 instructions:   60000000 cycles:  141458671 heartbeat IPC: 0.39229 cumulative IPC: 0.36420 (Simulation time: 0 hr 2 min 55 sec) 
Finished CPU 0 instructions: 50000000 cycles: 137286475 cumulative IPC: 0.36420 (Simulation time: 0 hr 2 min 55 sec) 

ChampSim completed all CPUs

[ROI Statistics]
Core_0_instructions 50000000
Core_0_cycles 137286475
Core_0_IPC 0.36420

Core_0_branch_prediction_accuracy 97.72417
Core_0_branch_MPKI 0.36452
Core_0_average_ROB_occupancy_at_mispredict 242.86722

Core_0_L1D_total_access 13500459
Core_0_L1D_total_hit 10147232
Core_0_L1D_total_miss 3353227
Core_0_L1D_loads 4806022
Core_0_L1D_load_hit 4297710
Core_0_L1D_load_miss 508312
Core_0_L1D_RFOs 8694437
Core_0_L1D_RFO_hit 5849522
Core_0_L1D_RFO_miss 2844915
Core_0_L1D_prefetches 0
Core_0_L1D_prefetch_hit 0
Core_0_L1D_prefetch_miss 0
Core_0_L1D_writebacks 0
Core_0_L1D_writeback_hit 0
Core_0_L1D_writeback_miss 0
Core_0_L1D_prefetch_requested 0
Core_0_L1D_prefetch_dropped 0
Core_0_L1D_prefetch_issued 0
Core_0_L1D_prefetch_filled 0
Core_0_L1D_prefetch_useful 0
Core_0_L1D_prefetch_useless 0
Core_0_L1D_prefetch_late 0
Core_0_L1D_average_miss_latency 385.02970

Core_0_L1D_rq_access 11380634
Core_0_L1D_rq_forward 0
Core_0_L1D_rq_merged 6320036
Core_0_L1D_rq_to_cache 5029609
Core_0_L1D_rq_full 0

Core_0_L1D_wq_access 8740015
Core_0_L1D_wq_forward 30989
Core_0_L1D_wq_merged 6658
Core_0_L1D_wq_to_cache 8733357
Core_0_L1D_wq_full 5413

Core_0_L1D_pq_access 0
Core_0_L1D_pq_forward 0
Core_0_L1D_pq_merged 0
Core_0_L1D_pq_to_cache 0
Core_0_L1D_pq_full 0

Core_0_L1D_acc_epochs 135074
Core_0_L1D_acc_level_0 135074
Core_0_L1D_acc_level_1 0
Core_0_L1D_acc_level_2 0
Core_0_L1D_acc_level_3 0
Core_0_L1D_acc_level_4 0
Core_0_L1D_acc_level_5 0
Core_0_L1D_acc_level_6 0
Core_0_L1D_acc_level_7 0
Core_0_L1D_acc_level_8 0
Core_0_L1D_acc_level_9 0

Core_0_L1I_total_access 11667121
Core_0_L1I_total_hit 11667121
Core_0_L1I_total_miss 0
Core_0_L1I_loads 11667121
Core_0_L1I_load_hit 11667121
Core_0_L1I_load_miss 0
Core_0_L1I_RFOs 0
Core_0_L1I_RFO_hit 0
Core_0_L1I_RFO_miss 0
Core_0_L1I_prefetches 0
Core_0_L1I_prefetch_hit 0
Core_0_L1I_prefetch_miss 0
Core_0_L1I_writebacks 0
Core_0_L1I_writeback_hit 0
Core_0_L1I_writeback_miss 0
Core_0_L1I_prefetch_requested 0
Core_0_L1I_prefetch_dropped 0
Core_0_L1I_prefetch_issued 0
Core_0_L1I_prefetch_filled 0
Core_0_L1I_prefetch_useful 0
Core_0_L1I_prefetch_useless 0
Core_0_L1I_prefetch_late 0
Core_0_L1I_average_miss_latency -nan

Core_0_L1I_rq_access 50000006
Core_0_L1I_rq_forward 0
Core_0_L1I_rq_merged 38332885
Core_0_L1I_rq_to_cache 11667121
Core_0_L1I_rq_full 0

Core_0_L1I_wq_access 0
Core_0_L1I_wq_forward 0
Core_0_L1I_wq_merged 0
Core_0_L1I_wq_to_cache 0
Core_0_L1I_wq_full 0

Core_0_L1I_pq_access 0
Core_0_L1I_pq_forward 0
Core_0_L1I_pq_merged 0
Core_0_L1I_pq_to_cache 0
Core_0_L1I_pq_full 0

Core_0_L1I_acc_epochs 135074
Core_0_L1I_acc_level_0 135074
Core_0_L1I_acc_level_1 0
Core_0_L1I_acc_level_2 0
Core_0_L1I_acc_level_3 0
Core_0_L1I_acc_level_4 0
Core_0_L1I_acc_level_5 0
Core_0_L1I_acc_level_6 0
Core_0_L1I_acc_level_7 0
Core_0_L1I_acc_level_8 0
Core_0_L1I_acc_level_9 0

Core_0_L2C_total_access 6198140
Core_0_L2C_total_hit 3611722
Core_0_L2C_total_miss 2586418
Core_0_L2C_loads 508311
Core_0_L2C_load_hit 152
Core_0_L2C_load_miss 508159
Core_0_L2C_RFOs 2844913
Core_0_L2C_RFO_hit 767089
Core_0_L2C_RFO_miss 2077824
Core_0_L2C_prefetches 0
Core_0_L2C_prefetch_hit 0
Core_0_L2C_prefetch_miss 0
Core_0_L2C_writebacks 2844916
Core_0_L2C_writeback_hit 2844481
Core_0_L2C_writeback_miss 435
Core_0_L2C_prefetch_requested 0
Core_0_L2C_prefetch_dropped 0
Core_0_L2C_prefetch_issued 0
Core_0_L2C_prefetch_filled 0
Core_0_L2C_prefetch_useful 0
Core_0_L2C_prefetch_useless 0
Core_0_L2C_prefetch_late 0
Core_0_L2C_average_miss_latency 479.09398

Core_0_L2C_rq_access 3353226
Core_0_L2C_rq_forward 0
Core_0_L2C_rq_merged 0
Core_0_L2C_rq_to_cache 3353224
Core_0_L2C_rq_full 0

Core_0_L2C_wq_access 2844916
Core_0_L2C_wq_forward 2
Core_0_L2C_wq_merged 0
Core_0_L2C_wq_to_cache 2844916
Core_0_L2C_wq_full 0

Core_0_L2C_pq_access 0
Core_0_L2C_pq_forward 0
Core_0_L2C_pq_merged 0
Core_0_L2C_pq_to_cache 0
Core_0_L2C_pq_full 0

Core_0_L2C_acc_epochs 135074
Core_0_L2C_acc_level_0 135074
Core_0_L2C_acc_level_1 0
Core_0_L2C_acc_level_2 0
Core_0_L2C_acc_level_3 0
Core_0_L2C_acc_level_4 0
Core_0_L2C_acc_level_5 0
Core_0_L2C_acc_level_6 0
Core_0_L2C_acc_level_7 0
Core_0_L2C_acc_level_8 0
Core_0_L2C_acc_level_9 0

Core_0_LLC_total_access 4663105
Core_0_LLC_total_hit 1852835
Core_0_LLC_total_miss 2810270
Core_0_LLC_loads 508159
Core_0_LLC_load_hit 244
Core_0_LLC_load_miss 507915
Core_0_LLC_RFOs 2077465
Core_0_LLC_RFO_hit 552057
Core_0_LLC_RFO_miss 1525408
Core_0_LLC_prefetches 0
Core_0_LLC_prefetch_hit 0
Core_0_LLC_prefetch_miss 0
Core_0_LLC_writebacks 2077481
Core_0_LLC_writeback_hit 1300534
Core_0_LLC_writeback_miss 776947
Core_0_LLC_prefetch_requested 0
Core_0_LLC_prefetch_dropped 0
Core_0_LLC_prefetch_issued 0
Core_0_LLC_prefetch_filled 0
Core_0_LLC_prefetch_useful 0
Core_0_LLC_prefetch_useless 0
Core_0_LLC_prefetch_late 0
Core_0_LLC_average_miss_latency 411.93045

Core_0_LLC_rq_access 2585983
Core_0_LLC_rq_forward 0
Core_0_LLC_rq_merged 0
Core_0_LLC_rq_to_cache 2585624
Core_0_LLC_rq_full 0

Core_0_LLC_wq_access 2077480
Core_0_LLC_wq_forward 359
Core_0_LLC_wq_merged 0
Core_0_LLC_wq_to_cache 2077480
Core_0_LLC_wq_full 0

Core_0_LLC_pq_access 0
Core_0_LLC_pq_forward 0
Core_0_LLC_pq_merged 0
Core_0_LLC_pq_to_cache 0
Core_0_LLC_pq_full 0

Core_0_LLC_acc_epochs 138144
Core_0_LLC_acc_level_0 138144
Core_0_LLC_acc_level_1 0
Core_0_LLC_acc_level_2 0
Core_0_LLC_acc_level_3 0
Core_0_LLC_acc_level_4 0
Core_0_LLC_acc_level_5 0
Core_0_LLC_acc_level_6 0
Core_0_LLC_acc_level_7 0
Core_0_LLC_acc_level_8 0
Core_0_LLC_acc_level_9 0

Core_0_major_page_fault 0
Core_0_minor_page_fault 22513

Channel_0_RQ_row_buffer_hit 110485
Channel_0_RQ_row_buffer_miss 1922731
Channel_0_WQ_row_buffer_hit 200633
Channel_0_WQ_row_buffer_miss 1323493
Channel_0_WQ_full 0
Channel_0_dbus_congested 2162250

avg_congested_cycle 11

DRAM_bw_pochs 552574
DRAM_bw_level_0 179972
DRAM_bw_level_1 207902
DRAM_bw_level_2 133112
DRAM_bw_level_3 31588
