*************************************************
   ChampSim Multicore Out-of-Order Simulator
   Last compiled: Apr  3 2025 20:54:34
*************************************************
parsing config file: /home/zir/Pythia/config/nopref.ini

trace_0 /home/zir/ChampSim/ML-DPC/ChampSimTraces/spec17/620.omnetpp-s0.trace.xz
adding L2C_PREFETCHER: NONE
Initialize SHIP state
warmup_instructions 10000000
simulation_instructions 50000000
champsim_seed 163
measure_ipc 0
measure_ipc_epoch 1000
measure_dram_bw 1
measure_dram_bw_epoch 256
measure_cache_acc 1
measure_cache_acc_epoch 1024
l1d_perfect 0
l2c_perfect 0
llc_perfect 0
l1d_semi_perfect 0
l2c_semi_perfect 0
llc_semi_perfect 0
semi_perfect_cache_page_buffer_size 64

num_cpus 1
cpu_freq 4000
dram_io_freq 2400
page_size 4096
block_size 64
max_read_per_cycle 8
max_fill_per_cycle 1
dram_channels 1
log2_dram_channels 0
dram_ranks 1
dram_banks 8
dram_rows 65536
dram_columns 128
dram_row_size 8
dram_size 4096
dram_pages 1048576

fetch_width 6
decode_width 6
exec_width 4
lq_width 2
sq_width 2
retire_width 4
scheduler_size 128
branch_mispredict_penalty 20
rob_size 256
lq_size 72
sq_size 56
num_instr_destinations_sparc 4
num_instr_destinations 2
num_instr_sources 4

itlb_set 16
itlb_way 8
itlb_rq_size 16
itlb_wq_size 16
itlb_pq_size 0
itlb_mshr_size 8
itlb_latency 1

dtlb_set 16
dtlb_way 4
dtlb_rq_size 16
dtlb_wq_size 16
dtlb_pq_size 0
dtlb_mshr_size 8
dtlb_latency 1

stlb_set 128
stlb_way 12
stlb_rq_size 32
stlb_wq_size 32
stlb_pq_size 0
stlb_mshr_size 16
stlb_latency 8

l1i_size 32
l1i_set 64
l1i_way 8
l1i_rq_size 64
l1i_wq_size 64
l1i_pq_size 8
l1i_mshr_size 8
l1i_latency 1

l1d_size 32
l1d_set 64
l1d_way 8
l1d_rq_size 64
l1d_wq_size 64
l1d_pq_size 8
l1d_mshr_size 16
l1d_latency 4

l2c_size 256
l2c_set 512
l2c_way 8
l2c_rq_size 32
l2c_wq_size 32
l2c_pq_size 32
l2c_mshr_size 32
l2c_latency 10

llc_size 2048
llc_set 2048
llc_way 16
llc_rq_size 32
llc_wq_size 32
llc_pq_size 32
llc_mshr_size 64
llc_latency 20

dram_channel_width 8
dram_wq_size 64
dram_rq_size 64
tRP 15
tRCD 15
tCAS 12.5
dram_dbus_turn_around_time 30
dram_write_high_wm 56
dram_write_low_wm 48
min_dram_writes_per_switch 16
dram_mtps 2400
dram_dbus_return_time 13


Heartbeat CPU  0 instructions:    1000000 cycles:     860564 heartbeat IPC: 1.16203 cumulative IPC: 1.16203 (Simulation time: 0 hr 0 min 1 sec) 
Heartbeat CPU  0 instructions:    2000003 cycles:    1676948 heartbeat IPC: 1.22492 cumulative IPC: 1.19264 (Simulation time: 0 hr 0 min 3 sec) 
Heartbeat CPU  0 instructions:    3000001 cycles:    2494494 heartbeat IPC: 1.22317 cumulative IPC: 1.20265 (Simulation time: 0 hr 0 min 5 sec) 
Heartbeat CPU  0 instructions:    4000000 cycles:    3337510 heartbeat IPC: 1.18622 cumulative IPC: 1.19850 (Simulation time: 0 hr 0 min 6 sec) 
Heartbeat CPU  0 instructions:    5000001 cycles:    4119144 heartbeat IPC: 1.27937 cumulative IPC: 1.21384 (Simulation time: 0 hr 0 min 8 sec) 
Heartbeat CPU  0 instructions:    6000000 cycles:    4938695 heartbeat IPC: 1.22018 cumulative IPC: 1.21490 (Simulation time: 0 hr 0 min 10 sec) 
Heartbeat CPU  0 instructions:    7000003 cycles:    5769443 heartbeat IPC: 1.20374 cumulative IPC: 1.21329 (Simulation time: 0 hr 0 min 11 sec) 
Heartbeat CPU  0 instructions:    8000000 cycles:    6570832 heartbeat IPC: 1.24783 cumulative IPC: 1.21750 (Simulation time: 0 hr 0 min 13 sec) 
Heartbeat CPU  0 instructions:    9000000 cycles:    7386777 heartbeat IPC: 1.22557 cumulative IPC: 1.21839 (Simulation time: 0 hr 0 min 15 sec) 
Heartbeat CPU  0 instructions:   10000000 cycles:    8206895 heartbeat IPC: 1.21934 cumulative IPC: 1.21849 (Simulation time: 0 hr 0 min 17 sec) 

Warmup complete CPU  0 instructions:   10000004 cycles:    8206896 (Simulation time: 0 hr 0 min 17 sec) 

Heartbeat CPU  0 instructions:   11000000 cycles:   12577867 heartbeat IPC: 0.22878 cumulative IPC: 0.22878 (Simulation time: 0 hr 0 min 19 sec) 
Heartbeat CPU  0 instructions:   12000000 cycles:   17056785 heartbeat IPC: 0.22327 cumulative IPC: 0.22599 (Simulation time: 0 hr 0 min 22 sec) 
Heartbeat CPU  0 instructions:   13000000 cycles:   21311849 heartbeat IPC: 0.23501 cumulative IPC: 0.22892 (Simulation time: 0 hr 0 min 25 sec) 
Heartbeat CPU  0 instructions:   14000000 cycles:   25743451 heartbeat IPC: 0.22565 cumulative IPC: 0.22809 (Simulation time: 0 hr 0 min 28 sec) 
Heartbeat CPU  0 instructions:   15000000 cycles:   30104384 heartbeat IPC: 0.22931 cumulative IPC: 0.22834 (Simulation time: 0 hr 0 min 31 sec) 
Heartbeat CPU  0 instructions:   16000000 cycles:   34532323 heartbeat IPC: 0.22584 cumulative IPC: 0.22792 (Simulation time: 0 hr 0 min 34 sec) 
Heartbeat CPU  0 instructions:   17000001 cycles:   38789454 heartbeat IPC: 0.23490 cumulative IPC: 0.22889 (Simulation time: 0 hr 0 min 36 sec) 
Heartbeat CPU  0 instructions:   18000002 cycles:   43162464 heartbeat IPC: 0.22868 cumulative IPC: 0.22886 (Simulation time: 0 hr 0 min 39 sec) 
Heartbeat CPU  0 instructions:   19000000 cycles:   47698267 heartbeat IPC: 0.22047 cumulative IPC: 0.22790 (Simulation time: 0 hr 0 min 42 sec) 
Heartbeat CPU  0 instructions:   20000000 cycles:   52178818 heartbeat IPC: 0.22319 cumulative IPC: 0.22742 (Simulation time: 0 hr 0 min 45 sec) 
Heartbeat CPU  0 instructions:   21000001 cycles:   56706203 heartbeat IPC: 0.22088 cumulative IPC: 0.22681 (Simulation time: 0 hr 0 min 48 sec) 
Heartbeat CPU  0 instructions:   22000002 cycles:   61039575 heartbeat IPC: 0.23077 cumulative IPC: 0.22713 (Simulation time: 0 hr 0 min 51 sec) 
Heartbeat CPU  0 instructions:   23000002 cycles:   65467501 heartbeat IPC: 0.22584 cumulative IPC: 0.22703 (Simulation time: 0 hr 0 min 54 sec) 
Heartbeat CPU  0 instructions:   24000000 cycles:   69832064 heartbeat IPC: 0.22912 cumulative IPC: 0.22718 (Simulation time: 0 hr 0 min 56 sec) 
Heartbeat CPU  0 instructions:   25000002 cycles:   74295188 heartbeat IPC: 0.22406 cumulative IPC: 0.22697 (Simulation time: 0 hr 0 min 59 sec) 
Heartbeat CPU  0 instructions:   26000002 cycles:   78683087 heartbeat IPC: 0.22790 cumulative IPC: 0.22703 (Simulation time: 0 hr 1 min 2 sec) 
Heartbeat CPU  0 instructions:   27000000 cycles:   83097237 heartbeat IPC: 0.22654 cumulative IPC: 0.22700 (Simulation time: 0 hr 1 min 5 sec) 
Heartbeat CPU  0 instructions:   28000000 cycles:   87294287 heartbeat IPC: 0.23826 cumulative IPC: 0.22760 (Simulation time: 0 hr 1 min 8 sec) 
Heartbeat CPU  0 instructions:   29000000 cycles:   91779592 heartbeat IPC: 0.22295 cumulative IPC: 0.22735 (Simulation time: 0 hr 1 min 11 sec) 
Heartbeat CPU  0 instructions:   30000003 cycles:   96057516 heartbeat IPC: 0.23376 cumulative IPC: 0.22766 (Simulation time: 0 hr 1 min 13 sec) 
Heartbeat CPU  0 instructions:   31000002 cycles:  100357663 heartbeat IPC: 0.23255 cumulative IPC: 0.22789 (Simulation time: 0 hr 1 min 16 sec) 
Heartbeat CPU  0 instructions:   32000000 cycles:  105099604 heartbeat IPC: 0.21088 cumulative IPC: 0.22706 (Simulation time: 0 hr 1 min 19 sec) 
Heartbeat CPU  0 instructions:   33000000 cycles:  109410608 heartbeat IPC: 0.23196 cumulative IPC: 0.22726 (Simulation time: 0 hr 1 min 22 sec) 
Heartbeat CPU  0 instructions:   34000002 cycles:  114031355 heartbeat IPC: 0.21642 cumulative IPC: 0.22679 (Simulation time: 0 hr 1 min 25 sec) 
Heartbeat CPU  0 instructions:   35000002 cycles:  118402878 heartbeat IPC: 0.22875 cumulative IPC: 0.22687 (Simulation time: 0 hr 1 min 28 sec) 
Heartbeat CPU  0 instructions:   36000000 cycles:  122674408 heartbeat IPC: 0.23411 cumulative IPC: 0.22714 (Simulation time: 0 hr 1 min 31 sec) 
Heartbeat CPU  0 instructions:   37000002 cycles:  127074996 heartbeat IPC: 0.22724 cumulative IPC: 0.22714 (Simulation time: 0 hr 1 min 33 sec) 
Heartbeat CPU  0 instructions:   38000000 cycles:  131432522 heartbeat IPC: 0.22949 cumulative IPC: 0.22723 (Simulation time: 0 hr 1 min 36 sec) 
Heartbeat CPU  0 instructions:   39000003 cycles:  135857103 heartbeat IPC: 0.22601 cumulative IPC: 0.22718 (Simulation time: 0 hr 1 min 39 sec) 
Heartbeat CPU  0 instructions:   40000000 cycles:  140415474 heartbeat IPC: 0.21938 cumulative IPC: 0.22691 (Simulation time: 0 hr 1 min 42 sec) 
Heartbeat CPU  0 instructions:   41000002 cycles:  144700022 heartbeat IPC: 0.23340 cumulative IPC: 0.22712 (Simulation time: 0 hr 1 min 45 sec) 
Heartbeat CPU  0 instructions:   42000000 cycles:  149316389 heartbeat IPC: 0.21662 cumulative IPC: 0.22677 (Simulation time: 0 hr 1 min 48 sec) 
Heartbeat CPU  0 instructions:   43000003 cycles:  153650096 heartbeat IPC: 0.23075 cumulative IPC: 0.22689 (Simulation time: 0 hr 1 min 51 sec) 
Heartbeat CPU  0 instructions:   44000000 cycles:  158035317 heartbeat IPC: 0.22804 cumulative IPC: 0.22693 (Simulation time: 0 hr 1 min 53 sec) 
Heartbeat CPU  0 instructions:   45000000 cycles:  162539515 heartbeat IPC: 0.22202 cumulative IPC: 0.22678 (Simulation time: 0 hr 1 min 56 sec) 
Heartbeat CPU  0 instructions:   46000001 cycles:  166931662 heartbeat IPC: 0.22768 cumulative IPC: 0.22681 (Simulation time: 0 hr 1 min 59 sec) 
Heartbeat CPU  0 instructions:   47000000 cycles:  171204524 heartbeat IPC: 0.23403 cumulative IPC: 0.22700 (Simulation time: 0 hr 2 min 2 sec) 
Heartbeat CPU  0 instructions:   48000000 cycles:  175477383 heartbeat IPC: 0.23404 cumulative IPC: 0.22718 (Simulation time: 0 hr 2 min 5 sec) 
Heartbeat CPU  0 instructions:   49000000 cycles:  180004344 heartbeat IPC: 0.22090 cumulative IPC: 0.22701 (Simulation time: 0 hr 2 min 8 sec) 
Heartbeat CPU  0 instructions:   50000001 cycles:  184859138 heartbeat IPC: 0.20598 cumulative IPC: 0.22643 (Simulation time: 0 hr 2 min 10 sec) 
Heartbeat CPU  0 instructions:   51000000 cycles:  189093530 heartbeat IPC: 0.23616 cumulative IPC: 0.22666 (Simulation time: 0 hr 2 min 13 sec) 
Heartbeat CPU  0 instructions:   52000000 cycles:  193461040 heartbeat IPC: 0.22896 cumulative IPC: 0.22672 (Simulation time: 0 hr 2 min 16 sec) 
Heartbeat CPU  0 instructions:   53000000 cycles:  197868740 heartbeat IPC: 0.22688 cumulative IPC: 0.22672 (Simulation time: 0 hr 2 min 19 sec) 
Heartbeat CPU  0 instructions:   54000001 cycles:  201780018 heartbeat IPC: 0.25567 cumulative IPC: 0.22730 (Simulation time: 0 hr 2 min 22 sec) 
Heartbeat CPU  0 instructions:   55000000 cycles:  206131351 heartbeat IPC: 0.22981 cumulative IPC: 0.22736 (Simulation time: 0 hr 2 min 25 sec) 
Heartbeat CPU  0 instructions:   56000000 cycles:  210698561 heartbeat IPC: 0.21895 cumulative IPC: 0.22717 (Simulation time: 0 hr 2 min 28 sec) 
Heartbeat CPU  0 instructions:   57000002 cycles:  215100875 heartbeat IPC: 0.22715 cumulative IPC: 0.22717 (Simulation time: 0 hr 2 min 30 sec) 
Heartbeat CPU  0 instructions:   58000002 cycles:  219476857 heartbeat IPC: 0.22852 cumulative IPC: 0.22720 (Simulation time: 0 hr 2 min 33 sec) 
Heartbeat CPU  0 instructions:   59000001 cycles:  223908298 heartbeat IPC: 0.22566 cumulative IPC: 0.22717 (Simulation time: 0 hr 2 min 36 sec) 
Heartbeat CPU  0 instructions:   60000000 cycles:  228302596 heartbeat IPC: 0.22757 cumulative IPC: 0.22717 (Simulation time: 0 hr 2 min 39 sec) 
Finished CPU 0 instructions: 50000001 cycles: 220095710 cumulative IPC: 0.22717 (Simulation time: 0 hr 2 min 39 sec) 

ChampSim completed all CPUs

[ROI Statistics]
Core_0_instructions 50000001
Core_0_cycles 220095710
Core_0_IPC 0.22717

Core_0_branch_prediction_accuracy 96.09095
Core_0_branch_MPKI 5.84780
Core_0_average_ROB_occupancy_at_mispredict 81.79093

Core_0_L1D_total_access 21960468
Core_0_L1D_total_hit 20938421
Core_0_L1D_total_miss 1022047
Core_0_L1D_loads 12987600
Core_0_L1D_load_hit 12084011
Core_0_L1D_load_miss 903589
Core_0_L1D_RFOs 8972868
Core_0_L1D_RFO_hit 8854410
Core_0_L1D_RFO_miss 118458
Core_0_L1D_prefetches 0
Core_0_L1D_prefetch_hit 0
Core_0_L1D_prefetch_miss 0
Core_0_L1D_writebacks 0
Core_0_L1D_writeback_hit 0
Core_0_L1D_writeback_miss 0
Core_0_L1D_prefetch_requested 0
Core_0_L1D_prefetch_dropped 0
Core_0_L1D_prefetch_issued 0
Core_0_L1D_prefetch_filled 0
Core_0_L1D_prefetch_useful 0
Core_0_L1D_prefetch_useless 0
Core_0_L1D_prefetch_late 0
Core_0_L1D_average_miss_latency 134.95692

Core_0_L1D_rq_access 15786384
Core_0_L1D_rq_forward 0
Core_0_L1D_rq_merged 2728060
Core_0_L1D_rq_to_cache 13058262
Core_0_L1D_rq_full 0

Core_0_L1D_wq_access 9244291
Core_0_L1D_wq_forward 62
Core_0_L1D_wq_merged 35997
Core_0_L1D_wq_to_cache 9208294
Core_0_L1D_wq_full 0

Core_0_L1D_pq_access 0
Core_0_L1D_pq_forward 0
Core_0_L1D_pq_merged 0
Core_0_L1D_pq_to_cache 0
Core_0_L1D_pq_full 0

Core_0_L1D_acc_epochs 199456
Core_0_L1D_acc_level_0 199456
Core_0_L1D_acc_level_1 0
Core_0_L1D_acc_level_2 0
Core_0_L1D_acc_level_3 0
Core_0_L1D_acc_level_4 0
Core_0_L1D_acc_level_5 0
Core_0_L1D_acc_level_6 0
Core_0_L1D_acc_level_7 0
Core_0_L1D_acc_level_8 0
Core_0_L1D_acc_level_9 0

Core_0_L1I_total_access 16434114
Core_0_L1I_total_hit 16406386
Core_0_L1I_total_miss 27728
Core_0_L1I_loads 16434114
Core_0_L1I_load_hit 16406386
Core_0_L1I_load_miss 27728
Core_0_L1I_RFOs 0
Core_0_L1I_RFO_hit 0
Core_0_L1I_RFO_miss 0
Core_0_L1I_prefetches 0
Core_0_L1I_prefetch_hit 0
Core_0_L1I_prefetch_miss 0
Core_0_L1I_writebacks 0
Core_0_L1I_writeback_hit 0
Core_0_L1I_writeback_miss 0
Core_0_L1I_prefetch_requested 0
Core_0_L1I_prefetch_dropped 0
Core_0_L1I_prefetch_issued 0
Core_0_L1I_prefetch_filled 0
Core_0_L1I_prefetch_useful 0
Core_0_L1I_prefetch_useless 0
Core_0_L1I_prefetch_late 0
Core_0_L1I_average_miss_latency 26.59597

Core_0_L1I_rq_access 50000229
Core_0_L1I_rq_forward 0
Core_0_L1I_rq_merged 33548848
Core_0_L1I_rq_to_cache 16451381
Core_0_L1I_rq_full 0

Core_0_L1I_wq_access 0
Core_0_L1I_wq_forward 0
Core_0_L1I_wq_merged 0
Core_0_L1I_wq_to_cache 0
Core_0_L1I_wq_full 0

Core_0_L1I_pq_access 0
Core_0_L1I_pq_forward 0
Core_0_L1I_pq_merged 0
Core_0_L1I_pq_to_cache 0
Core_0_L1I_pq_full 0

Core_0_L1I_acc_epochs 199456
Core_0_L1I_acc_level_0 199456
Core_0_L1I_acc_level_1 0
Core_0_L1I_acc_level_2 0
Core_0_L1I_acc_level_3 0
Core_0_L1I_acc_level_4 0
Core_0_L1I_acc_level_5 0
Core_0_L1I_acc_level_6 0
Core_0_L1I_acc_level_7 0
Core_0_L1I_acc_level_8 0
Core_0_L1I_acc_level_9 0

Core_0_L2C_total_access 1535974
Core_0_L2C_total_hit 773492
Core_0_L2C_total_miss 762482
Core_0_L2C_loads 931290
Core_0_L2C_load_hit 268995
Core_0_L2C_load_miss 662295
Core_0_L2C_RFOs 118455
Core_0_L2C_RFO_hit 19882
Core_0_L2C_RFO_miss 98573
Core_0_L2C_prefetches 0
Core_0_L2C_prefetch_hit 0
Core_0_L2C_prefetch_miss 0
Core_0_L2C_writebacks 486229
Core_0_L2C_writeback_hit 484615
Core_0_L2C_writeback_miss 1614
Core_0_L2C_prefetch_requested 0
Core_0_L2C_prefetch_dropped 0
Core_0_L2C_prefetch_issued 0
Core_0_L2C_prefetch_filled 0
Core_0_L2C_prefetch_useful 0
Core_0_L2C_prefetch_useless 0
Core_0_L2C_prefetch_late 0
Core_0_L2C_average_miss_latency 157.86440

Core_0_L2C_rq_access 1049775
Core_0_L2C_rq_forward 0
Core_0_L2C_rq_merged 0
Core_0_L2C_rq_to_cache 1049745
Core_0_L2C_rq_full 0

Core_0_L2C_wq_access 486229
Core_0_L2C_wq_forward 30
Core_0_L2C_wq_merged 0
Core_0_L2C_wq_to_cache 486229
Core_0_L2C_wq_full 0

Core_0_L2C_pq_access 0
Core_0_L2C_pq_forward 0
Core_0_L2C_pq_merged 0
Core_0_L2C_pq_to_cache 0
Core_0_L2C_pq_full 0

Core_0_L2C_acc_epochs 199456
Core_0_L2C_acc_level_0 199456
Core_0_L2C_acc_level_1 0
Core_0_L2C_acc_level_2 0
Core_0_L2C_acc_level_3 0
Core_0_L2C_acc_level_4 0
Core_0_L2C_acc_level_5 0
Core_0_L2C_acc_level_6 0
Core_0_L2C_acc_level_7 0
Core_0_L2C_acc_level_8 0
Core_0_L2C_acc_level_9 0

Core_0_LLC_total_access 1137434
Core_0_LLC_total_hit 520164
Core_0_LLC_total_miss 617270
Core_0_LLC_loads 662293
Core_0_LLC_load_hit 204251
Core_0_LLC_load_miss 458042
Core_0_LLC_RFOs 98573
Core_0_LLC_RFO_hit 41763
Core_0_LLC_RFO_miss 56810
Core_0_LLC_prefetches 0
Core_0_LLC_prefetch_hit 0
Core_0_LLC_prefetch_miss 0
Core_0_LLC_writebacks 376568
Core_0_LLC_writeback_hit 274150
Core_0_LLC_writeback_miss 102418
Core_0_LLC_prefetch_requested 0
Core_0_LLC_prefetch_dropped 0
Core_0_LLC_prefetch_issued 0
Core_0_LLC_prefetch_filled 0
Core_0_LLC_prefetch_useful 0
Core_0_LLC_prefetch_useless 0
Core_0_LLC_prefetch_late 0
Core_0_LLC_average_miss_latency 153.61595

Core_0_LLC_rq_access 760868
Core_0_LLC_rq_forward 0
Core_0_LLC_rq_merged 0
Core_0_LLC_rq_to_cache 760866
Core_0_LLC_rq_full 0

Core_0_LLC_wq_access 376568
Core_0_LLC_wq_forward 2
Core_0_LLC_wq_merged 0
Core_0_LLC_wq_to_cache 376568
Core_0_LLC_wq_full 0

Core_0_LLC_pq_access 0
Core_0_LLC_pq_forward 0
Core_0_LLC_pq_merged 0
Core_0_LLC_pq_to_cache 0
Core_0_LLC_pq_full 0

Core_0_LLC_acc_epochs 222952
Core_0_LLC_acc_level_0 222952
Core_0_LLC_acc_level_1 0
Core_0_LLC_acc_level_2 0
Core_0_LLC_acc_level_3 0
Core_0_LLC_acc_level_4 0
Core_0_LLC_acc_level_5 0
Core_0_LLC_acc_level_6 0
Core_0_LLC_acc_level_7 0
Core_0_LLC_acc_level_8 0
Core_0_LLC_acc_level_9 0

Core_0_major_page_fault 0
Core_0_minor_page_fault 47075

Channel_0_RQ_row_buffer_hit 44659
Channel_0_RQ_row_buffer_miss 470193
Channel_0_WQ_row_buffer_hit 47449
Channel_0_WQ_row_buffer_miss 189843
Channel_0_WQ_full 0
Channel_0_dbus_congested 148445

avg_congested_cycle 10

DRAM_bw_pochs 891808
DRAM_bw_level_0 888229
DRAM_bw_level_1 3575
DRAM_bw_level_2 4
DRAM_bw_level_3 0
