*************************************************
   ChampSim Multicore Out-of-Order Simulator
   Last compiled: Apr  3 2025 20:54:34
*************************************************
parsing config file: /home/zir/Pythia/config/pythia.ini

trace_0 /home/zir/ChampSim/ML-DPC/ChampSimTraces/spec17/605.mcf-s1.trace.xz
adding L2C_PREFETCHER: Scooby
Initialize SHIP state
warmup_instructions 10000000
simulation_instructions 50000000
champsim_seed 164
measure_ipc 0
measure_ipc_epoch 1000
measure_dram_bw 1
measure_dram_bw_epoch 256
measure_cache_acc 1
measure_cache_acc_epoch 1024
l1d_perfect 0
l2c_perfect 0
llc_perfect 0
l1d_semi_perfect 0
l2c_semi_perfect 0
llc_semi_perfect 0
semi_perfect_cache_page_buffer_size 64

num_cpus 1
cpu_freq 4000
dram_io_freq 2400
page_size 4096
block_size 64
max_read_per_cycle 8
max_fill_per_cycle 1
dram_channels 1
log2_dram_channels 0
dram_ranks 1
dram_banks 8
dram_rows 65536
dram_columns 128
dram_row_size 8
dram_size 4096
dram_pages 1048576

fetch_width 6
decode_width 6
exec_width 4
lq_width 2
sq_width 2
retire_width 4
scheduler_size 128
branch_mispredict_penalty 20
rob_size 256
lq_size 72
sq_size 56
num_instr_destinations_sparc 4
num_instr_destinations 2
num_instr_sources 4

itlb_set 16
itlb_way 8
itlb_rq_size 16
itlb_wq_size 16
itlb_pq_size 0
itlb_mshr_size 8
itlb_latency 1

dtlb_set 16
dtlb_way 4
dtlb_rq_size 16
dtlb_wq_size 16
dtlb_pq_size 0
dtlb_mshr_size 8
dtlb_latency 1

stlb_set 128
stlb_way 12
stlb_rq_size 32
stlb_wq_size 32
stlb_pq_size 0
stlb_mshr_size 16
stlb_latency 8

l1i_size 32
l1i_set 64
l1i_way 8
l1i_rq_size 64
l1i_wq_size 64
l1i_pq_size 8
l1i_mshr_size 8
l1i_latency 1

l1d_size 32
l1d_set 64
l1d_way 8
l1d_rq_size 64
l1d_wq_size 64
l1d_pq_size 8
l1d_mshr_size 16
l1d_latency 4

l2c_size 256
l2c_set 512
l2c_way 8
l2c_rq_size 32
l2c_wq_size 32
l2c_pq_size 32
l2c_mshr_size 32
l2c_latency 10

llc_size 2048
llc_set 2048
llc_way 16
llc_rq_size 32
llc_wq_size 32
llc_pq_size 32
llc_mshr_size 64
llc_latency 20

dram_channel_width 8
dram_wq_size 64
dram_rq_size 64
tRP 15
tRCD 15
tCAS 12.5
dram_dbus_turn_around_time 30
dram_write_high_wm 56
dram_write_low_wm 48
min_dram_writes_per_switch 16
dram_mtps 2400
dram_dbus_return_time 13

scooby_alpha 0.0065088
scooby_gamma 0.556301
scooby_epsilon 0.00182284
scooby_state_num_bits 10
scooby_max_states 1024
scooby_seed 200
scooby_policy EGreedy
scooby_learning_type SARSA
scooby_actions 1,3,4,5,10,11,12,22,23,30,32,-1,-3,-6,0,
scooby_max_actions 15
scooby_pt_size 256
scooby_st_size 64
scooby_max_pcs 5
scooby_max_offsets 5
scooby_max_deltas 5
scooby_reward_none -4
scooby_reward_incorrect -8
scooby_reward_correct_untimely 12
scooby_reward_correct_timely 20
scooby_brain_zero_init 0
scooby_enable_reward_all 0
scooby_enable_track_multiple 0
scooby_enable_reward_out_of_bounds 1
scooby_reward_out_of_bounds -12
scooby_state_type 1
scooby_state_hash_type 11
scooby_access_debug 0
scooby_print_access_debug 0
scooby_print_access_debug_pc deadbeef
scooby_print_access_debug_pc_count 0
scooby_print_trace 0
scooby_enable_state_action_stats 1
scooby_enable_reward_tracker_hit 0
scooby_reward_tracker_hit -2
scooby_enable_featurewise_engine 1
scooby_pref_degree 1
scooby_enable_dyn_degree 1
scooby_max_to_avg_q_thresholds 0.5,1,2,
scooby_dyn_degrees 1,2,4,4,
scooby_multi_deg_select_type 2
scooby_last_pref_offset_conf_thresholds 1,3,8,
scooby_dyn_degrees_type2 1,2,4,6,
scooby_action_tracker_size 2
scooby_high_bw_thresh 4
scooby_enable_hbw_reward 1
scooby_reward_hbw_correct_timely 20
scooby_reward_hbw_correct_untimely 12
scooby_reward_hbw_incorrect -14
scooby_reward_hbw_none -2
scooby_reward_hbw_out_of_bounds -12
scooby_reward_hbw_tracker_hit -2
scooby_last_pref_offset_conf_thresholds_hbw 1,3,8,
scooby_dyn_degrees_type2_hbw 1,2,4,6,

le_enable_trace 0
le_trace_interval 0
le_trace_file_name 
le_trace_state 0
le_enable_score_plot 0
le_plot_file_name 
le_plot_actions 
le_enable_action_trace 0
le_action_trace_interval 0
le_action_trace_name 
le_enable_action_plot 0

le_featurewise_active_features PC, PC_Delta
le_featurewise_num_tilings 3,3,
le_featurewise_num_tiles 128,128,
le_featurewise_hash_types 2,2,
le_featurewise_enable_tiling_offset 1,1,
le_featurewise_max_q_thresh 0.5
le_featurewise_enable_action_fallback 1
le_featurewise_feature_weights 1,1,
le_featurewise_enable_dynamic_weight 0
le_featurewise_weight_gradient 0.001
le_featurewise_disable_adjust_weight_all_features_align 1
le_featurewise_selective_update 0
le_featurewise_pooling_type 2
le_featurewise_enable_dyn_action_fallback 1
le_featurewise_bw_acc_check_level 1
le_featurewise_acc_thresh 2
le_featurewise_enable_trace 0
le_featurewise_trace_feature_type 0
le_featurewise_trace_feature 
le_featurewise_trace_interval 0
le_featurewise_trace_record_count 0
le_featurewise_trace_file_name 
le_featurewise_enable_score_plot 0
le_featurewise_plot_actions 
le_featurewise_plot_file_name 


Heartbeat CPU  0 instructions:    1000001 cycles:     373262 heartbeat IPC: 2.67909 cumulative IPC: 2.67909 (Simulation time: 0 hr 0 min 2 sec) 
Heartbeat CPU  0 instructions:    2000003 cycles:     746692 heartbeat IPC: 2.67788 cumulative IPC: 2.67848 (Simulation time: 0 hr 0 min 4 sec) 
Heartbeat CPU  0 instructions:    3000002 cycles:    1119972 heartbeat IPC: 2.67895 cumulative IPC: 2.67864 (Simulation time: 0 hr 0 min 6 sec) 
Heartbeat CPU  0 instructions:    4000000 cycles:    1492973 heartbeat IPC: 2.68095 cumulative IPC: 2.67922 (Simulation time: 0 hr 0 min 8 sec) 
Heartbeat CPU  0 instructions:    5000003 cycles:    1866029 heartbeat IPC: 2.68057 cumulative IPC: 2.67949 (Simulation time: 0 hr 0 min 10 sec) 
Heartbeat CPU  0 instructions:    6000003 cycles:    2239424 heartbeat IPC: 2.67813 cumulative IPC: 2.67926 (Simulation time: 0 hr 0 min 12 sec) 
Heartbeat CPU  0 instructions:    7000001 cycles:    2612502 heartbeat IPC: 2.68040 cumulative IPC: 2.67942 (Simulation time: 0 hr 0 min 14 sec) 
Heartbeat CPU  0 instructions:    8000000 cycles:    2985476 heartbeat IPC: 2.68115 cumulative IPC: 2.67964 (Simulation time: 0 hr 0 min 16 sec) 
Heartbeat CPU  0 instructions:    9000003 cycles:    3359423 heartbeat IPC: 2.67418 cumulative IPC: 2.67903 (Simulation time: 0 hr 0 min 19 sec) 
Heartbeat CPU  0 instructions:   10000002 cycles:    3733243 heartbeat IPC: 2.67508 cumulative IPC: 2.67864 (Simulation time: 0 hr 0 min 21 sec) 

Warmup complete CPU  0 instructions:   10000002 cycles:    3733243 (Simulation time: 0 hr 0 min 21 sec) 

Heartbeat CPU  0 instructions:   11000001 cycles:    7848036 heartbeat IPC: 0.24303 cumulative IPC: 0.24303 (Simulation time: 0 hr 0 min 24 sec) 
Heartbeat CPU  0 instructions:   12000000 cycles:   11818124 heartbeat IPC: 0.25188 cumulative IPC: 0.24738 (Simulation time: 0 hr 0 min 26 sec) 
Heartbeat CPU  0 instructions:   13000003 cycles:   15707064 heartbeat IPC: 0.25714 cumulative IPC: 0.25055 (Simulation time: 0 hr 0 min 29 sec) 
Heartbeat CPU  0 instructions:   14000000 cycles:   19586715 heartbeat IPC: 0.25775 cumulative IPC: 0.25231 (Simulation time: 0 hr 0 min 32 sec) 
Heartbeat CPU  0 instructions:   15000002 cycles:   23484451 heartbeat IPC: 0.25656 cumulative IPC: 0.25315 (Simulation time: 0 hr 0 min 35 sec) 
Heartbeat CPU  0 instructions:   16000000 cycles:   27404396 heartbeat IPC: 0.25511 cumulative IPC: 0.25347 (Simulation time: 0 hr 0 min 38 sec) 
Heartbeat CPU  0 instructions:   17000000 cycles:   31332929 heartbeat IPC: 0.25455 cumulative IPC: 0.25363 (Simulation time: 0 hr 0 min 41 sec) 
Heartbeat CPU  0 instructions:   18000000 cycles:   35257547 heartbeat IPC: 0.25480 cumulative IPC: 0.25377 (Simulation time: 0 hr 0 min 44 sec) 
Heartbeat CPU  0 instructions:   19000002 cycles:   39181520 heartbeat IPC: 0.25484 cumulative IPC: 0.25389 (Simulation time: 0 hr 0 min 47 sec) 
Heartbeat CPU  0 instructions:   20000000 cycles:   43099003 heartbeat IPC: 0.25527 cumulative IPC: 0.25403 (Simulation time: 0 hr 0 min 50 sec) 
Heartbeat CPU  0 instructions:   21000000 cycles:   47024435 heartbeat IPC: 0.25475 cumulative IPC: 0.25409 (Simulation time: 0 hr 0 min 53 sec) 
Heartbeat CPU  0 instructions:   22000000 cycles:   50957844 heartbeat IPC: 0.25423 cumulative IPC: 0.25410 (Simulation time: 0 hr 0 min 56 sec) 
Heartbeat CPU  0 instructions:   23000000 cycles:   54901582 heartbeat IPC: 0.25357 cumulative IPC: 0.25406 (Simulation time: 0 hr 0 min 59 sec) 
Heartbeat CPU  0 instructions:   24000000 cycles:   58835255 heartbeat IPC: 0.25422 cumulative IPC: 0.25407 (Simulation time: 0 hr 1 min 2 sec) 
Heartbeat CPU  0 instructions:   25000000 cycles:   62775956 heartbeat IPC: 0.25376 cumulative IPC: 0.25405 (Simulation time: 0 hr 1 min 5 sec) 
Heartbeat CPU  0 instructions:   26000001 cycles:   66716888 heartbeat IPC: 0.25375 cumulative IPC: 0.25403 (Simulation time: 0 hr 1 min 8 sec) 
Heartbeat CPU  0 instructions:   27000000 cycles:   70677685 heartbeat IPC: 0.25247 cumulative IPC: 0.25394 (Simulation time: 0 hr 1 min 11 sec) 
Heartbeat CPU  0 instructions:   28000000 cycles:   74636846 heartbeat IPC: 0.25258 cumulative IPC: 0.25387 (Simulation time: 0 hr 1 min 14 sec) 
Heartbeat CPU  0 instructions:   29000002 cycles:   78608428 heartbeat IPC: 0.25179 cumulative IPC: 0.25376 (Simulation time: 0 hr 1 min 17 sec) 
Heartbeat CPU  0 instructions:   30000002 cycles:   82592402 heartbeat IPC: 0.25101 cumulative IPC: 0.25362 (Simulation time: 0 hr 1 min 20 sec) 
Heartbeat CPU  0 instructions:   31000001 cycles:   86582281 heartbeat IPC: 0.25063 cumulative IPC: 0.25347 (Simulation time: 0 hr 1 min 23 sec) 
Heartbeat CPU  0 instructions:   32000000 cycles:   90608734 heartbeat IPC: 0.24836 cumulative IPC: 0.25324 (Simulation time: 0 hr 1 min 27 sec) 
Heartbeat CPU  0 instructions:   33000002 cycles:   94787672 heartbeat IPC: 0.23930 cumulative IPC: 0.25260 (Simulation time: 0 hr 1 min 30 sec) 
Heartbeat CPU  0 instructions:   34000003 cycles:   98881343 heartbeat IPC: 0.24428 cumulative IPC: 0.25224 (Simulation time: 0 hr 1 min 33 sec) 
Heartbeat CPU  0 instructions:   35000002 cycles:  103100629 heartbeat IPC: 0.23701 cumulative IPC: 0.25159 (Simulation time: 0 hr 1 min 36 sec) 
Heartbeat CPU  0 instructions:   36000000 cycles:  107507744 heartbeat IPC: 0.22691 cumulative IPC: 0.25054 (Simulation time: 0 hr 1 min 39 sec) 
Heartbeat CPU  0 instructions:   37000002 cycles:  112001900 heartbeat IPC: 0.22251 cumulative IPC: 0.24938 (Simulation time: 0 hr 1 min 42 sec) 
Heartbeat CPU  0 instructions:   38000001 cycles:  115969328 heartbeat IPC: 0.25205 cumulative IPC: 0.24947 (Simulation time: 0 hr 1 min 45 sec) 
Heartbeat CPU  0 instructions:   39000000 cycles:  119917280 heartbeat IPC: 0.25330 cumulative IPC: 0.24960 (Simulation time: 0 hr 1 min 48 sec) 
Heartbeat CPU  0 instructions:   40000000 cycles:  123876061 heartbeat IPC: 0.25260 cumulative IPC: 0.24970 (Simulation time: 0 hr 1 min 51 sec) 
Heartbeat CPU  0 instructions:   41000002 cycles:  127873428 heartbeat IPC: 0.25017 cumulative IPC: 0.24972 (Simulation time: 0 hr 1 min 54 sec) 
Heartbeat CPU  0 instructions:   42000001 cycles:  132009558 heartbeat IPC: 0.24177 cumulative IPC: 0.24946 (Simulation time: 0 hr 1 min 57 sec) 
Heartbeat CPU  0 instructions:   43000001 cycles:  136027573 heartbeat IPC: 0.24888 cumulative IPC: 0.24944 (Simulation time: 0 hr 2 min 0 sec) 
Heartbeat CPU  0 instructions:   44000000 cycles:  140041998 heartbeat IPC: 0.24910 cumulative IPC: 0.24943 (Simulation time: 0 hr 2 min 3 sec) 
Heartbeat CPU  0 instructions:   45000003 cycles:  144075582 heartbeat IPC: 0.24792 cumulative IPC: 0.24939 (Simulation time: 0 hr 2 min 6 sec) 
Heartbeat CPU  0 instructions:   46000003 cycles:  148091268 heartbeat IPC: 0.24902 cumulative IPC: 0.24938 (Simulation time: 0 hr 2 min 9 sec) 
Heartbeat CPU  0 instructions:   47000002 cycles:  152127054 heartbeat IPC: 0.24778 cumulative IPC: 0.24934 (Simulation time: 0 hr 2 min 13 sec) 
Heartbeat CPU  0 instructions:   48000000 cycles:  156160491 heartbeat IPC: 0.24793 cumulative IPC: 0.24930 (Simulation time: 0 hr 2 min 16 sec) 
Heartbeat CPU  0 instructions:   49000000 cycles:  160195968 heartbeat IPC: 0.24780 cumulative IPC: 0.24926 (Simulation time: 0 hr 2 min 19 sec) 
Heartbeat CPU  0 instructions:   50000003 cycles:  164227294 heartbeat IPC: 0.24806 cumulative IPC: 0.24923 (Simulation time: 0 hr 2 min 22 sec) 
Heartbeat CPU  0 instructions:   51000002 cycles:  168268076 heartbeat IPC: 0.24748 cumulative IPC: 0.24919 (Simulation time: 0 hr 2 min 25 sec) 
Heartbeat CPU  0 instructions:   52000000 cycles:  172313401 heartbeat IPC: 0.24720 cumulative IPC: 0.24914 (Simulation time: 0 hr 2 min 28 sec) 
Heartbeat CPU  0 instructions:   53000002 cycles:  176352018 heartbeat IPC: 0.24761 cumulative IPC: 0.24910 (Simulation time: 0 hr 2 min 31 sec) 
Heartbeat CPU  0 instructions:   54000000 cycles:  180418696 heartbeat IPC: 0.24590 cumulative IPC: 0.24903 (Simulation time: 0 hr 2 min 34 sec) 
Heartbeat CPU  0 instructions:   55000001 cycles:  184445804 heartbeat IPC: 0.24832 cumulative IPC: 0.24901 (Simulation time: 0 hr 2 min 38 sec) 
Heartbeat CPU  0 instructions:   56000000 cycles:  188498013 heartbeat IPC: 0.24678 cumulative IPC: 0.24897 (Simulation time: 0 hr 2 min 41 sec) 
Heartbeat CPU  0 instructions:   57000001 cycles:  192586644 heartbeat IPC: 0.24458 cumulative IPC: 0.24887 (Simulation time: 0 hr 2 min 44 sec) 
Heartbeat CPU  0 instructions:   58000000 cycles:  196657716 heartbeat IPC: 0.24564 cumulative IPC: 0.24880 (Simulation time: 0 hr 2 min 47 sec) 
Heartbeat CPU  0 instructions:   59000001 cycles:  200718842 heartbeat IPC: 0.24624 cumulative IPC: 0.24875 (Simulation time: 0 hr 2 min 50 sec) 
Heartbeat CPU  0 instructions:   60000000 cycles:  204805588 heartbeat IPC: 0.24469 cumulative IPC: 0.24867 (Simulation time: 0 hr 2 min 53 sec) 
Finished CPU 0 instructions: 50000000 cycles: 201072597 cumulative IPC: 0.24867 (Simulation time: 0 hr 2 min 53 sec) 

ChampSim completed all CPUs

[ROI Statistics]
Core_0_instructions 50000000
Core_0_cycles 201072597
Core_0_IPC 0.24867

Core_0_branch_prediction_accuracy 99.97478
Core_0_branch_MPKI 0.02810
Core_0_average_ROB_occupancy_at_mispredict 201.49822

Core_0_L1D_total_access 9260423
Core_0_L1D_total_hit 6707510
Core_0_L1D_total_miss 2552913
Core_0_L1D_loads 7043169
Core_0_L1D_load_hit 4628908
Core_0_L1D_load_miss 2414261
Core_0_L1D_RFOs 2217254
Core_0_L1D_RFO_hit 2078602
Core_0_L1D_RFO_miss 138652
Core_0_L1D_prefetches 0
Core_0_L1D_prefetch_hit 0
Core_0_L1D_prefetch_miss 0
Core_0_L1D_writebacks 0
Core_0_L1D_writeback_hit 0
Core_0_L1D_writeback_miss 0
Core_0_L1D_prefetch_requested 0
Core_0_L1D_prefetch_dropped 0
Core_0_L1D_prefetch_issued 0
Core_0_L1D_prefetch_filled 0
Core_0_L1D_prefetch_useful 0
Core_0_L1D_prefetch_useless 0
Core_0_L1D_prefetch_late 0
Core_0_L1D_average_miss_latency 84.79010

Core_0_L1D_rq_access 12579833
Core_0_L1D_rq_forward 0
Core_0_L1D_rq_merged 5514390
Core_0_L1D_rq_to_cache 7065443
Core_0_L1D_rq_full 0

Core_0_L1D_wq_access 2217254
Core_0_L1D_wq_forward 0
Core_0_L1D_wq_merged 0
Core_0_L1D_wq_to_cache 2217254
Core_0_L1D_wq_full 0

Core_0_L1D_pq_access 0
Core_0_L1D_pq_forward 0
Core_0_L1D_pq_merged 0
Core_0_L1D_pq_to_cache 0
Core_0_L1D_pq_full 0

Core_0_L1D_acc_epochs 91586
Core_0_L1D_acc_level_0 91586
Core_0_L1D_acc_level_1 0
Core_0_L1D_acc_level_2 0
Core_0_L1D_acc_level_3 0
Core_0_L1D_acc_level_4 0
Core_0_L1D_acc_level_5 0
Core_0_L1D_acc_level_6 0
Core_0_L1D_acc_level_7 0
Core_0_L1D_acc_level_8 0
Core_0_L1D_acc_level_9 0

Core_0_L1I_total_access 12883657
Core_0_L1I_total_hit 12883657
Core_0_L1I_total_miss 0
Core_0_L1I_loads 12883657
Core_0_L1I_load_hit 12883657
Core_0_L1I_load_miss 0
Core_0_L1I_RFOs 0
Core_0_L1I_RFO_hit 0
Core_0_L1I_RFO_miss 0
Core_0_L1I_prefetches 0
Core_0_L1I_prefetch_hit 0
Core_0_L1I_prefetch_miss 0
Core_0_L1I_writebacks 0
Core_0_L1I_writeback_hit 0
Core_0_L1I_writeback_miss 0
Core_0_L1I_prefetch_requested 0
Core_0_L1I_prefetch_dropped 0
Core_0_L1I_prefetch_issued 0
Core_0_L1I_prefetch_filled 0
Core_0_L1I_prefetch_useful 0
Core_0_L1I_prefetch_useless 0
Core_0_L1I_prefetch_late 0
Core_0_L1I_average_miss_latency -nan

Core_0_L1I_rq_access 50000006
Core_0_L1I_rq_forward 0
Core_0_L1I_rq_merged 37116349
Core_0_L1I_rq_to_cache 12883657
Core_0_L1I_rq_full 0

Core_0_L1I_wq_access 0
Core_0_L1I_wq_forward 0
Core_0_L1I_wq_merged 0
Core_0_L1I_wq_to_cache 0
Core_0_L1I_wq_full 0

Core_0_L1I_pq_access 0
Core_0_L1I_pq_forward 0
Core_0_L1I_pq_merged 0
Core_0_L1I_pq_to_cache 0
Core_0_L1I_pq_full 0

Core_0_L1I_acc_epochs 91586
Core_0_L1I_acc_level_0 91586
Core_0_L1I_acc_level_1 0
Core_0_L1I_acc_level_2 0
Core_0_L1I_acc_level_3 0
Core_0_L1I_acc_level_4 0
Core_0_L1I_acc_level_5 0
Core_0_L1I_acc_level_6 0
Core_0_L1I_acc_level_7 0
Core_0_L1I_acc_level_8 0
Core_0_L1I_acc_level_9 0

Core_0_L2C_total_access 6592427
Core_0_L2C_total_hit 3197193
Core_0_L2C_total_miss 3395234
Core_0_L2C_loads 2414261
Core_0_L2C_load_hit 653953
Core_0_L2C_load_miss 1760308
Core_0_L2C_RFOs 138652
Core_0_L2C_RFO_hit 602
Core_0_L2C_RFO_miss 138050
Core_0_L2C_prefetches 2930866
Core_0_L2C_prefetch_hit 1434014
Core_0_L2C_prefetch_miss 1496852
Core_0_L2C_writebacks 1108648
Core_0_L2C_writeback_hit 1108624
Core_0_L2C_writeback_miss 24
Core_0_L2C_prefetch_requested 3845678
Core_0_L2C_prefetch_dropped 0
Core_0_L2C_prefetch_issued 3845678
Core_0_L2C_prefetch_filled 1744379
Core_0_L2C_prefetch_useful 24889
Core_0_L2C_prefetch_useless 1717689
Core_0_L2C_prefetch_late 1749
Core_0_L2C_average_miss_latency 129.97652

Core_0_L2C_rq_access 2552913
Core_0_L2C_rq_forward 0
Core_0_L2C_rq_merged 0
Core_0_L2C_rq_to_cache 2552913
Core_0_L2C_rq_full 0

Core_0_L2C_wq_access 1108648
Core_0_L2C_wq_forward 0
Core_0_L2C_wq_merged 0
Core_0_L2C_wq_to_cache 1108648
Core_0_L2C_wq_full 0

Core_0_L2C_pq_access 3845678
Core_0_L2C_pq_forward 0
Core_0_L2C_pq_merged 126410
Core_0_L2C_pq_to_cache 3719268
Core_0_L2C_pq_full 0

Core_0_L2C_acc_epochs 91586
Core_0_L2C_acc_level_0 89868
Core_0_L2C_acc_level_1 1264
Core_0_L2C_acc_level_2 318
Core_0_L2C_acc_level_3 82
Core_0_L2C_acc_level_4 38
Core_0_L2C_acc_level_5 12
Core_0_L2C_acc_level_6 2
Core_0_L2C_acc_level_7 1
Core_0_L2C_acc_level_8 1
Core_0_L2C_acc_level_9 0

Core_0_LLC_total_access 4504156
Core_0_LLC_total_hit 3104954
Core_0_LLC_total_miss 1399202
Core_0_LLC_loads 1758569
Core_0_LLC_load_hit 1454554
Core_0_LLC_load_miss 304015
Core_0_LLC_RFOs 138050
Core_0_LLC_RFO_hit 137560
Core_0_LLC_RFO_miss 490
Core_0_LLC_prefetches 1498591
Core_0_LLC_prefetch_hit 422816
Core_0_LLC_prefetch_miss 1075775
Core_0_LLC_writebacks 1108946
Core_0_LLC_writeback_hit 1090024
Core_0_LLC_writeback_miss 18922
Core_0_LLC_prefetch_requested 0
Core_0_LLC_prefetch_dropped 0
Core_0_LLC_prefetch_issued 0
Core_0_LLC_prefetch_filled 1304274
Core_0_LLC_prefetch_useful 1166026
Core_0_LLC_prefetch_useless 134209
Core_0_LLC_prefetch_late 0
Core_0_LLC_average_miss_latency 195.01054

Core_0_LLC_rq_access 1896619
Core_0_LLC_rq_forward 0
Core_0_LLC_rq_merged 0
Core_0_LLC_rq_to_cache 1896619
Core_0_LLC_rq_full 0

Core_0_LLC_wq_access 1108946
Core_0_LLC_wq_forward 0
Core_0_LLC_wq_merged 0
Core_0_LLC_wq_to_cache 1108946
Core_0_LLC_wq_full 0

Core_0_LLC_pq_access 1746128
Core_0_LLC_pq_forward 0
Core_0_LLC_pq_merged 0
Core_0_LLC_pq_to_cache 1746128
Core_0_LLC_pq_full 0

Core_0_LLC_acc_epochs 200006
Core_0_LLC_acc_level_0 87
Core_0_LLC_acc_level_1 10
Core_0_LLC_acc_level_2 57
Core_0_LLC_acc_level_3 359
Core_0_LLC_acc_level_4 1162
Core_0_LLC_acc_level_5 2968
Core_0_LLC_acc_level_6 8203
Core_0_LLC_acc_level_7 21730
Core_0_LLC_acc_level_8 45532
Core_0_LLC_acc_level_9 119898

Core_0_major_page_fault 0
Core_0_minor_page_fault 26622

scooby_st_lookup 2803273
scooby_st_hit 1284071
scooby_st_evict 1519138
scooby_st_insert 1519202
scooby_st_streaming 0

scooby_predict_called 2803273
scooby_predict_out_of_bounds 55159
scooby_predict_action_1 2530562
scooby_predict_issue_action_1 2522892
scooby_predict_hit_action_1 7670
scooby_predict_out_of_bounds_action_1 39751
scooby_predict_action_3 12300
scooby_predict_issue_action_3 11419
scooby_predict_hit_action_3 881
scooby_predict_out_of_bounds_action_3 488
scooby_predict_action_4 6253
scooby_predict_issue_action_4 5492
scooby_predict_hit_action_4 761
scooby_predict_out_of_bounds_action_4 267
scooby_predict_action_5 6073
scooby_predict_issue_action_5 5623
scooby_predict_hit_action_5 450
scooby_predict_out_of_bounds_action_5 334
scooby_predict_action_10 5546
scooby_predict_issue_action_10 5167
scooby_predict_hit_action_10 379
scooby_predict_out_of_bounds_action_10 622
scooby_predict_action_11 5523
scooby_predict_issue_action_11 4842
scooby_predict_hit_action_11 681
scooby_predict_out_of_bounds_action_11 723
scooby_predict_action_12 5645
scooby_predict_issue_action_12 4857
scooby_predict_hit_action_12 788
scooby_predict_out_of_bounds_action_12 832
scooby_predict_action_22 4599
scooby_predict_issue_action_22 3680
scooby_predict_hit_action_22 919
scooby_predict_out_of_bounds_action_22 1574
scooby_predict_action_23 4024
scooby_predict_issue_action_23 3539
scooby_predict_hit_action_23 485
scooby_predict_out_of_bounds_action_23 1619
scooby_predict_action_30 3325
scooby_predict_issue_action_30 2773
scooby_predict_hit_action_30 552
scooby_predict_out_of_bounds_action_30 2165
scooby_predict_action_32 2965
scooby_predict_issue_action_32 2584
scooby_predict_hit_action_32 381
scooby_predict_out_of_bounds_action_32 2296
scooby_predict_action_-1 8458
scooby_predict_issue_action_-1 7984
scooby_predict_hit_action_-1 474
scooby_predict_out_of_bounds_action_-1 192
scooby_predict_action_-3 26630
scooby_predict_issue_action_-3 25468
scooby_predict_hit_action_-3 1162
scooby_predict_out_of_bounds_action_-3 1407
scooby_predict_action_-6 24508
scooby_predict_issue_action_-6 24031
scooby_predict_hit_action_-6 477
scooby_predict_out_of_bounds_action_-6 2889
scooby_predict_action_0 101703
scooby_predict_issue_action_0 0
scooby_predict_hit_action_0 0
scooby_predict_out_of_bounds_action_0 0
scooby_predict_multi_deg_called 419226
scooby_predict_predicted 3845678
scooby_predict_multi_deg 1215327
scooby_predict_multi_deg_2 418666
scooby_predict_multi_deg_3 281259
scooby_predict_multi_deg_4 280928
scooby_predict_multi_deg_5 117324
scooby_predict_multi_deg_6 117150
scooby_predict_multi_deg_7 0
scooby_predict_multi_deg_8 0
scooby_predict_multi_deg_9 0
scooby_predict_multi_deg_10 0
scooby_predict_multi_deg_11 0
scooby_predict_multi_deg_12 0
scooby_predict_multi_deg_13 0
scooby_predict_multi_deg_14 0
scooby_predict_multi_deg_15 0
scooby_predict_multi_deg_16 0

scooby_selected_deg_1 2211125
scooby_selected_deg_2 137281
scooby_selected_deg_3 0
scooby_selected_deg_4 163823
scooby_selected_deg_5 0
scooby_selected_deg_6 118122
scooby_selected_deg_7 0
scooby_selected_deg_8 0
scooby_selected_deg_9 0
scooby_selected_deg_10 0
scooby_selected_deg_11 0
scooby_selected_deg_12 0
scooby_selected_deg_13 0
scooby_selected_deg_14 0
scooby_selected_deg_15 0
scooby_selected_deg_16 0

scooby_state_40368c|35|0 19525,4,6,9,10,6,11,5,4,6,5,24,10,8,1157,20790,
scooby_state_40368c|42|0 19382,11,10,6,9,4,7,9,10,6,7,19,9,8,1292,20789,
scooby_state_40368c|7|0 19597,9,8,11,5,11,5,5,10,9,6,37,6,13,1057,20789,
scooby_state_40368c|53|0 19712,5,10,9,4,7,5,5,10,10,7,36,8,7,954,20789,
scooby_state_40368c|1|0 19653,9,11,6,12,10,4,11,6,8,7,44,4,5,998,20788,
scooby_state_40368c|16|0 19282,11,7,8,7,6,9,6,6,5,4,27,7,3,1400,20788,
scooby_state_40368c|11|0 19980,7,6,4,7,6,6,8,5,4,6,29,3,5,712,20788,
scooby_state_40368c|8|0 19687,7,7,5,7,6,8,4,6,5,4,33,9,9,991,20788,
scooby_state_40368c|15|0 19763,9,7,6,10,8,9,2,9,3,6,37,10,9,900,20788,
scooby_state_40368c|44|0 19548,11,7,7,15,10,10,7,7,7,6,32,10,5,1106,20788,
scooby_state_40368c|0|0 19664,11,9,11,11,6,9,8,7,8,8,23,8,7,998,20788,
scooby_state_40368c|60|0 19593,8,5,4,8,5,9,7,6,8,8,23,8,13,1083,20788,
scooby_state_40368c|9|0 19416,8,9,9,9,5,6,7,6,7,7,26,5,11,1256,20787,
scooby_state_40368c|55|0 20014,9,3,11,6,2,8,11,5,7,3,26,7,4,671,20787,
scooby_state_40368c|27|0 19764,8,7,5,10,3,4,11,4,5,7,42,5,10,902,20787,
scooby_state_40368c|22|0 19553,6,6,13,7,6,5,5,7,4,7,29,9,9,1121,20787,
scooby_state_40368c|40|0 19683,12,8,11,10,10,10,11,4,8,7,38,7,7,961,20787,
scooby_state_40368c|18|0 19972,8,8,3,9,13,5,4,12,5,6,18,6,9,709,20787,
scooby_state_40368c|45|0 19543,8,7,6,5,10,8,6,9,9,7,31,5,10,1123,20787,
scooby_state_40368c|34|0 19684,9,13,8,6,4,7,9,9,6,4,44,6,10,968,20787,
scooby_state_40368c|29|0 19744,6,7,3,12,5,12,7,5,7,4,27,7,9,932,20787,
scooby_state_40368c|19|0 19286,10,10,11,8,6,7,6,8,7,9,37,5,7,1370,20787,
scooby_state_40368c|28|0 19611,7,5,4,9,9,11,8,9,6,7,31,5,7,1058,20787,
scooby_state_40368c|37|0 20143,8,9,8,8,6,3,9,6,4,5,22,6,10,540,20787,
scooby_state_40368c|26|0 19574,5,6,4,6,7,6,4,8,6,7,45,11,9,1089,20787,
scooby_state_40368c|46|0 19704,8,9,6,6,11,4,9,6,3,11,40,12,7,951,20787,
scooby_state_40368c|54|0 19494,7,12,7,7,5,9,6,7,7,6,22,9,6,1183,20787,
scooby_state_40368c|62|0 19632,7,6,10,9,9,10,12,7,7,6,33,10,6,1023,20787,
scooby_state_40368c|57|0 19437,8,10,9,9,6,8,8,5,4,6,33,3,10,1231,20787,
scooby_state_40368c|14|0 19688,6,7,10,7,10,5,8,8,5,6,48,4,6,969,20787,
scooby_state_40368c|58|0 19525,4,6,9,9,5,9,4,8,6,7,40,9,8,1138,20787,
scooby_state_40368c|63|0 19520,7,7,7,5,8,8,4,7,5,5,23,9,6,1166,20787,
scooby_state_40368c|52|0 19514,9,9,8,5,5,15,6,7,4,3,43,7,4,1147,20786,
scooby_state_40368c|30|0 20051,10,7,8,7,5,10,6,12,7,10,20,7,11,615,20786,
scooby_state_40368c|39|0 19680,10,9,7,9,9,7,9,7,8,5,42,6,8,970,20786,
scooby_state_40368c|41|0 19476,9,10,6,6,11,6,6,7,2,4,26,7,8,1202,20786,
scooby_state_40368c|12|0 19741,8,5,7,9,3,9,5,8,11,9,35,4,9,923,20786,
scooby_state_40368c|49|0 19724,7,6,5,5,9,8,10,11,7,6,34,9,9,936,20786,
scooby_state_40368c|33|0 19528,10,9,5,9,5,9,5,7,3,5,48,9,10,1124,20786,
scooby_state_40368c|25|0 19562,7,6,7,10,6,7,6,5,6,6,35,7,6,1110,20786,
scooby_state_40368c|17|0 19708,4,9,12,6,9,10,6,4,9,5,20,5,7,972,20786,
scooby_state_40368c|61|0 19352,7,10,8,7,7,9,5,9,6,4,25,4,7,1326,20786,
scooby_state_40368c|38|0 18172,6,11,10,9,6,12,7,9,7,12,55,8,14,2448,20786,
scooby_state_40368c|51|0 19592,9,10,8,9,5,8,7,7,8,8,37,10,5,1063,20786,
scooby_state_40368c|4|0 19699,10,10,7,9,8,5,7,6,11,7,26,6,8,967,20786,
scooby_state_40368c|21|0 19735,7,5,8,7,4,9,8,10,11,7,43,11,12,909,20786,
scooby_state_40368c|20|0 19643,6,5,11,7,10,9,6,7,9,10,42,12,8,1001,20786,
scooby_state_40368c|36|0 19900,9,6,6,6,7,7,6,8,8,3,28,7,9,776,20786,
scooby_state_40368c|47|0 19819,5,7,7,14,7,8,9,7,6,8,34,6,8,841,20786,
scooby_state_40368c|24|0 19667,8,9,6,5,5,11,5,5,7,9,39,8,10,992,20786,
scooby_state_40368c|50|0 19581,7,12,11,9,9,8,8,10,9,7,33,7,10,1065,20786,
scooby_state_40368c|56|0 20002,9,5,10,8,6,8,3,9,3,12,26,8,11,666,20786,
scooby_state_40368c|31|0 19645,7,8,7,5,10,9,6,7,9,4,33,13,5,1018,20786,
scooby_state_40368c|32|0 19436,9,7,11,6,12,9,9,6,7,7,33,8,4,1221,20785,
scooby_state_40368c|59|0 19697,7,7,9,7,12,6,7,9,10,9,41,12,6,946,20785,
scooby_state_40368c|5|0 19677,8,13,9,7,9,6,8,9,11,7,29,10,6,976,20785,
scooby_state_40368c|3|0 19577,10,5,5,8,6,6,7,4,6,6,28,4,10,1103,20785,
scooby_state_40368c|6|0 19552,11,6,7,6,6,6,8,6,5,5,29,9,11,1118,20785,
scooby_state_40368c|43|0 19600,7,9,8,8,8,10,8,6,7,9,39,8,7,1051,20785,
scooby_state_40368c|48|0 19624,6,5,6,8,5,3,8,5,9,5,25,6,7,1063,20785,
scooby_state_40368c|23|0 19704,11,9,3,8,6,9,9,6,6,5,38,10,7,954,20785,
scooby_state_40368c|2|0 19735,13,6,7,6,6,6,5,7,5,10,37,7,6,929,20785,
scooby_state_40368c|10|0 19850,5,6,4,7,4,9,7,4,7,6,17,7,12,839,20784,
scooby_state_40368c|13|0 19285,3,9,8,11,9,9,7,10,6,6,44,8,7,1362,20784,
scooby_state_4036af|63|0 12262,11,7,7,10,7,8,9,12,7,8,11,478,128,739,13704,
scooby_state_4036af|62|0 9635,10,2,7,8,4,8,2,2,3,4,6,495,98,500,10784,
scooby_state_4036af|60|0 9411,21,10,7,10,9,8,6,9,10,9,16,206,56,651,10439,
scooby_state_4036af|61|0 8364,5,5,4,4,7,3,3,0,4,3,5,487,86,360,9340,
scooby_state_4036af|59|0 7070,11,11,8,8,7,6,7,7,3,9,20,224,61,550,8002,
scooby_state_4036a5|19|-1 7470,9,6,2,3,1,5,4,3,2,5,3,4,6,272,7795,
scooby_state_4036a5|59|-1 7471,5,5,6,4,4,6,6,4,4,2,5,6,5,262,7795,
scooby_state_4036a5|12|-1 7223,7,3,5,4,9,3,1,6,5,4,6,6,4,507,7793,
scooby_state_4036a5|6|-1 7403,6,2,5,2,9,5,4,1,3,2,3,4,4,340,7793,
scooby_state_4036a5|49|-1 7534,9,3,3,6,4,8,7,4,3,4,4,5,2,197,7793,
scooby_state_4036a5|34|-1 7566,3,2,5,4,4,7,2,3,6,5,7,6,5,168,7793,
scooby_state_4036a5|0|-1 7494,5,5,2,7,0,4,4,3,3,2,2,5,3,254,7793,
scooby_state_4036a5|26|-1 7404,5,2,5,7,5,4,2,5,1,5,3,5,3,337,7793,
scooby_state_4036a5|20|-1 7513,3,6,7,3,4,9,3,7,5,5,5,5,5,213,7793,
scooby_state_4036a5|5|-1 7517,7,3,1,7,4,5,2,2,7,5,9,2,7,214,7792,
scooby_state_4036a5|31|-1 7450,6,5,5,6,5,4,1,4,5,3,3,6,6,283,7792,
scooby_state_4036a5|18|-1 7332,12,5,8,2,4,1,5,3,3,3,6,4,5,399,7792,
scooby_state_4036a5|41|-1 7501,6,1,6,9,3,2,5,3,4,5,2,6,2,237,7792,
scooby_state_4036a5|7|-1 7463,4,7,8,4,6,5,4,7,1,2,4,6,6,265,7792,
scooby_state_4036a5|52|-1 7470,3,2,7,5,8,4,7,3,3,5,4,5,4,262,7792,
scooby_state_4036a5|35|-1 7493,5,5,5,2,11,4,5,6,4,2,6,4,3,237,7792,
scooby_state_4036a5|15|-1 7533,2,4,3,5,5,6,3,6,1,3,4,4,5,208,7792,
scooby_state_4036a5|14|-1 7497,7,9,3,8,5,5,5,1,4,5,5,4,4,230,7792,
scooby_state_4036a5|57|-1 7366,5,3,5,2,4,7,7,4,5,5,3,8,5,363,7792,
scooby_state_4036a5|25|-1 7485,7,8,5,5,3,4,4,2,2,4,6,4,5,248,7792,
scooby_state_4036a5|63|0 7207,39,37,36,38,39,38,39,37,38,36,47,47,47,66,7791,
scooby_state_4036a5|11|-1 7617,4,3,5,3,5,2,1,2,2,3,5,2,2,135,7791,
scooby_state_4036a5|51|-1 7306,6,5,3,4,6,5,3,3,4,6,5,2,6,427,7791,
scooby_state_4036a5|22|-1 7475,8,2,6,7,3,7,4,4,3,3,4,8,5,252,7791,
scooby_state_4036a5|13|-1 7455,7,6,4,4,7,5,6,5,4,2,1,5,7,273,7791,
scooby_state_4036a5|45|-1 7448,4,8,4,3,5,8,6,3,4,6,6,8,7,271,7791,
scooby_state_4036a5|40|-1 7521,3,5,6,0,5,2,3,4,4,1,5,4,6,222,7791,
scooby_state_4036a5|36|-1 7678,3,4,4,5,1,3,2,4,3,1,1,4,4,74,7791,
scooby_state_4036a5|62|-1 7532,4,2,7,0,4,5,3,1,3,2,4,6,5,213,7791,
scooby_state_4036a5|2|-1 7591,1,4,4,4,5,4,3,6,9,2,5,1,4,148,7791,
scooby_state_4036a5|10|-1 7626,3,1,2,4,4,4,5,2,4,5,5,2,5,119,7791,
scooby_state_4036a5|60|-1 7431,2,3,8,3,2,6,4,2,4,5,3,7,3,308,7791,
scooby_state_4036a5|21|-1 7523,6,5,8,3,4,3,5,2,7,3,4,6,4,208,7791,
scooby_state_4036a5|3|-1 7565,4,7,6,2,2,5,3,4,7,5,5,5,3,168,7791,
scooby_state_4036a5|39|-1 7516,8,3,7,3,3,5,3,5,6,4,5,4,3,216,7791,
scooby_state_4036a5|37|-1 7056,8,4,10,5,7,9,6,4,5,6,5,12,6,648,7791,
scooby_state_4036a5|8|-1 7512,1,3,6,4,3,3,2,4,2,4,8,6,3,229,7790,
scooby_state_4036a5|38|-1 7427,2,7,3,3,3,6,4,4,2,5,5,4,6,309,7790,
scooby_state_4036a5|4|-1 7558,8,3,4,4,5,3,2,5,3,4,8,8,6,169,7790,
scooby_state_4036a5|61|-1 7459,4,5,5,5,9,7,7,6,7,4,5,3,7,257,7790,
scooby_state_4036a5|9|-1 7497,7,5,5,6,2,2,2,5,1,6,7,5,3,237,7790,
scooby_state_4036a5|56|-1 7536,6,6,6,4,6,3,5,3,2,4,6,3,5,195,7790,
scooby_state_4036a5|47|-1 7533,4,3,6,9,0,6,4,3,3,3,5,4,6,200,7789,
scooby_state_4036a5|44|-1 7452,7,3,6,2,3,5,4,4,3,0,5,5,2,288,7789,
scooby_state_4036a5|32|-1 7414,7,4,3,1,5,5,2,3,8,1,7,3,1,325,7789,
scooby_state_4036a5|50|-1 7497,10,4,1,5,3,8,6,6,2,1,3,2,5,236,7789,
scooby_state_4036a5|55|-1 7647,6,3,2,2,4,2,2,2,2,3,3,2,4,105,7789,
scooby_state_4036a5|33|-1 7445,5,7,4,7,2,5,5,4,4,7,3,7,7,277,7789,
scooby_state_4036a5|46|-1 7519,9,4,4,5,7,5,11,6,2,5,7,6,5,194,7789,
scooby_state_4036a5|24|-1 7522,6,2,3,4,0,9,3,2,3,4,6,3,5,216,7788,
scooby_state_4036a5|23|-1 7502,5,6,5,6,2,5,3,5,2,6,3,4,3,231,7788,
scooby_state_4036a5|27|-1 7422,9,7,2,4,5,3,4,5,4,5,4,4,5,305,7788,
scooby_state_4036a5|42|-1 7525,3,7,5,6,4,7,2,5,3,2,3,4,7,205,7788,
scooby_state_4036a5|30|-1 7578,3,3,5,5,4,3,2,4,1,5,8,5,2,160,7788,
scooby_state_4036a5|43|-1 7489,10,4,8,5,4,4,4,8,5,2,4,5,6,230,7788,
scooby_state_4036a5|1|-1 7461,6,3,6,5,3,8,5,8,5,7,5,7,2,257,7788,
scooby_state_4036a5|16|-1 7550,5,2,4,3,4,4,1,3,3,3,8,7,5,186,7788,
scooby_state_4036a5|53|-1 7508,3,6,5,3,7,6,2,3,4,5,5,3,4,223,7787,
scooby_state_4036a5|58|-1 7449,12,5,4,3,4,6,3,6,6,6,6,4,7,266,7787,
scooby_state_4036a5|29|-1 7564,3,5,5,5,3,6,2,1,5,1,2,6,4,175,7787,
scooby_state_4036a5|17|-1 7637,4,4,4,3,6,1,2,3,3,2,5,2,4,107,7787,
scooby_state_4036a5|54|-1 7451,5,4,1,4,5,1,5,4,2,5,6,4,4,286,7787,
scooby_state_4036a5|28|-1 7456,7,8,4,6,5,2,4,3,3,3,3,5,5,272,7786,
scooby_state_4036a5|48|-1 7605,3,4,2,4,3,4,1,6,6,2,1,3,6,135,7785,
scooby_state_4036af|56|0 6911,12,18,12,11,10,8,12,10,8,10,17,87,36,444,7606,
scooby_state_4036af|48|0 6685,15,13,24,22,25,21,22,27,18,17,19,94,31,265,7298,
scooby_state_4036af|50|0 5698,4,7,5,15,5,5,8,5,6,7,16,123,18,402,6324,
scooby_state_4036af|58|0 5488,7,7,9,4,11,7,2,0,4,6,8,230,46,414,6243,
scooby_state_4036af|49|0 5006,5,8,5,9,5,7,6,8,10,5,10,23,15,551,5673,
scooby_state_4036af|57|0 5134,5,7,3,9,3,2,8,4,2,3,4,110,41,257,5592,
scooby_state_4036af|9|-2 4174,34,11,11,10,18,16,12,13,11,12,15,17,268,21,4643,
scooby_state_4036af|33|0 4211,3,5,5,3,1,2,3,3,1,2,4,99,21,203,4566,
scooby_state_4036af|51|0 3815,14,13,17,9,18,17,15,10,9,15,18,103,46,279,4398,
scooby_state_4036af|29|0 3924,14,18,10,9,14,18,10,13,17,12,12,24,21,270,4386,
scooby_state_4036af|29|-5 3892,22,15,21,14,12,31,18,14,12,16,16,196,38,48,4365,
scooby_state_4036af|11|-2 3922,33,17,10,16,18,8,7,19,10,14,8,20,226,29,4357,
scooby_state_4036af|7|-2 3631,19,11,5,7,6,6,8,5,6,11,11,13,285,11,4035,
scooby_state_4036af|37|-2 3603,22,12,13,7,18,14,10,8,9,10,20,13,205,27,3991,
scooby_state_4036af|16|-2 3522,9,6,6,5,4,9,1,4,3,2,6,7,268,14,3866,
scooby_state_4036af|4|-2 3370,13,10,9,8,10,5,4,4,7,8,11,10,305,15,3789,
scooby_state_4036af|21|-8 3389,22,18,22,27,25,19,16,18,17,24,23,60,49,46,3775,
scooby_state_4036af|53|0 3319,2,3,3,5,1,3,3,4,1,0,3,30,10,364,3751,
scooby_state_4036af|52|0 3392,5,1,2,0,2,3,2,2,2,2,2,175,41,90,3721,
scooby_state_4036af|29|-3 3334,17,23,15,12,8,13,10,7,7,10,16,159,35,30,3696,
scooby_state_4036af|27|-2 3262,17,8,10,9,4,13,4,8,8,3,9,10,249,11,3625,
scooby_state_4036af|57|-2 3237,28,15,14,19,8,25,13,12,8,12,17,18,153,24,3603,
scooby_state_4036af|29|-2 3209,16,7,5,3,6,8,2,7,5,8,12,3,254,11,3556,
scooby_state_4036af|42|0 3036,9,7,8,4,6,11,3,7,5,2,13,21,9,334,3475,
scooby_state_4036af|48|-3 3081,4,10,7,12,9,6,7,5,1,0,6,211,39,23,3421,
scooby_state_4036af|33|-2 3056,10,6,7,5,11,6,9,5,6,5,11,9,229,11,3386,
scooby_state_4036af|54|0 2990,3,2,1,4,1,2,0,0,2,0,2,78,20,217,3322,
scooby_state_4036af|54|-2 2895,16,10,3,3,4,5,9,6,6,4,13,7,249,6,3236,
scooby_state_4036af|0|-2 2756,79,6,6,4,6,3,7,2,5,1,5,5,304,10,3199,
scooby_state_4036af|46|-2 2831,5,4,9,5,6,5,5,8,6,4,8,5,215,11,3127,
scooby_state_4036af|51|-5 2744,24,13,9,15,14,10,9,18,15,5,23,108,33,36,3076,
scooby_state_4036af|40|0 2753,5,2,5,2,3,2,1,2,0,0,1,79,18,164,3037,
scooby_state_4036af|35|-5 2700,13,2,2,4,2,8,3,3,5,3,14,189,23,25,2996,
scooby_state_4036af|51|-2 2721,11,5,8,5,7,3,4,3,7,2,6,3,198,7,2990,
scooby_state_4036af|39|-3 2653,13,26,8,20,17,17,14,8,19,10,11,73,32,35,2956,
scooby_state_4036af|61|-2 2640,15,11,13,10,6,12,11,6,12,8,23,19,128,23,2937,
scooby_state_4036af|55|-5 2571,9,11,6,10,13,7,7,7,1,6,7,207,36,25,2923,
scooby_state_4036af|28|-7 2546,23,22,28,18,18,16,22,14,21,23,18,31,65,22,2887,
scooby_state_4036af|41|0 2526,0,4,3,3,2,1,2,5,6,1,4,18,5,287,2867,
scooby_state_4036af|39|-2 2601,0,0,0,0,0,1,0,1,2,0,0,2,259,0,2866,
scooby_state_4036af|14|-3 2528,12,21,14,7,7,14,11,4,9,7,9,109,28,37,2817,
scooby_state_4036af|2|-2 2520,0,1,0,0,1,2,1,0,1,0,0,0,283,0,2809,
scooby_state_4036af|30|-1 2473,13,15,17,14,4,17,19,12,9,14,7,56,48,26,2744,
scooby_state_4036af|42|-1 2457,11,8,4,9,8,12,7,6,5,2,11,92,72,19,2723,
scooby_state_4036af|6|-2 2445,1,0,0,1,1,1,4,2,0,0,0,2,243,3,2703,
scooby_state_4036af|36|-3 2447,3,11,8,8,4,6,2,5,4,5,5,137,35,15,2695,
scooby_state_4036af|31|-2 2420,1,0,0,1,0,1,1,0,0,0,2,0,238,1,2665,
scooby_state_4036af|34|0 2360,7,4,4,4,7,6,5,6,4,2,8,55,25,156,2653,
scooby_state_4036af|17|-2 2331,14,6,12,6,5,10,8,7,8,5,8,8,208,12,2648,
scooby_state_4036af|53|-1 2363,6,10,7,8,9,11,3,12,8,7,6,75,95,16,2636,
scooby_state_4036af|34|-5 2314,16,4,9,9,4,5,4,7,4,4,6,136,28,20,2570,
scooby_state_4036af|45|0 2273,3,2,2,1,3,6,2,1,2,5,4,9,6,245,2564,
scooby_state_4036af|35|-1 2289,5,6,13,5,13,9,8,8,3,7,9,80,78,19,2552,
scooby_state_4036af|26|-3 2284,9,11,5,10,6,4,2,3,3,4,6,129,32,16,2524,
scooby_state_4036af|50|-2 2049,69,6,4,5,5,5,6,2,5,3,5,3,200,5,2372,
scooby_state_4036af|20|-2 2049,20,7,9,8,8,6,6,6,6,9,10,16,143,14,2317,
scooby_state_4036af|41|-1 2084,9,9,9,10,6,5,6,9,5,8,7,58,55,23,2303,
scooby_state_4036af|56|-2 2058,0,1,0,0,1,0,1,0,0,2,1,0,231,1,2296,
scooby_state_4036af|19|-15 2052,12,13,14,14,17,15,22,14,11,15,17,15,30,27,2288,
scooby_state_4036af|32|-18 2044,20,12,16,13,18,16,15,16,14,14,11,32,12,23,2276,
scooby_state_4036af|18|-2 2044,5,1,0,0,1,1,0,0,1,0,0,2,216,1,2272,
scooby_state_4036af|20|0 2068,2,2,3,0,2,1,3,3,2,0,3,58,12,92,2251,
scooby_state_4036af|42|-2 2014,3,5,2,7,2,1,4,2,4,2,4,7,190,3,2250,
scooby_state_4036af|13|-3 2012,0,0,1,0,1,1,0,0,0,0,0,185,22,2,2224,
scooby_state_4036af|11|-3 1975,11,21,13,8,9,6,6,11,7,5,6,107,16,21,2222,
scooby_state_4036af|49|-2 1964,0,0,0,1,0,3,0,3,0,0,1,0,224,0,2196,
scooby_state_4036af|19|-2 1956,15,9,13,8,3,6,8,7,0,7,9,4,132,10,2187,
scooby_state_4036af|45|-3 1968,5,13,8,8,11,13,4,6,6,2,4,96,25,12,2181,
scooby_state_4036af|22|-11 1965,18,8,12,12,17,27,13,8,9,16,10,20,19,24,2178,
scooby_state_4036af|4|-4 1924,15,17,36,13,14,11,14,20,10,11,23,20,29,15,2172,
scooby_state_4036af|34|-3 1939,10,16,7,9,3,10,6,6,10,11,7,96,27,15,2172,
scooby_state_4036af|38|0 1933,10,3,8,8,4,4,3,2,8,5,2,24,8,146,2168,
scooby_state_4036af|35|-3 1943,6,15,9,3,9,6,8,11,7,4,5,80,26,17,2149,
scooby_state_4036af|25|-3 1911,14,16,7,8,14,7,9,7,9,4,10,78,23,26,2143,
scooby_state_4036af|17|-1 1933,2,14,8,8,6,6,9,8,6,8,6,67,48,11,2140,
scooby_state_4036af|33|-5 1920,8,13,10,10,7,11,8,7,11,4,9,70,18,13,2119,
scooby_state_4036af|10|-1 1909,9,6,6,9,6,7,4,6,9,5,11,59,49,16,2111,
scooby_state_4036af|59|-3 1886,13,10,6,7,4,5,5,3,5,0,8,109,22,18,2101,
scooby_state_4036af|54|-5 1873,10,3,9,2,8,5,6,7,5,4,6,114,23,19,2094,
scooby_state_4036af|23|-10 1885,13,11,12,7,19,10,11,10,7,3,15,36,20,34,2093,
scooby_state_4036af|0|-6 1848,14,7,10,9,9,14,12,14,10,12,12,48,48,24,2091,
scooby_state_4036af|22|-7 1851,11,9,8,16,12,8,10,17,9,13,17,33,60,15,2089,
scooby_state_4036af|9|-8 1862,11,16,9,13,15,17,10,18,11,8,7,27,23,28,2075,
scooby_state_4036af|32|-2 1864,0,0,0,0,0,2,0,1,0,0,0,0,198,0,2065,
scooby_state_4036af|53|-2 1863,0,0,0,0,1,0,1,1,1,0,0,0,193,0,2060,
scooby_state_4036af|15|-13 1835,9,8,7,9,10,10,13,6,7,9,10,61,20,23,2037,
scooby_state_4036af|41|-8 1822,18,7,11,16,7,9,10,15,13,9,8,28,27,28,2028,
scooby_state_4036af|17|-5 1804,1,0,1,0,0,0,0,0,0,2,0,192,24,4,2028,
scooby_state_4036af|27|0 1787,2,3,0,1,4,5,3,1,3,2,6,7,7,167,1998,
scooby_state_4036af|50|-10 1764,12,6,10,11,25,12,6,6,6,8,9,64,33,22,1994,
scooby_state_4036af|3|-6 1760,18,6,21,12,7,11,13,10,11,13,11,49,31,20,1993,
scooby_state_4036af|58|-5 1777,6,9,6,6,6,5,9,4,7,9,7,85,18,28,1982,
scooby_state_4036af|46|-3 1784,8,8,5,5,6,4,2,8,3,8,7,91,18,14,1971,
scooby_state_4036af|14|0 1746,2,2,5,2,4,2,0,2,0,1,4,8,11,160,1949,
scooby_state_4036af|33|-3 1734,2,0,0,1,0,2,0,0,1,0,0,170,25,6,1941,
scooby_state_4036af|15|-3 1700,10,25,6,9,5,6,9,6,3,5,12,89,30,13,1928,
scooby_state_4036af|31|-10 1730,6,8,9,4,26,7,6,2,3,4,9,56,30,25,1925,
scooby_state_4036af|60|-1 1698,3,6,2,0,4,3,1,1,3,3,0,104,83,6,1917,
scooby_state_4036af|6|-3 1699,9,9,10,10,6,7,6,6,1,7,8,94,29,14,1915,
scooby_state_4036af|1|-1 1687,5,5,0,1,4,3,1,5,1,1,2,81,100,12,1908,
scooby_state_4036af|51|-3 1692,6,19,5,5,8,3,6,7,1,6,4,113,19,11,1905,
scooby_state_4036af|0|-3 1643,12,29,12,11,12,7,8,7,5,9,14,86,28,20,1903,
scooby_state_4036af|60|-3 1725,0,4,1,2,2,1,1,1,1,0,0,134,24,4,1900,
scooby_state_4036af|40|-10 1661,11,8,10,10,18,12,10,11,9,6,9,79,31,15,1900,
scooby_state_4036af|43|-3 1702,10,20,9,11,10,14,10,9,13,7,10,22,18,30,1895,
scooby_state_4036af|57|-5 1656,18,13,6,10,7,3,5,5,8,12,13,89,20,27,1892,
scooby_state_4036af|44|-6 1618,11,10,13,12,11,11,7,8,13,13,8,75,40,25,1875,
scooby_state_4036af|7|-8 1651,5,7,9,8,8,11,9,2,9,6,8,77,45,20,1875,
scooby_state_4036af|8|-1 1642,13,10,12,12,9,14,11,7,11,7,6,61,30,21,1866,
scooby_state_4036af|28|-10 1669,3,12,7,12,9,8,7,8,5,7,11,49,32,20,1859,
scooby_state_4036af|9|-1 1669,3,5,1,2,3,2,1,3,1,1,3,62,72,3,1831,
scooby_state_4036af|50|-5 1634,5,6,4,4,6,3,1,2,3,0,3,130,18,12,1831,
scooby_state_4036af|50|-3 1663,1,11,6,0,4,4,5,5,3,3,9,88,13,13,1828,
scooby_state_4036af|9|-6 1598,7,12,6,16,16,16,11,5,11,8,7,46,32,23,1814,
scooby_state_4036af|43|-2 1626,0,0,0,1,1,0,1,1,0,0,0,1,175,0,1806,
scooby_state_4036af|15|0 1579,2,0,2,3,0,0,0,0,0,0,2,4,6,201,1799,
scooby_state_4036af|47|-10 1593,8,5,9,6,24,15,12,8,6,9,10,26,15,48,1794,
scooby_state_4036af|39|-7 1594,15,11,10,9,10,12,25,11,8,12,13,17,15,20,1782,
scooby_state_4036af|27|-8 1576,6,10,12,15,5,7,6,7,10,7,3,56,37,22,1779,
scooby_state_4036af|19|-3 1610,2,1,0,0,0,1,0,0,2,1,0,115,33,3,1768,
scooby_state_4036af|19|-10 1567,13,5,8,7,17,8,4,8,10,8,10,38,28,34,1765,
scooby_state_4036af|44|-4 1463,18,19,43,19,14,12,10,9,14,11,29,34,42,24,1761,
scooby_state_4036af|21|-2 1575,0,0,0,0,3,0,0,0,0,0,0,1,182,0,1761,
scooby_state_4036af|13|-1 1564,5,8,11,2,14,6,7,3,8,5,11,45,53,15,1757,
scooby_state_4036af|41|-5 1557,5,0,2,2,2,1,2,1,2,1,1,138,19,15,1748,
scooby_state_4036af|5|-1 1574,2,2,3,3,4,2,1,3,0,3,2,67,70,11,1747,
scooby_state_4036af|28|-5 1561,13,9,7,7,11,9,6,7,5,6,6,64,15,19,1745,
scooby_state_4036af|38|-1 1561,2,4,3,1,1,2,2,1,2,2,0,78,73,6,1738,
scooby_state_4036af|18|-3 1541,8,16,7,2,4,5,7,4,2,6,10,76,24,17,1729,
scooby_state_4036af|56|-5 1528,12,9,7,8,12,10,10,8,4,4,11,79,9,17,1728,
scooby_state_4036af|10|-3 1555,2,0,0,0,0,2,1,0,0,0,0,143,21,4,1728,
scooby_state_4036af|49|-10 1485,12,5,14,13,24,12,11,9,11,9,11,43,22,46,1727,
scooby_state_4036af|15|-1 1515,6,6,8,10,6,5,3,8,4,5,6,60,56,21,1719,
scooby_state_4036af|15|-7 1537,7,8,6,4,7,4,14,10,7,7,8,27,61,8,1715,
scooby_state_4036af|37|0 1574,6,3,2,8,2,2,2,1,4,3,1,44,13,36,1701,
scooby_state_4036af|41|-3 1519,2,2,2,0,0,1,0,0,2,0,0,145,22,3,1698,
scooby_state_4036af|6|-1 1557,2,0,0,2,1,1,1,1,2,0,2,62,61,5,1697,
scooby_state_4036af|15|-2 1513,2,0,0,0,0,1,1,0,1,0,1,0,172,0,1691,
scooby_state_4036af|55|0 1471,2,3,3,0,1,3,0,0,1,0,2,63,20,121,1690,
scooby_state_4036af|49|-1 1518,6,8,7,7,7,9,10,5,5,6,3,44,43,11,1689,
scooby_state_4036af|46|0 1451,4,3,1,3,2,3,0,0,2,0,4,20,9,181,1683,
scooby_state_4036af|55|-3 1501,4,7,3,2,1,4,5,2,5,3,2,96,26,18,1679,
scooby_state_4036af|47|-3 1507,9,19,6,3,6,7,10,4,2,7,6,56,19,12,1673,
scooby_state_4036af|0|-13 1418,21,19,18,15,21,13,7,18,13,14,11,22,21,33,1664,
scooby_state_4036af|52|-2 1497,1,0,1,1,1,0,0,1,0,0,0,1,145,0,1648,
scooby_state_4036af|29|-8 1471,9,9,5,7,9,10,8,8,4,6,4,39,39,14,1642,
scooby_state_4036af|31|-3 1461,13,12,7,9,7,4,6,9,5,4,9,53,22,20,1641,
scooby_state_4036af|48|-5 1450,17,9,9,7,6,5,5,3,3,6,5,70,22,24,1641,
scooby_state_4036af|38|-5 1449,13,12,5,10,4,5,6,2,9,3,10,69,19,16,1632,
scooby_state_4036af|21|-6 1424,12,7,7,9,12,14,14,10,8,6,7,41,23,14,1608,
scooby_state_4036af|58|-2 1424,17,6,7,6,6,4,8,5,5,6,7,7,83,16,1607,
scooby_state_4036af|3|0 1537,0,2,1,2,3,2,1,2,2,1,1,22,3,24,1603,
scooby_state_4036af|3|-8 1407,11,12,9,11,11,14,15,11,10,8,15,21,20,27,1602,
scooby_state_4036af|45|-6 1405,7,13,16,11,13,9,10,5,10,6,12,44,17,23,1601,
scooby_state_4036af|3|-1 1423,9,14,8,8,7,7,11,5,7,6,4,42,36,10,1597,
scooby_state_4036af|38|-7 1414,6,6,9,13,8,15,11,8,7,6,17,17,46,14,1597,
scooby_state_4036af|11|-1 1456,5,9,4,5,4,9,7,1,7,9,6,30,30,14,1596,
scooby_state_4036af|44|-5 1420,10,2,4,2,2,2,3,4,2,3,4,94,18,9,1579,
scooby_state_4036af|52|-1 1433,0,1,2,2,1,2,1,2,2,0,3,60,65,4,1578,
scooby_state_4036af|8|-6 1402,6,8,6,8,9,12,3,10,8,6,7,40,24,23,1572,
scooby_state_4036af|10|-5 1398,3,2,0,0,1,2,1,3,0,0,0,125,22,3,1560,
scooby_state_4036af|32|-3 1367,2,1,1,2,0,0,0,1,0,1,0,144,25,2,1546,
scooby_state_4036af|31|-5 1379,8,6,5,6,10,6,6,2,3,3,8,67,8,14,1531,
scooby_state_4036af|13|-6 1355,9,13,13,11,5,11,10,11,12,7,10,29,18,15,1529,
scooby_state_4036af|37|-3 1379,3,10,8,6,1,6,4,4,2,6,6,53,27,10,1525,
scooby_state_4036af|9|-20 1313,18,13,15,10,21,11,12,11,16,15,10,11,17,15,1508,
scooby_state_4036af|43|0 1359,3,3,7,6,3,2,1,4,2,2,3,13,7,92,1507,
scooby_state_4036af|45|-1 1371,2,1,1,3,1,2,1,1,3,2,1,46,64,4,1503,
scooby_state_4036af|20|-10 1365,8,7,7,6,18,6,7,4,6,7,10,18,9,22,1500,
scooby_state_4036af|43|-4 1337,16,8,10,9,7,9,4,9,9,5,13,12,24,16,1488,
scooby_state_4036af|25|-2 1331,20,2,1,2,1,1,2,2,1,2,1,2,116,1,1485,
scooby_state_4036af|24|-4 1312,6,5,32,5,13,8,9,7,7,3,20,21,21,9,1478,
scooby_state_4036af|60|-2 1342,0,0,0,0,0,1,0,1,1,0,0,2,126,1,1474,
scooby_state_4036af|39|-5 1332,1,0,0,3,0,0,0,0,1,1,0,111,20,2,1471,
scooby_state_4036af|59|-2 1312,1,0,2,1,1,2,1,0,0,0,0,1,148,0,1469,
scooby_state_4036af|38|-13 1332,11,8,6,14,11,10,6,7,3,7,8,13,13,14,1463,
scooby_state_4036af|48|-10 1288,5,7,9,3,10,4,2,5,5,10,7,53,27,22,1457,
scooby_state_4036af|47|-2 1293,12,0,1,0,1,0,0,3,1,2,1,0,140,1,1455,
scooby_state_4036af|58|-3 1325,0,0,0,0,0,0,0,1,0,0,0,103,22,2,1453,
scooby_state_4036af|30|0 1396,4,4,1,3,4,0,0,2,1,1,1,4,5,25,1451,
scooby_state_4036af|22|-2 1312,0,0,1,0,0,1,0,0,0,1,0,1,131,0,1447,
scooby_state_4036af|40|-2 1288,6,0,0,0,0,0,0,0,0,1,0,1,150,0,1446,
scooby_state_4036af|46|-5 1296,4,3,3,8,4,4,5,9,4,6,7,45,21,21,1440,
scooby_state_4036af|10|-2 1295,0,0,0,0,1,0,0,1,0,0,1,0,138,0,1436,
scooby_state_4036af|51|-9 1266,16,6,16,18,9,11,6,13,8,5,8,14,15,20,1431,
scooby_state_4036af|18|-1 1291,3,1,0,2,0,2,1,0,1,1,1,66,49,4,1422,
scooby_state_4036af|34|-8 1238,8,5,9,8,13,16,7,8,7,11,15,24,29,23,1421,
scooby_state_4036af|3|-10 1249,8,18,7,10,19,7,10,10,7,5,4,30,13,23,1420,
scooby_state_4036af|14|-7 1281,8,8,6,4,7,8,6,8,4,13,9,13,30,15,1420,
scooby_state_4036af|35|-10 1210,5,10,6,7,15,9,3,10,5,10,10,41,22,40,1403,
scooby_state_4036af|13|-2 1253,0,0,0,0,3,1,0,1,1,0,0,0,142,0,1401,
scooby_state_4036af|9|-3 1200,4,5,1,0,0,2,6,2,1,2,2,133,28,9,1395,
scooby_state_4036af|13|-7 1258,6,4,4,6,9,3,9,5,5,10,7,9,47,5,1387,
scooby_state_4036af|50|-1 1260,0,1,2,1,1,1,2,0,0,2,1,50,57,4,1382,
scooby_state_4036af|47|-13 1215,9,15,8,6,7,13,7,10,7,14,13,11,20,25,1380,
scooby_state_4036af|34|-6 1205,15,13,6,10,11,17,9,10,11,14,7,21,15,12,1376,
scooby_state_4036af|20|-1 1236,0,2,1,2,3,3,2,2,2,2,1,64,44,8,1372,
scooby_state_4036af|26|-2 1230,1,2,0,0,0,0,1,0,0,0,1,2,132,0,1369,
scooby_state_4036af|14|-5 1207,18,5,6,8,5,4,6,4,2,6,6,42,16,17,1352,
scooby_state_4036af|22|0 1162,0,1,3,1,1,0,2,4,1,3,2,4,4,160,1348,
scooby_state_4036af|8|-2 1199,1,1,1,1,1,0,1,1,1,0,1,1,133,1,1343,
scooby_state_4036af|30|-18 1077,17,14,19,19,20,20,19,21,20,19,11,25,21,21,1343,
scooby_state_4036af|48|-1 1209,3,2,0,1,1,0,0,3,2,0,1,43,74,2,1341,
scooby_state_4036af|27|-6 1214,7,3,8,1,7,3,2,2,1,3,0,35,40,14,1340,
scooby_state_4036af|34|-1 1188,3,5,1,0,1,1,3,4,2,3,1,51,58,6,1327,
scooby_state_4036af|35|-2 1199,0,0,0,0,0,0,0,2,0,0,0,1,124,0,1326,
scooby_state_4036af|27|-3 1179,6,15,15,9,4,4,5,4,8,8,6,22,14,24,1323,
scooby_state_4036af|43|-8 1154,7,13,13,13,14,14,7,10,5,7,11,11,17,27,1323,
scooby_state_4036af|40|-8 1140,7,10,5,3,7,8,3,6,9,7,3,54,45,13,1320,
scooby_state_4036af|47|0 1121,6,7,5,1,2,4,6,4,1,0,3,10,7,141,1318,
scooby_state_4036af|11|-11 1128,7,9,10,6,10,55,10,9,6,5,7,24,12,18,1316,
scooby_state_4036af|3|-13 1150,11,8,11,13,6,17,9,5,6,10,10,26,10,22,1314,
scooby_state_4036af|4|-3 1144,2,1,1,1,2,1,0,0,0,0,2,119,34,4,1311,
scooby_state_4036af|25|-1 1201,2,2,0,3,1,1,3,1,4,0,1,37,51,3,1310,
scooby_state_4036af|56|-1 1170,3,4,6,5,4,4,7,4,7,5,6,39,32,10,1306,
scooby_state_4036af|18|-9 1161,5,9,7,7,9,11,11,10,7,9,13,13,13,20,1305,
scooby_state_4036af|44|0 1188,1,1,1,1,1,0,1,2,1,0,1,3,7,90,1298,
scooby_state_4036af|50|-11 1101,11,11,9,7,10,48,11,13,8,10,13,19,14,12,1297,
scooby_state_4036af|28|-3 1144,1,1,1,0,1,0,0,0,1,1,1,97,24,0,1272,
scooby_state_4036af|42|-8 1138,6,4,9,4,13,9,3,6,10,7,4,30,14,12,1269,
scooby_state_4036af|37|-5 1083,16,7,10,4,10,8,12,7,5,7,5,52,17,24,1267,
scooby_state_4036af|39|0 1075,1,2,7,0,2,3,1,0,0,4,3,21,5,138,1262,
scooby_state_4036af|0|0 1123,2,5,3,1,1,0,0,2,1,4,1,1,2,116,1262,
scooby_state_4036af|23|0 1118,3,1,1,1,0,0,1,2,3,4,0,48,4,74,1260,
scooby_state_4036af|51|-10 1112,5,11,3,6,11,8,8,4,11,6,6,22,17,23,1253,
scooby_state_4036af|7|-3 1118,1,0,1,0,0,0,0,1,1,1,0,103,21,3,1250,
scooby_state_4036af|54|-1 1127,0,1,0,2,0,2,2,2,1,0,1,49,53,4,1244,
scooby_state_4036af|26|-5 1119,0,1,1,0,2,0,1,0,0,0,0,102,15,2,1243,
scooby_state_4036af|2|-5 1101,0,0,0,0,0,0,2,1,0,0,0,121,15,1,1241,
scooby_state_4036af|12|-2 1093,12,5,8,4,2,3,6,6,4,4,7,5,37,12,1208,
scooby_state_4036af|20|-5 1091,3,3,3,1,2,2,3,1,2,2,2,74,15,4,1208,
scooby_state_4036af|38|-10 1087,8,7,7,3,13,4,5,8,5,5,2,9,13,28,1204,
scooby_state_4036af|17|-15 1054,6,11,10,8,10,10,11,11,12,7,13,10,13,15,1201,
scooby_state_4036af|54|-3 1063,0,1,1,0,0,0,0,1,0,1,0,101,25,6,1199,
scooby_state_4036af|0|-4 1054,8,5,12,5,8,2,2,4,4,8,19,27,32,9,1199,
scooby_state_4036af|15|-4 1085,3,7,4,6,5,3,4,3,7,3,17,19,27,5,1198,
scooby_state_4036af|22|-1 1090,1,2,1,1,0,1,1,1,1,0,1,39,55,3,1197,
scooby_state_4036af|8|-5 1079,0,0,0,0,0,0,2,0,0,0,0,104,9,1,1195,
scooby_state_4036af|17|-3 1065,0,1,0,0,0,0,0,1,0,0,0,99,24,4,1194,
scooby_state_4036af|31|-6 1057,10,5,12,11,6,9,12,8,6,5,9,14,16,12,1192,
scooby_state_4036af|38|-11 1025,7,10,13,11,13,18,11,7,15,6,11,13,9,18,1187,
scooby_state_4036af|61|-1 1074,2,3,0,3,0,0,3,0,0,1,2,43,53,2,1186,
scooby_state_4036af|30|-3 900,17,59,11,12,14,16,15,16,14,15,11,42,23,20,1185,
scooby_state_4036af|36|-5 1041,0,0,1,0,0,1,0,0,1,0,0,125,15,0,1184,
scooby_state_4036af|0|-37 1037,7,6,10,13,10,15,8,8,11,11,10,8,9,18,1181,
scooby_state_4036af|48|-2 991,46,2,1,2,1,1,3,2,1,3,1,4,120,1,1179,
scooby_state_4036af|38|-12 1052,5,7,7,7,11,10,9,8,6,9,8,9,9,15,1172,
scooby_state_4036af|6|-5 1010,0,1,0,1,0,0,0,0,1,0,1,142,13,1,1170,
scooby_state_4036af|11|-10 1046,4,2,8,5,9,9,1,5,7,7,9,17,12,23,1164,
scooby_state_4036af|33|-10 1039,5,6,7,10,8,5,4,5,4,4,4,28,11,23,1163,
scooby_state_4036af|22|-3 1039,0,1,2,0,1,0,1,0,1,1,1,85,28,2,1162,
scooby_state_4036af|35|0 1069,3,5,3,4,4,3,2,3,4,3,3,5,2,48,1161,
scooby_state_4036af|3|-2 981,8,2,2,1,1,2,2,1,1,0,2,2,144,1,1150,
scooby_state_4036af|8|-3 1019,2,2,1,2,4,2,1,3,2,3,1,68,22,8,1140,
scooby_state_4036af|37|-4 1023,6,7,18,4,10,6,6,5,3,6,12,10,17,5,1138,
scooby_state_4036af|2|0 1092,3,3,8,1,1,1,5,3,4,1,1,2,4,7,1136,
scooby_state_4036af|18|-20 1006,10,8,10,10,5,10,14,8,7,8,11,9,7,13,1136,
scooby_state_4036af|24|-2 1000,0,0,0,0,0,0,0,0,0,0,0,1,129,0,1130,
scooby_state_4036af|57|-1 978,7,8,13,9,15,9,12,10,8,9,9,6,12,22,1127,
scooby_state_4036af|16|-3 978,0,0,0,0,1,0,0,1,0,0,2,112,25,4,1123,
scooby_state_4036af|39|-4 1014,8,8,10,10,3,6,6,4,8,7,10,10,8,11,1123,
scooby_state_4036af|13|-50 992,9,9,8,9,9,9,10,9,10,9,8,8,9,13,1121,
scooby_state_4036af|0|-47 997,10,9,9,10,8,8,10,9,10,9,7,6,7,11,1120,
scooby_state_4036af|28|0 1005,6,7,6,8,7,3,4,1,4,4,5,12,5,41,1118,
scooby_state_4036af|32|-10 1007,8,4,5,3,6,4,5,8,4,0,4,21,10,26,1115,
scooby_state_4036af|42|-15 981,4,4,9,11,7,6,12,9,8,8,12,11,16,12,1110,
scooby_state_4036af|2|-6 966,5,2,4,5,4,3,3,1,6,1,2,59,30,16,1107,
scooby_state_4036af|44|-3 1018,1,1,0,0,0,0,0,0,1,0,0,66,14,2,1103,
scooby_state_4036af|8|-8 974,5,8,9,3,4,7,2,4,7,10,6,21,20,20,1100,
scooby_state_4036af|42|-3 972,1,0,1,2,0,0,0,0,0,0,0,97,21,2,1096,
scooby_state_4036af|35|-12 971,9,13,6,14,5,7,8,8,6,9,10,10,10,10,1096,
scooby_state_4036af|49|-5 983,5,3,9,3,6,2,5,5,6,6,6,28,17,9,1093,
scooby_state_4036af|32|-15 944,9,6,4,6,14,8,8,13,14,8,8,14,11,12,1079,
scooby_state_4036af|26|-7 970,2,7,7,3,3,5,7,6,3,5,5,17,22,7,1069,
scooby_state_4036af|31|-1 928,4,3,5,7,3,1,3,4,3,2,1,38,50,17,1069,
scooby_state_4036af|40|-11 951,5,5,6,4,6,13,10,7,6,5,7,22,9,13,1069,
scooby_state_4036af|40|-9 954,7,9,6,9,6,7,3,9,7,9,9,5,13,12,1065,
scooby_state_4036af|33|-12 953,9,4,4,6,7,9,11,8,9,7,9,8,8,11,1063,
scooby_state_4036af|28|-19 945,6,3,10,8,8,12,8,7,17,7,8,7,7,9,1062,
scooby_state_4036af|11|-18 885,15,13,9,12,11,17,12,12,12,10,9,13,6,20,1056,
scooby_state_4036af|1|-10 931,7,5,4,3,14,7,3,6,6,2,7,22,13,19,1049,
scooby_state_4036af|24|-7 940,6,6,1,8,10,5,6,2,7,6,5,10,26,9,1047,
scooby_state_4036af|12|-29 905,0,10,8,9,11,11,9,9,25,12,6,12,11,9,1047,
scooby_state_4036af|1|-7 940,1,1,0,1,1,2,0,0,1,0,5,20,73,0,1045,
scooby_state_4036af|13|-4 944,6,7,5,3,3,4,6,2,1,4,19,16,16,4,1040,
scooby_state_4036af|6|-20 928,8,8,6,7,5,9,6,7,8,6,10,8,11,12,1039,
scooby_state_4036af|27|-11 935,9,8,5,8,10,8,10,4,6,4,6,11,8,6,1038,
scooby_state_4036af|9|-5 927,0,2,0,1,0,0,0,0,2,0,0,85,16,2,1035,
scooby_state_4036af|22|-5 917,0,0,1,0,0,0,0,0,0,0,0,103,13,0,1034,
scooby_state_4036af|23|-8 893,7,9,6,12,9,8,4,5,10,5,10,12,18,25,1033,
scooby_state_4036af|14|-9 898,7,7,9,16,6,8,8,2,6,12,10,9,12,18,1028,
scooby_state_4036af|11|-6 928,3,3,8,1,3,1,3,4,5,3,4,34,19,9,1028,
scooby_state_4036af|21|-3 922,3,11,9,0,4,6,6,5,2,1,7,24,15,13,1028,
scooby_state_4036af|47|-5 938,0,0,0,0,0,0,0,0,0,0,1,82,4,2,1027,
scooby_state_4036af|0|-10 912,0,0,0,0,1,0,0,0,0,0,1,78,35,0,1027,
scooby_state_4036af|29|-7 915,5,4,6,9,7,6,7,9,8,9,4,13,14,3,1019,
scooby_state_4036af|25|-5 909,1,0,0,1,1,1,0,0,0,1,1,87,10,2,1014,
scooby_state_4036af|0|-30 914,8,6,6,8,5,8,4,6,5,19,5,4,7,9,1014,
scooby_state_4036af|4|-8 891,3,8,8,6,10,13,8,13,6,9,8,8,8,14,1013,
scooby_state_4036af|1|-6 880,12,10,5,13,7,5,9,11,10,4,6,17,11,12,1012,
scooby_state_4036af|19|0 877,4,5,6,5,5,1,3,5,1,0,4,10,7,79,1012,
scooby_state_4036af|12|-6 924,3,0,4,3,3,5,2,1,8,1,1,37,12,8,1012,
scooby_state_4036af|8|0 905,3,0,2,0,0,0,0,0,0,1,1,51,4,42,1009,
scooby_state_4036af|2|-7 884,7,5,7,5,8,6,3,3,4,10,12,22,28,4,1008,
scooby_state_4036af|1|-2 889,0,0,0,0,1,0,0,0,0,0,0,2,116,0,1008,
scooby_state_4036af|15|-11 903,6,5,7,6,9,10,4,6,5,5,3,10,9,12,1000,
scooby_state_4036af|13|-14 908,8,8,9,8,4,3,12,11,4,5,3,8,3,6,1000,
scooby_state_4036af|41|-16 895,3,6,9,4,8,11,14,4,5,3,10,12,7,8,999,
scooby_state_4036af|22|-4 904,4,2,9,3,4,4,2,3,1,3,12,16,23,3,993,
scooby_state_4036af|34|-11 899,5,10,4,6,4,8,7,7,7,5,5,11,6,7,991,
scooby_state_4036af|32|0 889,0,3,0,3,3,1,2,1,0,1,2,12,7,61,985,
scooby_state_4036af|26|-4 882,4,3,10,4,4,4,2,4,1,1,13,20,25,7,984,
scooby_state_4036af|52|-4 861,1,2,3,1,4,6,3,2,2,4,18,19,32,15,973,
scooby_state_4036af|18|-8 885,0,3,0,0,0,1,0,0,1,0,1,43,34,3,971,
scooby_state_4036af|51|-11 855,9,5,10,10,7,9,10,6,4,5,6,13,8,14,971,
scooby_state_4036af|23|-5 872,1,0,0,0,1,0,0,0,0,0,0,86,8,2,970,
scooby_state_4036af|1|-40 839,9,9,9,9,10,10,10,9,10,9,9,6,7,13,968,
scooby_state_4036af|2|-8 861,0,0,0,0,1,1,0,0,0,0,1,57,44,1,966,
scooby_state_4036af|6|-18 857,7,5,5,7,10,8,4,4,9,1,9,18,5,13,962,
scooby_state_4036af|9|-11 846,7,5,9,7,8,15,10,5,4,7,6,16,6,10,961,
scooby_state_4036af|36|-7 865,2,4,4,4,5,3,3,4,2,0,3,21,37,4,961,
scooby_state_4036af|12|-3 863,5,8,3,3,7,4,4,5,4,7,4,15,13,12,957,
scooby_state_4036af|30|-5 860,0,0,0,0,0,0,0,0,1,0,0,87,8,1,957,
scooby_state_4036af|7|-13 848,5,6,7,10,9,7,5,6,0,4,10,7,8,22,954,
scooby_state_4036af|0|-15 815,8,10,7,9,9,8,6,9,6,9,8,9,11,20,944,
scooby_state_4036af|16|-10 833,4,4,7,8,11,2,7,3,6,5,7,16,6,23,942,
scooby_state_4036af|18|-4 854,1,2,4,4,3,0,2,1,5,6,16,16,23,4,941,
scooby_state_4036af|16|-13 814,9,6,8,6,5,4,4,6,5,4,11,36,11,11,940,
scooby_state_4036af|14|-18 838,4,6,3,7,5,4,4,9,8,7,7,13,7,17,939,
scooby_state_4036af|6|-16 845,10,8,5,7,3,9,11,2,6,4,5,7,11,6,939,
scooby_state_4036af|2|-1 831,0,2,2,2,0,4,2,1,0,3,1,40,45,5,938,
scooby_state_4036af|28|-1 836,0,0,1,0,1,0,0,0,0,2,2,46,46,1,935,
scooby_state_4036af|28|-2 842,0,0,0,0,0,0,0,0,0,0,1,2,88,0,933,
scooby_state_4036af|4|-13 829,0,1,0,0,3,1,3,0,0,0,2,80,10,3,932,
scooby_state_4036af|39|-10 807,5,6,7,3,16,10,7,5,5,6,6,19,9,20,931,
scooby_state_4036af|57|-3 850,1,0,1,0,0,1,0,0,0,0,0,57,17,1,928,
scooby_state_4036af|16|-22 833,2,5,5,7,4,7,3,14,7,9,6,7,5,9,923,
scooby_state_4036af|3|-3 790,2,2,0,0,1,0,0,2,0,0,0,106,17,3,923,
scooby_state_4036af|23|-2 817,0,1,0,1,1,0,0,2,0,0,0,0,99,1,922,
scooby_state_4036af|43|-1 834,0,0,2,0,3,1,0,1,1,0,2,35,41,2,922,
scooby_state_4036af|49|-3 811,4,4,1,1,2,1,2,1,1,1,4,54,31,4,922,
scooby_state_4036af|21|-5 840,0,0,0,0,0,0,0,0,1,0,0,67,11,2,921,
scooby_state_4036af|45|-5 813,4,3,0,2,1,4,1,2,2,0,5,61,15,6,919,
scooby_state_4036af|51|-1 827,0,0,0,1,2,2,0,1,0,0,0,44,41,0,918,
scooby_state_4036af|36|-15 817,6,6,9,6,3,3,8,4,5,8,10,12,11,10,918,
scooby_state_4036af|37|-1 825,0,0,1,0,4,2,0,0,1,1,0,44,35,4,917,
scooby_state_4036af|35|-7 818,2,1,1,0,0,0,0,0,0,1,1,18,73,1,916,
scooby_state_4036af|17|-4 832,2,3,4,1,2,4,4,1,3,3,12,17,23,5,916,
scooby_state_4036af|56|-4 822,3,1,2,1,5,4,4,3,4,3,15,17,24,7,915,
scooby_state_4036af|55|-2 836,0,0,0,0,0,1,0,0,0,0,0,0,77,0,914,
scooby_state_4036af|23|-4 820,2,2,7,3,5,1,2,2,4,3,19,15,19,7,911,
scooby_state_4036af|38|-2 721,84,3,4,5,3,5,2,4,3,4,2,3,59,7,909,
scooby_state_4036af|0|-5 787,8,4,5,1,3,1,2,0,1,2,3,58,15,19,909,
scooby_state_4036af|41|-6 819,2,4,3,2,6,1,2,2,1,2,2,31,23,7,907,
scooby_state_4036af|47|-1 807,2,1,0,3,1,1,1,1,1,1,0,35,47,4,905,
scooby_state_4036af|14|-4 804,1,4,8,3,9,1,5,1,2,4,10,19,28,6,905,
scooby_state_4036af|38|-8 792,6,6,5,4,7,8,7,5,7,4,7,13,16,18,905,
scooby_state_4036af|24|-14 837,4,2,7,5,2,7,3,4,5,9,5,5,4,5,904,
scooby_state_4036af|52|-3 810,1,0,1,0,1,0,0,2,1,1,0,72,14,1,904,
scooby_state_4036af|55|-1 802,1,3,1,1,1,1,1,1,0,1,2,38,45,3,901,
scooby_state_4036af|31|-23 800,2,7,8,5,7,4,5,8,7,5,11,9,10,10,898,
scooby_state_4036af|39|-1 804,1,1,1,0,0,1,0,0,0,0,3,38,45,3,897,
scooby_state_4036af|36|-21 820,5,4,8,6,4,5,5,6,5,5,4,7,7,3,894,
scooby_state_4036af|12|-1 791,1,3,2,1,1,1,0,0,1,0,3,47,35,2,888,
scooby_state_4036af|26|-1 795,1,2,0,3,4,2,0,1,2,1,1,29,41,5,887,
scooby_state_4036af|23|-1 806,0,1,1,1,1,0,1,0,0,1,2,29,40,4,887,
scooby_state_4036af|30|-10 727,7,9,6,8,26,6,5,5,5,8,7,45,10,9,883,
scooby_state_4036af|45|-2 788,0,0,0,0,0,0,0,1,0,0,0,0,91,0,880,
scooby_state_4036af|41|-9 778,4,6,6,12,7,8,4,7,5,4,6,9,9,11,876,
scooby_state_4036af|21|-4 768,6,5,5,4,6,1,4,1,3,1,17,16,26,9,872,
scooby_state_4036af|32|-5 750,2,2,2,3,3,4,2,2,1,2,3,70,18,3,867,
scooby_state_4036af|45|-13 779,4,6,7,5,4,6,7,3,6,6,3,8,9,11,864,
scooby_state_4036af|46|-13 740,12,6,11,5,7,8,8,7,7,2,12,4,9,26,864,
scooby_state_4036af|5|-3 769,1,1,1,2,0,1,0,1,0,0,0,67,14,3,860,
scooby_state_4036af|16|-1 770,0,0,0,0,0,2,1,0,1,0,0,41,40,2,857,
scooby_state_4036af|31|-8 771,0,1,2,1,0,0,0,0,0,0,1,33,44,3,856,
scooby_state_4036af|26|0 742,2,5,2,1,0,2,1,1,2,2,0,32,3,61,856,
scooby_state_4036af|34|-7 769,1,0,1,1,0,1,2,0,1,0,0,13,59,0,848,
scooby_state_4036af|56|-3 744,2,0,1,1,0,1,0,1,2,0,0,73,15,4,844,
scooby_state_4036af|18|-5 741,4,0,0,0,0,1,0,1,0,1,0,70,19,1,838,
scooby_state_4036af|36|-4 758,2,0,7,7,5,3,2,2,2,3,11,14,18,4,838,
scooby_state_4036af|1|-3 728,1,0,0,1,1,0,1,0,0,0,0,91,14,0,837,
scooby_state_4036af|24|-1 754,1,0,1,2,1,1,1,0,0,1,1,30,40,2,835,
scooby_state_4036af|36|-2 708,20,4,3,3,3,3,3,3,2,3,3,3,68,2,831,
scooby_state_4036af|17|0 737,0,1,1,1,0,3,0,1,0,2,1,3,6,74,830,
scooby_state_4036af|15|-18 703,5,6,8,9,9,10,9,1,7,10,7,19,8,12,823,
scooby_state_4036af|33|-8 736,5,6,8,2,6,3,5,3,1,4,6,12,14,11,822,
scooby_state_4036af|18|-7 716,4,6,4,5,5,8,8,3,4,7,10,5,27,7,819,
scooby_state_4036af|4|-5 703,3,6,4,1,4,6,2,3,5,1,2,48,22,7,817,
scooby_state_4036af|47|-8 708,4,3,10,3,9,4,7,5,5,5,4,17,18,13,815,
scooby_state_4036af|52|-11 704,8,2,7,11,4,5,8,4,3,4,5,16,9,13,803,
scooby_state_4036af|2|-3 721,0,1,0,0,0,0,0,0,0,1,0,59,13,4,799,
scooby_state_4036af|30|-26 650,6,8,11,16,11,10,11,12,7,9,9,11,11,13,795,
scooby_state_4036af|29|-4 671,12,7,17,8,3,7,4,6,6,4,14,18,14,4,795,
scooby_state_4036af|29|-1 657,6,8,10,4,4,6,6,4,7,5,6,38,25,7,793,
scooby_state_4036af|13|0 691,4,4,3,5,3,5,2,4,4,2,2,11,8,43,791,
scooby_state_4036af|4|-10 686,7,3,7,4,11,3,5,1,5,4,3,10,8,27,784,
scooby_state_4036af|37|-14 682,4,9,6,7,7,6,5,7,5,2,3,17,9,7,776,
scooby_state_4036af|12|-15 670,7,5,10,7,8,14,2,7,8,9,4,9,6,7,773,
scooby_state_4036af|22|-39 620,10,11,14,9,9,10,14,10,11,12,7,11,11,13,772,
scooby_state_4036af|3|-12 668,5,8,6,8,6,8,7,5,4,4,7,8,5,13,762,
scooby_state_4036af|9|0 672,3,3,1,0,2,1,7,2,2,3,7,5,6,45,759,
scooby_state_4036af|14|-1 704,0,2,0,1,1,1,1,0,0,0,1,20,27,1,759,
scooby_state_4036af|27|-5 680,1,1,0,0,0,0,0,0,0,0,0,58,12,1,753,
scooby_state_4036af|40|-1 680,2,4,0,0,1,3,1,1,1,2,1,24,26,4,750,
scooby_state_4036af|7|-32 681,4,3,5,5,7,4,5,4,8,5,4,4,4,4,747,
scooby_state_4036af|1|-5 656,7,0,0,0,0,1,1,0,1,1,2,59,14,3,745,
scooby_state_4036af|13|-5 656,0,1,0,1,0,0,0,1,0,0,0,69,11,4,743,
scooby_state_4036af|38|-3 666,0,1,1,0,1,0,1,1,0,1,0,48,19,1,740,
scooby_state_4036af|27|-4 649,6,5,9,3,3,3,3,2,4,3,16,7,14,13,740,
scooby_state_4036af|6|-7 656,2,0,0,0,0,0,0,0,0,2,2,12,61,4,739,
scooby_state_4036af|35|-8 638,1,0,1,0,1,0,0,0,1,0,1,56,32,4,735,
scooby_state_4036af|0|-14 634,4,8,5,6,10,8,4,11,7,7,4,6,7,13,734,
scooby_state_4036af|29|-10 622,4,4,1,4,7,2,4,1,2,6,7,30,26,14,734,
scooby_state_4036af|36|0 652,2,5,1,1,4,0,1,1,2,0,4,1,11,46,731,
scooby_state_4036af|14|-2 647,0,0,0,0,0,0,0,0,0,0,0,0,77,1,725,
scooby_state_4036af|53|-5 640,0,1,0,0,0,0,0,0,0,0,0,72,6,3,722,
scooby_state_4036af|33|-4 637,4,2,13,2,7,3,3,6,2,5,9,3,16,9,721,
scooby_state_4036af|43|-7 612,3,6,2,3,5,1,2,2,5,1,2,14,51,4,713,
scooby_state_4036af|47|-11 609,5,7,5,7,8,14,5,8,6,2,7,17,4,9,713,
scooby_state_4036af|31|0 653,2,1,2,2,1,0,1,0,0,3,3,10,1,33,712,
scooby_state_4036af|25|0 686,0,0,1,3,0,1,0,0,0,0,0,1,5,15,712,
scooby_state_4036af|53|-10 655,0,0,1,0,2,0,1,2,0,1,0,32,16,0,710,
scooby_state_4036af|15|-10 628,5,3,4,6,11,6,2,5,3,4,6,6,9,11,709,
scooby_state_4036af|29|-22 383,10,9,7,12,6,9,165,36,9,10,12,9,9,13,699,
scooby_state_4036af|16|-4 625,1,1,4,6,3,2,3,1,4,1,13,14,18,3,699,
scooby_state_4036af|7|-1 626,0,0,1,1,0,1,0,0,1,2,1,28,32,3,696,
scooby_state_4036af|40|-3 632,1,2,1,2,2,1,1,0,2,0,1,31,16,3,695,
scooby_state_4036af|43|-5 574,4,3,4,2,2,5,0,2,1,5,2,64,13,7,688,
scooby_state_4036af|25|-8 584,3,2,4,2,5,2,3,3,1,2,5,30,31,8,685,
scooby_state_4036af|53|-3 610,0,2,1,2,0,0,0,1,0,1,2,53,8,2,682,
scooby_state_4036af|50|-4 606,2,3,3,2,4,4,3,2,1,2,8,19,16,7,682,
scooby_state_4036af|11|-16 581,6,4,3,8,8,7,4,8,9,9,3,9,7,9,675,
scooby_state_4036af|12|0 587,3,3,1,4,0,0,2,3,2,1,1,1,3,63,674,
scooby_state_4036af|26|-26 601,2,2,4,8,3,4,4,5,4,5,3,4,9,8,666,
scooby_state_4036af|19|-7 588,1,0,2,0,0,0,1,0,0,0,1,23,47,0,663,
scooby_state_4036af|6|0 590,1,4,4,3,2,2,1,2,2,2,4,3,4,36,660,
scooby_state_4036af|8|-30 563,8,4,8,4,6,5,10,4,10,11,9,4,3,9,658,
scooby_state_4036af|18|0 573,5,3,6,2,2,4,1,1,5,2,3,4,0,47,658,
scooby_state_4036af|44|-8 587,0,1,0,0,0,0,0,0,0,1,0,34,31,2,656,
scooby_state_4036af|18|-10 582,3,10,6,5,12,3,3,2,2,2,3,6,6,10,655,
scooby_state_4036af|24|-3 577,0,0,0,0,0,0,1,0,1,0,0,52,12,1,644,
scooby_state_4036af|20|-29 570,0,3,7,2,3,5,6,8,15,5,5,4,3,7,643,
scooby_state_4036af|38|-16 570,3,7,6,3,8,4,4,8,6,2,4,7,6,5,643,
scooby_state_4036af|23|-3 553,0,0,0,0,0,0,0,0,1,0,1,75,7,1,638,
scooby_state_4036af|17|-8 552,5,5,4,2,2,2,4,2,1,2,4,18,23,11,637,
scooby_state_4036af|51|-8 554,0,0,1,1,0,0,1,0,1,0,1,28,36,1,624,
scooby_state_4036af|20|-3 545,1,0,0,1,0,0,0,0,1,0,0,57,14,0,619,
scooby_state_4036af|10|-6 570,0,0,2,1,1,2,1,1,1,0,0,15,17,6,617,
scooby_state_4036af|15|-5 535,0,0,0,0,0,0,0,0,0,0,0,64,11,2,612,
scooby_state_4036af|48|-6 537,2,1,3,3,1,4,3,4,1,3,2,24,14,7,609,
scooby_state_4036af|22|-6 538,0,2,4,1,1,0,3,2,3,1,2,28,18,4,607,
scooby_state_4036af|32|-1 514,0,3,2,2,0,0,0,1,0,0,1,28,43,5,599,
scooby_state_4036af|39|-19 528,3,8,5,3,5,4,4,5,6,5,7,4,2,10,599,
scooby_state_4036af|42|-4 539,1,0,6,6,2,4,2,1,3,1,8,7,10,8,598,
scooby_state_4036af|28|-4 516,1,3,0,4,1,3,2,2,1,3,17,21,13,9,596,
scooby_state_4036af|10|-36 523,3,5,4,2,5,4,4,3,2,5,9,5,4,18,596,
scooby_state_4036af|33|-1 524,0,1,1,0,1,1,1,0,1,0,2,25,33,4,594,
scooby_state_4036af|1|0 517,1,3,0,0,1,1,0,0,4,0,3,3,1,55,589,
scooby_state_4036af|14|-26 429,15,13,12,9,11,13,10,8,12,10,11,10,10,14,587,
scooby_state_4036af|13|-10 528,1,0,0,0,0,0,0,0,0,1,0,39,18,0,587,
scooby_state_4036af|18|-6 531,0,2,2,1,3,1,2,1,1,2,0,18,19,4,587,
scooby_state_4036af|43|-18 519,7,2,7,3,3,5,6,3,2,4,4,5,5,10,585,
scooby_state_4036af|18|-23 514,6,3,4,5,6,5,7,4,4,5,4,9,4,5,585,
scooby_state_4036af|16|0 524,2,2,0,0,0,1,2,0,0,1,1,1,2,45,581,
scooby_state_4036af|3|-4 526,1,0,6,0,3,1,1,3,2,2,11,7,18,0,581,
scooby_state_4036af|30|-6 500,0,5,3,3,5,5,3,2,3,5,2,21,13,6,576,
scooby_state_4036af|21|0 509,2,2,1,1,5,2,1,2,2,1,3,2,4,37,574,
scooby_state_4036af|1|-13 503,0,0,0,0,0,1,0,0,0,1,2,61,2,3,573,
scooby_state_4036af|40|-6 512,2,2,3,0,1,0,1,3,2,2,1,20,12,9,570,
scooby_state_4036af|48|-8 482,4,6,4,2,5,6,3,6,3,6,3,9,19,10,568,
scooby_state_4036af|7|-6 505,1,4,2,2,1,0,5,0,2,0,2,23,18,2,567,
scooby_state_4036af|29|-13 504,3,3,3,1,1,5,2,5,2,1,4,19,7,6,566,
scooby_state_4036af|49|-4 497,3,3,9,7,2,2,3,0,2,0,10,8,18,0,564,
scooby_state_4036af|52|-10 504,0,0,0,0,0,1,0,0,0,0,0,33,21,0,559,
scooby_state_4036af|51|-12 499,4,2,1,8,3,2,3,2,0,4,10,8,5,5,556,
scooby_state_4036af|12|-4 491,1,1,5,2,2,3,2,2,2,0,11,13,14,4,553,
scooby_state_4036af|55|-7 509,0,0,0,0,1,0,1,0,0,2,0,11,28,1,553,
scooby_state_4036af|35|-4 466,2,3,7,3,4,3,5,6,4,2,3,8,24,10,550,
scooby_state_4036af|34|-2 478,0,1,0,0,0,0,1,0,0,0,0,0,66,0,546,
scooby_state_4036af|50|-6 421,5,11,9,6,10,7,6,8,5,4,9,17,14,8,540,
scooby_state_4036af|40|-4 469,2,1,8,2,3,5,1,3,3,1,10,13,12,5,538,
scooby_state_4036af|5|-2 477,0,0,0,0,0,0,1,0,0,0,0,0,58,0,536,
scooby_state_4036af|41|-11 474,3,2,3,3,3,7,6,2,2,4,1,13,3,8,534,
scooby_state_4036af|32|-4 469,2,1,6,4,1,0,5,2,3,3,6,10,14,3,529,
scooby_state_4036af|20|-37 314,13,15,15,16,15,13,16,16,14,14,14,15,20,17,527,
scooby_state_4036af|13|-8 447,5,4,4,4,4,3,4,4,2,2,4,14,19,5,525,
scooby_state_4036af|53|-7 466,1,0,1,1,1,1,0,0,0,0,1,7,45,0,524,
scooby_state_4036af|19|-1 459,2,1,0,2,1,0,1,1,0,0,1,18,33,3,522,
scooby_state_4036af|31|-26 451,1,0,6,4,3,5,7,4,8,4,7,8,6,4,518,
scooby_state_4036af|20|-7 448,1,1,0,1,0,0,0,0,0,0,0,16,48,2,517,
scooby_state_4036af|0|-1 444,1,0,1,1,0,0,0,0,0,1,1,32,34,2,517,
scooby_state_4036af|58|-1 467,0,1,0,0,2,0,1,0,0,0,1,21,22,1,516,
scooby_state_4036af|12|-10 459,0,0,0,0,0,0,1,1,0,0,0,35,18,1,515,
scooby_state_4036af|42|-5 445,1,0,0,0,0,1,1,0,0,0,0,60,6,1,515,
scooby_state_4036af|8|-7 459,1,0,2,0,0,1,0,0,0,1,0,17,31,2,514,
scooby_state_4036af|9|-10 426,5,4,2,2,9,3,4,4,2,4,6,19,12,11,513,
scooby_state_4036af|9|-7 463,0,0,0,0,0,0,0,1,0,1,0,13,34,1,513,
scooby_state_4036af|19|-4 455,0,2,5,2,1,3,3,1,1,2,6,9,18,4,512,
scooby_state_4036af|21|-10 448,2,1,1,2,5,2,2,5,2,1,1,20,11,8,511,
scooby_state_4036af|62|-1 469,0,0,0,0,1,1,0,0,0,0,1,20,14,2,508,
scooby_state_4036af|51|-4 469,2,2,0,1,0,1,1,2,1,1,7,9,10,1,507,
scooby_state_4036af|44|-7 457,1,0,0,0,0,0,0,0,0,0,1,9,38,0,506,
scooby_state_4036af|18|-11 390,10,3,5,4,5,32,8,6,4,7,6,15,5,5,505,
scooby_state_4036af|59|-1 451,1,0,1,1,1,0,1,0,0,0,0,18,30,1,505,
scooby_state_4036af|30|-2 446,1,0,0,0,0,0,1,3,0,1,1,2,47,0,502,
scooby_state_4036af|49|-7 460,1,0,0,1,1,0,0,2,1,0,1,7,27,1,502,
scooby_state_4036af|8|-15 439,3,1,1,3,2,3,1,4,3,1,4,7,25,4,501,
scooby_state_4036af|41|-2 438,0,0,0,0,0,0,0,0,0,0,0,0,62,0,500,
scooby_state_4036af|24|0 437,0,0,0,0,2,3,2,2,2,1,0,10,1,40,500,
scooby_state_4036af|11|-4 449,0,4,1,1,3,2,5,2,1,2,8,8,11,2,499,
scooby_state_4036af|51|-7 459,0,0,0,0,0,0,0,0,0,0,1,5,34,0,499,
scooby_state_4036af|19|-14 452,4,2,2,3,5,3,1,1,0,3,4,11,2,4,497,
scooby_state_4036af|46|-1 443,1,1,0,3,2,0,1,0,0,1,0,16,23,2,493,
scooby_state_4036af|20|-11 337,7,7,8,12,9,39,7,7,6,9,7,16,13,7,491,
scooby_state_4036af|48|-13 444,0,0,0,0,0,0,0,0,0,0,0,35,9,2,490,
scooby_state_4036af|31|-9 429,7,5,3,3,6,5,1,3,3,4,3,3,5,8,488,
scooby_state_4036af|43|-16 447,5,1,4,5,2,3,3,2,0,2,4,2,2,3,485,
scooby_state_4036af|44|-18 427,3,2,3,6,2,3,6,5,3,2,1,9,3,6,481,
scooby_state_4036af|46|-11 434,4,2,3,1,2,7,1,0,1,1,2,11,8,3,480,
scooby_state_4036af|22|-8 452,0,0,2,0,2,0,0,2,0,1,0,10,7,1,477,
scooby_state_4036af|39|-23 424,3,4,2,3,2,4,1,2,0,1,3,13,5,9,476,
scooby_state_4036af|11|-5 418,0,0,0,0,2,0,0,0,0,0,0,45,9,0,474,
scooby_state_4036af|8|-13 429,0,1,0,0,0,0,0,0,0,0,0,37,4,0,471,
scooby_state_4036af|12|-9 413,4,2,4,6,5,4,1,4,4,1,5,6,8,4,471,
scooby_state_4036af|18|-15 419,0,0,1,2,0,1,1,0,0,0,0,3,41,3,471,
scooby_state_4036af|3|-7 414,0,0,0,0,0,1,0,0,0,0,1,17,37,1,471,
scooby_state_4036af|44|-1 430,0,0,2,0,0,0,0,0,0,0,0,15,19,3,469,
scooby_state_4036af|10|-7 409,0,0,2,1,1,0,0,0,0,0,1,12,40,2,468,
scooby_state_4036af|4|-30 421,2,5,3,4,3,4,5,5,3,3,3,0,0,7,468,
scooby_state_4036af|50|-7 431,0,0,0,0,0,0,0,0,0,1,0,13,23,0,468,
scooby_state_4036af|50|-13 409,3,3,6,5,2,3,1,3,3,2,1,11,11,4,467,
scooby_state_4036af|1|-4 413,1,1,4,3,1,1,1,5,1,2,9,5,15,1,463,
scooby_state_4036af|5|-5 407,1,0,0,0,0,1,0,0,0,0,0,43,9,2,463,
scooby_state_4036af|28|-9 424,0,1,4,7,2,3,2,1,1,5,1,1,7,4,463,
scooby_state_4036af|49|-11 402,6,6,1,5,1,8,3,2,3,6,3,7,4,5,462,
scooby_state_4036af|39|-11 413,3,1,5,3,3,3,3,3,0,1,1,12,4,5,460,
scooby_state_4036af|5|-10 390,2,2,2,5,6,1,1,2,3,2,2,13,12,17,460,
scooby_state_4036af|27|-1 413,0,0,2,1,0,2,0,1,0,0,0,16,21,3,459,
scooby_state_4036af|36|-1 413,1,1,1,0,0,3,1,0,2,2,0,17,17,1,459,
scooby_state_4036af|14|-19 402,4,5,1,4,3,1,5,4,7,3,3,4,4,8,458,
scooby_state_4036af|26|-37 394,5,8,6,1,4,3,4,4,4,6,1,5,3,9,457,
scooby_state_4036af|22|-17 421,1,3,2,3,3,2,7,1,1,4,2,2,1,1,454,
scooby_state_4036af|12|-5 404,2,1,1,0,0,2,0,0,1,0,0,22,13,4,450,
scooby_state_4036af|33|-9 398,3,6,1,5,1,3,1,2,3,1,6,8,8,4,450,
scooby_state_4036af|23|-11 391,2,7,5,2,0,5,5,4,4,3,0,8,5,4,445,
scooby_state_4036af|1|-52 397,2,3,5,2,3,4,5,4,4,2,4,3,3,4,445,
scooby_state_4036af|25|-13 376,2,3,7,4,5,4,5,5,4,3,5,9,6,5,443,
scooby_state_4036af|33|-15 368,6,5,9,2,4,7,7,2,3,3,5,8,5,7,441,
scooby_state_4036af|24|-5 380,0,0,0,0,0,0,0,0,1,1,1,46,12,0,441,
scooby_state_4036af|33|-7 361,2,2,4,7,5,2,6,4,7,4,4,6,21,5,440,
scooby_state_4036af|4|-1 391,1,0,0,1,0,0,0,1,0,0,0,18,23,2,437,
scooby_state_4036af|4|-11 378,6,5,0,6,1,6,2,4,7,4,2,8,5,2,436,
scooby_state_4036af|21|-7 405,1,1,0,0,0,1,0,0,0,0,0,8,19,1,436,
scooby_state_4036af|39|-6 397,1,1,1,0,0,1,1,1,4,0,3,10,14,2,436,
scooby_state_4036af|41|-7 365,3,4,2,0,2,4,1,1,1,2,1,11,32,2,431,
scooby_state_4036af|20|-24 392,2,2,1,4,2,2,2,6,0,3,4,2,2,6,430,
scooby_state_4036af|21|-11 366,3,3,4,4,1,10,4,5,5,4,3,7,3,5,427,
scooby_state_4036af|39|-15 374,2,0,1,0,1,2,0,0,0,0,2,1,34,8,425,
scooby_state_4036af|46|-4 384,2,4,2,3,2,2,1,0,1,1,3,9,8,2,424,
scooby_state_4036af|53|-6 378,3,2,2,0,4,3,2,1,4,1,0,13,8,2,423,
scooby_state_4036af|7|0 366,0,1,0,3,0,0,0,0,0,0,0,3,1,46,420,
scooby_state_4036af|4|0 379,0,1,1,1,1,2,0,0,1,0,0,6,7,14,413,
scooby_state_4036af|39|-12 355,7,5,8,4,7,0,4,3,3,1,3,3,2,7,412,
scooby_state_4036af|36|-8 373,1,0,1,2,1,0,1,0,1,0,1,8,18,3,410,
scooby_state_4036af|45|-8 363,0,0,0,0,0,0,0,0,0,0,1,14,19,2,399,
scooby_state_4036af|32|-16 369,1,1,1,1,1,3,1,2,1,3,2,5,4,4,399,
scooby_state_4036af|46|-9 342,3,2,3,7,5,4,8,3,2,1,3,3,6,6,398,
scooby_state_4036af|19|-18 345,2,6,6,4,4,3,1,4,2,3,4,2,4,5,395,
scooby_state_4036af|30|-8 353,1,2,1,0,2,3,2,2,2,1,1,11,9,4,394,
scooby_state_4036af|56|-7 279,6,9,4,7,6,7,7,8,6,6,8,9,19,12,393,
scooby_state_4036af|14|-32 360,3,2,2,2,2,3,2,2,1,2,3,3,2,2,391,
scooby_state_4036af|22|-41 146,19,17,16,16,17,16,17,17,16,17,17,25,15,19,390,
scooby_state_4036af|27|-21 281,3,8,4,5,3,6,53,4,3,2,4,8,3,2,389,
scooby_state_4036af|9|-9 332,2,4,2,3,4,3,4,5,10,3,1,2,5,6,386,
scooby_state_4036af|19|-5 342,2,0,0,1,0,0,0,0,0,0,0,22,15,2,384,
scooby_state_4036af|7|-4 334,3,0,2,3,1,2,1,2,1,1,13,8,7,3,381,
scooby_state_4036af|53|-8 351,0,1,0,0,0,0,2,0,0,1,0,11,13,0,379,
scooby_state_4036af|36|-9 349,2,0,3,4,1,3,3,0,2,2,1,3,3,3,379,
scooby_state_4036af|28|-8 336,6,3,2,2,4,3,2,1,2,1,3,4,4,2,375,
scooby_state_4036af|39|2 259,6,3,4,7,4,11,5,3,4,7,27,19,6,9,374,
scooby_state_4036af|26|-12 332,1,6,2,1,1,3,2,0,1,1,12,3,3,5,373,
scooby_state_4036af|19|-8 321,3,0,0,1,0,4,2,4,2,1,1,16,15,2,372,
scooby_state_4036af|11|2 258,10,9,0,6,4,8,2,5,4,5,20,27,6,8,372,
scooby_state_4036af|14|-28 332,4,1,1,3,3,0,0,2,2,1,3,8,5,5,370,
scooby_state_4036af|19|-13 331,0,1,0,0,0,0,0,0,0,1,0,31,3,2,369,
scooby_state_4036af|16|-5 306,0,2,2,2,3,2,2,2,1,2,3,32,8,2,369,
scooby_state_4036af|40|-16 275,7,4,10,6,3,5,9,6,7,4,3,9,7,12,367,
scooby_state_4036af|13|-13 316,4,2,2,3,4,3,1,1,2,2,2,10,11,3,366,
scooby_state_4036af|36|-26 298,4,7,3,1,4,7,2,5,3,3,6,3,9,5,360,
scooby_state_4036af|0|-22 160,6,5,7,8,6,6,8,113,8,6,5,7,7,7,359,
scooby_state_4036af|34|5 219,16,9,7,8,13,7,10,9,10,5,6,10,13,16,358,
scooby_state_4036af|34|-15 299,6,2,2,3,1,1,3,2,3,3,5,9,5,6,350,
scooby_state_4036af|9|2 260,5,4,2,2,2,5,12,4,1,1,17,23,4,7,349,
scooby_state_4036af|18|-24 303,4,5,1,2,4,6,3,0,4,1,6,5,4,0,348,
scooby_state_4036af|21|-15 273,4,6,4,4,4,6,8,4,4,5,5,3,11,7,348,
scooby_state_4036af|34|-17 290,3,3,5,5,5,4,5,4,4,2,4,4,5,4,347,
scooby_state_4036af|13|2 233,7,4,5,6,5,6,6,4,9,5,23,18,6,9,346,
scooby_state_4036af|16|-29 241,5,7,6,7,5,5,4,5,32,4,7,7,3,7,345,
scooby_state_4036af|9|-13 286,2,1,0,3,3,3,2,1,1,0,3,26,7,6,344,
scooby_state_4036af|3|-15 290,1,5,6,5,0,4,4,2,3,4,2,4,10,4,344,
scooby_state_4036af|5|0 317,0,1,0,0,0,2,1,0,0,1,0,1,1,20,344,
scooby_state_4036b7|0|0 254,70,1,2,1,1,3,2,0,1,3,0,1,1,3,343,
scooby_state_4036af|2|-27 174,13,11,11,13,11,13,12,12,13,10,12,11,9,16,341,
scooby_state_4036af|13|-16 302,2,4,2,4,1,0,1,4,4,2,4,3,2,4,339,
scooby_state_4036af|42|-20 288,4,3,2,4,2,4,2,3,3,3,4,8,0,6,336,
scooby_state_4036af|17|-39 287,3,2,5,6,4,3,3,5,4,2,6,3,1,2,336,
scooby_state_4036af|5|-19 293,3,3,3,3,2,5,3,3,1,4,2,3,2,4,334,
scooby_state_4036af|11|-7 313,2,0,0,0,0,1,0,0,0,0,0,7,11,0,334,
scooby_state_4036af|43|-6 287,2,4,3,3,3,3,2,3,10,1,1,3,2,6,333,
scooby_state_4036af|29|-12 215,7,6,9,8,10,8,7,7,9,8,11,10,10,7,332,
scooby_state_4036af|45|-18 285,4,5,0,1,1,3,1,3,4,3,7,10,4,0,331,
scooby_state_4036af|20|-40 46,19,22,20,20,19,20,17,21,20,21,19,20,20,27,331,
scooby_state_4036af|44|-16 202,8,5,8,12,11,8,9,8,7,9,9,8,12,12,328,
scooby_state_4036af|11|0 298,0,1,2,1,1,2,0,2,0,1,0,4,0,15,327,
scooby_state_4036af|32|3 233,2,8,3,2,9,6,4,6,3,6,2,2,33,6,325,
scooby_state_4036af|35|2 226,5,8,4,9,8,2,4,8,2,5,16,20,1,6,324,
scooby_state_4036af|6|2 223,6,5,8,5,2,5,5,3,7,4,13,18,8,11,323,
scooby_state_4036af|59|2 191,3,7,8,8,7,5,9,9,3,8,37,14,6,8,323,
scooby_state_4036af|29|8 214,7,6,9,6,12,9,5,4,6,3,5,10,7,19,322,
scooby_state_4036af|23|-12 281,1,2,2,5,1,0,3,1,4,2,4,8,4,1,319,
scooby_state_4036af|32|-29 275,0,5,3,2,3,3,3,2,5,4,3,5,2,3,318,
scooby_state_4036af|32|-8 272,4,2,2,3,1,1,2,1,2,2,4,8,10,3,317,
scooby_state_4036af|5|-34 271,5,3,4,2,2,3,1,2,2,3,4,4,2,6,314,
scooby_state_4036af|39|-8 274,1,0,0,1,0,0,0,1,1,0,0,18,17,0,313,
scooby_state_4036af|29|2 212,11,10,6,3,4,6,4,6,6,6,9,18,2,8,311,
scooby_state_4036af|3|-24 247,8,4,3,5,6,4,4,4,3,5,4,4,5,5,311,
scooby_state_4036af|0|-8 271,0,1,0,0,1,1,0,0,0,1,0,16,16,1,308,
scooby_state_4036af|31|-25 272,2,1,2,2,1,4,2,2,4,1,5,3,4,3,308,
scooby_state_4036af|28|-23 262,2,6,1,1,5,3,4,1,3,2,7,4,1,5,307,
scooby_state_4036af|22|-13 265,1,3,0,3,3,1,1,0,3,0,1,13,5,7,306,
scooby_state_4036af|54|-4 270,1,1,3,1,2,2,2,2,0,3,9,4,3,3,306,
scooby_state_4036af|45|-11 263,2,1,4,0,3,4,1,4,3,4,2,4,7,3,305,
scooby_state_4036af|3|-60 103,1,0,1,0,0,0,0,0,0,0,1,195,1,3,305,
scooby_state_4036af|0|-16 220,7,6,6,6,7,6,5,4,7,6,6,6,3,7,302,
scooby_state_4036af|2|-29 129,8,6,8,10,8,11,9,4,74,7,6,8,5,9,302,
scooby_state_4036af|26|-8 245,5,2,5,3,2,2,5,2,2,3,3,5,3,14,301,
scooby_state_4036af|13|-21 212,4,6,5,7,7,6,10,5,6,3,6,9,7,7,300,
scooby_state_4036af|50|-8 249,2,1,3,3,1,2,2,1,0,2,4,12,7,8,297,
scooby_state_4036af|13|-36 258,1,0,0,1,3,0,0,0,0,0,0,0,1,32,296,
scooby_state_4036af|33|-24 143,10,11,11,11,10,9,9,12,14,9,10,10,10,13,292,
scooby_state_4036af|1|-14 245,8,1,3,1,2,2,3,3,4,2,2,5,4,5,290,
scooby_state_4036af|18|2 219,3,3,2,4,5,6,4,3,3,5,9,14,5,5,290,
scooby_state_4036b7|1|0 236,40,2,2,3,0,0,1,0,1,2,0,1,1,0,289,
scooby_state_4036af|0|-31 101,12,11,11,12,13,13,14,14,14,26,11,11,10,16,289,
scooby_state_4036af|35|7 138,7,8,5,9,6,5,7,7,4,8,4,12,56,12,288,
scooby_state_4036af|6|-32 231,5,5,6,4,3,5,3,3,2,2,4,4,3,8,288,
scooby_state_4036af|13|-22 215,8,2,3,2,5,7,11,10,4,5,3,2,5,5,287,
scooby_state_4036af|31|2 203,4,3,3,6,5,5,4,9,4,5,10,17,3,4,285,
scooby_state_4036af|7|-49 243,2,2,3,2,1,2,4,3,5,4,4,3,2,4,284,
scooby_state_4036af|38|-23 151,6,8,10,9,8,6,10,6,13,9,10,11,12,14,283,
scooby_state_4036af|10|-8 245,0,0,0,0,0,0,1,0,0,0,0,17,17,1,281,
scooby_state_4036af|38|-6 221,2,0,3,3,1,4,1,3,2,0,3,18,11,8,280,
scooby_state_4036af|2|2 208,2,6,4,2,5,3,5,2,4,4,7,16,4,5,277,
scooby_state_4036af|33|-6 251,0,2,1,0,1,0,1,0,1,1,0,5,11,1,275,
scooby_state_4036af|4|-34 148,7,12,8,8,13,7,9,7,11,7,10,8,8,11,274,
scooby_state_4036af|31|-18 232,3,5,1,2,3,2,3,2,4,3,2,4,5,2,273,
scooby_state_4036af|33|-19 175,6,7,6,6,6,6,9,7,7,7,7,8,5,10,272,
scooby_state_4036af|41|-4 241,1,0,1,0,2,0,0,2,1,0,6,5,9,3,271,
scooby_state_4036af|16|-14 136,8,9,10,8,10,10,11,9,9,9,8,9,13,12,271,
scooby_state_4036af|34|-23 204,3,4,4,5,4,5,2,6,0,6,6,6,5,10,270,
scooby_state_4036af|28|-29 223,0,1,2,3,4,3,2,4,7,3,5,3,2,6,268,
scooby_state_4036af|22|-16 223,2,2,4,4,2,3,3,3,4,3,1,1,6,5,266,
scooby_state_4036af|16|-28 52,14,14,16,17,14,15,15,14,14,16,14,15,19,16,265,
scooby_state_4036af|40|-5 239,0,0,0,0,0,0,0,0,0,0,0,21,4,0,264,
scooby_state_4036af|43|-17 215,3,2,5,5,4,2,0,1,6,3,6,2,3,5,262,
scooby_state_4036af|21|-13 219,4,0,1,1,0,2,4,0,0,1,4,15,4,6,261,
scooby_state_4036af|1|-8 216,0,0,0,0,0,1,1,0,1,1,1,19,19,2,261,
scooby_state_4036af|6|-9 224,2,3,3,4,4,3,3,3,0,0,3,1,4,3,260,
scooby_state_4036af|39|-13 226,0,0,0,0,0,0,0,0,0,0,0,28,5,0,259,
scooby_state_4036af|51|3 166,3,5,11,7,4,1,3,7,5,4,3,3,31,5,258,
scooby_state_4036af|33|-16 216,3,2,2,4,4,2,4,4,1,2,4,4,5,1,258,
scooby_state_4036af|53|2 198,1,3,2,3,1,6,2,2,4,4,10,11,5,5,257,
scooby_state_4036af|17|-16 231,2,4,0,0,3,2,2,0,3,1,1,3,1,2,255,
scooby_state_4036af|32|-11 194,2,3,2,1,0,24,3,0,4,1,4,9,2,5,254,
scooby_state_4036af|25|-36 240,1,1,0,0,0,0,0,0,0,1,7,0,0,4,254,
scooby_state_4036af|48|2 185,4,2,6,1,8,7,4,2,2,4,6,17,1,5,254,
scooby_state_4036af|42|3 169,8,8,4,4,1,3,7,3,5,3,4,4,16,15,254,
scooby_state_4036af|6|-57 145,8,8,8,10,7,5,8,5,6,9,7,7,11,8,252,
scooby_state_4036af|47|-4 221,2,0,2,1,2,0,0,1,1,1,7,2,7,2,249,
scooby_state_4036af|4|2 172,3,5,2,2,6,5,3,2,2,4,8,26,3,5,248,
scooby_state_4036af|19|2 184,5,5,2,2,5,6,2,2,4,3,10,12,2,4,248,
scooby_state_4036af|27|-13 229,0,0,0,0,0,0,0,0,0,0,0,14,4,1,248,
scooby_state_4036af|33|-14 206,4,4,3,3,3,2,2,0,4,1,4,2,4,3,245,
scooby_state_4036af|23|-18 213,1,2,3,3,2,3,3,2,1,3,1,4,1,3,245,
scooby_state_4036af|4|-12 207,0,2,5,2,3,1,6,1,1,2,4,4,2,3,243,
scooby_state_4036af|48|-4 208,1,1,1,0,0,1,1,0,0,1,7,9,8,5,243,
scooby_state_4036af|35|-14 201,2,6,0,2,4,3,1,4,3,2,3,6,1,5,243,
scooby_state_4036af|21|-9 213,1,0,1,3,0,3,3,1,1,3,1,3,5,4,242,
scooby_state_4036af|3|-5 206,1,0,1,3,0,0,0,1,0,0,1,15,9,5,242,
scooby_state_4036af|60|5 155,6,6,5,5,11,6,4,5,7,4,3,6,11,7,241,
scooby_state_4036af|9|-21 191,4,0,3,1,1,6,10,5,4,3,0,4,3,4,239,
scooby_state_4036af|36|1 174,6,4,2,3,4,5,4,7,6,1,3,12,4,4,239,
scooby_state_4036af|21|-17 197,5,2,2,3,1,6,4,4,2,1,2,5,2,3,239,
scooby_state_4036af|40|5 168,4,5,3,4,1,6,5,6,1,5,6,5,8,10,237,
scooby_state_4036af|15|-6 197,5,3,5,3,2,2,0,4,1,1,4,4,1,3,235,
scooby_state_4036af|44|-11 177,7,5,4,2,4,5,3,4,5,3,1,4,5,6,235,
scooby_state_4036af|39|5 166,5,5,5,8,3,6,3,1,1,4,6,5,8,8,234,
scooby_state_4036af|54|1 164,2,3,5,5,3,6,4,1,3,4,3,17,9,5,234,
scooby_state_4036af|47|-7 212,0,0,1,1,1,0,0,1,0,1,2,1,14,0,234,
scooby_state_4036af|45|-7 213,0,0,0,0,0,1,1,0,0,0,0,0,19,0,234,
scooby_state_4036af|20|-8 215,0,2,0,0,1,0,1,0,0,0,1,3,6,3,232,
scooby_state_4036af|56|2 161,4,6,7,2,6,2,3,4,5,2,10,11,5,3,231,
scooby_state_4036af|26|-9 199,0,3,3,4,0,3,2,1,3,1,1,5,4,2,231,
scooby_state_4036af|39|3 175,1,3,4,0,4,2,4,4,4,2,0,3,22,3,231,
scooby_state_4036af|8|-9 180,2,2,1,6,4,5,7,3,2,1,2,0,3,12,230,
scooby_state_4036af|27|-9 183,5,4,2,3,3,4,5,2,4,1,2,4,2,6,230,
scooby_state_4036af|11|-13 183,1,3,3,2,6,1,3,1,3,1,2,7,10,1,227,
scooby_state_4036af|56|5 142,4,7,3,4,4,8,9,2,6,1,4,11,11,11,227,
scooby_state_4036af|8|2 171,2,6,3,4,2,4,2,1,8,3,6,7,1,6,226,
scooby_state_4036af|35|-25 98,7,9,11,9,10,14,8,7,6,10,9,8,7,12,225,
scooby_state_4036af|2|-15 184,1,0,0,3,0,5,1,4,3,0,0,1,20,2,224,
scooby_state_4036af|43|-10 213,0,0,0,1,1,1,0,0,1,0,0,5,1,0,223,
scooby_state_4036af|8|-11 179,2,0,1,3,4,8,2,3,3,3,1,5,3,6,223,
scooby_state_4036af|0|-39 109,10,7,7,8,6,9,6,9,8,9,8,8,8,10,222,
[...]
scooby_state_4036af|16|-35 1,0,0,0,0,0,0,0,0,0,0,0,0,0,0,1,
scooby_state_4036b7|1|-4 0,0,0,0,1,0,0,0,0,0,0,0,0,0,0,1,
scooby_state_4036c5|13|-7 1,0,0,0,0,0,0,0,0,0,0,0,0,0,0,1,
scooby_state_4036b7|9|-4 0,0,0,0,1,0,0,0,0,0,0,0,0,0,0,1,
scooby_state_4036b7|57|20 0,0,0,1,0,0,0,0,0,0,0,0,0,0,0,1,
scooby_state_4036b7|34|28 0,0,0,0,0,0,1,0,0,0,0,0,0,0,0,1,
scooby_state_4036b7|60|44 0,0,0,0,0,0,0,0,0,0,0,0,1,0,0,1,
scooby_state_4036af|54|42 0,0,0,0,0,0,1,0,0,0,0,0,0,0,0,1,
scooby_state_4036af|19|17 0,0,0,1,0,0,0,0,0,0,0,0,0,0,0,1,
scooby_state_4036b7|34|20 0,0,0,0,0,0,0,0,0,0,0,0,0,0,1,1,
scooby_state_4036b7|57|-6 0,0,0,1,0,0,0,0,0,0,0,0,0,0,0,1,
scooby_state_4036b7|46|34 0,0,0,0,0,0,0,0,0,1,0,0,0,0,0,1,
scooby_state_4036af|32|32 1,0,0,0,0,0,0,0,0,0,0,0,0,0,0,1,
scooby_state_4036b7|41|-3 0,0,0,0,0,0,0,0,0,0,0,0,1,0,0,1,
scooby_state_4036af|7|-30 1,0,0,0,0,0,0,0,0,0,0,0,0,0,0,1,
scooby_state_4036b7|58|-1 0,0,0,0,0,0,0,1,0,0,0,0,0,0,0,1,
scooby_state_4036b7|18|14 0,0,0,0,0,0,1,0,0,0,0,0,0,0,0,1,
scooby_state_4036b7|28|18 0,0,0,0,1,0,0,0,0,0,0,0,0,0,0,1,
scooby_state_4036b7|34|-2 0,0,1,0,0,0,0,0,0,0,0,0,0,0,0,1,
scooby_state_4036b7|47|33 0,0,0,0,0,0,0,0,0,0,0,1,0,0,0,1,
scooby_state_4036b7|41|41 0,0,0,0,0,0,0,0,0,0,0,0,1,0,0,1,
scooby_state_4036af|39|21 1,0,0,0,0,0,0,0,0,0,0,0,0,0,0,1,
scooby_state_4036b7|62|13 0,0,0,0,0,0,0,0,0,0,0,0,0,0,1,1,
scooby_state_4036af|36|-27 1,0,0,0,0,0,0,0,0,0,0,0,0,0,0,1,
scooby_state_4036b7|53|38 0,0,0,1,0,0,0,0,0,0,0,0,0,0,0,1,
scooby_state_4036af|35|34 1,0,0,0,0,0,0,0,0,0,0,0,0,0,0,1,
scooby_state_4036af|25|23 1,0,0,0,0,0,0,0,0,0,0,0,0,0,0,1,
scooby_state_4036b7|43|32 0,0,0,0,0,0,0,0,0,0,1,0,0,0,0,1,
scooby_state_4036b7|52|36 0,0,0,0,0,0,1,0,0,0,0,0,0,0,0,1,
scooby_state_4036af|25|-29 1,0,0,0,0,0,0,0,0,0,0,0,0,0,0,1,
scooby_state_4036c5|36|-16 0,0,0,0,0,0,0,0,0,0,0,1,0,0,0,1,
scooby_state_4036b7|11|-1 0,1,0,0,0,0,0,0,0,0,0,0,0,0,0,1,
scooby_state_4036af|63|19 0,0,1,0,0,0,0,0,0,0,0,0,0,0,0,1,
scooby_state_401580|22|1 1,0,0,0,0,0,0,0,0,0,0,0,0,0,0,1,
scooby_state_4036b7|2|-2 0,0,0,0,0,0,0,0,0,0,0,0,0,1,0,1,
scooby_state_4036b7|5|-4 0,0,0,0,1,0,0,0,0,0,0,0,0,0,0,1,
scooby_state_4036af|63|42 0,0,0,0,0,0,1,0,0,0,0,0,0,0,0,1,
scooby_state_4036b7|55|-3 0,0,0,0,0,0,0,0,0,0,0,1,0,0,0,1,
scooby_state_4036af|30|11 0,0,0,0,0,0,0,0,0,1,0,0,0,0,0,1,
scooby_state_4036b7|57|45 0,0,0,0,0,0,0,0,0,0,0,0,0,1,0,1,
scooby_state_4036b7|21|-1 0,0,0,0,0,1,0,0,0,0,0,0,0,0,0,1,
scooby_state_4036c5|47|-8 0,0,0,0,0,1,0,0,0,0,0,0,0,0,0,1,
scooby_state_403670|25|-3 1,0,0,0,0,0,0,0,0,0,0,0,0,0,0,1,
scooby_state_4036af|31|16 0,0,0,0,0,0,0,0,0,0,0,0,1,0,0,1,
scooby_state_4036af|56|14 0,0,0,0,0,0,0,1,0,0,0,0,0,0,0,1,
scooby_state_4036af|54|28 0,0,0,0,0,0,0,0,0,0,1,0,0,0,0,1,
scooby_state_4036af|16|15 0,0,0,0,0,0,0,0,0,0,0,0,0,1,0,1,
scooby_state_4036b7|26|-5 0,0,0,0,1,0,0,0,0,0,0,0,0,0,0,1,
scooby_state_403701|28|1 1,0,0,0,0,0,0,0,0,0,0,0,0,0,0,1,
scooby_state_4036b7|55|-2 0,0,0,0,0,0,0,0,0,0,0,0,1,0,0,1,
scooby_state_4036b7|49|-3 0,0,1,0,0,0,0,0,0,0,0,0,0,0,0,1,
scooby_state_4036af|36|36 0,0,0,0,0,0,0,0,0,0,0,1,0,0,0,1,
scooby_state_4036b7|6|-4 0,0,0,0,1,0,0,0,0,0,0,0,0,0,0,1,
scooby_state_4036c5|3|-12 1,0,0,0,0,0,0,0,0,0,0,0,0,0,0,1,
scooby_state_4036af|14|-46 0,0,1,0,0,0,0,0,0,0,0,0,0,0,0,1,
scooby_state_4036af|16|-39 1,0,0,0,0,0,0,0,0,0,0,0,0,0,0,1,
scooby_state_4036b7|35|16 0,0,0,0,0,0,0,1,0,0,0,0,0,0,0,1,
scooby_state_4036b7|21|10 0,1,0,0,0,0,0,0,0,0,0,0,0,0,0,1,
scooby_state_4036af|26|-35 0,0,0,0,0,0,0,0,0,0,0,0,1,0,0,1,
scooby_state_4036c5|60|-1 0,0,0,0,1,0,0,0,0,0,0,0,0,0,0,1,
scooby_state_4036af|4|-54 1,0,0,0,0,0,0,0,0,0,0,0,0,0,0,1,
scooby_state_4036b7|41|29 1,0,0,0,0,0,0,0,0,0,0,0,0,0,0,1,
scooby_state_4036b7|54|-5 0,0,0,1,0,0,0,0,0,0,0,0,0,0,0,1,
scooby_state_4036af|5|-31 1,0,0,0,0,0,0,0,0,0,0,0,0,0,0,1,
scooby_state_4036b7|13|-5 0,0,0,0,0,0,0,0,0,0,0,0,1,0,0,1,
scooby_state_4036af|51|37 1,0,0,0,0,0,0,0,0,0,0,0,0,0,0,1,
scooby_state_4036af|63|47 0,0,0,0,0,0,0,0,0,0,0,0,1,0,0,1,
scooby_state_4036af|62|61 1,0,0,0,0,0,0,0,0,0,0,0,0,0,0,1,
scooby_state_4036af|34|-19 1,0,0,0,0,0,0,0,0,0,0,0,0,0,0,1,
scooby_state_4036c5|20|-9 0,0,0,0,0,1,0,0,0,0,0,0,0,0,0,1,
scooby_state_4036af|58|48 0,0,0,0,0,0,0,0,0,0,0,0,1,0,0,1,
scooby_state_4036b7|39|36 0,0,0,1,0,0,0,0,0,0,0,0,0,0,0,1,
scooby_state_4036c5|26|-16 0,0,1,0,0,0,0,0,0,0,0,0,0,0,0,1,
scooby_state_4036c5|26|-17 0,0,0,0,0,0,0,0,0,0,0,1,0,0,0,1,
scooby_state_4036c5|45|14 0,0,0,0,0,0,0,0,0,1,0,0,0,0,0,1,
scooby_state_4036b7|48|12 1,0,0,0,0,0,0,0,0,0,0,0,0,0,0,1,
scooby_state_4036af|16|-45 1,0,0,0,0,0,0,0,0,0,0,0,0,0,0,1,
scooby_state_4036af|31|-20 1,0,0,0,0,0,0,0,0,0,0,0,0,0,0,1,
scooby_state_4036b7|33|-2 0,0,0,0,1,0,0,0,0,0,0,0,0,0,0,1,
scooby_state_4036af|60|40 1,0,0,0,0,0,0,0,0,0,0,0,0,0,0,1,
scooby_state_4036af|52|49 0,1,0,0,0,0,0,0,0,0,0,0,0,0,0,1,
scooby_state_4036af|1|-37 1,0,0,0,0,0,0,0,0,0,0,0,0,0,0,1,
scooby_state_4036c5|5|-20 0,0,0,0,0,0,0,0,1,0,0,0,0,0,0,1,
scooby_state_4036c5|17|-13 1,0,0,0,0,0,0,0,0,0,0,0,0,0,0,1,
scooby_state_4036af|27|26 0,0,0,1,0,0,0,0,0,0,0,0,0,0,0,1,
scooby_state_4036c5|40|-11 0,0,0,0,0,0,0,0,0,0,0,1,0,0,0,1,
scooby_state_4036af|9|-30 1,0,0,0,0,0,0,0,0,0,0,0,0,0,0,1,
scooby_state_4036c5|57|-3 0,0,0,1,0,0,0,0,0,0,0,0,0,0,0,1,
scooby_state_4036c5|17|-18 0,0,0,0,0,0,0,0,1,0,0,0,0,0,0,1,
scooby_state_4036c5|10|0 0,0,0,0,0,0,0,0,0,1,0,0,0,0,0,1,
scooby_state_4036c5|16|-10 0,0,0,0,0,0,0,0,0,0,0,1,0,0,0,1,
scooby_state_4036b7|60|15 0,0,0,0,0,0,0,0,0,1,0,0,0,0,0,1,
scooby_state_4036b7|56|32 0,1,0,0,0,0,0,0,0,0,0,0,0,0,0,1,
scooby_state_4036c5|7|-7 0,0,0,0,0,0,0,0,0,0,0,1,0,0,0,1,
scooby_state_4036c5|44|-6 0,0,0,0,0,0,0,1,0,0,0,0,0,0,0,1,
scooby_state_4036b7|13|-8 0,0,0,0,0,0,0,0,0,0,0,0,0,1,0,1,
scooby_state_4036c5|17|-3 0,0,0,0,0,0,0,0,0,0,1,0,0,0,0,1,
scooby_state_4036af|25|6 1,0,0,0,0,0,0,0,0,0,0,0,0,0,0,1,
scooby_state_4036c5|21|-3 0,0,0,0,0,0,0,0,0,0,0,0,0,1,0,1,
scooby_state_4036af|37|20 1,0,0,0,0,0,0,0,0,0,0,0,0,0,0,1,
scooby_state_4036af|57|17 0,0,0,0,0,0,0,0,0,0,0,0,1,0,0,1,
scooby_state_4036c5|35|-2 0,1,0,0,0,0,0,0,0,0,0,0,0,0,0,1,
scooby_state_4036b7|63|23 0,0,0,0,0,0,0,0,1,0,0,0,0,0,0,1,
scooby_state_4036af|23|20 1,0,0,0,0,0,0,0,0,0,0,0,0,0,0,1,
scooby_state_4036af|3|-46 0,0,0,0,0,0,0,0,0,0,0,1,0,0,0,1,
scooby_state_4036b7|19|10 1,0,0,0,0,0,0,0,0,0,0,0,0,0,0,1,
scooby_state_4036c5|45|-7 0,0,0,0,0,0,0,1,0,0,0,0,0,0,0,1,
scooby_state_4036af|13|-37 1,0,0,0,0,0,0,0,0,0,0,0,0,0,0,1,
scooby_state_4036b7|20|-2 0,0,0,0,0,0,0,0,0,1,0,0,0,0,0,1,
scooby_state_4036af|19|16 0,0,0,0,0,0,0,0,0,0,0,0,0,1,0,1,
scooby_state_4036af|60|25 1,0,0,0,0,0,0,0,0,0,0,0,0,0,0,1,
scooby_state_4036b7|24|-1 0,0,0,0,0,0,0,0,0,0,0,1,0,0,0,1,
scooby_state_4036c5|59|-2 0,1,0,0,0,0,0,0,0,0,0,0,0,0,0,1,
scooby_state_4036b7|55|-4 0,1,0,0,0,0,0,0,0,0,0,0,0,0,0,1,
scooby_state_4036af|42|36 0,0,0,0,0,0,0,0,0,0,0,0,0,0,1,1,
scooby_state_4036b7|45|23 0,0,0,0,0,0,1,0,0,0,0,0,0,0,0,1,
scooby_state_4036af|46|18 1,0,0,0,0,0,0,0,0,0,0,0,0,0,0,1,
scooby_state_4036b7|13|-1 0,1,0,0,0,0,0,0,0,0,0,0,0,0,0,1,
scooby_state_4036af|56|44 0,0,0,0,0,0,0,0,1,0,0,0,0,0,0,1,
scooby_state_4036af|20|-26 1,0,0,0,0,0,0,0,0,0,0,0,0,0,0,1,
scooby_state_4036b7|52|-5 0,0,0,0,1,0,0,0,0,0,0,0,0,0,0,1,
scooby_state_4036af|18|-32 0,0,0,0,0,0,0,0,0,1,0,0,0,0,0,1,
scooby_state_4036af|44|14 0,0,0,0,0,0,0,0,0,0,0,1,0,0,0,1,
scooby_state_4036af|4|-24 1,0,0,0,0,0,0,0,0,0,0,0,0,0,0,1,
scooby_state_4036af|2|-23 1,0,0,0,0,0,0,0,0,0,0,0,0,0,0,1,
scooby_state_4036af|61|41 0,0,0,0,0,0,0,0,0,0,0,1,0,0,0,1,
scooby_state_4036af|16|-33 0,0,1,0,0,0,0,0,0,0,0,0,0,0,0,1,
scooby_state_4036c5|33|-5 0,0,0,0,0,0,0,0,0,0,1,0,0,0,0,1,
scooby_state_4036c5|22|-3 0,0,0,0,0,0,1,0,0,0,0,0,0,0,0,1,
scooby_state_4036c5|4|-4 0,0,0,0,0,0,0,0,0,0,0,0,1,0,0,1,
scooby_state_4036b7|52|-1 0,1,0,0,0,0,0,0,0,0,0,0,0,0,0,1,
scooby_state_4036af|49|48 0,0,0,0,1,0,0,0,0,0,0,0,0,0,0,1,
scooby_state_4036b7|44|28 0,0,0,0,0,0,0,1,0,0,0,0,0,0,0,1,
scooby_state_4036b7|7|-8 0,0,0,0,0,0,0,0,0,0,0,0,0,0,1,1,
scooby_state_4036c5|8|-20 0,0,0,0,0,0,0,1,0,0,0,0,0,0,0,1,
scooby_state_4036af|7|-34 1,0,0,0,0,0,0,0,0,0,0,0,0,0,0,1,
scooby_state_4036af|13|-48 0,0,0,0,0,0,0,0,0,0,0,0,0,0,1,1,
scooby_state_4036b7|32|15 0,1,0,0,0,0,0,0,0,0,0,0,0,0,0,1,
scooby_state_4036b7|41|34 0,0,0,1,0,0,0,0,0,0,0,0,0,0,0,1,
scooby_state_4036b7|51|16 0,0,0,0,0,0,1,0,0,0,0,0,0,0,0,1,
scooby_state_4036af|10|9 0,0,0,0,0,0,0,0,0,0,0,0,1,0,0,1,
scooby_state_4036c5|10|-4 0,0,1,0,0,0,0,0,0,0,0,0,0,0,0,1,
scooby_state_4036af|36|12 0,0,0,0,0,0,0,0,0,0,1,0,0,0,0,1,
scooby_state_4036b7|40|-2 0,0,0,0,1,0,0,0,0,0,0,0,0,0,0,1,
scooby_state_4036c5|25|-1 0,0,0,0,0,0,0,0,0,0,1,0,0,0,0,1,
scooby_state_4036c5|0|-1 0,0,0,0,0,0,0,0,0,0,1,0,0,0,0,1,
scooby_state_4036c5|11|-1 0,0,0,0,0,0,0,0,0,0,1,0,0,0,0,1,
scooby_state_4036af|59|22 1,0,0,0,0,0,0,0,0,0,0,0,0,0,0,1,
scooby_state_4036b7|35|-3 0,0,0,1,0,0,0,0,0,0,0,0,0,0,0,1,
scooby_state_4036b7|38|10 1,0,0,0,0,0,0,0,0,0,0,0,0,0,0,1,
scooby_state_4036c5|1|-1 0,0,0,0,1,0,0,0,0,0,0,0,0,0,0,1,
scooby_state_4036c5|14|-10 1,0,0,0,0,0,0,0,0,0,0,0,0,0,0,1,
scooby_state_4036af|2|-40 1,0,0,0,0,0,0,0,0,0,0,0,0,0,0,1,
scooby_state_4036af|19|-27 1,0,0,0,0,0,0,0,0,0,0,0,0,0,0,1,
scooby_state_4036c5|18|-5 0,0,0,0,1,0,0,0,0,0,0,0,0,0,0,1,
scooby_state_4036af|3|-38 0,0,0,0,0,0,0,0,0,0,0,0,0,1,0,1,
scooby_state_4036b7|50|-3 0,0,0,1,0,0,0,0,0,0,0,0,0,0,0,1,
scooby_state_4036b7|17|10 1,0,0,0,0,0,0,0,0,0,0,0,0,0,0,1,
scooby_state_4036b7|59|13 1,0,0,0,0,0,0,0,0,0,0,0,0,0,0,1,
scooby_state_4036c5|10|-2 0,0,0,0,0,0,0,0,0,0,0,0,1,0,0,1,
scooby_state_4036af|51|41 0,0,0,0,0,1,0,0,0,0,0,0,0,0,0,1,
scooby_state_4036b7|59|21 0,0,1,0,0,0,0,0,0,0,0,0,0,0,0,1,
scooby_state_4036b7|16|-12 0,0,0,0,0,0,0,0,0,0,0,0,1,0,0,1,
scooby_state_4036b7|30|-5 0,0,0,0,0,0,0,0,0,0,1,0,0,0,0,1,
scooby_state_4036af|5|-53 0,0,0,0,0,0,0,0,0,0,0,0,0,0,1,1,
scooby_state_4036b7|62|23 0,0,0,0,0,0,0,0,0,0,0,1,0,0,0,1,
scooby_state_4036c5|27|-8 0,0,0,0,0,0,0,0,0,0,0,0,1,0,0,1,
scooby_state_4036b7|26|-6 0,0,0,0,0,0,0,0,0,0,0,0,0,0,1,1,
scooby_state_4036b7|26|-1 0,0,0,0,1,0,0,0,0,0,0,0,0,0,0,1,
scooby_state_4036af|26|16 0,0,0,0,1,0,0,0,0,0,0,0,0,0,0,1,
scooby_state_4036af|47|25 0,0,0,0,0,0,0,0,1,0,0,0,0,0,0,1,
scooby_state_4036af|40|23 1,0,0,0,0,0,0,0,0,0,0,0,0,0,0,1,
scooby_state_4036af|37|28 0,0,0,0,0,0,0,0,1,0,0,0,0,0,0,1,
scooby_state_4036b7|16|-5 0,0,0,0,0,0,0,0,0,0,0,0,1,0,0,1,
scooby_state_4036af|50|36 1,0,0,0,0,0,0,0,0,0,0,0,0,0,0,1,
scooby_state_4036af|14|-33 0,0,0,0,0,0,1,0,0,0,0,0,0,0,0,1,
scooby_state_4036c5|13|-1 0,0,0,0,0,0,0,0,0,0,0,0,0,0,1,1,
scooby_state_4036b7|47|10 0,0,0,0,0,0,0,0,0,0,0,0,1,0,0,1,
scooby_state_4036c5|21|-8 0,0,0,0,0,0,0,0,0,0,0,0,0,0,1,1,
scooby_state_4036af|37|13 1,0,0,0,0,0,0,0,0,0,0,0,0,0,0,1,
scooby_state_4036af|40|14 1,0,0,0,0,0,0,0,0,0,0,0,0,0,0,1,
scooby_state_4036af|23|-17 1,0,0,0,0,0,0,0,0,0,0,0,0,0,0,1,
scooby_state_4036af|30|-31 0,0,0,0,1,0,0,0,0,0,0,0,0,0,0,1,
scooby_state_4036c5|14|0 0,0,0,0,0,1,0,0,0,0,0,0,0,0,0,1,
scooby_state_4036b7|52|39 0,0,1,0,0,0,0,0,0,0,0,0,0,0,0,1,
scooby_state_4036b7|31|13 0,0,0,1,0,0,0,0,0,0,0,0,0,0,0,1,
scooby_state_4036c5|20|7 0,0,0,0,0,0,0,0,0,0,0,0,1,0,0,1,
scooby_state_4036c5|41|-2 0,0,0,1,0,0,0,0,0,0,0,0,0,0,0,1,
scooby_state_4036b7|37|7 0,1,0,0,0,0,0,0,0,0,0,0,0,0,0,1,
scooby_state_4036af|53|20 1,0,0,0,0,0,0,0,0,0,0,0,0,0,0,1,
scooby_state_4036af|38|21 0,0,0,0,0,0,0,1,0,0,0,0,0,0,0,1,
scooby_state_4036c5|15|-40 0,0,0,0,0,0,1,0,0,0,0,0,0,0,0,1,
scooby_state_4036af|61|38 1,0,0,0,0,0,0,0,0,0,0,0,0,0,0,1,
scooby_state_4036c5|8|-18 0,0,0,0,0,0,0,0,0,0,0,1,0,0,0,1,
scooby_state_4036af|30|-30 1,0,0,0,0,0,0,0,0,0,0,0,0,0,0,1,
scooby_state_4036c5|10|-13 0,0,0,0,0,0,0,0,0,0,1,0,0,0,0,1,
scooby_state_4036c5|32|0 0,1,0,0,0,0,0,0,0,0,0,0,0,0,0,1,
scooby_state_4036b7|53|-3 0,0,0,1,0,0,0,0,0,0,0,0,0,0,0,1,
scooby_state_4036c5|36|0 0,0,0,0,0,0,0,0,0,1,0,0,0,0,0,1,
scooby_state_4036af|8|-47 0,0,0,0,0,0,0,0,1,0,0,0,0,0,0,1,
scooby_state_4036c5|4|-7 0,0,0,0,0,0,0,0,0,0,0,1,0,0,0,1,
scooby_state_4036b7|33|-3 0,0,0,1,0,0,0,0,0,0,0,0,0,0,0,1,
scooby_state_4036af|30|-29 1,0,0,0,0,0,0,0,0,0,0,0,0,0,0,1,
scooby_state_4036c5|49|-7 0,0,0,0,0,0,0,1,0,0,0,0,0,0,0,1,
scooby_state_4036c5|29|-1 0,0,0,0,0,1,0,0,0,0,0,0,0,0,0,1,
scooby_state_4036c5|9|0 0,0,0,0,0,0,0,0,0,0,0,0,0,1,0,1,
scooby_state_4036b7|2|-4 0,0,0,0,1,0,0,0,0,0,0,0,0,0,0,1,
scooby_state_4036b7|6|-7 0,0,0,0,1,0,0,0,0,0,0,0,0,0,0,1,
scooby_state_4036c5|34|-5 0,0,0,0,0,1,0,0,0,0,0,0,0,0,0,1,
scooby_state_4036c5|23|-11 0,0,0,0,1,0,0,0,0,0,0,0,0,0,0,1,
scooby_state_4036af|45|18 1,0,0,0,0,0,0,0,0,0,0,0,0,0,0,1,
scooby_state_4036b7|9|6 0,0,0,0,0,0,0,0,0,0,0,0,0,0,1,1,
scooby_state_4036af|15|-37 1,0,0,0,0,0,0,0,0,0,0,0,0,0,0,1,
scooby_state_4036af|54|18 0,0,0,0,1,0,0,0,0,0,0,0,0,0,0,1,
scooby_state_4036af|54|26 0,0,0,0,0,0,0,0,1,0,0,0,0,0,0,1,

scooby_action_0_deg_dist 0,101703,0,0,0,0,0,0,0,0,0,0,0,0,0,0,
scooby_action_-6_deg_dist 0,25972,835,0,435,0,155,0,0,0,0,0,0,0,0,0,
scooby_action_4_deg_dist 0,6517,3,0,0,0,0,0,0,0,0,0,0,0,0,0,
scooby_action_1_deg_dist 0,2152908,136104,0,163600,0,117701,0,0,0,0,0,0,0,0,0,
scooby_action_30_deg_dist 0,5490,0,0,0,0,0,0,0,0,0,0,0,0,0,0,
scooby_action_5_deg_dist 0,6400,7,0,0,0,0,0,0,0,0,0,0,0,0,0,
scooby_action_10_deg_dist 0,6157,9,0,2,0,0,0,0,0,0,0,0,0,0,0,
scooby_action_3_deg_dist 0,9173,805,0,1134,0,1676,0,0,0,0,0,0,0,0,0,
scooby_action_32_deg_dist 0,5256,5,0,0,0,0,0,0,0,0,0,0,0,0,0,
scooby_action_11_deg_dist 0,6245,1,0,0,0,0,0,0,0,0,0,0,0,0,0,
scooby_action_12_deg_dist 0,6465,11,0,1,0,0,0,0,0,0,0,0,0,0,0,
scooby_action_22_deg_dist 0,6172,1,0,0,0,0,0,0,0,0,0,0,0,0,0,
scooby_action_23_deg_dist 0,5643,0,0,0,0,0,0,0,0,0,0,0,0,0,0,
scooby_action_-1_deg_dist 0,8648,2,0,0,0,0,0,0,0,0,0,0,0,0,0,
scooby_action_-3_deg_dist 0,27677,342,0,18,0,0,0,0,0,0,0,0,0,0,0,

scooby_track_called 2803273
scooby_track_same_address 16060
scooby_track_evict 2786957

scooby_reward_demand_called 2803273
scooby_reward_demand_pt_not_found 2776519
scooby_reward_demand_pt_found 26754
scooby_reward_demand_pt_found_total 26754
scooby_reward_demand_has_reward 1
scooby_reward_train_called 2705048
scooby_reward_assign_reward_called 2786960
scooby_reward_no_pref 101702
scooby_reward_incorrect 2603346
scooby_reward_correct_untimely 15506
scooby_reward_correct_timely 11247
scooby_reward_out_of_bounds 55159
scooby_reward_tracker_hit 0

scooby_reward_none_low_bw 101702
scooby_reward_none_high_bw 0
scooby_reward_incorrect_low_bw 2603346
scooby_reward_incorrect_high_bw 0
scooby_reward_correct_untimely_low_bw 15506
scooby_reward_correct_untimely_high_bw 0
scooby_reward_correct_timely_low_bw 11247
scooby_reward_correct_timely_high_bw 0
scooby_reward_out_of_bounds_low_bw 55159
scooby_reward_out_of_bounds_high_bw 0
scooby_reward_tracker_hit_low_bw 0
scooby_reward_tracker_hit_high_bw 0

scooby_reward_1 0,2514013,5478,3150,39751,0,
scooby_reward_3 0,7489,1697,2233,488,0,
scooby_reward_4 0,5442,21,29,267,0,
scooby_reward_5 0,5477,43,103,334,0,
scooby_reward_10 0,5041,44,82,622,0,
scooby_reward_11 0,4776,23,43,723,0,
scooby_reward_12 0,4763,11,83,832,0,
scooby_reward_22 0,3581,84,15,1574,0,
scooby_reward_23 0,3514,9,16,1619,0,
scooby_reward_30 0,2764,2,7,2165,0,
scooby_reward_32 0,2565,8,11,2296,0,
scooby_reward_-1 0,7109,732,142,192,0,
scooby_reward_-3 0,19180,4028,2260,1407,0,
scooby_reward_-6 0,17632,3326,3073,2889,0,
scooby_reward_0 101702,0,0,0,0,0,

scooby_train_called 2786956
scooby_train_compute_reward 2705048

scooby_register_fill_called 1744379
scooby_register_fill_set 1521092
scooby_register_fill_set_total 1521092

scooby_register_prefetch_hit_called 1581245
scooby_register_prefetch_hit_set 974830
scooby_register_prefetch_hit_set_total 974830

scooby_pref_issue_scooby 3845678

learning_engine_featurewise.action.called 2803273
learning_engine_featurewise.action.explore 5125
learning_engine_featurewise.action.exploit 2798148
learning_engine_featurewise.action.fallback 2568816
learning_engine_featurewise.action.dyn_fallback_saved_bw 0
learning_engine_featurewise.action.dyn_fallback_saved_bw_acc 198891
learning_engine_featurewise.action.index_1_explored 331
learning_engine_featurewise.action.index_1_exploited 2569982
learning_engine_featurewise.action.index_3_explored 364
learning_engine_featurewise.action.index_3_exploited 12424
learning_engine_featurewise.action.index_4_explored 358
learning_engine_featurewise.action.index_4_exploited 6162
learning_engine_featurewise.action.index_5_explored 315
learning_engine_featurewise.action.index_5_exploited 6092
learning_engine_featurewise.action.index_10_explored 384
learning_engine_featurewise.action.index_10_exploited 5784
learning_engine_featurewise.action.index_11_explored 350
learning_engine_featurewise.action.index_11_exploited 5896
learning_engine_featurewise.action.index_12_explored 343
learning_engine_featurewise.action.index_12_exploited 6134
learning_engine_featurewise.action.index_22_explored 344
learning_engine_featurewise.action.index_22_exploited 5829
learning_engine_featurewise.action.index_23_explored 338
learning_engine_featurewise.action.index_23_exploited 5305
learning_engine_featurewise.action.index_30_explored 339
learning_engine_featurewise.action.index_30_exploited 5151
learning_engine_featurewise.action.index_32_explored 299
learning_engine_featurewise.action.index_32_exploited 4962
learning_engine_featurewise.action.index_-1_explored 347
learning_engine_featurewise.action.index_-1_exploited 8303
learning_engine_featurewise.action.index_-3_explored 342
learning_engine_featurewise.action.index_-3_exploited 27695
learning_engine_featurewise.action.index_-6_explored 322
learning_engine_featurewise.action.index_-6_exploited 27075
learning_engine_featurewise.action.index_0_explored 349
learning_engine_featurewise.action.index_0_exploited 101354
learning_engine_featurewise.learn.called 2786956
learning_engine_featurewise.learn.su_skip_PC 0
learning_engine_featurewise.learn.su_skip_PC_Delta 0

learning_engine_featurewise.q_value_histogram.bucket_0 189712
learning_engine_featurewise.q_value_histogram.bucket_1 6358
learning_engine_featurewise.q_value_histogram.bucket_2 2584132
learning_engine_featurewise.q_value_histogram.bucket_3 10101
learning_engine_featurewise.q_value_histogram.bucket_4 7837
learning_engine_featurewise.q_value_histogram.bucket_5 8
learning_engine_featurewise.q_value_histogram.bucket_6 0
learning_engine_featurewise.q_value_histogram.bucket_7 0

learning_engine_featurewise.consensus.total 2798148
learning_engine_featurewise.consensus.feature_align_PC 2577385
learning_engine_featurewise.consensus.feature_align_PC_ratio 0.92
learning_engine_featurewise.consensus.feature_align_PC_Delta 2600301
learning_engine_featurewise.consensus.feature_align_PC_Delta_ratio 0.93
learning_engine_featurewise.consensus.feature_align_all 2575608
learning_engine_featurewise.consensus.feature_align_all_ratio 0.92

learning_engine_featurewise.feature_PC_min_weight 1000000.00000000
learning_engine_featurewise.feature_PC_max_weight 0.00000000
learning_engine_featurewise.feature_PC_Delta_min_weight 1000000.00000000
learning_engine_featurewise.feature_PC_Delta_max_weight 0.00000000
unique_pcs 14
unique_pages 26616
unique_trigger_pcs 9
total_bitmaps_seen 0
unique_bitmaps_seen 0

scooby_bw_epochs 800023
scooby_bw_level_0 695896
scooby_bw_level_1 103297
scooby_bw_level_2 797
scooby_bw_level_3 33

scooby_ipc_epochs 0
scooby_ipc_level_0 0
scooby_ipc_level_1 0
scooby_ipc_level_2 0
scooby_ipc_level_3 0

scooby_cache_acc_epochs 91586
scooby_cache_acc_level_0 89868
scooby_cache_acc_level_1 1264
scooby_cache_acc_level_2 318
scooby_cache_acc_level_3 82
scooby_cache_acc_level_4 38
scooby_cache_acc_level_5 12
scooby_cache_acc_level_6 2
scooby_cache_acc_level_7 1
scooby_cache_acc_level_8 1
scooby_cache_acc_level_9 0

Channel_0_RQ_row_buffer_hit 6850
Channel_0_RQ_row_buffer_miss 1373430
Channel_0_WQ_row_buffer_hit 196789
Channel_0_WQ_row_buffer_miss 911596
Channel_0_WQ_full 0
Channel_0_dbus_congested 1344384

avg_congested_cycle 10

DRAM_bw_pochs 800023
DRAM_bw_level_0 695896
DRAM_bw_level_1 103297
DRAM_bw_level_2 797
DRAM_bw_level_3 33
