*************************************************
   ChampSim Multicore Out-of-Order Simulator
   Last compiled: Apr  3 2025 20:54:34
*************************************************
parsing config file: /home/zir/Pythia/config/pythia.ini

trace_0 /home/zir/ChampSim/ML-DPC/ChampSimTraces/spec06/429.mcf-s1.trace.gz
adding L2C_PREFETCHER: Scooby
Initialize SHIP state
warmup_instructions 10000000
simulation_instructions 50000000
champsim_seed 164
measure_ipc 0
measure_ipc_epoch 1000
measure_dram_bw 1
measure_dram_bw_epoch 256
measure_cache_acc 1
measure_cache_acc_epoch 1024
l1d_perfect 0
l2c_perfect 0
llc_perfect 0
l1d_semi_perfect 0
l2c_semi_perfect 0
llc_semi_perfect 0
semi_perfect_cache_page_buffer_size 64

num_cpus 1
cpu_freq 4000
dram_io_freq 2400
page_size 4096
block_size 64
max_read_per_cycle 8
max_fill_per_cycle 1
dram_channels 1
log2_dram_channels 0
dram_ranks 1
dram_banks 8
dram_rows 65536
dram_columns 128
dram_row_size 8
dram_size 4096
dram_pages 1048576

fetch_width 6
decode_width 6
exec_width 4
lq_width 2
sq_width 2
retire_width 4
scheduler_size 128
branch_mispredict_penalty 20
rob_size 256
lq_size 72
sq_size 56
num_instr_destinations_sparc 4
num_instr_destinations 2
num_instr_sources 4

itlb_set 16
itlb_way 8
itlb_rq_size 16
itlb_wq_size 16
itlb_pq_size 0
itlb_mshr_size 8
itlb_latency 1

dtlb_set 16
dtlb_way 4
dtlb_rq_size 16
dtlb_wq_size 16
dtlb_pq_size 0
dtlb_mshr_size 8
dtlb_latency 1

stlb_set 128
stlb_way 12
stlb_rq_size 32
stlb_wq_size 32
stlb_pq_size 0
stlb_mshr_size 16
stlb_latency 8

l1i_size 32
l1i_set 64
l1i_way 8
l1i_rq_size 64
l1i_wq_size 64
l1i_pq_size 8
l1i_mshr_size 8
l1i_latency 1

l1d_size 32
l1d_set 64
l1d_way 8
l1d_rq_size 64
l1d_wq_size 64
l1d_pq_size 8
l1d_mshr_size 16
l1d_latency 4

l2c_size 256
l2c_set 512
l2c_way 8
l2c_rq_size 32
l2c_wq_size 32
l2c_pq_size 32
l2c_mshr_size 32
l2c_latency 10

llc_size 2048
llc_set 2048
llc_way 16
llc_rq_size 32
llc_wq_size 32
llc_pq_size 32
llc_mshr_size 64
llc_latency 20

dram_channel_width 8
dram_wq_size 64
dram_rq_size 64
tRP 15
tRCD 15
tCAS 12.5
dram_dbus_turn_around_time 30
dram_write_high_wm 56
dram_write_low_wm 48
min_dram_writes_per_switch 16
dram_mtps 2400
dram_dbus_return_time 13

scooby_alpha 0.0065088
scooby_gamma 0.556301
scooby_epsilon 0.00182284
scooby_state_num_bits 10
scooby_max_states 1024
scooby_seed 200
scooby_policy EGreedy
scooby_learning_type SARSA
scooby_actions 1,3,4,5,10,11,12,22,23,30,32,-1,-3,-6,0,
scooby_max_actions 15
scooby_pt_size 256
scooby_st_size 64
scooby_max_pcs 5
scooby_max_offsets 5
scooby_max_deltas 5
scooby_reward_none -4
scooby_reward_incorrect -8
scooby_reward_correct_untimely 12
scooby_reward_correct_timely 20
scooby_brain_zero_init 0
scooby_enable_reward_all 0
scooby_enable_track_multiple 0
scooby_enable_reward_out_of_bounds 1
scooby_reward_out_of_bounds -12
scooby_state_type 1
scooby_state_hash_type 11
scooby_access_debug 0
scooby_print_access_debug 0
scooby_print_access_debug_pc deadbeef
scooby_print_access_debug_pc_count 0
scooby_print_trace 0
scooby_enable_state_action_stats 1
scooby_enable_reward_tracker_hit 0
scooby_reward_tracker_hit -2
scooby_enable_featurewise_engine 1
scooby_pref_degree 1
scooby_enable_dyn_degree 1
scooby_max_to_avg_q_thresholds 0.5,1,2,
scooby_dyn_degrees 1,2,4,4,
scooby_multi_deg_select_type 2
scooby_last_pref_offset_conf_thresholds 1,3,8,
scooby_dyn_degrees_type2 1,2,4,6,
scooby_action_tracker_size 2
scooby_high_bw_thresh 4
scooby_enable_hbw_reward 1
scooby_reward_hbw_correct_timely 20
scooby_reward_hbw_correct_untimely 12
scooby_reward_hbw_incorrect -14
scooby_reward_hbw_none -2
scooby_reward_hbw_out_of_bounds -12
scooby_reward_hbw_tracker_hit -2
scooby_last_pref_offset_conf_thresholds_hbw 1,3,8,
scooby_dyn_degrees_type2_hbw 1,2,4,6,

le_enable_trace 0
le_trace_interval 0
le_trace_file_name 
le_trace_state 0
le_enable_score_plot 0
le_plot_file_name 
le_plot_actions 
le_enable_action_trace 0
le_action_trace_interval 0
le_action_trace_name 
le_enable_action_plot 0

le_featurewise_active_features PC, PC_Delta
le_featurewise_num_tilings 3,3,
le_featurewise_num_tiles 128,128,
le_featurewise_hash_types 2,2,
le_featurewise_enable_tiling_offset 1,1,
le_featurewise_max_q_thresh 0.5
le_featurewise_enable_action_fallback 1
le_featurewise_feature_weights 1,1,
le_featurewise_enable_dynamic_weight 0
le_featurewise_weight_gradient 0.001
le_featurewise_disable_adjust_weight_all_features_align 1
le_featurewise_selective_update 0
le_featurewise_pooling_type 2
le_featurewise_enable_dyn_action_fallback 1
le_featurewise_bw_acc_check_level 1
le_featurewise_acc_thresh 2
le_featurewise_enable_trace 0
le_featurewise_trace_feature_type 0
le_featurewise_trace_feature 
le_featurewise_trace_interval 0
le_featurewise_trace_record_count 0
le_featurewise_trace_file_name 
le_featurewise_enable_score_plot 0
le_featurewise_plot_actions 
le_featurewise_plot_file_name 


Heartbeat CPU  0 instructions:    1000000 cycles:     881786 heartbeat IPC: 1.13406 cumulative IPC: 1.13406 (Simulation time: 0 hr 0 min 3 sec) 
Heartbeat CPU  0 instructions:    2000000 cycles:    2009386 heartbeat IPC: 0.88684 cumulative IPC: 0.99533 (Simulation time: 0 hr 0 min 5 sec) 
Heartbeat CPU  0 instructions:    3000002 cycles:    3138811 heartbeat IPC: 0.88541 cumulative IPC: 0.95578 (Simulation time: 0 hr 0 min 8 sec) 
Heartbeat CPU  0 instructions:    4000000 cycles:    4427471 heartbeat IPC: 0.77600 cumulative IPC: 0.90345 (Simulation time: 0 hr 0 min 11 sec) 
Heartbeat CPU  0 instructions:    5000001 cycles:    5634710 heartbeat IPC: 0.82834 cumulative IPC: 0.88736 (Simulation time: 0 hr 0 min 14 sec) 
Heartbeat CPU  0 instructions:    6000000 cycles:    6852646 heartbeat IPC: 0.82106 cumulative IPC: 0.87557 (Simulation time: 0 hr 0 min 17 sec) 
Heartbeat CPU  0 instructions:    7000002 cycles:    8037354 heartbeat IPC: 0.84409 cumulative IPC: 0.87093 (Simulation time: 0 hr 0 min 20 sec) 
Heartbeat CPU  0 instructions:    8000000 cycles:    9361983 heartbeat IPC: 0.75493 cumulative IPC: 0.85452 (Simulation time: 0 hr 0 min 23 sec) 
Heartbeat CPU  0 instructions:    9000002 cycles:   10685949 heartbeat IPC: 0.75531 cumulative IPC: 0.84223 (Simulation time: 0 hr 0 min 26 sec) 
Heartbeat CPU  0 instructions:   10000000 cycles:   11975142 heartbeat IPC: 0.77568 cumulative IPC: 0.83506 (Simulation time: 0 hr 0 min 29 sec) 

Warmup complete CPU  0 instructions:   10000003 cycles:   11975143 (Simulation time: 0 hr 0 min 29 sec) 

Heartbeat CPU  0 instructions:   11000001 cycles:   22474624 heartbeat IPC: 0.09524 cumulative IPC: 0.09524 (Simulation time: 0 hr 0 min 34 sec) 
Heartbeat CPU  0 instructions:   12000000 cycles:   36445938 heartbeat IPC: 0.07158 cumulative IPC: 0.08173 (Simulation time: 0 hr 0 min 41 sec) 
Heartbeat CPU  0 instructions:   13000001 cycles:   50467870 heartbeat IPC: 0.07132 cumulative IPC: 0.07794 (Simulation time: 0 hr 0 min 47 sec) 
Heartbeat CPU  0 instructions:   14000003 cycles:   60894329 heartbeat IPC: 0.09591 cumulative IPC: 0.08177 (Simulation time: 0 hr 0 min 53 sec) 
Heartbeat CPU  0 instructions:   15000002 cycles:   71194113 heartbeat IPC: 0.09709 cumulative IPC: 0.08443 (Simulation time: 0 hr 0 min 58 sec) 
Heartbeat CPU  0 instructions:   16000000 cycles:   80883692 heartbeat IPC: 0.10320 cumulative IPC: 0.08707 (Simulation time: 0 hr 1 min 4 sec) 
Heartbeat CPU  0 instructions:   17000000 cycles:   90896452 heartbeat IPC: 0.09987 cumulative IPC: 0.08870 (Simulation time: 0 hr 1 min 9 sec) 
Heartbeat CPU  0 instructions:   18000002 cycles:  100665519 heartbeat IPC: 0.10236 cumulative IPC: 0.09020 (Simulation time: 0 hr 1 min 15 sec) 
Heartbeat CPU  0 instructions:   19000000 cycles:  110660128 heartbeat IPC: 0.10005 cumulative IPC: 0.09120 (Simulation time: 0 hr 1 min 20 sec) 
Heartbeat CPU  0 instructions:   20000000 cycles:  120633723 heartbeat IPC: 0.10026 cumulative IPC: 0.09203 (Simulation time: 0 hr 1 min 26 sec) 
Heartbeat CPU  0 instructions:   21000000 cycles:  130219106 heartbeat IPC: 0.10433 cumulative IPC: 0.09303 (Simulation time: 0 hr 1 min 31 sec) 
Heartbeat CPU  0 instructions:   22000000 cycles:  139641486 heartbeat IPC: 0.10613 cumulative IPC: 0.09399 (Simulation time: 0 hr 1 min 37 sec) 
Heartbeat CPU  0 instructions:   23000003 cycles:  149718714 heartbeat IPC: 0.09923 cumulative IPC: 0.09438 (Simulation time: 0 hr 1 min 42 sec) 
Heartbeat CPU  0 instructions:   24000000 cycles:  159650493 heartbeat IPC: 0.10069 cumulative IPC: 0.09480 (Simulation time: 0 hr 1 min 48 sec) 
Heartbeat CPU  0 instructions:   25000002 cycles:  169899408 heartbeat IPC: 0.09757 cumulative IPC: 0.09498 (Simulation time: 0 hr 1 min 53 sec) 
Heartbeat CPU  0 instructions:   26000000 cycles:  180534476 heartbeat IPC: 0.09403 cumulative IPC: 0.09492 (Simulation time: 0 hr 1 min 59 sec) 
Heartbeat CPU  0 instructions:   27000003 cycles:  190997810 heartbeat IPC: 0.09557 cumulative IPC: 0.09496 (Simulation time: 0 hr 2 min 4 sec) 
Heartbeat CPU  0 instructions:   28000000 cycles:  201796690 heartbeat IPC: 0.09260 cumulative IPC: 0.09483 (Simulation time: 0 hr 2 min 10 sec) 
Heartbeat CPU  0 instructions:   29000000 cycles:  212489166 heartbeat IPC: 0.09352 cumulative IPC: 0.09476 (Simulation time: 0 hr 2 min 16 sec) 
Heartbeat CPU  0 instructions:   30000000 cycles:  222922068 heartbeat IPC: 0.09585 cumulative IPC: 0.09481 (Simulation time: 0 hr 2 min 22 sec) 
Heartbeat CPU  0 instructions:   31000000 cycles:  233309887 heartbeat IPC: 0.09627 cumulative IPC: 0.09488 (Simulation time: 0 hr 2 min 27 sec) 
Heartbeat CPU  0 instructions:   32000000 cycles:  243534421 heartbeat IPC: 0.09780 cumulative IPC: 0.09501 (Simulation time: 0 hr 2 min 33 sec) 
Heartbeat CPU  0 instructions:   33000002 cycles:  254029206 heartbeat IPC: 0.09529 cumulative IPC: 0.09502 (Simulation time: 0 hr 2 min 38 sec) 
Heartbeat CPU  0 instructions:   34000000 cycles:  264457018 heartbeat IPC: 0.09590 cumulative IPC: 0.09506 (Simulation time: 0 hr 2 min 44 sec) 
Heartbeat CPU  0 instructions:   35000000 cycles:  276788424 heartbeat IPC: 0.08109 cumulative IPC: 0.09441 (Simulation time: 0 hr 2 min 50 sec) 
Heartbeat CPU  0 instructions:   36000000 cycles:  292102473 heartbeat IPC: 0.06530 cumulative IPC: 0.09281 (Simulation time: 0 hr 2 min 57 sec) 
Heartbeat CPU  0 instructions:   37000002 cycles:  302697069 heartbeat IPC: 0.09439 cumulative IPC: 0.09287 (Simulation time: 0 hr 3 min 2 sec) 
Heartbeat CPU  0 instructions:   38000000 cycles:  313038507 heartbeat IPC: 0.09670 cumulative IPC: 0.09300 (Simulation time: 0 hr 3 min 8 sec) 
Heartbeat CPU  0 instructions:   39000000 cycles:  323365801 heartbeat IPC: 0.09683 cumulative IPC: 0.09313 (Simulation time: 0 hr 3 min 14 sec) 
Heartbeat CPU  0 instructions:   40000000 cycles:  333731238 heartbeat IPC: 0.09647 cumulative IPC: 0.09324 (Simulation time: 0 hr 3 min 19 sec) 
Heartbeat CPU  0 instructions:   41000000 cycles:  344006226 heartbeat IPC: 0.09732 cumulative IPC: 0.09336 (Simulation time: 0 hr 3 min 25 sec) 
Heartbeat CPU  0 instructions:   42000000 cycles:  354380243 heartbeat IPC: 0.09639 cumulative IPC: 0.09346 (Simulation time: 0 hr 3 min 31 sec) 
Heartbeat CPU  0 instructions:   43000000 cycles:  364611589 heartbeat IPC: 0.09774 cumulative IPC: 0.09358 (Simulation time: 0 hr 3 min 36 sec) 
Heartbeat CPU  0 instructions:   44000000 cycles:  375047902 heartbeat IPC: 0.09582 cumulative IPC: 0.09365 (Simulation time: 0 hr 3 min 42 sec) 
Heartbeat CPU  0 instructions:   45000001 cycles:  385397386 heartbeat IPC: 0.09662 cumulative IPC: 0.09373 (Simulation time: 0 hr 3 min 48 sec) 
Heartbeat CPU  0 instructions:   46000002 cycles:  395693736 heartbeat IPC: 0.09712 cumulative IPC: 0.09382 (Simulation time: 0 hr 3 min 53 sec) 
Heartbeat CPU  0 instructions:   47000002 cycles:  405902370 heartbeat IPC: 0.09796 cumulative IPC: 0.09393 (Simulation time: 0 hr 3 min 59 sec) 
Heartbeat CPU  0 instructions:   48000000 cycles:  415922149 heartbeat IPC: 0.09980 cumulative IPC: 0.09407 (Simulation time: 0 hr 4 min 5 sec) 
Heartbeat CPU  0 instructions:   49000000 cycles:  426236970 heartbeat IPC: 0.09695 cumulative IPC: 0.09414 (Simulation time: 0 hr 4 min 10 sec) 
Heartbeat CPU  0 instructions:   50000002 cycles:  436613678 heartbeat IPC: 0.09637 cumulative IPC: 0.09420 (Simulation time: 0 hr 4 min 16 sec) 
Heartbeat CPU  0 instructions:   51000002 cycles:  446882997 heartbeat IPC: 0.09738 cumulative IPC: 0.09427 (Simulation time: 0 hr 4 min 22 sec) 
Heartbeat CPU  0 instructions:   52000000 cycles:  457135362 heartbeat IPC: 0.09754 cumulative IPC: 0.09435 (Simulation time: 0 hr 4 min 27 sec) 
Heartbeat CPU  0 instructions:   53000000 cycles:  467374367 heartbeat IPC: 0.09767 cumulative IPC: 0.09442 (Simulation time: 0 hr 4 min 33 sec) 
Heartbeat CPU  0 instructions:   54000000 cycles:  477545014 heartbeat IPC: 0.09832 cumulative IPC: 0.09451 (Simulation time: 0 hr 4 min 38 sec) 
Heartbeat CPU  0 instructions:   55000000 cycles:  487816463 heartbeat IPC: 0.09736 cumulative IPC: 0.09457 (Simulation time: 0 hr 4 min 44 sec) 
Heartbeat CPU  0 instructions:   56000000 cycles:  498373502 heartbeat IPC: 0.09472 cumulative IPC: 0.09457 (Simulation time: 0 hr 4 min 50 sec) 
Heartbeat CPU  0 instructions:   57000000 cycles:  508784452 heartbeat IPC: 0.09605 cumulative IPC: 0.09460 (Simulation time: 0 hr 4 min 56 sec) 
Heartbeat CPU  0 instructions:   58000000 cycles:  518968879 heartbeat IPC: 0.09819 cumulative IPC: 0.09468 (Simulation time: 0 hr 5 min 1 sec) 
Heartbeat CPU  0 instructions:   59000002 cycles:  529153644 heartbeat IPC: 0.09819 cumulative IPC: 0.09474 (Simulation time: 0 hr 5 min 7 sec) 
Heartbeat CPU  0 instructions:   60000000 cycles:  539246282 heartbeat IPC: 0.09908 cumulative IPC: 0.09483 (Simulation time: 0 hr 5 min 12 sec) 
Finished CPU 0 instructions: 50000001 cycles: 527271218 cumulative IPC: 0.09483 (Simulation time: 0 hr 5 min 12 sec) 

ChampSim completed all CPUs

[ROI Statistics]
Core_0_instructions 50000001
Core_0_cycles 527271218
Core_0_IPC 0.09483

Core_0_branch_prediction_accuracy 92.63452
Core_0_branch_MPKI 22.60140
Core_0_average_ROB_occupancy_at_mispredict 42.52532

Core_0_L1D_total_access 10424073
Core_0_L1D_total_hit 983598
Core_0_L1D_total_miss 9440475
Core_0_L1D_loads 10185586
Core_0_L1D_load_hit 760338
Core_0_L1D_load_miss 9425248
Core_0_L1D_RFOs 238487
Core_0_L1D_RFO_hit 223260
Core_0_L1D_RFO_miss 15227
Core_0_L1D_prefetches 0
Core_0_L1D_prefetch_hit 0
Core_0_L1D_prefetch_miss 0
Core_0_L1D_writebacks 0
Core_0_L1D_writeback_hit 0
Core_0_L1D_writeback_miss 0
Core_0_L1D_prefetch_requested 0
Core_0_L1D_prefetch_dropped 0
Core_0_L1D_prefetch_issued 0
Core_0_L1D_prefetch_filled 0
Core_0_L1D_prefetch_useful 0
Core_0_L1D_prefetch_useless 0
Core_0_L1D_prefetch_late 0
Core_0_L1D_average_miss_latency 70.60785

Core_0_L1D_rq_access 19897731
Core_0_L1D_rq_forward 0
Core_0_L1D_rq_merged 9513748
Core_0_L1D_rq_to_cache 10383983
Core_0_L1D_rq_full 0

Core_0_L1D_wq_access 254386
Core_0_L1D_wq_forward 0
Core_0_L1D_wq_merged 13911
Core_0_L1D_wq_to_cache 240475
Core_0_L1D_wq_full 0

Core_0_L1D_pq_access 0
Core_0_L1D_pq_forward 0
Core_0_L1D_pq_merged 0
Core_0_L1D_pq_to_cache 0
Core_0_L1D_pq_full 0

Core_0_L1D_acc_epochs 507947
Core_0_L1D_acc_level_0 507947
Core_0_L1D_acc_level_1 0
Core_0_L1D_acc_level_2 0
Core_0_L1D_acc_level_3 0
Core_0_L1D_acc_level_4 0
Core_0_L1D_acc_level_5 0
Core_0_L1D_acc_level_6 0
Core_0_L1D_acc_level_7 0
Core_0_L1D_acc_level_8 0
Core_0_L1D_acc_level_9 0

Core_0_L1I_total_access 9341920
Core_0_L1I_total_hit 9341920
Core_0_L1I_total_miss 0
Core_0_L1I_loads 9341920
Core_0_L1I_load_hit 9341920
Core_0_L1I_load_miss 0
Core_0_L1I_RFOs 0
Core_0_L1I_RFO_hit 0
Core_0_L1I_RFO_miss 0
Core_0_L1I_prefetches 0
Core_0_L1I_prefetch_hit 0
Core_0_L1I_prefetch_miss 0
Core_0_L1I_writebacks 0
Core_0_L1I_writeback_hit 0
Core_0_L1I_writeback_miss 0
Core_0_L1I_prefetch_requested 0
Core_0_L1I_prefetch_dropped 0
Core_0_L1I_prefetch_issued 0
Core_0_L1I_prefetch_filled 0
Core_0_L1I_prefetch_useful 0
Core_0_L1I_prefetch_useless 0
Core_0_L1I_prefetch_late 0
Core_0_L1I_average_miss_latency -nan

Core_0_L1I_rq_access 50000010
Core_0_L1I_rq_forward 0
Core_0_L1I_rq_merged 40658090
Core_0_L1I_rq_to_cache 9341920
Core_0_L1I_rq_full 0

Core_0_L1I_wq_access 0
Core_0_L1I_wq_forward 0
Core_0_L1I_wq_merged 0
Core_0_L1I_wq_to_cache 0
Core_0_L1I_wq_full 0

Core_0_L1I_pq_access 0
Core_0_L1I_pq_forward 0
Core_0_L1I_pq_merged 0
Core_0_L1I_pq_to_cache 0
Core_0_L1I_pq_full 0

Core_0_L1I_acc_epochs 507947
Core_0_L1I_acc_level_0 507947
Core_0_L1I_acc_level_1 0
Core_0_L1I_acc_level_2 0
Core_0_L1I_acc_level_3 0
Core_0_L1I_acc_level_4 0
Core_0_L1I_acc_level_5 0
Core_0_L1I_acc_level_6 0
Core_0_L1I_acc_level_7 0
Core_0_L1I_acc_level_8 0
Core_0_L1I_acc_level_9 0

Core_0_L2C_total_access 18252230
Core_0_L2C_total_hit 5638029
Core_0_L2C_total_miss 12614201
Core_0_L2C_loads 9425247
Core_0_L2C_load_hit 4041585
Core_0_L2C_load_miss 5383662
Core_0_L2C_RFOs 15227
Core_0_L2C_RFO_hit 2661
Core_0_L2C_RFO_miss 12566
Core_0_L2C_prefetches 8677945
Core_0_L2C_prefetch_hit 1460315
Core_0_L2C_prefetch_miss 7217630
Core_0_L2C_writebacks 133811
Core_0_L2C_writeback_hit 133468
Core_0_L2C_writeback_miss 343
Core_0_L2C_prefetch_requested 10520053
Core_0_L2C_prefetch_dropped 1245
Core_0_L2C_prefetch_issued 10518808
Core_0_L2C_prefetch_filled 8618205
Core_0_L2C_prefetch_useful 3021725
Core_0_L2C_prefetch_useless 5594908
Core_0_L2C_prefetch_late 963
Core_0_L2C_average_miss_latency 266.68725

Core_0_L2C_rq_access 9440476
Core_0_L2C_rq_forward 0
Core_0_L2C_rq_merged 0
Core_0_L2C_rq_to_cache 9440475
Core_0_L2C_rq_full 0

Core_0_L2C_wq_access 133811
Core_0_L2C_wq_forward 1
Core_0_L2C_wq_merged 0
Core_0_L2C_wq_to_cache 133811
Core_0_L2C_wq_full 0

Core_0_L2C_pq_access 10518808
Core_0_L2C_pq_forward 0
Core_0_L2C_pq_merged 31726
Core_0_L2C_pq_to_cache 10487082
Core_0_L2C_pq_full 0

Core_0_L2C_acc_epochs 507947
Core_0_L2C_acc_level_0 19421
Core_0_L2C_acc_level_1 46124
Core_0_L2C_acc_level_2 106461
Core_0_L2C_acc_level_3 199482
Core_0_L2C_acc_level_4 106214
Core_0_L2C_acc_level_5 22658
Core_0_L2C_acc_level_6 4848
Core_0_L2C_acc_level_7 1471
Core_0_L2C_acc_level_8 602
Core_0_L2C_acc_level_9 666

Core_0_LLC_total_access 12744097
Core_0_LLC_total_hit 7732291
Core_0_LLC_total_miss 5011806
Core_0_LLC_loads 5382975
Core_0_LLC_load_hit 4144403
Core_0_LLC_load_miss 1238572
Core_0_LLC_RFOs 12563
Core_0_LLC_RFO_hit 5025
Core_0_LLC_RFO_miss 7538
Core_0_LLC_prefetches 7218320
Core_0_LLC_prefetch_hit 3489303
Core_0_LLC_prefetch_miss 3729017
Core_0_LLC_writebacks 130239
Core_0_LLC_writeback_hit 93560
Core_0_LLC_writeback_miss 36679
Core_0_LLC_prefetch_requested 0
Core_0_LLC_prefetch_dropped 0
Core_0_LLC_prefetch_issued 0
Core_0_LLC_prefetch_filled 4490498
Core_0_LLC_prefetch_useful 447163
Core_0_LLC_prefetch_useless 4030688
Core_0_LLC_prefetch_late 0
Core_0_LLC_average_miss_latency 593.32379

Core_0_LLC_rq_access 5395540
Core_0_LLC_rq_forward 0
Core_0_LLC_rq_merged 0
Core_0_LLC_rq_to_cache 5395539
Core_0_LLC_rq_full 0

Core_0_LLC_wq_access 130239
Core_0_LLC_wq_forward 2
Core_0_LLC_wq_merged 0
Core_0_LLC_wq_to_cache 130239
Core_0_LLC_wq_full 0

Core_0_LLC_pq_access 8619171
Core_0_LLC_pq_forward 0
Core_0_LLC_pq_merged 0
Core_0_LLC_pq_to_cache 8619169
Core_0_LLC_pq_full 0

Core_0_LLC_acc_epochs 526608
Core_0_LLC_acc_level_0 317204
Core_0_LLC_acc_level_1 150101
Core_0_LLC_acc_level_2 42610
Core_0_LLC_acc_level_3 10877
Core_0_LLC_acc_level_4 2760
Core_0_LLC_acc_level_5 1774
Core_0_LLC_acc_level_6 521
Core_0_LLC_acc_level_7 258
Core_0_LLC_acc_level_8 137
Core_0_LLC_acc_level_9 366

Core_0_major_page_fault 0
Core_0_minor_page_fault 74348

scooby_st_lookup 11159633
scooby_st_hit 780383
scooby_st_evict 10379186
scooby_st_insert 10379250
scooby_st_streaming 0

scooby_predict_called 11159633
scooby_predict_out_of_bounds 176352
scooby_predict_action_1 10231963
scooby_predict_issue_action_1 10226215
scooby_predict_hit_action_1 5748
scooby_predict_out_of_bounds_action_1 151534
scooby_predict_action_3 11335
scooby_predict_issue_action_3 10671
scooby_predict_hit_action_3 664
scooby_predict_out_of_bounds_action_3 506
scooby_predict_action_4 10591
scooby_predict_issue_action_4 10157
scooby_predict_hit_action_4 434
scooby_predict_out_of_bounds_action_4 697
scooby_predict_action_5 10933
scooby_predict_issue_action_5 10338
scooby_predict_hit_action_5 595
scooby_predict_out_of_bounds_action_5 876
scooby_predict_action_10 8854
scooby_predict_issue_action_10 8538
scooby_predict_hit_action_10 316
scooby_predict_out_of_bounds_action_10 1562
scooby_predict_action_11 8997
scooby_predict_issue_action_11 8484
scooby_predict_hit_action_11 513
scooby_predict_out_of_bounds_action_11 1787
scooby_predict_action_12 8460
scooby_predict_issue_action_12 8059
scooby_predict_hit_action_12 401
scooby_predict_out_of_bounds_action_12 1915
scooby_predict_action_22 6185
scooby_predict_issue_action_22 5794
scooby_predict_hit_action_22 391
scooby_predict_out_of_bounds_action_22 3310
scooby_predict_action_23 5941
scooby_predict_issue_action_23 5730
scooby_predict_hit_action_23 211
scooby_predict_out_of_bounds_action_23 3322
scooby_predict_action_30 4791
scooby_predict_issue_action_30 4488
scooby_predict_hit_action_30 303
scooby_predict_out_of_bounds_action_30 4272
scooby_predict_action_32 4245
scooby_predict_issue_action_32 4056
scooby_predict_hit_action_32 189
scooby_predict_out_of_bounds_action_32 4507
scooby_predict_action_-1 34804
scooby_predict_issue_action_-1 32840
scooby_predict_hit_action_-1 1964
scooby_predict_out_of_bounds_action_-1 635
scooby_predict_action_-3 11131
scooby_predict_issue_action_-3 10575
scooby_predict_hit_action_-3 556
scooby_predict_out_of_bounds_action_-3 505
scooby_predict_action_-6 10526
scooby_predict_issue_action_-6 10101
scooby_predict_hit_action_-6 425
scooby_predict_out_of_bounds_action_-6 924
scooby_predict_action_0 614525
scooby_predict_issue_action_0 0
scooby_predict_hit_action_0 0
scooby_predict_out_of_bounds_action_0 0
scooby_predict_multi_deg_called 74220
scooby_predict_predicted 10520053
scooby_predict_multi_deg 164007
scooby_predict_multi_deg_2 72896
scooby_predict_multi_deg_3 35645
scooby_predict_multi_deg_4 34997
scooby_predict_multi_deg_5 10358
scooby_predict_multi_deg_6 10111
scooby_predict_multi_deg_7 0
scooby_predict_multi_deg_8 0
scooby_predict_multi_deg_9 0
scooby_predict_multi_deg_10 0
scooby_predict_multi_deg_11 0
scooby_predict_multi_deg_12 0
scooby_predict_multi_deg_13 0
scooby_predict_multi_deg_14 0
scooby_predict_multi_deg_15 0
scooby_predict_multi_deg_16 0

scooby_selected_deg_1 10281826
scooby_selected_deg_2 37286
scooby_selected_deg_3 0
scooby_selected_deg_4 25880
scooby_selected_deg_5 0
scooby_selected_deg_6 11054
scooby_selected_deg_7 0
scooby_selected_deg_8 0
scooby_selected_deg_9 0
scooby_selected_deg_10 0
scooby_selected_deg_11 0
scooby_selected_deg_12 0
scooby_selected_deg_13 0
scooby_selected_deg_14 0
scooby_selected_deg_15 0
scooby_selected_deg_16 0

scooby_state_4037c1|43|0 64276,10,13,21,13,11,13,13,13,9,16,9,12,13,5787,70229,
scooby_state_4037c1|13|0 63084,10,15,10,12,14,12,8,11,11,6,17,14,23,5356,68603,
scooby_state_4037c1|51|0 57407,11,15,16,11,11,11,14,5,11,13,12,9,12,4648,62206,
scooby_state_4037c1|48|0 56516,18,11,13,15,7,13,12,12,12,15,17,6,12,4503,61182,
scooby_state_4037c1|37|0 55702,13,12,12,11,16,7,12,5,9,8,12,15,5,4208,60047,
scooby_state_4037ba|33|0 55691,9,8,11,12,15,16,7,9,10,7,9,11,8,3181,59004,
scooby_state_4037ba|16|0 54922,8,8,11,7,11,16,9,18,4,8,9,10,5,3127,58173,
scooby_state_4037c1|39|0 53115,7,8,14,8,13,4,12,9,6,7,12,16,11,4087,57329,
scooby_state_4037c1|6|0 52740,6,13,3,3,18,10,11,18,10,3,7,13,14,4350,57219,
scooby_state_4037aa|2|0 54328,11,8,14,8,18,18,19,6,8,7,6,11,10,2528,57000,
scooby_state_4037aa|11|0 54460,8,12,5,6,7,3,7,16,17,8,7,22,10,2412,57000,
scooby_state_4037aa|35|0 54453,9,13,5,9,9,7,7,17,19,2,9,24,15,2402,57000,
scooby_state_4037aa|10|0 54337,7,7,10,13,17,17,21,7,7,6,6,8,3,2534,57000,
scooby_state_4037aa|53|0 54822,12,4,14,6,7,4,6,8,7,6,13,12,9,2070,57000,
scooby_state_4037aa|9|0 54495,15,19,18,21,10,14,10,11,6,9,7,10,8,2347,57000,
scooby_state_4037aa|57|0 54445,15,16,13,17,7,9,11,6,8,8,12,8,6,2419,57000,
scooby_state_4037aa|3|0 54453,12,10,8,4,5,4,4,17,22,5,2,20,15,2419,57000,
scooby_state_4037aa|18|0 54300,6,2,12,7,21,16,21,11,5,9,7,9,6,2568,57000,
scooby_state_4037aa|1|0 54529,19,20,15,16,4,18,9,8,9,5,4,7,6,2331,57000,
scooby_state_4037aa|27|0 54431,6,10,6,5,7,12,11,13,22,7,8,22,13,2427,57000,
scooby_state_4037aa|50|0 54283,4,7,5,14,19,18,17,12,11,5,11,11,8,2574,56999,
scooby_state_4037aa|19|0 54481,5,13,8,2,7,6,3,18,20,10,5,19,18,2384,56999,
scooby_state_4037aa|21|0 54838,9,13,8,5,12,8,4,12,5,3,14,9,8,2051,56999,
scooby_state_4037aa|33|0 54492,15,23,15,13,7,15,8,3,7,5,8,8,6,2374,56999,
scooby_state_4037aa|4|0 54630,9,6,5,5,8,9,5,13,9,17,19,11,12,2241,56999,
scooby_state_4037aa|43|0 54439,6,8,14,6,8,2,10,20,16,15,12,20,11,2412,56999,
scooby_state_4037aa|12|0 54685,6,9,7,9,8,9,7,8,8,21,17,3,18,2184,56999,
scooby_state_4037aa|28|0 54680,12,4,5,3,7,10,6,11,7,19,14,3,12,2206,56999,
scooby_state_4037aa|20|0 54667,12,12,10,13,5,12,5,6,7,13,19,5,11,2202,56999,
scooby_state_4037aa|59|0 54445,11,14,6,7,6,7,6,14,20,6,8,22,13,2414,56999,
scooby_state_4037aa|13|0 54837,8,9,12,8,7,6,6,7,7,5,11,5,5,2066,56999,
scooby_state_4037aa|5|0 54840,6,11,7,11,6,9,9,6,7,6,7,6,10,2058,56999,
scooby_state_4037aa|42|0 54309,7,4,10,7,20,20,18,8,5,7,6,3,10,2565,56999,
scooby_state_4037aa|36|0 54686,11,7,13,4,5,3,9,9,11,19,20,7,14,2180,56998,
scooby_state_4037aa|25|0 54516,18,15,14,17,14,11,7,10,8,10,7,7,5,2339,56998,
scooby_state_4037aa|37|0 54804,11,10,8,9,11,5,11,2,2,8,15,11,13,2078,56998,
scooby_state_4037aa|44|0 54661,6,6,12,7,10,5,3,9,9,18,18,8,15,2211,56998,
scooby_state_4037aa|26|0 54254,4,12,9,15,18,23,16,11,9,7,10,6,7,2597,56998,
scooby_state_4037aa|29|0 54828,8,7,11,8,8,4,6,5,8,8,9,5,10,2073,56998,
scooby_state_4037aa|60|0 54679,8,7,6,5,10,16,2,1,8,19,17,7,17,2195,56997,
scooby_state_4037aa|49|0 54548,11,19,18,14,8,10,6,6,5,4,5,9,12,2322,56997,
scooby_state_4037aa|17|0 54417,17,20,20,18,7,10,14,4,7,3,5,8,9,2438,56997,
scooby_state_4037aa|41|0 54525,16,19,15,18,11,11,8,4,14,8,6,6,9,2327,56997,
scooby_state_4037aa|34|0 54321,4,6,8,10,23,18,12,5,7,9,8,12,8,2546,56997,
scooby_state_4037aa|61|0 54865,7,9,14,8,6,10,8,6,11,9,16,4,15,2009,56997,
scooby_state_4037aa|45|0 54840,5,9,6,7,3,7,1,8,7,6,9,5,12,2072,56997,
scooby_state_4037aa|52|0 54673,8,12,10,4,6,3,5,8,10,15,18,5,16,2204,56997,
scooby_state_4037aa|51|0 54451,7,11,9,7,3,5,7,12,18,14,8,16,12,2416,56996,
scooby_state_4037aa|58|0 54286,3,4,7,12,17,19,23,10,11,6,7,5,10,2576,56996,
scooby_state_4037aa|8|0 54111,10,7,5,14,15,7,6,5,10,3,8,13,6,2759,56979,
scooby_state_4037aa|0|0 54469,14,3,4,10,9,4,7,8,5,9,12,8,8,2409,56979,
scooby_state_4037aa|48|0 54160,9,5,5,14,12,12,8,7,9,7,6,9,14,2701,56978,
scooby_state_4037aa|16|0 54013,15,13,10,8,16,13,6,5,7,5,10,8,3,2846,56978,
scooby_state_4037aa|56|0 53997,14,5,6,9,16,11,5,8,5,4,7,13,11,2866,56977,
scooby_state_4037aa|40|0 54071,16,9,6,14,9,12,7,7,12,7,10,9,7,2780,56976,
scooby_state_4037aa|24|0 54286,14,5,11,13,9,7,5,5,7,2,14,9,8,2581,56976,
scooby_state_4037aa|32|0 54118,12,7,11,7,16,13,4,8,13,6,9,10,10,2731,56975,
scooby_state_4037aa|38|0 54207,10,2,6,1,9,6,6,9,5,8,3,6,5,2681,56964,
scooby_state_4037aa|6|0 54249,8,7,3,5,6,7,7,8,4,7,9,7,7,2629,56963,
scooby_state_4037aa|62|0 54186,7,7,8,5,8,5,10,5,8,8,8,9,2,2687,56963,
scooby_state_4037aa|7|0 55236,7,6,9,3,4,10,9,6,4,7,6,11,7,1637,56962,
scooby_state_4037aa|14|0 54201,9,8,11,10,4,7,7,6,9,6,8,14,7,2655,56962,
scooby_state_4037aa|31|0 55159,8,11,9,6,1,4,10,6,4,10,5,16,8,1705,56962,
scooby_state_4037aa|46|0 54257,7,11,15,3,6,7,3,6,6,8,3,5,14,2611,56962,
scooby_state_4037aa|30|0 54267,10,4,4,10,6,10,6,10,4,11,8,4,8,2599,56961,
scooby_state_4037aa|22|0 54181,4,9,5,5,8,5,12,7,3,9,8,4,8,2693,56961,
scooby_state_4037aa|15|0 54966,3,5,5,9,16,6,12,7,5,6,7,6,13,1895,56961,
scooby_state_4037aa|63|0 54832,4,7,4,7,6,8,12,6,8,7,6,6,8,2039,56960,
scooby_state_4037aa|23|0 55039,6,8,9,10,3,8,5,13,4,2,8,4,10,1831,56960,
scooby_state_4037aa|55|0 55086,10,7,7,3,6,8,5,6,10,6,7,7,8,1784,56960,
scooby_state_4037aa|54|0 54206,3,5,4,9,7,12,12,6,7,10,5,6,6,2662,56960,
scooby_state_4037aa|47|0 55175,10,5,6,9,5,10,6,10,6,8,9,6,13,1682,56960,
scooby_state_4037aa|39|0 54848,8,4,9,8,4,10,6,7,5,6,9,11,11,2013,56959,
scooby_state_4037ba|17|0 53200,8,8,11,10,10,15,10,10,7,10,7,8,12,3003,56329,
scooby_state_4037ba|50|0 52693,12,13,15,8,11,6,10,10,10,7,10,12,12,2925,55754,
scooby_state_4037ba|52|0 52738,4,13,6,11,8,12,12,8,2,10,13,8,7,2878,55730,
scooby_state_4037ba|9|0 52696,16,15,9,9,5,5,11,9,9,7,6,9,9,2821,55636,
scooby_state_4037ba|34|0 52543,11,9,14,9,7,11,12,6,9,5,9,9,6,2868,55528,
scooby_state_4037ba|39|0 52389,6,6,10,6,9,10,9,13,5,11,12,10,9,2962,55467,
scooby_state_4037ba|4|0 52215,12,7,11,12,10,11,9,10,10,8,14,9,12,2943,55293,
scooby_state_4037ba|48|0 52043,9,14,5,8,7,13,7,6,9,11,9,10,13,2930,55094,
scooby_state_4037ba|13|0 52108,6,7,8,12,7,9,9,10,8,13,15,7,12,2844,55075,
scooby_state_4037ba|6|0 52052,4,9,7,4,13,5,8,10,11,8,13,16,5,2833,54998,
scooby_state_4037c1|17|0 50823,11,12,13,12,12,12,12,8,8,9,27,3,9,4006,54977,
scooby_state_4037ba|51|0 52003,14,10,11,8,7,3,7,4,6,7,9,6,9,2855,54959,
scooby_state_4037ba|54|0 51983,7,15,13,12,9,10,11,10,9,9,8,12,4,2775,54887,
scooby_state_4037ba|58|0 51782,8,8,10,13,5,8,6,7,7,11,9,9,6,2776,54665,
scooby_state_4037ba|8|0 51488,6,10,13,12,5,4,12,16,11,13,12,6,8,2736,54352,
scooby_state_4037ba|35|0 51472,7,8,11,8,11,15,7,11,7,5,5,7,10,2737,54321,
scooby_state_4037c1|42|0 50244,9,13,12,8,10,13,6,16,7,18,13,12,7,3890,54278,
scooby_state_4037ba|37|0 51344,5,9,8,10,9,15,14,5,5,5,6,7,8,2784,54234,
scooby_state_4037ba|22|0 51137,11,7,1,6,8,8,8,14,16,4,9,12,7,2887,54135,
scooby_state_4037ba|44|0 51073,8,10,12,13,12,13,10,8,12,5,16,12,4,2841,54049,
scooby_state_4037ba|25|0 50987,15,7,7,11,14,7,11,7,6,15,11,6,11,2743,53858,
scooby_state_4037ba|15|0 50872,11,9,7,5,15,8,10,9,10,9,6,10,7,2861,53849,
scooby_state_4037ba|40|0 50788,8,17,7,11,11,14,14,7,8,12,9,12,5,2709,53632,
scooby_state_4037ba|43|0 50630,7,15,11,15,8,8,7,12,9,11,7,11,12,2757,53520,
scooby_state_4037ba|7|0 50509,16,8,9,13,10,8,12,9,8,9,5,5,4,2869,53494,
scooby_state_4037c1|3|0 49219,6,3,11,12,8,8,11,10,11,7,14,12,5,3928,53265,
scooby_state_4037ba|41|0 50236,10,10,4,9,8,7,6,7,7,6,5,8,7,2809,53139,
scooby_state_4037c1|31|0 49165,13,12,4,6,13,9,6,9,5,10,8,7,9,3793,53069,
scooby_state_4037ba|12|0 50244,10,5,8,6,12,6,7,3,8,13,1,8,9,2701,53041,
scooby_state_4037ba|42|0 50091,7,17,7,6,11,10,8,8,8,5,8,14,9,2702,52911,
scooby_state_4037ba|45|0 49949,13,9,8,5,12,9,3,7,10,8,11,7,8,2788,52847,
scooby_state_4037ba|62|0 49878,13,15,6,9,16,14,11,14,11,14,7,12,10,2806,52836,
scooby_state_4037ba|61|0 50101,10,8,7,8,4,10,7,8,9,10,9,6,7,2617,52821,
scooby_state_4037ba|26|0 49839,10,8,10,7,14,13,8,5,4,14,8,7,11,2820,52778,
scooby_state_4037ba|60|0 49755,6,8,8,5,7,14,8,10,10,13,16,12,9,2808,52689,
scooby_state_4037c1|5|0 48835,12,17,10,7,9,8,5,12,10,14,12,11,11,3685,52658,
scooby_state_4037ba|14|0 49791,12,9,10,7,4,4,10,9,8,8,12,7,5,2734,52630,
scooby_state_4037c1|15|0 48690,11,14,10,9,13,9,5,5,7,12,7,12,4,3818,52626,
scooby_state_4037ba|36|0 49498,8,10,10,3,7,6,9,2,6,12,6,9,8,2775,52369,
scooby_state_4037c1|50|0 48814,16,11,8,8,8,9,3,7,10,11,7,22,8,3418,52360,
scooby_state_4037ba|38|0 49511,7,8,8,7,4,14,13,12,4,7,12,6,10,2619,52242,
scooby_state_4037c1|49|0 48316,12,11,15,9,10,6,8,13,8,9,5,11,6,3802,52241,
scooby_state_4037c1|45|0 48201,8,11,6,19,11,13,7,11,5,12,8,12,10,3874,52208,
scooby_state_4037ba|56|0 49362,11,10,12,6,6,8,10,10,11,10,5,15,6,2713,52195,
scooby_state_4037ba|31|0 49164,8,8,10,11,9,10,7,6,10,10,8,7,11,2749,52028,
scooby_state_4037c1|10|0 48321,3,10,17,11,9,8,9,5,11,8,12,8,10,3577,52019,
scooby_state_4037ba|20|0 49176,6,9,10,6,4,12,6,4,5,12,7,10,12,2725,52004,
scooby_state_4037ba|53|0 49115,9,12,9,8,13,14,8,9,6,9,4,4,11,2759,51990,
scooby_state_4037c1|24|0 48028,13,6,11,10,12,9,13,8,7,5,12,13,7,3761,51915,
scooby_state_4037ba|11|0 49105,13,9,9,13,11,6,5,7,7,4,9,9,9,2670,51886,
scooby_state_4037ba|3|0 49129,11,4,9,8,4,10,10,12,9,5,10,9,11,2605,51846,
scooby_state_4037ba|55|0 49068,9,7,9,11,9,7,11,4,5,10,10,10,4,2619,51793,
scooby_state_4037c1|8|0 47642,8,13,9,10,17,12,10,16,10,12,14,12,6,3988,51779,
scooby_state_4037ba|10|0 49020,9,12,9,5,12,7,9,11,5,7,14,9,16,2628,51773,
scooby_state_4037ba|0|0 48831,5,7,11,10,4,11,7,6,3,10,14,11,9,2648,51587,
scooby_state_4037c1|19|0 47479,7,11,9,11,9,12,10,10,8,11,5,10,11,3982,51585,
scooby_state_4037ba|32|0 48745,14,10,11,6,16,8,13,7,8,2,5,5,7,2571,51428,
scooby_state_4037ba|5|0 48570,10,3,16,7,10,10,7,7,6,11,5,13,9,2662,51346,
scooby_state_4037ba|29|0 48596,12,8,13,9,11,5,8,7,8,11,19,6,10,2580,51303,
scooby_state_4037c1|9|0 47339,8,4,9,14,7,11,16,10,9,10,10,8,11,3773,51239,
scooby_state_4037ba|24|0 48170,6,8,11,8,6,11,7,7,9,2,11,9,5,2640,50910,
scooby_state_4037ba|1|0 48075,10,6,10,9,8,1,8,7,6,8,9,10,10,2651,50828,
scooby_state_4037ba|28|0 47956,7,11,1,9,11,6,9,7,13,8,13,10,12,2672,50745,
scooby_state_4037ba|27|0 47951,9,10,10,16,10,9,6,18,5,8,15,3,7,2524,50601,
scooby_state_4037ba|2|0 47838,8,3,8,5,5,5,6,5,5,5,5,8,4,2568,50478,
scooby_state_4037c1|20|0 46664,5,17,11,14,9,18,6,6,19,8,9,13,8,3561,50368,
scooby_state_4037c1|2|0 46403,8,11,10,5,6,14,8,12,9,10,16,15,13,3708,50248,
scooby_state_4037c1|29|0 46454,12,11,14,9,10,11,9,11,11,4,12,5,9,3634,50216,
scooby_state_4037ba|19|0 47370,8,2,10,8,7,8,10,7,13,15,9,6,6,2560,50039,
scooby_state_4037c1|47|0 46133,11,14,11,11,15,13,14,5,4,4,11,5,7,3450,49708,
scooby_state_4037c1|40|0 46128,14,12,16,11,11,10,7,11,5,13,12,12,12,3357,49631,
scooby_state_4037ba|57|0 46724,12,8,11,9,7,7,9,2,9,10,6,6,6,2605,49431,
scooby_state_4037c1|11|0 45416,6,9,6,13,13,10,4,6,11,12,11,13,8,3850,49388,
scooby_state_4037ba|59|0 46816,3,6,8,8,7,7,6,3,5,13,9,7,13,2470,49381,
scooby_state_4037c1|23|0 46000,8,8,11,13,17,8,8,9,9,12,9,13,4,3205,49334,
scooby_state_4037ba|21|0 46630,7,7,14,4,5,6,10,5,8,9,11,6,7,2510,49239,
scooby_state_4037c1|30|0 45596,16,8,6,13,5,7,9,8,7,8,13,10,10,3485,49201,
scooby_state_4037ba|18|0 46597,11,7,8,11,10,3,10,10,7,8,12,4,9,2489,49196,
scooby_state_4037ba|49|0 46274,5,7,7,7,4,6,7,2,7,13,6,8,11,2489,48853,
scooby_state_4037ba|63|0 46018,9,8,4,8,10,15,9,6,9,6,9,7,11,2479,48608,
scooby_state_4037ba|23|0 45970,10,8,7,8,6,7,13,7,12,9,15,7,10,2500,48589,
scooby_state_4037c1|1|0 44949,7,7,9,10,9,6,15,10,7,7,14,4,9,3484,48547,
scooby_state_4037ba|47|0 45583,9,6,8,6,7,5,7,4,7,8,6,5,12,2462,48135,
scooby_state_4037c1|61|0 44527,10,9,5,7,5,9,7,6,8,9,8,8,13,3338,47969,
scooby_state_4037c1|44|0 43809,8,8,7,9,4,10,6,7,8,10,7,6,5,3913,47817,
scooby_state_4037c1|16|0 44120,10,10,10,11,8,3,5,12,6,11,11,9,9,3339,47574,
scooby_state_4037ba|30|0 45001,4,7,6,11,6,4,6,12,8,10,7,6,8,2466,47562,
scooby_state_4037ba|46|0 44929,6,11,5,4,6,11,12,9,7,11,4,7,10,2461,47493,
scooby_state_4037c1|46|0 43801,7,14,8,3,9,9,10,7,10,8,12,7,7,3347,47259,
scooby_state_4037c1|4|0 43928,6,3,6,6,6,12,11,9,7,8,4,12,11,3138,47167,
scooby_state_4037c1|32|0 43378,7,8,4,15,6,8,7,8,11,6,9,5,13,3356,46841,
scooby_state_4037c1|7|0 43116,6,7,10,6,6,13,10,10,5,8,6,9,11,3481,46704,
scooby_state_4037c1|57|0 42667,7,7,9,7,5,14,11,6,5,8,4,14,7,3529,46300,
scooby_state_4037c1|21|0 42648,9,7,12,4,9,7,10,5,9,7,9,6,9,3393,46144,
scooby_state_4037c1|12|0 42581,6,11,8,10,15,8,6,7,9,6,12,10,12,3386,46087,
scooby_state_4037c1|34|0 42584,8,6,6,5,11,9,8,11,9,4,8,8,2,2988,45667,
scooby_state_4037c1|55|0 41743,3,10,4,5,8,13,12,7,14,13,5,14,10,3432,45293,
scooby_state_4037c1|59|0 41915,13,13,13,8,8,12,11,8,6,6,14,4,13,3077,45121,
scooby_state_4037c1|52|0 41870,5,8,4,8,8,11,3,8,12,8,14,8,10,3131,45108,
scooby_state_4037c1|36|0 41926,9,11,3,4,10,7,8,14,9,4,5,18,3,3032,45063,
scooby_state_4037c1|33|0 41145,10,1,4,13,9,10,9,8,5,11,6,7,10,3302,44550,
scooby_state_4037c1|27|0 40787,8,7,13,10,3,10,6,8,6,8,2,6,7,3245,44126,
scooby_state_4037c1|58|0 40197,5,5,6,6,11,3,10,9,6,8,8,9,7,3335,43625,
scooby_state_4037c1|0|0 40486,7,11,11,6,7,5,8,5,5,4,7,7,5,2985,43559,
scooby_state_4037c1|38|0 40167,12,5,11,9,7,8,6,12,7,9,11,12,13,3102,43391,
scooby_state_4037c1|22|0 40064,1,8,12,8,5,8,5,4,7,3,9,7,7,3107,43255,
scooby_state_4037c1|18|0 40291,10,12,9,4,4,8,2,7,8,6,9,4,3,2818,43195,
scooby_state_4037c1|41|0 39991,10,9,8,10,10,10,7,10,5,5,5,9,9,3065,43163,
scooby_state_4037c1|54|0 39882,10,10,3,8,8,9,6,8,10,9,16,6,4,2706,42695,
scooby_state_4037c1|60|0 39537,9,6,4,6,3,11,11,2,5,8,11,7,8,2914,42542,
scooby_state_4037c1|56|0 39167,5,7,8,9,8,10,5,5,9,2,7,8,7,2768,42025,
scooby_state_4037c1|28|0 38853,7,3,3,6,9,1,11,9,7,2,4,3,9,2889,41816,
scooby_state_4037c1|53|0 38149,7,7,6,6,6,9,6,6,10,7,6,7,5,2838,41075,
scooby_state_4037c1|25|0 37985,16,3,7,13,4,7,6,12,7,3,7,4,10,2837,40921,
scooby_state_4037c1|26|0 37888,6,5,7,6,11,7,8,8,4,9,5,3,6,2481,40454,
scooby_state_4037c1|63|0 36557,10,10,5,5,15,8,3,4,5,6,9,7,7,2710,39361,
scooby_state_4037c1|14|0 35899,4,6,9,5,8,3,8,7,5,8,9,4,8,3032,39015,
scooby_state_4037c1|35|0 35269,8,6,3,5,6,7,6,10,3,6,7,6,4,2576,37922,
scooby_state_4037c1|62|0 34187,5,7,7,5,7,6,5,8,8,11,9,6,2,2642,36915,
scooby_state_4037c1|43|26 1792,11,13,13,11,9,14,4,11,8,3,4,14,13,111,2031,
scooby_state_4037c1|42|37 1328,15,15,9,13,12,16,11,11,16,14,2,13,18,17,1510,
scooby_state_4013a1|2|0 1435,1,0,0,0,2,0,2,2,5,1,2,1,2,0,1453,
scooby_state_4037c1|48|39 1265,11,13,13,9,13,15,12,12,10,10,2,14,16,21,1436,
scooby_state_4013a1|1|0 1381,1,1,2,0,1,0,0,0,1,1,2,1,0,2,1393,
scooby_state_4013a1|9|0 1342,0,1,0,3,0,1,0,3,1,0,2,1,0,2,1356,
scooby_state_4013a1|0|0 1331,2,0,0,0,1,2,3,1,4,0,1,1,3,4,1353,
scooby_state_4013a1|12|0 1333,2,1,0,0,1,0,1,0,1,1,0,1,1,0,1342,
scooby_state_4037c1|39|31 1171,11,10,12,10,11,14,12,8,10,10,14,15,10,22,1340,
scooby_state_4013a1|20|0 1315,0,0,1,0,2,0,0,1,4,1,4,2,2,0,1332,
scooby_state_4013a1|18|0 1306,0,2,1,1,1,2,0,0,3,0,2,1,0,0,1319,
scooby_state_4013a1|30|0 1296,0,2,1,0,1,0,0,1,0,1,1,1,1,1,1306,
scooby_state_4013a1|15|0 1281,0,3,2,0,0,1,3,2,1,1,2,1,0,0,1297,
scooby_state_4013a1|24|0 1277,0,2,0,3,2,0,0,3,3,2,3,1,0,1,1297,
scooby_state_4013a1|3|0 1282,1,0,1,1,1,1,2,2,1,0,1,1,1,1,1296,
scooby_state_4037c1|47|36 1139,8,12,10,15,10,17,6,9,7,12,0,12,13,23,1293,
scooby_state_4013a1|4|0 1275,1,2,2,0,1,0,2,1,0,1,2,5,0,0,1292,
scooby_state_4013a1|8|0 1275,0,1,1,2,1,1,0,2,2,2,0,3,0,1,1291,
scooby_state_4013a1|5|0 1268,1,3,2,1,0,1,1,3,3,2,1,1,1,2,1290,
scooby_state_4013a1|19|0 1270,2,0,0,0,0,0,2,1,1,0,1,1,1,2,1281,
scooby_state_4013a1|7|0 1259,3,1,3,2,2,2,2,4,1,0,0,1,1,0,1281,
scooby_state_4013a1|27|0 1270,0,2,0,1,0,2,1,1,0,1,1,0,0,0,1279,
scooby_state_4037c1|51|36 1194,7,5,10,7,6,5,3,5,5,3,1,7,6,14,1278,
scooby_state_4013a1|16|0 1260,0,2,1,3,1,0,2,0,0,3,2,1,2,1,1278,
scooby_state_4013a1|33|0 1242,1,0,1,0,1,1,3,4,0,4,1,0,1,2,1261,
scooby_state_4013a1|10|0 1246,0,2,3,1,0,0,0,0,0,1,0,1,0,3,1257,
scooby_state_4013a1|25|0 1243,0,2,2,1,1,0,0,1,0,4,0,0,1,1,1256,
scooby_state_4013a1|50|0 1240,3,0,2,2,0,0,3,1,1,1,2,0,1,0,1256,
scooby_state_4013a1|43|0 1235,1,1,1,2,0,0,2,1,0,0,3,4,2,1,1253,
scooby_state_4013a1|6|0 1236,2,2,0,0,1,1,1,1,2,0,1,1,1,3,1252,
scooby_state_4013a1|14|0 1238,2,2,3,1,0,0,0,0,1,0,2,2,1,0,1252,
scooby_state_4013a1|29|0 1243,1,2,1,0,0,1,0,0,0,1,0,0,2,1,1252,
scooby_state_4013a1|37|0 1235,0,0,0,1,0,0,2,3,1,1,1,0,0,1,1245,
scooby_state_4013a1|58|0 1228,2,1,1,0,1,0,1,1,3,0,0,1,1,2,1242,
scooby_state_4013a1|26|0 1229,1,1,0,1,0,0,1,0,1,0,0,3,0,2,1239,
scooby_state_4013a1|57|0 1222,1,1,1,1,1,1,1,1,2,0,1,1,3,0,1237,
scooby_state_4013a1|36|0 1221,1,0,1,2,0,1,3,1,2,0,1,0,0,3,1236,
scooby_state_4013a1|44|0 1226,0,0,1,1,2,0,0,2,0,0,1,2,0,0,1235,
scooby_state_4037c1|32|29 1098,11,9,10,9,12,6,8,9,7,9,9,10,11,15,1233,
scooby_state_4013a1|38|0 1217,2,1,1,0,2,0,0,0,4,1,1,1,0,2,1232,
scooby_state_4013a1|56|0 1210,1,1,0,2,1,1,2,0,1,2,2,4,0,2,1229,
scooby_state_4013a1|40|0 1217,0,1,3,1,1,0,1,0,1,1,0,1,1,1,1229,
scooby_state_4013a1|31|0 1213,0,1,0,1,1,0,1,1,2,0,2,0,0,1,1223,
scooby_state_4037c1|51|38 1106,5,7,10,11,8,9,6,7,8,9,9,5,11,12,1223,
scooby_state_4013a1|13|0 1206,2,0,1,0,1,0,1,1,2,0,6,2,1,0,1223,
scooby_state_4013a1|62|0 1207,2,1,0,0,3,0,2,0,2,0,0,2,0,2,1221,
scooby_state_4013a1|21|0 1210,0,0,1,1,0,1,0,2,1,1,0,3,0,0,1220,
scooby_state_4013a1|59|0 1202,0,2,0,1,0,0,1,1,1,1,2,3,0,3,1217,
scooby_state_4013a1|45|0 1204,1,0,0,4,1,0,0,0,0,1,2,2,0,0,1215,
scooby_state_4013a1|22|0 1198,2,2,2,0,0,0,1,1,0,1,1,1,2,2,1213,
scooby_state_4013a1|41|0 1194,0,2,2,2,0,0,1,1,0,0,1,1,2,4,1210,
scooby_state_4013a1|11|0 1196,0,1,2,4,1,0,1,0,0,1,2,0,1,1,1210,
scooby_state_4013a1|49|0 1199,0,1,1,1,0,0,1,0,0,0,1,1,3,1,1209,
scooby_state_4013a1|39|0 1199,1,0,0,2,0,0,1,1,0,1,0,1,0,1,1207,
scooby_state_4013a1|17|0 1193,1,3,1,2,1,0,0,1,1,0,3,0,0,0,1206,
scooby_state_4013a1|54|0 1186,2,1,1,1,0,0,1,2,3,2,2,1,2,2,1206,
scooby_state_4013a1|53|0 1190,0,0,1,2,1,0,1,1,1,0,3,1,1,4,1206,
scooby_state_4013a1|28|0 1192,1,1,0,0,0,2,0,0,2,2,3,1,0,0,1204,
scooby_state_4013a1|60|0 1190,0,0,1,1,0,1,2,1,1,3,1,0,1,1,1203,
scooby_state_4013a1|47|0 1190,0,0,0,2,1,1,0,1,2,0,3,1,1,1,1203,
scooby_state_4013a1|32|0 1183,1,2,1,2,0,0,1,2,1,1,0,3,1,1,1199,
scooby_state_4013a1|23|0 1183,1,2,0,2,0,0,0,0,2,0,1,2,2,0,1195,
scooby_state_4013a1|55|0 1176,2,4,0,0,1,1,0,0,1,1,1,0,0,1,1188,
scooby_state_40138f|45|0 797,4,4,2,1,1,3,1,1,2,3,0,5,6,356,1186,
scooby_state_4013a1|34|0 1171,1,0,1,2,1,0,1,2,0,0,1,0,2,0,1182,
scooby_state_4013a1|42|0 1171,0,0,1,2,0,2,0,1,2,1,0,0,0,1,1181,
scooby_state_4013a1|35|0 1166,2,1,2,0,0,1,1,1,1,0,1,2,1,1,1180,
scooby_state_40138f|49|0 767,2,3,1,3,3,4,3,1,2,3,3,1,4,379,1179,
scooby_state_4013a1|61|0 1165,0,1,0,1,1,0,1,3,0,2,0,0,2,1,1177,
scooby_state_4013a1|52|0 1166,0,2,0,0,0,2,0,0,2,1,0,2,1,0,1176,
scooby_state_40138f|41|0 757,1,2,2,5,1,2,1,2,3,1,3,4,4,377,1165,
scooby_state_4013a1|51|0 1132,0,1,1,1,0,1,2,2,1,3,4,0,0,0,1148,
scooby_state_4013a1|63|0 1136,0,0,0,0,3,0,0,1,1,0,0,1,2,3,1147,
scooby_state_4013a1|46|0 1136,0,1,1,1,1,1,0,0,1,1,0,1,1,1,1146,
scooby_state_40138f|29|0 743,4,7,3,1,4,4,3,3,0,2,5,1,2,363,1145,
scooby_state_40138f|32|0 752,2,7,3,4,2,3,3,2,5,0,2,6,3,348,1142,
scooby_state_4013a1|48|0 1131,1,2,1,1,0,1,1,1,2,1,0,0,0,0,1142,
scooby_state_4037c1|51|39 1006,6,11,9,11,12,4,6,5,8,8,6,8,14,17,1131,
scooby_state_40138f|52|0 745,3,1,1,5,1,2,0,3,2,0,4,4,3,351,1125,
scooby_state_40138f|44|0 719,5,4,4,6,3,3,1,1,0,3,4,2,3,366,1124,
scooby_state_40138f|25|0 734,4,4,2,2,2,1,2,2,3,1,2,4,2,352,1117,
scooby_state_40138f|17|0 722,6,4,4,4,4,4,2,3,1,6,4,4,1,345,1114,
scooby_state_40138f|0|0 751,2,4,1,6,3,2,1,3,3,1,2,2,2,330,1113,
scooby_state_4037c1|43|24 980,12,15,9,7,9,5,7,8,7,8,11,14,9,11,1112,
scooby_state_40138f|61|0 739,3,1,4,1,4,1,4,1,3,0,7,1,7,333,1109,
scooby_state_40138f|56|0 710,1,0,2,1,4,3,2,1,0,3,3,4,0,372,1106,
scooby_state_40138f|39|0 729,5,2,0,2,3,3,2,2,2,2,3,3,4,344,1106,
scooby_state_40138f|6|0 733,2,4,3,0,2,5,2,1,2,2,3,2,4,339,1104,
scooby_state_4037c1|58|26 985,6,7,6,4,6,5,2,1,3,3,4,10,9,51,1102,
scooby_state_40138f|8|0 713,2,3,2,3,1,7,3,2,1,2,6,5,4,343,1097,
scooby_state_40138f|24|0 706,4,2,4,1,3,3,2,2,2,0,5,1,1,360,1096,
scooby_state_40138f|12|0 690,4,4,2,2,9,4,6,3,1,1,3,5,2,357,1093,
scooby_state_40138f|38|0 706,3,6,1,4,1,4,4,2,1,2,1,3,4,350,1092,
scooby_state_40138f|60|0 728,4,1,4,3,2,0,0,5,2,2,3,1,2,335,1092,
scooby_state_40138f|19|0 696,1,5,3,1,5,3,3,2,1,1,7,5,4,353,1090,
scooby_state_40138f|22|0 728,1,4,3,3,3,1,2,0,1,1,4,4,0,335,1090,
scooby_state_40138f|23|0 723,6,3,0,0,7,3,1,5,6,4,2,6,4,318,1088,
scooby_state_40138f|20|0 725,1,4,5,2,2,1,2,5,1,2,3,4,2,328,1087,
scooby_state_40138f|37|0 686,4,5,5,2,3,1,1,2,5,1,5,3,8,353,1084,
scooby_state_40138f|48|0 705,2,3,0,3,2,6,5,0,1,6,3,4,2,338,1080,
scooby_state_40138f|36|0 747,4,2,3,3,1,2,5,1,1,2,0,3,5,300,1079,
scooby_state_40138f|13|0 706,0,0,0,2,1,1,0,3,1,3,6,2,1,352,1078,
scooby_state_40138f|33|0 727,7,3,0,2,3,1,1,2,2,7,3,2,1,317,1078,
scooby_state_4037c1|47|34 940,11,9,11,9,9,16,8,10,8,8,8,10,9,11,1077,
scooby_state_40138f|9|0 694,2,2,2,2,2,4,1,3,6,2,1,7,5,343,1076,
scooby_state_40138f|3|0 713,2,6,3,2,1,5,1,2,1,2,4,3,3,327,1075,
scooby_state_40138f|34|0 695,5,3,3,2,0,1,0,3,1,0,2,1,4,353,1073,
scooby_state_40138f|16|0 712,7,2,3,1,1,1,2,0,1,1,4,8,4,325,1072,
scooby_state_4037c1|56|39 987,9,7,5,8,11,6,7,2,4,3,0,5,7,10,1071,
scooby_state_40138f|5|0 696,5,4,4,3,4,4,0,2,2,4,1,3,5,334,1071,
scooby_state_40138f|43|0 682,8,3,3,3,1,4,0,2,1,1,4,2,4,349,1067,
scooby_state_40138f|1|0 704,0,3,2,3,3,4,2,3,4,1,2,1,3,331,1066,
scooby_state_40138f|27|0 673,2,0,5,4,0,3,0,1,4,1,5,3,3,357,1061,
scooby_state_40138f|7|0 733,3,2,2,2,2,2,3,2,3,2,2,2,3,297,1060,
scooby_state_40138f|53|0 684,1,3,4,3,3,6,2,3,1,1,7,1,3,337,1059,
scooby_state_40138f|21|0 700,2,7,3,0,2,4,2,2,2,0,1,4,4,325,1058,
scooby_state_40138f|54|0 704,2,3,3,4,3,3,5,1,2,1,3,1,2,321,1058,
scooby_state_40138f|40|0 726,1,1,2,4,2,2,1,3,0,1,1,2,1,310,1057,
scooby_state_40138f|4|0 681,3,3,1,6,2,2,1,2,4,1,2,3,3,342,1056,
scooby_state_40138f|18|0 685,4,0,0,2,1,1,2,2,2,2,5,3,1,345,1055,
scooby_state_40138f|51|0 684,8,3,3,4,2,2,2,5,6,2,4,4,3,321,1053,
scooby_state_40138f|11|0 689,2,2,4,0,3,2,2,5,3,2,4,4,5,322,1049,
scooby_state_40138f|62|0 679,2,0,1,1,2,1,2,2,5,1,4,7,5,337,1049,
scooby_state_40138f|28|0 679,3,1,1,5,1,5,6,2,2,3,4,3,1,331,1047,
scooby_state_4037c1|57|41 966,6,4,2,4,6,11,8,6,2,9,12,4,5,1,1046,
scooby_state_40138f|63|0 679,2,4,1,1,0,2,1,2,3,1,3,7,4,335,1045,
scooby_state_40138f|57|0 697,5,1,3,2,3,0,1,1,3,2,6,6,0,313,1043,
scooby_state_40138f|46|0 695,6,5,3,3,1,3,1,0,2,4,3,1,1,311,1039,
scooby_state_40138f|42|0 666,4,3,2,4,4,4,3,1,2,2,2,6,3,329,1035,
scooby_state_40138f|50|0 675,6,6,0,3,4,6,2,2,3,2,2,4,2,316,1033,
scooby_state_40138f|26|0 681,3,3,2,4,0,1,3,2,3,4,2,2,2,317,1029,
scooby_state_40138f|35|0 675,4,8,2,0,1,3,7,2,3,0,4,3,7,308,1027,
scooby_state_40138f|10|0 670,5,5,5,1,4,1,5,1,0,3,2,2,4,318,1026,
scooby_state_40138f|2|0 660,0,5,2,1,2,6,3,4,3,2,5,2,6,323,1024,
scooby_state_40138f|59|0 668,1,4,4,2,1,3,3,2,2,2,4,4,5,318,1023,
scooby_state_40138f|15|0 665,4,4,3,1,2,3,1,3,2,1,5,7,5,306,1012,
scooby_state_40138f|31|0 637,3,5,1,5,4,1,2,2,2,5,1,2,3,334,1007,
scooby_state_40138f|47|0 654,2,1,2,5,3,2,2,1,3,1,1,4,4,320,1005,
scooby_state_4013ab|63|0 739,4,7,3,4,5,3,3,4,10,3,5,7,4,199,1000,
scooby_state_40138f|58|0 659,2,5,2,2,1,3,1,0,2,0,0,5,1,308,991,
scooby_state_4037c1|51|23 850,12,9,13,5,6,11,6,9,8,7,9,9,11,19,984,
scooby_state_40138f|30|0 649,3,7,2,1,1,4,0,1,0,1,5,3,1,305,983,
scooby_state_40138f|14|0 648,7,4,2,1,4,1,2,0,1,2,3,3,2,300,980,
scooby_state_40138f|55|0 610,6,3,5,1,5,0,3,2,1,3,3,5,6,322,975,
scooby_state_4037c1|51|34 808,11,20,9,8,12,12,10,11,5,8,14,7,13,7,955,
scooby_state_4037c1|39|30 889,6,2,4,2,7,4,4,2,2,2,1,2,5,15,947,
scooby_state_4013ab|61|0 677,3,5,3,3,9,5,2,4,3,7,4,7,1,200,933,
scooby_state_4037c1|47|39 818,7,8,9,7,2,7,5,9,2,9,11,8,11,18,931,
scooby_state_4037c1|28|26 826,4,3,10,7,2,5,6,4,3,5,3,8,5,23,914,
scooby_state_4037c1|48|38 779,13,10,11,9,9,7,6,8,8,9,1,10,9,16,905,
scooby_state_4037c1|44|36 821,4,6,3,4,14,6,7,5,5,2,5,6,3,13,904,
scooby_state_4037c1|61|31 815,7,3,3,10,7,7,7,2,3,2,9,6,4,14,899,
scooby_state_4037c1|55|55 786,6,5,9,9,5,9,5,4,8,3,4,6,13,12,884,
scooby_state_4013ab|62|0 683,2,2,4,2,0,3,1,1,1,7,0,2,2,167,877,
scooby_state_4037c1|41|34 786,10,7,6,6,7,4,3,4,4,7,8,9,5,5,871,
scooby_state_4037c1|51|49 776,4,3,1,2,2,1,1,0,1,0,4,3,5,65,868,
scooby_state_4013ab|59|0 667,2,3,1,5,2,4,3,4,1,2,4,3,3,154,858,
scooby_state_4037c1|52|39 767,7,5,3,4,5,5,3,4,4,3,18,5,6,15,854,
scooby_state_4013ab|49|0 651,2,5,5,6,2,5,3,5,0,5,0,3,0,160,852,
scooby_state_4013ab|14|0 670,2,1,3,1,2,2,3,1,1,0,1,1,3,153,844,
scooby_state_4013ab|46|0 647,1,2,1,2,1,4,0,2,6,2,2,0,1,173,844,
scooby_state_4037c1|46|39 742,9,10,10,7,4,7,5,2,5,4,1,9,7,15,837,
scooby_state_4037c1|43|31 727,4,10,8,7,2,5,4,4,7,7,5,7,9,20,826,
scooby_state_4013ab|54|0 641,1,2,3,3,1,5,2,6,1,0,2,2,6,150,825,
scooby_state_4037c1|40|36 776,4,2,6,5,1,3,1,3,1,0,1,7,2,7,819,
scooby_state_4037c1|48|37 727,8,8,9,3,10,7,3,1,4,4,4,10,11,9,818,
scooby_state_4013ab|57|0 614,4,5,4,4,4,2,2,5,5,4,4,3,8,148,816,
scooby_state_4037c1|58|55 721,10,9,3,6,5,7,8,7,7,6,5,6,3,12,815,
scooby_state_4013ab|15|0 599,3,1,2,4,0,6,1,1,6,2,3,5,2,172,807,
scooby_state_4037c1|60|57 730,8,6,4,7,3,5,3,4,6,3,4,6,5,7,801,
scooby_state_4013ab|53|0 599,1,1,1,1,1,6,1,0,2,2,2,6,3,174,800,
scooby_state_4013ab|55|0 593,4,4,3,0,4,3,1,4,2,4,1,5,2,169,799,
scooby_state_4037c1|49|40 720,7,4,5,4,3,2,5,6,0,7,13,7,5,4,792,
scooby_state_4037c1|52|44 702,4,7,5,6,8,4,5,3,6,7,6,7,7,8,785,
scooby_state_4037c1|44|39 689,5,8,8,3,2,2,5,5,5,4,9,8,6,20,779,
scooby_state_4013ab|45|0 566,2,3,4,6,7,0,6,2,2,1,6,5,1,165,776,
scooby_state_4013ab|47|0 560,3,8,5,2,3,4,5,3,3,1,6,3,3,160,769,
scooby_state_4037c1|48|36 681,11,10,6,7,10,7,3,5,5,2,1,2,5,13,768,
scooby_state_4013ab|16|0 598,6,1,1,4,1,3,0,2,3,1,1,4,3,140,768,
scooby_state_4037c1|56|41 689,9,5,4,7,4,4,8,5,6,5,5,8,4,0,763,
scooby_state_4013ab|58|0 563,2,2,2,2,2,2,6,5,3,5,1,2,5,161,763,
scooby_state_4013ab|31|0 583,2,3,3,4,2,7,6,2,0,3,2,4,2,139,762,
scooby_state_4037c1|46|41 671,3,7,7,7,6,2,5,5,9,7,8,6,7,1,751,
scooby_state_4013ab|30|0 566,6,2,2,5,2,2,2,3,2,6,3,1,2,142,746,
scooby_state_4013ab|56|0 569,3,1,5,5,4,2,2,2,4,3,5,0,0,141,746,
scooby_state_4013ab|39|0 564,4,3,2,4,3,1,2,1,3,2,6,4,2,140,741,
scooby_state_4013ab|48|0 580,7,2,4,2,1,3,3,3,1,1,2,2,1,128,740,
scooby_state_4013a7|36|1 517,4,5,8,2,1,2,3,4,4,4,3,3,2,174,736,
scooby_state_4013a7|46|1 508,2,1,2,3,4,3,1,1,3,5,6,2,3,191,735,
scooby_state_4013a7|29|1 527,5,4,2,4,0,3,1,1,1,4,4,4,5,170,735,
scooby_state_4013a7|45|1 533,2,5,2,3,2,8,2,1,3,4,2,2,1,165,735,
scooby_state_4013a7|14|1 521,8,3,0,7,3,3,3,2,2,3,3,9,8,160,735,
scooby_state_4013a7|6|1 530,5,5,5,4,1,6,1,3,5,2,1,3,3,159,733,
scooby_state_4013a7|23|1 553,3,1,1,4,0,3,1,1,2,4,2,5,4,148,732,
scooby_state_4013a7|25|1 504,6,2,4,4,3,2,6,2,1,0,6,6,2,184,732,
scooby_state_4013a7|27|1 519,3,1,2,3,2,6,4,2,1,3,3,3,3,177,732,
scooby_state_4013a7|24|1 500,4,5,5,2,3,4,2,2,2,1,3,4,5,190,732,
scooby_state_4013a7|35|1 528,1,5,4,2,1,0,5,1,5,6,2,5,1,166,732,
scooby_state_4013a7|42|1 534,3,2,3,4,1,1,2,1,2,1,5,3,4,166,732,
scooby_state_4013a7|11|1 514,3,2,3,8,2,8,1,4,3,1,2,5,6,170,732,
scooby_state_4013a7|62|1 536,3,3,3,3,6,2,4,3,2,2,1,5,2,157,732,
scooby_state_4013a7|33|1 530,5,3,6,1,4,5,3,2,3,3,5,2,3,157,732,
scooby_state_4013a7|19|1 519,1,7,2,4,2,3,0,4,2,3,2,5,7,171,732,
scooby_state_4013a7|55|1 543,0,3,2,2,6,3,2,2,4,2,7,5,1,149,731,
scooby_state_4013a7|21|1 526,2,3,4,4,4,1,6,2,3,7,4,5,2,158,731,
scooby_state_4013a7|34|1 510,5,6,7,7,3,1,1,1,3,4,0,3,3,176,730,
scooby_state_4013a7|16|1 518,1,3,6,1,3,3,0,0,1,2,2,7,4,179,730,
scooby_state_4013a7|51|1 538,2,2,2,4,3,3,5,2,2,3,2,1,2,158,729,
scooby_state_4013a7|2|1 533,6,1,7,3,3,5,6,2,4,2,0,3,1,153,729,
scooby_state_4013a7|47|1 521,5,3,1,7,3,7,3,3,1,1,6,3,3,162,729,
scooby_state_4013a7|37|1 520,2,3,7,1,2,3,3,2,4,4,4,2,4,168,729,
scooby_state_4013a7|53|1 526,2,3,2,4,7,2,1,2,2,2,7,3,3,163,729,
scooby_state_4013a7|32|1 534,7,6,3,1,3,3,5,4,1,3,2,1,4,152,729,
scooby_state_4013a7|58|1 500,6,6,3,2,4,7,4,4,6,1,3,2,1,180,729,
scooby_state_4013a7|1|1 516,4,1,2,4,2,5,4,5,6,7,5,6,1,161,729,
scooby_state_4013a7|12|1 508,2,0,4,3,5,2,5,5,2,3,6,4,3,177,729,
scooby_state_4013a7|43|1 538,4,5,3,1,2,4,3,6,3,3,1,6,3,147,729,
scooby_state_4013a7|31|1 523,3,2,0,1,4,0,1,5,2,3,3,5,7,170,729,
scooby_state_4013a7|41|1 517,4,4,8,3,4,2,4,1,4,1,3,1,4,169,729,
scooby_state_4013a7|54|1 533,4,3,6,3,2,1,3,2,4,4,1,3,5,155,729,
scooby_state_4013a7|61|1 509,2,4,2,1,3,3,2,3,0,3,4,7,5,180,728,
scooby_state_4013a7|18|1 531,3,4,6,4,2,3,5,2,2,2,3,2,3,156,728,
scooby_state_4013a7|9|1 510,5,4,3,1,1,5,2,6,4,1,1,5,2,177,727,
scooby_state_4013a7|40|1 522,3,1,2,5,5,0,2,2,2,1,3,4,2,173,727,
scooby_state_4013a7|17|1 523,7,4,3,7,4,7,1,2,1,1,4,5,1,156,726,
scooby_state_4013a7|49|1 482,2,6,4,4,4,3,4,5,4,5,6,4,8,185,726,
scooby_state_4013a7|7|1 504,4,6,2,7,6,2,3,2,3,1,2,1,2,181,726,
scooby_state_4013a7|38|1 524,4,4,3,5,2,1,4,2,3,3,1,2,0,168,726,
scooby_state_4013a7|50|1 517,1,3,3,4,4,4,1,3,3,2,3,4,6,168,726,
scooby_state_4013a7|26|1 526,5,6,2,5,2,3,1,2,2,4,3,4,3,158,726,
scooby_state_4013a7|60|1 524,4,6,1,6,2,6,4,1,2,6,1,4,4,155,726,
scooby_state_4013a7|15|1 509,2,3,2,9,3,4,2,2,2,8,1,2,2,175,726,
scooby_state_4013a7|8|1 527,4,5,2,1,2,4,6,3,2,1,2,6,4,157,726,
scooby_state_4013a7|13|1 496,3,0,8,2,7,0,2,3,7,2,5,4,4,183,726,
scooby_state_4013ab|22|0 568,5,3,5,7,0,2,1,1,1,3,0,2,4,123,725,
scooby_state_4013ab|5|0 568,2,5,0,1,2,3,1,1,5,3,2,4,2,126,725,
scooby_state_4013a7|28|1 532,3,4,4,5,4,3,5,2,2,1,2,1,3,154,725,
scooby_state_4013a7|4|1 524,4,3,6,4,4,1,6,3,2,3,2,3,2,157,724,
scooby_state_4037c1|48|34 652,7,9,5,4,5,3,4,3,5,1,6,5,3,12,724,
scooby_state_4013a7|59|1 521,3,1,8,0,5,1,3,2,3,3,4,1,0,168,723,
scooby_state_4013a7|22|1 507,1,2,3,8,2,6,2,3,1,2,10,4,5,167,723,
scooby_state_4013a7|52|1 501,4,1,5,5,7,5,5,6,3,2,5,3,4,167,723,
scooby_state_4013a7|20|1 514,3,3,3,7,5,1,3,5,5,6,3,8,3,154,723,
scooby_state_4013a7|44|1 515,0,3,1,5,0,1,0,0,0,0,4,2,4,188,723,
scooby_state_4013a7|63|1 512,5,4,2,4,3,3,4,3,3,2,3,4,2,169,723,
scooby_state_4013a7|57|1 512,6,1,3,0,3,1,1,3,4,2,2,2,1,182,723,
scooby_state_4013a7|30|1 509,5,2,3,4,3,6,7,2,3,5,3,7,5,159,723,
scooby_state_4013a7|39|1 501,7,4,4,2,3,5,1,2,2,3,4,4,1,179,722,
scooby_state_4013a7|3|1 527,5,4,2,2,2,2,2,1,2,0,2,5,1,164,721,
scooby_state_4013a7|48|1 544,4,5,2,4,1,2,1,3,2,1,4,6,3,139,721,
scooby_state_4013ab|50|0 554,3,0,4,6,2,4,4,1,1,1,5,1,1,133,720,
scooby_state_4013ab|29|0 557,2,2,2,3,6,2,3,1,3,0,1,4,1,133,720,
scooby_state_4013ab|19|0 549,2,1,3,9,3,3,1,1,5,0,3,5,1,134,720,
scooby_state_4013a7|56|1 519,3,2,5,4,7,3,3,5,4,2,3,2,2,156,720,
scooby_state_4013a7|5|1 505,8,7,3,1,5,3,4,4,1,4,4,5,3,161,718,
scooby_state_4013ab|38|0 573,6,2,4,1,1,1,2,3,0,0,1,0,3,121,718,
scooby_state_4037c1|38|32 625,11,12,5,6,7,4,8,4,7,5,8,3,6,5,716,
scooby_state_4013a7|10|1 495,6,3,1,3,4,4,2,7,1,3,1,4,4,177,715,
scooby_state_4013ab|36|0 529,7,1,4,1,6,2,6,2,3,5,8,7,3,129,713,
scooby_state_4037c1|24|16 606,9,7,10,5,9,7,6,7,8,3,7,8,6,12,710,
scooby_state_4013ab|51|0 536,3,5,4,5,3,3,4,6,1,2,2,5,4,124,707,
scooby_state_4037c1|58|40 640,3,4,4,5,5,4,5,1,6,4,7,9,5,0,702,
scooby_state_4013ab|60|0 520,2,2,3,4,3,1,4,2,3,6,6,3,6,136,701,
scooby_state_4037c1|62|52 621,2,7,4,6,2,6,7,8,5,6,6,8,3,8,699,
scooby_state_4013ab|37|0 549,2,1,4,0,5,3,4,6,1,3,3,3,5,108,697,
scooby_state_4013ab|52|0 544,1,3,5,1,3,1,0,0,3,4,3,4,3,119,694,
scooby_state_4013ab|1|0 522,2,3,3,3,3,3,3,2,3,1,2,0,2,138,690,
scooby_state_4037c1|29|16 612,8,5,7,7,4,7,6,4,2,3,3,6,7,8,689,
scooby_state_4013ab|18|0 546,0,1,3,2,4,0,3,0,2,0,1,1,4,119,686,
scooby_state_4037c1|54|33 604,7,6,4,2,4,3,0,0,0,0,8,5,3,40,686,
scooby_state_4037c1|45|32 577,8,6,5,9,9,5,7,6,4,7,13,9,12,4,681,
scooby_state_4013ab|43|0 516,0,5,1,3,3,3,2,4,0,1,5,3,5,124,675,
scooby_state_4037c1|40|33 637,3,1,4,2,0,1,0,1,0,2,1,2,3,14,671,
scooby_state_4013ab|23|0 527,3,1,0,4,3,4,2,1,4,1,7,3,2,106,668,
scooby_state_4013ab|0|0 509,0,4,3,1,2,2,3,5,2,0,2,1,5,125,664,
scooby_state_4013ab|3|0 506,0,0,2,1,0,5,2,1,1,3,3,3,6,128,661,
scooby_state_4013ab|32|0 504,3,1,0,2,1,0,1,4,4,3,1,5,4,124,657,
scooby_state_4037c1|45|28 563,5,5,5,7,5,6,4,5,5,9,8,11,6,13,657,
scooby_state_4037c1|60|52 601,3,1,2,2,5,8,3,3,5,1,2,7,4,6,653,
scooby_state_4013ab|21|0 496,7,5,2,5,1,5,1,4,5,1,4,2,6,106,650,
scooby_state_4013ab|33|0 488,3,3,1,2,1,2,1,3,3,6,3,5,3,121,645,
scooby_state_4013ab|17|0 502,3,4,2,3,4,6,3,3,1,0,4,0,4,106,645,
scooby_state_4037c1|42|31 549,10,7,8,7,4,5,4,8,2,2,5,6,4,19,640,
scooby_state_4013ab|25|0 500,2,1,2,1,3,3,2,6,2,0,2,8,3,103,638,
scooby_state_4013ab|9|0 502,6,3,2,1,3,3,5,5,5,4,4,1,4,89,637,
scooby_state_4037c1|38|36 574,5,6,4,6,3,7,4,5,4,0,2,3,7,6,636,
scooby_state_4037c1|62|24 570,4,2,3,2,5,5,4,1,4,4,3,5,7,14,633,
scooby_state_4037c1|61|44 559,1,6,6,7,3,8,9,4,1,4,2,3,6,9,628,
scooby_state_4037c1|39|39 540,7,2,10,5,7,7,5,4,3,3,8,10,7,9,627,
scooby_state_4037c1|46|37 563,5,6,4,4,3,9,5,7,2,6,2,4,2,3,625,
scooby_state_4013ab|7|0 497,4,2,3,3,1,2,1,1,1,4,3,2,0,94,618,
scooby_state_4037c1|41|35 542,4,6,6,5,7,5,4,5,4,2,2,8,6,8,614,
scooby_state_403702|15|0 577,2,0,3,2,0,2,2,0,3,0,10,2,4,6,613,
scooby_state_4013ab|41|0 466,0,3,1,3,3,1,4,1,0,0,2,1,2,126,613,
scooby_state_4013ab|24|0 468,2,2,3,1,4,0,1,5,1,2,2,0,5,114,610,
scooby_state_4013ab|26|0 476,4,3,2,2,2,2,2,4,1,6,2,1,4,95,606,
scooby_state_4013ab|44|0 454,4,5,0,3,3,0,2,1,2,1,2,0,3,124,604,
scooby_state_4037c1|44|20 514,2,3,6,4,1,0,0,0,0,0,7,8,10,49,604,
scooby_state_4013ab|11|0 445,2,3,4,2,4,4,3,2,1,2,1,3,3,121,600,
scooby_state_4013ab|6|0 460,3,2,0,1,0,3,1,0,0,3,3,2,2,119,599,
scooby_state_4013ab|13|0 473,2,5,1,3,0,2,4,3,1,0,1,2,1,99,597,
scooby_state_4013ab|2|0 465,1,3,1,1,1,1,1,1,2,2,1,2,2,104,588,
scooby_state_4013ab|35|0 447,3,6,6,4,2,0,2,1,2,3,2,4,0,105,587,
scooby_state_4037c1|62|31 517,3,5,8,2,4,3,4,4,3,1,7,5,6,11,583,
scooby_state_4037c1|49|21 523,6,4,4,4,2,3,1,2,1,0,6,2,9,16,583,
scooby_state_4013ab|12|0 436,2,3,8,3,2,2,3,1,3,1,3,2,1,112,582,
scooby_state_4013ab|40|0 456,0,0,1,1,1,1,0,6,3,2,1,5,0,104,581,
scooby_state_4013ab|28|0 463,3,2,4,1,2,1,1,3,1,0,4,2,1,91,579,
scooby_state_4037c1|41|26 498,3,3,3,4,4,4,6,3,1,3,2,6,5,32,577,
scooby_state_4037c1|52|32 492,5,9,10,5,8,8,7,5,3,1,10,6,5,3,577,
scooby_state_4037c1|27|18 518,5,7,5,5,2,4,5,2,2,5,4,5,4,3,576,
scooby_state_4013ab|34|0 441,3,1,2,0,2,5,0,0,2,2,1,2,5,109,575,
scooby_state_4037c1|61|21 501,1,2,5,2,0,1,2,1,2,0,31,5,2,20,575,
scooby_state_4037c1|61|18 502,7,6,4,5,3,6,3,5,7,5,5,8,7,1,574,
scooby_state_4037c1|26|18 497,9,5,6,6,7,3,5,4,2,8,5,8,5,0,570,
scooby_state_4013ab|42|0 425,2,2,0,1,3,2,2,0,1,2,0,2,2,124,568,
scooby_state_4013ab|20|0 445,2,4,4,6,1,1,4,2,6,1,3,0,2,84,565,
scooby_state_4037c1|58|39 489,4,5,4,5,5,4,1,3,4,4,6,7,6,17,564,
scooby_state_4013ab|27|0 438,6,1,2,1,3,3,0,0,4,2,3,4,5,92,564,
scooby_state_4037c1|46|43 508,6,6,3,3,6,4,3,5,5,5,1,5,4,0,564,
scooby_state_4037c1|51|32 500,3,3,4,4,7,6,1,4,4,7,5,4,9,1,562,
scooby_state_4037c1|42|33 514,1,1,4,2,3,0,1,0,0,0,4,9,2,20,561,
scooby_state_4037c1|37|24 499,3,3,8,3,3,5,7,7,8,6,2,3,3,0,560,
scooby_state_403702|49|0 512,2,3,4,1,3,1,0,1,2,1,22,3,2,3,560,
scooby_state_4037c1|48|21 513,1,3,4,1,1,2,2,0,2,0,18,1,2,6,556,
scooby_state_4013ab|4|0 429,1,3,2,2,1,1,5,0,1,2,2,2,0,104,555,
scooby_state_4037c1|31|29 479,7,6,5,4,4,6,3,3,3,5,7,7,10,5,554,
scooby_state_4037c1|40|18 491,6,6,3,4,4,3,5,4,7,3,3,5,4,2,550,
scooby_state_4013ab|8|0 405,2,2,2,3,4,1,2,3,1,1,3,2,3,116,550,
scooby_state_4037c1|20|19 491,4,5,6,3,2,1,2,5,6,5,6,7,3,3,549,
scooby_state_4037c1|57|44 484,3,7,3,4,3,3,4,4,1,3,5,10,2,5,541,
scooby_state_4037c1|44|42 481,4,4,1,3,0,0,0,0,0,0,4,3,1,40,541,
scooby_state_4037c1|57|26 481,4,6,0,1,3,1,2,2,5,0,2,5,4,24,540,
scooby_state_4037d3|57|0 422,5,7,6,5,7,6,5,6,5,7,28,11,8,12,540,
scooby_state_4037c1|57|28 473,4,7,3,3,7,2,3,7,5,5,4,5,3,6,537,
scooby_state_4013ab|10|0 397,2,3,2,2,4,2,0,0,0,0,2,3,7,113,537,
scooby_state_4037c1|19|18 499,2,2,3,6,4,2,3,5,1,3,2,1,3,0,536,
scooby_state_4037c1|39|26 469,6,4,3,2,4,0,0,2,0,1,2,3,2,37,535,
scooby_state_4037c1|51|47 491,4,2,4,1,3,5,3,2,3,5,3,3,2,4,535,
scooby_state_4037c1|35|34 484,3,5,4,3,7,4,3,3,2,2,6,5,3,0,534,
scooby_state_4037c1|63|44 480,5,3,5,5,6,2,3,2,5,5,4,1,3,4,533,
scooby_state_4037c1|56|46 461,1,2,4,1,0,0,0,0,0,0,9,1,1,45,525,
scooby_state_4037c1|44|34 469,4,4,2,2,3,2,3,4,1,3,4,3,5,9,518,
scooby_state_4037c1|44|31 452,2,5,3,3,5,5,4,5,4,4,5,4,2,10,513,
scooby_state_4037c1|55|39 458,6,3,2,4,5,7,2,5,2,1,2,1,2,5,505,
scooby_state_4037c1|49|37 443,6,8,6,6,4,4,4,5,3,3,2,4,2,3,503,
scooby_state_403702|40|0 441,4,1,1,5,3,3,3,4,4,4,14,3,5,6,501,
scooby_state_4037c1|40|34 445,4,2,3,5,2,4,3,2,4,4,5,5,7,6,501,
scooby_state_4037c1|46|13 467,2,5,0,1,3,0,1,2,3,4,2,0,5,5,500,
scooby_state_4037c1|45|44 462,1,1,3,1,5,4,0,3,0,3,4,2,6,3,498,
scooby_state_4037c1|17|-26 429,4,9,8,4,4,4,6,3,4,3,0,5,7,6,496,
scooby_state_4037c1|48|35 429,7,4,3,6,7,7,5,1,2,5,2,5,4,7,494,
scooby_state_4037c1|48|47 452,3,2,2,4,3,2,0,2,4,1,7,3,5,2,492,
scooby_state_403702|53|0 472,0,1,2,0,0,0,0,0,2,0,5,3,2,2,489,
scooby_state_4037c1|42|29 437,3,4,3,3,2,3,2,6,2,0,2,2,5,10,484,
scooby_state_4037c1|44|43 441,1,6,5,3,5,3,3,2,2,3,0,5,5,0,484,
scooby_state_4037c1|59|36 447,3,2,3,2,3,0,1,2,1,4,3,2,1,4,478,
scooby_state_4037c1|53|42 420,4,0,0,0,0,0,0,0,0,0,6,2,2,41,475,
scooby_state_4036b2|1|0 142,21,19,20,19,20,21,22,22,17,19,65,18,17,31,473,
scooby_state_403710|29|0 440,5,0,2,3,4,3,0,3,2,1,0,2,3,5,473,
scooby_state_4037c1|47|44 423,6,4,2,2,4,2,2,4,3,2,2,2,3,10,471,
scooby_state_40385e|1|0 295,11,11,10,15,12,16,13,10,14,14,14,5,8,21,469,
scooby_state_4037c1|29|23 423,2,6,2,0,4,3,4,5,0,2,1,5,4,7,468,
scooby_state_402db8|36|0 8,3,1,1,1,3,2,2,2,1,3,437,0,1,3,468,
scooby_state_4037c1|59|40 417,9,0,2,1,2,3,6,4,0,3,10,4,3,1,465,
scooby_state_4037c1|9|-39 369,8,5,7,8,5,8,9,3,7,7,3,3,6,11,459,
scooby_state_4037c1|59|44 396,3,4,5,5,3,5,4,1,3,1,8,6,7,4,455,
scooby_state_4037c1|57|36 419,3,1,2,0,3,2,1,2,3,1,2,2,1,9,451,
scooby_state_4037c1|61|38 404,2,4,4,3,1,3,1,4,2,0,3,5,4,9,449,
scooby_state_4037c1|31|18 400,2,5,4,3,4,5,2,3,3,4,1,6,4,0,446,
scooby_state_4037c1|33|6 394,2,2,2,2,5,4,5,4,10,2,1,3,3,6,445,
scooby_state_403702|27|0 371,5,2,4,3,5,3,3,5,2,3,31,2,2,4,445,
scooby_state_401384|17|1 336,2,2,3,2,2,5,3,4,2,0,4,2,4,72,443,
scooby_state_4013a7|0|0 244,8,6,11,9,8,6,7,7,1,2,8,5,4,117,443,
scooby_state_401384|54|1 320,6,2,8,5,0,2,5,2,3,2,2,2,3,79,441,
scooby_state_4037c1|59|42 410,2,0,0,0,0,1,0,0,0,0,6,0,0,22,441,
scooby_state_401384|15|1 331,4,2,9,1,3,1,4,5,1,1,2,2,4,71,441,
scooby_state_401384|9|1 288,5,4,2,4,4,1,4,7,4,4,4,3,5,102,441,
scooby_state_401384|41|1 316,2,3,8,5,4,1,1,3,2,3,3,7,4,79,441,
scooby_state_4037c1|44|37 387,5,4,7,3,2,3,4,2,6,3,1,4,4,5,440,
scooby_state_4037c1|35|31 413,3,1,2,2,1,3,3,0,0,3,1,2,3,3,440,
scooby_state_401384|19|1 309,2,3,3,0,4,6,3,2,2,4,5,1,4,90,438,
scooby_state_401384|34|1 328,4,3,3,2,3,4,4,1,3,3,2,3,2,73,438,
scooby_state_401384|56|1 322,1,6,3,0,5,2,2,2,2,2,6,5,3,77,438,
scooby_state_401384|5|1 308,3,7,4,7,4,3,1,1,0,5,4,5,3,82,437,
scooby_state_401384|40|1 311,5,5,3,2,3,2,2,3,5,1,4,7,3,81,437,
scooby_state_4037c1|46|5 381,4,5,1,3,5,7,1,2,1,2,5,4,5,10,436,
scooby_state_401384|16|1 301,5,3,4,1,5,5,7,7,0,2,2,6,4,83,435,
scooby_state_401384|29|1 311,3,8,2,1,4,1,4,2,2,7,5,1,7,77,435,
scooby_state_401384|57|1 298,4,3,7,7,3,9,4,0,2,4,0,4,1,89,435,
scooby_state_401384|7|1 325,4,3,3,5,1,2,2,0,3,1,2,2,4,78,435,
scooby_state_401384|23|1 310,8,10,2,3,1,3,2,3,2,1,1,5,3,81,435,
scooby_state_401384|25|1 302,7,5,2,2,3,7,3,0,3,2,1,6,5,87,435,
scooby_state_401384|20|1 313,5,2,3,3,3,1,3,6,3,1,1,4,4,83,435,
scooby_state_401384|8|1 313,3,1,9,3,3,2,6,2,2,3,2,7,3,76,435,
scooby_state_401384|50|1 296,4,5,3,2,2,1,5,4,5,2,2,3,4,97,435,
scooby_state_401384|10|1 300,4,6,3,5,1,2,2,3,5,2,4,2,4,92,435,
scooby_state_401384|26|1 313,3,2,4,0,2,5,2,5,1,5,5,2,6,80,435,
scooby_state_401384|31|1 294,3,6,5,3,1,6,1,4,2,5,4,4,5,91,434,
scooby_state_401384|22|1 315,7,4,3,1,5,3,0,2,6,4,2,3,3,76,434,
scooby_state_401384|13|1 305,8,3,4,4,3,3,5,1,4,2,1,2,8,81,434,
scooby_state_401384|21|1 319,4,3,2,2,3,1,4,6,2,1,2,1,3,81,434,
scooby_state_401384|2|1 326,4,1,2,3,5,2,3,0,2,1,4,4,2,75,434,
scooby_state_401384|1|1 314,6,2,5,5,6,0,4,3,1,5,3,4,6,70,434,
scooby_state_401384|47|1 318,3,3,0,4,2,0,1,4,1,4,4,6,3,80,433,
scooby_state_401384|59|1 311,4,4,5,3,4,3,1,2,5,2,3,3,6,77,433,
scooby_state_401384|60|1 300,4,5,2,4,4,4,2,6,2,3,1,4,5,86,432,
scooby_state_401384|33|1 305,4,4,1,3,4,6,1,2,1,2,2,1,6,90,432,
scooby_state_401384|30|1 304,3,1,5,5,4,4,5,3,2,1,4,5,3,83,432,
scooby_state_401384|63|1 298,5,1,2,0,6,2,4,1,1,3,4,7,6,92,432,
scooby_state_401384|53|1 310,3,2,2,4,4,1,4,2,2,2,2,7,3,84,432,
scooby_state_401384|43|1 301,5,3,3,2,0,6,3,4,0,4,1,2,2,96,432,
scooby_state_401384|27|1 301,2,3,3,2,4,2,3,2,1,2,5,5,1,95,431,
scooby_state_401384|35|1 306,3,5,4,3,1,4,5,3,3,3,4,2,5,80,431,
scooby_state_401384|24|1 308,4,3,0,3,2,3,4,1,3,2,0,5,5,88,431,
scooby_state_401384|18|1 305,5,4,6,5,3,3,1,5,2,1,4,6,3,78,431,
scooby_state_401384|49|1 294,5,3,9,3,2,5,0,0,5,3,2,3,5,92,431,
scooby_state_401384|38|1 315,5,3,3,5,2,4,0,0,3,2,2,8,1,77,430,
scooby_state_401384|52|1 282,2,4,6,6,7,3,2,3,3,2,7,7,2,94,430,
scooby_state_401384|42|1 297,3,4,1,4,4,3,5,3,2,3,6,2,4,88,429,
scooby_state_401384|39|1 293,5,11,1,4,2,1,2,3,5,4,2,4,7,85,429,
scooby_state_401384|48|1 312,4,1,4,5,2,1,1,4,1,4,6,8,2,74,429,
scooby_state_401384|45|1 295,3,6,2,5,3,3,5,5,0,1,3,4,3,91,429,
scooby_state_401384|6|1 285,4,1,3,4,6,6,2,1,0,2,7,7,6,95,429,
scooby_state_401384|44|1 294,9,6,1,5,1,2,2,4,1,3,3,6,3,89,429,
scooby_state_401384|58|1 307,5,5,1,2,3,3,4,1,5,2,2,4,8,77,429,
scooby_state_401384|32|1 296,3,3,2,5,3,1,3,5,3,3,1,6,0,95,429,
scooby_state_401384|14|1 300,4,2,2,2,7,3,4,5,2,3,1,3,5,86,429,
scooby_state_401384|36|1 293,6,3,2,1,3,5,5,4,2,2,1,7,4,90,428,
scooby_state_401384|12|1 287,4,4,1,5,5,0,1,2,4,1,4,6,7,96,427,
scooby_state_4037c1|63|41 399,5,2,3,2,1,1,4,3,0,2,1,1,3,0,427,
scooby_state_401384|55|1 321,1,2,3,2,3,3,3,2,3,5,3,4,3,68,426,
scooby_state_401384|11|1 292,4,6,6,5,3,2,3,4,2,2,2,4,2,89,426,
scooby_state_401384|46|1 290,2,6,1,7,2,7,4,3,2,3,4,8,4,83,426,
scooby_state_401384|37|1 312,2,3,2,2,4,4,0,4,2,3,3,1,6,77,425,
scooby_state_4037c1|37|31 380,2,7,1,4,2,2,2,4,1,2,1,5,5,6,424,
scooby_state_401384|62|1 294,1,5,2,1,4,5,3,5,1,0,1,7,6,88,423,
scooby_state_401384|51|1 304,3,1,6,2,3,2,1,3,2,2,2,4,0,88,423,
scooby_state_401384|28|1 319,4,3,2,3,5,3,1,1,3,2,2,3,6,66,423,
scooby_state_4037c1|55|24 389,4,4,1,2,2,4,5,1,1,2,2,3,3,0,423,
scooby_state_401384|61|1 299,3,3,2,2,4,2,7,2,2,2,1,1,2,91,423,
scooby_state_401384|4|1 311,2,5,4,1,1,3,1,2,2,2,3,4,3,79,423,
scooby_state_4037c1|50|33 376,1,2,4,0,1,0,6,2,2,1,0,3,3,21,422,
scooby_state_401384|3|1 312,2,3,3,5,4,0,2,3,5,2,3,5,0,73,422,
scooby_state_4037c1|5|-37 368,3,0,1,2,1,0,0,0,0,0,1,3,0,42,421,
scooby_state_402e55|35|-1 20,26,29,24,29,29,27,28,26,19,21,15,28,31,67,419,
scooby_state_4037c1|62|57 389,2,1,1,2,2,1,1,3,2,0,3,2,3,3,415,
scooby_state_4037c1|47|42 385,2,1,1,0,1,0,0,0,0,0,2,2,1,18,413,
scooby_state_403709|11|0 287,6,10,8,8,13,7,6,6,5,2,9,8,3,33,411,
scooby_state_4037c1|49|39 359,6,5,3,4,4,2,2,2,4,2,8,0,3,6,410,
scooby_state_4037c1|40|37 300,5,7,10,9,10,8,7,9,3,7,7,10,10,8,410,
scooby_state_403702|9|0 350,4,3,2,4,4,4,4,5,2,3,12,4,3,5,409,
scooby_state_4037c1|60|56 308,6,7,7,6,9,5,7,8,8,5,6,9,6,7,404,
scooby_state_4037c1|49|31 359,5,2,2,2,3,4,1,1,6,3,2,2,4,6,402,
scooby_state_4037c1|62|28 359,3,3,2,3,3,3,1,3,2,2,6,4,4,4,402,
scooby_state_4037c1|46|38 350,5,5,1,2,1,4,4,4,2,2,4,4,3,7,398,
scooby_state_4037c1|48|31 381,2,0,2,0,0,0,1,2,1,1,2,1,1,4,398,
scooby_state_4037c1|45|29 365,4,3,2,2,3,1,1,0,1,1,1,3,3,6,396,
scooby_state_4037c1|47|35 357,2,3,2,4,3,3,2,3,5,2,2,0,4,3,395,
scooby_state_4037c1|54|26 361,0,0,1,2,2,1,1,2,1,0,1,1,0,18,391,
scooby_state_4037c1|61|55 346,6,3,2,3,1,1,2,3,3,4,3,4,4,6,391,
scooby_state_4037c1|31|20 342,0,0,1,0,0,0,0,0,0,0,9,1,1,36,390,
scooby_state_403702|17|0 382,0,1,0,1,0,0,0,0,0,0,1,1,1,2,389,
scooby_state_4037c1|42|39 359,0,1,0,3,3,1,0,2,0,3,1,8,0,7,388,
scooby_state_4037c1|53|33 347,4,2,3,1,2,0,0,0,0,0,2,1,3,22,387,
scooby_state_403709|12|0 361,2,2,1,1,1,2,5,2,1,1,0,0,2,3,384,
scooby_state_4037c1|32|26 344,4,3,2,3,1,1,1,1,1,0,2,3,1,16,383,
scooby_state_4037c1|59|57 298,6,5,7,5,8,4,5,4,6,6,3,8,7,11,383,
scooby_state_4037c1|38|34 352,1,5,7,2,1,3,1,1,1,4,1,1,0,1,381,
scooby_state_4037c1|26|20 354,1,3,1,0,2,0,0,0,0,0,3,2,2,12,380,
scooby_state_402c4c|17|1 0,0,0,0,0,1,2,2,1,0,0,374,0,0,0,380,
scooby_state_4037c1|45|26 344,2,2,0,3,1,0,1,1,1,0,1,2,3,16,377,
scooby_state_4037c1|11|3 331,4,2,2,1,5,5,4,4,1,5,2,2,4,4,376,
scooby_state_4037c1|19|-24 311,2,4,1,7,6,6,6,8,7,11,0,2,5,0,376,
scooby_state_4037c1|58|31 337,1,4,1,6,3,2,1,2,0,1,2,4,4,7,375,
scooby_state_403702|32|0 359,1,1,1,4,0,1,1,0,0,0,2,1,2,0,373,
scooby_state_4037c1|60|33 320,1,5,4,2,3,1,3,3,0,0,1,2,2,21,368,
scooby_state_4037c1|15|6 322,2,2,3,6,4,2,4,2,5,1,0,4,2,9,368,
scooby_state_4037c1|36|26 335,3,1,3,2,0,3,4,1,0,0,0,3,1,10,366,
scooby_state_4037c1|53|34 320,4,1,6,4,3,5,2,1,2,1,5,6,4,2,366,
scooby_state_4037c1|13|-24 313,1,5,3,6,4,1,2,4,4,4,5,8,3,1,364,
scooby_state_4037c1|11|-36 304,4,2,4,6,5,3,4,6,3,5,4,1,2,5,358,
scooby_state_4037c1|41|25 319,0,0,0,1,0,0,0,0,0,0,2,0,0,35,357,
scooby_state_4037c1|38|21 330,3,1,1,2,0,1,0,0,1,0,11,1,2,3,356,
scooby_state_403709|9|0 273,3,5,5,3,5,5,3,4,3,3,5,7,3,27,354,
scooby_state_4037c1|42|35 328,2,3,1,1,3,1,1,2,1,1,0,3,2,5,354,
scooby_state_4037c1|40|39 322,2,0,1,2,4,5,3,1,1,1,0,3,3,5,353,
scooby_state_40301f|53|-3 352,0,0,0,0,0,0,0,0,0,1,0,0,0,0,353,
scooby_state_403709|26|0 300,2,3,7,4,3,3,4,3,2,4,3,3,3,9,353,
scooby_state_4037c1|41|32 299,3,6,3,6,4,6,3,3,2,2,5,5,2,1,350,
scooby_state_4037c1|63|51 304,5,4,4,0,3,2,2,3,3,4,1,3,5,7,350,
scooby_state_402c50|43|0 2,0,1,0,2,0,0,0,0,0,0,342,0,1,0,348,
scooby_state_403702|51|0 322,1,1,1,2,1,2,2,0,2,0,7,0,4,1,346,
scooby_state_4037c1|39|34 310,4,3,4,2,2,3,2,1,1,2,2,4,3,3,346,
scooby_state_403702|0|0 326,1,1,0,1,2,2,0,2,1,2,5,1,0,1,345,
scooby_state_403044|55|2 2,1,1,0,0,1,0,0,1,0,1,338,0,0,0,345,
scooby_state_4037c1|40|32 296,1,5,4,7,4,1,2,6,4,3,1,5,3,2,344,
scooby_state_403709|6|0 315,1,0,4,2,3,3,1,2,4,2,1,3,1,1,343,
scooby_state_4037c1|46|26 327,2,0,0,1,1,0,2,1,0,0,0,2,4,3,343,
scooby_state_4037c1|59|23 311,0,2,2,3,2,1,1,4,0,1,4,2,4,3,340,
scooby_state_4037c1|38|22 304,2,0,2,1,0,0,2,0,0,4,10,2,2,8,337,
scooby_state_4037c1|46|31 295,5,1,3,6,2,2,1,2,4,2,3,4,2,5,337,
scooby_state_4037c1|39|36 303,1,3,4,2,5,3,2,0,1,0,1,2,3,6,336,
scooby_state_4037c1|60|5 301,2,0,3,1,2,2,3,1,1,3,4,2,4,6,335,
scooby_state_4037c1|18|11 298,3,3,3,2,2,3,2,2,3,1,0,3,5,4,334,
scooby_state_4037c1|62|62 305,0,0,0,0,0,0,0,0,0,0,24,0,1,2,332,
scooby_state_4037c1|43|27 288,2,2,2,4,5,4,0,2,3,3,5,4,2,3,329,
scooby_state_4037c1|49|8 290,4,2,2,0,5,4,2,4,4,2,3,1,3,3,329,
scooby_state_4037c1|59|34 318,0,2,0,1,0,0,1,1,0,0,2,0,2,0,327,
scooby_state_4037c1|51|31 289,1,2,2,2,2,1,5,2,0,2,3,3,8,5,327,
scooby_state_4037c1|28|18 293,0,2,2,2,2,2,4,4,0,3,6,4,2,1,327,
scooby_state_403709|45|0 241,4,9,5,6,5,9,8,5,7,7,3,8,5,4,326,
scooby_state_4037c1|61|13 297,3,2,2,3,4,3,2,3,2,1,0,0,1,3,326,
scooby_state_403709|24|0 288,4,4,3,3,2,3,2,3,2,3,1,3,2,1,324,
scooby_state_4037c1|33|24 295,2,2,1,2,3,3,2,2,1,0,5,1,2,3,324,
scooby_state_403702|54|0 305,2,0,2,1,1,1,2,0,2,0,3,1,1,2,323,
scooby_state_403702|45|0 296,1,3,2,1,0,0,0,0,2,3,12,1,0,1,322,
scooby_state_4037c1|40|20 295,0,1,1,2,0,0,0,0,0,0,0,1,1,20,321,
scooby_state_402c50|34|0 0,0,0,0,1,0,0,0,0,0,0,320,0,0,0,321,
scooby_state_4037c1|56|36 297,2,3,3,1,1,0,3,0,1,1,0,3,1,5,321,
scooby_state_4037c1|42|26 290,1,0,2,2,2,2,2,1,2,1,1,2,0,13,321,
scooby_state_4037c1|55|54 296,2,2,3,3,2,2,1,3,1,0,0,2,2,1,320,
scooby_state_403710|13|0 277,1,3,4,2,4,3,3,5,2,4,1,3,3,5,320,
scooby_state_4037c1|47|26 286,3,1,1,0,0,4,0,1,0,0,3,0,1,19,319,
scooby_state_4037c1|30|26 291,1,1,4,0,1,0,1,1,1,1,1,0,1,14,318,
scooby_state_4037c1|55|44 284,3,0,3,1,2,3,1,3,5,2,1,4,2,3,317,
scooby_state_4037c1|45|36 286,1,1,0,0,2,3,2,2,0,3,4,3,5,4,316,
scooby_state_4037c1|8|-31 262,7,2,3,2,5,3,3,1,2,8,0,6,2,9,315,
scooby_state_403702|57|0 293,1,2,0,1,1,1,1,1,0,0,8,1,2,2,314,
scooby_state_403702|39|0 275,2,2,0,2,2,2,0,4,0,4,11,3,1,3,311,
scooby_state_4037c1|59|30 261,5,4,4,2,1,4,1,3,0,2,0,2,4,17,310,
scooby_state_4037c1|26|7 267,3,2,2,4,3,3,2,2,2,2,5,3,6,4,310,
scooby_state_4037c1|55|45 260,4,3,2,2,4,3,3,3,3,3,4,7,7,0,308,
scooby_state_403702|33|0 269,4,2,3,2,3,4,2,1,3,0,8,0,2,5,308,
scooby_state_4037c1|48|44 263,2,3,4,3,2,2,1,2,5,3,6,2,3,5,306,
scooby_state_4037c1|60|47 272,4,4,2,2,0,3,1,1,2,3,6,3,1,2,306,
scooby_state_4037c1|15|13 272,3,2,1,3,3,1,1,4,5,2,0,1,3,5,306,
scooby_state_403702|52|0 267,2,1,2,2,3,3,2,2,1,3,13,1,1,2,305,
scooby_state_4037c1|63|48 281,0,0,0,0,0,0,0,0,0,0,0,0,1,22,304,
scooby_state_4037c1|49|44 286,1,1,0,0,0,2,2,1,1,0,3,2,1,2,302,
scooby_state_4037c1|60|51 274,3,2,5,1,1,3,0,1,2,0,0,3,4,2,301,
scooby_state_403709|15|0 247,2,3,3,2,4,3,2,3,4,1,3,4,2,16,299,
scooby_state_4037c1|58|41 269,1,4,0,2,3,5,1,1,1,3,1,5,2,0,298,
scooby_state_401380|52|1 224,6,1,2,2,2,1,2,2,0,3,2,3,5,42,297,
scooby_state_401380|59|1 208,3,5,3,3,0,3,5,2,5,2,1,3,2,52,297,
scooby_state_4037c1|13|-32 252,2,0,0,1,0,1,2,0,0,0,3,2,2,32,297,
scooby_state_401380|33|1 216,3,4,3,5,3,2,2,1,1,1,3,3,4,46,297,
scooby_state_401380|38|1 202,2,4,6,3,6,0,0,2,2,2,2,6,4,56,297,
scooby_state_401380|25|1 222,6,1,3,2,3,2,2,2,1,2,5,1,2,43,297,
scooby_state_401380|8|1 216,4,3,2,3,3,3,0,3,2,2,1,5,4,46,297,
scooby_state_401380|20|1 209,4,3,2,2,1,4,4,1,5,1,2,7,3,49,297,
scooby_state_401380|51|1 209,2,3,3,6,2,7,0,1,1,1,3,5,5,49,297,
scooby_state_401380|7|1 209,3,1,4,4,3,8,5,1,1,0,2,3,3,50,297,
scooby_state_401380|13|1 205,5,1,7,0,5,1,3,5,1,1,2,5,3,53,297,
scooby_state_401380|46|1 217,3,0,5,3,0,3,5,2,0,2,3,3,4,47,297,
scooby_state_401380|12|1 203,2,2,4,7,4,5,2,3,5,2,4,6,3,45,297,
scooby_state_4037c1|31|23 252,5,3,2,1,6,3,2,2,2,1,2,5,5,6,297,
scooby_state_4037c1|61|59 260,5,1,3,0,3,4,4,2,4,1,0,3,4,2,296,
scooby_state_4037c1|46|23 269,3,2,0,1,1,3,2,0,1,1,4,1,2,5,295,
scooby_state_4037c1|20|13 266,6,1,0,4,3,0,1,3,1,1,2,2,1,4,295,
scooby_state_401380|48|1 212,1,3,1,1,3,1,4,2,3,7,1,3,5,47,294,
scooby_state_401380|60|1 211,5,3,3,5,4,3,2,4,1,0,3,3,6,41,294,
scooby_state_401380|34|1 215,2,4,2,2,2,5,2,2,3,3,2,3,3,44,294,
scooby_state_401380|11|1 204,4,4,3,1,1,1,1,0,4,5,2,4,6,54,294,
scooby_state_401380|62|1 196,3,5,3,4,4,2,4,4,3,4,1,3,4,54,294,
scooby_state_401380|47|1 223,2,2,6,0,3,2,2,2,1,3,2,6,1,39,294,
scooby_state_401380|37|1 205,1,6,4,4,2,4,2,3,3,2,1,3,4,50,294,
scooby_state_401380|24|1 206,3,4,4,5,2,3,4,7,3,1,2,6,5,39,294,
scooby_state_401380|57|1 208,4,1,5,4,2,4,2,2,5,3,0,1,3,50,294,
scooby_state_401380|41|1 202,5,2,3,1,2,4,2,4,2,2,6,1,4,54,294,
scooby_state_401380|17|1 205,7,4,3,3,2,3,3,1,4,1,3,2,2,51,294,
scooby_state_401380|14|1 194,1,6,2,0,2,9,5,4,2,2,4,3,3,57,294,
scooby_state_401380|50|1 210,1,3,6,5,1,3,1,2,3,2,2,2,1,52,294,
scooby_state_401380|31|1 205,4,2,6,1,2,5,2,3,0,2,4,4,3,51,294,
scooby_state_401380|21|1 198,5,6,4,4,4,1,5,1,4,2,5,3,3,49,294,
scooby_state_401380|30|1 207,6,5,4,2,2,1,0,4,4,8,3,6,1,41,294,
scooby_state_401380|39|1 208,0,2,6,1,4,2,2,7,2,3,1,2,4,50,294,
scooby_state_401380|43|1 206,4,6,5,5,1,3,2,4,5,4,3,2,5,39,294,
scooby_state_401380|53|1 197,9,3,3,1,5,5,2,2,7,4,2,5,5,44,294,
scooby_state_401380|15|1 205,2,3,5,3,8,3,3,2,4,3,2,2,6,43,294,
scooby_state_401380|54|1 215,2,3,5,6,0,3,2,4,3,1,3,3,2,42,294,
scooby_state_401380|27|1 214,5,0,6,5,2,5,5,4,3,1,4,4,1,35,294,
scooby_state_401380|19|1 213,3,2,4,5,5,2,4,2,1,3,2,1,1,46,294,
scooby_state_401380|5|1 185,6,5,5,4,3,5,5,4,4,3,2,4,2,57,294,
scooby_state_401380|23|1 197,7,3,9,4,5,2,3,1,2,2,0,7,1,51,294,
scooby_state_401380|28|1 207,6,4,7,1,4,2,2,1,2,0,3,4,3,48,294,
scooby_state_401380|29|1 196,4,4,7,4,3,8,3,5,0,6,2,1,4,47,294,
scooby_state_401380|16|1 193,1,3,6,4,1,2,1,7,1,1,2,5,7,60,294,
scooby_state_401380|22|1 215,2,5,2,7,1,3,5,1,1,4,3,2,3,40,294,
scooby_state_401380|63|1 207,8,2,6,4,6,5,5,3,3,2,5,3,1,34,294,
scooby_state_401380|58|1 204,2,3,4,2,3,4,4,2,1,2,2,5,3,53,294,
scooby_state_401380|4|1 198,4,3,3,2,5,3,6,2,1,2,0,4,6,55,294,
scooby_state_401380|32|1 209,0,3,4,7,5,4,2,3,3,1,3,2,3,45,294,
scooby_state_401380|56|1 201,4,1,11,2,3,3,4,5,2,4,1,5,7,41,294,
scooby_state_401380|55|1 198,4,5,4,2,4,3,4,4,3,1,2,4,3,53,294,
scooby_state_401380|61|1 192,6,2,1,1,4,2,2,4,2,2,6,7,1,62,294,
scooby_state_401380|49|1 205,1,3,8,4,2,1,6,1,1,1,3,2,3,53,294,
scooby_state_401380|6|1 217,5,3,1,5,4,2,2,5,2,2,3,3,5,35,294,
scooby_state_401380|10|1 210,3,3,7,4,5,3,4,3,3,2,1,2,0,44,294,
scooby_state_401380|45|1 206,4,1,3,8,8,2,1,2,4,3,3,2,3,44,294,
scooby_state_401380|2|1 211,4,3,2,3,4,2,1,3,5,2,1,2,4,47,294,
scooby_state_401380|26|1 193,4,2,4,3,4,3,5,4,4,4,5,4,6,49,294,
scooby_state_401380|35|1 204,4,3,2,3,3,4,2,5,1,1,2,1,2,57,294,
scooby_state_401380|9|1 219,4,2,0,3,6,1,1,3,1,3,5,5,6,35,294,
scooby_state_401380|42|1 207,3,4,1,2,3,4,1,7,0,5,5,1,7,44,294,
scooby_state_401380|3|1 199,5,4,5,5,3,3,1,1,2,4,3,6,5,48,294,
scooby_state_401380|18|1 219,5,3,5,0,3,3,0,1,1,4,4,2,2,42,294,
scooby_state_401380|36|1 204,1,10,2,4,3,1,2,2,2,1,2,3,6,51,294,
scooby_state_401380|40|1 219,2,0,1,2,1,7,6,3,1,3,7,1,5,36,294,
scooby_state_401380|1|1 198,3,3,2,1,3,5,0,3,7,4,5,4,2,54,294,
scooby_state_401380|44|1 206,5,2,4,4,4,2,2,3,4,4,1,5,3,44,293,
scooby_state_4037c1|40|23 245,2,4,5,4,5,4,5,1,0,3,2,4,4,5,293,
scooby_state_4037c1|45|31 277,0,1,3,2,1,0,0,1,1,0,0,1,2,4,293,
scooby_state_4037c1|57|54 266,4,4,0,2,1,2,3,4,1,0,0,2,2,1,292,
scooby_state_403702|28|0 252,2,4,1,2,2,5,2,2,2,3,11,1,1,2,292,
scooby_state_402c4c|13|1 1,0,1,0,0,1,1,0,1,1,0,283,1,1,0,291,
scooby_state_4037c1|63|57 265,1,1,1,2,1,0,2,3,1,3,3,2,1,4,290,
scooby_state_4037c1|38|18 267,1,2,2,1,0,3,0,1,2,3,4,1,3,0,290,
scooby_state_403709|62|0 256,3,3,2,2,3,2,0,2,0,2,1,2,2,9,289,
scooby_state_4037c1|60|35 251,3,3,2,2,3,2,4,2,1,5,2,3,2,2,287,
scooby_state_4037c1|50|10 234,4,1,5,4,5,3,2,7,5,2,3,3,4,5,287,
scooby_state_4037c1|19|8 242,2,1,4,3,3,3,5,4,5,1,3,2,2,6,286,
scooby_state_403702|13|0 262,1,2,1,2,1,2,1,0,1,1,4,2,2,3,285,
scooby_state_4037c1|62|44 266,1,3,1,0,3,3,1,2,2,0,0,0,1,1,284,
scooby_state_4037c1|27|23 252,4,1,2,4,2,1,3,4,3,3,1,2,0,1,283,
scooby_state_4037c1|60|31 256,2,1,4,0,4,0,3,0,1,0,3,5,1,3,283,
scooby_state_4037c1|58|42 255,1,0,0,0,0,0,0,0,0,0,5,2,1,18,282,
scooby_state_403709|47|0 179,6,7,5,5,7,8,5,4,7,3,5,5,5,29,280,
scooby_state_403702|2|0 257,1,2,2,1,2,0,0,0,2,0,7,2,1,2,279,
scooby_state_4037c1|18|8 265,1,1,1,1,1,2,0,2,0,2,1,0,0,2,279,
scooby_state_403702|62|0 242,2,2,3,2,3,3,2,2,1,2,7,2,2,4,279,
scooby_state_4037c1|63|39 250,5,2,3,2,1,1,3,2,0,4,0,1,3,2,279,
scooby_state_4037c1|57|31 240,6,0,5,3,1,2,3,1,3,1,6,2,4,2,279,
scooby_state_403702|59|0 263,2,0,1,1,1,1,0,0,0,0,7,1,0,0,277,
scooby_state_4037c1|35|29 256,1,3,2,0,0,3,0,1,1,1,1,2,1,5,277,
scooby_state_4037c1|3|-29 223,3,7,6,3,2,2,5,4,3,3,5,3,6,1,276,
scooby_state_4037c1|60|23 245,5,1,2,2,2,1,4,1,3,3,2,1,0,3,275,
scooby_state_4037c1|34|15 244,4,1,1,1,3,1,0,0,1,1,5,4,3,4,273,
scooby_state_4037c1|49|32 246,5,2,2,3,2,2,2,3,1,2,0,1,1,1,273,
scooby_state_4037c1|31|26 243,1,0,1,1,2,1,0,1,3,0,1,3,1,15,273,
scooby_state_4037c1|42|34 236,1,2,1,4,4,4,2,3,2,0,3,3,1,5,271,
scooby_state_4037c1|2|-49 229,0,0,1,0,0,0,0,0,0,0,0,0,0,41,271,
scooby_state_4037c1|43|37 246,0,1,3,0,1,1,2,1,1,3,1,3,1,5,269,
scooby_state_403709|33|0 267,0,0,1,0,0,0,0,0,0,1,0,0,0,0,269,
scooby_state_4037c1|21|-33 231,3,1,3,1,2,2,5,2,5,3,1,1,2,6,268,
scooby_state_402c56|34|-1 29,8,6,5,8,9,5,8,6,7,7,9,9,19,133,268,
scooby_state_4037c1|51|35 239,3,1,1,0,1,3,2,3,2,4,2,2,1,3,267,
scooby_state_40301f|52|-2 266,0,0,0,0,0,0,0,0,0,0,0,0,0,0,266,
scooby_state_402c4c|35|0 1,1,0,1,1,1,1,1,1,1,0,257,0,0,0,266,
scooby_state_403710|32|0 206,6,4,5,4,5,3,4,4,3,5,3,4,3,7,266,
scooby_state_402c8c|12|0 265,0,0,0,0,0,0,0,0,0,0,0,0,0,0,265,
scooby_state_403709|34|0 224,3,2,4,1,3,2,4,4,2,1,2,2,3,8,265,
scooby_state_4037c1|43|32 239,2,2,2,2,2,0,3,1,2,1,2,2,2,3,265,
scooby_state_4037c1|61|52 239,2,2,5,2,1,2,2,2,1,2,0,1,3,1,265,
scooby_state_4037c1|60|27 226,1,5,2,2,2,1,3,3,1,0,10,1,4,3,264,
scooby_state_403709|2|0 224,3,3,3,4,2,4,2,0,2,2,1,3,4,7,264,
scooby_state_4037c1|32|-26 224,6,2,1,3,4,2,2,1,2,4,0,4,4,5,264,
scooby_state_4037c1|53|26 244,1,3,2,1,1,0,0,1,0,1,0,1,3,6,264,
scooby_state_4037c1|33|18 229,2,2,4,3,3,5,2,4,2,1,1,2,1,3,264,
scooby_state_4037c1|58|52 251,1,1,2,1,0,0,0,1,1,0,1,2,0,2,263,
scooby_state_403702|21|0 233,2,1,2,3,2,2,1,2,1,2,8,1,1,2,263,
scooby_state_4037c1|50|39 221,3,1,5,3,0,2,4,2,2,1,7,4,0,7,262,
scooby_state_4037c1|59|32 238,1,2,2,2,2,5,1,1,0,3,1,2,2,0,262,
scooby_state_4037c1|36|3 251,0,2,0,0,2,0,0,1,1,1,1,2,0,1,262,
scooby_state_403702|55|0 254,0,1,1,1,0,1,0,0,0,0,3,0,1,0,262,
scooby_state_4037c1|54|44 232,5,1,3,1,2,0,1,3,2,4,2,0,2,4,262,
scooby_state_4037c1|43|28 231,1,2,0,0,0,3,6,3,3,1,1,2,3,5,261,
scooby_state_4037c1|31|21 229,0,1,2,0,0,0,0,0,0,0,16,1,0,11,260,
scooby_state_4037c1|54|28 231,2,3,2,0,2,1,1,3,4,3,1,2,1,4,260,
scooby_state_4037c1|13|-34 213,3,4,4,5,0,1,5,3,3,4,9,2,2,1,259,
scooby_state_4037c1|36|16 241,1,2,0,0,2,1,0,1,1,0,3,3,1,3,259,
scooby_state_403044|56|4 2,1,0,0,1,1,1,0,0,1,1,251,0,0,0,259,
scooby_state_4037c1|20|18 230,3,1,3,2,1,2,1,3,0,3,4,2,1,2,258,
scooby_state_4037c1|63|62 228,1,0,2,0,0,0,0,1,2,0,21,0,0,3,258,
[...]
scooby_state_4029e0|56|-6 1,0,0,0,0,0,0,0,0,0,0,0,0,0,0,1,
scooby_state_4029e0|4|-37 1,0,0,0,0,0,0,0,0,0,0,0,0,0,0,1,
scooby_state_4037c1|22|-6 1,0,0,0,0,0,0,0,0,0,0,0,0,0,0,1,
scooby_state_4029e0|53|2 1,0,0,0,0,0,0,0,0,0,0,0,0,0,0,1,
scooby_state_403709|28|-16 0,0,0,0,0,0,0,1,0,0,0,0,0,0,0,1,
scooby_state_403702|43|12 1,0,0,0,0,0,0,0,0,0,0,0,0,0,0,1,
scooby_state_40304c|10|0 1,0,0,0,0,0,0,0,0,0,0,0,0,0,0,1,
scooby_state_402c50|47|2 0,0,0,0,0,0,0,0,0,0,0,1,0,0,0,1,
scooby_state_4029e0|2|-50 1,0,0,0,0,0,0,0,0,0,0,0,0,0,0,1,
scooby_state_402cbc|21|-27 1,0,0,0,0,0,0,0,0,0,0,0,0,0,0,1,
scooby_state_402c2d|55|-1 0,0,0,0,0,0,0,0,0,0,0,1,0,0,0,1,
scooby_state_402cbc|31|13 1,0,0,0,0,0,0,0,0,0,0,0,0,0,0,1,
scooby_state_4036ff|0|-62 0,0,0,0,0,0,0,0,0,1,0,0,0,0,0,1,
scooby_state_4029f8|43|-20 0,0,0,0,0,0,0,0,0,0,0,1,0,0,0,1,
scooby_state_4029e0|2|-37 1,0,0,0,0,0,0,0,0,0,0,0,0,0,0,1,
scooby_state_4029e0|61|33 1,0,0,0,0,0,0,0,0,0,0,0,0,0,0,1,
scooby_state_402cbc|43|10 1,0,0,0,0,0,0,0,0,0,0,0,0,0,0,1,
scooby_state_402c88|16|0 0,0,0,0,0,0,0,0,0,0,0,0,0,0,1,1,
scooby_state_4029e0|38|-21 1,0,0,0,0,0,0,0,0,0,0,0,0,0,0,1,
scooby_state_402cb8|55|-1 0,0,0,0,0,0,0,0,0,0,0,0,0,0,1,1,
scooby_state_4029f8|21|15 1,0,0,0,0,0,0,0,0,0,0,0,0,0,0,1,
scooby_state_4029f8|58|10 0,0,0,0,0,0,0,0,0,0,0,0,0,0,1,1,
scooby_state_4029e0|16|-16 1,0,0,0,0,0,0,0,0,0,0,0,0,0,0,1,
scooby_state_403702|38|31 0,0,0,0,0,0,0,0,0,0,0,1,0,0,0,1,
scooby_state_4029e0|18|-39 1,0,0,0,0,0,0,0,0,0,0,0,0,0,0,1,
scooby_state_4029e0|8|-4 1,0,0,0,0,0,0,0,0,0,0,0,0,0,0,1,
scooby_state_4013ab|10|-39 0,0,0,0,0,0,0,0,0,0,0,0,1,0,0,1,
scooby_state_4029e0|1|-21 1,0,0,0,0,0,0,0,0,0,0,0,0,0,0,1,
scooby_state_4029e6|35|0 0,0,0,0,0,0,0,0,0,1,0,0,0,0,0,1,
scooby_state_402bc1|0|0 1,0,0,0,0,0,0,0,0,0,0,0,0,0,0,1,
scooby_state_4029f8|16|5 0,0,0,0,0,0,0,0,0,0,0,0,0,0,1,1,
scooby_state_403709|27|6 1,0,0,0,0,0,0,0,0,0,0,0,0,0,0,1,
scooby_state_4029f8|28|26 0,0,0,0,0,0,0,0,0,0,0,1,0,0,0,1,
scooby_state_4029f8|60|18 0,0,0,0,0,0,1,0,0,0,0,0,0,0,0,1,
scooby_state_403709|48|27 0,0,0,0,0,0,0,0,1,0,0,0,0,0,0,1,
scooby_state_402bb0|13|-14 1,0,0,0,0,0,0,0,0,0,0,0,0,0,0,1,
scooby_state_402b90|13|-11 0,0,0,1,0,0,0,0,0,0,0,0,0,0,0,1,
scooby_state_4029f8|44|5 0,0,0,0,0,0,0,0,0,0,0,0,0,0,1,1,
scooby_state_4029f8|42|13 0,0,0,0,0,0,1,0,0,0,0,0,0,0,0,1,
scooby_state_4029e0|17|15 1,0,0,0,0,0,0,0,0,0,0,0,0,0,0,1,
scooby_state_4029f8|26|18 0,1,0,0,0,0,0,0,0,0,0,0,0,0,0,1,
scooby_state_4029e0|24|-31 1,0,0,0,0,0,0,0,0,0,0,0,0,0,0,1,
scooby_state_402c8c|38|8 1,0,0,0,0,0,0,0,0,0,0,0,0,0,0,1,
scooby_state_4029f8|61|26 0,0,0,0,0,0,0,0,0,0,0,1,0,0,0,1,
scooby_state_4029f8|34|10 0,0,0,1,0,0,0,0,0,0,0,0,0,0,0,1,
scooby_state_4029f8|0|-61 1,0,0,0,0,0,0,0,0,0,0,0,0,0,0,1,
scooby_state_4029f8|32|-18 0,1,0,0,0,0,0,0,0,0,0,0,0,0,0,1,
scooby_state_4029f8|4|-14 0,0,0,1,0,0,0,0,0,0,0,0,0,0,0,1,
scooby_state_403702|44|-13 1,0,0,0,0,0,0,0,0,0,0,0,0,0,0,1,
scooby_state_4029f8|59|12 0,1,0,0,0,0,0,0,0,0,0,0,0,0,0,1,
scooby_state_4029f8|51|46 0,0,0,0,0,0,0,1,0,0,0,0,0,0,0,1,
scooby_state_4029f8|7|-39 0,0,0,0,0,0,0,1,0,0,0,0,0,0,0,1,
scooby_state_4029f8|60|7 0,0,0,0,0,0,0,1,0,0,0,0,0,0,0,1,
scooby_state_4029e0|50|43 1,0,0,0,0,0,0,0,0,0,0,0,0,0,0,1,
scooby_state_4029e0|44|33 1,0,0,0,0,0,0,0,0,0,0,0,0,0,0,1,
scooby_state_4037aa|24|3 0,0,0,0,0,0,0,0,0,0,0,1,0,0,0,1,
scooby_state_4029f8|43|15 1,0,0,0,0,0,0,0,0,0,0,0,0,0,0,1,
scooby_state_4029f8|49|31 0,0,0,0,0,0,1,0,0,0,0,0,0,0,0,1,
scooby_state_402c8c|31|-24 1,0,0,0,0,0,0,0,0,0,0,0,0,0,0,1,
scooby_state_402a0a|52|0 1,0,0,0,0,0,0,0,0,0,0,0,0,0,0,1,
scooby_state_403702|53|30 0,0,0,0,0,0,0,0,0,0,1,0,0,0,0,1,
scooby_state_403702|1|-44 0,1,0,0,0,0,0,0,0,0,0,0,0,0,0,1,
scooby_state_402c2d|39|2 0,0,0,0,0,0,0,0,1,0,0,0,0,0,0,1,
scooby_state_4029e0|0|-58 1,0,0,0,0,0,0,0,0,0,0,0,0,0,0,1,
scooby_state_4029e0|30|-4 1,0,0,0,0,0,0,0,0,0,0,0,0,0,0,1,
scooby_state_4029f8|39|8 0,0,0,1,0,0,0,0,0,0,0,0,0,0,0,1,
scooby_state_403709|24|-19 0,0,0,0,0,0,0,0,0,0,0,0,0,1,0,1,
scooby_state_4037c1|41|-16 1,0,0,0,0,0,0,0,0,0,0,0,0,0,0,1,
scooby_state_4037c1|9|-48 1,0,0,0,0,0,0,0,0,0,0,0,0,0,0,1,
scooby_state_403709|11|9 1,0,0,0,0,0,0,0,0,0,0,0,0,0,0,1,
scooby_state_402cb8|26|-1 0,0,0,0,0,0,0,0,0,0,0,0,0,0,1,1,
scooby_state_403702|23|-34 1,0,0,0,0,0,0,0,0,0,0,0,0,0,0,1,
scooby_state_403709|26|-17 0,0,0,0,0,0,0,0,0,1,0,0,0,0,0,1,
scooby_state_4029e0|48|-6 1,0,0,0,0,0,0,0,0,0,0,0,0,0,0,1,
scooby_state_4029f8|63|11 0,0,0,1,0,0,0,0,0,0,0,0,0,0,0,1,
scooby_state_4029f8|59|46 0,0,0,0,0,1,0,0,0,0,0,0,0,0,0,1,
scooby_state_4029f8|38|21 0,0,0,0,0,1,0,0,0,0,0,0,0,0,0,1,
scooby_state_4029f8|47|28 0,0,0,0,0,0,1,0,0,0,0,0,0,0,0,1,
scooby_state_4029f8|60|21 0,0,0,0,0,1,0,0,0,0,0,0,0,0,0,1,
scooby_state_4029f8|3|-23 0,0,0,0,0,1,0,0,0,0,0,0,0,0,0,1,
scooby_state_403709|27|25 1,0,0,0,0,0,0,0,0,0,0,0,0,0,0,1,
scooby_state_4029e0|10|2 1,0,0,0,0,0,0,0,0,0,0,0,0,0,0,1,
scooby_state_4029e0|60|59 1,0,0,0,0,0,0,0,0,0,0,0,0,0,0,1,
scooby_state_4029e0|2|-43 1,0,0,0,0,0,0,0,0,0,0,0,0,0,0,1,
scooby_state_402c4c|44|39 0,0,0,0,0,0,0,0,0,0,0,1,0,0,0,1,
scooby_state_40304c|0|-18 0,0,0,0,0,0,0,0,0,0,0,0,1,0,0,1,
scooby_state_4037aa|24|15 1,0,0,0,0,0,0,0,0,0,0,0,0,0,0,1,
scooby_state_403702|9|-13 1,0,0,0,0,0,0,0,0,0,0,0,0,0,0,1,
scooby_state_403702|22|3 0,0,0,0,1,0,0,0,0,0,0,0,0,0,0,1,
scooby_state_4013ab|0|-51 0,0,0,0,0,0,0,0,1,0,0,0,0,0,0,1,
scooby_state_4036ff|33|2 1,0,0,0,0,0,0,0,0,0,0,0,0,0,0,1,
scooby_state_403709|6|-17 1,0,0,0,0,0,0,0,0,0,0,0,0,0,0,1,
scooby_state_403702|25|-23 0,0,0,0,0,0,1,0,0,0,0,0,0,0,0,1,
scooby_state_403702|20|2 0,0,0,1,0,0,0,0,0,0,0,0,0,0,0,1,
scooby_state_403702|8|-4 0,0,0,1,0,0,0,0,0,0,0,0,0,0,0,1,
scooby_state_402c8c|2|-45 1,0,0,0,0,0,0,0,0,0,0,0,0,0,0,1,
scooby_state_403702|19|10 1,0,0,0,0,0,0,0,0,0,0,0,0,0,0,1,
scooby_state_4029e0|42|33 1,0,0,0,0,0,0,0,0,0,0,0,0,0,0,1,
scooby_state_4029e0|60|31 1,0,0,0,0,0,0,0,0,0,0,0,0,0,0,1,
scooby_state_4037c1|0|-40 1,0,0,0,0,0,0,0,0,0,0,0,0,0,0,1,
scooby_state_402c88|60|1 0,0,0,0,0,0,0,0,0,0,0,0,0,0,1,1,
scooby_state_4029d1|11|-2 0,0,0,0,0,0,0,0,0,1,0,0,0,0,0,1,
scooby_state_4029f8|47|24 0,0,0,1,0,0,0,0,0,0,0,0,0,0,0,1,
scooby_state_402b90|1|0 1,0,0,0,0,0,0,0,0,0,0,0,0,0,0,1,
scooby_state_403702|46|-4 1,0,0,0,0,0,0,0,0,0,0,0,0,0,0,1,
scooby_state_4036ff|53|32 1,0,0,0,0,0,0,0,0,0,0,0,0,0,0,1,
scooby_state_4037aa|59|2 1,0,0,0,0,0,0,0,0,0,0,0,0,0,0,1,
scooby_state_4029f8|11|-9 0,0,0,0,0,0,1,0,0,0,0,0,0,0,0,1,
scooby_state_4029f8|3|-43 0,0,0,0,0,0,1,0,0,0,0,0,0,0,0,1,
scooby_state_4029e0|57|51 1,0,0,0,0,0,0,0,0,0,0,0,0,0,0,1,
scooby_state_4029f8|5|-16 0,0,0,0,0,0,1,0,0,0,0,0,0,0,0,1,
scooby_state_4036ff|37|19 0,0,0,0,0,0,0,0,0,0,0,1,0,0,0,1,
scooby_state_4029e0|7|3 1,0,0,0,0,0,0,0,0,0,0,0,0,0,0,1,
scooby_state_4029f8|16|-26 0,0,0,0,0,0,0,0,0,0,0,1,0,0,0,1,
scooby_state_40138f|8|-23 0,0,0,1,0,0,0,0,0,0,0,0,0,0,0,1,
scooby_state_4013ab|27|-34 0,0,0,0,0,1,0,0,0,0,0,0,0,0,0,1,
scooby_state_4036ff|7|-26 0,0,0,0,0,0,1,0,0,0,0,0,0,0,0,1,
scooby_state_403702|4|-19 0,0,0,0,0,0,0,0,1,0,0,0,0,0,0,1,
scooby_state_4029e0|57|41 1,0,0,0,0,0,0,0,0,0,0,0,0,0,0,1,
scooby_state_4037c1|4|-24 0,0,0,1,0,0,0,0,0,0,0,0,0,0,0,1,
scooby_state_4037c1|24|-28 0,0,0,0,0,0,0,0,0,0,0,0,0,1,0,1,
scooby_state_402c50|32|-20 0,0,0,0,0,0,0,0,0,0,0,1,0,0,0,1,
scooby_state_4029d1|36|-11 1,0,0,0,0,0,0,0,0,0,0,0,0,0,0,1,
scooby_state_402b94|35|1 0,1,0,0,0,0,0,0,0,0,0,0,0,0,0,1,
scooby_state_402c20|37|21 1,0,0,0,0,0,0,0,0,0,0,0,0,0,0,1,
scooby_state_403702|53|7 1,0,0,0,0,0,0,0,0,0,0,0,0,0,0,1,
scooby_state_403709|36|10 1,0,0,0,0,0,0,0,0,0,0,0,0,0,0,1,
scooby_state_402c8c|50|-10 1,0,0,0,0,0,0,0,0,0,0,0,0,0,0,1,
scooby_state_403710|2|-7 1,0,0,0,0,0,0,0,0,0,0,0,0,0,0,1,
scooby_state_4037c1|26|-34 0,0,0,0,0,0,1,0,0,0,0,0,0,0,0,1,
scooby_state_403702|9|-15 1,0,0,0,0,0,0,0,0,0,0,0,0,0,0,1,
scooby_state_4029e0|42|28 0,0,0,0,0,0,1,0,0,0,0,0,0,0,0,1,
scooby_state_4029f8|34|34 0,0,0,0,0,0,0,0,0,0,0,0,1,0,0,1,
scooby_state_40138f|15|7 0,0,0,0,0,0,0,0,0,0,0,0,0,1,0,1,
scooby_state_4036ff|30|9 1,0,0,0,0,0,0,0,0,0,0,0,0,0,0,1,
scooby_state_4037c1|1|-2 0,1,0,0,0,0,0,0,0,0,0,0,0,0,0,1,
scooby_state_4029e0|61|15 1,0,0,0,0,0,0,0,0,0,0,0,0,0,0,1,
scooby_state_4013a1|41|-19 0,0,0,0,0,0,0,0,0,0,0,0,0,0,1,1,
scooby_state_4036ff|18|9 1,0,0,0,0,0,0,0,0,0,0,0,0,0,0,1,
scooby_state_403702|42|-11 1,0,0,0,0,0,0,0,0,0,0,0,0,0,0,1,
scooby_state_402c4c|29|24 0,0,0,0,0,0,0,0,0,0,0,1,0,0,0,1,
scooby_state_402c43|17|-1 0,0,0,0,0,0,0,0,0,0,0,1,0,0,0,1,
scooby_state_40304c|62|4 0,0,0,0,0,0,0,0,0,0,0,1,0,0,0,1,
scooby_state_4029f8|24|16 0,0,0,1,0,0,0,0,0,0,0,0,0,0,0,1,
scooby_state_403702|20|8 1,0,0,0,0,0,0,0,0,0,0,0,0,0,0,1,
scooby_state_4037aa|21|12 0,0,0,1,0,0,0,0,0,0,0,0,0,0,0,1,
scooby_state_403709|33|-9 0,0,0,0,0,0,0,0,1,0,0,0,0,0,0,1,
scooby_state_4029e0|7|-50 0,0,0,1,0,0,0,0,0,0,0,0,0,0,0,1,
scooby_state_4029e0|12|-35 1,0,0,0,0,0,0,0,0,0,0,0,0,0,0,1,
scooby_state_4029e0|29|-1 1,0,0,0,0,0,0,0,0,0,0,0,0,0,0,1,
scooby_state_40302b|19|12 0,0,0,0,0,0,0,0,0,0,0,0,0,0,1,1,
scooby_state_4029f8|0|-1 0,0,0,1,0,0,0,0,0,0,0,0,0,0,0,1,
scooby_state_4029f8|23|0 0,0,0,1,0,0,0,0,0,0,0,0,0,0,0,1,
scooby_state_4029f8|48|5 0,0,0,1,0,0,0,0,0,0,0,0,0,0,0,1,
scooby_state_4029f8|22|-23 0,0,0,1,0,0,0,0,0,0,0,0,0,0,0,1,
scooby_state_403709|37|-10 0,0,0,0,0,0,0,0,0,0,0,0,0,1,0,1,
scooby_state_402cbc|48|-2 1,0,0,0,0,0,0,0,0,0,0,0,0,0,0,1,
scooby_state_40304c|18|-31 0,0,0,0,0,0,0,0,0,0,0,1,0,0,0,1,
scooby_state_4036ff|58|19 0,0,0,0,0,0,0,0,0,0,0,1,0,0,0,1,
scooby_state_4029f8|18|-39 1,0,0,0,0,0,0,0,0,0,0,0,0,0,0,1,
scooby_state_4029f8|57|42 0,0,0,1,0,0,0,0,0,0,0,0,0,0,0,1,
scooby_state_4029f8|46|7 0,0,0,1,0,0,0,0,0,0,0,0,0,0,0,1,
scooby_state_4029f8|10|5 0,0,0,1,0,0,0,0,0,0,0,0,0,0,0,1,
scooby_state_4029e0|15|5 1,0,0,0,0,0,0,0,0,0,0,0,0,0,0,1,
scooby_state_403709|61|42 1,0,0,0,0,0,0,0,0,0,0,0,0,0,0,1,
scooby_state_402c50|52|11 0,0,0,0,0,0,0,0,0,0,0,1,0,0,0,1,
scooby_state_4029f8|59|34 1,0,0,0,0,0,0,0,0,0,0,0,0,0,0,1,
scooby_state_4029d1|22|11 1,0,0,0,0,0,0,0,0,0,0,0,0,0,0,1,
scooby_state_403710|42|34 0,0,0,0,1,0,0,0,0,0,0,0,0,0,0,1,
scooby_state_4029f8|14|13 0,0,1,0,0,0,0,0,0,0,0,0,0,0,0,1,
scooby_state_4029f8|27|-11 0,0,0,0,0,0,1,0,0,0,0,0,0,0,0,1,
scooby_state_402c4c|18|-33 0,0,0,0,0,0,0,0,0,0,0,1,0,0,0,1,
scooby_state_4029e0|37|23 1,0,0,0,0,0,0,0,0,0,0,0,0,0,0,1,
scooby_state_4029e6|0|-6 1,0,0,0,0,0,0,0,0,0,0,0,0,0,0,1,
scooby_state_4013ab|60|13 1,0,0,0,0,0,0,0,0,0,0,0,0,0,0,1,
scooby_state_402c4c|35|32 0,0,0,0,0,0,0,0,0,0,0,1,0,0,0,1,
scooby_state_403709|50|-13 0,0,0,0,0,0,0,1,0,0,0,0,0,0,0,1,
scooby_state_4029e0|15|2 1,0,0,0,0,0,0,0,0,0,0,0,0,0,0,1,
scooby_state_4037c1|7|-2 1,0,0,0,0,0,0,0,0,0,0,0,0,0,0,1,
scooby_state_403709|61|17 0,0,0,0,0,0,0,0,0,0,0,1,0,0,0,1,
scooby_state_403702|6|-17 1,0,0,0,0,0,0,0,0,0,0,0,0,0,0,1,
scooby_state_4036ff|63|30 0,0,0,0,0,0,0,0,0,0,0,1,0,0,0,1,
scooby_state_4029f8|23|-32 0,0,0,0,1,0,0,0,0,0,0,0,0,0,0,1,
scooby_state_4029f8|7|-27 0,0,0,0,0,0,0,0,0,0,0,0,0,0,1,1,
scooby_state_4029f8|52|41 0,0,0,0,0,0,0,0,0,0,0,0,0,0,1,1,
scooby_state_4029e6|0|-54 0,0,0,0,0,0,1,0,0,0,0,0,0,0,0,1,
scooby_state_4029f8|57|-1 0,0,0,0,0,0,0,0,0,0,0,0,0,0,1,1,
scooby_state_40302b|50|4 1,0,0,0,0,0,0,0,0,0,0,0,0,0,0,1,
scooby_state_403702|4|3 0,0,0,0,0,0,0,0,0,0,1,0,0,0,0,1,
scooby_state_4029e0|24|15 1,0,0,0,0,0,0,0,0,0,0,0,0,0,0,1,
scooby_state_4029f8|0|-55 0,0,0,0,0,0,0,0,0,0,0,1,0,0,0,1,
scooby_state_403709|22|-41 1,0,0,0,0,0,0,0,0,0,0,0,0,0,0,1,
scooby_state_4029f8|14|-32 0,0,0,0,1,0,0,0,0,0,0,0,0,0,0,1,
scooby_state_4029f8|58|40 0,0,0,0,0,0,0,0,0,0,0,0,0,0,1,1,
scooby_state_4029f8|60|35 0,0,0,0,0,0,0,0,0,0,0,0,0,0,1,1,
scooby_state_4029e0|20|-34 1,0,0,0,0,0,0,0,0,0,0,0,0,0,0,1,
scooby_state_4029e6|15|0 1,0,0,0,0,0,0,0,0,0,0,0,0,0,0,1,
scooby_state_402c4c|28|13 0,0,0,0,0,0,0,0,0,0,0,1,0,0,0,1,
scooby_state_402bc5|3|0 0,0,1,0,0,0,0,0,0,0,0,0,0,0,0,1,
scooby_state_4029f8|33|-3 0,0,0,0,0,0,0,1,0,0,0,0,0,0,0,1,
scooby_state_4029e0|0|-21 1,0,0,0,0,0,0,0,0,0,0,0,0,0,0,1,
scooby_state_40302b|29|-1 1,0,0,0,0,0,0,0,0,0,0,0,0,0,0,1,
scooby_state_4037c1|59|-4 0,0,0,1,0,0,0,0,0,0,0,0,0,0,0,1,
scooby_state_4029e0|56|15 0,0,0,0,0,0,0,0,0,0,0,0,0,0,1,1,
scooby_state_4013b2|32|-27 1,0,0,0,0,0,0,0,0,0,0,0,0,0,0,1,
scooby_state_4029e0|62|51 1,0,0,0,0,0,0,0,0,0,0,0,0,0,0,1,
scooby_state_4037aa|61|2 0,0,0,0,0,0,0,0,0,0,0,0,0,1,0,1,
scooby_state_403445|17|0 1,0,0,0,0,0,0,0,0,0,0,0,0,0,0,1,
scooby_state_403702|4|-26 1,0,0,0,0,0,0,0,0,0,0,0,0,0,0,1,
scooby_state_403709|28|16 0,0,0,0,0,0,0,1,0,0,0,0,0,0,0,1,
scooby_state_4029e6|0|-45 0,0,0,0,0,0,0,0,0,0,1,0,0,0,0,1,
scooby_state_4029f8|59|13 1,0,0,0,0,0,0,0,0,0,0,0,0,0,0,1,
scooby_state_4037c1|22|-19 1,0,0,0,0,0,0,0,0,0,0,0,0,0,0,1,

scooby_action_0_deg_dist 0,614525,0,0,0,0,0,0,0,0,0,0,0,0,0,0,
scooby_action_-6_deg_dist 0,11304,84,0,47,0,15,0,0,0,0,0,0,0,0,0,
scooby_action_4_deg_dist 0,11135,92,0,46,0,15,0,0,0,0,0,0,0,0,0,
scooby_action_1_deg_dist 0,10309570,36908,0,25879,0,11140,0,0,0,0,0,0,0,0,0,
scooby_action_30_deg_dist 0,9045,16,0,2,0,0,0,0,0,0,0,0,0,0,0,
scooby_action_5_deg_dist 0,11628,131,0,45,0,5,0,0,0,0,0,0,0,0,0,
scooby_action_10_deg_dist 0,10371,41,0,4,0,0,0,0,0,0,0,0,0,0,0,
scooby_action_3_deg_dist 0,11716,79,0,38,0,8,0,0,0,0,0,0,0,0,0,
scooby_action_32_deg_dist 0,8738,14,0,0,0,0,0,0,0,0,0,0,0,0,0,
scooby_action_11_deg_dist 0,10672,61,0,42,0,9,0,0,0,0,0,0,0,0,0,
scooby_action_12_deg_dist 0,10327,38,0,10,0,0,0,0,0,0,0,0,0,0,0,
scooby_action_22_deg_dist 0,9483,9,0,3,0,0,0,0,0,0,0,0,0,0,0,
scooby_action_23_deg_dist 0,9239,19,0,5,0,0,0,0,0,0,0,0,0,0,0,
scooby_action_-1_deg_dist 0,33825,777,0,603,0,234,0,0,0,0,0,0,0,0,0,
scooby_action_-3_deg_dist 0,11531,78,0,25,0,2,0,0,0,0,0,0,0,0,0,

scooby_track_called 11159633
scooby_track_same_address 12710
scooby_track_evict 11146667

scooby_reward_demand_called 11159633
scooby_reward_demand_pt_not_found 11020017
scooby_reward_demand_pt_found 139616
scooby_reward_demand_pt_found_total 139616
scooby_reward_demand_has_reward 203
scooby_reward_train_called 10830903
scooby_reward_assign_reward_called 11146668
scooby_reward_no_pref 614503
scooby_reward_incorrect 10216400
scooby_reward_correct_untimely 115540
scooby_reward_correct_timely 23873
scooby_reward_out_of_bounds 176352
scooby_reward_tracker_hit 0

scooby_reward_none_low_bw 614503
scooby_reward_none_high_bw 0
scooby_reward_incorrect_low_bw 10216400
scooby_reward_incorrect_high_bw 0
scooby_reward_correct_untimely_low_bw 115540
scooby_reward_correct_untimely_high_bw 0
scooby_reward_correct_timely_low_bw 23873
scooby_reward_correct_timely_high_bw 0
scooby_reward_out_of_bounds_low_bw 176352
scooby_reward_out_of_bounds_high_bw 0
scooby_reward_tracker_hit_low_bw 0
scooby_reward_tracker_hit_high_bw 0

scooby_reward_1 0,10100088,106693,19201,151534,0,
scooby_reward_3 0,10228,129,314,506,0,
scooby_reward_4 0,9810,129,218,697,0,
scooby_reward_5 0,9824,158,356,876,0,
scooby_reward_10 0,8314,66,158,1562,0,
scooby_reward_11 0,8192,74,218,1787,0,
scooby_reward_12 0,7880,53,126,1915,0,
scooby_reward_22 0,5681,23,90,3310,0,
scooby_reward_23 0,5628,22,80,3322,0,
scooby_reward_30 0,4400,15,73,4272,0,
scooby_reward_32 0,4004,17,35,4507,0,
scooby_reward_-1 0,22463,7950,2427,635,0,
scooby_reward_-3 0,10188,111,276,505,0,
scooby_reward_-6 0,9700,100,301,924,0,
scooby_reward_0 614503,0,0,0,0,0,

scooby_train_called 11146666
scooby_train_compute_reward 10830903

scooby_register_fill_called 8618205
scooby_register_fill_set 8550849
scooby_register_fill_set_total 8550849

scooby_register_prefetch_hit_called 1780952
scooby_register_prefetch_hit_set 1735683
scooby_register_prefetch_hit_set_total 1735683

scooby_pref_issue_scooby 10520053

learning_engine_featurewise.action.called 11159633
learning_engine_featurewise.action.explore 20231
learning_engine_featurewise.action.exploit 11139402
learning_engine_featurewise.action.fallback 10218874
learning_engine_featurewise.action.dyn_fallback_saved_bw 0
learning_engine_featurewise.action.dyn_fallback_saved_bw_acc 702252
learning_engine_featurewise.action.index_1_explored 1385
learning_engine_featurewise.action.index_1_exploited 10382112
learning_engine_featurewise.action.index_3_explored 1348
learning_engine_featurewise.action.index_3_exploited 10493
learning_engine_featurewise.action.index_4_explored 1361
learning_engine_featurewise.action.index_4_exploited 9927
learning_engine_featurewise.action.index_5_explored 1314
learning_engine_featurewise.action.index_5_exploited 10495
learning_engine_featurewise.action.index_10_explored 1382
learning_engine_featurewise.action.index_10_exploited 9034
learning_engine_featurewise.action.index_11_explored 1347
learning_engine_featurewise.action.index_11_exploited 9437
learning_engine_featurewise.action.index_12_explored 1410
learning_engine_featurewise.action.index_12_exploited 8965
learning_engine_featurewise.action.index_22_explored 1375
learning_engine_featurewise.action.index_22_exploited 8120
learning_engine_featurewise.action.index_23_explored 1297
learning_engine_featurewise.action.index_23_exploited 7966
learning_engine_featurewise.action.index_30_explored 1338
learning_engine_featurewise.action.index_30_exploited 7725
learning_engine_featurewise.action.index_32_explored 1298
learning_engine_featurewise.action.index_32_exploited 7454
learning_engine_featurewise.action.index_-1_explored 1358
learning_engine_featurewise.action.index_-1_exploited 34081
learning_engine_featurewise.action.index_-3_explored 1332
learning_engine_featurewise.action.index_-3_exploited 10304
learning_engine_featurewise.action.index_-6_explored 1331
learning_engine_featurewise.action.index_-6_exploited 10119
learning_engine_featurewise.action.index_0_explored 1355
learning_engine_featurewise.action.index_0_exploited 613170
learning_engine_featurewise.learn.called 11146666
learning_engine_featurewise.learn.su_skip_PC 0
learning_engine_featurewise.learn.su_skip_PC_Delta 0

learning_engine_featurewise.q_value_histogram.bucket_0 648977
learning_engine_featurewise.q_value_histogram.bucket_1 19643
learning_engine_featurewise.q_value_histogram.bucket_2 10346219
learning_engine_featurewise.q_value_histogram.bucket_3 53154
learning_engine_featurewise.q_value_histogram.bucket_4 45637
learning_engine_featurewise.q_value_histogram.bucket_5 16895
learning_engine_featurewise.q_value_histogram.bucket_6 8877
learning_engine_featurewise.q_value_histogram.bucket_7 0

learning_engine_featurewise.consensus.total 11139402
learning_engine_featurewise.consensus.feature_align_PC 10426281
learning_engine_featurewise.consensus.feature_align_PC_ratio 0.94
learning_engine_featurewise.consensus.feature_align_PC_Delta 10430538
learning_engine_featurewise.consensus.feature_align_PC_Delta_ratio 0.94
learning_engine_featurewise.consensus.feature_align_all 10377433
learning_engine_featurewise.consensus.feature_align_all_ratio 0.93

learning_engine_featurewise.feature_PC_min_weight 1000000.00000000
learning_engine_featurewise.feature_PC_max_weight 0.00000000
learning_engine_featurewise.feature_PC_Delta_min_weight 1000000.00000000
learning_engine_featurewise.feature_PC_Delta_max_weight 0.00000000
unique_pcs 113
unique_pages 74343
unique_trigger_pcs 70
total_bitmaps_seen 0
unique_bitmaps_seen 0

scooby_bw_epochs 2106432
scooby_bw_level_0 1308951
scooby_bw_level_1 654698
scooby_bw_level_2 121586
scooby_bw_level_3 21197

scooby_ipc_epochs 0
scooby_ipc_level_0 0
scooby_ipc_level_1 0
scooby_ipc_level_2 0
scooby_ipc_level_3 0

scooby_cache_acc_epochs 507947
scooby_cache_acc_level_0 19421
scooby_cache_acc_level_1 46124
scooby_cache_acc_level_2 106461
scooby_cache_acc_level_3 199482
scooby_cache_acc_level_4 106214
scooby_cache_acc_level_5 22658
scooby_cache_acc_level_6 4848
scooby_cache_acc_level_7 1471
scooby_cache_acc_level_8 602
scooby_cache_acc_level_9 666

Channel_0_RQ_row_buffer_hit 726297
Channel_0_RQ_row_buffer_miss 4248701
Channel_0_WQ_row_buffer_hit 39973
Channel_0_WQ_row_buffer_miss 68319
Channel_0_WQ_full 0
Channel_0_dbus_congested 784521

avg_congested_cycle 7

DRAM_bw_pochs 2106432
DRAM_bw_level_0 1308951
DRAM_bw_level_1 654698
DRAM_bw_level_2 121586
DRAM_bw_level_3 21197
