*************************************************
   ChampSim Multicore Out-of-Order Simulator
   Last compiled: Apr  3 2025 20:54:34
*************************************************
parsing config file: /home/zir/Pythia/config/mlop.ini

trace_0 /home/zir/ChampSim/ML-DPC/ChampSimTraces/spec06/437.leslie3d-s2.trace.gz
adding L2C_PREFETCHER: MLOP
Initialize SHIP state
warmup_instructions 10000000
simulation_instructions 50000000
champsim_seed 165
measure_ipc 0
measure_ipc_epoch 1000
measure_dram_bw 1
measure_dram_bw_epoch 256
measure_cache_acc 1
measure_cache_acc_epoch 1024
l1d_perfect 0
l2c_perfect 0
llc_perfect 0
l1d_semi_perfect 0
l2c_semi_perfect 0
llc_semi_perfect 0
semi_perfect_cache_page_buffer_size 64

num_cpus 1
cpu_freq 4000
dram_io_freq 2400
page_size 4096
block_size 64
max_read_per_cycle 8
max_fill_per_cycle 1
dram_channels 1
log2_dram_channels 0
dram_ranks 1
dram_banks 8
dram_rows 65536
dram_columns 128
dram_row_size 8
dram_size 4096
dram_pages 1048576

fetch_width 6
decode_width 6
exec_width 4
lq_width 2
sq_width 2
retire_width 4
scheduler_size 128
branch_mispredict_penalty 20
rob_size 256
lq_size 72
sq_size 56
num_instr_destinations_sparc 4
num_instr_destinations 2
num_instr_sources 4

itlb_set 16
itlb_way 8
itlb_rq_size 16
itlb_wq_size 16
itlb_pq_size 0
itlb_mshr_size 8
itlb_latency 1

dtlb_set 16
dtlb_way 4
dtlb_rq_size 16
dtlb_wq_size 16
dtlb_pq_size 0
dtlb_mshr_size 8
dtlb_latency 1

stlb_set 128
stlb_way 12
stlb_rq_size 32
stlb_wq_size 32
stlb_pq_size 0
stlb_mshr_size 16
stlb_latency 8

l1i_size 32
l1i_set 64
l1i_way 8
l1i_rq_size 64
l1i_wq_size 64
l1i_pq_size 8
l1i_mshr_size 8
l1i_latency 1

l1d_size 32
l1d_set 64
l1d_way 8
l1d_rq_size 64
l1d_wq_size 64
l1d_pq_size 8
l1d_mshr_size 16
l1d_latency 4

l2c_size 256
l2c_set 512
l2c_way 8
l2c_rq_size 32
l2c_wq_size 32
l2c_pq_size 32
l2c_mshr_size 32
l2c_latency 10

llc_size 2048
llc_set 2048
llc_way 16
llc_rq_size 32
llc_wq_size 32
llc_pq_size 32
llc_mshr_size 64
llc_latency 20

dram_channel_width 8
dram_wq_size 64
dram_rq_size 64
tRP 15
tRCD 15
tCAS 12.5
dram_dbus_turn_around_time 30
dram_write_high_wm 56
dram_write_low_wm 48
min_dram_writes_per_switch 16
dram_mtps 2400
dram_dbus_return_time 13

mlop_pref_degree 16
mlop_num_updates 500
mlop_l1d_thresh 2
mlop_l2c_thresh 0.75
mlop_llc_thresh 0.3
mlop_debug_level 0
mlop_blocks_in_cache 4096
mlop_blocks_in_zone 64
mlop_amt_size 2048
mlop_PF_DEGREE 16
mlop_NUM_UPDATES 500
mlop_L1D_THRESH 1000
mlop_L2C_THRESH 375
mlop_LLC_THRESH 150
mlop_ORIGIN 63
mlop_MAX_OFFSET 63
mlop_MIN_OFFSET -63
mlop_ORIGIN 63
mlop_NUM_OFFSETS 127


Heartbeat CPU  0 instructions:    1000003 cycles:     569032 heartbeat IPC: 1.75738 cumulative IPC: 1.75738 (Simulation time: 0 hr 0 min 2 sec) 
Heartbeat CPU  0 instructions:    2000002 cycles:    1146667 heartbeat IPC: 1.73120 cumulative IPC: 1.74419 (Simulation time: 0 hr 0 min 4 sec) 
Heartbeat CPU  0 instructions:    3000000 cycles:    1742859 heartbeat IPC: 1.67731 cumulative IPC: 1.72131 (Simulation time: 0 hr 0 min 6 sec) 
Heartbeat CPU  0 instructions:    4000000 cycles:    2338167 heartbeat IPC: 1.67980 cumulative IPC: 1.71074 (Simulation time: 0 hr 0 min 7 sec) 
Heartbeat CPU  0 instructions:    5000003 cycles:    2885539 heartbeat IPC: 1.82692 cumulative IPC: 1.73278 (Simulation time: 0 hr 0 min 9 sec) 
Heartbeat CPU  0 instructions:    6000003 cycles:    3480528 heartbeat IPC: 1.68070 cumulative IPC: 1.72388 (Simulation time: 0 hr 0 min 11 sec) 
Heartbeat CPU  0 instructions:    7000000 cycles:    4075814 heartbeat IPC: 1.67986 cumulative IPC: 1.71745 (Simulation time: 0 hr 0 min 13 sec) 
Heartbeat CPU  0 instructions:    8000000 cycles:    4622565 heartbeat IPC: 1.82899 cumulative IPC: 1.73064 (Simulation time: 0 hr 0 min 15 sec) 
Heartbeat CPU  0 instructions:    9000003 cycles:    5217695 heartbeat IPC: 1.68031 cumulative IPC: 1.72490 (Simulation time: 0 hr 0 min 17 sec) 
Heartbeat CPU  0 instructions:   10000000 cycles:    5812998 heartbeat IPC: 1.67981 cumulative IPC: 1.72028 (Simulation time: 0 hr 0 min 19 sec) 

Warmup complete CPU  0 instructions:   10000004 cycles:    5812999 (Simulation time: 0 hr 0 min 19 sec) 

Heartbeat CPU  0 instructions:   11000000 cycles:    6823352 heartbeat IPC: 0.98975 cumulative IPC: 0.98975 (Simulation time: 0 hr 0 min 21 sec) 
Heartbeat CPU  0 instructions:   12000000 cycles:    8021322 heartbeat IPC: 0.83475 cumulative IPC: 0.90566 (Simulation time: 0 hr 0 min 23 sec) 
Heartbeat CPU  0 instructions:   13000003 cycles:    9408144 heartbeat IPC: 0.72108 cumulative IPC: 0.83446 (Simulation time: 0 hr 0 min 26 sec) 
Heartbeat CPU  0 instructions:   14000000 cycles:   10740981 heartbeat IPC: 0.75028 cumulative IPC: 0.81169 (Simulation time: 0 hr 0 min 28 sec) 
Heartbeat CPU  0 instructions:   15000000 cycles:   11956984 heartbeat IPC: 0.82237 cumulative IPC: 0.81380 (Simulation time: 0 hr 0 min 30 sec) 
Heartbeat CPU  0 instructions:   16000000 cycles:   13312168 heartbeat IPC: 0.73791 cumulative IPC: 0.80009 (Simulation time: 0 hr 0 min 33 sec) 
Heartbeat CPU  0 instructions:   17000000 cycles:   14482883 heartbeat IPC: 0.85418 cumulative IPC: 0.80739 (Simulation time: 0 hr 0 min 35 sec) 
Heartbeat CPU  0 instructions:   18000001 cycles:   15771258 heartbeat IPC: 0.77617 cumulative IPC: 0.80335 (Simulation time: 0 hr 0 min 38 sec) 
Heartbeat CPU  0 instructions:   19000000 cycles:   16956221 heartbeat IPC: 0.84391 cumulative IPC: 0.80767 (Simulation time: 0 hr 0 min 40 sec) 
Heartbeat CPU  0 instructions:   20000000 cycles:   18149452 heartbeat IPC: 0.83806 cumulative IPC: 0.81061 (Simulation time: 0 hr 0 min 42 sec) 
Heartbeat CPU  0 instructions:   21000001 cycles:   19231429 heartbeat IPC: 0.92423 cumulative IPC: 0.81977 (Simulation time: 0 hr 0 min 44 sec) 
Heartbeat CPU  0 instructions:   22000001 cycles:   21251916 heartbeat IPC: 0.49493 cumulative IPC: 0.77726 (Simulation time: 0 hr 0 min 47 sec) 
Heartbeat CPU  0 instructions:   23000000 cycles:   23463139 heartbeat IPC: 0.45224 cumulative IPC: 0.73654 (Simulation time: 0 hr 0 min 50 sec) 
Heartbeat CPU  0 instructions:   24000000 cycles:   26226569 heartbeat IPC: 0.36187 cumulative IPC: 0.68582 (Simulation time: 0 hr 0 min 53 sec) 
Heartbeat CPU  0 instructions:   25000003 cycles:   29027212 heartbeat IPC: 0.35706 cumulative IPC: 0.64616 (Simulation time: 0 hr 0 min 55 sec) 
Heartbeat CPU  0 instructions:   26000001 cycles:   32037978 heartbeat IPC: 0.33214 cumulative IPC: 0.61011 (Simulation time: 0 hr 0 min 59 sec) 
Heartbeat CPU  0 instructions:   27000000 cycles:   34504516 heartbeat IPC: 0.40543 cumulative IPC: 0.59251 (Simulation time: 0 hr 1 min 2 sec) 
Heartbeat CPU  0 instructions:   28000000 cycles:   36575481 heartbeat IPC: 0.48287 cumulative IPC: 0.58513 (Simulation time: 0 hr 1 min 5 sec) 
Heartbeat CPU  0 instructions:   29000003 cycles:   38505480 heartbeat IPC: 0.51814 cumulative IPC: 0.58117 (Simulation time: 0 hr 1 min 8 sec) 
Heartbeat CPU  0 instructions:   30000000 cycles:   39755477 heartbeat IPC: 0.80000 cumulative IPC: 0.58923 (Simulation time: 0 hr 1 min 10 sec) 
Heartbeat CPU  0 instructions:   31000003 cycles:   40751727 heartbeat IPC: 1.00377 cumulative IPC: 0.60105 (Simulation time: 0 hr 1 min 12 sec) 
Heartbeat CPU  0 instructions:   32000000 cycles:   41732757 heartbeat IPC: 1.01933 cumulative IPC: 0.61248 (Simulation time: 0 hr 1 min 14 sec) 
Heartbeat CPU  0 instructions:   33000001 cycles:   42694980 heartbeat IPC: 1.03926 cumulative IPC: 0.62361 (Simulation time: 0 hr 1 min 17 sec) 
Heartbeat CPU  0 instructions:   34000002 cycles:   43629968 heartbeat IPC: 1.06953 cumulative IPC: 0.63464 (Simulation time: 0 hr 1 min 19 sec) 
Heartbeat CPU  0 instructions:   35000003 cycles:   44578190 heartbeat IPC: 1.05461 cumulative IPC: 0.64491 (Simulation time: 0 hr 1 min 21 sec) 
Heartbeat CPU  0 instructions:   36000000 cycles:   45534499 heartbeat IPC: 1.04568 cumulative IPC: 0.65456 (Simulation time: 0 hr 1 min 23 sec) 
Heartbeat CPU  0 instructions:   37000003 cycles:   46478471 heartbeat IPC: 1.05936 cumulative IPC: 0.66395 (Simulation time: 0 hr 1 min 25 sec) 
Heartbeat CPU  0 instructions:   38000002 cycles:   47418415 heartbeat IPC: 1.06389 cumulative IPC: 0.67299 (Simulation time: 0 hr 1 min 27 sec) 
Heartbeat CPU  0 instructions:   39000002 cycles:   48355446 heartbeat IPC: 1.06720 cumulative IPC: 0.68167 (Simulation time: 0 hr 1 min 30 sec) 
Heartbeat CPU  0 instructions:   40000000 cycles:   49295650 heartbeat IPC: 1.06360 cumulative IPC: 0.68993 (Simulation time: 0 hr 1 min 32 sec) 
Heartbeat CPU  0 instructions:   41000002 cycles:   50248619 heartbeat IPC: 1.04935 cumulative IPC: 0.69764 (Simulation time: 0 hr 1 min 34 sec) 
Heartbeat CPU  0 instructions:   42000002 cycles:   51183912 heartbeat IPC: 1.06918 cumulative IPC: 0.70530 (Simulation time: 0 hr 1 min 36 sec) 
Heartbeat CPU  0 instructions:   43000002 cycles:   52130056 heartbeat IPC: 1.05692 cumulative IPC: 0.71248 (Simulation time: 0 hr 1 min 38 sec) 
Heartbeat CPU  0 instructions:   44000000 cycles:   53061065 heartbeat IPC: 1.07410 cumulative IPC: 0.71961 (Simulation time: 0 hr 1 min 40 sec) 
Heartbeat CPU  0 instructions:   45000000 cycles:   53998744 heartbeat IPC: 1.06646 cumulative IPC: 0.72636 (Simulation time: 0 hr 1 min 43 sec) 
Heartbeat CPU  0 instructions:   46000000 cycles:   54944109 heartbeat IPC: 1.05779 cumulative IPC: 0.73273 (Simulation time: 0 hr 1 min 45 sec) 
Heartbeat CPU  0 instructions:   47000003 cycles:   55880553 heartbeat IPC: 1.06787 cumulative IPC: 0.73900 (Simulation time: 0 hr 1 min 47 sec) 
Heartbeat CPU  0 instructions:   48000000 cycles:   56823475 heartbeat IPC: 1.06053 cumulative IPC: 0.74494 (Simulation time: 0 hr 1 min 49 sec) 
Heartbeat CPU  0 instructions:   49000000 cycles:   57750542 heartbeat IPC: 1.07867 cumulative IPC: 0.75090 (Simulation time: 0 hr 1 min 51 sec) 
Heartbeat CPU  0 instructions:   50000002 cycles:   58683391 heartbeat IPC: 1.07199 cumulative IPC: 0.75657 (Simulation time: 0 hr 1 min 54 sec) 
Heartbeat CPU  0 instructions:   51000002 cycles:   59636147 heartbeat IPC: 1.04959 cumulative IPC: 0.76175 (Simulation time: 0 hr 1 min 56 sec) 
Heartbeat CPU  0 instructions:   52000000 cycles:   60569482 heartbeat IPC: 1.07142 cumulative IPC: 0.76703 (Simulation time: 0 hr 1 min 58 sec) 
Heartbeat CPU  0 instructions:   53000001 cycles:   61515505 heartbeat IPC: 1.05706 cumulative IPC: 0.77196 (Simulation time: 0 hr 2 min 0 sec) 
Heartbeat CPU  0 instructions:   54000000 cycles:   62444266 heartbeat IPC: 1.07670 cumulative IPC: 0.77696 (Simulation time: 0 hr 2 min 2 sec) 
Heartbeat CPU  0 instructions:   55000003 cycles:   63377260 heartbeat IPC: 1.07182 cumulative IPC: 0.78174 (Simulation time: 0 hr 2 min 4 sec) 
Heartbeat CPU  0 instructions:   56000000 cycles:   64333623 heartbeat IPC: 1.04562 cumulative IPC: 0.78605 (Simulation time: 0 hr 2 min 7 sec) 
Heartbeat CPU  0 instructions:   57000000 cycles:   65271968 heartbeat IPC: 1.06571 cumulative IPC: 0.79046 (Simulation time: 0 hr 2 min 9 sec) 
Heartbeat CPU  0 instructions:   58000000 cycles:   66215333 heartbeat IPC: 1.06004 cumulative IPC: 0.79467 (Simulation time: 0 hr 2 min 11 sec) 
Heartbeat CPU  0 instructions:   59000002 cycles:   67134323 heartbeat IPC: 1.08815 cumulative IPC: 0.79907 (Simulation time: 0 hr 2 min 13 sec) 
Heartbeat CPU  0 instructions:   60000000 cycles:   68080701 heartbeat IPC: 1.05666 cumulative IPC: 0.80298 (Simulation time: 0 hr 2 min 15 sec) 
Finished CPU 0 instructions: 50000000 cycles: 62267752 cumulative IPC: 0.80298 (Simulation time: 0 hr 2 min 15 sec) 

ChampSim completed all CPUs

[ROI Statistics]
Core_0_instructions 50000000
Core_0_cycles 62267752
Core_0_IPC 0.80298

Core_0_branch_prediction_accuracy 98.42229
Core_0_branch_MPKI 0.79620
Core_0_average_ROB_occupancy_at_mispredict 243.01050

Core_0_L1D_total_access 13525343
Core_0_L1D_total_hit 11081592
Core_0_L1D_total_miss 2443751
Core_0_L1D_loads 9729914
Core_0_L1D_load_hit 7834226
Core_0_L1D_load_miss 1895688
Core_0_L1D_RFOs 3795429
Core_0_L1D_RFO_hit 3247366
Core_0_L1D_RFO_miss 548063
Core_0_L1D_prefetches 0
Core_0_L1D_prefetch_hit 0
Core_0_L1D_prefetch_miss 0
Core_0_L1D_writebacks 0
Core_0_L1D_writeback_hit 0
Core_0_L1D_writeback_miss 0
Core_0_L1D_prefetch_requested 0
Core_0_L1D_prefetch_dropped 0
Core_0_L1D_prefetch_issued 0
Core_0_L1D_prefetch_filled 0
Core_0_L1D_prefetch_useful 0
Core_0_L1D_prefetch_useless 0
Core_0_L1D_prefetch_late 0
Core_0_L1D_average_miss_latency 106.41897

Core_0_L1D_rq_access 20887043
Core_0_L1D_rq_forward 0
Core_0_L1D_rq_merged 10147599
Core_0_L1D_rq_to_cache 10738929
Core_0_L1D_rq_full 0

Core_0_L1D_wq_access 6465929
Core_0_L1D_wq_forward 515
Core_0_L1D_wq_merged 6467
Core_0_L1D_wq_to_cache 6459462
Core_0_L1D_wq_full 5218

Core_0_L1D_pq_access 0
Core_0_L1D_pq_forward 0
Core_0_L1D_pq_merged 0
Core_0_L1D_pq_to_cache 0
Core_0_L1D_pq_full 0

Core_0_L1D_acc_epochs 64676
Core_0_L1D_acc_level_0 64676
Core_0_L1D_acc_level_1 0
Core_0_L1D_acc_level_2 0
Core_0_L1D_acc_level_3 0
Core_0_L1D_acc_level_4 0
Core_0_L1D_acc_level_5 0
Core_0_L1D_acc_level_6 0
Core_0_L1D_acc_level_7 0
Core_0_L1D_acc_level_8 0
Core_0_L1D_acc_level_9 0

Core_0_L1I_total_access 11335125
Core_0_L1I_total_hit 11334745
Core_0_L1I_total_miss 380
Core_0_L1I_loads 11335125
Core_0_L1I_load_hit 11334745
Core_0_L1I_load_miss 380
Core_0_L1I_RFOs 0
Core_0_L1I_RFO_hit 0
Core_0_L1I_RFO_miss 0
Core_0_L1I_prefetches 0
Core_0_L1I_prefetch_hit 0
Core_0_L1I_prefetch_miss 0
Core_0_L1I_writebacks 0
Core_0_L1I_writeback_hit 0
Core_0_L1I_writeback_miss 0
Core_0_L1I_prefetch_requested 0
Core_0_L1I_prefetch_dropped 0
Core_0_L1I_prefetch_issued 0
Core_0_L1I_prefetch_filled 0
Core_0_L1I_prefetch_useful 0
Core_0_L1I_prefetch_useless 0
Core_0_L1I_prefetch_late 0
Core_0_L1I_average_miss_latency 195.11842

Core_0_L1I_rq_access 50000004
Core_0_L1I_rq_forward 0
Core_0_L1I_rq_merged 38664641
Core_0_L1I_rq_to_cache 11335363
Core_0_L1I_rq_full 0

Core_0_L1I_wq_access 0
Core_0_L1I_wq_forward 0
Core_0_L1I_wq_merged 0
Core_0_L1I_wq_to_cache 0
Core_0_L1I_wq_full 0

Core_0_L1I_pq_access 0
Core_0_L1I_pq_forward 0
Core_0_L1I_pq_merged 0
Core_0_L1I_pq_to_cache 0
Core_0_L1I_pq_full 0

Core_0_L1I_acc_epochs 64676
Core_0_L1I_acc_level_0 64676
Core_0_L1I_acc_level_1 0
Core_0_L1I_acc_level_2 0
Core_0_L1I_acc_level_3 0
Core_0_L1I_acc_level_4 0
Core_0_L1I_acc_level_5 0
Core_0_L1I_acc_level_6 0
Core_0_L1I_acc_level_7 0
Core_0_L1I_acc_level_8 0
Core_0_L1I_acc_level_9 0

Core_0_L2C_total_access 4466352
Core_0_L2C_total_hit 2518914
Core_0_L2C_total_miss 1947438
Core_0_L2C_loads 1895840
Core_0_L2C_load_hit 1578748
Core_0_L2C_load_miss 317092
Core_0_L2C_RFOs 547790
Core_0_L2C_RFO_hit 200972
Core_0_L2C_RFO_miss 346818
Core_0_L2C_prefetches 1318210
Core_0_L2C_prefetch_hit 37000
Core_0_L2C_prefetch_miss 1281210
Core_0_L2C_writebacks 704512
Core_0_L2C_writeback_hit 702194
Core_0_L2C_writeback_miss 2318
Core_0_L2C_prefetch_requested 2267903
Core_0_L2C_prefetch_dropped 0
Core_0_L2C_prefetch_issued 2267903
Core_0_L2C_prefetch_filled 1488157
Core_0_L2C_prefetch_useful 1378198
Core_0_L2C_prefetch_useless 109550
Core_0_L2C_prefetch_late 54104
Core_0_L2C_average_miss_latency 279.40902

Core_0_L2C_rq_access 2444131
Core_0_L2C_rq_forward 0
Core_0_L2C_rq_merged 0
Core_0_L2C_rq_to_cache 2443630
Core_0_L2C_rq_full 0

Core_0_L2C_wq_access 704513
Core_0_L2C_wq_forward 515
Core_0_L2C_wq_merged 0
Core_0_L2C_wq_to_cache 704513
Core_0_L2C_wq_full 0

Core_0_L2C_pq_access 2267903
Core_0_L2C_pq_forward 0
Core_0_L2C_pq_merged 15171
Core_0_L2C_pq_to_cache 2252718
Core_0_L2C_pq_full 0

Core_0_L2C_acc_epochs 64676
Core_0_L2C_acc_level_0 77
Core_0_L2C_acc_level_1 149
Core_0_L2C_acc_level_2 576
Core_0_L2C_acc_level_3 1023
Core_0_L2C_acc_level_4 2303
Core_0_L2C_acc_level_5 3903
Core_0_L2C_acc_level_6 6057
Core_0_L2C_acc_level_7 8549
Core_0_L2C_acc_level_8 8149
Core_0_L2C_acc_level_9 33890

Core_0_LLC_total_access 2935533
Core_0_LLC_total_hit 1419986
Core_0_LLC_total_miss 1515547
Core_0_LLC_loads 263180
Core_0_LLC_load_hit 197565
Core_0_LLC_load_miss 65615
Core_0_LLC_RFOs 346812
Core_0_LLC_RFO_hit 56042
Core_0_LLC_RFO_miss 290770
Core_0_LLC_prefetches 1848813
Core_0_LLC_prefetch_hit 916567
Core_0_LLC_prefetch_miss 932246
Core_0_LLC_writebacks 476728
Core_0_LLC_writeback_hit 249812
Core_0_LLC_writeback_miss 226916
Core_0_LLC_prefetch_requested 0
Core_0_LLC_prefetch_dropped 0
Core_0_LLC_prefetch_issued 0
Core_0_LLC_prefetch_filled 1120096
Core_0_LLC_prefetch_useful 131523
Core_0_LLC_prefetch_useless 965025
Core_0_LLC_prefetch_late 6
Core_0_LLC_average_miss_latency 395.27383

Core_0_LLC_rq_access 610000
Core_0_LLC_rq_forward 0
Core_0_LLC_rq_merged 0
Core_0_LLC_rq_to_cache 609992
Core_0_LLC_rq_full 0

Core_0_LLC_wq_access 476728
Core_0_LLC_wq_forward 43
Core_0_LLC_wq_merged 0
Core_0_LLC_wq_to_cache 476728
Core_0_LLC_wq_full 0

Core_0_LLC_pq_access 2195827
Core_0_LLC_pq_forward 0
Core_0_LLC_pq_merged 10090
Core_0_LLC_pq_to_cache 2185702
Core_0_LLC_pq_full 0

Core_0_LLC_acc_epochs 66486
Core_0_LLC_acc_level_0 40171
Core_0_LLC_acc_level_1 8483
Core_0_LLC_acc_level_2 4264
Core_0_LLC_acc_level_3 2439
Core_0_LLC_acc_level_4 1704
Core_0_LLC_acc_level_5 1729
Core_0_LLC_acc_level_6 1027
Core_0_LLC_acc_level_7 899
Core_0_LLC_acc_level_8 764
Core_0_LLC_acc_level_9 5006

Core_0_major_page_fault 0
Core_0_minor_page_fault 12507

[MLOP] History of tracked zone:
IIIIIIIIIIIIIIIIIIIIIIIIIIIIIIIIIIIIIIIIIIIIIIIIIIIIIIIIIIIIIIII
A2222222222222224IIIIIIIIIIIIIIIIIIIIIIIIIIIIIIIIIIIIIIIIIIIIIII
AA2222222222222224IIIIIIIIIIIIIIIIIIIIIIIIIIIIIIIIIIIIIIIIIIIIII
AAA2222222222222224IIIIIIIIIIIIIIIIIIIIIIIIIIIIIIIIIIIIIIIIIIIII
AAAA2222222222222224IIIIIIIIIIIIIIIIIIIIIIIIIIIIIIIIIIIIIIIIIIII
AAAAA2222222222222224IIIIIIIIIIIIIIIIIIIIIIIIIIIIIIIIIIIIIIIIIII
AAAAAA2222222222222224IIIIIIIIIIIIIIIIIIIIIIIIIIIIIIIIIIIIIIIIII
AAAAAAA2222222222222224IIIIIIIIIIIIIIIIIIIIIIIIIIIIIIIIIIIIIIIII
AAAAAAA2222222222222224IIIIIIIIIII2IIIIIIIIIIIIIIIIIIIIIIIIIIIII
AAAAAAAA222222222222222IIIIIIIIIII22IIIIIIIIIIIIIIIIIIIIIIIIIIII
AAAAAAAAA222222222222222IIIIIIIIII222IIIIIIIIIIIIIIIIIIIIIIIIIII
AAAAAAAAAA222222222222222IIIIIIIII2222IIIIIIIIIIIIIIIIIIIIIIIIII
AAAAAAAAAAA222222222222222IIIIIIII22222IIIIIIIIIIIIIIIIIIIIIIIII
AAAAAAAAAAAA222222222222222IIIIIII222222IIIIIIIIIIIIIIIIIIIIIIII
AAAAAAAAAAAAA222222222222222IIIIII2222222IIIIIIIIIIIIIIIIIIIIIII
AAAAAAAAAAAAAA222222222222222IIIII22222222IIIIIIIIIIIIIIIIIIIIII
AAAAAAAAAAAAAAA222222222222222IIII222222222IIIIIIIIIIIIIIIIIIIII
AAAAAAAAAAAAAAAA222222222222222III2222222222IIIIIIIIIIIIIIIIIIII
AAAAAAAAAAAAAAAAA222222222222222II22222222222IIIIIIIIIIIIIIIIIII
AAAAAAAAAAAAAAAAAA222222222222222I222222222222IIIIIIIIIIIIIIIIII
AAAAAAAAAAAAAAAAAAA2222222222222222222222222222IIIIIIIIIIIIIIIII
AAAAAAAAAAAAAAAAAAAA2222222222222222222222222222IIIIIIIIIIIIIIII
AAAAAAAAAAAAAAAAAAAAA2222222222222222222222222222IIIIIIIIIIIIIII
AAAAAAAAAAAAAAAAAAAAAA2222222222222222222222222222IIIIIIIIIIIIII
AAAAAAAAAAAAAAAAAAAAAAA222222222222222222222222222IIIIIIIIIIIIII
AAAAAAAAAAAAAAAAAAAAAAAA22222222222222222222222222IIIIIIIIIIIIII
AAAAAAAAAAAAAAAAAAAAAAAAA2222222222222222222222222IIIIIIIIIIIIII
AAAAAAAAAAAAAAAAAAAAAAAAAA222222222222222222222222IIIIIIIIIIIIII
AAAAAAAAAAAAAAAAAAAAAAAAAAA222222222222222222222224IIIIIIIIIIIII
AAAAAAAAAAAAAAAAAAAAAAAAAAAA222222222222222222222244IIIIIIIIIIII
AAAAAAAAAAAAAAAAAAAAAAAAAAAAA222222222222222222222444IIIIIIIIIII
AAAAAAAAAAAAAAAAAAAAAAAAAAAAAA222222222222222222224444IIIIIIIIII
AAAAAAAAAAAAAAAAAAAAAAAAAAAAAAA222222222222222222244444IIIIIIIII
AAAAAAAAAAAAAAAAAAAAAAAAAAAAAAAA222222222222222222444444IIIIIIII
AAAAAAAAAAAAAAAAAAAAAAAAAAAAAAAAA222222222222222224444444IIIIIII
AAAAAAAAAAAAAAAAAAAAAAAAAAAAAAAAAA222222222222222244444444IIIIII
AAAAAAAAAAAAAAAAAAAAAAAAAAAAAAAAAAA222222222222222444444444IIIII
AAAAAAAAAAAAAAAAAAAAAAAAAAAAAAAAAAAA222222222222224444444444IIII
AAAAAAAAAAAAAAAAAAAAAAAAAAAAAAAAAAAAA222222222222244444444444III
AAAAAAAAAAAAAAAAAAAAAAAAAAAAAAAAAAAAAA222222222222444444444444II
AAAAAAAAAAAAAAAAAAAAAAAAAAAAAAAAAAAAAAA22222222222222244444444II
AAAAAAAAAAAAAAAAAAAAAAAAAAAAAAAAAAAAAAAA2222222222222224444444II
AAAAAAAAAAAAAAAAAAAAAAAAAAAAAAAAAAAAAAAAA222222222222222444444II
AAAAAAAAAAAAAAAAAAAAAAAAAAAAAAAAAAAAAAAAAA22222222222222244444II
AAAAAAAAAAAAAAAAAAAAAAAAAAAAAAAAAAAAAAAAAAA2222222222222224444II
AAAAAAAAAAAAAAAAAAAAAAAAAAAAAAAAAAAAAAAAAAAA222222222222222444II
AAAAAAAAAAAAAAAAAAAAAAAAAAAAAAAAAAAAAAAAAAAAA22222222222222244II
AAAAAAAAAAAAAAAAAAAAAAAAAAAAAAAAAAAAAAAAAAAAAA2222222222222224II
AAAAAAAAAAAAAAAAAAAAAAAAAAAAAAAAAAAAAAAAAAAAAAA2222222222222224I
AAAAAAAAAAAAAAAAAAAAAAAAAAAAAAAAAAAAAAAAAAAAAAAA2222222222222224
AAAAAAAAAAAAAAAAAAAAAAAAAAAAAAAAAAAAAAAAAAAAAAAAA222222222222222
AAAAAAAAAAAAAAAAAAAAAAAAAAAAAAAAAAAAAAAAAAAAAAAAAA22222222222222
AAAAAAAAAAAAAAAAAAAAAAAAAAAAAAAAAAAAAAAAAAAAAAAAAAA2222222222222
AAAAAAAAAAAAAAAAAAAAAAAAAAAAAAAAAAAAAAAAAAAAAAAAAAAA222222222222
AAAAAAAAAAAAAAAAAAAAAAAAAAAAAAAAAAAAAAAAAAAAAAAAAAAAA22222222222
AAAAAAAAAAAAAAAAAAAAAAAAAAAAAAAAAAAAAAAAAAAAAAAAAAAAAA2222222222
AAAAAAAAAAAAAAAAAAAAAAAAAAAAAAAAAAAAAAAAAAAAAAAAAAAAAAA222222222
AAAAAAAAAAAAAAAAAAAAAAAAAAAAAAAAAAAAAAAAAAAAAAAAAAAAAAAA22222222
AAAAAAAAAAAAAAAAAAAAAAAAAAAAAAAAAAAAAAAAAAAAAAAAAAAAAAAAA2222222
AAAAAAAAAAAAAAAAAAAAAAAAAAAAAAAAAAAAAAAAAAAAAAAAAAAAAAAAAA222222
AAAAAAAAAAAAAAAAAAAAAAAAAAAAAAAAAAAAAAAAAAAAAAAAAAAAAAAAAAA22222
AAAAAAAAAAAAAAAAAAAAAAAAAAAAAAAAAAAAAAAAAAAAAAAAAAAAAAAAAAAA2222
AAAAAAAAAAAAAAAAAAAAAAAAAAAAAAAAAAAAAAAAAAAAAAAAAAAAAAAAAAAAA222
AAAAAAAAAAAAAAAAAAAAAAAAAAAAAAAAAAAAAAAAAAAAAAAAAAAAAAAAAAAAAA22
AAAAAAAAAAAAAAAAAAAAAAAAAAAAAAAAAAAAAAAAAAAAAAAAAAAAAAAAAAAAAAA2
AAAAAAAAAAAAAAAAAAAAAAAAAAAAAAAAAAAAAAAAAAAAAAAAAAAAAAAAAAAAAAAA
AIAAAAAAAAAAAAAAAAAAAAAAAAAAAAAAAAAAAAAAAAAAAAAAAAAAAAAAAAAAAAAA
AIIAAAAAAAAAAAAAAAAAAAAAAAAAAAAAAAAAAAAAAAAAAAAAAAAAAAAAAAAAAAAA
AIIIAAAAAAAAAAAAAAAAAAAAAAAAAAAAAAAAAAAAAAAAAAAAAAAAAAAAAAAAAAAA
AIIIIAAAAAAAAAAAAAAAAAAAAAAAAAAAAAAAAAAAAAAAAAAAAAAAAAAAAAAAAAAA
AIIIIIAAAAAAAAAAAAAAAAAAAAAAAAAAAAAAAAAAAAAAAAAAAAAAAAAAAAAAAAAA
AIIIIIIAAAAAAAAAAAAAAAAAAAAAAAAAAAAAAAAAAAAAAAAAAAAAAAAAAAAAAAAA
AIIIIIIAAAAAAIAAAAAAAAAAAAAAAAAAAAAAAAAAAAAAAAAAAAAAAAAAAAAAAAAA
AIIIIIIAAAIAAIAAAAAAAAAAAAAAAAAAAAAAAAAAAAAAAAAAAAAAAAAAAAAAAAAA
AIIIIIIAAAIIAIAAAAAAAAAAAAAAAAAAAAAAAAAAAAAAAAAAAAAAAAAAAAAAAAAA
AIIIIIIAAAIIIIAAAAAAAAAAAAAAAAAAAAAAAAAAAAAAAAAAAAAAAAAAAAAAAAAA
AIIIIIIAAAIIIIIAAAAAAAAAAAAAAAAAAAAAAAAAAAAAAAAAAAAAAAAAAAAAAAAA
AIIIIIIAAAIIIIIIAAAAAAAAAAAAAAAAAAAAAAAAAAAAAAAAAAAAAAAAAAAAAAAA
AIIIIIIAAAIIIIIIIAAAAAAAAAAAAAAAAAAAAAAAAAAAAAAAAAAAAAAAAAAAAAAA
AIIIIIIAAAIIIIIIIIAAAAAAAAAAAAAAAAAAAAAAAAAAAAAAAAAAAAAAAAAAAAAA
AIIIIIIIAAIIIIIIIIAAAAAAAAAAAAAAAAAAAAAAAAAAAAAAAAAAAAAAAAAAAAAA
AIIIIIIIIAIIIIIIIIAAAAAAAAAAAAAAAAAAAAAAAAAAAAAAAAAAAAAAAAAAAAAA
AIIIIIIIIIIIIIIIIIAAAAAAAAAAAAAAAAAAAAAAAAAAAAAAAAAAAAAAAAAAAAAA
AIIIIIIIIIIIIIIIIIIAAAAAAAAAAAAAAAAAAAAAAAAAAAAAAAAAAAAAAAAAAAAA
AIIIIIIIIIIIIIIIIIIIAAAAAAAAAAAAAAAAAAAAAAAAAAAAAAAAAAAAAAAAAAAA
AIIIIIIIIIIIIIIIIIIIIAAAAAAAAAAAAAAAAAAAAAAAAAAAAAAAAAAAAAAAAAAA
AIIIIIIIIIIIIIIIIIIIIIAAAAAAAAAAAAAAAAAAAAAAAAAAAAAAAAAAAAAAAAAA
AIIIIIIIIIIIIIIIIIIIIIIAAAAAAAAAAAAAAAAAAAAAAAAAAAAAAAAAAAAAAAAA
AIIIIIIIIIIIIIIIIIIIIIIIAAAAAAAAAAAAAAAAAAAAAAAAAAAAAAAAAAAAAAAA
AIIIIIIIIIIIIIIIIIIIIIIIIAAAAAAAAAAAAAAAAAAAAAAAAAAAAAAAAAAAAAAA
AIIIIIIIIIIIIIIIIIIIIIIIIIAAAAAAAAAAAAAAAAAAAAAAAAAAAAAAAAAAAAAA
AIIIIIIIIIIIIIIIIIIIIIIIIIIAAAAAAAAAAAAAAAAAAAAAAAAAAAAAAAAAAAAA
AIIIIIIIIIIIIIIIIIIIIIIIIIIIAAAAAAAAAAAAAAAAAAAAAAAAAAAAAAAAAAAA
AIIIIIIIIIIIIIIIIIIIIIIIIIIIIAAAAAAAAAAAAAAAAAAAAAAAAAAAAAAAAAAA
AIIIIIIIIIIIIIIIIIIIIIIIIIIIIIAAAAAAAAAAAAAAAAAAAAAAAAAAAAAAAAAA
AIIIIIIIIIIIIIIIIIIIIIIIIIIIIIAAAAAAAAAAAAAAAAIAAAAAAAAAAAAAAAAA
AIIIIIIIIIIIIIIIIIIIIIIIIIIIIIAAAAAAAAAAAAAAAAIIAAAAAAAAAAAAAAAA
AIIIIIIIIIIIIIIIIIIIIIIIIIIIIIAAAAAAAAAAAAAAAAIIIAAAAAAAAAAAAAAA
AIIIIIIIIIIIIIIIIIIIIIIIIIIIIIAAAAAAAAAAAAAAAAIIIIAAAAAAAAAAAAAA
AIIIIIIIIIIIIIIIIIIIIIIIIIIIIIAAAAAAAAAAAAAAAAIIIIIAAAAAAAAAAAAA
AIIIIIIIIIIIIIIIIIIIIIIIIIIIIIAAAAAAAAAAAAAAAAIIIIIIAAAAAAAAAAAA
AIIIIIIIIIIIIIIIIIIIIIIIIIIIIIAAAAAAAAAAAAAAAAIIIIIIIAAAAAAAAAAA
AIIIIIIIIIIIIIIIIIIIIIIIIIIIIIIAAAAAAAAAAAAAAAIIIIIIIAAAAAAAAAAA
AIIIIIIIIIIIIIIIIIIIIIIIIIIIIIIAAAAAAAAAAAAIAAIIIIIIIAAAAAAAAAAA
AIIIIIIIIIIIIIIIIIIIIIIIIIIIIIIAAAAAAAAAAAAIIAIIIIIIIAAAAAAAAAAA
AIIIIIIIIIIIIIIIIIIIIIIIIIIIIIIAAAAAAAAAAAAIIIIIIIIIIAAAAAAAAAAA
AIIIIIIIIIIIIIIIIIIIIIIIIIIIIIIAAAAAAAAIAAAIIIIIIIIIIAAAAAAAAAAA
AIIIIIIIIIIIIIIIIIIIIIIIIIIIIIIAAAAAAAAIIAAIIIIIIIIIIAAAAAAAAAAA
AIIIIIIIIIIIIIIIIIIIIIIIIIIIIIIAAAAAAAAIIIAIIIIIIIIIIAAAAAAAAAAA
AIIIIIIIIIIIIIIIIIIIIIIIIIIIIIIAAAAAAAAIIIIIIIIIIIIIIAAAAAAAAAAA
AIIIIIIIIIIIIIIIIIIIIIIIIIIIIIIAAAAAAAAIIIIIIIIIIIIIIIAAAAAAAAAA
AIIIIIIIIIIIIIIIIIIIIIIIIIIIIIIAAAAAAAAIIIIIIIIIIIIIIIIAAAAAAAAA
AIIIIIIIIIIIIIIIIIIIIIIIIIIIIIIAAAAAAAAIIIIIIIIIIIIIIIIIAAAAAAAA
AIIIIIIIIIIIIIIIIIIIIIIIIIIIIIIAAAAAAAAIIIIIIIIIIIIIIIIIIAAAAAAA
AIIIIIIIIIIIIIIIIIIIIIIIIIIIIIIAAAAAAAAIIIIIIIIIIIIIIIIIIIAAAAAA
AIIIIIIIIIIIIIIIIIIIIIIIIIIIIIIAAAAAAAAIIIIIIIIIIIIIIIIIIIIAAAAA
AIIIIIIIIIIIIIIIIIIIIIIIIIIIIIIIAAAAAAAIIIIIIIIIIIIIIIIIIIIAAAAA
AIIIIIIIIIIIIIIIIIIIIIIIIIIIIIIIIAAAAAAIIIIIIIIIIIIIIIIIIIIAAAAA
AIIIIIIIIIIIIIIIIIIIIIIIIIIIIIIIIIAAAAAIIIIIIIIIIIIIIIIIIIIAAAAA
AIIIIIIIIIIIIIIIIIIIIIIIIIIIIIIIIIAAAAAIIIIIIIIIIIIIIIIIIIIIAAAA
AIIIIIIIIIIIIIIIIIIIIIIIIIIIIIIIIIAAAAAIIIIIIIIIIIIIIIIIIIIIIAAA
AIIIIIIIIIIIIIIIIIIIIIIIIIIIIIIIIIAAAAAIIIIIIIIIIIIIIIIIIIIIIAIA
AIIIIIIIIIIIIIIIIIIIIIIIIIIIIIIIIIAAAAAIIIIIIIIIIIIIIIIIIIIIIAII
AIIIIIIIIIIIIIIIIIIIIIIIIIIIIIIIIIAAAAAIIIIIIIIIIIIIIIIIIIIIIIII
AIIIIIIIIIIIIIIIIIIIIIIIIIIIIIIIIIIAAAAIIIIIIIIIIIIIIIIIIIIIIIII
AIIIIIIIIIIIIIIIIIIIIIIIIIIIIIIIIIIIAAAIIIIIIIIIIIIIIIIIIIIIIIII
AIIIIIIIIIIIIIIIIIIIIIIIIIIIIIIIIIIIIAAIIIIIIIIIIIIIIIIIIIIIIIII
AIIIIIIIIIIIIIIIIIIIIIIIIIIIIIIIIIIIIIAIIIIIIIIIIIIIIIIIIIIIIIII
AIIIIIIIIIIIIIIIIIIIIIIIIIIIIIIIIIIIIIIIIIIIIIIIIIIIIIIIIIIIIIII
IIIIIIIIIIIIIIIIIIIIIIIIIIIIIIIIIIIIIIIIIIIIIIIIIIIIIIIIIIIIIIII
[MLOP] Prefetch Degree Mean: 15.51957
[MLOP] Prefetch Degree SD: 1.18382
[MLOP] Max Score Left Mean (%): 58.34993
[MLOP] Max Score Left SD (%): 22.36866
[MLOP] Max Score Right Mean (%): 98.45540
[MLOP] Max Score Right SD (%): 2.11198

Channel_0_RQ_row_buffer_hit 587059
Channel_0_RQ_row_buffer_miss 701544
Channel_0_WQ_row_buffer_hit 68378
Channel_0_WQ_row_buffer_miss 318757
Channel_0_WQ_full 3054
Channel_0_dbus_congested 1144913

avg_congested_cycle 11

DRAM_bw_pochs 265941
DRAM_bw_level_0 101937
DRAM_bw_level_1 49782
DRAM_bw_level_2 45431
DRAM_bw_level_3 68791
