*************************************************
   ChampSim Multicore Out-of-Order Simulator
   Last compiled: Apr  3 2025 20:54:34
*************************************************
parsing config file: /home/zir/Pythia/config/nopref.ini

trace_0 /home/zir/ChampSim/ML-DPC/ChampSimTraces/spec06/437.leslie3d-s0.trace.gz
adding L2C_PREFETCHER: NONE
Initialize SHIP state
warmup_instructions 10000000
simulation_instructions 50000000
champsim_seed 163
measure_ipc 0
measure_ipc_epoch 1000
measure_dram_bw 1
measure_dram_bw_epoch 256
measure_cache_acc 1
measure_cache_acc_epoch 1024
l1d_perfect 0
l2c_perfect 0
llc_perfect 0
l1d_semi_perfect 0
l2c_semi_perfect 0
llc_semi_perfect 0
semi_perfect_cache_page_buffer_size 64

num_cpus 1
cpu_freq 4000
dram_io_freq 2400
page_size 4096
block_size 64
max_read_per_cycle 8
max_fill_per_cycle 1
dram_channels 1
log2_dram_channels 0
dram_ranks 1
dram_banks 8
dram_rows 65536
dram_columns 128
dram_row_size 8
dram_size 4096
dram_pages 1048576

fetch_width 6
decode_width 6
exec_width 4
lq_width 2
sq_width 2
retire_width 4
scheduler_size 128
branch_mispredict_penalty 20
rob_size 256
lq_size 72
sq_size 56
num_instr_destinations_sparc 4
num_instr_destinations 2
num_instr_sources 4

itlb_set 16
itlb_way 8
itlb_rq_size 16
itlb_wq_size 16
itlb_pq_size 0
itlb_mshr_size 8
itlb_latency 1

dtlb_set 16
dtlb_way 4
dtlb_rq_size 16
dtlb_wq_size 16
dtlb_pq_size 0
dtlb_mshr_size 8
dtlb_latency 1

stlb_set 128
stlb_way 12
stlb_rq_size 32
stlb_wq_size 32
stlb_pq_size 0
stlb_mshr_size 16
stlb_latency 8

l1i_size 32
l1i_set 64
l1i_way 8
l1i_rq_size 64
l1i_wq_size 64
l1i_pq_size 8
l1i_mshr_size 8
l1i_latency 1

l1d_size 32
l1d_set 64
l1d_way 8
l1d_rq_size 64
l1d_wq_size 64
l1d_pq_size 8
l1d_mshr_size 16
l1d_latency 4

l2c_size 256
l2c_set 512
l2c_way 8
l2c_rq_size 32
l2c_wq_size 32
l2c_pq_size 32
l2c_mshr_size 32
l2c_latency 10

llc_size 2048
llc_set 2048
llc_way 16
llc_rq_size 32
llc_wq_size 32
llc_pq_size 32
llc_mshr_size 64
llc_latency 20

dram_channel_width 8
dram_wq_size 64
dram_rq_size 64
tRP 15
tRCD 15
tCAS 12.5
dram_dbus_turn_around_time 30
dram_write_high_wm 56
dram_write_low_wm 48
min_dram_writes_per_switch 16
dram_mtps 2400
dram_dbus_return_time 13


Heartbeat CPU  0 instructions:    1000002 cycles:     506612 heartbeat IPC: 1.97390 cumulative IPC: 1.97390 (Simulation time: 0 hr 0 min 2 sec) 
Heartbeat CPU  0 instructions:    2000002 cycles:    1011812 heartbeat IPC: 1.97941 cumulative IPC: 1.97665 (Simulation time: 0 hr 0 min 3 sec) 
Heartbeat CPU  0 instructions:    3000003 cycles:    1518604 heartbeat IPC: 1.97320 cumulative IPC: 1.97550 (Simulation time: 0 hr 0 min 5 sec) 
Heartbeat CPU  0 instructions:    4000000 cycles:    2023995 heartbeat IPC: 1.97866 cumulative IPC: 1.97629 (Simulation time: 0 hr 0 min 7 sec) 
Heartbeat CPU  0 instructions:    5000000 cycles:    2529063 heartbeat IPC: 1.97993 cumulative IPC: 1.97702 (Simulation time: 0 hr 0 min 8 sec) 
Heartbeat CPU  0 instructions:    6000003 cycles:    3033524 heartbeat IPC: 1.98232 cumulative IPC: 1.97790 (Simulation time: 0 hr 0 min 10 sec) 
Heartbeat CPU  0 instructions:    7000001 cycles:    3538727 heartbeat IPC: 1.97940 cumulative IPC: 1.97811 (Simulation time: 0 hr 0 min 12 sec) 
Heartbeat CPU  0 instructions:    8000000 cycles:    4043776 heartbeat IPC: 1.98000 cumulative IPC: 1.97835 (Simulation time: 0 hr 0 min 13 sec) 
Heartbeat CPU  0 instructions:    9000003 cycles:    4548359 heartbeat IPC: 1.98184 cumulative IPC: 1.97874 (Simulation time: 0 hr 0 min 15 sec) 
Heartbeat CPU  0 instructions:   10000001 cycles:    5052701 heartbeat IPC: 1.98278 cumulative IPC: 1.97914 (Simulation time: 0 hr 0 min 17 sec) 

Warmup complete CPU  0 instructions:   10000001 cycles:    5052701 (Simulation time: 0 hr 0 min 17 sec) 

Heartbeat CPU  0 instructions:   11000000 cycles:    6530087 heartbeat IPC: 0.67687 cumulative IPC: 0.67687 (Simulation time: 0 hr 0 min 19 sec) 
Heartbeat CPU  0 instructions:   12000000 cycles:    8031708 heartbeat IPC: 0.66595 cumulative IPC: 0.67136 (Simulation time: 0 hr 0 min 21 sec) 
Heartbeat CPU  0 instructions:   13000001 cycles:    9538036 heartbeat IPC: 0.66387 cumulative IPC: 0.66885 (Simulation time: 0 hr 0 min 23 sec) 
Heartbeat CPU  0 instructions:   14000002 cycles:   11045452 heartbeat IPC: 0.66339 cumulative IPC: 0.66747 (Simulation time: 0 hr 0 min 26 sec) 
Heartbeat CPU  0 instructions:   15000000 cycles:   12559388 heartbeat IPC: 0.66053 cumulative IPC: 0.66607 (Simulation time: 0 hr 0 min 28 sec) 
Heartbeat CPU  0 instructions:   16000000 cycles:   14059205 heartbeat IPC: 0.66675 cumulative IPC: 0.66619 (Simulation time: 0 hr 0 min 30 sec) 
Heartbeat CPU  0 instructions:   17000003 cycles:   15604985 heartbeat IPC: 0.64692 cumulative IPC: 0.66336 (Simulation time: 0 hr 0 min 32 sec) 
Heartbeat CPU  0 instructions:   18000001 cycles:   17164639 heartbeat IPC: 0.64117 cumulative IPC: 0.66051 (Simulation time: 0 hr 0 min 35 sec) 
Heartbeat CPU  0 instructions:   19000000 cycles:   18725733 heartbeat IPC: 0.64058 cumulative IPC: 0.65823 (Simulation time: 0 hr 0 min 37 sec) 
Heartbeat CPU  0 instructions:   20000000 cycles:   20284126 heartbeat IPC: 0.64169 cumulative IPC: 0.65654 (Simulation time: 0 hr 0 min 39 sec) 
Heartbeat CPU  0 instructions:   21000003 cycles:   21811262 heartbeat IPC: 0.65482 cumulative IPC: 0.65638 (Simulation time: 0 hr 0 min 41 sec) 
Heartbeat CPU  0 instructions:   22000000 cycles:   23367741 heartbeat IPC: 0.64247 cumulative IPC: 0.65520 (Simulation time: 0 hr 0 min 43 sec) 
Heartbeat CPU  0 instructions:   23000002 cycles:   24897981 heartbeat IPC: 0.65349 cumulative IPC: 0.65507 (Simulation time: 0 hr 0 min 46 sec) 
Heartbeat CPU  0 instructions:   24000000 cycles:   26463394 heartbeat IPC: 0.63881 cumulative IPC: 0.65388 (Simulation time: 0 hr 0 min 48 sec) 
Heartbeat CPU  0 instructions:   25000001 cycles:   28017993 heartbeat IPC: 0.64325 cumulative IPC: 0.65316 (Simulation time: 0 hr 0 min 50 sec) 
Heartbeat CPU  0 instructions:   26000002 cycles:   29588242 heartbeat IPC: 0.63684 cumulative IPC: 0.65212 (Simulation time: 0 hr 0 min 52 sec) 
Heartbeat CPU  0 instructions:   27000003 cycles:   31117330 heartbeat IPC: 0.65399 cumulative IPC: 0.65222 (Simulation time: 0 hr 0 min 55 sec) 
Heartbeat CPU  0 instructions:   28000000 cycles:   32682878 heartbeat IPC: 0.63875 cumulative IPC: 0.65146 (Simulation time: 0 hr 0 min 57 sec) 
Heartbeat CPU  0 instructions:   29000000 cycles:   34214030 heartbeat IPC: 0.65310 cumulative IPC: 0.65155 (Simulation time: 0 hr 0 min 59 sec) 
Heartbeat CPU  0 instructions:   30000003 cycles:   35792058 heartbeat IPC: 0.63370 cumulative IPC: 0.65063 (Simulation time: 0 hr 1 min 1 sec) 
Heartbeat CPU  0 instructions:   31000003 cycles:   37326772 heartbeat IPC: 0.65159 cumulative IPC: 0.65068 (Simulation time: 0 hr 1 min 4 sec) 
Heartbeat CPU  0 instructions:   32000000 cycles:   38902529 heartbeat IPC: 0.63461 cumulative IPC: 0.64993 (Simulation time: 0 hr 1 min 6 sec) 
Heartbeat CPU  0 instructions:   33000001 cycles:   40475434 heartbeat IPC: 0.63577 cumulative IPC: 0.64930 (Simulation time: 0 hr 1 min 8 sec) 
Heartbeat CPU  0 instructions:   34000002 cycles:   42037461 heartbeat IPC: 0.64019 cumulative IPC: 0.64892 (Simulation time: 0 hr 1 min 10 sec) 
Heartbeat CPU  0 instructions:   35000000 cycles:   43568294 heartbeat IPC: 0.65324 cumulative IPC: 0.64909 (Simulation time: 0 hr 1 min 12 sec) 
Heartbeat CPU  0 instructions:   36000000 cycles:   45105369 heartbeat IPC: 0.65059 cumulative IPC: 0.64915 (Simulation time: 0 hr 1 min 15 sec) 
Heartbeat CPU  0 instructions:   37000002 cycles:   47313899 heartbeat IPC: 0.45279 cumulative IPC: 0.63888 (Simulation time: 0 hr 1 min 17 sec) 
Heartbeat CPU  0 instructions:   38000002 cycles:   50240752 heartbeat IPC: 0.34166 cumulative IPC: 0.61963 (Simulation time: 0 hr 1 min 20 sec) 
Heartbeat CPU  0 instructions:   39000002 cycles:   53017252 heartbeat IPC: 0.36017 cumulative IPC: 0.60461 (Simulation time: 0 hr 1 min 23 sec) 
Heartbeat CPU  0 instructions:   40000000 cycles:   55634601 heartbeat IPC: 0.38207 cumulative IPC: 0.59310 (Simulation time: 0 hr 1 min 25 sec) 
Heartbeat CPU  0 instructions:   41000001 cycles:   58579222 heartbeat IPC: 0.33960 cumulative IPC: 0.57915 (Simulation time: 0 hr 1 min 28 sec) 
Heartbeat CPU  0 instructions:   42000000 cycles:   61311791 heartbeat IPC: 0.36596 cumulative IPC: 0.56880 (Simulation time: 0 hr 1 min 31 sec) 
Heartbeat CPU  0 instructions:   43000002 cycles:   64198785 heartbeat IPC: 0.34638 cumulative IPC: 0.55794 (Simulation time: 0 hr 1 min 33 sec) 
Heartbeat CPU  0 instructions:   44000000 cycles:   67027793 heartbeat IPC: 0.35348 cumulative IPC: 0.54861 (Simulation time: 0 hr 1 min 36 sec) 
Heartbeat CPU  0 instructions:   45000001 cycles:   69861019 heartbeat IPC: 0.35295 cumulative IPC: 0.54005 (Simulation time: 0 hr 1 min 39 sec) 
Heartbeat CPU  0 instructions:   46000001 cycles:   72786920 heartbeat IPC: 0.34178 cumulative IPC: 0.53149 (Simulation time: 0 hr 1 min 42 sec) 
Heartbeat CPU  0 instructions:   47000000 cycles:   75498501 heartbeat IPC: 0.36879 cumulative IPC: 0.52523 (Simulation time: 0 hr 1 min 44 sec) 
Heartbeat CPU  0 instructions:   48000000 cycles:   78432078 heartbeat IPC: 0.34088 cumulative IPC: 0.51786 (Simulation time: 0 hr 1 min 47 sec) 
Heartbeat CPU  0 instructions:   49000001 cycles:   82191366 heartbeat IPC: 0.26601 cumulative IPC: 0.50558 (Simulation time: 0 hr 1 min 50 sec) 
Heartbeat CPU  0 instructions:   50000003 cycles:   85414918 heartbeat IPC: 0.31022 cumulative IPC: 0.49775 (Simulation time: 0 hr 1 min 54 sec) 
Heartbeat CPU  0 instructions:   51000003 cycles:   89193919 heartbeat IPC: 0.26462 cumulative IPC: 0.48728 (Simulation time: 0 hr 1 min 57 sec) 
Heartbeat CPU  0 instructions:   52000000 cycles:   93211564 heartbeat IPC: 0.24890 cumulative IPC: 0.47641 (Simulation time: 0 hr 2 min 0 sec) 
Heartbeat CPU  0 instructions:   53000002 cycles:   97560101 heartbeat IPC: 0.22996 cumulative IPC: 0.46483 (Simulation time: 0 hr 2 min 4 sec) 
Heartbeat CPU  0 instructions:   54000003 cycles:  105314645 heartbeat IPC: 0.12896 cumulative IPC: 0.43885 (Simulation time: 0 hr 2 min 9 sec) 
Heartbeat CPU  0 instructions:   55000002 cycles:  110995407 heartbeat IPC: 0.17603 cumulative IPC: 0.42476 (Simulation time: 0 hr 2 min 13 sec) 
Heartbeat CPU  0 instructions:   56000000 cycles:  116664280 heartbeat IPC: 0.17640 cumulative IPC: 0.41214 (Simulation time: 0 hr 2 min 18 sec) 
Heartbeat CPU  0 instructions:   57000001 cycles:  122441942 heartbeat IPC: 0.17308 cumulative IPC: 0.40038 (Simulation time: 0 hr 2 min 22 sec) 
Heartbeat CPU  0 instructions:   58000000 cycles:  128033268 heartbeat IPC: 0.17885 cumulative IPC: 0.39031 (Simulation time: 0 hr 2 min 26 sec) 
Heartbeat CPU  0 instructions:   59000003 cycles:  130663819 heartbeat IPC: 0.38015 cumulative IPC: 0.39009 (Simulation time: 0 hr 2 min 29 sec) 
Heartbeat CPU  0 instructions:   60000000 cycles:  133052528 heartbeat IPC: 0.41863 cumulative IPC: 0.39063 (Simulation time: 0 hr 2 min 32 sec) 
Finished CPU 0 instructions: 50000000 cycles: 127999835 cumulative IPC: 0.39063 (Simulation time: 0 hr 2 min 32 sec) 

ChampSim completed all CPUs

[ROI Statistics]
Core_0_instructions 50000000
Core_0_cycles 127999835
Core_0_IPC 0.39063

Core_0_branch_prediction_accuracy 98.48148
Core_0_branch_MPKI 0.82182
Core_0_average_ROB_occupancy_at_mispredict 232.97194

Core_0_L1D_total_access 11278964
Core_0_L1D_total_hit 9327182
Core_0_L1D_total_miss 1951782
Core_0_L1D_loads 7977284
Core_0_L1D_load_hit 6603294
Core_0_L1D_load_miss 1373990
Core_0_L1D_RFOs 3301680
Core_0_L1D_RFO_hit 2723888
Core_0_L1D_RFO_miss 577792
Core_0_L1D_prefetches 0
Core_0_L1D_prefetch_hit 0
Core_0_L1D_prefetch_miss 0
Core_0_L1D_writebacks 0
Core_0_L1D_writeback_hit 0
Core_0_L1D_writeback_miss 0
Core_0_L1D_prefetch_requested 0
Core_0_L1D_prefetch_dropped 0
Core_0_L1D_prefetch_issued 0
Core_0_L1D_prefetch_filled 0
Core_0_L1D_prefetch_useful 0
Core_0_L1D_prefetch_useless 0
Core_0_L1D_prefetch_late 0
Core_0_L1D_average_miss_latency 252.20331

Core_0_L1D_rq_access 17882583
Core_0_L1D_rq_forward 0
Core_0_L1D_rq_merged 8208837
Core_0_L1D_rq_to_cache 9672818
Core_0_L1D_rq_full 0

Core_0_L1D_wq_access 6363329
Core_0_L1D_wq_forward 928
Core_0_L1D_wq_merged 5730
Core_0_L1D_wq_to_cache 6357599
Core_0_L1D_wq_full 616276

Core_0_L1D_pq_access 0
Core_0_L1D_pq_forward 0
Core_0_L1D_pq_merged 0
Core_0_L1D_pq_to_cache 0
Core_0_L1D_pq_full 0

Core_0_L1D_acc_epochs 127887
Core_0_L1D_acc_level_0 127887
Core_0_L1D_acc_level_1 0
Core_0_L1D_acc_level_2 0
Core_0_L1D_acc_level_3 0
Core_0_L1D_acc_level_4 0
Core_0_L1D_acc_level_5 0
Core_0_L1D_acc_level_6 0
Core_0_L1D_acc_level_7 0
Core_0_L1D_acc_level_8 0
Core_0_L1D_acc_level_9 0

Core_0_L1I_total_access 12253316
Core_0_L1I_total_hit 12252925
Core_0_L1I_total_miss 391
Core_0_L1I_loads 12253316
Core_0_L1I_load_hit 12252925
Core_0_L1I_load_miss 391
Core_0_L1I_RFOs 0
Core_0_L1I_RFO_hit 0
Core_0_L1I_RFO_miss 0
Core_0_L1I_prefetches 0
Core_0_L1I_prefetch_hit 0
Core_0_L1I_prefetch_miss 0
Core_0_L1I_writebacks 0
Core_0_L1I_writeback_hit 0
Core_0_L1I_writeback_miss 0
Core_0_L1I_prefetch_requested 0
Core_0_L1I_prefetch_dropped 0
Core_0_L1I_prefetch_issued 0
Core_0_L1I_prefetch_filled 0
Core_0_L1I_prefetch_useful 0
Core_0_L1I_prefetch_useless 0
Core_0_L1I_prefetch_late 0
Core_0_L1I_average_miss_latency 298.08696

Core_0_L1I_rq_access 50000015
Core_0_L1I_rq_forward 0
Core_0_L1I_rq_merged 37746430
Core_0_L1I_rq_to_cache 12253585
Core_0_L1I_rq_full 0

Core_0_L1I_wq_access 0
Core_0_L1I_wq_forward 0
Core_0_L1I_wq_merged 0
Core_0_L1I_wq_to_cache 0
Core_0_L1I_wq_full 0

Core_0_L1I_pq_access 0
Core_0_L1I_pq_forward 0
Core_0_L1I_pq_merged 0
Core_0_L1I_pq_to_cache 0
Core_0_L1I_pq_full 0

Core_0_L1I_acc_epochs 127887
Core_0_L1I_acc_level_0 127887
Core_0_L1I_acc_level_1 0
Core_0_L1I_acc_level_2 0
Core_0_L1I_acc_level_3 0
Core_0_L1I_acc_level_4 0
Core_0_L1I_acc_level_5 0
Core_0_L1I_acc_level_6 0
Core_0_L1I_acc_level_7 0
Core_0_L1I_acc_level_8 0
Core_0_L1I_acc_level_9 0

Core_0_L2C_total_access 2612933
Core_0_L2C_total_hit 1123457
Core_0_L2C_total_miss 1489476
Core_0_L2C_loads 1374342
Core_0_L2C_load_hit 319583
Core_0_L2C_load_miss 1054759
Core_0_L2C_RFOs 577686
Core_0_L2C_RFO_hit 142996
Core_0_L2C_RFO_miss 434690
Core_0_L2C_prefetches 0
Core_0_L2C_prefetch_hit 0
Core_0_L2C_prefetch_miss 0
Core_0_L2C_writebacks 660905
Core_0_L2C_writeback_hit 660878
Core_0_L2C_writeback_miss 27
Core_0_L2C_prefetch_requested 0
Core_0_L2C_prefetch_dropped 0
Core_0_L2C_prefetch_issued 0
Core_0_L2C_prefetch_filled 0
Core_0_L2C_prefetch_useful 0
Core_0_L2C_prefetch_useless 0
Core_0_L2C_prefetch_late 0
Core_0_L2C_average_miss_latency 311.42333

Core_0_L2C_rq_access 1952173
Core_0_L2C_rq_forward 0
Core_0_L2C_rq_merged 0
Core_0_L2C_rq_to_cache 1952028
Core_0_L2C_rq_full 0

Core_0_L2C_wq_access 660905
Core_0_L2C_wq_forward 145
Core_0_L2C_wq_merged 0
Core_0_L2C_wq_to_cache 660905
Core_0_L2C_wq_full 0

Core_0_L2C_pq_access 0
Core_0_L2C_pq_forward 0
Core_0_L2C_pq_merged 0
Core_0_L2C_pq_to_cache 0
Core_0_L2C_pq_full 0

Core_0_L2C_acc_epochs 127887
Core_0_L2C_acc_level_0 127887
Core_0_L2C_acc_level_1 0
Core_0_L2C_acc_level_2 0
Core_0_L2C_acc_level_3 0
Core_0_L2C_acc_level_4 0
Core_0_L2C_acc_level_5 0
Core_0_L2C_acc_level_6 0
Core_0_L2C_acc_level_7 0
Core_0_L2C_acc_level_8 0
Core_0_L2C_acc_level_9 0

Core_0_LLC_total_access 1924420
Core_0_LLC_total_hit 90271
Core_0_LLC_total_miss 1834149
Core_0_LLC_loads 1054759
Core_0_LLC_load_hit 9770
Core_0_LLC_load_miss 1044989
Core_0_LLC_RFOs 434690
Core_0_LLC_RFO_hit 90
Core_0_LLC_RFO_miss 434600
Core_0_LLC_prefetches 0
Core_0_LLC_prefetch_hit 0
Core_0_LLC_prefetch_miss 0
Core_0_LLC_writebacks 434971
Core_0_LLC_writeback_hit 80411
Core_0_LLC_writeback_miss 354560
Core_0_LLC_prefetch_requested 0
Core_0_LLC_prefetch_dropped 0
Core_0_LLC_prefetch_issued 0
Core_0_LLC_prefetch_filled 0
Core_0_LLC_prefetch_useful 0
Core_0_LLC_prefetch_useless 0
Core_0_LLC_prefetch_late 0
Core_0_LLC_average_miss_latency 228.06384

Core_0_LLC_rq_access 1489449
Core_0_LLC_rq_forward 0
Core_0_LLC_rq_merged 0
Core_0_LLC_rq_to_cache 1489449
Core_0_LLC_rq_full 0

Core_0_LLC_wq_access 434971
Core_0_LLC_wq_forward 0
Core_0_LLC_wq_merged 0
Core_0_LLC_wq_to_cache 434971
Core_0_LLC_wq_full 0

Core_0_LLC_pq_access 0
Core_0_LLC_pq_forward 0
Core_0_LLC_pq_merged 0
Core_0_LLC_pq_to_cache 0
Core_0_LLC_pq_full 0

Core_0_LLC_acc_epochs 129935
Core_0_LLC_acc_level_0 129935
Core_0_LLC_acc_level_1 0
Core_0_LLC_acc_level_2 0
Core_0_LLC_acc_level_3 0
Core_0_LLC_acc_level_4 0
Core_0_LLC_acc_level_5 0
Core_0_LLC_acc_level_6 0
Core_0_LLC_acc_level_7 0
Core_0_LLC_acc_level_8 0
Core_0_LLC_acc_level_9 0

Core_0_major_page_fault 0
Core_0_minor_page_fault 13477

Channel_0_RQ_row_buffer_hit 411310
Channel_0_RQ_row_buffer_miss 1068279
Channel_0_WQ_row_buffer_hit 188283
Channel_0_WQ_row_buffer_miss 256932
Channel_0_WQ_full 0
Channel_0_dbus_congested 732163

avg_congested_cycle 10

DRAM_bw_pochs 519737
DRAM_bw_level_0 238359
DRAM_bw_level_1 207331
DRAM_bw_level_2 64017
DRAM_bw_level_3 10030
