*************************************************
   ChampSim Multicore Out-of-Order Simulator
   Last compiled: Apr  3 2025 20:54:34
*************************************************
parsing config file: /home/zir/Pythia/config/pythia.ini

trace_0 /home/zir/ChampSim/ML-DPC/ChampSimTraces/spec17/602.gcc-s1.trace.xz
adding L2C_PREFETCHER: Scooby
Initialize SHIP state
warmup_instructions 10000000
simulation_instructions 50000000
champsim_seed 164
measure_ipc 0
measure_ipc_epoch 1000
measure_dram_bw 1
measure_dram_bw_epoch 256
measure_cache_acc 1
measure_cache_acc_epoch 1024
l1d_perfect 0
l2c_perfect 0
llc_perfect 0
l1d_semi_perfect 0
l2c_semi_perfect 0
llc_semi_perfect 0
semi_perfect_cache_page_buffer_size 64

num_cpus 1
cpu_freq 4000
dram_io_freq 2400
page_size 4096
block_size 64
max_read_per_cycle 8
max_fill_per_cycle 1
dram_channels 1
log2_dram_channels 0
dram_ranks 1
dram_banks 8
dram_rows 65536
dram_columns 128
dram_row_size 8
dram_size 4096
dram_pages 1048576

fetch_width 6
decode_width 6
exec_width 4
lq_width 2
sq_width 2
retire_width 4
scheduler_size 128
branch_mispredict_penalty 20
rob_size 256
lq_size 72
sq_size 56
num_instr_destinations_sparc 4
num_instr_destinations 2
num_instr_sources 4

itlb_set 16
itlb_way 8
itlb_rq_size 16
itlb_wq_size 16
itlb_pq_size 0
itlb_mshr_size 8
itlb_latency 1

dtlb_set 16
dtlb_way 4
dtlb_rq_size 16
dtlb_wq_size 16
dtlb_pq_size 0
dtlb_mshr_size 8
dtlb_latency 1

stlb_set 128
stlb_way 12
stlb_rq_size 32
stlb_wq_size 32
stlb_pq_size 0
stlb_mshr_size 16
stlb_latency 8

l1i_size 32
l1i_set 64
l1i_way 8
l1i_rq_size 64
l1i_wq_size 64
l1i_pq_size 8
l1i_mshr_size 8
l1i_latency 1

l1d_size 32
l1d_set 64
l1d_way 8
l1d_rq_size 64
l1d_wq_size 64
l1d_pq_size 8
l1d_mshr_size 16
l1d_latency 4

l2c_size 256
l2c_set 512
l2c_way 8
l2c_rq_size 32
l2c_wq_size 32
l2c_pq_size 32
l2c_mshr_size 32
l2c_latency 10

llc_size 2048
llc_set 2048
llc_way 16
llc_rq_size 32
llc_wq_size 32
llc_pq_size 32
llc_mshr_size 64
llc_latency 20

dram_channel_width 8
dram_wq_size 64
dram_rq_size 64
tRP 15
tRCD 15
tCAS 12.5
dram_dbus_turn_around_time 30
dram_write_high_wm 56
dram_write_low_wm 48
min_dram_writes_per_switch 16
dram_mtps 2400
dram_dbus_return_time 13

scooby_alpha 0.0065088
scooby_gamma 0.556301
scooby_epsilon 0.00182284
scooby_state_num_bits 10
scooby_max_states 1024
scooby_seed 200
scooby_policy EGreedy
scooby_learning_type SARSA
scooby_actions 1,3,4,5,10,11,12,22,23,30,32,-1,-3,-6,0,
scooby_max_actions 15
scooby_pt_size 256
scooby_st_size 64
scooby_max_pcs 5
scooby_max_offsets 5
scooby_max_deltas 5
scooby_reward_none -4
scooby_reward_incorrect -8
scooby_reward_correct_untimely 12
scooby_reward_correct_timely 20
scooby_brain_zero_init 0
scooby_enable_reward_all 0
scooby_enable_track_multiple 0
scooby_enable_reward_out_of_bounds 1
scooby_reward_out_of_bounds -12
scooby_state_type 1
scooby_state_hash_type 11
scooby_access_debug 0
scooby_print_access_debug 0
scooby_print_access_debug_pc deadbeef
scooby_print_access_debug_pc_count 0
scooby_print_trace 0
scooby_enable_state_action_stats 1
scooby_enable_reward_tracker_hit 0
scooby_reward_tracker_hit -2
scooby_enable_featurewise_engine 1
scooby_pref_degree 1
scooby_enable_dyn_degree 1
scooby_max_to_avg_q_thresholds 0.5,1,2,
scooby_dyn_degrees 1,2,4,4,
scooby_multi_deg_select_type 2
scooby_last_pref_offset_conf_thresholds 1,3,8,
scooby_dyn_degrees_type2 1,2,4,6,
scooby_action_tracker_size 2
scooby_high_bw_thresh 4
scooby_enable_hbw_reward 1
scooby_reward_hbw_correct_timely 20
scooby_reward_hbw_correct_untimely 12
scooby_reward_hbw_incorrect -14
scooby_reward_hbw_none -2
scooby_reward_hbw_out_of_bounds -12
scooby_reward_hbw_tracker_hit -2
scooby_last_pref_offset_conf_thresholds_hbw 1,3,8,
scooby_dyn_degrees_type2_hbw 1,2,4,6,

le_enable_trace 0
le_trace_interval 0
le_trace_file_name 
le_trace_state 0
le_enable_score_plot 0
le_plot_file_name 
le_plot_actions 
le_enable_action_trace 0
le_action_trace_interval 0
le_action_trace_name 
le_enable_action_plot 0

le_featurewise_active_features PC, PC_Delta
le_featurewise_num_tilings 3,3,
le_featurewise_num_tiles 128,128,
le_featurewise_hash_types 2,2,
le_featurewise_enable_tiling_offset 1,1,
le_featurewise_max_q_thresh 0.5
le_featurewise_enable_action_fallback 1
le_featurewise_feature_weights 1,1,
le_featurewise_enable_dynamic_weight 0
le_featurewise_weight_gradient 0.001
le_featurewise_disable_adjust_weight_all_features_align 1
le_featurewise_selective_update 0
le_featurewise_pooling_type 2
le_featurewise_enable_dyn_action_fallback 1
le_featurewise_bw_acc_check_level 1
le_featurewise_acc_thresh 2
le_featurewise_enable_trace 0
le_featurewise_trace_feature_type 0
le_featurewise_trace_feature 
le_featurewise_trace_interval 0
le_featurewise_trace_record_count 0
le_featurewise_trace_file_name 
le_featurewise_enable_score_plot 0
le_featurewise_plot_actions 
le_featurewise_plot_file_name 


Heartbeat CPU  0 instructions:    1000003 cycles:     514317 heartbeat IPC: 1.94433 cumulative IPC: 1.94433 (Simulation time: 0 hr 0 min 3 sec) 
Heartbeat CPU  0 instructions:    2000002 cycles:    1030548 heartbeat IPC: 1.93712 cumulative IPC: 1.94072 (Simulation time: 0 hr 0 min 5 sec) 
Heartbeat CPU  0 instructions:    3000001 cycles:    1545232 heartbeat IPC: 1.94294 cumulative IPC: 1.94146 (Simulation time: 0 hr 0 min 7 sec) 
Heartbeat CPU  0 instructions:    4000000 cycles:    2061002 heartbeat IPC: 1.93885 cumulative IPC: 1.94080 (Simulation time: 0 hr 0 min 9 sec) 
Heartbeat CPU  0 instructions:    5000001 cycles:    2576720 heartbeat IPC: 1.93905 cumulative IPC: 1.94045 (Simulation time: 0 hr 0 min 12 sec) 
Heartbeat CPU  0 instructions:    6000003 cycles:    3093111 heartbeat IPC: 1.93652 cumulative IPC: 1.93980 (Simulation time: 0 hr 0 min 14 sec) 
Heartbeat CPU  0 instructions:    7000000 cycles:    3607883 heartbeat IPC: 1.94260 cumulative IPC: 1.94020 (Simulation time: 0 hr 0 min 16 sec) 
Heartbeat CPU  0 instructions:    8000000 cycles:    4123270 heartbeat IPC: 1.94029 cumulative IPC: 1.94021 (Simulation time: 0 hr 0 min 18 sec) 
Heartbeat CPU  0 instructions:    9000002 cycles:    4638749 heartbeat IPC: 1.93995 cumulative IPC: 1.94018 (Simulation time: 0 hr 0 min 20 sec) 
Heartbeat CPU  0 instructions:   10000000 cycles:    5152896 heartbeat IPC: 1.94497 cumulative IPC: 1.94066 (Simulation time: 0 hr 0 min 23 sec) 

Warmup complete CPU  0 instructions:   10000004 cycles:    5152897 (Simulation time: 0 hr 0 min 23 sec) 

Heartbeat CPU  0 instructions:   11000000 cycles:    8317261 heartbeat IPC: 0.31602 cumulative IPC: 0.31602 (Simulation time: 0 hr 0 min 26 sec) 
Heartbeat CPU  0 instructions:   12000000 cycles:   11484409 heartbeat IPC: 0.31574 cumulative IPC: 0.31588 (Simulation time: 0 hr 0 min 29 sec) 
Heartbeat CPU  0 instructions:   13000001 cycles:   14641278 heartbeat IPC: 0.31677 cumulative IPC: 0.31618 (Simulation time: 0 hr 0 min 32 sec) 
Heartbeat CPU  0 instructions:   14000000 cycles:   17821318 heartbeat IPC: 0.31446 cumulative IPC: 0.31575 (Simulation time: 0 hr 0 min 36 sec) 
Heartbeat CPU  0 instructions:   15000003 cycles:   20969273 heartbeat IPC: 0.31767 cumulative IPC: 0.31613 (Simulation time: 0 hr 0 min 39 sec) 
Heartbeat CPU  0 instructions:   16000000 cycles:   24135849 heartbeat IPC: 0.31580 cumulative IPC: 0.31607 (Simulation time: 0 hr 0 min 42 sec) 
Heartbeat CPU  0 instructions:   17000000 cycles:   27294721 heartbeat IPC: 0.31657 cumulative IPC: 0.31614 (Simulation time: 0 hr 0 min 45 sec) 
Heartbeat CPU  0 instructions:   18000003 cycles:   30464298 heartbeat IPC: 0.31550 cumulative IPC: 0.31606 (Simulation time: 0 hr 0 min 48 sec) 
Heartbeat CPU  0 instructions:   19000000 cycles:   33642765 heartbeat IPC: 0.31462 cumulative IPC: 0.31590 (Simulation time: 0 hr 0 min 52 sec) 
Heartbeat CPU  0 instructions:   20000000 cycles:   36804056 heartbeat IPC: 0.31633 cumulative IPC: 0.31594 (Simulation time: 0 hr 0 min 55 sec) 
Heartbeat CPU  0 instructions:   21000001 cycles:   39958333 heartbeat IPC: 0.31703 cumulative IPC: 0.31604 (Simulation time: 0 hr 0 min 58 sec) 
Heartbeat CPU  0 instructions:   22000000 cycles:   43111071 heartbeat IPC: 0.31718 cumulative IPC: 0.31614 (Simulation time: 0 hr 1 min 1 sec) 
Heartbeat CPU  0 instructions:   23000000 cycles:   46295017 heartbeat IPC: 0.31408 cumulative IPC: 0.31598 (Simulation time: 0 hr 1 min 4 sec) 
Heartbeat CPU  0 instructions:   24000000 cycles:   49447258 heartbeat IPC: 0.31723 cumulative IPC: 0.31607 (Simulation time: 0 hr 1 min 8 sec) 
Heartbeat CPU  0 instructions:   25000000 cycles:   52568892 heartbeat IPC: 0.32035 cumulative IPC: 0.31635 (Simulation time: 0 hr 1 min 11 sec) 
Heartbeat CPU  0 instructions:   26000000 cycles:   55689761 heartbeat IPC: 0.32042 cumulative IPC: 0.31660 (Simulation time: 0 hr 1 min 14 sec) 
Heartbeat CPU  0 instructions:   27000000 cycles:   58838691 heartbeat IPC: 0.31757 cumulative IPC: 0.31666 (Simulation time: 0 hr 1 min 17 sec) 
Heartbeat CPU  0 instructions:   28000000 cycles:   61958430 heartbeat IPC: 0.32054 cumulative IPC: 0.31687 (Simulation time: 0 hr 1 min 21 sec) 
Heartbeat CPU  0 instructions:   29000000 cycles:   65093178 heartbeat IPC: 0.31900 cumulative IPC: 0.31698 (Simulation time: 0 hr 1 min 24 sec) 
Heartbeat CPU  0 instructions:   30000000 cycles:   68261328 heartbeat IPC: 0.31564 cumulative IPC: 0.31691 (Simulation time: 0 hr 1 min 27 sec) 
Heartbeat CPU  0 instructions:   31000000 cycles:   71417164 heartbeat IPC: 0.31687 cumulative IPC: 0.31691 (Simulation time: 0 hr 1 min 30 sec) 
Heartbeat CPU  0 instructions:   32000000 cycles:   74537801 heartbeat IPC: 0.32045 cumulative IPC: 0.31707 (Simulation time: 0 hr 1 min 34 sec) 
Heartbeat CPU  0 instructions:   33000000 cycles:   77677590 heartbeat IPC: 0.31849 cumulative IPC: 0.31713 (Simulation time: 0 hr 1 min 37 sec) 
Heartbeat CPU  0 instructions:   34000002 cycles:   80800430 heartbeat IPC: 0.32022 cumulative IPC: 0.31726 (Simulation time: 0 hr 1 min 40 sec) 
Heartbeat CPU  0 instructions:   35000000 cycles:   83915445 heartbeat IPC: 0.32103 cumulative IPC: 0.31741 (Simulation time: 0 hr 1 min 43 sec) 
Heartbeat CPU  0 instructions:   36000000 cycles:   87044999 heartbeat IPC: 0.31953 cumulative IPC: 0.31749 (Simulation time: 0 hr 1 min 46 sec) 
Heartbeat CPU  0 instructions:   37000002 cycles:   90019533 heartbeat IPC: 0.33619 cumulative IPC: 0.31815 (Simulation time: 0 hr 1 min 50 sec) 
Heartbeat CPU  0 instructions:   38000003 cycles:   93149673 heartbeat IPC: 0.31947 cumulative IPC: 0.31819 (Simulation time: 0 hr 1 min 53 sec) 
Heartbeat CPU  0 instructions:   39000000 cycles:   96318258 heartbeat IPC: 0.31560 cumulative IPC: 0.31810 (Simulation time: 0 hr 1 min 56 sec) 
Heartbeat CPU  0 instructions:   40000000 cycles:   99466238 heartbeat IPC: 0.31766 cumulative IPC: 0.31809 (Simulation time: 0 hr 1 min 59 sec) 
Heartbeat CPU  0 instructions:   41000000 cycles:  102636312 heartbeat IPC: 0.31545 cumulative IPC: 0.31800 (Simulation time: 0 hr 2 min 3 sec) 
Heartbeat CPU  0 instructions:   42000001 cycles:  105683335 heartbeat IPC: 0.32819 cumulative IPC: 0.31831 (Simulation time: 0 hr 2 min 6 sec) 
Heartbeat CPU  0 instructions:   43000000 cycles:  108849021 heartbeat IPC: 0.31589 cumulative IPC: 0.31824 (Simulation time: 0 hr 2 min 9 sec) 
Heartbeat CPU  0 instructions:   44000000 cycles:  112024553 heartbeat IPC: 0.31491 cumulative IPC: 0.31814 (Simulation time: 0 hr 2 min 12 sec) 
Heartbeat CPU  0 instructions:   45000000 cycles:  115198136 heartbeat IPC: 0.31510 cumulative IPC: 0.31805 (Simulation time: 0 hr 2 min 16 sec) 
Heartbeat CPU  0 instructions:   46000002 cycles:  118340826 heartbeat IPC: 0.31820 cumulative IPC: 0.31806 (Simulation time: 0 hr 2 min 19 sec) 
Heartbeat CPU  0 instructions:   47000000 cycles:  121469040 heartbeat IPC: 0.31967 cumulative IPC: 0.31810 (Simulation time: 0 hr 2 min 22 sec) 
Heartbeat CPU  0 instructions:   48000000 cycles:  124630320 heartbeat IPC: 0.31633 cumulative IPC: 0.31805 (Simulation time: 0 hr 2 min 25 sec) 
Heartbeat CPU  0 instructions:   49000002 cycles:  127786429 heartbeat IPC: 0.31685 cumulative IPC: 0.31802 (Simulation time: 0 hr 2 min 29 sec) 
Heartbeat CPU  0 instructions:   50000003 cycles:  130962210 heartbeat IPC: 0.31488 cumulative IPC: 0.31794 (Simulation time: 0 hr 2 min 32 sec) 
Heartbeat CPU  0 instructions:   51000001 cycles:  134111365 heartbeat IPC: 0.31754 cumulative IPC: 0.31793 (Simulation time: 0 hr 2 min 35 sec) 
Heartbeat CPU  0 instructions:   52000000 cycles:  137273911 heartbeat IPC: 0.31620 cumulative IPC: 0.31789 (Simulation time: 0 hr 2 min 39 sec) 
Heartbeat CPU  0 instructions:   53000002 cycles:  140438871 heartbeat IPC: 0.31596 cumulative IPC: 0.31785 (Simulation time: 0 hr 2 min 42 sec) 
Heartbeat CPU  0 instructions:   54000003 cycles:  143570744 heartbeat IPC: 0.31930 cumulative IPC: 0.31788 (Simulation time: 0 hr 2 min 45 sec) 
Heartbeat CPU  0 instructions:   55000000 cycles:  146759937 heartbeat IPC: 0.31356 cumulative IPC: 0.31778 (Simulation time: 0 hr 2 min 48 sec) 
Heartbeat CPU  0 instructions:   56000000 cycles:  149956579 heartbeat IPC: 0.31283 cumulative IPC: 0.31767 (Simulation time: 0 hr 2 min 52 sec) 
Heartbeat CPU  0 instructions:   57000000 cycles:  153106959 heartbeat IPC: 0.31742 cumulative IPC: 0.31767 (Simulation time: 0 hr 2 min 55 sec) 
Heartbeat CPU  0 instructions:   58000002 cycles:  156264677 heartbeat IPC: 0.31669 cumulative IPC: 0.31765 (Simulation time: 0 hr 2 min 58 sec) 
Heartbeat CPU  0 instructions:   59000001 cycles:  159445995 heartbeat IPC: 0.31433 cumulative IPC: 0.31758 (Simulation time: 0 hr 3 min 2 sec) 
Heartbeat CPU  0 instructions:   60000000 cycles:  162640089 heartbeat IPC: 0.31308 cumulative IPC: 0.31749 (Simulation time: 0 hr 3 min 5 sec) 
Finished CPU 0 instructions: 50000000 cycles: 157487209 cumulative IPC: 0.31749 (Simulation time: 0 hr 3 min 5 sec) 

ChampSim completed all CPUs

[ROI Statistics]
Core_0_instructions 50000000
Core_0_cycles 157487209
Core_0_IPC 0.31749

Core_0_branch_prediction_accuracy 99.55550
Core_0_branch_MPKI 1.57028
Core_0_average_ROB_occupancy_at_mispredict 201.48442

Core_0_L1D_total_access 9048541
Core_0_L1D_total_hit 5423757
Core_0_L1D_total_miss 3624784
Core_0_L1D_loads 8322546
Core_0_L1D_load_hit 4699123
Core_0_L1D_load_miss 3623423
Core_0_L1D_RFOs 725995
Core_0_L1D_RFO_hit 724634
Core_0_L1D_RFO_miss 1361
Core_0_L1D_prefetches 0
Core_0_L1D_prefetch_hit 0
Core_0_L1D_prefetch_miss 0
Core_0_L1D_writebacks 0
Core_0_L1D_writeback_hit 0
Core_0_L1D_writeback_miss 0
Core_0_L1D_prefetch_requested 0
Core_0_L1D_prefetch_dropped 0
Core_0_L1D_prefetch_issued 0
Core_0_L1D_prefetch_filled 0
Core_0_L1D_prefetch_useful 0
Core_0_L1D_prefetch_useless 0
Core_0_L1D_prefetch_late 0
Core_0_L1D_average_miss_latency 21.68667

Core_0_L1D_rq_access 17944914
Core_0_L1D_rq_forward 0
Core_0_L1D_rq_merged 9472646
Core_0_L1D_rq_to_cache 8472268
Core_0_L1D_rq_full 0

Core_0_L1D_wq_access 726008
Core_0_L1D_wq_forward 0
Core_0_L1D_wq_merged 7
Core_0_L1D_wq_to_cache 726001
Core_0_L1D_wq_full 0

Core_0_L1D_pq_access 0
Core_0_L1D_pq_forward 0
Core_0_L1D_pq_merged 0
Core_0_L1D_pq_to_cache 0
Core_0_L1D_pq_full 0

Core_0_L1D_acc_epochs 152400
Core_0_L1D_acc_level_0 152400
Core_0_L1D_acc_level_1 0
Core_0_L1D_acc_level_2 0
Core_0_L1D_acc_level_3 0
Core_0_L1D_acc_level_4 0
Core_0_L1D_acc_level_5 0
Core_0_L1D_acc_level_6 0
Core_0_L1D_acc_level_7 0
Core_0_L1D_acc_level_8 0
Core_0_L1D_acc_level_9 0

Core_0_L1I_total_access 17868427
Core_0_L1I_total_hit 17868427
Core_0_L1I_total_miss 0
Core_0_L1I_loads 17868427
Core_0_L1I_load_hit 17868427
Core_0_L1I_load_miss 0
Core_0_L1I_RFOs 0
Core_0_L1I_RFO_hit 0
Core_0_L1I_RFO_miss 0
Core_0_L1I_prefetches 0
Core_0_L1I_prefetch_hit 0
Core_0_L1I_prefetch_miss 0
Core_0_L1I_writebacks 0
Core_0_L1I_writeback_hit 0
Core_0_L1I_writeback_miss 0
Core_0_L1I_prefetch_requested 0
Core_0_L1I_prefetch_dropped 0
Core_0_L1I_prefetch_issued 0
Core_0_L1I_prefetch_filled 0
Core_0_L1I_prefetch_useful 0
Core_0_L1I_prefetch_useless 0
Core_0_L1I_prefetch_late 0
Core_0_L1I_average_miss_latency -nan

Core_0_L1I_rq_access 50000169
Core_0_L1I_rq_forward 0
Core_0_L1I_rq_merged 32131742
Core_0_L1I_rq_to_cache 17868427
Core_0_L1I_rq_full 0

Core_0_L1I_wq_access 0
Core_0_L1I_wq_forward 0
Core_0_L1I_wq_merged 0
Core_0_L1I_wq_to_cache 0
Core_0_L1I_wq_full 0

Core_0_L1I_pq_access 0
Core_0_L1I_pq_forward 0
Core_0_L1I_pq_merged 0
Core_0_L1I_pq_to_cache 0
Core_0_L1I_pq_full 0

Core_0_L1I_acc_epochs 152400
Core_0_L1I_acc_level_0 152400
Core_0_L1I_acc_level_1 0
Core_0_L1I_acc_level_2 0
Core_0_L1I_acc_level_3 0
Core_0_L1I_acc_level_4 0
Core_0_L1I_acc_level_5 0
Core_0_L1I_acc_level_6 0
Core_0_L1I_acc_level_7 0
Core_0_L1I_acc_level_8 0
Core_0_L1I_acc_level_9 0

Core_0_L2C_total_access 14593849
Core_0_L2C_total_hit 10996527
Core_0_L2C_total_miss 3597322
Core_0_L2C_loads 3623423
Core_0_L2C_load_hit 3307542
Core_0_L2C_load_miss 315881
Core_0_L2C_RFOs 1361
Core_0_L2C_RFO_hit 994
Core_0_L2C_RFO_miss 367
Core_0_L2C_prefetches 10956344
Core_0_L2C_prefetch_hit 7675270
Core_0_L2C_prefetch_miss 3281074
Core_0_L2C_writebacks 12721
Core_0_L2C_writeback_hit 12721
Core_0_L2C_writeback_miss 0
Core_0_L2C_prefetch_requested 20371989
Core_0_L2C_prefetch_dropped 0
Core_0_L2C_prefetch_issued 20371989
Core_0_L2C_prefetch_filled 3973844
Core_0_L2C_prefetch_useful 3864249
Core_0_L2C_prefetch_useless 109390
Core_0_L2C_prefetch_late 188520
Core_0_L2C_average_miss_latency 108.27283

Core_0_L2C_rq_access 3624784
Core_0_L2C_rq_forward 0
Core_0_L2C_rq_merged 0
Core_0_L2C_rq_to_cache 3624784
Core_0_L2C_rq_full 0

Core_0_L2C_wq_access 12721
Core_0_L2C_wq_forward 0
Core_0_L2C_wq_merged 0
Core_0_L2C_wq_to_cache 12721
Core_0_L2C_wq_full 0

Core_0_L2C_pq_access 20371989
Core_0_L2C_pq_forward 0
Core_0_L2C_pq_merged 636914
Core_0_L2C_pq_to_cache 19735075
Core_0_L2C_pq_full 0

Core_0_L2C_acc_epochs 152400
Core_0_L2C_acc_level_0 41
Core_0_L2C_acc_level_1 15
Core_0_L2C_acc_level_2 114
Core_0_L2C_acc_level_3 311
Core_0_L2C_acc_level_4 919
Core_0_L2C_acc_level_5 1966
Core_0_L2C_acc_level_6 2909
Core_0_L2C_acc_level_7 4531
Core_0_L2C_acc_level_8 10047
Core_0_L2C_acc_level_9 131547

Core_0_LLC_total_access 3602998
Core_0_LLC_total_hit 31471
Core_0_LLC_total_miss 3571527
Core_0_LLC_loads 127707
Core_0_LLC_load_hit 2683
Core_0_LLC_load_miss 125024
Core_0_LLC_RFOs 68
Core_0_LLC_RFO_hit 43
Core_0_LLC_RFO_miss 25
Core_0_LLC_prefetches 3469547
Core_0_LLC_prefetch_hit 26041
Core_0_LLC_prefetch_miss 3443506
Core_0_LLC_writebacks 5676
Core_0_LLC_writeback_hit 2704
Core_0_LLC_writeback_miss 2972
Core_0_LLC_prefetch_requested 0
Core_0_LLC_prefetch_dropped 0
Core_0_LLC_prefetch_issued 0
Core_0_LLC_prefetch_filled 4134517
Core_0_LLC_prefetch_useful 253
Core_0_LLC_prefetch_useless 4107106
Core_0_LLC_prefetch_late 0
Core_0_LLC_average_miss_latency 81.79678

Core_0_LLC_rq_access 127775
Core_0_LLC_rq_forward 0
Core_0_LLC_rq_merged 0
Core_0_LLC_rq_to_cache 127775
Core_0_LLC_rq_full 0

Core_0_LLC_wq_access 5676
Core_0_LLC_wq_forward 0
Core_0_LLC_wq_merged 0
Core_0_LLC_wq_to_cache 5676
Core_0_LLC_wq_full 0

Core_0_LLC_pq_access 4162364
Core_0_LLC_pq_forward 0
Core_0_LLC_pq_merged 0
Core_0_LLC_pq_to_cache 4162364
Core_0_LLC_pq_full 0

Core_0_LLC_acc_epochs 158829
Core_0_LLC_acc_level_0 158703
Core_0_LLC_acc_level_1 101
Core_0_LLC_acc_level_2 17
Core_0_LLC_acc_level_3 1
Core_0_LLC_acc_level_4 0
Core_0_LLC_acc_level_5 6
Core_0_LLC_acc_level_6 0
Core_0_LLC_acc_level_7 1
Core_0_LLC_acc_level_8 0
Core_0_LLC_acc_level_9 0

Core_0_major_page_fault 0
Core_0_minor_page_fault 48029

scooby_st_lookup 4342672
scooby_st_hit 4260630
scooby_st_evict 81978
scooby_st_insert 82042
scooby_st_streaming 0

scooby_predict_called 4342672
scooby_predict_out_of_bounds 114480
scooby_predict_action_1 2900838
scooby_predict_issue_action_1 2881453
scooby_predict_hit_action_1 19385
scooby_predict_out_of_bounds_action_1 45307
scooby_predict_action_3 1273363
scooby_predict_issue_action_3 1268274
scooby_predict_hit_action_3 5089
scooby_predict_out_of_bounds_action_3 64306
scooby_predict_action_4 15936
scooby_predict_issue_action_4 15868
scooby_predict_hit_action_4 68
scooby_predict_out_of_bounds_action_4 1168
scooby_predict_action_5 1758
scooby_predict_issue_action_5 1754
scooby_predict_hit_action_5 4
scooby_predict_out_of_bounds_action_5 210
scooby_predict_action_10 1577
scooby_predict_issue_action_10 1577
scooby_predict_hit_action_10 0
scooby_predict_out_of_bounds_action_10 281
scooby_predict_action_11 1429
scooby_predict_issue_action_11 1429
scooby_predict_hit_action_11 0
scooby_predict_out_of_bounds_action_11 325
scooby_predict_action_12 1281
scooby_predict_issue_action_12 1281
scooby_predict_hit_action_12 0
scooby_predict_out_of_bounds_action_12 305
scooby_predict_action_22 1011
scooby_predict_issue_action_22 1010
scooby_predict_hit_action_22 1
scooby_predict_out_of_bounds_action_22 486
scooby_predict_action_23 923
scooby_predict_issue_action_23 922
scooby_predict_hit_action_23 1
scooby_predict_out_of_bounds_action_23 538
scooby_predict_action_30 822
scooby_predict_issue_action_30 821
scooby_predict_hit_action_30 1
scooby_predict_out_of_bounds_action_30 669
scooby_predict_action_32 723
scooby_predict_issue_action_32 723
scooby_predict_hit_action_32 0
scooby_predict_out_of_bounds_action_32 650
scooby_predict_action_-1 18094
scooby_predict_issue_action_-1 10228
scooby_predict_hit_action_-1 7866
scooby_predict_out_of_bounds_action_-1 53
scooby_predict_action_-3 1542
scooby_predict_issue_action_-3 1083
scooby_predict_hit_action_-3 459
scooby_predict_out_of_bounds_action_-3 45
scooby_predict_action_-6 1427
scooby_predict_issue_action_-6 1014
scooby_predict_hit_action_-6 413
scooby_predict_out_of_bounds_action_-6 137
scooby_predict_action_0 7468
scooby_predict_issue_action_0 0
scooby_predict_hit_action_0 0
scooby_predict_out_of_bounds_action_0 0
scooby_predict_multi_deg_called 3812267
scooby_predict_predicted 20371989
scooby_predict_multi_deg 16184552
scooby_predict_multi_deg_2 3708355
scooby_predict_multi_deg_3 3453952
scooby_predict_multi_deg_4 3350734
scooby_predict_multi_deg_5 2887312
scooby_predict_multi_deg_6 2784199
scooby_predict_multi_deg_7 0
scooby_predict_multi_deg_8 0
scooby_predict_multi_deg_9 0
scooby_predict_multi_deg_10 0
scooby_predict_multi_deg_11 0
scooby_predict_multi_deg_12 0
scooby_predict_multi_deg_13 0
scooby_predict_multi_deg_14 0
scooby_predict_multi_deg_15 0
scooby_predict_multi_deg_16 0

scooby_selected_deg_1 375170
scooby_selected_deg_2 151783
scooby_selected_deg_3 0
scooby_selected_deg_4 365582
scooby_selected_deg_5 0
scooby_selected_deg_6 3294902
scooby_selected_deg_7 0
scooby_selected_deg_8 0
scooby_selected_deg_9 0
scooby_selected_deg_10 0
scooby_selected_deg_11 0
scooby_selected_deg_12 0
scooby_selected_deg_13 0
scooby_selected_deg_14 0
scooby_selected_deg_15 0
scooby_selected_deg_16 0

scooby_state_40f7c0|0|0 44685,19594,16,11,14,13,9,7,7,5,6,10,10,5,4,64396,
scooby_state_40f7c0|1|1 44279,19570,95,19,12,15,9,8,8,7,9,14,7,8,10,64070,
scooby_state_40f7c0|62|1 44194,19523,94,15,9,14,10,8,10,14,5,5,14,9,5,63929,
scooby_state_40f7c0|33|1 44166,19527,79,14,15,8,7,11,7,8,6,8,6,9,11,63882,
scooby_state_40f7c0|9|1 44181,19494,77,13,9,10,7,14,6,6,20,8,7,7,9,63868,
scooby_state_40f7c0|3|1 44186,19492,87,9,11,9,5,8,4,6,5,7,9,10,6,63854,
scooby_state_40f7c0|35|1 44195,19495,81,14,9,8,8,4,4,5,5,5,8,5,4,63850,
scooby_state_40f7c0|63|1 44151,19497,89,16,12,12,8,5,7,7,8,9,8,7,8,63844,
scooby_state_40f7c0|39|1 44164,19496,76,16,10,11,7,6,7,13,5,7,9,4,12,63843,
scooby_state_40f7c0|31|1 44162,19500,77,9,11,12,7,7,6,10,8,13,7,7,7,63843,
scooby_state_40f7c0|42|1 44142,19509,78,15,10,11,11,9,11,8,3,9,9,6,11,63842,
scooby_state_40f7c0|29|1 44183,19480,77,9,12,9,0,13,8,10,10,10,7,3,8,63839,
scooby_state_40f7c0|36|1 44175,19495,77,13,11,5,7,8,9,7,6,13,4,2,6,63838,
scooby_state_40f7c0|32|1 44150,19510,76,7,15,10,9,4,6,10,7,14,8,4,6,63836,
scooby_state_40f7c0|4|1 44131,19511,85,14,14,10,8,12,11,8,5,5,7,7,6,63834,
scooby_state_40f7c0|30|1 44189,19485,78,14,10,4,9,3,3,5,6,4,12,2,8,63832,
scooby_state_40f7c0|37|1 44161,19495,76,11,8,12,9,6,6,5,6,10,11,5,7,63828,
scooby_state_40f7c0|34|1 44124,19513,83,19,10,9,9,5,12,9,9,3,11,5,5,63826,
scooby_state_40f7c0|47|1 44170,19465,86,12,13,5,7,7,7,5,9,8,8,8,6,63816,
scooby_state_40f7c0|41|1 44152,19473,82,12,8,14,6,8,9,6,3,6,8,16,10,63813,
scooby_state_40f7c0|28|1 44138,19461,80,13,9,20,8,12,9,7,7,9,12,13,12,63810,
scooby_state_40f7c0|43|1 44128,19494,82,13,17,12,7,5,9,6,7,4,5,12,7,63808,
scooby_state_40f7c0|38|1 44158,19475,80,11,15,5,4,12,6,6,9,4,7,4,9,63805,
scooby_state_40f7c0|8|1 44139,19481,83,14,9,9,13,7,8,6,10,4,9,8,5,63805,
scooby_state_40f7c0|40|1 44144,19455,84,17,12,10,3,5,6,7,9,13,9,10,16,63800,
scooby_state_40f7c0|44|1 44113,19497,83,16,7,10,7,7,5,8,7,4,7,14,7,63792,
scooby_state_40f7c0|61|1 44110,19484,92,10,7,9,10,6,11,7,6,8,9,9,9,63787,
scooby_state_40f7c0|56|1 44117,19470,88,13,12,10,10,13,4,9,4,12,9,6,7,63784,
scooby_state_40f7c0|5|1 44108,19491,89,12,7,11,6,7,10,4,9,6,8,10,5,63783,
scooby_state_40f7c0|57|1 44111,19467,92,15,9,11,8,10,8,8,9,8,11,6,6,63779,
scooby_state_40f7c0|12|1 44103,19493,78,14,13,10,12,8,3,10,6,7,6,7,4,63774,
scooby_state_40f7c0|52|1 44104,19470,88,12,12,8,10,8,9,10,6,9,7,10,7,63770,
scooby_state_40f7c0|13|1 44082,19493,76,15,14,14,11,5,10,11,7,4,7,14,6,63769,
scooby_state_40f7c0|11|1 44101,19481,75,14,12,11,8,7,14,7,8,9,6,9,6,63768,
scooby_state_40f7c0|51|1 44091,19472,93,12,9,10,10,6,6,12,6,6,14,4,7,63758,
scooby_state_40f7c0|53|1 44105,19473,83,10,6,12,8,9,5,7,9,6,7,7,8,63755,
scooby_state_40f7c0|10|1 44090,19472,78,14,13,12,9,8,7,5,5,8,11,13,10,63755,
scooby_state_40f7c0|2|1 44093,19464,89,8,8,8,9,11,13,13,7,10,4,8,9,63754,
scooby_state_40f7c0|60|1 44060,19472,96,19,10,13,11,6,11,13,3,7,7,11,7,63746,
scooby_state_40f7c0|18|1 44095,19464,78,13,11,15,12,9,8,5,6,4,5,4,12,63741,
scooby_state_40f7c0|26|1 44092,19460,82,20,17,5,5,7,5,3,6,14,3,9,13,63741,
scooby_state_40f7c0|59|1 44083,19450,96,18,6,13,9,5,10,8,9,5,5,5,13,63735,
scooby_state_40f7c0|6|1 44063,19486,82,14,13,14,10,7,8,4,7,7,8,3,8,63734,
scooby_state_40f7c0|7|1 44088,19463,77,15,16,17,8,8,8,5,7,7,4,2,7,63732,
scooby_state_40f7c0|27|1 44070,19481,79,16,15,4,3,14,8,7,5,4,7,11,6,63730,
scooby_state_40f7c0|46|1 44075,19453,89,12,9,11,13,6,9,9,11,7,6,4,11,63725,
scooby_state_40f7c0|50|1 44069,19472,87,8,14,10,5,8,8,4,8,4,8,10,9,63724,
scooby_state_40f7c0|48|1 44071,19459,85,10,9,8,6,11,6,14,10,8,9,9,8,63723,
scooby_state_40f7c0|58|1 44057,19463,99,17,11,12,10,6,8,7,9,11,5,4,4,63723,
scooby_state_40f7c0|23|1 44089,19456,73,12,14,4,9,7,7,11,8,7,2,11,8,63718,
scooby_state_40f7c0|54|1 44067,19449,96,20,7,11,8,11,5,7,4,11,4,9,8,63717,
scooby_state_40f7c0|15|1 44046,19483,78,14,12,17,6,6,7,6,6,9,9,6,8,63713,
scooby_state_40f7c0|45|1 44108,19422,83,11,11,12,8,7,11,6,4,5,11,7,6,63712,
scooby_state_40f7c0|24|1 44073,19466,79,12,9,7,6,10,7,4,3,7,8,7,12,63710,
scooby_state_40f7c0|19|1 44052,19466,70,11,13,10,6,5,8,7,9,6,7,15,6,63691,
scooby_state_40f7c0|25|1 44058,19435,74,13,14,7,10,8,11,10,8,12,10,11,10,63691,
scooby_state_40f7c0|17|1 44067,19435,77,14,11,13,8,8,8,9,9,6,5,7,10,63687,
scooby_state_40f7c0|55|1 44061,19428,91,13,12,10,5,7,10,11,10,8,9,6,4,63685,
scooby_state_40f7c0|22|1 44038,19461,75,17,10,13,7,11,8,8,7,7,6,7,7,63682,
scooby_state_40f7c0|49|1 44036,19461,86,12,10,7,13,3,13,7,6,4,6,9,8,63681,
scooby_state_40f7c0|14|1 44030,19448,77,14,9,9,10,12,14,11,9,11,6,7,5,63672,
scooby_state_40f7c0|21|1 44034,19457,75,14,7,12,11,5,5,9,6,9,6,4,9,63663,
scooby_state_40f7c0|16|1 44001,19423,77,11,12,12,6,12,8,7,6,6,6,4,10,63601,
scooby_state_40f7c0|20|1 43980,19433,73,9,12,8,9,13,7,7,3,9,10,7,8,63588,
scooby_state_a4c416|61|0 2720,3938,82,38,37,35,38,35,34,36,37,56,56,54,403,7599,
scooby_state_40f7b9|58|6 4994,2587,3,2,1,0,0,2,2,1,0,2,1,0,0,7595,
scooby_state_a52679|14|-1 6950,39,44,44,42,43,42,42,43,42,44,42,42,41,95,7595,
scooby_state_40f8df|13|-1 7586,1,1,0,0,0,0,0,0,2,0,1,1,2,0,7594,
scooby_state_40f7b9|52|-6 1,7580,0,2,1,0,1,1,1,1,0,0,2,1,1,7592,
scooby_state_a4c43f|25|1 6906,64,42,43,45,45,46,44,45,43,45,46,43,44,87,7588,
scooby_state_a4c41d|24|-1 7572,1,1,0,1,0,1,0,1,2,3,0,3,1,0,7586,
scooby_state_40f797|46|0 6887,53,59,52,47,48,51,32,31,32,31,48,49,45,120,7585,
scooby_state_40f7b9|43|-1 2,7074,2,1,0,1,1,1,0,0,1,1,1,1,0,7086,
scooby_state_40f7b9|12|0 1,7070,2,0,0,3,1,1,0,0,0,3,2,0,1,7084,
scooby_state_40f7b9|51|0 1,6451,0,2,1,0,0,2,1,0,1,4,1,0,1,6465,
scooby_state_a525bd|15|2 86,5,5,7,7,7,6,6,9,6,5,5722,5,7,38,5921,
scooby_state_40f886|44|-1 3,1,4,1,2,1,4,1,2,1,2,5755,0,1,0,5778,
scooby_state_40f7b9|45|2 0,5691,0,0,1,0,1,1,0,2,1,1,0,2,1,5701,
scooby_state_40f7b9|53|0 1,3901,0,0,0,0,0,0,0,1,0,1,0,0,0,3904,
scooby_state_40f70a|59|0 2608,1106,0,1,2,1,0,0,1,1,0,0,0,0,0,3720,
scooby_state_40f70a|59|1 3,5,3,4,2,3,4,1,1,3,4,2,3,3,3463,3504,
scooby_state_40f7b9|58|-1 0,3497,2,0,0,1,0,0,1,0,0,0,0,0,1,3502,
scooby_state_a525d9|15|2 22,0,1,0,0,0,0,0,0,1,0,1652,0,0,0,1676,
scooby_state_40f886|44|1 1,1,3,1,0,2,1,0,0,1,0,1385,0,0,0,1395,
scooby_state_40f7b9|36|0 1,986,1,1,0,1,0,0,0,0,0,0,0,0,0,990,
scooby_state_40f7c0|16|2 436,186,0,0,0,0,0,0,0,0,0,0,0,0,0,622,
scooby_state_40f7c0|15|2 429,177,1,0,0,0,0,2,0,0,0,0,0,0,0,609,
scooby_state_40f7c0|27|2 419,178,0,0,0,1,0,0,0,0,0,0,0,0,0,598,
scooby_state_40f7c0|21|2 424,166,0,0,0,0,0,0,0,0,0,0,0,0,0,590,
scooby_state_40f7c0|20|2 420,159,0,0,0,1,1,0,0,0,0,0,0,0,0,581,
scooby_state_40f7c0|22|2 409,170,0,0,0,0,0,0,0,0,0,0,0,0,0,579,
scooby_state_40f7c0|25|2 402,172,2,0,1,0,0,0,0,0,0,0,0,0,0,577,
scooby_state_40f7c0|54|2 396,177,2,1,0,0,0,0,0,0,0,0,0,0,0,576,
scooby_state_40f7c0|26|2 395,179,0,0,0,0,0,0,0,1,0,0,0,1,0,576,
scooby_state_40f7c0|2|2 386,188,0,0,0,1,0,0,0,0,0,0,0,0,0,575,
scooby_state_40f7c0|17|2 392,176,1,0,0,0,0,0,0,0,0,0,0,0,0,569,
scooby_state_40f7c0|49|2 394,175,0,0,0,0,0,0,0,0,0,0,0,0,0,569,
scooby_state_40f7c0|38|2 392,175,0,0,0,0,0,1,0,0,0,1,0,0,0,569,
scooby_state_40f7c0|24|2 395,171,1,0,0,0,0,0,0,0,0,0,0,0,0,567,
scooby_state_40f7c0|7|2 386,177,0,0,0,0,0,0,0,0,0,0,0,1,0,564,
scooby_state_40f7c0|19|2 397,162,1,0,0,0,1,1,0,0,0,0,0,1,0,563,
scooby_state_40f7c0|37|2 391,171,0,0,0,0,0,0,0,0,0,0,0,0,0,562,
scooby_state_40f7c0|14|2 391,166,2,0,0,0,0,0,0,0,0,0,0,0,0,559,
scooby_state_40f7c0|23|2 387,167,1,0,0,0,0,0,0,0,0,0,0,0,0,555,
scooby_state_40f7c0|55|2 375,178,2,0,0,0,0,0,0,0,0,0,0,0,0,555,
scooby_state_40f7c0|46|2 383,168,2,0,1,0,0,0,0,0,0,0,0,0,0,554,
scooby_state_40f7c0|3|2 358,194,1,0,0,0,0,0,0,0,0,0,0,0,0,553,
scooby_state_40f7c0|41|2 373,179,0,0,0,0,0,0,0,0,0,0,0,0,0,552,
scooby_state_40f7c0|50|2 384,166,2,0,0,0,0,0,0,0,0,0,0,0,0,552,
scooby_state_40f7c0|32|2 377,165,0,1,0,0,0,0,0,0,0,0,0,1,0,544,
scooby_state_40f7c0|40|2 363,175,0,1,0,0,0,0,0,0,0,0,0,1,0,540,
scooby_state_40f7c0|61|2 370,170,0,0,0,0,0,0,0,0,0,0,0,0,0,540,
scooby_state_40f7c0|45|2 379,161,0,0,0,0,0,0,0,0,0,0,0,0,0,540,
scooby_state_40f7c0|13|2 378,159,1,0,0,0,0,0,0,0,0,1,0,0,0,539,
scooby_state_40f7c0|12|2 372,165,0,0,0,0,0,0,0,0,0,0,0,1,0,538,
scooby_state_40f7c0|18|2 365,169,1,0,1,0,0,0,0,0,0,0,0,0,0,536,
scooby_state_40f7c0|51|2 371,157,2,1,0,0,0,0,0,0,0,0,1,0,0,532,
scooby_state_40f7c0|44|2 372,157,2,1,0,0,0,0,0,0,0,0,0,0,0,532,
scooby_state_40f7c0|6|2 364,161,2,0,1,0,0,1,0,0,0,0,0,1,0,530,
scooby_state_40f7c0|60|2 362,166,1,0,0,0,0,0,0,0,0,0,0,0,0,529,
scooby_state_40f7c0|30|2 350,177,0,0,0,0,0,0,0,1,0,0,0,0,0,528,
scooby_state_40f7c0|31|2 354,171,0,0,0,0,0,0,0,0,0,0,0,0,0,525,
scooby_state_40f7c0|39|2 364,159,0,0,0,0,0,0,1,0,0,0,0,0,0,524,
scooby_state_40f7c0|53|2 367,155,1,0,0,0,0,0,0,0,1,0,0,0,0,524,
scooby_state_40f7c0|59|2 354,167,1,2,0,0,0,0,0,0,0,0,0,0,0,524,
scooby_state_40f7c0|52|2 371,150,1,1,0,0,0,0,0,0,0,0,0,0,0,523,
scooby_state_40f7c0|56|2 357,165,0,0,0,0,0,0,0,0,0,0,0,0,0,522,
scooby_state_40f7c0|36|2 363,155,1,0,1,0,0,1,0,0,0,0,0,0,0,521,
scooby_state_40f7c0|28|2 370,149,1,0,0,0,0,0,0,0,0,0,0,0,0,520,
scooby_state_40f7c0|11|2 358,159,0,0,1,0,0,0,0,0,0,0,2,0,0,520,
scooby_state_40f7c0|34|2 373,145,0,0,1,1,0,0,0,0,0,0,0,0,0,520,
scooby_state_40f7c0|4|2 347,170,1,0,0,0,0,0,0,0,0,0,0,0,0,518,
scooby_state_40f7c0|43|2 367,146,4,0,0,0,0,0,0,0,0,1,0,0,0,518,
scooby_state_40f7c0|42|2 365,147,2,0,0,1,0,0,0,0,0,0,0,0,0,515,
scooby_state_40f7c0|58|2 348,163,1,1,0,1,0,0,0,0,0,0,0,0,0,514,
scooby_state_40f7c0|8|2 347,160,1,0,0,0,0,0,0,0,0,0,0,0,0,508,
scooby_state_40f7c0|57|2 352,154,0,0,1,1,0,0,0,0,0,0,0,0,0,508,
scooby_state_40f7c0|5|2 342,157,0,0,0,0,0,0,0,0,0,0,0,0,0,499,
scooby_state_40f7c0|33|2 361,138,0,0,0,0,0,0,0,0,0,0,0,0,0,499,
scooby_state_40f7c0|10|2 343,152,0,1,0,1,0,0,0,0,0,0,0,0,0,497,
scooby_state_40f7c0|35|2 354,140,0,0,1,0,0,0,1,0,0,0,0,0,0,496,
scooby_state_40f7c0|29|2 336,152,0,0,0,0,0,1,1,0,0,0,2,0,0,492,
scooby_state_40f7c0|9|2 330,152,0,0,0,1,0,0,0,0,0,0,0,0,0,483,
scooby_state_40f7c0|62|2 316,162,0,0,0,0,0,0,0,0,0,0,0,0,0,478,
scooby_state_40f7c0|47|2 327,143,3,0,0,0,0,0,0,0,0,0,0,0,0,473,
scooby_state_40f7c0|48|2 330,143,0,0,0,0,0,0,0,0,0,0,0,0,0,473,
scooby_state_40f7c0|63|2 310,158,0,0,0,0,0,0,0,0,0,0,0,0,1,469,
scooby_state_40f7c0|1|0 319,134,0,0,0,3,0,0,0,1,0,0,0,1,0,458,
scooby_state_40f70f|63|1 300,0,87,0,0,0,0,0,0,0,0,0,0,0,0,387,
scooby_state_40f70f|34|1 293,0,84,0,0,1,0,0,0,0,0,0,0,0,0,378,
scooby_state_40f70f|2|1 289,0,80,0,0,0,0,0,0,0,1,0,0,0,0,370,
scooby_state_40f70f|16|1 286,0,83,0,0,0,0,0,0,0,0,0,0,0,0,369,
scooby_state_40f70f|1|1 283,0,79,0,0,0,0,1,0,0,0,0,0,0,0,363,
scooby_state_40f70f|20|1 273,0,88,0,0,0,1,0,0,0,0,0,0,0,0,362,
scooby_state_40f70f|7|1 278,0,82,0,0,0,0,1,0,0,0,0,0,0,0,361,
scooby_state_40f70f|40|1 272,0,87,0,0,0,0,1,0,0,0,0,0,0,0,360,
scooby_state_40f70f|5|1 271,0,81,0,0,0,0,0,0,0,0,0,0,0,0,352,
scooby_state_40f70f|58|1 282,0,69,0,1,0,0,0,0,0,0,0,0,0,0,352,
scooby_state_40f70f|14|1 281,0,71,0,0,0,0,0,0,0,0,0,0,0,0,352,
scooby_state_40f70f|61|1 287,0,63,0,0,0,0,0,0,0,1,0,0,0,1,352,
scooby_state_40f70f|52|1 268,0,83,0,0,0,0,0,0,0,0,0,0,0,0,351,
scooby_state_40f70f|13|1 267,0,83,0,0,0,0,0,0,0,0,0,0,0,0,350,
scooby_state_40f70f|24|1 279,0,69,0,0,0,0,0,0,0,0,0,0,0,0,348,
scooby_state_40f70f|51|1 265,0,82,0,0,0,0,0,0,0,0,0,0,0,0,347,
scooby_state_40f7cb|14|-1 0,344,0,0,0,0,1,0,0,0,0,0,0,0,0,345,
scooby_state_40f70f|55|1 266,0,79,0,0,0,0,0,0,0,0,0,0,0,0,345,
scooby_state_40f7cb|25|-1 0,344,0,0,0,1,0,0,0,0,0,0,0,0,0,345,
scooby_state_40f70f|43|1 267,0,77,0,0,1,0,0,0,0,0,0,0,0,0,345,
scooby_state_40f70f|49|1 271,0,70,0,0,0,0,0,0,0,0,0,0,0,0,341,
scooby_state_40f70f|45|1 253,0,87,0,0,0,0,0,0,0,0,0,1,0,0,341,
scooby_state_40f70f|35|1 260,0,76,0,0,0,0,0,1,1,0,0,0,0,0,338,
scooby_state_40f70f|22|1 263,0,73,0,0,0,0,0,0,0,0,0,0,0,0,336,
scooby_state_40f70f|10|1 264,0,71,0,0,0,0,0,0,0,0,0,1,0,0,336,
scooby_state_40f70f|48|1 269,0,66,0,0,0,0,0,0,0,0,0,0,0,0,335,
scooby_state_40f70f|50|1 262,0,72,0,0,0,0,0,0,0,0,0,0,0,0,334,
scooby_state_40f70f|18|1 259,0,74,0,0,0,0,0,0,0,0,0,0,0,0,333,
scooby_state_40f70f|54|1 251,0,82,0,0,0,0,0,0,0,0,0,0,0,0,333,
scooby_state_40f70f|46|1 269,0,62,0,0,0,0,0,0,0,0,0,0,0,0,331,
scooby_state_40f70f|19|1 263,0,68,0,0,0,0,0,0,0,0,0,0,0,0,331,
scooby_state_40f70f|38|1 249,0,81,0,0,0,0,0,0,0,0,0,0,0,0,330,
scooby_state_40f70f|32|1 262,0,66,0,0,0,0,0,0,0,0,0,0,0,0,328,
scooby_state_40f70f|11|1 254,0,74,0,0,0,0,0,0,0,0,0,0,0,0,328,
scooby_state_40f70f|21|1 249,0,78,0,0,0,0,0,0,0,0,0,0,0,0,327,
scooby_state_40f70f|28|1 245,0,80,0,0,0,0,0,0,0,0,0,0,0,0,325,
scooby_state_40f7cb|15|-1 0,325,0,0,0,0,0,0,0,0,0,0,0,0,0,325,
scooby_state_40f70f|60|1 251,0,74,0,0,0,0,0,0,0,0,0,0,0,0,325,
scooby_state_40f70f|30|1 249,0,74,0,0,0,0,0,0,0,0,0,0,1,0,324,
scooby_state_40f70f|27|1 253,0,71,0,0,0,0,0,0,0,0,0,0,0,0,324,
scooby_state_40f70f|36|1 246,0,77,1,0,0,0,0,0,0,0,0,0,0,0,324,
scooby_state_40f70f|41|1 247,0,76,0,0,0,0,0,0,0,0,0,0,0,0,323,
scooby_state_40f70f|31|1 252,0,69,0,0,0,0,0,0,0,0,0,0,0,0,321,
scooby_state_40f7cb|36|-1 1,319,0,0,0,0,0,0,0,0,0,0,0,0,0,320,
scooby_state_40f70f|59|1 252,0,66,0,0,0,0,0,0,0,1,0,0,0,0,319,
scooby_state_40f7cb|19|-1 0,319,0,0,0,0,0,0,0,0,0,0,0,0,0,319,
scooby_state_40f70f|4|1 247,0,72,0,0,0,0,0,0,0,0,0,0,0,0,319,
scooby_state_40f70f|44|1 253,0,64,0,0,0,0,0,0,0,0,0,0,0,0,317,
scooby_state_40f70f|25|1 226,0,91,0,0,0,0,0,0,0,0,0,0,0,0,317,
scooby_state_40f70f|26|1 246,0,71,0,0,0,0,0,0,0,0,0,0,0,0,317,
scooby_state_40f70f|12|1 256,1,58,0,0,0,0,0,0,0,0,0,1,0,0,316,
scooby_state_40f7cb|44|-1 0,313,0,1,0,0,0,1,0,0,0,0,0,0,0,315,
scooby_state_40f70f|37|1 249,0,66,0,0,0,0,0,0,0,0,0,0,0,0,315,
scooby_state_40f70f|6|1 250,0,65,0,0,0,0,0,0,0,0,0,0,0,0,315,
scooby_state_40f70f|0|0 245,0,69,0,0,0,0,0,0,0,0,0,0,1,0,315,
scooby_state_40f7cb|20|-1 0,314,0,0,0,0,0,0,0,0,0,0,0,0,0,314,
scooby_state_40f70f|17|1 246,0,67,0,0,0,0,0,0,0,1,0,0,0,0,314,
scooby_state_40f70f|57|1 237,0,77,0,0,0,0,0,0,0,0,0,0,0,0,314,
scooby_state_40f70f|39|1 253,0,61,0,0,0,0,0,0,0,0,0,0,0,0,314,
scooby_state_40f70f|8|1 235,0,78,0,0,0,0,0,0,0,0,0,0,0,0,313,
scooby_state_40f7cb|5|-1 0,313,0,0,0,0,0,0,0,0,0,0,0,0,0,313,
scooby_state_40f70f|33|1 237,0,74,0,0,0,0,0,0,0,0,0,0,0,0,311,
scooby_state_40f70f|23|1 239,0,70,0,0,0,1,0,0,0,0,1,0,0,0,311,
scooby_state_40f7cb|1|-1 0,308,0,0,0,0,1,0,0,0,0,1,0,0,0,310,
scooby_state_40f7cb|48|-1 0,307,0,0,0,0,0,0,0,0,1,0,0,0,0,308,
scooby_state_40f7cb|55|-1 0,308,0,0,0,0,0,0,0,0,0,0,0,0,0,308,
scooby_state_40f7cb|18|-1 0,307,0,0,0,0,0,0,0,0,0,0,0,0,0,307,
scooby_state_40f7cb|59|-1 1,305,0,0,0,0,0,0,0,0,0,0,0,0,0,306,
scooby_state_40f7cb|63|1 0,306,0,0,0,0,0,0,0,0,0,0,0,0,0,306,
scooby_state_40f7cb|23|-1 0,306,0,0,0,0,0,0,0,0,0,0,0,0,0,306,
scooby_state_40f7cb|35|-1 0,305,0,0,0,0,0,0,0,0,0,0,0,0,0,305,
scooby_state_40f7cb|21|-1 0,305,0,0,0,0,0,0,0,0,0,0,0,0,0,305,
scooby_state_40f7cb|0|-1 0,304,0,0,0,0,0,0,0,0,0,0,0,0,0,304,
scooby_state_40f7cb|13|-1 0,301,0,0,1,0,0,0,0,0,1,0,0,0,0,303,
scooby_state_40f7cb|52|-1 0,302,0,0,0,0,0,0,0,0,0,0,0,0,0,302,
scooby_state_40f7cb|26|-1 0,302,0,0,0,0,0,0,0,0,0,0,0,0,0,302,
scooby_state_40f70f|53|1 240,0,61,0,0,0,0,0,0,0,0,0,0,0,0,301,
scooby_state_40f7cb|39|-1 0,300,0,0,0,0,0,0,0,0,0,0,0,1,0,301,
scooby_state_40f7cb|30|-1 0,300,0,0,0,0,0,0,0,0,0,0,0,0,0,300,
scooby_state_40f7cb|38|-1 0,297,0,0,0,1,0,0,0,0,0,0,0,1,0,299,
scooby_state_40f7cb|53|-1 0,299,0,0,0,0,0,0,0,0,0,0,0,0,0,299,
scooby_state_40f7cb|24|-1 0,298,0,0,0,0,0,0,0,0,0,0,0,0,0,298,
scooby_state_40f70f|29|1 238,0,59,0,0,0,0,0,0,0,0,0,0,0,0,297,
scooby_state_40f70f|3|1 230,1,65,0,0,0,0,0,0,1,0,0,0,0,0,297,
scooby_state_40f7cb|17|-1 0,296,0,0,0,0,0,0,0,0,0,1,0,0,0,297,
scooby_state_40f7cb|11|-1 0,296,0,0,0,0,0,0,0,0,0,0,0,0,0,296,
scooby_state_40f7cb|22|-1 0,294,0,0,0,0,0,0,0,0,1,0,0,0,0,295,
scooby_state_40f7cb|6|-1 0,293,0,0,0,0,0,1,0,0,0,0,0,0,0,294,
scooby_state_40f7cb|42|-1 0,293,0,0,0,0,0,0,0,0,0,0,0,0,0,293,
scooby_state_40f7cb|47|-1 0,292,0,0,0,0,0,0,0,0,0,0,0,0,0,292,
scooby_state_40f70f|47|1 220,0,72,0,0,0,0,0,0,0,0,0,0,0,0,292,
scooby_state_40f7cb|54|-1 0,291,0,0,0,0,0,0,0,0,0,0,0,0,0,291,
scooby_state_40f7cb|2|-1 0,288,2,0,0,0,0,0,0,0,0,0,0,0,0,290,
scooby_state_40f7cb|49|-1 0,290,0,0,0,0,0,0,0,0,0,0,0,0,0,290,
scooby_state_40f70f|62|1 233,0,57,0,0,0,0,0,0,0,0,0,0,0,0,290,
scooby_state_40f70f|42|1 232,0,57,0,0,0,0,0,0,0,0,0,0,0,0,289,
scooby_state_40f7cb|58|-1 0,288,0,0,0,1,0,0,0,0,0,0,0,0,0,289,
scooby_state_40f7cb|16|-1 0,289,0,0,0,0,0,0,0,0,0,0,0,0,0,289,
scooby_state_40f7cb|10|-1 1,287,0,0,0,0,0,0,0,0,0,0,0,0,0,288,
scooby_state_40f7cb|57|-1 0,285,0,0,0,0,0,0,0,1,1,0,0,0,0,287,
scooby_state_40f7cb|12|-1 0,286,0,1,0,0,0,0,0,0,0,0,0,0,0,287,
scooby_state_40f7cb|37|-1 0,281,0,1,1,0,0,0,0,0,0,0,1,0,0,284,
scooby_state_40f7cb|60|-1 0,283,0,0,0,0,0,0,0,0,0,0,0,0,0,283,
scooby_state_40f7cb|29|-1 0,283,0,0,0,0,0,0,0,0,0,0,0,0,0,283,
scooby_state_40f70f|56|1 223,0,59,0,0,0,0,0,0,0,0,0,0,0,0,282,
scooby_state_40f7cb|40|-1 0,281,0,0,0,0,1,0,0,0,0,0,0,0,0,282,
scooby_state_40f7cb|33|-1 0,279,0,0,0,0,0,0,0,0,0,0,0,0,0,279,
scooby_state_40f7cb|4|-1 0,279,0,0,0,0,0,0,0,0,0,0,0,0,0,279,
scooby_state_40f7cb|43|-1 0,279,0,0,0,0,0,0,0,0,0,0,0,0,0,279,
scooby_state_40f7cb|28|-1 0,277,0,0,1,0,0,0,0,0,0,0,0,0,0,278,
scooby_state_40f7cb|56|-1 0,277,0,0,0,0,0,0,0,0,0,0,0,0,0,277,
scooby_state_40f7cb|45|-1 0,276,0,0,0,0,0,0,0,0,0,0,0,0,0,276,
scooby_state_40f70f|15|1 232,0,44,0,0,0,0,0,0,0,0,0,0,0,0,276,
scooby_state_40f7cb|50|-1 0,273,0,0,0,0,1,0,0,0,0,0,0,0,0,274,
scooby_state_40f7cb|31|-1 0,273,0,1,0,0,0,0,0,0,0,0,0,0,0,274,
scooby_state_40f7cb|32|-1 0,273,0,0,0,0,0,0,0,0,0,0,0,0,0,273,
scooby_state_40f7cb|9|-1 0,270,0,0,0,0,0,0,0,1,0,0,0,0,0,271,
scooby_state_40f7cb|7|-1 0,271,0,0,0,0,0,0,0,0,0,0,0,0,0,271,
scooby_state_40f7cb|41|-1 0,268,0,0,0,0,0,0,0,0,0,0,0,1,0,269,
scooby_state_40f70f|9|1 204,0,64,0,0,0,0,0,0,0,0,0,0,0,0,268,
scooby_state_40f7cb|62|-1 0,267,0,0,0,0,0,0,0,0,0,0,0,0,0,267,
scooby_state_40f7cb|8|-1 0,265,0,0,0,0,0,0,0,0,0,0,0,0,0,265,
scooby_state_40f7cb|27|-1 0,264,0,0,0,0,0,0,0,0,0,0,0,0,0,264,
scooby_state_40f7cb|51|-1 0,263,0,0,0,0,0,0,0,0,0,0,0,0,0,263,
scooby_state_40f7cb|34|-1 0,258,0,0,1,0,0,0,0,0,0,0,0,1,0,260,
scooby_state_40f7c0|6|0 172,87,0,0,0,0,0,0,0,0,0,0,0,0,0,259,
scooby_state_40f7cb|3|-1 0,255,0,0,0,0,0,0,0,0,0,0,0,0,0,255,
scooby_state_40f7c0|12|0 170,75,0,1,2,0,0,0,0,0,0,1,0,0,0,249,
scooby_state_40f7c0|13|0 163,78,0,0,1,0,0,0,0,0,0,0,0,0,0,242,
scooby_state_40f7cb|61|-1 0,240,0,0,1,0,0,0,0,0,0,0,0,0,0,241,
scooby_state_40f7c0|17|0 159,77,0,0,3,0,0,0,0,0,0,0,0,0,0,239,
scooby_state_40f7cb|46|-1 0,230,0,0,0,0,0,0,0,0,0,0,0,0,0,230,
scooby_state_40f7c0|8|0 156,70,0,0,1,0,0,0,0,0,0,0,0,0,1,228,
scooby_state_40f7c0|9|0 153,72,0,0,1,0,0,0,0,0,0,0,0,0,0,226,
scooby_state_40f7c0|26|0 152,70,0,0,2,1,0,0,0,0,0,0,0,0,0,225,
scooby_state_40f7c0|48|0 145,78,0,0,0,0,0,0,0,0,0,0,0,0,0,223,
scooby_state_40f7c0|7|0 147,71,0,0,1,0,0,0,0,0,0,1,0,0,0,220,
scooby_state_40f7c0|21|0 147,71,0,0,0,1,0,0,0,0,0,0,0,0,0,219,
scooby_state_40f7c0|16|0 147,69,1,0,0,0,0,0,0,0,0,0,0,0,0,217,
scooby_state_40f7c0|11|0 145,72,0,0,0,0,0,0,0,0,0,0,0,0,0,217,
scooby_state_40f7c0|4|0 146,68,0,0,1,1,0,0,0,0,0,0,0,0,0,216,
scooby_state_40f7c0|47|0 145,70,0,0,0,0,0,0,0,0,0,0,0,0,0,215,
scooby_state_40f7c0|3|0 142,71,0,0,0,0,0,0,0,0,0,0,0,0,0,213,
scooby_state_40f7c0|15|0 152,59,0,0,0,0,0,0,0,0,0,0,0,0,0,211,
scooby_state_40f7c0|2|0 143,66,0,0,0,0,0,0,0,1,0,1,0,0,0,211,
scooby_state_40f7c0|22|0 145,64,0,0,0,1,0,0,0,0,0,0,0,0,0,210,
scooby_state_40f7c0|20|0 143,60,0,1,2,1,0,0,0,1,0,0,0,0,0,208,
scooby_state_40f7c0|10|0 147,60,0,0,0,0,0,0,0,0,0,0,0,0,0,207,
scooby_state_40f7c0|60|0 140,61,0,0,1,2,0,0,0,0,1,0,0,0,0,205,
scooby_state_40f7c0|27|0 144,57,0,0,1,3,0,0,0,0,0,0,0,0,0,205,
scooby_state_40f7c0|18|0 144,56,0,0,1,1,0,0,0,0,0,0,0,0,0,202,
scooby_state_40f7c0|62|0 136,63,0,0,0,0,0,0,0,0,0,0,0,0,0,199,
scooby_state_40f7c0|14|0 134,61,0,0,0,2,0,0,0,0,0,1,0,0,0,198,
scooby_state_40f7c0|39|0 135,61,0,0,1,1,0,0,0,0,0,0,0,0,0,198,
scooby_state_40f7c0|32|0 143,50,0,1,2,1,0,0,0,0,1,0,0,0,0,198,
scooby_state_40f7c0|19|0 134,59,0,1,3,0,0,0,0,0,0,0,0,0,0,197,
scooby_state_40f7c0|29|0 134,61,0,0,0,1,0,0,0,0,0,0,0,0,0,196,
scooby_state_40f7c0|31|0 132,63,0,0,0,0,0,0,0,0,0,0,0,0,0,195,
scooby_state_40f7c0|53|0 135,59,0,0,0,1,0,0,0,0,0,0,0,0,0,195,
scooby_state_40f7c0|59|0 130,63,0,0,1,0,0,0,0,0,0,0,0,0,0,194,
scooby_state_40f7c0|5|0 135,57,0,0,0,2,0,0,0,0,0,0,0,0,0,194,
scooby_state_40f7c0|36|0 134,55,0,0,2,2,0,0,0,0,0,0,0,0,0,193,
scooby_state_40f7c0|61|0 131,60,0,0,0,1,0,0,0,0,0,0,0,0,0,192,
scooby_state_40f7c0|49|0 134,56,0,0,0,0,0,0,0,0,0,0,0,0,0,190,
scooby_state_40f7c0|25|0 125,63,0,0,1,0,0,0,0,0,0,0,0,0,0,189,
scooby_state_40f7c0|50|0 128,57,0,0,1,2,0,0,0,0,0,0,0,0,0,188,
scooby_state_40f7c0|43|0 125,60,0,0,1,0,0,0,0,0,0,1,0,0,0,187,
scooby_state_40f7c0|46|0 127,59,0,0,0,0,0,0,0,0,0,0,0,0,0,186,
scooby_state_40f7c0|34|0 132,50,1,0,0,0,0,0,0,0,0,0,0,0,1,184,
scooby_state_40f7c0|56|0 126,56,0,0,1,0,0,0,0,0,0,0,0,0,0,183,
scooby_state_40f7c0|37|0 122,59,1,0,0,0,1,0,0,0,0,0,0,0,0,183,
scooby_state_40f7c0|28|0 126,55,0,0,2,0,0,0,0,0,0,0,0,0,0,183,
scooby_state_40f7c0|30|0 118,61,0,0,3,0,0,0,0,0,0,0,0,0,0,182,
scooby_state_40f7c0|54|0 129,49,0,1,2,0,0,0,0,0,0,0,0,0,0,181,
scooby_state_40f7c0|35|0 127,49,0,0,1,3,0,0,0,0,0,0,0,0,0,180,
scooby_state_40f7c0|45|0 120,58,0,0,0,1,0,0,0,0,0,0,0,0,0,179,
scooby_state_40f7c0|55|0 115,60,0,0,0,1,0,0,0,0,0,1,0,0,0,177,
scooby_state_40f7c0|51|0 124,52,0,0,0,0,0,0,0,0,0,0,0,0,0,176,
scooby_state_40f7c0|63|0 115,58,0,0,1,1,0,0,0,1,0,0,0,0,0,176,
scooby_state_40f7c0|41|0 127,47,0,0,0,1,0,0,0,0,0,0,0,0,0,175,
scooby_state_40f7c0|23|0 124,50,0,0,0,0,0,0,0,0,0,0,0,0,1,175,
scooby_state_40f7c0|38|0 121,52,0,0,1,0,0,0,0,0,0,0,0,1,0,175,
scooby_state_40f7c0|42|0 116,52,0,0,1,1,0,0,0,0,0,1,0,0,0,171,
scooby_state_40f7c0|33|0 115,56,0,0,0,0,0,0,0,0,0,0,0,0,0,171,
scooby_state_40f7c0|57|0 120,48,0,0,0,1,0,0,0,0,0,0,0,0,0,169,
scooby_state_40f7c0|44|0 113,53,0,0,1,0,0,0,0,0,0,0,0,0,0,167,
scooby_state_a4c443|0|0 126,2,3,2,0,4,1,2,3,3,2,1,1,2,6,158,
scooby_state_40f7c0|52|0 109,46,0,0,2,0,0,0,0,0,0,0,0,0,0,157,
scooby_state_40f7c0|24|0 110,45,0,0,0,0,0,0,0,0,0,0,0,0,0,155,
scooby_state_40f7c0|40|0 112,41,0,0,1,0,0,0,0,0,0,0,0,0,0,154,
scooby_state_40f7c0|58|0 105,46,0,0,2,0,0,0,0,0,0,0,0,0,0,153,
scooby_state_40f89a|61|0 131,0,0,3,0,0,2,0,1,1,1,0,1,0,1,141,
scooby_state_40f7c0|0|-63 79,55,3,0,0,0,0,0,0,0,0,0,0,0,0,137,
scooby_state_40f89a|59|0 123,3,1,0,2,1,2,0,1,0,0,0,0,1,1,135,
scooby_state_a4c443|1|0 110,2,2,3,3,1,2,1,2,1,1,2,1,1,1,133,
scooby_state_40f89a|39|0 119,0,1,1,0,1,0,3,1,0,0,2,0,0,4,132,
scooby_state_40f89a|43|0 123,1,1,0,2,0,1,0,0,1,0,0,0,1,0,130,
scooby_state_40f89a|47|0 119,1,1,0,1,1,0,0,0,1,0,2,1,0,2,129,
scooby_state_40f89a|50|0 118,1,2,0,1,1,0,0,0,0,1,0,2,0,1,127,
scooby_state_40f89a|15|0 117,0,0,1,0,0,0,0,1,0,1,0,2,1,3,126,
scooby_state_40f89a|57|0 120,0,0,0,1,0,0,0,0,0,0,1,1,1,2,126,
scooby_state_40f89a|2|0 114,1,0,1,0,1,1,1,0,0,0,0,0,3,3,125,
scooby_state_40f89a|13|0 116,0,0,1,3,1,0,0,0,0,1,2,0,0,0,124,
scooby_state_40f89a|58|0 114,1,2,2,0,0,1,0,0,0,1,1,1,0,1,124,
scooby_state_40f89a|38|0 110,0,1,2,1,0,0,0,2,1,0,1,1,2,2,123,
scooby_state_40f89a|31|0 112,2,1,0,2,0,1,2,0,0,0,1,1,0,1,123,
scooby_state_40f89a|1|0 116,0,0,2,1,0,0,0,1,1,0,0,0,1,0,122,
scooby_state_40f89a|48|0 110,0,1,0,0,1,0,0,2,2,3,0,0,0,2,121,
scooby_state_40f89a|0|0 115,0,3,0,0,0,0,0,0,1,0,0,1,0,0,120,
scooby_state_40f8cc|27|-36 0,3,24,6,10,6,4,7,8,8,7,11,7,10,9,120,
scooby_state_40f8cc|60|-3 0,0,6,7,6,7,6,7,3,3,7,11,10,10,37,120,
scooby_state_40f89a|51|0 108,0,4,1,1,0,0,0,0,0,0,0,0,2,3,119,
scooby_state_40f89a|4|0 113,0,2,0,0,0,0,1,0,2,0,0,0,0,0,118,
scooby_state_40f89a|42|0 111,0,0,1,0,1,0,0,0,0,0,1,3,0,0,117,
scooby_state_a5266d|0|0 80,3,2,2,1,1,0,1,1,1,3,18,1,1,2,117,
scooby_state_40f89a|60|0 112,1,0,0,0,1,0,1,1,0,0,0,0,0,1,117,
scooby_state_40f89a|22|0 114,0,0,0,0,1,0,0,0,0,0,1,1,0,0,117,
scooby_state_40f89a|62|0 112,1,1,0,1,0,0,0,0,0,0,0,0,1,1,117,
scooby_state_40f8cc|0|-63 20,10,4,7,8,6,8,6,10,8,6,6,4,5,8,116,
scooby_state_40f89a|33|0 110,0,0,1,0,1,2,0,1,1,0,0,0,0,0,116,
scooby_state_40f8cc|23|-40 0,7,4,4,3,3,5,3,4,4,6,9,7,6,51,116,
scooby_state_40f8cc|19|-44 9,8,3,7,7,8,8,8,7,8,7,7,9,6,12,114,
scooby_state_40f89a|28|0 108,0,0,0,0,0,1,1,0,0,1,0,0,1,2,114,
scooby_state_40f8cc|15|-48 10,35,24,3,4,4,6,4,7,6,4,2,3,2,0,114,
scooby_state_40f89a|41|0 107,1,0,1,0,1,0,0,0,0,1,0,1,0,2,114,
scooby_state_40f89a|56|0 108,0,0,0,0,0,0,1,0,0,1,1,0,1,1,113,
scooby_state_40f89a|34|0 105,0,1,2,0,1,2,1,0,0,0,1,0,0,0,113,
scooby_state_40f8cc|34|-29 55,21,3,2,2,1,0,0,0,1,1,2,2,2,21,113,
scooby_state_40f8cc|48|-15 6,105,0,0,0,0,0,0,0,1,0,0,0,0,0,112,
scooby_state_40f89a|52|0 98,2,1,1,0,0,1,1,1,3,1,1,1,0,1,112,
scooby_state_40f89a|49|0 101,0,3,0,0,1,0,1,0,1,0,2,1,1,1,112,
scooby_state_40f8cc|9|-54 0,3,15,8,7,7,10,7,8,6,7,1,8,7,18,112,
scooby_state_40f8cc|49|-14 97,14,0,0,0,0,0,0,0,0,0,0,0,0,0,111,
scooby_state_40f89a|8|0 105,0,2,0,1,0,0,0,0,0,1,0,0,0,2,111,
scooby_state_40f89a|11|0 108,0,0,0,0,0,0,0,1,0,0,0,0,1,1,111,
scooby_state_40f89a|37|0 104,0,1,2,1,0,0,0,1,0,0,0,0,0,0,109,
scooby_state_40f89a|24|0 103,1,0,3,1,0,0,0,0,0,0,0,0,0,1,109,
scooby_state_40f89a|32|0 100,1,0,1,0,0,0,0,2,0,0,2,0,2,1,109,
scooby_state_40f89a|35|0 101,1,0,2,0,0,0,1,1,0,1,0,0,2,0,109,
scooby_state_40f89a|14|0 104,0,0,1,0,0,0,1,1,0,1,0,1,0,0,109,
scooby_state_40f8cc|26|-37 0,3,1,6,7,7,8,4,6,7,5,11,6,7,31,109,
scooby_state_40f89a|46|0 96,1,1,0,0,2,1,1,0,0,1,2,0,1,2,108,
scooby_state_40f89a|19|0 98,1,1,1,0,1,0,0,0,1,0,0,0,3,2,108,
scooby_state_40f8cc|51|-12 75,33,0,0,0,0,0,0,0,0,0,0,0,0,0,108,
scooby_state_40f8cc|45|-18 1,1,36,7,6,6,7,4,4,5,4,7,6,6,7,107,
scooby_state_40f8cc|13|-50 0,0,2,7,8,6,8,11,6,6,6,6,7,8,26,107,
scooby_state_a4c443|12|0 89,3,0,0,0,2,2,0,1,1,0,1,2,2,4,107,
scooby_state_a4c443|10|0 89,1,2,3,2,3,3,1,1,1,0,0,0,0,1,107,
scooby_state_40f89a|55|0 99,1,1,0,1,0,0,1,1,0,0,0,1,0,2,107,
scooby_state_a4c443|56|0 99,1,1,0,1,0,0,0,0,2,0,0,1,1,0,106,
scooby_state_40f8cc|41|-22 0,7,0,7,7,8,8,9,5,5,6,7,7,8,22,106,
scooby_state_40f89a|18|0 96,3,1,0,0,1,1,0,0,1,0,0,0,0,3,106,
scooby_state_a5266d|1|0 73,1,2,1,0,1,3,0,0,1,0,18,1,1,3,105,
scooby_state_40f89a|12|0 99,0,0,1,0,0,1,0,0,1,1,1,1,0,0,105,
scooby_state_40f89a|63|0 97,2,1,1,0,1,0,0,0,1,0,0,0,0,2,105,
scooby_state_40f89a|54|0 95,1,1,0,1,0,0,1,0,0,0,2,1,0,2,104,
scooby_state_40f8cc|6|-57 0,0,0,0,1,0,0,0,0,0,0,103,0,0,0,104,
scooby_state_40f8cc|1|-62 36,4,10,4,5,6,5,4,8,6,4,0,4,6,2,104,
scooby_state_40f8cc|28|-35 10,0,54,2,11,3,3,2,3,3,3,1,3,3,3,104,
scooby_state_40f8cc|53|-10 10,11,3,7,7,4,5,5,5,5,5,8,9,8,12,104,
scooby_state_40f89a|53|0 100,0,0,0,0,0,1,0,1,0,0,0,0,0,2,104,
scooby_state_40f8cc|32|-31 6,9,6,7,6,6,7,6,7,6,5,6,7,6,13,103,
scooby_state_40f89a|6|0 98,1,1,0,0,1,1,1,0,0,0,0,0,0,0,103,
scooby_state_a4c443|11|0 94,1,0,1,0,0,2,0,1,1,1,1,0,0,1,103,
scooby_state_a52672|0|0 70,5,2,2,2,0,2,1,4,2,3,1,4,2,3,103,
scooby_state_a4c443|62|0 78,1,1,3,1,3,3,3,3,1,2,3,1,0,0,103,
scooby_state_40f8cc|61|-2 0,0,0,0,0,0,1,0,0,0,0,101,0,0,0,102,
scooby_state_40f89a|44|0 95,1,0,0,0,0,1,1,2,0,1,0,1,0,0,102,
scooby_state_40f89a|26|0 90,2,0,0,0,2,2,1,2,0,1,0,0,0,2,102,
scooby_state_40f8cc|29|-34 0,101,0,0,0,0,0,0,0,0,0,0,0,0,0,101,
scooby_state_40f89a|5|0 90,3,1,0,1,0,2,1,0,0,0,1,2,0,0,101,
scooby_state_40f8cc|36|-27 37,20,2,3,4,4,3,4,3,2,2,4,3,4,6,101,
scooby_state_40f8cc|3|-60 27,1,1,6,5,4,5,5,5,4,5,6,6,4,17,101,
scooby_state_40f8cc|4|-59 47,3,2,0,0,2,1,1,2,6,6,0,9,7,14,100,
scooby_state_a4c443|2|0 85,0,0,1,0,1,1,1,1,2,1,1,1,1,4,100,
scooby_state_a5266d|2|0 65,5,2,0,0,0,2,0,0,1,0,21,0,1,3,100,
scooby_state_40f8cc|54|-9 0,0,0,0,0,0,0,0,0,0,0,99,0,0,0,99,
scooby_state_40f8cc|31|-32 48,50,0,0,0,0,0,0,1,0,0,0,0,0,0,99,
scooby_state_40f89a|21|0 94,0,1,1,0,0,1,0,0,0,0,0,1,1,0,99,
scooby_state_40f8cc|35|-28 12,87,0,0,0,0,0,0,0,0,0,0,0,0,0,99,
scooby_state_40f89a|25|0 90,0,0,0,0,0,0,1,0,1,0,1,1,2,2,98,
scooby_state_40f8cc|17|-46 84,0,14,0,0,0,0,0,0,0,0,0,0,0,0,98,
scooby_state_a4c443|22|0 83,3,2,1,2,1,0,1,1,1,1,0,1,0,1,98,
scooby_state_40f89a|30|0 90,3,2,1,0,0,0,0,1,0,0,0,0,0,1,98,
scooby_state_40f89a|29|0 89,2,1,0,0,1,1,0,1,1,0,0,1,1,0,98,
scooby_state_40f89a|17|0 94,2,0,0,0,0,0,0,0,0,1,0,0,0,0,97,
scooby_state_40f89a|40|0 95,0,0,0,1,0,0,0,0,0,0,0,0,0,1,97,
scooby_state_40f8cc|12|-51 0,1,0,0,0,1,0,0,0,0,0,94,0,0,0,96,
scooby_state_40f89a|27|0 88,0,0,0,0,1,2,0,0,1,0,1,1,0,2,96,
scooby_state_40f8cc|8|-55 2,1,9,8,6,7,6,10,7,8,8,0,8,7,9,96,
scooby_state_40f8cc|21|-42 7,0,1,5,5,7,6,6,6,6,5,5,6,6,25,96,
scooby_state_40f8cc|43|-20 13,21,21,2,3,3,3,2,2,3,2,3,2,4,11,95,
scooby_state_a4c443|32|0 87,1,0,0,2,0,0,0,0,0,0,2,0,2,1,95,
scooby_state_40f7b0|0|0 0,0,95,0,0,0,0,0,0,0,0,0,0,0,0,95,
scooby_state_40f8cc|33|-30 4,1,61,2,2,2,2,3,2,2,2,6,2,2,2,95,
scooby_state_40f8cc|42|-21 32,0,1,0,1,0,0,0,0,0,0,61,0,0,0,95,
scooby_state_40f8cc|59|-4 0,94,0,0,0,0,0,0,0,0,0,0,0,0,0,94,
scooby_state_a4c443|5|0 74,2,0,1,3,1,1,1,1,1,2,2,2,1,2,94,
scooby_state_40f89a|20|0 90,1,0,0,0,0,1,0,0,1,0,0,0,0,0,93,
scooby_state_a52672|1|0 68,0,2,3,3,2,3,2,3,0,0,0,0,0,7,93,
scooby_state_40f8cc|50|-13 66,27,0,0,0,0,0,0,0,0,0,0,0,0,0,93,
scooby_state_a4c443|18|0 81,0,2,0,0,0,1,1,2,0,0,0,2,2,2,93,
scooby_state_40f8cc|46|-17 18,3,10,5,6,6,7,4,5,5,5,6,5,6,2,93,
scooby_state_40f89a|45|0 85,1,1,2,0,0,1,0,0,0,1,0,0,0,1,92,
scooby_state_a4c443|6|0 82,1,1,0,0,0,0,1,0,1,1,2,1,0,2,92,
scooby_state_40f8cc|14|-49 0,1,1,2,0,2,2,3,5,8,10,12,12,12,22,92,
scooby_state_40f8cc|22|-41 4,7,13,4,5,7,3,5,5,5,3,7,7,6,11,92,
scooby_state_40f8cc|39|-24 1,4,5,4,6,5,6,5,6,5,5,4,6,5,24,91,
scooby_state_a4c443|17|0 77,3,3,1,1,1,0,0,0,0,0,1,1,1,2,91,
scooby_state_40f8cc|11|-52 61,18,6,0,2,1,0,0,1,0,1,0,0,1,0,91,
scooby_state_40f89a|23|0 82,1,0,0,1,0,0,0,1,1,1,1,0,0,2,90,
scooby_state_40f8cc|30|-33 12,5,10,3,5,5,4,4,4,3,4,4,4,4,19,90,
scooby_state_40f8cc|37|-26 71,0,19,0,0,0,0,0,0,0,0,0,0,0,0,90,
scooby_state_40f7b0|1|0 0,0,89,0,0,0,0,0,0,0,0,0,0,0,0,89,
scooby_state_40f7b9|45|1 0,88,0,0,0,0,0,0,0,1,0,0,0,0,0,89,
scooby_state_40f8cc|47|-16 68,16,3,0,0,0,0,0,0,0,0,0,0,0,1,88,
scooby_state_40f8cc|62|-1 67,0,16,0,0,2,0,0,1,0,1,0,0,1,0,88,
scooby_state_40f89a|16|0 81,0,1,1,1,2,1,1,0,0,0,0,0,0,0,88,
scooby_state_40f8cc|38|-25 1,15,9,6,4,7,6,6,7,4,4,6,5,6,2,88,
scooby_state_40f8cc|20|-43 0,14,4,7,7,8,5,6,5,7,5,3,5,6,6,88,
scooby_state_a5266d|14|0 53,1,0,0,2,0,0,0,2,0,0,28,0,0,2,88,
scooby_state_40f8cc|56|-7 8,9,0,6,3,3,5,2,3,4,2,0,7,7,29,88,
scooby_state_40f89a|10|0 82,1,1,0,0,1,0,0,0,0,0,1,2,0,0,88,
scooby_state_a52672|2|0 61,3,1,1,4,3,1,0,4,1,1,4,0,1,2,87,
scooby_state_a4c443|3|0 81,4,0,0,0,0,0,0,0,0,0,0,0,2,0,87,
scooby_state_40f8cc|55|-8 0,87,0,0,0,0,0,0,0,0,0,0,0,0,0,87,
scooby_state_40f8cc|57|-6 85,0,1,0,0,0,0,0,0,0,0,0,0,0,0,86,
scooby_state_40f89a|7|0 81,0,0,1,1,0,1,0,0,0,1,0,0,1,0,86,
scooby_state_40f8cc|25|-38 0,8,11,6,8,6,6,6,7,8,5,0,6,7,1,85,
scooby_state_a4c443|8|0 71,0,2,3,1,3,1,1,1,1,1,0,0,0,0,85,
scooby_state_40f8cc|16|-47 76,9,0,0,0,0,0,0,0,0,0,0,0,0,0,85,
scooby_state_40f8cc|10|-53 80,0,0,0,0,0,0,1,0,1,1,1,0,0,1,85,
scooby_state_40f89a|3|0 81,0,0,0,0,0,0,3,0,0,0,0,0,0,0,84,
scooby_state_40f8cc|40|-23 0,0,0,0,0,0,0,0,0,0,0,83,0,0,0,83,
scooby_state_a4c443|4|0 75,1,1,0,0,0,0,1,0,0,0,1,1,0,3,83,
scooby_state_40f7cb|59|1 0,83,0,0,0,0,0,0,0,0,0,0,0,0,0,83,
scooby_state_40f89a|9|0 82,1,0,0,0,0,0,0,0,0,0,0,0,0,0,83,
scooby_state_40f8cc|24|-39 27,4,2,4,5,4,4,5,3,4,4,0,4,4,8,82,
scooby_state_40f89a|36|0 76,0,0,0,1,1,0,1,0,1,0,1,1,0,0,82,
scooby_state_40f8cc|52|-11 6,44,31,0,0,0,1,0,0,0,0,0,0,0,0,82,
scooby_state_40f7cb|39|1 0,81,0,0,0,0,0,0,0,0,0,0,0,0,0,81,
scooby_state_a4c443|9|0 72,0,0,1,0,1,0,1,0,0,1,1,1,1,2,81,
scooby_state_40f8cc|2|-61 75,6,0,0,0,0,0,0,0,0,0,0,0,0,0,81,
scooby_state_a4c443|24|0 75,1,0,0,0,0,1,0,0,1,0,1,1,0,0,80,
scooby_state_40f7cb|0|0 0,80,0,0,0,0,0,0,0,0,0,0,0,0,0,80,
scooby_state_40f7b9|43|0 0,79,0,0,0,1,0,0,0,0,0,0,0,0,0,80,
scooby_state_40f8cc|7|-56 57,21,0,0,0,0,0,0,0,0,0,0,0,1,0,79,
scooby_state_a4c443|59|0 64,2,3,0,1,1,1,1,1,0,1,1,1,1,1,79,
scooby_state_a4c443|61|0 73,1,0,1,1,0,1,0,0,0,0,0,0,0,1,78,
scooby_state_a5266d|19|0 41,0,2,0,1,1,0,1,1,0,3,24,1,2,1,78,
scooby_state_40f8cc|18|-45 2,5,3,6,5,5,6,6,5,4,4,6,5,3,13,78,
scooby_state_40f8cc|44|-19 0,10,0,6,7,5,7,4,4,4,3,8,5,7,7,77,
scooby_state_a52672|4|0 52,1,1,2,2,2,2,1,0,2,0,2,4,1,5,77,
scooby_state_40f8cc|63|0 13,3,3,4,4,4,3,4,1,5,3,4,2,1,22,76,
scooby_state_a4c443|55|0 71,1,1,0,0,0,0,1,0,0,0,1,0,0,1,76,
scooby_state_40f7cb|6|1 0,75,0,0,0,0,0,0,0,0,0,0,0,0,0,75,
scooby_state_a5266d|20|0 45,2,1,0,1,1,0,0,1,2,0,18,3,0,1,75,
scooby_state_40f7cb|8|1 0,74,0,0,0,0,0,0,0,1,0,0,0,0,0,75,
scooby_state_40f8cc|58|-5 2,3,9,4,3,4,3,4,4,4,5,4,4,4,17,74,
scooby_state_a52672|12|0 49,0,0,1,0,1,1,3,4,3,0,3,1,0,8,74,
scooby_state_a5266d|17|0 48,1,1,1,1,0,0,0,0,1,1,17,1,1,1,74,
scooby_state_40f7cb|60|1 0,74,0,0,0,0,0,0,0,0,0,0,0,0,0,74,
scooby_state_a4c443|58|0 63,0,1,1,2,0,1,1,0,1,2,0,0,0,1,73,
scooby_state_40f8cc|5|-58 50,10,0,2,1,2,1,2,1,1,1,0,1,1,0,73,
scooby_state_a5266d|53|0 43,0,3,0,0,0,1,1,0,0,0,24,1,0,0,73,
scooby_state_a4c443|50|0 66,0,0,1,1,1,0,0,0,0,1,0,0,1,1,72,
scooby_state_a4c443|31|0 63,0,0,0,0,0,0,2,0,1,1,0,1,2,2,72,
scooby_state_a4c443|40|0 69,0,0,0,0,0,0,1,0,0,0,1,1,0,0,72,
scooby_state_40f7cb|1|1 0,72,0,0,0,0,0,0,0,0,0,0,0,0,0,72,
scooby_state_a5266d|6|0 50,0,2,0,1,0,1,0,0,0,1,14,0,0,2,71,
scooby_state_a5266d|39|0 47,0,2,0,1,1,1,2,0,3,1,9,0,1,3,71,
scooby_state_a4c443|38|0 68,0,0,1,0,0,1,0,0,0,0,0,1,0,0,71,
scooby_state_a4c443|63|0 61,2,1,0,1,0,1,1,0,0,0,0,2,0,2,71,
scooby_state_a4c443|30|0 66,0,1,1,0,1,0,0,0,1,0,0,0,0,0,70,
scooby_state_40f7cb|10|1 0,70,0,0,0,0,0,0,0,0,0,0,0,0,0,70,
scooby_state_a52672|3|0 49,2,1,1,0,3,1,1,4,0,1,1,1,0,5,70,
scooby_state_a5266d|15|0 43,1,0,0,0,0,0,0,0,1,1,18,4,1,0,69,
scooby_state_40f7b0|2|0 0,0,69,0,0,0,0,0,0,0,0,0,0,0,0,69,
scooby_state_40f7cb|61|1 0,69,0,0,0,0,0,0,0,0,0,0,0,0,0,69,
scooby_state_a4c443|7|0 62,3,0,0,1,1,1,1,0,0,0,0,0,0,0,69,
scooby_state_a4c443|21|0 66,0,0,0,0,0,0,0,1,0,0,0,0,1,1,69,
scooby_state_a4c443|36|0 66,0,0,0,0,0,0,0,0,0,1,1,0,0,0,68,
scooby_state_a5266d|28|0 39,0,2,3,1,0,1,2,0,1,2,14,1,0,2,68,
scooby_state_a4c443|27|0 65,0,0,1,0,0,0,0,0,0,0,1,0,0,0,67,
scooby_state_a5266d|18|0 39,0,0,0,1,0,0,1,0,0,0,24,1,0,1,67,
scooby_state_40f7cb|27|1 0,66,0,0,0,0,0,0,0,1,0,0,0,0,0,67,
scooby_state_40f7cb|54|1 0,67,0,0,0,0,0,0,0,0,0,0,0,0,0,67,
scooby_state_40f7cb|5|1 0,67,0,0,0,0,0,0,0,0,0,0,0,0,0,67,
scooby_state_40f7cb|45|1 0,65,0,0,0,0,0,0,0,0,0,0,0,0,0,65,
scooby_state_a4c443|23|0 55,0,0,2,1,2,2,1,0,1,0,0,0,0,1,65,
scooby_state_40f7cb|12|1 0,65,0,0,0,0,0,0,0,0,0,0,0,0,0,65,
scooby_state_40f7cb|58|1 0,65,0,0,0,0,0,0,0,0,0,0,0,0,0,65,
scooby_state_40f7cb|14|1 0,65,0,0,0,0,0,0,0,0,0,0,0,0,0,65,
scooby_state_a5266d|52|0 37,1,3,0,0,1,0,0,1,1,0,20,0,1,0,65,
scooby_state_40f7cb|20|1 0,64,0,0,0,0,0,0,0,0,0,0,0,0,0,64,
scooby_state_40f7cb|11|1 1,63,0,0,0,0,0,0,0,0,0,0,0,0,0,64,
scooby_state_a5266d|21|0 42,0,1,1,0,0,1,0,1,0,0,15,0,2,1,64,
scooby_state_a5266d|13|0 35,0,3,0,1,0,0,1,1,0,1,19,2,0,1,64,
scooby_state_a4c443|16|0 58,0,0,0,0,0,0,0,1,0,0,2,1,1,1,64,
scooby_state_a5266d|34|0 40,1,2,0,0,1,1,2,2,0,0,15,0,0,0,64,
scooby_state_40f7cb|17|1 0,64,0,0,0,0,0,0,0,0,0,0,0,0,0,64,
scooby_state_40f7cb|4|1 0,63,0,0,0,0,0,0,0,0,0,0,0,0,0,63,
scooby_state_40f7cb|55|1 0,63,0,0,0,0,0,0,0,0,0,0,0,0,0,63,
scooby_state_a4c443|33|0 55,1,0,1,0,0,0,1,0,0,0,1,1,1,2,63,
scooby_state_40f7cb|53|1 0,63,0,0,0,0,0,0,0,0,0,0,0,0,0,63,
scooby_state_a5266d|41|0 36,0,2,2,1,1,1,0,1,1,0,17,0,0,1,63,
scooby_state_a5266d|40|0 35,2,2,0,0,1,0,0,1,0,1,18,1,1,1,63,
scooby_state_a4c443|53|0 60,0,0,0,0,0,0,1,0,0,0,1,0,0,1,63,
scooby_state_40f7cb|21|1 1,61,0,0,0,0,0,0,0,0,0,0,0,0,0,62,
scooby_state_a5266d|7|0 41,1,2,2,0,1,0,1,1,1,0,10,0,2,0,62,
scooby_state_a5266d|8|0 39,0,1,1,2,0,0,0,2,0,0,13,2,0,2,62,
scooby_state_40f7cb|56|1 0,62,0,0,0,0,0,0,0,0,0,0,0,0,0,62,
scooby_state_40f7cb|57|1 0,62,0,0,0,0,0,0,0,0,0,0,0,0,0,62,
scooby_state_40f7cb|33|1 0,61,0,0,0,0,0,0,0,0,0,0,0,0,0,61,
scooby_state_a4c443|44|0 57,0,0,0,0,0,0,0,0,0,1,0,1,0,2,61,
scooby_state_a5266d|38|0 44,0,1,0,1,1,0,0,0,0,0,11,1,0,2,61,
scooby_state_a4c443|60|0 53,1,0,1,1,1,0,0,0,1,0,0,0,1,2,61,
scooby_state_40f7cb|3|1 0,61,0,0,0,0,0,0,0,0,0,0,0,0,0,61,
scooby_state_a5266d|29|0 35,2,5,0,0,1,0,2,2,1,1,9,0,0,3,61,
scooby_state_a52672|25|0 40,2,2,2,3,0,2,1,0,0,3,0,2,1,3,61,
scooby_state_a5266d|18|1 45,1,1,3,1,1,1,0,0,1,0,0,1,1,4,60,
scooby_state_40f7cb|26|1 0,60,0,0,0,0,0,0,0,0,0,0,0,0,0,60,
scooby_state_a5266d|4|0 37,0,3,1,0,1,0,1,0,0,0,16,0,0,1,60,
scooby_state_40f7cb|23|1 0,60,0,0,0,0,0,0,0,0,0,0,0,0,0,60,
scooby_state_40f7cb|2|1 0,59,0,0,0,0,0,1,0,0,0,0,0,0,0,60,
scooby_state_40f7cb|22|1 0,60,0,0,0,0,0,0,0,0,0,0,0,0,0,60,
scooby_state_40f7b9|45|0 1,58,0,0,0,0,0,0,0,0,0,0,0,0,0,59,
scooby_state_a4c443|19|0 59,0,0,0,0,0,0,0,0,0,0,0,0,0,0,59,
scooby_state_40f7cb|15|1 0,59,0,0,0,0,0,0,0,0,0,0,0,0,0,59,
scooby_state_a5266d|11|0 35,1,1,1,0,0,3,0,1,1,2,12,0,0,1,58,
scooby_state_40f7cb|52|1 0,58,0,0,0,0,0,0,0,0,0,0,0,0,0,58,
scooby_state_40f7cb|19|1 0,58,0,0,0,0,0,0,0,0,0,0,0,0,0,58,
scooby_state_a5266d|5|0 33,0,0,1,2,0,1,1,0,1,0,17,1,0,0,57,
scooby_state_a4c443|20|0 49,0,1,0,1,0,0,0,0,2,1,0,1,1,1,57,
scooby_state_40f7cb|38|1 0,57,0,0,0,0,0,0,0,0,0,0,0,0,0,57,
scooby_state_a52672|9|0 41,1,0,1,2,0,0,3,0,1,3,2,2,0,1,57,
scooby_state_a5266d|33|0 37,0,0,2,2,3,1,0,1,0,1,9,0,1,0,57,
scooby_state_a4c443|28|0 54,0,0,0,0,0,1,0,0,0,1,1,0,0,0,57,
scooby_state_a5266d|36|0 41,0,0,0,1,0,1,0,1,0,1,10,1,1,0,57,
scooby_state_40f7cb|50|1 0,56,0,0,0,0,0,0,0,0,0,0,0,0,0,56,
scooby_state_a5266d|27|0 37,0,1,0,0,1,0,0,0,0,0,15,0,1,1,56,
scooby_state_40f7cb|42|1 0,56,0,0,0,0,0,0,0,0,0,0,0,0,0,56,
scooby_state_40f7cb|30|1 0,56,0,0,0,0,0,0,0,0,0,0,0,0,0,56,
scooby_state_a4c443|47|0 50,1,0,0,0,1,0,0,1,0,2,0,1,0,0,56,
scooby_state_a5266d|61|0 35,0,3,0,0,0,0,0,0,0,0,18,0,0,0,56,
scooby_state_40f7cb|36|1 1,55,0,0,0,0,0,0,0,0,0,0,0,0,0,56,
scooby_state_40f7cb|48|1 0,56,0,0,0,0,0,0,0,0,0,0,0,0,0,56,
scooby_state_a4c443|15|0 48,1,0,0,0,0,0,1,1,1,1,1,1,0,1,56,
scooby_state_40f7cb|46|1 0,56,0,0,0,0,0,0,0,0,0,0,0,0,0,56,
scooby_state_a5266d|37|0 41,0,1,0,0,0,1,0,0,0,2,8,0,0,3,56,
scooby_state_40f7cb|62|1 0,56,0,0,0,0,0,0,0,0,0,0,0,0,0,56,
scooby_state_40f7cb|47|1 0,54,1,0,0,0,0,0,0,0,0,0,0,0,0,55,
scooby_state_a52672|32|0 36,2,1,0,1,1,1,1,2,1,1,4,1,1,2,55,
scooby_state_40f7cb|29|1 0,55,0,0,0,0,0,0,0,0,0,0,0,0,0,55,
scooby_state_a4c443|34|0 51,3,0,0,0,0,0,0,0,1,0,0,0,0,0,55,
scooby_state_a4c443|26|0 50,1,0,0,1,1,0,0,1,0,0,0,0,1,0,55,
scooby_state_a5266d|16|0 31,0,0,1,0,1,1,1,1,2,0,15,1,0,1,55,
scooby_state_40f7cb|49|1 0,55,0,0,0,0,0,0,0,0,0,0,0,0,0,55,
scooby_state_a52672|19|0 31,2,2,0,2,2,2,1,0,5,3,0,2,2,1,55,
scooby_state_a5266d|63|0 37,0,1,0,0,0,0,0,0,0,1,14,0,0,1,54,
scooby_state_a52672|8|0 37,2,0,0,1,1,1,2,0,1,3,2,0,1,3,54,
scooby_state_a4c443|46|0 50,0,0,0,0,0,0,0,2,0,0,1,1,0,0,54,
scooby_state_a4c443|13|0 49,2,1,1,0,0,0,0,0,0,0,0,0,1,0,54,
scooby_state_a5266d|10|0 34,0,3,0,1,1,0,0,0,1,0,14,0,0,0,54,
scooby_state_a5266d|25|0 40,0,2,1,1,1,0,0,0,1,0,7,0,0,1,54,
scooby_state_a4c443|49|0 47,1,1,1,1,0,0,0,0,0,1,0,1,0,0,53,
scooby_state_a5266d|30|0 31,0,1,2,1,1,0,1,0,0,0,13,1,0,2,53,
scooby_state_40f7cb|16|1 0,53,0,0,0,0,0,0,0,0,0,0,0,0,0,53,
scooby_state_40f7cb|7|1 0,53,0,0,0,0,0,0,0,0,0,0,0,0,0,53,
scooby_state_a5266d|60|0 38,1,0,0,0,1,0,1,0,0,0,11,0,1,0,53,
scooby_state_a5266d|9|0 31,1,2,0,0,0,0,1,0,0,0,17,0,1,0,53,
scooby_state_a4c443|57|0 44,1,1,1,0,0,0,0,1,0,0,1,1,0,2,52,
scooby_state_a5266d|48|0 37,0,0,0,0,1,0,1,1,0,0,12,0,0,0,52,
scooby_state_40f7cb|31|1 0,52,0,0,0,0,0,0,0,0,0,0,0,0,0,52,
scooby_state_40f7cb|34|1 0,51,0,0,0,0,0,0,0,0,0,0,0,0,0,51,
scooby_state_40f7b0|4|0 0,0,51,0,0,0,0,0,0,0,0,0,0,0,0,51,
scooby_state_40f7cb|25|1 0,51,0,0,0,0,0,0,0,0,0,0,0,0,0,51,
scooby_state_a4c443|35|0 45,0,1,0,0,0,0,0,0,1,1,0,0,2,1,51,
scooby_state_40f7cb|51|1 0,50,0,0,0,0,0,0,0,0,1,0,0,0,0,51,
scooby_state_a5266d|12|0 34,1,1,0,0,0,0,0,0,0,2,10,0,3,0,51,
scooby_state_a4c443|41|0 42,1,0,0,0,1,1,1,1,0,1,2,1,0,0,51,
scooby_state_a4c443|45|0 46,0,0,0,0,0,0,1,1,1,0,0,1,0,1,51,
scooby_state_a5266d|42|0 28,0,1,1,0,0,1,0,0,1,2,15,1,0,0,50,
scooby_state_a4c443|42|0 50,0,0,0,0,0,0,0,0,0,0,0,0,0,0,50,
scooby_state_a4c443|14|0 40,0,0,0,2,1,3,2,1,0,0,1,0,0,0,50,
scooby_state_a5266d|43|0 32,1,0,0,1,1,0,1,1,0,0,11,0,0,2,50,
scooby_state_a4c443|43|0 48,0,0,0,0,0,0,0,1,0,1,0,0,0,0,50,
scooby_state_a5266d|17|1 37,4,1,0,0,1,0,2,0,0,0,1,2,1,0,49,
scooby_state_40f7cb|9|1 0,49,0,0,0,0,0,0,0,0,0,0,0,0,0,49,
scooby_state_40f7cb|44|1 0,49,0,0,0,0,0,0,0,0,0,0,0,0,0,49,
scooby_state_a52672|5|0 33,2,0,2,0,2,1,2,0,0,2,0,0,1,4,49,
scooby_state_a52672|7|0 37,0,0,1,1,1,2,1,2,0,0,0,0,1,2,48,
scooby_state_a52672|10|0 33,1,0,1,1,0,3,0,1,0,2,1,0,4,1,48,
scooby_state_a4c443|29|0 44,1,1,0,1,0,0,0,0,0,0,1,0,0,0,48,
scooby_state_a52672|27|0 33,2,0,0,1,3,1,1,1,1,1,2,1,1,0,48,
scooby_state_a5266d|54|0 27,1,2,0,1,1,0,1,1,0,0,12,1,0,0,47,
scooby_state_a4c443|37|0 42,1,1,0,0,0,0,0,0,0,0,0,1,1,1,47,
scooby_state_a5266d|62|0 34,0,1,1,0,0,0,0,0,0,0,11,0,0,0,47,
scooby_state_a5266d|50|0 32,0,2,1,0,1,0,0,0,2,0,8,1,0,0,47,
scooby_state_a5266d|54|1 33,8,0,0,0,1,1,0,0,1,0,2,0,1,0,47,
scooby_state_40f7cb|37|1 0,47,0,0,0,0,0,0,0,0,0,0,0,0,0,47,
scooby_state_a5266d|13|1 34,2,2,0,0,0,1,0,1,0,0,4,0,1,2,47,
scooby_state_40f7cb|18|1 0,46,0,0,0,1,0,0,0,0,0,0,0,0,0,47,
scooby_state_a5266d|22|0 33,0,1,0,0,0,1,0,0,0,0,11,0,0,0,46,
scooby_state_a52672|18|0 30,0,1,1,2,1,0,0,1,1,1,1,1,4,2,46,
scooby_state_a52672|15|0 33,2,0,0,1,0,0,1,1,0,1,1,0,2,4,46,
scooby_state_40f7cb|40|1 0,46,0,0,0,0,0,0,0,0,0,0,0,0,0,46,
scooby_state_a5266d|41|1 28,6,0,0,1,2,0,1,3,3,0,2,0,0,0,46,
scooby_state_40f7cb|63|0 0,46,0,0,0,0,0,0,0,0,0,0,0,0,0,46,
scooby_state_a5266d|59|0 30,0,2,0,0,2,0,0,0,0,1,7,2,1,1,46,
scooby_state_a52672|11|0 36,0,0,0,1,0,0,1,0,1,0,2,0,0,4,45,
scooby_state_a5266d|8|1 31,5,1,0,0,1,0,1,1,1,2,0,0,1,1,45,
scooby_state_40f7cb|28|1 0,45,0,0,0,0,0,0,0,0,0,0,0,0,0,45,
scooby_state_40f7cb|24|1 0,45,0,0,0,0,0,0,0,0,0,0,0,0,0,45,
scooby_state_a5266d|24|0 30,1,2,0,0,0,1,0,0,1,0,9,0,0,0,44,
scooby_state_a5266d|7|1 31,5,1,1,0,0,1,1,0,0,0,1,0,2,1,44,
scooby_state_a52672|17|0 34,1,0,1,1,0,0,0,2,0,0,3,0,0,2,44,
scooby_state_40f7cb|32|1 0,44,0,0,0,0,0,0,0,0,0,0,0,0,0,44,
scooby_state_a4c443|25|0 40,2,0,0,0,0,1,0,0,0,0,0,0,0,1,44,
scooby_state_a5266d|21|1 32,4,0,0,1,1,1,0,2,0,1,0,2,0,0,44,
scooby_state_a52672|6|0 30,1,0,1,1,1,1,1,1,0,2,1,0,0,4,44,
scooby_state_a5266d|14|1 32,7,0,1,0,0,1,0,0,0,1,1,0,0,1,44,
scooby_state_a52672|14|0 30,0,1,0,0,0,2,2,0,0,0,0,0,2,6,43,
scooby_state_40f7cb|35|1 0,43,0,0,0,0,0,0,0,0,0,0,0,0,0,43,
scooby_state_a5266d|26|0 30,1,1,1,0,0,0,0,0,0,0,10,0,0,0,43,
scooby_state_a5266d|33|1 31,3,0,0,1,1,0,2,1,0,0,0,0,0,4,43,
scooby_state_a5266d|23|0 27,0,0,1,0,0,0,1,0,0,0,12,0,1,1,43,
scooby_state_40f7cb|43|1 0,42,0,0,0,0,0,0,0,0,0,0,0,0,0,42,
scooby_state_a5266d|35|0 31,0,2,0,0,0,0,0,0,1,1,7,0,0,0,42,
scooby_state_a5266d|31|0 26,0,3,1,0,0,0,0,1,1,1,6,0,2,1,42,
scooby_state_a5266d|25|1 28,0,3,1,2,0,1,0,1,1,1,0,0,3,1,42,
scooby_state_a5266d|24|1 28,4,1,0,1,1,0,1,1,0,1,1,1,1,1,42,
scooby_state_a4c443|52|0 37,0,0,0,1,0,0,0,1,1,1,0,0,0,1,42,
scooby_state_a5266d|51|0 31,0,0,0,0,0,0,0,1,0,0,9,0,0,1,42,
scooby_state_a5266d|26|1 31,2,0,1,0,0,0,1,1,1,0,0,2,2,1,42,
scooby_state_a52672|21|0 29,1,0,1,0,1,1,1,0,0,3,0,2,0,2,41,
scooby_state_40f7cb|13|1 0,41,0,0,0,0,0,0,0,0,0,0,0,0,0,41,
scooby_state_a52672|26|0 30,2,0,1,0,1,2,0,0,0,0,1,2,0,2,41,
scooby_state_a4c443|1|1 33,0,1,1,0,0,1,0,1,1,1,0,0,2,0,41,
scooby_state_a5266d|23|1 28,4,2,1,0,1,1,1,0,2,0,0,0,0,1,41,
scooby_state_a5266d|3|0 23,1,0,1,0,0,0,1,0,0,0,13,0,0,1,40,
scooby_state_a5266d|53|1 24,7,1,0,0,2,1,2,0,0,1,0,0,1,1,40,
scooby_state_a4c443|62|1 31,1,0,2,0,1,0,1,0,3,0,0,1,0,0,40,
scooby_state_40f8cc|0|0 13,0,1,1,0,1,3,1,0,0,1,5,0,1,13,40,
scooby_state_a4c443|13|1 29,4,1,1,1,0,1,0,0,0,0,1,1,1,0,40,
scooby_state_a52672|20|0 22,2,2,1,0,0,1,0,1,2,1,1,1,1,5,40,
scooby_state_a5266d|19|1 28,4,0,1,1,1,0,0,0,0,1,2,0,0,2,40,
scooby_state_a5266d|59|1 30,2,0,0,1,0,2,0,1,1,0,0,1,0,1,39,
scooby_state_a4c443|50|1 32,1,0,0,0,0,0,1,2,0,0,2,1,0,0,39,
scooby_state_40f7b0|5|0 0,0,39,0,0,0,0,0,0,0,0,0,0,0,0,39,
scooby_state_a5266d|34|1 25,4,3,0,0,1,0,0,0,1,0,3,1,1,0,39,
scooby_state_a5266d|20|1 29,3,1,1,0,1,0,0,0,2,0,1,0,0,1,39,
scooby_state_40f7b0|15|0 0,0,39,0,0,0,0,0,0,0,0,0,0,0,0,39,
scooby_state_a52672|30|0 26,1,0,1,0,1,0,0,1,1,2,1,0,0,5,39,
scooby_state_a5266d|44|0 23,0,1,0,1,0,1,0,0,0,0,13,0,0,0,39,
scooby_state_a5266d|15|1 28,5,0,2,0,0,1,0,0,0,0,1,0,0,2,39,
scooby_state_a4c443|51|1 30,2,2,0,0,0,0,0,0,1,0,0,0,0,3,38,
scooby_state_a4c443|48|0 33,0,2,0,0,0,0,0,0,1,0,0,0,1,1,38,
scooby_state_a4c443|44|1 28,1,2,0,0,3,0,2,2,0,0,0,0,0,0,38,
scooby_state_a52672|48|0 25,1,0,0,0,0,2,0,1,1,1,1,2,1,3,38,
scooby_state_a5266d|2|1 28,5,1,1,1,0,0,1,0,0,0,0,1,0,0,38,
scooby_state_a5266d|60|1 28,2,0,0,1,2,0,0,1,0,1,0,2,1,0,38,
scooby_state_a4c443|2|1 28,0,0,1,0,2,2,1,0,0,0,0,1,2,1,38,
scooby_state_a5266d|55|1 27,3,0,2,1,0,1,0,1,0,1,1,1,0,0,38,
scooby_state_a4c443|51|0 34,1,0,0,0,0,1,0,0,0,0,0,0,0,2,38,
scooby_state_40f7b0|3|0 0,0,38,0,0,0,0,0,0,0,0,0,0,0,0,38,
scooby_state_a4c443|27|1 30,1,3,1,0,0,1,1,0,0,0,0,0,0,0,37,
scooby_state_a5266d|22|1 29,1,1,0,1,0,0,0,0,0,0,1,1,1,2,37,
scooby_state_a5266d|27|1 29,3,0,0,1,1,0,0,0,0,1,1,0,0,1,37,
scooby_state_a5266d|47|1 27,3,0,1,1,2,0,0,0,0,1,0,1,0,1,37,
scooby_state_a5266d|47|0 24,0,1,0,0,1,0,1,0,0,0,7,0,3,0,37,
scooby_state_a5266d|36|1 30,3,1,0,1,0,0,0,0,0,0,0,2,0,0,37,
scooby_state_a5266d|51|1 26,1,0,0,2,0,0,2,0,0,1,1,1,2,1,37,
scooby_state_a4c443|8|1 27,3,3,0,1,1,0,0,0,0,0,0,1,1,0,37,
scooby_state_a4c443|31|1 28,0,1,1,1,0,0,0,2,1,1,1,0,0,1,37,
scooby_state_a4c443|60|1 27,1,1,1,0,1,0,0,0,2,0,3,0,0,0,36,
scooby_state_a5266d|11|1 25,8,0,0,0,1,0,0,0,1,0,0,1,0,0,36,
scooby_state_a5266d|42|1 22,3,1,1,1,1,2,2,0,1,1,1,0,0,0,36,
scooby_state_a5266d|46|1 25,2,1,0,2,1,0,0,0,1,1,1,0,0,2,36,
scooby_state_a4c443|25|1 30,0,1,0,0,1,1,0,0,0,0,0,1,0,2,36,
scooby_state_a5266d|3|1 27,4,0,1,1,0,0,0,0,0,1,0,1,0,1,36,
scooby_state_a52672|53|0 24,1,1,0,2,1,0,1,2,2,0,0,0,0,2,36,
scooby_state_a5266d|5|1 27,2,0,1,1,0,1,1,0,0,0,0,1,1,1,36,
scooby_state_a5266d|9|1 27,1,2,3,0,1,1,0,1,0,0,0,0,0,0,36,
scooby_state_a5266d|10|1 31,2,0,0,0,0,0,0,0,0,0,1,0,0,2,36,
scooby_state_40f7b0|34|1 9,0,27,0,0,0,0,0,0,0,0,0,0,0,0,36,
scooby_state_a5266d|45|0 20,1,0,0,0,0,3,1,1,0,0,9,0,0,1,36,
scooby_state_a52672|28|0 23,0,1,0,0,0,1,1,0,1,0,2,1,5,1,36,
scooby_state_a4c443|61|1 27,1,0,0,0,3,2,0,0,0,0,0,1,1,1,36,
scooby_state_a5266d|56|0 23,0,1,1,2,0,0,0,1,2,0,4,0,2,0,36,
scooby_state_a5266d|12|1 25,2,0,0,0,0,1,0,0,1,1,2,0,2,1,35,
scooby_state_a5266d|38|1 25,2,0,0,1,0,0,1,0,0,1,0,2,1,2,35,
scooby_state_a5266d|58|0 21,0,1,0,0,0,0,1,0,0,0,10,0,1,1,35,
scooby_state_a5266d|39|1 27,3,0,1,0,0,1,0,0,0,1,1,1,0,0,35,
scooby_state_a5266d|16|1 24,3,0,0,0,1,0,0,2,1,0,0,3,1,0,35,
scooby_state_a4c443|3|1 27,1,1,1,0,1,0,0,0,0,1,0,0,1,2,35,
scooby_state_a5266d|48|1 25,3,2,0,1,0,0,1,0,0,0,2,0,0,1,35,
scooby_state_a5266d|52|1 24,3,1,1,0,0,0,1,1,1,1,0,0,1,1,35,
scooby_state_40f7cb|41|1 0,35,0,0,0,0,0,0,0,0,0,0,0,0,0,35,
scooby_state_a52672|13|0 24,0,2,1,1,1,0,1,0,1,1,0,2,0,1,35,
scooby_state_a4c443|5|1 27,0,1,1,0,0,1,1,1,1,0,1,0,0,1,35,
scooby_state_a5266d|32|0 21,1,3,0,0,0,1,0,1,0,0,8,0,0,0,35,
scooby_state_a4c443|53|1 29,1,1,2,0,0,0,1,0,0,0,1,0,0,0,35,
scooby_state_a4c443|56|1 25,1,0,0,3,1,0,0,0,0,1,0,1,1,1,34,
scooby_state_40f7b0|62|1 7,0,27,0,0,0,0,0,0,0,0,0,0,0,0,34,
scooby_state_40f7b0|58|1 4,0,30,0,0,0,0,0,0,0,0,0,0,0,0,34,
scooby_state_a52672|58|0 20,1,1,2,1,1,2,1,0,1,0,1,0,1,2,34,
scooby_state_a52672|24|0 24,1,1,3,0,0,1,0,0,0,0,1,2,1,0,34,
scooby_state_a4c443|63|1 26,1,0,1,1,0,0,1,0,0,0,1,1,2,0,34,
scooby_state_a5266d|4|1 25,3,0,1,0,0,0,0,0,2,0,0,1,1,0,33,
scooby_state_a52672|22|0 20,1,2,0,0,0,1,2,0,0,1,1,2,1,2,33,
scooby_state_a52672|60|0 22,1,0,2,0,1,1,2,0,0,1,0,0,0,3,33,
scooby_state_a4c443|59|1 22,2,2,0,0,0,0,2,1,0,1,0,1,0,2,33,
scooby_state_a4c443|22|1 24,2,1,1,0,0,4,1,0,0,0,0,0,0,0,33,
scooby_state_a52672|23|0 20,0,1,0,0,1,1,2,0,1,0,3,2,1,1,33,
scooby_state_a5266d|43|1 23,3,0,1,2,2,0,0,0,0,0,0,0,0,2,33,
scooby_state_a4c443|16|1 22,0,0,0,1,0,1,0,0,2,1,2,3,0,1,33,
scooby_state_40f7b0|61|1 8,0,24,0,0,0,0,0,0,0,0,0,0,0,0,32,
scooby_state_a52672|43|0 22,1,0,0,2,0,3,0,0,0,0,0,0,1,3,32,
scooby_state_40f7b0|60|1 5,0,27,0,0,0,0,0,0,0,0,0,0,0,0,32,
scooby_state_a4c443|9|1 27,1,1,0,1,0,0,1,0,1,0,0,0,0,0,32,
scooby_state_a4c443|52|1 26,1,0,1,0,0,0,0,1,0,0,1,1,0,1,32,
scooby_state_a52672|38|0 22,0,3,0,0,0,0,0,1,0,1,1,1,1,2,32,
scooby_state_40f7b0|8|0 0,0,32,0,0,0,0,0,0,0,0,0,0,0,0,32,
scooby_state_a5266d|29|1 25,1,0,1,0,1,1,1,0,0,1,0,0,0,1,32,
scooby_state_a52672|16|0 22,0,1,1,1,0,0,0,0,0,0,3,2,2,0,32,
scooby_state_a5266d|57|1 21,2,1,1,1,0,1,0,0,0,2,1,1,0,1,32,
scooby_state_a4c443|12|1 22,1,0,0,1,0,0,2,1,0,1,2,1,0,1,32,
scooby_state_a52672|50|0 25,0,0,1,0,0,0,0,0,2,2,0,0,0,2,32,
scooby_state_a5266d|58|1 23,1,0,1,1,1,2,0,0,2,0,0,0,0,1,32,
scooby_state_a4c443|35|1 24,1,0,0,0,0,0,0,2,0,1,2,1,0,1,32,
scooby_state_a4c443|43|1 26,0,0,2,0,0,0,1,0,0,1,1,0,0,1,32,
scooby_state_a52672|41|1 1,1,3,0,1,0,3,0,3,1,1,7,1,1,9,32,
scooby_state_a52672|57|0 22,0,0,0,1,0,1,2,1,0,1,0,1,0,3,32,
scooby_state_a4c443|36|1 26,0,1,1,0,1,0,0,0,0,2,0,0,0,1,32,
scooby_state_a5266d|6|1 23,1,0,1,1,0,0,0,0,0,0,0,1,2,2,31,
scooby_state_a5266d|37|1 21,1,0,1,0,0,3,0,2,2,0,0,1,0,0,31,
scooby_state_a52672|39|1 4,2,4,1,1,2,0,1,1,2,1,0,4,0,8,31,
scooby_state_40f8cc|18|0 9,2,2,0,1,3,1,1,1,0,0,0,1,1,9,31,
scooby_state_a5266d|57|0 19,0,2,1,1,0,0,0,0,0,0,6,2,0,0,31,
scooby_state_a4c443|29|1 23,2,0,0,0,0,1,0,1,1,1,0,0,1,1,31,
scooby_state_a5266d|32|1 19,5,2,0,1,0,1,0,0,0,0,0,0,1,2,31,
scooby_state_a4c443|23|1 22,2,0,1,1,1,0,0,2,0,2,0,0,0,0,31,
scooby_state_a52672|42|1 5,1,5,0,1,0,1,0,0,3,3,2,1,2,7,31,
scooby_state_a4c443|49|1 22,1,0,0,0,0,2,0,1,0,1,0,0,3,1,31,
scooby_state_a4c443|24|1 23,0,0,1,1,2,1,0,0,3,0,0,0,0,0,31,
scooby_state_a52672|56|0 22,1,0,1,2,1,0,0,0,0,1,1,0,1,1,31,
scooby_state_a5266d|30|1 20,4,1,0,0,1,1,0,2,0,0,0,0,0,2,31,
scooby_state_40f7b0|48|1 2,0,29,0,0,0,0,0,0,0,0,0,0,0,0,31,
scooby_state_40f7b0|11|0 0,0,31,0,0,0,0,0,0,0,0,0,0,0,0,31,
scooby_state_a5266d|55|0 24,0,2,0,0,0,1,0,1,0,0,2,0,0,0,30,
scooby_state_a4c443|20|1 20,1,1,0,1,2,0,0,0,0,0,2,0,0,3,30,
scooby_state_a52672|62|0 20,0,0,1,1,0,1,0,1,1,0,1,1,1,2,30,
scooby_state_a5266d|61|1 20,6,1,0,0,0,0,1,1,0,0,0,0,0,1,30,
scooby_state_a52672|36|0 20,1,2,2,0,1,1,2,0,0,1,0,0,0,0,30,
scooby_state_40f7b0|13|0 0,0,30,0,0,0,0,0,0,0,0,0,0,0,0,30,
scooby_state_a4c443|39|0 28,0,0,0,0,0,0,1,0,1,0,0,0,0,0,30,
scooby_state_40f7b0|35|1 8,0,22,0,0,0,0,0,0,0,0,0,0,0,0,30,
scooby_state_a4c443|4|1 23,2,0,0,2,0,0,0,0,0,1,0,1,0,1,30,
scooby_state_a5266d|56|1 20,1,1,0,0,0,2,0,1,0,1,0,0,0,4,30,
scooby_state_40f7b0|47|1 3,1,26,0,0,0,0,0,0,0,0,0,0,0,0,30,
scooby_state_a52672|45|1 3,0,2,1,3,1,0,2,0,3,0,3,2,0,10,30,
scooby_state_a4c443|21|1 23,1,0,0,1,0,1,0,0,0,1,0,1,0,2,30,
scooby_state_a5266d|63|1 22,1,0,1,1,0,0,3,0,0,0,0,1,0,1,30,
scooby_state_40f7b0|40|1 7,0,23,0,0,0,0,0,0,0,0,0,0,0,0,30,
scooby_state_a52672|44|0 18,1,2,0,0,2,0,1,0,2,0,1,1,1,1,30,
scooby_state_a52672|15|1 0,2,5,1,0,1,1,0,3,2,0,1,2,2,10,30,
scooby_state_40f7b0|50|1 4,0,26,0,0,0,0,0,0,0,0,0,0,0,0,30,
scooby_state_a52672|28|1 4,2,3,2,1,3,0,0,1,2,0,1,0,1,10,30,
scooby_state_a4c443|54|0 23,1,1,0,0,1,0,0,1,0,0,0,0,2,1,30,
scooby_state_a52672|49|0 20,0,2,1,0,1,0,0,0,0,0,0,0,3,2,29,
scooby_state_a5266d|28|1 22,2,0,0,0,0,0,1,1,0,2,0,0,0,1,29,
scooby_state_40f8cc|5|0 10,1,3,1,1,0,1,0,1,1,0,1,1,2,6,29,
scooby_state_a4c443|18|1 20,0,1,1,0,0,0,0,2,0,2,0,0,2,1,29,
scooby_state_a52672|52|0 21,0,1,0,0,1,0,1,1,1,1,1,1,0,0,29,
scooby_state_a5266d|40|1 20,1,1,1,1,0,1,0,0,0,0,1,0,0,3,29,
scooby_state_a52672|41|0 20,1,1,0,2,0,0,0,0,0,0,1,1,2,1,29,
scooby_state_a4c443|34|1 22,1,0,0,0,0,0,0,1,0,0,2,1,1,1,29,
scooby_state_a5266d|49|1 20,1,1,0,0,1,1,0,2,1,0,0,0,1,1,29,
scooby_state_a5266d|1|1 21,1,1,0,0,1,0,1,0,0,0,1,0,1,2,29,
scooby_state_a4c443|10|1 23,1,0,1,0,0,0,0,1,1,0,0,2,0,0,29,
scooby_state_a4c443|19|1 19,1,0,0,1,1,1,1,0,0,0,0,1,1,3,29,
scooby_state_a4c443|30|1 23,0,1,0,1,1,0,0,0,2,1,0,0,0,0,29,
scooby_state_a4c443|32|1 24,0,0,0,0,0,0,1,0,0,0,2,2,0,0,29,
scooby_state_40f7b0|18|0 0,0,29,0,0,0,0,0,0,0,0,0,0,0,0,29,
scooby_state_40f7b0|51|1 5,0,23,0,0,0,0,0,0,0,0,0,0,0,0,28,
scooby_state_40f7b0|6|0 0,0,28,0,0,0,0,0,0,0,0,0,0,0,0,28,
scooby_state_a5266d|35|1 23,0,0,1,0,0,0,0,0,0,1,0,0,2,1,28,
scooby_state_40f7b0|52|1 5,0,23,0,0,0,0,0,0,0,0,0,0,0,0,28,
scooby_state_40f8cc|59|0 9,2,1,2,1,0,0,0,0,0,1,2,1,1,8,28,
scooby_state_a52672|46|0 21,2,0,1,0,2,0,0,0,0,1,1,0,0,0,28,
scooby_state_40f8cc|62|0 6,1,0,0,0,1,0,0,1,0,0,6,1,0,12,28,
scooby_state_a5266d|50|1 21,3,2,0,1,0,0,0,0,0,0,0,0,0,1,28,
scooby_state_a4c443|7|1 21,1,0,1,0,0,1,0,0,2,0,0,0,0,2,28,
scooby_state_a4c443|14|1 20,1,0,1,0,0,1,0,1,0,2,1,0,1,0,28,
scooby_state_40f8cc|63|1 4,1,3,0,1,0,1,5,2,1,0,1,1,1,6,27,
scooby_state_a52672|40|0 18,0,0,0,2,0,2,1,1,0,0,0,2,1,0,27,
scooby_state_a52672|47|0 17,0,1,2,2,0,0,0,0,0,0,1,1,0,3,27,
scooby_state_a5266d|44|1 19,2,0,0,0,1,0,1,0,1,1,0,1,1,0,27,
scooby_state_a52672|37|1 4,3,3,1,1,4,0,0,0,0,1,2,1,0,7,27,
scooby_state_a4c443|26|1 21,2,0,1,1,0,0,0,0,0,1,0,0,0,1,27,
scooby_state_a52672|13|1 1,2,3,1,0,1,1,1,1,2,1,1,4,0,8,27,
scooby_state_a52672|29|0 16,1,1,1,0,1,1,1,0,1,1,1,1,0,1,27,
scooby_state_a4c443|39|1 23,0,0,0,2,1,0,0,0,0,0,0,1,0,0,27,
scooby_state_a52672|62|1 3,1,3,1,2,0,0,0,1,1,0,0,1,3,11,27,
scooby_state_a4c443|28|1 22,0,0,0,1,1,0,0,1,1,0,1,0,0,0,27,
scooby_state_40f7b0|56|1 3,0,24,0,0,0,0,0,0,0,0,0,0,0,0,27,
scooby_state_a52672|33|0 20,0,0,0,0,2,0,0,1,0,1,1,0,0,2,27,
scooby_state_a52672|33|1 1,4,3,0,2,0,0,2,1,1,0,1,1,2,9,27,
scooby_state_40f7b0|43|1 7,0,20,0,0,0,0,0,0,0,0,0,0,0,0,27,
scooby_state_40f8cc|61|0 4,1,2,0,1,1,0,0,2,1,0,3,2,0,9,26,
scooby_state_a4c443|6|1 21,1,0,0,0,0,1,1,1,1,0,0,0,0,0,26,
scooby_state_a52608|10|0 12,1,1,0,0,0,4,1,1,1,2,0,2,0,1,26,
scooby_state_a52608|45|0 11,1,1,1,1,0,1,0,1,2,0,1,3,1,2,26,
scooby_state_a52672|55|1 2,4,3,2,0,1,2,1,1,3,0,0,1,2,4,26,
scooby_state_40f8cc|60|0 6,1,2,0,1,0,0,1,0,0,1,3,0,3,8,26,
scooby_state_a52672|34|0 17,0,0,1,0,1,1,2,2,0,0,0,1,0,1,26,
scooby_state_a4c443|47|1 23,0,0,0,1,0,0,0,0,1,0,0,1,0,0,26,
scooby_state_a52672|17|1 1,3,2,0,2,1,0,0,0,2,1,0,1,1,12,26,
scooby_state_40f8cc|3|0 6,0,1,2,1,0,1,0,1,0,0,1,1,1,11,26,
scooby_state_40f7b0|6|1 7,0,19,0,0,0,0,0,0,0,0,0,0,0,0,26,
scooby_state_a4c443|45|1 20,0,1,1,0,0,1,0,0,0,1,0,0,2,0,26,
scooby_state_a52608|21|0 14,0,0,1,1,0,0,2,1,2,0,2,1,1,1,26,
scooby_state_40f7b0|59|1 4,0,22,0,0,0,0,0,0,0,0,0,0,0,0,26,
scooby_state_40f7b0|39|1 5,0,21,0,0,0,0,0,0,0,0,0,0,0,0,26,
scooby_state_40f7b0|57|1 2,0,24,0,0,0,0,0,0,0,0,0,0,0,0,26,
scooby_state_40f7b0|20|1 4,0,22,0,0,0,0,0,0,0,0,0,0,0,0,26,
scooby_state_a4c443|57|1 21,0,0,0,0,2,1,0,1,0,0,0,0,0,1,26,
scooby_state_a52672|35|0 17,0,0,0,0,0,0,2,0,2,0,1,0,1,2,25,
scooby_state_a52608|24|0 8,0,4,0,0,1,1,3,1,0,0,1,2,1,3,25,
scooby_state_40f7b0|15|1 4,0,21,0,0,0,0,0,0,0,0,0,0,0,0,25,
scooby_state_a52672|12|1 3,0,4,0,1,2,1,1,1,2,0,0,1,0,9,25,
scooby_state_a52672|54|0 18,0,0,0,0,0,0,0,1,1,0,0,1,1,3,25,
scooby_state_40f7b0|14|1 4,0,21,0,0,0,0,0,0,0,0,0,0,0,0,25,
scooby_state_a4c443|11|1 21,1,0,1,1,0,0,1,0,0,0,0,0,0,0,25,
scooby_state_a52608|28|0 16,0,1,0,3,0,0,0,1,0,1,0,0,0,3,25,
scooby_state_a4c443|17|1 18,0,0,0,1,1,0,0,1,1,0,1,0,2,0,25,
scooby_state_a4c443|37|1 21,2,1,0,0,0,0,0,0,0,0,0,0,0,1,25,
scooby_state_a52672|63|0 13,1,1,2,0,2,1,0,0,1,0,1,1,0,2,25,
scooby_state_a52608|3|0 13,1,2,0,1,1,0,1,0,1,0,1,1,0,3,25,
scooby_state_40f7b0|10|0 0,0,25,0,0,0,0,0,0,0,0,0,0,0,0,25,
scooby_state_a52672|39|0 17,0,1,0,0,1,1,0,0,1,0,0,2,0,2,25,
scooby_state_a52672|16|1 2,1,3,1,2,1,0,0,1,0,2,2,0,1,8,24,
scooby_state_a52672|54|1 3,0,2,1,0,1,1,1,0,0,0,2,3,3,7,24,
scooby_state_40f8cc|6|0 9,0,0,0,2,0,2,0,0,0,3,0,3,1,4,24,
scooby_state_a4c443|48|1 22,0,0,0,1,0,1,0,0,0,0,0,0,0,0,24,
scooby_state_a52672|35|1 0,2,3,0,2,0,1,2,0,1,1,2,2,2,6,24,
scooby_state_40f7c0|57|17 14,10,0,0,0,0,0,0,0,0,0,0,0,0,0,24,
scooby_state_a5266d|49|0 14,0,1,0,0,0,1,0,0,0,1,6,1,0,0,24,
scooby_state_a52672|63|1 2,1,3,2,2,2,2,1,0,1,0,1,2,0,5,24,
scooby_state_a5266d|62|1 16,3,0,0,0,0,1,0,0,0,1,1,1,0,1,24,
scooby_state_a4c443|58|1 18,0,0,0,1,1,0,2,0,0,0,0,0,1,1,24,
scooby_state_a52672|27|2 6,2,0,1,0,1,3,1,1,0,3,1,1,0,4,24,
scooby_state_a4c443|55|1 16,2,0,0,0,0,2,0,1,0,0,1,0,1,1,24,
scooby_state_40f8cc|8|0 6,2,1,0,0,0,0,1,1,0,1,1,0,0,11,24,
scooby_state_a5266d|45|1 18,0,1,1,1,0,0,0,2,1,0,0,0,0,0,24,
scooby_state_40f7c0|23|17 16,7,0,0,0,0,0,0,0,0,0,0,0,1,0,24,
scooby_state_a4c443|15|1 16,0,2,1,0,0,0,2,0,0,1,1,0,0,1,24,
scooby_state_40f7b0|2|1 5,0,19,0,0,0,0,0,0,0,0,0,0,0,0,24,
scooby_state_a4c443|33|1 19,0,0,0,0,0,0,0,0,1,0,0,2,0,2,24,
scooby_state_a5266d|46|0 16,0,0,2,0,1,0,0,0,0,0,5,0,0,0,24,
scooby_state_a52672|25|1 0,2,4,0,1,1,0,0,1,2,0,2,1,1,9,24,
scooby_state_a5266d|31|1 19,3,0,0,0,0,0,0,0,0,1,0,1,0,0,24,
scooby_state_40f7b0|12|1 6,0,18,0,0,0,0,0,0,0,0,0,0,0,0,24,
scooby_state_40f8cc|54|0 4,0,0,0,1,1,1,0,1,1,2,2,2,1,8,24,
scooby_state_a52672|19|1 2,1,2,0,1,2,0,0,0,3,1,1,0,0,10,23,
scooby_state_a52672|14|1 1,0,5,2,1,0,0,2,0,0,1,0,2,4,5,23,
scooby_state_a4c443|46|1 22,0,0,0,1,0,0,0,0,0,0,0,0,0,0,23,
scooby_state_40f7b0|1|1 6,0,17,0,0,0,0,0,0,0,0,0,0,0,0,23,
scooby_state_40f7b0|54|1 3,0,20,0,0,0,0,0,0,0,0,0,0,0,0,23,
[...]
scooby_state_a52672|13|12 0,0,1,0,0,0,0,0,0,0,0,0,0,0,0,1,
scooby_state_a52672|59|3 1,0,0,0,0,0,0,0,0,0,0,0,0,0,0,1,
scooby_state_a52672|60|44 0,0,0,0,0,0,0,0,0,0,0,0,0,0,1,1,
scooby_state_a52672|4|-24 1,0,0,0,0,0,0,0,0,0,0,0,0,0,0,1,
scooby_state_40f7b0|31|27 0,0,1,0,0,0,0,0,0,0,0,0,0,0,0,1,
scooby_state_40f7b0|35|22 0,0,1,0,0,0,0,0,0,0,0,0,0,0,0,1,
scooby_state_a5266d|32|6 0,0,0,0,0,0,0,0,0,0,0,0,0,0,1,1,
scooby_state_40f89a|30|23 0,0,1,0,0,0,0,0,0,0,0,0,0,0,0,1,
scooby_state_a52672|8|-22 0,0,1,0,0,0,0,0,0,0,0,0,0,0,0,1,
scooby_state_40f7b0|53|23 0,0,1,0,0,0,0,0,0,0,0,0,0,0,0,1,
scooby_state_a52608|32|-31 0,0,1,0,0,0,0,0,0,0,0,0,0,0,0,1,
scooby_state_40f7b0|47|7 0,0,1,0,0,0,0,0,0,0,0,0,0,0,0,1,
scooby_state_40f7cb|54|0 0,1,0,0,0,0,0,0,0,0,0,0,0,0,0,1,
scooby_state_a52672|35|-25 1,0,0,0,0,0,0,0,0,0,0,0,0,0,0,1,
scooby_state_a52672|27|16 1,0,0,0,0,0,0,0,0,0,0,0,0,0,0,1,
scooby_state_a52672|29|7 0,0,0,0,0,0,0,1,0,0,0,0,0,0,0,1,
scooby_state_a525ef|17|-46 0,0,1,0,0,0,0,0,0,0,0,0,0,0,0,1,
scooby_state_40f7b0|62|33 0,0,1,0,0,0,0,0,0,0,0,0,0,0,0,1,
scooby_state_a52672|31|17 0,0,0,0,0,0,0,0,0,0,0,0,0,0,1,1,
scooby_state_40f7b0|14|8 0,0,1,0,0,0,0,0,0,0,0,0,0,0,0,1,
scooby_state_a52672|43|11 0,0,0,1,0,0,0,0,0,0,0,0,0,0,0,1,
scooby_state_a52672|36|12 0,0,1,0,0,0,0,0,0,0,0,0,0,0,0,1,
scooby_state_a52672|28|12 0,0,1,0,0,0,0,0,0,0,0,0,0,0,0,1,
scooby_state_a5266d|52|8 0,0,0,0,0,0,0,0,0,0,0,1,0,0,0,1,
scooby_state_a52672|58|46 1,0,0,0,0,0,0,0,0,0,0,0,0,0,0,1,
scooby_state_a52672|8|-15 1,0,0,0,0,0,0,0,0,0,0,0,0,0,0,1,
scooby_state_a52672|14|-15 1,0,0,0,0,0,0,0,0,0,0,0,0,0,0,1,
scooby_state_a52672|45|10 1,0,0,0,0,0,0,0,0,0,0,0,0,0,0,1,
scooby_state_a5266d|32|4 0,0,0,0,0,0,0,1,0,0,0,0,0,0,0,1,
scooby_state_40f7cb|57|2 0,1,0,0,0,0,0,0,0,0,0,0,0,0,0,1,
scooby_state_a5266d|7|7 1,0,0,0,0,0,0,0,0,0,0,0,0,0,0,1,
scooby_state_a51644|9|0 0,0,0,0,0,0,0,0,0,0,0,1,0,0,0,1,
scooby_state_40e28b|58|0 0,0,1,0,0,0,0,0,0,0,0,0,0,0,0,1,
scooby_state_40f7b0|25|-1 0,0,1,0,0,0,0,0,0,0,0,0,0,0,0,1,
scooby_state_40f7c0|38|18 1,0,0,0,0,0,0,0,0,0,0,0,0,0,0,1,
scooby_state_a52672|19|5 0,0,0,0,0,0,0,1,0,0,0,0,0,0,0,1,
scooby_state_a52672|22|19 0,1,0,0,0,0,0,0,0,0,0,0,0,0,0,1,
scooby_state_40f7b0|51|29 0,0,1,0,0,0,0,0,0,0,0,0,0,0,0,1,
scooby_state_a52672|24|-27 0,0,1,0,0,0,0,0,0,0,0,0,0,0,0,1,
scooby_state_40f7b0|52|28 0,0,1,0,0,0,0,0,0,0,0,0,0,0,0,1,
scooby_state_a52672|31|-23 1,0,0,0,0,0,0,0,0,0,0,0,0,0,0,1,
scooby_state_40f7b0|55|24 0,0,1,0,0,0,0,0,0,0,0,0,0,0,0,1,
scooby_state_a52672|31|10 1,0,0,0,0,0,0,0,0,0,0,0,0,0,0,1,
scooby_state_40f7b0|44|6 1,0,0,0,0,0,0,0,0,0,0,0,0,0,0,1,
scooby_state_40f7b0|31|11 0,0,1,0,0,0,0,0,0,0,0,0,0,0,0,1,
scooby_state_40e280|10|5 0,0,1,0,0,0,0,0,0,0,0,0,0,0,0,1,
scooby_state_a52672|53|21 1,0,0,0,0,0,0,0,0,0,0,0,0,0,0,1,
scooby_state_a52672|21|17 0,0,0,0,0,0,0,0,0,0,0,0,0,0,1,1,
scooby_state_40f7b0|57|31 0,0,1,0,0,0,0,0,0,0,0,0,0,0,0,1,
scooby_state_a52672|42|18 0,0,0,0,0,0,0,0,0,1,0,0,0,0,0,1,
scooby_state_a52672|42|39 0,0,0,0,0,0,0,0,0,0,0,0,0,0,1,1,
scooby_state_a52672|45|42 0,0,0,0,0,0,0,0,0,0,0,1,0,0,0,1,
scooby_state_a52672|58|37 0,0,1,0,0,0,0,0,0,0,0,0,0,0,0,1,
scooby_state_40f7c0|39|34 1,0,0,0,0,0,0,0,0,0,0,0,0,0,0,1,
scooby_state_40f7c0|48|16 1,0,0,0,0,0,0,0,0,0,0,0,0,0,0,1,
scooby_state_a5266d|33|6 0,0,0,0,0,0,0,0,0,1,0,0,0,0,0,1,
scooby_state_a52672|50|17 0,0,0,1,0,0,0,0,0,0,0,0,0,0,0,1,
scooby_state_a52672|51|18 0,0,0,0,0,0,1,0,0,0,0,0,0,0,0,1,
scooby_state_a52672|43|42 0,0,0,0,0,0,0,0,0,0,0,1,0,0,0,1,
scooby_state_a52672|56|4 0,1,0,0,0,0,0,0,0,0,0,0,0,0,0,1,
scooby_state_40f7b0|41|13 0,1,0,0,0,0,0,0,0,0,0,0,0,0,0,1,
scooby_state_a52672|31|-10 0,0,1,0,0,0,0,0,0,0,0,0,0,0,0,1,
scooby_state_a52672|40|-4 0,0,0,0,0,0,0,0,0,0,0,0,0,0,1,1,
scooby_state_a52672|22|15 1,0,0,0,0,0,0,0,0,0,0,0,0,0,0,1,
scooby_state_40f89a|30|29 1,0,0,0,0,0,0,0,0,0,0,0,0,0,0,1,
scooby_state_40f7b0|7|4 0,0,1,0,0,0,0,0,0,0,0,0,0,0,0,1,
scooby_state_a52672|26|13 0,0,0,0,0,0,0,0,0,0,0,0,0,0,1,1,
scooby_state_a52672|18|10 1,0,0,0,0,0,0,0,0,0,0,0,0,0,0,1,
scooby_state_40f7b0|34|6 1,0,0,0,0,0,0,0,0,0,0,0,0,0,0,1,
scooby_state_40f7b0|59|35 1,0,0,0,0,0,0,0,0,0,0,0,0,0,0,1,
scooby_state_a52672|62|22 0,0,0,0,0,0,0,1,0,0,0,0,0,0,0,1,
scooby_state_a52672|15|-17 0,1,0,0,0,0,0,0,0,0,0,0,0,0,0,1,
scooby_state_40f7b0|41|19 0,0,1,0,0,0,0,0,0,0,0,0,0,0,0,1,
scooby_state_a52672|27|-14 0,0,1,0,0,0,0,0,0,0,0,0,0,0,0,1,
scooby_state_40f7b0|23|18 0,0,1,0,0,0,0,0,0,0,0,0,0,0,0,1,
scooby_state_a52672|39|5 0,1,0,0,0,0,0,0,0,0,0,0,0,0,0,1,
scooby_state_40f7c7|13|-1 1,0,0,0,0,0,0,0,0,0,0,0,0,0,0,1,
scooby_state_40f7b0|54|25 1,0,0,0,0,0,0,0,0,0,0,0,0,0,0,1,
scooby_state_a5266d|26|6 0,0,0,0,0,0,0,0,0,0,0,1,0,0,0,1,
scooby_state_a52672|55|37 0,0,1,0,0,0,0,0,0,0,0,0,0,0,0,1,
scooby_state_a52672|56|5 0,1,0,0,0,0,0,0,0,0,0,0,0,0,0,1,
scooby_state_a52672|60|6 0,0,0,0,0,0,0,1,0,0,0,0,0,0,0,1,
scooby_state_40f7c0|35|28 1,0,0,0,0,0,0,0,0,0,0,0,0,0,0,1,
scooby_state_a525fb|36|-27 0,0,0,1,0,0,0,0,0,0,0,0,0,0,0,1,
scooby_state_a4c443|50|4 1,0,0,0,0,0,0,0,0,0,0,0,0,0,0,1,
scooby_state_a5266d|53|7 1,0,0,0,0,0,0,0,0,0,0,0,0,0,0,1,
scooby_state_40e1ac|45|1 1,0,0,0,0,0,0,0,0,0,0,0,0,0,0,1,
scooby_state_a52608|5|-58 1,0,0,0,0,0,0,0,0,0,0,0,0,0,0,1,
scooby_state_40f89a|49|16 0,0,0,0,0,0,0,0,0,0,0,1,0,0,0,1,
scooby_state_40f7b0|39|-1 0,0,1,0,0,0,0,0,0,0,0,0,0,0,0,1,
scooby_state_a52672|38|-16 0,0,1,0,0,0,0,0,0,0,0,0,0,0,0,1,
scooby_state_a52672|39|-23 1,0,0,0,0,0,0,0,0,0,0,0,0,0,0,1,
scooby_state_a5266d|39|3 1,0,0,0,0,0,0,0,0,0,0,0,0,0,0,1,
scooby_state_a52672|25|-20 0,1,0,0,0,0,0,0,0,0,0,0,0,0,0,1,
scooby_state_a525ef|19|-44 0,0,0,0,0,0,0,0,0,0,0,1,0,0,0,1,
scooby_state_40f74b|2|1 1,0,0,0,0,0,0,0,0,0,0,0,0,0,0,1,
scooby_state_40f7cb|48|-3 0,1,0,0,0,0,0,0,0,0,0,0,0,0,0,1,
scooby_state_a525ef|43|-20 0,0,0,0,0,0,0,0,0,0,0,1,0,0,0,1,
scooby_state_40f7b0|32|18 0,0,1,0,0,0,0,0,0,0,0,0,0,0,0,1,
scooby_state_a52672|61|38 0,0,1,0,0,0,0,0,0,0,0,0,0,0,0,1,
scooby_state_a52672|34|-17 0,1,0,0,0,0,0,0,0,0,0,0,0,0,0,1,
scooby_state_40f7c0|52|20 1,0,0,0,0,0,0,0,0,0,0,0,0,0,0,1,
scooby_state_40f7b0|21|7 0,0,1,0,0,0,0,0,0,0,0,0,0,0,0,1,
scooby_state_40f7b0|19|-1 0,0,1,0,0,0,0,0,0,0,0,0,0,0,0,1,
scooby_state_a52445|44|1 1,0,0,0,0,0,0,0,0,0,0,0,0,0,0,1,
scooby_state_40f7c0|23|19 1,0,0,0,0,0,0,0,0,0,0,0,0,0,0,1,
scooby_state_a525ef|32|1 0,0,1,0,0,0,0,0,0,0,0,0,0,0,0,1,
scooby_state_a525fb|23|-21 0,0,0,0,0,0,0,0,0,0,0,1,0,0,0,1,
scooby_state_a52672|18|-20 0,1,0,0,0,0,0,0,0,0,0,0,0,0,0,1,
scooby_state_40f7b0|32|4 0,0,1,0,0,0,0,0,0,0,0,0,0,0,0,1,
scooby_state_a52672|17|-32 0,0,0,0,0,0,0,0,0,0,0,0,0,0,1,1,
scooby_state_40f89a|49|32 0,0,1,0,0,0,0,0,0,0,0,0,0,0,0,1,
scooby_state_40f89a|50|32 0,0,1,0,0,0,0,0,0,0,0,0,0,0,0,1,
scooby_state_a5266d|25|3 1,0,0,0,0,0,0,0,0,0,0,0,0,0,0,1,
scooby_state_a52672|41|-9 1,0,0,0,0,0,0,0,0,0,0,0,0,0,0,1,
scooby_state_40f7b0|60|19 0,0,1,0,0,0,0,0,0,0,0,0,0,0,0,1,
scooby_state_a52672|13|7 0,0,0,0,0,0,0,0,1,0,0,0,0,0,0,1,
scooby_state_40f7b0|26|11 0,0,1,0,0,0,0,0,0,0,0,0,0,0,0,1,
scooby_state_a52672|26|7 0,0,0,0,0,0,0,0,0,0,1,0,0,0,0,1,
scooby_state_40f7b0|44|42 0,0,1,0,0,0,0,0,0,0,0,0,0,0,0,1,
scooby_state_a525ef|6|-38 0,0,1,0,0,0,0,0,0,0,0,0,0,0,0,1,
scooby_state_40f7cb|57|0 0,1,0,0,0,0,0,0,0,0,0,0,0,0,0,1,
scooby_state_a52672|35|-7 0,0,0,0,0,0,0,0,1,0,0,0,0,0,0,1,
scooby_state_40f7c0|35|21 0,1,0,0,0,0,0,0,0,0,0,0,0,0,0,1,
scooby_state_40e290|36|1 1,0,0,0,0,0,0,0,0,0,0,0,0,0,0,1,
scooby_state_40d216|8|1 0,0,0,0,0,0,0,0,0,0,0,0,0,0,1,1,
scooby_state_a52672|61|9 0,0,0,0,0,0,0,0,0,0,0,0,1,0,0,1,
scooby_state_a525ef|27|-36 0,0,0,0,0,0,0,0,0,0,0,1,0,0,0,1,
scooby_state_40e1ac|41|1 1,0,0,0,0,0,0,0,0,0,0,0,0,0,0,1,
scooby_state_a52608|23|-40 1,0,0,0,0,0,0,0,0,0,0,0,0,0,0,1,
scooby_state_a5266d|62|7 1,0,0,0,0,0,0,0,0,0,0,0,0,0,0,1,
scooby_state_40e3ac|22|1 0,0,0,0,0,0,0,0,0,0,0,1,0,0,0,1,
scooby_state_a52672|53|46 1,0,0,0,0,0,0,0,0,0,0,0,0,0,0,1,
scooby_state_40f7c0|49|-14 1,0,0,0,0,0,0,0,0,0,0,0,0,0,0,1,
scooby_state_a525ef|8|-55 0,1,0,0,0,0,0,0,0,0,0,0,0,0,0,1,
scooby_state_a5242e|30|0 1,0,0,0,0,0,0,0,0,0,0,0,0,0,0,1,
scooby_state_40f7c0|58|49 1,0,0,0,0,0,0,0,0,0,0,0,0,0,0,1,
scooby_state_a52672|58|14 0,0,1,0,0,0,0,0,0,0,0,0,0,0,0,1,
scooby_state_40f8cc|11|-51 0,0,0,0,0,0,0,0,0,0,0,1,0,0,0,1,
scooby_state_40e2ca|29|0 0,0,0,0,0,0,0,0,0,0,0,0,0,0,1,1,
scooby_state_40f7b0|39|29 0,0,1,0,0,0,0,0,0,0,0,0,0,0,0,1,
scooby_state_a52672|34|12 0,0,1,0,0,0,0,0,0,0,0,0,0,0,0,1,
scooby_state_40f501|20|1 1,0,0,0,0,0,0,0,0,0,0,0,0,0,0,1,
scooby_state_40f7cb|14|0 0,1,0,0,0,0,0,0,0,0,0,0,0,0,0,1,
scooby_state_40e107|52|0 1,0,0,0,0,0,0,0,0,0,0,0,0,0,0,1,
scooby_state_40f534|57|1 1,0,0,0,0,0,0,0,0,0,0,0,0,0,0,1,
scooby_state_a525ef|11|-52 0,0,0,0,0,0,0,0,0,0,0,1,0,0,0,1,
scooby_state_a525fb|25|-38 1,0,0,0,0,0,0,0,0,0,0,0,0,0,0,1,
scooby_state_a52672|9|-18 0,0,0,0,0,0,0,1,0,0,0,0,0,0,0,1,
scooby_state_40e3ac|24|1 0,0,0,0,0,0,0,0,0,0,0,1,0,0,0,1,
scooby_state_a52608|36|-27 1,0,0,0,0,0,0,0,0,0,0,0,0,0,0,1,
scooby_state_40f7b0|19|8 0,0,1,0,0,0,0,0,0,0,0,0,0,0,0,1,
scooby_state_40f534|56|2 1,0,0,0,0,0,0,0,0,0,0,0,0,0,0,1,
scooby_state_a52672|56|39 0,0,0,0,0,0,0,0,0,0,0,0,0,0,1,1,
scooby_state_a52672|54|40 1,0,0,0,0,0,0,0,0,0,0,0,0,0,0,1,
scooby_state_a52672|60|42 0,0,0,0,0,0,0,0,0,0,0,1,0,0,0,1,
scooby_state_a52672|14|-26 0,0,0,0,0,0,0,0,0,0,0,0,0,0,1,1,
scooby_state_40f7b0|52|34 0,0,1,0,0,0,0,0,0,0,0,0,0,0,0,1,
scooby_state_a52672|51|32 0,0,0,0,0,0,0,0,0,0,0,0,0,0,1,1,
scooby_state_40f7b0|58|9 0,0,1,0,0,0,0,0,0,0,0,0,0,0,0,1,
scooby_state_40f7b0|33|12 1,0,0,0,0,0,0,0,0,0,0,0,0,0,0,1,
scooby_state_a52672|45|27 1,0,0,0,0,0,0,0,0,0,0,0,0,0,0,1,
scooby_state_a52672|57|12 0,0,1,0,0,0,0,0,0,0,0,0,0,0,0,1,
scooby_state_40f7b0|43|5 0,0,1,0,0,0,0,0,0,0,0,0,0,0,0,1,
scooby_state_a52672|15|-14 0,0,1,0,0,0,0,0,0,0,0,0,0,0,0,1,
scooby_state_a52672|15|7 0,0,0,0,0,0,0,1,0,0,0,0,0,0,0,1,
scooby_state_40f7c0|50|34 1,0,0,0,0,0,0,0,0,0,0,0,0,0,0,1,
scooby_state_a52672|21|-24 1,0,0,0,0,0,0,0,0,0,0,0,0,0,0,1,
scooby_state_40f7b0|49|28 0,0,1,0,0,0,0,0,0,0,0,0,0,0,0,1,
scooby_state_a52672|31|-22 0,0,1,0,0,0,0,0,0,0,0,0,0,0,0,1,
scooby_state_a52672|35|23 0,0,1,0,0,0,0,0,0,0,0,0,0,0,0,1,
scooby_state_a525fb|23|-40 1,0,0,0,0,0,0,0,0,0,0,0,0,0,0,1,
scooby_state_40f7b0|23|-1 0,0,1,0,0,0,0,0,0,0,0,0,0,0,0,1,
scooby_state_40f7b0|21|12 1,0,0,0,0,0,0,0,0,0,0,0,0,0,0,1,
scooby_state_a52672|43|20 0,1,0,0,0,0,0,0,0,0,0,0,0,0,0,1,
scooby_state_a52672|53|10 0,0,0,0,0,0,0,1,0,0,0,0,0,0,0,1,
scooby_state_40f7b0|58|10 0,0,1,0,0,0,0,0,0,0,0,0,0,0,0,1,
scooby_state_40f7b0|16|10 0,0,1,0,0,0,0,0,0,0,0,0,0,0,0,1,
scooby_state_40f7b0|41|34 0,0,1,0,0,0,0,0,0,0,0,0,0,0,0,1,
scooby_state_a52672|8|-33 0,0,1,0,0,0,0,0,0,0,0,0,0,0,0,1,
scooby_state_40f89a|42|34 0,1,0,0,0,0,0,0,0,0,0,0,0,0,0,1,
scooby_state_40f7cb|21|2 0,1,0,0,0,0,0,0,0,0,0,0,0,0,0,1,
scooby_state_40e502|20|7 0,0,1,0,0,0,0,0,0,0,0,0,0,0,0,1,
scooby_state_40f7cb|56|-3 0,1,0,0,0,0,0,0,0,0,0,0,0,0,0,1,
scooby_state_a52672|15|-29 0,0,0,0,0,0,0,0,0,0,0,0,1,0,0,1,
scooby_state_40f534|18|1 1,0,0,0,0,0,0,0,0,0,0,0,0,0,0,1,
scooby_state_a52672|36|33 0,1,0,0,0,0,0,0,0,0,0,0,0,0,0,1,
scooby_state_a5266d|14|11 0,0,0,0,0,0,0,0,1,0,0,0,0,0,0,1,
scooby_state_a52672|30|-25 1,0,0,0,0,0,0,0,0,0,0,0,0,0,0,1,
scooby_state_a52672|40|16 1,0,0,0,0,0,0,0,0,0,0,0,0,0,0,1,
scooby_state_a52672|55|12 0,0,1,0,0,0,0,0,0,0,0,0,0,0,0,1,
scooby_state_40f7b0|45|7 0,0,1,0,0,0,0,0,0,0,0,0,0,0,0,1,
scooby_state_a52672|18|7 0,0,0,0,1,0,0,0,0,0,0,0,0,0,0,1,
scooby_state_40f89a|23|1 1,0,0,0,0,0,0,0,0,0,0,0,0,0,0,1,
scooby_state_40f7b0|24|15 1,0,0,0,0,0,0,0,0,0,0,0,0,0,0,1,
scooby_state_a52672|50|26 0,0,0,0,0,0,0,0,1,0,0,0,0,0,0,1,
scooby_state_a52672|13|9 0,0,0,0,0,1,0,0,0,0,0,0,0,0,0,1,
scooby_state_40f7b0|35|4 0,0,1,0,0,0,0,0,0,0,0,0,0,0,0,1,
scooby_state_a52672|31|16 1,0,0,0,0,0,0,0,0,0,0,0,0,0,0,1,
scooby_state_40f7b0|44|34 0,0,1,0,0,0,0,0,0,0,0,0,0,0,0,1,
scooby_state_a52672|42|34 1,0,0,0,0,0,0,0,0,0,0,0,0,0,0,1,
scooby_state_40f7b0|46|31 0,0,1,0,0,0,0,0,0,0,0,0,0,0,0,1,
scooby_state_40f7c0|25|20 1,0,0,0,0,0,0,0,0,0,0,0,0,0,0,1,
scooby_state_a52672|24|-22 0,0,1,0,0,0,0,0,0,0,0,0,0,0,0,1,
scooby_state_a52672|42|-13 0,0,1,0,0,0,0,0,0,0,0,0,0,0,0,1,
scooby_state_40f7c0|25|19 1,0,0,0,0,0,0,0,0,0,0,0,0,0,0,1,
scooby_state_40f7b0|45|26 0,0,0,0,0,0,0,0,0,0,0,1,0,0,0,1,
scooby_state_40f7b0|48|24 0,0,1,0,0,0,0,0,0,0,0,0,0,0,0,1,
scooby_state_40f7b0|49|23 0,0,1,0,0,0,0,0,0,0,0,0,0,0,0,1,
scooby_state_a52672|37|-12 1,0,0,0,0,0,0,0,0,0,0,0,0,0,0,1,
scooby_state_40f7b0|53|16 0,0,1,0,0,0,0,0,0,0,0,0,0,0,0,1,
scooby_state_a5266d|31|8 0,0,0,0,0,0,0,0,0,0,0,0,0,1,0,1,
scooby_state_a52672|28|14 0,0,1,0,0,0,0,0,0,0,0,0,0,0,0,1,
scooby_state_a52672|26|-22 0,0,1,0,0,0,0,0,0,0,0,0,0,0,0,1,
scooby_state_a52672|29|-23 1,0,0,0,0,0,0,0,0,0,0,0,0,0,0,1,

scooby_action_0_deg_dist 0,7468,0,0,0,0,0,0,0,0,0,0,0,0,0,0,
scooby_action_-6_deg_dist 0,1561,3,0,0,0,0,0,0,0,0,0,0,0,0,0,
scooby_action_4_deg_dist 0,11287,1079,0,1304,0,3434,0,0,0,0,0,0,0,0,0,
scooby_action_1_deg_dist 0,214983,106116,0,255043,0,2370003,0,0,0,0,0,0,0,0,0,
scooby_action_30_deg_dist 0,1491,0,0,0,0,0,0,0,0,0,0,0,0,0,0,
scooby_action_3_deg_dist 0,138730,45672,0,112127,0,1041140,0,0,0,0,0,0,0,0,0,
scooby_action_32_deg_dist 0,1373,0,0,0,0,0,0,0,0,0,0,0,0,0,0,
scooby_action_5_deg_dist 0,1636,30,0,59,0,243,0,0,0,0,0,0,0,0,0,
scooby_action_10_deg_dist 0,1718,26,0,33,0,81,0,0,0,0,0,0,0,0,0,
scooby_action_-1_deg_dist 0,18048,49,0,39,0,11,0,0,0,0,0,0,0,0,0,
scooby_action_23_deg_dist 0,1461,0,0,0,0,0,0,0,0,0,0,0,0,0,0,
scooby_action_11_deg_dist 0,1605,12,0,39,0,98,0,0,0,0,0,0,0,0,0,
scooby_action_12_deg_dist 0,1586,0,0,0,0,0,0,0,0,0,0,0,0,0,0,
scooby_action_22_deg_dist 0,1497,0,0,0,0,0,0,0,0,0,0,0,0,0,0,
scooby_action_-3_deg_dist 0,1587,0,0,0,0,0,0,0,0,0,0,0,0,0,0,

scooby_track_called 4342672
scooby_track_same_address 33287
scooby_track_evict 4309129

scooby_reward_demand_called 4342672
scooby_reward_demand_pt_not_found 300891
scooby_reward_demand_pt_found 4041781
scooby_reward_demand_pt_found_total 4041781
scooby_reward_demand_has_reward 0
scooby_reward_train_called 153117
scooby_reward_assign_reward_called 4309378
scooby_reward_no_pref 7468
scooby_reward_incorrect 145649
scooby_reward_correct_untimely 3535529
scooby_reward_correct_timely 506252
scooby_reward_out_of_bounds 114480
scooby_reward_tracker_hit 0

scooby_reward_none_low_bw 7468
scooby_reward_none_high_bw 0
scooby_reward_incorrect_low_bw 145649
scooby_reward_incorrect_high_bw 0
scooby_reward_correct_untimely_low_bw 3535529
scooby_reward_correct_untimely_high_bw 0
scooby_reward_correct_timely_low_bw 506252
scooby_reward_correct_timely_high_bw 0
scooby_reward_out_of_bounds_low_bw 114480
scooby_reward_out_of_bounds_high_bw 0
scooby_reward_tracker_hit_low_bw 0
scooby_reward_tracker_hit_high_bw 0

scooby_reward_1 0,65622,2503977,311854,45307,0,
scooby_reward_3 0,61733,1016606,189928,64306,0,
scooby_reward_4 0,6995,7013,1860,1168,0,
scooby_reward_5 0,998,365,391,210,0,
scooby_reward_10 0,970,203,404,281,0,
scooby_reward_11 0,926,148,355,325,0,
scooby_reward_12 0,883,80,318,305,0,
scooby_reward_22 0,666,1,343,486,0,
scooby_reward_23 0,621,0,301,538,0,
scooby_reward_30 0,571,0,250,669,0,
scooby_reward_32 0,505,0,218,650,0,
scooby_reward_-1 0,3062,7136,30,53,0,
scooby_reward_-3 0,1083,0,0,45,0,
scooby_reward_-6 0,1014,0,0,137,0,
scooby_reward_0 7468,0,0,0,0,0,

scooby_train_called 4309128
scooby_train_compute_reward 153117

scooby_register_fill_called 3973844
scooby_register_fill_set 537774
scooby_register_fill_set_total 537774

scooby_register_prefetch_hit_called 9869279
scooby_register_prefetch_hit_set 3526047
scooby_register_prefetch_hit_set_total 3526047

scooby_pref_issue_scooby 20371989

learning_engine_featurewise.action.called 4342672
learning_engine_featurewise.action.explore 7932
learning_engine_featurewise.action.exploit 4334740
learning_engine_featurewise.action.fallback 34795
learning_engine_featurewise.action.dyn_fallback_saved_bw 0
learning_engine_featurewise.action.dyn_fallback_saved_bw_acc 1584
learning_engine_featurewise.action.index_1_explored 535
learning_engine_featurewise.action.index_1_exploited 2945610
learning_engine_featurewise.action.index_3_explored 533
learning_engine_featurewise.action.index_3_exploited 1337136
learning_engine_featurewise.action.index_4_explored 530
learning_engine_featurewise.action.index_4_exploited 16574
learning_engine_featurewise.action.index_5_explored 499
learning_engine_featurewise.action.index_5_exploited 1469
learning_engine_featurewise.action.index_10_explored 569
learning_engine_featurewise.action.index_10_exploited 1289
learning_engine_featurewise.action.index_11_explored 534
learning_engine_featurewise.action.index_11_exploited 1220
learning_engine_featurewise.action.index_12_explored 547
learning_engine_featurewise.action.index_12_exploited 1039
learning_engine_featurewise.action.index_22_explored 538
learning_engine_featurewise.action.index_22_exploited 959
learning_engine_featurewise.action.index_23_explored 537
learning_engine_featurewise.action.index_23_exploited 924
learning_engine_featurewise.action.index_30_explored 533
learning_engine_featurewise.action.index_30_exploited 958
learning_engine_featurewise.action.index_32_explored 481
learning_engine_featurewise.action.index_32_exploited 892
learning_engine_featurewise.action.index_-1_explored 533
learning_engine_featurewise.action.index_-1_exploited 17614
learning_engine_featurewise.action.index_-3_explored 519
learning_engine_featurewise.action.index_-3_exploited 1068
learning_engine_featurewise.action.index_-6_explored 515
learning_engine_featurewise.action.index_-6_exploited 1049
learning_engine_featurewise.action.index_0_explored 529
learning_engine_featurewise.action.index_0_exploited 6939
learning_engine_featurewise.learn.called 4309128
learning_engine_featurewise.learn.su_skip_PC 0
learning_engine_featurewise.learn.su_skip_PC_Delta 0

learning_engine_featurewise.q_value_histogram.bucket_0 0
learning_engine_featurewise.q_value_histogram.bucket_1 0
learning_engine_featurewise.q_value_histogram.bucket_2 44400
learning_engine_featurewise.q_value_histogram.bucket_3 18324
learning_engine_featurewise.q_value_histogram.bucket_4 19203
learning_engine_featurewise.q_value_histogram.bucket_5 65226
learning_engine_featurewise.q_value_histogram.bucket_6 4187587
learning_engine_featurewise.q_value_histogram.bucket_7 0

learning_engine_featurewise.consensus.total 4334740
learning_engine_featurewise.consensus.feature_align_PC 4295184
learning_engine_featurewise.consensus.feature_align_PC_ratio 0.99
learning_engine_featurewise.consensus.feature_align_PC_Delta 4311950
learning_engine_featurewise.consensus.feature_align_PC_Delta_ratio 0.99
learning_engine_featurewise.consensus.feature_align_all 4272394
learning_engine_featurewise.consensus.feature_align_all_ratio 0.99

learning_engine_featurewise.feature_PC_min_weight 1000000.00000000
learning_engine_featurewise.feature_PC_max_weight 0.00000000
learning_engine_featurewise.feature_PC_Delta_min_weight 1000000.00000000
learning_engine_featurewise.feature_PC_Delta_max_weight 0.00000000
unique_pcs 123
unique_pages 48025
unique_trigger_pcs 50
total_bitmaps_seen 0
unique_bitmaps_seen 0

scooby_bw_epochs 635313
scooby_bw_level_0 97224
scooby_bw_level_1 166503
scooby_bw_level_2 177294
scooby_bw_level_3 194292

scooby_ipc_epochs 0
scooby_ipc_level_0 0
scooby_ipc_level_1 0
scooby_ipc_level_2 0
scooby_ipc_level_3 0

scooby_cache_acc_epochs 152400
scooby_cache_acc_level_0 41
scooby_cache_acc_level_1 15
scooby_cache_acc_level_2 114
scooby_cache_acc_level_3 311
scooby_cache_acc_level_4 919
scooby_cache_acc_level_5 1966
scooby_cache_acc_level_6 2909
scooby_cache_acc_level_7 4531
scooby_cache_acc_level_8 10047
scooby_cache_acc_level_9 131547

Channel_0_RQ_row_buffer_hit 3377406
Channel_0_RQ_row_buffer_miss 191149
Channel_0_WQ_row_buffer_hit 29
Channel_0_WQ_row_buffer_miss 314
Channel_0_WQ_full 0
Channel_0_dbus_congested 878198

avg_congested_cycle 10

DRAM_bw_pochs 635313
DRAM_bw_level_0 97224
DRAM_bw_level_1 166503
DRAM_bw_level_2 177294
DRAM_bw_level_3 194292
