*************************************************
   ChampSim Multicore Out-of-Order Simulator
   Last compiled: Apr  3 2025 20:54:34
*************************************************
parsing config file: /home/zir/Pythia/config/pythia.ini

trace_0 /home/zir/ChampSim/ML-DPC/ChampSimTraces/spec17/654.roms-s1.trace.xz
adding L2C_PREFETCHER: Scooby
Initialize SHIP state
warmup_instructions 10000000
simulation_instructions 50000000
champsim_seed 164
measure_ipc 0
measure_ipc_epoch 1000
measure_dram_bw 1
measure_dram_bw_epoch 256
measure_cache_acc 1
measure_cache_acc_epoch 1024
l1d_perfect 0
l2c_perfect 0
llc_perfect 0
l1d_semi_perfect 0
l2c_semi_perfect 0
llc_semi_perfect 0
semi_perfect_cache_page_buffer_size 64

num_cpus 1
cpu_freq 4000
dram_io_freq 2400
page_size 4096
block_size 64
max_read_per_cycle 8
max_fill_per_cycle 1
dram_channels 1
log2_dram_channels 0
dram_ranks 1
dram_banks 8
dram_rows 65536
dram_columns 128
dram_row_size 8
dram_size 4096
dram_pages 1048576

fetch_width 6
decode_width 6
exec_width 4
lq_width 2
sq_width 2
retire_width 4
scheduler_size 128
branch_mispredict_penalty 20
rob_size 256
lq_size 72
sq_size 56
num_instr_destinations_sparc 4
num_instr_destinations 2
num_instr_sources 4

itlb_set 16
itlb_way 8
itlb_rq_size 16
itlb_wq_size 16
itlb_pq_size 0
itlb_mshr_size 8
itlb_latency 1

dtlb_set 16
dtlb_way 4
dtlb_rq_size 16
dtlb_wq_size 16
dtlb_pq_size 0
dtlb_mshr_size 8
dtlb_latency 1

stlb_set 128
stlb_way 12
stlb_rq_size 32
stlb_wq_size 32
stlb_pq_size 0
stlb_mshr_size 16
stlb_latency 8

l1i_size 32
l1i_set 64
l1i_way 8
l1i_rq_size 64
l1i_wq_size 64
l1i_pq_size 8
l1i_mshr_size 8
l1i_latency 1

l1d_size 32
l1d_set 64
l1d_way 8
l1d_rq_size 64
l1d_wq_size 64
l1d_pq_size 8
l1d_mshr_size 16
l1d_latency 4

l2c_size 256
l2c_set 512
l2c_way 8
l2c_rq_size 32
l2c_wq_size 32
l2c_pq_size 32
l2c_mshr_size 32
l2c_latency 10

llc_size 2048
llc_set 2048
llc_way 16
llc_rq_size 32
llc_wq_size 32
llc_pq_size 32
llc_mshr_size 64
llc_latency 20

dram_channel_width 8
dram_wq_size 64
dram_rq_size 64
tRP 15
tRCD 15
tCAS 12.5
dram_dbus_turn_around_time 30
dram_write_high_wm 56
dram_write_low_wm 48
min_dram_writes_per_switch 16
dram_mtps 2400
dram_dbus_return_time 13

scooby_alpha 0.0065088
scooby_gamma 0.556301
scooby_epsilon 0.00182284
scooby_state_num_bits 10
scooby_max_states 1024
scooby_seed 200
scooby_policy EGreedy
scooby_learning_type SARSA
scooby_actions 1,3,4,5,10,11,12,22,23,30,32,-1,-3,-6,0,
scooby_max_actions 15
scooby_pt_size 256
scooby_st_size 64
scooby_max_pcs 5
scooby_max_offsets 5
scooby_max_deltas 5
scooby_reward_none -4
scooby_reward_incorrect -8
scooby_reward_correct_untimely 12
scooby_reward_correct_timely 20
scooby_brain_zero_init 0
scooby_enable_reward_all 0
scooby_enable_track_multiple 0
scooby_enable_reward_out_of_bounds 1
scooby_reward_out_of_bounds -12
scooby_state_type 1
scooby_state_hash_type 11
scooby_access_debug 0
scooby_print_access_debug 0
scooby_print_access_debug_pc deadbeef
scooby_print_access_debug_pc_count 0
scooby_print_trace 0
scooby_enable_state_action_stats 1
scooby_enable_reward_tracker_hit 0
scooby_reward_tracker_hit -2
scooby_enable_featurewise_engine 1
scooby_pref_degree 1
scooby_enable_dyn_degree 1
scooby_max_to_avg_q_thresholds 0.5,1,2,
scooby_dyn_degrees 1,2,4,4,
scooby_multi_deg_select_type 2
scooby_last_pref_offset_conf_thresholds 1,3,8,
scooby_dyn_degrees_type2 1,2,4,6,
scooby_action_tracker_size 2
scooby_high_bw_thresh 4
scooby_enable_hbw_reward 1
scooby_reward_hbw_correct_timely 20
scooby_reward_hbw_correct_untimely 12
scooby_reward_hbw_incorrect -14
scooby_reward_hbw_none -2
scooby_reward_hbw_out_of_bounds -12
scooby_reward_hbw_tracker_hit -2
scooby_last_pref_offset_conf_thresholds_hbw 1,3,8,
scooby_dyn_degrees_type2_hbw 1,2,4,6,

le_enable_trace 0
le_trace_interval 0
le_trace_file_name 
le_trace_state 0
le_enable_score_plot 0
le_plot_file_name 
le_plot_actions 
le_enable_action_trace 0
le_action_trace_interval 0
le_action_trace_name 
le_enable_action_plot 0

le_featurewise_active_features PC, PC_Delta
le_featurewise_num_tilings 3,3,
le_featurewise_num_tiles 128,128,
le_featurewise_hash_types 2,2,
le_featurewise_enable_tiling_offset 1,1,
le_featurewise_max_q_thresh 0.5
le_featurewise_enable_action_fallback 1
le_featurewise_feature_weights 1,1,
le_featurewise_enable_dynamic_weight 0
le_featurewise_weight_gradient 0.001
le_featurewise_disable_adjust_weight_all_features_align 1
le_featurewise_selective_update 0
le_featurewise_pooling_type 2
le_featurewise_enable_dyn_action_fallback 1
le_featurewise_bw_acc_check_level 1
le_featurewise_acc_thresh 2
le_featurewise_enable_trace 0
le_featurewise_trace_feature_type 0
le_featurewise_trace_feature 
le_featurewise_trace_interval 0
le_featurewise_trace_record_count 0
le_featurewise_trace_file_name 
le_featurewise_enable_score_plot 0
le_featurewise_plot_actions 
le_featurewise_plot_file_name 


Heartbeat CPU  0 instructions:    1000001 cycles:     473898 heartbeat IPC: 2.11016 cumulative IPC: 2.11016 (Simulation time: 0 hr 0 min 1 sec) 
Heartbeat CPU  0 instructions:    2000001 cycles:     912911 heartbeat IPC: 2.27784 cumulative IPC: 2.19080 (Simulation time: 0 hr 0 min 2 sec) 
Heartbeat CPU  0 instructions:    3000001 cycles:    1348009 heartbeat IPC: 2.29833 cumulative IPC: 2.22551 (Simulation time: 0 hr 0 min 3 sec) 
Heartbeat CPU  0 instructions:    4000000 cycles:    1780491 heartbeat IPC: 2.31223 cumulative IPC: 2.24657 (Simulation time: 0 hr 0 min 4 sec) 
Heartbeat CPU  0 instructions:    5000001 cycles:    2213353 heartbeat IPC: 2.31021 cumulative IPC: 2.25902 (Simulation time: 0 hr 0 min 6 sec) 
Heartbeat CPU  0 instructions:    6000000 cycles:    2646355 heartbeat IPC: 2.30946 cumulative IPC: 2.26727 (Simulation time: 0 hr 0 min 7 sec) 
Heartbeat CPU  0 instructions:    7000003 cycles:    3078830 heartbeat IPC: 2.31228 cumulative IPC: 2.27359 (Simulation time: 0 hr 0 min 8 sec) 
Heartbeat CPU  0 instructions:    8000000 cycles:    3510961 heartbeat IPC: 2.31411 cumulative IPC: 2.27858 (Simulation time: 0 hr 0 min 9 sec) 
Heartbeat CPU  0 instructions:    9000000 cycles:    3943141 heartbeat IPC: 2.31385 cumulative IPC: 2.28244 (Simulation time: 0 hr 0 min 11 sec) 
Heartbeat CPU  0 instructions:   10000003 cycles:    4375719 heartbeat IPC: 2.31173 cumulative IPC: 2.28534 (Simulation time: 0 hr 0 min 12 sec) 

Warmup complete CPU  0 instructions:   10000003 cycles:    4375719 (Simulation time: 0 hr 0 min 12 sec) 

Heartbeat CPU  0 instructions:   11000003 cycles:    5401345 heartbeat IPC: 0.97501 cumulative IPC: 0.97501 (Simulation time: 0 hr 0 min 13 sec) 
Heartbeat CPU  0 instructions:   12000000 cycles:    6428686 heartbeat IPC: 0.97338 cumulative IPC: 0.97420 (Simulation time: 0 hr 0 min 15 sec) 
Heartbeat CPU  0 instructions:   13000003 cycles:    7453782 heartbeat IPC: 0.97552 cumulative IPC: 0.97464 (Simulation time: 0 hr 0 min 17 sec) 
Heartbeat CPU  0 instructions:   14000003 cycles:    8481907 heartbeat IPC: 0.97264 cumulative IPC: 0.97414 (Simulation time: 0 hr 0 min 18 sec) 
Heartbeat CPU  0 instructions:   15000002 cycles:    9507212 heartbeat IPC: 0.97532 cumulative IPC: 0.97438 (Simulation time: 0 hr 0 min 20 sec) 
Heartbeat CPU  0 instructions:   16000000 cycles:   10531770 heartbeat IPC: 0.97603 cumulative IPC: 0.97465 (Simulation time: 0 hr 0 min 22 sec) 
Heartbeat CPU  0 instructions:   17000000 cycles:   11555168 heartbeat IPC: 0.97714 cumulative IPC: 0.97500 (Simulation time: 0 hr 0 min 23 sec) 
Heartbeat CPU  0 instructions:   18000000 cycles:   12579058 heartbeat IPC: 0.97667 cumulative IPC: 0.97521 (Simulation time: 0 hr 0 min 25 sec) 
Heartbeat CPU  0 instructions:   19000001 cycles:   13604842 heartbeat IPC: 0.97487 cumulative IPC: 0.97517 (Simulation time: 0 hr 0 min 27 sec) 
Heartbeat CPU  0 instructions:   20000000 cycles:   14629889 heartbeat IPC: 0.97556 cumulative IPC: 0.97521 (Simulation time: 0 hr 0 min 28 sec) 
Heartbeat CPU  0 instructions:   21000000 cycles:   15652864 heartbeat IPC: 0.97754 cumulative IPC: 0.97542 (Simulation time: 0 hr 0 min 30 sec) 
Heartbeat CPU  0 instructions:   22000000 cycles:   16678567 heartbeat IPC: 0.97494 cumulative IPC: 0.97538 (Simulation time: 0 hr 0 min 31 sec) 
Heartbeat CPU  0 instructions:   23000003 cycles:   17707665 heartbeat IPC: 0.97173 cumulative IPC: 0.97510 (Simulation time: 0 hr 0 min 33 sec) 
Heartbeat CPU  0 instructions:   24000000 cycles:   18733766 heartbeat IPC: 0.97456 cumulative IPC: 0.97506 (Simulation time: 0 hr 0 min 35 sec) 
Heartbeat CPU  0 instructions:   25000000 cycles:   19757097 heartbeat IPC: 0.97720 cumulative IPC: 0.97521 (Simulation time: 0 hr 0 min 36 sec) 
Heartbeat CPU  0 instructions:   26000001 cycles:   20781859 heartbeat IPC: 0.97584 cumulative IPC: 0.97524 (Simulation time: 0 hr 0 min 38 sec) 
Heartbeat CPU  0 instructions:   27000002 cycles:   21806607 heartbeat IPC: 0.97585 cumulative IPC: 0.97528 (Simulation time: 0 hr 0 min 40 sec) 
Heartbeat CPU  0 instructions:   28000000 cycles:   22828041 heartbeat IPC: 0.97901 cumulative IPC: 0.97549 (Simulation time: 0 hr 0 min 41 sec) 
Heartbeat CPU  0 instructions:   29000002 cycles:   23849776 heartbeat IPC: 0.97873 cumulative IPC: 0.97566 (Simulation time: 0 hr 0 min 43 sec) 
Heartbeat CPU  0 instructions:   30000001 cycles:   24875038 heartbeat IPC: 0.97536 cumulative IPC: 0.97564 (Simulation time: 0 hr 0 min 44 sec) 
Heartbeat CPU  0 instructions:   31000003 cycles:   25900920 heartbeat IPC: 0.97477 cumulative IPC: 0.97560 (Simulation time: 0 hr 0 min 46 sec) 
Heartbeat CPU  0 instructions:   32000000 cycles:   26925804 heartbeat IPC: 0.97572 cumulative IPC: 0.97561 (Simulation time: 0 hr 0 min 48 sec) 
Heartbeat CPU  0 instructions:   33000002 cycles:   27948950 heartbeat IPC: 0.97738 cumulative IPC: 0.97568 (Simulation time: 0 hr 0 min 49 sec) 
Heartbeat CPU  0 instructions:   34000001 cycles:   28970698 heartbeat IPC: 0.97871 cumulative IPC: 0.97581 (Simulation time: 0 hr 0 min 51 sec) 
Heartbeat CPU  0 instructions:   35000002 cycles:   29993550 heartbeat IPC: 0.97766 cumulative IPC: 0.97588 (Simulation time: 0 hr 0 min 53 sec) 
Heartbeat CPU  0 instructions:   36000000 cycles:   31016099 heartbeat IPC: 0.97795 cumulative IPC: 0.97596 (Simulation time: 0 hr 0 min 54 sec) 
Heartbeat CPU  0 instructions:   37000000 cycles:   32036640 heartbeat IPC: 0.97987 cumulative IPC: 0.97611 (Simulation time: 0 hr 0 min 56 sec) 
Heartbeat CPU  0 instructions:   38000001 cycles:   33057352 heartbeat IPC: 0.97971 cumulative IPC: 0.97623 (Simulation time: 0 hr 0 min 57 sec) 
Heartbeat CPU  0 instructions:   39000001 cycles:   34082343 heartbeat IPC: 0.97562 cumulative IPC: 0.97621 (Simulation time: 0 hr 0 min 59 sec) 
Heartbeat CPU  0 instructions:   40000000 cycles:   35106769 heartbeat IPC: 0.97616 cumulative IPC: 0.97621 (Simulation time: 0 hr 1 min 1 sec) 
Heartbeat CPU  0 instructions:   41000003 cycles:   36128356 heartbeat IPC: 0.97887 cumulative IPC: 0.97630 (Simulation time: 0 hr 1 min 2 sec) 
Heartbeat CPU  0 instructions:   42000000 cycles:   37151125 heartbeat IPC: 0.97773 cumulative IPC: 0.97634 (Simulation time: 0 hr 1 min 4 sec) 
Heartbeat CPU  0 instructions:   43000001 cycles:   38173467 heartbeat IPC: 0.97815 cumulative IPC: 0.97640 (Simulation time: 0 hr 1 min 6 sec) 
Heartbeat CPU  0 instructions:   44000000 cycles:   39192701 heartbeat IPC: 0.98113 cumulative IPC: 0.97653 (Simulation time: 0 hr 1 min 7 sec) 
Heartbeat CPU  0 instructions:   45000001 cycles:   40212335 heartbeat IPC: 0.98075 cumulative IPC: 0.97665 (Simulation time: 0 hr 1 min 9 sec) 
Heartbeat CPU  0 instructions:   46000002 cycles:   41234006 heartbeat IPC: 0.97879 cumulative IPC: 0.97671 (Simulation time: 0 hr 1 min 11 sec) 
Heartbeat CPU  0 instructions:   47000000 cycles:   42256870 heartbeat IPC: 0.97765 cumulative IPC: 0.97674 (Simulation time: 0 hr 1 min 12 sec) 
Heartbeat CPU  0 instructions:   48000000 cycles:   43281323 heartbeat IPC: 0.97613 cumulative IPC: 0.97672 (Simulation time: 0 hr 1 min 14 sec) 
Heartbeat CPU  0 instructions:   49000001 cycles:   44302811 heartbeat IPC: 0.97896 cumulative IPC: 0.97678 (Simulation time: 0 hr 1 min 15 sec) 
Heartbeat CPU  0 instructions:   50000001 cycles:   45321925 heartbeat IPC: 0.98124 cumulative IPC: 0.97689 (Simulation time: 0 hr 1 min 17 sec) 
Heartbeat CPU  0 instructions:   51000003 cycles:   46342870 heartbeat IPC: 0.97949 cumulative IPC: 0.97695 (Simulation time: 0 hr 1 min 19 sec) 
Heartbeat CPU  0 instructions:   52000000 cycles:   47364500 heartbeat IPC: 0.97883 cumulative IPC: 0.97700 (Simulation time: 0 hr 1 min 20 sec) 
Heartbeat CPU  0 instructions:   53000001 cycles:   48384381 heartbeat IPC: 0.98051 cumulative IPC: 0.97708 (Simulation time: 0 hr 1 min 22 sec) 
Heartbeat CPU  0 instructions:   54000003 cycles:   49404856 heartbeat IPC: 0.97994 cumulative IPC: 0.97715 (Simulation time: 0 hr 1 min 24 sec) 
Heartbeat CPU  0 instructions:   55000003 cycles:   50425181 heartbeat IPC: 0.98008 cumulative IPC: 0.97721 (Simulation time: 0 hr 1 min 25 sec) 
Heartbeat CPU  0 instructions:   56000000 cycles:   51444891 heartbeat IPC: 0.98067 cumulative IPC: 0.97729 (Simulation time: 0 hr 1 min 27 sec) 
Heartbeat CPU  0 instructions:   57000000 cycles:   52466159 heartbeat IPC: 0.97917 cumulative IPC: 0.97733 (Simulation time: 0 hr 1 min 28 sec) 
Heartbeat CPU  0 instructions:   58000000 cycles:   53488554 heartbeat IPC: 0.97810 cumulative IPC: 0.97734 (Simulation time: 0 hr 1 min 30 sec) 
Heartbeat CPU  0 instructions:   59000000 cycles:   54509211 heartbeat IPC: 0.97976 cumulative IPC: 0.97739 (Simulation time: 0 hr 1 min 32 sec) 
Heartbeat CPU  0 instructions:   60000000 cycles:   55529384 heartbeat IPC: 0.98023 cumulative IPC: 0.97745 (Simulation time: 0 hr 1 min 33 sec) 
Finished CPU 0 instructions: 50000000 cycles: 51153679 cumulative IPC: 0.97745 (Simulation time: 0 hr 1 min 33 sec) 

ChampSim completed all CPUs

[ROI Statistics]
Core_0_instructions 50000000
Core_0_cycles 51153679
Core_0_IPC 0.97745

Core_0_branch_prediction_accuracy 98.13097
Core_0_branch_MPKI 2.86834
Core_0_average_ROB_occupancy_at_mispredict 154.16302

Core_0_L1D_total_access 9332017
Core_0_L1D_total_hit 9322470
Core_0_L1D_total_miss 9547
Core_0_L1D_loads 5922025
Core_0_L1D_load_hit 5913303
Core_0_L1D_load_miss 8722
Core_0_L1D_RFOs 3409992
Core_0_L1D_RFO_hit 3409167
Core_0_L1D_RFO_miss 825
Core_0_L1D_prefetches 0
Core_0_L1D_prefetch_hit 0
Core_0_L1D_prefetch_miss 0
Core_0_L1D_writebacks 0
Core_0_L1D_writeback_hit 0
Core_0_L1D_writeback_miss 0
Core_0_L1D_prefetch_requested 0
Core_0_L1D_prefetch_dropped 0
Core_0_L1D_prefetch_issued 0
Core_0_L1D_prefetch_filled 0
Core_0_L1D_prefetch_useful 0
Core_0_L1D_prefetch_useless 0
Core_0_L1D_prefetch_late 0
Core_0_L1D_average_miss_latency 32.13041

Core_0_L1D_rq_access 9613627
Core_0_L1D_rq_forward 0
Core_0_L1D_rq_merged 3691483
Core_0_L1D_rq_to_cache 5922118
Core_0_L1D_rq_full 0

Core_0_L1D_wq_access 3441020
Core_0_L1D_wq_forward 26
Core_0_L1D_wq_merged 31004
Core_0_L1D_wq_to_cache 3410016
Core_0_L1D_wq_full 0

Core_0_L1D_pq_access 0
Core_0_L1D_pq_forward 0
Core_0_L1D_pq_merged 0
Core_0_L1D_pq_to_cache 0
Core_0_L1D_pq_full 0

Core_0_L1D_acc_epochs 54227
Core_0_L1D_acc_level_0 54227
Core_0_L1D_acc_level_1 0
Core_0_L1D_acc_level_2 0
Core_0_L1D_acc_level_3 0
Core_0_L1D_acc_level_4 0
Core_0_L1D_acc_level_5 0
Core_0_L1D_acc_level_6 0
Core_0_L1D_acc_level_7 0
Core_0_L1D_acc_level_8 0
Core_0_L1D_acc_level_9 0

Core_0_L1I_total_access 10894652
Core_0_L1I_total_hit 10894652
Core_0_L1I_total_miss 0
Core_0_L1I_loads 10894652
Core_0_L1I_load_hit 10894652
Core_0_L1I_load_miss 0
Core_0_L1I_RFOs 0
Core_0_L1I_RFO_hit 0
Core_0_L1I_RFO_miss 0
Core_0_L1I_prefetches 0
Core_0_L1I_prefetch_hit 0
Core_0_L1I_prefetch_miss 0
Core_0_L1I_writebacks 0
Core_0_L1I_writeback_hit 0
Core_0_L1I_writeback_miss 0
Core_0_L1I_prefetch_requested 0
Core_0_L1I_prefetch_dropped 0
Core_0_L1I_prefetch_issued 0
Core_0_L1I_prefetch_filled 0
Core_0_L1I_prefetch_useful 0
Core_0_L1I_prefetch_useless 0
Core_0_L1I_prefetch_late 0
Core_0_L1I_average_miss_latency -nan

Core_0_L1I_rq_access 50000005
Core_0_L1I_rq_forward 0
Core_0_L1I_rq_merged 39105353
Core_0_L1I_rq_to_cache 10894652
Core_0_L1I_rq_full 0

Core_0_L1I_wq_access 0
Core_0_L1I_wq_forward 0
Core_0_L1I_wq_merged 0
Core_0_L1I_wq_to_cache 0
Core_0_L1I_wq_full 0

Core_0_L1I_pq_access 0
Core_0_L1I_pq_forward 0
Core_0_L1I_pq_merged 0
Core_0_L1I_pq_to_cache 0
Core_0_L1I_pq_full 0

Core_0_L1I_acc_epochs 54227
Core_0_L1I_acc_level_0 54227
Core_0_L1I_acc_level_1 0
Core_0_L1I_acc_level_2 0
Core_0_L1I_acc_level_3 0
Core_0_L1I_acc_level_4 0
Core_0_L1I_acc_level_5 0
Core_0_L1I_acc_level_6 0
Core_0_L1I_acc_level_7 0
Core_0_L1I_acc_level_8 0
Core_0_L1I_acc_level_9 0

Core_0_L2C_total_access 16820
Core_0_L2C_total_hit 11896
Core_0_L2C_total_miss 4924
Core_0_L2C_loads 8722
Core_0_L2C_load_hit 7913
Core_0_L2C_load_miss 809
Core_0_L2C_RFOs 825
Core_0_L2C_RFO_hit 689
Core_0_L2C_RFO_miss 136
Core_0_L2C_prefetches 6427
Core_0_L2C_prefetch_hit 2449
Core_0_L2C_prefetch_miss 3978
Core_0_L2C_writebacks 846
Core_0_L2C_writeback_hit 845
Core_0_L2C_writeback_miss 1
Core_0_L2C_prefetch_requested 9184
Core_0_L2C_prefetch_dropped 0
Core_0_L2C_prefetch_issued 9184
Core_0_L2C_prefetch_filled 5950
Core_0_L2C_prefetch_useful 916
Core_0_L2C_prefetch_useless 2653
Core_0_L2C_prefetch_late 15
Core_0_L2C_average_miss_latency 193.84058

Core_0_L2C_rq_access 9547
Core_0_L2C_rq_forward 0
Core_0_L2C_rq_merged 0
Core_0_L2C_rq_to_cache 9547
Core_0_L2C_rq_full 0

Core_0_L2C_wq_access 846
Core_0_L2C_wq_forward 0
Core_0_L2C_wq_merged 0
Core_0_L2C_wq_to_cache 846
Core_0_L2C_wq_full 0

Core_0_L2C_pq_access 9184
Core_0_L2C_pq_forward 0
Core_0_L2C_pq_merged 246
Core_0_L2C_pq_to_cache 8938
Core_0_L2C_pq_full 0

Core_0_L2C_acc_epochs 54227
Core_0_L2C_acc_level_0 53612
Core_0_L2C_acc_level_1 273
Core_0_L2C_acc_level_2 136
Core_0_L2C_acc_level_3 61
Core_0_L2C_acc_level_4 11
Core_0_L2C_acc_level_5 69
Core_0_L2C_acc_level_6 10
Core_0_L2C_acc_level_7 17
Core_0_L2C_acc_level_8 3
Core_0_L2C_acc_level_9 35

Core_0_LLC_total_access 4978
Core_0_LLC_total_hit 810
Core_0_LLC_total_miss 4168
Core_0_LLC_loads 796
Core_0_LLC_load_hit 164
Core_0_LLC_load_miss 632
Core_0_LLC_RFOs 136
Core_0_LLC_RFO_hit 0
Core_0_LLC_RFO_miss 136
Core_0_LLC_prefetches 3991
Core_0_LLC_prefetch_hit 591
Core_0_LLC_prefetch_miss 3400
Core_0_LLC_writebacks 55
Core_0_LLC_writeback_hit 55
Core_0_LLC_writeback_miss 0
Core_0_LLC_prefetch_requested 0
Core_0_LLC_prefetch_dropped 0
Core_0_LLC_prefetch_issued 0
Core_0_LLC_prefetch_filled 5373
Core_0_LLC_prefetch_useful 164
Core_0_LLC_prefetch_useless 0
Core_0_LLC_prefetch_late 0
Core_0_LLC_average_miss_latency 193.54894

Core_0_LLC_rq_access 932
Core_0_LLC_rq_forward 0
Core_0_LLC_rq_merged 0
Core_0_LLC_rq_to_cache 932
Core_0_LLC_rq_full 0

Core_0_LLC_wq_access 55
Core_0_LLC_wq_forward 0
Core_0_LLC_wq_merged 0
Core_0_LLC_wq_to_cache 55
Core_0_LLC_wq_full 0

Core_0_LLC_pq_access 5965
Core_0_LLC_pq_forward 0
Core_0_LLC_pq_merged 0
Core_0_LLC_pq_to_cache 5965
Core_0_LLC_pq_full 0

Core_0_LLC_acc_epochs 54228
Core_0_LLC_acc_level_0 54073
Core_0_LLC_acc_level_1 78
Core_0_LLC_acc_level_2 38
Core_0_LLC_acc_level_3 10
Core_0_LLC_acc_level_4 0
Core_0_LLC_acc_level_5 19
Core_0_LLC_acc_level_6 0
Core_0_LLC_acc_level_7 4
Core_0_LLC_acc_level_8 0
Core_0_LLC_acc_level_9 6

Core_0_major_page_fault 0
Core_0_minor_page_fault 547

scooby_st_lookup 10958
scooby_st_hit 606
scooby_st_evict 10288
scooby_st_insert 10352
scooby_st_streaming 0

scooby_predict_called 10958
scooby_predict_out_of_bounds 1492
scooby_predict_action_1 2739
scooby_predict_issue_action_1 2734
scooby_predict_hit_action_1 5
scooby_predict_out_of_bounds_action_1 38
scooby_predict_action_3 541
scooby_predict_issue_action_3 539
scooby_predict_hit_action_3 2
scooby_predict_out_of_bounds_action_3 23
scooby_predict_action_4 514
scooby_predict_issue_action_4 509
scooby_predict_hit_action_4 5
scooby_predict_out_of_bounds_action_4 38
scooby_predict_action_5 529
scooby_predict_issue_action_5 527
scooby_predict_hit_action_5 2
scooby_predict_out_of_bounds_action_5 46
scooby_predict_action_10 477
scooby_predict_issue_action_10 476
scooby_predict_hit_action_10 1
scooby_predict_out_of_bounds_action_10 70
scooby_predict_action_11 441
scooby_predict_issue_action_11 440
scooby_predict_hit_action_11 1
scooby_predict_out_of_bounds_action_11 108
scooby_predict_action_12 448
scooby_predict_issue_action_12 448
scooby_predict_hit_action_12 0
scooby_predict_out_of_bounds_action_12 102
scooby_predict_action_22 348
scooby_predict_issue_action_22 348
scooby_predict_hit_action_22 0
scooby_predict_out_of_bounds_action_22 187
scooby_predict_action_23 321
scooby_predict_issue_action_23 321
scooby_predict_hit_action_23 0
scooby_predict_out_of_bounds_action_23 202
scooby_predict_action_30 253
scooby_predict_issue_action_30 253
scooby_predict_hit_action_30 0
scooby_predict_out_of_bounds_action_30 286
scooby_predict_action_32 228
scooby_predict_issue_action_32 228
scooby_predict_hit_action_32 0
scooby_predict_out_of_bounds_action_32 308
scooby_predict_action_-1 615
scooby_predict_issue_action_-1 600
scooby_predict_hit_action_-1 15
scooby_predict_out_of_bounds_action_-1 8
scooby_predict_action_-3 513
scooby_predict_issue_action_-3 512
scooby_predict_hit_action_-3 1
scooby_predict_out_of_bounds_action_-3 23
scooby_predict_action_-6 510
scooby_predict_issue_action_-6 510
scooby_predict_hit_action_-6 0
scooby_predict_out_of_bounds_action_-6 53
scooby_predict_action_0 989
scooby_predict_issue_action_0 0
scooby_predict_hit_action_0 0
scooby_predict_out_of_bounds_action_0 0
scooby_predict_multi_deg_called 217
scooby_predict_predicted 9184
scooby_predict_multi_deg 739
scooby_predict_multi_deg_2 213
scooby_predict_multi_deg_3 165
scooby_predict_multi_deg_4 161
scooby_predict_multi_deg_5 101
scooby_predict_multi_deg_6 99
scooby_predict_multi_deg_7 0
scooby_predict_multi_deg_8 0
scooby_predict_multi_deg_9 0
scooby_predict_multi_deg_10 0
scooby_predict_multi_deg_11 0
scooby_predict_multi_deg_12 0
scooby_predict_multi_deg_13 0
scooby_predict_multi_deg_14 0
scooby_predict_multi_deg_15 0
scooby_predict_multi_deg_16 0

scooby_selected_deg_1 8228
scooby_selected_deg_2 46
scooby_selected_deg_3 0
scooby_selected_deg_4 60
scooby_selected_deg_5 0
scooby_selected_deg_6 111
scooby_selected_deg_7 0
scooby_selected_deg_8 0
scooby_selected_deg_9 0
scooby_selected_deg_10 0
scooby_selected_deg_11 0
scooby_selected_deg_12 0
scooby_selected_deg_13 0
scooby_selected_deg_14 0
scooby_selected_deg_15 0
scooby_selected_deg_16 0

scooby_state_441b52|3|0 11,1,3,2,1,2,3,2,2,1,3,3,2,2,2,40,
scooby_state_441b52|61|0 9,1,3,3,2,3,3,1,1,2,3,3,0,3,3,40,
scooby_state_441b52|56|0 9,1,3,2,1,3,2,1,1,3,2,3,1,3,5,40,
scooby_state_441b52|54|0 10,3,2,2,2,2,1,1,2,3,3,1,3,1,4,40,
scooby_state_441aee|29|0 4,3,3,4,2,3,2,0,3,3,3,2,1,2,4,39,
scooby_state_441aee|32|0 8,2,2,2,2,3,2,0,3,3,3,2,2,1,4,39,
scooby_state_441aee|30|0 4,4,2,2,4,2,3,0,3,2,3,3,3,1,3,39,
scooby_state_441b52|62|0 9,1,3,2,1,3,3,0,1,3,2,3,0,3,5,39,
scooby_state_441b52|2|0 11,2,1,2,1,0,2,3,4,1,3,2,2,1,3,38,
scooby_state_441b52|13|0 10,1,1,1,4,2,1,3,1,2,0,3,3,3,3,38,
scooby_state_441b52|6|0 10,3,1,2,1,2,3,2,2,0,3,2,2,2,3,38,
scooby_state_441ba4|30|0 8,3,1,2,0,2,2,1,2,3,2,1,2,5,4,38,
scooby_state_441b52|5|0 10,3,1,1,2,0,2,3,4,0,2,1,3,1,4,37,
scooby_state_441ba4|29|0 6,2,2,1,1,4,4,0,1,3,3,1,2,3,4,37,
scooby_state_441b52|1|0 9,1,3,2,2,1,3,3,2,2,1,3,2,1,2,37,
scooby_state_441b52|0|0 11,1,3,3,0,2,3,1,1,2,3,2,1,2,2,37,
scooby_state_441ba4|32|0 7,2,1,1,2,3,2,1,2,2,3,2,1,4,4,37,
scooby_state_441b52|12|0 9,2,1,2,1,2,2,2,2,3,0,3,1,3,3,36,
scooby_state_441aee|33|0 5,4,3,2,2,2,3,0,3,2,1,4,1,1,3,36,
scooby_state_441b52|57|0 10,1,2,3,0,2,1,3,0,3,3,2,2,0,3,35,
scooby_state_441aee|40|0 7,2,2,2,0,3,3,2,0,3,1,0,2,3,5,35,
scooby_state_441aee|38|0 7,2,3,1,1,3,2,3,0,3,3,2,1,1,3,35,
scooby_state_441ba4|38|0 3,2,1,2,3,2,4,2,2,3,2,2,1,1,4,34,
scooby_state_441b52|11|0 8,1,0,1,2,1,1,3,4,2,1,2,3,0,5,34,
scooby_state_441aee|39|0 5,4,1,4,2,1,3,2,0,2,3,2,1,2,2,34,
scooby_state_441b52|55|0 7,1,3,3,2,3,1,0,1,2,3,1,2,2,3,34,
scooby_state_441b52|7|0 9,1,2,0,4,1,3,2,1,0,2,1,3,3,1,33,
scooby_state_441ba4|40|0 4,2,4,3,4,0,2,2,2,1,2,2,2,0,3,33,
scooby_state_441aee|48|0 5,2,0,5,2,1,1,2,3,1,3,4,2,1,1,33,
scooby_state_441b52|15|0 6,2,2,2,1,1,2,2,1,3,1,2,1,3,3,32,
scooby_state_441b52|9|0 10,2,0,2,0,3,2,1,1,2,1,2,1,3,2,32,
scooby_state_441aee|43|0 4,1,2,2,2,1,2,2,1,2,2,1,3,2,5,32,
scooby_state_441aee|45|0 3,6,0,5,1,1,1,3,3,1,3,3,1,1,0,32,
scooby_state_441b52|60|0 8,2,0,3,1,1,1,2,2,2,3,1,0,2,3,31,
scooby_state_441b52|16|0 8,1,0,1,3,0,1,2,1,2,2,1,3,2,4,31,
scooby_state_441ba4|33|0 7,2,1,3,2,2,1,2,2,1,0,2,1,3,2,31,
scooby_state_441b52|8|0 9,3,1,1,2,1,1,3,4,0,2,0,2,0,2,31,
scooby_state_441aee|41|0 9,0,2,2,0,3,2,3,2,1,3,0,1,0,3,31,
scooby_state_441b52|4|0 7,1,0,1,3,1,3,3,1,2,2,1,3,0,2,30,
scooby_state_441b52|53|0 5,1,3,1,1,3,0,1,1,3,2,2,2,2,3,30,
scooby_state_441aee|49|0 8,0,0,2,2,0,0,1,1,3,1,2,3,4,3,30,
scooby_state_441aee|44|0 8,1,2,2,0,2,0,2,3,0,2,2,2,1,3,30,
scooby_state_441ba4|39|0 4,3,0,2,2,1,2,2,1,3,3,2,2,0,3,30,
scooby_state_441aee|31|0 6,1,2,1,2,1,3,0,1,3,1,2,1,1,5,30,
scooby_state_441aee|34|0 5,1,2,1,0,2,3,1,1,1,2,3,2,1,5,30,
scooby_state_441ba4|43|0 4,4,2,3,3,0,2,2,1,1,2,3,1,0,2,30,
scooby_state_441aee|42|0 4,4,3,5,0,2,3,1,0,0,1,2,2,0,2,29,
scooby_state_441b33|3|0 4,0,2,2,2,1,2,1,0,3,2,2,2,2,4,29,
scooby_state_441ad6|50|0 9,1,2,1,0,1,2,1,0,3,1,2,1,1,4,29,
scooby_state_441b83|3|0 8,0,1,1,1,2,2,1,2,3,1,1,2,1,3,29,
scooby_state_441ba4|44|0 7,3,1,1,3,0,2,1,2,0,1,1,2,1,4,29,
scooby_state_4416b1|54|6 1,1,2,2,1,1,1,1,1,1,1,1,15,0,0,29,
scooby_state_441880|50|0 9,0,1,2,1,1,1,2,0,3,2,1,2,1,3,29,
scooby_state_441ba4|41|0 5,2,2,1,3,0,2,2,3,2,2,1,1,0,3,29,
scooby_state_441b52|58|0 9,1,3,2,2,2,1,0,0,0,3,1,0,3,2,29,
scooby_state_441b91|61|0 7,1,1,1,1,2,1,0,2,3,1,2,2,1,3,28,
scooby_state_441ad6|32|0 7,2,1,0,1,2,2,1,1,2,1,1,2,2,3,28,
scooby_state_441ba4|35|0 6,1,1,1,2,3,0,1,1,1,1,2,0,4,4,28,
scooby_state_441880|48|0 8,0,2,1,1,1,1,2,0,2,2,2,1,2,3,28,
scooby_state_441ba4|34|0 3,1,2,3,2,2,1,2,0,0,2,3,0,2,5,28,
scooby_state_441b91|6|0 7,1,1,2,0,2,1,0,2,3,1,2,2,1,3,28,
scooby_state_441880|32|0 8,2,1,2,1,1,2,1,1,3,1,0,2,1,2,28,
scooby_state_441ba4|37|0 4,2,1,2,2,2,1,1,0,1,2,3,2,2,3,28,
scooby_state_441b91|56|0 4,2,2,1,2,2,1,2,2,1,2,1,1,2,2,27,
scooby_state_441ae2|50|0 8,1,2,1,1,2,1,0,2,3,1,1,1,1,2,27,
scooby_state_441880|30|0 7,1,2,0,2,1,2,1,2,2,2,0,2,1,2,27,
scooby_state_441b33|56|0 3,1,2,1,1,2,1,1,0,2,2,3,3,2,3,27,
scooby_state_441b83|56|0 6,1,2,1,2,2,2,1,1,1,1,1,1,2,3,27,
scooby_state_441b91|13|0 7,0,2,2,0,1,2,2,0,1,2,2,2,1,3,27,
scooby_state_441b83|5|0 7,0,2,2,0,2,1,2,2,2,1,1,1,1,3,27,
scooby_state_441ad6|30|0 7,1,1,1,2,1,2,1,1,1,1,1,1,3,3,27,
scooby_state_441aee|37|0 5,2,0,0,1,1,2,1,0,2,1,2,1,4,5,27,
scooby_state_441ba4|42|0 5,2,1,2,3,0,1,3,1,0,1,2,2,0,3,26,
scooby_state_441aee|28|0 1,2,2,1,2,2,2,0,1,2,1,2,1,4,3,26,
scooby_state_441aee|35|0 9,1,1,0,1,2,1,1,1,2,1,2,1,1,2,26,
scooby_state_441b91|2|0 8,0,1,0,1,1,2,0,2,1,1,3,1,2,3,26,
scooby_state_441b83|1|0 5,1,2,0,2,2,2,1,2,1,1,1,1,2,3,26,
scooby_state_441aee|27|0 3,3,2,1,3,1,1,0,2,1,3,2,2,1,1,26,
scooby_state_441aee|46|0 2,3,0,2,1,0,2,1,1,1,1,1,4,2,5,26,
scooby_state_441b83|12|0 7,0,1,2,1,1,2,1,1,2,1,1,1,2,3,26,
scooby_state_441b91|1|0 5,1,2,2,1,2,0,2,2,2,1,1,1,2,2,26,
scooby_state_441ba4|27|0 5,3,1,1,1,1,1,0,2,3,1,0,1,3,3,26,
scooby_state_441ad6|48|0 9,1,1,2,1,1,2,1,0,2,0,0,2,1,3,26,
scooby_state_441ae2|32|0 6,2,2,1,1,2,0,1,2,2,2,1,1,0,3,26,
scooby_state_441880|38|0 5,2,2,1,2,2,1,2,1,1,1,2,1,1,2,26,
scooby_state_441ba4|20|0 1,1,1,0,1,2,1,2,2,3,2,2,1,3,4,26,
scooby_state_441c2b|50|0 10,1,1,1,0,2,2,2,0,1,0,1,1,1,3,26,
scooby_state_441b91|3|0 5,2,2,1,1,2,0,2,2,3,0,1,2,1,2,26,
scooby_state_441ba4|31|0 5,2,1,3,0,1,0,0,0,1,2,2,2,2,4,25,
scooby_state_441880|49|0 5,2,2,1,1,2,1,2,2,0,1,0,1,2,3,25,
scooby_state_441880|40|0 4,2,2,1,2,2,1,2,2,0,1,1,0,2,3,25,
scooby_state_441b83|2|0 5,1,1,3,1,2,1,2,2,0,1,1,1,1,3,25,
scooby_state_441880|33|0 5,2,3,1,2,2,1,1,1,0,2,1,1,1,2,25,
scooby_state_44171d|11|0 9,1,1,1,1,1,2,1,1,1,1,1,1,1,2,25,
scooby_state_441880|51|0 6,2,3,1,1,2,1,1,0,0,2,1,1,2,2,25,
scooby_state_441ba4|48|0 6,1,0,0,2,2,1,2,1,1,2,0,1,2,4,25,
scooby_state_441ad6|29|0 4,3,1,1,2,3,1,2,2,2,1,0,1,0,2,25,
scooby_state_441ae2|49|0 4,2,0,2,1,2,1,2,1,1,0,1,1,3,4,25,
scooby_state_441ad6|49|0 5,2,2,1,1,2,0,2,3,1,1,0,1,1,3,25,
scooby_state_441b91|62|0 6,2,1,2,2,1,1,1,1,1,1,1,1,2,2,25,
scooby_state_441b91|12|0 5,2,2,1,1,2,0,2,1,3,0,1,2,1,2,25,
scooby_state_441b83|61|0 7,2,1,1,0,1,2,0,2,2,1,1,1,2,2,25,
scooby_state_441880|29|0 4,2,1,2,2,2,1,2,1,2,0,2,1,1,2,25,
scooby_state_441ba4|28|0 2,2,2,1,1,1,2,0,1,1,2,2,4,2,2,25,
scooby_state_441ae2|30|0 6,1,2,0,2,2,0,2,1,2,1,1,3,0,2,25,
scooby_state_441b83|62|0 5,1,1,1,2,2,0,3,2,2,0,1,2,1,2,25,
scooby_state_441ae2|38|0 3,3,1,2,1,0,2,2,2,0,2,2,1,1,2,24,
scooby_state_44188c|61|0 3,1,0,1,1,2,2,2,1,2,2,1,1,2,3,24,
scooby_state_441c2b|48|0 9,0,1,1,1,1,2,1,0,1,1,2,1,0,3,24,
scooby_state_441b91|0|0 7,1,1,2,0,0,1,0,1,2,1,2,2,2,2,24,
scooby_state_441880|34|0 5,1,1,2,0,2,2,2,0,1,1,1,2,2,2,24,
scooby_state_441c2b|32|0 6,2,1,1,1,1,1,1,1,3,0,0,2,1,3,24,
scooby_state_441b52|63|0 9,0,0,2,0,2,1,2,2,2,2,0,0,0,2,24,
scooby_state_441aee|47|0 7,1,0,1,1,2,0,2,1,1,2,2,1,1,2,24,
scooby_state_441ae2|29|0 3,2,1,2,2,0,3,1,1,1,2,2,1,1,2,24,
scooby_state_441c2b|30|0 7,0,2,0,2,1,1,1,1,2,0,1,3,0,3,24,
scooby_state_441b91|5|0 4,2,2,1,2,1,0,2,1,1,0,2,1,2,3,24,
scooby_state_441ad6|38|0 5,2,1,1,1,3,0,2,2,1,0,1,2,1,2,24,
scooby_state_441ba4|36|0 5,0,1,2,2,2,0,3,1,2,0,0,1,2,3,24,
scooby_state_441c2b|49|0 6,2,2,1,1,2,0,2,1,1,1,0,0,2,3,24,
scooby_state_44188c|30|0 5,1,1,1,1,1,0,1,1,0,2,1,2,2,4,23,
scooby_state_44188c|29|0 1,2,3,0,2,2,2,0,1,2,2,2,1,1,2,23,
scooby_state_44188c|48|0 6,1,1,1,1,1,1,0,1,0,2,1,1,2,4,23,
scooby_state_441880|41|0 7,0,1,2,0,1,1,1,1,3,1,1,1,1,2,23,
scooby_state_441aee|50|0 9,0,0,2,1,2,0,1,1,1,2,1,1,0,2,23,
scooby_state_441880|39|0 6,0,2,1,1,1,2,1,2,2,1,1,1,0,2,23,
scooby_state_441ae2|48|0 7,1,2,0,2,2,0,0,1,1,2,1,2,0,2,23,
scooby_state_441b83|6|0 5,2,2,0,0,1,2,0,2,1,1,2,1,2,2,23,
scooby_state_441ba4|45|0 4,2,1,3,3,0,1,3,1,0,1,0,1,0,3,23,
scooby_state_441ba4|23|0 6,2,1,0,1,1,1,2,0,1,1,1,1,3,2,23,
scooby_state_441880|43|0 5,0,1,2,0,0,1,2,1,1,1,2,2,2,3,23,
scooby_state_441c2b|29|0 4,3,1,2,1,1,0,2,2,2,1,2,0,0,2,23,
scooby_state_441b83|0|0 4,2,1,3,1,1,0,2,2,2,0,0,2,1,2,23,
scooby_state_44188c|56|0 2,1,2,2,1,2,2,1,2,2,1,1,2,0,2,23,
scooby_state_441b33|61|0 1,2,1,1,1,1,1,2,0,2,1,3,3,1,3,23,
scooby_state_441880|45|0 6,0,2,2,2,1,0,3,2,1,0,1,2,1,0,23,
scooby_state_441ad6|40|0 5,2,1,1,1,2,0,2,2,1,1,0,1,1,3,23,
scooby_state_441ad6|33|0 6,2,1,1,2,2,0,0,0,1,1,2,1,2,2,23,
scooby_state_44188c|2|0 7,1,1,0,1,1,1,0,0,1,3,2,1,1,3,23,
scooby_state_441b91|57|0 7,0,0,0,1,1,2,0,2,1,1,2,1,2,2,22,
scooby_state_441ad6|51|0 6,2,2,1,2,2,0,0,0,1,1,1,2,0,2,22,
scooby_state_441b52|14|0 8,1,0,0,1,0,0,2,1,1,0,1,1,2,4,22,
scooby_state_441c2b|38|0 6,2,1,2,1,1,0,1,2,2,1,1,0,0,2,22,
scooby_state_441880|35|0 7,2,0,1,1,1,1,0,2,1,1,1,1,1,2,22,
scooby_state_441b83|7|0 6,1,0,1,1,1,0,3,2,2,0,0,2,1,2,22,
scooby_state_441880|42|0 5,2,3,1,2,1,1,1,0,0,1,2,0,1,2,22,
scooby_state_44188c|1|0 2,1,1,2,1,2,2,2,1,2,1,1,2,1,1,22,
scooby_state_441880|37|0 6,0,1,0,1,2,1,0,2,2,2,0,1,1,3,22,
scooby_state_44188c|38|0 1,2,2,1,2,2,2,0,2,2,1,2,1,1,1,22,
scooby_state_441b52|17|0 8,0,0,1,1,0,1,1,2,2,2,1,2,0,1,22,
scooby_state_441ae2|33|0 5,2,0,1,2,0,2,1,1,1,1,0,2,1,3,22,
scooby_state_44188c|6|0 3,1,0,1,1,2,2,1,1,2,2,1,0,2,3,22,
scooby_state_441ae2|40|0 4,2,1,2,1,0,1,1,0,1,1,1,0,3,3,21,
scooby_state_441b33|12|0 3,0,2,1,1,1,0,1,1,2,1,1,2,2,3,21,
scooby_state_441b83|57|0 5,1,0,3,1,2,1,2,2,0,0,0,0,1,3,21,
scooby_state_441ce1|58|0 2,1,1,1,1,1,1,1,1,1,1,9,0,0,0,21,
scooby_state_441880|31|0 5,1,1,1,2,3,1,2,0,0,1,0,0,1,3,21,
scooby_state_441880|44|0 7,2,0,1,0,1,1,0,2,1,1,2,0,1,2,21,
scooby_state_441b83|9|0 3,1,1,2,2,2,0,2,2,1,0,0,2,2,1,21,
scooby_state_441b33|62|0 2,1,1,1,2,0,1,0,2,1,2,2,1,2,3,21,
scooby_state_441ad6|43|0 4,0,1,2,0,1,2,1,1,1,1,1,2,1,3,21,
scooby_state_441ad6|39|0 5,1,1,1,1,1,2,1,1,1,0,0,2,2,2,21,
scooby_state_441b91|7|0 5,1,1,1,2,1,1,1,1,1,1,1,1,1,2,21,
scooby_state_441b91|11|0 5,1,0,0,1,1,2,1,1,1,1,2,2,1,2,21,
scooby_state_441715|8|0 4,1,2,1,1,1,2,1,1,1,1,1,1,1,2,21,
scooby_state_441b33|2|0 2,1,1,1,3,2,2,1,2,0,1,2,0,0,3,21,
scooby_state_441ad6|34|0 3,1,1,2,0,2,2,2,1,0,1,1,2,1,2,21,
scooby_state_441b52|52|0 1,2,3,1,3,1,0,1,0,0,2,1,3,1,2,21,
scooby_state_441aee|23|0 7,3,1,2,1,1,0,1,1,0,0,1,1,1,1,21,
scooby_state_441ba4|46|0 1,3,1,0,2,0,1,1,1,1,3,2,2,1,2,21,
scooby_state_441b52|59|0 3,0,1,2,0,3,3,1,1,3,0,1,0,1,2,21,
scooby_state_441b83|13|0 5,2,1,1,2,1,0,1,0,0,2,2,0,1,2,20,
scooby_state_441b83|60|0 4,1,2,0,1,0,1,1,2,1,1,2,1,1,2,20,
scooby_state_441d19|56|3 1,2,1,2,1,1,1,1,1,1,1,1,2,1,3,20,
scooby_state_44188c|57|0 6,1,1,0,1,1,1,0,1,0,3,1,1,1,2,20,
scooby_state_441b91|54|0 5,1,1,0,1,1,1,1,1,0,1,2,1,1,3,20,
scooby_state_441b91|8|0 6,0,2,2,0,1,0,1,1,1,1,2,0,1,2,20,
scooby_state_441b33|5|0 2,0,1,1,1,0,3,0,1,1,1,3,1,2,3,20,
scooby_state_441b91|15|0 3,1,1,2,1,2,1,1,0,1,2,1,1,1,2,20,
scooby_state_441880|52|0 4,0,1,2,0,0,1,1,1,1,2,1,2,2,2,20,
scooby_state_441ad6|37|0 7,0,0,0,1,1,1,1,2,1,1,1,0,2,2,20,
scooby_state_441ae2|51|0 5,2,0,1,1,1,1,0,0,1,1,1,1,2,3,20,
scooby_state_441ad6|35|0 7,2,1,1,0,1,0,0,1,1,1,2,0,1,2,20,
scooby_state_441b83|11|0 3,1,1,2,2,2,1,2,2,0,0,0,1,1,2,20,
scooby_state_441b83|55|0 2,2,0,3,1,0,1,1,2,0,0,1,2,2,2,19,
scooby_state_441880|53|0 7,0,0,1,0,1,1,1,0,1,1,1,1,2,2,19,
scooby_state_441b91|4|0 5,0,1,2,0,1,2,0,2,1,1,1,0,1,2,19,
scooby_state_44188c|62|0 7,1,1,0,1,1,0,1,0,1,1,1,1,1,2,19,
scooby_state_441b83|58|0 6,1,1,0,2,1,1,0,0,0,1,2,1,0,3,19,
scooby_state_441c2b|40|0 5,1,2,0,1,2,1,1,1,1,0,0,0,2,2,19,
scooby_state_441ba4|22|0 3,0,2,0,3,0,0,1,3,1,1,2,0,1,2,19,
scooby_state_44188c|15|0 2,1,0,1,1,2,2,1,1,1,2,1,0,2,2,19,
scooby_state_44168a|48|-7 19,0,0,0,0,0,0,0,0,0,0,0,0,0,0,19,
scooby_state_441ad6|41|0 6,1,1,1,0,2,2,0,1,1,1,1,0,0,2,19,
scooby_state_441ad6|54|0 7,0,2,2,0,0,1,1,1,1,0,1,1,1,1,19,
scooby_state_44188c|51|0 2,0,2,2,2,0,2,1,1,0,1,1,2,0,3,19,
scooby_state_441b91|63|0 5,1,2,1,1,1,0,1,1,1,1,2,0,1,1,19,
scooby_state_441c2b|51|0 5,2,1,1,2,1,0,1,1,0,1,1,0,1,2,19,
scooby_state_441c2b|33|0 5,2,0,2,2,1,0,0,1,1,1,0,1,1,2,19,
scooby_state_441ba4|47|0 2,1,1,0,3,1,2,1,2,1,1,0,3,1,0,19,
scooby_state_441ad6|45|0 6,0,1,1,1,2,1,1,2,2,0,1,0,1,0,19,
scooby_state_441880|54|0 7,0,2,2,0,0,1,1,1,1,1,1,1,1,0,19,
scooby_state_44188c|11|0 5,1,2,0,1,1,1,0,0,1,3,1,0,1,2,19,
scooby_state_441ad6|31|0 4,2,0,1,2,1,0,2,1,1,1,1,1,0,2,19,
scooby_state_441577|55|-1 2,1,1,1,1,1,1,1,1,1,1,6,0,0,0,18,
scooby_state_44188c|32|0 7,0,1,1,1,1,0,1,1,1,0,1,1,1,1,18,
scooby_state_441ad6|42|0 4,2,2,0,2,2,0,0,0,1,1,1,1,0,2,18,
scooby_state_441b91|9|0 5,2,1,1,0,0,0,0,1,2,1,2,2,0,1,18,
scooby_state_441ba4|24|0 4,1,2,2,1,2,1,1,1,1,1,0,0,0,1,18,
scooby_state_441ae2|43|0 2,1,1,1,1,1,1,2,1,1,0,1,1,1,3,18,
scooby_state_441b33|0|0 3,1,1,2,2,2,1,0,1,1,2,0,0,1,1,18,
scooby_state_441b33|13|0 2,1,1,1,1,2,1,1,1,0,1,1,2,1,2,18,
scooby_state_441b33|6|0 2,2,1,1,1,1,1,1,0,1,1,3,2,0,1,18,
scooby_state_441b91|60|0 4,2,0,1,2,1,0,1,1,0,0,1,1,1,3,18,
scooby_state_441ae2|34|0 3,1,1,1,1,2,0,3,0,1,1,1,0,1,2,18,
scooby_state_44188c|50|0 7,0,1,1,1,1,0,1,1,1,0,1,1,1,1,18,
scooby_state_44188c|5|0 2,0,2,2,2,0,2,1,1,0,0,1,2,1,2,18,
scooby_state_441b91|58|0 4,3,1,1,0,0,0,1,1,2,1,0,1,1,2,18,
scooby_state_441aee|25|0 5,2,0,2,0,1,0,0,0,0,1,1,1,2,3,18,
scooby_state_44188c|33|0 1,1,2,1,2,1,2,1,0,1,0,1,1,1,3,18,
scooby_state_441ba4|25|0 5,3,1,0,0,0,0,0,0,0,1,1,2,2,3,18,
scooby_state_441b83|54|0 3,1,1,1,0,1,1,1,1,2,2,1,0,1,2,18,
scooby_state_441ce9|57|-1 1,1,1,0,0,0,0,0,1,1,1,12,0,0,0,18,
scooby_state_441d11|53|-4 18,0,0,0,0,0,0,0,0,0,0,0,0,0,0,18,
scooby_state_441880|47|0 3,2,1,1,0,1,0,0,3,1,1,0,1,1,3,18,
scooby_state_441aee|22|0 2,1,0,2,1,1,1,2,1,1,0,1,0,2,3,18,
scooby_state_441ad6|44|0 7,3,1,1,0,1,0,0,2,1,1,0,1,0,0,18,
scooby_state_441b91|16|0 5,0,1,0,1,0,1,1,1,1,1,1,2,1,2,18,
scooby_state_44188c|7|0 7,1,0,0,1,1,0,1,0,1,1,1,1,1,1,17,
scooby_state_441aee|24|0 0,1,2,0,3,1,2,2,1,0,0,3,0,1,1,17,
scooby_state_44188c|16|0 7,1,0,0,1,1,0,1,0,1,1,1,1,1,1,17,
scooby_state_441b33|54|0 3,1,0,0,1,1,1,2,0,1,1,1,1,1,3,17,
scooby_state_441b33|1|0 2,1,0,0,2,1,1,1,0,2,1,2,1,1,2,17,
scooby_state_44188c|43|0 1,1,0,0,1,2,1,2,1,1,1,1,0,2,3,17,
scooby_state_44188c|34|0 1,1,0,0,1,2,1,1,1,1,1,1,1,2,3,17,
scooby_state_441880|46|0 3,0,1,0,1,1,1,1,0,2,2,1,0,2,2,17,
scooby_state_44188c|0|0 4,0,1,2,1,0,1,1,1,1,1,0,1,1,2,17,
scooby_state_441b83|4|0 4,2,1,0,1,2,0,1,0,0,1,2,0,1,2,17,
scooby_state_441ad6|52|0 3,0,2,2,0,0,2,0,1,0,1,2,1,1,2,17,
scooby_state_441c2b|54|0 8,1,2,1,0,1,1,0,0,1,1,0,0,1,0,17,
scooby_state_44188c|47|0 1,2,1,1,1,1,2,1,2,2,1,1,1,0,0,17,
scooby_state_441b83|8|0 5,1,1,1,1,1,1,0,2,1,1,1,1,0,0,17,
scooby_state_441880|27|0 5,1,1,0,2,1,0,2,1,1,0,1,1,1,0,17,
scooby_state_441ae2|45|0 3,2,1,1,2,2,0,1,2,1,0,1,1,0,0,17,
scooby_state_441ba4|19|0 0,2,1,2,4,1,1,1,1,0,0,2,1,1,0,17,
scooby_state_441ae2|54|0 6,1,1,2,0,1,0,1,1,1,0,1,0,1,1,17,
scooby_state_44188c|49|0 6,1,0,1,0,0,1,1,1,1,1,1,1,1,1,17,
scooby_state_44188c|54|0 6,1,1,0,1,1,0,1,2,1,1,1,0,0,1,17,
scooby_state_441c2b|42|0 4,1,1,1,2,1,1,0,1,1,1,0,1,0,2,17,
scooby_state_44188c|39|0 4,1,1,1,0,1,0,0,1,0,2,1,1,1,3,17,
scooby_state_441b52|10|0 3,1,2,0,3,1,0,1,1,0,0,0,3,1,1,17,
scooby_state_441ae2|39|0 5,1,2,0,1,2,0,2,1,1,1,0,1,0,0,17,
scooby_state_44188c|13|0 6,1,0,1,1,1,1,0,1,1,1,0,1,1,1,17,
scooby_state_441ba4|21|0 6,1,2,0,1,1,1,1,1,0,0,0,0,2,1,17,
scooby_state_44188c|3|0 6,1,1,0,1,0,0,1,1,1,1,1,1,1,1,17,
scooby_state_441880|36|0 5,0,1,1,2,1,0,2,1,1,0,0,1,1,0,16,
scooby_state_441b52|51|0 0,3,1,0,1,1,1,0,2,2,1,0,1,1,2,16,
scooby_state_44188c|60|0 2,0,2,2,1,0,2,1,1,0,0,1,1,0,3,16,
scooby_state_441880|9|0 5,0,0,0,1,0,1,1,1,1,2,1,1,0,2,16,
scooby_state_441ad6|2|0 3,0,1,1,1,0,2,2,0,2,0,1,2,0,1,16,
scooby_state_441b91|55|0 2,1,1,1,0,1,1,0,1,2,1,1,1,1,2,16,
scooby_state_441ad6|9|0 5,0,0,0,1,0,1,2,1,1,1,1,1,1,1,16,
scooby_state_441ae2|57|0 3,0,2,1,0,2,1,0,1,2,2,1,0,0,1,16,
scooby_state_441b91|17|0 6,0,1,2,1,1,1,0,0,0,1,1,0,1,1,16,
scooby_state_441880|0|0 5,0,0,0,1,0,1,1,0,2,2,1,1,0,2,16,
scooby_state_441ad6|28|0 2,0,0,1,1,1,1,0,1,1,2,2,0,2,2,16,
scooby_state_441ae2|37|0 4,1,1,0,1,1,0,1,1,0,2,0,1,0,3,16,
scooby_state_441ad6|11|0 3,0,1,1,1,1,2,2,1,1,0,1,1,0,1,16,
scooby_state_441ae2|11|0 3,0,2,1,0,2,2,1,0,1,2,1,0,0,1,16,
scooby_state_441ae2|0|0 5,0,1,0,0,1,1,0,1,1,2,1,0,1,2,16,
scooby_state_441ae2|41|0 3,1,2,1,1,1,1,0,0,2,1,0,0,1,2,16,
scooby_state_441ad6|53|0 5,1,0,1,0,1,0,1,1,1,1,1,1,0,2,16,
scooby_state_441ae2|9|0 5,0,1,0,0,1,1,1,0,1,2,1,0,1,2,16,
scooby_state_441ae2|35|0 4,1,0,0,1,0,0,0,2,2,2,0,2,1,1,16,
scooby_state_441c2b|31|0 4,1,1,1,1,2,1,1,0,0,0,1,0,1,2,16,
scooby_state_441b83|15|0 3,0,1,1,0,1,2,0,2,0,1,2,1,1,1,16,
scooby_state_441ae2|42|0 3,1,0,2,1,1,1,0,0,0,1,2,2,1,1,16,
scooby_state_441c2b|43|0 4,0,2,1,0,1,1,2,0,1,1,1,0,1,1,16,
scooby_state_441880|57|0 3,0,1,1,0,1,2,1,0,2,2,2,0,0,1,16,
scooby_state_441880|2|0 3,0,1,1,1,0,2,1,0,2,2,2,0,0,1,16,
scooby_state_441ae2|2|0 3,0,2,1,0,2,2,0,1,1,2,1,0,0,1,16,
scooby_state_441c2b|35|0 5,2,0,0,0,1,1,0,2,1,0,0,2,1,1,16,
scooby_state_44188c|40|0 5,1,0,1,0,0,1,1,1,1,1,1,1,1,1,16,
scooby_state_44188c|52|0 1,1,0,1,1,2,1,1,0,1,2,1,0,2,2,16,
scooby_state_441778|51|-1 2,1,1,1,1,2,1,1,1,1,1,3,0,0,0,16,
scooby_state_441880|28|0 2,0,1,1,1,2,1,0,2,1,1,0,1,1,2,16,
scooby_state_441ad6|57|0 3,0,1,1,0,1,2,1,0,2,0,1,2,0,2,16,
scooby_state_441c2b|0|0 7,0,0,0,0,1,1,1,0,1,1,1,0,1,2,16,
scooby_state_441880|11|0 2,1,0,1,1,0,2,1,1,1,2,2,0,0,2,16,
scooby_state_441ad6|0|0 5,0,0,0,1,0,1,2,0,2,1,1,1,1,1,16,
scooby_state_44182f|50|-1 1,1,1,1,2,1,1,1,1,1,1,4,0,0,0,16,
scooby_state_44188c|12|0 5,1,1,0,0,0,0,1,1,2,1,1,1,1,1,16,
scooby_state_441840|49|-1 7,1,2,1,1,1,1,1,1,0,0,0,0,0,0,16,
scooby_state_441ad6|27|0 5,1,1,0,2,1,0,1,1,2,0,0,1,1,0,16,
scooby_state_441c2b|9|0 7,0,0,0,1,0,1,1,1,1,1,1,1,0,1,16,
scooby_state_441ae2|7|0 7,0,0,0,0,0,0,1,0,1,2,1,0,1,2,15,
scooby_state_44188c|55|0 3,0,1,2,0,0,1,1,1,1,1,0,1,1,2,15,
scooby_state_441c2b|39|0 4,0,1,1,0,1,1,1,1,2,1,1,1,0,0,15,
scooby_state_441ae2|31|0 3,2,1,1,1,0,1,0,0,1,1,1,0,2,1,15,
scooby_state_441880|7|0 6,1,0,0,0,0,0,1,1,0,1,1,1,0,3,15,
scooby_state_441b33|11|0 1,1,1,1,1,2,1,1,2,0,1,1,0,0,2,15,
scooby_state_441b83|30|0 1,0,1,2,1,1,1,2,1,2,0,1,0,1,1,15,
scooby_state_441ad6|62|0 6,1,0,0,0,0,0,1,0,1,1,1,1,0,3,15,
scooby_state_441ae2|44|0 5,1,0,1,1,0,0,0,1,1,2,0,1,1,1,15,
scooby_state_441c2b|7|0 6,0,0,0,0,0,0,1,2,0,1,1,2,0,2,15,
scooby_state_441c2b|52|0 4,1,2,1,0,1,0,2,0,0,1,0,1,0,2,15,
scooby_state_441c2b|62|0 7,0,0,0,0,0,0,1,1,1,1,1,0,1,2,15,
scooby_state_441880|18|0 5,0,0,0,1,0,1,2,1,1,1,1,1,0,1,15,
scooby_state_441c2b|11|0 5,0,1,1,1,0,2,2,1,1,0,1,0,0,0,15,
scooby_state_441ae2|53|0 5,0,0,0,1,0,1,0,1,2,2,0,1,1,1,15,
scooby_state_441b83|16|0 6,1,0,1,1,0,0,2,1,1,0,1,1,0,0,15,
scooby_state_441880|55|0 4,0,0,0,0,1,1,1,0,2,2,1,0,1,2,15,
scooby_state_441b83|14|0 6,1,0,0,0,0,0,1,1,0,1,1,1,1,2,15,
scooby_state_441880|62|0 6,1,0,0,0,0,0,1,0,1,1,1,0,1,3,15,
scooby_state_44188c|44|0 7,1,0,0,0,1,1,1,0,0,0,1,1,1,1,15,
scooby_state_4416d9|52|-2 2,1,1,1,1,1,1,1,1,1,1,3,0,0,0,15,
scooby_state_441c2b|37|0 6,0,0,0,1,1,1,0,0,1,1,0,1,1,2,15,
scooby_state_441ad6|7|0 6,0,0,0,0,0,0,1,1,0,1,1,1,1,3,15,
scooby_state_441c2b|34|0 2,2,2,0,1,1,1,2,0,1,1,0,1,0,1,15,
scooby_state_441ae2|28|0 2,1,0,0,0,1,0,2,1,1,0,1,2,2,2,15,
scooby_state_441c2b|2|0 5,0,1,1,0,1,2,2,0,1,0,1,0,0,1,15,
scooby_state_441c2b|13|0 3,0,1,2,1,1,2,2,1,1,0,0,1,0,0,15,
scooby_state_441b83|53|0 4,1,0,1,3,0,0,0,2,0,0,1,1,0,2,15,
scooby_state_441ae2|13|0 2,0,2,2,0,2,2,1,1,1,1,0,0,0,1,15,
scooby_state_441880|59|0 2,0,1,2,0,1,2,1,0,2,1,1,1,0,1,15,
scooby_state_441ad6|4|0 2,0,2,1,1,0,2,2,1,1,0,1,1,0,1,15,
scooby_state_441880|13|0 2,1,0,1,1,1,2,1,1,1,1,1,1,0,1,15,
scooby_state_441ae2|62|0 7,0,0,0,0,0,0,0,1,1,2,1,0,1,2,15,
scooby_state_441c2b|57|0 5,0,1,1,0,1,2,2,0,1,0,1,0,0,1,15,
scooby_state_441c2b|45|0 3,1,1,1,1,2,0,1,1,1,1,1,0,1,0,15,
scooby_state_441aee|36|0 2,2,2,0,1,1,2,1,0,2,1,1,0,0,0,15,
scooby_state_441c2b|41|0 4,1,1,2,0,1,1,0,0,2,0,0,0,1,2,15,
scooby_state_441ae2|52|0 3,0,1,2,0,1,0,2,1,1,0,1,0,2,1,15,
scooby_state_441880|4|0 2,0,1,1,1,1,2,1,1,1,1,1,1,0,1,15,
scooby_state_441ad6|18|0 5,0,0,0,1,0,1,2,1,1,1,1,1,1,0,15,
scooby_state_441b33|57|0 1,1,1,1,2,2,1,1,2,0,1,0,0,0,2,15,
scooby_state_441ad6|13|0 2,1,1,1,1,1,2,2,1,1,0,1,0,0,1,15,
scooby_state_441b91|29|0 4,0,0,0,0,1,1,2,1,1,1,1,1,1,1,15,
scooby_state_441b83|63|0 5,1,1,0,1,1,0,0,2,1,1,1,1,0,0,15,
scooby_state_441b33|55|0 2,1,0,1,1,1,0,1,1,1,2,1,0,1,1,14,
scooby_state_441b91|40|0 2,0,1,1,1,0,1,2,2,1,1,1,0,0,1,14,
scooby_state_441c2b|4|0 3,1,1,1,1,1,2,2,0,1,0,0,0,0,1,14,
scooby_state_441c2b|28|0 2,0,1,1,0,1,1,0,1,1,1,1,1,1,2,14,
scooby_state_441ae2|4|0 2,0,2,2,0,2,2,1,1,1,0,0,0,0,1,14,
scooby_state_441ad6|55|0 3,0,0,0,0,1,1,1,0,2,1,1,1,0,3,14,
scooby_state_44188c|4|0 5,1,0,1,1,1,0,1,1,1,0,0,0,1,1,14,
scooby_state_441b91|38|0 2,0,0,0,1,0,1,2,2,0,1,2,1,1,1,14,
scooby_state_44188c|42|0 1,1,2,1,2,0,2,0,0,0,0,1,1,0,3,14,
scooby_state_44188c|35|0 6,1,0,0,0,1,1,1,0,0,0,1,1,1,1,14,
scooby_state_44188c|9|0 3,1,0,2,0,0,1,1,1,1,1,0,1,1,1,14,
scooby_state_441880|20|0 3,1,0,0,0,0,2,2,1,1,1,2,0,0,1,14,
scooby_state_441b91|59|0 2,0,1,1,1,1,1,0,2,1,1,1,0,1,1,14,
scooby_state_441ba4|49|0 4,0,1,0,2,0,0,0,1,1,1,0,0,2,2,14,
scooby_state_44188c|41|0 5,0,1,1,1,1,0,1,1,1,0,0,0,1,1,14,
scooby_state_44188c|45|0 5,1,0,1,1,1,0,1,1,1,0,1,0,0,1,14,
scooby_state_441b83|59|0 2,2,0,1,1,2,0,1,0,1,0,1,0,1,2,14,
scooby_state_441b91|20|0 3,0,0,0,0,1,1,2,0,1,1,2,1,0,2,14,
scooby_state_441880|16|0 6,1,0,0,0,0,0,1,1,0,0,1,1,0,3,14,
scooby_state_441b91|49|0 2,1,0,1,1,0,1,2,2,1,1,1,0,0,1,14,
scooby_state_44188c|53|0 6,0,0,0,0,1,1,1,0,0,1,1,1,1,1,14,
scooby_state_441ad6|59|0 1,0,2,1,0,1,2,1,0,2,0,1,1,0,2,14,
scooby_state_441aee|26|0 2,2,1,0,1,0,1,2,2,0,1,1,0,1,0,14,
scooby_state_441c2b|53|0 6,1,0,1,0,0,0,1,1,1,1,1,0,1,0,14,
scooby_state_441ad6|47|0 3,2,0,1,0,3,0,1,2,0,0,0,0,1,1,14,
scooby_state_441b33|7|0 2,1,0,1,0,0,1,0,1,1,1,2,0,2,2,14,
scooby_state_441ad6|60|0 6,1,0,0,0,0,0,0,0,0,1,1,1,1,2,13,
scooby_state_441c2b|15|0 2,1,1,2,1,1,2,1,0,1,1,0,0,0,0,13,
scooby_state_441c2b|55|0 4,0,0,0,0,1,1,1,0,1,1,1,0,1,2,13,
scooby_state_441ad6|20|0 3,1,0,0,0,1,2,2,1,0,0,1,1,0,1,13,
scooby_state_441ae2|15|0 1,0,2,1,1,2,2,1,1,0,0,0,0,1,1,13,
scooby_state_441c2b|6|0 2,0,2,2,1,1,2,1,0,1,1,0,0,0,0,13,
scooby_state_441880|6|0 1,0,1,1,1,1,2,0,1,1,1,1,1,1,0,13,
scooby_state_441ad6|15|0 1,1,1,2,2,1,2,1,0,1,0,1,0,0,0,13,
scooby_state_44188c|58|0 4,1,1,0,0,0,0,0,0,1,1,1,1,1,2,13,
scooby_state_441880|60|0 6,1,1,0,0,0,0,0,0,0,1,1,0,1,2,13,
scooby_state_441b83|51|0 4,0,0,0,0,0,0,1,2,0,1,1,1,1,2,13,
scooby_state_441b83|48|0 2,0,0,2,2,1,1,1,2,0,0,0,0,1,1,13,
scooby_state_441880|25|0 6,1,0,0,0,0,0,1,0,0,0,1,1,1,2,13,
scooby_state_441880|15|0 1,1,0,1,1,1,2,1,1,1,0,1,1,1,0,13,
scooby_state_44188c|63|0 6,1,1,0,1,0,0,0,1,1,0,1,0,0,1,13,
scooby_state_44188c|28|0 1,0,0,2,0,1,1,1,0,2,0,1,1,1,2,13,
scooby_state_441c2b|5|0 5,0,0,0,0,0,0,0,1,0,1,2,1,1,2,13,
scooby_state_441ad6|16|0 6,0,0,0,0,0,0,1,1,0,1,0,1,0,3,13,
scooby_state_441c2b|61|0 2,1,2,1,0,2,2,1,0,0,1,0,0,0,1,13,
scooby_state_441b91|51|0 1,1,0,1,2,1,1,2,2,1,1,0,0,0,0,13,
scooby_state_441ae2|60|0 6,1,0,0,0,0,0,0,0,0,1,2,0,1,2,13,
scooby_state_441c2b|60|0 6,0,0,0,0,0,0,0,1,0,1,1,0,2,2,13,
scooby_state_44188c|8|0 6,1,1,0,1,0,0,0,1,1,0,1,0,0,1,13,
scooby_state_441ae2|6|0 1,0,2,2,1,2,2,1,1,0,0,0,0,0,1,13,
scooby_state_441b33|30|0 2,0,1,1,1,1,1,2,2,1,1,0,0,0,0,13,
scooby_state_441880|5|0 6,1,0,0,1,0,0,0,0,0,1,1,1,0,2,13,
scooby_state_441b33|9|0 3,0,0,2,0,1,1,0,1,1,2,0,0,1,1,13,
scooby_state_441ae2|5|0 6,0,0,0,0,0,0,0,0,0,1,2,1,1,2,13,
scooby_state_441b91|33|0 1,0,1,2,2,1,1,2,1,1,1,0,0,0,0,13,
scooby_state_441880|14|0 6,1,0,0,1,0,0,0,0,0,1,1,1,0,2,13,
scooby_state_441880|61|0 1,0,1,2,1,0,2,0,1,1,1,1,1,1,0,13,
scooby_state_441ad6|5|0 6,1,0,0,0,0,0,0,0,0,1,1,1,2,1,13,
scooby_state_441c2b|27|0 3,1,1,0,2,0,1,1,1,1,0,1,0,1,0,13,
scooby_state_441ad6|61|0 1,0,2,1,1,1,2,1,1,1,0,1,1,0,0,13,
scooby_state_441ba4|26|0 3,0,2,0,1,3,1,0,0,1,0,0,0,1,1,13,
scooby_state_441ae2|61|0 1,0,2,2,1,2,2,1,1,0,0,0,0,0,1,13,
scooby_state_441ad6|46|0 2,0,0,1,0,1,1,1,0,1,1,1,1,1,2,13,
scooby_state_441ad6|6|0 1,0,2,1,2,0,2,1,1,1,0,1,1,0,0,13,
scooby_state_441c2b|44|0 5,2,0,0,0,1,0,0,2,1,1,0,0,1,0,13,
scooby_state_44188c|37|0 3,0,0,1,0,0,1,1,0,2,0,1,1,1,1,12,
scooby_state_441ae2|27|0 3,1,2,0,2,0,1,0,1,0,1,0,1,0,0,12,
scooby_state_441b83|35|0 4,0,0,1,2,0,0,0,0,1,1,1,1,1,0,12,
scooby_state_441840|49|-2 12,0,0,0,0,0,0,0,0,0,0,0,0,0,0,12,
scooby_state_441778|51|-3 6,3,1,1,0,0,0,0,0,0,0,1,0,0,0,12,
scooby_state_441b83|50|0 2,2,0,1,2,1,1,0,0,1,0,0,0,1,1,12,
scooby_state_441ad6|36|0 4,0,0,0,1,1,1,0,2,1,0,1,0,1,0,12,
scooby_state_441ad6|14|0 5,0,0,0,0,0,0,0,0,0,1,1,1,2,2,12,
scooby_state_441b83|49|0 5,0,0,1,0,0,1,0,0,0,1,1,0,1,2,12,
scooby_state_441b83|33|0 4,0,0,0,0,0,0,1,1,1,2,0,1,1,1,12,
scooby_state_44188c|10|0 2,1,1,1,1,1,1,1,0,0,1,0,2,0,0,12,
scooby_state_441880|24|0 1,1,0,2,1,2,1,1,1,0,0,1,0,1,0,12,
scooby_state_441880|22|0 2,1,0,1,1,1,2,2,0,1,0,0,0,0,1,12,
scooby_state_441b83|39|0 1,0,0,2,2,1,1,1,2,0,0,1,0,0,1,12,
scooby_state_44188c|46|0 3,0,0,1,0,0,1,1,1,1,0,1,1,1,1,12,
scooby_state_441b91|18|0 5,0,0,0,0,0,0,1,0,1,1,2,1,0,1,12,
scooby_state_441b91|27|0 5,0,0,0,0,0,0,1,0,1,1,1,1,0,2,12,
scooby_state_441b91|14|0 4,2,0,0,0,0,0,1,0,0,0,1,1,1,2,12,
scooby_state_441b91|22|0 3,0,1,2,0,0,1,2,0,0,1,0,0,0,2,12,
scooby_state_441ae2|59|0 2,0,2,2,0,2,1,0,2,0,0,0,0,0,1,12,
scooby_state_441ae2|16|0 7,0,0,0,0,0,0,1,0,0,1,0,1,0,2,12,
scooby_state_441b83|32|0 1,1,1,1,2,0,1,1,0,1,0,1,0,1,1,12,
scooby_state_441b83|10|0 2,1,2,0,1,1,1,0,0,0,0,0,1,2,1,12,
scooby_state_441b83|37|0 2,0,1,1,0,0,1,1,1,1,0,1,1,1,1,12,
scooby_state_441ba4|18|0 0,2,0,0,0,1,0,1,2,2,0,1,1,1,1,12,
scooby_state_441ae2|20|0 3,0,1,0,0,0,2,1,0,1,2,1,0,0,1,12,
scooby_state_441aee|20|0 0,2,0,0,0,1,0,1,2,2,0,1,1,1,1,12,
scooby_state_441ae2|55|0 2,0,1,0,0,1,1,0,1,1,2,0,1,1,1,12,
scooby_state_441b83|44|0 4,0,0,1,2,0,0,0,1,0,0,1,1,1,1,12,
scooby_state_44188c|31|0 3,1,0,1,0,0,0,0,1,1,1,1,1,1,1,12,
scooby_state_441b33|60|0 2,0,0,0,0,0,1,0,0,0,1,1,2,2,3,12,
scooby_state_441aee|21|0 1,1,1,2,1,0,0,1,0,0,0,2,2,1,0,12,
scooby_state_441ae2|8|0 1,0,1,2,1,1,1,1,1,0,0,1,1,0,0,11,
scooby_state_441b91|25|0 5,0,0,0,0,0,0,0,0,0,1,1,2,0,2,11,
scooby_state_441b83|41|0 1,1,1,1,2,1,1,0,0,1,0,0,0,1,1,11,
scooby_state_441b33|14|0 3,0,0,0,1,0,0,0,0,0,1,2,0,2,2,11,
scooby_state_44188c|59|0 3,0,1,1,1,1,0,1,1,1,0,0,0,0,1,11,
scooby_state_441c2b|59|0 3,0,1,1,0,2,2,1,0,1,0,0,0,0,0,11,
scooby_state_441ad6|8|0 2,0,2,1,1,0,1,0,1,0,0,1,1,1,0,11,
scooby_state_441880|23|0 4,1,0,0,1,0,0,0,0,0,1,1,1,1,1,11,
scooby_state_441c2b|12|0 3,0,1,0,0,0,0,0,1,0,1,1,1,1,2,11,
scooby_state_441ae2|3|0 4,1,0,0,1,0,0,1,0,0,0,1,0,1,2,11,
scooby_state_441b91|53|0 1,1,1,1,2,1,1,0,1,1,1,0,0,0,0,11,
scooby_state_441ae2|58|0 4,1,0,0,1,0,0,1,0,0,0,1,0,1,2,11,
scooby_state_441ad6|63|0 2,0,2,1,1,0,1,0,1,0,0,1,1,1,0,11,
scooby_state_441b91|10|0 3,1,1,0,1,1,0,1,0,1,0,0,0,2,0,11,
scooby_state_441b83|42|0 4,0,0,0,0,0,0,1,1,0,2,0,1,1,1,11,
scooby_state_441b33|32|0 1,1,1,1,1,1,1,1,1,0,1,1,0,0,0,11,
scooby_state_441ae2|63|0 1,1,1,2,1,1,1,1,1,0,0,1,0,0,0,11,
scooby_state_441ad6|3|0 4,1,0,0,1,0,0,0,1,0,1,0,0,2,1,11,
scooby_state_441880|12|0 4,1,0,0,1,0,0,0,1,0,0,0,1,1,2,11,
scooby_state_441ad6|12|0 4,0,0,1,1,0,0,0,0,0,1,0,0,2,2,11,
scooby_state_441b33|58|0 2,0,2,1,0,1,0,0,0,0,0,0,2,1,2,11,
scooby_state_441880|3|0 4,1,1,0,0,0,0,0,1,0,0,0,1,1,2,11,
scooby_state_441ae2|18|0 3,0,1,0,1,0,1,0,0,1,1,1,1,0,1,11,
scooby_state_441c2b|20|0 3,1,0,0,0,0,1,1,1,1,1,1,0,0,1,11,
scooby_state_441c2b|18|0 4,0,0,0,1,0,1,0,1,1,1,0,1,0,1,11,
scooby_state_441b33|53|0 3,0,0,2,0,0,0,0,1,1,0,1,1,2,0,11,
scooby_state_441ae2|14|0 5,0,0,0,0,0,0,0,0,0,1,1,1,1,2,11,
scooby_state_441b52|18|0 7,0,0,1,0,0,0,0,0,1,1,0,0,0,1,11,
scooby_state_441c2b|3|0 3,0,1,0,0,0,0,0,1,0,1,1,0,2,2,11,
scooby_state_441ae2|12|0 4,0,0,0,1,0,0,1,0,0,0,1,1,1,2,11,
scooby_state_441b33|4|0 0,1,1,0,1,2,1,1,1,0,1,0,1,0,1,11,
scooby_state_441b91|34|0 5,0,0,0,0,0,0,0,0,0,1,1,1,1,2,11,
scooby_state_441c2b|8|0 1,0,2,2,0,1,1,1,0,0,1,1,0,1,0,11,
scooby_state_44188c|36|0 5,1,0,0,1,0,0,0,1,1,0,1,0,0,1,11,
scooby_state_441880|63|0 2,0,2,1,0,1,1,0,1,0,0,1,1,1,0,11,
scooby_state_44188c|14|0 1,1,1,1,1,0,0,1,0,0,0,1,1,1,2,11,
scooby_state_441880|8|0 2,1,0,1,1,1,1,0,1,0,0,1,1,1,0,11,
scooby_state_441b33|51|0 2,0,0,0,0,0,0,0,1,1,1,1,2,2,1,11,
scooby_state_441b91|52|0 5,0,0,0,0,0,0,0,0,0,1,1,1,1,2,11,
scooby_state_441880|58|0 4,1,1,0,0,0,0,0,1,0,0,0,0,2,2,11,
scooby_state_441c2b|16|0 7,0,0,0,0,0,0,1,1,0,0,0,1,0,1,11,
scooby_state_441ad6|58|0 4,1,0,0,1,0,0,0,1,0,1,0,0,1,2,11,
scooby_state_441ae2|47|0 1,2,0,0,0,1,1,0,0,1,0,1,1,1,2,11,
scooby_state_441b83|52|0 2,2,1,1,0,1,1,0,0,1,0,0,0,1,0,10,
scooby_state_441b91|45|0 4,0,0,0,0,0,0,1,1,0,1,1,1,0,1,10,
scooby_state_441b33|48|0 1,0,2,0,0,0,0,2,2,1,1,0,0,0,1,10,
scooby_state_441b33|50|0 1,1,2,0,1,1,1,1,1,0,1,0,0,0,0,10,
scooby_state_441b91|48|0 3,0,1,0,1,1,1,0,0,0,0,1,1,0,1,10,
scooby_state_441c2b|56|0 3,1,1,0,0,1,0,0,1,0,1,0,0,1,1,10,
scooby_state_441c2b|14|0 3,0,0,0,0,0,0,0,1,0,1,2,1,0,2,10,
scooby_state_441b91|43|0 4,0,0,0,0,0,0,0,0,0,1,2,1,1,1,10,
scooby_state_441b83|31|0 4,0,0,1,0,0,0,0,0,0,2,1,1,0,1,10,
scooby_state_441b91|24|0 1,0,1,2,1,2,1,1,0,0,1,0,0,0,0,10,
scooby_state_441b83|46|0 2,1,0,0,0,0,1,1,1,0,0,1,1,1,1,10,
scooby_state_441ae2|56|0 3,1,0,1,1,0,0,1,1,0,0,1,0,0,1,10,
scooby_state_441b91|32|0 4,1,0,0,0,0,0,0,0,0,0,1,0,2,2,10,
scooby_state_441c2b|63|0 2,1,2,1,0,1,1,0,0,0,1,0,0,1,0,10,
scooby_state_441b33|35|0 1,0,0,1,0,0,0,0,1,2,0,2,1,2,0,10,
scooby_state_441b91|30|0 3,1,0,0,1,1,1,0,0,0,0,0,0,1,2,10,
scooby_state_441c2b|47|0 3,2,0,0,0,2,0,0,0,0,1,0,0,1,1,10,
scooby_state_441880|1|0 3,1,1,0,0,1,0,0,1,0,0,0,1,1,1,10,
scooby_state_441880|10|0 3,1,0,0,1,1,0,0,1,0,0,0,1,1,1,10,
scooby_state_441ad6|56|0 3,1,1,0,1,0,0,0,1,0,0,1,0,1,1,10,
scooby_state_441b33|37|0 0,0,0,1,0,1,0,1,1,2,1,1,0,1,1,10,
scooby_state_441c2b|1|0 2,1,1,0,0,1,0,0,1,0,1,1,0,1,1,10,
scooby_state_441c2b|58|0 4,0,1,0,0,0,0,0,1,0,0,0,0,2,2,10,
scooby_state_441ad6|23|0 4,0,0,0,0,0,0,0,0,0,1,1,1,1,2,10,
scooby_state_441ae2|46|0 2,1,1,0,0,1,1,0,0,1,0,0,1,0,2,10,
scooby_state_441ad6|22|0 2,1,0,1,1,0,2,2,0,0,0,1,0,0,0,10,
scooby_state_441ae2|1|0 3,1,0,1,1,0,0,1,1,0,0,1,0,0,1,10,
scooby_state_441880|17|0 2,1,0,1,1,1,1,0,1,0,0,1,1,0,0,10,
scooby_state_441b91|31|0 1,0,1,2,0,0,1,2,1,0,1,0,0,0,1,10,
scooby_state_441ad6|10|0 3,0,1,0,1,0,0,0,1,0,0,1,0,1,2,10,
scooby_state_441b33|49|0 2,0,0,2,0,0,0,0,0,0,0,1,2,2,1,10,
scooby_state_441880|19|0 3,1,0,0,1,1,0,0,1,0,0,0,1,1,1,10,
scooby_state_441ad6|1|0 3,1,1,0,1,0,0,0,1,0,0,1,0,1,1,10,
scooby_state_441b83|40|0 4,0,0,1,0,0,1,0,0,0,2,1,0,0,1,10,
scooby_state_44182f|50|1 2,1,2,1,1,1,1,1,0,0,0,0,0,0,0,10,
scooby_state_441b83|29|0 2,1,1,1,0,0,0,0,0,0,2,0,1,0,2,10,
scooby_state_441880|56|0 3,1,1,1,0,0,0,0,1,0,0,0,1,1,1,10,
scooby_state_441ad6|24|0 1,1,1,2,2,1,1,0,0,0,0,0,0,0,0,9,
scooby_state_441b83|34|0 1,0,2,1,0,1,0,0,0,1,0,1,1,1,0,9,
scooby_state_441b33|33|0 2,0,0,0,1,0,0,0,0,0,0,1,1,2,2,9,
scooby_state_441b91|50|0 4,0,0,0,0,0,0,0,0,0,0,1,1,1,2,9,
scooby_state_441ae2|36|0 2,2,1,1,1,0,0,0,0,0,1,1,0,0,0,9,
scooby_state_441b91|26|0 1,0,1,2,1,1,1,0,0,0,1,0,0,1,0,9,
scooby_state_44168a|48|-8 9,0,0,0,0,0,0,0,0,0,0,0,0,0,0,9,
scooby_state_441b91|21|0 3,1,0,0,1,0,1,0,0,0,0,0,1,1,1,9,
scooby_state_44188c|20|0 1,0,1,0,0,1,0,0,0,1,2,1,0,0,2,9,
scooby_state_441aee|51|0 4,0,0,1,0,0,0,1,0,0,1,2,0,0,0,9,
scooby_state_441b33|39|0 1,0,1,1,0,0,0,1,2,1,1,0,0,0,1,9,
scooby_state_441b83|43|0 2,1,1,1,0,1,1,0,0,1,0,0,0,1,0,9,
scooby_state_441ae2|10|0 3,0,0,1,1,0,0,1,0,0,0,1,1,0,1,9,
scooby_state_441b91|19|0 2,1,1,1,1,1,1,0,0,0,0,0,0,1,0,9,
scooby_state_44188c|17|0 6,0,0,0,0,1,0,0,0,0,0,1,0,0,1,9,
scooby_state_441b83|28|0 0,0,1,1,0,1,1,1,0,1,0,1,1,1,0,9,
scooby_state_441b91|42|0 1,1,0,1,2,1,1,0,0,1,1,0,0,0,0,9,
scooby_state_441b83|17|0 5,0,0,0,1,1,0,0,2,0,0,0,0,0,0,9,
scooby_state_441b91|23|0 4,1,0,0,0,0,0,0,0,0,0,1,1,0,2,9,
scooby_state_441b33|63|0 1,1,0,0,2,0,0,2,0,0,0,1,2,0,0,9,
scooby_state_441d19|56|-1 0,1,1,1,1,1,1,0,0,0,0,1,1,1,0,9,
scooby_state_441ae2|19|0 3,0,0,0,1,0,0,1,1,0,0,1,0,1,1,9,
scooby_state_441b33|59|0 0,1,1,0,1,2,1,1,1,0,1,0,0,0,0,9,
scooby_state_441ad6|19|0 2,0,1,1,1,0,0,0,0,0,0,1,0,1,2,9,
scooby_state_441b33|8|0 2,1,0,0,1,0,0,2,0,0,0,2,1,0,0,9,
scooby_state_441ae2|23|0 3,1,0,0,0,0,0,0,0,0,1,1,1,0,2,9,
scooby_state_44188c|19|0 2,1,1,2,0,1,0,1,0,1,0,0,0,0,0,9,
scooby_state_441ce9|57|0 0,0,1,1,1,1,1,1,0,0,0,3,0,0,0,9,
scooby_state_441ae2|22|0 2,0,2,1,1,0,1,0,0,0,1,0,0,1,0,9,
scooby_state_44188c|27|0 3,1,0,1,1,1,0,0,1,0,0,0,0,0,0,8,
scooby_state_441b33|40|0 2,0,0,1,0,0,0,0,0,0,0,0,2,2,1,8,
scooby_state_441b33|29|0 3,0,0,0,1,0,0,0,0,0,0,1,1,1,1,8,
scooby_state_441b91|47|0 0,0,0,0,1,0,1,2,2,0,0,1,0,0,1,8,
scooby_state_441bb7|50|0 3,0,0,0,0,0,0,0,0,0,0,1,1,1,2,8,
scooby_state_441b83|45|0 3,1,1,1,0,0,0,0,0,1,1,0,0,0,0,8,
scooby_state_4415bb|54|0 0,0,0,0,1,1,0,1,1,1,0,1,1,1,0,8,
scooby_state_441b33|41|0 1,1,1,0,1,1,0,1,1,0,1,0,0,0,0,8,
scooby_state_441c2b|22|0 2,1,0,1,1,1,1,0,0,1,0,0,0,0,0,8,
scooby_state_441b91|35|0 1,0,1,2,1,1,1,0,0,0,1,0,0,0,0,8,
scooby_state_44188c|23|0 1,0,1,0,1,1,0,1,0,0,0,1,1,1,0,8,
scooby_state_441b33|44|0 1,0,0,1,0,0,0,0,1,1,0,1,1,2,0,8,
scooby_state_44167c|53|0 1,0,0,1,1,1,1,0,0,0,0,2,0,0,1,8,
scooby_state_441bb7|49|0 3,0,0,0,0,0,1,1,1,1,1,0,0,0,0,8,
scooby_state_441c2b|46|0 1,1,0,0,1,1,1,0,0,0,1,1,0,0,1,8,
scooby_state_441666|45|0 2,1,1,1,1,1,1,0,0,0,0,0,0,0,0,8,
scooby_state_441b33|43|0 1,2,2,0,0,0,1,1,0,0,0,0,0,0,1,8,
scooby_state_441650|35|0 0,0,0,0,0,1,1,1,1,1,1,1,1,0,0,8,
scooby_state_441b01|51|0 1,0,0,0,0,0,0,0,1,1,1,1,1,1,1,8,
scooby_state_441ae2|17|0 1,0,1,1,0,0,0,0,1,1,0,1,1,1,0,8,
scooby_state_441b91|39|0 3,1,1,0,0,0,1,0,0,0,0,0,0,0,2,8,
scooby_state_441650|36|0 1,1,0,1,0,0,0,0,0,0,0,0,1,2,2,8,
scooby_state_441b83|36|0 2,1,1,1,0,0,0,0,0,1,1,1,0,0,0,8,
scooby_state_441ad6|17|0 2,1,1,2,0,1,1,0,0,0,0,0,0,0,0,8,
scooby_state_441b83|38|0 1,1,1,1,0,0,1,0,0,0,1,0,0,1,1,8,
scooby_state_441b33|34|0 1,1,1,1,0,0,1,1,0,0,0,1,0,0,1,8,
scooby_state_441c2b|36|0 0,2,1,0,1,0,0,0,0,2,1,1,0,0,0,8,
scooby_state_44167c|51|0 1,1,1,1,1,1,1,1,0,0,0,0,0,0,0,8,
scooby_state_441650|37|0 0,0,1,0,1,1,1,1,1,0,0,1,0,0,1,8,
scooby_state_441c2b|19|0 2,0,0,1,1,1,0,0,0,0,0,1,1,0,1,8,
scooby_state_441c2b|10|0 2,0,1,1,0,0,0,0,1,0,1,1,0,0,1,8,
scooby_state_4415bb|56|0 1,0,2,0,0,0,0,0,0,1,1,0,1,1,1,8,
scooby_state_441b91|28|0 2,1,0,1,1,1,1,0,0,0,0,0,0,1,0,8,
scooby_state_441c2b|24|0 1,1,0,2,2,0,1,1,0,0,0,0,0,0,0,8,
scooby_state_441b01|50|0 2,0,1,1,1,1,1,1,0,0,0,0,0,0,0,8,
scooby_state_441b33|52|0 1,1,2,0,0,0,1,1,0,0,0,0,1,0,1,8,
scooby_state_533036|3|0 2,1,1,1,1,1,1,0,0,0,0,0,0,0,0,8,
scooby_state_441ad6|25|0 3,0,0,0,0,0,0,1,0,0,0,0,1,0,3,8,
scooby_state_441c2b|23|0 2,0,0,0,0,0,0,0,0,0,1,2,1,0,2,8,
scooby_state_441880|26|0 2,1,0,1,0,1,1,0,1,0,0,1,0,0,0,8,
scooby_state_441880|21|0 3,1,0,0,1,0,0,0,1,0,0,0,1,1,0,8,
scooby_state_441bb7|48|0 3,1,1,1,1,1,0,0,0,0,0,0,0,0,0,8,
scooby_state_441ae2|24|0 1,0,2,1,1,0,1,1,0,0,0,0,0,1,0,8,
scooby_state_441b33|15|0 0,1,0,1,0,1,1,0,0,0,1,1,1,0,1,8,
scooby_state_441b91|44|0 1,0,1,1,1,1,1,0,0,1,1,0,0,0,0,8,
scooby_state_441b33|16|0 2,1,0,0,0,0,0,0,0,1,0,1,0,1,1,7,
scooby_state_441c2b|17|0 1,1,0,1,0,1,1,1,0,0,0,0,1,0,0,7,
scooby_state_441b91|41|0 3,0,0,0,0,0,0,0,0,0,0,2,0,1,1,7,
scooby_state_441ae2|25|0 3,0,0,0,0,0,0,1,0,0,1,0,1,0,1,7,
scooby_state_441b33|42|0 1,0,0,0,0,0,0,0,0,0,1,0,2,2,1,7,
scooby_state_441b83|47|0 1,1,1,1,0,0,1,0,0,0,0,0,0,1,1,7,
scooby_state_44167c|52|0 0,0,0,0,0,0,0,0,1,1,1,1,1,1,1,7,
scooby_state_441b83|19|0 0,0,1,1,1,1,0,1,0,0,0,0,0,1,0,6,
scooby_state_441ad6|21|0 2,0,0,1,0,0,0,0,0,0,0,0,0,2,1,6,
scooby_state_441b33|28|0 0,0,0,0,1,0,1,1,1,1,0,1,0,0,0,6,
scooby_state_44188c|25|0 3,1,0,0,0,0,0,0,0,0,0,1,0,0,1,6,
scooby_state_441b33|10|0 2,1,0,0,2,0,0,0,0,0,0,0,1,0,0,6,
scooby_state_441b91|36|0 3,0,0,0,0,0,0,0,1,0,0,1,0,0,1,6,
scooby_state_441ad6|26|0 2,1,1,1,0,0,1,0,0,0,0,0,0,0,0,6,
scooby_state_44188c|24|0 0,0,0,0,1,1,2,0,0,0,0,0,0,1,1,6,
scooby_state_441666|47|0 1,1,1,0,0,0,0,0,0,0,0,0,0,1,2,6,
scooby_state_44188c|22|0 3,1,0,1,0,0,0,0,0,0,0,0,0,0,1,6,
scooby_state_441b33|38|0 1,1,0,1,1,0,0,0,0,0,0,0,1,1,0,6,
scooby_state_441666|46|0 0,0,0,0,0,0,0,1,1,1,1,1,1,0,0,6,
scooby_state_441666|48|0 0,0,0,1,1,1,1,0,0,0,0,1,1,0,0,6,
scooby_state_44188c|18|0 3,0,0,0,0,0,1,1,1,0,0,0,0,0,0,6,
scooby_state_441b52|50|0 0,1,1,0,1,1,1,0,0,0,0,0,0,0,0,5,
scooby_state_441b33|31|0 1,0,0,0,1,0,0,0,0,0,0,0,1,1,1,5,
scooby_state_4415bb|55|0 1,1,0,1,0,0,1,0,0,0,0,0,0,0,1,5,
scooby_state_441ae2|26|0 1,0,1,0,0,0,1,0,0,0,0,0,1,1,0,5,
scooby_state_44188c|21|0 1,0,0,0,0,0,0,0,0,0,0,1,1,1,1,5,
scooby_state_4415de|19|0 0,0,0,0,0,1,1,1,1,1,0,0,0,0,0,5,
scooby_state_441b91|46|0 2,1,1,0,0,0,1,0,0,0,0,0,0,0,0,5,
scooby_state_4415de|18|0 1,1,1,1,1,0,0,0,0,0,0,0,0,0,0,5,
scooby_state_441ae2|21|0 1,0,0,0,1,0,0,1,0,0,0,0,2,0,0,5,
scooby_state_441b83|23|0 1,1,1,0,0,1,1,0,0,0,0,0,0,0,0,5,
scooby_state_441c2b|25|0 3,0,0,0,0,0,0,1,1,0,0,0,0,0,0,5,
scooby_state_4415de|20|0 0,0,0,0,0,0,0,0,0,0,1,1,1,1,1,5,
scooby_state_441b91|37|0 2,1,1,0,0,0,1,0,0,0,0,0,0,0,0,5,
scooby_state_441b83|20|0 2,0,0,0,0,0,0,0,0,0,0,0,1,0,2,5,
scooby_state_441b33|45|0 1,0,0,0,0,0,0,1,0,0,0,0,1,0,1,4,
scooby_state_441650|34|0 0,1,1,1,1,0,0,0,0,0,0,0,0,0,0,4,
scooby_state_441b01|52|0 3,0,0,0,0,0,0,0,0,0,0,0,0,0,1,4,
scooby_state_441b01|49|0 3,1,0,0,0,0,0,0,0,0,0,0,0,0,0,4,
scooby_state_441b83|18|0 2,0,0,0,0,0,0,0,0,0,0,0,1,0,1,4,
scooby_state_441c2b|21|0 2,0,0,0,1,0,0,0,0,0,0,0,1,0,0,4,
scooby_state_44167c|54|0 0,1,0,0,0,0,0,0,0,0,0,2,0,1,0,4,
scooby_state_441b33|36|0 1,0,0,0,0,0,0,1,0,0,0,0,1,0,1,4,
scooby_state_441c2b|26|0 1,1,0,1,0,0,0,0,0,0,0,0,1,0,0,4,
scooby_state_4415bb|57|0 0,0,0,0,1,0,0,0,0,0,0,1,1,0,1,4,
scooby_state_441ba4|50|0 4,0,0,0,0,0,0,0,0,0,0,0,0,0,0,4,
scooby_state_441d11|53|-5 3,0,0,0,0,0,0,0,0,0,0,0,0,0,0,3,
scooby_state_441aee|19|0 0,1,0,1,1,0,0,0,0,0,0,0,0,0,0,3,
scooby_state_441b40|56|1 1,0,0,0,0,0,0,0,0,0,1,0,0,1,0,3,
scooby_state_441b83|21|0 1,0,0,0,0,0,0,0,0,0,0,1,0,1,0,3,
scooby_state_441ba4|17|0 0,1,0,1,1,0,0,0,0,0,0,0,0,0,0,3,
scooby_state_44188c|26|0 1,0,0,0,0,1,0,0,0,0,0,1,0,0,0,3,
scooby_state_441b40|45|1 1,0,1,0,0,0,0,0,0,0,0,0,0,1,0,3,
scooby_state_441b40|3|1 0,0,0,1,0,0,0,1,1,0,0,0,0,0,0,3,
scooby_state_441b40|4|1 0,0,0,1,1,0,0,0,0,1,0,0,0,0,0,3,
scooby_state_441b40|1|1 1,0,0,0,0,0,0,0,0,0,1,0,0,1,0,3,
scooby_state_441b40|10|1 1,0,0,0,0,0,0,0,0,0,1,0,0,1,0,3,
scooby_state_441b40|54|1 0,0,1,1,0,0,0,0,0,0,0,0,0,1,0,3,
scooby_state_4415de|17|0 3,0,0,0,0,0,0,0,0,0,0,0,0,0,0,3,
scooby_state_441b83|27|0 2,0,0,0,0,0,0,0,0,0,1,0,0,0,0,3,
scooby_state_441b40|12|1 0,0,0,1,0,0,0,1,1,0,0,0,0,0,0,3,
scooby_state_441b40|57|1 0,1,0,0,0,0,0,0,0,0,0,2,0,0,0,3,
scooby_state_441b40|55|1 1,0,0,0,0,0,1,0,0,0,0,0,0,0,1,3,
scooby_state_441b40|63|1 0,0,1,1,0,0,0,0,0,0,0,0,0,1,0,3,
scooby_state_441b40|62|1 0,0,1,0,0,0,0,0,0,1,0,0,1,0,0,3,
scooby_state_441b40|0|0 0,0,1,0,0,1,0,0,0,1,0,0,0,0,0,3,
scooby_state_441b33|46|0 0,0,0,0,0,1,0,0,0,1,1,0,0,0,0,3,
scooby_state_441b40|6|1 0,1,0,0,0,0,1,0,0,0,0,0,0,0,1,3,
scooby_state_441b33|47|0 1,1,0,0,1,0,0,0,0,0,0,0,0,0,0,3,
scooby_state_441b40|7|1 0,0,1,0,0,0,0,0,0,1,0,0,1,0,0,3,
scooby_state_441b83|22|0 2,0,0,0,0,0,0,0,0,0,0,1,0,0,0,3,
scooby_state_441b40|53|1 0,0,1,0,0,0,0,0,0,1,0,0,0,0,0,2,
scooby_state_441b40|36|1 0,0,1,0,0,0,0,0,0,0,0,0,0,1,0,2,
scooby_state_441b40|15|0 0,0,0,1,0,0,0,0,0,0,0,0,0,1,0,2,
scooby_state_441b33|23|0 1,0,0,0,0,0,1,0,0,0,0,0,0,0,0,2,
scooby_state_441b40|31|1 0,0,0,1,0,0,0,0,1,0,0,0,0,0,0,2,
scooby_state_441b33|21|0 1,0,0,0,0,0,0,1,0,0,0,0,0,0,0,2,
scooby_state_441b40|37|1 1,0,0,0,0,0,1,0,0,0,0,0,0,0,0,2,
scooby_state_441b40|14|1 0,0,0,0,0,1,0,0,0,0,0,0,0,0,1,2,
scooby_state_441650|38|0 0,0,0,0,0,0,0,0,0,1,1,0,0,0,0,2,
scooby_state_441b83|25|0 1,0,0,0,0,0,0,0,0,0,0,0,1,0,0,2,
scooby_state_441b40|46|1 1,0,0,0,0,0,1,0,0,0,0,0,0,0,0,2,
scooby_state_441b40|17|0 1,0,0,0,0,0,0,0,1,0,0,0,0,0,0,2,
scooby_state_441b40|8|1 0,0,1,0,0,0,0,0,0,0,0,0,0,1,0,2,
scooby_state_441b40|20|0 0,0,0,0,0,0,2,0,0,0,0,0,0,0,0,2,
scooby_state_441b40|59|0 0,0,0,0,0,1,0,1,0,0,0,0,0,0,0,2,
scooby_state_441b40|40|1 0,0,0,1,0,0,0,0,1,0,0,0,0,0,0,2,
scooby_state_441b40|49|1 0,0,0,1,0,0,0,0,1,0,0,0,0,0,0,2,
scooby_state_441b40|58|1 0,0,0,1,0,0,0,0,1,0,0,0,0,0,0,2,
scooby_state_441b83|24|0 0,0,0,0,0,0,0,1,1,0,0,0,0,0,0,2,
scooby_state_441b40|38|1 0,0,0,0,0,0,0,0,0,0,0,1,0,1,0,2,
scooby_state_441b40|61|0 0,0,0,1,0,0,0,0,0,0,0,0,0,1,0,2,
scooby_state_441b40|51|1 0,0,0,0,0,1,0,0,0,0,0,0,0,0,1,2,
scooby_state_441b40|11|0 0,0,0,0,0,0,1,1,0,0,0,0,0,0,0,2,
scooby_state_441b40|33|1 0,0,0,0,0,1,0,0,0,0,0,0,0,0,1,2,
scooby_state_441b83|26|0 0,0,0,0,1,1,0,0,0,0,0,0,0,0,0,2,
scooby_state_441bb7|51|0 1,1,0,0,0,0,0,0,0,0,0,0,0,0,0,2,
scooby_state_441b33|19|0 0,0,0,1,1,0,0,0,0,0,0,0,0,0,0,2,
scooby_state_441b40|35|1 0,0,0,1,0,0,0,0,0,1,0,0,0,0,0,2,
scooby_state_441b40|44|1 0,0,1,0,0,0,0,0,0,1,0,0,0,0,0,2,
scooby_state_441b40|2|1 0,1,0,0,0,0,0,0,0,0,0,1,0,0,0,2,
scooby_state_441b40|22|0 0,0,0,0,1,0,0,1,0,0,0,0,0,0,0,2,
scooby_state_441bb7|47|0 2,0,0,0,0,0,0,0,0,0,0,0,0,0,0,2,
scooby_state_44167c|50|0 2,0,0,0,0,0,0,0,0,0,0,0,0,0,0,2,
scooby_state_441b40|26|0 1,0,0,0,0,0,0,0,1,0,0,0,0,0,0,2,
scooby_state_441b40|42|1 0,0,0,0,0,1,0,0,0,0,0,0,0,0,1,2,
scooby_state_441b40|18|0 0,0,0,0,0,0,0,0,0,1,0,0,0,0,1,2,
scooby_state_441b40|5|1 0,0,0,0,0,1,0,0,0,0,0,0,0,0,1,2,
scooby_state_441b40|60|1 0,0,0,0,0,1,0,0,0,0,0,0,0,0,1,2,
scooby_state_441b52|19|0 2,0,0,0,0,0,0,0,0,0,0,0,0,0,0,2,
scooby_state_441b40|27|0 0,0,0,0,0,0,0,0,1,0,0,0,0,0,1,2,
scooby_state_441b40|13|1 0,0,0,1,1,0,0,0,0,0,0,0,0,0,0,2,
scooby_state_44182f|50|-4 0,0,0,0,0,0,0,0,0,0,0,2,0,0,0,2,
scooby_state_441b40|8|0 0,1,0,0,0,0,0,0,1,0,0,0,0,0,0,2,
scooby_state_441b40|9|0 0,0,0,0,0,1,0,0,0,1,0,0,0,0,0,2,
scooby_state_441b33|17|0 1,0,0,0,0,0,0,0,0,1,0,0,0,0,0,2,
scooby_state_441b33|20|0 0,0,0,0,0,0,0,0,0,0,0,0,0,1,1,2,
scooby_state_44168a|48|-4 2,0,0,0,0,0,0,0,0,0,0,0,0,0,0,2,
scooby_state_441b40|15|1 0,1,0,0,0,0,0,0,0,0,0,0,0,0,1,2,
scooby_state_53d640|25|-8 1,0,0,0,0,0,0,0,0,0,0,0,0,0,0,1,
scooby_state_50b653|62|1 1,0,0,0,0,0,0,0,0,0,0,0,0,0,0,1,
scooby_state_57a372|32|0 1,0,0,0,0,0,0,0,0,0,0,0,0,0,0,1,
scooby_state_50c503|20|1 1,0,0,0,0,0,0,0,0,0,0,0,0,0,0,1,
scooby_state_533dc1|55|1 1,0,0,0,0,0,0,0,0,0,0,0,0,0,0,1,
scooby_state_441b1f|61|-2 1,0,0,0,0,0,0,0,0,0,0,0,0,0,0,1,
scooby_state_441b40|47|1 0,0,0,0,0,0,0,0,0,0,1,0,0,0,0,1,
scooby_state_441cc7|51|1 1,0,0,0,0,0,0,0,0,0,0,0,0,0,0,1,
scooby_state_50ccc1|51|1 1,0,0,0,0,0,0,0,0,0,0,0,0,0,0,1,
scooby_state_441b01|44|1 1,0,0,0,0,0,0,0,0,0,0,0,0,0,0,1,
scooby_state_531104|4|1 1,0,0,0,0,0,0,0,0,0,0,0,0,0,0,1,
scooby_state_50c800|32|-6 1,0,0,0,0,0,0,0,0,0,0,0,0,0,0,1,
scooby_state_441c01|48|1 1,0,0,0,0,0,0,0,0,0,0,0,0,0,0,1,
scooby_state_441bc1|47|1 1,0,0,0,0,0,0,0,0,0,0,0,0,0,0,1,
scooby_state_441ace|43|2 1,0,0,0,0,0,0,0,0,0,0,0,0,0,0,1,
scooby_state_50cd2a|54|5 1,0,0,0,0,0,0,0,0,0,0,0,0,0,0,1,
scooby_state_50c9e8|39|-24 1,0,0,0,0,0,0,0,0,0,0,0,0,0,0,1,
scooby_state_50c728|61|-1 1,0,0,0,0,0,0,0,0,0,0,0,0,0,0,1,
scooby_state_5351f0|7|-1 1,0,0,0,0,0,0,0,0,0,0,0,0,0,0,1,
scooby_state_441b40|17|1 0,0,1,0,0,0,0,0,0,0,0,0,0,0,0,1,
scooby_state_533598|22|9 1,0,0,0,0,0,0,0,0,0,0,0,0,0,0,1,
scooby_state_50bb04|49|-13 1,0,0,0,0,0,0,0,0,0,0,0,0,0,0,1,
scooby_state_4418aa|6|0 1,0,0,0,0,0,0,0,0,0,0,0,0,0,0,1,
scooby_state_441908|36|1 1,0,0,0,0,0,0,0,0,0,0,0,0,0,0,1,
scooby_state_50ce01|56|1 1,0,0,0,0,0,0,0,0,0,0,0,0,0,0,1,
scooby_state_50cb31|44|2 1,0,0,0,0,0,0,0,0,0,0,0,0,0,0,1,
scooby_state_5337c4|31|1 1,0,0,0,0,0,0,0,0,0,0,0,0,0,0,1,
scooby_state_441b33|22|0 0,0,0,0,0,0,0,0,0,0,0,0,0,1,0,1,
scooby_state_50c707|28|11 1,0,0,0,0,0,0,0,0,0,0,0,0,0,0,1,
scooby_state_533708|28|6 1,0,0,0,0,0,0,0,0,0,0,0,0,0,0,1,
scooby_state_441c16|60|1 1,0,0,0,0,0,0,0,0,0,0,0,0,0,0,1,
scooby_state_441b40|29|1 0,0,0,0,0,0,0,0,0,0,0,1,0,0,0,1,
scooby_state_53d701|28|-7 1,0,0,0,0,0,0,0,0,0,0,0,0,0,0,1,
scooby_state_533300|12|1 1,0,0,0,0,0,0,0,0,0,0,0,0,0,0,1,
scooby_state_441b65|8|0 1,0,0,0,0,0,0,0,0,0,0,0,0,0,0,1,
scooby_state_441c23|3|1 1,0,0,0,0,0,0,0,0,0,0,0,0,0,0,1,
scooby_state_50be4d|57|2 1,0,0,0,0,0,0,0,0,0,0,0,0,0,0,1,
scooby_state_50b8c1|35|1 1,0,0,0,0,0,0,0,0,0,0,0,0,0,0,1,
scooby_state_50cde9|55|1 1,0,0,0,0,0,0,0,0,0,0,0,0,0,0,1,
scooby_state_5091f9|7|1 1,0,0,0,0,0,0,0,0,0,0,0,0,0,0,1,
scooby_state_533304|30|2 1,0,0,0,0,0,0,0,0,0,0,0,0,0,0,1,
scooby_state_441880|34|1 1,0,0,0,0,0,0,0,0,0,0,0,0,0,0,1,
scooby_state_50b800|32|0 1,0,0,0,0,0,0,0,0,0,0,0,0,0,0,1,
scooby_state_57b181|6|1 1,0,0,0,0,0,0,0,0,0,0,0,0,0,0,1,
scooby_state_50cb81|46|1 1,0,0,0,0,0,0,0,0,0,0,0,0,0,0,1,
scooby_state_50bdc0|55|1 1,0,0,0,0,0,0,0,0,0,0,0,0,0,0,1,
scooby_state_441b40|19|0 0,0,1,0,0,0,0,0,0,0,0,0,0,0,0,1,
scooby_state_441a01|40|1 1,0,0,0,0,0,0,0,0,0,0,0,0,0,0,1,
scooby_state_533f82|62|1 1,0,0,0,0,0,0,0,0,0,0,0,0,0,0,1,
scooby_state_531120|56|2 1,0,0,0,0,0,0,0,0,0,0,0,0,0,0,1,
scooby_state_441b40|61|1 0,0,0,0,0,0,0,0,0,0,0,0,0,0,1,1,
scooby_state_50917c|5|0 1,0,0,0,0,0,0,0,0,0,0,0,0,0,0,1,
scooby_state_533a84|42|0 1,0,0,0,0,0,0,0,0,0,0,0,0,0,0,1,
scooby_state_50c600|24|1 1,0,0,0,0,0,0,0,0,0,0,0,0,0,0,1,
scooby_state_441563|55|-1 1,0,0,0,0,0,0,0,0,0,0,0,0,0,0,1,
scooby_state_50c201|8|-31 1,0,0,0,0,0,0,0,0,0,0,0,0,0,0,1,
scooby_state_441a5b|12|-28 1,0,0,0,0,0,0,0,0,0,0,0,0,0,0,1,
scooby_state_50bbc0|47|4 1,0,0,0,0,0,0,0,0,0,0,0,0,0,0,1,
scooby_state_441b40|2|0 0,0,0,0,0,0,1,0,0,0,0,0,0,0,0,1,
scooby_state_441a03|20|0 1,0,0,0,0,0,0,0,0,0,0,0,0,0,0,1,
scooby_state_441b65|20|0 0,0,1,0,0,0,0,0,0,0,0,0,0,0,0,1,
scooby_state_441b01|41|0 1,0,0,0,0,0,0,0,0,0,0,0,0,0,0,1,
scooby_state_533683|26|1 1,0,0,0,0,0,0,0,0,0,0,0,0,0,0,1,
scooby_state_50b653|57|1 1,0,0,0,0,0,0,0,0,0,0,0,0,0,0,1,
scooby_state_441870|33|-18 1,0,0,0,0,0,0,0,0,0,0,0,0,0,0,1,
scooby_state_50c307|12|-2 1,0,0,0,0,0,0,0,0,0,0,0,0,0,0,1,
scooby_state_441bb7|39|0 1,0,0,0,0,0,0,0,0,0,0,0,0,0,0,1,
scooby_state_44194f|37|0 1,0,0,0,0,0,0,0,0,0,0,0,0,0,0,1,
scooby_state_50cf95|62|6 1,0,0,0,0,0,0,0,0,0,0,0,0,0,0,1,
scooby_state_50bec3|59|1 1,0,0,0,0,0,0,0,0,0,0,0,0,0,0,1,
scooby_state_4419de|39|2 1,0,0,0,0,0,0,0,0,0,0,0,0,0,0,1,
scooby_state_4419f4|62|32 1,0,0,0,0,0,0,0,0,0,0,0,0,0,0,1,
scooby_state_4419de|1|-4 1,0,0,0,0,0,0,0,0,0,0,0,0,0,0,1,
scooby_state_5339c2|39|1 1,0,0,0,0,0,0,0,0,0,0,0,0,0,0,1,
scooby_state_441b65|17|0 1,0,0,0,0,0,0,0,0,0,0,0,0,0,0,1,
scooby_state_53521e|8|-5 1,0,0,0,0,0,0,0,0,0,0,0,0,0,0,1,
scooby_state_50b840|33|-27 1,0,0,0,0,0,0,0,0,0,0,0,0,0,0,1,
scooby_state_441b40|21|0 0,0,0,0,0,0,0,0,0,0,0,0,0,1,0,1,
scooby_state_5332f8|11|-31 1,0,0,0,0,0,0,0,0,0,0,0,0,0,0,1,
scooby_state_441b40|28|0 0,0,1,0,0,0,0,0,0,0,0,0,0,0,0,1,
scooby_state_50c090|2|1 1,0,0,0,0,0,0,0,0,0,0,0,0,0,0,1,
scooby_state_44169d|52|-2 1,0,0,0,0,0,0,0,0,0,0,0,0,0,0,1,
scooby_state_441b40|60|0 0,0,0,0,0,0,0,0,0,0,0,0,1,0,0,1,
scooby_state_53d66a|58|-3 1,0,0,0,0,0,0,0,0,0,0,0,0,0,0,1,
scooby_state_441b40|9|1 0,0,0,0,1,0,0,0,0,0,0,0,0,0,0,1,
scooby_state_441b83|46|1 1,0,0,0,0,0,0,0,0,0,0,0,0,0,0,1,
scooby_state_441b40|58|0 0,0,0,0,0,0,0,0,0,0,0,0,0,0,1,1,
scooby_state_441b40|24|1 0,0,0,0,0,0,1,0,0,0,0,0,0,0,0,1,
scooby_state_441b40|47|0 0,0,0,0,0,0,1,0,0,0,0,0,0,0,0,1,
scooby_state_441b01|53|0 0,0,0,1,0,0,0,0,0,0,0,0,0,0,0,1,
scooby_state_56add2|55|2 1,0,0,0,0,0,0,0,0,0,0,0,0,0,0,1,
scooby_state_50c5a1|22|-8 1,0,0,0,0,0,0,0,0,0,0,0,0,0,0,1,
scooby_state_441b40|63|0 0,1,0,0,0,0,0,0,0,0,0,0,0,0,0,1,
scooby_state_441b40|29|0 0,0,0,0,0,0,1,0,0,0,0,0,0,0,0,1,
scooby_state_441aee|52|0 1,0,0,0,0,0,0,0,0,0,0,0,0,0,0,1,
scooby_state_441b40|41|1 0,0,0,0,1,0,0,0,0,0,0,0,0,0,0,1,
scooby_state_50c643|25|1 1,0,0,0,0,0,0,0,0,0,0,0,0,0,0,1,
scooby_state_441b40|43|1 0,0,0,0,0,0,0,0,0,0,0,0,1,0,0,1,
scooby_state_441b40|32|1 0,0,0,0,1,0,0,0,0,0,0,0,0,0,0,1,
scooby_state_44162a|52|-3 0,0,0,0,0,0,0,0,0,0,0,1,0,0,0,1,
scooby_state_441b40|6|0 0,0,0,0,0,0,0,0,0,0,0,0,0,1,0,1,
scooby_state_53d74c|32|0 1,0,0,0,0,0,0,0,0,0,0,0,0,0,0,1,
scooby_state_441b40|56|0 0,0,0,0,0,0,0,0,0,0,0,0,0,0,1,1,
scooby_state_441b40|1|0 0,0,1,0,0,0,0,0,0,0,0,0,0,0,0,1,
scooby_state_4418aa|9|0 0,0,0,0,0,0,0,0,0,0,0,0,0,0,1,1,
scooby_state_441b40|30|1 0,0,0,0,0,0,0,1,0,0,0,0,0,0,0,1,
scooby_state_441b40|48|1 0,1,0,0,0,0,0,0,0,0,0,0,0,0,0,1,
scooby_state_441b40|11|1 0,1,0,0,0,0,0,0,0,0,0,0,0,0,0,1,
scooby_state_441b65|16|0 1,0,0,0,0,0,0,0,0,0,0,0,0,0,0,1,
scooby_state_441b65|18|0 1,0,0,0,0,0,0,0,0,0,0,0,0,0,0,1,
scooby_state_441b40|16|0 0,0,0,0,0,0,0,0,0,0,1,0,0,0,0,1,
scooby_state_50bf00|60|1 1,0,0,0,0,0,0,0,0,0,0,0,0,0,0,1,
scooby_state_441b40|25|0 0,0,0,0,0,0,0,0,0,0,1,0,0,0,0,1,
scooby_state_57a342|13|1 1,0,0,0,0,0,0,0,0,0,0,0,0,0,0,1,
scooby_state_5336c3|27|1 1,0,0,0,0,0,0,0,0,0,0,0,0,0,0,1,
scooby_state_4418aa|8|0 0,0,0,0,0,0,0,0,0,1,0,0,0,0,0,1,
scooby_state_4416b1|54|2 0,0,1,0,0,0,0,0,0,0,0,0,0,0,0,1,
scooby_state_44162a|52|4 1,0,0,0,0,0,0,0,0,0,0,0,0,0,0,1,
scooby_state_5335f8|23|19 1,0,0,0,0,0,0,0,0,0,0,0,0,0,0,1,
scooby_state_441587|22|1 1,0,0,0,0,0,0,0,0,0,0,0,0,0,0,1,
scooby_state_4418ff|49|37 1,0,0,0,0,0,0,0,0,0,0,0,0,0,0,1,
scooby_state_532fb0|62|0 1,0,0,0,0,0,0,0,0,0,0,0,0,0,0,1,
scooby_state_441be3|2|2 1,0,0,0,0,0,0,0,0,0,0,0,0,0,0,1,
scooby_state_50c41d|55|12 1,0,0,0,0,0,0,0,0,0,0,0,0,0,0,1,
scooby_state_5332a3|7|1 1,0,0,0,0,0,0,0,0,0,0,0,0,0,0,1,
scooby_state_50b883|34|1 1,0,0,0,0,0,0,0,0,0,0,0,0,0,0,1,
scooby_state_533601|24|1 1,0,0,0,0,0,0,0,0,0,0,0,0,0,0,1,
scooby_state_53d782|30|1 1,0,0,0,0,0,0,0,0,0,0,0,0,0,0,1,
scooby_state_4418aa|10|0 0,0,0,0,0,1,0,0,0,0,0,0,0,0,0,1,
scooby_state_441b40|19|1 1,0,0,0,0,0,0,0,0,0,0,0,0,0,0,1,
scooby_state_5310e0|3|0 1,0,0,0,0,0,0,0,0,0,0,0,0,0,0,1,
scooby_state_533d81|54|1 1,0,0,0,0,0,0,0,0,0,0,0,0,0,0,1,
scooby_state_5330e6|5|-11 1,0,0,0,0,0,0,0,0,0,0,0,0,0,0,1,
scooby_state_57bd78|53|46 1,0,0,0,0,0,0,0,0,0,0,0,0,0,0,1,
scooby_state_531203|8|1 1,0,0,0,0,0,0,0,0,0,0,0,0,0,0,1,
scooby_state_533101|4|1 1,0,0,0,0,0,0,0,0,0,0,0,0,0,0,1,
scooby_state_441b33|25|0 1,0,0,0,0,0,0,0,0,0,0,0,0,0,0,1,
scooby_state_50ca10|40|28 1,0,0,0,0,0,0,0,0,0,0,0,0,0,0,1,
scooby_state_53304d|54|0 1,0,0,0,0,0,0,0,0,0,0,0,0,0,0,1,
scooby_state_441b40|5|0 0,0,0,0,0,0,0,0,0,0,0,0,1,0,0,1,
scooby_state_441c87|50|1 1,0,0,0,0,0,0,0,0,0,0,0,0,0,0,1,
scooby_state_441807|32|1 0,1,0,0,0,0,0,0,0,0,0,0,0,0,0,1,
scooby_state_4417c3|31|1 1,0,0,0,0,0,0,0,0,0,0,0,0,0,0,1,
scooby_state_441780|30|1 1,0,0,0,0,0,0,0,0,0,0,0,0,0,0,1,
scooby_state_441701|28|1 1,0,0,0,0,0,0,0,0,0,0,0,0,0,0,1,
scooby_state_441640|25|1 1,0,0,0,0,0,0,0,0,0,0,0,0,0,0,1,
scooby_state_441b40|16|1 0,0,0,0,0,0,0,0,0,1,0,0,0,0,0,1,
scooby_state_441603|24|1 1,0,0,0,0,0,0,0,0,0,0,0,0,0,0,1,
scooby_state_4415c1|23|1 1,0,0,0,0,0,0,0,0,0,0,0,0,0,0,1,
scooby_state_533347|13|-4 1,0,0,0,0,0,0,0,0,0,0,0,0,0,0,1,
scooby_state_53126b|38|3 1,0,0,0,0,0,0,0,0,0,0,0,0,0,0,1,
scooby_state_5311de|25|0 1,0,0,0,0,0,0,0,0,0,0,0,0,0,0,1,
scooby_state_533768|29|19 1,0,0,0,0,0,0,0,0,0,0,0,0,0,0,1,
scooby_state_5311cc|6|-45 1,0,0,0,0,0,0,0,0,0,0,0,0,0,0,1,
scooby_state_532fc3|63|1 1,0,0,0,0,0,0,0,0,0,0,0,0,0,0,1,
scooby_state_531241|9|1 1,0,0,0,0,0,0,0,0,0,0,0,0,0,0,1,
scooby_state_53d4c5|19|1 1,0,0,0,0,0,0,0,0,0,0,0,0,0,0,1,
scooby_state_531110|50|0 1,0,0,0,0,0,0,0,0,0,0,0,0,0,0,1,
scooby_state_44194f|5|0 1,0,0,0,0,0,0,0,0,0,0,0,0,0,0,1,
scooby_state_400440|1|1 1,0,0,0,0,0,0,0,0,0,0,0,0,0,0,1,
scooby_state_50b6c2|27|1 1,0,0,0,0,0,0,0,0,0,0,0,0,0,0,1,
scooby_state_533641|25|1 1,0,0,0,0,0,0,0,0,0,0,0,0,0,0,1,
scooby_state_533e81|58|1 1,0,0,0,0,0,0,0,0,0,0,0,0,0,0,1,
scooby_state_441b40|52|1 0,0,0,0,0,0,0,0,0,0,0,0,1,0,0,1,
scooby_state_50cc01|48|1 1,0,0,0,0,0,0,0,0,0,0,0,0,0,0,1,
scooby_state_50c7a8|30|9 1,0,0,0,0,0,0,0,0,0,0,0,0,0,0,1,
scooby_state_50cc82|50|1 1,0,0,0,0,0,0,0,0,0,0,0,0,0,0,1,
scooby_state_50c1c9|7|5 1,0,0,0,0,0,0,0,0,0,0,0,0,0,0,1,
scooby_state_576a42|41|1 1,0,0,0,0,0,0,0,0,0,0,0,0,0,0,1,
scooby_state_535022|0|0 1,0,0,0,0,0,0,0,0,0,0,0,0,0,0,1,
scooby_state_441b33|18|0 1,0,0,0,0,0,0,0,0,0,0,0,0,0,0,1,
scooby_state_50c4c7|19|1 1,0,0,0,0,0,0,0,0,0,0,0,0,0,0,1,
scooby_state_533004|0|-28 1,0,0,0,0,0,0,0,0,0,0,0,0,0,0,1,
scooby_state_576920|36|0 1,0,0,0,0,0,0,0,0,0,0,0,0,0,0,1,
scooby_state_50c9b5|20|-11 1,0,0,0,0,0,0,0,0,0,0,0,0,0,0,1,
scooby_state_53d663|61|0 1,0,0,0,0,0,0,0,0,0,0,0,0,0,0,1,
scooby_state_50c5c1|23|1 1,0,0,0,0,0,0,0,0,0,0,0,0,0,0,1,
scooby_state_50b680|26|1 1,0,0,0,0,0,0,0,0,0,0,0,0,0,0,1,
scooby_state_441b40|50|1 0,0,0,0,1,0,0,0,0,0,0,0,0,0,0,1,
scooby_state_533285|10|1 1,0,0,0,0,0,0,0,0,0,0,0,0,0,0,1,
scooby_state_576950|37|-4 1,0,0,0,0,0,0,0,0,0,0,0,0,0,0,1,
scooby_state_5769e0|39|1 1,0,0,0,0,0,0,0,0,0,0,0,0,0,0,1,
scooby_state_50d160|5|-6 1,0,0,0,0,0,0,0,0,0,0,0,0,0,0,1,
scooby_state_441b40|13|0 0,0,0,0,1,0,0,0,0,0,0,0,0,0,0,1,
scooby_state_53d623|24|8 1,0,0,0,0,0,0,0,0,0,0,0,0,0,0,1,
scooby_state_50d202|8|3 1,0,0,0,0,0,0,0,0,0,0,0,0,0,0,1,
scooby_state_50c400|16|-16 1,0,0,0,0,0,0,0,0,0,0,0,0,0,0,1,
scooby_state_53d370|13|-18 1,0,0,0,0,0,0,0,0,0,0,0,0,0,0,1,
scooby_state_533a02|40|1 1,0,0,0,0,0,0,0,0,0,0,0,0,0,0,1,
scooby_state_50c880|34|1 1,0,0,0,0,0,0,0,0,0,0,0,0,0,0,1,
scooby_state_533f00|60|1 1,0,0,0,0,0,0,0,0,0,0,0,0,0,0,1,
scooby_state_53d871|42|22 1,0,0,0,0,0,0,0,0,0,0,0,0,0,0,1,
scooby_state_535041|1|1 1,0,0,0,0,0,0,0,0,0,0,0,0,0,0,1,
scooby_state_533e42|57|1 1,0,0,0,0,0,0,0,0,0,0,0,0,0,0,1,
scooby_state_50d126|4|0 1,0,0,0,0,0,0,0,0,0,0,0,0,0,0,1,
scooby_state_533d26|52|20 1,0,0,0,0,0,0,0,0,0,0,0,0,0,0,1,
scooby_state_50b601|24|1 1,0,0,0,0,0,0,0,0,0,0,0,0,0,0,1,
scooby_state_533e02|56|1 1,0,0,0,0,0,0,0,0,0,0,0,0,0,0,1,
scooby_state_441af9|0|-4 1,0,0,0,0,0,0,0,0,0,0,0,0,0,0,1,
scooby_state_533dc1|50|12 1,0,0,0,0,0,0,0,0,0,0,0,0,0,0,1,
scooby_state_533082|2|1 1,0,0,0,0,0,0,0,0,0,0,0,0,0,0,1,
scooby_state_533802|32|1 1,0,0,0,0,0,0,0,0,0,0,0,0,0,0,1,
scooby_state_50bff0|63|31 1,0,0,0,0,0,0,0,0,0,0,0,0,0,0,1,
scooby_state_50be81|58|1 1,0,0,0,0,0,0,0,0,0,0,0,0,0,0,1,
scooby_state_50c901|36|1 1,0,0,0,0,0,0,0,0,0,0,0,0,0,0,1,
scooby_state_50cfc0|63|1 1,0,0,0,0,0,0,0,0,0,0,0,0,0,0,1,
scooby_state_50bc50|15|0 1,0,0,0,0,0,0,0,0,0,0,0,0,0,0,1,
scooby_state_533234|8|-19 1,0,0,0,0,0,0,0,0,0,0,0,0,0,0,1,
scooby_state_4416c5|27|1 1,0,0,0,0,0,0,0,0,0,0,0,0,0,0,1,
scooby_state_535306|12|1 1,0,0,0,0,0,0,0,0,0,0,0,0,0,0,1,
scooby_state_53d420|16|2 1,0,0,0,0,0,0,0,0,0,0,0,0,0,0,1,
scooby_state_53d7c1|31|1 1,0,0,0,0,0,0,0,0,0,0,0,0,0,0,1,
scooby_state_50bad0|43|14 1,0,0,0,0,0,0,0,0,0,0,0,0,0,0,1,
scooby_state_56ad81|54|-2 1,0,0,0,0,0,0,0,0,0,0,0,0,0,0,1,
scooby_state_400440|17|2 1,0,0,0,0,0,0,0,0,0,0,0,0,0,0,1,
scooby_state_53d8c0|35|8 1,0,0,0,0,0,0,0,0,0,0,0,0,0,0,1,
scooby_state_50be0f|56|6 1,0,0,0,0,0,0,0,0,0,0,0,0,0,0,1,
scooby_state_56ad41|53|1 1,0,0,0,0,0,0,0,0,0,0,0,0,0,0,1,
scooby_state_533f43|61|1 1,0,0,0,0,0,0,0,0,0,0,0,0,0,0,1,
scooby_state_441b33|27|0 1,0,0,0,0,0,0,0,0,0,0,0,0,0,0,1,
scooby_state_5352c3|11|1 1,0,0,0,0,0,0,0,0,0,0,0,0,0,0,1,
scooby_state_5330c1|3|1 1,0,0,0,0,0,0,0,0,0,0,0,0,0,0,1,
scooby_state_50c750|29|2 1,0,0,0,0,0,0,0,0,0,0,0,0,0,0,1,
scooby_state_50b653|3|1 1,0,0,0,0,0,0,0,0,0,0,0,0,0,0,1,
scooby_state_441b40|23|0 0,0,0,0,0,0,0,0,0,0,0,1,0,0,0,1,
scooby_state_50bd45|53|1 1,0,0,0,0,0,0,0,0,0,0,0,0,0,0,1,
scooby_state_50ba39|40|4 1,0,0,0,0,0,0,0,0,0,0,0,0,0,0,1,
scooby_state_531418|16|7 1,0,0,0,0,0,0,0,0,0,0,0,0,0,0,1,
scooby_state_50c481|18|-10 1,0,0,0,0,0,0,0,0,0,0,0,0,0,0,1,
scooby_state_53507c|53|-3 1,0,0,0,0,0,0,0,0,0,0,0,0,0,0,1,
scooby_state_53507e|54|1 1,0,0,0,0,0,0,0,0,0,0,0,0,0,0,1,
scooby_state_5769a0|38|2 1,0,0,0,0,0,0,0,0,0,0,0,0,0,0,1,
scooby_state_50b700|28|1 1,0,0,0,0,0,0,0,0,0,0,0,0,0,0,1,
scooby_state_50bce9|51|5 1,0,0,0,0,0,0,0,0,0,0,0,0,0,0,1,
scooby_state_50c36c|13|6 1,0,0,0,0,0,0,0,0,0,0,0,0,0,0,1,
scooby_state_50b902|36|1 1,0,0,0,0,0,0,0,0,0,0,0,0,0,0,1,
scooby_state_53528c|10|8 1,0,0,0,0,0,0,0,0,0,0,0,0,0,0,1,
scooby_state_50c682|26|1 1,0,0,0,0,0,0,0,0,0,0,0,0,0,0,1,
scooby_state_56ad10|52|0 1,0,0,0,0,0,0,0,0,0,0,0,0,0,0,1,
scooby_state_50bb80|46|1 1,0,0,0,0,0,0,0,0,0,0,0,0,0,0,1,
scooby_state_50cc43|49|1 1,0,0,0,0,0,0,0,0,0,0,0,0,0,0,1,
scooby_state_50b610|16|1 1,0,0,0,0,0,0,0,0,0,0,0,0,0,0,1,
scooby_state_50c8d0|32|0 1,0,0,0,0,0,0,0,0,0,0,0,0,0,0,1,
scooby_state_53d44e|17|-7 1,0,0,0,0,0,0,0,0,0,0,0,0,0,0,1,
scooby_state_441a47|41|1 1,0,0,0,0,0,0,0,0,0,0,0,0,0,0,1,
scooby_state_50bc00|48|20 1,0,0,0,0,0,0,0,0,0,0,0,0,0,0,1,
scooby_state_50ca80|42|1 1,0,0,0,0,0,0,0,0,0,0,0,0,0,0,1,
scooby_state_50bb40|45|1 1,0,0,0,0,0,0,0,0,0,0,0,0,0,0,1,
scooby_state_441b40|39|1 0,1,0,0,0,0,0,0,0,0,0,0,0,0,0,1,
scooby_state_533d41|53|1 1,0,0,0,0,0,0,0,0,0,0,0,0,0,0,1,
scooby_state_533042|1|1 1,0,0,0,0,0,0,0,0,0,0,0,0,0,0,1,
scooby_state_441d44|53|1 1,0,0,0,0,0,0,0,0,0,0,0,0,0,0,1,
scooby_state_50bc90|50|1 1,0,0,0,0,0,0,0,0,0,0,0,0,0,0,1,
scooby_state_50c381|14|1 1,0,0,0,0,0,0,0,0,0,0,0,0,0,0,1,
scooby_state_50bc13|2|0 1,0,0,0,0,0,0,0,0,0,0,0,0,0,0,1,
scooby_state_50c993|31|-2 1,0,0,0,0,0,0,0,0,0,0,0,0,0,0,1,
scooby_state_50c7c5|31|2 1,0,0,0,0,0,0,0,0,0,0,0,0,0,0,1,
scooby_state_50c443|17|1 1,0,0,0,0,0,0,0,0,0,0,0,0,0,0,1,
scooby_state_50cbc0|47|1 1,0,0,0,0,0,0,0,0,0,0,0,0,0,0,1,
scooby_state_441743|29|1 1,0,0,0,0,0,0,0,0,0,0,0,0,0,0,1,
scooby_state_50cd82|54|1 1,0,0,0,0,0,0,0,0,0,0,0,0,0,0,1,
scooby_state_50bb04|44|-3 1,0,0,0,0,0,0,0,0,0,0,0,0,0,0,1,
scooby_state_50c437|62|2 1,0,0,0,0,0,0,0,0,0,0,0,0,0,0,1,
scooby_state_57a364|30|1 1,0,0,0,0,0,0,0,0,0,0,0,0,0,0,1,
scooby_state_53d3c8|15|-5 1,0,0,0,0,0,0,0,0,0,0,0,0,0,0,1,
scooby_state_50c6c3|27|1 1,0,0,0,0,0,0,0,0,0,0,0,0,0,0,1,
scooby_state_441577|55|2 1,0,0,0,0,0,0,0,0,0,0,0,0,0,0,1,
scooby_state_4003d0|15|0 1,0,0,0,0,0,0,0,0,0,0,0,0,0,0,1,
scooby_state_50b642|25|1 1,0,0,0,0,0,0,0,0,0,0,0,0,0,0,1,
scooby_state_535225|28|25 1,0,0,0,0,0,0,0,0,0,0,0,0,0,0,1,
scooby_state_50baed|3|0 1,0,0,0,0,0,0,0,0,0,0,0,0,0,0,1,
scooby_state_4418aa|7|0 1,0,0,0,0,0,0,0,0,0,0,0,0,0,0,1,
scooby_state_533450|17|5 1,0,0,0,0,0,0,0,0,0,0,0,0,0,0,1,
scooby_state_50bc50|49|1 1,0,0,0,0,0,0,0,0,0,0,0,0,0,0,1,
scooby_state_53d840|33|1 1,0,0,0,0,0,0,0,0,0,0,0,0,0,0,1,
scooby_state_535240|9|2 1,0,0,0,0,0,0,0,0,0,0,0,0,0,0,1,
scooby_state_441c40|49|1 1,0,0,0,0,0,0,0,0,0,0,0,0,0,0,1,
scooby_state_53d879|43|1 1,0,0,0,0,0,0,0,0,0,0,0,0,0,0,1,
scooby_state_53333f|35|-14 1,0,0,0,0,0,0,0,0,0,0,0,0,0,0,1,
scooby_state_57a2f0|11|0 1,0,0,0,0,0,0,0,0,0,0,0,0,0,0,1,
scooby_state_441d01|52|0 1,0,0,0,0,0,0,0,0,0,0,0,0,0,0,1,
scooby_state_441c67|59|-2 1,0,0,0,0,0,0,0,0,0,0,0,0,0,0,1,
scooby_state_50cd01|52|1 1,0,0,0,0,0,0,0,0,0,0,0,0,0,0,1,
scooby_state_50c048|1|1 1,0,0,0,0,0,0,0,0,0,0,0,0,0,0,1,
scooby_state_534fef|13|6 1,0,0,0,0,0,0,0,0,0,0,0,0,0,0,1,
scooby_state_5311c1|7|1 1,0,0,0,0,0,0,0,0,0,0,0,0,0,0,1,
scooby_state_576a01|40|1 1,0,0,0,0,0,0,0,0,0,0,0,0,0,0,1,
scooby_state_50c980|38|1 1,0,0,0,0,0,0,0,0,0,0,0,0,0,0,1,
scooby_state_50c003|0|-31 1,0,0,0,0,0,0,0,0,0,0,0,0,0,0,1,
scooby_state_53d6c2|27|1 1,0,0,0,0,0,0,0,0,0,0,0,0,0,0,1,
scooby_state_441b40|10|0 0,0,1,0,0,0,0,0,0,0,0,0,0,0,0,1,
scooby_state_50c437|56|1 1,0,0,0,0,0,0,0,0,0,0,0,0,0,0,1,
scooby_state_441b40|34|1 0,0,0,0,0,0,0,0,0,0,0,0,1,0,0,1,
scooby_state_4003d0|0|0 1,0,0,0,0,0,0,0,0,0,0,0,0,0,0,1,
scooby_state_441b40|59|1 0,0,0,0,1,0,0,0,0,0,0,0,0,0,0,1,
scooby_state_441a3f|40|7 1,0,0,0,0,0,0,0,0,0,0,0,0,0,0,1,
scooby_state_441ae6|63|1 1,0,0,0,0,0,0,0,0,0,0,0,0,0,0,1,
scooby_state_57a306|12|1 1,0,0,0,0,0,0,0,0,0,0,0,0,0,0,1,
scooby_state_50cb47|45|1 1,0,0,0,0,0,0,0,0,0,0,0,0,0,0,1,
scooby_state_535340|13|1 1,0,0,0,0,0,0,0,0,0,0,0,0,0,0,1,
scooby_state_50bd80|54|1 1,0,0,0,0,0,0,0,0,0,0,0,0,0,0,1,
scooby_state_441b40|24|0 0,0,0,0,0,0,0,0,0,0,0,0,0,1,0,1,
scooby_state_57b150|5|0 1,0,0,0,0,0,0,0,0,0,0,0,0,0,0,1,
scooby_state_53d383|14|1 1,0,0,0,0,0,0,0,0,0,0,0,0,0,0,1,
scooby_state_50bd21|52|1 1,0,0,0,0,0,0,0,0,0,0,0,0,0,0,1,
scooby_state_5339af|38|-24 1,0,0,0,0,0,0,0,0,0,0,0,0,0,0,1,
scooby_state_533ec0|59|1 1,0,0,0,0,0,0,0,0,0,0,0,0,0,0,1,
scooby_state_50b75c|29|-27 1,0,0,0,0,0,0,0,0,0,0,0,0,0,0,1,
scooby_state_53d680|26|1 1,0,0,0,0,0,0,0,0,0,0,0,0,0,0,1,
scooby_state_531183|6|1 1,0,0,0,0,0,0,0,0,0,0,0,0,0,0,1,
scooby_state_50c8c3|35|1 1,0,0,0,0,0,0,0,0,0,0,0,0,0,0,1,
scooby_state_53112c|51|1 1,0,0,0,0,0,0,0,0,0,0,0,0,0,0,1,
scooby_state_4415bb|53|0 0,1,0,0,0,0,0,0,0,0,0,0,0,0,0,1,
scooby_state_4418c3|35|1 1,0,0,0,0,0,0,0,0,0,0,0,0,0,0,1,
scooby_state_53d742|29|1 1,0,0,0,0,0,0,0,0,0,0,0,0,0,0,1,
scooby_state_533a43|41|1 1,0,0,0,0,0,0,0,0,0,0,0,0,0,0,1,
scooby_state_441a1c|33|1 1,0,0,0,0,0,0,0,0,0,0,0,0,0,0,1,
scooby_state_50c048|61|0 1,0,0,0,0,0,0,0,0,0,0,0,0,0,0,1,
scooby_state_50c841|33|0 1,0,0,0,0,0,0,0,0,0,0,0,0,0,0,1,
scooby_state_535080|2|1 1,0,0,0,0,0,0,0,0,0,0,0,0,0,0,1,
scooby_state_53d502|20|1 1,0,0,0,0,0,0,0,0,0,0,0,0,0,0,1,
scooby_state_57b1ee|27|-5 1,0,0,0,0,0,0,0,0,0,0,0,0,0,0,1,
scooby_state_534fd0|63|0 1,0,0,0,0,0,0,0,0,0,0,0,0,0,0,1,
scooby_state_57b1d0|7|1 1,0,0,0,0,0,0,0,0,0,0,0,0,0,0,1,
scooby_state_441560|21|-32 0,1,0,0,0,0,0,0,0,0,0,0,0,0,0,1,
scooby_state_533653|6|1 1,0,0,0,0,0,0,0,0,0,0,0,0,0,0,1,
scooby_state_53d49a|18|1 1,0,0,0,0,0,0,0,0,0,0,0,0,0,0,1,
scooby_state_441b40|14|0 0,0,0,0,0,0,0,0,0,0,0,1,0,0,0,1,
scooby_state_509186|6|1 1,0,0,0,0,0,0,0,0,0,0,0,0,0,0,1,
scooby_state_50b5e0|23|-40 1,0,0,0,0,0,0,0,0,0,0,0,0,0,0,1,
scooby_state_50d2c0|11|7 1,0,0,0,0,0,0,0,0,0,0,0,0,0,0,1,
scooby_state_441b40|28|1 1,0,0,0,0,0,0,0,0,0,0,0,0,0,0,1,
scooby_state_533780|30|1 1,0,0,0,0,0,0,0,0,0,0,0,0,0,0,1,
scooby_state_50ca50|41|1 1,0,0,0,0,0,0,0,0,0,0,0,0,0,0,1,
scooby_state_441618|52|-4 1,0,0,0,0,0,0,0,0,0,0,0,0,0,0,1,
scooby_state_50c940|37|1 1,0,0,0,0,0,0,0,0,0,0,0,0,0,0,1,
scooby_state_50c41d|60|6 1,0,0,0,0,0,0,0,0,0,0,0,0,0,0,1,
scooby_state_50b95d|37|-3 1,0,0,0,0,0,0,0,0,0,0,0,0,0,0,1,
scooby_state_441b65|19|0 0,1,0,0,0,0,0,0,0,0,0,0,0,0,0,1,
scooby_state_50cd41|53|1 1,0,0,0,0,0,0,0,0,0,0,0,0,0,0,1,
scooby_state_531140|5|1 1,0,0,0,0,0,0,0,0,0,0,0,0,0,0,1,
scooby_state_441681|26|1 1,0,0,0,0,0,0,0,0,0,0,0,0,0,0,1,
scooby_state_57a34b|29|0 1,0,0,0,0,0,0,0,0,0,0,0,0,0,0,1,
scooby_state_50c8d9|33|1 1,0,0,0,0,0,0,0,0,0,0,0,0,0,0,1,
scooby_state_533241|9|1 1,0,0,0,0,0,0,0,0,0,0,0,0,0,0,1,
scooby_state_53d824|32|0 1,0,0,0,0,0,0,0,0,0,0,0,0,0,0,1,
scooby_state_4419eb|4|3 1,0,0,0,0,0,0,0,0,0,0,0,0,0,0,1,
scooby_state_56ae01|56|1 1,0,0,0,0,0,0,0,0,0,0,0,0,0,0,1,
scooby_state_50b5ec|56|2 1,0,0,0,0,0,0,0,0,0,0,0,0,0,0,1,
scooby_state_50c540|21|1 1,0,0,0,0,0,0,0,0,0,0,0,0,0,0,1,

scooby_action_0_deg_dist 0,989,0,0,0,0,0,0,0,0,0,0,0,0,0,0,
scooby_action_-6_deg_dist 0,563,0,0,0,0,0,0,0,0,0,0,0,0,0,0,
scooby_action_4_deg_dist 0,552,0,0,0,0,0,0,0,0,0,0,0,0,0,0,
scooby_action_1_deg_dist 0,2559,45,0,61,0,112,0,0,0,0,0,0,0,0,0,
scooby_action_30_deg_dist 0,539,0,0,0,0,0,0,0,0,0,0,0,0,0,0,
scooby_action_5_deg_dist 0,575,0,0,0,0,0,0,0,0,0,0,0,0,0,0,
scooby_action_3_deg_dist 0,562,2,0,0,0,0,0,0,0,0,0,0,0,0,0,
scooby_action_32_deg_dist 0,536,0,0,0,0,0,0,0,0,0,0,0,0,0,0,
scooby_action_10_deg_dist 0,547,0,0,0,0,0,0,0,0,0,0,0,0,0,0,
scooby_action_11_deg_dist 0,549,0,0,0,0,0,0,0,0,0,0,0,0,0,0,
scooby_action_12_deg_dist 0,550,0,0,0,0,0,0,0,0,0,0,0,0,0,0,
scooby_action_22_deg_dist 0,535,0,0,0,0,0,0,0,0,0,0,0,0,0,0,
scooby_action_23_deg_dist 0,523,0,0,0,0,0,0,0,0,0,0,0,0,0,0,
scooby_action_-1_deg_dist 0,623,0,0,0,0,0,0,0,0,0,0,0,0,0,0,
scooby_action_-3_deg_dist 0,536,0,0,0,0,0,0,0,0,0,0,0,0,0,0,

scooby_track_called 10958
scooby_track_same_address 32
scooby_track_evict 10670

scooby_reward_demand_called 10958
scooby_reward_demand_pt_not_found 10660
scooby_reward_demand_pt_found 298
scooby_reward_demand_pt_found_total 298
scooby_reward_demand_has_reward 0
scooby_reward_train_called 8893
scooby_reward_assign_reward_called 10683
scooby_reward_no_pref 989
scooby_reward_incorrect 7904
scooby_reward_correct_untimely 226
scooby_reward_correct_timely 72
scooby_reward_out_of_bounds 1492
scooby_reward_tracker_hit 0

scooby_reward_none_low_bw 989
scooby_reward_none_high_bw 0
scooby_reward_incorrect_low_bw 7904
scooby_reward_incorrect_high_bw 0
scooby_reward_correct_untimely_low_bw 226
scooby_reward_correct_untimely_high_bw 0
scooby_reward_correct_timely_low_bw 72
scooby_reward_correct_timely_high_bw 0
scooby_reward_out_of_bounds_low_bw 1492
scooby_reward_out_of_bounds_high_bw 0
scooby_reward_tracker_hit_low_bw 0
scooby_reward_tracker_hit_high_bw 0

scooby_reward_1 0,2253,185,71,38,0,
scooby_reward_3 0,536,0,1,23,0,
scooby_reward_4 0,508,0,0,38,0,
scooby_reward_5 0,527,0,0,46,0,
scooby_reward_10 0,465,0,0,70,0,
scooby_reward_11 0,440,0,0,108,0,
scooby_reward_12 0,448,0,0,102,0,
scooby_reward_22 0,348,0,0,187,0,
scooby_reward_23 0,321,0,0,202,0,
scooby_reward_30 0,253,0,0,286,0,
scooby_reward_32 0,228,0,0,308,0,
scooby_reward_-1 0,570,28,0,8,0,
scooby_reward_-3 0,498,12,0,23,0,
scooby_reward_-6 0,509,1,0,53,0,
scooby_reward_0 989,0,0,0,0,0,

scooby_train_called 10669
scooby_train_compute_reward 8893

scooby_register_fill_called 5950
scooby_register_fill_set 5776
scooby_register_fill_set_total 5776

scooby_register_prefetch_hit_called 2965
scooby_register_prefetch_hit_set 2775
scooby_register_prefetch_hit_set_total 2775

scooby_pref_issue_scooby 9184

learning_engine_featurewise.action.called 10958
learning_engine_featurewise.action.explore 20
learning_engine_featurewise.action.exploit 10938
learning_engine_featurewise.action.fallback 1754
learning_engine_featurewise.action.dyn_fallback_saved_bw 0
learning_engine_featurewise.action.dyn_fallback_saved_bw_acc 159
learning_engine_featurewise.action.index_1_explored 2
learning_engine_featurewise.action.index_1_exploited 2775
learning_engine_featurewise.action.index_3_explored 2
learning_engine_featurewise.action.index_3_exploited 562
learning_engine_featurewise.action.index_4_explored 0
learning_engine_featurewise.action.index_4_exploited 552
learning_engine_featurewise.action.index_5_explored 2
learning_engine_featurewise.action.index_5_exploited 573
learning_engine_featurewise.action.index_10_explored 2
learning_engine_featurewise.action.index_10_exploited 545
learning_engine_featurewise.action.index_11_explored 1
learning_engine_featurewise.action.index_11_exploited 548
learning_engine_featurewise.action.index_12_explored 0
learning_engine_featurewise.action.index_12_exploited 550
learning_engine_featurewise.action.index_22_explored 0
learning_engine_featurewise.action.index_22_exploited 535
learning_engine_featurewise.action.index_23_explored 1
learning_engine_featurewise.action.index_23_exploited 522
learning_engine_featurewise.action.index_30_explored 3
learning_engine_featurewise.action.index_30_exploited 536
learning_engine_featurewise.action.index_32_explored 4
learning_engine_featurewise.action.index_32_exploited 532
learning_engine_featurewise.action.index_-1_explored 1
learning_engine_featurewise.action.index_-1_exploited 622
learning_engine_featurewise.action.index_-3_explored 1
learning_engine_featurewise.action.index_-3_exploited 535
learning_engine_featurewise.action.index_-6_explored 1
learning_engine_featurewise.action.index_-6_exploited 562
learning_engine_featurewise.action.index_0_explored 0
learning_engine_featurewise.action.index_0_exploited 989
learning_engine_featurewise.learn.called 10669
learning_engine_featurewise.learn.su_skip_PC 0
learning_engine_featurewise.learn.su_skip_PC_Delta 0

learning_engine_featurewise.q_value_histogram.bucket_0 0
learning_engine_featurewise.q_value_histogram.bucket_1 5
learning_engine_featurewise.q_value_histogram.bucket_2 5466
learning_engine_featurewise.q_value_histogram.bucket_3 1032
learning_engine_featurewise.q_value_histogram.bucket_4 4435
learning_engine_featurewise.q_value_histogram.bucket_5 0
learning_engine_featurewise.q_value_histogram.bucket_6 0
learning_engine_featurewise.q_value_histogram.bucket_7 0

learning_engine_featurewise.consensus.total 10938
learning_engine_featurewise.consensus.feature_align_PC 9253
learning_engine_featurewise.consensus.feature_align_PC_ratio 0.85
learning_engine_featurewise.consensus.feature_align_PC_Delta 9512
learning_engine_featurewise.consensus.feature_align_PC_Delta_ratio 0.87
learning_engine_featurewise.consensus.feature_align_all 7832
learning_engine_featurewise.consensus.feature_align_all_ratio 0.72

learning_engine_featurewise.feature_PC_min_weight 1000000.00000000
learning_engine_featurewise.feature_PC_max_weight 0.00000000
learning_engine_featurewise.feature_PC_Delta_min_weight 1000000.00000000
learning_engine_featurewise.feature_PC_Delta_max_weight 0.00000000
unique_pcs 307
unique_pages 502
unique_trigger_pcs 56
total_bitmaps_seen 0
unique_bitmaps_seen 0

scooby_bw_epochs 216912
scooby_bw_level_0 216490
scooby_bw_level_1 397
scooby_bw_level_2 25
scooby_bw_level_3 0

scooby_ipc_epochs 0
scooby_ipc_level_0 0
scooby_ipc_level_1 0
scooby_ipc_level_2 0
scooby_ipc_level_3 0

scooby_cache_acc_epochs 54227
scooby_cache_acc_level_0 53612
scooby_cache_acc_level_1 273
scooby_cache_acc_level_2 136
scooby_cache_acc_level_3 61
scooby_cache_acc_level_4 11
scooby_cache_acc_level_5 69
scooby_cache_acc_level_6 10
scooby_cache_acc_level_7 17
scooby_cache_acc_level_8 3
scooby_cache_acc_level_9 35

Channel_0_RQ_row_buffer_hit 1201
Channel_0_RQ_row_buffer_miss 2967
Channel_0_WQ_row_buffer_hit 0
Channel_0_WQ_row_buffer_miss 0
Channel_0_WQ_full 0
Channel_0_dbus_congested 1455

avg_congested_cycle 9

DRAM_bw_pochs 216912
DRAM_bw_level_0 216490
DRAM_bw_level_1 397
DRAM_bw_level_2 25
DRAM_bw_level_3 0
