*************************************************
   ChampSim Multicore Out-of-Order Simulator
   Last compiled: Apr  3 2025 20:54:34
*************************************************
parsing config file: /home/zir/Pythia/config/nopref.ini

trace_0 /home/zir/ChampSim/ML-DPC/ChampSimTraces/spec17/602.gcc-s1.trace.xz
adding L2C_PREFETCHER: NONE
Initialize SHIP state
warmup_instructions 10000000
simulation_instructions 50000000
champsim_seed 164
measure_ipc 0
measure_ipc_epoch 1000
measure_dram_bw 1
measure_dram_bw_epoch 256
measure_cache_acc 1
measure_cache_acc_epoch 1024
l1d_perfect 0
l2c_perfect 0
llc_perfect 0
l1d_semi_perfect 0
l2c_semi_perfect 0
llc_semi_perfect 0
semi_perfect_cache_page_buffer_size 64

num_cpus 1
cpu_freq 4000
dram_io_freq 2400
page_size 4096
block_size 64
max_read_per_cycle 8
max_fill_per_cycle 1
dram_channels 1
log2_dram_channels 0
dram_ranks 1
dram_banks 8
dram_rows 65536
dram_columns 128
dram_row_size 8
dram_size 4096
dram_pages 1048576

fetch_width 6
decode_width 6
exec_width 4
lq_width 2
sq_width 2
retire_width 4
scheduler_size 128
branch_mispredict_penalty 20
rob_size 256
lq_size 72
sq_size 56
num_instr_destinations_sparc 4
num_instr_destinations 2
num_instr_sources 4

itlb_set 16
itlb_way 8
itlb_rq_size 16
itlb_wq_size 16
itlb_pq_size 0
itlb_mshr_size 8
itlb_latency 1

dtlb_set 16
dtlb_way 4
dtlb_rq_size 16
dtlb_wq_size 16
dtlb_pq_size 0
dtlb_mshr_size 8
dtlb_latency 1

stlb_set 128
stlb_way 12
stlb_rq_size 32
stlb_wq_size 32
stlb_pq_size 0
stlb_mshr_size 16
stlb_latency 8

l1i_size 32
l1i_set 64
l1i_way 8
l1i_rq_size 64
l1i_wq_size 64
l1i_pq_size 8
l1i_mshr_size 8
l1i_latency 1

l1d_size 32
l1d_set 64
l1d_way 8
l1d_rq_size 64
l1d_wq_size 64
l1d_pq_size 8
l1d_mshr_size 16
l1d_latency 4

l2c_size 256
l2c_set 512
l2c_way 8
l2c_rq_size 32
l2c_wq_size 32
l2c_pq_size 32
l2c_mshr_size 32
l2c_latency 10

llc_size 2048
llc_set 2048
llc_way 16
llc_rq_size 32
llc_wq_size 32
llc_pq_size 32
llc_mshr_size 64
llc_latency 20

dram_channel_width 8
dram_wq_size 64
dram_rq_size 64
tRP 15
tRCD 15
tCAS 12.5
dram_dbus_turn_around_time 30
dram_write_high_wm 56
dram_write_low_wm 48
min_dram_writes_per_switch 16
dram_mtps 2400
dram_dbus_return_time 13


Heartbeat CPU  0 instructions:    1000003 cycles:     559825 heartbeat IPC: 1.78628 cumulative IPC: 1.78628 (Simulation time: 0 hr 0 min 1 sec) 
Heartbeat CPU  0 instructions:    2000002 cycles:    1121213 heartbeat IPC: 1.78130 cumulative IPC: 1.78378 (Simulation time: 0 hr 0 min 3 sec) 
Heartbeat CPU  0 instructions:    3000001 cycles:    1680909 heartbeat IPC: 1.78668 cumulative IPC: 1.78475 (Simulation time: 0 hr 0 min 4 sec) 
Heartbeat CPU  0 instructions:    4000000 cycles:    2241653 heartbeat IPC: 1.78334 cumulative IPC: 1.78440 (Simulation time: 0 hr 0 min 6 sec) 
Heartbeat CPU  0 instructions:    5000001 cycles:    2802615 heartbeat IPC: 1.78265 cumulative IPC: 1.78405 (Simulation time: 0 hr 0 min 7 sec) 
Heartbeat CPU  0 instructions:    6000003 cycles:    3359098 heartbeat IPC: 1.79700 cumulative IPC: 1.78619 (Simulation time: 0 hr 0 min 8 sec) 
Heartbeat CPU  0 instructions:    7000000 cycles:    3919177 heartbeat IPC: 1.78546 cumulative IPC: 1.78609 (Simulation time: 0 hr 0 min 10 sec) 
Heartbeat CPU  0 instructions:    8000000 cycles:    4479882 heartbeat IPC: 1.78347 cumulative IPC: 1.78576 (Simulation time: 0 hr 0 min 11 sec) 
Heartbeat CPU  0 instructions:    9000002 cycles:    5040424 heartbeat IPC: 1.78399 cumulative IPC: 1.78556 (Simulation time: 0 hr 0 min 12 sec) 
Heartbeat CPU  0 instructions:   10000000 cycles:    5599690 heartbeat IPC: 1.78805 cumulative IPC: 1.78581 (Simulation time: 0 hr 0 min 14 sec) 

Warmup complete CPU  0 instructions:   10000004 cycles:    5599691 (Simulation time: 0 hr 0 min 14 sec) 

Heartbeat CPU  0 instructions:   11000000 cycles:   15389699 heartbeat IPC: 0.10214 cumulative IPC: 0.10214 (Simulation time: 0 hr 0 min 18 sec) 
Heartbeat CPU  0 instructions:   12000000 cycles:   25172121 heartbeat IPC: 0.10222 cumulative IPC: 0.10218 (Simulation time: 0 hr 0 min 22 sec) 
Heartbeat CPU  0 instructions:   13000001 cycles:   34981690 heartbeat IPC: 0.10194 cumulative IPC: 0.10210 (Simulation time: 0 hr 0 min 26 sec) 
Heartbeat CPU  0 instructions:   14000000 cycles:   44770135 heartbeat IPC: 0.10216 cumulative IPC: 0.10212 (Simulation time: 0 hr 0 min 30 sec) 
Heartbeat CPU  0 instructions:   15000003 cycles:   54525656 heartbeat IPC: 0.10251 cumulative IPC: 0.10220 (Simulation time: 0 hr 0 min 34 sec) 
Heartbeat CPU  0 instructions:   16000000 cycles:   64301310 heartbeat IPC: 0.10229 cumulative IPC: 0.10221 (Simulation time: 0 hr 0 min 38 sec) 
Heartbeat CPU  0 instructions:   17000000 cycles:   74112824 heartbeat IPC: 0.10192 cumulative IPC: 0.10217 (Simulation time: 0 hr 0 min 43 sec) 
Heartbeat CPU  0 instructions:   18000003 cycles:   83910843 heartbeat IPC: 0.10206 cumulative IPC: 0.10216 (Simulation time: 0 hr 0 min 47 sec) 
Heartbeat CPU  0 instructions:   19000000 cycles:   93674407 heartbeat IPC: 0.10242 cumulative IPC: 0.10219 (Simulation time: 0 hr 0 min 51 sec) 
Heartbeat CPU  0 instructions:   20000000 cycles:  103441901 heartbeat IPC: 0.10238 cumulative IPC: 0.10221 (Simulation time: 0 hr 0 min 55 sec) 
Heartbeat CPU  0 instructions:   21000001 cycles:  113236137 heartbeat IPC: 0.10210 cumulative IPC: 0.10220 (Simulation time: 0 hr 0 min 59 sec) 
Heartbeat CPU  0 instructions:   22000000 cycles:  123006141 heartbeat IPC: 0.10235 cumulative IPC: 0.10221 (Simulation time: 0 hr 1 min 3 sec) 
Heartbeat CPU  0 instructions:   23000000 cycles:  132758793 heartbeat IPC: 0.10254 cumulative IPC: 0.10223 (Simulation time: 0 hr 1 min 7 sec) 
Heartbeat CPU  0 instructions:   24000000 cycles:  142555103 heartbeat IPC: 0.10208 cumulative IPC: 0.10222 (Simulation time: 0 hr 1 min 12 sec) 
Heartbeat CPU  0 instructions:   25000000 cycles:  152403406 heartbeat IPC: 0.10154 cumulative IPC: 0.10218 (Simulation time: 0 hr 1 min 16 sec) 
Heartbeat CPU  0 instructions:   26000000 cycles:  162239279 heartbeat IPC: 0.10167 cumulative IPC: 0.10215 (Simulation time: 0 hr 1 min 20 sec) 
Heartbeat CPU  0 instructions:   27000000 cycles:  172117781 heartbeat IPC: 0.10123 cumulative IPC: 0.10209 (Simulation time: 0 hr 1 min 24 sec) 
Heartbeat CPU  0 instructions:   28000000 cycles:  181960633 heartbeat IPC: 0.10160 cumulative IPC: 0.10206 (Simulation time: 0 hr 1 min 28 sec) 
Heartbeat CPU  0 instructions:   29000000 cycles:  191839753 heartbeat IPC: 0.10122 cumulative IPC: 0.10202 (Simulation time: 0 hr 1 min 32 sec) 
Heartbeat CPU  0 instructions:   30000000 cycles:  201655131 heartbeat IPC: 0.10188 cumulative IPC: 0.10201 (Simulation time: 0 hr 1 min 36 sec) 
Heartbeat CPU  0 instructions:   31000000 cycles:  211459384 heartbeat IPC: 0.10200 cumulative IPC: 0.10201 (Simulation time: 0 hr 1 min 40 sec) 
Heartbeat CPU  0 instructions:   32000000 cycles:  221269732 heartbeat IPC: 0.10193 cumulative IPC: 0.10201 (Simulation time: 0 hr 1 min 45 sec) 
Heartbeat CPU  0 instructions:   33000000 cycles:  231081643 heartbeat IPC: 0.10192 cumulative IPC: 0.10200 (Simulation time: 0 hr 1 min 49 sec) 
Heartbeat CPU  0 instructions:   34000002 cycles:  240877988 heartbeat IPC: 0.10208 cumulative IPC: 0.10201 (Simulation time: 0 hr 1 min 53 sec) 
Heartbeat CPU  0 instructions:   35000000 cycles:  250701039 heartbeat IPC: 0.10180 cumulative IPC: 0.10200 (Simulation time: 0 hr 1 min 57 sec) 
Heartbeat CPU  0 instructions:   36000000 cycles:  260538745 heartbeat IPC: 0.10165 cumulative IPC: 0.10199 (Simulation time: 0 hr 2 min 1 sec) 
Heartbeat CPU  0 instructions:   37000002 cycles:  268573457 heartbeat IPC: 0.12446 cumulative IPC: 0.10267 (Simulation time: 0 hr 2 min 5 sec) 
Heartbeat CPU  0 instructions:   38000003 cycles:  278312899 heartbeat IPC: 0.10268 cumulative IPC: 0.10267 (Simulation time: 0 hr 2 min 9 sec) 
Heartbeat CPU  0 instructions:   39000000 cycles:  288063026 heartbeat IPC: 0.10256 cumulative IPC: 0.10267 (Simulation time: 0 hr 2 min 13 sec) 
Heartbeat CPU  0 instructions:   40000000 cycles:  297788959 heartbeat IPC: 0.10282 cumulative IPC: 0.10267 (Simulation time: 0 hr 2 min 17 sec) 
Heartbeat CPU  0 instructions:   41000000 cycles:  307519626 heartbeat IPC: 0.10277 cumulative IPC: 0.10268 (Simulation time: 0 hr 2 min 21 sec) 
Heartbeat CPU  0 instructions:   42000001 cycles:  316478388 heartbeat IPC: 0.11162 cumulative IPC: 0.10293 (Simulation time: 0 hr 2 min 25 sec) 
Heartbeat CPU  0 instructions:   43000000 cycles:  326243518 heartbeat IPC: 0.10241 cumulative IPC: 0.10292 (Simulation time: 0 hr 2 min 29 sec) 
Heartbeat CPU  0 instructions:   44000000 cycles:  335983505 heartbeat IPC: 0.10267 cumulative IPC: 0.10291 (Simulation time: 0 hr 2 min 33 sec) 
Heartbeat CPU  0 instructions:   45000000 cycles:  345762867 heartbeat IPC: 0.10226 cumulative IPC: 0.10289 (Simulation time: 0 hr 2 min 37 sec) 
Heartbeat CPU  0 instructions:   46000002 cycles:  355515403 heartbeat IPC: 0.10254 cumulative IPC: 0.10288 (Simulation time: 0 hr 2 min 41 sec) 
Heartbeat CPU  0 instructions:   47000000 cycles:  365298358 heartbeat IPC: 0.10222 cumulative IPC: 0.10286 (Simulation time: 0 hr 2 min 45 sec) 
Heartbeat CPU  0 instructions:   48000000 cycles:  375052027 heartbeat IPC: 0.10253 cumulative IPC: 0.10285 (Simulation time: 0 hr 2 min 49 sec) 
Heartbeat CPU  0 instructions:   49000002 cycles:  384864274 heartbeat IPC: 0.10191 cumulative IPC: 0.10283 (Simulation time: 0 hr 2 min 53 sec) 
Heartbeat CPU  0 instructions:   50000003 cycles:  394621433 heartbeat IPC: 0.10249 cumulative IPC: 0.10282 (Simulation time: 0 hr 2 min 57 sec) 
Heartbeat CPU  0 instructions:   51000001 cycles:  404374803 heartbeat IPC: 0.10253 cumulative IPC: 0.10281 (Simulation time: 0 hr 3 min 1 sec) 
Heartbeat CPU  0 instructions:   52000000 cycles:  414138075 heartbeat IPC: 0.10242 cumulative IPC: 0.10281 (Simulation time: 0 hr 3 min 5 sec) 
Heartbeat CPU  0 instructions:   53000002 cycles:  423879805 heartbeat IPC: 0.10265 cumulative IPC: 0.10280 (Simulation time: 0 hr 3 min 9 sec) 
Heartbeat CPU  0 instructions:   54000003 cycles:  433718720 heartbeat IPC: 0.10164 cumulative IPC: 0.10278 (Simulation time: 0 hr 3 min 14 sec) 
Heartbeat CPU  0 instructions:   55000000 cycles:  443427024 heartbeat IPC: 0.10300 cumulative IPC: 0.10278 (Simulation time: 0 hr 3 min 18 sec) 
Heartbeat CPU  0 instructions:   56000000 cycles:  453183640 heartbeat IPC: 0.10249 cumulative IPC: 0.10277 (Simulation time: 0 hr 3 min 22 sec) 
Heartbeat CPU  0 instructions:   57000000 cycles:  462974471 heartbeat IPC: 0.10214 cumulative IPC: 0.10276 (Simulation time: 0 hr 3 min 26 sec) 
Heartbeat CPU  0 instructions:   58000002 cycles:  472717678 heartbeat IPC: 0.10264 cumulative IPC: 0.10276 (Simulation time: 0 hr 3 min 30 sec) 
Heartbeat CPU  0 instructions:   59000001 cycles:  482471760 heartbeat IPC: 0.10252 cumulative IPC: 0.10275 (Simulation time: 0 hr 3 min 34 sec) 
Heartbeat CPU  0 instructions:   60000000 cycles:  492212058 heartbeat IPC: 0.10267 cumulative IPC: 0.10275 (Simulation time: 0 hr 3 min 38 sec) 
Finished CPU 0 instructions: 50000000 cycles: 486612384 cumulative IPC: 0.10275 (Simulation time: 0 hr 3 min 38 sec) 

ChampSim completed all CPUs

[ROI Statistics]
Core_0_instructions 50000000
Core_0_cycles 486612384
Core_0_IPC 0.10275

Core_0_branch_prediction_accuracy 99.55550
Core_0_branch_MPKI 1.57028
Core_0_average_ROB_occupancy_at_mispredict 201.84968

Core_0_L1D_total_access 7907396
Core_0_L1D_total_hit 4282651
Core_0_L1D_total_miss 3624745
Core_0_L1D_loads 7181820
Core_0_L1D_load_hit 3558436
Core_0_L1D_load_miss 3623384
Core_0_L1D_RFOs 725576
Core_0_L1D_RFO_hit 724215
Core_0_L1D_RFO_miss 1361
Core_0_L1D_prefetches 0
Core_0_L1D_prefetch_hit 0
Core_0_L1D_prefetch_miss 0
Core_0_L1D_writebacks 0
Core_0_L1D_writeback_hit 0
Core_0_L1D_writeback_miss 0
Core_0_L1D_prefetch_requested 0
Core_0_L1D_prefetch_dropped 0
Core_0_L1D_prefetch_issued 0
Core_0_L1D_prefetch_filled 0
Core_0_L1D_prefetch_useful 0
Core_0_L1D_prefetch_useless 0
Core_0_L1D_prefetch_late 0
Core_0_L1D_average_miss_latency 115.73520

Core_0_L1D_rq_access 17943260
Core_0_L1D_rq_forward 0
Core_0_L1D_rq_merged 9480473
Core_0_L1D_rq_to_cache 8462787
Core_0_L1D_rq_full 0

Core_0_L1D_wq_access 726008
Core_0_L1D_wq_forward 0
Core_0_L1D_wq_merged 426
Core_0_L1D_wq_to_cache 725582
Core_0_L1D_wq_full 0

Core_0_L1D_pq_access 0
Core_0_L1D_pq_forward 0
Core_0_L1D_pq_merged 0
Core_0_L1D_pq_to_cache 0
Core_0_L1D_pq_full 0

Core_0_L1D_acc_epochs 474247
Core_0_L1D_acc_level_0 474247
Core_0_L1D_acc_level_1 0
Core_0_L1D_acc_level_2 0
Core_0_L1D_acc_level_3 0
Core_0_L1D_acc_level_4 0
Core_0_L1D_acc_level_5 0
Core_0_L1D_acc_level_6 0
Core_0_L1D_acc_level_7 0
Core_0_L1D_acc_level_8 0
Core_0_L1D_acc_level_9 0

Core_0_L1I_total_access 17829367
Core_0_L1I_total_hit 17829367
Core_0_L1I_total_miss 0
Core_0_L1I_loads 17829367
Core_0_L1I_load_hit 17829367
Core_0_L1I_load_miss 0
Core_0_L1I_RFOs 0
Core_0_L1I_RFO_hit 0
Core_0_L1I_RFO_miss 0
Core_0_L1I_prefetches 0
Core_0_L1I_prefetch_hit 0
Core_0_L1I_prefetch_miss 0
Core_0_L1I_writebacks 0
Core_0_L1I_writeback_hit 0
Core_0_L1I_writeback_miss 0
Core_0_L1I_prefetch_requested 0
Core_0_L1I_prefetch_dropped 0
Core_0_L1I_prefetch_issued 0
Core_0_L1I_prefetch_filled 0
Core_0_L1I_prefetch_useful 0
Core_0_L1I_prefetch_useless 0
Core_0_L1I_prefetch_late 0
Core_0_L1I_average_miss_latency -nan

Core_0_L1I_rq_access 50000169
Core_0_L1I_rq_forward 0
Core_0_L1I_rq_merged 32170802
Core_0_L1I_rq_to_cache 17829367
Core_0_L1I_rq_full 0

Core_0_L1I_wq_access 0
Core_0_L1I_wq_forward 0
Core_0_L1I_wq_merged 0
Core_0_L1I_wq_to_cache 0
Core_0_L1I_wq_full 0

Core_0_L1I_pq_access 0
Core_0_L1I_pq_forward 0
Core_0_L1I_pq_merged 0
Core_0_L1I_pq_to_cache 0
Core_0_L1I_pq_full 0

Core_0_L1I_acc_epochs 474247
Core_0_L1I_acc_level_0 474247
Core_0_L1I_acc_level_1 0
Core_0_L1I_acc_level_2 0
Core_0_L1I_acc_level_3 0
Core_0_L1I_acc_level_4 0
Core_0_L1I_acc_level_5 0
Core_0_L1I_acc_level_6 0
Core_0_L1I_acc_level_7 0
Core_0_L1I_acc_level_8 0
Core_0_L1I_acc_level_9 0

Core_0_L2C_total_access 3637466
Core_0_L2C_total_hit 134027
Core_0_L2C_total_miss 3503439
Core_0_L2C_loads 3623384
Core_0_L2C_load_hit 121306
Core_0_L2C_load_miss 3502078
Core_0_L2C_RFOs 1361
Core_0_L2C_RFO_hit 0
Core_0_L2C_RFO_miss 1361
Core_0_L2C_prefetches 0
Core_0_L2C_prefetch_hit 0
Core_0_L2C_prefetch_miss 0
Core_0_L2C_writebacks 12721
Core_0_L2C_writeback_hit 12721
Core_0_L2C_writeback_miss 0
Core_0_L2C_prefetch_requested 0
Core_0_L2C_prefetch_dropped 0
Core_0_L2C_prefetch_issued 0
Core_0_L2C_prefetch_filled 0
Core_0_L2C_prefetch_useful 0
Core_0_L2C_prefetch_useless 0
Core_0_L2C_prefetch_late 0
Core_0_L2C_average_miss_latency 105.24602

Core_0_L2C_rq_access 3624745
Core_0_L2C_rq_forward 0
Core_0_L2C_rq_merged 0
Core_0_L2C_rq_to_cache 3624745
Core_0_L2C_rq_full 0

Core_0_L2C_wq_access 12721
Core_0_L2C_wq_forward 0
Core_0_L2C_wq_merged 0
Core_0_L2C_wq_to_cache 12721
Core_0_L2C_wq_full 0

Core_0_L2C_pq_access 0
Core_0_L2C_pq_forward 0
Core_0_L2C_pq_merged 0
Core_0_L2C_pq_to_cache 0
Core_0_L2C_pq_full 0

Core_0_L2C_acc_epochs 474247
Core_0_L2C_acc_level_0 474247
Core_0_L2C_acc_level_1 0
Core_0_L2C_acc_level_2 0
Core_0_L2C_acc_level_3 0
Core_0_L2C_acc_level_4 0
Core_0_L2C_acc_level_5 0
Core_0_L2C_acc_level_6 0
Core_0_L2C_acc_level_7 0
Core_0_L2C_acc_level_8 0
Core_0_L2C_acc_level_9 0

Core_0_LLC_total_access 3509116
Core_0_LLC_total_hit 31048
Core_0_LLC_total_miss 3478068
Core_0_LLC_loads 3502078
Core_0_LLC_load_hit 27634
Core_0_LLC_load_miss 3474444
Core_0_LLC_RFOs 1361
Core_0_LLC_RFO_hit 669
Core_0_LLC_RFO_miss 692
Core_0_LLC_prefetches 0
Core_0_LLC_prefetch_hit 0
Core_0_LLC_prefetch_miss 0
Core_0_LLC_writebacks 5677
Core_0_LLC_writeback_hit 2745
Core_0_LLC_writeback_miss 2932
Core_0_LLC_prefetch_requested 0
Core_0_LLC_prefetch_dropped 0
Core_0_LLC_prefetch_issued 0
Core_0_LLC_prefetch_filled 0
Core_0_LLC_prefetch_useful 0
Core_0_LLC_prefetch_useless 0
Core_0_LLC_prefetch_late 0
Core_0_LLC_average_miss_latency 75.78838

Core_0_LLC_rq_access 3503439
Core_0_LLC_rq_forward 0
Core_0_LLC_rq_merged 0
Core_0_LLC_rq_to_cache 3503439
Core_0_LLC_rq_full 0

Core_0_LLC_wq_access 5677
Core_0_LLC_wq_forward 0
Core_0_LLC_wq_merged 0
Core_0_LLC_wq_to_cache 5677
Core_0_LLC_wq_full 0

Core_0_LLC_pq_access 0
Core_0_LLC_pq_forward 0
Core_0_LLC_pq_merged 0
Core_0_LLC_pq_to_cache 0
Core_0_LLC_pq_full 0

Core_0_LLC_acc_epochs 480676
Core_0_LLC_acc_level_0 480676
Core_0_LLC_acc_level_1 0
Core_0_LLC_acc_level_2 0
Core_0_LLC_acc_level_3 0
Core_0_LLC_acc_level_4 0
Core_0_LLC_acc_level_5 0
Core_0_LLC_acc_level_6 0
Core_0_LLC_acc_level_7 0
Core_0_LLC_acc_level_8 0
Core_0_LLC_acc_level_9 0

Core_0_major_page_fault 0
Core_0_minor_page_fault 48029

Channel_0_RQ_row_buffer_hit 3310668
Channel_0_RQ_row_buffer_miss 164468
Channel_0_WQ_row_buffer_hit 19
Channel_0_WQ_row_buffer_miss 167
Channel_0_WQ_full 0
Channel_0_dbus_congested 16696

avg_congested_cycle 11

DRAM_bw_pochs 1922704
DRAM_bw_level_0 1918683
DRAM_bw_level_1 4021
DRAM_bw_level_2 0
DRAM_bw_level_3 0
