*************************************************
   ChampSim Multicore Out-of-Order Simulator
   Last compiled: Apr  3 2025 20:54:34
*************************************************
parsing config file: /home/zir/Pythia/config/nopref.ini

trace_0 /home/zir/ChampSim/ML-DPC/ChampSimTraces/spec06/437.leslie3d-s2.trace.gz
adding L2C_PREFETCHER: NONE
Initialize SHIP state
warmup_instructions 10000000
simulation_instructions 50000000
champsim_seed 165
measure_ipc 0
measure_ipc_epoch 1000
measure_dram_bw 1
measure_dram_bw_epoch 256
measure_cache_acc 1
measure_cache_acc_epoch 1024
l1d_perfect 0
l2c_perfect 0
llc_perfect 0
l1d_semi_perfect 0
l2c_semi_perfect 0
llc_semi_perfect 0
semi_perfect_cache_page_buffer_size 64

num_cpus 1
cpu_freq 4000
dram_io_freq 2400
page_size 4096
block_size 64
max_read_per_cycle 8
max_fill_per_cycle 1
dram_channels 1
log2_dram_channels 0
dram_ranks 1
dram_banks 8
dram_rows 65536
dram_columns 128
dram_row_size 8
dram_size 4096
dram_pages 1048576

fetch_width 6
decode_width 6
exec_width 4
lq_width 2
sq_width 2
retire_width 4
scheduler_size 128
branch_mispredict_penalty 20
rob_size 256
lq_size 72
sq_size 56
num_instr_destinations_sparc 4
num_instr_destinations 2
num_instr_sources 4

itlb_set 16
itlb_way 8
itlb_rq_size 16
itlb_wq_size 16
itlb_pq_size 0
itlb_mshr_size 8
itlb_latency 1

dtlb_set 16
dtlb_way 4
dtlb_rq_size 16
dtlb_wq_size 16
dtlb_pq_size 0
dtlb_mshr_size 8
dtlb_latency 1

stlb_set 128
stlb_way 12
stlb_rq_size 32
stlb_wq_size 32
stlb_pq_size 0
stlb_mshr_size 16
stlb_latency 8

l1i_size 32
l1i_set 64
l1i_way 8
l1i_rq_size 64
l1i_wq_size 64
l1i_pq_size 8
l1i_mshr_size 8
l1i_latency 1

l1d_size 32
l1d_set 64
l1d_way 8
l1d_rq_size 64
l1d_wq_size 64
l1d_pq_size 8
l1d_mshr_size 16
l1d_latency 4

l2c_size 256
l2c_set 512
l2c_way 8
l2c_rq_size 32
l2c_wq_size 32
l2c_pq_size 32
l2c_mshr_size 32
l2c_latency 10

llc_size 2048
llc_set 2048
llc_way 16
llc_rq_size 32
llc_wq_size 32
llc_pq_size 32
llc_mshr_size 64
llc_latency 20

dram_channel_width 8
dram_wq_size 64
dram_rq_size 64
tRP 15
tRCD 15
tCAS 12.5
dram_dbus_turn_around_time 30
dram_write_high_wm 56
dram_write_low_wm 48
min_dram_writes_per_switch 16
dram_mtps 2400
dram_dbus_return_time 13


Heartbeat CPU  0 instructions:    1000003 cycles:     561613 heartbeat IPC: 1.78059 cumulative IPC: 1.78059 (Simulation time: 0 hr 0 min 2 sec) 
Heartbeat CPU  0 instructions:    2000002 cycles:    1132986 heartbeat IPC: 1.75017 cumulative IPC: 1.76525 (Simulation time: 0 hr 0 min 4 sec) 
Heartbeat CPU  0 instructions:    3000000 cycles:    1724310 heartbeat IPC: 1.69112 cumulative IPC: 1.73983 (Simulation time: 0 hr 0 min 6 sec) 
Heartbeat CPU  0 instructions:    4000000 cycles:    2315203 heartbeat IPC: 1.69235 cumulative IPC: 1.72771 (Simulation time: 0 hr 0 min 8 sec) 
Heartbeat CPU  0 instructions:    5000003 cycles:    2856379 heartbeat IPC: 1.84783 cumulative IPC: 1.75047 (Simulation time: 0 hr 0 min 10 sec) 
Heartbeat CPU  0 instructions:    6000003 cycles:    3446799 heartbeat IPC: 1.69371 cumulative IPC: 1.74075 (Simulation time: 0 hr 0 min 12 sec) 
Heartbeat CPU  0 instructions:    7000000 cycles:    4037432 heartbeat IPC: 1.69309 cumulative IPC: 1.73378 (Simulation time: 0 hr 0 min 13 sec) 
Heartbeat CPU  0 instructions:    8000000 cycles:    4578384 heartbeat IPC: 1.84859 cumulative IPC: 1.74734 (Simulation time: 0 hr 0 min 15 sec) 
Heartbeat CPU  0 instructions:    9000003 cycles:    5169138 heartbeat IPC: 1.69276 cumulative IPC: 1.74110 (Simulation time: 0 hr 0 min 17 sec) 
Heartbeat CPU  0 instructions:   10000000 cycles:    5760047 heartbeat IPC: 1.69230 cumulative IPC: 1.73610 (Simulation time: 0 hr 0 min 19 sec) 

Warmup complete CPU  0 instructions:   10000004 cycles:    5760048 (Simulation time: 0 hr 0 min 19 sec) 

Heartbeat CPU  0 instructions:   11000000 cycles:    7464102 heartbeat IPC: 0.58684 cumulative IPC: 0.58683 (Simulation time: 0 hr 0 min 21 sec) 
Heartbeat CPU  0 instructions:   12000000 cycles:   10257670 heartbeat IPC: 0.35797 cumulative IPC: 0.44468 (Simulation time: 0 hr 0 min 24 sec) 
Heartbeat CPU  0 instructions:   13000003 cycles:   13011094 heartbeat IPC: 0.36319 cumulative IPC: 0.41373 (Simulation time: 0 hr 0 min 27 sec) 
Heartbeat CPU  0 instructions:   14000000 cycles:   15829641 heartbeat IPC: 0.35479 cumulative IPC: 0.39724 (Simulation time: 0 hr 0 min 30 sec) 
Heartbeat CPU  0 instructions:   15000000 cycles:   18552831 heartbeat IPC: 0.36722 cumulative IPC: 0.39085 (Simulation time: 0 hr 0 min 32 sec) 
Heartbeat CPU  0 instructions:   16000000 cycles:   21351129 heartbeat IPC: 0.35736 cumulative IPC: 0.38484 (Simulation time: 0 hr 0 min 35 sec) 
Heartbeat CPU  0 instructions:   17000000 cycles:   24015039 heartbeat IPC: 0.37539 cumulative IPC: 0.38346 (Simulation time: 0 hr 0 min 38 sec) 
Heartbeat CPU  0 instructions:   18000001 cycles:   26785519 heartbeat IPC: 0.36095 cumulative IPC: 0.38049 (Simulation time: 0 hr 0 min 41 sec) 
Heartbeat CPU  0 instructions:   19000000 cycles:   29435713 heartbeat IPC: 0.37733 cumulative IPC: 0.38014 (Simulation time: 0 hr 0 min 43 sec) 
Heartbeat CPU  0 instructions:   20000000 cycles:   32167545 heartbeat IPC: 0.36605 cumulative IPC: 0.37868 (Simulation time: 0 hr 0 min 46 sec) 
Heartbeat CPU  0 instructions:   21000001 cycles:   34828802 heartbeat IPC: 0.37576 cumulative IPC: 0.37841 (Simulation time: 0 hr 0 min 49 sec) 
Heartbeat CPU  0 instructions:   22000001 cycles:   38168533 heartbeat IPC: 0.29943 cumulative IPC: 0.37027 (Simulation time: 0 hr 0 min 52 sec) 
Heartbeat CPU  0 instructions:   23000000 cycles:   41826433 heartbeat IPC: 0.27338 cumulative IPC: 0.36045 (Simulation time: 0 hr 0 min 55 sec) 
Heartbeat CPU  0 instructions:   24000000 cycles:   45682654 heartbeat IPC: 0.25932 cumulative IPC: 0.35068 (Simulation time: 0 hr 0 min 58 sec) 
Heartbeat CPU  0 instructions:   25000003 cycles:   50234086 heartbeat IPC: 0.21971 cumulative IPC: 0.33728 (Simulation time: 0 hr 1 min 1 sec) 
Heartbeat CPU  0 instructions:   26000001 cycles:   57998002 heartbeat IPC: 0.12880 cumulative IPC: 0.30629 (Simulation time: 0 hr 1 min 6 sec) 
Heartbeat CPU  0 instructions:   27000000 cycles:   65425827 heartbeat IPC: 0.13463 cumulative IPC: 0.28492 (Simulation time: 0 hr 1 min 11 sec) 
Heartbeat CPU  0 instructions:   28000000 cycles:   72168519 heartbeat IPC: 0.14831 cumulative IPC: 0.27105 (Simulation time: 0 hr 1 min 16 sec) 
Heartbeat CPU  0 instructions:   29000003 cycles:   77709082 heartbeat IPC: 0.18049 cumulative IPC: 0.26408 (Simulation time: 0 hr 1 min 20 sec) 
Heartbeat CPU  0 instructions:   30000001 cycles:   79965435 heartbeat IPC: 0.44319 cumulative IPC: 0.26952 (Simulation time: 0 hr 1 min 23 sec) 
Heartbeat CPU  0 instructions:   31000002 cycles:   81850021 heartbeat IPC: 0.53062 cumulative IPC: 0.27599 (Simulation time: 0 hr 1 min 25 sec) 
Heartbeat CPU  0 instructions:   32000000 cycles:   83683919 heartbeat IPC: 0.54529 cumulative IPC: 0.28233 (Simulation time: 0 hr 1 min 28 sec) 
Heartbeat CPU  0 instructions:   33000001 cycles:   85465618 heartbeat IPC: 0.56126 cumulative IPC: 0.28856 (Simulation time: 0 hr 1 min 30 sec) 
Heartbeat CPU  0 instructions:   34000002 cycles:   87236803 heartbeat IPC: 0.56459 cumulative IPC: 0.29456 (Simulation time: 0 hr 1 min 33 sec) 
Heartbeat CPU  0 instructions:   35000003 cycles:   89009347 heartbeat IPC: 0.56416 cumulative IPC: 0.30030 (Simulation time: 0 hr 1 min 35 sec) 
Heartbeat CPU  0 instructions:   36000000 cycles:   90773250 heartbeat IPC: 0.56692 cumulative IPC: 0.30583 (Simulation time: 0 hr 1 min 37 sec) 
Heartbeat CPU  0 instructions:   37000003 cycles:   92546095 heartbeat IPC: 0.56407 cumulative IPC: 0.31111 (Simulation time: 0 hr 1 min 40 sec) 
Heartbeat CPU  0 instructions:   38000000 cycles:   94306324 heartbeat IPC: 0.56811 cumulative IPC: 0.31622 (Simulation time: 0 hr 1 min 42 sec) 
Heartbeat CPU  0 instructions:   39000000 cycles:   96079055 heartbeat IPC: 0.56410 cumulative IPC: 0.32108 (Simulation time: 0 hr 1 min 44 sec) 
Heartbeat CPU  0 instructions:   40000000 cycles:   97837360 heartbeat IPC: 0.56873 cumulative IPC: 0.32581 (Simulation time: 0 hr 1 min 47 sec) 
Heartbeat CPU  0 instructions:   41000002 cycles:   99631971 heartbeat IPC: 0.55722 cumulative IPC: 0.33024 (Simulation time: 0 hr 1 min 49 sec) 
Heartbeat CPU  0 instructions:   42000002 cycles:  101412916 heartbeat IPC: 0.56150 cumulative IPC: 0.33454 (Simulation time: 0 hr 1 min 52 sec) 
Heartbeat CPU  0 instructions:   43000002 cycles:  103185926 heartbeat IPC: 0.56401 cumulative IPC: 0.33872 (Simulation time: 0 hr 1 min 54 sec) 
Heartbeat CPU  0 instructions:   44000000 cycles:  104929133 heartbeat IPC: 0.57365 cumulative IPC: 0.34285 (Simulation time: 0 hr 1 min 56 sec) 
Heartbeat CPU  0 instructions:   45000001 cycles:  106681814 heartbeat IPC: 0.57056 cumulative IPC: 0.34680 (Simulation time: 0 hr 1 min 59 sec) 
Heartbeat CPU  0 instructions:   46000000 cycles:  108483550 heartbeat IPC: 0.55502 cumulative IPC: 0.35046 (Simulation time: 0 hr 2 min 1 sec) 
Heartbeat CPU  0 instructions:   47000003 cycles:  110216228 heartbeat IPC: 0.57714 cumulative IPC: 0.35422 (Simulation time: 0 hr 2 min 4 sec) 
Heartbeat CPU  0 instructions:   48000000 cycles:  111985645 heartbeat IPC: 0.56516 cumulative IPC: 0.35773 (Simulation time: 0 hr 2 min 6 sec) 
Heartbeat CPU  0 instructions:   49000000 cycles:  113742312 heartbeat IPC: 0.56926 cumulative IPC: 0.36117 (Simulation time: 0 hr 2 min 8 sec) 
Heartbeat CPU  0 instructions:   50000002 cycles:  115499491 heartbeat IPC: 0.56910 cumulative IPC: 0.36450 (Simulation time: 0 hr 2 min 11 sec) 
Heartbeat CPU  0 instructions:   51000002 cycles:  117278355 heartbeat IPC: 0.56216 cumulative IPC: 0.36765 (Simulation time: 0 hr 2 min 13 sec) 
Heartbeat CPU  0 instructions:   52000000 cycles:  119026064 heartbeat IPC: 0.57218 cumulative IPC: 0.37081 (Simulation time: 0 hr 2 min 15 sec) 
Heartbeat CPU  0 instructions:   53000001 cycles:  120822561 heartbeat IPC: 0.55664 cumulative IPC: 0.37371 (Simulation time: 0 hr 2 min 18 sec) 
Heartbeat CPU  0 instructions:   54000000 cycles:  122566791 heartbeat IPC: 0.57332 cumulative IPC: 0.37669 (Simulation time: 0 hr 2 min 20 sec) 
Heartbeat CPU  0 instructions:   55000003 cycles:  124332013 heartbeat IPC: 0.56650 cumulative IPC: 0.37952 (Simulation time: 0 hr 2 min 23 sec) 
Heartbeat CPU  0 instructions:   56000000 cycles:  126088094 heartbeat IPC: 0.56945 cumulative IPC: 0.38229 (Simulation time: 0 hr 2 min 25 sec) 
Heartbeat CPU  0 instructions:   57000000 cycles:  127847274 heartbeat IPC: 0.56845 cumulative IPC: 0.38497 (Simulation time: 0 hr 2 min 27 sec) 
Heartbeat CPU  0 instructions:   58000000 cycles:  129614456 heartbeat IPC: 0.56587 cumulative IPC: 0.38755 (Simulation time: 0 hr 2 min 30 sec) 
Heartbeat CPU  0 instructions:   59000003 cycles:  131359412 heartbeat IPC: 0.57308 cumulative IPC: 0.39013 (Simulation time: 0 hr 2 min 32 sec) 
Heartbeat CPU  0 instructions:   60000000 cycles:  133162048 heartbeat IPC: 0.55474 cumulative IPC: 0.39246 (Simulation time: 0 hr 2 min 35 sec) 
Finished CPU 0 instructions: 50000000 cycles: 127402050 cumulative IPC: 0.39246 (Simulation time: 0 hr 2 min 35 sec) 

ChampSim completed all CPUs

[ROI Statistics]
Core_0_instructions 50000000
Core_0_cycles 127402050
Core_0_IPC 0.39246

Core_0_branch_prediction_accuracy 98.42229
Core_0_branch_MPKI 0.79620
Core_0_average_ROB_occupancy_at_mispredict 243.46101

Core_0_L1D_total_access 12914423
Core_0_L1D_total_hit 10472120
Core_0_L1D_total_miss 2442303
Core_0_L1D_loads 9064527
Core_0_L1D_load_hit 7170055
Core_0_L1D_load_miss 1894472
Core_0_L1D_RFOs 3849896
Core_0_L1D_RFO_hit 3302065
Core_0_L1D_RFO_miss 547831
Core_0_L1D_prefetches 0
Core_0_L1D_prefetch_hit 0
Core_0_L1D_prefetch_miss 0
Core_0_L1D_writebacks 0
Core_0_L1D_writeback_hit 0
Core_0_L1D_writeback_miss 0
Core_0_L1D_prefetch_requested 0
Core_0_L1D_prefetch_dropped 0
Core_0_L1D_prefetch_issued 0
Core_0_L1D_prefetch_filled 0
Core_0_L1D_prefetch_useful 0
Core_0_L1D_prefetch_useless 0
Core_0_L1D_prefetch_late 0
Core_0_L1D_average_miss_latency 173.51090

Core_0_L1D_rq_access 20891704
Core_0_L1D_rq_forward 0
Core_0_L1D_rq_merged 9859725
Core_0_L1D_rq_to_cache 11031534
Core_0_L1D_rq_full 0

Core_0_L1D_wq_access 6465929
Core_0_L1D_wq_forward 445
Core_0_L1D_wq_merged 6419
Core_0_L1D_wq_to_cache 6459510
Core_0_L1D_wq_full 0

Core_0_L1D_pq_access 0
Core_0_L1D_pq_forward 0
Core_0_L1D_pq_merged 0
Core_0_L1D_pq_to_cache 0
Core_0_L1D_pq_full 0

Core_0_L1D_acc_epochs 128232
Core_0_L1D_acc_level_0 128232
Core_0_L1D_acc_level_1 0
Core_0_L1D_acc_level_2 0
Core_0_L1D_acc_level_3 0
Core_0_L1D_acc_level_4 0
Core_0_L1D_acc_level_5 0
Core_0_L1D_acc_level_6 0
Core_0_L1D_acc_level_7 0
Core_0_L1D_acc_level_8 0
Core_0_L1D_acc_level_9 0

Core_0_L1I_total_access 11814121
Core_0_L1I_total_hit 11813741
Core_0_L1I_total_miss 380
Core_0_L1I_loads 11814121
Core_0_L1I_load_hit 11813741
Core_0_L1I_load_miss 380
Core_0_L1I_RFOs 0
Core_0_L1I_RFO_hit 0
Core_0_L1I_RFO_miss 0
Core_0_L1I_prefetches 0
Core_0_L1I_prefetch_hit 0
Core_0_L1I_prefetch_miss 0
Core_0_L1I_writebacks 0
Core_0_L1I_writeback_hit 0
Core_0_L1I_writeback_miss 0
Core_0_L1I_prefetch_requested 0
Core_0_L1I_prefetch_dropped 0
Core_0_L1I_prefetch_issued 0
Core_0_L1I_prefetch_filled 0
Core_0_L1I_prefetch_useful 0
Core_0_L1I_prefetch_useless 0
Core_0_L1I_prefetch_late 0
Core_0_L1I_average_miss_latency 290.72368

Core_0_L1I_rq_access 50000004
Core_0_L1I_rq_forward 0
Core_0_L1I_rq_merged 38185523
Core_0_L1I_rq_to_cache 11814481
Core_0_L1I_rq_full 0

Core_0_L1I_wq_access 0
Core_0_L1I_wq_forward 0
Core_0_L1I_wq_merged 0
Core_0_L1I_wq_to_cache 0
Core_0_L1I_wq_full 0

Core_0_L1I_pq_access 0
Core_0_L1I_pq_forward 0
Core_0_L1I_pq_merged 0
Core_0_L1I_pq_to_cache 0
Core_0_L1I_pq_full 0

Core_0_L1I_acc_epochs 128232
Core_0_L1I_acc_level_0 128232
Core_0_L1I_acc_level_1 0
Core_0_L1I_acc_level_2 0
Core_0_L1I_acc_level_3 0
Core_0_L1I_acc_level_4 0
Core_0_L1I_acc_level_5 0
Core_0_L1I_acc_level_6 0
Core_0_L1I_acc_level_7 0
Core_0_L1I_acc_level_8 0
Core_0_L1I_acc_level_9 0

Core_0_L2C_total_access 3146594
Core_0_L2C_total_hit 1326725
Core_0_L2C_total_miss 1819869
Core_0_L2C_loads 1894648
Core_0_L2C_load_hit 422423
Core_0_L2C_load_miss 1472225
Core_0_L2C_RFOs 547637
Core_0_L2C_RFO_hit 202174
Core_0_L2C_RFO_miss 345463
Core_0_L2C_prefetches 0
Core_0_L2C_prefetch_hit 0
Core_0_L2C_prefetch_miss 0
Core_0_L2C_writebacks 704309
Core_0_L2C_writeback_hit 702128
Core_0_L2C_writeback_miss 2181
Core_0_L2C_prefetch_requested 0
Core_0_L2C_prefetch_dropped 0
Core_0_L2C_prefetch_issued 0
Core_0_L2C_prefetch_filled 0
Core_0_L2C_prefetch_useful 0
Core_0_L2C_prefetch_useless 0
Core_0_L2C_prefetch_late 0
Core_0_L2C_average_miss_latency 213.53131

Core_0_L2C_rq_access 2442683
Core_0_L2C_rq_forward 0
Core_0_L2C_rq_merged 0
Core_0_L2C_rq_to_cache 2442285
Core_0_L2C_rq_full 0

Core_0_L2C_wq_access 704310
Core_0_L2C_wq_forward 398
Core_0_L2C_wq_merged 0
Core_0_L2C_wq_to_cache 704310
Core_0_L2C_wq_full 0

Core_0_L2C_pq_access 0
Core_0_L2C_pq_forward 0
Core_0_L2C_pq_merged 0
Core_0_L2C_pq_to_cache 0
Core_0_L2C_pq_full 0

Core_0_L2C_acc_epochs 128232
Core_0_L2C_acc_level_0 128232
Core_0_L2C_acc_level_1 0
Core_0_L2C_acc_level_2 0
Core_0_L2C_acc_level_3 0
Core_0_L2C_acc_level_4 0
Core_0_L2C_acc_level_5 0
Core_0_L2C_acc_level_6 0
Core_0_L2C_acc_level_7 0
Core_0_L2C_acc_level_8 0
Core_0_L2C_acc_level_9 0

Core_0_LLC_total_access 2286839
Core_0_LLC_total_hit 784235
Core_0_LLC_total_miss 1502604
Core_0_LLC_loads 1472224
Core_0_LLC_load_hit 534366
Core_0_LLC_load_miss 937858
Core_0_LLC_RFOs 345462
Core_0_LLC_RFO_hit 55729
Core_0_LLC_RFO_miss 289733
Core_0_LLC_prefetches 0
Core_0_LLC_prefetch_hit 0
Core_0_LLC_prefetch_miss 0
Core_0_LLC_writebacks 469153
Core_0_LLC_writeback_hit 194140
Core_0_LLC_writeback_miss 275013
Core_0_LLC_prefetch_requested 0
Core_0_LLC_prefetch_dropped 0
Core_0_LLC_prefetch_issued 0
Core_0_LLC_prefetch_filled 0
Core_0_LLC_prefetch_useful 0
Core_0_LLC_prefetch_useless 0
Core_0_LLC_prefetch_late 0
Core_0_LLC_average_miss_latency 221.87663

Core_0_LLC_rq_access 1817688
Core_0_LLC_rq_forward 0
Core_0_LLC_rq_merged 0
Core_0_LLC_rq_to_cache 1817686
Core_0_LLC_rq_full 0

Core_0_LLC_wq_access 469153
Core_0_LLC_wq_forward 2
Core_0_LLC_wq_merged 0
Core_0_LLC_wq_to_cache 469153
Core_0_LLC_wq_full 0

Core_0_LLC_pq_access 0
Core_0_LLC_pq_forward 0
Core_0_LLC_pq_merged 0
Core_0_LLC_pq_to_cache 0
Core_0_LLC_pq_full 0

Core_0_LLC_acc_epochs 130042
Core_0_LLC_acc_level_0 130042
Core_0_LLC_acc_level_1 0
Core_0_LLC_acc_level_2 0
Core_0_LLC_acc_level_3 0
Core_0_LLC_acc_level_4 0
Core_0_LLC_acc_level_5 0
Core_0_LLC_acc_level_6 0
Core_0_LLC_acc_level_7 0
Core_0_LLC_acc_level_8 0
Core_0_LLC_acc_level_9 0

Core_0_major_page_fault 0
Core_0_minor_page_fault 12507

Channel_0_RQ_row_buffer_hit 243586
Channel_0_RQ_row_buffer_miss 984005
Channel_0_WQ_row_buffer_hit 190648
Channel_0_WQ_row_buffer_miss 206105
Channel_0_WQ_full 346
Channel_0_dbus_congested 617560

avg_congested_cycle 10

DRAM_bw_pochs 520165
DRAM_bw_level_0 290142
DRAM_bw_level_1 185272
DRAM_bw_level_2 41210
DRAM_bw_level_3 3541
