*************************************************
   ChampSim Multicore Out-of-Order Simulator
   Last compiled: Apr  3 2025 20:54:34
*************************************************
parsing config file: /home/zir/Pythia/config/pythia.ini

trace_0 /home/zir/ChampSim/ML-DPC/ChampSimTraces/spec17/654.roms-s7.trace.xz
adding L2C_PREFETCHER: Scooby
Initialize SHIP state
warmup_instructions 10000000
simulation_instructions 50000000
champsim_seed 170
measure_ipc 0
measure_ipc_epoch 1000
measure_dram_bw 1
measure_dram_bw_epoch 256
measure_cache_acc 1
measure_cache_acc_epoch 1024
l1d_perfect 0
l2c_perfect 0
llc_perfect 0
l1d_semi_perfect 0
l2c_semi_perfect 0
llc_semi_perfect 0
semi_perfect_cache_page_buffer_size 64

num_cpus 1
cpu_freq 4000
dram_io_freq 2400
page_size 4096
block_size 64
max_read_per_cycle 8
max_fill_per_cycle 1
dram_channels 1
log2_dram_channels 0
dram_ranks 1
dram_banks 8
dram_rows 65536
dram_columns 128
dram_row_size 8
dram_size 4096
dram_pages 1048576

fetch_width 6
decode_width 6
exec_width 4
lq_width 2
sq_width 2
retire_width 4
scheduler_size 128
branch_mispredict_penalty 20
rob_size 256
lq_size 72
sq_size 56
num_instr_destinations_sparc 4
num_instr_destinations 2
num_instr_sources 4

itlb_set 16
itlb_way 8
itlb_rq_size 16
itlb_wq_size 16
itlb_pq_size 0
itlb_mshr_size 8
itlb_latency 1

dtlb_set 16
dtlb_way 4
dtlb_rq_size 16
dtlb_wq_size 16
dtlb_pq_size 0
dtlb_mshr_size 8
dtlb_latency 1

stlb_set 128
stlb_way 12
stlb_rq_size 32
stlb_wq_size 32
stlb_pq_size 0
stlb_mshr_size 16
stlb_latency 8

l1i_size 32
l1i_set 64
l1i_way 8
l1i_rq_size 64
l1i_wq_size 64
l1i_pq_size 8
l1i_mshr_size 8
l1i_latency 1

l1d_size 32
l1d_set 64
l1d_way 8
l1d_rq_size 64
l1d_wq_size 64
l1d_pq_size 8
l1d_mshr_size 16
l1d_latency 4

l2c_size 256
l2c_set 512
l2c_way 8
l2c_rq_size 32
l2c_wq_size 32
l2c_pq_size 32
l2c_mshr_size 32
l2c_latency 10

llc_size 2048
llc_set 2048
llc_way 16
llc_rq_size 32
llc_wq_size 32
llc_pq_size 32
llc_mshr_size 64
llc_latency 20

dram_channel_width 8
dram_wq_size 64
dram_rq_size 64
tRP 15
tRCD 15
tCAS 12.5
dram_dbus_turn_around_time 30
dram_write_high_wm 56
dram_write_low_wm 48
min_dram_writes_per_switch 16
dram_mtps 2400
dram_dbus_return_time 13

scooby_alpha 0.0065088
scooby_gamma 0.556301
scooby_epsilon 0.00182284
scooby_state_num_bits 10
scooby_max_states 1024
scooby_seed 200
scooby_policy EGreedy
scooby_learning_type SARSA
scooby_actions 1,3,4,5,10,11,12,22,23,30,32,-1,-3,-6,0,
scooby_max_actions 15
scooby_pt_size 256
scooby_st_size 64
scooby_max_pcs 5
scooby_max_offsets 5
scooby_max_deltas 5
scooby_reward_none -4
scooby_reward_incorrect -8
scooby_reward_correct_untimely 12
scooby_reward_correct_timely 20
scooby_brain_zero_init 0
scooby_enable_reward_all 0
scooby_enable_track_multiple 0
scooby_enable_reward_out_of_bounds 1
scooby_reward_out_of_bounds -12
scooby_state_type 1
scooby_state_hash_type 11
scooby_access_debug 0
scooby_print_access_debug 0
scooby_print_access_debug_pc deadbeef
scooby_print_access_debug_pc_count 0
scooby_print_trace 0
scooby_enable_state_action_stats 1
scooby_enable_reward_tracker_hit 0
scooby_reward_tracker_hit -2
scooby_enable_featurewise_engine 1
scooby_pref_degree 1
scooby_enable_dyn_degree 1
scooby_max_to_avg_q_thresholds 0.5,1,2,
scooby_dyn_degrees 1,2,4,4,
scooby_multi_deg_select_type 2
scooby_last_pref_offset_conf_thresholds 1,3,8,
scooby_dyn_degrees_type2 1,2,4,6,
scooby_action_tracker_size 2
scooby_high_bw_thresh 4
scooby_enable_hbw_reward 1
scooby_reward_hbw_correct_timely 20
scooby_reward_hbw_correct_untimely 12
scooby_reward_hbw_incorrect -14
scooby_reward_hbw_none -2
scooby_reward_hbw_out_of_bounds -12
scooby_reward_hbw_tracker_hit -2
scooby_last_pref_offset_conf_thresholds_hbw 1,3,8,
scooby_dyn_degrees_type2_hbw 1,2,4,6,

le_enable_trace 0
le_trace_interval 0
le_trace_file_name 
le_trace_state 0
le_enable_score_plot 0
le_plot_file_name 
le_plot_actions 
le_enable_action_trace 0
le_action_trace_interval 0
le_action_trace_name 
le_enable_action_plot 0

le_featurewise_active_features PC, PC_Delta
le_featurewise_num_tilings 3,3,
le_featurewise_num_tiles 128,128,
le_featurewise_hash_types 2,2,
le_featurewise_enable_tiling_offset 1,1,
le_featurewise_max_q_thresh 0.5
le_featurewise_enable_action_fallback 1
le_featurewise_feature_weights 1,1,
le_featurewise_enable_dynamic_weight 0
le_featurewise_weight_gradient 0.001
le_featurewise_disable_adjust_weight_all_features_align 1
le_featurewise_selective_update 0
le_featurewise_pooling_type 2
le_featurewise_enable_dyn_action_fallback 1
le_featurewise_bw_acc_check_level 1
le_featurewise_acc_thresh 2
le_featurewise_enable_trace 0
le_featurewise_trace_feature_type 0
le_featurewise_trace_feature 
le_featurewise_trace_interval 0
le_featurewise_trace_record_count 0
le_featurewise_trace_file_name 
le_featurewise_enable_score_plot 0
le_featurewise_plot_actions 
le_featurewise_plot_file_name 


Heartbeat CPU  0 instructions:    1000003 cycles:     530080 heartbeat IPC: 1.88651 cumulative IPC: 1.88651 (Simulation time: 0 hr 0 min 2 sec) 
Heartbeat CPU  0 instructions:    2000001 cycles:    1060149 heartbeat IPC: 1.88654 cumulative IPC: 1.88653 (Simulation time: 0 hr 0 min 5 sec) 
Heartbeat CPU  0 instructions:    3000001 cycles:    1590248 heartbeat IPC: 1.88644 cumulative IPC: 1.88650 (Simulation time: 0 hr 0 min 7 sec) 
Heartbeat CPU  0 instructions:    4000000 cycles:    2120697 heartbeat IPC: 1.88519 cumulative IPC: 1.88617 (Simulation time: 0 hr 0 min 9 sec) 
Heartbeat CPU  0 instructions:    5000000 cycles:    2535359 heartbeat IPC: 2.41160 cumulative IPC: 1.97211 (Simulation time: 0 hr 0 min 10 sec) 
Heartbeat CPU  0 instructions:    6000000 cycles:    2951529 heartbeat IPC: 2.40286 cumulative IPC: 2.03284 (Simulation time: 0 hr 0 min 12 sec) 
Heartbeat CPU  0 instructions:    7000003 cycles:    3364670 heartbeat IPC: 2.42049 cumulative IPC: 2.08044 (Simulation time: 0 hr 0 min 13 sec) 
Heartbeat CPU  0 instructions:    8000000 cycles:    3780190 heartbeat IPC: 2.40662 cumulative IPC: 2.11630 (Simulation time: 0 hr 0 min 14 sec) 
Heartbeat CPU  0 instructions:    9000001 cycles:    4193583 heartbeat IPC: 2.41901 cumulative IPC: 2.14614 (Simulation time: 0 hr 0 min 15 sec) 
Heartbeat CPU  0 instructions:   10000001 cycles:    4607352 heartbeat IPC: 2.41681 cumulative IPC: 2.17044 (Simulation time: 0 hr 0 min 17 sec) 

Warmup complete CPU  0 instructions:   10000001 cycles:    4607352 (Simulation time: 0 hr 0 min 17 sec) 

Heartbeat CPU  0 instructions:   11000002 cycles:    5344312 heartbeat IPC: 1.35693 cumulative IPC: 1.35693 (Simulation time: 0 hr 0 min 18 sec) 
Heartbeat CPU  0 instructions:   12000000 cycles:    6083218 heartbeat IPC: 1.35335 cumulative IPC: 1.35514 (Simulation time: 0 hr 0 min 20 sec) 
Heartbeat CPU  0 instructions:   13000001 cycles:    6821347 heartbeat IPC: 1.35478 cumulative IPC: 1.35502 (Simulation time: 0 hr 0 min 22 sec) 
Heartbeat CPU  0 instructions:   14000002 cycles:    7558904 heartbeat IPC: 1.35583 cumulative IPC: 1.35522 (Simulation time: 0 hr 0 min 24 sec) 
Heartbeat CPU  0 instructions:   15000001 cycles:    8298089 heartbeat IPC: 1.35284 cumulative IPC: 1.35474 (Simulation time: 0 hr 0 min 26 sec) 
Heartbeat CPU  0 instructions:   16000000 cycles:    9034380 heartbeat IPC: 1.35816 cumulative IPC: 1.35531 (Simulation time: 0 hr 0 min 28 sec) 
Heartbeat CPU  0 instructions:   17000002 cycles:    9774441 heartbeat IPC: 1.35124 cumulative IPC: 1.35473 (Simulation time: 0 hr 0 min 29 sec) 
Heartbeat CPU  0 instructions:   18000001 cycles:   10543295 heartbeat IPC: 1.30064 cumulative IPC: 1.34772 (Simulation time: 0 hr 0 min 31 sec) 
Heartbeat CPU  0 instructions:   19000000 cycles:   12387971 heartbeat IPC: 0.54210 cumulative IPC: 1.15672 (Simulation time: 0 hr 0 min 34 sec) 
Heartbeat CPU  0 instructions:   20000000 cycles:   13711418 heartbeat IPC: 0.75560 cumulative IPC: 1.09841 (Simulation time: 0 hr 0 min 37 sec) 
Heartbeat CPU  0 instructions:   21000003 cycles:   15091703 heartbeat IPC: 0.72449 cumulative IPC: 1.04918 (Simulation time: 0 hr 0 min 39 sec) 
Heartbeat CPU  0 instructions:   22000003 cycles:   16967676 heartbeat IPC: 0.53306 cumulative IPC: 0.97085 (Simulation time: 0 hr 0 min 42 sec) 
Heartbeat CPU  0 instructions:   23000003 cycles:   18255718 heartbeat IPC: 0.77637 cumulative IPC: 0.95250 (Simulation time: 0 hr 0 min 45 sec) 
Heartbeat CPU  0 instructions:   24000000 cycles:   19525740 heartbeat IPC: 0.78739 cumulative IPC: 0.93844 (Simulation time: 0 hr 0 min 47 sec) 
Heartbeat CPU  0 instructions:   25000002 cycles:   21372369 heartbeat IPC: 0.54153 cumulative IPC: 0.89472 (Simulation time: 0 hr 0 min 50 sec) 
Heartbeat CPU  0 instructions:   26000001 cycles:   22495976 heartbeat IPC: 0.88999 cumulative IPC: 0.89442 (Simulation time: 0 hr 0 min 53 sec) 
Heartbeat CPU  0 instructions:   27000001 cycles:   23586985 heartbeat IPC: 0.91658 cumulative IPC: 0.89570 (Simulation time: 0 hr 0 min 56 sec) 
Heartbeat CPU  0 instructions:   28000000 cycles:   24675897 heartbeat IPC: 0.91835 cumulative IPC: 0.89693 (Simulation time: 0 hr 0 min 58 sec) 
Heartbeat CPU  0 instructions:   29000002 cycles:   25808437 heartbeat IPC: 0.88297 cumulative IPC: 0.89618 (Simulation time: 0 hr 1 min 1 sec) 
Heartbeat CPU  0 instructions:   30000002 cycles:   26976044 heartbeat IPC: 0.85645 cumulative IPC: 0.89411 (Simulation time: 0 hr 1 min 4 sec) 
Heartbeat CPU  0 instructions:   31000001 cycles:   28194867 heartbeat IPC: 0.82046 cumulative IPC: 0.89030 (Simulation time: 0 hr 1 min 7 sec) 
Heartbeat CPU  0 instructions:   32000000 cycles:   29428997 heartbeat IPC: 0.81029 cumulative IPC: 0.88632 (Simulation time: 0 hr 1 min 9 sec) 
Heartbeat CPU  0 instructions:   33000001 cycles:   31317421 heartbeat IPC: 0.52954 cumulative IPC: 0.86110 (Simulation time: 0 hr 1 min 12 sec) 
Heartbeat CPU  0 instructions:   34000002 cycles:   32850460 heartbeat IPC: 0.65230 cumulative IPC: 0.84976 (Simulation time: 0 hr 1 min 15 sec) 
Heartbeat CPU  0 instructions:   35000000 cycles:   34424056 heartbeat IPC: 0.63549 cumulative IPC: 0.83846 (Simulation time: 0 hr 1 min 17 sec) 
Heartbeat CPU  0 instructions:   36000000 cycles:   36003408 heartbeat IPC: 0.63317 cumulative IPC: 0.82813 (Simulation time: 0 hr 1 min 19 sec) 
Heartbeat CPU  0 instructions:   37000000 cycles:   37396923 heartbeat IPC: 0.71761 cumulative IPC: 0.82343 (Simulation time: 0 hr 1 min 21 sec) 
Heartbeat CPU  0 instructions:   38000000 cycles:   39146627 heartbeat IPC: 0.57153 cumulative IPC: 0.81067 (Simulation time: 0 hr 1 min 24 sec) 
Heartbeat CPU  0 instructions:   39000002 cycles:   40312795 heartbeat IPC: 0.85751 cumulative IPC: 0.81220 (Simulation time: 0 hr 1 min 26 sec) 
Heartbeat CPU  0 instructions:   40000000 cycles:   41551439 heartbeat IPC: 0.80733 cumulative IPC: 0.81204 (Simulation time: 0 hr 1 min 29 sec) 
Heartbeat CPU  0 instructions:   41000003 cycles:   42906688 heartbeat IPC: 0.73787 cumulative IPC: 0.80941 (Simulation time: 0 hr 1 min 31 sec) 
Heartbeat CPU  0 instructions:   42000003 cycles:   44275306 heartbeat IPC: 0.73066 cumulative IPC: 0.80670 (Simulation time: 0 hr 1 min 34 sec) 
Heartbeat CPU  0 instructions:   43000000 cycles:   45526336 heartbeat IPC: 0.79934 cumulative IPC: 0.80647 (Simulation time: 0 hr 1 min 36 sec) 
Heartbeat CPU  0 instructions:   44000000 cycles:   46429779 heartbeat IPC: 1.10688 cumulative IPC: 0.81296 (Simulation time: 0 hr 1 min 39 sec) 
Heartbeat CPU  0 instructions:   45000003 cycles:   47311195 heartbeat IPC: 1.13454 cumulative IPC: 0.81960 (Simulation time: 0 hr 1 min 41 sec) 
Heartbeat CPU  0 instructions:   46000002 cycles:   48171730 heartbeat IPC: 1.16207 cumulative IPC: 0.82636 (Simulation time: 0 hr 1 min 43 sec) 
Heartbeat CPU  0 instructions:   47000000 cycles:   49037990 heartbeat IPC: 1.15439 cumulative IPC: 0.83276 (Simulation time: 0 hr 1 min 46 sec) 
Heartbeat CPU  0 instructions:   48000000 cycles:   49891486 heartbeat IPC: 1.17165 cumulative IPC: 0.83915 (Simulation time: 0 hr 1 min 48 sec) 
Heartbeat CPU  0 instructions:   49000000 cycles:   50764223 heartbeat IPC: 1.14582 cumulative IPC: 0.84494 (Simulation time: 0 hr 1 min 50 sec) 
Heartbeat CPU  0 instructions:   50000000 cycles:   51625510 heartbeat IPC: 1.16105 cumulative IPC: 0.85074 (Simulation time: 0 hr 1 min 53 sec) 
Heartbeat CPU  0 instructions:   51000002 cycles:   52911876 heartbeat IPC: 0.77739 cumulative IPC: 0.84878 (Simulation time: 0 hr 1 min 55 sec) 
Heartbeat CPU  0 instructions:   52000000 cycles:   54393856 heartbeat IPC: 0.67477 cumulative IPC: 0.84360 (Simulation time: 0 hr 1 min 57 sec) 
Heartbeat CPU  0 instructions:   53000002 cycles:   55780018 heartbeat IPC: 0.72142 cumulative IPC: 0.84029 (Simulation time: 0 hr 1 min 59 sec) 
Heartbeat CPU  0 instructions:   54000000 cycles:   57475338 heartbeat IPC: 0.58986 cumulative IPC: 0.83226 (Simulation time: 0 hr 2 min 2 sec) 
Heartbeat CPU  0 instructions:   55000000 cycles:   58667382 heartbeat IPC: 0.83890 cumulative IPC: 0.83241 (Simulation time: 0 hr 2 min 4 sec) 
Heartbeat CPU  0 instructions:   56000000 cycles:   59785743 heartbeat IPC: 0.89417 cumulative IPC: 0.83366 (Simulation time: 0 hr 2 min 6 sec) 
Heartbeat CPU  0 instructions:   57000003 cycles:   60963584 heartbeat IPC: 0.84901 cumulative IPC: 0.83398 (Simulation time: 0 hr 2 min 9 sec) 
Heartbeat CPU  0 instructions:   58000002 cycles:   61886761 heartbeat IPC: 1.08321 cumulative IPC: 0.83800 (Simulation time: 0 hr 2 min 11 sec) 
Heartbeat CPU  0 instructions:   59000002 cycles:   62825865 heartbeat IPC: 1.06484 cumulative IPC: 0.84166 (Simulation time: 0 hr 2 min 14 sec) 
Heartbeat CPU  0 instructions:   60000000 cycles:   63747321 heartbeat IPC: 1.08524 cumulative IPC: 0.84545 (Simulation time: 0 hr 2 min 16 sec) 
Finished CPU 0 instructions: 50000000 cycles: 59139977 cumulative IPC: 0.84545 (Simulation time: 0 hr 2 min 16 sec) 

ChampSim completed all CPUs

[ROI Statistics]
Core_0_instructions 50000000
Core_0_cycles 59139977
Core_0_IPC 0.84545

Core_0_branch_prediction_accuracy 99.83880
Core_0_branch_MPKI 0.10468
Core_0_average_ROB_occupancy_at_mispredict 251.71819

Core_0_L1D_total_access 11529797
Core_0_L1D_total_hit 10218251
Core_0_L1D_total_miss 1311546
Core_0_L1D_loads 10126810
Core_0_L1D_load_hit 9083645
Core_0_L1D_load_miss 1043165
Core_0_L1D_RFOs 1402987
Core_0_L1D_RFO_hit 1134606
Core_0_L1D_RFO_miss 268381
Core_0_L1D_prefetches 0
Core_0_L1D_prefetch_hit 0
Core_0_L1D_prefetch_miss 0
Core_0_L1D_writebacks 0
Core_0_L1D_writeback_hit 0
Core_0_L1D_writeback_miss 0
Core_0_L1D_prefetch_requested 0
Core_0_L1D_prefetch_dropped 0
Core_0_L1D_prefetch_issued 0
Core_0_L1D_prefetch_filled 0
Core_0_L1D_prefetch_useful 0
Core_0_L1D_prefetch_useless 0
Core_0_L1D_prefetch_late 0
Core_0_L1D_average_miss_latency 120.28285

Core_0_L1D_rq_access 18802847
Core_0_L1D_rq_forward 0
Core_0_L1D_rq_merged 8019178
Core_0_L1D_rq_to_cache 10783666
Core_0_L1D_rq_full 0

Core_0_L1D_wq_access 3113152
Core_0_L1D_wq_forward 3
Core_0_L1D_wq_merged 0
Core_0_L1D_wq_to_cache 3113152
Core_0_L1D_wq_full 0

Core_0_L1D_pq_access 0
Core_0_L1D_pq_forward 0
Core_0_L1D_pq_merged 0
Core_0_L1D_pq_to_cache 0
Core_0_L1D_pq_full 0

Core_0_L1D_acc_epochs 59544
Core_0_L1D_acc_level_0 59544
Core_0_L1D_acc_level_1 0
Core_0_L1D_acc_level_2 0
Core_0_L1D_acc_level_3 0
Core_0_L1D_acc_level_4 0
Core_0_L1D_acc_level_5 0
Core_0_L1D_acc_level_6 0
Core_0_L1D_acc_level_7 0
Core_0_L1D_acc_level_8 0
Core_0_L1D_acc_level_9 0

Core_0_L1I_total_access 11963715
Core_0_L1I_total_hit 11963649
Core_0_L1I_total_miss 66
Core_0_L1I_loads 11963715
Core_0_L1I_load_hit 11963649
Core_0_L1I_load_miss 66
Core_0_L1I_RFOs 0
Core_0_L1I_RFO_hit 0
Core_0_L1I_RFO_miss 0
Core_0_L1I_prefetches 0
Core_0_L1I_prefetch_hit 0
Core_0_L1I_prefetch_miss 0
Core_0_L1I_writebacks 0
Core_0_L1I_writeback_hit 0
Core_0_L1I_writeback_miss 0
Core_0_L1I_prefetch_requested 0
Core_0_L1I_prefetch_dropped 0
Core_0_L1I_prefetch_issued 0
Core_0_L1I_prefetch_filled 0
Core_0_L1I_prefetch_useful 0
Core_0_L1I_prefetch_useless 0
Core_0_L1I_prefetch_late 0
Core_0_L1I_average_miss_latency 245.83333

Core_0_L1I_rq_access 50000007
Core_0_L1I_rq_forward 0
Core_0_L1I_rq_merged 38036042
Core_0_L1I_rq_to_cache 11963965
Core_0_L1I_rq_full 0

Core_0_L1I_wq_access 0
Core_0_L1I_wq_forward 0
Core_0_L1I_wq_merged 0
Core_0_L1I_wq_to_cache 0
Core_0_L1I_wq_full 0

Core_0_L1I_pq_access 0
Core_0_L1I_pq_forward 0
Core_0_L1I_pq_merged 0
Core_0_L1I_pq_to_cache 0
Core_0_L1I_pq_full 0

Core_0_L1I_acc_epochs 59544
Core_0_L1I_acc_level_0 59544
Core_0_L1I_acc_level_1 0
Core_0_L1I_acc_level_2 0
Core_0_L1I_acc_level_3 0
Core_0_L1I_acc_level_4 0
Core_0_L1I_acc_level_5 0
Core_0_L1I_acc_level_6 0
Core_0_L1I_acc_level_7 0
Core_0_L1I_acc_level_8 0
Core_0_L1I_acc_level_9 0

Core_0_L2C_total_access 5386291
Core_0_L2C_total_hit 4126012
Core_0_L2C_total_miss 1260279
Core_0_L2C_loads 1043231
Core_0_L2C_load_hit 910338
Core_0_L2C_load_miss 132893
Core_0_L2C_RFOs 268381
Core_0_L2C_RFO_hit 1
Core_0_L2C_RFO_miss 268380
Core_0_L2C_prefetches 3670089
Core_0_L2C_prefetch_hit 2811085
Core_0_L2C_prefetch_miss 859004
Core_0_L2C_writebacks 404590
Core_0_L2C_writeback_hit 404588
Core_0_L2C_writeback_miss 2
Core_0_L2C_prefetch_requested 6382633
Core_0_L2C_prefetch_dropped 638
Core_0_L2C_prefetch_issued 6381995
Core_0_L2C_prefetch_filled 965373
Core_0_L2C_prefetch_useful 910495
Core_0_L2C_prefetch_useless 54743
Core_0_L2C_prefetch_late 103277
Core_0_L2C_average_miss_latency 345.39108

Core_0_L2C_rq_access 1311614
Core_0_L2C_rq_forward 0
Core_0_L2C_rq_merged 0
Core_0_L2C_rq_to_cache 1311614
Core_0_L2C_rq_full 0

Core_0_L2C_wq_access 404590
Core_0_L2C_wq_forward 0
Core_0_L2C_wq_merged 0
Core_0_L2C_wq_to_cache 404590
Core_0_L2C_wq_full 0

Core_0_L2C_pq_access 6381995
Core_0_L2C_pq_forward 0
Core_0_L2C_pq_merged 39604
Core_0_L2C_pq_to_cache 6342391
Core_0_L2C_pq_full 0

Core_0_L2C_acc_epochs 59544
Core_0_L2C_acc_level_0 1
Core_0_L2C_acc_level_1 0
Core_0_L2C_acc_level_2 4
Core_0_L2C_acc_level_3 44
Core_0_L2C_acc_level_4 144
Core_0_L2C_acc_level_5 533
Core_0_L2C_acc_level_6 1620
Core_0_L2C_acc_level_7 4345
Core_0_L2C_acc_level_8 11125
Core_0_L2C_acc_level_9 41728

Core_0_LLC_total_access 1661973
Core_0_LLC_total_hit 105858
Core_0_LLC_total_miss 1556115
Core_0_LLC_loads 29646
Core_0_LLC_load_hit 87
Core_0_LLC_load_miss 29559
Core_0_LLC_RFOs 268380
Core_0_LLC_RFO_hit 0
Core_0_LLC_RFO_miss 268380
Core_0_LLC_prefetches 962251
Core_0_LLC_prefetch_hit 755
Core_0_LLC_prefetch_miss 961496
Core_0_LLC_writebacks 401696
Core_0_LLC_writeback_hit 105016
Core_0_LLC_writeback_miss 296680
Core_0_LLC_prefetch_requested 0
Core_0_LLC_prefetch_dropped 0
Core_0_LLC_prefetch_issued 0
Core_0_LLC_prefetch_filled 1067752
Core_0_LLC_prefetch_useful 14
Core_0_LLC_prefetch_useless 1052095
Core_0_LLC_prefetch_late 0
Core_0_LLC_average_miss_latency 272.47658

Core_0_LLC_rq_access 298027
Core_0_LLC_rq_forward 0
Core_0_LLC_rq_merged 0
Core_0_LLC_rq_to_cache 298027
Core_0_LLC_rq_full 0

Core_0_LLC_wq_access 401696
Core_0_LLC_wq_forward 0
Core_0_LLC_wq_merged 0
Core_0_LLC_wq_to_cache 401696
Core_0_LLC_wq_full 0

Core_0_LLC_pq_access 1068657
Core_0_LLC_pq_forward 0
Core_0_LLC_pq_merged 0
Core_0_LLC_pq_to_cache 1068657
Core_0_LLC_pq_full 0

Core_0_LLC_acc_epochs 62254
Core_0_LLC_acc_level_0 62254
Core_0_LLC_acc_level_1 0
Core_0_LLC_acc_level_2 0
Core_0_LLC_acc_level_3 0
Core_0_LLC_acc_level_4 0
Core_0_LLC_acc_level_5 0
Core_0_LLC_acc_level_6 0
Core_0_LLC_acc_level_7 0
Core_0_LLC_acc_level_8 0
Core_0_LLC_acc_level_9 0

Core_0_major_page_fault 0
Core_0_minor_page_fault 19556

scooby_st_lookup 1287645
scooby_st_hit 1260938
scooby_st_evict 26643
scooby_st_insert 26707
scooby_st_streaming 0

scooby_predict_called 1287645
scooby_predict_out_of_bounds 20233
scooby_predict_action_1 1259510
scooby_predict_issue_action_1 1258109
scooby_predict_hit_action_1 1401
scooby_predict_out_of_bounds_action_1 19816
scooby_predict_action_3 817
scooby_predict_issue_action_3 213
scooby_predict_hit_action_3 604
scooby_predict_out_of_bounds_action_3 7
scooby_predict_action_4 1002
scooby_predict_issue_action_4 492
scooby_predict_hit_action_4 510
scooby_predict_out_of_bounds_action_4 5
scooby_predict_action_5 495
scooby_predict_issue_action_5 180
scooby_predict_hit_action_5 315
scooby_predict_out_of_bounds_action_5 9
scooby_predict_action_10 1095
scooby_predict_issue_action_10 1095
scooby_predict_hit_action_10 0
scooby_predict_out_of_bounds_action_10 31
scooby_predict_action_11 160
scooby_predict_issue_action_11 160
scooby_predict_hit_action_11 0
scooby_predict_out_of_bounds_action_11 31
scooby_predict_action_12 583
scooby_predict_issue_action_12 165
scooby_predict_hit_action_12 418
scooby_predict_out_of_bounds_action_12 31
scooby_predict_action_22 140
scooby_predict_issue_action_22 140
scooby_predict_hit_action_22 0
scooby_predict_out_of_bounds_action_22 61
scooby_predict_action_23 127
scooby_predict_issue_action_23 127
scooby_predict_hit_action_23 0
scooby_predict_out_of_bounds_action_23 67
scooby_predict_action_30 122
scooby_predict_issue_action_30 113
scooby_predict_hit_action_30 9
scooby_predict_out_of_bounds_action_30 79
scooby_predict_action_32 91
scooby_predict_issue_action_32 85
scooby_predict_hit_action_32 6
scooby_predict_out_of_bounds_action_32 77
scooby_predict_action_-1 1268
scooby_predict_issue_action_-1 672
scooby_predict_hit_action_-1 596
scooby_predict_out_of_bounds_action_-1 0
scooby_predict_action_-3 515
scooby_predict_issue_action_-3 42
scooby_predict_hit_action_-3 473
scooby_predict_out_of_bounds_action_-3 9
scooby_predict_action_-6 507
scooby_predict_issue_action_-6 48
scooby_predict_hit_action_-6 459
scooby_predict_out_of_bounds_action_-6 10
scooby_predict_action_0 980
scooby_predict_issue_action_0 0
scooby_predict_hit_action_0 0
scooby_predict_out_of_bounds_action_0 0
scooby_predict_multi_deg_called 1169908
scooby_predict_predicted 6382633
scooby_predict_multi_deg 5120992
scooby_predict_multi_deg_2 1150704
scooby_predict_multi_deg_3 1080912
scooby_predict_multi_deg_4 1062032
scooby_predict_multi_deg_5 922642
scooby_predict_multi_deg_6 904702
scooby_predict_multi_deg_7 0
scooby_predict_multi_deg_8 0
scooby_predict_multi_deg_9 0
scooby_predict_multi_deg_10 0
scooby_predict_multi_deg_11 0
scooby_predict_multi_deg_12 0
scooby_predict_multi_deg_13 0
scooby_predict_multi_deg_14 0
scooby_predict_multi_deg_15 0
scooby_predict_multi_deg_16 0

scooby_selected_deg_1 91733
scooby_selected_deg_2 51371
scooby_selected_deg_3 0
scooby_selected_deg_4 124623
scooby_selected_deg_5 0
scooby_selected_deg_6 993914
scooby_selected_deg_7 0
scooby_selected_deg_8 0
scooby_selected_deg_9 0
scooby_selected_deg_10 0
scooby_selected_deg_11 0
scooby_selected_deg_12 0
scooby_selected_deg_13 0
scooby_selected_deg_14 0
scooby_selected_deg_15 0
scooby_selected_deg_16 0

scooby_state_459b1f|0|0 519,0,0,0,0,0,0,0,0,0,0,0,0,0,1,520,
scooby_state_459936|0|0 520,0,0,0,0,0,0,0,0,0,0,0,0,0,0,520,
scooby_state_459969|0|0 519,0,0,1,0,0,0,0,0,0,0,0,0,0,0,520,
scooby_state_45a0be|0|0 518,0,0,0,0,0,0,2,0,0,0,0,0,0,0,520,
scooby_state_45993b|0|0 518,0,0,0,0,1,0,0,1,0,0,0,0,0,0,520,
scooby_state_45b266|0|0 518,1,0,0,0,0,0,0,0,0,1,0,0,0,0,520,
scooby_state_459958|0|0 519,0,0,0,0,0,0,1,0,0,0,0,0,0,0,520,
scooby_state_459920|0|0 519,1,0,0,0,0,0,0,0,0,0,0,0,0,0,520,
scooby_state_459c0c|0|0 518,0,0,0,0,0,0,0,0,0,1,0,0,0,0,519,
scooby_state_45b375|0|0 518,0,0,0,0,0,0,0,0,0,0,0,1,0,0,519,
scooby_state_459f0e|37|1 517,0,0,0,0,0,0,0,0,0,0,0,1,0,0,518,
scooby_state_45ae77|36|1 517,1,0,0,0,0,0,0,0,0,0,0,0,0,0,518,
scooby_state_45b250|13|1 516,0,0,0,0,0,0,0,0,1,0,0,1,0,0,518,
scooby_state_459f0e|16|1 517,0,0,0,0,0,0,0,0,0,1,0,0,0,0,518,
scooby_state_45ae77|35|1 517,0,0,0,0,1,0,0,0,0,0,0,0,0,0,518,
scooby_state_459b10|26|1 516,0,0,0,0,1,0,0,1,0,0,0,0,0,0,518,
scooby_state_459b10|45|1 518,0,0,0,0,0,0,0,0,0,0,0,0,0,0,518,
scooby_state_45ae71|36|1 514,0,0,0,0,0,0,1,0,1,0,2,0,0,0,518,
scooby_state_459b10|35|1 516,0,0,0,0,0,0,0,0,0,0,1,0,0,1,518,
scooby_state_459f0e|38|1 518,0,0,0,0,0,0,0,0,0,0,0,0,0,0,518,
scooby_state_45b250|19|1 517,1,0,0,0,0,0,0,0,0,0,0,0,0,0,518,
scooby_state_45b250|14|1 517,0,0,0,0,0,0,0,1,0,0,0,0,0,0,518,
scooby_state_45b250|40|1 518,0,0,0,0,0,0,0,0,0,0,0,0,0,0,518,
scooby_state_45b25c|32|1 516,0,1,0,0,0,0,0,0,0,0,1,0,0,0,518,
scooby_state_459b10|3|1 518,0,0,0,0,0,0,0,0,0,0,0,0,0,0,518,
scooby_state_45b250|36|1 516,1,0,0,0,0,0,0,0,0,0,0,0,1,0,518,
scooby_state_45ae77|6|1 516,0,0,0,0,0,0,0,0,1,0,0,0,1,0,518,
scooby_state_459b10|44|1 518,0,0,0,0,0,0,0,0,0,0,0,0,0,0,518,
scooby_state_45b250|1|1 518,0,0,0,0,0,0,0,0,0,0,0,0,0,0,518,
scooby_state_45b250|37|1 515,0,0,0,2,0,0,0,0,0,0,0,0,1,0,518,
scooby_state_459f0e|39|1 517,0,0,0,0,0,1,0,0,0,0,0,0,0,0,518,
scooby_state_45ae77|44|1 516,0,0,0,0,0,0,0,0,1,0,0,0,1,0,518,
scooby_state_45b250|39|1 518,0,0,0,0,0,0,0,0,0,0,0,0,0,0,518,
scooby_state_459b10|46|1 518,0,0,0,0,0,0,0,0,0,0,0,0,0,0,518,
scooby_state_45b250|20|1 518,0,0,0,0,0,0,0,0,0,0,0,0,0,0,518,
scooby_state_459b10|40|1 517,0,0,0,0,0,0,0,0,0,1,0,0,0,0,518,
scooby_state_459b10|39|1 517,0,1,0,0,0,0,0,0,0,0,0,0,0,0,518,
scooby_state_45ae77|10|1 518,0,0,0,0,0,0,0,0,0,0,0,0,0,0,518,
scooby_state_45b250|35|1 517,0,0,0,0,0,0,0,0,0,0,0,0,0,1,518,
scooby_state_45b250|38|1 518,0,0,0,0,0,0,0,0,0,0,0,0,0,0,518,
scooby_state_45ae71|24|1 515,0,0,0,0,0,0,0,0,0,0,2,0,0,1,518,
scooby_state_45b250|43|1 518,0,0,0,0,0,0,0,0,0,0,0,0,0,0,518,
scooby_state_459b10|53|1 517,0,0,0,1,0,0,0,0,0,0,0,0,0,0,518,
scooby_state_459b10|21|1 516,0,0,0,0,0,0,0,0,0,0,0,0,1,1,518,
scooby_state_459b10|17|1 516,0,0,0,0,0,0,1,0,0,1,0,0,0,0,518,
scooby_state_45ae77|25|1 518,0,0,0,0,0,0,0,0,0,0,0,0,0,0,518,
scooby_state_459b10|43|1 518,0,0,0,0,0,0,0,0,0,0,0,0,0,0,518,
scooby_state_459f0e|56|1 518,0,0,0,0,0,0,0,0,0,0,0,0,0,0,518,
scooby_state_459b10|38|1 518,0,0,0,0,0,0,0,0,0,0,0,0,0,0,518,
scooby_state_459b10|57|1 518,0,0,0,0,0,0,0,0,0,0,0,0,0,0,518,
scooby_state_45b250|8|1 518,0,0,0,0,0,0,0,0,0,0,0,0,0,0,518,
scooby_state_459b10|51|1 518,0,0,0,0,0,0,0,0,0,0,0,0,0,0,518,
scooby_state_45b250|61|1 517,1,0,0,0,0,0,0,0,0,0,0,0,0,0,518,
scooby_state_459f0e|17|1 518,0,0,0,0,0,0,0,0,0,0,0,0,0,0,518,
scooby_state_45b250|12|1 517,0,0,1,0,0,0,0,0,0,0,0,0,0,0,518,
scooby_state_45b250|22|1 518,0,0,0,0,0,0,0,0,0,0,0,0,0,0,518,
scooby_state_45ae77|46|1 516,0,0,0,0,1,1,0,0,0,0,0,0,0,0,518,
scooby_state_45ae77|63|1 518,0,0,0,0,0,0,0,0,0,0,0,0,0,0,518,
scooby_state_45ae77|56|1 517,0,0,1,0,0,0,0,0,0,0,0,0,0,0,518,
scooby_state_45ae71|30|1 515,1,0,0,0,0,0,0,0,0,0,2,0,0,0,518,
scooby_state_45b250|15|1 516,0,0,0,0,0,1,0,1,0,0,0,0,0,0,518,
scooby_state_45ae77|1|1 518,0,0,0,0,0,0,0,0,0,0,0,0,0,0,518,
scooby_state_45ae77|7|1 517,0,0,0,0,0,0,0,0,0,0,0,1,0,0,518,
scooby_state_45ae77|30|1 517,0,0,0,0,0,0,0,1,0,0,0,0,0,0,518,
scooby_state_45ae77|12|1 517,0,0,1,0,0,0,0,0,0,0,0,0,0,0,518,
scooby_state_459f0e|20|1 518,0,0,0,0,0,0,0,0,0,0,0,0,0,0,518,
scooby_state_459b10|2|1 517,0,0,0,0,0,0,0,0,0,0,0,0,1,0,518,
scooby_state_459b10|37|1 516,0,0,0,1,0,0,0,1,0,0,0,0,0,0,518,
scooby_state_45ae71|29|1 515,1,0,0,0,0,0,0,0,0,0,2,0,0,0,518,
scooby_state_45ae77|51|1 517,0,0,1,0,0,0,0,0,0,0,0,0,0,0,518,
scooby_state_459f0e|27|1 518,0,0,0,0,0,0,0,0,0,0,0,0,0,0,518,
scooby_state_45b250|60|1 517,0,0,0,0,0,0,0,0,1,0,0,0,0,0,518,
scooby_state_45b250|2|1 517,0,0,0,0,1,0,0,0,0,0,0,0,0,0,518,
scooby_state_45b250|24|1 517,0,0,0,0,0,0,0,0,1,0,0,0,0,0,518,
scooby_state_45ae77|49|1 518,0,0,0,0,0,0,0,0,0,0,0,0,0,0,518,
scooby_state_459b10|24|1 517,0,0,0,0,1,0,0,0,0,0,0,0,0,0,518,
scooby_state_459b10|10|1 518,0,0,0,0,0,0,0,0,0,0,0,0,0,0,518,
scooby_state_45ae77|2|1 516,0,0,1,0,0,0,0,1,0,0,0,0,0,0,518,
scooby_state_459f0e|61|1 518,0,0,0,0,0,0,0,0,0,0,0,0,0,0,518,
scooby_state_45ae77|5|1 517,0,0,1,0,0,0,0,0,0,0,0,0,0,0,518,
scooby_state_459b10|42|1 518,0,0,0,0,0,0,0,0,0,0,0,0,0,0,518,
scooby_state_45ae77|59|1 518,0,0,0,0,0,0,0,0,0,0,0,0,0,0,518,
scooby_state_45ae77|58|1 517,0,0,1,0,0,0,0,0,0,0,0,0,0,0,518,
scooby_state_459b10|12|1 516,0,0,0,0,0,0,0,0,0,0,0,1,0,1,518,
scooby_state_459b10|11|1 517,0,0,0,0,0,0,0,0,0,0,0,1,0,0,518,
scooby_state_45ae77|60|1 518,0,0,0,0,0,0,0,0,0,0,0,0,0,0,518,
scooby_state_45ae77|57|1 517,0,0,0,0,0,0,0,1,0,0,0,0,0,0,518,
scooby_state_459b10|9|1 516,1,0,0,0,1,0,0,0,0,0,0,0,0,0,518,
scooby_state_45b250|34|1 517,0,1,0,0,0,0,0,0,0,0,0,0,0,0,518,
scooby_state_459f0e|47|1 517,0,0,0,0,1,0,0,0,0,0,0,0,0,0,518,
scooby_state_459b10|60|1 517,0,0,0,0,0,0,1,0,0,0,0,0,0,0,518,
scooby_state_459b10|8|1 517,0,0,0,0,0,0,0,0,0,1,0,0,0,0,518,
scooby_state_459b10|6|1 517,0,0,0,0,0,0,0,0,0,0,0,1,0,0,518,
scooby_state_45b25c|22|1 518,0,0,0,0,0,0,0,0,0,0,0,0,0,0,518,
scooby_state_459f0e|50|1 518,0,0,0,0,0,0,0,0,0,0,0,0,0,0,518,
scooby_state_459b10|25|1 517,0,0,0,0,0,0,0,0,0,0,1,0,0,0,518,
scooby_state_459b10|7|1 517,0,0,0,0,0,0,0,1,0,0,0,0,0,0,518,
scooby_state_459b10|19|1 515,0,1,0,0,0,0,0,0,0,1,0,0,1,0,518,
scooby_state_459b10|27|1 518,0,0,0,0,0,0,0,0,0,0,0,0,0,0,518,
scooby_state_45b250|18|1 518,0,0,0,0,0,0,0,0,0,0,0,0,0,0,518,
scooby_state_459f0e|60|1 517,0,0,0,0,0,0,0,0,1,0,0,0,0,0,518,
scooby_state_459b10|30|1 516,0,0,0,0,0,2,0,0,0,0,0,0,0,0,518,
scooby_state_45ae77|11|1 517,1,0,0,0,0,0,0,0,0,0,0,0,0,0,518,
scooby_state_45b250|41|1 518,0,0,0,0,0,0,0,0,0,0,0,0,0,0,518,
scooby_state_459b10|32|1 518,0,0,0,0,0,0,0,0,0,0,0,0,0,0,518,
scooby_state_45b250|63|1 516,0,0,0,0,0,0,0,0,0,0,0,0,2,0,518,
scooby_state_459b10|15|1 518,0,0,0,0,0,0,0,0,0,0,0,0,0,0,518,
scooby_state_459f0e|26|1 516,0,0,0,1,0,1,0,0,0,0,0,0,0,0,518,
scooby_state_459b10|14|1 517,0,0,0,0,0,0,0,1,0,0,0,0,0,0,518,
scooby_state_459b10|29|1 516,0,0,0,0,0,0,0,1,0,1,0,0,0,0,518,
scooby_state_45ae77|8|1 516,0,0,0,0,0,0,1,0,0,0,0,0,1,0,518,
scooby_state_459b10|49|1 517,1,0,0,0,0,0,0,0,0,0,0,0,0,0,518,
scooby_state_45ae77|13|1 517,0,0,0,0,0,0,0,0,0,0,0,0,0,1,518,
scooby_state_459b10|56|1 518,0,0,0,0,0,0,0,0,0,0,0,0,0,0,518,
scooby_state_459b10|52|1 518,0,0,0,0,0,0,0,0,0,0,0,0,0,0,518,
scooby_state_45b250|44|1 516,0,0,0,0,0,0,0,1,0,0,0,0,0,1,518,
scooby_state_45b250|46|1 518,0,0,0,0,0,0,0,0,0,0,0,0,0,0,518,
scooby_state_459f0e|32|1 517,0,0,0,0,0,0,0,0,0,1,0,0,0,0,518,
scooby_state_459b10|62|1 517,0,0,0,0,0,0,0,0,0,0,1,0,0,0,518,
scooby_state_459f0e|55|1 515,0,0,0,0,2,0,0,0,0,0,1,0,0,0,518,
scooby_state_459f0e|33|1 516,0,0,0,0,0,0,0,0,0,0,1,1,0,0,518,
scooby_state_45ae77|29|1 518,0,0,0,0,0,0,0,0,0,0,0,0,0,0,518,
scooby_state_459f0e|0|0 518,0,0,0,0,0,0,0,0,0,0,0,0,0,0,518,
scooby_state_45b250|16|1 517,0,0,0,0,0,0,0,0,0,0,0,0,1,0,518,
scooby_state_459b10|13|1 518,0,0,0,0,0,0,0,0,0,0,0,0,0,0,518,
scooby_state_459f0e|42|1 517,1,0,0,0,0,0,0,0,0,0,0,0,0,0,518,
scooby_state_45ae77|42|1 518,0,0,0,0,0,0,0,0,0,0,0,0,0,0,518,
scooby_state_459b10|28|1 518,0,0,0,0,0,0,0,0,0,0,0,0,0,0,518,
scooby_state_459f0e|23|1 515,0,0,0,0,0,0,1,0,0,1,1,0,0,0,518,
scooby_state_45ae77|53|1 515,0,1,0,0,0,1,1,0,0,0,0,0,0,0,518,
scooby_state_45ae77|45|1 518,0,0,0,0,0,0,0,0,0,0,0,0,0,0,518,
scooby_state_459b10|5|1 517,0,0,0,0,0,0,0,0,1,0,0,0,0,0,518,
scooby_state_459b10|50|1 516,1,0,0,0,1,0,0,0,0,0,0,0,0,0,518,
scooby_state_459f0e|22|1 518,0,0,0,0,0,0,0,0,0,0,0,0,0,0,518,
scooby_state_45ae77|54|1 518,0,0,0,0,0,0,0,0,0,0,0,0,0,0,518,
scooby_state_459b10|4|1 516,0,1,0,0,0,1,0,0,0,0,0,0,0,0,518,
scooby_state_459b10|1|1 517,0,0,0,0,0,0,0,0,0,1,0,0,0,0,518,
scooby_state_45b25c|24|1 517,0,0,0,0,0,0,0,0,0,1,0,0,0,0,518,
scooby_state_45b250|6|1 518,0,0,0,0,0,0,0,0,0,0,0,0,0,0,518,
scooby_state_459b10|0|0 515,0,1,0,0,0,0,1,0,1,0,0,0,0,0,518,
scooby_state_45ae77|3|1 517,0,0,0,1,0,0,0,0,0,0,0,0,0,0,518,
scooby_state_459f0e|52|1 516,0,0,1,0,0,0,0,0,0,0,1,0,0,0,518,
scooby_state_45b25c|30|1 517,0,0,1,0,0,0,0,0,0,0,0,0,0,0,518,
scooby_state_45ae77|24|1 516,0,0,0,1,0,0,0,0,0,0,1,0,0,0,518,
scooby_state_459b10|59|1 517,0,0,0,0,0,0,0,0,0,0,0,0,1,0,518,
scooby_state_459b10|22|1 518,0,0,0,0,0,0,0,0,0,0,0,0,0,0,518,
scooby_state_45b25c|25|1 518,0,0,0,0,0,0,0,0,0,0,0,0,0,0,518,
scooby_state_459f0e|6|1 518,0,0,0,0,0,0,0,0,0,0,0,0,0,0,518,
scooby_state_459b10|36|1 518,0,0,0,0,0,0,0,0,0,0,0,0,0,0,518,
scooby_state_459f0e|4|1 518,0,0,0,0,0,0,0,0,0,0,0,0,0,0,518,
scooby_state_459f0e|40|1 516,0,1,0,0,0,1,0,0,0,0,0,0,0,0,518,
scooby_state_459f0e|2|1 516,0,0,0,1,0,0,0,0,0,0,0,0,1,0,518,
scooby_state_45b250|32|1 517,0,0,0,0,0,0,0,0,0,0,1,0,0,0,518,
scooby_state_459f0e|1|1 518,0,0,0,0,0,0,0,0,0,0,0,0,0,0,518,
scooby_state_459f0e|24|1 517,0,0,1,0,0,0,0,0,0,0,0,0,0,0,518,
scooby_state_459f0e|63|1 517,0,0,0,0,0,1,0,0,0,0,0,0,0,0,518,
scooby_state_459f0e|62|1 517,0,0,0,0,0,0,0,0,0,0,0,0,0,1,518,
scooby_state_45b250|26|1 517,0,0,0,0,0,0,0,0,1,0,0,0,0,0,518,
scooby_state_459f0e|59|1 518,0,0,0,0,0,0,0,0,0,0,0,0,0,0,518,
scooby_state_459f0e|58|1 517,0,0,0,1,0,0,0,0,0,0,0,0,0,0,518,
scooby_state_45b250|42|1 517,0,0,0,0,0,0,0,0,0,0,0,0,1,0,518,
scooby_state_459b10|34|1 518,0,0,0,0,0,0,0,0,0,0,0,0,0,0,518,
scooby_state_45b25c|4|1 516,0,1,0,0,0,0,1,0,0,0,0,0,0,0,518,
scooby_state_459f0e|10|1 517,0,0,0,0,0,0,0,1,0,0,0,0,0,0,518,
scooby_state_45b250|29|1 518,0,0,0,0,0,0,0,0,0,0,0,0,0,0,518,
scooby_state_45b250|30|1 517,1,0,0,0,0,0,0,0,0,0,0,0,0,0,518,
scooby_state_45ae77|4|1 516,0,0,1,0,1,0,0,0,0,0,0,0,0,0,518,
scooby_state_459b10|55|1 518,0,0,0,0,0,0,0,0,0,0,0,0,0,0,518,
scooby_state_45b250|7|1 517,0,0,0,0,0,0,0,0,0,0,1,0,0,0,518,
scooby_state_45ae77|62|1 518,0,0,0,0,0,0,0,0,0,0,0,0,0,0,518,
scooby_state_459f0e|36|1 518,0,0,0,0,0,0,0,0,0,0,0,0,0,0,518,
scooby_state_459f0e|57|1 516,0,0,0,0,0,0,0,0,0,1,1,0,0,0,518,
scooby_state_45b250|10|1 517,0,0,0,0,0,0,0,0,0,0,0,1,0,0,518,
scooby_state_45b25c|26|1 518,0,0,0,0,0,0,0,0,0,0,0,0,0,0,518,
scooby_state_459f0e|28|1 517,1,0,0,0,0,0,0,0,0,0,0,0,0,0,518,
scooby_state_459f0e|53|1 518,0,0,0,0,0,0,0,0,0,0,0,0,0,0,518,
scooby_state_45b250|31|1 516,0,0,0,0,1,0,0,0,0,0,0,0,0,1,518,
scooby_state_459b10|63|1 518,0,0,0,0,0,0,0,0,0,0,0,0,0,0,518,
scooby_state_459f0e|5|1 517,1,0,0,0,0,0,0,0,0,0,0,0,0,0,518,
scooby_state_459f0e|19|1 517,0,1,0,0,0,0,0,0,0,0,0,0,0,0,518,
scooby_state_459b10|58|1 517,0,0,0,0,0,0,1,0,0,0,0,0,0,0,518,
scooby_state_45b250|28|1 517,0,0,0,0,0,0,0,0,0,0,0,1,0,0,518,
scooby_state_45b250|54|1 517,0,0,1,0,0,0,0,0,0,0,0,0,0,0,518,
scooby_state_459f0e|21|1 518,0,0,0,0,0,0,0,0,0,0,0,0,0,0,518,
scooby_state_45b25c|23|1 518,0,0,0,0,0,0,0,0,0,0,0,0,0,0,518,
scooby_state_459f0e|18|1 517,0,0,0,0,1,0,0,0,0,0,0,0,0,0,518,
scooby_state_45b250|52|1 518,0,0,0,0,0,0,0,0,0,0,0,0,0,0,518,
scooby_state_459b10|16|1 518,0,0,0,0,0,0,0,0,0,0,0,0,0,0,518,
scooby_state_459b10|23|1 516,1,0,0,0,0,0,0,0,0,0,1,0,0,0,518,
scooby_state_45ae77|26|1 518,0,0,0,0,0,0,0,0,0,0,0,0,0,0,518,
scooby_state_45b250|53|1 517,0,0,0,0,0,0,0,1,0,0,0,0,0,0,518,
scooby_state_459f0e|15|1 518,0,0,0,0,0,0,0,0,0,0,0,0,0,0,518,
scooby_state_459f0e|3|1 518,0,0,0,0,0,0,0,0,0,0,0,0,0,0,518,
scooby_state_459f0e|54|1 516,0,0,0,1,0,0,0,1,0,0,0,0,0,0,518,
scooby_state_45b25c|6|1 518,0,0,0,0,0,0,0,0,0,0,0,0,0,0,518,
scooby_state_459f0e|25|1 517,0,0,0,0,0,0,1,0,0,0,0,0,0,0,518,
scooby_state_459f0e|14|1 517,0,1,0,0,0,0,0,0,0,0,0,0,0,0,518,
scooby_state_45ae77|55|1 518,0,0,0,0,0,0,0,0,0,0,0,0,0,0,518,
scooby_state_459f0e|13|1 518,0,0,0,0,0,0,0,0,0,0,0,0,0,0,518,
scooby_state_45b250|45|1 518,0,0,0,0,0,0,0,0,0,0,0,0,0,0,518,
scooby_state_45b250|11|1 517,0,1,0,0,0,0,0,0,0,0,0,0,0,0,518,
scooby_state_459f0e|11|1 516,1,0,0,0,0,0,0,1,0,0,0,0,0,0,518,
scooby_state_45b250|56|1 515,0,0,0,1,1,0,1,0,0,0,0,0,0,0,518,
scooby_state_459f0e|9|1 515,0,0,1,0,0,0,0,0,0,1,0,0,0,1,518,
scooby_state_459b10|48|1 517,0,0,0,0,0,0,0,0,0,0,1,0,0,0,518,
scooby_state_459b10|31|1 518,0,0,0,0,0,0,0,0,0,0,0,0,0,0,518,
scooby_state_459f0e|8|1 515,1,0,0,0,0,0,0,1,0,0,0,0,1,0,518,
scooby_state_45b250|49|1 518,0,0,0,0,0,0,0,0,0,0,0,0,0,0,518,
scooby_state_459f0e|7|1 518,0,0,0,0,0,0,0,0,0,0,0,0,0,0,518,
scooby_state_45b250|27|1 517,0,0,0,0,0,0,0,1,0,0,0,0,0,0,518,
scooby_state_45b250|50|1 517,0,0,0,0,0,0,0,0,0,0,0,0,1,0,518,
scooby_state_45b250|62|1 517,0,0,0,0,0,0,0,0,0,1,0,0,0,0,518,
scooby_state_45b250|21|1 517,0,0,0,1,0,0,0,0,0,0,0,0,0,0,518,
scooby_state_459f0e|44|1 517,0,0,0,0,0,1,0,0,0,0,0,0,0,0,518,
scooby_state_459f0e|30|1 517,0,0,0,0,0,0,0,0,0,0,0,1,0,0,518,
scooby_state_459f0e|43|1 517,0,0,0,0,0,1,0,0,0,0,0,0,0,0,518,
scooby_state_45b250|3|1 518,0,0,0,0,0,0,0,0,0,0,0,0,0,0,518,
scooby_state_45b250|51|1 518,0,0,0,0,0,0,0,0,0,0,0,0,0,0,518,
scooby_state_45b250|9|1 516,0,0,0,1,0,0,0,0,0,0,1,0,0,0,518,
scooby_state_45ae77|48|1 517,0,1,0,0,0,0,0,0,0,0,0,0,0,0,518,
scooby_state_45b250|58|1 517,0,0,0,0,0,0,0,0,0,0,0,1,0,0,518,
scooby_state_459f0e|41|1 516,0,0,0,0,0,0,0,0,0,0,0,0,1,1,518,
scooby_state_45b250|0|0 516,0,0,0,0,1,0,0,1,0,0,0,0,0,0,518,
scooby_state_45b250|5|1 517,0,0,0,0,1,0,0,0,0,0,0,0,0,0,518,
scooby_state_45b250|23|1 518,0,0,0,0,0,0,0,0,0,0,0,0,0,0,518,
scooby_state_459f0e|48|1 517,0,0,0,0,0,0,0,0,0,0,1,0,0,0,518,
scooby_state_459b10|20|1 517,0,0,0,0,0,1,0,0,0,0,0,0,0,0,518,
scooby_state_45b250|25|1 518,0,0,0,0,0,0,0,0,0,0,0,0,0,0,518,
scooby_state_45ae71|23|1 515,0,0,0,0,0,0,0,0,1,0,2,0,0,0,518,
scooby_state_459f0e|31|1 518,0,0,0,0,0,0,0,0,0,0,0,0,0,0,518,
scooby_state_45ae77|17|1 515,0,0,0,1,0,1,1,0,0,0,0,0,0,0,518,
scooby_state_45ae77|61|1 518,0,0,0,0,0,0,0,0,0,0,0,0,0,0,518,
scooby_state_45ae71|35|1 516,0,0,0,0,0,0,0,0,0,0,2,0,0,0,518,
scooby_state_459b10|61|1 518,0,0,0,0,0,0,0,0,0,0,0,0,0,0,518,
scooby_state_45ae77|47|1 518,0,0,0,0,0,0,0,0,0,0,0,0,0,0,518,
scooby_state_459b10|18|1 518,0,0,0,0,0,0,0,0,0,0,0,0,0,0,518,
scooby_state_45ae77|43|1 518,0,0,0,0,0,0,0,0,0,0,0,0,0,0,518,
scooby_state_45b250|48|1 515,1,0,0,0,0,1,0,0,0,0,0,1,0,0,518,
scooby_state_45b25c|5|1 517,0,1,0,0,0,0,0,0,0,0,0,0,0,0,518,
scooby_state_45b250|47|1 517,0,0,0,0,0,0,0,0,0,1,0,0,0,0,518,
scooby_state_459f0e|12|1 517,0,0,0,0,0,0,0,0,0,0,0,0,1,0,518,
scooby_state_45b250|59|1 516,0,0,0,1,0,0,1,0,0,0,0,0,0,0,518,
scooby_state_459f0e|46|1 518,0,0,0,0,0,0,0,0,0,0,0,0,0,0,518,
scooby_state_45b250|4|1 518,0,0,0,0,0,0,0,0,0,0,0,0,0,0,518,
scooby_state_459f0e|35|1 518,0,0,0,0,0,0,0,0,0,0,0,0,0,0,518,
scooby_state_45b25c|27|1 517,0,0,0,0,0,0,0,1,0,0,0,0,0,0,518,
scooby_state_45ae77|23|1 517,0,0,0,0,0,0,0,0,0,0,1,0,0,0,518,
scooby_state_45b25c|3|1 516,0,1,0,0,0,0,0,0,1,0,0,0,0,0,518,
scooby_state_459f0e|34|1 518,0,0,0,0,0,0,0,0,0,0,0,0,0,0,518,
scooby_state_459f0e|49|1 516,0,0,1,0,0,0,0,0,1,0,0,0,0,0,518,
scooby_state_459b10|41|1 517,0,0,0,0,0,0,0,0,0,0,0,1,0,0,518,
scooby_state_45b25c|28|1 518,0,0,0,0,0,0,0,0,0,0,0,0,0,0,518,
scooby_state_45ae77|18|1 517,0,0,1,0,0,0,0,0,0,0,0,0,0,0,518,
scooby_state_45ae77|52|1 517,0,0,0,0,0,0,0,0,0,0,0,0,0,1,518,
scooby_state_45ae77|50|1 517,0,0,0,0,0,0,0,0,0,0,0,0,1,0,518,
scooby_state_459b10|47|1 517,0,0,0,0,0,0,0,0,0,0,0,0,0,1,518,
scooby_state_45ae77|9|1 518,0,0,0,0,0,0,0,0,0,0,0,0,0,0,518,
scooby_state_45b250|57|1 517,0,0,0,0,0,0,0,0,0,0,0,0,0,1,518,
scooby_state_459f0e|45|1 516,0,0,0,0,0,0,2,0,0,0,0,0,0,0,518,
scooby_state_459b10|54|1 518,0,0,0,0,0,0,0,0,0,0,0,0,0,0,518,
scooby_state_45b250|55|1 518,0,0,0,0,0,0,0,0,0,0,0,0,0,0,518,
scooby_state_45b25c|31|1 518,0,0,0,0,0,0,0,0,0,0,0,0,0,0,518,
scooby_state_459f0e|29|1 517,0,0,0,0,0,0,0,0,0,0,1,0,0,0,518,
scooby_state_45b250|17|1 516,0,0,0,0,1,0,0,0,1,0,0,0,0,0,518,
scooby_state_459f0e|51|1 514,0,1,0,1,0,0,0,1,0,0,0,0,1,0,518,
scooby_state_45b360|8|1 516,0,0,0,0,0,0,0,0,1,0,0,0,0,0,517,
scooby_state_45b360|62|1 515,1,0,0,0,0,0,0,0,0,0,0,0,0,1,517,
scooby_state_459c00|25|1 517,0,0,0,0,0,0,0,0,0,0,0,0,0,0,517,
scooby_state_459c00|33|1 517,0,0,0,0,0,0,0,0,0,0,0,0,0,0,517,
scooby_state_45b360|18|1 516,0,0,0,1,0,0,0,0,0,0,0,0,0,0,517,
scooby_state_45ae77|40|1 516,0,0,0,0,1,0,0,0,0,0,0,0,0,0,517,
scooby_state_459c00|5|1 517,0,0,0,0,0,0,0,0,0,0,0,0,0,0,517,
scooby_state_45b360|47|1 516,0,0,0,0,0,0,0,0,0,0,0,1,0,0,517,
scooby_state_45b36a|16|1 516,1,0,0,0,0,0,0,0,0,0,0,0,0,0,517,
scooby_state_45b36a|52|1 515,0,0,0,0,0,0,0,0,1,1,0,0,0,0,517,
scooby_state_45b360|0|0 515,0,0,0,1,0,0,0,1,0,0,0,0,0,0,517,
scooby_state_459c00|52|1 516,0,0,0,0,0,0,0,0,1,0,0,0,0,0,517,
scooby_state_45b36a|41|1 514,0,0,1,0,0,0,0,1,0,1,0,0,0,0,517,
scooby_state_45b360|63|1 516,0,0,0,0,0,0,0,0,0,0,1,0,0,0,517,
scooby_state_459c00|28|1 517,0,0,0,0,0,0,0,0,0,0,0,0,0,0,517,
scooby_state_45b360|42|1 517,0,0,0,0,0,0,0,0,0,0,0,0,0,0,517,
scooby_state_45ae77|22|1 516,0,0,0,0,0,0,1,0,0,0,0,0,0,0,517,
scooby_state_45ae71|28|1 515,0,0,0,0,0,0,0,0,1,0,1,0,0,0,517,
scooby_state_459c00|27|1 517,0,0,0,0,0,0,0,0,0,0,0,0,0,0,517,
scooby_state_45ae77|21|1 515,0,0,0,0,0,1,0,0,0,0,0,0,1,0,517,
scooby_state_45b250|33|1 517,0,0,0,0,0,0,0,0,0,0,0,0,0,0,517,
scooby_state_45b36a|34|1 515,0,0,0,0,0,0,0,1,0,0,0,1,0,0,517,
scooby_state_45b360|14|1 517,0,0,0,0,0,0,0,0,0,0,0,0,0,0,517,
scooby_state_45b360|23|1 515,0,0,0,0,1,0,0,0,0,0,0,0,1,0,517,
scooby_state_45b360|41|1 517,0,0,0,0,0,0,0,0,0,0,0,0,0,0,517,
scooby_state_459c00|57|1 516,0,0,0,0,0,1,0,0,0,0,0,0,0,0,517,
scooby_state_459c00|20|1 516,0,0,0,0,0,0,0,0,1,0,0,0,0,0,517,
scooby_state_45b25c|29|1 517,0,0,0,0,0,0,0,0,0,0,0,0,0,0,517,
scooby_state_45ae77|0|0 516,1,0,0,0,0,0,0,0,0,0,0,0,0,0,517,
scooby_state_459c00|42|1 516,0,0,0,0,0,0,0,1,0,0,0,0,0,0,517,
scooby_state_45ae77|41|1 517,0,0,0,0,0,0,0,0,0,0,0,0,0,0,517,
scooby_state_45b36a|0|0 516,0,0,0,0,0,0,1,0,0,0,0,0,0,0,517,
scooby_state_45ae77|38|1 517,0,0,0,0,0,0,0,0,0,0,0,0,0,0,517,
scooby_state_45ae77|37|1 516,0,0,0,1,0,0,0,0,0,0,0,0,0,0,517,
scooby_state_45b36a|40|1 516,0,0,0,0,0,0,0,0,1,0,0,0,0,0,517,
scooby_state_459c00|14|1 516,0,0,0,0,0,0,1,0,0,0,0,0,0,0,517,
scooby_state_45b36a|51|1 515,1,0,0,0,0,0,0,0,0,0,0,1,0,0,517,
scooby_state_45b36a|7|1 516,0,0,0,0,0,0,0,0,1,0,0,0,0,0,517,
scooby_state_45ae77|33|1 516,0,0,0,0,0,0,0,0,0,0,0,0,0,1,517,
scooby_state_45ae71|27|1 515,0,0,0,0,0,0,0,0,0,0,2,0,0,0,517,
scooby_state_45ae77|31|1 515,0,0,1,0,0,0,0,0,1,0,0,0,0,0,517,
scooby_state_45ae77|19|1 515,0,1,0,1,0,0,0,0,0,0,0,0,0,0,517,
scooby_state_45b36a|49|1 516,0,0,0,0,0,0,0,1,0,0,0,0,0,0,517,
scooby_state_45b360|61|1 516,0,0,0,0,0,0,0,1,0,0,0,0,0,0,517,
scooby_state_45b36a|55|1 516,0,0,0,0,0,0,1,0,0,0,0,0,0,0,517,
scooby_state_45ae71|34|1 515,0,0,0,0,0,0,1,0,0,0,1,0,0,0,517,
scooby_state_45b360|59|1 517,0,0,0,0,0,0,0,0,0,0,0,0,0,0,517,
scooby_state_45b36a|53|1 517,0,0,0,0,0,0,0,0,0,0,0,0,0,0,517,
scooby_state_45b360|58|1 517,0,0,0,0,0,0,0,0,0,0,0,0,0,0,517,
scooby_state_459c00|11|1 517,0,0,0,0,0,0,0,0,0,0,0,0,0,0,517,
scooby_state_459c00|16|1 516,0,0,0,0,0,0,0,0,0,0,0,1,0,0,517,
scooby_state_45b36a|56|1 517,0,0,0,0,0,0,0,0,0,0,0,0,0,0,517,
scooby_state_45ae77|39|1 515,0,0,1,0,0,0,0,0,0,1,0,0,0,0,517,
scooby_state_45b36a|50|1 517,0,0,0,0,0,0,0,0,0,0,0,0,0,0,517,
scooby_state_45b360|57|1 517,0,0,0,0,0,0,0,0,0,0,0,0,0,0,517,
scooby_state_45b360|54|1 517,0,0,0,0,0,0,0,0,0,0,0,0,0,0,517,
scooby_state_45b36a|5|1 517,0,0,0,0,0,0,0,0,0,0,0,0,0,0,517,
scooby_state_45b360|56|1 515,0,0,0,0,2,0,0,0,0,0,0,0,0,0,517,
scooby_state_459c00|50|1 516,0,0,0,0,1,0,0,0,0,0,0,0,0,0,517,
scooby_state_45b36a|2|1 515,0,0,0,0,0,0,1,0,0,1,0,0,0,0,517,
scooby_state_45b360|15|1 516,0,0,0,0,0,0,0,0,0,0,0,1,0,0,517,
scooby_state_459c00|17|1 516,0,0,0,0,0,0,0,0,0,0,0,0,0,1,517,
scooby_state_45b36a|18|1 517,0,0,0,0,0,0,0,0,0,0,0,0,0,0,517,
scooby_state_45b360|25|1 514,0,0,0,0,0,0,2,0,0,0,1,0,0,0,517,
scooby_state_459c00|60|1 515,0,0,1,0,0,0,0,0,1,0,0,0,0,0,517,
scooby_state_45b360|27|1 517,0,0,0,0,0,0,0,0,0,0,0,0,0,0,517,
scooby_state_45b360|46|1 517,0,0,0,0,0,0,0,0,0,0,0,0,0,0,517,
scooby_state_45b36a|14|1 516,0,0,0,0,0,0,0,0,1,0,0,0,0,0,517,
scooby_state_45b360|48|1 517,0,0,0,0,0,0,0,0,0,0,0,0,0,0,517,
scooby_state_459c00|55|1 517,0,0,0,0,0,0,0,0,0,0,0,0,0,0,517,
scooby_state_45b36a|43|1 516,0,0,0,1,0,0,0,0,0,0,0,0,0,0,517,
scooby_state_45b360|49|1 515,0,1,0,0,0,0,0,1,0,0,0,0,0,0,517,
scooby_state_459c00|31|1 515,0,1,0,0,0,0,0,0,0,0,0,0,1,0,517,
scooby_state_45b360|2|1 517,0,0,0,0,0,0,0,0,0,0,0,0,0,0,517,
scooby_state_45b36a|44|1 516,0,0,0,0,0,0,0,0,0,0,0,0,1,0,517,
scooby_state_45b360|45|1 517,0,0,0,0,0,0,0,0,0,0,0,0,0,0,517,
scooby_state_459c00|63|1 516,0,0,0,0,0,1,0,0,0,0,0,0,0,0,517,
scooby_state_459c00|3|1 516,1,0,0,0,0,0,0,0,0,0,0,0,0,0,517,
scooby_state_45ae77|27|1 513,0,0,0,0,0,1,0,0,0,1,0,2,0,0,517,
scooby_state_45b360|51|1 517,0,0,0,0,0,0,0,0,0,0,0,0,0,0,517,
scooby_state_45b36a|62|1 516,0,0,0,0,1,0,0,0,0,0,0,0,0,0,517,
scooby_state_45b36a|21|1 516,0,0,0,0,0,0,1,0,0,0,0,0,0,0,517,
scooby_state_45b360|10|1 514,0,0,0,0,0,0,0,1,0,1,0,1,0,0,517,
scooby_state_459c00|22|1 517,0,0,0,0,0,0,0,0,0,0,0,0,0,0,517,
scooby_state_45ae77|15|1 516,1,0,0,0,0,0,0,0,0,0,0,0,0,0,517,
scooby_state_45b36a|58|1 517,0,0,0,0,0,0,0,0,0,0,0,0,0,0,517,
scooby_state_459c00|58|1 515,0,0,0,1,0,0,0,1,0,0,0,0,0,0,517,
scooby_state_45b360|39|1 517,0,0,0,0,0,0,0,0,0,0,0,0,0,0,517,
scooby_state_45b360|40|1 516,0,0,0,0,0,0,0,0,0,0,0,0,1,0,517,
scooby_state_45b36a|42|1 517,0,0,0,0,0,0,0,0,0,0,0,0,0,0,517,
scooby_state_45b36a|35|1 516,0,0,1,0,0,0,0,0,0,0,0,0,0,0,517,
scooby_state_45b36a|37|1 517,0,0,0,0,0,0,0,0,0,0,0,0,0,0,517,
scooby_state_45b360|16|1 517,0,0,0,0,0,0,0,0,0,0,0,0,0,0,517,
scooby_state_45b36a|38|1 516,0,0,0,0,0,0,0,0,0,1,0,0,0,0,517,
scooby_state_459c00|35|1 516,0,0,0,0,0,0,0,1,0,0,0,0,0,0,517,
scooby_state_45b36a|20|1 516,1,0,0,0,0,0,0,0,0,0,0,0,0,0,517,
scooby_state_45b360|34|1 515,0,0,0,0,0,0,0,0,0,0,0,1,0,1,517,
scooby_state_45b360|44|1 517,0,0,0,0,0,0,0,0,0,0,0,0,0,0,517,
scooby_state_459c00|29|1 514,0,0,0,0,0,0,0,0,0,2,0,0,0,1,517,
scooby_state_45b25c|8|1 517,0,0,0,0,0,0,0,0,0,0,0,0,0,0,517,
scooby_state_459c00|30|1 517,0,0,0,0,0,0,0,0,0,0,0,0,0,0,517,
scooby_state_45b25c|9|1 517,0,0,0,0,0,0,0,0,0,0,0,0,0,0,517,
scooby_state_45b36a|39|1 516,0,0,0,0,0,0,0,0,0,0,0,0,1,0,517,
scooby_state_45b360|26|1 516,0,0,0,1,0,0,0,0,0,0,0,0,0,0,517,
scooby_state_459c00|6|1 517,0,0,0,0,0,0,0,0,0,0,0,0,0,0,517,
scooby_state_45ae77|16|1 517,0,0,0,0,0,0,0,0,0,0,0,0,0,0,517,
scooby_state_45b36a|57|1 516,0,0,0,0,0,0,0,0,0,0,0,0,1,0,517,
scooby_state_459c00|1|1 517,0,0,0,0,0,0,0,0,0,0,0,0,0,0,517,
scooby_state_45b360|33|1 517,0,0,0,0,0,0,0,0,0,0,0,0,0,0,517,
scooby_state_45b360|35|1 517,0,0,0,0,0,0,0,0,0,0,0,0,0,0,517,
scooby_state_45b36a|36|1 517,0,0,0,0,0,0,0,0,0,0,0,0,0,0,517,
scooby_state_459c00|44|1 517,0,0,0,0,0,0,0,0,0,0,0,0,0,0,517,
scooby_state_45b25c|36|1 515,0,0,0,0,0,0,0,0,0,0,1,0,0,1,517,
scooby_state_45b36a|1|1 517,0,0,0,0,0,0,0,0,0,0,0,0,0,0,517,
scooby_state_45b360|9|1 516,0,0,0,0,0,0,0,0,0,0,1,0,0,0,517,
scooby_state_45b360|30|1 517,0,0,0,0,0,0,0,0,0,0,0,0,0,0,517,
scooby_state_45ae77|28|1 515,0,0,0,0,0,0,0,1,0,1,0,0,0,0,517,
scooby_state_459c00|9|1 516,0,0,0,0,0,0,0,0,0,1,0,0,0,0,517,
scooby_state_45b36a|45|1 517,0,0,0,0,0,0,0,0,0,0,0,0,0,0,517,
scooby_state_459c00|15|1 517,0,0,0,0,0,0,0,0,0,0,0,0,0,0,517,
scooby_state_45b36a|17|1 517,0,0,0,0,0,0,0,0,0,0,0,0,0,0,517,
scooby_state_45b360|5|1 517,0,0,0,0,0,0,0,0,0,0,0,0,0,0,517,
scooby_state_459c00|62|1 517,0,0,0,0,0,0,0,0,0,0,0,0,0,0,517,
scooby_state_459c00|36|1 516,0,0,0,0,0,0,0,0,0,0,0,0,0,1,517,
scooby_state_45b36a|54|1 517,0,0,0,0,0,0,0,0,0,0,0,0,0,0,517,
scooby_state_45ae71|11|1 516,0,0,0,0,0,0,0,0,0,0,1,0,0,0,517,
scooby_state_459c00|32|1 516,0,0,0,0,0,0,1,0,0,0,0,0,0,0,517,
scooby_state_459c00|13|1 517,0,0,0,0,0,0,0,0,0,0,0,0,0,0,517,
scooby_state_459c00|37|1 516,0,1,0,0,0,0,0,0,0,0,0,0,0,0,517,
scooby_state_459c00|46|1 513,0,0,2,0,1,0,1,0,0,0,0,0,0,0,517,
scooby_state_45ae77|20|1 517,0,0,0,0,0,0,0,0,0,0,0,0,0,0,517,
scooby_state_45b36a|23|1 516,0,0,0,0,0,0,0,1,0,0,0,0,0,0,517,
scooby_state_459c00|38|1 516,0,0,0,0,0,0,0,0,0,1,0,0,0,0,517,
scooby_state_459c00|40|1 513,1,0,0,0,0,0,0,1,0,0,1,1,0,0,517,
scooby_state_459c00|41|1 517,0,0,0,0,0,0,0,0,0,0,0,0,0,0,517,
scooby_state_45b25c|63|1 517,0,0,0,0,0,0,0,0,0,0,0,0,0,0,517,
scooby_state_459c00|43|1 515,0,0,0,0,0,0,0,1,0,0,0,1,0,0,517,
scooby_state_45b360|50|1 517,0,0,0,0,0,0,0,0,0,0,0,0,0,0,517,
scooby_state_45b360|31|1 517,0,0,0,0,0,0,0,0,0,0,0,0,0,0,517,
scooby_state_459c00|24|1 516,0,0,0,0,0,0,0,0,0,0,0,0,1,0,517,
scooby_state_459c00|4|1 516,0,0,0,0,0,0,0,0,1,0,0,0,0,0,517,
scooby_state_459c00|54|1 516,0,0,0,0,0,0,0,0,0,0,0,0,1,0,517,
scooby_state_459c00|34|1 516,0,0,0,0,0,1,0,0,0,0,0,0,0,0,517,
scooby_state_45b360|6|1 517,0,0,0,0,0,0,0,0,0,0,0,0,0,0,517,
scooby_state_45b360|7|1 517,0,0,0,0,0,0,0,0,0,0,0,0,0,0,517,
scooby_state_459c00|59|1 515,0,0,0,0,0,0,0,0,0,1,0,1,0,0,517,
scooby_state_45b36a|3|1 517,0,0,0,0,0,0,0,0,0,0,0,0,0,0,517,
scooby_state_45b36a|4|1 517,0,0,0,0,0,0,0,0,0,0,0,0,0,0,517,
scooby_state_459c00|0|0 517,0,0,0,0,0,0,0,0,0,0,0,0,0,0,517,
scooby_state_459c00|2|1 515,0,0,0,0,0,0,1,0,0,1,0,0,0,0,517,
scooby_state_45b25c|7|1 514,0,0,0,0,0,0,0,0,2,1,0,0,0,0,517,
scooby_state_459c00|7|1 517,0,0,0,0,0,0,0,0,0,0,0,0,0,0,517,
scooby_state_459c00|12|1 516,0,0,0,0,0,0,0,0,0,0,0,0,1,0,517,
scooby_state_459c00|8|1 517,0,0,0,0,0,0,0,0,0,0,0,0,0,0,517,
scooby_state_45ae77|34|1 517,0,0,0,0,0,0,0,0,0,0,0,0,0,0,517,
scooby_state_459c00|10|1 515,0,0,0,0,1,0,0,0,0,0,0,0,1,0,517,
scooby_state_45b360|11|1 514,1,0,0,0,1,0,0,0,1,0,0,0,0,0,517,
scooby_state_45b36a|6|1 516,0,1,0,0,0,0,0,0,0,0,0,0,0,0,517,
scooby_state_45b360|21|1 517,0,0,0,0,0,0,0,0,0,0,0,0,0,0,517,
scooby_state_45b360|20|1 514,0,1,0,0,0,0,0,0,1,0,0,1,0,0,517,
scooby_state_45b36a|59|1 515,0,0,0,0,0,1,0,0,0,0,1,0,0,0,517,
scooby_state_45b360|13|1 516,0,0,0,0,0,0,0,0,1,0,0,0,0,0,517,
scooby_state_45b360|1|1 517,0,0,0,0,0,0,0,0,0,0,0,0,0,0,517,
scooby_state_459b10|33|1 516,1,0,0,0,0,0,0,0,0,0,0,0,0,0,517,
scooby_state_45b36a|61|1 517,0,0,0,0,0,0,0,0,0,0,0,0,0,0,517,
scooby_state_459c00|39|1 515,0,0,0,0,1,0,0,1,0,0,0,0,0,0,517,
scooby_state_459c00|61|1 514,1,0,0,0,0,0,0,1,0,0,1,0,0,0,517,
scooby_state_459c00|26|1 516,0,0,0,0,0,0,0,1,0,0,0,0,0,0,517,
scooby_state_459c00|18|1 516,0,0,0,0,0,0,1,0,0,0,0,0,0,0,517,
scooby_state_45b360|43|1 516,0,0,0,0,0,0,0,0,0,0,0,1,0,0,517,
scooby_state_459c00|49|1 516,0,0,0,0,0,0,0,0,0,0,1,0,0,0,517,
scooby_state_459c00|48|1 517,0,0,0,0,0,0,0,0,0,0,0,0,0,0,517,
scooby_state_45b360|3|1 515,0,0,0,0,0,0,0,0,0,0,0,1,1,0,517,
scooby_state_45b360|4|1 516,0,1,0,0,0,0,0,0,0,0,0,0,0,0,517,
scooby_state_459c00|19|1 516,0,0,0,0,1,0,0,0,0,0,0,0,0,0,517,
scooby_state_459c00|51|1 517,0,0,0,0,0,0,0,0,0,0,0,0,0,0,517,
scooby_state_45b36a|63|1 515,0,1,0,1,0,0,0,0,0,0,0,0,0,0,517,
scooby_state_459c00|53|1 516,0,0,0,0,0,0,1,0,0,0,0,0,0,0,517,
scooby_state_45b36a|30|1 516,0,0,0,0,0,0,0,0,0,0,0,1,0,0,517,
scooby_state_45b360|28|1 516,0,0,1,0,0,0,0,0,0,0,0,0,0,0,517,
scooby_state_45b360|19|1 515,0,0,0,0,0,0,0,0,0,0,1,0,0,1,517,
scooby_state_45b36a|24|1 516,0,0,0,0,0,0,1,0,0,0,0,0,0,0,517,
scooby_state_459c00|56|1 517,0,0,0,0,0,0,0,0,0,0,0,0,0,0,517,
scooby_state_45b360|60|1 517,0,0,0,0,0,0,0,0,0,0,0,0,0,0,517,
scooby_state_45b360|32|1 517,0,0,0,0,0,0,0,0,0,0,0,0,0,0,517,
scooby_state_45b360|37|1 517,0,0,0,0,0,0,0,0,0,0,0,0,0,0,517,
scooby_state_45b36a|60|1 514,0,1,0,0,0,1,0,0,0,0,0,0,1,0,517,
scooby_state_45b360|29|1 516,0,0,0,0,0,1,0,0,0,0,0,0,0,0,517,
scooby_state_45b36a|31|1 515,0,1,1,0,0,0,0,0,0,0,0,0,0,0,517,
scooby_state_45b36a|32|1 517,0,0,0,0,0,0,0,0,0,0,0,0,0,0,517,
scooby_state_459c00|21|1 517,0,0,0,0,0,0,0,0,0,0,0,0,0,0,517,
scooby_state_45ae77|32|1 517,0,0,0,0,0,0,0,0,0,0,0,0,0,0,517,
scooby_state_45b360|38|1 516,0,0,1,0,0,0,0,0,0,0,0,0,0,0,517,
scooby_state_45b36a|33|1 517,0,0,0,0,0,0,0,0,0,0,0,0,0,0,517,
scooby_state_45b36a|13|1 517,0,0,0,0,0,0,0,0,0,0,0,0,0,0,517,
scooby_state_459c00|23|1 515,0,0,1,1,0,0,0,0,0,0,0,0,0,0,517,
scooby_state_459c00|45|1 516,0,0,0,0,0,0,0,0,0,0,0,0,1,0,517,
scooby_state_45b360|12|1 516,0,0,1,0,0,0,0,0,0,0,0,0,0,0,517,
scooby_state_45b36a|8|1 516,0,0,0,0,0,0,1,0,0,0,0,0,0,0,517,
scooby_state_45b36a|9|1 517,0,0,0,0,0,0,0,0,0,0,0,0,0,0,517,
scooby_state_45b36a|10|1 517,0,0,0,0,0,0,0,0,0,0,0,0,0,0,517,
scooby_state_45b36a|11|1 515,0,0,0,0,0,0,0,0,0,0,0,1,0,1,517,
scooby_state_45b360|17|1 516,0,1,0,0,0,0,0,0,0,0,0,0,0,0,517,
scooby_state_45b36a|12|1 516,0,0,0,0,0,0,0,0,0,0,0,0,1,0,517,
scooby_state_45b360|36|1 516,0,0,0,1,0,0,0,0,0,0,0,0,0,0,517,
scooby_state_45b36a|15|1 517,0,0,0,0,0,0,0,0,0,0,0,0,0,0,517,
scooby_state_45b36a|22|1 517,0,0,0,0,0,0,0,0,0,0,0,0,0,0,517,
scooby_state_45b360|22|1 517,0,0,0,0,0,0,0,0,0,0,0,0,0,0,517,
scooby_state_45b360|24|1 517,0,0,0,0,0,0,0,0,0,0,0,0,0,0,517,
scooby_state_45b36a|19|1 517,0,0,0,0,0,0,0,0,0,0,0,0,0,0,517,
scooby_state_45ae77|14|1 515,0,0,1,1,0,0,0,0,0,0,0,0,0,0,517,
scooby_state_45b36a|46|1 517,0,0,0,0,0,0,0,0,0,0,0,0,0,0,517,
scooby_state_45b360|55|1 515,0,0,0,0,0,1,0,0,0,0,0,0,0,0,516,
scooby_state_45ae71|50|1 514,0,0,0,0,0,1,0,0,0,0,1,0,0,0,516,
scooby_state_45b25c|35|1 515,0,0,0,0,0,0,0,0,0,0,0,1,0,0,516,
scooby_state_45b25c|49|1 516,0,0,0,0,0,0,0,0,0,0,0,0,0,0,516,
scooby_state_45b25c|33|1 513,0,0,0,0,0,0,0,0,0,0,1,0,2,0,516,
scooby_state_45b360|53|1 516,0,0,0,0,0,0,0,0,0,0,0,0,0,0,516,
scooby_state_45ae71|26|1 513,0,0,0,0,0,0,0,0,0,0,3,0,0,0,516,
scooby_state_45b36a|48|1 514,0,0,0,1,0,0,1,0,0,0,0,0,0,0,516,
scooby_state_45b36a|29|1 516,0,0,0,0,0,0,0,0,0,0,0,0,0,0,516,
scooby_state_45b360|52|1 515,0,0,0,0,0,1,0,0,0,0,0,0,0,0,516,
scooby_state_45b36a|25|1 515,0,1,0,0,0,0,0,0,0,0,0,0,0,0,516,
scooby_state_45b36a|47|1 516,0,0,0,0,0,0,0,0,0,0,0,0,0,0,516,
scooby_state_45b25c|59|1 516,0,0,0,0,0,0,0,0,0,0,0,0,0,0,516,
scooby_state_45b25c|10|1 516,0,0,0,0,0,0,0,0,0,0,0,0,0,0,516,
scooby_state_459c00|47|1 513,0,0,1,0,1,0,0,0,1,0,0,0,0,0,516,
scooby_state_45ae71|25|1 513,0,0,0,0,0,0,0,0,0,1,2,0,0,0,516,
scooby_state_45b25c|34|1 513,2,0,0,0,0,0,0,1,0,0,0,0,0,0,516,
scooby_state_45b25c|58|1 513,1,0,0,0,0,0,0,0,0,0,1,0,0,0,515,
scooby_state_45ae71|12|1 510,0,1,0,0,0,1,0,1,1,0,1,0,0,0,515,
scooby_state_45ae71|51|1 513,0,0,0,0,0,1,0,0,0,0,1,0,0,0,515,
scooby_state_45ae71|33|1 512,0,0,0,0,1,0,1,0,0,0,1,0,0,0,515,
scooby_state_45ae71|10|1 514,0,0,0,0,0,0,0,0,0,0,1,0,0,0,515,
scooby_state_45b25c|50|1 514,0,1,0,0,0,0,0,0,0,0,0,0,0,0,515,
scooby_state_45b25c|14|1 514,0,0,1,0,0,0,0,0,0,0,0,0,0,0,515,
scooby_state_45b36a|28|1 515,0,0,0,0,0,0,0,0,0,0,0,0,0,0,515,
scooby_state_45b36a|26|1 515,0,0,0,0,0,0,0,0,0,0,0,0,0,0,515,
scooby_state_45b25c|15|1 515,0,0,0,0,0,0,0,0,0,0,0,0,0,0,515,
scooby_state_45ae71|38|1 513,0,0,0,0,0,0,0,0,0,0,1,0,0,0,514,
scooby_state_45ae71|39|1 510,0,0,0,1,1,0,0,0,0,0,1,0,1,0,514,
scooby_state_45ae71|56|1 513,0,0,0,0,0,0,0,0,0,0,1,0,0,0,514,
scooby_state_45ae71|63|1 511,0,0,1,0,0,0,0,0,1,0,1,0,0,0,514,
scooby_state_45ae71|59|1 512,0,0,0,0,0,0,0,0,0,0,1,1,0,0,514,
scooby_state_45ae71|2|1 512,0,1,0,0,0,0,0,0,0,0,1,0,0,0,514,
scooby_state_45ae71|49|1 513,0,0,0,0,0,0,0,0,0,0,1,0,0,0,514,
scooby_state_45ae71|57|1 512,0,0,0,0,0,1,0,0,0,0,1,0,0,0,514,
scooby_state_45b25c|0|0 511,0,0,0,0,1,0,0,0,0,0,0,1,0,1,514,
scooby_state_45b25c|2|1 512,0,0,1,0,0,0,0,0,0,0,0,0,0,1,514,
scooby_state_45b25c|1|1 513,0,0,0,0,0,0,0,0,0,0,1,0,0,0,514,
scooby_state_45ae71|37|1 511,0,0,0,0,1,0,1,0,0,0,1,0,0,0,514,
scooby_state_45ae71|22|1 512,0,0,0,1,0,0,0,0,0,0,1,0,0,0,514,
scooby_state_45ae71|31|1 513,0,0,0,0,0,0,0,0,0,0,1,0,0,0,514,
scooby_state_45ae71|14|1 511,0,0,0,0,0,0,1,0,0,0,2,0,0,0,514,
scooby_state_45b36a|27|1 512,0,0,0,0,0,1,0,0,0,0,0,0,0,1,514,
scooby_state_45ae71|42|1 513,0,0,0,0,0,0,0,0,0,0,1,0,0,0,514,
scooby_state_45b25c|17|1 513,0,0,0,0,0,0,0,0,0,0,0,0,0,0,513,
scooby_state_45ae71|58|1 512,0,0,0,0,0,0,0,0,0,0,1,0,0,0,513,
scooby_state_45ae71|60|1 512,0,0,0,0,0,0,0,0,0,0,1,0,0,0,513,
scooby_state_45ae71|46|1 511,1,0,0,0,0,0,0,0,0,0,1,0,0,0,513,
scooby_state_45ae71|43|1 512,0,0,0,0,0,0,0,0,0,0,1,0,0,0,513,
scooby_state_45ae71|13|1 509,0,0,0,1,0,0,0,1,0,0,1,0,0,1,513,
scooby_state_45ae71|62|1 510,0,0,0,0,0,0,0,0,0,0,1,0,0,2,513,
scooby_state_45ae71|7|1 511,0,0,0,0,0,0,1,0,0,0,1,0,0,0,513,
scooby_state_45ae71|0|-63 512,0,0,0,0,0,0,0,0,0,0,0,0,0,1,513,
scooby_state_45ae71|4|1 510,0,0,0,0,0,0,0,0,0,0,2,0,1,0,513,
scooby_state_45ae71|18|1 510,1,0,0,0,0,0,0,0,0,0,2,0,0,0,513,
scooby_state_45ae71|47|1 512,0,0,0,0,0,0,0,0,0,0,1,0,0,0,513,
scooby_state_45ae71|5|1 511,0,0,0,0,0,0,0,1,0,0,1,0,0,0,513,
scooby_state_45ae71|15|1 512,0,0,0,0,0,0,0,0,0,0,1,0,0,0,513,
scooby_state_45b25c|37|1 512,0,0,0,0,0,0,0,0,0,0,1,0,0,0,513,
scooby_state_45ae71|17|1 510,0,0,0,0,0,1,0,0,0,0,2,0,0,0,513,
scooby_state_45ae71|41|1 511,0,1,0,0,0,0,0,0,0,0,1,0,0,0,513,
scooby_state_45ae71|9|1 510,1,0,0,0,0,0,0,0,0,0,1,1,0,0,513,
scooby_state_45ae71|54|1 510,0,0,0,0,0,0,0,1,0,0,1,1,0,0,513,
scooby_state_45ae71|53|1 511,0,0,0,0,1,0,0,0,0,0,1,0,0,0,513,
scooby_state_45b25c|54|1 511,0,0,0,0,0,1,1,0,0,0,0,0,0,0,513,
scooby_state_45b25c|48|1 512,0,0,0,0,0,0,0,0,0,0,0,0,0,1,513,
scooby_state_45ae71|48|1 511,0,0,1,0,0,0,0,0,0,0,1,0,0,0,513,
scooby_state_45ae71|8|1 511,0,0,0,0,0,1,0,0,0,0,1,0,0,0,513,
scooby_state_459929|11|1 511,0,0,1,0,0,0,0,0,0,0,0,0,0,0,512,
scooby_state_459b1f|37|1 511,0,0,0,0,1,0,0,0,0,0,0,0,0,0,512,
scooby_state_459920|27|1 511,0,0,0,0,0,0,0,0,0,0,0,0,0,1,512,
scooby_state_459969|6|1 511,0,0,0,0,0,0,0,0,0,1,0,0,0,0,512,
scooby_state_45b266|40|1 511,0,1,0,0,0,0,0,0,0,0,0,0,0,0,512,
scooby_state_459920|24|1 510,0,1,0,0,0,0,0,0,0,0,1,0,0,0,512,
scooby_state_45b266|51|1 511,0,1,0,0,0,0,0,0,0,0,0,0,0,0,512,
scooby_state_45b266|42|1 512,0,0,0,0,0,0,0,0,0,0,0,0,0,0,512,
scooby_state_45b266|38|1 512,0,0,0,0,0,0,0,0,0,0,0,0,0,0,512,
scooby_state_45add3|30|1 512,0,0,0,0,0,0,0,0,0,0,0,0,0,0,512,
scooby_state_459958|34|1 510,0,0,0,0,0,1,0,1,0,0,0,0,0,0,512,
scooby_state_459929|48|1 511,1,0,0,0,0,0,0,0,0,0,0,0,0,0,512,
scooby_state_45ae52|15|1 511,0,0,0,1,0,0,0,0,0,0,0,0,0,0,512,
scooby_state_45993b|1|1 512,0,0,0,0,0,0,0,0,0,0,0,0,0,0,512,
scooby_state_45b266|48|1 511,0,0,0,0,0,0,0,0,0,0,1,0,0,0,512,
scooby_state_459920|25|1 508,0,0,0,0,0,0,0,0,0,2,0,0,1,1,512,
scooby_state_45a0be|16|1 512,0,0,0,0,0,0,0,0,0,0,0,0,0,0,512,
scooby_state_45ae52|19|1 512,0,0,0,0,0,0,0,0,0,0,0,0,0,0,512,
scooby_state_459929|5|1 511,0,0,0,0,0,1,0,0,0,0,0,0,0,0,512,
scooby_state_45ae52|46|1 511,0,0,0,0,0,0,0,0,0,0,0,1,0,0,512,
scooby_state_45b266|50|1 512,0,0,0,0,0,0,0,0,0,0,0,0,0,0,512,
scooby_state_459b1f|42|1 512,0,0,0,0,0,0,0,0,0,0,0,0,0,0,512,
scooby_state_459929|55|1 510,0,0,0,0,0,0,0,1,0,0,1,0,0,0,512,
scooby_state_459958|25|1 511,0,0,0,0,0,0,0,1,0,0,0,0,0,0,512,
scooby_state_459920|61|1 512,0,0,0,0,0,0,0,0,0,0,0,0,0,0,512,
scooby_state_45993b|36|1 511,0,0,0,0,1,0,0,0,0,0,0,0,0,0,512,
scooby_state_459b1f|44|1 510,0,2,0,0,0,0,0,0,0,0,0,0,0,0,512,
scooby_state_45b266|46|1 508,0,0,0,0,0,1,0,0,0,1,1,1,0,0,512,
scooby_state_45993b|2|1 510,1,0,0,0,0,0,0,0,0,0,0,0,1,0,512,
scooby_state_459936|57|1 512,0,0,0,0,0,0,0,0,0,0,0,0,0,0,512,
scooby_state_45b25c|16|1 511,0,0,0,0,0,1,0,0,0,0,0,0,0,0,512,
scooby_state_45b266|61|1 512,0,0,0,0,0,0,0,0,0,0,0,0,0,0,512,
scooby_state_45993b|16|1 512,0,0,0,0,0,0,0,0,0,0,0,0,0,0,512,
scooby_state_45ad1e|11|1 511,0,0,0,0,0,0,0,0,0,0,0,0,1,0,512,
scooby_state_45b266|22|1 511,0,0,0,0,0,0,0,1,0,0,0,0,0,0,512,
scooby_state_459929|21|1 512,0,0,0,0,0,0,0,0,0,0,0,0,0,0,512,
scooby_state_45b266|55|1 511,0,0,0,0,0,0,0,1,0,0,0,0,0,0,512,
scooby_state_459b1f|43|1 512,0,0,0,0,0,0,0,0,0,0,0,0,0,0,512,
scooby_state_45b266|63|1 512,0,0,0,0,0,0,0,0,0,0,0,0,0,0,512,
scooby_state_459b1f|38|1 512,0,0,0,0,0,0,0,0,0,0,0,0,0,0,512,
scooby_state_459969|18|1 512,0,0,0,0,0,0,0,0,0,0,0,0,0,0,512,
scooby_state_45ad1e|25|1 511,0,0,0,0,0,0,0,0,1,0,0,0,0,0,512,
scooby_state_459920|18|1 511,0,0,0,0,0,0,0,0,0,0,0,1,0,0,512,
scooby_state_45a0be|50|1 512,0,0,0,0,0,0,0,0,0,0,0,0,0,0,512,
scooby_state_459969|60|1 511,0,0,0,1,0,0,0,0,0,0,0,0,0,0,512,
scooby_state_45b266|1|1 512,0,0,0,0,0,0,0,0,0,0,0,0,0,0,512,
scooby_state_45ad1e|12|1 511,0,0,0,1,0,0,0,0,0,0,0,0,0,0,512,
scooby_state_459969|56|1 512,0,0,0,0,0,0,0,0,0,0,0,0,0,0,512,
scooby_state_45b266|8|1 512,0,0,0,0,0,0,0,0,0,0,0,0,0,0,512,
scooby_state_459958|44|1 511,0,0,0,0,0,0,0,0,0,0,0,1,0,0,512,
scooby_state_459969|43|1 511,0,0,0,0,0,1,0,0,0,0,0,0,0,0,512,
scooby_state_45993b|46|1 509,1,1,1,0,0,0,0,0,0,0,0,0,0,0,512,
scooby_state_459936|63|1 511,0,0,0,1,0,0,0,0,0,0,0,0,0,0,512,
scooby_state_459920|36|1 511,0,0,0,0,0,0,0,0,1,0,0,0,0,0,512,
scooby_state_45b266|3|1 512,0,0,0,0,0,0,0,0,0,0,0,0,0,0,512,
scooby_state_45ae67|23|1 512,0,0,0,0,0,0,0,0,0,0,0,0,0,0,512,
scooby_state_459929|14|1 511,0,0,0,0,0,0,0,0,0,0,0,1,0,0,512,
scooby_state_459b1f|25|1 511,1,0,0,0,0,0,0,0,0,0,0,0,0,0,512,
scooby_state_459920|6|1 512,0,0,0,0,0,0,0,0,0,0,0,0,0,0,512,
scooby_state_459958|51|1 512,0,0,0,0,0,0,0,0,0,0,0,0,0,0,512,
scooby_state_45ad1e|62|1 510,0,0,0,0,0,0,0,1,0,0,0,0,1,0,512,
scooby_state_459936|48|1 511,0,0,0,0,1,0,0,0,0,0,0,0,0,0,512,
scooby_state_45b266|54|1 512,0,0,0,0,0,0,0,0,0,0,0,0,0,0,512,
scooby_state_459969|19|1 512,0,0,0,0,0,0,0,0,0,0,0,0,0,0,512,
scooby_state_459958|6|1 511,0,0,0,0,0,0,0,0,0,1,0,0,0,0,512,
scooby_state_45b266|56|1 510,0,0,1,0,1,0,0,0,0,0,0,0,0,0,512,
scooby_state_45a0be|35|1 512,0,0,0,0,0,0,0,0,0,0,0,0,0,0,512,
scooby_state_459958|35|1 512,0,0,0,0,0,0,0,0,0,0,0,0,0,0,512,
scooby_state_459929|28|1 512,0,0,0,0,0,0,0,0,0,0,0,0,0,0,512,
scooby_state_45b266|53|1 512,0,0,0,0,0,0,0,0,0,0,0,0,0,0,512,
scooby_state_45b266|41|1 511,0,0,0,0,0,0,0,0,0,1,0,0,0,0,512,
scooby_state_45b266|60|1 511,0,0,0,0,0,0,1,0,0,0,0,0,0,0,512,
scooby_state_45b266|57|1 511,0,0,0,0,0,0,0,0,0,0,0,1,0,0,512,
scooby_state_45b266|58|1 512,0,0,0,0,0,0,0,0,0,0,0,0,0,0,512,
scooby_state_459936|52|1 510,0,0,0,0,0,1,0,0,0,0,1,0,0,0,512,
scooby_state_459b1f|10|1 512,0,0,0,0,0,0,0,0,0,0,0,0,0,0,512,
scooby_state_459929|32|1 512,0,0,0,0,0,0,0,0,0,0,0,0,0,0,512,
scooby_state_45b266|59|1 512,0,0,0,0,0,0,0,0,0,0,0,0,0,0,512,
scooby_state_459920|59|1 509,1,0,1,0,0,1,0,0,0,0,0,0,0,0,512,
scooby_state_45a0be|52|1 509,0,1,0,0,0,1,0,0,0,1,0,0,0,0,512,
scooby_state_45993b|35|1 512,0,0,0,0,0,0,0,0,0,0,0,0,0,0,512,
scooby_state_45b266|7|1 512,0,0,0,0,0,0,0,0,0,0,0,0,0,0,512,
scooby_state_45993b|15|1 511,0,0,1,0,0,0,0,0,0,0,0,0,0,0,512,
scooby_state_45ad1e|21|1 509,0,0,0,0,0,0,1,0,0,0,0,1,0,1,512,
scooby_state_459969|20|1 511,0,0,0,0,0,1,0,0,0,0,0,0,0,0,512,
scooby_state_459969|16|1 511,0,0,1,0,0,0,0,0,0,0,0,0,0,0,512,
scooby_state_45993b|22|1 511,0,0,0,0,1,0,0,0,0,0,0,0,0,0,512,
scooby_state_459929|33|1 511,0,0,0,0,1,0,0,0,0,0,0,0,0,0,512,
scooby_state_45ae52|62|1 510,0,0,0,0,0,0,0,0,0,0,1,0,1,0,512,
scooby_state_45ae52|63|1 512,0,0,0,0,0,0,0,0,0,0,0,0,0,0,512,
scooby_state_45ae52|35|1 512,0,0,0,0,0,0,0,0,0,0,0,0,0,0,512,
scooby_state_459958|1|1 511,0,0,0,0,0,0,0,0,0,0,0,1,0,0,512,
scooby_state_45993b|20|1 511,0,0,0,0,0,0,1,0,0,0,0,0,0,0,512,
scooby_state_459969|47|1 512,0,0,0,0,0,0,0,0,0,0,0,0,0,0,512,
scooby_state_459969|27|1 511,1,0,0,0,0,0,0,0,0,0,0,0,0,0,512,
scooby_state_4599f4|28|-2 511,0,0,1,0,0,0,0,0,0,0,0,0,0,0,512,
scooby_state_45ad1e|28|1 511,0,0,0,0,0,0,0,0,0,0,1,0,0,0,512,
scooby_state_45ae52|2|1 511,0,0,0,0,0,0,0,0,0,0,0,0,0,1,512,
scooby_state_45ad1e|7|1 512,0,0,0,0,0,0,0,0,0,0,0,0,0,0,512,
scooby_state_45ad1e|29|1 510,0,0,0,0,0,1,0,0,0,0,0,1,0,0,512,
scooby_state_45ae52|54|1 511,0,0,0,0,0,0,0,0,1,0,0,0,0,0,512,
scooby_state_45ad1e|13|1 511,0,0,0,0,0,0,0,0,0,1,0,0,0,0,512,
scooby_state_45ae52|51|1 512,0,0,0,0,0,0,0,0,0,0,0,0,0,0,512,
scooby_state_45993b|56|1 512,0,0,0,0,0,0,0,0,0,0,0,0,0,0,512,
scooby_state_459958|2|1 511,0,0,0,0,0,0,0,0,1,0,0,0,0,0,512,
scooby_state_45ad1e|14|1 511,0,0,0,0,0,0,0,0,0,0,1,0,0,0,512,
scooby_state_45b266|2|1 512,0,0,0,0,0,0,0,0,0,0,0,0,0,0,512,
scooby_state_459920|8|1 510,0,1,1,0,0,0,0,0,0,0,0,0,0,0,512,
scooby_state_45ad1e|15|1 509,0,0,0,0,0,0,0,0,1,0,0,0,2,0,512,
scooby_state_45ae71|32|1 510,0,0,0,0,1,0,0,0,0,0,1,0,0,0,512,
scooby_state_459936|34|1 510,0,0,1,0,0,0,0,0,1,0,0,0,0,0,512,
scooby_state_45ad1e|17|1 512,0,0,0,0,0,0,0,0,0,0,0,0,0,0,512,
scooby_state_45ae52|57|1 512,0,0,0,0,0,0,0,0,0,0,0,0,0,0,512,
scooby_state_459920|2|1 511,0,0,1,0,0,0,0,0,0,0,0,0,0,0,512,
scooby_state_459929|52|1 511,0,1,0,0,0,0,0,0,0,0,0,0,0,0,512,
scooby_state_45ad1e|20|1 511,0,0,1,0,0,0,0,0,0,0,0,0,0,0,512,
scooby_state_459969|53|1 511,0,1,0,0,0,0,0,0,0,0,0,0,0,0,512,
scooby_state_45ae52|58|1 512,0,0,0,0,0,0,0,0,0,0,0,0,0,0,512,
scooby_state_459920|58|1 511,0,1,0,0,0,0,0,0,0,0,0,0,0,0,512,
scooby_state_45993b|39|1 512,0,0,0,0,0,0,0,0,0,0,0,0,0,0,512,
scooby_state_45ad3a|35|1 511,0,0,0,0,0,0,1,0,0,0,0,0,0,0,512,
scooby_state_45ae71|19|1 510,0,0,0,0,0,0,0,0,0,1,1,0,0,0,512,
scooby_state_45ae52|10|1 512,0,0,0,0,0,0,0,0,0,0,0,0,0,0,512,
scooby_state_45ae67|24|1 512,0,0,0,0,0,0,0,0,0,0,0,0,0,0,512,
scooby_state_45b266|49|1 511,0,0,0,0,0,0,0,0,0,0,1,0,0,0,512,
scooby_state_45ad1e|49|1 508,0,1,0,0,0,1,0,0,0,0,0,1,0,1,512,
scooby_state_45ae52|13|1 512,0,0,0,0,0,0,0,0,0,0,0,0,0,0,512,
scooby_state_459969|21|1 512,0,0,0,0,0,0,0,0,0,0,0,0,0,0,512,
scooby_state_459929|34|1 510,1,0,0,0,0,0,0,0,0,0,0,1,0,0,512,
scooby_state_45ad1e|19|1 511,0,0,0,0,1,0,0,0,0,0,0,0,0,0,512,
scooby_state_45ad1e|42|1 510,0,0,0,1,0,1,0,0,0,0,0,0,0,0,512,
scooby_state_459958|38|1 511,0,0,0,0,0,0,0,0,0,1,0,0,0,0,512,
scooby_state_45ae52|17|1 512,0,0,0,0,0,0,0,0,0,0,0,0,0,0,512,
scooby_state_45ae52|40|1 512,0,0,0,0,0,0,0,0,0,0,0,0,0,0,512,
scooby_state_459929|3|1 512,0,0,0,0,0,0,0,0,0,0,0,0,0,0,512,
scooby_state_45ae52|42|1 512,0,0,0,0,0,0,0,0,0,0,0,0,0,0,512,
scooby_state_45ae71|44|1 511,0,0,0,0,0,0,0,0,0,0,1,0,0,0,512,
scooby_state_459958|4|1 511,1,0,0,0,0,0,0,0,0,0,0,0,0,0,512,
scooby_state_45993b|28|1 511,0,0,0,0,0,0,0,1,0,0,0,0,0,0,512,
scooby_state_45b266|52|1 511,0,0,0,0,1,0,0,0,0,0,0,0,0,0,512,
scooby_state_45add3|34|1 510,0,0,0,0,0,0,0,0,1,0,1,0,0,0,512,
scooby_state_45993b|47|1 510,0,0,0,0,0,0,0,0,1,0,0,1,0,0,512,
scooby_state_459920|11|1 512,0,0,0,0,0,0,0,0,0,0,0,0,0,0,512,
scooby_state_459969|10|1 510,0,0,0,0,0,0,0,0,0,1,0,0,1,0,512,
scooby_state_45ad1e|31|1 511,0,0,0,0,1,0,0,0,0,0,0,0,0,0,512,
scooby_state_459929|31|1 512,0,0,0,0,0,0,0,0,0,0,0,0,0,0,512,
scooby_state_45993b|21|1 512,0,0,0,0,0,0,0,0,0,0,0,0,0,0,512,
scooby_state_459b1f|9|1 512,0,0,0,0,0,0,0,0,0,0,0,0,0,0,512,
scooby_state_45ae52|6|1 511,0,0,1,0,0,0,0,0,0,0,0,0,0,0,512,
scooby_state_45ad1e|61|1 510,0,1,0,0,0,0,0,0,0,0,0,0,0,1,512,
scooby_state_45ae52|7|1 511,0,0,0,0,0,0,0,0,0,0,0,0,1,0,512,
scooby_state_459920|12|1 512,0,0,0,0,0,0,0,0,0,0,0,0,0,0,512,
scooby_state_459920|4|1 511,0,0,0,0,0,0,0,1,0,0,0,0,0,0,512,
scooby_state_459936|10|1 512,0,0,0,0,0,0,0,0,0,0,0,0,0,0,512,
scooby_state_45ae52|53|1 511,0,0,0,0,0,0,0,0,0,0,0,0,1,0,512,
scooby_state_45ae52|38|1 511,0,0,0,0,0,1,0,0,0,0,0,0,0,0,512,
scooby_state_459969|24|1 511,0,0,0,0,0,1,0,0,0,0,0,0,0,0,512,
scooby_state_45ae71|40|1 511,0,0,0,0,0,0,0,0,0,0,1,0,0,0,512,
scooby_state_459929|62|1 512,0,0,0,0,0,0,0,0,0,0,0,0,0,0,512,
scooby_state_45ae52|22|1 511,0,0,0,1,0,0,0,0,0,0,0,0,0,0,512,
scooby_state_459920|22|1 512,0,0,0,0,0,0,0,0,0,0,0,0,0,0,512,
scooby_state_45ae52|8|1 512,0,0,0,0,0,0,0,0,0,0,0,0,0,0,512,
scooby_state_459958|18|1 512,0,0,0,0,0,0,0,0,0,0,0,0,0,0,512,
scooby_state_45b266|26|1 510,0,0,0,1,0,0,0,0,0,0,0,1,0,0,512,
scooby_state_45ad1e|58|1 512,0,0,0,0,0,0,0,0,0,0,0,0,0,0,512,
scooby_state_459920|23|1 512,0,0,0,0,0,0,0,0,0,0,0,0,0,0,512,
scooby_state_45ae52|11|1 511,0,1,0,0,0,0,0,0,0,0,0,0,0,0,512,
scooby_state_459920|13|1 512,0,0,0,0,0,0,0,0,0,0,0,0,0,0,512,
scooby_state_45ad1e|56|1 512,0,0,0,0,0,0,0,0,0,0,0,0,0,0,512,
scooby_state_45ad1e|39|1 511,0,0,0,0,0,0,0,0,0,0,0,0,0,1,512,
scooby_state_45993b|50|1 511,0,0,0,0,0,0,0,1,0,0,0,0,0,0,512,
scooby_state_459969|55|1 512,0,0,0,0,0,0,0,0,0,0,0,0,0,0,512,
scooby_state_45ae52|14|1 509,0,0,0,0,0,0,1,2,0,0,0,0,0,0,512,
scooby_state_459936|45|1 510,0,0,0,0,0,0,0,0,0,0,0,0,1,1,512,
scooby_state_45ad1e|2|1 512,0,0,0,0,0,0,0,0,0,0,0,0,0,0,512,
scooby_state_45ad1e|33|1 512,0,0,0,0,0,0,0,0,0,0,0,0,0,0,512,
scooby_state_45993b|49|1 511,0,0,0,0,0,0,0,0,0,0,0,0,1,0,512,
scooby_state_45b266|36|1 511,0,0,0,0,1,0,0,0,0,0,0,0,0,0,512,
scooby_state_45b266|43|1 511,0,1,0,0,0,0,0,0,0,0,0,0,0,0,512,
scooby_state_45ad1e|48|1 510,0,0,0,0,0,1,1,0,0,0,0,0,0,0,512,
scooby_state_459929|37|1 511,0,0,0,0,0,0,0,0,0,0,0,0,0,1,512,
scooby_state_459958|5|1 509,1,0,0,1,0,0,0,0,0,0,0,0,1,0,512,
scooby_state_459920|52|1 511,0,0,0,0,0,0,0,0,0,1,0,0,0,0,512,
scooby_state_459958|9|1 512,0,0,0,0,0,0,0,0,0,0,0,0,0,0,512,
scooby_state_45ae52|34|1 512,0,0,0,0,0,0,0,0,0,0,0,0,0,0,512,
scooby_state_459b1f|11|1 511,0,0,0,0,0,0,0,0,0,0,0,0,1,0,512,
scooby_state_45ad1e|41|1 512,0,0,0,0,0,0,0,0,0,0,0,0,0,0,512,
scooby_state_45ae71|1|1 510,0,0,0,0,0,0,0,0,1,0,1,0,0,0,512,
scooby_state_459b1f|15|1 511,1,0,0,0,0,0,0,0,0,0,0,0,0,0,512,
scooby_state_459969|62|1 512,0,0,0,0,0,0,0,0,0,0,0,0,0,0,512,
scooby_state_459920|7|1 511,0,0,0,0,0,0,0,1,0,0,0,0,0,0,512,
scooby_state_459929|1|1 511,0,0,0,0,0,0,0,1,0,0,0,0,0,0,512,
scooby_state_45ad1e|5|1 509,0,0,0,0,0,0,1,0,1,0,0,0,0,1,512,
scooby_state_459b1f|50|1 512,0,0,0,0,0,0,0,0,0,0,0,0,0,0,512,
scooby_state_45ad1e|54|1 510,0,0,0,0,0,0,0,0,0,0,1,1,0,0,512,
scooby_state_45add3|28|1 511,0,0,0,0,1,0,0,0,0,0,0,0,0,0,512,
scooby_state_45993b|12|1 512,0,0,0,0,0,0,0,0,0,0,0,0,0,0,512,
scooby_state_45ae52|44|1 511,0,0,0,0,0,0,0,0,0,0,0,1,0,0,512,
scooby_state_459936|29|1 510,0,0,0,0,1,1,0,0,0,0,0,0,0,0,512,
scooby_state_45a0be|14|1 512,0,0,0,0,0,0,0,0,0,0,0,0,0,0,512,
scooby_state_45ad1e|22|1 512,0,0,0,0,0,0,0,0,0,0,0,0,0,0,512,
scooby_state_45ae52|45|1 511,1,0,0,0,0,0,0,0,0,0,0,0,0,0,512,
scooby_state_459929|47|1 512,0,0,0,0,0,0,0,0,0,0,0,0,0,0,512,
scooby_state_45ad1e|8|1 509,0,0,0,0,0,0,0,1,1,0,0,0,0,1,512,
scooby_state_45ad1e|9|1 510,0,1,0,1,0,0,0,0,0,0,0,0,0,0,512,
scooby_state_459936|25|1 510,0,1,0,0,0,0,0,0,1,0,0,0,0,0,512,
scooby_state_459929|56|1 512,0,0,0,0,0,0,0,0,0,0,0,0,0,0,512,
scooby_state_459b1f|26|1 511,0,0,0,0,0,0,1,0,0,0,0,0,0,0,512,
scooby_state_45b266|17|1 511,0,0,0,0,1,0,0,0,0,0,0,0,0,0,512,
scooby_state_459b1f|45|1 510,0,0,0,0,0,0,0,0,0,0,0,1,0,1,512,
scooby_state_45ae52|3|1 511,0,0,0,0,0,0,0,0,1,0,0,0,0,0,512,
scooby_state_45ae52|9|1 510,1,0,0,0,0,1,0,0,0,0,0,0,0,0,512,
scooby_state_45ae71|45|1 510,0,0,0,0,0,0,0,0,0,1,1,0,0,0,512,
scooby_state_45ad3a|24|1 512,0,0,0,0,0,0,0,0,0,0,0,0,0,0,512,
scooby_state_459929|24|1 512,0,0,0,0,0,0,0,0,0,0,0,0,0,0,512,
scooby_state_459b1f|5|1 511,0,0,0,0,0,1,0,0,0,0,0,0,0,0,512,
scooby_state_45ae52|18|1 510,0,0,0,0,0,0,0,0,1,0,1,0,0,0,512,
scooby_state_459969|57|1 511,0,0,0,0,0,0,1,0,0,0,0,0,0,0,512,
scooby_state_45ad1e|24|1 509,0,0,0,1,0,1,1,0,0,0,0,0,0,0,512,
scooby_state_45ae52|29|1 510,0,0,0,0,0,0,0,0,1,0,0,1,0,0,512,
scooby_state_459920|15|1 510,0,0,1,0,1,0,0,0,0,0,0,0,0,0,512,
scooby_state_459b1f|33|1 511,0,0,0,0,0,0,0,1,0,0,0,0,0,0,512,
scooby_state_459929|49|1 510,0,0,0,0,0,1,0,0,0,0,0,0,0,1,512,
scooby_state_459920|10|1 511,0,0,0,0,0,0,0,0,0,1,0,0,0,0,512,
scooby_state_45b266|5|1 512,0,0,0,0,0,0,0,0,0,0,0,0,0,0,512,
scooby_state_45ad1e|27|1 512,0,0,0,0,0,0,0,0,0,0,0,0,0,0,512,
scooby_state_45ad1e|44|1 511,0,0,0,0,1,0,0,0,0,0,0,0,0,0,512,
scooby_state_45a0be|42|1 510,1,0,0,1,0,0,0,0,0,0,0,0,0,0,512,
scooby_state_459958|3|1 510,0,1,0,0,0,0,0,0,0,0,0,0,0,1,512,
scooby_state_459b1f|32|1 512,0,0,0,0,0,0,0,0,0,0,0,0,0,0,512,
scooby_state_45ad1e|0|0 512,0,0,0,0,0,0,0,0,0,0,0,0,0,0,512,
scooby_state_459920|49|1 511,1,0,0,0,0,0,0,0,0,0,0,0,0,0,512,
scooby_state_45ad1e|3|1 512,0,0,0,0,0,0,0,0,0,0,0,0,0,0,512,
scooby_state_45ae52|23|1 512,0,0,0,0,0,0,0,0,0,0,0,0,0,0,512,
scooby_state_459920|3|1 511,0,0,0,0,0,0,1,0,0,0,0,0,0,0,512,
scooby_state_459920|43|1 511,0,0,0,0,0,0,0,0,0,0,0,0,1,0,512,
scooby_state_459936|31|1 512,0,0,0,0,0,0,0,0,0,0,0,0,0,0,512,
scooby_state_45993b|38|1 509,0,1,0,1,0,0,0,0,1,0,0,0,0,0,512,
scooby_state_459929|41|1 512,0,0,0,0,0,0,0,0,0,0,0,0,0,0,512,
scooby_state_45b266|10|1 510,0,1,0,0,0,0,1,0,0,0,0,0,0,0,512,
scooby_state_459936|11|1 512,0,0,0,0,0,0,0,0,0,0,0,0,0,0,512,
scooby_state_459936|39|1 511,0,0,0,0,0,0,0,0,0,0,1,0,0,0,512,
scooby_state_459929|7|1 512,0,0,0,0,0,0,0,0,0,0,0,0,0,0,512,
scooby_state_45b266|39|1 512,0,0,0,0,0,0,0,0,0,0,0,0,0,0,512,
scooby_state_459b1f|12|1 512,0,0,0,0,0,0,0,0,0,0,0,0,0,0,512,
scooby_state_45a0be|31|1 511,0,0,0,0,0,1,0,0,0,0,0,0,0,0,512,
scooby_state_45ae67|30|1 511,0,0,0,0,1,0,0,0,0,0,0,0,0,0,512,
scooby_state_45add3|36|1 512,0,0,0,0,0,0,0,0,0,0,0,0,0,0,512,
scooby_state_45b266|9|1 511,0,0,0,0,0,0,0,0,0,0,0,0,1,0,512,
scooby_state_45a0be|48|1 512,0,0,0,0,0,0,0,0,0,0,0,0,0,0,512,
scooby_state_459929|17|1 512,0,0,0,0,0,0,0,0,0,0,0,0,0,0,512,
scooby_state_45b266|11|1 511,0,0,0,0,0,0,0,1,0,0,0,0,0,0,512,
scooby_state_459920|63|1 512,0,0,0,0,0,0,0,0,0,0,0,0,0,0,512,
scooby_state_45993b|13|1 511,0,0,0,0,0,0,0,0,0,0,0,1,0,0,512,
scooby_state_459958|46|1 511,0,0,0,0,0,0,0,1,0,0,0,0,0,0,512,
scooby_state_45a0be|60|1 509,1,0,0,0,0,0,0,1,0,0,0,0,0,1,512,
scooby_state_459929|8|1 512,0,0,0,0,0,0,0,0,0,0,0,0,0,0,512,
scooby_state_45ae71|16|1 509,0,0,0,0,0,1,0,0,0,0,1,0,0,1,512,
scooby_state_45ad1e|16|1 512,0,0,0,0,0,0,0,0,0,0,0,0,0,0,512,
scooby_state_459936|15|1 511,0,0,0,0,0,0,1,0,0,0,0,0,0,0,512,
scooby_state_45b25c|52|1 511,0,0,0,0,0,0,0,0,0,0,0,0,0,1,512,
scooby_state_45b266|27|1 511,0,0,0,0,0,0,0,1,0,0,0,0,0,0,512,
scooby_state_45b266|28|1 512,0,0,0,0,0,0,0,0,0,0,0,0,0,0,512,
scooby_state_459929|59|1 508,0,0,0,0,0,0,0,0,0,1,1,2,0,0,512,
scooby_state_45b266|29|1 512,0,0,0,0,0,0,0,0,0,0,0,0,0,0,512,
scooby_state_45b266|30|1 511,0,0,1,0,0,0,0,0,0,0,0,0,0,0,512,
scooby_state_45b266|34|1 511,0,0,1,0,0,0,0,0,0,0,0,0,0,0,512,
scooby_state_45993b|26|1 512,0,0,0,0,0,0,0,0,0,0,0,0,0,0,512,
scooby_state_45b25c|51|1 511,0,0,0,0,0,1,0,0,0,0,0,0,0,0,512,
scooby_state_459936|35|1 512,0,0,0,0,0,0,0,0,0,0,0,0,0,0,512,
scooby_state_459936|3|1 510,0,0,0,0,0,0,1,0,0,0,0,1,0,0,512,
scooby_state_45b25c|53|1 511,0,0,0,0,0,0,0,0,0,0,1,0,0,0,512,
scooby_state_45b266|33|1 510,0,0,0,1,0,0,0,0,0,0,0,1,0,0,512,
scooby_state_459958|36|1 506,1,1,1,0,0,1,0,0,1,0,0,0,1,0,512,
scooby_state_45b266|47|1 510,1,0,0,0,0,1,0,0,0,0,0,0,0,0,512,
scooby_state_45b266|35|1 510,0,0,0,0,0,0,0,0,0,0,0,0,2,0,512,
scooby_state_45993b|59|1 511,1,0,0,0,0,0,0,0,0,0,0,0,0,0,512,
scooby_state_459969|35|1 511,0,0,0,0,0,0,1,0,0,0,0,0,0,0,512,
scooby_state_45b25c|41|1 511,0,0,0,0,0,0,1,0,0,0,0,0,0,0,512,
scooby_state_459969|25|1 512,0,0,0,0,0,0,0,0,0,0,0,0,0,0,512,
scooby_state_45b266|12|1 509,0,0,1,0,1,0,0,0,1,0,0,0,0,0,512,
scooby_state_45b266|13|1 511,0,1,0,0,0,0,0,0,0,0,0,0,0,0,512,
scooby_state_45b266|16|1 512,0,0,0,0,0,0,0,0,0,0,0,0,0,0,512,
scooby_state_45b266|6|1 510,0,1,0,0,0,0,1,0,0,0,0,0,0,0,512,
scooby_state_45b266|18|1 512,0,0,0,0,0,0,0,0,0,0,0,0,0,0,512,
scooby_state_45b266|19|1 512,0,0,0,0,0,0,0,0,0,0,0,0,0,0,512,
scooby_state_45b266|20|1 511,0,0,0,0,0,0,0,0,1,0,0,0,0,0,512,
scooby_state_459920|56|1 512,0,0,0,0,0,0,0,0,0,0,0,0,0,0,512,
scooby_state_45af04|28|2 11,1,1,1,498,0,0,0,0,0,0,0,0,0,0,512,
scooby_state_45b266|21|1 512,0,0,0,0,0,0,0,0,0,0,0,0,0,0,512,
scooby_state_45b25c|42|1 511,0,0,0,0,0,0,0,0,0,0,0,1,0,0,512,
scooby_state_45b266|32|1 512,0,0,0,0,0,0,0,0,0,0,0,0,0,0,512,
scooby_state_45b25c|43|1 512,0,0,0,0,0,0,0,0,0,0,0,0,0,0,512,
scooby_state_45b266|24|1 512,0,0,0,0,0,0,0,0,0,0,0,0,0,0,512,
scooby_state_459929|18|1 510,0,0,0,0,0,1,0,0,0,0,0,0,1,0,512,
scooby_state_45ad1e|6|1 510,0,0,0,1,0,0,1,0,0,0,0,0,0,0,512,
scooby_state_45ae52|43|1 510,0,0,0,0,0,0,0,1,0,0,1,0,0,0,512,
scooby_state_45add3|29|1 512,0,0,0,0,0,0,0,0,0,0,0,0,0,0,512,
scooby_state_45ae52|47|1 512,0,0,0,0,0,0,0,0,0,0,0,0,0,0,512,
scooby_state_45ae52|30|1 512,0,0,0,0,0,0,0,0,0,0,0,0,0,0,512,
scooby_state_459969|17|1 511,0,0,0,0,0,0,0,0,1,0,0,0,0,0,512,
scooby_state_45a0be|30|1 511,0,0,0,0,0,1,0,0,0,0,0,0,0,0,512,
scooby_state_45993b|63|1 512,0,0,0,0,0,0,0,0,0,0,0,0,0,0,512,
scooby_state_45ae52|49|1 511,0,0,0,0,0,0,0,0,0,0,1,0,0,0,512,
scooby_state_45add3|27|1 512,0,0,0,0,0,0,0,0,0,0,0,0,0,0,512,
scooby_state_45b266|62|1 512,0,0,0,0,0,0,0,0,0,0,0,0,0,0,512,
scooby_state_45ae52|31|1 510,0,0,0,0,0,0,0,0,0,0,0,1,1,0,512,
scooby_state_45ae52|32|1 512,0,0,0,0,0,0,0,0,0,0,0,0,0,0,512,
scooby_state_45aed4|29|-6 512,0,0,0,0,0,0,0,0,0,0,0,0,0,0,512,
scooby_state_45ae52|39|1 512,0,0,0,0,0,0,0,0,0,0,0,0,0,0,512,
scooby_state_459b1f|7|1 510,0,0,0,0,0,0,0,1,1,0,0,0,0,0,512,
scooby_state_45ad1e|60|1 509,2,0,0,1,0,0,0,0,0,0,0,0,0,0,512,
scooby_state_459936|6|1 511,0,0,0,0,0,0,1,0,0,0,0,0,0,0,512,
scooby_state_45ad1e|50|1 510,1,0,0,0,0,0,0,0,1,0,0,0,0,0,512,
scooby_state_45a0be|3|1 509,0,0,0,1,0,1,0,0,1,0,0,0,0,0,512,
scooby_state_459920|50|1 509,0,0,0,0,0,1,1,1,0,0,0,0,0,0,512,
scooby_state_459929|51|1 511,0,0,0,0,0,1,0,0,0,0,0,0,0,0,512,
scooby_state_45ad1e|47|1 511,0,0,0,0,0,1,0,0,0,0,0,0,0,0,512,
scooby_state_45ad1e|10|1 509,1,1,0,0,0,0,1,0,0,0,0,0,0,0,512,
scooby_state_459920|45|1 512,0,0,0,0,0,0,0,0,0,0,0,0,0,0,512,
scooby_state_459958|58|1 511,0,0,0,0,0,0,1,0,0,0,0,0,0,0,512,
scooby_state_45ae71|55|1 510,0,0,0,0,0,0,0,1,0,0,1,0,0,0,512,
scooby_state_45add3|35|1 512,0,0,0,0,0,0,0,0,0,0,0,0,0,0,512,
scooby_state_45add3|24|1 512,0,0,0,0,0,0,0,0,0,0,0,0,0,0,512,
scooby_state_45ae52|24|1 510,0,1,0,0,0,0,0,0,0,1,0,0,0,0,512,
scooby_state_45ad1e|51|1 510,0,0,0,1,1,0,0,0,0,0,0,0,0,0,512,
scooby_state_45ae71|61|1 510,0,0,0,0,0,0,0,0,0,0,1,1,0,0,512,
scooby_state_459936|36|1 511,0,0,1,0,0,0,0,0,0,0,0,0,0,0,512,
scooby_state_45ae52|26|1 509,0,0,1,1,0,0,0,0,1,0,0,0,0,0,512,
scooby_state_45ad1e|53|1 511,0,0,0,0,0,0,1,0,0,0,0,0,0,0,512,
scooby_state_45ad1e|34|1 510,1,0,1,0,0,0,0,0,0,0,0,0,0,0,512,
scooby_state_459b1f|52|1 512,0,0,0,0,0,0,0,0,0,0,0,0,0,0,512,
scooby_state_459969|36|1 511,0,0,0,0,0,0,1,0,0,0,0,0,0,0,512,
scooby_state_45ad1e|55|1 512,0,0,0,0,0,0,0,0,0,0,0,0,0,0,512,
scooby_state_459969|49|1 510,0,0,0,0,1,0,0,0,0,0,0,1,0,0,512,
scooby_state_459929|19|1 511,0,0,0,0,0,0,1,0,0,0,0,0,0,0,512,
scooby_state_459936|59|1 511,0,0,0,0,0,0,0,0,0,1,0,0,0,0,512,
scooby_state_459969|42|1 512,0,0,0,0,0,0,0,0,0,0,0,0,0,0,512,
scooby_state_45993b|5|1 511,0,0,0,0,0,1,0,0,0,0,0,0,0,0,512,
scooby_state_459920|38|1 509,1,1,0,1,0,0,0,0,0,0,0,0,0,0,512,
scooby_state_45a0be|8|1 511,0,0,0,0,0,0,0,0,0,0,0,0,1,0,512,
scooby_state_45a0be|58|1 511,0,0,0,0,0,0,1,0,0,0,0,0,0,0,512,
scooby_state_45993b|44|1 511,0,0,0,0,0,0,0,0,0,0,1,0,0,0,512,
scooby_state_45ae52|33|1 511,0,0,0,0,0,1,0,0,0,0,0,0,0,0,512,
scooby_state_45ad1e|35|1 512,0,0,0,0,0,0,0,0,0,0,0,0,0,0,512,
scooby_state_459b1f|1|1 511,0,0,0,0,0,0,0,0,0,0,0,1,0,0,512,
scooby_state_459958|39|1 509,2,0,0,0,0,0,1,0,0,0,0,0,0,0,512,
scooby_state_45add3|23|1 510,0,0,0,0,0,1,0,1,0,0,0,0,0,0,512,
scooby_state_459936|58|1 511,0,0,0,0,1,0,0,0,0,0,0,0,0,0,512,
scooby_state_45ad1e|18|1 511,0,0,0,0,1,0,0,0,0,0,0,0,0,0,512,
scooby_state_45ae52|36|1 512,0,0,0,0,0,0,0,0,0,0,0,0,0,0,512,
scooby_state_45ad1e|63|1 512,0,0,0,0,0,0,0,0,0,0,0,0,0,0,512,
scooby_state_45ae52|37|1 511,0,0,0,1,0,0,0,0,0,0,0,0,0,0,512,
scooby_state_459936|18|1 509,0,0,0,0,0,0,1,0,0,0,1,0,0,1,512,
scooby_state_45ad1e|1|1 511,0,0,0,1,0,0,0,0,0,0,0,0,0,0,512,
scooby_state_45993b|42|1 508,1,0,0,0,0,0,0,0,2,0,0,0,0,1,512,
scooby_state_45ae52|12|1 512,0,0,0,0,0,0,0,0,0,0,0,0,0,0,512,
scooby_state_459958|56|1 512,0,0,0,0,0,0,0,0,0,0,0,0,0,0,512,
scooby_state_45ae52|41|1 511,0,0,0,0,1,0,0,0,0,0,0,0,0,0,512,
scooby_state_459920|55|1 512,0,0,0,0,0,0,0,0,0,0,0,0,0,0,512,
scooby_state_459936|43|1 510,0,0,0,0,0,0,0,0,0,1,1,0,0,0,512,
scooby_state_459958|8|1 510,0,0,0,0,0,0,0,0,0,0,1,0,0,1,512,
scooby_state_45aedc|26|-3 510,0,0,0,0,0,0,0,1,1,0,0,0,0,0,512,
scooby_state_45aef2|50|17 12,12,12,12,279,12,12,8,8,7,8,11,12,12,95,512,
scooby_state_45ae52|59|1 512,0,0,0,0,0,0,0,0,0,0,0,0,0,0,512,
scooby_state_45993b|43|1 512,0,0,0,0,0,0,0,0,0,0,0,0,0,0,512,
scooby_state_459958|48|1 512,0,0,0,0,0,0,0,0,0,0,0,0,0,0,512,
scooby_state_45a0be|18|1 512,0,0,0,0,0,0,0,0,0,0,0,0,0,0,512,
scooby_state_45a0be|17|1 512,0,0,0,0,0,0,0,0,0,0,0,0,0,0,512,
scooby_state_459936|53|1 512,0,0,0,0,0,0,0,0,0,0,0,0,0,0,512,
scooby_state_45a0be|15|1 512,0,0,0,0,0,0,0,0,0,0,0,0,0,0,512,
scooby_state_459936|32|1 512,0,0,0,0,0,0,0,0,0,0,0,0,0,0,512,
scooby_state_459969|46|1 511,0,0,0,0,0,0,0,1,0,0,0,0,0,0,512,
scooby_state_45a0be|13|1 512,0,0,0,0,0,0,0,0,0,0,0,0,0,0,512,
scooby_state_459936|51|1 512,0,0,0,0,0,0,0,0,0,0,0,0,0,0,512,
scooby_state_45a0be|43|1 512,0,0,0,0,0,0,0,0,0,0,0,0,0,0,512,
scooby_state_459b1f|48|1 509,0,0,0,0,0,0,0,0,1,0,0,1,0,1,512,
scooby_state_459958|45|1 511,0,0,0,0,1,0,0,0,0,0,0,0,0,0,512,
scooby_state_45a0be|10|1 512,0,0,0,0,0,0,0,0,0,0,0,0,0,0,512,
scooby_state_45a0be|9|1 512,0,0,0,0,0,0,0,0,0,0,0,0,0,0,512,
scooby_state_459969|44|1 510,0,0,0,0,1,0,0,1,0,0,0,0,0,0,512,
[...]
scooby_state_45a0b0|45|1 1,0,0,0,0,0,0,0,0,0,0,0,0,0,0,1,
scooby_state_45a0b0|44|1 1,0,0,0,0,0,0,0,0,0,0,0,0,0,0,1,
scooby_state_45aa6b|63|1 1,0,0,0,0,0,0,0,0,0,0,0,0,0,0,1,
scooby_state_45b261|52|1 1,0,0,0,0,0,0,0,0,0,0,0,0,0,0,1,
scooby_state_45add3|50|2 1,0,0,0,0,0,0,0,0,0,0,0,0,0,0,1,
scooby_state_45b261|51|1 1,0,0,0,0,0,0,0,0,0,0,0,0,0,0,1,
scooby_state_45a130|26|1 1,0,0,0,0,0,0,0,0,0,0,0,0,0,0,1,
scooby_state_45b261|50|1 1,0,0,0,0,0,0,0,0,0,0,0,0,0,0,1,
scooby_state_45aa60|37|1 1,0,0,0,0,0,0,0,0,0,0,0,0,0,0,1,
scooby_state_45b261|47|1 1,0,0,0,0,0,0,0,0,0,0,0,0,0,0,1,
scooby_state_45b261|46|1 1,0,0,0,0,0,0,0,0,0,0,0,0,0,0,1,
scooby_state_45b261|45|1 1,0,0,0,0,0,0,0,0,0,0,0,0,0,0,1,
scooby_state_45acc1|51|1 1,0,0,0,0,0,0,0,0,0,0,0,0,0,0,1,
scooby_state_45a2c7|33|-26 1,0,0,0,0,0,0,0,0,0,0,0,0,0,0,1,
scooby_state_45b261|7|1 1,0,0,0,0,0,0,0,0,0,0,0,0,0,0,1,
scooby_state_45a0b9|5|1 1,0,0,0,0,0,0,0,0,0,0,0,0,0,0,1,
scooby_state_45a9f9|6|-1 1,0,0,0,0,0,0,0,0,0,0,0,0,0,0,1,
scooby_state_45b261|44|1 1,0,0,0,0,0,0,0,0,0,0,0,0,0,0,1,
scooby_state_45add3|16|5 1,0,0,0,0,0,0,0,0,0,0,0,0,0,0,1,
scooby_state_45add3|50|12 1,0,0,0,0,0,0,0,0,0,0,0,0,0,0,1,
scooby_state_45b36f|52|1 1,0,0,0,0,0,0,0,0,0,0,0,0,0,0,1,
scooby_state_45b261|41|1 1,0,0,0,0,0,0,0,0,0,0,0,0,0,0,1,
scooby_state_45aa60|62|1 1,0,0,0,0,0,0,0,0,0,0,0,0,0,0,1,
scooby_state_45aa60|7|1 1,0,0,0,0,0,0,0,0,0,0,0,0,0,0,1,
scooby_state_45b261|40|1 1,0,0,0,0,0,0,0,0,0,0,0,0,0,0,1,
scooby_state_45b261|39|1 1,0,0,0,0,0,0,0,0,0,0,0,0,0,0,1,
scooby_state_45b36f|2|1 1,0,0,0,0,0,0,0,0,0,0,0,0,0,0,1,
scooby_state_45a130|9|1 1,0,0,0,0,0,0,0,0,0,0,0,0,0,0,1,
scooby_state_459e04|56|0 1,0,0,0,0,0,0,0,0,0,0,0,0,0,0,1,
scooby_state_45aa10|14|1 1,0,0,0,0,0,0,0,0,0,0,0,0,0,0,1,
scooby_state_45a0b9|37|1 1,0,0,0,0,0,0,0,0,0,0,0,0,0,0,1,
scooby_state_45a2c7|8|1 1,0,0,0,0,0,0,0,0,0,0,0,0,0,0,1,
scooby_state_45aa60|35|1 1,0,0,0,0,0,0,0,0,0,0,0,0,0,0,1,
scooby_state_459c04|18|1 1,0,0,0,0,0,0,0,0,0,0,0,0,0,0,1,
scooby_state_45b261|8|1 1,0,0,0,0,0,0,0,0,0,0,0,0,0,0,1,
scooby_state_45a1bb|20|-1 1,0,0,0,0,0,0,0,0,0,0,0,0,0,0,1,
scooby_state_45b261|6|1 1,0,0,0,0,0,0,0,0,0,0,0,0,0,0,1,
scooby_state_45b261|3|1 1,0,0,0,0,0,0,0,0,0,0,0,0,0,0,1,
scooby_state_45b261|2|1 1,0,0,0,0,0,0,0,0,0,0,0,0,0,0,1,
scooby_state_45aa1a|48|1 1,0,0,0,0,0,0,0,0,0,0,0,0,0,0,1,
scooby_state_45b261|1|1 1,0,0,0,0,0,0,0,0,0,0,0,0,0,0,1,
scooby_state_45b261|0|-63 1,0,0,0,0,0,0,0,0,0,0,0,0,0,0,1,
scooby_state_45aa1a|63|1 1,0,0,0,0,0,0,0,0,0,0,0,0,0,0,1,
scooby_state_45b261|63|1 1,0,0,0,0,0,0,0,0,0,0,0,0,0,0,1,
scooby_state_459b1f|57|-1 1,0,0,0,0,0,0,0,0,0,0,0,0,0,0,1,
scooby_state_45b261|62|1 1,0,0,0,0,0,0,0,0,0,0,0,0,0,0,1,
scooby_state_45b175|14|-2 1,0,0,0,0,0,0,0,0,0,0,0,0,0,0,1,
scooby_state_45b261|60|1 1,0,0,0,0,0,0,0,0,0,0,0,0,0,0,1,
scooby_state_45ae77|22|4 1,0,0,0,0,0,0,0,0,0,0,0,0,0,0,1,
scooby_state_45a2c7|29|1 1,0,0,0,0,0,0,0,0,0,0,0,0,0,0,1,
scooby_state_45b261|58|1 1,0,0,0,0,0,0,0,0,0,0,0,0,0,0,1,
scooby_state_45a91a|59|0 1,0,0,0,0,0,0,0,0,0,0,0,0,0,0,1,
scooby_state_45a2c7|35|-26 1,0,0,0,0,0,0,0,0,0,0,0,0,0,0,1,
scooby_state_45b261|57|1 1,0,0,0,0,0,0,0,0,0,0,0,0,0,0,1,
scooby_state_45a130|7|1 1,0,0,0,0,0,0,0,0,0,0,0,0,0,0,1,
scooby_state_45b261|56|1 1,0,0,0,0,0,0,0,0,0,0,0,0,0,0,1,
scooby_state_459c0c|46|-1 1,0,0,0,0,0,0,0,0,0,0,0,0,0,0,1,
scooby_state_45aa1a|11|1 1,0,0,0,0,0,0,0,0,0,0,0,0,0,0,1,
scooby_state_45b0f3|27|-9 1,0,0,0,0,0,0,0,0,0,0,0,0,0,0,1,
scooby_state_45a9d1|7|-22 1,0,0,0,0,0,0,0,0,0,0,0,0,0,0,1,
scooby_state_45ae67|32|2 1,0,0,0,0,0,0,0,0,0,0,0,0,0,0,1,
scooby_state_45ae67|29|2 1,0,0,0,0,0,0,0,0,0,0,0,0,0,0,1,
scooby_state_45ae71|11|2 1,0,0,0,0,0,0,0,0,0,0,0,0,0,0,1,
scooby_state_45ae71|2|2 1,0,0,0,0,0,0,0,0,0,0,0,0,0,0,1,
scooby_state_45b2c5|11|0 1,0,0,0,0,0,0,0,0,0,0,0,0,0,0,1,
scooby_state_45ae67|1|-62 1,0,0,0,0,0,0,0,0,0,0,0,0,0,0,1,
scooby_state_45ae67|41|2 1,0,0,0,0,0,0,0,0,0,0,0,0,0,0,1,
scooby_state_45ab31|38|27 1,0,0,0,0,0,0,0,0,0,0,0,0,0,0,1,
scooby_state_45ae67|17|2 1,0,0,0,0,0,0,0,0,0,0,0,0,0,0,1,
scooby_state_45a0b0|54|1 1,0,0,0,0,0,0,0,0,0,0,0,0,0,0,1,
scooby_state_45ae67|57|2 1,0,0,0,0,0,0,0,0,0,0,0,0,0,0,1,
scooby_state_45b143|5|0 1,0,0,0,0,0,0,0,0,0,0,0,0,0,0,1,
scooby_state_459c53|17|0 1,0,0,0,0,0,0,0,0,0,0,0,0,0,0,1,
scooby_state_459c04|57|1 1,0,0,0,0,0,0,0,0,0,0,0,0,0,0,1,
scooby_state_45aa10|44|1 1,0,0,0,0,0,0,0,0,0,0,0,0,0,0,1,
scooby_state_459c04|20|1 1,0,0,0,0,0,0,0,0,0,0,0,0,0,0,1,
scooby_state_45aa1a|23|1 1,0,0,0,0,0,0,0,0,0,0,0,0,0,0,1,
scooby_state_45aa10|11|1 1,0,0,0,0,0,0,0,0,0,0,0,0,0,0,1,
scooby_state_45ae42|57|1 1,0,0,0,0,0,0,0,0,0,0,0,0,0,0,1,
scooby_state_45b261|5|1 1,0,0,0,0,0,0,0,0,0,0,0,0,0,0,1,
scooby_state_45aa10|13|1 1,0,0,0,0,0,0,0,0,0,0,0,0,0,0,1,
scooby_state_45b25c|57|-1 1,0,0,0,0,0,0,0,0,0,0,0,0,0,0,1,
scooby_state_45b261|4|1 1,0,0,0,0,0,0,0,0,0,0,0,0,0,0,1,
scooby_state_45b261|37|1 1,0,0,0,0,0,0,0,0,0,0,0,0,0,0,1,
scooby_state_45aa6b|29|1 1,0,0,0,0,0,0,0,0,0,0,0,0,0,0,1,
scooby_state_45b214|11|0 1,0,0,0,0,0,0,0,0,0,0,0,0,0,0,1,
scooby_state_45adce|16|-47 1,0,0,0,0,0,0,0,0,0,0,0,0,0,0,1,
scooby_state_45a044|27|17 1,0,0,0,0,0,0,0,0,0,0,0,0,0,0,1,
scooby_state_45adce|22|-41 1,0,0,0,0,0,0,0,0,0,0,0,0,0,0,1,
scooby_state_45ae71|57|2 1,0,0,0,0,0,0,0,0,0,0,0,0,0,0,1,
scooby_state_45aa6b|61|1 1,0,0,0,0,0,0,0,0,0,0,0,0,0,0,1,
scooby_state_45a130|29|1 1,0,0,0,0,0,0,0,0,0,0,0,0,0,0,1,
scooby_state_459c04|24|1 1,0,0,0,0,0,0,0,0,0,0,0,0,0,0,1,
scooby_state_45a0b9|14|1 1,0,0,0,0,0,0,0,0,0,0,0,0,0,0,1,
scooby_state_45b261|30|1 1,0,0,0,0,0,0,0,0,0,0,0,0,0,0,1,
scooby_state_45b261|29|1 1,0,0,0,0,0,0,0,0,0,0,0,0,0,0,1,
scooby_state_45b261|28|0 1,0,0,0,0,0,0,0,0,0,0,0,0,0,0,1,
scooby_state_459c04|60|1 1,0,0,0,0,0,0,0,0,0,0,0,0,0,0,1,
scooby_state_45b25c|29|0 1,0,0,0,0,0,0,0,0,0,0,0,0,0,0,1,
scooby_state_45b261|10|1 1,0,0,0,0,0,0,0,0,0,0,0,0,0,0,1,
scooby_state_45b204|24|-1 1,0,0,0,0,0,0,0,0,0,0,0,0,0,0,1,
scooby_state_459b1f|62|-1 1,0,0,0,0,0,0,0,0,0,0,0,0,0,0,1,
scooby_state_45b1fb|25|2 1,0,0,0,0,0,0,0,0,0,0,0,0,0,0,1,
scooby_state_45b1c7|23|4 1,0,0,0,0,0,0,0,0,0,0,0,0,0,0,1,
scooby_state_45b243|9|1 1,0,0,0,0,0,0,0,0,0,0,0,0,0,0,1,
scooby_state_45b204|8|1 1,0,0,0,0,0,0,0,0,0,0,0,0,0,0,1,
scooby_state_45b1c3|7|1 1,0,0,0,0,0,0,0,0,0,0,0,0,0,0,1,
scooby_state_45b261|59|1 1,0,0,0,0,0,0,0,0,0,0,0,0,0,0,1,
scooby_state_45b16d|16|-17 1,0,0,0,0,0,0,0,0,0,0,0,0,0,0,1,
scooby_state_45b165|33|15 1,0,0,0,0,0,0,0,0,0,0,0,0,0,0,1,
scooby_state_45b182|6|1 1,0,0,0,0,0,0,0,0,0,0,0,0,0,0,1,
scooby_state_45b4cb|14|-1 1,0,0,0,0,0,0,0,0,0,0,0,0,0,0,1,
scooby_state_45a2c7|57|1 1,0,0,0,0,0,0,0,0,0,0,0,0,0,0,1,
scooby_state_45b36f|12|1 1,0,0,0,0,0,0,0,0,0,0,0,0,0,0,1,
scooby_state_459d7b|3|1 1,0,0,0,0,0,0,0,0,0,0,0,0,0,0,1,
scooby_state_45b36f|10|1 1,0,0,0,0,0,0,0,0,0,0,0,0,0,0,1,
scooby_state_45b36f|9|1 1,0,0,0,0,0,0,0,0,0,0,0,0,0,0,1,
scooby_state_45b36f|5|1 1,0,0,0,0,0,0,0,0,0,0,0,0,0,0,1,
scooby_state_45a119|35|11 1,0,0,0,0,0,0,0,0,0,0,0,0,0,0,1,
scooby_state_459c04|50|1 1,0,0,0,0,0,0,0,0,0,0,0,0,0,0,1,
scooby_state_45b36f|0|-63 1,0,0,0,0,0,0,0,0,0,0,0,0,0,0,1,
scooby_state_45b36f|63|1 1,0,0,0,0,0,0,0,0,0,0,0,0,0,0,1,
scooby_state_45b410|28|3 1,0,0,0,0,0,0,0,0,0,0,0,0,0,0,1,
scooby_state_45a130|37|1 1,0,0,0,0,0,0,0,0,0,0,0,0,0,0,1,
scooby_state_45b36f|58|1 1,0,0,0,0,0,0,0,0,0,0,0,0,0,0,1,
scooby_state_45a130|46|1 1,0,0,0,0,0,0,0,0,0,0,0,0,0,0,1,
scooby_state_45b36f|57|1 1,0,0,0,0,0,0,0,0,0,0,0,0,0,0,1,
scooby_state_45b36f|37|1 1,0,0,0,0,0,0,0,0,0,0,0,0,0,0,1,
scooby_state_45b36f|56|1 1,0,0,0,0,0,0,0,0,0,0,0,0,0,0,1,
scooby_state_45b36f|55|1 1,0,0,0,0,0,0,0,0,0,0,0,0,0,0,1,
scooby_state_45b36f|54|1 1,0,0,0,0,0,0,0,0,0,0,0,0,0,0,1,
scooby_state_45ae67|1|0 1,0,0,0,0,0,0,0,0,0,0,0,0,0,0,1,
scooby_state_45a2c7|36|1 1,0,0,0,0,0,0,0,0,0,0,0,0,0,0,1,
scooby_state_45b36f|53|1 1,0,0,0,0,0,0,0,0,0,0,0,0,0,0,1,
scooby_state_45b36f|50|1 1,0,0,0,0,0,0,0,0,0,0,0,0,0,0,1,
scooby_state_45b261|55|1 1,0,0,0,0,0,0,0,0,0,0,0,0,0,0,1,
scooby_state_45b365|52|-2 1,0,0,0,0,0,0,0,0,0,0,0,0,0,0,1,
scooby_state_45b360|53|0 1,0,0,0,0,0,0,0,0,0,0,0,0,0,0,1,
scooby_state_45b348|13|1 1,0,0,0,0,0,0,0,0,0,0,0,0,0,0,1,
scooby_state_45a130|45|1 1,0,0,0,0,0,0,0,0,0,0,0,0,0,0,1,
scooby_state_45a0b0|27|1 1,0,0,0,0,0,0,0,0,0,0,0,0,0,0,1,
scooby_state_459d7b|37|1 1,0,0,0,0,0,0,0,0,0,0,0,0,0,0,1,
scooby_state_459d7b|4|1 1,0,0,0,0,0,0,0,0,0,0,0,0,0,0,1,
scooby_state_45b36f|41|1 1,0,0,0,0,0,0,0,0,0,0,0,0,0,0,1,
scooby_state_45b36f|39|1 1,0,0,0,0,0,0,0,0,0,0,0,0,0,0,1,
scooby_state_45b36f|36|1 1,0,0,0,0,0,0,0,0,0,0,0,0,0,0,1,
scooby_state_45b36f|35|1 1,0,0,0,0,0,0,0,0,0,0,0,0,0,0,1,
scooby_state_45a2c7|34|1 1,0,0,0,0,0,0,0,0,0,0,0,0,0,0,1,
scooby_state_459b1f|59|2 1,0,0,0,0,0,0,0,0,0,0,0,0,0,0,1,
scooby_state_45b36f|31|1 1,0,0,0,0,0,0,0,0,0,0,0,0,0,0,1,
scooby_state_45b36f|30|1 1,0,0,0,0,0,0,0,0,0,0,0,0,0,0,1,
scooby_state_45a0b0|34|1 1,0,0,0,0,0,0,0,0,0,0,0,0,0,0,1,
scooby_state_45b36f|28|1 1,0,0,0,0,0,0,0,0,0,0,0,0,0,0,1,
scooby_state_45a0b9|0|0 1,0,0,0,0,0,0,0,0,0,0,0,0,0,0,1,
scooby_state_45b320|35|7 1,0,0,0,0,0,0,0,0,0,0,0,0,0,0,1,
scooby_state_45b36f|27|1 1,0,0,0,0,0,0,0,0,0,0,0,0,0,0,1,
scooby_state_45b36f|26|1 1,0,0,0,0,0,0,0,0,0,0,0,0,0,0,1,
scooby_state_45b36f|23|1 1,0,0,0,0,0,0,0,0,0,0,0,0,0,0,1,
scooby_state_45b36f|22|1 1,0,0,0,0,0,0,0,0,0,0,0,0,0,0,1,
scooby_state_45aa60|32|1 1,0,0,0,0,0,0,0,0,0,0,0,0,0,0,1,
scooby_state_45b36f|21|1 1,0,0,0,0,0,0,0,0,0,0,0,0,0,0,1,
scooby_state_45b36f|20|1 1,0,0,0,0,0,0,0,0,0,0,0,0,0,0,1,
scooby_state_45b36f|17|1 1,0,0,0,0,0,0,0,0,0,0,0,0,0,0,1,
scooby_state_45b36f|16|1 1,0,0,0,0,0,0,0,0,0,0,0,0,0,0,1,
scooby_state_45b36f|15|1 1,0,0,0,0,0,0,0,0,0,0,0,0,0,0,1,
scooby_state_45b36f|14|1 1,0,0,0,0,0,0,0,0,0,0,0,0,0,0,1,
scooby_state_45b36f|13|1 1,0,0,0,0,0,0,0,0,0,0,0,0,0,0,1,
scooby_state_45b261|22|1 1,0,0,0,0,0,0,0,0,0,0,0,0,0,0,1,
scooby_state_45a0b0|10|1 1,0,0,0,0,0,0,0,0,0,0,0,0,0,0,1,
scooby_state_45b25c|63|2 1,0,0,0,0,0,0,0,0,0,0,0,0,0,0,1,
scooby_state_45b25c|61|-1 1,0,0,0,0,0,0,0,0,0,0,0,0,0,0,1,
scooby_state_45a3d2|24|4 1,0,0,0,0,0,0,0,0,0,0,0,0,0,0,1,
scooby_state_45aa1a|40|1 1,0,0,0,0,0,0,0,0,0,0,0,0,0,0,1,
scooby_state_45aa85|42|1 1,0,0,0,0,0,0,0,0,0,0,0,0,0,0,1,
scooby_state_45a2c7|20|1 1,0,0,0,0,0,0,0,0,0,0,0,0,0,0,1,
scooby_state_45b261|28|1 1,0,0,0,0,0,0,0,0,0,0,0,0,0,0,1,
scooby_state_45a0b9|24|1 1,0,0,0,0,0,0,0,0,0,0,0,0,0,0,1,
scooby_state_45b261|25|1 1,0,0,0,0,0,0,0,0,0,0,0,0,0,0,1,
scooby_state_45aa10|28|1 1,0,0,0,0,0,0,0,0,0,0,0,0,0,0,1,
scooby_state_45b261|23|1 1,0,0,0,0,0,0,0,0,0,0,0,0,0,0,1,
scooby_state_459c04|13|1 1,0,0,0,0,0,0,0,0,0,0,0,0,0,0,1,
scooby_state_459c04|56|1 1,0,0,0,0,0,0,0,0,0,0,0,0,0,0,1,
scooby_state_45a0b0|35|1 1,0,0,0,0,0,0,0,0,0,0,0,0,0,0,1,
scooby_state_459c04|10|1 1,0,0,0,0,0,0,0,0,0,0,0,0,0,0,1,
scooby_state_45b261|20|1 1,0,0,0,0,0,0,0,0,0,0,0,0,0,0,1,
scooby_state_45b261|19|1 1,0,0,0,0,0,0,0,0,0,0,0,0,0,0,1,
scooby_state_45a0b0|58|1 1,0,0,0,0,0,0,0,0,0,0,0,0,0,0,1,
scooby_state_45b261|18|1 1,0,0,0,0,0,0,0,0,0,0,0,0,0,0,1,
scooby_state_45b261|15|1 1,0,0,0,0,0,0,0,0,0,0,0,0,0,0,1,
scooby_state_45b261|14|1 1,0,0,0,0,0,0,0,0,0,0,0,0,0,0,1,
scooby_state_45b261|13|1 1,0,0,0,0,0,0,0,0,0,0,0,0,0,0,1,
scooby_state_45a130|49|1 1,0,0,0,0,0,0,0,0,0,0,0,0,0,0,1,
scooby_state_45b261|12|1 1,0,0,0,0,0,0,0,0,0,0,0,0,0,0,1,
scooby_state_45b261|11|1 1,0,0,0,0,0,0,0,0,0,0,0,0,0,0,1,
scooby_state_45b25c|37|2 1,0,0,0,0,0,0,0,0,0,0,0,0,0,0,1,
scooby_state_459c04|6|1 1,0,0,0,0,0,0,0,0,0,0,0,0,0,0,1,
scooby_state_45b2e0|6|-10 1,0,0,0,0,0,0,0,0,0,0,0,0,0,0,1,
scooby_state_459b6c|9|-8 1,0,0,0,0,0,0,0,0,0,0,0,0,0,0,1,
scooby_state_45b2bd|17|-1 1,0,0,0,0,0,0,0,0,0,0,0,0,0,0,1,
scooby_state_45b2b3|18|0 1,0,0,0,0,0,0,0,0,0,0,0,0,0,0,1,
scooby_state_45b300|12|1 1,0,0,0,0,0,0,0,0,0,0,0,0,0,0,1,
scooby_state_45b25c|12|-1 1,0,0,0,0,0,0,0,0,0,0,0,0,0,0,1,
scooby_state_45b25c|17|-1 1,0,0,0,0,0,0,0,0,0,0,0,0,0,0,1,
scooby_state_45aa6b|32|1 1,0,0,0,0,0,0,0,0,0,0,0,0,0,0,1,
scooby_state_45b25c|45|3 1,0,0,0,0,0,0,0,0,0,0,0,0,0,0,1,
scooby_state_45b36f|7|1 1,0,0,0,0,0,0,0,0,0,0,0,0,0,0,1,
scooby_state_45b25c|49|2 1,0,0,0,0,0,0,0,0,0,0,0,0,0,0,1,
scooby_state_45b25c|43|3 1,0,0,0,0,0,0,0,0,0,0,0,0,0,0,1,
scooby_state_45a130|59|1 1,0,0,0,0,0,0,0,0,0,0,0,0,0,0,1,
scooby_state_459d7b|13|1 1,0,0,0,0,0,0,0,0,0,0,0,0,0,0,1,
scooby_state_45b25c|49|-1 1,0,0,0,0,0,0,0,0,0,0,0,0,0,0,1,
scooby_state_45b25c|41|-1 1,0,0,0,0,0,0,0,0,0,0,0,0,0,0,1,
scooby_state_45b36f|51|1 1,0,0,0,0,0,0,0,0,0,0,0,0,0,0,1,
scooby_state_45b25c|58|-1 1,0,0,0,0,0,0,0,0,0,0,0,0,0,0,1,
scooby_state_45a0b0|37|1 1,0,0,0,0,0,0,0,0,0,0,0,0,0,0,1,
scooby_state_45b261|27|1 1,0,0,0,0,0,0,0,0,0,0,0,0,0,0,1,
scooby_state_459cd6|21|-9 1,0,0,0,0,0,0,0,0,0,0,0,0,0,0,1,
scooby_state_459c04|12|1 1,0,0,0,0,0,0,0,0,0,0,0,0,0,0,1,
scooby_state_45b25c|9|2 1,0,0,0,0,0,0,0,0,0,0,0,0,0,0,1,
scooby_state_45aa1a|55|1 1,0,0,0,0,0,0,0,0,0,0,0,0,0,0,1,
scooby_state_45a2c7|1|1 1,0,0,0,0,0,0,0,0,0,0,0,0,0,0,1,

scooby_action_0_deg_dist 0,980,0,0,0,0,0,0,0,0,0,0,0,0,0,0,
scooby_action_-6_deg_dist 0,517,0,0,0,0,0,0,0,0,0,0,0,0,0,0,
scooby_action_3_deg_dist 0,824,0,0,0,0,0,0,0,0,0,0,0,0,0,0,
scooby_action_32_deg_dist 0,168,0,0,0,0,0,0,0,0,0,0,0,0,0,0,
scooby_action_4_deg_dist 0,1007,0,0,0,0,0,0,0,0,0,0,0,0,0,0,
scooby_action_1_deg_dist 0,89242,51803,0,125723,0,1012558,0,0,0,0,0,0,0,0,0,
scooby_action_30_deg_dist 0,201,0,0,0,0,0,0,0,0,0,0,0,0,0,0,
scooby_action_5_deg_dist 0,504,0,0,0,0,0,0,0,0,0,0,0,0,0,0,
scooby_action_10_deg_dist 0,1126,0,0,0,0,0,0,0,0,0,0,0,0,0,0,
scooby_action_23_deg_dist 0,194,0,0,0,0,0,0,0,0,0,0,0,0,0,0,
scooby_action_-1_deg_dist 0,1197,4,0,10,0,57,0,0,0,0,0,0,0,0,0,
scooby_action_11_deg_dist 0,191,0,0,0,0,0,0,0,0,0,0,0,0,0,0,
scooby_action_12_deg_dist 0,614,0,0,0,0,0,0,0,0,0,0,0,0,0,0,
scooby_action_22_deg_dist 0,201,0,0,0,0,0,0,0,0,0,0,0,0,0,0,
scooby_action_-3_deg_dist 0,524,0,0,0,0,0,0,0,0,0,0,0,0,0,0,

scooby_track_called 1287645
scooby_track_same_address 4791
scooby_track_evict 1282598

scooby_reward_demand_called 1287645
scooby_reward_demand_pt_not_found 49489
scooby_reward_demand_pt_found 1238156
scooby_reward_demand_pt_found_total 1238156
scooby_reward_demand_has_reward 0
scooby_reward_train_called 24459
scooby_reward_assign_reward_called 1282848
scooby_reward_no_pref 980
scooby_reward_incorrect 23479
scooby_reward_correct_untimely 1105711
scooby_reward_correct_timely 132445
scooby_reward_out_of_bounds 20233
scooby_reward_tracker_hit 0

scooby_reward_none_low_bw 980
scooby_reward_none_high_bw 0
scooby_reward_incorrect_low_bw 23479
scooby_reward_incorrect_high_bw 0
scooby_reward_correct_untimely_low_bw 1105711
scooby_reward_correct_untimely_high_bw 0
scooby_reward_correct_timely_low_bw 132445
scooby_reward_correct_timely_high_bw 0
scooby_reward_out_of_bounds_low_bw 20233
scooby_reward_out_of_bounds_high_bw 0
scooby_reward_tracker_hit_low_bw 0
scooby_reward_tracker_hit_high_bw 0

scooby_reward_1 0,22114,1104290,131699,19816,0,
scooby_reward_3 0,54,97,62,7,0,
scooby_reward_4 0,69,349,74,5,0,
scooby_reward_5 0,49,53,78,9,0,
scooby_reward_10 0,471,518,106,31,0,
scooby_reward_11 0,55,18,87,31,0,
scooby_reward_12 0,62,25,78,31,0,
scooby_reward_22 0,53,13,74,61,0,
scooby_reward_23 0,51,9,67,67,0,
scooby_reward_30 0,40,5,68,79,0,
scooby_reward_32 0,33,0,52,77,0,
scooby_reward_-1 0,339,333,0,0,0,
scooby_reward_-3 0,41,1,0,9,0,
scooby_reward_-6 0,48,0,0,10,0,
scooby_reward_0 980,0,0,0,0,0,

scooby_train_called 1282597
scooby_train_compute_reward 24459

scooby_register_fill_called 965373
scooby_register_fill_set 135058
scooby_register_fill_set_total 135058

scooby_register_prefetch_hit_called 3962750
scooby_register_prefetch_hit_set 1029236
scooby_register_prefetch_hit_set_total 1029236

scooby_pref_issue_scooby 6382633

learning_engine_featurewise.action.called 1287645
learning_engine_featurewise.action.explore 2376
learning_engine_featurewise.action.exploit 1285269
learning_engine_featurewise.action.fallback 0
learning_engine_featurewise.action.dyn_fallback_saved_bw 0
learning_engine_featurewise.action.dyn_fallback_saved_bw_acc 43
learning_engine_featurewise.action.index_1_explored 155
learning_engine_featurewise.action.index_1_exploited 1279171
learning_engine_featurewise.action.index_3_explored 174
learning_engine_featurewise.action.index_3_exploited 650
learning_engine_featurewise.action.index_4_explored 161
learning_engine_featurewise.action.index_4_exploited 846
learning_engine_featurewise.action.index_5_explored 153
learning_engine_featurewise.action.index_5_exploited 351
learning_engine_featurewise.action.index_10_explored 179
learning_engine_featurewise.action.index_10_exploited 947
learning_engine_featurewise.action.index_11_explored 148
learning_engine_featurewise.action.index_11_exploited 43
learning_engine_featurewise.action.index_12_explored 161
learning_engine_featurewise.action.index_12_exploited 453
learning_engine_featurewise.action.index_22_explored 167
learning_engine_featurewise.action.index_22_exploited 34
learning_engine_featurewise.action.index_23_explored 160
learning_engine_featurewise.action.index_23_exploited 34
learning_engine_featurewise.action.index_30_explored 167
learning_engine_featurewise.action.index_30_exploited 34
learning_engine_featurewise.action.index_32_explored 139
learning_engine_featurewise.action.index_32_exploited 29
learning_engine_featurewise.action.index_-1_explored 150
learning_engine_featurewise.action.index_-1_exploited 1118
learning_engine_featurewise.action.index_-3_explored 154
learning_engine_featurewise.action.index_-3_exploited 370
learning_engine_featurewise.action.index_-6_explored 144
learning_engine_featurewise.action.index_-6_exploited 373
learning_engine_featurewise.action.index_0_explored 164
learning_engine_featurewise.action.index_0_exploited 816
learning_engine_featurewise.learn.called 1282597
learning_engine_featurewise.learn.su_skip_PC 0
learning_engine_featurewise.learn.su_skip_PC_Delta 0

learning_engine_featurewise.q_value_histogram.bucket_0 0
learning_engine_featurewise.q_value_histogram.bucket_1 0
learning_engine_featurewise.q_value_histogram.bucket_2 0
learning_engine_featurewise.q_value_histogram.bucket_3 1300
learning_engine_featurewise.q_value_histogram.bucket_4 6319
learning_engine_featurewise.q_value_histogram.bucket_5 5535
learning_engine_featurewise.q_value_histogram.bucket_6 1272115
learning_engine_featurewise.q_value_histogram.bucket_7 0

learning_engine_featurewise.consensus.total 1285269
learning_engine_featurewise.consensus.feature_align_PC 1278610
learning_engine_featurewise.consensus.feature_align_PC_ratio 0.99
learning_engine_featurewise.consensus.feature_align_PC_Delta 1282474
learning_engine_featurewise.consensus.feature_align_PC_Delta_ratio 1.00
learning_engine_featurewise.consensus.feature_align_all 1275815
learning_engine_featurewise.consensus.feature_align_all_ratio 0.99

learning_engine_featurewise.feature_PC_min_weight 1000000.00000000
learning_engine_featurewise.feature_PC_max_weight 0.00000000
learning_engine_featurewise.feature_PC_Delta_min_weight 1000000.00000000
learning_engine_featurewise.feature_PC_Delta_max_weight 0.00000000
unique_pcs 299
unique_pages 19053
unique_trigger_pcs 99
total_bitmaps_seen 0
unique_bitmaps_seen 0

scooby_bw_epochs 249014
scooby_bw_level_0 41291
scooby_bw_level_1 85938
scooby_bw_level_2 75884
scooby_bw_level_3 45901

scooby_ipc_epochs 0
scooby_ipc_level_0 0
scooby_ipc_level_1 0
scooby_ipc_level_2 0
scooby_ipc_level_3 0

scooby_cache_acc_epochs 59544
scooby_cache_acc_level_0 1
scooby_cache_acc_level_1 0
scooby_cache_acc_level_2 4
scooby_cache_acc_level_3 44
scooby_cache_acc_level_4 144
scooby_cache_acc_level_5 533
scooby_cache_acc_level_6 1620
scooby_cache_acc_level_7 4345
scooby_cache_acc_level_8 11125
scooby_cache_acc_level_9 41728

Channel_0_RQ_row_buffer_hit 344497
Channel_0_RQ_row_buffer_miss 914938
Channel_0_WQ_row_buffer_hit 71596
Channel_0_WQ_row_buffer_miss 325500
Channel_0_WQ_full 0
Channel_0_dbus_congested 956978

avg_congested_cycle 10

DRAM_bw_pochs 249014
DRAM_bw_level_0 41291
DRAM_bw_level_1 85938
DRAM_bw_level_2 75884
DRAM_bw_level_3 45901
