*************************************************
   ChampSim Multicore Out-of-Order Simulator
   Last compiled: Apr  3 2025 20:54:34
*************************************************
parsing config file: /home/zir/Pythia/config/nopref.ini

trace_0 /home/zir/ChampSim/ML-DPC/ChampSimTraces/spec17/605.mcf-s0.trace.xz
adding L2C_PREFETCHER: NONE
Initialize SHIP state
warmup_instructions 10000000
simulation_instructions 50000000
champsim_seed 163
measure_ipc 0
measure_ipc_epoch 1000
measure_dram_bw 1
measure_dram_bw_epoch 256
measure_cache_acc 1
measure_cache_acc_epoch 1024
l1d_perfect 0
l2c_perfect 0
llc_perfect 0
l1d_semi_perfect 0
l2c_semi_perfect 0
llc_semi_perfect 0
semi_perfect_cache_page_buffer_size 64

num_cpus 1
cpu_freq 4000
dram_io_freq 2400
page_size 4096
block_size 64
max_read_per_cycle 8
max_fill_per_cycle 1
dram_channels 1
log2_dram_channels 0
dram_ranks 1
dram_banks 8
dram_rows 65536
dram_columns 128
dram_row_size 8
dram_size 4096
dram_pages 1048576

fetch_width 6
decode_width 6
exec_width 4
lq_width 2
sq_width 2
retire_width 4
scheduler_size 128
branch_mispredict_penalty 20
rob_size 256
lq_size 72
sq_size 56
num_instr_destinations_sparc 4
num_instr_destinations 2
num_instr_sources 4

itlb_set 16
itlb_way 8
itlb_rq_size 16
itlb_wq_size 16
itlb_pq_size 0
itlb_mshr_size 8
itlb_latency 1

dtlb_set 16
dtlb_way 4
dtlb_rq_size 16
dtlb_wq_size 16
dtlb_pq_size 0
dtlb_mshr_size 8
dtlb_latency 1

stlb_set 128
stlb_way 12
stlb_rq_size 32
stlb_wq_size 32
stlb_pq_size 0
stlb_mshr_size 16
stlb_latency 8

l1i_size 32
l1i_set 64
l1i_way 8
l1i_rq_size 64
l1i_wq_size 64
l1i_pq_size 8
l1i_mshr_size 8
l1i_latency 1

l1d_size 32
l1d_set 64
l1d_way 8
l1d_rq_size 64
l1d_wq_size 64
l1d_pq_size 8
l1d_mshr_size 16
l1d_latency 4

l2c_size 256
l2c_set 512
l2c_way 8
l2c_rq_size 32
l2c_wq_size 32
l2c_pq_size 32
l2c_mshr_size 32
l2c_latency 10

llc_size 2048
llc_set 2048
llc_way 16
llc_rq_size 32
llc_wq_size 32
llc_pq_size 32
llc_mshr_size 64
llc_latency 20

dram_channel_width 8
dram_wq_size 64
dram_rq_size 64
tRP 15
tRCD 15
tCAS 12.5
dram_dbus_turn_around_time 30
dram_write_high_wm 56
dram_write_low_wm 48
min_dram_writes_per_switch 16
dram_mtps 2400
dram_dbus_return_time 13


Heartbeat CPU  0 instructions:    1000000 cycles:    1001167 heartbeat IPC: 0.99883 cumulative IPC: 0.99883 (Simulation time: 0 hr 0 min 1 sec) 
Heartbeat CPU  0 instructions:    2000000 cycles:    1970065 heartbeat IPC: 1.03210 cumulative IPC: 1.01519 (Simulation time: 0 hr 0 min 2 sec) 
Heartbeat CPU  0 instructions:    3000003 cycles:    2954154 heartbeat IPC: 1.01617 cumulative IPC: 1.01552 (Simulation time: 0 hr 0 min 4 sec) 
Heartbeat CPU  0 instructions:    4000000 cycles:    3934914 heartbeat IPC: 1.01961 cumulative IPC: 1.01654 (Simulation time: 0 hr 0 min 5 sec) 
Heartbeat CPU  0 instructions:    5000001 cycles:    4921187 heartbeat IPC: 1.01392 cumulative IPC: 1.01602 (Simulation time: 0 hr 0 min 6 sec) 
Heartbeat CPU  0 instructions:    6000001 cycles:    5900088 heartbeat IPC: 1.02155 cumulative IPC: 1.01693 (Simulation time: 0 hr 0 min 7 sec) 
Heartbeat CPU  0 instructions:    7000000 cycles:    6884696 heartbeat IPC: 1.01563 cumulative IPC: 1.01675 (Simulation time: 0 hr 0 min 8 sec) 
Heartbeat CPU  0 instructions:    8000000 cycles:    7888076 heartbeat IPC: 0.99663 cumulative IPC: 1.01419 (Simulation time: 0 hr 0 min 10 sec) 
Heartbeat CPU  0 instructions:    9000001 cycles:    8872378 heartbeat IPC: 1.01595 cumulative IPC: 1.01438 (Simulation time: 0 hr 0 min 11 sec) 
Heartbeat CPU  0 instructions:   10000001 cycles:    9852903 heartbeat IPC: 1.01986 cumulative IPC: 1.01493 (Simulation time: 0 hr 0 min 12 sec) 

Warmup complete CPU  0 instructions:   10000001 cycles:    9852903 (Simulation time: 0 hr 0 min 12 sec) 

Heartbeat CPU  0 instructions:   11000000 cycles:   13754327 heartbeat IPC: 0.25632 cumulative IPC: 0.25632 (Simulation time: 0 hr 0 min 14 sec) 
Heartbeat CPU  0 instructions:   12000000 cycles:   17737286 heartbeat IPC: 0.25107 cumulative IPC: 0.25367 (Simulation time: 0 hr 0 min 16 sec) 
Heartbeat CPU  0 instructions:   13000002 cycles:   21661903 heartbeat IPC: 0.25480 cumulative IPC: 0.25404 (Simulation time: 0 hr 0 min 18 sec) 
Heartbeat CPU  0 instructions:   14000002 cycles:   25481357 heartbeat IPC: 0.26182 cumulative IPC: 0.25594 (Simulation time: 0 hr 0 min 20 sec) 
Heartbeat CPU  0 instructions:   15000001 cycles:   29248715 heartbeat IPC: 0.26544 cumulative IPC: 0.25779 (Simulation time: 0 hr 0 min 22 sec) 
Heartbeat CPU  0 instructions:   16000000 cycles:   33021393 heartbeat IPC: 0.26506 cumulative IPC: 0.25897 (Simulation time: 0 hr 0 min 24 sec) 
Heartbeat CPU  0 instructions:   17000000 cycles:   36899310 heartbeat IPC: 0.25787 cumulative IPC: 0.25881 (Simulation time: 0 hr 0 min 26 sec) 
Heartbeat CPU  0 instructions:   18000000 cycles:   40915929 heartbeat IPC: 0.24897 cumulative IPC: 0.25754 (Simulation time: 0 hr 0 min 28 sec) 
Heartbeat CPU  0 instructions:   19000001 cycles:   44798742 heartbeat IPC: 0.25755 cumulative IPC: 0.25754 (Simulation time: 0 hr 0 min 30 sec) 
Heartbeat CPU  0 instructions:   20000000 cycles:   48598195 heartbeat IPC: 0.26320 cumulative IPC: 0.25810 (Simulation time: 0 hr 0 min 32 sec) 
Heartbeat CPU  0 instructions:   21000000 cycles:   52399451 heartbeat IPC: 0.26307 cumulative IPC: 0.25854 (Simulation time: 0 hr 0 min 34 sec) 
Heartbeat CPU  0 instructions:   22000001 cycles:   56175207 heartbeat IPC: 0.26485 cumulative IPC: 0.25905 (Simulation time: 0 hr 0 min 35 sec) 
Heartbeat CPU  0 instructions:   23000000 cycles:   59984774 heartbeat IPC: 0.26250 cumulative IPC: 0.25932 (Simulation time: 0 hr 0 min 37 sec) 
Heartbeat CPU  0 instructions:   24000000 cycles:   63969771 heartbeat IPC: 0.25094 cumulative IPC: 0.25870 (Simulation time: 0 hr 0 min 39 sec) 
Heartbeat CPU  0 instructions:   25000001 cycles:   67802712 heartbeat IPC: 0.26090 cumulative IPC: 0.25884 (Simulation time: 0 hr 0 min 41 sec) 
Heartbeat CPU  0 instructions:   26000000 cycles:   71592747 heartbeat IPC: 0.26385 cumulative IPC: 0.25915 (Simulation time: 0 hr 0 min 43 sec) 
Heartbeat CPU  0 instructions:   27000003 cycles:   75395666 heartbeat IPC: 0.26296 cumulative IPC: 0.25937 (Simulation time: 0 hr 0 min 45 sec) 
Heartbeat CPU  0 instructions:   28000000 cycles:   79196971 heartbeat IPC: 0.26307 cumulative IPC: 0.25958 (Simulation time: 0 hr 0 min 47 sec) 
Heartbeat CPU  0 instructions:   29000000 cycles:   83060371 heartbeat IPC: 0.25884 cumulative IPC: 0.25954 (Simulation time: 0 hr 0 min 49 sec) 
Heartbeat CPU  0 instructions:   30000001 cycles:   86870432 heartbeat IPC: 0.26246 cumulative IPC: 0.25968 (Simulation time: 0 hr 0 min 51 sec) 
Heartbeat CPU  0 instructions:   31000002 cycles:   90674085 heartbeat IPC: 0.26291 cumulative IPC: 0.25983 (Simulation time: 0 hr 0 min 53 sec) 
Heartbeat CPU  0 instructions:   32000000 cycles:   94481007 heartbeat IPC: 0.26268 cumulative IPC: 0.25996 (Simulation time: 0 hr 0 min 55 sec) 
Heartbeat CPU  0 instructions:   33000003 cycles:   98274635 heartbeat IPC: 0.26360 cumulative IPC: 0.26012 (Simulation time: 0 hr 0 min 57 sec) 
Heartbeat CPU  0 instructions:   34000002 cycles:  102073124 heartbeat IPC: 0.26326 cumulative IPC: 0.26025 (Simulation time: 0 hr 0 min 59 sec) 
Heartbeat CPU  0 instructions:   35000000 cycles:  105865449 heartbeat IPC: 0.26369 cumulative IPC: 0.26038 (Simulation time: 0 hr 1 min 1 sec) 
Heartbeat CPU  0 instructions:   36000000 cycles:  109712913 heartbeat IPC: 0.25991 cumulative IPC: 0.26036 (Simulation time: 0 hr 1 min 3 sec) 
Heartbeat CPU  0 instructions:   37000000 cycles:  113714806 heartbeat IPC: 0.24988 cumulative IPC: 0.25996 (Simulation time: 0 hr 1 min 5 sec) 
Heartbeat CPU  0 instructions:   38000002 cycles:  117510920 heartbeat IPC: 0.26343 cumulative IPC: 0.26008 (Simulation time: 0 hr 1 min 6 sec) 
Heartbeat CPU  0 instructions:   39000003 cycles:  121337963 heartbeat IPC: 0.26130 cumulative IPC: 0.26012 (Simulation time: 0 hr 1 min 8 sec) 
Heartbeat CPU  0 instructions:   40000000 cycles:  125167036 heartbeat IPC: 0.26116 cumulative IPC: 0.26016 (Simulation time: 0 hr 1 min 10 sec) 
Heartbeat CPU  0 instructions:   41000003 cycles:  128980900 heartbeat IPC: 0.26220 cumulative IPC: 0.26022 (Simulation time: 0 hr 1 min 12 sec) 
Heartbeat CPU  0 instructions:   42000001 cycles:  132847845 heartbeat IPC: 0.25860 cumulative IPC: 0.26017 (Simulation time: 0 hr 1 min 14 sec) 
Heartbeat CPU  0 instructions:   43000000 cycles:  136876011 heartbeat IPC: 0.24825 cumulative IPC: 0.25980 (Simulation time: 0 hr 1 min 16 sec) 
Heartbeat CPU  0 instructions:   44000000 cycles:  140707214 heartbeat IPC: 0.26101 cumulative IPC: 0.25983 (Simulation time: 0 hr 1 min 18 sec) 
Heartbeat CPU  0 instructions:   45000001 cycles:  144479651 heartbeat IPC: 0.26508 cumulative IPC: 0.25998 (Simulation time: 0 hr 1 min 20 sec) 
Heartbeat CPU  0 instructions:   46000000 cycles:  148274437 heartbeat IPC: 0.26352 cumulative IPC: 0.26008 (Simulation time: 0 hr 1 min 22 sec) 
Heartbeat CPU  0 instructions:   47000002 cycles:  152044998 heartbeat IPC: 0.26521 cumulative IPC: 0.26021 (Simulation time: 0 hr 1 min 24 sec) 
Heartbeat CPU  0 instructions:   48000000 cycles:  155902619 heartbeat IPC: 0.25923 cumulative IPC: 0.26019 (Simulation time: 0 hr 1 min 26 sec) 
Heartbeat CPU  0 instructions:   49000001 cycles:  159858836 heartbeat IPC: 0.25277 cumulative IPC: 0.25999 (Simulation time: 0 hr 1 min 28 sec) 
Heartbeat CPU  0 instructions:   50000000 cycles:  163644033 heartbeat IPC: 0.26419 cumulative IPC: 0.26009 (Simulation time: 0 hr 1 min 30 sec) 
Heartbeat CPU  0 instructions:   51000002 cycles:  167410970 heartbeat IPC: 0.26547 cumulative IPC: 0.26022 (Simulation time: 0 hr 1 min 32 sec) 
Heartbeat CPU  0 instructions:   52000000 cycles:  171211415 heartbeat IPC: 0.26313 cumulative IPC: 0.26029 (Simulation time: 0 hr 1 min 34 sec) 
Heartbeat CPU  0 instructions:   53000001 cycles:  175034649 heartbeat IPC: 0.26156 cumulative IPC: 0.26032 (Simulation time: 0 hr 1 min 36 sec) 
Heartbeat CPU  0 instructions:   54000002 cycles:  178935906 heartbeat IPC: 0.25633 cumulative IPC: 0.26023 (Simulation time: 0 hr 1 min 38 sec) 
Heartbeat CPU  0 instructions:   55000000 cycles:  182702121 heartbeat IPC: 0.26552 cumulative IPC: 0.26034 (Simulation time: 0 hr 1 min 40 sec) 
Heartbeat CPU  0 instructions:   56000000 cycles:  186461627 heartbeat IPC: 0.26599 cumulative IPC: 0.26046 (Simulation time: 0 hr 1 min 41 sec) 
Heartbeat CPU  0 instructions:   57000002 cycles:  190250593 heartbeat IPC: 0.26392 cumulative IPC: 0.26054 (Simulation time: 0 hr 1 min 43 sec) 
Heartbeat CPU  0 instructions:   58000000 cycles:  194223442 heartbeat IPC: 0.25171 cumulative IPC: 0.26035 (Simulation time: 0 hr 1 min 45 sec) 
Heartbeat CPU  0 instructions:   59000001 cycles:  197988997 heartbeat IPC: 0.26557 cumulative IPC: 0.26045 (Simulation time: 0 hr 1 min 47 sec) 
Heartbeat CPU  0 instructions:   60000000 cycles:  201737255 heartbeat IPC: 0.26679 cumulative IPC: 0.26057 (Simulation time: 0 hr 1 min 49 sec) 
Finished CPU 0 instructions: 50000000 cycles: 191884360 cumulative IPC: 0.26057 (Simulation time: 0 hr 1 min 49 sec) 

ChampSim completed all CPUs

[ROI Statistics]
Core_0_instructions 50000000
Core_0_cycles 191884360
Core_0_IPC 0.26057

Core_0_branch_prediction_accuracy 90.98497
Core_0_branch_MPKI 18.28708
Core_0_average_ROB_occupancy_at_mispredict 51.48692

Core_0_L1D_total_access 18393074
Core_0_L1D_total_hit 15662261
Core_0_L1D_total_miss 2730813
Core_0_L1D_loads 13538025
Core_0_L1D_load_hit 10990871
Core_0_L1D_load_miss 2547154
Core_0_L1D_RFOs 4855049
Core_0_L1D_RFO_hit 4671390
Core_0_L1D_RFO_miss 183659
Core_0_L1D_prefetches 0
Core_0_L1D_prefetch_hit 0
Core_0_L1D_prefetch_miss 0
Core_0_L1D_writebacks 0
Core_0_L1D_writeback_hit 0
Core_0_L1D_writeback_miss 0
Core_0_L1D_prefetch_requested 0
Core_0_L1D_prefetch_dropped 0
Core_0_L1D_prefetch_issued 0
Core_0_L1D_prefetch_filled 0
Core_0_L1D_prefetch_useful 0
Core_0_L1D_prefetch_useless 0
Core_0_L1D_prefetch_late 0
Core_0_L1D_average_miss_latency 71.28674

Core_0_L1D_rq_access 17037821
Core_0_L1D_rq_forward 0
Core_0_L1D_rq_merged 3366446
Core_0_L1D_rq_to_cache 13655331
Core_0_L1D_rq_full 0

Core_0_L1D_wq_access 5189939
Core_0_L1D_wq_forward 16044
Core_0_L1D_wq_merged 13584
Core_0_L1D_wq_to_cache 5176355
Core_0_L1D_wq_full 0

Core_0_L1D_pq_access 0
Core_0_L1D_pq_forward 0
Core_0_L1D_pq_merged 0
Core_0_L1D_pq_to_cache 0
Core_0_L1D_pq_full 0

Core_0_L1D_acc_epochs 195415
Core_0_L1D_acc_level_0 195415
Core_0_L1D_acc_level_1 0
Core_0_L1D_acc_level_2 0
Core_0_L1D_acc_level_3 0
Core_0_L1D_acc_level_4 0
Core_0_L1D_acc_level_5 0
Core_0_L1D_acc_level_6 0
Core_0_L1D_acc_level_7 0
Core_0_L1D_acc_level_8 0
Core_0_L1D_acc_level_9 0

Core_0_L1I_total_access 9638134
Core_0_L1I_total_hit 9638134
Core_0_L1I_total_miss 0
Core_0_L1I_loads 9638134
Core_0_L1I_load_hit 9638134
Core_0_L1I_load_miss 0
Core_0_L1I_RFOs 0
Core_0_L1I_RFO_hit 0
Core_0_L1I_RFO_miss 0
Core_0_L1I_prefetches 0
Core_0_L1I_prefetch_hit 0
Core_0_L1I_prefetch_miss 0
Core_0_L1I_writebacks 0
Core_0_L1I_writeback_hit 0
Core_0_L1I_writeback_miss 0
Core_0_L1I_prefetch_requested 0
Core_0_L1I_prefetch_dropped 0
Core_0_L1I_prefetch_issued 0
Core_0_L1I_prefetch_filled 0
Core_0_L1I_prefetch_useful 0
Core_0_L1I_prefetch_useless 0
Core_0_L1I_prefetch_late 0
Core_0_L1I_average_miss_latency -nan

Core_0_L1I_rq_access 49999833
Core_0_L1I_rq_forward 0
Core_0_L1I_rq_merged 40361699
Core_0_L1I_rq_to_cache 9638134
Core_0_L1I_rq_full 0

Core_0_L1I_wq_access 0
Core_0_L1I_wq_forward 0
Core_0_L1I_wq_merged 0
Core_0_L1I_wq_to_cache 0
Core_0_L1I_wq_full 0

Core_0_L1I_pq_access 0
Core_0_L1I_pq_forward 0
Core_0_L1I_pq_merged 0
Core_0_L1I_pq_to_cache 0
Core_0_L1I_pq_full 0

Core_0_L1I_acc_epochs 195415
Core_0_L1I_acc_level_0 195415
Core_0_L1I_acc_level_1 0
Core_0_L1I_acc_level_2 0
Core_0_L1I_acc_level_3 0
Core_0_L1I_acc_level_4 0
Core_0_L1I_acc_level_5 0
Core_0_L1I_acc_level_6 0
Core_0_L1I_acc_level_7 0
Core_0_L1I_acc_level_8 0
Core_0_L1I_acc_level_9 0

Core_0_L2C_total_access 2994943
Core_0_L2C_total_hit 742748
Core_0_L2C_total_miss 2252195
Core_0_L2C_loads 2547142
Core_0_L2C_load_hit 421163
Core_0_L2C_load_miss 2125979
Core_0_L2C_RFOs 183659
Core_0_L2C_RFO_hit 57785
Core_0_L2C_RFO_miss 125874
Core_0_L2C_prefetches 0
Core_0_L2C_prefetch_hit 0
Core_0_L2C_prefetch_miss 0
Core_0_L2C_writebacks 264142
Core_0_L2C_writeback_hit 263800
Core_0_L2C_writeback_miss 342
Core_0_L2C_prefetch_requested 0
Core_0_L2C_prefetch_dropped 0
Core_0_L2C_prefetch_issued 0
Core_0_L2C_prefetch_filled 0
Core_0_L2C_prefetch_useful 0
Core_0_L2C_prefetch_useless 0
Core_0_L2C_prefetch_late 0
Core_0_L2C_average_miss_latency 68.83783

Core_0_L2C_rq_access 2730813
Core_0_L2C_rq_forward 0
Core_0_L2C_rq_merged 0
Core_0_L2C_rq_to_cache 2730801
Core_0_L2C_rq_full 0

Core_0_L2C_wq_access 264142
Core_0_L2C_wq_forward 12
Core_0_L2C_wq_merged 0
Core_0_L2C_wq_to_cache 264142
Core_0_L2C_wq_full 0

Core_0_L2C_pq_access 0
Core_0_L2C_pq_forward 0
Core_0_L2C_pq_merged 0
Core_0_L2C_pq_to_cache 0
Core_0_L2C_pq_full 0

Core_0_L2C_acc_epochs 195415
Core_0_L2C_acc_level_0 195415
Core_0_L2C_acc_level_1 0
Core_0_L2C_acc_level_2 0
Core_0_L2C_acc_level_3 0
Core_0_L2C_acc_level_4 0
Core_0_L2C_acc_level_5 0
Core_0_L2C_acc_level_6 0
Core_0_L2C_acc_level_7 0
Core_0_L2C_acc_level_8 0
Core_0_L2C_acc_level_9 0

Core_0_LLC_total_access 2452466
Core_0_LLC_total_hit 1625819
Core_0_LLC_total_miss 826647
Core_0_LLC_loads 2125978
Core_0_LLC_load_hit 1299955
Core_0_LLC_load_miss 826023
Core_0_LLC_RFOs 125874
Core_0_LLC_RFO_hit 125541
Core_0_LLC_RFO_miss 333
Core_0_LLC_prefetches 0
Core_0_LLC_prefetch_hit 0
Core_0_LLC_prefetch_miss 0
Core_0_LLC_writebacks 200614
Core_0_LLC_writeback_hit 200323
Core_0_LLC_writeback_miss 291
Core_0_LLC_prefetch_requested 0
Core_0_LLC_prefetch_dropped 0
Core_0_LLC_prefetch_issued 0
Core_0_LLC_prefetch_filled 0
Core_0_LLC_prefetch_useful 0
Core_0_LLC_prefetch_useless 0
Core_0_LLC_prefetch_late 0
Core_0_LLC_average_miss_latency 104.88753

Core_0_LLC_rq_access 2251853
Core_0_LLC_rq_forward 0
Core_0_LLC_rq_merged 0
Core_0_LLC_rq_to_cache 2251852
Core_0_LLC_rq_full 0

Core_0_LLC_wq_access 200614
Core_0_LLC_wq_forward 1
Core_0_LLC_wq_merged 0
Core_0_LLC_wq_to_cache 200614
Core_0_LLC_wq_full 0

Core_0_LLC_pq_access 0
Core_0_LLC_pq_forward 0
Core_0_LLC_pq_merged 0
Core_0_LLC_pq_to_cache 0
Core_0_LLC_pq_full 0

Core_0_LLC_acc_epochs 197010
Core_0_LLC_acc_level_0 197010
Core_0_LLC_acc_level_1 0
Core_0_LLC_acc_level_2 0
Core_0_LLC_acc_level_3 0
Core_0_LLC_acc_level_4 0
Core_0_LLC_acc_level_5 0
Core_0_LLC_acc_level_6 0
Core_0_LLC_acc_level_7 0
Core_0_LLC_acc_level_8 0
Core_0_LLC_acc_level_9 0

Core_0_major_page_fault 0
Core_0_minor_page_fault 14828

Channel_0_RQ_row_buffer_hit 686045
Channel_0_RQ_row_buffer_miss 140311
Channel_0_WQ_row_buffer_hit 264
Channel_0_WQ_row_buffer_miss 2298
Channel_0_WQ_full 0
Channel_0_dbus_congested 433099

avg_congested_cycle 10

DRAM_bw_pochs 788037
DRAM_bw_level_0 672341
DRAM_bw_level_1 92760
DRAM_bw_level_2 22656
DRAM_bw_level_3 280
