*************************************************
   ChampSim Multicore Out-of-Order Simulator
   Last compiled: Apr  3 2025 20:54:34
*************************************************
parsing config file: /home/zir/Pythia/config/nopref.ini

trace_0 /home/zir/ChampSim/ML-DPC/ChampSimTraces/spec06/471.omnetpp-s2.trace.gz
adding L2C_PREFETCHER: NONE
Initialize SHIP state
warmup_instructions 10000000
simulation_instructions 50000000
champsim_seed 165
measure_ipc 0
measure_ipc_epoch 1000
measure_dram_bw 1
measure_dram_bw_epoch 256
measure_cache_acc 1
measure_cache_acc_epoch 1024
l1d_perfect 0
l2c_perfect 0
llc_perfect 0
l1d_semi_perfect 0
l2c_semi_perfect 0
llc_semi_perfect 0
semi_perfect_cache_page_buffer_size 64

num_cpus 1
cpu_freq 4000
dram_io_freq 2400
page_size 4096
block_size 64
max_read_per_cycle 8
max_fill_per_cycle 1
dram_channels 1
log2_dram_channels 0
dram_ranks 1
dram_banks 8
dram_rows 65536
dram_columns 128
dram_row_size 8
dram_size 4096
dram_pages 1048576

fetch_width 6
decode_width 6
exec_width 4
lq_width 2
sq_width 2
retire_width 4
scheduler_size 128
branch_mispredict_penalty 20
rob_size 256
lq_size 72
sq_size 56
num_instr_destinations_sparc 4
num_instr_destinations 2
num_instr_sources 4

itlb_set 16
itlb_way 8
itlb_rq_size 16
itlb_wq_size 16
itlb_pq_size 0
itlb_mshr_size 8
itlb_latency 1

dtlb_set 16
dtlb_way 4
dtlb_rq_size 16
dtlb_wq_size 16
dtlb_pq_size 0
dtlb_mshr_size 8
dtlb_latency 1

stlb_set 128
stlb_way 12
stlb_rq_size 32
stlb_wq_size 32
stlb_pq_size 0
stlb_mshr_size 16
stlb_latency 8

l1i_size 32
l1i_set 64
l1i_way 8
l1i_rq_size 64
l1i_wq_size 64
l1i_pq_size 8
l1i_mshr_size 8
l1i_latency 1

l1d_size 32
l1d_set 64
l1d_way 8
l1d_rq_size 64
l1d_wq_size 64
l1d_pq_size 8
l1d_mshr_size 16
l1d_latency 4

l2c_size 256
l2c_set 512
l2c_way 8
l2c_rq_size 32
l2c_wq_size 32
l2c_pq_size 32
l2c_mshr_size 32
l2c_latency 10

llc_size 2048
llc_set 2048
llc_way 16
llc_rq_size 32
llc_wq_size 32
llc_pq_size 32
llc_mshr_size 64
llc_latency 20

dram_channel_width 8
dram_wq_size 64
dram_rq_size 64
tRP 15
tRCD 15
tCAS 12.5
dram_dbus_turn_around_time 30
dram_write_high_wm 56
dram_write_low_wm 48
min_dram_writes_per_switch 16
dram_mtps 2400
dram_dbus_return_time 13


Heartbeat CPU  0 instructions:    1000001 cycles:     575046 heartbeat IPC: 1.73899 cumulative IPC: 1.73899 (Simulation time: 0 hr 0 min 1 sec) 
Heartbeat CPU  0 instructions:    2000001 cycles:    1112698 heartbeat IPC: 1.85994 cumulative IPC: 1.79743 (Simulation time: 0 hr 0 min 2 sec) 
Heartbeat CPU  0 instructions:    3000001 cycles:    1645940 heartbeat IPC: 1.87532 cumulative IPC: 1.82267 (Simulation time: 0 hr 0 min 3 sec) 
Heartbeat CPU  0 instructions:    4000000 cycles:    2182469 heartbeat IPC: 1.86383 cumulative IPC: 1.83279 (Simulation time: 0 hr 0 min 4 sec) 
Heartbeat CPU  0 instructions:    5000001 cycles:    2704750 heartbeat IPC: 1.91468 cumulative IPC: 1.84860 (Simulation time: 0 hr 0 min 5 sec) 
Heartbeat CPU  0 instructions:    6000002 cycles:    3224395 heartbeat IPC: 1.92439 cumulative IPC: 1.86081 (Simulation time: 0 hr 0 min 6 sec) 
Heartbeat CPU  0 instructions:    7000000 cycles:    3741536 heartbeat IPC: 1.93370 cumulative IPC: 1.87089 (Simulation time: 0 hr 0 min 7 sec) 
Heartbeat CPU  0 instructions:    8000000 cycles:    4244320 heartbeat IPC: 1.98893 cumulative IPC: 1.88487 (Simulation time: 0 hr 0 min 8 sec) 
Heartbeat CPU  0 instructions:    9000001 cycles:    4763110 heartbeat IPC: 1.92756 cumulative IPC: 1.88952 (Simulation time: 0 hr 0 min 9 sec) 
Heartbeat CPU  0 instructions:   10000000 cycles:    5270363 heartbeat IPC: 1.97140 cumulative IPC: 1.89740 (Simulation time: 0 hr 0 min 10 sec) 

Warmup complete CPU  0 instructions:   10000003 cycles:    5270364 (Simulation time: 0 hr 0 min 10 sec) 

Heartbeat CPU  0 instructions:   11000000 cycles:    8645598 heartbeat IPC: 0.29628 cumulative IPC: 0.29627 (Simulation time: 0 hr 0 min 12 sec) 
Heartbeat CPU  0 instructions:   12000000 cycles:    9944499 heartbeat IPC: 0.76988 cumulative IPC: 0.42789 (Simulation time: 0 hr 0 min 13 sec) 
Heartbeat CPU  0 instructions:   13000003 cycles:   11221138 heartbeat IPC: 0.78331 cumulative IPC: 0.50414 (Simulation time: 0 hr 0 min 14 sec) 
Heartbeat CPU  0 instructions:   14000000 cycles:   12472589 heartbeat IPC: 0.79907 cumulative IPC: 0.55538 (Simulation time: 0 hr 0 min 15 sec) 
Heartbeat CPU  0 instructions:   15000000 cycles:   13741563 heartbeat IPC: 0.78804 cumulative IPC: 0.59023 (Simulation time: 0 hr 0 min 17 sec) 
Heartbeat CPU  0 instructions:   16000000 cycles:   16771615 heartbeat IPC: 0.33003 cumulative IPC: 0.52168 (Simulation time: 0 hr 0 min 18 sec) 
Heartbeat CPU  0 instructions:   17000003 cycles:   19845252 heartbeat IPC: 0.32535 cumulative IPC: 0.48028 (Simulation time: 0 hr 0 min 20 sec) 
Heartbeat CPU  0 instructions:   18000002 cycles:   22799883 heartbeat IPC: 0.33845 cumulative IPC: 0.45637 (Simulation time: 0 hr 0 min 21 sec) 
Heartbeat CPU  0 instructions:   19000002 cycles:   25762744 heartbeat IPC: 0.33751 cumulative IPC: 0.43919 (Simulation time: 0 hr 0 min 23 sec) 
Heartbeat CPU  0 instructions:   20000000 cycles:   29252807 heartbeat IPC: 0.28653 cumulative IPC: 0.41697 (Simulation time: 0 hr 0 min 25 sec) 
Heartbeat CPU  0 instructions:   21000000 cycles:   32744144 heartbeat IPC: 0.28642 cumulative IPC: 0.40038 (Simulation time: 0 hr 0 min 26 sec) 
Heartbeat CPU  0 instructions:   22000001 cycles:   36101119 heartbeat IPC: 0.29789 cumulative IPC: 0.38922 (Simulation time: 0 hr 0 min 28 sec) 
Heartbeat CPU  0 instructions:   23000000 cycles:   39118813 heartbeat IPC: 0.33138 cumulative IPC: 0.38406 (Simulation time: 0 hr 0 min 30 sec) 
Heartbeat CPU  0 instructions:   24000000 cycles:   42066198 heartbeat IPC: 0.33928 cumulative IPC: 0.38048 (Simulation time: 0 hr 0 min 31 sec) 
Heartbeat CPU  0 instructions:   25000000 cycles:   45017529 heartbeat IPC: 0.33883 cumulative IPC: 0.37739 (Simulation time: 0 hr 0 min 33 sec) 
Heartbeat CPU  0 instructions:   26000002 cycles:   47946795 heartbeat IPC: 0.34138 cumulative IPC: 0.37491 (Simulation time: 0 hr 0 min 34 sec) 
Heartbeat CPU  0 instructions:   27000001 cycles:   50933269 heartbeat IPC: 0.33484 cumulative IPC: 0.37229 (Simulation time: 0 hr 0 min 36 sec) 
Heartbeat CPU  0 instructions:   28000000 cycles:   53862788 heartbeat IPC: 0.34135 cumulative IPC: 0.37043 (Simulation time: 0 hr 0 min 37 sec) 
Heartbeat CPU  0 instructions:   29000001 cycles:   56903619 heartbeat IPC: 0.32886 cumulative IPC: 0.36798 (Simulation time: 0 hr 0 min 39 sec) 
Heartbeat CPU  0 instructions:   30000000 cycles:   59848874 heartbeat IPC: 0.33953 cumulative IPC: 0.36644 (Simulation time: 0 hr 0 min 41 sec) 
Heartbeat CPU  0 instructions:   31000002 cycles:   62772967 heartbeat IPC: 0.34199 cumulative IPC: 0.36520 (Simulation time: 0 hr 0 min 42 sec) 
Heartbeat CPU  0 instructions:   32000000 cycles:   65745230 heartbeat IPC: 0.33644 cumulative IPC: 0.36379 (Simulation time: 0 hr 0 min 44 sec) 
Heartbeat CPU  0 instructions:   33000000 cycles:   69075972 heartbeat IPC: 0.30023 cumulative IPC: 0.36047 (Simulation time: 0 hr 0 min 45 sec) 
Heartbeat CPU  0 instructions:   34000001 cycles:   72558720 heartbeat IPC: 0.28713 cumulative IPC: 0.35667 (Simulation time: 0 hr 0 min 47 sec) 
Heartbeat CPU  0 instructions:   35000001 cycles:   75833424 heartbeat IPC: 0.30537 cumulative IPC: 0.35429 (Simulation time: 0 hr 0 min 49 sec) 
Heartbeat CPU  0 instructions:   36000000 cycles:   79308236 heartbeat IPC: 0.28779 cumulative IPC: 0.35117 (Simulation time: 0 hr 0 min 50 sec) 
Heartbeat CPU  0 instructions:   37000001 cycles:   82261873 heartbeat IPC: 0.33857 cumulative IPC: 0.35069 (Simulation time: 0 hr 0 min 52 sec) 
Heartbeat CPU  0 instructions:   38000001 cycles:   85613672 heartbeat IPC: 0.29835 cumulative IPC: 0.34850 (Simulation time: 0 hr 0 min 54 sec) 
Heartbeat CPU  0 instructions:   39000001 cycles:   88325360 heartbeat IPC: 0.36877 cumulative IPC: 0.34917 (Simulation time: 0 hr 0 min 55 sec) 
Heartbeat CPU  0 instructions:   40000000 cycles:   89586134 heartbeat IPC: 0.79316 cumulative IPC: 0.35581 (Simulation time: 0 hr 0 min 56 sec) 
Heartbeat CPU  0 instructions:   41000001 cycles:   90841163 heartbeat IPC: 0.79680 cumulative IPC: 0.36227 (Simulation time: 0 hr 0 min 58 sec) 
Heartbeat CPU  0 instructions:   42000001 cycles:   92105889 heartbeat IPC: 0.79069 cumulative IPC: 0.36851 (Simulation time: 0 hr 0 min 59 sec) 
Heartbeat CPU  0 instructions:   43000002 cycles:   93519657 heartbeat IPC: 0.70733 cumulative IPC: 0.37394 (Simulation time: 0 hr 1 min 0 sec) 
Heartbeat CPU  0 instructions:   44000000 cycles:   96593670 heartbeat IPC: 0.32531 cumulative IPC: 0.37230 (Simulation time: 0 hr 1 min 2 sec) 
Heartbeat CPU  0 instructions:   45000000 cycles:   99629528 heartbeat IPC: 0.32940 cumulative IPC: 0.37092 (Simulation time: 0 hr 1 min 3 sec) 
Heartbeat CPU  0 instructions:   46000000 cycles:  103142052 heartbeat IPC: 0.28470 cumulative IPC: 0.36783 (Simulation time: 0 hr 1 min 5 sec) 
Heartbeat CPU  0 instructions:   47000000 cycles:  106635720 heartbeat IPC: 0.28623 cumulative IPC: 0.36502 (Simulation time: 0 hr 1 min 7 sec) 
Heartbeat CPU  0 instructions:   48000000 cycles:  109937797 heartbeat IPC: 0.30284 cumulative IPC: 0.36305 (Simulation time: 0 hr 1 min 8 sec) 
Heartbeat CPU  0 instructions:   49000000 cycles:  113048038 heartbeat IPC: 0.32152 cumulative IPC: 0.36186 (Simulation time: 0 hr 1 min 10 sec) 
Heartbeat CPU  0 instructions:   50000001 cycles:  115995171 heartbeat IPC: 0.33931 cumulative IPC: 0.36126 (Simulation time: 0 hr 1 min 11 sec) 
Heartbeat CPU  0 instructions:   51000003 cycles:  118942990 heartbeat IPC: 0.33923 cumulative IPC: 0.36068 (Simulation time: 0 hr 1 min 13 sec) 
Heartbeat CPU  0 instructions:   52000000 cycles:  121871282 heartbeat IPC: 0.34149 cumulative IPC: 0.36020 (Simulation time: 0 hr 1 min 15 sec) 
Heartbeat CPU  0 instructions:   53000003 cycles:  124816740 heartbeat IPC: 0.33951 cumulative IPC: 0.35969 (Simulation time: 0 hr 1 min 16 sec) 
Heartbeat CPU  0 instructions:   54000001 cycles:  127732089 heartbeat IPC: 0.34301 cumulative IPC: 0.35930 (Simulation time: 0 hr 1 min 18 sec) 
Heartbeat CPU  0 instructions:   55000001 cycles:  130891391 heartbeat IPC: 0.31653 cumulative IPC: 0.35822 (Simulation time: 0 hr 1 min 19 sec) 
Heartbeat CPU  0 instructions:   56000000 cycles:  133835567 heartbeat IPC: 0.33965 cumulative IPC: 0.35780 (Simulation time: 0 hr 1 min 21 sec) 
Heartbeat CPU  0 instructions:   57000003 cycles:  136770705 heartbeat IPC: 0.34070 cumulative IPC: 0.35741 (Simulation time: 0 hr 1 min 22 sec) 
Heartbeat CPU  0 instructions:   58000001 cycles:  139908824 heartbeat IPC: 0.31866 cumulative IPC: 0.35651 (Simulation time: 0 hr 1 min 24 sec) 
Heartbeat CPU  0 instructions:   59000001 cycles:  143357070 heartbeat IPC: 0.29000 cumulative IPC: 0.35485 (Simulation time: 0 hr 1 min 26 sec) 
Heartbeat CPU  0 instructions:   60000000 cycles:  146496295 heartbeat IPC: 0.31855 cumulative IPC: 0.35404 (Simulation time: 0 hr 1 min 27 sec) 
Finished CPU 0 instructions: 50000002 cycles: 141225941 cumulative IPC: 0.35404 (Simulation time: 0 hr 1 min 27 sec) 

ChampSim completed all CPUs

[ROI Statistics]
Core_0_instructions 50000002
Core_0_cycles 141225941
Core_0_IPC 0.35404

Core_0_branch_prediction_accuracy 98.23849
Core_0_branch_MPKI 5.44690
Core_0_average_ROB_occupancy_at_mispredict 114.04976

Core_0_L1D_total_access 6828213
Core_0_L1D_total_hit 5585065
Core_0_L1D_total_miss 1243148
Core_0_L1D_loads 4478868
Core_0_L1D_load_hit 3255067
Core_0_L1D_load_miss 1223801
Core_0_L1D_RFOs 2349345
Core_0_L1D_RFO_hit 2329998
Core_0_L1D_RFO_miss 19347
Core_0_L1D_prefetches 0
Core_0_L1D_prefetch_hit 0
Core_0_L1D_prefetch_miss 0
Core_0_L1D_writebacks 0
Core_0_L1D_writeback_hit 0
Core_0_L1D_writeback_miss 0
Core_0_L1D_prefetch_requested 0
Core_0_L1D_prefetch_dropped 0
Core_0_L1D_prefetch_issued 0
Core_0_L1D_prefetch_filled 0
Core_0_L1D_prefetch_useful 0
Core_0_L1D_prefetch_useless 0
Core_0_L1D_prefetch_late 0
Core_0_L1D_average_miss_latency 195.42016

Core_0_L1D_rq_access 6005766
Core_0_L1D_rq_forward 0
Core_0_L1D_rq_merged 1262484
Core_0_L1D_rq_to_cache 4742243
Core_0_L1D_rq_full 0

Core_0_L1D_wq_access 2415879
Core_0_L1D_wq_forward 1039
Core_0_L1D_wq_merged 8386
Core_0_L1D_wq_to_cache 2407493
Core_0_L1D_wq_full 0

Core_0_L1D_pq_access 0
Core_0_L1D_pq_forward 0
Core_0_L1D_pq_merged 0
Core_0_L1D_pq_to_cache 0
Core_0_L1D_pq_full 0

Core_0_L1D_acc_epochs 74266
Core_0_L1D_acc_level_0 74266
Core_0_L1D_acc_level_1 0
Core_0_L1D_acc_level_2 0
Core_0_L1D_acc_level_3 0
Core_0_L1D_acc_level_4 0
Core_0_L1D_acc_level_5 0
Core_0_L1D_acc_level_6 0
Core_0_L1D_acc_level_7 0
Core_0_L1D_acc_level_8 0
Core_0_L1D_acc_level_9 0

Core_0_L1I_total_access 13093431
Core_0_L1I_total_hit 13057186
Core_0_L1I_total_miss 36245
Core_0_L1I_loads 13093431
Core_0_L1I_load_hit 13057186
Core_0_L1I_load_miss 36245
Core_0_L1I_RFOs 0
Core_0_L1I_RFO_hit 0
Core_0_L1I_RFO_miss 0
Core_0_L1I_prefetches 0
Core_0_L1I_prefetch_hit 0
Core_0_L1I_prefetch_miss 0
Core_0_L1I_writebacks 0
Core_0_L1I_writeback_hit 0
Core_0_L1I_writeback_miss 0
Core_0_L1I_prefetch_requested 0
Core_0_L1I_prefetch_dropped 0
Core_0_L1I_prefetch_issued 0
Core_0_L1I_prefetch_filled 0
Core_0_L1I_prefetch_useful 0
Core_0_L1I_prefetch_useless 0
Core_0_L1I_prefetch_late 0
Core_0_L1I_average_miss_latency 56.48236

Core_0_L1I_rq_access 50000003
Core_0_L1I_rq_forward 0
Core_0_L1I_rq_merged 36882886
Core_0_L1I_rq_to_cache 13117117
Core_0_L1I_rq_full 0

Core_0_L1I_wq_access 0
Core_0_L1I_wq_forward 0
Core_0_L1I_wq_merged 0
Core_0_L1I_wq_to_cache 0
Core_0_L1I_wq_full 0

Core_0_L1I_pq_access 0
Core_0_L1I_pq_forward 0
Core_0_L1I_pq_merged 0
Core_0_L1I_pq_to_cache 0
Core_0_L1I_pq_full 0

Core_0_L1I_acc_epochs 74266
Core_0_L1I_acc_level_0 74266
Core_0_L1I_acc_level_1 0
Core_0_L1I_acc_level_2 0
Core_0_L1I_acc_level_3 0
Core_0_L1I_acc_level_4 0
Core_0_L1I_acc_level_5 0
Core_0_L1I_acc_level_6 0
Core_0_L1I_acc_level_7 0
Core_0_L1I_acc_level_8 0
Core_0_L1I_acc_level_9 0

Core_0_L2C_total_access 1319618
Core_0_L2C_total_hit 59106
Core_0_L2C_total_miss 1260512
Core_0_L2C_loads 1260044
Core_0_L2C_load_hit 18328
Core_0_L2C_load_miss 1241716
Core_0_L2C_RFOs 19347
Core_0_L2C_RFO_hit 565
Core_0_L2C_RFO_miss 18782
Core_0_L2C_prefetches 0
Core_0_L2C_prefetch_hit 0
Core_0_L2C_prefetch_miss 0
Core_0_L2C_writebacks 40227
Core_0_L2C_writeback_hit 40213
Core_0_L2C_writeback_miss 14
Core_0_L2C_prefetch_requested 0
Core_0_L2C_prefetch_dropped 0
Core_0_L2C_prefetch_issued 0
Core_0_L2C_prefetch_filled 0
Core_0_L2C_prefetch_useful 0
Core_0_L2C_prefetch_useless 0
Core_0_L2C_prefetch_late 0
Core_0_L2C_average_miss_latency 119.60884

Core_0_L2C_rq_access 1279392
Core_0_L2C_rq_forward 0
Core_0_L2C_rq_merged 0
Core_0_L2C_rq_to_cache 1279391
Core_0_L2C_rq_full 0

Core_0_L2C_wq_access 40227
Core_0_L2C_wq_forward 1
Core_0_L2C_wq_merged 0
Core_0_L2C_wq_to_cache 40227
Core_0_L2C_wq_full 0

Core_0_L2C_pq_access 0
Core_0_L2C_pq_forward 0
Core_0_L2C_pq_merged 0
Core_0_L2C_pq_to_cache 0
Core_0_L2C_pq_full 0

Core_0_L2C_acc_epochs 74266
Core_0_L2C_acc_level_0 74266
Core_0_L2C_acc_level_1 0
Core_0_L2C_acc_level_2 0
Core_0_L2C_acc_level_3 0
Core_0_L2C_acc_level_4 0
Core_0_L2C_acc_level_5 0
Core_0_L2C_acc_level_6 0
Core_0_L2C_acc_level_7 0
Core_0_L2C_acc_level_8 0
Core_0_L2C_acc_level_9 0

Core_0_LLC_total_access 1299448
Core_0_LLC_total_hit 1058939
Core_0_LLC_total_miss 240509
Core_0_LLC_loads 1241716
Core_0_LLC_load_hit 1011351
Core_0_LLC_load_miss 230365
Core_0_LLC_RFOs 18782
Core_0_LLC_RFO_hit 11735
Core_0_LLC_RFO_miss 7047
Core_0_LLC_prefetches 0
Core_0_LLC_prefetch_hit 0
Core_0_LLC_prefetch_miss 0
Core_0_LLC_writebacks 38950
Core_0_LLC_writeback_hit 35853
Core_0_LLC_writeback_miss 3097
Core_0_LLC_prefetch_requested 0
Core_0_LLC_prefetch_dropped 0
Core_0_LLC_prefetch_issued 0
Core_0_LLC_prefetch_filled 0
Core_0_LLC_prefetch_useful 0
Core_0_LLC_prefetch_useless 0
Core_0_LLC_prefetch_late 0
Core_0_LLC_average_miss_latency 175.49942

Core_0_LLC_rq_access 1260498
Core_0_LLC_rq_forward 0
Core_0_LLC_rq_merged 0
Core_0_LLC_rq_to_cache 1260498
Core_0_LLC_rq_full 0

Core_0_LLC_wq_access 38950
Core_0_LLC_wq_forward 0
Core_0_LLC_wq_merged 0
Core_0_LLC_wq_to_cache 38950
Core_0_LLC_wq_full 0

Core_0_LLC_pq_access 0
Core_0_LLC_pq_forward 0
Core_0_LLC_pq_merged 0
Core_0_LLC_pq_to_cache 0
Core_0_LLC_pq_full 0

Core_0_LLC_acc_epochs 143063
Core_0_LLC_acc_level_0 143063
Core_0_LLC_acc_level_1 0
Core_0_LLC_acc_level_2 0
Core_0_LLC_acc_level_3 0
Core_0_LLC_acc_level_4 0
Core_0_LLC_acc_level_5 0
Core_0_LLC_acc_level_6 0
Core_0_LLC_acc_level_7 0
Core_0_LLC_acc_level_8 0
Core_0_LLC_acc_level_9 0

Core_0_major_page_fault 0
Core_0_minor_page_fault 15893

Channel_0_RQ_row_buffer_hit 47847
Channel_0_RQ_row_buffer_miss 189558
Channel_0_WQ_row_buffer_hit 3943
Channel_0_WQ_row_buffer_miss 16560
Channel_0_WQ_full 0
Channel_0_dbus_congested 50944

avg_congested_cycle 10

DRAM_bw_pochs 572252
DRAM_bw_level_0 565865
DRAM_bw_level_1 5479
DRAM_bw_level_2 900
DRAM_bw_level_3 8
