*************************************************
   ChampSim Multicore Out-of-Order Simulator
   Last compiled: Apr  3 2025 20:54:34
*************************************************
parsing config file: /home/zir/Pythia/config/pythia.ini

trace_0 /home/zir/ChampSim/ML-DPC/ChampSimTraces/spec06/437.leslie3d-s2.trace.gz
adding L2C_PREFETCHER: Scooby
Initialize SHIP state
warmup_instructions 10000000
simulation_instructions 50000000
champsim_seed 165
measure_ipc 0
measure_ipc_epoch 1000
measure_dram_bw 1
measure_dram_bw_epoch 256
measure_cache_acc 1
measure_cache_acc_epoch 1024
l1d_perfect 0
l2c_perfect 0
llc_perfect 0
l1d_semi_perfect 0
l2c_semi_perfect 0
llc_semi_perfect 0
semi_perfect_cache_page_buffer_size 64

num_cpus 1
cpu_freq 4000
dram_io_freq 2400
page_size 4096
block_size 64
max_read_per_cycle 8
max_fill_per_cycle 1
dram_channels 1
log2_dram_channels 0
dram_ranks 1
dram_banks 8
dram_rows 65536
dram_columns 128
dram_row_size 8
dram_size 4096
dram_pages 1048576

fetch_width 6
decode_width 6
exec_width 4
lq_width 2
sq_width 2
retire_width 4
scheduler_size 128
branch_mispredict_penalty 20
rob_size 256
lq_size 72
sq_size 56
num_instr_destinations_sparc 4
num_instr_destinations 2
num_instr_sources 4

itlb_set 16
itlb_way 8
itlb_rq_size 16
itlb_wq_size 16
itlb_pq_size 0
itlb_mshr_size 8
itlb_latency 1

dtlb_set 16
dtlb_way 4
dtlb_rq_size 16
dtlb_wq_size 16
dtlb_pq_size 0
dtlb_mshr_size 8
dtlb_latency 1

stlb_set 128
stlb_way 12
stlb_rq_size 32
stlb_wq_size 32
stlb_pq_size 0
stlb_mshr_size 16
stlb_latency 8

l1i_size 32
l1i_set 64
l1i_way 8
l1i_rq_size 64
l1i_wq_size 64
l1i_pq_size 8
l1i_mshr_size 8
l1i_latency 1

l1d_size 32
l1d_set 64
l1d_way 8
l1d_rq_size 64
l1d_wq_size 64
l1d_pq_size 8
l1d_mshr_size 16
l1d_latency 4

l2c_size 256
l2c_set 512
l2c_way 8
l2c_rq_size 32
l2c_wq_size 32
l2c_pq_size 32
l2c_mshr_size 32
l2c_latency 10

llc_size 2048
llc_set 2048
llc_way 16
llc_rq_size 32
llc_wq_size 32
llc_pq_size 32
llc_mshr_size 64
llc_latency 20

dram_channel_width 8
dram_wq_size 64
dram_rq_size 64
tRP 15
tRCD 15
tCAS 12.5
dram_dbus_turn_around_time 30
dram_write_high_wm 56
dram_write_low_wm 48
min_dram_writes_per_switch 16
dram_mtps 2400
dram_dbus_return_time 13

scooby_alpha 0.0065088
scooby_gamma 0.556301
scooby_epsilon 0.00182284
scooby_state_num_bits 10
scooby_max_states 1024
scooby_seed 200
scooby_policy EGreedy
scooby_learning_type SARSA
scooby_actions 1,3,4,5,10,11,12,22,23,30,32,-1,-3,-6,0,
scooby_max_actions 15
scooby_pt_size 256
scooby_st_size 64
scooby_max_pcs 5
scooby_max_offsets 5
scooby_max_deltas 5
scooby_reward_none -4
scooby_reward_incorrect -8
scooby_reward_correct_untimely 12
scooby_reward_correct_timely 20
scooby_brain_zero_init 0
scooby_enable_reward_all 0
scooby_enable_track_multiple 0
scooby_enable_reward_out_of_bounds 1
scooby_reward_out_of_bounds -12
scooby_state_type 1
scooby_state_hash_type 11
scooby_access_debug 0
scooby_print_access_debug 0
scooby_print_access_debug_pc deadbeef
scooby_print_access_debug_pc_count 0
scooby_print_trace 0
scooby_enable_state_action_stats 1
scooby_enable_reward_tracker_hit 0
scooby_reward_tracker_hit -2
scooby_enable_featurewise_engine 1
scooby_pref_degree 1
scooby_enable_dyn_degree 1
scooby_max_to_avg_q_thresholds 0.5,1,2,
scooby_dyn_degrees 1,2,4,4,
scooby_multi_deg_select_type 2
scooby_last_pref_offset_conf_thresholds 1,3,8,
scooby_dyn_degrees_type2 1,2,4,6,
scooby_action_tracker_size 2
scooby_high_bw_thresh 4
scooby_enable_hbw_reward 1
scooby_reward_hbw_correct_timely 20
scooby_reward_hbw_correct_untimely 12
scooby_reward_hbw_incorrect -14
scooby_reward_hbw_none -2
scooby_reward_hbw_out_of_bounds -12
scooby_reward_hbw_tracker_hit -2
scooby_last_pref_offset_conf_thresholds_hbw 1,3,8,
scooby_dyn_degrees_type2_hbw 1,2,4,6,

le_enable_trace 0
le_trace_interval 0
le_trace_file_name 
le_trace_state 0
le_enable_score_plot 0
le_plot_file_name 
le_plot_actions 
le_enable_action_trace 0
le_action_trace_interval 0
le_action_trace_name 
le_enable_action_plot 0

le_featurewise_active_features PC, PC_Delta
le_featurewise_num_tilings 3,3,
le_featurewise_num_tiles 128,128,
le_featurewise_hash_types 2,2,
le_featurewise_enable_tiling_offset 1,1,
le_featurewise_max_q_thresh 0.5
le_featurewise_enable_action_fallback 1
le_featurewise_feature_weights 1,1,
le_featurewise_enable_dynamic_weight 0
le_featurewise_weight_gradient 0.001
le_featurewise_disable_adjust_weight_all_features_align 1
le_featurewise_selective_update 0
le_featurewise_pooling_type 2
le_featurewise_enable_dyn_action_fallback 1
le_featurewise_bw_acc_check_level 1
le_featurewise_acc_thresh 2
le_featurewise_enable_trace 0
le_featurewise_trace_feature_type 0
le_featurewise_trace_feature 
le_featurewise_trace_interval 0
le_featurewise_trace_record_count 0
le_featurewise_trace_file_name 
le_featurewise_enable_score_plot 0
le_featurewise_plot_actions 
le_featurewise_plot_file_name 


Heartbeat CPU  0 instructions:    1000003 cycles:     569219 heartbeat IPC: 1.75680 cumulative IPC: 1.75680 (Simulation time: 0 hr 0 min 2 sec) 
Heartbeat CPU  0 instructions:    2000002 cycles:    1146845 heartbeat IPC: 1.73122 cumulative IPC: 1.74392 (Simulation time: 0 hr 0 min 5 sec) 
Heartbeat CPU  0 instructions:    3000000 cycles:    1743004 heartbeat IPC: 1.67740 cumulative IPC: 1.72117 (Simulation time: 0 hr 0 min 7 sec) 
Heartbeat CPU  0 instructions:    4000000 cycles:    2338522 heartbeat IPC: 1.67921 cumulative IPC: 1.71048 (Simulation time: 0 hr 0 min 9 sec) 
Heartbeat CPU  0 instructions:    5000003 cycles:    2886292 heartbeat IPC: 1.82559 cumulative IPC: 1.73233 (Simulation time: 0 hr 0 min 11 sec) 
Heartbeat CPU  0 instructions:    6000003 cycles:    3481576 heartbeat IPC: 1.67987 cumulative IPC: 1.72336 (Simulation time: 0 hr 0 min 14 sec) 
Heartbeat CPU  0 instructions:    7000000 cycles:    4077053 heartbeat IPC: 1.67932 cumulative IPC: 1.71693 (Simulation time: 0 hr 0 min 16 sec) 
Heartbeat CPU  0 instructions:    8000000 cycles:    4624345 heartbeat IPC: 1.82718 cumulative IPC: 1.72997 (Simulation time: 0 hr 0 min 18 sec) 
Heartbeat CPU  0 instructions:    9000003 cycles:    5219797 heartbeat IPC: 1.67940 cumulative IPC: 1.72421 (Simulation time: 0 hr 0 min 20 sec) 
Heartbeat CPU  0 instructions:   10000000 cycles:    5815392 heartbeat IPC: 1.67899 cumulative IPC: 1.71957 (Simulation time: 0 hr 0 min 23 sec) 

Warmup complete CPU  0 instructions:   10000004 cycles:    5815393 (Simulation time: 0 hr 0 min 23 sec) 

Heartbeat CPU  0 instructions:   11000001 cycles:    6713443 heartbeat IPC: 1.11352 cumulative IPC: 1.11352 (Simulation time: 0 hr 0 min 25 sec) 
Heartbeat CPU  0 instructions:   12000000 cycles:    8446913 heartbeat IPC: 0.57688 cumulative IPC: 0.76002 (Simulation time: 0 hr 0 min 28 sec) 
Heartbeat CPU  0 instructions:   13000003 cycles:    9966132 heartbeat IPC: 0.65823 cumulative IPC: 0.72276 (Simulation time: 0 hr 0 min 31 sec) 
Heartbeat CPU  0 instructions:   14000000 cycles:   11427225 heartbeat IPC: 0.68442 cumulative IPC: 0.71278 (Simulation time: 0 hr 0 min 34 sec) 
Heartbeat CPU  0 instructions:   15000000 cycles:   12853380 heartbeat IPC: 0.70119 cumulative IPC: 0.71043 (Simulation time: 0 hr 0 min 37 sec) 
Heartbeat CPU  0 instructions:   16000000 cycles:   14362042 heartbeat IPC: 0.66284 cumulative IPC: 0.70203 (Simulation time: 0 hr 0 min 39 sec) 
Heartbeat CPU  0 instructions:   17000000 cycles:   15740538 heartbeat IPC: 0.72543 cumulative IPC: 0.70528 (Simulation time: 0 hr 0 min 42 sec) 
Heartbeat CPU  0 instructions:   18000001 cycles:   17193384 heartbeat IPC: 0.68830 cumulative IPC: 0.70311 (Simulation time: 0 hr 0 min 45 sec) 
Heartbeat CPU  0 instructions:   19000000 cycles:   18554171 heartbeat IPC: 0.73487 cumulative IPC: 0.70650 (Simulation time: 0 hr 0 min 48 sec) 
Heartbeat CPU  0 instructions:   20000000 cycles:   19916605 heartbeat IPC: 0.73398 cumulative IPC: 0.70916 (Simulation time: 0 hr 0 min 51 sec) 
Heartbeat CPU  0 instructions:   21000001 cycles:   21238497 heartbeat IPC: 0.75649 cumulative IPC: 0.71322 (Simulation time: 0 hr 0 min 53 sec) 
Heartbeat CPU  0 instructions:   22000001 cycles:   23663840 heartbeat IPC: 0.41231 cumulative IPC: 0.67233 (Simulation time: 0 hr 0 min 57 sec) 
Heartbeat CPU  0 instructions:   23000000 cycles:   26301151 heartbeat IPC: 0.37917 cumulative IPC: 0.63459 (Simulation time: 0 hr 1 min 0 sec) 
Heartbeat CPU  0 instructions:   24000000 cycles:   29079364 heartbeat IPC: 0.35994 cumulative IPC: 0.60179 (Simulation time: 0 hr 1 min 3 sec) 
Heartbeat CPU  0 instructions:   25000003 cycles:   31514861 heartbeat IPC: 0.41060 cumulative IPC: 0.58367 (Simulation time: 0 hr 1 min 6 sec) 
Heartbeat CPU  0 instructions:   26000001 cycles:   34289235 heartbeat IPC: 0.36044 cumulative IPC: 0.56192 (Simulation time: 0 hr 1 min 10 sec) 
Heartbeat CPU  0 instructions:   27000000 cycles:   36452313 heartbeat IPC: 0.46230 cumulative IPC: 0.55489 (Simulation time: 0 hr 1 min 13 sec) 
Heartbeat CPU  0 instructions:   28000000 cycles:   38615033 heartbeat IPC: 0.46238 cumulative IPC: 0.54879 (Simulation time: 0 hr 1 min 17 sec) 
Heartbeat CPU  0 instructions:   29000003 cycles:   40835853 heartbeat IPC: 0.45029 cumulative IPC: 0.54254 (Simulation time: 0 hr 1 min 20 sec) 
Heartbeat CPU  0 instructions:   30000000 cycles:   42202207 heartbeat IPC: 0.73187 cumulative IPC: 0.54965 (Simulation time: 0 hr 1 min 23 sec) 
Heartbeat CPU  0 instructions:   31000002 cycles:   43268237 heartbeat IPC: 0.93806 cumulative IPC: 0.56071 (Simulation time: 0 hr 1 min 26 sec) 
Heartbeat CPU  0 instructions:   32000000 cycles:   44323386 heartbeat IPC: 0.94773 cumulative IPC: 0.57131 (Simulation time: 0 hr 1 min 28 sec) 
Heartbeat CPU  0 instructions:   33000001 cycles:   45358095 heartbeat IPC: 0.96646 cumulative IPC: 0.58165 (Simulation time: 0 hr 1 min 31 sec) 
Heartbeat CPU  0 instructions:   34000002 cycles:   46394766 heartbeat IPC: 0.96463 cumulative IPC: 0.59143 (Simulation time: 0 hr 1 min 33 sec) 
Heartbeat CPU  0 instructions:   35000003 cycles:   47426063 heartbeat IPC: 0.96965 cumulative IPC: 0.60081 (Simulation time: 0 hr 1 min 36 sec) 
Heartbeat CPU  0 instructions:   36000000 cycles:   48470824 heartbeat IPC: 0.95715 cumulative IPC: 0.60954 (Simulation time: 0 hr 1 min 38 sec) 
Heartbeat CPU  0 instructions:   37000003 cycles:   49488842 heartbeat IPC: 0.98230 cumulative IPC: 0.61822 (Simulation time: 0 hr 1 min 41 sec) 
Heartbeat CPU  0 instructions:   38000002 cycles:   50513649 heartbeat IPC: 0.97579 cumulative IPC: 0.62642 (Simulation time: 0 hr 1 min 43 sec) 
Heartbeat CPU  0 instructions:   39000002 cycles:   51542330 heartbeat IPC: 0.97212 cumulative IPC: 0.63420 (Simulation time: 0 hr 1 min 46 sec) 
Heartbeat CPU  0 instructions:   40000000 cycles:   52566256 heartbeat IPC: 0.97663 cumulative IPC: 0.64170 (Simulation time: 0 hr 1 min 48 sec) 
Heartbeat CPU  0 instructions:   41000002 cycles:   53614626 heartbeat IPC: 0.95386 cumulative IPC: 0.64855 (Simulation time: 0 hr 1 min 51 sec) 
Heartbeat CPU  0 instructions:   42000002 cycles:   54641897 heartbeat IPC: 0.97345 cumulative IPC: 0.65538 (Simulation time: 0 hr 1 min 53 sec) 
Heartbeat CPU  0 instructions:   43000002 cycles:   55674650 heartbeat IPC: 0.96829 cumulative IPC: 0.66186 (Simulation time: 0 hr 1 min 56 sec) 
Heartbeat CPU  0 instructions:   44000000 cycles:   56693903 heartbeat IPC: 0.98111 cumulative IPC: 0.66826 (Simulation time: 0 hr 1 min 58 sec) 
Heartbeat CPU  0 instructions:   45000000 cycles:   57717683 heartbeat IPC: 0.97677 cumulative IPC: 0.67434 (Simulation time: 0 hr 2 min 1 sec) 
Heartbeat CPU  0 instructions:   46000000 cycles:   58764133 heartbeat IPC: 0.95561 cumulative IPC: 0.67990 (Simulation time: 0 hr 2 min 3 sec) 
Heartbeat CPU  0 instructions:   47000003 cycles:   59787374 heartbeat IPC: 0.97729 cumulative IPC: 0.68554 (Simulation time: 0 hr 2 min 6 sec) 
Heartbeat CPU  0 instructions:   48000000 cycles:   60832791 heartbeat IPC: 0.95655 cumulative IPC: 0.69069 (Simulation time: 0 hr 2 min 9 sec) 
Heartbeat CPU  0 instructions:   49000000 cycles:   61849616 heartbeat IPC: 0.98345 cumulative IPC: 0.69600 (Simulation time: 0 hr 2 min 11 sec) 
Heartbeat CPU  0 instructions:   50000002 cycles:   62882530 heartbeat IPC: 0.96814 cumulative IPC: 0.70093 (Simulation time: 0 hr 2 min 14 sec) 
Heartbeat CPU  0 instructions:   51000002 cycles:   63921030 heartbeat IPC: 0.96293 cumulative IPC: 0.70561 (Simulation time: 0 hr 2 min 16 sec) 
Heartbeat CPU  0 instructions:   52000000 cycles:   64946816 heartbeat IPC: 0.97486 cumulative IPC: 0.71028 (Simulation time: 0 hr 2 min 19 sec) 
Heartbeat CPU  0 instructions:   53000001 cycles:   65992570 heartbeat IPC: 0.95625 cumulative IPC: 0.71456 (Simulation time: 0 hr 2 min 21 sec) 
Heartbeat CPU  0 instructions:   54000000 cycles:   67017691 heartbeat IPC: 0.97549 cumulative IPC: 0.71893 (Simulation time: 0 hr 2 min 24 sec) 
Heartbeat CPU  0 instructions:   55000003 cycles:   68054483 heartbeat IPC: 0.96452 cumulative IPC: 0.72302 (Simulation time: 0 hr 2 min 26 sec) 
Heartbeat CPU  0 instructions:   56000000 cycles:   69093230 heartbeat IPC: 0.96270 cumulative IPC: 0.72695 (Simulation time: 0 hr 2 min 29 sec) 
Heartbeat CPU  0 instructions:   57000000 cycles:   70126212 heartbeat IPC: 0.96807 cumulative IPC: 0.73083 (Simulation time: 0 hr 2 min 31 sec) 
Heartbeat CPU  0 instructions:   58000000 cycles:   71154434 heartbeat IPC: 0.97255 cumulative IPC: 0.73463 (Simulation time: 0 hr 2 min 34 sec) 
Heartbeat CPU  0 instructions:   59000003 cycles:   72171748 heartbeat IPC: 0.98298 cumulative IPC: 0.73844 (Simulation time: 0 hr 2 min 36 sec) 
Heartbeat CPU  0 instructions:   60000000 cycles:   73205484 heartbeat IPC: 0.96736 cumulative IPC: 0.74195 (Simulation time: 0 hr 2 min 39 sec) 
Finished CPU 0 instructions: 50000000 cycles: 67390141 cumulative IPC: 0.74195 (Simulation time: 0 hr 2 min 39 sec) 

ChampSim completed all CPUs

[ROI Statistics]
Core_0_instructions 50000000
Core_0_cycles 67390141
Core_0_IPC 0.74195

Core_0_branch_prediction_accuracy 98.42229
Core_0_branch_MPKI 0.79620
Core_0_average_ROB_occupancy_at_mispredict 243.20201

Core_0_L1D_total_access 13570324
Core_0_L1D_total_hit 11126580
Core_0_L1D_total_miss 2443744
Core_0_L1D_loads 9747712
Core_0_L1D_load_hit 7852038
Core_0_L1D_load_miss 1895674
Core_0_L1D_RFOs 3822612
Core_0_L1D_RFO_hit 3274542
Core_0_L1D_RFO_miss 548070
Core_0_L1D_prefetches 0
Core_0_L1D_prefetch_hit 0
Core_0_L1D_prefetch_miss 0
Core_0_L1D_writebacks 0
Core_0_L1D_writeback_hit 0
Core_0_L1D_writeback_miss 0
Core_0_L1D_prefetch_requested 0
Core_0_L1D_prefetch_dropped 0
Core_0_L1D_prefetch_issued 0
Core_0_L1D_prefetch_filled 0
Core_0_L1D_prefetch_useful 0
Core_0_L1D_prefetch_useless 0
Core_0_L1D_prefetch_late 0
Core_0_L1D_average_miss_latency 87.94610

Core_0_L1D_rq_access 20886737
Core_0_L1D_rq_forward 0
Core_0_L1D_rq_merged 10040188
Core_0_L1D_rq_to_cache 10846102
Core_0_L1D_rq_full 0

Core_0_L1D_wq_access 6465929
Core_0_L1D_wq_forward 447
Core_0_L1D_wq_merged 6275
Core_0_L1D_wq_to_cache 6459654
Core_0_L1D_wq_full 98

Core_0_L1D_pq_access 0
Core_0_L1D_pq_forward 0
Core_0_L1D_pq_merged 0
Core_0_L1D_pq_to_cache 0
Core_0_L1D_pq_full 0

Core_0_L1D_acc_epochs 69681
Core_0_L1D_acc_level_0 69681
Core_0_L1D_acc_level_1 0
Core_0_L1D_acc_level_2 0
Core_0_L1D_acc_level_3 0
Core_0_L1D_acc_level_4 0
Core_0_L1D_acc_level_5 0
Core_0_L1D_acc_level_6 0
Core_0_L1D_acc_level_7 0
Core_0_L1D_acc_level_8 0
Core_0_L1D_acc_level_9 0

Core_0_L1I_total_access 11320129
Core_0_L1I_total_hit 11319749
Core_0_L1I_total_miss 380
Core_0_L1I_loads 11320129
Core_0_L1I_load_hit 11319749
Core_0_L1I_load_miss 380
Core_0_L1I_RFOs 0
Core_0_L1I_RFO_hit 0
Core_0_L1I_RFO_miss 0
Core_0_L1I_prefetches 0
Core_0_L1I_prefetch_hit 0
Core_0_L1I_prefetch_miss 0
Core_0_L1I_writebacks 0
Core_0_L1I_writeback_hit 0
Core_0_L1I_writeback_miss 0
Core_0_L1I_prefetch_requested 0
Core_0_L1I_prefetch_dropped 0
Core_0_L1I_prefetch_issued 0
Core_0_L1I_prefetch_filled 0
Core_0_L1I_prefetch_useful 0
Core_0_L1I_prefetch_useless 0
Core_0_L1I_prefetch_late 0
Core_0_L1I_average_miss_latency 216.31579

Core_0_L1I_rq_access 50000004
Core_0_L1I_rq_forward 0
Core_0_L1I_rq_merged 38679615
Core_0_L1I_rq_to_cache 11320389
Core_0_L1I_rq_full 0

Core_0_L1I_wq_access 0
Core_0_L1I_wq_forward 0
Core_0_L1I_wq_merged 0
Core_0_L1I_wq_to_cache 0
Core_0_L1I_wq_full 0

Core_0_L1I_pq_access 0
Core_0_L1I_pq_forward 0
Core_0_L1I_pq_merged 0
Core_0_L1I_pq_to_cache 0
Core_0_L1I_pq_full 0

Core_0_L1I_acc_epochs 69681
Core_0_L1I_acc_level_0 69681
Core_0_L1I_acc_level_1 0
Core_0_L1I_acc_level_2 0
Core_0_L1I_acc_level_3 0
Core_0_L1I_acc_level_4 0
Core_0_L1I_acc_level_5 0
Core_0_L1I_acc_level_6 0
Core_0_L1I_acc_level_7 0
Core_0_L1I_acc_level_8 0
Core_0_L1I_acc_level_9 0

Core_0_L2C_total_access 8936859
Core_0_L2C_total_hit 6978397
Core_0_L2C_total_miss 1958462
Core_0_L2C_loads 1895828
Core_0_L2C_load_hit 1554038
Core_0_L2C_load_miss 341790
Core_0_L2C_RFOs 547808
Core_0_L2C_RFO_hit 203604
Core_0_L2C_RFO_miss 344204
Core_0_L2C_prefetches 5788680
Core_0_L2C_prefetch_hit 4518150
Core_0_L2C_prefetch_miss 1270530
Core_0_L2C_writebacks 704543
Core_0_L2C_writeback_hit 702605
Core_0_L2C_writeback_miss 1938
Core_0_L2C_prefetch_requested 10189416
Core_0_L2C_prefetch_dropped 328846
Core_0_L2C_prefetch_issued 9860570
Core_0_L2C_prefetch_filled 1474215
Core_0_L2C_prefetch_useful 1355262
Core_0_L2C_prefetch_useless 118507
Core_0_L2C_prefetch_late 240720
Core_0_L2C_average_miss_latency 250.42957

Core_0_L2C_rq_access 2444124
Core_0_L2C_rq_forward 0
Core_0_L2C_rq_merged 0
Core_0_L2C_rq_to_cache 2443636
Core_0_L2C_rq_full 0

Core_0_L2C_wq_access 704544
Core_0_L2C_wq_forward 1166
Core_0_L2C_wq_merged 0
Core_0_L2C_wq_to_cache 704544
Core_0_L2C_wq_full 0

Core_0_L2C_pq_access 9860570
Core_0_L2C_pq_forward 0
Core_0_L2C_pq_merged 1004420
Core_0_L2C_pq_to_cache 8855472
Core_0_L2C_pq_full 0

Core_0_L2C_acc_epochs 69681
Core_0_L2C_acc_level_0 9
Core_0_L2C_acc_level_1 9
Core_0_L2C_acc_level_2 80
Core_0_L2C_acc_level_3 677
Core_0_L2C_acc_level_4 2505
Core_0_L2C_acc_level_5 5683
Core_0_L2C_acc_level_6 7234
Core_0_L2C_acc_level_7 7311
Core_0_L2C_acc_level_8 7175
Core_0_L2C_acc_level_9 38998

Core_0_LLC_total_access 2432843
Core_0_LLC_total_hit 951549
Core_0_LLC_total_miss 1481294
Core_0_LLC_loads 101791
Core_0_LLC_load_hit 61195
Core_0_LLC_load_miss 40596
Core_0_LLC_RFOs 344195
Core_0_LLC_RFO_hit 54539
Core_0_LLC_RFO_miss 289656
Core_0_LLC_prefetches 1510527
Core_0_LLC_prefetch_hit 588338
Core_0_LLC_prefetch_miss 922189
Core_0_LLC_writebacks 476330
Core_0_LLC_writeback_hit 247477
Core_0_LLC_writeback_miss 228853
Core_0_LLC_prefetch_requested 0
Core_0_LLC_prefetch_dropped 0
Core_0_LLC_prefetch_issued 0
Core_0_LLC_prefetch_filled 1091448
Core_0_LLC_prefetch_useful 45019
Core_0_LLC_prefetch_useless 1022002
Core_0_LLC_prefetch_late 0
Core_0_LLC_average_miss_latency 324.19286

Core_0_LLC_rq_access 445995
Core_0_LLC_rq_forward 0
Core_0_LLC_rq_merged 0
Core_0_LLC_rq_to_cache 445986
Core_0_LLC_rq_full 0

Core_0_LLC_wq_access 476330
Core_0_LLC_wq_forward 11
Core_0_LLC_wq_merged 0
Core_0_LLC_wq_to_cache 476330
Core_0_LLC_wq_full 681

Core_0_LLC_pq_access 1714935
Core_0_LLC_pq_forward 0
Core_0_LLC_pq_merged 0
Core_0_LLC_pq_to_cache 1714933
Core_0_LLC_pq_full 0

Core_0_LLC_acc_epochs 71490
Core_0_LLC_acc_level_0 56095
Core_0_LLC_acc_level_1 7448
Core_0_LLC_acc_level_2 3481
Core_0_LLC_acc_level_3 1516
Core_0_LLC_acc_level_4 574
Core_0_LLC_acc_level_5 728
Core_0_LLC_acc_level_6 231
Core_0_LLC_acc_level_7 429
Core_0_LLC_acc_level_8 98
Core_0_LLC_acc_level_9 890

Core_0_major_page_fault 0
Core_0_minor_page_fault 12507

scooby_st_lookup 2198683
scooby_st_hit 2147561
scooby_st_evict 51058
scooby_st_insert 51122
scooby_st_streaming 0

scooby_predict_called 2198683
scooby_predict_out_of_bounds 34973
scooby_predict_action_1 2160611
scooby_predict_issue_action_1 2044290
scooby_predict_hit_action_1 116321
scooby_predict_out_of_bounds_action_1 34308
scooby_predict_action_3 273
scooby_predict_issue_action_3 265
scooby_predict_hit_action_3 8
scooby_predict_out_of_bounds_action_3 13
scooby_predict_action_4 278
scooby_predict_issue_action_4 249
scooby_predict_hit_action_4 29
scooby_predict_out_of_bounds_action_4 18
scooby_predict_action_5 234
scooby_predict_issue_action_5 219
scooby_predict_hit_action_5 15
scooby_predict_out_of_bounds_action_5 15
scooby_predict_action_10 256
scooby_predict_issue_action_10 237
scooby_predict_hit_action_10 19
scooby_predict_out_of_bounds_action_10 48
scooby_predict_action_11 218
scooby_predict_issue_action_11 194
scooby_predict_hit_action_11 24
scooby_predict_out_of_bounds_action_11 47
scooby_predict_action_12 220
scooby_predict_issue_action_12 204
scooby_predict_hit_action_12 16
scooby_predict_out_of_bounds_action_12 45
scooby_predict_action_22 177
scooby_predict_issue_action_22 171
scooby_predict_hit_action_22 6
scooby_predict_out_of_bounds_action_22 95
scooby_predict_action_23 182
scooby_predict_issue_action_23 174
scooby_predict_hit_action_23 8
scooby_predict_out_of_bounds_action_23 85
scooby_predict_action_30 124
scooby_predict_issue_action_30 121
scooby_predict_hit_action_30 3
scooby_predict_out_of_bounds_action_30 134
scooby_predict_action_32 105
scooby_predict_issue_action_32 100
scooby_predict_hit_action_32 5
scooby_predict_out_of_bounds_action_32 119
scooby_predict_action_-1 269
scooby_predict_issue_action_-1 25
scooby_predict_hit_action_-1 244
scooby_predict_out_of_bounds_action_-1 3
scooby_predict_action_-3 263
scooby_predict_issue_action_-3 45
scooby_predict_hit_action_-3 218
scooby_predict_out_of_bounds_action_-3 13
scooby_predict_action_-6 223
scooby_predict_issue_action_-6 69
scooby_predict_hit_action_-6 154
scooby_predict_out_of_bounds_action_-6 30
scooby_predict_action_0 277
scooby_predict_issue_action_0 0
scooby_predict_hit_action_0 0
scooby_predict_out_of_bounds_action_0 0
scooby_predict_multi_deg_called 1893027
scooby_predict_predicted 10189416
scooby_predict_multi_deg 8143053
scooby_predict_multi_deg_2 1861829
scooby_predict_multi_deg_3 1733577
scooby_predict_multi_deg_4 1703091
scooby_predict_multi_deg_5 1435992
scooby_predict_multi_deg_6 1408564
scooby_predict_multi_deg_7 0
scooby_predict_multi_deg_8 0
scooby_predict_multi_deg_9 0
scooby_predict_multi_deg_10 0
scooby_predict_multi_deg_11 0
scooby_predict_multi_deg_12 0
scooby_predict_multi_deg_13 0
scooby_predict_multi_deg_14 0
scooby_predict_multi_deg_15 0
scooby_predict_multi_deg_16 0

scooby_selected_deg_1 153336
scooby_selected_deg_2 98978
scooby_selected_deg_3 0
scooby_selected_deg_4 247997
scooby_selected_deg_5 0
scooby_selected_deg_6 1546052
scooby_selected_deg_7 0
scooby_selected_deg_8 0
scooby_selected_deg_9 0
scooby_selected_deg_10 0
scooby_selected_deg_11 0
scooby_selected_deg_12 0
scooby_selected_deg_13 0
scooby_selected_deg_14 0
scooby_selected_deg_15 0
scooby_selected_deg_16 0

scooby_state_40f127|1|1 2192,0,0,1,0,0,1,0,1,0,0,0,0,0,0,2195,
scooby_state_40f127|2|1 2190,0,1,0,0,0,0,0,0,0,0,0,0,0,1,2192,
scooby_state_40f127|0|0 2188,0,0,0,0,0,2,0,0,0,0,0,1,0,0,2191,
scooby_state_40f127|7|1 2184,1,1,0,0,0,2,0,0,0,0,2,0,0,0,2190,
scooby_state_40f127|16|1 2185,1,1,1,0,0,0,0,0,0,0,1,0,0,0,2189,
scooby_state_40f127|11|1 2183,0,0,1,1,1,0,0,0,0,0,0,0,2,1,2189,
scooby_state_40f127|29|1 2184,1,0,0,0,0,0,1,1,0,1,0,1,0,0,2189,
scooby_state_40f127|9|1 2184,0,0,0,0,0,0,0,0,2,1,0,0,0,1,2188,
scooby_state_40f127|3|1 2183,0,0,0,0,0,1,0,0,1,0,1,1,0,0,2187,
scooby_state_40f127|8|1 2185,0,1,0,0,0,0,0,0,0,1,0,0,0,0,2187,
scooby_state_40f127|15|1 2181,0,1,0,0,1,2,1,0,0,0,0,0,0,1,2187,
scooby_state_40f127|19|1 2185,0,0,0,0,1,1,0,0,0,0,0,0,0,0,2187,
scooby_state_40f127|63|1 2182,1,0,1,1,1,0,0,0,1,0,0,0,0,0,2187,
scooby_state_40f127|60|1 2180,0,1,0,0,1,0,1,0,0,0,2,1,0,0,2186,
scooby_state_40f127|53|1 2184,0,0,1,1,0,0,0,0,0,0,0,0,0,0,2186,
scooby_state_40f127|56|1 2184,0,0,1,0,1,0,0,0,0,0,0,0,0,0,2186,
scooby_state_40f127|61|1 2184,0,1,0,1,0,0,0,0,0,0,0,0,0,0,2186,
scooby_state_40f127|50|1 2182,0,1,0,0,0,1,1,0,1,0,0,0,0,0,2186,
scooby_state_40f127|57|1 2183,0,0,0,0,1,1,0,0,0,0,0,0,0,1,2186,
scooby_state_40f127|12|1 2185,0,0,0,0,0,0,0,0,1,0,0,0,0,0,2186,
scooby_state_40f127|49|1 2184,0,0,1,0,0,0,0,0,0,0,0,1,0,0,2186,
scooby_state_40f127|13|1 2183,0,0,0,1,0,0,0,0,0,1,0,1,0,0,2186,
scooby_state_40f127|20|1 2182,1,0,1,0,0,0,0,0,1,0,0,0,1,0,2186,
scooby_state_40f127|41|1 2181,1,0,1,0,0,0,1,0,0,1,1,0,0,0,2186,
scooby_state_40f127|58|1 2183,0,0,0,0,1,0,0,0,0,0,0,0,0,1,2185,
scooby_state_40f127|38|1 2185,0,0,0,0,0,0,0,0,0,0,0,0,0,0,2185,
scooby_state_40f127|5|1 2180,0,1,1,0,2,0,0,1,0,0,0,0,0,0,2185,
scooby_state_40f127|27|1 2175,1,1,1,1,0,1,0,1,2,0,0,1,0,1,2185,
scooby_state_40f127|30|1 2182,0,0,0,0,0,0,1,0,0,2,0,0,0,0,2185,
scooby_state_40f127|59|1 2182,0,0,0,1,0,0,0,0,2,0,0,0,0,0,2185,
scooby_state_40f127|54|1 2182,0,1,0,0,1,0,0,0,0,0,0,0,0,1,2185,
scooby_state_40f127|18|1 2182,1,0,0,0,0,1,0,1,0,0,0,0,0,0,2185,
scooby_state_40f127|22|1 2180,0,0,0,2,0,2,0,0,1,0,0,0,0,0,2185,
scooby_state_40f127|51|1 2182,0,1,0,1,0,0,0,0,0,0,1,0,0,0,2185,
scooby_state_40f127|32|1 2184,0,0,0,0,0,0,0,1,0,0,0,0,0,0,2185,
scooby_state_40f127|52|1 2184,0,0,0,0,0,0,1,0,0,0,0,0,0,0,2185,
scooby_state_40f127|47|1 2178,0,0,1,1,0,1,0,1,0,0,1,0,2,0,2185,
scooby_state_40f127|10|1 2183,0,0,0,0,0,0,0,1,0,0,0,0,0,0,2184,
scooby_state_40f10e|0|0 2181,0,0,0,0,0,1,0,0,0,1,0,0,1,0,2184,
scooby_state_40f127|45|1 2180,0,0,0,0,0,0,1,0,0,0,1,1,0,1,2184,
scooby_state_40f127|21|1 2183,0,0,0,0,0,0,1,0,0,0,0,0,0,0,2184,
scooby_state_40f127|26|1 2181,0,0,1,0,0,0,0,1,0,0,0,0,1,0,2184,
scooby_state_40f127|6|1 2182,0,0,0,0,0,0,0,0,0,0,0,0,1,1,2184,
scooby_state_40f127|28|1 2177,0,0,0,0,0,0,1,1,1,4,0,0,0,0,2184,
scooby_state_40f127|55|1 2178,0,0,1,0,0,0,1,0,2,0,1,1,0,0,2184,
scooby_state_40f127|23|1 2180,0,0,2,0,1,0,0,0,0,0,1,0,0,0,2184,
scooby_state_40f127|48|1 2181,1,0,0,0,0,0,0,0,0,1,0,0,0,1,2184,
scooby_state_40f127|44|1 2179,0,1,0,0,0,0,0,0,1,2,0,0,1,0,2184,
scooby_state_40f127|17|1 2179,2,0,0,0,1,0,0,0,0,0,0,2,0,0,2184,
scooby_state_40f10e|60|1 2182,0,0,0,0,0,1,0,0,0,0,0,0,0,0,2183,
scooby_state_40f105|28|1 2179,0,0,0,1,0,1,1,0,0,0,1,0,0,0,2183,
scooby_state_40f105|29|1 2176,1,1,0,0,0,0,0,0,0,0,2,0,1,2,2183,
scooby_state_40f127|42|1 2182,0,0,0,0,0,0,0,0,0,0,0,1,0,0,2183,
scooby_state_40f10e|63|1 2181,0,1,0,0,0,0,0,1,0,0,0,0,0,0,2183,
scooby_state_40f10e|54|1 2181,0,0,0,0,0,0,0,0,0,1,0,1,0,0,2183,
scooby_state_40f10e|1|1 2182,0,0,0,0,0,0,0,0,0,1,0,0,0,0,2183,
scooby_state_40f127|37|1 2176,1,1,0,1,1,2,0,0,0,1,0,0,0,0,2183,
scooby_state_40f105|32|1 2180,2,0,0,0,0,0,0,0,1,0,0,0,0,0,2183,
scooby_state_40f127|31|1 2176,0,1,0,0,1,0,1,0,0,0,2,1,1,0,2183,
scooby_state_40f10e|2|1 2181,1,0,0,0,0,0,0,0,0,0,0,1,0,0,2183,
scooby_state_40f10e|6|1 2182,0,0,0,0,0,0,0,0,0,0,0,0,1,0,2183,
scooby_state_40f127|33|1 2179,0,0,0,0,0,0,1,0,1,0,1,0,1,0,2183,
scooby_state_40f10e|18|1 2181,0,0,0,0,1,0,0,0,0,0,0,0,0,1,2183,
scooby_state_40f127|35|1 2179,1,0,0,2,0,0,0,1,0,0,0,0,0,0,2183,
scooby_state_40f105|31|1 2178,1,1,0,0,0,1,0,1,0,0,0,0,0,0,2182,
scooby_state_40f105|16|1 2180,0,0,0,0,0,0,0,1,0,0,0,0,1,0,2182,
scooby_state_40f127|43|1 2175,1,0,1,0,0,0,0,0,0,1,0,1,0,3,2182,
scooby_state_40f10e|50|1 2179,1,0,0,0,0,0,0,1,0,1,0,0,0,0,2182,
scooby_state_40f10e|17|1 2173,0,0,0,1,1,0,0,2,1,0,0,1,2,1,2182,
scooby_state_40f127|39|1 2178,0,1,1,0,2,0,0,0,0,0,0,0,0,0,2182,
scooby_state_40f127|25|1 2179,0,0,0,0,0,0,0,0,0,0,1,0,2,0,2182,
scooby_state_40f105|50|1 2179,0,0,1,0,0,0,0,0,1,0,1,0,0,0,2182,
scooby_state_40f105|27|1 2178,0,0,1,0,0,0,1,1,0,0,0,0,0,1,2182,
scooby_state_40f105|17|1 2178,1,1,0,0,1,0,0,1,0,0,0,0,0,0,2182,
scooby_state_40f105|18|1 2178,0,1,0,1,0,0,0,0,1,0,1,0,0,0,2182,
scooby_state_40f10e|53|1 2177,0,0,2,1,0,0,0,1,1,0,0,0,0,0,2182,
scooby_state_40f127|46|1 2181,0,0,0,0,0,0,1,0,0,0,0,0,0,0,2182,
scooby_state_40f105|33|1 2178,0,2,0,0,0,0,1,0,0,0,0,0,0,1,2182,
scooby_state_40f10e|12|1 2176,0,1,0,0,0,1,1,0,0,0,1,1,1,0,2182,
scooby_state_40f105|22|1 2176,0,0,2,0,1,0,0,1,0,1,0,0,0,1,2182,
scooby_state_40f10e|16|1 2178,0,0,0,0,0,0,1,0,1,1,0,1,0,0,2182,
scooby_state_40f127|34|1 2179,0,0,0,0,1,0,0,0,0,1,1,0,0,0,2182,
scooby_state_40f10e|19|1 2178,0,1,0,0,0,1,0,0,0,2,0,0,0,0,2182,
scooby_state_40f10e|55|1 2179,0,0,1,0,1,0,0,1,0,0,0,0,0,0,2182,
scooby_state_40f10e|8|1 2178,1,1,0,0,0,0,0,1,0,0,0,0,1,0,2182,
scooby_state_40f10e|10|1 2180,0,0,0,0,0,0,0,1,1,0,0,0,0,0,2182,
scooby_state_40f10e|9|1 2177,0,0,2,0,0,0,0,0,1,1,1,0,0,0,2182,
scooby_state_40f105|51|1 2177,0,1,0,1,0,0,1,1,0,0,0,0,0,1,2182,
scooby_state_40f127|62|1 2179,1,0,0,0,0,1,0,0,0,0,0,1,0,0,2182,
scooby_state_40f127|4|1 2179,0,0,0,0,0,0,1,0,0,0,0,2,0,0,2182,
scooby_state_40f105|19|1 2181,0,0,0,0,0,0,0,0,1,0,0,0,0,0,2182,
scooby_state_40f127|36|1 2175,1,0,1,0,0,0,1,0,0,1,1,1,1,0,2182,
scooby_state_40f127|14|1 2180,0,0,0,1,0,0,0,0,1,0,0,0,0,0,2182,
scooby_state_40f105|54|1 2178,1,0,0,0,0,0,0,0,0,0,0,0,0,3,2182,
scooby_state_40f10e|61|1 2177,1,0,1,1,0,1,0,0,0,0,0,0,0,1,2182,
scooby_state_40f10e|62|1 2177,0,1,0,1,0,2,0,0,0,0,0,0,1,0,2182,
scooby_state_40f10e|11|1 2177,0,0,0,0,0,0,1,1,0,0,0,1,1,1,2182,
scooby_state_40f10e|28|1 2178,1,0,1,0,0,0,0,1,0,0,1,0,0,0,2182,
scooby_state_40f10e|7|1 2179,0,0,0,1,0,0,1,0,1,0,0,0,0,0,2182,
scooby_state_40f105|30|1 2178,0,1,0,0,0,0,0,1,0,0,0,1,1,0,2182,
scooby_state_40f105|23|1 2178,0,0,0,0,0,1,0,1,0,0,0,1,0,0,2181,
scooby_state_40f105|34|1 2178,0,0,0,0,1,0,0,0,0,0,1,0,1,0,2181,
scooby_state_40f105|52|1 2175,0,2,0,0,0,0,1,0,0,0,2,0,1,0,2181,
scooby_state_40f10e|27|1 2178,0,0,0,0,1,0,0,1,0,1,0,0,0,0,2181,
scooby_state_40f10e|56|1 2178,0,0,1,0,0,0,0,2,0,0,0,0,0,0,2181,
scooby_state_40f10e|20|1 2178,0,0,0,0,0,1,0,1,0,0,0,1,0,0,2181,
scooby_state_40f105|0|0 2180,0,0,0,0,0,1,0,0,0,0,0,0,0,0,2181,
scooby_state_40f105|12|1 2180,0,1,0,0,0,0,0,0,0,0,0,0,0,0,2181,
scooby_state_40f105|7|1 2179,0,1,0,0,0,0,0,0,0,0,0,0,1,0,2181,
scooby_state_40f10e|59|1 2179,1,0,0,0,0,0,0,0,0,1,0,0,0,0,2181,
scooby_state_40f10e|51|1 2178,0,0,1,0,1,0,0,0,0,0,0,1,0,0,2181,
scooby_state_40f105|53|1 2177,0,0,0,1,0,0,1,0,0,0,0,1,0,1,2181,
scooby_state_40f105|21|1 2177,0,0,1,1,0,0,0,1,0,0,0,1,0,0,2181,
scooby_state_40f10e|22|1 2176,0,0,0,0,0,0,0,4,0,0,0,1,0,0,2181,
scooby_state_40f105|61|1 2178,0,0,1,0,0,0,1,0,0,1,0,0,0,0,2181,
scooby_state_40f10e|29|1 2174,0,1,0,0,0,0,0,1,1,2,0,1,0,1,2181,
scooby_state_40f127|24|1 2176,1,0,0,1,0,1,0,0,1,0,0,0,1,0,2181,
scooby_state_40f105|6|1 2178,1,0,0,0,0,0,0,1,1,0,0,0,0,0,2181,
scooby_state_40f10e|5|1 2180,0,0,0,0,0,0,0,0,0,0,0,0,1,0,2181,
scooby_state_40f105|26|1 2177,0,0,0,0,1,0,1,0,1,0,0,0,0,1,2181,
scooby_state_40f105|20|1 2179,2,0,0,0,0,0,0,0,0,0,0,0,0,0,2181,
scooby_state_40f10e|52|1 2178,1,0,0,0,0,1,0,0,1,0,0,0,0,0,2181,
scooby_state_40f10e|49|1 2177,0,0,0,0,0,2,0,0,0,1,1,0,0,0,2181,
scooby_state_40f105|55|1 2177,0,0,0,1,1,0,0,0,0,0,0,1,1,0,2181,
scooby_state_40f10e|21|1 2180,0,0,0,0,1,0,0,0,0,0,0,0,0,0,2181,
scooby_state_40f105|60|1 2178,0,0,0,0,0,1,1,0,0,1,0,0,0,0,2181,
scooby_state_40f10e|31|1 2176,0,0,0,0,0,1,1,0,0,0,0,1,1,0,2180,
scooby_state_40f10e|32|1 2174,0,0,0,2,0,2,1,0,0,0,0,0,1,0,2180,
scooby_state_40f105|63|1 2178,0,0,0,0,0,0,0,0,0,0,1,1,0,0,2180,
scooby_state_40f105|38|1 2178,0,0,0,0,0,0,1,0,0,0,0,1,0,0,2180,
scooby_state_40f105|35|1 2176,1,1,0,0,1,1,0,0,0,0,0,0,0,0,2180,
scooby_state_40f127|40|1 2175,0,0,0,0,0,0,1,0,2,0,0,1,0,1,2180,
scooby_state_40f10e|26|1 2179,1,0,0,0,0,0,0,0,0,0,0,0,0,0,2180,
scooby_state_40f105|1|1 2178,1,0,0,0,0,0,0,0,0,0,0,1,0,0,2180,
scooby_state_40f10e|48|1 2176,1,0,0,1,0,1,1,0,0,0,0,0,0,0,2180,
scooby_state_40f105|49|1 2177,1,0,0,0,0,0,0,1,0,0,0,1,0,0,2180,
scooby_state_40f105|13|1 2174,0,0,1,2,1,0,0,1,0,0,0,0,0,1,2180,
scooby_state_40f10e|30|1 2175,0,0,0,0,1,0,1,0,1,0,1,1,0,0,2180,
scooby_state_40f105|56|1 2175,0,0,0,0,1,1,0,1,0,0,0,0,1,1,2180,
scooby_state_40f105|44|1 2177,0,1,0,0,1,1,0,0,0,0,0,0,0,0,2180,
scooby_state_40f105|39|1 2175,0,1,1,0,1,0,0,0,0,0,0,1,0,1,2180,
scooby_state_40f10e|3|1 2176,0,0,1,0,1,0,0,1,0,0,0,1,0,0,2180,
scooby_state_40f105|2|1 2174,1,0,0,0,1,0,0,0,1,1,0,1,1,0,2180,
scooby_state_40f105|8|1 2177,0,0,0,1,0,0,1,0,0,0,0,1,0,0,2180,
scooby_state_40f105|9|1 2179,0,0,0,0,0,0,0,1,0,0,0,0,0,0,2180,
scooby_state_40f105|10|1 2177,0,0,0,0,1,0,0,0,0,1,1,0,0,0,2180,
scooby_state_40f105|11|1 2177,0,0,0,1,0,0,1,0,0,0,1,0,0,0,2180,
scooby_state_40f10e|15|1 2176,1,1,0,0,0,0,1,0,0,0,0,1,0,0,2180,
scooby_state_40f105|62|1 2177,0,1,0,2,0,0,0,0,0,0,0,0,0,0,2180,
scooby_state_40f105|15|1 2174,0,1,1,0,0,0,0,0,1,0,1,0,1,0,2179,
scooby_state_40f105|24|1 2176,1,0,0,0,0,1,0,0,0,0,0,0,0,1,2179,
scooby_state_40f105|45|1 2176,0,0,0,1,0,0,0,0,2,0,0,0,0,0,2179,
scooby_state_40f105|25|1 2175,0,1,0,0,1,0,0,0,0,0,0,1,0,1,2179,
scooby_state_40f10e|44|1 2174,0,1,0,0,0,0,0,1,1,0,0,1,0,1,2179,
scooby_state_40f105|36|1 2177,0,1,0,0,0,0,0,0,0,0,0,0,1,0,2179,
scooby_state_40f105|40|1 2176,0,0,0,0,0,1,0,1,0,0,1,0,0,0,2179,
scooby_state_40f10e|57|1 2179,0,0,0,0,0,0,0,0,0,0,0,0,0,0,2179,
scooby_state_40f105|43|1 2177,0,1,0,1,0,0,0,0,0,0,0,0,0,0,2179,
scooby_state_40f10e|38|1 2174,1,0,0,0,1,0,0,0,1,0,1,0,0,1,2179,
scooby_state_40f10e|4|1 2177,0,1,0,1,0,0,0,0,0,0,0,0,0,0,2179,
scooby_state_40f105|3|1 2174,0,0,1,0,0,1,0,0,0,0,0,2,0,1,2179,
scooby_state_40f10e|13|1 2176,0,1,0,0,0,0,1,1,0,0,0,0,0,0,2179,
scooby_state_40f10e|47|1 2173,0,1,2,1,0,0,0,0,1,0,0,0,0,1,2179,
scooby_state_40f10e|58|1 2176,0,0,1,0,0,0,0,0,0,0,0,1,0,1,2179,
scooby_state_40f105|37|1 2176,0,0,0,0,1,0,0,1,0,1,0,0,0,0,2179,
scooby_state_40f105|48|1 2175,0,0,0,0,0,0,1,0,1,0,1,1,0,0,2179,
scooby_state_40f105|42|1 2172,0,0,1,1,0,0,0,1,1,0,1,0,1,0,2178,
scooby_state_40f10e|39|1 2176,0,0,0,1,0,0,0,0,1,0,0,0,0,0,2178,
scooby_state_40f10e|33|1 2174,1,0,0,1,1,0,0,0,0,1,0,0,0,0,2178,
scooby_state_40f105|41|1 2176,0,0,0,0,1,0,0,1,0,0,0,0,0,0,2178,
scooby_state_40f10e|45|1 2172,2,0,1,0,0,1,0,0,0,0,2,0,0,0,2178,
scooby_state_40f10e|23|1 2173,0,1,0,0,1,1,2,0,0,0,0,0,0,0,2178,
scooby_state_40f105|57|1 2174,0,1,0,0,0,0,1,0,0,0,1,0,0,1,2178,
scooby_state_40f10e|37|1 2176,0,1,0,0,0,0,0,0,1,0,0,0,0,0,2178,
scooby_state_40f10e|34|1 2176,0,0,0,0,0,0,0,0,0,1,0,0,0,1,2178,
scooby_state_40f105|46|1 2175,0,1,1,0,0,0,0,0,1,0,0,0,0,0,2178,
scooby_state_40f105|5|1 2177,0,0,0,1,0,0,0,0,0,0,0,0,0,0,2178,
scooby_state_40f105|59|1 2173,0,1,1,0,0,1,1,0,0,0,0,0,1,0,2178,
scooby_state_40f105|14|1 2171,0,0,3,0,0,0,0,1,1,0,0,1,0,1,2178,
scooby_state_40f10e|14|1 2176,0,0,1,0,1,0,0,0,0,0,0,0,0,0,2178,
scooby_state_40f10e|43|1 2171,1,1,0,0,1,1,0,0,1,0,0,2,0,0,2178,
scooby_state_40f105|47|1 2177,0,1,0,0,0,0,0,0,0,0,0,0,0,0,2178,
scooby_state_40f10e|25|1 2176,1,0,0,0,0,0,0,0,0,0,0,1,0,0,2178,
scooby_state_40f10e|46|1 2174,0,1,1,0,0,0,0,1,0,0,0,0,0,1,2178,
scooby_state_40f10e|40|1 2174,0,0,0,0,0,2,0,0,0,1,0,0,0,0,2177,
scooby_state_40f10e|24|1 2171,0,0,0,2,0,1,1,0,1,0,1,0,0,0,2177,
scooby_state_40f105|4|1 2171,2,1,1,0,0,1,0,0,0,0,0,0,1,0,2177,
scooby_state_40f10e|36|1 2171,0,1,2,1,1,0,0,0,0,0,1,0,0,0,2177,
scooby_state_40f10e|42|1 2174,0,0,0,0,1,0,0,0,1,0,0,0,0,1,2177,
scooby_state_40f10e|35|1 2176,0,0,0,0,0,0,0,0,0,0,1,0,0,0,2177,
scooby_state_40f105|58|1 2176,0,0,0,1,0,0,0,0,0,0,0,0,0,0,2177,
scooby_state_40f10e|41|1 2171,1,0,0,0,0,0,0,0,1,1,2,0,0,0,2176,
scooby_state_411640|35|1 1310,0,0,0,0,0,1,0,0,0,0,0,0,0,0,1311,
scooby_state_411640|27|1 1304,0,0,0,1,0,0,0,0,0,1,0,0,0,0,1306,
scooby_state_411640|28|1 1304,0,1,0,0,0,0,0,0,0,0,0,0,0,0,1305,
scooby_state_411640|34|1 1303,0,0,0,0,0,1,0,0,0,0,1,0,0,0,1305,
scooby_state_411640|36|1 1302,0,0,1,0,0,0,0,1,0,0,0,0,0,0,1304,
scooby_state_411640|33|1 1302,0,0,0,0,0,0,0,0,0,0,0,0,0,0,1302,
scooby_state_411640|37|1 1299,0,0,0,1,0,0,0,0,0,0,0,0,1,0,1301,
scooby_state_411640|26|1 1293,1,0,0,0,0,0,0,1,3,0,0,2,1,0,1301,
scooby_state_411640|25|1 1299,0,0,0,0,0,0,0,0,0,0,0,1,0,0,1300,
scooby_state_411640|18|1 1299,0,0,0,0,0,0,0,0,0,0,0,0,0,0,1299,
scooby_state_411640|23|1 1293,0,0,0,1,0,1,0,2,0,0,0,0,1,0,1298,
scooby_state_411640|38|1 1293,0,1,0,0,1,0,0,1,0,1,0,0,1,0,1298,
scooby_state_411640|19|1 1294,0,0,0,1,2,0,0,0,0,0,0,0,0,1,1298,
scooby_state_411640|21|1 1295,0,0,2,0,0,0,0,0,0,0,0,0,1,0,1298,
scooby_state_411640|17|1 1295,0,0,0,0,2,0,0,1,0,0,0,0,0,0,1298,
scooby_state_411640|29|1 1295,2,0,0,0,0,0,0,0,0,0,0,0,0,0,1297,
scooby_state_411640|12|1 1294,0,0,0,1,0,1,0,0,0,0,1,0,0,0,1297,
scooby_state_411640|16|1 1294,1,0,0,0,1,0,0,0,0,0,0,0,0,1,1297,
scooby_state_411640|22|1 1296,0,0,0,0,0,0,0,0,0,0,0,0,0,0,1296,
scooby_state_411640|24|1 1290,0,1,0,0,1,0,1,0,0,1,0,0,1,0,1295,
scooby_state_411640|32|1 1295,0,0,0,0,0,0,0,0,0,0,0,0,0,0,1295,
scooby_state_411640|30|1 1293,1,1,0,0,0,0,0,0,0,0,0,0,0,0,1295,
scooby_state_411640|20|1 1293,0,0,0,0,0,1,0,0,0,0,1,0,0,0,1295,
scooby_state_411640|11|1 1292,0,0,0,0,0,0,0,0,0,1,0,0,0,1,1294,
scooby_state_411640|0|0 1291,0,0,1,0,0,1,0,0,0,0,0,0,0,1,1294,
scooby_state_411640|13|1 1291,1,0,0,0,0,1,1,0,0,0,0,0,0,0,1294,
scooby_state_411640|14|1 1292,0,0,1,0,0,0,0,0,0,0,0,0,0,0,1293,
scooby_state_411640|39|1 1290,0,0,1,0,0,0,0,0,0,0,1,0,0,0,1292,
scooby_state_411640|15|1 1289,0,0,1,0,0,0,0,0,0,0,1,0,1,0,1292,
scooby_state_411640|31|1 1292,0,0,0,0,0,0,0,0,0,0,0,0,0,0,1292,
scooby_state_411640|1|1 1288,0,0,0,0,0,0,0,0,1,0,0,0,1,0,1290,
scooby_state_411640|40|1 1287,1,0,0,0,0,0,0,0,0,0,0,0,0,0,1288,
scooby_state_411640|10|1 1286,0,0,1,0,0,0,0,0,0,0,0,0,0,0,1287,
scooby_state_411640|54|1 1286,0,0,0,0,1,0,0,0,0,0,0,0,0,0,1287,
scooby_state_411640|55|1 1283,0,0,0,0,0,1,0,0,0,0,1,0,0,1,1286,
scooby_state_411640|45|1 1284,0,0,0,0,0,0,0,1,0,0,0,0,0,0,1285,
scooby_state_411640|43|1 1283,0,0,0,0,0,1,1,0,0,0,0,0,0,0,1285,
scooby_state_411640|2|1 1284,0,0,0,0,0,0,0,0,0,0,0,0,0,0,1284,
scooby_state_411640|56|1 1280,1,0,0,0,0,0,0,0,0,0,0,0,2,1,1284,
scooby_state_411640|49|1 1283,0,0,0,0,0,0,0,1,0,0,0,0,0,0,1284,
scooby_state_411640|48|1 1283,0,0,0,0,0,0,0,0,0,0,1,0,0,0,1284,
scooby_state_411640|9|1 1280,1,0,0,0,0,1,0,0,0,1,0,0,0,0,1283,
scooby_state_411640|47|1 1281,0,0,1,0,0,0,0,0,0,0,0,0,0,0,1282,
scooby_state_411640|58|1 1280,0,1,1,0,0,0,0,0,0,0,0,0,0,0,1282,
scooby_state_411640|41|1 1279,1,0,0,0,0,0,0,0,0,0,0,1,0,1,1282,
scooby_state_411640|53|1 1279,0,1,0,0,0,1,0,1,0,0,0,0,0,0,1282,
scooby_state_411640|44|1 1280,0,2,0,0,0,0,0,0,0,0,0,0,0,0,1282,
scooby_state_411640|46|1 1277,0,0,0,0,1,0,0,1,0,1,0,0,0,0,1280,
scooby_state_411640|42|1 1279,0,0,0,1,0,0,0,0,0,0,0,0,0,0,1280,
scooby_state_411640|63|1 1277,0,0,0,0,0,0,0,0,0,0,0,1,1,0,1279,
scooby_state_411640|59|1 1275,0,0,0,1,0,0,0,0,0,0,0,1,2,0,1279,
scooby_state_411640|8|1 1276,0,0,0,1,0,0,0,0,1,0,0,0,0,1,1279,
scooby_state_411640|7|1 1274,0,0,0,1,0,0,2,0,1,0,0,0,0,0,1278,
scooby_state_411640|5|1 1277,0,0,0,0,0,0,0,0,0,0,1,0,0,0,1278,
scooby_state_411640|3|1 1276,0,0,1,0,0,0,0,1,0,0,0,0,0,0,1278,
scooby_state_411640|57|1 1276,1,0,0,0,0,1,0,0,0,0,0,0,0,0,1278,
scooby_state_411640|6|1 1277,0,0,0,0,0,0,0,0,0,0,0,0,0,0,1277,
scooby_state_411640|50|1 1274,0,0,0,0,0,0,0,1,0,1,0,0,0,0,1276,
scooby_state_411640|52|1 1275,1,0,0,0,0,0,0,0,0,0,0,0,0,0,1276,
scooby_state_4132a0|8|1 1273,0,0,0,0,0,0,0,1,0,0,0,0,0,1,1275,
scooby_state_411640|4|1 1274,0,0,1,0,0,0,0,0,0,0,0,0,0,0,1275,
scooby_state_411640|60|1 1273,1,0,0,0,1,0,0,0,0,0,0,0,0,0,1275,
scooby_state_4132a0|40|1 1273,0,0,0,0,0,0,0,0,0,1,0,0,0,0,1274,
scooby_state_4132a0|39|1 1273,0,0,0,0,0,0,0,0,0,0,0,0,0,1,1274,
scooby_state_411640|61|1 1270,0,0,1,0,0,0,0,0,0,0,1,0,1,0,1273,
scooby_state_411640|51|1 1271,0,0,0,0,0,0,1,0,0,0,0,0,0,0,1272,
scooby_state_411640|62|1 1266,0,0,0,0,2,0,0,1,0,0,0,0,0,0,1269,
scooby_state_4132b0|23|1 1219,1,0,0,1,0,0,0,0,0,0,1,0,0,0,1222,
scooby_state_4132b0|22|1 1220,0,0,0,0,0,0,0,0,1,0,1,0,0,0,1222,
scooby_state_4132b0|12|1 1215,0,0,1,0,0,1,1,1,0,0,0,0,0,1,1220,
scooby_state_4132b0|18|1 1218,0,0,0,1,0,0,0,0,1,0,0,0,0,0,1220,
scooby_state_4132b0|28|1 1218,0,0,0,1,0,0,0,0,1,0,0,0,0,0,1220,
scooby_state_4132b0|24|1 1216,0,0,0,0,0,0,0,1,0,1,0,0,1,1,1220,
scooby_state_4132b0|27|1 1217,0,0,0,1,0,0,0,0,0,1,0,0,0,0,1219,
scooby_state_4132b0|34|1 1219,0,0,0,0,0,0,0,0,0,0,0,0,0,0,1219,
scooby_state_4132b0|17|1 1218,0,0,0,0,0,0,0,0,0,0,0,0,1,0,1219,
scooby_state_4132b0|21|1 1218,0,1,0,0,0,0,0,0,0,0,0,0,0,0,1219,
scooby_state_4132b0|33|1 1214,0,1,0,0,0,0,0,2,0,1,0,1,0,0,1219,
scooby_state_4132b0|19|1 1214,0,0,0,0,0,0,1,1,1,0,0,1,0,0,1218,
scooby_state_4132b0|32|1 1215,0,0,1,0,0,0,0,0,0,0,0,1,0,1,1218,
scooby_state_4132b0|29|1 1216,0,0,0,1,1,0,0,0,0,0,0,0,0,0,1218,
scooby_state_4132b0|13|1 1216,0,0,0,0,0,1,1,0,0,0,0,0,0,0,1218,
scooby_state_4132b0|11|1 1212,0,0,1,0,0,0,0,1,0,0,1,2,0,1,1218,
scooby_state_4132b0|30|1 1215,0,0,0,1,0,1,0,0,0,0,0,0,0,1,1218,
scooby_state_4132b0|16|1 1216,0,1,0,0,0,0,0,0,0,0,0,0,1,0,1218,
scooby_state_4132b0|25|1 1216,0,0,0,0,0,1,1,0,0,0,0,0,0,0,1218,
scooby_state_4132b0|20|1 1218,0,0,0,0,0,0,0,0,0,0,0,0,0,0,1218,
scooby_state_4132b0|26|1 1217,0,1,0,0,0,0,0,0,0,0,0,0,0,0,1218,
scooby_state_4132b0|31|1 1216,0,0,0,0,0,0,0,0,0,1,0,0,0,0,1217,
scooby_state_4132b0|14|1 1215,0,0,0,0,0,0,0,0,1,0,0,0,0,1,1217,
scooby_state_4132b0|15|1 1217,0,0,0,0,0,0,0,0,0,0,0,0,0,0,1217,
scooby_state_4132b0|35|1 1214,1,1,0,0,0,0,0,0,0,0,0,0,0,0,1216,
scooby_state_4132b0|10|1 1214,0,0,1,0,0,0,0,0,0,0,1,0,0,0,1216,
scooby_state_4132b0|38|1 1214,0,1,0,0,0,0,0,0,0,0,0,0,0,0,1215,
scooby_state_4132b0|8|1 1214,0,0,0,0,0,1,0,0,0,0,0,0,0,0,1215,
scooby_state_4132b0|7|1 1209,2,0,0,0,0,0,0,0,0,0,2,0,0,1,1214,
scooby_state_4132b0|9|1 1212,1,1,0,0,0,0,0,0,0,0,0,0,0,0,1214,
scooby_state_4132b0|36|1 1213,0,0,0,0,1,0,0,0,0,0,0,0,0,0,1214,
scooby_state_4132b0|39|1 1210,0,0,1,1,0,0,0,1,0,0,0,0,0,0,1213,
scooby_state_4132b0|37|1 1210,0,0,0,0,0,0,1,1,0,0,0,0,0,1,1213,
scooby_state_4132b0|6|1 1211,0,0,0,0,0,0,0,0,1,0,0,0,0,0,1212,
scooby_state_4132b0|40|1 1208,0,1,0,0,0,0,0,0,0,0,1,0,0,0,1210,
scooby_state_4132b0|5|1 1205,0,0,0,1,0,0,0,0,0,0,1,0,0,0,1207,
scooby_state_4132b0|2|1 1203,1,0,0,0,0,1,0,0,1,0,0,0,0,0,1206,
scooby_state_4132b0|54|1 1204,0,0,0,0,0,0,0,0,0,0,0,0,0,1,1205,
scooby_state_4132b0|41|1 1204,0,0,0,0,0,0,0,0,0,0,1,0,0,0,1205,
scooby_state_4132b0|55|1 1203,0,0,1,0,0,0,0,1,0,0,0,0,0,0,1205,
scooby_state_4132b0|44|1 1204,0,0,0,0,0,0,1,0,0,0,0,0,0,0,1205,
scooby_state_4132b0|43|1 1204,0,0,0,1,0,0,0,0,0,0,0,0,0,0,1205,
scooby_state_4132b0|1|1 1203,0,0,0,0,0,0,0,0,0,0,1,0,0,0,1204,
scooby_state_4132b0|4|1 1203,0,0,0,0,0,0,0,0,1,0,0,0,0,0,1204,
scooby_state_4132b0|42|1 1203,0,0,0,0,0,0,0,0,0,0,0,0,0,1,1204,
scooby_state_4132b0|3|1 1204,0,0,0,0,0,0,0,0,0,0,0,0,0,0,1204,
scooby_state_4132b0|0|0 1202,0,0,0,0,0,0,0,0,0,0,0,0,0,0,1202,
scooby_state_4132b0|45|1 1201,0,0,0,0,0,0,0,0,0,0,1,0,0,0,1202,
scooby_state_4132b0|56|1 1200,0,0,1,0,0,0,0,0,0,0,0,0,0,0,1201,
scooby_state_4132a0|23|1 1199,0,0,0,0,0,0,0,1,0,0,0,0,0,0,1200,
scooby_state_4132b0|53|1 1198,0,0,0,0,0,0,1,0,0,0,0,1,0,0,1200,
scooby_state_4132a0|9|1 1200,0,0,0,0,0,0,0,0,0,0,0,0,0,0,1200,
scooby_state_4132a0|55|1 1200,0,0,0,0,0,0,0,0,0,0,0,0,0,0,1200,
scooby_state_4132a0|7|1 1197,0,0,1,0,1,1,0,0,0,0,0,0,0,0,1200,
scooby_state_4132a0|56|1 1199,0,1,0,0,0,0,0,0,0,0,0,0,0,0,1200,
scooby_state_4132b0|46|1 1197,0,0,1,0,1,0,0,0,0,0,0,0,0,0,1199,
scooby_state_4132b0|60|1 1197,0,0,0,0,1,0,0,0,1,0,0,0,0,0,1199,
scooby_state_4132b0|61|1 1195,0,0,0,1,1,0,0,0,0,0,0,0,1,0,1198,
scooby_state_4132b0|59|1 1195,0,0,0,1,0,0,1,0,0,0,0,0,0,0,1197,
scooby_state_4132b0|63|1 1195,0,0,0,0,0,0,0,0,0,0,0,0,0,1,1196,
scooby_state_4132b0|49|1 1192,0,1,2,0,0,0,0,0,0,0,0,1,0,0,1196,
scooby_state_4132b0|48|1 1193,0,0,0,0,0,0,0,0,2,0,0,0,0,1,1196,
scooby_state_4132b0|47|1 1192,0,0,0,0,0,0,1,1,0,0,1,1,0,0,1196,
scooby_state_4132b0|58|1 1195,0,0,0,0,0,0,0,0,0,0,0,0,0,0,1195,
scooby_state_4132b0|57|1 1195,0,0,0,0,0,0,0,0,0,0,0,0,0,0,1195,
scooby_state_4132b0|50|1 1190,0,0,0,1,0,0,1,0,0,0,1,1,0,1,1195,
scooby_state_4132b0|62|1 1192,0,0,0,0,0,2,0,0,1,0,0,0,0,0,1195,
scooby_state_4132b0|52|1 1193,0,0,0,0,0,0,0,0,2,0,0,0,0,0,1195,
scooby_state_4132b0|51|1 1193,0,1,0,0,0,0,0,0,0,0,0,0,0,0,1194,
scooby_state_4132a0|24|1 1160,1,0,0,0,0,0,0,0,1,1,0,0,0,0,1163,
scooby_state_4132a0|6|1 1122,0,0,0,0,0,1,0,1,0,0,0,0,0,1,1125,
scooby_state_4132a0|10|1 1122,0,1,0,0,0,1,0,1,0,0,0,0,0,0,1125,
scooby_state_4132a0|3|1 1121,0,0,0,1,1,0,1,0,0,0,1,0,0,0,1125,
scooby_state_4132a0|38|1 1123,0,0,0,0,0,0,0,1,0,0,0,0,0,1,1125,
scooby_state_4132a0|25|1 1123,0,0,0,0,0,1,0,0,0,0,0,0,0,1,1125,
scooby_state_4132a0|22|1 1123,1,0,0,0,0,0,0,0,1,0,0,0,0,0,1125,
scooby_state_4132a0|13|1 1124,0,0,1,0,0,0,0,0,0,0,0,0,0,0,1125,
scooby_state_4132a0|1|1 1124,0,0,0,0,0,0,0,0,1,0,0,0,0,0,1125,
scooby_state_4132a0|54|1 1123,0,0,0,1,0,0,0,1,0,0,0,0,0,0,1125,
scooby_state_4132a0|14|1 1123,0,0,1,0,0,1,0,0,0,0,0,0,0,0,1125,
scooby_state_4132a0|57|1 1122,0,0,1,0,0,1,0,0,1,0,0,0,0,0,1125,
scooby_state_4132a0|41|1 1123,0,0,0,0,0,0,0,0,1,0,0,1,0,0,1125,
scooby_state_4132a0|5|1 1119,0,0,1,0,0,0,2,1,1,1,0,0,0,0,1125,
scooby_state_4132a0|12|1 1122,0,0,0,0,1,0,1,0,0,0,1,0,0,0,1125,
scooby_state_4132a0|2|1 1125,0,0,0,0,0,0,0,0,0,0,0,0,0,0,1125,
scooby_state_4135f3|57|-2 1052,0,0,1,0,0,0,0,0,0,0,1,0,0,1,1055,
scooby_state_4132a0|46|1 1049,0,0,0,0,0,0,0,0,0,0,0,0,0,1,1050,
scooby_state_4132a0|17|1 1049,0,0,0,0,0,0,0,1,0,0,0,0,0,0,1050,
scooby_state_4132a0|21|1 1050,0,0,0,0,0,0,0,0,0,0,0,0,0,0,1050,
scooby_state_4132a0|61|1 1048,0,2,0,0,0,0,0,0,0,0,0,0,0,0,1050,
scooby_state_4132a0|63|1 1048,0,1,0,0,0,0,0,0,0,0,0,1,0,0,1050,
scooby_state_4132a0|20|1 1050,0,0,0,0,0,0,0,0,0,0,0,0,0,0,1050,
scooby_state_4132a0|44|1 1050,0,0,0,0,0,0,0,0,0,0,0,0,0,0,1050,
scooby_state_4132a0|16|1 1046,0,1,1,0,1,0,0,0,0,0,0,1,0,0,1050,
scooby_state_4132a0|18|1 1048,1,0,1,0,0,0,0,0,0,0,0,0,0,0,1050,
scooby_state_4132a0|32|1 1049,0,1,0,0,0,0,0,0,0,0,0,0,0,0,1050,
scooby_state_4132a0|37|1 1049,1,0,0,0,0,0,0,0,0,0,0,0,0,0,1050,
scooby_state_4132a0|42|1 1047,1,0,0,0,0,0,1,0,1,0,0,0,0,0,1050,
scooby_state_4132a0|4|1 1048,0,0,1,0,0,0,0,1,0,0,0,0,0,0,1050,
scooby_state_4132a0|51|1 1048,0,0,1,0,0,0,0,0,0,0,0,1,0,0,1050,
scooby_state_4132a0|50|1 1049,0,0,0,0,0,0,0,0,0,0,1,0,0,0,1050,
scooby_state_4132a0|36|1 1049,0,0,0,0,0,0,0,0,0,1,0,0,0,0,1050,
scooby_state_4132a0|48|1 1046,0,0,1,0,1,1,0,0,0,1,0,0,0,0,1050,
scooby_state_4132a0|31|1 1050,0,0,0,0,0,0,0,0,0,0,0,0,0,0,1050,
scooby_state_4132a0|58|1 1048,0,1,0,0,0,1,0,0,0,0,0,0,0,0,1050,
scooby_state_4132a0|59|1 1048,0,0,0,0,0,0,0,1,0,0,0,0,0,1,1050,
scooby_state_4132a0|28|1 1048,0,0,0,0,0,1,0,0,0,0,0,0,1,0,1050,
scooby_state_4132a0|52|1 1049,0,0,0,0,0,0,1,0,0,0,0,0,0,0,1050,
scooby_state_4132a0|62|1 1048,0,0,0,0,0,0,0,1,0,0,0,1,0,0,1050,
scooby_state_4132a0|29|1 1050,0,0,0,0,0,0,0,0,0,0,0,0,0,0,1050,
scooby_state_4132a0|35|1 1047,0,1,0,0,0,0,0,0,0,0,1,0,0,1,1050,
scooby_state_4132a0|33|1 1049,0,0,0,0,0,1,0,0,0,0,0,0,0,0,1050,
scooby_state_4132a0|27|1 1048,0,0,0,0,0,0,0,0,0,0,0,0,1,1,1050,
scooby_state_4132a0|43|1 1046,0,1,1,0,0,0,0,0,1,0,0,0,0,1,1050,
scooby_state_4132a0|47|1 1048,1,0,0,0,0,0,0,0,0,0,1,0,0,0,1050,
scooby_state_4132a0|11|1 1050,0,0,0,0,0,0,0,0,0,0,0,0,0,0,1050,
scooby_state_4132a0|15|1 1047,0,0,0,1,0,0,0,1,0,0,1,0,0,0,1050,
scooby_state_4132a0|53|1 975,0,0,0,0,0,0,0,0,0,0,0,0,0,0,975,
scooby_state_4132a0|30|1 973,0,0,0,0,0,0,0,0,0,2,0,0,0,0,975,
scooby_state_4132a0|60|1 975,0,0,0,0,0,0,0,0,0,0,0,0,0,0,975,
scooby_state_4132a0|45|1 974,0,0,0,0,0,1,0,0,0,0,0,0,0,0,975,
scooby_state_4132a0|26|1 970,0,0,0,0,0,1,1,1,0,1,0,0,0,1,975,
scooby_state_4132a0|49|1 974,0,0,0,0,0,0,1,0,0,0,0,0,0,0,975,
scooby_state_4132a0|19|1 974,0,0,0,0,0,0,0,0,0,0,1,0,0,0,975,
scooby_state_4132a0|34|1 974,0,0,0,0,0,0,0,0,0,0,0,0,1,0,975,
scooby_state_4132a0|0|0 943,0,0,0,0,0,0,0,0,0,0,0,0,1,0,944,
scooby_state_413897|52|-5 928,0,0,0,0,0,0,0,0,1,0,0,0,0,0,929,
scooby_state_41201d|18|-6 599,0,0,0,0,0,0,0,0,0,0,0,0,0,0,599,
scooby_state_419760|33|1 560,0,0,0,0,0,0,0,0,0,0,0,0,0,0,560,
scooby_state_419760|32|1 560,0,0,0,0,0,0,0,0,0,0,0,0,0,0,560,
scooby_state_419760|23|1 560,0,0,0,0,0,0,0,0,0,0,0,0,0,0,560,
scooby_state_419760|22|1 560,0,0,0,0,0,0,0,0,0,0,0,0,0,0,560,
scooby_state_419760|34|1 556,0,0,0,0,0,0,0,0,2,0,0,0,0,0,558,
scooby_state_419760|21|1 556,0,0,0,0,0,0,1,0,0,1,0,0,0,0,558,
scooby_state_419760|31|1 558,0,0,0,0,0,0,0,0,0,0,0,0,0,0,558,
scooby_state_419760|24|1 557,0,0,1,0,0,0,0,0,0,0,0,0,0,0,558,
scooby_state_419760|39|1 556,0,0,0,0,0,0,0,0,0,0,0,0,0,0,556,
scooby_state_419760|17|1 556,0,0,0,0,0,0,0,0,0,0,0,0,0,0,556,
scooby_state_419760|38|1 555,0,0,0,0,0,0,0,1,0,0,0,0,0,0,556,
scooby_state_419760|40|1 556,0,0,0,0,0,0,0,0,0,0,0,0,0,0,556,
scooby_state_419760|16|1 556,0,0,0,0,0,0,0,0,0,0,0,0,0,0,556,
scooby_state_419760|15|1 553,0,0,0,0,1,0,0,0,0,1,0,0,0,0,555,
scooby_state_419760|28|1 554,0,0,0,1,0,0,0,0,0,0,0,0,0,0,555,
scooby_state_419760|12|1 554,1,0,0,0,0,0,0,0,0,0,0,0,0,0,555,
scooby_state_419760|18|1 554,0,0,0,0,0,0,0,1,0,0,0,0,0,0,555,
scooby_state_419760|43|1 553,0,0,1,0,0,0,0,0,0,0,0,0,0,1,555,
scooby_state_419760|37|1 552,0,0,0,0,0,0,0,1,0,0,0,0,1,0,554,
scooby_state_419760|27|1 554,0,0,0,0,0,0,0,0,0,0,0,0,0,0,554,
scooby_state_419760|30|1 552,0,0,0,2,0,0,0,0,0,0,0,0,0,0,554,
scooby_state_419760|44|1 554,0,0,0,0,0,0,0,0,0,0,0,0,0,0,554,
scooby_state_419760|20|1 553,0,0,0,0,0,1,0,0,0,0,0,0,0,0,554,
scooby_state_419760|35|1 554,0,0,0,0,0,0,0,0,0,0,0,0,0,0,554,
scooby_state_419760|25|1 554,0,0,0,0,0,0,0,0,0,0,0,0,0,0,554,
scooby_state_419760|41|1 551,0,0,0,0,0,0,1,1,0,0,0,0,1,0,554,
scooby_state_419760|11|1 552,0,0,0,0,0,0,1,0,0,0,1,0,0,0,554,
scooby_state_419760|14|1 553,0,0,0,0,0,0,0,0,0,0,0,0,0,0,553,
scooby_state_419760|42|1 552,0,0,0,0,0,0,0,0,0,0,0,1,0,0,553,
scooby_state_419760|13|1 552,0,0,0,0,0,1,0,0,0,0,0,0,0,0,553,
scooby_state_419760|19|1 551,0,0,0,0,0,0,0,0,0,0,0,2,0,0,553,
scooby_state_419760|29|1 552,1,0,0,0,0,0,0,0,0,0,0,0,0,0,553,
scooby_state_419760|49|1 552,0,0,0,0,0,0,0,0,0,0,0,0,0,0,552,
scooby_state_419760|0|0 549,0,0,0,0,1,0,1,0,0,0,0,0,0,1,552,
scooby_state_419760|7|1 551,0,0,0,0,0,0,0,0,0,0,1,0,0,0,552,
scooby_state_419760|50|1 552,0,0,0,0,0,0,0,0,0,0,0,0,0,0,552,
scooby_state_419760|55|1 550,0,0,0,0,0,0,0,0,0,0,1,0,1,0,552,
scooby_state_419760|1|1 550,1,0,0,0,0,0,0,0,0,0,0,0,1,0,552,
scooby_state_419760|48|1 551,0,0,0,0,0,0,0,1,0,0,0,0,0,0,552,
scooby_state_419760|36|1 552,0,0,0,0,0,0,0,0,0,0,0,0,0,0,552,
scooby_state_419760|60|1 550,0,0,0,0,0,0,1,0,0,0,0,0,0,1,552,
scooby_state_419760|26|1 551,1,0,0,0,0,0,0,0,0,0,0,0,0,0,552,
scooby_state_419760|6|1 551,0,0,1,0,0,0,0,0,0,0,0,0,0,0,552,
scooby_state_419760|54|1 551,0,0,0,0,1,0,0,0,0,0,0,0,0,0,552,
scooby_state_419760|63|1 550,0,0,0,0,0,0,0,1,0,0,0,0,0,0,551,
scooby_state_419760|59|1 550,0,0,0,1,0,0,0,0,0,0,0,0,0,0,551,
scooby_state_419760|5|1 550,0,0,1,0,0,0,0,0,0,0,0,0,0,0,551,
scooby_state_419760|2|1 550,0,0,0,0,0,0,0,0,0,0,0,1,0,0,551,
scooby_state_419760|56|1 548,1,1,0,0,0,0,0,0,0,1,0,0,0,0,551,
scooby_state_419760|8|1 551,0,0,0,0,0,0,0,0,0,0,0,0,0,0,551,
scooby_state_419760|53|1 550,0,0,0,0,1,0,0,0,0,0,0,0,0,0,551,
scooby_state_419760|61|1 550,0,0,0,0,0,0,0,0,0,0,0,0,0,0,550,
scooby_state_419760|51|1 550,0,0,0,0,0,0,0,0,0,0,0,0,0,0,550,
scooby_state_419760|45|1 548,1,0,0,0,0,0,0,0,0,0,0,0,0,1,550,
scooby_state_419760|47|1 550,0,0,0,0,0,0,0,0,0,0,0,0,0,0,550,
scooby_state_419760|10|1 550,0,0,0,0,0,0,0,0,0,0,0,0,0,0,550,
scooby_state_419760|9|1 547,0,0,0,0,0,1,1,0,0,0,0,0,0,0,549,
scooby_state_419760|62|1 548,0,1,0,0,0,0,0,0,0,0,0,0,0,0,549,
scooby_state_419760|58|1 549,0,0,0,0,0,0,0,0,0,0,0,0,0,0,549,
scooby_state_419760|52|1 549,0,0,0,0,0,0,0,0,0,0,0,0,0,0,549,
scooby_state_419760|57|1 547,0,0,0,0,0,0,0,0,0,0,0,0,0,2,549,
scooby_state_419760|3|1 549,0,0,0,0,0,0,0,0,0,0,0,0,0,0,549,
scooby_state_419760|4|1 547,0,0,0,1,0,0,0,0,1,0,0,0,0,0,549,
scooby_state_419760|46|1 546,0,0,0,0,0,0,1,0,1,0,0,0,0,0,548,
scooby_state_412d35|62|1 531,0,0,0,0,0,0,0,0,0,0,0,1,0,0,532,
scooby_state_419750|8|1 525,0,0,0,1,0,0,1,0,0,0,0,1,0,0,528,
scooby_state_419750|6|1 528,0,0,0,0,0,0,0,0,0,0,0,0,0,0,528,
scooby_state_419750|12|1 528,0,0,0,0,0,0,0,0,0,0,0,0,0,0,528,
scooby_state_419750|5|1 525,0,0,0,0,0,0,0,1,1,0,1,0,0,0,528,
scooby_state_419750|10|1 527,0,0,0,0,0,1,0,0,0,0,0,0,0,0,528,
scooby_state_419750|13|1 527,0,0,1,0,0,0,0,0,0,0,0,0,0,0,528,
scooby_state_419750|28|1 527,0,0,0,0,0,0,0,0,0,0,0,1,0,0,528,
scooby_state_419750|51|1 528,0,0,0,0,0,0,0,0,0,0,0,0,0,0,528,
scooby_state_419750|9|1 528,0,0,0,0,0,0,0,0,0,0,0,0,0,0,528,
scooby_state_419750|46|1 526,0,1,0,0,0,0,0,0,0,1,0,0,0,0,528,
scooby_state_412d35|61|1 528,0,0,0,0,0,0,0,0,0,0,0,0,0,0,528,
scooby_state_419750|1|1 522,0,0,0,0,0,1,0,0,1,0,0,0,0,0,524,
scooby_state_419750|27|1 522,0,0,0,0,1,0,0,0,1,0,0,0,0,0,524,
scooby_state_419750|2|1 523,0,1,0,0,0,0,0,0,0,0,0,0,0,0,524,
scooby_state_419750|20|1 523,0,0,0,0,0,1,0,0,0,0,0,0,0,0,524,
scooby_state_419750|21|1 523,0,0,0,0,1,0,0,0,0,0,0,0,0,0,524,
scooby_state_412d35|60|1 523,0,0,0,1,0,0,0,0,0,0,0,0,0,0,524,
scooby_state_419750|25|1 523,0,0,1,0,0,0,0,0,0,0,0,0,0,0,524,
scooby_state_419750|7|1 523,0,0,0,1,0,0,0,0,0,0,0,0,0,0,524,
scooby_state_419750|24|1 523,0,0,0,0,0,0,0,0,0,0,1,0,0,0,524,
scooby_state_419750|11|1 523,0,0,0,0,0,0,0,0,0,0,0,0,1,0,524,
scooby_state_419750|47|1 524,0,0,0,0,0,0,0,0,0,0,0,0,0,0,524,
scooby_state_419750|50|1 523,0,0,0,0,0,0,0,0,1,0,0,0,0,0,524,
scooby_state_419750|54|1 524,0,0,0,0,0,0,0,0,0,0,0,0,0,0,524,
scooby_state_419750|31|1 524,0,0,0,0,0,0,0,0,0,0,0,0,0,0,524,
scooby_state_419750|43|1 524,0,0,0,0,0,0,0,0,0,0,0,0,0,0,524,
scooby_state_419750|23|1 522,0,0,0,0,1,0,0,0,1,0,0,0,0,0,524,
scooby_state_412d35|58|1 522,0,0,0,0,0,0,0,0,1,0,0,0,0,0,523,
scooby_state_412d35|56|1 522,0,0,0,0,0,0,0,0,1,0,0,0,0,0,523,
scooby_state_412d35|57|1 522,0,0,0,0,0,0,0,0,0,0,0,0,0,1,523,
scooby_state_412d35|59|1 523,0,0,0,0,0,0,0,0,0,0,0,0,0,0,523,
scooby_state_419750|61|1 520,0,0,0,0,0,0,0,0,0,0,0,0,0,0,520,
scooby_state_419750|4|1 519,1,0,0,0,0,0,0,0,0,0,0,0,0,0,520,
scooby_state_419750|40|1 520,0,0,0,0,0,0,0,0,0,0,0,0,0,0,520,
scooby_state_419750|49|1 520,0,0,0,0,0,0,0,0,0,0,0,0,0,0,520,
scooby_state_419750|16|1 520,0,0,0,0,0,0,0,0,0,0,0,0,0,0,520,
scooby_state_412d35|55|1 520,0,0,0,0,0,0,0,0,0,0,0,0,0,0,520,
scooby_state_419750|42|1 518,0,0,1,0,0,0,0,0,0,0,1,0,0,0,520,
scooby_state_419750|35|1 519,0,0,0,0,0,0,0,0,0,0,0,1,0,0,520,
scooby_state_419750|3|1 520,0,0,0,0,0,0,0,0,0,0,0,0,0,0,520,
scooby_state_419750|39|1 520,0,0,0,0,0,0,0,0,0,0,0,0,0,0,520,
scooby_state_419750|62|1 519,0,0,0,0,1,0,0,0,0,0,0,0,0,0,520,
scooby_state_419750|52|1 519,0,0,1,0,0,0,0,0,0,0,0,0,0,0,520,
scooby_state_419750|45|1 519,0,0,0,0,0,0,1,0,0,0,0,0,0,0,520,
scooby_state_419750|48|1 519,0,0,0,0,0,0,0,0,1,0,0,0,0,0,520,
scooby_state_419750|44|1 520,0,0,0,0,0,0,0,0,0,0,0,0,0,0,520,
scooby_state_419750|17|1 520,0,0,0,0,0,0,0,0,0,0,0,0,0,0,520,
scooby_state_419750|22|1 520,0,0,0,0,0,0,0,0,0,0,0,0,0,0,520,
scooby_state_419750|53|1 520,0,0,0,0,0,0,0,0,0,0,0,0,0,0,520,
scooby_state_419750|58|1 517,0,0,1,0,1,0,0,0,0,0,1,0,0,0,520,
scooby_state_419750|30|1 519,0,1,0,0,0,0,0,0,0,0,0,0,0,0,520,
scooby_state_419750|32|1 518,0,0,0,0,0,1,0,0,0,0,1,0,0,0,520,
scooby_state_419750|57|1 519,0,0,0,0,1,0,0,0,0,0,0,0,0,0,520,
scooby_state_419750|26|1 520,0,0,0,0,0,0,0,0,0,0,0,0,0,0,520,
scooby_state_419750|0|0 519,0,0,1,0,0,0,0,0,0,0,0,0,0,0,520,
scooby_state_419750|15|1 520,0,0,0,0,0,0,0,0,0,0,0,0,0,0,520,
scooby_state_419750|14|1 519,0,0,0,0,0,0,0,0,1,0,0,0,0,0,520,
scooby_state_419750|36|1 518,0,0,1,0,0,0,0,0,0,0,1,0,0,0,520,
scooby_state_419750|29|1 519,0,0,0,0,0,0,0,0,0,0,0,0,0,1,520,
scooby_state_419750|55|1 518,0,1,1,0,0,0,0,0,0,0,0,0,0,0,520,
scooby_state_419750|41|1 516,0,0,0,0,0,0,0,0,0,0,0,0,0,0,516,
scooby_state_419750|59|1 515,0,0,0,0,0,0,1,0,0,0,0,0,0,0,516,
scooby_state_419750|34|1 516,0,0,0,0,0,0,0,0,0,0,0,0,0,0,516,
scooby_state_419750|18|1 515,0,1,0,0,0,0,0,0,0,0,0,0,0,0,516,
scooby_state_419750|33|1 514,0,0,0,0,0,0,0,0,0,1,0,1,0,0,516,
scooby_state_419750|38|1 515,1,0,0,0,0,0,0,0,0,0,0,0,0,0,516,
scooby_state_419750|63|1 515,0,0,0,0,0,0,0,0,0,0,0,1,0,0,516,
scooby_state_419750|19|1 516,0,0,0,0,0,0,0,0,0,0,0,0,0,0,516,
scooby_state_419750|56|1 514,1,0,0,0,0,0,0,0,0,0,0,1,0,0,516,
scooby_state_419750|37|1 511,0,0,0,0,0,0,0,0,0,0,0,0,0,1,512,
scooby_state_419750|60|1 512,0,0,0,0,0,0,0,0,0,0,0,0,0,0,512,
scooby_state_412d35|63|1 474,1,0,0,0,0,0,0,0,0,0,0,0,0,0,475,
scooby_state_417b11|16|1 455,0,0,0,1,0,0,0,0,0,0,0,0,0,0,456,
scooby_state_417b11|17|1 456,0,0,0,0,0,0,0,0,0,0,0,0,0,0,456,
scooby_state_417b11|22|1 454,0,0,0,1,0,0,0,0,0,0,0,0,0,0,455,
scooby_state_417b11|18|1 454,0,0,0,0,0,0,0,0,0,0,0,1,0,0,455,
scooby_state_417b11|23|1 451,1,1,1,0,0,0,1,0,0,0,0,0,0,0,455,
scooby_state_417b11|24|1 452,0,0,0,0,0,0,1,0,0,1,0,0,0,0,454,
scooby_state_417b11|21|1 454,0,0,0,0,0,0,0,0,0,0,0,0,0,0,454,
scooby_state_417b11|19|1 453,0,0,0,0,0,0,0,0,0,0,0,0,0,1,454,
scooby_state_417b11|33|1 451,0,0,0,0,0,0,0,0,0,0,0,2,0,0,453,
scooby_state_417b11|32|1 453,0,0,0,0,0,0,0,0,0,0,0,0,0,0,453,
scooby_state_417b11|15|1 453,0,0,0,0,0,0,0,0,0,0,0,0,0,0,453,
scooby_state_417b11|63|1 452,0,0,0,0,0,0,1,0,0,0,0,0,0,0,453,
scooby_state_417b11|20|1 451,0,0,0,0,0,0,0,0,0,0,0,0,2,0,453,
scooby_state_417b11|8|1 452,0,0,0,0,0,0,0,0,0,0,0,0,0,0,452,
scooby_state_417b11|12|1 452,0,0,0,0,0,0,0,0,0,0,0,0,0,0,452,
scooby_state_417b11|43|1 450,0,0,2,0,0,0,0,0,0,0,0,0,0,0,452,
scooby_state_417b11|0|0 452,0,0,0,0,0,0,0,0,0,0,0,0,0,0,452,
scooby_state_417b11|53|1 452,0,0,0,0,0,0,0,0,0,0,0,0,0,0,452,
scooby_state_417b11|7|1 449,0,1,0,0,0,0,1,0,0,0,1,0,0,0,452,
scooby_state_417b11|6|1 449,0,0,0,0,0,0,0,0,0,0,2,0,0,0,451,
scooby_state_417b11|50|1 451,0,0,0,0,0,0,0,0,0,0,0,0,0,0,451,
scooby_state_417b11|51|1 450,0,0,0,0,0,0,0,0,0,0,0,0,1,0,451,
scooby_state_417b11|41|1 450,0,0,0,0,0,0,0,1,0,0,0,0,0,0,451,
scooby_state_417b11|31|1 451,0,0,0,0,0,0,0,0,0,0,0,0,0,0,451,
scooby_state_417b11|60|1 449,0,0,0,0,0,0,0,0,2,0,0,0,0,0,451,
scooby_state_417b11|34|1 450,0,0,0,0,1,0,0,0,0,0,0,0,0,0,451,
scooby_state_417b11|40|1 450,1,0,0,0,0,0,0,0,0,0,0,0,0,0,451,
scooby_state_417b11|61|1 450,0,0,0,0,0,1,0,0,0,0,0,0,0,0,451,
scooby_state_417b11|28|1 450,0,0,0,0,0,0,0,0,1,0,0,0,0,0,451,
scooby_state_417b11|9|1 450,0,0,0,0,0,0,0,0,1,0,0,0,0,0,451,
scooby_state_417b11|11|1 450,0,0,0,0,0,0,1,0,0,0,0,0,0,0,451,
scooby_state_417b11|54|1 449,0,0,0,0,0,0,1,0,0,0,0,0,0,1,451,
scooby_state_417b11|44|1 451,0,0,0,0,0,0,0,0,0,0,0,0,0,0,451,
scooby_state_417b11|25|1 450,0,0,0,0,0,0,0,0,1,0,0,0,0,0,451,
scooby_state_417b11|14|1 449,0,0,0,0,0,1,0,0,0,0,0,0,0,0,450,
scooby_state_417b11|62|1 450,0,0,0,0,0,0,0,0,0,0,0,0,0,0,450,
scooby_state_40f413|37|1 449,0,0,0,0,0,1,0,0,0,0,0,0,0,0,450,
scooby_state_417b11|13|1 450,0,0,0,0,0,0,0,0,0,0,0,0,0,0,450,
scooby_state_417b11|29|1 450,0,0,0,0,0,0,0,0,0,0,0,0,0,0,450,
scooby_state_417b11|27|1 450,0,0,0,0,0,0,0,0,0,0,0,0,0,0,450,
scooby_state_417b11|10|1 449,0,0,0,0,0,0,1,0,0,0,0,0,0,0,450,
scooby_state_417b11|42|1 448,1,0,0,0,0,0,0,1,0,0,0,0,0,0,450,
scooby_state_417b11|52|1 450,0,0,0,0,0,0,0,0,0,0,0,0,0,0,450,
scooby_state_40f90b|26|1 449,0,0,0,0,0,0,0,0,0,0,0,0,0,0,449,
scooby_state_40f696|38|1 449,0,0,0,0,0,0,0,0,0,0,0,0,0,0,449,
scooby_state_417b11|39|1 449,0,0,0,0,0,0,0,0,0,0,0,0,0,0,449,
scooby_state_40f413|39|1 449,0,0,0,0,0,0,0,0,0,0,0,0,0,0,449,
scooby_state_40f696|51|1 446,0,0,0,0,0,1,0,2,0,0,0,0,0,0,449,
scooby_state_40f413|35|1 447,0,0,0,0,1,0,0,0,0,0,1,0,0,0,449,
scooby_state_40f413|58|1 449,0,0,0,0,0,0,0,0,0,0,0,0,0,0,449,
scooby_state_40f90b|22|1 448,0,1,0,0,0,0,0,0,0,0,0,0,0,0,449,
scooby_state_40f696|28|1 447,0,0,0,0,1,0,0,0,0,0,0,1,0,0,449,
scooby_state_417b11|55|1 449,0,0,0,0,0,0,0,0,0,0,0,0,0,0,449,
scooby_state_40f90b|34|1 447,0,0,0,0,0,0,1,0,0,1,0,0,0,0,449,
scooby_state_417b11|30|1 446,1,0,0,0,0,0,0,1,0,0,0,1,0,0,449,
scooby_state_40f413|30|1 448,0,0,0,0,0,1,0,0,0,0,0,0,0,0,449,
scooby_state_40f413|33|1 449,0,0,0,0,0,0,0,0,0,0,0,0,0,0,449,
scooby_state_40f90b|35|1 448,0,0,0,0,0,0,0,0,0,0,1,0,0,0,449,
scooby_state_40f696|10|1 448,0,0,0,0,1,0,0,0,0,0,0,0,0,0,449,
scooby_state_417b11|1|1 449,0,0,0,0,0,0,0,0,0,0,0,0,0,0,449,
scooby_state_417b11|26|1 449,0,0,0,0,0,0,0,0,0,0,0,0,0,0,449,
scooby_state_40f90b|30|1 448,0,0,0,0,0,0,0,1,0,0,0,0,0,0,449,
scooby_state_40f413|54|1 449,0,0,0,0,0,0,0,0,0,0,0,0,0,0,449,
scooby_state_417b11|49|1 448,0,0,0,0,0,0,0,0,0,0,0,0,1,0,449,
scooby_state_417b11|48|1 449,0,0,0,0,0,0,0,0,0,0,0,0,0,0,449,
scooby_state_40f696|34|1 448,0,0,0,0,0,0,0,0,0,0,0,0,0,0,448,
scooby_state_40f413|28|1 448,0,0,0,0,0,0,0,0,0,0,0,0,0,0,448,
scooby_state_40f696|20|1 447,0,0,0,0,0,0,1,0,0,0,0,0,0,0,448,
scooby_state_40f696|36|1 448,0,0,0,0,0,0,0,0,0,0,0,0,0,0,448,
scooby_state_40f696|26|1 447,0,0,0,0,0,0,0,0,0,0,0,0,1,0,448,
scooby_state_40f696|33|1 447,0,0,0,0,1,0,0,0,0,0,0,0,0,0,448,
scooby_state_40f90b|16|1 447,0,0,1,0,0,0,0,0,0,0,0,0,0,0,448,
scooby_state_40f90b|52|1 447,0,0,0,0,0,1,0,0,0,0,0,0,0,0,448,
scooby_state_40f413|59|1 448,0,0,0,0,0,0,0,0,0,0,0,0,0,0,448,
scooby_state_417b11|2|1 448,0,0,0,0,0,0,0,0,0,0,0,0,0,0,448,
scooby_state_40f90b|12|1 447,0,0,0,0,0,0,0,0,0,0,0,1,0,0,448,
scooby_state_40f413|36|1 448,0,0,0,0,0,0,0,0,0,0,0,0,0,0,448,
scooby_state_40f90b|60|1 448,0,0,0,0,0,0,0,0,0,0,0,0,0,0,448,
scooby_state_417b11|38|1 448,0,0,0,0,0,0,0,0,0,0,0,0,0,0,448,
scooby_state_40f90b|20|1 448,0,0,0,0,0,0,0,0,0,0,0,0,0,0,448,
scooby_state_40f90b|18|1 444,0,0,0,0,1,0,0,1,1,0,0,0,1,0,448,
scooby_state_417b11|35|1 447,0,0,0,0,0,0,0,1,0,0,0,0,0,0,448,
scooby_state_40f90b|24|1 447,0,0,0,0,0,0,1,0,0,0,0,0,0,0,448,
scooby_state_417b11|5|1 448,0,0,0,0,0,0,0,0,0,0,0,0,0,0,448,
scooby_state_40f413|1|1 447,1,0,0,0,0,0,0,0,0,0,0,0,0,0,448,
scooby_state_40f696|30|1 446,0,0,0,0,0,0,0,1,0,0,0,0,0,1,448,
scooby_state_40f90b|53|1 447,0,0,0,0,0,0,0,0,0,1,0,0,0,0,448,
scooby_state_40f90b|46|1 448,0,0,0,0,0,0,0,0,0,0,0,0,0,0,448,
scooby_state_417b11|45|1 447,0,0,0,0,0,0,0,1,0,0,0,0,0,0,448,
scooby_state_40f696|19|1 447,0,0,0,0,0,0,1,0,0,0,0,0,0,0,448,
scooby_state_40f696|25|1 447,0,0,0,0,0,0,0,0,0,0,0,1,0,0,448,
scooby_state_40f696|45|1 447,0,0,0,0,0,1,0,0,0,0,0,0,0,0,448,
scooby_state_40f413|0|0 447,0,0,0,1,0,0,0,0,0,0,0,0,0,0,448,
scooby_state_40f696|23|1 447,0,0,0,0,0,0,1,0,0,0,0,0,0,0,448,
scooby_state_417b11|56|1 447,0,0,0,0,0,0,0,0,0,0,0,0,1,0,448,
scooby_state_40f696|55|1 448,0,0,0,0,0,0,0,0,0,0,0,0,0,0,448,
scooby_state_40f696|61|1 447,0,0,0,0,0,0,0,0,0,0,1,0,0,0,448,
scooby_state_417b11|59|1 447,0,0,0,0,0,1,0,0,0,0,0,0,0,0,448,
scooby_state_40f90b|41|1 446,0,0,0,0,0,0,1,0,0,0,0,0,0,0,447,
scooby_state_417b11|37|1 445,0,0,0,0,0,1,0,0,1,0,0,0,0,0,447,
scooby_state_40f90b|59|1 446,0,0,0,0,0,0,0,0,0,0,0,0,0,1,447,
scooby_state_40f413|61|1 446,0,0,0,0,0,1,0,0,0,0,0,0,0,0,447,
scooby_state_40f696|37|1 447,0,0,0,0,0,0,0,0,0,0,0,0,0,0,447,
scooby_state_40f696|21|1 446,0,0,0,0,0,0,0,0,1,0,0,0,0,0,447,
scooby_state_40f90b|55|1 446,0,0,0,1,0,0,0,0,0,0,0,0,0,0,447,
scooby_state_40f90b|11|1 446,0,0,0,1,0,0,0,0,0,0,0,0,0,0,447,
scooby_state_40f413|22|1 447,0,0,0,0,0,0,0,0,0,0,0,0,0,0,447,
scooby_state_40f90b|33|1 447,0,0,0,0,0,0,0,0,0,0,0,0,0,0,447,
scooby_state_40f90b|45|1 446,0,0,1,0,0,0,0,0,0,0,0,0,0,0,447,
scooby_state_40f696|47|1 447,0,0,0,0,0,0,0,0,0,0,0,0,0,0,447,
scooby_state_40f696|31|1 446,0,0,0,0,0,0,0,1,0,0,0,0,0,0,447,
scooby_state_40f413|18|1 446,0,0,0,0,1,0,0,0,0,0,0,0,0,0,447,
scooby_state_40f413|62|1 446,0,0,0,0,0,0,0,0,0,0,0,0,0,1,447,
scooby_state_40f90b|0|0 446,0,0,0,0,0,0,0,0,0,1,0,0,0,0,447,
scooby_state_40f90b|14|1 447,0,0,0,0,0,0,0,0,0,0,0,0,0,0,447,
scooby_state_40f90b|28|1 446,0,0,0,0,0,1,0,0,0,0,0,0,0,0,447,
scooby_state_40f90b|48|1 446,0,0,0,0,0,0,0,0,0,0,0,0,0,1,447,
scooby_state_40f413|52|1 446,0,0,0,0,0,0,0,0,1,0,0,0,0,0,447,
scooby_state_40f413|50|1 447,0,0,0,0,0,0,0,0,0,0,0,0,0,0,447,
scooby_state_40f413|29|1 447,0,0,0,0,0,0,0,0,0,0,0,0,0,0,447,
scooby_state_40f90b|44|1 446,0,0,0,0,0,0,0,0,0,1,0,0,0,0,447,
scooby_state_40f90b|57|1 446,0,0,0,0,0,0,1,0,0,0,0,0,0,0,447,
scooby_state_40f413|56|1 445,0,0,0,0,0,0,1,1,0,0,0,0,0,0,447,
scooby_state_40f696|40|1 446,0,0,0,0,0,0,1,0,0,0,0,0,0,0,447,
scooby_state_40f90b|62|1 446,0,0,0,0,0,0,0,0,0,0,0,0,0,1,447,
scooby_state_40f90b|49|1 445,0,0,0,0,0,0,0,0,0,0,0,1,0,1,447,
scooby_state_40f90b|7|1 445,0,1,0,0,0,0,0,1,0,0,0,0,0,0,447,
scooby_state_40f90b|13|1 447,0,0,0,0,0,0,0,0,0,0,0,0,0,0,447,
scooby_state_40f696|49|1 447,0,0,0,0,0,0,0,0,0,0,0,0,0,0,447,
scooby_state_40f696|18|1 446,0,0,0,0,1,0,0,0,0,0,0,0,0,0,447,
scooby_state_40f413|51|1 447,0,0,0,0,0,0,0,0,0,0,0,0,0,0,447,
scooby_state_417b11|47|1 447,0,0,0,0,0,0,0,0,0,0,0,0,0,0,447,
scooby_state_40f413|34|1 445,0,0,0,2,0,0,0,0,0,0,0,0,0,0,447,
scooby_state_40f696|29|1 445,0,0,0,0,0,0,0,0,1,0,0,1,0,0,447,
scooby_state_40f413|15|1 446,0,1,0,0,0,0,0,0,0,0,0,0,0,0,447,
scooby_state_40f90b|50|1 446,0,0,0,1,0,0,0,0,0,0,0,0,0,0,447,
scooby_state_40f413|23|1 446,0,0,0,1,0,0,0,0,0,0,0,0,0,0,447,
scooby_state_40f413|3|1 447,0,0,0,0,0,0,0,0,0,0,0,0,0,0,447,
scooby_state_40f696|59|1 446,0,0,0,0,0,0,0,0,0,0,0,0,0,1,447,
scooby_state_40f90b|31|1 444,0,1,0,0,0,0,0,0,0,1,0,0,0,1,447,
scooby_state_40f413|32|1 444,0,0,0,0,0,0,0,0,0,0,0,0,2,1,447,
scooby_state_40f696|27|1 446,0,1,0,0,0,0,0,0,0,0,0,0,0,0,447,
scooby_state_40f90b|19|1 446,0,0,1,0,0,0,0,0,0,0,0,0,0,0,447,
scooby_state_40f696|56|1 446,0,0,0,0,0,0,0,0,0,0,1,0,0,0,447,
scooby_state_40f696|54|1 447,0,0,0,0,0,0,0,0,0,0,0,0,0,0,447,
scooby_state_40f413|57|1 445,0,0,0,0,0,0,0,0,0,0,1,0,1,0,447,
scooby_state_40f90b|51|1 445,0,0,0,0,0,1,1,0,0,0,0,0,0,0,447,
scooby_state_40f413|41|1 446,0,0,0,0,0,0,0,0,0,0,0,0,0,0,446,
scooby_state_40f696|24|1 446,0,0,0,0,0,0,0,0,0,0,0,0,0,0,446,
scooby_state_417b11|36|1 446,0,0,0,0,0,0,0,0,0,0,0,0,0,0,446,
scooby_state_40f90b|47|1 446,0,0,0,0,0,0,0,0,0,0,0,0,0,0,446,
scooby_state_40f90b|15|1 446,0,0,0,0,0,0,0,0,0,0,0,0,0,0,446,
scooby_state_417b11|58|1 444,0,0,0,1,0,0,1,0,0,0,0,0,0,0,446,
scooby_state_417b11|4|1 446,0,0,0,0,0,0,0,0,0,0,0,0,0,0,446,
scooby_state_40f413|27|1 443,0,0,0,2,0,0,0,0,0,0,0,0,1,0,446,
scooby_state_40f413|20|1 446,0,0,0,0,0,0,0,0,0,0,0,0,0,0,446,
scooby_state_417b11|46|1 446,0,0,0,0,0,0,0,0,0,0,0,0,0,0,446,
scooby_state_417b11|3|1 445,0,0,0,0,0,1,0,0,0,0,0,0,0,0,446,
scooby_state_40f90b|21|1 446,0,0,0,0,0,0,0,0,0,0,0,0,0,0,446,
scooby_state_40f413|31|1 446,0,0,0,0,0,0,0,0,0,0,0,0,0,0,446,
scooby_state_40f696|16|1 444,0,0,0,0,0,0,0,1,0,0,0,0,1,0,446,
scooby_state_40f696|14|1 446,0,0,0,0,0,0,0,0,0,0,0,0,0,0,446,
scooby_state_40f696|35|1 444,0,0,0,0,0,0,0,1,0,0,0,0,0,1,446,
scooby_state_40f696|63|1 446,0,0,0,0,0,0,0,0,0,0,0,0,0,0,446,
scooby_state_40f696|48|1 445,0,0,0,0,1,0,0,0,0,0,0,0,0,0,446,
scooby_state_40f696|46|1 446,0,0,0,0,0,0,0,0,0,0,0,0,0,0,446,
scooby_state_40f90b|63|1 446,0,0,0,0,0,0,0,0,0,0,0,0,0,0,446,
scooby_state_40f696|41|1 443,0,1,0,0,0,0,0,0,0,1,0,0,1,0,446,
scooby_state_40f696|39|1 445,0,0,0,0,0,0,0,0,0,1,0,0,0,0,446,
scooby_state_40f90b|36|1 444,1,0,0,0,0,0,0,0,0,0,0,0,1,0,446,
scooby_state_40f90b|38|1 445,0,0,0,0,0,0,0,0,1,0,0,0,0,0,446,
scooby_state_40f90b|40|1 445,0,0,0,0,0,0,0,0,0,0,0,0,0,1,446,
scooby_state_40f90b|58|1 445,0,0,1,0,0,0,0,0,0,0,0,0,0,0,446,
scooby_state_40f90b|1|1 443,0,0,0,0,0,0,2,0,0,0,0,1,0,0,446,
scooby_state_40f413|4|1 445,0,0,0,0,0,0,0,0,0,0,1,0,0,0,446,
scooby_state_412741|50|1 446,0,0,0,0,0,0,0,0,0,0,0,0,0,0,446,
scooby_state_40f90b|54|1 445,0,0,0,0,0,0,0,0,1,0,0,0,0,0,446,
scooby_state_40f90b|56|1 444,0,0,0,0,0,1,0,0,1,0,0,0,0,0,446,
scooby_state_40f90b|17|1 444,0,0,0,0,0,0,1,0,0,0,1,0,0,0,446,
scooby_state_40f90b|4|1 444,0,0,0,0,0,1,0,0,1,0,0,0,0,0,446,
scooby_state_40f696|17|1 445,0,0,0,0,0,0,1,0,0,0,0,0,0,0,446,
scooby_state_40f413|17|1 445,0,0,0,0,0,0,0,0,0,0,1,0,0,0,446,
scooby_state_40f413|16|1 446,0,0,0,0,0,0,0,0,0,0,0,0,0,0,446,
scooby_state_40f696|57|1 445,0,0,0,0,0,0,0,1,0,0,0,0,0,0,446,
scooby_state_40f696|43|1 444,0,0,1,0,0,0,0,0,0,0,0,0,1,0,446,
scooby_state_40f696|11|1 445,0,0,0,0,0,0,0,0,0,1,0,0,0,0,446,
scooby_state_40f696|15|1 446,0,0,0,0,0,0,0,0,0,0,0,0,0,0,446,
scooby_state_40f413|55|1 445,1,0,0,0,0,0,0,0,0,0,0,0,0,0,446,
scooby_state_40f413|63|1 446,0,0,0,0,0,0,0,0,0,0,0,0,0,0,446,
scooby_state_40f413|38|1 446,0,0,0,0,0,0,0,0,0,0,0,0,0,0,446,
scooby_state_40f413|40|1 446,0,0,0,0,0,0,0,0,0,0,0,0,0,0,446,
scooby_state_40f413|26|1 446,0,0,0,0,0,0,0,0,0,0,0,0,0,0,446,
scooby_state_40f413|60|1 442,1,0,0,0,0,0,0,0,0,1,0,1,0,1,446,
scooby_state_417b11|57|1 443,0,0,0,1,0,0,2,0,0,0,0,0,0,0,446,
scooby_state_40f413|47|1 445,0,1,0,0,0,0,0,0,0,0,0,0,0,0,446,
scooby_state_40f696|13|1 445,0,0,0,0,0,0,0,0,0,0,0,0,0,0,445,
scooby_state_40f413|7|1 443,0,0,0,1,0,0,0,0,0,1,0,0,0,0,445,
scooby_state_40f696|12|1 445,0,0,0,0,0,0,0,0,0,0,0,0,0,0,445,
scooby_state_40f696|53|1 445,0,0,0,0,0,0,0,0,0,0,0,0,0,0,445,
scooby_state_40f696|44|1 445,0,0,0,0,0,0,0,0,0,0,0,0,0,0,445,
scooby_state_40f90b|3|1 445,0,0,0,0,0,0,0,0,0,0,0,0,0,0,445,
scooby_state_40f696|62|1 444,0,0,0,0,1,0,0,0,0,0,0,0,0,0,445,
scooby_state_40f696|1|1 445,0,0,0,0,0,0,0,0,0,0,0,0,0,0,445,
scooby_state_40f413|10|1 445,0,0,0,0,0,0,0,0,0,0,0,0,0,0,445,
scooby_state_40f696|6|1 444,1,0,0,0,0,0,0,0,0,0,0,0,0,0,445,
scooby_state_40f413|43|1 444,1,0,0,0,0,0,0,0,0,0,0,0,0,0,445,
scooby_state_40f90b|5|1 445,0,0,0,0,0,0,0,0,0,0,0,0,0,0,445,
scooby_state_40f696|4|1 445,0,0,0,0,0,0,0,0,0,0,0,0,0,0,445,
scooby_state_40f696|0|0 445,0,0,0,0,0,0,0,0,0,0,0,0,0,0,445,
scooby_state_40f413|11|1 445,0,0,0,0,0,0,0,0,0,0,0,0,0,0,445,
scooby_state_40f696|32|1 444,0,0,0,0,0,0,0,0,0,0,1,0,0,0,445,
scooby_state_40f413|48|1 442,0,1,0,0,0,0,0,0,0,0,1,0,0,1,445,
scooby_state_40f413|21|1 444,0,0,0,0,0,0,0,0,0,0,0,0,0,1,445,
scooby_state_40f90b|27|1 445,0,0,0,0,0,0,0,0,0,0,0,0,0,0,445,
scooby_state_40f413|13|1 444,0,0,1,0,0,0,0,0,0,0,0,0,0,0,445,
scooby_state_40ff81|54|1 444,0,0,0,0,0,0,0,0,1,0,0,0,0,0,445,
scooby_state_40f696|7|1 444,1,0,0,0,0,0,0,0,0,0,0,0,0,0,445,
scooby_state_40f90b|37|1 444,0,0,0,1,0,0,0,0,0,0,0,0,0,0,445,
scooby_state_40f90b|42|1 444,0,0,0,1,0,0,0,0,0,0,0,0,0,0,445,
scooby_state_40f90b|61|1 445,0,0,0,0,0,0,0,0,0,0,0,0,0,0,445,
scooby_state_40f413|2|1 445,0,0,0,0,0,0,0,0,0,0,0,0,0,0,445,
scooby_state_40f90b|39|1 445,0,0,0,0,0,0,0,0,0,0,0,0,0,0,445,
scooby_state_40f90b|32|1 444,0,0,0,0,0,0,0,0,1,0,0,0,0,0,445,
scooby_state_40f413|14|1 444,0,0,0,0,0,0,0,1,0,0,0,0,0,0,445,
scooby_state_40f90b|43|1 443,0,0,0,0,0,0,0,1,0,1,0,0,0,0,445,
scooby_state_40f413|5|1 442,0,0,0,0,1,0,0,0,0,2,0,0,0,0,445,
scooby_state_40f413|19|1 445,0,0,0,0,0,0,0,0,0,0,0,0,0,0,445,
scooby_state_40f90b|25|1 445,0,0,0,0,0,0,0,0,0,0,0,0,0,0,445,
scooby_state_40ff81|55|1 441,2,0,0,0,1,0,0,0,0,0,0,0,0,0,444,
scooby_state_40f413|6|1 444,0,0,0,0,0,0,0,0,0,0,0,0,0,0,444,
scooby_state_40f413|42|1 443,0,1,0,0,0,0,0,0,0,0,0,0,0,0,444,
scooby_state_40f413|44|1 444,0,0,0,0,0,0,0,0,0,0,0,0,0,0,444,
scooby_state_40f90b|23|1 444,0,0,0,0,0,0,0,0,0,0,0,0,0,0,444,
scooby_state_40f413|46|1 442,0,0,0,0,0,0,0,0,0,1,0,1,0,0,444,
scooby_state_40f696|3|1 444,0,0,0,0,0,0,0,0,0,0,0,0,0,0,444,
scooby_state_40ff70|34|1 444,0,0,0,0,0,0,0,0,0,0,0,0,0,0,444,
scooby_state_40f413|9|1 443,0,0,0,1,0,0,0,0,0,0,0,0,0,0,444,
scooby_state_40f413|12|1 444,0,0,0,0,0,0,0,0,0,0,0,0,0,0,444,
scooby_state_40f413|53|1 444,0,0,0,0,0,0,0,0,0,0,0,0,0,0,444,
scooby_state_40f696|22|1 442,0,0,0,0,0,0,0,0,1,0,1,0,0,0,444,
scooby_state_40f696|50|1 444,0,0,0,0,0,0,0,0,0,0,0,0,0,0,444,
scooby_state_40f90b|29|1 443,0,0,0,1,0,0,0,0,0,0,0,0,0,0,444,
scooby_state_40f90b|9|1 443,0,0,0,0,0,0,0,0,0,1,0,0,0,0,444,
scooby_state_40ff70|33|1 443,0,0,0,0,0,0,0,0,0,0,0,0,0,0,443,
scooby_state_40ff81|56|1 443,0,0,0,0,0,0,0,0,0,0,0,0,0,0,443,
scooby_state_40f696|58|1 442,0,0,0,0,1,0,0,0,0,0,0,0,0,0,443,
scooby_state_40ff81|53|1 442,0,0,0,0,0,1,0,0,0,0,0,0,0,0,443,
scooby_state_40f696|8|1 442,0,0,0,0,0,0,1,0,0,0,0,0,0,0,443,
scooby_state_40f696|9|1 443,0,0,0,0,0,0,0,0,0,0,0,0,0,0,443,
scooby_state_40ff70|36|1 441,0,1,0,1,0,0,0,0,0,0,0,0,0,0,443,
scooby_state_40f696|60|1 441,0,0,0,0,0,0,0,0,0,0,1,0,0,1,443,
scooby_state_40f90b|10|1 440,1,0,0,0,0,0,1,0,0,0,0,1,0,0,443,
scooby_state_40ff70|37|1 443,0,0,0,0,0,0,0,0,0,0,0,0,0,0,443,
scooby_state_40ff81|57|1 441,0,2,0,0,0,0,0,0,0,0,0,0,0,0,443,
scooby_state_40ff70|35|1 443,0,0,0,0,0,0,0,0,0,0,0,0,0,0,443,
scooby_state_40f696|52|1 442,0,0,0,0,0,1,0,0,0,0,0,0,0,0,443,
scooby_state_40ff70|38|1 443,0,0,0,0,0,0,0,0,0,0,0,0,0,0,443,
scooby_state_40ff81|58|1 442,0,0,0,0,1,0,0,0,0,0,0,0,0,0,443,
scooby_state_40ff81|59|1 442,0,1,0,0,0,0,0,0,0,0,0,0,0,0,443,
scooby_state_40ff70|39|1 441,0,0,0,0,0,1,0,0,0,0,0,0,1,0,443,
scooby_state_40f413|25|1 443,0,0,0,0,0,0,0,0,0,0,0,0,0,0,443,
scooby_state_40f90b|6|1 441,0,0,0,0,0,0,0,0,0,0,0,0,0,1,442,
scooby_state_40ff70|4|1 439,2,0,0,0,0,0,0,1,0,0,0,0,0,0,442,
scooby_state_40ff81|22|1 442,0,0,0,0,0,0,0,0,0,0,0,0,0,0,442,
scooby_state_40ff81|24|1 441,1,0,0,0,0,0,0,0,0,0,0,0,0,0,442,
scooby_state_40f90b|8|1 440,0,0,0,1,1,0,0,0,0,0,0,0,0,0,442,
scooby_state_40f413|24|1 440,1,0,0,0,0,0,1,0,0,0,0,0,0,0,442,
scooby_state_40ff70|8|1 442,0,0,0,0,0,0,0,0,0,0,0,0,0,0,442,
scooby_state_40f413|49|1 439,0,0,0,1,0,0,1,0,1,0,0,0,0,0,442,
scooby_state_40ff81|28|1 442,0,0,0,0,0,0,0,0,0,0,0,0,0,0,442,
scooby_state_40ff81|39|1 442,0,0,0,0,0,0,0,0,0,0,0,0,0,0,442,
scooby_state_40ff70|2|1 437,0,0,0,0,0,0,0,0,1,1,0,2,1,0,442,
scooby_state_40ff81|23|1 441,0,0,0,0,0,0,0,0,0,0,1,0,0,0,442,
scooby_state_40ff70|19|1 442,0,0,0,0,0,0,0,0,0,0,0,0,0,0,442,
scooby_state_40ff81|38|1 442,0,0,0,0,0,0,0,0,0,0,0,0,0,0,442,
scooby_state_40f413|45|1 442,0,0,0,0,0,0,0,0,0,0,0,0,0,0,442,
scooby_state_40f413|8|1 440,1,1,0,0,0,0,0,0,0,0,0,0,0,0,442,
scooby_state_40ff70|3|1 440,0,1,0,1,0,0,0,0,0,0,0,0,0,0,442,
scooby_state_40ff70|18|1 442,0,0,0,0,0,0,0,0,0,0,0,0,0,0,442,
scooby_state_40ff81|27|1 440,0,0,1,0,0,0,1,0,0,0,0,0,0,0,442,
scooby_state_40ff70|7|1 441,0,0,0,0,0,1,0,0,0,0,0,0,0,0,442,
scooby_state_40f696|42|1 442,0,0,0,0,0,0,0,0,0,0,0,0,0,0,442,
scooby_state_40f90b|2|1 440,0,0,0,0,0,0,0,0,0,0,0,0,1,0,441,
scooby_state_40ff81|45|1 441,0,0,0,0,0,0,0,0,0,0,0,0,0,0,441,
scooby_state_40ff92|0|0 440,0,0,0,0,0,0,1,0,0,0,0,0,0,0,441,
scooby_state_40ff70|6|1 441,0,0,0,0,0,0,0,0,0,0,0,0,0,0,441,
scooby_state_40ff81|35|1 440,0,0,0,0,0,1,0,0,0,0,0,0,0,0,441,
scooby_state_40ff70|56|1 440,0,0,0,0,1,0,0,0,0,0,0,0,0,0,441,
scooby_state_40ff70|28|1 441,0,0,0,0,0,0,0,0,0,0,0,0,0,0,441,
scooby_state_40ff70|31|1 437,1,0,0,0,0,1,0,0,0,0,1,0,1,0,441,
scooby_state_40ff70|12|1 440,0,0,0,0,0,0,1,0,0,0,0,0,0,0,441,
scooby_state_40ff81|10|1 441,0,0,0,0,0,0,0,0,0,0,0,0,0,0,441,
scooby_state_40ff70|26|1 439,0,0,0,1,0,0,0,1,0,0,0,0,0,0,441,
scooby_state_40ff81|33|1 440,0,0,0,0,0,0,1,0,0,0,0,0,0,0,441,
scooby_state_40ff81|42|1 440,0,0,0,0,0,0,0,0,1,0,0,0,0,0,441,
scooby_state_40ff81|40|1 441,0,0,0,0,0,0,0,0,0,0,0,0,0,0,441,
scooby_state_40ff81|34|1 441,0,0,0,0,0,0,0,0,0,0,0,0,0,0,441,
scooby_state_40ff70|17|1 440,0,0,0,0,0,0,0,0,1,0,0,0,0,0,441,
scooby_state_40ff81|49|1 440,0,0,0,1,0,0,0,0,0,0,0,0,0,0,441,
scooby_state_40ff81|29|1 441,0,0,0,0,0,0,0,0,0,0,0,0,0,0,441,
scooby_state_40ff81|41|1 441,0,0,0,0,0,0,0,0,0,0,0,0,0,0,441,
scooby_state_40ff81|25|1 440,0,0,0,0,0,0,1,0,0,0,0,0,0,0,441,
scooby_state_40ff81|30|1 441,0,0,0,0,0,0,0,0,0,0,0,0,0,0,441,
scooby_state_40ff81|12|1 439,0,0,0,0,0,0,2,0,0,0,0,0,0,0,441,
scooby_state_40ff70|29|1 440,0,0,0,0,0,0,0,0,1,0,0,0,0,0,441,
scooby_state_40ff70|14|1 441,0,0,0,0,0,0,0,0,0,0,0,0,0,0,441,
scooby_state_40ff81|48|1 440,0,0,0,0,0,0,0,0,1,0,0,0,0,0,441,
scooby_state_40ff70|13|1 441,0,0,0,0,0,0,0,0,0,0,0,0,0,0,441,
scooby_state_40ff70|55|1 439,0,1,1,0,0,0,0,0,0,0,0,0,0,0,441,
scooby_state_40ff81|52|1 441,0,0,0,0,0,0,0,0,0,0,0,0,0,0,441,
scooby_state_40ff81|11|1 440,0,0,0,0,0,0,0,0,0,0,0,1,0,0,441,
scooby_state_40f696|5|1 441,0,0,0,0,0,0,0,0,0,0,0,0,0,0,441,
scooby_state_40ff70|9|1 440,0,0,0,1,0,0,0,0,0,0,0,0,0,0,441,
scooby_state_40ff81|62|1 441,0,0,0,0,0,0,0,0,0,0,0,0,0,0,441,
scooby_state_40ff81|47|1 438,0,1,0,1,0,0,0,0,0,0,0,0,0,1,441,
scooby_state_40ff70|22|1 441,0,0,0,0,0,0,0,0,0,0,0,0,0,0,441,
scooby_state_40ff70|21|1 441,0,0,0,0,0,0,0,0,0,0,0,0,0,0,441,
scooby_state_40ff70|27|1 439,0,0,0,0,0,0,0,0,0,0,2,0,0,0,441,
scooby_state_40ff81|37|1 441,0,0,0,0,0,0,0,0,0,0,0,0,0,0,441,
scooby_state_40ff70|32|1 440,0,1,0,0,0,0,0,0,0,0,0,0,0,0,441,
scooby_state_40ff70|24|1 441,0,0,0,0,0,0,0,0,0,0,0,0,0,0,441,
scooby_state_40ff70|40|1 440,0,0,1,0,0,0,0,0,0,0,0,0,0,0,441,
scooby_state_40ff81|32|1 440,0,0,0,0,0,0,0,0,0,0,1,0,0,0,441,
scooby_state_40f696|2|1 441,0,0,0,0,0,0,0,0,0,0,0,0,0,0,441,
scooby_state_40ff81|60|1 441,0,0,0,0,0,0,0,0,0,0,0,0,0,0,441,
scooby_state_40ff81|44|1 441,0,0,0,0,0,0,0,0,0,0,0,0,0,0,441,
scooby_state_40f913|1|1 439,0,0,0,0,0,1,0,0,0,0,0,0,0,0,440,
scooby_state_40ff38|34|1 439,0,0,0,0,0,0,0,0,0,0,0,0,1,0,440,
scooby_state_40ff4d|36|1 440,0,0,0,0,0,0,0,0,0,0,0,0,0,0,440,
scooby_state_40ff15|36|1 440,0,0,0,0,0,0,0,0,0,0,0,0,0,0,440,
scooby_state_40ff1e|11|1 440,0,0,0,0,0,0,0,0,0,0,0,0,0,0,440,
scooby_state_40ff1e|12|1 440,0,0,0,0,0,0,0,0,0,0,0,0,0,0,440,
scooby_state_40ff4d|38|1 438,0,0,0,0,0,0,0,1,0,0,0,0,1,0,440,
scooby_state_40ff70|47|1 440,0,0,0,0,0,0,0,0,0,0,0,0,0,0,440,
scooby_state_40ff81|17|1 440,0,0,0,0,0,0,0,0,0,0,0,0,0,0,440,
scooby_state_40ff38|38|1 440,0,0,0,0,0,0,0,0,0,0,0,0,0,0,440,
scooby_state_40f41b|49|1 440,0,0,0,0,0,0,0,0,0,0,0,0,0,0,440,
scooby_state_40ff70|61|1 437,0,0,0,0,1,0,0,0,0,0,1,1,0,0,440,
scooby_state_40f69e|54|1 439,1,0,0,0,0,0,0,0,0,0,0,0,0,0,440,
scooby_state_40ff2b|35|1 439,0,0,0,1,0,0,0,0,0,0,0,0,0,0,440,
scooby_state_40ff70|62|1 439,1,0,0,0,0,0,0,0,0,0,0,0,0,0,440,
scooby_state_40ff81|50|1 436,1,0,1,0,0,0,0,0,0,1,0,0,1,0,440,
scooby_state_40ff70|57|1 439,0,0,0,0,0,0,1,0,0,0,0,0,0,0,440,
scooby_state_40ff81|3|1 438,0,0,1,0,0,1,0,0,0,0,0,0,0,0,440,
scooby_state_40f69e|57|1 440,0,0,0,0,0,0,0,0,0,0,0,0,0,0,440,
scooby_state_40f913|0|0 440,0,0,0,0,0,0,0,0,0,0,0,0,0,0,440,
scooby_state_40ff81|18|1 440,0,0,0,0,0,0,0,0,0,0,0,0,0,0,440,
scooby_state_40ff81|15|1 439,0,0,0,0,0,0,0,0,0,0,0,0,0,1,440,
scooby_state_40ff81|63|1 439,0,1,0,0,0,0,0,0,0,0,0,0,0,0,440,
scooby_state_40ff81|0|0 438,0,1,0,0,0,0,0,0,0,0,0,1,0,0,440,
scooby_state_40ff81|6|1 437,0,0,0,1,0,0,2,0,0,0,0,0,0,0,440,
scooby_state_40ff81|43|1 439,0,0,1,0,0,0,0,0,0,0,0,0,0,0,440,
scooby_state_40ff70|46|1 440,0,0,0,0,0,0,0,0,0,0,0,0,0,0,440,
scooby_state_40ff38|36|1 440,0,0,0,0,0,0,0,0,0,0,0,0,0,0,440,
scooby_state_40ff81|21|1 439,1,0,0,0,0,0,0,0,0,0,0,0,0,0,440,
scooby_state_40ff70|54|1 438,0,1,0,0,0,0,0,1,0,0,0,0,0,0,440,
scooby_state_40ff70|25|1 438,0,0,0,0,0,0,1,0,0,1,0,0,0,0,440,
scooby_state_40ff70|48|1 439,0,0,0,0,0,0,0,0,0,0,0,1,0,0,440,
scooby_state_40ff81|4|1 440,0,0,0,0,0,0,0,0,0,0,0,0,0,0,440,
scooby_state_40ff81|5|1 439,0,0,0,0,0,1,0,0,0,0,0,0,0,0,440,
scooby_state_40f913|5|1 440,0,0,0,0,0,0,0,0,0,0,0,0,0,0,440,
scooby_state_40ff4d|34|1 440,0,0,0,0,0,0,0,0,0,0,0,0,0,0,440,
scooby_state_40ff81|9|1 439,0,0,0,0,0,0,0,0,1,0,0,0,0,0,440,
scooby_state_40ff70|53|1 440,0,0,0,0,0,0,0,0,0,0,0,0,0,0,440,
scooby_state_40ff70|52|1 440,0,0,0,0,0,0,0,0,0,0,0,0,0,0,440,
scooby_state_40f69e|56|1 439,0,0,0,0,0,0,0,0,0,0,0,1,0,0,440,
scooby_state_40ff70|1|1 440,0,0,0,0,0,0,0,0,0,0,0,0,0,0,440,
scooby_state_40ff70|41|1 440,0,0,0,0,0,0,0,0,0,0,0,0,0,0,440,
scooby_state_40ff15|34|1 440,0,0,0,0,0,0,0,0,0,0,0,0,0,0,440,
scooby_state_40ff1e|10|1 439,0,0,0,0,0,0,0,0,0,0,0,1,0,0,440,
scooby_state_40ff2b|34|1 440,0,0,0,0,0,0,0,0,0,0,0,0,0,0,440,
scooby_state_40ff15|35|1 440,0,0,0,0,0,0,0,0,0,0,0,0,0,0,440,
scooby_state_40ff38|35|1 440,0,0,0,0,0,0,0,0,0,0,0,0,0,0,440,
scooby_state_40ff4d|35|1 440,0,0,0,0,0,0,0,0,0,0,0,0,0,0,440,
scooby_state_40ff1e|14|1 438,0,1,0,0,0,0,0,0,0,0,0,0,0,1,440,
scooby_state_40ff2b|36|1 440,0,0,0,0,0,0,0,0,0,0,0,0,0,0,440,
scooby_state_40ff81|13|1 440,0,0,0,0,0,0,0,0,0,0,0,0,0,0,440,
scooby_state_40f913|3|1 439,0,0,1,0,0,0,0,0,0,0,0,0,0,0,440,
scooby_state_40ff15|37|1 439,0,0,0,0,0,0,0,0,0,1,0,0,0,0,440,
scooby_state_40ff1e|13|1 440,0,0,0,0,0,0,0,0,0,0,0,0,0,0,440,
scooby_state_40ff2b|37|1 439,0,0,0,0,0,0,0,0,0,1,0,0,0,0,440,
scooby_state_40ff81|26|1 439,0,1,0,0,0,0,0,0,0,0,0,0,0,0,440,
scooby_state_40ff2b|38|1 439,0,0,0,0,0,0,0,0,0,0,0,0,0,1,440,
scooby_state_40ff4d|37|1 440,0,0,0,0,0,0,0,0,0,0,0,0,0,0,440,
scooby_state_40ff15|39|1 440,0,0,0,0,0,0,0,0,0,0,0,0,0,0,440,
scooby_state_40ff4d|39|1 440,0,0,0,0,0,0,0,0,0,0,0,0,0,0,440,
scooby_state_40f41b|48|1 439,0,0,0,0,0,1,0,0,0,0,0,0,0,0,440,
scooby_state_40ff70|43|1 439,0,0,0,0,0,0,0,0,0,0,0,0,0,1,440,
[...]
scooby_state_418236|63|2 1,0,0,0,0,0,0,0,0,0,0,0,0,0,0,1,
scooby_state_4190ef|26|1 1,0,0,0,0,0,0,0,0,0,0,0,0,0,0,1,
scooby_state_419144|51|15 1,0,0,0,0,0,0,0,0,0,0,0,0,0,0,1,
scooby_state_417e5f|8|0 1,0,0,0,0,0,0,0,0,0,0,0,0,0,0,1,
scooby_state_412e2f|50|17 1,0,0,0,0,0,0,0,0,0,0,0,0,0,0,1,
scooby_state_411fcf|13|0 1,0,0,0,0,0,0,0,0,0,0,0,0,0,0,1,
scooby_state_417de1|44|17 1,0,0,0,0,0,0,0,0,0,0,0,0,0,0,1,
scooby_state_418154|43|32 1,0,0,0,0,0,0,0,0,0,0,0,0,0,0,1,
scooby_state_4181ce|43|32 1,0,0,0,0,0,0,0,0,0,0,0,0,0,0,1,
scooby_state_411c19|20|-16 1,0,0,0,0,0,0,0,0,0,0,0,0,0,0,1,
scooby_state_41924e|28|2 1,0,0,0,0,0,0,0,0,0,0,0,0,0,0,1,
scooby_state_412c63|41|4 1,0,0,0,0,0,0,0,0,0,0,0,0,0,0,1,
scooby_state_413daa|59|12 1,0,0,0,0,0,0,0,0,0,0,0,0,0,0,1,
scooby_state_412c38|28|-11 1,0,0,0,0,0,0,0,0,0,0,0,0,0,0,1,
scooby_state_417e7b|29|-32 1,0,0,0,0,0,0,0,0,0,0,0,0,0,0,1,
scooby_state_4192ad|62|1 1,0,0,0,0,0,0,0,0,0,0,0,0,0,0,1,
scooby_state_4190ef|59|3 1,0,0,0,0,0,0,0,0,0,0,0,0,0,0,1,
scooby_state_413daa|57|7 1,0,0,0,0,0,0,0,0,0,0,0,0,0,0,1,
scooby_state_4190e1|0|-10 1,0,0,0,0,0,0,0,0,0,0,0,0,0,0,1,
scooby_state_41aa2d|59|6 1,0,0,0,0,0,0,0,0,0,0,0,0,0,0,1,
scooby_state_4190ef|28|1 1,0,0,0,0,0,0,0,0,0,0,0,0,0,0,1,
scooby_state_40f6e6|20|1 1,0,0,0,0,0,0,0,0,0,0,0,0,0,0,1,
scooby_state_412e53|15|12 1,0,0,0,0,0,0,0,0,0,0,0,0,0,0,1,
scooby_state_412e2f|51|10 1,0,0,0,0,0,0,0,0,0,0,0,0,0,0,1,
scooby_state_412e2f|48|0 1,0,0,0,0,0,0,0,0,0,0,0,0,0,0,1,
scooby_state_413dcd|54|-1 1,0,0,0,0,0,0,0,0,0,0,0,0,0,0,1,
scooby_state_417e5f|14|0 1,0,0,0,0,0,0,0,0,0,0,0,0,0,0,1,
scooby_state_41a21f|34|2 1,0,0,0,0,0,0,0,0,0,0,0,0,0,0,1,
scooby_state_418b58|41|1 1,0,0,0,0,0,0,0,0,0,0,0,0,0,0,1,
scooby_state_418a17|51|2 1,0,0,0,0,0,0,0,0,0,0,0,0,0,0,1,
scooby_state_414609|14|1 1,0,0,0,0,0,0,0,0,0,0,0,0,0,0,1,
scooby_state_412dd2|13|0 1,0,0,0,0,0,0,0,0,0,0,0,0,0,0,1,
scooby_state_4190c1|3|-16 1,0,0,0,0,0,0,0,0,0,0,0,0,0,0,1,
scooby_state_418a6b|51|2 1,0,0,0,0,0,0,0,0,0,0,0,0,0,0,1,
scooby_state_412c92|63|8 1,0,0,0,0,0,0,0,0,0,0,0,0,0,0,1,
scooby_state_418758|15|-1 1,0,0,0,0,0,0,0,0,0,0,0,0,0,0,1,
scooby_state_417d77|40|1 1,0,0,0,0,0,0,0,0,0,0,0,0,0,0,1,
scooby_state_40f035|17|0 1,0,0,0,0,0,0,0,0,0,0,0,0,0,0,1,
scooby_state_412c99|23|0 1,0,0,0,0,0,0,0,0,0,0,0,0,0,0,1,
scooby_state_418a54|17|2 1,0,0,0,0,0,0,0,0,0,0,0,0,0,0,1,
scooby_state_419289|16|6 1,0,0,0,0,0,0,0,0,0,0,0,0,0,0,1,
scooby_state_411c70|21|-16 1,0,0,0,0,0,0,0,0,0,0,0,0,0,0,1,
scooby_state_412092|10|0 1,0,0,0,0,0,0,0,0,0,0,0,0,0,0,1,
scooby_state_4191dc|51|2 1,0,0,0,0,0,0,0,0,0,0,0,0,0,0,1,
scooby_state_418d8f|17|16 1,0,0,0,0,0,0,0,0,0,0,0,0,0,0,1,
scooby_state_412c63|47|-7 1,0,0,0,0,0,0,0,0,0,0,0,0,0,0,1,
scooby_state_412040|13|0 1,0,0,0,0,0,0,0,0,0,0,0,0,0,0,1,
scooby_state_418724|50|0 1,0,0,0,0,0,0,0,0,0,0,0,0,0,0,1,
scooby_state_418253|59|1 1,0,0,0,0,0,0,0,0,0,0,0,0,0,0,1,
scooby_state_418154|48|32 1,0,0,0,0,0,0,0,0,0,0,0,0,0,0,1,
scooby_state_41a2d2|51|2 1,0,0,0,0,0,0,0,0,0,0,0,0,0,0,1,
scooby_state_41924e|18|12 1,0,0,0,0,0,0,0,0,0,0,0,0,0,0,1,
scooby_state_411fdc|13|0 1,0,0,0,0,0,0,0,0,0,0,0,0,0,0,1,
scooby_state_4146ec|7|1 1,0,0,0,0,0,0,0,0,0,0,0,0,0,0,1,
scooby_state_419289|33|4 1,0,0,0,0,0,0,0,0,0,0,0,0,0,0,1,
scooby_state_4190d5|62|5 1,0,0,0,0,0,0,0,0,0,0,0,0,0,0,1,
scooby_state_417c43|49|1 1,0,0,0,0,0,0,0,0,0,0,0,0,0,0,1,
scooby_state_411c19|15|1 1,0,0,0,0,0,0,0,0,0,0,0,0,0,0,1,
scooby_state_41aa2d|62|2 1,0,0,0,0,0,0,0,0,0,0,0,0,0,0,1,
scooby_state_418253|47|1 1,0,0,0,0,0,0,0,0,0,0,0,0,0,0,1,
scooby_state_4191dc|52|47 1,0,0,0,0,0,0,0,0,0,0,0,0,0,0,1,
scooby_state_418c78|62|16 1,0,0,0,0,0,0,0,0,0,0,0,0,0,0,1,
scooby_state_413140|5|1 1,0,0,0,0,0,0,0,0,0,0,0,0,0,0,1,
scooby_state_41924e|10|8 1,0,0,0,0,0,0,0,0,0,0,0,0,0,0,1,
scooby_state_41a26e|59|-2 1,0,0,0,0,0,0,0,0,0,0,0,0,0,0,1,
scooby_state_41a242|39|2 1,0,0,0,0,0,0,0,0,0,0,0,0,0,0,1,
scooby_state_41924e|54|5 1,0,0,0,0,0,0,0,0,0,0,0,0,0,0,1,
scooby_state_418d9d|31|-14 1,0,0,0,0,0,0,0,0,0,0,0,0,0,0,1,
scooby_state_418d8f|34|16 1,0,0,0,0,0,0,0,0,0,0,0,0,0,0,1,
scooby_state_418b3b|0|0 1,0,0,0,0,0,0,0,0,0,0,0,0,0,0,1,
scooby_state_4190c1|30|-30 1,0,0,0,0,0,0,0,0,0,0,0,0,0,0,1,
scooby_state_412c92|50|7 1,0,0,0,0,0,0,0,0,0,0,0,0,0,0,1,
scooby_state_41a2d2|43|2 1,0,0,0,0,0,0,0,0,0,0,0,0,0,0,1,
scooby_state_41871e|54|0 1,0,0,0,0,0,0,0,0,0,0,0,0,0,0,1,
scooby_state_419144|56|0 1,0,0,0,0,0,0,0,0,0,0,0,0,0,0,1,
scooby_state_41924e|44|14 1,0,0,0,0,0,0,0,0,0,0,0,0,0,0,1,
scooby_state_412de5|14|10 1,0,0,0,0,0,0,0,0,0,0,0,0,0,0,1,
scooby_state_4192ad|62|32 1,0,0,0,0,0,0,0,0,0,0,0,0,0,0,1,
scooby_state_412628|36|0 1,0,0,0,0,0,0,0,0,0,0,0,0,0,0,1,
scooby_state_419289|37|7 1,0,0,0,0,0,0,0,0,0,0,0,0,0,0,1,
scooby_state_4123d1|47|0 1,0,0,0,0,0,0,0,0,0,0,0,0,0,0,1,
scooby_state_41920b|9|4 1,0,0,0,0,0,0,0,0,0,0,0,0,0,0,1,
scooby_state_418748|57|0 1,0,0,0,0,0,0,0,0,0,0,0,0,0,0,1,
scooby_state_411bd4|3|-32 1,0,0,0,0,0,0,0,0,0,0,0,0,0,0,1,
scooby_state_4190ef|32|1 1,0,0,0,0,0,0,0,0,0,0,0,0,0,0,1,
scooby_state_4190c1|32|1 1,0,0,0,0,0,0,0,0,0,0,0,0,0,0,1,
scooby_state_418236|31|-31 1,0,0,0,0,0,0,0,0,0,0,0,0,0,0,1,
scooby_state_4192c9|42|10 1,0,0,0,0,0,0,0,0,0,0,0,0,0,0,1,
scooby_state_4190ce|21|-14 1,0,0,0,0,0,0,0,0,0,0,0,0,0,0,1,
scooby_state_41924e|61|4 1,0,0,0,0,0,0,0,0,0,0,0,0,0,0,1,
scooby_state_412821|13|-13 1,0,0,0,0,0,0,0,0,0,0,0,0,0,0,1,
scooby_state_418a17|39|2 1,0,0,0,0,0,0,0,0,0,0,0,0,0,0,1,
scooby_state_418a6b|39|2 1,0,0,0,0,0,0,0,0,0,0,0,0,0,0,1,
scooby_state_418a54|5|2 1,0,0,0,0,0,0,0,0,0,0,0,0,0,0,1,
scooby_state_419289|23|4 1,0,0,0,0,0,0,0,0,0,0,0,0,0,0,1,
scooby_state_4188c0|35|1 1,0,0,0,0,0,0,0,0,0,0,0,0,0,0,1,
scooby_state_412628|8|0 1,0,0,0,0,0,0,0,0,0,0,0,0,0,0,1,
scooby_state_417e7b|25|-15 1,0,0,0,0,0,0,0,0,0,0,0,0,0,0,1,
scooby_state_41875e|54|0 1,0,0,0,0,0,0,0,0,0,0,0,0,0,0,1,
scooby_state_41918e|39|3 1,0,0,0,0,0,0,0,0,0,0,0,0,0,0,1,
scooby_state_41aa2d|51|1 1,0,0,0,0,0,0,0,0,0,0,0,0,0,0,1,
scooby_state_412e53|34|12 1,0,0,0,0,0,0,0,0,0,0,0,0,0,0,1,
scooby_state_418236|26|-31 1,0,0,0,0,0,0,0,0,0,0,0,0,0,0,1,
scooby_state_411c2a|4|-46 1,0,0,0,0,0,0,0,0,0,0,0,0,0,0,1,
scooby_state_41a0c6|3|1 1,0,0,0,0,0,0,0,0,0,0,0,0,0,0,1,
scooby_state_4191b9|46|-4 1,0,0,0,0,0,0,0,0,0,0,0,0,0,0,1,
scooby_state_4120b9|8|-9 1,0,0,0,0,0,0,0,0,0,0,0,0,0,0,1,
scooby_state_41875e|37|-1 1,0,0,0,0,0,0,0,0,0,0,0,0,0,0,1,
scooby_state_413daa|37|13 1,0,0,0,0,0,0,0,0,0,0,0,0,0,0,1,
scooby_state_418724|37|-1 1,0,0,0,0,0,0,0,0,0,0,0,0,0,0,1,
scooby_state_417df6|21|-16 1,0,0,0,0,0,0,0,0,0,0,0,0,0,0,1,
scooby_state_417dae|21|-15 1,0,0,0,0,0,0,0,0,0,0,0,0,0,0,1,
scooby_state_41aa2d|52|4 1,0,0,0,0,0,0,0,0,0,0,0,0,0,0,1,
scooby_state_411a45|41|1 1,0,0,0,0,0,0,0,0,0,0,0,0,0,0,1,
scooby_state_411bd4|23|1 1,0,0,0,0,0,0,0,0,0,0,0,0,0,0,1,
scooby_state_410200|8|1 1,0,0,0,0,0,0,0,0,0,0,0,0,0,0,1,
scooby_state_411c70|55|33 1,0,0,0,0,0,0,0,0,0,0,0,0,0,0,1,
scooby_state_41918e|42|5 1,0,0,0,0,0,0,0,0,0,0,0,0,0,0,1,
scooby_state_4192c9|5|5 1,0,0,0,0,0,0,0,0,0,0,0,0,0,0,1,
scooby_state_418758|4|0 1,0,0,0,0,0,0,0,0,0,0,0,0,0,0,1,
scooby_state_419144|41|15 1,0,0,0,0,0,0,0,0,0,0,0,0,0,0,1,
scooby_state_417de1|26|16 1,0,0,0,0,0,0,0,0,0,0,0,0,0,0,1,
scooby_state_417d84|2|1 1,0,0,0,0,0,0,0,0,0,0,0,0,0,0,1,
scooby_state_4120b9|29|0 1,0,0,0,0,0,0,0,0,0,0,0,0,0,0,1,
scooby_state_418c78|52|-1 1,0,0,0,0,0,0,0,0,0,0,0,0,0,0,1,
scooby_state_417de1|18|17 1,0,0,0,0,0,0,0,0,0,0,0,0,0,0,1,
scooby_state_412c63|51|8 1,0,0,0,0,0,0,0,0,0,0,0,0,0,0,1,
scooby_state_412c92|22|-12 1,0,0,0,0,0,0,0,0,0,0,0,0,0,0,1,
scooby_state_417d77|18|16 1,0,0,0,0,0,0,0,0,0,0,0,0,0,0,1,
scooby_state_418758|1|-1 1,0,0,0,0,0,0,0,0,0,0,0,0,0,0,1,
scooby_state_412821|32|9 1,0,0,0,0,0,0,0,0,0,0,0,0,0,0,1,
scooby_state_417de1|49|17 1,0,0,0,0,0,0,0,0,0,0,0,0,0,0,1,
scooby_state_4181f8|34|1 1,0,0,0,0,0,0,0,0,0,0,0,0,0,0,1,
scooby_state_418724|34|0 1,0,0,0,0,0,0,0,0,0,0,0,0,0,0,1,
scooby_state_41875e|34|0 1,0,0,0,0,0,0,0,0,0,0,0,0,0,0,1,
scooby_state_4192c9|18|15 1,0,0,0,0,0,0,0,0,0,0,0,0,0,0,1,
scooby_state_40f38f|60|1 1,0,0,0,0,0,0,0,0,0,0,0,0,0,0,1,
scooby_state_412821|13|-5 1,0,0,0,0,0,0,0,0,0,0,0,0,0,0,1,
scooby_state_419289|15|11 1,0,0,0,0,0,0,0,0,0,0,0,0,0,0,1,
scooby_state_419107|40|16 1,0,0,0,0,0,0,0,0,0,0,0,0,0,0,1,
scooby_state_412039|29|0 1,0,0,0,0,0,0,0,0,0,0,0,0,0,0,1,
scooby_state_411fcf|29|0 1,0,0,0,0,0,0,0,0,0,0,0,0,0,0,1,
scooby_state_411fdc|29|0 1,0,0,0,0,0,0,0,0,0,0,0,0,0,0,1,
scooby_state_48b30c|12|-16 1,0,0,0,0,0,0,0,0,0,0,0,0,0,0,1,
scooby_state_411c41|34|32 1,0,0,0,0,0,0,0,0,0,0,0,0,0,0,1,
scooby_state_40f680|26|1 1,0,0,0,0,0,0,0,0,0,0,0,0,0,0,1,
scooby_state_4192c9|19|12 1,0,0,0,0,0,0,0,0,0,0,0,0,0,0,1,
scooby_state_417d77|50|16 1,0,0,0,0,0,0,0,0,0,0,0,0,0,0,1,
scooby_state_412342|13|1 1,0,0,0,0,0,0,0,0,0,0,0,0,0,0,1,
scooby_state_4120b9|3|-9 1,0,0,0,0,0,0,0,0,0,0,0,0,0,0,1,
scooby_state_419289|44|9 1,0,0,0,0,0,0,0,0,0,0,0,0,0,0,1,
scooby_state_419144|44|0 1,0,0,0,0,0,0,0,0,0,0,0,0,0,0,1,
scooby_state_419289|22|3 1,0,0,0,0,0,0,0,0,0,0,0,0,0,0,1,
scooby_state_412431|47|0 1,0,0,0,0,0,0,0,0,0,0,0,0,0,0,1,
scooby_state_4190c7|52|1 1,0,0,0,0,0,0,0,0,0,0,0,0,0,0,1,
scooby_state_418c78|8|-15 1,0,0,0,0,0,0,0,0,0,0,0,0,0,0,1,
scooby_state_41a26e|22|-1 1,0,0,0,0,0,0,0,0,0,0,0,0,0,0,1,
scooby_state_417907|24|2 1,0,0,0,0,0,0,0,0,0,0,0,0,0,0,1,
scooby_state_4190c7|39|15 1,0,0,0,0,0,0,0,0,0,0,0,0,0,0,1,
scooby_state_41875e|23|-1 1,0,0,0,0,0,0,0,0,0,0,0,0,0,0,1,
scooby_state_4190e1|40|1 1,0,0,0,0,0,0,0,0,0,0,0,0,0,0,1,
scooby_state_419144|49|0 1,0,0,0,0,0,0,0,0,0,0,0,0,0,0,1,
scooby_state_41a2d2|45|1 1,0,0,0,0,0,0,0,0,0,0,0,0,0,0,1,
scooby_state_418a6b|43|2 1,0,0,0,0,0,0,0,0,0,0,0,0,0,0,1,
scooby_state_41a26e|53|-1 1,0,0,0,0,0,0,0,0,0,0,0,0,0,0,1,
scooby_state_417de1|62|16 1,0,0,0,0,0,0,0,0,0,0,0,0,0,0,1,
scooby_state_412c63|23|-12 1,0,0,0,0,0,0,0,0,0,0,0,0,0,0,1,
scooby_state_41aa2d|55|2 1,0,0,0,0,0,0,0,0,0,0,0,0,0,0,1,
scooby_state_4181c4|53|3 1,0,0,0,0,0,0,0,0,0,0,0,0,0,0,1,
scooby_state_412c5d|47|2 1,0,0,0,0,0,0,0,0,0,0,0,0,0,0,1,
scooby_state_412de5|49|7 1,0,0,0,0,0,0,0,0,0,0,0,0,0,0,1,
scooby_state_412c5d|48|8 1,0,0,0,0,0,0,0,0,0,0,0,0,0,0,1,
scooby_state_412d8e|36|2 1,0,0,0,0,0,0,0,0,0,0,0,0,0,0,1,
scooby_state_419144|57|0 1,0,0,0,0,0,0,0,0,0,0,0,0,0,0,1,
scooby_state_418a17|43|2 1,0,0,0,0,0,0,0,0,0,0,0,0,0,0,1,
scooby_state_418724|41|-1 1,0,0,0,0,0,0,0,0,0,0,0,0,0,0,1,
scooby_state_4118ba|52|0 1,0,0,0,0,0,0,0,0,0,0,0,0,0,0,1,
scooby_state_4120b9|20|-8 1,0,0,0,0,0,0,0,0,0,0,0,0,0,0,1,
scooby_state_419331|43|-6 1,0,0,0,0,0,0,0,0,0,0,0,0,0,0,1,
scooby_state_4190ce|26|-14 1,0,0,0,0,0,0,0,0,0,0,0,0,0,0,1,
scooby_state_417de1|40|16 1,0,0,0,0,0,0,0,0,0,0,0,0,0,0,1,
scooby_state_411c41|58|48 1,0,0,0,0,0,0,0,0,0,0,0,0,0,0,1,
scooby_state_411640|12|3 1,0,0,0,0,0,0,0,0,0,0,0,0,0,0,1,
scooby_state_41a21f|26|2 1,0,0,0,0,0,0,0,0,0,0,0,0,0,0,1,
scooby_state_40edd7|18|-21 1,0,0,0,0,0,0,0,0,0,0,0,0,0,0,1,
scooby_state_4118b5|36|-16 1,0,0,0,0,0,0,0,0,0,0,0,0,0,0,1,
scooby_state_418724|42|0 1,0,0,0,0,0,0,0,0,0,0,0,0,0,0,1,
scooby_state_418154|41|32 1,0,0,0,0,0,0,0,0,0,0,0,0,0,0,1,
scooby_state_418ae4|51|8 1,0,0,0,0,0,0,0,0,0,0,0,0,0,0,1,
scooby_state_418c78|54|1 1,0,0,0,0,0,0,0,0,0,0,0,0,0,0,1,
scooby_state_412076|43|-14 1,0,0,0,0,0,0,0,0,0,0,0,0,0,0,1,
scooby_state_417907|22|5 1,0,0,0,0,0,0,0,0,0,0,0,0,0,0,1,
scooby_state_41911b|1|-3 1,0,0,0,0,0,0,0,0,0,0,0,0,0,0,1,
scooby_state_412c63|6|6 1,0,0,0,0,0,0,0,0,0,0,0,0,0,0,1,
scooby_state_41918e|39|28 1,0,0,0,0,0,0,0,0,0,0,0,0,0,0,1,
scooby_state_4190d5|22|-30 1,0,0,0,0,0,0,0,0,0,0,0,0,0,0,1,
scooby_state_418ad7|43|-10 1,0,0,0,0,0,0,0,0,0,0,0,0,0,0,1,
scooby_state_41a26e|48|-4 1,0,0,0,0,0,0,0,0,0,0,0,0,0,0,1,
scooby_state_41aa2d|53|1 1,0,0,0,0,0,0,0,0,0,0,0,0,0,0,1,
scooby_state_411c09|0|-47 1,0,0,0,0,0,0,0,0,0,0,0,0,0,0,1,
scooby_state_41875e|38|0 1,0,0,0,0,0,0,0,0,0,0,0,0,0,0,1,
scooby_state_411c19|49|47 1,0,0,0,0,0,0,0,0,0,0,0,0,0,0,1,
scooby_state_417907|58|2 1,0,0,0,0,0,0,0,0,0,0,0,0,0,0,1,
scooby_state_4190d5|53|4 1,0,0,0,0,0,0,0,0,0,0,0,0,0,0,1,
scooby_state_419b60|7|0 1,0,0,0,0,0,0,0,0,0,0,0,0,0,0,1,
scooby_state_419144|48|0 1,0,0,0,0,0,0,0,0,0,0,0,0,0,0,1,
scooby_state_4118ff|6|-48 1,0,0,0,0,0,0,0,0,0,0,0,0,0,0,1,
scooby_state_4190ef|23|-30 1,0,0,0,0,0,0,0,0,0,0,0,0,0,0,1,
scooby_state_417907|23|6 1,0,0,0,0,0,0,0,0,0,0,0,0,0,0,1,
scooby_state_411c41|53|48 1,0,0,0,0,0,0,0,0,0,0,0,0,0,0,1,
scooby_state_417e21|23|1 1,0,0,0,0,0,0,0,0,0,0,0,0,0,0,1,
scooby_state_418c78|58|16 1,0,0,0,0,0,0,0,0,0,0,0,0,0,0,1,
scooby_state_40fd75|34|-1 1,0,0,0,0,0,0,0,0,0,0,0,0,0,0,1,
scooby_state_417de1|23|1 1,0,0,0,0,0,0,0,0,0,0,0,0,0,0,1,
scooby_state_412cda|30|2 1,0,0,0,0,0,0,0,0,0,0,0,0,0,0,1,
scooby_state_418758|34|-1 1,0,0,0,0,0,0,0,0,0,0,0,0,0,0,1,
scooby_state_412c5d|23|-12 1,0,0,0,0,0,0,0,0,0,0,0,0,0,0,1,
scooby_state_417de1|28|16 1,0,0,0,0,0,0,0,0,0,0,0,0,0,0,1,
scooby_state_419289|22|16 1,0,0,0,0,0,0,0,0,0,0,0,0,0,0,1,
scooby_state_4190c1|55|5 1,0,0,0,0,0,0,0,0,0,0,0,0,0,0,1,

scooby_action_0_deg_dist 0,277,0,0,0,0,0,0,0,0,0,0,0,0,0,0,
scooby_action_12_deg_dist 0,265,0,0,0,0,0,0,0,0,0,0,0,0,0,0,
scooby_action_3_deg_dist 0,286,0,0,0,0,0,0,0,0,0,0,0,0,0,0,
scooby_action_32_deg_dist 0,224,0,0,0,0,0,0,0,0,0,0,0,0,0,0,
scooby_action_5_deg_dist 0,249,0,0,0,0,0,0,0,0,0,0,0,0,0,0,
scooby_action_4_deg_dist 0,296,0,0,0,0,0,0,0,0,0,0,0,0,0,0,
scooby_action_1_deg_dist 0,154124,102008,0,259481,0,1679306,0,0,0,0,0,0,0,0,0,
scooby_action_30_deg_dist 0,258,0,0,0,0,0,0,0,0,0,0,0,0,0,0,
scooby_action_-3_deg_dist 0,276,0,0,0,0,0,0,0,0,0,0,0,0,0,0,
scooby_action_10_deg_dist 0,304,0,0,0,0,0,0,0,0,0,0,0,0,0,0,
scooby_action_-1_deg_dist 0,272,0,0,0,0,0,0,0,0,0,0,0,0,0,0,
scooby_action_23_deg_dist 0,267,0,0,0,0,0,0,0,0,0,0,0,0,0,0,
scooby_action_-6_deg_dist 0,253,0,0,0,0,0,0,0,0,0,0,0,0,0,0,
scooby_action_11_deg_dist 0,265,0,0,0,0,0,0,0,0,0,0,0,0,0,0,
scooby_action_22_deg_dist 0,272,0,0,0,0,0,0,0,0,0,0,0,0,0,0,

scooby_track_called 2198683
scooby_track_same_address 117070
scooby_track_evict 2081357

scooby_reward_demand_called 2198683
scooby_reward_demand_pt_not_found 131649
scooby_reward_demand_pt_found 2067034
scooby_reward_demand_pt_found_total 2067034
scooby_reward_demand_has_reward 108956
scooby_reward_train_called 88536
scooby_reward_assign_reward_called 2081587
scooby_reward_no_pref 277
scooby_reward_incorrect 88259
scooby_reward_correct_untimely 1737571
scooby_reward_correct_timely 220507
scooby_reward_out_of_bounds 34973
scooby_reward_tracker_hit 0

scooby_reward_none_low_bw 277
scooby_reward_none_high_bw 0
scooby_reward_incorrect_low_bw 88259
scooby_reward_incorrect_high_bw 0
scooby_reward_correct_untimely_low_bw 1737571
scooby_reward_correct_untimely_high_bw 0
scooby_reward_correct_timely_low_bw 220507
scooby_reward_correct_timely_high_bw 0
scooby_reward_out_of_bounds_low_bw 34973
scooby_reward_out_of_bounds_high_bw 0
scooby_reward_tracker_hit_low_bw 0
scooby_reward_tracker_hit_high_bw 0

scooby_reward_1 0,87591,1737106,219567,34308,0,
scooby_reward_3 0,22,182,61,13,0,
scooby_reward_4 0,33,131,85,18,0,
scooby_reward_5 0,30,88,101,15,0,
scooby_reward_10 0,96,11,130,48,0,
scooby_reward_11 0,65,13,116,47,0,
scooby_reward_12 0,73,8,123,45,0,
scooby_reward_22 0,73,3,95,95,0,
scooby_reward_23 0,71,8,95,85,0,
scooby_reward_30 0,54,6,61,134,0,
scooby_reward_32 0,42,4,54,119,0,
scooby_reward_-1 0,19,4,2,3,0,
scooby_reward_-3 0,35,2,8,13,0,
scooby_reward_-6 0,55,5,9,30,0,
scooby_reward_0 277,0,0,0,0,0,

scooby_train_called 2081356
scooby_train_compute_reward 88536

scooby_register_fill_called 1474215
scooby_register_fill_set 228745
scooby_register_fill_set_total 228745

scooby_register_prefetch_hit_called 5796477
scooby_register_prefetch_hit_set 1719250
scooby_register_prefetch_hit_set_total 1719250

scooby_pref_issue_scooby 10189416

learning_engine_featurewise.action.called 2198683
learning_engine_featurewise.action.explore 4004
learning_engine_featurewise.action.exploit 2194679
learning_engine_featurewise.action.fallback 0
learning_engine_featurewise.action.dyn_fallback_saved_bw 0
learning_engine_featurewise.action.dyn_fallback_saved_bw_acc 321
learning_engine_featurewise.action.index_1_explored 260
learning_engine_featurewise.action.index_1_exploited 2194659
learning_engine_featurewise.action.index_3_explored 282
learning_engine_featurewise.action.index_3_exploited 4
learning_engine_featurewise.action.index_4_explored 280
learning_engine_featurewise.action.index_4_exploited 16
learning_engine_featurewise.action.index_5_explored 249
learning_engine_featurewise.action.index_5_exploited 0
learning_engine_featurewise.action.index_10_explored 304
learning_engine_featurewise.action.index_10_exploited 0
learning_engine_featurewise.action.index_11_explored 265
learning_engine_featurewise.action.index_11_exploited 0
learning_engine_featurewise.action.index_12_explored 265
learning_engine_featurewise.action.index_12_exploited 0
learning_engine_featurewise.action.index_22_explored 272
learning_engine_featurewise.action.index_22_exploited 0
learning_engine_featurewise.action.index_23_explored 267
learning_engine_featurewise.action.index_23_exploited 0
learning_engine_featurewise.action.index_30_explored 258
learning_engine_featurewise.action.index_30_exploited 0
learning_engine_featurewise.action.index_32_explored 224
learning_engine_featurewise.action.index_32_exploited 0
learning_engine_featurewise.action.index_-1_explored 272
learning_engine_featurewise.action.index_-1_exploited 0
learning_engine_featurewise.action.index_-3_explored 276
learning_engine_featurewise.action.index_-3_exploited 0
learning_engine_featurewise.action.index_-6_explored 253
learning_engine_featurewise.action.index_-6_exploited 0
learning_engine_featurewise.action.index_0_explored 277
learning_engine_featurewise.action.index_0_exploited 0
learning_engine_featurewise.learn.called 2081356
learning_engine_featurewise.learn.su_skip_PC 0
learning_engine_featurewise.learn.su_skip_PC_Delta 0

learning_engine_featurewise.q_value_histogram.bucket_0 0
learning_engine_featurewise.q_value_histogram.bucket_1 0
learning_engine_featurewise.q_value_histogram.bucket_2 0
learning_engine_featurewise.q_value_histogram.bucket_3 0
learning_engine_featurewise.q_value_histogram.bucket_4 2362
learning_engine_featurewise.q_value_histogram.bucket_5 5350
learning_engine_featurewise.q_value_histogram.bucket_6 2186967
learning_engine_featurewise.q_value_histogram.bucket_7 0

learning_engine_featurewise.consensus.total 2194679
learning_engine_featurewise.consensus.feature_align_PC 2194234
learning_engine_featurewise.consensus.feature_align_PC_ratio 1.00
learning_engine_featurewise.consensus.feature_align_PC_Delta 2194605
learning_engine_featurewise.consensus.feature_align_PC_Delta_ratio 1.00
learning_engine_featurewise.consensus.feature_align_all 2194160
learning_engine_featurewise.consensus.feature_align_all_ratio 1.00

learning_engine_featurewise.feature_PC_min_weight 1000000.00000000
learning_engine_featurewise.feature_PC_max_weight 0.00000000
learning_engine_featurewise.feature_PC_Delta_min_weight 1000000.00000000
learning_engine_featurewise.feature_PC_Delta_max_weight 0.00000000
unique_pcs 1159
unique_pages 11918
unique_trigger_pcs 315
total_bitmaps_seen 0
unique_bitmaps_seen 0

scooby_bw_epochs 285960
scooby_bw_level_0 98597
scooby_bw_level_1 80282
scooby_bw_level_2 58037
scooby_bw_level_3 49044

scooby_ipc_epochs 0
scooby_ipc_level_0 0
scooby_ipc_level_1 0
scooby_ipc_level_2 0
scooby_ipc_level_3 0

scooby_cache_acc_epochs 69681
scooby_cache_acc_level_0 9
scooby_cache_acc_level_1 9
scooby_cache_acc_level_2 80
scooby_cache_acc_level_3 677
scooby_cache_acc_level_4 2505
scooby_cache_acc_level_5 5683
scooby_cache_acc_level_6 7234
scooby_cache_acc_level_7 7311
scooby_cache_acc_level_8 7175
scooby_cache_acc_level_9 38998

Channel_0_RQ_row_buffer_hit 394912
Channel_0_RQ_row_buffer_miss 857526
Channel_0_WQ_row_buffer_hit 74538
Channel_0_WQ_row_buffer_miss 322525
Channel_0_WQ_full 1703
Channel_0_dbus_congested 956238

avg_congested_cycle 10

DRAM_bw_pochs 285960
DRAM_bw_level_0 98597
DRAM_bw_level_1 80282
DRAM_bw_level_2 58037
DRAM_bw_level_3 49044
