*************************************************
   ChampSim Multicore Out-of-Order Simulator
   Last compiled: Apr  3 2025 20:54:34
*************************************************
parsing config file: /home/zir/Pythia/config/pythia.ini

trace_0 /home/zir/ChampSim/ML-DPC/ChampSimTraces/spec17/605.mcf-s0.trace.xz
adding L2C_PREFETCHER: Scooby
Initialize SHIP state
warmup_instructions 10000000
simulation_instructions 50000000
champsim_seed 163
measure_ipc 0
measure_ipc_epoch 1000
measure_dram_bw 1
measure_dram_bw_epoch 256
measure_cache_acc 1
measure_cache_acc_epoch 1024
l1d_perfect 0
l2c_perfect 0
llc_perfect 0
l1d_semi_perfect 0
l2c_semi_perfect 0
llc_semi_perfect 0
semi_perfect_cache_page_buffer_size 64

num_cpus 1
cpu_freq 4000
dram_io_freq 2400
page_size 4096
block_size 64
max_read_per_cycle 8
max_fill_per_cycle 1
dram_channels 1
log2_dram_channels 0
dram_ranks 1
dram_banks 8
dram_rows 65536
dram_columns 128
dram_row_size 8
dram_size 4096
dram_pages 1048576

fetch_width 6
decode_width 6
exec_width 4
lq_width 2
sq_width 2
retire_width 4
scheduler_size 128
branch_mispredict_penalty 20
rob_size 256
lq_size 72
sq_size 56
num_instr_destinations_sparc 4
num_instr_destinations 2
num_instr_sources 4

itlb_set 16
itlb_way 8
itlb_rq_size 16
itlb_wq_size 16
itlb_pq_size 0
itlb_mshr_size 8
itlb_latency 1

dtlb_set 16
dtlb_way 4
dtlb_rq_size 16
dtlb_wq_size 16
dtlb_pq_size 0
dtlb_mshr_size 8
dtlb_latency 1

stlb_set 128
stlb_way 12
stlb_rq_size 32
stlb_wq_size 32
stlb_pq_size 0
stlb_mshr_size 16
stlb_latency 8

l1i_size 32
l1i_set 64
l1i_way 8
l1i_rq_size 64
l1i_wq_size 64
l1i_pq_size 8
l1i_mshr_size 8
l1i_latency 1

l1d_size 32
l1d_set 64
l1d_way 8
l1d_rq_size 64
l1d_wq_size 64
l1d_pq_size 8
l1d_mshr_size 16
l1d_latency 4

l2c_size 256
l2c_set 512
l2c_way 8
l2c_rq_size 32
l2c_wq_size 32
l2c_pq_size 32
l2c_mshr_size 32
l2c_latency 10

llc_size 2048
llc_set 2048
llc_way 16
llc_rq_size 32
llc_wq_size 32
llc_pq_size 32
llc_mshr_size 64
llc_latency 20

dram_channel_width 8
dram_wq_size 64
dram_rq_size 64
tRP 15
tRCD 15
tCAS 12.5
dram_dbus_turn_around_time 30
dram_write_high_wm 56
dram_write_low_wm 48
min_dram_writes_per_switch 16
dram_mtps 2400
dram_dbus_return_time 13

scooby_alpha 0.0065088
scooby_gamma 0.556301
scooby_epsilon 0.00182284
scooby_state_num_bits 10
scooby_max_states 1024
scooby_seed 200
scooby_policy EGreedy
scooby_learning_type SARSA
scooby_actions 1,3,4,5,10,11,12,22,23,30,32,-1,-3,-6,0,
scooby_max_actions 15
scooby_pt_size 256
scooby_st_size 64
scooby_max_pcs 5
scooby_max_offsets 5
scooby_max_deltas 5
scooby_reward_none -4
scooby_reward_incorrect -8
scooby_reward_correct_untimely 12
scooby_reward_correct_timely 20
scooby_brain_zero_init 0
scooby_enable_reward_all 0
scooby_enable_track_multiple 0
scooby_enable_reward_out_of_bounds 1
scooby_reward_out_of_bounds -12
scooby_state_type 1
scooby_state_hash_type 11
scooby_access_debug 0
scooby_print_access_debug 0
scooby_print_access_debug_pc deadbeef
scooby_print_access_debug_pc_count 0
scooby_print_trace 0
scooby_enable_state_action_stats 1
scooby_enable_reward_tracker_hit 0
scooby_reward_tracker_hit -2
scooby_enable_featurewise_engine 1
scooby_pref_degree 1
scooby_enable_dyn_degree 1
scooby_max_to_avg_q_thresholds 0.5,1,2,
scooby_dyn_degrees 1,2,4,4,
scooby_multi_deg_select_type 2
scooby_last_pref_offset_conf_thresholds 1,3,8,
scooby_dyn_degrees_type2 1,2,4,6,
scooby_action_tracker_size 2
scooby_high_bw_thresh 4
scooby_enable_hbw_reward 1
scooby_reward_hbw_correct_timely 20
scooby_reward_hbw_correct_untimely 12
scooby_reward_hbw_incorrect -14
scooby_reward_hbw_none -2
scooby_reward_hbw_out_of_bounds -12
scooby_reward_hbw_tracker_hit -2
scooby_last_pref_offset_conf_thresholds_hbw 1,3,8,
scooby_dyn_degrees_type2_hbw 1,2,4,6,

le_enable_trace 0
le_trace_interval 0
le_trace_file_name 
le_trace_state 0
le_enable_score_plot 0
le_plot_file_name 
le_plot_actions 
le_enable_action_trace 0
le_action_trace_interval 0
le_action_trace_name 
le_enable_action_plot 0

le_featurewise_active_features PC, PC_Delta
le_featurewise_num_tilings 3,3,
le_featurewise_num_tiles 128,128,
le_featurewise_hash_types 2,2,
le_featurewise_enable_tiling_offset 1,1,
le_featurewise_max_q_thresh 0.5
le_featurewise_enable_action_fallback 1
le_featurewise_feature_weights 1,1,
le_featurewise_enable_dynamic_weight 0
le_featurewise_weight_gradient 0.001
le_featurewise_disable_adjust_weight_all_features_align 1
le_featurewise_selective_update 0
le_featurewise_pooling_type 2
le_featurewise_enable_dyn_action_fallback 1
le_featurewise_bw_acc_check_level 1
le_featurewise_acc_thresh 2
le_featurewise_enable_trace 0
le_featurewise_trace_feature_type 0
le_featurewise_trace_feature 
le_featurewise_trace_interval 0
le_featurewise_trace_record_count 0
le_featurewise_trace_file_name 
le_featurewise_enable_score_plot 0
le_featurewise_plot_actions 
le_featurewise_plot_file_name 


Heartbeat CPU  0 instructions:    1000000 cycles:    1001398 heartbeat IPC: 0.99860 cumulative IPC: 0.99860 (Simulation time: 0 hr 0 min 2 sec) 
Heartbeat CPU  0 instructions:    2000000 cycles:    1971922 heartbeat IPC: 1.03037 cumulative IPC: 1.01424 (Simulation time: 0 hr 0 min 4 sec) 
Heartbeat CPU  0 instructions:    3000003 cycles:    2957546 heartbeat IPC: 1.01459 cumulative IPC: 1.01436 (Simulation time: 0 hr 0 min 5 sec) 
Heartbeat CPU  0 instructions:    4000000 cycles:    3940015 heartbeat IPC: 1.01784 cumulative IPC: 1.01522 (Simulation time: 0 hr 0 min 7 sec) 
Heartbeat CPU  0 instructions:    5000001 cycles:    4928201 heartbeat IPC: 1.01196 cumulative IPC: 1.01457 (Simulation time: 0 hr 0 min 9 sec) 
Heartbeat CPU  0 instructions:    6000001 cycles:    5908990 heartbeat IPC: 1.01959 cumulative IPC: 1.01540 (Simulation time: 0 hr 0 min 11 sec) 
Heartbeat CPU  0 instructions:    7000000 cycles:    6895343 heartbeat IPC: 1.01383 cumulative IPC: 1.01518 (Simulation time: 0 hr 0 min 12 sec) 
Heartbeat CPU  0 instructions:    8000000 cycles:    7900595 heartbeat IPC: 0.99478 cumulative IPC: 1.01258 (Simulation time: 0 hr 0 min 14 sec) 
Heartbeat CPU  0 instructions:    9000001 cycles:    8886580 heartbeat IPC: 1.01422 cumulative IPC: 1.01276 (Simulation time: 0 hr 0 min 16 sec) 
Heartbeat CPU  0 instructions:   10000001 cycles:    9868796 heartbeat IPC: 1.01811 cumulative IPC: 1.01329 (Simulation time: 0 hr 0 min 17 sec) 

Warmup complete CPU  0 instructions:   10000001 cycles:    9868796 (Simulation time: 0 hr 0 min 17 sec) 

Heartbeat CPU  0 instructions:   11000000 cycles:   13533028 heartbeat IPC: 0.27291 cumulative IPC: 0.27291 (Simulation time: 0 hr 0 min 20 sec) 
Heartbeat CPU  0 instructions:   12000000 cycles:   17291980 heartbeat IPC: 0.26603 cumulative IPC: 0.26943 (Simulation time: 0 hr 0 min 23 sec) 
Heartbeat CPU  0 instructions:   13000002 cycles:   21004824 heartbeat IPC: 0.26934 cumulative IPC: 0.26940 (Simulation time: 0 hr 0 min 25 sec) 
Heartbeat CPU  0 instructions:   14000002 cycles:   24617075 heartbeat IPC: 0.27684 cumulative IPC: 0.27122 (Simulation time: 0 hr 0 min 27 sec) 
Heartbeat CPU  0 instructions:   15000001 cycles:   28197210 heartbeat IPC: 0.27932 cumulative IPC: 0.27280 (Simulation time: 0 hr 0 min 30 sec) 
Heartbeat CPU  0 instructions:   16000000 cycles:   31782717 heartbeat IPC: 0.27890 cumulative IPC: 0.27380 (Simulation time: 0 hr 0 min 32 sec) 
Heartbeat CPU  0 instructions:   17000000 cycles:   35439282 heartbeat IPC: 0.27348 cumulative IPC: 0.27375 (Simulation time: 0 hr 0 min 35 sec) 
Heartbeat CPU  0 instructions:   18000000 cycles:   39225493 heartbeat IPC: 0.26412 cumulative IPC: 0.27251 (Simulation time: 0 hr 0 min 37 sec) 
Heartbeat CPU  0 instructions:   19000001 cycles:   42906730 heartbeat IPC: 0.27165 cumulative IPC: 0.27241 (Simulation time: 0 hr 0 min 40 sec) 
Heartbeat CPU  0 instructions:   20000000 cycles:   46516986 heartbeat IPC: 0.27699 cumulative IPC: 0.27286 (Simulation time: 0 hr 0 min 42 sec) 
Heartbeat CPU  0 instructions:   21000000 cycles:   50135786 heartbeat IPC: 0.27633 cumulative IPC: 0.27318 (Simulation time: 0 hr 0 min 45 sec) 
Heartbeat CPU  0 instructions:   22000001 cycles:   53723727 heartbeat IPC: 0.27871 cumulative IPC: 0.27363 (Simulation time: 0 hr 0 min 47 sec) 
Heartbeat CPU  0 instructions:   23000000 cycles:   57343895 heartbeat IPC: 0.27623 cumulative IPC: 0.27383 (Simulation time: 0 hr 0 min 50 sec) 
Heartbeat CPU  0 instructions:   24000000 cycles:   61130499 heartbeat IPC: 0.26409 cumulative IPC: 0.27311 (Simulation time: 0 hr 0 min 52 sec) 
Heartbeat CPU  0 instructions:   25000001 cycles:   64788309 heartbeat IPC: 0.27339 cumulative IPC: 0.27313 (Simulation time: 0 hr 0 min 55 sec) 
Heartbeat CPU  0 instructions:   26000000 cycles:   68391860 heartbeat IPC: 0.27750 cumulative IPC: 0.27340 (Simulation time: 0 hr 0 min 57 sec) 
Heartbeat CPU  0 instructions:   27000003 cycles:   72003091 heartbeat IPC: 0.27691 cumulative IPC: 0.27360 (Simulation time: 0 hr 1 min 0 sec) 
Heartbeat CPU  0 instructions:   28000000 cycles:   75647157 heartbeat IPC: 0.27442 cumulative IPC: 0.27365 (Simulation time: 0 hr 1 min 2 sec) 
Heartbeat CPU  0 instructions:   29000000 cycles:   79320594 heartbeat IPC: 0.27222 cumulative IPC: 0.27357 (Simulation time: 0 hr 1 min 5 sec) 
Heartbeat CPU  0 instructions:   30000001 cycles:   82928991 heartbeat IPC: 0.27713 cumulative IPC: 0.27375 (Simulation time: 0 hr 1 min 7 sec) 
Heartbeat CPU  0 instructions:   31000002 cycles:   86558346 heartbeat IPC: 0.27553 cumulative IPC: 0.27383 (Simulation time: 0 hr 1 min 9 sec) 
Heartbeat CPU  0 instructions:   32000000 cycles:   90200943 heartbeat IPC: 0.27453 cumulative IPC: 0.27386 (Simulation time: 0 hr 1 min 12 sec) 
Heartbeat CPU  0 instructions:   33000003 cycles:   93820297 heartbeat IPC: 0.27629 cumulative IPC: 0.27397 (Simulation time: 0 hr 1 min 14 sec) 
Heartbeat CPU  0 instructions:   34000002 cycles:   97446364 heartbeat IPC: 0.27578 cumulative IPC: 0.27404 (Simulation time: 0 hr 1 min 17 sec) 
Heartbeat CPU  0 instructions:   35000000 cycles:  101047479 heartbeat IPC: 0.27769 cumulative IPC: 0.27419 (Simulation time: 0 hr 1 min 19 sec) 
Heartbeat CPU  0 instructions:   36000000 cycles:  104701827 heartbeat IPC: 0.27365 cumulative IPC: 0.27417 (Simulation time: 0 hr 1 min 22 sec) 
Heartbeat CPU  0 instructions:   37000000 cycles:  108505129 heartbeat IPC: 0.26293 cumulative IPC: 0.27373 (Simulation time: 0 hr 1 min 24 sec) 
Heartbeat CPU  0 instructions:   38000002 cycles:  112126077 heartbeat IPC: 0.27617 cumulative IPC: 0.27382 (Simulation time: 0 hr 1 min 27 sec) 
Heartbeat CPU  0 instructions:   39000003 cycles:  115789195 heartbeat IPC: 0.27299 cumulative IPC: 0.27379 (Simulation time: 0 hr 1 min 29 sec) 
Heartbeat CPU  0 instructions:   40000000 cycles:  119456321 heartbeat IPC: 0.27269 cumulative IPC: 0.27375 (Simulation time: 0 hr 1 min 32 sec) 
Heartbeat CPU  0 instructions:   41000003 cycles:  123090394 heartbeat IPC: 0.27517 cumulative IPC: 0.27380 (Simulation time: 0 hr 1 min 34 sec) 
Heartbeat CPU  0 instructions:   42000001 cycles:  126758720 heartbeat IPC: 0.27260 cumulative IPC: 0.27376 (Simulation time: 0 hr 1 min 37 sec) 
Heartbeat CPU  0 instructions:   43000000 cycles:  130583264 heartbeat IPC: 0.26147 cumulative IPC: 0.27337 (Simulation time: 0 hr 1 min 39 sec) 
Heartbeat CPU  0 instructions:   44000000 cycles:  134238349 heartbeat IPC: 0.27359 cumulative IPC: 0.27338 (Simulation time: 0 hr 1 min 42 sec) 
Heartbeat CPU  0 instructions:   45000001 cycles:  137846833 heartbeat IPC: 0.27712 cumulative IPC: 0.27348 (Simulation time: 0 hr 1 min 44 sec) 
Heartbeat CPU  0 instructions:   46000000 cycles:  141466321 heartbeat IPC: 0.27628 cumulative IPC: 0.27356 (Simulation time: 0 hr 1 min 47 sec) 
Heartbeat CPU  0 instructions:   47000002 cycles:  145077166 heartbeat IPC: 0.27694 cumulative IPC: 0.27365 (Simulation time: 0 hr 1 min 49 sec) 
Heartbeat CPU  0 instructions:   48000000 cycles:  148721576 heartbeat IPC: 0.27439 cumulative IPC: 0.27367 (Simulation time: 0 hr 1 min 52 sec) 
Heartbeat CPU  0 instructions:   49000001 cycles:  152481665 heartbeat IPC: 0.26595 cumulative IPC: 0.27347 (Simulation time: 0 hr 1 min 54 sec) 
Heartbeat CPU  0 instructions:   50000000 cycles:  156087402 heartbeat IPC: 0.27734 cumulative IPC: 0.27356 (Simulation time: 0 hr 1 min 57 sec) 
Heartbeat CPU  0 instructions:   51000002 cycles:  159690254 heartbeat IPC: 0.27756 cumulative IPC: 0.27366 (Simulation time: 0 hr 1 min 59 sec) 
Heartbeat CPU  0 instructions:   52000000 cycles:  163306902 heartbeat IPC: 0.27650 cumulative IPC: 0.27373 (Simulation time: 0 hr 2 min 2 sec) 
Heartbeat CPU  0 instructions:   53000001 cycles:  166934274 heartbeat IPC: 0.27568 cumulative IPC: 0.27377 (Simulation time: 0 hr 2 min 4 sec) 
Heartbeat CPU  0 instructions:   54000002 cycles:  170641203 heartbeat IPC: 0.26977 cumulative IPC: 0.27368 (Simulation time: 0 hr 2 min 7 sec) 
Heartbeat CPU  0 instructions:   55000000 cycles:  174232504 heartbeat IPC: 0.27845 cumulative IPC: 0.27378 (Simulation time: 0 hr 2 min 9 sec) 
Heartbeat CPU  0 instructions:   56000000 cycles:  177818948 heartbeat IPC: 0.27883 cumulative IPC: 0.27389 (Simulation time: 0 hr 2 min 12 sec) 
Heartbeat CPU  0 instructions:   57000002 cycles:  181403018 heartbeat IPC: 0.27901 cumulative IPC: 0.27400 (Simulation time: 0 hr 2 min 14 sec) 
Heartbeat CPU  0 instructions:   58000000 cycles:  185171341 heartbeat IPC: 0.26537 cumulative IPC: 0.27381 (Simulation time: 0 hr 2 min 17 sec) 
Heartbeat CPU  0 instructions:   59000001 cycles:  188778183 heartbeat IPC: 0.27725 cumulative IPC: 0.27388 (Simulation time: 0 hr 2 min 19 sec) 
Heartbeat CPU  0 instructions:   60000000 cycles:  192358437 heartbeat IPC: 0.27931 cumulative IPC: 0.27399 (Simulation time: 0 hr 2 min 22 sec) 
Finished CPU 0 instructions: 50000000 cycles: 182489649 cumulative IPC: 0.27399 (Simulation time: 0 hr 2 min 22 sec) 

ChampSim completed all CPUs

[ROI Statistics]
Core_0_instructions 50000000
Core_0_cycles 182489649
Core_0_IPC 0.27399

Core_0_branch_prediction_accuracy 90.98497
Core_0_branch_MPKI 18.28708
Core_0_average_ROB_occupancy_at_mispredict 51.47813

Core_0_L1D_total_access 18406862
Core_0_L1D_total_hit 15676058
Core_0_L1D_total_miss 2730804
Core_0_L1D_loads 13553443
Core_0_L1D_load_hit 11006297
Core_0_L1D_load_miss 2547146
Core_0_L1D_RFOs 4853419
Core_0_L1D_RFO_hit 4669761
Core_0_L1D_RFO_miss 183658
Core_0_L1D_prefetches 0
Core_0_L1D_prefetch_hit 0
Core_0_L1D_prefetch_miss 0
Core_0_L1D_writebacks 0
Core_0_L1D_writeback_hit 0
Core_0_L1D_writeback_miss 0
Core_0_L1D_prefetch_requested 0
Core_0_L1D_prefetch_dropped 0
Core_0_L1D_prefetch_issued 0
Core_0_L1D_prefetch_filled 0
Core_0_L1D_prefetch_useful 0
Core_0_L1D_prefetch_useless 0
Core_0_L1D_prefetch_late 0
Core_0_L1D_average_miss_latency 52.10993

Core_0_L1D_rq_access 17041421
Core_0_L1D_rq_forward 0
Core_0_L1D_rq_merged 3383962
Core_0_L1D_rq_to_cache 13641426
Core_0_L1D_rq_full 0

Core_0_L1D_wq_access 5189939
Core_0_L1D_wq_forward 16033
Core_0_L1D_wq_merged 13519
Core_0_L1D_wq_to_cache 5176420
Core_0_L1D_wq_full 0

Core_0_L1D_pq_access 0
Core_0_L1D_pq_forward 0
Core_0_L1D_pq_merged 0
Core_0_L1D_pq_to_cache 0
Core_0_L1D_pq_full 0

Core_0_L1D_acc_epochs 186256
Core_0_L1D_acc_level_0 186256
Core_0_L1D_acc_level_1 0
Core_0_L1D_acc_level_2 0
Core_0_L1D_acc_level_3 0
Core_0_L1D_acc_level_4 0
Core_0_L1D_acc_level_5 0
Core_0_L1D_acc_level_6 0
Core_0_L1D_acc_level_7 0
Core_0_L1D_acc_level_8 0
Core_0_L1D_acc_level_9 0

Core_0_L1I_total_access 9630955
Core_0_L1I_total_hit 9630955
Core_0_L1I_total_miss 0
Core_0_L1I_loads 9630955
Core_0_L1I_load_hit 9630955
Core_0_L1I_load_miss 0
Core_0_L1I_RFOs 0
Core_0_L1I_RFO_hit 0
Core_0_L1I_RFO_miss 0
Core_0_L1I_prefetches 0
Core_0_L1I_prefetch_hit 0
Core_0_L1I_prefetch_miss 0
Core_0_L1I_writebacks 0
Core_0_L1I_writeback_hit 0
Core_0_L1I_writeback_miss 0
Core_0_L1I_prefetch_requested 0
Core_0_L1I_prefetch_dropped 0
Core_0_L1I_prefetch_issued 0
Core_0_L1I_prefetch_filled 0
Core_0_L1I_prefetch_useful 0
Core_0_L1I_prefetch_useless 0
Core_0_L1I_prefetch_late 0
Core_0_L1I_average_miss_latency -nan

Core_0_L1I_rq_access 49999833
Core_0_L1I_rq_forward 0
Core_0_L1I_rq_merged 40368878
Core_0_L1I_rq_to_cache 9630955
Core_0_L1I_rq_full 0

Core_0_L1I_wq_access 0
Core_0_L1I_wq_forward 0
Core_0_L1I_wq_merged 0
Core_0_L1I_wq_to_cache 0
Core_0_L1I_wq_full 0

Core_0_L1I_pq_access 0
Core_0_L1I_pq_forward 0
Core_0_L1I_pq_merged 0
Core_0_L1I_pq_to_cache 0
Core_0_L1I_pq_full 0

Core_0_L1I_acc_epochs 186256
Core_0_L1I_acc_level_0 186256
Core_0_L1I_acc_level_1 0
Core_0_L1I_acc_level_2 0
Core_0_L1I_acc_level_3 0
Core_0_L1I_acc_level_4 0
Core_0_L1I_acc_level_5 0
Core_0_L1I_acc_level_6 0
Core_0_L1I_acc_level_7 0
Core_0_L1I_acc_level_8 0
Core_0_L1I_acc_level_9 0

Core_0_L2C_total_access 8161763
Core_0_L2C_total_hit 4499947
Core_0_L2C_total_miss 3661816
Core_0_L2C_loads 2547132
Core_0_L2C_load_hit 1125297
Core_0_L2C_load_miss 1421835
Core_0_L2C_RFOs 183650
Core_0_L2C_RFO_hit 34490
Core_0_L2C_RFO_miss 149160
Core_0_L2C_prefetches 5166843
Core_0_L2C_prefetch_hit 3077269
Core_0_L2C_prefetch_miss 2089574
Core_0_L2C_writebacks 264138
Core_0_L2C_writeback_hit 262891
Core_0_L2C_writeback_miss 1247
Core_0_L2C_prefetch_requested 6978194
Core_0_L2C_prefetch_dropped 8149
Core_0_L2C_prefetch_issued 6970045
Core_0_L2C_prefetch_filled 2476373
Core_0_L2C_prefetch_useful 918212
Core_0_L2C_prefetch_useless 1556405
Core_0_L2C_prefetch_late 15792
Core_0_L2C_average_miss_latency 82.14268

Core_0_L2C_rq_access 2730804
Core_0_L2C_rq_forward 0
Core_0_L2C_rq_merged 0
Core_0_L2C_rq_to_cache 2730782
Core_0_L2C_rq_full 0

Core_0_L2C_wq_access 264138
Core_0_L2C_wq_forward 25
Core_0_L2C_wq_merged 0
Core_0_L2C_wq_to_cache 264138
Core_0_L2C_wq_full 0

Core_0_L2C_pq_access 6970045
Core_0_L2C_pq_forward 0
Core_0_L2C_pq_merged 748163
Core_0_L2C_pq_to_cache 6221879
Core_0_L2C_pq_full 0

Core_0_L2C_acc_epochs 186256
Core_0_L2C_acc_level_0 59110
Core_0_L2C_acc_level_1 16537
Core_0_L2C_acc_level_2 17362
Core_0_L2C_acc_level_3 38838
Core_0_L2C_acc_level_4 26866
Core_0_L2C_acc_level_5 15515
Core_0_L2C_acc_level_6 4790
Core_0_L2C_acc_level_7 2398
Core_0_L2C_acc_level_8 1239
Core_0_L2C_acc_level_9 3601

Core_0_LLC_total_access 3875459
Core_0_LLC_total_hit 2730929
Core_0_LLC_total_miss 1144530
Core_0_LLC_loads 1406306
Core_0_LLC_load_hit 1147058
Core_0_LLC_load_miss 259248
Core_0_LLC_RFOs 149158
Core_0_LLC_RFO_hit 148796
Core_0_LLC_RFO_miss 362
Core_0_LLC_prefetches 2105098
Core_0_LLC_prefetch_hit 1220389
Core_0_LLC_prefetch_miss 884709
Core_0_LLC_writebacks 214897
Core_0_LLC_writeback_hit 214686
Core_0_LLC_writeback_miss 211
Core_0_LLC_prefetch_requested 0
Core_0_LLC_prefetch_dropped 0
Core_0_LLC_prefetch_issued 0
Core_0_LLC_prefetch_filled 1067054
Core_0_LLC_prefetch_useful 28811
Core_0_LLC_prefetch_useless 1024085
Core_0_LLC_prefetch_late 0
Core_0_LLC_average_miss_latency 166.78935

Core_0_LLC_rq_access 1555468
Core_0_LLC_rq_forward 0
Core_0_LLC_rq_merged 0
Core_0_LLC_rq_to_cache 1555464
Core_0_LLC_rq_full 0

Core_0_LLC_wq_access 214897
Core_0_LLC_wq_forward 7
Core_0_LLC_wq_merged 0
Core_0_LLC_wq_to_cache 214897
Core_0_LLC_wq_full 0

Core_0_LLC_pq_access 2492165
Core_0_LLC_pq_forward 0
Core_0_LLC_pq_merged 0
Core_0_LLC_pq_to_cache 2492162
Core_0_LLC_pq_full 0

Core_0_LLC_acc_epochs 187851
Core_0_LLC_acc_level_0 163599
Core_0_LLC_acc_level_1 9259
Core_0_LLC_acc_level_2 6214
Core_0_LLC_acc_level_3 1768
Core_0_LLC_acc_level_4 555
Core_0_LLC_acc_level_5 3996
Core_0_LLC_acc_level_6 596
Core_0_LLC_acc_level_7 489
Core_0_LLC_acc_level_8 182
Core_0_LLC_acc_level_9 1193

Core_0_major_page_fault 0
Core_0_minor_page_fault 14828

scooby_st_lookup 3040974
scooby_st_hit 1685098
scooby_st_evict 1355812
scooby_st_insert 1355876
scooby_st_streaming 0

scooby_predict_called 3040974
scooby_predict_out_of_bounds 91918
scooby_predict_action_1 1902148
scooby_predict_issue_action_1 1876002
scooby_predict_hit_action_1 26146
scooby_predict_out_of_bounds_action_1 28331
scooby_predict_action_3 831968
scooby_predict_issue_action_3 829032
scooby_predict_hit_action_3 2936
scooby_predict_out_of_bounds_action_3 41096
scooby_predict_action_4 10057
scooby_predict_issue_action_4 9096
scooby_predict_hit_action_4 961
scooby_predict_out_of_bounds_action_4 670
scooby_predict_action_5 19679
scooby_predict_issue_action_5 17764
scooby_predict_hit_action_5 1915
scooby_predict_out_of_bounds_action_5 1700
scooby_predict_action_10 6488
scooby_predict_issue_action_10 6164
scooby_predict_hit_action_10 324
scooby_predict_out_of_bounds_action_10 1422
scooby_predict_action_11 6438
scooby_predict_issue_action_11 6117
scooby_predict_hit_action_11 321
scooby_predict_out_of_bounds_action_11 1427
scooby_predict_action_12 6324
scooby_predict_issue_action_12 5965
scooby_predict_hit_action_12 359
scooby_predict_out_of_bounds_action_12 1604
scooby_predict_action_22 4403
scooby_predict_issue_action_22 4159
scooby_predict_hit_action_22 244
scooby_predict_out_of_bounds_action_22 2551
scooby_predict_action_23 4459
scooby_predict_issue_action_23 4227
scooby_predict_hit_action_23 232
scooby_predict_out_of_bounds_action_23 2671
scooby_predict_action_30 5575
scooby_predict_issue_action_30 5355
scooby_predict_hit_action_30 220
scooby_predict_out_of_bounds_action_30 5029
scooby_predict_action_32 3185
scooby_predict_issue_action_32 2959
scooby_predict_hit_action_32 226
scooby_predict_out_of_bounds_action_32 3304
scooby_predict_action_-1 66841
scooby_predict_issue_action_-1 62465
scooby_predict_hit_action_-1 4376
scooby_predict_out_of_bounds_action_-1 1062
scooby_predict_action_-3 8544
scooby_predict_issue_action_-3 7930
scooby_predict_hit_action_-3 614
scooby_predict_out_of_bounds_action_-3 425
scooby_predict_action_-6 7683
scooby_predict_issue_action_-6 7170
scooby_predict_hit_action_-6 513
scooby_predict_out_of_bounds_action_-6 626
scooby_predict_action_0 65264
scooby_predict_issue_action_0 0
scooby_predict_hit_action_0 0
scooby_predict_out_of_bounds_action_0 0
scooby_predict_multi_deg_called 1095347
scooby_predict_predicted 6978194
scooby_predict_multi_deg 4133789
scooby_predict_multi_deg_2 1046384
scooby_predict_multi_deg_3 908088
scooby_predict_multi_deg_4 864363
scooby_predict_multi_deg_5 679151
scooby_predict_multi_deg_6 635803
scooby_predict_multi_deg_7 0
scooby_predict_multi_deg_8 0
scooby_predict_multi_deg_9 0
scooby_predict_multi_deg_10 0
scooby_predict_multi_deg_11 0
scooby_predict_multi_deg_12 0
scooby_predict_multi_deg_13 0
scooby_predict_multi_deg_14 0
scooby_predict_multi_deg_15 0
scooby_predict_multi_deg_16 0

scooby_selected_deg_1 1749058
scooby_selected_deg_2 96352
scooby_selected_deg_3 0
scooby_selected_deg_4 147072
scooby_selected_deg_5 0
scooby_selected_deg_6 851923
scooby_selected_deg_7 0
scooby_selected_deg_8 0
scooby_selected_deg_9 0
scooby_selected_deg_10 0
scooby_selected_deg_11 0
scooby_selected_deg_12 0
scooby_selected_deg_13 0
scooby_selected_deg_14 0
scooby_selected_deg_15 0
scooby_selected_deg_16 0

scooby_state_4049e5|31|0 11647,2,3,2,1,2,6,4,4,3,5,5,2,2,507,12195,
scooby_state_4049e5|7|0 11349,2,3,5,5,4,9,4,2,4,0,4,3,5,449,11848,
scooby_state_4049cc|0|0 1,11663,2,3,1,0,3,1,0,69,0,0,1,3,3,11750,
scooby_state_4049e5|19|0 11072,5,3,1,1,1,6,5,2,4,3,3,2,3,514,11625,
scooby_state_4049e5|9|0 10923,7,1,9,3,3,0,1,2,4,2,5,4,1,472,11437,
scooby_state_4049e5|10|0 10760,2,5,1,5,2,1,2,2,4,5,3,4,5,465,11266,
scooby_state_4049e5|12|0 10789,2,2,3,1,4,4,4,1,4,2,1,0,3,443,11263,
scooby_state_4049e5|36|0 10622,1,2,5,2,0,6,3,2,5,3,1,2,1,456,11111,
scooby_state_4049e5|26|0 10521,2,6,1,3,3,3,3,3,2,3,0,3,3,439,10995,
scooby_state_4049e5|25|0 10481,3,5,4,3,2,2,1,6,3,1,3,2,1,407,10924,
scooby_state_4049e5|0|0 10318,0,2,2,1,5,2,5,3,4,3,0,2,1,473,10821,
scooby_state_4049e5|3|0 10250,0,1,0,0,2,4,4,2,1,5,0,2,2,445,10718,
scooby_state_4049e5|13|0 10075,5,1,0,2,3,4,1,1,3,1,2,3,4,522,10627,
scooby_state_4049de|17|0 10129,2,6,6,3,3,6,7,1,2,6,7,4,6,393,10581,
scooby_state_4049de|16|0 10127,1,1,2,5,4,3,2,0,5,3,10,4,6,387,10560,
scooby_state_4049e5|22|0 10078,4,3,2,6,4,2,2,4,0,2,1,2,3,405,10518,
scooby_state_4049e5|5|0 10047,3,3,1,0,2,3,7,3,2,4,4,4,2,423,10508,
scooby_state_4049de|22|0 10023,3,4,5,3,4,3,4,6,5,5,7,5,8,378,10463,
scooby_state_4049e5|24|0 9884,1,2,6,6,7,3,1,3,3,3,4,5,3,446,10377,
scooby_state_4049e5|14|0 9876,3,5,4,6,1,4,1,1,4,3,6,1,7,452,10374,
scooby_state_4049e5|2|0 9854,2,1,2,5,3,2,3,1,3,1,2,4,5,484,10372,
scooby_state_4049de|39|0 9931,5,3,5,5,4,4,3,1,5,4,7,5,4,359,10345,
scooby_state_4049e5|32|0 9865,5,5,4,1,2,1,1,2,2,3,3,0,3,425,10322,
scooby_state_4049de|40|0 9832,2,3,4,5,5,0,4,1,4,3,7,4,4,398,10276,
scooby_state_4049e5|18|0 9884,2,1,0,1,3,1,6,1,2,2,2,5,2,344,10256,
scooby_state_4049de|13|0 9773,4,4,3,3,4,3,7,3,3,3,6,4,6,370,10196,
scooby_state_4049de|45|0 9732,6,4,3,4,7,3,1,2,4,3,11,3,6,391,10180,
scooby_state_4049e5|53|0 9677,2,2,1,2,4,4,1,1,0,5,2,1,5,395,10102,
scooby_state_4049de|41|0 9653,0,5,1,2,2,4,5,1,4,1,3,4,2,370,10057,
scooby_state_4049e5|17|0 9641,4,0,1,0,1,3,3,3,3,6,1,0,1,345,10012,
scooby_state_4049de|44|0 9514,3,7,2,3,2,5,2,3,1,2,11,3,4,366,9928,
scooby_state_4049de|4|0 9535,4,4,3,4,3,2,1,6,4,1,10,6,1,342,9926,
scooby_state_4049e5|43|0 9478,1,4,4,3,3,2,1,1,1,5,2,1,1,377,9884,
scooby_state_4049de|7|0 9389,5,5,6,7,7,1,3,7,5,5,9,4,3,400,9856,
scooby_state_4049de|25|0 9398,0,2,4,6,4,3,5,2,5,4,8,2,4,401,9848,
scooby_state_4049de|51|0 9405,7,2,5,8,3,3,7,5,3,3,12,3,6,374,9846,
scooby_state_4049de|58|0 9432,3,3,1,2,3,2,3,4,1,4,9,4,6,368,9845,
scooby_state_4049e5|60|0 9386,4,2,4,3,3,2,1,2,2,2,1,1,2,397,9812,
scooby_state_4049de|11|0 9359,5,6,6,5,4,4,4,8,2,3,10,6,6,358,9786,
scooby_state_4049de|26|0 9353,5,3,4,1,4,4,4,4,3,3,6,3,2,370,9769,
scooby_state_4049e5|41|0 9358,5,2,3,5,1,3,3,2,1,4,4,1,2,371,9765,
scooby_state_4049de|33|0 9345,5,2,6,3,3,1,2,1,2,5,7,3,6,373,9764,
scooby_state_4049e5|35|0 9397,3,5,2,0,4,5,1,3,2,4,2,0,1,333,9762,
scooby_state_4049de|6|0 9310,4,8,4,5,3,3,7,6,3,3,4,1,5,380,9746,
scooby_state_4049e5|23|0 9295,2,1,2,1,3,1,0,0,4,1,1,2,3,418,9734,
scooby_state_4049e5|29|0 9255,3,3,2,0,4,2,0,4,2,2,3,5,8,437,9730,
scooby_state_4049de|9|0 9248,7,2,4,4,3,5,4,3,3,6,10,1,3,363,9666,
scooby_state_4049de|34|0 9172,1,4,4,7,4,5,6,6,3,4,13,5,3,394,9631,
scooby_state_4049e5|42|0 9215,3,2,3,3,4,3,5,0,2,1,2,5,2,373,9623,
scooby_state_4049de|15|0 9133,5,4,1,2,7,5,2,5,0,3,7,3,5,384,9566,
scooby_state_4049de|14|0 9118,3,5,3,5,5,1,0,1,1,4,11,3,3,394,9557,
scooby_state_4049de|12|0 9149,3,4,2,6,0,5,0,5,3,0,7,1,3,366,9554,
scooby_state_4049e5|15|0 9148,2,3,5,5,2,4,4,3,4,1,1,4,4,363,9553,
scooby_state_4049de|8|0 9122,2,4,0,1,1,6,2,6,4,1,7,5,4,372,9537,
scooby_state_4049de|52|0 9116,7,3,6,6,2,4,1,3,3,4,12,1,2,348,9518,
scooby_state_4049de|0|0 9115,5,5,2,2,2,0,2,1,2,3,9,4,5,355,9512,
scooby_state_4049de|54|0 9095,5,3,3,8,0,5,2,2,3,3,10,3,3,364,9509,
scooby_state_4049de|1|0 9066,1,4,4,7,3,2,2,3,3,8,10,0,6,360,9479,
scooby_state_4049cc|1|1 1,9381,2,2,3,2,0,2,1,54,1,0,1,1,1,9452,
scooby_state_4049de|38|0 9034,4,3,4,2,6,1,7,7,5,6,8,4,2,344,9437,
scooby_state_4049de|50|0 9066,5,7,1,1,9,2,1,2,2,2,6,4,5,323,9436,
scooby_state_4049e5|62|0 9044,1,2,5,4,2,3,2,3,1,5,4,0,4,330,9410,
scooby_state_4049de|48|0 8988,5,4,6,3,4,1,1,3,6,4,6,4,5,364,9404,
scooby_state_4049e5|27|0 8959,1,5,1,2,4,3,2,4,3,3,2,1,1,406,9397,
scooby_state_4049e5|59|0 8995,1,4,3,2,3,3,1,2,1,3,5,3,2,359,9387,
scooby_state_4049de|31|0 8979,1,3,2,3,4,1,3,4,7,2,7,4,4,362,9386,
scooby_state_4049e5|28|0 8977,0,2,1,3,2,5,4,2,3,3,1,3,3,371,9380,
scooby_state_4049de|3|0 8900,2,4,2,5,1,5,1,3,3,2,11,7,5,393,9344,
scooby_state_4049de|43|0 8916,5,3,2,1,4,1,4,3,1,6,5,3,3,383,9340,
scooby_state_4049de|36|0 8917,5,4,11,3,4,1,7,2,7,4,12,8,3,338,9326,
scooby_state_4049de|60|0 8921,6,2,3,7,3,2,1,5,0,1,4,5,2,361,9323,
scooby_state_4049e5|39|0 8906,2,2,5,4,3,3,1,0,3,4,2,3,3,381,9322,
scooby_state_4049e5|34|0 8883,4,1,4,3,3,2,3,4,1,2,2,3,4,397,9316,
scooby_state_4049de|56|0 8865,4,3,6,7,2,6,1,4,3,0,6,4,2,358,9271,
scooby_state_4049e5|58|0 8835,2,5,1,3,2,0,2,1,2,3,2,2,0,384,9244,
scooby_state_4049de|63|0 8759,3,1,6,7,3,5,3,4,4,3,5,3,2,400,9208,
scooby_state_4049de|42|0 8737,3,2,3,4,3,4,3,5,3,1,9,2,3,389,9171,
scooby_state_4049e5|40|0 8760,0,1,0,3,3,2,3,1,2,1,4,4,4,379,9167,
scooby_state_4049de|10|0 8793,6,2,3,3,5,5,3,4,3,6,3,2,2,322,9162,
scooby_state_4049e5|38|0 8780,6,4,1,2,2,2,1,1,5,4,3,2,3,344,9160,
scooby_state_4049de|62|0 8727,4,3,6,3,5,4,3,4,5,5,6,4,4,334,9117,
scooby_state_4049de|5|0 8683,11,4,5,1,4,1,2,3,3,2,5,3,4,369,9100,
scooby_state_4049de|32|0 8677,4,4,5,3,5,1,4,3,0,5,4,3,4,333,9055,
scooby_state_4049de|20|0 8608,4,5,5,3,3,1,2,4,0,2,11,2,5,368,9023,
scooby_state_4049de|37|0 8638,5,2,3,1,3,4,3,5,3,2,3,2,1,341,9016,
scooby_state_4049de|59|0 8602,4,7,2,5,1,1,0,1,2,1,4,3,3,380,9016,
scooby_state_4049de|2|0 8608,1,6,10,4,2,2,3,1,2,5,10,3,2,354,9013,
scooby_state_4049de|35|0 8638,5,6,4,3,1,0,7,1,4,4,5,2,4,320,9004,
scooby_state_4049e5|46|0 8572,4,1,3,2,3,3,1,0,2,1,3,2,5,399,9001,
scooby_state_4049de|57|0 8607,4,0,4,5,3,2,3,2,1,2,11,3,2,349,8998,
scooby_state_4049e5|21|0 8634,2,3,0,2,4,7,2,0,2,2,4,5,4,322,8993,
scooby_state_4049de|55|0 8599,3,1,4,4,4,2,4,2,2,0,8,0,1,356,8990,
scooby_state_4049e5|52|0 8569,2,6,1,5,3,3,1,3,2,4,1,1,4,377,8982,
scooby_state_4049e5|37|0 8598,3,2,1,0,0,2,3,0,3,1,2,2,3,323,8943,
scooby_state_4049de|24|0 8549,0,6,5,0,5,4,3,2,0,1,7,0,2,352,8936,
scooby_state_4049de|61|0 8507,2,4,5,6,3,1,4,2,3,2,2,3,2,348,8894,
scooby_state_4049de|53|0 8473,3,3,4,4,4,4,3,8,2,2,8,4,5,338,8865,
scooby_state_4049e5|4|0 8430,5,6,0,3,1,2,1,1,1,1,2,1,2,372,8828,
scooby_state_4049cc|17|1 3,8762,1,1,2,1,1,1,0,50,1,2,0,0,0,8825,
scooby_state_4049cc|37|1 1,8756,3,2,0,3,1,1,1,51,1,2,2,0,1,8825,
scooby_state_4049cc|29|1 2,8765,1,1,1,2,1,1,0,45,1,1,1,2,0,8824,
scooby_state_4049cc|57|1 1,8766,0,0,0,3,0,1,1,48,0,1,3,0,0,8824,
scooby_state_4049cc|53|1 1,8758,2,0,1,1,1,2,2,47,3,1,1,0,3,8823,
scooby_state_4049cc|45|1 2,8762,0,0,1,1,0,2,1,46,4,1,0,3,0,8823,
scooby_state_4049cc|25|1 2,8758,4,0,0,1,1,1,0,47,4,0,2,1,2,8823,
scooby_state_4049cc|9|1 1,8753,1,2,1,3,0,3,1,47,5,1,3,1,1,8823,
scooby_state_4049cc|41|1 1,8764,2,0,1,4,1,0,0,47,1,1,0,1,0,8823,
scooby_state_4049cc|13|1 5,8752,2,1,1,2,3,0,3,46,2,4,0,2,0,8823,
scooby_state_4049cc|33|1 2,8754,1,1,0,0,3,2,1,47,3,2,2,1,3,8822,
scooby_state_4049cc|61|1 1,8758,1,2,1,0,0,2,0,48,1,1,1,3,2,8821,
scooby_state_4049cc|49|1 1,8756,3,0,1,1,0,1,1,50,3,1,0,0,1,8819,
scooby_state_4049cc|21|1 0,8755,1,2,2,1,1,0,2,47,3,2,0,1,2,8819,
scooby_state_4049cc|27|1 0,8761,1,1,0,1,1,3,1,45,2,0,0,0,0,8816,
scooby_state_4049cc|26|1 0,8756,0,2,0,0,1,1,0,48,4,2,1,0,0,8815,
scooby_state_4049cc|38|1 0,8751,0,1,3,1,0,2,1,48,5,0,0,1,2,8815,
scooby_state_4049cc|58|1 0,8760,3,0,0,0,1,1,1,46,0,1,0,0,1,8814,
scooby_state_4049cc|54|1 1,8749,3,2,0,0,1,3,0,47,2,1,3,0,2,8814,
scooby_state_4049cc|18|1 1,8752,0,1,4,2,0,1,0,49,1,0,1,1,1,8814,
scooby_state_4049cc|55|1 0,8754,0,1,3,0,0,2,1,47,1,0,1,3,0,8813,
scooby_state_4049cc|35|1 1,8755,1,1,0,2,0,0,0,46,2,2,0,2,1,8813,
scooby_state_4049cc|19|1 0,8752,2,1,1,1,3,1,0,47,2,1,1,0,1,8813,
scooby_state_4049cc|34|1 2,8750,1,1,1,0,2,0,1,46,3,4,0,2,0,8813,
scooby_state_4049cc|39|1 0,8755,1,1,0,1,0,1,1,48,1,0,1,2,1,8813,
scooby_state_4049cc|46|1 0,8753,1,0,1,0,1,1,0,47,3,1,1,2,1,8812,
scooby_state_4049cc|22|1 3,8744,3,0,1,2,3,1,1,48,1,1,0,3,1,8812,
scooby_state_4049cc|14|1 2,8753,3,1,1,0,0,0,1,46,2,0,1,1,1,8812,
scooby_state_4049cc|42|1 0,8748,1,2,0,3,1,0,2,49,1,1,1,1,2,8812,
scooby_state_4049cc|11|1 1,8749,0,1,2,1,3,2,1,45,2,2,0,3,0,8812,
scooby_state_4049cc|43|1 0,8754,1,1,0,1,0,1,2,47,2,0,0,3,0,8812,
scooby_state_4049cc|47|1 1,8753,1,1,2,0,0,1,1,46,3,0,2,0,1,8812,
scooby_state_4049cc|63|1 1,8740,6,1,0,1,2,1,4,49,2,0,1,1,3,8812,
scooby_state_4049cc|15|1 0,8751,0,1,1,0,1,2,3,48,1,1,1,0,1,8811,
scooby_state_4049cc|31|1 0,8752,0,0,2,1,0,1,0,45,4,1,1,1,3,8811,
scooby_state_4049cc|62|1 0,8751,2,0,1,0,1,2,1,48,0,0,0,3,2,8811,
scooby_state_4049cc|23|1 3,8752,0,0,0,2,0,2,1,46,0,0,1,0,3,8810,
scooby_state_4049cc|59|1 0,8754,1,0,3,1,0,2,2,45,1,0,1,0,0,8810,
scooby_state_4049cc|51|1 0,8754,1,0,0,0,2,0,1,47,2,2,0,1,0,8810,
scooby_state_4049cc|50|1 0,8745,0,0,2,1,0,2,4,48,2,2,2,1,1,8810,
scooby_state_4049cc|10|1 1,8748,0,2,3,1,0,2,1,48,1,0,1,1,0,8809,
scooby_state_4049cc|30|1 1,8746,0,3,2,0,3,2,1,44,4,2,1,0,0,8809,
scooby_state_4049cc|7|1 1,8745,0,2,1,2,2,2,0,47,2,0,2,2,0,8808,
scooby_state_4049cc|6|1 0,8744,1,2,1,2,1,0,3,45,2,0,3,2,1,8807,
scooby_state_4049cc|36|1 0,8735,1,2,1,2,2,1,1,46,3,2,3,1,3,8803,
scooby_state_4049cc|12|1 0,8736,2,3,2,2,1,3,0,45,1,4,1,1,1,8802,
scooby_state_4049cc|56|1 1,8743,2,0,1,0,1,1,0,49,0,0,0,2,1,8801,
scooby_state_4049cc|16|1 2,8737,2,1,1,1,0,0,0,50,1,0,1,2,3,8801,
scooby_state_4049cc|28|1 0,8740,1,1,1,2,0,0,2,47,3,0,1,2,1,8801,
scooby_state_4049cc|20|1 0,8740,0,2,0,0,3,1,4,46,3,0,0,0,1,8800,
scooby_state_4049cc|32|1 1,8736,0,1,4,0,0,1,3,45,3,2,1,2,1,8800,
scooby_state_4049cc|8|1 1,8735,1,2,2,1,1,1,0,47,2,1,3,0,3,8800,
scooby_state_4049cc|52|1 1,8738,0,1,1,0,3,2,2,46,1,1,0,3,0,8799,
scooby_state_4049cc|24|1 0,8737,1,2,0,1,1,1,2,46,1,2,1,1,3,8799,
scooby_state_4049cc|40|1 3,8741,2,0,1,0,0,1,0,46,2,1,2,0,0,8799,
scooby_state_4049cc|48|1 0,8739,0,1,2,3,0,0,1,46,2,0,2,1,2,8799,
scooby_state_4049cc|60|1 0,8743,0,0,0,3,0,0,1,46,1,2,0,2,1,8799,
scooby_state_4049cc|44|1 0,8741,0,0,0,0,0,0,2,46,4,1,1,3,0,8798,
scooby_state_4049cc|5|1 0,8711,0,2,3,2,3,4,1,49,0,0,1,0,3,8779,
scooby_state_4049de|19|0 8332,1,5,5,2,2,6,3,1,4,3,1,2,1,372,8740,
scooby_state_4049e5|48|0 8340,0,4,2,4,3,4,7,0,1,3,2,3,3,343,8719,
scooby_state_4049de|18|0 8304,5,2,2,5,3,3,3,0,2,3,2,1,7,374,8716,
scooby_state_4049de|28|0 8358,3,2,4,2,3,2,4,7,2,2,5,3,4,308,8709,
scooby_state_4049e5|51|0 8277,5,5,0,1,4,5,2,1,0,2,0,5,6,329,8642,
scooby_state_4049de|49|0 8282,7,1,0,1,3,4,6,3,1,3,4,6,3,291,8615,
scooby_state_4049de|23|0 8217,6,1,1,2,1,3,6,0,2,1,5,1,4,332,8582,
scooby_state_4049de|21|0 8191,7,2,5,4,3,4,3,5,0,4,9,1,2,326,8566,
scooby_state_4049cc|4|1 0,8462,0,0,1,1,1,1,2,47,0,2,1,0,0,8518,
scooby_state_4049e5|45|0 8118,2,3,1,1,3,7,0,2,3,2,3,6,1,319,8471,
scooby_state_4049de|30|0 8093,4,4,3,2,4,1,3,4,3,0,6,2,2,331,8462,
scooby_state_4049e5|61|0 8093,2,2,4,0,3,2,1,2,2,2,3,3,3,319,8441,
scooby_state_4049e5|30|0 8023,2,2,3,2,1,1,3,2,1,6,4,3,2,328,8383,
scooby_state_4049de|27|0 7971,4,3,7,2,3,3,1,3,5,1,9,5,2,350,8369,
scooby_state_4049e5|47|0 7954,5,4,1,1,2,0,1,5,2,5,5,4,3,363,8355,
scooby_state_4049cc|2|1 1,8250,1,1,2,1,1,1,0,46,1,1,0,0,1,8307,
scooby_state_4049de|29|0 7878,6,1,5,3,6,4,4,1,3,1,10,1,3,318,8244,
scooby_state_4049de|47|0 7905,3,1,2,3,4,0,3,2,2,1,6,6,2,293,8233,
scooby_state_4049e5|1|0 7796,2,3,2,1,1,5,0,4,3,2,6,4,2,380,8211,
scooby_state_4049de|46|0 7806,1,2,0,5,3,3,5,3,3,1,5,1,3,321,8162,
scooby_state_4049e5|6|0 7688,2,3,2,1,4,1,2,3,4,6,2,2,1,409,8130,
scooby_state_4049cc|3|1 1,7999,1,1,3,1,1,2,1,47,3,1,2,1,0,8064,
scooby_state_4049e5|16|0 7623,0,0,2,3,3,1,2,5,3,1,3,3,2,317,7968,
scooby_state_4049e5|11|0 7559,1,5,1,4,1,1,1,2,2,5,1,5,0,346,7934,
scooby_state_4049e5|20|0 7513,1,1,2,1,1,3,3,2,2,1,5,1,3,305,7844,
scooby_state_4049e5|44|0 7478,4,2,2,2,1,4,2,2,3,4,0,1,2,330,7837,
scooby_state_4049e5|33|0 7404,3,4,1,1,2,1,4,1,0,3,3,0,1,313,7741,
scooby_state_4049e5|8|0 7288,3,2,3,0,3,2,2,6,3,0,4,0,4,324,7644,
scooby_state_4049e5|57|0 7237,1,4,1,1,2,3,3,3,2,1,0,2,2,308,7570,
scooby_state_4049e5|50|0 7242,1,2,3,2,4,1,3,1,0,1,3,0,2,254,7519,
scooby_state_4049e5|63|0 7176,2,5,3,0,1,3,1,6,3,0,3,2,1,275,7481,
scooby_state_4049e5|55|0 7019,4,3,1,1,0,0,4,1,1,2,1,5,3,281,7326,
scooby_state_4049e5|49|0 6994,1,4,2,1,2,1,1,3,1,2,2,2,0,305,7321,
scooby_state_4049e5|54|0 6940,2,2,1,1,2,1,1,1,1,0,3,3,2,315,7275,
scooby_state_4049e5|56|0 6697,0,1,0,1,0,1,2,0,3,1,2,2,4,312,7026,
scooby_state_4049cc|2|2 0,3293,0,0,0,0,0,1,0,17,1,0,0,1,0,3313,
scooby_state_4049cc|3|2 1,3281,1,1,0,0,0,0,0,17,2,0,0,0,0,3303,
scooby_state_4049cc|4|2 0,2959,0,0,1,3,0,2,0,15,1,0,0,0,0,2981,
scooby_state_4049cc|7|2 0,2917,0,0,0,0,0,1,2,19,0,0,1,0,0,2940,
scooby_state_4049cc|50|2 1,2921,0,1,0,0,0,0,0,16,1,0,0,0,0,2940,
scooby_state_4049cc|60|2 1,2918,1,1,0,0,0,1,0,16,0,1,0,0,0,2939,
scooby_state_4049cc|59|2 0,2921,0,0,0,0,0,0,0,16,0,0,0,1,1,2939,
scooby_state_4049cc|48|2 0,2917,1,0,0,0,0,0,1,15,3,0,0,1,1,2939,
scooby_state_4049cc|15|2 1,2919,0,0,0,0,0,1,1,16,0,0,0,1,0,2939,
scooby_state_4049cc|10|2 1,2918,1,1,0,2,0,0,0,16,0,0,0,0,0,2939,
scooby_state_4049cc|23|2 0,2919,1,0,1,0,0,0,0,17,0,1,0,0,0,2939,
scooby_state_4049cc|63|2 0,2917,0,0,0,0,1,1,0,16,1,2,0,0,1,2939,
scooby_state_4049cc|6|2 0,2916,1,0,0,0,1,1,0,17,0,0,2,1,0,2939,
scooby_state_4049cc|44|2 2,2917,0,1,0,0,0,2,0,16,0,0,0,0,1,2939,
scooby_state_4049cc|16|2 0,2916,1,0,0,0,1,2,0,16,0,1,0,0,1,2938,
scooby_state_4049cc|56|2 0,2919,1,0,0,0,0,0,0,16,0,0,1,0,1,2938,
scooby_state_4049cc|52|2 2,2915,1,0,0,1,1,1,1,15,0,0,0,0,1,2938,
scooby_state_4049cc|35|2 0,2915,0,0,0,1,0,2,0,16,0,0,0,1,3,2938,
scooby_state_4049cc|62|2 1,2914,0,1,1,2,0,3,1,15,0,0,0,0,0,2938,
scooby_state_4049cc|24|2 1,2918,0,0,0,0,0,1,0,16,0,0,1,0,1,2938,
scooby_state_4049cc|31|2 0,2919,0,0,0,0,0,1,1,16,0,0,1,0,0,2938,
scooby_state_4049cc|47|2 0,2918,1,0,1,0,1,0,1,16,0,0,0,0,0,2938,
scooby_state_4049cc|8|2 0,2914,0,0,0,0,0,2,1,19,1,0,0,0,1,2938,
scooby_state_4049cc|30|2 0,2917,0,0,0,0,0,1,1,17,1,0,1,0,0,2938,
scooby_state_4049cc|51|2 0,2917,0,0,0,0,1,0,1,16,0,0,2,1,0,2938,
scooby_state_4049cc|20|2 0,2918,2,0,1,0,0,0,0,16,0,0,0,0,0,2937,
scooby_state_4049cc|34|2 0,2910,0,1,1,0,2,1,1,16,1,0,2,1,1,2937,
scooby_state_4049cc|42|2 1,2910,0,1,0,0,2,3,2,17,0,0,1,0,0,2937,
scooby_state_4049cc|43|2 0,2916,1,0,0,0,1,1,1,16,0,0,0,0,1,2937,
scooby_state_4049cc|40|2 1,2916,0,0,0,2,0,1,0,16,0,0,0,1,0,2937,
scooby_state_4049cc|11|2 1,2913,1,0,0,0,0,0,0,17,2,2,0,1,0,2937,
scooby_state_4049cc|14|2 0,2914,1,1,0,0,2,1,2,15,1,0,0,0,0,2937,
scooby_state_4049cc|22|2 1,2918,0,1,0,0,0,0,0,16,0,0,0,0,0,2936,
scooby_state_4049cc|28|2 1,2913,1,1,1,1,0,1,1,16,0,0,0,0,0,2936,
scooby_state_4049cc|18|2 0,2913,1,1,1,0,0,1,1,16,1,0,0,0,1,2936,
scooby_state_4049cc|32|2 0,2918,1,0,0,0,0,1,0,16,0,0,0,0,0,2936,
scooby_state_4049cc|36|2 0,2913,0,2,0,0,2,1,0,16,0,0,1,0,1,2936,
scooby_state_4049cc|19|2 0,2912,0,1,2,1,0,0,0,16,0,0,1,0,3,2936,
scooby_state_4049cc|46|2 0,2918,0,1,0,0,0,0,1,16,0,0,0,0,0,2936,
scooby_state_4049cc|54|2 0,2915,1,0,1,1,0,1,1,16,0,0,0,0,0,2936,
scooby_state_4049cc|12|2 0,2916,0,0,1,0,0,0,0,17,0,0,1,1,0,2936,
scooby_state_4049cc|26|2 1,2911,0,0,1,0,0,2,2,16,0,1,0,1,0,2935,
scooby_state_4049cc|58|2 0,2915,0,0,0,0,1,0,0,15,2,0,0,0,2,2935,
scooby_state_4049cc|55|2 1,2911,2,1,1,1,0,0,0,16,1,0,0,0,1,2935,
scooby_state_4049cc|39|2 1,2915,0,0,0,2,0,0,1,15,1,0,0,0,0,2935,
scooby_state_4049cc|38|2 0,2913,0,0,1,1,1,1,0,15,1,1,0,0,0,2934,
scooby_state_4049cc|27|2 0,2915,0,0,1,0,0,0,0,16,0,1,0,0,0,2933,
scooby_state_4049cc|21|2 0,2905,0,2,1,0,0,0,1,18,2,1,0,0,0,2930,
scooby_state_4049cc|5|2 0,2913,0,0,0,0,0,0,0,16,1,0,0,0,0,2930,
scooby_state_4049cc|49|2 1,2907,0,1,0,0,1,0,0,16,1,0,1,0,1,2929,
scooby_state_4049cc|45|2 1,2903,0,0,0,0,0,3,2,16,2,1,0,0,0,2928,
scooby_state_4049cc|33|2 0,2905,0,1,0,0,0,0,1,16,0,1,2,1,1,2928,
scooby_state_4049cc|61|2 0,2907,0,0,0,0,1,2,0,17,0,0,1,0,0,2928,
scooby_state_4049cc|53|2 1,2908,0,0,0,0,0,2,0,16,0,0,0,0,0,2927,
scooby_state_4049cc|41|2 1,2902,2,0,1,0,1,0,1,16,1,0,0,1,1,2927,
scooby_state_4049cc|13|2 1,2906,0,0,0,0,0,1,1,15,2,0,0,1,0,2927,
scooby_state_4049cc|57|2 0,2905,0,0,0,0,1,0,0,15,2,0,0,2,1,2926,
scooby_state_4049cc|25|2 0,2907,0,1,0,0,0,2,0,16,0,0,0,0,0,2926,
scooby_state_4049cc|17|2 0,2904,0,1,2,0,0,0,0,16,0,0,1,1,0,2925,
scooby_state_4049cc|37|2 0,2906,0,0,0,0,2,1,0,15,1,0,0,0,0,2925,
scooby_state_4049cc|29|2 0,2907,0,0,0,0,1,0,0,15,1,0,0,1,0,2925,
scooby_state_4049cc|9|2 0,2904,1,0,0,1,0,1,0,16,0,0,0,0,0,2923,
scooby_state_4049d6|1|-1 0,1472,0,0,0,0,0,0,0,1,0,1,0,0,0,1474,
scooby_state_4049d6|42|-1 1,1464,1,0,1,0,0,0,0,0,0,0,0,0,2,1469,
scooby_state_4049d6|28|-1 0,1465,0,1,1,1,0,0,1,0,0,0,0,0,0,1469,
scooby_state_4049d6|46|-1 0,1468,1,0,0,0,0,0,0,0,0,0,0,0,0,1469,
scooby_state_4049d6|48|-1 1,1466,1,0,0,0,0,0,0,1,0,0,0,0,0,1469,
scooby_state_4049d6|21|-1 0,1465,0,1,0,1,0,1,0,0,1,0,0,0,0,1469,
scooby_state_4049d6|13|-1 0,1469,0,0,0,0,0,0,0,0,0,0,0,0,0,1469,
scooby_state_4049d6|57|-1 0,1466,0,0,1,0,0,0,0,0,0,0,1,1,0,1469,
scooby_state_4049d6|29|-1 0,1465,0,1,0,0,0,0,1,0,1,1,0,0,0,1469,
scooby_state_4049d6|33|-1 1,1468,0,0,0,0,0,0,0,0,0,0,0,0,0,1469,
scooby_state_4049cc|1|0 0,1459,1,0,0,0,0,0,0,8,0,0,1,0,0,1469,
scooby_state_4049d6|38|-1 1,1463,0,1,0,0,0,0,0,0,0,0,2,0,1,1468,
scooby_state_4049d6|41|-1 0,1463,0,0,1,0,0,2,1,0,0,0,0,1,0,1468,
scooby_state_4049d6|14|-1 0,1465,0,0,1,0,0,1,0,0,0,0,1,0,0,1468,
scooby_state_4049d6|60|-1 1,1465,0,1,0,0,0,0,0,0,0,0,0,0,1,1468,
scooby_state_4049d6|32|-1 1,1464,0,1,0,0,0,0,1,1,0,0,0,0,0,1468,
scooby_state_4049d6|22|-1 0,1461,2,0,0,1,1,0,0,0,1,1,0,0,1,1468,
scooby_state_4049d6|30|-1 0,1467,0,0,1,0,0,0,0,0,0,0,0,0,0,1468,
scooby_state_4049d6|12|-1 0,1462,0,0,2,0,1,0,0,0,1,1,0,0,1,1468,
scooby_state_4049d6|62|-1 0,1465,0,2,0,0,0,0,0,0,0,0,1,0,0,1468,
scooby_state_4049d6|34|-1 1,1466,0,0,0,0,0,0,0,0,1,0,0,0,0,1468,
scooby_state_4049d6|49|-1 0,1467,0,0,0,0,1,0,0,0,0,0,0,0,0,1468,
scooby_state_4049d6|9|-1 0,1467,0,0,0,0,0,1,0,0,0,0,0,0,0,1468,
scooby_state_4049d6|18|-1 0,1467,0,0,0,0,0,1,0,0,0,0,0,0,0,1468,
scooby_state_4049d6|44|-1 1,1465,0,0,0,0,0,0,0,0,1,1,0,0,0,1468,
scooby_state_4049d6|50|-1 0,1467,0,0,0,0,0,1,0,0,0,0,0,0,0,1468,
scooby_state_4049d6|37|-1 0,1468,0,0,0,0,0,0,0,0,0,0,0,0,0,1468,
scooby_state_4049d6|40|-1 0,1467,0,0,0,0,0,0,1,0,0,0,0,0,0,1468,
scooby_state_4049d6|58|-1 0,1464,0,1,0,0,1,0,0,0,1,0,1,0,0,1468,
scooby_state_4049d6|17|-1 0,1464,0,0,0,1,0,2,0,0,0,0,0,1,0,1468,
scooby_state_4049d6|61|-1 1,1465,0,0,0,0,0,0,0,1,0,0,0,1,0,1468,
scooby_state_4049d6|52|-1 2,1462,0,0,0,0,1,0,1,0,1,1,0,0,0,1468,
scooby_state_4049d6|5|-1 1,1462,0,0,1,0,1,0,0,2,0,1,0,0,0,1468,
scooby_state_4049d6|8|-1 0,1464,0,1,1,0,0,0,0,0,0,0,1,0,0,1467,
scooby_state_4049d6|4|-1 0,1464,2,0,0,0,0,0,0,0,1,0,0,0,0,1467,
scooby_state_4049d6|3|-1 1,1463,1,0,0,0,0,0,0,0,0,1,0,1,0,1467,
scooby_state_4049d6|54|-1 1,1465,0,0,0,0,0,0,0,0,0,0,0,1,0,1467,
scooby_state_4049d6|45|-1 0,1465,0,0,0,1,0,0,1,0,0,0,0,0,0,1467,
scooby_state_4049d6|16|-1 1,1464,0,0,0,0,0,1,0,0,0,0,0,0,1,1467,
scooby_state_4049d6|26|-1 1,1463,1,0,0,0,0,0,0,0,0,0,1,0,1,1467,
scooby_state_4049d6|24|-1 2,1464,0,0,0,1,0,0,0,0,0,0,0,0,0,1467,
scooby_state_4049d6|53|-1 0,1465,0,0,0,0,1,0,0,0,0,0,0,0,1,1467,
scooby_state_4049d6|6|-1 1,1461,0,0,0,0,1,1,1,1,0,0,1,0,0,1467,
scooby_state_4049d6|20|-1 0,1465,0,0,0,0,0,0,0,1,0,0,1,0,0,1467,
scooby_state_4049d6|36|-1 1,1461,2,0,0,1,0,0,0,0,0,0,1,0,0,1466,
scooby_state_4049d6|10|-1 2,1461,0,1,0,0,0,0,1,1,0,0,0,0,0,1466,
scooby_state_4049d6|25|-1 0,1463,0,0,0,0,1,1,0,0,0,0,0,1,0,1466,
scooby_state_4049d6|56|-1 0,1461,1,1,0,0,1,1,0,0,0,0,0,1,0,1466,
scooby_state_4049d6|19|-1 0,1458,0,0,0,0,2,0,0,0,0,0,0,1,0,1461,
scooby_state_4049d6|47|-1 0,1456,0,0,0,0,0,0,2,0,1,1,0,0,0,1460,
scooby_state_4049d6|43|-1 1,1456,0,0,0,0,0,0,0,1,0,0,0,1,0,1459,
scooby_state_4049d6|63|1 0,1457,0,1,0,0,0,0,0,0,0,0,0,0,0,1458,
scooby_state_4049d6|59|-1 1,1456,0,0,0,0,0,0,0,0,0,0,1,0,0,1458,
scooby_state_4049d6|23|-1 0,1456,0,0,0,0,1,0,0,0,0,0,0,0,0,1457,
scooby_state_4049d6|15|-1 0,1452,1,0,0,0,1,0,2,0,1,0,0,0,0,1457,
scooby_state_4049d6|39|-1 0,1451,1,0,1,2,0,1,0,0,0,0,1,0,0,1457,
scooby_state_4049d6|31|-1 0,1455,0,0,0,0,1,0,0,0,0,0,0,0,1,1457,
scooby_state_4049d6|11|-1 0,1456,0,0,0,0,0,0,0,0,0,0,0,0,1,1457,
scooby_state_4049d6|27|-1 0,1456,0,0,0,0,0,0,0,0,0,0,0,0,0,1456,
scooby_state_4049d6|7|-1 0,1455,0,0,0,0,0,0,0,0,0,0,0,0,1,1456,
scooby_state_4049d6|55|-1 0,1454,0,0,0,1,0,0,0,0,0,0,0,0,1,1456,
scooby_state_4049d6|35|-1 0,1452,0,0,1,0,0,1,0,1,0,0,0,0,1,1456,
scooby_state_4049d6|51|-1 2,1451,0,0,1,0,0,2,0,0,0,0,0,0,0,1456,
scooby_state_4049d6|2|-1 0,1367,0,0,0,1,0,0,1,0,1,0,0,0,0,1370,
scooby_state_4049d6|0|-1 0,1281,0,0,2,0,0,1,0,0,0,0,0,0,0,1284,
scooby_state_40483f|0|0 975,3,2,4,2,4,0,2,1,1,1,0,1,2,4,1002,
scooby_state_40483f|48|0 963,0,2,0,0,2,3,1,2,0,0,0,1,1,1,976,
scooby_state_40483f|52|0 948,2,3,1,3,0,2,1,1,0,1,1,1,2,3,969,
scooby_state_40483f|8|0 897,3,1,1,3,2,1,2,1,2,0,2,2,1,0,918,
scooby_state_40483f|56|0 899,0,3,1,3,0,2,1,0,4,1,1,0,0,3,918,
scooby_state_40483f|4|0 907,1,0,1,2,1,1,0,1,0,0,0,0,0,1,915,
scooby_state_40483f|16|0 891,2,2,0,0,2,2,1,1,1,1,2,1,1,1,908,
scooby_state_40483f|58|0 879,0,1,2,3,2,1,0,1,3,1,2,2,1,3,901,
scooby_state_40483f|18|0 870,0,1,0,0,0,1,0,2,0,0,1,1,0,3,879,
scooby_state_40483f|24|0 856,0,0,2,3,2,0,2,0,0,0,2,0,1,1,869,
scooby_state_40483f|2|0 829,2,1,3,3,1,1,1,1,0,1,2,2,0,2,849,
scooby_state_40483f|40|0 833,3,2,0,2,1,0,0,0,0,0,1,2,0,0,844,
scooby_state_40483f|60|0 829,0,3,0,2,0,2,0,1,0,1,1,0,2,2,843,
scooby_state_40483f|62|0 817,1,1,1,1,2,1,1,0,2,0,1,1,1,2,832,
scooby_state_40483f|20|0 820,1,0,0,0,1,1,2,1,0,0,0,3,1,0,830,
scooby_state_40483f|36|0 797,1,2,2,0,1,2,1,2,1,0,6,1,1,1,818,
scooby_state_40483f|32|0 803,1,1,0,1,0,0,2,1,2,2,2,1,0,1,817,
scooby_state_40483f|28|0 809,0,0,0,0,0,1,0,0,0,0,2,0,1,3,816,
scooby_state_40483f|51|0 786,0,1,2,3,2,0,1,1,1,1,3,0,0,1,802,
scooby_state_40483f|63|0 769,2,4,1,1,0,0,0,4,1,2,3,2,2,1,792,
scooby_state_40483f|14|0 774,1,0,2,1,0,2,0,1,0,0,0,2,0,4,787,
scooby_state_403e64|42|-1 607,0,12,12,10,12,10,13,10,6,10,23,15,13,19,772,
scooby_state_40483f|12|0 749,1,2,2,0,1,0,2,0,1,0,3,3,2,2,768,
scooby_state_40483f|34|0 752,0,1,3,1,0,0,3,0,1,1,0,1,3,2,768,
scooby_state_40483f|47|0 745,1,3,3,1,0,1,1,1,1,1,1,3,1,3,766,
scooby_state_40483f|59|0 743,2,0,0,2,1,0,1,0,1,2,2,2,1,4,761,
scooby_state_40483f|61|0 732,0,3,1,1,0,1,2,1,0,4,5,2,1,4,757,
scooby_state_40483f|19|0 734,2,2,0,2,0,3,2,3,0,1,2,1,1,0,753,
scooby_state_403e60|46|0 5,0,1,1,0,0,0,5,0,0,0,737,0,0,0,749,
scooby_state_40483f|38|0 733,0,1,0,0,1,1,1,1,0,2,2,0,2,2,746,
scooby_state_40483f|23|0 726,2,1,0,2,4,1,1,1,0,0,3,1,0,4,746,
scooby_state_40483f|44|0 732,2,0,1,0,1,0,0,1,0,2,0,1,3,1,744,
scooby_state_40483f|55|0 723,1,5,2,0,4,1,0,0,0,1,2,2,0,2,743,
scooby_state_403e60|43|0 6,0,0,0,0,0,0,5,0,0,0,727,0,0,0,738,
scooby_state_40483f|6|0 720,0,1,2,0,4,0,1,0,0,1,1,4,2,1,737,
scooby_state_40483f|10|0 709,3,1,3,0,0,1,0,2,1,1,1,1,1,1,725,
scooby_state_40483f|42|0 707,0,2,0,0,4,1,2,1,0,0,1,1,2,4,725,
scooby_state_40483f|54|0 706,2,1,5,0,0,2,2,1,0,1,2,1,1,0,724,
scooby_state_40483f|27|0 700,0,4,2,1,1,0,0,0,3,1,2,2,0,2,718,
scooby_state_40483f|11|0 698,1,3,2,1,0,1,1,0,0,1,2,3,0,2,715,
scooby_state_40483f|50|0 697,1,4,2,0,2,1,0,1,2,0,1,2,0,1,714,
scooby_state_40483f|43|0 698,2,2,2,0,0,1,0,1,0,0,3,0,1,2,712,
scooby_state_40483f|3|0 693,3,1,3,0,3,1,1,1,3,0,1,0,1,1,712,
scooby_state_40483f|31|0 688,2,1,1,0,0,1,3,0,0,1,0,3,3,4,707,
scooby_state_40483f|22|0 684,1,0,0,0,2,0,0,1,3,0,1,0,1,1,694,
scooby_state_40483f|39|0 681,0,1,1,0,0,1,2,0,1,1,1,1,0,1,691,
scooby_state_40483f|5|0 672,0,0,1,0,0,1,0,0,1,0,1,4,2,1,683,
scooby_state_403e94|46|1 0,1,5,4,3,3,0,1,0,0,3,653,0,5,1,679,
scooby_state_40483f|29|0 663,0,1,1,2,0,2,2,0,2,1,0,1,0,1,676,
scooby_state_40483f|46|0 659,0,2,2,2,3,1,0,2,0,2,1,0,0,1,675,
scooby_state_40483f|13|0 656,1,1,2,2,1,0,3,0,0,1,0,2,0,2,671,
scooby_state_40483f|7|0 647,1,4,2,0,1,2,0,1,0,1,0,1,4,3,667,
scooby_state_40483f|35|0 645,0,0,0,0,2,3,0,1,0,1,1,2,0,5,660,
scooby_state_40483f|1|0 636,1,1,1,1,2,1,0,0,1,0,1,1,1,5,652,
scooby_state_40483f|57|0 633,1,2,0,3,1,0,2,0,1,1,0,1,3,3,651,
scooby_state_40482f|18|0 640,0,0,1,0,0,2,1,0,1,0,0,1,2,3,651,
scooby_state_40483f|25|0 632,0,2,2,1,2,1,1,1,0,0,1,1,0,0,644,
scooby_state_40483f|33|0 627,1,1,2,1,1,0,0,2,1,4,1,1,1,1,644,
scooby_state_40483f|9|0 621,0,2,0,3,1,2,1,2,1,0,2,1,0,3,639,
scooby_state_40483f|30|0 622,1,1,1,3,1,1,0,2,2,0,2,1,1,0,638,
scooby_state_40483f|53|0 618,0,1,2,0,0,2,1,2,1,1,0,2,0,2,632,
scooby_state_40483f|15|0 617,0,0,2,1,0,0,3,0,2,1,1,1,1,2,631,
scooby_state_40483f|49|0 617,2,1,0,3,0,1,2,2,0,2,0,0,0,1,631,
scooby_state_4049e5|41|21 360,175,8,11,13,8,5,6,8,5,7,3,6,6,4,625,
scooby_state_403e64|13|-1 477,0,10,11,9,12,10,9,11,5,10,19,13,10,15,621,
scooby_state_40483f|37|0 606,1,0,0,1,1,2,1,0,0,1,1,2,0,0,616,
scooby_state_40483f|26|0 598,0,1,1,1,1,1,1,0,1,0,1,1,0,2,609,
scooby_state_403e94|43|1 0,0,0,3,3,6,0,0,0,0,3,575,0,0,0,590,
scooby_state_40483f|41|0 571,0,3,1,0,1,1,1,1,1,1,0,0,0,2,583,
scooby_state_40483f|17|0 568,1,1,0,0,1,1,0,1,1,1,0,0,3,2,580,
scooby_state_4049cc|1|-1 0,577,0,0,0,0,0,0,0,0,0,0,0,1,0,578,
scooby_state_40483f|21|0 561,1,1,2,1,1,0,0,1,0,2,0,2,0,3,575,
scooby_state_403e64|45|-1 415,0,10,10,10,10,10,10,10,5,10,20,10,10,15,555,
scooby_state_40483f|45|0 532,0,1,0,2,1,1,3,1,0,0,3,0,0,1,545,
scooby_state_403e90|15|0 0,10,2,0,1,0,0,0,2,7,3,484,3,2,3,517,
scooby_state_403e94|56|1 0,1,2,2,2,1,1,0,0,0,3,496,0,2,1,511,
scooby_state_403e9a|13|-2 431,2,2,3,3,3,3,3,3,3,0,3,0,5,42,506,
scooby_state_403eb0|14|1 0,497,0,3,0,0,0,0,1,2,0,1,1,0,0,505,
scooby_state_403eec|45|0 493,0,0,0,0,3,1,0,0,4,0,0,0,0,0,501,
scooby_state_403eec|42|0 486,0,0,0,0,3,0,0,0,3,0,0,0,0,0,492,
scooby_state_403e90|60|1 2,4,2,2,2,2,2,0,4,6,2,437,2,3,2,472,
scooby_state_4049e5|21|12 377,2,1,7,6,5,4,5,7,3,8,6,7,7,18,463,
scooby_state_4049e5|15|8 381,3,1,4,10,6,5,4,2,1,5,2,2,5,20,451,
scooby_state_403e60|14|0 4,0,0,1,0,0,0,4,0,0,0,440,0,0,0,449,
scooby_state_40482f|54|0 421,1,3,1,1,0,2,0,2,0,2,2,1,2,3,441,
scooby_state_4049e5|62|57 394,0,1,1,5,4,1,1,1,0,3,2,7,4,12,436,
scooby_state_403eb4|59|0 415,2,1,0,2,0,1,2,0,0,2,1,2,1,0,429,
scooby_state_40483c|31|-1 405,1,2,0,1,3,1,1,2,1,1,2,2,1,2,425,
scooby_state_40482f|36|0 391,1,0,2,1,0,2,1,6,1,0,1,1,1,3,411,
scooby_state_40482f|48|0 386,0,2,2,2,2,0,3,1,2,1,2,1,2,2,408,
scooby_state_4049e5|55|34 336,2,2,0,3,0,1,4,2,2,5,6,11,2,21,397,
scooby_state_4049e5|28|25 341,11,2,2,1,4,1,1,2,1,0,2,3,6,15,392,
scooby_state_404820|15|1 68,0,0,318,0,0,0,1,0,1,1,2,0,1,0,392,
scooby_state_403e90|41|0 0,14,1,0,2,0,0,0,2,6,2,352,2,1,2,384,
scooby_state_40482f|48|30 360,0,2,2,1,0,0,2,3,1,3,1,1,2,4,382,
scooby_state_40482f|18|-30 350,3,1,2,1,0,3,3,2,1,6,2,0,2,1,377,
scooby_state_404820|17|1 70,0,0,301,0,0,1,0,0,1,1,0,0,0,0,374,
scooby_state_403e90|0|0 0,4,1,0,0,0,0,0,0,4,2,358,2,1,2,374,
scooby_state_404820|18|1 68,1,0,301,0,0,0,0,0,1,1,1,0,0,0,373,
scooby_state_403eec|55|0 364,0,0,0,0,4,0,0,0,3,0,0,0,0,0,371,
scooby_state_404820|22|1 66,0,0,301,0,0,0,0,0,2,1,1,0,0,0,371,
scooby_state_40483c|47|-1 346,2,4,2,2,1,1,1,0,2,1,1,3,2,3,371,
scooby_state_4049e5|48|29 309,2,5,8,10,5,2,0,1,2,8,9,1,3,4,369,
scooby_state_4048b4|58|0 336,0,2,3,2,3,3,2,2,2,3,2,2,2,3,367,
scooby_state_4049cc|3|3 0,366,0,0,0,0,0,0,0,0,0,0,0,0,0,366,
scooby_state_4049e5|56|13 311,3,3,2,1,1,1,0,4,1,0,0,2,6,30,365,
scooby_state_403e90|47|1 2,3,2,2,2,1,2,2,3,4,2,333,1,2,2,363,
scooby_state_403e90|63|1 0,2,2,2,2,0,1,1,0,2,2,345,0,0,4,363,
scooby_state_403eb4|46|0 347,1,2,0,1,0,2,2,0,0,2,2,2,1,1,363,
scooby_state_403eb4|62|0 354,0,2,0,0,0,2,0,0,0,2,0,2,0,0,362,
scooby_state_4048b4|34|0 342,0,3,1,1,2,1,1,2,2,1,2,1,1,0,360,
scooby_state_403e94|14|1 0,0,1,2,2,3,0,0,0,0,2,348,0,1,1,360,
scooby_state_403e9a|27|-1 253,2,5,0,2,4,0,0,2,0,0,0,2,4,84,358,
scooby_state_40482f|32|0 339,0,1,0,2,0,0,0,3,1,2,1,1,4,3,357,
scooby_state_403e90|50|1 1,3,2,2,2,0,1,2,1,2,2,333,0,1,4,356,
scooby_state_4048b4|18|0 349,0,0,1,0,0,1,0,0,0,1,0,1,0,2,355,
scooby_state_404820|16|1 61,0,0,288,0,0,0,1,0,1,1,0,0,0,0,352,
scooby_state_4049e5|31|30 298,0,1,0,1,5,2,3,4,2,1,23,6,1,4,351,
scooby_state_403e90|61|1 0,2,2,2,2,0,1,1,0,2,2,332,0,0,4,350,
scooby_state_403eb4|60|0 339,1,1,0,1,0,1,1,0,0,2,0,2,1,0,349,
scooby_state_4048b4|52|0 338,0,1,1,0,1,2,0,1,1,2,1,1,0,0,349,
scooby_state_4049e5|28|23 301,1,0,1,2,3,2,1,1,3,3,4,5,5,14,346,
scooby_state_4049e5|63|7 310,2,3,4,0,1,1,1,1,2,4,8,2,4,3,346,
scooby_state_4049e5|62|19 278,0,3,7,4,2,1,5,5,3,5,10,4,10,5,342,
scooby_state_4049e5|47|21 262,45,8,2,2,6,3,2,1,1,2,3,0,2,3,342,
scooby_state_403eb4|49|0 331,0,2,0,0,0,2,1,0,0,2,1,2,1,0,342,
scooby_state_4049e5|46|34 281,1,1,0,2,1,3,2,3,0,0,37,2,3,6,342,
scooby_state_4048b4|48|0 304,0,4,2,1,3,3,1,5,1,2,3,1,3,8,341,
scooby_state_40482f|28|0 330,0,2,0,1,0,1,0,0,1,0,0,2,1,1,339,
scooby_state_404820|23|1 59,0,0,277,0,0,0,1,0,1,1,0,0,0,0,339,
scooby_state_403e90|25|1 0,2,2,2,2,0,2,0,0,4,2,319,0,0,2,337,
scooby_state_403e90|38|1 0,3,2,2,2,0,2,0,0,3,1,317,0,0,4,336,
scooby_state_403e9a|41|-1 231,2,3,0,2,4,0,0,2,0,0,0,3,4,84,335,
scooby_state_403e9a|2|-1 231,3,3,0,2,3,0,0,2,0,0,0,3,4,84,335,
scooby_state_4049e5|57|44 295,2,0,1,0,2,2,1,1,0,2,11,2,5,9,333,
scooby_state_4049e5|18|8 292,1,1,3,3,1,2,1,0,2,1,0,4,2,17,330,
scooby_state_404a14|22|0 325,1,0,0,0,0,0,0,0,1,0,0,0,0,0,327,
scooby_state_403e94|63|1 1,1,3,1,1,1,1,0,0,0,2,310,1,3,1,326,
scooby_state_4049e5|41|22 160,147,0,0,1,4,2,7,0,2,0,0,1,0,0,324,
scooby_state_403e9a|58|-2 244,7,6,7,1,5,1,3,1,1,2,1,4,1,38,322,
scooby_state_4049e5|54|18 287,0,5,2,3,1,2,0,0,2,2,5,4,5,3,321,
scooby_state_404820|19|1 66,0,0,251,0,0,0,1,0,1,1,0,0,1,0,321,
scooby_state_403e94|52|1 0,2,3,0,0,0,2,1,0,0,0,308,0,2,2,320,
scooby_state_40482f|51|0 304,0,2,2,0,1,0,0,1,1,1,2,1,2,2,319,
scooby_state_4049e5|53|13 278,3,1,1,1,1,2,0,1,3,0,2,5,1,20,319,
scooby_state_40482f|60|0 307,0,1,0,0,0,0,2,1,1,2,1,1,1,1,318,
scooby_state_40482f|53|0 292,0,2,2,1,2,2,3,5,0,0,0,3,3,2,317,
scooby_state_4049e5|47|28 290,3,0,2,2,1,3,0,0,3,0,0,0,0,13,317,
scooby_state_40482f|30|0 298,0,1,1,1,0,1,0,1,0,1,3,2,2,4,315,
scooby_state_403e60|58|0 3,0,0,0,0,0,0,3,0,0,0,309,0,0,0,315,
scooby_state_403e90|3|0 0,4,1,0,0,0,0,0,0,4,2,297,2,1,2,313,
scooby_state_403e90|4|0 0,6,1,0,1,0,0,0,1,3,1,296,1,1,1,312,
scooby_state_4048b4|4|0 283,1,3,1,1,2,2,1,4,1,1,3,2,2,4,311,
scooby_state_403e60|45|0 3,0,0,0,0,0,0,3,0,0,0,305,0,0,0,311,
scooby_state_4049e5|40|26 263,0,4,2,5,4,3,6,2,2,3,0,0,3,12,309,
scooby_state_404a14|23|0 308,1,0,0,0,0,0,0,0,0,0,0,0,0,0,309,
scooby_state_40482f|18|1 301,0,0,0,0,2,0,0,0,0,1,0,0,0,3,307,
scooby_state_4049e5|20|15 267,0,1,3,2,4,1,2,3,4,0,2,2,2,14,307,
scooby_state_403eec|51|0 300,0,0,0,0,0,2,0,0,2,0,0,0,0,0,304,
scooby_state_40482f|54|-6 276,5,2,1,3,3,2,0,1,1,1,0,2,5,2,304,
scooby_state_4049e5|36|22 187,105,0,0,5,0,2,1,2,0,0,1,0,0,0,303,
scooby_state_404a14|21|0 303,0,0,0,0,0,0,0,0,0,0,0,0,0,0,303,
scooby_state_404820|27|1 53,0,0,248,0,1,0,1,0,0,0,0,0,0,0,303,
scooby_state_404820|28|1 61,0,0,238,0,1,0,0,0,1,0,0,0,1,0,302,
scooby_state_4049e5|40|28 273,2,0,0,0,1,3,0,1,0,1,1,1,0,19,302,
scooby_state_40482f|13|7 293,0,0,0,0,0,0,0,1,1,2,1,2,0,2,302,
scooby_state_40483c|53|-1 288,2,2,0,0,2,0,3,1,0,0,1,2,1,0,302,
scooby_state_403eb4|24|0 292,1,1,0,1,0,1,0,0,0,2,0,2,1,0,301,
scooby_state_4048b4|2|0 274,0,1,3,2,2,2,2,2,1,3,1,2,2,3,300,
scooby_state_40482f|40|22 290,1,0,0,0,0,0,0,0,0,1,6,1,0,0,299,
scooby_state_40483c|27|-1 282,1,0,1,1,2,1,4,0,0,1,2,1,2,1,299,
scooby_state_4049e5|56|38 233,0,2,4,8,9,6,5,2,3,6,2,2,8,8,298,
scooby_state_40483c|35|-1 277,0,3,1,4,2,0,1,0,0,0,3,3,3,0,297,
scooby_state_403e90|42|1 2,2,1,1,1,1,0,1,2,1,1,278,1,1,3,296,
scooby_state_4049e5|59|34 258,1,6,0,3,0,2,2,3,2,1,4,2,1,11,296,
scooby_state_404820|29|1 62,0,1,229,0,1,0,1,0,0,0,0,0,0,0,294,
scooby_state_4048b4|62|0 267,0,2,2,1,2,2,1,3,2,2,2,2,1,4,293,
scooby_state_40483c|52|-1 263,1,1,3,2,3,4,1,0,2,0,0,4,7,1,292,
scooby_state_4049e5|43|5 269,1,0,0,1,0,2,0,0,0,0,0,1,1,17,292,
scooby_state_4049e5|54|10 250,5,3,2,0,4,1,1,3,1,1,3,1,3,14,292,
scooby_state_403e9a|3|-1 186,1,2,1,1,2,1,1,1,1,1,2,1,2,88,291,
scooby_state_403e64|48|-1 262,0,3,0,0,0,0,5,0,0,0,4,5,5,5,289,
scooby_state_4049e5|38|19 234,0,1,5,8,4,4,3,3,3,2,10,2,3,7,289,
scooby_state_4049e5|39|16 254,2,1,1,6,0,2,0,1,1,0,0,3,3,12,286,
scooby_state_4049e5|42|34 243,1,0,0,1,0,2,3,2,5,1,12,3,2,10,285,
scooby_state_40482f|10|-8 267,3,1,1,2,1,1,3,0,1,1,0,0,1,2,284,
scooby_state_4049e5|36|8 236,7,1,2,4,6,1,4,3,4,3,0,3,4,5,283,
scooby_state_4049e5|40|25 251,8,2,1,3,1,1,1,2,1,3,0,0,2,6,282,
scooby_state_4049e5|47|31 241,1,1,2,1,5,3,4,5,6,1,1,0,1,9,281,
scooby_state_4049e5|38|35 246,1,0,4,2,4,1,0,0,2,0,1,4,0,14,279,
scooby_state_4049e5|55|44 236,1,2,3,4,1,3,1,2,5,2,8,4,3,4,279,
scooby_state_404820|36|-1 2,0,0,0,0,0,0,0,0,1,0,273,0,1,1,278,
scooby_state_4049e5|36|3 225,0,1,6,3,6,3,0,3,1,2,6,7,5,9,277,
scooby_state_4049e5|62|47 242,0,3,3,1,4,2,3,2,1,3,1,3,5,3,276,
scooby_state_403ee8|17|1 4,15,5,2,4,4,9,5,3,4,2,1,4,4,209,275,
scooby_state_4049e5|44|39 228,0,0,0,1,0,1,1,0,1,0,40,0,2,1,275,
scooby_state_40482f|18|-33 132,90,10,3,4,4,4,4,1,6,8,2,3,1,2,274,
scooby_state_4049e5|50|26 249,1,3,1,0,0,1,2,2,2,2,0,1,2,8,274,
scooby_state_4049e5|38|34 234,1,0,0,1,0,1,2,2,0,0,8,6,4,14,273,
scooby_state_40482f|40|0 270,0,0,2,0,0,0,0,0,1,0,0,0,0,0,273,
scooby_state_404820|30|1 51,0,0,221,0,1,0,0,0,0,0,0,0,0,0,273,
scooby_state_403eec|2|0 268,0,0,0,0,1,1,0,0,2,0,0,0,0,0,272,
scooby_state_40482f|55|-2 231,3,5,2,4,2,1,0,1,1,1,7,3,4,6,271,
scooby_state_4049e5|62|18 237,1,1,3,4,4,3,1,1,1,1,6,3,2,3,271,
scooby_state_4049e5|59|20 243,0,1,0,0,2,3,1,3,0,1,4,0,0,13,271,
scooby_state_4048aa|18|0 205,0,3,2,2,2,2,2,3,3,1,41,2,1,2,271,
scooby_state_404820|37|-1 2,0,0,0,0,0,0,0,0,0,0,267,0,0,1,270,
scooby_state_4049e5|48|38 211,0,1,5,4,3,4,4,3,3,4,3,6,10,9,270,
scooby_state_40482f|48|18 249,1,0,0,1,1,2,3,2,2,0,4,0,0,4,269,
scooby_state_4049e5|49|29 221,5,5,0,0,0,5,3,4,3,2,9,4,2,5,268,
scooby_state_4049e5|53|26 232,1,4,2,4,2,2,1,2,2,4,1,1,3,7,268,
scooby_state_40482f|18|-9 238,0,1,2,1,2,0,0,3,0,5,7,2,3,3,267,
scooby_state_4049e5|39|34 234,1,2,0,3,0,0,2,1,0,2,7,2,3,9,266,
scooby_state_40482f|36|-12 253,0,2,4,1,0,1,0,2,0,0,0,0,1,2,266,
scooby_state_40482f|10|-22 249,0,2,0,4,1,0,2,4,0,1,3,0,0,0,266,
scooby_state_4049e5|60|20 225,0,2,2,7,2,1,2,1,0,2,0,3,3,16,266,
scooby_state_4048b4|6|0 243,0,2,1,1,1,2,1,3,2,1,2,2,1,3,265,
scooby_state_4048b4|10|0 247,0,3,2,1,2,1,1,1,0,1,2,1,1,2,265,
scooby_state_404820|31|1 48,0,0,214,0,1,0,1,0,0,0,0,0,0,1,265,
scooby_state_404a14|36|1 265,0,0,0,0,0,0,0,0,0,0,0,0,0,0,265,
scooby_state_403ee2|49|-1 238,1,2,1,1,2,2,1,2,2,2,2,2,2,3,263,
scooby_state_404a14|35|1 261,0,0,0,0,0,0,0,0,1,0,0,0,0,1,263,
scooby_state_40482f|36|4 237,0,1,3,2,2,2,3,1,0,2,6,2,2,0,263,
scooby_state_4049e5|45|23 210,2,3,3,4,3,0,7,2,2,3,8,0,6,9,262,
scooby_state_403e60|49|0 1,0,0,0,0,0,0,1,0,0,0,260,0,0,0,262,
scooby_state_40482f|6|-40 250,0,1,0,1,0,1,2,0,0,2,1,0,0,2,260,
scooby_state_40482f|32|-4 230,2,4,6,1,1,2,2,0,4,3,1,2,0,2,260,
scooby_state_404820|32|1 50,0,1,206,0,1,0,1,0,0,0,0,0,0,0,259,
scooby_state_40482f|48|16 231,6,4,2,1,1,3,1,2,0,3,0,2,3,0,259,
scooby_state_4049e5|33|20 230,0,1,2,3,2,1,1,1,0,2,0,3,1,12,259,
scooby_state_404820|21|1 43,0,0,213,0,0,0,0,0,1,1,1,0,0,0,259,
scooby_state_40482f|36|-19 248,2,1,0,0,0,1,0,1,3,1,0,0,0,1,258,
scooby_state_4048b4|38|0 232,0,2,2,2,2,1,2,3,2,2,2,1,2,3,258,
scooby_state_4049e5|62|22 114,138,0,1,0,0,1,2,1,0,0,0,0,0,0,257,
scooby_state_404820|26|-1 2,0,0,0,0,0,0,0,0,0,0,254,0,0,0,256,
scooby_state_4049e5|23|21 148,67,4,7,1,5,4,3,3,2,1,1,3,4,3,256,
scooby_state_404820|27|-1 2,0,0,0,0,0,0,0,1,0,0,253,0,0,0,256,
scooby_state_40482f|56|0 247,0,1,2,0,0,1,1,1,0,0,0,1,0,1,255,
scooby_state_404a14|37|1 253,0,0,0,0,0,0,0,0,1,0,0,0,0,0,254,
scooby_state_4049e5|59|3 208,0,1,4,1,4,3,2,2,2,2,9,2,4,10,254,
scooby_state_4048b4|22|0 223,0,3,2,2,3,3,1,3,2,2,2,3,2,3,254,
scooby_state_4049e5|50|11 228,5,1,0,4,1,2,0,1,2,0,2,0,0,8,254,
scooby_state_4049e5|55|28 228,0,0,0,0,1,2,0,0,3,0,1,1,1,16,253,
scooby_state_404820|35|-1 1,0,0,0,0,0,0,0,0,0,0,250,0,1,1,253,
scooby_state_40482f|55|19 237,0,0,2,2,1,4,1,1,0,0,0,2,3,0,253,
scooby_state_4049e5|59|28 222,0,0,3,1,1,2,0,0,4,0,0,0,0,19,252,
scooby_state_40482f|32|-16 233,0,3,2,0,3,1,4,2,0,1,0,2,1,0,252,
scooby_state_40482f|2|-11 247,1,0,0,0,0,0,1,0,0,0,1,1,1,0,252,
scooby_state_4048b4|56|0 246,0,0,2,0,0,0,0,0,1,0,0,1,0,0,250,
scooby_state_403ee2|46|-1 225,0,2,0,1,2,2,1,2,2,2,2,2,2,5,250,
scooby_state_404820|28|-1 2,0,0,0,1,0,0,0,0,0,0,247,0,0,0,250,
scooby_state_40482f|21|0 239,0,1,0,0,0,1,1,1,0,1,0,1,2,3,250,
scooby_state_405d23|7|3 67,16,19,11,11,15,14,11,13,11,11,11,11,10,18,249,
scooby_state_4049e5|16|6 203,3,4,4,6,1,4,3,2,1,2,7,3,2,4,249,
scooby_state_404a14|28|1 248,0,0,0,0,0,0,0,0,1,0,0,0,0,0,249,
scooby_state_404820|20|1 45,0,0,201,0,0,0,1,0,1,1,0,0,0,0,249,
scooby_state_403e90|32|1 0,1,1,1,1,0,0,1,0,0,1,240,0,0,3,249,
scooby_state_403e94|13|1 0,0,0,2,2,1,0,0,0,0,2,240,1,0,0,248,
scooby_state_40482f|18|-13 224,1,1,1,1,3,2,3,3,1,1,0,2,3,2,248,
scooby_state_404820|31|-1 3,0,0,0,1,0,0,0,0,0,0,244,0,0,0,248,
scooby_state_403e94|33|1 0,0,0,2,1,2,0,0,0,0,2,240,0,0,1,248,
scooby_state_40482f|0|0 235,0,3,1,0,2,0,1,1,0,1,0,1,0,2,247,
scooby_state_403e94|49|1 0,0,0,2,1,2,0,0,0,0,1,241,0,0,0,247,
scooby_state_403ee2|42|-1 225,0,2,0,1,1,2,1,2,2,2,2,1,1,4,246,
scooby_state_403eec|32|0 242,0,0,0,0,2,0,0,0,2,0,0,0,0,0,246,
scooby_state_404a14|38|1 244,0,0,0,0,0,0,0,0,1,0,0,0,0,0,245,
scooby_state_4049e5|55|21 185,20,1,6,7,3,5,6,4,2,4,1,1,0,0,245,
scooby_state_403e94|43|0 0,0,0,2,0,2,0,0,0,0,0,241,0,0,0,245,
scooby_state_4049e5|62|26 209,1,2,7,1,5,3,2,2,2,3,0,1,4,3,245,
scooby_state_404820|24|1 54,0,0,187,0,0,0,1,0,0,1,0,0,1,0,244,
scooby_state_403e90|21|0 0,0,0,0,0,0,0,0,1,0,0,243,0,0,0,244,
scooby_state_403e54|59|-1 78,0,16,10,13,9,14,9,11,4,4,8,15,18,35,244,
scooby_state_4049e5|54|25 207,8,1,0,5,1,1,3,2,1,0,1,0,3,11,244,
scooby_state_4048b4|8|0 227,0,1,1,2,2,1,2,1,1,1,1,1,2,1,244,
scooby_state_4049e5|14|14 202,8,1,2,1,1,0,3,0,0,0,1,1,4,20,244,
scooby_state_404a14|34|1 241,0,0,0,0,0,0,0,0,1,0,1,0,0,0,243,
scooby_state_403e94|55|1 0,0,2,1,1,1,0,0,0,0,1,236,0,1,0,243,
scooby_state_40482f|58|0 232,0,2,0,0,0,0,0,1,0,2,1,1,2,2,243,
scooby_state_403ee2|22|-1 222,1,0,3,0,3,3,0,2,1,1,4,1,2,0,243,
scooby_state_403e94|23|0 0,1,0,0,0,0,2,0,0,0,0,240,0,0,0,243,
scooby_state_404820|39|-1 1,0,0,0,0,0,0,0,0,0,0,241,0,0,1,243,
scooby_state_404820|38|-1 1,0,1,0,0,0,0,0,1,0,0,238,0,0,1,242,
scooby_state_404a14|24|0 240,0,1,0,0,0,0,0,0,0,0,1,0,0,0,242,
scooby_state_403e94|47|0 0,0,0,2,0,2,0,0,0,0,0,238,0,0,0,242,
scooby_state_4049e5|27|3 195,0,3,4,3,3,2,1,2,3,1,8,6,5,5,241,
scooby_state_404a14|32|0 239,0,0,1,1,0,0,0,0,0,0,0,0,0,0,241,
scooby_state_403ee2|13|-1 223,0,1,0,1,2,0,0,2,2,1,2,2,2,3,241,
scooby_state_40482f|48|-5 221,1,1,1,0,1,4,2,2,1,1,0,2,3,1,241,
scooby_state_40483c|61|-1 227,1,0,2,1,1,2,0,0,0,2,2,1,0,2,241,
scooby_state_4048b4|16|0 237,0,1,1,0,1,0,0,0,0,0,1,0,0,0,241,
scooby_state_40482f|48|20 230,0,3,1,2,1,2,0,1,0,0,0,0,0,1,241,
scooby_state_404820|29|-1 2,0,0,0,1,0,0,0,0,0,0,238,0,0,0,241,
scooby_state_404a14|29|1 237,0,2,0,0,0,0,0,0,1,0,0,0,0,0,240,
scooby_state_403e9a|40|-1 130,1,2,2,1,2,2,1,1,2,2,4,1,2,87,240,
scooby_state_404820|25|-1 0,0,0,1,1,0,0,0,0,0,0,238,0,0,0,240,
scooby_state_40482f|55|0 224,0,1,0,1,2,0,2,1,0,2,3,2,1,1,240,
scooby_state_40482f|27|0 230,0,0,1,1,0,2,0,0,1,0,2,2,1,0,240,
scooby_state_40482f|51|33 227,0,1,2,1,2,0,1,2,0,1,2,0,1,0,240,
scooby_state_40482f|18|-10 211,0,2,3,0,3,3,1,3,3,3,1,0,2,5,240,
scooby_state_40483c|17|-1 226,2,0,0,2,3,1,0,1,2,0,1,0,0,1,239,
scooby_state_40482f|18|-18 198,4,3,4,5,3,1,4,4,2,2,2,3,2,2,239,
scooby_state_4049e5|13|13 206,1,3,0,1,2,4,1,2,1,0,3,5,0,9,238,
scooby_state_4049e5|24|23 225,0,0,0,0,0,0,0,0,1,0,1,1,0,10,238,
scooby_state_403eb4|21|0 232,1,0,0,1,0,0,0,0,0,1,0,1,1,0,237,
scooby_state_40482f|10|0 227,1,1,1,0,0,2,0,1,1,1,0,1,0,1,237,
scooby_state_403e94|58|1 0,0,2,1,1,1,0,0,0,0,0,230,0,2,0,237,
scooby_state_40482f|36|18 222,0,0,0,1,3,3,1,0,1,0,3,1,2,0,237,
scooby_state_40483c|63|0 215,0,1,2,0,1,2,2,3,1,2,2,1,1,3,236,
scooby_state_4049e5|51|44 220,0,0,3,0,0,0,1,0,1,1,2,2,1,5,236,
scooby_state_40482f|36|-21 225,1,1,0,0,0,0,1,0,1,2,3,0,0,2,236,
scooby_state_40482f|2|0 212,1,4,0,1,1,0,0,2,2,1,4,1,3,4,236,
scooby_state_403e90|22|1 0,1,1,1,1,0,1,0,0,2,1,226,0,0,1,235,
scooby_state_4049e5|8|8 199,2,1,2,2,4,3,4,3,1,1,0,3,3,7,235,
scooby_state_4049e5|49|36 190,5,3,3,7,2,3,3,1,4,0,6,2,5,1,235,
scooby_state_403eec|57|0 231,0,0,0,0,2,0,0,0,2,0,0,0,0,0,235,
scooby_state_403e50|60|0 2,0,0,2,2,2,2,0,0,0,2,219,0,0,4,235,
scooby_state_403e94|3|1 0,0,1,1,1,1,1,0,0,1,1,226,0,1,0,234,
scooby_state_404820|24|-1 0,0,0,0,1,0,0,0,0,0,0,233,0,0,0,234,
scooby_state_40482f|54|6 217,0,3,2,2,1,1,0,3,0,2,0,1,2,0,234,
scooby_state_404820|30|-1 2,0,0,0,1,0,0,0,0,0,0,230,0,1,0,234,
scooby_state_4049e5|49|5 211,1,0,0,1,0,1,0,0,1,0,1,1,1,16,234,
scooby_state_40482f|12|0 222,1,0,0,1,1,6,1,0,0,0,0,0,0,2,234,
scooby_state_403e9a|40|-2 179,3,4,4,1,3,1,2,1,1,1,1,2,2,28,233,
scooby_state_403ee2|17|-1 209,1,0,2,1,2,3,1,3,1,1,2,1,3,3,233,
scooby_state_4048b1|9|-1 202,2,3,3,4,2,3,1,2,1,2,2,2,2,2,233,
scooby_state_4049e5|61|49 183,9,7,4,3,2,5,3,2,2,2,1,3,2,4,232,
scooby_state_4049e5|44|28 215,2,0,0,0,1,2,0,0,1,1,0,2,0,8,232,
scooby_state_40483c|56|-1 216,1,1,4,0,2,0,2,1,0,1,0,1,0,2,231,
scooby_state_40482f|60|4 213,0,2,1,1,1,0,0,1,0,0,10,0,0,2,231,
scooby_state_403e9a|62|-1 129,1,2,1,1,2,1,1,1,1,1,2,1,2,85,231,
scooby_state_4049e5|63|43 198,0,2,2,1,2,3,5,3,3,0,0,4,2,6,231,
scooby_state_4049e5|49|42 213,10,0,0,0,0,0,0,0,0,0,2,0,1,5,231,
scooby_state_4048b4|14|0 213,0,2,2,1,1,2,1,1,2,2,0,1,1,2,231,
scooby_state_40483c|11|-1 217,2,2,1,0,1,0,0,1,1,1,0,2,2,0,230,
scooby_state_4048b4|50|0 207,0,2,2,2,3,1,2,2,1,2,1,1,2,2,230,
scooby_state_4048b4|32|0 227,0,0,0,0,0,0,0,0,0,1,1,0,0,1,230,
scooby_state_403e94|45|1 0,0,0,2,0,1,0,0,0,0,0,227,0,0,0,230,
scooby_state_40482f|59|1 225,0,1,1,0,1,0,0,0,0,1,0,1,0,0,230,
scooby_state_40482f|46|28 196,33,0,0,1,0,0,0,0,0,0,0,0,0,0,230,
scooby_state_40482f|48|12 220,0,1,1,1,0,0,0,0,1,1,3,0,0,1,229,
scooby_state_4049e5|38|21 135,46,1,9,2,5,1,5,5,4,2,2,6,4,2,229,
scooby_state_4049e5|39|10 193,1,4,2,3,3,3,4,2,2,2,3,2,1,4,229,
scooby_state_40482f|57|39 203,4,8,0,0,0,0,1,0,1,3,0,1,1,6,228,
scooby_state_4049e5|50|19 196,1,1,0,3,1,2,2,2,2,1,2,4,5,6,228,
scooby_state_403e9a|58|-1 172,1,2,0,1,3,0,0,1,0,0,0,1,2,45,228,
scooby_state_403eec|31|0 222,0,0,0,0,2,0,0,0,2,1,0,0,0,0,227,
scooby_state_4049e5|22|13 188,1,3,0,1,1,2,0,1,3,0,2,2,1,22,227,
scooby_state_4049e5|56|21 214,0,0,1,1,3,1,3,2,1,0,0,0,0,1,227,
scooby_state_403e90|54|1 1,2,1,1,1,1,1,0,2,3,1,210,1,1,1,227,
scooby_state_4049e5|58|47 182,0,1,1,2,4,3,0,3,2,4,3,8,6,8,227,
scooby_state_404a14|30|1 226,0,0,0,0,0,0,0,0,1,0,0,0,0,0,227,
scooby_state_40482f|18|-39 171,0,1,6,3,0,1,1,0,0,0,37,2,0,5,227,
scooby_state_40482f|36|8 218,0,1,0,0,0,0,1,1,0,1,1,1,1,1,226,
scooby_state_403ee2|54|-1 199,0,2,0,1,2,2,1,2,3,2,2,2,2,6,226,
scooby_state_4049e5|22|15 204,0,1,4,0,3,1,1,2,1,0,0,2,2,5,226,
scooby_state_40482f|48|-6 202,6,2,1,1,2,1,2,1,2,0,0,2,2,2,226,
scooby_state_404820|34|-1 0,0,0,0,0,1,0,0,1,0,0,222,0,0,1,225,
scooby_state_404820|41|1 41,0,0,184,0,0,0,0,0,0,0,0,0,0,0,225,
scooby_state_4049e5|56|6 186,3,3,1,5,1,0,4,2,4,5,3,1,3,4,225,
scooby_state_403e90|24|0 0,2,2,0,1,0,0,0,0,2,1,213,1,1,1,224,
scooby_state_4049e5|14|7 191,0,5,1,2,2,0,1,0,1,1,7,2,6,5,224,
scooby_state_40482f|28|10 203,1,0,0,0,2,2,0,0,1,4,3,3,1,4,224,
scooby_state_40482f|44|0 217,0,0,0,0,2,1,0,0,0,0,1,1,0,2,224,
scooby_state_40482f|48|4 203,0,1,0,0,2,2,1,2,0,1,4,3,1,4,224,
scooby_state_404820|23|-1 0,0,0,0,1,0,0,0,0,0,0,223,0,0,0,224,
scooby_state_403e9a|23|-1 168,1,2,1,1,2,0,0,1,0,0,0,1,3,43,223,
scooby_state_4049e5|47|37 199,0,1,2,0,1,1,2,2,2,5,0,2,4,2,223,
scooby_state_40482f|11|0 209,1,1,1,1,2,0,0,1,1,1,1,0,1,2,222,
scooby_state_40482f|55|37 196,0,4,2,4,3,1,2,2,0,1,0,3,0,4,222,
scooby_state_4049e5|29|29 193,0,1,3,3,3,0,1,4,2,0,7,0,1,4,222,
scooby_state_404a14|26|0 221,0,1,0,0,0,0,0,0,0,0,0,0,0,0,222,
scooby_state_40482f|31|16 204,15,0,0,1,0,0,0,0,0,0,0,1,0,1,222,
scooby_state_40482f|32|14 208,0,2,1,2,1,0,0,3,1,1,0,0,1,2,222,
scooby_state_405d41|4|2 2,219,0,0,0,0,0,0,0,0,0,0,0,0,0,221,
scooby_state_40482f|57|9 196,3,3,2,0,0,0,0,1,1,1,7,2,3,2,221,
scooby_state_403ee2|51|-1 199,0,1,0,1,2,2,0,2,2,2,1,2,2,4,220,
scooby_state_40482f|59|0 211,0,1,0,0,0,0,0,2,0,0,2,2,1,1,220,
scooby_state_4048b4|28|0 201,0,2,1,1,2,1,0,3,1,1,2,1,1,3,220,
scooby_state_4048aa|51|0 174,0,3,3,2,2,1,1,1,0,1,23,2,2,4,219,
scooby_state_404820|22|-1 1,0,0,0,0,0,0,0,0,0,0,218,0,0,0,219,
scooby_state_4049e5|13|-6 177,0,8,3,3,1,1,2,3,4,12,2,1,1,1,219,
scooby_state_404820|44|1 43,0,0,174,0,1,0,0,0,0,0,0,0,0,1,219,
scooby_state_4048b4|36|0 205,0,1,1,1,1,1,1,1,1,1,2,1,1,1,219,
scooby_state_403e90|58|1 0,1,1,1,1,0,1,0,0,2,1,209,0,0,1,218,
scooby_state_4049e5|43|18 188,1,1,3,2,3,3,3,2,1,1,1,1,2,6,218,
scooby_state_403eb4|57|0 213,1,0,0,1,0,0,0,0,0,1,0,1,1,0,218,
scooby_state_403e60|13|0 2,0,0,1,0,0,0,2,0,0,0,213,0,0,0,218,
scooby_state_403eb4|53|0 209,1,1,0,1,0,1,1,0,0,1,1,1,0,0,217,
scooby_state_4049e5|36|33 190,1,0,5,0,2,3,0,1,1,1,1,5,3,4,217,
scooby_state_40482f|53|23 208,0,1,1,0,0,1,0,2,0,0,1,2,1,0,217,
scooby_state_403e94|52|0 0,0,0,1,0,1,0,1,0,0,0,214,0,0,0,217,
scooby_state_4049e5|52|24 185,0,3,1,4,3,1,1,1,3,0,4,2,6,3,217,
scooby_state_40482f|28|-29 209,2,2,0,0,0,0,0,0,0,0,2,0,0,1,216,
scooby_state_4049e5|54|13 183,0,0,0,1,3,3,1,1,1,0,1,2,1,19,216,
scooby_state_40482f|12|-24 209,0,0,1,1,0,1,1,0,0,0,1,1,1,0,216,
scooby_state_40482f|28|15 181,7,3,3,2,0,5,1,2,3,0,0,3,5,1,216,
scooby_state_40482f|28|-27 195,2,1,3,0,0,0,3,2,2,1,1,1,3,2,216,
scooby_state_403e9a|13|-1 162,1,2,0,2,2,0,0,1,0,0,0,1,2,42,215,
scooby_state_404820|40|-1 1,0,0,0,0,0,0,0,0,1,1,211,1,0,0,215,
scooby_state_4049e5|18|6 178,3,0,2,2,4,1,2,1,1,4,4,3,5,5,215,
scooby_state_404820|17|-1 2,0,0,0,1,0,0,0,0,0,0,212,0,0,0,215,
scooby_state_40482f|60|6 184,1,1,7,2,1,1,2,1,2,1,4,2,4,2,215,
scooby_state_40482f|44|20 211,0,0,0,1,1,0,1,0,0,0,0,0,0,1,215,
scooby_state_4048b4|24|0 212,0,0,0,0,0,0,0,0,0,1,0,0,0,1,214,
scooby_state_4049e5|63|48 184,0,0,3,0,1,1,1,0,2,1,7,3,0,11,214,
scooby_state_4049e5|52|28 197,1,0,0,0,0,1,0,0,1,0,0,0,0,14,214,
scooby_state_403ee2|21|-1 189,3,2,2,0,1,0,3,2,2,2,2,2,2,2,214,
scooby_state_403e94|26|1 0,0,1,1,1,1,0,0,0,0,1,207,0,1,0,213,
scooby_state_404820|21|-1 1,0,0,0,0,0,0,0,0,0,0,211,1,0,0,213,
scooby_state_40482f|57|0 202,0,0,1,0,4,0,0,0,0,0,2,0,1,3,213,
scooby_state_404820|13|-1 1,0,0,0,0,0,1,0,0,0,0,211,0,0,0,213,
scooby_state_40482f|13|0 201,0,2,0,0,0,0,0,3,0,2,1,0,2,1,212,
scooby_state_404820|33|-1 1,0,0,0,0,0,0,0,0,0,0,210,0,1,0,212,
scooby_state_40482f|57|21 190,2,0,1,1,4,0,0,0,0,2,5,3,4,0,212,
scooby_state_40483c|28|-1 198,1,0,2,0,0,1,1,0,1,1,2,0,3,1,211,
scooby_state_40482f|21|-30 203,2,0,0,0,0,0,0,1,1,2,0,1,1,0,211,
scooby_state_4049e5|44|41 185,1,4,1,3,1,4,1,0,0,4,2,1,2,2,211,
scooby_state_404820|14|-1 1,0,0,0,0,0,1,1,0,0,0,208,0,0,0,211,
scooby_state_4049e5|38|37 186,0,3,0,2,5,3,0,3,1,1,1,1,2,3,211,
scooby_state_40482f|24|14 198,1,0,3,0,2,0,3,0,0,0,1,0,1,2,211,
scooby_state_405ccd|2|1 1,0,8,118,0,1,12,8,5,0,0,41,4,5,7,210,
scooby_state_40482f|15|0 205,0,1,0,0,0,0,1,0,0,1,1,0,0,1,210,
scooby_state_40482f|18|-44 182,1,1,3,2,5,1,5,1,3,4,0,0,1,1,210,
scooby_state_40482f|43|0 201,1,0,1,2,0,1,1,0,1,0,0,0,1,1,210,
scooby_state_40482f|30|-18 189,2,4,0,2,1,0,2,1,2,2,0,3,1,1,210,
scooby_state_4049e5|11|-3 93,2,20,7,11,8,8,8,6,6,3,7,5,10,16,210,
scooby_state_4048aa|13|0 178,0,1,2,1,1,0,1,1,1,0,20,1,1,2,210,
scooby_state_40483c|23|-1 201,1,1,0,1,0,0,1,2,0,0,0,0,0,2,209,
scooby_state_403e94|32|1 0,0,0,1,1,1,0,0,0,0,1,205,0,0,0,209,
scooby_state_40482f|28|-2 208,0,0,0,0,0,0,0,0,0,1,0,0,0,0,209,
scooby_state_40482f|57|2 206,0,0,0,1,0,1,0,0,0,0,1,0,0,0,209,
scooby_state_404820|32|-1 2,0,0,0,0,0,0,0,0,0,0,206,0,0,1,209,
scooby_state_403e90|49|0 0,3,0,0,0,0,0,0,0,2,1,201,1,0,1,209,
scooby_state_403eec|15|0 205,0,0,0,0,1,0,0,1,2,0,0,0,0,0,209,
scooby_state_403e9a|48|-1 156,1,2,0,1,1,0,0,1,0,0,0,1,2,44,209,
scooby_state_403e90|19|1 0,1,1,1,1,0,1,0,0,2,2,198,0,0,1,208,
scooby_state_403eb4|18|0 204,0,1,0,0,0,1,0,0,0,1,0,1,0,0,208,
scooby_state_403eec|25|0 206,0,0,0,0,1,0,0,0,1,0,0,0,0,0,208,
scooby_state_40482f|18|-12 187,0,4,1,0,2,2,1,0,2,0,2,3,1,3,208,
scooby_state_40482f|32|32 188,0,2,0,4,1,1,1,0,0,0,1,2,5,3,208,
scooby_state_4048b4|42|0 184,0,2,1,1,2,2,1,2,2,1,2,4,2,1,207,
scooby_state_40482f|53|5 186,16,0,0,2,0,0,0,1,0,1,0,0,1,0,207,
scooby_state_404a14|31|0 206,0,0,1,0,0,0,0,0,0,0,0,0,0,0,207,
scooby_state_40482f|48|-3 191,0,1,3,0,2,0,1,0,0,1,1,5,1,1,207,
scooby_state_4048b4|54|0 186,0,4,2,1,2,1,1,1,2,1,2,1,2,1,207,
scooby_state_403e94|15|1 0,0,1,1,1,1,0,0,0,0,1,202,0,0,0,207,
scooby_state_403eb4|63|0 201,1,0,0,1,0,0,0,0,0,1,0,1,1,0,206,
scooby_state_404820|12|-1 1,0,0,0,0,0,0,0,0,0,0,205,0,0,0,206,
scooby_state_40482f|0|-28 194,0,0,0,3,0,0,2,1,2,0,1,1,2,0,206,
scooby_state_4049e5|50|34 168,1,2,0,4,0,1,1,0,1,0,6,7,1,14,206,
scooby_state_40482f|54|1 195,1,1,0,0,1,0,1,0,1,1,2,2,1,0,206,
scooby_state_4049e5|52|26 173,0,4,4,1,5,3,2,1,1,1,0,0,4,6,205,
scooby_state_403ee2|16|-2 183,1,2,1,1,2,2,0,2,2,2,1,1,1,4,205,
scooby_state_40482f|28|28 151,45,1,2,0,2,1,1,0,1,0,0,0,0,0,204,
scooby_state_4049e5|29|4 128,0,5,1,1,1,1,3,0,2,1,42,14,2,3,204,
scooby_state_40482f|36|24 136,51,1,1,0,0,3,2,1,6,1,0,1,1,0,204,
scooby_state_40482f|28|-20 194,0,0,1,1,0,1,0,1,0,1,2,1,1,1,204,
scooby_state_4049e5|60|51 188,0,0,1,2,2,3,1,2,1,0,2,2,0,0,204,
scooby_state_40482f|51|39 195,3,2,1,0,0,1,0,0,0,0,0,1,0,1,204,
scooby_state_404a14|27|1 202,0,0,0,0,0,0,0,0,1,0,0,0,0,0,203,
scooby_state_4048aa|15|0 170,0,1,1,1,1,1,0,1,1,1,21,2,1,1,203,
scooby_state_40482f|48|48 187,0,0,1,1,0,1,1,0,2,2,5,1,0,2,203,
scooby_state_4049e5|59|44 190,0,0,1,1,0,0,1,4,1,0,0,0,4,1,203,
scooby_state_40482f|30|1 183,0,5,1,1,1,2,0,0,2,0,2,3,3,0,203,
scooby_state_40483c|29|-1 192,1,0,2,1,0,0,2,0,0,2,1,1,0,1,203,
scooby_state_404a14|33|1 203,0,0,0,0,0,0,0,0,0,0,0,0,0,0,203,
scooby_state_4049e5|34|21 182,8,1,2,3,0,1,1,2,1,2,0,0,0,0,203,
scooby_state_4049e5|51|8 181,3,1,1,2,0,1,3,2,1,0,0,1,2,5,203,
scooby_state_40482f|41|-10 190,2,2,0,1,1,1,1,2,0,0,1,1,0,1,203,
scooby_state_403e94|11|1 0,0,0,2,1,1,0,0,0,0,1,198,0,0,0,203,
scooby_state_40482f|48|-14 188,0,1,0,1,3,0,2,0,1,2,1,2,0,2,203,
scooby_state_4049e5|21|18 179,0,0,1,2,2,1,2,0,3,1,4,0,3,4,202,
scooby_state_4049e5|52|5 173,1,1,4,0,1,0,0,1,0,0,0,2,1,18,202,
scooby_state_4049e5|61|52 157,1,2,2,2,10,4,1,4,3,4,2,3,4,3,202,
scooby_state_4048aa|59|0 175,0,2,2,0,0,0,1,0,0,0,19,1,1,1,202,
scooby_state_404820|33|1 44,0,0,155,0,1,0,1,0,0,0,0,0,0,0,201,
scooby_state_40482f|30|12 187,0,2,1,0,0,1,1,0,1,1,2,0,3,2,201,
scooby_state_4049cc|1|-2 0,201,0,0,0,0,0,0,0,0,0,0,0,0,0,201,
scooby_state_4048b4|61|0 167,0,3,4,3,4,2,3,3,0,3,1,0,4,4,201,
scooby_state_4048c3|12|0 169,2,1,2,3,1,2,3,2,2,1,2,3,2,5,200,
scooby_state_404820|40|1 41,0,0,158,0,0,0,0,0,0,0,0,0,0,0,199,
scooby_state_404820|18|-1 2,0,0,0,0,0,0,0,0,0,0,197,0,0,0,199,
scooby_state_40483c|9|-1 186,1,0,0,0,0,0,2,1,1,1,0,4,1,2,199,
scooby_state_40482f|62|14 189,2,0,1,0,0,0,1,1,0,1,2,1,1,0,199,
scooby_state_40482f|36|14 175,5,3,3,2,0,1,0,1,2,1,0,2,2,2,199,
scooby_state_4049cc|4|3 0,198,1,0,0,0,0,0,0,0,0,0,0,0,0,199,
scooby_state_404a14|39|1 198,0,0,0,0,0,0,0,0,1,0,0,0,0,0,199,
scooby_state_404844|18|0 188,6,0,0,0,0,0,0,0,1,0,2,0,0,1,198,
scooby_state_40482f|32|1 191,0,0,1,1,0,0,0,0,0,0,1,0,4,0,198,
scooby_state_403e94|16|1 0,0,2,1,1,1,0,0,0,0,1,191,0,1,0,198,
scooby_state_4049e5|63|59 163,0,3,4,2,1,1,3,2,4,1,8,1,2,3,198,
scooby_state_40482f|48|-9 175,1,0,3,3,2,1,1,1,3,0,2,0,4,2,198,
scooby_state_4049e5|62|60 184,0,0,6,1,0,2,0,0,0,0,0,0,2,2,197,
scooby_state_4049e5|36|31 171,0,1,2,1,4,3,3,2,2,1,3,3,0,1,197,
scooby_state_4049e5|30|20 166,0,1,0,4,2,0,0,1,0,1,0,2,2,17,196,
scooby_state_40482f|57|29 184,0,1,1,0,0,0,2,0,1,0,1,1,3,2,196,
scooby_state_40482f|36|36 178,0,0,1,4,0,0,2,0,1,1,3,2,2,2,196,
scooby_state_40482f|54|13 155,29,1,0,1,1,1,1,0,0,1,6,0,0,0,196,
scooby_state_40482f|32|-8 175,0,2,3,1,1,0,2,1,0,0,2,2,4,3,196,
scooby_state_4049e5|19|5 174,1,1,0,3,0,0,0,0,1,0,3,0,2,11,196,
scooby_state_40482f|18|-14 181,3,1,3,3,1,0,2,1,0,0,0,0,0,1,196,
scooby_state_40482f|17|-19 186,0,1,1,1,0,1,0,1,1,0,0,0,1,2,195,
scooby_state_4049e5|59|31 168,1,0,1,3,6,2,5,0,3,0,1,1,1,3,195,
scooby_state_404820|11|-1 2,0,0,0,0,0,0,0,0,0,0,192,1,0,0,195,
scooby_state_405d23|0|0 51,7,16,9,7,11,13,11,5,8,9,6,10,8,24,195,
scooby_state_403e94|50|0 0,0,0,1,1,1,0,0,0,0,0,192,0,0,0,195,
scooby_state_4049e5|50|40 151,0,21,1,0,1,1,4,2,4,1,3,2,1,3,195,
scooby_state_40482f|48|37 181,0,0,1,1,0,1,0,0,1,3,0,3,1,2,194,
scooby_state_404820|10|-1 1,0,0,0,0,0,1,0,0,0,0,192,0,0,0,194,
scooby_state_40482f|32|-30 175,4,3,5,0,0,1,1,1,1,0,0,1,1,1,194,
scooby_state_4049e5|43|-19 159,0,18,2,1,0,2,0,2,0,1,1,3,0,5,194,
scooby_state_40482f|37|9 190,0,0,0,0,1,0,1,0,0,1,1,0,0,0,194,
scooby_state_4049e5|45|37 169,0,1,0,3,0,1,2,2,3,2,2,3,2,3,193,
scooby_state_4049e5|63|50 138,0,2,1,1,1,4,0,2,0,2,4,10,7,21,193,
scooby_state_404a14|42|1 193,0,0,0,0,0,0,0,0,0,0,0,0,0,0,193,
scooby_state_4049e5|59|55 172,0,0,0,0,0,0,0,0,1,0,2,2,0,16,193,
scooby_state_40482f|28|1 183,0,0,1,0,0,1,0,1,0,1,2,0,1,3,193,
scooby_state_403e90|56|1 0,1,2,1,1,0,1,0,0,1,1,183,0,0,2,193,
scooby_state_4049e5|46|7 158,1,5,2,2,1,0,0,0,1,1,9,3,5,4,192,
scooby_state_4049e5|54|44 165,0,1,0,1,0,1,2,1,1,2,9,5,1,3,192,
scooby_state_40483c|20|-1 183,0,1,0,0,1,0,0,1,0,1,2,0,2,1,192,
scooby_state_40482f|51|3 171,0,3,0,2,0,4,3,3,0,1,2,0,0,3,192,
scooby_state_403e9a|54|-2 166,1,0,1,1,1,1,1,1,1,0,1,0,2,14,191,
scooby_state_403eb4|55|0 187,0,1,0,0,0,1,0,0,0,1,0,1,0,0,191,
scooby_state_4049e5|14|-3 123,2,19,2,2,0,8,4,5,2,1,4,2,6,11,191,
scooby_state_40482f|32|11 176,3,1,1,0,1,3,0,0,0,0,4,0,0,2,191,
scooby_state_403e90|28|0 0,3,0,0,0,0,0,0,0,2,1,183,1,0,1,191,
scooby_state_4049e5|60|58 166,0,0,12,1,0,2,0,2,1,1,0,3,2,1,191,
scooby_state_403e94|55|0 0,0,0,1,0,1,0,0,0,0,0,189,0,0,0,191,
scooby_state_40482f|55|23 178,2,1,0,1,1,0,2,1,0,1,0,1,1,2,191,
scooby_state_4049e5|54|2 146,4,1,1,0,1,0,0,0,0,1,29,1,2,4,190,
scooby_state_404a14|25|1 189,0,0,0,0,0,0,0,0,1,0,0,0,0,0,190,
scooby_state_403e64|58|-1 140,0,4,4,3,4,3,4,3,2,3,7,5,2,6,190,
scooby_state_40482f|57|30 182,0,0,0,0,1,0,0,0,3,1,1,1,1,0,190,
scooby_state_40482f|30|-6 173,8,0,0,1,0,1,4,0,0,1,1,1,0,0,190,
scooby_state_4049e5|43|33 168,0,0,2,0,2,1,0,2,0,3,1,4,1,5,189,
scooby_state_40482f|62|26 163,1,3,2,1,1,1,2,1,2,1,5,1,2,3,189,
scooby_state_4049e5|43|9 146,0,3,6,7,0,2,2,2,5,2,1,2,3,8,189,
scooby_state_40483c|53|0 176,0,0,0,3,0,0,3,1,1,0,3,0,0,2,189,
scooby_state_404a14|25|0 189,0,0,0,0,0,0,0,0,0,0,0,0,0,0,189,
scooby_state_4049e5|26|26 165,1,2,0,0,2,1,2,1,2,3,0,1,2,7,189,
scooby_state_4049e5|21|13 169,0,1,1,0,0,2,0,0,0,1,0,1,1,13,189,
scooby_state_4049e5|54|23 159,1,0,2,1,1,5,1,0,3,1,0,4,1,10,189,
scooby_state_4049e5|48|33 148,0,2,2,2,1,7,2,3,2,0,1,8,0,10,188,
scooby_state_404097|15|1 173,1,1,1,1,2,1,1,1,1,1,1,1,1,1,188,
scooby_state_4049e5|44|-18 162,0,2,0,3,2,1,0,2,0,1,1,1,5,8,188,
scooby_state_40482f|60|7 166,0,1,3,1,3,3,1,0,0,1,1,2,5,1,188,
scooby_state_40482f|21|3 177,0,1,2,1,2,0,0,1,0,0,1,1,0,2,188,
scooby_state_404097|16|1 174,1,1,1,1,1,1,1,1,1,1,1,1,1,1,188,
scooby_state_404a14|0|0 187,0,0,0,0,0,0,0,0,0,0,0,0,1,0,188,
scooby_state_404cda|13|5 1,187,0,0,0,0,0,0,0,0,0,0,0,0,0,188,
scooby_state_404820|20|-1 1,0,0,0,0,0,0,0,0,0,0,186,1,0,0,188,
scooby_state_404097|20|1 174,1,1,1,1,1,1,1,1,1,1,1,1,1,1,188,
scooby_state_4049e5|54|48 160,0,3,2,1,2,1,1,0,2,1,5,2,2,6,188,
scooby_state_404ce3|10|-3 5,0,182,0,0,0,0,0,0,0,0,1,0,0,0,188,
scooby_state_404097|17|1 174,1,1,1,1,1,1,1,1,1,1,1,1,1,1,188,
scooby_state_4048a0|50|0 29,6,8,8,45,8,6,6,7,6,6,10,8,7,28,188,
scooby_state_404844|48|0 172,10,0,1,1,0,1,1,0,0,0,0,1,0,1,188,
scooby_state_4049e5|49|34 124,6,4,0,5,0,4,5,6,2,0,7,5,4,16,188,
scooby_state_40482f|12|-20 164,2,0,3,0,0,0,1,2,1,3,5,2,2,3,188,
scooby_state_4049e5|39|3 158,0,0,4,4,4,1,3,1,2,1,4,1,1,4,188,
scooby_state_4049e5|32|16 166,1,1,1,2,0,0,0,0,1,0,0,1,2,13,188,
scooby_state_404097|18|1 174,1,1,1,1,1,1,1,1,1,1,1,1,1,1,188,
scooby_state_4049e5|47|41 142,0,6,3,5,3,2,4,1,0,3,4,7,2,6,188,
scooby_state_4045bd|51|0 0,187,0,0,0,0,0,0,1,0,0,0,0,0,0,188,
scooby_state_4049e5|6|3 164,0,0,2,2,3,3,0,2,2,2,0,3,2,3,188,
scooby_state_404097|14|4 174,1,1,1,1,1,1,1,1,1,1,1,1,1,1,188,
scooby_state_404097|19|1 174,1,1,1,1,1,1,1,1,1,1,1,1,1,1,188,
scooby_state_4044fc|50|0 13,13,12,13,14,13,13,9,9,10,10,14,13,13,19,188,
scooby_state_4049e5|38|12 148,1,2,0,2,0,2,3,3,2,6,1,6,7,5,188,
scooby_state_4049e5|52|19 156,0,2,2,0,2,3,1,0,2,1,1,3,2,12,187,
scooby_state_40482f|53|-7 171,1,0,4,1,1,0,1,0,1,1,0,0,2,4,187,
scooby_state_40482f|28|-12 176,1,5,0,0,1,0,1,2,0,0,0,0,1,0,187,
scooby_state_404820|13|0 8,0,172,0,4,0,0,0,0,0,1,0,0,1,1,187,
scooby_state_40482f|53|-1 165,0,1,0,2,1,1,2,1,0,1,2,6,4,1,187,
scooby_state_403e90|21|1 2,2,0,0,0,2,0,0,2,4,0,171,2,2,0,187,
[...]
scooby_state_404823|6|2 0,1,0,0,0,0,0,0,0,0,0,0,0,0,0,1,
scooby_state_403e64|21|-19 0,0,0,0,0,0,0,0,0,0,0,1,0,0,0,1,
scooby_state_404820|15|11 1,0,0,0,0,0,0,0,0,0,0,0,0,0,0,1,
scooby_state_404823|45|45 0,0,0,0,0,0,1,0,0,0,0,0,0,0,0,1,
scooby_state_404823|57|52 1,0,0,0,0,0,0,0,0,0,0,0,0,0,0,1,
scooby_state_404844|39|23 1,0,0,0,0,0,0,0,0,0,0,0,0,0,0,1,
scooby_state_404820|9|-36 0,0,0,0,0,0,0,0,0,1,0,0,0,0,0,1,
scooby_state_404826|42|32 0,1,0,0,0,0,0,0,0,0,0,0,0,0,0,1,
scooby_state_4084b0|1|-47 1,0,0,0,0,0,0,0,0,0,0,0,0,0,0,1,
scooby_state_404841|7|-31 1,0,0,0,0,0,0,0,0,0,0,0,0,0,0,1,
scooby_state_403e54|29|-28 0,0,0,1,0,0,0,0,0,0,0,0,0,0,0,1,
scooby_state_404823|17|6 0,0,0,0,0,0,0,0,0,0,0,0,0,1,0,1,
scooby_state_40483c|62|39 1,0,0,0,0,0,0,0,0,0,0,0,0,0,0,1,
scooby_state_40483c|44|36 0,0,0,0,0,0,0,0,0,0,0,1,0,0,0,1,
scooby_state_404841|56|27 1,0,0,0,0,0,0,0,0,0,0,0,0,0,0,1,
scooby_state_404076|17|-15 1,0,0,0,0,0,0,0,0,0,0,0,0,0,0,1,
scooby_state_404844|54|23 1,0,0,0,0,0,0,0,0,0,0,0,0,0,0,1,
scooby_state_404826|34|4 1,0,0,0,0,0,0,0,0,0,0,0,0,0,0,1,
scooby_state_404826|8|-16 1,0,0,0,0,0,0,0,0,0,0,0,0,0,0,1,
scooby_state_404826|5|-2 1,0,0,0,0,0,0,0,0,0,0,0,0,0,0,1,
scooby_state_4049e5|51|-11 1,0,0,0,0,0,0,0,0,0,0,0,0,0,0,1,
scooby_state_40459f|42|8 1,0,0,0,0,0,0,0,0,0,0,0,0,0,0,1,
scooby_state_404076|3|-24 0,1,0,0,0,0,0,0,0,0,0,0,0,0,0,1,
scooby_state_403cc0|46|22 0,0,0,1,0,0,0,0,0,0,0,0,0,0,0,1,
scooby_state_404841|52|28 0,0,0,0,0,0,0,1,0,0,0,0,0,0,0,1,
scooby_state_404820|19|-23 0,0,0,0,0,0,0,0,0,0,0,1,0,0,0,1,
scooby_state_404826|31|-27 1,0,0,0,0,0,0,0,0,0,0,0,0,0,0,1,
scooby_state_404826|41|6 1,0,0,0,0,0,0,0,0,0,0,0,0,0,0,1,
scooby_state_404820|53|24 0,0,0,1,0,0,0,0,0,0,0,0,0,0,0,1,
scooby_state_403e60|11|-52 0,0,0,0,0,0,0,0,0,0,0,1,0,0,0,1,
scooby_state_403cc0|28|-15 0,1,0,0,0,0,0,0,0,0,0,0,0,0,0,1,
scooby_state_407045|27|8 1,0,0,0,0,0,0,0,0,0,0,0,0,0,0,1,
scooby_state_404841|59|13 1,0,0,0,0,0,0,0,0,0,0,0,0,0,0,1,
scooby_state_404841|55|6 1,0,0,0,0,0,0,0,0,0,0,0,0,0,0,1,
scooby_state_404841|15|5 1,0,0,0,0,0,0,0,0,0,0,0,0,0,0,1,
scooby_state_404826|0|-17 0,0,0,0,0,0,0,0,0,0,0,1,0,0,0,1,
scooby_state_4049e5|42|-11 1,0,0,0,0,0,0,0,0,0,0,0,0,0,0,1,
scooby_state_4048bc|40|-2 0,1,0,0,0,0,0,0,0,0,0,0,0,0,0,1,
scooby_state_4048bc|42|-8 0,0,0,0,0,0,0,0,0,0,0,0,0,0,1,1,
scooby_state_4048bc|46|-13 0,0,0,0,0,0,0,0,0,0,0,0,0,1,0,1,
scooby_state_403e90|55|1 0,0,0,0,0,0,0,0,0,0,0,1,0,0,0,1,
scooby_state_4048bc|3|-18 1,0,0,0,0,0,0,0,0,0,0,0,0,0,0,1,
scooby_state_404826|47|39 1,0,0,0,0,0,0,0,0,0,0,0,0,0,0,1,
scooby_state_4060db|59|-2 0,0,0,1,0,0,0,0,0,0,0,0,0,0,0,1,
scooby_state_403e94|22|19 0,0,0,0,0,0,0,0,0,0,0,1,0,0,0,1,
scooby_state_4045db|44|0 0,0,0,0,1,0,0,0,0,0,0,0,0,0,0,1,
scooby_state_404076|50|9 0,0,0,0,0,0,0,0,0,0,0,1,0,0,0,1,
scooby_state_40409b|59|31 0,0,0,0,0,0,0,0,0,0,0,0,1,0,0,1,
scooby_state_404076|55|12 0,0,0,0,0,0,0,0,0,0,0,1,0,0,0,1,
scooby_state_40409b|63|24 1,0,0,0,0,0,0,0,0,0,0,0,0,0,0,1,
scooby_state_404820|61|21 0,0,1,0,0,0,0,0,0,0,0,0,0,0,0,1,
scooby_state_403e50|23|2 0,0,0,0,0,0,0,0,0,0,0,1,0,0,0,1,
scooby_state_404841|19|-27 1,0,0,0,0,0,0,0,0,0,0,0,0,0,0,1,
scooby_state_404076|47|-5 0,1,0,0,0,0,0,0,0,0,0,0,0,0,0,1,
scooby_state_404826|54|30 1,0,0,0,0,0,0,0,0,0,0,0,0,0,0,1,
scooby_state_404820|8|-17 0,0,0,1,0,0,0,0,0,0,0,0,0,0,0,1,
scooby_state_4048aa|36|27 1,0,0,0,0,0,0,0,0,0,0,0,0,0,0,1,
scooby_state_40409b|42|10 1,0,0,0,0,0,0,0,0,0,0,0,0,0,0,1,
scooby_state_403cc0|60|46 0,0,0,0,0,0,0,0,1,0,0,0,0,0,0,1,
scooby_state_4049cc|6|3 0,1,0,0,0,0,0,0,0,0,0,0,0,0,0,1,
scooby_state_404844|25|-31 0,1,0,0,0,0,0,0,0,0,0,0,0,0,0,1,
scooby_state_404841|7|-39 0,0,0,0,0,0,0,0,0,0,0,0,0,0,1,1,
scooby_state_404841|16|4 0,0,0,0,0,1,0,0,0,0,0,0,0,0,0,1,
scooby_state_404826|29|23 1,0,0,0,0,0,0,0,0,0,0,0,0,0,0,1,
scooby_state_404820|6|-27 0,0,1,0,0,0,0,0,0,0,0,0,0,0,0,1,
scooby_state_404844|8|-51 0,1,0,0,0,0,0,0,0,0,0,0,0,0,0,1,
scooby_state_40483c|37|11 1,0,0,0,0,0,0,0,0,0,0,0,0,0,0,1,
scooby_state_404841|3|-44 0,1,0,0,0,0,0,0,0,0,0,0,0,0,0,1,
scooby_state_404820|35|5 0,0,0,0,0,0,0,1,0,0,0,0,0,0,0,1,
scooby_state_404820|2|-22 0,0,0,1,0,0,0,0,0,0,0,0,0,0,0,1,
scooby_state_407045|16|-15 0,0,0,0,0,0,0,0,0,0,0,0,0,1,0,1,
scooby_state_403cc0|4|-55 0,0,0,0,0,0,0,0,0,0,0,0,0,0,1,1,
scooby_state_404826|6|-28 1,0,0,0,0,0,0,0,0,0,0,0,0,0,0,1,
scooby_state_404826|50|11 1,0,0,0,0,0,0,0,0,0,0,0,0,0,0,1,
scooby_state_404844|32|25 0,0,0,0,0,0,0,0,0,0,0,1,0,0,0,1,
scooby_state_40409b|51|34 1,0,0,0,0,0,0,0,0,0,0,0,0,0,0,1,
scooby_state_403e54|17|0 0,1,0,0,0,0,0,0,0,0,0,0,0,0,0,1,
scooby_state_404841|25|-26 1,0,0,0,0,0,0,0,0,0,0,0,0,0,0,1,
scooby_state_404820|13|-5 0,0,0,0,0,0,0,0,0,0,0,1,0,0,0,1,
scooby_state_4049e5|15|-5 1,0,0,0,0,0,0,0,0,0,0,0,0,0,0,1,
scooby_state_407045|31|-27 0,1,0,0,0,0,0,0,0,0,0,0,0,0,0,1,
scooby_state_404826|14|-6 0,0,0,0,0,0,0,0,0,0,0,0,0,1,0,1,
scooby_state_404841|34|-5 0,0,0,0,0,0,0,0,1,0,0,0,0,0,0,1,
scooby_state_403cc0|48|40 1,0,0,0,0,0,0,0,0,0,0,0,0,0,0,1,
scooby_state_403cc0|21|-25 0,0,0,0,0,0,0,0,0,0,0,1,0,0,0,1,
scooby_state_404841|20|5 1,0,0,0,0,0,0,0,0,0,0,0,0,0,0,1,
scooby_state_404076|58|45 0,1,0,0,0,0,0,0,0,0,0,0,0,0,0,1,
scooby_state_404844|8|-50 1,0,0,0,0,0,0,0,0,0,0,0,0,0,0,1,
scooby_state_404826|56|12 0,0,0,0,0,0,0,0,0,0,0,0,1,0,0,1,
scooby_state_404826|55|46 1,0,0,0,0,0,0,0,0,0,0,0,0,0,0,1,
scooby_state_4048aa|22|12 0,0,0,0,0,0,0,0,0,0,0,1,0,0,0,1,
scooby_state_404841|11|2 1,0,0,0,0,0,0,0,0,0,0,0,0,0,0,1,
scooby_state_404844|14|-34 1,0,0,0,0,0,0,0,0,0,0,0,0,0,0,1,
scooby_state_404841|21|-18 1,0,0,0,0,0,0,0,0,0,0,0,0,0,0,1,
scooby_state_404826|43|38 1,0,0,0,0,0,0,0,0,0,0,0,0,0,0,1,
scooby_state_404826|2|-38 0,0,0,0,0,0,0,0,0,0,0,0,1,0,0,1,
scooby_state_40459f|43|35 1,0,0,0,0,0,0,0,0,0,0,0,0,0,0,1,
scooby_state_404844|60|43 0,0,0,0,0,0,0,0,0,0,0,0,0,0,1,1,
scooby_state_40409b|44|42 1,0,0,0,0,0,0,0,0,0,0,0,0,0,0,1,
scooby_state_404076|60|30 0,0,0,0,0,0,0,0,0,0,0,1,0,0,0,1,
scooby_state_404826|62|-1 1,0,0,0,0,0,0,0,0,0,0,0,0,0,0,1,
scooby_state_404076|59|12 0,0,0,0,0,0,0,0,0,0,0,1,0,0,0,1,
scooby_state_404826|37|27 1,0,0,0,0,0,0,0,0,0,0,0,0,0,0,1,
scooby_state_4049e5|2|-32 1,0,0,0,0,0,0,0,0,0,0,0,0,0,0,1,
scooby_state_4049e5|53|38 1,0,0,0,0,0,0,0,0,0,0,0,0,0,0,1,
scooby_state_4049e5|51|24 1,0,0,0,0,0,0,0,0,0,0,0,0,0,0,1,
scooby_state_4049e5|35|13 1,0,0,0,0,0,0,0,0,0,0,0,0,0,0,1,
scooby_state_40409b|62|15 1,0,0,0,0,0,0,0,0,0,0,0,0,0,0,1,
scooby_state_404076|36|-27 0,1,0,0,0,0,0,0,0,0,0,0,0,0,0,1,
scooby_state_404820|0|-47 0,0,0,0,0,0,0,0,0,0,0,0,1,0,0,1,
scooby_state_40409b|47|-5 1,0,0,0,0,0,0,0,0,0,0,0,0,0,0,1,
scooby_state_404844|47|37 0,1,0,0,0,0,0,0,0,0,0,0,0,0,0,1,
scooby_state_40459f|51|23 1,0,0,0,0,0,0,0,0,0,0,0,0,0,0,1,
scooby_state_4048aa|29|-19 0,0,0,0,0,1,0,0,0,0,0,0,0,0,0,1,
scooby_state_40409b|7|-53 0,1,0,0,0,0,0,0,0,0,0,0,0,0,0,1,
scooby_state_404844|61|60 1,0,0,0,0,0,0,0,0,0,0,0,0,0,0,1,
scooby_state_403e94|44|2 0,0,0,0,0,0,0,0,0,0,0,1,0,0,0,1,
scooby_state_404076|7|2 1,0,0,0,0,0,0,0,0,0,0,0,0,0,0,1,
scooby_state_40483c|22|-30 1,0,0,0,0,0,0,0,0,0,0,0,0,0,0,1,
scooby_state_404823|40|18 0,1,0,0,0,0,0,0,0,0,0,0,0,0,0,1,
scooby_state_404826|11|5 0,1,0,0,0,0,0,0,0,0,0,0,0,0,0,1,
scooby_state_404841|17|-27 1,0,0,0,0,0,0,0,0,0,0,0,0,0,0,1,
scooby_state_404629|43|0 1,0,0,0,0,0,0,0,0,0,0,0,0,0,0,1,
scooby_state_404823|53|48 0,1,0,0,0,0,0,0,0,0,0,0,0,0,0,1,
scooby_state_4045db|36|0 0,1,0,0,0,0,0,0,0,0,0,0,0,0,0,1,
scooby_state_40409b|63|30 1,0,0,0,0,0,0,0,0,0,0,0,0,0,0,1,
scooby_state_404841|17|-35 1,0,0,0,0,0,0,0,0,0,0,0,0,0,0,1,
scooby_state_40409b|36|24 1,0,0,0,0,0,0,0,0,0,0,0,0,0,0,1,
scooby_state_403cc0|52|37 1,0,0,0,0,0,0,0,0,0,0,0,0,0,0,1,
scooby_state_404820|9|-35 0,0,1,0,0,0,0,0,0,0,0,0,0,0,0,1,
scooby_state_404826|2|-39 1,0,0,0,0,0,0,0,0,0,0,0,0,0,0,1,
scooby_state_404076|21|-1 1,0,0,0,0,0,0,0,0,0,0,0,0,0,0,1,
scooby_state_407045|5|-31 1,0,0,0,0,0,0,0,0,0,0,0,0,0,0,1,
scooby_state_40409b|47|36 0,1,0,0,0,0,0,0,0,0,0,0,0,0,0,1,
scooby_state_404841|5|-12 1,0,0,0,0,0,0,0,0,0,0,0,0,0,0,1,
scooby_state_403cc0|58|-5 0,0,0,0,0,0,0,0,0,0,0,0,0,1,0,1,
scooby_state_404823|28|13 0,0,0,1,0,0,0,0,0,0,0,0,0,0,0,1,
scooby_state_40409b|6|-41 0,1,0,0,0,0,0,0,0,0,0,0,0,0,0,1,
scooby_state_404820|50|17 0,0,1,0,0,0,0,0,0,0,0,0,0,0,0,1,
scooby_state_404823|59|0 0,0,0,0,0,0,0,0,1,0,0,0,0,0,0,1,
scooby_state_404841|23|-22 1,0,0,0,0,0,0,0,0,0,0,0,0,0,0,1,
scooby_state_40483c|48|3 1,0,0,0,0,0,0,0,0,0,0,0,0,0,0,1,
scooby_state_403e94|52|-3 0,0,0,0,0,0,0,0,0,0,0,1,0,0,0,1,
scooby_state_4049e5|45|-16 1,0,0,0,0,0,0,0,0,0,0,0,0,0,0,1,
scooby_state_404841|22|2 0,1,0,0,0,0,0,0,0,0,0,0,0,0,0,1,
scooby_state_404823|41|19 1,0,0,0,0,0,0,0,0,0,0,0,0,0,0,1,
scooby_state_404841|52|4 0,0,1,0,0,0,0,0,0,0,0,0,0,0,0,1,
scooby_state_404826|15|15 1,0,0,0,0,0,0,0,0,0,0,0,0,0,0,1,
scooby_state_404841|40|13 1,0,0,0,0,0,0,0,0,0,0,0,0,0,0,1,
scooby_state_404826|28|13 0,0,0,0,0,0,0,0,0,0,0,1,0,0,0,1,
scooby_state_405d41|53|1 0,0,1,0,0,0,0,0,0,0,0,0,0,0,0,1,
scooby_state_403cc0|12|-16 1,0,0,0,0,0,0,0,0,0,0,0,0,0,0,1,
scooby_state_403cc0|24|-33 0,0,0,0,0,0,0,0,1,0,0,0,0,0,0,1,
scooby_state_4049e5|48|47 1,0,0,0,0,0,0,0,0,0,0,0,0,0,0,1,
scooby_state_40483c|25|-4 1,0,0,0,0,0,0,0,0,0,0,0,0,0,0,1,
scooby_state_4048bc|63|40 0,0,0,0,0,0,0,0,0,0,0,0,0,0,1,1,
scooby_state_404841|6|-51 0,1,0,0,0,0,0,0,0,0,0,0,0,0,0,1,
scooby_state_404076|12|-23 0,1,0,0,0,0,0,0,0,0,0,0,0,0,0,1,
scooby_state_404820|30|20 1,0,0,0,0,0,0,0,0,0,0,0,0,0,0,1,
scooby_state_404826|7|-24 1,0,0,0,0,0,0,0,0,0,0,0,0,0,0,1,
scooby_state_404820|44|26 0,0,0,0,0,0,0,0,0,0,0,1,0,0,0,1,
scooby_state_404841|37|-22 1,0,0,0,0,0,0,0,0,0,0,0,0,0,0,1,
scooby_state_404826|34|32 0,1,0,0,0,0,0,0,0,0,0,0,0,0,0,1,
scooby_state_404841|14|10 0,0,1,0,0,0,0,0,0,0,0,0,0,0,0,1,
scooby_state_4049e5|47|33 0,0,0,0,0,0,0,0,0,0,0,0,0,0,1,1,
scooby_state_404826|33|29 1,0,0,0,0,0,0,0,0,0,0,0,0,0,0,1,
scooby_state_404841|50|2 0,1,0,0,0,0,0,0,0,0,0,0,0,0,0,1,
scooby_state_4048aa|36|32 0,1,0,0,0,0,0,0,0,0,0,0,0,0,0,1,
scooby_state_404823|5|4 0,0,0,0,0,0,0,0,0,0,0,1,0,0,0,1,
scooby_state_404823|21|21 0,0,0,0,0,0,0,0,0,0,0,1,0,0,0,1,
scooby_state_404076|41|23 0,1,0,0,0,0,0,0,0,0,0,0,0,0,0,1,
scooby_state_403e54|19|-13 1,0,0,0,0,0,0,0,0,0,0,0,0,0,0,1,
scooby_state_40409b|50|22 1,0,0,0,0,0,0,0,0,0,0,0,0,0,0,1,
scooby_state_4048bc|19|-39 1,0,0,0,0,0,0,0,0,0,0,0,0,0,0,1,
scooby_state_403ed7|1|1 0,1,0,0,0,0,0,0,0,0,0,0,0,0,0,1,
scooby_state_404823|14|11 0,0,0,0,0,0,0,0,0,0,0,1,0,0,0,1,
scooby_state_404826|23|2 0,0,0,0,0,0,0,0,0,0,0,0,1,0,0,1,
scooby_state_403ce9|56|13 1,0,0,0,0,0,0,0,0,0,0,0,0,0,0,1,
scooby_state_403cc0|44|30 1,0,0,0,0,0,0,0,0,0,0,0,0,0,0,1,
scooby_state_404076|9|-1 1,0,0,0,0,0,0,0,0,0,0,0,0,0,0,1,
scooby_state_404826|18|-45 1,0,0,0,0,0,0,0,0,0,0,0,0,0,0,1,
scooby_state_403ce9|12|-8 0,0,0,0,0,0,0,0,0,0,0,1,0,0,0,1,
scooby_state_404841|42|8 1,0,0,0,0,0,0,0,0,0,0,0,0,0,0,1,
scooby_state_404844|54|20 1,0,0,0,0,0,0,0,0,0,0,0,0,0,0,1,
scooby_state_404844|56|15 1,0,0,0,0,0,0,0,0,0,0,0,0,0,0,1,
scooby_state_404841|22|12 1,0,0,0,0,0,0,0,0,0,0,0,0,0,0,1,
scooby_state_403cc0|9|-26 1,0,0,0,0,0,0,0,0,0,0,0,0,0,0,1,
scooby_state_404826|48|-14 1,0,0,0,0,0,0,0,0,0,0,0,0,0,0,1,
scooby_state_404823|47|-1 1,0,0,0,0,0,0,0,0,0,0,0,0,0,0,1,
scooby_state_40409b|31|31 1,0,0,0,0,0,0,0,0,0,0,0,0,0,0,1,
scooby_state_404841|53|41 1,0,0,0,0,0,0,0,0,0,0,0,0,0,0,1,
scooby_state_404826|43|10 1,0,0,0,0,0,0,0,0,0,0,0,0,0,0,1,
scooby_state_404841|39|35 1,0,0,0,0,0,0,0,0,0,0,0,0,0,0,1,
scooby_state_4049e5|58|48 1,0,0,0,0,0,0,0,0,0,0,0,0,0,0,1,
scooby_state_404841|36|2 0,1,0,0,0,0,0,0,0,0,0,0,0,0,0,1,
scooby_state_404652|19|0 0,0,0,0,0,0,0,0,0,0,0,1,0,0,0,1,
scooby_state_404823|61|56 0,0,0,0,0,0,0,0,0,0,0,1,0,0,0,1,
scooby_state_403ee8|56|-1 0,0,0,0,0,0,0,0,0,0,0,0,0,0,1,1,
scooby_state_404820|37|31 0,0,0,1,0,0,0,0,0,0,0,0,0,0,0,1,
scooby_state_404a80|42|0 1,0,0,0,0,0,0,0,0,0,0,0,0,0,0,1,
scooby_state_404844|35|27 1,0,0,0,0,0,0,0,0,0,0,0,0,0,0,1,
scooby_state_404844|53|28 1,0,0,0,0,0,0,0,0,0,0,0,0,0,0,1,
scooby_state_403e64|20|-17 1,0,0,0,0,0,0,0,0,0,0,0,0,0,0,1,
scooby_state_404844|49|15 1,0,0,0,0,0,0,0,0,0,0,0,0,0,0,1,
scooby_state_404841|40|29 1,0,0,0,0,0,0,0,0,0,0,0,0,0,0,1,
scooby_state_404826|18|-32 0,1,0,0,0,0,0,0,0,0,0,0,0,0,0,1,
scooby_state_404820|55|9 0,0,1,0,0,0,0,0,0,0,0,0,0,0,0,1,
scooby_state_404841|53|29 1,0,0,0,0,0,0,0,0,0,0,0,0,0,0,1,
scooby_state_404823|48|3 1,0,0,0,0,0,0,0,0,0,0,0,0,0,0,1,
scooby_state_404823|45|0 1,0,0,0,0,0,0,0,0,0,0,0,0,0,0,1,
scooby_state_404076|24|-27 0,1,0,0,0,0,0,0,0,0,0,0,0,0,0,1,
scooby_state_403e60|41|-3 0,0,0,0,0,0,0,0,0,0,0,1,0,0,0,1,
scooby_state_404823|59|19 1,0,0,0,0,0,0,0,0,0,0,0,0,0,0,1,

scooby_action_0_deg_dist 0,65264,0,0,0,0,0,0,0,0,0,0,0,0,0,0,
scooby_action_-6_deg_dist 0,8164,83,0,52,0,10,0,0,0,0,0,0,0,0,0,
scooby_action_4_deg_dist 0,10420,170,0,122,0,15,0,0,0,0,0,0,0,0,0,
scooby_action_1_deg_dist 0,1597852,69185,0,79491,0,183951,0,0,0,0,0,0,0,0,0,
scooby_action_30_deg_dist 0,6909,174,0,391,0,3130,0,0,0,0,0,0,0,0,0,
scooby_action_5_deg_dist 0,11770,1081,0,1498,0,7030,0,0,0,0,0,0,0,0,0,
scooby_action_3_deg_dist 0,72477,27166,0,66791,0,706630,0,0,0,0,0,0,0,0,0,
scooby_action_32_deg_dist 0,6435,24,0,28,0,2,0,0,0,0,0,0,0,0,0,
scooby_action_10_deg_dist 0,7828,62,0,20,0,0,0,0,0,0,0,0,0,0,0,
scooby_action_11_deg_dist 0,7772,63,0,30,0,0,0,0,0,0,0,0,0,0,0,
scooby_action_12_deg_dist 0,7852,55,0,21,0,0,0,0,0,0,0,0,0,0,0,
scooby_action_22_deg_dist 0,6907,32,0,15,0,0,0,0,0,0,0,0,0,0,0,
scooby_action_23_deg_dist 0,7095,24,0,11,0,0,0,0,0,0,0,0,0,0,0,
scooby_action_-1_deg_dist 0,57076,1795,0,2669,0,6363,0,0,0,0,0,0,0,0,0,
scooby_action_-3_deg_dist 0,8822,91,0,51,0,5,0,0,0,0,0,0,0,0,0,

scooby_track_called 3040974
scooby_track_same_address 39387
scooby_track_evict 3001331

scooby_reward_demand_called 3040974
scooby_reward_demand_pt_not_found 2111491
scooby_reward_demand_pt_found 929483
scooby_reward_demand_pt_found_total 929483
scooby_reward_demand_has_reward 2277
scooby_reward_train_called 1982218
scooby_reward_assign_reward_called 3001342
scooby_reward_no_pref 65264
scooby_reward_incorrect 1916954
scooby_reward_correct_untimely 814959
scooby_reward_correct_timely 112247
scooby_reward_out_of_bounds 91918
scooby_reward_tracker_hit 0

scooby_reward_none_low_bw 65264
scooby_reward_none_high_bw 0
scooby_reward_incorrect_low_bw 1916954
scooby_reward_incorrect_high_bw 0
scooby_reward_correct_untimely_low_bw 814959
scooby_reward_correct_untimely_high_bw 0
scooby_reward_correct_timely_low_bw 112247
scooby_reward_correct_timely_high_bw 0
scooby_reward_out_of_bounds_low_bw 91918
scooby_reward_out_of_bounds_high_bw 0
scooby_reward_tracker_hit_low_bw 0
scooby_reward_tracker_hit_high_bw 0

scooby_reward_1 0,1793548,53597,28623,28331,0,
scooby_reward_3 0,27445,726013,75574,41096,0,
scooby_reward_4 0,7777,945,374,670,0,
scooby_reward_5 0,9391,6861,1511,1700,0,
scooby_reward_10 0,5689,332,143,1422,0,
scooby_reward_11 0,5724,278,114,1427,0,
scooby_reward_12 0,5491,343,131,1604,0,
scooby_reward_22 0,3860,134,165,2551,0,
scooby_reward_23 0,3848,243,135,2671,0,
scooby_reward_30 0,3059,135,2161,5029,0,
scooby_reward_32 0,2769,76,114,3304,0,
scooby_reward_-1 0,34303,25249,2905,1062,0,
scooby_reward_-3 0,7256,482,192,425,0,
scooby_reward_-6 0,6794,271,105,626,0,
scooby_reward_0 65264,0,0,0,0,0,

scooby_train_called 3001330
scooby_train_compute_reward 1982218

scooby_register_fill_called 2476373
scooby_register_fill_set 1578544
scooby_register_fill_set_total 1578544

scooby_register_prefetch_hit_called 3564831
scooby_register_prefetch_hit_set 1335788
scooby_register_prefetch_hit_set_total 1335788

scooby_pref_issue_scooby 6978194

learning_engine_featurewise.action.called 3040974
learning_engine_featurewise.action.explore 5526
learning_engine_featurewise.action.exploit 3035448
learning_engine_featurewise.action.fallback 1872188
learning_engine_featurewise.action.dyn_fallback_saved_bw 0
learning_engine_featurewise.action.dyn_fallback_saved_bw_acc 102928
learning_engine_featurewise.action.index_1_explored 360
learning_engine_featurewise.action.index_1_exploited 1930119
learning_engine_featurewise.action.index_3_explored 390
learning_engine_featurewise.action.index_3_exploited 872674
learning_engine_featurewise.action.index_4_explored 386
learning_engine_featurewise.action.index_4_exploited 10341
learning_engine_featurewise.action.index_5_explored 340
learning_engine_featurewise.action.index_5_exploited 21039
learning_engine_featurewise.action.index_10_explored 411
learning_engine_featurewise.action.index_10_exploited 7499
learning_engine_featurewise.action.index_11_explored 384
learning_engine_featurewise.action.index_11_exploited 7481
learning_engine_featurewise.action.index_12_explored 378
learning_engine_featurewise.action.index_12_exploited 7550
learning_engine_featurewise.action.index_22_explored 366
learning_engine_featurewise.action.index_22_exploited 6588
learning_engine_featurewise.action.index_23_explored 372
learning_engine_featurewise.action.index_23_exploited 6758
learning_engine_featurewise.action.index_30_explored 357
learning_engine_featurewise.action.index_30_exploited 10247
learning_engine_featurewise.action.index_32_explored 332
learning_engine_featurewise.action.index_32_exploited 6157
learning_engine_featurewise.action.index_-1_explored 373
learning_engine_featurewise.action.index_-1_exploited 67530
learning_engine_featurewise.action.index_-3_explored 366
learning_engine_featurewise.action.index_-3_exploited 8603
learning_engine_featurewise.action.index_-6_explored 344
learning_engine_featurewise.action.index_-6_exploited 7965
learning_engine_featurewise.action.index_0_explored 367
learning_engine_featurewise.action.index_0_exploited 64897
learning_engine_featurewise.learn.called 3001330
learning_engine_featurewise.learn.su_skip_PC 0
learning_engine_featurewise.learn.su_skip_PC_Delta 0

learning_engine_featurewise.q_value_histogram.bucket_0 53868
learning_engine_featurewise.q_value_histogram.bucket_1 11332
learning_engine_featurewise.q_value_histogram.bucket_2 1951717
learning_engine_featurewise.q_value_histogram.bucket_3 56470
learning_engine_featurewise.q_value_histogram.bucket_4 69835
learning_engine_featurewise.q_value_histogram.bucket_5 20025
learning_engine_featurewise.q_value_histogram.bucket_6 872201
learning_engine_featurewise.q_value_histogram.bucket_7 0

learning_engine_featurewise.consensus.total 3035448
learning_engine_featurewise.consensus.feature_align_PC 2844647
learning_engine_featurewise.consensus.feature_align_PC_ratio 0.94
learning_engine_featurewise.consensus.feature_align_PC_Delta 2918030
learning_engine_featurewise.consensus.feature_align_PC_Delta_ratio 0.96
learning_engine_featurewise.consensus.feature_align_all 2792427
learning_engine_featurewise.consensus.feature_align_all_ratio 0.92

learning_engine_featurewise.feature_PC_min_weight 1000000.00000000
learning_engine_featurewise.feature_PC_max_weight 0.00000000
learning_engine_featurewise.feature_PC_Delta_min_weight 1000000.00000000
learning_engine_featurewise.feature_PC_Delta_max_weight 0.00000000
unique_pcs 189
unique_pages 14640
unique_trigger_pcs 93
total_bitmaps_seen 0
unique_bitmaps_seen 0

scooby_bw_epochs 751401
scooby_bw_level_0 582359
scooby_bw_level_1 107954
scooby_bw_level_2 38695
scooby_bw_level_3 22393

scooby_ipc_epochs 0
scooby_ipc_level_0 0
scooby_ipc_level_1 0
scooby_ipc_level_2 0
scooby_ipc_level_3 0

scooby_cache_acc_epochs 186256
scooby_cache_acc_level_0 59110
scooby_cache_acc_level_1 16537
scooby_cache_acc_level_2 17362
scooby_cache_acc_level_3 38838
scooby_cache_acc_level_4 26866
scooby_cache_acc_level_5 15515
scooby_cache_acc_level_6 4790
scooby_cache_acc_level_7 2398
scooby_cache_acc_level_8 1239
scooby_cache_acc_level_9 3601

Channel_0_RQ_row_buffer_hit 570991
Channel_0_RQ_row_buffer_miss 573327
Channel_0_WQ_row_buffer_hit 779
Channel_0_WQ_row_buffer_miss 3079
Channel_0_WQ_full 0
Channel_0_dbus_congested 570277

avg_congested_cycle 9

DRAM_bw_pochs 751401
DRAM_bw_level_0 582359
DRAM_bw_level_1 107954
DRAM_bw_level_2 38695
DRAM_bw_level_3 22393
