*************************************************
   ChampSim Multicore Out-of-Order Simulator
   Last compiled: Apr  3 2025 20:54:34
*************************************************
parsing config file: /home/zir/Pythia/config/mlop.ini

trace_0 /home/zir/ChampSim/ML-DPC/ChampSimTraces/spec17/602.gcc-s3.trace.xz
adding L2C_PREFETCHER: MLOP
Initialize SHIP state
warmup_instructions 10000000
simulation_instructions 50000000
champsim_seed 166
measure_ipc 0
measure_ipc_epoch 1000
measure_dram_bw 1
measure_dram_bw_epoch 256
measure_cache_acc 1
measure_cache_acc_epoch 1024
l1d_perfect 0
l2c_perfect 0
llc_perfect 0
l1d_semi_perfect 0
l2c_semi_perfect 0
llc_semi_perfect 0
semi_perfect_cache_page_buffer_size 64

num_cpus 1
cpu_freq 4000
dram_io_freq 2400
page_size 4096
block_size 64
max_read_per_cycle 8
max_fill_per_cycle 1
dram_channels 1
log2_dram_channels 0
dram_ranks 1
dram_banks 8
dram_rows 65536
dram_columns 128
dram_row_size 8
dram_size 4096
dram_pages 1048576

fetch_width 6
decode_width 6
exec_width 4
lq_width 2
sq_width 2
retire_width 4
scheduler_size 128
branch_mispredict_penalty 20
rob_size 256
lq_size 72
sq_size 56
num_instr_destinations_sparc 4
num_instr_destinations 2
num_instr_sources 4

itlb_set 16
itlb_way 8
itlb_rq_size 16
itlb_wq_size 16
itlb_pq_size 0
itlb_mshr_size 8
itlb_latency 1

dtlb_set 16
dtlb_way 4
dtlb_rq_size 16
dtlb_wq_size 16
dtlb_pq_size 0
dtlb_mshr_size 8
dtlb_latency 1

stlb_set 128
stlb_way 12
stlb_rq_size 32
stlb_wq_size 32
stlb_pq_size 0
stlb_mshr_size 16
stlb_latency 8

l1i_size 32
l1i_set 64
l1i_way 8
l1i_rq_size 64
l1i_wq_size 64
l1i_pq_size 8
l1i_mshr_size 8
l1i_latency 1

l1d_size 32
l1d_set 64
l1d_way 8
l1d_rq_size 64
l1d_wq_size 64
l1d_pq_size 8
l1d_mshr_size 16
l1d_latency 4

l2c_size 256
l2c_set 512
l2c_way 8
l2c_rq_size 32
l2c_wq_size 32
l2c_pq_size 32
l2c_mshr_size 32
l2c_latency 10

llc_size 2048
llc_set 2048
llc_way 16
llc_rq_size 32
llc_wq_size 32
llc_pq_size 32
llc_mshr_size 64
llc_latency 20

dram_channel_width 8
dram_wq_size 64
dram_rq_size 64
tRP 15
tRCD 15
tCAS 12.5
dram_dbus_turn_around_time 30
dram_write_high_wm 56
dram_write_low_wm 48
min_dram_writes_per_switch 16
dram_mtps 2400
dram_dbus_return_time 13

mlop_pref_degree 16
mlop_num_updates 500
mlop_l1d_thresh 2
mlop_l2c_thresh 0.75
mlop_llc_thresh 0.3
mlop_debug_level 0
mlop_blocks_in_cache 4096
mlop_blocks_in_zone 64
mlop_amt_size 2048
mlop_PF_DEGREE 16
mlop_NUM_UPDATES 500
mlop_L1D_THRESH 1000
mlop_L2C_THRESH 375
mlop_LLC_THRESH 150
mlop_ORIGIN 63
mlop_MAX_OFFSET 63
mlop_MIN_OFFSET -63
mlop_ORIGIN 63
mlop_NUM_OFFSETS 127


Heartbeat CPU  0 instructions:    1000003 cycles:     541601 heartbeat IPC: 1.84638 cumulative IPC: 1.84638 (Simulation time: 0 hr 0 min 2 sec) 
Heartbeat CPU  0 instructions:    2000002 cycles:    1081977 heartbeat IPC: 1.85056 cumulative IPC: 1.84847 (Simulation time: 0 hr 0 min 4 sec) 
Heartbeat CPU  0 instructions:    3000001 cycles:    1620071 heartbeat IPC: 1.85841 cumulative IPC: 1.85177 (Simulation time: 0 hr 0 min 6 sec) 
Heartbeat CPU  0 instructions:    4000000 cycles:    2159300 heartbeat IPC: 1.85450 cumulative IPC: 1.85245 (Simulation time: 0 hr 0 min 7 sec) 
Heartbeat CPU  0 instructions:    5000002 cycles:    2698324 heartbeat IPC: 1.85521 cumulative IPC: 1.85300 (Simulation time: 0 hr 0 min 9 sec) 
Heartbeat CPU  0 instructions:    6000002 cycles:    3236560 heartbeat IPC: 1.85792 cumulative IPC: 1.85382 (Simulation time: 0 hr 0 min 11 sec) 
Heartbeat CPU  0 instructions:    7000001 cycles:    3776405 heartbeat IPC: 1.85238 cumulative IPC: 1.85362 (Simulation time: 0 hr 0 min 12 sec) 
Heartbeat CPU  0 instructions:    8000000 cycles:    4320400 heartbeat IPC: 1.83825 cumulative IPC: 1.85168 (Simulation time: 0 hr 0 min 14 sec) 
Heartbeat CPU  0 instructions:    9000001 cycles:    4867242 heartbeat IPC: 1.82868 cumulative IPC: 1.84910 (Simulation time: 0 hr 0 min 16 sec) 
Heartbeat CPU  0 instructions:   10000000 cycles:    5407793 heartbeat IPC: 1.84996 cumulative IPC: 1.84918 (Simulation time: 0 hr 0 min 17 sec) 

Warmup complete CPU  0 instructions:   10000001 cycles:    5407795 (Simulation time: 0 hr 0 min 17 sec) 

Heartbeat CPU  0 instructions:   11000000 cycles:    7685970 heartbeat IPC: 0.43895 cumulative IPC: 0.43895 (Simulation time: 0 hr 0 min 20 sec) 
Heartbeat CPU  0 instructions:   12000000 cycles:    9978460 heartbeat IPC: 0.43621 cumulative IPC: 0.43757 (Simulation time: 0 hr 0 min 22 sec) 
Heartbeat CPU  0 instructions:   13000002 cycles:   12300097 heartbeat IPC: 0.43073 cumulative IPC: 0.43527 (Simulation time: 0 hr 0 min 25 sec) 
Heartbeat CPU  0 instructions:   14000002 cycles:   14674524 heartbeat IPC: 0.42115 cumulative IPC: 0.43165 (Simulation time: 0 hr 0 min 27 sec) 
Heartbeat CPU  0 instructions:   15000001 cycles:   16980825 heartbeat IPC: 0.43359 cumulative IPC: 0.43204 (Simulation time: 0 hr 0 min 30 sec) 
Heartbeat CPU  0 instructions:   16000000 cycles:   19274671 heartbeat IPC: 0.43595 cumulative IPC: 0.43269 (Simulation time: 0 hr 0 min 32 sec) 
Heartbeat CPU  0 instructions:   17000000 cycles:   21559728 heartbeat IPC: 0.43763 cumulative IPC: 0.43338 (Simulation time: 0 hr 0 min 35 sec) 
Heartbeat CPU  0 instructions:   18000000 cycles:   23846065 heartbeat IPC: 0.43738 cumulative IPC: 0.43388 (Simulation time: 0 hr 0 min 38 sec) 
Heartbeat CPU  0 instructions:   19000000 cycles:   26142669 heartbeat IPC: 0.43543 cumulative IPC: 0.43405 (Simulation time: 0 hr 0 min 40 sec) 
Heartbeat CPU  0 instructions:   20000000 cycles:   28425502 heartbeat IPC: 0.43805 cumulative IPC: 0.43445 (Simulation time: 0 hr 0 min 43 sec) 
Heartbeat CPU  0 instructions:   21000003 cycles:   30707548 heartbeat IPC: 0.43820 cumulative IPC: 0.43479 (Simulation time: 0 hr 0 min 45 sec) 
Heartbeat CPU  0 instructions:   22000002 cycles:   32984505 heartbeat IPC: 0.43918 cumulative IPC: 0.43515 (Simulation time: 0 hr 0 min 48 sec) 
Heartbeat CPU  0 instructions:   23000000 cycles:   35275481 heartbeat IPC: 0.43649 cumulative IPC: 0.43525 (Simulation time: 0 hr 0 min 50 sec) 
Heartbeat CPU  0 instructions:   24000000 cycles:   37570085 heartbeat IPC: 0.43581 cumulative IPC: 0.43529 (Simulation time: 0 hr 0 min 53 sec) 
Heartbeat CPU  0 instructions:   25000000 cycles:   39859648 heartbeat IPC: 0.43676 cumulative IPC: 0.43539 (Simulation time: 0 hr 0 min 55 sec) 
Heartbeat CPU  0 instructions:   26000000 cycles:   42132850 heartbeat IPC: 0.43991 cumulative IPC: 0.43567 (Simulation time: 0 hr 0 min 58 sec) 
Heartbeat CPU  0 instructions:   27000002 cycles:   44414204 heartbeat IPC: 0.43834 cumulative IPC: 0.43583 (Simulation time: 0 hr 1 min 1 sec) 
Heartbeat CPU  0 instructions:   28000000 cycles:   46692092 heartbeat IPC: 0.43900 cumulative IPC: 0.43600 (Simulation time: 0 hr 1 min 3 sec) 
Heartbeat CPU  0 instructions:   29000000 cycles:   48974947 heartbeat IPC: 0.43805 cumulative IPC: 0.43611 (Simulation time: 0 hr 1 min 6 sec) 
Heartbeat CPU  0 instructions:   30000003 cycles:   51264961 heartbeat IPC: 0.43668 cumulative IPC: 0.43614 (Simulation time: 0 hr 1 min 8 sec) 
Heartbeat CPU  0 instructions:   31000000 cycles:   53559718 heartbeat IPC: 0.43577 cumulative IPC: 0.43612 (Simulation time: 0 hr 1 min 11 sec) 
Heartbeat CPU  0 instructions:   32000000 cycles:   55849369 heartbeat IPC: 0.43675 cumulative IPC: 0.43615 (Simulation time: 0 hr 1 min 14 sec) 
Heartbeat CPU  0 instructions:   33000001 cycles:   58125584 heartbeat IPC: 0.43933 cumulative IPC: 0.43629 (Simulation time: 0 hr 1 min 16 sec) 
Heartbeat CPU  0 instructions:   34000003 cycles:   60423110 heartbeat IPC: 0.43525 cumulative IPC: 0.43624 (Simulation time: 0 hr 1 min 19 sec) 
Heartbeat CPU  0 instructions:   35000001 cycles:   62710023 heartbeat IPC: 0.43727 cumulative IPC: 0.43628 (Simulation time: 0 hr 1 min 21 sec) 
Heartbeat CPU  0 instructions:   36000000 cycles:   64990225 heartbeat IPC: 0.43856 cumulative IPC: 0.43637 (Simulation time: 0 hr 1 min 24 sec) 
Heartbeat CPU  0 instructions:   37000000 cycles:   67343759 heartbeat IPC: 0.42489 cumulative IPC: 0.43593 (Simulation time: 0 hr 1 min 26 sec) 
Heartbeat CPU  0 instructions:   38000002 cycles:   69716139 heartbeat IPC: 0.42152 cumulative IPC: 0.43540 (Simulation time: 0 hr 1 min 29 sec) 
Heartbeat CPU  0 instructions:   39000000 cycles:   72110868 heartbeat IPC: 0.41758 cumulative IPC: 0.43476 (Simulation time: 0 hr 1 min 31 sec) 
Heartbeat CPU  0 instructions:   40000000 cycles:   74396934 heartbeat IPC: 0.43743 cumulative IPC: 0.43485 (Simulation time: 0 hr 1 min 34 sec) 
Heartbeat CPU  0 instructions:   41000000 cycles:   76687376 heartbeat IPC: 0.43660 cumulative IPC: 0.43491 (Simulation time: 0 hr 1 min 37 sec) 
Heartbeat CPU  0 instructions:   42000000 cycles:   78978250 heartbeat IPC: 0.43651 cumulative IPC: 0.43496 (Simulation time: 0 hr 1 min 39 sec) 
Heartbeat CPU  0 instructions:   43000000 cycles:   81274361 heartbeat IPC: 0.43552 cumulative IPC: 0.43497 (Simulation time: 0 hr 1 min 42 sec) 
Heartbeat CPU  0 instructions:   44000000 cycles:   83556428 heartbeat IPC: 0.43820 cumulative IPC: 0.43507 (Simulation time: 0 hr 1 min 44 sec) 
Heartbeat CPU  0 instructions:   45000002 cycles:   85837308 heartbeat IPC: 0.43843 cumulative IPC: 0.43516 (Simulation time: 0 hr 1 min 47 sec) 
Heartbeat CPU  0 instructions:   46000001 cycles:   88115130 heartbeat IPC: 0.43902 cumulative IPC: 0.43527 (Simulation time: 0 hr 1 min 49 sec) 
Heartbeat CPU  0 instructions:   47000000 cycles:   90409521 heartbeat IPC: 0.43585 cumulative IPC: 0.43529 (Simulation time: 0 hr 1 min 52 sec) 
Heartbeat CPU  0 instructions:   48000000 cycles:   92701158 heartbeat IPC: 0.43637 cumulative IPC: 0.43531 (Simulation time: 0 hr 1 min 55 sec) 
Heartbeat CPU  0 instructions:   49000002 cycles:   94984809 heartbeat IPC: 0.43790 cumulative IPC: 0.43538 (Simulation time: 0 hr 1 min 57 sec) 
Heartbeat CPU  0 instructions:   50000000 cycles:   97261487 heartbeat IPC: 0.43924 cumulative IPC: 0.43548 (Simulation time: 0 hr 2 min 0 sec) 
Heartbeat CPU  0 instructions:   51000001 cycles:   99545425 heartbeat IPC: 0.43784 cumulative IPC: 0.43553 (Simulation time: 0 hr 2 min 2 sec) 
Heartbeat CPU  0 instructions:   52000000 cycles:  101829281 heartbeat IPC: 0.43786 cumulative IPC: 0.43559 (Simulation time: 0 hr 2 min 5 sec) 
Heartbeat CPU  0 instructions:   53000000 cycles:  104114646 heartbeat IPC: 0.43757 cumulative IPC: 0.43563 (Simulation time: 0 hr 2 min 7 sec) 
Heartbeat CPU  0 instructions:   54000000 cycles:  106404515 heartbeat IPC: 0.43671 cumulative IPC: 0.43566 (Simulation time: 0 hr 2 min 10 sec) 
Heartbeat CPU  0 instructions:   55000001 cycles:  108697295 heartbeat IPC: 0.43615 cumulative IPC: 0.43567 (Simulation time: 0 hr 2 min 12 sec) 
Heartbeat CPU  0 instructions:   56000000 cycles:  110987491 heartbeat IPC: 0.43664 cumulative IPC: 0.43569 (Simulation time: 0 hr 2 min 15 sec) 
Heartbeat CPU  0 instructions:   57000002 cycles:  113264201 heartbeat IPC: 0.43923 cumulative IPC: 0.43576 (Simulation time: 0 hr 2 min 17 sec) 
Heartbeat CPU  0 instructions:   58000000 cycles:  115559910 heartbeat IPC: 0.43559 cumulative IPC: 0.43576 (Simulation time: 0 hr 2 min 20 sec) 
Heartbeat CPU  0 instructions:   59000002 cycles:  117844595 heartbeat IPC: 0.43770 cumulative IPC: 0.43580 (Simulation time: 0 hr 2 min 23 sec) 
Heartbeat CPU  0 instructions:   60000000 cycles:  120124706 heartbeat IPC: 0.43857 cumulative IPC: 0.43586 (Simulation time: 0 hr 2 min 25 sec) 
Finished CPU 0 instructions: 50000000 cycles: 114716920 cumulative IPC: 0.43586 (Simulation time: 0 hr 2 min 25 sec) 

ChampSim completed all CPUs

[ROI Statistics]
Core_0_instructions 50000000
Core_0_cycles 114716920
Core_0_IPC 0.43586

Core_0_branch_prediction_accuracy 99.93011
Core_0_branch_MPKI 0.14828
Core_0_average_ROB_occupancy_at_mispredict 115.08052

Core_0_L1D_total_access 15887340
Core_0_L1D_total_hit 15076686
Core_0_L1D_total_miss 810654
Core_0_L1D_loads 10254596
Core_0_L1D_load_hit 9444032
Core_0_L1D_load_miss 810564
Core_0_L1D_RFOs 5632744
Core_0_L1D_RFO_hit 5632654
Core_0_L1D_RFO_miss 90
Core_0_L1D_prefetches 0
Core_0_L1D_prefetch_hit 0
Core_0_L1D_prefetch_miss 0
Core_0_L1D_writebacks 0
Core_0_L1D_writeback_hit 0
Core_0_L1D_writeback_miss 0
Core_0_L1D_prefetch_requested 0
Core_0_L1D_prefetch_dropped 0
Core_0_L1D_prefetch_issued 0
Core_0_L1D_prefetch_filled 0
Core_0_L1D_prefetch_useful 0
Core_0_L1D_prefetch_useless 0
Core_0_L1D_prefetch_late 0
Core_0_L1D_average_miss_latency 16.56421

Core_0_L1D_rq_access 13120574
Core_0_L1D_rq_forward 0
Core_0_L1D_rq_merged 2770613
Core_0_L1D_rq_to_cache 10349961
Core_0_L1D_rq_full 0

Core_0_L1D_wq_access 5633019
Core_0_L1D_wq_forward 0
Core_0_L1D_wq_merged 33
Core_0_L1D_wq_to_cache 5632986
Core_0_L1D_wq_full 0

Core_0_L1D_pq_access 0
Core_0_L1D_pq_forward 0
Core_0_L1D_pq_merged 0
Core_0_L1D_pq_to_cache 0
Core_0_L1D_pq_full 0

Core_0_L1D_acc_epochs 116317
Core_0_L1D_acc_level_0 116317
Core_0_L1D_acc_level_1 0
Core_0_L1D_acc_level_2 0
Core_0_L1D_acc_level_3 0
Core_0_L1D_acc_level_4 0
Core_0_L1D_acc_level_5 0
Core_0_L1D_acc_level_6 0
Core_0_L1D_acc_level_7 0
Core_0_L1D_acc_level_8 0
Core_0_L1D_acc_level_9 0

Core_0_L1I_total_access 19886039
Core_0_L1I_total_hit 19885984
Core_0_L1I_total_miss 55
Core_0_L1I_loads 19886039
Core_0_L1I_load_hit 19885984
Core_0_L1I_load_miss 55
Core_0_L1I_RFOs 0
Core_0_L1I_RFO_hit 0
Core_0_L1I_RFO_miss 0
Core_0_L1I_prefetches 0
Core_0_L1I_prefetch_hit 0
Core_0_L1I_prefetch_miss 0
Core_0_L1I_writebacks 0
Core_0_L1I_writeback_hit 0
Core_0_L1I_writeback_miss 0
Core_0_L1I_prefetch_requested 0
Core_0_L1I_prefetch_dropped 0
Core_0_L1I_prefetch_issued 0
Core_0_L1I_prefetch_filled 0
Core_0_L1I_prefetch_useful 0
Core_0_L1I_prefetch_useless 0
Core_0_L1I_prefetch_late 0
Core_0_L1I_average_miss_latency 78.00000

Core_0_L1I_rq_access 50000000
Core_0_L1I_rq_forward 0
Core_0_L1I_rq_merged 30113952
Core_0_L1I_rq_to_cache 19886048
Core_0_L1I_rq_full 0

Core_0_L1I_wq_access 0
Core_0_L1I_wq_forward 0
Core_0_L1I_wq_merged 0
Core_0_L1I_wq_to_cache 0
Core_0_L1I_wq_full 0

Core_0_L1I_pq_access 0
Core_0_L1I_pq_forward 0
Core_0_L1I_pq_merged 0
Core_0_L1I_pq_to_cache 0
Core_0_L1I_pq_full 0

Core_0_L1I_acc_epochs 116317
Core_0_L1I_acc_level_0 116317
Core_0_L1I_acc_level_1 0
Core_0_L1I_acc_level_2 0
Core_0_L1I_acc_level_3 0
Core_0_L1I_acc_level_4 0
Core_0_L1I_acc_level_5 0
Core_0_L1I_acc_level_6 0
Core_0_L1I_acc_level_7 0
Core_0_L1I_acc_level_8 0
Core_0_L1I_acc_level_9 0

Core_0_L2C_total_access 1290135
Core_0_L2C_total_hit 804767
Core_0_L2C_total_miss 485368
Core_0_L2C_loads 810619
Core_0_L2C_load_hit 796764
Core_0_L2C_load_miss 13855
Core_0_L2C_RFOs 90
Core_0_L2C_RFO_hit 30
Core_0_L2C_RFO_miss 60
Core_0_L2C_prefetches 471453
Core_0_L2C_prefetch_hit 1
Core_0_L2C_prefetch_miss 471452
Core_0_L2C_writebacks 7973
Core_0_L2C_writeback_hit 7972
Core_0_L2C_writeback_miss 1
Core_0_L2C_prefetch_requested 923758
Core_0_L2C_prefetch_dropped 0
Core_0_L2C_prefetch_issued 923758
Core_0_L2C_prefetch_filled 567802
Core_0_L2C_prefetch_useful 470687
Core_0_L2C_prefetch_useless 96713
Core_0_L2C_prefetch_late 159
Core_0_L2C_average_miss_latency 94.19749

Core_0_L2C_rq_access 810709
Core_0_L2C_rq_forward 0
Core_0_L2C_rq_merged 0
Core_0_L2C_rq_to_cache 810709
Core_0_L2C_rq_full 0

Core_0_L2C_wq_access 7973
Core_0_L2C_wq_forward 0
Core_0_L2C_wq_merged 0
Core_0_L2C_wq_to_cache 7973
Core_0_L2C_wq_full 0

Core_0_L2C_pq_access 923758
Core_0_L2C_pq_forward 0
Core_0_L2C_pq_merged 384
Core_0_L2C_pq_to_cache 923374
Core_0_L2C_pq_full 0

Core_0_L2C_acc_epochs 116317
Core_0_L2C_acc_level_0 2009
Core_0_L2C_acc_level_1 6661
Core_0_L2C_acc_level_2 4421
Core_0_L2C_acc_level_3 3450
Core_0_L2C_acc_level_4 3278
Core_0_L2C_acc_level_5 5002
Core_0_L2C_acc_level_6 3979
Core_0_L2C_acc_level_7 5915
Core_0_L2C_acc_level_8 7561
Core_0_L2C_acc_level_9 74041

Core_0_LLC_total_access 781463
Core_0_LLC_total_hit 302123
Core_0_LLC_total_miss 479340
Core_0_LLC_loads 13698
Core_0_LLC_load_hit 1420
Core_0_LLC_load_miss 12278
Core_0_LLC_RFOs 60
Core_0_LLC_RFO_hit 4
Core_0_LLC_RFO_miss 56
Core_0_LLC_prefetches 764445
Core_0_LLC_prefetch_hit 298423
Core_0_LLC_prefetch_miss 466022
Core_0_LLC_writebacks 3260
Core_0_LLC_writeback_hit 2276
Core_0_LLC_writeback_miss 984
Core_0_LLC_prefetch_requested 0
Core_0_LLC_prefetch_dropped 0
Core_0_LLC_prefetch_issued 0
Core_0_LLC_prefetch_filled 560649
Core_0_LLC_prefetch_useful 689
Core_0_LLC_prefetch_useless 527778
Core_0_LLC_prefetch_late 17
Core_0_LLC_average_miss_latency 121.80105

Core_0_LLC_rq_access 13758
Core_0_LLC_rq_forward 0
Core_0_LLC_rq_merged 0
Core_0_LLC_rq_to_cache 13758
Core_0_LLC_rq_full 0

Core_0_LLC_wq_access 3260
Core_0_LLC_wq_forward 0
Core_0_LLC_wq_merged 0
Core_0_LLC_wq_to_cache 3260
Core_0_LLC_wq_full 0

Core_0_LLC_pq_access 922852
Core_0_LLC_pq_forward 0
Core_0_LLC_pq_merged 138
Core_0_LLC_pq_to_cache 922714
Core_0_LLC_pq_full 0

Core_0_LLC_acc_epochs 117310
Core_0_LLC_acc_level_0 117108
Core_0_LLC_acc_level_1 114
Core_0_LLC_acc_level_2 50
Core_0_LLC_acc_level_3 9
Core_0_LLC_acc_level_4 0
Core_0_LLC_acc_level_5 24
Core_0_LLC_acc_level_6 0
Core_0_LLC_acc_level_7 2
Core_0_LLC_acc_level_8 0
Core_0_LLC_acc_level_9 3

Core_0_major_page_fault 0
Core_0_minor_page_fault 5904

[MLOP] History of tracked zone:
IIIIIIIIIIIIIIIIIIIIIIIIIIIIIIIIIIIIIIIIIIIIIIIIIIIIIIIIIIIIIIII
IIIIIIIIIIIIIIIIIIIIIIIIIIIIIA2222222222222224IIIIIIIIIIIIIIIIII
IIIIIIIIIIIIIIIIIIIIIIIIIIIIIAA2222222222222224IIIIIIIIIIIIIIIII
IIIIIIIIIIIIIIIIIIIIIIIIIIIIIAAA2222222222222224IIIIIIIIIIIIIIII
IIIIIIIIIIIIIIIIIIIIIIIIIIIIIAAAA2222222222222224IIIIIIIIIIIIIII
IIIIIIIIIIIIIIIIIIIIIIIIIIIIIAAAAA2222222222222244IIIIIIIIIIIIII
IIIIIIIIIIIIIIIIIIIIIIIIIIIIIAAAAAA2222222222222244IIIIIIIIIIIII
IIIIIIIIIIIIIIIIIIIIIIIIIIIIIAAAAAAA2222222222222244IIIIIIIIIIII
IIIIIIIIIIIIIIIIIIIIIIIIIIIIIAAAAAAAA2222222222222244IIIIIIIIIII
IIIIIIIIIIIIIIIIIIIIIIIIIIIIIAAAAAAAAA2222222222222244IIIIIIIIII
IIIIIIIIIIIIIIIIIIIIIIIIIIIIIAAAAAAAAAA2222222222222244IIIIIIIII
IIIIIIIIIIIIIIIIIIIIIIIIIIIIIAAAAAAAAAAA2222222222222244IIIIIIII
IIIIIIIIIIIIIIIIIIIIIIIIIIIIIAAAAAAAAAAAA2222222222222244IIIIIII
IIIIIIIIIIIIIIIIIIIIIIIIIIIIIAAAAAAAAAAAAA2222222222222244IIIIII
IIIIIIIIIIIIIIIIIIIIIIIIIIIIIAAAAAAAAAAAAAA2222222222222244IIIII
IIIIIIIIIIIIIIIIIIIIIIIIIIIIIAAAAAAAAAAAAAAA2222222222222244IIII
IIIIIIIIIIIIIIIIIIIIIIIIIIIIIAAAAAAAAAAAAAAAA2222222222222244III
IIIIIIIIIIIIIIIIIIIIIIIIIIIIIAAAAAAAAAAAAAAAAA2222222222222244II
IIIIIIIIIIIIIIIIIIIIIIIIIIIIIAAAAAAIAAAAAAAAAA2222222222222244II
IIIIIIIIIIIIIIIIIIIIIIIIIIIIIAAAAAAIIAAAAAAAAA2222222222222244II
IIIIIIIIIIIIIIIIIIIIIIIIIIIIIAAAAAAIIIAAAAAAAA2222222222222244II
IIIIIIIIIIIIIIIIIIIIIIIIIIIIIAAIAAAIIIAAAAAAAA2222222222222244II
IIIIIIIIIIIIIIIIIIIIIIIIIIIIIAAIIAAIIIAAAAAAAA2222222222222244II
IIIIIIIIIIIIIIIIIIIIIIIIIIIIIAAIIIAIIIAAAAAAAA2222222222222244II
IIIIIIIIIIIIIIIIIIIIIIIIIIIIIAAIIIIIIIAAAAAAAA2222222222222244II
IIIIIIIIIIIIIIIIIIIIIIIIIIIIIAAIIIIIIIIAAAAAAA2222222222222244II
IIIIIIIIIIIIIIIIIIIIIIIIIIIIIAAIIIIIIIIIAAAAAA2222222222222244II
IIIIIIIIIIIIIIIIIIIIIIIIIIIIIAAIIIIIIIIIIAAAAA2222222222222244II
IIIIIIIIIIIIIIIIIIIIIIIIIIIIIAAIIIIIIIIIIIAAAA2222222222222244II
IIIIIIIIIIIIIIIIIIIIIIIIIIIIIAAIIIIIIIIIIIIAAA2222222222222244II
IIIIIIIIIIIIIIIIIIIIIIIIIIIIIAAIIIIIIIIIIIIIAA2222222222222244II
IIIIIIIIIIIIIIIIIIIIIIIIIIIIIAAIIIIIIIIIIIIIIA2222222222222244II
IIIIIIIIIIIIIIIIIIIIIIIIIIIIIAAIIIIIIIIIIIIIII2222222222222244II
IIIIIIIIIIIIIIIIIIIIIIIIIIIIIAAIIIIIIIIIIIIIIII222222222222244II
IIIIIIIIIIIIIIIIIIIIIIIIIIIIIAAIIIIIIIIIIIIIIIII22222222222244II
IIIIIIIIIIIIIIIIIIIIIIIIIIIIIAAIIIIIIIIIIIIIIIIII2222222222244II
IIIIIIIIIIIIIIIIIIIIIIIIIIIIIAAIIIIIIIIIIIIIIIIIII222222222244II
IIIIIIIIIIIIIIIIIIIIIIIIIIIIIAAIIIIIIIIIIIIIIIIIIII22222222244II
IIIIIIIIIIIIIIIIIIIIIIIIIIIIIAAIIIIIIIIIIIIIIIIIIIII2222222244II
IIIIIIIIIIIIIIIIIIIIIIIIIIIIIAAIIIIIIIIIIIIIIIIIIIIII222222244II
IIIIIIIIIIIIIIIIIIIIIIIIIIIIIAAIIIIIIIIIIIIIIIIIIIIIII22222244II
IIIIIIIIIIIIIIIIIIIIIIIIIIIIIIAIIIIIIIIIIIIIIIIIIIIIII22222244II
IIIIIIIIIIIIIIIIIIIIIIIIIIIIIIIIIIIIIIIIIIIIIIIIIIIIII22222244II
IIIIIIIIIIIIIIIIIIIIIIIIIIIIIIIIIIIIIIIIIIIIIIIIIIIIIII2222244II
IIIIIIIIIIIIIIIIIIIIIIIIIIIIIIIIIIIIIIIIIIIIIIIIIIIIIIII222244II
IIIIIIIIIIIIIIIIIIIIIIIIIIIIIIIIIIIIIIIIIIIIIIIIIIIIIIIII22244II
IIIIIIIIIIIIIIIIIIIIIIIIIIIIIIIIIIIIIIIIIIIIIIIIIIIIIIIIII2244II
IIIIIIIIIIIIIIIIIIIIIIIIIIIIIIIIIIIIIIIIIIIIIIIIIIIIIIIIIII244II
IIIIIIIIIIIIIIIIIIIIIIIIIIIIIIIIIIIIIIIIIIIIIIIIIIIIIIIIIIII44II
IIIIIIIIIIIIIIIIIIIIIIIIIIIIIA2222222222222222IIIIIIIIIIIIIIIIII
IIIIIIIIIIIIIIIIIIIIIIIIIIIIIAA2222222222222222IIIIIIIIIIIIIIIII
IIIIIIIIIIIIIIIIIIIIIIIIIIIIIAAA2222222222222222IIIIIIIIIIIIIIII
IIIIIIIIIIIIIIIIIIIIIIIIIIIIIAAAA2222222222222224IIIIIIIIIIIIIII
IIIIIIIIIIIIIIIIIIIIIIIIIIIIIAAAAA2222222222222244IIIIIIIIIIIIII
IIIIIIIIIIIIIIIIIIIIIIIIIIIIIAAAAAA2222222222222444IIIIIIIIIIIII
IIIIIIIIIIIIIIIIIIIIIIIIIIIIIAAAAAAA2222222222222444IIIIIIIIIIII
IIIIIIIIIIIIIIIIIIIIIIIIIIIIIAAAAAAAA2222222222222444IIIIIIIIIII
IIIIIIIIIIIIIIIIIIIIIIIIIIIIIAAAAAAAAA2222222222222444IIIIIIIIII
IIIIIIIIIIIIIIIIIIIIIIIIIIIIIAAAAAAAAAA2222222222222444IIIIIIIII
IIIIIIIIIIIIIIIIIIIIIIIIIIIIIAAAAAAAAAAA2222222222222444IIIIIIII
IIIIIIIIIIIIIIIIIIIIIIIIIIIIIAAAAAAAAAAAA2222222222222444IIIIIII
IIIIIIIIIIIIIIIIIIIIIIIIIIIIIAAAAAAAAAAAAA2222222222222444IIIIII
IIIIIIIIIIIIIIIIIIIIIIIIIIIIIAAAAAAAAAAAAAA2222222222222444IIIII
IIIIIIIIIIIIIIIIIIIIIIIIIIIIIAAAAAAAAAAAAAAA2222222222222444IIII
IIIIIIIIIIIIIIIIIIIIIIIIIIIIIAAAAAAAAAAAAAAAA2222222222222444III
IIIIIIIIIIIIIIIIIIIIIIIIIIIIIAAAAAAAAAAAAAAAAA2222222222222444II
IIIIIIIIIIIIIIIIIIIIIIIIIIIIIAAAAAAIAAAAAAAAAA2222222222222444II
IIIIIIIIIIIIIIIIIIIIIIIIIIIIIAAAAAAIIAAAAAAAAA2222222222222444II
IIIIIIIIIIIIIIIIIIIIIIIIIIIIIAAAAAAIIIAAAAAAAA2222222222222444II
IIIIIIIIIIIIIIIIIIIIIIIIIIIIIAAAAAAIIIIAAAAAAA2222222222222444II
IIIIIIIIIIIIIIIIIIIIIIIIIIIIIAIAAAAIIIIAAAAAAA2222222222222444II
IIIIIIIIIIIIIIIIIIIIIIIIIIIIIAIIAAAIIIIAAAAAAA2222222222222444II
IIIIIIIIIIIIIIIIIIIIIIIIIIIIIAIIIAAIIIIAAAAAAA2222222222222444II
IIIIIIIIIIIIIIIIIIIIIIIIIIIIIAIIIIAIIIIAAAAAAA2222222222222444II
IIIIIIIIIIIIIIIIIIIIIIIIIIIIIAIIIIIIIIIAAAAAAA2222222222222444II
IIIIIIIIIIIIIIIIIIIIIIIIIIIIIAIIIIIIIIIIAAAAAA2222222222222444II
IIIIIIIIIIIIIIIIIIIIIIIIIIIIIAIIIIIIIIIIIAAAAA2222222222222444II
IIIIIIIIIIIIIIIIIIIIIIIIIIIIIAIIIIIIIIIIIIAAAA2222222222222444II
IIIIIIIIIIIIIIIIIIIIIIIIIIIIIAIIIIIIIIIIIIIAAA2222222222222444II
IIIIIIIIIIIIIIIIIIIIIIIIIIIIIAIIIIIIIIIIIIIIAA2222222222222444II
IIIIIIIIIIIIIIIIIIIIIIIIIIIIIAIIIIIIIIIIIIIIIA2222222222222444II
IIIIIIIIIIIIIIIIIIIIIIIIIIIIIAIIIIIIIIIIIIIIIA222I222222222444II
IIIIIIIIIIIIIIIIIIIIIIIIIIIIIAIIIIIIIIIIIIIIIAI22I222222222444II
IIIIIIIIIIIIIIIIIIIIIIIIIIIIIAIIIIIIIIIIIIIIIII22I222222222444II
IIIIIIIIIIIIIIIIIIIIIIIIIIIIIAIIIIIIIIIIIIIIIIII2I222222222444II
IIIIIIIIIIIIIIIIIIIIIIIIIIIIIAIIIIIIIIIIIIIIIIIIII222222222444II
IIIIIIIIIIIIIIIIIIIIIIIIIIIIIAIIIIIIIIIIIIIIIIIIIII22222222444II
IIIIIIIIIIIIIIIIIIIIIIIIIIIIIIIIIIIIIIIIIIIIIIIIIII22222222444II
IIIIIIIIIIIIIIIIIIIIIIIIIIIIIIIIIIIIIIIIIIIIIIIIIIII2222222444II
IIIIIIIIIIIIIIIIIIIIIIIIIIIIIIIIIIIIIIIIIIIIIIIIIIIII222222444II
IIIIIIIIIIIIIIIIIIIIIIIIIIIIIIIIIIIIIIIIIIIIIIIIIIIIII22222444II
IIIIIIIIIIIIIIIIIIIIIIIIIIIIIIIIIIIIIIIIIIIIIIIIIIIIIII2222444II
IIIIIIIIIIIIIIIIIIIIIIIIIIIIIIIIIIIIIIIIIIIIIIIIIIIIIII2I22444II
IIIIIIIIIIIIIIIIIIIIIIIIIIIIIIIIIIIIIIIIIIIIIIIIIIIIIII2II2444II
IIIIIIIIIIIIIIIIIIIIIIIIIIIIIIIIIIIIIIIIIIIIIIIIIIIIIIIIII2444II
IIIIIIIIIIIIIIIIIIIIIIIIIIIIIIIIIIIIIIIIIIIIIIIIIIIIIIIIIII444II
IIIIIIIIIIIIIIIIIIIIIIIIIIIIIA2222222222222224IIIIIIIIIIIIIIIIII
IIIIIIIIIIIIIIIIIIIIIIIIIIIIIAA2222222222222224IIIIIIIIIIIIIIIII
IIIIIIIIIIIIIIIIIIIIIIIIIIIIIAAA2222222222222224IIIIIIIIIIIIIIII
IIIIIIIIIIIIIIIIIIIIIIIIIIIIIAAAA2222222222222224IIIIIIIIIIIIIII
IIIIIIIIIIIIIIIIIIIIIIIIIIIIIAAAAA2222222222222244IIIIIIIIIIIIII
IIIIIIIIIIIIIIIIIIIIIIIIIIIIIAAAAAA2222222222222244IIIIIIIIIIIII
IIIIIIIIIIIIIIIIIIIIIIIIIIIIIAAAAAAA2222222222222244IIIIIIIIIIII
IIIIIIIIIIIIIIIIIIIIIIIIIIIIIAAAAAAAA2222222222222244IIIIIIIIIII
IIIIIIIIIIIIIIIIIIIIIIIIIIIIIAAAAAAAAA2222222222222244IIIIIIIIII
IIIIIIIIIIIIIIIIIIIIIIIIIIIIIAAAAAAAAAA2222222222222244IIIIIIIII
IIIIIIIIIIIIIIIIIIIIIIIIIIIIIAAAAAAAAAAA2222222222222244IIIIIIII
IIIIIIIIIIIIIIIIIIIIIIIIIIIIIAAAAAAAAAAAA2222222222222244IIIIIII
IIIIIIIIIIIIIIIIIIIIIIIIIIIIIAAAAAAAAAAAAA2222222222222244IIIIII
IIIIIIIIIIIIIIIIIIIIIIIIIIIIIAAAAAAAAAAAAAA2222222222222244IIIII
IIIIIIIIIIIIIIIIIIIIIIIIIIIIIAAAAAAAAAAAAAAA2222222222222244IIII
IIIIIIIIIIIIIIIIIIIIIIIIIIIIIAAAAAAAAAAAAAAAA2222222222222244III
IIIIIIIIIIIIIIIIIIIIIIIIIIIIIAAAAAAAAAAAAAAAAA2222222222222244II
IIIIIIIIIIIIIIIIIIIIIIIIIIIIIAAAAAAIAAAAAAAAAA2222222222222244II
IIIIIIIIIIIIIIIIIIIIIIIIIIIIIAAAAAAIIAAAAAAAAA2222222222222244II
IIIIIIIIIIIIIIIIIIIIIIIIIIIIIAAAAAAIIAIAAAAAAA2222222222222244II
IIIIIIIIIIIIIIIIIIIIIIIIIIIIIAAAAAAIIAIAAAIAAA2222222222222244II
IIIIIIIIIIIIIIIIIIIIIIIIIIIIIAAAAAAIIAIAAAIIAA2222222222222244II
IIIIIIIIIIIIIIIIIIIIIIIIIIIIIAAAAAAIIAIAAAIIAAI222222222222244II
IIIIIIIIIIIIIIIIIIIIIIIIIIIIIAAAAAAIIAIAAAIIAAII22222222222244II
IIIIIIIIIIIIIIIIIIIIIIIIIIIIIAAAAAAIIAIAAIIIAAII22222222222244II
IIIIIIIIIIIIIIIIIIIIIIIIIIIIIAAAAAAIIAIAAIIIIAII22222222222244II
IIIIIIIIIIIIIIIIIIIIIIIIIIIIIAAAAAAIIAIAAIIIIIII22222222222244II
IIIIIIIIIIIIIIIIIIIIIIIIIIIIIAAAAAAIIAIAAIIIIIIII2222222222244II
IIIIIIIIIIIIIIIIIIIIIIIIIIIIIAAAAAAIIAIAAIIIIIIIII222222222244II
IIIIIIIIIIIIIIIIIIIIIIIIIIIIIAAAAAAIIAIAAIIIIIIIII22I222222244II
IIIIIIIIIIIIIIIIIIIIIIIIIIIIIAAAAAAIIAIAAIIIIIIIII2II222222244II
IIIIIIIIIIIIIIIIIIIIIIIIIIIIIAIAAAAIIAIAAIIIIIIIII2II222222244II
IIIIIIIIIIIIIIIIIIIIIIIIIIIIIAIIAAAIIAIAAIIIIIIIII2II222222244II
IIIIIIIIIIIIIIIIIIIIIIIIIIIIIAIIIAAIIAIAAIIIIIIIII2II222222244II
IIIIIIIIIIIIIIIIIIIIIIIIIIIIIAIIIIAIIAIAAIIIIIIIII2II222222244II
IIIIIIIIIIIIIIIIIIIIIIIIIIIIIAIIIIIIIAIAAIIIIIIIII2II222222244II
IIIIIIIIIIIIIIIIIIIIIIIIIIIIIAIIIIIIIIIAAIIIIIIIII2II222222244II
IIIIIIIIIIIIIIIIIIIIIIIIIIIIIAIIIIIIIIIIAIIIIIIIII2II222222244II
IIIIIIIIIIIIIIIIIIIIIIIIIIIIIAIIIIIIIIIIAIIIIIIIIIIII222222244II
IIIIIIIIIIIIIIIIIIIIIIIIIIIIIAIIIIIIIIIIAIIIIIIIIIIIII22222244II
IIIIIIIIIIIIIIIIIIIIIIIIIIIIIAIIIIIIIIIIAIIIIIIIIIIIII22I22244II
IIIIIIIIIIIIIIIIIIIIIIIIIIIIIAIIIIIIIIIIAIIIIIIIIIIIII22II2244II
IIIIIIIIIIIIIIIIIIIIIIIIIIIIIAIIIIIIIIIIAIIIIIIIIIIIIII2II2244II
IIIIIIIIIIIIIIIIIIIIIIIIIIIIIAIIIIIIIIIIAIIIIIIIIIIIIIIIII2244II
IIIIIIIIIIIIIIIIIIIIIIIIIIIIIIIIIIIIIIIIAIIIIIIIIIIIIIIIII2244II
IIIIIIIIIIIIIIIIIIIIIIIIIIIIIIIIIIIIIIIIAIIIIIIIIIIIIIIIIII244II
IIIIIIIIIIIIIIIIIIIIIIIIIIIIIIIIIIIIIIIIAIIIIIIIIIIIIIIIIIII44II
[MLOP] Prefetch Degree Mean: 15.99579
[MLOP] Prefetch Degree SD: 0.11231
[MLOP] Max Score Left Mean (%): 70.92695
[MLOP] Max Score Left SD (%): 3.98892
[MLOP] Max Score Right Mean (%): 98.69179
[MLOP] Max Score Right SD (%): 1.73678

Channel_0_RQ_row_buffer_hit 434020
Channel_0_RQ_row_buffer_miss 44336
Channel_0_WQ_row_buffer_hit 779
Channel_0_WQ_row_buffer_miss 2472
Channel_0_WQ_full 0
Channel_0_dbus_congested 168603

avg_congested_cycle 11

DRAM_bw_pochs 469238
DRAM_bw_level_0 441000
DRAM_bw_level_1 14748
DRAM_bw_level_2 2771
DRAM_bw_level_3 10719
