*************************************************
   ChampSim Multicore Out-of-Order Simulator
   Last compiled: Apr  3 2025 20:54:34
*************************************************
parsing config file: /home/zir/Pythia/config/mlop.ini

trace_0 /home/zir/ChampSim/ML-DPC/ChampSimTraces/spec17/605.mcf-s3.trace.xz
adding L2C_PREFETCHER: MLOP
Initialize SHIP state
warmup_instructions 10000000
simulation_instructions 50000000
champsim_seed 166
measure_ipc 0
measure_ipc_epoch 1000
measure_dram_bw 1
measure_dram_bw_epoch 256
measure_cache_acc 1
measure_cache_acc_epoch 1024
l1d_perfect 0
l2c_perfect 0
llc_perfect 0
l1d_semi_perfect 0
l2c_semi_perfect 0
llc_semi_perfect 0
semi_perfect_cache_page_buffer_size 64

num_cpus 1
cpu_freq 4000
dram_io_freq 2400
page_size 4096
block_size 64
max_read_per_cycle 8
max_fill_per_cycle 1
dram_channels 1
log2_dram_channels 0
dram_ranks 1
dram_banks 8
dram_rows 65536
dram_columns 128
dram_row_size 8
dram_size 4096
dram_pages 1048576

fetch_width 6
decode_width 6
exec_width 4
lq_width 2
sq_width 2
retire_width 4
scheduler_size 128
branch_mispredict_penalty 20
rob_size 256
lq_size 72
sq_size 56
num_instr_destinations_sparc 4
num_instr_destinations 2
num_instr_sources 4

itlb_set 16
itlb_way 8
itlb_rq_size 16
itlb_wq_size 16
itlb_pq_size 0
itlb_mshr_size 8
itlb_latency 1

dtlb_set 16
dtlb_way 4
dtlb_rq_size 16
dtlb_wq_size 16
dtlb_pq_size 0
dtlb_mshr_size 8
dtlb_latency 1

stlb_set 128
stlb_way 12
stlb_rq_size 32
stlb_wq_size 32
stlb_pq_size 0
stlb_mshr_size 16
stlb_latency 8

l1i_size 32
l1i_set 64
l1i_way 8
l1i_rq_size 64
l1i_wq_size 64
l1i_pq_size 8
l1i_mshr_size 8
l1i_latency 1

l1d_size 32
l1d_set 64
l1d_way 8
l1d_rq_size 64
l1d_wq_size 64
l1d_pq_size 8
l1d_mshr_size 16
l1d_latency 4

l2c_size 256
l2c_set 512
l2c_way 8
l2c_rq_size 32
l2c_wq_size 32
l2c_pq_size 32
l2c_mshr_size 32
l2c_latency 10

llc_size 2048
llc_set 2048
llc_way 16
llc_rq_size 32
llc_wq_size 32
llc_pq_size 32
llc_mshr_size 64
llc_latency 20

dram_channel_width 8
dram_wq_size 64
dram_rq_size 64
tRP 15
tRCD 15
tCAS 12.5
dram_dbus_turn_around_time 30
dram_write_high_wm 56
dram_write_low_wm 48
min_dram_writes_per_switch 16
dram_mtps 2400
dram_dbus_return_time 13

mlop_pref_degree 16
mlop_num_updates 500
mlop_l1d_thresh 2
mlop_l2c_thresh 0.75
mlop_llc_thresh 0.3
mlop_debug_level 0
mlop_blocks_in_cache 4096
mlop_blocks_in_zone 64
mlop_amt_size 2048
mlop_PF_DEGREE 16
mlop_NUM_UPDATES 500
mlop_L1D_THRESH 1000
mlop_L2C_THRESH 375
mlop_LLC_THRESH 150
mlop_ORIGIN 63
mlop_MAX_OFFSET 63
mlop_MIN_OFFSET -63
mlop_ORIGIN 63
mlop_NUM_OFFSETS 127


Heartbeat CPU  0 instructions:    1000000 cycles:    1086217 heartbeat IPC: 0.92063 cumulative IPC: 0.92063 (Simulation time: 0 hr 0 min 2 sec) 
Heartbeat CPU  0 instructions:    2000000 cycles:    2158073 heartbeat IPC: 0.93296 cumulative IPC: 0.92675 (Simulation time: 0 hr 0 min 4 sec) 
Heartbeat CPU  0 instructions:    3000000 cycles:    3235176 heartbeat IPC: 0.92842 cumulative IPC: 0.92731 (Simulation time: 0 hr 0 min 6 sec) 
Heartbeat CPU  0 instructions:    4000000 cycles:    4317779 heartbeat IPC: 0.92370 cumulative IPC: 0.92640 (Simulation time: 0 hr 0 min 8 sec) 
Heartbeat CPU  0 instructions:    5000003 cycles:    5423703 heartbeat IPC: 0.90422 cumulative IPC: 0.92188 (Simulation time: 0 hr 0 min 10 sec) 
Heartbeat CPU  0 instructions:    6000002 cycles:    6523617 heartbeat IPC: 0.90916 cumulative IPC: 0.91974 (Simulation time: 0 hr 0 min 12 sec) 
Heartbeat CPU  0 instructions:    7000000 cycles:    7628564 heartbeat IPC: 0.90502 cumulative IPC: 0.91760 (Simulation time: 0 hr 0 min 14 sec) 
Heartbeat CPU  0 instructions:    8000000 cycles:    8734572 heartbeat IPC: 0.90415 cumulative IPC: 0.91590 (Simulation time: 0 hr 0 min 16 sec) 
Heartbeat CPU  0 instructions:    9000000 cycles:    9816461 heartbeat IPC: 0.92431 cumulative IPC: 0.91683 (Simulation time: 0 hr 0 min 19 sec) 
Heartbeat CPU  0 instructions:   10000002 cycles:   10876494 heartbeat IPC: 0.94337 cumulative IPC: 0.91941 (Simulation time: 0 hr 0 min 21 sec) 

Warmup complete CPU  0 instructions:   10000002 cycles:   10876494 (Simulation time: 0 hr 0 min 21 sec) 

Heartbeat CPU  0 instructions:   11000002 cycles:   17298955 heartbeat IPC: 0.15570 cumulative IPC: 0.15570 (Simulation time: 0 hr 0 min 25 sec) 
Heartbeat CPU  0 instructions:   12000000 cycles:   23815448 heartbeat IPC: 0.15346 cumulative IPC: 0.15457 (Simulation time: 0 hr 0 min 29 sec) 
Heartbeat CPU  0 instructions:   13000002 cycles:   30319238 heartbeat IPC: 0.15376 cumulative IPC: 0.15430 (Simulation time: 0 hr 0 min 34 sec) 
Heartbeat CPU  0 instructions:   14000000 cycles:   36908933 heartbeat IPC: 0.15175 cumulative IPC: 0.15365 (Simulation time: 0 hr 0 min 38 sec) 
Heartbeat CPU  0 instructions:   15000001 cycles:   43366025 heartbeat IPC: 0.15487 cumulative IPC: 0.15390 (Simulation time: 0 hr 0 min 42 sec) 
Heartbeat CPU  0 instructions:   16000000 cycles:   49895291 heartbeat IPC: 0.15316 cumulative IPC: 0.15377 (Simulation time: 0 hr 0 min 47 sec) 
Heartbeat CPU  0 instructions:   17000003 cycles:   56554930 heartbeat IPC: 0.15016 cumulative IPC: 0.15325 (Simulation time: 0 hr 0 min 51 sec) 
Heartbeat CPU  0 instructions:   18000000 cycles:   62897768 heartbeat IPC: 0.15766 cumulative IPC: 0.15378 (Simulation time: 0 hr 0 min 55 sec) 
Heartbeat CPU  0 instructions:   19000000 cycles:   69124117 heartbeat IPC: 0.16061 cumulative IPC: 0.15451 (Simulation time: 0 hr 0 min 59 sec) 
Heartbeat CPU  0 instructions:   20000000 cycles:   75355098 heartbeat IPC: 0.16049 cumulative IPC: 0.15509 (Simulation time: 0 hr 1 min 3 sec) 
Heartbeat CPU  0 instructions:   21000000 cycles:   81627701 heartbeat IPC: 0.15942 cumulative IPC: 0.15547 (Simulation time: 0 hr 1 min 7 sec) 
Heartbeat CPU  0 instructions:   22000002 cycles:   88021696 heartbeat IPC: 0.15640 cumulative IPC: 0.15555 (Simulation time: 0 hr 1 min 11 sec) 
Heartbeat CPU  0 instructions:   23000000 cycles:   94373251 heartbeat IPC: 0.15744 cumulative IPC: 0.15569 (Simulation time: 0 hr 1 min 15 sec) 
Heartbeat CPU  0 instructions:   24000000 cycles:  100722128 heartbeat IPC: 0.15751 cumulative IPC: 0.15582 (Simulation time: 0 hr 1 min 19 sec) 
Heartbeat CPU  0 instructions:   25000000 cycles:  107159371 heartbeat IPC: 0.15535 cumulative IPC: 0.15579 (Simulation time: 0 hr 1 min 23 sec) 
Heartbeat CPU  0 instructions:   26000003 cycles:  113423710 heartbeat IPC: 0.15963 cumulative IPC: 0.15603 (Simulation time: 0 hr 1 min 27 sec) 
Heartbeat CPU  0 instructions:   27000002 cycles:  119633543 heartbeat IPC: 0.16103 cumulative IPC: 0.15631 (Simulation time: 0 hr 1 min 31 sec) 
Heartbeat CPU  0 instructions:   28000000 cycles:  125990673 heartbeat IPC: 0.15730 cumulative IPC: 0.15637 (Simulation time: 0 hr 1 min 35 sec) 
Heartbeat CPU  0 instructions:   29000001 cycles:  132359980 heartbeat IPC: 0.15700 cumulative IPC: 0.15640 (Simulation time: 0 hr 1 min 39 sec) 
Heartbeat CPU  0 instructions:   30000001 cycles:  138808569 heartbeat IPC: 0.15507 cumulative IPC: 0.15633 (Simulation time: 0 hr 1 min 43 sec) 
Heartbeat CPU  0 instructions:   31000002 cycles:  145133320 heartbeat IPC: 0.15811 cumulative IPC: 0.15642 (Simulation time: 0 hr 1 min 47 sec) 
Heartbeat CPU  0 instructions:   32000000 cycles:  151530925 heartbeat IPC: 0.15631 cumulative IPC: 0.15641 (Simulation time: 0 hr 1 min 51 sec) 
Heartbeat CPU  0 instructions:   33000003 cycles:  158059429 heartbeat IPC: 0.15317 cumulative IPC: 0.15627 (Simulation time: 0 hr 1 min 55 sec) 
Heartbeat CPU  0 instructions:   34000002 cycles:  164436541 heartbeat IPC: 0.15681 cumulative IPC: 0.15629 (Simulation time: 0 hr 1 min 59 sec) 
Heartbeat CPU  0 instructions:   35000000 cycles:  170855344 heartbeat IPC: 0.15579 cumulative IPC: 0.15627 (Simulation time: 0 hr 2 min 3 sec) 
Heartbeat CPU  0 instructions:   36000000 cycles:  177255350 heartbeat IPC: 0.15625 cumulative IPC: 0.15627 (Simulation time: 0 hr 2 min 8 sec) 
Heartbeat CPU  0 instructions:   37000001 cycles:  183660439 heartbeat IPC: 0.15613 cumulative IPC: 0.15626 (Simulation time: 0 hr 2 min 12 sec) 
Heartbeat CPU  0 instructions:   38000002 cycles:  189966071 heartbeat IPC: 0.15859 cumulative IPC: 0.15635 (Simulation time: 0 hr 2 min 16 sec) 
Heartbeat CPU  0 instructions:   39000001 cycles:  196325884 heartbeat IPC: 0.15724 cumulative IPC: 0.15638 (Simulation time: 0 hr 2 min 20 sec) 
Heartbeat CPU  0 instructions:   40000000 cycles:  202859310 heartbeat IPC: 0.15306 cumulative IPC: 0.15626 (Simulation time: 0 hr 2 min 24 sec) 
Heartbeat CPU  0 instructions:   41000002 cycles:  209167609 heartbeat IPC: 0.15852 cumulative IPC: 0.15634 (Simulation time: 0 hr 2 min 28 sec) 
Heartbeat CPU  0 instructions:   42000002 cycles:  215608958 heartbeat IPC: 0.15525 cumulative IPC: 0.15630 (Simulation time: 0 hr 2 min 32 sec) 
Heartbeat CPU  0 instructions:   43000001 cycles:  222057037 heartbeat IPC: 0.15508 cumulative IPC: 0.15626 (Simulation time: 0 hr 2 min 37 sec) 
Heartbeat CPU  0 instructions:   44000000 cycles:  228477805 heartbeat IPC: 0.15574 cumulative IPC: 0.15625 (Simulation time: 0 hr 2 min 41 sec) 
Heartbeat CPU  0 instructions:   45000001 cycles:  234946762 heartbeat IPC: 0.15458 cumulative IPC: 0.15620 (Simulation time: 0 hr 2 min 45 sec) 
Heartbeat CPU  0 instructions:   46000000 cycles:  241577761 heartbeat IPC: 0.15081 cumulative IPC: 0.15605 (Simulation time: 0 hr 2 min 49 sec) 
Heartbeat CPU  0 instructions:   47000002 cycles:  247954485 heartbeat IPC: 0.15682 cumulative IPC: 0.15607 (Simulation time: 0 hr 2 min 53 sec) 
Heartbeat CPU  0 instructions:   48000000 cycles:  254375446 heartbeat IPC: 0.15574 cumulative IPC: 0.15606 (Simulation time: 0 hr 2 min 57 sec) 
Heartbeat CPU  0 instructions:   49000000 cycles:  260797953 heartbeat IPC: 0.15570 cumulative IPC: 0.15605 (Simulation time: 0 hr 3 min 1 sec) 
Heartbeat CPU  0 instructions:   50000003 cycles:  267257167 heartbeat IPC: 0.15482 cumulative IPC: 0.15602 (Simulation time: 0 hr 3 min 5 sec) 
Heartbeat CPU  0 instructions:   51000000 cycles:  273703928 heartbeat IPC: 0.15512 cumulative IPC: 0.15600 (Simulation time: 0 hr 3 min 9 sec) 
Heartbeat CPU  0 instructions:   52000000 cycles:  280086085 heartbeat IPC: 0.15669 cumulative IPC: 0.15601 (Simulation time: 0 hr 3 min 13 sec) 
Heartbeat CPU  0 instructions:   53000000 cycles:  286508523 heartbeat IPC: 0.15570 cumulative IPC: 0.15601 (Simulation time: 0 hr 3 min 17 sec) 
Heartbeat CPU  0 instructions:   54000003 cycles:  292791584 heartbeat IPC: 0.15916 cumulative IPC: 0.15608 (Simulation time: 0 hr 3 min 21 sec) 
Heartbeat CPU  0 instructions:   55000002 cycles:  299120242 heartbeat IPC: 0.15801 cumulative IPC: 0.15612 (Simulation time: 0 hr 3 min 25 sec) 
Heartbeat CPU  0 instructions:   56000000 cycles:  305639130 heartbeat IPC: 0.15340 cumulative IPC: 0.15606 (Simulation time: 0 hr 3 min 29 sec) 
Heartbeat CPU  0 instructions:   57000002 cycles:  312000856 heartbeat IPC: 0.15719 cumulative IPC: 0.15608 (Simulation time: 0 hr 3 min 33 sec) 
Heartbeat CPU  0 instructions:   58000000 cycles:  318509091 heartbeat IPC: 0.15365 cumulative IPC: 0.15603 (Simulation time: 0 hr 3 min 37 sec) 
Heartbeat CPU  0 instructions:   59000000 cycles:  324990165 heartbeat IPC: 0.15430 cumulative IPC: 0.15599 (Simulation time: 0 hr 3 min 41 sec) 
Heartbeat CPU  0 instructions:   60000000 cycles:  331317961 heartbeat IPC: 0.15803 cumulative IPC: 0.15603 (Simulation time: 0 hr 3 min 45 sec) 
Finished CPU 0 instructions: 50000003 cycles: 320441496 cumulative IPC: 0.15603 (Simulation time: 0 hr 3 min 45 sec) 

ChampSim completed all CPUs

[ROI Statistics]
Core_0_instructions 50000003
Core_0_cycles 320441496
Core_0_IPC 0.15603

Core_0_branch_prediction_accuracy 92.35942
Core_0_branch_MPKI 6.15474
Core_0_average_ROB_occupancy_at_mispredict 116.97714

Core_0_L1D_total_access 25654607
Core_0_L1D_total_hit 21145684
Core_0_L1D_total_miss 4508923
Core_0_L1D_loads 15801065
Core_0_L1D_load_hit 13478544
Core_0_L1D_load_miss 2322521
Core_0_L1D_RFOs 9853542
Core_0_L1D_RFO_hit 7667140
Core_0_L1D_RFO_miss 2186402
Core_0_L1D_prefetches 0
Core_0_L1D_prefetch_hit 0
Core_0_L1D_prefetch_miss 0
Core_0_L1D_writebacks 0
Core_0_L1D_writeback_hit 0
Core_0_L1D_writeback_miss 0
Core_0_L1D_prefetch_requested 0
Core_0_L1D_prefetch_dropped 0
Core_0_L1D_prefetch_issued 0
Core_0_L1D_prefetch_filled 0
Core_0_L1D_prefetch_useful 0
Core_0_L1D_prefetch_useless 0
Core_0_L1D_prefetch_late 0
Core_0_L1D_average_miss_latency 274.59495

Core_0_L1D_rq_access 19828518
Core_0_L1D_rq_forward 0
Core_0_L1D_rq_merged 3807597
Core_0_L1D_rq_to_cache 16020855
Core_0_L1D_rq_full 0

Core_0_L1D_wq_access 17491234
Core_0_L1D_wq_forward 66
Core_0_L1D_wq_merged 0
Core_0_L1D_wq_to_cache 17491234
Core_0_L1D_wq_full 0

Core_0_L1D_pq_access 0
Core_0_L1D_pq_forward 0
Core_0_L1D_pq_merged 0
Core_0_L1D_pq_to_cache 0
Core_0_L1D_pq_full 0

Core_0_L1D_acc_epochs 208282
Core_0_L1D_acc_level_0 208282
Core_0_L1D_acc_level_1 0
Core_0_L1D_acc_level_2 0
Core_0_L1D_acc_level_3 0
Core_0_L1D_acc_level_4 0
Core_0_L1D_acc_level_5 0
Core_0_L1D_acc_level_6 0
Core_0_L1D_acc_level_7 0
Core_0_L1D_acc_level_8 0
Core_0_L1D_acc_level_9 0

Core_0_L1I_total_access 10845721
Core_0_L1I_total_hit 10845721
Core_0_L1I_total_miss 0
Core_0_L1I_loads 10845721
Core_0_L1I_load_hit 10845721
Core_0_L1I_load_miss 0
Core_0_L1I_RFOs 0
Core_0_L1I_RFO_hit 0
Core_0_L1I_RFO_miss 0
Core_0_L1I_prefetches 0
Core_0_L1I_prefetch_hit 0
Core_0_L1I_prefetch_miss 0
Core_0_L1I_writebacks 0
Core_0_L1I_writeback_hit 0
Core_0_L1I_writeback_miss 0
Core_0_L1I_prefetch_requested 0
Core_0_L1I_prefetch_dropped 0
Core_0_L1I_prefetch_issued 0
Core_0_L1I_prefetch_filled 0
Core_0_L1I_prefetch_useful 0
Core_0_L1I_prefetch_useless 0
Core_0_L1I_prefetch_late 0
Core_0_L1I_average_miss_latency -nan

Core_0_L1I_rq_access 49999769
Core_0_L1I_rq_forward 0
Core_0_L1I_rq_merged 39154048
Core_0_L1I_rq_to_cache 10845721
Core_0_L1I_rq_full 0

Core_0_L1I_wq_access 0
Core_0_L1I_wq_forward 0
Core_0_L1I_wq_merged 0
Core_0_L1I_wq_to_cache 0
Core_0_L1I_wq_full 0

Core_0_L1I_pq_access 0
Core_0_L1I_pq_forward 0
Core_0_L1I_pq_merged 0
Core_0_L1I_pq_to_cache 0
Core_0_L1I_pq_full 0

Core_0_L1I_acc_epochs 208282
Core_0_L1I_acc_level_0 208282
Core_0_L1I_acc_level_1 0
Core_0_L1I_acc_level_2 0
Core_0_L1I_acc_level_3 0
Core_0_L1I_acc_level_4 0
Core_0_L1I_acc_level_5 0
Core_0_L1I_acc_level_6 0
Core_0_L1I_acc_level_7 0
Core_0_L1I_acc_level_8 0
Core_0_L1I_acc_level_9 0

Core_0_L2C_total_access 10400397
Core_0_L2C_total_hit 5868371
Core_0_L2C_total_miss 4532026
Core_0_L2C_loads 2322461
Core_0_L2C_load_hit 1361105
Core_0_L2C_load_miss 961356
Core_0_L2C_RFOs 2186402
Core_0_L2C_RFO_hit 617
Core_0_L2C_RFO_miss 2185785
Core_0_L2C_prefetches 1382612
Core_0_L2C_prefetch_hit 4
Core_0_L2C_prefetch_miss 1382608
Core_0_L2C_writebacks 4508922
Core_0_L2C_writeback_hit 4506645
Core_0_L2C_writeback_miss 2277
Core_0_L2C_prefetch_requested 3041358
Core_0_L2C_prefetch_dropped 0
Core_0_L2C_prefetch_issued 3041358
Core_0_L2C_prefetch_filled 1674991
Core_0_L2C_prefetch_useful 1429753
Core_0_L2C_prefetch_useless 245074
Core_0_L2C_prefetch_late 8920
Core_0_L2C_average_miss_latency 281.94388

Core_0_L2C_rq_access 4508926
Core_0_L2C_rq_forward 0
Core_0_L2C_rq_merged 0
Core_0_L2C_rq_to_cache 4508866
Core_0_L2C_rq_full 0

Core_0_L2C_wq_access 4508923
Core_0_L2C_wq_forward 60
Core_0_L2C_wq_merged 0
Core_0_L2C_wq_to_cache 4508923
Core_0_L2C_wq_full 0

Core_0_L2C_pq_access 3041358
Core_0_L2C_pq_forward 0
Core_0_L2C_pq_merged 10898
Core_0_L2C_pq_to_cache 3030460
Core_0_L2C_pq_full 0

Core_0_L2C_acc_epochs 208282
Core_0_L2C_acc_level_0 520
Core_0_L2C_acc_level_1 263
Core_0_L2C_acc_level_2 1072
Core_0_L2C_acc_level_3 2519
Core_0_L2C_acc_level_4 5151
Core_0_L2C_acc_level_5 5868
Core_0_L2C_acc_level_6 10716
Core_0_L2C_acc_level_7 26730
Core_0_L2C_acc_level_8 49346
Core_0_L2C_acc_level_9 106097

Core_0_LLC_total_access 9940071
Core_0_LLC_total_hit 4294751
Core_0_LLC_total_miss 5645320
Core_0_LLC_loads 952446
Core_0_LLC_load_hit 771681
Core_0_LLC_load_miss 180765
Core_0_LLC_RFOs 2185785
Core_0_LLC_RFO_hit 11482
Core_0_LLC_RFO_miss 2174303
Core_0_LLC_prefetches 2459938
Core_0_LLC_prefetch_hit 1248131
Core_0_LLC_prefetch_miss 1211807
Core_0_LLC_writebacks 4341902
Core_0_LLC_writeback_hit 2263457
Core_0_LLC_writeback_miss 2078445
Core_0_LLC_prefetch_requested 0
Core_0_LLC_prefetch_dropped 0
Core_0_LLC_prefetch_issued 0
Core_0_LLC_prefetch_filled 1495096
Core_0_LLC_prefetch_useful 20262
Core_0_LLC_prefetch_useless 1459197
Core_0_LLC_prefetch_late 12
Core_0_LLC_average_miss_latency 274.29921

Core_0_LLC_rq_access 3138264
Core_0_LLC_rq_forward 0
Core_0_LLC_rq_merged 0
Core_0_LLC_rq_to_cache 3138233
Core_0_LLC_rq_full 0

Core_0_LLC_wq_access 4341902
Core_0_LLC_wq_forward 52
Core_0_LLC_wq_merged 0
Core_0_LLC_wq_to_cache 4341902
Core_0_LLC_wq_full 0

Core_0_LLC_pq_access 3025947
Core_0_LLC_pq_forward 0
Core_0_LLC_pq_merged 672
Core_0_LLC_pq_to_cache 3025254
Core_0_LLC_pq_full 0

Core_0_LLC_acc_epochs 323553
Core_0_LLC_acc_level_0 317712
Core_0_LLC_acc_level_1 3554
Core_0_LLC_acc_level_2 1166
Core_0_LLC_acc_level_3 152
Core_0_LLC_acc_level_4 44
Core_0_LLC_acc_level_5 435
Core_0_LLC_acc_level_6 70
Core_0_LLC_acc_level_7 78
Core_0_LLC_acc_level_8 81
Core_0_LLC_acc_level_9 261

Core_0_major_page_fault 0
Core_0_minor_page_fault 223664

[MLOP] History of tracked zone:
IIIIIIIIIIIIIIIIIIIIIIIIIIIIIIIIIIIIIIIIIIIIIIIIIIIIIIIIIIIIIIII
IIIIIIIIIIIIIIIIIIIIIIIIIIIIIIIIIIIIIIIIIIIIIIIIAIIIIIIIIIIIIIII
IIIIIIIIIIIIIIIIIIIIIIIIIIIIIIIIIIIIIIIIIIIIIAI4A444444I4444444I
IIIIIIIIIIIIIIIIIIIIIIIIIIIIIAI44444444I44444A44A444444I4444444I
IAI44444444I4444444IIIIIIIIIIAI44444444I44444A44A444444I4444444I
IAI44444444I4444444IIIIIIIIIIAI44444444I44444A44A444444I4444444A
IAI44444444I4444444IIIIIIIIIIAA44444444444444A44A444444I4444444A
IAI44444444I4444444IIIIIIIIIIAA44444444444444A4AA44444444444444A
IAI44444444I4444444IIIIIIIIIIAA4444A444444444A4AA44444444444444A
IAI44444444I44444A444444444I4AA4444A444444444A4AA44444444444444A
IAI44444444I44444A444444444I4AA4444A444444444A4AA444444A4444444A
IAI44444444I44444A4444A444444AA4444A444444444A4AA444444A4444444A
IAI4A444444I44444A4444A444444AA4444A444444444A4AA444444A4444444A
IAI4A444444I44444A4444A444444AA2242A444444444A4AA444444A4444444A
IAI4A444444I44444A4444A422424AA2242A444444444A4AA444444A4444444A
IAI4A444444I44444A4424A422424AA2242A444444444A4AA444444A4444444A
IAI4A444444I44444A4424A422A24AA2242A444444444A4AA444444A4444444A
AA44A444444I44444A4424A422A24AA2242A444444444A4AA444444A4444444A
AA44A444444I44444A4424A422A24AA2242A424444444A4AA444444A4444444A
AA44A444444I44444A4224A422A24AA2242A424444444A4AA444444A4444444A
AA42A424444444444A4224A422A24AA2242A424444444A4AA444444A4444444A
AA42A424444444444A4224A422A24AA2242A424444444A4AA444444A4444A42A
AA42A424444444444A4224A422A24AA2242A424444444A4AA422424A4444A42A
AA42A4A4444444444A4224A422A24AA2242A424444444A4AA422424A4444A42A
AA42A4A4444444444A4224A422A24AA2242A424444444A4AA422A24A4444A42A
AA42A4A4444444444A4224A422A24AA2242A424A44444A4AA422A24A4444A42A
AA42A4A4444444444A422AA422A24AA2242A424A44444A4AA422A24A4444A42A
AA42A4A4444444444I422AA422A24AA2242A424A44444A4AA422A24A4444A42A
AA42A4A4444444444I4A2AA422A24AA2242A424A44444A4AA422A24A4444A42A
AA4IA4A4444444444I4A2AA422A24AA2242A424A44444A4AA422A24A4444A42A
AA4IA4A4444444444A4A2AA422A24AA2242A424A44444A4AA422A24A4444A42A
AA42A4A4444444444A4A2AA422A24AA2242A424A44444A4AA422A24A4444A42A
AA42A4A4444444444A4A2AA422A24AA224AA224A44444A4AA422A24A4444A42A
AA42A4A4444444444A4A2AI422A24AA224AA224A44444A4AA422A24A4444A42A
AA42A4A4444444444A4A2AI422A24AA224AA224A44444A4AA422A24A4224A42A
AA42A4A4444444444A4A2A2422A24AA224AA224A44444A4AA422A24A4224A42A
AA42A4A4444444444A4A2A2422A24AA224AA224A44444A4AA422A24I4224A42A
AA42A4A4444444444A4A2A2422A24AA224IA224A44444A4AA422A24I4224A42A
AA42A4A4444444444A4A2A2422A24AA224IAI24A44444A4AA422A24I4224A42A
AA42A4A4444444444A4A2A2422A24AA224IAI24A44444A4AA422A24IA224A22A
AA42A4A4444444444A4A2A2422A24AA224IAI24A44444A4AA422A24IA224AI2A
AA42A4A4444444444A4A2A2422A24AA224IAI24A44A42A4AA222A244A224AI2A
AA42A4A4444444444A4A2A2422A24AA2244AI24A44A42A4AA222A244A224AI2A
AA42A4A2424224244A4A2A2422A24AA2244AI24A44A42A4AA222A244A224AI2A
AA42A4A2424224244A4A2A2422A24AA2242A224A44A42A4AA222A244A224AI2A
AA42A4A2424224244A4A2A2422A24AA2A42A224A24A42A4AA222A244A224AI2A
AA42A4A2224224244A4A2A2422A24AA2A42A224A24A42A4AA222A244A224AI2A
AA42A4A2224224244A4A2A2422A24AA2A42A224A24A42A4AA222A24AA224AI2A
AA42A4A22I4224244A4A2A2422A24AA2A42A224A24A42A4AA222A24AA224AI2A
AA42A4A22I4224I44A4A2A2422A24AA2A42A224A24A42A4AA222A24AA224AI2A
AA42A4A22I4224I44I4A2A2422A24AA2A42A224A24A42A4AA222A24AA224AI2A
AA42A4A22I4224I44I4A2A2422A24AA2A42A224A24A42A4AAI22A24AA224AI2A
AA42A4A22I4224I44I4A2A2422A24IA2A42A224A24A42A4AAI22A24AA224AI2A
AA42A4AI2I4224I44I4A2A2422A24IA2A42A224A24A42A4AAI22A24AA224AI2A
AA42I4AI2I4224I44I4A2A2422A24IA2A42A224A24A42A4AAI22A24AA224AI2A
AA42I4AI2I4224I44I4A2A2422A24IA2A42AI24A24A42A4AAI22A24AA224AI2A
AA42I4AIII4224I44I4A2A2422A24IA2A42AI24A24A42A4AAI22A24AA224AI2A
AA42I4AIII4224I44I4A2A2422A24IA2A42AI24A24A42A4AAIA2A24AA224A42A
AA42I4AIII4224I44I4A2A2422A244A2A42AI24A24A42A4AAIA2A24AA224A42A
AA42I4AIIA422424424A2A2422A244A2A42AI24A24A42A4AAIA2A24AA224A42A
AA42I4AIIA4224244I4A2A2422A244A2A42AI24A24A42A4AAIA2A24AA224A42A
AA42I4AIIA4224244I4A2A2422A244A2A42AI24A24A42A4AAIA2A24AA224A22A
AA42I4AIIA422424444A2A2422A244A2A42AI24A24A42A4AAIA2A24AA224A22A
AA42I4AIIA422424444A2A2422A244A2A42AI24A24A42A4AAIA2AA4AA222A22A
AA42I4AIIA422A22242A2A2422A244A2A42AI24A24A42A4AAIA2AA4AA222A22A
AA42I4AIIA422AA2222A2A2422A244A2A42AI24A24A42A4AAIA2AA4AA222A22A
AA42I4AIIA422AA2222A2A2422A244A2A42AI24A24A42A4AAIA2AA4AA222AI2A
AA42I4AIIA422AA2222A2A2422A244A2A42AI24A24A42A4AAIA2AA4AA222A42A
AA42I4AIIA422AA2222A2A2422A244A2A42AI24A24AA2A2AA2A2AA4AA222A42A
AA42I4AIIA422AA2222A2A2422A24AA2A42AI24A24AA2A2AA2A2AA4AA222A42A
AA42I4AIIA422AA2222A2AA422A22AA2A42A424A24AA2A2AA2A2AA4AA222A42A
AA4224AIIA422AA2222A2AA422A22AA2A42A424A24AA2A2AA2A2AA4AA222A42A
AA4224AIIA422AA2222A2AA422A22AA2A42A424A24AA2A2AA2A2AA4AA22IA42A
AA4224AIIA422AA2222A2AI422A22AA2A42A424A24AA2A2AA2A2AA4AA22IA42A
AA4224AIIA422AA2222A2AI422A22AA2A42A424A24AA2A2AAIA2AA4AA22IA42A
AA4224AIIA422AA2222A2A4422A22AA2A42A424A24AA2A2AAIA2AA4AA22IA42A
AA4224AIIA422AA2222A2A4422A22AA2A4AA424A24AA2A2AAIA2AA4AA22IA42A
AA4224AIIA422AA2222A2A4422A22AA2A4IA424A24AA2A2AAIA2AA4AA22IA42A
AA4224AIIA422AA2222A2A4422A22AA2A4IA4A4A24AA2A2AAIA2AA4AA22IA42A
AA4224AIIA422AA2A22A2A4422A22AA2A44A4A4A24AA2A2AAIA2AA4AA22IA42A
AA4224AIIA422AA2A22A2A4422A22AA2A4AA4A4A24AA2A2AA4A2AA4AA22IA42A
AA4224AIIA422AA2A22A2A4422A22AA2A4AA4A2A24AA2A2AA4A2AA4AA22IA42A
AA4224AIIA422AA2A22A2A4422A22AA2A2AA4A2A24AA2A2AA4A2AA4AA22IA42A
AA4224AIIA422AA2A22A2A4422A22AA2A2AA4I2A24AA2A2AA4A2AA4AA22IA42A
AA4224AIIA422IA2A22A2A4422A22AA2A2AA4I2A24AA2A2AA4A2AA4AA22IA42A
AA4224AIIA422IA2A22A2A4422A22AI2A2AA4I2A24AA2A2AA4A2AA4AA22IA42A
AA4224AIIA422IA2A22A2A4422A22AI2A2AA4I2A24AA2A2AA4A2AA4AA224A42A
AA4224AIIA422IA2A22A2A4422A22AI2A2AA4I2A24AA2A2AA4A2AA4AA222A22A
AA4224AIIA422IA2A22A2A4422A22AI2A2AA4I2A24AI2A2AA4A2AA4AA222A22A
AA4224AIIA422IA2A22A2A4422A22AI2A2AA4I2A24AI2I2AA4A2AA4AA222A22A
AA4224AIIA422IA2A22A2A4422A22AI2A2AA4I2A24II2I2AA4A2AA4AA222A22A
AA4224AIIA422IA2A22A2A4422A22AI2A2AA4I2A24II2I2AA4A2AA4AA22IA22A
AA4224AIIA422IA2A22A2A2422A22AI2A2AA4I2A24II2I2AA4A2AA4AA22IA22A
AA4224AIAA2222A2A22A2A2422A22AI2A2AA4I2A24II2I2AA4A2AA4AA22IA22A
AA4224AIAA2222A2A22A2A2422A22AI2A2AA4I2A24II2I2AA4A2AA4AA22IA22I
AA4224AIAA222IA2A22A2A2422A22AI2A2AA4I2A24II2I2AA4A2AA4AA22IA22I
AA4224AIAA222IA2A22A2A2422A22AI2A2AA422A244I242AA4A2AA4AA22IA22I
AA4224AIIA222IA2A22A2A2422A22AI2A2AA422A244I242AA4A2AA4AA22IA22I
AA4224AIIA222IA2AA2A2A2222A22A42A2AA422A244I242AA4A2AA4AA22IA22I
AA4224AIIA222IA2AA2A2A2222A22A42A2AA422A24AI222AA4A2AA4AA22IA22I
AA42A4A2IA2224A2AA2A2A2222A22A42A2AA422A24AI222AA4A2AA4AA22IA22I
AA42A4A2IA2224A2AA2A2A2222A22A42A2AA422A24AI222AA4A2AA4AA22IA222
AA42A4A2IA2224A2AI2A2A2222A22A42A2AA422A24AI222AA4A2AA4AA22IA222
AA42A4A2IA2224A2AI2A2A2222A22A42A2AA422A24AI222AA4A2AA4AA22II222
AA42A4A2IA2224A2AI2A2A2222A22A42A2AA422A24AI222AA2A2AA4AA22I4222
AA42A4A2IA2224A2AI2A2A2222A22A42A2AA422A24AI222AA2A2AA4AA22I2222
AA42A4A2IA2224A2AI2A2A2222A22A42A2AA422A24AI222AA2A2AA4AA2222222
AA42A4A2IA222AA2AI2A2A2222A22A42A2AA422A24AI222AA2A2AA4AA2222222
AA42A4A2AA222AA2AI2A2A2222A22A42A2AA422A24AI222AA2A2AA4AA2222222
AA42A4A2AA222AA2AI2A2A2222AA2A22A2AA422A24A4222AA2A2AA4AA2222222
AA42A4A2AA222AA2A42A2A2222AA2A22A2AA422A24A4222AA2A2AA4AA2222222
AA42A4A2AA222AA2A42A2A2222AA2A22A2AA422A24A42A2AA2A2AA2AA2222222
AA42A4A2AA222AA2A42A2A2222AA2A22A2AA422A24AA2A2AA2A2AA2AA2222222
AA42A4A2AA222AA2A42A2A2222AA2A22A2AA422A22AA2A2AA2A2AA2AA2222222
AA42A4A2AA222AA2A42A2A2222AA2A22A2AA422A22AA2A2AAIA2AA2AA2222222
AA42A4A2AA222AA2A42A2A2222AI2A22A2AA422A22AA2A2AAIA2AA2AA2222222
AA42A4A2AA222AA2A42A2A2222AI2A22A2AA422A22AA2A2AAIA2AA2AA222I222
AA42A4A2AA222AA2A42A2A2222AI2A22A2AA422A22AA2A2AAIA2AA2AA2222222
AA42A4A2AA222AA2A42A2A2222AI2A22A2AA422A22AA2A2AA2A2AA2AA2222222
AA42A4A2AA222AA2A42A2A2222AA2A22A2AA422A22AA2A2AA2A2AA2AA2222222
AA42A4A2AA222AA2A42A2AA222AA2A22A2AA422A22AA2A2AA2A2AA2AA2222222
AA42A4A2AA222AA2A42A2AA222AA2AI2A2AA422A22AA2A2AA2A2AA2AA2222222
AA42A4A2AA222AA2A42A2AA222AA2AI2A2AA422A2IAA2A2AA2A2AA2AA2222222
AA42A4A2AA222AA2A42A2AA222AA2AI2A2AA422A2IAA2A2AA2A2AA2AA222A222
AA42A4A2AA222AA2A42A2AA222AA2A22A2AA422A2IAA2A2AA2A2AA2AA222A222
AA42A4A2AA222AA2A42A2AA2A2AA2A22A2AA422A2IAA2A2AA2A2AA2AA222A222
AA42A4A2AA222AA2A42A2AI2A2AA2A22A2AA422A2IAA2A2AA2A2AA2AA222A222
AA22A2A2AA222AA2A42A2AI2A2AA2A22A2AA422A2IAA2A2AA2A2AA2AA222A222
AA22A2A2AA222AA2A42A2AI2I2AA2A22A2AA422A2IAA2A2AA2A2AA2AA222A222
AA22A2A2AA222AA2A42A2AI2I2AA2A22A2AA422A24AA2A2AA2A2AA2AA222A222
AA22A2A2AA222AA2A42A2AA222AA2A22A2AA422A24AA2A2AA2A2AA2AA222A222
AA22AIA2AA222AA2A42A2AA222AA2A22A2AA422A24AA2A2AA2A2AA2AA222A222
AA22AIA2AA222AA2A42A2AA222AA2A22A2AA422A24AA2I2AA2A2AA2AA222A222
AA22AIA2AA222AA2A42A2AA222AA2A22A2AA422A24AA2A2AA2A2AA2AA222A222
AA22AIA2AA222AA2A42A2AA222AA2A22A2AA422A24AA2I2AA2A2AA2AA222A222
AA22AIA2AA222AA2A42A2AI222AA2A22A2AA422A24AA2I2AA2A2AA2AA222A222
AA22AIA2AA222AA2A42A2AI222AA2A22A2AA422A24AA2I2AI2A2AA2AA222A222
AA22AIA2AA222AA2A42A2AI222AA2A22A2AA422A24AA222A22A2AA2AA222A222
AA22AIA2AA222AA2A42A2AI222AA2A22A2AA422A24AA2A2A22A2AA2AA222A222
AA22AIA2AA222AA2A42A2AA222AA2A22A2AA422A24AA2A2A22A2AA2AA222A222
AA22AIA2AA222AA2A42A2AA222AA2A22A2AA422A24AA2A2AA2A2AA2AA222A222
AA22AIA2AA222AA2AA2A2AA222AA2A22A2AA422A24AA2A2AA2A2AA2AA222A222
AA22AIA2AA222AA2AA2A2AA222AA2A22A2AA422A24AA2A2AA2A2AA2AI222A222
AA22AIA2AA222AA2AA2A2AA222AA2A22A2AA422A24AA2A2AA2I2AA2AI222A222
AA22AIA2AA222AA2AA2A2AA222IA2A22A2AA422A24AA2A2AA2I2AA2AI222A222
AA22AIA2AA2A2AA2AA2A2AA222IA2A22A2AA422A24AA2A2AA2I2AA2AI222A222
AA22AIA2AA2A2AA2AA2A2AA222IA2A22A2AA422A24AA2A2AA222AA2A4222A222
AA22AIA2AA2A2AA2AA2A2AA222IA2A22A2AA422A24AA2A2AA222AA2AA222A222
AA22AIA2AA2A2AA2AA2A2AA222IA2A22A2AA422A24AA2A2AA2I2AA2AA222A222
AA22AIA2AA2A2AA2AA2A2AA222IA2A22A2AA422A24AA2A2AI2I2AA2AA222A222
AA22AIA2AA2A2AA2AA2A2AA222IA2A22A2AA422A24AA2A2AA2I2AA2AA222A222
AA22AIA2AA2A2AA2AA2A2AA222IA2A22A2AA422A24AA2I2AA2I2AA2AA222A222
AA22AIA2AA2A2AA2AA2A2AA222IA2A22I2AA422A24AA2I2AA2I2AA2AA222A222
AA22AIA2AA2A2AA2AA2A2AA222IA2A22I2AA422A24AA2I2AA2I2IA2AA222A222
AA22AIA2AA2A2AA2AA2A2AA2224A2A22I2AA422A24AA2I2AA2I2IA2AA222A222
AA22AIA2AA2A2AA2AA2A2AA2224A2A22I2AA422A24AA2A2AA222IA2AA222A222
AA22AIA2AA2A2AA2AA2A2AA2224A2A22A2AA422A24AA2A2AA222IA2AA222A222
AA22AIA2AA2I2AA2AA2A2AA2224A2A22A2AA422A24AA2A2AA222IA2AA222A222
AA22AIA2AA2I2AA2AA2A2AA2224A2A22A2AA422A24AA2I2AA222IA2AA222A222
AA22AIA2AA2I2AA2AA2A2AA2224A2A22A2AA422A24AA222AA2224A2AA222A222
AA22AIA2AA2I2AA2AA2A2AA2224A2AA2A2AA422A24AA222AA2224A2AA222A222
AA22AIA2AA2I2AA2AA2A2AA2224A2AI2A2AA422A24AA222AA2224A2AA222A222
AA22AIA2AA2I2AA2AA2A2AA2224A2AI2A2AA422A24AA2I2AA2224A2AA222A222
AA22AIA2AA2I2AA2AA2A2AA2224A2AI2A2AA422A24IA2I2AA2224A2AA222A222
AA22AIA2AA2I2AA2AA2A2AA2224A2AI2A2AI422A24IA2I2AA2224A2AA222A222
AA22AIA2AA2I2AA2AA2A2AA2224A2AI2A2AI422A24IA2I2AI2224A2AA222A222
AA22AIA2AA2I2AA2AA2A2AA2224A2AI2A2AI422A24IA2A2A22224A2AA222A222
AA22AIA2AA2I2AA2AA2A2AA2224A2AI2A2A2422A244A2A2A22224A2AA222A222
AA22AIA2AA2I2AA2AA2A2AA2224A2A22A2A2422A244A2A2A22224A2AA222A222
AA22AIA2AA2I2AA2AA2A2AA2222A2A22A2A2422A244A2A2A22224A2AA222A222
AA22AIA2AA2I2AA2AA2A2AA2222A2A22A2A2422A244A2A2A22224A2AA222A22A
AA22AIA2AA2I2AA2AA2A2AA2222A2A22A2A2422AA44A2A2A22224A2AA222A22A
AA22AIA2AA2I2AA2AA2A2AA2222A2A22A2AA422AA24A2A2A22224A2AA222A22A
AA22AIA2AA222AA2AA2A2AA2222A2A22A2AA422AA24A2A2A22224A2AA222A22A
AA22AIA2AA222AA2AA2A2AA2222A2A22A2AA422AA24A2A2A22224A2IA222A22A
AA22AIA2AA222AA2AA2A2AA2222A2A22A2AA422AI24A2A2A22224A2IA222A22A
AA22AIA2AA222AA2AA2A2AA2222I2A22A2AA422AI24A2A2A22224A2IA222A22A
AA22AIA2AA222AA2AA2A2AA2222I2A22A2AA422AI24A2A2A22224A2IA222A22I
AA22AIA2AA222AA2AA2A2IA2222I2A22A2AA422AI24A2A2A22224A2IA222A22I
AA22AIA2AA222AA2AA2A2IA2222I2A22A2AA422AI24A2A2A22224A2AA222A222
AA22AIA2AA222AA2AA2A2IA2222I2A22A2AA422AI2AA2A2A22224A2AA222A222
AA22AIA2AA222AA2AA2A2IA2222I2A22A2AA422A22AA2A2A22224A2AA222A222
AA22AIA2AA222AA2AA2A24A2222I2A22A2AA422A22AA2A2A22224A2AA222A222
AA22AIA2AA222AA2AA2A24A222222A22A2AA422A22AA2A2A22224A2AA222A222
AA22A2A2AA222AA2AA2A24A222222A22A2AA422A22AA2A2A22224A2AA222A222
AA22A2A2AA222AA2AA2A24A222222A22A2AA422AI2AA2A2A22224A2AA222A222
AA2AA2A2AA222AA2AA2A24A222222A22A2AA422AI2AA2A2A22224A2AA222A222
AA2AA2A2AA222AA2AA2A24A222222A22A2AA422AI2AA2A2A22224A2IA222A222
AA2AA2A2AA222AA2AA2A24A222222A22A2AA422AI2IA2A2A22224A2IA222A222
AA2AA2A2AA222AA2AA2A24A222222A22A2AA422AI2IA2A2A22224A2II222A222
AA2AA2A2AA222AA2AA2A24A2222I2A22A2AA422AI2IA2A2A22224A2II222A222
AA2AA2A2AA222AA2AA2A24A2222I2A22A2AA422AI2IA2A2A22224A2I2222A222
AA2AA2A2AA222AA2AA2A24A2222I2A22A2AA422AI2IA2A2A22224A2I2222I222
AA2AA2A2AA222AA2AA2A22A222242A22A2AA422AI2IA2A2A22224A2I2222I222
AA2AA2A2AA222AA2AA2A2IA222242A22A2AA422AI2IA2A2A22224A2I2222I222
AA2AA2A2AA222AA2AA2A2IA222242A22A2AA422AI2IA2A2A22224A2II222I222
AA2AA2A2AA222AA2AA2A2IA222242A22A2AA422AI2IA2A2A22224A2I42224222
AA2AA2A2AA222AA2AA2A2IA222242A22A2AA422AI2IA2A2A22224A2I4222422A
AA2AA2A2AA222AA2AA2A2IA222242A22A2AA422AI2IA2A2A22224A2I2222422A
AA2AA2A2AA222AA2AA2A2IA222242A22A2AA422AI2IA2A2A22222A242222422A
AA2AA2A2AA222AA2AA2A2IA222242A22A2AA422A22IA2A2A22222A242222422A
AA2AA2A2AA222AA2AA2A2IA222242AA2A2AA422A22IA2A2A22222A242222422A
AA2AA2A2AA222AA2AA2A24A222242AA2A2AA422A22IA2A2A22222A242222422A
AA2AA2A2AA222AA2IA2A24A222242AA2A2AA422A22IA2A2A22222A242222422A
AA2AA2A2AA222AA2IA2A24A222242AA2A2AA422AA2IA2A2A22222A242222422A
AA2AA2A2AA222AA2IA2A24A2A2222AA2A2AA422AA24A2A2A22222A242222422A
AA2AA2A2AA222AA2IA2A2AA2A2222AA2A2AA422AA24A2A2A22222A242222422A
AA2IA2A2AA222AA2IA2A2AA2A2222AA2A2AA422AA24A2A2A22222A242222422A
AA2IA2A2AA222AA2IA2A2AA2A2222AA2A2AA422AA24I2A2A22222A242222422A
AA2IA2A2AA222AA2IA2A2AA2A2222AA2A2AA422AA24I2A2I22222A242222422A
AA2IA2A2AA222AI2IA2A2AA2A2222AA2A2AA422AA24I2A2I22222A242222422A
AA2IA2A2AA222II2IA2A2AA2A2222AA2A2AA422AA24I2A2I22222A242222422A
AA2IA2A2AA222II2IA2A2AA2I2222AA2A2AA422AA24I2A2I22222A242222422A
AA2IA2A2AA222II2IA2A2AA2I2222AA2A2AI422AA24I2A2I22222A242222422A
AA2IA2A2AA222II2IA2A2AA2I2222AA2A2A4422AA24I2A2I22222A242222422A
AA22A2A2AA222I424A2A2AA2I2222AA2A2A4422AA24I2A2I22222A242222422A
AA22A2A2AA222I424A2A2AA2I22A2AA2A2A2422AA2442A2I22222A242222422A
AA22A2A2AA222I424A2A2IA2I22A2AA2A2A2422AA2442A2I22222A242222422A
AA22A2A2AA222I424A2A2IA2I22A2AA2A2A2422AA2442A2I22222A24A222422A
AA22A2A2AA222I424A2A2IA2I22A2AA2A2A2422AA2442A2222222A24A222422A
AA22A2A2AA222I424A2A2IA2222A2AA2A2A2422AA2442A2222222A24A222422A
AA22A2A2AA222I424A2A2IA2222A2AA2A2A2422AA2442I2222222A24A222422A
AA22A2A2AA222I424A2A2IA2222A2AA2A2A2422AA2442I2222222A22A222222A
AA22A2A2AA222I222A2A2IA2222A2AA2A2A2422AA2442I2222222A22A222222A
AA22A2A2AA222I222A2A2IA2222A2AA2A2A2422AA2442I2222222A22A222A22A
AA22A2A2AA222I222A2A2IA2222A2AA2A2A2222AA2442I2222222A22A222A22A
AA22A2A2AA222I222A2A2IA2222A2AA2A2A2222AA2A4222222222A22A222A22A
AA22A2A2AA222I222A2A2IA2222A2AA2A2I2222AA2A4222222222A22A222A22A
AA22A2A2AA222I222A2A2IA2222A2AA2A2I2222AA2A4222222222A2IA222A22A
AA22A2A2AA222I222A2A2IA2222A2AA2A2I2222AA2A4222222222A22A222A22A
AA22A2A2AA222I222A2A2IA2222A2AA2A2I2222AA2A4222A22222A22A222A22A
AA22A2A2AA222IA22A2A2IA2222A2AA2A2I2222AA2A4222A22222A22A222A22A
AA22A2A2AA222IA22A2A24A2222A2AA2A2I2222AA2A4222A22222A22A222A22A
AA22A2A2AA222IA22A2A24A2222A2AA2A2I2222AA2A4222I22222A22A222A22A
AA22A2A2AA2224A22A2A24A2222A2AA2A2I2222AA2A4222I22222A22A222A22A
AA22A2A2AA2224A22A2A24A2222A2AA2A2I2222AA2A4222I22222A2AA222A22A
AA22A2A2AA2224A22A2A24A2222A2AA2A2I2222AA2A4222IA2222A2AA222A22A
AA22A2A2AA2224A22A2A24A2222A2AA2A2IA222AA2A2222IA2222A2AA222A22A
AA22A2A2AA2224A22A2A24A2222A2AA2A2IA222AA2A2222IA2222A2AA2A2A22A
AA22A2A2AA2224A22A2A24A2222A2AA2A2IA222AA2A2222AA2222A2AA2A2A22A
AA22A2A2AA2224A22I2A24A2222A2AA2A2IA222AA2A2222AA2222A2AA2A2A22A
AA22A2I2AA2224A22I2A24A2222A2AA2A2IA222AA2A2222AA2222A2AA2A2A22A
AA22A2I2AA2224A22I2A24A2222A2AA2A2IA222AA2A2222AA2222A2AA2A2A22I
AA22A2I2AA2224A22I2A24A2222A2AA2A2IA222AA2A22A2AA2222A2AA2A2A224
AA22A2I2AA2224A22I2A24A2222A2AA2A2IA222AA2AA2A2AA2222A2AA2A2A224
AA22A2I2AA2224A22I2A24A2222A2AA2A22A222AA2AA2A2AA2222A2AA2A2A224
AA22A2I2AA2224A22I2A24A2A22A2AA2A22A222AA2AA2A2AA2222A2AA2A2A224
AA22A2I2AA2224A22A2A24A2A22A2AA2A22A222AA2AA2A2AA2222A2AA2A2A224
AA22A2I2AA2224A22A2A22A2A22A2AA2A22A222AA2AA2A2AA2222A2AA2A2A224
AA22A2I2AA2224A22A2A22A2A22A2AA2A22A222AI2AA2A2AA2222A2AA2A2A224
AA22A2I2AA2224A22A2I22A2A22A2AA2A22A222AI2AA2A2AA2222A2AA2A2A224
AA22A2I2AA2224A22A2I2IA2A22A2AA2A22A222AI2AA2A2AA2222A2AA2A2A224
AA22A2I2AA2224A22A2I2IA2A22A2AA2A22A222A42AA2A2AA2222A2AA2A2A224
AA22A222AA2224A22A242IA2A22A2AA2A22A222A42AA2A2AA2222A2AA2A2A224
AA22A222AA2224A22A2A22A2A22A2AA2A22A222A42AA2A2AA2222A2AA2A2A224
AA22A222AA2224A22A2A22A2A22A2AA2A22A222A42AA2I2AA2222A2AA2A2A224
AA22A222AI2224A22A2A22A2A22A2AA2A22A222A42AA2I2AA2222A2AA2A2A224
AA22A2I2AI2224A22A2A22A2A22A2AA2A22A222A42AA2I2AA2222A2AA2A2A224
AA22A2I2AI2224A22A2A22A2A22A2AA2A22A222A42AA2I2AA2222A2AI2A2A224
AA22A2I2AI2224A22A2A22A2A22A2AA2A22A222A42AA242AA2222A2AI2A2A224
AA22A2I2AI2224A22A2A22A2A22A2AA2A2AA222A42AA242AA2222A2AI2A2A224
AA22A2I2AI2224A22A2A22A2A22I2AA2A2AA222A42AA242AA2222A2AI2A2A224
AA22A2I2AI2224A22A2A22A2A22I2AA2A2AA222A42AA242AA2222A2AI2A2A22A
AA22A2I2AI2224A22A2A22A2A2222AA2A2AA222A42AA242AA2222A2AI2A2A22A
AA22A2I2AI2224A22A2A22A2A22I2AA2A2AA222A42AA242AA2222A2AI2A2A22A
AA22A2I2AI2224A22A2I22A2A22I2AA2A2AA222A42AA242AA2222A2AI2A2A22A
AA22A2I2AI2224A22A2I22A2A22I2AA2A2AA222A42AA2A2AA2222A2A42A2A22A
AA22A2I2AI2A24A22A2222A2A2242AA2A2AA222A42AA2A2AA2222A2A42A2A22A
AA22A2I2AI2A24I22A2222A2A2242AA2A2AA222A42AA2A2AA2222A2A42A2A22A
AA2AA2I2A22A24I22A2222A2A2242AA2A2AA222A42AA2A2AA2222A2A42A2A22A
AA2AA2I2A22A24I22A2222A2A2222AA2A2AA222A42AA2A2AA2222A2A42A2A22A
AA2AA2I2A22A24I22A2A22A2A2222AA2A2AA222A42AA2A2AA2222A2A42A2A22A
AA2AA2I2AA2A24222A2A22A2A2222AA2A2AA222A42AA2A2AA2222A2A42A2A22A
AA2AA2I2AA2A22222A2A22A2A2222AA2A2AA222A42AA2A2AA2222A2A42A2A22A
AA2IA2I2AA2A22222A2A22A2A2222AA2A2AA222A42AA2A2AA2222A2A42A2A22A
AA2IA2I2AA2A2A222A2A22A2A2222AA2A2AA222A42AA2A2AA2222A2A42A2A22A
AA2IA2I2AA2A2A222A2A22A2A2222AA2A2AA222A42AA2A2AA2222A2AA2A2A22A
AA2IA2I2AA2A2A222A2A22A2A2222AA2A2AA222AA2AA2A2AA2222A2AA2A2A22A
AA2IA2I2AA2A2A222A2A22A2A22A2AA2A2AA222AA2AA2A2AA2222A2AA2A2A22A
AA2IA2I2IA2A2A222A2A22A2A22A2AA2A2AA222AA2AA2A2AA2222A2AA2A2A22A
AA2IA2I2IA2A2A222A2A2AA2A22A2AA2A2AA222AA2AA2A2AA2222A2AA2A2A22A
AA2IA222IA2A2A222A2A2AA2A22A2AA2A2AA222AA2AA2A2AA2222A2AA2A2A22A
AA2IA222IA2A2A222A2A2AA2A22A2IA2A2AA222AA2AA2A2AA2222A2AA2A2A22A
AA2IA222IA2A2A222A2A2IA2A22A2IA2A2AA222AA2AA2A2AA2222A2AA2A2A22A
AA2IA222IA2A2A222A2A2IA2A22A2IA2A2AA222AA2AA2A2AA2A22A2AA2A2A22A
AA2IA222AA2A2A222A2A24A2A22A2IA2A2AA222AA2AA2A2AA2A22A2AA2A2A22A
AA22A222AA2A2A222A2A24A2A22A2IA2A2AA222AA2AA2A2AA2A22A2AA2A2A22A
AA22A222AA2A2A222A2A24A2A22A2IA2A2AA222AA2AA2A2AA2A22A2AA2A2I22A
AA22A222AA2A2A222A2A22A2A22A24A2A2AA222AA2AA2A2AA2A22A2AA2A2I22A
AA22A222AA2A2AA22A2A22A2A22A24A2A2AA222AA2AA2A2AA2A22A2AA2A2I22A
AA22A222AA2A2AA22A2A22I2A22A24A2A2AA222AA2AA2A2AA2A22A2AA2A2I22A
AA22A222AA2A2AA22A2A22I2A22A24A2A2AA2A2AA2AA2A2AA2A22A2AA2A2I22A
AA22A222AA2A2AA22A2A22I2A2AA22A2A2AA2A2AA2AA2A2AA2A22A2AA2A2I22A
AA22A222AA2A2AA2AA2A2222A2AA22A2A2AA2A2AA2AA2A2AA2A22A2AA2A2I22A
AA22A2A2AA2A2AA2AA2A2222A2AA22A2A2AA2A2AA2AA2A2AA2A22A2AA2A2I22A
AA22A2A2AA2A2AA2AI2A2222A2AA22A2A2AA2A2AA2AA2A2AA2A22A2AA2A2I22A
AA22A2A2AA2A2AA2AI2I2222A2AA22A2A2AA2A2AA2AA2A2AA2A22A2AA2A2I22A
AA22A2A2AA2A2AA2A2222222A2AA22A2A2AA2A2AA2AA2A2AA2A22A2AA2A2I22A
AA22A2A2AA2A2AA2A2222222A2AA22A2A2AA2A2AA2AA2A2AA2A22A2AA2A2A22A
AA22A2A2AA2A2AA2I2222222A2AA22A2A2AA2A2AA2AA2A2AA2A22A2AA2A2A22A
AA22A2A2AA2A2IA2I2222222A2AA22A2A2AA2A2AA2AA2A2AA2A22A2AA2A2A22A
AA22A2A2AA2A2IA2I2222222A2AA22A2A2AA2A2AA2AA2A2AA2A2AA2AA2A2A22A
AA22A2A2AA2A2IA242222222A2AA22A2A2AA2A2AA2AA2A2AA2A2AA2AA2A2A22A
AA22A2A2AA2A2IA242222222A2AA22I2A2AA2A2AA2AA2A2AA2A2AA2AA2A2A22A
AA22A2A2AA2A2IA242222222A2AA2AI2A2AA2A2AA2AA2A2AA2A2AA2AA2A2A22A
AA22A2A2AA2A2IA242222A22A2AA2A42A2AA2A2AA2AA2A2AA2A2AA2AA2A2A22A
AA22A2A2AA2A2IA242222A22A2AA2A42A2AA2A2AA2AA2A2AA2A2IA2AA2A2A22A
AA22A2A2AA2A2IA242222A22A2AA2A42A2AA2A2AA2AA2A2AA2A22A2AA2A2A22A
AA22A2A2AA2A2IA242222AA2A2AA2A22A2AA2A2AA2AA2A2AA2A22A2AA2A2A22A
AA22A2A2AA2A2IA24A222AA2A2AA2A22A2AA2A2AA2AA2A2AA2A22A2AA2A2A22A
AA22A2A2AA2A2IA24A222IA2A2AA2A22A2AA2A2AA2AA2A2AA2A22A2AA2A2A22A
AA22A2A2AA2A2IA24A222IA2A2AA2A22A2AA2A2AA2AA2A2AA2A2IA2AA2A2A22A
AA22A2A2AA2A2IA24A222IA2A2AA2A22A2AA2A2AA2AA2A2AA2A2IA2AA2A2I22A
AA22A2A2AA2A2IA24A222IA2A2AA2A22A2AA2A2AA2AA2A2IA2A2IA2AA2A2I22A
AA22A2A2AA2A2IA24A222IA2A2AA2A22A2AA2A2AI2AA2A2IA2A2IA2AA2A2I22A
AA22A2A2AA2A2IA24A222IA2A2AA2A22A2AA2A2AI2AA2A22A2A22A2AA2A2422A
AA22A2A2AA2A2IA24I222IA2A2AA2A22A2AA2A2AI2AA2A22A2A22A2AA2A2422A
AA22A2A2AA2A2IA24I222IA2A2AA2A22A2AA2A2AI2AA2A22A2A22A2AA2A2222A
AA22A2A2AA2A2IA24I222IA2A2AA2A22A2AA2A2AI2AA2I22A2A22A2AA2A2222A
AA22A2A2AA2A2IA24I222IA2A2AA2A22A2AA2A2AI2AA2I22A2A22A2AA2A2A22A
AA22A2A2AA2A2IA24I222IA2A2AA2A22A2AA2A2A22AA2222A2A22A2AA2A2A22A
AA22A2A2AA2A2IA2442224A2A2AA2A22A2AA2A2A22AA2222A2A22A2AA2A2A22A
AA2AA2A2AA2A22A2442224A2A2AA2A22A2AA2A2A22AA2222A2A22A2AA2A2A22A
AA2AA2A2AA2A22A2442224A2A2AA2A22A2AA2I2A22AA2222A2A22A2AA2A2A22A
AA2IA2A2AA2A22A2442224A2A2AA2A22A2AA2I2A22AA2222A2A22A2AA2A2A22A
AA2IA2A2AA2A22A2442224A2A2AA2A22A2AA2I2A22AA2A22A2A22A2AA2A2A22A
AA2IA2A2AA2A22A244222AA2A2AA2A22A2AA242A22AA2A22A2A22A2AA2A2A22A
AA2IA2A2AA2A2IA244222AA2A2AA2A22A2AA242A22AA2A22A2A22A2AA2A2A22A
AA2IA2A2AA2A2IA244222AA2A2AA2A22A2AA242AA2AA2A22A2A22A2AA2A2A22A
AA2IA2A2AA2A2IA244222AA2A2AA2A22A2AA222AA2AA2A22A2A22A2AA2A2A22A
AA2IA2A2AA2A2IA24A222AA2A2AA2A22A2AA222AA2AA2A22A2A22A2AA2A2A22A
AA2IA2A2AA2A2IA24A2A2AA2A2AA2A22A2AA222AA2AA2A22A2A22A2AA2A2A22A
AA2IA2A2AA2A2IA24A2A2IA2A2AA2A22A2AA222AA2AA2A22A2A22A2AA2A2A22A
AA2IA2A2AA2A2IA24I2A2IA2A2AA2A22A2AA222AA2AA2A22A2A22A2AA2A2A22A
AA2IA2A2AA2A2IA24I2A2IA2A2AA2A22A2AA222AA2AA2A22A2A22I2AA2A2A22A
AA22A2A2AA2A2IA2442A2IA2A2AA2A22A2AA222AA2AA2A22A2A22I2AA2A2A22A
AA22A2A2AA2A2IA2442A2IA2A2AA2AA2A2AA222AA2AA2A22A2A22I2AA2A2A22A
AA22A2A2AA2A2IA2442A2IA2A2AA2AA2A2AA222AA2AA2A22A2A2242AA2A2A22A
AA22A2A2AA2A2IA2442A2IA2A2AA2AA2A2AA222AA2AA2A22A2A2222AA2A2A22A
AA22A2A2AA2A2IA2222A2IA2A2AA2AA2A2AA222AA2AA2A22A2A2222AA2A2A22A
AA22A2A2AA2A2IA22I2A2IA2A2AA2AA2A2AA222AA2AA2A22A2A2222AA2A2A22A
AA22A2A2AA2A2IA22I2A2IA2A2AA2AA2A2AA222AA2AA2A22A2A2222AI2A2A22A
AA22A2A2AA2A2II22I2A2IA2A2AA2AA2A2AA222AA2AA2A22A2A2222AI2A2A22A
AA22A2A2AA2A2II2II2A2IA2A2AA2AA2A2AA222AA2AA2A22A2A2222AI2A2A22A
AA22A2A2AA2A2II2II2A2IA2A2AA2IA2A2AA222AA2AA2A22A2A2222AI2A2A22A
AA22A2A2AA2A2II2II2A2IA2A2AA2IA2A2AA222AI2AA2A22A2A2222AI2A2A22A
AA22A2A2AA2A2II2II2A2IA2A2AA2IA2A2AA222AI2AA2I22A2A2222AI2A2A22A
AA22A2A2AA2A2II2II2A2IA2A2AA2IA2A2AA222AI2AA2I22A2A22I2AI2A2A22A
AA22A2A2AA2A2II2II2A2IA2A2AA2IA2A2AA222AI2IA2I22A2A22I2AI2A2A22A
AA22A2A2AA2A22222I2A22A2A2AA24A2A2AA222AI2IA2I22A2A22I2AI2A2A22A
AA22A2A2AA2A22222I2A22A2A2AA24A2A2AA222AI2IA2A22A2A2222AI2A2A22A
AA22A2A2AA2A22222I2A22A2A2AA24A2A2AA222AI2IA2A22A2A2222A42A2A22A
AA22A2A2AA2A22222I2A22A2A2AA24A2A2AA222AI22A2A22A2A2222A42A2A22A
AA22A2A2AA2A22222I2A22A2A2AA2AA2A2AA222AI22A2A22A2A2222A42A2A22A
AA22A2A2AA2A22222I2A22A2A2AA2AA2A2AA222A422A2A22A2A2222A42A2A22A
AA22A2A2AA2A22222I2A2AA2A2AA2AA2A2AA222A422A2A22A2A2222A42A2A22A
AA22A2A2AA2A2222242A2AA2A2AA2AA2A2AA222A422A2A22A2A2222A42A2A22A
AA22A2A2AA2A2222242A2AA2A2AA2AA2A2AA222A422A2A22A2A2222A22A2A22A
AA22A2A2AA2A2222I42A2AA2A2AA2AA2A2AA222A422A2A22A2A2222A22A2A22A
AA22A2A2AA2A2222I42A2AA2A2AA2AA2A2AA222A422A2A22A2A2A22A22A2A22A
AA22A2A2AA2A2222I42A2AA2A2AA2AA2A2AA222A422A2A22A2A2A22AA2A2A22A
AA22A2A2AA2A2222IA2A2AA2A2AA2AA2A2AA222A422A2A22A2A2A22AA2A2A22A
AA22A2A2AA2A22224A2A2AA2A2AA2AA2A2AA222A422A2A22A2A2A22AA2A2A22A
AA22A2A2AA2A22I24A2A2AA2A2AA2AA2A2AA222A422A2A22A2A2A22AA2A2A22A
AA22A2A2AA2A22I24A2A2AA2I2AA2AA2A2AA222A422A2A22A2A2A22AA2A2A22A
AA22A2A2AA2A22I24A2A2AA2I2AA2AA2A2AA222I422A2A22A2A2A22AA2A2A22A
AA22A2A2AA2A22I24A2A2AA2I2AA2AA2A2AA222I42IA2A22A2A2A22AA2A2A22A
AA22A2A2AA2A22I24A2A2AA2I2AA2AA2A2AA222I42II2A22A2A2A22AA2A2A22A
AA22A2A2AA2A22I24A2A2AA2I2AA2AA2A2AA222I42II2A22I2A2A22AA2A2A22A
AA22A2A2AA2A22424A2A2AA2I2AA2AA2A2AA222I42II2A22I2A2A22AA2A2A22A
AA22A2A2AA2A22424A2A2AA2I2AA2AA2A2AA222I42II2A2222A2A22AA2A2A22A
AA22A2A2AA2A22424A2A2AA2I2AA2AA2A2AA222I224I2A2222A2A22AA2A2A22A
AA22A2A2AA2A22424A2A2AA2I2AA2AA2A2AA2224224I2A2222A2A22AA2A2A22A
AA22A2A2AA2A22424A2A2IA2I2AA2AA2A2AA2224224I2A2222A2A22AA2A2A22A
AA22A2A2AA2A22424A2A2IA2I2AA2AA2A2AA222A222I2A2222A2A22AA2A2A22A
AA22A2A2AA2A22424A2A2IA2I2AA2AA2A2AA222A222A2A2222A2A22AA2A2A22A
AA22A2A2AA2A22424A2A2IA2A2AA2AA2A2AA222A222A2A2222A2A22AA2A2A22A
AA22A2A2AA2A22424A2A2IA2A2AA2AA2A2AA222A222A2A2A22A2A22AA2A2A22A
AA22A2A2AA2A22424A2A2IA2A2AA2AA2A2AA222A22AA2A2A22A2A22AA2A2A22A
AA22A2A2AA2A22424A2A2IA2A2AA2AA2A2AA222I22AA2A2A22A2A22AA2A2A22A
AA22A2A2AA2A22424A2A2IA2A2AA2AA2A2AA222A22AA2A2A22A2A22AA2A2A22A
AA22A2A2AA2A22424A2A2AA2A2AA2AA2A2AA222A22AA2A2A22A2A22AA2A2A22A
AA22A2A2AA2A22424A2A2AA2A2AA2AA2A2AA222A22AA2A2I22A2A22AA2A2A22A
AA22A2A2AA2A22422A2A2AA2A2AA2AA2A2AA222A22AA2A2I22A2A22AA2A2A22A
AA22A2A2AA2A22422A2A2AA2A2AA2AA2A2AA222A22AA2A2222A2A22AA2A2A22A
AA22A2A2AA2A22422A2A2IA2A2AA2AA2A2AA222A22AA2A2222A2A22AA2A2A22A
AA22A2A2AA2A22422A2A2IA2A2AA2IA2A2AA222A22AA2A2222A2A22AA2A2A22A
AA22A2A2AA2A22422A2A2IA2A2AA2IA2A2AA222A22AA2A2I22A2A22AA2A2A22A
AA22A2A2AA2A22422A2A2IA2A2AA2IA2A2AA222AA2AA2A2222A2A22AA2A2A22A
AA22A2A2AA2A22422A2A2IA2A2AA2AA2A2AA222AA2AA2A2222A2A22AA2A2A22A
AA22A2A2AA2A22422A2A2AA2A2AA2AA2A2AA222AA2AA2A2222A2A22AA2A2A22A
AA22A2A2AA2A22422A2A2IA2A2AA2AA2A2AA222AA2AA2A2222A2A22AA2A2A22A
AA22A2A2AA2A22422A2A2IA2A2AA2AA2A2AA222AA2AA2I2222A2A22AA2A2A22A
AA22A2A2AA2A22422A2A2IA2A2AA2AA2A2AA222AA2AA2A2222A2A22AA2A2A22A
AA22A2A2AA2A2A422A2A22A2A2AA2AA2A2AA222AA2AA2A2222A2A22AA2A2A22A
AA22A2A2AA2A2A422A2A22A2A2AA2AA2A2AI222AA2AA2A2222A2A22AA2A2A22A
AA22A2A2AA2A2A422I2A22A2A2AA2AA2A2AI222AA2AA2A2222A2A22AA2A2A22A
AA22A2A2AA2A2A422I2A22A2A2AA2AA2A2A2222AA2AA2A2222A2A22AA2A2A22A
AA22A2A2AA2A2A42242A22A2A2AA2AA2A2A2222AA2AA2A2222A2A22AA2A2A22A
AA22A2A2AA2A2A42242A22A2A2AA2AA2A2A2222AA2AA2A22A2A2A22AA2A2A22A
AA22A2A2AA2A2A42242A2AA2A2AA2AA2A2A2222AA2AA2A22A2A2A22AA2A2A22A
AA22A2A2AA2A2A42242A2AA2A2AA2AA2A2A2222AA2IA2A22A2A2A22AA2A2A22A
AA22A2A2AA2A2A42242A2AA2A2AA2AA2A2A2222AA2II2A22A2A2A22AA2A2A22A
AA22A2A2AA2A2A42242A2AA2A2AA2AA2A2A2222AA2II2A22I2A2A22AA2A2A22A
AA22A2A2AA2A2A22222A2AA2A2AA2AA2A2A2222AA2II2A22I2A2A22AA2A2A22A
AA22A2A2AI2A2A22222A2AA2A2AA2AA2A2A2222AA2II2A22I2A2A22AA2A2A22A
AA22A2A2AI2A2A222I2A2AA2A2AA2AA2A2A2222AA2II2A22I2A2A22AA2A2A22A
AA22A2A2AI2A2A222I2A2AA2A2AA2AA2A2A2222IA2II2A22I2A2A22AA2A2A22A
AA22A2A2AI2A2A222I2A2AA2A2AA2AA2A2A22222A2222A2242A2A22AA2A2A22A
AA22A2A2AI2A2AI22I2A2AA2A2AA2AA2A2A22222A2222A2242A2A22AA2A2A22A
AA22A2A2AI2A2AI22I2I2AA2A2AA2AA2A2A22222A2222A2242A2A22AA2A2A22A
AA22A2A2AI2A2AI22I2I2AA2A2AA2AA2A2A22222A2222A2222A2A22AA2A2A22A
AA22A2A2A22A2A42242I2AA2A2AA2AA2A2A22222A2222A2222A2A22AA2A2A22A
AA22A2A2A22A2A42242I2AA2A2AA2AA2A2A22222A22A2A2222A2A22AA2A2A22A
AA22A2A2A22A2A42242I2AA2A2AA2AA2A2A2222AA22A2A2222A2A22AA2A2A22A
AA22A2A2A22A2A42242I2AA2A2AA2AA2A2I2222AA22A2A2222A2A22AA2A2A22A
AA22A2A2A22A2A42242I2AA2A2AA2IA2A2I2222AA22A2A2222A2A22AA2A2A22A
AA22A2A2A22A2A42242I2AA2A2AA2IA2A2I2222AA22I2A2222A2A22AA2A2A22A
AA22A2A2A22A2A42242I2AA2A2AA2AA2A222222AA2242A2222A2A22AA2A2A22A
AA22A2A2A22A2A4224242AA2A2AA2AA2A222222AA2242A2222A2A22AA2A2A22A
AA22A2A2A22A2A4224242AA2A2AA2AA2A222222AA2242A2222A2A22AI2A2A22A
AA22A2A2A22A2A4224242AA2A2AA2IA2A222222AA2242A2222A2A22AI2A2A22A
AA22A2A2A22A2A4224242AA2A2AA2IA2A222222AA2242A2222A2A22AA2A2A22A
AA22A2A2A22A2A4224242AA2A2AA2IA2A222222AA22A2A2222A2A22AA2A2A22A
AA22A2A2A22A2A4224242AA2A2AA2IA2A222222AA22A2A2A22A2A22AA2A2A22A
AA22A2A2A22A2A4224242AA2A2AA2IA2A22A222AA22A2A2A22A2A22AA2A2A22A
AA22A2A2A22A2A422A222AA2A2AA2IA2A22A222AA22A2A2A22A2A22AA2A2A22A
AA22A2A2A22A2A422A222AA2A2AA2IA2A22A222AA22A2A2A22A2AA2AA2A2A22A
AA22A2A2A22A2A422A222AA2A2AA22A2A22A222AA22A2A2A22A2AA2AA2A2A22A
AA22A2A2A22A2A422A2A2AA2A2AA22A2A22A222AA22A2A2A22A2AA2AA2A2A22A
AA22A2A2A22A2AA22A2A2AA2A2AA22A2A22A222AA22A2A2A22A2AA2AA2A2A22A
AA22A2A2A22A2AA22A2A2AA2A2AA22A2A22I222AA22A2A2A22A2AA2AA2A2A22A
AA22A2A2A22A2AA22A2A2AA2A2AA22A2A224222AA22A2A2A22A2AA2AA2A2A22A
AA22A2A2A22A2AA22A2A2AI2A2AA22A2A224222AA22A2A2A22A2AA2AA2A2A22A
AA22A2A2A22A2AA22I2A2AI2A2AA22A2A224222AA22A2A2A22A2AA2AA2A2A22A
AA22A2A2A22A2AA22I2A2AI2A2AA22A2A224222AA22A2A2A22A2AA2IA2A2A22A
AA22A2A2A22A2AA22I2A2AI2A2AA22A2A224222AA22A2A2A22A2AA22A2A2A22A
AA22A2A2A22A2AA22A2A2A22A2AA22A2A224222AA22A2A2A22A2AA22A2A2A22A
AA22A2A2A22A2AA22A2A2A22A2AA22A2A224222AA2AA2A2A22A2AA22A2A2A22A
AA22A2A2A22A2AA22A2A2A22A2AA22A2A222222AA2AA2A2A22A2AA22A2A2A22A
AA22A2A2A22A2AA22A2A2A22A2AA22A2A222222AI2AA2A2A22A2AA22A2A2A22A
AA22A2A2A22A2AA22I2A2A22A2AA22A2A222222AI2AA2A2A22A2AA22A2A2A22A
AA22A2A2A22A2AA22I2A2A22A2AA22A2A222222AI2AA2A2A22A2AA22I2A2A22A
AA22A2A2A22A2AA22I2A2A22A2AA22A2A222222AI2AA2A2A22A2AA22A2A2A22A
AA22A2A2A22A2AA22I2A2A22A2AA2AA2A222222A42AA2A2A22A2AA22A2A2A22A
AA22A2A2A22A2AA22I2A2AA2A2AA2AA2A222222A42AA2A2A22A2AA22A2A2A22A
AA22A2A2A22A2AA22A2A2AA2A2AA2AA2A222222A42AA2A2A22A2AA22A2A2A22A
AA22A2A2A22A2AA22A2A2AA2A2AA2AA2A222222A22AA2A2A22A2AA22A2A2A22A
AA22A2A2AA2A2AA22A2A2AA2A2AA2AA2A222222A22AA2A2A22A2AA22A2A2A22A
AA22A2A2AA2A2AA22A2A2AA2A2AA2AA2A222222A22AA2A2A22A2AA2AA2A2A22A
AA22A2A2AA2A2AA22A2A2AA2A2AA2AA2A222222AA2AA2A2A22A2AA2AA2A2A22A
AA22A2A2AA2A2AA22A2A2AA2I2AA2AA2A222222AA2AA2A2A22A2AA2AA2A2A22A
AA22A2A2AA2A2AA22I2A2AA2I2AA2AA2A222222AA2AA2A2A22A2AA2AA2A2A22A
AA2AA2A2AA2A2AA2242A2AA2I2AA2AA2A222222AA2AA2A2A22A2AA2AA2A2A22A
AA2AA2A2AA2A2AA2242A2AA242AA2AA2A222222AA2AA2A2A22A2AA2AA2A2A22A
AA2AA2A2AA2A2AA2242A2AA242AA2AA2A222222AA2AA2A2AA2A2AA2AA2A2A22A
AA2AA2A2AA2A2AA22A2A2AA242AA2AA2A222222AA2AA2A2AA2A2AA2AA2A2A22A
AA2AA2A2AA2A2IA22A2A2AA242AA2AA2A222222AA2AA2A2AA2A2AA2AA2A2A22A
AA2AA2A2AA2A2IA22A2A2AA242AA2AA2A222222AI2AA2A2AA2A2AA2AA2A2A22A
AA2AA2A2AA2A2IA22A2A2AA242AA2AA2A2A2222AI2AA2A2AA2A2AA2AA2A2A22A
AA2AA2A2AA2A2IA22A2A2AA242AA2IA2A2A2222AI2AA2A2AA2A2AA2AA2A2A22A
AA2AA2A2AA2A2IA22A2A2AA242AA2IA2A2A2222A22AA2A2AA2A2AA2AA2A2A22A
AA2AA2A2AA2A2IA22A2A2AA222AA22A2A2A2222A22AA2A2AA2A2AA2AA2A2A22A
AA2AA2A2AA2A2IA22A2A2AA222AA2AA2A2A2222A22AA2A2AA2A2AA2AA2A2A22A
AA2AA2A2AA2A2IA22A2A2AA2A2AA2AA2A2A2222A22AA2A2AA2A2AA2AA2A2A22A
AA2AA2A2AA2A2IA22A2A2AA2A2AA2AA2A2A2222A22AA2A2AI2A2AA2AA2A2A22A
AA2IA2A2AA2A2IA22A2A2AA2A2AA2AA2A2A2222A22AA2A2AI2A2AA2AA2A2A22A
AA2IA2A2AA2A2IA22A2A2AA2A2AA2AA2A2A2222AI2AA2A2AI2A2AA2AA2A2A22A
AA2IA2A2AA2A2IA22A2A2AA2A2AA2AA2A2A2222AI2AA2A2AI2A2IA2AA2A2A22A
AA2IA2A2AA2A2IA22A2A2AA2A2AA2AA2A2A2222AI2AA2A2AI2A2IA2IA2A2A22A
AA2IA2A2AA2A2IA22A2A2AA2A2AA2AA2A2A2222AI2AA2A2AI2A2IA2AA2A2A22A
AA2IA2A2AA2A2IA22A2A2AA2A2AA2AA2A2A2222AI2AA2A2A42A2IA2AA2A2A22A
AA2IA2A2AA2A22A22A2A2AA2A2AA2AA2A2A2222AI2AA2A2A42A2IA2AA2A2A22A
AA2IA2A2AA2A22A22A2A2IA2A2AA2AA2A2A2222AI2AA2A2A42A2IA2AA2A2A22A
AA2IA2A2AA2A22A22A2A2II2A2AA2AA2A2A2222AI2AA2A2A42A2IA2AA2A2A22A
AA2IA2A2AA2A22A22A2A2II2I2AA2AA2A2A2222AI2AA2A2A42A2IA2AA2A2A22A
AA2IA2A2AA2A22A22I2A2II2I2AA2AA2A2A2222AI2AA2A2A42A2IA2AA2A2A22A
AA2IA2A2AA2A22A22I2A2II2I2AA2AA2A2A2222AI2IA2A2A42A2IA2AA2A2A22A
AA2IA2A2AA2A22A22I2A2II2I2AA2AA2A2A2222AI2IA2A2A42A2IA2IA2A2A22A
AA2IA2A2AA2A22A22I2A2II2I2AA2AA2A2A2222AI2IA2A2A22A2IA22A2A2A22A
AA2IA2A2AA2A22A22I2A2II2I2AA2AA2A2A2222AI22A2A2A22A24A22A2A2A22A
AA2IA2A2AA2A22A22I2A2IA222AA2AA2A2A2222A422A2A2A22A24A22A2A2A22A
AA22A2A2AA2A22A2242A2IA222AA2AA2A2A2222A422A2A2A22A24A22A2A2A22A
AA2AA2A2AA2A22A2242A24A222AA2AA2A2A2222A422A2A2A22A24A22A2A2A22A
AA2AA2A2AA2A22A2242A24A222AA2AA2A2A2222A422A2A2A22A24A2IA2A2A22A
AA2AA2A2AA2A22A2242A24A2I2AA2AA2A2A2222A422A2A2A22A24A2IA2A2A22A
AA2AA2A2AA2A22A2242A24I2I2AA2AA2A2A2222A422A2A2A22A24A2IA2A2A22A
AA2IA2A2AA2A22A2242A24I2I2AA2AA2A2A2222A422A2A2A22A24A2IA2A2A22A
AA2IA2A2AA2A22A2242A24I2I2AA2AA2A2A2222A222A2A2A22A24A2IA2A2A22A
AA2IA2A2AA2A22A2242A2442I2AA2AA2A2A2222A222A2A2A22A24A2IA2A2A22A
AA2IA2A2AA2A22A2242A2442I2AA2AA2A2A2222AI22A2A2A22A24A2IA2A2A22A
AA2IA2A2AA2A22A2242A2442I2AA2AA2A2A2222AI22A2A2A22A24I2IA2A2A22A
AA2IA2A2AA2A22A2242A2442I2AA2AA2A2A2222AI22A2A2A22A24224A2A2A22A
AA2IA2A2AA2A22A2242A2442I2AA2AA2A2A2222AA22A2A2A22A24224A2A2A22A
AA2IA2A2AA2A22A2242A24A2I2AA2AA2A2A2222AA22A2A2A22A24224A2A2A22A
AA2IA2A2AA2A22A2242A24A2I2AA2AA2A2A2222AA22A2A2A22A24222A2A2A22A
AA2IA2A2AA2A22A22A2A24A2I2AA2AA2A2A2222AA22A2A2A22A24222A2A2A22A
AA2IA2A2AA2A22A22A2A24A2I2AA2AA2A2A2222AA22A2A2A22A22222A2A2A22A
AA2IA2A2AA2A22A22A2A24A242AA2AA2A2A2222AA22A2A2A22A22222A2A2A22A
AA2IA2A2AA2A22A22A2A24A242AA2AA2A2A2222AA22A2A2A22A2222IA2A2A22A
AA2IA2A2AA2A22A22I2A24A242AA2AA2A2A2222AA22A2A2A22A2222IA2A2A22A
AA2IA2A2AA2A22A22I2A24A242AA2AA2A2A2222AI22A2A2A22A2222IA2A2A22A
AA2IA2A2AA2A22A22I2A24A242AA2AA2A2A2222AI22A2A2A22A22222A2A2A22A
AA2IA2A2AA2A2AA22I2A22A242AA2AA2A2A2222AI22A2A2A22A22222A2A2A22A
AA2IA2A2AA2A2AA2222A22A242AA2AA2A2A2222AI22A2A2A22A22222A2A2A22A
AA2IA2A2AA2A2AA2222A22A242AA2AA2A2A2222AI22A2A2A22A2I222A2A2A22A
AA2IA2A2AA2A2IA2222A22A242AA2AA2A2A2222AI22A2A2A22A2I222A2A2A22A
AA2IA2A2AA2A2IA2222A2IA242AA2AA2A2A2222AI22A2A2A22A2I222A2A2A22A
AA2IA2A2AA2A2IA2222A2IA242AA2AA2A2A2222AI22A2A2A22A2I22IA2A2A22A
AA2IA2A2AA2A2IA2222A2IA242AA2AA2A2A2222AI22A2A2I22A2I22IA2A2A22A
AA2IA2A2AA2A2IA2222A2IA242AA2AA2A2A2222AI22A2A2I22A2IA22A2A2A22A
AA2IA2A2AA2A2IA2222A2IA242AA2AA2A2AA222A222A2A2I22A2IA22A2A2A22A
AA2IA2A2AA2A22A2222A24A242AA2AA2A2AA222A222A2A2I22A2IA22A2A2A22A
AA2IA2A2AA2A22A2222A24A242AA2AA2A2AA222AI22A2A2I22A2IA22A2A2A22A
AA2IA2A2AA2A22A2222A24A242AA2AA2A2AA222AI22A2A2I22I2IA22A2A2A22A
AA2IA2A2AA2A22A2222A24A242AA2AA2A2AI222AI22A2A2I22I2IA22A2A2A22A
AA2IA2A2AA2A22A2222A24A242AA2AA2A2AI222AI22A2A2I22I2IA22A2A2A22I
AA2IA2A2AA2A22A2222A24A242AA2AA2A2AI222AI22A2A2IA2I2IA22A2A2A22I
AA2IA2A2AA2A22A2222A24A242AA2AA2A2AI222AI22A2A2IA2I2II22A2A2A22I
AA2IA2A2AA2A22A2222A24A242AA2AA2A2AI222AI22A2A2IA2I2II2IA2A2A22I
AA2IA2A2AA2A22A2222A24A242AA2AA2A2AI222AI22A2A2IA2I2I22IA2A2A22I
AA2IA2A2AA2A22A2222A24A242AA2AA2A2AI222AI22A2A2IA2I2I22AA2A2A222
AA2IA2A2AA2A22A2222A24A242AA2AA2A2AI222AI2AA2A22A222I22AA2A2A222
AA2IA2A2AA2A22A2222A24A242AA2AA2A2A2222A42AA2A22A222I22AA2A2A222
AA2IA2A2AA2A22A22A2A24A242AA2AA2A2A2222A42AA2A22A222I22AA2A2A222
AA2IA2A2AA2A22A22A2A24A242AA2AA2A2A2222A42AA2A22A222422AA2A2A222
AA2IA2A2AA2A22A22A2A24A242AA2AA2A2A2222A42AA2A22A222222AA2A2A222
AA2IA2A2AA2A22A22A2A24A242AA2AA2A2A2222A22AA2A22A222222AA2A2A222
AA2IA2A2AA2A22A22A2A24A222AA2AA2A2A2222A22AA2A22A222222AA2A2A222
AA22A2A2AA2A22A22A2A24A222AA2AA2A2A2222A22AA2A22A222222AA2A2A222
AA22A2A2AA2A22A22A2A24A222AA2AA2A2AI222A22AA2A22A222222AA2A2A222
AA22A2A2AA2A22A22A2A24A222AA2AA2A2AI222A22AA2A22A222222AA2A2A22A
AA22A2A2AA2A22A22A2A24A222AA2AA2A2AI222A22AA2A22A2222A2AA2A2A22A
AA22A2A2AA2A2AA22A2A22A222AA2AA2A2AI222A22AA2A22A2222A2AA2A2A22A
AA22A2A2AA2A2AA22A2A22A222AA2AA2A2A2222A22AA2A22A2222A2AA2A2A22A
AA2AA2A2AA2A2AA22A2A22A222AA2AA2A2A2222A22AA2A22A2222A2AA2A2A22A
AA2AA2A2AA2A2AA22A2A22A222AA2AA2A2A2222AI2AA2A22A2222A2AA2A2A22A
AA2AA2A2AA2A2AA22A2A22A222AA2AA2A2A2222AI2AA2A22A2222I2AA2A2A22A
AA2AA2A2AA2A2AA22A2A22A222AA2AA2A2A2222AI2AA2A22A222222AA2A2A22A
AA2AA2A2AA2A2AA22A2A22A222AA2AA2A2A2222AI2AA2A22A222222AA2A2A22I
AA2AA2A2AA2A2IA22A2A22A222AA2AA2A2A2222AI2AA2A22A222222AA2A2A22I
AA2AA2A2AA2A2IA22A2A22A2I2AA2AA2A2A2222AI2AA2A22A222222AA2A2A22I
AA2AA2A2AA2A2IA22A2A22A2I2AA2AA2A2A2222AI2AA2A22A222I22AA2A2A22I
AA2AA2A2AA2A2IA22A2A22A2I2AA2AA2I2A2222AI2AA2A22A222I22AA2A2A22I
AA2AA2A2AA2I2IA22A2A22A2I2AA2AA2I2A2222AI2AA2A22A222I22AA2A2A22I
AA2AA2A2AA2I2IA22A2A22A2I2AA2AA2I2A2222AI2AA2A22A222I22AA2A2A222
AA2AA2A2AA222IA22A2A22A242AA2AA2I2A2222AI2AA2A22A222I22AA2A2A222
AA2AA2A2AA222IA22A2A22A242AA2AA2I2A2222AI2AA2A22A2A2222AA2A2A222
AA2AA2A2AA222IA22A2A22A242AA2AA2I2A22A2A22AA2A22A2A2222AA2A2A222
AA2AA2A2AA222IA2AA2A22A222AA2AA242A22A2A22AA2A22A2A2222AA2A2A222
AA2AA2A2AA2222A2AA2A22A222AA2AA242A22A2A22AA2A22A2A2222AA2A2A222
AA2AA2A2AA2I22A2AA2A22A222AA2AA242A22A2A22AA2A22A2A2222AA2A2A222
AA2AA2A2AA2I22A2AA2A22A222AA2AA242A22A2A22AA2A22A2A2222IA2A2A222
AA2AA2A2AA2I22A2AA2A22A222AA2AA242A22A2A22AA2A22A2A2222IA2A2A22I
AA2AA2A2AA2I22A2AA2A22A2I2AA2AA242A22A2A22AA2A22A2A2222IA2A2A22I
AA2AA2A2AA2A22A2AA2A22A242AA2AA242A22A2A22AA2A22A2A2222IA2A2A22I
AA2AA2A2AA2A22A2AA2A22A242AA2AA242A22A2AI2AA2A22A2A2222IA2A2A22I
AA2AA2A2AA2A22A2AA2A22A242AA2AA242A22A2AI2AA2A22A2A2I22IA2A2A22I
AA2AA2A2AA2A22A2AA2A22A242AA2AA242A22A2AI2AA2A22A2A2I224A2A2A224
AA2AA2A2AA2A22A2AA2A22A242AA2AA242A22A2AI2AA2A22A2A2IA24A2A2A224
AA2AA2A2AA2A22A2AA2A22A242AA2AA222A22A2A42AA2A22A2A2IA24A2A2A224
AA2AA2A2AA2A22A2AA2A22A242AA2AA2A2A22A2A22AA2A22A2A2IA24A2A2A224
AA2AA2A2AA2A22A2AA2A22A222AA2AA2A2A22A2A22AA2A22A2A2IA24A2A2A224
AA2AA2A2AA2A2AA2AA2A22A222AA2AA2A2A22A2A22AA2A22A2A2IA24A2A2A224
AA2AA2A2AA2A2AA2AA2A22A2I2AA2AA2A2A22A2A22AA2A22A2A2IA24A2A2A224
AA2AA2A2AA2A2AA2AA2A22A2I2AI2AA2A2A22A2A22AA2A22A2A2IA24A2A2A224
AA2AA2A2AA2A2AA2AA2A22A2I2AI2AA2A2A22A2A22AA2A22A2A2IA24A2A2A22A
AA2AA2A2AA2A2AA2AA2A22A2I2AI2AA2A2AA2A2A22AA2A22A2A2IA24A2A2A22A
AA2AA2A2AA2A2AA2AA2A22A242A42AA2A2AA2A2A22AA2A22A2A2IA24A2A2A22A
AA2AA2A2AA2A2AA2AA2A22A242A42AA2A2AA2A2A22AA2A22A2A24A24A2A2A22A
AA2AA2A2AA2A2AA2AA2A22A242A42AA2A2AA2A2A22AA2A22A2A24A2AA2A2A22A
AA2AA2A2AA2A2AA2AA2I22A242A42AA2A2AA2A2A22AA2A22A2A24A2AA2A2A22A
AA2AA2A2AA2A2AA2AA2I22A242A42AA2A2AA2A2A22AA2A22A2A22A2AA2A2A22A
AA2AA2A2AA2A2AA2AA2I2AA222A22AA2A2AA2A2A22AA2A22A2A22A2AA2A2A22A
AA2AA2A2AA2A2AA2AA222AA222A22AA2A2AA2A2A22AA2A22A2A22A2AA2A2A22A
AA2AA2A2AI2A2AA2AA222AA222A22AA2A2AA2A2A22AA2A22A2A22A2AA2A2A22A
AA2AA2A2AI2A2AI2AA222AA222A22AA2A2AA2A2A22AA2A22A2A22A2AA2A2A22A
AA2AA2A2AI2A2AI2AA2I2AA222A22AA2A2AA2A2A22AA2A22A2A22A2AA2A2A22A
AA2AA2A2A22A2A42AA242AA222A22AA2A2AA2A2A22AA2A22A2A22A2AA2A2A22A
AA2AA2A2A22A2A42AA242AA222A22AI2A2AA2A2A22AA2A22A2A22A2AA2A2A22A
AA2AA2A2AI2A2A42AA242AA222A22AI2A2AA2A2A22AA2A22A2A22A2AA2A2A22A
AA2AA2A2AI2A2A42AA242AA222A22AI2A2AA2A2A22AA2A22A2A22A2AI2A2A22A
AA2AA2A2AI2A2A42AA242AA222A22AA2A2AA2A2A22AA2A22A2A22A2AI2A2A22A
AA2AA2A2AI2A2A42AA242AA222AA2AA2A2AA2A2A22AA2A22A2A22A2AI2A2A22A
AA2AA2A2AI2A2A42AA222AA222AA2AA2A2AA2A2A22AA2A22A2A22A2AI2A2A22A
AA2AA2A2A22A2A42AA222AA222AA2AA2A2AA2A2A22AA2A22A2A22A2AI2A2A22A
AA2AA2A2A22A2A42AA222AA222AI2AA2A2AA2A2A22AA2A22A2A22A2AI2A2A22A
AA2AA2A2A22A2A42AA222AA222AI2AA2A2AA2A2A22AA2A22A2A22A2AA2A2A22A
AA2AA2A2A22A2A42AA222AA222A22AA2A2AA2A2A22AA2A22A2A22A2AA2A2A22A
AA2AA2A2A22A2A42AA222AA222A22AA2A2AA2A2A22AA2A22A2A2AA2AA2A2A22A
AA2AA2A2A22A2A42AA222AA222A22AA2A2AA2A2AA2AA2A22A2A2AA2AA2A2A22A
AA2AA2A2A22A2A42AA222AA2A2A22AA2A2AA2A2AA2AA2A22A2A2AA2AA2A2A22A
AA2AA2A2A22A2A42AA222IA2A2A22AA2A2AA2A2AA2AA2A22A2A2AA2AA2A2A22A
AA2AA2A2A22A2A42AA222IA2A2A22AA2A2AI2A2AA2AA2A22A2A2AA2AA2A2A22A
AA2AA2A2A22A2A42AA222IA2A2A22AA2A2A22A2AA2AA2A22A2A2AA2AA2A2A22A
AA2AA2A2A22A2A42AA222AA2A2A22AA2A2A22A2AA2AA2A22A2A2AA2AA2A2A22A
AA2AA2A2A22A2A22AA222AA2A2A22AA2A2A22A2AA2AA2A22A2A2AA2AA2A2A22A
AA2AA2A2A22A2AI2AA222AA2A2A22AA2A2A22A2AA2AA2A22A2A2AA2AA2A2A22A
AA2AA2A2A22A2AI2AA222AA2A2A22AA2I2A22A2AA2AA2A22A2A2AA2AA2A2A22A
AA2AA2A2A22A2AI2AA222AA2A2A22AA2I2A22A2AA2AA2A22A2A2AA2AI2A2A22A
AA2AA2A2A22A2AI2AA222AA2A2A22AA2I2A22A2AA2AA2A22A2A2AA2AA2A2A22A
AA2AA2A2A22A2AI2AA222AA2A2A22AA2A2A22A2AA2AA2A22A2A2AA2AA2A2A22A
AA2AA2A2A22A2AI2AA222AA2A2A22AA2A2A22A2AA2AA2A2AA2A2AA2AA2A2A22A
AA2AA2A2A22A2AI2AA222AA2A2AA2AA2A2A22A2AA2AA2A2AA2A2AA2AA2A2A22A
AA2AA2A2A22A2AI2AA222AA2A2AA2AA2A2A22A2AA2AA2A2AA2A2AA2AI2A2A22A
AA2AA2A2A22A2AI2AA222AI2A2AA2AA2A2A22A2AA2AA2A2AA2A2AA2AI2A2A22A
AA2AA2A2A22A2AI2AA222AI2A2AA2AA2A2A22A2AA2AA2A2IA2A2AA2AI2A2A22A
AA2AA2A2A22A2AI2AA222AI2A2AA2AA2I2A22A2AA2AA2A2IA2A2AA2AI2A2A22A
AA2AA2A2A22A2AI2AA222AI2A2AA2AA2I2A22A2AA2AA2A22A2A2AA2A22A2A22A
AA2AA2A2A22A2AI2AA222AA2A2AA2AA222A22A2AA2AA2A22A2A2AA2A22A2A22A
AA2AA2A2A22A2A22AA222AA2A2AA2AA222A22A2AA2AA2A22A2A2AA2A22A2A22A
AA2AA2A2A22A2A22AA222AI2A2AA2AA222A22A2AA2AA2A22A2A2AA2A22A2A22A
AA2AA2A2A22A2A22AA222AI2A2AA2AA222A22A2AA2AA2A22A2A2AA2AI2A2A22A
AA2AA2A2A22A2A22AA222A42A2AA2AA222A22A2AA2AA2A22A2A2AA2AI2A2A22A
AA2AA2A2A22A2A22AA222A42A2AA2AA222A22A2AA2AA2A22A2A2AA2II2A2A22A
AA2AA2A2A22A2A22AA222A42A2AA2AA2A2A22A2AA2AA2A22A2A2AA2II2A2A22A
AA2AA2A2A22A2A22AA222A42A2AA2AA2A2A22A2AA2AA2A22A2A2AA22I2A2A22A
AA2AA2A2A22A2A22AA222A42A2AA2AA2A2A22A2AA2AA2A22A2A2AA2242A2A22A
AA2AA2A2A22A2A22AA222A42A2AA2AA2A2A22A2AA2AA2I22A2A2AA2242A2A22A
AA2AA2A2A22A2A22AA222A42A2AA2IA2A2A22A2AA2AA2I22A2A2AA2242A2A22A
AA2AA2A2A22A2A22AA222A22A2AA24A2A2A22A2AA2AA2I22A2A2AA2242A2A22A
AA2AA2A2A22A2A22AA222A22A2AA24A2A2A22A2AA2AA2222A2A2AA2242A2A22A
AA2AA2A2A22A2AA2AA222A22A2AA24A2A2A22A2AA2AA2222A2A2AA2242A2A22A
AA2AA2A2AA2A2AA2AA222A22A2AA24A2A2A22A2AA2AA2222A2A2AA2242A2A22A
AA2AA2A2AA2A2AA2AA222A22A2AA24A2A2A22A2AA2AA2A22A2A2AA2242A2A22A
AA2AA2A2AA2A2AA2AA222A22A2AA2AA2A2A22A2AA2AA2A22A2A2AA2242A2A22A
AA2AA2A2AA2A2AA2AA222AI2A2AA2AA2A2A22A2AA2AA2A22A2A2AA2242A2A22A
AA2IA2A2AA2A2AA2AA222AI2A2AA2AA2A2A22A2AA2AA2A22A2A2AA2242A2A22A
AA2IA2A2AI2A2AA2AA222AI2A2AA2AA2A2A22A2AA2AA2A22A2A2AA2242A2A22A
AA2IA2A2AI2A2AI2AA222AI2A2AA2AA2A2A22A2AA2AA2A22A2A2AA2242A2A22A
AA2IA2A2AI2A2AI2AA222II2A2AA2AA2A2A22A2AA2AA2A22A2A2AA2242A2A22A
AA2IA2A2AI2A2AI2AA222II2A2AA2AA2A2AA2A2AA2AA2A22A2A2AA2242A2A22A
AA2IA2A2AI2A2AI2AA222242A2AA2AA2A2AA2A2AA2AA2A22A2A2AA2242A2A22A
AA2IA2A2A22A2AI2AA222242A2AA2AA2A2AA2A2AA2AA2A22A2A2AA2242A2A22A
AA2IA2A2A22A2AI2AA222242A2AA2IA2A2AA2A2AA2AA2A22A2A2AA2242A2A22A
AA2IA2A2A22A2AI2AA222242A2AA2IA2A2AA2A2AA2AA2A22A2A2AA22A2A2A22A
AA2IA2A2A22A2AI2AA2222A2A2AA2IA2A2AA2A2AA2AA2A22A2A2AA22A2A2A22A
AA2IA2A2A22A2AI2AA222IA2A2AA2IA2A2AA2A2AA2AA2A22A2A2AA22A2A2A22A
AA2IA2A2A22A2AI2AA222IA2A2AA22A2A2AA2A2AA2AA2A22A2A2AA22A2A2A22A
AA2IA2A2AI2A2AI2AA222IA2A2AA22A2A2AA2A2AA2AA2A22A2A2AA22A2A2A22A
AA2IA2A2AI2A2AI2AA222II2A2AA22A2A2AA2A2AA2AA2A22A2A2AA22A2A2A22A
AA2IA2A2AI2A2AI2AA222AI2A2AA22A2A2AA2A2AA2AA2A22A2A2AA22A2A2A22A
AA2IA2A2AI2A2AI2AA222AI2A2AA2AA2A2AA2A2AA2AA2A22A2A2AA22A2A2A22A
AA2IA2A2A22A2A42AA222AI2A2AA2AA2A2AA2A2AA2AA2A22A2A2AA22A2A2A22A
AA2IA2A2A22A2A42AA222AI2A2AA2AA2A2AA2A2AA2AA2A22A2A2AA22I2A2A22A
AA2IA2A2A22A2A42AA222AI2I2AA2AA2A2AA2A2AA2AA2A22A2A2AA22I2A2A22A
AA2IA2A2A22A2A42AA222AI2I2AA2AA2A2AA2A2AA2AA2A22A2A2AA22A2A2A22A
AA2IA2A2A22A2A42AA222A2242AA2AA2A2AA2A2AA2AA2A22A2A2AA22A2A2A22A
AA2IA2A2A22A2I42AA222A2242AA2AA2A2AA2A2AA2AA2A22A2A2AA22A2A2A22A
AA2IA2A2A22A2I42AA222A2242AA2AA2I2AA2A2AA2AA2A22A2A2AA22A2A2A22A
AA2IA2A2A22A2I42AA222A2242AA2AA2I2AI2A2AA2AA2A22A2A2AA22A2A2A22A
AA2IA2A2A22A2I42AA222A2242AA2AA2A2A22A2AA2AA2A22A2A2AA22A2A2A22A
AA2IA2A2A22A2I42AA222A2242AA2AA2A2A22A2AA2IA2A22A2A2AA22A2A2A22A
AA2IA2A2A22A2IA2AA222A2222AA2AA2A2A22A2AA2IA2A22A2A2AA22A2A2A22A
AA2IA2A2A22A2AA2AA222A2222AA2AA2A2A22A2AA2IA2A22A2A2AA22A2A2A22A
AA2IA2A2AA2A2AA2AA222A2222AA2AA2A2A22A2AA2IA2A22A2A2AA22A2A2A22A
AA2IA2A2AA2A2AA2AA222A2222AA2AA2I2A22A2AA2IA2A22A2A2AA22A2A2A22A
AA2IA2A2AA2A2AA2AA222A2222AA2AA2I2A22A2AA2IA2A22A2A2AI22A2A2A22A
AA2IA2A2AA2A2AA2AA222A2222AA2AA2I2AA2A2AA2IA2A22A2A2A422A2A2A22A
AA2IA2A2AA2A2AA2AA222A2222AA2AA222AA2A2AA2IA2A22A2A2A422A2A2A22A
AA2IA2A2AA2A2AA2AA222A2222AA2AA222AA2A2AA2IA2A22A2A2AA22A2A2A22A
AA2IA2A2AA2A2AA2AA222A2222AA2AA222AA2A2AA2AA2A22A2A2AA22A2A2A22A
AA2IA2A2AA2A2AA2AA222A2222AA2AA2I2AA2A2AA2AA2A22A2A2AA22A2A2A22A
AA2IA2A2AA2A2AA2AA222AA222AA2AA2I2AA2A2AA2AA2A22A2A2AA22A2A2A22A
AA2IA2A2AA2A2AA2AA222AA222AA2AA242AA2A2AA2AA2A22A2A2AA22A2A2A22A
AA2II2A2AA2A2AA2AA222AA222AA2AA242AA2A2AA2AA2A22A2A2AA22A2A2A22A
AA2II2A2AA2A2AA2AA222AA2A2AA2AA222AA2A2AA2AA2A22A2A2AA22A2A2A22A
AA2II2A2AA2A2AA2AA222AA2A2AA2AA222AA2A2AI2AA2A22A2A2AA22A2A2A22A
AA2II2A2AA2A2AA2AA222AA2A2AA2AA2A2AA2A2A22AA2A22A2A2AA22A2A2A22A
AA2IA2A2AA2A2AA2AA222AA2A2AA2AA2A2AA2A2A22AA2A22A2A2AA22A2A2A22A
AA2IA2A2AA2A2AA2AA222AA2A2AA2AA2A2AA2A2A22AA2A22A2A2IA22A2A2A22A
AA2IA2A2AA2I2AA2AA222AA2A2AA2AA2A2AA2A2A22AA2A22A2A2IA22A2A2A22A
AA2IA2A2AA2I2AA2AA222AA2I2AA2AA2A2AA2A2A22AA2A22A2A2IA22A2A2A22A
AA2IA2A2AA2I2AA2AA222AA2I2AA2AA2A2AA2A2I22AA2A22A2A2IA22A2A2A22A
AA2IA2A2AA2I2AA2AA222AA2I2AA2AA2A2AA2A2II2AA2A22A2A2IA22A2A2A22A
AA2IA2A2AA2A2AA2AA222AA242AA2AA2A2AA2A2II2AA2A22A2A2IA22A2A2A22A
AA2IA2A2AA2A2AA2AA222AA242AA2AA2A2AA2A2IA2AA2A22A2A2IA22A2A2A22A
AA2IA2A2AA2A2AA2AA222AA2A2AA2AA2A2AA2A24A2AA2A22A2A2IA22A2A2A22A
AA2IA2A2AA2A2AA2AA222AA2A2AA2IA2A2AA2A24A2AA2A22A2A2IA22A2A2A22A
AA2IA2A2AA2A2AA2AA222AA2A2AA2IA2A2AA2A24A2AA2A22A2A22A22A2A2A22A
AA2IA2A2AA2A2AA2AA222AA2A2AA2AA2A2AA2A22A2AA2A22A2A22A22A2A2A22A
AA22A2A2AA2A2AA2AA222AA2A2AA2AA2A2AA2A22A2AA2A22A2A22A22A2A2A22A
AA22A2A2AA2A2AA2AA222AA2A2AA2AA2A2AA2A22A2AA2A2AA2A22A22A2A2A22A
AA22A2A2AA2A2AA2AA222AA2I2AA2AA2A2AA2A22A2AA2A2AA2A22A22A2A2A22A
AA22A2A2AA2A2AA2AA222AA2I2AA2AA2A2AA2A22A2AI2A2AA2A22A22A2A2A22A
AA2AA2A2AA2A2AA2AA222AA2I2AA2AA2A2AA2A22A2AI2A2AA2A22A22A2A2A22A
AA2AA2A2AA2A2AA2AA222AA2I2AA2AA2A2AA2A22A2A22A2AA2A22A22A2A2A22A
AA2AA2A2AA2A2AA2AA222AA2I2AA2IA2A2AA2A22A2A22A2AA2A22A22A2A2A22A
AA2AA2A2AA2A2AA2AA222AA2I2AA2IA2A2AA2A22A2A22A2AA2A2IA22A2A2A22A
AA2AA2A2AA2A2AA2AA222AA2I2AA2IA2A2IA2A22A2A22A2AA2A2IA22A2A2A22A
AA2AA2A2AA2A2AA2AA222AA2I2AA2IA2A2IA2A2AA2A22A2AA2A22A22A2A2A22A
AA2AA2A2AA2A2AA2AA222AA2I2AA2IA2A2IA2A2AA2A22A2AA2A22A2AA2A2A22A
AA2AA2A2AA2A2AA2AA222AA2I2AA2IA2A2IA2A2AI2A22A2AA2A22A2AA2A2A22A
AA2AA2A2AA2A2AA2AA222AA2I2AA2IA2A22A2A2A22A22A2AA2A22A2AA2A2A22A
AA2AA2A2AA2A2AA2AA222AA2I2AA2AA2A22A2A2A22A22A2AA2A22A2AA2A2A22A
AA2AA2A2AA2A2AA2AA222AA2I2AA2AA2A22A2A2A22A22A2AA2A2IA2AA2A2A22A
AA2AA2A2AA2A2AA2AA222AA2I2AA2AA2I22A2A2A22A22A2AA2A2IA2AA2A2A22A
AA2AA2A2AA2A2AA2AA222AA2I2AA2AA2I22A2A2A22A22A2AA2A2IA2IA2A2A22A
AA2AA2A2AA2A2AA2AA222AA2I2AA2AA2I2IA2A2A22A22A2AA2A2IA2IA2A2A22A
AA2AA2A2AA2A2AA2AA222AA2I2AA2AA242IA2A2A22A22A2AA2A2IA2IA2A2A22A
AA2AA2A2AA2A2AA2AA222AA2I2AA2AA242IA2A2A22A22A2AA2A24A2IA2A2A22A
AA2AA2A2AA2A2AA2AA222AA2I2AA2AA242IA2A2A22AA2A2AA2A24A2IA2A2A22A
AA2AA2A2AA2A2AA2AA222AA2I2AA2AA222IA2A2A22AA2A2AA2A24A2IA2A2A22A
AA2AA2A2AA2A2AA2AA222AI2I2AA2AA222IA2A2A22AA2A2AA2A24A2IA2A2A22A
AA2AA2A2AA2A2AA2AA222A2222AA2AA222IA2A2A22AA2A2AA2A24A2IA2A2A22A
AA2AA2A2AA2A2AA2AA222A2222AI2AA222IA2A2A22AA2A2AA2A24A2IA2A2A22A
AA2AA2A2AA2A2AA2AA222A2222AI2AA222IA2A2A22AA2A2AA2A24A2II2A2A22A
AA2AA2A2AA2A2AA2AA222A2222AI2AA222IA2A2A22AA2A2AA2A22A2I42A2A22A
AA2AA2A2AA2A2AA2AA222A2222AI2AA2222A2A2A22AA2A2AA2A22A2I42A2A22A
AA2AA2A2AA2A2AI2AA222A2222AI2AA2222A2A2A22AA2A2AA2A22A2I42A2A22A
AA2AA2A2AA2A2AI2AI222A2222AI2AA2222A2A2A22AA2A2AA2A22A2I42A2A22A
AA2AA2A2AA2A2II2AI222A2222AI2AA2222A2A2A22AA2A2AA2A22A2I42A2A22A
AA2AA2A2AA2A2II2AI222A2222AI2AA2222A2A2A22AA2A2AA2A2AA2242A2A22A
AA2AA2A2AI2A2II2AI222A2222AI2AA2222A2A2A22AA2A2AA2A2AA2242A2A22A
AA2AA2A2AI2A2II2AI222AI222AI2AA2222A2A2A22AA2A2AA2A2AA2242A2A22A
AA2AA2A2AI2A2II2AI222AI2I2AI2AA2222A2A2A22AA2A2AA2A2AA2242A2A22A
AA2AA2A2AI2A2II2AI222AI2I2AI2AA222IA2A2A22AA2A2AA2A2AA2242A2A22A
AA2AA2A2AI2A2II2AI222AI2I2AI2AA222II2A2A22AA2A2AA2A2AA2242A2A22A
AA2AA2A2AI2A2II2AI222AI2I2AI2AA222II2A2AA2AA2A2AA2A2AA2242A2A22A
AA2AA2A2AI2A2II2AI222AI2I2AI2AA2222I2A2AA2AA2A2AA2A2AA2242A2A22A
AA2AA2A2AI2A2II2AA222A22I2A22AA222242A2AA2AA2A2AA2A2AA2242A2A22A
AA2AA2A2A22A2I42AA222A22I2A22AA222242A2AA2AA2A2AA2A2AA2242A2A22A
AA2AA2A2A22A2I42AI222A22I2A22AA222242A2AA2AA2A2AA2A2AA2242A2A22A
AA2AA2A2A22A2I42AI222A22I2A22AA222242A2IA2AA2A2AA2A2AA2242A2A22A
AA2AA2A2A22A2I42AI222A22I2A22AA222242A2II2AA2A2AA2A2AA2242A2A22A
AA2AA2A2A22A2I42AI222A22I2A22AA222242A2II2AI2A2AA2A2AA2242A2A22A
AA2AA2A2A22A2I42AI222A22I2A22AA222242A2II2AI2A2AA2A2AA2222A2A22A
AA2AA2A2A22A2I42AI222A22I2A22AA222222A2442A42A2AA2A2AA2222A2A22A
AA2AA2A2A22A2I42AI222A22I2AI2AA222222A2442A42A2AA2A2AA2222A2A22A
AA2AA2A2A22A2I42AI222A22I2AI2AA222222A2442A42I2AA2A2AA2222A2A22A
AA2AA2A2AA2A2I22A2222A2242AI2AA222222A2442A42I2AA2A2AA2222A2A22A
AA2AA2A2AA2A2I22A2222A2242AI2IA222222A2442A42I2AA2A2AA2222A2A22A
AA2AA2A2AA2A2I22A2222A2242AI2IA222222A24A2A2222AA2A2AA2222A2A22A
AA2AA2A2AA2A2I22A2222A2242AI2IA222222A2AA2A2222AA2A2AA2222A2A22A
AA2AA2A2AA2A2I22AA222A2222A22IA222222A2AA2A2222AA2A2AA2222A2A22A
AA2AA2A2AA2A2I22AA222A2222A22II222222A2AA2A2222AA2A2AA2222A2A22A
AA2AA2A2AA2A2I22AA222A2222A22II222222A2AA2A2222AA2A2AA22I2A2A22A
AA2AA2A2AI2A2I22AA222A2222A22II222222A2AA2A2222AA2A2AA22I2A2A22A
AA2AA2A2AI2A2222AA222A2222A22II222222A2AA2A2222AA2A2AA22I2A2A22A
AA2AA2A2AI2A2222AA222A2222A22II222222A2AA2A2222AA2A2AA2222A2A22A
AA2AA2A2AI2A2222AA222A2222A22II222A22A2AA2A2222AA2A2AA2222A2A22A
AA2AA2A2AI2A2222AA222A2222A22I4222A22A2AA2A2222AA2A2AA2222A2A22A
AA2AA2A2AI2A2222AA222A2222A22I4222A22A2AA2A2222AA2A2AA22A2A2A22A
AA2AA2A2AI2A2222AA222A2222A22I42A2A22A2AA2A2222AA2A2AA22A2A2A22A
AA2AA2A2AI2A2222AA222A2222A22I42A2A22A2AA2A2222AA2A2AA2AA2A2A22A
AA2IA2A2AI2A2222AA222A2222A22I42A2A22A2AA2A2222AA2A2AA2AA2A2A22A
AA2IA2A2AI2A2222AA222A2222A22I42A2A22A2AA2A2222AA2A2AA2AA2A2I22A
AA2IA2A2AI2A2222AA222A2222A22I42A2A22A2AA2A2222AA2A2AA2AA2A2222A
AA2IA2A2AI2A2222AA222A2222A22I42A2A22A2AA2A22A2AA2A2AA2AA2A2222A
AA2IA2A2AI2A2222AA222A2222A22I42A2A22A2AA2AA2A2AA2A2AA2AA2A2222A
AA2IA2A2AI2A2222AA222A2222A22A42A2A22A2AA2AA2A2AA2A2AA2AA2A2222A
AA2IA2A2AI2A2222AA222A2222A22A42A2I22A2AA2AA2A2AA2A2AA2AA2A2222A
AA2IA2A2AI2A2222AA222A2222AA2A22A2I22A2AA2AA2A2AA2A2AA2AA2A2222A
AA2IA2A2AI2A2222AA2A2A2222AA2A22A2422A2AA2AA2A2AA2A2AA2AA2A2222A
AA2IA2A2AI2A2222AA2A2A2222AA2A22A2422A2AA2AA2A2AA2A2AA2AA2A2I22A
AA2IA2A2AI2A2222AA2A2A2222AA2A22A24A2A2AA2AA2A2AA2A2AA2AA2A2I22A
AA2IA2A2AI2A2A22AA2A2A2222AA2A22A24A2A2AA2AA2A2AA2A2AA2AA2A2I22A
AA2IA2A2AA2A2A22AA2A2A2222AA2A22A24A2A2AA2AA2A2AA2A2AA2AA2A2I22A
AA2IA2A2AA2A2A22AA2A2A2222AA2A22A24A2A2AA2AA2A2AA2A2AA2AA2A2I22I
AA2IA2A2AA2A2A22AA2A2A2222AA2AI2A24A2A2AA2AA2A2AA2A2AA2AA2A2I22I
AA2IA2A2AA2A2A22AA2A2A2222AA2AI2A24A2A2AA2AA2A2AA2A2AA2AA2A22222
AA2IA2A2AA2A2A22AA2A2A2222AA2A42A24A2A2AA2AA2A2AA2A2AA2AA2A22222
AA2IA2A2AA2A2A22AA2A2A2222AA2A22A24A2A2AA2AA2A2AA2A2AA2AA2A22222
AA2IA2A2AA2A2A22AA2A2AA222AA2A22A24A2A2AA2AA2A2AA2A2AA2AA2A22222
AA2IA2A2AA2A2A22AI2A2AA222AA2A22A24A2A2AA2AA2A2AA2A2AA2AA2A22222
AA2IA2A2AA2A2A22AI2A2AA222AA2AI2A24A2A2AA2AA2A2AA2A2AA2AA2A22222
AA2IA2A2AA2A2A22AI2A2AA222AA2AI2A24A2A2AA2AA2A2AA2A2AA2AI2A22222
AA2IA2A2AA2A2A22AI2A2AI222AA2AI2A24A2A2AA2AA2A2AA2A2AA2AI2A22222
AA2IA2A2AA2A2A22AI2A2AI222AA2AI2A24A2A2AA2AA2A2AA2A2AA2A42A22222
AA2IA2A2AA2A2A22AA2A2A2222AA2A42A24A2A2AA2AA2A2AA2A2AA2A42A22222
AA2AA2A2AA2A2A22AA2A2A2222AA2A42A24A2A2AA2AA2A2AA2A2AA2A42A22222
AA2AA2A2AA2A2A22AA2A2A2222AA2A42A22A2A2AA2AA2A2AA2A2AA2A42A22222
AA2AA2A2AA2A2A22AA2A2A2222AA2A42A22I2A2AA2AA2A2AA2A2AA2A42A22222
AA2AA2A2AA2A2A22AA2A2A2222AA2A42A22I2A2AA2AA2A2AA2A2AA2I42A22222
AA2AA2A2AA2A2A22AA2A2A2222AA2A42A22I2A2AA2AA2A2AA2A2AA2A42A22222
AA2AA2A2AA2A2A22AA2A2A2222AA2A42A22I2A2AA2AA2A2AA2A2AA2AA2A22222
AA2AA2A2AA2A2A22AA2A2A2222AA2A22A2222A2AA2AA2A2AA2A2AA2AA2A22222
AA2AA2A2AA2A2A22AA2A2AA222AA2A22A2222A2AA2AA2A2AA2A2AA2AA2A22222
AA2IA2A2AA2A2A22AA2A2AA222AA2A22A2222A2AA2AA2A2AA2A2AA2AA2A22222
AA2IA2A2AA2A2A22AA2A2AA222AA2A22A22I2A2AA2AA2A2AA2A2AA2AA2A22222
AA2IA2A2AA2A2A22AA2A2AA222AA2A22A2242A2AA2AA2A2AA2A2AA2AA2A22222
AA2IA2A2AA2A2A22AA2A2AA222AA2A22A2242A2AA2AA2A2AA2A2AA2AA2A2222A
AA2IA2A2AA2A2A22AA2I2AA222AA2A22A2242A2AA2AA2A2AA2A2AA2AA2A2222A
AA2IA2A2AA2A2A22AA2I2AA222AA2A22A2242A2AA2AA2A2AA2A2AA2AA2A2222I
AA2IA2A2AA2A2A22AA222AA222AA2A22A2242A2AA2AA2A2AA2A2AA2AA2A2222I
AA2AA2A2AA2A2A22AA222AA222AA2A22A2242A2AA2AA2A2AA2A2AA2AA2A2222I
AA2AA2A2AA2A2A22AA222AA222AA2A22A2222A2AA2AA2A2AA2A2AA2AA2A2222I
AA2AA2A2AA2A2A22AA222IA222AA2A22A2222A2AA2AA2A2AA2A2AA2AA2A2222I
AA2AA2A2AA2A2A22AA2224A222AA2A22A2222A2AA2AA2A2AA2A2AA2AA2A2222I
AA2AA2A2AA2A2A22AA2224I222AA2A22A2222A2AA2AA2A2AA2A2AA2AA2A2222I
AA2AA2A2AA2A2A22AA2224I222AA2A22A2222A2AA2AA2A2AA2A2AA2AA2A22222
AA2AA2A2AA2A2A22AA22242222AA2A22A2222A2AA2AA2A2AA2A2AA2AA2A22222
AA2AA2A2AA2A2A22AA22242222AA2A22I2222A2AA2AA2A2AA2A2AA2AA2A22222
AA2AA2A2AA2A2A22AA22242222AA2A22I22I2A2AA2AA2A2AA2A2AA2AA2A22222
AA2IA2A2AA2A2A22AA22242222AA2A22I22I2A2AA2AA2A2AA2A2AA2AA2A22222
AA2IA2A2AA2A2A22AA22242222AI2A22I22I2A2AA2AA2A2AA2A2AA2AA2A22222
AA2IA2A2AA2A2A22AA2224A222A22A2222222A2AA2AA2A2AA2A2AA2AA2A22222
AA2IA2A2AA2A2A22AA2224A222A22A2222222A2AA2AA2A2AA2A2AA2AI2A22222
AA2IA2A2AA2A2A22AA2224A222A22A2222222A2AA2AA2A2AA2A2AA2AI2A2222A
AA2IA2A2AA2A2AA2AA2224A222A22A2222222A2AA2AA2A2AA2A2AA2AI2A2222A
AA2IA2A2AA2A2AA2AA2224A222A22A2222222A2AA2AA2A2AA2A2AA2AI2A2A22A
AA2IA2A2AA2A2AA2AA2224A222A22A2222A22A2AA2AA2A2AA2A2AA2AI2A2A22A
AA2IA2A2AA2A2AA2AI2224A222A22A2222A22A2AA2AA2A2AA2A2AA2AI2A2A22A
AA2IA2A2AA2A2AA2AI2224A222A22A2222A22A2AA2AA2A2AA2A2AA2A22A2A22A
AA2IA2A2AA2A2AA2AI2224A222A22A2222AI2A2AA2AA2A2AA2A2AA2A22A2A22A
AA2IA2A2AA2A2AA2AI2224A222A22A2222AI2A2AA2AA2A2AA2A2AA2AA2A2A22A
AA2IA2A2AA2A2AA2AI2224A222A22A2222A42A2AA2AA2A2AA2A2AA2AA2A2A22A
AA2IA2A2AA2A2AI2AI2224A222A22A2222A42A2AA2AA2A2AA2A2AA2AA2A2A22A
AA2IA2A2AA2A2AI2AI2224A222A22A2222A42A2AA2AA2A2AA2A2AA2AA2A2A22I
AA2IA2A2AA2A2AI2AI2224A222A22A22A2A22A2AA2AA2A2AA2A2AA2AA2A2A22I
AA2IA2A2AA2A2A42A42224A222A22A22A2A22A2AA2AA2A2AA2A2AA2AA2A2A22I
AA2IA2A2AA2A2A42A42224A222A22I22A2A22A2AA2AA2A2AA2A2AA2AA2A2A22I
AA2IA2A2AA2A2A42A42224A222A22I22A2I22A2AA2AA2A2AA2A2AA2AA2A2A22I
AA2IA2A2AA2A2A42A42224A222A22I22A2II2A2AA2AA2A2AA2A2AA2AA2A2A22I
AA2IA2A2AA2A2A42A42224A222A22I22A2II2A2AA2AA2A2AA2A2AA2AA2A2A22A
AA2IA2A2AA2A2A42A42224A222AA2222A2I22A2AA2AA2A2AA2A2AA2AA2A2A22A
AA2IA2A2AA2A2A42A42A22A222AA2222A2I22A2AA2AA2A2AA2A2AA2AA2A2A22A
AA2IA2A2AA2A2AA2A22A22A222AA2222A2I22A2AA2AA2A2AA2A2AA2AA2A2A22A
AA2IA2A2AA2A2AA2A22A22A222AA2222I2I22A2AA2AA2A2AA2A2AA2AA2A2A22A
AA2IA2A2AA2A2AA2A22A22A222AA22A222I22A2AA2AA2A2AA2A2AA2AA2A2A22A
AA2IA2A2AA2A2AA2A22A22A222AA22A222422A2AA2AA2A2AA2A2AA2AA2A2A22A
AA2IA2A2AA2A2AA2A22A22A222AA22A222222A2AA2AA2A2AA2A2AA2AA2A2A22A
AA22A2A2AA2A2AA2A22A22A222AA22A222222A2AA2AA2A2AA2A2AA2AA2A2A22A
AA22A2A2AA2A2AA2A22A22A222AA22A222222A2AA2AA2A2AA2A2AA2AA2A2A22I
AA22A2A2AA2A2AA2A22A22A222AA22A222222A2AA2AA2A2AA2A2AA2AA2A2A224
AA22A2A2AA2A2AA2A22A22A222AA22A2A2222A2AA2AA2A2AA2A2AA2AA2A2A224
AA22A2A2AA2A2AA2A22A22A222AA2AA2A2222A2AA2AA2A2AA2A2AA2AA2A2A224
AA22A2A2AA2A2AA2A22A22A222AA2AA2A2222A2AA2AA2A2AA2A2AA2AA2A2A222
AA2IA2A2AA2A2AA2A22A22A222AA2AA2A2222A2AA2AA2A2AA2A2AA2AA2A2A222
AA2AA2A2AA2A2AA2A22A22A222AA2AA2A2222A2AA2AA2A2AA2A2AA2AA2A2A222
AA2AA2A2AA2A2AA2A22A22A222AA2AA2A2222A2AA2AA2I2AA2A2AA2AA2A2A222
AA2AA2A2AA2A2AA2A22A22A222AA2AA2A2222A2AA2AA2I2IA2A2AA2AA2A2A222
AA2AA2A2AA2A2AA2A22A22A222AA2AA2A2222A2AA2AI2I2IA2A2AA2AA2A2A222
AA2AA2A2AA2A2AA2A22A22A222AA2AA2A2222A2AA2AI2I2IA2A2AA2AA2A2A22I
AA2AA2A2AA2A2AA2A22A22A222AA2AA2A2222A2AA2AI2I2IA2A2AA2AI2A2A22I
AA2AA2A2AA2A2AA2A22A22A222AA2AA2A2222A2AA2AI2I2IA2A2AA2AI2A2A222
AA2AA2A2AA2A2AA2A22A22A222AA2AA2A2222A2AA2AI2I2IA2A2AA2AA2A2A222
AA2AA2A2AA2A2AA2A22A22A222AA2IA2A2222A2AA2AI2I2IA2A2AA2AA2A2A222
AA2AA2A2AA2A2AA2A22A22A222AA2IA2A2222A2AA2AI2I2IA2A2IA2AA2A2A222
AA2AA2A2AA2A2AA2A22A22A222AA2IA2A2222A2AA2A4242IA2A2IA2AA2A2A222
AA2AA2A2AA2A2AA2A22A22A222AA2IA2A2222A2AA2A42A2IA2A2IA2AA2A2A222
AA2AA2A2AA2A2AA2A22A22A222AA2IA2A2222A2AA2A42A24A2A2IA2AA2A2A222
AA2AA2A2AA2A2AA2A22A22A222AA2IA2A2222A2AA2A42A24A2A2IA2AA2A2A22I
AA2AA2A2AA2A2AA2A22A22A222AA2IA2A2222A2AA2A42A24A2A2IA2AA2A2A222
AA2AA2A2AA2A2AA2A22A22A222AA2IA2A22A2A2AA2A22A24A2A2IA2AA2A2A222
AA2AA2A2AA2A2AA2A22A22A222AA22A2A22A2A2AA2A22A24A2A2IA2AA2A2A222
AA2AA2A2AA2A2AA2A22A22A222AA22A2A22A2A2AA2A22A24A2A24A2AA2A2A222
AA2AA2A2AA2A2AA2A22A2AA222AA22A2A22A2A2AA2A22A24A2A24A2AA2A2A222
AA2AA2A2AA2A2AA2AA2A2AA222AA22A2A22A2A2AA2A22A24A2A24A2AA2A2A222
AA2AA2A2AA2A2AA2AI2A2AA222AA22A2A22A2A2AA2A22A24A2A24A2AA2A2A222
AA2AA2A2AA2A2AA2AI2A2AI222AA22A2A22A2A2AA2A22A24A2A24A2AA2A2A222
AA2AA2A2AA2A2AA2AI2A2AI222AA22A2I22A2A2AA2A22A24A2A24A2AA2A2A222
AA2AA2A2AA2A2AA2AI2A2AI222AA22A2I22A2A2AA2A22A24A2A24A2AA2A2A22A
AA2AA2A2AA2A2AA2AI2A2AI222AA22A2222A2A2AA2A22A24A2A24A2AA2A2A22A
AA2AA2A2AA2A2AA2A22A2A4222AA22A2222A2A2AA2A22A24A2A24A2AA2A2A22A
AA2AA2A2AA2A2AA2A22A2AA222AA22A2222A2A2AA2A22A24A2A24A2AA2A2A22A
AA2AA2A2AA2A2AA2A22A2AA222AA22A2222A2A2AA2AA2A24A2A24A2AA2A2A22A
AA2AA2A2AA2A2AA2A22A2AA222AA2AA2222A2A2AA2AA2A24A2A24A2AA2A2A22A
AA2AA2A2AI2A2AA2A22A2AA222AA2AA2222A2A2AA2AA2A24A2A24A2AA2A2A22A
AA2AA2A2AI2A2AA2A22A2AA222AA2AA2222A2A2AA2AA2A2AA2A22A2AA2A2A22A
AA2AA2A2AI2A2AA2A22A2AA222AA2AA2222A2A2AA2AA2A2AA2A22A2AI2A2A22A
AA2AA2A2AI2A2AA2A22A2AA222AA2AA2222A2A2AI2AA2A2AA2A22A2AI2A2A22A
AA2AA2A2AI2I2AA2A22A2AA222AA2AA2222A2A2AI2AA2A2AA2A22A2AI2A2A22A
AA2AA2A2AI2I2AA2A22A2AA222AA2AA2222A2A2AI2AA2A2AA2A22A2A22A2A22A
AA2AA2A2AI2I2AA2A22A2AA222AA2AA2222A2A2AI2AA2A2AA2A2IA2A22A2A22A
AA2AA2A2AI2I2AA2A22A2AA222AA2AA2222A2A2AI2AA2A2AA2A24A2A22A2A22A
AA2AA2A2AI2I2AA2A22A2AA222AA2AA2222A2A2A42AA2A2AA2A24A2A22A2A22A
AA2AA2A2AI2I2AA2A22I2AA222AA2AA2222A2A2A42AA2A2AA2A24A2A22A2A22A
AA2AA2A2AI2I2AA2A22I2AA222AA2AI2222A2A2A42AA2A2AA2A24A2A22A2A22A
AA2AA2A2AI2I2AA2A22I2AA222AA2AI2222A2A2A22AA2A2AA2A24A2A22A2A22A
AA2AA2A2AI2I2AA2A2222AA222AA2A42222A2A2A22AA2A2AA2A24A2A22A2A22A
AA2AA2A2AI2I2AA2A22A2AA222AA2A42222A2A2A22AA2A2AA2A24A2A22A2A22A
AA2AA2A2AA222AA2A22A2AA222AA2A42222A2A2A22AA2A2AA2A24A2A22A2A22A
AA2AA2A2AA222AA2A22A2AA222AA2A42222I2A2A22AA2A2AA2A24A2A22A2A22A
AA2AA2A2AI222AA2A22A2AA222AA2A42222I2A2A22AA2A2AA2A24A2A22A2A22A
AA2AA2A2AI222AI2A22A2AA222AA2A42222I2A2A22AA2A2AA2A24A2A22A2A22A
AA2AA2A2AI222AI2A22A2AA222AA2A42222I2A2AI2AA2A2AA2A24A2A22A2A22A
AA2AA2A2AI222AI2A22A2AA222AA2A42222I2A2AI2AA2A2AA2A22A2A22A2A22A
AA2AA2A2AI222AI2A22A2AA222AA2A2222222A2A42AA2A2AA2A22A2A22A2A22A
AA2AA2A2AI2A2A22A22A2AA222AA2A2222222A2A42AA2A2AA2A22A2A22A2A22A
AA2AA2A2AI2A2A22A22A2AA222AA2AI222222A2A42AA2A2AA2A22A2A22A2A22A
AA2AA2A2AI2A2A22A22A2AA222AA2AI222222A2A42AA2A2AA2A2IA2A22A2A22A
AA2AA2A2AI2A2A22A22A2AA222AA2AI222222A2A42AA2A2AA2A2IA2I22A2A22A
AA2AA2A2AI2A2A22A22A2AA222AA2A2222222A2A42AA2A2AA2A2IA2I22A2A22A
AA2AA2A2AI2A2A22AA2A2AA222AA2A2222222A2A42AA2A2AA2A2IA2I22A2A22A
AA2AA2A2AI2A2A22AA2A2AA222AA2A2222A22A2A42AA2A2AA2A24A2I22A2A22A
AA2AA2A2AI2A2A22AA2A2AA222AA2A22A2A22A2A22AA2A2AA2A24A2I22A2A22A
AA2AA2A2AI2A2A22AA2A2AA222AI2A22A2A22A2A22AA2A2AA2A24A2I22A2A22A
AA2AA2A2AI2A2A22AA2A2AA222AI2A22A2A22A2A22AA2A2AA2A24A2I22A2I22A
AA2AA2A2AI2A2A22AA2A2AA222AI2A22A2I22A2A22AA2A2AA2A24A2I22A2I22A
AA2AA2A2AI2A2A22AA2A2AA222AI2A22A2I22A2A22AA2A2AA2A24A2IA2A2I22A
AA2AA2A2AI2A2A22AA2A2AA222AI2A22A2I22A2A22AA2A2AA2A22A24A2A2I22A
AA2AA2A2A22A2A22AA2A2AA222AI2A22A2I22A2A22AA2A2AA2A22A24A2A2I22A
AA2AA2A2AA2A2A22AA2A2AA222AI2A22A2I22A2A22AA2A2AA2A22A24A2A2I22A
AA2AI2A2AA2A2A22AA2A2AA222AI2A22A2I22A2A22AA2A2AA2A22A24A2A2I22A
AA2AI2A2AA2A2A22AA2A2AA222AI2A22A2I22A2AA2AA2A2AA2A22A24A2A2I22A
AA2AI2A2AA2A2A22AA2A2AA222AI2A22A2I22A2AA2IA2A2AA2A22A24A2A2I22A
AA2AI2A2AA2A2A22AA2A2AA222AI2A22A2222A2AA24A2A2AA2A22A24A2A2I22A
AA2AI2A2AA2A2A22AA2A2AA222A22A22A2222A2AA24A2A2AA2A22A24A2A2I22A
AA2AI2A2AA2A2A22AA2A2AA222A22A22A2222A2AA24A2A2AA2A22A24A2A2422A
AA2A22A2AA2A2A22AA2A2AA222A22A22A2222A2AA24A2A2AA2A22A24A2A2422A
AA2A22A2AA2A2A22AA2A2AA222A22A22A2222A2AA24A2A2AA2A22A22A2A2422A
AA2A22A2AA2A2A22AA2A2AA222AI2A22A2222A2AA24A2A2AA2A22A22A2A2422A
AA2A22A2AA2A2A22AA2A2AA222AI2A22A2I22A2AA24A2A2AA2A22A22A2A2422A
AA2AI2A2AA2A2A22AA2A2AA222AI2A22A2I22A2AA24A2A2AA2A22A22A2A2422A
AA2AI2A2AA2A2A22AA2A2AA222A42A22A2I22A2AA24A2A2AA2A22A22A2A2422A
AA2AA2A2AA2A2A22AA2A2AA222A42A22A2I22A2AA24A2A2AA2A22A22A2A2422A
AA2AA2A2AA2A2A22AA2A2AA222A42I22A2I22A2AA24A2A2AA2A22A22A2A2422A
AA2AI2A2AA2A2A22AA2A2AA222A42I22A2I22A2AA24A2A2AA2A22A22A2A2422A
AA2AI2A2AA2A2A22AA2A2AA222A22I22A2I22A2AA24A2A2AA2A22A22A2A2422A
AA2AI2A2AA2A2A22AA2A2AA222AA2I22A2I22A2AA24A2A2AA2A22A22A2A2422A
AA2AI2A2AA2A2A22AA2A2AA222AA2I22A2422A2AA24A2A2AA2A22A22A2A2422A
AA2AI2A2AA2A2A22AA2A2AA222AA2I22I2422A2AA24A2A2AA2A22A22A2A2422A
AA2AI2A2AA2A2A22AA2A2AA222AA2I22I2422A2AA22A2A2AA2A22A22A2A2422A
AA2A22A2AA2A2A22AA2A2AA222AA2I22I2422A2AA22A2A2AA2A22A22A2A2422A
AA2A22A2AA2A2A22AA2A2AA222AA2A2222222A2AA22A2A2AA2A22A22A2A2422A
AA2A22A2AA2A2A22AA2A2AA222AA2A22A2222A2AA22A2A2AA2A22A22A2A2422A
AA2A22A2AA2A2A22AA2A2AA222AA2A22I2222A2AA22A2A2AA2A22A22A2A2422A
AA2A22A2AA2A2A22AA2A2AA222AA2I22I2222A2AA22A2A2AA2A22A22A2A2422A
AA2A22A2AA2A2A22AA2A2AA222AA2I22I2222A2AA2IA2A2AA2A22A22A2A2422A
AA2A22A2AA2A2A22AA2A2AA222AA2I22I2222A2AA2IA2A2AA2A22A22A2A2A22A
AA2A22A2AA2A2A22AA2A2AA222AA2I22I2A22A2AA22A2A2AA2A22A22A2A2A22A
AA2A22A2AA2A2A22AA2A2AA222AA2A2222A22A2AA22A2A2AA2A22A22A2A2A22A
AA2A22A2AA2A2A22AA2A2AA222AA2AA222A22A2AA22A2A2AA2A22A22A2A2A22A
AA2A22A2AA2A2A22AA2A2AA222AA2AA222A22A2AA22A2A2AA2A2AA22A2A2A22A
AA2A22A2AA2A2A22AA2A2AA222AA2AA2I2A22A2AA22A2A2AA2A2AA22A2A2A22A
AA2A22A2AA2A2A22AA2A2AA222AA2AA222A22A2AA22A2A2AA2A2AA22A2A2A22A
AA2A22A2AA2A2A22AA2A2AA222AA2AI222A22A2AA22A2A2AA2A2AA22A2A2A22A
AA2A22A2AA2A2A22AA2A2AA222AA2AI222I22A2AA22A2A2AA2A2AA22A2A2A22A
AA2A22A2AA2A2A22AA2A2AA222AA2AI222I22A2AI22A2A2AA2A2AA22A2A2A22A
AA2A22A2AA2A2A22AA2A2AA222AA2AI222I22A2AI22A2I2AA2A2AA22A2A2A22A
AA2A22A2AA2A2A22AA2A2AA222AA2AI222I22A2AI22I2I2AA2A2AA22A2A2A22A
AA2A22A2AA2A2A22AA2A2AA222AA2AI222I22A2AI22A222AA2A2AA22A2A2A22A
AA2A22A2AA2A2A22AA2A2AA222AA2A2222I22A2A422A222AA2A2AA22A2A2A22A
AA2A22A2AA2A2A22AA2A2AA222AA2A2222422A2A422A222AA2A2AA22A2A2A22A
AA2A22A2AA2A2AA2AA2A2AA222AA2A2222422A2A422A222AA2A2AA22A2A2A22A
AA2A22A2AA2A2AA2AA2A2AA222AA2A2222422A2A422A222AI2A2AA22A2A2A22A
AA2A22A2AA2A2AA2AA2A2AA222AA2A2222422A2A422A222AI2A2AI22A2A2A22A
AA2A22A2AA2A2AA2AA2A2AA222AA2A2222422A2A422A222AA2A2A222A2A2A22A
AA2A22A2AA2A2AA2AA2A2AI222AA2A2222422A2A422A222AA2A2A222A2A2A22A
AA2A22A2AA2A2AA2AA2A2AI222AA2A2222422A2A422I222AA2A2A222A2A2A22A
AA2A22A2AA2A2AA2AA2A2AI222AA2A2222A22A2A2224222AA2A2A222A2A2A22A
AA2A22A2AA2A2AA2AA2A2AI222AA2A2222A22A2A2224222AA2A2AA22A2A2A22A
AA2A22A2AA2A2AA2AA2A2AI222AA2AA222A22A2A2224222AA2A2AA22A2A2A22A
AA2A22A2AA2A2AA2AA2A2A2222AA2AA222A22A2A2224222AA2A2AA22A2A2A22A
AA2A22A2AA2A2AA2AA2A2A2222AA2AA2A2A22A2A2224222AA2A2AA22A2A2A22A
AA2A22A2AA2A2AA2AA2A2AA222AA2AA2A2A22A2A2224222AA2A2AA22A2A2A22A
AA2A22A2AI2A2AA2AA2A2AA222AA2AA2A2A22A2A2224222AA2A2AA22A2A2A22A
AA2A22A2AI2A2AA2AA2A2AA222AA2AA2A2I22A2A2224222AA2A2AA22A2A2A22A
AA2A22A2AI2A2AA2AA2A2AA222AA2AA2A2I22A2A22242A2AA2A2AA22A2A2A22A
AA2A22A2AI2A2AA2AA2A2AA222AA2AA2A2222A2A22242A2AA2A2AA22A2A2A22A
AA2A22A2AI2A2AA2AA2A2IA222AA2AA2A2222A2A22242A2AA2A2AA22A2A2A22A
AA2A22A2AI2A2AA2AA2A2IA222AA2AA2A2222A2A222A2A2AA2A2AA22A2A2A22A
AA2A22A2AI2A2AA2AA2A2IA222AA2AI2A2222A2A222A2A2AA2A2AA22A2A2A22A
AA2A22A2AI2A2AA2AA2A2IA222AA2AI2A2222A2A222A2A2AA2A2AA22A2I2A22A
AA2A22A2AI2A2AA2AA2A2IA222AA2AI2A2222A2AI22A2A2AA2A2AA22A2I2A22A
AA2A22A2AI2A2AA2AA2A2IA222AA2AI2A2222A2AI22A2I2AA2A2AA22A2I2A22A
AA2A22A2AI2A2AA2AA2A2IA222AA2AI2A22A2A2A222A222AA2A2AA22A2I2A22A
AA2A22A2AI2A2AA2AA2A2IA222AA2AA2A22A2A2A222A222AA2A2AA22A2I2A22A
AA2AA2A2A22A2AA2AA2A2IA222AA2AA2A22A2A2A222A222AA2A2AA22A2I2A22A
AA2AA2A2A22A2AA2AA2A2IA222AA2AA2A22A2A2A222A222AA2A2AA2AA222A22A
AA2AA2A2A22A2AA2AA2A2IA222AA2AA2A22A2A2A22AA222AA2A2AA2AA222A22A
AA2AA2A2A22A2AA2AA2A2IA222AA2AA2A22A2A2A22AA2A2AA2A2AA2AA222A22A
AA2AA2A2A22A2AA2AA2A2IA222AA2AA2A22A2A2AA2AA2A2AA2A2AA2AA222A22A
[...]
AA2AA2A2A2222A222A2A2AA2A22I2AA2A2AA2A22222A2A2AA222AA2IA2A2I22A
AA2AA2A2A2222A222A2A2AA2A22I2AA2A2AA2A22222A2A2AA222AA22A2A2222A
AA2AA2A2A2222A222A2A2AA2A22I2AA2A2AA2A22A22A2A2AA222AA22A2A2222A
AA2AA2A2A2222A222A2A2AA2A2222AA2A2AA2A22A22A2A2AA222AA22A2A2222A
AA2AA2A2A22A2A222A2A2AA2A2222AA2A2AA2A22A22A2A2AA222AA22A2A2222A
AA2AA2A2A22A2A222A2A2AA2A2222AA2A2AA2A22A22A2I2AA222AA22A2A2222A
AA2AA2A2A22A2A222A2A2AA2A2222AA2A2AA2A22A22A242AA222AA22A2A2222A
AA2AA2A2AA2A2A222A2A2AA2A2222AA2A2AA2A22A22A242AA222AA22A2A2222A
AA2AA2A2AA2A2A222A2A2AA2A2222AA2A2AA2A22A22A242AA222AA2AA2A2222A
AA2AA2A2AA2A2A222A2A2AA2A2222AA2A2AA2A22A2AA222AA222AA2AA2A2222A
AA2AA2A2AA2A2A222A2A2AA2A22A2AA2A2AA2A22A2AA222AA222AA2AA2A2222A
AA2AA2A2AA2A2AA22A2A2AA2A22A2AA2A2AA2A22A2AA222AA222AA2AA2A2222A
AA2AA2A2AA2A2AI22A2A2AA2A22A2AA2A2AA2A22A2AA222AA222AA2AA2A2222A
AA2AA2A2AA2A2AI22A2A2AA2I22A2AA2A2AA2A22A2AA222AA222AA2AA2A2222A
AA2AA2A2AI2A2AI22A2A2AA2I22A2AA2A2AA2A22A2AA222AA222AA2AA2A2222A
AA2AA2A2AI2A2II22A2A2AA2I22A2AA2A2AA2A22A2AA222AA222AA2AA2A2222A
AA2AA2A2AI2A2II22A2A2AA2I22A2AA2A2AA2A22A2AI222AA222AA2AA2A2222A
AA2AA2A2AI2A2II22A2A2AA2I22A2AA2A2AA2A2AA2AI222AA222AA2AA2A2222A
AA2AA2A2AI2A2II22A2A2AA2I22A2AA2A2AA2A2AA2A4222AA222AA2AA2A2222A
AA2AA2A2AI2A2II22A2A2AA2222A2AA2A2AA2A2AA2A4222AA222AA2AA2A2222A
AA2AA2A2AI2A2II22A2A2AA2222A2AI2A2AA2A2AA2A4222AA222AA2AA2A2222A
AA2AA2A2AI2A2II22A2A2AA2222A2AI2A2AA2A2AA2A4222IA222AA2AA2A2222A
AA2AA2A2AI2A2II22A2A2AA2I22A2AI2A2AA2A2AA2A4222IA222AA2AA2A2222A
AA2AA2A2AI2A2II22A2A2AA2I22A2AI2A2IA2A2AA2A4222IA222AA2AA2A2222A
AA2AA2A2AI2A2II22A2A2AA2I22A2AI2A2IA2A2AA2A42A2IA222AA2AA2A2222A
AA2AA2A2AI2A2II22A2A2AA2I22A2AI2A2IA2A2AA2A42A22A222AA2AA2A2222A
AA2AA2A2AI2A2II22A2A2AA2I22A2AI2A2IA2A2AA2A22A22A222AA2AA2A2222A
AA2AA2A2AI2A2II22A2A2AA2I22A2A22A2IA2A2AA2A22A22A222AA2AA2A2222A
AA2AA2A2A22A2I422A2A2AA2I22A2A22A2IA2A2AA2A22A22A222AA2AA2A2222A
AA2AA2A2A22A2I422A2A2AA2I22A2A22A2IA2A2IA2A22A22A222AA2AA2A2222A
AA2AA2A2A22A2I422A2A2AA2I22A2A22A2IA2A2IA2A22A22A222IA2AA2A2222A
AA2AA2A2A22A2I422A2A2AA2I22A2A22A22A2A2IA2A22A22A222IA2AA2A2222A
AA2AA2A2A22A2I422A2A2AA2222A2A22A22A2A2IA2A22A22A222IA2AA2A2222A
AA2AA2A2A22A2I422A2A2AA2222A2A22A22A2A2IA2A22A22A2A22A2AA2A2222A
AA2AA2A2A22A2IA22A2A2AA2222A2A22A22A2A2IA2A22A22A2A22A2AA2A2222A
AA2AA2A2A22A22A22A2A2AA2222A2A22A22A2A2IA2A22A22A2A22A2AA2A2222A
AA2AA2A2A22A22A22A2A2AA2222A2A22A22A2A2IA2A22A2IA2A22A2AA2A2222A
AA2AA2A2AA2A22A22A2A2AA2222A2A22A22A2A2IA2A22A2IA2A22A2AA2A2222A
AA2AA2A2AA2A22A22A2I2AA2222A2A22A22A2A2IA2A22A2IA2A22A2AA2A2222A
AA2AA2A2AA2A22A22A2I2AA2222I2A22A22A2A2IA2A22A2IA2A22A2AA2A2222A
AA2AA2A2AA2A22A22A2I2AA2222I2A22A22A2A2IA2A22A22A2A22A2AA2A2222A
AA2AA2A2AA2A22A22A2I2AA2222I2A22A22A2A22A2A22A22A2A22A2AA2A2222A
AA2AA2A2AA2A22A22A2I2AA2222A2A22A22A2A22A2A22A22A2A22A2AA2A2222A
AA2AA2A2AA2A22A22A222AA2222A2A22A22A2A22A2A22A22A2A22A2AA2A2222A
AA2AA2A2AA2A22A22A222AA2I22A2A22A22A2A22A2A22A22A2A22A2AA2A2222A
AA2AA2A2AA2A22A22A222AA2I22A2A22A2IA2A22A2A22A22A2A22A2AA2A2222A
AA2AA2A2AA2A22A22A222AA2I22A2A22A2IA2A22A2A22A22A2I22A2AA2A2222A
AA2AA2A2AA2A22A22A222AA2I22A2I22A2IA2A22A2A22A22A2I22A2AA2A2222A
AA2AA2A2AA2A22A22A222AA2I22A2I22A2IA2A22A2A22A22A2I22I2AA2A2222A
AA2AA2A2IA2A22A22A222AA2I22A2I22A2IA2A22A2A22A22A2I22I2AA2A2222A
AA2AA2A2IA2A22A22A222AA2I22A2I22A2IA2A22A2A22A2IA2I22I2AA2A2222A
AA2AA2A2IA2A22A22A222AA2I22A2I22A2IA2A22A2A22A2IA2I22I2IA2A2222A
AA2AA2A2IA2A22A22A222AA2I22A2I22A2IA2A22A2A22A2IA2I22I2IA2A2A22A
AA2AA2A2IA2A22A22A222AA2I22A2I22A2IA2A22A2AA2A2IA2I2242IA2A2A22A
AA2AA2A2IA2A22A22A222AA2I22A2A22A22A2A22A2AA2A24A2I2242IA2A2A22A
AA2AA2A2IA2A22A22A222AA2I22A2A22A22A2A22A2AA2A24A2I22A22A2A2A22A
AA2AA2A2IA2A22A22A222AA2I22A2A22A22A2A22A2AA2A2AA2222A22A2A2A22A
AA2AA2A2IA2A22A22A2A2AA2222A2A22A22A2A22A2AA2A2AA2222A22A2A2A22A
AA2AA2A2IA2A22A22A2A2AA2222A2A22A22A2A22A2AA2A2AA2222A22I2A2A22A
AA2AA2A22A2A22A22A2A2AA2222A2A22A22A2A22A2AA2A2AA2222A22I2A2A22A
AA2AA2A22A2A22A22A2A2AA2222A2A22A22A2A22A2AA2A2AA2I22A22I2A2A22A
AA2AA2A22A2A22A22A2A2AA2222A2A22A22A2A22A2AA2A2AA2I22A2II2A2A22A
AA2AA2A22A2A22A22A2A2AA2222A2A22A22A2A22A2AA2A2AA2I22A2II2A2I22A
AA2AA2A22A2A22A22A2A2AA2222A2A22A22A2A22A2AA2A2AA2I22A2AI2A2222A
AA2AA2A22A2A22A22A2A2AA2222A2A22A22A2A22A2AA2A2AA2422A2AI2A2222A
AA2AA2A22A2A22A22A2A2AA2222A2A22A22A2A22A2AA2A2AA2422I2AI2A2222A
AA2AA2A22A2A22A22A2A2AA2222A2A22A22A2A22A2AA2A2AA2422I2AI2I2222A
AA2AA2A22A2A22A22A2A2AA2222A2A22A22A2A22A2AA2A2AA2422I2AI222222A
AA2AA2A22A2A22A22A2A2AA2222A2A22A22A2A22A2AA2A2AA2422I2AA222222A
AA2AA2A22A2A22A22A2A2AA2222A2A22A22A2A22A2AA2A2AA2422A2AA222222A
AA2AA2A22A2A22A22A2A2AA2222A2A22A22A2A22A2AA2A2AA2222A2AA222222A
AA2AA2A22A2A22A22A2A2AA2A22A2A22A22A2A22A2AA2A2AA2222A2AA222222A
AA2AA2A22A2A22A22A2A2AA2A22A2AA2A22A2A22A2AA2A2AA2222A2AA222222A
AA2AA2A22A2A2AA22A2A2AA2A22A2AA2A22A2A22A2AA2A2AA2222A2AA222222A
AA2AA2A2AA2A2AA22A2A2AA2A22A2AA2A22A2A22A2AA2A2AA2222A2AA222222A
AA2AA2A2IA2A2AA22A2A2AA2A22A2AA2A22A2A22A2AA2A2AA2222A2AA222222A
AA2AA2A2IA2A2AA22A2A2AA2A22A2AI2A22A2A22A2AA2A2AA2222A2AA222222A
AA2AA2A2IA2A2AA22A2A2AA2A22A2AI2A22A2A22A2AA2A2AA2222A2AI222222A
AA2AA2A2IA2A2AA22A2A2AA2A22A2AI2A22I2A22A2AA2A2AA2222A2AI222222A
AA2AA2A2IA2A2AA22A2A2AA2A22A2AI2A22I2A22A2AA2A2AA2222A2II222222A
AA2AA2A2IA2A2AA22A2A2AA2A22A2AI2A22I2A22A2AA2A2AA2222A2IA222222A
AA2AA2A2IA2A2AA22A2A2AA2A22A2AI2A22I2A22A2AA2A2AA2222A22A222222A
AA2AA2A2IA2A2AA22A2A2AA2A22A2A22A2222A22A2AA2A2AA2222A22A222222A
AA2AA2A2IA2A2AA22A2A2AA2A22A2A22A2222A22A2AA2A2AA2A22A22A222222A
AA2AA2A2IA2A2AA22A2A2AA2A22A2A22A2222A22A2AA2A2AA2A22A22A222A22A
AA2AA2A2IA2A2AA22A2A2AA2A22A2A22A2222A22A2AA2A2AA2A2AA22A222A22A
AA2AA2A2IA2A2AA22A2A2AA2A22A2A22A2A22A22A2AA2A2AA2A2AA22A222A22A
AA2AA2A22A2A2AA22A2A2AA2A22A2A22A2A22A22A2AA2A2AA2A2AA22A222A22A
AA2AA2A22A2A2AA22A2A2AA2A22I2A22A2A22A22A2AA2A2AA2A2AA22A222A22A
AA2AA2A22A2A2AA22A2A2AA2A22I2AI2A2A22A22A2AA2A2AA2A2AA22A222A22A
AA2AA2A22A2A2AA22A2A2AA2A22I2AI2A2A22A22A2IA2A2AA2A2AA22A222A22A
AA2AA2A22I2A2AA22A2A2AA2A22I2AI2A2A22A22A2IA2A2AA2A2AA22A222A22A
AA2AA2A22I2A2AA22A2A2AA2A22I2AI2A2AI2A22A2IA2A2AA2A2AA22A222A22A
AA2AA2A22I2A2AA22A2A2AA2A22I2AI2A2AI2A22A2IA2A2AI2A2AA22A222A22A
AA2AA2A22I2A2AA22A2A2AA2A22I2AI2A2AI2A22A2IA2A2AA2A2AA22A222A22A
AA2AA2A22I2A2AA22A2A2AA2A22I2AI2A2AI2A22A2IA2A2AA2A2AA2IA222A22A
AA2AA2A22I2A2AA22A2A2AA2A22I2AI2A2AI2A22A2IA2A2AA2A2AA2II222A22A
AA2AA2A22I2A2AA22A2A2AA2A22I2AI2A2AI2A22A2IA2A2AI2A2AA2II222A22A
AA2AA2A22I2A2AA22A2A2AA2A22I2AI2A2AI2A22A2IA2A2AI2A2AA2II222I22A
AA2AA2A22I2A2AA22A2A2AA2A22I2AI2A2AI2A22A2IA2A2AI2A2AA22I222222A
AA2AA2A22I2A2AA22A2A2AA2A22I2AI2A2AI2A22A2IA2A2AI2A2AA2AI222222A
AA2AA2A22I2A2AA22A2A2AA2A22I2AI2A2AI2A22A2IA2A2A22A2AA2A4222222A
AA2AA2A22I2A2AA22A2A2AA2A22A2A22A2A22A22A2IA2A2A22A2AA2A4222222A
AA2AA2A2222A2AA22A2A2AA2A22A2A22A2A22A22A2IA2A2A22A2AA2A4222222A
AA2AA2A2222A2AA22A2A2AA2A22A2A22A2A22A22A2IA2A2A22A2AA2A4222I22A
AA2AA2A2222A2AA22A2A2AA2A22A2A22A2A22A22A2IA2A2A22A2AA2AA222I22A
AA2AA2A2222A2AA22A2A2AA2A22A2A22A2A22A22A2IA2A2A22A2AA2AA222222A
AA2AA2A2222A2AA22A2A2AA2A22A2A22A2A22A22A22A2A2A22A2AA2AA222222A
AA2AA2A2222A2AA22A2A2AA2A22A2A22A2AA2A22A22A2A2A22A2AA2AA222222A
AA2AA2A22I2A2AA22A2A2AA2A22A2A22A2AA2A22A22A2A2A22A2AA2AA222222A
AA2AA2A22I2A2AA22A2A2AA2A22I2A22A2AA2A22A22A2A2A22A2AA2AA222222A
AA2AA2A22I2A2AA22A2A2AA2A22I2A22I2AA2A22A22A2A2A22A2AA2AA222222A
AA2AA2A22I2A2AA22A2A2AA2A22I2A22I2AI2A22A22A2A2A22A2AA2AA222222A
AA2AA2A22I2A2AA22I2A2AA2A22I2A22I2AI2A22A22A2A2A22A2AA2AA222222A
AA2AA2A22I2A2AA22I2A2AA2A22I2A22I2AA2A22A22A2A2A22A2AA2AA222222A
AA2AA2A22A2A2AA2222A2AA2A2242A22I2AA2A22A22A2A2A22A2AA2AA222222A
AA2AA2A22A2A2AA2222A2AA2A2242A22I2AA2A22A2IA2A2A22A2AA2AA222222A
AA2AA2A22A2A2AA2222A2AA2A2242A22I2AA2A2AA22A2A2A22A2AA2AA222222A
AA2AA2A22A2A2AA2222A2AA2A2242A2222AA2A2AA22A2A2A22A2AA2AA222222A
AA2AA2A22A2A2AA2222A2AA2I2242A2222AA2A2AA22A2A2A22A2AA2AA222222A
AA2AA2A22A2A2AA2222A2AA2I2242I2222AA2A2AA22A2A2A22A2AA2AA222222A
AA2AA2A22A2A2AA2222A2AA2I2242I2222AA2A2AA22A2I2A22A2AA2AA222222A
AA2AA2A22A2A2AA2222A2AA2I2242I22I2AA2A2AA22A2I2A22A2AA2AA222222A
AA2AA2A22A2A2AA2222A2AA2I2242I22I2AA2A2AA22A2I2A22A2AA2AA222A22A
AA2AA2A22A2A2AA2222A2AA2I2242I22I2AA2A2IA22A2I2A22A2AA2AA222A22A
AA2AA2A22A2A2AA2222A2AA2I22A2I2222AA2A2IA22A242A22A2AA2AA222A22A
AA2AA2A22A2A2AA2222A2AA2222A242222AA2A2IA22A242A22A2AA2AA222A22A
AA2AA2A2AA2A2AA2222A2AA2222A242222AA2A2IA22A242A22A2AA2AA222A22A
AA2AA2A2AA2A2AA2222A2AA2222A242222AA2A2IA22A2A2A22A2AA2AA222A22A
AA2AA2A2AA2A2AA2222A2AA2222A242222AA2A2IA2AA2A2A22A2AA2AA222A22A
AA2AA2A2AA2A2AA2222A2AA2222A2422A2AA2A2IA2AA2A2A22A2AA2AA222A22A
AA2AA2A2AI2A2AA2222A2AA2222A2422A2AA2A2IA2AA2A2A22A2AA2AA222A22A
AA2AA2A2AI2A2AA2222A2AA2222I2422A2AA2A2IA2AA2A2A22A2AA2AA222A22A
AA2AA2A2AI2A2AA2222A2AA2222I2422I2AA2A2IA2AA2A2A22A2AA2AA222A22A
AA2AA2A2AI2A2AA2222A2AA22224242242AA2A2IA2AA2A2A22A2AA2AA222A22A
AA2AA2A2AA2A2AA2222A2AA22224242242AA2A2IA2AA2A2A22A2AA2AA222A22A
AA2AA2A2AA2A2AA2222A2AA22224242242AA2A2IA2AA2A2A22A2AA2IA222A22A
AA2AA2A2AA2A2AA2222A2AA22224242242AA2A22A2AA2A2A22A2AA2IA222A22A
AA2AA2A2AA2A2AA2222A2AA22224242242AA2A22A2AA2A2A22A2AA2IA222I22A
AA2AA2A2AA2A2AA2222A2AA22224242242AA2A22A2AA2A2AA2A2AA2IA222I22A
AA2AA2A2AA2A2AA2222A2AA22224242242AA2A22A2AA2A2AA2A2AA22A222422A
AA2AA2A2AA2A2AA2222A2AA22224242242AA2A22A2AA2A2AA2A2AA22A2A2222A
AA2AA2A2AA2A2AA2A22A2AA22224242242AA2A22A2AA2A2AA2A2AA22A2A2222A
AA2AA2A2AA2A2AA2A22A2AA22224242242AA2A22A2AA2A2AA2A2AA22A2A2I22A
AA2AA2A2AA2A2AA2A22A2AA22224242242AA2A22A2AA2A2AA2A2AA22A2A2A22A
AA2AA2A2AA2A2AA2A22A2AA222242422A2AA2A22A2AA2A2AA2A2AA22A2A2A22A
AA2AA2A2AA2A2AA2A22A2AA222242422A2AA2A22A2AA2A2AA2A2AA22A2A2I22A
AA2AA2A2AA2A2AA2A22A2AA222242422I2AA2A22A2AA2A2AA2A2AA22A2A2I22A
AA2AA2A2AA2A2AA2A22A2AA222242422I2AA2A22A2AI2A2AA2A2AA22A2A2I22A
AA2AA2A2AA2A2AA2A22A2AA222242422I2AA2A22A2AI2A2AI2A2AA22A2A2I22A
AA2AA2A2AA2A2AA2A22A2AA222242422I2AA2A22A2AI2A2AA2A2AA22A2A2I22A
AA2AA2A2AA2A2AA2A22A2AA222242422I2AA2A22A2AI2A2AA2A2AA22A2A2422A
AA2AA2A2AA2A2AA2A22A2AA2222424A2I2AA2A22A2A42A2AA2A2AA22A2A2422A
AA2AA2A2AA2A2AA2AA2A2AA2222224A242AA2A22A2A42A2AA2A2AA22A2A2422A
AA2AA2A2AA2A2AA2AA2A2AA2222224I242AA2A22A2A42A2AA2A2AA22A2A2422A
AA2IA2A2AA2A2AA2AA2A2AA2222224I242AA2A22A2A42A2AA2A2AA22A2A2422A
AA2AA2A2AA2A2AA2AA2A2AA2222224I242AA2A22A2A42A2AA2A2AA22A2A2422A
AA2AA2A2IA2A2AA2AA2A2AA2222224I242AA2A22A2A42A2AA2A2AA22A2A2422A
AA2AA2A2IA2A2IA2AA2A2AA2222224I242AA2A22A2A42A2AA2A2AA22A2A2422A
AA2AA2A2IA2A2IA2AA2A2AA2222224I242AA2A22A2A42A2AI2A2AA22A2A2422A
AA2AA2A2IA2A2IA2AA2A2AA2222224I242AA2A22A2A22A2A42A2AA22A2A2422A
AA2AA2A2IA2A2IA2AA2A2AA22222222222AA2A22A2A22A2A42A2AA22A2A2422A
AA2AA2A2AA2A22A2AA2A2AA22222222222AA2A22A2A22A2A42A2AA22A2A2422A
AA2AA2A2AA2A22A2AA2A2AA2222I222222AA2A22A2A22A2A42A2AA22A2A2422A
AA2AA2A2AA2A2IA2AA2A2AA2222I222222AA2A22A2A22A2A42A2AA22A2A2422A
AA2AA2A2AA2A2II2AA2A2AA2222I222222AA2A22A2A22A2A42A2AA22A2A2422A
AA2AA2A2IA2A2II2AA2A2AA2222I222222AA2A22A2A22A2A42A2AA22A2A2422A
AA2AA2A2IA2A2II2AA2I2AA2222I222222AA2A22A2A22A2A42A2AA22A2A2422A
AA2AA2A2IA2A2II2AA2I2AA2222I2I2222AA2A22A2A22A2A42A2AA22A2A2422A
AA2AA2A2IA2A2II2AA2I2AA2222I2II222AA2A22A2A22A2A42A2AA22A2A2422A
AA2AA2A2IA2A2II2AA2I2AA2222I2II222AA2A22A2A22A2A42A2AA22A2A2222A
AA2AA2A2IA2A2222AA222AA2222424I222AA2A22A2A22A2A42A2AA22A2A2222A
AA2AA2A2IA2A2222AA222AA2222424I222AI2A22A2A22A2A42A2AA22A2A2222A
AA2AA2A2IA2A2222AA2I2AA2222424I222AI2A22A2A22A2A42A2AA22A2A2222A
AA2AA2A2IA2A2222AA2I2AA2222424I222AI2A22A2A22A2A42A2AA2AA2A2222A
AA2AA2A2IA2A2222AA2I2AA2222424I2A2A22A22A2A22A2A42A2AA2AA2A2222A
AA2AA2A2IA2A2222AA2I2AA222222422A2A22A22A2A22A2A42A2AA2AA2A2222A
AA2AA2A2IA2A2A22AA2I2AA222222422A2A22A22A2A22A2A42A2AA2AA2A2222A
AA2AA2A2AA2A2A22AA2I2AA222222422A2A22A22A2A22A2A42A2AA2AA2A2222A
AA2AA2A2AA2A2A22AA242AA222222422A2A22A22A2A22A2A42A2AA2AA2A2222A
AA2AA2A2AA2A2A22AA242AA222222422A2A22A22A2A22A2A22A2AA2AA2A2222A
AA2AA2A2AA2A2A22AA242AA222222422A2A22A2AA2A22A2A22A2AA2AA2A2222A
AA2AA2A2AA2A2A22AA242AA222222222A2A22A2AA2A22A2A22A2AA2AA2A2222A
AA2AA2A2AA2A2I22AA242AA222222222A2A22A2AA2A22A2A22A2AA2AA2A2222A
AA2AA2A2AA2A2I22AA242AA222222222A2AI2A2AA2A22A2A22A2AA2AA2A2222A
AA2AA2A2AA2A2I22AA242AA222222222A2AI2A2AA2A22A2A22A2AA2IA2A2222A
AA2AA2A2AA2A2I22AA242AA222222222A2AI2A2AA2A22A2A22A2AA22A2A2222A
AA2AA2A2AA2A2I22AA242AA2222222A2A2A22A2AA2A22A2A22A2AA22A2A2222A
AA2AA2A2AA2A2I22AA242AA2222A22A2A2A22A2AA2A22A2A22A2AA22A2A2222A
AA2AA2A2AA2A2I22AA222AA2222A22A2A2A22A2AA2A22A2A22A2AA22A2A2222A
AA2AA2A2AA2A2A22AA222AA2222A22A2A2A22A2AA2A22A2A22A2AA22A2A2222A
AA2AA2A2AA2A2A22AA222IA2222A22A2A2A22A2AA2A22A2A22A2AA22A2A2222A
AA2AA2A2AA2A2A22AA222IA2222A22A2A2A22A2AA2I22A2A22A2AA22A2A2222A
AA2AA2A2AA2A2A22AA222IA2222A22A2A2A22A2AA2I22A2A22A2AA22A2A2A22A
AA2AA2A2AA2A2A22AA222IA2222A22A2A2A22A2AA2222A2A22A2AA22A2A2A22A
AA2AA2A2AA2A2A22AA222AA2222A22A2A2A22A2AA2222A2A22A2AA22A2A2A22A
AA2AA2A2AI2A2A22AA222AA2222A22A2A2A22A2AA2222A2A22A2AA22A2A2A22A
AA2AA2A2AI2A2I22AA222AA2222A22A2A2A22A2AA2222A2A22A2AA22A2A2A22A
AA2AA2A2AI2A2I22AA222AA2222A22A2A2A22A2AI2222A2A22A2AA22A2A2A22A
AA2AA2A2AI2A2I22AA222AA2222A22A2A2A22A2AI2222A2A22A2AA22A2A2A22I
AA2AA2A2AI2A2I22AI222AA2222A22A2A2A22A2AI2222A2A22A2AA22A2A2A22I
AA2AA2A2AI2A2I22AI222AA2222A22A2A2A22A2AI2222A2AA2A2AA22A2A2A224
AA2AA2A2AI2A2I22AI222AA2222A22A2A2A22A2A22222A2AA2A2AA22A2A2A224
AA2AA2A2AI2A2I22AI222AA2222A22A2A2I22A2A22222A2AA2A2AA22A2A2A224
AA2AA2A2AI2A2I22AI222AA2222A22A2A2I22A2AI2222A2AA2A2AA22A2A2A224
AA2AA2A2AI2A2I22AI222AA2222A22A2A2I22A2AA2222A2AA2A2AA22A2A2A224
AA2AA2A2AI2A2IA2A2222AA2222A22A2A2I22A2AA2222A2AA2A2AA22A2A2A224
AA2AA2A2A22A2IA2A2222AA2222A22A2A2I22A2AA2222A2AA2A2AA22A2A2A224
AA2AA2A2A22A2IA2A2222AI2222A22A2A2I22A2AA2222A2AA2A2AA22A2A2A224
AA2AA2A2A22A2IA2A2222AI2222A22A2A2I22A2AA2222A2AA2A2AA22A2A2A22A
AA2AA2A2A22A2IA2A2222AI2222A22A2A2IA2A2AA2222A2AA2A2AA22A2A2A22A
AA2AA2A2A22A2IA2A2222AI2222A22A2A2IA2A2AI2222A2AA2A2AA22A2A2A22A
AA2AA2A2A22A2IA2A2222AI2222A22I2A2IA2A2AI2222A2AA2A2AA22A2A2A22A
AA2AA2A2A22A2IA2A2222AI2222A22I2A2IA2A2AI2222A2IA2A2AA22A2A2A22A
AA2AA2A2A22A2IA2A2222AI2222A22I2A2IA2A2AI22A2A2IA2A2AA22A2A2A22A
AA2AA2A2A22A2IA2A2222AI2222A22I2A2IA2A2AI22A2A22A2A2AA22A2A2A22A
AA2AA2A2A22A2IA2A2222AI2222A2AI2A22A2A2A422A2A22A2A2AA22A2A2A22A
AA2AA2A2A22A2IA2A2222AA2222A2A22A22A2A2A422A2A22A2A2AA22A2A2A22A
AA2AA2A2A22A22A2A2222AA2222A2A22A22A2A2A422A2A22A2A2AA22A2A2A22A
AA2AA2A2A22A22A2A2222AI2222A2A22A22A2A2A422A2A22A2A2AA22A2A2A22A
AA2AA2A2A22A22A2A2222AI2222A2I22A22A2A2A422A2A22A2A2AA22A2A2A22A
AA2AA2A2A22A22A2A2222AI2222A2I22A22A2A2A422I2A22A2A2AA22A2A2A22A
AA2AA2A2A22A22A2A2222AI2222A2I22A2AA2A2A222I2A22A2A2AA22A2A2A22A
AA2AA2A2A22A22A2A2222AI2222A2422A2AA2A2A222I2A22A2A2AA22A2A2A22A
AA2AA2A2A22A22A2A2222AI2222A2422A2AA2A2A222I2A2IA2A2AA22A2A2A22A
AA2AA2A2A22A22A2A2222AI2222A2422A2AA2A2A222I2A2IA2A2IA22A2A2A22A
AA2AA2A2A22A22A2A2222AI2222A2422A2AA2A2I222I2A2IA2A2IA22A2A2A22A
AA2AA2A2A22A22A2A2222AI2222A2422A2AA2A2I222I2A2II2A2IA22A2A2A22A
AA2AA2A2A22A22A2A2222AI2222A2422A2AA2A2II22I2A2II2A2IA22A2A2A22A
AA2IA2A2A22A22A2A2222AI2222A2422A2AA2A2II22I2A2II2A2IA22A2A2A22A
AA2IA2A2A22A22A2A2222AI2222A2422A2AA2A2II22I2A2II2A2AA22A2A2A22A
AA2IA2A2A22A22A2A2222AI2222A2422A2AA2A2II22A2A2I22A2AA22A2A2A22A
AA2IA2A2A22A22A2A2222AI2222A2422A2AA2A2II22A2A2222A2AA22A2A2A22A
AA2IA2A2A22A22A2A2222AI2222A2422A2AA2A2AI22A2A2222A2AA22A2A2A22A
AA2IA2A2A22A22A2A2222AI2222A2A22A2AA2A2A422A2A2222A2AA22A2A2A22A
AA2IA2A2A22A22A2A2222AI2A22A2A22A2AA2A2A422A2A2222A2AA22A2A2A22A
AA2IA2A2A22A22A2A2222AA2A22A2A22A2AA2A2A422A2A2222A2AA22A2A2A22A
AA2IA2A2A22A22A2AA222AA2A22A2A22A2AA2A2A422A2A2222A2AA22A2A2A22A
AA2IA2A2A22A22A2AA222AA2A22A2A22A2AA2A2A222A2A2222A2AA22A2A2A22A
AA2IA2A2A22A22A2AA222AA2A22A2A22A2AA2A2A222A2A22I2A2AA22A2A2A22A
AA2IA2A2A22A22A2AA222AA2A22A2A22A2AA2A2A222A2A22A2A2AA22A2A2A22A
AA2IA2A2A22A22A2AA222AI2A22A2A22A2AA2A2A222A2A22A2A2AA22A2A2A22A
AA2IA2A2A22A22A2AA222AI2A22A2A22A2AA2A2A222A2A2IA2A2AA22A2A2A22A
AA2IA2A2A22A22A2AA222AI2A22A2A22A2AA2A2A222A2A2IA2I2AA22A2A2A22A
AA2AA2A2A22A22A2AA222AI2A22A2A22A2AA2A2A222A2A2IA2I2AA22A2A2A22A
AA2AA2A2A22A22A2AA222AI2A22A2A22A2AA2A2A222A2A24A242AA22A2A2A22A
AA2AA2A2A22A22A2AA222AI2A22A2A22A2AA2A2A222A2A24I242AA22A2A2A22A
AA2AA2A2A22A22A2AA222AI2A22A2AA2A2AA2A2A222A2A244242AA22A2A2A22A
AA2AA2A2A22A22A2AA2A2A22A22A2AA2A2AA2A2A222A2A244242AA22A2A2A22A
AA2AA2A2A22A2AA2AA2A2A22A22A2AA2A2AA2A2A222A2A244242AA22A2A2A22A
AA2AA2A2A22A2AA2AA2A2A22A22A2AA2A2IA2A2A222A2A244242AA22A2A2A22A
AA2AA2A2A22A2AA2AA2A2A22A22A2AA2A2AA2A2A222A2A244242AA22A2A2A22A
AA2AA2A2A22A2AA2AA2A2A22A22A2AA2A2AA2A2A222A2A224242AA22A2A2A22A
AA2AA2A2A22A2AA2AA2A2A22A22A2AA2A2AA2A2A222A2A222222AA22A2A2A22A
AA2AA2A2A22I2AA2AA2A2A22A22A2AA2A2AA2A2A222A2A222222AA22A2A2A22A
AA2AA2A2A2222AA2AA2A2A22A22A2AA2A2AA2A2A222A2A222222AA22A2A2A22A
AA2AA2A2A2222AA2AA2A2A22A22A2AA2A2AA2A2A222A2A22A222AA22A2A2A22A
AA2AA2A2A2222AA2AA2A2A22A22A2AA2A2IA2A2A222A2A22A222AA22A2A2A22A
AA2AA2A2A2222AA2AA2A2A22A22A2AA2A2IA2A2A222A2A22A222AA22A2I2A22A
AA2AA2A2A2222AA2AA2A2A22A22A2AA2A2IA2A2A222A2A22I222AA22A2I2A22A
AA2AA2A2A2222AA2AA2A2A22A22A2AA2A2IA2A2A222A2A2II222AA22A2I2A22A
AA2AA2A2A2222AA2AA2A2A22A22A2AA2A2IA2A2A222A2A2I2222AA22A222A22A
AA2AA2A2A2222AA2AA2A2A22A22A2AA2A22A2A2A222A2A242222AA22A222A22A
AA2AA2A2A2222AA2AA2A2A22A22A2AA2A22A2A2A22AA2A222222AA22A222A22A
AA2AA2A2A2222AA2AA2A2A22A22A2AA2A22A2A2A22AA2A222222AA22A2I2A22A
AA2AA2A2A2222AA2AA2A2A22A22A2AA2A22A2A2A22AA2A22A222AA22A222A22A
AA2AA2A2A2222IA2AA2A2A22A22A2AA2A22A2A2A22AA2A22A222AA22A222A22A
AA2AA2A2I2222IA2AA2A2A22A22A2AA2A22A2A2A22AA2A22A222AA22A222A22A
AA2AA2A2I2222IA2AA2A2A22A22A2AA2A22A2A2A22AA2A22A222AA22A2A2A22A
AA2AA2A2I2222IA2AA2A2A22A2AA2AA2A22A2A2A22AA2A22A222AA22A2A2A22A
AA2AA2A2I2222IA2AA2A2A22A2AA2AA2A2AA2A2A22AA2A22A222AA22A2A2A22A
AA2AA2A2222222A2AA2A2A22A2AA2AA2A2AA2A2A22AA2A22A222AA22A2A2A22A
AA2AA2A2222222A2AA2A2A22A2IA2AA2A2AA2A2A22AA2A22A222AA22A2A2A22A
AA2AA2A222222IA2AA2A2A22A2IA2AA2A2AA2A2A22AA2A22A222AA22A2A2A22A
AA2AA2A222222IA2AA2A2A22A2IA2AA2A2IA2A2A22AA2A22A222AA22A2A2A22A
AA2AA2A222222IA2AA2A2A22A2IA2AA2A2IA2A2A22AA2A22I222AA22A2A2A22A
AA2AA2A222222IA2AA2A2A22A2IA2AA2A2IA2A2A22AA2A22I222AA2AA2A2A22A
AA2AA2A222222IA2AA2A2A22A2IA2AA2A2IA2A2A22AA2A2AI222AA2AA2A2A22A
AA2AA2A222222IA2AA2A2A22A2IA2AA2A22A2A2A22AA2A2AI222AA2AA2A2A22A
AA2AA2A222222IA2AA2A2AA2A2IA2AA2A22A2A2A22AA2A2AI222AA2AA2A2A22A
AA2AA2A222222IA2AA2A2AA2A2IA2AA2A22A2A2A22AA2A2A2222AA2AA2A2A22A
AA2AA2A222222IA2AA2A2AA2A2IA2AA2A22A2A2AA2AA2A2A2222AA2AA2A2A22A
AA2AA2A222222IA2AA2A2AA2A2IA2AA2A22A2A2AA2AA2A2AA222AA2AA2A2A22A
AA2AA2A222222IA2AA2A2AI2A2IA2AA2A22A2A2AA2AA2A2AA222AA2AA2A2A22A
AA2AA2A222222IA2AA2A2AI2A2IA2AA2A2IA2A2AA2AA2A2AA222AA2AA2A2A22A
AA2AA2A222222IA2AA2A2AI2A2IA2AA2A2IA2A2AI2AA2A2AA222AA2AA2A2A22A
AA2AA2A222222IA2AA2A2AI2A2IA2AA2A2IA2A2AI2AA2A2AI222AA2AA2A2A22A
AA2AA2A2222A22A2AA2A2AI2A2IA2AA2A2IA2A2AI2AA2A2AI222AA2AA2A2A22A
AA2AA2A2222A22A2AA2A2AI2A2IA2AA2A22A2A2A22AA2A2A4222AA2AA2A2A22A
AA2AA2A2222A22A2AA2A2AA2A2IA2AA2A22A2A2A22AA2A2A4222AA2AA2A2A22A
AA2AA2A2222A22A2AA2A2AA2A24A2AA2A22A2A2A22AA2A2A4222AA2AA2A2A22A
AA2AA2A2222A22A2AI2A2AA2A24A2AA2A22A2A2A22AA2A2A4222AA2AA2A2A22A
AA2AA2A2222A22A2AI2A2AA2A24A2AA2I22A2A2A22AA2A2A4222AA2AA2A2A22A
AA2AA2A2222A22A2AI2A2AA2A24A2AA2I22A2A2A22AA2A2AA222AA2AA2A2A22A
AA2AA2A2222A22A2AI2A2AA2A24A2AA2I22A2A2AA2AA2A2AA222AA2AA2A2A22A
AA2AA2A2222A22A2AI2A2AA2A24A2AA2222A2A2AA2AA2A2AA222AA2AA2A2A22A
AA2AA2A2222A22A2AI2A2AA2A24A2AA2A22A2A2AA2AA2A2AA222AA2AA2A2A22A
AA2AA2A2222A22A2AI2A2AA2A22A2AA2A22A2A2AA2AA2A2AA222AA2AA2A2A22A
[MLOP] Prefetch Degree Mean: 9.69056
[MLOP] Prefetch Degree SD: 1.59855
[MLOP] Max Score Left Mean (%): 63.78372
[MLOP] Max Score Left SD (%): 2.48739
[MLOP] Max Score Right Mean (%): 87.28078
[MLOP] Max Score Right SD (%): 2.54551

Channel_0_RQ_row_buffer_hit 219223
Channel_0_RQ_row_buffer_miss 3347417
Channel_0_WQ_row_buffer_hit 363509
Channel_0_WQ_row_buffer_miss 3176036
Channel_0_WQ_full 1824
Channel_0_dbus_congested 4231772

avg_congested_cycle 11

DRAM_bw_pochs 1294211
DRAM_bw_level_0 597100
DRAM_bw_level_1 642062
DRAM_bw_level_2 33690
DRAM_bw_level_3 21359
