*************************************************
   ChampSim Multicore Out-of-Order Simulator
   Last compiled: Apr  3 2025 20:54:34
*************************************************
parsing config file: /home/zir/Pythia/config/nopref.ini

trace_0 /home/zir/ChampSim/ML-DPC/ChampSimTraces/spec06/450.soplex-s1.trace.gz
adding L2C_PREFETCHER: NONE
Initialize SHIP state
warmup_instructions 10000000
simulation_instructions 50000000
champsim_seed 164
measure_ipc 0
measure_ipc_epoch 1000
measure_dram_bw 1
measure_dram_bw_epoch 256
measure_cache_acc 1
measure_cache_acc_epoch 1024
l1d_perfect 0
l2c_perfect 0
llc_perfect 0
l1d_semi_perfect 0
l2c_semi_perfect 0
llc_semi_perfect 0
semi_perfect_cache_page_buffer_size 64

num_cpus 1
cpu_freq 4000
dram_io_freq 2400
page_size 4096
block_size 64
max_read_per_cycle 8
max_fill_per_cycle 1
dram_channels 1
log2_dram_channels 0
dram_ranks 1
dram_banks 8
dram_rows 65536
dram_columns 128
dram_row_size 8
dram_size 4096
dram_pages 1048576

fetch_width 6
decode_width 6
exec_width 4
lq_width 2
sq_width 2
retire_width 4
scheduler_size 128
branch_mispredict_penalty 20
rob_size 256
lq_size 72
sq_size 56
num_instr_destinations_sparc 4
num_instr_destinations 2
num_instr_sources 4

itlb_set 16
itlb_way 8
itlb_rq_size 16
itlb_wq_size 16
itlb_pq_size 0
itlb_mshr_size 8
itlb_latency 1

dtlb_set 16
dtlb_way 4
dtlb_rq_size 16
dtlb_wq_size 16
dtlb_pq_size 0
dtlb_mshr_size 8
dtlb_latency 1

stlb_set 128
stlb_way 12
stlb_rq_size 32
stlb_wq_size 32
stlb_pq_size 0
stlb_mshr_size 16
stlb_latency 8

l1i_size 32
l1i_set 64
l1i_way 8
l1i_rq_size 64
l1i_wq_size 64
l1i_pq_size 8
l1i_mshr_size 8
l1i_latency 1

l1d_size 32
l1d_set 64
l1d_way 8
l1d_rq_size 64
l1d_wq_size 64
l1d_pq_size 8
l1d_mshr_size 16
l1d_latency 4

l2c_size 256
l2c_set 512
l2c_way 8
l2c_rq_size 32
l2c_wq_size 32
l2c_pq_size 32
l2c_mshr_size 32
l2c_latency 10

llc_size 2048
llc_set 2048
llc_way 16
llc_rq_size 32
llc_wq_size 32
llc_pq_size 32
llc_mshr_size 64
llc_latency 20

dram_channel_width 8
dram_wq_size 64
dram_rq_size 64
tRP 15
tRCD 15
tCAS 12.5
dram_dbus_turn_around_time 30
dram_write_high_wm 56
dram_write_low_wm 48
min_dram_writes_per_switch 16
dram_mtps 2400
dram_dbus_return_time 13


Heartbeat CPU  0 instructions:    1000001 cycles:     723276 heartbeat IPC: 1.38260 cumulative IPC: 1.38260 (Simulation time: 0 hr 0 min 1 sec) 
Heartbeat CPU  0 instructions:    2000003 cycles:    1286713 heartbeat IPC: 1.77482 cumulative IPC: 1.55435 (Simulation time: 0 hr 0 min 2 sec) 
Heartbeat CPU  0 instructions:    3000002 cycles:    1841890 heartbeat IPC: 1.80123 cumulative IPC: 1.62876 (Simulation time: 0 hr 0 min 3 sec) 
Heartbeat CPU  0 instructions:    4000000 cycles:    2466851 heartbeat IPC: 1.60010 cumulative IPC: 1.62150 (Simulation time: 0 hr 0 min 5 sec) 
Heartbeat CPU  0 instructions:    5000001 cycles:    3210234 heartbeat IPC: 1.34520 cumulative IPC: 1.55752 (Simulation time: 0 hr 0 min 6 sec) 
Heartbeat CPU  0 instructions:    6000000 cycles:    3763222 heartbeat IPC: 1.80836 cumulative IPC: 1.59438 (Simulation time: 0 hr 0 min 6 sec) 
Heartbeat CPU  0 instructions:    7000001 cycles:    4356676 heartbeat IPC: 1.68505 cumulative IPC: 1.60673 (Simulation time: 0 hr 0 min 8 sec) 
Heartbeat CPU  0 instructions:    8000000 cycles:    5111524 heartbeat IPC: 1.32477 cumulative IPC: 1.56509 (Simulation time: 0 hr 0 min 9 sec) 
Heartbeat CPU  0 instructions:    9000001 cycles:    5656776 heartbeat IPC: 1.83402 cumulative IPC: 1.59101 (Simulation time: 0 hr 0 min 10 sec) 
Heartbeat CPU  0 instructions:   10000000 cycles:    6183915 heartbeat IPC: 1.89703 cumulative IPC: 1.61710 (Simulation time: 0 hr 0 min 11 sec) 

Warmup complete CPU  0 instructions:   10000003 cycles:    6183916 (Simulation time: 0 hr 0 min 11 sec) 

Heartbeat CPU  0 instructions:   11000002 cycles:   11642975 heartbeat IPC: 0.18318 cumulative IPC: 0.18318 (Simulation time: 0 hr 0 min 15 sec) 
Heartbeat CPU  0 instructions:   12000000 cycles:   15171218 heartbeat IPC: 0.28343 cumulative IPC: 0.22254 (Simulation time: 0 hr 0 min 17 sec) 
Heartbeat CPU  0 instructions:   13000000 cycles:   17006259 heartbeat IPC: 0.54495 cumulative IPC: 0.27720 (Simulation time: 0 hr 0 min 18 sec) 
Heartbeat CPU  0 instructions:   14000000 cycles:   21055985 heartbeat IPC: 0.24693 cumulative IPC: 0.26896 (Simulation time: 0 hr 0 min 20 sec) 
Heartbeat CPU  0 instructions:   15000000 cycles:   24630812 heartbeat IPC: 0.27973 cumulative IPC: 0.27105 (Simulation time: 0 hr 0 min 23 sec) 
Heartbeat CPU  0 instructions:   16000000 cycles:   30217702 heartbeat IPC: 0.17899 cumulative IPC: 0.24965 (Simulation time: 0 hr 0 min 26 sec) 
Heartbeat CPU  0 instructions:   17000002 cycles:   33679496 heartbeat IPC: 0.28887 cumulative IPC: 0.25459 (Simulation time: 0 hr 0 min 28 sec) 
Heartbeat CPU  0 instructions:   18000000 cycles:   37323480 heartbeat IPC: 0.27442 cumulative IPC: 0.25691 (Simulation time: 0 hr 0 min 31 sec) 
Heartbeat CPU  0 instructions:   19000000 cycles:   42307313 heartbeat IPC: 0.20065 cumulative IPC: 0.24915 (Simulation time: 0 hr 0 min 34 sec) 
Heartbeat CPU  0 instructions:   20000000 cycles:   44253046 heartbeat IPC: 0.51395 cumulative IPC: 0.26268 (Simulation time: 0 hr 0 min 35 sec) 
Heartbeat CPU  0 instructions:   21000000 cycles:   46116467 heartbeat IPC: 0.53665 cumulative IPC: 0.27546 (Simulation time: 0 hr 0 min 36 sec) 
Heartbeat CPU  0 instructions:   22000001 cycles:   50214979 heartbeat IPC: 0.24399 cumulative IPC: 0.27253 (Simulation time: 0 hr 0 min 39 sec) 
Heartbeat CPU  0 instructions:   23000003 cycles:   54866883 heartbeat IPC: 0.21497 cumulative IPC: 0.26703 (Simulation time: 0 hr 0 min 42 sec) 
Heartbeat CPU  0 instructions:   24000000 cycles:   60190116 heartbeat IPC: 0.18786 cumulative IPC: 0.25923 (Simulation time: 0 hr 0 min 45 sec) 
Heartbeat CPU  0 instructions:   25000001 cycles:   62216629 heartbeat IPC: 0.49346 cumulative IPC: 0.26770 (Simulation time: 0 hr 0 min 47 sec) 
Heartbeat CPU  0 instructions:   26000003 cycles:   67988451 heartbeat IPC: 0.17326 cumulative IPC: 0.25888 (Simulation time: 0 hr 0 min 50 sec) 
Heartbeat CPU  0 instructions:   27000002 cycles:   71345416 heartbeat IPC: 0.29789 cumulative IPC: 0.26089 (Simulation time: 0 hr 0 min 52 sec) 
Heartbeat CPU  0 instructions:   28000000 cycles:   73188628 heartbeat IPC: 0.54253 cumulative IPC: 0.26864 (Simulation time: 0 hr 0 min 53 sec) 
Heartbeat CPU  0 instructions:   29000002 cycles:   76497876 heartbeat IPC: 0.30218 cumulative IPC: 0.27022 (Simulation time: 0 hr 0 min 55 sec) 
Heartbeat CPU  0 instructions:   30000002 cycles:   80219402 heartbeat IPC: 0.26871 cumulative IPC: 0.27014 (Simulation time: 0 hr 0 min 58 sec) 
Heartbeat CPU  0 instructions:   31000000 cycles:   84995820 heartbeat IPC: 0.20936 cumulative IPC: 0.26646 (Simulation time: 0 hr 1 min 1 sec) 
Heartbeat CPU  0 instructions:   32000000 cycles:   87525469 heartbeat IPC: 0.39531 cumulative IPC: 0.27046 (Simulation time: 0 hr 1 min 3 sec) 
Heartbeat CPU  0 instructions:   33000001 cycles:   92904902 heartbeat IPC: 0.18589 cumulative IPC: 0.26522 (Simulation time: 0 hr 1 min 6 sec) 
Heartbeat CPU  0 instructions:   34000000 cycles:   96929581 heartbeat IPC: 0.24847 cumulative IPC: 0.26448 (Simulation time: 0 hr 1 min 8 sec) 
Heartbeat CPU  0 instructions:   35000002 cycles:   98843123 heartbeat IPC: 0.52259 cumulative IPC: 0.26981 (Simulation time: 0 hr 1 min 10 sec) 
Heartbeat CPU  0 instructions:   36000000 cycles:  101702358 heartbeat IPC: 0.34974 cumulative IPC: 0.27220 (Simulation time: 0 hr 1 min 11 sec) 
Heartbeat CPU  0 instructions:   37000002 cycles:  105190432 heartbeat IPC: 0.28669 cumulative IPC: 0.27271 (Simulation time: 0 hr 1 min 14 sec) 
Heartbeat CPU  0 instructions:   38000000 cycles:  110153356 heartbeat IPC: 0.20149 cumulative IPC: 0.26931 (Simulation time: 0 hr 1 min 17 sec) 
Heartbeat CPU  0 instructions:   39000001 cycles:  113207610 heartbeat IPC: 0.32741 cumulative IPC: 0.27097 (Simulation time: 0 hr 1 min 19 sec) 
Heartbeat CPU  0 instructions:   40000000 cycles:  117907340 heartbeat IPC: 0.21278 cumulative IPC: 0.26852 (Simulation time: 0 hr 1 min 22 sec) 
Heartbeat CPU  0 instructions:   41000000 cycles:  122454571 heartbeat IPC: 0.21991 cumulative IPC: 0.26662 (Simulation time: 0 hr 1 min 24 sec) 
Heartbeat CPU  0 instructions:   42000002 cycles:  124419964 heartbeat IPC: 0.50881 cumulative IPC: 0.27065 (Simulation time: 0 hr 1 min 25 sec) 
Heartbeat CPU  0 instructions:   43000001 cycles:  126777101 heartbeat IPC: 0.42424 cumulative IPC: 0.27365 (Simulation time: 0 hr 1 min 27 sec) 
Heartbeat CPU  0 instructions:   44000000 cycles:  130389191 heartbeat IPC: 0.27685 cumulative IPC: 0.27374 (Simulation time: 0 hr 1 min 29 sec) 
Heartbeat CPU  0 instructions:   45000003 cycles:  135434408 heartbeat IPC: 0.19821 cumulative IPC: 0.27079 (Simulation time: 0 hr 1 min 32 sec) 
Heartbeat CPU  0 instructions:   46000000 cycles:  139939466 heartbeat IPC: 0.22197 cumulative IPC: 0.26915 (Simulation time: 0 hr 1 min 35 sec) 
Heartbeat CPU  0 instructions:   47000001 cycles:  142271552 heartbeat IPC: 0.42880 cumulative IPC: 0.27188 (Simulation time: 0 hr 1 min 37 sec) 
Heartbeat CPU  0 instructions:   48000000 cycles:  147727063 heartbeat IPC: 0.18330 cumulative IPC: 0.26847 (Simulation time: 0 hr 1 min 41 sec) 
Heartbeat CPU  0 instructions:   49000000 cycles:  151407086 heartbeat IPC: 0.27174 cumulative IPC: 0.26855 (Simulation time: 0 hr 1 min 43 sec) 
Heartbeat CPU  0 instructions:   50000001 cycles:  153291924 heartbeat IPC: 0.53055 cumulative IPC: 0.27191 (Simulation time: 0 hr 1 min 44 sec) 
Heartbeat CPU  0 instructions:   51000000 cycles:  156384873 heartbeat IPC: 0.32332 cumulative IPC: 0.27297 (Simulation time: 0 hr 1 min 46 sec) 
Heartbeat CPU  0 instructions:   52000000 cycles:  159989899 heartbeat IPC: 0.27739 cumulative IPC: 0.27307 (Simulation time: 0 hr 1 min 48 sec) 
Heartbeat CPU  0 instructions:   53000000 cycles:  164793870 heartbeat IPC: 0.20816 cumulative IPC: 0.27111 (Simulation time: 0 hr 1 min 51 sec) 
Heartbeat CPU  0 instructions:   54000000 cycles:  167528770 heartbeat IPC: 0.36564 cumulative IPC: 0.27271 (Simulation time: 0 hr 1 min 53 sec) 
Heartbeat CPU  0 instructions:   55000000 cycles:  172646259 heartbeat IPC: 0.19541 cumulative IPC: 0.27033 (Simulation time: 0 hr 1 min 56 sec) 
Heartbeat CPU  0 instructions:   56000000 cycles:  176834107 heartbeat IPC: 0.23879 cumulative IPC: 0.26956 (Simulation time: 0 hr 1 min 59 sec) 
Heartbeat CPU  0 instructions:   57000003 cycles:  178774497 heartbeat IPC: 0.51536 cumulative IPC: 0.27232 (Simulation time: 0 hr 2 min 0 sec) 
Heartbeat CPU  0 instructions:   58000000 cycles:  181486401 heartbeat IPC: 0.36874 cumulative IPC: 0.27381 (Simulation time: 0 hr 2 min 2 sec) 
Heartbeat CPU  0 instructions:   59000003 cycles:  184941619 heartbeat IPC: 0.28942 cumulative IPC: 0.27411 (Simulation time: 0 hr 2 min 4 sec) 
Heartbeat CPU  0 instructions:   60000000 cycles:  189747632 heartbeat IPC: 0.20807 cumulative IPC: 0.27238 (Simulation time: 0 hr 2 min 7 sec) 
Finished CPU 0 instructions: 50000000 cycles: 183563726 cumulative IPC: 0.27238 (Simulation time: 0 hr 2 min 7 sec) 

ChampSim completed all CPUs

[ROI Statistics]
Core_0_instructions 50000000
Core_0_cycles 183563726
Core_0_IPC 0.27238

Core_0_branch_prediction_accuracy 96.03125
Core_0_branch_MPKI 8.78132
Core_0_average_ROB_occupancy_at_mispredict 84.24002

Core_0_L1D_total_access 8727245
Core_0_L1D_total_hit 5674770
Core_0_L1D_total_miss 3052475
Core_0_L1D_loads 6240646
Core_0_L1D_load_hit 3531497
Core_0_L1D_load_miss 2709149
Core_0_L1D_RFOs 2486599
Core_0_L1D_RFO_hit 2143273
Core_0_L1D_RFO_miss 343326
Core_0_L1D_prefetches 0
Core_0_L1D_prefetch_hit 0
Core_0_L1D_prefetch_miss 0
Core_0_L1D_writebacks 0
Core_0_L1D_writeback_hit 0
Core_0_L1D_writeback_miss 0
Core_0_L1D_prefetch_requested 0
Core_0_L1D_prefetch_dropped 0
Core_0_L1D_prefetch_issued 0
Core_0_L1D_prefetch_filled 0
Core_0_L1D_prefetch_useful 0
Core_0_L1D_prefetch_useless 0
Core_0_L1D_prefetch_late 0
Core_0_L1D_average_miss_latency 147.77841

Core_0_L1D_rq_access 11432087
Core_0_L1D_rq_forward 0
Core_0_L1D_rq_merged 4169812
Core_0_L1D_rq_to_cache 7262275
Core_0_L1D_rq_full 0

Core_0_L1D_wq_access 2987112
Core_0_L1D_wq_forward 0
Core_0_L1D_wq_merged 103
Core_0_L1D_wq_to_cache 2987009
Core_0_L1D_wq_full 1907251

Core_0_L1D_pq_access 0
Core_0_L1D_pq_forward 0
Core_0_L1D_pq_merged 0
Core_0_L1D_pq_to_cache 0
Core_0_L1D_pq_full 0

Core_0_L1D_acc_epochs 180287
Core_0_L1D_acc_level_0 180287
Core_0_L1D_acc_level_1 0
Core_0_L1D_acc_level_2 0
Core_0_L1D_acc_level_3 0
Core_0_L1D_acc_level_4 0
Core_0_L1D_acc_level_5 0
Core_0_L1D_acc_level_6 0
Core_0_L1D_acc_level_7 0
Core_0_L1D_acc_level_8 0
Core_0_L1D_acc_level_9 0

Core_0_L1I_total_access 11352914
Core_0_L1I_total_hit 11352769
Core_0_L1I_total_miss 145
Core_0_L1I_loads 11352914
Core_0_L1I_load_hit 11352769
Core_0_L1I_load_miss 145
Core_0_L1I_RFOs 0
Core_0_L1I_RFO_hit 0
Core_0_L1I_RFO_miss 0
Core_0_L1I_prefetches 0
Core_0_L1I_prefetch_hit 0
Core_0_L1I_prefetch_miss 0
Core_0_L1I_writebacks 0
Core_0_L1I_writeback_hit 0
Core_0_L1I_writeback_miss 0
Core_0_L1I_prefetch_requested 0
Core_0_L1I_prefetch_dropped 0
Core_0_L1I_prefetch_issued 0
Core_0_L1I_prefetch_filled 0
Core_0_L1I_prefetch_useful 0
Core_0_L1I_prefetch_useless 0
Core_0_L1I_prefetch_late 0
Core_0_L1I_average_miss_latency 262.17931

Core_0_L1I_rq_access 50000221
Core_0_L1I_rq_forward 0
Core_0_L1I_rq_merged 38647136
Core_0_L1I_rq_to_cache 11353085
Core_0_L1I_rq_full 0

Core_0_L1I_wq_access 0
Core_0_L1I_wq_forward 0
Core_0_L1I_wq_merged 0
Core_0_L1I_wq_to_cache 0
Core_0_L1I_wq_full 0

Core_0_L1I_pq_access 0
Core_0_L1I_pq_forward 0
Core_0_L1I_pq_merged 0
Core_0_L1I_pq_to_cache 0
Core_0_L1I_pq_full 0

Core_0_L1I_acc_epochs 180287
Core_0_L1I_acc_level_0 180287
Core_0_L1I_acc_level_1 0
Core_0_L1I_acc_level_2 0
Core_0_L1I_acc_level_3 0
Core_0_L1I_acc_level_4 0
Core_0_L1I_acc_level_5 0
Core_0_L1I_acc_level_6 0
Core_0_L1I_acc_level_7 0
Core_0_L1I_acc_level_8 0
Core_0_L1I_acc_level_9 0

Core_0_L2C_total_access 4407003
Core_0_L2C_total_hit 1922753
Core_0_L2C_total_miss 2484250
Core_0_L2C_loads 2709044
Core_0_L2C_load_hit 539402
Core_0_L2C_load_miss 2169642
Core_0_L2C_RFOs 343313
Core_0_L2C_RFO_hit 28760
Core_0_L2C_RFO_miss 314553
Core_0_L2C_prefetches 0
Core_0_L2C_prefetch_hit 0
Core_0_L2C_prefetch_miss 0
Core_0_L2C_writebacks 1354646
Core_0_L2C_writeback_hit 1354591
Core_0_L2C_writeback_miss 55
Core_0_L2C_prefetch_requested 0
Core_0_L2C_prefetch_dropped 0
Core_0_L2C_prefetch_issued 0
Core_0_L2C_prefetch_filled 0
Core_0_L2C_prefetch_useful 0
Core_0_L2C_prefetch_useless 0
Core_0_L2C_prefetch_late 0
Core_0_L2C_average_miss_latency 163.19463

Core_0_L2C_rq_access 3052631
Core_0_L2C_rq_forward 0
Core_0_L2C_rq_merged 0
Core_0_L2C_rq_to_cache 3052367
Core_0_L2C_rq_full 0

Core_0_L2C_wq_access 1354646
Core_0_L2C_wq_forward 264
Core_0_L2C_wq_merged 0
Core_0_L2C_wq_to_cache 1354646
Core_0_L2C_wq_full 0

Core_0_L2C_pq_access 0
Core_0_L2C_pq_forward 0
Core_0_L2C_pq_merged 0
Core_0_L2C_pq_to_cache 0
Core_0_L2C_pq_full 0

Core_0_L2C_acc_epochs 180287
Core_0_L2C_acc_level_0 180287
Core_0_L2C_acc_level_1 0
Core_0_L2C_acc_level_2 0
Core_0_L2C_acc_level_3 0
Core_0_L2C_acc_level_4 0
Core_0_L2C_acc_level_5 0
Core_0_L2C_acc_level_6 0
Core_0_L2C_acc_level_7 0
Core_0_L2C_acc_level_8 0
Core_0_L2C_acc_level_9 0

Core_0_LLC_total_access 3488469
Core_0_LLC_total_hit 1734444
Core_0_LLC_total_miss 1754025
Core_0_LLC_loads 2169622
Core_0_LLC_load_hit 892033
Core_0_LLC_load_miss 1277589
Core_0_LLC_RFOs 314548
Core_0_LLC_RFO_hit 85194
Core_0_LLC_RFO_miss 229354
Core_0_LLC_prefetches 0
Core_0_LLC_prefetch_hit 0
Core_0_LLC_prefetch_miss 0
Core_0_LLC_writebacks 1004299
Core_0_LLC_writeback_hit 757217
Core_0_LLC_writeback_miss 247082
Core_0_LLC_prefetch_requested 0
Core_0_LLC_prefetch_dropped 0
Core_0_LLC_prefetch_issued 0
Core_0_LLC_prefetch_filled 0
Core_0_LLC_prefetch_useful 0
Core_0_LLC_prefetch_useless 0
Core_0_LLC_prefetch_late 0
Core_0_LLC_average_miss_latency 187.38299

Core_0_LLC_rq_access 2484202
Core_0_LLC_rq_forward 0
Core_0_LLC_rq_merged 0
Core_0_LLC_rq_to_cache 2484177
Core_0_LLC_rq_full 0

Core_0_LLC_wq_access 1004300
Core_0_LLC_wq_forward 25
Core_0_LLC_wq_merged 0
Core_0_LLC_wq_to_cache 1004300
Core_0_LLC_wq_full 0

Core_0_LLC_pq_access 0
Core_0_LLC_pq_forward 0
Core_0_LLC_pq_merged 0
Core_0_LLC_pq_to_cache 0
Core_0_LLC_pq_full 0

Core_0_LLC_acc_epochs 185301
Core_0_LLC_acc_level_0 185301
Core_0_LLC_acc_level_1 0
Core_0_LLC_acc_level_2 0
Core_0_LLC_acc_level_3 0
Core_0_LLC_acc_level_4 0
Core_0_LLC_acc_level_5 0
Core_0_LLC_acc_level_6 0
Core_0_LLC_acc_level_7 0
Core_0_LLC_acc_level_8 0
Core_0_LLC_acc_level_9 0

Core_0_major_page_fault 0
Core_0_minor_page_fault 6750

Channel_0_RQ_row_buffer_hit 457607
Channel_0_RQ_row_buffer_miss 1049044
Channel_0_WQ_row_buffer_hit 279808
Channel_0_WQ_row_buffer_miss 279094
Channel_0_WQ_full 2266
Channel_0_dbus_congested 913980

avg_congested_cycle 10

DRAM_bw_pochs 741202
DRAM_bw_level_0 530278
DRAM_bw_level_1 173423
DRAM_bw_level_2 25314
DRAM_bw_level_3 12187
