*************************************************
   ChampSim Multicore Out-of-Order Simulator
   Last compiled: Apr  3 2025 20:54:34
*************************************************
parsing config file: /home/zir/Pythia/config/pythia.ini

trace_0 /home/zir/ChampSim/ML-DPC/ChampSimTraces/spec17/620.omnetpp-s1.trace.xz
adding L2C_PREFETCHER: Scooby
Initialize SHIP state
warmup_instructions 10000000
simulation_instructions 50000000
champsim_seed 164
measure_ipc 0
measure_ipc_epoch 1000
measure_dram_bw 1
measure_dram_bw_epoch 256
measure_cache_acc 1
measure_cache_acc_epoch 1024
l1d_perfect 0
l2c_perfect 0
llc_perfect 0
l1d_semi_perfect 0
l2c_semi_perfect 0
llc_semi_perfect 0
semi_perfect_cache_page_buffer_size 64

num_cpus 1
cpu_freq 4000
dram_io_freq 2400
page_size 4096
block_size 64
max_read_per_cycle 8
max_fill_per_cycle 1
dram_channels 1
log2_dram_channels 0
dram_ranks 1
dram_banks 8
dram_rows 65536
dram_columns 128
dram_row_size 8
dram_size 4096
dram_pages 1048576

fetch_width 6
decode_width 6
exec_width 4
lq_width 2
sq_width 2
retire_width 4
scheduler_size 128
branch_mispredict_penalty 20
rob_size 256
lq_size 72
sq_size 56
num_instr_destinations_sparc 4
num_instr_destinations 2
num_instr_sources 4

itlb_set 16
itlb_way 8
itlb_rq_size 16
itlb_wq_size 16
itlb_pq_size 0
itlb_mshr_size 8
itlb_latency 1

dtlb_set 16
dtlb_way 4
dtlb_rq_size 16
dtlb_wq_size 16
dtlb_pq_size 0
dtlb_mshr_size 8
dtlb_latency 1

stlb_set 128
stlb_way 12
stlb_rq_size 32
stlb_wq_size 32
stlb_pq_size 0
stlb_mshr_size 16
stlb_latency 8

l1i_size 32
l1i_set 64
l1i_way 8
l1i_rq_size 64
l1i_wq_size 64
l1i_pq_size 8
l1i_mshr_size 8
l1i_latency 1

l1d_size 32
l1d_set 64
l1d_way 8
l1d_rq_size 64
l1d_wq_size 64
l1d_pq_size 8
l1d_mshr_size 16
l1d_latency 4

l2c_size 256
l2c_set 512
l2c_way 8
l2c_rq_size 32
l2c_wq_size 32
l2c_pq_size 32
l2c_mshr_size 32
l2c_latency 10

llc_size 2048
llc_set 2048
llc_way 16
llc_rq_size 32
llc_wq_size 32
llc_pq_size 32
llc_mshr_size 64
llc_latency 20

dram_channel_width 8
dram_wq_size 64
dram_rq_size 64
tRP 15
tRCD 15
tCAS 12.5
dram_dbus_turn_around_time 30
dram_write_high_wm 56
dram_write_low_wm 48
min_dram_writes_per_switch 16
dram_mtps 2400
dram_dbus_return_time 13

scooby_alpha 0.0065088
scooby_gamma 0.556301
scooby_epsilon 0.00182284
scooby_state_num_bits 10
scooby_max_states 1024
scooby_seed 200
scooby_policy EGreedy
scooby_learning_type SARSA
scooby_actions 1,3,4,5,10,11,12,22,23,30,32,-1,-3,-6,0,
scooby_max_actions 15
scooby_pt_size 256
scooby_st_size 64
scooby_max_pcs 5
scooby_max_offsets 5
scooby_max_deltas 5
scooby_reward_none -4
scooby_reward_incorrect -8
scooby_reward_correct_untimely 12
scooby_reward_correct_timely 20
scooby_brain_zero_init 0
scooby_enable_reward_all 0
scooby_enable_track_multiple 0
scooby_enable_reward_out_of_bounds 1
scooby_reward_out_of_bounds -12
scooby_state_type 1
scooby_state_hash_type 11
scooby_access_debug 0
scooby_print_access_debug 0
scooby_print_access_debug_pc deadbeef
scooby_print_access_debug_pc_count 0
scooby_print_trace 0
scooby_enable_state_action_stats 1
scooby_enable_reward_tracker_hit 0
scooby_reward_tracker_hit -2
scooby_enable_featurewise_engine 1
scooby_pref_degree 1
scooby_enable_dyn_degree 1
scooby_max_to_avg_q_thresholds 0.5,1,2,
scooby_dyn_degrees 1,2,4,4,
scooby_multi_deg_select_type 2
scooby_last_pref_offset_conf_thresholds 1,3,8,
scooby_dyn_degrees_type2 1,2,4,6,
scooby_action_tracker_size 2
scooby_high_bw_thresh 4
scooby_enable_hbw_reward 1
scooby_reward_hbw_correct_timely 20
scooby_reward_hbw_correct_untimely 12
scooby_reward_hbw_incorrect -14
scooby_reward_hbw_none -2
scooby_reward_hbw_out_of_bounds -12
scooby_reward_hbw_tracker_hit -2
scooby_last_pref_offset_conf_thresholds_hbw 1,3,8,
scooby_dyn_degrees_type2_hbw 1,2,4,6,

le_enable_trace 0
le_trace_interval 0
le_trace_file_name 
le_trace_state 0
le_enable_score_plot 0
le_plot_file_name 
le_plot_actions 
le_enable_action_trace 0
le_action_trace_interval 0
le_action_trace_name 
le_enable_action_plot 0

le_featurewise_active_features PC, PC_Delta
le_featurewise_num_tilings 3,3,
le_featurewise_num_tiles 128,128,
le_featurewise_hash_types 2,2,
le_featurewise_enable_tiling_offset 1,1,
le_featurewise_max_q_thresh 0.5
le_featurewise_enable_action_fallback 1
le_featurewise_feature_weights 1,1,
le_featurewise_enable_dynamic_weight 0
le_featurewise_weight_gradient 0.001
le_featurewise_disable_adjust_weight_all_features_align 1
le_featurewise_selective_update 0
le_featurewise_pooling_type 2
le_featurewise_enable_dyn_action_fallback 1
le_featurewise_bw_acc_check_level 1
le_featurewise_acc_thresh 2
le_featurewise_enable_trace 0
le_featurewise_trace_feature_type 0
le_featurewise_trace_feature 
le_featurewise_trace_interval 0
le_featurewise_trace_record_count 0
le_featurewise_trace_file_name 
le_featurewise_enable_score_plot 0
le_featurewise_plot_actions 
le_featurewise_plot_file_name 


Heartbeat CPU  0 instructions:    1000003 cycles:     824277 heartbeat IPC: 1.21319 cumulative IPC: 1.21319 (Simulation time: 0 hr 0 min 2 sec) 
Heartbeat CPU  0 instructions:    2000002 cycles:    1616379 heartbeat IPC: 1.26246 cumulative IPC: 1.23733 (Simulation time: 0 hr 0 min 4 sec) 
Heartbeat CPU  0 instructions:    3000003 cycles:    2412252 heartbeat IPC: 1.25648 cumulative IPC: 1.24365 (Simulation time: 0 hr 0 min 6 sec) 
Heartbeat CPU  0 instructions:    4000000 cycles:    3211585 heartbeat IPC: 1.25104 cumulative IPC: 1.24549 (Simulation time: 0 hr 0 min 8 sec) 
Heartbeat CPU  0 instructions:    5000000 cycles:    4012914 heartbeat IPC: 1.24793 cumulative IPC: 1.24598 (Simulation time: 0 hr 0 min 10 sec) 
Heartbeat CPU  0 instructions:    6000002 cycles:    4809787 heartbeat IPC: 1.25491 cumulative IPC: 1.24746 (Simulation time: 0 hr 0 min 12 sec) 
Heartbeat CPU  0 instructions:    7000003 cycles:    5614722 heartbeat IPC: 1.24234 cumulative IPC: 1.24672 (Simulation time: 0 hr 0 min 14 sec) 
Heartbeat CPU  0 instructions:    8000000 cycles:    6403803 heartbeat IPC: 1.26729 cumulative IPC: 1.24926 (Simulation time: 0 hr 0 min 16 sec) 
Heartbeat CPU  0 instructions:    9000003 cycles:    7197254 heartbeat IPC: 1.26032 cumulative IPC: 1.25048 (Simulation time: 0 hr 0 min 18 sec) 
Heartbeat CPU  0 instructions:   10000000 cycles:    7991272 heartbeat IPC: 1.25941 cumulative IPC: 1.25137 (Simulation time: 0 hr 0 min 19 sec) 

Warmup complete CPU  0 instructions:   10000001 cycles:    7991273 (Simulation time: 0 hr 0 min 19 sec) 

Heartbeat CPU  0 instructions:   11000000 cycles:   11966405 heartbeat IPC: 0.25156 cumulative IPC: 0.25156 (Simulation time: 0 hr 0 min 22 sec) 
Heartbeat CPU  0 instructions:   12000000 cycles:   16015229 heartbeat IPC: 0.24699 cumulative IPC: 0.24925 (Simulation time: 0 hr 0 min 25 sec) 
Heartbeat CPU  0 instructions:   13000002 cycles:   19928458 heartbeat IPC: 0.25554 cumulative IPC: 0.25132 (Simulation time: 0 hr 0 min 28 sec) 
Heartbeat CPU  0 instructions:   14000002 cycles:   23902022 heartbeat IPC: 0.25166 cumulative IPC: 0.25140 (Simulation time: 0 hr 0 min 31 sec) 
Heartbeat CPU  0 instructions:   15000000 cycles:   27813653 heartbeat IPC: 0.25565 cumulative IPC: 0.25224 (Simulation time: 0 hr 0 min 34 sec) 
Heartbeat CPU  0 instructions:   16000000 cycles:   31681956 heartbeat IPC: 0.25851 cumulative IPC: 0.25326 (Simulation time: 0 hr 0 min 37 sec) 
Heartbeat CPU  0 instructions:   17000001 cycles:   35752503 heartbeat IPC: 0.24567 cumulative IPC: 0.25215 (Simulation time: 0 hr 0 min 40 sec) 
Heartbeat CPU  0 instructions:   18000001 cycles:   39762876 heartbeat IPC: 0.24935 cumulative IPC: 0.25180 (Simulation time: 0 hr 0 min 43 sec) 
Heartbeat CPU  0 instructions:   19000003 cycles:   43907459 heartbeat IPC: 0.24128 cumulative IPC: 0.25058 (Simulation time: 0 hr 0 min 46 sec) 
Heartbeat CPU  0 instructions:   20000000 cycles:   48104949 heartbeat IPC: 0.23824 cumulative IPC: 0.24929 (Simulation time: 0 hr 0 min 50 sec) 
Heartbeat CPU  0 instructions:   21000000 cycles:   52063393 heartbeat IPC: 0.25262 cumulative IPC: 0.24959 (Simulation time: 0 hr 0 min 52 sec) 
Heartbeat CPU  0 instructions:   22000000 cycles:   55996711 heartbeat IPC: 0.25424 cumulative IPC: 0.24997 (Simulation time: 0 hr 0 min 55 sec) 
Heartbeat CPU  0 instructions:   23000001 cycles:   60212905 heartbeat IPC: 0.23718 cumulative IPC: 0.24894 (Simulation time: 0 hr 0 min 58 sec) 
Heartbeat CPU  0 instructions:   24000000 cycles:   64198785 heartbeat IPC: 0.25089 cumulative IPC: 0.24908 (Simulation time: 0 hr 1 min 1 sec) 
Heartbeat CPU  0 instructions:   25000000 cycles:   68124433 heartbeat IPC: 0.25474 cumulative IPC: 0.24945 (Simulation time: 0 hr 1 min 4 sec) 
Heartbeat CPU  0 instructions:   26000000 cycles:   72306316 heartbeat IPC: 0.23913 cumulative IPC: 0.24878 (Simulation time: 0 hr 1 min 7 sec) 
Heartbeat CPU  0 instructions:   27000002 cycles:   76269826 heartbeat IPC: 0.25230 cumulative IPC: 0.24898 (Simulation time: 0 hr 1 min 10 sec) 
Heartbeat CPU  0 instructions:   28000000 cycles:   80381018 heartbeat IPC: 0.24324 cumulative IPC: 0.24865 (Simulation time: 0 hr 1 min 13 sec) 
Heartbeat CPU  0 instructions:   29000002 cycles:   84465491 heartbeat IPC: 0.24483 cumulative IPC: 0.24845 (Simulation time: 0 hr 1 min 16 sec) 
Heartbeat CPU  0 instructions:   30000001 cycles:   88660657 heartbeat IPC: 0.23837 cumulative IPC: 0.24793 (Simulation time: 0 hr 1 min 20 sec) 
Heartbeat CPU  0 instructions:   31000003 cycles:   92709328 heartbeat IPC: 0.24700 cumulative IPC: 0.24788 (Simulation time: 0 hr 1 min 23 sec) 
Heartbeat CPU  0 instructions:   32000000 cycles:   96859870 heartbeat IPC: 0.24093 cumulative IPC: 0.24756 (Simulation time: 0 hr 1 min 26 sec) 
Heartbeat CPU  0 instructions:   33000002 cycles:  100899250 heartbeat IPC: 0.24756 cumulative IPC: 0.24756 (Simulation time: 0 hr 1 min 29 sec) 
Heartbeat CPU  0 instructions:   34000002 cycles:  104933907 heartbeat IPC: 0.24785 cumulative IPC: 0.24757 (Simulation time: 0 hr 1 min 32 sec) 
Heartbeat CPU  0 instructions:   35000000 cycles:  109076290 heartbeat IPC: 0.24141 cumulative IPC: 0.24732 (Simulation time: 0 hr 1 min 35 sec) 
Heartbeat CPU  0 instructions:   36000000 cycles:  113112779 heartbeat IPC: 0.24774 cumulative IPC: 0.24733 (Simulation time: 0 hr 1 min 38 sec) 
Heartbeat CPU  0 instructions:   37000000 cycles:  117288442 heartbeat IPC: 0.23948 cumulative IPC: 0.24703 (Simulation time: 0 hr 1 min 41 sec) 
Heartbeat CPU  0 instructions:   38000000 cycles:  121416590 heartbeat IPC: 0.24224 cumulative IPC: 0.24686 (Simulation time: 0 hr 1 min 44 sec) 
Heartbeat CPU  0 instructions:   39000003 cycles:  125601342 heartbeat IPC: 0.23896 cumulative IPC: 0.24658 (Simulation time: 0 hr 1 min 47 sec) 
Heartbeat CPU  0 instructions:   40000000 cycles:  129418661 heartbeat IPC: 0.26196 cumulative IPC: 0.24706 (Simulation time: 0 hr 1 min 50 sec) 
Heartbeat CPU  0 instructions:   41000000 cycles:  133292240 heartbeat IPC: 0.25816 cumulative IPC: 0.24740 (Simulation time: 0 hr 1 min 53 sec) 
Heartbeat CPU  0 instructions:   42000001 cycles:  137377549 heartbeat IPC: 0.24478 cumulative IPC: 0.24732 (Simulation time: 0 hr 1 min 56 sec) 
Heartbeat CPU  0 instructions:   43000000 cycles:  141479095 heartbeat IPC: 0.24381 cumulative IPC: 0.24721 (Simulation time: 0 hr 1 min 59 sec) 
Heartbeat CPU  0 instructions:   44000000 cycles:  145567111 heartbeat IPC: 0.24462 cumulative IPC: 0.24714 (Simulation time: 0 hr 2 min 2 sec) 
Heartbeat CPU  0 instructions:   45000000 cycles:  149803753 heartbeat IPC: 0.23604 cumulative IPC: 0.24680 (Simulation time: 0 hr 2 min 5 sec) 
Heartbeat CPU  0 instructions:   46000000 cycles:  153874843 heartbeat IPC: 0.24563 cumulative IPC: 0.24677 (Simulation time: 0 hr 2 min 8 sec) 
Heartbeat CPU  0 instructions:   47000000 cycles:  158067733 heartbeat IPC: 0.23850 cumulative IPC: 0.24654 (Simulation time: 0 hr 2 min 11 sec) 
Heartbeat CPU  0 instructions:   48000000 cycles:  162267739 heartbeat IPC: 0.23809 cumulative IPC: 0.24631 (Simulation time: 0 hr 2 min 14 sec) 
Heartbeat CPU  0 instructions:   49000002 cycles:  166233871 heartbeat IPC: 0.25214 cumulative IPC: 0.24646 (Simulation time: 0 hr 2 min 17 sec) 
Heartbeat CPU  0 instructions:   50000000 cycles:  170425821 heartbeat IPC: 0.23855 cumulative IPC: 0.24625 (Simulation time: 0 hr 2 min 20 sec) 
Heartbeat CPU  0 instructions:   51000002 cycles:  174407154 heartbeat IPC: 0.25117 cumulative IPC: 0.24637 (Simulation time: 0 hr 2 min 23 sec) 
Heartbeat CPU  0 instructions:   52000000 cycles:  178665568 heartbeat IPC: 0.23483 cumulative IPC: 0.24608 (Simulation time: 0 hr 2 min 26 sec) 
Heartbeat CPU  0 instructions:   53000001 cycles:  182970402 heartbeat IPC: 0.23230 cumulative IPC: 0.24574 (Simulation time: 0 hr 2 min 29 sec) 
Heartbeat CPU  0 instructions:   54000000 cycles:  186886622 heartbeat IPC: 0.25535 cumulative IPC: 0.24595 (Simulation time: 0 hr 2 min 32 sec) 
Heartbeat CPU  0 instructions:   55000000 cycles:  190792625 heartbeat IPC: 0.25602 cumulative IPC: 0.24617 (Simulation time: 0 hr 2 min 35 sec) 
Heartbeat CPU  0 instructions:   56000000 cycles:  194851231 heartbeat IPC: 0.24639 cumulative IPC: 0.24617 (Simulation time: 0 hr 2 min 39 sec) 
Heartbeat CPU  0 instructions:   57000003 cycles:  198952744 heartbeat IPC: 0.24381 cumulative IPC: 0.24612 (Simulation time: 0 hr 2 min 42 sec) 
Heartbeat CPU  0 instructions:   58000000 cycles:  202968277 heartbeat IPC: 0.24903 cumulative IPC: 0.24618 (Simulation time: 0 hr 2 min 45 sec) 
Heartbeat CPU  0 instructions:   59000003 cycles:  207120055 heartbeat IPC: 0.24086 cumulative IPC: 0.24607 (Simulation time: 0 hr 2 min 48 sec) 
Heartbeat CPU  0 instructions:   60000000 cycles:  211086379 heartbeat IPC: 0.25212 cumulative IPC: 0.24619 (Simulation time: 0 hr 2 min 51 sec) 
Finished CPU 0 instructions: 50000002 cycles: 203095114 cumulative IPC: 0.24619 (Simulation time: 0 hr 2 min 51 sec) 

ChampSim completed all CPUs

[ROI Statistics]
Core_0_instructions 50000002
Core_0_cycles 203095114
Core_0_IPC 0.24619

Core_0_branch_prediction_accuracy 96.80251
Core_0_branch_MPKI 4.75522
Core_0_average_ROB_occupancy_at_mispredict 94.57554

Core_0_L1D_total_access 21884258
Core_0_L1D_total_hit 20884968
Core_0_L1D_total_miss 999290
Core_0_L1D_loads 12831586
Core_0_L1D_load_hit 11957961
Core_0_L1D_load_miss 873625
Core_0_L1D_RFOs 9052672
Core_0_L1D_RFO_hit 8927007
Core_0_L1D_RFO_miss 125665
Core_0_L1D_prefetches 0
Core_0_L1D_prefetch_hit 0
Core_0_L1D_prefetch_miss 0
Core_0_L1D_writebacks 0
Core_0_L1D_writeback_hit 0
Core_0_L1D_writeback_miss 0
Core_0_L1D_prefetch_requested 0
Core_0_L1D_prefetch_dropped 0
Core_0_L1D_prefetch_issued 0
Core_0_L1D_prefetch_filled 0
Core_0_L1D_prefetch_useful 0
Core_0_L1D_prefetch_useless 0
Core_0_L1D_prefetch_late 0
Core_0_L1D_average_miss_latency 101.95357

Core_0_L1D_rq_access 15995267
Core_0_L1D_rq_forward 0
Core_0_L1D_rq_merged 3110523
Core_0_L1D_rq_to_cache 12884713
Core_0_L1D_rq_full 0

Core_0_L1D_wq_access 9281774
Core_0_L1D_wq_forward 31
Core_0_L1D_wq_merged 26349
Core_0_L1D_wq_to_cache 9255425
Core_0_L1D_wq_full 0

Core_0_L1D_pq_access 0
Core_0_L1D_pq_forward 0
Core_0_L1D_pq_merged 0
Core_0_L1D_pq_to_cache 0
Core_0_L1D_pq_full 0

Core_0_L1D_acc_epochs 185511
Core_0_L1D_acc_level_0 185511
Core_0_L1D_acc_level_1 0
Core_0_L1D_acc_level_2 0
Core_0_L1D_acc_level_3 0
Core_0_L1D_acc_level_4 0
Core_0_L1D_acc_level_5 0
Core_0_L1D_acc_level_6 0
Core_0_L1D_acc_level_7 0
Core_0_L1D_acc_level_8 0
Core_0_L1D_acc_level_9 0

Core_0_L1I_total_access 16926725
Core_0_L1I_total_hit 16908768
Core_0_L1I_total_miss 17957
Core_0_L1I_loads 16926725
Core_0_L1I_load_hit 16908768
Core_0_L1I_load_miss 17957
Core_0_L1I_RFOs 0
Core_0_L1I_RFO_hit 0
Core_0_L1I_RFO_miss 0
Core_0_L1I_prefetches 0
Core_0_L1I_prefetch_hit 0
Core_0_L1I_prefetch_miss 0
Core_0_L1I_writebacks 0
Core_0_L1I_writeback_hit 0
Core_0_L1I_writeback_miss 0
Core_0_L1I_prefetch_requested 0
Core_0_L1I_prefetch_dropped 0
Core_0_L1I_prefetch_issued 0
Core_0_L1I_prefetch_filled 0
Core_0_L1I_prefetch_useful 0
Core_0_L1I_prefetch_useless 0
Core_0_L1I_prefetch_late 0
Core_0_L1I_average_miss_latency 31.71070

Core_0_L1I_rq_access 50000138
Core_0_L1I_rq_forward 0
Core_0_L1I_rq_merged 33059296
Core_0_L1I_rq_to_cache 16940842
Core_0_L1I_rq_full 0

Core_0_L1I_wq_access 0
Core_0_L1I_wq_forward 0
Core_0_L1I_wq_merged 0
Core_0_L1I_wq_to_cache 0
Core_0_L1I_wq_full 0

Core_0_L1I_pq_access 0
Core_0_L1I_pq_forward 0
Core_0_L1I_pq_merged 0
Core_0_L1I_pq_to_cache 0
Core_0_L1I_pq_full 0

Core_0_L1I_acc_epochs 185511
Core_0_L1I_acc_level_0 185511
Core_0_L1I_acc_level_1 0
Core_0_L1I_acc_level_2 0
Core_0_L1I_acc_level_3 0
Core_0_L1I_acc_level_4 0
Core_0_L1I_acc_level_5 0
Core_0_L1I_acc_level_6 0
Core_0_L1I_acc_level_7 0
Core_0_L1I_acc_level_8 0
Core_0_L1I_acc_level_9 0

Core_0_L2C_total_access 2340651
Core_0_L2C_total_hit 1208994
Core_0_L2C_total_miss 1131657
Core_0_L2C_loads 891546
Core_0_L2C_load_hit 379827
Core_0_L2C_load_miss 511719
Core_0_L2C_RFOs 125658
Core_0_L2C_RFO_hit 48802
Core_0_L2C_RFO_miss 76856
Core_0_L2C_prefetches 838985
Core_0_L2C_prefetch_hit 298195
Core_0_L2C_prefetch_miss 540790
Core_0_L2C_writebacks 484462
Core_0_L2C_writeback_hit 482170
Core_0_L2C_writeback_miss 2292
Core_0_L2C_prefetch_requested 1111482
Core_0_L2C_prefetch_dropped 0
Core_0_L2C_prefetch_issued 1111482
Core_0_L2C_prefetch_filled 655857
Core_0_L2C_prefetch_useful 220350
Core_0_L2C_prefetch_useless 434371
Core_0_L2C_prefetch_late 11224
Core_0_L2C_average_miss_latency 149.61088

Core_0_L2C_rq_access 1017247
Core_0_L2C_rq_forward 0
Core_0_L2C_rq_merged 0
Core_0_L2C_rq_to_cache 1017204
Core_0_L2C_rq_full 0

Core_0_L2C_wq_access 484462
Core_0_L2C_wq_forward 49
Core_0_L2C_wq_merged 0
Core_0_L2C_wq_to_cache 484462
Core_0_L2C_wq_full 0

Core_0_L2C_pq_access 1111482
Core_0_L2C_pq_forward 0
Core_0_L2C_pq_merged 25289
Core_0_L2C_pq_to_cache 1086187
Core_0_L2C_pq_full 0

Core_0_L2C_acc_epochs 185511
Core_0_L2C_acc_level_0 36473
Core_0_L2C_acc_level_1 28089
Core_0_L2C_acc_level_2 31248
Core_0_L2C_acc_level_3 27815
Core_0_L2C_acc_level_4 17956
Core_0_L2C_acc_level_5 18872
Core_0_L2C_acc_level_6 9872
Core_0_L2C_acc_level_7 5843
Core_0_L2C_acc_level_8 3136
Core_0_L2C_acc_level_9 6207

Core_0_LLC_total_access 1514998
Core_0_LLC_total_hit 751003
Core_0_LLC_total_miss 763995
Core_0_LLC_loads 503072
Core_0_LLC_load_hit 191274
Core_0_LLC_load_miss 311798
Core_0_LLC_RFOs 75069
Core_0_LLC_RFO_hit 33947
Core_0_LLC_RFO_miss 41122
Core_0_LLC_prefetches 551220
Core_0_LLC_prefetch_hit 195104
Core_0_LLC_prefetch_miss 356116
Core_0_LLC_writebacks 385637
Core_0_LLC_writeback_hit 330678
Core_0_LLC_writeback_miss 54959
Core_0_LLC_prefetch_requested 0
Core_0_LLC_prefetch_dropped 0
Core_0_LLC_prefetch_issued 0
Core_0_LLC_prefetch_filled 436733
Core_0_LLC_prefetch_useful 22225
Core_0_LLC_prefetch_useless 404300
Core_0_LLC_prefetch_late 0
Core_0_LLC_average_miss_latency 170.12331

Core_0_LLC_rq_access 578145
Core_0_LLC_rq_forward 0
Core_0_LLC_rq_merged 0
Core_0_LLC_rq_to_cache 578141
Core_0_LLC_rq_full 0

Core_0_LLC_wq_access 385637
Core_0_LLC_wq_forward 4
Core_0_LLC_wq_merged 0
Core_0_LLC_wq_to_cache 385637
Core_0_LLC_wq_full 0

Core_0_LLC_pq_access 667081
Core_0_LLC_pq_forward 0
Core_0_LLC_pq_merged 0
Core_0_LLC_pq_to_cache 667081
Core_0_LLC_pq_full 0

Core_0_LLC_acc_epochs 206140
Core_0_LLC_acc_level_0 180680
Core_0_LLC_acc_level_1 9806
Core_0_LLC_acc_level_2 7528
Core_0_LLC_acc_level_3 1133
Core_0_LLC_acc_level_4 197
Core_0_LLC_acc_level_5 5454
Core_0_LLC_acc_level_6 345
Core_0_LLC_acc_level_7 321
Core_0_LLC_acc_level_8 45
Core_0_LLC_acc_level_9 631

Core_0_major_page_fault 0
Core_0_minor_page_fault 45760

scooby_st_lookup 1068144
scooby_st_hit 575544
scooby_st_evict 492536
scooby_st_insert 492600
scooby_st_streaming 0

scooby_predict_called 1068144
scooby_predict_out_of_bounds 33585
scooby_predict_action_1 763790
scooby_predict_issue_action_1 716025
scooby_predict_hit_action_1 47765
scooby_predict_out_of_bounds_action_1 10900
scooby_predict_action_3 97024
scooby_predict_issue_action_3 86922
scooby_predict_hit_action_3 10102
scooby_predict_out_of_bounds_action_3 4570
scooby_predict_action_4 22853
scooby_predict_issue_action_4 17007
scooby_predict_hit_action_4 5846
scooby_predict_out_of_bounds_action_4 1400
scooby_predict_action_5 6133
scooby_predict_issue_action_5 5394
scooby_predict_hit_action_5 739
scooby_predict_out_of_bounds_action_5 462
scooby_predict_action_10 11583
scooby_predict_issue_action_10 11173
scooby_predict_hit_action_10 410
scooby_predict_out_of_bounds_action_10 1956
scooby_predict_action_11 11030
scooby_predict_issue_action_11 10616
scooby_predict_hit_action_11 414
scooby_predict_out_of_bounds_action_11 2105
scooby_predict_action_12 5708
scooby_predict_issue_action_12 5356
scooby_predict_hit_action_12 352
scooby_predict_out_of_bounds_action_12 1050
scooby_predict_action_22 3488
scooby_predict_issue_action_22 3395
scooby_predict_hit_action_22 93
scooby_predict_out_of_bounds_action_22 1437
scooby_predict_action_23 4082
scooby_predict_issue_action_23 3987
scooby_predict_hit_action_23 95
scooby_predict_out_of_bounds_action_23 1949
scooby_predict_action_30 3000
scooby_predict_issue_action_30 2908
scooby_predict_hit_action_30 92
scooby_predict_out_of_bounds_action_30 1964
scooby_predict_action_32 2630
scooby_predict_issue_action_32 2538
scooby_predict_hit_action_32 92
scooby_predict_out_of_bounds_action_32 1951
scooby_predict_action_-1 52129
scooby_predict_issue_action_-1 33032
scooby_predict_hit_action_-1 19097
scooby_predict_out_of_bounds_action_-1 668
scooby_predict_action_-3 8784
scooby_predict_issue_action_-3 6391
scooby_predict_hit_action_-3 2393
scooby_predict_out_of_bounds_action_-3 359
scooby_predict_action_-6 22016
scooby_predict_issue_action_-6 21286
scooby_predict_hit_action_-6 730
scooby_predict_out_of_bounds_action_-6 2814
scooby_predict_action_0 20309
scooby_predict_issue_action_0 0
scooby_predict_hit_action_0 0
scooby_predict_out_of_bounds_action_0 0
scooby_predict_multi_deg_called 92228
scooby_predict_predicted 1111482
scooby_predict_multi_deg 185452
scooby_predict_multi_deg_2 89650
scooby_predict_multi_deg_3 40407
scooby_predict_multi_deg_4 39421
scooby_predict_multi_deg_5 8104
scooby_predict_multi_deg_6 7870
scooby_predict_multi_deg_7 0
scooby_predict_multi_deg_8 0
scooby_predict_multi_deg_9 0
scooby_predict_multi_deg_10 0
scooby_predict_multi_deg_11 0
scooby_predict_multi_deg_12 0
scooby_predict_multi_deg_13 0
scooby_predict_multi_deg_14 0
scooby_predict_multi_deg_15 0
scooby_predict_multi_deg_16 0

scooby_selected_deg_1 833802
scooby_selected_deg_2 49443
scooby_selected_deg_3 0
scooby_selected_deg_4 33681
scooby_selected_deg_5 0
scooby_selected_deg_6 9104
scooby_selected_deg_7 0
scooby_selected_deg_8 0
scooby_selected_deg_9 0
scooby_selected_deg_10 0
scooby_selected_deg_11 0
scooby_selected_deg_12 0
scooby_selected_deg_13 0
scooby_selected_deg_14 0
scooby_selected_deg_15 0
scooby_selected_deg_16 0

scooby_state_47134d|4|0 2016,0,4,2,3,3,8,2,2,1,3,5,2,0,2,2053,
scooby_state_47134d|13|0 1932,1,0,0,3,1,1,2,0,1,0,1,1,1,3,1947,
scooby_state_47134d|17|0 1919,2,0,2,2,1,0,2,0,0,1,3,0,0,3,1935,
scooby_state_47134d|27|0 1848,2,0,1,6,5,3,2,0,0,1,4,3,0,4,1879,
scooby_state_47134d|7|0 1848,1,2,1,3,2,2,1,3,2,2,1,0,2,2,1872,
scooby_state_47134d|23|0 1822,1,1,0,1,0,3,0,1,1,2,5,1,0,1,1839,
scooby_state_47134d|43|0 1808,3,4,0,1,3,2,0,2,3,2,2,3,1,2,1836,
scooby_state_47134d|54|0 1815,0,2,1,0,1,2,3,2,2,2,3,1,0,1,1835,
scooby_state_47134d|47|0 1776,0,3,4,4,2,5,2,0,0,0,3,3,3,4,1809,
scooby_state_47134d|0|0 1788,3,1,3,2,0,0,1,0,0,3,4,2,0,1,1808,
scooby_state_47134d|10|0 1787,1,0,3,1,2,0,2,3,0,0,2,1,0,3,1805,
scooby_state_47134d|60|0 1789,0,3,3,0,0,0,1,1,0,0,3,1,1,3,1805,
scooby_state_47134d|50|0 1781,4,2,3,0,3,2,2,2,1,0,1,1,1,0,1803,
scooby_state_47134d|56|0 1787,0,3,1,0,3,0,0,0,0,0,1,2,0,2,1799,
scooby_state_47134d|16|0 1775,2,3,2,2,0,2,0,0,1,0,4,0,1,1,1793,
scooby_state_471351|4|0 1750,7,3,1,4,4,0,1,1,1,1,4,3,4,6,1790,
scooby_state_47134d|34|0 1745,1,4,2,0,0,3,0,0,2,1,8,1,3,7,1777,
scooby_state_47134d|28|0 1747,0,0,2,1,1,0,1,2,1,0,2,1,1,1,1760,
scooby_state_47134d|32|0 1718,2,2,4,1,3,2,1,1,1,0,3,3,2,0,1743,
scooby_state_47134d|40|0 1721,2,2,2,1,2,1,0,0,2,0,4,1,2,3,1743,
scooby_state_47134d|25|0 1725,2,1,0,2,1,3,1,0,0,1,2,1,0,1,1740,
scooby_state_47134d|20|0 1711,1,2,0,2,2,0,1,0,0,1,5,1,2,1,1729,
scooby_state_47134d|57|0 1704,1,1,3,2,2,1,1,3,0,1,2,1,1,3,1726,
scooby_state_47134d|24|0 1673,3,1,1,0,5,4,1,1,0,1,2,2,1,6,1701,
scooby_state_47134d|44|0 1665,2,1,3,1,2,0,2,4,0,1,3,2,0,4,1690,
scooby_state_47134d|36|0 1674,1,0,1,1,1,0,1,2,2,0,3,2,0,1,1689,
scooby_state_47134d|51|0 1655,1,1,2,5,0,1,3,1,0,2,2,4,5,1,1683,
scooby_state_47134d|19|0 1668,0,0,1,1,2,2,1,0,0,1,2,0,0,4,1682,
scooby_state_47134d|1|0 1661,2,0,2,1,1,0,0,1,0,2,1,3,0,1,1675,
scooby_state_471351|17|0 1635,6,2,1,1,1,2,3,1,2,1,4,0,3,2,1664,
scooby_state_47134d|53|0 1651,1,0,3,2,0,1,0,1,0,1,1,2,1,0,1664,
scooby_state_471351|13|0 1621,7,1,4,1,3,1,2,3,2,1,6,0,3,3,1658,
scooby_state_47134d|30|0 1623,4,2,0,2,1,1,5,0,1,4,4,1,0,7,1655,
scooby_state_47134d|18|0 1608,4,1,2,1,2,1,2,4,4,0,4,2,1,0,1636,
scooby_state_47134d|33|0 1617,0,3,3,1,1,2,0,1,1,0,0,1,1,3,1634,
scooby_state_47134d|29|0 1614,0,0,0,1,2,1,1,1,1,0,1,0,1,0,1623,
scooby_state_47134d|5|0 1603,1,0,2,0,3,2,3,2,2,0,1,0,0,0,1619,
scooby_state_47134d|3|0 1593,0,1,1,3,1,1,3,2,1,1,2,0,4,3,1616,
scooby_state_47134d|52|0 1599,0,1,3,0,1,1,3,0,1,0,3,1,0,3,1616,
scooby_state_47134d|21|0 1593,1,2,1,0,1,2,1,1,2,2,4,0,1,5,1616,
scooby_state_47134d|46|0 1596,1,3,0,0,1,1,1,1,1,0,5,0,1,4,1615,
scooby_state_47134d|6|0 1588,2,2,0,3,2,0,1,1,1,1,3,1,3,2,1610,
scooby_state_47134d|26|0 1597,0,2,0,1,0,1,0,1,0,0,5,2,0,0,1609,
scooby_state_47134d|39|0 1591,3,0,3,0,4,1,1,0,0,0,1,1,0,3,1608,
scooby_state_47134d|9|0 1595,1,0,2,2,2,1,1,1,0,1,1,0,0,1,1608,
scooby_state_47134d|48|0 1587,0,2,0,2,1,1,0,1,4,1,4,2,1,1,1607,
scooby_state_47134d|42|0 1577,3,4,2,0,2,0,0,0,0,1,2,2,0,3,1596,
scooby_state_471351|47|0 1549,13,4,2,1,1,2,1,0,1,0,3,2,4,8,1591,
scooby_state_471351|19|0 1557,11,0,3,1,2,1,1,1,0,2,6,1,1,3,1590,
scooby_state_47134d|62|0 1562,0,1,2,0,0,1,2,1,0,2,4,0,1,2,1578,
scooby_state_47134d|58|0 1564,0,1,2,1,1,0,2,0,1,0,2,0,0,3,1577,
scooby_state_47134d|59|0 1560,3,0,1,2,1,2,1,0,0,1,2,0,2,0,1575,
scooby_state_47134d|2|0 1554,0,3,0,3,0,2,1,1,2,2,3,2,1,0,1574,
scooby_state_471351|60|0 1539,8,0,3,3,3,0,1,2,1,1,6,0,2,2,1571,
scooby_state_47134d|11|0 1547,0,1,0,0,1,2,0,1,1,1,2,2,1,1,1560,
scooby_state_47134d|14|0 1527,2,0,2,6,2,2,0,1,0,1,3,1,1,3,1551,
scooby_state_47134d|8|0 1540,1,4,0,0,0,0,0,0,0,2,1,0,1,1,1550,
scooby_state_47134d|35|0 1525,2,2,3,0,1,2,3,0,1,0,4,2,1,3,1549,
scooby_state_471351|27|0 1515,1,3,2,1,1,1,2,1,0,1,7,3,0,4,1542,
scooby_state_47134d|37|0 1514,3,1,0,2,0,1,0,2,2,0,2,1,0,2,1530,
scooby_state_471351|56|0 1480,15,0,3,2,1,1,2,0,1,0,11,1,4,4,1525,
scooby_state_471351|54|0 1486,6,2,1,0,4,1,3,1,3,1,10,2,0,4,1524,
scooby_state_47134d|55|0 1505,1,3,0,2,0,0,0,1,2,1,3,2,0,1,1521,
scooby_state_47134d|45|0 1510,0,1,0,1,0,0,0,2,0,0,3,2,1,1,1521,
scooby_state_471351|51|0 1490,9,0,0,2,0,2,2,0,4,2,4,0,0,4,1519,
scooby_state_471351|10|0 1484,4,1,2,1,2,1,2,2,2,1,4,2,2,4,1514,
scooby_state_471351|1|0 1474,8,2,0,1,2,1,0,3,0,1,8,4,2,7,1513,
scooby_state_47134d|63|0 1492,1,3,1,1,0,1,1,1,1,0,2,1,2,0,1507,
scooby_state_471351|0|0 1477,4,3,0,1,1,1,1,1,0,2,7,1,0,5,1504,
scooby_state_471351|36|0 1475,4,1,1,1,0,2,1,0,0,3,4,3,2,7,1504,
scooby_state_47134d|31|0 1465,1,4,4,1,0,1,1,0,1,2,3,1,1,2,1487,
scooby_state_471351|50|0 1456,9,0,2,0,2,2,0,0,1,0,5,1,0,7,1485,
scooby_state_47134d|61|0 1456,3,1,6,0,3,0,0,0,4,0,3,0,0,3,1479,
scooby_state_47134d|49|0 1468,0,0,2,0,0,1,0,1,0,2,2,1,1,1,1479,
scooby_state_471351|23|0 1439,9,3,2,0,2,4,1,1,2,1,9,3,1,1,1478,
scooby_state_471351|40|0 1442,5,3,2,2,3,4,1,0,1,0,8,0,2,3,1476,
scooby_state_47134d|22|0 1448,2,2,0,1,2,1,1,4,0,2,4,1,1,2,1471,
scooby_state_471351|20|0 1433,8,3,2,2,2,1,1,3,2,0,3,1,3,3,1467,
scooby_state_471351|34|0 1432,10,0,0,1,2,1,0,0,4,1,6,0,2,5,1464,
scooby_state_471351|57|0 1433,5,1,2,3,1,1,1,2,0,1,3,2,3,5,1463,
scooby_state_47134d|12|0 1445,2,2,0,3,2,0,0,0,1,2,2,1,0,0,1460,
scooby_state_471351|25|0 1435,4,3,2,1,3,1,0,1,1,0,5,0,1,2,1459,
scooby_state_47134d|38|0 1446,1,2,0,1,1,0,0,1,1,1,1,0,0,1,1456,
scooby_state_471351|30|0 1422,4,4,2,0,1,3,3,2,2,1,4,2,1,3,1454,
scooby_state_47134d|15|0 1439,0,2,1,0,4,1,0,0,1,0,0,0,2,1,1451,
scooby_state_471351|7|0 1402,0,3,3,1,1,4,2,3,0,2,5,1,3,6,1436,
scooby_state_471351|2|0 1400,9,0,2,1,0,2,1,0,0,0,5,2,1,1,1424,
scooby_state_471351|28|0 1393,4,2,3,1,1,1,2,3,2,0,1,1,2,3,1419,
scooby_state_471351|39|0 1388,3,2,0,3,1,2,1,2,1,2,4,1,1,5,1416,
scooby_state_471351|42|0 1376,9,5,1,1,2,4,0,1,2,1,3,2,1,3,1411,
scooby_state_471351|46|0 1375,8,1,4,0,5,4,1,0,1,1,4,1,2,2,1409,
scooby_state_471351|53|0 1383,10,3,1,1,0,0,1,0,0,1,3,2,1,1,1407,
scooby_state_471351|33|0 1379,3,1,4,1,1,0,1,2,0,0,8,1,1,4,1406,
scooby_state_471351|6|0 1368,5,3,4,0,1,0,1,0,0,2,8,2,1,2,1397,
scooby_state_471351|32|0 1372,6,2,1,0,0,1,2,2,1,0,3,1,0,4,1395,
scooby_state_471351|24|0 1356,10,1,3,2,1,1,0,1,3,1,2,2,1,5,1389,
scooby_state_471351|52|0 1358,5,1,1,0,0,1,0,3,1,2,6,1,2,4,1385,
scooby_state_471351|18|0 1349,8,0,3,0,3,1,1,1,2,1,6,3,2,4,1384,
scooby_state_471351|48|0 1336,5,3,3,1,2,3,2,1,1,4,10,1,1,5,1378,
scooby_state_471351|59|0 1323,10,3,2,2,1,1,0,1,1,0,6,3,0,5,1358,
scooby_state_471351|44|0 1318,10,2,4,0,1,2,1,0,0,1,7,2,2,8,1358,
scooby_state_471351|43|0 1336,4,2,1,0,2,2,0,4,2,0,2,0,1,2,1358,
scooby_state_471351|8|0 1324,7,0,2,3,3,2,1,0,0,1,7,0,1,6,1357,
scooby_state_471351|3|0 1321,6,0,1,2,2,2,2,2,0,1,5,5,2,4,1355,
scooby_state_471351|22|0 1323,3,1,0,1,3,0,1,1,0,1,6,0,2,3,1345,
scooby_state_471351|16|0 1318,3,3,1,1,1,1,3,0,0,2,1,2,2,3,1341,
scooby_state_471351|31|0 1309,5,3,1,3,0,0,2,0,0,0,3,1,1,5,1333,
scooby_state_471351|26|0 1310,5,1,1,0,0,0,1,2,1,2,6,1,1,1,1332,
scooby_state_471351|29|0 1302,4,4,0,1,2,1,2,1,1,1,6,1,0,5,1331,
scooby_state_471351|58|0 1302,4,2,2,2,2,0,0,0,0,1,6,1,1,6,1329,
scooby_state_471351|11|0 1290,8,1,1,2,4,3,1,1,4,1,5,0,0,3,1324,
scooby_state_471351|9|0 1286,5,1,4,2,1,2,0,2,2,0,11,0,2,2,1320,
scooby_state_471351|21|0 1286,7,2,1,3,4,1,1,0,0,1,8,0,0,3,1317,
scooby_state_47134d|41|0 1301,1,2,0,1,1,0,0,0,1,0,1,1,0,2,1311,
scooby_state_471351|37|0 1269,7,2,2,1,3,3,1,2,1,0,3,1,1,5,1301,
scooby_state_471351|55|0 1275,8,0,3,3,1,2,0,2,0,1,2,1,0,2,1300,
scooby_state_471351|38|0 1256,8,0,2,1,4,2,0,1,0,1,8,1,0,6,1290,
scooby_state_471351|62|0 1264,1,1,4,0,1,2,0,1,1,0,2,0,0,1,1278,
scooby_state_471351|61|0 1214,6,2,1,2,1,2,0,1,1,1,7,1,1,4,1244,
scooby_state_471351|15|0 1203,8,0,1,1,1,1,2,4,2,1,6,2,2,3,1237,
scooby_state_471351|5|0 1215,3,1,2,1,1,0,0,0,0,1,6,0,2,5,1237,
scooby_state_471351|45|0 1204,2,1,1,2,0,0,2,3,2,1,6,0,2,7,1233,
scooby_state_471351|35|0 1206,5,0,2,1,0,0,2,1,0,0,4,2,1,7,1231,
scooby_state_471351|12|0 1203,5,1,3,0,2,1,1,1,1,3,5,1,0,3,1230,
scooby_state_471351|63|0 1202,6,1,1,0,1,1,0,2,0,1,2,0,0,3,1220,
scooby_state_471351|14|0 1136,3,3,0,0,2,0,2,0,1,0,4,2,0,3,1156,
scooby_state_471351|49|0 1105,8,2,0,1,2,0,1,0,1,3,3,1,2,2,1131,
scooby_state_471351|41|0 1031,5,1,3,3,0,3,0,0,0,1,5,0,1,3,1056,
scooby_state_47d5c0|25|0 711,0,1,17,7,9,19,14,11,16,16,59,18,0,41,939,
scooby_state_550140|5|0 54,17,102,33,33,24,35,33,25,35,31,36,25,291,49,823,
scooby_state_400580|22|0 202,350,12,19,6,15,20,17,14,16,17,21,15,16,28,768,
scooby_state_4c2586|22|0 311,17,28,35,37,30,41,38,39,30,40,0,35,25,60,766,
scooby_state_410598|22|0 299,0,3,8,0,15,18,9,2,9,7,23,17,332,19,761,
scooby_state_400580|2|0 199,305,13,16,6,13,13,13,13,16,15,18,14,12,27,693,
scooby_state_444140|5|0 105,41,39,43,30,42,42,44,44,47,43,4,43,27,92,686,
scooby_state_624580|22|0 394,54,18,19,11,15,21,19,21,24,17,11,16,2,40,682,
scooby_state_64e160|5|0 678,0,0,1,0,0,0,0,0,0,0,0,0,0,0,679,
scooby_state_621435|28|0 570,0,0,3,0,2,3,0,6,2,4,1,33,2,39,665,
scooby_state_445148|5|0 365,46,0,6,8,0,77,5,3,1,4,29,5,85,7,641,
scooby_state_47133d|19|0 596,10,0,0,1,0,1,0,0,0,0,1,1,0,1,611,
scooby_state_41cc4f|4|0 42,1,1,2,13,2,3,3,3,5,3,86,7,1,434,606,
scooby_state_47133d|26|0 585,13,0,0,2,0,0,0,0,0,2,0,1,0,2,605,
scooby_state_55b7b0|33|0 210,33,30,31,29,28,30,28,30,27,22,3,27,17,58,603,
scooby_state_47133d|34|0 568,11,0,2,0,1,0,0,0,0,1,1,1,0,0,585,
scooby_state_43b438|51|0 166,22,28,37,22,43,25,20,16,18,18,54,30,18,47,564,
scooby_state_47133d|27|0 544,7,0,0,0,1,2,0,1,1,0,0,0,0,1,557,
scooby_state_63fb0d|7|0 352,5,48,5,11,8,13,9,8,13,11,39,7,10,17,556,
scooby_state_47133d|17|0 535,6,0,1,0,0,1,0,1,0,0,1,1,1,0,547,
scooby_state_4e9fc4|60|0 539,1,0,0,2,0,0,1,0,1,0,2,1,0,0,547,
scooby_state_55003d|4|0 534,9,0,0,0,0,0,0,0,0,0,0,0,0,0,543,
scooby_state_47133d|18|0 520,12,1,1,2,2,0,0,0,0,1,0,1,0,0,540,
scooby_state_416eb9|11|0 267,67,74,17,7,8,7,11,7,8,12,5,18,12,10,530,
scooby_state_47133d|22|0 511,5,1,3,0,0,0,0,0,0,0,2,4,1,1,528,
scooby_state_416e91|61|0 77,11,8,13,13,19,13,15,5,14,12,98,23,1,203,525,
scooby_state_623f20|33|0 344,19,5,5,48,12,7,11,14,11,7,19,8,8,6,524,
scooby_state_444197|2|0 261,15,16,21,14,18,16,20,16,16,17,13,16,14,49,522,
scooby_state_47133d|21|0 509,2,2,0,0,1,0,0,1,0,1,1,2,0,1,520,
scooby_state_47133d|29|0 504,9,0,0,0,0,0,0,0,0,0,0,0,1,3,517,
scooby_state_47133d|47|0 495,8,0,2,0,3,1,0,0,1,2,0,2,1,1,516,
scooby_state_47133d|8|0 489,10,0,0,0,2,1,0,1,0,1,1,0,1,2,508,
scooby_state_400640|3|0 235,2,29,20,24,20,19,21,8,23,24,10,26,5,40,506,
scooby_state_47133d|16|0 486,8,0,1,1,1,2,0,1,0,1,0,0,0,0,501,
scooby_state_47133d|7|0 479,12,1,1,0,3,0,0,0,0,0,0,1,0,1,498,
scooby_state_47133d|10|0 458,19,2,2,0,3,2,1,2,1,1,0,1,2,0,494,
scooby_state_47133d|6|0 470,13,0,0,1,2,0,0,0,1,0,2,1,0,1,491,
scooby_state_47133d|52|0 472,10,0,1,1,1,1,1,0,0,1,0,0,0,0,488,
scooby_state_47133d|12|0 465,12,1,1,1,0,2,0,1,0,1,0,1,2,1,488,
scooby_state_47133d|9|0 462,12,0,3,1,2,0,0,0,0,1,1,0,0,2,484,
scooby_state_47133d|1|0 467,8,0,1,0,1,1,1,0,0,0,1,0,0,0,480,
scooby_state_47133d|23|0 460,8,0,0,0,0,2,0,1,1,0,2,1,3,0,478,
scooby_state_47133d|2|0 457,10,0,0,0,0,1,2,1,1,0,0,1,2,2,477,
scooby_state_47133d|4|0 462,8,1,0,0,0,2,0,1,0,0,1,0,0,0,475,
scooby_state_624580|23|0 258,40,15,14,11,14,12,14,9,18,12,10,14,0,33,474,
scooby_state_47e5a0|22|0 137,0,5,20,26,21,19,25,19,19,22,87,27,6,38,471,
scooby_state_47d596|22|0 305,12,6,13,1,9,9,8,11,14,14,32,10,17,9,470,
scooby_state_47133d|20|0 458,7,1,0,0,1,0,0,0,0,1,1,0,0,1,470,
scooby_state_47133d|14|0 445,12,0,0,2,1,1,0,1,0,1,0,0,0,0,463,
scooby_state_55b6eb|58|0 301,12,9,12,7,10,10,9,6,5,9,43,5,4,20,462,
scooby_state_47133d|37|0 448,10,1,0,0,0,0,2,0,0,0,0,0,0,0,461,
scooby_state_4ea048|61|1 47,20,30,7,7,10,6,5,5,5,7,6,14,257,35,461,
scooby_state_55b745|4|0 6,155,120,16,14,12,12,23,24,14,19,16,12,0,16,459,
scooby_state_47133d|28|0 441,10,2,2,1,1,0,0,0,1,0,0,0,0,1,459,
scooby_state_47133d|3|0 442,6,0,1,0,3,0,0,0,1,2,2,0,0,0,457,
scooby_state_47133d|11|0 437,11,1,0,1,1,1,0,1,1,0,0,0,0,0,454,
scooby_state_55bb13|49|0 381,2,0,1,3,0,1,3,3,0,1,53,1,3,1,453,
scooby_state_54fff8|3|0 417,2,0,0,0,0,0,0,0,0,0,2,0,28,1,450,
scooby_state_47133d|36|0 437,7,0,0,0,0,0,0,0,1,1,0,0,1,2,449,
scooby_state_47133d|15|0 432,9,0,1,0,1,0,0,0,0,1,0,0,1,2,447,
scooby_state_47133d|24|0 436,5,0,0,0,0,1,0,0,0,0,0,0,1,0,443,
scooby_state_47133d|30|4 318,0,0,4,26,7,10,9,9,5,7,5,28,1,9,438,
scooby_state_55bb13|16|0 373,2,1,0,3,0,2,3,0,2,0,43,4,2,2,437,
scooby_state_47133d|13|0 427,6,1,2,0,0,0,0,0,0,0,1,0,0,0,437,
scooby_state_55bb13|27|0 363,0,1,2,1,0,2,3,0,2,0,58,2,0,2,436,
scooby_state_444028|56|0 6,389,2,3,4,14,3,1,1,1,2,0,4,0,4,434,
scooby_state_47133d|31|0 422,5,0,0,1,1,1,1,0,1,0,0,1,1,0,434,
scooby_state_47133d|53|0 420,6,0,0,1,3,1,0,0,0,1,0,0,0,0,432,
scooby_state_47133d|32|0 418,9,1,0,1,0,0,0,0,1,0,0,0,0,1,431,
scooby_state_555f8f|10|0 55,25,15,21,74,9,7,7,9,5,9,90,9,76,19,430,
scooby_state_47133d|51|0 416,6,0,0,0,1,1,0,1,0,1,1,1,1,0,429,
scooby_state_47e5da|24|0 191,4,0,0,5,2,0,1,0,2,6,14,0,204,0,429,
scooby_state_47133d|0|0 412,11,1,0,1,0,0,1,2,0,0,0,0,0,1,429,
scooby_state_47133d|54|0 411,11,0,0,1,0,1,0,0,1,1,0,0,0,1,427,
scooby_state_55bb13|48|0 365,0,0,3,2,2,1,4,1,3,1,40,0,3,1,426,
scooby_state_47133d|5|0 413,5,0,0,3,0,0,0,1,0,1,0,0,1,0,424,
scooby_state_47133d|25|0 405,12,0,0,0,2,0,0,0,0,0,0,0,4,0,423,
scooby_state_4ea019|4|1 33,385,0,0,0,0,1,0,0,0,0,0,1,0,0,420,
scooby_state_550075|18|15 78,157,86,3,3,0,2,3,3,0,0,18,5,1,61,420,
scooby_state_43b43b|54|48 159,8,5,17,1,9,13,10,38,12,9,31,13,40,54,419,
scooby_state_55bb13|7|0 352,3,1,2,2,3,2,2,2,1,1,47,0,0,0,418,
scooby_state_55bb13|54|0 351,1,4,1,0,2,2,4,2,1,1,44,1,1,2,417,
scooby_state_4ea019|61|1 29,387,0,0,0,0,0,0,0,0,0,0,0,0,1,417,
scooby_state_55bb13|26|0 355,0,0,1,4,0,3,1,1,4,0,43,0,3,0,415,
scooby_state_55b6fe|25|-1 7,43,0,0,0,0,2,1,1,1,1,0,3,355,0,414,
scooby_state_4ea019|43|1 31,381,0,0,0,0,0,0,0,0,0,1,0,0,0,413,
scooby_state_55bb13|39|0 340,2,2,3,1,1,1,0,0,3,1,53,2,3,1,413,
scooby_state_55bb13|45|0 351,1,1,2,1,1,3,0,3,1,2,46,0,0,1,413,
scooby_state_55bb13|32|0 342,4,4,0,1,1,1,1,0,2,1,55,0,0,1,413,
scooby_state_622002|0|0 212,5,8,7,8,10,6,3,23,13,6,1,8,12,90,412,
scooby_state_55bb13|19|0 345,2,3,0,0,3,0,1,1,2,3,45,2,3,2,412,
scooby_state_55bb13|50|0 346,1,1,1,3,2,2,2,1,1,0,44,2,2,3,411,
scooby_state_55bb13|28|0 330,1,1,1,3,1,3,3,1,1,1,60,1,3,1,411,
scooby_state_47133d|62|0 390,10,0,1,3,1,1,0,1,1,0,0,1,1,1,411,
scooby_state_54ff8c|12|-13 95,143,10,11,20,50,1,8,1,1,0,6,2,7,56,411,
scooby_state_556027|0|0 104,289,3,2,3,1,1,1,1,2,2,0,1,0,1,411,
scooby_state_55bb13|1|0 348,2,2,1,3,2,1,1,3,1,0,43,1,1,2,411,
scooby_state_55bb13|56|0 347,1,3,3,2,1,0,1,0,0,2,47,2,1,1,411,
scooby_state_47135d|63|0 405,2,0,1,0,0,0,1,0,1,0,0,0,0,1,411,
scooby_state_47133d|30|0 400,2,0,0,0,1,1,2,1,0,1,1,0,0,1,410,
scooby_state_47133d|46|0 387,14,0,0,0,0,0,2,0,1,2,2,0,1,1,410,
scooby_state_63e5fa|46|-1 133,28,6,31,26,26,30,14,15,15,16,15,25,1,29,410,
scooby_state_47133d|38|0 393,5,1,1,1,2,0,0,1,0,1,2,0,1,1,409,
scooby_state_621e83|59|0 158,1,12,16,8,14,11,17,15,12,12,23,10,61,39,409,
scooby_state_54f002|0|0 339,0,1,0,59,0,1,2,1,0,0,0,1,5,0,409,
scooby_state_55bb13|33|0 344,0,1,2,2,2,1,2,1,2,2,44,2,0,3,408,
scooby_state_549030|0|0 261,15,12,7,2,14,8,10,8,9,12,30,4,0,16,408,
scooby_state_55bb13|57|0 348,2,2,0,1,1,0,2,1,0,1,46,1,1,1,407,
scooby_state_55bb13|14|0 350,2,1,1,0,1,1,3,0,0,3,38,2,1,3,406,
scooby_state_55bb13|46|0 339,3,3,2,0,0,2,3,1,2,0,47,2,0,2,406,
scooby_state_55bb13|2|0 340,1,4,0,1,1,2,0,3,0,0,49,0,2,1,404,
scooby_state_55bb13|37|0 338,4,3,2,3,0,4,0,2,0,3,43,1,0,0,403,
scooby_state_55bb13|62|0 339,4,0,0,0,0,1,3,3,1,1,46,2,0,3,403,
scooby_state_4ea019|25|1 35,368,0,0,0,0,0,0,0,0,0,0,0,0,0,403,
scooby_state_471359|63|0 387,3,1,0,1,1,1,3,3,0,0,0,1,1,0,402,
scooby_state_55bb13|43|0 342,2,3,2,2,1,0,2,0,0,0,46,2,0,0,402,
scooby_state_55bb13|38|0 341,2,3,4,1,1,1,1,1,4,1,36,1,2,3,402,
scooby_state_4ea019|11|1 30,371,0,0,0,0,0,0,0,0,0,0,0,0,0,401,
scooby_state_55bb13|20|0 337,1,1,2,1,2,2,1,1,1,9,39,3,1,0,401,
scooby_state_4ea019|39|1 35,366,0,0,0,0,0,0,0,0,0,0,0,0,0,401,
scooby_state_47133d|46|12 307,23,0,0,0,1,0,1,1,0,1,0,0,66,0,400,
scooby_state_47133d|33|0 384,7,1,0,1,0,1,0,1,1,0,1,2,0,1,400,
scooby_state_55bb13|15|0 346,1,2,2,0,0,0,2,1,0,0,44,0,1,1,400,
scooby_state_55bb13|23|0 340,0,5,1,2,1,1,1,0,1,1,43,1,1,1,399,
scooby_state_54fefc|0|0 396,0,0,0,1,0,0,0,1,0,0,0,0,0,0,398,
scooby_state_55bb13|53|0 325,2,0,1,1,2,1,4,3,2,1,51,0,2,1,396,
scooby_state_54fefc|7|0 394,2,0,0,0,0,0,0,0,0,0,0,0,0,0,396,
scooby_state_55bb13|58|0 330,0,2,2,2,2,3,1,0,1,1,47,2,1,2,396,
scooby_state_55bb13|6|0 324,0,3,1,1,3,0,0,2,3,0,53,3,1,1,395,
scooby_state_47133d|61|0 377,10,0,1,1,1,0,0,0,2,0,0,0,0,2,394,
scooby_state_55bb13|17|0 332,1,1,2,1,1,2,1,0,0,0,45,2,1,4,393,
scooby_state_55bb13|51|0 320,0,1,1,2,3,1,3,1,0,3,52,2,1,3,393,
scooby_state_4ea0c7|6|0 1,0,1,1,0,1,1,1,1,1,0,0,0,383,0,391,
scooby_state_550ff8|47|1 390,0,0,0,0,0,0,0,0,0,0,0,0,0,0,390,
scooby_state_4ea019|22|1 34,355,0,0,0,0,0,0,0,0,0,0,0,0,0,389,
scooby_state_54fe9b|1|0 388,0,1,0,0,0,0,0,0,0,0,0,0,0,0,389,
scooby_state_550ff8|62|1 388,0,0,0,0,0,0,0,0,0,0,0,0,0,0,388,
scooby_state_550ff8|54|1 388,0,0,0,0,0,0,0,0,0,0,0,0,0,0,388,
scooby_state_55bb13|12|0 323,2,1,1,1,1,1,2,0,2,3,43,3,3,1,387,
scooby_state_55bb13|55|0 314,1,1,2,2,2,3,0,1,0,0,58,0,1,2,387,
scooby_state_55bb13|61|0 320,0,2,3,3,0,3,2,0,4,1,43,0,4,1,386,
scooby_state_55bb13|8|0 317,2,4,1,1,1,1,3,2,0,0,49,1,2,2,386,
scooby_state_55bb13|63|0 319,4,1,0,2,0,0,2,1,0,1,47,6,2,0,385,
scooby_state_55bb13|11|0 324,2,1,0,0,4,3,0,1,1,1,44,3,1,0,385,
scooby_state_55b1e5|39|0 2,71,21,23,1,16,20,22,17,12,13,23,21,0,123,385,
scooby_state_55bb13|41|0 323,2,0,0,1,0,0,1,1,2,1,47,2,3,1,384,
scooby_state_55bb13|3|0 305,1,1,1,0,2,2,3,3,0,2,59,0,1,2,382,
scooby_state_55bb13|44|0 304,2,2,2,1,2,0,0,1,1,4,61,1,0,1,382,
scooby_state_4ea019|36|1 30,351,0,0,0,0,0,0,0,0,0,0,0,0,0,381,
scooby_state_55bb13|30|0 314,1,2,2,1,3,2,2,2,2,1,46,1,1,1,381,
scooby_state_55bb13|47|0 308,0,1,2,0,1,3,0,0,0,3,59,1,1,2,381,
scooby_state_55bb13|29|0 300,0,2,0,0,2,0,0,1,1,3,62,3,3,3,380,
scooby_state_55bb13|4|0 317,1,3,1,6,0,0,1,1,2,1,44,3,0,0,380,
scooby_state_55bb13|21|0 323,0,1,3,0,1,2,1,1,2,1,43,0,2,0,380,
scooby_state_55bb13|24|0 326,0,0,3,1,1,0,2,1,3,0,36,5,2,0,380,
scooby_state_4ea019|50|1 31,346,0,0,0,0,0,1,0,0,0,0,0,1,0,379,
scooby_state_47133d|40|0 364,7,0,0,0,0,0,1,0,3,0,0,0,0,3,378,
scooby_state_55bb13|22|0 308,1,1,2,4,2,1,1,3,3,2,43,1,2,3,377,
scooby_state_4ea019|58|1 30,346,0,0,0,0,0,0,1,0,0,0,0,0,0,377,
scooby_state_4ea019|7|1 23,352,0,0,0,1,0,0,0,0,0,0,0,0,0,376,
scooby_state_550ff8|63|1 376,0,0,0,0,0,0,0,0,0,0,0,0,0,0,376,
scooby_state_47133d|42|0 363,10,0,0,1,0,0,0,2,0,0,0,0,0,0,376,
scooby_state_4ea019|46|1 23,353,0,0,0,0,0,0,0,0,0,0,0,0,0,376,
scooby_state_55bb13|59|0 309,0,0,1,1,1,3,0,2,0,2,51,1,1,4,376,
scooby_state_55bb13|31|0 324,0,1,0,1,0,1,1,0,2,0,40,2,1,2,375,
scooby_state_55bb13|13|0 319,1,1,1,0,2,1,0,2,3,3,39,1,1,1,375,
scooby_state_4ea019|15|1 35,340,0,0,0,0,0,0,0,0,0,0,0,0,0,375,
scooby_state_4ea019|16|1 29,345,0,0,0,0,0,0,0,0,0,0,0,0,0,374,
scooby_state_54fefc|9|0 371,1,0,1,0,0,0,0,0,0,0,1,0,0,0,374,
scooby_state_4ea019|52|1 38,334,0,0,0,0,0,0,0,1,0,0,0,0,0,373,
scooby_state_47133d|45|0 359,4,2,1,1,0,1,0,0,1,0,1,2,1,0,373,
scooby_state_550ff8|53|1 372,0,0,0,0,0,0,0,0,0,0,0,0,0,0,372,
scooby_state_47133d|63|0 362,7,0,0,0,0,0,1,0,0,0,0,0,0,1,371,
scooby_state_55bb13|60|0 305,2,2,4,0,4,1,1,2,2,2,41,1,3,1,371,
scooby_state_4ea019|8|1 26,345,0,0,0,0,0,0,0,0,0,0,0,0,0,371,
scooby_state_55bb13|5|0 309,1,0,3,1,1,2,2,5,3,3,38,0,2,1,371,
scooby_state_47133d|49|0 364,2,0,0,0,0,1,0,0,1,1,0,0,0,1,370,
scooby_state_4ea019|45|1 37,333,0,0,0,0,0,0,0,0,0,0,0,0,0,370,
scooby_state_4ea019|30|1 26,343,0,1,0,0,0,0,0,0,0,0,0,0,0,370,
scooby_state_4ea019|34|1 26,340,1,0,0,0,0,0,1,1,0,0,0,0,0,369,
scooby_state_55bb13|9|0 317,0,0,2,3,0,1,2,0,0,0,40,0,1,3,369,
scooby_state_550ff8|57|1 367,1,0,0,0,1,0,0,0,0,0,0,0,0,0,369,
scooby_state_55bb13|0|0 304,1,0,2,0,1,0,0,1,2,0,50,3,1,3,368,
scooby_state_4ea019|54|1 32,334,0,0,0,0,0,0,0,0,0,0,0,0,1,367,
scooby_state_550ff8|49|1 366,0,1,0,0,0,0,0,0,0,0,0,0,0,0,367,
scooby_state_54fefc|6|0 363,2,0,0,0,0,0,0,0,0,1,0,0,0,0,366,
scooby_state_620a3f|55|0 87,8,8,11,14,14,15,13,11,8,12,129,16,0,20,366,
scooby_state_55bb13|52|0 318,2,0,0,1,0,2,0,4,2,2,34,1,0,0,366,
scooby_state_4ea019|31|1 28,335,0,0,1,0,0,0,0,0,0,0,0,1,0,365,
scooby_state_47133d|35|0 350,7,0,0,1,1,0,0,2,1,1,0,0,0,2,365,
scooby_state_54fefc|11|0 361,2,0,0,0,0,0,0,0,0,0,0,1,1,0,365,
scooby_state_54fefc|15|0 361,2,0,0,0,0,0,0,0,0,1,0,0,0,0,364,
scooby_state_54fefc|14|0 360,3,0,0,0,0,0,0,0,0,0,0,0,1,0,364,
scooby_state_47133d|41|0 355,4,1,0,1,0,0,0,0,0,1,0,0,1,1,364,
scooby_state_55bb13|40|0 297,5,0,1,2,2,3,1,3,2,3,40,1,2,1,363,
scooby_state_55bb13|25|0 303,5,1,1,1,0,2,0,4,1,1,37,1,4,2,363,
scooby_state_4ea019|40|1 38,322,0,1,0,0,0,0,0,0,0,0,1,0,0,362,
scooby_state_4ea019|10|1 21,340,0,1,0,0,0,0,0,0,0,0,0,0,0,362,
scooby_state_4ea019|13|1 26,334,0,0,0,0,0,0,0,0,0,1,1,0,0,362,
scooby_state_4ea019|38|1 31,330,0,0,0,0,0,0,0,0,0,0,0,0,0,361,
scooby_state_47133d|39|0 352,5,0,0,0,0,0,1,0,0,0,0,0,1,2,361,
scooby_state_4ea019|14|1 26,334,0,0,0,0,0,0,0,0,0,0,0,0,0,360,
scooby_state_4ea019|21|1 36,323,0,0,0,0,0,0,0,0,0,0,1,0,0,360,
scooby_state_47133d|38|8 279,16,6,8,6,5,3,6,6,4,3,8,7,0,3,360,
scooby_state_54fefc|2|0 358,2,0,0,0,0,0,0,0,0,0,0,0,0,0,360,
scooby_state_47133d|43|0 343,13,0,0,0,1,1,0,1,1,0,0,0,0,0,360,
scooby_state_4ea019|6|1 30,329,0,0,0,0,0,0,0,0,0,0,0,0,0,359,
scooby_state_471359|3|-1 338,2,1,2,0,1,2,1,2,1,0,4,2,0,2,358,
scooby_state_55bb13|34|0 299,0,1,2,1,2,0,2,2,1,0,46,1,0,1,358,
scooby_state_47133d|32|5 276,7,3,4,7,17,5,3,6,7,4,8,3,0,8,358,
scooby_state_471359|55|-1 347,0,2,1,1,0,1,0,1,0,0,0,0,1,3,357,
scooby_state_4ea019|27|1 23,332,0,0,0,1,0,0,0,0,0,0,0,0,0,356,
scooby_state_550ff8|52|1 354,0,0,0,1,0,0,0,0,0,0,0,0,0,0,355,
scooby_state_4ea019|32|1 33,322,0,0,0,0,0,0,0,0,0,0,0,0,0,355,
scooby_state_4ea019|2|1 40,314,0,0,0,0,0,0,0,0,0,0,0,0,0,354,
scooby_state_55bb13|35|0 291,0,1,1,0,1,4,0,2,2,1,48,0,0,3,354,
scooby_state_4ea019|37|1 42,311,0,0,0,0,0,0,0,0,0,0,0,0,0,353,
scooby_state_54fefc|17|0 350,2,0,0,0,0,0,0,0,0,0,0,0,0,0,352,
scooby_state_4ea019|24|1 39,313,0,0,0,0,0,0,0,0,0,0,0,0,0,352,
scooby_state_47133d|50|0 338,7,0,0,1,2,1,1,1,0,0,1,0,0,0,352,
scooby_state_4ea019|48|1 29,322,0,0,0,0,0,0,1,0,0,0,0,0,0,352,
scooby_state_4ea019|29|1 40,310,0,0,0,0,0,0,0,2,0,0,0,0,0,352,
scooby_state_47133d|56|0 339,9,0,0,0,0,0,1,1,0,0,0,0,1,1,352,
scooby_state_4441eb|4|0 1,334,2,1,3,1,1,2,0,1,1,1,3,1,0,352,
scooby_state_54fefc|5|0 350,1,0,0,0,0,1,0,0,0,0,0,0,0,0,352,
scooby_state_4ea019|20|1 29,322,0,0,0,0,0,0,0,0,0,0,0,0,0,351,
scooby_state_550ff8|60|1 351,0,0,0,0,0,0,0,0,0,0,0,0,0,0,351,
scooby_state_55bb13|42|0 293,0,0,0,1,2,0,0,2,0,1,45,4,2,1,351,
scooby_state_47133d|42|10 256,12,9,8,8,10,4,4,5,6,5,1,6,10,7,351,
scooby_state_4ea019|51|1 30,320,0,0,0,0,0,0,0,0,1,0,0,0,0,351,
scooby_state_55bb13|18|0 288,2,3,1,1,5,1,1,0,3,1,41,2,2,0,351,
scooby_state_4ea019|19|1 25,323,0,0,0,0,0,0,0,1,0,0,0,1,0,350,
scooby_state_4ea019|57|1 23,326,0,0,0,0,0,0,0,0,0,0,0,0,0,349,
scooby_state_550ff8|44|-17 348,0,0,0,0,0,0,0,0,0,1,0,0,0,0,349,
scooby_state_47133d|44|0 338,7,0,0,0,0,0,2,0,1,0,0,1,0,0,349,
scooby_state_4ea019|47|1 33,314,0,0,0,0,0,0,0,0,0,1,0,0,0,348,
scooby_state_55bb13|10|0 293,1,1,2,2,1,0,0,3,1,1,42,0,0,0,347,
scooby_state_4ea019|9|1 30,317,0,0,0,0,0,0,0,0,0,0,0,0,0,347,
scooby_state_4ea019|18|1 31,316,0,0,0,0,0,0,0,0,0,0,0,0,0,347,
scooby_state_548420|16|0 126,5,0,8,0,13,9,4,2,2,6,26,9,103,34,347,
scooby_state_4ea019|28|1 35,311,0,0,0,1,0,0,0,0,0,0,0,0,0,347,
scooby_state_4ea019|33|1 29,318,0,0,0,0,0,0,0,0,0,0,0,0,0,347,
scooby_state_47135d|4|0 341,1,0,1,0,1,0,0,0,0,0,1,1,0,0,346,
scooby_state_4ea019|23|1 26,320,0,0,0,0,0,0,0,0,0,0,0,0,0,346,
scooby_state_4ea019|49|1 26,319,0,0,0,0,0,0,0,0,0,0,0,0,0,345,
scooby_state_4ea019|12|1 25,319,0,0,0,0,0,0,0,0,0,0,0,0,0,344,
scooby_state_47133d|59|0 334,5,1,0,1,0,0,0,0,1,0,0,1,0,1,344,
scooby_state_55b160|5|0 47,1,68,18,13,17,17,15,21,17,16,20,24,15,35,344,
scooby_state_54fefc|13|0 343,1,0,0,0,0,0,0,0,0,0,0,0,0,0,344,
scooby_state_550ff8|61|1 343,1,0,0,0,0,0,0,0,0,0,0,0,0,0,344,
scooby_state_4ea019|53|1 28,315,0,0,0,0,0,0,0,0,0,0,0,0,0,343,
scooby_state_47133d|48|0 325,12,1,1,0,1,0,1,1,0,0,0,0,0,1,343,
scooby_state_550ff8|58|1 343,0,0,0,0,0,0,0,0,0,0,0,0,0,0,343,
scooby_state_55bb13|36|0 279,1,1,3,0,2,1,1,0,2,3,45,0,3,1,342,
scooby_state_54fefc|12|0 340,1,0,0,0,0,0,0,0,0,0,0,0,0,0,341,
scooby_state_550ff8|51|1 341,0,0,0,0,0,0,0,0,0,0,0,0,0,0,341,
scooby_state_55b6eb|29|0 228,8,6,8,5,6,10,6,5,5,4,30,1,5,13,340,
scooby_state_4ea019|35|1 34,305,0,0,0,0,0,0,0,0,0,0,0,0,0,339,
scooby_state_4ea019|55|1 25,314,0,0,0,0,0,0,0,0,0,0,0,0,0,339,
scooby_state_471359|16|-1 330,1,1,0,0,0,0,0,1,0,2,1,0,0,3,339,
scooby_state_550ff8|2|-17 338,0,0,0,0,0,0,1,0,0,0,0,0,0,0,339,
scooby_state_62919a|25|12 59,1,5,24,19,23,22,24,21,23,18,12,27,22,38,338,
scooby_state_4ea019|42|1 34,304,0,0,0,0,0,0,0,0,0,0,0,0,0,338,
scooby_state_4ea019|60|1 34,304,0,0,0,0,0,0,0,0,0,0,0,0,0,338,
scooby_state_54fefc|16|0 337,0,0,0,0,0,0,0,0,0,0,0,0,0,0,337,
scooby_state_54fefc|61|18 333,1,1,0,0,0,0,0,0,0,0,0,0,0,1,336,
scooby_state_4ea019|26|1 35,299,0,1,0,0,0,0,0,0,0,0,0,0,0,335,
scooby_state_47133d|55|0 319,7,1,0,0,1,1,1,1,0,0,1,1,1,1,335,
scooby_state_623f09|52|-7 16,0,1,26,21,61,18,20,14,20,20,0,43,28,44,332,
scooby_state_41d1f7|10|0 97,52,0,3,0,5,0,0,0,0,0,175,0,0,0,332,
scooby_state_4ea019|62|1 30,301,0,0,0,0,0,0,1,0,0,0,0,0,0,332,
scooby_state_4ea019|5|1 28,302,0,0,0,0,0,0,0,0,0,0,0,1,0,331,
scooby_state_4ea019|3|1 30,300,0,0,0,0,0,0,0,0,0,1,0,0,0,331,
scooby_state_54fe9b|0|0 330,0,0,0,0,0,0,0,0,1,0,0,0,0,0,331,
scooby_state_550ff8|7|-17 329,0,0,0,1,0,0,0,0,0,0,0,0,0,0,330,
scooby_state_433f36|60|0 0,0,0,1,1,1,0,0,1,0,0,1,0,325,0,330,
scooby_state_471359|46|-1 321,0,0,2,0,1,0,1,1,1,0,1,0,1,1,330,
scooby_state_471359|42|-1 318,1,1,0,1,0,1,1,0,1,1,2,1,0,0,328,
scooby_state_5432c8|2|0 128,172,1,0,12,0,2,1,5,0,4,1,0,0,2,328,
scooby_state_550ff8|8|-17 328,0,0,0,0,0,0,0,0,0,0,0,0,0,0,328,
scooby_state_4ea019|56|1 25,303,0,0,0,0,0,0,0,0,0,0,0,0,0,328,
scooby_state_550ff8|48|1 327,0,0,0,0,0,0,0,0,0,0,0,0,0,0,327,
scooby_state_4ea019|1|1 26,301,0,0,0,0,0,0,0,0,0,0,0,0,0,327,
scooby_state_4ea019|59|1 25,298,0,0,0,0,1,0,0,0,0,0,0,0,0,324,
scooby_state_54fefc|19|18 321,0,0,0,0,0,0,0,0,0,1,0,0,1,1,324,
scooby_state_47133d|58|0 310,8,0,0,1,1,0,2,0,1,0,0,0,0,1,324,
scooby_state_506f20|60|0 28,8,12,14,32,13,16,14,58,14,14,46,16,5,33,323,
scooby_state_4ea019|63|1 23,300,0,0,0,0,0,0,0,0,0,0,0,0,0,323,
scooby_state_550ff8|56|1 322,0,0,0,0,0,0,0,0,0,0,0,0,0,0,322,
scooby_state_550191|6|1 78,0,0,1,80,0,0,1,0,0,0,154,1,0,7,322,
scooby_state_471359|27|-1 308,1,1,1,2,0,0,1,0,0,0,2,2,2,0,320,
scooby_state_4ebfa0|19|0 3,1,18,10,8,8,4,3,12,7,5,0,16,0,225,320,
scooby_state_550ff8|24|-17 318,0,0,0,0,0,0,0,2,0,0,0,0,0,0,320,
scooby_state_5432c8|6|0 119,174,2,1,11,0,0,1,2,0,2,1,1,0,6,320,
scooby_state_47133d|36|7 264,2,9,4,2,8,11,0,4,3,3,0,4,0,6,320,
scooby_state_550ff8|55|1 318,0,1,0,0,0,0,0,0,0,0,0,0,0,0,319,
scooby_state_550ff8|15|-17 317,0,0,0,0,0,0,0,1,0,0,0,0,1,0,319,
scooby_state_47133d|60|0 307,3,1,0,0,2,1,0,0,0,2,1,0,0,0,317,
scooby_state_41cc81|0|0 59,258,0,0,0,0,0,0,0,0,0,0,0,0,0,317,
scooby_state_47133d|44|11 245,26,8,2,12,4,2,0,1,2,2,0,3,6,4,317,
scooby_state_55b745|4|-21 316,0,0,0,0,0,0,0,0,0,1,0,0,0,0,317,
scooby_state_550ff8|12|-17 314,0,0,0,0,0,0,0,1,1,0,0,0,0,0,316,
scooby_state_4ea019|41|1 24,291,0,0,0,0,0,0,0,0,1,0,0,0,0,316,
scooby_state_471359|53|-1 303,3,0,0,0,1,1,1,0,1,0,1,1,1,3,316,
scooby_state_47133d|57|0 303,6,0,3,0,0,0,0,0,1,0,0,0,0,2,315,
scooby_state_471359|25|-1 306,0,1,1,0,0,2,1,0,1,0,0,1,1,0,314,
scooby_state_41cc81|4|0 51,262,0,0,0,0,0,0,0,0,0,0,0,0,0,313,
scooby_state_471359|22|-1 304,1,0,2,0,1,0,1,0,1,0,0,3,0,0,313,
scooby_state_54fefc|24|18 310,0,1,0,0,0,1,0,0,0,0,1,0,0,0,313,
scooby_state_550ff8|41|-17 311,0,0,1,0,0,0,0,0,0,0,0,0,0,0,312,
scooby_state_5432c8|0|0 147,141,1,1,9,0,0,1,3,1,1,3,0,0,4,312,
scooby_state_550ff8|16|-17 310,0,0,0,0,0,0,0,0,2,0,0,0,0,0,312,
scooby_state_550ff8|59|1 308,0,1,0,1,0,0,0,0,0,0,1,0,0,0,311,
scooby_state_550ff8|26|-17 310,0,0,0,0,0,0,1,0,0,0,0,0,0,0,311,
scooby_state_54fefc|3|0 310,0,0,0,0,0,1,0,0,0,0,0,0,0,0,311,
scooby_state_54fefc|10|0 311,0,0,0,0,0,0,0,0,0,0,0,0,0,0,311,
scooby_state_471359|6|-1 296,0,2,1,1,0,2,2,1,2,0,2,0,1,0,310,
scooby_state_4ea019|44|1 25,284,0,0,0,0,0,0,0,0,0,1,0,0,0,310,
scooby_state_550ff8|34|-17 307,0,0,0,2,0,0,0,0,1,0,0,0,0,0,310,
scooby_state_471359|23|-1 301,0,0,0,1,0,2,1,1,0,0,2,0,1,1,310,
scooby_state_49c1b0|6|0 293,0,3,0,10,1,0,0,0,0,0,0,1,0,0,308,
scooby_state_54fefc|25|18 306,0,0,0,0,0,1,0,1,0,0,0,0,0,0,308,
scooby_state_550ff8|31|-17 305,0,0,1,1,0,0,0,0,0,0,1,0,0,0,308,
scooby_state_416eb9|8|0 151,36,44,8,4,4,5,7,7,10,5,4,11,5,6,307,
scooby_state_5432c8|1|0 136,143,0,0,10,0,1,1,9,1,0,1,0,2,3,307,
scooby_state_471359|33|-1 297,1,0,0,0,2,0,1,0,0,1,2,1,0,2,307,
scooby_state_5432c8|4|0 124,153,1,0,14,4,0,1,4,0,1,0,0,1,3,306,
scooby_state_54fefc|1|0 304,1,0,0,0,0,0,0,0,0,0,0,0,1,0,306,
scooby_state_471359|52|-1 299,0,1,1,1,0,1,0,0,0,0,0,0,1,1,305,
scooby_state_471359|26|-1 285,3,0,2,1,4,0,1,1,1,1,2,1,0,1,303,
scooby_state_550ff8|35|-17 302,0,0,0,0,0,0,0,0,0,1,0,0,0,0,303,
scooby_state_471359|0|-1 292,0,2,1,2,2,0,0,0,1,0,1,0,0,1,302,
scooby_state_54fefc|43|18 299,0,0,1,0,0,0,0,0,0,0,0,1,1,0,302,
scooby_state_550ff8|18|-17 300,0,0,0,1,0,0,0,0,1,0,0,0,0,0,302,
scooby_state_54fefc|58|18 300,0,1,0,0,0,0,0,0,0,0,0,0,0,0,301,
scooby_state_55b1c0|26|11 1,1,4,6,0,7,5,11,6,8,7,2,1,228,13,300,
scooby_state_54fefc|29|18 295,0,0,0,0,1,0,1,0,0,0,0,1,2,0,300,
scooby_state_54fefc|32|18 298,0,1,0,0,1,0,0,0,0,0,0,0,0,0,300,
scooby_state_471359|50|-1 287,1,1,1,1,2,0,2,0,1,1,1,2,0,0,300,
scooby_state_550ff8|40|-17 296,0,0,1,1,0,0,0,1,1,0,0,0,0,0,300,
scooby_state_550ff8|28|-17 299,0,0,0,0,0,0,0,0,1,0,0,0,0,0,300,
scooby_state_550ff8|29|-17 299,0,0,0,1,0,0,0,0,0,0,0,0,0,0,300,
scooby_state_54fefc|41|18 297,0,0,1,0,0,0,0,1,0,0,0,0,0,0,299,
scooby_state_550ff8|38|-17 298,0,0,0,0,0,0,0,0,0,0,0,0,0,0,298,
scooby_state_550ff8|32|-17 297,0,0,0,0,0,0,0,0,0,1,0,0,0,0,298,
scooby_state_471359|38|-1 290,0,0,1,1,0,0,0,1,0,1,0,0,0,3,297,
scooby_state_54fefc|51|18 292,1,0,0,1,0,1,0,0,0,0,1,0,1,0,297,
scooby_state_471359|49|-1 290,0,1,0,2,1,2,0,0,0,0,0,1,0,0,297,
scooby_state_550ff8|5|-17 294,0,0,1,0,0,1,0,0,1,0,0,0,0,0,297,
scooby_state_47135d|26|0 293,0,0,0,1,0,0,2,0,0,0,0,1,0,0,297,
scooby_state_5432c8|5|0 130,142,1,0,6,1,1,4,4,1,1,3,0,0,2,296,
scooby_state_556420|16|16 44,2,176,3,3,14,4,3,4,2,1,32,0,1,7,296,
scooby_state_550ff8|22|-17 292,0,0,0,1,0,0,2,0,0,0,0,0,0,0,295,
scooby_state_47133d|40|9 222,5,13,1,4,9,5,3,12,4,4,0,7,3,3,295,
scooby_state_550ff8|9|-17 291,0,0,1,0,0,0,0,1,0,0,0,1,0,0,294,
scooby_state_54fefc|33|18 290,0,0,0,0,0,1,0,1,0,0,0,1,0,1,294,
scooby_state_550ff8|6|-17 290,0,0,0,2,0,0,0,1,1,0,0,0,0,0,294,
scooby_state_471359|59|-1 289,0,0,0,0,0,0,0,1,0,0,1,0,1,2,294,
scooby_state_471359|35|-1 290,0,0,0,0,0,0,1,1,0,0,0,1,1,0,294,
scooby_state_445142|5|0 5,0,0,0,0,0,0,0,0,0,0,33,12,242,1,293,
scooby_state_41cc81|1|0 47,245,0,0,0,0,0,0,0,0,0,0,1,0,0,293,
scooby_state_4ea019|17|1 34,258,0,0,0,0,0,0,0,0,0,0,0,0,0,292,
scooby_state_550ff8|10|-17 288,0,0,1,1,0,0,0,1,1,0,0,0,0,0,292,
scooby_state_471359|47|-1 280,0,3,1,1,0,0,1,0,1,1,1,1,1,1,292,
scooby_state_471359|4|-1 285,2,0,0,1,1,0,0,0,0,0,1,1,1,0,292,
scooby_state_471359|9|-1 285,1,0,0,0,0,0,1,0,1,0,1,0,2,0,291,
scooby_state_550ff8|46|-17 287,0,0,0,2,0,0,1,0,1,0,0,0,0,0,291,
scooby_state_54fefc|8|0 289,1,1,0,0,0,0,0,0,0,0,0,0,0,0,291,
scooby_state_471359|2|-1 283,1,1,1,1,2,0,1,0,1,0,0,0,0,0,291,
scooby_state_471359|39|-1 282,0,0,1,0,1,1,0,0,0,0,1,3,0,2,291,
scooby_state_4117af|10|-2 3,0,1,0,1,0,0,1,0,0,0,278,0,5,1,290,
scooby_state_54fefc|22|18 283,0,2,0,0,0,0,1,0,1,0,0,1,0,2,290,
scooby_state_54fefc|52|18 284,1,1,0,0,1,0,0,0,0,0,2,0,0,0,289,
scooby_state_41cc81|3|0 44,245,0,0,0,0,0,0,0,0,0,0,0,0,0,289,
scooby_state_64e150|5|0 1,0,0,28,9,11,30,31,27,43,19,7,22,15,46,289,
scooby_state_550ff8|4|-17 286,0,0,0,0,0,0,0,1,0,0,0,0,0,1,288,
scooby_state_620961|24|0 123,1,9,23,2,34,17,14,10,5,12,7,20,0,11,288,
scooby_state_47135d|56|0 284,0,0,0,0,0,0,0,1,0,1,1,0,0,0,287,
scooby_state_471359|31|-1 278,1,0,0,1,1,0,1,0,0,0,2,1,0,2,287,
scooby_state_54fefc|48|18 284,0,0,0,0,0,1,0,0,1,1,0,0,0,0,287,
scooby_state_63e5f6|6|2 270,9,1,0,0,0,0,1,2,0,0,0,0,4,0,287,
scooby_state_54fefc|4|0 284,2,0,0,0,0,0,0,0,0,0,0,0,0,0,286,
scooby_state_54fefc|35|18 286,0,0,0,0,0,0,0,0,0,0,0,0,0,0,286,
scooby_state_471359|45|-1 281,2,0,0,0,1,0,0,1,0,0,1,0,0,0,286,
scooby_state_41cc81|2|0 47,238,0,0,1,0,0,0,0,0,0,0,0,0,0,286,
scooby_state_54fefc|57|18 278,0,0,1,2,0,0,0,0,0,0,1,1,1,1,285,
scooby_state_54fefc|55|18 281,0,0,0,0,0,0,0,0,0,0,0,0,2,1,284,
scooby_state_550ff8|39|-17 282,0,0,0,1,0,0,0,0,0,0,0,1,0,0,284,
scooby_state_471359|18|-1 276,0,1,0,2,0,1,0,1,0,0,0,2,1,0,284,
scooby_state_54fefc|46|18 282,0,0,0,0,0,0,0,0,0,0,0,0,1,0,283,
scooby_state_54fefc|45|18 283,0,0,0,0,0,0,0,0,0,0,0,0,0,0,283,
scooby_state_5432c8|7|0 138,125,0,0,10,0,1,1,3,1,0,0,1,1,2,283,
scooby_state_471359|36|-1 274,1,1,0,1,0,1,1,1,0,0,1,0,0,2,283,
scooby_state_471359|32|-1 279,0,1,0,0,0,0,0,0,0,0,1,0,1,1,283,
scooby_state_471359|10|-1 265,0,2,0,3,1,1,1,0,1,1,1,1,2,1,280,
scooby_state_471359|5|-1 270,1,0,2,0,0,1,1,0,0,0,1,1,0,3,280,
scooby_state_471359|12|-1 278,0,0,0,0,0,0,0,0,0,0,0,1,0,0,279,
scooby_state_550ff8|17|-17 279,0,0,0,0,0,0,0,0,0,0,0,0,0,0,279,
scooby_state_471359|34|-1 273,0,0,1,0,0,0,2,0,1,0,0,1,0,1,279,
scooby_state_54fe9b|2|2 278,1,0,0,0,0,0,0,0,0,0,0,0,0,0,279,
scooby_state_471359|24|-1 268,0,1,0,0,0,1,0,1,1,0,4,1,1,0,278,
scooby_state_54fefc|39|18 273,0,1,0,0,0,1,1,0,0,1,0,1,0,0,278,
scooby_state_471359|17|-1 267,1,0,1,2,0,1,0,1,0,0,1,0,2,2,278,
scooby_state_471359|48|-1 266,1,2,0,2,0,0,0,0,1,1,1,0,1,2,277,
scooby_state_550ff8|3|-17 276,0,0,0,0,0,0,0,0,0,0,0,0,0,1,277,
scooby_state_50754a|3|2 46,2,0,1,4,36,9,2,0,5,3,57,27,47,38,277,
scooby_state_550ff8|21|-17 274,0,0,0,1,0,0,0,0,1,0,0,0,0,0,276,
scooby_state_54fefc|26|18 274,0,0,0,1,0,0,0,0,1,0,0,0,0,0,276,
scooby_state_54fefc|23|18 274,0,0,1,0,0,0,0,0,0,0,0,0,0,0,275,
scooby_state_550ff8|30|-17 270,0,0,0,1,0,1,1,0,0,1,0,0,0,0,274,
scooby_state_471359|19|-1 266,1,2,0,0,1,0,1,0,0,0,0,1,0,2,274,
scooby_state_471359|21|-1 272,0,0,1,0,0,0,0,0,0,0,0,0,0,1,274,
scooby_state_550ff8|36|-17 273,0,0,0,0,0,0,0,0,0,0,1,0,0,0,274,
scooby_state_54fefc|63|18 270,0,0,0,0,0,0,0,0,0,1,0,1,1,0,273,
scooby_state_54fefc|49|18 271,0,0,0,1,0,0,0,0,0,0,1,0,0,0,273,
scooby_state_550ff8|19|-17 271,0,0,0,2,0,0,0,0,0,0,0,0,0,0,273,
scooby_state_5432c8|8|0 107,144,1,1,8,2,1,1,4,0,1,1,0,1,1,273,
scooby_state_550ff8|33|-17 271,0,0,1,0,0,1,0,0,0,0,0,0,0,0,273,
scooby_state_550ff8|45|-17 270,0,1,0,0,0,0,0,0,0,1,0,0,0,0,272,
scooby_state_471359|1|-1 270,0,0,0,0,0,1,0,0,0,0,0,0,0,1,272,
scooby_state_5432c8|3|0 118,138,0,2,7,0,0,1,3,1,0,0,1,1,0,272,
scooby_state_507581|22|0 41,6,17,18,20,21,21,20,14,15,15,6,12,18,27,271,
scooby_state_55115d|5|0 136,0,5,9,17,8,9,2,7,1,9,33,4,0,31,271,
scooby_state_54fefc|27|18 269,0,0,0,0,0,0,0,0,1,0,0,0,0,0,270,
scooby_state_550ff8|50|1 270,0,0,0,0,0,0,0,0,0,0,0,0,0,0,270,
scooby_state_47135d|19|0 261,2,0,0,1,0,0,1,0,1,0,0,1,1,1,269,
scooby_state_54fefc|34|18 268,0,0,0,0,1,0,0,0,0,0,0,0,0,0,269,
scooby_state_471359|15|-1 262,1,1,1,0,0,0,0,0,0,0,1,0,1,0,267,
scooby_state_471359|60|-1 258,2,1,0,0,2,0,1,1,1,0,0,1,0,0,267,
scooby_state_471359|4|0 257,0,1,0,1,0,3,1,1,0,0,0,0,3,0,267,
scooby_state_550ff8|27|-17 266,0,0,0,0,1,0,0,0,0,0,0,0,0,0,267,
scooby_state_41cc81|11|0 42,225,0,0,0,0,0,0,0,0,0,0,0,0,0,267,
scooby_state_54fefc|21|18 264,0,1,1,1,0,0,0,0,0,0,0,0,0,0,267,
scooby_state_471359|56|-1 259,1,1,0,0,0,0,0,1,1,1,1,0,0,1,266,
scooby_state_54fefc|20|18 265,1,0,0,0,0,0,0,0,0,0,0,0,0,0,266,
scooby_state_550ff8|23|-17 263,0,0,1,0,1,0,0,0,0,0,0,0,0,0,265,
scooby_state_550ff8|13|-17 264,0,0,1,0,0,0,0,0,0,0,0,0,0,0,265,
scooby_state_471359|37|-1 258,0,1,0,0,0,0,1,0,0,1,1,2,0,0,264,
scooby_state_550ff8|43|-17 261,0,0,1,0,0,0,0,1,0,0,0,0,0,0,263,
scooby_state_621f26|60|0 176,5,5,0,44,1,2,0,3,4,2,0,5,0,16,263,
scooby_state_54fefc|56|18 259,1,0,0,0,0,0,1,0,0,0,0,0,2,0,263,
scooby_state_550ff8|1|-17 259,0,0,1,0,0,0,0,0,1,0,0,0,0,0,261,
scooby_state_41cc81|5|0 34,226,0,0,1,0,0,0,0,0,0,0,0,0,0,261,
scooby_state_471359|44|-1 253,1,0,1,1,0,0,3,0,0,0,0,0,0,2,261,
scooby_state_550ff8|20|-17 258,0,0,0,0,0,1,0,0,0,0,0,1,0,0,260,
scooby_state_41cc81|12|0 45,215,0,0,0,0,0,0,0,0,0,0,0,0,0,260,
scooby_state_471359|29|-1 251,1,0,1,2,0,1,0,0,0,1,1,0,0,1,259,
scooby_state_54fefc|36|18 256,0,0,0,0,0,0,0,0,0,0,0,0,2,0,258,
scooby_state_47133d|50|14 200,2,7,4,0,3,1,2,2,2,0,26,5,0,4,258,
scooby_state_545140|5|0 0,2,13,3,3,2,214,2,3,3,3,2,2,3,3,258,
scooby_state_54fefc|50|18 257,0,1,0,0,0,0,0,0,0,0,0,0,0,0,258,
scooby_state_54fefc|53|18 256,0,0,0,0,0,0,0,1,0,0,0,0,1,0,258,
scooby_state_47133d|52|15 191,0,1,6,2,0,6,2,3,6,3,9,6,3,20,258,
scooby_state_54fefc|38|18 250,1,0,0,1,1,0,1,0,0,2,0,1,0,0,257,
scooby_state_54fefc|44|18 254,0,0,0,0,1,0,1,0,0,0,0,0,1,0,257,
scooby_state_550ff8|25|-17 256,0,0,0,0,0,0,0,1,0,0,0,0,0,0,257,
scooby_state_471359|43|-1 248,1,0,0,1,1,0,1,0,1,2,1,1,0,0,257,
scooby_state_47133d|54|16 120,71,5,6,5,7,4,5,1,6,3,7,7,1,9,257,
scooby_state_4441eb|42|0 1,240,0,1,0,2,1,0,2,1,1,1,0,1,4,255,
scooby_state_55b6eb|4|0 187,5,2,7,8,2,4,1,3,4,3,11,2,2,13,254,
scooby_state_54fefc|30|18 253,1,0,0,0,0,0,0,0,0,0,0,0,0,0,254,
scooby_state_54fefc|40|18 252,0,0,0,1,0,0,0,1,0,0,0,0,0,0,254,
scooby_state_47135d|47|0 242,0,1,0,0,0,0,1,1,1,0,3,4,0,1,254,
scooby_state_54fefc|18|18 250,0,0,0,0,1,0,1,0,0,0,0,1,0,0,253,
scooby_state_471359|28|-1 251,0,0,1,0,0,1,0,0,0,0,0,0,0,0,253,
scooby_state_471359|61|-1 249,0,0,0,2,0,0,0,0,0,1,1,0,0,0,253,
scooby_state_471359|54|-1 242,0,0,1,1,2,0,2,0,0,1,0,2,0,1,252,
scooby_state_629170|5|0 127,1,1,8,2,2,6,3,40,1,3,7,7,15,28,251,
scooby_state_471359|57|-1 242,1,0,0,0,0,0,0,0,0,3,2,0,1,2,251,
scooby_state_471359|51|-1 244,0,0,0,0,1,2,2,1,0,0,0,0,1,0,251,
scooby_state_471359|62|-1 247,1,0,0,0,0,0,1,0,0,0,0,1,0,1,251,
scooby_state_54fefc|37|18 250,0,0,0,0,0,0,0,0,0,0,0,0,0,0,250,
scooby_state_54fefc|47|18 249,0,0,0,0,0,0,0,0,0,0,0,0,1,0,250,
scooby_state_620b35|56|1 168,3,12,6,0,7,1,5,6,4,6,13,3,0,16,250,
scooby_state_550ff8|11|-17 249,0,0,0,1,0,0,0,0,0,0,0,0,0,0,250,
scooby_state_54fefc|62|18 248,0,0,0,0,1,0,0,0,0,0,0,0,0,0,249,
scooby_state_54fe9b|43|2 249,0,0,0,0,0,0,0,0,0,0,0,0,0,0,249,
scooby_state_41cc81|6|0 32,215,0,0,0,0,1,0,0,0,0,0,0,1,0,249,
scooby_state_47135d|28|0 247,0,0,0,0,0,1,0,0,0,0,0,0,0,1,249,
scooby_state_47135d|16|0 242,2,0,0,0,0,2,0,0,1,0,0,0,0,1,248,
scooby_state_54fefc|60|18 245,0,0,0,0,0,0,0,0,0,0,0,0,1,0,246,
scooby_state_444028|45|4 0,0,42,17,8,6,35,9,11,10,13,2,52,17,24,246,
scooby_state_471359|7|-1 237,0,1,0,1,1,0,1,1,1,0,0,0,1,2,246,
scooby_state_47135d|16|-1 239,1,3,0,0,1,0,0,0,0,0,0,0,1,1,246,
scooby_state_444028|41|-1 210,0,0,3,7,0,3,2,3,0,3,0,5,0,9,245,
scooby_state_54fefc|42|18 243,0,0,0,0,0,0,0,0,0,0,0,0,1,0,244,
scooby_state_4712af|4|0 216,0,2,4,1,3,3,2,1,2,1,2,3,1,2,243,
scooby_state_4ec000|63|1 205,6,0,8,1,0,1,1,0,0,0,20,1,0,0,243,
scooby_state_471359|13|-1 235,0,0,1,1,1,0,2,1,0,0,0,0,0,2,243,
scooby_state_47135d|31|-1 230,0,6,2,0,1,0,0,0,0,1,0,1,1,1,243,
scooby_state_47133d|56|17 96,9,21,4,4,1,2,4,5,3,4,7,2,74,7,243,
scooby_state_558405|16|0 230,11,1,0,0,0,0,0,0,0,0,0,0,0,0,242,
scooby_state_621e17|4|0 206,3,0,1,1,2,2,0,0,1,1,18,1,5,1,242,
scooby_state_54fe9b|17|2 242,0,0,0,0,0,0,0,0,0,0,0,0,0,0,242,
scooby_state_550ff8|37|-17 240,0,0,0,1,0,0,0,1,0,0,0,0,0,0,242,
scooby_state_47d3b5|8|-3 8,56,9,41,15,12,18,16,18,17,16,0,1,3,12,242,
scooby_state_54fe9b|28|2 241,0,1,0,0,0,0,0,0,0,0,0,0,0,0,242,
scooby_state_41cc81|40|0 18,224,0,0,0,0,0,0,0,0,0,0,0,0,0,242,
scooby_state_47135d|23|-1 227,3,0,1,1,1,0,0,1,0,0,4,2,1,0,241,
scooby_state_55214d|12|2 0,2,0,0,1,13,1,0,0,0,0,0,223,0,0,240,
scooby_state_4117af|9|-3 0,0,1,0,0,0,0,0,1,0,0,218,0,19,0,239,
scooby_state_4117af|13|0 7,0,0,0,1,1,0,0,0,0,0,228,0,2,0,239,
scooby_state_47135d|32|0 231,2,0,1,0,2,1,0,0,1,0,0,0,0,1,239,
scooby_state_5432c8|12|0 116,107,1,1,6,3,0,1,2,0,1,0,0,1,0,239,
scooby_state_621e17|28|0 195,2,0,0,0,0,2,4,0,2,1,24,1,5,2,238,
scooby_state_444197|56|0 125,5,7,6,8,5,7,4,8,6,6,10,3,5,33,238,
scooby_state_5432c8|10|0 115,108,0,0,5,0,1,1,2,1,1,1,0,0,3,238,
scooby_state_550ff8|0|-17 234,0,0,0,1,0,1,0,1,1,0,0,0,0,0,238,
scooby_state_47135d|46|-1 225,2,4,1,1,3,0,0,0,1,0,1,0,0,0,238,
scooby_state_550ff8|42|-17 236,0,1,0,0,0,0,0,1,0,0,0,0,0,0,238,
scooby_state_47135d|9|0 231,1,1,1,0,1,0,1,0,0,0,0,1,0,0,237,
scooby_state_41cc81|31|0 29,207,0,0,0,0,0,0,0,0,0,0,0,0,0,236,
scooby_state_50754a|1|-7 1,0,0,5,2,1,5,6,0,2,4,65,1,137,7,236,
scooby_state_47135d|54|0 228,1,0,1,0,0,0,1,2,0,1,1,0,0,1,236,
scooby_state_416ef9|2|0 234,0,0,0,0,0,0,1,0,0,0,1,0,0,0,236,
scooby_state_47135d|53|-1 226,3,0,1,0,2,0,0,0,1,0,0,1,1,0,235,
scooby_state_471359|41|-1 229,1,1,0,1,1,0,0,0,0,0,1,0,0,1,235,
scooby_state_471359|58|-1 229,2,0,0,0,2,1,0,0,0,0,1,0,0,0,235,
scooby_state_41cc81|14|0 22,213,0,0,0,0,0,0,0,0,0,0,0,0,0,235,
scooby_state_471359|8|-1 231,0,0,1,0,0,1,0,0,0,0,0,1,0,1,235,
scooby_state_555bb1|16|-2 0,42,73,21,29,11,10,9,9,2,11,0,3,10,4,234,
scooby_state_5555a4|22|4 9,0,0,0,0,0,0,0,0,0,0,225,0,0,0,234,
scooby_state_47133d|60|19 216,0,0,1,2,0,2,5,1,1,2,0,2,0,2,234,
scooby_state_47135d|50|-1 221,2,3,1,1,1,1,0,0,2,1,0,0,0,1,234,
scooby_state_41cc81|22|0 24,210,0,0,0,0,0,0,0,0,0,0,0,0,0,234,
scooby_state_41cc81|8|0 34,199,0,0,0,0,0,0,0,0,0,0,0,0,0,233,
scooby_state_54fefc|28|18 230,0,0,0,0,1,0,0,0,0,1,0,0,1,0,233,
scooby_state_4ebac0|43|0 223,0,3,0,0,6,0,0,0,1,0,0,0,0,0,233,
scooby_state_471359|14|-1 227,0,1,1,0,0,0,0,0,1,0,0,0,0,2,232,
scooby_state_47d608|2|0 226,0,0,1,0,1,0,1,0,2,1,0,0,0,0,232,
scooby_state_41cc81|13|0 29,201,0,0,0,0,0,1,0,0,0,0,0,0,0,231,
scooby_state_544907|11|2 16,11,2,8,10,0,9,7,10,10,12,12,113,0,11,231,
scooby_state_471394|47|0 216,0,0,1,0,1,0,1,0,3,0,4,1,4,0,231,
scooby_state_471359|40|-1 222,1,0,0,0,1,0,0,0,2,2,0,0,0,3,231,
scooby_state_4712af|56|0 220,0,0,0,1,1,1,1,1,2,1,3,0,0,0,231,
scooby_state_5501c2|7|1 229,0,0,0,0,0,0,0,0,0,0,1,0,0,0,230,
scooby_state_54fe9b|23|2 229,0,0,0,0,0,0,1,0,0,0,0,0,0,0,230,
scooby_state_47135d|22|-1 225,1,0,0,1,0,1,0,0,0,0,0,1,1,0,230,
scooby_state_47135d|7|0 224,0,0,0,0,0,0,0,2,0,1,1,1,0,1,230,
scooby_state_41cc81|7|0 26,203,0,0,0,0,0,0,0,0,0,0,0,0,0,229,
scooby_state_4712af|47|0 194,2,7,1,0,1,2,3,4,3,1,5,2,1,3,229,
scooby_state_544acf|43|0 104,1,28,6,8,9,10,6,6,7,7,10,9,0,17,228,
scooby_state_47136d|18|2 107,10,1,1,5,1,1,1,0,0,0,99,1,0,1,228,
scooby_state_554ac0|43|0 142,0,0,0,0,0,0,0,0,0,1,84,0,0,0,227,
scooby_state_47135d|32|-1 217,2,1,1,0,1,0,1,0,0,0,1,1,0,2,227,
scooby_state_47135d|39|-1 217,0,1,1,1,0,1,1,2,2,0,0,1,0,0,227,
scooby_state_471359|30|-1 213,2,0,0,1,1,1,1,2,2,0,0,1,0,2,226,
scooby_state_47135d|45|-1 215,0,2,1,1,2,0,1,0,1,0,0,2,1,0,226,
scooby_state_54fefc|54|18 226,0,0,0,0,0,0,0,0,0,0,0,0,0,0,226,
scooby_state_47135d|0|0 221,0,0,1,0,0,0,0,0,0,0,0,2,0,1,225,
scooby_state_47135d|41|-1 218,1,0,2,0,1,1,0,1,0,1,0,0,0,0,225,
scooby_state_47135d|59|-1 217,1,2,0,1,0,0,0,1,0,0,0,2,1,0,225,
scooby_state_47133d|62|20 185,0,1,0,0,0,0,0,0,0,2,0,0,37,0,225,
scooby_state_55100a|4|0 76,0,8,7,13,0,26,10,7,14,10,31,6,0,17,225,
scooby_state_54fefc|59|18 222,0,0,0,0,1,0,0,0,0,0,0,0,0,1,224,
scooby_state_47135d|35|0 214,1,1,1,0,0,1,0,0,0,2,0,0,1,3,224,
scooby_state_47133d|56|49 117,59,0,3,3,1,3,3,10,3,1,14,6,0,1,224,
scooby_state_41cc81|16|0 41,182,0,0,0,0,0,0,0,0,0,0,0,0,0,223,
scooby_state_47135d|38|-1 210,1,1,0,1,1,1,0,1,3,0,0,1,0,3,223,
scooby_state_47135d|24|-1 212,0,1,1,2,0,2,0,0,1,2,1,0,0,1,223,
scooby_state_5432c8|11|0 81,113,0,0,11,0,2,3,2,0,1,0,4,2,4,223,
scooby_state_47135d|3|-1 205,1,5,0,1,1,0,1,1,0,1,0,1,1,5,223,
scooby_state_62919a|1|-9 221,0,0,0,0,0,0,0,0,1,0,0,0,1,0,223,
scooby_state_544914|19|0 0,2,12,8,8,4,6,11,7,10,6,75,49,0,24,222,
scooby_state_54fe9b|6|2 221,0,1,0,0,0,0,0,0,0,0,0,0,0,0,222,
scooby_state_416e72|61|1 189,27,1,0,0,1,1,1,0,0,0,0,0,0,2,222,
scooby_state_47135d|6|-1 207,3,4,1,0,1,1,1,1,0,1,0,0,0,2,222,
scooby_state_471359|20|-1 217,0,0,0,0,2,1,0,1,0,0,1,0,0,0,222,
scooby_state_41cc81|24|0 32,190,0,0,0,0,0,0,0,0,0,0,0,0,0,222,
scooby_state_47135d|26|-1 206,1,5,1,0,1,1,0,1,1,0,2,2,0,1,222,
scooby_state_41cc81|15|0 28,193,0,0,0,0,0,0,1,0,0,0,0,0,0,222,
scooby_state_47135d|35|-1 211,2,0,3,0,0,1,0,1,0,1,1,1,0,1,222,
scooby_state_63e5f6|61|1 70,5,6,14,26,10,5,7,3,11,8,1,16,8,31,221,
scooby_state_47135d|42|-1 217,0,1,1,0,0,0,0,0,1,0,0,0,0,1,221,
scooby_state_5124e1|63|1 0,221,0,0,0,0,0,0,0,0,0,0,0,0,0,221,
scooby_state_4712af|27|0 210,0,3,1,1,1,1,0,0,1,0,3,0,0,0,221,
scooby_state_62201f|24|0 41,91,11,8,3,6,4,9,1,5,8,18,6,0,10,221,
scooby_state_416eb9|7|0 83,30,48,9,3,6,5,4,2,5,4,1,9,5,7,221,
scooby_state_47135d|2|0 214,1,0,0,1,1,0,0,0,1,1,0,0,0,1,220,
scooby_state_5432c8|9|0 74,124,0,0,7,2,0,0,3,2,0,3,0,1,4,220,
scooby_state_54fe9b|53|2 219,0,0,0,0,0,0,0,0,0,0,0,0,0,0,219,
scooby_state_47135d|5|0 212,0,0,1,0,1,0,1,0,0,1,0,2,0,1,219,
scooby_state_471394|17|0 208,0,0,0,1,0,1,1,0,1,2,1,1,0,3,219,
scooby_state_47133d|34|6 164,20,0,0,0,0,0,0,0,0,0,34,0,0,0,218,
scooby_state_47135d|25|0 213,0,0,0,0,1,0,1,1,0,0,1,1,0,0,218,
scooby_state_41cc81|17|0 36,181,0,0,0,0,0,0,0,0,0,0,0,0,0,217,
scooby_state_62919a|4|0 37,93,39,4,4,3,2,3,3,2,7,1,4,3,12,217,
scooby_state_47135d|43|0 208,1,0,1,2,0,0,0,1,2,0,0,1,0,1,217,
scooby_state_47135d|57|0 209,0,0,1,1,1,2,0,0,1,0,0,1,1,0,217,
scooby_state_471394|43|0 212,0,0,0,1,1,1,0,0,0,0,0,0,1,0,216,
scooby_state_471394|10|0 207,0,0,0,1,0,2,0,0,1,0,0,1,3,1,216,
scooby_state_43b43b|54|0 216,0,0,0,0,0,0,0,0,0,0,0,0,0,0,216,
scooby_state_55b176|15|0 215,0,1,0,0,0,0,0,0,0,0,0,0,0,0,216,
scooby_state_47135d|27|-1 200,1,2,0,1,1,0,1,1,3,1,1,1,0,3,216,
scooby_state_47133d|54|48 5,126,2,14,8,3,7,8,2,6,4,9,8,8,6,216,
scooby_state_47135d|61|0 209,2,1,1,0,1,0,0,0,1,0,0,0,0,1,216,
scooby_state_47135d|47|-1 196,0,3,1,2,1,2,0,4,1,3,0,3,0,0,216,
scooby_state_550ff8|14|-17 215,0,0,0,0,0,0,0,0,0,0,0,0,0,0,215,
scooby_state_54fe9b|61|2 214,0,0,0,0,0,0,0,0,0,0,0,0,0,1,215,
scooby_state_47135d|12|0 213,1,0,0,0,0,0,1,0,0,0,0,0,0,0,215,
scooby_state_47135d|1|-1 208,2,2,1,0,0,1,0,0,0,1,0,0,0,0,215,
scooby_state_47136d|4|2 103,10,0,1,7,0,1,0,0,0,0,90,0,2,0,214,
scooby_state_621435|16|0 182,0,0,1,0,1,2,0,1,0,1,0,10,1,15,214,
scooby_state_47135d|5|-1 202,3,0,1,1,0,1,2,0,0,0,1,1,1,1,214,
scooby_state_55b6eb|47|22 88,0,23,3,3,17,8,8,7,6,9,0,17,2,22,213,
scooby_state_54fe9b|25|2 212,0,0,0,0,0,0,0,0,0,0,0,1,0,0,213,
scooby_state_47135d|54|-1 197,2,3,0,0,0,1,2,1,1,0,2,0,1,3,213,
scooby_state_621e17|24|0 177,3,2,3,1,0,1,2,0,0,1,17,1,4,1,213,
scooby_state_47135d|20|0 202,3,0,0,1,0,0,1,0,2,1,1,2,0,0,213,
scooby_state_621e17|55|0 164,5,2,0,3,0,0,1,2,0,0,23,0,11,2,213,
scooby_state_5451c1|7|1 0,212,0,0,0,0,0,0,0,0,0,0,1,0,0,213,
scooby_state_47135d|12|-1 200,1,2,2,0,0,0,2,1,1,0,0,2,1,1,213,
scooby_state_506f34|0|-54 86,22,20,7,2,5,6,12,4,6,9,2,5,14,13,213,
scooby_state_47135d|58|-1 206,1,1,1,0,0,0,1,1,0,0,0,0,1,1,213,
scooby_state_4712af|25|0 204,0,1,0,1,0,0,1,1,1,0,1,1,0,1,212,
scooby_state_47135d|22|0 208,1,0,0,0,1,0,0,0,0,0,1,1,0,0,212,
scooby_state_471359|11|-1 207,0,0,1,0,0,1,0,0,0,0,2,0,0,0,211,
scooby_state_47e5d4|2|0 199,0,0,0,0,1,1,0,0,2,1,2,1,1,3,211,
scooby_state_47133d|58|50 69,2,1,6,5,1,10,5,6,5,6,1,10,75,9,211,
scooby_state_47135d|42|0 207,0,0,1,0,0,0,0,0,1,0,0,0,0,1,210,
scooby_state_47e5d4|62|0 197,1,1,0,1,0,1,1,4,1,0,2,1,0,0,210,
scooby_state_41cc81|27|0 29,181,0,0,0,0,0,0,0,0,0,0,0,0,0,210,
scooby_state_4712af|2|0 188,2,1,4,1,0,1,2,2,0,1,2,1,1,4,210,
scooby_state_47135d|9|-1 196,2,3,2,0,0,0,0,0,0,0,1,3,1,2,210,
scooby_state_41cc81|30|0 27,182,0,0,0,0,0,0,0,0,1,0,0,0,0,210,
scooby_state_47133d|47|13 174,0,1,4,4,1,4,2,4,5,1,0,4,0,6,210,
scooby_state_621e17|47|0 173,0,2,1,0,1,2,1,1,1,1,20,1,5,0,209,
scooby_state_47e5d4|6|0 202,0,0,1,0,0,1,0,0,2,0,1,0,2,0,209,
scooby_state_47e5d4|35|0 201,2,0,0,0,0,1,0,1,1,0,2,1,0,0,209,
scooby_state_621e17|23|0 166,3,2,0,2,3,0,0,3,1,1,18,0,6,4,209,
scooby_state_41cc81|43|0 35,173,0,1,0,0,0,0,0,0,0,0,0,0,0,209,
scooby_state_4712af|8|0 206,0,1,0,0,0,2,0,0,0,0,0,0,0,0,209,
scooby_state_5124e1|41|1 0,209,0,0,0,0,0,0,0,0,0,0,0,0,0,209,
scooby_state_47135d|18|-1 199,1,4,0,0,0,0,0,1,0,0,1,1,0,2,209,
scooby_state_471366|34|2 200,0,1,0,0,0,1,2,0,0,0,4,0,0,1,209,
scooby_state_41cc81|10|0 26,183,0,0,0,0,0,0,0,0,0,0,0,0,0,209,
scooby_state_555400|16|0 79,26,0,10,28,1,7,9,8,18,9,1,6,0,7,209,
scooby_state_47135d|45|0 203,2,0,0,0,0,2,0,0,0,0,0,1,0,0,208,
scooby_state_41cc81|9|0 40,167,0,0,0,0,0,0,0,0,0,1,0,0,0,208,
scooby_state_47135d|52|0 204,0,0,0,1,0,1,0,0,0,0,0,0,1,1,208,
scooby_state_47135d|6|0 198,0,0,0,0,1,2,0,0,1,2,0,1,1,2,208,
scooby_state_5432c8|61|0 87,102,1,0,5,0,2,0,6,0,1,1,1,0,2,208,
scooby_state_471366|28|2 201,0,1,0,0,2,0,0,1,1,0,1,0,0,1,208,
scooby_state_54fe9b|14|2 207,0,0,0,0,0,0,0,0,0,0,0,0,0,0,207,
scooby_state_5124e1|26|1 0,207,0,0,0,0,0,0,0,0,0,0,0,0,0,207,
scooby_state_621e17|8|0 169,1,2,0,1,2,2,1,0,0,2,17,1,6,3,207,
scooby_state_47135d|8|-1 196,0,4,1,0,2,1,1,0,0,1,0,0,0,1,207,
scooby_state_47135d|33|-1 199,2,0,0,2,0,1,1,1,0,0,0,0,1,0,207,
scooby_state_47133d|58|18 144,6,6,7,2,4,6,4,6,5,5,0,5,1,6,207,
scooby_state_54fe9b|7|2 206,1,0,0,0,0,0,0,0,0,0,0,0,0,0,207,
scooby_state_54fe9b|30|2 206,0,0,1,0,0,0,0,0,0,0,0,0,0,0,207,
scooby_state_471394|4|0 195,0,1,0,2,0,1,1,1,0,0,1,1,0,3,206,
scooby_state_55214a|5|0 0,3,4,13,14,17,14,18,19,18,16,16,3,13,38,206,
scooby_state_47136d|24|2 90,4,2,0,3,1,0,0,2,0,0,102,0,1,1,206,
scooby_state_54fefc|31|18 204,0,0,0,0,1,0,0,0,0,0,0,0,0,1,206,
scooby_state_54fe9b|15|2 206,0,0,0,0,0,0,0,0,0,0,0,0,0,0,206,
scooby_state_54fe9b|18|2 205,0,0,0,0,0,0,0,0,0,0,0,0,0,0,205,
scooby_state_5549c3|18|0 36,11,0,14,16,0,13,14,18,17,15,2,20,0,29,205,
scooby_state_54fe9b|59|2 205,0,0,0,0,0,0,0,0,0,0,0,0,0,0,205,
scooby_state_4712af|17|0 188,1,0,1,4,0,1,1,2,3,0,1,1,0,2,205,
scooby_state_471394|25|0 198,0,1,0,1,1,1,1,0,0,0,1,0,1,0,205,
scooby_state_47135d|59|0 203,1,0,1,0,0,0,0,0,0,0,0,0,0,0,205,
scooby_state_621e17|52|0 167,3,3,0,0,1,1,1,0,0,0,19,0,8,2,205,
scooby_state_416ef9|6|0 204,0,0,0,0,0,0,0,0,0,0,0,0,0,0,204,
scooby_state_55548c|18|2 71,23,10,6,8,9,8,8,6,9,8,0,9,17,12,204,
scooby_state_47135d|4|-1 197,0,2,0,1,0,0,0,0,0,1,1,1,0,1,204,
scooby_state_621e17|54|0 164,2,3,0,1,2,1,1,0,1,1,23,1,3,1,204,
scooby_state_47e5d4|38|0 195,0,1,0,1,0,0,1,0,1,0,1,3,0,1,204,
scooby_state_47135d|49|0 201,2,0,0,0,0,0,0,0,1,0,0,0,0,0,204,
scooby_state_47e5d4|17|0 196,0,1,1,0,0,0,0,2,0,0,1,1,0,2,204,
scooby_state_47e5d4|8|0 195,0,1,0,0,0,0,1,1,1,0,1,1,1,2,204,
scooby_state_41cc81|25|0 20,183,0,1,0,0,0,0,0,0,0,0,0,0,0,204,
scooby_state_545180|6|1 165,1,35,0,0,0,0,0,0,0,0,0,1,1,0,203,
scooby_state_47135d|29|-1 191,1,2,0,0,0,0,0,0,1,2,0,2,1,3,203,
scooby_state_416ef9|1|0 203,0,0,0,0,0,0,0,0,0,0,0,0,0,0,203,
scooby_state_5432c8|13|0 92,90,1,1,8,0,0,1,4,1,0,2,0,1,2,203,
scooby_state_4ec000|19|1 177,4,0,3,0,1,0,0,0,1,0,16,1,0,0,203,
scooby_state_54fe9b|40|2 202,0,0,0,0,0,0,0,1,0,0,0,0,0,0,203,
scooby_state_54fe9b|44|2 201,1,0,0,0,0,0,0,0,0,1,0,0,0,0,203,
scooby_state_4712af|10|0 174,2,3,2,5,1,0,1,1,2,0,3,2,0,6,202,
scooby_state_47135d|39|0 198,0,0,1,2,0,0,0,0,0,1,0,0,0,0,202,
scooby_state_621e17|27|0 169,6,2,2,3,1,0,0,1,0,0,15,0,2,1,202,
scooby_state_621e17|62|0 154,3,0,1,0,2,1,0,3,0,2,23,3,8,2,202,
scooby_state_621e17|31|0 161,3,1,2,3,0,0,1,2,1,0,21,0,5,2,202,
scooby_state_47135d|34|0 194,0,0,1,2,1,1,0,0,0,0,0,0,1,1,201,
scooby_state_54fe9b|62|2 201,0,0,0,0,0,0,0,0,0,0,0,0,0,0,201,
scooby_state_410781|11|0 136,9,20,11,0,1,3,1,0,1,2,11,6,0,0,201,
scooby_state_4712af|23|0 178,1,1,2,3,0,0,1,1,1,1,6,2,0,4,201,
scooby_state_47135d|14|0 196,0,0,1,1,1,0,1,0,0,0,0,0,0,1,201,
scooby_state_416ef9|0|0 201,0,0,0,0,0,0,0,0,0,0,0,0,0,0,201,
scooby_state_621e17|15|0 155,3,2,3,1,2,0,0,2,1,0,22,0,10,0,201,
scooby_state_54fe9b|46|2 201,0,0,0,0,0,0,0,0,0,0,0,0,0,0,201,
scooby_state_47e5d4|11|0 185,0,1,0,1,1,3,0,2,2,0,1,1,1,2,200,
scooby_state_621e17|46|0 156,2,1,1,0,2,2,1,3,1,0,22,4,4,1,200,
scooby_state_54fe9b|3|2 200,0,0,0,0,0,0,0,0,0,0,0,0,0,0,200,
scooby_state_47135d|28|-1 199,0,0,0,0,0,1,0,0,0,0,0,0,0,0,200,
scooby_state_47135d|55|-1 192,1,1,1,1,0,0,1,0,0,2,1,0,0,0,200,
scooby_state_552142|5|0 200,0,0,0,0,0,0,0,0,0,0,0,0,0,0,200,
scooby_state_471366|18|2 194,0,0,0,2,0,0,0,0,0,0,2,1,0,1,200,
scooby_state_621e17|60|0 160,1,1,2,1,0,1,0,0,1,1,22,1,7,2,200,
scooby_state_622407|16|16 34,151,0,0,0,0,0,7,1,0,1,6,0,0,0,200,
scooby_state_621e17|38|0 162,4,2,0,1,0,0,0,0,1,0,21,0,5,3,199,
scooby_state_471394|55|0 193,0,0,0,0,1,2,1,1,0,0,0,0,0,1,199,
scooby_state_47135d|0|-1 184,0,3,1,3,1,0,0,0,2,0,1,1,1,2,199,
scooby_state_47135d|51|-1 186,1,1,1,1,1,1,0,3,1,1,2,0,0,0,199,
scooby_state_47e5d4|32|0 187,0,0,0,0,1,1,2,0,1,3,3,0,0,1,199,
scooby_state_54fe9b|51|2 198,0,0,0,0,0,0,0,1,0,0,0,0,0,0,199,
scooby_state_47135d|17|-1 186,0,1,0,2,0,1,2,0,0,2,1,1,0,3,199,
scooby_state_54fe9b|52|2 198,0,0,0,0,0,0,0,0,0,1,0,0,0,0,199,
scooby_state_54fe9b|45|2 198,0,0,0,1,0,0,0,0,0,0,0,0,0,0,199,
scooby_state_621e17|16|0 157,2,1,0,2,0,2,1,2,0,0,22,1,8,1,199,
scooby_state_54fe9b|11|2 199,0,0,0,0,0,0,0,0,0,0,0,0,0,0,199,
scooby_state_4ec000|3|1 173,4,0,1,0,1,2,0,0,0,0,15,2,0,1,199,
scooby_state_47e5d4|29|0 183,0,0,1,0,2,0,2,0,1,2,2,0,2,3,198,
scooby_state_54fe9b|4|2 194,0,0,0,0,1,0,0,0,0,0,1,0,0,2,198,
scooby_state_41cc81|18|0 26,172,0,0,0,0,0,0,0,0,0,0,0,0,0,198,
scooby_state_4712af|19|0 185,2,0,1,1,0,1,1,0,1,0,0,0,2,4,198,
scooby_state_54fe9b|33|3 198,0,0,0,0,0,0,0,0,0,0,0,0,0,0,198,
scooby_state_4c26a3|7|0 1,1,0,1,0,0,0,0,4,1,3,29,0,150,8,198,
scooby_state_552130|12|2 198,0,0,0,0,0,0,0,0,0,0,0,0,0,0,198,
scooby_state_41cc81|41|0 23,175,0,0,0,0,0,0,0,0,0,0,0,0,0,198,
scooby_state_54fe9b|56|2 197,0,0,0,0,0,0,0,0,0,0,0,0,0,0,197,
scooby_state_471366|0|0 150,5,0,0,5,4,4,0,2,3,4,13,3,0,4,197,
scooby_state_4712af|28|0 167,1,3,1,2,2,0,2,4,1,4,3,1,2,4,197,
scooby_state_47135d|41|0 192,2,0,0,0,0,0,0,1,0,0,0,1,0,1,197,
scooby_state_4712af|43|0 186,0,0,2,0,0,0,0,0,2,1,2,1,0,3,197,
scooby_state_416ef9|7|0 197,0,0,0,0,0,0,0,0,0,0,0,0,0,0,197,
scooby_state_54fe9b|60|2 195,0,0,0,0,0,0,0,0,1,0,0,0,0,0,196,
scooby_state_54fe9b|8|2 196,0,0,0,0,0,0,0,0,0,0,0,0,0,0,196,
scooby_state_47135d|34|-1 183,0,2,1,0,2,1,0,1,0,0,1,2,0,3,196,
scooby_state_4ec000|55|1 154,9,0,3,0,1,2,0,2,0,0,17,6,0,2,196,
scooby_state_4712af|0|0 183,1,0,0,0,3,1,1,0,1,1,0,0,1,4,196,
scooby_state_47135d|1|0 189,2,0,0,0,0,1,0,0,0,0,1,1,0,1,195,
scooby_state_471394|50|0 191,0,0,0,1,1,0,0,0,0,2,0,0,0,0,195,
scooby_state_47135d|30|-1 177,2,2,1,1,1,2,2,3,0,0,0,2,1,1,195,
scooby_state_47135d|24|0 191,1,0,0,0,1,0,0,0,0,0,1,0,0,1,195,
scooby_state_471394|54|0 179,2,2,0,1,0,1,1,0,1,0,3,0,1,4,195,
scooby_state_47135d|19|-1 188,0,3,2,1,0,0,0,0,0,0,0,1,0,0,195,
scooby_state_50754a|1|-11 168,0,0,0,0,0,11,1,2,0,1,0,0,12,0,195,
scooby_state_621e17|3|0 145,5,0,2,1,2,0,1,0,3,0,22,1,7,6,195,
scooby_state_4712af|1|0 166,3,1,2,2,2,3,1,1,2,2,4,2,0,4,195,
scooby_state_47135d|40|0 193,1,0,0,1,0,0,0,0,0,0,0,0,0,0,195,
scooby_state_416e72|48|1 157,23,2,1,1,1,2,2,0,1,2,1,0,2,0,195,
scooby_state_4e9fc1|3|2 195,0,0,0,0,0,0,0,0,0,0,0,0,0,0,195,
scooby_state_621e17|44|0 157,1,1,2,2,0,0,1,1,1,0,23,0,5,0,194,
scooby_state_621e17|42|0 151,2,2,1,1,1,1,0,1,2,1,21,1,6,3,194,
scooby_state_54fe9b|33|2 194,0,0,0,0,0,0,0,0,0,0,0,0,0,0,194,
scooby_state_54fe9b|34|2 194,0,0,0,0,0,0,0,0,0,0,0,0,0,0,194,
scooby_state_4c2595|7|0 1,45,12,18,3,7,12,10,1,9,7,45,10,0,14,194,
scooby_state_621e17|7|0 150,3,1,3,2,3,0,1,0,0,1,23,1,3,3,194,
scooby_state_552182|6|1 194,0,0,0,0,0,0,0,0,0,0,0,0,0,0,194,
scooby_state_416ef9|4|0 194,0,0,0,0,0,0,0,0,0,0,0,0,0,0,194,
scooby_state_47135d|60|0 187,1,1,0,2,0,0,0,1,0,0,0,1,0,1,194,
scooby_state_47135d|38|0 190,2,0,0,0,0,0,0,1,0,0,0,0,0,1,194,
scooby_state_41cc81|45|0 36,158,0,0,0,0,0,0,0,0,0,0,0,0,0,194,
scooby_state_621e17|56|0 159,3,0,2,0,0,0,0,0,1,0,16,1,9,3,194,
scooby_state_47e5d4|33|0 184,0,0,1,0,1,2,0,0,1,0,0,0,3,2,194,
scooby_state_47135d|29|0 189,0,0,0,0,0,2,0,0,1,0,0,1,0,0,193,
scooby_state_54fe9b|24|2 193,0,0,0,0,0,0,0,0,0,0,0,0,0,0,193,
scooby_state_47135d|33|0 185,0,0,0,0,1,0,2,1,1,1,1,0,0,1,193,
scooby_state_4106b3|11|0 11,5,32,15,11,9,14,11,17,10,13,5,11,14,15,193,
scooby_state_621e17|32|0 162,6,2,1,0,1,1,1,0,1,0,12,1,2,3,193,
scooby_state_55bb00|44|0 86,1,4,5,1,0,8,5,5,3,3,57,3,0,12,193,
scooby_state_47135d|52|-1 188,1,1,0,0,0,0,0,0,0,1,0,0,0,2,193,
scooby_state_471366|4|2 179,2,3,0,0,0,0,1,0,1,1,5,0,0,1,193,
scooby_state_54fe9b|20|2 193,0,0,0,0,0,0,0,0,0,0,0,0,0,0,193,
scooby_state_4712af|16|0 178,1,1,1,0,1,2,0,1,0,2,1,1,2,2,193,
scooby_state_47135d|17|0 182,0,0,0,0,1,0,2,0,1,0,1,1,3,1,192,
scooby_state_4712af|36|0 178,1,1,0,3,0,0,0,0,1,1,2,1,1,3,192,
scooby_state_471366|47|2 184,1,2,0,1,0,0,0,0,0,0,2,1,0,1,192,
scooby_state_47135d|58|0 188,0,0,0,1,0,0,0,0,0,0,0,1,0,2,192,
scooby_state_471394|0|0 182,3,0,1,0,0,0,2,0,0,0,2,1,1,0,192,
scooby_state_471394|27|0 184,0,0,0,1,0,0,0,1,0,0,1,1,0,4,192,
scooby_state_621e17|25|0 150,3,1,1,0,1,1,0,0,3,0,23,0,7,2,192,
[...]
scooby_state_41cc81|43|12 0,1,0,0,0,0,0,0,0,0,0,0,0,0,0,1,
scooby_state_41cc78|40|6 1,0,0,0,0,0,0,0,0,0,0,0,0,0,0,1,
scooby_state_621ea4|43|0 1,0,0,0,0,0,0,0,0,0,0,0,0,0,0,1,
scooby_state_4168b4|40|-4 0,0,0,0,1,0,0,0,0,0,0,0,0,0,0,1,
scooby_state_4340f0|47|20 1,0,0,0,0,0,0,0,0,0,0,0,0,0,0,1,
scooby_state_416ef9|7|1 1,0,0,0,0,0,0,0,0,0,0,0,0,0,0,1,
scooby_state_621ea4|39|0 1,0,0,0,0,0,0,0,0,0,0,0,0,0,0,1,
scooby_state_4712ab|10|-4 1,0,0,0,0,0,0,0,0,0,0,0,0,0,0,1,
scooby_state_550144|32|-1 1,0,0,0,0,0,0,0,0,0,0,0,0,0,0,1,
scooby_state_416eb3|31|-10 0,0,0,0,0,0,0,0,0,0,0,1,0,0,0,1,
scooby_state_4712ab|55|4 0,0,0,0,0,0,0,0,0,0,1,0,0,0,0,1,
scooby_state_55b742|29|-2 1,0,0,0,0,0,0,0,0,0,0,0,0,0,0,1,
scooby_state_61ec00|48|0 1,0,0,0,0,0,0,0,0,0,0,0,0,0,0,1,
scooby_state_54fefc|24|21 1,0,0,0,0,0,0,0,0,0,0,0,0,0,0,1,
scooby_state_416ef9|63|23 1,0,0,0,0,0,0,0,0,0,0,0,0,0,0,1,
scooby_state_4ea019|55|2 0,1,0,0,0,0,0,0,0,0,0,0,0,0,0,1,
scooby_state_47d453|25|19 1,0,0,0,0,0,0,0,0,0,0,0,0,0,0,1,
scooby_state_4c2586|56|54 0,0,0,0,1,0,0,0,0,0,0,0,0,0,0,1,
scooby_state_47d540|21|1 1,0,0,0,0,0,0,0,0,0,0,0,0,0,0,1,
scooby_state_6291bb|32|0 0,1,0,0,0,0,0,0,0,0,0,0,0,0,0,1,
scooby_state_41cc81|50|22 0,1,0,0,0,0,0,0,0,0,0,0,0,0,0,1,
scooby_state_416eb6|56|31 1,0,0,0,0,0,0,0,0,0,0,0,0,0,0,1,
scooby_state_444216|43|40 1,0,0,0,0,0,0,0,0,0,0,0,0,0,0,1,
scooby_state_47135d|46|-2 0,0,0,0,0,0,0,0,0,0,0,0,1,0,0,1,
scooby_state_55039d|30|-11 1,0,0,0,0,0,0,0,0,0,0,0,0,0,0,1,
scooby_state_47133d|51|27 0,0,0,0,0,0,0,0,0,0,0,0,0,1,0,1,
scooby_state_5555a4|16|-26 0,0,0,0,0,0,0,0,0,0,0,1,0,0,0,1,
scooby_state_5124e1|23|7 0,1,0,0,0,0,0,0,0,0,0,0,0,0,0,1,
scooby_state_444020|47|32 0,1,0,0,0,0,0,0,0,0,0,0,0,0,0,1,
scooby_state_41cc81|12|-2 0,1,0,0,0,0,0,0,0,0,0,0,0,0,0,1,
scooby_state_4ea019|41|6 0,1,0,0,0,0,0,0,0,0,0,0,0,0,0,1,
scooby_state_444186|10|-6 1,0,0,0,0,0,0,0,0,0,0,0,0,0,0,1,
scooby_state_411c4a|0|0 0,0,0,0,0,0,0,0,0,0,0,0,1,0,0,1,
scooby_state_549390|37|1 1,0,0,0,0,0,0,0,0,0,0,0,0,0,0,1,
scooby_state_416ef9|9|-8 1,0,0,0,0,0,0,0,0,0,0,0,0,0,0,1,
scooby_state_444178|22|-19 0,0,0,0,0,0,0,0,0,1,0,0,0,0,0,1,
scooby_state_444186|58|30 0,1,0,0,0,0,0,0,0,0,0,0,0,0,0,1,
scooby_state_4168cb|57|29 0,0,0,0,1,0,0,0,0,0,0,0,0,0,0,1,
scooby_state_41191a|33|-21 0,0,0,1,0,0,0,0,0,0,0,0,0,0,0,1,
scooby_state_444216|22|-5 1,0,0,0,0,0,0,0,0,0,0,0,0,0,0,1,
scooby_state_416eb6|58|35 1,0,0,0,0,0,0,0,0,0,0,0,0,0,0,1,
scooby_state_4340f0|51|-9 0,0,0,0,0,1,0,0,0,0,0,0,0,0,0,1,
scooby_state_41cc78|16|-11 1,0,0,0,0,0,0,0,0,0,0,0,0,0,0,1,
scooby_state_41195a|45|13 0,0,0,0,0,0,0,0,0,0,0,1,0,0,0,1,
scooby_state_4ec000|5|-26 0,0,0,0,0,0,0,1,0,0,0,0,0,0,0,1,
scooby_state_400640|3|1 1,0,0,0,0,0,0,0,0,0,0,0,0,0,0,1,
scooby_state_416ef9|32|-2 1,0,0,0,0,0,0,0,0,0,0,0,0,0,0,1,
scooby_state_4168b4|10|-12 0,0,0,0,1,0,0,0,0,0,0,0,0,0,0,1,
scooby_state_41cc78|14|3 1,0,0,0,0,0,0,0,0,0,0,0,0,0,0,1,
scooby_state_444216|1|-9 1,0,0,0,0,0,0,0,0,0,0,0,0,0,0,1,
scooby_state_54fe9b|26|7 1,0,0,0,0,0,0,0,0,0,0,0,0,0,0,1,
scooby_state_5124e1|22|16 0,1,0,0,0,0,0,0,0,0,0,0,0,0,0,1,
scooby_state_44427d|57|15 0,1,0,0,0,0,0,0,0,0,0,0,0,0,0,1,
scooby_state_620b09|57|0 0,0,0,0,0,0,0,0,0,0,0,0,0,1,0,1,
scooby_state_416eb6|59|39 1,0,0,0,0,0,0,0,0,0,0,0,0,0,0,1,
scooby_state_507650|25|3 1,0,0,0,0,0,0,0,0,0,0,0,0,0,0,1,
scooby_state_445148|4|-57 1,0,0,0,0,0,0,0,0,0,0,0,0,0,0,1,
scooby_state_4ea00b|34|3 1,0,0,0,0,0,0,0,0,0,0,0,0,0,0,1,
scooby_state_4340f0|42|-3 1,0,0,0,0,0,0,0,0,0,0,0,0,0,0,1,
scooby_state_4712ab|13|8 1,0,0,0,0,0,0,0,0,0,0,0,0,0,0,1,
scooby_state_550ff8|53|50 1,0,0,0,0,0,0,0,0,0,0,0,0,0,0,1,
scooby_state_416ef9|62|15 1,0,0,0,0,0,0,0,0,0,0,0,0,0,0,1,
scooby_state_411c5f|4|-3 1,0,0,0,0,0,0,0,0,0,0,0,0,0,0,1,
scooby_state_4ea00b|18|3 0,0,0,0,0,0,0,0,0,0,0,0,0,0,1,1,
scooby_state_416eb3|11|-5 0,0,0,0,0,0,0,0,0,0,0,1,0,0,0,1,
scooby_state_41d1f4|62|0 0,0,1,0,0,0,0,0,0,0,0,0,0,0,0,1,
scooby_state_41cc78|37|-7 1,0,0,0,0,0,0,0,0,0,0,0,0,0,0,1,
scooby_state_47d453|18|-14 1,0,0,0,0,0,0,0,0,0,0,0,0,0,0,1,
scooby_state_416ef9|61|26 1,0,0,0,0,0,0,0,0,0,0,0,0,0,0,1,
scooby_state_4441c7|19|-41 0,0,0,0,0,0,0,0,0,0,0,0,0,1,0,1,
scooby_state_416eb3|50|46 0,0,0,0,0,0,0,0,0,0,0,1,0,0,0,1,
scooby_state_4168cb|44|33 0,0,0,0,0,1,0,0,0,0,0,0,0,0,0,1,
scooby_state_444020|46|34 0,1,0,0,0,0,0,0,0,0,0,0,0,0,0,1,
scooby_state_5583d5|14|2 1,0,0,0,0,0,0,0,0,0,0,0,0,0,0,1,
scooby_state_416ef9|5|-30 1,0,0,0,0,0,0,0,0,0,0,0,0,0,0,1,
scooby_state_41cc78|54|12 1,0,0,0,0,0,0,0,0,0,0,0,0,0,0,1,
scooby_state_4168ba|36|-27 0,0,0,0,0,0,0,0,0,0,0,1,0,0,0,1,
scooby_state_47d453|22|-39 1,0,0,0,0,0,0,0,0,0,0,0,0,0,0,1,
scooby_state_444178|58|21 0,1,0,0,0,0,0,0,0,0,0,0,0,0,0,1,
scooby_state_47d453|37|-13 1,0,0,0,0,0,0,0,0,0,0,0,0,0,0,1,
scooby_state_445148|40|22 0,0,0,0,0,0,1,0,0,0,0,0,0,0,0,1,
scooby_state_620901|59|-1 0,1,0,0,0,0,0,0,0,0,0,0,0,0,0,1,
scooby_state_5432c8|54|19 0,0,0,0,0,1,0,0,0,0,0,0,0,0,0,1,
scooby_state_4168cb|52|30 0,0,1,0,0,0,0,0,0,0,0,0,0,0,0,1,
scooby_state_41cc78|39|-10 1,0,0,0,0,0,0,0,0,0,0,0,0,0,0,1,
scooby_state_4340f0|40|-2 0,0,0,0,0,0,0,0,0,0,0,0,0,1,0,1,
scooby_state_416ef9|46|-15 1,0,0,0,0,0,0,0,0,0,0,0,0,0,0,1,
scooby_state_416e84|18|11 0,0,0,0,0,1,0,0,0,0,0,0,0,0,0,1,
scooby_state_444178|10|4 0,0,0,0,0,0,0,0,1,0,0,0,0,0,0,1,
scooby_state_550140|5|-26 0,0,0,0,0,1,0,0,0,0,0,0,0,0,0,1,
scooby_state_4713bc|20|1 0,0,1,0,0,0,0,0,0,0,0,0,0,0,0,1,
scooby_state_411aac|1|0 1,0,0,0,0,0,0,0,0,0,0,0,0,0,0,1,
scooby_state_47d453|63|18 1,0,0,0,0,0,0,0,0,0,0,0,0,0,0,1,
scooby_state_555b80|46|2 0,1,0,0,0,0,0,0,0,0,0,0,0,0,0,1,
scooby_state_416ef9|62|50 1,0,0,0,0,0,0,0,0,0,0,0,0,0,0,1,
scooby_state_4450fb|13|-35 1,0,0,0,0,0,0,0,0,0,0,0,0,0,0,1,
scooby_state_411c5f|27|0 1,0,0,0,0,0,0,0,0,0,0,0,0,0,0,1,
scooby_state_444020|53|23 0,1,0,0,0,0,0,0,0,0,0,0,0,0,0,1,
scooby_state_416eb6|41|32 0,0,0,0,0,0,0,0,0,0,1,0,0,0,0,1,
scooby_state_4340f0|31|20 1,0,0,0,0,0,0,0,0,0,0,0,0,0,0,1,
scooby_state_41191a|27|-30 1,0,0,0,0,0,0,0,0,0,0,0,0,0,0,1,
scooby_state_550db6|59|0 1,0,0,0,0,0,0,0,0,0,0,0,0,0,0,1,
scooby_state_5555a4|51|21 0,0,0,0,0,0,0,0,0,0,0,1,0,0,0,1,
scooby_state_444178|6|-50 0,0,1,0,0,0,0,0,0,0,0,0,0,0,0,1,
scooby_state_550ff8|61|0 1,0,0,0,0,0,0,0,0,0,0,0,0,0,0,1,
scooby_state_4ea019|25|2 0,1,0,0,0,0,0,0,0,0,0,0,0,0,0,1,
scooby_state_41cc81|57|1 0,1,0,0,0,0,0,0,0,0,0,0,0,0,0,1,
scooby_state_444178|24|-12 0,0,0,0,0,0,0,0,0,0,0,1,0,0,0,1,
scooby_state_416e84|61|37 0,0,0,0,0,0,0,0,0,0,0,1,0,0,0,1,
scooby_state_416e84|28|23 1,0,0,0,0,0,0,0,0,0,0,0,0,0,0,1,
scooby_state_55bb13|34|1 0,0,0,0,0,0,0,0,0,0,0,0,0,1,0,1,
scooby_state_444178|7|-17 1,0,0,0,0,0,0,0,0,0,0,0,0,0,0,1,
scooby_state_444020|30|14 0,1,0,0,0,0,0,0,0,0,0,0,0,0,0,1,
scooby_state_4168b0|2|2 0,0,1,0,0,0,0,0,0,0,0,0,0,0,0,1,
scooby_state_4340f0|29|-1 0,0,0,0,1,0,0,0,0,0,0,0,0,0,0,1,
scooby_state_4441c7|41|-8 0,0,0,0,0,0,0,0,0,0,0,1,0,0,0,1,
scooby_state_550397|55|39 0,1,0,0,0,0,0,0,0,0,0,0,0,0,0,1,
scooby_state_444178|8|-18 0,0,0,0,0,0,0,0,0,0,0,0,0,1,0,1,
scooby_state_5432c8|2|-8 0,0,0,0,0,0,0,0,0,0,1,0,0,0,0,1,
scooby_state_5549c0|39|1 0,0,0,0,0,0,0,1,0,0,0,0,0,0,0,1,
scooby_state_5432c8|24|-7 0,0,0,0,0,0,0,0,0,0,0,0,0,1,0,1,
scooby_state_41cc81|56|28 1,0,0,0,0,0,0,0,0,0,0,0,0,0,0,1,
scooby_state_5124e1|60|43 0,1,0,0,0,0,0,0,0,0,0,0,0,0,0,1,
scooby_state_444216|20|8 1,0,0,0,0,0,0,0,0,0,0,0,0,0,0,1,
scooby_state_433def|1|-50 1,0,0,0,0,0,0,0,0,0,0,0,0,0,0,1,
scooby_state_4713bc|1|0 0,0,0,0,0,0,0,0,0,0,1,0,0,0,0,1,
scooby_state_549390|16|2 0,0,0,0,0,0,0,0,0,0,0,1,0,0,0,1,
scooby_state_55833c|19|14 0,1,0,0,0,0,0,0,0,0,0,0,0,0,0,1,
scooby_state_5432c8|36|20 0,0,0,0,0,0,0,0,0,0,0,0,1,0,0,1,
scooby_state_444216|15|-10 0,0,1,0,0,0,0,0,0,0,0,0,0,0,0,1,
scooby_state_444186|43|-16 0,0,0,0,1,0,0,0,0,0,0,0,0,0,0,1,
scooby_state_41191a|22|3 0,1,0,0,0,0,0,0,0,0,0,0,0,0,0,1,
scooby_state_55039d|19|18 0,1,0,0,0,0,0,0,0,0,0,0,0,0,0,1,
scooby_state_4168b4|43|35 1,0,0,0,0,0,0,0,0,0,0,0,0,0,0,1,
scooby_state_416eb3|21|-7 0,0,0,0,0,0,0,0,0,0,0,1,0,0,0,1,
scooby_state_4ea019|13|3 0,1,0,0,0,0,0,0,0,0,0,0,0,0,0,1,
scooby_state_416ef9|29|3 1,0,0,0,0,0,0,0,0,0,0,0,0,0,0,1,
scooby_state_444178|55|0 1,0,0,0,0,0,0,0,0,0,0,0,0,0,0,1,
scooby_state_444216|27|16 0,0,0,0,0,0,0,0,0,0,0,1,0,0,0,1,
scooby_state_4168cb|32|-5 1,0,0,0,0,0,0,0,0,0,0,0,0,0,0,1,
scooby_state_5124e1|9|5 0,1,0,0,0,0,0,0,0,0,0,0,0,0,0,1,
scooby_state_55241b|49|0 0,0,1,0,0,0,0,0,0,0,0,0,0,0,0,1,
scooby_state_416eb6|59|56 1,0,0,0,0,0,0,0,0,0,0,0,0,0,0,1,
scooby_state_47d453|24|8 1,0,0,0,0,0,0,0,0,0,0,0,0,0,0,1,
scooby_state_416e84|14|8 1,0,0,0,0,0,0,0,0,0,0,0,0,0,0,1,
scooby_state_550931|54|12 0,0,0,0,1,0,0,0,0,0,0,0,0,0,0,1,
scooby_state_444216|47|31 0,1,0,0,0,0,0,0,0,0,0,0,0,0,0,1,
scooby_state_55833c|13|-30 0,0,0,0,0,1,0,0,0,0,0,0,0,0,0,1,
scooby_state_444020|34|33 0,1,0,0,0,0,0,0,0,0,0,0,0,0,0,1,
scooby_state_444020|49|19 0,0,0,0,1,0,0,0,0,0,0,0,0,0,0,1,
scooby_state_4712ab|47|-2 1,0,0,0,0,0,0,0,0,0,0,0,0,0,0,1,
scooby_state_47e5d4|52|37 0,0,0,0,1,0,0,0,0,0,0,0,0,0,0,1,
scooby_state_41191a|1|-39 1,0,0,0,0,0,0,0,0,0,0,0,0,0,0,1,
scooby_state_41cc81|28|2 0,1,0,0,0,0,0,0,0,0,0,0,0,0,0,1,
scooby_state_4168cb|56|35 0,0,0,0,0,0,0,0,0,0,0,1,0,0,0,1,
scooby_state_55241b|7|0 0,0,1,0,0,0,0,0,0,0,0,0,0,0,0,1,
scooby_state_4712ab|10|-32 0,0,1,0,0,0,0,0,0,0,0,0,0,0,0,1,
scooby_state_4340f0|39|-10 0,1,0,0,0,0,0,0,0,0,0,0,0,0,0,1,
scooby_state_43b8c0|35|1 1,0,0,0,0,0,0,0,0,0,0,0,0,0,0,1,
scooby_state_4168b0|36|35 0,0,1,0,0,0,0,0,0,0,0,0,0,0,0,1,
scooby_state_416ef9|43|-12 1,0,0,0,0,0,0,0,0,0,0,0,0,0,0,1,
scooby_state_549390|42|2 1,0,0,0,0,0,0,0,0,0,0,0,0,0,0,1,
scooby_state_4168b4|26|-14 0,0,0,0,1,0,0,0,0,0,0,0,0,0,0,1,
scooby_state_5507c0|31|1 1,0,0,0,0,0,0,0,0,0,0,0,0,0,0,1,
scooby_state_41d441|17|1 1,0,0,0,0,0,0,0,0,0,0,0,0,0,0,1,
scooby_state_41d1f4|52|33 0,0,1,0,0,0,0,0,0,0,0,0,0,0,0,1,
scooby_state_4712ab|17|-25 1,0,0,0,0,0,0,0,0,0,0,0,0,0,0,1,
scooby_state_4441ba|36|1 0,0,0,0,0,0,0,0,1,0,0,0,0,0,0,1,
scooby_state_5524d8|62|0 0,0,0,0,1,0,0,0,0,0,0,0,0,0,0,1,
scooby_state_47d45d|49|18 0,0,1,0,0,0,0,0,0,0,0,0,0,0,0,1,
scooby_state_55b7b0|4|-12 0,0,0,0,0,0,0,0,0,0,0,0,0,1,0,1,
scooby_state_416ef9|31|-14 1,0,0,0,0,0,0,0,0,0,0,0,0,0,0,1,
scooby_state_4712ab|36|16 1,0,0,0,0,0,0,0,0,0,0,0,0,0,0,1,
scooby_state_53e1c0|7|1 1,0,0,0,0,0,0,0,0,0,0,0,0,0,0,1,
scooby_state_41191a|13|-1 0,0,0,0,0,0,0,0,0,0,1,0,0,0,0,1,
scooby_state_47e5d4|45|33 0,0,0,1,0,0,0,0,0,0,0,0,0,0,0,1,
scooby_state_54515b|32|-26 0,1,0,0,0,0,0,0,0,0,0,0,0,0,0,1,
scooby_state_416eb6|26|19 1,0,0,0,0,0,0,0,0,0,0,0,0,0,0,1,
scooby_state_620aeb|36|11 0,1,0,0,0,0,0,0,0,0,0,0,0,0,0,1,
scooby_state_4168cb|25|-19 0,0,0,0,0,0,0,0,0,0,0,0,0,1,0,1,
scooby_state_44512a|9|-10 0,0,0,0,0,0,0,0,0,0,0,1,0,0,0,1,
scooby_state_445148|49|24 1,0,0,0,0,0,0,0,0,0,0,0,0,0,0,1,
scooby_state_550942|37|0 0,1,0,0,0,0,0,0,0,0,0,0,0,0,0,1,
scooby_state_411c02|48|1 1,0,0,0,0,0,0,0,0,0,0,0,0,0,0,1,
scooby_state_4713b5|51|2 0,0,0,0,0,0,0,0,0,0,0,0,1,0,0,1,
scooby_state_444020|15|-8 0,0,0,0,0,0,0,0,0,0,0,0,0,1,0,1,
scooby_state_41cc81|12|-33 1,0,0,0,0,0,0,0,0,0,0,0,0,0,0,1,
scooby_state_44427d|14|14 0,0,0,0,0,0,0,1,0,0,0,0,0,0,0,1,
scooby_state_416e84|33|15 1,0,0,0,0,0,0,0,0,0,0,0,0,0,0,1,
scooby_state_620901|39|-1 0,1,0,0,0,0,0,0,0,0,0,0,0,0,0,1,
scooby_state_411aac|44|3 0,0,0,0,0,0,1,0,0,0,0,0,0,0,0,1,
scooby_state_444216|41|-2 0,0,0,0,0,0,0,0,0,0,0,1,0,0,0,1,
scooby_state_445148|16|-7 1,0,0,0,0,0,0,0,0,0,0,0,0,0,0,1,
scooby_state_64caa6|36|0 0,0,1,0,0,0,0,0,0,0,0,0,0,0,0,1,
scooby_state_445148|62|27 1,0,0,0,0,0,0,0,0,0,0,0,0,0,0,1,
scooby_state_41191a|51|7 1,0,0,0,0,0,0,0,0,0,0,0,0,0,0,1,
scooby_state_47d45d|19|-17 0,0,1,0,0,0,0,0,0,0,0,0,0,0,0,1,
scooby_state_549100|9|1 1,0,0,0,0,0,0,0,0,0,0,0,0,0,0,1,
scooby_state_54fe9b|60|41 1,0,0,0,0,0,0,0,0,0,0,0,0,0,0,1,
scooby_state_416e84|63|63 0,0,0,0,0,1,0,0,0,0,0,0,0,0,0,1,
scooby_state_416eb6|43|8 1,0,0,0,0,0,0,0,0,0,0,0,0,0,0,1,
scooby_state_416eb6|54|9 1,0,0,0,0,0,0,0,0,0,0,0,0,0,0,1,
scooby_state_4168b4|19|-40 0,0,0,0,1,0,0,0,0,0,0,0,0,0,0,1,
scooby_state_416eb6|26|26 1,0,0,0,0,0,0,0,0,0,0,0,0,0,0,1,
scooby_state_44427d|34|15 1,0,0,0,0,0,0,0,0,0,0,0,0,0,0,1,
scooby_state_4340f0|46|40 1,0,0,0,0,0,0,0,0,0,0,0,0,0,0,1,
scooby_state_4450fb|15|-35 1,0,0,0,0,0,0,0,0,0,0,0,0,0,0,1,
scooby_state_4340f0|57|3 0,0,0,0,0,0,0,0,0,0,0,0,0,0,1,1,
scooby_state_444216|43|41 0,0,0,0,0,0,0,0,0,0,0,1,0,0,0,1,
scooby_state_41cc70|54|-2 0,0,0,0,0,0,0,0,0,0,0,1,0,0,0,1,
scooby_state_416e84|54|37 0,0,0,0,0,0,0,0,0,0,0,1,0,0,0,1,
scooby_state_411aac|47|2 1,0,0,0,0,0,0,0,0,0,0,0,0,0,0,1,
scooby_state_444178|26|-20 1,0,0,0,0,0,0,0,0,0,0,0,0,0,0,1,
scooby_state_41195a|21|-30 1,0,0,0,0,0,0,0,0,0,0,0,0,0,0,1,
scooby_state_47e5d4|43|-1 1,0,0,0,0,0,0,0,0,0,0,0,0,0,0,1,

scooby_action_0_deg_dist 0,20309,0,0,0,0,0,0,0,0,0,0,0,0,0,0,
scooby_action_-6_deg_dist 0,24800,29,0,1,0,0,0,0,0,0,0,0,0,0,0,
scooby_action_4_deg_dist 0,23679,217,0,299,0,58,0,0,0,0,0,0,0,0,0,
scooby_action_1_deg_dist 0,668768,53892,0,41596,0,10434,0,0,0,0,0,0,0,0,0,
scooby_action_30_deg_dist 0,4964,0,0,0,0,0,0,0,0,0,0,0,0,0,0,
scooby_action_5_deg_dist 0,6591,4,0,0,0,0,0,0,0,0,0,0,0,0,0,
scooby_action_3_deg_dist 0,96671,4023,0,900,0,0,0,0,0,0,0,0,0,0,0,
scooby_action_32_deg_dist 0,4580,1,0,0,0,0,0,0,0,0,0,0,0,0,0,
scooby_action_10_deg_dist 0,13536,3,0,0,0,0,0,0,0,0,0,0,0,0,0,
scooby_action_11_deg_dist 0,11895,758,0,482,0,0,0,0,0,0,0,0,0,0,0,
scooby_action_12_deg_dist 0,6754,4,0,0,0,0,0,0,0,0,0,0,0,0,0,
scooby_action_22_deg_dist 0,4924,1,0,0,0,0,0,0,0,0,0,0,0,0,0,
scooby_action_23_deg_dist 0,6031,0,0,0,0,0,0,0,0,0,0,0,0,0,0,
scooby_action_-1_deg_dist 0,52719,78,0,0,0,0,0,0,0,0,0,0,0,0,0,
scooby_action_-3_deg_dist 0,9139,4,0,0,0,0,0,0,0,0,0,0,0,0,0,

scooby_track_called 1068144
scooby_track_same_address 88220
scooby_track_evict 979668

scooby_reward_demand_called 1068144
scooby_reward_demand_pt_not_found 815262
scooby_reward_demand_pt_found 252882
scooby_reward_demand_pt_found_total 252882
scooby_reward_demand_has_reward 1092
scooby_reward_train_called 694373
scooby_reward_assign_reward_called 979748
scooby_reward_no_pref 20300
scooby_reward_incorrect 674073
scooby_reward_correct_untimely 108983
scooby_reward_correct_timely 142807
scooby_reward_out_of_bounds 33585
scooby_reward_tracker_hit 0

scooby_reward_none_low_bw 20300
scooby_reward_none_high_bw 0
scooby_reward_incorrect_low_bw 674073
scooby_reward_incorrect_high_bw 0
scooby_reward_correct_untimely_low_bw 108983
scooby_reward_correct_untimely_high_bw 0
scooby_reward_correct_timely_low_bw 142807
scooby_reward_correct_timely_high_bw 0
scooby_reward_out_of_bounds_low_bw 33585
scooby_reward_out_of_bounds_high_bw 0
scooby_reward_tracker_hit_low_bw 0
scooby_reward_tracker_hit_high_bw 0

scooby_reward_1 0,541462,87990,86439,10900,0,
scooby_reward_3 0,43563,6480,36877,4570,0,
scooby_reward_4 0,11428,2644,2923,1400,0,
scooby_reward_5 0,5098,111,185,462,0,
scooby_reward_10 0,8417,1158,1596,1956,0,
scooby_reward_11 0,7311,220,3083,2105,0,
scooby_reward_12 0,4831,282,242,1050,0,
scooby_reward_22 0,3292,30,73,1437,0,
scooby_reward_23 0,3689,32,266,1949,0,
scooby_reward_30 0,2700,75,133,1964,0,
scooby_reward_32 0,2476,22,40,1951,0,
scooby_reward_-1 0,20550,8807,3671,668,0,
scooby_reward_-3 0,5720,519,150,359,0,
scooby_reward_-6 0,13536,613,7129,2814,0,
scooby_reward_0 20300,0,0,0,0,0,

scooby_train_called 979667
scooby_train_compute_reward 694373

scooby_register_fill_called 655857
scooby_register_fill_set 579893
scooby_register_fill_set_total 579893

scooby_register_prefetch_hit_called 354732
scooby_register_prefetch_hit_set 298742
scooby_register_prefetch_hit_set_total 298742

scooby_pref_issue_scooby 1111482

learning_engine_featurewise.action.called 1068144
learning_engine_featurewise.action.explore 1961
learning_engine_featurewise.action.exploit 1066183
learning_engine_featurewise.action.fallback 448320
learning_engine_featurewise.action.dyn_fallback_saved_bw 0
learning_engine_featurewise.action.dyn_fallback_saved_bw_acc 22648
learning_engine_featurewise.action.index_1_explored 130
learning_engine_featurewise.action.index_1_exploited 774560
learning_engine_featurewise.action.index_3_explored 140
learning_engine_featurewise.action.index_3_exploited 101454
learning_engine_featurewise.action.index_4_explored 136
learning_engine_featurewise.action.index_4_exploited 24117
learning_engine_featurewise.action.index_5_explored 126
learning_engine_featurewise.action.index_5_exploited 6469
learning_engine_featurewise.action.index_10_explored 143
learning_engine_featurewise.action.index_10_exploited 13396
learning_engine_featurewise.action.index_11_explored 126
learning_engine_featurewise.action.index_11_exploited 13009
learning_engine_featurewise.action.index_12_explored 135
learning_engine_featurewise.action.index_12_exploited 6623
learning_engine_featurewise.action.index_22_explored 138
learning_engine_featurewise.action.index_22_exploited 4787
learning_engine_featurewise.action.index_23_explored 132
learning_engine_featurewise.action.index_23_exploited 5899
learning_engine_featurewise.action.index_30_explored 142
learning_engine_featurewise.action.index_30_exploited 4822
learning_engine_featurewise.action.index_32_explored 114
learning_engine_featurewise.action.index_32_exploited 4467
learning_engine_featurewise.action.index_-1_explored 128
learning_engine_featurewise.action.index_-1_exploited 52669
learning_engine_featurewise.action.index_-3_explored 126
learning_engine_featurewise.action.index_-3_exploited 9017
learning_engine_featurewise.action.index_-6_explored 113
learning_engine_featurewise.action.index_-6_exploited 24717
learning_engine_featurewise.action.index_0_explored 132
learning_engine_featurewise.action.index_0_exploited 20177
learning_engine_featurewise.learn.called 979667
learning_engine_featurewise.learn.su_skip_PC 0
learning_engine_featurewise.learn.su_skip_PC_Delta 0

learning_engine_featurewise.q_value_histogram.bucket_0 1584
learning_engine_featurewise.q_value_histogram.bucket_1 4371
learning_engine_featurewise.q_value_histogram.bucket_2 552193
learning_engine_featurewise.q_value_histogram.bucket_3 89281
learning_engine_featurewise.q_value_histogram.bucket_4 114346
learning_engine_featurewise.q_value_histogram.bucket_5 155268
learning_engine_featurewise.q_value_histogram.bucket_6 149140
learning_engine_featurewise.q_value_histogram.bucket_7 0

learning_engine_featurewise.consensus.total 1066183
learning_engine_featurewise.consensus.feature_align_PC 920503
learning_engine_featurewise.consensus.feature_align_PC_ratio 0.86
learning_engine_featurewise.consensus.feature_align_PC_Delta 909735
learning_engine_featurewise.consensus.feature_align_PC_Delta_ratio 0.85
learning_engine_featurewise.consensus.feature_align_all 769623
learning_engine_featurewise.consensus.feature_align_all_ratio 0.72

learning_engine_featurewise.feature_PC_min_weight 1000000.00000000
learning_engine_featurewise.feature_PC_max_weight 0.00000000
learning_engine_featurewise.feature_PC_Delta_min_weight 1000000.00000000
learning_engine_featurewise.feature_PC_Delta_max_weight 0.00000000
unique_pcs 1112
unique_pages 45201
unique_trigger_pcs 590
total_bitmaps_seen 0
unique_bitmaps_seen 0

scooby_bw_epochs 824557
scooby_bw_level_0 774382
scooby_bw_level_1 48817
scooby_bw_level_2 1352
scooby_bw_level_3 6

scooby_ipc_epochs 0
scooby_ipc_level_0 0
scooby_ipc_level_1 0
scooby_ipc_level_2 0
scooby_ipc_level_3 0

scooby_cache_acc_epochs 185511
scooby_cache_acc_level_0 36473
scooby_cache_acc_level_1 28089
scooby_cache_acc_level_2 31248
scooby_cache_acc_level_3 27815
scooby_cache_acc_level_4 17956
scooby_cache_acc_level_5 18872
scooby_cache_acc_level_6 9872
scooby_cache_acc_level_7 5843
scooby_cache_acc_level_8 3136
scooby_cache_acc_level_9 6207

Channel_0_RQ_row_buffer_hit 100406
Channel_0_RQ_row_buffer_miss 608629
Channel_0_WQ_row_buffer_hit 39927
Channel_0_WQ_row_buffer_miss 185189
Channel_0_WQ_full 0
Channel_0_dbus_congested 336875

avg_congested_cycle 8

DRAM_bw_pochs 824557
DRAM_bw_level_0 774382
DRAM_bw_level_1 48817
DRAM_bw_level_2 1352
DRAM_bw_level_3 6
