*************************************************
   ChampSim Multicore Out-of-Order Simulator
   Last compiled: Apr  3 2025 20:54:34
*************************************************
parsing config file: /home/zir/Pythia/config/pythia.ini

trace_0 /home/zir/ChampSim/ML-DPC/ChampSimTraces/spec17/623.xalancbmk-s1.trace.xz
adding L2C_PREFETCHER: Scooby
Initialize SHIP state
warmup_instructions 10000000
simulation_instructions 50000000
champsim_seed 164
measure_ipc 0
measure_ipc_epoch 1000
measure_dram_bw 1
measure_dram_bw_epoch 256
measure_cache_acc 1
measure_cache_acc_epoch 1024
l1d_perfect 0
l2c_perfect 0
llc_perfect 0
l1d_semi_perfect 0
l2c_semi_perfect 0
llc_semi_perfect 0
semi_perfect_cache_page_buffer_size 64

num_cpus 1
cpu_freq 4000
dram_io_freq 2400
page_size 4096
block_size 64
max_read_per_cycle 8
max_fill_per_cycle 1
dram_channels 1
log2_dram_channels 0
dram_ranks 1
dram_banks 8
dram_rows 65536
dram_columns 128
dram_row_size 8
dram_size 4096
dram_pages 1048576

fetch_width 6
decode_width 6
exec_width 4
lq_width 2
sq_width 2
retire_width 4
scheduler_size 128
branch_mispredict_penalty 20
rob_size 256
lq_size 72
sq_size 56
num_instr_destinations_sparc 4
num_instr_destinations 2
num_instr_sources 4

itlb_set 16
itlb_way 8
itlb_rq_size 16
itlb_wq_size 16
itlb_pq_size 0
itlb_mshr_size 8
itlb_latency 1

dtlb_set 16
dtlb_way 4
dtlb_rq_size 16
dtlb_wq_size 16
dtlb_pq_size 0
dtlb_mshr_size 8
dtlb_latency 1

stlb_set 128
stlb_way 12
stlb_rq_size 32
stlb_wq_size 32
stlb_pq_size 0
stlb_mshr_size 16
stlb_latency 8

l1i_size 32
l1i_set 64
l1i_way 8
l1i_rq_size 64
l1i_wq_size 64
l1i_pq_size 8
l1i_mshr_size 8
l1i_latency 1

l1d_size 32
l1d_set 64
l1d_way 8
l1d_rq_size 64
l1d_wq_size 64
l1d_pq_size 8
l1d_mshr_size 16
l1d_latency 4

l2c_size 256
l2c_set 512
l2c_way 8
l2c_rq_size 32
l2c_wq_size 32
l2c_pq_size 32
l2c_mshr_size 32
l2c_latency 10

llc_size 2048
llc_set 2048
llc_way 16
llc_rq_size 32
llc_wq_size 32
llc_pq_size 32
llc_mshr_size 64
llc_latency 20

dram_channel_width 8
dram_wq_size 64
dram_rq_size 64
tRP 15
tRCD 15
tCAS 12.5
dram_dbus_turn_around_time 30
dram_write_high_wm 56
dram_write_low_wm 48
min_dram_writes_per_switch 16
dram_mtps 2400
dram_dbus_return_time 13

scooby_alpha 0.0065088
scooby_gamma 0.556301
scooby_epsilon 0.00182284
scooby_state_num_bits 10
scooby_max_states 1024
scooby_seed 200
scooby_policy EGreedy
scooby_learning_type SARSA
scooby_actions 1,3,4,5,10,11,12,22,23,30,32,-1,-3,-6,0,
scooby_max_actions 15
scooby_pt_size 256
scooby_st_size 64
scooby_max_pcs 5
scooby_max_offsets 5
scooby_max_deltas 5
scooby_reward_none -4
scooby_reward_incorrect -8
scooby_reward_correct_untimely 12
scooby_reward_correct_timely 20
scooby_brain_zero_init 0
scooby_enable_reward_all 0
scooby_enable_track_multiple 0
scooby_enable_reward_out_of_bounds 1
scooby_reward_out_of_bounds -12
scooby_state_type 1
scooby_state_hash_type 11
scooby_access_debug 0
scooby_print_access_debug 0
scooby_print_access_debug_pc deadbeef
scooby_print_access_debug_pc_count 0
scooby_print_trace 0
scooby_enable_state_action_stats 1
scooby_enable_reward_tracker_hit 0
scooby_reward_tracker_hit -2
scooby_enable_featurewise_engine 1
scooby_pref_degree 1
scooby_enable_dyn_degree 1
scooby_max_to_avg_q_thresholds 0.5,1,2,
scooby_dyn_degrees 1,2,4,4,
scooby_multi_deg_select_type 2
scooby_last_pref_offset_conf_thresholds 1,3,8,
scooby_dyn_degrees_type2 1,2,4,6,
scooby_action_tracker_size 2
scooby_high_bw_thresh 4
scooby_enable_hbw_reward 1
scooby_reward_hbw_correct_timely 20
scooby_reward_hbw_correct_untimely 12
scooby_reward_hbw_incorrect -14
scooby_reward_hbw_none -2
scooby_reward_hbw_out_of_bounds -12
scooby_reward_hbw_tracker_hit -2
scooby_last_pref_offset_conf_thresholds_hbw 1,3,8,
scooby_dyn_degrees_type2_hbw 1,2,4,6,

le_enable_trace 0
le_trace_interval 0
le_trace_file_name 
le_trace_state 0
le_enable_score_plot 0
le_plot_file_name 
le_plot_actions 
le_enable_action_trace 0
le_action_trace_interval 0
le_action_trace_name 
le_enable_action_plot 0

le_featurewise_active_features PC, PC_Delta
le_featurewise_num_tilings 3,3,
le_featurewise_num_tiles 128,128,
le_featurewise_hash_types 2,2,
le_featurewise_enable_tiling_offset 1,1,
le_featurewise_max_q_thresh 0.5
le_featurewise_enable_action_fallback 1
le_featurewise_feature_weights 1,1,
le_featurewise_enable_dynamic_weight 0
le_featurewise_weight_gradient 0.001
le_featurewise_disable_adjust_weight_all_features_align 1
le_featurewise_selective_update 0
le_featurewise_pooling_type 2
le_featurewise_enable_dyn_action_fallback 1
le_featurewise_bw_acc_check_level 1
le_featurewise_acc_thresh 2
le_featurewise_enable_trace 0
le_featurewise_trace_feature_type 0
le_featurewise_trace_feature 
le_featurewise_trace_interval 0
le_featurewise_trace_record_count 0
le_featurewise_trace_file_name 
le_featurewise_enable_score_plot 0
le_featurewise_plot_actions 
le_featurewise_plot_file_name 


Heartbeat CPU  0 instructions:    1000001 cycles:     439749 heartbeat IPC: 2.27403 cumulative IPC: 2.27403 (Simulation time: 0 hr 0 min 1 sec) 
Heartbeat CPU  0 instructions:    2000002 cycles:     872480 heartbeat IPC: 2.31091 cumulative IPC: 2.29232 (Simulation time: 0 hr 0 min 3 sec) 
Heartbeat CPU  0 instructions:    3000002 cycles:    1307871 heartbeat IPC: 2.29679 cumulative IPC: 2.29381 (Simulation time: 0 hr 0 min 5 sec) 
Heartbeat CPU  0 instructions:    4000000 cycles:    1743328 heartbeat IPC: 2.29643 cumulative IPC: 2.29446 (Simulation time: 0 hr 0 min 6 sec) 
Heartbeat CPU  0 instructions:    5000000 cycles:    2175233 heartbeat IPC: 2.31532 cumulative IPC: 2.29860 (Simulation time: 0 hr 0 min 8 sec) 
Heartbeat CPU  0 instructions:    6000003 cycles:    2611338 heartbeat IPC: 2.29303 cumulative IPC: 2.29767 (Simulation time: 0 hr 0 min 10 sec) 
Heartbeat CPU  0 instructions:    7000000 cycles:    3041994 heartbeat IPC: 2.32203 cumulative IPC: 2.30112 (Simulation time: 0 hr 0 min 12 sec) 
Heartbeat CPU  0 instructions:    8000000 cycles:    3476859 heartbeat IPC: 2.29956 cumulative IPC: 2.30093 (Simulation time: 0 hr 0 min 13 sec) 
Heartbeat CPU  0 instructions:    9000001 cycles:    3907058 heartbeat IPC: 2.32451 cumulative IPC: 2.30352 (Simulation time: 0 hr 0 min 15 sec) 
Heartbeat CPU  0 instructions:   10000001 cycles:    4342015 heartbeat IPC: 2.29908 cumulative IPC: 2.30308 (Simulation time: 0 hr 0 min 17 sec) 

Warmup complete CPU  0 instructions:   10000001 cycles:    4342015 (Simulation time: 0 hr 0 min 17 sec) 

Heartbeat CPU  0 instructions:   11000000 cycles:    5400792 heartbeat IPC: 0.94449 cumulative IPC: 0.94449 (Simulation time: 0 hr 0 min 19 sec) 
Heartbeat CPU  0 instructions:   12000000 cycles:    6449939 heartbeat IPC: 0.95316 cumulative IPC: 0.94880 (Simulation time: 0 hr 0 min 21 sec) 
Heartbeat CPU  0 instructions:   13000000 cycles:    7513940 heartbeat IPC: 0.93985 cumulative IPC: 0.94580 (Simulation time: 0 hr 0 min 23 sec) 
Heartbeat CPU  0 instructions:   14000001 cycles:    8558353 heartbeat IPC: 0.95748 cumulative IPC: 0.94869 (Simulation time: 0 hr 0 min 25 sec) 
Heartbeat CPU  0 instructions:   15000001 cycles:    9638149 heartbeat IPC: 0.92610 cumulative IPC: 0.94408 (Simulation time: 0 hr 0 min 27 sec) 
Heartbeat CPU  0 instructions:   16000000 cycles:   10668226 heartbeat IPC: 0.97080 cumulative IPC: 0.94843 (Simulation time: 0 hr 0 min 30 sec) 
Heartbeat CPU  0 instructions:   17000000 cycles:   11751992 heartbeat IPC: 0.92271 cumulative IPC: 0.94467 (Simulation time: 0 hr 0 min 32 sec) 
Heartbeat CPU  0 instructions:   18000000 cycles:   12781901 heartbeat IPC: 0.97096 cumulative IPC: 0.94788 (Simulation time: 0 hr 0 min 34 sec) 
Heartbeat CPU  0 instructions:   19000003 cycles:   13858832 heartbeat IPC: 0.92857 cumulative IPC: 0.94569 (Simulation time: 0 hr 0 min 36 sec) 
Heartbeat CPU  0 instructions:   20000000 cycles:   14909169 heartbeat IPC: 0.95207 cumulative IPC: 0.94633 (Simulation time: 0 hr 0 min 38 sec) 
Heartbeat CPU  0 instructions:   21000002 cycles:   15967031 heartbeat IPC: 0.94530 cumulative IPC: 0.94624 (Simulation time: 0 hr 0 min 40 sec) 
Heartbeat CPU  0 instructions:   22000000 cycles:   17028072 heartbeat IPC: 0.94247 cumulative IPC: 0.94592 (Simulation time: 0 hr 0 min 42 sec) 
Heartbeat CPU  0 instructions:   23000001 cycles:   18075897 heartbeat IPC: 0.95436 cumulative IPC: 0.94656 (Simulation time: 0 hr 0 min 45 sec) 
Heartbeat CPU  0 instructions:   24000000 cycles:   19154149 heartbeat IPC: 0.92743 cumulative IPC: 0.94517 (Simulation time: 0 hr 0 min 47 sec) 
Heartbeat CPU  0 instructions:   25000001 cycles:   20186165 heartbeat IPC: 0.96898 cumulative IPC: 0.94672 (Simulation time: 0 hr 0 min 49 sec) 
Heartbeat CPU  0 instructions:   26000002 cycles:   21267602 heartbeat IPC: 0.92470 cumulative IPC: 0.94531 (Simulation time: 0 hr 0 min 51 sec) 
Heartbeat CPU  0 instructions:   27000000 cycles:   22295614 heartbeat IPC: 0.97275 cumulative IPC: 0.94689 (Simulation time: 0 hr 0 min 53 sec) 
Heartbeat CPU  0 instructions:   28000000 cycles:   23380511 heartbeat IPC: 0.92175 cumulative IPC: 0.94545 (Simulation time: 0 hr 0 min 55 sec) 
Heartbeat CPU  0 instructions:   29000003 cycles:   24418338 heartbeat IPC: 0.96355 cumulative IPC: 0.94639 (Simulation time: 0 hr 0 min 57 sec) 
Heartbeat CPU  0 instructions:   30000001 cycles:   25491521 heartbeat IPC: 0.93181 cumulative IPC: 0.94565 (Simulation time: 0 hr 0 min 59 sec) 
Heartbeat CPU  0 instructions:   31000002 cycles:   26549551 heartbeat IPC: 0.94515 cumulative IPC: 0.94563 (Simulation time: 0 hr 1 min 2 sec) 
Heartbeat CPU  0 instructions:   32000000 cycles:   27601933 heartbeat IPC: 0.95022 cumulative IPC: 0.94583 (Simulation time: 0 hr 1 min 4 sec) 
Heartbeat CPU  0 instructions:   33000000 cycles:   28661706 heartbeat IPC: 0.94360 cumulative IPC: 0.94574 (Simulation time: 0 hr 1 min 6 sec) 
Heartbeat CPU  0 instructions:   34000003 cycles:   29709870 heartbeat IPC: 0.95405 cumulative IPC: 0.94608 (Simulation time: 0 hr 1 min 8 sec) 
Heartbeat CPU  0 instructions:   35000001 cycles:   30782253 heartbeat IPC: 0.93250 cumulative IPC: 0.94553 (Simulation time: 0 hr 1 min 10 sec) 
Heartbeat CPU  0 instructions:   36000000 cycles:   31812157 heartbeat IPC: 0.97096 cumulative IPC: 0.94648 (Simulation time: 0 hr 1 min 12 sec) 
Heartbeat CPU  0 instructions:   37000001 cycles:   32888176 heartbeat IPC: 0.92935 cumulative IPC: 0.94584 (Simulation time: 0 hr 1 min 14 sec) 
Heartbeat CPU  0 instructions:   38000000 cycles:   33914844 heartbeat IPC: 0.97402 cumulative IPC: 0.94682 (Simulation time: 0 hr 1 min 16 sec) 
Heartbeat CPU  0 instructions:   39000000 cycles:   34991365 heartbeat IPC: 0.92892 cumulative IPC: 0.94619 (Simulation time: 0 hr 1 min 19 sec) 
Heartbeat CPU  0 instructions:   40000000 cycles:   36033381 heartbeat IPC: 0.95968 cumulative IPC: 0.94663 (Simulation time: 0 hr 1 min 21 sec) 
Heartbeat CPU  0 instructions:   41000000 cycles:   37094273 heartbeat IPC: 0.94260 cumulative IPC: 0.94650 (Simulation time: 0 hr 1 min 23 sec) 
Heartbeat CPU  0 instructions:   42000002 cycles:   38153271 heartbeat IPC: 0.94429 cumulative IPC: 0.94643 (Simulation time: 0 hr 1 min 25 sec) 
Heartbeat CPU  0 instructions:   43000000 cycles:   39198146 heartbeat IPC: 0.95705 cumulative IPC: 0.94675 (Simulation time: 0 hr 1 min 27 sec) 
Heartbeat CPU  0 instructions:   44000000 cycles:   40258495 heartbeat IPC: 0.94309 cumulative IPC: 0.94664 (Simulation time: 0 hr 1 min 29 sec) 
Heartbeat CPU  0 instructions:   45000001 cycles:   41301060 heartbeat IPC: 0.95917 cumulative IPC: 0.94699 (Simulation time: 0 hr 1 min 31 sec) 
Heartbeat CPU  0 instructions:   46000002 cycles:   42376784 heartbeat IPC: 0.92961 cumulative IPC: 0.94650 (Simulation time: 0 hr 1 min 34 sec) 
Heartbeat CPU  0 instructions:   47000001 cycles:   43405958 heartbeat IPC: 0.97165 cumulative IPC: 0.94717 (Simulation time: 0 hr 1 min 36 sec) 
Heartbeat CPU  0 instructions:   48000000 cycles:   44484406 heartbeat IPC: 0.92726 cumulative IPC: 0.94663 (Simulation time: 0 hr 1 min 38 sec) 
Heartbeat CPU  0 instructions:   49000001 cycles:   45513778 heartbeat IPC: 0.97147 cumulative IPC: 0.94725 (Simulation time: 0 hr 1 min 40 sec) 
Heartbeat CPU  0 instructions:   50000003 cycles:   46589068 heartbeat IPC: 0.92998 cumulative IPC: 0.94681 (Simulation time: 0 hr 1 min 42 sec) 
Heartbeat CPU  0 instructions:   51000002 cycles:   47637852 heartbeat IPC: 0.95348 cumulative IPC: 0.94697 (Simulation time: 0 hr 1 min 44 sec) 
Heartbeat CPU  0 instructions:   52000000 cycles:   48693563 heartbeat IPC: 0.94723 cumulative IPC: 0.94698 (Simulation time: 0 hr 1 min 46 sec) 
Heartbeat CPU  0 instructions:   53000001 cycles:   49755124 heartbeat IPC: 0.94201 cumulative IPC: 0.94686 (Simulation time: 0 hr 1 min 49 sec) 
Heartbeat CPU  0 instructions:   54000000 cycles:   50797507 heartbeat IPC: 0.95934 cumulative IPC: 0.94714 (Simulation time: 0 hr 1 min 51 sec) 
Heartbeat CPU  0 instructions:   55000000 cycles:   51865895 heartbeat IPC: 0.93599 cumulative IPC: 0.94689 (Simulation time: 0 hr 1 min 53 sec) 
Heartbeat CPU  0 instructions:   56000000 cycles:   52901357 heartbeat IPC: 0.96575 cumulative IPC: 0.94729 (Simulation time: 0 hr 1 min 55 sec) 
Heartbeat CPU  0 instructions:   57000002 cycles:   53976577 heartbeat IPC: 0.93004 cumulative IPC: 0.94692 (Simulation time: 0 hr 1 min 57 sec) 
Heartbeat CPU  0 instructions:   58000002 cycles:   55004122 heartbeat IPC: 0.97319 cumulative IPC: 0.94745 (Simulation time: 0 hr 1 min 59 sec) 
Heartbeat CPU  0 instructions:   59000001 cycles:   56082534 heartbeat IPC: 0.92729 cumulative IPC: 0.94703 (Simulation time: 0 hr 2 min 1 sec) 
Heartbeat CPU  0 instructions:   60000000 cycles:   57115215 heartbeat IPC: 0.96835 cumulative IPC: 0.94745 (Simulation time: 0 hr 2 min 3 sec) 
Finished CPU 0 instructions: 50000002 cycles: 52773213 cumulative IPC: 0.94745 (Simulation time: 0 hr 2 min 3 sec) 

ChampSim completed all CPUs

[ROI Statistics]
Core_0_instructions 50000002
Core_0_cycles 52773213
Core_0_IPC 0.94745

Core_0_branch_prediction_accuracy 99.97853
Core_0_branch_MPKI 0.05708
Core_0_average_ROB_occupancy_at_mispredict 225.23651

Core_0_L1D_total_access 9294695
Core_0_L1D_total_hit 8343475
Core_0_L1D_total_miss 951220
Core_0_L1D_loads 8638872
Core_0_L1D_load_hit 7687932
Core_0_L1D_load_miss 950940
Core_0_L1D_RFOs 655823
Core_0_L1D_RFO_hit 655543
Core_0_L1D_RFO_miss 280
Core_0_L1D_prefetches 0
Core_0_L1D_prefetch_hit 0
Core_0_L1D_prefetch_miss 0
Core_0_L1D_writebacks 0
Core_0_L1D_writeback_hit 0
Core_0_L1D_writeback_miss 0
Core_0_L1D_prefetch_requested 0
Core_0_L1D_prefetch_dropped 0
Core_0_L1D_prefetch_issued 0
Core_0_L1D_prefetch_filled 0
Core_0_L1D_prefetch_useful 0
Core_0_L1D_prefetch_useless 0
Core_0_L1D_prefetch_late 0
Core_0_L1D_average_miss_latency 18.91938

Core_0_L1D_rq_access 14751817
Core_0_L1D_rq_forward 0
Core_0_L1D_rq_merged 5788980
Core_0_L1D_rq_to_cache 8962837
Core_0_L1D_rq_full 0

Core_0_L1D_wq_access 656260
Core_0_L1D_wq_forward 0
Core_0_L1D_wq_merged 0
Core_0_L1D_wq_to_cache 656260
Core_0_L1D_wq_full 0

Core_0_L1D_pq_access 0
Core_0_L1D_pq_forward 0
Core_0_L1D_pq_merged 0
Core_0_L1D_pq_to_cache 0
Core_0_L1D_pq_full 0

Core_0_L1D_acc_epochs 55771
Core_0_L1D_acc_level_0 55771
Core_0_L1D_acc_level_1 0
Core_0_L1D_acc_level_2 0
Core_0_L1D_acc_level_3 0
Core_0_L1D_acc_level_4 0
Core_0_L1D_acc_level_5 0
Core_0_L1D_acc_level_6 0
Core_0_L1D_acc_level_7 0
Core_0_L1D_acc_level_8 0
Core_0_L1D_acc_level_9 0

Core_0_L1I_total_access 17586196
Core_0_L1I_total_hit 17586196
Core_0_L1I_total_miss 0
Core_0_L1I_loads 17586196
Core_0_L1I_load_hit 17586196
Core_0_L1I_load_miss 0
Core_0_L1I_RFOs 0
Core_0_L1I_RFO_hit 0
Core_0_L1I_RFO_miss 0
Core_0_L1I_prefetches 0
Core_0_L1I_prefetch_hit 0
Core_0_L1I_prefetch_miss 0
Core_0_L1I_writebacks 0
Core_0_L1I_writeback_hit 0
Core_0_L1I_writeback_miss 0
Core_0_L1I_prefetch_requested 0
Core_0_L1I_prefetch_dropped 0
Core_0_L1I_prefetch_issued 0
Core_0_L1I_prefetch_filled 0
Core_0_L1I_prefetch_useful 0
Core_0_L1I_prefetch_useless 0
Core_0_L1I_prefetch_late 0
Core_0_L1I_average_miss_latency -nan

Core_0_L1I_rq_access 50000006
Core_0_L1I_rq_forward 0
Core_0_L1I_rq_merged 32413810
Core_0_L1I_rq_to_cache 17586196
Core_0_L1I_rq_full 0

Core_0_L1I_wq_access 0
Core_0_L1I_wq_forward 0
Core_0_L1I_wq_merged 0
Core_0_L1I_wq_to_cache 0
Core_0_L1I_wq_full 0

Core_0_L1I_pq_access 0
Core_0_L1I_pq_forward 0
Core_0_L1I_pq_merged 0
Core_0_L1I_pq_to_cache 0
Core_0_L1I_pq_full 0

Core_0_L1I_acc_epochs 55771
Core_0_L1I_acc_level_0 55771
Core_0_L1I_acc_level_1 0
Core_0_L1I_acc_level_2 0
Core_0_L1I_acc_level_3 0
Core_0_L1I_acc_level_4 0
Core_0_L1I_acc_level_5 0
Core_0_L1I_acc_level_6 0
Core_0_L1I_acc_level_7 0
Core_0_L1I_acc_level_8 0
Core_0_L1I_acc_level_9 0

Core_0_L2C_total_access 3112435
Core_0_L2C_total_hit 2085812
Core_0_L2C_total_miss 1026623
Core_0_L2C_loads 950940
Core_0_L2C_load_hit 838417
Core_0_L2C_load_miss 112523
Core_0_L2C_RFOs 280
Core_0_L2C_RFO_hit 134
Core_0_L2C_RFO_miss 146
Core_0_L2C_prefetches 2160803
Core_0_L2C_prefetch_hit 1246849
Core_0_L2C_prefetch_miss 913954
Core_0_L2C_writebacks 412
Core_0_L2C_writeback_hit 412
Core_0_L2C_writeback_miss 0
Core_0_L2C_prefetch_requested 4023745
Core_0_L2C_prefetch_dropped 0
Core_0_L2C_prefetch_issued 4023745
Core_0_L2C_prefetch_filled 1099736
Core_0_L2C_prefetch_useful 1008938
Core_0_L2C_prefetch_useless 90501
Core_0_L2C_prefetch_late 28521
Core_0_L2C_average_miss_latency 45.62842

Core_0_L2C_rq_access 951220
Core_0_L2C_rq_forward 0
Core_0_L2C_rq_merged 0
Core_0_L2C_rq_to_cache 951220
Core_0_L2C_rq_full 0

Core_0_L2C_wq_access 412
Core_0_L2C_wq_forward 0
Core_0_L2C_wq_merged 0
Core_0_L2C_wq_to_cache 412
Core_0_L2C_wq_full 0

Core_0_L2C_pq_access 4023745
Core_0_L2C_pq_forward 0
Core_0_L2C_pq_merged 1049074
Core_0_L2C_pq_to_cache 2974671
Core_0_L2C_pq_full 0

Core_0_L2C_acc_epochs 55771
Core_0_L2C_acc_level_0 6
Core_0_L2C_acc_level_1 27
Core_0_L2C_acc_level_2 30
Core_0_L2C_acc_level_3 30
Core_0_L2C_acc_level_4 45
Core_0_L2C_acc_level_5 54
Core_0_L2C_acc_level_6 44
Core_0_L2C_acc_level_7 715
Core_0_L2C_acc_level_8 18731
Core_0_L2C_acc_level_9 36089

Core_0_LLC_total_access 1027035
Core_0_LLC_total_hit 839102
Core_0_LLC_total_miss 187933
Core_0_LLC_loads 84473
Core_0_LLC_load_hit 71524
Core_0_LLC_load_miss 12949
Core_0_LLC_RFOs 146
Core_0_LLC_RFO_hit 108
Core_0_LLC_RFO_miss 38
Core_0_LLC_prefetches 942004
Core_0_LLC_prefetch_hit 767064
Core_0_LLC_prefetch_miss 174940
Core_0_LLC_writebacks 412
Core_0_LLC_writeback_hit 406
Core_0_LLC_writeback_miss 6
Core_0_LLC_prefetch_requested 0
Core_0_LLC_prefetch_dropped 0
Core_0_LLC_prefetch_issued 0
Core_0_LLC_prefetch_filled 236226
Core_0_LLC_prefetch_useful 1925
Core_0_LLC_prefetch_useless 206557
Core_0_LLC_prefetch_late 0
Core_0_LLC_average_miss_latency 88.60465

Core_0_LLC_rq_access 84619
Core_0_LLC_rq_forward 0
Core_0_LLC_rq_merged 0
Core_0_LLC_rq_to_cache 84619
Core_0_LLC_rq_full 0

Core_0_LLC_wq_access 412
Core_0_LLC_wq_forward 0
Core_0_LLC_wq_merged 0
Core_0_LLC_wq_to_cache 412
Core_0_LLC_wq_full 0

Core_0_LLC_pq_access 1128257
Core_0_LLC_pq_forward 0
Core_0_LLC_pq_merged 0
Core_0_LLC_pq_to_cache 1128257
Core_0_LLC_pq_full 0

Core_0_LLC_acc_epochs 55777
Core_0_LLC_acc_level_0 55514
Core_0_LLC_acc_level_1 105
Core_0_LLC_acc_level_2 77
Core_0_LLC_acc_level_3 4
Core_0_LLC_acc_level_4 1
Core_0_LLC_acc_level_5 59
Core_0_LLC_acc_level_6 4
Core_0_LLC_acc_level_7 0
Core_0_LLC_acc_level_8 0
Core_0_LLC_acc_level_9 13

Core_0_major_page_fault 0
Core_0_minor_page_fault 698

scooby_st_lookup 1141127
scooby_st_hit 1120777
scooby_st_evict 20286
scooby_st_insert 20350
scooby_st_streaming 0

scooby_predict_called 1141127
scooby_predict_out_of_bounds 24709
scooby_predict_action_1 923339
scooby_predict_issue_action_1 732773
scooby_predict_hit_action_1 190566
scooby_predict_out_of_bounds_action_1 14995
scooby_predict_action_3 191550
scooby_predict_issue_action_3 190954
scooby_predict_hit_action_3 596
scooby_predict_out_of_bounds_action_3 9379
scooby_predict_action_4 141
scooby_predict_issue_action_4 141
scooby_predict_hit_action_4 0
scooby_predict_out_of_bounds_action_4 10
scooby_predict_action_5 133
scooby_predict_issue_action_5 133
scooby_predict_hit_action_5 0
scooby_predict_out_of_bounds_action_5 9
scooby_predict_action_10 138
scooby_predict_issue_action_10 138
scooby_predict_hit_action_10 0
scooby_predict_out_of_bounds_action_10 20
scooby_predict_action_11 117
scooby_predict_issue_action_11 117
scooby_predict_hit_action_11 0
scooby_predict_out_of_bounds_action_11 24
scooby_predict_action_12 131
scooby_predict_issue_action_12 131
scooby_predict_hit_action_12 0
scooby_predict_out_of_bounds_action_12 21
scooby_predict_action_22 101
scooby_predict_issue_action_22 101
scooby_predict_hit_action_22 0
scooby_predict_out_of_bounds_action_22 52
scooby_predict_action_23 89
scooby_predict_issue_action_23 89
scooby_predict_hit_action_23 0
scooby_predict_out_of_bounds_action_23 57
scooby_predict_action_30 89
scooby_predict_issue_action_30 89
scooby_predict_hit_action_30 0
scooby_predict_out_of_bounds_action_30 62
scooby_predict_action_32 63
scooby_predict_issue_action_32 63
scooby_predict_hit_action_32 0
scooby_predict_out_of_bounds_action_32 63
scooby_predict_action_-1 136
scooby_predict_issue_action_-1 30
scooby_predict_hit_action_-1 106
scooby_predict_out_of_bounds_action_-1 0
scooby_predict_action_-3 130
scooby_predict_issue_action_-3 40
scooby_predict_hit_action_-3 90
scooby_predict_out_of_bounds_action_-3 9
scooby_predict_action_-6 118
scooby_predict_issue_action_-6 34
scooby_predict_hit_action_-6 84
scooby_predict_out_of_bounds_action_-6 8
scooby_predict_action_0 143
scooby_predict_issue_action_0 0
scooby_predict_hit_action_0 0
scooby_predict_out_of_bounds_action_0 0
scooby_predict_multi_deg_called 803302
scooby_predict_predicted 4023745
scooby_predict_multi_deg 3098912
scooby_predict_multi_deg_2 782929
scooby_predict_multi_deg_3 684820
scooby_predict_multi_deg_4 664183
scooby_predict_multi_deg_5 489152
scooby_predict_multi_deg_6 477828
scooby_predict_multi_deg_7 0
scooby_predict_multi_deg_8 0
scooby_predict_multi_deg_9 0
scooby_predict_multi_deg_10 0
scooby_predict_multi_deg_11 0
scooby_predict_multi_deg_12 0
scooby_predict_multi_deg_13 0
scooby_predict_multi_deg_14 0
scooby_predict_multi_deg_15 0
scooby_predict_multi_deg_16 0

scooby_selected_deg_1 121531
scooby_selected_deg_2 78043
scooby_selected_deg_3 0
scooby_selected_deg_4 182905
scooby_selected_deg_5 0
scooby_selected_deg_6 542354
scooby_selected_deg_7 0
scooby_selected_deg_8 0
scooby_selected_deg_9 0
scooby_selected_deg_10 0
scooby_selected_deg_11 0
scooby_selected_deg_12 0
scooby_selected_deg_13 0
scooby_selected_deg_14 0
scooby_selected_deg_15 0
scooby_selected_deg_16 0

scooby_state_59cdbf|0|0 3215,1,3,1,0,1,1,2,0,0,0,0,2,0,0,3226,
scooby_state_59cde2|0|0 2991,0,0,0,0,0,1,0,0,1,0,0,0,0,1,2994,
scooby_state_59d4d1|0|0 2167,1,2,1,0,0,0,1,0,0,0,0,0,0,0,2172,
scooby_state_59d4d1|1|1 2154,0,0,0,0,1,0,0,1,2,1,0,0,0,1,2160,
scooby_state_59cde2|53|1 1852,0,0,0,0,1,0,0,0,0,0,0,0,0,0,1853,
scooby_state_59d4d1|55|1 1812,0,0,0,0,1,0,1,0,0,0,0,0,0,0,1814,
scooby_state_59cde2|8|1 1800,0,0,0,1,0,1,0,0,0,0,0,1,0,0,1803,
scooby_state_59cde2|22|1 1795,0,0,0,0,0,0,0,0,1,0,0,0,0,0,1796,
scooby_state_59cde2|47|1 1790,0,0,0,1,0,0,0,0,0,1,0,0,0,0,1792,
scooby_state_59cd9b|63|1 1782,0,0,1,1,0,0,0,1,0,0,0,0,0,1,1786,
scooby_state_59cdbf|58|2 1775,0,0,1,0,0,0,0,1,0,0,0,1,0,0,1778,
scooby_state_59cdbf|45|1 1776,0,1,0,0,0,0,0,0,0,0,1,0,0,0,1778,
scooby_state_59cde2|33|1 1772,0,0,1,0,0,1,1,0,0,0,0,0,1,0,1776,
scooby_state_59d4d1|49|1 1772,0,0,0,0,0,0,1,0,0,0,0,1,0,0,1774,
scooby_state_59cd9b|44|1 1762,0,1,0,2,0,0,0,0,0,0,0,0,0,0,1765,
scooby_state_59d4d1|24|1 1761,1,0,0,0,1,0,0,0,1,0,0,0,0,0,1764,
scooby_state_59cd9b|38|1 1760,0,0,1,0,0,0,0,1,0,0,0,0,0,1,1763,
scooby_state_59cd9b|24|1 1759,0,0,1,0,0,0,0,0,1,0,0,1,0,0,1762,
scooby_state_59cd9b|5|1 1757,0,0,0,0,0,0,0,0,0,0,0,0,0,0,1757,
scooby_state_59d4d1|10|1 1751,0,0,0,0,1,0,0,0,1,0,0,0,0,0,1753,
scooby_state_59cdbf|25|1 1745,0,0,0,0,0,0,0,0,0,0,0,0,0,0,1745,
scooby_state_59cdbf|52|2 1743,0,1,0,0,0,0,0,0,0,0,0,0,1,0,1745,
scooby_state_59cdbf|13|2 1739,0,0,0,3,1,0,0,0,0,0,0,1,0,1,1745,
scooby_state_59cdbf|39|1 1741,0,0,0,1,0,0,1,0,0,2,0,0,0,0,1745,
scooby_state_59cdbf|6|1 1743,0,0,1,0,0,0,0,0,0,1,0,0,0,0,1745,
scooby_state_59d4d1|35|1 1740,1,0,0,0,0,0,0,0,0,0,0,0,0,0,1741,
scooby_state_59d4d1|30|1 1737,0,0,0,1,1,0,0,0,0,0,0,0,0,0,1739,
scooby_state_59cde2|11|1 1734,1,0,0,0,0,0,0,0,0,0,0,1,0,1,1737,
scooby_state_59cd9b|49|1 1726,0,0,0,1,0,0,0,0,0,1,0,0,1,0,1729,
scooby_state_59d4d1|60|1 1719,0,0,0,0,0,1,0,1,0,0,0,0,0,1,1722,
scooby_state_59cde2|28|1 1717,0,0,0,0,0,0,1,0,0,0,0,0,0,0,1718,
scooby_state_59cde2|14|1 1711,1,0,1,2,0,2,0,0,0,0,0,0,0,1,1718,
scooby_state_59cd9b|16|1 1714,0,0,0,0,0,0,1,0,1,0,0,0,0,1,1717,
scooby_state_59d4d1|2|1 1710,0,1,0,0,0,0,0,0,1,0,0,1,1,0,1714,
scooby_state_59cdbf|33|2 1709,0,0,0,0,1,0,0,0,1,0,0,0,0,1,1712,
scooby_state_59cdbf|38|2 1709,1,0,0,1,0,0,0,0,0,0,0,0,0,1,1712,
scooby_state_59cdbf|27|2 1708,2,0,0,0,0,0,1,1,0,0,0,0,0,0,1712,
scooby_state_59cde2|39|1 1712,0,0,0,0,0,0,0,0,0,0,0,0,0,0,1712,
scooby_state_59d4d1|27|1 1707,0,0,0,0,0,0,1,1,1,0,0,0,0,1,1711,
scooby_state_59cde2|35|2 1709,0,0,0,0,0,0,0,0,0,0,0,0,0,0,1709,
scooby_state_59cdcf|34|-1 0,1707,0,0,0,0,0,0,0,1,1,0,0,0,0,1709,
scooby_state_59cde2|41|2 1706,0,0,0,0,0,0,1,1,0,0,1,0,0,0,1709,
scooby_state_59cdcf|40|-1 1,1702,0,0,0,1,0,1,1,0,0,0,0,2,0,1708,
scooby_state_59cde2|25|1 1704,0,1,0,1,0,0,0,0,1,0,0,0,0,0,1707,
scooby_state_59cde2|19|1 1706,0,0,0,0,0,0,0,0,0,0,0,0,0,0,1706,
scooby_state_59d4d1|16|1 1701,0,0,0,0,0,0,0,0,0,0,1,1,1,0,1704,
scooby_state_59d4d1|21|1 1700,0,0,0,0,0,0,1,0,0,0,0,0,0,0,1701,
scooby_state_59cde2|58|1 1696,0,1,0,0,0,0,0,0,0,0,0,1,0,0,1698,
scooby_state_59cde2|61|1 1688,1,1,0,0,0,0,0,0,0,0,0,0,0,0,1690,
scooby_state_59cde2|2|2 1685,1,0,0,0,0,1,1,0,0,0,0,0,0,0,1688,
scooby_state_59cde2|50|1 1683,1,0,0,0,0,1,1,0,0,1,0,0,0,0,1687,
scooby_state_59cde2|60|2 1682,0,0,1,1,0,0,0,0,0,0,0,0,0,1,1685,
scooby_state_59cdcf|59|-1 0,1684,0,0,0,1,0,0,0,0,0,0,0,0,0,1685,
scooby_state_59cd9b|10|1 1683,0,0,0,0,0,0,0,0,0,0,0,0,0,0,1683,
scooby_state_59cde2|36|1 1677,0,0,0,0,2,0,0,0,0,0,0,1,0,0,1680,
scooby_state_59cdbf|63|2 1676,0,0,0,0,0,0,1,0,0,0,0,1,0,1,1679,
scooby_state_59cdbf|5|2 1678,0,0,0,0,0,0,0,0,0,0,0,1,0,0,1679,
scooby_state_59cdbf|50|1 1677,0,0,1,0,0,0,0,0,1,0,0,0,0,0,1679,
scooby_state_59cdbf|17|1 1677,0,0,0,0,0,0,0,0,0,1,0,1,0,0,1679,
scooby_state_59cdbf|19|2 1670,1,0,2,1,0,0,1,0,2,0,0,1,1,0,1679,
scooby_state_59cdbf|31|1 1677,0,0,0,0,1,0,1,0,0,0,0,0,0,0,1679,
scooby_state_59cdbf|14|1 1677,0,0,0,2,0,0,0,0,0,0,0,0,0,0,1679,
scooby_state_59cdbf|11|1 1673,0,0,0,0,1,0,0,0,0,2,0,1,0,0,1677,
scooby_state_59cdbf|24|2 1673,1,1,0,0,0,0,0,0,0,0,0,0,0,0,1675,
scooby_state_59cd9b|30|1 1671,0,0,0,0,0,0,1,0,0,0,1,1,1,0,1675,
scooby_state_59d4d1|63|1 1671,0,1,0,0,0,0,0,0,0,0,0,0,0,0,1672,
scooby_state_59cd9b|2|1 1669,0,0,0,0,1,0,0,0,0,1,1,0,0,0,1672,
scooby_state_59d4d1|41|1 1668,0,0,1,1,0,0,0,1,0,0,1,0,0,0,1672,
scooby_state_59cde2|5|1 1671,0,0,0,0,0,0,0,0,0,0,0,0,0,0,1671,
scooby_state_59cd9b|27|1 1664,0,0,1,0,0,0,0,4,0,1,0,0,0,0,1670,
scooby_state_59cd9b|55|1 1667,0,0,0,0,0,0,0,0,0,0,0,1,0,0,1668,
scooby_state_59d4d1|13|1 1662,0,1,0,0,0,2,1,0,0,0,0,0,0,0,1666,
scooby_state_59cdcf|45|-1 0,1661,0,0,0,0,0,0,0,0,0,0,0,0,0,1661,
scooby_state_59cdcf|1|-1 0,1659,0,0,0,0,0,0,0,0,0,0,0,0,2,1661,
scooby_state_59cde2|46|2 1661,0,0,0,0,0,0,0,0,0,0,0,0,0,0,1661,
scooby_state_59d4d1|52|1 1656,0,0,0,0,0,0,1,0,0,1,0,0,1,1,1660,
scooby_state_59cd9b|41|1 1656,0,0,0,0,1,0,0,0,0,1,0,0,0,0,1658,
scooby_state_59cde2|21|2 1653,0,0,0,1,0,0,0,0,0,0,0,2,0,0,1656,
scooby_state_59cdcf|20|-1 0,1654,0,0,0,0,0,0,0,0,0,0,1,0,0,1655,
scooby_state_59cde2|44|1 1646,1,1,0,0,0,0,1,0,0,0,1,1,0,1,1652,
scooby_state_59d4d1|38|1 1647,1,0,1,0,0,0,0,0,0,0,0,0,0,0,1649,
scooby_state_59cdbf|16|2 1643,0,0,0,1,0,0,0,1,0,0,0,0,0,1,1646,
scooby_state_59cdbf|2|2 1643,0,1,0,0,0,0,0,0,0,0,0,1,1,0,1646,
scooby_state_59cdbf|28|1 1642,1,0,0,0,0,0,0,1,0,0,2,0,0,0,1646,
scooby_state_59cdbf|3|1 1644,0,0,1,0,0,0,0,0,1,0,0,0,0,0,1646,
scooby_state_59cdbf|55|2 1644,1,0,0,0,0,1,0,0,0,0,0,0,0,0,1646,
scooby_state_59cdbf|44|2 1642,1,0,0,1,0,0,1,0,0,0,0,0,0,1,1646,
scooby_state_59cdbf|30|2 1641,1,0,0,1,0,0,1,0,1,1,0,0,0,0,1646,
scooby_state_59cdbf|56|1 1645,0,0,0,0,0,0,0,0,0,0,0,0,0,1,1646,
scooby_state_59cdbf|42|1 1642,0,0,0,1,0,0,0,0,0,1,2,0,0,0,1646,
scooby_state_59cd9b|52|1 1635,0,0,0,0,0,0,0,0,0,0,0,0,0,0,1635,
scooby_state_59d4d1|7|1 1630,1,0,0,0,1,0,0,0,0,1,0,0,0,0,1633,
scooby_state_59cd9b|19|1 1630,1,0,0,0,0,0,0,0,0,0,0,0,0,0,1631,
scooby_state_59d4d1|46|1 1629,0,0,0,0,0,0,0,0,0,0,0,0,0,0,1629,
scooby_state_59cd9b|21|1 1624,0,1,1,0,0,0,0,0,0,0,0,1,0,0,1627,
scooby_state_59cd9b|60|1 1625,0,0,0,0,0,0,0,0,0,0,0,1,1,0,1627,
scooby_state_59cd9b|13|1 1620,0,0,0,0,0,1,0,0,0,1,0,0,0,0,1622,
scooby_state_59cde2|13|2 1618,1,0,0,0,0,0,0,0,0,0,0,0,0,0,1619,
scooby_state_59cd9b|32|1 1616,0,0,1,0,0,0,0,0,1,0,0,0,0,1,1619,
scooby_state_59cde2|7|2 1616,0,0,1,0,0,0,1,0,0,0,0,0,0,0,1618,
scooby_state_59cd9b|35|1 1615,0,1,0,0,0,0,0,0,1,0,0,0,1,0,1618,
scooby_state_59cdcf|12|-1 0,1615,0,1,1,0,1,0,0,0,0,0,0,0,0,1618,
scooby_state_59cdbf|20|1 1612,0,0,0,0,0,0,0,0,0,1,0,0,0,0,1613,
scooby_state_59cdbf|41|2 1610,1,0,0,0,0,0,1,0,0,0,0,0,0,1,1613,
scooby_state_59cdbf|53|1 1610,1,0,1,1,0,0,0,0,0,0,0,0,0,0,1613,
scooby_state_59cde2|27|1 1610,0,0,0,0,0,0,0,0,0,0,0,0,0,0,1610,
scooby_state_59cde2|30|1 1607,0,0,0,0,0,0,0,0,0,0,0,0,0,0,1607,
scooby_state_59cdbf|36|1 1605,0,0,1,0,0,0,0,0,1,0,0,0,0,0,1607,
scooby_state_59cdbf|49|2 1599,1,0,1,0,0,0,1,1,0,0,0,0,1,1,1605,
scooby_state_59cde2|2|1 1604,0,0,0,0,0,0,0,0,1,0,0,0,0,0,1605,
scooby_state_59cde2|59|1 1601,0,0,0,1,1,0,0,0,0,0,1,0,0,0,1604,
scooby_state_59cde2|13|1 1603,0,0,0,0,0,1,0,0,0,0,0,0,0,0,1604,
scooby_state_59cde2|16|1 1600,0,0,1,0,0,0,0,0,1,1,0,0,1,0,1604,
scooby_state_59cdbf|61|1 1601,1,0,0,0,0,0,0,0,0,1,0,0,0,0,1603,
scooby_state_59cdf2|0|0 1601,0,0,0,0,0,0,0,0,0,0,0,2,0,0,1603,
scooby_state_59cdbf|10|2 1600,0,0,0,0,0,0,0,0,0,1,0,0,0,0,1601,
scooby_state_59cdbf|22|1 1594,0,0,0,0,0,0,0,2,0,1,1,1,0,0,1599,
scooby_state_59cde2|55|1 1590,1,0,1,0,0,0,0,1,2,0,0,0,0,0,1595,
scooby_state_59cdcf|6|-1 0,1594,0,0,0,1,0,0,0,0,0,0,0,0,0,1595,
scooby_state_59cde2|38|1 1588,0,0,0,2,2,1,0,0,0,0,0,0,0,1,1594,
scooby_state_59d4d1|5|1 1590,0,0,0,0,0,0,0,1,0,0,0,1,0,0,1592,
scooby_state_59cde2|63|2 1586,0,0,1,0,0,0,0,0,1,0,0,1,1,2,1592,
scooby_state_59cdcf|62|-1 0,1589,1,0,1,0,0,0,1,0,0,0,0,0,0,1592,
scooby_state_59d4d1|18|1 1589,0,0,0,0,0,0,0,0,0,0,0,0,0,1,1590,
scooby_state_59cde2|32|2 1588,1,0,0,0,0,0,0,0,0,0,0,0,0,0,1589,
scooby_state_59cdcf|31|-1 0,1588,0,1,0,0,0,0,0,0,0,0,0,0,0,1589,
scooby_state_59cde2|41|1 1585,0,0,0,0,0,1,0,0,0,0,1,0,1,0,1588,
scooby_state_59cdbf|33|1 1586,0,0,0,0,0,0,0,0,0,0,0,0,0,0,1586,
scooby_state_59cde2|10|2 1581,0,0,0,0,0,2,0,1,0,1,0,1,0,0,1586,
scooby_state_59cde2|52|1 1585,1,0,0,0,0,0,0,0,0,0,0,0,0,0,1586,
scooby_state_59cde2|27|2 1580,0,0,0,0,0,0,0,1,1,0,0,0,0,0,1582,
scooby_state_59cdcf|26|-1 1,1577,0,0,1,0,1,0,0,0,1,0,0,1,0,1582,
scooby_state_59cd9b|50|1 1577,0,0,0,0,0,0,0,0,1,0,0,1,0,0,1579,
scooby_state_59cde2|17|1 1577,0,0,0,1,0,0,0,0,0,0,1,0,0,0,1579,
scooby_state_59d4d1|32|1 1577,0,1,0,1,0,0,0,0,0,0,0,0,0,0,1579,
scooby_state_59cde2|56|1 1575,0,0,1,1,0,0,0,0,0,0,0,0,0,0,1577,
scooby_state_59cde2|3|1 1573,0,0,0,0,0,0,0,0,0,1,1,0,0,1,1576,
scooby_state_59cdbf|18|2 1572,0,0,1,0,1,0,0,0,0,0,1,1,0,0,1576,
scooby_state_59d4d1|43|1 1574,0,0,0,0,0,0,0,0,0,0,0,0,1,0,1575,
scooby_state_59cdcf|23|-1 0,1574,0,0,0,1,0,0,0,0,0,0,0,0,0,1575,
scooby_state_59cde2|24|2 1571,0,1,0,0,0,0,0,0,1,0,1,0,1,0,1575,
scooby_state_59cde2|52|2 1571,1,0,0,0,0,0,0,0,0,0,1,0,0,0,1573,
scooby_state_59cdcf|56|-1 0,1570,0,0,0,1,0,0,0,0,0,0,1,0,0,1572,
scooby_state_59cd9b|18|1 1569,0,0,0,0,1,0,1,0,0,1,0,0,0,0,1572,
scooby_state_59cde2|57|2 1570,0,0,0,0,0,0,1,0,0,0,0,0,0,1,1572,
scooby_state_59cd9b|7|1 1565,0,1,0,0,0,1,0,1,0,0,1,0,0,1,1570,
scooby_state_59d4d1|15|1 1567,0,1,0,0,0,0,0,0,0,0,0,0,0,0,1568,
scooby_state_59cd9b|4|1 1561,0,0,0,0,1,0,0,2,0,0,0,0,1,1,1566,
scooby_state_59cd9b|43|1 1562,0,0,1,0,0,0,0,0,0,2,1,0,0,0,1566,
scooby_state_59cde2|16|2 1564,0,0,0,0,0,0,0,0,0,0,0,0,1,0,1565,
scooby_state_59cdcf|15|-1 0,1563,0,0,0,1,0,0,0,0,0,0,0,0,0,1564,
scooby_state_59cdbf|35|2 1563,0,0,0,0,0,0,0,0,1,0,0,0,0,0,1564,
scooby_state_59d4d1|40|1 1559,0,0,0,0,0,0,0,0,1,0,1,1,0,1,1563,
scooby_state_59cd9b|46|1 1560,1,0,0,1,1,0,0,0,0,0,0,0,0,0,1563,
scooby_state_59d4d1|4|1 1560,0,0,0,0,0,0,0,1,0,0,1,0,0,0,1562,
scooby_state_59cd9b|57|1 1558,0,0,0,0,0,0,1,0,0,0,2,0,0,0,1561,
scooby_state_59cdbf|60|2 1557,0,0,0,0,0,0,0,1,0,1,0,1,0,0,1560,
scooby_state_59cde2|38|2 1553,0,0,0,0,0,1,1,0,1,0,0,0,1,2,1559,
scooby_state_59cdcf|37|-1 0,1559,0,0,0,0,0,0,0,0,0,0,0,0,0,1559,
scooby_state_59d4d1|44|1 1556,0,1,0,0,0,2,0,0,0,0,0,0,0,0,1559,
scooby_state_59cd9b|29|1 1554,0,0,1,1,0,0,0,0,1,0,1,0,0,0,1558,
scooby_state_59cd9b|33|1 1557,0,1,0,0,0,0,0,0,0,0,0,0,0,0,1558,
scooby_state_59cde2|63|1 1556,0,0,0,0,0,0,0,0,0,0,0,0,1,0,1557,
scooby_state_59cdbf|8|1 1556,1,0,0,0,0,0,0,0,0,0,0,0,0,0,1557,
scooby_state_59cd9b|47|1 1551,0,1,0,0,1,0,2,0,0,0,0,0,0,1,1556,
scooby_state_59cdbf|21|2 1553,0,0,0,0,0,0,0,0,0,0,0,1,1,0,1555,
scooby_state_59cde2|42|1 1552,0,0,0,0,0,0,0,0,0,0,0,1,0,0,1553,
scooby_state_59cdcf|17|-1 0,1550,0,0,0,0,0,1,0,0,0,0,0,1,0,1552,
scooby_state_59cde2|18|2 1550,0,0,1,0,0,0,0,0,0,0,0,0,1,0,1552,
scooby_state_59cdcf|51|-1 0,1549,0,0,0,0,0,0,0,0,1,1,0,0,0,1551,
scooby_state_59cdbf|46|2 1549,0,0,0,0,0,0,0,0,0,1,0,0,1,0,1551,
scooby_state_59d4d1|57|1 1547,0,0,0,1,0,0,1,1,0,0,0,0,0,0,1550,
scooby_state_59cdbf|58|1 1547,0,0,0,0,0,0,0,0,0,0,1,0,1,0,1549,
scooby_state_59cdbf|39|2 1546,0,0,0,0,0,0,0,0,0,0,0,0,1,0,1547,
scooby_state_59cdbf|51|1 1545,0,1,0,0,0,0,0,0,0,0,0,0,0,1,1547,
scooby_state_59d4e0|29|1 1546,0,0,0,0,1,0,0,0,0,0,0,0,0,0,1547,
scooby_state_59cdbf|8|2 1545,1,0,0,0,0,0,0,0,0,0,0,0,1,0,1547,
scooby_state_59cdbf|7|2 1543,1,0,0,1,0,0,0,0,0,0,1,0,0,1,1547,
scooby_state_59d4e0|43|1 1543,0,0,2,0,0,0,0,1,0,0,0,0,0,0,1546,
scooby_state_59cdbf|19|1 1542,1,0,1,0,1,0,0,0,0,0,0,1,0,0,1546,
scooby_state_59cdbf|44|1 1544,0,0,0,0,0,0,0,0,1,0,1,0,0,0,1546,
scooby_state_59cdcf|48|-1 1,1539,1,0,1,0,0,0,1,0,0,0,1,1,0,1545,
scooby_state_59cde2|49|2 1544,0,0,1,0,0,0,0,0,0,0,0,0,0,0,1545,
scooby_state_59cdbf|5|1 1541,0,0,1,0,1,0,1,0,0,0,0,0,0,1,1545,
scooby_state_59d4d1|19|1 1540,0,0,0,1,0,1,0,0,0,0,1,0,0,0,1543,
scooby_state_59d4d1|11|1 1540,0,0,2,0,0,0,1,0,0,0,0,0,0,0,1543,
scooby_state_59d4d1|61|1 1540,0,0,1,0,0,0,0,0,1,0,0,0,0,0,1542,
scooby_state_59cdbf|30|1 1538,0,0,0,0,0,1,1,1,0,0,0,0,0,0,1541,
scooby_state_59d4e0|4|1 1534,0,0,2,1,0,0,1,0,0,0,1,1,0,0,1540,
scooby_state_59cd9b|58|1 1537,0,0,0,0,0,0,0,1,0,0,0,0,0,0,1538,
scooby_state_59cde2|24|1 1536,0,0,0,0,0,0,0,1,0,0,0,0,0,0,1537,
scooby_state_59cd9b|15|1 1530,1,1,0,1,0,0,0,0,1,0,0,0,0,0,1534,
scooby_state_59cde2|6|1 1531,0,0,0,0,0,0,0,1,0,0,0,0,0,0,1532,
scooby_state_59d4d1|36|1 1529,0,0,0,1,0,0,0,0,0,0,1,0,0,0,1531,
scooby_state_59d4d1|29|1 1528,0,0,0,0,0,2,0,0,0,0,0,0,0,0,1530,
scooby_state_59cde2|49|1 1528,0,0,1,0,0,0,0,0,0,0,0,0,1,0,1530,
scooby_state_59cdbf|47|1 1527,0,0,0,0,0,0,1,0,0,0,0,0,0,1,1529,
scooby_state_59d4d1|58|1 1525,0,0,0,1,0,0,0,0,0,1,0,0,0,0,1527,
scooby_state_59cd9b|54|1 1526,0,0,0,0,0,0,0,0,0,0,0,0,0,0,1526,
scooby_state_59cde2|34|1 1522,1,0,0,0,0,0,0,0,0,0,0,0,0,0,1523,
scooby_state_59d4d1|8|1 1518,0,0,0,0,0,1,0,0,0,0,0,0,1,0,1520,
scooby_state_59d4d1|54|1 1516,0,0,0,0,0,0,1,1,1,0,0,0,1,0,1520,
scooby_state_59cde2|31|1 1517,0,0,0,0,0,0,1,0,1,0,0,0,0,1,1520,
scooby_state_59d4d1|33|1 1513,0,0,0,0,1,0,0,1,1,1,1,0,1,0,1519,
scooby_state_59cde2|10|1 1516,0,0,0,0,0,1,0,0,0,0,0,0,0,0,1517,
scooby_state_59cdbf|59|1 1513,0,0,0,0,0,0,0,1,0,0,0,0,0,0,1514,
scooby_state_59cdbf|48|1 1513,0,0,0,1,0,0,0,0,0,0,0,0,0,0,1514,
scooby_state_59cdbf|47|2 1508,1,1,1,1,0,0,2,0,0,0,0,0,0,0,1514,
scooby_state_59cdbf|22|2 1513,0,0,0,0,0,0,0,0,1,0,0,0,0,0,1514,
scooby_state_59cde2|20|1 1509,1,0,0,2,0,0,0,0,0,0,0,0,1,1,1514,
scooby_state_59cdbf|9|1 1510,0,1,0,0,0,0,0,1,0,0,1,0,0,1,1514,
scooby_state_59cdbf|34|1 1510,0,1,0,0,0,0,0,1,0,0,0,1,1,0,1514,
scooby_state_59cdbf|61|2 1511,0,0,0,1,0,1,0,0,0,0,1,0,0,0,1514,
scooby_state_59cd9b|8|1 1513,0,0,0,0,0,0,0,0,0,0,0,1,0,0,1514,
scooby_state_59cdbf|32|2 1511,0,0,0,0,0,0,1,0,0,0,0,0,1,0,1513,
scooby_state_59d4e0|15|1 1510,0,0,0,0,0,0,0,1,1,0,0,0,0,1,1513,
scooby_state_59cdbf|57|2 1509,0,0,0,1,0,1,0,0,0,1,0,1,0,0,1513,
scooby_state_59cd9b|1|1 1510,0,0,0,0,0,0,0,0,1,0,0,0,0,0,1511,
scooby_state_59cdcf|39|-1 0,1508,0,0,1,1,0,1,0,0,0,0,0,0,0,1511,
scooby_state_59cde2|7|1 1503,0,1,1,0,0,0,0,1,0,0,0,0,0,0,1506,
scooby_state_59cdbf|43|2 1502,0,0,0,1,0,0,0,0,0,1,1,0,0,1,1506,
scooby_state_59cd9b|22|1 1504,0,0,0,0,0,0,0,0,0,0,0,0,0,0,1504,
scooby_state_59cdbf|55|1 1500,0,0,0,2,0,0,0,0,0,0,0,0,1,1,1504,
scooby_state_59d4e0|54|1 1500,0,0,0,1,1,0,0,0,0,0,1,0,0,0,1503,
scooby_state_59cdbf|4|2 1500,0,0,0,0,0,0,0,0,2,0,0,0,0,0,1502,
scooby_state_59cde2|47|2 1500,0,0,0,0,0,0,0,0,0,0,0,0,0,0,1500,
scooby_state_59cdcf|46|-1 1,1499,0,0,0,0,0,0,0,0,0,0,0,0,0,1500,
scooby_state_59cdbf|16|1 1497,0,0,0,0,2,0,0,0,0,0,1,0,0,0,1500,
scooby_state_59cde2|32|1 1494,1,0,0,1,0,1,0,1,0,0,0,0,0,0,1498,
scooby_state_59cdcf|28|-1 1,1492,0,0,0,0,0,2,0,0,0,0,0,1,1,1497,
scooby_state_59cde2|29|2 1493,0,0,1,0,0,0,0,0,0,1,1,0,0,1,1497,
scooby_state_59cde2|4|2 1494,0,1,0,0,0,0,0,0,0,0,0,0,0,0,1495,
scooby_state_59cdcf|9|-1 0,1494,0,0,0,0,1,0,0,0,0,0,0,0,0,1495,
scooby_state_59d4d1|12|1 1494,0,0,0,0,0,0,0,0,0,0,1,0,0,0,1495,
scooby_state_59cde2|15|2 1491,0,0,1,0,0,0,0,1,0,1,0,0,0,0,1494,
scooby_state_59cdcf|14|-1 1,1490,0,0,1,0,0,0,0,0,0,1,0,0,0,1493,
scooby_state_59d4d1|22|1 1490,0,0,0,0,0,0,1,0,0,1,0,0,0,0,1492,
scooby_state_59cdcf|25|-1 0,1487,0,1,0,0,0,0,0,0,1,0,0,0,0,1489,
scooby_state_59cde2|35|1 1483,0,1,0,0,0,0,0,0,1,0,0,0,3,1,1489,
scooby_state_59cde2|26|2 1488,0,0,0,0,0,0,0,0,0,0,0,1,0,0,1489,
scooby_state_59d4d1|51|1 1484,0,0,0,0,0,0,0,0,0,0,0,1,0,0,1485,
scooby_state_59d4e0|1|1 1478,0,0,0,1,0,0,0,0,0,0,1,1,0,0,1481,
scooby_state_59d4e0|26|1 1480,0,0,0,0,0,0,0,0,0,0,0,1,0,0,1481,
scooby_state_59d4e0|62|1 1478,1,0,0,0,1,0,0,0,0,0,0,0,0,1,1481,
scooby_state_59cdbf|12|1 1480,0,1,0,0,0,0,0,0,0,0,0,0,0,0,1481,
scooby_state_59d4e0|37|1 1479,0,0,0,0,0,0,0,0,0,1,0,1,0,0,1481,
scooby_state_59cd9b|23|1 1477,0,0,1,0,0,0,0,1,1,0,1,0,0,0,1481,
scooby_state_59cdbf|36|2 1479,0,0,0,0,1,0,0,1,0,0,0,0,0,0,1481,
scooby_state_59cdbf|23|1 1481,0,0,0,0,0,0,0,0,0,0,0,0,0,0,1481,
scooby_state_59d4e0|48|1 1479,1,1,0,0,0,0,0,0,0,0,0,0,0,0,1481,
scooby_state_59d4e0|40|1 1480,0,0,0,0,0,0,1,0,0,0,0,0,0,0,1481,
scooby_state_59d4e0|18|1 1477,0,0,0,0,0,1,0,0,0,0,0,0,1,1,1480,
scooby_state_59d4e0|23|1 1478,0,1,0,0,0,0,0,0,1,0,0,0,0,0,1480,
scooby_state_59d4d1|34|1 1475,2,0,1,0,0,0,0,0,0,1,0,0,0,0,1479,
scooby_state_59cd9b|61|1 1479,0,0,0,0,0,0,0,0,0,0,0,0,0,0,1479,
scooby_state_59d4d1|37|1 1479,0,0,0,0,0,0,0,0,0,0,0,0,0,0,1479,
scooby_state_59cde2|40|2 1473,0,0,1,1,1,0,0,0,0,0,0,2,0,0,1478,
scooby_state_59cde2|57|1 1475,0,0,1,0,0,1,0,0,0,0,1,0,0,0,1478,
scooby_state_59cde2|43|1 1474,0,0,0,0,0,2,0,1,0,0,0,0,0,0,1477,
scooby_state_59cdcf|0|-1 0,1476,0,0,0,0,1,0,0,0,0,0,0,0,0,1477,
scooby_state_59cde2|1|0 1473,0,0,0,3,1,0,0,0,0,0,0,0,0,0,1477,
scooby_state_59cd9b|40|1 1472,0,0,2,0,0,1,0,0,0,0,1,1,0,0,1477,
scooby_state_59cd9b|26|1 1472,0,1,0,0,0,0,0,0,0,0,1,0,2,0,1476,
scooby_state_59d4e0|34|1 1475,0,0,0,0,0,0,0,0,0,0,1,0,0,0,1476,
scooby_state_59cd9b|62|1 1474,0,0,0,0,0,0,0,0,0,0,0,0,0,0,1474,
scooby_state_59d4d1|26|1 1467,1,1,0,0,2,0,0,0,0,1,0,1,1,0,1474,
scooby_state_59cd9b|48|1 1466,0,1,0,1,1,0,0,0,1,0,0,2,1,0,1473,
scooby_state_59d4e0|9|1 1469,0,1,0,0,0,0,0,1,1,0,0,0,0,0,1472,
scooby_state_59cde2|30|2 1467,2,0,0,0,0,0,0,0,1,0,0,0,2,0,1472,
scooby_state_59cdcf|29|-1 1,1470,0,0,0,0,0,0,1,0,0,0,0,0,0,1472,
scooby_state_59cde2|54|1 1468,1,0,0,0,0,0,0,0,0,1,1,0,0,0,1471,
scooby_state_59cde2|21|1 1466,0,0,0,0,0,0,0,0,0,0,0,0,1,2,1469,
scooby_state_59cde2|44|2 1465,0,2,0,0,0,0,0,0,0,1,0,0,0,0,1468,
scooby_state_59cdcf|50|-1 0,1465,0,0,0,0,0,2,0,0,0,0,0,0,0,1467,
scooby_state_59cdcf|43|-1 2,1462,0,0,0,0,1,0,0,1,0,1,0,0,0,1467,
scooby_state_59cde2|51|2 1463,0,1,0,1,0,1,0,0,0,0,0,1,0,0,1467,
scooby_state_59d4d1|9|1 1461,1,1,1,0,0,0,0,0,1,0,0,0,0,1,1466,
scooby_state_59cd9b|25|1 1463,0,0,0,0,0,0,0,1,0,0,1,0,0,0,1465,
scooby_state_59cdbf|29|2 1464,0,0,0,0,0,1,0,0,0,0,0,0,0,0,1465,
scooby_state_59cde2|46|1 1460,0,1,0,0,0,1,0,2,0,0,0,0,0,0,1464,
scooby_state_59cde2|45|1 1459,0,0,0,2,0,0,0,2,0,0,0,0,0,0,1463,
scooby_state_59cdbf|54|2 1461,0,0,0,0,0,0,0,0,0,0,0,0,0,0,1461,
scooby_state_59cde2|18|1 1458,0,1,0,0,0,0,1,0,0,1,0,0,0,0,1461,
scooby_state_59cde2|54|2 1459,0,0,0,0,0,0,0,0,0,0,0,0,1,0,1460,
scooby_state_59cdcf|53|-1 0,1458,0,0,0,1,0,0,0,0,0,1,0,0,0,1460,
scooby_state_59d4d1|20|1 1458,0,0,0,1,0,0,0,0,1,0,0,0,0,0,1460,
scooby_state_59cdbf|2|1 1456,1,0,0,0,0,0,1,0,0,0,0,0,1,0,1459,
scooby_state_59cde2|12|2 1452,0,0,1,0,1,0,0,0,0,1,1,0,1,0,1457,
scooby_state_59cde2|8|2 1452,0,1,0,0,0,0,0,0,0,1,2,0,0,0,1456,
scooby_state_59cdbf|15|2 1454,0,0,0,0,0,1,0,0,1,0,0,0,0,0,1456,
scooby_state_59cdbf|27|1 1452,0,0,0,0,1,0,0,1,0,0,0,0,0,0,1454,
scooby_state_59cdcf|11|-1 0,1450,0,0,2,1,0,0,0,1,0,0,0,0,0,1454,
scooby_state_59cde2|48|1 1451,0,0,0,0,1,0,0,0,0,1,0,0,0,0,1453,
scooby_state_59cdcf|18|-1 1,1445,0,0,0,1,0,1,0,0,1,0,0,0,2,1451,
scooby_state_59cde2|19|2 1447,1,0,1,0,0,0,1,0,0,1,0,0,0,0,1451,
scooby_state_59cd9b|39|1 1446,0,0,2,0,0,1,0,0,0,0,0,2,0,0,1451,
scooby_state_59cd9b|0|0 1443,2,1,1,0,0,0,1,2,0,0,0,0,0,0,1450,
scooby_state_59cde2|1|1 1447,0,0,0,1,0,0,0,0,0,0,0,0,2,0,1450,
scooby_state_59cde2|40|1 1449,0,0,0,0,0,0,0,0,0,0,0,0,0,0,1449,
scooby_state_59d4e0|49|1 1448,0,0,0,0,0,0,0,0,0,0,0,0,0,0,1448,
scooby_state_59cdf2|1|1 1446,0,0,0,1,1,0,0,0,0,0,0,0,0,0,1448,
scooby_state_59d4d1|50|1 1446,0,0,1,0,0,0,0,0,1,0,0,0,0,0,1448,
scooby_state_59cdbf|11|2 1446,0,0,0,0,0,1,0,0,0,0,0,1,0,0,1448,
scooby_state_59cdbf|25|2 1444,0,0,0,0,1,0,1,0,0,1,0,0,0,1,1448,
scooby_state_59cdbf|26|1 1445,0,0,0,0,0,0,1,0,0,0,0,0,1,1,1448,
scooby_state_59cdbf|62|1 1445,0,0,0,0,0,0,0,0,2,0,0,1,0,0,1448,
scooby_state_59d4e0|51|1 1446,0,0,0,0,0,0,0,0,0,1,1,0,0,0,1448,
scooby_state_59cdcf|54|-1 1,1443,0,0,0,3,0,0,0,0,0,0,0,0,0,1447,
scooby_state_59cde2|55|2 1445,0,0,0,0,0,0,0,0,0,0,1,1,0,0,1447,
scooby_state_59cdbf|63|1 1444,0,0,0,0,0,0,0,0,0,1,0,0,0,1,1446,
scooby_state_59cdbf|24|1 1443,0,0,0,0,1,0,0,0,0,0,0,1,1,0,1446,
scooby_state_59cdbf|49|1 1444,0,0,0,0,0,0,0,0,1,0,1,0,0,0,1446,
scooby_state_59cdbf|12|2 1444,0,2,0,0,0,0,0,0,0,0,0,0,0,0,1446,
scooby_state_59cdbf|37|2 1445,0,0,0,1,0,0,0,0,0,0,0,0,0,0,1446,
scooby_state_59cde2|4|1 1440,1,0,0,0,0,1,1,0,1,0,0,0,0,1,1445,
scooby_state_59d4d1|47|1 1443,0,1,0,0,0,0,0,0,0,0,0,0,0,1,1445,
scooby_state_59cde2|5|2 1443,0,0,0,0,0,0,0,0,1,0,1,0,0,0,1445,
scooby_state_59cdcf|3|-1 0,1440,0,0,0,1,1,2,0,0,0,0,0,0,1,1445,
scooby_state_59d4d1|25|1 1442,0,0,0,0,1,0,0,1,0,0,0,0,0,0,1444,
scooby_state_59cde2|60|1 1440,0,0,0,1,0,0,1,0,0,0,0,1,0,0,1443,
scooby_state_59cd9b|36|1 1437,0,1,0,1,0,0,0,1,0,0,2,0,0,0,1442,
scooby_state_59cde2|9|1 1440,0,0,0,1,0,0,0,0,0,0,0,0,0,0,1441,
scooby_state_59d4e0|59|1 1438,0,0,0,0,0,0,1,0,0,0,0,0,0,0,1439,
scooby_state_59cde2|23|1 1435,2,0,0,0,0,0,0,0,1,0,0,0,0,1,1439,
scooby_state_59cde2|29|1 1430,1,1,1,0,2,2,0,1,0,0,0,0,0,0,1438,
scooby_state_59d4d1|59|1 1437,0,0,0,0,0,0,0,1,0,0,0,0,0,0,1438,
scooby_state_59cd9b|11|1 1434,0,0,0,1,0,0,0,0,0,0,0,2,0,0,1437,
scooby_state_59d4e0|20|1 1433,0,0,0,0,0,0,0,0,0,1,0,1,0,0,1435,
scooby_state_59cde2|26|1 1432,0,0,1,0,0,0,0,1,0,0,0,0,0,0,1434,
scooby_state_59cdcf|42|-1 0,1429,1,0,0,0,0,1,0,0,0,1,0,0,1,1433,
scooby_state_59d4d1|56|1 1430,0,1,0,0,0,0,1,0,0,0,0,0,0,1,1433,
scooby_state_59cde2|43|2 1433,0,0,0,0,0,0,0,0,0,0,0,0,0,0,1433,
scooby_state_59d4e0|12|1 1428,0,0,0,0,0,0,0,0,1,0,0,1,0,0,1430,
scooby_state_59cdbf|41|1 1426,1,1,0,0,0,1,0,1,0,0,0,0,0,0,1430,
scooby_state_59d4d1|48|1 1424,0,0,0,0,0,2,0,1,0,0,0,1,0,0,1428,
scooby_state_59cd9b|17|1 1422,2,2,0,0,0,1,0,0,0,0,0,0,0,0,1427,
scooby_state_59cd9b|51|1 1422,0,0,0,1,0,0,1,0,0,0,0,0,1,1,1426,
scooby_state_59cde2|62|1 1424,0,0,0,0,0,0,0,0,0,0,1,0,0,0,1425,
scooby_state_59d4d1|42|1 1422,0,0,0,0,0,0,0,0,1,0,0,1,0,0,1424,
scooby_state_59cde2|37|1 1423,0,0,0,0,0,0,0,0,0,0,0,0,0,0,1423,
scooby_state_59d4d1|28|1 1422,0,0,0,0,0,0,0,0,0,0,1,0,0,0,1423,
scooby_state_59d4e0|31|1 1420,0,0,0,0,0,1,1,0,0,0,0,0,0,0,1422,
scooby_state_59cdcf|4|-1 1,1419,0,0,0,0,0,0,0,1,0,0,0,0,0,1421,
scooby_state_59cd9b|9|1 1421,0,0,0,0,0,0,0,0,0,0,0,0,0,0,1421,
scooby_state_59cdbf|40|2 1416,0,1,1,0,0,0,1,0,0,0,0,0,0,0,1419,
scooby_state_59cde2|62|2 1416,0,0,0,0,0,0,0,0,0,0,0,0,0,1,1417,
scooby_state_59cdcf|61|-1 0,1415,0,0,0,0,0,0,0,0,1,0,0,1,0,1417,
scooby_state_59cdbf|52|1 1411,0,0,0,1,0,0,0,2,1,0,0,0,2,0,1417,
scooby_state_59d4d1|3|1 1414,0,1,0,1,0,0,0,0,0,0,0,0,0,0,1416,
scooby_state_59cdbf|40|1 1412,0,1,0,0,0,1,0,0,0,0,0,0,1,0,1415,
scooby_state_59cdbf|1|1 1414,0,0,0,0,0,0,0,0,0,1,0,0,0,0,1415,
scooby_state_59cdbf|37|1 1411,0,0,0,0,0,1,0,0,1,1,0,0,1,0,1415,
scooby_state_59d4e0|21|1 1413,0,0,0,0,0,0,0,0,0,0,0,0,0,2,1415,
scooby_state_59cdbf|53|2 1412,0,0,0,0,0,0,1,0,2,0,0,0,0,0,1415,
scooby_state_59d4e0|57|1 1414,0,0,0,0,1,0,0,0,0,0,0,0,0,0,1415,
scooby_state_59cdbf|50|2 1414,0,0,1,0,0,0,0,0,0,0,0,0,0,0,1415,
scooby_state_59d4e0|32|1 1413,1,1,0,0,0,0,0,0,0,0,0,0,0,0,1415,
scooby_state_59cdbf|14|2 1412,1,0,0,0,0,0,0,1,0,0,0,0,1,0,1415,
scooby_state_59d4e0|46|1 1409,0,0,0,0,1,0,0,0,0,1,0,1,2,0,1414,
scooby_state_59cdbf|10|1 1410,0,0,0,0,0,0,0,1,0,0,0,1,1,0,1413,
scooby_state_59cdbf|51|2 1412,0,0,0,0,0,0,0,0,1,0,0,0,0,0,1413,
scooby_state_59cdbf|62|2 1412,0,0,0,0,0,0,0,0,0,1,0,0,0,0,1413,
scooby_state_59cdbf|23|2 1408,0,1,0,1,0,0,0,1,2,0,0,0,0,0,1413,
scooby_state_59cd9b|53|1 1409,1,0,0,1,0,0,0,0,0,1,0,0,0,0,1412,
scooby_state_59cd9b|37|1 1410,1,0,0,0,0,0,0,0,0,0,0,0,1,0,1412,
scooby_state_59cd9b|14|1 1409,2,0,0,0,0,0,0,0,0,0,0,0,0,0,1411,
scooby_state_59d4e0|7|1 1407,0,0,0,0,0,0,1,0,0,1,1,1,0,0,1411,
scooby_state_59d4d1|23|1 1408,0,0,0,1,0,0,0,0,0,0,1,0,0,1,1411,
scooby_state_59d4d1|31|1 1407,0,0,0,1,1,0,1,0,0,0,0,0,0,0,1410,
scooby_state_59cdcf|7|-1 1,1408,0,1,0,0,0,0,0,0,0,0,0,0,0,1410,
scooby_state_59d4d1|6|1 1405,1,0,0,0,0,0,0,0,0,0,0,0,0,1,1407,
scooby_state_59cd9b|45|1 1404,0,0,0,0,1,0,0,0,0,0,0,0,1,0,1406,
scooby_state_59cd9b|20|1 1399,0,0,1,0,1,0,0,1,0,0,1,0,1,0,1404,
scooby_state_59cd9b|34|1 1403,0,0,0,1,0,0,0,0,0,0,0,0,0,0,1404,
scooby_state_59cd9b|56|1 1398,0,1,1,0,2,0,0,0,0,1,0,0,0,0,1403,
scooby_state_59cd9b|59|1 1401,0,0,0,0,1,0,0,1,0,0,0,0,0,0,1403,
scooby_state_59d4d1|62|1 1398,0,1,0,0,1,1,0,0,0,0,0,0,0,1,1402,
scooby_state_59d4d1|45|1 1397,0,0,0,0,0,0,0,1,1,1,1,0,0,0,1401,
scooby_state_59cde2|15|1 1398,0,0,0,0,0,1,0,0,1,0,0,0,0,0,1400,
scooby_state_59cde2|23|2 1395,1,0,1,0,0,0,0,0,0,0,0,0,1,0,1398,
scooby_state_59cdcf|44|-1 0,1395,0,0,0,0,0,1,1,0,0,0,1,0,0,1398,
scooby_state_59cde2|45|2 1395,0,0,0,1,0,0,1,0,1,0,0,0,0,0,1398,
scooby_state_59cdcf|22|-1 0,1395,1,0,0,0,1,0,0,0,0,0,0,0,0,1397,
scooby_state_59cde2|37|2 1388,1,0,0,0,0,0,0,0,0,0,0,0,0,0,1389,
scooby_state_59cdcf|36|-1 0,1387,0,0,0,0,0,0,0,0,0,0,1,0,0,1388,
scooby_state_59cd9b|31|1 1384,0,0,0,1,0,0,0,0,1,1,0,0,0,0,1387,
scooby_state_59cde2|51|1 1384,0,0,0,0,0,0,1,0,1,0,0,0,0,0,1386,
scooby_state_59d4e0|56|1 1385,0,0,0,0,0,0,0,0,0,0,0,0,0,0,1385,
scooby_state_59cde2|33|2 1384,0,0,0,0,0,0,0,0,0,0,0,0,0,0,1384,
scooby_state_59cdcf|32|-1 1,1379,0,0,0,0,1,0,1,0,0,0,1,0,1,1384,
scooby_state_59cdbf|15|1 1382,0,0,0,0,0,0,0,0,0,0,0,0,0,0,1382,
scooby_state_59cdbf|28|2 1380,0,0,0,0,0,0,0,1,0,0,1,0,0,0,1382,
scooby_state_59cdbf|1|0 1382,0,0,0,0,0,0,0,0,0,0,0,0,0,0,1382,
scooby_state_59cdbf|3|2 1379,0,0,0,0,0,1,0,0,1,0,1,0,0,0,1382,
scooby_state_59d4e0|60|1 1380,1,0,0,0,0,0,1,0,0,0,0,0,0,0,1382,
scooby_state_59cdbf|6|2 1380,0,0,0,0,0,0,0,0,0,0,0,0,0,1,1381,
scooby_state_59cdbf|9|2 1377,0,0,0,0,0,1,0,0,1,0,0,0,1,1,1381,
scooby_state_59cdbf|31|2 1374,1,2,0,1,2,0,0,1,0,0,0,0,0,0,1381,
scooby_state_59d4d1|17|1 1379,0,0,0,0,0,0,2,0,0,0,0,0,0,0,1381,
scooby_state_59cdbf|45|2 1377,0,0,1,0,0,0,0,0,0,0,3,0,0,0,1381,
scooby_state_59cdbf|60|1 1378,0,0,0,0,1,0,1,1,0,0,0,0,0,0,1381,
scooby_state_59d4e0|42|1 1379,0,0,1,1,0,0,0,0,0,0,0,0,0,0,1381,
scooby_state_59cdbf|57|1 1379,1,0,0,0,0,0,0,0,0,0,1,0,0,0,1381,
scooby_state_59cdbf|21|1 1376,0,0,1,0,0,0,0,1,2,0,1,0,0,0,1381,
scooby_state_59cdbf|54|1 1380,0,0,1,0,0,0,0,0,0,0,0,0,0,0,1381,
scooby_state_59cdbf|46|1 1381,0,0,0,0,0,0,0,0,0,0,0,0,0,0,1381,
scooby_state_59cdbf|18|1 1378,1,0,0,0,0,1,0,1,0,0,0,0,0,0,1381,
scooby_state_59cdbf|34|2 1381,0,0,0,0,0,0,0,0,0,0,0,0,0,0,1381,
scooby_state_59d4e0|3|1 1381,0,0,0,0,0,0,0,0,0,0,0,0,0,0,1381,
scooby_state_59cdbf|38|1 1379,0,0,0,1,0,0,0,0,0,0,0,0,0,0,1380,
scooby_state_59cdbf|35|1 1376,0,0,1,0,0,0,0,0,1,0,1,1,0,0,1380,
scooby_state_59cdcf|47|-1 0,1379,0,0,0,0,0,0,0,0,0,1,0,0,0,1380,
scooby_state_59d4d1|39|1 1376,1,0,0,0,0,1,0,0,1,0,1,0,0,0,1380,
scooby_state_59cdbf|48|2 1375,0,0,1,1,0,0,0,2,0,0,0,1,0,0,1380,
scooby_state_59d4e0|17|1 1379,0,0,0,0,0,1,0,0,0,0,0,0,0,0,1380,
scooby_state_59cdcf|19|-1 0,1379,0,0,0,0,0,0,0,0,0,0,0,0,1,1380,
scooby_state_59cde2|20|2 1377,1,0,1,1,0,0,0,0,0,0,0,0,0,0,1380,
scooby_state_59cdbf|13|1 1377,0,0,1,0,0,0,0,0,1,1,0,0,0,0,1380,
scooby_state_59cdbf|26|2 1376,1,1,0,1,1,0,0,0,0,0,0,0,0,0,1380,
scooby_state_59cde2|48|2 1377,0,0,1,0,0,0,0,0,0,1,0,1,0,0,1380,
scooby_state_59cd9b|42|1 1376,0,0,0,1,0,0,0,0,0,0,1,0,0,0,1378,
scooby_state_59d4e0|28|1 1376,0,0,0,0,0,0,1,0,0,0,0,0,0,0,1377,
scooby_state_59d4e0|53|1 1370,0,0,0,0,0,1,1,0,0,0,0,1,0,0,1373,
scooby_state_59d4e0|10|1 1370,1,0,0,0,0,1,0,0,0,0,0,0,0,0,1372,
scooby_state_59d4d1|53|1 1369,0,1,0,0,0,0,0,0,0,0,1,0,0,0,1371,
scooby_state_59cdcf|60|-1 1,1367,0,0,0,1,0,1,0,1,0,0,0,0,0,1371,
scooby_state_59cde2|61|2 1370,0,0,0,0,0,0,0,0,1,0,0,0,0,0,1371,
scooby_state_59d4e0|14|1 1366,0,0,0,0,0,0,0,0,0,0,0,0,1,0,1367,
scooby_state_59d4e0|45|1 1364,0,0,0,0,0,0,0,1,0,0,0,0,0,0,1365,
scooby_state_59cde2|22|2 1360,1,0,0,0,0,1,1,0,0,0,0,0,1,0,1364,
scooby_state_59cd9b|12|1 1361,1,0,0,0,0,0,0,1,0,0,0,0,0,0,1363,
scooby_state_59cde2|58|2 1362,0,0,0,0,0,0,0,0,0,0,0,0,0,1,1363,
scooby_state_59cdcf|21|-1 1,1361,0,0,0,0,1,0,0,0,0,0,0,0,0,1363,
scooby_state_59cdcf|57|-1 1,1359,0,0,0,0,0,1,0,0,0,0,0,1,1,1363,
scooby_state_59d4e0|6|1 1359,1,0,0,0,1,0,0,0,0,0,1,0,0,0,1362,
scooby_state_59cde2|12|1 1356,0,0,0,0,0,1,0,0,0,1,0,1,0,0,1359,
scooby_state_59cdcf|58|-1 0,1355,1,0,0,0,0,0,0,0,0,0,0,0,0,1356,
scooby_state_59cde2|59|2 1353,0,0,1,0,1,0,0,0,0,0,0,0,0,1,1356,
scooby_state_59d4e0|25|1 1354,0,0,0,0,0,0,0,0,0,0,1,0,0,0,1355,
scooby_state_59cde2|9|2 1353,1,0,0,0,1,0,0,0,0,0,0,0,0,0,1355,
scooby_state_59cde2|56|2 1347,0,1,0,0,0,1,0,0,0,0,0,0,1,0,1350,
scooby_state_59cdcf|55|-1 0,1346,0,0,0,0,1,0,2,0,0,0,0,1,0,1350,
scooby_state_59d4e0|24|1 1347,0,0,0,0,0,1,0,0,0,0,0,0,0,1,1349,
scooby_state_59d4e0|35|1 1347,0,0,0,0,0,0,0,0,0,1,0,0,0,1,1349,
scooby_state_59cdbf|32|1 1347,0,0,0,0,0,0,0,0,1,0,0,0,0,0,1348,
scooby_state_59cdbf|7|1 1344,0,1,0,0,0,0,0,0,0,1,0,1,1,0,1348,
scooby_state_59cdbf|56|2 1347,0,0,0,0,0,0,0,0,0,0,0,0,0,1,1348,
scooby_state_59cdbf|42|2 1346,1,0,0,0,1,0,0,0,0,0,0,0,0,0,1348,
scooby_state_59cdbf|20|2 1347,0,0,0,1,0,0,0,0,0,0,0,0,0,0,1348,
scooby_state_59cdbf|17|2 1344,0,2,0,0,0,1,0,0,0,0,0,1,0,0,1348,
scooby_state_59cd9b|28|1 1343,0,1,1,1,0,0,0,1,0,0,0,1,0,0,1348,
scooby_state_59cdbf|59|2 1344,0,0,0,1,0,1,0,0,0,0,0,0,1,1,1348,
scooby_state_59cdbf|43|1 1347,0,0,0,0,0,0,0,0,1,0,0,0,0,0,1348,
scooby_state_59cdbf|29|1 1348,0,0,0,0,0,0,0,0,0,0,0,0,0,0,1348,
scooby_state_59d4e0|61|1 1345,0,1,0,0,0,0,0,0,1,0,0,0,0,0,1347,
scooby_state_59d4e0|47|1 1346,0,0,0,0,0,0,0,0,1,0,0,0,0,0,1347,
scooby_state_59d4e0|22|1 1346,0,0,0,0,0,0,0,0,0,0,0,1,0,0,1347,
scooby_state_59d4d1|14|1 1346,0,0,0,0,0,0,0,0,0,0,0,0,0,1,1347,
scooby_state_59d4e0|8|1 1346,0,0,0,0,0,0,0,0,0,0,1,0,0,0,1347,
scooby_state_59cd9b|6|1 1343,0,0,0,0,0,0,0,0,0,0,0,0,0,1,1344,
scooby_state_59cde2|42|2 1340,0,0,0,0,0,1,0,0,0,0,0,0,0,1,1342,
scooby_state_59cdcf|13|-1 1,1339,0,0,0,1,0,0,0,1,0,0,0,0,0,1342,
scooby_state_59cde2|14|2 1339,0,0,0,2,0,0,0,0,1,0,0,0,0,0,1342,
scooby_state_59cde2|31|2 1339,0,0,0,0,0,0,0,0,0,1,1,0,0,0,1341,
scooby_state_59cdcf|30|-1 0,1341,0,0,0,0,0,0,0,0,0,0,0,0,0,1341,
scooby_state_59cdcf|41|-1 1,1335,1,0,0,1,1,2,0,0,0,0,0,0,0,1341,
scooby_state_59cde2|50|2 1338,0,0,1,0,0,0,0,1,0,0,0,0,0,0,1340,
scooby_state_59cdcf|49|-1 1,1337,0,0,0,0,1,0,0,0,0,0,0,0,0,1339,
scooby_state_59cde2|34|2 1335,1,1,0,0,0,0,0,0,0,0,0,0,0,1,1338,
scooby_state_59cdcf|33|-1 1,1333,0,1,0,0,1,0,1,0,0,0,0,1,0,1338,
scooby_state_59d4e0|39|1 1330,0,1,0,0,0,0,0,0,0,0,0,0,0,1,1332,
scooby_state_59cd9b|3|1 1326,1,0,0,0,2,0,0,0,0,0,0,0,0,1,1330,
scooby_state_59cde2|6|2 1329,0,0,0,0,0,0,0,0,0,0,0,0,0,0,1329,
scooby_state_59cdcf|5|-1 0,1324,0,0,0,0,1,0,2,1,0,0,1,0,0,1329,
scooby_state_59cde2|25|2 1318,0,0,1,0,0,1,0,0,0,0,0,0,0,0,1320,
scooby_state_59d4e0|50|1 1318,0,0,0,0,0,0,0,0,1,0,0,0,0,0,1319,
scooby_state_59cde2|3|2 1317,0,0,0,0,0,0,0,0,0,0,0,1,0,1,1319,
scooby_state_59d4e0|63|1 1312,0,0,1,1,0,1,0,0,0,0,1,0,0,0,1316,
scooby_state_59d4e0|13|1 1315,0,0,0,0,1,0,0,0,0,0,0,0,0,0,1316,
scooby_state_59cde2|17|2 1314,0,0,1,0,0,0,0,0,0,1,0,0,0,0,1316,
scooby_state_59d4e0|38|1 1310,1,0,2,0,0,0,0,0,0,0,1,0,1,0,1315,
scooby_state_59cdcf|16|-1 1,1314,0,0,0,0,0,0,0,0,0,0,0,0,0,1315,
scooby_state_59cde2|36|2 1312,0,1,0,0,0,1,0,0,0,0,0,0,0,1,1315,
scooby_state_59cdbf|4|1 1308,0,0,0,1,1,2,1,0,0,0,0,0,1,1,1315,
scooby_state_59cdcf|63|1 1,1314,0,0,0,0,0,0,0,0,0,0,0,0,0,1315,
scooby_state_59d4e0|52|1 1313,0,0,0,0,0,0,0,0,2,0,0,0,0,0,1315,
scooby_state_59d4e0|44|1 1313,1,0,0,0,0,0,0,0,0,0,0,0,0,0,1314,
scooby_state_59d4e0|33|1 1311,0,0,0,0,1,0,0,0,0,0,0,0,2,0,1314,
scooby_state_59cdcf|35|-1 2,1309,0,1,0,0,0,0,0,0,1,0,0,1,0,1314,
scooby_state_59cde2|28|2 1306,0,0,0,0,0,0,0,0,0,0,0,0,0,3,1309,
scooby_state_59cdcf|27|-1 1,1306,0,0,0,0,0,0,0,0,0,0,0,0,1,1308,
scooby_state_59cdcf|52|-1 2,1302,0,0,0,0,0,1,0,0,1,0,0,0,0,1306,
scooby_state_59cde2|53|2 1304,0,0,0,0,0,1,0,0,0,0,0,0,0,1,1306,
scooby_state_59cdcf|8|-1 0,1303,0,0,0,0,0,0,0,0,0,0,0,0,0,1303,
scooby_state_59d4e0|0|0 1295,0,0,0,0,0,0,0,0,0,0,0,0,0,0,1295,
scooby_state_59cdcf|24|-1 1,1292,0,0,0,0,0,0,0,0,0,0,0,0,0,1293,
scooby_state_59cdcf|2|-1 2,1287,0,0,1,0,0,0,1,0,0,1,0,0,0,1292,
scooby_state_59cde2|11|2 1288,0,0,0,0,0,0,1,0,0,1,1,0,0,0,1291,
scooby_state_59cdcf|10|-1 3,1286,0,1,0,0,0,0,0,0,0,0,0,0,0,1290,
scooby_state_59d4e0|16|1 1279,0,0,0,0,1,0,0,0,1,0,0,0,1,0,1282,
scooby_state_59d4e0|19|1 1277,1,0,0,0,0,1,0,0,2,0,0,1,0,0,1282,
scooby_state_59cde2|39|2 1282,0,0,0,0,0,0,0,0,0,0,0,0,0,0,1282,
scooby_state_59d4e0|58|1 1278,1,0,1,0,0,0,0,0,0,1,1,0,0,0,1282,
scooby_state_59cdcf|38|-1 1,1279,0,0,0,0,0,0,0,1,0,1,0,0,0,1282,
scooby_state_59d4e0|55|1 1279,1,0,1,0,0,0,0,1,0,0,0,0,0,0,1282,
scooby_state_59d4e0|36|1 1279,0,0,1,0,0,0,0,0,0,0,0,1,0,0,1281,
scooby_state_59d4e0|30|1 1279,0,0,0,0,0,1,0,0,0,0,0,0,0,1,1281,
scooby_state_59d4e0|27|1 1275,0,0,0,0,2,1,0,0,0,0,0,0,0,0,1278,
scooby_state_59d4e0|5|1 1275,0,0,0,0,0,0,0,0,0,0,0,0,0,0,1275,
scooby_state_59d4e0|11|1 1265,0,1,0,1,0,0,0,0,0,1,0,1,0,0,1269,
scooby_state_59d4e0|41|1 1247,0,0,0,1,0,0,0,1,0,0,0,0,0,0,1249,
scooby_state_59d4e0|2|1 1247,0,0,0,0,0,0,0,2,0,0,0,0,0,0,1249,
scooby_state_59cd8d|56|1 1,1083,0,0,0,0,0,0,0,1,0,0,0,1,1,1087,
scooby_state_59cd8d|31|1 0,1084,0,0,0,1,0,1,0,0,0,0,0,1,0,1087,
scooby_state_59cd8d|62|1 0,1087,0,0,0,0,0,0,0,0,0,0,0,0,0,1087,
scooby_state_59cd8d|17|1 0,1087,0,0,0,0,0,0,0,0,0,0,0,0,0,1087,
scooby_state_59cd8d|42|1 0,1053,0,0,0,0,0,0,0,0,0,0,0,0,1,1054,
scooby_state_59cd8d|28|1 0,1054,0,0,0,0,0,0,0,0,0,0,0,0,0,1054,
scooby_state_59cd8d|37|1 0,1053,0,0,0,0,0,0,0,0,0,0,1,0,0,1054,
scooby_state_59cd8d|23|1 0,1020,1,0,0,0,0,0,0,0,0,0,0,0,0,1021,
scooby_state_59cd8d|3|1 0,1019,1,0,0,0,0,0,0,0,0,0,0,0,1,1021,
scooby_state_59cdf2|9|1 1004,0,0,0,0,2,0,0,0,0,0,0,0,0,0,1006,
scooby_state_59cd8d|6|1 0,987,0,0,0,0,0,0,1,0,0,0,0,0,0,988,
scooby_state_59cd8d|53|1 0,986,0,1,0,0,1,0,0,0,0,0,0,0,0,988,
scooby_state_59cd8d|9|1 0,988,0,0,0,0,0,0,0,0,0,0,0,0,0,988,
scooby_state_59cd8d|14|1 1,984,0,0,1,0,1,1,0,0,0,0,0,0,0,988,
scooby_state_59cd8d|59|1 0,955,0,0,0,0,0,0,0,0,0,0,0,0,0,955,
scooby_state_59cd8d|34|1 0,951,0,0,2,0,0,0,1,0,0,0,0,1,0,955,
scooby_state_59cd8d|39|1 0,951,0,0,0,1,0,0,0,0,0,1,2,0,0,955,
scooby_state_59cd8d|12|1 0,955,0,0,0,0,0,0,0,0,0,0,0,0,0,955,
scooby_state_59cd8d|45|1 0,954,0,0,0,0,0,0,1,0,0,0,0,0,0,955,
scooby_state_59cd8d|48|1 0,952,0,0,0,0,0,0,0,0,0,1,0,1,1,955,
scooby_state_59cd8d|20|1 0,953,1,0,0,0,0,0,0,1,0,0,0,0,0,955,
scooby_state_59cdf2|48|1 953,0,0,0,0,1,0,0,0,0,0,0,0,0,0,954,
scooby_state_59cdf2|34|1 951,0,0,0,1,0,0,0,1,0,0,0,0,0,0,953,
scooby_state_59cdf2|23|1 938,0,0,1,0,0,0,0,0,1,0,0,1,1,0,942,
scooby_state_59cdb0|11|1 0,928,0,0,0,0,0,0,2,0,0,0,0,0,0,930,
scooby_state_59cdf2|6|1 922,0,0,0,0,0,0,0,1,0,0,0,0,0,0,923,
scooby_state_59cd8d|50|1 1,921,0,0,0,0,0,0,0,0,0,0,0,0,0,922,
scooby_state_59cdee|15|1 922,0,0,0,0,0,0,0,0,0,0,0,0,0,0,922,
scooby_state_59cdcb|7|1 921,0,0,0,0,0,0,1,0,0,0,0,0,0,0,922,
scooby_state_59cd8d|0|0 0,921,0,0,0,0,1,0,0,0,0,0,0,0,0,922,
scooby_state_59cd8d|26|1 1,921,0,0,0,0,0,0,0,0,0,0,0,0,0,922,
scooby_state_59cd8d|11|1 1,919,0,0,0,0,0,1,0,0,0,1,0,0,0,922,
scooby_state_59cd8d|36|1 0,921,0,0,0,0,0,0,0,0,0,1,0,0,0,922,
scooby_state_59cdcb|46|1 922,0,0,0,0,0,0,0,0,0,0,0,0,0,0,922,
scooby_state_59cd8d|25|1 0,920,1,0,0,0,0,0,0,0,0,0,1,0,0,922,
scooby_state_59cdcb|32|1 919,1,0,0,0,0,1,0,0,0,0,0,1,0,0,922,
scooby_state_59cdee|54|1 920,0,1,0,0,1,0,0,0,0,0,0,0,0,0,922,
scooby_state_59cdf2|59|1 915,0,0,0,0,0,0,0,0,1,0,0,0,0,0,916,
scooby_state_59cdf2|20|1 905,0,0,0,0,0,0,0,0,0,0,0,0,0,0,905,
scooby_state_59d4d1|36|2 903,1,0,0,0,0,0,0,0,0,0,0,1,0,0,905,
scooby_state_59cdb0|36|1 0,895,0,0,0,0,0,0,0,0,0,0,0,0,0,895,
scooby_state_59cdf2|42|2 894,0,0,0,0,1,0,0,0,0,0,0,0,0,0,895,
scooby_state_59d4d1|61|2 893,0,0,0,0,0,0,0,0,1,0,0,0,0,0,894,
scooby_state_59cdf2|54|1 890,0,0,0,0,1,0,0,0,0,0,0,0,0,0,891,
scooby_state_59cdb0|50|1 0,889,0,0,0,0,0,1,0,0,0,0,0,0,0,890,
scooby_state_59cdcb|57|1 887,0,0,0,0,0,1,0,0,0,0,1,0,0,0,889,
scooby_state_59cdee|1|1 884,1,0,0,0,1,0,0,0,1,0,1,0,0,1,889,
scooby_state_59cdee|26|1 887,0,0,0,1,0,0,0,0,0,0,0,0,1,0,889,
scooby_state_59cd8d|61|1 0,886,1,0,0,0,1,0,0,0,0,0,1,0,0,889,
scooby_state_59cd8d|1|1 2,886,0,0,0,0,0,0,0,1,0,0,0,0,0,889,
scooby_state_59cdee|29|1 887,0,0,1,0,0,0,0,0,1,0,0,0,0,0,889,
scooby_state_59cdcb|18|1 889,0,0,0,0,0,0,0,0,0,0,0,0,0,0,889,
scooby_state_59cdee|40|1 889,0,0,0,0,0,0,0,0,0,0,0,0,0,0,889,
scooby_state_59cd8d|43|1 2,886,0,0,0,0,0,0,1,0,0,0,0,0,0,889,
scooby_state_59cd8d|51|1 0,888,0,1,0,0,0,0,0,0,0,0,0,0,0,889,
scooby_state_59cdcb|21|1 887,1,0,0,0,0,0,0,0,0,0,0,0,0,0,888,
scooby_state_59cd8d|22|1 0,881,1,0,2,0,0,0,0,0,0,0,0,0,1,885,
scooby_state_59cdf2|45|1 881,0,0,0,0,1,0,0,0,0,0,0,0,0,0,882,
scooby_state_59d4d1|22|2 874,0,0,1,0,1,0,0,0,0,0,1,1,0,0,878,
scooby_state_59cdf2|3|2 872,0,0,0,0,1,0,0,0,0,0,0,0,0,0,873,
scooby_state_59cdb0|25|1 0,870,0,1,0,0,0,0,0,0,0,1,0,0,0,872,
scooby_state_59cdf2|3|1 870,0,1,0,0,1,0,0,0,0,0,0,0,0,0,872,
scooby_state_59cdf2|28|2 867,0,0,0,0,0,0,0,0,0,0,0,0,0,0,867,
scooby_state_59cdb0|22|1 0,865,0,0,0,0,0,0,0,0,0,0,1,0,0,866,
scooby_state_59cdf2|53|1 860,0,0,0,0,0,0,0,0,0,1,0,0,1,0,862,
scooby_state_59cdf2|14|2 856,0,0,0,1,0,1,2,0,0,0,0,0,0,0,860,
scooby_state_59d4d1|47|2 859,0,0,0,0,0,0,0,0,0,0,0,0,0,0,859,
scooby_state_59cdb0|61|1 0,853,0,0,0,0,0,0,0,1,2,0,2,0,0,858,
scooby_state_59cd8d|15|1 1,852,0,0,0,0,0,1,0,0,0,0,1,0,1,856,
scooby_state_59cdee|12|1 853,0,0,0,0,0,0,0,0,0,0,1,2,0,0,856,
scooby_state_59cd8d|40|1 1,853,0,0,0,1,0,0,0,0,1,0,0,0,0,856,
scooby_state_59cdcb|4|1 853,0,0,2,0,0,1,0,0,0,0,0,0,0,0,856,
scooby_state_59cdcb|43|1 855,0,0,0,0,0,0,1,0,0,0,0,0,0,0,856,
scooby_state_59cdee|51|1 853,0,1,0,0,0,1,0,0,0,1,0,0,0,0,856,
scooby_state_59cdcb|52|1 852,0,0,0,0,0,0,0,2,1,0,0,0,0,1,856,
scooby_state_59cd8d|4|1 1,854,0,0,0,0,0,0,0,0,0,0,0,1,0,856,
scooby_state_59cd8d|16|1 0,855,0,0,0,0,0,0,0,0,0,0,0,0,0,855,
scooby_state_59cd8d|55|1 0,854,0,1,0,0,0,0,0,0,0,0,0,0,0,855,
scooby_state_59cdf2|42|1 846,0,2,0,0,1,0,1,0,0,0,0,0,0,0,850,
scooby_state_59cdf2|62|1 845,0,0,0,1,1,0,0,0,0,0,0,0,0,1,848,
scooby_state_59cd8d|47|1 1,844,0,0,0,0,0,0,0,0,0,0,2,1,0,848,
scooby_state_59cdf2|28|1 844,0,0,0,0,0,1,0,0,0,0,0,0,0,0,845,
scooby_state_59cdf2|12|1 843,0,1,0,0,0,0,0,0,0,0,0,0,0,0,844,
scooby_state_59d4d1|58|2 841,0,0,0,0,0,1,1,0,0,0,0,0,0,0,843,
scooby_state_59cdf2|17|2 838,0,0,0,0,0,1,0,1,0,0,0,0,0,0,840,
scooby_state_59cdf2|17|1 835,0,1,0,0,0,0,1,1,0,0,1,0,0,0,839,
scooby_state_59cdf2|56|1 836,0,0,1,0,0,0,0,0,0,0,1,0,0,0,838,
scooby_state_59cdf2|26|1 837,0,0,0,0,0,0,0,0,0,0,0,0,0,0,837,
scooby_state_59cdb0|8|1 0,834,0,0,0,0,0,0,0,0,0,1,0,1,0,836,
scooby_state_59cdf2|31|1 835,0,0,0,0,0,0,0,0,1,0,0,0,0,0,836,
scooby_state_59cdb0|56|1 0,834,0,0,0,0,0,0,0,0,0,0,0,0,0,834,
scooby_state_59cdf2|37|1 831,0,0,0,0,1,0,0,0,0,0,0,0,0,0,832,
scooby_state_59cd8d|19|1 0,829,0,0,0,0,0,0,1,0,0,0,0,0,0,830,
scooby_state_59d4d1|19|2 825,0,0,0,0,0,0,0,0,0,0,1,0,0,1,827,
scooby_state_59cdf2|48|2 822,0,0,0,0,0,0,0,0,1,0,0,0,0,1,824,
scooby_state_59cdcb|54|1 823,0,0,0,0,0,0,0,0,0,0,0,0,0,0,823,
scooby_state_59cdee|60|1 821,0,0,0,0,0,0,2,0,0,0,0,0,0,0,823,
scooby_state_59cdcb|1|1 822,0,0,0,1,0,0,0,0,0,0,0,0,0,0,823,
scooby_state_59cdcb|15|1 823,0,0,0,0,0,0,0,0,0,0,0,0,0,0,823,
scooby_state_59cdcb|26|1 821,0,0,0,0,0,0,0,1,0,0,0,0,1,0,823,
scooby_state_59cdcb|29|1 822,0,0,0,0,0,0,0,0,0,0,1,0,0,0,823,
scooby_state_59cdee|37|1 822,0,0,1,0,0,0,0,0,0,0,0,0,0,0,823,
scooby_state_59cd8d|29|1 1,821,0,1,0,0,0,0,0,0,0,0,0,0,0,823,
scooby_state_59cdee|9|1 820,0,0,0,0,1,0,1,0,0,0,1,0,0,0,823,
scooby_state_59cdcb|60|1 819,1,1,0,0,0,0,0,0,0,0,1,0,1,0,823,
scooby_state_59cdee|48|1 822,0,0,0,0,0,1,0,0,0,0,0,0,0,0,823,
scooby_state_59cdee|4|1 823,0,0,0,0,0,0,0,0,0,0,0,0,0,0,823,
scooby_state_59cdee|23|1 821,0,1,0,1,0,0,0,0,0,0,0,0,0,0,823,
scooby_state_59cdee|62|1 820,0,0,0,0,0,1,0,1,1,0,0,0,0,0,823,
scooby_state_59cd8d|18|1 1,821,1,0,0,0,0,0,0,0,0,0,0,0,0,823,
scooby_state_59cdcb|40|1 821,0,0,0,0,0,0,0,0,0,0,0,0,1,1,823,
scooby_state_59cd8d|52|1 0,819,1,0,0,0,0,0,0,0,0,0,2,0,0,822,
scooby_state_59cd8d|38|1 0,818,2,0,0,0,0,0,0,1,0,1,0,0,0,822,
scooby_state_59cd8d|2|1 0,822,0,0,0,0,0,0,0,0,0,0,0,0,0,822,
scooby_state_59cd8d|41|1 0,820,0,0,1,0,0,1,0,0,0,0,0,0,0,822,
scooby_state_59d4d1|33|2 815,0,0,1,0,1,0,0,0,0,0,0,0,1,0,818,
scooby_state_59cdf2|53|2 816,0,0,0,1,0,0,0,0,0,0,0,0,0,0,817,
scooby_state_59cdf2|14|1 816,0,0,0,0,0,0,0,0,1,0,0,0,0,0,817,
scooby_state_59d4d1|8|2 816,1,0,0,0,0,0,0,0,0,0,0,0,0,0,817,
scooby_state_59cdb0|47|1 0,813,0,0,0,0,0,0,0,0,1,0,0,0,0,814,
scooby_state_59cdf2|25|2 813,1,0,0,0,0,0,0,0,0,0,0,0,0,0,814,
scooby_state_59cdf2|29|1 813,0,0,0,0,0,0,0,0,0,0,0,0,0,0,813,
scooby_state_59d4d1|42|2 810,0,0,0,0,1,1,1,0,0,0,0,0,0,0,813,
scooby_state_59cd8d|8|1 0,809,0,0,0,0,0,1,0,0,0,1,0,0,0,811,
scooby_state_59cdf2|51|1 807,0,0,0,1,0,0,1,0,0,0,0,0,0,0,809,
scooby_state_59cdf2|19|1 808,0,0,0,0,0,0,0,0,0,0,0,0,0,0,808,
scooby_state_59cd8d|33|1 0,807,0,0,0,0,0,0,0,0,0,0,0,0,0,807,
scooby_state_59cdf2|39|1 804,1,0,1,0,0,0,0,0,0,0,0,0,0,0,806,
scooby_state_59cdb0|19|1 0,804,0,0,0,0,0,1,0,0,0,0,0,0,0,805,
scooby_state_59cdf2|36|2 804,0,0,0,0,0,0,0,0,0,0,0,0,0,0,804,
scooby_state_59cd8d|58|1 0,799,1,0,0,0,1,1,1,0,0,0,0,0,0,803,
scooby_state_59cdb0|44|1 0,802,0,0,0,0,0,1,0,0,0,0,0,0,0,803,
scooby_state_59cdf2|39|2 801,0,0,0,0,0,0,0,0,0,0,0,0,0,0,801,
scooby_state_59cdb0|58|1 0,797,0,0,0,0,0,0,0,0,1,0,0,1,0,799,
scooby_state_59d4d1|16|2 792,0,0,0,0,2,0,0,0,2,0,1,1,0,0,798,
scooby_state_59d4d1|41|2 795,0,0,1,0,0,0,0,0,0,0,1,0,0,0,797,
scooby_state_59d4d1|30|2 796,0,0,0,0,0,0,0,0,0,0,0,0,0,0,796,
scooby_state_59cd8d|44|1 0,794,0,0,0,0,0,0,0,0,0,0,0,0,0,794,
scooby_state_59cdb0|14|1 0,792,0,0,0,0,1,0,0,0,0,0,0,0,0,793,
scooby_state_59cdf2|5|1 790,0,1,0,0,0,1,0,0,0,0,0,0,0,0,792,
scooby_state_59cdf2|61|1 790,0,0,0,1,0,0,0,0,0,0,0,0,0,0,791,
scooby_state_59cdb0|5|1 0,790,0,0,0,0,0,0,0,0,1,0,0,0,0,791,
scooby_state_59cdf2|61|2 791,0,0,0,0,0,0,0,0,0,0,0,0,0,0,791,
scooby_state_59cdcb|27|1 788,0,0,0,0,0,0,0,0,1,1,0,0,0,0,790,
scooby_state_59cdee|18|1 787,1,0,0,0,0,1,1,0,0,0,0,0,0,0,790,
scooby_state_59cdee|7|1 789,0,0,0,0,0,0,0,0,0,0,0,0,1,0,790,
scooby_state_59cd8d|57|1 1,787,0,1,0,0,0,0,0,0,0,0,0,0,1,790,
scooby_state_59cdcb|10|1 786,0,0,0,1,0,0,1,1,0,0,0,0,1,0,790,
scooby_state_59cdcb|63|1 789,0,1,0,0,0,0,0,0,0,0,0,0,0,0,790,
scooby_state_59cdee|43|1 790,0,0,0,0,0,0,0,0,0,0,0,0,0,0,790,
scooby_state_59cdee|57|1 786,0,0,1,0,0,0,1,0,0,1,1,0,0,0,790,
scooby_state_59cd8d|54|1 1,788,0,1,0,0,0,0,0,0,0,0,0,0,0,790,
scooby_state_59cdcb|51|1 787,0,0,0,0,1,1,0,0,0,0,0,1,0,0,790,
scooby_state_59cdcb|24|1 789,0,1,0,0,0,0,0,0,0,0,0,0,0,0,790,
scooby_state_59cdee|32|1 789,0,0,0,0,0,1,0,0,0,0,0,0,0,0,790,
scooby_state_59cdcb|49|1 790,0,0,0,0,0,0,0,0,0,0,0,0,0,0,790,
scooby_state_59cdcb|13|1 787,0,0,0,0,0,2,0,0,0,1,0,0,0,0,790,
scooby_state_59cdee|34|1 790,0,0,0,0,0,0,0,0,0,0,0,0,0,0,790,
scooby_state_59cdcb|35|1 785,0,0,0,1,0,1,1,0,0,0,0,0,2,0,790,
scooby_state_59cdee|35|1 790,0,0,0,0,0,0,0,0,0,0,0,0,0,0,790,
scooby_state_59cd8d|32|1 1,789,0,0,0,0,0,0,0,0,0,0,0,0,0,790,
scooby_state_59cdf2|11|1 789,0,0,0,0,0,0,0,0,0,0,1,0,0,0,790,
scooby_state_59cd8d|5|1 1,788,0,0,0,0,0,0,0,0,0,1,0,0,0,790,
scooby_state_59cd8d|49|1 0,787,0,1,0,0,0,0,0,0,0,0,0,0,1,789,
scooby_state_59cd8d|30|1 2,786,0,1,0,0,0,0,0,0,0,0,0,0,0,789,
scooby_state_59cd8d|10|1 0,789,0,0,0,0,0,0,0,0,0,0,0,0,0,789,
scooby_state_59cd8d|27|1 0,788,0,0,0,0,0,1,0,0,0,0,0,0,0,789,
scooby_state_59cd8d|13|1 0,788,0,0,1,0,0,0,0,0,0,0,0,0,0,789,
scooby_state_59cdcb|12|1 787,0,0,0,0,0,0,0,0,0,0,0,0,0,1,788,
scooby_state_59cdf2|50|2 783,2,0,1,0,0,0,1,0,0,0,0,0,0,1,788,
scooby_state_59cdb0|0|0 1,786,0,0,0,0,0,0,0,1,0,0,0,0,0,788,
scooby_state_59d4d1|3|2 787,0,0,0,0,0,0,0,0,1,0,0,0,0,0,788,
scooby_state_59cdee|20|1 784,0,1,1,0,0,0,0,0,0,0,0,0,0,1,787,
scooby_state_59d4d1|55|2 786,0,0,0,0,0,0,0,0,0,1,0,0,0,0,787,
scooby_state_59cdf2|30|1 786,0,0,0,0,0,0,0,0,0,0,0,0,0,0,786,
scooby_state_59cdf2|25|1 785,0,0,0,0,0,0,0,0,0,0,0,0,0,0,785,
scooby_state_59cdb0|33|1 0,779,0,0,0,0,0,0,0,0,0,0,0,0,0,779,
scooby_state_59cdf2|8|2 776,0,1,1,0,0,0,0,0,0,0,0,0,0,0,778,
scooby_state_59d4d1|44|2 776,0,0,1,0,0,1,0,0,0,0,0,0,0,0,778,
scooby_state_59d4d1|5|2 775,1,0,0,1,0,0,0,1,0,0,0,0,0,0,778,
scooby_state_59cdf2|31|2 777,0,0,0,0,0,0,0,0,0,0,0,0,0,0,777,
scooby_state_59cdf2|22|2 775,1,0,0,0,0,0,0,0,1,0,0,0,0,0,777,
scooby_state_59cdf2|44|1 774,1,0,0,0,0,0,0,0,0,0,0,0,0,0,775,
scooby_state_59cdf2|58|1 773,0,0,0,1,0,0,0,0,0,0,0,1,0,0,775,
scooby_state_59cdf2|56|2 775,0,0,0,0,0,0,0,0,0,0,0,0,0,0,775,
scooby_state_59cdb0|3|1 0,774,0,1,0,0,0,0,0,0,0,0,0,0,0,775,
scooby_state_59cdf2|20|2 774,0,0,0,0,0,0,0,0,0,0,0,0,0,0,774,
scooby_state_59cdf2|15|1 770,0,0,0,0,0,0,1,1,0,0,0,0,0,0,772,
scooby_state_59cdf2|47|2 772,0,0,0,0,0,0,0,0,0,0,0,0,0,0,772,
scooby_state_59cdf2|33|2 769,0,1,0,0,0,0,0,0,1,0,0,0,0,0,771,
scooby_state_59cdf2|33|1 769,0,1,0,0,0,0,0,0,0,0,0,0,0,0,770,
scooby_state_59cdf2|22|1 769,0,0,0,0,0,0,0,0,0,0,0,0,0,0,769,
scooby_state_59cdf2|11|2 763,0,1,0,0,0,0,0,1,0,2,0,0,0,0,767,
scooby_state_59cdf2|40|1 766,0,0,0,0,0,0,0,0,0,0,0,0,0,1,767,
scooby_state_59cdf2|8|1 767,0,0,0,0,0,0,0,0,0,0,0,0,0,0,767,
scooby_state_59cdb0|28|1 0,765,0,0,1,0,0,1,0,0,0,0,0,0,0,767,
scooby_state_59cdf2|4|1 761,0,1,0,0,0,1,2,1,0,0,0,0,0,0,766,
scooby_state_59cdf2|57|1 764,0,0,0,0,0,0,0,0,0,1,0,0,0,0,765,
scooby_state_59cdf2|45|2 763,1,0,0,0,0,0,0,0,0,0,0,0,0,0,764,
scooby_state_59cdcb|34|1 762,1,0,0,0,0,0,0,0,0,0,0,0,0,0,763,
scooby_state_59cdb0|30|1 0,758,0,0,0,0,0,0,0,1,0,1,0,1,0,761,
scooby_state_59cdf2|10|1 761,0,0,0,0,0,0,0,0,0,0,0,0,0,0,761,
scooby_state_59d4d1|25|2 760,0,0,0,0,0,0,0,0,0,0,0,0,0,1,761,
scooby_state_59d4d1|14|2 758,0,0,0,0,0,0,0,0,0,0,0,0,0,0,758,
scooby_state_59cdb0|53|1 0,758,0,0,0,0,0,0,0,0,0,0,0,0,0,758,
scooby_state_59d4d1|39|2 756,0,0,0,0,0,0,0,0,0,0,0,1,1,0,758,
scooby_state_59cdee|59|1 756,0,0,0,0,0,0,0,0,0,0,0,0,0,1,757,
scooby_state_59cdee|46|1 755,0,0,1,0,0,0,0,1,0,0,0,0,0,0,757,
scooby_state_59cdee|21|1 753,0,1,0,0,0,1,0,1,0,0,1,0,0,0,757,
scooby_state_59cdcb|38|1 755,0,0,1,0,0,0,0,1,0,0,0,0,0,0,757,
scooby_state_59cd8d|7|1 1,755,0,0,0,0,0,0,0,0,1,0,0,0,0,757,
scooby_state_59d4d1|50|2 755,0,0,0,0,1,0,0,0,1,0,0,0,0,0,757,
scooby_state_59cd8d|21|1 0,755,0,0,0,0,1,0,0,0,0,0,0,0,0,756,
scooby_state_59cdcb|56|1 756,0,0,0,0,0,0,0,0,0,0,0,0,0,0,756,
scooby_state_59cdcb|31|1 756,0,0,0,0,0,0,0,0,0,0,0,0,0,0,756,
scooby_state_59cdee|14|1 754,1,0,1,0,0,0,0,0,0,0,0,0,0,0,756,
scooby_state_59cdcb|6|1 755,0,0,0,0,0,1,0,0,0,0,0,0,0,0,756,
scooby_state_59cdf2|18|1 754,0,1,0,0,0,0,0,0,0,0,0,1,0,0,756,
scooby_state_59cd8d|46|1 0,755,0,0,0,0,0,0,0,0,0,0,0,0,1,756,
scooby_state_59cdee|39|1 755,0,0,0,0,0,0,0,0,0,1,0,0,0,0,756,
scooby_state_59cdee|50|1 756,0,0,0,0,0,0,0,0,0,0,0,0,0,0,756,
scooby_state_59cdcb|17|1 754,0,1,0,0,0,1,0,0,0,0,0,0,0,0,756,
scooby_state_59cd8d|24|1 0,756,0,0,0,0,0,0,0,0,0,0,0,0,0,756,
scooby_state_59cd8d|35|1 0,755,0,0,0,0,0,1,0,0,0,0,0,0,0,756,
scooby_state_59cd8d|63|1 0,754,1,0,1,0,0,0,0,0,0,0,0,0,0,756,
scooby_state_59d4d1|2|2 755,0,0,0,0,0,0,0,0,0,0,0,0,0,0,755,
scooby_state_59cdb0|39|1 1,752,0,0,0,0,0,0,0,1,0,0,0,0,0,754,
scooby_state_59d4d1|27|2 753,0,0,0,0,0,1,0,0,0,0,0,0,0,0,754,
scooby_state_59cdcb|37|1 750,0,0,0,0,1,0,0,0,0,0,0,0,0,0,751,
scooby_state_59cdb0|31|1 0,750,0,0,1,0,0,0,0,0,0,0,0,0,0,751,
scooby_state_59cdee|45|1 750,0,0,0,0,0,0,0,0,0,0,0,0,0,0,750,
scooby_state_59cdf2|36|1 748,1,0,0,0,0,0,0,0,0,0,0,0,0,0,749,
scooby_state_59cdb0|16|1 0,746,0,0,1,1,0,0,0,1,0,0,0,0,0,749,
scooby_state_59cdcb|62|1 744,0,0,0,0,0,0,0,0,0,0,2,0,1,0,747,
scooby_state_59cdee|6|1 743,1,0,0,1,0,0,0,0,1,0,0,0,0,0,746,
scooby_state_59cdb0|35|1 0,745,0,0,0,0,0,0,0,0,0,0,0,0,0,745,
scooby_state_59cdf2|55|1 742,0,0,0,0,0,0,0,1,0,1,0,0,0,0,744,
scooby_state_59cdcb|23|1 741,2,0,0,0,0,0,0,0,0,0,0,0,0,0,743,
scooby_state_59cdee|31|1 742,0,0,0,0,0,0,0,0,0,0,0,0,0,0,742,
scooby_state_59cdf2|47|1 740,0,0,0,0,0,0,0,1,0,0,0,0,0,0,741,
scooby_state_59cdf2|50|1 739,0,0,0,1,0,0,0,0,0,0,1,0,0,0,741,
scooby_state_59cdf2|43|1 737,0,0,0,0,1,1,0,0,0,1,0,0,0,1,741,
scooby_state_59cdf2|9|2 736,0,0,0,0,0,0,0,1,1,0,0,0,0,1,739,
scooby_state_59cdb0|41|1 1,736,0,0,0,0,0,0,0,0,0,0,0,1,0,738,
scooby_state_59cdf2|60|1 737,0,0,0,0,0,0,0,0,1,0,0,0,0,0,738,
scooby_state_59cdf2|35|1 734,0,0,0,1,0,0,0,0,0,0,1,1,0,0,737,
scooby_state_59d4d1|52|2 735,0,0,0,0,0,0,0,0,0,0,0,0,0,0,735,
scooby_state_59cdb0|10|1 0,733,0,0,0,1,0,0,0,0,0,1,0,0,0,735,
scooby_state_59cdf2|27|2 734,0,0,0,0,0,0,0,0,0,0,0,0,0,1,735,
scooby_state_59d4d1|53|2 734,0,0,0,0,0,0,0,0,0,0,0,0,0,0,734,
scooby_state_59cdcb|9|1 730,0,0,0,0,0,0,0,1,1,0,0,0,1,1,734,
scooby_state_59cdee|17|1 731,0,0,0,0,0,0,0,0,1,0,1,0,0,0,733,
scooby_state_59d4d1|46|2 732,0,0,0,0,0,0,0,0,0,0,0,0,0,1,733,
scooby_state_59cdb0|60|1 0,730,1,0,0,0,0,0,1,0,0,0,0,0,0,732,
scooby_state_59cdf2|52|2 728,0,0,0,0,1,0,0,0,0,0,2,0,0,1,732,
scooby_state_59cdf2|21|1 730,0,0,0,1,0,0,1,0,0,0,0,0,0,0,732,
scooby_state_59d4d1|21|2 729,0,0,1,0,0,0,0,0,0,0,1,0,0,0,731,
scooby_state_59cdf2|59|2 729,0,1,0,0,0,0,0,0,0,0,0,0,0,0,730,
scooby_state_59cdf2|13|2 727,0,0,0,1,0,0,1,0,0,0,0,0,0,0,729,
scooby_state_59cdf2|58|2 728,0,0,0,1,0,0,0,0,0,0,0,0,0,0,729,
scooby_state_59cdee|42|1 729,0,0,0,0,0,0,0,0,0,0,0,0,0,0,729,
scooby_state_59d4d1|11|2 727,0,0,0,1,0,0,0,0,0,0,0,0,0,0,728,
scooby_state_59cdb0|42|1 0,727,0,0,0,0,0,0,0,0,0,0,0,0,0,727,
scooby_state_59cdf2|34|2 724,0,0,0,0,1,0,0,0,1,0,0,0,0,0,726,
scooby_state_59cdcb|59|1 725,1,0,0,0,0,0,0,0,0,0,0,0,0,0,726,
scooby_state_59cdf2|19|2 724,0,1,0,0,0,0,0,0,0,0,0,0,0,0,725,
scooby_state_59d4d1|7|2 725,0,0,0,0,0,0,0,0,0,0,0,0,0,0,725,
scooby_state_59d4d1|13|2 725,0,0,0,0,0,0,0,0,0,0,0,0,0,0,725,
scooby_state_59cdee|3|1 725,0,0,0,0,0,0,0,0,0,0,0,0,0,0,725,
scooby_state_59cdf2|2|1 722,2,0,0,0,0,0,0,0,0,0,0,0,0,0,724,
scooby_state_59cdee|10|1 724,0,0,0,0,0,0,0,0,0,0,0,0,0,0,724,
scooby_state_59cdee|63|1 723,0,0,0,0,0,0,0,0,0,1,0,0,0,0,724,
scooby_state_59cdee|41|1 723,0,0,0,0,0,0,0,0,0,0,1,0,0,0,724,
scooby_state_59d4d1|17|2 720,1,0,0,0,0,1,0,0,2,0,0,0,0,0,724,
scooby_state_59cdcb|55|1 721,0,0,0,0,0,0,1,1,0,1,0,0,0,0,724,
scooby_state_59cdee|49|1 724,0,0,0,0,0,0,0,0,0,0,0,0,0,0,724,
scooby_state_59cdcb|2|1 724,0,0,0,0,0,0,0,0,0,0,0,0,0,0,724,
scooby_state_59cdb0|55|1 0,724,0,0,0,0,0,0,0,0,0,0,0,0,0,724,
scooby_state_59cdcb|16|1 723,0,0,0,0,0,1,0,0,0,0,0,0,0,0,724,
scooby_state_59cdee|24|1 721,0,0,0,0,1,1,0,0,0,1,0,0,0,0,724,
scooby_state_59cdcb|41|1 723,0,0,0,1,0,0,0,0,0,0,0,0,0,0,724,
scooby_state_59cdee|36|1 721,0,1,0,0,0,0,1,0,0,0,0,0,0,0,723,
scooby_state_59cdee|25|1 720,0,0,0,0,0,0,1,1,0,0,0,0,1,0,723,
scooby_state_59cdcb|45|1 722,0,0,0,0,0,0,0,0,0,0,1,0,0,0,723,
scooby_state_59cdcb|28|1 723,0,0,0,0,0,0,0,0,0,0,0,0,0,0,723,
scooby_state_59cd8d|60|1 0,723,0,0,0,0,0,0,0,0,0,0,0,0,0,723,
scooby_state_59cdee|28|1 722,0,0,0,0,0,1,0,0,0,0,0,0,0,0,723,
scooby_state_59cdee|11|1 721,0,0,0,0,0,0,1,0,0,0,1,0,0,0,723,
scooby_state_59cdcb|3|1 721,1,0,0,0,0,0,0,0,0,1,0,0,0,0,723,
scooby_state_59cdcb|20|1 722,0,0,0,0,0,1,0,0,0,0,0,0,0,0,723,
scooby_state_59cdcb|42|1 721,0,1,0,0,1,0,0,0,0,0,0,0,0,0,723,
scooby_state_59cdee|53|1 722,0,0,0,0,0,0,1,0,0,0,0,0,0,0,723,
scooby_state_59cdf2|6|2 722,0,0,0,0,0,0,0,0,0,0,1,0,0,0,723,
scooby_state_59cdee|0|0 722,0,0,0,0,0,1,0,0,0,0,0,0,0,0,723,
scooby_state_59cdf2|2|2 721,0,0,0,0,0,0,0,0,0,1,0,0,0,0,722,
scooby_state_59cdb0|2|1 0,720,0,0,0,0,0,0,0,0,0,0,0,0,0,720,
scooby_state_59cdb0|27|1 1,716,0,0,0,0,0,0,0,0,0,0,0,1,0,718,
scooby_state_59cdf2|24|2 717,0,0,0,0,0,0,0,0,0,0,0,0,0,0,717,
scooby_state_59cdb0|13|1 0,715,1,1,0,0,0,0,0,0,0,0,0,0,0,717,
scooby_state_59d4d1|10|2 715,0,0,1,0,0,0,0,0,0,0,0,0,0,0,716,
scooby_state_59cdf2|32|1 716,0,0,0,0,0,0,0,0,0,0,0,0,0,0,716,
scooby_state_59d4d1|28|2 714,1,0,0,0,0,0,0,0,0,0,0,0,0,0,715,
scooby_state_59cdf2|41|2 714,0,0,0,0,0,0,0,0,0,0,0,0,0,0,714,
scooby_state_59cdf2|52|1 713,0,0,0,0,0,0,0,1,0,0,0,0,0,0,714,
scooby_state_59d4d1|60|2 712,0,0,0,0,0,0,0,0,0,0,0,0,1,0,713,
scooby_state_59cdb0|38|1 0,710,0,0,0,0,0,0,0,0,0,0,1,0,0,711,
scooby_state_59cdb0|17|1 0,710,0,0,0,0,0,0,1,0,0,0,0,0,0,711,
scooby_state_59cdf2|27|1 709,0,0,0,0,0,0,0,0,0,0,0,1,1,0,711,
scooby_state_59cdf2|7|1 710,0,0,1,0,0,0,0,0,0,0,0,0,0,0,711,
scooby_state_59d4d1|63|2 710,0,0,0,0,0,0,0,0,0,0,0,0,0,1,711,
scooby_state_59d4d1|32|2 705,0,0,1,0,0,1,1,0,0,0,0,1,0,0,709,
scooby_state_59cdb0|6|1 0,707,0,0,0,0,0,0,0,0,0,0,0,1,0,708,
scooby_state_59cdf2|63|2 705,0,0,0,0,0,0,0,0,0,0,1,0,0,0,706,
scooby_state_59cdb0|24|1 0,705,0,0,0,0,0,0,0,0,0,1,0,0,0,706,
scooby_state_59cdcb|48|1 705,0,0,0,0,0,0,1,0,0,0,0,0,0,0,706,
scooby_state_59cdf2|51|2 703,0,0,0,0,0,0,1,1,0,0,0,0,0,0,705,
scooby_state_59d4d1|38|2 702,0,2,0,1,0,0,0,0,0,0,0,0,0,0,705,
scooby_state_59cdee|56|1 702,0,1,0,0,0,0,0,0,0,2,0,0,0,0,705,
scooby_state_59cdf2|23|2 703,0,0,0,0,0,0,1,0,0,0,0,0,0,0,704,
scooby_state_59d4d1|45|2 702,0,1,0,0,0,0,0,0,0,0,0,0,0,0,703,
scooby_state_59cdb0|59|1 1,701,0,0,0,0,0,0,0,0,0,0,0,0,0,702,
scooby_state_59cdb0|20|1 0,699,0,0,0,0,0,1,0,0,0,0,1,0,0,701,
scooby_state_59d4d1|57|2 700,0,1,0,0,0,0,0,0,0,0,0,0,0,0,701,
scooby_state_59cdf2|30|2 701,0,0,0,0,0,0,0,0,0,0,0,0,0,0,701,
scooby_state_59cdf2|49|1 699,0,1,0,0,0,0,0,0,0,0,0,0,0,0,700,
scooby_state_59d4d1|49|2 697,0,1,0,0,0,0,0,0,0,0,0,0,0,1,699,
scooby_state_59cdb0|45|1 1,697,0,0,0,0,0,0,0,0,0,0,0,0,1,699,
scooby_state_59cdf2|62|2 697,0,0,0,0,0,0,0,0,0,0,1,0,0,1,699,
scooby_state_59cdf2|41|1 698,0,0,0,0,0,0,0,0,0,1,0,0,0,0,699,
scooby_state_59d4d1|6|2 696,0,1,0,0,0,0,0,0,0,1,0,0,0,0,698,
scooby_state_59cdf2|38|1 695,2,0,0,0,0,0,0,0,0,0,0,0,0,0,697,
scooby_state_59cdf2|16|2 692,1,1,0,0,0,0,0,1,0,0,0,0,0,0,695,
scooby_state_59cdb0|21|1 0,693,0,0,0,0,0,0,0,0,0,0,1,0,1,695,
scooby_state_59d4d1|31|2 695,0,0,0,0,0,0,0,0,0,0,0,0,0,0,695,
scooby_state_59d4d1|35|2 692,0,0,0,0,0,1,0,0,0,0,0,1,0,0,694,
scooby_state_59cdb0|37|1 1,691,0,0,0,0,0,0,0,0,0,0,0,0,0,692,
scooby_state_59cdb0|7|1 0,692,0,0,0,0,0,0,0,0,0,0,0,0,0,692,
scooby_state_59cdcb|33|1 689,0,0,0,0,1,0,0,0,0,0,1,0,0,0,691,
scooby_state_59cdee|16|1 689,0,0,0,0,0,0,0,0,0,0,0,2,0,0,691,
scooby_state_59cdee|38|1 690,0,0,0,0,0,0,0,1,0,0,0,0,0,0,691,
scooby_state_59cdcb|47|1 689,0,0,0,0,0,0,0,1,1,0,0,0,0,0,691,
scooby_state_59cdcb|8|1 689,0,0,0,0,0,0,0,0,1,0,0,1,0,0,691,
scooby_state_59cdee|27|1 689,1,0,0,0,0,0,1,0,0,0,0,0,0,0,691,
scooby_state_59cdcb|30|1 690,0,0,0,0,0,0,0,1,0,0,0,0,0,0,691,
scooby_state_59cdcb|58|1 690,0,0,0,0,1,0,0,0,0,0,0,0,0,0,691,
scooby_state_59cdee|2|1 687,0,0,0,0,2,1,0,0,0,0,0,1,0,0,691,
scooby_state_59cdee|55|1 691,0,0,0,0,0,0,0,0,0,0,0,0,0,0,691,
scooby_state_59cdcb|19|1 689,0,1,0,0,0,0,0,0,0,0,0,0,0,1,691,
scooby_state_59cdee|8|1 690,0,0,0,0,0,0,0,0,0,0,0,0,0,0,690,
scooby_state_59cdee|47|1 689,0,1,0,0,0,0,0,0,0,0,0,0,0,0,690,
scooby_state_59cdcb|0|0 688,1,0,0,0,0,0,0,0,0,0,0,1,0,0,690,
scooby_state_59cdcb|25|1 690,0,0,0,0,0,0,0,0,0,0,0,0,0,0,690,
scooby_state_59cdcb|50|1 690,0,0,0,0,0,0,0,0,0,0,0,0,0,0,690,
scooby_state_59cdee|33|1 690,0,0,0,0,0,0,0,0,0,0,0,0,0,0,690,
scooby_state_59cdcb|53|1 689,0,0,0,0,0,0,0,0,1,0,0,0,0,0,690,
scooby_state_59cdee|58|1 689,0,1,0,0,0,0,0,0,0,0,0,0,0,0,690,
scooby_state_59cdb0|32|1 0,690,0,0,0,0,0,0,0,0,0,0,0,0,0,690,
scooby_state_59cdb0|46|1 0,688,0,0,0,0,0,1,0,0,0,0,0,0,0,689,
scooby_state_59d4d1|18|2 689,0,0,0,0,0,0,0,0,0,0,0,0,0,0,689,
scooby_state_59cdf2|16|1 684,0,0,0,0,0,0,1,0,0,0,0,0,0,0,685,
scooby_state_59cdb0|63|1 0,684,0,0,0,0,0,0,0,0,0,0,0,0,0,684,
scooby_state_59cdf2|13|1 681,0,0,0,0,1,0,0,0,1,0,0,0,1,0,684,
scooby_state_59cdf2|46|1 683,0,0,0,0,0,0,0,0,0,0,0,0,0,0,683,
scooby_state_59cdb0|52|1 0,681,0,0,0,0,0,0,0,1,0,1,0,0,0,683,
scooby_state_59cdf2|38|2 683,0,0,0,0,0,0,0,0,0,0,0,0,0,0,683,
scooby_state_59cdf2|37|2 681,0,0,0,0,0,0,1,0,0,0,0,0,0,0,682,
scooby_state_59cdb0|51|1 2,679,0,1,0,0,0,0,0,0,0,0,0,0,0,682,
scooby_state_59cdf2|49|2 679,0,0,1,0,0,0,0,0,0,0,0,1,0,0,681,
scooby_state_59d4d1|24|2 677,0,0,0,0,0,0,2,0,0,0,0,0,1,0,680,
scooby_state_59cdb0|57|1 0,678,0,0,0,0,0,0,0,0,0,0,0,0,0,678,
scooby_state_59d4d1|20|2 677,0,0,0,0,0,0,0,0,0,0,0,0,0,0,677,
scooby_state_59d4d1|48|2 676,0,0,0,0,0,0,0,0,0,0,0,0,0,0,676,
scooby_state_59cdf2|15|2 671,0,0,0,1,1,1,0,0,1,0,0,0,0,1,676,
scooby_state_59cdf2|63|1 672,0,0,1,0,0,0,0,0,0,1,0,1,0,0,675,
scooby_state_59cdf2|43|2 674,0,0,0,0,0,0,0,0,0,0,0,0,0,0,674,
scooby_state_59cdb0|49|1 0,673,0,0,0,0,0,0,0,0,0,0,0,0,0,673,
scooby_state_59cdf2|55|2 673,0,0,0,0,0,0,0,0,0,0,0,0,0,0,673,
scooby_state_59cdb0|29|1 0,672,0,0,0,0,0,0,0,0,1,0,0,0,0,673,
scooby_state_59d4d1|62|2 669,0,0,0,0,0,1,0,1,0,0,0,0,0,1,672,
scooby_state_59d4d1|56|2 671,0,0,0,0,0,0,0,0,0,0,0,0,0,1,672,
scooby_state_59d4d1|9|2 668,0,0,0,1,0,1,1,0,0,0,0,0,0,0,671,
scooby_state_59cdb0|43|1 0,669,0,0,0,0,0,0,0,0,1,0,0,0,0,670,
scooby_state_59cdf2|12|2 669,0,0,0,0,0,0,0,1,0,0,0,0,0,0,670,
scooby_state_59cdb0|4|1 1,666,0,0,0,1,0,0,0,0,1,0,0,0,0,669,
scooby_state_59cdb0|12|1 1,668,0,0,0,0,0,0,0,0,0,0,0,0,0,669,
scooby_state_59cdf2|29|2 667,0,1,0,0,0,0,0,0,0,0,0,0,0,0,668,
scooby_state_59cdb0|54|1 0,668,0,0,0,0,0,0,0,0,0,0,0,0,0,668,
scooby_state_59cdf2|5|2 664,0,1,0,0,0,0,0,0,0,1,0,1,0,0,667,
scooby_state_59cdb0|34|1 1,664,0,0,1,0,0,0,0,0,0,0,1,0,0,667,
scooby_state_59d4d1|43|2 666,0,0,0,0,0,0,0,1,0,0,0,0,0,0,667,
scooby_state_59d4d1|15|2 662,0,0,0,1,0,1,1,0,0,0,0,0,0,1,666,
scooby_state_59cdf2|46|2 663,0,0,1,0,0,0,0,1,0,0,0,0,0,0,665,
scooby_state_59cdf2|24|1 664,0,0,0,0,0,0,0,0,0,0,0,0,0,0,664,
scooby_state_59cdb0|62|1 1,661,0,1,0,0,0,0,0,0,0,0,0,0,0,663,
scooby_state_59d4d1|23|2 659,1,0,0,0,0,0,0,0,0,0,0,0,0,0,660,
scooby_state_59cdcb|22|1 658,0,0,0,0,0,0,0,0,0,0,0,0,0,0,658,
scooby_state_59cdee|52|1 657,0,0,0,0,0,0,1,0,0,0,0,0,0,0,658,
[...]
scooby_state_4a35e8|2|0 1,0,0,0,0,0,0,0,0,0,0,0,0,0,0,1,
scooby_state_59ce37|5|1 1,0,0,0,0,0,0,0,0,0,0,0,0,0,0,1,
scooby_state_59ce33|10|1 0,1,0,0,0,0,0,0,0,0,0,0,0,0,0,1,
scooby_state_59cd46|63|0 0,1,0,0,0,0,0,0,0,0,0,0,0,0,0,1,
scooby_state_4a35e8|49|0 1,0,0,0,0,0,0,0,0,0,0,0,0,0,0,1,
scooby_state_59ce04|1|0 1,0,0,0,0,0,0,0,0,0,0,0,0,0,0,1,
scooby_state_59ce27|14|0 1,0,0,0,0,0,0,0,0,0,0,0,0,0,0,1,
scooby_state_59ce04|21|0 1,0,0,0,0,0,0,0,0,0,0,0,0,0,0,1,
scooby_state_59cd53|49|1 1,0,0,0,0,0,0,0,0,0,0,0,0,0,0,1,
scooby_state_4a36b4|21|0 1,0,0,0,0,0,0,0,0,0,0,0,0,0,0,1,
scooby_state_59d4f7|61|0 1,0,0,0,0,0,0,0,0,0,0,0,0,0,0,1,
scooby_state_59cd53|2|2 1,0,0,0,0,0,0,0,0,0,0,0,0,0,0,1,
scooby_state_4a3603|20|1 1,0,0,0,0,0,0,0,0,0,0,0,0,0,0,1,
scooby_state_59cdcf|49|-3 0,1,0,0,0,0,0,0,0,0,0,0,0,0,0,1,
scooby_state_59ce14|24|1 1,0,0,0,0,0,0,0,0,0,0,0,0,0,0,1,
scooby_state_59ce27|37|0 1,0,0,0,0,0,0,0,0,0,0,0,0,0,0,1,
scooby_state_59cd46|55|0 0,1,0,0,0,0,0,0,0,0,0,0,0,0,0,1,
scooby_state_59d084|50|0 1,0,0,0,0,0,0,0,0,0,0,0,0,0,0,1,
scooby_state_59ce04|17|1 1,0,0,0,0,0,0,0,0,0,0,0,0,0,0,1,
scooby_state_59cd46|55|33 0,1,0,0,0,0,0,0,0,0,0,0,0,0,0,1,
scooby_state_4a35f5|22|1 0,1,0,0,0,0,0,0,0,0,0,0,0,0,0,1,
scooby_state_4a35e8|21|2 0,0,1,0,0,0,0,0,0,0,0,0,0,0,0,1,
scooby_state_59d510|26|1 1,0,0,0,0,0,0,0,0,0,0,0,0,0,0,1,
scooby_state_59d4f7|25|1 1,0,0,0,0,0,0,0,0,0,0,0,0,0,0,1,
scooby_state_59ce37|10|0 1,0,0,0,0,0,0,0,0,0,0,0,0,0,0,1,
scooby_state_59ce27|31|14 1,0,0,0,0,0,0,0,0,0,0,0,0,0,0,1,
scooby_state_59ce04|23|2 1,0,0,0,0,0,0,0,0,0,0,0,0,0,0,1,
scooby_state_59cd53|21|3 1,0,0,0,0,0,0,0,0,0,0,0,0,0,0,1,
scooby_state_59cd46|18|0 0,1,0,0,0,0,0,0,0,0,0,0,0,0,0,1,
scooby_state_4a36b4|0|0 1,0,0,0,0,0,0,0,0,0,0,0,0,0,0,1,
scooby_state_4a35e8|17|0 1,0,0,0,0,0,0,0,0,0,0,0,0,0,0,1,
scooby_state_59cdcf|12|-2 0,1,0,0,0,0,0,0,0,0,0,0,0,0,0,1,
scooby_state_59d4e0|17|3 1,0,0,0,0,0,0,0,0,0,0,0,0,0,0,1,
scooby_state_59ce04|52|0 1,0,0,0,0,0,0,0,0,0,0,0,0,0,0,1,
scooby_state_4a35e8|56|0 1,0,0,0,0,0,0,0,0,0,0,0,0,0,0,1,
scooby_state_59d4f7|60|1 1,0,0,0,0,0,0,0,0,0,0,0,0,0,0,1,
scooby_state_59ce37|59|1 1,0,0,0,0,0,0,0,0,0,0,0,0,0,0,1,
scooby_state_59ce04|58|2 0,1,0,0,0,0,0,0,0,0,0,0,0,0,0,1,
scooby_state_59cd53|56|3 1,0,0,0,0,0,0,0,0,0,0,0,0,0,0,1,
scooby_state_59ce10|18|1 1,0,0,0,0,0,0,0,0,0,0,0,0,0,0,1,
scooby_state_4a3603|6|1 1,0,0,0,0,0,0,0,0,0,0,0,0,0,0,1,
scooby_state_4a35e8|5|0 1,0,0,0,0,0,0,0,0,0,0,0,0,0,0,1,
scooby_state_59ce37|48|0 1,0,0,0,0,0,0,0,0,0,0,0,0,0,0,1,
scooby_state_59cd53|7|0 1,0,0,0,0,0,0,0,0,0,0,0,0,0,0,1,
scooby_state_59cd53|5|0 1,0,0,0,0,0,0,0,0,0,0,0,0,0,0,1,
scooby_state_59cd46|45|0 0,1,0,0,0,0,0,0,0,0,0,0,0,0,0,1,
scooby_state_4a36b4|48|0 1,0,0,0,0,0,0,0,0,0,0,0,0,0,0,1,
scooby_state_59cdcf|16|-2 0,1,0,0,0,0,0,0,0,0,0,0,0,0,0,1,
scooby_state_59ce04|49|0 1,0,0,0,0,0,0,0,0,0,0,0,0,0,0,1,
scooby_state_59cd46|34|0 0,1,0,0,0,0,0,0,0,0,0,0,0,0,0,1,
scooby_state_59cd46|51|0 0,1,0,0,0,0,0,0,0,0,0,0,0,0,0,1,
scooby_state_4a3703|6|2 1,0,0,0,0,0,0,0,0,0,0,0,0,0,0,1,
scooby_state_59cdcf|43|-2 0,1,0,0,0,0,0,0,0,0,0,0,0,0,0,1,
scooby_state_59ce04|22|0 1,0,0,0,0,0,0,0,0,0,0,0,0,0,0,1,
scooby_state_59ce27|7|-12 1,0,0,0,0,0,0,0,0,0,0,0,0,0,0,1,
scooby_state_4a35f5|27|0 1,0,0,0,0,0,0,0,0,0,0,0,0,0,0,1,
scooby_state_59d4e0|44|3 1,0,0,0,0,0,0,0,0,0,0,0,0,0,0,1,
scooby_state_59cdcf|41|-2 0,1,0,0,0,0,0,0,0,0,0,0,0,0,0,1,
scooby_state_59d510|11|1 1,0,0,0,0,0,0,0,0,0,0,0,0,0,0,1,
scooby_state_59ce04|8|0 1,0,0,0,0,0,0,0,0,0,0,0,0,0,0,1,
scooby_state_59cd46|26|0 0,1,0,0,0,0,0,0,0,0,0,0,0,0,0,1,
scooby_state_59d4e0|46|3 1,0,0,0,0,0,0,0,0,0,0,0,0,0,0,1,
scooby_state_59ce04|29|1 1,0,0,0,0,0,0,0,0,0,0,0,0,0,0,1,
scooby_state_59ce14|21|1 1,0,0,0,0,0,0,0,0,0,0,0,0,0,0,1,
scooby_state_59ce27|19|0 1,0,0,0,0,0,0,0,0,0,0,0,0,0,0,1,
scooby_state_59cd53|19|4 1,0,0,0,0,0,0,0,0,0,0,0,0,0,0,1,
scooby_state_59cd46|15|0 0,1,0,0,0,0,0,0,0,0,0,0,0,0,0,1,
scooby_state_4a3603|11|1 1,0,0,0,0,0,0,0,0,0,0,0,0,0,0,1,
scooby_state_59d4f7|14|1 1,0,0,0,0,0,0,0,0,0,0,0,0,0,0,1,
scooby_state_59ce27|35|0 1,0,0,0,0,0,0,0,0,0,0,0,0,0,0,1,
scooby_state_4a3603|8|1 1,0,0,0,0,0,0,0,0,0,0,0,0,0,0,1,
scooby_state_59d5d4|57|0 1,0,0,0,0,0,0,0,0,0,0,0,0,0,0,1,
scooby_state_4a35a8|19|0 0,1,0,0,0,0,0,0,0,0,0,0,0,0,0,1,
scooby_state_4a35e8|7|0 1,0,0,0,0,0,0,0,0,0,0,0,0,0,0,1,
scooby_state_4a35a8|48|0 1,0,0,0,0,0,0,0,0,0,0,0,0,0,0,1,
scooby_state_59cdf6|3|0 1,0,0,0,0,0,0,0,0,0,0,0,0,0,0,1,
scooby_state_59ce04|29|0 1,0,0,0,0,0,0,0,0,0,0,0,0,0,0,1,
scooby_state_59ce37|49|2 1,0,0,0,0,0,0,0,0,0,0,0,0,0,0,1,
scooby_state_59cdee|56|0 1,0,0,0,0,0,0,0,0,0,0,0,0,0,0,1,
scooby_state_4a3603|3|1 1,0,0,0,0,0,0,0,0,0,0,0,0,0,0,1,
scooby_state_59ce04|6|3 1,0,0,0,0,0,0,0,0,0,0,0,0,0,0,1,
scooby_state_59d4b0|18|0 1,0,0,0,0,0,0,0,0,0,0,0,0,0,0,1,
scooby_state_7c9440|17|1 1,0,0,0,0,0,0,0,0,0,0,0,0,0,0,1,
scooby_state_59cdcf|14|-2 0,1,0,0,0,0,0,0,0,0,0,0,0,0,0,1,
scooby_state_59ce37|8|1 1,0,0,0,0,0,0,0,0,0,0,0,0,0,0,1,
scooby_state_59d4f7|22|0 1,0,0,0,0,0,0,0,0,0,0,0,0,0,0,1,
scooby_state_59d5c7|15|0 1,0,0,0,0,0,0,0,0,0,0,0,0,0,0,1,
scooby_state_59d501|20|1 1,0,0,0,0,0,0,0,0,0,0,0,0,0,0,1,
scooby_state_59d5c4|23|2 1,0,0,0,0,0,0,0,0,0,0,0,0,0,0,1,
scooby_state_59ce37|19|1 1,0,0,0,0,0,0,0,0,0,0,0,0,0,0,1,
scooby_state_59ce37|3|1 1,0,0,0,0,0,0,0,0,0,0,0,0,0,0,1,
scooby_state_59ce04|20|1 1,0,0,0,0,0,0,0,0,0,0,0,0,0,0,1,
scooby_state_59ce14|25|0 1,0,0,0,0,0,0,0,0,0,0,0,0,0,0,1,
scooby_state_59ce04|4|2 1,0,0,0,0,0,0,0,0,0,0,0,0,0,0,1,
scooby_state_59ce27|44|-19 1,0,0,0,0,0,0,0,0,0,0,0,0,0,0,1,
scooby_state_59ce04|33|1 1,0,0,0,0,0,0,0,0,0,0,0,0,0,0,1,
scooby_state_59d510|40|1 1,0,0,0,0,0,0,0,0,0,0,0,0,0,0,1,
scooby_state_59ce10|0|0 1,0,0,0,0,0,0,0,0,0,0,0,0,0,0,1,
scooby_state_59cde8|55|0 1,0,0,0,0,0,0,0,0,0,0,0,0,0,0,1,
scooby_state_4a36b4|16|0 1,0,0,0,0,0,0,0,0,0,0,0,0,0,0,1,
scooby_state_59ce04|5|0 1,0,0,0,0,0,0,0,0,0,0,0,0,0,0,1,
scooby_state_59d4f7|49|1 1,0,0,0,0,0,0,0,0,0,0,0,0,0,0,1,
scooby_state_59cdf6|13|1 1,0,0,0,0,0,0,0,0,0,0,0,0,0,0,1,
scooby_state_4dde10|56|0 1,0,0,0,0,0,0,0,0,0,0,0,0,0,0,1,
scooby_state_59d5c4|2|0 1,0,0,0,0,0,0,0,0,0,0,0,0,0,0,1,
scooby_state_59d510|9|1 1,0,0,0,0,0,0,0,0,0,0,0,0,0,0,1,
scooby_state_59ce27|22|0 1,0,0,0,0,0,0,0,0,0,0,0,0,0,0,1,
scooby_state_59cd46|48|0 0,1,0,0,0,0,0,0,0,0,0,0,0,0,0,1,
scooby_state_59cd46|3|0 0,1,0,0,0,0,0,0,0,0,0,0,0,0,0,1,
scooby_state_59d4f7|9|0 1,0,0,0,0,0,0,0,0,0,0,0,0,0,0,1,
scooby_state_59d4e0|43|3 1,0,0,0,0,0,0,0,0,0,0,0,0,0,0,1,
scooby_state_4a36b4|27|0 1,0,0,0,0,0,0,0,0,0,0,0,0,0,0,1,
scooby_state_59ce33|59|1 0,1,0,0,0,0,0,0,0,0,0,0,0,0,0,1,
scooby_state_4a3840|33|1 1,0,0,0,0,0,0,0,0,0,0,0,0,0,0,1,
scooby_state_59d4e0|15|3 1,0,0,0,0,0,0,0,0,0,0,0,0,0,0,1,
scooby_state_59cdcf|20|-2 0,1,0,0,0,0,0,0,0,0,0,0,0,0,0,1,
scooby_state_59ce73|8|0 1,0,0,0,0,0,0,0,0,0,0,0,0,0,0,1,
scooby_state_4a369f|26|1 1,0,0,0,0,0,0,0,0,0,0,0,0,0,0,1,
scooby_state_59cd8d|19|3 0,1,0,0,0,0,0,0,0,0,0,0,0,0,0,1,
scooby_state_59d542|21|1 1,0,0,0,0,0,0,0,0,0,0,0,0,0,0,1,
scooby_state_4a35b5|30|0 0,0,0,0,0,0,0,0,0,0,0,0,1,0,0,1,
scooby_state_59ce04|9|2 0,1,0,0,0,0,0,0,0,0,0,0,0,0,0,1,
scooby_state_59d4f7|13|1 1,0,0,0,0,0,0,0,0,0,0,0,0,0,0,1,
scooby_state_59d4f7|36|1 1,0,0,0,0,0,0,0,0,0,0,0,0,0,0,1,
scooby_state_6ec681|26|1 1,0,0,0,0,0,0,0,0,0,0,0,0,0,0,1,
scooby_state_59ce33|38|1 0,1,0,0,0,0,0,0,0,0,0,0,0,0,0,1,
scooby_state_59ce14|32|-1 1,0,0,0,0,0,0,0,0,0,0,0,0,0,0,1,
scooby_state_59cd9b|14|4 1,0,0,0,0,0,0,0,0,0,0,0,0,0,0,1,
scooby_state_59ce27|58|0 1,0,0,0,0,0,0,0,0,0,0,0,0,0,0,1,
scooby_state_4a3603|30|1 1,0,0,0,0,0,0,0,0,0,0,0,0,0,0,1,
scooby_state_59cd9b|53|4 1,0,0,0,0,0,0,0,0,0,0,0,0,0,0,1,
scooby_state_59cd9b|40|4 1,0,0,0,0,0,0,0,0,0,0,0,0,0,0,1,
scooby_state_59d4c3|19|1 1,0,0,0,0,0,0,0,0,0,0,0,0,0,0,1,
scooby_state_59cd46|41|0 0,1,0,0,0,0,0,0,0,0,0,0,0,0,0,1,
scooby_state_4a35e8|8|-8 0,1,0,0,0,0,0,0,0,0,0,0,0,0,0,1,
scooby_state_4dde41|57|1 1,0,0,0,0,0,0,0,0,0,0,0,0,0,0,1,
scooby_state_4a3ab0|42|4 1,0,0,0,0,0,0,0,0,0,0,0,0,0,0,1,
scooby_state_59ce02|56|1 1,0,0,0,0,0,0,0,0,0,0,0,0,0,0,1,
scooby_state_59d4e0|25|3 1,0,0,0,0,0,0,0,0,0,0,0,0,0,0,1,
scooby_state_59ce04|16|0 1,0,0,0,0,0,0,0,0,0,0,0,0,0,0,1,
scooby_state_59cd53|10|0 1,0,0,0,0,0,0,0,0,0,0,0,0,0,0,1,
scooby_state_59cdf6|0|0 1,0,0,0,0,0,0,0,0,0,0,0,0,0,0,1,
scooby_state_59ce14|29|1 1,0,0,0,0,0,0,0,0,0,0,0,0,0,0,1,
scooby_state_4a3b2c|44|1 1,0,0,0,0,0,0,0,0,0,0,0,0,0,0,1,
scooby_state_4a35e8|10|0 1,0,0,0,0,0,0,0,0,0,0,0,0,0,0,1,
scooby_state_7b3071|1|-43 1,0,0,0,0,0,0,0,0,0,0,0,0,0,0,1,
scooby_state_59cd53|19|-8 1,0,0,0,0,0,0,0,0,0,0,0,0,0,0,1,
scooby_state_4a38d3|35|2 1,0,0,0,0,0,0,0,0,0,0,0,0,0,0,1,
scooby_state_59d250|9|4 0,1,0,0,0,0,0,0,0,0,0,0,0,0,0,1,
scooby_state_4a3ac0|43|1 0,1,0,0,0,0,0,0,0,0,0,0,0,0,0,1,
scooby_state_7c9389|14|-4 1,0,0,0,0,0,0,0,0,0,0,0,0,0,0,1,
scooby_state_7c94a0|18|1 1,0,0,0,0,0,0,0,0,0,0,0,0,0,0,1,
scooby_state_7c9430|16|1 1,0,0,0,0,0,0,0,0,0,0,0,0,0,0,1,
scooby_state_7c93f0|15|2 1,0,0,0,0,0,0,0,0,0,0,0,0,0,0,1,
scooby_state_7c9370|13|0 1,0,0,0,0,0,0,0,0,0,0,0,0,0,0,1,
scooby_state_4a3980|38|1 0,1,0,0,0,0,0,0,0,0,0,0,0,0,0,1,
scooby_state_4a3941|37|1 1,0,0,0,0,0,0,0,0,0,0,0,0,0,0,1,
scooby_state_59cd20|52|-7 1,0,0,0,0,0,0,0,0,0,0,0,0,0,0,1,
scooby_state_4a37c0|31|1 1,0,0,0,0,0,0,0,0,0,0,0,0,0,0,1,
scooby_state_4a379f|30|1 1,0,0,0,0,0,0,0,0,0,0,0,0,0,0,1,
scooby_state_4a3742|29|1 1,0,0,0,0,0,0,0,0,0,0,0,0,0,0,1,
scooby_state_4a3703|28|1 1,0,0,0,0,0,0,0,0,0,0,0,0,0,0,1,
scooby_state_59d281|10|1 1,0,0,0,0,0,0,0,0,0,0,0,0,0,0,1,
scooby_state_4a35e8|63|0 1,0,0,0,0,0,0,0,0,0,0,0,0,0,0,1,
scooby_state_59cd53|54|-1 1,0,0,0,0,0,0,0,0,0,0,0,0,0,0,1,
scooby_state_59ce04|16|1 1,0,0,0,0,0,0,0,0,0,0,0,0,0,0,1,
scooby_state_59cdcb|21|-1 1,0,0,0,0,0,0,0,0,0,0,0,0,0,0,1,
scooby_state_59cd53|28|3 1,0,0,0,0,0,0,0,0,0,0,0,0,0,0,1,
scooby_state_59ce37|54|1 1,0,0,0,0,0,0,0,0,0,0,0,0,0,0,1,
scooby_state_59ce37|30|0 1,0,0,0,0,0,0,0,0,0,0,0,0,0,0,1,
scooby_state_59ce27|11|0 1,0,0,0,0,0,0,0,0,0,0,0,0,0,0,1,
scooby_state_59ce04|63|0 1,0,0,0,0,0,0,0,0,0,0,0,0,0,0,1,
scooby_state_59cd46|42|-9 0,1,0,0,0,0,0,0,0,0,0,0,0,0,0,1,
scooby_state_4a35f5|51|1 1,0,0,0,0,0,0,0,0,0,0,0,0,0,0,1,
scooby_state_59ce27|20|-31 0,0,0,0,0,1,0,0,0,0,0,0,0,0,0,1,
scooby_state_59cd46|38|29 1,0,0,0,0,0,0,0,0,0,0,0,0,0,0,1,
scooby_state_59cd89|13|0 1,0,0,0,0,0,0,0,0,0,0,0,0,0,0,1,
scooby_state_4a35e8|18|0 1,0,0,0,0,0,0,0,0,0,0,0,0,0,0,1,
scooby_state_59ce27|55|0 0,0,0,1,0,0,0,0,0,0,0,0,0,0,0,1,
scooby_state_59ce10|17|1 1,0,0,0,0,0,0,0,0,0,0,0,0,0,0,1,
scooby_state_59d4f7|20|1 0,1,0,0,0,0,0,0,0,0,0,0,0,0,0,1,
scooby_state_59d4f7|39|1 1,0,0,0,0,0,0,0,0,0,0,0,0,0,0,1,
scooby_state_59ce33|33|1 0,1,0,0,0,0,0,0,0,0,0,0,0,0,0,1,
scooby_state_59ce27|32|0 0,1,0,0,0,0,0,0,0,0,0,0,0,0,0,1,
scooby_state_59ce04|52|2 0,1,0,0,0,0,0,0,0,0,0,0,0,0,0,1,
scooby_state_7b34c6|19|1 1,0,0,0,0,0,0,0,0,0,0,0,0,0,0,1,
scooby_state_59cd46|62|0 0,1,0,0,0,0,0,0,0,0,0,0,0,0,0,1,
scooby_state_59cdcf|22|-2 0,1,0,0,0,0,0,0,0,0,0,0,0,0,0,1,
scooby_state_59ce27|46|0 1,0,0,0,0,0,0,0,0,0,0,0,0,0,0,1,
scooby_state_59ce04|17|0 1,0,0,0,0,0,0,0,0,0,0,0,0,0,0,1,
scooby_state_59d4f7|51|1 1,0,0,0,0,0,0,0,0,0,0,0,0,0,0,1,
scooby_state_4a35e8|28|0 1,0,0,0,0,0,0,0,0,0,0,0,0,0,0,1,
scooby_state_4a36c0|27|1 1,0,0,0,0,0,0,0,0,0,0,0,0,0,0,1,
scooby_state_4a3603|24|1 1,0,0,0,0,0,0,0,0,0,0,0,0,0,0,1,
scooby_state_4a3580|22|0 1,0,0,0,0,0,0,0,0,0,0,0,0,0,0,1,
scooby_state_4a36b4|56|26 1,0,0,0,0,0,0,0,0,0,0,0,0,0,0,1,
scooby_state_4a35b5|63|0 1,0,0,0,0,0,0,0,0,0,0,0,0,0,0,1,
scooby_state_4a35e8|57|0 1,0,0,0,0,0,0,0,0,0,0,0,0,0,0,1,
scooby_state_59ce14|39|0 1,0,0,0,0,0,0,0,0,0,0,0,0,0,0,1,
scooby_state_4a3804|32|1 1,0,0,0,0,0,0,0,0,0,0,0,0,0,0,1,
scooby_state_4a35a8|63|0 1,0,0,0,0,0,0,0,0,0,0,0,0,0,0,1,
scooby_state_59d4f7|18|1 1,0,0,0,0,0,0,0,0,0,0,0,0,0,0,1,
scooby_state_4a35b5|1|0 1,0,0,0,0,0,0,0,0,0,0,0,0,0,0,1,
scooby_state_59ce33|58|1 0,1,0,0,0,0,0,0,0,0,0,0,0,0,0,1,
scooby_state_7b3102|4|1 1,0,0,0,0,0,0,0,0,0,0,0,0,0,0,1,
scooby_state_59ce04|47|1 1,0,0,0,0,0,0,0,0,0,0,0,0,0,0,1,
scooby_state_4a35c4|23|1 1,0,0,0,0,0,0,0,0,0,0,0,0,0,0,1,
scooby_state_59cdcf|35|-2 0,1,0,0,0,0,0,0,0,0,0,0,0,0,0,1,
scooby_state_59ce37|33|16 1,0,0,0,0,0,0,0,0,0,0,0,0,0,0,1,
scooby_state_59cd53|57|0 1,0,0,0,0,0,0,0,0,0,0,0,0,0,0,1,
scooby_state_7b3ae8|43|24 0,1,0,0,0,0,0,0,0,0,0,0,0,0,0,1,
scooby_state_59cd46|47|0 0,1,0,0,0,0,0,0,0,0,0,0,0,0,0,1,
scooby_state_59cd53|32|0 1,0,0,0,0,0,0,0,0,0,0,0,0,0,0,1,
scooby_state_59d4f7|54|1 1,0,0,0,0,0,0,0,0,0,0,0,0,0,0,1,
scooby_state_59cebe|58|0 1,0,0,0,0,0,0,0,0,0,0,0,0,0,0,1,
scooby_state_59ce27|37|-20 1,0,0,0,0,0,0,0,0,0,0,0,0,0,0,1,
scooby_state_59cd80|54|-3 1,0,0,0,0,0,0,0,0,0,0,0,0,0,0,1,
scooby_state_59cd40|53|1 1,0,0,0,0,0,0,0,0,0,0,0,0,0,0,1,
scooby_state_59ce27|11|-46 1,0,0,0,0,0,0,0,0,0,0,0,0,0,0,1,
scooby_state_4a36b4|4|-45 1,0,0,0,0,0,0,0,0,0,0,0,0,0,0,1,
scooby_state_59ce14|7|1 1,0,0,0,0,0,0,0,0,0,0,0,0,0,0,1,
scooby_state_59d510|12|1 1,0,0,0,0,0,0,0,0,0,0,0,0,0,0,1,

scooby_action_0_deg_dist 0,143,0,0,0,0,0,0,0,0,0,0,0,0,0,0,
scooby_action_4_deg_dist 0,151,0,0,0,0,0,0,0,0,0,0,0,0,0,0,
scooby_action_3_deg_dist 0,60288,38428,0,88499,0,13714,0,0,0,0,0,0,0,0,0,
scooby_action_32_deg_dist 0,126,0,0,0,0,0,0,0,0,0,0,0,0,0,0,
scooby_action_5_deg_dist 0,142,0,0,0,0,0,0,0,0,0,0,0,0,0,0,
scooby_action_1_deg_dist 0,72203,50307,0,123591,0,692233,0,0,0,0,0,0,0,0,0,
scooby_action_30_deg_dist 0,151,0,0,0,0,0,0,0,0,0,0,0,0,0,0,
scooby_action_-3_deg_dist 0,139,0,0,0,0,0,0,0,0,0,0,0,0,0,0,
scooby_action_10_deg_dist 0,158,0,0,0,0,0,0,0,0,0,0,0,0,0,0,
scooby_action_-1_deg_dist 0,136,0,0,0,0,0,0,0,0,0,0,0,0,0,0,
scooby_action_23_deg_dist 0,146,0,0,0,0,0,0,0,0,0,0,0,0,0,0,
scooby_action_-6_deg_dist 0,126,0,0,0,0,0,0,0,0,0,0,0,0,0,0,
scooby_action_11_deg_dist 0,141,0,0,0,0,0,0,0,0,0,0,0,0,0,0,
scooby_action_22_deg_dist 0,153,0,0,0,0,0,0,0,0,0,0,0,0,0,0,
scooby_action_12_deg_dist 0,152,0,0,0,0,0,0,0,0,0,0,0,0,0,0,

scooby_track_called 1141127
scooby_track_same_address 191442
scooby_track_evict 949429

scooby_reward_demand_called 1141127
scooby_reward_demand_pt_not_found 220438
scooby_reward_demand_pt_found 920689
scooby_reward_demand_pt_found_total 920689
scooby_reward_demand_has_reward 0
scooby_reward_train_called 4284
scooby_reward_assign_reward_called 949682
scooby_reward_no_pref 143
scooby_reward_incorrect 4141
scooby_reward_correct_untimely 764729
scooby_reward_correct_timely 155960
scooby_reward_out_of_bounds 24709
scooby_reward_tracker_hit 0

scooby_reward_none_low_bw 143
scooby_reward_none_high_bw 0
scooby_reward_incorrect_low_bw 4141
scooby_reward_incorrect_high_bw 0
scooby_reward_correct_untimely_low_bw 764729
scooby_reward_correct_untimely_high_bw 0
scooby_reward_correct_timely_low_bw 155960
scooby_reward_correct_timely_high_bw 0
scooby_reward_out_of_bounds_low_bw 24709
scooby_reward_out_of_bounds_high_bw 0
scooby_reward_tracker_hit_low_bw 0
scooby_reward_tracker_hit_high_bw 0

scooby_reward_1 0,3265,610368,119137,14995,0,
scooby_reward_3 0,632,154278,36044,9379,0,
scooby_reward_4 0,14,49,78,10,0,
scooby_reward_5 0,16,33,84,9,0,
scooby_reward_10 0,24,0,114,20,0,
scooby_reward_11 0,20,0,97,24,0,
scooby_reward_12 0,21,0,110,21,0,
scooby_reward_22 0,13,0,88,52,0,
scooby_reward_23 0,8,0,81,57,0,
scooby_reward_30 0,11,0,78,62,0,
scooby_reward_32 0,13,1,49,63,0,
scooby_reward_-1 0,30,0,0,0,0,
scooby_reward_-3 0,40,0,0,9,0,
scooby_reward_-6 0,34,0,0,8,0,
scooby_reward_0 143,0,0,0,0,0,

scooby_train_called 949428
scooby_train_compute_reward 4284

scooby_register_fill_called 1099736
scooby_register_fill_set 157563
scooby_register_fill_set_total 157563

scooby_register_prefetch_hit_called 1507956
scooby_register_prefetch_hit_set 716928
scooby_register_prefetch_hit_set_total 716928

scooby_pref_issue_scooby 4023745

learning_engine_featurewise.action.called 1141127
learning_engine_featurewise.action.explore 2107
learning_engine_featurewise.action.exploit 1139020
learning_engine_featurewise.action.fallback 0
learning_engine_featurewise.action.dyn_fallback_saved_bw 0
learning_engine_featurewise.action.dyn_fallback_saved_bw_acc 70
learning_engine_featurewise.action.index_1_explored 138
learning_engine_featurewise.action.index_1_exploited 938196
learning_engine_featurewise.action.index_3_explored 153
learning_engine_featurewise.action.index_3_exploited 200776
learning_engine_featurewise.action.index_4_explored 144
learning_engine_featurewise.action.index_4_exploited 7
learning_engine_featurewise.action.index_5_explored 135
learning_engine_featurewise.action.index_5_exploited 7
learning_engine_featurewise.action.index_10_explored 153
learning_engine_featurewise.action.index_10_exploited 5
learning_engine_featurewise.action.index_11_explored 135
learning_engine_featurewise.action.index_11_exploited 6
learning_engine_featurewise.action.index_12_explored 142
learning_engine_featurewise.action.index_12_exploited 10
learning_engine_featurewise.action.index_22_explored 149
learning_engine_featurewise.action.index_22_exploited 4
learning_engine_featurewise.action.index_23_explored 144
learning_engine_featurewise.action.index_23_exploited 2
learning_engine_featurewise.action.index_30_explored 149
learning_engine_featurewise.action.index_30_exploited 2
learning_engine_featurewise.action.index_32_explored 121
learning_engine_featurewise.action.index_32_exploited 5
learning_engine_featurewise.action.index_-1_explored 136
learning_engine_featurewise.action.index_-1_exploited 0
learning_engine_featurewise.action.index_-3_explored 139
learning_engine_featurewise.action.index_-3_exploited 0
learning_engine_featurewise.action.index_-6_explored 126
learning_engine_featurewise.action.index_-6_exploited 0
learning_engine_featurewise.action.index_0_explored 143
learning_engine_featurewise.action.index_0_exploited 0
learning_engine_featurewise.learn.called 949428
learning_engine_featurewise.learn.su_skip_PC 0
learning_engine_featurewise.learn.su_skip_PC_Delta 0

learning_engine_featurewise.q_value_histogram.bucket_0 0
learning_engine_featurewise.q_value_histogram.bucket_1 0
learning_engine_featurewise.q_value_histogram.bucket_2 0
learning_engine_featurewise.q_value_histogram.bucket_3 0
learning_engine_featurewise.q_value_histogram.bucket_4 918
learning_engine_featurewise.q_value_histogram.bucket_5 993
learning_engine_featurewise.q_value_histogram.bucket_6 1137109
learning_engine_featurewise.q_value_histogram.bucket_7 0

learning_engine_featurewise.consensus.total 1139020
learning_engine_featurewise.consensus.feature_align_PC 1138653
learning_engine_featurewise.consensus.feature_align_PC_ratio 1.00
learning_engine_featurewise.consensus.feature_align_PC_Delta 1122796
learning_engine_featurewise.consensus.feature_align_PC_Delta_ratio 0.99
learning_engine_featurewise.consensus.feature_align_all 1122429
learning_engine_featurewise.consensus.feature_align_all_ratio 0.99

learning_engine_featurewise.feature_PC_min_weight 1000000.00000000
learning_engine_featurewise.feature_PC_max_weight 0.00000000
learning_engine_featurewise.feature_PC_Delta_min_weight 1000000.00000000
learning_engine_featurewise.feature_PC_Delta_max_weight 0.00000000
unique_pcs 115
unique_pages 698
unique_trigger_pcs 55
total_bitmaps_seen 0
unique_bitmaps_seen 0

scooby_bw_epochs 223107
scooby_bw_level_0 186175
scooby_bw_level_1 25137
scooby_bw_level_2 11794
scooby_bw_level_3 1

scooby_ipc_epochs 0
scooby_ipc_level_0 0
scooby_ipc_level_1 0
scooby_ipc_level_2 0
scooby_ipc_level_3 0

scooby_cache_acc_epochs 55771
scooby_cache_acc_level_0 6
scooby_cache_acc_level_1 27
scooby_cache_acc_level_2 30
scooby_cache_acc_level_3 30
scooby_cache_acc_level_4 45
scooby_cache_acc_level_5 54
scooby_cache_acc_level_6 44
scooby_cache_acc_level_7 715
scooby_cache_acc_level_8 18731
scooby_cache_acc_level_9 36089

Channel_0_RQ_row_buffer_hit 178854
Channel_0_RQ_row_buffer_miss 9073
Channel_0_WQ_row_buffer_hit 83
Channel_0_WQ_row_buffer_miss 130
Channel_0_WQ_full 0
Channel_0_dbus_congested 108411

avg_congested_cycle 11

DRAM_bw_pochs 223107
DRAM_bw_level_0 186175
DRAM_bw_level_1 25137
DRAM_bw_level_2 11794
DRAM_bw_level_3 1
