*************************************************
   ChampSim Multicore Out-of-Order Simulator
   Last compiled: Apr  3 2025 20:54:34
*************************************************
parsing config file: /home/zir/Pythia/config/pythia.ini

trace_0 /home/zir/ChampSim/ML-DPC/ChampSimTraces/spec17/605.mcf-s2.trace.xz
adding L2C_PREFETCHER: Scooby
Initialize SHIP state
warmup_instructions 10000000
simulation_instructions 50000000
champsim_seed 165
measure_ipc 0
measure_ipc_epoch 1000
measure_dram_bw 1
measure_dram_bw_epoch 256
measure_cache_acc 1
measure_cache_acc_epoch 1024
l1d_perfect 0
l2c_perfect 0
llc_perfect 0
l1d_semi_perfect 0
l2c_semi_perfect 0
llc_semi_perfect 0
semi_perfect_cache_page_buffer_size 64

num_cpus 1
cpu_freq 4000
dram_io_freq 2400
page_size 4096
block_size 64
max_read_per_cycle 8
max_fill_per_cycle 1
dram_channels 1
log2_dram_channels 0
dram_ranks 1
dram_banks 8
dram_rows 65536
dram_columns 128
dram_row_size 8
dram_size 4096
dram_pages 1048576

fetch_width 6
decode_width 6
exec_width 4
lq_width 2
sq_width 2
retire_width 4
scheduler_size 128
branch_mispredict_penalty 20
rob_size 256
lq_size 72
sq_size 56
num_instr_destinations_sparc 4
num_instr_destinations 2
num_instr_sources 4

itlb_set 16
itlb_way 8
itlb_rq_size 16
itlb_wq_size 16
itlb_pq_size 0
itlb_mshr_size 8
itlb_latency 1

dtlb_set 16
dtlb_way 4
dtlb_rq_size 16
dtlb_wq_size 16
dtlb_pq_size 0
dtlb_mshr_size 8
dtlb_latency 1

stlb_set 128
stlb_way 12
stlb_rq_size 32
stlb_wq_size 32
stlb_pq_size 0
stlb_mshr_size 16
stlb_latency 8

l1i_size 32
l1i_set 64
l1i_way 8
l1i_rq_size 64
l1i_wq_size 64
l1i_pq_size 8
l1i_mshr_size 8
l1i_latency 1

l1d_size 32
l1d_set 64
l1d_way 8
l1d_rq_size 64
l1d_wq_size 64
l1d_pq_size 8
l1d_mshr_size 16
l1d_latency 4

l2c_size 256
l2c_set 512
l2c_way 8
l2c_rq_size 32
l2c_wq_size 32
l2c_pq_size 32
l2c_mshr_size 32
l2c_latency 10

llc_size 2048
llc_set 2048
llc_way 16
llc_rq_size 32
llc_wq_size 32
llc_pq_size 32
llc_mshr_size 64
llc_latency 20

dram_channel_width 8
dram_wq_size 64
dram_rq_size 64
tRP 15
tRCD 15
tCAS 12.5
dram_dbus_turn_around_time 30
dram_write_high_wm 56
dram_write_low_wm 48
min_dram_writes_per_switch 16
dram_mtps 2400
dram_dbus_return_time 13

scooby_alpha 0.0065088
scooby_gamma 0.556301
scooby_epsilon 0.00182284
scooby_state_num_bits 10
scooby_max_states 1024
scooby_seed 200
scooby_policy EGreedy
scooby_learning_type SARSA
scooby_actions 1,3,4,5,10,11,12,22,23,30,32,-1,-3,-6,0,
scooby_max_actions 15
scooby_pt_size 256
scooby_st_size 64
scooby_max_pcs 5
scooby_max_offsets 5
scooby_max_deltas 5
scooby_reward_none -4
scooby_reward_incorrect -8
scooby_reward_correct_untimely 12
scooby_reward_correct_timely 20
scooby_brain_zero_init 0
scooby_enable_reward_all 0
scooby_enable_track_multiple 0
scooby_enable_reward_out_of_bounds 1
scooby_reward_out_of_bounds -12
scooby_state_type 1
scooby_state_hash_type 11
scooby_access_debug 0
scooby_print_access_debug 0
scooby_print_access_debug_pc deadbeef
scooby_print_access_debug_pc_count 0
scooby_print_trace 0
scooby_enable_state_action_stats 1
scooby_enable_reward_tracker_hit 0
scooby_reward_tracker_hit -2
scooby_enable_featurewise_engine 1
scooby_pref_degree 1
scooby_enable_dyn_degree 1
scooby_max_to_avg_q_thresholds 0.5,1,2,
scooby_dyn_degrees 1,2,4,4,
scooby_multi_deg_select_type 2
scooby_last_pref_offset_conf_thresholds 1,3,8,
scooby_dyn_degrees_type2 1,2,4,6,
scooby_action_tracker_size 2
scooby_high_bw_thresh 4
scooby_enable_hbw_reward 1
scooby_reward_hbw_correct_timely 20
scooby_reward_hbw_correct_untimely 12
scooby_reward_hbw_incorrect -14
scooby_reward_hbw_none -2
scooby_reward_hbw_out_of_bounds -12
scooby_reward_hbw_tracker_hit -2
scooby_last_pref_offset_conf_thresholds_hbw 1,3,8,
scooby_dyn_degrees_type2_hbw 1,2,4,6,

le_enable_trace 0
le_trace_interval 0
le_trace_file_name 
le_trace_state 0
le_enable_score_plot 0
le_plot_file_name 
le_plot_actions 
le_enable_action_trace 0
le_action_trace_interval 0
le_action_trace_name 
le_enable_action_plot 0

le_featurewise_active_features PC, PC_Delta
le_featurewise_num_tilings 3,3,
le_featurewise_num_tiles 128,128,
le_featurewise_hash_types 2,2,
le_featurewise_enable_tiling_offset 1,1,
le_featurewise_max_q_thresh 0.5
le_featurewise_enable_action_fallback 1
le_featurewise_feature_weights 1,1,
le_featurewise_enable_dynamic_weight 0
le_featurewise_weight_gradient 0.001
le_featurewise_disable_adjust_weight_all_features_align 1
le_featurewise_selective_update 0
le_featurewise_pooling_type 2
le_featurewise_enable_dyn_action_fallback 1
le_featurewise_bw_acc_check_level 1
le_featurewise_acc_thresh 2
le_featurewise_enable_trace 0
le_featurewise_trace_feature_type 0
le_featurewise_trace_feature 
le_featurewise_trace_interval 0
le_featurewise_trace_record_count 0
le_featurewise_trace_file_name 
le_featurewise_enable_score_plot 0
le_featurewise_plot_actions 
le_featurewise_plot_file_name 


Heartbeat CPU  0 instructions:    1000001 cycles:     591044 heartbeat IPC: 1.69192 cumulative IPC: 1.69192 (Simulation time: 0 hr 0 min 4 sec) 
Heartbeat CPU  0 instructions:    2000000 cycles:    1222311 heartbeat IPC: 1.58411 cumulative IPC: 1.63624 (Simulation time: 0 hr 0 min 7 sec) 
Heartbeat CPU  0 instructions:    3000003 cycles:    1854649 heartbeat IPC: 1.58144 cumulative IPC: 1.61756 (Simulation time: 0 hr 0 min 11 sec) 
Heartbeat CPU  0 instructions:    4000000 cycles:    2532294 heartbeat IPC: 1.47569 cumulative IPC: 1.57960 (Simulation time: 0 hr 0 min 14 sec) 
Heartbeat CPU  0 instructions:    5000000 cycles:    3223278 heartbeat IPC: 1.44721 cumulative IPC: 1.55122 (Simulation time: 0 hr 0 min 17 sec) 
Heartbeat CPU  0 instructions:    6000001 cycles:    3779822 heartbeat IPC: 1.79680 cumulative IPC: 1.58738 (Simulation time: 0 hr 0 min 20 sec) 
Heartbeat CPU  0 instructions:    7000001 cycles:    4453311 heartbeat IPC: 1.48481 cumulative IPC: 1.57186 (Simulation time: 0 hr 0 min 23 sec) 
Heartbeat CPU  0 instructions:    8000000 cycles:    5041376 heartbeat IPC: 1.70049 cumulative IPC: 1.58687 (Simulation time: 0 hr 0 min 27 sec) 
Heartbeat CPU  0 instructions:    9000000 cycles:    5671834 heartbeat IPC: 1.58615 cumulative IPC: 1.58679 (Simulation time: 0 hr 0 min 30 sec) 
Heartbeat CPU  0 instructions:   10000003 cycles:    6303204 heartbeat IPC: 1.58386 cumulative IPC: 1.58650 (Simulation time: 0 hr 0 min 34 sec) 

Warmup complete CPU  0 instructions:   10000003 cycles:    6303204 (Simulation time: 0 hr 0 min 34 sec) 

Heartbeat CPU  0 instructions:   11000001 cycles:    9583863 heartbeat IPC: 0.30482 cumulative IPC: 0.30482 (Simulation time: 0 hr 0 min 39 sec) 
Heartbeat CPU  0 instructions:   12000000 cycles:   14157052 heartbeat IPC: 0.21867 cumulative IPC: 0.25465 (Simulation time: 0 hr 0 min 43 sec) 
Heartbeat CPU  0 instructions:   13000000 cycles:   18618999 heartbeat IPC: 0.22412 cumulative IPC: 0.24359 (Simulation time: 0 hr 0 min 48 sec) 
Heartbeat CPU  0 instructions:   14000002 cycles:   22203243 heartbeat IPC: 0.27900 cumulative IPC: 0.25157 (Simulation time: 0 hr 0 min 53 sec) 
Heartbeat CPU  0 instructions:   15000002 cycles:   25679428 heartbeat IPC: 0.28767 cumulative IPC: 0.25805 (Simulation time: 0 hr 0 min 58 sec) 
Heartbeat CPU  0 instructions:   16000000 cycles:   29358734 heartbeat IPC: 0.27179 cumulative IPC: 0.26024 (Simulation time: 0 hr 1 min 3 sec) 
Heartbeat CPU  0 instructions:   17000000 cycles:   33733711 heartbeat IPC: 0.22857 cumulative IPC: 0.25519 (Simulation time: 0 hr 1 min 8 sec) 
Heartbeat CPU  0 instructions:   18000002 cycles:   37765671 heartbeat IPC: 0.24802 cumulative IPC: 0.25427 (Simulation time: 0 hr 1 min 13 sec) 
Heartbeat CPU  0 instructions:   19000000 cycles:   42312778 heartbeat IPC: 0.21992 cumulative IPC: 0.24993 (Simulation time: 0 hr 1 min 20 sec) 
Heartbeat CPU  0 instructions:   20000000 cycles:   45333445 heartbeat IPC: 0.33105 cumulative IPC: 0.25621 (Simulation time: 0 hr 1 min 26 sec) 
Heartbeat CPU  0 instructions:   21000003 cycles:   49086481 heartbeat IPC: 0.26645 cumulative IPC: 0.25711 (Simulation time: 0 hr 1 min 31 sec) 
Heartbeat CPU  0 instructions:   22000003 cycles:   53881023 heartbeat IPC: 0.20857 cumulative IPC: 0.25222 (Simulation time: 0 hr 1 min 36 sec) 
Heartbeat CPU  0 instructions:   23000000 cycles:   57021896 heartbeat IPC: 0.31838 cumulative IPC: 0.25632 (Simulation time: 0 hr 1 min 42 sec) 
Heartbeat CPU  0 instructions:   24000000 cycles:   60580191 heartbeat IPC: 0.28103 cumulative IPC: 0.25794 (Simulation time: 0 hr 1 min 47 sec) 
Heartbeat CPU  0 instructions:   25000000 cycles:   64770270 heartbeat IPC: 0.23866 cumulative IPC: 0.25655 (Simulation time: 0 hr 1 min 52 sec) 
Heartbeat CPU  0 instructions:   26000001 cycles:   68315577 heartbeat IPC: 0.28206 cumulative IPC: 0.25801 (Simulation time: 0 hr 1 min 58 sec) 
Heartbeat CPU  0 instructions:   27000000 cycles:   72548783 heartbeat IPC: 0.23623 cumulative IPC: 0.25662 (Simulation time: 0 hr 2 min 2 sec) 
Heartbeat CPU  0 instructions:   28000000 cycles:   76358451 heartbeat IPC: 0.26249 cumulative IPC: 0.25694 (Simulation time: 0 hr 2 min 7 sec) 
Heartbeat CPU  0 instructions:   29000000 cycles:   80005791 heartbeat IPC: 0.27417 cumulative IPC: 0.25779 (Simulation time: 0 hr 2 min 12 sec) 
Heartbeat CPU  0 instructions:   30000003 cycles:   83555031 heartbeat IPC: 0.28175 cumulative IPC: 0.25889 (Simulation time: 0 hr 2 min 17 sec) 
Heartbeat CPU  0 instructions:   31000001 cycles:   87107532 heartbeat IPC: 0.28149 cumulative IPC: 0.25989 (Simulation time: 0 hr 2 min 22 sec) 
Heartbeat CPU  0 instructions:   32000000 cycles:   90732127 heartbeat IPC: 0.27589 cumulative IPC: 0.26057 (Simulation time: 0 hr 2 min 27 sec) 
Heartbeat CPU  0 instructions:   33000000 cycles:   95206365 heartbeat IPC: 0.22350 cumulative IPC: 0.25871 (Simulation time: 0 hr 2 min 32 sec) 
Heartbeat CPU  0 instructions:   34000000 cycles:   98871647 heartbeat IPC: 0.27283 cumulative IPC: 0.25927 (Simulation time: 0 hr 2 min 37 sec) 
Heartbeat CPU  0 instructions:   35000002 cycles:  102405290 heartbeat IPC: 0.28299 cumulative IPC: 0.26014 (Simulation time: 0 hr 2 min 42 sec) 
Heartbeat CPU  0 instructions:   36000000 cycles:  106489640 heartbeat IPC: 0.24484 cumulative IPC: 0.25952 (Simulation time: 0 hr 2 min 47 sec) 
Heartbeat CPU  0 instructions:   37000001 cycles:  109970591 heartbeat IPC: 0.28728 cumulative IPC: 0.26045 (Simulation time: 0 hr 2 min 52 sec) 
Heartbeat CPU  0 instructions:   38000001 cycles:  114576184 heartbeat IPC: 0.21713 cumulative IPC: 0.25861 (Simulation time: 0 hr 2 min 57 sec) 
Heartbeat CPU  0 instructions:   39000001 cycles:  118530845 heartbeat IPC: 0.25287 cumulative IPC: 0.25840 (Simulation time: 0 hr 3 min 2 sec) 
Heartbeat CPU  0 instructions:   40000000 cycles:  121925449 heartbeat IPC: 0.29458 cumulative IPC: 0.25947 (Simulation time: 0 hr 3 min 6 sec) 
Heartbeat CPU  0 instructions:   41000002 cycles:  125252130 heartbeat IPC: 0.30060 cumulative IPC: 0.26062 (Simulation time: 0 hr 3 min 11 sec) 
Heartbeat CPU  0 instructions:   42000000 cycles:  129271411 heartbeat IPC: 0.24880 cumulative IPC: 0.26023 (Simulation time: 0 hr 3 min 16 sec) 
Heartbeat CPU  0 instructions:   43000003 cycles:  132220020 heartbeat IPC: 0.33914 cumulative IPC: 0.26208 (Simulation time: 0 hr 3 min 21 sec) 
Heartbeat CPU  0 instructions:   44000000 cycles:  135596220 heartbeat IPC: 0.29619 cumulative IPC: 0.26297 (Simulation time: 0 hr 3 min 26 sec) 
Heartbeat CPU  0 instructions:   45000001 cycles:  139092119 heartbeat IPC: 0.28605 cumulative IPC: 0.26358 (Simulation time: 0 hr 3 min 31 sec) 
Heartbeat CPU  0 instructions:   46000000 cycles:  142725765 heartbeat IPC: 0.27521 cumulative IPC: 0.26389 (Simulation time: 0 hr 3 min 35 sec) 
Heartbeat CPU  0 instructions:   47000000 cycles:  146046380 heartbeat IPC: 0.30115 cumulative IPC: 0.26477 (Simulation time: 0 hr 3 min 40 sec) 
Heartbeat CPU  0 instructions:   48000000 cycles:  149653591 heartbeat IPC: 0.27722 cumulative IPC: 0.26508 (Simulation time: 0 hr 3 min 45 sec) 
Heartbeat CPU  0 instructions:   49000000 cycles:  153316058 heartbeat IPC: 0.27304 cumulative IPC: 0.26528 (Simulation time: 0 hr 3 min 50 sec) 
Heartbeat CPU  0 instructions:   50000000 cycles:  157289964 heartbeat IPC: 0.25164 cumulative IPC: 0.26492 (Simulation time: 0 hr 3 min 54 sec) 
Heartbeat CPU  0 instructions:   51000002 cycles:  160229823 heartbeat IPC: 0.34015 cumulative IPC: 0.26636 (Simulation time: 0 hr 4 min 0 sec) 
Heartbeat CPU  0 instructions:   52000000 cycles:  163479301 heartbeat IPC: 0.30774 cumulative IPC: 0.26722 (Simulation time: 0 hr 4 min 4 sec) 
Heartbeat CPU  0 instructions:   53000003 cycles:  166765173 heartbeat IPC: 0.30433 cumulative IPC: 0.26798 (Simulation time: 0 hr 4 min 9 sec) 
Heartbeat CPU  0 instructions:   54000001 cycles:  170712958 heartbeat IPC: 0.25331 cumulative IPC: 0.26762 (Simulation time: 0 hr 4 min 14 sec) 
Heartbeat CPU  0 instructions:   55000000 cycles:  174391820 heartbeat IPC: 0.27182 cumulative IPC: 0.26772 (Simulation time: 0 hr 4 min 19 sec) 
Heartbeat CPU  0 instructions:   56000000 cycles:  177647071 heartbeat IPC: 0.30720 cumulative IPC: 0.26847 (Simulation time: 0 hr 4 min 24 sec) 
Heartbeat CPU  0 instructions:   57000001 cycles:  180899371 heartbeat IPC: 0.30748 cumulative IPC: 0.26919 (Simulation time: 0 hr 4 min 29 sec) 
Heartbeat CPU  0 instructions:   58000003 cycles:  184279787 heartbeat IPC: 0.29582 cumulative IPC: 0.26970 (Simulation time: 0 hr 4 min 34 sec) 
Heartbeat CPU  0 instructions:   59000001 cycles:  188181491 heartbeat IPC: 0.25630 cumulative IPC: 0.26941 (Simulation time: 0 hr 4 min 38 sec) 
Heartbeat CPU  0 instructions:   60000000 cycles:  191863377 heartbeat IPC: 0.27160 cumulative IPC: 0.26945 (Simulation time: 0 hr 4 min 43 sec) 
Finished CPU 0 instructions: 50000000 cycles: 185560322 cumulative IPC: 0.26945 (Simulation time: 0 hr 4 min 43 sec) 

ChampSim completed all CPUs

[ROI Statistics]
Core_0_instructions 50000000
Core_0_cycles 185560322
Core_0_IPC 0.26945

Core_0_branch_prediction_accuracy 97.85477
Core_0_branch_MPKI 3.90788
Core_0_average_ROB_occupancy_at_mispredict 77.47330

Core_0_L1D_total_access 19583994
Core_0_L1D_total_hit 11891413
Core_0_L1D_total_miss 7692581
Core_0_L1D_loads 16395739
Core_0_L1D_load_hit 8856735
Core_0_L1D_load_miss 7539004
Core_0_L1D_RFOs 3188255
Core_0_L1D_RFO_hit 3034678
Core_0_L1D_RFO_miss 153577
Core_0_L1D_prefetches 0
Core_0_L1D_prefetch_hit 0
Core_0_L1D_prefetch_miss 0
Core_0_L1D_writebacks 0
Core_0_L1D_writeback_hit 0
Core_0_L1D_writeback_miss 0
Core_0_L1D_prefetch_requested 0
Core_0_L1D_prefetch_dropped 0
Core_0_L1D_prefetch_issued 0
Core_0_L1D_prefetch_filled 0
Core_0_L1D_prefetch_useful 0
Core_0_L1D_prefetch_useless 0
Core_0_L1D_prefetch_late 0
Core_0_L1D_average_miss_latency 64.75483

Core_0_L1D_rq_access 20648717
Core_0_L1D_rq_forward 0
Core_0_L1D_rq_merged 3660819
Core_0_L1D_rq_to_cache 16987898
Core_0_L1D_rq_full 0

Core_0_L1D_wq_access 3596625
Core_0_L1D_wq_forward 0
Core_0_L1D_wq_merged 4742
Core_0_L1D_wq_to_cache 3591883
Core_0_L1D_wq_full 0

Core_0_L1D_pq_access 0
Core_0_L1D_pq_forward 0
Core_0_L1D_pq_merged 0
Core_0_L1D_pq_to_cache 0
Core_0_L1D_pq_full 0

Core_0_L1D_acc_epochs 186941
Core_0_L1D_acc_level_0 186941
Core_0_L1D_acc_level_1 0
Core_0_L1D_acc_level_2 0
Core_0_L1D_acc_level_3 0
Core_0_L1D_acc_level_4 0
Core_0_L1D_acc_level_5 0
Core_0_L1D_acc_level_6 0
Core_0_L1D_acc_level_7 0
Core_0_L1D_acc_level_8 0
Core_0_L1D_acc_level_9 0

Core_0_L1I_total_access 17648650
Core_0_L1I_total_hit 17648650
Core_0_L1I_total_miss 0
Core_0_L1I_loads 17648650
Core_0_L1I_load_hit 17648650
Core_0_L1I_load_miss 0
Core_0_L1I_RFOs 0
Core_0_L1I_RFO_hit 0
Core_0_L1I_RFO_miss 0
Core_0_L1I_prefetches 0
Core_0_L1I_prefetch_hit 0
Core_0_L1I_prefetch_miss 0
Core_0_L1I_writebacks 0
Core_0_L1I_writeback_hit 0
Core_0_L1I_writeback_miss 0
Core_0_L1I_prefetch_requested 0
Core_0_L1I_prefetch_dropped 0
Core_0_L1I_prefetch_issued 0
Core_0_L1I_prefetch_filled 0
Core_0_L1I_prefetch_useful 0
Core_0_L1I_prefetch_useless 0
Core_0_L1I_prefetch_late 0
Core_0_L1I_average_miss_latency -nan

Core_0_L1I_rq_access 50000008
Core_0_L1I_rq_forward 0
Core_0_L1I_rq_merged 32351358
Core_0_L1I_rq_to_cache 17648650
Core_0_L1I_rq_full 0

Core_0_L1I_wq_access 0
Core_0_L1I_wq_forward 0
Core_0_L1I_wq_merged 0
Core_0_L1I_wq_to_cache 0
Core_0_L1I_wq_full 0

Core_0_L1I_pq_access 0
Core_0_L1I_pq_forward 0
Core_0_L1I_pq_merged 0
Core_0_L1I_pq_to_cache 0
Core_0_L1I_pq_full 0

Core_0_L1I_acc_epochs 186941
Core_0_L1I_acc_level_0 186941
Core_0_L1I_acc_level_1 0
Core_0_L1I_acc_level_2 0
Core_0_L1I_acc_level_3 0
Core_0_L1I_acc_level_4 0
Core_0_L1I_acc_level_5 0
Core_0_L1I_acc_level_6 0
Core_0_L1I_acc_level_7 0
Core_0_L1I_acc_level_8 0
Core_0_L1I_acc_level_9 0

Core_0_L2C_total_access 25766050
Core_0_L2C_total_hit 14560344
Core_0_L2C_total_miss 11205706
Core_0_L2C_loads 7539002
Core_0_L2C_load_hit 4730660
Core_0_L2C_load_miss 2808342
Core_0_L2C_RFOs 153577
Core_0_L2C_RFO_hit 5113
Core_0_L2C_RFO_miss 148464
Core_0_L2C_prefetches 17888226
Core_0_L2C_prefetch_hit 9639951
Core_0_L2C_prefetch_miss 8248275
Core_0_L2C_writebacks 185245
Core_0_L2C_writeback_hit 184620
Core_0_L2C_writeback_miss 625
Core_0_L2C_prefetch_requested 27346784
Core_0_L2C_prefetch_dropped 134467
Core_0_L2C_prefetch_issued 27212317
Core_0_L2C_prefetch_filled 9618765
Core_0_L2C_prefetch_useful 5340205
Core_0_L2C_prefetch_useless 4277463
Core_0_L2C_prefetch_late 507871
Core_0_L2C_average_miss_latency 131.61058

Core_0_L2C_rq_access 7692584
Core_0_L2C_rq_forward 0
Core_0_L2C_rq_merged 0
Core_0_L2C_rq_to_cache 7692583
Core_0_L2C_rq_full 0

Core_0_L2C_wq_access 185245
Core_0_L2C_wq_forward 1
Core_0_L2C_wq_merged 0
Core_0_L2C_wq_to_cache 185245
Core_0_L2C_wq_full 0

Core_0_L2C_pq_access 27212317
Core_0_L2C_pq_forward 0
Core_0_L2C_pq_merged 2563434
Core_0_L2C_pq_to_cache 24648883
Core_0_L2C_pq_full 0

Core_0_L2C_acc_epochs 186941
Core_0_L2C_acc_level_0 4
Core_0_L2C_acc_level_1 6
Core_0_L2C_acc_level_2 158
Core_0_L2C_acc_level_3 1872
Core_0_L2C_acc_level_4 35155
Core_0_L2C_acc_level_5 72072
Core_0_L2C_acc_level_6 49834
Core_0_L2C_acc_level_7 15658
Core_0_L2C_acc_level_8 5983
Core_0_L2C_acc_level_9 6199

Core_0_LLC_total_access 11389592
Core_0_LLC_total_hit 5476252
Core_0_LLC_total_miss 5913340
Core_0_LLC_loads 2308941
Core_0_LLC_load_hit 1163225
Core_0_LLC_load_miss 1145716
Core_0_LLC_RFOs 148150
Core_0_LLC_RFO_hit 825
Core_0_LLC_RFO_miss 147325
Core_0_LLC_prefetches 8747992
Core_0_LLC_prefetch_hit 4294282
Core_0_LLC_prefetch_miss 4453710
Core_0_LLC_writebacks 184509
Core_0_LLC_writeback_hit 17920
Core_0_LLC_writeback_miss 166589
Core_0_LLC_prefetch_requested 0
Core_0_LLC_prefetch_dropped 0
Core_0_LLC_prefetch_issued 0
Core_0_LLC_prefetch_filled 5192911
Core_0_LLC_prefetch_useful 4623
Core_0_LLC_prefetch_useless 5177134
Core_0_LLC_prefetch_late 0
Core_0_LLC_average_miss_latency 200.99729

Core_0_LLC_rq_access 2457092
Core_0_LLC_rq_forward 0
Core_0_LLC_rq_merged 0
Core_0_LLC_rq_to_cache 2457092
Core_0_LLC_rq_full 0

Core_0_LLC_wq_access 184509
Core_0_LLC_wq_forward 0
Core_0_LLC_wq_merged 0
Core_0_LLC_wq_to_cache 184509
Core_0_LLC_wq_full 0

Core_0_LLC_pq_access 10126651
Core_0_LLC_pq_forward 0
Core_0_LLC_pq_merged 0
Core_0_LLC_pq_to_cache 10126651
Core_0_LLC_pq_full 0

Core_0_LLC_acc_epochs 187367
Core_0_LLC_acc_level_0 186745
Core_0_LLC_acc_level_1 167
Core_0_LLC_acc_level_2 97
Core_0_LLC_acc_level_3 43
Core_0_LLC_acc_level_4 24
Core_0_LLC_acc_level_5 64
Core_0_LLC_acc_level_6 27
Core_0_LLC_acc_level_7 12
Core_0_LLC_acc_level_8 10
Core_0_LLC_acc_level_9 178

Core_0_major_page_fault 0
Core_0_minor_page_fault 6272

scooby_st_lookup 9002346
scooby_st_hit 8769660
scooby_st_evict 232622
scooby_st_insert 232686
scooby_st_streaming 0

scooby_predict_called 9002346
scooby_predict_out_of_bounds 285313
scooby_predict_action_1 1916056
scooby_predict_issue_action_1 1667852
scooby_predict_hit_action_1 248204
scooby_predict_out_of_bounds_action_1 29287
scooby_predict_action_3 1490
scooby_predict_issue_action_3 777
scooby_predict_hit_action_3 713
scooby_predict_out_of_bounds_action_3 69
scooby_predict_action_4 1643
scooby_predict_issue_action_4 561
scooby_predict_hit_action_4 1082
scooby_predict_out_of_bounds_action_4 90
scooby_predict_action_5 1185
scooby_predict_issue_action_5 727
scooby_predict_hit_action_5 458
scooby_predict_out_of_bounds_action_5 83
scooby_predict_action_10 1178
scooby_predict_issue_action_10 491
scooby_predict_hit_action_10 687
scooby_predict_out_of_bounds_action_10 241
scooby_predict_action_11 1119
scooby_predict_issue_action_11 543
scooby_predict_hit_action_11 576
scooby_predict_out_of_bounds_action_11 213
scooby_predict_action_12 1096
scooby_predict_issue_action_12 704
scooby_predict_hit_action_12 392
scooby_predict_out_of_bounds_action_12 235
scooby_predict_action_22 870
scooby_predict_issue_action_22 553
scooby_predict_hit_action_22 317
scooby_predict_out_of_bounds_action_22 440
scooby_predict_action_23 794
scooby_predict_issue_action_23 501
scooby_predict_hit_action_23 293
scooby_predict_out_of_bounds_action_23 480
scooby_predict_action_30 683
scooby_predict_issue_action_30 356
scooby_predict_hit_action_30 327
scooby_predict_out_of_bounds_action_30 559
scooby_predict_action_32 602
scooby_predict_issue_action_32 398
scooby_predict_hit_action_32 204
scooby_predict_out_of_bounds_action_32 590
scooby_predict_action_-1 2538242
scooby_predict_issue_action_-1 2317078
scooby_predict_hit_action_-1 221164
scooby_predict_out_of_bounds_action_-1 40781
scooby_predict_action_-3 2787863
scooby_predict_issue_action_-3 1963863
scooby_predict_hit_action_-3 824000
scooby_predict_out_of_bounds_action_-3 136677
scooby_predict_action_-6 825755
scooby_predict_issue_action_-6 825280
scooby_predict_hit_action_-6 475
scooby_predict_out_of_bounds_action_-6 75568
scooby_predict_action_0 638457
scooby_predict_issue_action_0 0
scooby_predict_hit_action_0 0
scooby_predict_out_of_bounds_action_0 0
scooby_predict_multi_deg_called 5639073
scooby_predict_predicted 27346784
scooby_predict_multi_deg 20567100
scooby_predict_multi_deg_2 5426342
scooby_predict_multi_deg_3 4663106
scooby_predict_multi_deg_4 4463502
scooby_predict_multi_deg_5 3067482
scooby_predict_multi_deg_6 2946668
scooby_predict_multi_deg_7 0
scooby_predict_multi_deg_8 0
scooby_predict_multi_deg_9 0
scooby_predict_multi_deg_10 0
scooby_predict_multi_deg_11 0
scooby_predict_multi_deg_12 0
scooby_predict_multi_deg_13 0
scooby_predict_multi_deg_14 0
scooby_predict_multi_deg_15 0
scooby_predict_multi_deg_16 0

scooby_selected_deg_1 1140611
scooby_selected_deg_2 584599
scooby_selected_deg_3 0
scooby_selected_deg_4 1252124
scooby_selected_deg_5 0
scooby_selected_deg_6 3802350
scooby_selected_deg_7 0
scooby_selected_deg_8 0
scooby_selected_deg_9 0
scooby_selected_deg_10 0
scooby_selected_deg_11 0
scooby_selected_deg_12 0
scooby_selected_deg_13 0
scooby_selected_deg_14 0
scooby_selected_deg_15 0
scooby_selected_deg_16 0

scooby_state_402dc3|63|0 26993,5,2,7,4,3,13,6,5,3,4,4,4,14805,3,41861,
scooby_state_402dc3|62|0 26905,6,5,2,4,5,2,7,3,7,3,6,3,14575,2,41535,
scooby_state_402dc3|61|0 26129,7,6,3,11,2,2,2,7,4,3,7,5,14235,4,40427,
scooby_state_402dfb|63|0 50,3,7,3,6,1,4,4,6,4,8,11608,18480,1,5,30190,
scooby_state_402dc3|60|-3 16788,1,6,0,3,3,3,6,7,6,6,4,6,9198,1,26038,
scooby_state_402dc3|56|-3 13927,1,1,3,4,3,0,1,2,5,3,5,3,7847,1,21806,
scooby_state_402dc3|59|-3 14114,5,3,2,5,4,2,1,3,3,2,2,4,7597,1,21748,
scooby_state_402dc3|57|-3 13976,4,2,1,3,1,3,1,1,3,1,4,4,7671,3,21678,
scooby_state_402dc3|58|-3 13562,1,5,1,1,4,3,2,1,2,4,3,5,7309,3,20906,
scooby_state_402dc3|54|-3 13081,0,4,5,6,0,1,4,5,2,2,2,4,7705,3,20824,
scooby_state_402dc0|52|-1 5,3,6,3,2,2,3,4,4,2,2,20717,3,2,4,20762,
scooby_state_402dc0|53|-1 4,4,3,3,4,3,1,2,2,4,5,20716,1,4,4,20760,
scooby_state_402dc0|54|-1 7,1,3,2,3,3,8,3,2,1,6,20715,2,2,0,20758,
scooby_state_402dc0|55|-1 5,3,7,0,6,3,2,5,2,4,2,20707,7,2,0,20755,
scooby_state_402dc0|56|-1 4,3,4,3,5,2,2,2,1,5,1,20711,4,3,1,20751,
scooby_state_402dc0|57|-1 5,3,3,3,5,3,1,8,2,4,4,20692,3,7,4,20747,
scooby_state_402dc0|58|-1 6,8,3,2,4,2,1,5,3,5,2,20692,3,3,4,20743,
scooby_state_402dc0|59|-1 5,4,3,5,5,5,2,4,1,1,5,20691,1,3,4,20739,
scooby_state_402dc0|60|-1 6,5,4,0,1,1,2,5,0,2,5,20697,2,2,3,20735,
scooby_state_402dc0|61|-1 6,2,3,4,3,3,2,3,3,5,3,20683,4,2,5,20731,
scooby_state_402dc0|62|-1 5,4,2,4,4,5,7,3,7,5,2,20671,3,3,2,20727,
scooby_state_402dc0|63|0 0,4,2,2,3,4,4,3,1,5,1,20683,5,4,2,20723,
scooby_state_402dc0|0|-1 4,1,5,4,2,6,5,3,1,2,5,20671,4,2,4,20719,
scooby_state_402dc0|1|-1 8,2,5,2,5,5,1,4,2,4,4,20665,2,4,2,20715,
scooby_state_402dc0|2|-1 6,0,3,5,2,2,1,5,4,4,6,20663,2,5,3,20711,
scooby_state_402dc0|3|-1 7,1,7,2,1,3,4,1,0,2,4,20667,3,2,3,20707,
scooby_state_402dc0|4|-1 5,2,4,2,6,5,4,6,5,10,7,20644,2,1,0,20703,
scooby_state_402dc0|5|-1 6,2,6,3,1,4,2,5,3,2,1,20656,2,2,4,20699,
scooby_state_402dc0|6|-1 7,1,1,3,4,5,3,2,5,3,3,20650,3,3,2,20695,
scooby_state_402dc0|7|-1 5,3,2,3,3,8,3,3,3,3,4,20642,4,2,3,20691,
scooby_state_402dc0|8|-1 7,3,1,4,2,3,3,2,2,3,4,20644,2,2,5,20687,
scooby_state_402dc0|9|-1 4,3,3,3,2,5,2,4,4,3,2,20638,1,3,6,20683,
scooby_state_402dc0|10|-1 4,1,6,2,3,5,1,4,2,4,4,20638,4,0,1,20679,
scooby_state_402dc3|53|-3 13154,4,1,2,1,1,5,0,2,3,4,4,2,7492,1,20676,
scooby_state_402dc0|11|-1 4,1,2,2,3,1,3,3,2,6,3,20637,4,1,3,20675,
scooby_state_402dc0|12|-1 7,4,4,3,2,4,0,7,4,7,1,20621,2,1,4,20671,
scooby_state_402dc0|13|-1 2,4,1,2,3,6,3,4,5,2,5,20622,3,4,1,20667,
scooby_state_402dc0|14|-1 4,3,3,1,5,7,5,4,2,3,1,20617,0,2,6,20663,
scooby_state_402dc0|15|-1 5,2,4,7,5,5,1,4,5,4,3,20607,1,5,1,20659,
scooby_state_402dc0|16|-1 4,3,3,3,3,4,4,1,5,5,2,20609,2,3,4,20655,
scooby_state_402dc0|17|-1 5,1,5,3,2,6,2,5,1,6,3,20606,4,0,2,20651,
scooby_state_402dc0|18|-1 4,2,3,3,4,3,3,1,2,3,4,20603,1,4,7,20647,
scooby_state_402dc0|19|-1 3,0,3,3,1,6,3,1,3,4,1,20609,3,3,0,20643,
scooby_state_402dc0|20|-1 4,2,2,4,5,4,4,3,1,3,5,20592,4,3,3,20639,
scooby_state_402dc0|21|-1 4,6,2,5,0,6,2,6,6,6,3,20584,4,0,1,20635,
scooby_state_402dc0|22|-1 4,3,1,8,3,2,3,0,3,2,4,20589,1,5,3,20631,
scooby_state_402dc0|23|-1 4,3,4,3,5,2,3,2,5,4,1,20583,5,2,1,20627,
scooby_state_402dc0|24|-1 6,5,2,6,3,3,6,5,2,3,4,20572,4,1,1,20623,
scooby_state_402dc0|25|-1 3,2,2,4,6,5,3,2,7,4,1,20573,1,1,5,20619,
scooby_state_402dc0|26|-1 5,1,3,2,5,3,3,2,5,1,0,20578,5,2,0,20615,
scooby_state_402dc0|27|-1 6,4,1,2,1,3,4,1,4,2,0,20576,3,2,2,20611,
scooby_state_402dc0|28|-1 4,5,2,3,2,5,6,2,3,4,4,20561,3,1,2,20607,
scooby_state_402dc0|29|-1 5,2,3,3,3,1,4,3,4,2,2,20561,4,4,2,20603,
scooby_state_402dc0|30|-1 6,6,1,5,3,4,3,1,4,1,2,20561,1,0,1,20599,
scooby_state_402dc0|31|-1 8,3,1,4,2,6,5,4,3,1,1,20550,2,2,3,20595,
scooby_state_402dc0|32|-1 3,3,4,2,5,4,8,1,3,6,3,20537,8,3,1,20591,
scooby_state_402dc0|33|-1 8,5,1,2,0,4,3,2,1,2,1,20548,2,5,3,20587,
scooby_state_402dc0|34|-1 6,3,2,5,5,1,3,5,2,4,1,20543,1,1,1,20583,
scooby_state_402dc0|35|-1 5,2,4,2,3,1,4,5,2,3,1,20540,3,0,4,20579,
scooby_state_402dc0|36|-1 3,6,4,3,3,3,3,5,0,2,1,20539,2,1,0,20575,
scooby_state_402dc0|37|-1 4,2,4,4,2,5,3,3,0,7,0,20527,3,4,3,20571,
scooby_state_402dc0|38|-1 4,3,3,2,3,3,4,3,2,1,5,20531,1,0,2,20567,
scooby_state_402dc3|55|-3 13132,6,2,2,0,4,2,2,4,3,2,2,1,7401,1,20564,
scooby_state_402dc0|39|-1 4,2,2,3,5,2,2,2,3,4,4,20521,5,3,1,20563,
scooby_state_402dc0|40|-1 5,4,4,2,2,1,2,6,2,4,4,20517,3,2,1,20559,
scooby_state_402dc0|41|-1 1,7,5,2,3,5,2,3,3,3,3,20512,0,2,4,20555,
scooby_state_402dc0|42|-1 2,4,1,9,4,3,3,4,2,3,3,20507,1,4,1,20551,
scooby_state_402dc0|43|-1 4,4,2,1,5,4,4,5,4,4,3,20493,8,3,3,20547,
scooby_state_402dc0|44|-1 1,4,4,0,5,4,3,4,2,4,2,20504,2,2,2,20543,
scooby_state_402dc0|45|-1 1,2,4,5,4,4,3,2,4,3,3,20496,1,1,6,20539,
scooby_state_402dc0|46|-1 7,3,1,3,2,2,3,3,1,4,3,20495,0,6,2,20535,
scooby_state_402dc0|47|-1 4,4,2,2,2,3,5,2,1,2,4,20497,0,3,1,20532,
scooby_state_402dc0|48|-1 6,3,4,2,3,6,5,5,6,3,4,20479,2,0,2,20530,
scooby_state_402dc0|49|-1 4,5,1,6,9,1,3,2,2,2,1,20483,1,6,2,20528,
scooby_state_402dc0|50|-1 6,2,3,7,3,2,3,3,4,6,2,20473,5,2,5,20526,
scooby_state_402dc0|51|-1 5,7,5,4,3,1,4,5,8,4,4,20466,2,4,2,20524,
scooby_state_402dc3|59|-4 13271,2,5,2,1,2,1,2,3,1,1,3,5,7190,0,20489,
scooby_state_402dc3|50|-3 11561,1,0,2,1,2,2,2,4,5,3,0,3,7556,3,19145,
scooby_state_402dc3|52|-3 11894,4,0,1,2,0,2,6,2,3,1,2,1,7026,3,18947,
scooby_state_402dc3|56|-4 12160,2,0,1,0,5,2,3,5,3,4,6,3,6575,2,18771,
scooby_state_402dc3|58|-4 12053,2,3,1,2,2,0,1,1,1,1,1,2,6565,3,18638,
scooby_state_402dc3|57|-4 11796,2,2,3,0,2,4,0,3,1,1,2,4,6647,3,18470,
scooby_state_402dc3|51|-3 10802,0,2,2,3,1,1,1,2,0,2,1,2,7113,2,17934,
scooby_state_402dfb|22|-2 3,5,5,6,4,3,4,6,2,4,3,11109,5886,4,1,17045,
scooby_state_402dfb|8|-1 2,3,5,5,5,3,4,3,5,0,2,7314,9583,0,5,16939,
scooby_state_402dfb|43|-2 4,2,5,3,2,2,4,2,2,1,2,11223,5622,3,2,16879,
scooby_state_402dfb|24|-2 5,5,2,2,2,4,4,3,4,3,2,11156,5592,2,3,16789,
scooby_state_402dfb|13|-1 2,3,2,1,5,4,3,1,2,3,3,6920,9818,4,1,16772,
scooby_state_402dfb|4|-1 3,4,1,3,2,7,1,3,3,0,1,6208,10526,1,3,16766,
scooby_state_402dfb|34|-2 1,1,4,3,6,4,3,2,4,2,1,10917,5760,1,3,16712,
scooby_state_402dfb|10|-2 2,0,5,5,3,3,2,4,3,1,0,11277,5383,2,0,16690,
scooby_state_402dfb|37|-1 6,4,3,1,4,1,5,3,1,1,2,7020,9618,1,1,16671,
scooby_state_402dc3|53|-4 10260,4,2,2,2,2,0,3,4,2,2,1,2,6170,2,16458,
scooby_state_402dfb|27|-1 6,2,3,3,4,4,1,3,0,2,1,6918,9473,5,0,16425,
scooby_state_402dfb|46|-1 3,3,2,1,4,1,2,3,5,2,1,7017,9376,1,2,16423,
scooby_state_402dfb|42|-2 3,5,1,1,1,7,4,2,1,1,2,11099,5263,1,1,16392,
scooby_state_402dfb|25|-1 2,3,6,5,1,5,2,1,2,2,3,6713,9626,3,4,16378,
scooby_state_402dfb|26|-1 3,2,1,3,2,2,4,2,1,1,0,6812,9532,3,2,16370,
scooby_state_402dfb|62|-1 4,3,2,2,2,2,2,3,2,2,1,7026,9259,2,4,16316,
scooby_state_402dfb|6|-2 2,3,1,2,1,5,1,2,0,4,3,10920,5350,1,3,16298,
scooby_state_402dc3|29|-3 9895,1,2,1,2,2,2,1,2,2,2,2,0,6375,2,16291,
scooby_state_402dc3|55|-4 10218,3,2,5,2,1,0,2,2,4,3,0,1,6040,2,16285,
scooby_state_402dfb|53|-1 2,2,3,1,2,1,4,3,3,2,2,6675,9579,1,2,16282,
scooby_state_402dfb|1|-2 3,3,3,1,2,1,3,3,3,0,3,11303,4923,4,0,16255,
scooby_state_402dfb|15|-2 3,4,3,1,3,1,2,1,3,1,2,10666,5545,2,1,16238,
scooby_state_402dc3|43|-3 10118,1,1,2,0,3,5,2,2,2,2,1,2,6068,1,16210,
scooby_state_402dfb|20|-1 3,1,3,3,2,2,2,1,3,2,1,6957,9220,2,2,16204,
scooby_state_402dfb|40|-2 3,5,3,1,2,3,4,4,3,3,0,11297,4847,3,4,16182,
scooby_state_402dfb|11|-1 7,6,3,3,4,1,4,3,4,1,3,6920,9218,3,1,16181,
scooby_state_402dfb|61|-2 2,2,5,5,4,3,4,2,1,1,1,10954,5194,0,1,16179,
scooby_state_402dfb|50|-2 4,2,3,2,1,5,1,1,6,0,3,10814,5326,2,1,16171,
scooby_state_402dfb|16|-1 1,1,4,2,4,2,2,2,4,0,4,6261,9868,4,4,16163,
scooby_state_402dfb|17|-1 0,1,1,1,3,1,5,1,2,2,1,6138,9981,1,3,16141,
scooby_state_402dfb|43|-1 2,2,2,1,3,2,3,4,4,3,0,6253,9859,2,1,16141,
scooby_state_402dc3|49|-3 10371,2,2,1,1,3,1,2,2,3,2,4,0,5741,2,16137,
scooby_state_402dfb|5|-1 5,4,1,6,4,2,1,6,1,1,0,6411,9680,6,0,16128,
scooby_state_402dfb|29|-1 2,1,4,6,4,2,2,2,3,0,0,6310,9786,1,2,16125,
scooby_state_402dfb|40|-1 1,3,2,3,5,3,4,2,2,2,4,6778,9310,3,2,16124,
scooby_state_402dfb|7|-1 2,0,3,2,1,0,1,1,3,1,1,6826,9266,4,0,16111,
scooby_state_402dfb|41|-1 2,1,4,1,6,2,3,1,3,2,1,6442,9619,1,1,16089,
scooby_state_402dfb|6|-1 2,3,1,2,3,1,2,5,2,1,2,6586,9445,1,2,16058,
scooby_state_402dfb|44|-1 1,2,2,1,1,5,3,4,6,2,0,6528,9472,1,1,16029,
scooby_state_402dfb|14|-2 2,3,2,1,3,2,4,2,1,3,4,10788,5203,1,4,16023,
scooby_state_402dfb|33|-2 3,1,2,1,3,4,3,2,1,0,2,10822,5167,1,2,16014,
scooby_state_402dfb|41|-2 1,3,1,1,3,4,4,3,2,0,3,10689,5291,3,2,16010,
scooby_state_402dfb|23|-2 3,5,3,1,2,2,1,2,4,6,3,10807,5155,3,1,15998,
scooby_state_402dc3|50|-4 9971,2,0,2,2,0,0,2,6,1,2,2,2,6005,0,15997,
scooby_state_402dfb|52|-1 2,2,1,3,2,3,0,2,1,2,1,6632,9338,3,2,15994,
scooby_state_402dfb|36|-1 4,3,1,1,0,3,1,6,2,2,1,7265,8692,1,2,15984,
scooby_state_402dfb|61|-1 3,4,1,2,0,6,4,2,4,3,2,7036,8877,1,2,15947,
scooby_state_402dfb|45|-1 1,1,1,1,2,8,3,2,2,0,3,6868,9041,1,3,15937,
scooby_state_402dfb|52|-2 2,3,4,2,3,0,3,2,4,2,2,10809,5080,3,1,15920,
scooby_state_402dfb|22|-1 2,4,2,4,1,3,1,4,5,2,3,7149,8710,4,0,15894,
scooby_state_402dfb|48|-2 1,2,3,3,2,3,4,1,2,2,1,11009,4821,1,3,15858,
scooby_state_402dfb|47|-2 2,0,1,1,1,5,3,1,1,0,1,10917,4917,3,1,15854,
scooby_state_402dfb|0|-1 5,1,3,1,3,2,5,2,2,2,1,6726,9078,2,2,15835,
scooby_state_402dfb|13|-2 2,4,3,4,3,3,1,2,2,0,2,10583,5215,1,5,15830,
scooby_state_402dfb|56|-2 5,3,2,3,2,6,2,4,4,4,1,11074,4716,1,2,15829,
scooby_state_402dfb|21|-1 3,1,3,3,2,4,3,1,4,4,2,7114,8681,0,3,15828,
scooby_state_402dfb|34|-1 1,2,4,3,0,0,4,5,2,5,3,6795,8961,0,3,15788,
scooby_state_402dfb|1|-1 1,3,0,4,3,3,4,5,1,2,1,6500,9244,1,5,15777,
scooby_state_402dfb|35|-1 0,3,2,4,3,4,2,3,2,2,2,6877,8869,1,1,15775,
scooby_state_402dfb|3|-1 1,3,3,1,3,3,2,2,3,4,2,6260,9465,1,1,15754,
scooby_state_402dfb|48|-1 2,5,1,5,2,2,4,5,2,1,2,7087,8625,2,1,15746,
scooby_state_402dfb|24|-1 5,1,1,0,5,1,4,2,3,3,0,7347,8370,3,0,15745,
scooby_state_402dfb|2|-1 3,2,1,3,2,3,2,3,1,2,2,6564,9127,2,0,15717,
scooby_state_402dfb|18|-1 3,3,4,3,0,2,3,1,0,1,0,6279,9414,1,1,15715,
scooby_state_402dfb|5|-2 4,1,2,3,1,3,2,3,2,2,1,10655,5028,2,1,15710,
scooby_state_402dfb|38|-1 3,1,2,0,2,2,3,4,2,2,1,6569,9093,3,4,15691,
scooby_state_402dfb|38|-2 4,5,6,2,2,2,4,1,4,2,2,10665,4957,3,3,15662,
scooby_state_402dfb|32|-2 2,2,2,2,0,1,7,4,1,2,2,10543,5076,2,4,15650,
scooby_state_402dfb|14|-1 1,4,4,4,3,2,5,4,2,0,0,6435,9171,1,2,15638,
scooby_state_402dc3|22|-3 9772,1,1,1,4,1,2,2,2,1,5,2,1,5823,1,15619,
scooby_state_402dfb|62|0 23,3,2,2,1,2,1,3,1,1,0,6187,9382,3,4,15615,
scooby_state_402dfb|21|-2 4,3,2,2,1,2,3,1,1,2,2,10984,4582,2,2,15593,
scooby_state_402dfb|12|-2 2,4,3,3,1,2,1,5,2,2,1,10707,4846,0,0,15579,
scooby_state_402dfb|28|-1 3,4,1,1,2,3,2,3,2,4,1,6556,8962,2,4,15550,
scooby_state_402dfb|19|-2 2,2,1,5,0,4,2,2,0,0,0,11067,4452,0,2,15539,
scooby_state_402dfb|31|-2 2,2,3,3,4,5,5,1,1,1,1,10872,4590,2,2,15494,
scooby_state_402dfb|51|-1 2,2,3,0,1,3,2,2,2,1,2,6536,8924,3,0,15483,
scooby_state_402dfb|39|-2 2,0,7,2,9,2,1,1,3,0,2,10692,4733,2,4,15460,
scooby_state_402dfb|50|-1 3,3,2,1,6,1,1,3,0,2,1,6594,8822,2,3,15444,
scooby_state_402dc3|21|-3 9697,1,1,0,1,3,0,2,0,1,4,1,1,5729,1,15442,
scooby_state_402dfb|3|-2 3,2,4,2,0,2,2,1,3,2,2,11131,4282,2,2,15440,
scooby_state_402dc3|54|-4 9979,2,0,1,3,3,1,2,4,2,3,4,2,5431,2,15439,
scooby_state_402dfb|23|-1 5,5,2,1,2,2,3,5,0,5,0,7264,8116,2,2,15414,
scooby_state_402dfb|51|-2 0,2,2,2,5,2,4,0,4,1,3,10520,4862,1,3,15411,
scooby_state_402dc3|48|-3 9651,3,3,1,3,2,2,2,0,2,1,0,1,5734,2,15407,
scooby_state_402dc3|51|-4 9628,1,1,1,2,0,4,1,2,2,1,4,0,5751,1,15399,
scooby_state_402dfb|31|-1 1,3,3,2,0,4,0,4,1,0,1,6446,8926,3,4,15398,
scooby_state_402dc3|25|-3 9605,2,4,4,2,0,1,2,2,2,4,2,2,5764,0,15396,
scooby_state_402dc3|60|0 9831,1,1,3,0,1,0,3,2,5,1,2,2,5538,3,15393,
scooby_state_402dfb|59|-2 2,5,1,1,3,3,4,4,1,2,1,10270,5077,0,2,15376,
scooby_state_402dc3|49|-4 9465,5,2,2,2,2,4,2,1,0,1,1,0,5867,1,15355,
scooby_state_402dfb|60|-2 2,3,2,2,2,5,1,2,2,1,4,10591,4735,2,0,15354,
scooby_state_402dc3|52|-4 9182,2,3,1,1,2,1,1,2,2,4,1,3,6147,2,15354,
scooby_state_402dfb|32|-1 2,3,6,7,1,3,2,3,2,1,2,6552,8740,2,1,15327,
scooby_state_402dc3|42|-3 9781,2,0,2,1,2,0,2,3,1,1,0,2,5527,2,15326,
scooby_state_402dfb|11|-2 3,3,5,2,1,4,0,1,1,5,0,10757,4531,0,2,15315,
scooby_state_402dfb|12|-1 1,3,2,0,2,5,1,1,4,0,0,6729,8553,2,3,15306,
scooby_state_402dfb|47|-1 5,2,2,3,1,2,1,4,4,0,0,6705,8557,0,2,15288,
scooby_state_402dfb|46|-2 1,5,4,3,3,3,4,2,3,2,4,10988,4228,2,2,15254,
scooby_state_402dfb|2|-2 2,3,1,2,0,2,3,1,1,4,2,10554,4621,4,2,15202,
scooby_state_402dfb|60|-1 1,4,1,1,2,3,1,1,3,2,3,6710,8462,0,4,15198,
scooby_state_402dcb|0|-3 0,17,0,2,5,1,1,0,4,5,4,430,9982,2,4744,15197,
scooby_state_402dfb|49|-2 1,3,1,4,1,5,3,2,0,2,3,10652,4462,3,2,15144,
scooby_state_402dfb|37|-2 4,4,3,3,1,2,2,4,2,3,0,10933,4165,0,1,15127,
scooby_state_402dc3|5|-3 9421,0,4,0,0,2,1,2,1,1,5,6,0,5677,1,15121,
scooby_state_402dfb|29|-2 4,5,1,3,3,2,4,3,3,1,2,10680,4393,3,1,15108,
scooby_state_402dc3|26|-3 9550,3,4,0,1,1,1,2,3,3,2,4,2,5524,2,15102,
scooby_state_402dfb|42|-1 2,0,3,3,3,2,3,1,2,2,2,6175,8883,1,1,15083,
scooby_state_402dc3|33|-3 9753,2,1,1,2,1,2,1,3,1,1,1,0,5303,3,15075,
scooby_state_402dfb|28|-2 2,3,2,5,0,1,2,4,0,1,1,10764,4274,0,1,15060,
scooby_state_402dfb|49|-1 4,3,2,2,5,1,5,2,4,4,1,6859,8162,0,2,15056,
scooby_state_402dfb|30|-1 1,2,1,3,4,2,2,3,0,1,2,6164,8837,3,0,15025,
scooby_state_402dfb|16|-2 2,3,5,1,3,1,2,2,4,1,3,10822,4158,0,1,15008,
scooby_state_402dfb|4|-2 1,3,2,1,3,1,2,2,2,2,4,10407,4564,1,0,14995,
scooby_state_402dfb|39|-1 2,2,0,3,0,3,4,3,2,0,4,6573,8388,3,0,14987,
scooby_state_402dc3|24|-3 9367,5,1,1,3,4,2,2,4,2,1,2,1,5567,1,14963,
scooby_state_402dfb|30|-2 4,3,3,2,4,2,3,6,0,1,1,10748,4186,0,0,14963,
scooby_state_402dfb|15|-1 2,1,4,5,6,2,4,3,1,3,1,6348,8578,2,2,14962,
scooby_state_402dfb|59|-1 1,6,3,0,3,2,9,4,2,2,1,6529,8351,2,1,14916,
scooby_state_402dc3|2|-3 9408,3,0,1,2,2,2,3,4,1,4,2,1,5467,2,14902,
scooby_state_402dfb|20|-2 1,2,3,3,1,3,1,1,3,3,1,10365,4498,1,2,14888,
scooby_state_402dc3|46|-3 9269,3,2,1,0,5,3,0,4,2,1,2,2,5583,3,14880,
scooby_state_402dfb|19|-1 1,3,3,0,3,5,1,4,3,0,3,6486,8343,1,3,14859,
scooby_state_402dc3|30|-3 9106,4,2,0,2,2,3,4,1,6,0,1,0,5710,2,14843,
scooby_state_402dc3|9|-3 9821,0,4,0,0,1,1,0,1,2,2,0,2,4998,2,14834,
scooby_state_402dc3|23|-3 9456,0,2,1,2,2,3,1,3,0,1,1,1,5351,2,14826,
scooby_state_402dfb|10|-1 1,2,4,2,3,3,1,2,1,3,4,6959,7808,3,0,14796,
scooby_state_402dfb|44|-2 1,1,0,2,3,5,3,3,3,1,0,11396,3340,0,2,14760,
scooby_state_402dc3|41|-3 9261,3,1,3,1,3,3,1,0,0,1,5,0,5475,1,14758,
scooby_state_402dfb|56|-1 4,1,1,3,2,3,1,3,1,2,1,6035,8649,1,3,14710,
scooby_state_402dfb|54|-1 2,4,2,3,4,2,2,3,5,1,4,6152,8509,3,2,14698,
scooby_state_402dc3|3|-3 8850,2,1,1,1,3,2,3,1,5,2,1,2,5816,1,14691,
scooby_state_402dfb|7|-2 1,4,1,3,2,4,4,3,5,2,0,10971,3666,1,1,14668,
scooby_state_402dfb|25|-2 1,3,1,1,2,2,0,2,2,3,1,10593,4024,0,5,14640,
scooby_state_402dc3|37|-3 9455,1,3,3,3,2,4,2,1,0,4,2,4,5148,2,14634,
scooby_state_402dc3|8|-3 9126,3,3,1,1,3,4,4,2,1,1,1,0,5480,1,14631,
scooby_state_402dc3|32|-3 8929,0,1,1,2,0,1,2,2,3,1,1,4,5683,0,14630,
scooby_state_402dc3|6|-3 9018,0,3,1,3,3,0,2,0,2,3,2,2,5570,5,14614,
scooby_state_402dfb|18|-2 5,1,2,2,1,3,5,2,4,0,3,10833,3686,2,2,14551,
scooby_state_402dfb|35|-2 3,3,3,3,3,3,2,1,3,2,0,10998,3518,3,1,14546,
scooby_state_402dfb|53|-2 1,7,4,2,1,4,0,3,3,1,3,10876,3633,2,1,14541,
scooby_state_402dfb|9|-1 1,5,2,3,3,3,0,3,3,0,5,6823,7665,2,3,14521,
scooby_state_402dc3|35|-3 9303,0,1,4,1,2,4,2,2,1,2,1,3,5122,4,14452,
scooby_state_402dfb|26|-2 3,5,2,1,3,3,1,1,3,1,2,10917,3476,3,2,14423,
scooby_state_402dfb|58|-1 1,1,3,2,5,1,2,2,2,0,0,6449,7931,1,2,14402,
scooby_state_402dfb|45|-2 2,1,1,2,1,4,4,3,1,1,1,11086,3220,0,2,14329,
scooby_state_402dc3|1|-3 9178,4,0,0,3,2,2,2,2,1,0,0,1,5124,1,14320,
scooby_state_402dc3|40|-3 8701,0,0,2,1,2,2,4,3,2,0,1,0,5567,3,14288,
scooby_state_402dfb|55|-1 2,2,2,4,3,2,3,2,3,3,2,5712,8545,1,2,14288,
scooby_state_402dc3|16|-3 9501,2,1,1,2,3,2,2,1,2,1,2,3,4756,3,14282,
scooby_state_402dfb|17|-2 5,3,3,1,2,4,1,1,4,1,3,11194,3040,1,0,14263,
scooby_state_402dfb|27|-2 2,3,4,4,1,1,4,2,1,1,1,10629,3600,0,2,14255,
scooby_state_402dfb|33|-1 3,2,7,3,1,1,1,2,2,1,0,6606,7611,0,1,14241,
scooby_state_402dc3|17|-3 8960,1,0,4,1,1,5,2,0,1,1,0,1,5254,1,14232,
scooby_state_402dc3|45|-3 8989,1,1,2,3,1,0,6,1,0,2,3,0,5173,3,14185,
scooby_state_402dfb|0|-2 4,0,4,5,4,2,3,1,4,1,2,10515,3552,1,1,14099,
scooby_state_402dfb|58|-2 1,2,1,4,2,3,1,3,0,2,3,9840,4207,1,3,14073,
scooby_state_402dc3|39|-3 9288,2,1,3,2,3,0,1,3,1,1,2,1,4744,1,14053,
scooby_state_402dfb|9|-2 3,2,1,3,8,3,1,0,4,1,3,10552,3461,1,1,14044,
scooby_state_402dfb|8|-2 2,0,1,1,2,4,1,3,1,0,2,10930,3059,1,4,14011,
scooby_state_402dc3|14|-3 9072,1,3,1,0,3,3,0,3,1,4,0,0,4896,1,13988,
scooby_state_402dc3|47|-4 8965,0,2,5,1,0,1,1,4,2,2,3,1,4970,1,13958,
scooby_state_402dfb|57|-1 2,2,2,2,2,3,1,5,2,1,0,5751,8155,0,1,13929,
scooby_state_402dc3|0|-3 8232,2,1,2,2,0,3,1,0,1,0,0,1,5630,1,13876,
scooby_state_402dc3|36|-4 8728,2,2,1,2,3,4,0,5,2,1,4,3,5099,3,13859,
scooby_state_402dc3|47|-3 8601,4,1,2,3,0,1,1,0,0,4,2,3,5219,1,13842,
scooby_state_402dc3|4|-3 8113,2,1,2,1,4,1,3,1,3,3,2,2,5639,0,13777,
scooby_state_402dc3|7|-3 8303,1,0,7,1,0,4,2,3,0,1,0,1,5391,1,13715,
scooby_state_402dc3|27|-3 8158,0,0,2,0,0,0,0,1,2,1,0,1,5536,3,13704,
scooby_state_402dc3|10|-3 9086,4,1,1,1,0,2,3,0,1,0,2,2,4600,1,13704,
scooby_state_402dfb|57|-2 3,3,2,1,3,1,4,2,1,1,2,9501,4129,0,0,13653,
scooby_state_402dc3|28|-3 8305,0,1,2,0,2,2,0,5,1,2,2,3,5320,2,13647,
scooby_state_402dc3|32|-4 8677,1,3,5,1,1,0,6,3,1,4,6,3,4916,3,13630,
scooby_state_402dc3|18|-4 8935,2,2,2,2,3,1,1,2,0,2,1,3,4611,5,13572,
scooby_state_402dc3|18|-3 8377,3,2,1,0,1,3,1,1,1,2,0,1,5174,2,13569,
scooby_state_402dc3|23|-4 8408,2,3,2,0,1,4,0,0,3,2,2,0,5021,4,13452,
scooby_state_402dc3|44|-3 8543,0,4,4,1,1,1,3,0,1,3,3,3,4865,3,13435,
scooby_state_402dc3|36|-3 8708,3,1,2,1,0,3,5,1,3,3,0,0,4664,2,13396,
scooby_state_402dc3|34|-4 8444,2,1,1,2,1,0,1,3,4,0,0,3,4907,0,13369,
scooby_state_402dfb|36|-2 1,2,3,3,2,2,0,3,2,3,2,10384,2954,2,2,13365,
scooby_state_402dc3|28|-4 8174,2,1,1,0,2,1,1,2,2,0,0,0,5156,1,13343,
scooby_state_402dc3|46|-4 8326,2,4,2,2,6,1,0,1,1,1,1,0,4869,3,13219,
scooby_state_402dc3|13|-3 8848,2,2,0,2,0,3,2,2,1,0,2,1,4346,2,13213,
scooby_state_402dc3|15|-4 8606,1,0,3,0,1,1,1,1,0,0,1,3,4579,2,13199,
scooby_state_402dc3|31|-3 7972,3,2,2,3,2,0,1,1,0,4,2,3,5179,0,13174,
scooby_state_402dc7|63|0 3,3,5,0,2,1,1,1,1,1,2,1828,11278,2,1,13129,
scooby_state_402dc3|31|-4 8249,3,1,2,1,1,1,3,2,3,0,2,1,4841,3,13113,
scooby_state_402dc3|38|-3 8788,3,3,0,3,4,1,1,2,2,1,1,1,4279,1,13090,
scooby_state_402dc3|19|-3 8165,1,2,3,4,1,2,1,1,0,2,1,3,4899,3,13088,
scooby_state_402dfb|55|-2 2,2,5,1,1,2,3,2,1,3,2,9468,3571,1,1,13065,
scooby_state_402dc3|34|-3 8231,2,3,3,2,0,1,2,1,1,3,2,2,4794,1,13048,
scooby_state_402dc3|43|-4 8239,1,0,2,1,2,1,3,2,1,3,0,0,4788,0,13043,
scooby_state_402dc3|19|-4 8476,0,1,1,0,0,1,4,4,2,0,0,0,4503,1,12993,
scooby_state_402dc3|30|-4 8183,1,1,4,0,1,5,1,1,0,2,2,1,4740,2,12944,
scooby_state_402dc3|45|-4 7956,3,2,0,1,2,1,0,2,3,1,2,1,4875,2,12851,
scooby_state_402dc3|42|-4 7962,0,2,2,0,1,2,0,1,2,2,2,1,4855,1,12833,
scooby_state_402dc3|48|-4 8124,0,6,0,3,3,0,0,2,4,0,2,1,4657,2,12804,
scooby_state_402dc3|40|-4 8185,0,0,0,3,2,0,2,0,2,0,1,1,4595,2,12793,
scooby_state_402dfb|54|-2 1,3,2,3,4,5,2,3,4,1,1,9666,3046,0,2,12743,
scooby_state_402dc3|20|-3 8208,0,0,2,4,0,0,1,0,3,1,1,0,4496,0,12716,
scooby_state_402dc3|11|-3 8998,1,0,1,4,2,0,2,2,5,1,3,0,3611,2,12632,
scooby_state_402dcb|6|4 6,2,1,3,1,5,0,3,1,2,3,24,5408,2,7082,12543,
scooby_state_402dc3|24|-4 7712,0,2,7,2,4,1,2,3,2,1,0,2,4733,0,12471,
scooby_state_402dc3|41|-4 7802,1,2,1,1,0,0,2,2,2,1,2,2,4651,1,12470,
scooby_state_402dc3|16|-4 8029,1,4,3,2,1,1,3,0,2,2,2,3,4367,1,12421,
scooby_state_402dc3|0|-4 8413,1,2,1,1,0,0,0,1,3,0,0,2,3981,0,12405,
scooby_state_402dc3|35|-4 7731,0,2,1,2,2,1,0,1,2,2,1,1,4563,0,12309,
scooby_state_402dc3|44|-4 7915,0,3,1,2,3,0,2,1,0,5,0,1,4362,2,12297,
scooby_state_402dc3|20|-4 7773,3,1,4,0,2,0,0,0,2,1,1,3,4495,0,12285,
scooby_state_402dc3|11|-4 8003,0,1,1,0,2,6,2,1,2,1,1,0,4255,5,12280,
scooby_state_402dc3|26|-4 7601,1,4,0,0,1,2,0,0,1,2,0,2,4643,2,12259,
scooby_state_402dc3|29|-4 7784,0,2,3,4,2,3,1,2,1,2,3,2,4398,1,12208,
scooby_state_402dc3|21|-4 7614,2,1,0,4,2,3,1,2,1,2,1,1,4530,1,12165,
scooby_state_402dc3|25|-4 7601,1,1,1,2,3,1,0,1,2,1,3,1,4544,0,12162,
scooby_state_402dc3|2|-4 8725,2,4,1,3,2,1,4,0,1,2,0,1,3401,2,12149,
scooby_state_402dc3|13|-4 7845,2,2,1,2,1,1,1,1,2,2,2,2,4279,1,12144,
scooby_state_402dc3|15|-3 8101,3,0,1,3,0,1,1,0,2,0,3,2,3954,3,12074,
scooby_state_402dc3|4|-4 8121,1,2,2,0,0,2,1,3,2,2,1,4,3841,1,11983,
scooby_state_402dc3|1|-4 8407,0,3,0,1,0,2,2,2,1,0,3,1,3555,3,11980,
scooby_state_402dc3|39|-4 7500,1,0,2,4,1,4,2,0,1,1,4,2,4401,5,11928,
scooby_state_402dc3|14|-4 8005,1,0,1,2,2,2,2,1,2,5,2,0,3875,1,11901,
scooby_state_402dc3|5|-4 8473,1,6,0,2,2,1,0,1,0,3,2,2,3381,1,11875,
scooby_state_402dc3|22|-4 7651,1,1,2,4,2,1,1,2,0,0,2,2,4040,5,11714,
scooby_state_402dc3|12|-3 7963,0,1,1,0,1,3,2,1,2,1,0,0,3626,2,11603,
scooby_state_402dc3|37|-4 7978,2,1,1,2,1,0,3,3,1,0,1,1,3589,3,11586,
scooby_state_402dc3|38|-4 7725,1,0,5,1,3,1,1,2,0,0,1,2,3843,1,11586,
scooby_state_402dc3|7|-4 8046,0,0,1,0,1,1,7,0,1,2,1,0,3421,0,11481,
scooby_state_402dc3|17|-4 7706,2,2,1,1,2,0,3,1,2,1,3,1,3750,1,11476,
scooby_state_402dc3|3|-4 7939,2,2,1,1,0,2,1,2,0,1,2,2,3423,0,11378,
scooby_state_402dc3|27|-4 6975,2,1,1,1,2,1,2,4,0,0,3,2,4302,0,11296,
scooby_state_402dc3|12|-4 7958,2,2,0,1,1,1,3,2,1,1,4,0,3303,0,11279,
scooby_state_402dc3|8|-4 7881,0,3,3,3,4,3,2,3,2,0,0,2,3238,1,11145,
scooby_state_402dc3|9|-4 7903,2,1,2,1,1,0,1,1,0,2,0,0,3198,2,11114,
scooby_state_402dc3|33|-4 7495,2,1,1,2,3,4,1,2,2,0,0,2,3544,1,11060,
scooby_state_402dcb|1|-3 1,7,1,3,1,0,0,1,2,2,1,277,6782,1,3893,10972,
scooby_state_402dcb|3|1 1,0,8,6,3,1,1,3,3,3,1,2,5176,0,5483,10691,
scooby_state_402dc3|10|-4 7642,0,2,1,1,1,2,2,1,2,1,3,1,2896,2,10557,
scooby_state_402dcb|2|1 1,4,2,0,7,1,1,2,3,4,0,1,5382,0,5112,10520,
scooby_state_402dcb|3|-3 2,9,1,2,2,2,1,1,0,4,5,223,6818,1,3308,10379,
scooby_state_402dc3|6|-4 7177,3,0,1,1,1,0,1,1,1,1,1,1,2997,1,10187,
scooby_state_402dcb|5|4 0,2,1,2,0,2,1,5,0,0,2,10,4407,0,5598,10030,
scooby_state_402dcb|1|1 1,2,10,1,2,2,1,3,0,0,3,0,5062,3,4688,9778,
scooby_state_402dcb|4|-3 1,6,1,2,1,0,2,0,4,2,0,327,5895,2,3237,9480,
scooby_state_402dcb|2|-3 0,5,2,1,4,0,5,1,0,0,0,22,6312,1,2873,9226,
scooby_state_402dcb|61|11 3,2,2,0,4,1,2,0,1,1,1,1,5385,3,3810,9216,
scooby_state_402dcb|4|4 2,0,0,4,1,3,0,2,3,2,2,11,5097,1,3773,8901,
scooby_state_402dcb|0|-7 12,1,8,1,3,1,2,2,4,2,1,2,5091,638,2903,8671,
scooby_state_402dcb|63|11 3,0,1,0,1,1,2,0,0,1,0,1,4288,0,3694,7992,
scooby_state_402dcb|7|4 0,0,0,1,2,1,1,2,1,3,3,29,3612,1,4283,7939,
scooby_state_402dcb|60|11 4,0,0,1,0,0,1,2,1,1,3,1,4615,0,3224,7853,
scooby_state_402dcb|7|-3 1,7,2,0,3,2,0,0,0,3,1,213,5576,1,1895,7704,
scooby_state_402dcb|8|-3 0,4,1,1,1,0,0,2,1,2,0,69,4947,0,2262,7290,
scooby_state_402dcb|57|11 3,2,0,1,2,0,1,1,1,0,0,1,4427,1,2732,7172,
scooby_state_402dcb|34|11 1,0,0,0,1,1,2,1,0,0,2,0,4007,1,3066,7082,
scooby_state_402dcb|50|11 4,1,0,0,2,1,0,1,2,0,1,2,4193,1,2757,6965,
scooby_state_402dcb|10|-3 0,7,0,2,1,2,0,3,0,1,1,49,5084,0,1802,6952,
scooby_state_402dcb|13|4 0,0,0,1,1,5,0,1,2,0,2,6,2495,0,4307,6820,
scooby_state_402dcb|62|11 2,0,2,0,1,0,3,0,1,1,1,0,3864,0,2938,6813,
scooby_state_402dcb|59|11 1,2,2,0,1,1,0,1,2,0,1,1,3652,2,3075,6741,
scooby_state_402dcb|6|-3 1,4,0,0,1,2,2,1,4,2,1,27,5801,0,837,6683,
scooby_state_402dc7|57|-1 3,0,2,1,0,1,0,0,1,1,1,1172,5392,1,0,6575,
scooby_state_402dc7|0|-1 1,1,0,1,2,1,0,1,0,1,0,1171,5385,1,1,6566,
scooby_state_402dcb|60|-3 3,5,1,2,0,3,2,1,0,1,2,67,4076,1,2393,6557,
scooby_state_402dcb|48|11 1,1,1,0,1,2,1,0,0,0,1,0,3767,3,2769,6547,
scooby_state_402dcb|53|11 1,0,1,2,1,0,2,1,1,1,0,0,3880,1,2624,6515,
scooby_state_402dc7|47|-1 0,2,1,1,0,1,1,2,0,2,2,1213,5277,3,0,6505,
scooby_state_402dc7|55|-1 0,3,0,0,1,0,2,2,0,1,1,1280,5206,2,0,6498,
scooby_state_402dcb|32|11 1,0,0,0,0,0,1,2,0,2,0,0,3995,1,2483,6485,
scooby_state_402dc7|54|-2 2,0,0,2,3,1,1,0,0,1,0,677,5765,0,0,6452,
scooby_state_402dcb|5|-3 1,2,1,1,1,1,1,2,0,0,0,49,5621,1,763,6444,
scooby_state_402dcb|29|11 0,3,0,2,2,0,1,1,0,4,0,0,3967,0,2442,6422,
scooby_state_402dcb|30|-3 1,6,2,2,3,0,0,0,1,1,2,98,4087,0,2211,6414,
scooby_state_402dcb|59|-3 1,8,0,0,0,0,2,1,1,2,1,44,4198,0,2143,6401,
scooby_state_402dc7|28|-1 2,0,1,0,2,1,1,0,0,1,1,1158,5208,0,0,6375,
scooby_state_402dc7|1|-1 1,0,2,1,2,2,1,0,2,0,0,1079,5260,0,1,6351,
scooby_state_402dcb|54|11 5,1,1,0,0,2,1,1,0,0,0,0,3638,1,2689,6339,
scooby_state_402dcb|53|-3 1,3,1,1,1,2,2,0,0,1,0,20,3855,3,2438,6328,
scooby_state_402dcb|56|11 3,1,0,1,0,0,0,1,0,2,1,0,3693,2,2621,6325,
scooby_state_402dcb|51|-3 2,2,1,3,1,1,0,0,1,2,1,231,3714,0,2333,6292,
scooby_state_402dcb|47|-3 1,4,1,2,2,4,1,2,0,1,1,73,4003,1,2189,6285,
scooby_state_402dcb|33|11 1,1,0,0,0,0,2,1,1,0,1,1,3783,1,2478,6270,
scooby_state_402dcb|52|-3 2,3,2,0,1,0,0,2,0,0,1,43,3993,2,2200,6249,
scooby_state_402dc7|45|-1 1,0,1,2,0,0,1,0,1,1,0,1137,5093,1,1,6239,
scooby_state_402dcb|12|11 3,1,0,0,1,0,1,1,0,1,2,0,5242,0,947,6199,
scooby_state_402dcb|20|4 0,1,0,0,4,2,0,0,1,0,5,5,2489,0,3676,6183,
scooby_state_402dc7|30|-1 1,1,1,2,1,0,1,0,3,1,1,1144,4965,1,0,6122,
scooby_state_402dc7|12|-1 3,2,2,0,2,0,1,0,2,0,1,1220,4824,0,0,6057,
scooby_state_402dcb|50|-3 1,6,0,0,1,3,1,0,1,0,1,36,3667,0,2322,6039,
scooby_state_402dc7|39|-1 0,0,1,2,1,3,0,1,1,0,2,1098,4922,1,0,6032,
scooby_state_402dc7|49|-1 0,1,0,2,0,2,3,1,0,1,1,1186,4823,1,0,6021,
scooby_state_402dcb|54|-3 0,1,3,0,4,0,0,0,0,1,0,110,3679,0,2196,5994,
scooby_state_402dc7|10|-1 1,2,0,2,2,0,0,2,1,2,0,1160,4812,3,1,5988,
scooby_state_402dcb|41|11 3,1,1,0,1,1,2,0,0,1,1,0,3909,2,2060,5982,
scooby_state_402dcb|11|11 1,1,0,3,0,1,0,0,1,1,1,1,4965,1,995,5971,
scooby_state_402dc7|62|-1 5,1,0,1,0,0,2,0,3,0,1,1112,4833,0,2,5960,
scooby_state_402dcb|9|-3 3,3,1,0,0,1,3,0,1,0,0,9,4423,3,1509,5956,
scooby_state_402dc7|56|-1 2,0,2,2,3,1,0,5,0,2,1,1112,4816,0,0,5946,
scooby_state_402dcb|28|11 1,1,0,0,0,0,1,1,0,0,2,1,3575,1,2349,5932,
scooby_state_402dcb|57|-3 1,4,1,1,4,2,2,1,0,0,2,57,3077,1,2778,5931,
scooby_state_402dcb|26|11 0,0,2,0,1,0,1,1,0,1,0,0,3795,3,2072,5876,
scooby_state_402dc7|60|-1 2,1,0,2,0,0,0,2,1,1,4,1106,4741,0,0,5860,
scooby_state_402dc7|58|-1 2,0,2,1,2,0,0,1,2,1,0,1189,4650,1,1,5852,
scooby_state_402dc7|7|-1 0,2,3,1,1,1,0,1,1,1,1,1275,4551,2,0,5840,
scooby_state_402dcb|52|11 2,1,0,0,0,0,1,1,1,0,0,0,3156,1,2671,5834,
scooby_state_402dcb|9|8 0,2,3,1,0,0,1,1,1,3,2,0,3955,0,1851,5820,
scooby_state_402dc7|48|-1 1,1,1,2,1,0,1,2,1,0,0,1076,4713,0,0,5799,
scooby_state_402dc7|59|-1 0,2,2,1,0,0,1,2,1,1,0,1192,4597,0,0,5799,
scooby_state_402dcb|58|-3 0,3,1,3,1,0,0,1,3,1,0,171,3703,0,1897,5784,
scooby_state_402dcb|58|11 0,0,1,1,0,3,1,0,0,0,1,1,3377,3,2383,5771,
scooby_state_402dc7|29|-1 0,1,0,1,2,1,1,1,1,0,2,1055,4682,2,2,5751,
scooby_state_402dc7|61|-1 1,1,1,1,1,1,1,2,1,1,1,1116,4589,0,0,5717,
scooby_state_402dcb|3|-7 2,1,4,0,0,0,1,0,0,1,1,1,4010,262,1400,5683,
scooby_state_402dc7|54|-1 0,2,0,0,1,0,0,0,2,0,2,1213,4460,0,0,5680,
scooby_state_402dcb|2|-7 2,0,0,2,1,0,0,1,0,1,0,0,3978,272,1422,5679,
scooby_state_402dcb|10|4 0,2,1,0,3,0,0,1,1,0,6,0,2099,2,3559,5674,
scooby_state_402dcb|55|11 1,1,0,0,1,0,1,0,1,1,2,0,3278,0,2383,5669,
scooby_state_402dc7|46|-1 1,0,1,1,0,1,0,1,2,0,3,1128,4498,4,1,5641,
scooby_state_402dcb|36|-3 2,2,0,1,0,0,1,0,0,0,0,10,3651,0,1965,5632,
scooby_state_402dcb|49|-3 0,5,0,0,2,1,3,0,2,0,0,14,3572,1,2031,5631,
scooby_state_402dcb|46|-3 2,2,1,2,1,1,3,1,0,1,2,6,3723,2,1876,5623,
scooby_state_402dc7|8|-2 0,0,0,1,0,1,0,0,0,1,1,586,5020,1,0,5611,
scooby_state_402dc7|9|-1 0,1,1,1,0,1,0,3,0,3,2,1125,4468,4,0,5609,
scooby_state_402dc7|38|-1 2,2,0,0,0,1,0,1,2,0,1,1153,4441,1,1,5605,
scooby_state_402dcb|40|11 2,0,0,1,0,0,1,0,1,0,1,1,3432,0,2146,5585,
scooby_state_402dc7|58|-2 2,0,1,1,0,0,0,0,2,0,0,562,5015,0,0,5583,
scooby_state_402dcb|18|4 1,0,1,2,0,0,2,1,3,0,2,8,2559,4,2999,5582,
scooby_state_402dc7|21|-1 1,2,1,1,1,0,2,2,0,0,1,1132,4405,0,2,5550,
scooby_state_402dc7|18|-2 0,0,2,0,2,0,2,0,2,1,0,654,4879,1,1,5544,
scooby_state_402dc7|20|-1 1,1,2,0,1,1,0,0,1,0,2,1081,4453,1,0,5544,
scooby_state_402dcb|13|11 4,1,0,1,1,0,0,1,0,0,0,1,5151,1,370,5531,
scooby_state_402dcb|27|11 3,1,0,0,1,1,0,0,1,1,1,1,3594,2,1918,5524,
scooby_state_402dcb|56|-3 1,6,1,0,1,0,1,0,2,0,0,8,3351,2,2133,5506,
scooby_state_402dcb|17|-3 1,4,0,0,3,0,3,0,0,1,0,155,3797,0,1539,5503,
scooby_state_402dc7|62|0 0,2,1,1,2,0,1,0,1,1,0,441,5044,0,0,5494,
scooby_state_402dcb|43|11 1,0,0,1,1,0,1,0,0,0,1,0,3825,1,1658,5489,
scooby_state_402dc3|6|-8 5469,0,2,0,1,1,1,0,1,0,1,3,0,0,3,5482,
scooby_state_402dc7|36|-1 2,1,0,0,0,1,1,0,1,0,0,1108,4349,1,0,5464,
scooby_state_402dcb|37|-3 2,2,0,1,3,0,2,0,0,1,1,74,3546,0,1826,5458,
scooby_state_402dcb|63|1 1,1,0,0,2,1,1,0,1,1,2,2,3516,3,1918,5449,
scooby_state_402dcb|25|-3 2,1,1,0,0,0,2,2,1,2,1,67,3434,0,1927,5440,
scooby_state_402dcb|1|-7 3,2,5,0,0,2,1,1,1,0,0,1,3748,262,1407,5433,
scooby_state_402dc7|14|-1 1,0,0,1,3,1,1,0,1,0,0,1149,4269,0,3,5429,
scooby_state_402dcb|39|11 1,1,2,1,1,0,2,0,2,0,0,0,3352,0,2065,5427,
scooby_state_402dc7|17|-1 0,3,0,1,2,0,0,3,1,1,0,1168,4188,1,0,5368,
scooby_state_402dcb|25|11 0,0,0,2,0,0,0,1,1,0,0,0,3721,0,1638,5363,
scooby_state_402dcb|19|4 2,2,1,0,0,1,6,0,0,2,1,2,2845,3,2494,5359,
scooby_state_402dcb|44|-3 0,6,0,1,2,1,1,1,0,2,0,136,3468,1,1738,5357,
scooby_state_402dc7|0|-2 1,2,1,0,0,1,1,0,0,0,1,688,4662,0,0,5357,
scooby_state_402dcb|33|-3 0,2,1,0,0,0,0,1,1,2,0,32,3411,0,1858,5308,
scooby_state_402dc7|40|-1 0,0,0,0,0,1,0,0,2,1,1,1069,4223,0,1,5298,
scooby_state_402dc7|60|-2 1,1,1,0,0,0,1,1,1,0,0,566,4723,1,1,5297,
scooby_state_402dc7|26|-1 0,0,0,0,0,1,0,1,3,1,0,1137,4136,0,1,5280,
scooby_state_402dc3|5|-8 5260,3,0,1,1,0,1,0,0,1,0,1,2,0,0,5270,
scooby_state_402dc7|15|-1 0,0,2,1,1,0,1,0,0,1,1,1168,4090,0,0,5265,
scooby_state_402dcb|43|-3 3,3,0,0,0,4,0,1,1,2,1,25,3491,1,1733,5265,
scooby_state_402dc7|37|-1 2,0,0,1,1,0,1,1,0,0,1,1123,4123,1,0,5254,
scooby_state_402dc7|19|-1 0,1,1,2,0,0,0,0,3,1,1,1097,4145,1,1,5253,
scooby_state_402dcb|46|11 0,1,0,0,2,0,0,0,1,1,1,0,3520,0,1726,5252,
scooby_state_402dcb|45|-3 1,2,5,2,0,0,1,0,2,0,0,98,3390,1,1747,5249,
scooby_state_402dcb|35|11 0,0,0,0,0,1,0,0,1,0,0,1,3291,1,1947,5242,
scooby_state_402dcb|14|4 0,1,0,1,1,1,2,0,1,3,0,2,2213,2,3014,5241,
scooby_state_402dc7|27|-1 0,0,0,1,2,3,2,1,0,0,2,1054,4164,1,1,5231,
scooby_state_402dc7|23|-1 0,1,2,1,2,2,1,0,1,0,0,1172,4047,0,0,5229,
scooby_state_402dc7|57|-2 2,0,0,0,1,1,1,0,0,0,1,645,4570,1,0,5222,
scooby_state_402dcb|37|11 3,7,0,0,2,0,0,0,0,0,1,1,3033,1,2172,5220,
scooby_state_402dc7|5|-1 3,0,0,1,0,1,1,4,0,3,0,1126,4077,0,0,5216,
scooby_state_402dcb|49|11 1,0,1,0,0,1,2,1,1,1,1,2,3377,0,1821,5209,
scooby_state_402dc7|53|-1 1,0,0,1,1,2,0,0,1,0,1,1138,4062,0,0,5207,
scooby_state_402dcb|36|11 3,0,0,1,1,1,2,1,0,0,0,0,3118,0,2074,5201,
scooby_state_402dcb|31|11 2,0,0,1,0,1,3,0,0,0,0,0,3036,0,2155,5198,
scooby_state_402dc7|4|-1 1,0,3,2,5,1,0,1,2,2,0,1110,4067,0,0,5194,
scooby_state_402dcb|26|-3 2,3,1,0,0,1,0,0,2,1,1,10,3540,2,1616,5179,
scooby_state_402dcb|31|-3 1,1,1,1,0,1,0,0,1,1,0,79,3628,0,1454,5168,
scooby_state_402dc7|11|-1 1,0,0,0,0,0,0,0,1,1,0,1092,4066,1,1,5163,
scooby_state_402dc7|50|-1 1,0,1,0,0,0,1,0,2,0,1,1112,4038,1,0,5157,
scooby_state_402dcb|42|11 0,0,0,0,0,0,0,4,0,0,2,1,3589,1,1554,5151,
scooby_state_402dc7|31|-1 1,2,0,2,0,0,1,4,0,2,0,1121,4018,0,0,5151,
scooby_state_402dcb|38|-3 0,1,3,1,0,1,0,1,1,0,3,55,3412,0,1672,5150,
scooby_state_402dcb|45|11 2,0,0,0,3,0,0,2,2,0,0,0,3297,1,1842,5149,
scooby_state_402dc7|44|-1 1,0,0,2,1,0,0,0,0,2,1,1149,3987,0,1,5144,
scooby_state_402dc7|41|-1 0,1,1,0,2,1,0,0,1,1,1,1062,4064,2,1,5137,
scooby_state_402dcb|62|1 0,0,2,3,2,0,1,0,0,0,1,0,3330,0,1795,5134,
scooby_state_402dc3|2|-8 5126,1,1,0,0,0,0,0,1,0,1,0,1,0,2,5133,
scooby_state_402dcb|11|-3 0,3,0,2,0,0,0,0,1,0,1,71,3425,0,1623,5126,
scooby_state_402dc7|36|-2 1,1,1,1,0,1,0,0,0,1,1,493,4616,1,0,5117,
scooby_state_402dc7|33|-1 0,1,2,0,1,0,3,1,1,0,0,1145,3959,1,0,5114,
scooby_state_402dc7|51|-1 1,0,1,1,1,3,1,1,2,0,1,1166,3912,1,0,5091,
scooby_state_402dc7|22|-1 0,1,0,0,1,1,1,2,2,1,1,1151,3929,0,0,5090,
scooby_state_402dcb|12|4 0,3,0,1,0,2,1,0,0,0,1,2,2221,2,2836,5069,
scooby_state_402dcb|21|4 0,1,2,3,1,1,2,0,3,4,0,3,2198,1,2817,5036,
scooby_state_402dcb|15|-3 1,5,1,0,0,0,0,2,0,0,1,52,3532,3,1428,5025,
scooby_state_402dc7|9|-2 1,0,0,0,1,1,1,0,0,0,2,593,4418,2,1,5020,
scooby_state_402dc7|52|-1 2,0,0,0,1,2,0,0,0,2,1,1118,3886,4,0,5016,
scooby_state_402dcb|14|-3 0,1,2,2,3,1,1,0,0,1,1,184,3188,0,1623,5007,
scooby_state_402dcb|61|1 0,0,0,1,0,1,1,2,0,2,0,1,3157,1,1835,5001,
scooby_state_402dc7|13|-1 0,0,1,2,1,1,0,1,0,3,1,1121,3860,0,0,4991,
scooby_state_402dcb|35|4 0,2,1,0,0,2,1,2,2,0,1,7,3556,0,1407,4981,
scooby_state_402dc7|26|-2 1,2,0,2,0,0,1,0,0,0,0,435,4535,0,1,4977,
scooby_state_402dc7|2|-1 1,0,2,0,1,1,0,1,0,1,2,1019,3930,0,0,4958,
scooby_state_402dcb|16|4 4,1,1,2,1,4,3,0,0,1,2,3,2449,0,2486,4957,
scooby_state_402dcb|8|8 1,2,1,0,3,1,3,1,1,2,1,1,3071,0,1855,4943,
scooby_state_402dcb|17|4 0,0,0,2,2,0,0,1,0,2,3,3,2121,0,2781,4915,
scooby_state_402dcb|38|11 0,0,0,0,0,1,2,0,0,1,0,1,2919,0,1988,4912,
scooby_state_402dcb|29|-3 0,5,1,0,0,0,3,0,0,0,0,8,3065,2,1811,4895,
scooby_state_402dc3|12|-11 2942,1,0,0,0,1,0,1,0,1,2,1,0,1939,2,4890,
scooby_state_402dc3|20|-11 3096,0,0,0,1,0,1,4,1,0,1,1,1,1783,1,4890,
scooby_state_402dcb|16|11 1,0,1,0,0,1,2,0,0,0,0,1,3666,3,1214,4889,
scooby_state_402dcb|14|11 1,0,0,0,0,0,2,2,0,0,1,1,4409,2,467,4885,
scooby_state_402dc7|35|-2 1,0,0,0,1,4,2,1,0,0,1,488,4375,0,2,4875,
scooby_state_402dc7|42|-1 1,1,1,0,1,0,0,1,0,1,2,1057,3800,0,0,4865,
scooby_state_402dcb|10|8 1,0,0,2,0,0,1,2,1,3,0,0,3855,2,993,4860,
scooby_state_402dc3|12|-8 4841,1,3,0,0,1,1,2,0,2,0,2,0,0,2,4855,
scooby_state_402dcb|28|-3 2,4,1,1,1,0,1,2,2,0,0,54,3011,2,1771,4852,
scooby_state_402dc7|24|-1 2,0,0,0,0,1,1,0,1,2,0,1095,3743,0,2,4847,
scooby_state_402dc7|25|-1 1,0,0,2,1,2,2,0,0,0,0,1236,3599,0,0,4843,
scooby_state_402dcb|32|-3 0,4,1,2,2,2,1,2,1,0,0,37,3100,0,1689,4841,
scooby_state_402dcb|35|-3 0,2,2,2,0,1,1,1,0,0,0,81,2830,0,1918,4838,
scooby_state_402dcb|24|11 1,0,0,0,2,1,0,0,2,2,0,0,3338,0,1486,4832,
scooby_state_402dc7|3|-1 1,1,0,1,1,1,0,0,0,0,1,1106,3719,0,1,4832,
scooby_state_402dc7|17|-2 2,1,0,2,0,0,0,0,1,0,1,381,4436,1,5,4830,
scooby_state_402dcb|22|-3 1,5,0,0,0,1,2,3,0,1,0,10,3447,1,1338,4809,
scooby_state_402dcb|7|7 0,2,1,1,0,0,1,0,1,2,0,1,2603,1,2194,4807,
scooby_state_402dc7|55|-2 3,1,1,0,0,0,0,1,0,0,0,630,4155,3,1,4795,
scooby_state_402dc7|45|-2 0,1,0,1,2,0,0,1,2,0,1,428,4353,0,1,4790,
scooby_state_402dc7|18|-1 1,1,0,2,0,0,1,0,0,1,0,1122,3648,0,1,4777,
scooby_state_402dc7|2|-2 1,2,0,1,2,1,1,0,0,0,1,668,4097,1,0,4775,
scooby_state_402dc7|49|-2 0,2,1,0,0,0,3,0,1,0,0,639,4114,1,1,4762,
scooby_state_402dcb|39|-3 0,6,0,0,1,1,1,1,1,0,1,10,3130,1,1606,4759,
scooby_state_402dc3|46|-14 2907,0,1,2,0,1,1,0,0,1,1,0,2,1838,0,4754,
scooby_state_402dcb|23|-3 2,3,0,1,0,1,1,1,4,2,3,43,3337,2,1346,4746,
scooby_state_402dc7|44|-2 0,1,0,1,0,0,0,0,0,1,0,451,4284,1,1,4740,
scooby_state_402dcb|42|-3 0,1,2,1,0,0,1,2,3,1,1,33,2987,0,1707,4739,
scooby_state_402dc7|6|-1 2,2,1,1,0,1,0,0,2,1,2,1162,3555,1,1,4731,
scooby_state_402dc7|8|-1 1,0,3,0,0,1,0,2,1,2,1,955,3745,1,0,4712,
scooby_state_402dc3|4|-8 4694,0,0,1,1,0,1,1,1,2,0,1,1,0,0,4703,
scooby_state_402dc7|51|-2 1,0,0,0,2,1,0,0,1,0,0,623,4069,2,0,4699,
scooby_state_402dc7|27|-2 2,0,1,1,0,1,1,0,0,1,3,499,4178,0,2,4689,
scooby_state_402dcb|18|-3 1,2,1,0,0,0,0,0,0,0,0,71,3171,0,1421,4667,
scooby_state_402dcb|16|-3 0,2,2,0,0,1,0,2,0,0,1,16,3188,0,1450,4662,
scooby_state_402dcb|11|4 0,0,1,1,1,1,0,1,5,1,0,1,2098,0,2530,4640,
scooby_state_402dcb|47|11 2,0,1,1,1,0,4,0,0,0,1,0,2548,0,2071,4629,
scooby_state_402dc7|42|-2 0,0,0,1,0,1,0,0,1,1,0,620,4004,1,0,4629,
scooby_state_402dcb|55|-3 1,0,2,1,0,1,0,0,1,0,0,87,3239,0,1286,4618,
scooby_state_402dc7|16|-2 0,1,2,4,1,1,0,1,0,0,0,592,4011,0,0,4613,
scooby_state_402dcb|44|11 2,0,0,1,0,0,1,0,1,0,0,0,2664,0,1941,4610,
scooby_state_402dc3|27|-8 4586,0,1,1,0,0,1,0,1,0,1,1,0,0,0,4592,
scooby_state_402dc3|8|-8 4582,1,0,0,0,1,1,0,0,0,0,2,1,1,0,4589,
scooby_state_402dcb|0|-4 14,1,10,0,1,0,2,1,0,1,1,1,3463,22,1035,4552,
scooby_state_402dcb|61|4 1,0,4,0,1,0,1,0,0,1,0,17,3349,1,1162,4537,
scooby_state_402dc3|11|-8 4523,0,1,0,0,1,0,1,0,2,0,0,0,0,1,4529,
scooby_state_402dc7|32|-1 1,0,1,1,1,0,1,0,1,0,2,1105,3414,0,1,4528,
scooby_state_402dcb|27|-3 1,5,1,0,3,0,0,0,0,1,1,116,3384,0,1000,4512,
scooby_state_402dc7|53|-2 1,1,0,1,0,1,1,0,1,1,0,639,3854,0,1,4501,
scooby_state_402dc7|59|-2 0,0,0,0,0,0,1,0,2,0,1,552,3944,1,0,4501,
scooby_state_402dc3|31|-11 3214,0,0,0,1,1,1,2,0,0,0,0,0,1265,1,4485,
scooby_state_402dc3|3|-8 4471,1,2,0,0,0,0,1,2,2,0,1,1,0,0,4481,
scooby_state_402dc7|16|-1 0,0,0,1,1,1,0,0,0,1,2,1132,3332,0,0,4470,
scooby_state_402dc7|35|-1 0,3,0,1,0,1,2,1,0,1,0,1126,3332,1,1,4469,
scooby_state_402dcb|9|4 3,2,0,0,1,2,2,1,1,0,0,0,2079,0,2370,4461,
scooby_state_402dc3|9|-8 4450,1,1,1,1,0,1,0,1,1,0,0,1,1,0,4459,
scooby_state_402dcb|62|4 1,0,3,0,1,1,0,0,2,0,0,7,3233,0,1209,4457,
scooby_state_402dc3|33|-11 2699,0,3,0,2,0,3,1,0,2,0,0,0,1729,0,4439,
scooby_state_402dc3|10|-8 4414,1,0,1,0,0,0,0,0,1,1,2,0,1,0,4421,
scooby_state_402dc3|19|-11 2820,0,1,1,1,1,0,0,0,0,0,0,0,1576,0,4400,
scooby_state_402dcb|18|11 0,0,1,0,0,1,2,1,1,0,0,3,4140,2,246,4397,
scooby_state_402dcb|63|4 2,0,0,0,0,3,1,0,0,1,0,3,3331,0,1052,4393,
scooby_state_402dcb|21|11 2,2,3,0,0,0,1,2,2,1,0,1,3990,1,378,4383,
scooby_state_402dcb|10|7 0,2,0,1,1,0,2,1,0,0,1,1,2141,0,2219,4369,
scooby_state_402dcb|30|11 2,0,1,1,1,1,0,0,0,0,0,1,2652,1,1690,4350,
scooby_state_402dc3|0|-8 4312,1,1,0,2,0,2,0,1,0,0,0,0,2,0,4321,
scooby_state_402dc7|61|-2 1,0,0,1,1,0,0,0,1,1,0,493,3822,1,0,4321,
scooby_state_402dcb|21|-3 1,1,0,1,0,0,1,0,0,0,0,111,2891,0,1311,4317,
scooby_state_402dcb|12|-3 0,5,0,1,0,0,1,0,0,1,0,8,3382,1,914,4313,
scooby_state_402dcb|15|11 3,0,0,0,0,0,1,1,0,0,0,0,2794,0,1514,4313,
scooby_state_402dc7|5|-2 2,0,0,0,0,1,1,1,1,0,0,542,3764,1,0,4313,
scooby_state_402dc7|33|-2 2,1,0,0,1,1,0,2,1,0,3,453,3829,1,0,4294,
scooby_state_402dcb|34|-3 0,4,0,0,0,0,0,0,1,2,0,214,3200,1,867,4289,
scooby_state_402dcb|51|4 1,1,0,2,2,4,3,0,0,4,0,13,2861,0,1385,4276,
scooby_state_402dc3|1|-8 4246,1,0,1,0,0,0,0,0,1,1,0,1,2,0,4253,
scooby_state_402dc7|25|-2 0,0,0,2,0,1,1,0,0,0,0,506,3733,1,0,4244,
scooby_state_402dcb|15|4 1,1,1,0,2,0,0,3,0,1,0,3,2378,0,1852,4242,
scooby_state_402dcb|19|-3 1,1,0,0,0,0,1,0,0,0,2,12,3185,0,1002,4204,
scooby_state_402dc3|15|-11 2861,0,1,1,2,1,0,0,2,0,0,0,0,1323,0,4191,
scooby_state_402dcb|24|4 1,1,0,2,0,1,0,0,0,5,1,2,2383,0,1783,4179,
scooby_state_402dc3|27|-11 3036,1,0,1,0,0,0,0,0,0,1,0,2,1128,0,4169,
scooby_state_402dcb|23|4 2,1,0,0,1,2,1,0,1,0,1,5,2195,0,1945,4154,
scooby_state_402dc7|43|-1 2,0,0,1,0,0,0,0,1,1,0,1068,3076,1,1,4151,
scooby_state_402dcb|23|8 1,3,0,1,0,0,0,0,1,3,0,0,1990,1,2149,4149,
scooby_state_402dcb|40|-3 1,3,2,0,3,0,0,0,1,0,1,56,2879,0,1168,4114,
scooby_state_402dc3|11|-11 2121,0,0,1,1,2,0,0,2,0,0,1,0,1977,0,4105,
scooby_state_402dc3|6|-11 2642,0,0,0,0,0,1,1,0,1,2,0,0,1456,1,4104,
scooby_state_402dc7|3|-2 0,0,0,0,0,1,0,1,0,0,1,466,3633,0,1,4103,
scooby_state_402dcb|22|4 1,2,0,1,2,1,0,1,0,0,0,1,1934,2,2148,4093,
scooby_state_402dcb|22|11 1,0,2,1,0,0,0,1,3,0,0,1,3459,0,621,4089,
scooby_state_402dcb|41|-3 0,6,0,1,2,0,0,0,1,0,0,143,2847,1,1061,4062,
scooby_state_402dc3|13|-11 2545,0,1,0,1,0,0,0,0,1,0,0,1,1512,1,4062,
scooby_state_402dc7|7|-2 1,0,0,0,0,0,1,0,0,0,2,390,3624,0,0,4018,
scooby_state_402dc3|39|-11 2630,1,0,0,0,0,0,1,1,0,2,1,1,1375,2,4014,
scooby_state_402dcb|24|-3 1,1,0,4,0,0,2,0,0,0,1,126,3226,0,653,4014,
scooby_state_402dc3|13|-8 4001,0,0,0,1,1,0,0,1,0,1,1,2,0,0,4008,
scooby_state_402dcb|20|11 4,1,0,0,0,1,0,1,1,0,2,0,3630,0,360,4000,
scooby_state_402dcb|63|8 2,2,1,3,0,0,0,1,0,2,1,0,2716,0,1271,3999,
scooby_state_402dcb|4|-7 6,1,3,1,0,1,1,0,0,1,0,0,3014,79,886,3993,
scooby_state_402dc7|4|-2 0,0,1,1,2,0,1,1,0,0,0,500,3485,0,0,3991,
scooby_state_402dcb|19|11 1,1,6,0,0,0,0,0,0,2,0,1,3403,0,573,3987,
scooby_state_402dcb|13|-3 2,2,0,2,1,4,1,0,0,0,1,53,3346,1,550,3963,
scooby_state_402dcb|8|4 0,0,3,0,0,0,0,2,1,0,1,4,2119,0,1827,3957,
scooby_state_402dc3|43|-8 3931,1,0,0,0,1,1,0,0,1,0,0,0,0,0,3935,
scooby_state_402dc3|36|-11 2713,2,2,0,0,0,0,0,0,0,1,0,0,1191,2,3911,
scooby_state_402dc3|28|-11 2784,0,0,0,0,0,1,0,0,0,2,0,0,1121,1,3909,
scooby_state_402dc3|26|-11 2593,1,0,0,0,0,0,1,0,1,0,1,0,1300,1,3898,
scooby_state_402dcb|60|4 0,0,1,0,0,1,0,0,0,1,1,6,2935,2,942,3889,
scooby_state_402dcb|20|-3 0,2,0,0,2,1,0,0,1,2,1,66,3128,0,684,3887,
scooby_state_402dc7|34|-1 1,0,1,0,0,0,0,2,0,0,1,1090,2780,1,0,3876,
scooby_state_402dc3|7|-11 2494,0,0,2,1,1,0,1,1,1,1,1,0,1369,0,3872,
scooby_state_402dc7|50|-2 1,1,0,0,0,1,0,0,0,2,0,631,3229,0,0,3865,
scooby_state_402dc3|7|-8 3848,1,0,1,0,0,2,0,0,1,0,0,2,0,0,3855,
scooby_state_402dc7|37|-2 0,2,0,1,0,0,2,2,0,0,1,569,3264,1,1,3843,
scooby_state_402dc3|10|-11 2118,0,1,0,2,0,0,0,0,0,0,1,1,1719,0,3842,
scooby_state_402dcb|48|-3 1,1,1,0,0,1,0,0,0,0,0,54,2850,0,930,3838,
scooby_state_402dcb|62|8 1,2,1,0,2,1,1,3,3,0,3,1,2892,0,922,3832,
scooby_state_402dc7|31|-2 1,0,0,1,1,0,2,0,1,0,0,599,3217,1,0,3823,
scooby_state_402dc3|17|-11 2510,0,1,1,0,0,0,0,0,0,3,1,1,1269,1,3787,
scooby_state_402dcb|23|11 1,0,0,0,0,0,1,2,0,1,0,1,2845,2,919,3772,
scooby_state_402dc3|47|-14 2377,0,0,0,0,0,0,0,0,0,1,1,0,1382,1,3762,
scooby_state_402dc7|32|-2 0,0,0,0,0,0,2,0,0,3,2,586,3165,1,1,3760,
scooby_state_402dc3|38|-8 3742,0,0,0,0,0,1,1,2,0,0,1,0,1,0,3748,
scooby_state_402dc7|40|-2 0,0,0,0,0,0,0,0,0,0,0,507,3229,0,0,3736,
scooby_state_402dcb|9|7 2,0,0,0,0,1,1,1,1,2,0,1,2477,0,1240,3726,
scooby_state_402dc3|33|-8 3716,0,0,0,0,0,1,0,1,1,0,0,2,0,0,3721,
scooby_state_402dc7|11|-2 1,1,0,1,2,0,0,1,1,0,1,525,3183,0,2,3718,
scooby_state_402dc7|15|-2 2,0,2,0,0,1,0,3,0,0,0,567,3137,0,1,3713,
scooby_state_402dc7|46|-2 0,0,1,1,1,2,2,0,0,0,0,441,3255,0,0,3703,
scooby_state_402dc3|18|-11 2502,0,0,0,0,0,0,0,0,0,1,1,0,1195,2,3701,
scooby_state_402dc7|13|-2 0,0,0,1,1,0,0,0,0,2,1,584,3111,0,0,3700,
scooby_state_402dcb|60|1 1,0,0,0,1,0,0,1,0,1,0,2,2483,0,1192,3681,
scooby_state_402dc7|14|-2 0,1,1,0,1,0,0,0,0,2,0,536,3133,0,0,3674,
scooby_state_402dcb|6|-7 0,0,1,1,0,0,0,1,0,0,1,3,2780,126,753,3666,
scooby_state_402dcb|43|4 1,0,0,0,0,2,0,1,0,1,1,5,2475,1,1178,3665,
scooby_state_402dc3|40|-11 2799,2,0,1,1,0,1,0,1,0,0,0,0,860,0,3665,
scooby_state_402dc3|16|-11 2322,0,1,0,0,0,0,0,0,0,0,0,1,1330,0,3654,
scooby_state_402dc7|48|-2 1,0,1,0,0,2,1,3,0,0,0,635,2999,0,0,3642,
scooby_state_402dc3|49|-14 1863,1,1,0,1,1,1,1,0,0,1,0,1,1765,1,3637,
scooby_state_402dcb|39|4 3,2,0,0,2,1,3,0,1,1,0,3,2701,0,917,3634,
scooby_state_402dc3|38|-11 2372,0,1,0,0,2,0,1,0,0,1,1,0,1250,0,3628,
scooby_state_402dc3|35|-8 3606,0,1,0,2,1,1,0,1,1,1,0,1,0,0,3615,
scooby_state_402dc7|41|-2 1,1,1,2,0,0,0,0,0,2,0,623,2983,0,0,3613,
scooby_state_402dc3|32|-11 2537,0,1,1,2,1,0,0,0,0,0,0,0,1068,1,3611,
scooby_state_402dc3|45|-14 2110,1,1,0,2,0,1,1,0,1,0,0,1,1476,1,3595,
scooby_state_402dcb|22|8 1,5,1,0,3,1,0,0,1,2,1,0,1497,0,2079,3591,
scooby_state_402dc3|43|-14 2009,0,0,1,0,0,1,0,0,0,0,2,2,1565,1,3581,
scooby_state_402dc7|56|-2 0,0,0,1,3,0,0,2,0,0,0,550,3023,0,0,3579,
scooby_state_402dc3|3|-11 2118,1,0,0,0,0,0,0,0,1,2,0,0,1425,0,3547,
scooby_state_402dc3|34|-11 2896,0,1,1,0,0,1,1,0,0,1,0,0,634,0,3535,
scooby_state_402dc3|47|-11 2359,1,0,1,0,0,1,1,0,0,0,0,0,1170,0,3533,
scooby_state_402dc3|34|-8 3511,0,0,0,0,1,0,0,0,0,1,0,0,0,2,3515,
scooby_state_402dcb|5|-7 2,1,0,0,0,0,0,0,0,0,0,2,2599,165,732,3501,
scooby_state_402dc7|20|-2 2,1,1,0,0,1,1,0,0,0,2,491,2996,0,0,3495,
scooby_state_402dcb|25|4 0,1,2,0,1,0,1,2,0,0,0,4,2421,0,1059,3491,
scooby_state_402dcb|17|11 0,0,0,1,3,0,0,0,0,0,0,0,3306,0,170,3480,
scooby_state_402dcb|42|4 1,3,2,0,1,0,2,3,0,0,0,1,2278,1,1177,3469,
scooby_state_402dcb|17|7 0,0,0,1,1,0,0,0,0,1,0,1,1211,1,2235,3451,
scooby_state_402dcb|57|4 0,1,1,0,1,1,0,1,0,0,2,5,2747,0,679,3438,
scooby_state_402dc3|37|-8 3432,0,0,1,0,0,0,0,1,0,1,1,0,0,0,3436,
scooby_state_402dc7|24|-2 0,0,1,0,1,0,1,0,0,2,0,433,2997,0,0,3435,
scooby_state_402dc3|25|-11 2351,1,1,1,1,1,1,0,1,0,0,2,0,1063,1,3424,
scooby_state_402dcb|41|4 2,0,1,3,2,0,0,1,1,4,0,2,2014,0,1392,3422,
scooby_state_402dc3|17|-8 3414,0,0,0,0,0,1,0,1,1,0,0,0,0,1,3418,
scooby_state_402dcb|14|7 0,1,2,2,1,1,1,0,0,0,0,0,1278,0,2119,3405,
scooby_state_402dc3|44|-14 1945,1,0,0,1,1,1,0,0,0,3,1,1,1427,0,3381,
scooby_state_402dcb|34|4 0,0,1,2,3,0,2,1,0,4,2,5,2550,0,810,3380,
scooby_state_402dc7|29|-2 1,0,0,0,0,1,1,1,0,0,0,570,2797,1,0,3372,
scooby_state_402dc7|23|-2 1,0,1,1,0,0,1,1,0,0,0,503,2860,1,0,3369,
scooby_state_402dc3|9|-11 2176,1,0,0,1,1,0,0,0,0,0,0,0,1186,0,3365,
scooby_state_402dc3|0|-11 2066,0,0,2,0,0,0,0,1,0,0,0,1,1294,1,3365,
scooby_state_402dc7|30|-2 0,3,1,1,0,1,0,1,1,0,0,479,2870,0,0,3357,
scooby_state_402dc7|38|-2 1,0,0,0,1,0,1,2,0,0,0,574,2772,0,1,3352,
scooby_state_402dc7|39|-2 0,0,0,0,0,0,0,0,0,1,0,571,2779,1,0,3352,
scooby_state_402dc7|19|-2 0,1,1,0,1,1,0,0,0,0,0,477,2863,1,0,3345,
scooby_state_402dc7|34|-2 0,0,0,0,0,1,1,1,0,0,1,594,2706,2,0,3306,
scooby_state_402dc3|1|-11 2164,0,0,0,0,1,2,0,0,1,0,0,1,1112,1,3282,
scooby_state_402dcb|31|8 0,1,0,0,1,0,0,0,0,0,0,1,1951,0,1324,3278,
scooby_state_402dcb|8|-7 4,0,0,0,0,0,1,1,1,1,0,0,2575,222,471,3276,
scooby_state_402dc3|35|-11 2539,0,0,1,0,0,0,0,0,0,1,0,2,727,1,3271,
scooby_state_402dc3|5|-11 2236,0,2,0,1,1,0,0,0,0,0,0,1,1027,0,3268,
scooby_state_402dc3|14|-11 2293,0,0,0,1,0,1,0,3,0,0,0,0,970,0,3268,
scooby_state_402dc7|21|-2 3,0,0,0,0,0,0,0,0,0,1,475,2788,0,0,3267,
scooby_state_402dc3|36|-14 1967,2,0,1,1,0,1,0,1,0,1,0,1,1287,1,3263,
scooby_state_402dc3|8|-11 2183,0,1,1,0,0,0,0,0,0,0,0,0,1069,0,3254,
scooby_state_402dc3|21|-11 2196,0,0,1,0,0,2,0,0,0,0,0,0,1050,0,3249,
scooby_state_402dc7|47|-2 2,0,0,1,0,0,0,1,0,0,1,651,2588,1,0,3245,
scooby_state_402dc3|39|-14 1955,1,1,0,0,1,1,1,0,0,1,0,0,1272,1,3234,
scooby_state_402dc3|29|-14 2187,2,0,0,0,1,0,1,1,1,0,0,0,1037,1,3231,
scooby_state_402dc3|49|-8 3220,0,0,0,0,0,1,0,1,1,0,0,0,2,0,3225,
scooby_state_402dc3|48|-14 1860,1,0,0,0,1,0,0,1,1,1,0,0,1352,0,3217,
scooby_state_402dcb|57|1 0,0,1,0,0,0,0,0,1,1,0,1,2109,0,1101,3214,
scooby_state_402dcb|51|11 0,0,1,1,1,0,2,0,0,0,0,0,1861,1,1344,3211,
scooby_state_402dcb|24|8 0,2,1,1,1,0,1,1,0,0,1,0,1798,0,1379,3185,
scooby_state_402dc3|51|-11 2627,0,0,0,0,0,0,0,0,0,0,0,0,552,1,3180,
scooby_state_402dc3|31|-8 3172,0,0,0,0,0,0,1,0,1,0,1,0,3,1,3179,
scooby_state_402dcb|21|8 1,1,1,0,1,2,1,1,0,2,0,3,1519,0,1642,3174,
scooby_state_402dc3|2|-11 2202,0,0,0,0,3,0,0,0,1,0,1,0,959,1,3167,
scooby_state_402dc3|12|-14 1907,0,0,0,0,0,1,0,0,0,0,0,0,1258,0,3166,
scooby_state_402dc3|20|-14 1753,0,1,0,1,0,0,0,2,0,1,0,0,1406,0,3164,
scooby_state_402dcb|13|7 1,0,0,1,0,1,0,1,0,1,1,0,1275,0,1882,3163,
scooby_state_402dcb|38|8 0,0,1,0,0,0,2,0,1,0,0,4,1986,1,1168,3163,
scooby_state_402dc3|53|-8 3156,0,0,0,1,0,1,1,0,0,0,0,0,0,0,3159,
scooby_state_402dcb|61|8 0,1,1,2,0,0,0,2,0,0,1,0,2391,1,756,3155,
scooby_state_402dcb|4|1 1,0,1,1,1,1,1,0,0,0,1,0,1787,0,1355,3149,
scooby_state_402dc3|23|-11 1984,0,0,0,0,0,0,1,0,0,0,0,0,1150,0,3135,
scooby_state_402dc3|44|-11 2311,1,1,1,1,1,1,0,1,1,0,0,0,808,0,3127,
scooby_state_402dcb|18|8 0,1,2,0,1,1,0,0,1,0,0,3,1933,0,1178,3120,
scooby_state_402dc3|4|-11 2213,0,0,0,0,2,0,0,1,0,0,1,0,892,0,3109,
scooby_state_402dc3|14|-8 3103,0,1,0,0,0,1,0,0,0,0,0,2,1,1,3109,
scooby_state_402dc3|15|-14 1768,2,0,0,0,0,0,0,0,0,1,0,1,1334,0,3106,
scooby_state_402dc7|12|-2 0,1,0,0,0,1,2,0,0,0,0,513,2582,2,1,3102,
scooby_state_402dc3|42|-14 1828,1,0,2,2,1,0,0,0,0,1,0,0,1266,1,3102,
scooby_state_402dc3|32|-8 3096,0,0,1,1,0,0,1,0,0,1,0,1,0,0,3101,
scooby_state_402dc3|52|-8 3096,0,0,0,0,0,0,0,2,0,1,0,0,0,0,3099,
scooby_state_402dcb|42|8 1,2,0,0,2,1,0,1,2,1,3,0,2237,0,849,3099,
scooby_state_402dcb|56|4 1,1,1,0,1,0,4,1,1,1,1,1,2556,1,525,3095,
scooby_state_402dcb|7|-7 0,1,0,0,0,0,0,2,0,1,2,0,2238,84,753,3081,
scooby_state_402dcb|40|4 0,0,0,0,1,1,0,1,1,0,1,3,2183,1,885,3077,
scooby_state_402dc3|45|-11 2281,0,1,0,0,0,0,0,1,0,1,2,0,790,0,3076,
scooby_state_402dcb|26|4 3,0,0,0,2,3,2,0,0,1,0,3,2339,0,719,3072,
scooby_state_402dc3|41|-11 2202,1,0,0,0,0,0,0,0,1,1,0,0,864,0,3069,
scooby_state_402dc3|42|-11 2186,0,0,1,0,0,0,0,0,0,1,0,0,874,0,3062,
scooby_state_402dc3|18|-14 1904,1,0,1,0,1,0,0,1,2,0,0,1,1140,1,3052,
scooby_state_402dcb|55|4 0,3,2,0,0,0,0,1,2,1,0,2,2302,0,738,3051,
scooby_state_402dcb|36|4 3,0,1,0,0,2,2,0,1,0,1,2,2429,1,596,3038,
scooby_state_402dc3|11|-14 2015,0,0,0,1,1,0,0,1,0,1,0,0,1018,0,3037,
scooby_state_402dc3|22|-8 3032,0,0,0,0,0,0,1,0,1,0,1,0,0,0,3035,
scooby_state_402dc3|35|-14 1940,0,0,0,0,0,1,0,1,1,1,0,0,1090,0,3034,
scooby_state_402dc3|39|-8 3023,0,2,0,0,0,0,2,0,0,1,1,0,0,0,3029,
scooby_state_402dc7|28|-2 1,0,0,1,0,1,2,1,0,1,1,491,2526,2,1,3028,
scooby_state_402dcb|17|8 0,0,0,1,0,0,1,0,0,0,1,1,1812,2,1198,3016,
scooby_state_402dcb|16|8 3,1,0,0,1,2,1,1,1,2,0,0,1600,0,1401,3013,
scooby_state_402dc3|37|-14 1548,0,0,0,1,0,0,0,0,1,0,1,0,1443,0,2994,
scooby_state_402dcb|58|1 0,0,0,4,3,1,0,0,1,1,0,0,1959,0,1022,2991,
scooby_state_402dcb|58|4 0,0,1,2,0,0,1,1,2,1,0,1,2225,0,750,2984,
scooby_state_402dc7|1|-2 1,1,0,0,0,0,0,1,0,0,0,453,2526,1,0,2983,
scooby_state_402dc3|13|-14 1722,0,0,1,1,0,1,2,1,1,0,1,0,1231,0,2961,
scooby_state_402dc7|43|-2 0,0,1,1,0,0,0,1,0,0,0,523,2421,0,1,2948,
scooby_state_402dc3|15|-8 2946,1,0,0,0,0,0,0,0,0,0,0,0,0,0,2947,
scooby_state_402dcb|8|1 0,0,1,0,0,0,1,0,0,0,0,0,1658,0,1279,2939,
scooby_state_402dcb|50|4 1,0,2,0,0,2,1,0,1,0,1,4,2360,0,564,2936,
scooby_state_402dcb|20|8 0,0,1,0,1,0,1,0,0,2,0,0,1750,3,1178,2936,
scooby_state_402dc3|48|-8 2918,0,0,0,0,0,0,0,0,0,0,0,1,0,0,2919,
scooby_state_402dc3|54|-8 2909,1,0,0,2,0,0,2,0,1,1,0,0,0,0,2916,
scooby_state_402dc3|10|-14 1881,0,1,0,0,0,0,0,0,0,0,0,0,1032,1,2915,
scooby_state_402dcb|53|4 3,0,0,0,0,3,1,0,0,0,0,4,2493,0,398,2902,
scooby_state_402dcb|33|4 2,2,1,1,2,3,0,0,0,0,2,6,2292,0,589,2900,
scooby_state_402dc3|40|-14 1609,3,0,0,0,0,0,0,1,1,0,1,0,1279,0,2894,
scooby_state_402dc3|19|-14 1781,1,0,0,1,0,1,1,0,0,0,1,0,1103,1,2890,
scooby_state_402dc7|52|-2 0,1,0,0,0,0,0,0,1,2,0,553,2328,1,1,2887,
scooby_state_402dcb|12|8 0,0,0,0,2,1,0,1,1,1,1,2,1708,2,1154,2873,
scooby_state_402dc3|32|-14 1983,0,1,0,1,0,1,0,1,0,0,1,0,884,0,2872,
scooby_state_402dcb|49|4 1,3,1,0,0,0,3,0,0,0,1,2,2315,0,537,2863,
scooby_state_402dcb|59|4 0,2,0,2,0,1,2,0,2,0,1,4,2156,0,689,2859,
scooby_state_402dcb|31|4 0,0,1,2,0,1,0,0,2,2,0,1,2138,0,705,2852,
scooby_state_402dc3|52|-11 2350,0,0,0,0,0,0,1,0,0,0,0,0,501,0,2852,
scooby_state_402dcb|37|8 0,1,1,1,2,0,0,1,1,0,0,0,1735,3,1100,2845,
scooby_state_402dc3|55|-8 2838,1,1,0,0,0,0,0,0,0,0,0,1,0,1,2842,
scooby_state_402dcb|45|8 2,0,0,0,1,4,0,1,2,0,1,2,1954,0,862,2829,
scooby_state_402dc3|24|-8 2822,1,0,0,0,0,2,0,0,1,0,0,1,1,0,2828,
scooby_state_402dc7|6|-2 1,0,1,0,1,0,0,1,0,1,1,464,2356,0,0,2826,
scooby_state_402dcb|39|8 1,2,0,0,3,0,0,0,1,1,2,0,1850,1,964,2825,
scooby_state_402dcb|19|8 0,2,1,1,3,0,0,0,0,4,0,1,1735,0,1076,2823,
scooby_state_402dc3|36|-8 2807,1,1,1,0,0,0,0,2,1,0,1,0,1,0,2815,
scooby_state_402dcb|20|7 0,0,1,0,1,0,1,0,0,1,0,1,1278,0,1531,2814,
scooby_state_402dcb|59|1 1,0,1,1,0,3,0,0,0,0,0,0,1691,2,1114,2813,
scooby_state_402dc3|18|-8 2808,0,0,0,0,0,0,0,0,1,0,1,1,0,1,2812,
scooby_state_402dcb|47|4 0,1,1,1,2,1,1,0,1,0,2,3,2352,1,443,2809,
scooby_state_402dcb|32|4 0,3,2,0,0,0,1,3,0,0,0,1,2223,0,571,2804,
scooby_state_402dc3|16|-8 2800,0,0,1,1,0,0,0,0,0,0,0,0,1,0,2803,
scooby_state_402dc3|20|-8 2795,0,3,0,1,1,0,0,0,0,0,0,1,0,1,2802,
scooby_state_402dcb|8|7 0,0,1,0,0,0,0,1,0,0,1,1,1773,0,1021,2798,
scooby_state_402dc3|21|-8 2795,0,0,0,0,0,0,0,0,0,0,0,0,1,0,2796,
scooby_state_402dcb|27|4 0,0,1,0,2,0,0,0,1,1,4,8,1833,0,945,2795,
scooby_state_402dcb|55|8 0,1,1,1,0,1,1,2,1,0,2,4,1693,0,1085,2792,
scooby_state_402dc3|25|-8 2788,0,1,0,0,0,0,0,1,0,0,0,0,0,0,2790,
scooby_state_402dc3|46|-11 2182,0,2,1,0,0,0,1,0,0,1,0,0,599,0,2786,
scooby_state_402dc3|30|-8 2781,0,0,0,1,0,0,0,0,0,1,0,0,0,0,2783,
scooby_state_402dc3|26|-14 1608,0,0,0,1,0,0,0,0,0,1,0,0,1168,0,2778,
scooby_state_402dc3|40|-8 2769,1,0,0,2,0,1,0,0,1,2,0,0,0,1,2777,
scooby_state_402dc3|14|-14 1491,0,1,0,0,0,0,0,0,0,0,0,1,1281,3,2777,
scooby_state_402dcb|4|-4 6,1,5,0,0,1,2,0,0,0,0,1,2030,5,723,2774,
scooby_state_402dcb|11|8 0,0,1,0,1,0,0,0,0,1,0,1,1706,1,1061,2772,
scooby_state_402dcb|46|4 1,1,0,0,0,0,1,1,0,0,0,5,2216,0,543,2768,
scooby_state_402dc3|28|-14 1868,1,0,0,1,0,0,1,0,0,0,0,0,895,1,2767,
scooby_state_402dcb|44|8 0,0,1,4,0,0,0,1,0,0,0,0,1666,1,1076,2749,
scooby_state_402dc3|51|-8 2745,0,0,0,0,0,1,1,0,0,0,0,0,0,0,2747,
scooby_state_402dc3|24|-11 1807,2,1,1,1,0,0,0,0,0,0,0,0,935,0,2747,
scooby_state_402dc3|25|-14 1692,0,0,0,0,1,0,0,0,0,0,1,0,1052,0,2746,
scooby_state_402dcb|35|1 0,1,3,0,0,1,0,0,0,0,0,0,1609,1,1128,2743,
scooby_state_402dc3|30|-11 2006,1,0,2,0,1,2,1,1,0,1,0,1,724,0,2740,
scooby_state_402dcb|13|8 1,1,1,0,0,0,0,0,0,0,1,1,1821,1,913,2740,
scooby_state_402dcb|11|7 1,0,1,0,1,0,0,1,1,0,0,1,1136,1,1595,2738,
scooby_state_402dcb|14|8 0,1,1,0,1,0,0,0,0,0,0,0,1650,0,1081,2734,
scooby_state_402dc3|45|-8 2729,0,1,1,1,0,0,0,0,0,1,0,0,0,0,2733,
scooby_state_402dcb|28|4 0,0,3,0,0,0,0,1,3,0,2,2,2032,0,683,2726,
scooby_state_402dcb|6|1 1,0,0,0,0,0,0,0,0,0,1,2,1387,0,1333,2724,
scooby_state_402dc3|37|-11 1894,0,1,0,0,0,0,0,0,0,1,0,0,824,0,2720,
scooby_state_402dcb|27|8 1,0,0,0,0,2,0,0,0,1,1,0,1752,1,952,2710,
scooby_state_402dcb|43|8 1,0,0,0,2,0,1,0,0,0,0,0,1906,1,792,2703,
scooby_state_402dc3|44|-8 2689,1,1,1,1,1,1,0,1,0,0,0,0,1,0,2697,
scooby_state_402dc7|22|-2 0,0,0,1,0,0,0,0,0,0,0,430,2266,0,0,2697,
scooby_state_402dcb|46|8 1,0,2,2,1,1,0,0,0,0,1,0,1699,0,989,2696,
scooby_state_402dc7|10|-2 0,0,0,1,1,1,1,0,0,0,0,489,2201,0,0,2694,
scooby_state_402dcb|41|8 1,0,0,1,0,1,0,0,0,1,0,1,1902,1,784,2692,
scooby_state_402dcb|19|1 2,0,0,1,2,0,1,0,0,1,0,0,1346,0,1336,2689,
scooby_state_402dcb|29|4 1,2,0,0,0,0,4,0,0,0,0,1,2168,2,511,2689,
scooby_state_402dc3|19|-8 2684,0,0,0,0,0,0,0,1,0,0,0,0,0,0,2685,
scooby_state_402dcb|53|8 1,3,1,1,1,1,0,1,2,4,0,0,1693,0,976,2684,
scooby_state_402dcb|1|-4 2,1,16,0,0,0,0,0,0,0,0,1,2551,11,100,2682,
scooby_state_402dcb|2|-4 7,0,25,0,0,0,0,0,0,0,0,0,2545,6,94,2677,
scooby_state_402dc3|41|-8 2664,0,1,0,0,1,1,1,0,0,0,1,1,0,0,2670,
scooby_state_402dc3|17|-14 1662,1,0,0,1,0,0,1,1,0,1,0,0,1003,0,2670,
scooby_state_402dc3|34|-14 1653,1,0,1,0,1,0,0,1,0,0,2,0,1010,0,2669,
scooby_state_402dcb|34|8 0,1,0,1,1,0,0,0,0,0,0,1,1639,2,1006,2651,
scooby_state_402dc3|27|-14 1770,0,0,0,0,0,2,0,0,0,0,0,1,871,0,2644,
scooby_state_402dc3|29|-8 2637,1,0,0,0,0,0,1,1,0,0,0,0,1,0,2641,
scooby_state_402dcb|9|-7 0,1,0,1,0,1,0,1,0,0,1,1,1804,157,669,2636,
scooby_state_402dc3|23|-8 2613,1,0,2,1,0,2,0,0,0,0,0,0,1,1,2621,
scooby_state_402dcb|44|4 1,1,0,0,1,0,0,1,0,4,0,11,2042,0,559,2620,
scooby_state_402dcb|52|4 0,1,1,1,0,0,0,3,0,1,0,0,2194,0,418,2619,
scooby_state_402dcb|63|7 3,1,1,0,0,1,1,0,1,0,0,1,1908,1,701,2619,
scooby_state_402dcb|12|7 0,1,0,0,0,0,3,0,0,0,0,0,1234,1,1372,2611,
scooby_state_402dc3|47|-8 2604,1,0,0,1,0,0,0,0,2,0,0,0,0,1,2609,
scooby_state_402dcb|30|8 1,0,2,0,0,0,1,0,0,1,0,0,1762,3,839,2609,
scooby_state_402dc3|50|-8 2596,0,1,0,0,0,2,0,2,0,0,0,0,1,0,2602,
scooby_state_402dcb|49|8 0,1,0,1,3,0,0,0,0,0,3,0,1490,0,1090,2588,
scooby_state_402dcb|46|-7 4,0,0,1,0,2,0,0,0,1,0,0,1464,376,739,2587,
scooby_state_402dcb|51|-7 7,0,0,0,0,0,0,0,0,0,0,2,1689,209,679,2586,
scooby_state_402dcb|18|7 0,0,2,0,0,0,0,1,0,1,1,0,821,1,1757,2584,
scooby_state_402dc3|28|-8 2577,0,0,0,0,0,0,0,0,0,1,0,1,0,0,2579,
scooby_state_402dc3|16|-14 1653,1,0,0,1,0,1,0,0,1,0,1,1,916,0,2575,
scooby_state_402dcb|15|8 1,1,1,0,1,1,0,0,0,0,1,1,1339,0,1222,2568,
scooby_state_402dcb|55|1 1,1,4,1,2,0,2,0,0,0,0,0,1598,0,958,2567,
scooby_state_402dcb|19|7 2,0,0,0,0,0,0,0,0,0,0,0,1351,1,1210,2564,
scooby_state_402dc3|22|-14 1486,0,1,0,1,1,0,0,0,0,1,2,0,1069,1,2562,
scooby_state_402dcb|32|1 1,0,0,0,2,0,0,1,1,0,0,0,1555,0,996,2556,
scooby_state_402dcb|50|8 1,3,0,0,1,0,0,0,1,0,1,0,1629,2,918,2556,
scooby_state_402dc3|42|-8 2546,1,0,0,0,1,0,2,0,0,1,1,1,1,0,2554,
scooby_state_402dcb|48|8 0,0,5,0,0,1,0,1,2,0,0,2,1560,0,982,2553,
scooby_state_402dcb|52|8 1,4,1,0,3,0,1,0,0,1,4,0,1631,0,901,2547,
scooby_state_402dcb|5|1 0,0,0,0,0,0,0,1,0,0,0,0,1626,0,920,2547,
scooby_state_402dc3|26|-8 2539,0,0,0,0,1,0,0,0,1,0,0,0,0,1,2542,
scooby_state_402dcb|37|4 0,1,0,1,1,1,0,0,0,0,1,0,1939,0,593,2537,
scooby_state_402dc3|38|-14 1627,0,0,1,0,0,1,1,0,1,0,1,1,901,0,2534,
scooby_state_402dcb|26|8 0,1,0,2,1,1,0,0,0,0,0,0,1751,1,762,2519,
scooby_state_402dcb|47|8 0,0,1,0,1,2,0,1,1,2,0,0,1592,1,913,2514,
scooby_state_402dcb|13|1 0,1,0,0,0,1,2,0,0,0,0,1,1386,0,1116,2507,
scooby_state_402dcb|38|4 0,0,2,1,0,0,0,0,3,3,0,0,1871,1,621,2502,
scooby_state_402dcb|3|-4 4,0,14,0,0,1,0,0,0,0,0,0,2359,7,113,2498,
scooby_state_402dcb|21|7 0,0,0,2,0,0,0,0,0,1,0,0,1017,0,1473,2493,
scooby_state_402dc3|46|-8 2489,1,0,0,0,0,1,1,0,0,0,0,0,0,0,2492,
scooby_state_402dcb|60|7 0,1,0,0,0,2,0,0,0,1,0,0,1581,0,905,2490,
scooby_state_402dcb|7|1 1,0,1,0,0,0,0,0,0,0,2,0,1295,0,1184,2483,
[...]
scooby_state_41a9be|38|1 0,0,0,0,0,0,0,0,0,0,0,0,0,0,1,1,
scooby_state_41a944|37|1 1,0,0,0,0,0,0,0,0,0,0,0,0,0,0,1,
scooby_state_41a829|32|1 1,0,0,0,0,0,0,0,0,0,0,0,0,0,0,1,
scooby_state_402dcb|33|-24 0,0,0,0,0,0,0,0,0,0,0,0,1,0,0,1,
scooby_state_41a902|36|1 0,0,0,0,0,0,0,0,0,0,0,1,0,0,0,1,
scooby_state_41a770|29|0 1,0,0,0,0,0,0,0,0,0,0,0,0,0,0,1,
scooby_state_402dfb|53|9 0,0,0,0,0,0,0,0,0,0,0,0,1,0,0,1,
scooby_state_402c80|50|0 0,0,0,0,0,0,0,0,0,0,0,0,0,0,1,1,
scooby_state_402dfb|10|9 0,0,0,0,0,0,0,0,0,0,0,1,0,0,0,1,
scooby_state_402dc7|26|20 0,0,0,0,0,0,0,0,0,0,0,0,1,0,0,1,
scooby_state_402dfb|47|9 0,0,0,0,0,0,0,0,0,0,0,1,0,0,0,1,
scooby_state_402dc7|33|-17 0,0,0,0,0,0,0,0,0,0,0,0,1,0,0,1,
scooby_state_402dcb|39|-23 0,0,0,0,0,0,0,0,0,0,0,0,1,0,0,1,
scooby_state_402dc7|20|-17 0,0,0,0,0,0,0,0,0,0,0,0,1,0,0,1,
scooby_state_402dcb|30|23 0,0,0,0,0,0,0,0,0,0,0,0,1,0,0,1,
scooby_state_402dc7|52|11 0,0,0,0,0,0,0,0,0,0,0,0,1,0,0,1,
scooby_state_402dcb|22|-31 0,0,0,0,0,0,0,0,0,0,0,0,1,0,0,1,
scooby_state_402ecf|14|0 0,0,0,0,0,0,0,0,0,0,0,0,1,0,0,1,
scooby_state_402dc7|59|12 0,0,0,0,0,0,0,0,0,0,0,0,1,0,0,1,
scooby_state_402d40|38|0 0,0,0,0,0,0,0,0,0,0,0,0,1,0,0,1,
scooby_state_402dc7|20|11 0,0,0,0,0,0,0,0,0,0,0,0,1,0,0,1,
scooby_state_402dfb|36|-11 0,0,0,0,0,0,0,0,0,0,0,0,1,0,0,1,
scooby_state_402d79|8|-2 0,0,0,0,0,0,0,0,0,0,0,1,0,0,0,1,
scooby_state_402dcb|0|-9 1,0,0,0,0,0,0,0,0,0,0,0,0,0,0,1,
scooby_state_402ec0|59|-1 1,0,0,0,0,0,0,0,0,0,0,0,0,0,0,1,
scooby_state_402dcb|19|-23 0,0,0,0,0,0,0,0,0,0,0,1,0,0,0,1,
scooby_state_402dcb|52|38 0,0,0,0,0,0,0,0,0,0,0,0,1,0,0,1,
scooby_state_402dab|37|10 0,0,0,0,0,0,0,0,0,0,0,1,0,0,0,1,
scooby_state_402dc7|11|-17 0,0,0,0,0,0,0,0,0,0,0,0,1,0,0,1,
scooby_state_402dab|40|10 0,0,0,0,0,0,0,0,0,0,0,1,0,0,0,1,
scooby_state_402ec0|36|-1 0,0,0,0,0,0,0,0,0,0,0,0,1,0,0,1,
scooby_state_402e95|27|6 1,0,0,0,0,0,0,0,0,0,0,0,0,0,0,1,
scooby_state_402eb2|0|0 0,0,0,0,0,0,0,0,0,0,0,0,1,0,0,1,
scooby_state_402dcb|44|30 0,0,0,0,0,0,0,0,0,0,0,0,1,0,0,1,
scooby_state_402dc7|46|15 0,0,0,0,0,0,0,0,0,0,0,0,1,0,0,1,
scooby_state_402ecf|9|-1 0,0,0,0,0,0,0,0,0,0,0,0,0,0,1,1,
scooby_state_402dc3|7|-13 0,0,0,0,0,0,0,0,0,0,0,0,0,1,0,1,
scooby_state_402d96|28|-1 0,0,0,0,0,0,0,0,0,0,0,0,1,0,0,1,
scooby_state_402e04|3|-2 1,0,0,0,0,0,0,0,0,0,0,0,0,0,0,1,
scooby_state_402ec0|18|-1 0,0,0,0,0,0,0,0,0,0,0,0,1,0,0,1,
scooby_state_402dc7|1|-20 0,0,0,0,0,0,0,0,0,0,0,0,1,0,0,1,
scooby_state_402dc7|43|-17 0,0,0,0,0,0,0,0,0,0,0,0,1,0,0,1,
scooby_state_402dfb|9|-11 0,0,0,0,0,0,0,0,0,0,0,0,1,0,0,1,
scooby_state_402dcb|21|-41 1,0,0,0,0,0,0,0,0,0,0,0,0,0,0,1,
scooby_state_402dc7|1|-16 0,0,0,0,0,0,0,0,0,0,0,0,1,0,0,1,
scooby_state_402dcb|45|37 0,0,0,0,0,0,0,0,0,0,0,1,0,0,0,1,
scooby_state_402e04|0|-2 1,0,0,0,0,0,0,0,0,0,0,0,0,0,0,1,
scooby_state_402e95|56|6 1,0,0,0,0,0,0,0,0,0,0,0,0,0,0,1,
scooby_state_402e04|1|-2 1,0,0,0,0,0,0,0,0,0,0,0,0,0,0,1,
scooby_state_402ecf|61|-1 0,0,0,0,0,0,0,0,0,0,0,0,0,0,1,1,
scooby_state_402ecf|61|0 0,0,0,0,0,0,0,0,0,0,0,0,1,0,0,1,
scooby_state_402e04|10|-1 0,0,0,0,0,0,0,0,0,0,0,0,1,0,0,1,
scooby_state_402dcb|42|34 0,0,0,0,0,0,0,0,0,0,0,0,1,0,0,1,
scooby_state_402dc7|45|-18 0,0,0,0,0,0,0,0,0,0,0,0,1,0,0,1,
scooby_state_402dab|46|6 0,0,0,0,0,0,0,0,0,0,0,0,1,0,0,1,
scooby_state_402dcb|44|-2 0,0,0,0,0,0,0,0,0,0,0,0,1,0,0,1,
scooby_state_402dcb|28|-34 0,0,0,0,0,0,0,0,0,0,0,0,1,0,0,1,
scooby_state_402dcb|55|27 0,0,0,0,0,0,0,0,0,0,0,0,1,0,0,1,
scooby_state_402ecf|49|-1 0,0,0,0,0,0,0,0,0,0,0,0,0,0,1,1,
scooby_state_402dc7|20|0 0,0,0,0,0,0,0,0,0,0,0,0,1,0,0,1,
scooby_state_402dcb|6|-30 1,0,0,0,0,0,0,0,0,0,0,0,0,0,0,1,
scooby_state_402e95|25|6 1,0,0,0,0,0,0,0,0,0,0,0,0,0,0,1,
scooby_state_402dc3|7|-34 1,0,0,0,0,0,0,0,0,0,0,0,0,0,0,1,
scooby_state_402e04|33|-1 0,0,0,0,0,0,0,0,0,0,0,0,0,1,0,1,
scooby_state_402e95|41|9 1,0,0,0,0,0,0,0,0,0,0,0,0,0,0,1,
scooby_state_402e95|59|9 1,0,0,0,0,0,0,0,0,0,0,0,0,0,0,1,
scooby_state_402d79|52|-2 0,0,0,0,0,0,0,0,0,0,0,1,0,0,0,1,
scooby_state_402dab|53|10 0,0,0,0,0,0,0,0,0,0,0,1,0,0,0,1,
scooby_state_402dc3|40|-13 1,0,0,0,0,0,0,0,0,0,0,0,0,0,0,1,
scooby_state_402dc7|11|11 0,0,0,0,0,0,0,0,0,0,0,0,1,0,0,1,
scooby_state_402dcb|35|31 0,0,0,0,0,0,0,0,0,0,0,0,1,0,0,1,
scooby_state_402dc3|0|-35 1,0,0,0,0,0,0,0,0,0,0,0,0,0,0,1,
scooby_state_402d96|62|-1 0,0,0,0,0,0,0,0,0,0,0,0,1,0,0,1,
scooby_state_402dab|36|6 0,0,0,0,0,0,0,0,0,0,0,0,1,0,0,1,
scooby_state_402dc7|27|-15 0,0,0,0,0,0,0,0,0,0,0,0,1,0,0,1,
scooby_state_402dc3|9|-42 1,0,0,0,0,0,0,0,0,0,0,0,0,0,0,1,
scooby_state_402dc7|25|-20 0,0,0,0,0,0,0,0,0,0,0,0,1,0,0,1,
scooby_state_402ec0|49|-1 0,0,0,0,0,0,0,0,0,0,0,0,1,0,0,1,
scooby_state_402e04|24|-1 0,0,0,0,0,0,0,0,0,0,0,0,1,0,0,1,
scooby_state_402d79|15|-2 0,0,0,0,0,0,0,0,0,0,0,1,0,0,0,1,
scooby_state_402dab|16|10 0,0,0,0,0,0,0,0,0,0,0,1,0,0,0,1,
scooby_state_402dab|29|6 1,0,0,0,0,0,0,0,0,0,0,0,0,0,0,1,
scooby_state_402e95|12|7 1,0,0,0,0,0,0,0,0,0,0,0,0,0,0,1,
scooby_state_402dcb|27|-2 0,0,0,0,0,0,0,0,0,0,0,0,1,0,0,1,
scooby_state_402dc7|38|15 0,0,0,0,0,0,0,0,0,0,0,0,1,0,0,1,
scooby_state_402ecf|15|-1 0,0,0,0,0,0,0,0,0,0,0,0,0,0,1,1,
scooby_state_402e04|55|-2 1,0,0,0,0,0,0,0,0,0,0,0,0,0,0,1,
scooby_state_402e95|20|6 1,0,0,0,0,0,0,0,0,0,0,0,0,0,0,1,
scooby_state_402d96|15|-1 0,0,0,0,0,0,0,0,0,0,0,0,1,0,0,1,
scooby_state_402dc7|38|13 0,0,0,0,0,0,0,0,0,0,0,0,1,0,0,1,
scooby_state_402ecf|56|-1 0,0,0,0,0,0,0,0,0,0,0,0,0,0,1,1,
scooby_state_402d96|45|-1 0,0,0,0,0,0,0,0,0,0,0,0,1,0,0,1,
scooby_state_402dc7|53|14 0,0,0,0,0,0,0,0,0,0,0,0,1,0,0,1,
scooby_state_402e04|42|-2 1,0,0,0,0,0,0,0,0,0,0,0,0,0,0,1,
scooby_state_402dc3|44|-13 0,0,0,0,0,0,0,0,0,0,0,0,0,1,0,1,
scooby_state_402dc3|26|-32 1,0,0,0,0,0,0,0,0,0,0,0,0,0,0,1,
scooby_state_402dfb|31|9 0,0,0,0,0,0,0,0,0,0,0,1,0,0,0,1,
scooby_state_402dab|63|10 0,0,0,0,0,0,0,0,0,0,0,1,0,0,0,1,
scooby_state_402d96|8|-1 0,0,0,0,0,0,0,0,0,0,0,0,1,0,0,1,
scooby_state_402dcb|35|-23 0,0,0,0,0,0,0,0,0,0,0,0,1,0,0,1,
scooby_state_402e95|55|9 1,0,0,0,0,0,0,0,0,0,0,0,0,0,0,1,
scooby_state_402e95|44|7 1,0,0,0,0,0,0,0,0,0,0,0,0,0,0,1,
scooby_state_402dc3|12|-32 0,0,0,0,0,0,0,0,0,0,0,0,0,1,0,1,
scooby_state_402dc3|16|-44 1,0,0,0,0,0,0,0,0,0,0,0,0,0,0,1,
scooby_state_402dc7|52|14 0,0,0,0,0,0,0,0,0,0,0,0,1,0,0,1,
scooby_state_402e04|62|-1 0,0,0,0,0,0,0,0,0,0,0,0,1,0,0,1,
scooby_state_402dfb|32|-13 1,0,0,0,0,0,0,0,0,0,0,0,0,0,0,1,
scooby_state_402dab|26|10 0,0,0,0,0,0,0,0,0,0,0,1,0,0,0,1,
scooby_state_402dcb|17|-9 1,0,0,0,0,0,0,0,0,0,0,0,0,0,0,1,
scooby_state_402dc3|5|-32 1,0,0,0,0,0,0,0,0,0,0,0,0,0,0,1,
scooby_state_402e04|4|-2 1,0,0,0,0,0,0,0,0,0,0,0,0,0,0,1,
scooby_state_402ecf|45|-1 0,0,0,1,0,0,0,0,0,0,0,0,0,0,0,1,
scooby_state_402dc3|29|-2 1,0,0,0,0,0,0,0,0,0,0,0,0,0,0,1,
scooby_state_402dab|43|10 0,0,0,0,0,0,0,0,0,0,0,1,0,0,0,1,
scooby_state_402d79|38|-1 0,0,0,0,0,0,0,0,0,0,0,1,0,0,0,1,
scooby_state_402ecf|2|-1 0,0,0,0,0,0,0,0,0,0,0,0,0,0,1,1,
scooby_state_402dc7|57|20 0,0,0,0,0,0,0,0,0,0,0,0,1,0,0,1,
scooby_state_402dc7|53|19 0,0,0,0,0,0,0,0,0,0,0,1,0,0,0,1,
scooby_state_402d79|48|-2 0,0,0,0,0,0,0,0,0,0,0,1,0,0,0,1,
scooby_state_402ea4|7|0 0,0,0,0,0,0,0,0,0,0,0,1,0,0,0,1,
scooby_state_41b2f8|11|0 1,0,0,0,0,0,0,0,0,0,0,0,0,0,0,1,
scooby_state_402dab|49|6 0,0,0,0,0,0,0,0,0,0,0,1,0,0,0,1,
scooby_state_41a781|30|1 1,0,0,0,0,0,0,0,0,0,0,0,0,0,0,1,
scooby_state_402dc7|9|-15 0,0,0,0,0,0,0,0,0,0,0,0,1,0,0,1,
scooby_state_402dc7|10|-19 0,0,0,0,0,0,0,0,0,0,0,0,1,0,0,1,
scooby_state_402ecf|29|-1 0,0,0,0,0,0,0,0,0,1,0,0,0,0,0,1,
scooby_state_402dcb|26|-23 0,0,0,0,0,0,0,0,0,0,0,0,1,0,0,1,
scooby_state_402dc7|30|-19 0,0,0,0,0,0,0,0,0,0,0,0,1,0,0,1,
scooby_state_402d96|38|-1 0,0,0,0,0,0,0,0,0,0,0,0,1,0,0,1,
scooby_state_402d40|2|0 0,0,0,0,0,0,0,0,0,0,0,0,1,0,0,1,
scooby_state_402d79|1|-1 0,0,0,0,0,0,0,0,0,0,0,1,0,0,0,1,
scooby_state_402d79|11|-2 0,0,0,0,0,0,0,0,0,0,0,1,0,0,0,1,
scooby_state_402dcb|1|-2 0,0,0,0,0,0,0,0,0,0,0,0,1,0,0,1,
scooby_state_402dcb|37|-2 0,0,0,0,0,0,0,0,0,0,0,1,0,0,0,1,
scooby_state_402d96|19|-1 0,0,0,0,0,0,0,0,0,0,0,0,1,0,0,1,
scooby_state_402dc7|39|-12 0,0,0,0,0,0,0,0,0,0,0,0,1,0,0,1,
scooby_state_402ecf|0|0 0,0,0,0,0,0,0,0,0,0,0,0,1,0,0,1,
scooby_state_402dc7|17|-17 0,0,0,0,0,0,0,0,0,0,0,0,1,0,0,1,
scooby_state_402d96|58|-1 0,1,0,0,0,0,0,0,0,0,0,0,0,0,0,1,
scooby_state_402ecf|44|0 0,0,0,0,0,0,0,0,0,0,0,1,0,0,0,1,
scooby_state_402dc7|26|-14 0,0,0,0,0,0,0,0,0,0,0,0,1,0,0,1,
scooby_state_402d79|46|-2 0,0,0,0,0,0,0,0,0,0,0,1,0,0,0,1,
scooby_state_402dab|12|10 0,0,0,0,0,0,0,0,0,0,0,1,0,0,0,1,
scooby_state_402dcb|3|-31 0,0,0,0,0,0,0,0,0,0,0,0,1,0,0,1,
scooby_state_402d79|45|-2 0,0,0,0,0,0,0,0,0,0,0,1,0,0,0,1,
scooby_state_402d79|20|-1 0,0,0,0,0,0,0,0,0,0,0,1,0,0,0,1,
scooby_state_402dc7|16|-14 0,0,0,0,0,0,0,0,0,0,0,0,1,0,0,1,
scooby_state_402d96|25|-1 0,0,0,0,0,0,0,0,0,0,0,0,1,0,0,1,
scooby_state_402dcb|26|-34 0,0,0,0,0,0,0,0,0,0,0,0,1,0,0,1,
scooby_state_402dc3|30|-13 1,0,0,0,0,0,0,0,0,0,0,0,0,0,0,1,
scooby_state_402dab|2|1 0,0,0,0,0,0,0,0,0,0,0,0,1,0,0,1,
scooby_state_402dc7|34|14 0,0,0,0,0,0,0,0,0,0,0,0,1,0,0,1,
scooby_state_402dc7|29|-21 0,0,0,0,0,0,0,0,0,0,0,0,1,0,0,1,
scooby_state_402dab|22|6 0,0,0,0,0,0,0,0,0,0,0,1,0,0,0,1,
scooby_state_402dab|50|10 0,0,0,0,0,0,0,0,0,0,0,1,0,0,0,1,
scooby_state_402dcb|20|-2 0,0,0,0,0,0,0,0,0,0,0,1,0,0,0,1,
scooby_state_402ea4|28|0 0,0,0,0,0,0,0,0,0,0,0,1,0,0,0,1,
scooby_state_402ecf|24|0 0,0,0,0,0,0,0,0,0,0,0,0,1,0,0,1,
scooby_state_402dfb|17|-13 1,0,0,0,0,0,0,0,0,0,0,0,0,0,0,1,
scooby_state_402dcb|30|-23 0,0,0,0,0,0,0,0,0,0,0,0,1,0,0,1,
scooby_state_402dfb|43|-13 1,0,0,0,0,0,0,0,0,0,0,0,0,0,0,1,
scooby_state_402dc0|55|1 1,0,0,0,0,0,0,0,0,0,0,0,0,0,0,1,
scooby_state_402dc7|17|9 0,0,0,0,0,0,0,0,0,0,0,0,1,0,0,1,
scooby_state_402dfb|13|-16 0,0,0,0,0,0,0,0,0,0,0,0,1,0,0,1,
scooby_state_402d96|1|-1 0,0,0,0,0,0,0,0,0,0,0,0,1,0,0,1,
scooby_state_402dcb|0|-44 0,0,0,0,0,0,0,0,0,0,0,0,1,0,0,1,
scooby_state_402dfb|34|-15 0,0,0,0,0,0,0,0,0,0,0,1,0,0,0,1,
scooby_state_402ec0|45|-1 1,0,0,0,0,0,0,0,0,0,0,0,0,0,0,1,
scooby_state_402dc0|39|0 1,0,0,0,0,0,0,0,0,0,0,0,0,0,0,1,
scooby_state_402e04|48|-1 0,0,0,0,0,0,0,0,0,0,0,0,1,0,0,1,
scooby_state_402dfb|1|-11 0,0,0,0,0,0,0,0,0,0,0,0,1,0,0,1,
scooby_state_402dc3|43|-13 1,0,0,0,0,0,0,0,0,0,0,0,0,0,0,1,
scooby_state_402d79|32|-2 0,0,0,0,0,0,0,0,0,0,0,1,0,0,0,1,
scooby_state_402e95|53|4 1,0,0,0,0,0,0,0,0,0,0,0,0,0,0,1,
scooby_state_402d96|22|-1 0,0,0,0,0,0,0,0,0,0,0,0,1,0,0,1,
scooby_state_402dcb|15|-37 0,0,0,0,0,0,0,0,0,0,0,0,1,0,0,1,
scooby_state_402dc3|8|-34 1,0,0,0,0,0,0,0,0,0,0,0,0,0,0,1,
scooby_state_402ec0|25|-1 0,0,0,0,0,0,0,0,0,0,0,0,1,0,0,1,
scooby_state_402ea4|4|0 0,0,0,0,0,0,0,0,0,0,0,1,0,0,0,1,
scooby_state_402d96|29|-1 0,0,0,0,0,0,0,0,0,0,0,0,1,0,0,1,
scooby_state_402dcb|63|42 0,0,0,0,0,0,0,0,0,0,0,0,1,0,0,1,
scooby_state_402ea4|20|0 0,0,0,0,0,0,0,0,0,0,0,1,0,0,0,1,
scooby_state_402e04|54|-2 1,0,0,0,0,0,0,0,0,0,0,0,0,0,0,1,
scooby_state_402dc7|43|-20 0,0,0,0,0,0,0,0,0,0,0,0,1,0,0,1,
scooby_state_402dc3|2|-44 1,0,0,0,0,0,0,0,0,0,0,0,0,0,0,1,
scooby_state_402e04|61|-1 0,0,0,0,0,0,0,0,0,0,0,0,1,0,0,1,
scooby_state_402d79|18|-2 0,0,0,0,0,0,0,0,0,0,0,1,0,0,0,1,
scooby_state_402dab|19|10 0,0,0,0,0,0,0,0,0,0,0,1,0,0,0,1,
scooby_state_402dfb|56|9 0,0,0,0,0,0,0,0,0,0,0,1,0,0,0,1,
scooby_state_402dc7|49|11 0,0,0,0,0,0,0,0,0,0,0,0,1,0,0,1,
scooby_state_402dcb|45|34 0,0,0,0,0,0,0,0,0,0,0,0,0,0,1,1,
scooby_state_402dc7|51|16 0,0,0,0,0,0,0,0,0,0,0,0,1,0,0,1,
scooby_state_402ea4|24|0 0,0,0,0,0,0,0,0,0,0,0,1,0,0,0,1,
scooby_state_402dcb|45|24 0,0,0,0,0,0,0,0,0,0,0,0,1,0,0,1,
scooby_state_402ecf|51|-1 0,0,0,0,0,0,0,0,0,0,0,0,0,0,1,1,
scooby_state_402ea4|13|0 0,0,0,0,0,0,0,0,0,0,0,1,0,0,0,1,
scooby_state_402ecf|52|-1 0,0,0,0,0,0,0,0,0,0,0,0,0,0,1,1,
scooby_state_402e95|37|4 1,0,0,0,0,0,0,0,0,0,0,0,0,0,0,1,
scooby_state_402e95|26|7 1,0,0,0,0,0,0,0,0,0,0,0,0,0,0,1,
scooby_state_402e95|54|7 1,0,0,0,0,0,0,0,0,0,0,0,0,0,0,1,
scooby_state_402dc3|25|-32 1,0,0,0,0,0,0,0,0,0,0,0,0,0,0,1,
scooby_state_402dcb|48|30 0,0,0,0,0,0,0,0,0,0,0,0,0,0,1,1,
scooby_state_402dcb|53|27 0,0,0,0,0,0,0,0,0,0,0,0,1,0,0,1,
scooby_state_402dc7|26|18 0,0,0,0,0,0,0,0,0,0,0,0,1,0,0,1,
scooby_state_402dcb|51|37 0,0,0,0,0,0,0,0,0,0,0,1,0,0,0,1,
scooby_state_402dc7|23|18 0,0,0,0,0,0,0,0,0,0,0,0,1,0,0,1,
scooby_state_402d96|48|-1 0,0,0,1,0,0,0,0,0,0,0,0,0,0,0,1,
scooby_state_402dc3|6|-13 1,0,0,0,0,0,0,0,0,0,0,0,0,0,0,1,
scooby_state_402e04|38|-2 1,0,0,0,0,0,0,0,0,0,0,0,0,0,0,1,
scooby_state_402e95|57|9 1,0,0,0,0,0,0,0,0,0,0,0,0,0,0,1,
scooby_state_402dc7|35|-15 0,0,0,0,0,0,0,0,0,0,0,0,1,0,0,1,
scooby_state_402ea4|11|0 0,0,0,0,0,0,0,0,0,0,0,1,0,0,0,1,
scooby_state_402dc7|39|18 0,0,0,0,0,0,0,0,0,0,0,0,1,0,0,1,
scooby_state_402d79|55|-2 0,0,0,0,0,0,0,0,0,0,0,1,0,0,0,1,

scooby_action_0_deg_dist 0,638457,0,0,0,0,0,0,0,0,0,0,0,0,0,0,
scooby_action_-6_deg_dist 0,166393,100017,0,246476,0,388437,0,0,0,0,0,0,0,0,0,
scooby_action_4_deg_dist 0,1594,26,0,26,0,87,0,0,0,0,0,0,0,0,0,
scooby_action_1_deg_dist 0,446428,213357,0,520043,0,765515,0,0,0,0,0,0,0,0,0,
scooby_action_30_deg_dist 0,1230,6,0,5,0,1,0,0,0,0,0,0,0,0,0,
scooby_action_5_deg_dist 0,1153,15,0,33,0,67,0,0,0,0,0,0,0,0,0,
scooby_action_3_deg_dist 0,1405,28,0,34,0,92,0,0,0,0,0,0,0,0,0,
scooby_action_32_deg_dist 0,1166,10,0,6,0,10,0,0,0,0,0,0,0,0,0,
scooby_action_10_deg_dist 0,1328,8,0,19,0,64,0,0,0,0,0,0,0,0,0,
scooby_action_11_deg_dist 0,1222,13,0,18,0,79,0,0,0,0,0,0,0,0,0,
scooby_action_12_deg_dist 0,1235,14,0,22,0,60,0,0,0,0,0,0,0,0,0,
scooby_action_22_deg_dist 0,1248,12,0,22,0,28,0,0,0,0,0,0,0,0,0,
scooby_action_23_deg_dist 0,1208,12,0,20,0,34,0,0,0,0,0,0,0,0,0,
scooby_action_-1_deg_dist 0,349572,165671,0,269420,0,1794360,0,0,0,0,0,0,0,0,0,
scooby_action_-3_deg_dist 0,1073419,386273,0,343119,0,1121729,0,0,0,0,0,0,0,0,0,

scooby_track_called 9002346
scooby_track_same_address 1298892
scooby_track_evict 7703198

scooby_reward_demand_called 9002346
scooby_reward_demand_pt_not_found 3906553
scooby_reward_demand_pt_found 5095793
scooby_reward_demand_pt_found_total 5095793
scooby_reward_demand_has_reward 1
scooby_reward_train_called 2322263
scooby_reward_assign_reward_called 7703368
scooby_reward_no_pref 638401
scooby_reward_incorrect 1683862
scooby_reward_correct_untimely 3088628
scooby_reward_correct_timely 2007164
scooby_reward_out_of_bounds 285313
scooby_reward_tracker_hit 0

scooby_reward_none_low_bw 638401
scooby_reward_none_high_bw 0
scooby_reward_incorrect_low_bw 1683862
scooby_reward_incorrect_high_bw 0
scooby_reward_correct_untimely_low_bw 3088628
scooby_reward_correct_untimely_high_bw 0
scooby_reward_correct_timely_low_bw 2007164
scooby_reward_correct_timely_high_bw 0
scooby_reward_out_of_bounds_low_bw 285313
scooby_reward_out_of_bounds_high_bw 0
scooby_reward_tracker_hit_low_bw 0
scooby_reward_tracker_hit_high_bw 0

scooby_reward_1 0,423990,345763,898099,29287,0,
scooby_reward_3 0,765,8,4,69,0,
scooby_reward_4 0,541,12,8,90,0,
scooby_reward_5 0,716,6,5,83,0,
scooby_reward_10 0,484,0,6,241,0,
scooby_reward_11 0,534,3,6,213,0,
scooby_reward_12 0,699,0,5,235,0,
scooby_reward_22 0,550,0,3,440,0,
scooby_reward_23 0,500,0,1,480,0,
scooby_reward_30 0,356,0,0,559,0,
scooby_reward_32 0,398,0,0,590,0,
scooby_reward_-1 0,484652,1651270,181155,40781,0,
scooby_reward_-3 0,728588,890970,344283,136677,0,
scooby_reward_-6 0,41089,200596,583589,75568,0,
scooby_reward_0 638401,0,0,0,0,0,

scooby_train_called 7703197
scooby_train_compute_reward 2322263

scooby_register_fill_called 9618765
scooby_register_fill_set 2876387
scooby_register_fill_set_total 2876387

scooby_register_prefetch_hit_called 11433877
scooby_register_prefetch_hit_set 3899252
scooby_register_prefetch_hit_set_total 3899252

scooby_pref_issue_scooby 27346784

learning_engine_featurewise.action.called 9002346
learning_engine_featurewise.action.explore 16306
learning_engine_featurewise.action.exploit 8986040
learning_engine_featurewise.action.fallback 0
learning_engine_featurewise.action.dyn_fallback_saved_bw 0
learning_engine_featurewise.action.dyn_fallback_saved_bw_acc 1018
learning_engine_featurewise.action.index_1_explored 1116
learning_engine_featurewise.action.index_1_exploited 1944227
learning_engine_featurewise.action.index_3_explored 1068
learning_engine_featurewise.action.index_3_exploited 491
learning_engine_featurewise.action.index_4_explored 1089
learning_engine_featurewise.action.index_4_exploited 644
learning_engine_featurewise.action.index_5_explored 1050
learning_engine_featurewise.action.index_5_exploited 218
learning_engine_featurewise.action.index_10_explored 1130
learning_engine_featurewise.action.index_10_exploited 289
learning_engine_featurewise.action.index_11_explored 1095
learning_engine_featurewise.action.index_11_exploited 237
learning_engine_featurewise.action.index_12_explored 1122
learning_engine_featurewise.action.index_12_exploited 209
learning_engine_featurewise.action.index_22_explored 1092
learning_engine_featurewise.action.index_22_exploited 218
learning_engine_featurewise.action.index_23_explored 1083
learning_engine_featurewise.action.index_23_exploited 191
learning_engine_featurewise.action.index_30_explored 1068
learning_engine_featurewise.action.index_30_exploited 174
learning_engine_featurewise.action.index_32_explored 1036
learning_engine_featurewise.action.index_32_exploited 156
learning_engine_featurewise.action.index_-1_explored 1089
learning_engine_featurewise.action.index_-1_exploited 2577934
learning_engine_featurewise.action.index_-3_explored 1081
learning_engine_featurewise.action.index_-3_exploited 2923459
learning_engine_featurewise.action.index_-6_explored 1088
learning_engine_featurewise.action.index_-6_exploited 900235
learning_engine_featurewise.action.index_0_explored 1099
learning_engine_featurewise.action.index_0_exploited 637358
learning_engine_featurewise.learn.called 7703197
learning_engine_featurewise.learn.su_skip_PC 0
learning_engine_featurewise.learn.su_skip_PC_Delta 0

learning_engine_featurewise.q_value_histogram.bucket_0 0
learning_engine_featurewise.q_value_histogram.bucket_1 0
learning_engine_featurewise.q_value_histogram.bucket_2 0
learning_engine_featurewise.q_value_histogram.bucket_3 2402
learning_engine_featurewise.q_value_histogram.bucket_4 197587
learning_engine_featurewise.q_value_histogram.bucket_5 1363371
learning_engine_featurewise.q_value_histogram.bucket_6 7422680
learning_engine_featurewise.q_value_histogram.bucket_7 0

learning_engine_featurewise.consensus.total 8986040
learning_engine_featurewise.consensus.feature_align_PC 8464110
learning_engine_featurewise.consensus.feature_align_PC_ratio 0.94
learning_engine_featurewise.consensus.feature_align_PC_Delta 7958736
learning_engine_featurewise.consensus.feature_align_PC_Delta_ratio 0.89
learning_engine_featurewise.consensus.feature_align_all 7436806
learning_engine_featurewise.consensus.feature_align_all_ratio 0.83

learning_engine_featurewise.feature_PC_min_weight 1000000.00000000
learning_engine_featurewise.feature_PC_max_weight 0.00000000
learning_engine_featurewise.feature_PC_Delta_min_weight 1000000.00000000
learning_engine_featurewise.feature_PC_Delta_max_weight 0.00000000
unique_pcs 61
unique_pages 3485
unique_trigger_pcs 30
total_bitmaps_seen 0
unique_bitmaps_seen 0

scooby_bw_epochs 749467
scooby_bw_level_0 167791
scooby_bw_level_1 116860
scooby_bw_level_2 128841
scooby_bw_level_3 335975

scooby_ipc_epochs 0
scooby_ipc_level_0 0
scooby_ipc_level_1 0
scooby_ipc_level_2 0
scooby_ipc_level_3 0

scooby_cache_acc_epochs 186941
scooby_cache_acc_level_0 4
scooby_cache_acc_level_1 6
scooby_cache_acc_level_2 158
scooby_cache_acc_level_3 1872
scooby_cache_acc_level_4 35155
scooby_cache_acc_level_5 72072
scooby_cache_acc_level_6 49834
scooby_cache_acc_level_7 15658
scooby_cache_acc_level_8 5983
scooby_cache_acc_level_9 6199

Channel_0_RQ_row_buffer_hit 4087741
Channel_0_RQ_row_buffer_miss 1659004
Channel_0_WQ_row_buffer_hit 70482
Channel_0_WQ_row_buffer_miss 110140
Channel_0_WQ_full 0
Channel_0_dbus_congested 4356746

avg_congested_cycle 10

DRAM_bw_pochs 749467
DRAM_bw_level_0 167791
DRAM_bw_level_1 116860
DRAM_bw_level_2 128841
DRAM_bw_level_3 335975
