*************************************************
   ChampSim Multicore Out-of-Order Simulator
   Last compiled: Apr  3 2025 20:54:34
*************************************************
parsing config file: /home/zir/Pythia/config/spp_dev2.ini

trace_0 /home/zir/ChampSim/ML-DPC/ChampSimTraces/spec06/433.milc-s0.trace.gz
adding L2C_PREFETCHER: SPP_dev2
Initialize SIGNATURE TABLE
ST_SET: 1
ST_WAY: 256
ST_TAG_BIT: 16
ST_TAG_MASK: ffff

Initialize PATTERN TABLE
PT_SET: 512
PT_WAY: 4
SIG_DELTA_BIT: 7
C_SIG_BIT: 4
C_DELTA_BIT: 4

Initialize PREFETCH FILTER
FILTER_SET: 1024
fill_threshold: 90
pf_threshold: 40

Initialize SHIP state
warmup_instructions 10000000
simulation_instructions 50000000
champsim_seed 163
measure_ipc 0
measure_ipc_epoch 1000
measure_dram_bw 1
measure_dram_bw_epoch 256
measure_cache_acc 1
measure_cache_acc_epoch 1024
l1d_perfect 0
l2c_perfect 0
llc_perfect 0
l1d_semi_perfect 0
l2c_semi_perfect 0
llc_semi_perfect 0
semi_perfect_cache_page_buffer_size 64

num_cpus 1
cpu_freq 4000
dram_io_freq 2400
page_size 4096
block_size 64
max_read_per_cycle 8
max_fill_per_cycle 1
dram_channels 1
log2_dram_channels 0
dram_ranks 1
dram_banks 8
dram_rows 65536
dram_columns 128
dram_row_size 8
dram_size 4096
dram_pages 1048576

fetch_width 6
decode_width 6
exec_width 4
lq_width 2
sq_width 2
retire_width 4
scheduler_size 128
branch_mispredict_penalty 20
rob_size 256
lq_size 72
sq_size 56
num_instr_destinations_sparc 4
num_instr_destinations 2
num_instr_sources 4

itlb_set 16
itlb_way 8
itlb_rq_size 16
itlb_wq_size 16
itlb_pq_size 0
itlb_mshr_size 8
itlb_latency 1

dtlb_set 16
dtlb_way 4
dtlb_rq_size 16
dtlb_wq_size 16
dtlb_pq_size 0
dtlb_mshr_size 8
dtlb_latency 1

stlb_set 128
stlb_way 12
stlb_rq_size 32
stlb_wq_size 32
stlb_pq_size 0
stlb_mshr_size 16
stlb_latency 8

l1i_size 32
l1i_set 64
l1i_way 8
l1i_rq_size 64
l1i_wq_size 64
l1i_pq_size 8
l1i_mshr_size 8
l1i_latency 1

l1d_size 32
l1d_set 64
l1d_way 8
l1d_rq_size 64
l1d_wq_size 64
l1d_pq_size 8
l1d_mshr_size 16
l1d_latency 4

l2c_size 256
l2c_set 512
l2c_way 8
l2c_rq_size 32
l2c_wq_size 32
l2c_pq_size 32
l2c_mshr_size 32
l2c_latency 10

llc_size 2048
llc_set 2048
llc_way 16
llc_rq_size 32
llc_wq_size 32
llc_pq_size 32
llc_mshr_size 64
llc_latency 20

dram_channel_width 8
dram_wq_size 64
dram_rq_size 64
tRP 15
tRCD 15
tCAS 12.5
dram_dbus_turn_around_time 30
dram_write_high_wm 56
dram_write_low_wm 48
min_dram_writes_per_switch 16
dram_mtps 2400
dram_dbus_return_time 13


Heartbeat CPU  0 instructions:    1000001 cycles:     414120 heartbeat IPC: 2.41476 cumulative IPC: 2.41476 (Simulation time: 0 hr 0 min 2 sec) 
Heartbeat CPU  0 instructions:    2000003 cycles:     828111 heartbeat IPC: 2.41552 cumulative IPC: 2.41514 (Simulation time: 0 hr 0 min 4 sec) 
Heartbeat CPU  0 instructions:    3000003 cycles:    1242097 heartbeat IPC: 2.41554 cumulative IPC: 2.41527 (Simulation time: 0 hr 0 min 5 sec) 
Heartbeat CPU  0 instructions:    4000000 cycles:    1656105 heartbeat IPC: 2.41541 cumulative IPC: 2.41531 (Simulation time: 0 hr 0 min 7 sec) 
Heartbeat CPU  0 instructions:    5000002 cycles:    2070149 heartbeat IPC: 2.41521 cumulative IPC: 2.41529 (Simulation time: 0 hr 0 min 8 sec) 
Heartbeat CPU  0 instructions:    6000001 cycles:    2484176 heartbeat IPC: 2.41530 cumulative IPC: 2.41529 (Simulation time: 0 hr 0 min 10 sec) 
Heartbeat CPU  0 instructions:    7000001 cycles:    2898202 heartbeat IPC: 2.41531 cumulative IPC: 2.41529 (Simulation time: 0 hr 0 min 12 sec) 
Heartbeat CPU  0 instructions:    8000000 cycles:    3312208 heartbeat IPC: 2.41542 cumulative IPC: 2.41531 (Simulation time: 0 hr 0 min 13 sec) 
Heartbeat CPU  0 instructions:    9000003 cycles:    3726223 heartbeat IPC: 2.41538 cumulative IPC: 2.41532 (Simulation time: 0 hr 0 min 15 sec) 
Heartbeat CPU  0 instructions:   10000003 cycles:    4140313 heartbeat IPC: 2.41493 cumulative IPC: 2.41528 (Simulation time: 0 hr 0 min 17 sec) 

Warmup complete CPU  0 instructions:   10000003 cycles:    4140313 (Simulation time: 0 hr 0 min 17 sec) 

Heartbeat CPU  0 instructions:   11000001 cycles:    5753152 heartbeat IPC: 0.62002 cumulative IPC: 0.62002 (Simulation time: 0 hr 0 min 19 sec) 
Heartbeat CPU  0 instructions:   12000000 cycles:    7357919 heartbeat IPC: 0.62314 cumulative IPC: 0.62158 (Simulation time: 0 hr 0 min 21 sec) 
Heartbeat CPU  0 instructions:   13000001 cycles:    8766288 heartbeat IPC: 0.71004 cumulative IPC: 0.64851 (Simulation time: 0 hr 0 min 23 sec) 
Heartbeat CPU  0 instructions:   14000001 cycles:   10129112 heartbeat IPC: 0.73377 cumulative IPC: 0.66791 (Simulation time: 0 hr 0 min 25 sec) 
Heartbeat CPU  0 instructions:   15000003 cycles:   11490762 heartbeat IPC: 0.73440 cumulative IPC: 0.68023 (Simulation time: 0 hr 0 min 27 sec) 
Heartbeat CPU  0 instructions:   16000000 cycles:   12851485 heartbeat IPC: 0.73490 cumulative IPC: 0.68877 (Simulation time: 0 hr 0 min 30 sec) 
Heartbeat CPU  0 instructions:   17000001 cycles:   14215466 heartbeat IPC: 0.73315 cumulative IPC: 0.69478 (Simulation time: 0 hr 0 min 32 sec) 
Heartbeat CPU  0 instructions:   18000001 cycles:   15576718 heartbeat IPC: 0.73462 cumulative IPC: 0.69952 (Simulation time: 0 hr 0 min 34 sec) 
Heartbeat CPU  0 instructions:   19000001 cycles:   16940284 heartbeat IPC: 0.73337 cumulative IPC: 0.70313 (Simulation time: 0 hr 0 min 36 sec) 
Heartbeat CPU  0 instructions:   20000000 cycles:   18299237 heartbeat IPC: 0.73586 cumulative IPC: 0.70627 (Simulation time: 0 hr 0 min 38 sec) 
Heartbeat CPU  0 instructions:   21000002 cycles:   19658241 heartbeat IPC: 0.73583 cumulative IPC: 0.70886 (Simulation time: 0 hr 0 min 40 sec) 
Heartbeat CPU  0 instructions:   22000003 cycles:   21022185 heartbeat IPC: 0.73317 cumulative IPC: 0.71082 (Simulation time: 0 hr 0 min 42 sec) 
Heartbeat CPU  0 instructions:   23000003 cycles:   22382781 heartbeat IPC: 0.73497 cumulative IPC: 0.71262 (Simulation time: 0 hr 0 min 44 sec) 
Heartbeat CPU  0 instructions:   24000000 cycles:   23742732 heartbeat IPC: 0.73532 cumulative IPC: 0.71420 (Simulation time: 0 hr 0 min 46 sec) 
Heartbeat CPU  0 instructions:   25000003 cycles:   25283368 heartbeat IPC: 0.64908 cumulative IPC: 0.70945 (Simulation time: 0 hr 0 min 49 sec) 
Heartbeat CPU  0 instructions:   26000000 cycles:   26879812 heartbeat IPC: 0.62639 cumulative IPC: 0.70362 (Simulation time: 0 hr 0 min 51 sec) 
Heartbeat CPU  0 instructions:   27000001 cycles:   28480905 heartbeat IPC: 0.62457 cumulative IPC: 0.69842 (Simulation time: 0 hr 0 min 53 sec) 
Heartbeat CPU  0 instructions:   28000000 cycles:   30070392 heartbeat IPC: 0.62913 cumulative IPC: 0.69417 (Simulation time: 0 hr 0 min 55 sec) 
Heartbeat CPU  0 instructions:   29000002 cycles:   31665637 heartbeat IPC: 0.62686 cumulative IPC: 0.69027 (Simulation time: 0 hr 0 min 57 sec) 
Heartbeat CPU  0 instructions:   30000002 cycles:   33256191 heartbeat IPC: 0.62871 cumulative IPC: 0.68691 (Simulation time: 0 hr 1 min 0 sec) 
Heartbeat CPU  0 instructions:   31000003 cycles:   34852551 heartbeat IPC: 0.62643 cumulative IPC: 0.68377 (Simulation time: 0 hr 1 min 2 sec) 
Heartbeat CPU  0 instructions:   32000000 cycles:   36450753 heartbeat IPC: 0.62570 cumulative IPC: 0.68089 (Simulation time: 0 hr 1 min 4 sec) 
Heartbeat CPU  0 instructions:   33000002 cycles:   38044050 heartbeat IPC: 0.62763 cumulative IPC: 0.67839 (Simulation time: 0 hr 1 min 6 sec) 
Heartbeat CPU  0 instructions:   34000003 cycles:   39634335 heartbeat IPC: 0.62882 cumulative IPC: 0.67617 (Simulation time: 0 hr 1 min 8 sec) 
Heartbeat CPU  0 instructions:   35000001 cycles:   41219194 heartbeat IPC: 0.63097 cumulative IPC: 0.67424 (Simulation time: 0 hr 1 min 11 sec) 
Heartbeat CPU  0 instructions:   36000000 cycles:   42819553 heartbeat IPC: 0.62486 cumulative IPC: 0.67220 (Simulation time: 0 hr 1 min 13 sec) 
Heartbeat CPU  0 instructions:   37000000 cycles:   44402385 heartbeat IPC: 0.63178 cumulative IPC: 0.67061 (Simulation time: 0 hr 1 min 15 sec) 
Heartbeat CPU  0 instructions:   38000000 cycles:   46008856 heartbeat IPC: 0.62248 cumulative IPC: 0.66876 (Simulation time: 0 hr 1 min 17 sec) 
Heartbeat CPU  0 instructions:   39000002 cycles:   47611804 heartbeat IPC: 0.62385 cumulative IPC: 0.66710 (Simulation time: 0 hr 1 min 20 sec) 
Heartbeat CPU  0 instructions:   40000000 cycles:   49206324 heartbeat IPC: 0.62715 cumulative IPC: 0.66569 (Simulation time: 0 hr 1 min 22 sec) 
Heartbeat CPU  0 instructions:   41000000 cycles:   50784063 heartbeat IPC: 0.63382 cumulative IPC: 0.66461 (Simulation time: 0 hr 1 min 24 sec) 
Heartbeat CPU  0 instructions:   42000001 cycles:   52376454 heartbeat IPC: 0.62799 cumulative IPC: 0.66340 (Simulation time: 0 hr 1 min 26 sec) 
Heartbeat CPU  0 instructions:   43000000 cycles:   53976654 heartbeat IPC: 0.62492 cumulative IPC: 0.66217 (Simulation time: 0 hr 1 min 28 sec) 
Heartbeat CPU  0 instructions:   44000000 cycles:   55300459 heartbeat IPC: 0.75540 cumulative IPC: 0.66458 (Simulation time: 0 hr 1 min 31 sec) 
Heartbeat CPU  0 instructions:   45000003 cycles:   56761413 heartbeat IPC: 0.68449 cumulative IPC: 0.66513 (Simulation time: 0 hr 1 min 33 sec) 
Heartbeat CPU  0 instructions:   46000001 cycles:   58274186 heartbeat IPC: 0.66104 cumulative IPC: 0.66502 (Simulation time: 0 hr 1 min 36 sec) 
Heartbeat CPU  0 instructions:   47000000 cycles:   59790477 heartbeat IPC: 0.65950 cumulative IPC: 0.66487 (Simulation time: 0 hr 1 min 39 sec) 
Heartbeat CPU  0 instructions:   48000000 cycles:   61302948 heartbeat IPC: 0.66117 cumulative IPC: 0.66477 (Simulation time: 0 hr 1 min 41 sec) 
Heartbeat CPU  0 instructions:   49000003 cycles:   62810205 heartbeat IPC: 0.66346 cumulative IPC: 0.66474 (Simulation time: 0 hr 1 min 44 sec) 
Heartbeat CPU  0 instructions:   50000002 cycles:   64175362 heartbeat IPC: 0.73252 cumulative IPC: 0.66628 (Simulation time: 0 hr 1 min 46 sec) 
Heartbeat CPU  0 instructions:   51000000 cycles:   65043533 heartbeat IPC: 1.15184 cumulative IPC: 0.67320 (Simulation time: 0 hr 1 min 48 sec) 
Heartbeat CPU  0 instructions:   52000000 cycles:   67026304 heartbeat IPC: 0.50434 cumulative IPC: 0.66788 (Simulation time: 0 hr 1 min 50 sec) 
Heartbeat CPU  0 instructions:   53000001 cycles:   69509021 heartbeat IPC: 0.40278 cumulative IPC: 0.65781 (Simulation time: 0 hr 1 min 53 sec) 
Heartbeat CPU  0 instructions:   54000003 cycles:   71955996 heartbeat IPC: 0.40867 cumulative IPC: 0.64882 (Simulation time: 0 hr 1 min 55 sec) 
Heartbeat CPU  0 instructions:   55000003 cycles:   74383969 heartbeat IPC: 0.41187 cumulative IPC: 0.64063 (Simulation time: 0 hr 1 min 58 sec) 
Heartbeat CPU  0 instructions:   56000000 cycles:   76769595 heartbeat IPC: 0.41918 cumulative IPC: 0.63335 (Simulation time: 0 hr 2 min 0 sec) 
Heartbeat CPU  0 instructions:   57000000 cycles:   79159462 heartbeat IPC: 0.41843 cumulative IPC: 0.62651 (Simulation time: 0 hr 2 min 3 sec) 
Heartbeat CPU  0 instructions:   58000001 cycles:   81627034 heartbeat IPC: 0.40526 cumulative IPC: 0.61946 (Simulation time: 0 hr 2 min 5 sec) 
Heartbeat CPU  0 instructions:   59000001 cycles:   84110575 heartbeat IPC: 0.40265 cumulative IPC: 0.61273 (Simulation time: 0 hr 2 min 7 sec) 
Heartbeat CPU  0 instructions:   60000000 cycles:   86580077 heartbeat IPC: 0.40494 cumulative IPC: 0.60650 (Simulation time: 0 hr 2 min 10 sec) 
Finished CPU 0 instructions: 50000002 cycles: 82439784 cumulative IPC: 0.60650 (Simulation time: 0 hr 2 min 10 sec) 

ChampSim completed all CPUs

[ROI Statistics]
Core_0_instructions 50000002
Core_0_cycles 82439784
Core_0_IPC 0.60650

Core_0_branch_prediction_accuracy 99.99772
Core_0_branch_MPKI 0.00044
Core_0_average_ROB_occupancy_at_mispredict 88.22727

Core_0_L1D_total_access 13780978
Core_0_L1D_total_hit 12702333
Core_0_L1D_total_miss 1078645
Core_0_L1D_loads 4676011
Core_0_L1D_load_hit 3665351
Core_0_L1D_load_miss 1010660
Core_0_L1D_RFOs 9104967
Core_0_L1D_RFO_hit 9036982
Core_0_L1D_RFO_miss 67985
Core_0_L1D_prefetches 0
Core_0_L1D_prefetch_hit 0
Core_0_L1D_prefetch_miss 0
Core_0_L1D_writebacks 0
Core_0_L1D_writeback_hit 0
Core_0_L1D_writeback_miss 0
Core_0_L1D_prefetch_requested 0
Core_0_L1D_prefetch_dropped 0
Core_0_L1D_prefetch_issued 0
Core_0_L1D_prefetch_filled 0
Core_0_L1D_prefetch_useful 0
Core_0_L1D_prefetch_useless 0
Core_0_L1D_prefetch_late 0
Core_0_L1D_average_miss_latency 120.01092

Core_0_L1D_rq_access 12420364
Core_0_L1D_rq_forward 0
Core_0_L1D_rq_merged 7135376
Core_0_L1D_rq_to_cache 5235509
Core_0_L1D_rq_full 0

Core_0_L1D_wq_access 9475878
Core_0_L1D_wq_forward 49479
Core_0_L1D_wq_merged 0
Core_0_L1D_wq_to_cache 9475878
Core_0_L1D_wq_full 0

Core_0_L1D_pq_access 0
Core_0_L1D_pq_forward 0
Core_0_L1D_pq_merged 0
Core_0_L1D_pq_to_cache 0
Core_0_L1D_pq_full 0

Core_0_L1D_acc_epochs 75127
Core_0_L1D_acc_level_0 75127
Core_0_L1D_acc_level_1 0
Core_0_L1D_acc_level_2 0
Core_0_L1D_acc_level_3 0
Core_0_L1D_acc_level_4 0
Core_0_L1D_acc_level_5 0
Core_0_L1D_acc_level_6 0
Core_0_L1D_acc_level_7 0
Core_0_L1D_acc_level_8 0
Core_0_L1D_acc_level_9 0

Core_0_L1I_total_access 11656995
Core_0_L1I_total_hit 11656971
Core_0_L1I_total_miss 24
Core_0_L1I_loads 11656995
Core_0_L1I_load_hit 11656971
Core_0_L1I_load_miss 24
Core_0_L1I_RFOs 0
Core_0_L1I_RFO_hit 0
Core_0_L1I_RFO_miss 0
Core_0_L1I_prefetches 0
Core_0_L1I_prefetch_hit 0
Core_0_L1I_prefetch_miss 0
Core_0_L1I_writebacks 0
Core_0_L1I_writeback_hit 0
Core_0_L1I_writeback_miss 0
Core_0_L1I_prefetch_requested 0
Core_0_L1I_prefetch_dropped 0
Core_0_L1I_prefetch_issued 0
Core_0_L1I_prefetch_filled 0
Core_0_L1I_prefetch_useful 0
Core_0_L1I_prefetch_useless 0
Core_0_L1I_prefetch_late 0
Core_0_L1I_average_miss_latency 361.87500

Core_0_L1I_rq_access 50000005
Core_0_L1I_rq_forward 0
Core_0_L1I_rq_merged 38342968
Core_0_L1I_rq_to_cache 11657037
Core_0_L1I_rq_full 0

Core_0_L1I_wq_access 0
Core_0_L1I_wq_forward 0
Core_0_L1I_wq_merged 0
Core_0_L1I_wq_to_cache 0
Core_0_L1I_wq_full 0

Core_0_L1I_pq_access 0
Core_0_L1I_pq_forward 0
Core_0_L1I_pq_merged 0
Core_0_L1I_pq_to_cache 0
Core_0_L1I_pq_full 0

Core_0_L1I_acc_epochs 75127
Core_0_L1I_acc_level_0 75127
Core_0_L1I_acc_level_1 0
Core_0_L1I_acc_level_2 0
Core_0_L1I_acc_level_3 0
Core_0_L1I_acc_level_4 0
Core_0_L1I_acc_level_5 0
Core_0_L1I_acc_level_6 0
Core_0_L1I_acc_level_7 0
Core_0_L1I_acc_level_8 0
Core_0_L1I_acc_level_9 0

Core_0_L2C_total_access 1920448
Core_0_L2C_total_hit 841764
Core_0_L2C_total_miss 1078684
Core_0_L2C_loads 1010684
Core_0_L2C_load_hit 192207
Core_0_L2C_load_miss 818477
Core_0_L2C_RFOs 67985
Core_0_L2C_RFO_hit 0
Core_0_L2C_RFO_miss 67985
Core_0_L2C_prefetches 426092
Core_0_L2C_prefetch_hit 233876
Core_0_L2C_prefetch_miss 192216
Core_0_L2C_writebacks 415687
Core_0_L2C_writeback_hit 415681
Core_0_L2C_writeback_miss 6
Core_0_L2C_prefetch_requested 3908274
Core_0_L2C_prefetch_dropped 0
Core_0_L2C_prefetch_issued 3908274
Core_0_L2C_prefetch_filled 222791
Core_0_L2C_prefetch_useful 222776
Core_0_L2C_prefetch_useless 15
Core_0_L2C_prefetch_late 101635
Core_0_L2C_average_miss_latency 116.37001

Core_0_L2C_rq_access 1078670
Core_0_L2C_rq_forward 0
Core_0_L2C_rq_merged 0
Core_0_L2C_rq_to_cache 1078670
Core_0_L2C_rq_full 0

Core_0_L2C_wq_access 415687
Core_0_L2C_wq_forward 0
Core_0_L2C_wq_merged 0
Core_0_L2C_wq_to_cache 415687
Core_0_L2C_wq_full 0

Core_0_L2C_pq_access 3908274
Core_0_L2C_pq_forward 0
Core_0_L2C_pq_merged 639695
Core_0_L2C_pq_to_cache 3268579
Core_0_L2C_pq_full 0

Core_0_L2C_acc_epochs 75127
Core_0_L2C_acc_level_0 6426
Core_0_L2C_acc_level_1 2077
Core_0_L2C_acc_level_2 4014
Core_0_L2C_acc_level_3 978
Core_0_L2C_acc_level_4 3610
Core_0_L2C_acc_level_5 6273
Core_0_L2C_acc_level_6 2910
Core_0_L2C_acc_level_7 8027
Core_0_L2C_acc_level_8 7700
Core_0_L2C_acc_level_9 33112

Core_0_LLC_total_access 3045487
Core_0_LLC_total_hit 1641590
Core_0_LLC_total_miss 1403897
Core_0_LLC_loads 720871
Core_0_LLC_load_hit 359126
Core_0_LLC_load_miss 361745
Core_0_LLC_RFOs 67985
Core_0_LLC_RFO_hit 0
Core_0_LLC_RFO_miss 67985
Core_0_LLC_prefetches 1842136
Core_0_LLC_prefetch_hit 1004631
Core_0_LLC_prefetch_miss 837505
Core_0_LLC_writebacks 414495
Core_0_LLC_writeback_hit 277833
Core_0_LLC_writeback_miss 136662
Core_0_LLC_prefetch_requested 0
Core_0_LLC_prefetch_dropped 0
Core_0_LLC_prefetch_issued 0
Core_0_LLC_prefetch_filled 975426
Core_0_LLC_prefetch_useful 432027
Core_0_LLC_prefetch_useless 542592
Core_0_LLC_prefetch_late 78919
Core_0_LLC_average_miss_latency 189.52856

Core_0_LLC_rq_access 788857
Core_0_LLC_rq_forward 0
Core_0_LLC_rq_merged 0
Core_0_LLC_rq_to_cache 788857
Core_0_LLC_rq_full 0

Core_0_LLC_wq_access 414495
Core_0_LLC_wq_forward 0
Core_0_LLC_wq_merged 0
Core_0_LLC_wq_to_cache 414495
Core_0_LLC_wq_full 0

Core_0_LLC_pq_access 2787761
Core_0_LLC_pq_forward 0
Core_0_LLC_pq_merged 88454
Core_0_LLC_pq_to_cache 2699307
Core_0_LLC_pq_full 0

Core_0_LLC_acc_epochs 84551
Core_0_LLC_acc_level_0 21
Core_0_LLC_acc_level_1 1000
Core_0_LLC_acc_level_2 10909
Core_0_LLC_acc_level_3 12159
Core_0_LLC_acc_level_4 16784
Core_0_LLC_acc_level_5 22394
Core_0_LLC_acc_level_6 12794
Core_0_LLC_acc_level_7 6105
Core_0_LLC_acc_level_8 1637
Core_0_LLC_acc_level_9 748

Core_0_major_page_fault 0
Core_0_minor_page_fault 87848

spp.pref.total 3908274
spp.pref.at_L2 501066
spp.pref.at_LLC 3407208

spp.depth.max 11
spp.depth.min 0
spp.depth.avg 3

spp.breadth.max 1
spp.breadth.min 0
spp.breadth.avg 0

delta_1 2760692
delta_-1 456876
delta_13 417141
delta_20 241660
delta_-44 216056
delta_-36 47243
delta_-34 23315
delta_31 991
delta_30 643

depth_1_delta_1 753299
depth_1_delta_-1 148911
depth_1_delta_13 74303
depth_1_delta_20 74206
depth_1_delta_-44 59500
depth_1_delta_-36 15753
depth_1_delta_-34 11482
depth_1_delta_31 496
depth_1_delta_30 86
depth_2_delta_1 523666
depth_2_delta_13 133693
depth_2_delta_-1 74290
depth_2_delta_20 74194
depth_2_delta_-44 59500
depth_2_delta_-36 15752
depth_2_delta_-34 11303
depth_2_delta_31 495
depth_2_delta_30 85
depth_3_delta_1 351900
depth_3_delta_13 65719
depth_3_delta_-1 63744
depth_3_delta_-44 22818
depth_3_delta_-36 15738
depth_3_delta_-34 359
depth_3_delta_20 62
depth_3_delta_30 57
depth_4_delta_1 284199
depth_4_delta_-1 55286
depth_4_delta_13 20344
depth_4_delta_20 20319
depth_4_delta_-44 20283
depth_4_delta_30 199
depth_4_delta_-34 50
depth_5_delta_1 231886
depth_5_delta_13 39958
depth_5_delta_-1 20015
depth_5_delta_20 19975
depth_5_delta_-44 19963
depth_5_delta_30 110
depth_5_delta_-34 48
depth_6_delta_1 196999
depth_6_delta_-1 39474
depth_6_delta_13 39453
depth_6_delta_20 19732
depth_6_delta_30 70
depth_6_delta_-44 51
depth_6_delta_-34 44
depth_7_delta_1 164874
depth_7_delta_-1 38204
depth_7_delta_13 19543
depth_7_delta_-44 19512
depth_7_delta_20 19499
depth_7_delta_-34 23
depth_7_delta_30 23
depth_8_delta_1 144000
depth_8_delta_13 20131
depth_8_delta_-1 16903
depth_8_delta_-44 14414
depth_8_delta_20 13668
depth_8_delta_30 10
depth_8_delta_-34 5
depth_9_delta_1 82807
depth_9_delta_13 3997
depth_9_delta_-1 49
depth_9_delta_-44 15
depth_9_delta_20 4
depth_9_delta_30 3
depth_9_delta_-34 1
depth_10_delta_1 26669
depth_10_delta_20 1
depth_11_delta_1 393

Channel_0_RQ_row_buffer_hit 591482
Channel_0_RQ_row_buffer_miss 675754
Channel_0_WQ_row_buffer_hit 173251
Channel_0_WQ_row_buffer_miss 235601
Channel_0_WQ_full 0
Channel_0_dbus_congested 803480

avg_congested_cycle 10

DRAM_bw_pochs 338204
DRAM_bw_level_0 105163
DRAM_bw_level_1 146318
DRAM_bw_level_2 66703
DRAM_bw_level_3 20020
