*************************************************
   ChampSim Multicore Out-of-Order Simulator
   Last compiled: Apr  3 2025 20:54:34
*************************************************
parsing config file: /home/zir/Pythia/config/pythia.ini

trace_0 /home/zir/ChampSim/ML-DPC/ChampSimTraces/spec17/619.lbm-s2.trace.xz
adding L2C_PREFETCHER: Scooby
Initialize SHIP state
warmup_instructions 10000000
simulation_instructions 50000000
champsim_seed 165
measure_ipc 0
measure_ipc_epoch 1000
measure_dram_bw 1
measure_dram_bw_epoch 256
measure_cache_acc 1
measure_cache_acc_epoch 1024
l1d_perfect 0
l2c_perfect 0
llc_perfect 0
l1d_semi_perfect 0
l2c_semi_perfect 0
llc_semi_perfect 0
semi_perfect_cache_page_buffer_size 64

num_cpus 1
cpu_freq 4000
dram_io_freq 2400
page_size 4096
block_size 64
max_read_per_cycle 8
max_fill_per_cycle 1
dram_channels 1
log2_dram_channels 0
dram_ranks 1
dram_banks 8
dram_rows 65536
dram_columns 128
dram_row_size 8
dram_size 4096
dram_pages 1048576

fetch_width 6
decode_width 6
exec_width 4
lq_width 2
sq_width 2
retire_width 4
scheduler_size 128
branch_mispredict_penalty 20
rob_size 256
lq_size 72
sq_size 56
num_instr_destinations_sparc 4
num_instr_destinations 2
num_instr_sources 4

itlb_set 16
itlb_way 8
itlb_rq_size 16
itlb_wq_size 16
itlb_pq_size 0
itlb_mshr_size 8
itlb_latency 1

dtlb_set 16
dtlb_way 4
dtlb_rq_size 16
dtlb_wq_size 16
dtlb_pq_size 0
dtlb_mshr_size 8
dtlb_latency 1

stlb_set 128
stlb_way 12
stlb_rq_size 32
stlb_wq_size 32
stlb_pq_size 0
stlb_mshr_size 16
stlb_latency 8

l1i_size 32
l1i_set 64
l1i_way 8
l1i_rq_size 64
l1i_wq_size 64
l1i_pq_size 8
l1i_mshr_size 8
l1i_latency 1

l1d_size 32
l1d_set 64
l1d_way 8
l1d_rq_size 64
l1d_wq_size 64
l1d_pq_size 8
l1d_mshr_size 16
l1d_latency 4

l2c_size 256
l2c_set 512
l2c_way 8
l2c_rq_size 32
l2c_wq_size 32
l2c_pq_size 32
l2c_mshr_size 32
l2c_latency 10

llc_size 2048
llc_set 2048
llc_way 16
llc_rq_size 32
llc_wq_size 32
llc_pq_size 32
llc_mshr_size 64
llc_latency 20

dram_channel_width 8
dram_wq_size 64
dram_rq_size 64
tRP 15
tRCD 15
tCAS 12.5
dram_dbus_turn_around_time 30
dram_write_high_wm 56
dram_write_low_wm 48
min_dram_writes_per_switch 16
dram_mtps 2400
dram_dbus_return_time 13

scooby_alpha 0.0065088
scooby_gamma 0.556301
scooby_epsilon 0.00182284
scooby_state_num_bits 10
scooby_max_states 1024
scooby_seed 200
scooby_policy EGreedy
scooby_learning_type SARSA
scooby_actions 1,3,4,5,10,11,12,22,23,30,32,-1,-3,-6,0,
scooby_max_actions 15
scooby_pt_size 256
scooby_st_size 64
scooby_max_pcs 5
scooby_max_offsets 5
scooby_max_deltas 5
scooby_reward_none -4
scooby_reward_incorrect -8
scooby_reward_correct_untimely 12
scooby_reward_correct_timely 20
scooby_brain_zero_init 0
scooby_enable_reward_all 0
scooby_enable_track_multiple 0
scooby_enable_reward_out_of_bounds 1
scooby_reward_out_of_bounds -12
scooby_state_type 1
scooby_state_hash_type 11
scooby_access_debug 0
scooby_print_access_debug 0
scooby_print_access_debug_pc deadbeef
scooby_print_access_debug_pc_count 0
scooby_print_trace 0
scooby_enable_state_action_stats 1
scooby_enable_reward_tracker_hit 0
scooby_reward_tracker_hit -2
scooby_enable_featurewise_engine 1
scooby_pref_degree 1
scooby_enable_dyn_degree 1
scooby_max_to_avg_q_thresholds 0.5,1,2,
scooby_dyn_degrees 1,2,4,4,
scooby_multi_deg_select_type 2
scooby_last_pref_offset_conf_thresholds 1,3,8,
scooby_dyn_degrees_type2 1,2,4,6,
scooby_action_tracker_size 2
scooby_high_bw_thresh 4
scooby_enable_hbw_reward 1
scooby_reward_hbw_correct_timely 20
scooby_reward_hbw_correct_untimely 12
scooby_reward_hbw_incorrect -14
scooby_reward_hbw_none -2
scooby_reward_hbw_out_of_bounds -12
scooby_reward_hbw_tracker_hit -2
scooby_last_pref_offset_conf_thresholds_hbw 1,3,8,
scooby_dyn_degrees_type2_hbw 1,2,4,6,

le_enable_trace 0
le_trace_interval 0
le_trace_file_name 
le_trace_state 0
le_enable_score_plot 0
le_plot_file_name 
le_plot_actions 
le_enable_action_trace 0
le_action_trace_interval 0
le_action_trace_name 
le_enable_action_plot 0

le_featurewise_active_features PC, PC_Delta
le_featurewise_num_tilings 3,3,
le_featurewise_num_tiles 128,128,
le_featurewise_hash_types 2,2,
le_featurewise_enable_tiling_offset 1,1,
le_featurewise_max_q_thresh 0.5
le_featurewise_enable_action_fallback 1
le_featurewise_feature_weights 1,1,
le_featurewise_enable_dynamic_weight 0
le_featurewise_weight_gradient 0.001
le_featurewise_disable_adjust_weight_all_features_align 1
le_featurewise_selective_update 0
le_featurewise_pooling_type 2
le_featurewise_enable_dyn_action_fallback 1
le_featurewise_bw_acc_check_level 1
le_featurewise_acc_thresh 2
le_featurewise_enable_trace 0
le_featurewise_trace_feature_type 0
le_featurewise_trace_feature 
le_featurewise_trace_interval 0
le_featurewise_trace_record_count 0
le_featurewise_trace_file_name 
le_featurewise_enable_score_plot 0
le_featurewise_plot_actions 
le_featurewise_plot_file_name 


Heartbeat CPU  0 instructions:    1000001 cycles:     386036 heartbeat IPC: 2.59043 cumulative IPC: 2.59043 (Simulation time: 0 hr 0 min 2 sec) 
Heartbeat CPU  0 instructions:    2000000 cycles:     772076 heartbeat IPC: 2.59040 cumulative IPC: 2.59042 (Simulation time: 0 hr 0 min 3 sec) 
Heartbeat CPU  0 instructions:    3000000 cycles:    1158208 heartbeat IPC: 2.58979 cumulative IPC: 2.59021 (Simulation time: 0 hr 0 min 5 sec) 
Heartbeat CPU  0 instructions:    4000000 cycles:    1544289 heartbeat IPC: 2.59013 cumulative IPC: 2.59019 (Simulation time: 0 hr 0 min 7 sec) 
Heartbeat CPU  0 instructions:    5000002 cycles:    1930344 heartbeat IPC: 2.59031 cumulative IPC: 2.59021 (Simulation time: 0 hr 0 min 9 sec) 
Heartbeat CPU  0 instructions:    6000000 cycles:    2316377 heartbeat IPC: 2.59045 cumulative IPC: 2.59025 (Simulation time: 0 hr 0 min 10 sec) 
Heartbeat CPU  0 instructions:    7000001 cycles:    2702387 heartbeat IPC: 2.59061 cumulative IPC: 2.59030 (Simulation time: 0 hr 0 min 12 sec) 
Heartbeat CPU  0 instructions:    8000000 cycles:    3088509 heartbeat IPC: 2.58985 cumulative IPC: 2.59025 (Simulation time: 0 hr 0 min 14 sec) 
Heartbeat CPU  0 instructions:    9000000 cycles:    3474657 heartbeat IPC: 2.58968 cumulative IPC: 2.59018 (Simulation time: 0 hr 0 min 16 sec) 
Heartbeat CPU  0 instructions:   10000000 cycles:    3860814 heartbeat IPC: 2.58962 cumulative IPC: 2.59013 (Simulation time: 0 hr 0 min 17 sec) 

Warmup complete CPU  0 instructions:   10000004 cycles:    3860815 (Simulation time: 0 hr 0 min 17 sec) 

Heartbeat CPU  0 instructions:   11000002 cycles:    4967143 heartbeat IPC: 0.90389 cumulative IPC: 0.90389 (Simulation time: 0 hr 0 min 20 sec) 
Heartbeat CPU  0 instructions:   12000000 cycles:    6085607 heartbeat IPC: 0.89408 cumulative IPC: 0.89896 (Simulation time: 0 hr 0 min 22 sec) 
Heartbeat CPU  0 instructions:   13000001 cycles:    7406908 heartbeat IPC: 0.75683 cumulative IPC: 0.84600 (Simulation time: 0 hr 0 min 24 sec) 
Heartbeat CPU  0 instructions:   14000002 cycles:    8555586 heartbeat IPC: 0.87057 cumulative IPC: 0.85201 (Simulation time: 0 hr 0 min 27 sec) 
Heartbeat CPU  0 instructions:   15000003 cycles:    9696417 heartbeat IPC: 0.87655 cumulative IPC: 0.85681 (Simulation time: 0 hr 0 min 29 sec) 
Heartbeat CPU  0 instructions:   16000000 cycles:   10836459 heartbeat IPC: 0.87716 cumulative IPC: 0.86014 (Simulation time: 0 hr 0 min 31 sec) 
Heartbeat CPU  0 instructions:   17000003 cycles:   11965421 heartbeat IPC: 0.88577 cumulative IPC: 0.86371 (Simulation time: 0 hr 0 min 34 sec) 
Heartbeat CPU  0 instructions:   18000001 cycles:   13117865 heartbeat IPC: 0.86772 cumulative IPC: 0.86421 (Simulation time: 0 hr 0 min 36 sec) 
Heartbeat CPU  0 instructions:   19000003 cycles:   14359051 heartbeat IPC: 0.80568 cumulative IPC: 0.85729 (Simulation time: 0 hr 0 min 38 sec) 
Heartbeat CPU  0 instructions:   20000000 cycles:   15598260 heartbeat IPC: 0.80696 cumulative IPC: 0.85197 (Simulation time: 0 hr 0 min 41 sec) 
Heartbeat CPU  0 instructions:   21000001 cycles:   16822058 heartbeat IPC: 0.81713 cumulative IPC: 0.84868 (Simulation time: 0 hr 0 min 43 sec) 
Heartbeat CPU  0 instructions:   22000002 cycles:   18058671 heartbeat IPC: 0.80866 cumulative IPC: 0.84520 (Simulation time: 0 hr 0 min 45 sec) 
Heartbeat CPU  0 instructions:   23000000 cycles:   19332743 heartbeat IPC: 0.78488 cumulative IPC: 0.84023 (Simulation time: 0 hr 0 min 48 sec) 
Heartbeat CPU  0 instructions:   24000000 cycles:   20546443 heartbeat IPC: 0.82393 cumulative IPC: 0.83905 (Simulation time: 0 hr 0 min 50 sec) 
Heartbeat CPU  0 instructions:   25000001 cycles:   21810637 heartbeat IPC: 0.79102 cumulative IPC: 0.83566 (Simulation time: 0 hr 0 min 52 sec) 
Heartbeat CPU  0 instructions:   26000000 cycles:   23055855 heartbeat IPC: 0.80307 cumulative IPC: 0.83355 (Simulation time: 0 hr 0 min 55 sec) 
Heartbeat CPU  0 instructions:   27000002 cycles:   24308364 heartbeat IPC: 0.79840 cumulative IPC: 0.83140 (Simulation time: 0 hr 0 min 57 sec) 
Heartbeat CPU  0 instructions:   28000000 cycles:   25532322 heartbeat IPC: 0.81702 cumulative IPC: 0.83058 (Simulation time: 0 hr 1 min 0 sec) 
Heartbeat CPU  0 instructions:   29000002 cycles:   26792551 heartbeat IPC: 0.79351 cumulative IPC: 0.82855 (Simulation time: 0 hr 1 min 2 sec) 
Heartbeat CPU  0 instructions:   30000001 cycles:   28050187 heartbeat IPC: 0.79514 cumulative IPC: 0.82681 (Simulation time: 0 hr 1 min 4 sec) 
Heartbeat CPU  0 instructions:   31000002 cycles:   29292301 heartbeat IPC: 0.80508 cumulative IPC: 0.82575 (Simulation time: 0 hr 1 min 7 sec) 
Heartbeat CPU  0 instructions:   32000000 cycles:   30764111 heartbeat IPC: 0.67943 cumulative IPC: 0.81774 (Simulation time: 0 hr 1 min 9 sec) 
Heartbeat CPU  0 instructions:   33000003 cycles:   31998029 heartbeat IPC: 0.81043 cumulative IPC: 0.81742 (Simulation time: 0 hr 1 min 12 sec) 
Heartbeat CPU  0 instructions:   34000001 cycles:   33241106 heartbeat IPC: 0.80445 cumulative IPC: 0.81687 (Simulation time: 0 hr 1 min 14 sec) 
Heartbeat CPU  0 instructions:   35000003 cycles:   34506227 heartbeat IPC: 0.79044 cumulative IPC: 0.81578 (Simulation time: 0 hr 1 min 16 sec) 
Heartbeat CPU  0 instructions:   36000000 cycles:   35756802 heartbeat IPC: 0.79963 cumulative IPC: 0.81515 (Simulation time: 0 hr 1 min 19 sec) 
Heartbeat CPU  0 instructions:   37000003 cycles:   37010332 heartbeat IPC: 0.79775 cumulative IPC: 0.81449 (Simulation time: 0 hr 1 min 21 sec) 
Heartbeat CPU  0 instructions:   38000003 cycles:   38255233 heartbeat IPC: 0.80328 cumulative IPC: 0.81409 (Simulation time: 0 hr 1 min 23 sec) 
Heartbeat CPU  0 instructions:   39000000 cycles:   39489579 heartbeat IPC: 0.81014 cumulative IPC: 0.81395 (Simulation time: 0 hr 1 min 26 sec) 
Heartbeat CPU  0 instructions:   40000000 cycles:   40804657 heartbeat IPC: 0.76041 cumulative IPC: 0.81204 (Simulation time: 0 hr 1 min 28 sec) 
Heartbeat CPU  0 instructions:   41000001 cycles:   42041300 heartbeat IPC: 0.80864 cumulative IPC: 0.81193 (Simulation time: 0 hr 1 min 31 sec) 
Heartbeat CPU  0 instructions:   42000001 cycles:   43294164 heartbeat IPC: 0.79817 cumulative IPC: 0.81150 (Simulation time: 0 hr 1 min 33 sec) 
Heartbeat CPU  0 instructions:   43000000 cycles:   44502700 heartbeat IPC: 0.82745 cumulative IPC: 0.81197 (Simulation time: 0 hr 1 min 35 sec) 
Heartbeat CPU  0 instructions:   44000000 cycles:   45800210 heartbeat IPC: 0.77071 cumulative IPC: 0.81069 (Simulation time: 0 hr 1 min 38 sec) 
Heartbeat CPU  0 instructions:   45000002 cycles:   47070253 heartbeat IPC: 0.78738 cumulative IPC: 0.81001 (Simulation time: 0 hr 1 min 40 sec) 
Heartbeat CPU  0 instructions:   46000002 cycles:   48327024 heartbeat IPC: 0.79569 cumulative IPC: 0.80960 (Simulation time: 0 hr 1 min 43 sec) 
Heartbeat CPU  0 instructions:   47000002 cycles:   49569602 heartbeat IPC: 0.80478 cumulative IPC: 0.80947 (Simulation time: 0 hr 1 min 45 sec) 
Heartbeat CPU  0 instructions:   48000000 cycles:   50799047 heartbeat IPC: 0.81337 cumulative IPC: 0.80957 (Simulation time: 0 hr 1 min 47 sec) 
Heartbeat CPU  0 instructions:   49000002 cycles:   52092167 heartbeat IPC: 0.77332 cumulative IPC: 0.80860 (Simulation time: 0 hr 1 min 50 sec) 
Heartbeat CPU  0 instructions:   50000001 cycles:   53548534 heartbeat IPC: 0.68664 cumulative IPC: 0.80503 (Simulation time: 0 hr 1 min 52 sec) 
Heartbeat CPU  0 instructions:   51000000 cycles:   54770348 heartbeat IPC: 0.81845 cumulative IPC: 0.80535 (Simulation time: 0 hr 1 min 54 sec) 
Heartbeat CPU  0 instructions:   52000000 cycles:   56063222 heartbeat IPC: 0.77347 cumulative IPC: 0.80456 (Simulation time: 0 hr 1 min 57 sec) 
Heartbeat CPU  0 instructions:   53000003 cycles:   57329785 heartbeat IPC: 0.78954 cumulative IPC: 0.80420 (Simulation time: 0 hr 1 min 59 sec) 
Heartbeat CPU  0 instructions:   54000000 cycles:   58541638 heartbeat IPC: 0.82518 cumulative IPC: 0.80467 (Simulation time: 0 hr 2 min 2 sec) 
Heartbeat CPU  0 instructions:   55000000 cycles:   59795644 heartbeat IPC: 0.79744 cumulative IPC: 0.80451 (Simulation time: 0 hr 2 min 4 sec) 
Heartbeat CPU  0 instructions:   56000000 cycles:   61040437 heartbeat IPC: 0.80335 cumulative IPC: 0.80448 (Simulation time: 0 hr 2 min 6 sec) 
Heartbeat CPU  0 instructions:   57000001 cycles:   62270168 heartbeat IPC: 0.81319 cumulative IPC: 0.80467 (Simulation time: 0 hr 2 min 9 sec) 
Heartbeat CPU  0 instructions:   58000003 cycles:   63551185 heartbeat IPC: 0.78063 cumulative IPC: 0.80415 (Simulation time: 0 hr 2 min 11 sec) 
Heartbeat CPU  0 instructions:   59000000 cycles:   64779163 heartbeat IPC: 0.81434 cumulative IPC: 0.80436 (Simulation time: 0 hr 2 min 13 sec) 
Heartbeat CPU  0 instructions:   60000000 cycles:   66088089 heartbeat IPC: 0.76399 cumulative IPC: 0.80351 (Simulation time: 0 hr 2 min 16 sec) 
Finished CPU 0 instructions: 50000003 cycles: 62227293 cumulative IPC: 0.80351 (Simulation time: 0 hr 2 min 16 sec) 

ChampSim completed all CPUs

[ROI Statistics]
Core_0_instructions 50000003
Core_0_cycles 62227293
Core_0_IPC 0.80351

Core_0_branch_prediction_accuracy 99.89839
Core_0_branch_MPKI 0.01088
Core_0_average_ROB_occupancy_at_mispredict 252.82904

Core_0_L1D_total_access 12549857
Core_0_L1D_total_hit 10768112
Core_0_L1D_total_miss 1781745
Core_0_L1D_loads 5201966
Core_0_L1D_load_hit 4931999
Core_0_L1D_load_miss 269967
Core_0_L1D_RFOs 7347891
Core_0_L1D_RFO_hit 5836113
Core_0_L1D_RFO_miss 1511778
Core_0_L1D_prefetches 0
Core_0_L1D_prefetch_hit 0
Core_0_L1D_prefetch_miss 0
Core_0_L1D_writebacks 0
Core_0_L1D_writeback_hit 0
Core_0_L1D_writeback_miss 0
Core_0_L1D_prefetch_requested 0
Core_0_L1D_prefetch_dropped 0
Core_0_L1D_prefetch_issued 0
Core_0_L1D_prefetch_filled 0
Core_0_L1D_prefetch_useful 0
Core_0_L1D_prefetch_useless 0
Core_0_L1D_prefetch_late 0
Core_0_L1D_average_miss_latency 427.96558

Core_0_L1D_rq_access 10316024
Core_0_L1D_rq_forward 0
Core_0_L1D_rq_merged 4837433
Core_0_L1D_rq_to_cache 5256329
Core_0_L1D_rq_full 0

Core_0_L1D_wq_access 7443210
Core_0_L1D_wq_forward 222262
Core_0_L1D_wq_merged 61352
Core_0_L1D_wq_to_cache 7381858
Core_0_L1D_wq_full 60600

Core_0_L1D_pq_access 0
Core_0_L1D_pq_forward 0
Core_0_L1D_pq_merged 0
Core_0_L1D_pq_to_cache 0
Core_0_L1D_pq_full 0

Core_0_L1D_acc_epochs 62908
Core_0_L1D_acc_level_0 62908
Core_0_L1D_acc_level_1 0
Core_0_L1D_acc_level_2 0
Core_0_L1D_acc_level_3 0
Core_0_L1D_acc_level_4 0
Core_0_L1D_acc_level_5 0
Core_0_L1D_acc_level_6 0
Core_0_L1D_acc_level_7 0
Core_0_L1D_acc_level_8 0
Core_0_L1D_acc_level_9 0

Core_0_L1I_total_access 11649883
Core_0_L1I_total_hit 11649883
Core_0_L1I_total_miss 0
Core_0_L1I_loads 11649883
Core_0_L1I_load_hit 11649883
Core_0_L1I_load_miss 0
Core_0_L1I_RFOs 0
Core_0_L1I_RFO_hit 0
Core_0_L1I_RFO_miss 0
Core_0_L1I_prefetches 0
Core_0_L1I_prefetch_hit 0
Core_0_L1I_prefetch_miss 0
Core_0_L1I_writebacks 0
Core_0_L1I_writeback_hit 0
Core_0_L1I_writeback_miss 0
Core_0_L1I_prefetch_requested 0
Core_0_L1I_prefetch_dropped 0
Core_0_L1I_prefetch_issued 0
Core_0_L1I_prefetch_filled 0
Core_0_L1I_prefetch_useful 0
Core_0_L1I_prefetch_useless 0
Core_0_L1I_prefetch_late 0
Core_0_L1I_average_miss_latency -nan

Core_0_L1I_rq_access 50000006
Core_0_L1I_rq_forward 0
Core_0_L1I_rq_merged 38350123
Core_0_L1I_rq_to_cache 11649883
Core_0_L1I_rq_full 0

Core_0_L1I_wq_access 0
Core_0_L1I_wq_forward 0
Core_0_L1I_wq_merged 0
Core_0_L1I_wq_to_cache 0
Core_0_L1I_wq_full 0

Core_0_L1I_pq_access 0
Core_0_L1I_pq_forward 0
Core_0_L1I_pq_merged 0
Core_0_L1I_pq_to_cache 0
Core_0_L1I_pq_full 0

Core_0_L1I_acc_epochs 62908
Core_0_L1I_acc_level_0 62908
Core_0_L1I_acc_level_1 0
Core_0_L1I_acc_level_2 0
Core_0_L1I_acc_level_3 0
Core_0_L1I_acc_level_4 0
Core_0_L1I_acc_level_5 0
Core_0_L1I_acc_level_6 0
Core_0_L1I_acc_level_7 0
Core_0_L1I_acc_level_8 0
Core_0_L1I_acc_level_9 0

Core_0_L2C_total_access 3907021
Core_0_L2C_total_hit 2496939
Core_0_L2C_total_miss 1410082
Core_0_L2C_loads 269967
Core_0_L2C_load_hit 226657
Core_0_L2C_load_miss 43310
Core_0_L2C_RFOs 1511778
Core_0_L2C_RFO_hit 371678
Core_0_L2C_RFO_miss 1140100
Core_0_L2C_prefetches 613494
Core_0_L2C_prefetch_hit 386840
Core_0_L2C_prefetch_miss 226654
Core_0_L2C_writebacks 1511782
Core_0_L2C_writeback_hit 1511764
Core_0_L2C_writeback_miss 18
Core_0_L2C_prefetch_requested 1053728
Core_0_L2C_prefetch_dropped 0
Core_0_L2C_prefetch_issued 1053728
Core_0_L2C_prefetch_filled 276826
Core_0_L2C_prefetch_useful 276815
Core_0_L2C_prefetch_useless 11
Core_0_L2C_prefetch_late 25902
Core_0_L2C_average_miss_latency 646.39027

Core_0_L2C_rq_access 1781760
Core_0_L2C_rq_forward 0
Core_0_L2C_rq_merged 0
Core_0_L2C_rq_to_cache 1781760
Core_0_L2C_rq_full 0

Core_0_L2C_wq_access 1511783
Core_0_L2C_wq_forward 0
Core_0_L2C_wq_merged 0
Core_0_L2C_wq_to_cache 1511783
Core_0_L2C_wq_full 0

Core_0_L2C_pq_access 1053728
Core_0_L2C_pq_forward 0
Core_0_L2C_pq_merged 82827
Core_0_L2C_pq_to_cache 970901
Core_0_L2C_pq_full 0

Core_0_L2C_acc_epochs 62908
Core_0_L2C_acc_level_0 27
Core_0_L2C_acc_level_1 190
Core_0_L2C_acc_level_2 468
Core_0_L2C_acc_level_3 921
Core_0_L2C_acc_level_4 1470
Core_0_L2C_acc_level_5 2394
Core_0_L2C_acc_level_6 4868
Core_0_L2C_acc_level_7 7476
Core_0_L2C_acc_level_8 8199
Core_0_L2C_acc_level_9 36895

Core_0_LLC_total_access 2550260
Core_0_LLC_total_hit 1062625
Core_0_LLC_total_miss 1487635
Core_0_LLC_loads 17445
Core_0_LLC_load_hit 0
Core_0_LLC_load_miss 17445
Core_0_LLC_RFOs 1139662
Core_0_LLC_RFO_hit 327290
Core_0_LLC_RFO_miss 812372
Core_0_LLC_prefetches 252519
Core_0_LLC_prefetch_hit 0
Core_0_LLC_prefetch_miss 252519
Core_0_LLC_writebacks 1140634
Core_0_LLC_writeback_hit 735335
Core_0_LLC_writeback_miss 405299
Core_0_LLC_prefetch_requested 0
Core_0_LLC_prefetch_dropped 0
Core_0_LLC_prefetch_issued 0
Core_0_LLC_prefetch_filled 302728
Core_0_LLC_prefetch_useful 0
Core_0_LLC_prefetch_useless 302244
Core_0_LLC_prefetch_late 0
Core_0_LLC_average_miss_latency 595.25475

Core_0_LLC_rq_access 1157559
Core_0_LLC_rq_forward 0
Core_0_LLC_rq_merged 0
Core_0_LLC_rq_to_cache 1157120
Core_0_LLC_rq_full 0

Core_0_LLC_wq_access 1140634
Core_0_LLC_wq_forward 439
Core_0_LLC_wq_merged 0
Core_0_LLC_wq_to_cache 1140634
Core_0_LLC_wq_full 0

Core_0_LLC_pq_access 302728
Core_0_LLC_pq_forward 0
Core_0_LLC_pq_merged 0
Core_0_LLC_pq_to_cache 302728
Core_0_LLC_pq_full 0

Core_0_LLC_acc_epochs 64540
Core_0_LLC_acc_level_0 64540
Core_0_LLC_acc_level_1 0
Core_0_LLC_acc_level_2 0
Core_0_LLC_acc_level_3 0
Core_0_LLC_acc_level_4 0
Core_0_LLC_acc_level_5 0
Core_0_LLC_acc_level_6 0
Core_0_LLC_acc_level_7 0
Core_0_LLC_acc_level_8 0
Core_0_LLC_acc_level_9 0

Core_0_major_page_fault 0
Core_0_minor_page_fault 13253

scooby_st_lookup 323471
scooby_st_hit 318410
scooby_st_evict 4997
scooby_st_insert 5061
scooby_st_streaming 0

scooby_predict_called 323471
scooby_predict_out_of_bounds 9169
scooby_predict_action_1 192296
scooby_predict_issue_action_1 130846
scooby_predict_hit_action_1 61450
scooby_predict_out_of_bounds_action_1 3090
scooby_predict_action_3 121585
scooby_predict_issue_action_3 121486
scooby_predict_hit_action_3 99
scooby_predict_out_of_bounds_action_3 5971
scooby_predict_action_4 32
scooby_predict_issue_action_4 32
scooby_predict_hit_action_4 0
scooby_predict_out_of_bounds_action_4 0
scooby_predict_action_5 40
scooby_predict_issue_action_5 40
scooby_predict_hit_action_5 0
scooby_predict_out_of_bounds_action_5 2
scooby_predict_action_10 40
scooby_predict_issue_action_10 40
scooby_predict_hit_action_10 0
scooby_predict_out_of_bounds_action_10 12
scooby_predict_action_11 30
scooby_predict_issue_action_11 30
scooby_predict_hit_action_11 0
scooby_predict_out_of_bounds_action_11 6
scooby_predict_action_12 38
scooby_predict_issue_action_12 38
scooby_predict_hit_action_12 0
scooby_predict_out_of_bounds_action_12 7
scooby_predict_action_22 28
scooby_predict_issue_action_22 28
scooby_predict_hit_action_22 0
scooby_predict_out_of_bounds_action_22 18
scooby_predict_action_23 19
scooby_predict_issue_action_23 19
scooby_predict_hit_action_23 0
scooby_predict_out_of_bounds_action_23 15
scooby_predict_action_30 22
scooby_predict_issue_action_30 22
scooby_predict_hit_action_30 0
scooby_predict_out_of_bounds_action_30 25
scooby_predict_action_32 15
scooby_predict_issue_action_32 15
scooby_predict_hit_action_32 0
scooby_predict_out_of_bounds_action_32 19
scooby_predict_action_-1 46
scooby_predict_issue_action_-1 11
scooby_predict_hit_action_-1 35
scooby_predict_out_of_bounds_action_-1 0
scooby_predict_action_-3 36
scooby_predict_issue_action_-3 7
scooby_predict_hit_action_-3 29
scooby_predict_out_of_bounds_action_-3 1
scooby_predict_action_-6 31
scooby_predict_issue_action_-6 7
scooby_predict_hit_action_-6 24
scooby_predict_out_of_bounds_action_-6 3
scooby_predict_action_0 44
scooby_predict_issue_action_0 0
scooby_predict_hit_action_0 0
scooby_predict_out_of_bounds_action_0 0
scooby_predict_multi_deg_called 221099
scooby_predict_predicted 1053728
scooby_predict_multi_deg 801107
scooby_predict_multi_deg_2 213101
scooby_predict_multi_deg_3 184424
scooby_predict_multi_deg_4 176430
scooby_predict_multi_deg_5 117504
scooby_predict_multi_deg_6 109648
scooby_predict_multi_deg_7 0
scooby_predict_multi_deg_8 0
scooby_predict_multi_deg_9 0
scooby_predict_multi_deg_10 0
scooby_predict_multi_deg_11 0
scooby_predict_multi_deg_12 0
scooby_predict_multi_deg_13 0
scooby_predict_multi_deg_14 0
scooby_predict_multi_deg_15 0
scooby_predict_multi_deg_16 0

scooby_selected_deg_1 31522
scooby_selected_deg_2 20721
scooby_selected_deg_3 0
scooby_selected_deg_4 51239
scooby_selected_deg_5 0
scooby_selected_deg_6 149139
scooby_selected_deg_7 0
scooby_selected_deg_8 0
scooby_selected_deg_9 0
scooby_selected_deg_10 0
scooby_selected_deg_11 0
scooby_selected_deg_12 0
scooby_selected_deg_13 0
scooby_selected_deg_14 0
scooby_selected_deg_15 0
scooby_selected_deg_16 0

scooby_state_401cb0|3|3 2017,0,0,2,1,1,0,0,1,0,0,0,0,0,0,2022,
scooby_state_401cb0|0|0 2016,0,1,0,1,0,1,1,0,0,1,0,0,0,0,2021,
scooby_state_401cb0|1|0 2017,0,0,0,0,1,0,1,0,0,0,0,0,1,1,2021,
scooby_state_401cb0|4|4 1075,0,0,0,0,0,1,0,0,0,1,0,0,0,0,1077,
scooby_state_401cb0|52|4 1010,0,0,0,1,0,0,0,0,0,0,0,0,0,0,1011,
scooby_state_401cb0|48|4 1008,0,0,0,0,1,0,0,0,0,0,0,0,1,1,1011,
scooby_state_401cb0|58|4 1009,0,0,0,1,0,0,0,0,0,1,0,0,0,0,1011,
scooby_state_401cb0|61|4 1010,0,0,0,1,0,0,0,0,0,0,0,0,0,0,1011,
scooby_state_401cb0|54|3 1010,0,0,0,0,0,0,0,0,0,0,0,1,0,0,1011,
scooby_state_401cb0|45|3 1010,0,0,0,0,0,0,0,0,0,0,1,0,0,0,1011,
scooby_state_401cb0|55|3 1010,0,0,0,0,0,0,0,0,1,0,0,0,0,0,1011,
scooby_state_401cb0|49|3 1010,0,0,0,0,0,0,0,0,0,0,0,0,1,0,1011,
scooby_state_401cb0|57|3 1010,0,0,0,0,0,0,0,0,0,0,0,0,1,0,1011,
scooby_state_401cb0|47|4 1009,0,0,0,0,0,0,0,0,0,1,1,0,0,0,1011,
scooby_state_401cb0|44|3 1009,0,1,0,0,0,0,0,0,0,0,0,1,0,0,1011,
scooby_state_401cb0|25|3 1011,0,0,0,0,0,0,0,0,0,0,0,0,0,0,1011,
scooby_state_401cb0|31|4 1010,0,0,0,0,0,0,0,1,0,0,0,0,0,0,1011,
scooby_state_401cb0|12|4 1008,0,1,1,0,0,0,0,0,0,0,1,0,0,0,1011,
scooby_state_401cb0|18|4 1010,0,1,0,0,0,0,0,0,0,0,0,0,0,0,1011,
scooby_state_401cb0|59|3 1006,1,0,1,2,0,1,0,0,0,0,0,0,0,0,1011,
scooby_state_401cb0|10|3 1008,0,1,0,0,0,0,0,1,0,0,1,0,0,0,1011,
scooby_state_401cb0|8|4 1009,0,0,0,0,0,0,0,0,2,0,0,0,0,0,1011,
scooby_state_401cb0|30|3 1010,0,0,0,0,0,0,0,0,0,0,0,0,1,0,1011,
scooby_state_401cb0|40|3 1009,0,0,0,0,0,0,0,0,1,0,1,0,0,0,1011,
scooby_state_401cb0|6|4 1010,0,0,1,0,0,0,0,0,0,0,0,0,0,0,1011,
scooby_state_401cb0|53|4 1011,0,0,0,0,0,0,0,0,0,0,0,0,0,0,1011,
scooby_state_401cb0|62|4 1011,0,0,0,0,0,0,0,0,0,0,0,0,0,0,1011,
scooby_state_401cb0|13|3 1008,0,0,0,0,1,0,0,0,0,0,0,0,0,2,1011,
scooby_state_401cb0|51|4 1008,0,0,0,1,0,0,0,0,0,0,0,0,2,0,1011,
scooby_state_401cb0|57|4 1010,0,0,0,0,1,0,0,0,0,0,0,0,0,0,1011,
scooby_state_401cb0|11|4 1007,0,0,0,1,0,0,0,1,0,0,2,0,0,0,1011,
scooby_state_401cb0|21|4 1008,0,0,0,1,0,0,0,1,0,0,0,0,1,0,1011,
scooby_state_401cb0|23|3 1011,0,0,0,0,0,0,0,0,0,0,0,0,0,0,1011,
scooby_state_401cb0|35|3 1009,0,0,0,0,0,0,0,0,0,0,0,0,2,0,1011,
scooby_state_401cb0|19|3 1011,0,0,0,0,0,0,0,0,0,0,0,0,0,0,1011,
scooby_state_401cb0|8|3 1009,0,0,0,0,0,0,0,0,0,0,1,0,1,0,1011,
scooby_state_401cb0|58|3 1009,0,0,0,0,1,0,1,0,0,0,0,0,0,0,1011,
scooby_state_401cb0|60|4 1010,0,0,0,1,0,0,0,0,0,0,0,0,0,0,1011,
scooby_state_401cb0|38|4 1010,0,0,0,0,0,0,0,0,0,1,0,0,0,0,1011,
scooby_state_401cb0|24|3 1010,0,0,0,1,0,0,0,0,0,0,0,0,0,0,1011,
scooby_state_401cb0|55|4 1010,1,0,0,0,0,0,0,0,0,0,0,0,0,0,1011,
scooby_state_401cb0|53|3 1008,1,0,0,0,0,0,0,0,1,0,1,0,0,0,1011,
scooby_state_401cb0|29|3 1010,1,0,0,0,0,0,0,0,0,0,0,0,0,0,1011,
scooby_state_401cb0|27|4 1010,0,1,0,0,0,0,0,0,0,0,0,0,0,0,1011,
scooby_state_401cb0|20|3 1009,0,0,0,0,1,0,0,0,1,0,0,0,0,0,1011,
scooby_state_401cb0|63|3 1008,0,0,0,0,0,0,1,1,0,0,0,1,0,0,1011,
scooby_state_401cb0|2|0 1010,0,0,1,0,0,0,0,0,0,0,0,0,0,0,1011,
scooby_state_401cb0|42|4 1008,1,0,0,0,0,0,1,1,0,0,0,0,0,0,1011,
scooby_state_401cb0|18|3 1009,0,0,0,0,0,0,0,0,1,0,0,0,0,1,1011,
scooby_state_401cb0|50|3 1008,0,0,0,0,1,0,1,0,1,0,0,0,0,0,1011,
scooby_state_401cb0|15|3 1011,0,0,0,0,0,0,0,0,0,0,0,0,0,0,1011,
scooby_state_401cb0|7|4 1009,0,0,0,1,0,0,0,0,0,0,1,0,0,0,1011,
scooby_state_401cb0|23|4 1011,0,0,0,0,0,0,0,0,0,0,0,0,0,0,1011,
scooby_state_401cb0|62|3 1008,0,0,0,0,0,0,0,0,2,0,0,0,1,0,1011,
scooby_state_401cb0|36|4 1007,0,0,0,1,0,2,0,0,0,0,1,0,0,0,1011,
scooby_state_401cb0|39|3 1010,0,0,0,0,0,0,0,0,1,0,0,0,0,0,1011,
scooby_state_401cb0|17|4 1009,0,0,1,0,0,0,0,0,0,0,1,0,0,0,1011,
scooby_state_401cb0|28|4 1007,0,0,1,1,1,0,0,0,0,0,0,0,0,1,1011,
scooby_state_401cb0|22|4 1009,0,0,0,0,0,0,1,0,0,1,0,0,0,0,1011,
scooby_state_401cb0|41|4 1010,0,0,0,0,0,0,0,0,0,0,1,0,0,0,1011,
scooby_state_401cb0|32|4 1008,0,0,1,0,0,0,0,0,1,1,0,0,0,0,1011,
scooby_state_401cb0|14|3 1006,0,0,0,0,1,0,1,0,0,0,1,0,1,1,1011,
scooby_state_401cb0|43|4 1009,1,1,0,0,0,0,0,0,0,0,0,0,0,0,1011,
scooby_state_401cb0|56|4 1010,0,0,0,0,0,0,0,0,0,1,0,0,0,0,1011,
scooby_state_401cb0|26|4 1008,0,0,0,0,0,0,0,0,0,0,0,2,0,1,1011,
scooby_state_401cb0|13|4 1008,0,0,0,0,1,1,0,0,0,1,0,0,0,0,1011,
scooby_state_401cb0|5|3 1009,0,0,0,0,0,0,0,0,0,0,1,0,1,0,1011,
scooby_state_401cb0|63|4 1009,0,0,0,0,0,1,0,0,0,0,0,0,0,1,1011,
scooby_state_401cb0|60|3 1010,0,0,0,0,0,0,0,0,0,0,0,1,0,0,1011,
scooby_state_401cb0|33|4 1009,1,0,0,0,0,1,0,0,0,0,0,0,0,0,1011,
scooby_state_401cb0|46|4 1007,0,0,0,0,0,0,0,0,0,0,0,2,1,1,1011,
scooby_state_401cb0|37|4 1006,0,1,2,1,0,0,0,0,0,0,1,0,0,0,1011,
scooby_state_401cb0|33|3 1009,1,0,0,0,0,0,0,0,0,0,0,0,0,1,1011,
scooby_state_401cb0|43|3 1008,1,0,0,0,1,0,1,0,0,0,0,0,0,0,1011,
scooby_state_401cb0|48|3 1010,0,0,0,0,0,0,0,0,0,0,0,0,0,1,1011,
scooby_state_401cb0|34|3 1008,2,0,0,0,0,0,0,0,0,0,0,0,1,0,1011,
scooby_state_401cb0|16|4 1009,1,0,0,0,0,1,0,0,0,0,0,0,0,0,1011,
scooby_state_401cb0|38|3 1011,0,0,0,0,0,0,0,0,0,0,0,0,0,0,1011,
scooby_state_401cb0|9|3 1007,0,0,0,1,0,1,0,0,1,0,0,0,0,1,1011,
scooby_state_401cb0|28|3 1010,0,0,0,0,0,0,1,0,0,0,0,0,0,0,1011,
scooby_state_401cb0|19|4 1009,0,0,0,0,0,0,0,1,0,0,0,0,0,0,1010,
scooby_state_401cb0|30|4 1008,1,1,0,0,0,0,0,0,0,0,0,0,0,0,1010,
scooby_state_401cb0|27|3 1007,0,0,1,0,0,0,1,0,0,1,0,0,0,0,1010,
scooby_state_401cb0|25|4 1008,0,1,0,0,0,0,0,1,0,0,0,0,0,0,1010,
scooby_state_401cb0|15|4 1010,0,0,0,0,0,0,0,0,0,0,0,0,0,0,1010,
scooby_state_401cb0|41|3 1008,0,1,0,0,0,0,0,0,1,0,0,0,0,0,1010,
scooby_state_401cb0|22|3 1009,0,0,0,0,0,0,0,0,0,0,1,0,0,0,1010,
scooby_state_401cb0|21|3 1008,0,0,0,0,0,1,0,0,1,0,0,0,0,0,1010,
scooby_state_401cb0|32|3 1008,0,0,0,1,0,0,0,0,0,1,0,0,0,0,1010,
scooby_state_401cb0|59|4 1009,0,0,0,1,0,0,0,0,0,0,0,0,0,0,1010,
scooby_state_401cb0|12|3 1009,0,0,0,1,0,0,0,0,0,0,0,0,0,0,1010,
scooby_state_401cb0|44|4 1008,0,0,0,1,1,0,0,0,0,0,0,0,0,0,1010,
scooby_state_401cb0|10|4 1007,0,1,0,0,0,0,0,0,0,0,0,0,1,1,1010,
scooby_state_401cb0|35|4 1009,0,0,0,0,0,1,0,0,0,0,0,0,0,0,1010,
scooby_state_401cb0|2|2 1010,0,0,0,0,0,0,0,0,0,0,0,0,0,0,1010,
scooby_state_401cb0|42|3 1010,0,0,0,0,0,0,0,0,0,0,0,0,0,0,1010,
scooby_state_401cb0|40|4 1008,0,0,2,0,0,0,0,0,0,0,0,0,0,0,1010,
scooby_state_401cb0|46|3 1009,1,0,0,0,0,0,0,0,0,0,0,0,0,0,1010,
scooby_state_401cb0|34|4 1005,0,1,1,0,0,1,0,0,0,1,0,0,1,0,1010,
scooby_state_401cb0|26|3 1009,0,0,1,0,0,0,0,0,0,0,0,0,0,0,1010,
scooby_state_401cb0|47|3 1010,0,0,0,0,0,0,0,0,0,0,0,0,0,0,1010,
scooby_state_401cb0|9|4 1009,0,0,0,0,0,0,0,0,1,0,0,0,0,0,1010,
scooby_state_401cb0|50|4 1009,0,0,0,0,0,0,0,0,0,0,0,1,0,0,1010,
scooby_state_401cb0|24|4 1008,1,0,1,0,0,0,0,0,0,0,0,0,0,0,1010,
scooby_state_401cb0|39|4 1010,0,0,0,0,0,0,0,0,0,0,0,0,0,0,1010,
scooby_state_401cb0|29|4 1009,0,0,0,0,0,1,0,0,0,0,0,0,0,0,1010,
scooby_state_401cb0|16|3 1007,0,0,1,0,0,0,0,0,1,0,0,0,0,1,1010,
scooby_state_401cb0|14|4 1009,0,0,0,0,0,0,0,0,0,0,0,0,0,1,1010,
scooby_state_401cb0|31|3 1008,0,1,0,1,0,0,0,0,0,0,0,0,0,0,1010,
scooby_state_401cb0|52|3 1007,0,0,0,0,0,0,0,0,2,0,0,0,1,0,1010,
scooby_state_401cb0|36|3 1008,0,0,0,0,0,0,0,0,0,1,0,0,0,1,1010,
scooby_state_401cb0|6|3 1008,0,1,0,0,0,1,0,0,0,0,0,0,0,0,1010,
scooby_state_401cb0|61|3 1010,0,0,0,0,0,0,0,0,0,0,0,0,0,0,1010,
scooby_state_401cb0|37|3 1007,0,1,0,0,0,0,0,0,1,0,0,0,1,0,1010,
scooby_state_401cb0|54|4 1008,0,0,0,1,0,1,0,0,0,0,0,0,0,0,1010,
scooby_state_401cb0|49|4 1008,1,1,0,0,0,0,0,0,0,0,0,0,0,0,1010,
scooby_state_401cb0|7|3 1008,0,0,0,0,0,0,0,0,0,0,1,0,1,0,1010,
scooby_state_401cb0|51|3 1010,0,0,0,0,0,0,0,0,0,0,0,0,0,0,1010,
scooby_state_401cb0|17|3 1009,0,0,0,0,0,0,0,1,0,0,0,0,0,0,1010,
scooby_state_401cb0|20|4 1007,1,0,0,1,0,1,0,0,0,0,0,0,0,0,1010,
scooby_state_401cb0|5|4 1008,1,0,0,0,0,0,0,0,1,0,0,0,0,0,1010,
scooby_state_401cb0|11|3 1009,0,0,0,0,0,0,0,1,0,0,0,0,0,0,1010,
scooby_state_401cb0|56|3 1009,0,0,0,0,0,0,0,0,0,0,0,0,1,0,1010,
scooby_state_401cb0|45|4 1010,0,0,0,0,0,0,0,0,0,0,0,0,0,0,1010,
scooby_state_401cdb|44|-2 1002,0,0,0,0,0,0,0,0,0,0,0,0,0,0,1002,
scooby_state_401d43|6|1 1,1001,0,0,0,0,0,0,0,0,0,0,0,0,0,1002,
scooby_state_401cdb|19|-2 1001,0,1,0,0,0,0,0,0,0,0,0,0,0,0,1002,
scooby_state_401cdb|5|-2 1002,0,0,0,0,0,0,0,0,0,0,0,0,0,0,1002,
scooby_state_401d43|37|1 1,1000,0,0,0,0,1,0,0,0,0,0,0,0,0,1002,
scooby_state_401cdb|60|-2 1001,0,0,0,1,0,0,0,0,0,0,0,0,0,0,1002,
scooby_state_401cdb|41|-2 999,0,0,0,0,0,0,1,1,0,0,0,1,0,0,1002,
scooby_state_401cdb|29|-2 1001,0,0,0,0,0,0,0,0,0,0,0,0,0,1,1002,
scooby_state_401d43|30|1 1,1001,0,0,0,0,0,0,0,0,0,0,0,0,0,1002,
scooby_state_401d43|25|1 1,999,0,0,0,0,0,0,0,2,0,0,0,0,0,1002,
scooby_state_401d43|60|1 1,999,0,0,0,0,0,1,0,0,0,0,0,0,1,1002,
scooby_state_401cdb|59|-2 1002,0,0,0,0,0,0,0,0,0,0,0,0,0,0,1002,
scooby_state_401cdb|31|-2 1002,0,0,0,0,0,0,0,0,0,0,0,0,0,0,1002,
scooby_state_401d14|8|-1 1,1001,0,0,0,0,0,0,0,0,0,0,0,0,0,1002,
scooby_state_401cdb|24|-2 1002,0,0,0,0,0,0,0,0,0,0,0,0,0,0,1002,
scooby_state_401d43|20|1 1,997,0,0,1,0,0,0,1,0,1,0,1,0,0,1002,
scooby_state_401cdb|61|-2 1000,1,0,0,1,0,0,0,0,0,0,0,0,0,0,1002,
scooby_state_401cdb|4|-2 999,0,0,1,0,0,0,0,0,0,1,0,0,0,1,1002,
scooby_state_401d43|5|1 1,999,0,0,0,0,0,0,0,0,0,0,1,0,1,1002,
scooby_state_401d14|54|-1 1,1001,0,0,0,0,0,0,0,0,0,0,0,0,0,1002,
scooby_state_401cdb|51|-2 1001,0,0,0,0,0,0,0,1,0,0,0,0,0,0,1002,
scooby_state_401d14|24|-1 1,997,0,0,0,1,0,1,0,0,0,0,1,1,0,1002,
scooby_state_401cdb|9|-2 1001,0,0,0,0,0,1,0,0,0,0,0,0,0,0,1002,
scooby_state_401d43|10|1 1,999,0,0,0,0,0,0,0,0,0,1,1,0,0,1002,
scooby_state_401cdb|56|-2 999,0,0,0,0,0,0,0,1,0,0,0,1,0,1,1002,
scooby_state_401cdb|49|-2 1000,0,0,0,0,0,1,0,0,0,0,1,0,0,0,1002,
scooby_state_401d43|62|1 1,1000,0,0,0,0,0,1,0,0,0,0,0,0,0,1002,
scooby_state_401cdb|55|-2 1000,0,1,0,0,0,0,1,0,0,0,0,0,0,0,1002,
scooby_state_401d43|57|1 1,999,0,0,0,0,1,0,0,0,0,1,0,0,0,1002,
scooby_state_401d14|19|-1 1,1000,0,0,0,0,0,0,0,0,0,0,0,0,1,1002,
scooby_state_401d14|56|-1 2,1000,0,0,0,0,0,0,0,0,0,0,0,0,0,1002,
scooby_state_401d43|61|1 1,1000,0,0,0,0,0,1,0,0,0,0,0,0,0,1002,
scooby_state_401cdb|16|-2 1001,1,0,0,0,0,0,0,0,0,0,0,0,0,0,1002,
scooby_state_401cdb|1|-2 1000,0,0,0,2,0,0,0,0,0,0,0,0,0,0,1002,
scooby_state_401d14|4|-1 1,1000,0,0,0,0,0,0,0,0,0,0,0,0,1,1002,
scooby_state_401d14|3|-1 1,1000,0,0,0,0,0,0,0,0,0,0,0,0,1,1002,
scooby_state_401d43|32|1 1,999,0,0,0,0,0,1,0,0,0,1,0,0,0,1002,
scooby_state_401cdb|36|-2 1000,0,0,0,1,0,0,0,0,0,1,0,0,0,0,1002,
scooby_state_401cdb|11|-2 1002,0,0,0,0,0,0,0,0,0,0,0,0,0,0,1002,
scooby_state_401d43|45|1 1,998,0,0,1,0,0,0,1,0,0,0,0,0,1,1002,
scooby_state_401d43|50|1 1,999,0,0,0,0,0,0,1,1,0,0,0,0,0,1002,
scooby_state_401d14|52|-1 1,1001,0,0,0,0,0,0,0,0,0,0,0,0,0,1002,
scooby_state_401d14|2|-1 1,1000,0,0,0,0,0,0,0,0,0,0,0,0,1,1002,
scooby_state_401d14|51|-1 1,1000,0,0,0,0,0,0,1,0,0,0,0,0,0,1002,
scooby_state_401cdb|21|-2 1001,0,0,0,0,0,0,0,0,1,0,0,0,0,0,1002,
scooby_state_401d43|42|1 1,998,0,2,0,0,0,0,0,0,0,0,0,0,1,1002,
scooby_state_401cdb|53|-2 1000,0,0,1,1,0,0,0,0,0,0,0,0,0,0,1002,
scooby_state_401d43|22|1 1,999,0,0,0,1,0,0,0,0,0,0,0,0,1,1002,
scooby_state_401d43|40|1 1,998,1,0,0,0,0,1,0,0,0,1,0,0,0,1002,
scooby_state_401d43|34|1 0,999,0,0,0,0,0,1,1,0,0,0,0,0,0,1001,
scooby_state_401d43|33|1 1,995,0,0,0,0,2,0,1,1,1,0,0,0,0,1001,
scooby_state_401cdb|15|-2 1000,0,0,0,0,0,0,0,0,0,0,1,0,0,0,1001,
scooby_state_401cdb|32|-2 997,0,0,0,1,0,0,3,0,0,0,0,0,0,0,1001,
scooby_state_401d43|12|1 1,1000,0,0,0,0,0,0,0,0,0,0,0,0,0,1001,
scooby_state_401cdb|39|-2 1001,0,0,0,0,0,0,0,0,0,0,0,0,0,0,1001,
scooby_state_401d43|29|1 0,1001,0,0,0,0,0,0,0,0,0,0,0,0,0,1001,
scooby_state_401cdb|28|-2 1001,0,0,0,0,0,0,0,0,0,0,0,0,0,0,1001,
scooby_state_401cdb|43|-2 1000,0,0,0,0,0,0,0,0,0,1,0,0,0,0,1001,
scooby_state_401cdb|12|-2 1000,0,0,1,0,0,0,0,0,0,0,0,0,0,0,1001,
scooby_state_401d43|21|1 1,999,0,0,0,0,0,0,0,0,0,0,1,0,0,1001,
scooby_state_401cdb|27|-2 999,1,0,0,0,1,0,0,0,0,0,0,0,0,0,1001,
scooby_state_401d43|13|1 1,999,1,0,0,0,0,0,0,0,0,0,0,0,0,1001,
scooby_state_401d43|24|1 0,1000,0,0,0,0,1,0,0,0,0,0,0,0,0,1001,
scooby_state_401d43|8|1 1,998,0,0,0,0,0,0,0,0,0,1,1,0,0,1001,
scooby_state_401d43|38|1 1,998,0,0,0,0,1,0,0,0,0,1,0,0,0,1001,
scooby_state_401d14|35|-1 0,999,0,1,0,0,0,1,0,0,0,0,0,0,0,1001,
scooby_state_401cdb|17|-2 1000,0,0,0,0,0,0,0,1,0,0,0,0,0,0,1001,
scooby_state_401d14|40|-1 0,998,0,0,0,1,0,0,0,0,0,0,0,1,1,1001,
scooby_state_401d43|18|1 1,1000,0,0,0,0,0,0,0,0,0,0,0,0,0,1001,
scooby_state_401d43|44|1 0,1001,0,0,0,0,0,0,0,0,0,0,0,0,0,1001,
scooby_state_401cdb|37|-2 1001,0,0,0,0,0,0,0,0,0,0,0,0,0,0,1001,
scooby_state_401cdb|40|-2 998,0,0,0,0,0,0,0,1,1,1,0,0,0,0,1001,
scooby_state_401cdb|20|-2 1000,0,0,0,0,0,0,0,0,0,0,1,0,0,0,1001,
scooby_state_401d43|41|1 2,998,0,0,0,0,1,0,0,0,0,0,0,0,0,1001,
scooby_state_401cdb|45|-2 996,0,0,1,1,1,1,0,1,0,0,0,0,0,0,1001,
scooby_state_401d43|49|1 0,999,0,0,0,0,1,1,0,0,0,0,0,0,0,1001,
scooby_state_401cdb|35|-2 1000,0,0,0,1,0,0,0,0,0,0,0,0,0,0,1001,
scooby_state_401d43|36|1 1,997,0,0,0,1,1,1,0,0,0,0,0,0,0,1001,
scooby_state_401d43|52|1 2,997,0,0,0,0,1,1,0,0,0,0,0,0,0,1001,
scooby_state_401d43|46|1 2,996,0,1,0,0,0,0,1,0,0,1,0,0,0,1001,
scooby_state_401cdb|48|-2 1000,0,0,1,0,0,0,0,0,0,0,0,0,0,0,1001,
scooby_state_401cdb|33|-2 995,1,1,0,0,2,0,0,0,0,0,1,1,0,0,1001,
scooby_state_401cdb|23|-2 1000,0,0,0,0,0,0,0,0,0,0,1,0,0,0,1001,
scooby_state_401cdb|7|-2 1000,0,0,0,0,0,1,0,0,0,0,0,0,0,0,1001,
scooby_state_401cdb|25|-2 1001,0,0,0,0,0,0,0,0,0,0,0,0,0,0,1001,
scooby_state_401d43|2|1 1,997,0,1,0,0,0,0,0,0,0,0,0,0,1,1000,
scooby_state_401d43|54|1 1,997,0,0,1,0,0,0,0,1,0,0,0,0,0,1000,
scooby_state_401d43|28|1 1,997,0,0,1,0,0,0,1,0,0,0,0,0,0,1000,
scooby_state_401d43|26|1 1,997,0,0,0,0,0,0,0,1,1,0,0,0,0,1000,
scooby_state_401d14|62|-1 1,997,0,0,0,0,0,0,0,0,0,0,2,0,0,1000,
scooby_state_401d43|48|1 1,998,0,0,0,0,0,0,0,0,0,0,0,0,0,999,
scooby_state_401d14|32|-1 1,995,0,0,0,3,0,0,0,0,0,0,0,0,0,999,
scooby_state_401d43|14|1 0,998,1,0,0,0,0,0,0,0,0,0,0,0,0,999,
scooby_state_401d14|18|-1 1,995,0,0,1,0,0,0,0,0,1,0,0,1,0,999,
scooby_state_401cdb|52|-2 996,0,0,0,0,0,0,0,0,1,0,1,1,0,0,999,
scooby_state_401d14|63|2 1,995,0,0,0,0,0,0,0,0,1,1,0,1,0,999,
scooby_state_401d14|34|-1 1,992,0,0,0,0,0,0,0,4,2,0,0,0,0,999,
scooby_state_401d14|27|-1 1,996,0,0,1,0,0,0,0,0,0,1,0,0,0,999,
scooby_state_401d43|17|1 1,994,0,0,0,1,0,1,0,0,0,0,2,0,0,999,
scooby_state_401d43|53|1 3,995,0,0,1,0,0,0,0,0,0,0,0,0,0,999,
scooby_state_401d14|28|-1 1,998,0,0,0,0,0,0,0,0,0,0,0,0,0,999,
scooby_state_401d43|58|1 1,997,0,0,0,1,0,0,0,0,0,0,0,0,0,999,
scooby_state_401cdb|47|-2 998,0,0,0,0,0,0,0,0,0,0,1,0,0,0,999,
scooby_state_401d14|39|-1 1,995,0,0,0,0,0,1,0,1,1,0,0,0,0,999,
scooby_state_401d14|42|-1 1,992,0,0,1,0,0,0,1,1,0,1,2,0,0,999,
scooby_state_401d43|9|1 0,997,1,0,0,0,0,0,0,0,0,0,1,0,0,999,
scooby_state_401cdb|57|-2 999,0,0,0,0,0,0,0,0,0,0,0,0,0,0,999,
scooby_state_401d14|59|-1 1,994,0,0,0,2,0,0,0,0,0,0,0,1,1,999,
scooby_state_401d14|7|-1 1,997,0,0,0,0,0,0,0,0,0,0,0,1,0,999,
scooby_state_401d14|58|-1 1,997,0,0,0,0,0,0,1,0,0,0,0,0,0,999,
scooby_state_401d43|4|1 0,996,0,0,0,0,1,0,1,0,0,0,0,0,1,999,
scooby_state_401cdb|3|-2 999,0,0,0,0,0,0,0,0,0,0,0,0,0,0,999,
scooby_state_401d14|14|-1 1,996,0,0,0,0,0,1,0,0,1,0,0,0,0,999,
scooby_state_401cdb|13|-2 998,0,0,0,0,0,0,0,0,0,0,0,0,0,1,999,
scooby_state_401d14|12|-1 1,995,1,0,0,0,1,1,0,0,0,0,0,0,0,999,
scooby_state_401d14|55|-1 1,996,0,0,1,1,0,0,0,0,0,0,0,0,0,999,
scooby_state_401d14|44|-1 1,997,0,0,0,0,0,1,0,0,0,0,0,0,0,999,
scooby_state_401cdb|8|-2 998,0,0,1,0,0,0,0,0,0,0,0,0,0,0,999,
scooby_state_401d14|22|-1 1,997,0,0,0,0,0,0,0,0,0,0,0,0,1,999,
scooby_state_401d14|48|-1 1,997,0,0,0,0,0,0,0,0,0,0,0,0,0,998,
scooby_state_401cdb|63|2 997,0,0,0,0,0,0,0,1,0,0,0,0,0,0,998,
scooby_state_401d43|56|1 1,996,0,0,0,0,0,0,0,0,0,0,1,0,0,998,
scooby_state_401d14|26|-1 0,997,0,1,0,0,0,0,0,0,0,0,0,0,0,998,
scooby_state_401d14|15|-1 1,994,0,0,0,0,0,0,1,0,1,1,0,0,0,998,
scooby_state_401d14|47|-1 1,993,0,0,1,0,0,0,1,0,1,1,0,0,0,998,
scooby_state_401d14|36|-1 1,996,0,0,1,0,0,0,0,0,0,0,0,0,0,998,
scooby_state_401d14|46|-1 0,995,1,0,0,0,1,1,0,0,0,0,0,0,0,998,
scooby_state_401d14|38|-1 1,994,1,0,0,0,0,1,0,1,0,0,0,0,0,998,
scooby_state_401d14|31|-1 1,996,0,0,0,0,0,0,1,0,0,0,0,0,0,998,
scooby_state_401d43|16|1 1,995,0,0,0,0,1,0,0,0,0,0,0,1,0,998,
scooby_state_401d14|30|-1 0,996,0,0,0,0,0,0,0,0,0,0,0,0,1,997,
scooby_state_401d14|20|-1 1,993,0,1,0,0,0,0,0,0,0,1,1,0,0,997,
scooby_state_401d14|10|-1 1,996,0,0,0,0,0,0,0,0,0,0,0,0,0,997,
scooby_state_401d14|43|-1 1,996,0,0,0,0,0,0,0,0,0,0,0,0,0,997,
scooby_state_401d14|23|-1 1,995,0,1,0,0,0,0,0,0,0,0,0,0,0,997,
scooby_state_401d14|11|-1 0,990,0,0,0,0,0,0,1,2,1,0,1,1,0,996,
scooby_state_401d14|60|-1 1,992,0,0,0,0,1,1,0,0,0,0,0,0,0,995,
scooby_state_401d14|50|-1 0,995,0,0,0,0,0,0,0,0,0,0,0,0,0,995,
scooby_state_401d14|6|-1 0,994,1,0,0,0,0,0,0,0,0,0,0,0,0,995,
scooby_state_401d14|16|-1 0,993,0,0,0,0,1,0,0,0,0,0,1,0,0,995,
scooby_state_401d43|31|1 1,961,0,0,0,0,0,0,0,0,1,0,0,0,0,963,
scooby_state_401cdb|30|-2 962,0,0,0,0,0,1,0,0,0,0,0,0,0,0,963,
scooby_state_401d43|11|1 1,961,0,0,0,0,0,0,0,0,0,0,0,0,0,962,
scooby_state_401cdb|6|-2 962,0,0,0,0,0,0,0,0,0,0,0,0,0,0,962,
scooby_state_401cdb|58|-2 960,0,0,0,0,0,0,0,0,0,1,0,0,0,1,962,
scooby_state_401d43|59|1 1,960,0,0,0,0,0,0,0,0,0,0,1,0,0,962,
scooby_state_401d43|47|1 1,958,0,0,0,2,0,0,0,0,0,0,0,1,0,962,
scooby_state_401d43|35|1 1,959,0,0,0,0,1,0,0,1,0,0,0,0,0,962,
scooby_state_401d43|7|1 1,961,0,0,0,0,0,0,0,0,0,0,0,0,0,962,
scooby_state_401cdb|46|-2 958,1,0,0,0,0,0,1,0,1,0,0,0,0,1,962,
scooby_state_401cdb|10|-2 962,0,0,0,0,0,0,0,0,0,0,0,0,0,0,962,
scooby_state_401cdb|34|-2 960,0,0,0,1,0,0,0,0,0,0,0,0,0,1,962,
scooby_state_401cdb|54|-2 961,0,0,0,0,0,0,0,0,0,0,0,0,0,0,961,
scooby_state_401d43|15|1 1,959,0,0,1,0,0,0,0,0,0,0,0,0,0,961,
scooby_state_401cdb|14|-2 959,0,0,0,0,0,1,0,0,0,0,0,1,0,0,961,
scooby_state_401d43|27|1 1,959,0,0,0,0,0,0,0,0,0,0,0,1,0,961,
scooby_state_401cdb|42|-2 956,0,0,0,1,1,1,0,0,0,0,0,1,0,1,961,
scooby_state_401cdb|50|-2 960,0,0,0,0,0,1,0,0,0,0,0,0,0,0,961,
scooby_state_401d14|53|-1 1,958,1,0,1,0,0,0,0,0,0,0,0,0,0,961,
scooby_state_401cdb|26|-2 959,0,1,0,0,0,0,0,0,1,0,0,0,0,0,961,
scooby_state_401d43|43|1 1,959,0,0,0,0,0,0,0,0,0,1,0,0,0,961,
scooby_state_401cdb|18|-2 959,0,0,0,0,0,1,0,0,0,0,0,1,0,0,961,
scooby_state_401d43|51|1 1,959,0,0,0,0,0,0,0,0,0,1,0,0,0,961,
scooby_state_401cdb|22|-2 960,0,0,0,0,0,0,0,0,0,0,0,0,0,1,961,
scooby_state_401d43|19|1 0,960,1,0,0,0,0,0,0,0,0,0,0,0,0,961,
scooby_state_401d14|5|-1 1,957,0,0,0,0,0,0,0,0,0,1,0,1,0,960,
scooby_state_401d14|1|-1 0,958,0,0,0,1,0,0,0,0,1,0,0,0,0,960,
scooby_state_401d43|23|1 1,959,0,0,0,0,0,0,0,0,0,0,0,0,0,960,
scooby_state_401d14|61|-1 0,959,0,0,0,0,0,0,0,0,0,1,0,0,0,960,
scooby_state_401d14|13|-1 0,959,0,1,0,0,0,0,0,0,0,0,0,0,0,960,
scooby_state_401cdb|2|-2 957,0,0,1,0,0,0,0,0,1,0,1,0,0,0,960,
scooby_state_401cdb|38|-2 960,0,0,0,0,0,0,0,0,0,0,0,0,0,0,960,
scooby_state_401d43|55|1 1,958,0,0,0,0,1,0,0,0,0,0,0,0,0,960,
scooby_state_401d14|45|-1 0,959,0,0,0,0,0,1,0,0,0,0,0,0,0,960,
scooby_state_401d43|39|1 0,958,0,0,1,0,0,0,0,0,0,0,1,0,0,960,
scooby_state_401d14|29|-1 0,958,0,0,0,0,0,1,0,1,0,0,0,0,0,960,
scooby_state_401d14|33|-1 1,957,0,0,0,1,0,0,0,0,0,0,0,0,0,959,
scooby_state_401d14|49|-1 1,956,0,0,0,0,0,0,0,0,1,1,0,0,0,959,
scooby_state_401cdb|62|2 959,0,0,0,0,0,0,0,0,0,0,0,0,0,0,959,
scooby_state_401d14|9|-1 1,956,0,0,0,0,0,0,0,1,1,0,0,0,0,959,
scooby_state_401d14|25|-1 1,958,0,0,0,0,0,0,0,0,0,0,0,0,0,959,
scooby_state_401d14|37|-1 1,958,0,0,0,0,0,0,0,0,0,0,0,0,0,959,
scooby_state_401d14|21|-1 0,957,0,0,0,0,0,0,0,0,0,1,0,0,0,958,
scooby_state_401d43|3|1 1,954,0,1,0,0,0,2,0,0,0,0,0,0,0,958,
scooby_state_401d14|17|-1 1,954,0,1,0,1,0,1,0,0,0,0,0,0,0,958,
scooby_state_401d14|57|-1 1,954,0,0,0,0,0,1,0,0,0,0,0,0,1,957,
scooby_state_401d14|41|-1 0,956,1,0,0,0,0,0,0,0,0,0,0,0,0,957,
scooby_state_401d43|63|1 1,947,0,0,0,0,0,0,1,0,0,1,0,0,0,950,
scooby_state_401cb0|4|3 944,0,0,0,0,0,0,0,0,0,0,0,0,0,0,944,
scooby_state_401d43|1|1 1,928,0,1,1,0,0,1,0,1,0,0,0,0,0,933,
scooby_state_401d14|0|-1 1,924,0,1,0,0,0,1,0,0,0,0,1,0,0,928,
scooby_state_401d43|0|-1 2,921,0,1,0,0,0,0,0,0,0,0,0,0,0,924,
scooby_state_401cdb|0|-2 775,0,0,0,0,0,0,0,0,0,0,0,0,0,0,775,
scooby_state_401d37|0|-2 119,0,0,0,0,0,0,0,0,0,0,0,0,0,0,119,
scooby_state_401cdb|0|-1 67,0,0,0,0,0,0,0,0,0,0,0,0,0,0,67,
scooby_state_401d98|0|-1 59,0,0,0,0,0,0,0,0,0,0,0,0,0,0,59,
scooby_state_401d37|0|-1 55,0,0,0,0,0,0,0,0,0,0,0,0,0,0,55,
scooby_state_401e67|39|1 50,0,0,0,0,0,0,0,0,0,0,0,0,0,0,50,
scooby_state_401e02|62|2 50,0,0,0,0,0,0,0,0,0,0,0,0,0,0,50,
scooby_state_401e33|1|-1 0,50,0,0,0,0,0,0,0,0,0,0,0,0,0,50,
scooby_state_401e02|38|-2 50,0,0,0,0,0,0,0,0,0,0,0,0,0,0,50,
scooby_state_401e33|53|-1 1,49,0,0,0,0,0,0,0,0,0,0,0,0,0,50,
scooby_state_401e33|5|-1 1,49,0,0,0,0,0,0,0,0,0,0,0,0,0,50,
scooby_state_401e67|63|1 50,0,0,0,0,0,0,0,0,0,0,0,0,0,0,50,
scooby_state_401e02|54|-2 50,0,0,0,0,0,0,0,0,0,0,0,0,0,0,50,
scooby_state_401e02|26|-2 50,0,0,0,0,0,0,0,0,0,0,0,0,0,0,50,
scooby_state_401e33|17|-1 1,49,0,0,0,0,0,0,0,0,0,0,0,0,0,50,
scooby_state_401e02|14|-2 50,0,0,0,0,0,0,0,0,0,0,0,0,0,0,50,
scooby_state_401e67|27|1 50,0,0,0,0,0,0,0,0,0,0,0,0,0,0,50,
scooby_state_401e33|57|-1 0,50,0,0,0,0,0,0,0,0,0,0,0,0,0,50,
scooby_state_401e67|3|1 50,0,0,0,0,0,0,0,0,0,0,0,0,0,0,50,
scooby_state_401e67|51|1 50,0,0,0,0,0,0,0,0,0,0,0,0,0,0,50,
scooby_state_401e02|2|-2 49,0,0,0,0,0,0,0,0,0,0,0,0,0,1,50,
scooby_state_401e33|29|-1 1,49,0,0,0,0,0,0,0,0,0,0,0,0,0,50,
scooby_state_401e02|50|-2 50,0,0,0,0,0,0,0,0,0,0,0,0,0,0,50,
scooby_state_401e67|15|1 50,0,0,0,0,0,0,0,0,0,0,0,0,0,0,50,
scooby_state_401e67|55|1 49,0,0,0,0,0,0,0,0,0,0,0,0,0,0,49,
scooby_state_401e67|59|1 48,0,0,0,1,0,0,0,0,0,0,0,0,0,0,49,
scooby_state_401e33|13|-1 0,49,0,0,0,0,0,0,0,0,0,0,0,0,0,49,
scooby_state_401e67|19|1 49,0,0,0,0,0,0,0,0,0,0,0,0,0,0,49,
scooby_state_401e02|34|-2 49,0,0,0,0,0,0,0,0,0,0,0,0,0,0,49,
scooby_state_401e67|11|1 49,0,0,0,0,0,0,0,0,0,0,0,0,0,0,49,
scooby_state_401e33|25|-1 0,48,0,0,0,0,1,0,0,0,0,0,0,0,0,49,
scooby_state_401e02|58|-2 49,0,0,0,0,0,0,0,0,0,0,0,0,0,0,49,
scooby_state_401e33|61|-1 0,49,0,0,0,0,0,0,0,0,0,0,0,0,0,49,
scooby_state_401e02|6|-2 49,0,0,0,0,0,0,0,0,0,0,0,0,0,0,49,
scooby_state_401e33|41|-1 1,48,0,0,0,0,0,0,0,0,0,0,0,0,0,49,
scooby_state_401e02|10|-2 49,0,0,0,0,0,0,0,0,0,0,0,0,0,0,49,
scooby_state_401e02|22|-2 48,0,0,1,0,0,0,0,0,0,0,0,0,0,0,49,
scooby_state_401e33|21|-1 0,49,0,0,0,0,0,0,0,0,0,0,0,0,0,49,
scooby_state_401e33|9|-1 0,49,0,0,0,0,0,0,0,0,0,0,0,0,0,49,
scooby_state_401e67|23|1 48,0,0,0,0,0,0,0,0,0,0,0,0,0,1,49,
scooby_state_401e33|49|-1 0,49,0,0,0,0,0,0,0,0,0,0,0,0,0,49,
scooby_state_401e33|45|-1 0,49,0,0,0,0,0,0,0,0,0,0,0,0,0,49,
scooby_state_401e67|47|1 48,0,0,0,0,0,0,0,0,0,0,0,0,1,0,49,
scooby_state_401e02|18|-2 49,0,0,0,0,0,0,0,0,0,0,0,0,0,0,49,
scooby_state_401e02|46|-2 49,0,0,0,0,0,0,0,0,0,0,0,0,0,0,49,
scooby_state_401e02|42|-2 49,0,0,0,0,0,0,0,0,0,0,0,0,0,0,49,
scooby_state_401e67|35|1 47,0,0,0,1,0,0,0,0,0,0,0,1,0,0,49,
scooby_state_401e67|7|1 47,0,0,1,0,0,0,0,0,0,0,0,0,0,0,48,
scooby_state_401e33|33|-1 0,48,0,0,0,0,0,0,0,0,0,0,0,0,0,48,
scooby_state_401e33|37|-1 0,48,0,0,0,0,0,0,0,0,0,0,0,0,0,48,
scooby_state_401e02|30|-2 48,0,0,0,0,0,0,0,0,0,0,0,0,0,0,48,
scooby_state_401e67|43|1 47,0,0,0,0,0,0,0,0,1,0,0,0,0,0,48,
scooby_state_401d98|1|-1 47,0,0,0,0,0,0,0,0,0,0,0,0,0,0,47,
scooby_state_401e67|31|1 47,0,0,0,0,0,0,0,0,0,0,0,0,0,0,47,
scooby_state_401ce6|0|-2 35,0,0,0,0,0,0,0,0,0,0,0,0,0,0,35,
scooby_state_401d4f|0|-1 19,0,0,0,0,0,0,0,0,0,0,0,0,0,0,19,
scooby_state_401d87|1|-1 19,0,0,0,0,0,0,0,0,0,0,0,0,0,0,19,
scooby_state_401dac|0|-1 18,0,0,0,0,0,0,0,0,0,0,0,0,0,0,18,
scooby_state_401e02|52|-2 11,0,0,0,0,0,0,0,0,0,0,0,0,0,0,11,
scooby_state_401e02|3|-2 11,0,0,0,0,0,0,0,0,0,0,0,0,0,0,11,
scooby_state_401e67|48|1 11,0,0,0,0,0,0,0,0,0,0,0,0,0,0,11,
scooby_state_401e33|55|-1 0,11,0,0,0,0,0,0,0,0,0,0,0,0,0,11,
scooby_state_401e02|13|-2 11,0,0,0,0,0,0,0,0,0,0,0,0,0,0,11,
scooby_state_401e67|14|1 11,0,0,0,0,0,0,0,0,0,0,0,0,0,0,11,
scooby_state_401e67|9|1 11,0,0,0,0,0,0,0,0,0,0,0,0,0,0,11,
scooby_state_401e33|60|-1 0,11,0,0,0,0,0,0,0,0,0,0,0,0,0,11,
scooby_state_401e67|4|1 11,0,0,0,0,0,0,0,0,0,0,0,0,0,0,11,
scooby_state_401e67|53|1 11,0,0,0,0,0,0,0,0,0,0,0,0,0,0,11,
scooby_state_401e33|11|-1 0,11,0,0,0,0,0,0,0,0,0,0,0,0,0,11,
scooby_state_401e02|47|-2 11,0,0,0,0,0,0,0,0,0,0,0,0,0,0,11,
scooby_state_401e02|8|-2 11,0,0,0,0,0,0,0,0,0,0,0,0,0,0,11,
scooby_state_401e33|6|-1 0,11,0,0,0,0,0,0,0,0,0,0,0,0,0,11,
scooby_state_401e67|58|1 11,0,0,0,0,0,0,0,0,0,0,0,0,0,0,11,
scooby_state_401e33|16|-1 0,11,0,0,0,0,0,0,0,0,0,0,0,0,0,11,
scooby_state_401e02|57|-2 11,0,0,0,0,0,0,0,0,0,0,0,0,0,0,11,
scooby_state_401e33|50|-1 0,11,0,0,0,0,0,0,0,0,0,0,0,0,0,11,
scooby_state_401e33|43|-1 0,10,0,0,0,0,0,0,0,0,0,0,0,0,0,10,
scooby_state_401e67|46|1 10,0,0,0,0,0,0,0,0,0,0,0,0,0,0,10,
scooby_state_401d4f|63|1 9,0,0,1,0,0,0,0,0,0,0,0,0,0,0,10,
scooby_state_401e33|48|-1 0,10,0,0,0,0,0,0,0,0,0,0,0,0,0,10,
scooby_state_401e02|15|-2 10,0,0,0,0,0,0,0,0,0,0,0,0,0,0,10,
scooby_state_401e67|16|1 10,0,0,0,0,0,0,0,0,0,0,0,0,0,0,10,
scooby_state_401e67|21|1 10,0,0,0,0,0,0,0,0,0,0,0,0,0,0,10,
scooby_state_401e33|23|-1 0,10,0,0,0,0,0,0,0,0,0,0,0,0,0,10,
scooby_state_401e02|25|-2 10,0,0,0,0,0,0,0,0,0,0,0,0,0,0,10,
scooby_state_401e02|20|-2 10,0,0,0,0,0,0,0,0,0,0,0,0,0,0,10,
scooby_state_401e67|26|1 10,0,0,0,0,0,0,0,0,0,0,0,0,0,0,10,
scooby_state_401e33|28|-1 0,10,0,0,0,0,0,0,0,0,0,0,0,0,0,10,
scooby_state_401e02|35|-2 10,0,0,0,0,0,0,0,0,0,0,0,0,0,0,10,
scooby_state_401e67|36|1 10,0,0,0,0,0,0,0,0,0,0,0,0,0,0,10,
scooby_state_401e33|38|-1 0,10,0,0,0,0,0,0,0,0,0,0,0,0,0,10,
scooby_state_401e02|40|-2 10,0,0,0,0,0,0,0,0,0,0,0,0,0,0,10,
scooby_state_401e67|41|1 10,0,0,0,0,0,0,0,0,0,0,0,0,0,0,10,
scooby_state_401e02|45|-2 10,0,0,0,0,0,0,0,0,0,0,0,0,0,0,10,
scooby_state_401e33|18|-1 0,10,0,0,0,0,0,0,0,0,0,0,0,0,0,10,
scooby_state_401e33|22|-1 0,9,0,0,0,0,0,0,0,0,0,0,0,0,0,9,
scooby_state_401e02|4|-2 9,0,0,0,0,0,0,0,0,0,0,0,0,0,0,9,
scooby_state_401e02|39|-2 9,0,0,0,0,0,0,0,0,0,0,0,0,0,0,9,
scooby_state_401e67|5|1 9,0,0,0,0,0,0,0,0,0,0,0,0,0,0,9,
scooby_state_401e33|12|-1 0,9,0,0,0,0,0,0,0,0,0,0,0,0,0,9,
scooby_state_401e02|29|-2 9,0,0,0,0,0,0,0,0,0,0,0,0,0,0,9,
scooby_state_401e33|32|-1 0,9,0,0,0,0,0,0,0,0,0,0,0,0,0,9,
scooby_state_401e67|10|1 8,0,0,0,0,0,0,1,0,0,0,0,0,0,0,9,
scooby_state_401e02|16|-2 9,0,0,0,0,0,0,0,0,0,0,0,0,0,0,9,
scooby_state_401e67|20|1 9,0,0,0,0,0,0,0,0,0,0,0,0,0,0,9,
scooby_state_401e02|0|-2 9,0,0,0,0,0,0,0,0,0,0,0,0,0,0,9,
scooby_state_401e02|61|-2 8,0,0,0,0,0,0,1,0,0,0,0,0,0,0,9,
scooby_state_401e67|18|1 9,0,0,0,0,0,0,0,0,0,0,0,0,0,0,9,
scooby_state_401e67|57|1 9,0,0,0,0,0,0,0,0,0,0,0,0,0,0,9,
scooby_state_401e67|30|1 9,0,0,0,0,0,0,0,0,0,0,0,0,0,0,9,
scooby_state_401e02|28|-2 9,0,0,0,0,0,0,0,0,0,0,0,0,0,0,9,
scooby_state_401e33|27|-1 0,9,0,0,0,0,0,0,0,0,0,0,0,0,0,9,
scooby_state_401e67|44|1 9,0,0,0,0,0,0,0,0,0,0,0,0,0,0,9,
scooby_state_401e02|56|-2 9,0,0,0,0,0,0,0,0,0,0,0,0,0,0,9,
scooby_state_401e02|24|-2 9,0,0,0,0,0,0,0,0,0,0,0,0,0,0,9,
scooby_state_401e67|0|-1 9,0,0,0,0,0,0,0,0,0,0,0,0,0,0,9,
scooby_state_401e02|41|-2 9,0,0,0,0,0,0,0,0,0,0,0,0,0,0,9,
scooby_state_401e67|49|1 9,0,0,0,0,0,0,0,0,0,0,0,0,0,0,9,
scooby_state_401e67|12|1 9,0,0,0,0,0,0,0,0,0,0,0,0,0,0,9,
scooby_state_401e02|5|-2 9,0,0,0,0,0,0,0,0,0,0,0,0,0,0,9,
scooby_state_401e02|53|-2 9,0,0,0,0,0,0,0,0,0,0,0,0,0,0,9,
scooby_state_401e02|23|-2 9,0,0,0,0,0,0,0,0,0,0,0,0,0,0,9,
scooby_state_401e67|24|1 9,0,0,0,0,0,0,0,0,0,0,0,0,0,0,9,
scooby_state_401e02|33|-2 9,0,0,0,0,0,0,0,0,0,0,0,0,0,0,9,
scooby_state_401e33|51|-1 0,9,0,0,0,0,0,0,0,0,0,0,0,0,0,9,
scooby_state_401e33|56|-1 0,9,0,0,0,0,0,0,0,0,0,0,0,0,0,9,
scooby_state_401e02|63|2 9,0,0,0,0,0,0,0,0,0,0,0,0,0,0,9,
scooby_state_401e33|0|-1 0,9,0,0,0,0,0,0,0,0,0,0,0,0,0,9,
scooby_state_401e67|62|1 9,0,0,0,0,0,0,0,0,0,0,0,0,0,0,9,
scooby_state_401e67|2|1 9,0,0,0,0,0,0,0,0,0,0,0,0,0,0,9,
scooby_state_401e02|36|-2 9,0,0,0,0,0,0,0,0,0,0,0,0,0,0,9,
scooby_state_401e33|39|-1 0,9,0,0,0,0,0,0,0,0,0,0,0,0,0,9,
scooby_state_401e33|44|-1 0,9,0,0,0,0,0,0,0,0,0,0,0,0,0,9,
scooby_state_401e67|60|1 9,0,0,0,0,0,0,0,0,0,0,0,0,0,0,9,
scooby_state_401e02|51|-2 9,0,0,0,0,0,0,0,0,0,0,0,0,0,0,9,
scooby_state_401e02|32|-2 9,0,0,0,0,0,0,0,0,0,0,0,0,0,0,9,
scooby_state_401e33|54|-1 0,9,0,0,0,0,0,0,0,0,0,0,0,0,0,9,
scooby_state_401e33|59|-1 0,9,0,0,0,0,0,0,0,0,0,0,0,0,0,9,
scooby_state_401e33|34|-1 0,9,0,0,0,0,0,0,0,0,0,0,0,0,0,9,
scooby_state_401e67|8|1 9,0,0,0,0,0,0,0,0,0,0,0,0,0,0,9,
scooby_state_401e33|10|-1 0,9,0,0,0,0,0,0,0,0,0,0,0,0,0,9,
scooby_state_401e33|15|-1 0,9,0,0,0,0,0,0,0,0,0,0,0,0,0,9,
scooby_state_401e02|12|-2 9,0,0,0,0,0,0,0,0,0,0,0,0,0,0,9,
scooby_state_401e02|17|-2 9,0,0,0,0,0,0,0,0,0,0,0,0,0,0,9,
scooby_state_401e02|27|-2 9,0,0,0,0,0,0,0,0,0,0,0,0,0,0,9,
scooby_state_401e67|28|1 9,0,0,0,0,0,0,0,0,0,0,0,0,0,0,9,
scooby_state_401e33|4|-1 0,9,0,0,0,0,0,0,0,0,0,0,0,0,0,9,
scooby_state_401e67|42|1 9,0,0,0,0,0,0,0,0,0,0,0,0,0,0,9,
scooby_state_401e33|62|-1 0,9,0,0,0,0,0,0,0,0,0,0,0,0,0,9,
scooby_state_401e67|29|1 9,0,0,0,0,0,0,0,0,0,0,0,0,0,0,9,
scooby_state_401e33|42|-1 0,9,0,0,0,0,0,0,0,0,0,0,0,0,0,9,
scooby_state_401e33|14|-1 0,9,0,0,0,0,0,0,0,0,0,0,0,0,0,9,
scooby_state_401e02|21|-2 9,0,0,0,0,0,0,0,0,0,0,0,0,0,0,9,
scooby_state_401e33|20|-1 0,9,0,0,0,0,0,0,0,0,0,0,0,0,0,9,
scooby_state_401e02|9|-2 9,0,0,0,0,0,0,0,0,0,0,0,0,0,0,9,
scooby_state_401e67|17|1 9,0,0,0,0,0,0,0,0,0,0,0,0,0,0,9,
scooby_state_401e02|19|-2 9,0,0,0,0,0,0,0,0,0,0,0,0,0,0,9,
scooby_state_401e67|25|1 9,0,0,0,0,0,0,0,0,0,0,0,0,0,0,9,
scooby_state_401e67|13|1 9,0,0,0,0,0,0,0,0,0,0,0,0,0,0,9,
scooby_state_401e67|56|1 9,0,0,0,0,0,0,0,0,0,0,0,0,0,0,9,
scooby_state_401e67|54|1 9,0,0,0,0,0,0,0,0,0,0,0,0,0,0,9,
scooby_state_401e02|59|-2 9,0,0,0,0,0,0,0,0,0,0,0,0,0,0,9,
scooby_state_401e02|11|-2 9,0,0,0,0,0,0,0,0,0,0,0,0,0,0,9,
scooby_state_401e33|24|-1 0,9,0,0,0,0,0,0,0,0,0,0,0,0,0,9,
scooby_state_401e02|31|-2 9,0,0,0,0,0,0,0,0,0,0,0,0,0,0,9,
scooby_state_401e67|32|1 9,0,0,0,0,0,0,0,0,0,0,0,0,0,0,9,
scooby_state_401e33|30|-1 0,9,0,0,0,0,0,0,0,0,0,0,0,0,0,9,
scooby_state_401e33|31|-1 0,9,0,0,0,0,0,0,0,0,0,0,0,0,0,9,
scooby_state_401e02|55|-2 9,0,0,0,0,0,0,0,0,0,0,0,0,0,0,9,
scooby_state_401e67|38|1 9,0,0,0,0,0,0,0,0,0,0,0,0,0,0,9,
scooby_state_401e02|49|-2 9,0,0,0,0,0,0,0,0,0,0,0,0,0,0,9,
scooby_state_401e67|40|1 9,0,0,0,0,0,0,0,0,0,0,0,0,0,0,9,
scooby_state_401e33|40|-1 0,9,0,0,0,0,0,0,0,0,0,0,0,0,0,9,
scooby_state_401e67|50|1 9,0,0,0,0,0,0,0,0,0,0,0,0,0,0,9,
scooby_state_401e67|33|1 9,0,0,0,0,0,0,0,0,0,0,0,0,0,0,9,
scooby_state_401e67|6|1 9,0,0,0,0,0,0,0,0,0,0,0,0,0,0,9,
scooby_state_401e33|2|-1 0,9,0,0,0,0,0,0,0,0,0,0,0,0,0,9,
scooby_state_401e33|8|-1 0,9,0,0,0,0,0,0,0,0,0,0,0,0,0,9,
scooby_state_401e67|22|1 9,0,0,0,0,0,0,0,0,0,0,0,0,0,0,9,
scooby_state_401e02|7|-2 9,0,0,0,0,0,0,0,0,0,0,0,0,0,0,9,
scooby_state_401e33|52|-1 0,9,0,0,0,0,0,0,0,0,0,0,0,0,0,9,
scooby_state_401e33|58|-1 0,9,0,0,0,0,0,0,0,0,0,0,0,0,0,9,
scooby_state_401e02|43|-2 9,0,0,0,0,0,0,0,0,0,0,0,0,0,0,9,
scooby_state_401e02|1|-2 9,0,0,0,0,0,0,0,0,0,0,0,0,0,0,9,
scooby_state_401e67|1|1 9,0,0,0,0,0,0,0,0,0,0,0,0,0,0,9,
scooby_state_401e67|37|1 9,0,0,0,0,0,0,0,0,0,0,0,0,0,0,9,
scooby_state_401e02|60|-2 9,0,0,0,0,0,0,0,0,0,0,0,0,0,0,9,
scooby_state_401e67|61|1 9,0,0,0,0,0,0,0,0,0,0,0,0,0,0,9,
scooby_state_401e33|36|-1 0,9,0,0,0,0,0,0,0,0,0,0,0,0,0,9,
scooby_state_401e67|52|1 9,0,0,0,0,0,0,0,0,0,0,0,0,0,0,9,
scooby_state_401e67|34|1 9,0,0,0,0,0,0,0,0,0,0,0,0,0,0,9,
scooby_state_401e33|7|-1 0,9,0,0,0,0,0,0,0,0,0,0,0,0,0,9,
scooby_state_401e02|37|-2 9,0,0,0,0,0,0,0,0,0,0,0,0,0,0,9,
scooby_state_401e67|45|1 9,0,0,0,0,0,0,0,0,0,0,0,0,0,0,9,
scooby_state_401e02|44|-2 9,0,0,0,0,0,0,0,0,0,0,0,0,0,0,9,
scooby_state_401e33|26|-1 0,9,0,0,0,0,0,0,0,0,0,0,0,0,0,9,
scooby_state_401e33|35|-1 0,9,0,0,0,0,0,0,0,0,0,0,0,0,0,9,
scooby_state_401e33|3|-1 0,9,0,0,0,0,0,0,0,0,0,0,0,0,0,9,
scooby_state_401e33|47|-1 0,9,0,0,0,0,0,0,0,0,0,0,0,0,0,9,
scooby_state_401e33|46|-1 0,9,0,0,0,0,0,0,0,0,0,0,0,0,0,9,
scooby_state_401e02|48|-2 9,0,0,0,0,0,0,0,0,0,0,0,0,0,0,9,
scooby_state_401e33|63|2 0,8,0,0,0,0,0,0,0,0,0,0,0,0,0,8,
scooby_state_401e33|19|-1 0,8,0,0,0,0,0,0,0,0,0,0,0,0,0,8,
scooby_state_401cf7|0|-2 6,0,0,0,0,0,0,0,0,0,0,0,0,0,0,6,
scooby_state_40206d|41|0 4,0,0,0,0,0,0,0,0,0,0,0,0,0,0,4,
scooby_state_401d1f|20|-1 0,4,0,0,0,0,0,0,0,0,0,0,0,0,0,4,
scooby_state_401d1f|10|-1 0,4,0,0,0,0,0,0,0,0,0,0,0,0,0,4,
scooby_state_401d1f|23|-1 0,4,0,0,0,0,0,0,0,0,0,0,0,0,0,4,
scooby_state_40208c|42|1 4,0,0,0,0,0,0,0,0,0,0,0,0,0,0,4,
scooby_state_401d1f|30|-1 0,4,0,0,0,0,0,0,0,0,0,0,0,0,0,4,
scooby_state_401d1f|60|-1 0,4,0,0,0,0,0,0,0,0,0,0,0,0,0,4,
scooby_state_401d1f|50|-1 0,4,0,0,0,0,0,0,0,0,0,0,0,0,0,4,
scooby_state_401d1f|6|-1 0,4,0,0,0,0,0,0,0,0,0,0,0,0,0,4,
scooby_state_401d1f|33|-1 0,4,0,0,0,0,0,0,0,0,0,0,0,0,0,4,
scooby_state_401d1f|57|-1 0,4,0,0,0,0,0,0,0,0,0,0,0,0,0,4,
scooby_state_401d1f|16|-1 0,4,0,0,0,0,0,0,0,0,0,0,0,0,0,4,
scooby_state_4023cc|43|1 1,3,0,0,0,0,0,0,0,0,0,0,0,0,0,4,
scooby_state_401d1f|43|-1 0,4,0,0,0,0,0,0,0,0,0,0,0,0,0,4,
scooby_state_401d1f|47|-1 0,4,0,0,0,0,0,0,0,0,0,0,0,0,0,4,
scooby_state_401d1f|32|-1 0,3,0,0,0,0,0,0,0,0,0,0,0,0,0,3,
scooby_state_401d1f|37|-1 0,3,0,0,0,0,0,0,0,0,0,0,0,0,0,3,
scooby_state_401d1f|22|-1 0,3,0,0,0,0,0,0,0,0,0,0,0,0,0,3,
scooby_state_401d1f|38|-1 0,3,0,0,0,0,0,0,0,0,0,0,0,0,0,3,
scooby_state_401d1f|21|-1 0,3,0,0,0,0,0,0,0,0,0,0,0,0,0,3,
scooby_state_401d1f|15|-1 0,3,0,0,0,0,0,0,0,0,0,0,0,0,0,3,
scooby_state_401d1f|58|-1 0,3,0,0,0,0,0,0,0,0,0,0,0,0,0,3,
scooby_state_401d1f|26|-1 0,3,0,0,0,0,0,0,0,0,0,0,0,0,0,3,
scooby_state_401d1f|34|-1 0,3,0,0,0,0,0,0,0,0,0,0,0,0,0,3,
scooby_state_401d1f|44|-1 0,3,0,0,0,0,0,0,0,0,0,0,0,0,0,3,
scooby_state_401d1f|39|-1 0,2,0,0,0,1,0,0,0,0,0,0,0,0,0,3,
scooby_state_401d1f|9|-1 0,3,0,0,0,0,0,0,0,0,0,0,0,0,0,3,
scooby_state_401d1f|63|2 0,3,0,0,0,0,0,0,0,0,0,0,0,0,0,3,
scooby_state_401d1f|42|-1 0,3,0,0,0,0,0,0,0,0,0,0,0,0,0,3,
scooby_state_401d60|16|1 3,0,0,0,0,0,0,0,0,0,0,0,0,0,0,3,
scooby_state_401d60|17|1 3,0,0,0,0,0,0,0,0,0,0,0,0,0,0,3,
scooby_state_401d1f|59|-1 0,3,0,0,0,0,0,0,0,0,0,0,0,0,0,3,
scooby_state_401d1f|12|-1 0,3,0,0,0,0,0,0,0,0,0,0,0,0,0,3,
scooby_state_401d1f|48|-1 0,3,0,0,0,0,0,0,0,0,0,0,0,0,0,3,
scooby_state_401d1f|49|-1 0,3,0,0,0,0,0,0,0,0,0,0,0,0,0,3,
scooby_state_401d1f|11|-1 0,3,0,0,0,0,0,0,0,0,0,0,0,0,0,3,
scooby_state_401d1f|36|-1 0,3,0,0,0,0,0,0,0,0,0,0,0,0,0,3,
scooby_state_401d1f|27|-1 0,3,0,0,0,0,0,0,0,0,0,0,0,0,0,3,
scooby_state_401d1f|7|-1 0,3,0,0,0,0,0,0,0,0,0,0,0,0,0,3,
scooby_state_401d60|56|1 3,0,0,0,0,0,0,0,0,0,0,0,0,0,0,3,
scooby_state_401d1f|46|-1 0,3,0,0,0,0,0,0,0,0,0,0,0,0,0,3,
scooby_state_401d1f|14|-1 0,3,0,0,0,0,0,0,0,0,0,0,0,0,0,3,
scooby_state_401d1f|31|-1 0,3,0,0,0,0,0,0,0,0,0,0,0,0,0,3,
scooby_state_401d1f|17|-1 0,3,0,0,0,0,0,0,0,0,0,0,0,0,0,3,
scooby_state_401d1f|41|-1 0,3,0,0,0,0,0,0,0,0,0,0,0,0,0,3,
scooby_state_401ce6|63|2 2,0,0,0,0,0,0,0,0,0,0,0,0,0,0,2,
scooby_state_401cf7|63|2 2,0,0,0,0,0,0,0,0,0,0,0,0,0,0,2,
scooby_state_401d1f|18|-1 0,2,0,0,0,0,0,0,0,0,0,0,0,0,0,2,
scooby_state_401d1f|13|-1 1,1,0,0,0,0,0,0,0,0,0,0,0,0,0,2,
scooby_state_401d4f|1|1 2,0,0,0,0,0,0,0,0,0,0,0,0,0,0,2,
scooby_state_401d1f|61|-1 1,1,0,0,0,0,0,0,0,0,0,0,0,0,0,2,
scooby_state_401d4f|2|1 2,0,0,0,0,0,0,0,0,0,0,0,0,0,0,2,
scooby_state_401d1f|25|-1 0,2,0,0,0,0,0,0,0,0,0,0,0,0,0,2,
scooby_state_401d4f|3|1 2,0,0,0,0,0,0,0,0,0,0,0,0,0,0,2,
scooby_state_401d1f|62|-1 0,2,0,0,0,0,0,0,0,0,0,0,0,0,0,2,
scooby_state_401d1f|28|-1 0,2,0,0,0,0,0,0,0,0,0,0,0,0,0,2,
scooby_state_401d4f|54|1 1,0,0,0,0,0,0,0,0,0,0,0,0,0,0,1,
scooby_state_401d4f|12|1 1,0,0,0,0,0,0,0,0,0,0,0,0,0,0,1,
scooby_state_401d71|1|-1 1,0,0,0,0,0,0,0,0,0,0,0,0,0,0,1,
scooby_state_401d4f|26|1 1,0,0,0,0,0,0,0,0,0,0,0,0,0,0,1,
scooby_state_401e40|19|-1 1,0,0,0,0,0,0,0,0,0,0,0,0,0,0,1,
scooby_state_401e4d|63|2 1,0,0,0,0,0,0,0,0,0,0,0,0,0,0,1,
scooby_state_401d60|28|1 1,0,0,0,0,0,0,0,0,0,0,0,0,0,0,1,
scooby_state_401cf7|39|-2 1,0,0,0,0,0,0,0,0,0,0,0,0,0,0,1,
scooby_state_401e74|31|1 0,1,0,0,0,0,0,0,0,0,0,0,0,0,0,1,
scooby_state_402680|26|1 1,0,0,0,0,0,0,0,0,0,0,0,0,0,0,1,
scooby_state_401d4f|52|1 1,0,0,0,0,0,0,0,0,0,0,0,0,0,0,1,
scooby_state_401cc5|51|1 1,0,0,0,0,0,0,0,0,0,0,0,0,0,0,1,
scooby_state_4025c2|23|1 1,0,0,0,0,0,0,0,0,0,0,0,0,0,0,1,
scooby_state_401d60|55|1 1,0,0,0,0,0,0,0,0,0,0,0,0,0,0,1,
scooby_state_401d60|23|1 1,0,0,0,0,0,0,0,0,0,0,0,0,0,0,1,
scooby_state_401e81|58|1 1,0,0,0,0,0,0,0,0,0,0,0,0,0,0,1,
scooby_state_402183|6|1 1,0,0,0,0,0,0,0,0,0,0,0,0,0,0,1,
scooby_state_402559|46|0 1,0,0,0,0,0,0,0,0,0,0,0,0,0,0,1,
scooby_state_402142|5|1 1,0,0,0,0,0,0,0,0,0,0,0,0,0,0,1,
scooby_state_401d60|54|1 1,0,0,0,0,0,0,0,0,0,0,0,0,0,0,1,
scooby_state_401cb0|50|0 1,0,0,0,0,0,0,0,0,0,0,0,0,0,0,1,
scooby_state_4025df|49|1 1,0,0,0,0,0,0,0,0,0,0,0,0,0,0,1,
scooby_state_402345|13|1 1,0,0,0,0,0,0,0,0,0,0,0,0,0,0,1,
scooby_state_401d82|54|1 1,0,0,0,0,0,0,0,0,0,0,0,0,0,0,1,
scooby_state_401ef0|59|4 1,0,0,0,0,0,0,0,0,0,0,0,0,0,0,1,
scooby_state_401fc1|63|1 1,0,0,0,0,0,0,0,0,0,0,0,0,0,0,1,
scooby_state_402642|25|1 1,0,0,0,0,0,0,0,0,0,0,0,0,0,0,1,
scooby_state_401e02|56|-7 1,0,0,0,0,0,0,0,0,0,0,0,0,0,0,1,
scooby_state_401cf7|62|2 1,0,0,0,0,0,0,0,0,0,0,0,0,0,0,1,
scooby_state_402780|30|1 1,0,0,0,0,0,0,0,0,0,0,0,0,0,0,1,
scooby_state_401e74|55|1 0,1,0,0,0,0,0,0,0,0,0,0,0,0,0,1,
scooby_state_401e74|7|1 0,1,0,0,0,0,0,0,0,0,0,0,0,0,0,1,
scooby_state_4021c2|7|1 1,0,0,0,0,0,0,0,0,0,0,0,0,0,0,1,
scooby_state_402600|24|1 1,0,0,0,0,0,0,0,0,0,0,0,0,0,0,1,
scooby_state_401e4d|41|-1 1,0,0,0,0,0,0,0,0,0,0,0,0,0,0,1,
scooby_state_402593|48|0 1,0,0,0,0,0,0,0,0,0,0,0,0,0,0,1,
scooby_state_402579|45|-1 1,0,0,0,0,0,0,0,0,0,0,0,0,0,0,1,
scooby_state_401d1f|45|-1 1,0,0,0,0,0,0,0,0,0,0,0,0,0,0,1,
scooby_state_401cb0|52|2 1,0,0,0,0,0,0,0,0,0,0,0,0,0,0,1,
scooby_state_4020c2|3|1 1,0,0,0,0,0,0,0,0,0,0,0,0,0,0,1,
scooby_state_402081|2|1 1,0,0,0,0,0,0,0,0,0,0,0,0,0,0,1,
scooby_state_4022c0|11|1 1,0,0,0,0,0,0,0,0,0,0,0,0,0,0,1,
scooby_state_401d4f|56|1 1,0,0,0,0,0,0,0,0,0,0,0,0,0,0,1,
scooby_state_402704|28|1 1,0,0,0,0,0,0,0,0,0,0,0,0,0,0,1,
scooby_state_40264f|44|-1 1,0,0,0,0,0,0,0,0,0,0,0,0,0,0,1,
scooby_state_402304|12|1 1,0,0,0,0,0,0,0,0,0,0,0,0,0,0,1,
scooby_state_402441|17|1 1,0,0,0,0,0,0,0,0,0,0,0,0,0,0,1,
scooby_state_401d1f|29|-1 1,0,0,0,0,0,0,0,0,0,0,0,0,0,0,1,
scooby_state_4026c4|27|1 1,0,0,0,0,0,0,0,0,0,0,0,0,0,0,1,
scooby_state_401f82|62|1 1,0,0,0,0,0,0,0,0,0,0,0,0,0,0,1,
scooby_state_402753|48|1 1,0,0,0,0,0,0,0,0,0,0,0,0,0,0,1,
scooby_state_401f44|61|1 1,0,0,0,0,0,0,0,0,0,0,0,0,0,0,1,
scooby_state_402203|8|1 1,0,0,0,0,0,0,0,0,0,0,0,0,0,0,1,
scooby_state_402285|10|1 1,0,0,0,0,0,0,0,0,0,0,0,0,0,0,1,
scooby_state_401e74|43|1 0,1,0,0,0,0,0,0,0,0,0,0,0,0,0,1,
scooby_state_402402|16|1 1,0,0,0,0,0,0,0,0,0,0,0,0,0,0,1,
scooby_state_401e40|57|1 1,0,0,0,0,0,0,0,0,0,0,0,0,0,0,1,
scooby_state_402585|22|1 1,0,0,0,0,0,0,0,0,0,0,0,0,0,0,1,
scooby_state_4024c4|19|1 1,0,0,0,0,0,0,0,0,0,0,0,0,0,0,1,
scooby_state_4023c0|15|1 1,0,0,0,0,0,0,0,0,0,0,0,0,0,0,1,
scooby_state_402241|9|1 1,0,0,0,0,0,0,0,0,0,0,0,0,0,0,1,
scooby_state_402505|20|1 1,0,0,0,0,0,0,0,0,0,0,0,0,0,0,1,
scooby_state_401e40|37|-1 1,0,0,0,0,0,0,0,0,0,0,0,0,0,0,1,
scooby_state_402382|14|1 1,0,0,0,0,0,0,0,0,0,0,0,0,0,0,1,
scooby_state_402485|18|1 1,0,0,0,0,0,0,0,0,0,0,0,0,0,0,1,
scooby_state_402100|4|1 1,0,0,0,0,0,0,0,0,0,0,0,0,0,0,1,
scooby_state_402000|0|-31 1,0,0,0,0,0,0,0,0,0,0,0,0,0,0,1,
scooby_state_402741|29|1 1,0,0,0,0,0,0,0,0,0,0,0,0,0,0,1,
scooby_state_401d60|53|1 1,0,0,0,0,0,0,0,0,0,0,0,0,0,0,1,
scooby_state_4027a5|50|1 1,0,0,0,0,0,0,0,0,0,0,0,0,0,0,1,
scooby_state_4027c2|31|1 1,0,0,0,0,0,0,0,0,0,0,0,0,0,0,1,
scooby_state_402559|21|0 1,0,0,0,0,0,0,0,0,0,0,0,0,0,0,1,
scooby_state_402044|1|1 1,0,0,0,0,0,0,0,0,0,0,0,0,0,0,1,
scooby_state_401d03|52|1 1,0,0,0,0,0,0,0,0,0,0,0,0,0,0,1,
scooby_state_402669|47|3 1,0,0,0,0,0,0,0,0,0,0,0,0,0,0,1,
scooby_state_401f00|60|1 1,0,0,0,0,0,0,0,0,0,0,0,0,0,0,1,
scooby_state_401dc4|55|1 1,0,0,0,0,0,0,0,0,0,0,0,0,0,0,1,

scooby_action_0_deg_dist 0,44,0,0,0,0,0,0,0,0,0,0,0,0,0,0,
scooby_action_4_deg_dist 0,32,0,0,0,0,0,0,0,0,0,0,0,0,0,0,
scooby_action_3_deg_dist 0,15671,10389,0,25689,0,75807,0,0,0,0,0,0,0,0,0,
scooby_action_32_deg_dist 0,34,0,0,0,0,0,0,0,0,0,0,0,0,0,0,
scooby_action_5_deg_dist 0,42,0,0,0,0,0,0,0,0,0,0,0,0,0,0,
scooby_action_1_deg_dist 0,16776,14351,0,38850,0,125409,0,0,0,0,0,0,0,0,0,
scooby_action_30_deg_dist 0,47,0,0,0,0,0,0,0,0,0,0,0,0,0,0,
scooby_action_-3_deg_dist 0,37,0,0,0,0,0,0,0,0,0,0,0,0,0,0,
scooby_action_10_deg_dist 0,52,0,0,0,0,0,0,0,0,0,0,0,0,0,0,
scooby_action_-1_deg_dist 0,46,0,0,0,0,0,0,0,0,0,0,0,0,0,0,
scooby_action_23_deg_dist 0,34,0,0,0,0,0,0,0,0,0,0,0,0,0,0,
scooby_action_-6_deg_dist 0,34,0,0,0,0,0,0,0,0,0,0,0,0,0,0,
scooby_action_11_deg_dist 0,36,0,0,0,0,0,0,0,0,0,0,0,0,0,0,
scooby_action_22_deg_dist 0,46,0,0,0,0,0,0,0,0,0,0,0,0,0,0,
scooby_action_12_deg_dist 0,45,0,0,0,0,0,0,0,0,0,0,0,0,0,0,

scooby_track_called 323471
scooby_track_same_address 61637
scooby_track_evict 261578

scooby_reward_demand_called 323471
scooby_reward_demand_pt_not_found 72488
scooby_reward_demand_pt_found 250983
scooby_reward_demand_pt_found_total 250983
scooby_reward_demand_has_reward 0
scooby_reward_train_called 1682
scooby_reward_assign_reward_called 261834
scooby_reward_no_pref 44
scooby_reward_incorrect 1638
scooby_reward_correct_untimely 188951
scooby_reward_correct_timely 62032
scooby_reward_out_of_bounds 9169
scooby_reward_tracker_hit 0

scooby_reward_none_low_bw 44
scooby_reward_none_high_bw 0
scooby_reward_incorrect_low_bw 1638
scooby_reward_incorrect_high_bw 0
scooby_reward_correct_untimely_low_bw 188951
scooby_reward_correct_untimely_high_bw 0
scooby_reward_correct_timely_low_bw 62032
scooby_reward_correct_timely_high_bw 0
scooby_reward_out_of_bounds_low_bw 9169
scooby_reward_out_of_bounds_high_bw 0
scooby_reward_tracker_hit_low_bw 0
scooby_reward_tracker_hit_high_bw 0

scooby_reward_1 0,1610,100935,28301,3090,0,
scooby_reward_3 0,3,87954,33529,5971,0,
scooby_reward_4 0,0,19,13,0,0,
scooby_reward_5 0,0,15,25,2,0,
scooby_reward_10 0,0,10,30,12,0,
scooby_reward_11 0,0,11,19,6,0,
scooby_reward_12 0,0,7,31,7,0,
scooby_reward_22 0,0,0,28,18,0,
scooby_reward_23 0,0,0,19,15,0,
scooby_reward_30 0,0,0,22,25,0,
scooby_reward_32 0,0,0,15,19,0,
scooby_reward_-1 0,11,0,0,0,0,
scooby_reward_-3 0,7,0,0,1,0,
scooby_reward_-6 0,7,0,0,3,0,
scooby_reward_0 44,0,0,0,0,0,

scooby_train_called 261577
scooby_train_compute_reward 1682

scooby_register_fill_called 276826
scooby_register_fill_set 62039
scooby_register_fill_set_total 62039

scooby_register_prefetch_hit_called 498880
scooby_register_prefetch_hit_set 170101
scooby_register_prefetch_hit_set_total 170101

scooby_pref_issue_scooby 1053728

learning_engine_featurewise.action.called 323471
learning_engine_featurewise.action.explore 607
learning_engine_featurewise.action.exploit 322864
learning_engine_featurewise.action.fallback 0
learning_engine_featurewise.action.dyn_fallback_saved_bw 0
learning_engine_featurewise.action.dyn_fallback_saved_bw_acc 1710
learning_engine_featurewise.action.index_1_explored 35
learning_engine_featurewise.action.index_1_exploited 195351
learning_engine_featurewise.action.index_3_explored 43
learning_engine_featurewise.action.index_3_exploited 127513
learning_engine_featurewise.action.index_4_explored 32
learning_engine_featurewise.action.index_4_exploited 0
learning_engine_featurewise.action.index_5_explored 42
learning_engine_featurewise.action.index_5_exploited 0
learning_engine_featurewise.action.index_10_explored 52
learning_engine_featurewise.action.index_10_exploited 0
learning_engine_featurewise.action.index_11_explored 36
learning_engine_featurewise.action.index_11_exploited 0
learning_engine_featurewise.action.index_12_explored 45
learning_engine_featurewise.action.index_12_exploited 0
learning_engine_featurewise.action.index_22_explored 46
learning_engine_featurewise.action.index_22_exploited 0
learning_engine_featurewise.action.index_23_explored 34
learning_engine_featurewise.action.index_23_exploited 0
learning_engine_featurewise.action.index_30_explored 47
learning_engine_featurewise.action.index_30_exploited 0
learning_engine_featurewise.action.index_32_explored 34
learning_engine_featurewise.action.index_32_exploited 0
learning_engine_featurewise.action.index_-1_explored 46
learning_engine_featurewise.action.index_-1_exploited 0
learning_engine_featurewise.action.index_-3_explored 37
learning_engine_featurewise.action.index_-3_exploited 0
learning_engine_featurewise.action.index_-6_explored 34
learning_engine_featurewise.action.index_-6_exploited 0
learning_engine_featurewise.action.index_0_explored 44
learning_engine_featurewise.action.index_0_exploited 0
learning_engine_featurewise.learn.called 261577
learning_engine_featurewise.learn.su_skip_PC 0
learning_engine_featurewise.learn.su_skip_PC_Delta 0

learning_engine_featurewise.q_value_histogram.bucket_0 0
learning_engine_featurewise.q_value_histogram.bucket_1 0
learning_engine_featurewise.q_value_histogram.bucket_2 0
learning_engine_featurewise.q_value_histogram.bucket_3 0
learning_engine_featurewise.q_value_histogram.bucket_4 1945
learning_engine_featurewise.q_value_histogram.bucket_5 1332
learning_engine_featurewise.q_value_histogram.bucket_6 319587
learning_engine_featurewise.q_value_histogram.bucket_7 0

learning_engine_featurewise.consensus.total 322864
learning_engine_featurewise.consensus.feature_align_PC 322845
learning_engine_featurewise.consensus.feature_align_PC_ratio 1.00
learning_engine_featurewise.consensus.feature_align_PC_Delta 322249
learning_engine_featurewise.consensus.feature_align_PC_Delta_ratio 1.00
learning_engine_featurewise.consensus.feature_align_all 322230
learning_engine_featurewise.consensus.feature_align_all_ratio 1.00

learning_engine_featurewise.feature_PC_min_weight 1000000.00000000
learning_engine_featurewise.feature_PC_max_weight 0.00000000
learning_engine_featurewise.feature_PC_Delta_min_weight 1000000.00000000
learning_engine_featurewise.feature_PC_Delta_max_weight 0.00000000
unique_pcs 72
unique_pages 5058
unique_trigger_pcs 4
total_bitmaps_seen 0
unique_bitmaps_seen 0

scooby_bw_epochs 258157
scooby_bw_level_0 55338
scooby_bw_level_1 109052
scooby_bw_level_2 76221
scooby_bw_level_3 17546

scooby_ipc_epochs 0
scooby_ipc_level_0 0
scooby_ipc_level_1 0
scooby_ipc_level_2 0
scooby_ipc_level_3 0

scooby_cache_acc_epochs 62908
scooby_cache_acc_level_0 27
scooby_cache_acc_level_1 190
scooby_cache_acc_level_2 468
scooby_cache_acc_level_3 921
scooby_cache_acc_level_4 1470
scooby_cache_acc_level_5 2394
scooby_cache_acc_level_6 4868
scooby_cache_acc_level_7 7476
scooby_cache_acc_level_8 8199
scooby_cache_acc_level_9 36895

Channel_0_RQ_row_buffer_hit 158166
Channel_0_RQ_row_buffer_miss 924030
Channel_0_WQ_row_buffer_hit 85092
Channel_0_WQ_row_buffer_miss 728463
Channel_0_WQ_full 0
Channel_0_dbus_congested 1301692

avg_congested_cycle 11

DRAM_bw_pochs 258157
DRAM_bw_level_0 55338
DRAM_bw_level_1 109052
DRAM_bw_level_2 76221
DRAM_bw_level_3 17546
