*************************************************
   ChampSim Multicore Out-of-Order Simulator
   Last compiled: Apr  3 2025 20:54:34
*************************************************
parsing config file: /home/zir/Pythia/config/nopref.ini

trace_0 /home/zir/ChampSim/ML-DPC/ChampSimTraces/spec06/471.omnetpp-s0.trace.gz
adding L2C_PREFETCHER: NONE
Initialize SHIP state
warmup_instructions 10000000
simulation_instructions 50000000
champsim_seed 163
measure_ipc 0
measure_ipc_epoch 1000
measure_dram_bw 1
measure_dram_bw_epoch 256
measure_cache_acc 1
measure_cache_acc_epoch 1024
l1d_perfect 0
l2c_perfect 0
llc_perfect 0
l1d_semi_perfect 0
l2c_semi_perfect 0
llc_semi_perfect 0
semi_perfect_cache_page_buffer_size 64

num_cpus 1
cpu_freq 4000
dram_io_freq 2400
page_size 4096
block_size 64
max_read_per_cycle 8
max_fill_per_cycle 1
dram_channels 1
log2_dram_channels 0
dram_ranks 1
dram_banks 8
dram_rows 65536
dram_columns 128
dram_row_size 8
dram_size 4096
dram_pages 1048576

fetch_width 6
decode_width 6
exec_width 4
lq_width 2
sq_width 2
retire_width 4
scheduler_size 128
branch_mispredict_penalty 20
rob_size 256
lq_size 72
sq_size 56
num_instr_destinations_sparc 4
num_instr_destinations 2
num_instr_sources 4

itlb_set 16
itlb_way 8
itlb_rq_size 16
itlb_wq_size 16
itlb_pq_size 0
itlb_mshr_size 8
itlb_latency 1

dtlb_set 16
dtlb_way 4
dtlb_rq_size 16
dtlb_wq_size 16
dtlb_pq_size 0
dtlb_mshr_size 8
dtlb_latency 1

stlb_set 128
stlb_way 12
stlb_rq_size 32
stlb_wq_size 32
stlb_pq_size 0
stlb_mshr_size 16
stlb_latency 8

l1i_size 32
l1i_set 64
l1i_way 8
l1i_rq_size 64
l1i_wq_size 64
l1i_pq_size 8
l1i_mshr_size 8
l1i_latency 1

l1d_size 32
l1d_set 64
l1d_way 8
l1d_rq_size 64
l1d_wq_size 64
l1d_pq_size 8
l1d_mshr_size 16
l1d_latency 4

l2c_size 256
l2c_set 512
l2c_way 8
l2c_rq_size 32
l2c_wq_size 32
l2c_pq_size 32
l2c_mshr_size 32
l2c_latency 10

llc_size 2048
llc_set 2048
llc_way 16
llc_rq_size 32
llc_wq_size 32
llc_pq_size 32
llc_mshr_size 64
llc_latency 20

dram_channel_width 8
dram_wq_size 64
dram_rq_size 64
tRP 15
tRCD 15
tCAS 12.5
dram_dbus_turn_around_time 30
dram_write_high_wm 56
dram_write_low_wm 48
min_dram_writes_per_switch 16
dram_mtps 2400
dram_dbus_return_time 13


Heartbeat CPU  0 instructions:    1000000 cycles:     517180 heartbeat IPC: 1.93356 cumulative IPC: 1.93356 (Simulation time: 0 hr 0 min 1 sec) 
Heartbeat CPU  0 instructions:    2000002 cycles:    1004776 heartbeat IPC: 2.05088 cumulative IPC: 1.99050 (Simulation time: 0 hr 0 min 2 sec) 
Heartbeat CPU  0 instructions:    3000001 cycles:    1531827 heartbeat IPC: 1.89735 cumulative IPC: 1.95845 (Simulation time: 0 hr 0 min 3 sec) 
Heartbeat CPU  0 instructions:    4000000 cycles:    2017975 heartbeat IPC: 2.05698 cumulative IPC: 1.98219 (Simulation time: 0 hr 0 min 4 sec) 
Heartbeat CPU  0 instructions:    5000001 cycles:    2505821 heartbeat IPC: 2.04983 cumulative IPC: 1.99535 (Simulation time: 0 hr 0 min 5 sec) 
Heartbeat CPU  0 instructions:    6000000 cycles:    2990632 heartbeat IPC: 2.06266 cumulative IPC: 2.00626 (Simulation time: 0 hr 0 min 6 sec) 
Heartbeat CPU  0 instructions:    7000002 cycles:    3478743 heartbeat IPC: 2.04872 cumulative IPC: 2.01222 (Simulation time: 0 hr 0 min 7 sec) 
Heartbeat CPU  0 instructions:    8000000 cycles:    3994755 heartbeat IPC: 1.93794 cumulative IPC: 2.00263 (Simulation time: 0 hr 0 min 8 sec) 
Heartbeat CPU  0 instructions:    9000001 cycles:    4510072 heartbeat IPC: 1.94056 cumulative IPC: 1.99553 (Simulation time: 0 hr 0 min 9 sec) 
Heartbeat CPU  0 instructions:   10000003 cycles:    5024742 heartbeat IPC: 1.94300 cumulative IPC: 1.99015 (Simulation time: 0 hr 0 min 10 sec) 

Warmup complete CPU  0 instructions:   10000003 cycles:    5024742 (Simulation time: 0 hr 0 min 10 sec) 

Heartbeat CPU  0 instructions:   11000001 cycles:    6179342 heartbeat IPC: 0.86610 cumulative IPC: 0.86610 (Simulation time: 0 hr 0 min 11 sec) 
Heartbeat CPU  0 instructions:   12000000 cycles:    7335198 heartbeat IPC: 0.86516 cumulative IPC: 0.86563 (Simulation time: 0 hr 0 min 12 sec) 
Heartbeat CPU  0 instructions:   13000000 cycles:    8513888 heartbeat IPC: 0.84840 cumulative IPC: 0.85981 (Simulation time: 0 hr 0 min 13 sec) 
Heartbeat CPU  0 instructions:   14000001 cycles:    9667793 heartbeat IPC: 0.86662 cumulative IPC: 0.86150 (Simulation time: 0 hr 0 min 15 sec) 
Heartbeat CPU  0 instructions:   15000000 cycles:   10821261 heartbeat IPC: 0.86695 cumulative IPC: 0.86259 (Simulation time: 0 hr 0 min 16 sec) 
Heartbeat CPU  0 instructions:   16000000 cycles:   11977319 heartbeat IPC: 0.86501 cumulative IPC: 0.86299 (Simulation time: 0 hr 0 min 17 sec) 
Heartbeat CPU  0 instructions:   17000000 cycles:   13137986 heartbeat IPC: 0.86157 cumulative IPC: 0.86279 (Simulation time: 0 hr 0 min 18 sec) 
Heartbeat CPU  0 instructions:   18000001 cycles:   14291726 heartbeat IPC: 0.86675 cumulative IPC: 0.86328 (Simulation time: 0 hr 0 min 20 sec) 
Heartbeat CPU  0 instructions:   19000002 cycles:   15439319 heartbeat IPC: 0.87139 cumulative IPC: 0.86417 (Simulation time: 0 hr 0 min 21 sec) 
Heartbeat CPU  0 instructions:   20000000 cycles:   18854145 heartbeat IPC: 0.29284 cumulative IPC: 0.72310 (Simulation time: 0 hr 0 min 22 sec) 
Heartbeat CPU  0 instructions:   21000000 cycles:   21421952 heartbeat IPC: 0.38944 cumulative IPC: 0.67085 (Simulation time: 0 hr 0 min 24 sec) 
Heartbeat CPU  0 instructions:   22000002 cycles:   23374040 heartbeat IPC: 0.51227 cumulative IPC: 0.65398 (Simulation time: 0 hr 0 min 25 sec) 
Heartbeat CPU  0 instructions:   23000000 cycles:   26752694 heartbeat IPC: 0.29598 cumulative IPC: 0.59831 (Simulation time: 0 hr 0 min 27 sec) 
Heartbeat CPU  0 instructions:   24000000 cycles:   30120811 heartbeat IPC: 0.29690 cumulative IPC: 0.55786 (Simulation time: 0 hr 0 min 29 sec) 
Heartbeat CPU  0 instructions:   25000001 cycles:   32829179 heartbeat IPC: 0.36923 cumulative IPC: 0.53948 (Simulation time: 0 hr 0 min 30 sec) 
Heartbeat CPU  0 instructions:   26000001 cycles:   34622667 heartbeat IPC: 0.55757 cumulative IPC: 0.54058 (Simulation time: 0 hr 0 min 31 sec) 
Heartbeat CPU  0 instructions:   27000000 cycles:   37995004 heartbeat IPC: 0.29653 cumulative IPC: 0.51562 (Simulation time: 0 hr 0 min 33 sec) 
Heartbeat CPU  0 instructions:   28000000 cycles:   41361613 heartbeat IPC: 0.29703 cumulative IPC: 0.49536 (Simulation time: 0 hr 0 min 35 sec) 
Heartbeat CPU  0 instructions:   29000000 cycles:   44247777 heartbeat IPC: 0.34648 cumulative IPC: 0.48441 (Simulation time: 0 hr 0 min 36 sec) 
Heartbeat CPU  0 instructions:   30000000 cycles:   45863740 heartbeat IPC: 0.61883 cumulative IPC: 0.48973 (Simulation time: 0 hr 0 min 37 sec) 
Heartbeat CPU  0 instructions:   31000000 cycles:   49224330 heartbeat IPC: 0.29757 cumulative IPC: 0.47512 (Simulation time: 0 hr 0 min 39 sec) 
Heartbeat CPU  0 instructions:   32000000 cycles:   52596321 heartbeat IPC: 0.29656 cumulative IPC: 0.46246 (Simulation time: 0 hr 0 min 41 sec) 
Heartbeat CPU  0 instructions:   33000001 cycles:   55671454 heartbeat IPC: 0.32519 cumulative IPC: 0.45413 (Simulation time: 0 hr 0 min 42 sec) 
Heartbeat CPU  0 instructions:   34000000 cycles:   57097601 heartbeat IPC: 0.70119 cumulative IPC: 0.46089 (Simulation time: 0 hr 0 min 44 sec) 
Heartbeat CPU  0 instructions:   35000003 cycles:   60457701 heartbeat IPC: 0.29761 cumulative IPC: 0.45100 (Simulation time: 0 hr 0 min 45 sec) 
Heartbeat CPU  0 instructions:   36000000 cycles:   63865095 heartbeat IPC: 0.29348 cumulative IPC: 0.44187 (Simulation time: 0 hr 0 min 47 sec) 
Heartbeat CPU  0 instructions:   37000001 cycles:   66838351 heartbeat IPC: 0.33633 cumulative IPC: 0.43680 (Simulation time: 0 hr 0 min 48 sec) 
Heartbeat CPU  0 instructions:   38000000 cycles:   68376252 heartbeat IPC: 0.65024 cumulative IPC: 0.44198 (Simulation time: 0 hr 0 min 50 sec) 
Heartbeat CPU  0 instructions:   39000000 cycles:   71735706 heartbeat IPC: 0.29767 cumulative IPC: 0.43471 (Simulation time: 0 hr 0 min 51 sec) 
Heartbeat CPU  0 instructions:   40000000 cycles:   75105403 heartbeat IPC: 0.29676 cumulative IPC: 0.42808 (Simulation time: 0 hr 0 min 53 sec) 
Heartbeat CPU  0 instructions:   41000002 cycles:   77970491 heartbeat IPC: 0.34903 cumulative IPC: 0.42497 (Simulation time: 0 hr 0 min 54 sec) 
Heartbeat CPU  0 instructions:   42000000 cycles:   79605430 heartbeat IPC: 0.61164 cumulative IPC: 0.42907 (Simulation time: 0 hr 0 min 56 sec) 
Heartbeat CPU  0 instructions:   43000003 cycles:   85038146 heartbeat IPC: 0.18407 cumulative IPC: 0.41243 (Simulation time: 0 hr 0 min 58 sec) 
Heartbeat CPU  0 instructions:   44000000 cycles:   86197159 heartbeat IPC: 0.86280 cumulative IPC: 0.41886 (Simulation time: 0 hr 0 min 59 sec) 
Heartbeat CPU  0 instructions:   45000003 cycles:   87351976 heartbeat IPC: 0.86594 cumulative IPC: 0.42513 (Simulation time: 0 hr 1 min 0 sec) 
Heartbeat CPU  0 instructions:   46000001 cycles:   88508539 heartbeat IPC: 0.86463 cumulative IPC: 0.43122 (Simulation time: 0 hr 1 min 1 sec) 
Heartbeat CPU  0 instructions:   47000001 cycles:   89663872 heartbeat IPC: 0.86555 cumulative IPC: 0.43715 (Simulation time: 0 hr 1 min 3 sec) 
Heartbeat CPU  0 instructions:   48000000 cycles:   90818649 heartbeat IPC: 0.86597 cumulative IPC: 0.44292 (Simulation time: 0 hr 1 min 4 sec) 
Heartbeat CPU  0 instructions:   49000000 cycles:   91973727 heartbeat IPC: 0.86574 cumulative IPC: 0.44854 (Simulation time: 0 hr 1 min 5 sec) 
Heartbeat CPU  0 instructions:   50000000 cycles:   93128606 heartbeat IPC: 0.86589 cumulative IPC: 0.45401 (Simulation time: 0 hr 1 min 6 sec) 
Heartbeat CPU  0 instructions:   51000002 cycles:   94283514 heartbeat IPC: 0.86587 cumulative IPC: 0.45934 (Simulation time: 0 hr 1 min 7 sec) 
Heartbeat CPU  0 instructions:   52000000 cycles:   95439112 heartbeat IPC: 0.86535 cumulative IPC: 0.46453 (Simulation time: 0 hr 1 min 9 sec) 
Heartbeat CPU  0 instructions:   53000001 cycles:   96596596 heartbeat IPC: 0.86394 cumulative IPC: 0.46958 (Simulation time: 0 hr 1 min 10 sec) 
Heartbeat CPU  0 instructions:   54000001 cycles:   97778394 heartbeat IPC: 0.84617 cumulative IPC: 0.47437 (Simulation time: 0 hr 1 min 11 sec) 
Heartbeat CPU  0 instructions:   55000003 cycles:   98933636 heartbeat IPC: 0.86562 cumulative IPC: 0.47919 (Simulation time: 0 hr 1 min 12 sec) 
Heartbeat CPU  0 instructions:   56000000 cycles:  101286529 heartbeat IPC: 0.42501 cumulative IPC: 0.47786 (Simulation time: 0 hr 1 min 14 sec) 
Heartbeat CPU  0 instructions:   57000003 cycles:  103448179 heartbeat IPC: 0.46261 cumulative IPC: 0.47753 (Simulation time: 0 hr 1 min 15 sec) 
Heartbeat CPU  0 instructions:   58000000 cycles:  106826600 heartbeat IPC: 0.29600 cumulative IPC: 0.47150 (Simulation time: 0 hr 1 min 17 sec) 
Heartbeat CPU  0 instructions:   59000003 cycles:  110196619 heartbeat IPC: 0.29674 cumulative IPC: 0.46590 (Simulation time: 0 hr 1 min 19 sec) 
Heartbeat CPU  0 instructions:   60000000 cycles:  112690585 heartbeat IPC: 0.40097 cumulative IPC: 0.46440 (Simulation time: 0 hr 1 min 20 sec) 
Finished CPU 0 instructions: 50000002 cycles: 107666500 cumulative IPC: 0.46440 (Simulation time: 0 hr 1 min 20 sec) 

ChampSim completed all CPUs

[ROI Statistics]
Core_0_instructions 50000002
Core_0_cycles 107666500
Core_0_IPC 0.46440

Core_0_branch_prediction_accuracy 98.37955
Core_0_branch_MPKI 5.21454
Core_0_average_ROB_occupancy_at_mispredict 124.43228

Core_0_L1D_total_access 5325619
Core_0_L1D_total_hit 4560683
Core_0_L1D_total_miss 764936
Core_0_L1D_loads 3617747
Core_0_L1D_load_hit 2859172
Core_0_L1D_load_miss 758575
Core_0_L1D_RFOs 1707872
Core_0_L1D_RFO_hit 1701511
Core_0_L1D_RFO_miss 6361
Core_0_L1D_prefetches 0
Core_0_L1D_prefetch_hit 0
Core_0_L1D_prefetch_miss 0
Core_0_L1D_writebacks 0
Core_0_L1D_writeback_hit 0
Core_0_L1D_writeback_miss 0
Core_0_L1D_prefetch_requested 0
Core_0_L1D_prefetch_dropped 0
Core_0_L1D_prefetch_issued 0
Core_0_L1D_prefetch_filled 0
Core_0_L1D_prefetch_useful 0
Core_0_L1D_prefetch_useless 0
Core_0_L1D_prefetch_late 0
Core_0_L1D_average_miss_latency 202.69064

Core_0_L1D_rq_access 4928555
Core_0_L1D_rq_forward 0
Core_0_L1D_rq_merged 1135694
Core_0_L1D_rq_to_cache 3791970
Core_0_L1D_rq_full 0

Core_0_L1D_wq_access 1722166
Core_0_L1D_wq_forward 891
Core_0_L1D_wq_merged 4019
Core_0_L1D_wq_to_cache 1718147
Core_0_L1D_wq_full 0

Core_0_L1D_pq_access 0
Core_0_L1D_pq_forward 0
Core_0_L1D_pq_merged 0
Core_0_L1D_pq_to_cache 0
Core_0_L1D_pq_full 0

Core_0_L1D_acc_epochs 65753
Core_0_L1D_acc_level_0 65753
Core_0_L1D_acc_level_1 0
Core_0_L1D_acc_level_2 0
Core_0_L1D_acc_level_3 0
Core_0_L1D_acc_level_4 0
Core_0_L1D_acc_level_5 0
Core_0_L1D_acc_level_6 0
Core_0_L1D_acc_level_7 0
Core_0_L1D_acc_level_8 0
Core_0_L1D_acc_level_9 0

Core_0_L1I_total_access 13243760
Core_0_L1I_total_hit 13241732
Core_0_L1I_total_miss 2028
Core_0_L1I_loads 13243760
Core_0_L1I_load_hit 13241732
Core_0_L1I_load_miss 2028
Core_0_L1I_RFOs 0
Core_0_L1I_RFO_hit 0
Core_0_L1I_RFO_miss 0
Core_0_L1I_prefetches 0
Core_0_L1I_prefetch_hit 0
Core_0_L1I_prefetch_miss 0
Core_0_L1I_writebacks 0
Core_0_L1I_writeback_hit 0
Core_0_L1I_writeback_miss 0
Core_0_L1I_prefetch_requested 0
Core_0_L1I_prefetch_dropped 0
Core_0_L1I_prefetch_issued 0
Core_0_L1I_prefetch_filled 0
Core_0_L1I_prefetch_useful 0
Core_0_L1I_prefetch_useless 0
Core_0_L1I_prefetch_late 0
Core_0_L1I_average_miss_latency 95.01677

Core_0_L1I_rq_access 50000193
Core_0_L1I_rq_forward 0
Core_0_L1I_rq_merged 36754974
Core_0_L1I_rq_to_cache 13245219
Core_0_L1I_rq_full 0

Core_0_L1I_wq_access 0
Core_0_L1I_wq_forward 0
Core_0_L1I_wq_merged 0
Core_0_L1I_wq_to_cache 0
Core_0_L1I_wq_full 0

Core_0_L1I_pq_access 0
Core_0_L1I_pq_forward 0
Core_0_L1I_pq_merged 0
Core_0_L1I_pq_to_cache 0
Core_0_L1I_pq_full 0

Core_0_L1I_acc_epochs 65753
Core_0_L1I_acc_level_0 65753
Core_0_L1I_acc_level_1 0
Core_0_L1I_acc_level_2 0
Core_0_L1I_acc_level_3 0
Core_0_L1I_acc_level_4 0
Core_0_L1I_acc_level_5 0
Core_0_L1I_acc_level_6 0
Core_0_L1I_acc_level_7 0
Core_0_L1I_acc_level_8 0
Core_0_L1I_acc_level_9 0

Core_0_L2C_total_access 775286
Core_0_L2C_total_hit 12182
Core_0_L2C_total_miss 763104
Core_0_L2C_loads 760603
Core_0_L2C_load_hit 3757
Core_0_L2C_load_miss 756846
Core_0_L2C_RFOs 6361
Core_0_L2C_RFO_hit 122
Core_0_L2C_RFO_miss 6239
Core_0_L2C_prefetches 0
Core_0_L2C_prefetch_hit 0
Core_0_L2C_prefetch_miss 0
Core_0_L2C_writebacks 8322
Core_0_L2C_writeback_hit 8303
Core_0_L2C_writeback_miss 19
Core_0_L2C_prefetch_requested 0
Core_0_L2C_prefetch_dropped 0
Core_0_L2C_prefetch_issued 0
Core_0_L2C_prefetch_filled 0
Core_0_L2C_prefetch_useful 0
Core_0_L2C_prefetch_useless 0
Core_0_L2C_prefetch_late 0
Core_0_L2C_average_miss_latency 126.14008

Core_0_L2C_rq_access 766967
Core_0_L2C_rq_forward 0
Core_0_L2C_rq_merged 0
Core_0_L2C_rq_to_cache 766967
Core_0_L2C_rq_full 0

Core_0_L2C_wq_access 8322
Core_0_L2C_wq_forward 0
Core_0_L2C_wq_merged 0
Core_0_L2C_wq_to_cache 8322
Core_0_L2C_wq_full 0

Core_0_L2C_pq_access 0
Core_0_L2C_pq_forward 0
Core_0_L2C_pq_merged 0
Core_0_L2C_pq_to_cache 0
Core_0_L2C_pq_full 0

Core_0_L2C_acc_epochs 65753
Core_0_L2C_acc_level_0 65753
Core_0_L2C_acc_level_1 0
Core_0_L2C_acc_level_2 0
Core_0_L2C_acc_level_3 0
Core_0_L2C_acc_level_4 0
Core_0_L2C_acc_level_5 0
Core_0_L2C_acc_level_6 0
Core_0_L2C_acc_level_7 0
Core_0_L2C_acc_level_8 0
Core_0_L2C_acc_level_9 0

Core_0_LLC_total_access 771535
Core_0_LLC_total_hit 591628
Core_0_LLC_total_miss 179907
Core_0_LLC_loads 756846
Core_0_LLC_load_hit 585231
Core_0_LLC_load_miss 171615
Core_0_LLC_RFOs 6239
Core_0_LLC_RFO_hit 822
Core_0_LLC_RFO_miss 5417
Core_0_LLC_prefetches 0
Core_0_LLC_prefetch_hit 0
Core_0_LLC_prefetch_miss 0
Core_0_LLC_writebacks 8450
Core_0_LLC_writeback_hit 5575
Core_0_LLC_writeback_miss 2875
Core_0_LLC_prefetch_requested 0
Core_0_LLC_prefetch_dropped 0
Core_0_LLC_prefetch_issued 0
Core_0_LLC_prefetch_filled 0
Core_0_LLC_prefetch_useful 0
Core_0_LLC_prefetch_useless 0
Core_0_LLC_prefetch_late 0
Core_0_LLC_average_miss_latency 162.59365

Core_0_LLC_rq_access 763086
Core_0_LLC_rq_forward 0
Core_0_LLC_rq_merged 0
Core_0_LLC_rq_to_cache 763086
Core_0_LLC_rq_full 0

Core_0_LLC_wq_access 8450
Core_0_LLC_wq_forward 0
Core_0_LLC_wq_merged 0
Core_0_LLC_wq_to_cache 8450
Core_0_LLC_wq_full 0

Core_0_LLC_pq_access 0
Core_0_LLC_pq_forward 0
Core_0_LLC_pq_merged 0
Core_0_LLC_pq_to_cache 0
Core_0_LLC_pq_full 0

Core_0_LLC_acc_epochs 110051
Core_0_LLC_acc_level_0 110051
Core_0_LLC_acc_level_1 0
Core_0_LLC_acc_level_2 0
Core_0_LLC_acc_level_3 0
Core_0_LLC_acc_level_4 0
Core_0_LLC_acc_level_5 0
Core_0_LLC_acc_level_6 0
Core_0_LLC_acc_level_7 0
Core_0_LLC_acc_level_8 0
Core_0_LLC_acc_level_9 0

Core_0_major_page_fault 0
Core_0_minor_page_fault 20533

Channel_0_RQ_row_buffer_hit 53818
Channel_0_RQ_row_buffer_miss 123214
Channel_0_WQ_row_buffer_hit 771
Channel_0_WQ_row_buffer_miss 5224
Channel_0_WQ_full 0
Channel_0_dbus_congested 33715

avg_congested_cycle 10

DRAM_bw_pochs 440201
DRAM_bw_level_0 432942
DRAM_bw_level_1 7224
DRAM_bw_level_2 35
DRAM_bw_level_3 0
