*************************************************
   ChampSim Multicore Out-of-Order Simulator
   Last compiled: Apr  3 2025 20:54:34
*************************************************
parsing config file: /home/zir/Pythia/config/pythia.ini

trace_0 /home/zir/ChampSim/ML-DPC/ChampSimTraces/spec17/649.fotonik3d-s3.trace.xz
adding L2C_PREFETCHER: Scooby
Initialize SHIP state
warmup_instructions 10000000
simulation_instructions 50000000
champsim_seed 166
measure_ipc 0
measure_ipc_epoch 1000
measure_dram_bw 1
measure_dram_bw_epoch 256
measure_cache_acc 1
measure_cache_acc_epoch 1024
l1d_perfect 0
l2c_perfect 0
llc_perfect 0
l1d_semi_perfect 0
l2c_semi_perfect 0
llc_semi_perfect 0
semi_perfect_cache_page_buffer_size 64

num_cpus 1
cpu_freq 4000
dram_io_freq 2400
page_size 4096
block_size 64
max_read_per_cycle 8
max_fill_per_cycle 1
dram_channels 1
log2_dram_channels 0
dram_ranks 1
dram_banks 8
dram_rows 65536
dram_columns 128
dram_row_size 8
dram_size 4096
dram_pages 1048576

fetch_width 6
decode_width 6
exec_width 4
lq_width 2
sq_width 2
retire_width 4
scheduler_size 128
branch_mispredict_penalty 20
rob_size 256
lq_size 72
sq_size 56
num_instr_destinations_sparc 4
num_instr_destinations 2
num_instr_sources 4

itlb_set 16
itlb_way 8
itlb_rq_size 16
itlb_wq_size 16
itlb_pq_size 0
itlb_mshr_size 8
itlb_latency 1

dtlb_set 16
dtlb_way 4
dtlb_rq_size 16
dtlb_wq_size 16
dtlb_pq_size 0
dtlb_mshr_size 8
dtlb_latency 1

stlb_set 128
stlb_way 12
stlb_rq_size 32
stlb_wq_size 32
stlb_pq_size 0
stlb_mshr_size 16
stlb_latency 8

l1i_size 32
l1i_set 64
l1i_way 8
l1i_rq_size 64
l1i_wq_size 64
l1i_pq_size 8
l1i_mshr_size 8
l1i_latency 1

l1d_size 32
l1d_set 64
l1d_way 8
l1d_rq_size 64
l1d_wq_size 64
l1d_pq_size 8
l1d_mshr_size 16
l1d_latency 4

l2c_size 256
l2c_set 512
l2c_way 8
l2c_rq_size 32
l2c_wq_size 32
l2c_pq_size 32
l2c_mshr_size 32
l2c_latency 10

llc_size 2048
llc_set 2048
llc_way 16
llc_rq_size 32
llc_wq_size 32
llc_pq_size 32
llc_mshr_size 64
llc_latency 20

dram_channel_width 8
dram_wq_size 64
dram_rq_size 64
tRP 15
tRCD 15
tCAS 12.5
dram_dbus_turn_around_time 30
dram_write_high_wm 56
dram_write_low_wm 48
min_dram_writes_per_switch 16
dram_mtps 2400
dram_dbus_return_time 13

scooby_alpha 0.0065088
scooby_gamma 0.556301
scooby_epsilon 0.00182284
scooby_state_num_bits 10
scooby_max_states 1024
scooby_seed 200
scooby_policy EGreedy
scooby_learning_type SARSA
scooby_actions 1,3,4,5,10,11,12,22,23,30,32,-1,-3,-6,0,
scooby_max_actions 15
scooby_pt_size 256
scooby_st_size 64
scooby_max_pcs 5
scooby_max_offsets 5
scooby_max_deltas 5
scooby_reward_none -4
scooby_reward_incorrect -8
scooby_reward_correct_untimely 12
scooby_reward_correct_timely 20
scooby_brain_zero_init 0
scooby_enable_reward_all 0
scooby_enable_track_multiple 0
scooby_enable_reward_out_of_bounds 1
scooby_reward_out_of_bounds -12
scooby_state_type 1
scooby_state_hash_type 11
scooby_access_debug 0
scooby_print_access_debug 0
scooby_print_access_debug_pc deadbeef
scooby_print_access_debug_pc_count 0
scooby_print_trace 0
scooby_enable_state_action_stats 1
scooby_enable_reward_tracker_hit 0
scooby_reward_tracker_hit -2
scooby_enable_featurewise_engine 1
scooby_pref_degree 1
scooby_enable_dyn_degree 1
scooby_max_to_avg_q_thresholds 0.5,1,2,
scooby_dyn_degrees 1,2,4,4,
scooby_multi_deg_select_type 2
scooby_last_pref_offset_conf_thresholds 1,3,8,
scooby_dyn_degrees_type2 1,2,4,6,
scooby_action_tracker_size 2
scooby_high_bw_thresh 4
scooby_enable_hbw_reward 1
scooby_reward_hbw_correct_timely 20
scooby_reward_hbw_correct_untimely 12
scooby_reward_hbw_incorrect -14
scooby_reward_hbw_none -2
scooby_reward_hbw_out_of_bounds -12
scooby_reward_hbw_tracker_hit -2
scooby_last_pref_offset_conf_thresholds_hbw 1,3,8,
scooby_dyn_degrees_type2_hbw 1,2,4,6,

le_enable_trace 0
le_trace_interval 0
le_trace_file_name 
le_trace_state 0
le_enable_score_plot 0
le_plot_file_name 
le_plot_actions 
le_enable_action_trace 0
le_action_trace_interval 0
le_action_trace_name 
le_enable_action_plot 0

le_featurewise_active_features PC, PC_Delta
le_featurewise_num_tilings 3,3,
le_featurewise_num_tiles 128,128,
le_featurewise_hash_types 2,2,
le_featurewise_enable_tiling_offset 1,1,
le_featurewise_max_q_thresh 0.5
le_featurewise_enable_action_fallback 1
le_featurewise_feature_weights 1,1,
le_featurewise_enable_dynamic_weight 0
le_featurewise_weight_gradient 0.001
le_featurewise_disable_adjust_weight_all_features_align 1
le_featurewise_selective_update 0
le_featurewise_pooling_type 2
le_featurewise_enable_dyn_action_fallback 1
le_featurewise_bw_acc_check_level 1
le_featurewise_acc_thresh 2
le_featurewise_enable_trace 0
le_featurewise_trace_feature_type 0
le_featurewise_trace_feature 
le_featurewise_trace_interval 0
le_featurewise_trace_record_count 0
le_featurewise_trace_file_name 
le_featurewise_enable_score_plot 0
le_featurewise_plot_actions 
le_featurewise_plot_file_name 


Heartbeat CPU  0 instructions:    1000001 cycles:     428951 heartbeat IPC: 2.33127 cumulative IPC: 2.33127 (Simulation time: 0 hr 0 min 2 sec) 
Heartbeat CPU  0 instructions:    2000002 cycles:     857635 heartbeat IPC: 2.33272 cumulative IPC: 2.33200 (Simulation time: 0 hr 0 min 4 sec) 
Heartbeat CPU  0 instructions:    3000003 cycles:    1286112 heartbeat IPC: 2.33385 cumulative IPC: 2.33261 (Simulation time: 0 hr 0 min 6 sec) 
Heartbeat CPU  0 instructions:    4000000 cycles:    1714540 heartbeat IPC: 2.33411 cumulative IPC: 2.33299 (Simulation time: 0 hr 0 min 8 sec) 
Heartbeat CPU  0 instructions:    5000000 cycles:    2143024 heartbeat IPC: 2.33381 cumulative IPC: 2.33315 (Simulation time: 0 hr 0 min 10 sec) 
Heartbeat CPU  0 instructions:    6000000 cycles:    2571579 heartbeat IPC: 2.33342 cumulative IPC: 2.33320 (Simulation time: 0 hr 0 min 12 sec) 
Heartbeat CPU  0 instructions:    7000003 cycles:    3000135 heartbeat IPC: 2.33342 cumulative IPC: 2.33323 (Simulation time: 0 hr 0 min 14 sec) 
Heartbeat CPU  0 instructions:    8000000 cycles:    3428735 heartbeat IPC: 2.33317 cumulative IPC: 2.33322 (Simulation time: 0 hr 0 min 16 sec) 
Heartbeat CPU  0 instructions:    9000003 cycles:    3857280 heartbeat IPC: 2.33348 cumulative IPC: 2.33325 (Simulation time: 0 hr 0 min 18 sec) 
Heartbeat CPU  0 instructions:   10000003 cycles:    4285820 heartbeat IPC: 2.33350 cumulative IPC: 2.33328 (Simulation time: 0 hr 0 min 20 sec) 

Warmup complete CPU  0 instructions:   10000003 cycles:    4285820 (Simulation time: 0 hr 0 min 20 sec) 

Heartbeat CPU  0 instructions:   11000003 cycles:    4989340 heartbeat IPC: 1.42142 cumulative IPC: 1.42142 (Simulation time: 0 hr 0 min 22 sec) 
Heartbeat CPU  0 instructions:   12000000 cycles:    5694922 heartbeat IPC: 1.41727 cumulative IPC: 1.41934 (Simulation time: 0 hr 0 min 25 sec) 
Heartbeat CPU  0 instructions:   13000003 cycles:    6411650 heartbeat IPC: 1.39523 cumulative IPC: 1.41121 (Simulation time: 0 hr 0 min 27 sec) 
Heartbeat CPU  0 instructions:   14000002 cycles:    7120884 heartbeat IPC: 1.40997 cumulative IPC: 1.41090 (Simulation time: 0 hr 0 min 29 sec) 
Heartbeat CPU  0 instructions:   15000000 cycles:    7843461 heartbeat IPC: 1.38393 cumulative IPC: 1.40542 (Simulation time: 0 hr 0 min 31 sec) 
Heartbeat CPU  0 instructions:   16000000 cycles:    8549875 heartbeat IPC: 1.41560 cumulative IPC: 1.40711 (Simulation time: 0 hr 0 min 34 sec) 
Heartbeat CPU  0 instructions:   17000000 cycles:    9270464 heartbeat IPC: 1.38775 cumulative IPC: 1.40431 (Simulation time: 0 hr 0 min 36 sec) 
Heartbeat CPU  0 instructions:   18000003 cycles:   10007909 heartbeat IPC: 1.35604 cumulative IPC: 1.39809 (Simulation time: 0 hr 0 min 38 sec) 
Heartbeat CPU  0 instructions:   19000001 cycles:   10750286 heartbeat IPC: 1.34702 cumulative IPC: 1.39223 (Simulation time: 0 hr 0 min 40 sec) 
Heartbeat CPU  0 instructions:   20000000 cycles:   11472164 heartbeat IPC: 1.38527 cumulative IPC: 1.39153 (Simulation time: 0 hr 0 min 43 sec) 
Heartbeat CPU  0 instructions:   21000003 cycles:   12200458 heartbeat IPC: 1.37308 cumulative IPC: 1.38983 (Simulation time: 0 hr 0 min 45 sec) 
Heartbeat CPU  0 instructions:   22000001 cycles:   12936959 heartbeat IPC: 1.35777 cumulative IPC: 1.38710 (Simulation time: 0 hr 0 min 47 sec) 
Heartbeat CPU  0 instructions:   23000000 cycles:   13673656 heartbeat IPC: 1.35741 cumulative IPC: 1.38477 (Simulation time: 0 hr 0 min 50 sec) 
Heartbeat CPU  0 instructions:   24000000 cycles:   14410221 heartbeat IPC: 1.35765 cumulative IPC: 1.38280 (Simulation time: 0 hr 0 min 52 sec) 
Heartbeat CPU  0 instructions:   25000001 cycles:   15135362 heartbeat IPC: 1.37904 cumulative IPC: 1.38255 (Simulation time: 0 hr 0 min 54 sec) 
Heartbeat CPU  0 instructions:   26000003 cycles:   15877316 heartbeat IPC: 1.34780 cumulative IPC: 1.38032 (Simulation time: 0 hr 0 min 56 sec) 
Heartbeat CPU  0 instructions:   27000003 cycles:   16615930 heartbeat IPC: 1.35389 cumulative IPC: 1.37874 (Simulation time: 0 hr 0 min 59 sec) 
Heartbeat CPU  0 instructions:   28000000 cycles:   17346487 heartbeat IPC: 1.36881 cumulative IPC: 1.37818 (Simulation time: 0 hr 1 min 1 sec) 
Heartbeat CPU  0 instructions:   29000000 cycles:   18063272 heartbeat IPC: 1.39512 cumulative IPC: 1.37906 (Simulation time: 0 hr 1 min 3 sec) 
Heartbeat CPU  0 instructions:   30000003 cycles:   18783554 heartbeat IPC: 1.38835 cumulative IPC: 1.37953 (Simulation time: 0 hr 1 min 6 sec) 
Heartbeat CPU  0 instructions:   31000003 cycles:   19525087 heartbeat IPC: 1.34856 cumulative IPC: 1.37802 (Simulation time: 0 hr 1 min 8 sec) 
Heartbeat CPU  0 instructions:   32000000 cycles:   20262217 heartbeat IPC: 1.35661 cumulative IPC: 1.37703 (Simulation time: 0 hr 1 min 10 sec) 
Heartbeat CPU  0 instructions:   33000003 cycles:   20999966 heartbeat IPC: 1.35548 cumulative IPC: 1.37608 (Simulation time: 0 hr 1 min 12 sec) 
Heartbeat CPU  0 instructions:   34000003 cycles:   21719479 heartbeat IPC: 1.38983 cumulative IPC: 1.37665 (Simulation time: 0 hr 1 min 15 sec) 
Heartbeat CPU  0 instructions:   35000001 cycles:   22459091 heartbeat IPC: 1.35206 cumulative IPC: 1.37565 (Simulation time: 0 hr 1 min 17 sec) 
Heartbeat CPU  0 instructions:   36000000 cycles:   23200684 heartbeat IPC: 1.34845 cumulative IPC: 1.37458 (Simulation time: 0 hr 1 min 19 sec) 
Heartbeat CPU  0 instructions:   37000001 cycles:   23946332 heartbeat IPC: 1.34112 cumulative IPC: 1.37331 (Simulation time: 0 hr 1 min 22 sec) 
Heartbeat CPU  0 instructions:   38000000 cycles:   24669286 heartbeat IPC: 1.38321 cumulative IPC: 1.37366 (Simulation time: 0 hr 1 min 24 sec) 
Heartbeat CPU  0 instructions:   39000002 cycles:   25412579 heartbeat IPC: 1.34537 cumulative IPC: 1.37267 (Simulation time: 0 hr 1 min 26 sec) 
Heartbeat CPU  0 instructions:   40000000 cycles:   26147015 heartbeat IPC: 1.36159 cumulative IPC: 1.37229 (Simulation time: 0 hr 1 min 28 sec) 
Heartbeat CPU  0 instructions:   41000002 cycles:   26882694 heartbeat IPC: 1.35929 cumulative IPC: 1.37187 (Simulation time: 0 hr 1 min 31 sec) 
Heartbeat CPU  0 instructions:   42000000 cycles:   27612594 heartbeat IPC: 1.37005 cumulative IPC: 1.37181 (Simulation time: 0 hr 1 min 33 sec) 
Heartbeat CPU  0 instructions:   43000001 cycles:   28334568 heartbeat IPC: 1.38509 cumulative IPC: 1.37221 (Simulation time: 0 hr 1 min 35 sec) 
Heartbeat CPU  0 instructions:   44000000 cycles:   29080708 heartbeat IPC: 1.34023 cumulative IPC: 1.37125 (Simulation time: 0 hr 1 min 38 sec) 
Heartbeat CPU  0 instructions:   45000001 cycles:   29824151 heartbeat IPC: 1.34509 cumulative IPC: 1.37049 (Simulation time: 0 hr 1 min 40 sec) 
Heartbeat CPU  0 instructions:   46000002 cycles:   30564119 heartbeat IPC: 1.35141 cumulative IPC: 1.36995 (Simulation time: 0 hr 1 min 42 sec) 
Heartbeat CPU  0 instructions:   47000002 cycles:   31285997 heartbeat IPC: 1.38528 cumulative IPC: 1.37036 (Simulation time: 0 hr 1 min 44 sec) 
Heartbeat CPU  0 instructions:   48000000 cycles:   32021785 heartbeat IPC: 1.35908 cumulative IPC: 1.37006 (Simulation time: 0 hr 1 min 47 sec) 
Heartbeat CPU  0 instructions:   49000001 cycles:   32760346 heartbeat IPC: 1.35399 cumulative IPC: 1.36965 (Simulation time: 0 hr 1 min 49 sec) 
Heartbeat CPU  0 instructions:   50000000 cycles:   33500727 heartbeat IPC: 1.35065 cumulative IPC: 1.36916 (Simulation time: 0 hr 1 min 51 sec) 
Heartbeat CPU  0 instructions:   51000001 cycles:   34225317 heartbeat IPC: 1.38009 cumulative IPC: 1.36943 (Simulation time: 0 hr 1 min 54 sec) 
Heartbeat CPU  0 instructions:   52000000 cycles:   34969472 heartbeat IPC: 1.34380 cumulative IPC: 1.36881 (Simulation time: 0 hr 1 min 56 sec) 
Heartbeat CPU  0 instructions:   53000001 cycles:   35722723 heartbeat IPC: 1.32758 cumulative IPC: 1.36782 (Simulation time: 0 hr 1 min 58 sec) 
Heartbeat CPU  0 instructions:   54000002 cycles:   36469270 heartbeat IPC: 1.33950 cumulative IPC: 1.36716 (Simulation time: 0 hr 2 min 0 sec) 
Heartbeat CPU  0 instructions:   55000002 cycles:   37210648 heartbeat IPC: 1.34884 cumulative IPC: 1.36675 (Simulation time: 0 hr 2 min 3 sec) 
Heartbeat CPU  0 instructions:   56000000 cycles:   37944091 heartbeat IPC: 1.36343 cumulative IPC: 1.36668 (Simulation time: 0 hr 2 min 5 sec) 
Heartbeat CPU  0 instructions:   57000003 cycles:   38690393 heartbeat IPC: 1.33994 cumulative IPC: 1.36610 (Simulation time: 0 hr 2 min 7 sec) 
Heartbeat CPU  0 instructions:   58000003 cycles:   39443270 heartbeat IPC: 1.32824 cumulative IPC: 1.36529 (Simulation time: 0 hr 2 min 10 sec) 
Heartbeat CPU  0 instructions:   59000001 cycles:   40186017 heartbeat IPC: 1.34635 cumulative IPC: 1.36489 (Simulation time: 0 hr 2 min 12 sec) 
Heartbeat CPU  0 instructions:   60000000 cycles:   40912636 heartbeat IPC: 1.37624 cumulative IPC: 1.36512 (Simulation time: 0 hr 2 min 14 sec) 
Finished CPU 0 instructions: 50000002 cycles: 36626839 cumulative IPC: 1.36512 (Simulation time: 0 hr 2 min 14 sec) 

ChampSim completed all CPUs

[ROI Statistics]
Core_0_instructions 50000002
Core_0_cycles 36626839
Core_0_IPC 1.36512

Core_0_branch_prediction_accuracy 99.18540
Core_0_branch_MPKI 0.05624
Core_0_average_ROB_occupancy_at_mispredict 254.90292

Core_0_L1D_total_access 13858388
Core_0_L1D_total_hit 13014208
Core_0_L1D_total_miss 844180
Core_0_L1D_loads 11399796
Core_0_L1D_load_hit 10555616
Core_0_L1D_load_miss 844180
Core_0_L1D_RFOs 2458592
Core_0_L1D_RFO_hit 2458592
Core_0_L1D_RFO_miss 0
Core_0_L1D_prefetches 0
Core_0_L1D_prefetch_hit 0
Core_0_L1D_prefetch_miss 0
Core_0_L1D_writebacks 0
Core_0_L1D_writeback_hit 0
Core_0_L1D_writeback_miss 0
Core_0_L1D_prefetch_requested 0
Core_0_L1D_prefetch_dropped 0
Core_0_L1D_prefetch_issued 0
Core_0_L1D_prefetch_filled 0
Core_0_L1D_prefetch_useful 0
Core_0_L1D_prefetch_useless 0
Core_0_L1D_prefetch_late 0
Core_0_L1D_average_miss_latency 24.05329

Core_0_L1D_rq_access 17132335
Core_0_L1D_rq_forward 0
Core_0_L1D_rq_merged 5683060
Core_0_L1D_rq_to_cache 11449275
Core_0_L1D_rq_full 0

Core_0_L1D_wq_access 2458593
Core_0_L1D_wq_forward 0
Core_0_L1D_wq_merged 0
Core_0_L1D_wq_to_cache 2458593
Core_0_L1D_wq_full 0

Core_0_L1D_pq_access 0
Core_0_L1D_pq_forward 0
Core_0_L1D_pq_merged 0
Core_0_L1D_pq_to_cache 0
Core_0_L1D_pq_full 0

Core_0_L1D_acc_epochs 38635
Core_0_L1D_acc_level_0 38635
Core_0_L1D_acc_level_1 0
Core_0_L1D_acc_level_2 0
Core_0_L1D_acc_level_3 0
Core_0_L1D_acc_level_4 0
Core_0_L1D_acc_level_5 0
Core_0_L1D_acc_level_6 0
Core_0_L1D_acc_level_7 0
Core_0_L1D_acc_level_8 0
Core_0_L1D_acc_level_9 0

Core_0_L1I_total_access 10894742
Core_0_L1I_total_hit 10894742
Core_0_L1I_total_miss 0
Core_0_L1I_loads 10894742
Core_0_L1I_load_hit 10894742
Core_0_L1I_load_miss 0
Core_0_L1I_RFOs 0
Core_0_L1I_RFO_hit 0
Core_0_L1I_RFO_miss 0
Core_0_L1I_prefetches 0
Core_0_L1I_prefetch_hit 0
Core_0_L1I_prefetch_miss 0
Core_0_L1I_writebacks 0
Core_0_L1I_writeback_hit 0
Core_0_L1I_writeback_miss 0
Core_0_L1I_prefetch_requested 0
Core_0_L1I_prefetch_dropped 0
Core_0_L1I_prefetch_issued 0
Core_0_L1I_prefetch_filled 0
Core_0_L1I_prefetch_useful 0
Core_0_L1I_prefetch_useless 0
Core_0_L1I_prefetch_late 0
Core_0_L1I_average_miss_latency -nan

Core_0_L1I_rq_access 50000005
Core_0_L1I_rq_forward 0
Core_0_L1I_rq_merged 39105263
Core_0_L1I_rq_to_cache 10894742
Core_0_L1I_rq_full 0

Core_0_L1I_wq_access 0
Core_0_L1I_wq_forward 0
Core_0_L1I_wq_merged 0
Core_0_L1I_wq_to_cache 0
Core_0_L1I_wq_full 0

Core_0_L1I_pq_access 0
Core_0_L1I_pq_forward 0
Core_0_L1I_pq_merged 0
Core_0_L1I_pq_to_cache 0
Core_0_L1I_pq_full 0

Core_0_L1I_acc_epochs 38635
Core_0_L1I_acc_level_0 38635
Core_0_L1I_acc_level_1 0
Core_0_L1I_acc_level_2 0
Core_0_L1I_acc_level_3 0
Core_0_L1I_acc_level_4 0
Core_0_L1I_acc_level_5 0
Core_0_L1I_acc_level_6 0
Core_0_L1I_acc_level_7 0
Core_0_L1I_acc_level_8 0
Core_0_L1I_acc_level_9 0

Core_0_L2C_total_access 5074017
Core_0_L2C_total_hit 4205191
Core_0_L2C_total_miss 868826
Core_0_L2C_loads 844180
Core_0_L2C_load_hit 816529
Core_0_L2C_load_miss 27651
Core_0_L2C_RFOs 0
Core_0_L2C_RFO_hit 0
Core_0_L2C_RFO_miss 0
Core_0_L2C_prefetches 3968697
Core_0_L2C_prefetch_hit 3127618
Core_0_L2C_prefetch_miss 841079
Core_0_L2C_writebacks 261140
Core_0_L2C_writeback_hit 261044
Core_0_L2C_writeback_miss 96
Core_0_L2C_prefetch_requested 5149602
Core_0_L2C_prefetch_dropped 20085
Core_0_L2C_prefetch_issued 5129517
Core_0_L2C_prefetch_filled 1011868
Core_0_L2C_prefetch_useful 951826
Core_0_L2C_prefetch_useless 59789
Core_0_L2C_prefetch_late 11993
Core_0_L2C_average_miss_latency 368.75573

Core_0_L2C_rq_access 844180
Core_0_L2C_rq_forward 0
Core_0_L2C_rq_merged 0
Core_0_L2C_rq_to_cache 844180
Core_0_L2C_rq_full 0

Core_0_L2C_wq_access 261140
Core_0_L2C_wq_forward 0
Core_0_L2C_wq_merged 0
Core_0_L2C_wq_to_cache 261140
Core_0_L2C_wq_full 0

Core_0_L2C_pq_access 5129517
Core_0_L2C_pq_forward 0
Core_0_L2C_pq_merged 3989
Core_0_L2C_pq_to_cache 5125528
Core_0_L2C_pq_full 0

Core_0_L2C_acc_epochs 38635
Core_0_L2C_acc_level_0 1
Core_0_L2C_acc_level_1 0
Core_0_L2C_acc_level_2 1
Core_0_L2C_acc_level_3 4
Core_0_L2C_acc_level_4 41
Core_0_L2C_acc_level_5 205
Core_0_L2C_acc_level_6 803
Core_0_L2C_acc_level_7 2539
Core_0_L2C_acc_level_8 7230
Core_0_L2C_acc_level_9 27811

Core_0_LLC_total_access 1128522
Core_0_LLC_total_hit 1629
Core_0_LLC_total_miss 1126893
Core_0_LLC_loads 15660
Core_0_LLC_load_hit 124
Core_0_LLC_load_miss 15536
Core_0_LLC_RFOs 0
Core_0_LLC_RFO_hit 0
Core_0_LLC_RFO_miss 0
Core_0_LLC_prefetches 853070
Core_0_LLC_prefetch_hit 242
Core_0_LLC_prefetch_miss 852828
Core_0_LLC_writebacks 259792
Core_0_LLC_writeback_hit 1263
Core_0_LLC_writeback_miss 258529
Core_0_LLC_prefetch_requested 0
Core_0_LLC_prefetch_dropped 0
Core_0_LLC_prefetch_issued 0
Core_0_LLC_prefetch_filled 1023581
Core_0_LLC_prefetch_useful 7
Core_0_LLC_prefetch_useless 1021957
Core_0_LLC_prefetch_late 0
Core_0_LLC_average_miss_latency 264.91424

Core_0_LLC_rq_access 15660
Core_0_LLC_rq_forward 0
Core_0_LLC_rq_merged 0
Core_0_LLC_rq_to_cache 15660
Core_0_LLC_rq_full 0

Core_0_LLC_wq_access 259792
Core_0_LLC_wq_forward 0
Core_0_LLC_wq_merged 0
Core_0_LLC_wq_to_cache 259792
Core_0_LLC_wq_full 0

Core_0_LLC_pq_access 1023868
Core_0_LLC_pq_forward 0
Core_0_LLC_pq_merged 0
Core_0_LLC_pq_to_cache 1023868
Core_0_LLC_pq_full 0

Core_0_LLC_acc_epochs 39954
Core_0_LLC_acc_level_0 39954
Core_0_LLC_acc_level_1 0
Core_0_LLC_acc_level_2 0
Core_0_LLC_acc_level_3 0
Core_0_LLC_acc_level_4 0
Core_0_LLC_acc_level_5 0
Core_0_LLC_acc_level_6 0
Core_0_LLC_acc_level_7 0
Core_0_LLC_acc_level_8 0
Core_0_LLC_acc_level_9 0

Core_0_major_page_fault 0
Core_0_minor_page_fault 13866

scooby_st_lookup 1011814
scooby_st_hit 995329
scooby_st_evict 16421
scooby_st_insert 16485
scooby_st_streaming 0

scooby_predict_called 1011814
scooby_predict_out_of_bounds 16049
scooby_predict_action_1 991001
scooby_predict_issue_action_1 990234
scooby_predict_hit_action_1 767
scooby_predict_out_of_bounds_action_1 15602
scooby_predict_action_3 3398
scooby_predict_issue_action_3 3344
scooby_predict_hit_action_3 54
scooby_predict_out_of_bounds_action_3 152
scooby_predict_action_4 120
scooby_predict_issue_action_4 120
scooby_predict_hit_action_4 0
scooby_predict_out_of_bounds_action_4 6
scooby_predict_action_5 110
scooby_predict_issue_action_5 109
scooby_predict_hit_action_5 1
scooby_predict_out_of_bounds_action_5 11
scooby_predict_action_10 115
scooby_predict_issue_action_10 113
scooby_predict_hit_action_10 2
scooby_predict_out_of_bounds_action_10 25
scooby_predict_action_11 103
scooby_predict_issue_action_11 102
scooby_predict_hit_action_11 1
scooby_predict_out_of_bounds_action_11 20
scooby_predict_action_12 104
scooby_predict_issue_action_12 103
scooby_predict_hit_action_12 1
scooby_predict_out_of_bounds_action_12 23
scooby_predict_action_22 89
scooby_predict_issue_action_22 85
scooby_predict_hit_action_22 4
scooby_predict_out_of_bounds_action_22 42
scooby_predict_action_23 81
scooby_predict_issue_action_23 79
scooby_predict_hit_action_23 2
scooby_predict_out_of_bounds_action_23 45
scooby_predict_action_30 74
scooby_predict_issue_action_30 73
scooby_predict_hit_action_30 1
scooby_predict_out_of_bounds_action_30 62
scooby_predict_action_32 57
scooby_predict_issue_action_32 56
scooby_predict_hit_action_32 1
scooby_predict_out_of_bounds_action_32 49
scooby_predict_action_-1 149
scooby_predict_issue_action_-1 17
scooby_predict_hit_action_-1 132
scooby_predict_out_of_bounds_action_-1 1
scooby_predict_action_-3 120
scooby_predict_issue_action_-3 18
scooby_predict_hit_action_-3 102
scooby_predict_out_of_bounds_action_-3 5
scooby_predict_action_-6 101
scooby_predict_issue_action_-6 12
scooby_predict_hit_action_-6 89
scooby_predict_out_of_bounds_action_-6 6
scooby_predict_action_0 143
scooby_predict_issue_action_0 0
scooby_predict_hit_action_0 0
scooby_predict_out_of_bounds_action_0 0
scooby_predict_multi_deg_called 936792
scooby_predict_predicted 5149602
scooby_predict_multi_deg 4155137
scooby_predict_multi_deg_2 921210
scooby_predict_multi_deg_3 872804
scooby_predict_multi_deg_4 857215
scooby_predict_multi_deg_5 759728
scooby_predict_multi_deg_6 744180
scooby_predict_multi_deg_7 0
scooby_predict_multi_deg_8 0
scooby_predict_multi_deg_9 0
scooby_predict_multi_deg_10 0
scooby_predict_multi_deg_11 0
scooby_predict_multi_deg_12 0
scooby_predict_multi_deg_13 0
scooby_predict_multi_deg_14 0
scooby_predict_multi_deg_15 0
scooby_predict_multi_deg_16 0

scooby_selected_deg_1 57673
scooby_selected_deg_2 32827
scooby_selected_deg_3 0
scooby_selected_deg_4 81921
scooby_selected_deg_5 0
scooby_selected_deg_6 822044
scooby_selected_deg_7 0
scooby_selected_deg_8 0
scooby_selected_deg_9 0
scooby_selected_deg_10 0
scooby_selected_deg_11 0
scooby_selected_deg_12 0
scooby_selected_deg_13 0
scooby_selected_deg_14 0
scooby_selected_deg_15 0
scooby_selected_deg_16 0

scooby_state_420c37|0|0 1628,2,0,0,0,0,0,0,0,1,0,0,0,0,0,1631,
scooby_state_420df7|0|0 1606,0,0,0,0,0,0,0,0,0,0,0,0,0,0,1606,
scooby_state_420d4c|0|0 1604,0,0,0,0,0,0,0,0,0,0,1,0,0,1,1606,
scooby_state_420d1b|0|0 1603,0,0,0,0,0,0,1,1,0,0,0,0,0,1,1606,
scooby_state_420cdf|0|0 1601,1,0,1,0,1,0,0,0,0,0,0,0,0,0,1604,
scooby_state_420cc0|0|0 1604,0,0,0,0,0,0,0,0,0,0,0,0,0,0,1604,
scooby_state_420d5a|0|0 1602,0,0,0,0,1,0,0,0,0,0,0,0,0,0,1603,
scooby_state_420c7c|0|0 1590,1,0,0,0,0,1,0,0,0,3,0,1,0,0,1596,
scooby_state_420c37|29|1 1577,0,1,1,0,0,0,0,0,0,0,0,1,1,1,1582,
scooby_state_420c37|21|1 1580,0,0,1,0,0,0,0,1,0,0,0,0,0,0,1582,
scooby_state_420c37|27|1 1580,0,1,0,0,0,0,1,0,0,0,0,0,0,0,1582,
scooby_state_420c37|62|1 1580,0,1,0,0,0,0,0,0,0,0,0,0,0,0,1581,
scooby_state_420c37|54|1 1580,0,0,0,0,0,1,0,0,0,0,0,0,0,0,1581,
scooby_state_420c37|25|1 1579,0,0,1,0,0,0,1,0,0,0,0,0,0,0,1581,
scooby_state_420c37|23|1 1579,0,0,0,0,0,0,0,0,0,0,0,0,1,1,1581,
scooby_state_420c37|60|1 1577,0,0,0,1,0,1,0,0,1,0,1,0,0,0,1581,
scooby_state_420c37|52|1 1576,1,0,0,0,0,0,0,0,2,0,1,1,0,0,1581,
scooby_state_420c37|19|1 1579,1,0,0,0,0,0,0,0,0,0,1,0,0,0,1581,
scooby_state_420c37|17|1 1579,1,0,0,0,0,1,0,0,0,0,0,0,0,0,1581,
scooby_state_420c37|56|1 1576,2,0,0,0,0,1,0,0,0,0,0,0,0,2,1581,
scooby_state_420c37|58|1 1575,0,1,0,1,0,0,1,2,1,0,0,0,0,0,1581,
scooby_state_420c37|8|1 1576,0,0,0,0,0,0,1,1,0,1,1,0,0,0,1580,
scooby_state_420c37|50|1 1579,0,0,0,0,0,0,0,1,0,0,0,0,0,0,1580,
scooby_state_420c37|6|1 1577,0,0,0,0,0,0,0,0,1,0,0,0,0,2,1580,
scooby_state_420c37|13|1 1579,0,0,0,0,0,0,0,0,0,0,1,0,0,0,1580,
scooby_state_420c37|31|1 1578,0,0,0,0,0,0,0,2,0,0,0,0,0,0,1580,
scooby_state_420c37|11|1 1574,1,0,1,0,0,0,1,0,2,1,0,0,0,0,1580,
scooby_state_420c37|15|1 1579,0,0,0,0,0,0,0,0,0,1,0,0,0,0,1580,
scooby_state_420c37|48|1 1577,0,0,0,1,1,0,0,0,0,1,0,0,0,0,1580,
scooby_state_420c37|2|1 1578,0,0,0,0,1,1,0,0,0,0,0,0,0,0,1580,
scooby_state_420c37|12|1 1575,0,1,1,0,0,0,0,0,1,0,0,0,0,1,1579,
scooby_state_420c37|33|1 1578,0,0,0,0,0,0,0,0,0,0,0,1,0,0,1579,
scooby_state_420c37|7|1 1575,0,0,1,0,0,0,0,0,1,0,0,0,1,1,1579,
scooby_state_420c37|10|1 1574,0,1,1,1,0,0,0,0,0,0,1,1,0,0,1579,
scooby_state_420c37|37|1 1579,0,0,0,0,0,0,0,0,0,0,0,0,0,0,1579,
scooby_state_420c37|46|1 1573,2,0,1,0,1,0,0,0,0,0,0,1,0,1,1579,
scooby_state_420c37|39|1 1579,0,0,0,0,0,0,0,0,0,0,0,0,0,0,1579,
scooby_state_420c37|9|1 1577,0,1,0,0,1,0,0,0,0,0,0,0,0,0,1579,
scooby_state_420c37|35|1 1577,0,0,0,0,0,0,1,0,1,0,0,0,0,0,1579,
scooby_state_420c37|4|1 1576,0,0,1,0,0,0,0,0,0,0,0,1,0,1,1579,
scooby_state_420c37|44|1 1578,0,0,0,0,0,1,0,0,0,0,0,0,0,0,1579,
scooby_state_420c37|18|1 1576,0,0,0,1,0,0,0,0,0,0,0,1,0,0,1578,
scooby_state_420c37|38|1 1575,1,1,0,1,0,0,0,0,0,0,0,0,0,0,1578,
scooby_state_420c37|14|1 1575,0,0,1,0,1,0,0,0,0,0,0,0,0,1,1578,
scooby_state_420c37|41|1 1577,0,0,0,0,0,0,0,0,0,0,0,0,0,1,1578,
scooby_state_420c37|42|1 1577,0,0,0,0,0,0,0,0,0,0,1,0,0,0,1578,
scooby_state_420c37|43|1 1574,1,0,0,0,0,1,0,0,0,0,1,0,1,0,1578,
scooby_state_420c37|20|1 1575,0,0,0,0,0,1,2,0,0,0,0,0,0,0,1578,
scooby_state_420c37|45|1 1576,0,0,0,1,0,0,1,0,0,0,0,0,0,0,1578,
scooby_state_420c37|16|1 1574,0,0,0,0,0,0,1,1,0,1,0,0,0,1,1578,
scooby_state_420c37|40|1 1574,0,0,1,0,0,0,0,0,0,0,2,1,0,0,1578,
scooby_state_420c37|47|1 1575,0,1,0,0,0,0,0,0,1,0,0,0,0,0,1577,
scooby_state_420c37|51|1 1574,0,0,0,2,1,0,0,0,0,0,0,0,0,0,1577,
scooby_state_420c37|28|1 1572,1,0,0,0,0,0,0,0,0,1,1,0,0,2,1577,
scooby_state_420c37|53|1 1571,0,2,1,0,1,0,0,0,1,0,1,0,0,0,1577,
scooby_state_420c37|30|1 1574,0,0,0,1,1,1,0,0,0,0,0,0,0,0,1577,
scooby_state_420c37|49|1 1575,0,0,0,0,0,0,1,1,0,0,0,0,0,0,1577,
scooby_state_420c37|26|1 1576,0,0,0,0,0,0,0,0,0,0,1,0,0,0,1577,
scooby_state_420c37|5|1 1575,0,0,1,1,0,0,0,0,0,0,0,0,0,0,1577,
scooby_state_420c37|22|1 1571,0,1,0,1,0,1,0,0,1,0,1,0,0,1,1577,
scooby_state_420c37|61|1 1573,0,1,0,0,0,0,0,0,0,0,1,0,0,1,1576,
scooby_state_420c37|59|1 1576,0,0,0,0,0,0,0,0,0,0,0,0,0,0,1576,
scooby_state_420c37|1|1 1572,0,0,0,0,0,1,0,0,1,1,0,0,0,1,1576,
scooby_state_420c37|55|1 1575,0,0,0,0,0,1,0,0,0,0,0,0,0,0,1576,
scooby_state_420c37|63|1 1575,0,0,0,0,0,0,1,0,0,0,0,0,0,0,1576,
scooby_state_420c37|36|1 1575,0,0,0,0,0,0,0,0,0,0,1,0,0,0,1576,
scooby_state_420c37|57|1 1574,0,0,0,1,0,0,0,0,0,0,0,0,1,0,1576,
scooby_state_420c37|24|1 1573,1,0,0,0,0,0,0,0,1,0,1,0,0,0,1576,
scooby_state_420c37|3|1 1574,0,0,0,1,0,1,0,0,0,0,0,0,0,0,1576,
scooby_state_420c37|32|1 1569,1,0,0,0,0,0,0,2,0,0,0,3,0,0,1575,
scooby_state_420c37|34|1 1572,0,0,1,0,0,0,0,0,1,1,0,0,0,0,1575,
scooby_state_420df7|62|1 1553,0,0,0,1,0,0,0,0,0,0,0,1,0,0,1555,
scooby_state_420d5a|15|1 1555,0,0,0,0,0,0,0,0,0,0,0,0,0,0,1555,
scooby_state_420d4c|16|1 1550,0,0,0,0,0,0,1,0,0,0,1,0,1,2,1555,
scooby_state_420df7|57|1 1551,1,0,1,1,0,0,0,0,0,0,0,0,1,0,1555,
scooby_state_420cc0|24|1 1549,1,1,0,0,2,0,1,0,1,0,0,0,0,0,1555,
scooby_state_420cc0|29|1 1555,0,0,0,0,0,0,0,0,0,0,0,0,0,0,1555,
scooby_state_420df7|16|1 1554,0,0,0,0,0,0,0,0,0,0,1,0,0,0,1555,
scooby_state_420cc0|19|1 1554,0,0,0,0,0,0,0,0,0,0,0,0,0,1,1555,
scooby_state_420df7|18|1 1553,0,0,0,0,0,1,0,0,0,0,0,0,0,1,1555,
scooby_state_420df7|13|1 1553,0,0,0,0,0,0,0,2,0,0,0,0,0,0,1555,
scooby_state_420d4c|7|1 1554,0,0,0,0,0,1,0,0,0,0,0,0,0,0,1555,
scooby_state_420df7|3|1 1553,0,0,1,0,0,0,0,0,0,0,0,0,0,0,1554,
scooby_state_420d1b|36|1 1552,0,1,0,0,0,0,0,0,0,1,0,0,0,0,1554,
scooby_state_420d1b|11|1 1552,0,0,0,0,0,0,1,1,0,0,0,0,0,0,1554,
scooby_state_420d1b|10|1 1551,0,0,0,1,0,0,0,0,0,0,0,1,0,1,1554,
scooby_state_420df7|17|1 1552,1,0,0,0,0,0,1,0,0,0,0,0,0,0,1554,
scooby_state_420d5a|48|1 1551,0,0,1,0,1,0,0,0,0,1,0,0,0,0,1554,
scooby_state_420d5a|6|1 1549,2,0,0,0,0,0,1,0,0,0,0,1,0,1,1554,
scooby_state_420d4c|17|1 1551,0,0,0,1,0,0,0,0,0,1,0,1,0,0,1554,
scooby_state_420d1b|37|1 1549,0,1,0,0,1,0,2,0,0,0,1,0,0,0,1554,
scooby_state_420d5a|16|1 1552,0,0,1,0,0,0,1,0,0,0,0,0,0,0,1554,
scooby_state_420cc0|39|1 1551,0,0,1,0,0,1,0,0,0,0,0,0,1,0,1554,
scooby_state_420df7|9|1 1548,0,0,1,0,1,1,0,0,0,1,1,1,0,0,1554,
scooby_state_420d1b|2|1 1552,0,0,0,0,0,0,0,0,0,0,0,1,1,0,1554,
scooby_state_420df7|42|1 1554,0,0,0,0,0,0,0,0,0,0,0,0,0,0,1554,
scooby_state_420df7|60|1 1550,0,0,0,0,0,0,0,2,0,0,0,0,1,1,1554,
scooby_state_420cc0|26|1 1550,0,1,0,0,1,0,0,2,0,0,0,0,0,0,1554,
scooby_state_420df7|11|1 1550,0,0,2,0,0,0,0,0,0,1,1,0,0,0,1554,
scooby_state_420cc0|59|1 1554,0,0,0,0,0,0,0,0,0,0,0,0,0,0,1554,
scooby_state_420df7|12|1 1550,0,0,1,0,1,0,0,0,0,0,1,0,0,1,1554,
scooby_state_420df7|1|1 1554,0,0,0,0,0,0,0,0,0,0,0,0,0,0,1554,
scooby_state_420c7c|1|1 1551,0,0,0,1,0,0,0,0,0,1,0,1,0,0,1554,
scooby_state_420d4c|8|1 1550,0,1,0,0,1,1,0,0,0,0,0,1,0,0,1554,
scooby_state_420d1b|38|1 1552,0,0,0,1,0,0,0,0,0,0,0,0,1,0,1554,
scooby_state_420df7|8|1 1551,0,0,0,0,0,1,0,0,0,2,0,0,0,0,1554,
scooby_state_420cc0|14|1 1554,0,0,0,0,0,0,0,0,0,0,0,0,0,0,1554,
scooby_state_420d4c|9|1 1550,0,0,0,2,0,0,0,0,0,1,1,0,0,0,1554,
scooby_state_420d1b|9|1 1547,0,0,0,0,2,0,1,0,1,0,1,1,1,0,1554,
scooby_state_420d1b|33|1 1551,0,0,0,1,1,0,0,1,0,0,0,0,0,0,1554,
scooby_state_420d1b|18|1 1553,0,0,0,0,0,0,0,0,0,1,0,0,0,0,1554,
scooby_state_420df7|14|1 1551,1,0,0,0,0,0,0,0,0,1,0,1,0,0,1554,
scooby_state_420d5a|17|1 1553,0,0,0,0,0,0,0,0,0,0,1,0,0,0,1554,
scooby_state_420cc0|28|1 1552,0,0,0,0,0,0,0,0,1,1,0,0,0,0,1554,
scooby_state_420c7c|31|1 1554,0,0,0,0,0,0,0,0,0,0,0,0,0,0,1554,
scooby_state_420d1b|42|1 1554,0,0,0,0,0,0,0,0,0,0,0,0,0,0,1554,
scooby_state_420d5a|24|1 1550,0,0,2,0,0,1,0,0,0,0,0,0,1,0,1554,
scooby_state_420d5a|21|1 1552,0,0,0,0,1,0,0,0,0,0,0,0,0,0,1553,
scooby_state_420df7|37|1 1551,0,0,0,0,0,0,0,0,0,2,0,0,0,0,1553,
scooby_state_420d5a|61|1 1550,0,0,0,0,0,1,0,0,1,0,0,0,0,1,1553,
scooby_state_420df7|21|1 1549,0,0,0,0,2,1,0,0,0,0,0,0,0,1,1553,
scooby_state_420d4c|6|1 1550,0,0,0,0,0,0,2,0,0,0,1,0,0,0,1553,
scooby_state_420d5a|44|1 1548,0,1,0,0,0,1,1,0,1,0,0,1,0,0,1553,
scooby_state_420d1b|24|1 1549,0,0,0,2,0,0,0,1,1,0,0,0,0,0,1553,
scooby_state_420cc0|53|1 1548,0,0,1,0,0,0,0,1,1,0,2,0,0,0,1553,
scooby_state_420cc0|37|1 1553,0,0,0,0,0,0,0,0,0,0,0,0,0,0,1553,
scooby_state_420d5a|30|1 1550,0,0,0,0,0,0,0,0,0,0,2,1,0,0,1553,
scooby_state_420df7|6|1 1550,0,0,1,0,0,0,0,0,0,0,0,1,1,0,1553,
scooby_state_420df7|15|1 1551,0,1,0,0,0,1,0,0,0,0,0,0,0,0,1553,
scooby_state_420d5a|33|1 1551,1,0,0,1,0,0,0,0,0,0,0,0,0,0,1553,
scooby_state_420d1b|46|1 1551,0,0,0,0,0,0,0,0,0,0,1,0,1,0,1553,
scooby_state_420c7c|20|1 1550,0,1,0,1,1,0,0,0,0,0,0,0,0,0,1553,
scooby_state_420d1b|48|1 1551,0,0,0,0,0,0,1,0,1,0,0,0,0,0,1553,
scooby_state_420d4c|18|1 1549,0,0,1,0,0,0,1,0,1,0,0,0,0,1,1553,
scooby_state_420d1b|20|1 1551,0,0,0,0,1,0,1,0,0,0,0,0,0,0,1553,
scooby_state_420d1b|40|1 1552,0,0,0,0,0,0,1,0,0,0,0,0,0,0,1553,
scooby_state_420cc0|4|1 1551,0,1,0,0,0,0,0,0,0,0,0,1,0,0,1553,
scooby_state_420d5a|34|1 1551,0,0,0,0,1,0,0,0,0,0,1,0,0,0,1553,
scooby_state_420cc0|17|1 1551,0,0,0,0,0,0,1,0,1,0,0,0,0,0,1553,
scooby_state_420cc0|22|1 1548,1,0,0,0,0,0,0,2,2,0,0,0,0,0,1553,
scooby_state_420d5a|12|1 1548,0,2,0,0,1,0,1,0,1,0,0,0,0,0,1553,
scooby_state_420df7|47|1 1552,0,0,0,0,0,1,0,0,0,0,0,0,0,0,1553,
scooby_state_420d4c|31|1 1552,0,0,0,0,0,0,0,0,0,0,0,0,0,1,1553,
scooby_state_420cc0|16|1 1552,0,0,0,0,1,0,0,0,0,0,0,0,0,0,1553,
scooby_state_420d1b|4|1 1552,0,0,1,0,0,0,0,0,0,0,0,0,0,0,1553,
scooby_state_420df7|63|1 1548,1,0,0,0,0,0,0,0,0,1,1,0,0,2,1553,
scooby_state_420df7|23|1 1549,0,0,1,0,0,0,0,1,0,0,0,0,1,1,1553,
scooby_state_420cc0|21|1 1553,0,0,0,0,0,0,0,0,0,0,0,0,0,0,1553,
scooby_state_420cc0|50|1 1551,0,0,0,0,0,0,0,1,0,0,0,0,1,0,1553,
scooby_state_420d5a|14|1 1549,0,0,0,0,0,0,0,1,2,0,0,1,0,0,1553,
scooby_state_420d1b|17|1 1552,0,0,0,1,0,0,0,0,0,0,0,0,0,0,1553,
scooby_state_420df7|4|1 1550,0,0,0,0,1,0,0,2,0,0,0,0,0,0,1553,
scooby_state_420cc0|18|1 1551,0,0,1,0,0,0,0,0,0,0,1,0,0,0,1553,
scooby_state_420cc0|23|1 1549,1,0,0,0,0,0,0,0,0,2,0,0,1,0,1553,
scooby_state_420d1b|19|1 1551,0,0,0,0,0,0,0,0,0,0,1,0,0,1,1553,
scooby_state_420d1b|35|1 1549,0,1,0,1,1,1,0,0,0,0,0,0,0,0,1553,
scooby_state_420cc0|48|1 1551,0,0,0,0,1,0,1,0,0,0,0,0,0,0,1553,
scooby_state_420d1b|29|1 1548,2,0,0,0,0,0,3,0,0,0,0,0,0,0,1553,
scooby_state_420df7|22|1 1552,0,0,0,0,0,0,1,0,0,0,0,0,0,0,1553,
scooby_state_420d5a|26|1 1552,0,1,0,0,0,0,0,0,0,0,0,0,0,0,1553,
scooby_state_420df7|7|1 1550,0,0,0,1,0,1,0,0,0,0,0,0,1,0,1553,
scooby_state_420cc0|31|1 1549,1,1,0,1,1,0,0,0,0,0,0,0,0,0,1553,
scooby_state_420cc0|20|1 1551,0,0,0,0,0,0,0,1,0,0,0,1,0,0,1553,
scooby_state_420cc0|30|1 1553,0,0,0,0,0,0,0,0,0,0,0,0,0,0,1553,
scooby_state_420cc0|6|1 1549,0,0,0,1,0,0,0,1,0,0,0,2,0,0,1553,
scooby_state_420cc0|49|1 1551,0,0,0,0,0,0,0,1,0,0,0,0,0,1,1553,
scooby_state_420d1b|16|1 1551,0,0,0,0,0,0,1,0,0,0,1,0,0,0,1553,
scooby_state_420d4c|13|1 1550,1,0,0,1,0,0,0,0,0,1,0,0,0,0,1553,
scooby_state_420d1b|1|1 1553,0,0,0,0,0,0,0,0,0,0,0,0,0,0,1553,
scooby_state_420df7|58|1 1549,0,0,0,1,0,0,0,0,1,0,0,1,0,1,1553,
scooby_state_420d1b|39|1 1550,0,0,0,0,1,0,0,0,1,1,0,0,0,0,1553,
scooby_state_420cc0|34|1 1553,0,0,0,0,0,0,0,0,0,0,0,0,0,0,1553,
scooby_state_420cc0|62|1 1548,0,0,0,1,0,1,1,0,0,0,1,1,0,0,1553,
scooby_state_420cc0|52|1 1553,0,0,0,0,0,0,0,0,0,0,0,0,0,0,1553,
scooby_state_420d5a|39|1 1549,0,1,0,0,0,0,0,1,2,0,0,0,0,0,1553,
scooby_state_420d4c|14|1 1546,1,1,1,0,1,0,2,0,1,0,0,0,0,0,1553,
scooby_state_420d5a|46|1 1551,1,0,0,0,0,0,1,0,0,0,0,0,0,0,1553,
scooby_state_420d5a|35|1 1552,0,0,0,0,0,0,1,0,0,0,0,0,0,0,1553,
scooby_state_420d5a|7|1 1547,0,0,0,1,0,0,1,2,1,0,0,0,0,1,1553,
scooby_state_420d4c|15|1 1552,0,0,0,0,0,0,0,0,0,0,0,0,1,0,1553,
scooby_state_420df7|19|1 1550,0,0,0,0,0,0,1,0,0,1,0,0,0,1,1553,
scooby_state_420cc0|54|1 1550,0,0,1,0,0,0,0,2,0,0,0,0,0,0,1553,
scooby_state_420d5a|45|1 1549,0,0,0,1,0,0,1,0,1,0,0,1,0,0,1553,
scooby_state_420d5a|13|1 1551,1,0,0,0,0,0,0,1,0,0,0,0,0,0,1553,
scooby_state_420cc0|25|1 1552,0,0,1,0,0,0,0,0,0,0,0,0,0,0,1553,
scooby_state_420d5a|8|1 1552,0,0,0,0,0,0,0,0,1,0,0,0,0,0,1553,
scooby_state_420cc0|15|1 1553,0,0,0,0,0,0,0,0,0,0,0,0,0,0,1553,
scooby_state_420cc0|9|1 1550,0,0,0,0,0,0,0,0,0,0,0,1,1,1,1553,
scooby_state_420d1b|15|1 1549,0,0,0,0,1,0,0,0,1,0,0,2,0,0,1553,
scooby_state_420d5a|52|1 1549,0,1,0,0,0,0,0,3,0,0,0,0,0,0,1553,
scooby_state_420cc0|11|1 1547,0,0,2,0,1,0,2,0,0,1,0,0,0,0,1553,
scooby_state_420d1b|6|1 1545,1,0,0,0,0,0,2,0,1,0,1,1,1,1,1553,
scooby_state_420cc0|57|1 1551,0,0,0,1,0,1,0,0,0,0,0,0,0,0,1553,
scooby_state_420d5a|43|1 1550,0,0,0,1,0,0,1,0,1,0,0,0,0,0,1553,
scooby_state_420d1b|27|1 1553,0,0,0,0,0,0,0,0,0,0,0,0,0,0,1553,
scooby_state_420d1b|47|1 1551,0,0,1,1,0,0,0,0,0,0,0,0,0,0,1553,
scooby_state_420cc0|47|1 1548,1,1,0,2,0,0,0,0,0,0,1,0,0,0,1553,
scooby_state_420d5a|63|1 1551,1,0,0,1,0,0,0,0,0,0,0,0,0,0,1553,
scooby_state_420d1b|5|1 1550,0,0,1,0,0,0,1,0,0,0,0,0,1,0,1553,
scooby_state_420d5a|62|1 1550,0,0,0,0,1,1,0,0,0,0,0,1,0,0,1553,
scooby_state_420d1b|7|1 1550,1,0,1,0,0,0,0,0,0,1,0,0,0,0,1553,
scooby_state_420df7|39|1 1550,0,0,0,0,0,0,0,0,0,1,1,0,0,0,1552,
scooby_state_420cc0|35|1 1551,0,0,1,0,0,0,0,0,0,0,0,0,0,0,1552,
scooby_state_420d1b|8|1 1549,0,1,1,0,0,0,0,0,0,0,1,0,0,0,1552,
scooby_state_420d1b|41|1 1548,1,0,0,0,0,0,0,0,1,0,0,0,2,0,1552,
scooby_state_420d1b|44|1 1549,0,0,0,0,0,0,0,0,1,0,0,0,2,0,1552,
scooby_state_420d1b|55|1 1547,1,0,0,1,1,0,0,0,0,0,2,0,0,0,1552,
scooby_state_420df7|27|1 1549,0,1,0,0,1,0,0,0,0,0,1,0,0,0,1552,
scooby_state_420cc0|13|1 1549,0,0,0,0,0,0,0,0,0,0,0,1,1,1,1552,
scooby_state_420d5a|40|1 1550,0,0,0,0,0,1,0,0,0,0,0,1,0,0,1552,
scooby_state_420d1b|26|1 1550,0,0,0,0,0,2,0,0,0,0,0,0,0,0,1552,
scooby_state_420d5a|5|1 1545,0,1,0,0,0,1,1,0,1,0,1,0,1,1,1552,
scooby_state_420cc0|44|1 1549,0,0,0,0,0,1,0,0,1,0,0,0,1,0,1552,
scooby_state_420df7|24|1 1550,1,0,0,1,0,0,0,0,0,0,0,0,0,0,1552,
scooby_state_420d5a|51|1 1550,1,0,0,0,0,0,0,1,0,0,0,0,0,0,1552,
scooby_state_420d1b|49|1 1552,0,0,0,0,0,0,0,0,0,0,0,0,0,0,1552,
scooby_state_420d4c|11|1 1550,1,0,0,0,0,0,0,0,0,0,0,1,0,0,1552,
scooby_state_420d5a|42|1 1546,0,0,0,0,0,0,1,1,0,1,2,0,0,1,1552,
scooby_state_420df7|10|1 1551,0,0,0,0,0,0,0,0,0,0,0,0,1,0,1552,
scooby_state_420d5a|36|1 1551,0,0,0,0,1,0,0,0,0,0,0,0,0,0,1552,
scooby_state_420d5a|47|1 1550,0,0,1,0,0,0,0,0,1,0,0,0,0,0,1552,
scooby_state_420df7|56|1 1549,0,0,0,1,0,0,0,0,0,0,1,1,0,0,1552,
scooby_state_420df7|41|1 1546,0,0,0,0,1,0,0,0,1,2,0,0,1,1,1552,
scooby_state_420d5a|25|1 1548,2,1,0,0,0,0,0,0,1,0,0,0,0,0,1552,
scooby_state_420df7|52|1 1548,0,1,0,0,0,0,1,0,0,1,0,0,1,0,1552,
scooby_state_420d1b|57|1 1549,0,1,0,0,0,0,0,1,1,0,0,0,0,0,1552,
scooby_state_420d1b|28|1 1550,0,0,0,0,0,0,0,0,1,0,1,0,0,0,1552,
scooby_state_420d1b|43|1 1548,0,0,0,1,0,1,1,0,1,0,0,0,0,0,1552,
scooby_state_420d5a|31|1 1549,0,1,0,0,0,0,0,0,0,0,0,0,1,1,1552,
scooby_state_420d4c|27|1 1551,1,0,0,0,0,0,0,0,0,0,0,0,0,0,1552,
scooby_state_420df7|40|1 1549,0,0,0,1,0,0,0,1,1,0,0,0,0,0,1552,
scooby_state_420cc0|58|1 1551,0,0,0,0,1,0,0,0,0,0,0,0,0,0,1552,
scooby_state_420d1b|25|1 1550,0,1,0,0,0,0,0,1,0,0,0,0,0,0,1552,
scooby_state_420d4c|29|1 1551,1,0,0,0,0,0,0,0,0,0,0,0,0,0,1552,
scooby_state_420d1b|22|1 1549,0,0,0,1,0,1,0,0,0,0,1,0,0,0,1552,
scooby_state_420df7|29|1 1549,0,0,0,0,0,0,0,0,0,0,1,1,0,1,1552,
scooby_state_420d4c|4|1 1549,0,0,0,1,1,0,0,0,0,0,0,0,0,1,1552,
scooby_state_420df7|61|1 1551,0,0,0,0,0,0,1,0,0,0,0,0,0,0,1552,
scooby_state_420cc0|33|1 1548,0,0,0,2,0,0,0,0,1,1,0,0,0,0,1552,
scooby_state_420d5a|49|1 1550,0,0,0,0,0,0,1,0,0,0,0,0,1,0,1552,
scooby_state_420d1b|60|1 1548,0,0,0,0,1,0,0,0,0,0,0,1,2,0,1552,
scooby_state_420d5a|20|1 1549,0,0,1,0,0,0,0,0,0,0,0,1,0,1,1552,
scooby_state_420d5a|50|1 1552,0,0,0,0,0,0,0,0,0,0,0,0,0,0,1552,
scooby_state_420d5a|57|1 1550,0,0,0,0,1,0,0,0,0,1,0,0,0,0,1552,
scooby_state_420d4c|5|1 1550,0,0,0,0,0,1,0,0,0,1,0,0,0,0,1552,
scooby_state_420d4c|3|1 1548,0,1,0,1,0,0,1,0,0,0,0,1,0,0,1552,
scooby_state_420df7|44|1 1547,1,0,0,0,0,0,0,0,0,1,1,1,1,0,1552,
scooby_state_420cc0|60|1 1549,1,0,0,0,0,1,0,0,1,0,0,0,0,0,1552,
scooby_state_420d5a|53|1 1549,0,0,0,1,0,0,0,1,0,1,0,0,0,0,1552,
scooby_state_420df7|38|1 1549,0,0,0,1,1,1,0,0,0,0,0,0,0,0,1552,
scooby_state_420d5a|54|1 1549,0,0,0,0,1,0,0,0,1,0,1,0,0,0,1552,
scooby_state_420cc0|27|1 1550,0,0,0,0,0,0,0,0,0,0,0,1,0,1,1552,
scooby_state_420d5a|37|1 1547,0,1,0,1,0,0,0,0,0,0,0,2,0,1,1552,
scooby_state_420df7|2|1 1550,0,0,0,0,0,1,0,0,0,0,0,0,0,1,1552,
scooby_state_420d5a|2|1 1548,0,1,0,1,0,0,0,0,0,0,0,1,0,1,1552,
scooby_state_420cc0|51|1 1549,0,0,0,0,0,0,0,0,0,0,0,1,0,2,1552,
scooby_state_420df7|51|1 1550,0,0,0,0,0,0,0,0,0,0,0,0,0,2,1552,
scooby_state_420d1b|12|1 1550,0,1,0,0,0,1,0,0,0,0,0,0,0,0,1552,
scooby_state_420cc0|8|1 1551,0,0,0,0,0,0,0,0,0,1,0,0,0,0,1552,
scooby_state_420df7|20|1 1549,0,0,0,0,0,0,2,1,0,0,0,0,0,0,1552,
scooby_state_420df7|49|1 1549,0,0,0,0,0,0,0,3,0,0,0,0,0,0,1552,
scooby_state_420cc0|45|1 1551,0,1,0,0,0,0,0,0,0,0,0,0,0,0,1552,
scooby_state_420d5a|32|1 1549,0,1,0,0,0,0,0,0,0,0,0,0,2,0,1552,
scooby_state_420df7|26|1 1547,1,1,1,0,0,0,0,0,0,0,1,0,0,1,1552,
scooby_state_420d4c|10|1 1551,0,0,0,0,1,0,0,0,0,0,0,0,0,0,1552,
scooby_state_420d5a|4|1 1549,0,1,0,1,0,0,0,0,0,0,1,0,0,0,1552,
scooby_state_420d1b|45|1 1552,0,0,0,0,0,0,0,0,0,0,0,0,0,0,1552,
scooby_state_420d4c|1|1 1551,0,0,0,0,0,0,0,0,1,0,0,0,0,0,1552,
scooby_state_420cc0|42|1 1549,0,0,0,0,0,0,0,1,1,0,1,0,0,0,1552,
scooby_state_420d5a|10|1 1548,0,0,0,0,1,1,0,1,0,1,0,0,0,0,1552,
scooby_state_420d1b|32|1 1551,0,0,0,0,0,0,0,0,0,0,0,0,0,1,1552,
scooby_state_420d1b|13|1 1550,0,0,0,0,0,0,0,1,1,0,0,0,0,0,1552,
scooby_state_420d4c|25|1 1551,0,0,0,0,0,0,0,1,0,0,0,0,0,0,1552,
scooby_state_420d5a|18|1 1550,0,0,0,0,0,0,0,1,0,0,0,0,1,0,1552,
scooby_state_420d5a|23|1 1549,0,0,0,0,0,0,0,2,0,0,1,0,0,0,1552,
scooby_state_420d5a|11|1 1550,0,0,1,0,1,0,0,0,0,0,0,0,0,0,1552,
scooby_state_420df7|46|1 1547,0,0,0,0,0,1,1,1,0,0,1,0,0,1,1552,
scooby_state_420d1b|51|1 1550,0,1,0,0,0,0,0,0,0,0,0,0,1,0,1552,
scooby_state_420d5a|28|1 1549,1,0,0,0,0,0,1,0,1,0,0,0,0,0,1552,
scooby_state_420d5a|22|1 1551,0,0,0,0,0,0,1,0,0,0,0,0,0,0,1552,
scooby_state_420d4c|22|1 1549,0,0,0,1,0,0,0,0,0,0,1,0,1,0,1552,
scooby_state_420d1b|14|1 1551,0,0,0,0,0,1,0,0,0,0,0,0,0,0,1552,
scooby_state_420df7|59|1 1547,0,0,0,0,0,0,1,0,0,1,0,1,1,1,1552,
scooby_state_420d5a|19|1 1550,0,1,0,0,1,0,0,0,0,0,0,0,0,0,1552,
scooby_state_420df7|43|1 1550,0,1,0,0,1,0,0,0,0,0,0,0,0,0,1552,
scooby_state_420cc0|55|1 1552,0,0,0,0,0,0,0,0,0,0,0,0,0,0,1552,
scooby_state_420d4c|12|1 1551,0,0,0,0,0,0,0,0,0,1,0,0,0,0,1552,
scooby_state_420d1b|3|1 1549,0,0,0,0,0,0,1,0,0,1,0,0,0,1,1552,
scooby_state_420d1b|34|1 1550,1,0,0,1,0,0,0,0,0,0,0,0,0,0,1552,
scooby_state_420d1b|56|1 1550,0,0,0,0,0,0,1,0,0,0,0,1,0,0,1552,
scooby_state_420d1b|31|1 1552,0,0,0,0,0,0,0,0,0,0,0,0,0,0,1552,
scooby_state_420cc0|63|1 1549,0,0,1,0,1,0,0,1,0,0,0,0,0,0,1552,
scooby_state_420d5a|41|1 1546,1,0,0,1,0,2,0,0,0,1,1,0,0,0,1552,
scooby_state_420d4c|28|1 1548,0,1,0,0,0,0,0,0,0,0,0,1,1,0,1551,
scooby_state_420d5a|1|1 1548,0,0,1,0,0,1,0,1,0,0,0,0,0,0,1551,
scooby_state_420c7c|23|1 1548,1,0,0,0,0,0,0,0,1,0,1,0,0,0,1551,
scooby_state_420d4c|20|1 1547,0,1,1,1,1,0,0,0,0,0,0,0,0,0,1551,
scooby_state_420df7|54|1 1550,0,1,0,0,0,0,0,0,0,0,0,0,0,0,1551,
scooby_state_420cc0|61|1 1549,0,0,0,0,0,0,0,0,0,1,0,1,0,0,1551,
scooby_state_420df7|32|1 1550,0,0,0,0,0,0,1,0,0,0,0,0,0,0,1551,
scooby_state_420d4c|32|1 1549,0,1,0,0,0,0,0,0,0,0,0,0,0,1,1551,
scooby_state_420d5a|3|1 1546,0,0,1,0,1,0,1,0,0,1,0,0,0,1,1551,
scooby_state_420df7|36|1 1549,0,0,0,0,0,1,0,0,0,0,0,0,1,0,1551,
scooby_state_420df7|48|1 1549,1,0,1,0,0,0,0,0,0,0,0,0,0,0,1551,
scooby_state_420c7c|7|1 1548,1,0,0,0,0,1,0,0,0,0,1,0,0,0,1551,
scooby_state_420d1b|21|1 1549,1,0,0,0,0,0,0,0,0,0,0,1,0,0,1551,
scooby_state_420d4c|30|1 1548,1,0,1,0,0,0,1,0,0,0,0,0,0,0,1551,
scooby_state_420cc0|40|1 1546,0,0,0,0,1,1,0,0,0,0,1,1,0,1,1551,
scooby_state_420cc0|10|1 1550,0,0,0,1,0,0,0,0,0,0,0,0,0,0,1551,
scooby_state_420cc0|5|1 1547,1,0,0,1,1,0,0,0,0,0,1,0,0,0,1551,
scooby_state_420cc0|56|1 1550,0,0,0,0,1,0,0,0,0,0,0,0,0,0,1551,
scooby_state_420cdf|1|1 1548,1,0,0,0,2,0,0,0,0,0,0,0,0,0,1551,
scooby_state_420d4c|33|1 1547,1,0,1,0,1,0,0,0,0,0,0,0,1,0,1551,
scooby_state_420d4c|26|1 1547,0,1,0,0,0,0,1,1,0,1,0,0,0,0,1551,
scooby_state_420c7c|12|1 1549,0,0,0,0,0,0,0,2,0,0,0,0,0,0,1551,
scooby_state_420d5a|27|1 1546,1,0,0,0,1,0,0,0,1,1,0,0,1,0,1551,
scooby_state_420cc0|36|1 1548,0,1,0,1,0,0,0,1,0,0,0,0,0,0,1551,
scooby_state_420d4c|24|1 1548,0,0,0,0,0,1,1,0,0,0,0,0,0,1,1551,
scooby_state_420d4c|23|1 1548,0,0,1,0,0,1,1,0,0,0,0,0,0,0,1551,
scooby_state_420df7|34|1 1546,0,0,0,0,0,1,1,0,0,1,1,0,0,1,1551,
scooby_state_420d4c|2|1 1545,1,1,0,1,2,0,0,1,0,0,0,0,0,0,1551,
scooby_state_420c7c|15|1 1548,0,0,1,0,0,1,0,0,0,0,0,0,0,1,1551,
scooby_state_420d1b|50|1 1549,0,0,0,0,0,1,0,0,0,0,0,1,0,0,1551,
scooby_state_420d5a|55|1 1549,0,0,0,0,0,0,0,0,1,0,0,0,1,0,1551,
scooby_state_420cc0|1|1 1545,1,0,1,0,0,0,0,1,1,0,1,0,0,1,1551,
scooby_state_420cc0|46|1 1550,0,0,0,0,0,0,0,0,0,0,0,0,0,1,1551,
scooby_state_420cc0|3|1 1548,0,0,0,0,1,0,0,0,0,1,0,1,0,0,1551,
scooby_state_420df7|5|1 1549,0,0,1,0,1,0,0,0,0,0,0,0,0,0,1551,
scooby_state_420d1b|53|1 1549,0,0,0,0,0,0,2,0,0,0,0,0,0,0,1551,
scooby_state_420d1b|63|1 1544,1,0,2,0,0,1,1,0,0,0,0,1,0,1,1551,
scooby_state_420d5a|29|1 1548,0,0,0,1,1,0,0,0,0,1,0,0,0,0,1551,
scooby_state_420cc0|32|1 1548,1,0,0,0,1,0,1,0,0,0,0,0,0,0,1551,
scooby_state_420d5a|59|1 1549,0,0,1,0,0,0,0,0,0,1,0,0,0,0,1551,
scooby_state_420df7|31|1 1550,1,0,0,0,0,0,0,0,0,0,0,0,0,0,1551,
scooby_state_420df7|45|1 1548,0,0,0,0,0,0,0,0,1,0,1,1,0,0,1551,
scooby_state_420d1b|58|1 1549,0,0,1,0,0,1,0,0,0,0,0,0,0,0,1551,
scooby_state_420d1b|30|1 1551,0,0,0,0,0,0,0,0,0,0,0,0,0,0,1551,
scooby_state_420d5a|38|1 1545,1,2,0,0,0,0,0,0,0,1,1,0,0,1,1551,
scooby_state_420d5a|9|1 1550,0,0,1,0,0,0,0,0,0,0,0,0,0,0,1551,
scooby_state_420d4c|19|1 1547,0,0,0,1,0,0,0,1,0,1,0,1,0,0,1551,
scooby_state_420d1b|23|1 1546,2,0,0,2,0,0,0,1,0,0,0,0,0,0,1551,
scooby_state_420cc0|38|1 1549,0,0,0,0,0,1,0,0,0,0,0,0,0,1,1551,
scooby_state_420c7c|32|1 1549,0,0,0,0,1,1,0,0,0,0,0,0,0,0,1551,
scooby_state_420df7|55|1 1548,1,0,0,0,0,0,0,0,1,0,0,0,0,0,1550,
scooby_state_420c7c|16|1 1544,1,1,1,0,0,0,0,0,1,0,0,1,1,0,1550,
scooby_state_420d1b|52|1 1548,1,0,0,0,0,0,0,0,0,0,0,1,0,0,1550,
scooby_state_420df7|53|1 1549,0,0,0,0,0,0,0,0,1,0,0,0,0,0,1550,
scooby_state_420cc0|7|1 1546,1,1,0,0,0,0,0,0,1,0,0,0,0,1,1550,
scooby_state_420d1b|62|1 1548,0,0,0,0,1,0,0,1,0,0,0,0,0,0,1550,
scooby_state_420df7|25|1 1548,0,0,0,1,0,0,0,0,0,0,0,0,1,0,1550,
scooby_state_420d5a|58|1 1547,0,0,0,1,0,0,0,0,0,1,0,0,1,0,1550,
scooby_state_420df7|50|1 1548,0,0,0,1,0,0,0,0,0,0,0,0,1,0,1550,
scooby_state_420df7|28|1 1549,1,0,0,0,0,0,0,0,0,0,0,0,0,0,1550,
scooby_state_420d1b|59|1 1548,0,0,1,0,0,0,0,0,0,0,1,0,0,0,1550,
scooby_state_420cc0|43|1 1544,0,0,0,0,0,0,3,0,0,1,0,0,2,0,1550,
scooby_state_420d5a|56|1 1548,0,0,0,1,0,0,0,0,0,0,1,0,0,0,1550,
scooby_state_420d4c|21|1 1544,1,0,1,0,0,1,0,1,0,1,1,0,0,0,1550,
scooby_state_420cc0|12|1 1547,0,0,0,0,0,1,0,0,1,1,0,0,0,0,1550,
scooby_state_420d1b|54|1 1547,1,0,0,0,0,0,0,0,0,0,1,0,1,0,1550,
scooby_state_420c7c|28|1 1546,0,0,1,0,0,0,0,0,0,0,2,0,1,0,1550,
scooby_state_420cc0|41|1 1549,0,0,0,0,0,0,0,0,0,1,0,0,0,0,1550,
scooby_state_420d5a|60|1 1549,0,1,0,0,0,0,0,0,0,0,0,0,0,0,1550,
scooby_state_420c7c|3|1 1546,0,0,0,0,0,1,0,0,0,2,0,0,0,0,1549,
scooby_state_420c7c|8|1 1547,0,0,0,0,0,0,0,0,0,1,1,0,0,0,1549,
scooby_state_420c7c|27|1 1547,0,1,1,0,0,0,0,0,0,0,0,0,0,0,1549,
scooby_state_420df7|30|1 1547,0,0,0,0,0,0,0,0,1,0,0,0,0,1,1549,
scooby_state_420c7c|4|1 1547,0,2,0,0,0,0,0,0,0,0,0,0,0,0,1549,
scooby_state_420df7|33|1 1548,0,0,0,0,0,0,0,1,0,0,0,0,0,0,1549,
scooby_state_420cc0|2|1 1544,0,1,1,0,1,0,0,0,0,0,0,1,0,1,1549,
scooby_state_420d1b|61|1 1547,1,0,0,1,0,0,0,0,0,0,0,0,0,0,1549,
scooby_state_420c7c|11|1 1549,0,0,0,0,0,0,0,0,0,0,0,0,0,0,1549,
scooby_state_420c7c|18|1 1547,0,1,0,0,0,0,0,0,1,0,0,0,0,0,1549,
scooby_state_420df7|35|1 1544,1,1,0,1,0,0,1,0,0,0,0,0,0,1,1549,
scooby_state_420c7c|17|1 1546,1,0,0,0,0,0,0,0,1,0,0,0,0,0,1548,
scooby_state_420c7c|29|1 1547,0,0,0,0,0,0,0,0,1,0,0,0,0,0,1548,
scooby_state_420c7c|19|1 1546,1,0,0,0,0,0,0,0,0,0,0,0,1,0,1548,
scooby_state_420c7c|24|1 1547,0,0,0,0,0,0,0,0,0,0,1,0,0,0,1548,
scooby_state_420c7c|14|1 1546,0,0,1,0,0,0,0,0,0,0,0,0,0,0,1547,
scooby_state_420c7c|33|1 1547,0,0,0,0,0,0,0,0,0,0,0,0,0,0,1547,
scooby_state_420c7c|9|1 1545,0,0,0,1,0,0,0,0,0,0,0,0,1,0,1547,
scooby_state_420c7c|25|1 1542,1,0,0,0,0,1,1,0,0,0,0,1,0,0,1546,
scooby_state_420c7c|26|1 1543,0,0,0,1,0,0,0,0,0,0,0,1,0,1,1546,
scooby_state_420c7c|22|1 1545,0,0,0,0,0,0,0,0,0,0,0,0,0,0,1545,
scooby_state_420cdf|15|1 1544,0,0,0,1,0,0,0,0,0,0,0,0,0,0,1545,
scooby_state_420c7c|6|1 1541,1,0,2,0,0,0,0,0,0,0,1,0,0,0,1545,
scooby_state_420cdf|36|1 1542,0,0,0,0,1,1,0,0,0,0,0,0,0,0,1544,
scooby_state_420cdf|28|1 1541,0,0,0,0,0,0,0,0,1,0,0,1,0,1,1544,
scooby_state_420cdf|39|1 1540,0,0,0,2,0,0,0,0,0,0,1,0,0,1,1544,
scooby_state_420cdf|14|1 1540,0,1,0,0,0,0,0,1,0,0,1,0,0,1,1544,
scooby_state_420cdf|38|1 1543,0,0,0,0,0,0,0,0,0,0,0,0,1,0,1544,
scooby_state_420cdf|46|1 1539,1,0,0,0,0,1,0,0,0,1,1,0,0,1,1544,
scooby_state_420c7c|21|1 1542,0,0,1,0,0,0,0,0,1,0,0,0,0,0,1544,
scooby_state_420cdf|59|1 1540,0,1,2,0,0,0,0,0,0,0,0,0,0,1,1544,
scooby_state_420cdf|19|1 1541,0,0,0,0,0,0,0,1,1,0,0,1,0,0,1544,
scooby_state_420cdf|20|1 1540,0,1,0,1,0,0,1,1,0,0,0,0,0,0,1544,
scooby_state_420c7c|5|1 1540,0,0,2,0,1,0,0,0,0,0,0,0,1,0,1544,
scooby_state_420cdf|4|1 1542,0,0,0,0,0,0,0,1,1,0,0,0,0,0,1544,
scooby_state_420c7c|30|1 1543,0,0,0,0,0,0,0,0,0,0,0,0,1,0,1544,
scooby_state_420cdf|6|1 1538,0,0,0,1,0,1,0,0,0,0,1,1,0,1,1543,
scooby_state_420c7c|2|1 1538,1,0,1,0,0,0,1,2,0,0,0,0,0,0,1543,
scooby_state_420cdf|23|1 1540,0,1,1,0,0,1,0,0,0,0,0,0,0,0,1543,
scooby_state_420cdf|43|1 1542,0,0,0,0,0,0,0,0,0,0,0,1,0,0,1543,
scooby_state_420cdf|7|1 1541,0,0,0,0,1,0,0,0,0,0,0,0,0,1,1543,
scooby_state_420cdf|9|1 1540,1,0,0,0,1,0,0,0,1,0,0,0,0,0,1543,
scooby_state_420c7c|10|1 1536,0,1,0,0,0,2,1,2,0,0,0,0,0,1,1543,
scooby_state_420cdf|18|1 1541,0,0,0,0,0,0,1,0,0,1,0,0,0,0,1543,
scooby_state_420cdf|10|1 1541,0,0,0,1,0,0,0,1,0,0,0,0,0,0,1543,
scooby_state_420cdf|3|1 1539,0,0,1,0,1,0,1,0,0,0,0,1,0,0,1543,
scooby_state_420cdf|52|1 1540,0,1,0,0,0,0,0,0,1,0,1,0,0,0,1543,
scooby_state_420cdf|51|1 1539,0,0,0,2,0,0,0,0,2,0,0,0,0,0,1543,
scooby_state_420c7c|13|1 1540,0,1,1,0,0,0,0,0,1,0,0,0,0,0,1543,
scooby_state_420cdf|11|1 1542,1,0,0,0,0,0,0,0,0,0,0,0,0,0,1543,
scooby_state_420cdf|35|1 1540,0,1,0,0,0,0,1,1,0,0,0,0,0,0,1543,
scooby_state_420cdf|62|1 1541,0,0,0,0,0,0,0,1,0,0,0,0,0,1,1543,
scooby_state_420cdf|63|1 1542,0,0,0,0,0,0,0,0,0,0,0,0,0,1,1543,
scooby_state_420cdf|47|1 1542,0,0,0,0,0,1,0,0,0,0,0,0,0,0,1543,
scooby_state_420cdf|12|1 1541,0,0,0,0,0,0,0,0,0,0,0,1,1,0,1543,
scooby_state_420cdf|27|1 1537,0,0,0,2,0,0,0,0,0,0,0,2,1,0,1542,
scooby_state_420cdf|41|1 1537,2,0,0,0,1,0,0,0,1,0,1,0,0,0,1542,
scooby_state_420cdf|57|1 1539,0,0,0,0,0,0,0,0,1,0,0,0,0,2,1542,
scooby_state_420cdf|22|1 1536,0,0,0,0,0,2,1,0,0,0,0,0,2,1,1542,
scooby_state_420cdf|17|1 1539,0,0,0,1,1,0,0,0,0,0,0,0,0,1,1542,
scooby_state_420cdf|44|1 1541,0,0,0,0,0,0,0,0,0,0,0,1,0,0,1542,
scooby_state_420cdf|42|1 1540,0,0,0,0,0,0,0,0,0,0,0,1,1,0,1542,
scooby_state_420cdf|31|1 1540,1,0,0,0,0,0,0,0,0,1,0,0,0,0,1542,
scooby_state_420cdf|54|1 1540,0,0,0,0,0,0,0,0,0,0,0,1,0,0,1541,
scooby_state_420cdf|5|1 1541,0,0,0,0,0,0,0,0,0,0,0,0,0,0,1541,
scooby_state_420cdf|48|1 1537,0,0,0,0,0,0,0,1,0,1,2,0,0,0,1541,
scooby_state_420cdf|13|1 1535,2,0,0,0,1,0,0,0,1,1,0,1,0,0,1541,
scooby_state_420cdf|30|1 1536,1,1,0,0,0,0,1,0,1,0,1,0,0,0,1541,
scooby_state_420cdf|34|1 1540,0,0,0,0,0,0,0,0,0,0,1,0,0,0,1541,
scooby_state_420cdf|49|1 1539,0,0,0,0,0,0,0,0,0,0,0,0,1,1,1541,
scooby_state_420cdf|26|1 1539,0,0,0,0,0,0,1,0,1,0,0,0,0,0,1541,
scooby_state_420cdf|8|1 1538,0,0,0,0,0,0,1,0,0,1,0,0,1,0,1541,
scooby_state_420cdf|58|1 1539,0,0,0,0,0,1,0,0,1,0,0,0,0,0,1541,
scooby_state_420cdf|24|1 1536,1,0,1,0,0,0,0,0,0,1,0,0,0,1,1540,
scooby_state_420cdf|50|1 1539,1,0,0,0,0,0,0,0,0,0,0,0,0,0,1540,
scooby_state_420cdf|53|1 1537,0,0,0,0,1,0,0,0,0,0,0,1,0,1,1540,
scooby_state_420cdf|37|1 1538,0,1,0,0,1,0,0,0,0,0,0,0,0,0,1540,
scooby_state_420cdf|25|1 1537,0,0,0,0,0,0,2,1,0,0,0,0,0,0,1540,
scooby_state_420cdf|60|1 1537,0,0,0,0,0,2,0,0,0,0,1,0,0,0,1540,
scooby_state_420cdf|33|1 1534,1,0,1,0,0,1,0,1,1,0,0,0,1,0,1540,
scooby_state_420cdf|2|1 1536,0,0,0,0,0,1,0,0,0,0,0,0,1,1,1539,
scooby_state_420cdf|16|1 1537,0,0,0,0,0,1,1,0,0,0,0,0,0,0,1539,
scooby_state_420cdf|55|1 1538,0,0,1,0,0,0,0,0,0,0,0,0,0,0,1539,
scooby_state_420cdf|45|1 1533,0,1,1,0,1,0,0,0,0,0,1,1,0,0,1538,
scooby_state_420cdf|40|1 1536,0,0,1,1,0,0,0,0,0,0,0,0,0,0,1538,
scooby_state_420cdf|21|1 1535,0,0,0,1,0,1,0,1,0,0,0,0,0,0,1538,
scooby_state_420cdf|61|1 1537,0,0,0,0,0,0,0,0,1,0,0,0,0,0,1538,
scooby_state_420cdf|29|1 1536,0,0,0,0,0,0,0,0,1,0,0,0,0,1,1538,
scooby_state_420cdf|56|1 1532,2,0,0,1,0,0,0,0,0,1,0,1,0,0,1537,
scooby_state_420cdf|32|1 1532,0,0,0,1,0,0,1,1,1,0,0,0,0,1,1537,
scooby_state_420c7c|63|1 1446,2,0,1,0,0,0,0,0,0,0,0,0,0,0,1449,
scooby_state_420c7c|39|1 1448,0,0,0,0,0,0,0,0,0,0,0,0,0,0,1448,
scooby_state_420c7c|44|1 1433,0,0,1,1,0,1,0,0,0,0,0,1,0,1,1438,
scooby_state_420c7c|57|1 1431,0,0,1,0,0,0,0,0,0,0,0,1,1,2,1436,
scooby_state_420c7c|60|1 1433,0,0,0,0,0,0,0,0,0,1,0,0,1,0,1435,
scooby_state_420c7c|59|1 1432,1,0,1,0,0,0,0,0,0,0,1,0,0,0,1435,
scooby_state_420c7c|42|1 1432,0,0,0,1,0,1,1,0,0,0,0,0,0,0,1435,
scooby_state_420c7c|35|1 1433,0,0,0,0,0,1,0,0,0,0,0,0,0,0,1434,
scooby_state_420c7c|61|1 1432,0,0,1,0,0,0,0,0,0,0,0,0,0,0,1433,
scooby_state_420c7c|40|1 1428,0,1,1,1,0,0,0,1,0,0,1,0,0,0,1433,
scooby_state_420c7c|58|1 1429,0,1,0,0,0,0,0,2,0,0,0,0,0,0,1432,
scooby_state_420c7c|38|1 1427,0,0,0,0,1,0,0,0,0,1,1,0,0,0,1430,
scooby_state_420c7c|37|1 1425,1,0,0,0,1,0,0,1,1,0,0,0,0,0,1429,
scooby_state_420c7c|43|1 1428,0,0,0,0,0,0,0,0,0,0,1,0,0,0,1429,
scooby_state_420c7c|36|1 1422,0,0,1,1,2,1,0,1,0,0,0,0,0,0,1428,
scooby_state_420c7c|62|1 1424,0,0,1,1,1,0,0,0,0,0,0,0,0,0,1427,
scooby_state_420c7c|34|1 1419,0,0,0,1,1,1,0,0,0,1,0,0,0,0,1423,
scooby_state_420c7c|41|1 1420,0,0,0,0,0,0,0,1,0,0,0,0,1,0,1422,
scooby_state_420d4c|44|1 1381,0,0,0,0,0,0,0,0,0,0,0,0,0,0,1381,
scooby_state_420d4c|42|1 1379,0,0,0,0,0,0,0,1,0,0,0,0,0,0,1380,
scooby_state_420d4c|39|1 1376,0,0,1,0,0,0,0,0,1,0,1,0,0,1,1380,
scooby_state_420d4c|43|1 1379,0,0,0,0,0,0,0,0,0,0,0,0,0,0,1379,
scooby_state_420d4c|41|1 1376,0,0,0,1,0,0,0,0,0,0,0,0,1,0,1378,
scooby_state_420d4c|38|1 1375,0,1,0,0,0,0,0,0,1,0,0,0,0,0,1377,
scooby_state_420d4c|60|1 1375,0,0,0,0,1,0,0,0,0,0,0,0,0,0,1376,
scooby_state_420d4c|61|1 1371,0,0,0,0,0,0,1,0,0,0,0,0,0,0,1372,
scooby_state_420d4c|57|1 1367,1,0,0,0,0,0,0,1,0,0,0,1,1,1,1372,
scooby_state_420d4c|37|1 1369,0,0,0,0,0,0,0,0,0,0,0,1,1,0,1371,
scooby_state_420d4c|40|1 1368,0,0,0,0,1,0,1,0,0,0,1,0,0,0,1371,
scooby_state_420d4c|59|1 1367,0,0,0,0,1,1,0,0,0,0,0,0,0,0,1369,
scooby_state_420d4c|63|1 1367,0,0,0,0,0,1,0,0,0,0,0,0,0,0,1368,
scooby_state_420d4c|35|1 1367,0,0,0,0,0,0,0,0,1,0,0,0,0,0,1368,
scooby_state_420d4c|62|1 1365,0,0,0,0,1,0,1,0,0,0,0,1,0,0,1368,
scooby_state_420d4c|58|1 1364,0,0,0,0,1,0,0,1,0,0,0,0,0,0,1366,
scooby_state_420d4c|34|1 1364,0,0,1,0,0,0,0,0,0,0,0,0,0,0,1365,
scooby_state_420d4c|36|1 1361,0,0,1,0,0,1,0,0,0,0,1,0,0,0,1364,
scooby_state_420c7c|56|1 1302,0,1,0,0,0,0,0,0,0,2,0,0,0,0,1305,
scooby_state_420c7c|46|1 1304,0,0,0,0,0,0,0,0,0,0,0,0,1,0,1305,
scooby_state_420c7c|50|1 1300,0,1,0,0,0,0,0,0,1,0,0,0,0,1,1303,
scooby_state_420c7c|53|1 1298,0,0,0,0,0,1,0,0,0,0,0,1,0,0,1300,
scooby_state_420c7c|51|1 1296,0,0,0,0,0,1,0,1,0,0,0,0,1,0,1299,
scooby_state_420c7c|49|1 1293,1,0,0,0,0,1,0,0,1,1,1,0,1,0,1299,
scooby_state_420c7c|55|1 1292,0,1,0,0,0,0,2,0,0,0,0,0,0,1,1296,
scooby_state_420c7c|52|1 1293,0,0,0,0,0,0,0,0,1,0,0,0,0,0,1294,
scooby_state_420c7c|45|1 1287,1,1,0,0,0,0,1,2,0,0,0,0,0,1,1293,
scooby_state_420c7c|54|1 1291,0,0,0,0,0,0,0,0,0,0,0,0,0,0,1291,
scooby_state_420d4c|49|1 1240,0,0,0,0,0,0,0,0,0,0,0,0,0,0,1240,
scooby_state_420d4c|50|1 1234,0,0,1,0,0,0,1,0,0,0,0,1,0,0,1237,
scooby_state_420d4c|56|1 1234,0,0,0,1,0,0,0,0,0,0,0,0,0,0,1235,
scooby_state_420d4c|45|1 1229,0,0,0,0,0,0,0,0,0,0,0,0,0,0,1229,
scooby_state_420d4c|53|1 1225,0,0,1,0,0,1,0,0,0,1,0,0,0,0,1228,
scooby_state_420d4c|55|1 1224,0,0,0,1,0,0,0,0,0,0,0,0,0,1,1226,
scooby_state_420d4c|52|1 1225,0,0,0,1,0,0,0,0,0,0,0,0,0,0,1226,
scooby_state_420d4c|54|1 1225,0,0,0,0,0,0,0,0,0,0,0,1,0,0,1226,
scooby_state_420d4c|51|1 1221,1,0,0,0,0,0,1,0,0,0,0,0,0,1,1224,
scooby_state_420d4c|46|1 1218,0,0,0,0,0,0,0,1,0,0,0,0,0,1,1220,
scooby_state_420c7c|48|1 1127,0,0,0,0,0,0,0,0,0,1,0,0,0,0,1128,
scooby_state_420c7c|47|1 1118,1,0,0,0,1,0,0,0,0,0,0,0,0,0,1120,
scooby_state_420d4c|48|1 1005,0,0,0,0,0,0,0,0,0,0,0,1,0,0,1006,
scooby_state_420d4c|47|1 995,0,0,0,1,0,0,0,0,0,0,0,0,0,0,996,
scooby_state_420c3d|42|1 791,0,0,0,0,0,0,0,0,0,0,0,0,0,0,791,
scooby_state_420dfd|43|1 791,0,0,0,0,0,0,0,0,0,0,0,0,0,0,791,
scooby_state_420dfd|42|1 789,0,1,0,0,0,0,0,1,0,0,0,0,0,0,791,
scooby_state_420d21|42|1 790,0,1,0,0,0,0,0,0,0,0,0,0,0,0,791,
scooby_state_420dfd|44|1 791,0,0,0,0,0,0,0,0,0,0,0,0,0,0,791,
scooby_state_420d21|44|1 790,0,0,0,0,0,0,0,0,0,0,0,0,0,1,791,
scooby_state_420c3d|44|1 790,0,0,0,0,0,0,0,0,0,0,1,0,0,0,791,
scooby_state_420c3d|43|1 791,0,0,0,0,0,0,0,0,0,0,0,0,0,0,791,
scooby_state_420d21|43|1 789,0,0,0,0,0,0,0,2,0,0,0,0,0,0,791,
scooby_state_420c3d|63|1 789,0,0,0,0,0,0,0,0,0,1,0,0,0,0,790,
scooby_state_420d21|51|1 788,0,0,0,1,0,0,0,0,0,0,0,1,0,0,790,
scooby_state_420dfd|45|1 789,0,1,0,0,0,0,0,0,0,0,0,0,0,0,790,
scooby_state_420dfd|54|1 790,0,0,0,0,0,0,0,0,0,0,0,0,0,0,790,
scooby_state_420c3d|16|1 787,0,0,0,0,0,0,0,0,2,0,0,1,0,0,790,
scooby_state_420c3d|56|1 787,0,0,0,0,0,0,0,0,0,0,0,2,1,0,790,
scooby_state_420dfd|50|1 789,0,1,0,0,0,0,0,0,0,0,0,0,0,0,790,
scooby_state_420dfd|0|0 789,0,0,0,0,1,0,0,0,0,0,0,0,0,0,790,
scooby_state_420dfd|62|1 788,0,0,0,1,0,0,0,1,0,0,0,0,0,0,790,
scooby_state_420c3d|62|1 787,1,0,0,0,1,0,1,0,0,0,0,0,0,0,790,
scooby_state_420c3d|49|1 788,0,0,0,0,0,0,0,0,1,0,0,1,0,0,790,
scooby_state_420dfd|57|1 790,0,0,0,0,0,0,0,0,0,0,0,0,0,0,790,
scooby_state_420d21|49|1 789,0,0,0,0,0,0,0,0,0,0,0,0,1,0,790,
scooby_state_420d21|55|1 788,1,0,0,0,0,0,0,0,0,0,0,0,1,0,790,
scooby_state_420dfd|60|1 788,0,0,0,0,0,0,1,0,0,0,0,0,0,1,790,
scooby_state_420dfd|18|1 789,0,0,1,0,0,0,0,0,0,0,0,0,0,0,790,
scooby_state_420d21|61|1 788,0,0,0,1,0,1,0,0,0,0,0,0,0,0,790,
scooby_state_420d21|47|1 789,0,0,0,0,0,0,0,0,0,1,0,0,0,0,790,
scooby_state_420dfd|52|1 789,0,0,0,0,0,0,0,0,0,0,0,0,1,0,790,
scooby_state_420d21|62|1 788,0,0,0,0,0,0,1,1,0,0,0,0,0,0,790,
scooby_state_420c3d|41|1 789,0,0,0,0,0,0,0,0,0,0,0,0,0,1,790,
scooby_state_420c3d|61|1 787,0,1,0,1,0,0,0,0,0,0,1,0,0,0,790,
scooby_state_420d21|45|1 790,0,0,0,0,0,0,0,0,0,0,0,0,0,0,790,
scooby_state_420c3d|52|1 789,0,0,0,0,0,0,1,0,0,0,0,0,0,0,790,
scooby_state_420c3d|55|1 789,0,0,0,0,0,1,0,0,0,0,0,0,0,0,790,
scooby_state_420c3d|19|1 788,0,0,0,0,0,1,0,0,0,0,0,0,0,1,790,
scooby_state_420dfd|48|1 789,0,0,0,0,1,0,0,0,0,0,0,0,0,0,790,
scooby_state_420d21|16|1 788,0,0,0,0,0,0,0,0,0,0,0,1,1,0,790,
scooby_state_420c3d|47|1 790,0,0,0,0,0,0,0,0,0,0,0,0,0,0,790,
scooby_state_420d21|48|1 789,0,0,0,0,0,0,1,0,0,0,0,0,0,0,790,
scooby_state_420d21|63|1 789,0,0,0,0,0,0,0,0,0,0,0,0,1,0,790,
scooby_state_420dfd|40|1 789,0,0,0,0,0,0,0,0,1,0,0,0,0,0,790,
scooby_state_420c3d|48|1 790,0,0,0,0,0,0,0,0,0,0,0,0,0,0,790,
scooby_state_420d21|50|1 790,0,0,0,0,0,0,0,0,0,0,0,0,0,0,790,
scooby_state_420dfd|61|1 789,0,0,0,0,0,1,0,0,0,0,0,0,0,0,790,
scooby_state_420c3d|0|0 787,0,1,0,0,0,1,0,0,0,0,0,0,0,1,790,
scooby_state_420c3d|18|1 787,2,0,0,1,0,0,0,0,0,0,0,0,0,0,790,
scooby_state_420c3d|20|1 789,0,0,0,0,0,0,0,0,0,0,0,1,0,0,790,
scooby_state_420d21|17|1 790,0,0,0,0,0,0,0,0,0,0,0,0,0,0,790,
scooby_state_420dfd|56|1 790,0,0,0,0,0,0,0,0,0,0,0,0,0,0,790,
scooby_state_420dfd|49|1 790,0,0,0,0,0,0,0,0,0,0,0,0,0,0,790,
scooby_state_420d21|56|1 790,0,0,0,0,0,0,0,0,0,0,0,0,0,0,790,
scooby_state_420d21|0|0 788,0,0,0,0,0,0,1,0,0,0,0,0,0,1,790,
scooby_state_420dfd|55|1 787,0,1,0,0,1,0,0,0,0,1,0,0,0,0,790,
scooby_state_420d21|60|1 790,0,0,0,0,0,0,0,0,0,0,0,0,0,0,790,
scooby_state_420dfd|20|1 790,0,0,0,0,0,0,0,0,0,0,0,0,0,0,790,
scooby_state_420c3d|17|1 788,0,1,0,0,0,0,0,0,0,0,1,0,0,0,790,
scooby_state_420d21|20|1 789,0,0,0,0,0,0,0,0,0,0,1,0,0,0,790,
scooby_state_420c3d|53|1 789,0,0,0,0,0,0,0,0,0,0,0,0,0,1,790,
scooby_state_420d21|57|1 790,0,0,0,0,0,0,0,0,0,0,0,0,0,0,790,
scooby_state_420dfd|51|1 790,0,0,0,0,0,0,0,0,0,0,0,0,0,0,790,
scooby_state_420dfd|17|1 786,1,0,0,2,0,0,0,0,0,0,1,0,0,0,790,
scooby_state_420d21|40|1 789,0,0,0,0,0,0,0,0,0,0,0,0,1,0,790,
scooby_state_420c3d|57|1 789,0,0,0,0,0,0,0,0,0,0,1,0,0,0,790,
scooby_state_420d21|18|1 788,0,0,0,0,0,0,1,0,0,1,0,0,0,0,790,
scooby_state_420d21|46|1 786,0,0,1,0,0,0,0,0,2,1,0,0,0,0,790,
scooby_state_420dfd|63|1 788,0,1,0,0,0,0,0,0,0,0,0,0,0,1,790,
scooby_state_420d21|19|1 790,0,0,0,0,0,0,0,0,0,0,0,0,0,0,790,
scooby_state_420c3d|60|1 790,0,0,0,0,0,0,0,0,0,0,0,0,0,0,790,
scooby_state_420c3d|50|1 789,0,0,1,0,0,0,0,0,0,0,0,0,0,0,790,
scooby_state_420c3d|54|1 790,0,0,0,0,0,0,0,0,0,0,0,0,0,0,790,
scooby_state_420c3d|40|1 788,0,1,0,0,0,0,0,0,0,1,0,0,0,0,790,
scooby_state_420dfd|41|1 789,0,0,0,0,0,0,0,1,0,0,0,0,0,0,790,
scooby_state_420dfd|47|1 788,0,0,0,0,0,0,0,0,2,0,0,0,0,0,790,
scooby_state_420d21|53|1 789,0,0,0,0,0,0,0,0,1,0,0,0,0,0,790,
scooby_state_420c3d|51|1 790,0,0,0,0,0,0,0,0,0,0,0,0,0,0,790,
scooby_state_420dfd|53|1 788,0,0,0,0,0,0,0,0,0,0,1,1,0,0,790,
scooby_state_420dfd|46|1 789,1,0,0,0,0,0,0,0,0,0,0,0,0,0,790,
scooby_state_420c3d|46|1 789,0,0,0,0,0,0,0,0,0,0,0,0,1,0,790,
scooby_state_420dfd|19|1 789,0,0,0,0,0,0,0,0,0,0,0,0,0,1,790,
scooby_state_420d21|54|1 789,0,1,0,0,0,0,0,0,0,0,0,0,0,0,790,
scooby_state_420dfd|16|1 789,0,0,0,0,0,0,0,0,0,0,0,1,0,0,790,
scooby_state_420d21|41|1 789,0,0,0,0,0,0,0,0,1,0,0,0,0,0,790,
scooby_state_420c3d|45|1 788,0,0,0,0,1,0,0,0,0,0,0,1,0,0,790,
scooby_state_420d21|52|1 789,0,0,1,0,0,0,0,0,0,0,0,0,0,0,790,
scooby_state_420dfd|3|1 788,0,0,0,0,0,0,0,0,0,0,0,1,0,0,789,
scooby_state_420dfd|2|1 786,0,1,0,0,0,0,0,0,2,0,0,0,0,0,789,
scooby_state_420d21|7|1 788,0,0,0,1,0,0,0,0,0,0,0,0,0,0,789,
scooby_state_420dfd|59|1 789,0,0,0,0,0,0,0,0,0,0,0,0,0,0,789,
scooby_state_420d21|13|1 788,0,0,0,0,0,0,0,0,1,0,0,0,0,0,789,
scooby_state_420d21|36|1 788,0,0,0,0,0,0,0,0,1,0,0,0,0,0,789,
scooby_state_420d21|1|1 785,1,0,0,2,0,0,0,1,0,0,0,0,0,0,789,
scooby_state_420dfd|1|1 787,1,0,0,0,0,0,0,1,0,0,0,0,0,0,789,
scooby_state_420d21|2|1 789,0,0,0,0,0,0,0,0,0,0,0,0,0,0,789,
scooby_state_420c3d|1|1 789,0,0,0,0,0,0,0,0,0,0,0,0,0,0,789,
scooby_state_420c3d|59|1 788,0,0,0,0,1,0,0,0,0,0,0,0,0,0,789,
scooby_state_420c3d|24|1 789,0,0,0,0,0,0,0,0,0,0,0,0,0,0,789,
scooby_state_420c3d|7|1 789,0,0,0,0,0,0,0,0,0,0,0,0,0,0,789,
scooby_state_420d21|5|1 788,0,0,0,0,0,0,0,0,0,1,0,0,0,0,789,
scooby_state_420dfd|6|1 788,0,0,0,0,0,0,0,0,1,0,0,0,0,0,789,
scooby_state_420c3d|14|1 789,0,0,0,0,0,0,0,0,0,0,0,0,0,0,789,
scooby_state_420d21|59|1 785,0,1,0,2,0,0,1,0,0,0,0,0,0,0,789,
scooby_state_420c3d|23|1 789,0,0,0,0,0,0,0,0,0,0,0,0,0,0,789,
scooby_state_420dfd|39|1 788,0,0,0,0,0,0,1,0,0,0,0,0,0,0,789,
scooby_state_420d21|3|1 789,0,0,0,0,0,0,0,0,0,0,0,0,0,0,789,
scooby_state_420d21|23|1 789,0,0,0,0,0,0,0,0,0,0,0,0,0,0,789,
scooby_state_420dfd|21|1 788,0,0,0,0,0,0,0,1,0,0,0,0,0,0,789,
scooby_state_420dfd|23|1 785,0,0,0,0,1,0,0,1,0,0,0,2,0,0,789,
scooby_state_420d21|38|1 787,1,0,0,0,1,0,0,0,0,0,0,0,0,0,789,
scooby_state_420d21|22|1 788,0,1,0,0,0,0,0,0,0,0,0,0,0,0,789,
scooby_state_420c3d|38|1 787,0,0,0,0,0,0,0,0,0,1,1,0,0,0,789,
scooby_state_420dfd|8|1 785,0,0,0,0,0,2,0,0,0,1,0,0,1,0,789,
scooby_state_420dfd|24|1 787,0,0,0,0,1,0,0,0,0,0,0,1,0,0,789,
scooby_state_420dfd|14|1 788,0,0,1,0,0,0,0,0,0,0,0,0,0,0,789,
scooby_state_420dfd|36|1 788,0,0,0,0,0,0,0,0,0,1,0,0,0,0,789,
scooby_state_420c3d|3|1 788,0,0,0,1,0,0,0,0,0,0,0,0,0,0,789,
scooby_state_420dfd|13|1 788,0,0,0,0,0,0,0,0,0,0,0,1,0,0,789,
scooby_state_420c3d|37|1 788,0,1,0,0,0,0,0,0,0,0,0,0,0,0,789,
scooby_state_420c3d|39|1 787,0,1,0,0,0,0,0,0,0,0,0,0,0,1,789,
scooby_state_420c3d|12|1 789,0,0,0,0,0,0,0,0,0,0,0,0,0,0,789,
scooby_state_420c3d|9|1 785,0,1,1,0,0,0,0,1,0,0,0,1,0,0,789,
scooby_state_420dfd|9|1 788,0,0,0,0,0,0,0,0,0,0,1,0,0,0,789,
scooby_state_420dfd|11|1 788,0,0,1,0,0,0,0,0,0,0,0,0,0,0,789,
scooby_state_420dfd|5|1 785,1,1,0,1,0,0,0,0,0,1,0,0,0,0,789,
scooby_state_420c3d|11|1 788,0,0,0,0,0,0,0,0,0,0,0,0,1,0,789,
scooby_state_420d21|21|1 789,0,0,0,0,0,0,0,0,0,0,0,0,0,0,789,
scooby_state_420c3d|22|1 788,0,0,0,1,0,0,0,0,0,0,0,0,0,0,789,
scooby_state_420d21|12|1 788,0,0,0,0,0,1,0,0,0,0,0,0,0,0,789,
scooby_state_420d21|8|1 789,0,0,0,0,0,0,0,0,0,0,0,0,0,0,789,
scooby_state_420c3d|4|1 789,0,0,0,0,0,0,0,0,0,0,0,0,0,0,789,
scooby_state_420d21|4|1 788,0,1,0,0,0,0,0,0,0,0,0,0,0,0,789,
scooby_state_420d21|11|1 787,0,0,0,0,0,1,0,0,0,0,0,1,0,0,789,
scooby_state_420c3d|5|1 787,2,0,0,0,0,0,0,0,0,0,0,0,0,0,789,
scooby_state_420dfd|4|1 789,0,0,0,0,0,0,0,0,0,0,0,0,0,0,789,
scooby_state_420dfd|12|1 787,0,0,0,1,0,0,0,0,0,0,1,0,0,0,789,
scooby_state_420c3d|2|1 789,0,0,0,0,0,0,0,0,0,0,0,0,0,0,789,
scooby_state_420c3d|8|1 788,0,0,0,0,0,0,0,0,0,0,1,0,0,0,789,
scooby_state_420dfd|15|1 788,0,0,0,0,0,1,0,0,0,0,0,0,0,0,789,
scooby_state_420d21|10|1 787,0,0,0,2,0,0,0,0,0,0,0,0,0,0,789,
scooby_state_420d21|24|1 788,0,0,0,0,0,0,0,0,1,0,0,0,0,0,789,
scooby_state_420d21|15|1 788,0,0,0,0,0,0,0,0,1,0,0,0,0,0,789,
scooby_state_420c3d|13|1 787,0,0,0,1,0,0,0,0,0,0,0,0,1,0,789,
scooby_state_420c3d|58|1 787,1,0,0,0,0,0,1,0,0,0,0,0,0,0,789,
scooby_state_420c3d|15|1 784,0,0,0,2,0,2,0,0,0,0,0,1,0,0,789,
scooby_state_420dfd|22|1 788,0,1,0,0,0,0,0,0,0,0,0,0,0,0,789,
scooby_state_420d21|14|1 789,0,0,0,0,0,0,0,0,0,0,0,0,0,0,789,
scooby_state_420dfd|38|1 787,0,0,1,0,0,0,0,0,1,0,0,0,0,0,789,
scooby_state_420c3d|6|1 789,0,0,0,0,0,0,0,0,0,0,0,0,0,0,789,
scooby_state_420dfd|37|1 787,0,0,0,1,0,0,0,0,0,0,0,1,0,0,789,
scooby_state_420c3d|36|1 788,0,0,0,0,0,0,0,0,1,0,0,0,0,0,789,
scooby_state_420d21|37|1 787,0,0,0,0,0,0,1,0,1,0,0,0,0,0,789,
scooby_state_420d21|9|1 786,0,0,2,0,1,0,0,0,0,0,0,0,0,0,789,
scooby_state_420c3d|10|1 789,0,0,0,0,0,0,0,0,0,0,0,0,0,0,789,
scooby_state_420d21|58|1 789,0,0,0,0,0,0,0,0,0,0,0,0,0,0,789,
scooby_state_420dfd|7|1 788,0,0,0,0,1,0,0,0,0,0,0,0,0,0,789,
scooby_state_420dfd|58|1 789,0,0,0,0,0,0,0,0,0,0,0,0,0,0,789,
scooby_state_420d21|6|1 787,0,0,0,0,1,0,0,0,0,0,0,1,0,0,789,
scooby_state_420d21|39|1 789,0,0,0,0,0,0,0,0,0,0,0,0,0,0,789,
scooby_state_420dfd|10|1 789,0,0,0,0,0,0,0,0,0,0,0,0,0,0,789,
scooby_state_420c3d|21|1 787,1,0,0,0,0,0,0,0,0,0,0,0,0,1,789,
scooby_state_420c3d|28|1 787,0,0,0,0,0,0,0,1,0,0,0,0,0,0,788,
scooby_state_420d21|35|1 786,0,0,0,0,0,0,0,0,0,0,2,0,0,0,788,
scooby_state_420dfd|27|1 788,0,0,0,0,0,0,0,0,0,0,0,0,0,0,788,
scooby_state_420c3d|31|1 788,0,0,0,0,0,0,0,0,0,0,0,0,0,0,788,
scooby_state_420d21|33|1 786,1,0,1,0,0,0,0,0,0,0,0,0,0,0,788,
scooby_state_420d21|30|1 785,1,0,1,1,0,0,0,0,0,0,0,0,0,0,788,
scooby_state_420d21|29|1 785,0,0,1,0,0,0,0,1,0,0,1,0,0,0,788,
scooby_state_420c3d|29|1 787,0,0,0,0,0,0,0,1,0,0,0,0,0,0,788,
scooby_state_420c3d|25|1 788,0,0,0,0,0,0,0,0,0,0,0,0,0,0,788,
scooby_state_420c3d|30|1 785,0,1,0,0,0,0,0,1,1,0,0,0,0,0,788,
scooby_state_420dfd|30|1 786,1,0,0,0,0,1,0,0,0,0,0,0,0,0,788,
scooby_state_420dfd|28|1 787,0,0,0,0,0,0,0,0,1,0,0,0,0,0,788,
scooby_state_420c3d|33|1 788,0,0,0,0,0,0,0,0,0,0,0,0,0,0,788,
scooby_state_420d21|28|1 786,0,0,0,1,0,1,0,0,0,0,0,0,0,0,788,
scooby_state_420d21|25|1 785,0,1,0,0,0,0,0,0,1,0,0,0,1,0,788,
scooby_state_420dfd|34|1 786,0,0,0,1,0,1,0,0,0,0,0,0,0,0,788,
scooby_state_420d21|26|1 786,0,0,0,0,0,1,1,0,0,0,0,0,0,0,788,
scooby_state_420dfd|26|1 785,0,0,0,1,1,0,0,0,0,0,1,0,0,0,788,
scooby_state_420d21|32|1 788,0,0,0,0,0,0,0,0,0,0,0,0,0,0,788,
scooby_state_420dfd|31|1 788,0,0,0,0,0,0,0,0,0,0,0,0,0,0,788,
scooby_state_420dfd|35|1 784,0,0,0,0,0,1,1,0,0,0,0,0,1,1,788,
scooby_state_420d21|34|1 787,0,0,0,0,0,1,0,0,0,0,0,0,0,0,788,
scooby_state_420c3d|34|1 788,0,0,0,0,0,0,0,0,0,0,0,0,0,0,788,
scooby_state_420c3d|26|1 788,0,0,0,0,0,0,0,0,0,0,0,0,0,0,788,
scooby_state_420c3d|32|1 787,0,0,0,0,0,0,0,0,1,0,0,0,0,0,788,
scooby_state_420c3d|27|1 786,0,0,0,0,0,0,0,0,0,0,1,0,0,1,788,
scooby_state_420dfd|33|1 786,1,0,0,0,0,0,0,0,0,1,0,0,0,0,788,
scooby_state_420dfd|29|1 787,0,0,1,0,0,0,0,0,0,0,0,0,0,0,788,
scooby_state_420d21|27|1 784,1,2,0,0,0,0,0,0,0,0,0,1,0,0,788,
scooby_state_420dfd|32|1 786,0,1,0,0,1,0,0,0,0,0,0,0,0,0,788,
scooby_state_420c3d|35|1 785,0,0,0,0,0,1,0,1,0,0,0,0,1,0,788,
scooby_state_420dfd|25|1 787,0,0,0,0,0,0,1,0,0,0,0,0,0,0,788,
scooby_state_420d21|31|1 788,0,0,0,0,0,0,0,0,0,0,0,0,0,0,788,
scooby_state_420e7e|13|-33 574,0,0,0,0,0,0,0,0,0,0,0,0,0,0,574,
scooby_state_420e7e|14|-33 564,0,0,0,0,0,0,1,0,0,0,0,0,0,0,565,
scooby_state_420d4c|47|34 557,0,0,0,0,0,0,0,0,0,0,0,0,0,0,557,
scooby_state_420d4c|48|34 544,0,0,0,0,0,0,0,1,0,0,0,0,1,0,546,
scooby_state_420f47|16|2 525,0,0,0,1,0,0,1,1,0,0,0,0,0,0,528,
scooby_state_420f21|14|-1 518,0,0,0,0,0,0,1,0,0,0,0,0,0,0,519,
scooby_state_420f58|17|1 510,0,0,0,0,0,0,0,0,1,0,0,0,1,0,512,
scooby_state_420f77|13|-4 476,1,0,0,0,0,0,0,0,0,0,0,0,0,0,477,
scooby_state_421036|18|5 456,0,0,0,0,0,1,0,0,0,0,0,0,0,0,457,
scooby_state_4211ce|15|-3 450,0,0,0,0,1,0,0,0,0,0,0,0,0,0,451,
scooby_state_420c8a|13|-33 441,0,0,0,0,0,0,0,0,0,0,0,0,0,0,441,
scooby_state_420c7c|47|34 437,0,0,0,0,0,0,0,0,0,0,0,0,0,0,437,
scooby_state_420c8a|14|-33 433,0,0,0,0,1,0,0,0,0,1,0,1,0,0,436,
scooby_state_420c7c|48|34 433,0,0,0,0,0,0,0,0,0,0,0,0,0,0,433,
scooby_state_420e7e|17|-33 338,0,0,0,0,0,0,0,0,0,0,0,0,0,0,338,
scooby_state_420e7e|12|-33 336,0,0,1,0,0,0,0,0,0,0,0,0,0,0,337,
scooby_state_420e7e|11|-33 337,0,0,0,0,0,0,0,0,0,0,0,0,0,0,337,
scooby_state_420e7e|21|-33 333,0,0,0,0,0,0,1,0,0,0,0,0,0,0,334,
scooby_state_420e7e|18|-33 333,0,0,0,0,0,0,0,0,0,0,0,0,0,0,333,
scooby_state_420d4c|46|34 333,0,0,0,0,0,0,0,0,0,0,0,0,0,0,333,
scooby_state_420e7e|20|-33 328,0,0,0,0,0,0,0,0,0,1,0,1,0,0,330,
scooby_state_420e7e|22|-33 329,0,0,0,0,0,0,0,0,0,0,0,0,0,0,329,
scooby_state_420f77|13|-1 328,0,0,0,0,0,0,0,0,0,0,0,0,0,0,328,
scooby_state_420d4c|51|34 328,0,0,0,0,0,0,0,0,0,0,0,0,0,0,328,
scooby_state_420d4c|55|34 327,0,0,0,0,0,0,0,0,0,0,0,0,0,0,327,
scooby_state_420e7e|19|-33 326,0,0,0,0,0,0,0,0,0,0,0,0,0,0,326,
scooby_state_420e7e|16|-33 326,0,0,0,0,0,0,0,0,0,0,0,0,0,0,326,
scooby_state_420d4c|52|34 325,0,0,0,0,0,0,0,0,0,0,0,0,0,0,325,
scooby_state_420d4c|54|34 324,0,0,0,0,1,0,0,0,0,0,0,0,0,0,325,
scooby_state_420d4c|53|34 324,0,0,0,0,0,0,0,0,0,0,0,0,0,0,324,
scooby_state_420d4c|45|34 324,0,0,0,0,0,0,0,0,0,0,0,0,0,0,324,
scooby_state_420e7e|15|-33 322,0,0,0,0,0,0,1,0,0,0,0,0,0,1,324,
scooby_state_420d4c|56|34 316,0,0,0,0,0,0,0,0,1,0,0,0,0,0,317,
scooby_state_420d4c|50|34 315,0,0,0,0,0,0,0,0,0,0,0,0,0,0,315,
scooby_state_420d4c|49|34 313,0,0,0,0,0,0,0,0,0,0,0,0,0,0,313,
scooby_state_420e7e|54|1 296,0,0,0,0,0,0,0,0,0,0,0,0,1,0,297,
scooby_state_420c8a|21|-33 260,0,0,0,0,0,0,0,0,0,0,1,0,0,0,261,
scooby_state_420c7c|45|34 261,0,0,0,0,0,0,0,0,0,0,0,0,0,0,261,
scooby_state_420c8a|18|-33 259,1,0,0,0,0,0,0,0,0,0,0,0,0,0,260,
scooby_state_420c8a|11|-33 259,0,0,0,0,0,0,0,0,0,0,0,0,0,0,259,
scooby_state_420c8a|20|-33 258,0,0,0,0,0,0,0,0,0,0,0,0,0,0,258,
scooby_state_420c7c|54|34 257,0,0,0,0,0,0,0,0,0,0,0,0,0,0,257,
scooby_state_420c7c|51|34 256,0,0,0,0,0,0,0,0,0,0,0,0,0,0,256,
scooby_state_420f21|14|1 256,0,0,0,0,0,0,0,0,0,0,0,0,0,0,256,
scooby_state_420c7c|55|34 256,0,0,0,0,0,0,0,0,0,0,0,0,0,0,256,
scooby_state_420c7c|52|34 254,0,0,0,0,1,0,0,0,0,0,0,0,0,0,255,
scooby_state_420c8a|15|-33 254,0,0,0,1,0,0,0,0,0,0,0,0,0,0,255,
scooby_state_420c8a|17|-33 254,0,0,0,0,0,0,0,0,0,0,0,0,0,0,254,
scooby_state_420c7c|53|34 252,0,0,0,0,0,0,0,0,0,0,0,0,0,0,252,
scooby_state_420c8a|22|-33 252,0,0,0,0,0,0,0,0,0,0,0,0,0,0,252,
scooby_state_420c8a|19|-33 250,0,0,0,0,0,0,0,0,0,0,0,0,0,0,250,
scooby_state_420c8a|16|-33 249,0,0,0,0,0,0,0,0,0,0,0,0,0,0,249,
scooby_state_420c7c|56|34 248,0,0,1,0,0,0,0,0,0,0,0,0,0,0,249,
scooby_state_420c8a|12|-33 248,0,0,0,0,0,0,0,0,1,0,0,0,0,0,249,
scooby_state_420c7c|49|34 246,0,0,0,0,0,0,0,1,0,0,0,0,1,0,248,
scooby_state_420c7c|50|34 246,0,0,0,0,0,1,0,0,0,0,0,0,0,0,247,
scooby_state_420c7c|46|34 244,0,0,0,0,0,0,0,0,0,0,0,0,0,0,244,
scooby_state_420c8a|54|1 222,0,0,0,0,0,0,0,0,0,0,0,0,0,0,222,
scooby_state_420e7e|0|-33 194,0,0,0,0,0,0,0,0,0,0,0,0,0,0,194,
scooby_state_420e7e|2|-33 194,0,0,0,0,0,0,0,0,0,0,0,0,0,0,194,
scooby_state_420e7e|24|-33 192,0,0,0,0,0,0,0,0,0,0,0,0,0,0,192,
scooby_state_420e7e|28|-33 191,0,0,0,0,0,0,0,0,0,0,0,0,0,0,191,
scooby_state_420e7e|6|-33 189,0,0,0,0,0,0,0,1,0,0,0,0,0,0,190,
scooby_state_420e7e|29|-33 189,0,0,0,0,0,0,0,0,0,0,0,0,0,0,189,
scooby_state_420e7e|1|-33 189,0,0,0,0,0,0,0,0,0,0,0,0,0,0,189,
scooby_state_420d4c|36|34 188,0,0,0,0,0,0,0,0,0,0,0,0,0,0,188,
scooby_state_420e7e|30|-33 188,0,0,0,0,0,0,0,0,0,0,0,0,0,0,188,
scooby_state_420d4c|58|34 187,0,0,0,0,0,0,0,0,0,0,0,0,0,0,187,
scooby_state_420d4c|34|34 187,0,0,0,0,0,0,0,0,0,0,0,0,0,0,187,
scooby_state_420d4c|62|34 187,0,0,0,0,0,0,0,0,0,0,0,0,0,0,187,
scooby_state_420e7e|3|-33 186,0,0,0,0,0,0,0,0,0,0,0,0,0,0,186,
scooby_state_420d4c|63|34 185,0,0,0,0,0,0,0,0,0,0,1,0,0,0,186,
scooby_state_420e7e|23|-33 185,0,0,0,0,0,0,0,0,0,0,0,0,0,0,185,
scooby_state_420e7e|10|-33 184,0,0,0,0,0,0,0,0,0,0,0,0,0,0,184,
scooby_state_420d4c|35|34 184,0,0,0,0,0,0,0,0,0,0,0,0,0,0,184,
scooby_state_420e7e|27|-33 183,0,0,0,0,0,0,0,0,0,0,0,0,0,0,183,
scooby_state_420d4c|40|34 182,0,1,0,0,0,0,0,0,0,0,0,0,0,0,183,
scooby_state_420e7e|25|-33 183,0,0,0,0,0,0,0,0,0,0,0,0,0,0,183,
scooby_state_420e7e|53|1 182,0,0,0,0,0,0,0,0,0,0,0,0,0,0,182,
scooby_state_420e7e|26|-33 182,0,0,0,0,0,0,0,0,0,0,0,0,0,0,182,
scooby_state_420d4c|59|34 181,1,0,0,0,0,0,0,0,0,0,0,0,0,0,182,
scooby_state_420d4c|37|34 180,0,0,0,0,0,0,0,0,0,0,0,1,0,0,181,
scooby_state_420e7e|9|-33 180,0,0,0,0,0,0,0,0,0,0,0,0,0,0,180,
scooby_state_420d4c|61|34 180,0,0,0,0,0,0,0,0,0,0,0,0,0,0,180,
scooby_state_420e7e|4|-33 179,0,0,1,0,0,0,0,0,0,0,0,0,0,0,180,
scooby_state_420e7e|8|-33 180,0,0,0,0,0,0,0,0,0,0,0,0,0,0,180,
scooby_state_420d4c|57|34 177,0,1,0,0,0,1,0,0,0,0,0,0,0,0,179,
scooby_state_4211ce|15|2 0,177,1,0,0,0,0,0,0,0,0,0,0,0,0,178,
scooby_state_420e7e|5|-33 177,0,0,0,0,0,0,0,0,0,0,0,0,0,0,177,
scooby_state_420d4c|60|34 176,0,0,0,0,0,0,0,0,0,0,0,0,0,0,176,
scooby_state_420e7e|7|-33 176,0,0,0,0,0,0,0,0,0,0,0,0,0,0,176,
scooby_state_420e7e|60|1 174,1,0,0,0,0,0,0,0,0,0,0,0,0,0,175,
scooby_state_420d4c|38|34 175,0,0,0,0,0,0,0,0,0,0,0,0,0,0,175,
scooby_state_420d4c|41|34 174,0,0,0,0,0,0,0,0,0,0,0,0,0,0,174,
scooby_state_420d4c|43|34 173,0,0,0,0,0,0,0,0,0,0,0,0,0,0,173,
scooby_state_420d4c|44|34 172,0,0,0,0,0,0,0,0,0,0,0,0,0,0,172,
scooby_state_420d4c|42|34 172,0,0,0,0,0,0,0,0,0,0,0,0,0,0,172,
scooby_state_420d4c|39|34 172,0,0,0,0,0,0,0,0,0,0,0,0,0,0,172,
scooby_state_420e7e|55|1 167,0,0,0,0,0,0,0,0,0,0,0,0,0,0,167,
scooby_state_420e7e|31|1 165,0,0,0,0,0,0,0,0,0,0,0,0,0,0,165,
scooby_state_420e7e|36|1 163,0,0,0,0,0,0,0,0,0,0,0,0,0,0,163,
scooby_state_420e7e|32|1 163,0,0,0,0,0,0,0,0,0,0,0,0,0,0,163,
scooby_state_420e7e|46|1 163,0,0,0,0,0,0,0,0,0,0,0,0,0,0,163,
scooby_state_420e7e|59|1 162,0,0,0,0,0,0,0,0,0,0,0,0,0,0,162,
scooby_state_420e7e|40|1 161,0,0,0,0,0,0,0,0,0,0,1,0,0,0,162,
scooby_state_420e7e|42|1 161,0,0,0,0,0,0,1,0,0,0,0,0,0,0,162,
scooby_state_420e7e|41|1 161,0,0,0,0,0,0,0,0,0,0,0,0,0,0,161,
scooby_state_420e7e|63|1 160,0,0,0,0,0,0,0,0,0,0,0,0,0,0,160,
scooby_state_420e7e|52|1 159,0,0,0,0,0,0,0,0,0,0,0,0,0,0,159,
scooby_state_420e7e|43|1 158,0,0,0,0,0,0,0,0,0,0,0,0,0,0,158,
scooby_state_420e7e|47|1 156,0,0,0,0,0,0,0,0,0,0,0,0,0,0,156,
scooby_state_420e7e|33|1 155,0,0,0,0,0,0,1,0,0,0,0,0,0,0,156,
scooby_state_420e7e|37|1 155,0,0,0,0,0,0,0,0,0,0,0,0,0,0,155,
scooby_state_420e7e|44|1 155,0,0,0,0,0,0,0,0,0,0,0,0,0,0,155,
scooby_state_420e7e|38|1 153,0,0,0,0,0,0,0,1,0,1,0,0,0,0,155,
scooby_state_420e7e|39|1 154,0,0,0,0,0,0,0,0,0,0,0,0,0,0,154,
scooby_state_420e7e|56|1 154,0,0,0,0,0,0,0,0,0,0,0,0,0,0,154,
scooby_state_420e7e|34|1 153,0,0,0,0,0,0,0,0,0,0,0,0,0,0,153,
scooby_state_420e7e|58|1 152,0,0,0,0,0,0,0,0,0,0,0,0,0,0,152,
scooby_state_420e7e|61|1 152,0,0,0,0,0,0,0,0,0,0,0,0,0,0,152,
scooby_state_420e7e|62|1 152,0,0,0,0,0,0,0,0,0,0,0,0,0,0,152,
scooby_state_420e7e|35|1 151,0,0,0,0,0,0,0,0,0,0,0,0,0,0,151,
scooby_state_420e7e|49|1 150,0,0,0,1,0,0,0,0,0,0,0,0,0,0,151,
scooby_state_420e7e|45|1 151,0,0,0,0,0,0,0,0,0,0,0,0,0,0,151,
scooby_state_420e7e|48|1 150,0,0,0,0,0,0,0,0,0,0,0,0,0,0,150,
scooby_state_420e7e|57|1 150,0,0,0,0,0,0,0,0,0,0,0,0,0,0,150,
scooby_state_420e7e|51|1 150,0,0,0,0,0,0,0,0,0,0,0,0,0,0,150,
scooby_state_420d00|14|0 150,0,0,0,0,0,0,0,0,0,0,0,0,0,0,150,
scooby_state_420e7e|50|1 149,0,0,0,0,0,1,0,0,0,0,0,0,0,0,150,
scooby_state_420f21|14|-4 126,0,0,0,0,0,0,0,0,0,0,0,0,0,0,126,
scooby_state_420c8a|0|-33 126,0,0,0,0,0,0,0,0,0,0,0,0,0,0,126,
scooby_state_420c8a|7|-33 124,0,0,0,0,0,0,0,0,0,0,0,0,0,0,124,
scooby_state_420c7c|34|34 124,0,0,0,0,0,0,0,0,0,0,0,0,0,0,124,
scooby_state_420c8a|2|-33 123,0,0,0,0,0,0,0,0,0,0,0,0,0,0,123,
scooby_state_420c7c|36|34 123,0,0,0,0,0,0,0,0,0,0,0,0,0,0,123,
scooby_state_420c7c|43|34 122,0,0,0,0,0,0,0,0,0,0,0,0,0,0,122,
scooby_state_420c7c|41|34 121,0,0,0,0,0,0,0,0,0,0,0,0,0,0,121,
scooby_state_420c8a|1|-33 121,0,0,0,0,0,0,0,0,0,0,0,0,0,0,121,
scooby_state_420c8a|9|-33 121,0,0,0,0,0,0,0,0,0,0,0,0,0,0,121,
scooby_state_420c7c|62|34 120,0,1,0,0,0,0,0,0,0,0,0,0,0,0,121,
scooby_state_420c8a|28|-33 120,0,0,0,0,0,0,0,0,0,0,0,0,0,0,120,
scooby_state_420c8a|6|-33 120,0,0,0,0,0,0,0,0,0,0,0,0,0,0,120,
scooby_state_420c8a|24|-33 119,0,1,0,0,0,0,0,0,0,0,0,0,0,0,120,
scooby_state_420c7c|58|34 120,0,0,0,0,0,0,0,0,0,0,0,0,0,0,120,
scooby_state_420c8a|62|1 119,0,0,0,0,0,0,0,0,0,0,0,0,0,0,119,
scooby_state_420c8a|3|-33 118,0,0,0,0,0,0,0,0,0,0,0,0,0,0,118,
scooby_state_420c7c|59|34 117,0,0,0,0,0,0,1,0,0,0,0,0,0,0,118,
scooby_state_420c7c|40|34 118,0,0,0,0,0,0,0,0,0,0,0,0,0,0,118,
scooby_state_420c8a|26|-33 117,0,0,0,0,0,0,0,0,0,0,0,0,0,0,117,
scooby_state_421036|18|1 0,46,2,2,2,2,2,3,2,2,2,27,6,3,16,117,
scooby_state_420c7c|61|34 116,0,0,0,0,0,0,0,0,0,0,0,0,0,0,116,
scooby_state_420c8a|27|-33 116,0,0,0,0,0,0,0,0,0,0,0,0,0,0,116,
scooby_state_420c7c|60|34 116,0,0,0,0,0,0,0,0,0,0,0,0,0,0,116,
scooby_state_420c8a|10|-33 116,0,0,0,0,0,0,0,0,0,0,0,0,0,0,116,
scooby_state_420c7c|35|34 116,0,0,0,0,0,0,0,0,0,0,0,0,0,0,116,
scooby_state_420c7c|37|34 115,0,1,0,0,0,0,0,0,0,0,0,0,0,0,116,
scooby_state_420c8a|4|-33 115,0,0,0,0,0,0,0,0,0,0,0,0,0,0,115,
scooby_state_420c8a|23|-33 115,0,0,0,0,0,0,0,0,0,0,0,0,0,0,115,
scooby_state_420c8a|25|-33 115,0,0,0,0,0,0,0,0,0,0,0,0,0,0,115,
scooby_state_420dd2|54|0 114,0,0,0,0,0,0,0,0,0,0,0,0,0,0,114,
scooby_state_420c7c|44|34 114,0,0,0,0,0,0,0,0,0,0,0,0,0,0,114,
scooby_state_420c7c|42|34 113,0,0,0,0,0,0,0,0,0,0,0,0,0,0,113,
scooby_state_420c8a|53|1 113,0,0,0,0,0,0,0,0,0,0,0,0,0,0,113,
scooby_state_420c7c|38|34 111,0,0,0,0,0,0,0,0,0,0,0,0,1,0,112,
scooby_state_420c8a|8|-33 111,0,0,0,0,0,0,0,0,0,0,0,0,0,0,111,
scooby_state_420c7c|57|34 111,0,0,0,0,0,0,0,0,0,0,0,0,0,0,111,
scooby_state_420c8a|63|1 110,0,0,0,0,0,0,0,0,0,0,0,0,0,0,110,
scooby_state_420c8a|37|1 109,0,0,0,0,0,0,0,0,0,0,0,0,0,0,109,
scooby_state_420c8a|60|1 108,0,0,0,0,0,0,0,0,0,0,0,0,0,0,108,
scooby_state_420c8a|35|1 108,0,0,0,0,0,0,0,0,0,0,0,0,0,0,108,
scooby_state_420c8a|61|1 108,0,0,0,0,0,0,0,0,0,0,0,0,0,0,108,
scooby_state_420c8a|55|1 107,0,0,0,0,0,0,0,0,0,0,0,0,0,0,107,
scooby_state_420c8a|43|1 107,0,0,0,0,0,0,0,0,0,0,0,0,0,0,107,
scooby_state_420c8a|29|-33 107,0,0,0,0,0,0,0,0,0,0,0,0,0,0,107,
scooby_state_420c8a|30|-33 106,0,0,0,0,0,0,0,0,0,0,0,0,0,0,106,
scooby_state_420e7e|53|-10 106,0,0,0,0,0,0,0,0,0,0,0,0,0,0,106,
scooby_state_420c8a|36|1 105,0,0,0,0,0,0,0,0,0,0,0,0,0,0,105,
scooby_state_420c8a|38|1 104,0,0,0,0,0,0,0,0,0,0,0,0,0,0,104,
scooby_state_420c8a|42|1 103,0,0,0,0,0,0,0,0,0,0,0,0,0,0,103,
scooby_state_420c8a|59|1 103,0,0,0,0,0,0,0,0,0,0,0,0,0,0,103,
scooby_state_420c8a|5|-33 102,0,0,0,0,0,0,0,0,0,0,0,0,0,0,102,
scooby_state_420c7c|63|34 102,0,0,0,0,0,0,0,0,0,0,0,0,0,0,102,
scooby_state_420c8a|45|1 102,0,0,0,0,0,0,0,0,0,0,0,0,0,0,102,
scooby_state_420c7c|39|34 102,0,0,0,0,0,0,0,0,0,0,0,0,0,0,102,
scooby_state_420c8a|40|1 101,0,0,0,0,0,0,0,0,0,0,0,0,0,0,101,
scooby_state_420c8a|56|1 100,0,0,0,0,0,0,0,0,0,0,0,0,0,0,100,
scooby_state_420c8a|50|1 100,0,0,0,0,0,0,0,0,0,0,0,0,0,0,100,
scooby_state_420c8a|39|1 100,0,0,0,0,0,0,0,0,0,0,0,0,0,0,100,
scooby_state_420c8a|32|1 99,0,0,0,0,0,0,0,0,1,0,0,0,0,0,100,
scooby_state_420c8a|46|1 99,0,0,0,0,0,0,0,0,0,0,0,0,0,0,99,
scooby_state_420c8a|51|1 98,0,0,0,0,0,0,0,0,0,0,0,0,0,0,98,
scooby_state_420c8a|57|1 97,0,0,0,0,0,0,0,0,0,0,0,0,0,0,97,
scooby_state_420c8a|34|1 95,1,0,0,0,0,0,0,0,0,0,0,0,0,0,96,
scooby_state_420c8a|47|1 96,0,0,0,0,0,0,0,0,0,0,0,0,0,0,96,
scooby_state_420d00|14|2 94,0,0,0,0,0,0,0,0,0,0,0,0,0,0,94,
scooby_state_420c8a|33|1 94,0,0,0,0,0,0,0,0,0,0,0,0,0,0,94,
scooby_state_420c8a|31|1 94,0,0,0,0,0,0,0,0,0,0,0,0,0,0,94,
scooby_state_420c8a|52|1 94,0,0,0,0,0,0,0,0,0,0,0,0,0,0,94,
scooby_state_420c8a|41|1 94,0,0,0,0,0,0,0,0,0,0,0,0,0,0,94,
scooby_state_420c8a|49|1 94,0,0,0,0,0,0,0,0,0,0,0,0,0,0,94,
scooby_state_420c8a|58|1 93,0,0,0,0,0,0,0,0,0,0,0,0,0,0,93,
scooby_state_420ca1|12|-2 74,19,0,0,0,0,0,0,0,0,0,0,0,0,0,93,
scooby_state_420c8a|53|-10 92,0,0,0,0,0,0,0,0,0,0,0,0,0,0,92,
[...]
scooby_state_421381|14|0 1,0,0,0,0,0,0,0,0,0,0,0,0,0,0,1,
scooby_state_420e7e|12|-34 1,0,0,0,0,0,0,0,0,0,0,0,0,0,0,1,
scooby_state_420da6|63|4 1,0,0,0,0,0,0,0,0,0,0,0,0,0,0,1,
scooby_state_420c3d|41|0 1,0,0,0,0,0,0,0,0,0,0,0,0,0,0,1,
scooby_state_420e01|56|1 1,0,0,0,0,0,0,0,0,0,0,0,0,0,0,1,
scooby_state_420c37|25|0 1,0,0,0,0,0,0,0,0,0,0,0,0,0,0,1,
scooby_state_420c8a|14|-32 1,0,0,0,0,0,0,0,0,0,0,0,0,0,0,1,
scooby_state_420dfd|35|15 1,0,0,0,0,0,0,0,0,0,0,0,0,0,0,1,
scooby_state_42118f|30|-33 1,0,0,0,0,0,0,0,0,0,0,0,0,0,0,1,
scooby_state_420d4c|38|0 1,0,0,0,0,0,0,0,0,0,0,0,0,0,0,1,
scooby_state_420d21|41|0 1,0,0,0,0,0,0,0,0,0,0,0,0,0,0,1,
scooby_state_4210a1|46|34 0,1,0,0,0,0,0,0,0,0,0,0,0,0,0,1,
scooby_state_420e41|20|3 1,0,0,0,0,0,0,0,0,0,0,0,0,0,0,1,
scooby_state_420dfd|39|15 1,0,0,0,0,0,0,0,0,0,0,0,0,0,0,1,
scooby_state_420c8a|28|1 1,0,0,0,0,0,0,0,0,0,0,0,0,0,0,1,
scooby_state_42118f|40|1 1,0,0,0,0,0,0,0,0,0,0,0,0,0,0,1,
scooby_state_420d1b|29|0 1,0,0,0,0,0,0,0,0,0,0,0,0,0,0,1,
scooby_state_420c8a|27|-34 1,0,0,0,0,0,0,0,0,0,0,0,0,0,0,1,
scooby_state_420da6|55|3 1,0,0,0,0,0,0,0,0,0,0,0,0,0,0,1,
scooby_state_420d1b|9|0 1,0,0,0,0,0,0,0,0,0,0,0,0,0,0,1,
scooby_state_420df7|56|0 1,0,0,0,0,0,0,0,0,0,0,0,0,0,0,1,
scooby_state_4212c6|11|1 1,0,0,0,0,0,0,0,0,0,0,0,0,0,0,1,
scooby_state_420c8a|14|4 1,0,0,0,0,0,0,0,0,0,0,0,0,0,0,1,
scooby_state_420c7c|60|37 1,0,0,0,0,0,0,0,0,0,0,0,0,0,0,1,
scooby_state_420e7e|50|-13 1,0,0,0,0,0,0,0,0,0,0,0,0,0,0,1,
scooby_state_42118f|63|1 1,0,0,0,0,0,0,0,0,0,0,0,0,0,0,1,
scooby_state_420e41|22|4 1,0,0,0,0,0,0,0,0,0,0,0,0,0,0,1,
scooby_state_420df7|37|0 1,0,0,0,0,0,0,0,0,0,0,0,0,0,0,1,
scooby_state_420d4c|59|36 1,0,0,0,0,0,0,0,0,0,0,0,0,0,0,1,
scooby_state_420c8a|54|3 1,0,0,0,0,0,0,0,0,0,0,0,0,0,0,1,
scooby_state_4210b2|55|1 1,0,0,0,0,0,0,0,0,0,0,0,0,0,0,1,
scooby_state_420cfb|13|0 1,0,0,0,0,0,0,0,0,0,0,0,0,0,0,1,
scooby_state_421386|11|3 1,0,0,0,0,0,0,0,0,0,0,0,0,0,0,1,
scooby_state_420b80|46|1 1,0,0,0,0,0,0,0,0,0,0,0,0,0,0,1,
scooby_state_421140|58|1 1,0,0,0,0,0,0,0,0,0,0,0,0,0,0,1,
scooby_state_420c7c|19|0 1,0,0,0,0,0,0,0,0,0,0,0,0,0,0,1,
scooby_state_420e7e|14|-34 1,0,0,0,0,0,0,0,0,0,0,0,0,0,0,1,
scooby_state_421140|63|1 1,0,0,0,0,0,0,0,0,0,0,0,0,0,0,1,
scooby_state_4210b2|1|-33 1,0,0,0,0,0,0,0,0,0,0,0,0,0,0,1,
scooby_state_420e7e|5|-34 1,0,0,0,0,0,0,0,0,0,0,0,0,0,0,1,
scooby_state_420d4c|39|37 1,0,0,0,0,0,0,0,0,0,0,0,0,0,0,1,
scooby_state_42118f|62|1 1,0,0,0,0,0,0,0,0,0,0,0,0,0,0,1,
scooby_state_420df7|55|0 1,0,0,0,0,0,0,0,0,0,0,0,0,0,0,1,
scooby_state_420c82|50|1 1,0,0,0,0,0,0,0,0,0,0,0,0,0,0,1,
scooby_state_420c7c|4|0 1,0,0,0,0,0,0,0,0,0,0,0,0,0,0,1,
scooby_state_420c8a|53|8 1,0,0,0,0,0,0,0,0,0,0,0,0,0,0,1,
scooby_state_4210c5|3|1 1,0,0,0,0,0,0,0,0,0,0,0,0,0,0,1,
scooby_state_420c8a|30|4 1,0,0,0,0,0,0,0,0,0,0,0,0,0,0,1,
scooby_state_420c7c|49|33 1,0,0,0,0,0,0,0,0,0,0,0,0,0,0,1,
scooby_state_420c00|48|-11 1,0,0,0,0,0,0,0,0,0,0,0,0,0,0,1,
scooby_state_420e7e|8|-34 1,0,0,0,0,0,0,0,0,0,0,0,0,0,0,1,
scooby_state_420a81|42|1 1,0,0,0,0,0,0,0,0,0,0,0,0,0,0,1,
scooby_state_42118f|23|-33 1,0,0,0,0,0,0,0,0,0,0,0,0,0,0,1,
scooby_state_420c8a|19|-29 1,0,0,0,0,0,0,0,0,0,0,0,0,0,0,1,
scooby_state_420d4c|54|35 1,0,0,0,0,0,0,0,0,0,0,0,0,0,0,1,
scooby_state_421042|1|1 1,0,0,0,0,0,0,0,0,0,0,0,0,0,0,1,
scooby_state_42142b|11|4 1,0,0,0,0,0,0,0,0,0,0,0,0,0,0,1,
scooby_state_420da6|55|4 1,0,0,0,0,0,0,0,0,0,0,0,0,0,0,1,
scooby_state_42118f|50|-13 1,0,0,0,0,0,0,0,0,0,0,0,0,0,0,1,
scooby_state_421140|38|1 1,0,0,0,0,0,0,0,0,0,0,0,0,0,0,1,
scooby_state_420e41|23|4 1,0,0,0,0,0,0,0,0,0,0,0,0,0,0,1,
scooby_state_420d5a|27|0 1,0,0,0,0,0,0,0,0,0,0,0,0,0,0,1,
scooby_state_420da6|3|0 1,0,0,0,0,0,0,0,0,0,0,0,0,0,0,1,
scooby_state_420cc0|36|0 1,0,0,0,0,0,0,0,0,0,0,0,0,0,0,1,
scooby_state_420e41|60|3 1,0,0,0,0,0,0,0,0,0,0,0,0,0,0,1,
scooby_state_421140|23|1 1,0,0,0,0,0,0,0,0,0,0,0,0,0,0,1,
scooby_state_420c8a|5|3 1,0,0,0,0,0,0,0,0,0,0,0,0,0,0,1,
scooby_state_4210b2|2|-33 1,0,0,0,0,0,0,0,0,0,0,0,0,0,0,1,
scooby_state_420da6|31|4 1,0,0,0,0,0,0,0,0,0,0,0,0,0,0,1,
scooby_state_421111|44|33 1,0,0,0,0,0,0,0,0,0,0,0,0,0,0,1,
scooby_state_421140|14|1 1,0,0,0,0,0,0,0,0,0,0,0,0,0,0,1,
scooby_state_421140|28|1 1,0,0,0,0,0,0,0,0,0,0,0,0,0,0,1,
scooby_state_420f47|16|5 1,0,0,0,0,0,0,0,0,0,0,0,0,0,0,1,
scooby_state_420985|38|1 1,0,0,0,0,0,0,0,0,0,0,0,0,0,0,1,
scooby_state_420e7e|53|0 1,0,0,0,0,0,0,0,0,0,0,0,0,0,0,1,
scooby_state_420d4c|38|37 1,0,0,0,0,0,0,0,0,0,0,0,0,0,0,1,
scooby_state_420e7e|61|8 1,0,0,0,0,0,0,0,0,0,0,0,0,0,0,1,
scooby_state_421140|54|1 1,0,0,0,0,0,0,0,0,0,0,0,0,0,0,1,
scooby_state_421140|52|34 1,0,0,0,0,0,0,0,0,0,0,0,0,0,0,1,
scooby_state_420cf3|21|1 1,0,0,0,0,0,0,0,0,0,0,0,0,0,0,1,
scooby_state_420c8a|1|0 1,0,0,0,0,0,0,0,0,0,0,0,0,0,0,1,
scooby_state_420dfd|15|15 1,0,0,0,0,0,0,0,0,0,0,0,0,0,0,1,
scooby_state_42118f|0|-33 1,0,0,0,0,0,0,0,0,0,0,0,0,0,0,1,
scooby_state_420c8a|35|0 1,0,0,0,0,0,0,0,0,0,0,0,0,0,0,1,
scooby_state_420dfd|59|15 1,0,0,0,0,0,0,0,0,0,0,0,0,0,0,1,
scooby_state_420c37|37|0 1,0,0,0,0,0,0,0,0,0,0,0,0,0,0,1,
scooby_state_420d4c|22|0 1,0,0,0,0,0,0,0,0,0,0,0,0,0,0,1,
scooby_state_420e7e|44|11 1,0,0,0,0,0,0,0,0,0,0,0,0,0,0,1,
scooby_state_420d1b|26|0 1,0,0,0,0,0,0,0,0,0,0,0,0,0,0,1,
scooby_state_420d21|59|15 1,0,0,0,0,0,0,0,0,0,0,0,0,0,0,1,
scooby_state_420e41|6|4 1,0,0,0,0,0,0,0,0,0,0,0,0,0,0,1,
scooby_state_420c3d|59|15 1,0,0,0,0,0,0,0,0,0,0,0,0,0,0,1,
scooby_state_420c8a|20|-32 1,0,0,0,0,0,0,0,0,0,0,0,0,0,0,1,
scooby_state_420dd8|54|0 1,0,0,0,0,0,0,0,0,0,0,0,0,0,0,1,
scooby_state_420e7e|46|-15 1,0,0,0,0,0,0,0,0,0,0,0,0,0,0,1,
scooby_state_421140|12|1 1,0,0,0,0,0,0,0,0,0,0,0,0,0,0,1,
scooby_state_420c8a|19|-32 1,0,0,0,0,0,0,0,0,0,0,0,0,0,0,1,
scooby_state_420e7e|55|4 1,0,0,0,0,0,0,0,0,0,0,0,0,0,0,1,
scooby_state_420d6d|13|0 1,0,0,0,0,0,0,0,0,0,0,0,0,0,0,1,
scooby_state_420e97|11|-2 1,0,0,0,0,0,0,0,0,0,0,0,0,0,0,1,
scooby_state_420c8a|55|-7 1,0,0,0,0,0,0,0,0,0,0,0,0,0,0,1,
scooby_state_420c8a|43|6 1,0,0,0,0,0,0,0,0,0,0,0,0,0,0,1,
scooby_state_420c8a|21|3 1,0,0,0,0,0,0,0,0,0,0,0,0,0,0,1,
scooby_state_4210a1|49|34 0,1,0,0,0,0,0,0,0,0,0,0,0,0,0,1,
scooby_state_420c8a|42|5 1,0,0,0,0,0,0,0,0,0,0,0,0,0,0,1,
scooby_state_420da6|23|4 1,0,0,0,0,0,0,0,0,0,0,0,0,0,0,1,
scooby_state_420c8a|18|3 1,0,0,0,0,0,0,0,0,0,0,0,0,0,0,1,
scooby_state_421140|26|1 1,0,0,0,0,0,0,0,0,0,0,0,0,0,0,1,
scooby_state_420da6|15|4 1,0,0,0,0,0,0,0,0,0,0,0,0,0,0,1,
scooby_state_420da6|42|-1 1,0,0,0,0,0,0,0,0,0,0,0,0,0,0,1,
scooby_state_420da6|38|37 1,0,0,0,0,0,0,0,0,0,0,0,0,0,0,1,
scooby_state_420c7c|44|2 1,0,0,0,0,0,0,0,0,0,0,0,0,0,0,1,
scooby_state_420a47|41|1 1,0,0,0,0,0,0,0,0,0,0,0,0,0,0,1,
scooby_state_421140|42|1 1,0,0,0,0,0,0,0,0,0,0,0,0,0,0,1,
scooby_state_420da6|59|37 1,0,0,0,0,0,0,0,0,0,0,0,0,0,0,1,
scooby_state_420da6|39|4 1,0,0,0,0,0,0,0,0,0,0,0,0,0,0,1,
scooby_state_421111|60|34 1,0,0,0,0,0,0,0,0,0,0,0,0,0,0,1,
scooby_state_420da6|27|4 1,0,0,0,0,0,0,0,0,0,0,0,0,0,0,1,
scooby_state_420c8a|20|0 1,0,0,0,0,0,0,0,0,0,0,0,0,0,0,1,
scooby_state_421140|34|1 1,0,0,0,0,0,0,0,0,0,0,0,0,0,0,1,
scooby_state_421430|11|4 1,0,0,0,0,0,0,0,0,0,0,0,0,0,0,1,
scooby_state_420d1b|22|0 1,0,0,0,0,0,0,0,0,0,0,0,0,0,0,1,
scooby_state_420da6|7|4 1,0,0,0,0,0,0,0,0,0,0,0,0,0,0,1,
scooby_state_420cc0|14|0 1,0,0,0,0,0,0,0,0,0,0,0,0,0,0,1,
scooby_state_420d21|15|15 1,0,0,0,0,0,0,0,0,0,0,0,0,0,0,1,
scooby_state_420c3d|15|15 1,0,0,0,0,0,0,0,0,0,0,0,0,0,0,1,
scooby_state_420d44|53|1 1,0,0,0,0,0,0,0,0,0,0,0,0,0,0,1,
scooby_state_420e7e|33|4 1,0,0,0,0,0,0,0,0,0,0,0,0,0,0,1,
scooby_state_420c8a|12|-30 1,0,0,0,0,0,0,0,0,0,0,0,0,0,0,1,
scooby_state_420da6|47|4 1,0,0,0,0,0,0,0,0,0,0,0,0,0,0,1,
scooby_state_42118f|47|1 1,0,0,0,0,0,0,0,0,0,0,0,0,0,0,1,
scooby_state_420e41|0|0 1,0,0,0,0,0,0,0,0,0,0,0,0,0,0,1,
scooby_state_421140|50|1 1,0,0,0,0,0,0,0,0,0,0,0,0,0,0,1,
scooby_state_420e41|24|3 1,0,0,0,0,0,0,0,0,0,0,0,0,0,0,1,
scooby_state_420a00|40|1 1,0,0,0,0,0,0,0,0,0,0,0,0,0,0,1,
scooby_state_420df7|15|0 1,0,0,0,0,0,0,0,0,0,0,0,0,0,0,1,
scooby_state_420da6|43|4 1,0,0,0,0,0,0,0,0,0,0,0,0,0,0,1,
scooby_state_420c2f|19|-3 1,0,0,0,0,0,0,0,0,0,0,0,0,0,0,1,
scooby_state_420e7e|47|6 1,0,0,0,0,0,0,0,0,0,0,0,0,0,0,1,
scooby_state_420d4c|57|0 1,0,0,0,0,0,0,0,0,0,0,0,0,0,0,1,
scooby_state_42118f|11|1 1,0,0,0,0,0,0,0,0,0,0,0,0,0,0,1,
scooby_state_420d21|35|15 1,0,0,0,0,0,0,0,0,0,0,0,0,0,0,1,
scooby_state_421081|2|1 1,0,0,0,0,0,0,0,0,0,0,0,0,0,0,1,
scooby_state_420e41|57|1 1,0,0,0,0,0,0,0,0,0,0,0,0,0,0,1,
scooby_state_420e7e|37|6 1,0,0,0,0,0,0,0,0,0,0,0,0,0,0,1,
scooby_state_420c8a|33|-28 1,0,0,0,0,0,0,0,0,0,0,0,0,0,0,1,
scooby_state_420e7e|53|5 1,0,0,0,0,0,0,0,0,0,0,0,0,0,0,1,
scooby_state_420e41|46|4 1,0,0,0,0,0,0,0,0,0,0,0,0,0,0,1,
scooby_state_420cc0|25|0 1,0,0,0,0,0,0,0,0,0,0,0,0,0,0,1,
scooby_state_420c7c|42|35 1,0,0,0,0,0,0,0,0,0,0,0,0,0,0,1,
scooby_state_420da6|59|1 1,0,0,0,0,0,0,0,0,0,0,0,0,0,0,1,
scooby_state_4210a1|43|34 0,1,0,0,0,0,0,0,0,0,0,0,0,0,0,1,
scooby_state_420e7e|40|2 1,0,0,0,0,0,0,0,0,0,0,0,0,0,0,1,
scooby_state_420da6|38|33 1,0,0,0,0,0,0,0,0,0,0,0,0,0,0,1,
scooby_state_420c8a|10|3 1,0,0,0,0,0,0,0,0,0,0,0,0,0,0,1,
scooby_state_421426|7|-4 1,0,0,0,0,0,0,0,0,0,0,0,0,0,0,1,
scooby_state_421140|49|1 1,0,0,0,0,0,0,0,0,0,0,0,0,0,0,1,
scooby_state_420e7e|56|4 1,0,0,0,0,0,0,0,0,0,0,0,0,0,0,1,
scooby_state_420c3d|39|15 1,0,0,0,0,0,0,0,0,0,0,0,0,0,0,1,
scooby_state_4211c0|7|1 1,0,0,0,0,0,0,0,0,0,0,0,0,0,0,1,
scooby_state_42118f|12|-33 1,0,0,0,0,0,0,0,0,0,0,0,0,0,0,1,
scooby_state_420e7e|11|1 1,0,0,0,0,0,0,0,0,0,0,0,0,0,0,1,
scooby_state_420e7e|10|-34 1,0,0,0,0,0,0,0,0,0,0,0,0,0,0,1,
scooby_state_420d21|39|15 1,0,0,0,0,0,0,0,0,0,0,0,0,0,0,1,
scooby_state_420e7e|60|4 1,0,0,0,0,0,0,0,0,0,0,0,0,0,0,1,
scooby_state_420e97|11|0 1,0,0,0,0,0,0,0,0,0,0,0,0,0,0,1,
scooby_state_420d4c|44|37 1,0,0,0,0,0,0,0,0,0,0,0,0,0,0,1,
scooby_state_420ec2|59|1 1,0,0,0,0,0,0,0,0,0,0,0,0,0,0,1,
scooby_state_421140|44|1 1,0,0,0,0,0,0,0,0,0,0,0,0,0,0,1,
scooby_state_42118f|19|1 1,0,0,0,0,0,0,0,0,0,0,0,0,0,0,1,
scooby_state_420c7c|34|33 1,0,0,0,0,0,0,0,0,0,0,0,0,0,0,1,
scooby_state_42118f|51|1 1,0,0,0,0,0,0,0,0,0,0,0,0,0,0,1,
scooby_state_421306|12|1 1,0,0,0,0,0,0,0,0,0,0,0,0,0,0,1,
scooby_state_4210b2|4|-33 1,0,0,0,0,0,0,0,0,0,0,0,0,0,0,1,
scooby_state_420d00|52|1 1,0,0,0,0,0,0,0,0,0,0,0,0,0,0,1,
scooby_state_420c8a|5|0 1,0,0,0,0,0,0,0,0,0,0,0,0,0,0,1,
scooby_state_420e41|14|4 1,0,0,0,0,0,0,0,0,0,0,0,0,0,0,1,
scooby_state_420ca1|12|-1 1,0,0,0,0,0,0,0,0,0,0,0,0,0,0,1,
scooby_state_420da6|19|4 1,0,0,0,0,0,0,0,0,0,0,0,0,0,0,1,
scooby_state_421140|16|1 1,0,0,0,0,0,0,0,0,0,0,0,0,0,0,1,
scooby_state_420c8a|50|0 1,0,0,0,0,0,0,0,0,0,0,0,0,0,0,1,
scooby_state_421140|4|1 1,0,0,0,0,0,0,0,0,0,0,0,0,0,0,1,
scooby_state_4210b2|37|1 1,0,0,0,0,0,0,0,0,0,0,0,0,0,0,1,
scooby_state_421140|15|1 1,0,0,0,0,0,0,0,0,0,0,0,0,0,0,1,
scooby_state_420cb8|20|1 1,0,0,0,0,0,0,0,0,0,0,0,0,0,0,1,
scooby_state_4210b2|44|1 1,0,0,0,0,0,0,0,0,0,0,0,0,0,0,1,
scooby_state_42118f|1|-33 1,0,0,0,0,0,0,0,0,0,0,0,0,0,0,1,
scooby_state_420d84|54|1 1,0,0,0,0,0,0,0,0,0,0,0,0,0,0,1,
scooby_state_420c8a|17|4 1,0,0,0,0,0,0,0,0,0,0,0,0,0,0,1,
scooby_state_420c41|49|1 1,0,0,0,0,0,0,0,0,0,0,0,0,0,0,1,
scooby_state_420c8a|53|9 1,0,0,0,0,0,0,0,0,0,0,0,0,0,0,1,
scooby_state_420bc7|47|1 1,0,0,0,0,0,0,0,0,0,0,0,0,0,0,1,
scooby_state_420f21|14|7 1,0,0,0,0,0,0,0,0,0,0,0,0,0,0,1,
scooby_state_420e7e|63|5 1,0,0,0,0,0,0,0,0,0,0,0,0,0,0,1,
scooby_state_421140|39|1 1,0,0,0,0,0,0,0,0,0,0,0,0,0,0,1,
scooby_state_420e7e|41|8 1,0,0,0,0,0,0,0,0,0,0,0,0,0,0,1,
scooby_state_42118f|36|1 1,0,0,0,0,0,0,0,0,0,0,0,0,0,0,1,
scooby_state_420d4c|63|37 1,0,0,0,0,0,0,0,0,0,0,0,0,0,0,1,
scooby_state_421140|36|1 1,0,0,0,0,0,0,0,0,0,0,0,0,0,0,1,
scooby_state_421246|9|1 1,0,0,0,0,0,0,0,0,0,0,0,0,0,0,1,
scooby_state_421140|30|1 1,0,0,0,0,0,0,0,0,0,0,0,0,0,0,1,
scooby_state_420c8a|55|3 1,0,0,0,0,0,0,0,0,0,0,0,0,0,0,1,
scooby_state_42118f|24|-33 1,0,0,0,0,0,0,0,0,0,0,0,0,0,0,1,
scooby_state_42118f|8|-33 1,0,0,0,0,0,0,0,0,0,0,0,0,0,0,1,
scooby_state_421111|52|33 1,0,0,0,0,0,0,0,0,0,0,0,0,0,0,1,
scooby_state_4210b2|47|3 1,0,0,0,0,0,0,0,0,0,0,0,0,0,0,1,
scooby_state_420cdf|25|0 1,0,0,0,0,0,0,0,0,0,0,0,0,0,0,1,
scooby_state_420d4c|36|36 1,0,0,0,0,0,0,0,0,0,0,0,0,0,0,1,
scooby_state_420b30|44|-19 1,0,0,0,0,0,0,0,0,0,0,0,0,0,0,1,
scooby_state_420da6|46|-1 1,0,0,0,0,0,0,0,0,0,0,0,0,0,0,1,
scooby_state_421140|2|1 1,0,0,0,0,0,0,0,0,0,0,0,0,0,0,1,
scooby_state_420e7e|43|2 1,0,0,0,0,0,0,0,0,0,0,0,0,0,0,1,
scooby_state_420da6|35|33 1,0,0,0,0,0,0,0,0,0,0,0,0,0,0,1,
scooby_state_421140|5|1 1,0,0,0,0,0,0,0,0,0,0,0,0,0,0,1,
scooby_state_421184|6|1 1,0,0,0,0,0,0,0,0,0,0,0,0,0,0,1,
scooby_state_420da6|11|4 1,0,0,0,0,0,0,0,0,0,0,0,0,0,0,1,
scooby_state_421140|22|1 1,0,0,0,0,0,0,0,0,0,0,0,0,0,0,1,
scooby_state_421286|10|1 1,0,0,0,0,0,0,0,0,0,0,0,0,0,0,1,
scooby_state_4210b2|63|1 1,0,0,0,0,0,0,0,0,0,0,0,0,0,0,1,
scooby_state_420ac6|43|1 0,1,0,0,0,0,0,0,0,0,0,0,0,0,0,1,
scooby_state_421346|13|1 1,0,0,0,0,0,0,0,0,0,0,0,0,0,0,1,

scooby_action_0_deg_dist 0,143,0,0,0,0,0,0,0,0,0,0,0,0,0,0,
scooby_action_12_deg_dist 0,127,0,0,0,0,0,0,0,0,0,0,0,0,0,0,
scooby_action_3_deg_dist 0,3550,0,0,0,0,0,0,0,0,0,0,0,0,0,0,
scooby_action_32_deg_dist 0,106,0,0,0,0,0,0,0,0,0,0,0,0,0,0,
scooby_action_5_deg_dist 0,121,0,0,0,0,0,0,0,0,0,0,0,0,0,0,
scooby_action_1_deg_dist 0,53469,32838,0,81969,0,838327,0,0,0,0,0,0,0,0,0,
scooby_action_30_deg_dist 0,136,0,0,0,0,0,0,0,0,0,0,0,0,0,0,
scooby_action_4_deg_dist 0,126,0,0,0,0,0,0,0,0,0,0,0,0,0,0,
scooby_action_-3_deg_dist 0,125,0,0,0,0,0,0,0,0,0,0,0,0,0,0,
scooby_action_10_deg_dist 0,140,0,0,0,0,0,0,0,0,0,0,0,0,0,0,
scooby_action_-1_deg_dist 0,150,0,0,0,0,0,0,0,0,0,0,0,0,0,0,
scooby_action_23_deg_dist 0,126,0,0,0,0,0,0,0,0,0,0,0,0,0,0,
scooby_action_-6_deg_dist 0,107,0,0,0,0,0,0,0,0,0,0,0,0,0,0,
scooby_action_11_deg_dist 0,123,0,0,0,0,0,0,0,0,0,0,0,0,0,0,
scooby_action_22_deg_dist 0,131,0,0,0,0,0,0,0,0,0,0,0,0,0,0,

scooby_track_called 1011814
scooby_track_same_address 1157
scooby_track_evict 1010401

scooby_reward_demand_called 1011814
scooby_reward_demand_pt_not_found 49460
scooby_reward_demand_pt_found 962354
scooby_reward_demand_pt_found_total 962354
scooby_reward_demand_has_reward 0
scooby_reward_train_called 32237
scooby_reward_assign_reward_called 1010640
scooby_reward_no_pref 143
scooby_reward_incorrect 32094
scooby_reward_correct_untimely 891497
scooby_reward_correct_timely 70857
scooby_reward_out_of_bounds 16049
scooby_reward_tracker_hit 0

scooby_reward_none_low_bw 143
scooby_reward_none_high_bw 0
scooby_reward_incorrect_low_bw 32094
scooby_reward_incorrect_high_bw 0
scooby_reward_correct_untimely_low_bw 891497
scooby_reward_correct_untimely_high_bw 0
scooby_reward_correct_timely_low_bw 70857
scooby_reward_correct_timely_high_bw 0
scooby_reward_out_of_bounds_low_bw 16049
scooby_reward_out_of_bounds_high_bw 0
scooby_reward_tracker_hit_low_bw 0
scooby_reward_tracker_hit_high_bw 0

scooby_reward_1 0,31602,888486,70129,15602,0,
scooby_reward_3 0,227,2878,239,152,0,
scooby_reward_4 0,13,81,26,6,0,
scooby_reward_5 0,9,52,48,11,0,
scooby_reward_10 0,12,0,101,25,0,
scooby_reward_11 0,12,0,90,20,0,
scooby_reward_12 0,9,0,94,23,0,
scooby_reward_22 0,17,0,68,42,0,
scooby_reward_23 0,18,0,61,45,0,
scooby_reward_30 0,72,0,1,62,0,
scooby_reward_32 0,56,0,0,49,0,
scooby_reward_-1 0,17,0,0,1,0,
scooby_reward_-3 0,18,0,0,5,0,
scooby_reward_-6 0,12,0,0,6,0,
scooby_reward_0 143,0,0,0,0,0,

scooby_train_called 1010400
scooby_train_compute_reward 32237

scooby_register_fill_called 1011868
scooby_register_fill_set 73109
scooby_register_fill_set_total 73109

scooby_register_prefetch_hit_called 3806364
scooby_register_prefetch_hit_set 919930
scooby_register_prefetch_hit_set_total 919930

scooby_pref_issue_scooby 5149602

learning_engine_featurewise.action.called 1011814
learning_engine_featurewise.action.explore 1847
learning_engine_featurewise.action.exploit 1009967
learning_engine_featurewise.action.fallback 0
learning_engine_featurewise.action.dyn_fallback_saved_bw 0
learning_engine_featurewise.action.dyn_fallback_saved_bw_acc 0
learning_engine_featurewise.action.index_1_explored 125
learning_engine_featurewise.action.index_1_exploited 1006478
learning_engine_featurewise.action.index_3_explored 133
learning_engine_featurewise.action.index_3_exploited 3417
learning_engine_featurewise.action.index_4_explored 123
learning_engine_featurewise.action.index_4_exploited 3
learning_engine_featurewise.action.index_5_explored 119
learning_engine_featurewise.action.index_5_exploited 2
learning_engine_featurewise.action.index_10_explored 138
learning_engine_featurewise.action.index_10_exploited 2
learning_engine_featurewise.action.index_11_explored 121
learning_engine_featurewise.action.index_11_exploited 2
learning_engine_featurewise.action.index_12_explored 125
learning_engine_featurewise.action.index_12_exploited 2
learning_engine_featurewise.action.index_22_explored 128
learning_engine_featurewise.action.index_22_exploited 3
learning_engine_featurewise.action.index_23_explored 124
learning_engine_featurewise.action.index_23_exploited 2
learning_engine_featurewise.action.index_30_explored 134
learning_engine_featurewise.action.index_30_exploited 2
learning_engine_featurewise.action.index_32_explored 104
learning_engine_featurewise.action.index_32_exploited 2
learning_engine_featurewise.action.index_-1_explored 123
learning_engine_featurewise.action.index_-1_exploited 27
learning_engine_featurewise.action.index_-3_explored 119
learning_engine_featurewise.action.index_-3_exploited 6
learning_engine_featurewise.action.index_-6_explored 104
learning_engine_featurewise.action.index_-6_exploited 3
learning_engine_featurewise.action.index_0_explored 127
learning_engine_featurewise.action.index_0_exploited 16
learning_engine_featurewise.learn.called 1010400
learning_engine_featurewise.learn.su_skip_PC 0
learning_engine_featurewise.learn.su_skip_PC_Delta 0

learning_engine_featurewise.q_value_histogram.bucket_0 0
learning_engine_featurewise.q_value_histogram.bucket_1 0
learning_engine_featurewise.q_value_histogram.bucket_2 0
learning_engine_featurewise.q_value_histogram.bucket_3 77
learning_engine_featurewise.q_value_histogram.bucket_4 1135
learning_engine_featurewise.q_value_histogram.bucket_5 2998
learning_engine_featurewise.q_value_histogram.bucket_6 1005757
learning_engine_featurewise.q_value_histogram.bucket_7 0

learning_engine_featurewise.consensus.total 1009967
learning_engine_featurewise.consensus.feature_align_PC 1007140
learning_engine_featurewise.consensus.feature_align_PC_ratio 1.00
learning_engine_featurewise.consensus.feature_align_PC_Delta 1008807
learning_engine_featurewise.consensus.feature_align_PC_Delta_ratio 1.00
learning_engine_featurewise.consensus.feature_align_all 1005980
learning_engine_featurewise.consensus.feature_align_all_ratio 1.00

learning_engine_featurewise.feature_PC_min_weight 1000000.00000000
learning_engine_featurewise.feature_PC_max_weight 0.00000000
learning_engine_featurewise.feature_PC_Delta_min_weight 1000000.00000000
learning_engine_featurewise.feature_PC_Delta_max_weight 0.00000000
unique_pcs 94
unique_pages 13866
unique_trigger_pcs 37
total_bitmaps_seen 0
unique_bitmaps_seen 0

scooby_bw_epochs 159816
scooby_bw_level_0 24352
scooby_bw_level_1 34514
scooby_bw_level_2 70348
scooby_bw_level_3 30602

scooby_ipc_epochs 0
scooby_ipc_level_0 0
scooby_ipc_level_1 0
scooby_ipc_level_2 0
scooby_ipc_level_3 0

scooby_cache_acc_epochs 38635
scooby_cache_acc_level_0 1
scooby_cache_acc_level_1 0
scooby_cache_acc_level_2 1
scooby_cache_acc_level_3 4
scooby_cache_acc_level_4 41
scooby_cache_acc_level_5 205
scooby_cache_acc_level_6 803
scooby_cache_acc_level_7 2539
scooby_cache_acc_level_8 7230
scooby_cache_acc_level_9 27811

Channel_0_RQ_row_buffer_hit 387951
Channel_0_RQ_row_buffer_miss 480413
Channel_0_WQ_row_buffer_hit 36948
Channel_0_WQ_row_buffer_miss 222527
Channel_0_WQ_full 0
Channel_0_dbus_congested 677548

avg_congested_cycle 10

DRAM_bw_pochs 159816
DRAM_bw_level_0 24352
DRAM_bw_level_1 34514
DRAM_bw_level_2 70348
DRAM_bw_level_3 30602
