*************************************************
   ChampSim Multicore Out-of-Order Simulator
   Last compiled: Apr  3 2025 20:54:34
*************************************************
parsing config file: /home/zir/Pythia/config/nopref.ini

trace_0 /home/zir/ChampSim/ML-DPC/ChampSimTraces/spec17/605.mcf-s1.trace.xz
adding L2C_PREFETCHER: NONE
Initialize SHIP state
warmup_instructions 10000000
simulation_instructions 50000000
champsim_seed 164
measure_ipc 0
measure_ipc_epoch 1000
measure_dram_bw 1
measure_dram_bw_epoch 256
measure_cache_acc 1
measure_cache_acc_epoch 1024
l1d_perfect 0
l2c_perfect 0
llc_perfect 0
l1d_semi_perfect 0
l2c_semi_perfect 0
llc_semi_perfect 0
semi_perfect_cache_page_buffer_size 64

num_cpus 1
cpu_freq 4000
dram_io_freq 2400
page_size 4096
block_size 64
max_read_per_cycle 8
max_fill_per_cycle 1
dram_channels 1
log2_dram_channels 0
dram_ranks 1
dram_banks 8
dram_rows 65536
dram_columns 128
dram_row_size 8
dram_size 4096
dram_pages 1048576

fetch_width 6
decode_width 6
exec_width 4
lq_width 2
sq_width 2
retire_width 4
scheduler_size 128
branch_mispredict_penalty 20
rob_size 256
lq_size 72
sq_size 56
num_instr_destinations_sparc 4
num_instr_destinations 2
num_instr_sources 4

itlb_set 16
itlb_way 8
itlb_rq_size 16
itlb_wq_size 16
itlb_pq_size 0
itlb_mshr_size 8
itlb_latency 1

dtlb_set 16
dtlb_way 4
dtlb_rq_size 16
dtlb_wq_size 16
dtlb_pq_size 0
dtlb_mshr_size 8
dtlb_latency 1

stlb_set 128
stlb_way 12
stlb_rq_size 32
stlb_wq_size 32
stlb_pq_size 0
stlb_mshr_size 16
stlb_latency 8

l1i_size 32
l1i_set 64
l1i_way 8
l1i_rq_size 64
l1i_wq_size 64
l1i_pq_size 8
l1i_mshr_size 8
l1i_latency 1

l1d_size 32
l1d_set 64
l1d_way 8
l1d_rq_size 64
l1d_wq_size 64
l1d_pq_size 8
l1d_mshr_size 16
l1d_latency 4

l2c_size 256
l2c_set 512
l2c_way 8
l2c_rq_size 32
l2c_wq_size 32
l2c_pq_size 32
l2c_mshr_size 32
l2c_latency 10

llc_size 2048
llc_set 2048
llc_way 16
llc_rq_size 32
llc_wq_size 32
llc_pq_size 32
llc_mshr_size 64
llc_latency 20

dram_channel_width 8
dram_wq_size 64
dram_rq_size 64
tRP 15
tRCD 15
tCAS 12.5
dram_dbus_turn_around_time 30
dram_write_high_wm 56
dram_write_low_wm 48
min_dram_writes_per_switch 16
dram_mtps 2400
dram_dbus_return_time 13


Heartbeat CPU  0 instructions:    1000001 cycles:     371500 heartbeat IPC: 2.69179 cumulative IPC: 2.69179 (Simulation time: 0 hr 0 min 1 sec) 
Heartbeat CPU  0 instructions:    2000003 cycles:     742956 heartbeat IPC: 2.69211 cumulative IPC: 2.69195 (Simulation time: 0 hr 0 min 3 sec) 
Heartbeat CPU  0 instructions:    3000002 cycles:    1114031 heartbeat IPC: 2.69487 cumulative IPC: 2.69292 (Simulation time: 0 hr 0 min 5 sec) 
Heartbeat CPU  0 instructions:    4000000 cycles:    1484836 heartbeat IPC: 2.69683 cumulative IPC: 2.69390 (Simulation time: 0 hr 0 min 6 sec) 
Heartbeat CPU  0 instructions:    5000003 cycles:    1855609 heartbeat IPC: 2.69708 cumulative IPC: 2.69453 (Simulation time: 0 hr 0 min 8 sec) 
Heartbeat CPU  0 instructions:    6000003 cycles:    2226764 heartbeat IPC: 2.69429 cumulative IPC: 2.69449 (Simulation time: 0 hr 0 min 9 sec) 
Heartbeat CPU  0 instructions:    7000001 cycles:    2597678 heartbeat IPC: 2.69604 cumulative IPC: 2.69471 (Simulation time: 0 hr 0 min 11 sec) 
Heartbeat CPU  0 instructions:    8000000 cycles:    2968267 heartbeat IPC: 2.69840 cumulative IPC: 2.69518 (Simulation time: 0 hr 0 min 12 sec) 
Heartbeat CPU  0 instructions:    9000003 cycles:    3340196 heartbeat IPC: 2.68869 cumulative IPC: 2.69445 (Simulation time: 0 hr 0 min 14 sec) 
Heartbeat CPU  0 instructions:   10000002 cycles:    3711888 heartbeat IPC: 2.69040 cumulative IPC: 2.69405 (Simulation time: 0 hr 0 min 16 sec) 

Warmup complete CPU  0 instructions:   10000002 cycles:    3711888 (Simulation time: 0 hr 0 min 16 sec) 

Heartbeat CPU  0 instructions:   11000001 cycles:    9011056 heartbeat IPC: 0.18871 cumulative IPC: 0.18871 (Simulation time: 0 hr 0 min 18 sec) 
Heartbeat CPU  0 instructions:   12000000 cycles:   14296870 heartbeat IPC: 0.18919 cumulative IPC: 0.18895 (Simulation time: 0 hr 0 min 21 sec) 
Heartbeat CPU  0 instructions:   13000003 cycles:   19466483 heartbeat IPC: 0.19344 cumulative IPC: 0.19042 (Simulation time: 0 hr 0 min 24 sec) 
Heartbeat CPU  0 instructions:   14000000 cycles:   24634996 heartbeat IPC: 0.19348 cumulative IPC: 0.19118 (Simulation time: 0 hr 0 min 27 sec) 
Heartbeat CPU  0 instructions:   15000002 cycles:   29821038 heartbeat IPC: 0.19283 cumulative IPC: 0.19150 (Simulation time: 0 hr 0 min 30 sec) 
Heartbeat CPU  0 instructions:   16000000 cycles:   35034314 heartbeat IPC: 0.19182 cumulative IPC: 0.19156 (Simulation time: 0 hr 0 min 32 sec) 
Heartbeat CPU  0 instructions:   17000000 cycles:   40261818 heartbeat IPC: 0.19130 cumulative IPC: 0.19152 (Simulation time: 0 hr 0 min 35 sec) 
Heartbeat CPU  0 instructions:   18000000 cycles:   45475067 heartbeat IPC: 0.19182 cumulative IPC: 0.19156 (Simulation time: 0 hr 0 min 38 sec) 
Heartbeat CPU  0 instructions:   19000001 cycles:   50687695 heartbeat IPC: 0.19184 cumulative IPC: 0.19159 (Simulation time: 0 hr 0 min 41 sec) 
Heartbeat CPU  0 instructions:   20000000 cycles:   55904057 heartbeat IPC: 0.19170 cumulative IPC: 0.19160 (Simulation time: 0 hr 0 min 44 sec) 
Heartbeat CPU  0 instructions:   21000000 cycles:   61129274 heartbeat IPC: 0.19138 cumulative IPC: 0.19158 (Simulation time: 0 hr 0 min 47 sec) 
Heartbeat CPU  0 instructions:   22000000 cycles:   66354585 heartbeat IPC: 0.19138 cumulative IPC: 0.19156 (Simulation time: 0 hr 0 min 49 sec) 
Heartbeat CPU  0 instructions:   23000000 cycles:   71575158 heartbeat IPC: 0.19155 cumulative IPC: 0.19156 (Simulation time: 0 hr 0 min 52 sec) 
Heartbeat CPU  0 instructions:   24000000 cycles:   76801522 heartbeat IPC: 0.19134 cumulative IPC: 0.19155 (Simulation time: 0 hr 0 min 55 sec) 
Heartbeat CPU  0 instructions:   25000002 cycles:   82022307 heartbeat IPC: 0.19154 cumulative IPC: 0.19155 (Simulation time: 0 hr 0 min 58 sec) 
Heartbeat CPU  0 instructions:   26000001 cycles:   87239203 heartbeat IPC: 0.19168 cumulative IPC: 0.19155 (Simulation time: 0 hr 1 min 1 sec) 
Heartbeat CPU  0 instructions:   27000000 cycles:   92472773 heartbeat IPC: 0.19107 cumulative IPC: 0.19153 (Simulation time: 0 hr 1 min 4 sec) 
Heartbeat CPU  0 instructions:   28000000 cycles:   97706330 heartbeat IPC: 0.19107 cumulative IPC: 0.19150 (Simulation time: 0 hr 1 min 7 sec) 
Heartbeat CPU  0 instructions:   29000002 cycles:  102971332 heartbeat IPC: 0.18993 cumulative IPC: 0.19142 (Simulation time: 0 hr 1 min 9 sec) 
Heartbeat CPU  0 instructions:   30000001 cycles:  108241597 heartbeat IPC: 0.18974 cumulative IPC: 0.19133 (Simulation time: 0 hr 1 min 12 sec) 
Heartbeat CPU  0 instructions:   31000001 cycles:  113504676 heartbeat IPC: 0.19000 cumulative IPC: 0.19127 (Simulation time: 0 hr 1 min 15 sec) 
Heartbeat CPU  0 instructions:   32000000 cycles:  118793939 heartbeat IPC: 0.18906 cumulative IPC: 0.19117 (Simulation time: 0 hr 1 min 18 sec) 
Heartbeat CPU  0 instructions:   33000002 cycles:  124301611 heartbeat IPC: 0.18157 cumulative IPC: 0.19073 (Simulation time: 0 hr 1 min 21 sec) 
Heartbeat CPU  0 instructions:   34000003 cycles:  129668225 heartbeat IPC: 0.18634 cumulative IPC: 0.19054 (Simulation time: 0 hr 1 min 24 sec) 
Heartbeat CPU  0 instructions:   35000003 cycles:  135046204 heartbeat IPC: 0.18594 cumulative IPC: 0.19035 (Simulation time: 0 hr 1 min 27 sec) 
Heartbeat CPU  0 instructions:   36000000 cycles:  140658375 heartbeat IPC: 0.17818 cumulative IPC: 0.18986 (Simulation time: 0 hr 1 min 30 sec) 
Heartbeat CPU  0 instructions:   37000003 cycles:  146372276 heartbeat IPC: 0.17501 cumulative IPC: 0.18926 (Simulation time: 0 hr 1 min 33 sec) 
Heartbeat CPU  0 instructions:   38000001 cycles:  151634448 heartbeat IPC: 0.19004 cumulative IPC: 0.18929 (Simulation time: 0 hr 1 min 36 sec) 
Heartbeat CPU  0 instructions:   39000000 cycles:  156885180 heartbeat IPC: 0.19045 cumulative IPC: 0.18933 (Simulation time: 0 hr 1 min 38 sec) 
Heartbeat CPU  0 instructions:   40000000 cycles:  162134570 heartbeat IPC: 0.19050 cumulative IPC: 0.18937 (Simulation time: 0 hr 1 min 41 sec) 
Heartbeat CPU  0 instructions:   41000002 cycles:  167422613 heartbeat IPC: 0.18911 cumulative IPC: 0.18936 (Simulation time: 0 hr 1 min 44 sec) 
Heartbeat CPU  0 instructions:   42000000 cycles:  172761314 heartbeat IPC: 0.18731 cumulative IPC: 0.18929 (Simulation time: 0 hr 1 min 47 sec) 
Heartbeat CPU  0 instructions:   43000001 cycles:  178019727 heartbeat IPC: 0.19017 cumulative IPC: 0.18932 (Simulation time: 0 hr 1 min 50 sec) 
Heartbeat CPU  0 instructions:   44000000 cycles:  183272353 heartbeat IPC: 0.19038 cumulative IPC: 0.18935 (Simulation time: 0 hr 1 min 53 sec) 
Heartbeat CPU  0 instructions:   45000003 cycles:  188540604 heartbeat IPC: 0.18982 cumulative IPC: 0.18936 (Simulation time: 0 hr 1 min 56 sec) 
Heartbeat CPU  0 instructions:   46000003 cycles:  193770356 heartbeat IPC: 0.19121 cumulative IPC: 0.18942 (Simulation time: 0 hr 1 min 59 sec) 
Heartbeat CPU  0 instructions:   47000002 cycles:  199071531 heartbeat IPC: 0.18864 cumulative IPC: 0.18939 (Simulation time: 0 hr 2 min 1 sec) 
Heartbeat CPU  0 instructions:   48000000 cycles:  204323346 heartbeat IPC: 0.19041 cumulative IPC: 0.18942 (Simulation time: 0 hr 2 min 4 sec) 
Heartbeat CPU  0 instructions:   49000000 cycles:  209575011 heartbeat IPC: 0.19042 cumulative IPC: 0.18945 (Simulation time: 0 hr 2 min 7 sec) 
Heartbeat CPU  0 instructions:   50000003 cycles:  214829383 heartbeat IPC: 0.19032 cumulative IPC: 0.18947 (Simulation time: 0 hr 2 min 10 sec) 
Heartbeat CPU  0 instructions:   51000002 cycles:  220084884 heartbeat IPC: 0.19028 cumulative IPC: 0.18949 (Simulation time: 0 hr 2 min 13 sec) 
Heartbeat CPU  0 instructions:   52000000 cycles:  225340667 heartbeat IPC: 0.19027 cumulative IPC: 0.18951 (Simulation time: 0 hr 2 min 16 sec) 
Heartbeat CPU  0 instructions:   53000000 cycles:  230600176 heartbeat IPC: 0.19013 cumulative IPC: 0.18952 (Simulation time: 0 hr 2 min 19 sec) 
Heartbeat CPU  0 instructions:   54000000 cycles:  235888952 heartbeat IPC: 0.18908 cumulative IPC: 0.18951 (Simulation time: 0 hr 2 min 21 sec) 
Heartbeat CPU  0 instructions:   55000001 cycles:  241107984 heartbeat IPC: 0.19161 cumulative IPC: 0.18956 (Simulation time: 0 hr 2 min 24 sec) 
Heartbeat CPU  0 instructions:   56000000 cycles:  246390721 heartbeat IPC: 0.18930 cumulative IPC: 0.18955 (Simulation time: 0 hr 2 min 27 sec) 
Heartbeat CPU  0 instructions:   57000001 cycles:  251684937 heartbeat IPC: 0.18889 cumulative IPC: 0.18954 (Simulation time: 0 hr 2 min 30 sec) 
Heartbeat CPU  0 instructions:   58000002 cycles:  256951857 heartbeat IPC: 0.18986 cumulative IPC: 0.18954 (Simulation time: 0 hr 2 min 33 sec) 
Heartbeat CPU  0 instructions:   59000001 cycles:  262241104 heartbeat IPC: 0.18906 cumulative IPC: 0.18953 (Simulation time: 0 hr 2 min 36 sec) 
Heartbeat CPU  0 instructions:   60000000 cycles:  267529246 heartbeat IPC: 0.18910 cumulative IPC: 0.18953 (Simulation time: 0 hr 2 min 39 sec) 
Finished CPU 0 instructions: 50000000 cycles: 263817614 cumulative IPC: 0.18952 (Simulation time: 0 hr 2 min 39 sec) 

ChampSim completed all CPUs

[ROI Statistics]
Core_0_instructions 50000000
Core_0_cycles 263817614
Core_0_IPC 0.18952

Core_0_branch_prediction_accuracy 99.97478
Core_0_branch_MPKI 0.02810
Core_0_average_ROB_occupancy_at_mispredict 200.97011

Core_0_L1D_total_access 9385123
Core_0_L1D_total_hit 6832261
Core_0_L1D_total_miss 2552862
Core_0_L1D_loads 7167869
Core_0_L1D_load_hit 4753659
Core_0_L1D_load_miss 2414210
Core_0_L1D_RFOs 2217254
Core_0_L1D_RFO_hit 2078602
Core_0_L1D_RFO_miss 138652
Core_0_L1D_prefetches 0
Core_0_L1D_prefetch_hit 0
Core_0_L1D_prefetch_miss 0
Core_0_L1D_writebacks 0
Core_0_L1D_writeback_hit 0
Core_0_L1D_writeback_miss 0
Core_0_L1D_prefetch_requested 0
Core_0_L1D_prefetch_dropped 0
Core_0_L1D_prefetch_issued 0
Core_0_L1D_prefetch_filled 0
Core_0_L1D_prefetch_useful 0
Core_0_L1D_prefetch_useless 0
Core_0_L1D_prefetch_late 0
Core_0_L1D_average_miss_latency 157.51063

Core_0_L1D_rq_access 12589567
Core_0_L1D_rq_forward 0
Core_0_L1D_rq_merged 5410675
Core_0_L1D_rq_to_cache 7178892
Core_0_L1D_rq_full 0

Core_0_L1D_wq_access 2217254
Core_0_L1D_wq_forward 0
Core_0_L1D_wq_merged 0
Core_0_L1D_wq_to_cache 2217254
Core_0_L1D_wq_full 0

Core_0_L1D_pq_access 0
Core_0_L1D_pq_forward 0
Core_0_L1D_pq_merged 0
Core_0_L1D_pq_to_cache 0
Core_0_L1D_pq_full 0

Core_0_L1D_acc_epochs 152840
Core_0_L1D_acc_level_0 152840
Core_0_L1D_acc_level_1 0
Core_0_L1D_acc_level_2 0
Core_0_L1D_acc_level_3 0
Core_0_L1D_acc_level_4 0
Core_0_L1D_acc_level_5 0
Core_0_L1D_acc_level_6 0
Core_0_L1D_acc_level_7 0
Core_0_L1D_acc_level_8 0
Core_0_L1D_acc_level_9 0

Core_0_L1I_total_access 13089663
Core_0_L1I_total_hit 13089663
Core_0_L1I_total_miss 0
Core_0_L1I_loads 13089663
Core_0_L1I_load_hit 13089663
Core_0_L1I_load_miss 0
Core_0_L1I_RFOs 0
Core_0_L1I_RFO_hit 0
Core_0_L1I_RFO_miss 0
Core_0_L1I_prefetches 0
Core_0_L1I_prefetch_hit 0
Core_0_L1I_prefetch_miss 0
Core_0_L1I_writebacks 0
Core_0_L1I_writeback_hit 0
Core_0_L1I_writeback_miss 0
Core_0_L1I_prefetch_requested 0
Core_0_L1I_prefetch_dropped 0
Core_0_L1I_prefetch_issued 0
Core_0_L1I_prefetch_filled 0
Core_0_L1I_prefetch_useful 0
Core_0_L1I_prefetch_useless 0
Core_0_L1I_prefetch_late 0
Core_0_L1I_average_miss_latency -nan

Core_0_L1I_rq_access 50000006
Core_0_L1I_rq_forward 0
Core_0_L1I_rq_merged 36910343
Core_0_L1I_rq_to_cache 13089663
Core_0_L1I_rq_full 0

Core_0_L1I_wq_access 0
Core_0_L1I_wq_forward 0
Core_0_L1I_wq_merged 0
Core_0_L1I_wq_to_cache 0
Core_0_L1I_wq_full 0

Core_0_L1I_pq_access 0
Core_0_L1I_pq_forward 0
Core_0_L1I_pq_merged 0
Core_0_L1I_pq_to_cache 0
Core_0_L1I_pq_full 0

Core_0_L1I_acc_epochs 152840
Core_0_L1I_acc_level_0 152840
Core_0_L1I_acc_level_1 0
Core_0_L1I_acc_level_2 0
Core_0_L1I_acc_level_3 0
Core_0_L1I_acc_level_4 0
Core_0_L1I_acc_level_5 0
Core_0_L1I_acc_level_6 0
Core_0_L1I_acc_level_7 0
Core_0_L1I_acc_level_8 0
Core_0_L1I_acc_level_9 0

Core_0_L2C_total_access 3661511
Core_0_L2C_total_hit 2043127
Core_0_L2C_total_miss 1618384
Core_0_L2C_loads 2414210
Core_0_L2C_load_hit 899096
Core_0_L2C_load_miss 1515114
Core_0_L2C_RFOs 138652
Core_0_L2C_RFO_hit 35382
Core_0_L2C_RFO_miss 103270
Core_0_L2C_prefetches 0
Core_0_L2C_prefetch_hit 0
Core_0_L2C_prefetch_miss 0
Core_0_L2C_writebacks 1108649
Core_0_L2C_writeback_hit 1108649
Core_0_L2C_writeback_miss 0
Core_0_L2C_prefetch_requested 0
Core_0_L2C_prefetch_dropped 0
Core_0_L2C_prefetch_issued 0
Core_0_L2C_prefetch_filled 0
Core_0_L2C_prefetch_useful 0
Core_0_L2C_prefetch_useless 0
Core_0_L2C_prefetch_late 0
Core_0_L2C_average_miss_latency 211.28988

Core_0_L2C_rq_access 2552862
Core_0_L2C_rq_forward 0
Core_0_L2C_rq_merged 0
Core_0_L2C_rq_to_cache 2552862
Core_0_L2C_rq_full 0

Core_0_L2C_wq_access 1108649
Core_0_L2C_wq_forward 0
Core_0_L2C_wq_merged 0
Core_0_L2C_wq_to_cache 1108649
Core_0_L2C_wq_full 0

Core_0_L2C_pq_access 0
Core_0_L2C_pq_forward 0
Core_0_L2C_pq_merged 0
Core_0_L2C_pq_to_cache 0
Core_0_L2C_pq_full 0

Core_0_L2C_acc_epochs 152840
Core_0_L2C_acc_level_0 152840
Core_0_L2C_acc_level_1 0
Core_0_L2C_acc_level_2 0
Core_0_L2C_acc_level_3 0
Core_0_L2C_acc_level_4 0
Core_0_L2C_acc_level_5 0
Core_0_L2C_acc_level_6 0
Core_0_L2C_acc_level_7 0
Core_0_L2C_acc_level_8 0
Core_0_L2C_acc_level_9 0

Core_0_LLC_total_access 2727536
Core_0_LLC_total_hit 569868
Core_0_LLC_total_miss 2157668
Core_0_LLC_loads 1515114
Core_0_LLC_load_hit 128412
Core_0_LLC_load_miss 1386702
Core_0_LLC_RFOs 103270
Core_0_LLC_RFO_hit 38512
Core_0_LLC_RFO_miss 64758
Core_0_LLC_prefetches 0
Core_0_LLC_prefetch_hit 0
Core_0_LLC_prefetch_miss 0
Core_0_LLC_writebacks 1109152
Core_0_LLC_writeback_hit 402944
Core_0_LLC_writeback_miss 706208
Core_0_LLC_prefetch_requested 0
Core_0_LLC_prefetch_dropped 0
Core_0_LLC_prefetch_issued 0
Core_0_LLC_prefetch_filled 0
Core_0_LLC_prefetch_useful 0
Core_0_LLC_prefetch_useless 0
Core_0_LLC_prefetch_late 0
Core_0_LLC_average_miss_latency 132.78369

Core_0_LLC_rq_access 1618384
Core_0_LLC_rq_forward 0
Core_0_LLC_rq_merged 0
Core_0_LLC_rq_to_cache 1618384
Core_0_LLC_rq_full 0

Core_0_LLC_wq_access 1109153
Core_0_LLC_wq_forward 0
Core_0_LLC_wq_merged 0
Core_0_LLC_wq_to_cache 1109153
Core_0_LLC_wq_full 0

Core_0_LLC_pq_access 0
Core_0_LLC_pq_forward 0
Core_0_LLC_pq_merged 0
Core_0_LLC_pq_to_cache 0
Core_0_LLC_pq_full 0

Core_0_LLC_acc_epochs 261260
Core_0_LLC_acc_level_0 261260
Core_0_LLC_acc_level_1 0
Core_0_LLC_acc_level_2 0
Core_0_LLC_acc_level_3 0
Core_0_LLC_acc_level_4 0
Core_0_LLC_acc_level_5 0
Core_0_LLC_acc_level_6 0
Core_0_LLC_acc_level_7 0
Core_0_LLC_acc_level_8 0
Core_0_LLC_acc_level_9 0

Core_0_major_page_fault 0
Core_0_minor_page_fault 26622

Channel_0_RQ_row_buffer_hit 2891
Channel_0_RQ_row_buffer_miss 1448569
Channel_0_WQ_row_buffer_hit 81983
Channel_0_WQ_row_buffer_miss 1025905
Channel_0_WQ_full 0
Channel_0_dbus_congested 1168803

avg_congested_cycle 11

DRAM_bw_pochs 1045038
DRAM_bw_level_0 998614
DRAM_bw_level_1 46424
DRAM_bw_level_2 0
DRAM_bw_level_3 0
