*************************************************
   ChampSim Multicore Out-of-Order Simulator
   Last compiled: Apr  3 2025 20:54:34
*************************************************
parsing config file: /home/zir/Pythia/config/pythia.ini

trace_0 /home/zir/ChampSim/ML-DPC/ChampSimTraces/spec06/473.astar-s1.trace.gz
adding L2C_PREFETCHER: Scooby
Initialize SHIP state
warmup_instructions 10000000
simulation_instructions 50000000
champsim_seed 164
measure_ipc 0
measure_ipc_epoch 1000
measure_dram_bw 1
measure_dram_bw_epoch 256
measure_cache_acc 1
measure_cache_acc_epoch 1024
l1d_perfect 0
l2c_perfect 0
llc_perfect 0
l1d_semi_perfect 0
l2c_semi_perfect 0
llc_semi_perfect 0
semi_perfect_cache_page_buffer_size 64

num_cpus 1
cpu_freq 4000
dram_io_freq 2400
page_size 4096
block_size 64
max_read_per_cycle 8
max_fill_per_cycle 1
dram_channels 1
log2_dram_channels 0
dram_ranks 1
dram_banks 8
dram_rows 65536
dram_columns 128
dram_row_size 8
dram_size 4096
dram_pages 1048576

fetch_width 6
decode_width 6
exec_width 4
lq_width 2
sq_width 2
retire_width 4
scheduler_size 128
branch_mispredict_penalty 20
rob_size 256
lq_size 72
sq_size 56
num_instr_destinations_sparc 4
num_instr_destinations 2
num_instr_sources 4

itlb_set 16
itlb_way 8
itlb_rq_size 16
itlb_wq_size 16
itlb_pq_size 0
itlb_mshr_size 8
itlb_latency 1

dtlb_set 16
dtlb_way 4
dtlb_rq_size 16
dtlb_wq_size 16
dtlb_pq_size 0
dtlb_mshr_size 8
dtlb_latency 1

stlb_set 128
stlb_way 12
stlb_rq_size 32
stlb_wq_size 32
stlb_pq_size 0
stlb_mshr_size 16
stlb_latency 8

l1i_size 32
l1i_set 64
l1i_way 8
l1i_rq_size 64
l1i_wq_size 64
l1i_pq_size 8
l1i_mshr_size 8
l1i_latency 1

l1d_size 32
l1d_set 64
l1d_way 8
l1d_rq_size 64
l1d_wq_size 64
l1d_pq_size 8
l1d_mshr_size 16
l1d_latency 4

l2c_size 256
l2c_set 512
l2c_way 8
l2c_rq_size 32
l2c_wq_size 32
l2c_pq_size 32
l2c_mshr_size 32
l2c_latency 10

llc_size 2048
llc_set 2048
llc_way 16
llc_rq_size 32
llc_wq_size 32
llc_pq_size 32
llc_mshr_size 64
llc_latency 20

dram_channel_width 8
dram_wq_size 64
dram_rq_size 64
tRP 15
tRCD 15
tCAS 12.5
dram_dbus_turn_around_time 30
dram_write_high_wm 56
dram_write_low_wm 48
min_dram_writes_per_switch 16
dram_mtps 2400
dram_dbus_return_time 13

scooby_alpha 0.0065088
scooby_gamma 0.556301
scooby_epsilon 0.00182284
scooby_state_num_bits 10
scooby_max_states 1024
scooby_seed 200
scooby_policy EGreedy
scooby_learning_type SARSA
scooby_actions 1,3,4,5,10,11,12,22,23,30,32,-1,-3,-6,0,
scooby_max_actions 15
scooby_pt_size 256
scooby_st_size 64
scooby_max_pcs 5
scooby_max_offsets 5
scooby_max_deltas 5
scooby_reward_none -4
scooby_reward_incorrect -8
scooby_reward_correct_untimely 12
scooby_reward_correct_timely 20
scooby_brain_zero_init 0
scooby_enable_reward_all 0
scooby_enable_track_multiple 0
scooby_enable_reward_out_of_bounds 1
scooby_reward_out_of_bounds -12
scooby_state_type 1
scooby_state_hash_type 11
scooby_access_debug 0
scooby_print_access_debug 0
scooby_print_access_debug_pc deadbeef
scooby_print_access_debug_pc_count 0
scooby_print_trace 0
scooby_enable_state_action_stats 1
scooby_enable_reward_tracker_hit 0
scooby_reward_tracker_hit -2
scooby_enable_featurewise_engine 1
scooby_pref_degree 1
scooby_enable_dyn_degree 1
scooby_max_to_avg_q_thresholds 0.5,1,2,
scooby_dyn_degrees 1,2,4,4,
scooby_multi_deg_select_type 2
scooby_last_pref_offset_conf_thresholds 1,3,8,
scooby_dyn_degrees_type2 1,2,4,6,
scooby_action_tracker_size 2
scooby_high_bw_thresh 4
scooby_enable_hbw_reward 1
scooby_reward_hbw_correct_timely 20
scooby_reward_hbw_correct_untimely 12
scooby_reward_hbw_incorrect -14
scooby_reward_hbw_none -2
scooby_reward_hbw_out_of_bounds -12
scooby_reward_hbw_tracker_hit -2
scooby_last_pref_offset_conf_thresholds_hbw 1,3,8,
scooby_dyn_degrees_type2_hbw 1,2,4,6,

le_enable_trace 0
le_trace_interval 0
le_trace_file_name 
le_trace_state 0
le_enable_score_plot 0
le_plot_file_name 
le_plot_actions 
le_enable_action_trace 0
le_action_trace_interval 0
le_action_trace_name 
le_enable_action_plot 0

le_featurewise_active_features PC, PC_Delta
le_featurewise_num_tilings 3,3,
le_featurewise_num_tiles 128,128,
le_featurewise_hash_types 2,2,
le_featurewise_enable_tiling_offset 1,1,
le_featurewise_max_q_thresh 0.5
le_featurewise_enable_action_fallback 1
le_featurewise_feature_weights 1,1,
le_featurewise_enable_dynamic_weight 0
le_featurewise_weight_gradient 0.001
le_featurewise_disable_adjust_weight_all_features_align 1
le_featurewise_selective_update 0
le_featurewise_pooling_type 2
le_featurewise_enable_dyn_action_fallback 1
le_featurewise_bw_acc_check_level 1
le_featurewise_acc_thresh 2
le_featurewise_enable_trace 0
le_featurewise_trace_feature_type 0
le_featurewise_trace_feature 
le_featurewise_trace_interval 0
le_featurewise_trace_record_count 0
le_featurewise_trace_file_name 
le_featurewise_enable_score_plot 0
le_featurewise_plot_actions 
le_featurewise_plot_file_name 


Heartbeat CPU  0 instructions:    1000000 cycles:    1619578 heartbeat IPC: 0.61744 cumulative IPC: 0.61744 (Simulation time: 0 hr 0 min 2 sec) 
Heartbeat CPU  0 instructions:    2000003 cycles:    3235975 heartbeat IPC: 0.61866 cumulative IPC: 0.61805 (Simulation time: 0 hr 0 min 3 sec) 
Heartbeat CPU  0 instructions:    3000000 cycles:    4772195 heartbeat IPC: 0.65095 cumulative IPC: 0.62864 (Simulation time: 0 hr 0 min 5 sec) 
Heartbeat CPU  0 instructions:    4000000 cycles:    6363434 heartbeat IPC: 0.62844 cumulative IPC: 0.62859 (Simulation time: 0 hr 0 min 6 sec) 
Heartbeat CPU  0 instructions:    5000002 cycles:    8001375 heartbeat IPC: 0.61052 cumulative IPC: 0.62489 (Simulation time: 0 hr 0 min 7 sec) 
Heartbeat CPU  0 instructions:    6000000 cycles:    9595134 heartbeat IPC: 0.62745 cumulative IPC: 0.62532 (Simulation time: 0 hr 0 min 9 sec) 
Heartbeat CPU  0 instructions:    7000002 cycles:   11227306 heartbeat IPC: 0.61268 cumulative IPC: 0.62348 (Simulation time: 0 hr 0 min 10 sec) 
Heartbeat CPU  0 instructions:    8000000 cycles:   12888910 heartbeat IPC: 0.60183 cumulative IPC: 0.62069 (Simulation time: 0 hr 0 min 11 sec) 
Heartbeat CPU  0 instructions:    9000000 cycles:   14531866 heartbeat IPC: 0.60866 cumulative IPC: 0.61933 (Simulation time: 0 hr 0 min 13 sec) 
Heartbeat CPU  0 instructions:   10000003 cycles:   16177929 heartbeat IPC: 0.60751 cumulative IPC: 0.61813 (Simulation time: 0 hr 0 min 14 sec) 

Warmup complete CPU  0 instructions:   10000003 cycles:   16177929 (Simulation time: 0 hr 0 min 14 sec) 

Heartbeat CPU  0 instructions:   11000000 cycles:   20416703 heartbeat IPC: 0.23592 cumulative IPC: 0.23592 (Simulation time: 0 hr 0 min 16 sec) 
Heartbeat CPU  0 instructions:   12000000 cycles:   24403875 heartbeat IPC: 0.25080 cumulative IPC: 0.24313 (Simulation time: 0 hr 0 min 18 sec) 
Heartbeat CPU  0 instructions:   13000002 cycles:   28221662 heartbeat IPC: 0.26193 cumulative IPC: 0.24909 (Simulation time: 0 hr 0 min 20 sec) 
Heartbeat CPU  0 instructions:   14000002 cycles:   32360267 heartbeat IPC: 0.24163 cumulative IPC: 0.24718 (Simulation time: 0 hr 0 min 21 sec) 
Heartbeat CPU  0 instructions:   15000000 cycles:   36798269 heartbeat IPC: 0.22533 cumulative IPC: 0.24248 (Simulation time: 0 hr 0 min 23 sec) 
Heartbeat CPU  0 instructions:   16000000 cycles:   40901411 heartbeat IPC: 0.24372 cumulative IPC: 0.24268 (Simulation time: 0 hr 0 min 25 sec) 
Heartbeat CPU  0 instructions:   17000002 cycles:   44766201 heartbeat IPC: 0.25875 cumulative IPC: 0.24486 (Simulation time: 0 hr 0 min 27 sec) 
Heartbeat CPU  0 instructions:   18000000 cycles:   48670514 heartbeat IPC: 0.25613 cumulative IPC: 0.24621 (Simulation time: 0 hr 0 min 29 sec) 
Heartbeat CPU  0 instructions:   19000000 cycles:   52684253 heartbeat IPC: 0.24914 cumulative IPC: 0.24653 (Simulation time: 0 hr 0 min 31 sec) 
Heartbeat CPU  0 instructions:   20000000 cycles:   56737289 heartbeat IPC: 0.24673 cumulative IPC: 0.24655 (Simulation time: 0 hr 0 min 33 sec) 
Heartbeat CPU  0 instructions:   21000001 cycles:   60900970 heartbeat IPC: 0.24017 cumulative IPC: 0.24596 (Simulation time: 0 hr 0 min 34 sec) 
Heartbeat CPU  0 instructions:   22000002 cycles:   65136435 heartbeat IPC: 0.23610 cumulative IPC: 0.24511 (Simulation time: 0 hr 0 min 36 sec) 
Heartbeat CPU  0 instructions:   23000003 cycles:   69580106 heartbeat IPC: 0.22504 cumulative IPC: 0.24344 (Simulation time: 0 hr 0 min 38 sec) 
Heartbeat CPU  0 instructions:   24000000 cycles:   74188194 heartbeat IPC: 0.21701 cumulative IPC: 0.24134 (Simulation time: 0 hr 0 min 40 sec) 
Heartbeat CPU  0 instructions:   25000001 cycles:   79190162 heartbeat IPC: 0.19992 cumulative IPC: 0.23805 (Simulation time: 0 hr 0 min 42 sec) 
Heartbeat CPU  0 instructions:   26000000 cycles:   84528448 heartbeat IPC: 0.18733 cumulative IPC: 0.23409 (Simulation time: 0 hr 0 min 44 sec) 
Heartbeat CPU  0 instructions:   27000000 cycles:   89686455 heartbeat IPC: 0.19387 cumulative IPC: 0.23127 (Simulation time: 0 hr 0 min 46 sec) 
Heartbeat CPU  0 instructions:   28000000 cycles:   94688219 heartbeat IPC: 0.19993 cumulative IPC: 0.22927 (Simulation time: 0 hr 0 min 48 sec) 
Heartbeat CPU  0 instructions:   29000000 cycles:   99356260 heartbeat IPC: 0.21422 cumulative IPC: 0.22842 (Simulation time: 0 hr 0 min 50 sec) 
Heartbeat CPU  0 instructions:   30000000 cycles:  104054484 heartbeat IPC: 0.21285 cumulative IPC: 0.22759 (Simulation time: 0 hr 0 min 52 sec) 
Heartbeat CPU  0 instructions:   31000001 cycles:  108850773 heartbeat IPC: 0.20849 cumulative IPC: 0.22660 (Simulation time: 0 hr 0 min 54 sec) 
Heartbeat CPU  0 instructions:   32000000 cycles:  113803585 heartbeat IPC: 0.20191 cumulative IPC: 0.22535 (Simulation time: 0 hr 0 min 56 sec) 
Heartbeat CPU  0 instructions:   33000001 cycles:  118941967 heartbeat IPC: 0.19461 cumulative IPC: 0.22381 (Simulation time: 0 hr 0 min 58 sec) 
Heartbeat CPU  0 instructions:   34000002 cycles:  124197995 heartbeat IPC: 0.19026 cumulative IPC: 0.22218 (Simulation time: 0 hr 1 min 0 sec) 
Heartbeat CPU  0 instructions:   35000003 cycles:  129279981 heartbeat IPC: 0.19677 cumulative IPC: 0.22104 (Simulation time: 0 hr 1 min 2 sec) 
Heartbeat CPU  0 instructions:   36000000 cycles:  134591021 heartbeat IPC: 0.18829 cumulative IPC: 0.21957 (Simulation time: 0 hr 1 min 4 sec) 
Heartbeat CPU  0 instructions:   37000000 cycles:  140009618 heartbeat IPC: 0.18455 cumulative IPC: 0.21804 (Simulation time: 0 hr 1 min 6 sec) 
Heartbeat CPU  0 instructions:   38000003 cycles:  145291042 heartbeat IPC: 0.18934 cumulative IPC: 0.21686 (Simulation time: 0 hr 1 min 8 sec) 
Heartbeat CPU  0 instructions:   39000000 cycles:  150434760 heartbeat IPC: 0.19441 cumulative IPC: 0.21600 (Simulation time: 0 hr 1 min 10 sec) 
Heartbeat CPU  0 instructions:   40000000 cycles:  155427086 heartbeat IPC: 0.20031 cumulative IPC: 0.21544 (Simulation time: 0 hr 1 min 12 sec) 
Heartbeat CPU  0 instructions:   41000001 cycles:  160350186 heartbeat IPC: 0.20312 cumulative IPC: 0.21502 (Simulation time: 0 hr 1 min 14 sec) 
Heartbeat CPU  0 instructions:   42000000 cycles:  165284345 heartbeat IPC: 0.20267 cumulative IPC: 0.21461 (Simulation time: 0 hr 1 min 16 sec) 
Heartbeat CPU  0 instructions:   43000000 cycles:  169814445 heartbeat IPC: 0.22075 cumulative IPC: 0.21479 (Simulation time: 0 hr 1 min 18 sec) 
Heartbeat CPU  0 instructions:   44000000 cycles:  174269278 heartbeat IPC: 0.22448 cumulative IPC: 0.21507 (Simulation time: 0 hr 1 min 20 sec) 
Heartbeat CPU  0 instructions:   45000001 cycles:  178849862 heartbeat IPC: 0.21831 cumulative IPC: 0.21516 (Simulation time: 0 hr 1 min 22 sec) 
Heartbeat CPU  0 instructions:   46000002 cycles:  183242536 heartbeat IPC: 0.22765 cumulative IPC: 0.21549 (Simulation time: 0 hr 1 min 24 sec) 
Heartbeat CPU  0 instructions:   47000002 cycles:  187606495 heartbeat IPC: 0.22915 cumulative IPC: 0.21583 (Simulation time: 0 hr 1 min 26 sec) 
Heartbeat CPU  0 instructions:   48000000 cycles:  192004947 heartbeat IPC: 0.22735 cumulative IPC: 0.21612 (Simulation time: 0 hr 1 min 27 sec) 
Heartbeat CPU  0 instructions:   49000003 cycles:  196575354 heartbeat IPC: 0.21880 cumulative IPC: 0.21619 (Simulation time: 0 hr 1 min 29 sec) 
Heartbeat CPU  0 instructions:   50000000 cycles:  201049199 heartbeat IPC: 0.22352 cumulative IPC: 0.21637 (Simulation time: 0 hr 1 min 31 sec) 
Heartbeat CPU  0 instructions:   51000001 cycles:  206137339 heartbeat IPC: 0.19654 cumulative IPC: 0.21584 (Simulation time: 0 hr 1 min 33 sec) 
Heartbeat CPU  0 instructions:   52000000 cycles:  211470754 heartbeat IPC: 0.18750 cumulative IPC: 0.21506 (Simulation time: 0 hr 1 min 35 sec) 
Heartbeat CPU  0 instructions:   53000000 cycles:  215678993 heartbeat IPC: 0.23763 cumulative IPC: 0.21554 (Simulation time: 0 hr 1 min 37 sec) 
Heartbeat CPU  0 instructions:   54000002 cycles:  219922992 heartbeat IPC: 0.23563 cumulative IPC: 0.21596 (Simulation time: 0 hr 1 min 39 sec) 
Heartbeat CPU  0 instructions:   55000000 cycles:  224110169 heartbeat IPC: 0.23882 cumulative IPC: 0.21642 (Simulation time: 0 hr 1 min 41 sec) 
Heartbeat CPU  0 instructions:   56000000 cycles:  228319777 heartbeat IPC: 0.23755 cumulative IPC: 0.21684 (Simulation time: 0 hr 1 min 43 sec) 
Heartbeat CPU  0 instructions:   57000001 cycles:  232372024 heartbeat IPC: 0.24678 cumulative IPC: 0.21740 (Simulation time: 0 hr 1 min 45 sec) 
Heartbeat CPU  0 instructions:   58000001 cycles:  236307168 heartbeat IPC: 0.25412 cumulative IPC: 0.21805 (Simulation time: 0 hr 1 min 47 sec) 
Heartbeat CPU  0 instructions:   59000000 cycles:  240423504 heartbeat IPC: 0.24293 cumulative IPC: 0.21851 (Simulation time: 0 hr 1 min 49 sec) 
Heartbeat CPU  0 instructions:   60000000 cycles:  244367884 heartbeat IPC: 0.25353 cumulative IPC: 0.21912 (Simulation time: 0 hr 1 min 50 sec) 
Finished CPU 0 instructions: 50000000 cycles: 228189967 cumulative IPC: 0.21912 (Simulation time: 0 hr 1 min 50 sec) 

ChampSim completed all CPUs

[ROI Statistics]
Core_0_instructions 50000000
Core_0_cycles 228189967
Core_0_IPC 0.21912

Core_0_branch_prediction_accuracy 75.07748
Core_0_branch_MPKI 47.62220
Core_0_average_ROB_occupancy_at_mispredict 20.74689

Core_0_L1D_total_access 13608226
Core_0_L1D_total_hit 12068278
Core_0_L1D_total_miss 1539948
Core_0_L1D_loads 11471526
Core_0_L1D_load_hit 9957176
Core_0_L1D_load_miss 1514350
Core_0_L1D_RFOs 2136700
Core_0_L1D_RFO_hit 2111102
Core_0_L1D_RFO_miss 25598
Core_0_L1D_prefetches 0
Core_0_L1D_prefetch_hit 0
Core_0_L1D_prefetch_miss 0
Core_0_L1D_writebacks 0
Core_0_L1D_writeback_hit 0
Core_0_L1D_writeback_miss 0
Core_0_L1D_prefetch_requested 0
Core_0_L1D_prefetch_dropped 0
Core_0_L1D_prefetch_issued 0
Core_0_L1D_prefetch_filled 0
Core_0_L1D_prefetch_useful 0
Core_0_L1D_prefetch_useless 0
Core_0_L1D_prefetch_late 0
Core_0_L1D_average_miss_latency 48.17840

Core_0_L1D_rq_access 14064072
Core_0_L1D_rq_forward 0
Core_0_L1D_rq_merged 2534986
Core_0_L1D_rq_to_cache 11529086
Core_0_L1D_rq_full 0

Core_0_L1D_wq_access 2138886
Core_0_L1D_wq_forward 0
Core_0_L1D_wq_merged 0
Core_0_L1D_wq_to_cache 2138886
Core_0_L1D_wq_full 0

Core_0_L1D_pq_access 0
Core_0_L1D_pq_forward 0
Core_0_L1D_pq_merged 0
Core_0_L1D_pq_to_cache 0
Core_0_L1D_pq_full 0

Core_0_L1D_acc_epochs 207510
Core_0_L1D_acc_level_0 207510
Core_0_L1D_acc_level_1 0
Core_0_L1D_acc_level_2 0
Core_0_L1D_acc_level_3 0
Core_0_L1D_acc_level_4 0
Core_0_L1D_acc_level_5 0
Core_0_L1D_acc_level_6 0
Core_0_L1D_acc_level_7 0
Core_0_L1D_acc_level_8 0
Core_0_L1D_acc_level_9 0

Core_0_L1I_total_access 10444610
Core_0_L1I_total_hit 10444610
Core_0_L1I_total_miss 0
Core_0_L1I_loads 10444610
Core_0_L1I_load_hit 10444610
Core_0_L1I_load_miss 0
Core_0_L1I_RFOs 0
Core_0_L1I_RFO_hit 0
Core_0_L1I_RFO_miss 0
Core_0_L1I_prefetches 0
Core_0_L1I_prefetch_hit 0
Core_0_L1I_prefetch_miss 0
Core_0_L1I_writebacks 0
Core_0_L1I_writeback_hit 0
Core_0_L1I_writeback_miss 0
Core_0_L1I_prefetch_requested 0
Core_0_L1I_prefetch_dropped 0
Core_0_L1I_prefetch_issued 0
Core_0_L1I_prefetch_filled 0
Core_0_L1I_prefetch_useful 0
Core_0_L1I_prefetch_useless 0
Core_0_L1I_prefetch_late 0
Core_0_L1I_average_miss_latency -nan

Core_0_L1I_rq_access 49999999
Core_0_L1I_rq_forward 0
Core_0_L1I_rq_merged 39555389
Core_0_L1I_rq_to_cache 10444610
Core_0_L1I_rq_full 0

Core_0_L1I_wq_access 0
Core_0_L1I_wq_forward 0
Core_0_L1I_wq_merged 0
Core_0_L1I_wq_to_cache 0
Core_0_L1I_wq_full 0

Core_0_L1I_pq_access 0
Core_0_L1I_pq_forward 0
Core_0_L1I_pq_merged 0
Core_0_L1I_pq_to_cache 0
Core_0_L1I_pq_full 0

Core_0_L1I_acc_epochs 207510
Core_0_L1I_acc_level_0 207510
Core_0_L1I_acc_level_1 0
Core_0_L1I_acc_level_2 0
Core_0_L1I_acc_level_3 0
Core_0_L1I_acc_level_4 0
Core_0_L1I_acc_level_5 0
Core_0_L1I_acc_level_6 0
Core_0_L1I_acc_level_7 0
Core_0_L1I_acc_level_8 0
Core_0_L1I_acc_level_9 0

Core_0_L2C_total_access 3526390
Core_0_L2C_total_hit 1235825
Core_0_L2C_total_miss 2290565
Core_0_L2C_loads 1514329
Core_0_L2C_load_hit 408514
Core_0_L2C_load_miss 1105815
Core_0_L2C_RFOs 25595
Core_0_L2C_RFO_hit 10804
Core_0_L2C_RFO_miss 14791
Core_0_L2C_prefetches 1485309
Core_0_L2C_prefetch_hit 329928
Core_0_L2C_prefetch_miss 1155381
Core_0_L2C_writebacks 501157
Core_0_L2C_writeback_hit 486579
Core_0_L2C_writeback_miss 14578
Core_0_L2C_prefetch_requested 1778570
Core_0_L2C_prefetch_dropped 0
Core_0_L2C_prefetch_issued 1778570
Core_0_L2C_prefetch_filled 1355080
Core_0_L2C_prefetch_useful 148947
Core_0_L2C_prefetch_useless 1204467
Core_0_L2C_prefetch_late 511
Core_0_L2C_average_miss_latency 42.15183

Core_0_L2C_rq_access 1539948
Core_0_L2C_rq_forward 0
Core_0_L2C_rq_merged 0
Core_0_L2C_rq_to_cache 1539924
Core_0_L2C_rq_full 0

Core_0_L2C_wq_access 501157
Core_0_L2C_wq_forward 30
Core_0_L2C_wq_merged 0
Core_0_L2C_wq_to_cache 501157
Core_0_L2C_wq_full 0

Core_0_L2C_pq_access 1778570
Core_0_L2C_pq_forward 0
Core_0_L2C_pq_merged 101
Core_0_L2C_pq_to_cache 1778463
Core_0_L2C_pq_full 0

Core_0_L2C_acc_epochs 207510
Core_0_L2C_acc_level_0 112876
Core_0_L2C_acc_level_1 32473
Core_0_L2C_acc_level_2 23576
Core_0_L2C_acc_level_3 11869
Core_0_L2C_acc_level_4 5284
Core_0_L2C_acc_level_5 8482
Core_0_L2C_acc_level_6 4005
Core_0_L2C_acc_level_7 2923
Core_0_L2C_acc_level_8 1703
Core_0_L2C_acc_level_9 4319

Core_0_LLC_total_access 2698417
Core_0_LLC_total_hit 2552187
Core_0_LLC_total_miss 146230
Core_0_LLC_loads 1105371
Core_0_LLC_load_hit 1030343
Core_0_LLC_load_miss 75028
Core_0_LLC_RFOs 14791
Core_0_LLC_RFO_hit 14741
Core_0_LLC_RFO_miss 50
Core_0_LLC_prefetches 1155822
Core_0_LLC_prefetch_hit 1086183
Core_0_LLC_prefetch_miss 69639
Core_0_LLC_writebacks 422433
Core_0_LLC_writeback_hit 420920
Core_0_LLC_writeback_miss 1513
Core_0_LLC_prefetch_requested 0
Core_0_LLC_prefetch_dropped 0
Core_0_LLC_prefetch_issued 0
Core_0_LLC_prefetch_filled 93173
Core_0_LLC_prefetch_useful 28521
Core_0_LLC_prefetch_useless 55894
Core_0_LLC_prefetch_late 0
Core_0_LLC_average_miss_latency 178.31491

Core_0_LLC_rq_access 1120164
Core_0_LLC_rq_forward 0
Core_0_LLC_rq_merged 0
Core_0_LLC_rq_to_cache 1120162
Core_0_LLC_rq_full 0

Core_0_LLC_wq_access 422433
Core_0_LLC_wq_forward 3
Core_0_LLC_wq_merged 0
Core_0_LLC_wq_to_cache 422433
Core_0_LLC_wq_full 0

Core_0_LLC_pq_access 1355591
Core_0_LLC_pq_forward 0
Core_0_LLC_pq_merged 0
Core_0_LLC_pq_to_cache 1355590
Core_0_LLC_pq_full 0

Core_0_LLC_acc_epochs 238641
Core_0_LLC_acc_level_0 220274
Core_0_LLC_acc_level_1 5902
Core_0_LLC_acc_level_2 4578
Core_0_LLC_acc_level_3 1430
Core_0_LLC_acc_level_4 484
Core_0_LLC_acc_level_5 3246
Core_0_LLC_acc_level_6 488
Core_0_LLC_acc_level_7 532
Core_0_LLC_acc_level_8 200
Core_0_LLC_acc_level_9 1507

Core_0_major_page_fault 0
Core_0_minor_page_fault 4614

scooby_st_lookup 1806021
scooby_st_hit 327495
scooby_st_evict 1478462
scooby_st_insert 1478526
scooby_st_streaming 0

scooby_predict_called 1806021
scooby_predict_out_of_bounds 49871
scooby_predict_action_1 1704415
scooby_predict_issue_action_1 1690218
scooby_predict_hit_action_1 14197
scooby_predict_out_of_bounds_action_1 41653
scooby_predict_action_3 4303
scooby_predict_issue_action_3 3398
scooby_predict_hit_action_3 905
scooby_predict_out_of_bounds_action_3 374
scooby_predict_action_4 4861
scooby_predict_issue_action_4 2708
scooby_predict_hit_action_4 2153
scooby_predict_out_of_bounds_action_4 479
scooby_predict_action_5 4059
scooby_predict_issue_action_5 2883
scooby_predict_hit_action_5 1176
scooby_predict_out_of_bounds_action_5 388
scooby_predict_action_10 2898
scooby_predict_issue_action_10 2453
scooby_predict_hit_action_10 445
scooby_predict_out_of_bounds_action_10 573
scooby_predict_action_11 2732
scooby_predict_issue_action_11 2290
scooby_predict_hit_action_11 442
scooby_predict_out_of_bounds_action_11 664
scooby_predict_action_12 2497
scooby_predict_issue_action_12 2404
scooby_predict_hit_action_12 93
scooby_predict_out_of_bounds_action_12 607
scooby_predict_action_22 2170
scooby_predict_issue_action_22 2120
scooby_predict_hit_action_22 50
scooby_predict_out_of_bounds_action_22 838
scooby_predict_action_23 1996
scooby_predict_issue_action_23 1960
scooby_predict_hit_action_23 36
scooby_predict_out_of_bounds_action_23 958
scooby_predict_action_30 1580
scooby_predict_issue_action_30 1568
scooby_predict_hit_action_30 12
scooby_predict_out_of_bounds_action_30 1227
scooby_predict_action_32 1447
scooby_predict_issue_action_32 1438
scooby_predict_hit_action_32 9
scooby_predict_out_of_bounds_action_32 1308
scooby_predict_action_-1 8177
scooby_predict_issue_action_-1 3465
scooby_predict_hit_action_-1 4712
scooby_predict_out_of_bounds_action_-1 111
scooby_predict_action_-3 6338
scooby_predict_issue_action_-3 2925
scooby_predict_hit_action_-3 3413
scooby_predict_out_of_bounds_action_-3 229
scooby_predict_action_-6 3717
scooby_predict_issue_action_-6 2634
scooby_predict_hit_action_-6 1083
scooby_predict_out_of_bounds_action_-6 462
scooby_predict_action_0 4960
scooby_predict_issue_action_0 0
scooby_predict_hit_action_0 0
scooby_predict_out_of_bounds_action_0 0
scooby_predict_multi_deg_called 28510
scooby_predict_predicted 1778570
scooby_predict_multi_deg 56106
scooby_predict_multi_deg_2 28204
scooby_predict_multi_deg_3 11029
scooby_predict_multi_deg_4 10920
scooby_predict_multi_deg_5 3001
scooby_predict_multi_deg_6 2952
scooby_predict_multi_deg_7 0
scooby_predict_multi_deg_8 0
scooby_predict_multi_deg_9 0
scooby_predict_multi_deg_10 0
scooby_predict_multi_deg_11 0
scooby_predict_multi_deg_12 0
scooby_predict_multi_deg_13 0
scooby_predict_multi_deg_14 0
scooby_predict_multi_deg_15 0
scooby_predict_multi_deg_16 0

scooby_selected_deg_1 1693954
scooby_selected_deg_2 17335
scooby_selected_deg_3 0
scooby_selected_deg_4 8065
scooby_selected_deg_5 0
scooby_selected_deg_6 3110
scooby_selected_deg_7 0
scooby_selected_deg_8 0
scooby_selected_deg_9 0
scooby_selected_deg_10 0
scooby_selected_deg_11 0
scooby_selected_deg_12 0
scooby_selected_deg_13 0
scooby_selected_deg_14 0
scooby_selected_deg_15 0
scooby_selected_deg_16 0

scooby_state_409a14|14|0 11211,3,0,1,0,0,1,2,0,0,1,1,0,0,3,11223,
scooby_state_409a14|15|0 11206,1,0,1,1,1,2,2,1,2,0,0,0,2,1,11220,
scooby_state_409a14|25|0 10717,2,1,1,2,1,1,0,0,1,0,0,2,1,1,10730,
scooby_state_409a14|26|0 9901,0,0,0,2,2,0,1,1,2,1,1,4,2,1,9918,
scooby_state_409a0a|63|0 9801,7,0,0,1,3,1,0,0,9,2,1,1,1,4,9831,
scooby_state_409a14|11|0 9628,1,1,2,2,1,4,1,0,2,0,0,0,0,1,9643,
scooby_state_409a0a|62|0 9074,44,22,2,0,1,2,1,5,31,1,1,4,2,44,9234,
scooby_state_409a14|16|0 9170,1,3,3,1,3,0,0,1,2,0,0,2,0,1,9187,
scooby_state_409a14|5|0 8986,1,0,0,1,2,1,1,0,0,1,2,2,0,0,8997,
scooby_state_409a14|13|0 8977,0,2,1,0,1,1,1,0,0,0,2,1,0,0,8986,
scooby_state_409a14|7|0 8901,2,0,1,0,1,2,0,1,0,0,1,1,0,0,8910,
scooby_state_409a14|24|0 8805,1,4,3,2,1,2,1,1,1,2,4,1,3,0,8831,
scooby_state_409a14|1|0 8801,1,2,1,0,0,1,1,0,0,0,1,3,1,2,8814,
scooby_state_409a14|10|0 8779,0,1,1,0,0,2,1,1,2,1,0,0,1,5,8794,
scooby_state_409a14|6|0 8726,1,0,0,1,1,0,0,2,0,3,0,1,1,0,8736,
scooby_state_409a14|12|0 8455,1,0,1,2,1,0,0,2,2,1,0,1,1,1,8468,
scooby_state_409a14|22|0 8361,0,2,1,2,2,0,2,1,1,0,0,1,1,3,8377,
scooby_state_409a14|23|0 8242,1,1,0,0,0,0,0,0,0,1,0,2,3,0,8250,
scooby_state_409a14|4|0 8221,0,1,0,2,0,1,0,2,0,2,1,0,2,1,8233,
scooby_state_409a14|9|0 8180,1,3,0,0,0,1,3,1,0,3,0,0,1,1,8194,
scooby_state_409a14|0|0 8150,2,0,2,3,2,2,2,2,0,3,1,2,3,2,8176,
scooby_state_409a14|3|0 8094,2,0,1,2,0,1,1,2,2,2,1,2,1,1,8112,
scooby_state_409a14|31|0 7844,1,0,1,2,0,0,2,4,0,2,1,1,1,3,7862,
scooby_state_409a14|8|0 7846,1,0,2,2,2,3,1,0,0,1,3,0,0,0,7861,
scooby_state_409a14|21|0 7278,0,2,2,0,0,1,1,0,1,0,3,4,2,1,7295,
scooby_state_409a14|48|0 7233,0,2,1,0,2,0,1,0,3,1,0,0,0,0,7243,
scooby_state_409a14|30|0 7232,2,1,0,0,0,0,1,2,1,0,1,0,2,1,7243,
scooby_state_409a14|45|0 7168,1,0,1,1,2,0,1,5,2,0,1,0,0,0,7182,
scooby_state_409a14|27|0 7044,0,3,0,35,23,0,1,0,3,0,2,1,15,43,7170,
scooby_state_409a14|44|0 6977,2,1,1,3,2,2,0,0,2,1,0,0,1,2,6994,
scooby_state_409a0a|31|0 6952,2,0,2,2,0,1,0,2,3,1,1,1,0,1,6968,
scooby_state_409a0a|61|0 6784,8,34,0,3,2,0,35,54,1,0,0,2,0,33,6956,
scooby_state_409a0a|29|0 6870,0,0,0,1,2,0,1,2,0,1,0,1,1,1,6880,
scooby_state_409a14|32|0 6755,1,0,1,2,0,1,0,35,4,1,2,38,0,0,6840,
scooby_state_409a14|46|0 6822,1,2,0,0,1,0,0,0,1,1,1,0,0,2,6831,
scooby_state_409a14|47|0 6818,3,1,0,2,2,0,1,0,1,0,1,0,0,2,6831,
scooby_state_409a0a|0|0 6784,3,0,0,0,1,0,1,0,2,1,1,2,0,0,6795,
scooby_state_409a14|2|0 6758,1,1,1,1,2,0,0,1,0,0,2,0,0,1,6768,
scooby_state_409a14|17|0 6752,3,1,0,3,0,2,0,1,1,0,1,0,0,1,6765,
scooby_state_409a14|43|0 6719,1,1,0,1,0,1,2,0,2,1,0,3,3,1,6735,
scooby_state_409a14|28|0 6688,2,0,0,3,8,1,0,0,0,0,0,0,2,14,6718,
scooby_state_409a0a|28|0 6598,1,0,0,1,1,0,0,0,2,0,1,1,0,1,6606,
scooby_state_409a14|49|0 6503,1,1,0,0,1,0,0,1,0,0,0,2,0,1,6510,
scooby_state_409a14|39|0 6355,2,0,2,0,1,25,28,1,1,36,26,4,1,4,6486,
scooby_state_409a14|20|0 6423,1,0,0,2,2,0,2,0,0,2,1,0,0,4,6437,
scooby_state_409a0a|30|0 6419,1,0,1,2,0,2,2,2,1,3,1,2,0,0,6436,
scooby_state_409a95|63|0 5975,14,35,15,9,41,18,15,37,20,16,34,34,2,45,6310,
scooby_state_409a0a|14|0 6261,2,1,1,2,1,3,0,2,1,0,0,1,0,1,6276,
scooby_state_409a0a|60|0 5947,3,16,1,0,0,1,0,10,1,0,1,0,0,11,5991,
scooby_state_409a0a|32|0 5984,2,0,0,1,0,0,0,0,1,0,2,0,0,1,5991,
scooby_state_409a14|29|0 5915,1,1,1,0,1,0,1,1,1,1,0,1,0,0,5924,
scooby_state_409a0a|27|0 5846,0,0,1,0,0,2,3,0,2,0,0,1,2,0,5857,
scooby_state_409a0a|13|0 5817,1,0,0,0,2,0,3,0,1,0,0,0,0,1,5825,
scooby_state_409a0a|33|0 5685,0,0,1,0,0,2,0,0,0,0,1,1,1,1,5692,
scooby_state_409a0a|12|0 5653,0,1,0,0,0,0,0,0,0,0,0,2,1,0,5657,
scooby_state_409a0a|11|0 5645,0,0,1,2,1,1,1,0,0,1,2,0,1,1,5656,
scooby_state_409a0a|1|0 5470,33,1,1,1,3,62,0,2,2,1,0,0,68,0,5644,
scooby_state_409a0a|26|0 5624,2,0,0,0,0,0,1,0,2,0,1,1,1,1,5633,
scooby_state_409a0a|58|0 5562,0,0,0,1,0,3,0,0,1,0,0,1,1,1,5570,
scooby_state_409a0a|57|0 5542,0,0,1,1,1,0,1,1,0,2,1,0,0,3,5553,
scooby_state_409a0a|51|0 5380,1,0,0,1,7,1,0,1,3,2,0,1,1,0,5398,
scooby_state_409a0a|24|0 5381,1,2,0,3,0,1,0,2,1,0,0,0,1,1,5393,
scooby_state_409a0a|59|0 5373,1,2,1,0,0,1,2,0,0,0,0,0,0,1,5381,
scooby_state_409a0a|56|0 5303,2,2,26,0,0,1,1,1,1,26,1,0,0,3,5367,
scooby_state_409a0a|20|0 5328,0,1,0,1,2,0,0,0,0,2,0,2,0,1,5337,
scooby_state_409a0a|23|0 5302,0,1,0,0,0,1,1,0,0,1,0,1,1,1,5309,
scooby_state_409a0a|53|0 5239,0,1,1,1,25,0,1,0,1,0,1,26,0,0,5296,
scooby_state_409a0a|22|0 5251,0,1,0,0,2,3,0,1,1,1,1,0,0,0,5261,
scooby_state_409a0a|19|0 5132,1,0,1,0,0,1,48,0,0,1,1,1,0,57,5243,
scooby_state_409a0a|54|0 5038,27,1,3,2,0,1,1,2,40,25,0,0,1,1,5142,
scooby_state_409a0a|21|0 5133,0,0,0,1,1,1,0,0,2,0,0,0,0,1,5139,
scooby_state_409a0a|52|0 5100,1,0,0,2,5,0,0,1,1,0,0,4,2,2,5118,
scooby_state_409a0a|10|0 5035,1,0,1,0,1,0,0,1,2,0,1,0,0,2,5044,
scooby_state_409a0a|34|0 5014,0,0,0,1,1,0,1,0,0,0,1,1,1,0,5020,
scooby_state_409a0a|15|0 4888,0,0,0,47,7,0,0,0,3,0,32,27,0,0,5004,
scooby_state_409a0a|2|0 4936,2,0,3,0,13,1,1,0,0,2,0,3,14,1,4976,
scooby_state_409a0a|50|0 4937,1,0,1,1,1,0,0,1,1,0,0,0,2,2,4947,
scooby_state_409a0a|55|0 4936,2,1,1,0,0,1,0,0,0,2,1,0,0,2,4946,
scooby_state_409a0a|25|0 4855,1,0,1,0,0,2,0,1,2,1,0,0,0,0,4863,
scooby_state_409a14|50|0 4778,0,1,0,1,1,0,2,0,1,0,0,1,0,2,4787,
scooby_state_409a14|18|0 4678,2,0,0,0,24,28,1,0,0,1,40,2,1,7,4784,
scooby_state_409a0a|3|0 4748,0,0,0,1,7,1,4,0,0,0,1,2,0,0,4764,
scooby_state_409a0a|9|0 4746,0,0,0,1,1,0,1,0,0,0,1,0,1,2,4753,
scooby_state_409a0a|42|0 4740,0,1,0,1,1,0,0,1,0,1,1,0,1,0,4747,
scooby_state_409a0a|43|0 4678,1,0,1,1,0,0,0,1,1,0,0,2,1,2,4688,
scooby_state_409a0a|41|0 4645,1,0,2,0,0,3,0,0,1,0,1,1,1,1,4656,
scooby_state_409a14|19|0 4584,0,1,0,3,0,0,2,0,0,0,0,0,0,1,4591,
scooby_state_409a0a|44|0 4536,1,1,0,1,1,0,0,0,0,1,1,1,0,1,4544,
scooby_state_409a14|38|0 4535,0,0,0,0,0,0,1,0,2,2,0,0,1,0,4541,
scooby_state_409a14|53|0 4455,1,1,1,0,1,0,2,1,2,0,0,0,0,2,4466,
scooby_state_409a0a|8|0 4456,0,0,0,1,0,0,1,3,0,0,0,2,1,1,4465,
scooby_state_409a0a|48|0 4447,0,0,1,0,0,1,0,1,2,1,1,0,0,0,4454,
scooby_state_409a0a|18|0 4368,1,1,0,2,1,6,3,1,0,0,0,1,0,4,4388,
scooby_state_409a0a|16|0 4371,0,1,0,0,1,0,0,1,1,1,0,0,2,1,4379,
scooby_state_409a14|42|0 4353,0,0,1,0,0,1,0,3,0,0,0,0,1,0,4359,
scooby_state_409a14|63|0 4202,0,15,17,14,0,0,0,1,10,1,0,13,20,24,4317,
scooby_state_409a0a|40|0 4288,0,1,0,0,0,0,0,0,1,1,3,1,0,0,4295,
scooby_state_409a0a|7|0 4280,1,0,0,0,1,1,2,0,0,1,0,2,0,2,4290,
scooby_state_409a0a|6|0 4225,1,0,2,0,1,1,0,0,0,1,1,0,1,2,4235,
scooby_state_409a0a|45|0 4210,1,0,1,0,1,1,1,0,0,0,1,1,0,1,4218,
scooby_state_409977|63|0 4126,5,1,2,0,1,1,1,4,6,3,0,1,0,5,4156,
scooby_state_409a0a|17|0 4140,0,0,1,1,0,0,0,0,0,2,1,0,1,1,4147,
scooby_state_409a0a|35|0 4135,0,0,1,1,0,1,2,0,1,0,0,0,0,1,4142,
scooby_state_409a0a|49|0 4113,0,3,1,0,0,0,0,1,1,0,0,0,1,0,4120,
scooby_state_409a0a|4|0 4022,1,2,0,1,0,0,0,1,0,1,0,0,0,0,4028,
scooby_state_409a14|40|0 3998,0,1,0,0,0,0,0,1,0,0,0,1,0,0,4001,
scooby_state_409a0a|47|0 3931,0,1,1,11,0,1,2,1,0,1,14,0,0,3,3966,
scooby_state_409a14|51|0 3929,0,0,0,0,0,0,1,1,0,0,0,0,0,1,3932,
scooby_state_409a0a|5|0 3824,1,0,1,2,0,0,0,1,0,1,1,0,1,2,3834,
scooby_state_409a4b|14|0 3777,1,0,2,2,0,2,1,1,0,0,0,1,2,1,3790,
scooby_state_409a4b|23|0 3704,0,0,0,1,1,1,0,0,0,0,0,1,1,0,3709,
scooby_state_409a14|52|0 3679,0,0,0,1,0,2,0,1,0,0,0,0,0,0,3683,
scooby_state_409a0a|39|0 3665,2,0,1,0,0,0,2,1,0,1,1,0,0,0,3673,
scooby_state_409a4b|22|0 3650,0,1,0,1,1,1,0,0,0,2,2,2,0,0,3660,
scooby_state_409a4b|0|0 3613,0,2,2,0,0,3,1,2,1,0,3,4,0,0,3631,
scooby_state_409a4b|13|0 3578,1,0,0,0,1,0,1,0,0,0,1,0,2,0,3584,
scooby_state_409a4b|20|0 3543,1,1,1,1,1,4,2,0,0,2,3,3,2,1,3565,
scooby_state_409977|0|0 3551,2,1,2,1,1,1,0,0,1,0,0,2,1,0,3563,
scooby_state_409a95|62|0 3516,0,7,0,0,8,0,1,6,0,0,0,5,0,5,3548,
scooby_state_409977|62|0 3421,12,8,24,9,0,1,0,14,7,0,2,1,16,14,3529,
scooby_state_409a14|41|0 3478,0,21,1,1,1,0,0,0,12,0,0,4,0,1,3519,
scooby_state_409a14|33|0 3369,40,2,0,1,0,1,6,36,0,2,1,46,0,0,3504,
scooby_state_409a4b|15|0 3461,1,0,0,1,2,0,0,0,2,0,0,0,0,0,3467,
scooby_state_409981|25|0 3441,0,1,0,0,1,1,1,1,0,0,1,1,0,1,3449,
scooby_state_409a4b|21|0 3440,0,1,1,0,1,0,0,0,0,1,0,0,1,0,3445,
scooby_state_409a0a|46|0 3424,1,1,1,0,0,1,1,2,0,0,2,1,0,0,3434,
scooby_state_409981|14|0 3422,0,1,0,1,0,0,1,2,0,0,0,0,1,1,3429,
scooby_state_409981|15|0 3420,1,0,0,0,0,1,2,0,1,0,0,0,0,0,3425,
scooby_state_409a4b|19|0 3397,2,0,1,2,5,5,0,0,5,0,4,1,1,0,3423,
scooby_state_409a4b|12|0 3365,2,1,0,0,0,1,0,0,0,2,0,0,0,0,3371,
scooby_state_409981|26|0 3312,0,0,1,0,1,0,0,0,0,1,2,0,0,0,3317,
scooby_state_409a0a|36|0 3311,1,0,1,1,0,0,0,1,0,1,0,0,0,0,3316,
scooby_state_409a95|61|0 3285,2,1,2,0,1,1,0,1,0,0,0,0,1,0,3294,
scooby_state_409981|16|0 3289,0,0,0,0,0,1,0,0,1,0,1,1,0,0,3293,
scooby_state_409981|4|0 3272,1,0,0,0,0,0,0,1,0,1,1,1,1,3,3281,
scooby_state_409a14|54|0 3259,0,1,1,0,0,1,1,1,0,0,3,0,0,1,3268,
scooby_state_409a4b|28|0 3255,0,2,0,1,0,0,1,0,2,0,0,0,0,0,3261,
scooby_state_409a4b|43|0 3246,2,0,0,1,0,0,1,0,2,0,0,0,0,0,3252,
scooby_state_409977|31|0 3247,0,0,0,0,0,1,0,0,1,1,0,1,0,0,3251,
scooby_state_409a4b|31|0 3235,1,1,0,2,0,1,0,0,0,0,0,2,2,0,3244,
scooby_state_409a4b|27|0 3234,0,0,1,0,0,1,0,1,0,0,2,0,2,0,3241,
scooby_state_409981|0|0 3221,1,0,1,0,2,0,3,0,0,1,0,0,0,0,3229,
scooby_state_409a4b|44|0 3219,0,0,1,0,1,0,1,0,0,0,1,0,0,0,3223,
scooby_state_409a4b|11|0 3213,1,0,0,1,0,0,0,0,0,2,0,2,0,1,3220,
scooby_state_409981|5|0 3210,1,0,0,1,1,1,0,0,0,0,0,1,1,0,3216,
scooby_state_409a0a|38|0 3203,0,0,1,1,0,1,2,0,2,1,0,0,1,0,3212,
scooby_state_409981|3|0 3202,1,0,1,1,0,0,1,0,0,0,0,0,0,2,3208,
scooby_state_409a4b|26|0 3200,0,1,0,0,0,0,1,0,0,0,1,0,0,0,3203,
scooby_state_409a4b|10|0 3169,0,0,0,0,0,0,0,1,0,1,0,1,0,1,3173,
scooby_state_409a4b|24|0 3165,0,1,0,1,0,0,0,1,0,0,0,0,1,1,3170,
scooby_state_409981|7|0 3159,1,0,0,0,0,2,0,1,0,1,0,0,0,0,3164,
scooby_state_409a95|60|0 3144,0,0,0,0,0,0,1,0,0,0,1,1,1,0,3148,
scooby_state_409977|32|0 3136,0,0,1,0,0,0,0,1,2,0,0,1,0,0,3141,
scooby_state_409977|14|0 3120,1,8,0,1,0,1,5,0,1,0,0,0,0,2,3139,
scooby_state_409a14|37|0 3123,0,0,1,0,1,0,0,0,1,1,0,0,0,3,3130,
scooby_state_409a4b|32|0 3076,1,0,0,0,1,1,0,0,0,0,0,0,0,1,3080,
scooby_state_409981|24|0 3042,0,3,3,0,1,0,1,0,0,0,0,5,0,0,3055,
scooby_state_409981|6|0 3051,0,0,0,0,0,1,0,0,0,0,0,0,0,0,3052,
scooby_state_409a0a|37|0 2943,1,2,45,7,0,0,2,0,0,18,28,1,1,0,3048,
scooby_state_409a14|56|0 3037,0,1,0,1,0,2,1,1,0,0,0,0,0,1,3044,
scooby_state_409a4b|16|0 3005,2,0,0,0,2,0,2,0,1,0,0,0,2,1,3015,
scooby_state_409a4b|63|0 2971,4,2,7,3,0,2,0,11,3,0,3,1,7,1,3015,
scooby_state_409a4b|17|0 3000,0,1,1,0,1,2,1,1,2,1,0,2,0,0,3012,
scooby_state_409977|13|0 3004,1,0,0,0,0,0,1,2,0,0,1,1,0,1,3011,
scooby_state_409a4b|3|0 3005,0,0,1,0,0,0,0,0,0,0,0,1,0,1,3008,
scooby_state_409a4b|7|0 2980,0,1,0,2,0,0,1,0,1,0,1,4,2,1,2993,
scooby_state_409a14|62|0 2952,0,3,7,0,0,1,1,0,2,0,0,4,0,6,2976,
scooby_state_409981|1|0 2970,0,1,1,0,1,0,1,1,0,0,0,0,0,0,2975,
scooby_state_409a4b|25|0 2961,0,1,0,0,1,0,0,1,1,0,1,0,2,1,2969,
scooby_state_409a4b|45|0 2953,0,1,0,0,1,0,0,1,1,0,1,0,0,2,2960,
scooby_state_409a4b|6|0 2941,1,0,0,1,0,0,0,0,0,2,0,0,0,1,2946,
scooby_state_409a4b|2|0 2937,0,1,0,1,0,0,1,1,0,0,0,2,1,2,2946,
scooby_state_409981|11|0 2930,0,0,0,0,0,0,0,2,1,0,0,0,0,0,2933,
scooby_state_409977|12|0 2926,0,0,0,0,0,0,2,0,1,1,0,1,0,1,2932,
scooby_state_409a4b|9|0 2922,0,2,0,0,0,0,0,1,0,0,1,0,0,2,2928,
scooby_state_409a4b|42|0 2920,0,1,1,0,0,0,0,0,0,1,1,1,0,0,2925,
scooby_state_409a4b|48|0 2904,1,0,4,1,1,0,0,0,1,2,0,1,0,5,2920,
scooby_state_409977|33|0 2913,0,2,0,0,0,0,0,0,1,0,0,1,0,1,2918,
scooby_state_409a4b|30|0 2912,0,0,0,0,0,0,1,0,0,0,0,0,1,3,2917,
scooby_state_409a4b|18|0 2895,4,0,1,0,0,2,0,0,0,0,0,0,0,0,2902,
scooby_state_409977|61|0 2844,4,5,3,3,1,2,10,8,1,0,5,0,2,11,2899,
scooby_state_409a4b|29|0 2885,0,1,0,0,0,0,1,1,0,0,0,1,0,0,2889,
scooby_state_409981|10|0 2869,0,1,1,1,0,0,0,0,1,0,0,1,0,1,2875,
scooby_state_409981|9|0 2868,0,2,0,0,0,0,0,1,0,0,1,0,0,0,2872,
scooby_state_409981|13|0 2855,0,0,2,0,0,1,0,0,1,1,1,0,0,0,2861,
scooby_state_409a4b|41|0 2856,0,0,0,1,0,0,0,0,0,0,0,2,2,0,2861,
scooby_state_409a4b|62|0 2729,6,14,1,12,11,7,11,9,1,16,8,7,10,15,2857,
scooby_state_409981|23|0 2846,0,2,0,0,0,1,0,1,0,1,0,2,0,0,2853,
scooby_state_409981|48|0 2848,0,0,0,0,0,0,0,0,0,0,0,1,0,0,2849,
scooby_state_409977|29|0 2839,1,0,0,1,0,0,0,0,1,0,1,0,0,1,2844,
scooby_state_409981|12|0 2825,0,0,2,0,1,0,0,0,0,0,1,0,0,0,2829,
scooby_state_409a4b|33|0 2807,0,0,0,0,0,0,0,0,0,0,0,0,1,0,2808,
scooby_state_409a4b|8|0 2802,0,0,0,0,0,0,0,0,0,0,0,0,0,0,2802,
scooby_state_409981|8|0 2788,0,0,1,0,0,0,0,0,0,0,0,0,1,0,2790,
scooby_state_409977|1|0 2724,3,0,0,1,8,33,0,0,1,0,0,1,15,1,2787,
scooby_state_409a14|61|0 2776,2,0,2,0,0,0,1,0,0,1,0,1,1,1,2785,
scooby_state_409981|22|0 2746,1,1,0,0,0,0,1,0,0,0,1,0,1,0,2751,
scooby_state_409977|10|0 2740,0,1,0,0,0,0,1,0,0,0,0,0,0,0,2742,
scooby_state_409977|28|0 2724,1,0,0,0,0,0,0,1,0,1,1,0,1,1,2730,
scooby_state_409977|9|0 2703,0,2,0,1,0,2,0,0,0,0,0,0,1,2,2711,
scooby_state_409a4b|47|0 2689,1,0,1,0,0,1,0,1,0,0,0,2,0,0,2695,
scooby_state_409a4b|34|0 2681,0,0,0,0,0,1,1,0,1,1,1,0,0,0,2686,
scooby_state_409981|32|0 2588,0,0,0,0,11,24,2,22,1,2,8,0,1,11,2670,
scooby_state_409981|31|0 2653,1,0,1,0,1,1,1,0,0,0,0,0,0,1,2659,
scooby_state_409977|11|0 2644,1,0,1,0,0,1,0,0,0,2,0,0,1,0,2650,
scooby_state_409977|30|0 2595,0,1,2,0,1,1,0,1,1,1,0,0,0,1,2604,
scooby_state_409977|34|0 2597,0,0,1,1,0,0,1,0,1,1,0,0,0,0,2602,
scooby_state_409981|2|0 2559,0,0,0,0,1,0,0,0,0,1,0,0,2,1,2564,
scooby_state_409977|2|0 2539,0,1,1,0,7,5,1,0,0,1,1,6,0,0,2562,
scooby_state_409977|6|0 2551,1,1,0,2,0,0,0,0,0,0,2,1,1,0,2559,
scooby_state_409a4b|1|0 2537,1,1,0,3,0,1,0,1,4,1,6,2,0,1,2558,
scooby_state_409a4b|61|0 2540,0,1,1,2,2,0,2,2,1,2,0,1,0,3,2557,
scooby_state_409a55|63|0 2350,6,17,4,17,6,20,16,13,7,11,10,17,21,40,2555,
scooby_state_409a4b|5|0 2547,0,1,1,0,0,0,1,2,0,0,2,0,0,0,2554,
scooby_state_409a14|34|0 2551,1,0,0,0,0,0,0,0,0,1,0,0,0,0,2553,
scooby_state_409977|57|0 2534,2,0,2,0,0,1,1,0,0,2,0,2,0,2,2546,
scooby_state_4099c7|63|0 2333,18,18,3,10,12,9,13,27,12,14,6,20,23,28,2546,
scooby_state_409977|27|0 2540,0,0,1,0,0,0,0,0,0,0,0,1,0,0,2542,
scooby_state_409977|15|0 2480,0,4,1,22,0,0,5,1,0,0,15,4,1,0,2533,
scooby_state_409977|8|0 2528,0,0,1,0,0,0,0,0,1,0,2,0,1,0,2533,
scooby_state_409977|7|0 2519,0,0,0,0,0,1,1,1,0,0,0,0,0,2,2524,
scooby_state_409a4b|51|0 2509,0,1,0,1,0,0,0,0,0,2,0,0,0,0,2513,
scooby_state_409981|47|0 2505,0,0,0,0,1,0,0,2,0,0,1,1,0,0,2510,
scooby_state_409981|27|0 2394,3,0,1,23,17,0,0,0,16,3,19,0,14,0,2490,
scooby_state_409981|20|0 2473,0,1,0,0,2,0,0,1,0,1,2,0,0,0,2480,
scooby_state_409a4b|4|0 2470,0,0,0,1,0,0,1,1,1,1,0,0,0,0,2475,
scooby_state_409977|60|0 2456,0,1,1,0,0,0,0,2,0,0,1,0,4,3,2468,
scooby_state_409a4b|49|0 2457,0,2,0,0,0,0,3,0,0,0,0,0,1,3,2466,
scooby_state_409977|42|0 2457,0,0,1,0,1,0,0,0,0,0,0,0,2,1,2462,
scooby_state_409977|41|0 2460,0,1,0,0,0,0,0,0,0,0,0,1,0,0,2462,
scooby_state_409a4b|40|0 2452,2,0,1,0,0,2,0,0,0,0,0,0,0,1,2458,
scooby_state_409977|24|0 2432,1,0,0,0,0,1,1,0,0,0,1,1,0,1,2438,
scooby_state_409a4b|60|0 2431,0,0,1,0,0,0,1,0,0,0,0,3,1,1,2438,
scooby_state_409977|19|0 2387,0,1,0,6,1,4,7,0,1,0,14,0,4,7,2432,
scooby_state_409981|17|0 2420,0,0,0,0,0,0,0,0,0,0,1,0,0,0,2421,
scooby_state_409977|25|0 2412,1,0,0,0,0,0,0,0,0,0,0,0,0,1,2414,
scooby_state_409981|45|0 2407,0,0,0,0,0,0,2,0,0,0,0,0,0,0,2409,
scooby_state_409981|28|0 2380,0,0,0,5,5,0,1,1,3,3,6,0,2,1,2407,
scooby_state_409a4b|46|0 2394,0,1,0,0,0,1,0,0,0,1,0,0,1,0,2398,
scooby_state_409981|46|0 2394,0,0,0,0,0,1,0,0,0,1,0,0,0,1,2397,
scooby_state_409977|48|0 2388,0,0,0,0,4,1,0,1,0,0,0,0,1,1,2396,
scooby_state_409977|26|0 2389,1,0,0,2,0,0,0,0,0,0,0,1,0,1,2394,
scooby_state_409977|45|0 2378,0,1,1,1,0,2,0,2,1,0,0,0,0,1,2387,
scooby_state_409981|21|0 2382,0,0,0,2,1,0,0,0,0,0,1,0,0,1,2387,
scooby_state_409981|30|0 2370,0,0,0,0,0,1,0,1,0,1,1,2,0,2,2378,
scooby_state_409977|23|0 2372,0,0,0,0,0,0,1,0,1,0,0,0,0,1,2375,
scooby_state_409977|40|0 2371,0,1,0,1,0,0,0,1,0,0,0,0,0,0,2374,
scooby_state_409977|3|0 2366,0,0,1,0,1,0,0,0,1,0,0,1,0,0,2370,
scooby_state_409a14|60|0 2356,0,1,1,0,0,1,1,0,0,1,0,0,0,0,2361,
scooby_state_409977|44|0 2350,0,0,0,0,0,0,0,0,0,0,1,0,0,0,2351,
scooby_state_409981|49|0 2340,1,0,2,0,0,1,1,0,0,0,1,0,0,0,2346,
scooby_state_409977|51|0 2341,0,0,0,0,1,0,0,1,0,0,0,1,0,0,2344,
scooby_state_409977|58|0 2330,0,0,0,0,1,1,0,0,0,0,0,0,0,0,2332,
scooby_state_409a4b|35|0 2318,0,0,0,0,1,1,0,1,0,0,0,0,1,0,2322,
scooby_state_409977|43|0 2315,0,0,0,0,1,0,1,0,1,0,1,0,0,0,2319,
scooby_state_409977|5|0 2301,1,2,0,0,0,0,0,0,2,0,0,1,1,2,2310,
scooby_state_409977|56|0 2254,0,0,10,0,10,0,0,0,1,11,0,11,0,9,2306,
scooby_state_409977|21|0 2296,1,0,0,1,0,0,0,2,0,0,0,0,1,0,2301,
scooby_state_409977|59|0 2289,1,0,0,0,1,0,1,0,0,0,1,0,0,0,2293,
scooby_state_409977|20|0 2282,1,0,1,0,0,1,0,0,1,0,0,0,0,0,2286,
scooby_state_409977|22|0 2265,2,1,0,0,0,2,0,0,1,0,0,1,0,2,2274,
scooby_state_409a4b|50|0 2222,1,0,0,1,0,0,0,0,0,0,2,0,0,0,2226,
scooby_state_409977|47|0 2202,0,5,0,5,1,1,0,0,0,0,5,0,2,0,2221,
scooby_state_409981|44|0 2206,0,0,1,1,0,0,0,0,0,0,1,1,1,2,2213,
scooby_state_409977|4|0 2199,0,0,1,1,1,0,0,0,1,0,1,0,0,0,2204,
scooby_state_409a95|59|0 2195,0,0,0,0,0,0,0,0,0,2,0,1,0,0,2198,
scooby_state_409a95|0|0 2169,1,1,3,2,2,0,0,1,3,2,1,0,0,1,2186,
scooby_state_409977|39|0 2171,0,0,0,1,1,0,0,1,0,0,0,0,0,0,2174,
scooby_state_409a95|10|0 2163,0,0,0,0,0,0,1,0,0,5,0,0,1,1,2171,
scooby_state_409981|39|0 2058,1,22,17,7,1,24,0,1,0,0,0,12,14,13,2170,
scooby_state_409977|18|0 2128,1,0,0,0,0,6,0,0,0,0,2,1,1,1,2140,
scooby_state_409977|16|0 2134,0,0,0,0,1,0,0,0,1,0,0,0,1,0,2137,
scooby_state_409a95|38|0 2131,0,0,0,0,0,0,1,1,0,0,0,1,1,0,2135,
scooby_state_409a4b|39|0 2120,0,0,1,1,0,2,0,0,0,1,1,0,0,0,2126,
scooby_state_409a4b|57|0 2105,3,2,1,0,0,0,0,0,1,0,2,0,0,0,2114,
scooby_state_409977|50|0 2103,0,0,1,0,0,0,0,2,0,0,0,0,0,0,2106,
scooby_state_409981|19|0 2099,2,0,0,0,0,0,0,0,0,0,0,0,0,1,2102,
scooby_state_409977|53|0 2072,0,0,1,1,11,0,8,0,0,0,0,8,0,1,2102,
scooby_state_409977|49|0 2092,0,0,0,0,0,0,1,0,0,1,0,0,0,1,2095,
scooby_state_409a4b|37|0 2082,1,2,1,1,0,1,0,0,2,0,0,0,0,3,2093,
scooby_state_409977|35|0 2081,0,1,0,0,0,0,1,1,0,0,2,0,0,1,2087,
scooby_state_409981|29|0 2074,0,0,0,1,0,0,1,0,0,0,0,0,1,1,2078,
scooby_state_409977|54|0 1983,9,0,3,0,0,0,1,19,16,5,0,4,0,26,2066,
scooby_state_409a95|9|0 2054,0,0,0,0,0,1,0,0,1,1,3,0,0,3,2063,
scooby_state_409a95|37|0 2042,0,1,1,0,0,0,0,0,0,0,1,0,2,1,2048,
scooby_state_409a4b|58|0 2014,0,0,1,1,1,1,0,0,2,0,0,0,0,1,2021,
scooby_state_409977|17|0 2020,0,0,0,0,0,0,0,0,0,0,0,0,0,0,2020,
scooby_state_409a14|55|0 2006,0,0,0,0,0,0,0,0,0,0,1,2,2,0,2011,
scooby_state_409a4b|56|0 1997,2,0,0,1,0,2,1,1,2,0,2,0,1,1,2010,
scooby_state_409a14|35|0 1998,0,0,0,0,1,0,0,0,0,0,1,0,0,0,2000,
scooby_state_409a4b|59|0 1990,0,0,0,0,0,0,0,0,0,0,0,0,0,0,1990,
scooby_state_4098a5|63|0 1962,1,0,1,3,2,0,0,0,3,4,0,1,1,0,1978,
scooby_state_409977|46|0 1962,1,1,1,2,0,0,0,1,0,0,1,2,0,0,1971,
scooby_state_409977|52|0 1940,0,0,0,1,3,0,2,1,1,0,0,2,1,0,1951,
scooby_state_409977|55|0 1938,0,1,0,0,0,1,0,0,0,0,1,0,0,0,1941,
scooby_state_409981|43|0 1928,0,0,0,1,0,0,0,0,0,0,2,0,2,0,1933,
scooby_state_409a4b|36|0 1906,1,2,0,2,0,0,3,3,1,0,2,0,0,0,1920,
scooby_state_4098a5|0|0 1909,0,0,1,1,0,0,0,1,1,2,1,0,1,0,1917,
scooby_state_409a4b|38|0 1888,0,0,0,1,0,0,0,0,0,0,0,0,0,1,1890,
scooby_state_409977|38|0 1881,0,1,1,0,1,0,0,0,0,0,0,0,0,0,1884,
scooby_state_409a4b|52|0 1870,1,0,0,0,0,0,1,0,0,0,0,0,0,0,1872,
scooby_state_409a14|59|0 1846,0,1,0,0,0,0,0,0,1,0,1,0,0,1,1850,
scooby_state_409981|63|0 1738,19,6,11,0,0,0,10,0,3,12,0,0,6,15,1820,
scooby_state_409977|37|0 1724,0,7,17,0,16,1,0,0,0,16,4,19,0,15,1819,
scooby_state_409a95|36|0 1782,0,0,0,0,1,0,0,0,1,0,0,1,0,1,1786,
scooby_state_409a14|57|0 1775,0,0,0,0,1,0,1,0,0,1,0,1,0,0,1779,
scooby_state_409a14|36|0 1770,0,0,0,1,0,0,0,0,0,0,0,0,0,0,1771,
scooby_state_409977|36|0 1767,0,0,0,0,0,0,1,0,0,0,0,0,0,0,1768,
scooby_state_409981|38|0 1747,0,1,0,0,0,0,0,0,0,0,0,1,2,0,1751,
scooby_state_409981|18|0 1643,2,21,0,0,21,0,0,1,8,17,1,32,3,1,1750,
scooby_state_409a95|34|0 1735,0,2,0,0,0,0,0,0,0,0,0,0,0,0,1737,
scooby_state_409a95|35|0 1723,1,1,1,0,0,0,1,0,0,0,0,0,0,1,1728,
scooby_state_409a4b|55|0 1700,0,0,0,0,0,1,0,1,0,0,0,0,0,0,1702,
scooby_state_4098b0|0|0 1693,0,1,0,1,0,2,0,0,1,0,0,0,1,1,1700,
scooby_state_409981|50|0 1666,1,1,0,0,1,0,0,1,1,0,0,0,0,0,1671,
scooby_state_409a95|8|0 1663,0,0,0,0,0,0,0,0,0,0,0,0,1,0,1664,
scooby_state_409a55|62|0 1623,1,2,0,0,0,0,0,3,0,2,0,3,3,6,1643,
scooby_state_4099c7|62|0 1594,5,7,0,1,3,0,1,8,0,4,0,6,2,5,1636,
scooby_state_409981|53|0 1628,0,1,0,0,0,0,0,0,0,0,0,0,0,0,1629,
scooby_state_4098b0|3|0 1620,1,1,0,0,0,0,0,1,0,0,1,0,1,1,1626,
scooby_state_409981|33|0 1547,3,0,1,3,0,2,20,9,0,0,8,0,0,13,1606,
scooby_state_4098b0|16|0 1558,0,0,0,0,1,1,1,0,0,1,0,0,0,0,1562,
scooby_state_4098a5|33|0 1542,0,0,0,1,1,0,0,0,0,0,0,0,0,1,1545,
scooby_state_4098b0|4|0 1501,1,0,0,0,0,1,0,0,0,0,0,0,0,0,1503,
scooby_state_4099c7|61|0 1493,0,0,0,0,1,0,1,0,1,0,2,0,0,2,1500,
scooby_state_4098a5|1|0 1396,20,1,0,0,1,6,7,13,1,10,0,2,0,17,1474,
scooby_state_409a95|20|0 1470,0,0,0,0,0,1,0,0,0,1,0,0,0,0,1472,
scooby_state_4098a5|32|0 1466,0,0,0,0,0,1,0,0,0,1,0,0,0,0,1468,
scooby_state_4098a5|31|0 1450,0,0,0,0,0,0,0,0,0,0,0,0,1,0,1451,
scooby_state_409a95|21|0 1446,0,0,0,1,0,0,0,0,0,0,1,0,0,0,1448,
scooby_state_409a14|58|0 1417,0,0,0,0,0,1,12,1,1,15,1,0,0,0,1448,
scooby_state_409981|51|0 1445,0,0,0,0,0,0,0,1,1,0,0,0,0,0,1447,
scooby_state_4098a5|62|0 1369,5,0,11,2,0,6,8,3,7,10,0,0,6,16,1443,
scooby_state_409981|52|0 1413,1,0,0,0,2,0,0,0,3,1,0,0,0,0,1420,
scooby_state_4098b0|5|0 1411,0,0,0,0,0,0,0,0,0,1,0,0,1,0,1413,
scooby_state_4098b0|32|0 1320,0,14,5,10,7,0,20,1,2,0,0,6,10,11,1406,
scooby_state_409a4b|54|0 1382,0,3,3,0,0,0,5,0,3,1,1,3,0,1,1402,
scooby_state_409a55|60|0 1390,1,0,0,0,0,0,1,0,0,1,0,0,0,0,1393,
scooby_state_4098b0|48|0 1372,0,0,0,0,0,0,0,0,0,0,0,0,0,0,1372,
scooby_state_4098a5|14|0 1331,1,7,0,0,0,2,1,1,4,1,6,9,4,2,1369,
scooby_state_409a4b|53|0 1319,4,0,6,1,7,1,1,1,1,2,3,4,5,3,1358,
scooby_state_4098a5|9|0 1355,0,0,0,0,0,0,0,0,0,0,0,0,0,0,1355,
scooby_state_4099c7|60|0 1327,0,0,1,1,0,0,0,0,0,0,1,0,1,0,1331,
scooby_state_409a55|61|0 1318,1,0,1,0,0,0,0,1,0,0,0,0,0,0,1321,
scooby_state_4098b0|14|0 1313,0,0,0,0,0,0,0,0,0,0,0,0,0,0,1313,
scooby_state_4098a5|6|0 1304,0,0,0,0,0,1,0,0,0,0,0,1,0,0,1306,
scooby_state_4098b0|15|0 1298,0,0,0,0,0,1,0,1,0,0,2,0,1,0,1303,
scooby_state_4098a5|7|0 1299,0,0,1,0,0,1,0,0,0,0,0,0,0,0,1301,
scooby_state_4098a5|13|0 1285,0,0,0,0,0,0,0,0,0,0,0,1,0,0,1286,
scooby_state_4098b0|24|0 1262,0,1,0,1,5,3,0,3,2,0,5,3,0,0,1285,
scooby_state_4098b0|7|0 1276,0,0,0,0,1,0,1,0,0,1,0,0,0,0,1279,
scooby_state_4098b0|2|0 1274,0,0,0,0,0,0,0,0,1,0,0,0,0,0,1275,
scooby_state_409a95|31|0 1267,1,0,1,0,0,0,0,1,1,1,0,0,0,0,1272,
scooby_state_4098b0|23|0 1256,1,1,0,1,2,3,2,0,0,0,3,0,0,0,1269,
scooby_state_409981|42|0 1257,3,0,0,0,2,0,2,0,0,1,0,0,1,0,1266,
scooby_state_4098a5|10|0 1262,0,0,0,0,0,0,0,0,0,0,0,0,0,0,1262,
scooby_state_409981|62|0 1233,2,3,0,0,0,0,0,0,1,0,0,1,1,3,1244,
scooby_state_4098a5|34|0 1241,0,0,0,0,0,0,0,0,0,0,1,0,0,1,1243,
scooby_state_4098a5|5|0 1237,1,0,0,0,0,0,1,0,0,0,0,0,0,0,1239,
scooby_state_409a8b|0|0 919,27,16,65,11,19,19,11,22,35,11,17,20,13,27,1232,
scooby_state_409981|37|0 1224,1,0,0,0,0,0,0,0,0,0,0,0,0,0,1225,
scooby_state_4098b0|20|0 1220,0,0,0,0,0,0,0,0,0,0,2,1,0,0,1223,
scooby_state_4098a5|2|0 1209,2,3,0,0,0,1,2,1,0,0,0,0,1,3,1222,
scooby_state_409a95|54|0 1214,1,0,0,0,0,0,1,0,0,0,1,0,0,0,1217,
scooby_state_4098b0|25|0 1213,0,0,1,0,0,0,0,0,0,0,0,0,0,0,1214,
scooby_state_4098a5|57|0 1208,0,1,0,2,0,0,0,0,0,0,1,0,1,0,1213,
scooby_state_4098a5|61|0 1195,0,2,3,0,0,0,1,2,2,1,0,0,0,3,1209,
scooby_state_4098a5|12|0 1202,0,0,0,2,0,0,0,0,1,0,0,0,0,0,1205,
scooby_state_409a8b|63|1 1150,30,0,0,2,1,0,4,0,0,0,11,0,2,0,1200,
scooby_state_4098a5|8|0 1191,0,0,0,0,0,0,0,0,1,1,1,1,0,0,1195,
scooby_state_4098b0|17|0 1190,0,0,0,0,0,0,0,0,0,0,0,1,0,0,1191,
scooby_state_4098b0|9|0 1186,2,0,1,1,0,0,0,0,0,0,0,0,0,0,1190,
scooby_state_4098b0|6|0 1179,0,0,0,0,0,0,0,1,0,0,0,0,0,1,1181,
scooby_state_4098b0|19|0 1174,0,0,0,0,0,0,0,0,1,0,0,0,0,0,1175,
scooby_state_4098b0|22|0 1166,0,1,0,2,1,0,0,0,0,0,2,1,0,0,1173,
scooby_state_4098a5|11|0 1167,0,0,0,0,0,1,0,0,0,0,0,0,1,0,1169,
scooby_state_4098a5|48|0 1144,1,3,0,0,0,3,0,1,3,0,8,0,2,0,1165,
scooby_state_4098a5|4|0 1156,1,1,0,0,1,2,0,0,0,0,0,1,0,0,1162,
scooby_state_409a95|4|0 1159,0,0,0,0,0,0,0,0,1,1,0,0,0,0,1161,
scooby_state_409a95|33|0 1154,0,0,0,0,0,1,0,0,1,0,0,2,1,1,1160,
scooby_state_409981|40|0 1157,0,0,0,0,0,0,0,0,1,0,0,0,0,0,1158,
scooby_state_4098b0|1|0 1152,0,0,0,1,1,0,0,0,1,0,0,0,0,0,1155,
scooby_state_409981|56|0 1148,0,0,0,0,0,0,1,0,0,0,1,0,1,1,1152,
scooby_state_4098b0|26|0 1145,0,0,0,1,0,0,0,0,0,0,0,0,0,1,1147,
scooby_state_4098a5|58|0 1145,0,0,0,0,0,0,0,0,0,0,0,0,0,1,1146,
scooby_state_409981|34|0 1144,0,0,1,0,0,0,0,0,0,0,1,0,0,0,1146,
scooby_state_4098a5|40|0 1136,0,1,0,0,0,0,0,0,0,0,0,0,0,0,1137,
scooby_state_4098a5|41|0 1130,1,0,0,0,0,1,0,1,0,0,0,0,0,1,1134,
scooby_state_409a55|38|0 1131,0,1,0,1,1,0,0,0,0,0,0,0,0,0,1134,
scooby_state_409a8b|62|1 984,0,42,7,2,8,1,4,24,7,0,3,7,11,9,1109,
scooby_state_409a95|7|0 1104,1,1,0,0,0,0,0,0,0,1,0,0,0,1,1108,
scooby_state_4098b0|8|0 1106,0,0,0,1,0,0,0,0,0,0,0,0,0,0,1107,
scooby_state_4098b0|21|0 1102,0,1,0,1,0,0,0,1,0,0,0,0,0,0,1105,
scooby_state_4098b0|49|0 1103,1,0,0,0,0,0,0,0,0,0,0,0,0,0,1104,
scooby_state_4098a5|3|0 1100,0,0,1,0,1,0,0,0,0,0,0,0,1,0,1103,
scooby_state_4098b0|13|0 1096,0,0,0,0,0,0,0,1,0,0,0,0,0,0,1097,
scooby_state_4098a5|29|0 1095,0,0,0,0,0,0,0,0,0,1,0,0,0,0,1096,
scooby_state_4098b0|10|0 1089,1,0,0,0,0,1,0,0,0,0,1,0,0,0,1092,
scooby_state_4098b0|11|0 1085,0,0,0,0,0,0,0,0,0,0,0,0,0,0,1085,
scooby_state_4098a5|39|0 1077,0,0,0,0,1,0,0,0,1,0,0,1,0,0,1080,
scooby_state_4098a5|28|0 1078,0,0,0,0,0,0,0,0,0,0,1,0,0,0,1079,
scooby_state_409981|60|0 1071,0,0,0,1,0,0,0,0,0,0,0,0,0,1,1073,
scooby_state_409a8b|3|1 1061,1,0,0,3,0,1,1,1,1,0,0,0,0,2,1071,
scooby_state_4098a5|56|0 1045,0,4,0,2,6,0,0,0,3,0,3,0,2,4,1069,
scooby_state_409a95|39|0 1062,1,1,0,0,0,0,0,0,0,0,0,2,0,0,1066,
scooby_state_4098b0|12|0 1062,1,0,1,0,0,0,0,0,0,1,0,0,0,0,1065,
scooby_state_4098a5|45|0 1062,0,1,1,0,0,0,0,1,0,0,0,0,0,0,1065,
scooby_state_409a95|22|0 1061,0,0,0,0,1,0,0,0,0,0,2,0,0,0,1064,
scooby_state_4098a5|42|0 1063,0,0,0,0,0,0,0,0,0,0,0,1,0,0,1064,
scooby_state_4098b0|31|0 1059,0,0,1,0,0,0,0,0,0,1,0,0,0,0,1061,
scooby_state_4098a5|30|0 1058,1,0,0,0,0,0,1,0,0,0,0,0,0,0,1060,
scooby_state_409981|54|0 1055,0,0,0,0,0,0,0,0,0,2,0,0,0,0,1057,
scooby_state_4098a5|49|0 1050,1,0,1,0,0,0,0,1,0,0,0,1,0,0,1054,
scooby_state_4098a5|47|0 1039,0,1,0,0,2,2,0,0,1,0,2,2,1,1,1051,
scooby_state_4098a5|59|0 1037,2,0,1,1,0,2,0,0,2,1,0,1,1,2,1050,
scooby_state_409a95|53|0 1032,0,0,0,0,0,0,0,0,0,0,0,0,0,0,1032,
scooby_state_409a8b|1|1 1000,0,0,0,0,0,0,2,0,0,0,0,0,0,26,1028,
scooby_state_409a8b|32|1 1027,0,0,0,0,0,0,1,0,0,0,0,0,0,0,1028,
scooby_state_4098b0|27|0 963,9,0,4,10,2,5,0,5,0,18,0,0,0,11,1027,
scooby_state_4098a5|60|0 1016,0,0,2,0,1,0,0,1,1,0,1,0,1,3,1026,
scooby_state_409a8b|15|1 952,7,1,1,1,1,43,3,0,1,1,0,1,4,1,1017,
scooby_state_4099c7|38|0 1014,0,0,0,0,0,0,0,0,0,0,0,1,0,1,1016,
scooby_state_4098b0|28|0 995,1,1,0,3,0,0,0,3,0,4,1,0,0,4,1012,
scooby_state_409981|61|0 1000,2,0,2,0,0,0,0,0,1,1,0,1,0,1,1008,
scooby_state_409981|35|0 1007,0,0,0,0,0,0,0,0,0,0,0,0,0,1,1008,
scooby_state_409a95|25|0 1006,0,0,0,0,0,1,0,0,0,0,0,0,0,0,1007,
scooby_state_409a95|6|0 1003,0,0,0,0,0,0,0,0,0,0,1,0,0,1,1005,
scooby_state_4098a5|51|0 1000,0,0,2,1,0,0,0,0,0,0,1,0,0,0,1004,
scooby_state_4098a5|43|0 1004,0,0,0,0,0,0,0,0,0,0,0,0,0,0,1004,
scooby_state_4098a5|26|0 1000,0,0,0,0,0,0,0,0,0,0,0,0,0,1,1001,
scooby_state_4099c7|59|0 998,1,0,0,0,0,0,0,0,1,0,0,0,0,1,1001,
scooby_state_4098b0|63|0 956,5,4,6,0,2,6,0,3,6,3,3,0,0,6,1000,
scooby_state_409a55|59|0 996,0,0,0,0,0,0,1,0,0,0,2,0,0,0,999,
scooby_state_409a8b|31|1 997,0,0,0,0,0,0,0,0,0,1,0,0,0,0,998,
scooby_state_4098a5|15|0 975,0,1,0,0,0,12,1,0,0,0,1,3,1,1,995,
scooby_state_409a8b|48|1 966,1,1,0,1,2,1,1,0,0,11,0,0,0,6,990,
scooby_state_409981|41|0 968,2,4,0,1,0,0,0,4,4,0,0,0,0,3,986,
scooby_state_409a8b|7|1 976,0,0,0,1,0,0,0,0,1,1,2,0,0,5,986,
scooby_state_4098a5|46|0 984,1,0,0,0,0,0,1,0,0,0,0,0,0,0,986,
scooby_state_409a8b|34|1 983,0,0,0,0,0,0,1,1,0,0,0,0,1,0,986,
scooby_state_409a55|0|0 973,0,5,0,1,0,4,0,1,0,0,0,0,0,0,984,
scooby_state_4098a5|25|0 980,0,0,0,0,0,0,0,0,1,0,0,0,0,0,981,
scooby_state_4098b0|47|0 967,0,0,0,0,1,0,0,0,0,0,0,1,0,1,970,
scooby_state_4098a5|44|0 964,0,0,1,0,0,0,0,0,0,0,0,1,0,0,966,
scooby_state_409a8b|2|1 944,3,0,0,1,0,2,5,0,1,0,0,2,0,6,964,
scooby_state_4098a5|24|0 962,0,0,0,0,0,0,0,0,0,0,0,0,0,1,963,
scooby_state_4098a5|27|0 958,0,0,0,1,0,2,0,0,1,0,0,0,0,0,962,
scooby_state_4098b0|39|0 886,4,0,8,2,17,5,2,4,7,0,8,15,2,1,961,
scooby_state_409a55|9|0 959,0,0,0,0,0,0,0,0,0,0,0,0,0,1,960,
scooby_state_409a95|55|0 958,0,0,0,0,0,0,0,1,0,0,0,0,0,0,959,
scooby_state_4099c7|0|0 947,2,0,1,0,0,0,1,1,1,1,0,1,0,3,958,
scooby_state_4099c7|37|0 956,0,1,0,0,0,0,0,0,0,0,0,0,0,0,957,
scooby_state_409a55|37|0 957,0,0,0,0,0,0,0,0,0,0,0,0,0,0,957,
scooby_state_4098b0|33|0 928,0,5,0,1,0,1,7,1,2,0,0,0,10,0,955,
scooby_state_409a55|10|0 948,0,1,0,0,1,0,0,0,0,0,1,1,0,0,952,
scooby_state_409a8b|33|1 943,0,1,0,1,0,1,0,0,1,0,0,0,0,1,948,
scooby_state_409a95|58|0 891,0,0,0,15,5,8,0,0,12,0,3,11,0,0,945,
scooby_state_4098a5|35|0 940,0,1,1,1,0,0,0,0,0,1,0,0,0,0,944,
scooby_state_409a8b|14|1 942,0,0,0,0,0,0,0,0,0,0,0,2,0,0,944,
scooby_state_4099c7|36|0 939,0,0,0,0,0,0,0,0,0,1,0,0,0,0,940,
scooby_state_409a55|36|0 934,1,0,0,0,0,0,1,0,0,0,1,0,0,2,939,
scooby_state_409a8b|20|1 874,1,0,36,1,0,0,3,0,0,0,0,1,13,0,929,
scooby_state_409a8b|49|1 927,1,0,0,0,0,0,0,0,0,0,0,0,0,0,928,
scooby_state_4098a5|19|0 869,0,2,0,0,1,0,6,20,0,5,0,0,10,11,924,
scooby_state_409a8b|8|1 919,0,0,0,0,2,0,0,0,0,0,1,0,1,0,923,
scooby_state_4098a5|50|0 923,0,0,0,0,0,0,0,0,0,0,0,0,0,0,923,
scooby_state_409a8b|35|1 917,0,0,1,1,0,0,0,0,0,0,0,1,0,0,920,
scooby_state_4098b0|29|0 915,1,0,0,1,0,0,0,0,0,0,0,0,0,2,919,
scooby_state_409a8b|30|1 916,0,2,0,0,0,0,0,0,0,0,1,0,0,0,919,
scooby_state_4098a5|23|0 912,0,0,0,0,0,0,0,0,0,1,1,0,1,0,915,
scooby_state_4098a5|38|0 910,1,0,0,0,0,0,0,0,0,0,0,0,1,0,912,
scooby_state_409a8b|29|1 902,0,0,0,0,0,0,1,0,0,0,1,0,0,1,905,
scooby_state_409a8b|4|1 892,0,0,0,0,0,0,0,1,1,0,2,0,1,2,899,
scooby_state_4098a5|22|0 896,0,0,0,0,0,0,0,0,0,0,0,0,0,0,896,
scooby_state_4098b0|30|0 896,0,0,0,0,0,0,0,0,0,0,0,0,0,0,896,
scooby_state_4098a5|54|0 833,1,6,5,21,6,0,1,0,3,2,4,0,2,7,891,
scooby_state_409a8b|16|1 876,1,0,0,1,1,0,2,0,1,0,1,2,0,4,889,
scooby_state_4098b0|45|0 885,0,0,0,0,0,0,0,0,0,0,0,0,1,1,887,
scooby_state_4098a5|37|0 850,0,0,0,1,6,0,0,0,0,0,10,6,5,7,885,
scooby_state_4099ba|1|1 837,0,0,11,0,0,0,13,0,2,10,0,0,2,5,880,
scooby_state_409a8b|11|1 873,0,0,0,1,0,0,1,0,1,0,0,0,0,2,878,
scooby_state_409981|55|0 877,0,0,0,0,0,0,0,0,0,0,0,0,0,0,877,
scooby_state_4098a5|53|0 836,0,7,6,0,4,4,3,0,0,0,0,10,6,0,876,
scooby_state_4098a5|21|0 875,0,0,0,0,0,0,0,0,0,0,0,0,0,0,875,
scooby_state_409a8b|61|1 846,2,1,7,0,1,0,0,2,1,0,0,8,5,2,875,
scooby_state_409a8b|24|1 872,0,0,0,1,0,0,0,0,0,0,0,0,0,0,873,
scooby_state_409a8b|23|1 870,0,0,0,0,0,0,1,0,1,0,0,0,1,0,873,
scooby_state_4099ba|0|0 658,20,14,20,17,16,16,15,14,12,14,11,8,12,22,869,
scooby_state_4098b0|18|0 793,11,0,0,16,3,10,0,0,2,5,16,4,1,6,867,
scooby_state_409a8b|58|1 856,0,0,0,0,4,0,0,0,3,1,1,1,0,0,866,
scooby_state_4098a5|18|0 829,2,6,0,0,0,0,4,11,0,4,0,1,3,5,865,
scooby_state_409a8b|13|1 861,0,0,0,0,0,0,0,0,1,0,1,0,0,0,863,
scooby_state_409a8b|21|1 857,0,0,1,0,0,1,0,0,0,0,0,0,0,1,860,
scooby_state_409981|36|0 856,1,0,0,1,0,0,0,0,0,0,0,0,0,0,858,
scooby_state_4098b0|38|0 854,0,1,0,1,0,0,0,0,0,0,0,0,0,0,856,
scooby_state_4098a5|36|0 832,1,1,0,2,0,5,0,0,9,0,6,0,0,0,856,
scooby_state_409a8b|28|1 851,0,1,0,0,1,0,1,0,0,0,0,0,0,0,854,
scooby_state_409a95|32|0 843,1,0,1,1,1,0,0,1,0,0,0,1,1,0,850,
scooby_state_409a55|20|0 849,0,0,0,0,0,0,0,0,0,0,0,1,0,0,850,
scooby_state_409a8b|17|1 837,1,0,1,1,1,0,2,1,0,1,1,0,0,2,848,
scooby_state_409a8b|12|1 842,0,0,0,1,0,0,0,0,0,0,0,0,0,1,844,
scooby_state_4098b0|44|0 841,0,0,0,0,1,0,0,0,0,0,0,0,0,1,843,
scooby_state_409a8b|9|1 842,0,0,0,0,0,0,0,0,0,0,0,0,0,1,843,
scooby_state_4098a5|17|0 841,0,0,0,0,0,0,0,0,0,0,0,0,0,0,841,
scooby_state_409a55|35|0 834,1,0,0,2,0,0,0,0,1,0,1,0,2,0,841,
scooby_state_409a8b|50|1 841,0,0,0,0,0,0,0,0,0,0,0,0,0,0,841,
scooby_state_4098a5|55|0 830,0,0,0,0,0,0,0,0,1,0,0,0,0,0,831,
scooby_state_409a8b|60|1 819,0,1,0,0,0,0,0,0,0,0,0,0,0,1,821,
scooby_state_4098a5|16|0 819,1,0,0,0,0,0,0,0,0,1,0,0,0,0,821,
scooby_state_409a95|3|0 819,0,0,0,0,0,0,0,0,0,0,1,0,0,0,820,
scooby_state_4098a5|52|0 804,1,1,0,0,4,2,1,0,0,0,0,4,2,0,819,
scooby_state_409a8b|10|1 817,0,1,0,0,0,0,1,0,0,0,0,0,0,0,819,
scooby_state_409a95|19|0 817,0,0,0,0,0,1,0,0,0,0,0,0,0,0,818,
scooby_state_409a55|8|0 817,0,0,0,0,0,0,0,0,0,1,0,0,0,0,818,
scooby_state_409a8b|59|1 816,0,0,0,0,0,0,0,1,0,0,0,0,0,0,817,
scooby_state_4098a5|20|0 807,0,0,0,0,0,0,0,0,0,0,0,1,0,3,811,
scooby_state_409a95|5|0 809,0,0,0,1,0,0,0,0,1,0,0,0,0,0,811,
scooby_state_409a8b|51|1 809,0,0,0,0,0,0,0,0,0,0,1,0,0,0,810,
scooby_state_409a8b|57|1 780,0,0,0,1,1,0,0,0,0,1,2,24,0,1,810,
scooby_state_4098b0|46|0 809,0,1,0,0,0,0,0,0,0,0,0,0,0,0,810,
scooby_state_409a8b|27|1 809,0,1,0,0,0,0,0,0,0,0,0,0,0,0,810,
scooby_state_409a8b|26|1 807,0,0,0,0,0,0,1,0,0,0,0,0,0,0,808,
scooby_state_409a95|52|0 802,1,0,0,0,0,0,0,1,0,0,0,0,0,0,804,
scooby_state_409a8b|6|1 795,0,0,0,0,0,1,0,0,1,0,0,0,1,0,798,
scooby_state_409a55|34|0 794,0,1,0,1,0,0,0,0,0,0,1,0,0,0,797,
scooby_state_4099c7|20|0 793,0,1,0,0,0,0,0,0,0,0,1,0,0,1,796,
scooby_state_409a8b|19|1 767,1,0,1,1,2,0,2,0,1,4,1,1,0,7,788,
scooby_state_409a8b|52|1 781,0,0,1,1,0,0,1,0,0,0,1,0,1,1,787,
scooby_state_4099c7|35|0 775,0,0,2,2,1,1,0,0,2,0,0,1,0,1,785,
scooby_state_409a95|42|0 731,0,0,1,1,0,27,1,1,0,0,23,0,0,0,785,
scooby_state_4099ba|33|1 780,0,0,0,0,1,0,0,0,0,0,0,0,0,0,781,
scooby_state_409a8b|56|1 775,0,0,0,0,0,0,0,1,1,0,0,0,0,0,777,
scooby_state_409a95|24|0 740,1,1,3,0,6,0,0,0,0,0,7,11,0,4,773,
scooby_state_4099ba|63|1 714,0,14,0,11,10,0,4,2,0,1,4,0,11,0,771,
scooby_state_409a8b|22|1 768,0,0,0,0,0,0,1,1,0,0,0,0,0,0,770,
scooby_state_409a8b|46|1 762,0,0,0,0,2,0,0,1,0,1,2,0,0,2,770,
scooby_state_409a8b|47|1 759,0,0,0,1,0,0,0,0,1,1,2,1,0,2,767,
scooby_state_4098b0|53|0 765,0,0,0,0,0,0,0,0,1,0,0,0,0,0,766,
scooby_state_4098b0|50|0 765,0,0,0,0,0,0,0,0,0,0,0,0,0,0,765,
scooby_state_4099ba|3|1 751,0,0,1,1,0,2,0,0,0,0,5,0,0,0,760,
scooby_state_409a8b|18|1 753,1,0,0,0,0,0,0,0,0,0,1,0,1,0,756,
scooby_state_4099c7|9|0 754,0,1,0,0,0,0,0,0,0,0,0,0,0,0,755,
scooby_state_4098b0|56|0 746,0,0,0,0,0,0,0,0,0,0,0,0,0,0,746,
scooby_state_4099ba|2|1 722,5,0,1,1,1,2,5,0,0,1,3,1,1,2,745,
scooby_state_409a8b|44|1 739,1,0,0,0,1,0,0,1,1,0,0,0,0,1,744,
scooby_state_409a8b|5|1 742,1,0,0,0,0,0,0,0,0,0,0,0,0,0,743,
scooby_state_409a55|4|0 739,0,0,0,0,0,0,0,0,0,0,0,0,0,0,739,
scooby_state_409a8b|25|1 735,0,0,0,0,0,0,0,0,0,0,0,0,1,0,736,
scooby_state_409a8b|43|1 728,0,0,1,0,2,0,0,0,1,1,0,0,0,0,733,
scooby_state_409a8b|45|1 728,0,0,0,1,1,0,0,0,0,0,1,0,0,1,732,
scooby_state_409a8b|41|1 730,0,0,0,0,0,1,0,1,0,0,0,0,0,0,732,
scooby_state_409a8b|36|1 728,0,0,0,0,0,0,0,0,0,0,0,0,0,0,728,
scooby_state_409a8b|55|1 720,0,0,0,0,0,0,0,0,0,0,1,0,0,1,722,
scooby_state_4098f1|63|0 584,10,3,13,13,11,13,9,7,2,8,7,11,10,18,719,
scooby_state_4098b0|35|0 715,0,0,0,0,0,0,0,0,1,1,0,0,1,0,718,
scooby_state_409888|3|1 688,3,3,3,1,0,0,0,2,1,2,2,4,2,2,713,
scooby_state_4099c7|34|0 710,0,1,0,0,0,0,1,0,0,0,0,0,0,0,712,
scooby_state_4099c7|10|0 712,0,0,0,0,0,0,0,0,0,0,0,0,0,0,712,
scooby_state_409888|4|1 709,0,0,0,0,0,0,0,0,0,0,0,1,0,0,710,
scooby_state_4098b0|62|0 691,3,0,1,1,0,0,0,3,1,4,1,2,0,3,710,
scooby_state_409a8b|42|1 705,0,0,0,0,1,0,0,0,0,0,2,0,0,0,708,
scooby_state_4099ba|8|1 702,0,0,0,0,0,0,0,0,0,0,0,0,1,0,703,
scooby_state_4099ba|34|1 696,0,0,0,1,0,0,0,0,0,0,0,0,0,0,697,
scooby_state_4099ba|32|1 689,0,0,0,0,1,0,0,0,0,0,0,0,2,1,693,
scooby_state_409a8b|54|1 598,0,0,0,0,33,0,3,0,23,21,1,5,5,1,690,
scooby_state_409981|59|0 689,0,0,0,0,0,0,0,0,0,0,0,0,0,1,690,
scooby_state_409a95|56|0 688,0,0,0,0,0,0,0,0,0,1,0,0,0,0,689,
scooby_state_409a8b|53|1 666,1,0,0,0,1,2,2,0,0,0,5,0,2,3,682,
scooby_state_409a8b|40|1 679,0,0,0,0,0,0,0,0,0,0,0,0,0,0,679,
scooby_state_4099ba|7|1 667,1,0,1,0,0,0,0,0,0,0,0,4,0,3,676,
scooby_state_4098b0|37|0 672,0,0,1,0,0,1,0,0,0,0,0,0,0,0,674,
scooby_state_409a55|21|0 668,0,0,0,0,0,0,0,0,0,0,0,0,0,0,668,
scooby_state_4098b0|34|0 659,0,3,1,0,1,0,0,0,2,1,0,0,1,0,668,
scooby_state_409a55|31|0 663,0,0,1,0,0,0,0,1,0,0,0,0,0,0,665,
scooby_state_4098b0|52|0 662,0,1,0,0,0,0,0,0,0,0,0,0,0,0,663,
scooby_state_409981|57|0 660,0,0,0,0,0,0,0,0,0,0,0,0,0,0,660,
scooby_state_4099c7|21|0 660,0,0,0,0,0,0,0,0,0,0,0,0,0,0,660,
scooby_state_4098b0|43|0 658,0,0,0,0,0,0,0,0,0,0,0,0,0,0,658,
scooby_state_4099ba|62|1 583,5,11,8,1,0,0,3,14,7,7,5,8,3,0,655,
scooby_state_4099ba|48|1 643,1,0,0,1,1,1,1,0,0,2,1,0,1,3,655,
scooby_state_409888|0|0 624,8,1,0,0,0,1,0,1,0,2,1,0,1,3,642,
scooby_state_4099ba|15|1 599,2,0,0,5,2,15,0,0,1,0,1,0,4,12,641,
scooby_state_4098b0|61|0 631,0,1,1,1,0,1,1,0,1,1,0,0,0,1,639,
scooby_state_409a95|17|0 636,0,0,0,0,0,0,0,0,0,0,0,0,1,0,637,
scooby_state_40992e|1|1 608,1,2,4,2,1,1,0,0,0,3,2,1,4,3,632,
scooby_state_4099ba|35|1 630,1,0,0,0,0,0,0,0,0,0,0,0,0,0,631,
scooby_state_4098b0|51|0 629,0,0,0,0,1,0,0,0,0,0,0,0,0,0,630,
scooby_state_40985f|2|0 141,36,34,34,33,35,34,34,34,35,35,33,25,26,60,629,
scooby_state_409a55|7|0 628,1,0,0,0,0,0,0,0,0,0,0,0,0,0,629,
scooby_state_4099ba|58|1 616,0,0,0,2,1,0,1,0,0,2,0,0,0,1,623,
scooby_state_4099ba|59|1 619,0,0,0,0,0,0,0,0,0,0,0,1,0,0,620,
scooby_state_409888|5|1 618,0,0,0,0,0,0,0,0,0,0,0,0,0,0,618,
scooby_state_4099ba|4|1 614,0,0,1,1,0,0,0,0,0,0,1,0,0,0,617,
scooby_state_409a55|54|0 613,0,0,0,0,0,0,0,0,0,0,1,0,0,1,615,
scooby_state_409981|58|0 587,0,0,1,5,0,5,1,1,0,0,5,0,2,6,613,
scooby_state_4099c7|8|0 613,0,0,0,0,0,0,0,0,0,0,0,0,0,0,613,
scooby_state_409a8b|39|1 608,0,0,0,0,0,0,1,0,0,0,0,0,1,1,611,
scooby_state_4098b0|60|0 609,0,0,0,0,0,0,0,0,0,0,0,0,0,0,609,
scooby_state_4099ba|6|1 603,0,0,0,0,0,0,0,1,0,0,1,0,0,1,606,
scooby_state_4099ba|14|1 603,0,0,0,0,0,0,0,0,0,1,0,0,0,0,604,
scooby_state_4099ba|31|1 593,0,0,0,0,0,1,0,0,0,0,0,0,0,0,594,
scooby_state_409a8b|37|1 559,0,0,0,30,0,0,1,1,1,0,0,0,0,0,592,
scooby_state_4098b0|36|0 587,0,0,0,1,0,0,0,0,0,1,0,0,0,1,590,
scooby_state_409a55|39|0 578,1,0,1,0,1,0,0,0,0,1,0,0,0,0,582,
scooby_state_4099ba|47|1 578,0,0,0,0,1,0,0,0,0,0,1,0,0,0,580,
scooby_state_4099ba|57|1 561,4,0,1,1,0,0,1,0,0,0,0,8,0,2,578,
scooby_state_4099ba|49|1 574,0,0,0,0,0,0,0,0,0,0,0,0,0,1,575,
scooby_state_4099c7|54|0 575,0,0,0,0,0,0,0,0,0,0,0,0,0,0,575,
scooby_state_409a8b|38|1 572,0,0,1,0,0,0,0,0,0,0,0,0,0,0,573,
scooby_state_4098b0|55|0 569,0,0,0,0,1,0,0,0,0,0,0,0,1,0,571,
scooby_state_4099ba|9|1 569,0,0,0,0,0,0,0,1,0,0,0,0,0,0,570,
scooby_state_4099ba|10|1 567,0,0,0,0,0,0,0,0,0,0,0,0,0,0,567,
scooby_state_4099ba|11|1 567,0,0,0,0,0,0,0,0,0,0,0,0,0,0,567,
scooby_state_409888|2|1 540,3,4,3,0,0,2,0,2,2,2,3,2,1,2,566,
scooby_state_4099ba|60|1 558,1,1,0,0,0,0,0,0,0,0,0,1,0,0,561,
scooby_state_409a95|57|0 558,0,0,0,0,0,0,0,0,0,0,0,0,0,0,558,
scooby_state_4099ba|61|1 536,3,1,4,0,0,0,2,1,1,3,2,3,2,0,558,
scooby_state_409888|8|1 543,1,1,0,0,0,0,0,1,1,1,1,2,2,1,554,
scooby_state_409a55|6|0 550,0,1,0,0,0,0,0,1,0,0,0,0,0,0,552,
scooby_state_409a4b|63|1 513,2,0,0,0,0,0,0,20,0,3,8,3,1,0,550,
scooby_state_409a55|33|0 540,1,0,0,0,1,0,0,0,0,0,2,0,0,3,547,
scooby_state_4099ba|5|1 544,0,0,0,0,0,1,0,0,0,0,0,1,0,0,546,
scooby_state_4099ba|13|1 544,0,0,0,0,0,0,0,0,1,0,0,0,0,0,545,
scooby_state_409a95|28|0 477,0,0,13,11,1,0,0,2,1,9,15,0,0,11,540,
scooby_state_4099ba|56|1 537,0,0,0,0,0,0,1,0,1,0,0,0,0,0,539,
scooby_state_409888|7|1 533,0,1,1,1,0,0,0,0,0,0,0,1,0,0,537,
scooby_state_40992e|2|1 512,2,3,3,2,0,2,1,1,1,1,3,2,2,2,537,
scooby_state_409a55|32|0 535,0,0,0,0,0,0,1,0,0,0,0,0,0,1,537,
scooby_state_409a55|19|0 533,0,0,0,0,0,0,1,0,0,0,0,0,0,0,534,
scooby_state_409a95|30|0 532,1,0,0,0,0,0,0,0,0,0,0,0,0,0,533,
scooby_state_4099ba|55|1 533,0,0,0,0,0,0,0,0,0,0,0,0,0,0,533,
scooby_state_409888|6|1 529,0,0,1,0,0,0,1,0,0,0,0,1,0,0,532,
scooby_state_409a55|53|0 530,1,0,0,0,0,0,0,0,0,0,0,0,0,0,531,
scooby_state_409a55|25|0 529,0,0,0,0,0,0,0,0,0,0,0,0,0,0,529,
scooby_state_40992e|3|1 524,0,0,0,0,1,1,0,0,0,0,0,0,0,0,526,
scooby_state_4099c7|39|0 522,0,0,0,0,0,0,0,1,0,0,0,0,0,0,523,
scooby_state_409a55|3|0 521,0,0,0,0,0,0,0,0,0,0,1,0,0,0,522,
scooby_state_4099ba|46|1 520,0,0,0,0,1,0,0,0,0,0,0,0,0,0,521,
scooby_state_409a55|55|0 518,0,0,0,0,0,1,0,0,0,0,0,0,0,0,519,
scooby_state_409a95|18|0 507,0,0,1,0,0,0,0,0,0,1,1,0,0,0,510,
scooby_state_40992e|0|0 376,10,10,5,12,9,8,5,7,12,12,8,8,8,19,509,
scooby_state_4099ba|50|1 508,0,0,0,1,0,0,0,0,0,0,0,0,0,0,509,
scooby_state_4099ba|51|1 505,0,1,0,0,0,0,0,1,1,0,0,0,0,0,508,
scooby_state_4098b0|54|0 506,0,0,0,0,0,0,0,0,0,0,0,1,0,1,508,
scooby_state_4099ba|16|1 506,1,0,0,0,0,0,0,0,0,0,0,0,0,0,507,
scooby_state_4099ba|29|1 507,0,0,0,0,0,0,0,0,0,0,0,0,0,0,507,
scooby_state_4099ba|36|1 500,0,0,0,0,0,0,0,0,0,0,0,0,1,1,502,
scooby_state_4099c7|55|0 497,0,1,0,1,0,0,0,0,0,0,0,0,0,0,499,
scooby_state_4099ba|40|1 493,0,0,0,0,0,0,1,0,0,0,0,0,0,0,494,
scooby_state_4099ba|12|1 493,0,0,0,0,0,0,0,0,0,0,0,0,0,0,493,
scooby_state_409888|33|1 471,3,0,2,3,1,2,2,3,1,0,1,0,2,1,492,
scooby_state_409a55|52|0 486,1,0,0,0,0,0,0,0,0,0,1,0,0,0,488,
scooby_state_40992e|55|1 468,1,0,0,1,3,2,1,1,1,2,2,2,0,3,487,
scooby_state_4099ba|24|1 483,0,0,0,0,0,1,0,0,1,0,0,1,0,0,486,
scooby_state_4099c7|4|0 484,0,0,0,1,0,0,0,0,0,0,0,0,0,0,485,
scooby_state_40992e|7|1 475,0,0,0,0,1,0,0,0,2,2,0,3,1,1,485,
scooby_state_409888|1|1 457,2,4,4,0,0,3,0,0,3,2,3,2,2,1,483,
scooby_state_4099ba|45|1 477,0,0,0,0,1,0,0,0,0,0,0,0,0,0,478,
scooby_state_4099c7|31|0 475,0,0,0,0,0,0,0,0,0,0,0,0,0,0,475,
scooby_state_4099ba|52|1 474,0,0,0,0,0,0,0,0,0,0,0,0,0,0,474,
scooby_state_40992e|53|1 448,1,0,1,1,2,3,3,2,1,1,1,4,2,3,473,
scooby_state_4099ba|30|1 470,0,0,0,0,0,1,1,0,0,0,0,0,0,0,472,
scooby_state_4099ba|26|1 470,0,0,0,0,0,0,0,0,1,0,0,0,0,0,471,
scooby_state_4098b0|57|0 467,0,0,0,0,0,0,0,0,0,0,0,0,1,0,468,
scooby_state_40992e|35|1 462,0,0,0,1,0,1,0,0,0,1,0,0,0,0,465,
scooby_state_409a4b|62|1 389,2,0,0,1,6,0,30,4,6,3,3,16,5,0,465,
scooby_state_4099ba|39|1 463,0,0,0,0,0,0,0,0,0,0,0,0,0,0,463,
scooby_state_409a55|24|0 439,0,0,4,0,4,0,0,4,1,3,3,4,0,0,462,
scooby_state_4099ba|54|1 382,8,2,0,7,2,11,1,12,0,2,3,8,6,17,461,
scooby_state_409a55|58|0 391,5,0,0,7,14,1,0,0,0,6,17,3,9,8,461,
scooby_state_409a55|5|0 458,0,0,0,0,0,0,0,1,0,0,0,0,1,0,460,
scooby_state_409a95|11|0 459,0,0,0,0,1,0,0,0,0,0,0,0,0,0,460,
scooby_state_4099ba|43|1 458,0,0,1,0,1,0,0,0,0,0,0,0,0,0,460,
scooby_state_40992e|59|1 456,0,0,0,0,0,1,0,0,0,2,0,1,0,0,460,
scooby_state_409888|9|1 447,0,2,1,0,0,1,0,2,1,0,1,1,1,1,458,
scooby_state_4099c7|19|0 456,0,0,0,0,0,0,0,1,0,0,0,0,0,1,458,
scooby_state_4099ba|20|1 441,0,2,1,0,0,0,0,1,0,0,10,0,0,0,455,
scooby_state_40992e|8|1 442,1,2,2,0,2,0,0,0,0,1,0,0,2,3,455,
scooby_state_409a4b|1|1 394,0,0,28,0,0,30,0,0,0,0,0,0,3,0,455,
scooby_state_409888|16|1 453,0,1,0,0,0,0,0,0,0,0,0,0,0,0,454,
scooby_state_4099ba|44|1 451,1,0,0,0,1,0,0,0,0,0,0,0,0,1,454,
scooby_state_4099ba|38|1 451,0,0,1,0,1,0,0,0,0,0,0,0,0,0,453,
scooby_state_409888|34|1 448,0,0,1,2,1,0,0,0,0,1,0,0,0,0,453,
scooby_state_4099ba|41|1 452,0,0,0,0,0,0,0,0,0,0,0,0,0,0,452,
scooby_state_4099ba|53|1 435,0,1,1,2,0,2,1,0,0,1,0,3,3,3,452,
scooby_state_4099c7|7|0 449,0,0,0,0,0,1,0,0,0,0,0,0,0,0,450,
scooby_state_40992e|48|1 445,0,0,1,0,0,0,0,0,0,1,0,0,1,1,449,
scooby_state_40992e|49|1 444,0,0,0,1,0,0,0,0,0,2,1,0,1,0,449,
scooby_state_4099ba|37|1 418,0,0,0,0,13,0,0,0,13,2,0,0,0,0,446,
scooby_state_4099c7|53|0 442,1,0,0,0,0,0,0,1,0,0,0,0,0,0,444,
scooby_state_409ae5|24|0 53,26,28,26,28,28,27,28,27,28,26,26,26,28,39,444,
scooby_state_4099c7|58|0 381,0,4,17,0,2,5,0,0,10,0,0,15,0,9,443,
scooby_state_40992e|58|1 429,1,0,2,1,2,0,2,0,1,1,0,1,0,2,442,
scooby_state_409a55|56|0 438,0,0,0,0,0,0,0,0,0,0,0,0,1,0,439,
scooby_state_409a4b|32|1 438,0,0,0,0,0,0,0,0,0,0,0,0,0,0,438,
scooby_state_4098b0|58|0 392,0,7,8,0,2,3,0,4,8,0,3,1,9,0,437,
scooby_state_4099ba|25|1 436,0,0,0,0,0,0,0,0,0,0,0,0,0,0,436,
scooby_state_409888|11|1 434,0,0,1,0,0,0,0,0,0,0,0,0,0,0,435,
scooby_state_409a55|17|0 434,0,0,0,0,0,0,0,0,0,0,0,0,0,1,435,
scooby_state_4099ba|27|1 434,0,0,0,0,0,0,0,0,0,0,0,0,0,0,434,
scooby_state_4099ba|28|1 433,0,0,0,0,0,0,0,0,0,0,0,0,0,0,433,
scooby_state_40992e|63|1 383,5,4,2,8,4,4,5,3,8,1,1,1,0,2,431,
scooby_state_4099c7|52|0 428,0,0,0,0,0,0,0,0,0,0,0,0,0,0,428,
scooby_state_4098f1|62|0 423,0,1,0,0,0,1,2,0,0,1,0,0,0,0,428,
scooby_state_409a55|22|0 426,0,0,0,0,0,0,0,0,0,0,0,0,0,0,426,
scooby_state_409a95|16|0 423,0,0,0,0,0,0,0,0,0,0,0,0,1,0,424,
scooby_state_4099ba|21|1 424,0,0,0,0,0,0,0,0,0,0,0,0,0,0,424,
scooby_state_40992e|33|1 419,0,0,1,0,0,2,0,0,0,0,0,0,0,0,422,
scooby_state_4098b0|40|0 417,2,0,0,0,0,0,1,1,0,0,0,0,0,0,421,
scooby_state_409a95|4|1 420,0,0,1,0,0,0,0,0,0,0,0,0,0,0,421,
scooby_state_40992e|51|1 420,0,0,0,0,0,0,0,0,0,0,0,0,0,0,420,
scooby_state_4099c7|33|0 416,1,0,0,1,0,0,0,0,1,0,0,0,0,1,420,
scooby_state_409888|17|1 417,0,0,1,0,0,0,0,0,0,0,0,0,0,0,418,
scooby_state_40992e|60|1 406,2,1,0,1,0,2,0,1,1,1,1,1,1,0,418,
scooby_state_409888|14|1 417,0,0,0,0,0,0,0,0,0,0,0,0,0,0,417,
scooby_state_4099ba|42|1 415,0,0,0,1,0,0,0,0,0,0,0,0,0,0,416,
scooby_state_40992e|50|1 415,0,0,0,0,0,0,0,0,0,0,0,0,0,0,415,
scooby_state_4099ba|23|1 414,0,0,0,0,0,0,0,0,0,1,0,0,0,0,415,
scooby_state_409888|32|1 399,3,1,1,1,2,0,2,1,1,0,0,1,0,2,414,
scooby_state_40992e|6|1 393,0,2,1,1,1,1,1,1,1,2,1,2,2,2,411,
scooby_state_40992e|57|1 408,1,0,0,1,0,0,0,0,0,0,1,0,0,0,411,
scooby_state_40992e|32|1 408,0,0,0,0,0,0,0,0,0,0,0,0,0,0,408,
scooby_state_4099c7|22|0 406,0,0,0,0,0,0,0,0,0,0,0,0,1,0,407,
scooby_state_4098f1|60|0 403,0,0,0,0,1,0,0,0,0,0,0,0,0,0,404,
scooby_state_4098f1|61|0 402,0,0,0,0,1,0,0,0,0,0,0,0,0,0,403,
scooby_state_40992e|4|1 391,0,1,2,1,1,0,0,1,0,1,1,1,1,2,403,
scooby_state_409888|10|1 402,0,0,0,0,0,0,0,0,0,0,0,0,0,0,402,
scooby_state_40992e|52|1 402,0,0,0,0,0,0,0,0,0,0,0,0,0,0,402,
scooby_state_4099ba|19|1 391,2,0,0,1,1,0,1,1,1,1,0,2,1,0,402,
scooby_state_409888|19|1 394,1,0,1,0,2,0,1,1,1,1,0,0,0,0,402,
scooby_state_40992e|54|1 367,2,1,5,0,1,4,1,6,1,2,6,2,1,2,401,
scooby_state_409888|15|1 401,0,0,0,0,0,0,0,0,0,0,0,0,0,0,401,
scooby_state_409888|20|1 390,1,0,1,0,2,0,1,1,1,1,0,0,0,0,398,
scooby_state_4099ba|17|1 396,1,0,0,0,0,0,0,0,0,0,0,0,0,0,397,
scooby_state_409888|35|1 387,2,0,1,1,1,0,0,0,1,1,1,0,0,1,396,
scooby_state_40992e|34|1 395,0,0,0,0,0,0,0,0,0,0,0,0,0,0,395,
scooby_state_4099c7|24|0 372,4,5,3,1,5,2,0,0,0,0,2,0,1,0,395,
scooby_state_40992e|47|1 391,0,0,0,0,1,0,0,1,0,0,0,0,0,0,393,
scooby_state_4099ba|22|1 392,1,0,0,0,0,0,0,0,0,0,0,0,0,0,393,
scooby_state_4099c7|32|0 391,0,0,0,1,0,0,0,0,0,0,0,1,0,0,393,
scooby_state_409a55|16|0 391,1,0,0,0,0,0,0,0,0,0,0,0,0,1,393,
scooby_state_409a4b|33|1 393,0,0,0,0,0,0,0,0,0,0,0,0,0,0,393,
scooby_state_40992e|56|1 391,0,0,0,0,0,0,0,0,0,0,0,0,0,0,391,
scooby_state_4098b0|42|0 382,0,0,1,0,0,0,0,1,0,0,0,4,0,3,391,
scooby_state_409888|21|1 386,0,0,0,0,0,0,0,0,0,0,1,0,0,1,388,
scooby_state_409a55|28|0 326,6,4,10,6,0,2,0,8,7,5,0,11,1,0,386,
scooby_state_40992e|61|1 357,3,2,1,3,2,1,0,1,4,1,2,4,1,1,383,
scooby_state_4098b0|59|0 379,0,0,0,0,0,0,0,0,0,0,0,0,0,0,379,
scooby_state_409888|13|1 378,0,0,0,0,0,0,0,0,0,1,0,0,0,0,379,
scooby_state_409888|36|1 341,6,2,6,2,1,2,3,5,1,3,1,1,1,3,378,
scooby_state_4099c7|56|0 377,0,0,0,0,0,0,0,0,0,0,1,0,0,0,378,
scooby_state_409a95|15|0 376,0,0,0,0,0,0,1,0,0,0,0,0,0,0,377,
scooby_state_409a95|13|0 374,0,0,0,0,0,0,0,0,0,0,0,0,0,0,374,
scooby_state_409a55|30|0 373,0,0,0,0,0,0,0,1,0,0,0,0,0,0,374,
scooby_state_409888|31|1 373,0,0,0,0,0,0,0,0,0,0,1,0,0,0,374,
scooby_state_409a95|29|0 371,0,0,0,0,0,0,0,0,0,0,0,1,0,1,373,
scooby_state_409a14|29|-5 177,9,15,13,13,14,13,13,15,13,14,15,16,11,22,373,
scooby_state_409a55|2|0 373,0,0,0,0,0,0,0,0,0,0,0,0,0,0,373,
scooby_state_409a95|2|0 370,0,0,0,0,0,0,0,0,0,0,1,0,0,0,371,
scooby_state_40992e|31|1 367,0,0,0,0,0,0,0,0,0,0,1,0,0,0,368,
scooby_state_409a95|26|0 366,0,0,0,0,0,0,0,0,0,0,0,0,0,0,366,
scooby_state_409888|18|1 361,1,0,2,0,0,1,0,0,0,0,0,0,0,0,365,
scooby_state_4098b0|41|0 329,2,0,3,1,0,0,6,8,0,1,0,6,1,8,365,
scooby_state_4099c7|33|1 319,2,3,2,8,3,3,8,2,1,2,3,1,2,6,365,
scooby_state_409a95|33|1 309,9,2,4,2,3,12,4,1,0,7,4,0,1,3,361,
scooby_state_409a95|51|0 360,0,0,0,0,0,0,0,0,0,0,0,0,0,0,360,
scooby_state_409a95|1|0 359,0,0,0,0,0,0,0,0,0,0,0,0,0,0,359,
scooby_state_4099c7|57|0 359,0,0,0,0,0,0,0,0,0,0,0,0,0,0,359,
scooby_state_4099c7|25|0 354,0,0,0,1,0,0,0,0,1,0,2,0,0,0,358,
scooby_state_409a95|1|1 355,0,0,1,0,0,0,0,0,0,0,0,0,0,0,356,
scooby_state_4099c7|1|1 355,0,0,0,0,0,0,0,0,0,0,0,0,0,0,355,
scooby_state_409a95|17|1 353,0,0,0,0,0,0,0,0,0,0,0,0,0,0,353,
scooby_state_40992e|62|1 313,4,5,2,3,2,3,3,3,5,3,2,2,2,1,353,
scooby_state_409a95|63|1 297,6,6,5,4,4,2,3,8,1,8,2,3,3,0,352,
scooby_state_409a55|11|0 348,0,0,1,0,0,0,0,0,0,0,0,0,0,0,349,
scooby_state_409a14|63|63 183,7,9,7,22,7,7,11,11,18,15,8,7,14,23,349,
scooby_state_4099c7|6|0 347,0,0,0,0,0,0,0,0,0,0,0,0,0,0,347,
scooby_state_409a4b|7|1 340,1,1,0,0,0,2,0,2,0,0,1,0,0,0,347,
scooby_state_409a95|61|1 346,1,0,0,0,0,0,0,0,0,0,0,0,0,0,347,
scooby_state_409a4b|31|1 346,0,0,0,0,0,0,0,0,0,0,0,0,0,0,346,
scooby_state_409a95|23|0 337,1,0,0,1,0,0,0,0,0,3,0,2,0,0,344,
scooby_state_409a95|24|1 330,1,3,0,3,2,0,0,2,1,0,0,0,0,2,344,
scooby_state_4099c7|4|1 343,0,0,0,0,0,0,0,0,0,0,0,0,0,0,343,
scooby_state_409a55|15|0 342,0,0,0,0,0,0,0,0,0,0,0,0,0,0,342,
scooby_state_40992e|5|1 319,0,1,2,2,0,2,1,3,1,2,1,2,2,2,340,
scooby_state_409888|29|1 322,2,1,2,2,2,1,1,1,1,0,1,0,2,1,339,
scooby_state_409a4b|2|1 333,4,0,0,0,0,1,0,0,0,0,0,0,0,1,339,
scooby_state_40992e|10|1 337,0,0,0,0,0,0,0,0,0,1,0,0,0,0,338,
scooby_state_409a4b|34|1 336,0,0,1,0,0,0,1,0,0,0,0,0,0,0,338,
scooby_state_409a55|1|0 337,0,0,0,0,0,0,0,0,0,0,0,0,0,0,337,
scooby_state_409a95|25|1 307,0,2,0,5,0,5,0,1,0,0,4,11,0,2,337,
scooby_state_4099ba|18|1 334,1,0,0,0,0,0,0,0,0,0,0,0,0,0,335,
scooby_state_409a55|18|0 335,0,0,0,0,0,0,0,0,0,0,0,0,0,0,335,
scooby_state_409a55|57|0 334,0,0,0,0,0,0,0,0,0,0,0,0,0,0,334,
scooby_state_409a4b|58|1 328,2,0,0,0,0,0,1,0,0,0,0,0,1,0,332,
scooby_state_409888|30|1 331,0,0,0,0,0,0,0,0,0,0,0,0,0,0,331,
scooby_state_409a4b|57|1 310,1,1,2,0,0,0,0,0,15,0,0,0,0,2,331,
scooby_state_409a95|14|0 330,0,0,0,0,0,0,0,0,0,0,0,0,0,0,330,
scooby_state_409a4b|36|1 329,0,0,0,0,0,0,0,0,0,0,0,0,0,0,329,
scooby_state_409a95|5|1 329,0,0,0,0,0,0,0,0,0,0,0,0,0,0,329,
scooby_state_409888|12|1 328,0,0,0,0,0,0,0,0,0,0,0,0,0,0,328,
scooby_state_40992e|38|1 328,0,0,0,0,0,0,0,0,0,0,0,0,0,0,328,
scooby_state_40992e|15|1 307,2,1,1,0,0,0,6,0,1,0,1,1,3,4,327,
scooby_state_40992e|46|1 325,0,0,0,0,1,0,0,0,0,0,0,0,0,0,326,
scooby_state_40992e|26|1 323,0,0,1,0,0,0,0,0,0,0,0,0,0,1,325,
scooby_state_409a4b|35|1 323,0,0,0,1,0,0,0,1,0,0,0,0,0,0,325,
scooby_state_409a4b|54|1 219,8,0,4,0,24,3,0,0,0,8,22,8,26,3,325,
scooby_state_409a4b|8|1 323,0,0,0,0,0,0,0,0,0,0,0,0,0,0,323,
scooby_state_40992e|9|1 322,0,0,0,0,0,0,0,0,0,0,0,0,0,0,322,
scooby_state_409a4b|61|1 305,0,1,0,0,1,1,0,3,0,3,1,1,5,0,321,
scooby_state_409888|24|1 318,0,0,0,0,1,0,1,0,1,0,0,0,0,0,321,
scooby_state_40992e|14|1 318,0,1,0,0,0,0,0,0,0,1,0,0,0,0,320,
scooby_state_409a4b|59|1 317,0,0,0,0,0,0,0,1,0,0,0,0,0,0,318,
scooby_state_409a95|59|1 266,1,2,0,3,0,2,4,2,15,2,2,0,1,18,318,
scooby_state_4099c7|17|0 317,0,0,0,0,0,0,0,0,0,0,0,0,0,0,317,
scooby_state_409a95|2|1 317,0,0,0,0,0,0,0,0,0,0,0,0,0,0,317,
scooby_state_409a55|29|0 314,0,0,0,0,0,0,0,1,0,0,0,1,0,0,316,
scooby_state_409888|48|1 315,0,0,0,0,0,0,0,0,0,0,0,0,0,0,315,
scooby_state_409a95|36|1 295,0,4,2,2,0,2,8,0,0,0,1,0,0,1,315,
scooby_state_4099c7|3|0 315,0,0,0,0,0,0,0,0,0,0,0,0,0,0,315,
scooby_state_40992e|36|1 310,0,0,0,0,0,0,0,1,0,0,1,1,0,1,314,
scooby_state_4099c7|59|1 268,1,3,6,0,2,0,3,5,5,3,4,6,4,4,314,
scooby_state_409a95|16|1 312,0,0,0,0,0,0,0,0,0,0,0,1,0,0,313,
scooby_state_4099c7|63|1 232,5,6,5,4,6,6,2,5,5,4,7,9,5,12,313,
scooby_state_409a95|32|1 275,5,0,9,0,3,0,6,6,0,1,1,0,0,6,312,
scooby_state_409a4b|3|1 293,0,2,0,0,0,6,0,2,0,3,0,0,2,2,310,
scooby_state_409888|22|1 308,1,0,0,0,0,0,0,0,0,0,0,0,0,0,309,
scooby_state_40992e|11|1 308,0,0,0,0,0,0,0,0,0,0,1,0,0,0,309,
scooby_state_40992e|30|1 309,0,0,0,0,0,0,0,0,0,0,0,0,0,0,309,
scooby_state_409a4b|29|1 305,0,0,0,0,0,0,0,1,0,0,0,0,0,1,307,
scooby_state_409a95|56|1 305,0,0,0,0,0,0,0,0,0,0,0,0,0,0,305,
scooby_state_40992e|13|1 302,0,0,0,0,0,0,0,0,1,0,0,0,0,1,304,
scooby_state_409888|38|1 303,0,0,1,0,0,0,0,0,0,0,0,0,0,0,304,
scooby_state_409888|28|1 290,1,1,2,2,0,1,1,0,1,0,1,0,2,1,303,
scooby_state_409888|23|1 303,0,0,0,0,0,0,0,0,0,0,0,0,0,0,303,
scooby_state_4099c7|2|1 302,0,1,0,0,0,0,0,0,0,0,0,0,0,0,303,
scooby_state_409a95|57|1 303,0,0,0,0,0,0,0,0,0,0,0,0,0,0,303,
scooby_state_409a95|41|0 161,36,0,0,0,0,11,38,0,0,0,1,0,45,10,302,
scooby_state_409a95|6|1 302,0,0,0,0,0,0,0,0,0,0,0,0,0,0,302,
scooby_state_4099c7|56|1 301,0,0,0,0,0,0,0,0,0,0,0,0,0,0,301,
scooby_state_409888|37|1 295,1,0,0,1,0,1,0,0,0,0,1,0,0,1,300,
scooby_state_409a55|26|0 299,0,0,0,1,0,0,0,0,0,0,0,0,0,0,300,
scooby_state_4099c7|3|1 300,0,0,0,0,0,0,0,0,0,0,0,0,0,0,300,
scooby_state_409a95|3|1 299,0,0,0,0,0,0,0,0,0,0,0,0,0,0,299,
scooby_state_409a95|60|1 298,0,0,0,0,0,0,0,0,0,0,0,1,0,0,299,
scooby_state_409937|59|1 252,1,4,5,2,3,4,1,7,2,2,2,2,4,7,298,
scooby_state_40992e|40|1 297,0,0,0,0,0,0,0,0,0,0,0,0,0,0,297,
scooby_state_409a55|13|0 296,0,0,0,0,0,0,0,0,0,0,0,0,0,0,296,
scooby_state_4099c7|5|1 294,0,1,0,0,0,0,0,0,0,0,0,0,0,0,295,
scooby_state_409a4b|30|1 294,0,0,0,0,0,0,0,0,0,0,0,0,0,0,294,
scooby_state_40992e|12|1 292,0,1,0,0,0,0,0,0,0,0,0,0,0,0,293,
scooby_state_4098f1|36|0 290,1,0,0,0,0,0,0,1,0,0,0,0,0,0,292,
scooby_state_409a0a|30|-1 277,1,0,6,1,1,0,0,0,3,0,0,0,1,2,292,
scooby_state_409937|33|1 249,1,1,2,1,5,2,5,0,5,2,2,6,4,5,290,
scooby_state_409a95|7|1 290,0,0,0,0,0,0,0,0,0,0,0,0,0,0,290,
scooby_state_4099c7|17|1 289,0,0,0,0,0,0,0,0,0,0,0,0,0,0,289,
scooby_state_4099c7|61|1 286,0,0,1,0,0,0,0,0,1,0,0,0,0,0,288,
scooby_state_409a0a|14|-1 288,0,0,0,0,0,0,0,0,0,0,0,0,0,0,288,
scooby_state_4098f1|38|0 288,0,0,0,0,0,0,0,0,0,0,0,0,0,0,288,
scooby_state_40992e|29|1 285,0,0,0,0,0,0,0,0,0,0,0,0,0,0,285,
scooby_state_409a0a|22|-1 283,0,0,0,0,0,0,0,1,0,0,0,0,0,0,284,
scooby_state_409a95|20|1 284,0,0,0,0,0,0,0,0,0,0,0,0,0,0,284,
scooby_state_409a0a|19|-1 280,0,0,0,0,0,0,0,1,0,0,0,0,0,2,283,
scooby_state_409a0a|20|-1 282,0,0,0,0,0,0,0,0,0,0,0,0,0,0,282,
scooby_state_409a4b|60|1 282,0,0,0,0,0,0,0,0,0,0,0,0,0,0,282,
scooby_state_409a95|12|0 282,0,0,0,0,0,0,0,0,0,0,0,0,0,0,282,
scooby_state_409a0a|21|-1 280,0,0,0,0,0,1,0,0,0,0,0,0,0,0,281,
scooby_state_409a4b|4|1 278,0,1,1,0,0,0,1,0,0,0,0,0,0,0,281,
scooby_state_409a4b|48|1 267,1,0,1,3,0,0,0,0,0,0,2,1,0,5,280,
scooby_state_40992e|39|1 277,0,0,0,0,0,1,0,0,0,0,0,0,0,0,278,
scooby_state_409a95|34|1 278,0,0,0,0,0,0,0,0,0,0,0,0,0,0,278,
scooby_state_409888|27|1 266,1,1,1,2,0,2,1,0,1,0,0,0,1,2,278,
scooby_state_409a0a|11|-1 276,0,0,0,0,0,0,0,1,0,1,0,0,0,0,278,
scooby_state_409a95|21|1 276,0,0,0,1,0,0,0,0,0,0,0,0,0,0,277,
scooby_state_409a14|32|1 255,3,3,0,1,1,3,1,2,0,0,3,2,2,1,277,
scooby_state_40992e|16|1 276,1,0,0,0,0,0,0,0,0,0,0,0,0,0,277,
scooby_state_40992e|37|1 268,0,0,0,1,0,0,0,0,0,0,0,0,0,8,277,
scooby_state_409a55|42|0 238,0,0,7,5,3,0,13,0,8,0,2,0,0,0,276,
scooby_state_409a55|14|0 276,0,0,0,0,0,0,0,0,0,0,0,0,0,0,276,
scooby_state_4098f1|37|0 276,0,0,0,0,0,0,0,0,0,0,0,0,0,0,276,
scooby_state_409a4b|11|1 276,0,0,0,0,0,0,0,0,0,0,0,0,0,0,276,
scooby_state_409937|57|1 276,0,0,0,0,0,0,0,0,0,0,0,0,0,0,276,
scooby_state_409937|58|1 275,0,0,0,0,0,1,0,0,0,0,0,0,0,0,276,
scooby_state_40992e|27|1 276,0,0,0,0,0,0,0,0,0,0,0,0,0,0,276,
scooby_state_409a95|15|1 274,0,0,1,0,0,0,0,0,0,0,0,0,0,0,275,
scooby_state_4099c7|32|1 253,0,0,2,0,4,3,1,0,0,0,1,4,1,6,275,
scooby_state_409a0a|27|-1 274,0,0,0,0,0,0,0,0,0,0,0,0,0,0,274,
scooby_state_4098a5|1|1 245,0,1,4,0,0,7,0,2,4,0,2,1,3,5,274,
scooby_state_4099c7|16|1 274,0,0,0,0,0,0,0,0,0,0,0,0,0,0,274,
scooby_state_409888|47|1 272,0,0,0,0,0,0,1,0,0,0,0,0,0,0,273,
scooby_state_409a4b|6|1 273,0,0,0,0,0,0,0,0,0,0,0,0,0,0,273,
scooby_state_409888|25|1 250,0,2,2,3,2,1,2,1,1,2,2,2,1,2,273,
scooby_state_409a14|2|-7 272,0,0,0,0,0,0,0,0,0,0,0,0,1,0,273,
scooby_state_409a95|18|1 262,0,1,0,0,0,0,0,0,0,0,0,2,7,0,272,
scooby_state_409a4b|56|1 272,0,0,0,0,0,0,0,0,0,0,0,0,0,0,272,
scooby_state_4099c7|57|1 272,0,0,0,0,0,0,0,0,0,0,0,0,0,0,272,
scooby_state_409888|49|1 271,0,0,0,0,0,0,0,0,0,0,0,0,0,0,271,
scooby_state_409a4b|53|1 263,0,0,3,0,0,1,0,0,0,1,0,0,2,1,271,
scooby_state_40992e|41|1 271,0,0,0,0,0,0,0,0,0,0,0,0,0,0,271,
scooby_state_4099c7|18|0 267,0,0,0,0,0,2,0,0,0,1,1,0,0,0,271,
scooby_state_409a4b|55|1 268,0,0,0,0,0,0,0,0,0,0,0,0,0,0,268,
scooby_state_409937|30|1 268,0,0,0,0,0,0,0,0,0,0,0,0,0,0,268,
scooby_state_409a14|15|-5 268,0,0,0,0,0,0,0,0,0,0,0,0,0,0,268,
scooby_state_409a4b|5|1 267,0,0,0,0,0,0,0,0,0,0,0,0,0,0,267,
scooby_state_409888|40|1 267,0,0,0,0,0,0,0,0,0,0,0,0,0,0,267,
[...]
scooby_state_409a14|19|6 0,0,0,0,1,0,0,0,0,0,0,0,0,0,0,1,
scooby_state_409a4b|39|12 0,1,0,0,0,0,0,0,0,0,0,0,0,0,0,1,
scooby_state_409a0a|39|12 0,0,0,0,0,0,1,0,0,0,0,0,0,0,0,1,
scooby_state_4098a5|36|9 0,0,0,0,0,0,1,0,0,0,0,0,0,0,0,1,
scooby_state_4099c7|1|-8 0,1,0,0,0,0,0,0,0,0,0,0,0,0,0,1,
scooby_state_4098e7|25|0 0,1,0,0,0,0,0,0,0,0,0,0,0,0,0,1,
scooby_state_409a55|30|4 0,1,0,0,0,0,0,0,0,0,0,0,0,0,0,1,
scooby_state_409a95|59|6 0,1,0,0,0,0,0,0,0,0,0,0,0,0,0,1,
scooby_state_409a95|53|4 0,0,0,0,0,0,0,0,0,0,0,0,1,0,0,1,
scooby_state_4098f1|19|5 0,0,0,1,0,0,0,0,0,0,0,0,0,0,0,1,
scooby_state_409a14|53|-2 1,0,0,0,0,0,0,0,0,0,0,0,0,0,0,1,
scooby_state_4098a5|33|4 1,0,0,0,0,0,0,0,0,0,0,0,0,0,0,1,
scooby_state_409937|45|2 0,0,0,0,0,0,0,0,0,0,0,1,0,0,0,1,
scooby_state_409a95|45|2 1,0,0,0,0,0,0,0,0,0,0,0,0,0,0,1,
scooby_state_4099c7|45|2 0,0,0,0,0,0,0,0,0,0,0,0,0,0,1,1,
scooby_state_409a4b|52|-2 0,0,0,0,0,0,0,0,0,0,0,0,0,0,1,1,
scooby_state_4098e7|7|-1 0,1,0,0,0,0,0,0,0,0,0,0,0,0,0,1,
scooby_state_409a55|27|-1 0,0,0,0,0,0,0,0,0,0,0,1,0,0,0,1,
scooby_state_409a0a|14|4 1,0,0,0,0,0,0,0,0,0,0,0,0,0,0,1,
scooby_state_4098b0|0|-57 1,0,0,0,0,0,0,0,0,0,0,0,0,0,0,1,
scooby_state_4098a5|54|4 0,0,0,0,0,0,0,0,0,0,0,0,0,1,0,1,
scooby_state_4098b0|37|6 1,0,0,0,0,0,0,0,0,0,0,0,0,0,0,1,
scooby_state_409977|35|-2 1,0,0,0,0,0,0,0,0,0,0,0,0,0,0,1,
scooby_state_409977|43|2 0,0,0,0,0,0,0,0,0,0,0,1,0,0,0,1,
scooby_state_409a95|13|-3 0,0,1,0,0,0,0,0,0,0,0,0,0,0,0,1,
scooby_state_409981|19|-20 0,1,0,0,0,0,0,0,0,0,0,0,0,0,0,1,
scooby_state_4098b0|19|-20 0,1,0,0,0,0,0,0,0,0,0,0,0,0,0,1,
scooby_state_409a0a|56|-2 0,0,0,0,0,0,0,0,0,0,0,1,0,0,0,1,
scooby_state_4098b0|19|6 0,0,0,0,0,1,0,0,0,0,0,0,0,0,0,1,
scooby_state_4098a5|42|-5 0,1,0,0,0,0,0,0,0,0,0,0,0,0,0,1,
scooby_state_409a55|15|-24 0,0,0,0,0,1,0,0,0,0,0,0,0,0,0,1,
scooby_state_409a0a|34|-3 0,0,0,0,0,0,0,0,0,0,0,0,0,1,0,1,
scooby_state_409a95|2|-6 0,0,0,0,0,0,0,0,0,0,0,0,1,0,0,1,
scooby_state_4098a5|40|-9 0,0,0,0,0,0,1,0,0,0,0,0,0,0,0,1,
scooby_state_409888|26|3 1,0,0,0,0,0,0,0,0,0,0,0,0,0,0,1,
scooby_state_409a55|14|-25 0,0,0,0,0,0,0,0,0,0,0,0,0,0,1,1,
scooby_state_409a0a|52|5 1,0,0,0,0,0,0,0,0,0,0,0,0,0,0,1,
scooby_state_4099ba|38|6 0,0,0,0,0,0,0,0,0,0,0,0,0,0,1,1,
scooby_state_409a55|53|-2 0,0,0,0,0,1,0,0,0,0,0,0,0,0,0,1,
scooby_state_409a0a|43|-4 1,0,0,0,0,0,0,0,0,0,0,0,0,0,0,1,
scooby_state_409a4b|49|4 0,0,0,1,0,0,0,0,0,0,0,0,0,0,0,1,
scooby_state_4098a5|49|4 0,0,0,0,0,0,0,0,0,0,0,0,1,0,0,1,
scooby_state_4098f1|41|2 0,0,0,0,0,0,0,0,0,0,0,0,0,1,0,1,
scooby_state_409981|52|5 0,0,0,0,0,1,0,0,0,0,0,0,0,0,0,1,
scooby_state_409a95|49|2 0,0,0,0,0,0,0,0,0,0,0,1,0,0,0,1,
scooby_state_4098a5|7|-7 1,0,0,0,0,0,0,0,0,0,0,0,0,0,0,1,
scooby_state_409937|9|-1 0,0,0,0,0,1,0,0,0,0,0,0,0,0,0,1,
scooby_state_4099c7|14|-1 0,0,0,0,0,0,0,0,0,0,0,0,1,0,0,1,
scooby_state_4098b0|58|4 1,0,0,0,0,0,0,0,0,0,0,0,0,0,0,1,
scooby_state_409a8b|56|7 0,0,0,0,0,0,0,1,0,0,0,0,0,0,0,1,
scooby_state_4099ba|39|8 1,0,0,0,0,0,0,0,0,0,0,0,0,0,0,1,
scooby_state_409a55|28|-2 0,0,0,0,0,0,0,0,0,0,1,0,0,0,0,1,
scooby_state_4098a5|26|-6 0,0,0,1,0,0,0,0,0,0,0,0,0,0,0,1,
scooby_state_4098a5|26|-3 0,0,1,0,0,0,0,0,0,0,0,0,0,0,0,1,
scooby_state_4098e7|12|10 0,0,0,0,0,0,0,0,0,1,0,0,0,0,0,1,
scooby_state_409a4b|35|10 0,0,0,0,1,0,0,0,0,0,0,0,0,0,0,1,
scooby_state_409a8b|0|-45 1,0,0,0,0,0,0,0,0,0,0,0,0,0,0,1,
scooby_state_40992e|59|0 1,0,0,0,0,0,0,0,0,0,0,0,0,0,0,1,
scooby_state_409937|27|-3 0,1,0,0,0,0,0,0,0,0,0,0,0,0,0,1,
scooby_state_4099ba|40|9 0,1,0,0,0,0,0,0,0,0,0,0,0,0,0,1,
scooby_state_409a8b|40|9 0,1,0,0,0,0,0,0,0,0,0,0,0,0,0,1,
scooby_state_40992e|40|9 0,1,0,0,0,0,0,0,0,0,0,0,0,0,0,1,
scooby_state_4098a5|39|8 0,0,0,0,0,0,0,0,0,0,0,0,0,0,1,1,
scooby_state_409977|43|4 0,0,0,0,0,0,0,0,0,0,0,0,1,0,0,1,
scooby_state_409a14|26|-5 0,1,0,0,0,0,0,0,0,0,0,0,0,0,0,1,
scooby_state_409a4b|51|-8 0,1,0,0,0,0,0,0,0,0,0,0,0,0,0,1,
scooby_state_4098e7|45|0 1,0,0,0,0,0,0,0,0,0,0,0,0,0,0,1,
scooby_state_4098f1|20|-1 0,0,0,0,0,0,0,0,0,0,0,0,0,1,0,1,
scooby_state_409977|36|12 0,0,0,0,0,0,0,0,0,0,0,0,0,1,0,1,
scooby_state_409a14|17|5 0,0,0,0,0,0,0,0,0,0,0,0,0,0,1,1,
scooby_state_4099c7|15|2 0,0,0,0,0,0,0,0,0,0,0,1,0,0,0,1,
scooby_state_4099ba|62|3 0,0,0,0,0,0,0,0,0,0,0,0,0,0,1,1,
scooby_state_409a14|42|1 1,0,0,0,0,0,0,0,0,0,0,0,0,0,0,1,
scooby_state_4098a5|53|-7 0,0,0,0,0,0,0,0,0,0,0,0,0,0,1,1,
scooby_state_409a8b|52|-9 0,0,0,0,0,0,0,0,0,0,0,1,0,0,0,1,
scooby_state_409a55|15|-23 0,0,0,0,0,0,0,0,0,0,0,1,0,0,0,1,
scooby_state_4099c7|6|-1 1,0,0,0,0,0,0,0,0,0,0,0,0,0,0,1,
scooby_state_409a4b|6|-2 1,0,0,0,0,0,0,0,0,0,0,0,0,0,0,1,
scooby_state_409977|6|-2 1,0,0,0,0,0,0,0,0,0,0,0,0,0,0,1,
scooby_state_409a8b|25|0 1,0,0,0,0,0,0,0,0,0,0,0,0,0,0,1,
scooby_state_4099ba|52|5 0,0,1,0,0,0,0,0,0,0,0,0,0,0,0,1,
scooby_state_409a0a|16|10 0,0,0,0,0,0,0,0,0,0,0,0,1,0,0,1,
scooby_state_4098b0|11|-7 0,0,0,0,0,0,0,0,1,0,0,0,0,0,0,1,
scooby_state_4099ba|48|3 0,0,0,0,0,0,0,0,0,0,0,0,0,0,1,1,
scooby_state_4099c7|3|-1 0,0,0,0,0,0,0,0,0,1,0,0,0,0,0,1,
scooby_state_4099c7|12|-6 0,0,0,0,0,0,0,0,0,0,1,0,0,0,0,1,
scooby_state_409a55|17|5 0,0,0,0,0,0,0,0,0,0,0,1,0,0,0,1,
scooby_state_4099c7|51|2 0,0,0,0,0,0,0,0,0,0,0,1,0,0,0,1,
scooby_state_4098a5|52|-3 0,0,0,0,0,0,0,0,0,0,0,1,0,0,0,1,
scooby_state_409937|13|0 1,0,0,0,0,0,0,0,0,0,0,0,0,0,0,1,
scooby_state_409a8b|61|4 0,0,0,0,0,0,0,0,0,0,0,0,0,0,1,1,
scooby_state_409a0a|56|-3 0,1,0,0,0,0,0,0,0,0,0,0,0,0,0,1,
scooby_state_409977|56|-3 0,0,1,0,0,0,0,0,0,0,0,0,0,0,0,1,
scooby_state_4099c7|29|-2 0,1,0,0,0,0,0,0,0,0,0,0,0,0,0,1,
scooby_state_409981|18|-2 0,1,0,0,0,0,0,0,0,0,0,0,0,0,0,1,
scooby_state_4098f1|36|5 0,0,0,0,0,0,0,0,0,0,0,0,0,1,0,1,
scooby_state_409a55|11|-8 0,0,0,0,0,0,0,0,0,0,0,1,0,0,0,1,
scooby_state_409937|19|3 0,0,0,0,0,0,0,0,0,0,0,0,0,1,0,1,
scooby_state_409981|20|2 0,0,0,0,0,0,0,0,0,0,0,1,0,0,0,1,
scooby_state_409977|53|5 0,0,0,0,1,0,0,0,0,0,0,0,0,0,0,1,
scooby_state_409a8b|53|5 0,0,0,0,0,0,0,0,0,0,0,1,0,0,0,1,
scooby_state_409a0a|24|-2 1,0,0,0,0,0,0,0,0,0,0,0,0,0,0,1,
scooby_state_4098e7|30|-1 0,0,0,0,0,1,0,0,0,0,0,0,0,0,0,1,
scooby_state_4098e7|54|-1 0,0,1,0,0,0,0,0,0,0,0,0,0,0,0,1,
scooby_state_409977|14|9 0,0,1,0,0,0,0,0,0,0,0,0,0,0,0,1,
scooby_state_4098a5|13|-2 1,0,0,0,0,0,0,0,0,0,0,0,0,0,0,1,
scooby_state_409a95|14|-1 1,0,0,0,0,0,0,0,0,0,0,0,0,0,0,1,
scooby_state_409937|11|3 0,0,0,0,0,0,0,0,0,1,0,0,0,0,0,1,
scooby_state_4098f1|7|4 0,0,0,0,0,0,0,0,0,0,0,0,0,1,0,1,
scooby_state_409a95|52|5 0,0,0,0,1,0,0,0,0,0,0,0,0,0,0,1,
scooby_state_4098a5|33|7 0,0,0,0,0,0,0,0,0,0,0,0,0,1,0,1,
scooby_state_409a95|18|-19 0,0,0,0,0,1,0,0,0,0,0,0,0,0,0,1,
scooby_state_409a55|17|-21 0,0,0,0,0,0,1,0,0,0,0,0,0,0,0,1,
scooby_state_4098a5|30|4 0,0,0,0,0,0,0,0,0,0,0,0,1,0,0,1,
scooby_state_409937|15|2 0,0,0,0,0,0,0,0,0,0,0,1,0,0,0,1,
scooby_state_409981|26|-5 0,0,0,0,0,0,1,0,0,0,0,0,0,0,0,1,
scooby_state_4098e7|24|0 0,0,0,0,0,0,0,0,1,0,0,0,0,0,0,1,
scooby_state_4098a5|61|16 0,0,0,0,1,0,0,0,0,0,0,0,0,0,0,1,
scooby_state_409a0a|20|2 1,0,0,0,0,0,0,0,0,0,0,0,0,0,0,1,
scooby_state_409a4b|4|-2 1,0,0,0,0,0,0,0,0,0,0,0,0,0,0,1,
scooby_state_4098e7|23|0 1,0,0,0,0,0,0,0,0,0,0,0,0,0,0,1,
scooby_state_409a0a|34|-5 1,0,0,0,0,0,0,0,0,0,0,0,0,0,0,1,
scooby_state_4098a5|51|-6 0,0,0,1,0,0,0,0,0,0,0,0,0,0,0,1,
scooby_state_4098a5|61|3 1,0,0,0,0,0,0,0,0,0,0,0,0,0,0,1,
scooby_state_409a4b|36|-3 1,0,0,0,0,0,0,0,0,0,0,0,0,0,0,1,
scooby_state_409a4b|18|-6 0,0,0,0,0,0,0,0,0,0,0,0,1,0,0,1,
scooby_state_40992e|61|3 0,1,0,0,0,0,0,0,0,0,0,0,0,0,0,1,
scooby_state_409977|33|7 0,0,0,0,0,0,0,0,0,0,0,0,0,1,0,1,
scooby_state_409a8b|15|0 1,0,0,0,0,0,0,0,0,0,0,0,0,0,0,1,
scooby_state_409a0a|24|2 1,0,0,0,0,0,0,0,0,0,0,0,0,0,0,1,
scooby_state_409a4b|54|-8 1,0,0,0,0,0,0,0,0,0,0,0,0,0,0,1,
scooby_state_409937|3|3 0,0,0,0,0,0,0,0,0,0,0,1,0,0,0,1,
scooby_state_409a55|10|-9 0,0,0,0,0,0,0,0,0,0,0,0,1,0,0,1,
scooby_state_409937|15|3 0,1,0,0,0,0,0,0,0,0,0,0,0,0,0,1,
scooby_state_4098a5|27|-3 0,1,0,0,0,0,0,0,0,0,0,0,0,0,0,1,
scooby_state_409a0a|27|-3 0,0,0,0,0,0,0,0,0,0,0,0,0,1,0,1,
scooby_state_409977|27|-3 0,0,1,0,0,0,0,0,0,0,0,0,0,0,0,1,
scooby_state_4098e7|20|-1 0,0,1,0,0,0,0,0,0,0,0,0,0,0,0,1,
scooby_state_409a14|59|5 0,0,0,0,0,0,1,0,0,0,0,0,0,0,0,1,
scooby_state_409a4b|22|-17 0,0,0,0,0,0,0,0,0,0,0,0,0,1,0,1,
scooby_state_4099ba|21|4 0,0,0,0,1,0,0,0,0,0,0,0,0,0,0,1,
scooby_state_409a8b|36|5 0,1,0,0,0,0,0,0,0,0,0,0,0,0,0,1,
scooby_state_4098f1|34|-20 0,0,0,0,0,0,0,0,0,0,0,0,0,0,1,1,
scooby_state_4098a5|5|5 1,0,0,0,0,0,0,0,0,0,0,0,0,0,0,1,
scooby_state_4098a5|21|-17 0,1,0,0,0,0,0,0,0,0,0,0,0,0,0,1,
scooby_state_409a8b|2|-1 0,1,0,0,0,0,0,0,0,0,0,0,0,0,0,1,
scooby_state_409a14|31|7 0,0,0,0,0,1,0,0,0,0,0,0,0,0,0,1,
scooby_state_4099ba|18|2 0,0,0,0,0,0,0,0,0,0,0,0,1,0,0,1,
scooby_state_4098a5|35|8 0,0,0,0,0,0,0,0,0,0,0,1,0,0,0,1,
scooby_state_409a8b|29|3 0,0,0,0,0,0,0,0,0,0,0,0,0,0,1,1,
scooby_state_4099c7|32|9 1,0,0,0,0,0,0,0,0,0,0,0,0,0,0,1,
scooby_state_409a8b|26|4 0,0,0,0,0,0,0,0,1,0,0,0,0,0,0,1,
scooby_state_4099ba|26|4 1,0,0,0,0,0,0,0,0,0,0,0,0,0,0,1,
scooby_state_40992e|29|5 1,0,0,0,0,0,0,0,0,0,0,0,0,0,0,1,
scooby_state_4098f1|3|2 0,0,0,0,0,0,0,0,0,0,0,0,0,1,0,1,
scooby_state_409a0a|56|8 0,0,0,0,0,0,0,0,1,0,0,0,0,0,0,1,
scooby_state_409a55|18|-19 0,0,0,0,0,0,0,0,1,0,0,0,0,0,0,1,
scooby_state_40992e|27|2 0,0,0,0,0,0,0,0,0,0,0,1,0,0,0,1,
scooby_state_4098e7|39|3 1,0,0,0,0,0,0,0,0,0,0,0,0,0,0,1,
scooby_state_4098f1|6|-6 1,0,0,0,0,0,0,0,0,0,0,0,0,0,0,1,
scooby_state_4098e7|53|2 0,0,0,0,0,0,0,0,0,0,0,0,0,0,1,1,
scooby_state_4099c7|34|10 0,0,0,0,0,0,0,0,0,0,0,0,0,1,0,1,
scooby_state_4098e7|20|-2 0,0,0,0,0,0,0,0,0,0,0,1,0,0,0,1,
scooby_state_409a8b|29|5 1,0,0,0,0,0,0,0,0,0,0,0,0,0,0,1,
scooby_state_4098e7|39|6 1,0,0,0,0,0,0,0,0,0,0,0,0,0,0,1,
scooby_state_4098b0|3|2 1,0,0,0,0,0,0,0,0,0,0,0,0,0,0,1,
scooby_state_4098a5|29|-13 0,0,0,1,0,0,0,0,0,0,0,0,0,0,0,1,
scooby_state_4099c7|13|-1 0,0,0,0,0,0,0,0,1,0,0,0,0,0,0,1,
scooby_state_409a4b|22|-2 1,0,0,0,0,0,0,0,0,0,0,0,0,0,0,1,
scooby_state_40992e|29|4 0,0,0,0,0,0,0,0,0,0,0,1,0,0,0,1,
scooby_state_4099ba|5|4 1,0,0,0,0,0,0,0,0,0,0,0,0,0,0,1,
scooby_state_4098b0|15|3 0,0,0,0,0,0,0,0,0,0,0,0,1,0,0,1,
scooby_state_4098a5|5|-39 0,0,0,0,0,0,1,0,0,0,0,0,0,0,0,1,
scooby_state_40992e|3|2 0,0,0,0,0,0,0,0,0,0,0,1,0,0,0,1,
scooby_state_409981|3|3 1,0,0,0,0,0,0,0,0,0,0,0,0,0,0,1,
scooby_state_409888|38|4 1,0,0,0,0,0,0,0,0,0,0,0,0,0,0,1,
scooby_state_409a4b|28|-7 0,0,0,0,0,0,0,0,0,0,0,1,0,0,0,1,
scooby_state_4098a5|36|8 0,0,0,0,0,0,1,0,0,0,0,0,0,0,0,1,
scooby_state_4098e7|10|2 0,0,0,0,0,1,0,0,0,0,0,0,0,0,0,1,
scooby_state_40992e|2|-43 1,0,0,0,0,0,0,0,0,0,0,0,0,0,0,1,
scooby_state_4099ba|0|-45 0,0,0,0,0,0,0,0,1,0,0,0,0,0,0,1,
scooby_state_409a4b|2|-43 0,0,0,0,0,0,0,0,0,0,0,0,0,1,0,1,
scooby_state_409977|2|-43 1,0,0,0,0,0,0,0,0,0,0,0,0,0,0,1,
scooby_state_409a8b|30|4 0,0,0,0,0,0,0,0,0,0,0,0,1,0,0,1,
scooby_state_409977|2|-44 0,0,0,0,0,0,0,0,0,0,0,0,1,0,0,1,
scooby_state_409a55|32|-23 0,0,0,0,0,0,0,0,1,0,0,0,0,0,0,1,
scooby_state_409a55|9|4 0,0,0,0,0,0,1,0,0,0,0,0,0,0,0,1,
scooby_state_409a95|3|-2 1,0,0,0,0,0,0,0,0,0,0,0,0,0,0,1,
scooby_state_409a8b|2|-44 1,0,0,0,0,0,0,0,0,0,0,0,0,0,0,1,
scooby_state_4098f1|9|4 0,0,0,0,0,0,0,0,0,1,0,0,0,0,0,1,
scooby_state_4098a5|22|-16 0,0,0,0,0,0,0,0,0,0,0,0,0,0,1,1,
scooby_state_4098b0|11|-8 0,1,0,0,0,0,0,0,0,0,0,0,0,0,0,1,
scooby_state_409a4b|28|-3 1,0,0,0,0,0,0,0,0,0,0,0,0,0,0,1,
scooby_state_4098e7|27|-1 0,0,0,0,0,0,0,0,1,0,0,0,0,0,0,1,
scooby_state_409a95|14|-24 1,0,0,0,0,0,0,0,0,0,0,0,0,0,0,1,
scooby_state_409a55|14|-3 0,0,1,0,0,0,0,0,0,0,0,0,0,0,0,1,
scooby_state_409a8b|36|0 1,0,0,0,0,0,0,0,0,0,0,0,0,0,0,1,
scooby_state_409a4b|3|-17 0,0,0,0,0,0,0,0,0,0,0,1,0,0,0,1,
scooby_state_409977|5|3 1,0,0,0,0,0,0,0,0,0,0,0,0,0,0,1,
scooby_state_409a95|0|-1 1,0,0,0,0,0,0,0,0,0,0,0,0,0,0,1,
scooby_state_409977|52|2 0,0,0,0,0,0,0,0,0,0,0,1,0,0,0,1,
scooby_state_409a95|32|8 0,0,0,0,0,0,1,0,0,0,0,0,0,0,0,1,
scooby_state_409a4b|38|-5 0,0,0,0,0,0,0,0,0,0,0,0,0,1,0,1,
scooby_state_409a95|54|-1 0,0,0,0,0,0,0,0,0,0,0,0,0,0,1,1,
scooby_state_409a14|22|2 1,0,0,0,0,0,0,0,0,0,0,0,0,0,0,1,
scooby_state_4099c7|13|-3 0,0,1,0,0,0,0,0,0,0,0,0,0,0,0,1,
scooby_state_409a4b|26|-7 0,0,0,0,0,0,0,0,1,0,0,0,0,0,0,1,
scooby_state_409a14|34|-21 0,0,0,0,0,0,0,0,0,0,1,0,0,0,0,1,
scooby_state_409a95|21|6 0,0,0,0,0,0,1,0,0,0,0,0,0,0,0,1,
scooby_state_409977|27|-5 0,1,0,0,0,0,0,0,0,0,0,0,0,0,0,1,
scooby_state_409981|13|2 0,0,0,0,0,0,0,0,0,0,0,1,0,0,0,1,
scooby_state_409a0a|32|-2 1,0,0,0,0,0,0,0,0,0,0,0,0,0,0,1,
scooby_state_409a14|18|-19 0,0,0,0,0,0,0,0,0,0,0,0,0,0,1,1,
scooby_state_409a14|30|-25 0,0,0,0,0,0,0,1,0,0,0,0,0,0,0,1,
scooby_state_409ac0|43|1 1,0,0,0,0,0,0,0,0,0,0,0,0,0,0,1,
scooby_state_4098f1|30|-4 0,0,0,0,0,0,0,0,0,0,0,0,0,0,1,1,
scooby_state_409a95|19|-1 1,0,0,0,0,0,0,0,0,0,0,0,0,0,0,1,
scooby_state_409981|30|-25 0,0,0,0,0,0,0,0,0,0,0,0,0,0,1,1,

scooby_action_0_deg_dist 0,4960,0,0,0,0,0,0,0,0,0,0,0,0,0,0,
scooby_action_-6_deg_dist 0,4179,0,0,0,0,0,0,0,0,0,0,0,0,0,0,
scooby_action_4_deg_dist 0,5337,3,0,0,0,0,0,0,0,0,0,0,0,0,0,
scooby_action_1_deg_dist 0,1716500,18298,0,8151,0,3119,0,0,0,0,0,0,0,0,0,
scooby_action_30_deg_dist 0,2806,1,0,0,0,0,0,0,0,0,0,0,0,0,0,
scooby_action_5_deg_dist 0,4446,1,0,0,0,0,0,0,0,0,0,0,0,0,0,
scooby_action_10_deg_dist 0,3470,1,0,0,0,0,0,0,0,0,0,0,0,0,0,
scooby_action_3_deg_dist 0,4675,2,0,0,0,0,0,0,0,0,0,0,0,0,0,
scooby_action_32_deg_dist 0,2754,1,0,0,0,0,0,0,0,0,0,0,0,0,0,
scooby_action_11_deg_dist 0,3390,6,0,0,0,0,0,0,0,0,0,0,0,0,0,
scooby_action_12_deg_dist 0,3103,1,0,0,0,0,0,0,0,0,0,0,0,0,0,
scooby_action_22_deg_dist 0,3007,1,0,0,0,0,0,0,0,0,0,0,0,0,0,
scooby_action_23_deg_dist 0,2952,2,0,0,0,0,0,0,0,0,0,0,0,0,0,
scooby_action_-1_deg_dist 0,8288,0,0,0,0,0,0,0,0,0,0,0,0,0,0,
scooby_action_-3_deg_dist 0,6567,0,0,0,0,0,0,0,0,0,0,0,0,0,0,

scooby_track_called 1806021
scooby_track_same_address 28726
scooby_track_evict 1777039

scooby_reward_demand_called 1806021
scooby_reward_demand_pt_not_found 1587729
scooby_reward_demand_pt_found 218292
scooby_reward_demand_pt_found_total 218292
scooby_reward_demand_has_reward 2832
scooby_reward_train_called 1511745
scooby_reward_assign_reward_called 1777076
scooby_reward_no_pref 4959
scooby_reward_incorrect 1506786
scooby_reward_correct_untimely 84114
scooby_reward_correct_timely 131346
scooby_reward_out_of_bounds 49871
scooby_reward_tracker_hit 0

scooby_reward_none_low_bw 4959
scooby_reward_none_high_bw 0
scooby_reward_incorrect_low_bw 1506786
scooby_reward_incorrect_high_bw 0
scooby_reward_correct_untimely_low_bw 84114
scooby_reward_correct_untimely_high_bw 0
scooby_reward_correct_timely_low_bw 131346
scooby_reward_correct_timely_high_bw 0
scooby_reward_out_of_bounds_low_bw 49871
scooby_reward_out_of_bounds_high_bw 0
scooby_reward_tracker_hit_low_bw 0
scooby_reward_tracker_hit_high_bw 0

scooby_reward_1 0,1475240,83767,130998,41653,0,
scooby_reward_3 0,3064,170,164,374,0,
scooby_reward_4 0,2638,38,31,479,0,
scooby_reward_5 0,2796,44,43,388,0,
scooby_reward_10 0,2447,3,3,573,0,
scooby_reward_11 0,2289,1,0,664,0,
scooby_reward_12 0,2395,9,0,607,0,
scooby_reward_22 0,2118,1,0,838,0,
scooby_reward_23 0,1960,0,0,958,0,
scooby_reward_30 0,1568,0,0,1227,0,
scooby_reward_32 0,1437,0,0,1308,0,
scooby_reward_-1 0,3287,77,101,111,0,
scooby_reward_-3 0,2913,4,6,229,0,
scooby_reward_-6 0,2634,0,0,462,0,
scooby_reward_0 4959,0,0,0,0,0,

scooby_train_called 1777038
scooby_train_compute_reward 1511745

scooby_register_fill_called 1355080
scooby_register_fill_set 1334516
scooby_register_fill_set_total 1334516

scooby_register_prefetch_hit_called 394879
scooby_register_prefetch_hit_set 359795
scooby_register_prefetch_hit_set_total 359795

scooby_pref_issue_scooby 1778570

learning_engine_featurewise.action.called 1806021
learning_engine_featurewise.action.explore 3298
learning_engine_featurewise.action.exploit 1802723
learning_engine_featurewise.action.fallback 1720206
learning_engine_featurewise.action.dyn_fallback_saved_bw 0
learning_engine_featurewise.action.dyn_fallback_saved_bw_acc 282
learning_engine_featurewise.action.index_1_explored 212
learning_engine_featurewise.action.index_1_exploited 1745856
learning_engine_featurewise.action.index_3_explored 234
learning_engine_featurewise.action.index_3_exploited 4443
learning_engine_featurewise.action.index_4_explored 226
learning_engine_featurewise.action.index_4_exploited 5114
learning_engine_featurewise.action.index_5_explored 208
learning_engine_featurewise.action.index_5_exploited 4239
learning_engine_featurewise.action.index_10_explored 248
learning_engine_featurewise.action.index_10_exploited 3223
learning_engine_featurewise.action.index_11_explored 214
learning_engine_featurewise.action.index_11_exploited 3182
learning_engine_featurewise.action.index_12_explored 218
learning_engine_featurewise.action.index_12_exploited 2886
learning_engine_featurewise.action.index_22_explored 230
learning_engine_featurewise.action.index_22_exploited 2778
learning_engine_featurewise.action.index_23_explored 226
learning_engine_featurewise.action.index_23_exploited 2728
learning_engine_featurewise.action.index_30_explored 221
learning_engine_featurewise.action.index_30_exploited 2586
learning_engine_featurewise.action.index_32_explored 191
learning_engine_featurewise.action.index_32_exploited 2564
learning_engine_featurewise.action.index_-1_explored 218
learning_engine_featurewise.action.index_-1_exploited 8070
learning_engine_featurewise.action.index_-3_explored 223
learning_engine_featurewise.action.index_-3_exploited 6344
learning_engine_featurewise.action.index_-6_explored 206
learning_engine_featurewise.action.index_-6_exploited 3973
learning_engine_featurewise.action.index_0_explored 223
learning_engine_featurewise.action.index_0_exploited 4737
learning_engine_featurewise.learn.called 1777038
learning_engine_featurewise.learn.su_skip_PC 0
learning_engine_featurewise.learn.su_skip_PC_Delta 0

learning_engine_featurewise.q_value_histogram.bucket_0 169
learning_engine_featurewise.q_value_histogram.bucket_1 62
learning_engine_featurewise.q_value_histogram.bucket_2 1757399
learning_engine_featurewise.q_value_histogram.bucket_3 32886
learning_engine_featurewise.q_value_histogram.bucket_4 11619
learning_engine_featurewise.q_value_histogram.bucket_5 588
learning_engine_featurewise.q_value_histogram.bucket_6 0
learning_engine_featurewise.q_value_histogram.bucket_7 0

learning_engine_featurewise.consensus.total 1802723
learning_engine_featurewise.consensus.feature_align_PC 1752206
learning_engine_featurewise.consensus.feature_align_PC_ratio 0.97
learning_engine_featurewise.consensus.feature_align_PC_Delta 1799428
learning_engine_featurewise.consensus.feature_align_PC_Delta_ratio 1.00
learning_engine_featurewise.consensus.feature_align_all 1749140
learning_engine_featurewise.consensus.feature_align_all_ratio 0.97

learning_engine_featurewise.feature_PC_min_weight 1000000.00000000
learning_engine_featurewise.feature_PC_max_weight 0.00000000
learning_engine_featurewise.feature_PC_Delta_min_weight 1000000.00000000
learning_engine_featurewise.feature_PC_Delta_max_weight 0.00000000
unique_pcs 33
unique_pages 4614
unique_trigger_pcs 23
total_bitmaps_seen 0
unique_bitmaps_seen 0

scooby_bw_epochs 954563
scooby_bw_level_0 954080
scooby_bw_level_1 482
scooby_bw_level_2 1
scooby_bw_level_3 0

scooby_ipc_epochs 0
scooby_ipc_level_0 0
scooby_ipc_level_1 0
scooby_ipc_level_2 0
scooby_ipc_level_3 0

scooby_cache_acc_epochs 207510
scooby_cache_acc_level_0 112876
scooby_cache_acc_level_1 32473
scooby_cache_acc_level_2 23576
scooby_cache_acc_level_3 11869
scooby_cache_acc_level_4 5284
scooby_cache_acc_level_5 8482
scooby_cache_acc_level_6 4005
scooby_cache_acc_level_7 2923
scooby_cache_acc_level_8 1703
scooby_cache_acc_level_9 4319

Channel_0_RQ_row_buffer_hit 27215
Channel_0_RQ_row_buffer_miss 117499
Channel_0_WQ_row_buffer_hit 1985
Channel_0_WQ_row_buffer_miss 65734
Channel_0_WQ_full 0
Channel_0_dbus_congested 31293

avg_congested_cycle 8

DRAM_bw_pochs 954563
DRAM_bw_level_0 954080
DRAM_bw_level_1 482
DRAM_bw_level_2 1
DRAM_bw_level_3 0
