*************************************************
   ChampSim Multicore Out-of-Order Simulator
   Last compiled: Apr  3 2025 20:54:34
*************************************************
parsing config file: /home/zir/Pythia/config/pythia.ini

trace_0 /home/zir/ChampSim/ML-DPC/ChampSimTraces/spec06/473.astar-s2.trace.gz
adding L2C_PREFETCHER: Scooby
Initialize SHIP state
warmup_instructions 10000000
simulation_instructions 50000000
champsim_seed 165
measure_ipc 0
measure_ipc_epoch 1000
measure_dram_bw 1
measure_dram_bw_epoch 256
measure_cache_acc 1
measure_cache_acc_epoch 1024
l1d_perfect 0
l2c_perfect 0
llc_perfect 0
l1d_semi_perfect 0
l2c_semi_perfect 0
llc_semi_perfect 0
semi_perfect_cache_page_buffer_size 64

num_cpus 1
cpu_freq 4000
dram_io_freq 2400
page_size 4096
block_size 64
max_read_per_cycle 8
max_fill_per_cycle 1
dram_channels 1
log2_dram_channels 0
dram_ranks 1
dram_banks 8
dram_rows 65536
dram_columns 128
dram_row_size 8
dram_size 4096
dram_pages 1048576

fetch_width 6
decode_width 6
exec_width 4
lq_width 2
sq_width 2
retire_width 4
scheduler_size 128
branch_mispredict_penalty 20
rob_size 256
lq_size 72
sq_size 56
num_instr_destinations_sparc 4
num_instr_destinations 2
num_instr_sources 4

itlb_set 16
itlb_way 8
itlb_rq_size 16
itlb_wq_size 16
itlb_pq_size 0
itlb_mshr_size 8
itlb_latency 1

dtlb_set 16
dtlb_way 4
dtlb_rq_size 16
dtlb_wq_size 16
dtlb_pq_size 0
dtlb_mshr_size 8
dtlb_latency 1

stlb_set 128
stlb_way 12
stlb_rq_size 32
stlb_wq_size 32
stlb_pq_size 0
stlb_mshr_size 16
stlb_latency 8

l1i_size 32
l1i_set 64
l1i_way 8
l1i_rq_size 64
l1i_wq_size 64
l1i_pq_size 8
l1i_mshr_size 8
l1i_latency 1

l1d_size 32
l1d_set 64
l1d_way 8
l1d_rq_size 64
l1d_wq_size 64
l1d_pq_size 8
l1d_mshr_size 16
l1d_latency 4

l2c_size 256
l2c_set 512
l2c_way 8
l2c_rq_size 32
l2c_wq_size 32
l2c_pq_size 32
l2c_mshr_size 32
l2c_latency 10

llc_size 2048
llc_set 2048
llc_way 16
llc_rq_size 32
llc_wq_size 32
llc_pq_size 32
llc_mshr_size 64
llc_latency 20

dram_channel_width 8
dram_wq_size 64
dram_rq_size 64
tRP 15
tRCD 15
tCAS 12.5
dram_dbus_turn_around_time 30
dram_write_high_wm 56
dram_write_low_wm 48
min_dram_writes_per_switch 16
dram_mtps 2400
dram_dbus_return_time 13

scooby_alpha 0.0065088
scooby_gamma 0.556301
scooby_epsilon 0.00182284
scooby_state_num_bits 10
scooby_max_states 1024
scooby_seed 200
scooby_policy EGreedy
scooby_learning_type SARSA
scooby_actions 1,3,4,5,10,11,12,22,23,30,32,-1,-3,-6,0,
scooby_max_actions 15
scooby_pt_size 256
scooby_st_size 64
scooby_max_pcs 5
scooby_max_offsets 5
scooby_max_deltas 5
scooby_reward_none -4
scooby_reward_incorrect -8
scooby_reward_correct_untimely 12
scooby_reward_correct_timely 20
scooby_brain_zero_init 0
scooby_enable_reward_all 0
scooby_enable_track_multiple 0
scooby_enable_reward_out_of_bounds 1
scooby_reward_out_of_bounds -12
scooby_state_type 1
scooby_state_hash_type 11
scooby_access_debug 0
scooby_print_access_debug 0
scooby_print_access_debug_pc deadbeef
scooby_print_access_debug_pc_count 0
scooby_print_trace 0
scooby_enable_state_action_stats 1
scooby_enable_reward_tracker_hit 0
scooby_reward_tracker_hit -2
scooby_enable_featurewise_engine 1
scooby_pref_degree 1
scooby_enable_dyn_degree 1
scooby_max_to_avg_q_thresholds 0.5,1,2,
scooby_dyn_degrees 1,2,4,4,
scooby_multi_deg_select_type 2
scooby_last_pref_offset_conf_thresholds 1,3,8,
scooby_dyn_degrees_type2 1,2,4,6,
scooby_action_tracker_size 2
scooby_high_bw_thresh 4
scooby_enable_hbw_reward 1
scooby_reward_hbw_correct_timely 20
scooby_reward_hbw_correct_untimely 12
scooby_reward_hbw_incorrect -14
scooby_reward_hbw_none -2
scooby_reward_hbw_out_of_bounds -12
scooby_reward_hbw_tracker_hit -2
scooby_last_pref_offset_conf_thresholds_hbw 1,3,8,
scooby_dyn_degrees_type2_hbw 1,2,4,6,

le_enable_trace 0
le_trace_interval 0
le_trace_file_name 
le_trace_state 0
le_enable_score_plot 0
le_plot_file_name 
le_plot_actions 
le_enable_action_trace 0
le_action_trace_interval 0
le_action_trace_name 
le_enable_action_plot 0

le_featurewise_active_features PC, PC_Delta
le_featurewise_num_tilings 3,3,
le_featurewise_num_tiles 128,128,
le_featurewise_hash_types 2,2,
le_featurewise_enable_tiling_offset 1,1,
le_featurewise_max_q_thresh 0.5
le_featurewise_enable_action_fallback 1
le_featurewise_feature_weights 1,1,
le_featurewise_enable_dynamic_weight 0
le_featurewise_weight_gradient 0.001
le_featurewise_disable_adjust_weight_all_features_align 1
le_featurewise_selective_update 0
le_featurewise_pooling_type 2
le_featurewise_enable_dyn_action_fallback 1
le_featurewise_bw_acc_check_level 1
le_featurewise_acc_thresh 2
le_featurewise_enable_trace 0
le_featurewise_trace_feature_type 0
le_featurewise_trace_feature 
le_featurewise_trace_interval 0
le_featurewise_trace_record_count 0
le_featurewise_trace_file_name 
le_featurewise_enable_score_plot 0
le_featurewise_plot_actions 
le_featurewise_plot_file_name 


Heartbeat CPU  0 instructions:    1000001 cycles:    1142059 heartbeat IPC: 0.87561 cumulative IPC: 0.87561 (Simulation time: 0 hr 0 min 2 sec) 
Heartbeat CPU  0 instructions:    2000003 cycles:    2030170 heartbeat IPC: 1.12599 cumulative IPC: 0.98514 (Simulation time: 0 hr 0 min 4 sec) 
Heartbeat CPU  0 instructions:    3000000 cycles:    3160153 heartbeat IPC: 0.88497 cumulative IPC: 0.94932 (Simulation time: 0 hr 0 min 6 sec) 
Heartbeat CPU  0 instructions:    4000000 cycles:    4293099 heartbeat IPC: 0.88265 cumulative IPC: 0.93173 (Simulation time: 0 hr 0 min 7 sec) 
Heartbeat CPU  0 instructions:    5000002 cycles:    5431762 heartbeat IPC: 0.87822 cumulative IPC: 0.92051 (Simulation time: 0 hr 0 min 9 sec) 
Heartbeat CPU  0 instructions:    6000001 cycles:    6323658 heartbeat IPC: 1.12121 cumulative IPC: 0.94882 (Simulation time: 0 hr 0 min 11 sec) 
Heartbeat CPU  0 instructions:    7000002 cycles:    7158407 heartbeat IPC: 1.19797 cumulative IPC: 0.97787 (Simulation time: 0 hr 0 min 13 sec) 
Heartbeat CPU  0 instructions:    8000000 cycles:    7937669 heartbeat IPC: 1.28326 cumulative IPC: 1.00785 (Simulation time: 0 hr 0 min 15 sec) 
Heartbeat CPU  0 instructions:    9000003 cycles:    8747780 heartbeat IPC: 1.23440 cumulative IPC: 1.02883 (Simulation time: 0 hr 0 min 17 sec) 
Heartbeat CPU  0 instructions:   10000002 cycles:    9880693 heartbeat IPC: 0.88268 cumulative IPC: 1.01207 (Simulation time: 0 hr 0 min 19 sec) 

Warmup complete CPU  0 instructions:   10000002 cycles:    9880693 (Simulation time: 0 hr 0 min 19 sec) 

Heartbeat CPU  0 instructions:   11000000 cycles:   17527564 heartbeat IPC: 0.13077 cumulative IPC: 0.13077 (Simulation time: 0 hr 0 min 22 sec) 
Heartbeat CPU  0 instructions:   12000000 cycles:   25505225 heartbeat IPC: 0.12535 cumulative IPC: 0.12800 (Simulation time: 0 hr 0 min 25 sec) 
Heartbeat CPU  0 instructions:   13000003 cycles:   34645496 heartbeat IPC: 0.10941 cumulative IPC: 0.12114 (Simulation time: 0 hr 0 min 28 sec) 
Heartbeat CPU  0 instructions:   14000000 cycles:   41848519 heartbeat IPC: 0.13883 cumulative IPC: 0.12513 (Simulation time: 0 hr 0 min 31 sec) 
Heartbeat CPU  0 instructions:   15000000 cycles:   49318071 heartbeat IPC: 0.13388 cumulative IPC: 0.12678 (Simulation time: 0 hr 0 min 34 sec) 
Heartbeat CPU  0 instructions:   16000000 cycles:   56566356 heartbeat IPC: 0.13796 cumulative IPC: 0.12852 (Simulation time: 0 hr 0 min 37 sec) 
Heartbeat CPU  0 instructions:   17000001 cycles:   63715373 heartbeat IPC: 0.13988 cumulative IPC: 0.13003 (Simulation time: 0 hr 0 min 40 sec) 
Heartbeat CPU  0 instructions:   18000000 cycles:   73280490 heartbeat IPC: 0.10455 cumulative IPC: 0.12618 (Simulation time: 0 hr 0 min 43 sec) 
Heartbeat CPU  0 instructions:   19000000 cycles:   80502686 heartbeat IPC: 0.13846 cumulative IPC: 0.12744 (Simulation time: 0 hr 0 min 46 sec) 
Heartbeat CPU  0 instructions:   20000000 cycles:   88279249 heartbeat IPC: 0.12859 cumulative IPC: 0.12755 (Simulation time: 0 hr 0 min 49 sec) 
Heartbeat CPU  0 instructions:   21000003 cycles:   97539334 heartbeat IPC: 0.10799 cumulative IPC: 0.12549 (Simulation time: 0 hr 0 min 52 sec) 
Heartbeat CPU  0 instructions:   22000000 cycles:  105623883 heartbeat IPC: 0.12369 cumulative IPC: 0.12534 (Simulation time: 0 hr 0 min 56 sec) 
Heartbeat CPU  0 instructions:   23000002 cycles:  112278231 heartbeat IPC: 0.15028 cumulative IPC: 0.12696 (Simulation time: 0 hr 0 min 59 sec) 
Heartbeat CPU  0 instructions:   24000000 cycles:  119620316 heartbeat IPC: 0.13620 cumulative IPC: 0.12757 (Simulation time: 0 hr 1 min 2 sec) 
Heartbeat CPU  0 instructions:   25000001 cycles:  128351252 heartbeat IPC: 0.11454 cumulative IPC: 0.12661 (Simulation time: 0 hr 1 min 5 sec) 
Heartbeat CPU  0 instructions:   26000002 cycles:  135774482 heartbeat IPC: 0.13471 cumulative IPC: 0.12709 (Simulation time: 0 hr 1 min 8 sec) 
Heartbeat CPU  0 instructions:   27000003 cycles:  145735775 heartbeat IPC: 0.10039 cumulative IPC: 0.12513 (Simulation time: 0 hr 1 min 12 sec) 
Heartbeat CPU  0 instructions:   28000000 cycles:  152701650 heartbeat IPC: 0.14356 cumulative IPC: 0.12603 (Simulation time: 0 hr 1 min 15 sec) 
Heartbeat CPU  0 instructions:   29000001 cycles:  161906546 heartbeat IPC: 0.10864 cumulative IPC: 0.12498 (Simulation time: 0 hr 1 min 19 sec) 
Heartbeat CPU  0 instructions:   30000001 cycles:  168626276 heartbeat IPC: 0.14882 cumulative IPC: 0.12599 (Simulation time: 0 hr 1 min 22 sec) 
Heartbeat CPU  0 instructions:   31000002 cycles:  175584191 heartbeat IPC: 0.14372 cumulative IPC: 0.12673 (Simulation time: 0 hr 1 min 24 sec) 
Heartbeat CPU  0 instructions:   32000000 cycles:  182271206 heartbeat IPC: 0.14954 cumulative IPC: 0.12762 (Simulation time: 0 hr 1 min 27 sec) 
Heartbeat CPU  0 instructions:   33000001 cycles:  188731602 heartbeat IPC: 0.15479 cumulative IPC: 0.12860 (Simulation time: 0 hr 1 min 30 sec) 
Heartbeat CPU  0 instructions:   34000000 cycles:  198075919 heartbeat IPC: 0.10702 cumulative IPC: 0.12753 (Simulation time: 0 hr 1 min 35 sec) 
Heartbeat CPU  0 instructions:   35000000 cycles:  205006444 heartbeat IPC: 0.14429 cumulative IPC: 0.12812 (Simulation time: 0 hr 1 min 39 sec) 
Heartbeat CPU  0 instructions:   36000000 cycles:  212090868 heartbeat IPC: 0.14115 cumulative IPC: 0.12858 (Simulation time: 0 hr 1 min 43 sec) 
Heartbeat CPU  0 instructions:   37000002 cycles:  221431153 heartbeat IPC: 0.10706 cumulative IPC: 0.12763 (Simulation time: 0 hr 1 min 47 sec) 
Heartbeat CPU  0 instructions:   38000000 cycles:  228151765 heartbeat IPC: 0.14880 cumulative IPC: 0.12828 (Simulation time: 0 hr 1 min 50 sec) 
Heartbeat CPU  0 instructions:   39000001 cycles:  237571267 heartbeat IPC: 0.10616 cumulative IPC: 0.12737 (Simulation time: 0 hr 1 min 54 sec) 
Heartbeat CPU  0 instructions:   40000000 cycles:  246810975 heartbeat IPC: 0.10823 cumulative IPC: 0.12662 (Simulation time: 0 hr 1 min 58 sec) 
Heartbeat CPU  0 instructions:   41000001 cycles:  253669401 heartbeat IPC: 0.14581 cumulative IPC: 0.12716 (Simulation time: 0 hr 2 min 1 sec) 
Heartbeat CPU  0 instructions:   42000003 cycles:  261439543 heartbeat IPC: 0.12870 cumulative IPC: 0.12721 (Simulation time: 0 hr 2 min 4 sec) 
Heartbeat CPU  0 instructions:   43000002 cycles:  271299372 heartbeat IPC: 0.10142 cumulative IPC: 0.12623 (Simulation time: 0 hr 2 min 8 sec) 
Heartbeat CPU  0 instructions:   44000000 cycles:  277838495 heartbeat IPC: 0.15293 cumulative IPC: 0.12689 (Simulation time: 0 hr 2 min 11 sec) 
Heartbeat CPU  0 instructions:   45000000 cycles:  284911259 heartbeat IPC: 0.14139 cumulative IPC: 0.12726 (Simulation time: 0 hr 2 min 14 sec) 
Heartbeat CPU  0 instructions:   46000002 cycles:  292132599 heartbeat IPC: 0.13848 cumulative IPC: 0.12755 (Simulation time: 0 hr 2 min 17 sec) 
Heartbeat CPU  0 instructions:   47000002 cycles:  299326883 heartbeat IPC: 0.13900 cumulative IPC: 0.12783 (Simulation time: 0 hr 2 min 20 sec) 
Heartbeat CPU  0 instructions:   48000000 cycles:  308532118 heartbeat IPC: 0.10863 cumulative IPC: 0.12724 (Simulation time: 0 hr 2 min 24 sec) 
Heartbeat CPU  0 instructions:   49000000 cycles:  315021906 heartbeat IPC: 0.15409 cumulative IPC: 0.12781 (Simulation time: 0 hr 2 min 27 sec) 
Heartbeat CPU  0 instructions:   50000000 cycles:  321739912 heartbeat IPC: 0.14885 cumulative IPC: 0.12826 (Simulation time: 0 hr 2 min 29 sec) 
Heartbeat CPU  0 instructions:   51000000 cycles:  329065317 heartbeat IPC: 0.13651 cumulative IPC: 0.12845 (Simulation time: 0 hr 2 min 32 sec) 
Heartbeat CPU  0 instructions:   52000000 cycles:  337806470 heartbeat IPC: 0.11440 cumulative IPC: 0.12808 (Simulation time: 0 hr 2 min 36 sec) 
Heartbeat CPU  0 instructions:   53000000 cycles:  345217556 heartbeat IPC: 0.13493 cumulative IPC: 0.12823 (Simulation time: 0 hr 2 min 39 sec) 
Heartbeat CPU  0 instructions:   54000000 cycles:  353487690 heartbeat IPC: 0.12092 cumulative IPC: 0.12805 (Simulation time: 0 hr 2 min 42 sec) 
Heartbeat CPU  0 instructions:   55000000 cycles:  362017048 heartbeat IPC: 0.11724 cumulative IPC: 0.12779 (Simulation time: 0 hr 2 min 45 sec) 
Heartbeat CPU  0 instructions:   56000000 cycles:  372096122 heartbeat IPC: 0.09922 cumulative IPC: 0.12700 (Simulation time: 0 hr 2 min 49 sec) 
Heartbeat CPU  0 instructions:   57000000 cycles:  378821852 heartbeat IPC: 0.14868 cumulative IPC: 0.12739 (Simulation time: 0 hr 2 min 52 sec) 
Heartbeat CPU  0 instructions:   58000001 cycles:  385914409 heartbeat IPC: 0.14099 cumulative IPC: 0.12765 (Simulation time: 0 hr 2 min 55 sec) 
Heartbeat CPU  0 instructions:   59000000 cycles:  394506317 heartbeat IPC: 0.11639 cumulative IPC: 0.12740 (Simulation time: 0 hr 2 min 58 sec) 
Heartbeat CPU  0 instructions:   60000000 cycles:  402747322 heartbeat IPC: 0.12134 cumulative IPC: 0.12727 (Simulation time: 0 hr 3 min 1 sec) 
Finished CPU 0 instructions: 50000001 cycles: 392866637 cumulative IPC: 0.12727 (Simulation time: 0 hr 3 min 1 sec) 

ChampSim completed all CPUs

[ROI Statistics]
Core_0_instructions 50000001
Core_0_cycles 392866637
Core_0_IPC 0.12727

Core_0_branch_prediction_accuracy 88.31214
Core_0_branch_MPKI 16.21162
Core_0_average_ROB_occupancy_at_mispredict 54.72752

Core_0_L1D_total_access 18957153
Core_0_L1D_total_hit 15854620
Core_0_L1D_total_miss 3102533
Core_0_L1D_loads 13839603
Core_0_L1D_load_hit 11798239
Core_0_L1D_load_miss 2041364
Core_0_L1D_RFOs 5117550
Core_0_L1D_RFO_hit 4056381
Core_0_L1D_RFO_miss 1061169
Core_0_L1D_prefetches 0
Core_0_L1D_prefetch_hit 0
Core_0_L1D_prefetch_miss 0
Core_0_L1D_writebacks 0
Core_0_L1D_writeback_hit 0
Core_0_L1D_writeback_miss 0
Core_0_L1D_prefetch_requested 0
Core_0_L1D_prefetch_dropped 0
Core_0_L1D_prefetch_issued 0
Core_0_L1D_prefetch_filled 0
Core_0_L1D_prefetch_useful 0
Core_0_L1D_prefetch_useless 0
Core_0_L1D_prefetch_late 0
Core_0_L1D_average_miss_latency 336.18384

Core_0_L1D_rq_access 21386453
Core_0_L1D_rq_forward 0
Core_0_L1D_rq_merged 7432611
Core_0_L1D_rq_to_cache 13953842
Core_0_L1D_rq_full 0

Core_0_L1D_wq_access 5117813
Core_0_L1D_wq_forward 0
Core_0_L1D_wq_merged 7
Core_0_L1D_wq_to_cache 5117806
Core_0_L1D_wq_full 0

Core_0_L1D_pq_access 0
Core_0_L1D_pq_forward 0
Core_0_L1D_pq_merged 0
Core_0_L1D_pq_to_cache 0
Core_0_L1D_pq_full 0

Core_0_L1D_acc_epochs 296322
Core_0_L1D_acc_level_0 296322
Core_0_L1D_acc_level_1 0
Core_0_L1D_acc_level_2 0
Core_0_L1D_acc_level_3 0
Core_0_L1D_acc_level_4 0
Core_0_L1D_acc_level_5 0
Core_0_L1D_acc_level_6 0
Core_0_L1D_acc_level_7 0
Core_0_L1D_acc_level_8 0
Core_0_L1D_acc_level_9 0

Core_0_L1I_total_access 7677180
Core_0_L1I_total_hit 7677177
Core_0_L1I_total_miss 3
Core_0_L1I_loads 7677180
Core_0_L1I_load_hit 7677177
Core_0_L1I_load_miss 3
Core_0_L1I_RFOs 0
Core_0_L1I_RFO_hit 0
Core_0_L1I_RFO_miss 0
Core_0_L1I_prefetches 0
Core_0_L1I_prefetch_hit 0
Core_0_L1I_prefetch_miss 0
Core_0_L1I_writebacks 0
Core_0_L1I_writeback_hit 0
Core_0_L1I_writeback_miss 0
Core_0_L1I_prefetch_requested 0
Core_0_L1I_prefetch_dropped 0
Core_0_L1I_prefetch_issued 0
Core_0_L1I_prefetch_filled 0
Core_0_L1I_prefetch_useful 0
Core_0_L1I_prefetch_useless 0
Core_0_L1I_prefetch_late 0
Core_0_L1I_average_miss_latency 235.33333

Core_0_L1I_rq_access 49999920
Core_0_L1I_rq_forward 0
Core_0_L1I_rq_merged 42322740
Core_0_L1I_rq_to_cache 7677180
Core_0_L1I_rq_full 0

Core_0_L1I_wq_access 0
Core_0_L1I_wq_forward 0
Core_0_L1I_wq_merged 0
Core_0_L1I_wq_to_cache 0
Core_0_L1I_wq_full 0

Core_0_L1I_pq_access 0
Core_0_L1I_pq_forward 0
Core_0_L1I_pq_merged 0
Core_0_L1I_pq_to_cache 0
Core_0_L1I_pq_full 0

Core_0_L1I_acc_epochs 296322
Core_0_L1I_acc_level_0 296322
Core_0_L1I_acc_level_1 0
Core_0_L1I_acc_level_2 0
Core_0_L1I_acc_level_3 0
Core_0_L1I_acc_level_4 0
Core_0_L1I_acc_level_5 0
Core_0_L1I_acc_level_6 0
Core_0_L1I_acc_level_7 0
Core_0_L1I_acc_level_8 0
Core_0_L1I_acc_level_9 0

Core_0_L2C_total_access 7216600
Core_0_L2C_total_hit 4137347
Core_0_L2C_total_miss 3079253
Core_0_L2C_loads 2041364
Core_0_L2C_load_hit 1137394
Core_0_L2C_load_miss 903970
Core_0_L2C_RFOs 1061169
Core_0_L2C_RFO_hit 50361
Core_0_L2C_RFO_miss 1010808
Core_0_L2C_prefetches 2591890
Core_0_L2C_prefetch_hit 1427979
Core_0_L2C_prefetch_miss 1163911
Core_0_L2C_writebacks 1522177
Core_0_L2C_writeback_hit 1521613
Core_0_L2C_writeback_miss 564
Core_0_L2C_prefetch_requested 3244727
Core_0_L2C_prefetch_dropped 0
Core_0_L2C_prefetch_issued 3244727
Core_0_L2C_prefetch_filled 1397509
Core_0_L2C_prefetch_useful 490150
Core_0_L2C_prefetch_useless 905800
Core_0_L2C_prefetch_late 12799
Core_0_L2C_average_miss_latency 374.01990

Core_0_L2C_rq_access 3102536
Core_0_L2C_rq_forward 0
Core_0_L2C_rq_merged 0
Core_0_L2C_rq_to_cache 3102533
Core_0_L2C_rq_full 0

Core_0_L2C_wq_access 1522177
Core_0_L2C_wq_forward 8
Core_0_L2C_wq_merged 0
Core_0_L2C_wq_to_cache 1522177
Core_0_L2C_wq_full 0

Core_0_L2C_pq_access 3244727
Core_0_L2C_pq_forward 0
Core_0_L2C_pq_merged 1425
Core_0_L2C_pq_to_cache 3243297
Core_0_L2C_pq_full 0

Core_0_L2C_acc_epochs 296322
Core_0_L2C_acc_level_0 38926
Core_0_L2C_acc_level_1 67745
Core_0_L2C_acc_level_2 76829
Core_0_L2C_acc_level_3 56578
Core_0_L2C_acc_level_4 27136
Core_0_L2C_acc_level_5 11472
Core_0_L2C_acc_level_6 5314
Core_0_L2C_acc_level_7 2205
Core_0_L2C_acc_level_8 1498
Core_0_L2C_acc_level_9 8619

Core_0_LLC_total_access 4551066
Core_0_LLC_total_hit 803490
Core_0_LLC_total_miss 3747576
Core_0_LLC_loads 893639
Core_0_LLC_load_hit 201858
Core_0_LLC_load_miss 691781
Core_0_LLC_RFOs 1010805
Core_0_LLC_RFO_hit 106672
Core_0_LLC_RFO_miss 904133
Core_0_LLC_prefetches 1174227
Core_0_LLC_prefetch_hit 147110
Core_0_LLC_prefetch_miss 1027117
Core_0_LLC_writebacks 1472395
Core_0_LLC_writeback_hit 347850
Core_0_LLC_writeback_miss 1124545
Core_0_LLC_prefetch_requested 0
Core_0_LLC_prefetch_dropped 0
Core_0_LLC_prefetch_issued 0
Core_0_LLC_prefetch_filled 1238875
Core_0_LLC_prefetch_useful 82643
Core_0_LLC_prefetch_useless 1147160
Core_0_LLC_prefetch_late 0
Core_0_LLC_average_miss_latency 230.05993

Core_0_LLC_rq_access 1904462
Core_0_LLC_rq_forward 0
Core_0_LLC_rq_merged 0
Core_0_LLC_rq_to_cache 1904444
Core_0_LLC_rq_full 0

Core_0_LLC_wq_access 1472395
Core_0_LLC_wq_forward 18
Core_0_LLC_wq_merged 0
Core_0_LLC_wq_to_cache 1472395
Core_0_LLC_wq_full 0

Core_0_LLC_pq_access 1410309
Core_0_LLC_pq_forward 0
Core_0_LLC_pq_merged 0
Core_0_LLC_pq_to_cache 1410309
Core_0_LLC_pq_full 0

Core_0_LLC_acc_epochs 393308
Core_0_LLC_acc_level_0 302934
Core_0_LLC_acc_level_1 43273
Core_0_LLC_acc_level_2 26339
Core_0_LLC_acc_level_3 11724
Core_0_LLC_acc_level_4 3590
Core_0_LLC_acc_level_5 3878
Core_0_LLC_acc_level_6 904
Core_0_LLC_acc_level_7 256
Core_0_LLC_acc_level_8 112
Core_0_LLC_acc_level_9 298

Core_0_major_page_fault 0
Core_0_minor_page_fault 29880

scooby_st_lookup 2424167
scooby_st_hit 879381
scooby_st_evict 1544722
scooby_st_insert 1544786
scooby_st_streaming 0

scooby_predict_called 2424167
scooby_predict_out_of_bounds 48558
scooby_predict_action_1 2161399
scooby_predict_issue_action_1 2158956
scooby_predict_hit_action_1 2443
scooby_predict_out_of_bounds_action_1 32556
scooby_predict_action_3 172014
scooby_predict_issue_action_3 171276
scooby_predict_hit_action_3 738
scooby_predict_out_of_bounds_action_3 8367
scooby_predict_action_4 3320
scooby_predict_issue_action_4 3132
scooby_predict_hit_action_4 188
scooby_predict_out_of_bounds_action_4 234
scooby_predict_action_5 3386
scooby_predict_issue_action_5 3151
scooby_predict_hit_action_5 235
scooby_predict_out_of_bounds_action_5 270
scooby_predict_action_10 2921
scooby_predict_issue_action_10 2713
scooby_predict_hit_action_10 208
scooby_predict_out_of_bounds_action_10 504
scooby_predict_action_11 2765
scooby_predict_issue_action_11 2617
scooby_predict_hit_action_11 148
scooby_predict_out_of_bounds_action_11 591
scooby_predict_action_12 2721
scooby_predict_issue_action_12 2624
scooby_predict_hit_action_12 97
scooby_predict_out_of_bounds_action_12 588
scooby_predict_action_22 2210
scooby_predict_issue_action_22 2077
scooby_predict_hit_action_22 133
scooby_predict_out_of_bounds_action_22 1081
scooby_predict_action_23 2014
scooby_predict_issue_action_23 1975
scooby_predict_hit_action_23 39
scooby_predict_out_of_bounds_action_23 1073
scooby_predict_action_30 1803
scooby_predict_issue_action_30 1608
scooby_predict_hit_action_30 195
scooby_predict_out_of_bounds_action_30 1360
scooby_predict_action_32 1674
scooby_predict_issue_action_32 1509
scooby_predict_hit_action_32 165
scooby_predict_out_of_bounds_action_32 1420
scooby_predict_action_-1 4592
scooby_predict_issue_action_-1 3814
scooby_predict_hit_action_-1 778
scooby_predict_out_of_bounds_action_-1 57
scooby_predict_action_-3 3583
scooby_predict_issue_action_-3 3287
scooby_predict_hit_action_-3 296
scooby_predict_out_of_bounds_action_-3 149
scooby_predict_action_-6 3162
scooby_predict_issue_action_-6 3025
scooby_predict_hit_action_-6 137
scooby_predict_out_of_bounds_action_-6 308
scooby_predict_action_0 8045
scooby_predict_issue_action_0 0
scooby_predict_hit_action_0 0
scooby_predict_out_of_bounds_action_0 0
scooby_predict_multi_deg_called 228692
scooby_predict_predicted 3244727
scooby_predict_multi_deg 882963
scooby_predict_multi_deg_2 220201
scooby_predict_multi_deg_3 190885
scooby_predict_multi_deg_4 182487
scooby_predict_multi_deg_5 148898
scooby_predict_multi_deg_6 140492
scooby_predict_multi_deg_7 0
scooby_predict_multi_deg_8 0
scooby_predict_multi_deg_9 0
scooby_predict_multi_deg_10 0
scooby_predict_multi_deg_11 0
scooby_predict_multi_deg_12 0
scooby_predict_multi_deg_13 0
scooby_predict_multi_deg_14 0
scooby_predict_multi_deg_15 0
scooby_predict_multi_deg_16 0

scooby_selected_deg_1 2133072
scooby_selected_deg_2 21135
scooby_selected_deg_3 0
scooby_selected_deg_4 25266
scooby_selected_deg_5 0
scooby_selected_deg_6 182291
scooby_selected_deg_7 0
scooby_selected_deg_8 0
scooby_selected_deg_9 0
scooby_selected_deg_10 0
scooby_selected_deg_11 0
scooby_selected_deg_12 0
scooby_selected_deg_13 0
scooby_selected_deg_14 0
scooby_selected_deg_15 0
scooby_selected_deg_16 0

scooby_state_4090c3|32|0 18717,4,7,6,6,2,7,6,7,3,4,7,7,1,71,18855,
scooby_state_4090c3|33|0 18502,6,4,9,2,3,3,11,9,8,5,1,8,4,69,18644,
scooby_state_4090c3|30|0 18411,3,4,8,3,8,4,4,2,7,7,6,4,4,72,18547,
scooby_state_4090c3|31|0 18155,11,0,6,4,6,4,5,8,5,5,9,5,4,65,18292,
scooby_state_4090c3|29|0 16139,5,7,5,6,2,4,3,4,6,6,7,11,5,61,16271,
scooby_state_4090c3|16|0 15849,9,7,2,10,9,8,0,3,7,5,4,8,6,70,15997,
scooby_state_4090c3|1|0 15880,6,6,3,11,1,6,5,6,0,7,6,4,6,40,15987,
scooby_state_4090c3|26|0 15617,3,4,6,5,7,4,7,3,4,4,8,8,1,68,15749,
scooby_state_4090c3|13|0 15602,3,2,1,5,4,2,5,7,3,8,3,7,3,57,15712,
scooby_state_4090c3|14|0 15445,12,5,2,7,6,1,5,3,7,4,5,6,4,43,15555,
scooby_state_4090c3|2|0 15413,4,3,11,5,4,3,6,2,2,4,5,2,4,66,15534,
scooby_state_4090c3|0|0 15397,2,1,5,8,7,2,2,3,11,4,6,5,8,51,15512,
scooby_state_4090c3|3|0 15283,3,2,3,7,3,7,6,4,4,2,7,6,1,51,15389,
scooby_state_4090c3|21|0 15267,4,8,7,2,8,4,3,2,5,2,2,5,4,56,15379,
scooby_state_4090c3|19|0 15290,1,6,5,2,2,2,5,6,1,4,6,4,2,43,15379,
scooby_state_4090c3|10|0 15253,5,7,4,7,6,1,4,6,5,2,6,2,4,62,15374,
scooby_state_4090c3|20|0 15223,2,5,4,1,3,1,3,11,5,3,7,7,4,53,15332,
scooby_state_4090c3|15|0 15185,5,7,4,2,4,2,4,5,4,3,2,5,4,53,15289,
scooby_state_4090c3|28|0 15158,5,5,6,5,6,3,4,3,8,4,3,9,3,46,15268,
scooby_state_4090c3|23|0 15124,4,5,3,6,1,6,4,1,2,0,9,6,3,63,15237,
scooby_state_4090c3|9|0 15090,4,4,3,9,5,4,4,5,5,2,7,10,7,47,15206,
scooby_state_4090c3|12|0 15090,4,8,2,5,5,8,4,4,0,4,2,8,6,45,15195,
scooby_state_4090c3|18|0 15071,4,4,5,4,7,8,3,5,6,2,6,4,4,45,15178,
scooby_state_4090c3|7|0 15067,2,4,2,5,3,3,4,11,3,5,6,4,3,46,15168,
scooby_state_4090c3|22|0 15033,9,6,5,6,3,6,6,1,7,6,3,3,6,50,15150,
scooby_state_4090c3|39|0 14888,6,5,6,5,4,2,4,5,3,5,4,6,4,43,14990,
scooby_state_4090c3|27|0 14834,7,1,5,5,2,4,6,7,7,2,2,8,5,42,14937,
scooby_state_4090c3|11|0 14804,4,3,5,3,4,3,5,5,6,4,8,6,1,62,14923,
scooby_state_4090c3|25|0 14777,1,6,3,4,3,6,4,3,4,6,5,5,3,58,14888,
scooby_state_4090c3|24|0 14611,8,11,8,4,3,6,9,4,5,5,4,4,5,55,14742,
scooby_state_4090c3|34|0 14613,6,1,4,2,3,6,3,2,5,2,11,0,9,59,14726,
scooby_state_4090c3|62|0 14591,6,5,3,1,11,2,4,5,7,2,1,5,2,54,14699,
scooby_state_4090c3|8|0 14547,5,2,9,8,5,4,6,2,6,5,8,6,3,47,14663,
scooby_state_4090c3|5|0 14461,6,7,6,2,9,4,4,4,5,5,5,1,7,58,14584,
scooby_state_4090c3|42|0 14478,3,2,2,2,5,5,6,5,5,5,2,6,4,38,14568,
scooby_state_4090c3|58|0 14450,7,3,2,0,3,3,5,8,1,6,7,4,1,52,14552,
scooby_state_4090c3|57|0 14433,4,4,7,2,7,7,5,5,5,6,7,2,10,37,14541,
scooby_state_4090c3|6|0 14401,9,4,4,4,8,6,5,6,4,3,6,4,5,65,14534,
scooby_state_4090c3|17|0 14418,7,3,4,3,4,3,5,2,5,3,4,4,5,52,14522,
scooby_state_4090c3|61|0 14400,3,6,5,4,2,6,4,4,3,7,6,7,2,49,14508,
scooby_state_4090c3|52|0 14262,7,3,4,4,7,9,5,5,3,2,6,1,7,46,14371,
scooby_state_4090c3|4|0 14246,4,5,4,9,8,5,6,0,1,5,2,4,3,53,14355,
scooby_state_4090c3|44|0 14177,6,6,3,4,5,7,6,3,2,1,4,2,2,58,14286,
scooby_state_4090c3|51|0 14156,2,2,8,5,4,6,3,5,3,3,6,7,3,50,14263,
scooby_state_4090c3|60|0 14094,5,6,5,9,8,5,5,2,5,6,4,6,9,56,14225,
scooby_state_4090c3|48|0 14092,4,7,4,7,3,4,4,6,2,4,2,4,4,47,14194,
scooby_state_4090c3|49|0 14069,12,4,3,5,4,6,2,8,2,1,2,5,8,55,14186,
scooby_state_4090c3|40|0 14053,0,3,4,1,7,6,3,3,5,2,2,4,5,69,14167,
scooby_state_4090c3|38|0 14047,4,4,3,7,8,0,4,4,3,1,10,6,7,57,14165,
scooby_state_4090c3|56|0 13992,5,5,5,10,5,2,3,2,1,3,5,6,3,47,14094,
scooby_state_4090c3|50|0 13947,4,11,3,4,4,4,3,5,5,6,6,4,6,54,14066,
scooby_state_4090c3|45|0 13976,4,6,2,2,3,6,4,3,3,4,5,5,7,36,14066,
scooby_state_4090c3|53|0 13928,7,6,1,5,2,9,6,5,6,3,3,6,5,51,14043,
scooby_state_4090c3|41|0 13919,7,8,8,6,5,3,2,1,5,4,4,2,6,56,14036,
scooby_state_4090c3|59|0 13868,5,6,2,3,5,7,2,7,4,4,9,8,9,42,13981,
scooby_state_4090c3|36|0 13829,5,2,5,1,1,5,3,4,1,7,5,0,4,56,13928,
scooby_state_4090c3|43|0 13810,9,4,4,6,3,4,5,2,4,3,4,3,5,47,13913,
scooby_state_4090c3|54|0 13723,4,2,2,5,3,6,1,1,3,2,5,5,6,42,13810,
scooby_state_4090c3|37|0 13610,2,4,4,1,1,6,3,4,1,5,2,2,5,54,13704,
scooby_state_4090c3|55|0 13559,9,6,6,3,10,1,6,3,2,5,4,5,9,68,13696,
scooby_state_4090c3|46|0 13557,2,1,6,3,5,0,9,3,5,5,7,4,2,53,13662,
scooby_state_4090c3|35|0 13560,4,4,3,9,3,6,2,1,5,2,4,3,7,34,13647,
scooby_state_4090c3|63|0 13304,5,12,6,2,2,0,4,1,1,5,5,8,2,60,13417,
scooby_state_4090c3|47|0 13244,4,2,2,3,1,4,3,1,4,2,4,2,5,39,13320,
scooby_state_409270|0|0 8128,1,2,4,2,1,1,1,2,0,1,2,1,3,6,8155,
scooby_state_409270|1|0 5818,3,0,4,1,2,3,0,2,4,1,4,1,1,4,5848,
scooby_state_409270|38|0 5665,2,1,3,2,0,5,0,3,3,1,2,3,0,5,5695,
scooby_state_409270|17|0 5597,2,2,1,3,1,0,1,2,0,1,5,0,0,2,5617,
scooby_state_409270|22|0 5588,2,3,2,4,0,2,0,1,0,1,2,0,1,4,5610,
scooby_state_409270|6|0 5560,0,3,2,3,4,2,0,4,2,0,2,0,1,2,5585,
scooby_state_409270|12|0 5560,1,1,2,0,1,0,0,2,1,1,0,3,2,1,5575,
scooby_state_409270|2|0 5546,2,2,0,1,3,1,4,1,2,1,2,1,3,1,5570,
scooby_state_409270|8|0 5521,1,0,6,2,1,0,1,0,0,0,2,1,0,5,5540,
scooby_state_409270|33|0 5507,1,2,2,2,3,0,2,4,1,3,3,1,3,3,5537,
scooby_state_409270|9|0 5510,3,0,5,2,2,1,4,0,0,3,0,2,0,5,5537,
scooby_state_409270|5|0 5502,1,4,1,2,1,2,1,0,4,1,3,4,1,2,5529,
scooby_state_409270|3|0 5491,3,1,1,2,0,1,3,2,0,1,3,0,4,3,5515,
scooby_state_409270|32|0 5487,2,3,1,1,0,3,2,0,1,4,0,5,3,2,5514,
scooby_state_409270|43|0 5490,1,3,1,2,2,1,0,0,3,1,1,3,1,4,5513,
scooby_state_409270|42|0 5456,2,1,1,1,3,6,2,5,3,2,4,2,2,3,5493,
scooby_state_409270|56|0 5464,2,0,6,1,2,4,1,2,2,1,1,1,4,1,5492,
scooby_state_409270|11|0 5471,0,2,1,1,2,2,2,0,2,1,2,0,1,2,5489,
scooby_state_409270|63|0 5458,3,2,4,2,1,1,2,0,1,3,3,1,0,6,5487,
scooby_state_409270|7|0 5454,2,0,3,1,2,3,0,6,0,0,1,3,4,1,5480,
scooby_state_409270|48|0 5450,2,2,0,4,1,2,1,2,2,2,1,0,3,3,5475,
scooby_state_409270|50|0 5452,1,4,2,2,0,2,4,1,2,0,1,2,1,1,5475,
scooby_state_409270|52|0 5447,3,1,3,5,2,0,3,1,1,0,3,2,1,3,5475,
scooby_state_409270|35|0 5447,4,3,0,1,1,2,1,0,1,2,2,0,6,3,5473,
scooby_state_409270|10|0 5444,5,1,0,0,2,3,1,0,4,1,0,1,3,3,5468,
scooby_state_409270|25|0 5437,3,2,1,2,0,2,5,2,1,2,3,2,3,1,5466,
scooby_state_409270|27|0 5442,1,0,3,1,1,2,2,1,0,2,3,3,1,4,5466,
scooby_state_409270|58|0 5447,2,4,2,1,0,2,2,1,0,0,1,2,1,0,5465,
scooby_state_409270|61|0 5442,2,0,2,2,1,0,2,0,4,2,2,2,0,3,5464,
scooby_state_409270|28|0 5433,0,6,0,2,5,0,0,3,0,4,4,1,1,3,5462,
scooby_state_409270|60|0 5429,3,5,2,4,1,3,3,0,3,1,2,1,1,3,5461,
scooby_state_409270|4|0 5418,1,0,1,3,5,2,2,4,2,2,2,3,4,4,5453,
scooby_state_409270|55|0 5415,3,1,2,0,2,0,1,2,4,0,1,2,1,6,5440,
scooby_state_409270|40|0 5401,5,1,3,0,1,0,2,3,2,4,2,2,2,0,5428,
scooby_state_409270|45|0 5392,2,1,3,0,0,1,1,1,2,1,7,5,2,2,5420,
scooby_state_409270|16|0 5404,2,2,1,0,0,0,1,0,2,1,2,2,1,1,5419,
scooby_state_409270|53|0 5397,0,1,2,3,2,3,1,0,1,0,0,2,3,3,5418,
scooby_state_409270|41|0 5393,1,4,0,3,3,2,0,2,1,1,0,1,1,3,5415,
scooby_state_409270|13|0 5383,3,1,3,0,2,2,2,0,0,3,1,1,1,4,5406,
scooby_state_409270|37|0 5367,1,2,2,1,2,1,2,1,2,3,2,4,0,4,5394,
scooby_state_409270|47|0 5355,3,2,2,4,3,0,3,1,0,1,0,3,3,8,5388,
scooby_state_409270|57|0 5365,2,0,4,1,0,3,2,0,1,1,2,2,2,2,5387,
scooby_state_409270|62|0 5361,0,2,1,1,3,2,2,3,1,2,3,0,3,1,5385,
scooby_state_409270|30|0 5361,1,2,1,1,2,1,0,2,2,1,1,1,2,3,5381,
scooby_state_409270|54|0 5347,0,4,1,2,2,3,1,2,2,1,4,3,2,4,5378,
scooby_state_409270|21|0 5346,2,0,1,2,0,0,1,2,0,1,2,2,1,6,5366,
scooby_state_409270|46|0 5293,2,3,2,1,0,3,1,2,0,3,3,4,2,5,5324,
scooby_state_409270|23|0 5304,0,2,0,0,2,1,0,1,1,0,2,1,0,2,5316,
scooby_state_409270|31|0 5277,3,2,0,1,0,1,3,3,0,2,2,2,4,2,5302,
scooby_state_409270|49|0 5268,2,2,5,4,2,2,1,3,3,3,3,2,1,0,5301,
scooby_state_409270|18|0 5273,1,2,2,3,0,6,3,1,3,0,3,1,0,2,5300,
scooby_state_409270|29|0 5267,0,3,2,1,3,0,2,1,3,1,2,2,2,3,5292,
scooby_state_409270|19|0 5259,4,2,2,3,1,0,2,1,1,1,0,3,3,1,5283,
scooby_state_409270|14|0 5243,1,2,2,1,6,2,3,1,1,4,2,2,3,1,5274,
scooby_state_409270|44|0 5253,3,1,0,1,1,1,1,0,1,2,0,4,1,4,5273,
scooby_state_409270|51|0 5222,1,0,0,1,1,3,3,1,1,3,2,1,3,3,5245,
scooby_state_409270|20|0 5220,1,3,4,0,1,2,0,1,0,1,2,3,1,5,5244,
scooby_state_409270|39|0 5217,2,1,1,2,2,1,2,1,2,1,2,3,1,3,5241,
scooby_state_409270|36|0 5208,1,2,2,2,3,2,1,2,1,2,4,1,3,2,5236,
scooby_state_409270|59|0 5161,2,2,1,1,3,1,2,1,3,3,1,1,1,2,5185,
scooby_state_409270|26|0 5165,1,0,1,0,4,0,0,2,0,1,3,0,2,2,5181,
scooby_state_409270|34|0 5107,3,2,4,3,1,0,1,3,1,2,3,1,3,4,5138,
scooby_state_409270|15|0 5078,2,2,3,2,2,1,1,1,0,2,4,2,2,7,5109,
scooby_state_409270|24|0 5064,0,1,1,0,1,1,0,2,0,1,2,0,1,2,5076,
scooby_state_409228|33|0 4161,2,4,3,2,7,3,2,2,0,1,3,1,2,6,4199,
scooby_state_409228|30|0 4101,2,2,2,1,1,3,0,2,2,1,6,1,6,2,4132,
scooby_state_409228|32|0 4057,0,2,0,2,2,2,2,2,1,1,3,1,2,3,4080,
scooby_state_409228|0|0 3997,2,4,1,1,3,1,1,0,3,3,5,2,3,4,4030,
scooby_state_409228|31|0 3984,1,1,3,3,4,2,0,1,2,1,4,2,0,5,4013,
scooby_state_4090c3|54|34 3887,7,5,1,1,4,1,3,4,3,2,0,5,2,6,3931,
scooby_state_409228|1|0 3739,1,2,2,1,1,3,0,0,2,1,3,2,2,3,3762,
scooby_state_409228|2|0 3720,1,1,0,1,2,0,1,4,1,0,4,1,1,1,3738,
scooby_state_409228|16|0 3699,1,0,3,2,0,0,1,1,3,2,3,2,1,5,3723,
scooby_state_409228|15|0 3689,1,4,0,2,1,1,1,2,3,0,5,0,0,6,3715,
scooby_state_409228|26|0 3655,1,0,1,1,1,1,1,2,1,1,5,2,3,6,3681,
scooby_state_409228|19|0 3646,2,1,1,1,2,0,3,4,1,1,5,1,0,7,3675,
scooby_state_409228|21|0 3637,3,2,0,3,3,2,1,0,0,3,4,0,1,1,3660,
scooby_state_409228|52|0 3615,0,2,1,2,2,0,1,1,0,0,4,0,4,5,3637,
scooby_state_409228|8|0 3609,3,1,1,3,1,0,1,1,0,2,3,5,1,4,3635,
scooby_state_409228|49|0 3584,3,2,2,0,2,0,0,1,1,0,2,3,2,4,3606,
scooby_state_409228|51|0 3558,0,2,4,1,1,1,2,2,1,1,5,3,2,3,3586,
scooby_state_409228|14|0 3558,1,2,2,1,2,1,1,1,0,2,5,3,1,3,3583,
scooby_state_409228|23|0 3557,3,0,1,1,3,0,1,2,2,1,4,2,2,3,3582,
scooby_state_409228|34|0 3556,1,3,3,1,2,3,1,3,1,0,2,2,0,2,3580,
scooby_state_409228|3|0 3536,0,0,5,1,1,2,2,3,0,1,6,0,1,7,3565,
scooby_state_409228|6|0 3534,2,2,1,1,1,2,0,1,1,2,6,1,2,4,3560,
scooby_state_409228|29|0 3533,2,1,2,0,3,3,0,2,1,1,2,0,0,3,3553,
scooby_state_4090c3|60|34 3501,4,2,3,2,2,6,3,1,1,0,2,5,3,7,3542,
scooby_state_409228|40|0 3499,0,1,1,4,2,2,0,2,7,1,4,2,0,0,3525,
scooby_state_409228|20|0 3497,0,0,1,3,1,0,2,2,1,3,1,0,1,2,3514,
scooby_state_409228|17|0 3471,2,1,1,0,1,1,4,1,1,2,8,2,2,2,3499,
scooby_state_409228|25|0 3471,2,2,2,0,0,2,2,1,0,2,5,2,3,2,3496,
scooby_state_409228|12|0 3470,2,1,1,2,1,1,0,4,1,0,4,4,1,2,3494,
scooby_state_409228|62|0 3459,4,3,2,1,3,1,0,0,0,3,4,1,2,3,3486,
scooby_state_409228|56|0 3468,3,0,1,1,1,0,1,1,0,1,2,1,1,4,3485,
scooby_state_409228|61|0 3454,1,2,0,2,0,1,0,2,2,2,4,1,2,4,3477,
scooby_state_409228|7|0 3456,0,3,1,0,1,2,2,0,0,1,3,1,0,5,3475,
scooby_state_4090c3|35|34 3426,9,4,6,1,4,2,1,1,3,1,4,2,2,7,3473,
scooby_state_409228|55|0 3444,2,0,4,2,1,1,1,0,1,1,4,3,4,4,3472,
scooby_state_4090c3|42|34 3412,4,3,5,4,2,5,3,2,5,1,4,3,4,6,3463,
scooby_state_409270|39|1 3438,3,0,2,0,0,3,2,0,1,2,0,1,3,5,3460,
scooby_state_409270|44|1 3413,2,2,0,3,2,2,2,1,4,1,3,2,2,5,3444,
scooby_state_409228|38|0 3419,1,4,3,0,1,0,3,1,2,2,4,2,1,0,3443,
scooby_state_409228|47|0 3422,1,1,3,0,1,1,2,2,2,0,2,1,0,1,3439,
scooby_state_409228|59|0 3392,1,2,1,4,0,1,5,1,1,2,5,2,3,4,3424,
scooby_state_4090c3|34|34 3366,5,1,7,7,1,2,3,5,3,4,4,2,4,8,3422,
scooby_state_409228|39|0 3395,2,0,0,2,1,1,3,2,0,1,6,1,1,4,3419,
scooby_state_4090c3|48|34 3369,1,3,6,2,2,5,2,1,2,1,2,6,4,11,3417,
scooby_state_409270|14|1 3394,0,2,3,1,2,1,1,2,0,2,3,2,2,2,3417,
scooby_state_409270|59|1 3379,1,2,4,2,1,3,3,1,1,0,6,2,3,3,3411,
scooby_state_409228|13|0 3385,1,2,6,0,0,0,1,1,1,1,7,0,3,3,3411,
scooby_state_409228|58|0 3390,2,0,1,0,2,0,1,1,2,0,4,1,0,6,3410,
scooby_state_409270|23|1 3371,3,3,1,2,1,4,1,3,2,3,0,1,2,5,3402,
scooby_state_409228|63|0 3377,1,1,0,3,1,1,1,2,2,1,3,2,1,3,3399,
scooby_state_409228|28|0 3373,2,1,1,2,2,2,3,2,1,1,3,1,2,2,3398,
scooby_state_409228|27|0 3370,0,0,2,3,2,2,1,1,2,1,5,0,6,1,3396,
scooby_state_409228|45|0 3369,0,2,1,3,0,0,3,2,3,1,4,0,0,4,3392,
scooby_state_409228|35|0 3376,0,1,1,0,2,2,0,0,2,2,0,0,2,3,3391,
scooby_state_409228|18|0 3353,4,1,4,2,0,1,3,2,0,2,3,1,2,1,3379,
scooby_state_409228|48|0 3350,5,2,2,1,1,2,3,1,2,2,2,1,0,3,3377,
scooby_state_409228|42|0 3345,4,4,0,1,1,2,0,0,1,1,5,1,1,6,3372,
scooby_state_409270|19|1 3349,3,3,0,1,0,6,1,2,2,0,2,1,1,0,3371,
scooby_state_409270|3|1 3338,2,5,0,2,4,1,2,1,2,2,4,1,0,6,3370,
scooby_state_409228|60|0 3345,1,0,2,1,2,0,3,1,0,2,6,1,1,2,3367,
scooby_state_409228|4|0 3342,2,2,0,1,0,1,2,1,4,0,4,1,2,2,3364,
scooby_state_409228|9|0 3339,0,1,2,2,2,0,2,1,2,3,0,3,2,4,3363,
scooby_state_409228|44|0 3342,2,1,0,2,2,3,1,1,1,0,2,1,2,2,3362,
scooby_state_4090c3|50|34 3304,3,3,5,1,7,1,2,3,1,4,4,1,5,10,3354,
scooby_state_4090c3|45|34 3295,3,5,0,6,6,2,4,3,2,1,8,5,5,6,3351,
scooby_state_409270|43|1 3317,2,2,0,0,4,5,2,4,3,2,3,3,1,3,3351,
scooby_state_409270|63|1 3316,3,0,2,2,2,2,2,1,3,1,0,2,1,3,3340,
scooby_state_4090c3|51|34 3283,2,3,4,2,3,3,0,3,3,5,1,0,5,13,3330,
scooby_state_409228|54|0 3307,1,2,0,4,0,0,1,1,0,3,6,3,0,1,3329,
scooby_state_409228|36|0 3303,1,1,0,3,0,3,1,0,1,1,3,1,2,2,3322,
scooby_state_4090c3|56|34 3268,3,0,2,3,4,1,3,4,2,5,5,4,5,13,3322,
scooby_state_409228|22|0 3292,1,2,0,3,2,4,2,3,3,0,3,0,1,4,3320,
scooby_state_409228|10|0 3288,0,1,4,1,0,4,1,0,5,1,7,0,2,4,3318,
scooby_state_409270|29|1 3295,2,2,1,1,3,0,1,2,1,3,3,2,1,1,3318,
scooby_state_409228|43|0 3285,2,2,2,2,3,3,0,1,3,0,2,2,0,3,3310,
scooby_state_409270|18|1 3277,1,1,0,3,2,1,0,6,3,0,3,3,2,2,3304,
scooby_state_409228|24|0 3286,0,2,1,0,1,2,0,2,0,2,2,0,1,1,3300,
scooby_state_409270|52|1 3274,1,3,0,2,3,1,2,2,2,0,3,1,2,1,3297,
scooby_state_409228|5|0 3264,1,3,2,0,1,3,1,3,1,1,3,3,3,3,3292,
scooby_state_409270|8|1 3260,1,1,3,0,3,3,2,2,2,1,3,3,5,1,3290,
scooby_state_409270|10|1 3251,5,2,2,3,2,1,1,1,3,2,4,2,3,5,3287,
scooby_state_409228|41|0 3252,3,1,1,6,2,2,3,4,2,1,5,2,1,2,3287,
scooby_state_409270|2|1 3269,2,1,3,1,1,1,3,2,1,0,1,1,1,0,3287,
scooby_state_4090c3|62|34 3239,2,2,5,3,4,4,1,5,0,1,3,8,4,5,3286,
scooby_state_409228|37|0 3251,4,5,2,2,1,0,2,1,0,0,5,3,1,2,3279,
scooby_state_409228|57|0 3255,0,0,0,2,2,2,3,1,1,1,2,2,3,2,3276,
scooby_state_409270|31|1 3239,0,1,6,4,3,1,3,2,1,3,1,4,1,6,3275,
scooby_state_409270|45|1 3240,1,1,2,2,3,1,2,0,1,0,2,3,7,3,3268,
scooby_state_4090c3|53|34 3224,2,2,2,6,0,4,6,2,0,1,2,3,2,6,3262,
scooby_state_4090c3|61|34 3216,3,6,4,3,2,4,3,2,4,2,2,3,1,2,3257,
scooby_state_409270|30|1 3232,2,5,2,0,1,1,4,0,1,0,0,3,1,5,3257,
scooby_state_4090c3|46|34 3195,3,5,2,9,4,7,2,1,5,3,4,3,3,7,3253,
scooby_state_409270|54|1 3217,0,2,0,1,4,3,2,3,1,1,0,0,0,3,3237,
scooby_state_409270|15|1 3196,5,7,1,1,1,6,2,3,1,4,2,1,1,3,3234,
scooby_state_409270|36|1 3201,0,2,1,2,3,0,2,0,1,2,4,0,2,6,3226,
scooby_state_409270|46|1 3204,0,2,3,2,1,2,2,1,1,0,3,1,2,2,3226,
scooby_state_409270|53|1 3190,3,4,0,4,2,3,2,0,4,0,4,4,2,1,3223,
scooby_state_409270|24|1 3202,1,1,1,3,0,0,2,0,0,3,2,1,1,3,3220,
scooby_state_409270|34|1 3195,2,4,0,2,1,0,2,0,1,2,4,1,2,4,3220,
scooby_state_4090c3|63|34 3182,1,3,1,3,1,3,1,2,1,3,2,3,2,3,3211,
scooby_state_409270|50|1 3190,3,0,0,2,1,1,1,2,2,2,0,0,3,3,3210,
scooby_state_409270|4|1 3186,1,3,3,1,0,0,1,2,1,2,1,1,1,7,3210,
scooby_state_409228|53|0 3184,1,3,1,1,1,2,1,1,2,3,2,0,0,2,3204,
scooby_state_409228|50|0 3182,1,0,2,1,3,3,2,0,1,1,2,0,1,2,3201,
scooby_state_409228|11|0 3170,0,2,1,1,3,1,1,2,0,1,1,3,1,1,3188,
scooby_state_409270|62|1 3158,2,0,1,5,3,0,2,6,2,2,1,1,1,3,3187,
scooby_state_409270|20|1 3166,1,0,0,3,0,1,2,0,1,1,1,5,2,3,3186,
scooby_state_409270|40|1 3160,1,3,2,1,1,1,1,2,2,0,3,1,4,3,3185,
scooby_state_409270|55|1 3162,4,2,1,1,0,1,2,1,0,1,2,3,2,1,3183,
scooby_state_409270|28|1 3151,2,3,4,2,2,0,2,0,0,0,1,4,0,2,3173,
scooby_state_409270|5|1 3153,1,2,2,0,2,0,0,1,0,1,0,1,2,4,3169,
scooby_state_4090c3|55|34 3124,0,3,1,2,4,3,5,4,3,4,5,3,2,4,3167,
scooby_state_4090c3|44|34 3104,4,4,3,4,3,5,2,4,2,5,8,4,5,8,3165,
scooby_state_409270|57|1 3124,1,4,2,4,1,2,1,1,2,2,1,3,5,3,3156,
scooby_state_4090c3|41|34 3117,5,3,2,3,0,4,1,0,3,2,4,2,3,5,3154,
scooby_state_409270|25|1 3122,3,2,4,2,3,2,2,1,1,3,1,1,2,1,3150,
scooby_state_4090c3|43|34 3091,2,6,2,2,8,3,3,4,3,1,3,6,5,6,3145,
scooby_state_409270|26|1 3109,0,2,2,4,2,3,2,0,2,4,4,2,1,1,3138,
scooby_state_409270|7|1 3105,2,0,3,2,2,1,1,1,1,2,2,2,4,4,3132,
scooby_state_409270|56|1 3100,2,1,0,2,0,0,2,2,3,4,3,2,3,5,3129,
scooby_state_409270|51|1 3107,7,0,0,2,0,2,0,0,2,1,2,1,1,3,3128,
scooby_state_4090c3|57|34 3077,3,4,3,5,2,1,1,5,3,2,2,1,3,6,3118,
scooby_state_409270|48|1 3069,1,3,2,1,2,3,4,5,0,1,2,4,1,8,3106,
scooby_state_409270|27|1 3079,2,1,3,2,2,2,0,0,1,2,3,2,3,2,3104,
scooby_state_4090c3|37|34 3050,6,3,6,1,5,3,3,3,5,1,4,3,5,5,3103,
scooby_state_4090c3|39|34 3062,0,1,2,4,5,2,0,2,0,5,2,1,2,3,3091,
scooby_state_409270|49|1 3056,1,0,2,3,2,2,5,2,5,2,1,2,1,6,3090,
scooby_state_4090c3|58|34 3055,5,2,1,1,1,1,1,0,4,1,4,3,4,4,3087,
scooby_state_4090c3|49|34 3035,4,4,2,3,1,2,5,2,4,0,7,3,3,7,3082,
scooby_state_409228|46|0 3051,4,1,2,1,0,3,3,3,0,1,5,1,2,2,3079,
scooby_state_4090c3|38|34 3024,1,3,5,6,5,1,1,4,3,5,5,5,3,6,3077,
scooby_state_409270|58|1 3057,1,1,0,2,1,2,0,1,5,0,1,1,2,1,3075,
scooby_state_4090c3|47|34 3004,3,5,3,2,2,3,4,1,0,4,8,1,3,4,3047,
scooby_state_409270|11|1 3018,3,1,2,0,2,1,1,3,1,2,0,2,0,2,3038,
scooby_state_409270|41|1 3014,0,1,4,3,3,1,0,2,1,1,2,1,2,2,3037,
scooby_state_409270|17|1 3013,0,1,1,0,2,3,1,1,1,3,2,3,1,4,3036,
scooby_state_4090c3|52|34 2992,3,0,8,1,1,4,2,1,0,3,3,6,1,5,3030,
scooby_state_409270|13|1 3013,0,1,0,0,2,0,0,3,1,2,3,1,1,2,3029,
scooby_state_409270|42|1 3005,2,2,3,4,0,2,1,4,2,0,0,1,3,0,3029,
scooby_state_409270|21|1 2977,1,5,1,1,3,0,1,2,0,2,2,2,1,3,3001,
scooby_state_409270|35|1 2978,1,2,0,3,2,1,4,0,2,2,1,2,1,2,3001,
scooby_state_409270|61|1 2959,1,0,1,3,1,4,1,0,1,0,3,4,2,3,2983,
scooby_state_409270|38|1 2963,3,1,2,1,0,2,0,0,2,1,0,3,1,3,2982,
scooby_state_409270|1|1 2962,1,2,2,0,1,0,1,4,0,1,1,0,2,2,2979,
scooby_state_409270|9|1 2947,3,2,2,2,0,2,0,3,2,1,1,3,3,4,2975,
scooby_state_4090c3|36|34 2910,3,5,1,5,3,1,1,1,2,2,5,6,2,9,2956,
scooby_state_409270|47|1 2919,2,1,5,2,3,2,2,0,0,0,0,2,0,1,2939,
scooby_state_409270|6|1 2908,1,3,3,0,0,2,2,3,0,4,1,3,1,3,2934,
scooby_state_409270|33|1 2905,1,2,2,1,1,1,1,0,5,3,0,4,3,1,2930,
scooby_state_4090c3|40|34 2874,3,4,4,0,3,2,5,2,1,4,2,5,5,7,2921,
scooby_state_409270|32|1 2870,3,0,1,1,1,3,2,1,2,2,2,1,2,2,2893,
scooby_state_409270|37|1 2830,1,1,1,1,2,1,1,0,2,1,1,0,3,1,2846,
scooby_state_409270|60|1 2810,2,4,0,0,1,4,1,1,0,1,1,0,0,1,2826,
scooby_state_409270|22|1 2789,2,2,3,1,2,1,1,3,3,1,0,1,1,4,2814,
scooby_state_409270|16|1 2790,3,2,0,0,2,3,2,1,0,3,2,1,1,2,2812,
scooby_state_4090c3|59|34 2777,4,1,3,2,3,1,3,2,1,0,0,4,3,3,2807,
scooby_state_409270|12|1 2759,0,1,3,0,3,1,2,0,2,1,0,1,2,5,2780,
scooby_state_405828|53|1 0,2740,1,0,2,0,0,4,0,0,0,0,2,0,2,2751,
scooby_state_405828|40|1 0,2748,0,0,0,2,0,0,0,0,0,0,0,0,1,2751,
scooby_state_405828|19|1 0,2746,0,0,0,0,1,0,0,3,0,0,0,1,0,2751,
scooby_state_405828|45|1 0,2748,0,0,1,0,0,0,1,0,0,0,0,0,1,2751,
scooby_state_405828|50|1 2,2747,0,0,0,0,1,0,0,0,0,0,0,0,1,2751,
scooby_state_405828|9|1 0,2746,3,0,0,0,0,0,0,0,0,0,1,1,0,2751,
scooby_state_405828|47|1 1,2745,0,1,1,0,1,0,0,1,0,1,0,0,0,2751,
scooby_state_405828|2|1 0,2750,0,0,0,0,0,0,0,0,0,1,0,0,0,2751,
scooby_state_405828|34|1 0,2747,0,0,1,0,1,0,0,0,0,0,2,0,0,2751,
scooby_state_405828|52|1 0,2749,0,0,1,0,1,0,0,0,0,0,0,0,0,2751,
scooby_state_405828|42|1 0,2751,0,0,0,0,0,0,0,0,0,0,0,0,0,2751,
scooby_state_405828|54|1 0,2746,2,0,0,0,0,1,0,0,1,0,1,0,0,2751,
scooby_state_405828|29|1 0,2741,0,1,1,0,0,1,2,1,2,1,1,0,0,2751,
scooby_state_405828|3|1 0,2750,0,0,0,0,0,1,0,0,0,0,0,0,0,2751,
scooby_state_405828|5|1 0,2746,0,1,1,0,1,0,1,0,0,1,0,0,0,2751,
scooby_state_405828|49|1 0,2748,0,1,0,1,0,0,0,0,0,1,0,0,0,2751,
scooby_state_405828|4|1 0,2747,0,0,0,0,0,0,1,1,0,1,1,0,0,2751,
scooby_state_405828|14|1 0,2746,1,0,1,0,0,2,0,0,0,1,0,0,0,2751,
scooby_state_405828|20|1 0,2746,1,0,0,0,0,0,2,0,0,1,0,1,0,2751,
scooby_state_405828|26|1 0,2747,0,0,1,1,0,0,0,1,1,0,0,0,0,2751,
scooby_state_405828|46|1 0,2744,0,0,0,0,0,0,1,1,2,2,0,0,1,2751,
scooby_state_405828|36|1 0,2746,0,0,0,0,1,0,2,0,0,0,1,0,1,2751,
scooby_state_405828|24|1 0,2751,0,0,0,0,0,0,0,0,0,0,0,0,0,2751,
scooby_state_405828|28|1 0,2747,0,1,0,0,0,0,1,0,0,1,0,1,0,2751,
scooby_state_405828|48|1 1,2748,0,0,0,0,0,0,0,0,0,0,1,0,1,2751,
scooby_state_405828|37|1 0,2746,0,0,0,1,0,0,0,1,0,0,0,1,2,2751,
scooby_state_405828|8|1 2,2743,0,0,0,0,2,1,0,2,0,0,1,0,0,2751,
scooby_state_405828|27|1 0,2748,1,0,0,1,0,1,0,0,0,0,0,0,0,2751,
scooby_state_405828|25|1 0,2746,0,0,0,1,1,0,0,1,0,1,1,0,0,2751,
scooby_state_405828|39|1 1,2742,2,0,0,0,0,0,1,2,1,1,0,1,0,2751,
scooby_state_405828|13|1 0,2750,0,0,1,0,0,0,0,0,0,0,0,0,0,2751,
scooby_state_405828|31|1 0,2745,1,0,0,0,2,0,1,0,0,1,0,0,1,2751,
scooby_state_405828|16|1 0,2745,0,1,0,1,1,0,0,0,0,2,0,0,1,2751,
scooby_state_405828|23|1 1,2747,0,0,1,0,0,0,0,1,0,0,1,0,0,2751,
scooby_state_405828|22|1 0,2747,1,0,0,0,0,0,0,1,1,0,1,0,0,2751,
scooby_state_405828|12|1 0,2746,0,0,0,1,0,0,0,1,0,0,2,1,0,2751,
scooby_state_405828|7|1 0,2747,0,0,1,0,0,0,0,0,1,0,1,0,1,2751,
scooby_state_405828|10|1 2,2744,0,1,0,0,0,1,0,0,0,0,1,0,2,2751,
scooby_state_405828|38|1 0,2746,1,0,0,0,0,1,0,1,0,1,0,0,1,2751,
scooby_state_405828|30|1 0,2746,1,0,0,0,1,0,1,1,0,0,1,0,0,2751,
scooby_state_405828|35|1 0,2745,0,2,0,0,0,0,0,0,2,1,0,1,0,2751,
scooby_state_405828|32|1 0,2743,0,1,1,2,1,1,1,0,0,0,0,1,0,2751,
scooby_state_405828|33|1 0,2742,1,1,2,0,1,2,1,0,1,0,0,0,0,2751,
scooby_state_405828|6|1 1,2746,1,0,1,0,2,0,0,0,0,0,0,0,0,2751,
scooby_state_405828|21|1 1,2747,0,1,0,0,1,0,0,1,0,0,0,0,0,2751,
scooby_state_405828|55|1 1,2746,1,0,0,0,1,0,0,0,1,0,1,0,0,2751,
scooby_state_405828|11|1 0,2747,2,0,0,0,0,0,2,0,0,0,0,0,0,2751,
scooby_state_405828|41|1 0,2746,1,0,1,1,1,0,1,0,0,0,0,0,0,2751,
scooby_state_405828|43|1 0,2749,0,0,0,0,0,0,0,1,0,0,1,0,0,2751,
scooby_state_405828|15|1 0,2747,1,0,0,0,0,0,0,1,0,0,0,0,2,2751,
scooby_state_405828|44|1 0,2750,0,0,0,0,0,0,0,0,0,1,0,0,0,2751,
scooby_state_405828|51|1 0,2748,0,0,0,0,1,0,1,0,1,0,0,0,0,2751,
scooby_state_405828|18|1 0,2745,0,0,1,0,0,1,0,1,0,0,0,1,1,2750,
scooby_state_405828|17|1 1,2747,0,0,0,0,0,0,0,0,0,1,1,0,0,2750,
scooby_state_405828|1|1 1,2727,0,0,0,0,0,0,0,0,0,2,0,0,0,2730,
scooby_state_405828|60|1 0,2726,0,0,0,0,1,0,0,1,1,0,0,0,1,2730,
scooby_state_405828|61|1 0,2730,0,0,0,0,0,0,0,0,0,0,0,0,0,2730,
scooby_state_405828|59|1 0,2724,1,0,1,0,0,1,0,0,2,0,1,0,0,2730,
scooby_state_405828|58|1 0,2728,0,0,0,0,0,0,0,0,0,0,1,1,0,2730,
scooby_state_405828|56|1 0,2726,1,0,0,0,0,0,0,1,0,0,0,1,1,2730,
scooby_state_405828|62|1 1,2723,0,0,1,2,0,0,0,1,1,0,0,0,1,2730,
scooby_state_405828|63|1 2,2722,0,1,0,2,2,0,0,0,0,0,0,1,0,2730,
scooby_state_405828|57|1 1,2727,0,0,0,0,0,0,0,0,0,1,0,0,1,2730,
scooby_state_405828|0|0 2,2700,2,0,1,0,0,0,0,1,0,0,0,0,0,2706,
scooby_state_4090c3|29|-34 2371,2,4,5,0,2,2,5,4,3,4,2,2,2,7,2415,
scooby_state_4090c3|20|-34 2363,0,2,4,1,5,1,1,2,1,2,3,0,1,4,2390,
scooby_state_4090c3|19|-34 2302,4,1,1,2,4,1,1,2,1,3,2,3,4,4,2335,
scooby_state_4090c3|21|-34 2275,2,1,6,5,5,4,4,3,2,5,1,1,2,6,2322,
scooby_state_4090c3|26|-34 2247,4,2,5,4,3,3,1,1,1,6,5,3,2,4,2291,
scooby_state_4090c3|1|-34 2210,1,3,2,2,5,3,2,1,2,3,1,4,1,3,2243,
scooby_state_4090c3|16|-34 2198,3,7,5,4,2,3,1,2,1,1,1,2,5,5,2240,
scooby_state_4090c3|8|-34 2184,0,5,2,2,1,3,3,5,2,2,1,3,6,7,2226,
scooby_state_4090c3|5|-34 2172,2,1,4,1,4,2,3,2,3,2,2,6,0,1,2205,
scooby_state_4090c3|7|-34 2126,6,3,5,1,0,2,3,2,5,2,6,3,2,12,2178,
scooby_state_4090c3|14|-34 2153,3,0,1,2,1,1,2,2,3,1,3,0,3,3,2178,
scooby_state_4090c3|6|-34 2131,2,4,1,3,4,1,3,4,4,3,3,5,3,3,2174,
scooby_state_4090c3|11|-34 2121,5,2,1,0,1,4,2,1,2,2,3,4,7,6,2161,
scooby_state_4090c3|24|-34 2119,3,5,4,2,3,2,3,4,4,2,2,0,2,3,2158,
scooby_state_4090c3|15|-34 2106,3,2,4,6,0,1,5,2,4,3,3,0,6,7,2152,
scooby_state_4090c3|22|-34 2112,1,4,1,3,4,3,4,2,3,2,1,3,2,4,2149,
scooby_state_4090c3|0|-34 2105,3,4,2,3,3,2,3,2,5,2,0,4,1,2,2141,
scooby_state_4090c3|28|-34 2066,3,2,3,4,1,2,2,1,1,1,0,0,1,2,2089,
scooby_state_4090c3|3|-34 2038,4,2,1,1,2,1,2,3,5,2,4,0,3,3,2071,
scooby_state_4090c3|27|-34 2024,3,1,1,1,5,7,1,1,2,0,3,3,1,4,2057,
scooby_state_4090c3|17|-34 2017,4,5,2,2,3,5,2,2,3,5,1,1,1,3,2056,
scooby_state_4090c3|12|-34 2016,2,0,3,4,0,2,2,5,4,2,5,1,3,3,2052,
scooby_state_409327|22|0 1253,52,46,50,49,53,51,50,51,50,51,49,52,50,132,2039,
scooby_state_4090c3|23|-34 2005,0,4,2,5,2,1,2,1,0,4,2,0,0,5,2033,
scooby_state_4090c3|18|-34 1979,1,2,3,4,0,4,5,3,2,6,2,7,2,1,2021,
scooby_state_4090c3|10|-34 1959,2,2,3,0,2,4,1,3,2,2,4,2,1,3,1990,
scooby_state_4090c3|25|-34 1906,5,3,1,3,1,2,2,1,1,3,2,2,2,2,1936,
scooby_state_409224|22|1 1905,11,1,1,1,0,0,1,1,1,1,1,1,1,1,1927,
scooby_state_409224|21|1 1906,12,1,0,0,0,0,0,2,1,0,0,0,2,1,1925,
scooby_state_4090c3|9|-34 1873,5,4,2,2,4,1,4,2,1,0,2,1,4,6,1911,
scooby_state_4090c3|4|-34 1878,0,1,1,5,2,2,4,3,1,4,2,3,0,5,1911,
scooby_state_409224|23|1 1881,10,1,1,1,0,0,0,0,0,0,1,1,0,1,1897,
scooby_state_409224|16|1 1862,14,1,1,0,0,1,0,0,0,0,0,1,0,1,1881,
scooby_state_409224|20|1 1857,12,2,1,1,0,1,0,0,0,0,0,1,1,1,1877,
scooby_state_409224|24|1 1844,8,1,1,0,2,0,0,0,0,1,2,1,0,1,1861,
scooby_state_409224|17|1 1837,13,0,1,0,0,1,0,0,0,0,0,0,0,0,1852,
scooby_state_409224|15|1 1832,14,1,1,0,1,1,1,0,0,0,0,0,1,0,1852,
scooby_state_409224|19|1 1835,10,0,0,0,0,1,0,1,0,0,0,1,0,0,1848,
scooby_state_409224|26|1 1832,6,0,2,0,0,1,0,0,0,1,1,0,0,1,1844,
scooby_state_409224|27|1 1823,9,0,1,0,2,0,0,1,0,0,1,0,0,0,1837,
scooby_state_409224|25|1 1824,7,0,1,0,0,0,0,0,0,1,1,1,0,1,1836,
scooby_state_4090c3|2|-34 1793,1,1,3,3,2,2,1,5,0,4,3,3,2,5,1828,
scooby_state_409224|18|1 1811,11,1,0,0,0,0,0,0,1,1,0,2,0,0,1827,
scooby_state_409224|28|1 1789,10,1,1,0,0,1,0,1,1,0,2,0,1,0,1807,
scooby_state_409224|29|1 1773,11,1,1,0,0,1,1,1,1,0,0,1,1,1,1793,
scooby_state_4090c3|13|-34 1742,2,0,2,2,0,1,1,4,4,3,2,3,3,6,1775,
scooby_state_409224|30|1 1755,10,0,2,1,0,1,0,0,0,0,1,0,0,0,1770,
scooby_state_409224|31|1 1732,10,1,1,2,0,0,0,1,0,0,0,0,0,1,1748,
scooby_state_409224|32|1 1701,9,0,1,0,0,0,1,0,0,0,0,1,0,0,1713,
scooby_state_409224|33|1 1695,9,0,1,0,0,0,0,0,0,0,0,1,0,1,1707,
scooby_state_409224|34|1 1668,6,0,1,0,0,1,0,0,0,0,0,2,0,0,1678,
scooby_state_409224|35|1 1641,5,0,1,0,0,0,0,1,0,0,0,0,1,0,1649,
scooby_state_409224|36|1 1586,2,0,1,0,0,0,0,0,0,0,0,0,2,0,1591,
scooby_state_409224|37|1 1536,0,0,0,0,0,0,0,1,0,0,0,0,1,0,1538,
scooby_state_409224|38|1 1487,1,0,0,0,0,0,0,1,1,0,1,1,0,0,1492,
scooby_state_409224|39|1 1445,0,0,1,0,0,0,1,0,1,0,0,0,0,0,1448,
scooby_state_409224|40|1 1404,0,0,0,0,0,0,0,0,0,0,0,0,1,0,1405,
scooby_state_409224|41|1 1351,0,0,0,0,0,0,0,0,0,0,0,0,0,0,1351,
scooby_state_409224|42|1 1274,1,0,0,0,0,0,0,0,0,0,0,0,0,1,1276,
scooby_state_4090c3|7|-35 1189,4,3,2,4,2,2,2,2,2,1,1,3,1,0,1218,
scooby_state_409224|43|1 1204,0,0,0,0,0,0,0,0,0,0,0,0,0,0,1204,
scooby_state_4090c3|8|-35 1168,4,1,1,0,3,1,5,3,4,1,3,2,2,0,1198,
scooby_state_4090c3|23|-35 1136,5,5,0,1,1,2,2,1,0,2,4,1,1,4,1165,
scooby_state_4090c3|4|-35 1139,2,1,3,0,0,2,0,4,3,0,0,2,0,0,1156,
scooby_state_4090c3|3|-35 1119,1,1,0,1,3,0,1,0,3,3,2,1,3,1,1139,
scooby_state_4090c3|22|-35 1104,3,1,1,7,3,1,1,1,0,1,1,1,1,4,1130,
scooby_state_4090c3|10|-35 1085,3,5,0,1,1,4,2,1,5,1,2,2,2,6,1120,
scooby_state_409224|44|1 1118,0,0,0,2,0,0,0,0,0,0,0,0,0,0,1120,
scooby_state_409265|50|-1 1097,1,0,1,0,2,2,0,0,0,0,1,0,2,2,1108,
scooby_state_409265|25|-1 1094,0,0,1,1,1,1,1,1,1,1,1,0,2,1,1106,
scooby_state_4090c3|2|-35 1065,0,2,1,3,3,4,2,3,3,1,3,1,1,5,1097,
scooby_state_4090c3|11|-35 1070,2,0,2,0,3,2,0,1,2,5,0,2,2,0,1091,
scooby_state_4090c3|20|-35 1060,2,0,0,4,3,1,2,3,2,3,2,2,4,3,1091,
scooby_state_4090c3|12|-35 1060,2,2,1,2,4,1,1,2,1,1,0,2,2,5,1086,
scooby_state_4090c3|18|-35 1056,1,1,2,3,1,1,2,1,1,1,2,2,1,4,1079,
scooby_state_409265|51|-1 1070,0,0,0,0,1,0,1,0,1,0,0,2,2,0,1077,
scooby_state_409265|7|-1 1065,1,2,1,0,0,0,1,0,0,1,2,1,0,1,1075,
scooby_state_4090c3|16|-35 1046,2,3,2,1,0,4,5,0,3,3,1,0,0,3,1073,
scooby_state_409265|20|-1 1063,0,1,1,1,0,2,0,1,0,1,0,0,0,3,1073,
scooby_state_409228|32|1 1055,2,2,1,1,3,2,0,1,1,0,2,1,1,1,1073,
scooby_state_4090c3|17|-35 1041,0,0,3,6,1,2,1,5,2,0,1,1,4,1,1068,
scooby_state_4090c3|27|-35 1036,3,1,4,1,0,3,2,1,1,4,1,0,6,4,1067,
scooby_state_409265|24|-1 1051,1,1,0,1,1,2,1,2,2,2,0,1,1,1,1067,
scooby_state_409228|33|1 1054,0,1,1,2,0,0,1,2,1,0,1,0,1,3,1067,
scooby_state_409265|60|-1 1049,0,1,1,1,0,1,1,1,2,1,1,0,0,2,1061,
scooby_state_409265|32|-1 1046,1,4,0,2,1,0,1,2,0,0,1,1,0,0,1059,
scooby_state_409265|39|-1 1042,1,0,0,0,0,1,0,2,0,0,0,2,2,2,1052,
scooby_state_409228|34|1 1034,0,1,0,1,0,1,0,1,0,1,4,1,3,2,1049,
scooby_state_409265|61|-1 1037,3,0,1,0,1,1,0,0,0,3,0,0,0,1,1047,
scooby_state_409265|58|-1 1033,1,2,1,0,1,2,0,1,2,1,2,1,0,0,1047,
scooby_state_409265|14|-1 1037,2,1,0,1,0,0,1,1,0,0,0,0,2,1,1046,
scooby_state_4090c3|14|-35 1007,3,3,4,2,4,2,2,5,2,2,2,2,0,3,1043,
scooby_state_4090c3|25|-35 1026,1,3,0,1,0,2,1,1,2,1,1,0,1,2,1042,
scooby_state_409265|53|-1 1033,1,0,0,1,0,1,1,0,0,3,0,0,0,0,1040,
scooby_state_409265|22|-1 1030,0,0,0,0,0,1,0,2,0,2,2,0,1,0,1038,
scooby_state_4090c3|0|-35 1016,1,0,2,1,1,2,2,1,3,1,1,2,3,2,1038,
scooby_state_409265|11|-1 1022,3,1,0,0,0,0,2,0,1,1,0,2,2,3,1037,
scooby_state_409265|48|-1 1029,0,0,0,1,1,0,0,1,1,0,0,1,1,0,1035,
scooby_state_4090c3|19|-35 1008,2,2,1,1,1,2,4,1,2,1,2,0,1,1,1029,
scooby_state_409265|0|-1 1017,0,2,1,0,1,2,0,1,0,0,1,2,0,0,1027,
scooby_state_4090c3|1|-35 998,3,0,1,1,1,1,1,0,2,2,4,2,2,1,1019,
scooby_state_4090c3|21|-35 994,1,1,3,0,3,0,2,2,2,2,3,0,0,3,1016,
scooby_state_409265|18|-1 1002,2,1,0,0,0,0,1,1,1,0,3,1,1,1,1014,
scooby_state_409265|46|-1 1007,0,0,0,1,1,2,0,1,0,0,0,0,0,1,1013,
scooby_state_409265|16|-1 997,1,1,3,0,1,0,0,2,0,1,0,0,0,5,1011,
scooby_state_409265|28|-1 1001,0,0,0,1,1,0,0,0,1,1,0,0,2,1,1008,
scooby_state_409224|14|0 971,3,3,13,1,2,1,3,1,2,1,3,1,3,0,1008,
scooby_state_4090c3|5|-35 979,1,2,4,1,1,3,3,1,0,3,3,4,3,0,1008,
scooby_state_409224|45|1 1006,0,0,0,0,0,0,0,0,0,0,0,0,0,0,1006,
scooby_state_4090c3|24|-35 973,2,4,1,1,3,3,1,3,0,2,5,3,0,4,1005,
scooby_state_409265|3|-1 992,1,1,0,1,2,2,2,1,1,0,0,0,1,0,1004,
scooby_state_409228|22|1 987,0,1,3,2,2,0,2,1,1,1,2,1,0,1,1004,
scooby_state_409265|34|-1 989,1,2,0,0,1,0,0,0,1,0,0,1,2,4,1001,
scooby_state_409228|63|1 984,1,1,2,2,2,1,1,0,0,3,0,2,0,2,1001,
scooby_state_409265|33|-1 989,1,1,1,0,3,0,0,0,0,1,1,0,2,0,999,
scooby_state_409265|30|-1 981,2,0,2,2,0,0,1,0,0,0,0,0,2,1,991,
scooby_state_409228|23|1 981,0,1,0,0,1,0,0,1,0,1,0,0,2,3,990,
scooby_state_4090c3|13|-35 972,2,2,1,1,0,1,1,1,0,2,0,3,1,3,990,
scooby_state_409265|1|-1 979,2,0,1,0,0,0,0,1,0,2,1,1,1,0,988,
scooby_state_409265|54|-1 972,1,0,2,0,2,1,0,1,2,2,2,0,0,2,987,
scooby_state_409228|19|1 976,0,1,1,0,2,0,1,0,1,0,0,1,0,3,986,
scooby_state_409265|21|-1 970,0,3,1,0,1,2,0,0,4,1,0,1,0,1,984,
scooby_state_409265|55|-1 970,1,3,0,1,1,0,0,1,1,0,0,1,4,1,984,
scooby_state_409228|45|1 953,2,3,1,1,0,4,1,0,2,1,0,2,2,3,975,
scooby_state_409265|44|-1 964,2,1,0,2,0,0,1,0,0,0,2,1,0,1,974,
scooby_state_4090c3|42|35 947,5,0,0,2,3,0,0,3,1,1,1,2,3,3,971,
scooby_state_409228|11|1 954,0,1,2,1,0,1,1,1,0,0,0,1,1,5,968,
scooby_state_409265|62|-1 961,0,0,1,1,0,2,1,0,0,0,1,0,0,1,968,
scooby_state_409228|24|1 955,1,0,0,1,1,1,1,2,2,1,1,0,0,2,968,
scooby_state_409265|43|-1 956,1,2,0,0,0,1,0,1,1,1,2,2,0,0,967,
scooby_state_409265|31|-1 955,2,1,1,0,1,0,0,1,0,3,3,0,0,0,967,
scooby_state_409265|42|-1 957,0,0,1,0,1,2,0,0,1,0,1,1,1,2,967,
scooby_state_409265|8|-1 950,2,1,1,1,2,2,0,0,1,0,1,0,2,0,963,
scooby_state_409228|35|1 949,2,0,0,0,3,1,0,2,1,0,0,2,0,2,962,
scooby_state_409228|30|1 949,1,1,3,0,1,0,0,0,1,0,0,2,3,1,962,
scooby_state_409228|12|1 948,0,1,1,0,0,2,2,0,2,0,0,0,4,0,960,
scooby_state_409265|2|-1 946,0,0,0,5,1,1,0,1,0,3,0,1,1,0,959,
scooby_state_409228|8|1 953,0,0,0,1,1,0,0,0,0,2,0,1,0,1,959,
scooby_state_409265|40|-1 944,1,1,0,2,0,1,2,1,0,0,2,1,1,0,956,
scooby_state_409265|15|-1 941,0,1,1,0,2,0,1,0,1,1,0,1,0,2,951,
scooby_state_4090c3|15|-35 922,2,2,2,3,1,0,3,4,0,2,2,4,2,1,950,
scooby_state_4090c3|6|-35 928,1,1,2,4,1,0,0,1,1,2,1,4,0,3,949,
scooby_state_409228|4|1 931,3,0,2,2,0,1,0,2,1,0,1,0,3,0,946,
scooby_state_4090c3|28|-35 934,0,0,1,1,0,1,0,1,3,1,0,1,1,1,945,
scooby_state_409265|37|-1 939,0,0,1,1,0,0,0,0,0,0,0,0,0,1,942,
scooby_state_409224|12|0 918,2,2,9,2,0,1,0,1,0,1,3,0,1,2,942,
scooby_state_409265|5|-1 935,0,0,0,0,2,0,0,0,1,0,0,2,1,1,942,
scooby_state_409228|17|1 931,0,0,3,0,3,0,1,0,1,0,1,0,0,1,941,
scooby_state_409265|47|-1 929,1,1,0,1,0,0,0,0,0,2,2,0,0,4,940,
scooby_state_409228|43|1 927,2,0,1,0,0,0,1,0,0,0,3,3,1,1,939,
scooby_state_409265|13|-1 932,0,1,0,0,0,0,1,0,0,0,1,2,1,1,939,
scooby_state_4090c3|35|35 905,3,1,2,3,0,2,4,2,4,2,3,3,2,2,938,
scooby_state_409265|12|-1 925,0,1,2,0,1,0,2,1,1,0,0,0,1,1,935,
scooby_state_4090c3|9|-35 916,0,3,2,1,1,2,0,1,0,2,3,0,0,3,934,
scooby_state_409265|26|-1 921,1,1,0,0,2,0,0,0,3,0,0,0,1,2,931,
scooby_state_409228|40|1 921,0,0,0,2,2,1,1,1,1,0,0,0,0,2,931,
scooby_state_409228|49|1 916,1,0,2,2,1,1,2,0,0,1,4,0,1,0,931,
scooby_state_409224|14|1 915,5,1,1,0,0,1,1,0,0,0,1,0,0,0,925,
scooby_state_409265|29|-1 914,1,3,3,0,1,0,0,0,0,0,0,2,0,1,925,
scooby_state_4090c3|26|-35 907,2,1,3,1,1,0,1,2,0,1,1,2,0,2,924,
scooby_state_409265|23|-1 915,0,0,0,0,0,1,0,1,0,0,0,2,0,4,923,
scooby_state_409265|35|-1 915,0,1,2,0,0,2,1,1,0,0,0,1,0,0,923,
scooby_state_409228|31|1 911,0,0,2,2,1,0,1,0,1,1,0,1,1,0,921,
scooby_state_409265|19|-1 906,0,2,0,0,1,0,3,2,0,1,0,1,0,2,918,
scooby_state_4090c3|47|35 890,3,3,2,0,2,3,4,2,0,0,2,2,2,1,916,
scooby_state_409265|41|-1 902,1,0,2,0,0,1,0,0,0,0,2,2,2,2,914,
scooby_state_409228|62|1 896,3,3,0,0,2,0,1,2,0,2,0,1,0,3,913,
scooby_state_409265|38|-1 903,1,1,1,1,0,2,1,0,3,0,0,0,0,0,913,
scooby_state_409224|46|1 912,0,0,0,0,1,0,0,0,0,0,0,0,0,0,913,
scooby_state_409228|53|1 896,3,2,1,1,1,2,1,2,0,0,1,1,0,0,911,
scooby_state_4090c3|44|35 878,3,1,1,1,3,3,2,3,2,2,1,1,4,5,910,
scooby_state_4090c3|40|35 888,0,2,1,3,3,2,2,1,1,1,0,2,2,2,910,
scooby_state_409228|5|1 902,1,2,0,0,0,1,1,0,1,0,0,1,1,0,910,
scooby_state_409224|13|1 898,3,1,1,0,0,1,0,1,0,0,0,1,0,1,907,
scooby_state_409265|6|-1 884,2,0,0,1,0,2,1,0,1,0,1,2,0,1,895,
scooby_state_409228|52|1 877,0,1,0,3,2,1,0,0,2,1,1,2,0,4,894,
scooby_state_409228|6|1 876,1,1,0,1,2,3,0,4,2,1,0,0,0,2,893,
scooby_state_409265|52|-1 880,0,1,1,1,0,2,2,2,1,1,0,1,0,0,892,
scooby_state_409228|14|1 881,1,2,0,0,1,0,1,1,0,0,1,1,2,1,892,
scooby_state_409265|45|-1 875,0,0,0,1,1,0,2,0,3,2,2,1,0,2,889,
scooby_state_409228|59|1 874,1,0,1,1,0,1,2,2,0,2,0,2,1,1,888,
scooby_state_4090c3|37|35 853,3,3,2,2,5,2,4,1,3,2,3,2,2,1,888,
scooby_state_409228|15|1 876,1,2,0,0,2,1,0,1,1,2,0,0,0,1,887,
scooby_state_409265|59|-1 877,0,1,2,1,1,1,0,0,0,1,1,0,0,2,887,
scooby_state_409228|57|1 869,1,0,2,1,1,3,1,1,0,0,3,1,1,1,885,
scooby_state_409228|41|1 871,0,2,1,2,1,0,1,0,0,3,0,1,0,2,884,
scooby_state_409265|10|-1 869,0,0,1,1,1,0,1,2,1,0,0,2,1,0,879,
scooby_state_409228|61|1 865,3,1,0,1,1,1,3,0,0,0,2,0,0,0,877,
scooby_state_409228|25|1 867,0,2,0,0,0,1,0,1,3,1,1,0,0,0,876,
scooby_state_409228|28|1 860,0,0,2,1,1,1,1,1,5,0,0,2,1,1,876,
scooby_state_4090c3|62|35 847,0,2,0,2,4,1,3,1,1,2,4,1,5,1,874,
scooby_state_409265|49|-1 860,1,1,3,0,0,1,1,1,1,1,0,0,2,1,873,
scooby_state_409265|9|-1 856,1,0,2,2,0,1,0,0,1,3,2,2,2,1,873,
scooby_state_4090c3|48|35 843,0,4,1,3,3,2,3,1,1,1,2,1,3,4,872,
scooby_state_4090c3|55|35 844,1,3,0,1,0,1,2,2,1,2,1,2,5,6,871,
scooby_state_409228|13|1 858,1,1,1,2,1,0,1,1,1,1,1,0,1,0,870,
scooby_state_409228|26|1 859,0,1,1,1,0,0,0,0,0,0,0,0,2,4,868,
scooby_state_409228|44|1 856,2,0,0,1,1,0,2,0,1,0,1,0,0,1,865,
scooby_state_409265|17|-1 853,0,0,1,2,0,0,1,3,0,0,0,1,0,2,863,
scooby_state_4090c3|36|35 836,2,2,1,3,3,0,1,3,1,1,1,5,1,3,863,
scooby_state_4090c3|58|35 825,3,3,4,3,1,2,2,2,0,4,2,3,1,7,862,
scooby_state_409265|27|-1 852,2,0,1,1,0,1,0,2,0,0,1,0,1,0,861,
scooby_state_409228|2|1 839,1,1,1,0,1,0,1,0,1,1,2,1,3,3,855,
scooby_state_409228|29|1 841,2,2,1,0,1,0,0,0,0,1,0,3,1,2,854,
scooby_state_409228|54|1 844,0,1,1,0,1,1,0,1,0,2,1,0,0,1,853,
scooby_state_409228|38|1 840,2,0,1,0,1,2,2,1,0,1,0,1,0,1,852,
scooby_state_409228|51|1 839,2,1,0,0,0,1,2,2,2,0,1,1,1,0,852,
scooby_state_4090c3|43|35 821,1,2,3,4,1,4,0,1,1,1,5,1,1,2,848,
scooby_state_409265|56|-1 842,0,1,0,2,0,0,1,0,0,0,0,1,0,0,847,
scooby_state_409265|57|-1 838,1,2,0,0,1,1,1,2,0,0,0,0,0,1,847,
scooby_state_409228|48|1 838,0,1,0,0,0,2,0,0,1,0,0,1,1,3,847,
scooby_state_409228|3|1 835,0,0,0,0,1,0,0,0,1,2,0,2,0,2,843,
scooby_state_409228|46|1 832,0,1,0,2,2,1,1,0,0,3,1,0,0,0,843,
scooby_state_409228|16|1 831,1,1,2,1,1,0,1,0,0,0,1,0,0,3,842,
scooby_state_409228|7|1 829,2,0,2,1,1,0,1,0,0,1,0,0,0,1,838,
scooby_state_409228|58|1 823,0,0,0,0,2,2,1,1,2,1,1,1,0,1,835,
scooby_state_4090c3|56|35 811,1,0,2,2,1,1,1,2,2,2,1,3,3,1,833,
scooby_state_409228|55|1 818,1,2,0,2,1,1,1,0,0,1,0,2,1,3,833,
scooby_state_4090c3|51|35 806,4,2,1,3,1,2,0,2,1,2,3,2,0,3,832,
scooby_state_409228|42|1 812,1,1,2,1,0,1,0,1,0,1,4,2,1,2,829,
scooby_state_4090c3|52|35 812,1,3,0,0,0,0,0,1,0,4,1,2,0,3,827,
scooby_state_409228|36|1 813,1,0,2,1,0,0,0,1,1,1,0,1,1,3,825,
scooby_state_409228|1|1 814,0,0,1,1,0,0,1,2,2,1,1,0,0,2,825,
scooby_state_409228|60|1 815,1,0,1,0,0,1,2,0,0,0,0,1,2,1,824,
scooby_state_409228|9|1 806,0,0,1,0,1,2,1,2,0,1,3,1,2,2,822,
scooby_state_409224|47|1 818,0,0,0,0,0,1,0,0,0,1,0,0,0,0,820,
scooby_state_4090c3|49|35 790,2,2,1,0,5,4,1,3,1,1,1,1,1,3,816,
scooby_state_409228|47|1 803,0,1,0,1,0,1,2,1,0,0,2,2,0,2,815,
scooby_state_4090c3|38|35 787,2,2,4,2,2,0,0,0,3,1,2,3,1,5,814,
scooby_state_4090c3|57|35 788,3,1,2,0,4,0,3,3,0,1,1,3,0,4,813,
scooby_state_4090c3|61|35 793,0,4,3,2,1,2,2,0,0,0,2,2,1,1,813,
scooby_state_409265|36|-1 793,0,0,3,1,1,2,1,1,1,1,3,0,0,1,808,
scooby_state_409228|21|1 798,2,0,1,1,0,0,2,1,0,0,1,0,0,1,807,
scooby_state_409228|37|1 788,0,1,0,0,0,2,0,0,1,1,3,1,2,2,801,
scooby_state_4090c3|60|35 778,1,0,1,0,0,1,0,2,1,0,3,3,3,4,797,
scooby_state_4090c3|54|35 771,3,1,5,1,2,2,1,3,0,1,1,0,1,2,794,
scooby_state_409228|56|1 779,1,4,0,0,0,0,0,0,0,2,2,0,1,1,790,
scooby_state_4090c3|50|35 767,1,3,1,0,1,0,0,2,0,2,1,3,2,2,785,
scooby_state_409265|4|-1 778,1,0,0,0,1,0,0,0,0,1,0,1,0,2,784,
scooby_state_409228|27|1 780,0,0,0,0,0,0,0,1,1,0,0,0,1,0,783,
scooby_state_4090c3|41|35 749,1,1,4,3,2,3,4,1,1,1,4,3,4,1,782,
scooby_state_409228|39|1 763,1,2,0,1,0,0,0,1,1,1,0,0,0,1,771,
scooby_state_409228|18|1 761,0,0,1,2,0,1,0,1,1,1,1,1,0,0,770,
scooby_state_409228|20|1 759,1,0,1,1,0,0,1,2,0,1,0,1,1,0,768,
scooby_state_4090c3|63|35 751,1,1,2,1,0,2,0,1,3,1,2,1,1,1,768,
scooby_state_4090c3|45|35 734,1,1,3,3,1,2,0,0,5,2,2,3,2,2,761,
scooby_state_4090c3|53|35 739,2,1,3,0,1,2,0,0,3,1,0,0,1,3,756,
scooby_state_409228|10|1 746,2,0,0,2,1,0,0,0,3,0,0,0,0,1,755,
scooby_state_409265|63|0 623,10,8,8,7,9,9,8,9,7,8,12,10,10,15,753,
scooby_state_409224|48|1 732,0,0,1,0,0,0,0,0,0,0,0,0,0,0,733,
scooby_state_4090c3|59|35 719,2,2,0,0,0,0,1,0,2,1,1,0,1,3,732,
scooby_state_409228|50|1 705,1,1,1,4,1,1,0,0,1,1,0,1,1,2,720,
scooby_state_4090c3|46|35 700,3,1,1,2,1,2,2,0,2,0,2,1,0,3,720,
scooby_state_4090c3|39|35 698,0,0,1,2,2,5,1,1,0,0,1,0,1,0,712,
scooby_state_409228|0|-34 634,0,4,0,2,1,3,1,1,0,2,3,1,1,0,653,
scooby_state_409224|49|1 646,1,0,0,0,0,0,0,0,0,0,0,0,0,0,647,
scooby_state_409228|16|-34 601,0,2,3,0,2,1,3,1,1,3,3,2,4,1,627,
scooby_state_409228|9|-34 594,0,3,2,2,2,1,2,4,2,3,2,2,0,2,621,
scooby_state_409228|1|-34 589,1,1,0,1,2,2,0,0,2,3,2,0,1,2,606,
scooby_state_409228|26|-34 587,0,0,0,1,0,1,3,2,2,0,1,0,0,5,602,
scooby_state_409228|29|-34 574,0,1,2,0,1,0,2,3,0,0,2,2,0,2,589,
scooby_state_409228|12|-34 566,0,1,1,2,2,1,0,1,3,2,2,3,0,1,585,
scooby_state_409228|21|-34 563,4,1,0,0,3,2,0,2,1,1,1,2,0,4,584,
scooby_state_409228|24|-34 550,3,1,1,1,1,3,1,2,3,0,3,2,2,1,574,
scooby_state_409228|14|-34 555,1,2,0,4,0,1,1,0,0,1,3,0,1,4,573,
scooby_state_409228|20|-34 548,1,2,2,4,0,1,1,1,0,2,1,4,0,3,570,
scooby_state_409224|50|1 568,0,0,0,0,0,0,0,0,0,0,0,0,0,0,568,
scooby_state_409228|23|-34 534,1,1,1,1,0,1,0,0,2,2,4,3,1,3,554,
scooby_state_409228|15|-34 540,0,0,1,1,1,0,2,0,1,1,0,1,1,2,551,
scooby_state_409228|13|-34 535,2,1,2,0,1,0,1,1,0,0,3,0,1,2,549,
scooby_state_409228|3|-34 533,0,0,3,1,3,1,0,3,0,1,1,1,0,2,549,
scooby_state_409228|17|-34 530,0,0,1,1,4,3,1,0,0,0,4,2,2,1,549,
scooby_state_409228|25|-34 525,1,2,4,2,1,1,2,0,2,1,2,1,3,0,547,
scooby_state_409228|28|-34 529,2,0,1,2,0,1,1,0,0,0,3,0,0,5,544,
scooby_state_409228|18|-34 518,0,1,2,1,2,2,2,1,2,1,0,0,3,1,536,
scooby_state_409228|8|-34 520,3,2,1,0,0,2,1,0,0,0,0,0,2,2,533,
scooby_state_409228|22|-34 515,1,0,0,1,0,1,0,0,1,1,3,2,2,0,527,
scooby_state_409228|5|-34 484,4,0,1,1,2,0,2,1,1,1,4,1,2,3,507,
scooby_state_409228|11|-34 489,1,1,1,1,3,0,2,1,0,2,0,0,1,2,504,
scooby_state_409228|7|-34 486,2,0,1,2,1,0,2,0,0,3,0,1,2,3,503,
scooby_state_409228|27|-34 484,2,1,0,1,1,2,1,2,2,2,1,2,0,0,501,
scooby_state_409228|19|-34 484,2,1,1,0,0,0,2,0,1,1,2,1,3,0,498,
scooby_state_409228|2|-34 475,1,2,1,0,2,1,1,4,3,2,2,0,0,1,495,
scooby_state_409228|6|-34 478,0,1,2,1,0,0,0,2,3,0,0,2,2,1,492,
scooby_state_409224|51|1 479,0,0,0,0,0,0,0,0,0,1,0,0,1,0,481,
scooby_state_409228|4|-34 462,1,2,0,2,0,2,0,2,1,0,2,0,2,1,477,
scooby_state_409228|10|-34 462,2,1,0,2,1,3,0,1,3,0,2,0,0,0,477,
scooby_state_409228|51|35 414,1,0,0,0,1,2,0,0,0,0,4,1,0,2,425,
scooby_state_409228|35|35 400,2,0,0,0,0,2,0,1,0,3,4,0,2,0,414,
scooby_state_409228|50|35 398,0,1,0,0,0,1,1,0,0,0,2,0,5,2,410,
scooby_state_409224|52|1 400,0,0,0,0,2,0,0,0,0,0,0,0,0,0,402,
scooby_state_409228|62|35 389,0,1,2,0,0,1,0,1,2,0,0,0,1,1,398,
scooby_state_409228|42|35 369,1,1,0,0,0,4,2,0,0,0,4,1,0,0,382,
scooby_state_409228|63|35 364,0,0,2,0,2,0,0,0,0,1,3,1,4,1,378,
scooby_state_409228|47|35 360,2,1,0,0,0,0,1,1,2,0,4,2,2,1,376,
scooby_state_409228|56|35 360,0,0,0,1,0,1,1,1,1,0,3,3,0,2,373,
scooby_state_409228|49|35 357,0,0,0,1,2,1,1,0,1,0,1,1,0,2,367,
scooby_state_409228|58|35 344,2,2,2,0,1,0,3,3,1,0,1,1,0,1,361,
scooby_state_409228|43|35 345,2,1,1,1,0,2,0,1,0,0,3,0,3,1,360,
scooby_state_409228|46|35 349,0,0,0,0,0,0,0,1,0,1,2,0,0,5,358,
scooby_state_409228|61|35 344,0,1,1,2,0,0,0,1,1,0,0,2,0,2,354,
scooby_state_409228|55|35 340,0,2,2,1,1,0,0,0,0,2,1,0,1,1,351,
scooby_state_409228|45|35 345,0,2,0,0,0,0,2,0,0,0,1,0,0,0,350,
scooby_state_409228|40|35 332,0,0,1,1,0,0,1,0,1,2,2,0,1,2,343,
scooby_state_409224|53|1 340,0,0,0,0,0,0,0,0,0,0,0,0,1,0,341,
scooby_state_409228|60|35 329,2,1,0,2,0,1,0,1,1,0,0,1,1,0,339,
scooby_state_409228|60|34 322,1,1,0,1,1,1,0,3,0,1,1,0,1,3,336,
scooby_state_409228|52|35 312,0,0,0,0,0,0,0,2,2,2,3,2,0,2,325,
scooby_state_409228|48|35 317,0,0,0,0,0,1,0,0,0,0,1,1,1,0,321,
scooby_state_409228|38|35 307,3,0,1,3,2,0,1,0,0,0,0,1,0,2,320,
scooby_state_409228|44|35 305,1,1,1,0,1,0,0,2,1,1,1,1,0,3,318,
scooby_state_409228|54|35 305,2,0,1,1,3,1,1,0,0,0,1,1,0,1,317,
scooby_state_409228|42|34 306,1,0,2,0,1,0,1,1,0,0,3,0,1,0,316,
scooby_state_409228|41|34 302,1,1,1,1,1,1,1,0,1,1,1,1,1,2,316,
scooby_state_409228|39|34 301,1,2,0,2,2,0,2,0,0,1,0,1,1,1,314,
scooby_state_409228|53|35 307,0,1,0,1,0,1,0,1,0,0,3,0,0,0,314,
scooby_state_409228|36|35 302,0,2,0,1,1,0,1,0,0,1,3,0,0,2,313,
scooby_state_409228|41|35 296,1,2,1,2,0,1,2,0,2,2,0,0,1,0,310,
scooby_state_409228|52|34 296,0,0,0,0,1,1,1,1,0,1,1,0,0,2,304,
scooby_state_409228|54|34 284,2,1,2,2,0,1,1,1,2,0,2,1,1,1,301,
scooby_state_409228|57|35 292,1,1,1,0,1,0,0,1,0,0,1,1,0,0,299,
scooby_state_409228|51|34 280,1,2,2,1,1,0,1,0,0,1,1,2,1,3,296,
scooby_state_409228|35|34 285,1,0,2,1,0,0,0,1,1,0,0,2,1,2,296,
scooby_state_409224|54|1 293,0,0,0,0,0,0,0,0,0,0,0,1,0,0,294,
scooby_state_409228|37|35 282,0,0,0,1,0,0,1,0,0,1,2,1,1,0,289,
scooby_state_409228|59|35 273,0,0,1,0,1,1,2,2,0,0,0,0,1,0,281,
scooby_state_409228|63|34 271,0,1,1,1,1,0,1,1,0,1,1,0,0,0,279,
scooby_state_409228|47|34 266,0,1,1,2,0,1,3,0,0,0,1,0,1,3,279,
scooby_state_409228|61|34 267,1,0,1,0,1,1,0,1,0,1,1,0,0,2,276,
scooby_state_409228|48|34 261,0,1,2,2,1,2,0,0,1,1,0,2,0,1,274,
scooby_state_409228|43|34 256,2,0,1,2,0,1,0,1,1,2,0,1,0,1,268,
scooby_state_409228|55|34 255,0,2,0,0,2,1,1,0,0,0,1,1,2,2,267,
scooby_state_409228|45|34 253,0,1,3,2,1,0,0,0,1,2,2,0,0,0,265,
scooby_state_409228|49|34 245,1,1,0,0,1,2,2,0,1,0,2,2,2,2,261,
scooby_state_409228|38|34 246,1,1,1,0,3,2,1,0,1,1,1,0,1,1,260,
scooby_state_409228|39|35 251,0,0,2,0,0,0,0,0,0,0,1,0,0,1,255,
scooby_state_409228|40|34 246,0,1,0,0,0,2,0,0,1,1,1,0,0,2,254,
scooby_state_409228|50|34 245,0,0,0,1,1,2,1,0,0,0,0,1,0,2,253,
scooby_state_409228|58|34 238,1,0,2,1,1,0,1,0,3,1,1,0,1,1,251,
scooby_state_409228|56|34 236,0,1,1,1,1,2,1,0,0,0,1,2,1,1,248,
scooby_state_409228|53|34 233,0,1,3,1,1,3,0,2,1,0,1,0,1,0,247,
scooby_state_409224|55|1 244,0,0,0,0,0,0,0,0,0,0,0,0,0,0,244,
scooby_state_409228|37|34 230,0,2,0,0,1,1,0,1,0,1,1,1,1,0,239,
scooby_state_409228|62|34 227,1,0,1,1,1,2,1,0,1,1,1,0,2,0,239,
scooby_state_409228|34|34 226,1,0,2,0,1,0,1,1,0,1,1,0,2,2,238,
scooby_state_409228|57|34 218,1,2,0,1,0,0,1,0,2,1,0,4,1,2,233,
scooby_state_409228|36|34 219,0,0,0,2,1,0,0,1,2,2,1,0,1,0,229,
scooby_state_409224|56|1 217,0,0,0,0,0,0,0,0,0,0,0,0,0,0,217,
scooby_state_409228|46|34 191,2,1,2,0,0,1,1,0,2,0,3,0,2,2,207,
scooby_state_409228|44|34 190,2,0,1,0,0,0,1,3,0,0,0,3,1,2,203,
scooby_state_409224|57|1 195,0,0,0,0,0,0,0,0,0,0,0,0,0,0,195,
scooby_state_409228|59|34 184,1,1,0,0,0,0,0,1,0,0,1,1,0,1,190,
scooby_state_409224|58|1 176,1,0,0,0,0,0,0,0,0,0,0,0,0,0,177,
scooby_state_409224|59|1 161,0,0,0,0,0,0,0,0,0,0,0,0,0,0,161,
scooby_state_409224|60|1 153,0,0,0,0,0,0,0,0,0,0,0,0,0,0,153,
scooby_state_4090c3|63|33 136,2,1,2,0,1,2,1,0,1,1,1,2,2,1,153,
scooby_state_409224|61|1 141,0,0,0,0,0,0,0,0,0,0,0,0,0,0,141,
scooby_state_4090c3|33|33 117,0,2,1,2,0,1,0,2,1,0,5,1,2,2,136,
scooby_state_4090c3|35|33 124,0,2,0,1,0,1,0,0,0,1,2,2,1,1,135,
scooby_state_409270|57|-2 118,9,0,0,1,1,1,0,1,0,0,0,1,0,1,133,
scooby_state_4090c3|52|33 121,1,1,0,0,1,1,0,1,1,1,1,0,1,2,132,
scooby_state_409270|0|-33 107,1,2,2,1,3,1,1,2,4,0,0,2,2,3,131,
scooby_state_4090c3|54|33 119,1,1,1,1,0,2,0,1,0,1,0,0,1,2,130,
scooby_state_409270|45|-2 112,7,0,1,1,0,2,0,0,1,0,1,0,2,1,128,
scooby_state_4090c3|62|33 117,0,2,0,0,1,0,1,0,0,1,0,2,1,2,127,
scooby_state_4090c3|48|33 112,0,2,1,2,3,0,0,2,0,0,1,1,1,1,126,
scooby_state_409270|11|-2 111,8,2,1,1,0,0,0,1,0,0,0,0,0,1,125,
scooby_state_4090c3|47|33 117,2,0,1,0,0,0,1,0,0,0,1,0,0,3,125,
scooby_state_409270|19|-2 112,6,0,0,0,1,0,1,0,2,0,0,1,1,0,124,
scooby_state_4090c3|34|33 105,3,2,1,1,0,1,1,1,1,0,2,0,1,4,123,
scooby_state_409270|48|-2 113,5,0,1,0,1,1,0,1,0,0,0,0,0,0,122,
scooby_state_409224|62|1 120,0,0,0,0,0,0,0,0,0,0,0,0,0,0,120,
scooby_state_4090c3|57|33 108,3,1,2,0,0,1,0,1,1,1,0,0,0,1,119,
scooby_state_409270|41|-2 109,8,0,0,0,1,0,0,0,0,0,1,0,0,0,119,
scooby_state_409270|1|-2 103,10,0,0,0,1,0,0,1,2,0,0,1,1,0,119,
scooby_state_409270|37|-2 106,6,1,0,0,1,0,0,0,1,1,1,0,0,0,117,
scooby_state_4090c3|50|33 109,0,2,0,0,2,1,0,0,1,0,1,0,0,0,116,
scooby_state_409270|16|-2 103,6,0,0,1,0,1,1,0,0,0,0,0,3,1,116,
scooby_state_4094dd|13|0 76,4,1,0,4,1,3,3,3,3,2,4,3,1,8,116,
scooby_state_4094dd|32|0 80,3,5,3,4,3,2,2,2,2,1,1,2,2,3,115,
scooby_state_4094dd|30|0 78,0,1,1,4,2,2,2,2,0,1,3,4,5,8,113,
scooby_state_409224|63|1 111,0,0,0,0,0,0,0,0,0,0,0,0,0,0,111,
scooby_state_4094dd|62|0 76,1,2,4,2,3,1,5,2,1,1,6,3,2,2,111,
scooby_state_409270|4|-2 100,6,2,0,1,0,0,0,0,0,0,0,1,0,0,110,
scooby_state_409270|17|-2 94,10,0,0,1,0,0,1,2,0,1,0,0,0,0,109,
scooby_state_409270|44|-2 94,11,0,1,0,0,0,0,0,0,2,0,0,0,1,109,
scooby_state_409270|10|-2 98,3,0,1,0,2,1,1,1,0,0,1,0,0,1,109,
scooby_state_4094dd|29|0 74,2,4,2,1,3,1,3,3,0,1,2,5,3,4,108,
scooby_state_409270|32|-2 90,11,0,0,0,0,0,1,0,0,0,1,2,0,3,108,
scooby_state_409270|8|-2 98,5,1,0,0,0,0,0,1,0,0,0,2,0,1,108,
scooby_state_409224|0|0 108,0,0,0,0,0,0,0,0,0,0,0,0,0,0,108,
scooby_state_4094dd|39|0 79,0,3,3,0,2,0,5,3,1,1,1,3,0,6,107,
scooby_state_409270|51|-2 93,9,0,0,1,0,0,1,0,0,0,1,1,0,0,106,
scooby_state_409270|40|-2 99,4,0,0,0,1,0,0,0,0,0,0,1,1,0,106,
scooby_state_4094dd|31|0 84,1,0,1,0,0,1,4,4,2,0,4,0,2,2,105,
scooby_state_4090c3|36|33 92,0,1,4,2,0,0,0,0,1,2,0,0,2,0,104,
scooby_state_409270|42|-2 99,5,0,0,0,0,0,0,0,0,0,0,0,0,0,104,
scooby_state_409265|63|34 41,0,2,3,6,4,3,8,5,4,3,5,6,5,8,103,
scooby_state_409224|1|1 103,0,0,0,0,0,0,0,0,0,0,0,0,0,0,103,
scooby_state_409270|33|-2 93,6,0,1,0,0,2,0,0,0,0,0,1,0,0,103,
scooby_state_409270|36|-2 94,7,0,1,1,0,0,0,0,0,0,0,0,0,0,103,
scooby_state_409270|35|-2 95,6,1,0,0,1,0,0,0,0,0,0,0,0,0,103,
scooby_state_409270|61|-2 93,2,1,1,0,1,0,1,1,0,0,1,0,0,2,103,
scooby_state_4090c3|58|33 89,0,2,0,1,2,1,0,2,1,0,1,3,0,1,103,
scooby_state_4094dd|33|0 70,5,0,2,1,2,2,4,4,0,2,3,1,2,4,102,
scooby_state_4090c3|46|33 93,2,0,1,0,0,0,2,2,0,1,0,1,0,0,102,
scooby_state_409270|26|-2 91,7,0,0,0,0,0,0,1,1,0,1,0,0,0,101,
scooby_state_409270|3|-2 90,6,0,1,0,0,1,0,0,0,0,0,0,2,1,101,
scooby_state_4094dd|16|0 68,2,4,3,3,1,5,2,2,1,2,0,2,2,4,101,
scooby_state_409270|59|-2 93,5,0,0,1,0,0,0,0,0,1,1,0,0,0,101,
scooby_state_409270|24|-2 86,9,0,0,0,0,0,1,0,0,0,1,2,0,1,100,
scooby_state_409270|5|-2 89,6,0,1,0,1,1,0,0,0,1,0,1,0,0,100,
scooby_state_409270|21|-2 88,7,1,0,0,0,2,0,0,1,0,0,0,0,1,100,
scooby_state_4094dd|18|0 68,5,2,0,2,1,3,1,1,1,2,0,6,2,5,99,
scooby_state_409270|34|-2 88,6,0,1,0,0,0,1,0,1,1,0,1,0,0,99,
scooby_state_4090c3|59|33 90,0,0,0,1,1,0,0,0,1,2,0,1,1,1,98,
scooby_state_409270|28|-2 82,8,2,1,0,0,0,0,0,1,2,0,1,0,1,98,
scooby_state_409270|23|-2 85,8,0,1,1,0,0,1,0,0,1,0,0,1,0,98,
scooby_state_4094dd|58|0 70,1,4,2,3,3,0,3,0,3,3,2,1,2,0,97,
scooby_state_4094dd|3|0 70,2,5,2,2,2,1,4,1,1,0,2,3,1,1,97,
scooby_state_409270|2|-2 84,7,1,0,0,1,0,0,0,0,0,1,1,1,1,97,
scooby_state_4094dd|52|0 59,4,2,2,4,3,1,1,2,3,2,2,0,3,9,97,
scooby_state_4090c3|51|33 91,1,0,0,0,0,0,0,1,0,0,0,1,3,0,97,
scooby_state_4094dd|0|0 64,3,2,1,2,4,2,2,1,1,3,1,1,4,6,97,
scooby_state_4094dd|42|0 64,1,2,2,3,6,4,4,2,0,0,1,3,2,2,96,
scooby_state_4094dd|14|0 62,4,3,3,3,2,2,2,2,1,1,2,3,4,2,96,
scooby_state_4094dd|43|0 73,2,2,0,3,3,0,2,0,2,2,1,0,4,2,96,
scooby_state_4094dd|46|0 72,2,1,1,4,1,0,2,1,0,1,1,1,6,3,96,
scooby_state_4094dd|48|0 73,1,2,0,3,0,1,3,1,1,3,1,0,1,5,95,
scooby_state_409224|2|1 95,0,0,0,0,0,0,0,0,0,0,0,0,0,0,95,
scooby_state_409270|50|-2 88,7,0,0,0,0,0,0,0,0,0,0,0,0,0,95,
scooby_state_409270|0|-1 88,1,0,2,1,0,0,0,0,1,1,0,0,0,0,94,
scooby_state_4094dd|49|0 75,2,1,0,3,1,1,4,1,1,0,1,1,0,3,94,
scooby_state_409270|6|-2 86,5,0,0,1,1,0,0,0,0,0,0,0,1,0,94,
scooby_state_4090c3|44|33 82,2,1,0,1,0,0,1,1,1,1,1,1,1,1,94,
scooby_state_409270|60|-2 85,6,0,1,0,1,0,1,0,0,0,0,0,0,0,94,
scooby_state_4094dd|9|0 60,2,1,1,4,1,2,4,1,3,1,2,1,2,8,93,
scooby_state_409270|0|-2 82,5,0,1,1,1,0,0,0,0,0,0,0,2,0,92,
scooby_state_4094dd|51|0 57,5,3,3,1,1,1,1,2,2,2,0,3,3,8,92,
scooby_state_4094dd|40|0 71,1,0,1,1,2,2,3,0,1,2,3,2,1,2,92,
scooby_state_4094dd|21|0 58,3,1,2,1,2,3,1,5,0,3,1,4,4,3,91,
scooby_state_4094dd|10|0 53,1,2,2,3,4,1,5,1,2,2,5,3,2,5,91,
scooby_state_4094dd|2|0 62,2,3,2,1,0,1,5,1,3,3,2,2,2,2,91,
scooby_state_4094dd|44|0 55,7,1,5,2,2,0,1,2,4,1,2,1,3,5,91,
scooby_state_409270|14|-2 83,2,0,1,0,1,0,0,0,0,0,1,0,2,1,91,
scooby_state_4094dd|17|0 56,1,1,2,4,2,1,3,4,3,1,4,2,2,5,91,
scooby_state_4094dd|61|0 74,1,0,0,1,0,3,1,1,2,1,3,1,0,2,90,
scooby_state_4090c3|49|33 84,0,0,0,1,0,1,1,0,2,0,0,0,0,1,90,
scooby_state_409270|54|-2 86,1,0,1,0,0,0,1,0,0,0,0,1,0,0,90,
scooby_state_409270|38|-2 76,4,0,1,1,0,0,1,2,1,2,0,0,1,0,89,
scooby_state_409270|18|-2 80,5,0,0,0,0,1,0,1,1,0,0,0,0,1,89,
scooby_state_409270|38|2 73,0,0,2,0,1,0,1,1,2,0,9,0,0,0,89,
scooby_state_409270|12|-2 81,3,1,1,1,0,0,0,0,1,0,0,1,0,0,89,
scooby_state_4094dd|20|0 58,1,2,1,5,2,1,4,1,2,0,2,3,3,3,88,
scooby_state_4094dd|7|0 57,3,3,2,1,4,2,3,3,1,1,3,3,1,1,88,
scooby_state_4094dd|11|0 62,0,3,2,1,0,2,3,2,1,5,1,3,1,2,88,
scooby_state_4094dd|60|0 62,3,2,3,2,4,1,0,1,0,5,2,1,1,1,88,
scooby_state_4094dd|19|0 59,1,1,0,3,4,2,5,1,1,0,0,2,4,5,88,
scooby_state_409224|3|1 87,0,0,0,0,0,0,0,0,0,0,0,0,0,0,87,
scooby_state_4094dd|54|0 60,4,2,2,1,3,1,3,2,0,3,4,1,0,1,87,
scooby_state_409270|29|-2 77,7,0,0,0,0,1,1,0,1,0,0,0,0,0,87,
scooby_state_409270|30|-2 75,8,0,0,1,0,0,0,0,0,1,0,0,0,1,86,
scooby_state_409270|20|-2 69,9,0,0,0,1,2,0,0,0,1,0,1,2,1,86,
scooby_state_4094dd|53|0 63,1,3,1,1,2,2,5,3,0,1,1,1,0,2,86,
scooby_state_4094dd|45|0 65,3,3,2,1,3,0,2,1,1,0,2,0,0,2,85,
scooby_state_409270|60|-1 79,1,0,0,0,0,0,0,0,1,1,0,1,1,1,85,
scooby_state_4094dd|56|0 56,3,1,2,3,1,1,4,2,0,2,2,0,1,7,85,
scooby_state_409270|47|-2 74,5,0,1,0,0,1,1,0,0,0,2,0,0,1,85,
scooby_state_409270|9|-2 75,8,0,0,0,0,0,0,0,0,0,0,0,0,2,85,
scooby_state_4094dd|47|0 55,2,3,4,2,3,0,3,2,0,3,3,3,2,0,85,
scooby_state_4094dd|41|0 63,1,2,0,0,1,2,2,1,4,1,4,1,2,1,85,
scooby_state_4094dd|24|0 56,4,3,0,0,5,2,0,2,3,1,1,2,2,4,85,
scooby_state_4094dd|25|0 54,2,2,3,0,1,2,2,2,3,1,2,4,2,4,84,
scooby_state_4090c3|38|33 77,0,0,0,1,0,1,0,1,1,0,1,1,0,1,84,
scooby_state_409270|49|-1 76,0,1,0,1,1,1,0,0,1,0,1,0,0,1,83,
scooby_state_4094dd|26|0 46,2,4,4,3,1,2,1,1,2,2,3,2,2,8,83,
scooby_state_4094dd|57|0 63,1,3,1,2,0,2,2,1,1,1,1,2,2,1,83,
scooby_state_4090c3|56|33 73,1,0,2,0,0,1,2,0,1,1,0,1,0,1,83,
scooby_state_4094dd|8|0 56,2,5,2,3,1,1,3,2,1,1,0,1,3,2,83,
scooby_state_409270|58|-2 75,5,0,0,0,0,0,0,0,0,0,0,1,0,1,82,
scooby_state_409270|55|-2 75,4,0,0,0,0,0,0,0,0,1,1,0,0,1,82,
scooby_state_409270|49|-2 72,6,0,0,1,2,0,0,0,1,0,0,0,0,0,82,
scooby_state_409270|27|-2 74,5,1,0,1,0,1,0,0,0,0,0,0,0,0,82,
scooby_state_409270|43|-2 77,4,1,0,0,0,0,0,0,0,0,0,0,0,0,82,
scooby_state_4094dd|1|0 59,1,1,1,2,0,3,0,1,2,1,1,1,4,5,82,
scooby_state_4094dd|22|0 60,1,2,1,0,3,1,0,0,2,1,2,2,4,3,82,
scooby_state_4094dd|63|0 56,1,3,1,1,2,0,5,2,1,0,4,4,1,1,82,
scooby_state_4094dd|23|0 66,2,0,1,0,2,2,2,2,2,0,1,0,0,2,82,
scooby_state_409224|18|2 59,0,1,3,1,0,1,0,1,0,2,6,5,1,1,81,
scooby_state_409270|5|-1 75,0,0,0,2,0,1,0,0,0,0,0,1,0,2,81,
scooby_state_4094dd|55|0 55,2,2,0,2,3,0,3,1,4,0,3,2,2,2,81,
scooby_state_409270|15|-2 74,3,0,1,0,0,0,0,0,0,0,2,0,0,1,81,
scooby_state_4094dd|34|0 57,0,4,1,2,6,2,1,0,0,2,3,1,0,1,80,
scooby_state_409270|56|-2 71,5,0,0,0,0,0,0,1,0,0,1,1,0,1,80,
scooby_state_409270|31|-2 70,4,2,0,1,1,0,0,1,0,0,1,0,0,0,80,
scooby_state_409270|53|-2 69,1,1,1,1,0,1,1,0,1,1,1,1,0,1,80,
scooby_state_409270|13|-2 71,5,1,0,0,0,0,1,0,0,2,0,0,0,0,80,
scooby_state_409270|62|-1 72,0,0,0,0,4,0,1,0,0,0,0,1,1,0,79,
scooby_state_4094dd|15|0 59,2,3,1,0,1,0,1,2,0,1,3,2,1,3,79,
scooby_state_409224|4|1 79,0,0,0,0,0,0,0,0,0,0,0,0,0,0,79,
scooby_state_409270|11|-1 75,1,0,0,0,0,0,1,0,0,0,0,1,0,1,79,
scooby_state_409270|52|-2 72,2,1,0,0,0,0,2,1,0,0,0,0,0,1,79,
scooby_state_409270|25|-2 68,5,0,0,1,0,2,0,0,0,0,1,1,0,0,78,
scooby_state_4090c3|39|33 69,0,1,1,2,2,0,1,0,1,0,0,0,1,0,78,
scooby_state_4090c3|60|33 67,1,1,0,0,2,0,1,0,1,0,2,0,1,2,78,
scooby_state_409270|15|-1 74,0,0,0,0,0,1,1,1,0,0,1,0,0,0,78,
scooby_state_4094dd|35|0 59,1,1,1,0,0,3,0,3,3,3,2,1,0,1,78,
scooby_state_409224|15|0 68,0,1,3,0,2,0,0,0,0,0,0,1,0,1,76,
scooby_state_4094dd|28|0 53,1,1,1,2,2,0,4,3,1,2,2,0,1,3,76,
scooby_state_409270|43|-1 71,2,0,0,0,0,1,0,0,1,0,0,1,0,0,76,
scooby_state_4094dd|27|0 49,0,4,1,3,2,3,3,3,0,1,1,0,3,3,76,
scooby_state_4090c3|41|33 62,1,0,1,0,2,1,2,2,1,1,0,1,1,1,76,
scooby_state_409270|42|-1 68,0,1,1,0,0,0,0,0,0,1,2,0,0,2,75,
scooby_state_4094dd|4|0 49,3,3,0,3,2,1,0,3,1,1,2,1,5,1,75,
scooby_state_409270|46|2 63,0,0,0,1,1,0,0,3,0,0,7,0,0,0,75,
scooby_state_4094dd|6|0 45,3,2,4,1,1,1,0,2,4,2,3,1,3,3,75,
scooby_state_4094dd|37|0 56,3,1,1,0,1,2,3,1,1,1,0,1,0,4,75,
scooby_state_4094dd|12|0 43,0,3,1,3,2,3,3,1,2,2,4,4,1,2,74,
scooby_state_4094dd|5|0 48,1,1,1,2,4,2,1,2,3,0,1,1,2,5,74,
scooby_state_4094dd|36|0 52,2,2,1,2,5,1,2,2,0,1,0,1,2,1,74,
scooby_state_409270|7|-33 55,1,2,1,3,1,2,0,1,0,4,1,0,1,2,74,
scooby_state_4090c3|61|33 65,0,0,1,1,0,1,2,0,0,1,2,1,0,0,74,
scooby_state_4090c3|45|33 66,0,1,0,0,1,3,0,2,0,0,0,1,0,0,74,
scooby_state_409270|39|-1 70,0,0,0,0,0,0,0,2,0,0,0,0,0,1,73,
scooby_state_409270|13|-1 72,1,0,0,0,0,0,0,0,0,0,0,0,0,0,73,
scooby_state_409270|6|-1 67,1,1,1,0,0,2,0,0,0,0,0,0,0,1,73,
scooby_state_409270|63|35 64,0,0,1,2,1,0,0,0,0,1,1,0,1,2,73,
scooby_state_4094dd|50|0 49,0,3,3,1,1,1,0,1,0,3,1,1,1,8,73,
scooby_state_409270|52|-1 66,1,2,0,0,0,0,0,2,0,0,0,0,2,0,73,
scooby_state_409224|5|1 72,0,0,0,0,0,0,0,0,0,0,0,0,0,0,72,
scooby_state_4090c3|40|33 61,1,1,0,2,1,1,1,0,0,0,0,1,1,2,72,
scooby_state_4094dd|59|0 51,2,0,3,1,1,3,2,0,0,3,1,1,1,3,72,
scooby_state_409270|18|-1 69,0,0,0,1,0,0,0,0,0,0,0,1,0,1,72,
scooby_state_409270|5|-33 58,2,2,1,0,1,1,0,2,2,0,1,0,1,1,72,
scooby_state_409270|1|-1 64,2,0,0,1,0,0,0,1,0,0,3,0,0,1,72,
scooby_state_409270|28|-1 66,1,0,1,0,0,0,0,0,1,0,1,0,1,0,71,
scooby_state_409270|30|-1 65,0,1,0,1,0,1,1,0,0,0,2,0,0,0,71,
scooby_state_409224|20|2 58,0,0,2,1,0,0,0,0,1,0,2,3,1,3,71,
scooby_state_4090c3|42|33 66,0,0,0,1,0,0,0,0,0,2,1,0,0,1,71,
scooby_state_4090c3|55|33 67,1,0,1,0,0,0,0,0,0,0,0,0,1,0,70,
scooby_state_4090c3|37|33 63,1,0,1,0,1,1,0,1,1,0,0,0,1,0,70,
scooby_state_409270|47|-1 62,0,1,1,0,0,0,0,1,0,2,0,1,1,1,70,
scooby_state_409270|22|-2 61,5,0,0,1,0,0,0,1,0,0,1,0,0,0,69,
scooby_state_409270|51|-1 68,0,0,0,0,0,0,0,0,0,1,0,0,0,0,69,
scooby_state_409270|38|-1 65,0,0,1,1,1,0,1,0,0,0,0,0,0,0,69,
scooby_state_409270|26|-1 64,0,1,0,0,1,0,0,0,1,0,0,0,1,0,68,
scooby_state_409270|54|35 62,1,0,1,0,0,1,0,1,0,0,1,1,0,0,68,
scooby_state_409270|28|2 54,0,0,1,1,2,0,0,0,0,0,4,0,2,4,68,
scooby_state_409270|57|-1 65,1,0,0,0,0,0,0,1,0,0,0,0,0,0,67,
scooby_state_4094dd|38|0 48,2,0,3,1,2,0,0,0,1,3,1,2,0,4,67,
scooby_state_409270|46|-2 58,6,0,0,0,1,0,0,0,1,1,0,0,0,0,67,
scooby_state_409270|58|-1 65,0,0,0,0,0,0,0,0,0,1,0,0,0,0,66,
scooby_state_4090c3|53|33 59,0,0,1,1,0,0,1,0,1,0,1,1,0,1,66,
[...]
scooby_state_4090c3|3|-38 0,0,0,0,0,0,0,0,0,0,0,0,0,0,1,1,
scooby_state_409228|3|-10 1,0,0,0,0,0,0,0,0,0,0,0,0,0,0,1,
scooby_state_409270|41|-16 1,0,0,0,0,0,0,0,0,0,0,0,0,0,0,1,
scooby_state_4094e9|13|0 0,0,0,0,0,0,0,0,1,0,0,0,0,0,0,1,
scooby_state_409228|24|-1 0,0,0,0,0,0,1,0,0,0,0,0,0,0,0,1,
scooby_state_4090c3|25|-32 0,0,0,0,0,0,0,0,0,0,0,0,0,0,1,1,
scooby_state_4090c3|14|-13 0,0,0,0,0,0,0,0,0,0,0,0,0,1,0,1,
scooby_state_409228|52|23 0,1,0,0,0,0,0,0,0,0,0,0,0,0,0,1,
scooby_state_409228|13|-10 0,0,0,0,0,0,0,1,0,0,0,0,0,0,0,1,
scooby_state_4090c3|54|21 1,0,0,0,0,0,0,0,0,0,0,0,0,0,0,1,
scooby_state_4090c3|19|-1 1,0,0,0,0,0,0,0,0,0,0,0,0,0,0,1,
scooby_state_4090c3|30|18 1,0,0,0,0,0,0,0,0,0,0,0,0,0,0,1,
scooby_state_409270|8|-11 0,1,0,0,0,0,0,0,0,0,0,0,0,0,0,1,
scooby_state_409228|35|-8 1,0,0,0,0,0,0,0,0,0,0,0,0,0,0,1,
scooby_state_409228|13|3 1,0,0,0,0,0,0,0,0,0,0,0,0,0,0,1,
scooby_state_409228|2|-37 1,0,0,0,0,0,0,0,0,0,0,0,0,0,0,1,
scooby_state_4090c3|7|-37 0,0,0,0,0,1,0,0,0,0,0,0,0,0,0,1,
scooby_state_409270|28|-9 0,0,0,0,0,0,0,1,0,0,0,0,0,0,0,1,
scooby_state_401d36|52|0 1,0,0,0,0,0,0,0,0,0,0,0,0,0,0,1,
scooby_state_409228|47|30 0,0,1,0,0,0,0,0,0,0,0,0,0,0,0,1,
scooby_state_409228|28|-19 0,0,0,0,0,0,0,0,0,0,1,0,0,0,0,1,
scooby_state_409270|21|9 0,0,0,0,0,1,0,0,0,0,0,0,0,0,0,1,
scooby_state_439963|43|10 1,0,0,0,0,0,0,0,0,0,0,0,0,0,0,1,
scooby_state_409228|49|41 0,0,0,0,0,0,0,0,0,1,0,0,0,0,0,1,
scooby_state_4094d9|45|-3 1,0,0,0,0,0,0,0,0,0,0,0,0,0,0,1,
scooby_state_43a06c|28|0 0,1,0,0,0,0,0,0,0,0,0,0,0,0,0,1,
scooby_state_4094d9|3|-2 0,0,0,0,0,0,0,0,0,1,0,0,0,0,0,1,
scooby_state_409228|49|16 0,0,0,0,0,0,0,0,1,0,0,0,0,0,0,1,
scooby_state_401d36|2|0 0,0,0,0,0,0,1,0,0,0,0,0,0,0,0,1,
scooby_state_4090c3|10|-33 1,0,0,0,0,0,0,0,0,0,0,0,0,0,0,1,
scooby_state_409228|41|30 1,0,0,0,0,0,0,0,0,0,0,0,0,0,0,1,
scooby_state_409228|13|-47 0,0,0,0,0,0,1,0,0,0,0,0,0,0,0,1,
scooby_state_409224|16|4 0,0,0,0,0,0,0,0,0,0,1,0,0,0,0,1,
scooby_state_401d43|19|0 0,0,0,0,0,0,0,0,1,0,0,0,0,0,0,1,
scooby_state_4090c3|23|16 1,0,0,0,0,0,0,0,0,0,0,0,0,0,0,1,
scooby_state_409228|35|-7 0,0,0,0,0,1,0,0,0,0,0,0,0,0,0,1,
scooby_state_409228|34|17 0,0,0,0,0,0,0,0,0,1,0,0,0,0,0,1,
scooby_state_409228|54|4 0,0,0,0,0,0,0,0,0,1,0,0,0,0,0,1,
scooby_state_4094d9|16|-29 0,1,0,0,0,0,0,0,0,0,0,0,0,0,0,1,
scooby_state_409228|18|-5 0,0,0,0,0,0,0,0,0,0,0,0,0,1,0,1,
scooby_state_409228|13|-41 0,0,0,0,0,0,0,1,0,0,0,0,0,0,0,1,
scooby_state_4090c3|11|-21 1,0,0,0,0,0,0,0,0,0,0,0,0,0,0,1,
scooby_state_4094b5|30|-1 0,1,0,0,0,0,0,0,0,0,0,0,0,0,0,1,
scooby_state_409270|47|11 1,0,0,0,0,0,0,0,0,0,0,0,0,0,0,1,
scooby_state_409228|4|-7 0,0,0,0,0,0,0,1,0,0,0,0,0,0,0,1,
scooby_state_4094dd|58|-1 1,0,0,0,0,0,0,0,0,0,0,0,0,0,0,1,
scooby_state_4090c3|13|-3 1,0,0,0,0,0,0,0,0,0,0,0,0,0,0,1,
scooby_state_4090c3|53|-8 0,0,0,0,0,0,1,0,0,0,0,0,0,0,0,1,
scooby_state_409270|48|-8 0,0,0,0,0,0,0,0,0,0,0,0,0,1,0,1,
scooby_state_409270|28|12 0,0,0,0,0,0,0,0,0,0,0,1,0,0,0,1,
scooby_state_409228|29|20 0,0,0,0,0,0,0,0,0,0,1,0,0,0,0,1,
scooby_state_409228|62|51 0,1,0,0,0,0,0,0,0,0,0,0,0,0,0,1,
scooby_state_409228|29|14 0,1,0,0,0,0,0,0,0,0,0,0,0,0,0,1,
scooby_state_4090c3|3|-1 1,0,0,0,0,0,0,0,0,0,0,0,0,0,0,1,
scooby_state_409270|12|-12 1,0,0,0,0,0,0,0,0,0,0,0,0,0,0,1,
scooby_state_409228|6|3 1,0,0,0,0,0,0,0,0,0,0,0,0,0,0,1,
scooby_state_409228|4|-38 0,0,0,0,0,0,1,0,0,0,0,0,0,0,0,1,
scooby_state_4090c3|0|-46 0,0,0,0,0,0,0,0,0,0,1,0,0,0,0,1,
scooby_state_4090c3|12|-50 0,0,0,1,0,0,0,0,0,0,0,0,0,0,0,1,
scooby_state_4094d9|63|24 0,1,0,0,0,0,0,0,0,0,0,0,0,0,0,1,
scooby_state_4090c3|4|-59 0,0,0,0,0,0,0,0,0,1,0,0,0,0,0,1,
scooby_state_4090c3|38|-14 0,0,0,0,0,0,1,0,0,0,0,0,0,0,0,1,
scooby_state_43a146|5|1 0,0,1,0,0,0,0,0,0,0,0,0,0,0,0,1,
scooby_state_4090c3|5|-55 1,0,0,0,0,0,0,0,0,0,0,0,0,0,0,1,
scooby_state_409228|54|8 0,1,0,0,0,0,0,0,0,0,0,0,0,0,0,1,
scooby_state_409270|37|-12 0,0,0,0,0,0,0,1,0,0,0,0,0,0,0,1,
scooby_state_4090c3|10|-38 0,0,0,0,0,0,0,0,0,0,0,0,0,0,1,1,
scooby_state_4094d9|63|35 0,0,0,0,0,0,0,1,0,0,0,0,0,0,0,1,
scooby_state_4094dd|36|-7 0,0,0,0,0,0,0,0,0,0,0,0,0,0,1,1,
scooby_state_438615|24|-14 1,0,0,0,0,0,0,0,0,0,0,0,0,0,0,1,
scooby_state_4094a8|29|-34 0,0,0,0,0,0,0,1,0,0,0,0,0,0,0,1,
scooby_state_409228|50|9 0,0,0,0,0,0,0,0,1,0,0,0,0,0,0,1,
scooby_state_409228|2|-4 1,0,0,0,0,0,0,0,0,0,0,0,0,0,0,1,
scooby_state_4090c3|18|-24 0,0,0,1,0,0,0,0,0,0,0,0,0,0,0,1,
scooby_state_4090c3|42|37 0,0,0,0,0,0,0,0,0,0,0,0,0,1,0,1,
scooby_state_4094d9|34|-2 1,0,0,0,0,0,0,0,0,0,0,0,0,0,0,1,
scooby_state_409270|10|8 0,0,0,0,0,0,0,0,0,0,1,0,0,0,0,1,
scooby_state_4090c3|19|-43 0,0,0,0,0,0,0,0,0,0,1,0,0,0,0,1,
scooby_state_409228|13|-29 0,0,0,0,0,0,0,0,0,0,0,0,1,0,0,1,
scooby_state_4090c3|11|-25 0,0,0,0,0,0,0,0,0,1,0,0,0,0,0,1,
scooby_state_4094a8|39|34 0,0,0,0,0,0,0,1,0,0,0,0,0,0,0,1,
scooby_state_4090c3|55|31 1,0,0,0,0,0,0,0,0,0,0,0,0,0,0,1,
scooby_state_4090c3|35|20 0,0,0,0,0,0,0,1,0,0,0,0,0,0,0,1,
scooby_state_409228|14|-14 0,0,0,0,0,0,0,0,0,0,1,0,0,0,0,1,
scooby_state_4090c3|55|17 0,0,0,0,0,0,0,0,0,1,0,0,0,0,0,1,
scooby_state_4090c3|59|27 0,0,0,0,0,0,0,0,0,0,0,0,1,0,0,1,
scooby_state_409228|43|-14 0,0,0,0,0,0,0,0,0,0,0,0,1,0,0,1,
scooby_state_409228|54|32 0,0,0,0,1,0,0,0,0,0,0,0,0,0,0,1,
scooby_state_401d36|32|0 0,0,0,0,0,0,0,0,0,0,0,0,1,0,0,1,
scooby_state_409228|17|4 0,0,0,0,0,0,0,0,0,1,0,0,0,0,0,1,
scooby_state_4090c3|45|-1 0,0,1,0,0,0,0,0,0,0,0,0,0,0,0,1,
scooby_state_4094dd|25|-14 0,0,0,0,0,0,0,0,0,0,0,1,0,0,0,1,
scooby_state_4090c3|57|49 1,0,0,0,0,0,0,0,0,0,0,0,0,0,0,1,
scooby_state_4094dd|56|25 1,0,0,0,0,0,0,0,0,0,0,0,0,0,0,1,
scooby_state_409228|2|-22 0,0,0,0,0,0,0,0,1,0,0,0,0,0,0,1,
scooby_state_4090c3|11|-40 1,0,0,0,0,0,0,0,0,0,0,0,0,0,0,1,
scooby_state_4090c3|42|-21 1,0,0,0,0,0,0,0,0,0,0,0,0,0,0,1,
scooby_state_409228|38|8 0,0,0,0,1,0,0,0,0,0,0,0,0,0,0,1,
scooby_state_409228|40|-15 0,1,0,0,0,0,0,0,0,0,0,0,0,0,0,1,
scooby_state_439fe1|1|0 1,0,0,0,0,0,0,0,0,0,0,0,0,0,0,1,
scooby_state_439f60|48|1 0,0,0,0,1,0,0,0,0,0,0,0,0,0,0,1,
scooby_state_409228|33|-10 0,1,0,0,0,0,0,0,0,0,0,0,0,0,0,1,
scooby_state_409228|35|14 0,0,0,0,0,0,0,1,0,0,0,0,0,0,0,1,
scooby_state_409583|22|1 1,0,0,0,0,0,0,0,0,0,0,0,0,0,0,1,
scooby_state_4090c3|21|-6 1,0,0,0,0,0,0,0,0,0,0,0,0,0,0,1,
scooby_state_4090c3|29|-6 0,0,0,0,0,0,0,0,0,0,0,0,0,1,0,1,
scooby_state_409228|50|-8 1,0,0,0,0,0,0,0,0,0,0,0,0,0,0,1,
scooby_state_4398c2|35|1 1,0,0,0,0,0,0,0,0,0,0,0,0,0,0,1,
scooby_state_4090c3|33|9 1,0,0,0,0,0,0,0,0,0,0,0,0,0,0,1,
scooby_state_409228|63|33 0,0,1,0,0,0,0,0,0,0,0,0,0,0,0,1,
scooby_state_439d50|48|1 1,0,0,0,0,0,0,0,0,0,0,0,0,0,0,1,
scooby_state_409228|32|5 1,0,0,0,0,0,0,0,0,0,0,0,0,0,0,1,
scooby_state_43853d|57|0 0,0,0,0,0,0,0,0,0,1,0,0,0,0,0,1,
scooby_state_4094d9|13|-7 1,0,0,0,0,0,0,0,0,0,0,0,0,0,0,1,
scooby_state_409228|59|47 0,0,0,0,0,0,0,0,0,0,0,0,1,0,0,1,
scooby_state_401d47|15|0 0,0,0,0,0,0,0,0,0,0,0,0,1,0,0,1,
scooby_state_409228|53|23 0,0,0,0,0,0,0,0,0,0,0,0,0,0,1,1,
scooby_state_401d3a|32|0 0,0,0,0,0,0,0,0,0,0,0,0,0,0,1,1,
scooby_state_409228|51|49 0,0,0,0,0,0,0,0,0,1,0,0,0,0,0,1,
scooby_state_4090c3|23|-40 0,0,0,0,0,0,0,0,0,0,0,0,1,0,0,1,
scooby_state_4385cb|51|1 0,0,0,0,1,0,0,0,0,0,0,0,0,0,0,1,
scooby_state_409228|63|60 0,0,0,0,0,0,0,0,0,0,1,0,0,0,0,1,
scooby_state_439a06|40|1 1,0,0,0,0,0,0,0,0,0,0,0,0,0,0,1,
scooby_state_4090c3|33|22 0,0,0,0,0,0,0,0,0,0,0,0,0,0,1,1,
scooby_state_439f49|56|2 1,0,0,0,0,0,0,0,0,0,0,0,0,0,0,1,
scooby_state_439975|23|0 0,1,0,0,0,0,0,0,0,0,0,0,0,0,0,1,
scooby_state_439af3|5|0 1,0,0,0,0,0,0,0,0,0,0,0,0,0,0,1,
scooby_state_4094d9|60|3 0,0,0,0,0,0,0,0,0,0,0,0,0,1,0,1,
scooby_state_439f49|53|-2 1,0,0,0,0,0,0,0,0,0,0,0,0,0,0,1,
scooby_state_439fa2|31|0 1,0,0,0,0,0,0,0,0,0,0,0,0,0,0,1,
scooby_state_4399a1|38|-25 1,0,0,0,0,0,0,0,0,0,0,0,0,0,0,1,
scooby_state_4094ed|22|-35 1,0,0,0,0,0,0,0,0,0,0,0,0,0,0,1,
scooby_state_409228|22|21 0,0,0,0,1,0,0,0,0,0,0,0,0,0,0,1,
scooby_state_4094d9|19|-33 0,0,0,0,0,1,0,0,0,0,0,0,0,0,0,1,
scooby_state_4090c3|42|-3 1,0,0,0,0,0,0,0,0,0,0,0,0,0,0,1,
scooby_state_4090c3|37|-8 0,0,0,0,0,0,0,0,0,0,0,1,0,0,0,1,
scooby_state_409228|4|-32 0,1,0,0,0,0,0,0,0,0,0,0,0,0,0,1,
scooby_state_439f7c|54|1 1,0,0,0,0,0,0,0,0,0,0,0,0,0,0,1,
scooby_state_4090c3|23|19 0,0,0,0,0,0,0,0,0,0,0,0,0,1,0,1,
scooby_state_401d36|17|0 0,0,0,0,0,0,0,0,0,0,0,0,0,1,0,1,
scooby_state_4094d9|58|4 0,0,0,0,0,0,0,0,0,0,1,0,0,0,0,1,
scooby_state_409228|33|13 0,0,0,0,0,1,0,0,0,0,0,0,0,0,0,1,
scooby_state_409228|45|20 0,0,0,0,1,0,0,0,0,0,0,0,0,0,0,1,
scooby_state_4090c3|29|26 0,0,0,0,0,0,0,0,0,0,0,1,0,0,0,1,
scooby_state_4090c3|52|10 1,0,0,0,0,0,0,0,0,0,0,0,0,0,0,1,
scooby_state_401d3a|13|0 0,0,0,0,0,0,0,0,0,0,0,1,0,0,0,1,
scooby_state_4090c3|3|-41 0,0,0,0,0,0,0,0,0,0,0,0,0,1,0,1,
scooby_state_409228|38|4 0,0,0,0,0,1,0,0,0,0,0,0,0,0,0,1,
scooby_state_439a86|42|1 1,0,0,0,0,0,0,0,0,0,0,0,0,0,0,1,
scooby_state_409228|35|-20 0,0,0,0,0,0,0,0,0,0,0,0,0,1,0,1,
scooby_state_4094d9|61|-1 0,0,0,0,0,0,0,0,0,0,0,0,0,1,0,1,
scooby_state_409270|38|12 0,0,0,0,0,0,0,0,0,0,0,0,1,0,0,1,
scooby_state_438938|36|11 0,1,0,0,0,0,0,0,0,0,0,0,0,0,0,1,
scooby_state_409228|49|-5 0,0,0,0,0,0,1,0,0,0,0,0,0,0,0,1,
scooby_state_4090c3|61|27 0,0,0,0,0,0,0,0,0,0,0,1,0,0,0,1,
scooby_state_409228|53|6 0,0,0,0,0,0,0,1,0,0,0,0,0,0,0,1,
scooby_state_4090c3|17|-40 1,0,0,0,0,0,0,0,0,0,0,0,0,0,0,1,
scooby_state_401d47|53|0 0,0,0,1,0,0,0,0,0,0,0,0,0,0,0,1,
scooby_state_4090c3|21|-37 0,0,0,0,0,0,0,0,1,0,0,0,0,0,0,1,
scooby_state_4090c3|49|32 0,0,0,0,0,0,0,1,0,0,0,0,0,0,0,1,
scooby_state_4090c3|21|-15 0,0,0,1,0,0,0,0,0,0,0,0,0,0,0,1,
scooby_state_4090c3|26|9 1,0,0,0,0,0,0,0,0,0,0,0,0,0,0,1,
scooby_state_409228|2|-44 1,0,0,0,0,0,0,0,0,0,0,0,0,0,0,1,
scooby_state_43c059|61|0 0,0,0,0,0,0,0,1,0,0,0,0,0,0,0,1,
scooby_state_4094dd|3|-8 0,0,0,0,0,0,0,0,0,0,1,0,0,0,0,1,
scooby_state_4385cb|21|0 0,0,0,0,0,0,0,0,0,0,0,0,0,0,1,1,
scooby_state_401d3a|17|0 0,0,0,0,0,1,0,0,0,0,0,0,0,0,0,1,
scooby_state_401d36|58|0 0,0,0,0,0,1,0,0,0,0,0,0,0,0,0,1,
scooby_state_401d3a|43|0 0,0,0,0,0,1,0,0,0,0,0,0,0,0,0,1,
scooby_state_401d43|14|0 0,0,0,0,0,0,0,1,0,0,0,0,0,0,0,1,
scooby_state_405828|0|-11 0,1,0,0,0,0,0,0,0,0,0,0,0,0,0,1,
scooby_state_409224|35|0 1,0,0,0,0,0,0,0,0,0,0,0,0,0,0,1,
scooby_state_4090c3|45|30 0,1,0,0,0,0,0,0,0,0,0,0,0,0,0,1,
scooby_state_409228|43|-7 0,0,0,0,0,0,0,0,1,0,0,0,0,0,0,1,
scooby_state_4090c3|2|-45 1,0,0,0,0,0,0,0,0,0,0,0,0,0,0,1,
scooby_state_4090c3|29|28 0,0,0,0,0,0,0,0,0,0,1,0,0,0,0,1,
scooby_state_43a0ca|20|5 1,0,0,0,0,0,0,0,0,0,0,0,0,0,0,1,
scooby_state_409228|37|-7 0,0,0,0,1,0,0,0,0,0,0,0,0,0,0,1,
scooby_state_439af3|33|0 1,0,0,0,0,0,0,0,0,0,0,0,0,0,0,1,
scooby_state_439f66|20|1 0,0,0,0,0,0,0,1,0,0,0,0,0,0,0,1,
scooby_state_409228|24|-12 0,0,0,0,0,0,0,0,0,0,0,0,0,1,0,1,
scooby_state_439b78|1|0 0,0,0,0,0,0,1,0,0,0,0,0,0,0,0,1,
scooby_state_409270|33|-6 0,0,0,0,0,0,0,1,0,0,0,0,0,0,0,1,
scooby_state_409228|7|-14 0,0,1,0,0,0,0,0,0,0,0,0,0,0,0,1,
scooby_state_4090c3|37|-14 0,0,0,0,0,0,0,0,0,0,1,0,0,0,0,1,
scooby_state_439963|40|5 0,0,0,0,0,0,0,0,0,0,0,0,0,0,1,1,
scooby_state_438880|34|1 0,1,0,0,0,0,0,0,0,0,0,0,0,0,0,1,
scooby_state_43b9c9|33|-7 1,0,0,0,0,0,0,0,0,0,0,0,0,0,0,1,
scooby_state_4094dd|31|-15 0,0,0,0,0,0,0,0,0,0,0,1,0,0,0,1,
scooby_state_439fa2|30|0 1,0,0,0,0,0,0,0,0,0,0,0,0,0,0,1,
scooby_state_409228|34|26 0,0,0,0,0,0,0,0,1,0,0,0,0,0,0,1,
scooby_state_409228|44|24 0,0,0,0,0,0,0,0,0,0,0,0,0,1,0,1,
scooby_state_4090c3|20|-33 0,0,0,0,0,0,0,0,1,0,0,0,0,0,0,1,
scooby_state_439ecc|59|9 0,0,0,0,1,0,0,0,0,0,0,0,0,0,0,1,
scooby_state_439f6b|19|0 0,1,0,0,0,0,0,0,0,0,0,0,0,0,0,1,
scooby_state_409228|20|-17 0,0,0,0,0,0,0,0,0,0,0,0,0,0,1,1,
scooby_state_409270|60|8 1,0,0,0,0,0,0,0,0,0,0,0,0,0,0,1,
scooby_state_409228|53|12 0,0,0,0,0,0,0,1,0,0,0,0,0,0,0,1,
scooby_state_409224|36|22 1,0,0,0,0,0,0,0,0,0,0,0,0,0,0,1,
scooby_state_4090c3|1|-41 0,0,0,0,0,0,0,0,0,0,0,0,1,0,0,1,
scooby_state_4094d9|62|15 1,0,0,0,0,0,0,0,0,0,0,0,0,0,0,1,
scooby_state_409270|58|56 0,0,0,0,0,0,0,0,0,1,0,0,0,0,0,1,
scooby_state_4094dd|59|1 0,1,0,0,0,0,0,0,0,0,0,0,0,0,0,1,
scooby_state_4090c3|33|24 0,0,0,0,0,0,0,0,0,1,0,0,0,0,0,1,
scooby_state_409228|33|32 0,0,0,0,0,0,0,0,0,1,0,0,0,0,0,1,
scooby_state_4094d9|58|57 0,0,0,0,1,0,0,0,0,0,0,0,0,0,0,1,
scooby_state_409228|18|-24 1,0,0,0,0,0,0,0,0,0,0,0,0,0,0,1,
scooby_state_409228|63|9 0,0,0,0,0,0,0,1,0,0,0,0,0,0,0,1,
scooby_state_4094d9|20|-2 0,1,0,0,0,0,0,0,0,0,0,0,0,0,0,1,
scooby_state_4090c3|48|29 0,0,0,0,0,0,0,1,0,0,0,0,0,0,0,1,
scooby_state_4090c3|0|-40 1,0,0,0,0,0,0,0,0,0,0,0,0,0,0,1,
scooby_state_401d3a|50|0 0,0,0,0,0,0,0,0,0,0,0,0,1,0,0,1,
scooby_state_401d47|29|0 0,0,0,0,0,0,0,0,0,0,0,0,1,0,0,1,
scooby_state_401d47|45|0 0,0,0,0,0,0,0,0,0,0,0,0,1,0,0,1,
scooby_state_4094d9|37|-2 1,0,0,0,0,0,0,0,0,0,0,0,0,0,0,1,
scooby_state_409228|13|7 0,0,0,0,0,0,0,0,0,1,0,0,0,0,0,1,

scooby_action_0_deg_dist 0,8045,0,0,0,0,0,0,0,0,0,0,0,0,0,0,
scooby_action_-6_deg_dist 0,3466,4,0,0,0,0,0,0,0,0,0,0,0,0,0,
scooby_action_4_deg_dist 0,3548,4,0,2,0,0,0,0,0,0,0,0,0,0,0,
scooby_action_1_deg_dist 0,2124000,15850,0,11511,0,42594,0,0,0,0,0,0,0,0,0,
scooby_action_30_deg_dist 0,3161,2,0,0,0,0,0,0,0,0,0,0,0,0,0,
scooby_action_5_deg_dist 0,3639,6,0,6,0,5,0,0,0,0,0,0,0,0,0,
scooby_action_10_deg_dist 0,3424,1,0,0,0,0,0,0,0,0,0,0,0,0,0,
scooby_action_3_deg_dist 0,12892,5536,0,13820,0,148133,0,0,0,0,0,0,0,0,0,
scooby_action_32_deg_dist 0,3091,3,0,0,0,0,0,0,0,0,0,0,0,0,0,
scooby_action_11_deg_dist 0,3355,1,0,0,0,0,0,0,0,0,0,0,0,0,0,
scooby_action_12_deg_dist 0,3305,2,0,2,0,0,0,0,0,0,0,0,0,0,0,
scooby_action_22_deg_dist 0,3289,2,0,0,0,0,0,0,0,0,0,0,0,0,0,
scooby_action_23_deg_dist 0,3085,2,0,0,0,0,0,0,0,0,0,0,0,0,0,
scooby_action_-1_deg_dist 0,4649,0,0,0,0,0,0,0,0,0,0,0,0,0,0,
scooby_action_-3_deg_dist 0,3732,0,0,0,0,0,0,0,0,0,0,0,0,0,0,

scooby_track_called 2424167
scooby_track_same_address 5800
scooby_track_evict 2418111

scooby_reward_demand_called 2424167
scooby_reward_demand_pt_not_found 1929872
scooby_reward_demand_pt_found 494295
scooby_reward_demand_pt_found_total 494295
scooby_reward_demand_has_reward 19
scooby_reward_train_called 1875323
scooby_reward_assign_reward_called 2418157
scooby_reward_no_pref 8045
scooby_reward_incorrect 1867278
scooby_reward_correct_untimely 375217
scooby_reward_correct_timely 119059
scooby_reward_out_of_bounds 48558
scooby_reward_tracker_hit 0

scooby_reward_none_low_bw 8045
scooby_reward_none_high_bw 0
scooby_reward_incorrect_low_bw 1867278
scooby_reward_incorrect_high_bw 0
scooby_reward_correct_untimely_low_bw 375217
scooby_reward_correct_untimely_high_bw 0
scooby_reward_correct_timely_low_bw 119059
scooby_reward_correct_timely_high_bw 0
scooby_reward_out_of_bounds_low_bw 48558
scooby_reward_out_of_bounds_high_bw 0
scooby_reward_tracker_hit_low_bw 0
scooby_reward_tracker_hit_high_bw 0

scooby_reward_1 0,1832586,222984,103176,32556,0,
scooby_reward_3 0,3785,151856,15635,8367,0,
scooby_reward_4 0,3066,47,19,234,0,
scooby_reward_5 0,3050,82,19,270,0,
scooby_reward_10 0,2687,17,9,504,0,
scooby_reward_11 0,2602,13,2,591,0,
scooby_reward_12 0,2599,16,9,588,0,
scooby_reward_22 0,2055,4,18,1081,0,
scooby_reward_23 0,1951,2,22,1073,0,
scooby_reward_30 0,1583,0,25,1360,0,
scooby_reward_32 0,1497,2,10,1420,0,
scooby_reward_-1 0,3546,188,80,57,0,
scooby_reward_-3 0,3260,3,24,149,0,
scooby_reward_-6 0,3011,3,11,308,0,
scooby_reward_0 8045,0,0,0,0,0,

scooby_train_called 2418110
scooby_train_compute_reward 1875323

scooby_register_fill_called 1397509
scooby_register_fill_set 1231081
scooby_register_fill_set_total 1231081

scooby_register_prefetch_hit_called 1773649
scooby_register_prefetch_hit_set 1070838
scooby_register_prefetch_hit_set_total 1070838

scooby_pref_issue_scooby 3244727

learning_engine_featurewise.action.called 2424167
learning_engine_featurewise.action.explore 4429
learning_engine_featurewise.action.exploit 2419738
learning_engine_featurewise.action.fallback 2123011
learning_engine_featurewise.action.dyn_fallback_saved_bw 0
learning_engine_featurewise.action.dyn_fallback_saved_bw_acc 16785
learning_engine_featurewise.action.index_1_explored 288
learning_engine_featurewise.action.index_1_exploited 2193667
learning_engine_featurewise.action.index_3_explored 305
learning_engine_featurewise.action.index_3_exploited 180076
learning_engine_featurewise.action.index_4_explored 311
learning_engine_featurewise.action.index_4_exploited 3243
learning_engine_featurewise.action.index_5_explored 270
learning_engine_featurewise.action.index_5_exploited 3386
learning_engine_featurewise.action.index_10_explored 330
learning_engine_featurewise.action.index_10_exploited 3095
learning_engine_featurewise.action.index_11_explored 302
learning_engine_featurewise.action.index_11_exploited 3054
learning_engine_featurewise.action.index_12_explored 296
learning_engine_featurewise.action.index_12_exploited 3013
learning_engine_featurewise.action.index_22_explored 296
learning_engine_featurewise.action.index_22_exploited 2995
learning_engine_featurewise.action.index_23_explored 291
learning_engine_featurewise.action.index_23_exploited 2796
learning_engine_featurewise.action.index_30_explored 294
learning_engine_featurewise.action.index_30_exploited 2869
learning_engine_featurewise.action.index_32_explored 254
learning_engine_featurewise.action.index_32_exploited 2840
learning_engine_featurewise.action.index_-1_explored 302
learning_engine_featurewise.action.index_-1_exploited 4347
learning_engine_featurewise.action.index_-3_explored 302
learning_engine_featurewise.action.index_-3_exploited 3430
learning_engine_featurewise.action.index_-6_explored 278
learning_engine_featurewise.action.index_-6_exploited 3192
learning_engine_featurewise.action.index_0_explored 310
learning_engine_featurewise.action.index_0_exploited 7735
learning_engine_featurewise.learn.called 2418110
learning_engine_featurewise.learn.su_skip_PC 0
learning_engine_featurewise.learn.su_skip_PC_Delta 0

learning_engine_featurewise.q_value_histogram.bucket_0 7293
learning_engine_featurewise.q_value_histogram.bucket_1 502
learning_engine_featurewise.q_value_histogram.bucket_2 2147084
learning_engine_featurewise.q_value_histogram.bucket_3 17354
learning_engine_featurewise.q_value_histogram.bucket_4 14051
learning_engine_featurewise.q_value_histogram.bucket_5 57460
learning_engine_featurewise.q_value_histogram.bucket_6 175994
learning_engine_featurewise.q_value_histogram.bucket_7 0

learning_engine_featurewise.consensus.total 2419738
learning_engine_featurewise.consensus.feature_align_PC 2376261
learning_engine_featurewise.consensus.feature_align_PC_ratio 0.98
learning_engine_featurewise.consensus.feature_align_PC_Delta 2405639
learning_engine_featurewise.consensus.feature_align_PC_Delta_ratio 0.99
learning_engine_featurewise.consensus.feature_align_all 2369926
learning_engine_featurewise.consensus.feature_align_all_ratio 0.98

learning_engine_featurewise.feature_PC_min_weight 1000000.00000000
learning_engine_featurewise.feature_PC_max_weight 0.00000000
learning_engine_featurewise.feature_PC_Delta_min_weight 1000000.00000000
learning_engine_featurewise.feature_PC_Delta_max_weight 0.00000000
unique_pcs 148
unique_pages 29863
unique_trigger_pcs 73
total_bitmaps_seen 0
unique_bitmaps_seen 0

scooby_bw_epochs 1573232
scooby_bw_level_0 1374825
scooby_bw_level_1 132418
scooby_bw_level_2 48516
scooby_bw_level_3 17473

scooby_ipc_epochs 0
scooby_ipc_level_0 0
scooby_ipc_level_1 0
scooby_ipc_level_2 0
scooby_ipc_level_3 0

scooby_cache_acc_epochs 296322
scooby_cache_acc_level_0 38926
scooby_cache_acc_level_1 67745
scooby_cache_acc_level_2 76829
scooby_cache_acc_level_3 56578
scooby_cache_acc_level_4 27136
scooby_cache_acc_level_5 11472
scooby_cache_acc_level_6 5314
scooby_cache_acc_level_7 2205
scooby_cache_acc_level_8 1498
scooby_cache_acc_level_9 8619

Channel_0_RQ_row_buffer_hit 148437
Channel_0_RQ_row_buffer_miss 2474384
Channel_0_WQ_row_buffer_hit 179354
Channel_0_WQ_row_buffer_miss 1145203
Channel_0_WQ_full 458
Channel_0_dbus_congested 1653712

avg_congested_cycle 8

DRAM_bw_pochs 1573232
DRAM_bw_level_0 1374825
DRAM_bw_level_1 132418
DRAM_bw_level_2 48516
DRAM_bw_level_3 17473
