*************************************************
   ChampSim Multicore Out-of-Order Simulator
   Last compiled: Apr  3 2025 20:54:34
*************************************************
parsing config file: /home/zir/Pythia/config/pythia.ini

trace_0 /home/zir/ChampSim/ML-DPC/ChampSimTraces/spec06/459.GemsFDTD-s0.trace.gz
adding L2C_PREFETCHER: Scooby
Initialize SHIP state
warmup_instructions 10000000
simulation_instructions 50000000
champsim_seed 163
measure_ipc 0
measure_ipc_epoch 1000
measure_dram_bw 1
measure_dram_bw_epoch 256
measure_cache_acc 1
measure_cache_acc_epoch 1024
l1d_perfect 0
l2c_perfect 0
llc_perfect 0
l1d_semi_perfect 0
l2c_semi_perfect 0
llc_semi_perfect 0
semi_perfect_cache_page_buffer_size 64

num_cpus 1
cpu_freq 4000
dram_io_freq 2400
page_size 4096
block_size 64
max_read_per_cycle 8
max_fill_per_cycle 1
dram_channels 1
log2_dram_channels 0
dram_ranks 1
dram_banks 8
dram_rows 65536
dram_columns 128
dram_row_size 8
dram_size 4096
dram_pages 1048576

fetch_width 6
decode_width 6
exec_width 4
lq_width 2
sq_width 2
retire_width 4
scheduler_size 128
branch_mispredict_penalty 20
rob_size 256
lq_size 72
sq_size 56
num_instr_destinations_sparc 4
num_instr_destinations 2
num_instr_sources 4

itlb_set 16
itlb_way 8
itlb_rq_size 16
itlb_wq_size 16
itlb_pq_size 0
itlb_mshr_size 8
itlb_latency 1

dtlb_set 16
dtlb_way 4
dtlb_rq_size 16
dtlb_wq_size 16
dtlb_pq_size 0
dtlb_mshr_size 8
dtlb_latency 1

stlb_set 128
stlb_way 12
stlb_rq_size 32
stlb_wq_size 32
stlb_pq_size 0
stlb_mshr_size 16
stlb_latency 8

l1i_size 32
l1i_set 64
l1i_way 8
l1i_rq_size 64
l1i_wq_size 64
l1i_pq_size 8
l1i_mshr_size 8
l1i_latency 1

l1d_size 32
l1d_set 64
l1d_way 8
l1d_rq_size 64
l1d_wq_size 64
l1d_pq_size 8
l1d_mshr_size 16
l1d_latency 4

l2c_size 256
l2c_set 512
l2c_way 8
l2c_rq_size 32
l2c_wq_size 32
l2c_pq_size 32
l2c_mshr_size 32
l2c_latency 10

llc_size 2048
llc_set 2048
llc_way 16
llc_rq_size 32
llc_wq_size 32
llc_pq_size 32
llc_mshr_size 64
llc_latency 20

dram_channel_width 8
dram_wq_size 64
dram_rq_size 64
tRP 15
tRCD 15
tCAS 12.5
dram_dbus_turn_around_time 30
dram_write_high_wm 56
dram_write_low_wm 48
min_dram_writes_per_switch 16
dram_mtps 2400
dram_dbus_return_time 13

scooby_alpha 0.0065088
scooby_gamma 0.556301
scooby_epsilon 0.00182284
scooby_state_num_bits 10
scooby_max_states 1024
scooby_seed 200
scooby_policy EGreedy
scooby_learning_type SARSA
scooby_actions 1,3,4,5,10,11,12,22,23,30,32,-1,-3,-6,0,
scooby_max_actions 15
scooby_pt_size 256
scooby_st_size 64
scooby_max_pcs 5
scooby_max_offsets 5
scooby_max_deltas 5
scooby_reward_none -4
scooby_reward_incorrect -8
scooby_reward_correct_untimely 12
scooby_reward_correct_timely 20
scooby_brain_zero_init 0
scooby_enable_reward_all 0
scooby_enable_track_multiple 0
scooby_enable_reward_out_of_bounds 1
scooby_reward_out_of_bounds -12
scooby_state_type 1
scooby_state_hash_type 11
scooby_access_debug 0
scooby_print_access_debug 0
scooby_print_access_debug_pc deadbeef
scooby_print_access_debug_pc_count 0
scooby_print_trace 0
scooby_enable_state_action_stats 1
scooby_enable_reward_tracker_hit 0
scooby_reward_tracker_hit -2
scooby_enable_featurewise_engine 1
scooby_pref_degree 1
scooby_enable_dyn_degree 1
scooby_max_to_avg_q_thresholds 0.5,1,2,
scooby_dyn_degrees 1,2,4,4,
scooby_multi_deg_select_type 2
scooby_last_pref_offset_conf_thresholds 1,3,8,
scooby_dyn_degrees_type2 1,2,4,6,
scooby_action_tracker_size 2
scooby_high_bw_thresh 4
scooby_enable_hbw_reward 1
scooby_reward_hbw_correct_timely 20
scooby_reward_hbw_correct_untimely 12
scooby_reward_hbw_incorrect -14
scooby_reward_hbw_none -2
scooby_reward_hbw_out_of_bounds -12
scooby_reward_hbw_tracker_hit -2
scooby_last_pref_offset_conf_thresholds_hbw 1,3,8,
scooby_dyn_degrees_type2_hbw 1,2,4,6,

le_enable_trace 0
le_trace_interval 0
le_trace_file_name 
le_trace_state 0
le_enable_score_plot 0
le_plot_file_name 
le_plot_actions 
le_enable_action_trace 0
le_action_trace_interval 0
le_action_trace_name 
le_enable_action_plot 0

le_featurewise_active_features PC, PC_Delta
le_featurewise_num_tilings 3,3,
le_featurewise_num_tiles 128,128,
le_featurewise_hash_types 2,2,
le_featurewise_enable_tiling_offset 1,1,
le_featurewise_max_q_thresh 0.5
le_featurewise_enable_action_fallback 1
le_featurewise_feature_weights 1,1,
le_featurewise_enable_dynamic_weight 0
le_featurewise_weight_gradient 0.001
le_featurewise_disable_adjust_weight_all_features_align 1
le_featurewise_selective_update 0
le_featurewise_pooling_type 2
le_featurewise_enable_dyn_action_fallback 1
le_featurewise_bw_acc_check_level 1
le_featurewise_acc_thresh 2
le_featurewise_enable_trace 0
le_featurewise_trace_feature_type 0
le_featurewise_trace_feature 
le_featurewise_trace_interval 0
le_featurewise_trace_record_count 0
le_featurewise_trace_file_name 
le_featurewise_enable_score_plot 0
le_featurewise_plot_actions 
le_featurewise_plot_file_name 


Heartbeat CPU  0 instructions:    1000002 cycles:     546292 heartbeat IPC: 1.83053 cumulative IPC: 1.83053 (Simulation time: 0 hr 0 min 2 sec) 
Heartbeat CPU  0 instructions:    2000000 cycles:    1092363 heartbeat IPC: 1.83126 cumulative IPC: 1.83089 (Simulation time: 0 hr 0 min 5 sec) 
Heartbeat CPU  0 instructions:    3000002 cycles:    1638650 heartbeat IPC: 1.83054 cumulative IPC: 1.83078 (Simulation time: 0 hr 0 min 7 sec) 
Heartbeat CPU  0 instructions:    4000000 cycles:    2184783 heartbeat IPC: 1.83105 cumulative IPC: 1.83085 (Simulation time: 0 hr 0 min 10 sec) 
Heartbeat CPU  0 instructions:    5000003 cycles:    2731078 heartbeat IPC: 1.83052 cumulative IPC: 1.83078 (Simulation time: 0 hr 0 min 12 sec) 
Heartbeat CPU  0 instructions:    6000001 cycles:    3277265 heartbeat IPC: 1.83087 cumulative IPC: 1.83080 (Simulation time: 0 hr 0 min 15 sec) 
Heartbeat CPU  0 instructions:    7000000 cycles:    3823476 heartbeat IPC: 1.83079 cumulative IPC: 1.83079 (Simulation time: 0 hr 0 min 17 sec) 
Heartbeat CPU  0 instructions:    8000000 cycles:    4369670 heartbeat IPC: 1.83085 cumulative IPC: 1.83080 (Simulation time: 0 hr 0 min 20 sec) 
Heartbeat CPU  0 instructions:    9000002 cycles:    4915996 heartbeat IPC: 1.83041 cumulative IPC: 1.83076 (Simulation time: 0 hr 0 min 22 sec) 
Heartbeat CPU  0 instructions:   10000000 cycles:    5462249 heartbeat IPC: 1.83065 cumulative IPC: 1.83075 (Simulation time: 0 hr 0 min 25 sec) 

Warmup complete CPU  0 instructions:   10000004 cycles:    5462250 (Simulation time: 0 hr 0 min 25 sec) 

Heartbeat CPU  0 instructions:   11000003 cycles:    6613896 heartbeat IPC: 0.86832 cumulative IPC: 0.86832 (Simulation time: 0 hr 0 min 28 sec) 
Heartbeat CPU  0 instructions:   12000000 cycles:    7766095 heartbeat IPC: 0.86790 cumulative IPC: 0.86811 (Simulation time: 0 hr 0 min 30 sec) 
Heartbeat CPU  0 instructions:   13000000 cycles:    8928966 heartbeat IPC: 0.85994 cumulative IPC: 0.86537 (Simulation time: 0 hr 0 min 33 sec) 
Heartbeat CPU  0 instructions:   14000001 cycles:   10077466 heartbeat IPC: 0.87070 cumulative IPC: 0.86670 (Simulation time: 0 hr 0 min 36 sec) 
Heartbeat CPU  0 instructions:   15000002 cycles:   11245431 heartbeat IPC: 0.85619 cumulative IPC: 0.86458 (Simulation time: 0 hr 0 min 39 sec) 
Heartbeat CPU  0 instructions:   16000000 cycles:   12399774 heartbeat IPC: 0.86629 cumulative IPC: 0.86486 (Simulation time: 0 hr 0 min 42 sec) 
Heartbeat CPU  0 instructions:   17000002 cycles:   13547897 heartbeat IPC: 0.87099 cumulative IPC: 0.86573 (Simulation time: 0 hr 0 min 45 sec) 
Heartbeat CPU  0 instructions:   18000001 cycles:   14712927 heartbeat IPC: 0.85835 cumulative IPC: 0.86480 (Simulation time: 0 hr 0 min 48 sec) 
Heartbeat CPU  0 instructions:   19000002 cycles:   15846658 heartbeat IPC: 0.88204 cumulative IPC: 0.86668 (Simulation time: 0 hr 0 min 51 sec) 
Heartbeat CPU  0 instructions:   20000000 cycles:   17471439 heartbeat IPC: 0.61547 cumulative IPC: 0.83270 (Simulation time: 0 hr 0 min 54 sec) 
Heartbeat CPU  0 instructions:   21000001 cycles:   18746721 heartbeat IPC: 0.78414 cumulative IPC: 0.82803 (Simulation time: 0 hr 0 min 56 sec) 
Heartbeat CPU  0 instructions:   22000001 cycles:   22631362 heartbeat IPC: 0.25742 cumulative IPC: 0.69893 (Simulation time: 0 hr 0 min 59 sec) 
Heartbeat CPU  0 instructions:   23000001 cycles:   23898362 heartbeat IPC: 0.78927 cumulative IPC: 0.70514 (Simulation time: 0 hr 1 min 1 sec) 
Heartbeat CPU  0 instructions:   24000000 cycles:   27801536 heartbeat IPC: 0.25620 cumulative IPC: 0.62670 (Simulation time: 0 hr 1 min 4 sec) 
Heartbeat CPU  0 instructions:   25000003 cycles:   29050621 heartbeat IPC: 0.80059 cumulative IPC: 0.63591 (Simulation time: 0 hr 1 min 6 sec) 
Heartbeat CPU  0 instructions:   26000000 cycles:   32987266 heartbeat IPC: 0.25402 cumulative IPC: 0.58129 (Simulation time: 0 hr 1 min 9 sec) 
Heartbeat CPU  0 instructions:   27000000 cycles:   34206148 heartbeat IPC: 0.82042 cumulative IPC: 0.59143 (Simulation time: 0 hr 1 min 11 sec) 
Heartbeat CPU  0 instructions:   28000000 cycles:   38002678 heartbeat IPC: 0.26340 cumulative IPC: 0.55316 (Simulation time: 0 hr 1 min 15 sec) 
Heartbeat CPU  0 instructions:   29000000 cycles:   39226185 heartbeat IPC: 0.81732 cumulative IPC: 0.56273 (Simulation time: 0 hr 1 min 17 sec) 
Heartbeat CPU  0 instructions:   30000003 cycles:   40547083 heartbeat IPC: 0.75706 cumulative IPC: 0.57005 (Simulation time: 0 hr 1 min 19 sec) 
Heartbeat CPU  0 instructions:   31000002 cycles:   41720771 heartbeat IPC: 0.85201 cumulative IPC: 0.57917 (Simulation time: 0 hr 1 min 21 sec) 
Heartbeat CPU  0 instructions:   32000000 cycles:   43013407 heartbeat IPC: 0.77361 cumulative IPC: 0.58587 (Simulation time: 0 hr 1 min 23 sec) 
Heartbeat CPU  0 instructions:   33000003 cycles:   44179096 heartbeat IPC: 0.85786 cumulative IPC: 0.59406 (Simulation time: 0 hr 1 min 25 sec) 
Heartbeat CPU  0 instructions:   34000002 cycles:   45403822 heartbeat IPC: 0.81651 cumulative IPC: 0.60088 (Simulation time: 0 hr 1 min 27 sec) 
Heartbeat CPU  0 instructions:   35000003 cycles:   46577292 heartbeat IPC: 0.85217 cumulative IPC: 0.60805 (Simulation time: 0 hr 1 min 29 sec) 
Heartbeat CPU  0 instructions:   36000000 cycles:   47815633 heartbeat IPC: 0.80753 cumulative IPC: 0.61388 (Simulation time: 0 hr 1 min 31 sec) 
Heartbeat CPU  0 instructions:   37000000 cycles:   49143878 heartbeat IPC: 0.75287 cumulative IPC: 0.61811 (Simulation time: 0 hr 1 min 33 sec) 
Heartbeat CPU  0 instructions:   38000001 cycles:   50472122 heartbeat IPC: 0.75287 cumulative IPC: 0.62209 (Simulation time: 0 hr 1 min 35 sec) 
Heartbeat CPU  0 instructions:   39000000 cycles:   51800266 heartbeat IPC: 0.75293 cumulative IPC: 0.62584 (Simulation time: 0 hr 1 min 37 sec) 
Heartbeat CPU  0 instructions:   40000000 cycles:   53128581 heartbeat IPC: 0.75283 cumulative IPC: 0.62937 (Simulation time: 0 hr 1 min 39 sec) 
Heartbeat CPU  0 instructions:   41000000 cycles:   54273311 heartbeat IPC: 0.87357 cumulative IPC: 0.63510 (Simulation time: 0 hr 1 min 41 sec) 
Heartbeat CPU  0 instructions:   42000000 cycles:   55601756 heartbeat IPC: 0.75276 cumulative IPC: 0.63822 (Simulation time: 0 hr 1 min 43 sec) 
Heartbeat CPU  0 instructions:   43000002 cycles:   56930472 heartbeat IPC: 0.75261 cumulative IPC: 0.64117 (Simulation time: 0 hr 1 min 45 sec) 
Heartbeat CPU  0 instructions:   44000000 cycles:   58258980 heartbeat IPC: 0.75272 cumulative IPC: 0.64398 (Simulation time: 0 hr 1 min 47 sec) 
Heartbeat CPU  0 instructions:   45000001 cycles:   59587361 heartbeat IPC: 0.75280 cumulative IPC: 0.64665 (Simulation time: 0 hr 1 min 50 sec) 
Heartbeat CPU  0 instructions:   46000003 cycles:   60884575 heartbeat IPC: 0.77088 cumulative IPC: 0.64956 (Simulation time: 0 hr 1 min 52 sec) 
Heartbeat CPU  0 instructions:   47000001 cycles:   61835128 heartbeat IPC: 1.05202 cumulative IPC: 0.65634 (Simulation time: 0 hr 1 min 54 sec) 
Heartbeat CPU  0 instructions:   48000000 cycles:   63137497 heartbeat IPC: 0.76783 cumulative IPC: 0.65886 (Simulation time: 0 hr 1 min 56 sec) 
Heartbeat CPU  0 instructions:   49000003 cycles:   72712272 heartbeat IPC: 0.10444 cumulative IPC: 0.57993 (Simulation time: 0 hr 2 min 2 sec) 
Heartbeat CPU  0 instructions:   50000001 cycles:   74527241 heartbeat IPC: 0.55097 cumulative IPC: 0.57916 (Simulation time: 0 hr 2 min 5 sec) 
Heartbeat CPU  0 instructions:   51000001 cycles:   75996085 heartbeat IPC: 0.68081 cumulative IPC: 0.58128 (Simulation time: 0 hr 2 min 8 sec) 
Heartbeat CPU  0 instructions:   52000000 cycles:   77343496 heartbeat IPC: 0.74216 cumulative IPC: 0.58430 (Simulation time: 0 hr 2 min 11 sec) 
Heartbeat CPU  0 instructions:   53000001 cycles:   78821135 heartbeat IPC: 0.67676 cumulative IPC: 0.58616 (Simulation time: 0 hr 2 min 14 sec) 
Heartbeat CPU  0 instructions:   54000000 cycles:   80414341 heartbeat IPC: 0.62766 cumulative IPC: 0.58704 (Simulation time: 0 hr 2 min 17 sec) 
Heartbeat CPU  0 instructions:   55000000 cycles:   81992272 heartbeat IPC: 0.63374 cumulative IPC: 0.58800 (Simulation time: 0 hr 2 min 20 sec) 
Heartbeat CPU  0 instructions:   56000000 cycles:   83614826 heartbeat IPC: 0.61631 cumulative IPC: 0.58859 (Simulation time: 0 hr 2 min 23 sec) 
Heartbeat CPU  0 instructions:   57000003 cycles:   85263632 heartbeat IPC: 0.60650 cumulative IPC: 0.58896 (Simulation time: 0 hr 2 min 26 sec) 
Heartbeat CPU  0 instructions:   58000002 cycles:   86906469 heartbeat IPC: 0.60870 cumulative IPC: 0.58936 (Simulation time: 0 hr 2 min 29 sec) 
Heartbeat CPU  0 instructions:   59000002 cycles:   88560851 heartbeat IPC: 0.60446 cumulative IPC: 0.58966 (Simulation time: 0 hr 2 min 32 sec) 
Heartbeat CPU  0 instructions:   60000000 cycles:   90355868 heartbeat IPC: 0.55710 cumulative IPC: 0.58897 (Simulation time: 0 hr 2 min 35 sec) 
Finished CPU 0 instructions: 50000000 cycles: 84893634 cumulative IPC: 0.58897 (Simulation time: 0 hr 2 min 35 sec) 

ChampSim completed all CPUs

[ROI Statistics]
Core_0_instructions 50000000
Core_0_cycles 84893634
Core_0_IPC 0.58897

Core_0_branch_prediction_accuracy 99.58435
Core_0_branch_MPKI 0.30312
Core_0_average_ROB_occupancy_at_mispredict 217.69992

Core_0_L1D_total_access 13164506
Core_0_L1D_total_hit 11776322
Core_0_L1D_total_miss 1388184
Core_0_L1D_loads 8908493
Core_0_L1D_load_hit 7648001
Core_0_L1D_load_miss 1260492
Core_0_L1D_RFOs 4256013
Core_0_L1D_RFO_hit 4128321
Core_0_L1D_RFO_miss 127692
Core_0_L1D_prefetches 0
Core_0_L1D_prefetch_hit 0
Core_0_L1D_prefetch_miss 0
Core_0_L1D_writebacks 0
Core_0_L1D_writeback_hit 0
Core_0_L1D_writeback_miss 0
Core_0_L1D_prefetch_requested 0
Core_0_L1D_prefetch_dropped 0
Core_0_L1D_prefetch_issued 0
Core_0_L1D_prefetch_filled 0
Core_0_L1D_prefetch_useful 0
Core_0_L1D_prefetch_useless 0
Core_0_L1D_prefetch_late 0
Core_0_L1D_average_miss_latency 144.59288

Core_0_L1D_rq_access 14297822
Core_0_L1D_rq_forward 0
Core_0_L1D_rq_merged 4913870
Core_0_L1D_rq_to_cache 9383952
Core_0_L1D_rq_full 0

Core_0_L1D_wq_access 5134087
Core_0_L1D_wq_forward 0
Core_0_L1D_wq_merged 140354
Core_0_L1D_wq_to_cache 4993733
Core_0_L1D_wq_full 271027

Core_0_L1D_pq_access 0
Core_0_L1D_pq_forward 0
Core_0_L1D_pq_merged 0
Core_0_L1D_pq_to_cache 0
Core_0_L1D_pq_full 0

Core_0_L1D_acc_epochs 74623
Core_0_L1D_acc_level_0 74623
Core_0_L1D_acc_level_1 0
Core_0_L1D_acc_level_2 0
Core_0_L1D_acc_level_3 0
Core_0_L1D_acc_level_4 0
Core_0_L1D_acc_level_5 0
Core_0_L1D_acc_level_6 0
Core_0_L1D_acc_level_7 0
Core_0_L1D_acc_level_8 0
Core_0_L1D_acc_level_9 0

Core_0_L1I_total_access 15142941
Core_0_L1I_total_hit 15142511
Core_0_L1I_total_miss 430
Core_0_L1I_loads 15142941
Core_0_L1I_load_hit 15142511
Core_0_L1I_load_miss 430
Core_0_L1I_RFOs 0
Core_0_L1I_RFO_hit 0
Core_0_L1I_RFO_miss 0
Core_0_L1I_prefetches 0
Core_0_L1I_prefetch_hit 0
Core_0_L1I_prefetch_miss 0
Core_0_L1I_writebacks 0
Core_0_L1I_writeback_hit 0
Core_0_L1I_writeback_miss 0
Core_0_L1I_prefetch_requested 0
Core_0_L1I_prefetch_dropped 0
Core_0_L1I_prefetch_issued 0
Core_0_L1I_prefetch_filled 0
Core_0_L1I_prefetch_useful 0
Core_0_L1I_prefetch_useless 0
Core_0_L1I_prefetch_late 0
Core_0_L1I_average_miss_latency 140.48605

Core_0_L1I_rq_access 50000005
Core_0_L1I_rq_forward 0
Core_0_L1I_rq_merged 34856729
Core_0_L1I_rq_to_cache 15143276
Core_0_L1I_rq_full 0

Core_0_L1I_wq_access 0
Core_0_L1I_wq_forward 0
Core_0_L1I_wq_merged 0
Core_0_L1I_wq_to_cache 0
Core_0_L1I_wq_full 0

Core_0_L1I_pq_access 0
Core_0_L1I_pq_forward 0
Core_0_L1I_pq_merged 0
Core_0_L1I_pq_to_cache 0
Core_0_L1I_pq_full 0

Core_0_L1I_acc_epochs 74623
Core_0_L1I_acc_level_0 74623
Core_0_L1I_acc_level_1 0
Core_0_L1I_acc_level_2 0
Core_0_L1I_acc_level_3 0
Core_0_L1I_acc_level_4 0
Core_0_L1I_acc_level_5 0
Core_0_L1I_acc_level_6 0
Core_0_L1I_acc_level_7 0
Core_0_L1I_acc_level_8 0
Core_0_L1I_acc_level_9 0

Core_0_L2C_total_access 5520221
Core_0_L2C_total_hit 3997287
Core_0_L2C_total_miss 1522934
Core_0_L2C_loads 1260899
Core_0_L2C_load_hit 873798
Core_0_L2C_load_miss 387101
Core_0_L2C_RFOs 127672
Core_0_L2C_RFO_hit 359
Core_0_L2C_RFO_miss 127313
Core_0_L2C_prefetches 3482221
Core_0_L2C_prefetch_hit 2475371
Core_0_L2C_prefetch_miss 1006850
Core_0_L2C_writebacks 649429
Core_0_L2C_writeback_hit 647759
Core_0_L2C_writeback_miss 1670
Core_0_L2C_prefetch_requested 6464356
Core_0_L2C_prefetch_dropped 104447
Core_0_L2C_prefetch_issued 6359909
Core_0_L2C_prefetch_filled 1267075
Core_0_L2C_prefetch_useful 1017371
Core_0_L2C_prefetch_useless 249391
Core_0_L2C_prefetch_late 87995
Core_0_L2C_average_miss_latency 453.54799

Core_0_L2C_rq_access 1388614
Core_0_L2C_rq_forward 0
Core_0_L2C_rq_merged 0
Core_0_L2C_rq_to_cache 1388571
Core_0_L2C_rq_full 0

Core_0_L2C_wq_access 649429
Core_0_L2C_wq_forward 43
Core_0_L2C_wq_merged 0
Core_0_L2C_wq_to_cache 649429
Core_0_L2C_wq_full 0

Core_0_L2C_pq_access 6359909
Core_0_L2C_pq_forward 0
Core_0_L2C_pq_merged 150955
Core_0_L2C_pq_to_cache 6208954
Core_0_L2C_pq_full 0

Core_0_L2C_acc_epochs 74623
Core_0_L2C_acc_level_0 6751
Core_0_L2C_acc_level_1 3798
Core_0_L2C_acc_level_2 2050
Core_0_L2C_acc_level_3 1163
Core_0_L2C_acc_level_4 5297
Core_0_L2C_acc_level_5 1868
Core_0_L2C_acc_level_6 3472
Core_0_L2C_acc_level_7 7865
Core_0_L2C_acc_level_8 11953
Core_0_L2C_acc_level_9 30406

Core_0_LLC_total_access 2168805
Core_0_LLC_total_hit 474204
Core_0_LLC_total_miss 1694601
Core_0_LLC_loads 299111
Core_0_LLC_load_hit 3266
Core_0_LLC_load_miss 295845
Core_0_LLC_RFOs 127313
Core_0_LLC_RFO_hit 114231
Core_0_LLC_RFO_miss 13082
Core_0_LLC_prefetches 1094838
Core_0_LLC_prefetch_hit 112155
Core_0_LLC_prefetch_miss 982683
Core_0_LLC_writebacks 647543
Core_0_LLC_writeback_hit 244552
Core_0_LLC_writeback_miss 402991
Core_0_LLC_prefetch_requested 0
Core_0_LLC_prefetch_dropped 0
Core_0_LLC_prefetch_issued 0
Core_0_LLC_prefetch_filled 1241326
Core_0_LLC_prefetch_useful 1502
Core_0_LLC_prefetch_useless 1238457
Core_0_LLC_prefetch_late 0
Core_0_LLC_average_miss_latency 387.65289

Core_0_LLC_rq_access 426424
Core_0_LLC_rq_forward 0
Core_0_LLC_rq_merged 0
Core_0_LLC_rq_to_cache 426424
Core_0_LLC_rq_full 0

Core_0_LLC_wq_access 647543
Core_0_LLC_wq_forward 2
Core_0_LLC_wq_merged 0
Core_0_LLC_wq_to_cache 647543
Core_0_LLC_wq_full 0

Core_0_LLC_pq_access 1355095
Core_0_LLC_pq_forward 0
Core_0_LLC_pq_merged 0
Core_0_LLC_pq_to_cache 1355093
Core_0_LLC_pq_full 0

Core_0_LLC_acc_epochs 88239
Core_0_LLC_acc_level_0 88169
Core_0_LLC_acc_level_1 38
Core_0_LLC_acc_level_2 15
Core_0_LLC_acc_level_3 5
Core_0_LLC_acc_level_4 1
Core_0_LLC_acc_level_5 6
Core_0_LLC_acc_level_6 0
Core_0_LLC_acc_level_7 3
Core_0_LLC_acc_level_8 0
Core_0_LLC_acc_level_9 2

Core_0_major_page_fault 0
Core_0_minor_page_fault 72335

scooby_st_lookup 1563539
scooby_st_hit 1394687
scooby_st_evict 168788
scooby_st_insert 168852
scooby_st_streaming 0

scooby_predict_called 1563539
scooby_predict_out_of_bounds 40814
scooby_predict_action_1 1286601
scooby_predict_issue_action_1 1283379
scooby_predict_hit_action_1 3222
scooby_predict_out_of_bounds_action_1 19911
scooby_predict_action_3 6244
scooby_predict_issue_action_3 6177
scooby_predict_hit_action_3 67
scooby_predict_out_of_bounds_action_3 381
scooby_predict_action_4 6055
scooby_predict_issue_action_4 6055
scooby_predict_hit_action_4 0
scooby_predict_out_of_bounds_action_4 502
scooby_predict_action_5 8415
scooby_predict_issue_action_5 8414
scooby_predict_hit_action_5 1
scooby_predict_out_of_bounds_action_5 806
scooby_predict_action_10 5057
scooby_predict_issue_action_10 5052
scooby_predict_hit_action_10 5
scooby_predict_out_of_bounds_action_10 1058
scooby_predict_action_11 4890
scooby_predict_issue_action_11 4889
scooby_predict_hit_action_11 1
scooby_predict_out_of_bounds_action_11 1191
scooby_predict_action_12 4680
scooby_predict_issue_action_12 4676
scooby_predict_hit_action_12 4
scooby_predict_out_of_bounds_action_12 1256
scooby_predict_action_22 3540
scooby_predict_issue_action_22 3539
scooby_predict_hit_action_22 1
scooby_predict_out_of_bounds_action_22 1982
scooby_predict_action_23 3398
scooby_predict_issue_action_23 3388
scooby_predict_hit_action_23 10
scooby_predict_out_of_bounds_action_23 2083
scooby_predict_action_30 79387
scooby_predict_issue_action_30 79331
scooby_predict_hit_action_30 56
scooby_predict_out_of_bounds_action_30 8418
scooby_predict_action_32 2467
scooby_predict_issue_action_32 2460
scooby_predict_hit_action_32 7
scooby_predict_out_of_bounds_action_32 2537
scooby_predict_action_-1 6469
scooby_predict_issue_action_-1 6327
scooby_predict_hit_action_-1 142
scooby_predict_out_of_bounds_action_-1 76
scooby_predict_action_-3 6358
scooby_predict_issue_action_-3 6229
scooby_predict_hit_action_-3 129
scooby_predict_out_of_bounds_action_-3 205
scooby_predict_action_-6 6229
scooby_predict_issue_action_-6 5907
scooby_predict_hit_action_-6 322
scooby_predict_out_of_bounds_action_-6 408
scooby_predict_action_0 92935
scooby_predict_issue_action_0 0
scooby_predict_hit_action_0 0
scooby_predict_out_of_bounds_action_0 0
scooby_predict_multi_deg_called 1135962
scooby_predict_predicted 6464356
scooby_predict_multi_deg 5038533
scooby_predict_multi_deg_2 1117187
scooby_predict_multi_deg_3 1057528
scooby_predict_multi_deg_4 1039147
scooby_predict_multi_deg_5 921436
scooby_predict_multi_deg_6 903235
scooby_predict_multi_deg_7 0
scooby_predict_multi_deg_8 0
scooby_predict_multi_deg_9 0
scooby_predict_multi_deg_10 0
scooby_predict_multi_deg_11 0
scooby_predict_multi_deg_12 0
scooby_predict_multi_deg_13 0
scooby_predict_multi_deg_14 0
scooby_predict_multi_deg_15 0
scooby_predict_multi_deg_16 0

scooby_selected_deg_1 289861
scooby_selected_deg_2 41358
scooby_selected_deg_3 0
scooby_selected_deg_4 99980
scooby_selected_deg_5 0
scooby_selected_deg_6 994624
scooby_selected_deg_7 0
scooby_selected_deg_8 0
scooby_selected_deg_9 0
scooby_selected_deg_10 0
scooby_selected_deg_11 0
scooby_selected_deg_12 0
scooby_selected_deg_13 0
scooby_selected_deg_14 0
scooby_selected_deg_15 0
scooby_selected_deg_16 0

scooby_state_46c790|42|1 1168,0,0,0,1,0,0,0,0,0,0,0,0,0,0,1169,
scooby_state_46c85c|42|1 1141,0,0,0,0,0,0,0,0,0,0,1,0,0,0,1142,
scooby_state_46c7ac|42|1 1131,0,0,0,0,0,1,0,1,0,0,0,0,0,1,1134,
scooby_state_46c586|42|1 935,1,0,0,0,0,0,0,0,0,0,0,0,0,0,936,
scooby_state_403b7c|60|1 861,0,0,0,0,1,0,1,0,1,0,0,0,0,0,864,
scooby_state_403b7c|30|1 862,0,0,0,0,0,1,0,0,0,0,0,0,0,1,864,
scooby_state_403b7c|61|1 860,0,0,1,0,0,0,2,0,0,1,0,0,0,0,864,
scooby_state_403b7c|57|1 862,0,0,0,0,0,0,1,0,0,1,0,0,0,0,864,
scooby_state_403b7c|28|1 864,0,0,0,0,0,0,0,0,0,0,0,0,0,0,864,
scooby_state_403b7c|26|1 862,0,0,0,0,0,0,1,0,0,0,1,0,0,0,864,
scooby_state_403b7c|34|1 863,0,0,0,0,0,0,0,0,0,0,0,0,0,1,864,
scooby_state_403b7c|56|1 863,0,0,0,0,1,0,0,0,0,0,0,0,0,0,864,
scooby_state_403b7c|62|1 864,0,0,0,0,0,0,0,0,0,0,0,0,0,0,864,
scooby_state_403b7c|27|1 860,1,0,0,1,1,0,0,0,1,0,0,0,0,0,864,
scooby_state_403b7c|41|1 861,0,0,0,0,0,0,1,0,1,1,0,0,0,0,864,
scooby_state_403b7c|63|1 863,0,0,0,0,0,0,0,1,0,0,0,0,0,0,864,
scooby_state_403b7c|58|1 862,0,1,0,0,0,0,0,0,0,1,0,0,0,0,864,
scooby_state_403b7c|31|1 861,0,0,0,1,0,0,1,0,0,1,0,0,0,0,864,
scooby_state_403b7c|39|1 861,0,0,0,0,0,0,0,1,1,0,1,0,0,0,864,
scooby_state_403b7c|35|1 864,0,0,0,0,0,0,0,0,0,0,0,0,0,0,864,
scooby_state_403b7c|53|1 861,0,0,1,0,0,0,0,2,0,0,0,0,0,0,864,
scooby_state_403b7c|25|1 863,0,0,0,1,0,0,0,0,0,0,0,0,0,0,864,
scooby_state_403b7c|36|1 863,0,1,0,0,0,0,0,0,0,0,0,0,0,0,864,
scooby_state_403b7c|38|1 862,1,0,0,0,0,0,0,0,0,1,0,0,0,0,864,
scooby_state_403b7c|45|1 863,0,0,0,0,0,0,0,0,0,0,0,0,1,0,864,
scooby_state_403b7c|43|1 862,1,0,0,0,0,0,0,0,0,0,0,0,1,0,864,
scooby_state_403b7c|46|1 864,0,0,0,0,0,0,0,0,0,0,0,0,0,0,864,
scooby_state_403b7c|32|1 864,0,0,0,0,0,0,0,0,0,0,0,0,0,0,864,
scooby_state_403b7c|47|1 863,0,0,1,0,0,0,0,0,0,0,0,0,0,0,864,
scooby_state_403b7c|52|1 863,0,0,1,0,0,0,0,0,0,0,0,0,0,0,864,
scooby_state_403b7c|50|1 861,0,0,0,0,1,1,0,1,0,0,0,0,0,0,864,
scooby_state_403b7c|51|1 864,0,0,0,0,0,0,0,0,0,0,0,0,0,0,864,
scooby_state_403b7c|59|1 863,0,0,0,0,0,0,0,0,0,0,0,1,0,0,864,
scooby_state_403b7c|55|1 863,1,0,0,0,0,0,0,0,0,0,0,0,0,0,864,
scooby_state_403b7c|44|1 862,0,1,0,0,0,0,0,0,0,1,0,0,0,0,864,
scooby_state_403b7c|33|1 863,0,0,0,0,0,0,0,1,0,0,0,0,0,0,864,
scooby_state_403b7c|40|1 859,0,0,0,1,1,0,0,0,0,1,1,1,0,0,864,
scooby_state_403b7c|29|1 862,0,0,0,0,0,0,0,1,0,0,1,0,0,0,864,
scooby_state_403b7c|42|1 863,1,0,0,0,0,0,0,0,0,0,0,0,0,0,864,
scooby_state_403b7c|37|1 862,0,0,0,1,0,0,0,0,0,0,0,1,0,0,864,
scooby_state_403b7c|54|1 863,0,0,0,0,0,0,0,0,0,0,0,1,0,0,864,
scooby_state_403b7c|49|1 862,0,0,0,0,0,0,0,0,0,1,0,0,0,1,864,
scooby_state_403b7c|48|1 862,1,0,0,0,0,0,0,0,0,0,0,1,0,0,864,
scooby_state_403b7c|17|1 850,0,0,0,0,0,1,0,0,0,0,0,1,0,0,852,
scooby_state_403b7c|5|1 850,1,0,0,0,0,0,0,0,1,0,0,0,0,0,852,
scooby_state_403b7c|8|1 849,1,0,0,0,0,0,0,0,1,0,0,0,0,1,852,
scooby_state_403b7c|23|1 851,0,0,0,0,0,0,0,0,0,0,0,1,0,0,852,
scooby_state_403b7c|14|1 850,0,0,0,0,0,0,0,0,1,1,0,0,0,0,852,
scooby_state_403b7c|22|1 851,0,0,0,0,0,0,0,0,0,0,1,0,0,0,852,
scooby_state_403b7c|16|1 849,0,0,0,1,0,0,0,1,1,0,0,0,0,0,852,
scooby_state_403b7c|4|1 850,0,0,0,1,1,0,0,0,0,0,0,0,0,0,852,
scooby_state_403b7c|3|1 852,0,0,0,0,0,0,0,0,0,0,0,0,0,0,852,
scooby_state_403b7c|21|1 851,0,0,0,0,0,0,0,0,0,0,0,0,0,1,852,
scooby_state_403b7c|11|1 851,1,0,0,0,0,0,0,0,0,0,0,0,0,0,852,
scooby_state_403b7c|19|1 851,0,0,0,0,0,0,0,0,0,0,0,0,0,1,852,
scooby_state_403b7c|13|1 848,0,0,0,0,0,1,0,0,0,1,0,1,1,0,852,
scooby_state_403b7c|7|1 851,0,0,1,0,0,0,0,0,0,0,0,0,0,0,852,
scooby_state_403b7c|2|1 851,0,0,0,0,0,0,0,0,1,0,0,0,0,0,852,
scooby_state_403b7c|10|1 850,0,1,0,0,0,0,0,1,0,0,0,0,0,0,852,
scooby_state_403b7c|20|1 850,0,0,0,0,0,0,1,0,1,0,0,0,0,0,852,
scooby_state_403b7c|0|0 850,0,1,0,0,0,0,0,0,1,0,0,0,0,0,852,
scooby_state_403b7c|15|1 848,0,0,0,0,0,1,0,0,1,0,0,0,1,1,852,
scooby_state_403b7c|6|1 849,0,0,0,0,1,0,0,0,0,2,0,0,0,0,852,
scooby_state_403b7c|24|1 852,0,0,0,0,0,0,0,0,0,0,0,0,0,0,852,
scooby_state_403b7c|12|1 851,0,0,0,1,0,0,0,0,0,0,0,0,0,0,852,
scooby_state_403b7c|18|1 849,0,0,0,0,0,0,1,0,1,0,0,0,0,1,852,
scooby_state_403b7c|9|1 851,0,0,0,0,0,1,0,0,0,0,0,0,0,0,852,
scooby_state_403b7c|1|1 852,0,0,0,0,0,0,0,0,0,0,0,0,0,0,852,
scooby_state_47e143|0|0 774,0,0,1,0,0,0,1,0,0,0,0,0,0,0,776,
scooby_state_47e18b|0|0 772,0,0,0,0,1,0,0,0,1,0,0,0,0,0,774,
scooby_state_47e103|0|0 769,1,0,0,0,0,0,0,0,0,0,0,0,0,0,770,
scooby_state_47e103|2|1 755,0,0,0,0,1,0,0,0,0,0,0,0,1,0,757,
scooby_state_47e18b|14|1 756,0,0,0,0,0,1,0,0,0,0,0,0,0,0,757,
scooby_state_47e103|14|1 756,0,0,0,0,1,0,0,0,0,0,0,0,0,0,757,
scooby_state_47e103|16|1 756,0,0,0,0,0,0,0,0,1,0,0,0,0,0,757,
scooby_state_47e103|15|1 757,0,0,0,0,0,0,0,0,0,0,0,0,0,0,757,
scooby_state_47e103|55|1 755,1,0,0,0,0,0,0,0,1,0,0,0,0,0,757,
scooby_state_47e103|38|1 756,0,0,0,1,0,0,0,0,0,0,0,0,0,0,757,
scooby_state_47e103|18|1 755,0,0,0,0,0,0,0,0,1,0,0,0,0,1,757,
scooby_state_47e103|45|1 757,0,0,0,0,0,0,0,0,0,0,0,0,0,0,757,
scooby_state_47e103|20|1 756,0,1,0,0,0,0,0,0,0,0,0,0,0,0,757,
scooby_state_47e103|56|1 756,0,0,0,0,0,0,0,0,0,0,0,0,1,0,757,
scooby_state_47e103|19|1 755,0,1,0,1,0,0,0,0,0,0,0,0,0,0,757,
scooby_state_47e18b|56|1 754,0,0,0,0,0,0,1,0,1,0,0,0,0,0,756,
scooby_state_47e18b|55|1 756,0,0,0,0,0,0,0,0,0,0,0,0,0,0,756,
scooby_state_47e103|11|1 755,1,0,0,0,0,0,0,0,0,0,0,0,0,0,756,
scooby_state_47e103|24|1 755,1,0,0,0,0,0,0,0,0,0,0,0,0,0,756,
scooby_state_47e18b|26|1 754,0,0,1,0,0,0,0,0,0,0,0,0,0,1,756,
scooby_state_47e103|37|1 754,1,0,1,0,0,0,0,0,0,0,0,0,0,0,756,
scooby_state_47e103|57|1 755,0,0,0,0,0,0,0,0,0,0,0,1,0,0,756,
scooby_state_47e103|43|1 754,0,0,0,0,0,0,0,0,0,1,1,0,0,0,756,
scooby_state_47e103|26|1 754,0,0,0,1,0,0,0,0,0,0,1,0,0,0,756,
scooby_state_47e103|46|1 756,0,0,0,0,0,0,0,0,0,0,0,0,0,0,756,
scooby_state_47e103|4|1 755,0,0,0,0,0,0,0,0,0,0,0,0,1,0,756,
scooby_state_47e103|13|1 756,0,0,0,0,0,0,0,0,0,0,0,0,0,0,756,
scooby_state_47e103|10|1 755,0,0,0,0,0,0,0,0,0,0,0,1,0,0,756,
scooby_state_47e103|44|1 753,0,1,2,0,0,0,0,0,0,0,0,0,0,0,756,
scooby_state_47e18b|13|1 752,1,0,0,0,0,0,1,0,0,0,1,0,1,0,756,
scooby_state_47e18b|2|1 756,0,0,0,0,0,0,0,0,0,0,0,0,0,0,756,
scooby_state_47e103|1|1 755,0,0,0,0,0,0,0,0,0,1,0,0,0,0,756,
scooby_state_47e103|3|1 755,0,0,0,0,0,0,0,0,0,0,0,1,0,0,756,
scooby_state_47e103|17|1 754,0,0,0,0,0,0,0,1,0,0,1,0,0,0,756,
scooby_state_47e18b|15|1 755,0,0,0,0,0,0,0,0,0,0,0,0,0,1,756,
scooby_state_47e18b|45|1 756,0,0,0,0,0,0,0,0,0,0,0,0,0,0,756,
scooby_state_47e103|25|1 755,1,0,0,0,0,0,0,0,0,0,0,0,0,0,756,
scooby_state_47e103|34|1 756,0,0,0,0,0,0,0,0,0,0,0,0,0,0,756,
scooby_state_47e103|35|1 755,0,0,0,0,0,0,1,0,0,0,0,0,0,0,756,
scooby_state_47e103|36|1 755,0,0,0,1,0,0,0,0,0,0,0,0,0,0,756,
scooby_state_47e18b|38|1 756,0,0,0,0,0,0,0,0,0,0,0,0,0,0,756,
scooby_state_47e18b|1|1 754,0,0,0,0,0,0,0,0,1,0,0,0,0,0,755,
scooby_state_47e103|5|1 752,0,0,0,0,0,1,0,0,0,1,0,0,1,0,755,
scooby_state_47e18b|20|1 754,1,0,0,0,0,0,0,0,0,0,0,0,0,0,755,
scooby_state_47e103|27|1 754,0,0,0,0,0,0,0,0,1,0,0,0,0,0,755,
scooby_state_47e103|12|1 755,0,0,0,0,0,0,0,0,0,0,0,0,0,0,755,
scooby_state_47e18b|10|1 754,0,0,0,0,0,0,0,1,0,0,0,0,0,0,755,
scooby_state_47e103|63|1 754,0,0,0,0,0,0,0,0,0,0,0,1,0,0,755,
scooby_state_47e103|49|1 755,0,0,0,0,0,0,0,0,0,0,0,0,0,0,755,
scooby_state_47e103|28|1 754,0,0,0,0,1,0,0,0,0,0,0,0,0,0,755,
scooby_state_47e103|32|1 754,0,0,0,0,0,0,0,0,0,0,0,0,0,1,755,
scooby_state_47e18b|3|1 754,0,1,0,0,0,0,0,0,0,0,0,0,0,0,755,
scooby_state_47e18b|34|1 753,0,0,0,1,0,0,0,1,0,0,0,0,0,0,755,
scooby_state_47e103|47|1 753,0,0,0,0,1,1,0,0,0,0,0,0,0,0,755,
scooby_state_47e18b|37|1 753,1,0,0,0,0,0,0,1,0,0,0,0,0,0,755,
scooby_state_47e18b|18|1 755,0,0,0,0,0,0,0,0,0,0,0,0,0,0,755,
scooby_state_47e103|9|1 754,0,0,0,0,0,0,0,0,0,1,0,0,0,0,755,
scooby_state_47e103|21|1 755,0,0,0,0,0,0,0,0,0,0,0,0,0,0,755,
scooby_state_47e103|30|1 752,0,0,0,1,0,1,0,0,0,1,0,0,0,0,755,
scooby_state_47e103|33|1 752,0,0,0,0,0,0,2,0,1,0,0,0,0,0,755,
scooby_state_47e18b|35|1 753,0,0,0,0,0,0,0,1,0,0,1,0,0,0,755,
scooby_state_47e103|8|1 753,0,1,0,0,0,1,0,0,0,0,0,0,0,0,755,
scooby_state_47e103|29|1 751,0,1,0,0,0,0,1,0,0,0,1,0,0,1,755,
scooby_state_47e18b|46|1 752,1,0,0,0,0,0,0,0,0,0,0,2,0,0,755,
scooby_state_47e103|48|1 752,0,0,0,0,1,0,1,0,0,0,1,0,0,0,755,
scooby_state_47e103|54|1 754,0,0,0,1,0,0,0,0,0,0,0,0,0,0,755,
scooby_state_47e103|51|1 754,0,0,1,0,0,0,0,0,0,0,0,0,0,0,755,
scooby_state_47e103|59|1 755,0,0,0,0,0,0,0,0,0,0,0,0,0,0,755,
scooby_state_47e18b|57|1 755,0,0,0,0,0,0,0,0,0,0,0,0,0,0,755,
scooby_state_47e18b|63|1 755,0,0,0,0,0,0,0,0,0,0,0,0,0,0,755,
scooby_state_47e18b|19|1 754,0,0,0,0,0,0,0,0,0,0,0,0,0,0,754,
scooby_state_47e18b|33|1 754,0,0,0,0,0,0,0,0,0,0,0,0,0,0,754,
scooby_state_47e18b|12|1 754,0,0,0,0,0,0,0,0,0,0,0,0,0,0,754,
scooby_state_47e103|41|1 752,1,0,0,0,0,1,0,0,0,0,0,0,0,0,754,
scooby_state_47e103|31|1 752,0,0,0,1,0,0,0,0,0,1,0,0,0,0,754,
scooby_state_47e103|39|1 753,0,0,1,0,0,0,0,0,0,0,0,0,0,0,754,
scooby_state_47e18b|29|1 751,0,0,0,1,0,1,0,1,0,0,0,0,0,0,754,
scooby_state_47e18b|27|1 753,0,0,1,0,0,0,0,0,0,0,0,0,0,0,754,
scooby_state_47e103|23|1 752,0,0,0,1,0,0,1,0,0,0,0,0,0,0,754,
scooby_state_47e18b|24|1 754,0,0,0,0,0,0,0,0,0,0,0,0,0,0,754,
scooby_state_47e18b|23|1 751,0,0,0,0,0,0,0,0,0,0,0,1,2,0,754,
scooby_state_47e103|22|1 752,0,1,0,0,0,0,0,1,0,0,0,0,0,0,754,
scooby_state_47e103|6|1 750,0,0,0,0,0,1,0,1,0,0,1,0,1,0,754,
scooby_state_47e103|61|1 753,0,0,0,0,0,0,1,0,0,0,0,0,0,0,754,
scooby_state_47e103|40|1 753,0,0,0,0,0,0,1,0,0,0,0,0,0,0,754,
scooby_state_47e18b|32|1 753,0,1,0,0,0,0,0,0,0,0,0,0,0,0,754,
scooby_state_47e103|7|1 753,0,0,0,1,0,0,0,0,0,0,0,0,0,0,754,
scooby_state_47e18b|16|1 752,0,0,1,0,0,0,0,0,0,0,0,1,0,0,754,
scooby_state_47e18b|22|1 753,0,0,0,0,1,0,0,0,0,0,0,0,0,0,754,
scooby_state_47e18b|11|1 754,0,0,0,0,0,0,0,0,0,0,0,0,0,0,754,
scooby_state_47e103|50|1 747,0,1,1,1,1,0,1,0,2,0,0,0,0,0,754,
scooby_state_47e18b|51|1 750,0,1,0,1,0,0,0,1,0,0,0,0,1,0,754,
scooby_state_47e103|58|1 754,0,0,0,0,0,0,0,0,0,0,0,0,0,0,754,
scooby_state_47e18b|21|1 754,0,0,0,0,0,0,0,0,0,0,0,0,0,0,754,
scooby_state_47e18b|44|1 752,0,0,0,0,0,1,0,0,0,1,0,0,0,0,754,
scooby_state_47e18b|59|1 751,0,0,0,0,0,0,0,1,2,0,0,0,0,0,754,
scooby_state_47e18b|61|1 754,0,0,0,0,0,0,0,0,0,0,0,0,0,0,754,
scooby_state_47e18b|25|1 753,0,0,0,1,0,0,0,0,0,0,0,0,0,0,754,
scooby_state_47e143|38|1 753,0,0,0,0,0,1,0,0,0,0,0,0,0,0,754,
scooby_state_47e103|42|1 752,0,0,0,0,0,0,1,1,0,0,0,0,0,0,754,
scooby_state_47e103|62|1 754,0,0,0,0,0,0,0,0,0,0,0,0,0,0,754,
scooby_state_47e103|53|1 754,0,0,0,0,0,0,0,0,0,0,0,0,0,0,754,
scooby_state_47e18b|9|1 754,0,0,0,0,0,0,0,0,0,0,0,0,0,0,754,
scooby_state_47e18b|36|1 752,0,0,1,1,0,0,0,0,0,0,0,0,0,0,754,
scooby_state_47e18b|40|1 753,0,0,0,0,0,0,0,0,0,0,0,0,0,0,753,
scooby_state_47e18b|28|1 752,0,0,0,0,0,1,0,0,0,0,0,0,0,0,753,
scooby_state_47e143|14|1 752,0,0,0,0,0,1,0,0,0,0,0,0,0,0,753,
scooby_state_47e143|18|1 750,0,1,0,0,0,1,0,0,0,1,0,0,0,0,753,
scooby_state_47e18b|8|1 752,0,0,0,0,0,0,0,0,0,0,1,0,0,0,753,
scooby_state_47e143|15|1 751,0,0,0,0,0,0,1,0,0,1,0,0,0,0,753,
scooby_state_47e18b|54|1 751,0,0,0,0,0,0,0,0,1,0,0,0,1,0,753,
scooby_state_47e18b|41|1 752,0,0,0,0,0,0,0,0,0,0,0,1,0,0,753,
scooby_state_47e143|49|1 753,0,0,0,0,0,0,0,0,0,0,0,0,0,0,753,
scooby_state_47e18b|62|1 753,0,0,0,0,0,0,0,0,0,0,0,0,0,0,753,
scooby_state_47e18b|17|1 751,0,0,2,0,0,0,0,0,0,0,0,0,0,0,753,
scooby_state_47e143|16|1 750,1,0,0,0,0,0,0,0,0,0,0,1,0,1,753,
scooby_state_47e18b|48|1 752,0,0,0,1,0,0,0,0,0,0,0,0,0,0,753,
scooby_state_47e18b|49|1 753,0,0,0,0,0,0,0,0,0,0,0,0,0,0,753,
scooby_state_47e18b|47|1 751,0,0,0,0,0,1,0,0,0,0,0,1,0,0,753,
scooby_state_47e18b|30|1 752,0,0,1,0,0,0,0,0,0,0,0,0,0,0,753,
scooby_state_47e143|1|1 751,0,0,1,0,1,0,0,0,0,0,0,0,0,0,753,
scooby_state_47e18b|60|1 753,0,0,0,0,0,0,0,0,0,0,0,0,0,0,753,
scooby_state_47e143|55|1 751,0,0,0,0,0,0,0,0,0,1,0,1,0,0,753,
scooby_state_47e103|52|1 752,1,0,0,0,0,0,0,0,0,0,0,0,0,0,753,
scooby_state_47e18b|4|1 751,0,0,0,0,0,0,0,0,0,0,0,0,1,0,752,
scooby_state_47e18b|39|1 751,0,0,0,0,1,0,0,0,0,0,0,0,0,0,752,
scooby_state_47e18b|58|1 752,0,0,0,0,0,0,0,0,0,0,0,0,0,0,752,
scooby_state_47e143|11|1 751,0,0,0,0,0,0,0,0,0,1,0,0,0,0,752,
scooby_state_47e143|10|1 749,1,0,0,0,0,0,1,0,0,0,0,0,0,1,752,
scooby_state_47e143|17|1 749,0,0,0,0,0,0,1,1,0,1,0,0,0,0,752,
scooby_state_47e18b|7|1 750,0,0,0,0,0,1,0,0,0,0,0,0,0,1,752,
scooby_state_47e143|30|1 752,0,0,0,0,0,0,0,0,0,0,0,0,0,0,752,
scooby_state_47e143|37|1 750,1,0,0,0,0,0,0,0,0,0,1,0,0,0,752,
scooby_state_47e143|20|1 751,0,0,0,1,0,0,0,0,0,0,0,0,0,0,752,
scooby_state_47e143|22|1 752,0,0,0,0,0,0,0,0,0,0,0,0,0,0,752,
scooby_state_47e143|26|1 751,0,0,0,1,0,0,0,0,0,0,0,0,0,0,752,
scooby_state_47e18b|50|1 751,0,0,0,0,0,1,0,0,0,0,0,0,0,0,752,
scooby_state_47e18b|43|1 751,0,1,0,0,0,0,0,0,0,0,0,0,0,0,752,
scooby_state_47e143|44|1 749,0,0,0,1,0,0,0,0,1,0,0,0,1,0,752,
scooby_state_47e143|33|1 750,1,0,1,0,0,0,0,0,0,0,0,0,0,0,752,
scooby_state_47e143|61|1 751,0,0,0,0,0,0,0,1,0,0,0,0,0,0,752,
scooby_state_47e103|60|1 752,0,0,0,0,0,0,0,0,0,0,0,0,0,0,752,
scooby_state_47e143|56|1 751,0,0,0,0,0,0,0,0,0,0,1,0,0,0,752,
scooby_state_47e18b|52|1 752,0,0,0,0,0,0,0,0,0,0,0,0,0,0,752,
scooby_state_47e143|63|1 750,0,0,0,0,0,0,0,0,0,1,0,0,0,1,752,
scooby_state_47e143|19|1 750,0,1,0,0,0,1,0,0,0,0,0,0,0,0,752,
scooby_state_47e143|40|1 750,0,0,0,0,0,1,0,0,0,0,0,0,0,0,751,
scooby_state_47e143|53|1 750,0,0,0,0,0,0,0,0,1,0,0,0,0,0,751,
scooby_state_47e18b|5|1 751,0,0,0,0,0,0,0,0,0,0,0,0,0,0,751,
scooby_state_47e143|8|1 751,0,0,0,0,0,0,0,0,0,0,0,0,0,0,751,
scooby_state_47e143|21|1 750,0,0,0,0,0,0,1,0,0,0,0,0,0,0,751,
scooby_state_47e143|29|1 750,0,0,0,0,1,0,0,0,0,0,0,0,0,0,751,
scooby_state_47e143|41|1 750,0,0,0,0,0,0,0,0,1,0,0,0,0,0,751,
scooby_state_47e143|34|1 749,0,0,0,0,0,1,0,0,0,0,0,0,1,0,751,
scooby_state_47e143|2|1 750,0,0,0,0,0,0,0,0,1,0,0,0,0,0,751,
scooby_state_47e18b|31|1 751,0,0,0,0,0,0,0,0,0,0,0,0,0,0,751,
scooby_state_47e143|5|1 750,0,0,0,0,0,0,0,0,0,0,0,0,1,0,751,
scooby_state_47e143|60|1 748,0,0,0,1,0,0,0,1,0,1,0,0,0,0,751,
scooby_state_47e143|48|1 749,0,0,0,1,0,0,0,1,0,0,0,0,0,0,751,
scooby_state_47e143|57|1 750,0,0,0,0,0,1,0,0,0,0,0,0,0,0,751,
scooby_state_47e143|32|1 750,1,0,0,0,0,0,0,0,0,0,0,0,0,0,751,
scooby_state_47e143|25|1 751,0,0,0,0,0,0,0,0,0,0,0,0,0,0,751,
scooby_state_47e143|27|1 751,0,0,0,0,0,0,0,0,0,0,0,0,0,0,751,
scooby_state_47e143|13|1 750,1,0,0,0,0,0,0,0,0,0,0,0,0,0,751,
scooby_state_47e143|9|1 751,0,0,0,0,0,0,0,0,0,0,0,0,0,0,751,
scooby_state_47e143|54|1 751,0,0,0,0,0,0,0,0,0,0,0,0,0,0,751,
scooby_state_47e18b|6|1 749,0,1,1,0,0,0,0,0,0,0,0,0,0,0,751,
scooby_state_47e143|45|1 750,0,0,0,0,0,1,0,0,0,0,0,0,0,0,751,
scooby_state_47e18b|53|1 751,0,0,0,0,0,0,0,0,0,0,0,0,0,0,751,
scooby_state_47e143|43|1 748,0,1,0,0,0,0,0,0,0,1,0,0,1,0,751,
scooby_state_47e143|3|1 749,0,0,0,0,0,0,0,0,0,1,0,0,0,0,750,
scooby_state_47e143|23|1 746,0,0,1,0,0,1,0,0,0,0,0,2,0,0,750,
scooby_state_47e18b|42|1 750,0,0,0,0,0,0,0,0,0,0,0,0,0,0,750,
scooby_state_47e143|12|1 749,0,1,0,0,0,0,0,0,0,0,0,0,0,0,750,
scooby_state_47e143|59|1 748,0,0,0,0,0,1,0,0,0,0,0,0,0,1,750,
scooby_state_47e143|52|1 749,0,1,0,0,0,0,0,0,0,0,0,0,0,0,750,
scooby_state_47e143|51|1 747,0,1,0,0,0,1,0,0,0,0,1,0,0,0,750,
scooby_state_47e143|28|1 749,0,0,0,0,0,0,0,0,0,0,0,0,1,0,750,
scooby_state_47e143|39|1 749,0,0,0,0,0,1,0,0,0,0,0,0,0,0,750,
scooby_state_47e143|35|1 749,1,0,0,0,0,0,0,0,0,0,0,0,0,0,750,
scooby_state_47e143|7|1 749,0,0,0,0,0,0,0,0,0,0,1,0,0,0,750,
scooby_state_47e143|36|1 750,0,0,0,0,0,0,0,0,0,0,0,0,0,0,750,
scooby_state_47e143|4|1 748,0,1,0,0,0,0,0,0,0,0,0,1,0,0,750,
scooby_state_47e143|24|1 750,0,0,0,0,0,0,0,0,0,0,0,0,0,0,750,
scooby_state_47e143|50|1 749,1,0,0,0,0,0,0,0,0,0,0,0,0,0,750,
scooby_state_47e143|31|1 748,0,0,0,0,0,0,0,0,1,0,0,0,0,0,749,
scooby_state_47e143|47|1 747,0,0,0,0,0,0,0,1,0,0,1,0,0,0,749,
scooby_state_47e143|58|1 749,0,0,0,0,0,0,0,0,0,0,0,0,0,0,749,
scooby_state_47e143|62|1 747,0,0,0,0,0,1,0,0,0,0,0,1,0,0,749,
scooby_state_47e143|42|1 747,0,0,0,1,0,0,0,0,0,0,0,0,0,1,749,
scooby_state_47e143|46|1 749,0,0,0,0,0,0,0,0,0,0,0,0,0,0,749,
scooby_state_47e143|6|1 749,0,0,0,0,0,0,0,0,0,0,0,0,0,0,749,
scooby_state_46c790|28|1 715,0,0,0,0,0,0,0,0,0,0,1,0,0,0,716,
scooby_state_46c85c|41|1 713,0,0,0,1,0,1,0,0,0,0,0,0,0,0,715,
scooby_state_46c790|38|1 713,0,0,0,0,0,0,0,1,0,0,0,0,0,0,714,
scooby_state_46c790|27|1 709,0,0,0,0,0,0,0,0,0,0,0,0,0,0,709,
scooby_state_46c790|39|1 709,0,0,0,0,0,0,0,0,0,0,0,0,0,0,709,
scooby_state_46c85c|38|1 703,0,0,0,0,0,0,0,0,0,0,0,1,0,0,704,
scooby_state_46c85c|39|1 703,0,0,0,0,0,0,0,0,0,0,0,0,0,0,703,
scooby_state_46c790|41|1 700,0,0,0,0,0,0,0,0,0,0,0,0,0,0,700,
scooby_state_46c775|0|0 696,0,1,0,0,1,0,0,0,0,0,0,0,0,0,698,
scooby_state_46c862|0|0 697,0,0,0,0,0,0,0,0,0,0,0,0,0,0,697,
scooby_state_46c8ed|0|0 693,0,0,0,0,1,0,0,0,1,0,0,0,2,0,697,
scooby_state_46c7ac|41|1 690,0,0,0,0,0,0,0,0,0,0,0,0,0,0,690,
scooby_state_46c85c|28|1 688,0,0,0,1,0,0,0,0,0,0,0,0,0,0,689,
scooby_state_46c86e|27|1 686,0,0,0,0,0,0,1,0,0,0,0,0,0,0,687,
scooby_state_46c790|36|1 685,0,0,0,0,0,0,0,0,0,0,0,0,0,0,685,
scooby_state_47d552|3|0 173,8,12,10,13,8,13,8,8,369,13,8,9,7,25,684,
scooby_state_47d552|20|0 183,5,11,8,10,8,10,10,12,373,5,5,7,7,30,684,
scooby_state_47d552|9|0 207,6,10,8,10,6,12,10,10,351,4,7,5,7,31,684,
scooby_state_47d552|16|0 194,9,8,9,8,9,8,12,10,367,11,8,4,6,21,684,
scooby_state_47d548|16|0 186,10,12,5,4,11,11,9,9,371,8,7,8,8,25,684,
scooby_state_47d548|13|0 189,4,8,6,13,8,9,7,8,374,8,10,7,8,25,684,
scooby_state_47d548|2|0 181,6,8,7,11,9,10,5,7,386,9,9,7,6,23,684,
scooby_state_47d548|23|0 190,14,10,10,9,8,8,11,8,356,9,6,6,9,29,683,
scooby_state_47d548|10|0 188,12,7,10,12,10,11,8,8,355,5,6,13,8,30,683,
scooby_state_47d552|22|0 180,8,9,7,7,8,8,8,13,369,7,10,6,10,33,683,
scooby_state_47d552|17|0 197,9,12,10,4,8,8,7,5,350,7,9,15,9,33,683,
scooby_state_47d552|11|0 181,7,12,5,7,9,4,8,12,379,6,7,8,9,29,683,
scooby_state_47d552|24|0 178,9,9,11,10,9,6,11,8,365,2,8,7,7,43,683,
scooby_state_47d55e|13|0 24,7,7,4,6,10,9,5,7,549,8,7,8,7,25,683,
scooby_state_47d548|17|0 186,7,8,13,11,11,4,7,10,364,9,8,9,8,28,683,
scooby_state_47d548|22|0 198,3,9,6,6,8,10,9,9,358,7,8,8,11,33,683,
scooby_state_47d552|25|0 184,7,7,10,11,8,13,10,12,371,12,4,9,9,16,683,
scooby_state_47d548|0|0 196,4,9,5,11,6,11,8,10,356,9,12,8,7,31,683,
scooby_state_47d548|18|0 188,10,11,5,5,8,9,12,9,369,11,8,7,8,23,683,
scooby_state_47d548|7|0 211,9,11,6,4,7,10,8,7,355,10,8,8,8,21,683,
scooby_state_47d552|0|0 176,8,10,6,8,9,5,11,11,377,6,6,9,9,32,683,
scooby_state_47d552|14|0 190,5,16,10,11,8,12,9,10,357,14,4,7,8,22,683,
scooby_state_47d552|2|0 187,8,8,12,7,10,6,10,7,362,3,11,9,9,34,683,
scooby_state_47d548|11|0 204,4,8,5,8,8,9,8,11,358,9,9,8,7,27,683,
scooby_state_47d548|6|0 189,4,9,13,13,9,6,6,9,361,9,7,7,8,33,683,
scooby_state_47d548|3|0 203,13,10,9,6,10,10,10,8,355,11,6,7,10,15,683,
scooby_state_47d548|25|0 199,11,9,9,4,9,10,12,8,357,10,9,8,7,21,683,
scooby_state_47d548|20|0 188,9,7,4,7,7,9,9,9,374,10,11,5,6,28,683,
scooby_state_47d552|23|0 211,8,11,13,11,8,12,9,6,335,15,6,13,6,19,683,
scooby_state_47d552|13|0 184,10,7,11,9,10,7,10,9,360,2,10,8,8,38,683,
scooby_state_47d548|24|0 183,4,9,5,13,10,10,8,6,373,6,12,7,3,34,683,
scooby_state_47d552|6|0 201,8,8,10,7,10,8,6,5,345,6,9,13,9,38,683,
scooby_state_47d552|27|0 189,9,7,10,11,8,12,11,10,362,11,10,2,9,22,683,
scooby_state_47d548|9|0 179,6,10,3,7,8,11,10,8,373,11,12,6,8,31,683,
scooby_state_47d552|10|0 204,11,6,10,10,12,8,7,5,340,12,9,11,6,32,683,
scooby_state_47d548|15|0 185,6,5,11,13,7,12,7,11,359,11,10,8,4,33,682,
scooby_state_47d548|4|0 185,7,7,9,11,9,9,8,9,362,11,7,9,7,32,682,
scooby_state_47d548|14|0 193,12,8,9,4,8,10,11,8,364,9,7,9,10,20,682,
scooby_state_47d548|27|0 177,9,17,5,6,9,12,9,7,374,11,6,6,11,23,682,
scooby_state_47d548|28|0 197,8,7,12,11,8,6,7,8,359,6,6,11,9,27,682,
scooby_state_47d548|8|0 178,9,8,12,12,10,6,8,9,372,8,8,9,8,25,682,
scooby_state_47d552|28|0 183,9,10,11,8,9,8,5,6,363,9,9,12,5,35,682,
scooby_state_47d548|1|0 194,12,8,10,10,12,8,9,6,350,7,8,8,9,31,682,
scooby_state_47d552|5|0 180,7,12,7,9,9,8,12,10,376,12,4,8,7,21,682,
scooby_state_47d552|15|0 188,8,6,9,8,11,7,6,6,359,5,12,8,7,42,682,
scooby_state_47d548|21|0 190,11,7,16,11,12,8,8,10,352,10,5,10,7,25,682,
scooby_state_47d552|21|0 189,14,6,9,11,14,8,7,6,349,11,11,10,7,30,682,
scooby_state_47d552|7|0 171,10,5,11,12,8,11,12,13,374,9,9,6,6,25,682,
scooby_state_47d552|8|0 192,12,12,14,6,8,8,6,6,348,11,6,11,10,32,682,
scooby_state_47d552|4|0 190,8,6,9,8,11,8,7,6,354,6,13,10,7,39,682,
scooby_state_47d552|18|0 173,10,9,9,12,5,12,14,13,371,7,9,7,8,23,682,
scooby_state_47d552|1|0 167,12,7,11,10,8,13,8,9,373,13,10,11,6,24,682,
scooby_state_47d548|5|0 209,12,11,5,4,7,12,10,7,353,7,8,10,6,21,682,
scooby_state_47d55e|20|0 16,10,7,4,9,6,10,5,5,550,10,10,15,6,19,682,
scooby_state_47d552|19|0 192,8,9,14,7,9,10,6,6,345,10,8,8,9,40,681,
scooby_state_47d548|12|0 192,12,10,13,9,8,8,8,8,352,11,6,8,9,27,681,
scooby_state_47d55e|7|0 22,8,9,5,9,6,9,5,8,542,6,7,12,4,29,681,
scooby_state_47d552|12|0 178,12,7,13,11,6,11,10,7,359,13,10,11,9,24,681,
scooby_state_47d552|26|0 191,8,6,8,5,11,6,5,6,363,5,11,10,7,39,681,
scooby_state_47d548|26|0 187,7,4,13,12,12,9,6,9,366,10,7,5,5,29,681,
scooby_state_46c790|37|1 679,0,0,0,0,0,1,0,0,0,0,0,1,0,0,681,
scooby_state_47d55e|18|0 22,10,7,6,9,5,9,7,7,544,7,8,12,5,23,681,
scooby_state_47d55e|8|0 23,5,9,10,6,8,8,9,4,548,6,6,1,11,27,681,
scooby_state_47d548|19|0 196,8,7,11,11,9,7,10,8,356,5,10,8,7,28,681,
scooby_state_47d55e|17|0 23,6,5,7,6,8,6,5,7,561,7,6,5,7,21,680,
scooby_state_47d55e|9|0 27,9,7,4,9,7,10,5,5,536,11,8,13,4,25,680,
scooby_state_47d55e|0|0 18,10,8,4,9,8,8,4,7,548,9,6,11,6,24,680,
scooby_state_47d55e|25|0 43,8,9,10,8,5,7,6,6,534,6,8,5,5,20,680,
scooby_state_46c7ac|40|2 678,0,0,0,0,1,0,0,0,0,0,0,1,0,0,680,
scooby_state_47d55e|3|0 18,8,8,9,9,7,9,10,6,546,7,8,7,4,23,679,
scooby_state_47d55e|1|0 24,7,11,9,8,6,6,8,8,544,4,5,3,5,31,679,
scooby_state_46c790|35|1 679,0,0,0,0,0,0,0,0,0,0,0,0,0,0,679,
scooby_state_47d55e|16|0 20,9,9,6,12,5,9,7,8,540,6,7,9,4,28,679,
scooby_state_47d55e|15|0 23,8,5,7,7,11,6,7,5,556,9,5,5,8,17,679,
scooby_state_47d55e|14|0 21,7,12,12,8,5,10,8,4,538,7,10,8,5,23,678,
scooby_state_47d55e|4|0 21,6,7,7,6,10,6,4,7,563,8,4,6,8,15,678,
scooby_state_47d55e|11|0 20,9,5,6,8,6,7,5,6,553,9,7,9,7,21,678,
scooby_state_47d55e|23|0 30,7,10,9,11,7,6,10,9,529,4,5,6,6,29,678,
scooby_state_47d55e|2|0 16,7,4,4,5,8,9,4,4,565,9,8,6,6,22,677,
scooby_state_47d55e|21|0 26,8,10,10,8,10,5,9,8,536,8,5,2,6,26,677,
scooby_state_47d55e|24|0 23,8,6,5,6,9,6,5,7,550,8,7,7,7,23,677,
scooby_state_46c790|34|1 676,0,1,0,0,0,0,0,0,0,0,0,0,0,0,677,
scooby_state_47d55e|19|0 21,5,9,12,7,10,5,8,5,550,5,3,1,10,26,677,
scooby_state_46c75c|23|1 675,0,0,1,0,0,0,0,0,0,0,0,0,0,0,676,
scooby_state_46c75c|30|1 676,0,0,0,0,0,0,0,0,0,0,0,0,0,0,676,
scooby_state_46c71f|30|1 676,0,0,0,0,0,0,0,0,0,0,0,0,0,0,676,
scooby_state_46c71f|34|1 674,0,0,0,0,1,0,0,0,0,0,0,1,0,0,676,
scooby_state_46c71f|37|1 674,0,0,0,0,0,1,0,0,0,0,1,0,0,0,676,
scooby_state_46c75c|29|1 676,0,0,0,0,0,0,0,0,0,0,0,0,0,0,676,
scooby_state_46c8be|32|1 675,0,0,0,0,0,0,0,0,1,0,0,0,0,0,676,
scooby_state_46c75c|25|1 675,0,0,0,0,0,0,0,0,0,0,1,0,0,0,676,
scooby_state_46c8be|21|1 674,0,0,0,0,0,0,0,0,0,0,1,1,0,0,676,
scooby_state_46c75c|33|1 674,0,0,0,0,0,1,1,0,0,0,0,0,0,0,676,
scooby_state_46c71f|31|1 675,0,0,1,0,0,0,0,0,0,0,0,0,0,0,676,
scooby_state_46c75c|38|1 675,0,1,0,0,0,0,0,0,0,0,0,0,0,0,676,
scooby_state_46c8be|37|1 675,0,0,0,0,0,0,0,1,0,0,0,0,0,0,676,
scooby_state_46c71f|24|1 676,0,0,0,0,0,0,0,0,0,0,0,0,0,0,676,
scooby_state_46c75c|24|1 674,1,0,0,0,0,0,0,1,0,0,0,0,0,0,676,
scooby_state_46c8be|38|1 676,0,0,0,0,0,0,0,0,0,0,0,0,0,0,676,
scooby_state_46c75c|26|1 676,0,0,0,0,0,0,0,0,0,0,0,0,0,0,676,
scooby_state_46c75c|28|1 676,0,0,0,0,0,0,0,0,0,0,0,0,0,0,676,
scooby_state_46c71f|33|1 674,0,0,0,0,0,0,1,0,0,0,0,1,0,0,676,
scooby_state_46c71f|22|1 676,0,0,0,0,0,0,0,0,0,0,0,0,0,0,676,
scooby_state_46c8be|33|1 674,0,0,0,0,0,1,0,0,0,0,1,0,0,0,676,
scooby_state_46c71f|0|0 674,0,0,0,0,0,0,1,1,0,0,0,0,0,0,676,
scooby_state_46c71f|25|1 676,0,0,0,0,0,0,0,0,0,0,0,0,0,0,676,
scooby_state_46c8be|35|1 673,0,1,0,0,0,0,0,0,1,0,0,0,1,0,676,
scooby_state_46c75c|34|1 676,0,0,0,0,0,0,0,0,0,0,0,0,0,0,676,
scooby_state_46c8be|26|1 675,0,0,0,0,0,0,0,0,0,0,0,0,0,1,676,
scooby_state_46c75c|37|1 673,0,0,0,0,1,0,0,0,1,0,0,0,1,0,676,
scooby_state_46c71f|32|1 675,0,0,0,0,0,0,0,0,0,0,0,0,1,0,676,
scooby_state_46c8be|29|1 675,0,0,0,0,0,0,0,0,0,0,1,0,0,0,676,
scooby_state_46c75c|31|1 675,0,0,0,0,0,0,0,0,0,1,0,0,0,0,676,
scooby_state_46c71f|35|1 676,0,0,0,0,0,0,0,0,0,0,0,0,0,0,676,
scooby_state_46c8be|22|1 675,0,0,0,0,0,0,0,0,0,0,1,0,0,0,676,
scooby_state_46c8be|25|1 675,0,0,0,0,0,0,0,0,0,0,0,1,0,0,676,
scooby_state_46c75c|35|1 673,0,1,1,0,1,0,0,0,0,0,0,0,0,0,676,
scooby_state_47d55e|22|0 21,9,6,6,6,9,7,4,6,551,9,7,11,6,18,676,
scooby_state_46c75c|36|1 676,0,0,0,0,0,0,0,0,0,0,0,0,0,0,676,
scooby_state_46c8be|34|1 675,0,0,0,0,0,0,0,0,0,0,0,1,0,0,676,
scooby_state_46c75c|27|1 672,0,1,0,0,1,0,0,0,2,0,0,0,0,0,676,
scooby_state_46c790|32|1 673,0,0,0,1,0,0,0,0,0,0,0,0,1,1,676,
scooby_state_46c71f|27|1 675,0,0,1,0,0,0,0,0,0,0,0,0,0,0,676,
scooby_state_46c71f|28|1 676,0,0,0,0,0,0,0,0,0,0,0,0,0,0,676,
scooby_state_46c75c|22|1 676,0,0,0,0,0,0,0,0,0,0,0,0,0,0,676,
scooby_state_46c71f|26|1 674,0,0,1,0,0,0,0,0,0,0,1,0,0,0,676,
scooby_state_46c8be|31|1 674,0,0,0,0,0,0,0,1,1,0,0,0,0,0,676,
scooby_state_46c8be|27|1 672,0,0,0,0,0,1,1,0,0,0,1,1,0,0,676,
scooby_state_46c8be|24|1 675,0,0,1,0,0,0,0,0,0,0,0,0,0,0,676,
scooby_state_47d55e|6|0 21,7,6,5,6,10,4,9,7,545,7,7,4,8,30,676,
scooby_state_46c8be|23|1 673,0,0,0,0,0,0,0,0,2,1,0,0,0,0,676,
scooby_state_46c71f|36|1 676,0,0,0,0,0,0,0,0,0,0,0,0,0,0,676,
scooby_state_46c75c|0|0 675,0,1,0,0,0,0,0,0,0,0,0,0,0,0,676,
scooby_state_46c71f|38|1 674,0,0,0,0,0,0,0,0,2,0,0,0,0,0,676,
scooby_state_46c71f|23|1 676,0,0,0,0,0,0,0,0,0,0,0,0,0,0,676,
scooby_state_46c75c|32|1 674,0,0,0,0,0,1,1,0,0,0,0,0,0,0,676,
scooby_state_46c8be|36|1 675,0,0,0,0,0,0,1,0,0,0,0,0,0,0,676,
scooby_state_46c71f|21|1 675,0,0,0,0,0,0,0,0,0,0,0,0,0,1,676,
scooby_state_46c71f|29|1 676,0,0,0,0,0,0,0,0,0,0,0,0,0,0,676,
scooby_state_46c8be|30|1 675,1,0,0,0,0,0,0,0,0,0,0,0,0,0,676,
scooby_state_46c8be|28|1 675,0,0,0,0,0,0,0,0,1,0,0,0,0,0,676,
scooby_state_46c8be|52|1 673,0,0,0,1,0,0,0,0,0,0,0,0,0,1,675,
scooby_state_46c71f|43|1 673,0,0,0,0,0,0,0,0,0,1,0,0,0,1,675,
scooby_state_46c75c|3|1 673,0,0,0,0,0,0,0,0,0,0,0,1,1,0,675,
scooby_state_46c71f|53|1 674,0,0,0,0,0,0,0,0,1,0,0,0,0,0,675,
scooby_state_46c8be|56|1 673,0,0,0,0,0,0,0,1,0,0,0,0,0,1,675,
scooby_state_46c75c|54|1 675,0,0,0,0,0,0,0,0,0,0,0,0,0,0,675,
scooby_state_46c8be|42|1 675,0,0,0,0,0,0,0,0,0,0,0,0,0,0,675,
scooby_state_46c71f|45|1 673,0,0,0,0,1,0,0,0,0,0,0,1,0,0,675,
scooby_state_46c71f|58|1 672,0,0,0,0,0,0,0,1,1,0,0,0,0,1,675,
scooby_state_46c71f|8|1 674,0,0,0,0,0,0,1,0,0,0,0,0,0,0,675,
scooby_state_46c75c|9|1 671,0,2,0,0,0,0,0,0,0,1,1,0,0,0,675,
scooby_state_46c75c|2|1 675,0,0,0,0,0,0,0,0,0,0,0,0,0,0,675,
scooby_state_46c75c|48|1 674,0,0,0,0,0,1,0,0,0,0,0,0,0,0,675,
scooby_state_46c71f|49|1 674,1,0,0,0,0,0,0,0,0,0,0,0,0,0,675,
scooby_state_46c71f|46|1 674,0,0,0,0,0,0,1,0,0,0,0,0,0,0,675,
scooby_state_46c8be|19|1 674,0,0,0,0,0,0,0,0,1,0,0,0,0,0,675,
scooby_state_46c75c|1|1 672,0,0,0,1,0,0,0,0,1,0,0,0,1,0,675,
scooby_state_46c75c|47|1 675,0,0,0,0,0,0,0,0,0,0,0,0,0,0,675,
scooby_state_46c75c|58|1 672,0,0,0,1,0,0,0,0,0,1,0,1,0,0,675,
scooby_state_46c75c|51|1 675,0,0,0,0,0,0,0,0,0,0,0,0,0,0,675,
scooby_state_46c71f|47|1 674,0,0,0,1,0,0,0,0,0,0,0,0,0,0,675,
scooby_state_46c75c|50|1 672,0,0,0,0,0,0,0,2,0,0,0,0,0,1,675,
scooby_state_46c8be|8|1 672,0,0,0,0,0,0,0,0,0,2,0,1,0,0,675,
scooby_state_46c71f|1|1 674,0,0,0,1,0,0,0,0,0,0,0,0,0,0,675,
scooby_state_46c8be|18|1 672,1,0,1,0,0,0,0,0,1,0,0,0,0,0,675,
scooby_state_46c71f|42|1 672,0,0,1,1,0,0,0,0,1,0,0,0,0,0,675,
scooby_state_46c8be|16|1 672,1,0,0,1,0,0,0,0,0,0,0,1,0,0,675,
scooby_state_46c8be|53|1 673,0,0,1,0,0,0,0,0,0,0,0,1,0,0,675,
scooby_state_46c71f|11|1 675,0,0,0,0,0,0,0,0,0,0,0,0,0,0,675,
scooby_state_46c75c|7|1 673,0,1,0,0,0,0,0,0,0,1,0,0,0,0,675,
scooby_state_46c75c|53|1 673,0,0,0,0,0,1,1,0,0,0,0,0,0,0,675,
scooby_state_46c8be|59|1 674,0,0,0,0,0,0,0,0,1,0,0,0,0,0,675,
scooby_state_46c71f|10|1 675,0,0,0,0,0,0,0,0,0,0,0,0,0,0,675,
scooby_state_46c8be|49|1 675,0,0,0,0,0,0,0,0,0,0,0,0,0,0,675,
scooby_state_46c8be|2|1 673,0,0,0,0,0,0,0,0,1,0,0,0,1,0,675,
scooby_state_46c75c|14|1 675,0,0,0,0,0,0,0,0,0,0,0,0,0,0,675,
scooby_state_46c75c|4|1 674,0,0,0,0,0,0,0,0,0,0,0,0,0,1,675,
scooby_state_46c8be|3|1 674,0,0,0,0,1,0,0,0,0,0,0,0,0,0,675,
scooby_state_46c75c|42|1 673,0,0,0,1,0,0,0,0,0,0,0,1,0,0,675,
scooby_state_46c75c|19|1 674,0,0,0,0,0,0,0,0,0,0,0,1,0,0,675,
scooby_state_46c8be|50|1 673,0,0,0,0,0,0,0,0,2,0,0,0,0,0,675,
scooby_state_46c75c|45|1 673,1,0,0,0,0,0,0,0,0,0,0,1,0,0,675,
scooby_state_46c71f|5|1 674,0,0,0,0,0,0,0,0,0,0,0,1,0,0,675,
scooby_state_46c71f|54|1 674,0,0,0,1,0,0,0,0,0,0,0,0,0,0,675,
scooby_state_46c71f|4|1 675,0,0,0,0,0,0,0,0,0,0,0,0,0,0,675,
scooby_state_46c8be|51|1 672,1,0,0,1,0,0,0,1,0,0,0,0,0,0,675,
scooby_state_46c8be|15|1 671,0,0,0,0,1,0,0,0,2,0,0,0,1,0,675,
scooby_state_46c71f|3|1 674,1,0,0,0,0,0,0,0,0,0,0,0,0,0,675,
scooby_state_46c75c|41|1 672,1,0,0,0,0,0,1,0,0,0,1,0,0,0,675,
scooby_state_46c8be|46|1 674,0,0,0,0,0,1,0,0,0,0,0,0,0,0,675,
scooby_state_46c8be|40|1 674,0,0,0,0,0,0,0,0,0,0,1,0,0,0,675,
scooby_state_46c75c|62|1 673,0,0,0,0,0,0,0,0,0,0,0,1,1,0,675,
scooby_state_46c75c|60|1 674,0,0,0,1,0,0,0,0,0,0,0,0,0,0,675,
scooby_state_46c8be|4|1 674,0,0,1,0,0,0,0,0,0,0,0,0,0,0,675,
scooby_state_46c8be|62|1 675,0,0,0,0,0,0,0,0,0,0,0,0,0,0,675,
scooby_state_46c8be|5|1 673,0,0,0,1,0,0,0,0,0,0,0,0,0,1,675,
scooby_state_46c71f|2|1 674,0,0,0,0,0,1,0,0,0,0,0,0,0,0,675,
scooby_state_46c71f|59|1 675,0,0,0,0,0,0,0,0,0,0,0,0,0,0,675,
scooby_state_46c8be|39|1 674,0,0,1,0,0,0,0,0,0,0,0,0,0,0,675,
scooby_state_46c8be|45|1 675,0,0,0,0,0,0,0,0,0,0,0,0,0,0,675,
scooby_state_46c8be|6|1 673,0,0,0,0,1,0,0,0,0,0,1,0,0,0,675,
scooby_state_46c8be|9|1 672,0,0,0,0,0,2,0,0,0,0,1,0,0,0,675,
scooby_state_46c75c|11|1 673,0,0,0,0,0,1,0,0,0,0,1,0,0,0,675,
scooby_state_46c8be|20|1 673,0,1,0,0,0,0,1,0,0,0,0,0,0,0,675,
scooby_state_46c75c|12|1 675,0,0,0,0,0,0,0,0,0,0,0,0,0,0,675,
scooby_state_46c71f|6|1 674,0,0,0,0,0,0,0,0,0,0,1,0,0,0,675,
scooby_state_46c8be|14|1 674,0,0,0,0,0,0,1,0,0,0,0,0,0,0,675,
scooby_state_46c8be|41|1 675,0,0,0,0,0,0,0,0,0,0,0,0,0,0,675,
scooby_state_46c75c|15|1 674,0,0,0,1,0,0,0,0,0,0,0,0,0,0,675,
scooby_state_46c75c|16|1 674,0,0,0,0,0,0,0,0,0,0,1,0,0,0,675,
scooby_state_46c75c|57|1 673,0,1,0,0,0,0,0,1,0,0,0,0,0,0,675,
scooby_state_46c71f|55|1 675,0,0,0,0,0,0,0,0,0,0,0,0,0,0,675,
scooby_state_46c75c|49|1 673,0,1,0,0,0,0,0,0,0,0,0,1,0,0,675,
scooby_state_46c8be|63|1 674,0,0,0,0,0,0,0,0,0,1,0,0,0,0,675,
scooby_state_46c71f|50|1 675,0,0,0,0,0,0,0,0,0,0,0,0,0,0,675,
scooby_state_46c71f|44|1 672,0,0,0,0,0,0,1,1,0,1,0,0,0,0,675,
scooby_state_46c71f|62|1 673,0,0,0,0,0,0,1,0,0,0,0,1,0,0,675,
scooby_state_46c75c|52|1 674,0,0,0,0,0,0,0,0,0,0,0,0,1,0,675,
scooby_state_46c8be|57|1 674,0,0,0,0,0,1,0,0,0,0,0,0,0,0,675,
scooby_state_46c8be|1|1 674,0,1,0,0,0,0,0,0,0,0,0,0,0,0,675,
scooby_state_46c8be|54|1 674,0,0,0,0,0,0,0,0,0,1,0,0,0,0,675,
scooby_state_46c8be|55|1 671,0,0,0,0,0,0,1,1,0,1,1,0,0,0,675,
scooby_state_46c71f|12|1 674,0,0,1,0,0,0,0,0,0,0,0,0,0,0,675,
scooby_state_46c71f|40|1 674,0,0,0,0,0,0,0,0,0,0,0,1,0,0,675,
scooby_state_46c8be|10|1 675,0,0,0,0,0,0,0,0,0,0,0,0,0,0,675,
scooby_state_46c75c|56|1 674,0,0,1,0,0,0,0,0,0,0,0,0,0,0,675,
scooby_state_46c8be|7|1 675,0,0,0,0,0,0,0,0,0,0,0,0,0,0,675,
scooby_state_46c8be|61|1 675,0,0,0,0,0,0,0,0,0,0,0,0,0,0,675,
scooby_state_46c71f|48|1 672,0,0,0,1,0,0,0,0,0,0,1,0,0,1,675,
scooby_state_46c71f|15|1 674,0,0,0,0,1,0,0,0,0,0,0,0,0,0,675,
scooby_state_46c71f|60|1 675,0,0,0,0,0,0,0,0,0,0,0,0,0,0,675,
scooby_state_46c75c|61|1 675,0,0,0,0,0,0,0,0,0,0,0,0,0,0,675,
scooby_state_46c8be|12|1 674,0,0,0,1,0,0,0,0,0,0,0,0,0,0,675,
scooby_state_46c71f|19|1 674,0,0,0,1,0,0,0,0,0,0,0,0,0,0,675,
scooby_state_46c8be|47|1 673,0,0,0,0,0,0,1,0,1,0,0,0,0,0,675,
scooby_state_46c8be|60|1 675,0,0,0,0,0,0,0,0,0,0,0,0,0,0,675,
scooby_state_46c71f|63|1 672,0,0,1,0,0,0,0,0,0,0,0,0,0,2,675,
scooby_state_46c71f|16|1 674,0,0,0,1,0,0,0,0,0,0,0,0,0,0,675,
scooby_state_46c75c|63|1 672,0,0,0,0,1,1,0,0,1,0,0,0,0,0,675,
scooby_state_46c71f|9|1 673,0,0,1,1,0,0,0,0,0,0,0,0,0,0,675,
scooby_state_46c71f|13|1 674,0,0,0,1,0,0,0,0,0,0,0,0,0,0,675,
scooby_state_46c75c|59|1 673,0,1,0,0,0,0,0,0,0,0,0,0,0,1,675,
scooby_state_46c75c|43|1 673,0,0,0,0,1,0,0,0,0,0,0,0,0,1,675,
scooby_state_46c75c|55|1 673,0,0,0,0,0,0,2,0,0,0,0,0,0,0,675,
scooby_state_46c75c|39|1 673,0,0,0,0,1,0,0,0,0,0,1,0,0,0,675,
scooby_state_46c71f|56|1 675,0,0,0,0,0,0,0,0,0,0,0,0,0,0,675,
scooby_state_46c75c|46|1 673,0,0,0,0,1,0,0,0,0,1,0,0,0,0,675,
scooby_state_46c8be|43|1 671,0,0,1,0,0,0,0,0,0,1,0,2,0,0,675,
scooby_state_46c75c|44|1 675,0,0,0,0,0,0,0,0,0,0,0,0,0,0,675,
scooby_state_46c8be|44|1 671,0,0,0,0,0,1,0,1,0,0,0,1,0,1,675,
scooby_state_46c71f|51|1 674,0,0,0,0,0,0,0,1,0,0,0,0,0,0,675,
scooby_state_46c71f|39|1 674,0,0,0,0,0,1,0,0,0,0,0,0,0,0,675,
scooby_state_46c71f|18|1 675,0,0,0,0,0,0,0,0,0,0,0,0,0,0,675,
scooby_state_47d55e|10|0 21,8,12,11,9,7,4,8,7,535,6,4,6,5,32,675,
scooby_state_46c71f|41|1 675,0,0,0,0,0,0,0,0,0,0,0,0,0,0,675,
scooby_state_46c71f|14|1 674,0,0,0,0,0,0,0,0,0,0,0,0,0,1,675,
scooby_state_46c71f|17|1 672,0,0,0,0,0,0,1,0,0,0,0,0,1,1,675,
scooby_state_46c71f|61|1 675,0,0,0,0,0,0,0,0,0,0,0,0,0,0,675,
scooby_state_46c8be|13|1 673,0,0,0,0,0,0,0,0,1,0,0,0,1,0,675,
scooby_state_46c8be|11|1 675,0,0,0,0,0,0,0,0,0,0,0,0,0,0,675,
scooby_state_46c75c|13|1 673,0,0,0,0,0,0,0,1,0,1,0,0,0,0,675,
scooby_state_46c71f|7|1 674,0,0,0,0,0,0,0,0,1,0,0,0,0,0,675,
scooby_state_46c8be|17|1 674,0,0,1,0,0,0,0,0,0,0,0,0,0,0,675,
scooby_state_46c75c|6|1 673,0,1,0,0,0,0,0,0,0,0,0,0,1,0,675,
scooby_state_46c8be|48|1 674,0,0,0,0,1,0,0,0,0,0,0,0,0,0,675,
scooby_state_46c71f|57|1 674,0,1,0,0,0,0,0,0,0,0,0,0,0,0,675,
scooby_state_46c75c|8|1 674,0,0,0,0,0,0,0,0,0,0,0,1,0,0,675,
scooby_state_46c75c|5|1 674,0,0,0,0,0,0,0,0,0,0,0,1,0,0,675,
scooby_state_46c75c|10|1 674,0,0,1,0,0,0,0,0,0,0,0,0,0,0,675,
scooby_state_46c75c|17|1 674,0,0,0,0,0,0,0,0,0,0,1,0,0,0,675,
scooby_state_46c75c|40|1 674,0,0,0,0,0,0,0,0,1,0,0,0,0,0,675,
scooby_state_46c8be|0|0 673,1,0,0,0,0,0,0,0,1,0,0,0,0,0,675,
scooby_state_46c71f|52|1 671,0,0,0,1,0,0,1,0,1,0,0,0,1,0,675,
scooby_state_46c75c|21|1 673,0,0,0,0,0,0,1,0,1,0,0,0,0,0,675,
scooby_state_46c71f|20|1 674,0,0,0,0,0,0,1,0,0,0,0,0,0,0,675,
scooby_state_46c75c|18|1 674,0,0,1,0,0,0,0,0,0,0,0,0,0,0,675,
scooby_state_46c75c|20|1 674,0,0,0,0,0,0,1,0,0,0,0,0,0,0,675,
scooby_state_46c8be|58|1 675,0,0,0,0,0,0,0,0,0,0,0,0,0,0,675,
scooby_state_46c790|33|1 674,0,0,0,0,0,0,0,0,0,0,0,0,0,0,674,
scooby_state_46c790|30|1 669,0,0,1,0,0,0,1,0,0,0,1,0,1,0,673,
scooby_state_47d55e|5|0 18,9,7,7,12,4,10,10,8,529,7,8,8,3,33,673,
scooby_state_46c790|31|1 672,0,0,1,0,0,0,0,0,0,0,0,0,0,0,673,
scooby_state_46c85c|35|1 670,0,0,0,0,0,0,0,0,0,1,0,0,0,1,672,
scooby_state_46c790|26|1 670,1,0,0,0,0,0,0,0,0,0,0,0,0,0,671,
scooby_state_46c775|61|1 671,0,0,0,0,0,0,0,0,0,0,0,0,0,0,671,
scooby_state_46c862|39|1 671,0,0,0,0,0,0,0,0,0,0,0,0,0,0,671,
scooby_state_46c790|29|1 671,0,0,0,0,0,0,0,0,0,0,0,0,0,0,671,
scooby_state_46c775|41|1 670,0,0,0,0,1,0,0,0,0,0,0,0,0,0,671,
scooby_state_46c85c|36|1 670,0,0,0,0,0,0,1,0,0,0,0,0,0,0,671,
scooby_state_46c775|50|1 669,0,0,0,0,0,0,1,0,0,0,0,0,1,0,671,
scooby_state_46c8ed|39|1 669,0,1,0,0,0,0,0,0,0,1,0,0,0,0,671,
scooby_state_46c862|61|1 670,0,0,1,0,0,0,0,0,0,0,0,0,0,0,671,
scooby_state_46c8ed|61|1 669,0,1,0,0,0,0,0,0,0,0,0,0,0,1,671,
scooby_state_46c862|50|1 670,0,0,0,0,0,0,0,0,0,0,0,1,0,0,671,
scooby_state_46c8ed|50|1 670,0,0,0,0,0,0,0,0,0,0,0,0,0,1,671,
scooby_state_46c775|39|1 669,0,0,0,0,0,0,0,0,0,0,2,0,0,0,671,
scooby_state_47d55e|12|0 27,8,8,9,10,8,6,7,7,528,4,7,3,6,33,671,
scooby_state_46c862|41|1 670,0,0,0,0,0,1,0,0,0,0,0,0,0,0,671,
scooby_state_46c8ed|41|1 668,0,0,0,0,1,0,0,0,0,0,1,0,0,1,671,
scooby_state_46c862|8|1 669,1,0,0,0,0,0,0,0,0,0,0,0,0,0,670,
scooby_state_46c862|30|1 670,0,0,0,0,0,0,0,0,0,0,0,0,0,0,670,
scooby_state_46c862|59|1 669,0,0,0,0,0,1,0,0,0,0,0,0,0,0,670,
scooby_state_46c8ed|63|1 670,0,0,0,0,0,0,0,0,0,0,0,0,0,0,670,
scooby_state_46c862|1|1 670,0,0,0,0,0,0,0,0,0,0,0,0,0,0,670,
scooby_state_46c8ed|28|1 667,0,1,0,0,1,1,0,0,0,0,0,0,0,0,670,
scooby_state_46c862|54|1 670,0,0,0,0,0,0,0,0,0,0,0,0,0,0,670,
scooby_state_46c862|34|1 669,1,0,0,0,0,0,0,0,0,0,0,0,0,0,670,
scooby_state_46c8ed|8|1 670,0,0,0,0,0,0,0,0,0,0,0,0,0,0,670,
scooby_state_46c8ed|30|1 670,0,0,0,0,0,0,0,0,0,0,0,0,0,0,670,
scooby_state_46c775|19|1 670,0,0,0,0,0,0,0,0,0,0,0,0,0,0,670,
scooby_state_46c775|6|1 670,0,0,0,0,0,0,0,0,0,0,0,0,0,0,670,
scooby_state_46c775|30|1 670,0,0,0,0,0,0,0,0,0,0,0,0,0,0,670,
scooby_state_46c862|37|1 668,1,0,1,0,0,0,0,0,0,0,0,0,0,0,670,
scooby_state_46c8ed|34|1 670,0,0,0,0,0,0,0,0,0,0,0,0,0,0,670,
scooby_state_46c775|52|1 668,0,0,0,0,0,0,0,0,0,1,1,0,0,0,670,
scooby_state_46c775|34|1 669,0,0,0,0,0,0,0,0,0,0,1,0,0,0,670,
scooby_state_46c8ed|19|1 668,0,1,0,0,0,0,0,0,0,0,1,0,0,0,670,
scooby_state_46c862|10|1 669,0,0,0,0,0,0,0,0,0,0,1,0,0,0,670,
scooby_state_46c862|6|1 667,0,1,0,0,0,0,0,0,0,0,0,1,0,1,670,
scooby_state_46c775|10|1 669,0,0,0,0,0,0,0,0,0,0,0,0,1,0,670,
scooby_state_46c8ed|6|1 670,0,0,0,0,0,0,0,0,0,0,0,0,0,0,670,
scooby_state_46c8ed|10|1 667,0,0,1,0,1,0,0,0,0,0,1,0,0,0,670,
scooby_state_46c8ed|32|1 669,0,0,0,0,1,0,0,0,0,0,0,0,0,0,670,
scooby_state_46c862|63|1 669,1,0,0,0,0,0,0,0,0,0,0,0,0,0,670,
scooby_state_46c862|28|1 668,0,0,0,0,0,0,0,0,0,1,0,0,0,1,670,
scooby_state_46c862|52|1 670,0,0,0,0,0,0,0,0,0,0,0,0,0,0,670,
scooby_state_46c775|17|1 669,0,0,0,0,0,1,0,0,0,0,0,0,0,0,670,
scooby_state_46c85c|37|1 668,2,0,0,0,0,0,0,0,0,0,0,0,0,0,670,
scooby_state_46c775|63|1 670,0,0,0,0,0,0,0,0,0,0,0,0,0,0,670,
scooby_state_46c775|54|1 670,0,0,0,0,0,0,0,0,0,0,0,0,0,0,670,
scooby_state_46c775|59|1 670,0,0,0,0,0,0,0,0,0,0,0,0,0,0,670,
scooby_state_46c8ed|48|1 668,0,0,0,0,1,1,0,0,0,0,0,0,0,0,670,
scooby_state_46c8ed|1|1 670,0,0,0,0,0,0,0,0,0,0,0,0,0,0,670,
scooby_state_46c8ed|17|1 669,0,0,0,0,1,0,0,0,0,0,0,0,0,0,670,
scooby_state_46c8ed|52|1 669,0,0,0,0,0,0,0,0,1,0,0,0,0,0,670,
scooby_state_46c862|19|1 669,0,0,0,0,0,0,0,1,0,0,0,0,0,0,670,
scooby_state_46c775|8|1 670,0,0,0,0,0,0,0,0,0,0,0,0,0,0,670,
scooby_state_46c775|1|1 668,0,0,0,0,1,0,0,0,0,0,0,1,0,0,670,
scooby_state_46c862|17|1 670,0,0,0,0,0,0,0,0,0,0,0,0,0,0,670,
scooby_state_46c862|48|1 670,0,0,0,0,0,0,0,0,0,0,0,0,0,0,670,
scooby_state_46c775|37|1 670,0,0,0,0,0,0,0,0,0,0,0,0,0,0,670,
scooby_state_46c775|28|1 670,0,0,0,0,0,0,0,0,0,0,0,0,0,0,670,
scooby_state_46c8ed|37|1 669,0,0,0,0,0,0,0,0,0,0,1,0,0,0,670,
scooby_state_46c8ed|59|1 668,0,0,0,0,0,0,0,1,0,1,0,0,0,0,670,
scooby_state_46c775|48|1 669,0,0,0,0,0,0,0,0,0,0,1,0,0,0,670,
scooby_state_46c8ed|54|1 669,1,0,0,0,0,0,0,0,0,0,0,0,0,0,670,
scooby_state_46c862|32|1 668,1,0,0,0,0,0,1,0,0,0,0,0,0,0,670,
scooby_state_46c862|43|1 669,0,0,0,0,0,0,0,0,0,0,0,0,0,0,669,
scooby_state_46c8ed|40|1 667,0,1,0,0,0,0,0,0,1,0,0,0,0,0,669,
scooby_state_46c8ed|15|1 668,0,0,0,0,0,0,0,1,0,0,0,0,0,0,669,
scooby_state_46c775|47|1 667,0,0,0,0,0,0,0,0,0,0,1,0,0,1,669,
scooby_state_46c8ed|35|1 669,0,0,0,0,0,0,0,0,0,0,0,0,0,0,669,
scooby_state_46c775|40|1 667,0,0,0,0,0,0,0,0,1,0,0,1,0,0,669,
scooby_state_46c8ed|21|1 668,0,0,0,0,0,0,0,1,0,0,0,0,0,0,669,
scooby_state_46c8ed|58|1 668,0,0,1,0,0,0,0,0,0,0,0,0,0,0,669,
scooby_state_46c8ed|57|1 668,0,0,0,0,0,0,0,0,1,0,0,0,0,0,669,
scooby_state_46c8ed|47|1 669,0,0,0,0,0,0,0,0,0,0,0,0,0,0,669,
scooby_state_46c775|32|1 667,0,0,0,1,1,0,0,0,0,0,0,0,0,0,669,
scooby_state_46c862|15|1 668,0,0,0,0,1,0,0,0,0,0,0,0,0,0,669,
scooby_state_46c775|21|1 669,0,0,0,0,0,0,0,0,0,0,0,0,0,0,669,
scooby_state_46c775|23|1 669,0,0,0,0,0,0,0,0,0,0,0,0,0,0,669,
scooby_state_46c862|21|1 668,0,0,0,0,0,0,0,0,0,0,0,0,1,0,669,
scooby_state_46c775|35|1 669,0,0,0,0,0,0,0,0,0,0,0,0,0,0,669,
scooby_state_46c775|43|1 668,0,0,0,0,0,0,0,0,0,1,0,0,0,0,669,
scooby_state_46c862|26|1 669,0,0,0,0,0,0,0,0,0,0,0,0,0,0,669,
scooby_state_46c8ed|4|1 669,0,0,0,0,0,0,0,0,0,0,0,0,0,0,669,
scooby_state_46c8ed|36|1 668,0,1,0,0,0,0,0,0,0,0,0,0,0,0,669,
scooby_state_46c862|4|1 665,0,0,0,2,0,0,0,1,0,0,0,0,0,1,669,
scooby_state_46c8ed|12|1 669,0,0,0,0,0,0,0,0,0,0,0,0,0,0,669,
scooby_state_46c8ed|43|1 668,0,0,0,0,0,0,0,0,0,0,0,0,0,1,669,
scooby_state_46c775|15|1 667,0,0,0,1,0,0,0,0,0,0,0,1,0,0,669,
scooby_state_46c862|12|1 668,0,0,0,0,0,0,0,0,1,0,0,0,0,0,669,
scooby_state_46c85c|40|1 667,1,0,0,0,0,0,0,0,0,0,1,0,0,0,669,
scooby_state_46c775|26|1 667,0,0,0,0,0,0,2,0,0,0,0,0,0,0,669,
scooby_state_46c8ed|26|1 664,0,0,0,0,0,0,0,1,0,1,1,0,1,1,669,
scooby_state_46c775|4|1 668,0,0,0,1,0,0,0,0,0,0,0,0,0,0,669,
scooby_state_46c8ed|45|1 668,0,0,0,0,1,0,0,0,0,0,0,0,0,0,669,
scooby_state_46c775|58|1 668,0,0,0,0,0,0,0,1,0,0,0,0,0,0,669,
scooby_state_46c862|57|1 668,0,0,1,0,0,0,0,0,0,0,0,0,0,0,669,
scooby_state_46c775|12|1 669,0,0,0,0,0,0,0,0,0,0,0,0,0,0,669,
scooby_state_46c8ed|23|1 668,1,0,0,0,0,0,0,0,0,0,0,0,0,0,669,
scooby_state_46c862|35|1 668,0,0,0,0,0,0,0,0,1,0,0,0,0,0,669,
scooby_state_46c862|45|1 669,0,0,0,0,0,0,0,0,0,0,0,0,0,0,669,
scooby_state_46c775|57|1 669,0,0,0,0,0,0,0,0,0,0,0,0,0,0,669,
scooby_state_46c862|23|1 669,0,0,0,0,0,0,0,0,0,0,0,0,0,0,669,
scooby_state_46c862|40|1 668,1,0,0,0,0,0,0,0,0,0,0,0,0,0,669,
scooby_state_46c862|47|1 668,0,0,0,0,0,0,1,0,0,0,0,0,0,0,669,
scooby_state_46c775|36|1 668,0,0,0,0,0,0,0,0,1,0,0,0,0,0,669,
scooby_state_46c862|58|1 667,0,0,0,0,1,0,0,0,0,0,0,1,0,0,669,
scooby_state_46c862|36|1 667,0,0,0,0,0,0,0,0,0,0,0,0,2,0,669,
scooby_state_46c775|45|1 669,0,0,0,0,0,0,0,0,0,0,0,0,0,0,669,
scooby_state_46c862|31|1 668,0,0,0,0,0,0,0,0,0,0,0,0,0,0,668,
scooby_state_46c775|49|1 667,0,0,0,0,0,0,0,0,0,0,1,0,0,0,668,
scooby_state_46c775|53|1 664,2,0,0,0,0,0,1,0,0,1,0,0,0,0,668,
scooby_state_46c8ed|18|1 666,0,0,0,0,0,0,0,0,0,0,0,1,1,0,668,
scooby_state_46c775|42|1 668,0,0,0,0,0,0,0,0,0,0,0,0,0,0,668,
scooby_state_46c775|24|1 668,0,0,0,0,0,0,0,0,0,0,0,0,0,0,668,
scooby_state_46c862|14|1 668,0,0,0,0,0,0,0,0,0,0,0,0,0,0,668,
scooby_state_46c8ed|5|1 666,1,0,0,0,0,0,0,0,0,0,0,1,0,0,668,
scooby_state_46c862|46|1 666,0,0,0,1,1,0,0,0,0,0,0,0,0,0,668,
scooby_state_46c775|44|1 667,0,0,0,0,1,0,0,0,0,0,0,0,0,0,668,
scooby_state_46c862|51|1 666,0,0,0,0,0,0,0,1,1,0,0,0,0,0,668,
scooby_state_46c8ed|3|1 666,1,0,0,0,1,0,0,0,0,0,0,0,0,0,668,
scooby_state_46c862|11|1 666,0,0,0,0,0,0,0,1,1,0,0,0,0,0,668,
scooby_state_46c8ed|44|1 668,0,0,0,0,0,0,0,0,0,0,0,0,0,0,668,
scooby_state_46c775|51|1 668,0,0,0,0,0,0,0,0,0,0,0,0,0,0,668,
scooby_state_46c775|46|1 666,1,0,0,0,1,0,0,0,0,0,0,0,0,0,668,
scooby_state_46c775|38|1 668,0,0,0,0,0,0,0,0,0,0,0,0,0,0,668,
scooby_state_46c8ed|56|1 668,0,0,0,0,0,0,0,0,0,0,0,0,0,0,668,
scooby_state_46c862|53|1 667,0,0,0,0,0,0,0,1,0,0,0,0,0,0,668,
scooby_state_46c862|2|1 668,0,0,0,0,0,0,0,0,0,0,0,0,0,0,668,
scooby_state_46c862|42|1 667,0,0,0,0,0,1,0,0,0,0,0,0,0,0,668,
scooby_state_46c775|20|1 665,0,0,1,0,0,1,1,0,0,0,0,0,0,0,668,
scooby_state_46c8ed|49|1 668,0,0,0,0,0,0,0,0,0,0,0,0,0,0,668,
scooby_state_46c862|49|1 667,0,0,0,0,0,0,0,0,1,0,0,0,0,0,668,
scooby_state_46c862|5|1 668,0,0,0,0,0,0,0,0,0,0,0,0,0,0,668,
scooby_state_46c8ed|38|1 666,0,0,0,0,0,1,0,0,1,0,0,0,0,0,668,
scooby_state_46c8ed|20|1 668,0,0,0,0,0,0,0,0,0,0,0,0,0,0,668,
scooby_state_46c775|11|1 665,0,0,1,0,0,1,0,0,0,0,1,0,0,0,668,
scooby_state_46c8ed|51|1 665,0,1,0,0,0,0,0,1,0,0,1,0,0,0,668,
scooby_state_46c775|7|1 666,0,1,0,0,0,1,0,0,0,0,0,0,0,0,668,
scooby_state_46c775|56|1 666,0,0,0,0,0,1,0,0,0,0,0,0,0,1,668,
scooby_state_46c8ed|14|1 665,1,0,1,0,0,0,0,0,0,0,0,0,0,1,668,
scooby_state_46c862|60|1 665,0,0,0,1,0,0,1,1,0,0,0,0,0,0,668,
scooby_state_46c862|7|1 668,0,0,0,0,0,0,0,0,0,0,0,0,0,0,668,
scooby_state_46c8ed|42|1 666,0,0,0,0,0,0,0,0,0,0,0,1,1,0,668,
scooby_state_46c8ed|11|1 667,0,0,0,0,0,0,0,0,0,0,0,1,0,0,668,
scooby_state_46c8ed|46|1 664,0,0,0,0,1,1,0,0,0,1,0,0,0,1,668,
scooby_state_46c775|13|1 665,0,0,0,0,0,0,1,0,0,0,0,1,0,1,668,
scooby_state_46c775|29|1 668,0,0,0,0,0,0,0,0,0,0,0,0,0,0,668,
scooby_state_46c8ed|13|1 667,0,0,0,0,0,0,0,0,1,0,0,0,0,0,668,
scooby_state_46c8ed|2|1 668,0,0,0,0,0,0,0,0,0,0,0,0,0,0,668,
scooby_state_46c862|44|1 668,0,0,0,0,0,0,0,0,0,0,0,0,0,0,668,
scooby_state_46c775|33|1 667,0,0,0,0,0,0,0,1,0,0,0,0,0,0,668,
scooby_state_46c8ed|31|1 666,0,0,1,0,0,0,0,0,0,0,0,0,0,1,668,
scooby_state_46c775|5|1 666,0,0,0,0,0,0,1,0,0,0,0,0,0,1,668,
scooby_state_46c862|18|1 666,2,0,0,0,0,0,0,0,0,0,0,0,0,0,668,
scooby_state_46c8ed|55|1 667,0,1,0,0,0,0,0,0,0,0,0,0,0,0,668,
scooby_state_46c775|3|1 667,0,0,0,0,0,0,0,0,0,0,0,0,1,0,668,
scooby_state_46c862|38|1 666,0,0,0,0,0,0,0,0,1,1,0,0,0,0,668,
scooby_state_46c775|2|1 666,0,0,0,1,0,0,0,0,0,0,0,1,0,0,668,
scooby_state_46c775|14|1 666,0,0,0,0,0,0,0,0,0,0,0,0,1,1,668,
scooby_state_46c8ed|33|1 667,0,0,0,0,0,0,0,0,0,1,0,0,0,0,668,
scooby_state_46c862|55|1 668,0,0,0,0,0,0,0,0,0,0,0,0,0,0,668,
scooby_state_46c775|18|1 668,0,0,0,0,0,0,0,0,0,0,0,0,0,0,668,
scooby_state_46c775|31|1 667,1,0,0,0,0,0,0,0,0,0,0,0,0,0,668,
scooby_state_46c775|55|1 667,0,0,0,1,0,0,0,0,0,0,0,0,0,0,668,
scooby_state_46c8ed|7|1 667,0,0,0,0,0,0,0,0,0,0,0,1,0,0,668,
scooby_state_46c862|24|1 666,0,0,0,0,0,1,0,0,0,0,0,0,1,0,668,
scooby_state_46c862|33|1 666,1,0,0,0,0,0,0,1,0,0,0,0,0,0,668,
scooby_state_46c862|56|1 666,0,0,0,0,0,1,0,0,0,0,0,0,0,1,668,
scooby_state_46c862|20|1 668,0,0,0,0,0,0,0,0,0,0,0,0,0,0,668,
scooby_state_46c862|29|1 668,0,0,0,0,0,0,0,0,0,0,0,0,0,0,668,
scooby_state_46c862|13|1 668,0,0,0,0,0,0,0,0,0,0,0,0,0,0,668,
scooby_state_46c775|25|1 666,0,0,0,0,0,1,0,0,0,0,0,1,0,0,668,
scooby_state_46c8ed|29|1 665,0,0,1,0,0,0,1,0,0,0,0,0,0,1,668,
scooby_state_46c8ed|60|1 667,0,1,0,0,0,0,0,0,0,0,0,0,0,0,668,
scooby_state_46c8ed|24|1 666,0,0,0,1,0,0,1,0,0,0,0,0,0,0,668,
scooby_state_46c862|3|1 668,0,0,0,0,0,0,0,0,0,0,0,0,0,0,668,
scooby_state_46c862|25|1 668,0,0,0,0,0,0,0,0,0,0,0,0,0,0,668,
scooby_state_46c775|60|1 667,0,0,0,0,0,0,0,0,0,1,0,0,0,0,668,
scooby_state_46c8ed|53|1 668,0,0,0,0,0,0,0,0,0,0,0,0,0,0,668,
scooby_state_46c8ed|25|1 667,0,0,1,0,0,0,0,0,0,0,0,0,0,0,668,
scooby_state_46c775|9|1 662,0,1,0,0,1,0,0,0,0,2,0,1,0,0,667,
scooby_state_46c775|27|1 666,0,0,0,0,0,0,0,1,0,0,0,0,0,0,667,
scooby_state_46c862|27|1 665,0,1,0,0,0,0,0,1,0,0,0,0,0,0,667,
scooby_state_46c775|16|1 666,0,0,0,0,0,0,0,0,0,0,0,0,0,1,667,
scooby_state_46c862|22|1 667,0,0,0,0,0,0,0,0,0,0,0,0,0,0,667,
scooby_state_46c85c|31|1 666,0,0,0,0,1,0,0,0,0,0,0,0,0,0,667,
scooby_state_46c8ed|9|1 662,0,0,1,0,1,0,0,0,0,1,1,0,0,1,667,
scooby_state_46c8ed|22|1 664,0,1,0,0,0,0,1,0,0,1,0,0,0,0,667,
scooby_state_46c775|22|1 667,0,0,0,0,0,0,0,0,0,0,0,0,0,0,667,
scooby_state_46c862|9|1 667,0,0,0,0,0,0,0,0,0,0,0,0,0,0,667,
scooby_state_46c862|62|1 666,0,0,0,0,0,0,0,0,0,0,0,0,0,1,667,
scooby_state_46c862|16|1 667,0,0,0,0,0,0,0,0,0,0,0,0,0,0,667,
scooby_state_46c8ed|62|1 666,0,0,0,0,0,0,0,0,0,0,0,1,0,0,667,
scooby_state_46c85c|27|1 665,1,0,0,0,0,0,1,0,0,0,0,0,0,0,667,
scooby_state_46c85c|33|1 667,0,0,0,0,0,0,0,0,0,0,0,0,0,0,667,
scooby_state_46c8ed|16|1 667,0,0,0,0,0,0,0,0,0,0,0,0,0,0,667,
scooby_state_46c775|62|1 666,0,0,0,0,0,0,1,0,0,0,0,0,0,0,667,
scooby_state_46c8ed|27|1 667,0,0,0,0,0,0,0,0,0,0,0,0,0,0,667,
scooby_state_46c85c|30|1 665,0,0,0,0,0,0,0,0,0,0,0,0,0,0,665,
scooby_state_46c85c|32|1 661,0,1,0,1,0,1,0,0,0,0,0,0,0,0,664,
scooby_state_46c85c|34|1 661,0,0,0,0,0,1,0,0,0,0,0,0,1,0,663,
scooby_state_47d55e|26|0 57,5,5,4,5,11,6,6,7,512,7,4,4,8,20,661,
scooby_state_46c85c|29|1 659,0,0,0,0,1,0,0,0,0,0,0,0,0,0,660,
scooby_state_46c790|40|1 654,0,0,0,2,1,0,1,0,0,0,0,0,0,0,658,
scooby_state_47d55e|28|0 58,7,5,8,6,9,2,3,7,495,9,8,3,6,23,649,
scooby_state_46c86e|26|1 645,1,0,0,0,0,0,0,0,0,0,0,0,0,0,646,
scooby_state_47d55e|27|0 59,6,6,7,8,6,10,5,6,478,5,7,11,4,24,642,
scooby_state_46c85c|26|1 621,0,0,0,0,0,0,0,0,0,0,0,0,1,0,622,
scooby_state_46cc3c|34|1 617,0,0,0,0,0,0,0,0,0,0,0,0,0,0,617,
scooby_state_46cc34|33|-2 591,0,0,0,0,0,0,0,0,0,0,0,0,0,0,591,
scooby_state_46c94f|38|2 586,0,0,0,0,0,0,0,0,1,0,0,0,0,0,587,
scooby_state_46c51a|41|4 580,0,0,0,0,0,0,0,0,0,0,1,0,0,0,581,
scooby_state_40ec49|20|0 159,10,9,9,12,9,6,13,8,269,6,6,5,10,46,577,
scooby_state_40fbc9|11|0 172,7,6,12,6,10,6,6,9,281,7,7,7,8,33,577,
scooby_state_40ec49|27|0 155,7,9,9,11,8,7,10,10,272,8,8,10,8,45,577,
scooby_state_40fbc9|20|0 162,7,7,8,6,8,6,7,10,292,5,7,7,7,38,577,
scooby_state_40fbc9|22|0 169,7,5,11,8,10,5,7,8,283,8,7,6,7,36,577,
scooby_state_40ec49|9|0 169,10,10,10,12,11,6,11,8,266,7,6,6,7,38,577,
scooby_state_40ec49|18|0 156,11,8,10,11,7,7,9,7,271,10,8,6,6,50,577,
scooby_state_40fbc9|0|0 175,5,7,11,7,11,8,6,6,280,7,8,6,7,33,577,
scooby_state_40fbc9|13|0 163,6,8,12,7,11,6,5,5,293,8,7,4,9,33,577,
scooby_state_40ec49|7|0 173,12,9,11,12,7,4,10,7,254,9,9,7,7,45,576,
scooby_state_40fbc9|2|0 164,5,7,9,5,10,6,8,5,295,8,7,4,9,34,576,
scooby_state_40ec49|16|0 176,8,10,9,11,7,9,10,9,257,10,7,9,4,40,576,
scooby_state_40ec49|5|0 161,9,8,9,12,7,8,10,7,269,13,9,8,4,42,576,
scooby_state_40fbc9|4|0 160,5,5,9,6,5,5,8,7,294,8,9,5,8,41,575,
scooby_state_40fbc9|9|0 170,7,8,9,6,6,6,6,10,281,5,7,8,6,40,575,
scooby_state_40ec49|25|0 163,11,9,9,9,9,6,11,10,266,9,10,7,8,38,575,
scooby_state_40ec49|22|0 155,6,11,10,11,7,10,9,10,272,8,8,10,9,39,575,
scooby_state_40ec49|11|0 166,7,10,12,9,8,10,9,11,266,9,6,7,8,37,575,
scooby_state_40fbc9|24|0 163,5,6,11,9,11,6,7,6,290,8,7,5,9,32,575,
scooby_state_40fbc9|18|0 153,5,7,8,10,9,8,2,5,311,6,6,8,6,30,574,
scooby_state_40fbc9|6|0 162,5,7,13,5,9,6,7,12,291,7,8,6,7,29,574,
scooby_state_40fbc9|26|0 164,5,7,10,7,8,5,10,7,289,9,7,5,9,32,574,
scooby_state_40ec49|3|0 169,11,12,8,9,7,6,11,10,261,9,7,8,7,39,574,
scooby_state_40fbc9|15|0 173,5,5,7,7,7,5,11,9,278,9,7,5,8,38,574,
scooby_state_40fbc9|7|0 151,7,7,8,9,8,8,2,4,311,4,6,9,6,34,574,
scooby_state_40fbc9|27|0 163,10,8,8,9,7,7,4,9,287,6,6,7,4,39,574,
scooby_state_40ec49|0|0 158,8,10,10,11,9,10,8,10,265,9,8,7,8,43,574,
scooby_state_40ec49|14|0 182,10,10,7,9,9,6,11,9,253,8,6,7,8,38,573,
scooby_state_40ec49|13|0 170,6,7,9,13,8,9,8,8,246,10,9,10,9,51,573,
scooby_state_40ec49|2|0 159,8,11,9,12,10,8,12,9,254,8,8,9,10,46,573,
scooby_state_40fbc9|17|0 156,5,4,11,6,9,6,10,10,295,7,6,7,6,34,572,
scooby_state_40fbc9|16|0 174,10,6,6,9,9,7,3,9,281,6,6,8,5,33,572,
scooby_state_40ec49|23|0 163,8,9,8,10,7,9,8,10,264,9,8,9,7,43,572,
scooby_state_40ec49|12|0 166,10,10,9,9,7,6,8,9,264,9,8,9,7,41,572,
scooby_state_40ec49|1|0 169,9,7,9,8,7,6,7,11,267,9,10,9,8,36,572,
scooby_state_40fbc9|28|0 149,5,6,10,6,8,5,10,8,307,7,7,6,6,32,572,
scooby_state_40fbc9|5|0 154,8,7,6,8,8,9,4,8,301,6,6,8,4,35,572,
scooby_state_40ec49|24|0 156,6,8,9,10,12,10,9,8,264,9,6,9,10,46,572,
scooby_state_40fbc9|25|0 137,7,7,7,6,5,6,4,11,317,5,7,8,6,38,571,
scooby_state_40ec49|4|0 154,7,10,9,9,9,8,8,13,260,8,10,12,11,43,571,
scooby_state_40ec49|15|0 169,8,9,7,10,9,10,8,9,250,9,7,10,10,46,571,
scooby_state_40ec49|26|0 159,8,10,8,11,7,10,10,9,253,9,7,11,10,49,571,
scooby_state_40fbc9|8|0 167,6,7,9,7,8,6,7,8,284,9,5,5,8,35,571,
scooby_state_40fbc9|14|0 160,9,8,7,7,6,7,4,12,287,5,6,8,5,39,570,
scooby_state_40fbc9|19|0 161,7,5,9,6,8,6,7,11,290,9,6,6,8,31,570,
scooby_state_40ec49|10|0 147,9,7,6,10,7,10,10,12,263,12,10,11,9,47,570,
scooby_state_40fbc9|3|0 163,9,8,8,8,6,6,4,9,294,5,5,9,4,32,570,
scooby_state_40ec49|21|0 152,9,8,7,9,7,12,10,10,263,10,9,11,10,43,570,
scooby_state_40fbc9|21|0 147,9,5,6,8,6,7,9,10,303,9,6,6,6,32,569,
scooby_state_40fbc9|1|0 162,7,7,5,9,5,8,5,11,297,5,6,7,4,31,569,
scooby_state_40ec49|19|0 153,6,6,6,11,8,11,6,11,268,10,7,11,9,46,569,
scooby_state_40ec49|6|0 157,6,9,10,8,11,10,7,11,265,8,9,9,12,37,569,
scooby_state_40fbc9|10|0 150,9,5,7,7,7,7,7,8,295,8,9,8,5,37,569,
scooby_state_40fbc9|12|0 179,6,8,7,8,6,8,5,7,284,4,4,9,4,30,569,
scooby_state_40ec49|8|0 159,7,9,7,9,9,11,8,11,259,9,6,11,9,45,569,
scooby_state_40ec49|17|0 160,6,11,10,9,9,11,9,12,263,8,7,9,13,32,569,
scooby_state_40fbc9|23|0 159,8,8,6,7,7,8,3,7,302,5,5,8,6,30,569,
scooby_state_40ec49|28|0 149,6,9,8,10,7,8,8,12,268,11,10,13,10,39,568,
scooby_state_46c85c|25|2 561,0,0,0,0,0,0,2,0,0,0,0,0,0,0,563,
scooby_state_40f6ad|16|0 137,11,11,9,9,9,9,10,10,263,8,11,9,9,44,559,
scooby_state_40f16d|2|0 134,9,13,8,11,9,10,10,8,288,5,4,8,8,32,557,
scooby_state_40f6ad|14|0 136,9,9,13,12,9,8,11,9,268,8,8,11,8,38,557,
scooby_state_40f6ad|2|0 141,8,6,10,8,10,7,14,8,273,11,10,6,8,36,556,
scooby_state_40f6ad|9|0 142,11,7,9,9,12,7,10,10,268,8,11,9,7,36,556,
scooby_state_40f6ad|0|0 153,10,9,11,7,11,9,11,7,257,8,13,8,5,36,555,
scooby_state_40f16d|5|0 150,5,10,9,3,7,10,10,6,285,12,8,8,8,24,555,
scooby_state_46c7ac|43|1 553,0,1,0,1,0,0,0,0,0,0,0,0,0,0,555,
scooby_state_40f6ad|7|0 157,5,10,7,8,8,9,11,6,266,11,8,5,9,35,555,
scooby_state_40f16d|13|0 139,9,12,10,11,9,10,12,8,269,6,6,9,10,34,554,
scooby_state_40f6ad|18|0 147,8,11,6,7,7,9,9,8,266,10,10,7,7,40,552,
scooby_state_40f16d|18|0 141,7,9,8,10,11,5,8,9,283,8,7,10,7,29,552,
scooby_state_40f16d|4|0 131,9,11,10,9,14,7,10,9,276,7,4,9,10,35,551,
scooby_state_40f6ad|4|0 128,10,7,9,9,11,10,8,8,275,7,11,10,9,39,551,
scooby_state_40f6ad|13|0 139,6,7,8,8,8,10,14,10,268,9,10,7,7,40,551,
scooby_state_40f6ad|5|0 142,12,11,11,7,8,8,14,7,252,10,10,6,10,43,551,
scooby_state_40f6ad|6|0 142,7,9,10,9,10,15,10,10,251,7,11,10,10,39,550,
scooby_state_40f16d|11|0 154,8,13,7,7,8,9,7,8,264,7,9,12,9,27,549,
scooby_state_40f6ad|17|0 162,9,9,9,9,9,10,9,8,242,5,9,9,9,41,549,
scooby_state_40f16d|9|0 131,7,12,6,9,10,6,13,8,275,9,7,7,11,38,549,
scooby_state_40f6ad|19|0 140,11,8,8,11,9,10,12,12,251,6,11,10,6,44,549,
scooby_state_40f16d|19|0 139,11,9,11,6,6,10,11,9,273,6,9,7,9,32,548,
scooby_state_40f6ad|10|0 153,8,8,8,9,8,12,12,6,242,7,11,7,13,44,548,
scooby_state_40f16d|3|0 152,6,7,7,7,10,7,9,8,272,10,7,5,9,31,547,
scooby_state_40f6ad|3|0 138,12,10,11,10,7,6,13,10,257,7,9,8,9,40,547,
scooby_state_40f6ad|8|0 151,12,5,10,7,7,10,11,11,246,7,10,8,10,40,545,
scooby_state_40f16d|14|0 136,7,8,7,6,8,6,9,9,279,10,8,5,11,36,545,
scooby_state_40f16d|1|0 135,10,9,8,7,9,8,9,5,282,7,8,4,8,36,545,
scooby_state_40f16d|8|0 140,7,8,11,8,5,11,6,10,277,7,8,7,8,31,544,
scooby_state_40f16d|7|0 135,8,10,10,8,10,7,11,7,280,7,5,8,6,32,544,
scooby_state_46c86e|23|1 543,0,0,0,0,0,1,0,0,0,0,0,0,0,0,544,
scooby_state_40f16d|15|0 132,9,11,9,6,14,9,11,4,273,8,6,8,8,36,544,
scooby_state_40f6ad|15|0 151,8,3,8,10,11,7,9,12,253,7,12,9,8,35,543,
scooby_state_40f6ad|25|0 144,8,10,9,10,8,9,13,8,259,7,8,8,11,31,543,
scooby_state_40f16d|20|0 139,7,14,7,7,12,6,13,9,273,9,5,7,8,27,543,
scooby_state_40f6ad|12|0 162,9,11,6,9,7,13,5,8,233,7,10,8,11,44,543,
scooby_state_40f6ad|26|0 147,8,6,9,6,7,6,13,9,264,9,11,8,8,31,542,
scooby_state_46c7ac|47|1 539,0,1,0,1,0,0,0,0,0,0,1,0,0,0,542,
scooby_state_40f6ad|11|0 135,12,7,10,7,9,11,11,9,259,10,10,11,5,36,542,
scooby_state_40f16d|12|0 135,8,6,10,9,10,5,8,7,283,7,7,5,7,35,542,
scooby_state_40f16d|28|0 136,12,9,9,9,11,8,5,7,275,7,8,7,8,31,542,
scooby_state_40f16d|16|0 134,5,8,9,7,6,10,10,8,286,11,7,7,9,25,542,
scooby_state_40f16d|10|0 146,6,8,10,8,7,7,8,7,268,10,6,7,7,36,541,
scooby_state_40f6ad|24|0 159,7,5,9,6,10,8,9,11,242,9,13,9,6,38,541,
scooby_state_40f16d|0|0 145,7,13,7,11,7,12,10,10,262,8,7,8,8,26,541,
scooby_state_40f6ad|1|0 158,9,9,6,8,10,13,9,6,250,7,7,6,9,33,540,
scooby_state_40f16d|6|0 144,9,10,7,8,11,8,6,8,265,6,8,9,7,34,540,
scooby_state_46c85c|48|1 539,0,0,0,0,0,0,0,0,0,0,0,0,1,0,540,
scooby_state_40f16d|26|0 134,9,13,8,10,10,9,10,6,266,6,6,9,7,36,539,
scooby_state_40f16d|17|0 141,10,10,9,8,8,8,5,7,263,6,7,8,7,40,537,
scooby_state_46c7ac|48|1 537,0,0,0,0,0,0,0,0,0,0,0,0,0,0,537,
scooby_state_40f6ad|22|0 165,9,7,6,11,13,8,5,9,239,7,9,12,6,31,537,
scooby_state_40f16d|27|0 139,7,8,9,8,8,9,8,7,270,11,7,7,8,31,537,
scooby_state_40f16d|22|0 143,9,9,8,9,9,11,7,9,263,6,7,8,7,31,536,
scooby_state_46c86e|24|1 531,0,0,0,1,1,0,0,1,0,0,0,0,1,0,535,
scooby_state_40f6ad|23|0 148,9,11,7,8,8,10,11,5,237,7,12,10,9,43,535,
scooby_state_40f6ad|20|0 147,8,7,11,6,10,7,9,8,252,9,12,6,8,34,534,
scooby_state_40f6ad|28|0 138,10,9,10,9,10,10,9,6,247,7,9,13,10,36,533,
scooby_state_40f6ad|27|0 132,7,9,6,10,9,10,13,12,246,10,7,12,9,41,533,
scooby_state_40f16d|25|0 148,8,7,6,3,8,7,10,9,270,6,6,4,9,32,533,
scooby_state_40f6ad|21|0 138,9,10,9,9,7,9,15,9,244,7,10,7,10,39,532,
scooby_state_40f16d|23|0 130,6,9,11,9,7,7,5,4,281,11,5,6,7,31,529,
scooby_state_46c7ac|46|1 526,0,0,0,0,0,0,0,1,0,0,0,0,0,0,527,
scooby_state_46c85c|49|1 525,0,1,0,0,0,0,1,0,0,0,0,0,0,0,527,
scooby_state_46c85c|47|1 526,0,0,0,0,0,0,0,0,0,0,0,0,0,0,526,
scooby_state_46c7ac|49|1 525,0,0,0,0,0,0,0,0,0,0,0,0,1,0,526,
scooby_state_46c790|23|1 522,0,0,1,0,0,0,0,0,0,0,1,1,0,0,525,
scooby_state_46c790|24|1 523,0,0,0,0,0,0,0,0,0,0,0,0,1,0,524,
scooby_state_46c85c|43|1 523,0,0,0,0,0,0,0,0,0,0,0,0,0,1,524,
scooby_state_46c7ac|45|1 523,0,1,0,0,0,0,0,0,0,0,0,0,0,0,524,
scooby_state_40f16d|21|0 121,8,8,10,7,8,8,7,7,271,11,5,6,7,39,523,
scooby_state_46c86e|25|1 522,0,0,0,0,0,0,0,0,0,0,0,0,0,0,522,
scooby_state_40f16d|24|0 134,11,12,11,8,9,10,7,10,245,6,9,11,7,31,521,
scooby_state_46c7ac|44|1 519,0,0,0,0,0,0,0,0,0,0,0,0,0,0,519,
[...]
scooby_state_47db04|9|3 1,0,0,0,0,0,0,0,0,0,0,0,0,0,0,1,
scooby_state_47e0af|57|30 1,0,0,0,0,0,0,0,0,0,0,0,0,0,0,1,
scooby_state_46c86e|22|5 1,0,0,0,0,0,0,0,0,0,0,0,0,0,0,1,
scooby_state_47dec4|4|4 1,0,0,0,0,0,0,0,0,0,0,0,0,0,0,1,
scooby_state_4cd542|9|0 1,0,0,0,0,0,0,0,0,0,0,0,0,0,0,1,
scooby_state_46c86e|17|5 1,0,0,0,0,0,0,0,0,0,0,0,0,0,0,1,
scooby_state_46c7c2|50|12 1,0,0,0,0,0,0,0,0,0,0,0,0,0,0,1,
scooby_state_403142|5|1 1,0,0,0,0,0,0,0,0,0,0,0,0,0,0,1,
scooby_state_46c790|18|-35 1,0,0,0,0,0,0,0,0,0,0,0,0,0,0,1,
scooby_state_47e0ef|58|30 1,0,0,0,0,0,0,0,0,0,0,0,0,0,0,1,
scooby_state_46c169|54|15 1,0,0,0,0,0,0,0,0,0,0,0,0,0,0,1,
scooby_state_41184a|17|1 1,0,0,0,0,0,0,0,0,0,0,0,0,0,0,1,
scooby_state_4cd542|20|-10 1,0,0,0,0,0,0,0,0,0,0,0,0,0,0,1,
scooby_state_412562|13|1 1,0,0,0,0,0,0,0,0,0,0,0,0,0,0,1,
scooby_state_46c8ed|56|0 1,0,0,0,0,0,0,0,0,0,0,0,0,0,0,1,
scooby_state_413369|24|6 1,0,0,0,0,0,0,0,0,0,0,0,0,0,0,1,
scooby_state_40ec14|51|1 1,0,0,0,0,0,0,0,0,0,0,0,0,0,0,1,
scooby_state_40e744|29|1 1,0,0,0,0,0,0,0,0,0,0,0,0,0,0,1,
scooby_state_47d70f|54|0 1,0,0,0,0,0,0,0,0,0,0,0,0,0,0,1,
scooby_state_47e0e4|56|0 1,0,0,0,0,0,0,0,0,0,0,0,0,0,0,1,
scooby_state_46c701|40|6 1,0,0,0,0,0,0,0,0,0,0,0,0,0,0,1,
scooby_state_4132f5|12|6 1,0,0,0,0,0,0,0,0,0,0,0,0,0,0,1,
scooby_state_46c790|42|8 1,0,0,0,0,0,0,0,0,0,0,0,0,0,0,1,
scooby_state_47d6db|5|0 1,0,0,0,0,0,0,0,0,0,0,0,0,0,0,1,
scooby_state_46c862|24|0 1,0,0,0,0,0,0,0,0,0,0,0,0,0,0,1,
scooby_state_46c862|6|0 1,0,0,0,0,0,0,0,0,0,0,0,0,0,0,1,
scooby_state_46c895|52|32 1,0,0,0,0,0,0,0,0,0,0,0,0,0,0,1,
scooby_state_47d881|33|1 1,0,0,0,0,0,0,0,0,0,0,0,0,0,0,1,
scooby_state_47e10f|31|2 1,0,0,0,0,0,0,0,0,0,0,0,0,0,0,1,
scooby_state_410bee|18|1 1,0,0,0,0,0,0,0,0,0,0,0,0,0,0,1,
scooby_state_46c86e|4|-31 1,0,0,0,0,0,0,0,0,0,0,0,0,0,0,1,
scooby_state_47d558|25|-30 1,0,0,0,0,0,0,0,0,0,0,0,0,0,0,1,
scooby_state_46c775|5|0 1,0,0,0,0,0,0,0,0,0,0,0,0,0,0,1,
scooby_state_46c775|38|0 1,0,0,0,0,0,0,0,0,0,0,0,0,0,0,1,
scooby_state_47d70f|59|0 1,0,0,0,0,0,0,0,0,0,0,0,0,0,0,1,
scooby_state_46c7c2|47|9 1,0,0,0,0,0,0,0,0,0,0,0,0,0,0,1,
scooby_state_46c7c2|50|4 1,0,0,0,0,0,0,0,0,0,0,0,0,0,0,1,
scooby_state_46c040|41|-6 1,0,0,0,0,0,0,0,0,0,0,0,0,0,0,1,
scooby_state_47db04|48|4 1,0,0,0,0,0,0,0,0,0,0,0,0,0,0,1,
scooby_state_47da20|60|3 1,0,0,0,0,0,0,0,0,0,0,0,0,0,0,1,
scooby_state_47db11|37|4 1,0,0,0,0,0,0,0,0,0,0,0,0,0,0,1,
scooby_state_47db04|37|4 1,0,0,0,0,0,0,0,0,0,0,0,0,0,0,1,
scooby_state_47db16|8|1 1,0,0,0,0,0,0,0,0,0,0,0,0,0,0,1,
scooby_state_47da1a|7|3 1,0,0,0,0,0,0,0,0,0,0,0,0,0,0,1,
scooby_state_46c7da|49|7 1,0,0,0,0,0,0,0,0,0,0,0,0,0,0,1,
scooby_state_47db11|42|3 1,0,0,0,0,0,0,0,0,0,0,0,0,0,0,1,
scooby_state_47db04|42|3 1,0,0,0,0,0,0,0,0,0,0,0,0,0,0,1,
scooby_state_47db42|7|4 1,0,0,0,0,0,0,0,0,0,0,0,0,0,0,1,
scooby_state_47db11|48|4 1,0,0,0,0,0,0,0,0,0,0,0,0,0,0,1,
scooby_state_47da3a|45|4 1,0,0,0,0,0,0,0,0,0,0,0,0,0,0,1,
scooby_state_46c790|17|-36 1,0,0,0,0,0,0,0,0,0,0,0,0,0,0,1,
scooby_state_47da3a|41|3 1,0,0,0,0,0,0,0,0,0,0,0,0,0,0,1,
scooby_state_47da20|18|3 1,0,0,0,0,0,0,0,0,0,0,0,0,0,0,1,
scooby_state_47db42|37|2 1,0,0,0,0,0,0,0,0,0,0,0,0,0,0,1,
scooby_state_47db04|53|3 1,0,0,0,0,0,0,0,0,0,0,0,0,0,0,1,
scooby_state_47da3a|47|4 1,0,0,0,0,0,0,0,0,0,0,0,0,0,0,1,
scooby_state_47db16|30|1 1,0,0,0,0,0,0,0,0,0,0,0,0,0,0,1,
scooby_state_47e15d|62|1 1,0,0,0,0,0,0,0,0,0,0,0,0,0,0,1,
scooby_state_47da3a|52|3 1,0,0,0,0,0,0,0,0,0,0,0,0,0,0,1,
scooby_state_47dc5e|49|1 1,0,0,0,0,0,0,0,0,0,0,0,0,0,0,1,
scooby_state_47da20|29|3 1,0,0,0,0,0,0,0,0,0,0,0,0,0,0,1,
scooby_state_413369|40|6 1,0,0,0,0,0,0,0,0,0,0,0,0,0,0,1,
scooby_state_46c790|36|-15 1,0,0,0,0,0,0,0,0,0,0,0,0,0,0,1,
scooby_state_46c86e|8|2 1,0,0,0,0,0,0,0,0,0,0,0,0,0,0,1,
scooby_state_47db42|23|2 1,0,0,0,0,0,0,0,0,0,0,0,0,0,0,1,
scooby_state_47db42|21|-1 1,0,0,0,0,0,0,0,0,0,0,0,0,0,0,1,
scooby_state_47db11|15|4 1,0,0,0,0,0,0,0,0,0,0,0,0,0,0,1,
scooby_state_46c7c2|8|-26 1,0,0,0,0,0,0,0,0,0,0,0,0,0,0,1,
scooby_state_46c895|42|33 1,0,0,0,0,0,0,0,0,0,0,0,0,0,0,1,
scooby_state_47db04|15|4 1,0,0,0,0,0,0,0,0,0,0,0,0,0,0,1,
scooby_state_47db16|50|1 1,0,0,0,0,0,0,0,0,0,0,0,0,0,0,1,
scooby_state_46c85c|36|0 1,0,0,0,0,0,0,0,0,0,0,0,0,0,0,1,
scooby_state_40f60c|45|-1 1,0,0,0,0,0,0,0,0,0,0,0,0,0,0,1,
scooby_state_47dc5e|7|1 1,0,0,0,0,0,0,0,0,0,0,0,0,0,0,1,
scooby_state_46c7ac|47|9 1,0,0,0,0,0,0,0,0,0,0,0,0,0,0,1,
scooby_state_47de5b|37|0 1,0,0,0,0,0,0,0,0,0,0,0,0,0,0,1,
scooby_state_47db42|50|4 1,0,0,0,0,0,0,0,0,0,0,0,0,0,0,1,
scooby_state_46c7ac|40|38 1,0,0,0,0,0,0,0,0,0,0,0,0,0,0,1,
scooby_state_46cc16|48|11 1,0,0,0,0,0,0,0,0,0,0,0,0,0,0,1,
scooby_state_47db11|26|4 1,0,0,0,0,0,0,0,0,0,0,0,0,0,0,1,
scooby_state_47db04|26|4 1,0,0,0,0,0,0,0,0,0,0,0,0,0,0,1,
scooby_state_47db16|61|1 1,0,0,0,0,0,0,0,0,0,0,0,0,0,0,1,
scooby_state_47da3a|20|3 1,0,0,0,0,0,0,0,0,0,0,0,0,0,0,1,
scooby_state_47d6e5|53|-1 1,0,0,0,0,0,0,0,0,0,0,0,0,0,0,1,
scooby_state_47da20|62|3 1,0,0,0,0,0,0,0,0,0,0,0,0,0,0,1,
scooby_state_47db11|33|3 1,0,0,0,0,0,0,0,0,0,0,0,0,0,0,1,
scooby_state_47db04|33|3 1,0,0,0,0,0,0,0,0,0,0,0,0,0,0,1,
scooby_state_47db42|59|3 1,0,0,0,0,0,0,0,0,0,0,0,0,0,0,1,
scooby_state_47db16|10|1 1,0,0,0,0,0,0,0,0,0,0,0,0,0,0,1,
scooby_state_47d6db|14|0 1,0,0,0,0,0,0,0,0,0,0,0,0,0,0,1,
scooby_state_47dc5e|27|1 1,0,0,0,0,0,0,0,0,0,0,0,0,0,0,1,
scooby_state_46c725|61|2 1,0,0,0,0,0,0,0,0,0,0,0,0,0,0,1,
scooby_state_47db11|44|3 1,0,0,0,0,0,0,0,0,0,0,0,0,0,0,1,
scooby_state_47db42|36|4 1,0,0,0,0,0,0,0,0,0,0,0,0,0,0,1,
scooby_state_46c71f|34|0 1,0,0,0,0,0,0,0,0,0,0,0,0,0,0,1,
scooby_state_46c7d4|31|3 1,0,0,0,0,0,0,0,0,0,0,0,0,0,0,1,
scooby_state_46c85c|41|-14 1,0,0,0,0,0,0,0,0,0,0,0,0,0,0,1,
scooby_state_47db42|6|4 1,0,0,0,0,0,0,0,0,0,0,0,0,0,0,1,
scooby_state_47db11|50|4 1,0,0,0,0,0,0,0,0,0,0,0,0,0,0,1,
scooby_state_411e82|58|1 1,0,0,0,0,0,0,0,0,0,0,0,0,0,0,1,
scooby_state_47db04|50|4 1,0,0,0,0,0,0,0,0,0,0,0,0,0,0,1,
scooby_state_47db42|0|-1 1,0,0,0,0,0,0,0,0,0,0,0,0,0,0,1,
scooby_state_47da3a|40|3 1,0,0,0,0,0,0,0,0,0,0,0,0,0,0,1,
scooby_state_47db16|21|1 1,0,0,0,0,0,0,0,0,0,0,0,0,0,0,1,
scooby_state_47da20|20|3 1,0,0,0,0,0,0,0,0,0,0,0,0,0,0,1,
scooby_state_47da1a|20|3 1,0,0,0,0,0,0,0,0,0,0,0,0,0,0,1,
scooby_state_47da3a|4|4 1,0,0,0,0,0,0,0,0,0,0,0,0,0,0,1,
scooby_state_47da1a|29|3 1,0,0,0,0,0,0,0,0,0,0,0,0,0,0,1,
scooby_state_47db04|6|4 1,0,0,0,0,0,0,0,0,0,0,0,0,0,0,1,
scooby_state_47db16|41|1 1,0,0,0,0,0,0,0,0,0,0,0,0,0,0,1,
scooby_state_46c718|61|31 1,0,0,0,0,0,0,0,0,0,0,0,0,0,0,1,
scooby_state_411653|50|0 1,0,0,0,0,0,0,0,0,0,0,0,0,0,0,1,
scooby_state_47da20|40|3 1,0,0,0,0,0,0,0,0,0,0,0,0,0,0,1,
scooby_state_46c7d4|20|-26 1,0,0,0,0,0,0,0,0,0,0,0,0,0,0,1,
scooby_state_47db11|11|3 1,0,0,0,0,0,0,0,0,0,0,0,0,0,0,1,
scooby_state_47dafb|11|3 1,0,0,0,0,0,0,0,0,0,0,0,0,0,0,1,
scooby_state_40fc84|50|1 1,0,0,0,0,0,0,0,0,0,0,0,0,0,0,1,
scooby_state_46c701|62|-1 1,0,0,0,0,0,0,0,0,0,0,0,0,0,0,1,
scooby_state_47db42|38|3 1,0,0,0,0,0,0,0,0,0,0,0,0,0,0,1,
scooby_state_47dafb|62|4 1,0,0,0,0,0,0,0,0,0,0,0,0,0,0,1,
scooby_state_46c701|17|-30 1,0,0,0,0,0,0,0,0,0,0,0,0,0,0,1,
scooby_state_47dafb|17|4 1,0,0,0,0,0,0,0,0,0,0,0,0,0,0,1,
scooby_state_47e3c1|15|1 1,0,0,0,0,0,0,0,0,0,0,0,0,0,0,1,
scooby_state_47da3a|14|3 1,0,0,0,0,0,0,0,0,0,0,0,0,0,0,1,
scooby_state_47db11|28|4 1,0,0,0,0,0,0,0,0,0,0,0,0,0,0,1,
scooby_state_46c7c2|34|1 1,0,0,0,0,0,0,0,0,0,0,0,0,0,0,1,
scooby_state_47db42|28|-1 1,0,0,0,0,0,0,0,0,0,0,0,0,0,0,1,
scooby_state_47da3a|19|3 1,0,0,0,0,0,0,0,0,0,0,0,0,0,0,1,
scooby_state_46c7c2|31|1 1,0,0,0,0,0,0,0,0,0,0,0,0,0,0,1,
scooby_state_47d881|52|1 1,0,0,0,0,0,0,0,0,0,0,0,0,0,0,1,
scooby_state_47da3a|24|4 1,0,0,0,0,0,0,0,0,0,0,0,0,0,0,1,
scooby_state_47de00|56|1 1,0,0,0,0,0,0,0,0,0,0,0,0,0,0,1,
scooby_state_4102a4|51|0 1,0,0,0,0,0,0,0,0,0,0,0,0,0,0,1,
scooby_state_46c169|53|12 1,0,0,0,0,0,0,0,0,0,0,0,0,0,0,1,
scooby_state_47e163|40|1 1,0,0,0,0,0,0,0,0,0,0,0,0,0,0,1,
scooby_state_46c8ed|19|0 1,0,0,0,0,0,0,0,0,0,0,0,0,0,0,1,
scooby_state_47e09f|36|30 1,0,0,0,0,0,0,0,0,0,0,0,0,0,0,1,
scooby_state_47e124|16|1 1,0,0,0,0,0,0,0,0,0,0,0,0,0,0,1,
scooby_state_46c7c2|49|5 1,0,0,0,0,0,0,0,0,0,0,0,0,0,0,1,
scooby_state_47e0ef|61|30 1,0,0,0,0,0,0,0,0,0,0,0,0,0,0,1,
scooby_state_47dc5e|42|1 1,0,0,0,0,0,0,0,0,0,0,0,0,0,0,1,
scooby_state_46c7c9|36|4 1,0,0,0,0,0,0,0,0,0,0,0,0,0,0,1,
scooby_state_46c75c|25|0 1,0,0,0,0,0,0,0,0,0,0,0,0,0,0,1,
scooby_state_40fa04|40|1 1,0,0,0,0,0,0,0,0,0,0,0,0,0,0,1,
scooby_state_47dec4|3|0 1,0,0,0,0,0,0,0,0,0,0,0,0,0,0,1,
scooby_state_46ccdd|45|9 1,0,0,0,0,0,0,0,0,0,0,0,0,0,0,1,
scooby_state_47d7f6|49|1 1,0,0,0,0,0,0,0,0,0,0,0,0,0,0,1,
scooby_state_47dea3|20|0 1,0,0,0,0,0,0,0,0,0,0,0,0,0,0,1,
scooby_state_47e182|6|1 1,0,0,0,0,0,0,0,0,0,0,0,0,0,0,1,
scooby_state_47dfc2|63|1 1,0,0,0,0,0,0,0,0,0,0,0,0,0,0,1,
scooby_state_47dafb|22|3 1,0,0,0,0,0,0,0,0,0,0,0,0,0,0,1,
scooby_state_47e0a9|11|-29 1,0,0,0,0,0,0,0,0,0,0,0,0,0,0,1,
scooby_state_47e0e4|42|30 1,0,0,0,0,0,0,0,0,0,0,0,0,0,0,1,
scooby_state_47e09f|42|30 1,0,0,0,0,0,0,0,0,0,0,0,0,0,0,1,
scooby_state_40f382|7|1 1,0,0,0,0,0,0,0,0,0,0,0,0,0,0,1,
scooby_state_46c7d4|41|0 1,0,0,0,0,0,0,0,0,0,0,0,0,0,0,1,
scooby_state_47e0a9|12|-29 1,0,0,0,0,0,0,0,0,0,0,0,0,0,0,1,
scooby_state_46c7c2|63|6 1,0,0,0,0,0,0,0,0,0,0,0,0,0,0,1,
scooby_state_47e0e4|41|30 1,0,0,0,0,0,0,0,0,0,0,0,0,0,0,1,
scooby_state_47e09f|41|30 1,0,0,0,0,0,0,0,0,0,0,0,0,0,0,1,
scooby_state_47e10f|13|2 1,0,0,0,0,0,0,0,0,0,0,0,0,0,0,1,
scooby_state_46c75c|12|0 1,0,0,0,0,0,0,0,0,0,0,0,0,0,0,1,
scooby_state_47dece|51|0 1,0,0,0,0,0,0,0,0,0,0,0,0,0,0,1,
scooby_state_47e09f|40|30 1,0,0,0,0,0,0,0,0,0,0,0,0,0,0,1,
scooby_state_47e16e|10|-29 1,0,0,0,0,0,0,0,0,0,0,0,0,0,0,1,
scooby_state_47e09f|39|30 1,0,0,0,0,0,0,0,0,0,0,0,0,0,0,1,
scooby_state_412444|17|1 1,0,0,0,0,0,0,0,0,0,0,0,0,0,0,1,
scooby_state_47e16e|9|-29 1,0,0,0,0,0,0,0,0,0,0,0,0,0,0,1,
scooby_state_47e09f|38|30 1,0,0,0,0,0,0,0,0,0,0,0,0,0,0,1,
scooby_state_47e16e|8|-29 1,0,0,0,0,0,0,0,0,0,0,0,0,0,0,1,
scooby_state_47e0e4|37|30 1,0,0,0,0,0,0,0,0,0,0,0,0,0,0,1,
scooby_state_47e09f|37|30 1,0,0,0,0,0,0,0,0,0,0,0,0,0,0,1,
scooby_state_47e0e4|36|30 1,0,0,0,0,0,0,0,0,0,0,0,0,0,0,1,
scooby_state_47db42|18|3 1,0,0,0,0,0,0,0,0,0,0,0,0,0,0,1,
scooby_state_47db42|63|2 1,0,0,0,0,0,0,0,0,0,0,0,0,0,0,1,
scooby_state_46c127|39|14 1,0,0,0,0,0,0,0,0,0,0,0,0,0,0,1,
scooby_state_47db04|24|4 1,0,0,0,0,0,0,0,0,0,0,0,0,0,0,1,
scooby_state_47db04|29|3 1,0,0,0,0,0,0,0,0,0,0,0,0,0,0,1,
scooby_state_47db04|35|4 1,0,0,0,0,0,0,0,0,0,0,0,0,0,0,1,
scooby_state_47db42|8|4 1,0,0,0,0,0,0,0,0,0,0,0,0,0,0,1,
scooby_state_47db04|46|4 1,0,0,0,0,0,0,0,0,0,0,0,0,0,0,1,
scooby_state_47da3a|42|3 1,0,0,0,0,0,0,0,0,0,0,0,0,0,0,1,
scooby_state_47db11|51|3 1,0,0,0,0,0,0,0,0,0,0,0,0,0,0,1,
scooby_state_47da3a|48|4 1,0,0,0,0,0,0,0,0,0,0,0,0,0,0,1,
scooby_state_46cc34|33|-20 1,0,0,0,0,0,0,0,0,0,0,0,0,0,0,1,
scooby_state_40f382|18|1 1,0,0,0,0,0,0,0,0,0,0,0,0,0,0,1,
scooby_state_47e043|1|1 1,0,0,0,0,0,0,0,0,0,0,0,0,0,0,1,
scooby_state_47db11|62|3 1,0,0,0,0,0,0,0,0,0,0,0,0,0,0,1,
scooby_state_4133ad|34|6 1,0,0,0,0,0,0,0,0,0,0,0,0,0,0,1,
scooby_state_47dafb|62|3 1,0,0,0,0,0,0,0,0,0,0,0,0,0,0,1,
scooby_state_47db42|29|4 1,0,0,0,0,0,0,0,0,0,0,0,0,0,0,1,
scooby_state_4132f5|32|0 1,0,0,0,0,0,0,0,0,0,0,0,0,0,0,1,
scooby_state_46c7c9|30|1 1,0,0,0,0,0,0,0,0,0,0,0,0,0,0,1,
scooby_state_46c8ab|23|0 1,0,0,0,0,0,0,0,0,0,0,0,0,0,0,1,
scooby_state_47dafb|4|4 1,0,0,0,0,0,0,0,0,0,0,0,0,0,0,1,
scooby_state_46c7c2|17|-26 1,0,0,0,0,0,0,0,0,0,0,0,0,0,0,1,
scooby_state_47ddc0|55|1 1,0,0,0,0,0,0,0,0,0,0,0,0,0,0,1,
scooby_state_46c70c|23|-1 1,0,0,0,0,0,0,0,0,0,0,0,0,0,0,1,
scooby_state_47de61|16|0 1,0,0,0,0,0,0,0,0,0,0,0,0,0,0,1,
scooby_state_4133ad|28|5 1,0,0,0,0,0,0,0,0,0,0,0,0,0,0,1,
scooby_state_47de4c|20|0 1,0,0,0,0,0,0,0,0,0,0,0,0,0,0,1,
scooby_state_47de34|16|0 1,0,0,0,0,0,0,0,0,0,0,0,0,0,0,1,
scooby_state_47dfb8|62|3 1,0,0,0,0,0,0,0,0,0,0,0,0,0,0,1,
scooby_state_47de81|58|1 1,0,0,0,0,0,0,0,0,0,0,0,0,0,0,1,
scooby_state_47de45|57|1 1,0,0,0,0,0,0,0,0,0,0,0,0,0,0,1,
scooby_state_46c790|17|-43 1,0,0,0,0,0,0,0,0,0,0,0,0,0,0,1,
scooby_state_47e10f|6|0 1,0,0,0,0,0,0,0,0,0,0,0,0,0,0,1,
scooby_state_411034|54|18 1,0,0,0,0,0,0,0,0,0,0,0,0,0,0,1,
scooby_state_46c804|32|0 1,0,0,0,0,0,0,0,0,0,0,0,0,0,0,1,
scooby_state_47dcd4|56|1 1,0,0,0,0,0,0,0,0,0,0,0,0,0,0,1,
scooby_state_46c701|29|3 1,0,0,0,0,0,0,0,0,0,0,0,0,0,0,1,
scooby_state_47dcb9|55|0 1,0,0,0,0,0,0,0,0,0,0,0,0,0,0,1,
scooby_state_47dc9d|50|0 1,0,0,0,0,0,0,0,0,0,0,0,0,0,0,1,
scooby_state_47dcc1|51|0 1,0,0,0,0,0,0,0,0,0,0,0,0,0,0,1,
scooby_state_46c7da|45|-18 1,0,0,0,0,0,0,0,0,0,0,0,0,0,0,1,
scooby_state_46c701|0|-29 1,0,0,0,0,0,0,0,0,0,0,0,0,0,0,1,
scooby_state_46c701|42|3 1,0,0,0,0,0,0,0,0,0,0,0,0,0,0,1,
scooby_state_47da3a|44|4 1,0,0,0,0,0,0,0,0,0,0,0,0,0,0,1,

scooby_action_0_deg_dist 0,92935,0,0,0,0,0,0,0,0,0,0,0,0,0,0,
scooby_action_22_deg_dist 0,5522,0,0,0,0,0,0,0,0,0,0,0,0,0,0,
scooby_action_3_deg_dist 0,6619,6,0,0,0,0,0,0,0,0,0,0,0,0,0,
scooby_action_32_deg_dist 0,5004,0,0,0,0,0,0,0,0,0,0,0,0,0,0,
scooby_action_4_deg_dist 0,6557,0,0,0,0,0,0,0,0,0,0,0,0,0,0,
scooby_action_1_deg_dist 0,152876,41245,0,99597,0,1012794,0,0,0,0,0,0,0,0,0,
scooby_action_30_deg_dist 0,87805,0,0,0,0,0,0,0,0,0,0,0,0,0,0,
scooby_action_5_deg_dist 0,6986,263,0,609,0,1363,0,0,0,0,0,0,0,0,0,
scooby_action_-3_deg_dist 0,6563,0,0,0,0,0,0,0,0,0,0,0,0,0,0,
scooby_action_10_deg_dist 0,6115,0,0,0,0,0,0,0,0,0,0,0,0,0,0,
scooby_action_-1_deg_dist 0,6545,0,0,0,0,0,0,0,0,0,0,0,0,0,0,
scooby_action_23_deg_dist 0,5481,0,0,0,0,0,0,0,0,0,0,0,0,0,0,
scooby_action_-6_deg_dist 0,6637,0,0,0,0,0,0,0,0,0,0,0,0,0,0,
scooby_action_11_deg_dist 0,6081,0,0,0,0,0,0,0,0,0,0,0,0,0,0,
scooby_action_12_deg_dist 0,5936,0,0,0,0,0,0,0,0,0,0,0,0,0,0,

scooby_track_called 1563539
scooby_track_same_address 3967
scooby_track_evict 1559316

scooby_reward_demand_called 1563539
scooby_reward_demand_pt_not_found 383729
scooby_reward_demand_pt_found 1179810
scooby_reward_demand_pt_found_total 1179810
scooby_reward_demand_has_reward 236
scooby_reward_train_called 339170
scooby_reward_assign_reward_called 1559558
scooby_reward_no_pref 92935
scooby_reward_incorrect 246235
scooby_reward_correct_untimely 1058818
scooby_reward_correct_timely 120756
scooby_reward_out_of_bounds 40814
scooby_reward_tracker_hit 0

scooby_reward_none_low_bw 92935
scooby_reward_none_high_bw 0
scooby_reward_incorrect_low_bw 246235
scooby_reward_incorrect_high_bw 0
scooby_reward_correct_untimely_low_bw 1058818
scooby_reward_correct_untimely_high_bw 0
scooby_reward_correct_timely_low_bw 120756
scooby_reward_correct_timely_high_bw 0
scooby_reward_out_of_bounds_low_bw 40814
scooby_reward_out_of_bounds_high_bw 0
scooby_reward_tracker_hit_low_bw 0
scooby_reward_tracker_hit_high_bw 0

scooby_reward_1 0,127741,1038729,116895,19911,0,
scooby_reward_3 0,6013,116,48,381,0,
scooby_reward_4 0,5926,69,60,502,0,
scooby_reward_5 0,6188,1100,1126,806,0,
scooby_reward_10 0,4916,7,129,1058,0,
scooby_reward_11 0,4780,7,102,1191,0,
scooby_reward_12 0,4569,3,104,1256,0,
scooby_reward_22 0,3480,1,58,1982,0,
scooby_reward_23 0,3345,0,43,2083,0,
scooby_reward_30 0,58392,18783,2156,8418,0,
scooby_reward_32 0,2422,3,35,2537,0,
scooby_reward_-1 0,6327,0,0,76,0,
scooby_reward_-3 0,6229,0,0,205,0,
scooby_reward_-6 0,5907,0,0,408,0,
scooby_reward_0 92935,0,0,0,0,0,

scooby_train_called 1559315
scooby_train_compute_reward 339170

scooby_register_fill_called 1267075
scooby_register_fill_set 301134
scooby_register_fill_set_total 301134

scooby_register_prefetch_hit_called 3749097
scooby_register_prefetch_hit_set 1028121
scooby_register_prefetch_hit_set_total 1028121

scooby_pref_issue_scooby 6464356

learning_engine_featurewise.action.called 1563539
learning_engine_featurewise.action.explore 2884
learning_engine_featurewise.action.exploit 1560655
learning_engine_featurewise.action.fallback 60411
learning_engine_featurewise.action.dyn_fallback_saved_bw 0
learning_engine_featurewise.action.dyn_fallback_saved_bw_acc 261510
learning_engine_featurewise.action.index_1_explored 189
learning_engine_featurewise.action.index_1_exploited 1306323
learning_engine_featurewise.action.index_3_explored 210
learning_engine_featurewise.action.index_3_exploited 6415
learning_engine_featurewise.action.index_4_explored 196
learning_engine_featurewise.action.index_4_exploited 6361
learning_engine_featurewise.action.index_5_explored 185
learning_engine_featurewise.action.index_5_exploited 9036
learning_engine_featurewise.action.index_10_explored 221
learning_engine_featurewise.action.index_10_exploited 5894
learning_engine_featurewise.action.index_11_explored 174
learning_engine_featurewise.action.index_11_exploited 5907
learning_engine_featurewise.action.index_12_explored 198
learning_engine_featurewise.action.index_12_exploited 5738
learning_engine_featurewise.action.index_22_explored 198
learning_engine_featurewise.action.index_22_exploited 5324
learning_engine_featurewise.action.index_23_explored 196
learning_engine_featurewise.action.index_23_exploited 5285
learning_engine_featurewise.action.index_30_explored 194
learning_engine_featurewise.action.index_30_exploited 87611
learning_engine_featurewise.action.index_32_explored 165
learning_engine_featurewise.action.index_32_exploited 4839
learning_engine_featurewise.action.index_-1_explored 189
learning_engine_featurewise.action.index_-1_exploited 6356
learning_engine_featurewise.action.index_-3_explored 191
learning_engine_featurewise.action.index_-3_exploited 6372
learning_engine_featurewise.action.index_-6_explored 185
learning_engine_featurewise.action.index_-6_exploited 6452
learning_engine_featurewise.action.index_0_explored 193
learning_engine_featurewise.action.index_0_exploited 92742
learning_engine_featurewise.learn.called 1559315
learning_engine_featurewise.learn.su_skip_PC 0
learning_engine_featurewise.learn.su_skip_PC_Delta 0

learning_engine_featurewise.q_value_histogram.bucket_0 222753
learning_engine_featurewise.q_value_histogram.bucket_1 4851
learning_engine_featurewise.q_value_histogram.bucket_2 66379
learning_engine_featurewise.q_value_histogram.bucket_3 5916
learning_engine_featurewise.q_value_histogram.bucket_4 18706
learning_engine_featurewise.q_value_histogram.bucket_5 23073
learning_engine_featurewise.q_value_histogram.bucket_6 1218977
learning_engine_featurewise.q_value_histogram.bucket_7 0

learning_engine_featurewise.consensus.total 1560655
learning_engine_featurewise.consensus.feature_align_PC 1306189
learning_engine_featurewise.consensus.feature_align_PC_ratio 0.84
learning_engine_featurewise.consensus.feature_align_PC_Delta 1325597
learning_engine_featurewise.consensus.feature_align_PC_Delta_ratio 0.85
learning_engine_featurewise.consensus.feature_align_all 1297606
learning_engine_featurewise.consensus.feature_align_all_ratio 0.83

learning_engine_featurewise.feature_PC_min_weight 1000000.00000000
learning_engine_featurewise.feature_PC_max_weight 0.00000000
learning_engine_featurewise.feature_PC_Delta_min_weight 1000000.00000000
learning_engine_featurewise.feature_PC_Delta_max_weight 0.00000000
unique_pcs 821
unique_pages 72335
unique_trigger_pcs 271
total_bitmaps_seen 0
unique_bitmaps_seen 0

scooby_bw_epochs 352953
scooby_bw_level_0 168261
scooby_bw_level_1 63438
scooby_bw_level_2 55927
scooby_bw_level_3 65327

scooby_ipc_epochs 0
scooby_ipc_level_0 0
scooby_ipc_level_1 0
scooby_ipc_level_2 0
scooby_ipc_level_3 0

scooby_cache_acc_epochs 74623
scooby_cache_acc_level_0 6751
scooby_cache_acc_level_1 3798
scooby_cache_acc_level_2 2050
scooby_cache_acc_level_3 1163
scooby_cache_acc_level_4 5297
scooby_cache_acc_level_5 1868
scooby_cache_acc_level_6 3472
scooby_cache_acc_level_7 7865
scooby_cache_acc_level_8 11953
scooby_cache_acc_level_9 30406

Channel_0_RQ_row_buffer_hit 467225
Channel_0_RQ_row_buffer_miss 824374
Channel_0_WQ_row_buffer_hit 80981
Channel_0_WQ_row_buffer_miss 452733
Channel_0_WQ_full 267
Channel_0_dbus_congested 1213117

avg_congested_cycle 10

DRAM_bw_pochs 352953
DRAM_bw_level_0 168261
DRAM_bw_level_1 63438
DRAM_bw_level_2 55927
DRAM_bw_level_3 65327
