*************************************************
   ChampSim Multicore Out-of-Order Simulator
   Last compiled: Apr  3 2025 20:54:34
*************************************************
parsing config file: /home/zir/Pythia/config/spp_dev2.ini

trace_0 /home/zir/ChampSim/ML-DPC/ChampSimTraces/spec17/619.lbm-s0.trace.xz
adding L2C_PREFETCHER: SPP_dev2
Initialize SIGNATURE TABLE
ST_SET: 1
ST_WAY: 256
ST_TAG_BIT: 16
ST_TAG_MASK: ffff

Initialize PATTERN TABLE
PT_SET: 512
PT_WAY: 4
SIG_DELTA_BIT: 7
C_SIG_BIT: 4
C_DELTA_BIT: 4

Initialize PREFETCH FILTER
FILTER_SET: 1024
fill_threshold: 90
pf_threshold: 40

Initialize SHIP state
warmup_instructions 10000000
simulation_instructions 50000000
champsim_seed 163
measure_ipc 0
measure_ipc_epoch 1000
measure_dram_bw 1
measure_dram_bw_epoch 256
measure_cache_acc 1
measure_cache_acc_epoch 1024
l1d_perfect 0
l2c_perfect 0
llc_perfect 0
l1d_semi_perfect 0
l2c_semi_perfect 0
llc_semi_perfect 0
semi_perfect_cache_page_buffer_size 64

num_cpus 1
cpu_freq 4000
dram_io_freq 2400
page_size 4096
block_size 64
max_read_per_cycle 8
max_fill_per_cycle 1
dram_channels 1
log2_dram_channels 0
dram_ranks 1
dram_banks 8
dram_rows 65536
dram_columns 128
dram_row_size 8
dram_size 4096
dram_pages 1048576

fetch_width 6
decode_width 6
exec_width 4
lq_width 2
sq_width 2
retire_width 4
scheduler_size 128
branch_mispredict_penalty 20
rob_size 256
lq_size 72
sq_size 56
num_instr_destinations_sparc 4
num_instr_destinations 2
num_instr_sources 4

itlb_set 16
itlb_way 8
itlb_rq_size 16
itlb_wq_size 16
itlb_pq_size 0
itlb_mshr_size 8
itlb_latency 1

dtlb_set 16
dtlb_way 4
dtlb_rq_size 16
dtlb_wq_size 16
dtlb_pq_size 0
dtlb_mshr_size 8
dtlb_latency 1

stlb_set 128
stlb_way 12
stlb_rq_size 32
stlb_wq_size 32
stlb_pq_size 0
stlb_mshr_size 16
stlb_latency 8

l1i_size 32
l1i_set 64
l1i_way 8
l1i_rq_size 64
l1i_wq_size 64
l1i_pq_size 8
l1i_mshr_size 8
l1i_latency 1

l1d_size 32
l1d_set 64
l1d_way 8
l1d_rq_size 64
l1d_wq_size 64
l1d_pq_size 8
l1d_mshr_size 16
l1d_latency 4

l2c_size 256
l2c_set 512
l2c_way 8
l2c_rq_size 32
l2c_wq_size 32
l2c_pq_size 32
l2c_mshr_size 32
l2c_latency 10

llc_size 2048
llc_set 2048
llc_way 16
llc_rq_size 32
llc_wq_size 32
llc_pq_size 32
llc_mshr_size 64
llc_latency 20

dram_channel_width 8
dram_wq_size 64
dram_rq_size 64
tRP 15
tRCD 15
tCAS 12.5
dram_dbus_turn_around_time 30
dram_write_high_wm 56
dram_write_low_wm 48
min_dram_writes_per_switch 16
dram_mtps 2400
dram_dbus_return_time 13


Heartbeat CPU  0 instructions:    1000002 cycles:     410155 heartbeat IPC: 2.43811 cumulative IPC: 2.43811 (Simulation time: 0 hr 0 min 2 sec) 
Heartbeat CPU  0 instructions:    2000002 cycles:     818711 heartbeat IPC: 2.44764 cumulative IPC: 2.44287 (Simulation time: 0 hr 0 min 4 sec) 
Heartbeat CPU  0 instructions:    3000003 cycles:    1243127 heartbeat IPC: 2.35618 cumulative IPC: 2.41327 (Simulation time: 0 hr 0 min 6 sec) 
Heartbeat CPU  0 instructions:    4000000 cycles:    1671772 heartbeat IPC: 2.33293 cumulative IPC: 2.39267 (Simulation time: 0 hr 0 min 8 sec) 
Heartbeat CPU  0 instructions:    5000000 cycles:    2094591 heartbeat IPC: 2.36508 cumulative IPC: 2.38710 (Simulation time: 0 hr 0 min 9 sec) 
Heartbeat CPU  0 instructions:    6000003 cycles:    2519326 heartbeat IPC: 2.35442 cumulative IPC: 2.38159 (Simulation time: 0 hr 0 min 11 sec) 
Heartbeat CPU  0 instructions:    7000001 cycles:    2943302 heartbeat IPC: 2.35862 cumulative IPC: 2.37828 (Simulation time: 0 hr 0 min 13 sec) 
Heartbeat CPU  0 instructions:    8000000 cycles:    3365483 heartbeat IPC: 2.36865 cumulative IPC: 2.37707 (Simulation time: 0 hr 0 min 15 sec) 
Heartbeat CPU  0 instructions:    9000001 cycles:    3785112 heartbeat IPC: 2.38306 cumulative IPC: 2.37774 (Simulation time: 0 hr 0 min 17 sec) 
Heartbeat CPU  0 instructions:   10000000 cycles:    4194508 heartbeat IPC: 2.44262 cumulative IPC: 2.38407 (Simulation time: 0 hr 0 min 19 sec) 

Warmup complete CPU  0 instructions:   10000004 cycles:    4194509 (Simulation time: 0 hr 0 min 19 sec) 

Heartbeat CPU  0 instructions:   11000002 cycles:    6396286 heartbeat IPC: 0.45418 cumulative IPC: 0.45418 (Simulation time: 0 hr 0 min 22 sec) 
Heartbeat CPU  0 instructions:   12000000 cycles:    9054884 heartbeat IPC: 0.37614 cumulative IPC: 0.41149 (Simulation time: 0 hr 0 min 25 sec) 
Heartbeat CPU  0 instructions:   13000000 cycles:   11823035 heartbeat IPC: 0.36125 cumulative IPC: 0.39326 (Simulation time: 0 hr 0 min 28 sec) 
Heartbeat CPU  0 instructions:   14000000 cycles:   14392049 heartbeat IPC: 0.38925 cumulative IPC: 0.39225 (Simulation time: 0 hr 0 min 32 sec) 
Heartbeat CPU  0 instructions:   15000003 cycles:   16963899 heartbeat IPC: 0.38883 cumulative IPC: 0.39156 (Simulation time: 0 hr 0 min 35 sec) 
Heartbeat CPU  0 instructions:   16000000 cycles:   19478994 heartbeat IPC: 0.39760 cumulative IPC: 0.39255 (Simulation time: 0 hr 0 min 38 sec) 
Heartbeat CPU  0 instructions:   17000003 cycles:   22008677 heartbeat IPC: 0.39531 cumulative IPC: 0.39295 (Simulation time: 0 hr 0 min 41 sec) 
Heartbeat CPU  0 instructions:   18000003 cycles:   24504787 heartbeat IPC: 0.40062 cumulative IPC: 0.39389 (Simulation time: 0 hr 0 min 44 sec) 
Heartbeat CPU  0 instructions:   19000001 cycles:   26628255 heartbeat IPC: 0.47093 cumulative IPC: 0.40118 (Simulation time: 0 hr 0 min 47 sec) 
Heartbeat CPU  0 instructions:   20000000 cycles:   28941199 heartbeat IPC: 0.43235 cumulative IPC: 0.40409 (Simulation time: 0 hr 0 min 51 sec) 
Heartbeat CPU  0 instructions:   21000003 cycles:   31338472 heartbeat IPC: 0.41714 cumulative IPC: 0.40525 (Simulation time: 0 hr 0 min 54 sec) 
Heartbeat CPU  0 instructions:   22000002 cycles:   34011614 heartbeat IPC: 0.37409 cumulative IPC: 0.40245 (Simulation time: 0 hr 0 min 57 sec) 
Heartbeat CPU  0 instructions:   23000001 cycles:   36698169 heartbeat IPC: 0.37222 cumulative IPC: 0.39995 (Simulation time: 0 hr 1 min 0 sec) 
Heartbeat CPU  0 instructions:   24000000 cycles:   39021615 heartbeat IPC: 0.43039 cumulative IPC: 0.40199 (Simulation time: 0 hr 1 min 3 sec) 
Heartbeat CPU  0 instructions:   25000002 cycles:   41553114 heartbeat IPC: 0.39502 cumulative IPC: 0.40151 (Simulation time: 0 hr 1 min 6 sec) 
Heartbeat CPU  0 instructions:   26000001 cycles:   44065917 heartbeat IPC: 0.39796 cumulative IPC: 0.40129 (Simulation time: 0 hr 1 min 10 sec) 
Heartbeat CPU  0 instructions:   27000001 cycles:   46542109 heartbeat IPC: 0.40385 cumulative IPC: 0.40144 (Simulation time: 0 hr 1 min 13 sec) 
Heartbeat CPU  0 instructions:   28000000 cycles:   48956158 heartbeat IPC: 0.41424 cumulative IPC: 0.40213 (Simulation time: 0 hr 1 min 16 sec) 
Heartbeat CPU  0 instructions:   29000001 cycles:   50994747 heartbeat IPC: 0.49054 cumulative IPC: 0.40598 (Simulation time: 0 hr 1 min 19 sec) 
Heartbeat CPU  0 instructions:   30000003 cycles:   53151603 heartbeat IPC: 0.46364 cumulative IPC: 0.40852 (Simulation time: 0 hr 1 min 22 sec) 
Heartbeat CPU  0 instructions:   31000003 cycles:   55678735 heartbeat IPC: 0.39571 cumulative IPC: 0.40789 (Simulation time: 0 hr 1 min 25 sec) 
Heartbeat CPU  0 instructions:   32000000 cycles:   57872148 heartbeat IPC: 0.45591 cumulative IPC: 0.40985 (Simulation time: 0 hr 1 min 28 sec) 
Heartbeat CPU  0 instructions:   33000002 cycles:   60354733 heartbeat IPC: 0.40281 cumulative IPC: 0.40954 (Simulation time: 0 hr 1 min 31 sec) 
Heartbeat CPU  0 instructions:   34000003 cycles:   62513664 heartbeat IPC: 0.46319 cumulative IPC: 0.41153 (Simulation time: 0 hr 1 min 34 sec) 
Heartbeat CPU  0 instructions:   35000003 cycles:   64807232 heartbeat IPC: 0.43600 cumulative IPC: 0.41245 (Simulation time: 0 hr 1 min 37 sec) 
Heartbeat CPU  0 instructions:   36000000 cycles:   67177171 heartbeat IPC: 0.42195 cumulative IPC: 0.41281 (Simulation time: 0 hr 1 min 40 sec) 
Heartbeat CPU  0 instructions:   37000000 cycles:   69777972 heartbeat IPC: 0.38450 cumulative IPC: 0.41169 (Simulation time: 0 hr 1 min 44 sec) 
Heartbeat CPU  0 instructions:   38000001 cycles:   71967149 heartbeat IPC: 0.45679 cumulative IPC: 0.41315 (Simulation time: 0 hr 1 min 47 sec) 
Heartbeat CPU  0 instructions:   39000001 cycles:   73897487 heartbeat IPC: 0.51804 cumulative IPC: 0.41605 (Simulation time: 0 hr 1 min 49 sec) 
Heartbeat CPU  0 instructions:   40000000 cycles:   76087485 heartbeat IPC: 0.45662 cumulative IPC: 0.41729 (Simulation time: 0 hr 1 min 52 sec) 
Heartbeat CPU  0 instructions:   41000001 cycles:   78374994 heartbeat IPC: 0.43716 cumulative IPC: 0.41790 (Simulation time: 0 hr 1 min 55 sec) 
Heartbeat CPU  0 instructions:   42000001 cycles:   80350328 heartbeat IPC: 0.50624 cumulative IPC: 0.42019 (Simulation time: 0 hr 1 min 58 sec) 
Heartbeat CPU  0 instructions:   43000002 cycles:   82879018 heartbeat IPC: 0.39546 cumulative IPC: 0.41940 (Simulation time: 0 hr 2 min 1 sec) 
Heartbeat CPU  0 instructions:   44000000 cycles:   84957905 heartbeat IPC: 0.48103 cumulative IPC: 0.42098 (Simulation time: 0 hr 2 min 4 sec) 
Heartbeat CPU  0 instructions:   45000003 cycles:   87161018 heartbeat IPC: 0.45390 cumulative IPC: 0.42186 (Simulation time: 0 hr 2 min 7 sec) 
Heartbeat CPU  0 instructions:   46000000 cycles:   89338504 heartbeat IPC: 0.45924 cumulative IPC: 0.42281 (Simulation time: 0 hr 2 min 10 sec) 
Heartbeat CPU  0 instructions:   47000003 cycles:   91634227 heartbeat IPC: 0.43559 cumulative IPC: 0.42315 (Simulation time: 0 hr 2 min 13 sec) 
Heartbeat CPU  0 instructions:   48000000 cycles:   93817822 heartbeat IPC: 0.45796 cumulative IPC: 0.42400 (Simulation time: 0 hr 2 min 16 sec) 
Heartbeat CPU  0 instructions:   49000002 cycles:   95905703 heartbeat IPC: 0.47896 cumulative IPC: 0.42525 (Simulation time: 0 hr 2 min 19 sec) 
Heartbeat CPU  0 instructions:   50000002 cycles:   97865380 heartbeat IPC: 0.51029 cumulative IPC: 0.42703 (Simulation time: 0 hr 2 min 22 sec) 
Heartbeat CPU  0 instructions:   51000000 cycles:   99745755 heartbeat IPC: 0.53181 cumulative IPC: 0.42909 (Simulation time: 0 hr 2 min 25 sec) 
Heartbeat CPU  0 instructions:   52000000 cycles:  101857367 heartbeat IPC: 0.47357 cumulative IPC: 0.43005 (Simulation time: 0 hr 2 min 28 sec) 
Heartbeat CPU  0 instructions:   53000003 cycles:  104076510 heartbeat IPC: 0.45063 cumulative IPC: 0.43051 (Simulation time: 0 hr 2 min 31 sec) 
Heartbeat CPU  0 instructions:   54000003 cycles:  106220087 heartbeat IPC: 0.46651 cumulative IPC: 0.43126 (Simulation time: 0 hr 2 min 34 sec) 
Heartbeat CPU  0 instructions:   55000000 cycles:  108181968 heartbeat IPC: 0.50971 cumulative IPC: 0.43274 (Simulation time: 0 hr 2 min 37 sec) 
Heartbeat CPU  0 instructions:   56000000 cycles:  110082777 heartbeat IPC: 0.52609 cumulative IPC: 0.43442 (Simulation time: 0 hr 2 min 40 sec) 
Heartbeat CPU  0 instructions:   57000003 cycles:  112126566 heartbeat IPC: 0.48929 cumulative IPC: 0.43546 (Simulation time: 0 hr 2 min 42 sec) 
Heartbeat CPU  0 instructions:   58000002 cycles:  114615723 heartbeat IPC: 0.40174 cumulative IPC: 0.43470 (Simulation time: 0 hr 2 min 46 sec) 
Heartbeat CPU  0 instructions:   59000003 cycles:  116514369 heartbeat IPC: 0.52669 cumulative IPC: 0.43625 (Simulation time: 0 hr 2 min 48 sec) 
Heartbeat CPU  0 instructions:   60000000 cycles:  118539253 heartbeat IPC: 0.49385 cumulative IPC: 0.43727 (Simulation time: 0 hr 2 min 51 sec) 
Finished CPU 0 instructions: 50000000 cycles: 114344770 cumulative IPC: 0.43727 (Simulation time: 0 hr 2 min 51 sec) 

ChampSim completed all CPUs

[ROI Statistics]
Core_0_instructions 50000000
Core_0_cycles 114344770
Core_0_IPC 0.43727

Core_0_branch_prediction_accuracy 97.72417
Core_0_branch_MPKI 0.36452
Core_0_average_ROB_occupancy_at_mispredict 243.09267

Core_0_L1D_total_access 13355940
Core_0_L1D_total_hit 10002720
Core_0_L1D_total_miss 3353220
Core_0_L1D_loads 4757411
Core_0_L1D_load_hit 4249097
Core_0_L1D_load_miss 508314
Core_0_L1D_RFOs 8598529
Core_0_L1D_RFO_hit 5753623
Core_0_L1D_RFO_miss 2844906
Core_0_L1D_prefetches 0
Core_0_L1D_prefetch_hit 0
Core_0_L1D_prefetch_miss 0
Core_0_L1D_writebacks 0
Core_0_L1D_writeback_hit 0
Core_0_L1D_writeback_miss 0
Core_0_L1D_prefetch_requested 0
Core_0_L1D_prefetch_dropped 0
Core_0_L1D_prefetch_issued 0
Core_0_L1D_prefetch_filled 0
Core_0_L1D_prefetch_useful 0
Core_0_L1D_prefetch_useless 0
Core_0_L1D_prefetch_late 0
Core_0_L1D_average_miss_latency 476.39252

Core_0_L1D_rq_access 11460021
Core_0_L1D_rq_forward 0
Core_0_L1D_rq_merged 6375658
Core_0_L1D_rq_to_cache 4835058
Core_0_L1D_rq_full 0

Core_0_L1D_wq_access 8740015
Core_0_L1D_wq_forward 249305
Core_0_L1D_wq_merged 67927
Core_0_L1D_wq_to_cache 8672088
Core_0_L1D_wq_full 220401

Core_0_L1D_pq_access 0
Core_0_L1D_pq_forward 0
Core_0_L1D_pq_merged 0
Core_0_L1D_pq_to_cache 0
Core_0_L1D_pq_full 0

Core_0_L1D_acc_epochs 112692
Core_0_L1D_acc_level_0 112692
Core_0_L1D_acc_level_1 0
Core_0_L1D_acc_level_2 0
Core_0_L1D_acc_level_3 0
Core_0_L1D_acc_level_4 0
Core_0_L1D_acc_level_5 0
Core_0_L1D_acc_level_6 0
Core_0_L1D_acc_level_7 0
Core_0_L1D_acc_level_8 0
Core_0_L1D_acc_level_9 0

Core_0_L1I_total_access 11894245
Core_0_L1I_total_hit 11894245
Core_0_L1I_total_miss 0
Core_0_L1I_loads 11894245
Core_0_L1I_load_hit 11894245
Core_0_L1I_load_miss 0
Core_0_L1I_RFOs 0
Core_0_L1I_RFO_hit 0
Core_0_L1I_RFO_miss 0
Core_0_L1I_prefetches 0
Core_0_L1I_prefetch_hit 0
Core_0_L1I_prefetch_miss 0
Core_0_L1I_writebacks 0
Core_0_L1I_writeback_hit 0
Core_0_L1I_writeback_miss 0
Core_0_L1I_prefetch_requested 0
Core_0_L1I_prefetch_dropped 0
Core_0_L1I_prefetch_issued 0
Core_0_L1I_prefetch_filled 0
Core_0_L1I_prefetch_useful 0
Core_0_L1I_prefetch_useless 0
Core_0_L1I_prefetch_late 0
Core_0_L1I_average_miss_latency -nan

Core_0_L1I_rq_access 50000006
Core_0_L1I_rq_forward 0
Core_0_L1I_rq_merged 38105761
Core_0_L1I_rq_to_cache 11894245
Core_0_L1I_rq_full 0

Core_0_L1I_wq_access 0
Core_0_L1I_wq_forward 0
Core_0_L1I_wq_merged 0
Core_0_L1I_wq_to_cache 0
Core_0_L1I_wq_full 0

Core_0_L1I_pq_access 0
Core_0_L1I_pq_forward 0
Core_0_L1I_pq_merged 0
Core_0_L1I_pq_to_cache 0
Core_0_L1I_pq_full 0

Core_0_L1I_acc_epochs 112692
Core_0_L1I_acc_level_0 112692
Core_0_L1I_acc_level_1 0
Core_0_L1I_acc_level_2 0
Core_0_L1I_acc_level_3 0
Core_0_L1I_acc_level_4 0
Core_0_L1I_acc_level_5 0
Core_0_L1I_acc_level_6 0
Core_0_L1I_acc_level_7 0
Core_0_L1I_acc_level_8 0
Core_0_L1I_acc_level_9 0

Core_0_L2C_total_access 6323144
Core_0_L2C_total_hit 3735874
Core_0_L2C_total_miss 2587270
Core_0_L2C_loads 508313
Core_0_L2C_load_hit 123551
Core_0_L2C_load_miss 384762
Core_0_L2C_RFOs 2844904
Core_0_L2C_RFO_hit 766238
Core_0_L2C_RFO_miss 2078666
Core_0_L2C_prefetches 125020
Core_0_L2C_prefetch_hit 1614
Core_0_L2C_prefetch_miss 123406
Core_0_L2C_writebacks 2844907
Core_0_L2C_writeback_hit 2844471
Core_0_L2C_writeback_miss 436
Core_0_L2C_prefetch_requested 4013479
Core_0_L2C_prefetch_dropped 0
Core_0_L2C_prefetch_issued 4013479
Core_0_L2C_prefetch_filled 170188
Core_0_L2C_prefetch_useful 170182
Core_0_L2C_prefetch_useless 6
Core_0_L2C_prefetch_late 105617
Core_0_L2C_average_miss_latency 602.25017

Core_0_L2C_rq_access 3353233
Core_0_L2C_rq_forward 0
Core_0_L2C_rq_merged 0
Core_0_L2C_rq_to_cache 3353231
Core_0_L2C_rq_full 0

Core_0_L2C_wq_access 2844907
Core_0_L2C_wq_forward 2
Core_0_L2C_wq_merged 0
Core_0_L2C_wq_to_cache 2844907
Core_0_L2C_wq_full 0

Core_0_L2C_pq_access 4013479
Core_0_L2C_pq_forward 0
Core_0_L2C_pq_merged 1411084
Core_0_L2C_pq_to_cache 2602395
Core_0_L2C_pq_full 0

Core_0_L2C_acc_epochs 112692
Core_0_L2C_acc_level_0 5437
Core_0_L2C_acc_level_1 7021
Core_0_L2C_acc_level_2 7946
Core_0_L2C_acc_level_3 8832
Core_0_L2C_acc_level_4 8598
Core_0_L2C_acc_level_5 10211
Core_0_L2C_acc_level_6 10176
Core_0_L2C_acc_level_7 10413
Core_0_L2C_acc_level_8 10703
Core_0_L2C_acc_level_9 33355

Core_0_LLC_total_access 5652216
Core_0_LLC_total_hit 2837259
Core_0_LLC_total_miss 2814957
Core_0_LLC_loads 279974
Core_0_LLC_load_hit 217658
Core_0_LLC_load_miss 62316
Core_0_LLC_RFOs 2078019
Core_0_LLC_RFO_hit 552468
Core_0_LLC_RFO_miss 1525551
Core_0_LLC_prefetches 1215913
Core_0_LLC_prefetch_hit 770287
Core_0_LLC_prefetch_miss 445626
Core_0_LLC_writebacks 2078310
Core_0_LLC_writeback_hit 1296846
Core_0_LLC_writeback_miss 781464
Core_0_LLC_prefetch_requested 0
Core_0_LLC_prefetch_dropped 0
Core_0_LLC_prefetch_issued 0
Core_0_LLC_prefetch_filled 554068
Core_0_LLC_prefetch_useful 278253
Core_0_LLC_prefetch_useless 271317
Core_0_LLC_prefetch_late 45564
Core_0_LLC_average_miss_latency 638.52129

Core_0_LLC_rq_access 2358654
Core_0_LLC_rq_forward 0
Core_0_LLC_rq_merged 0
Core_0_LLC_rq_to_cache 2358007
Core_0_LLC_rq_full 0

Core_0_LLC_wq_access 2078309
Core_0_LLC_wq_forward 647
Core_0_LLC_wq_merged 0
Core_0_LLC_wq_to_cache 2078309
Core_0_LLC_wq_full 0

Core_0_LLC_pq_access 2430648
Core_0_LLC_pq_forward 0
Core_0_LLC_pq_merged 235261
Core_0_LLC_pq_to_cache 2195387
Core_0_LLC_pq_full 0

Core_0_LLC_acc_epochs 115762
Core_0_LLC_acc_level_0 2295
Core_0_LLC_acc_level_1 7177
Core_0_LLC_acc_level_2 11151
Core_0_LLC_acc_level_3 14788
Core_0_LLC_acc_level_4 16487
Core_0_LLC_acc_level_5 15921
Core_0_LLC_acc_level_6 13017
Core_0_LLC_acc_level_7 9013
Core_0_LLC_acc_level_8 6796
Core_0_LLC_acc_level_9 19117

Core_0_major_page_fault 0
Core_0_minor_page_fault 22513

spp.pref.total 4013479
spp.pref.at_L2 389975
spp.pref.at_LLC 3623504

spp.depth.max 11
spp.depth.min 0
spp.depth.avg 6

spp.breadth.max 2
spp.breadth.min 0
spp.breadth.avg 0

delta_1 835878
delta_-1 829634
delta_-2 814894
delta_3 808374
delta_4 767491
delta_-63 2308
delta_2 24

depth_1_delta_1 122219
depth_1_delta_-2 120168
depth_1_delta_-1 120082
depth_1_delta_4 118180
depth_1_delta_3 118117
depth_1_delta_-63 1153
depth_1_delta_2 24
depth_2_delta_1 122186
depth_2_delta_-2 120113
depth_2_delta_-1 120110
depth_2_delta_4 116175
depth_2_delta_3 116108
depth_2_delta_-63 1155
depth_3_delta_-2 120086
depth_3_delta_3 120044
depth_3_delta_1 118192
depth_3_delta_-1 118041
depth_3_delta_4 112357
depth_4_delta_-1 121974
depth_4_delta_1 118159
depth_4_delta_-2 116224
depth_4_delta_3 112283
depth_4_delta_4 110290
depth_5_delta_4 114118
depth_5_delta_1 113958
depth_5_delta_-1 113913
depth_5_delta_-2 113894
depth_5_delta_3 111983
depth_6_delta_-2 108372
depth_6_delta_1 107842
depth_6_delta_-1 107729
depth_6_delta_3 101276
depth_6_delta_4 89628
depth_7_delta_1 87758
depth_7_delta_3 79672
depth_7_delta_-1 78446
depth_7_delta_-2 71729
depth_7_delta_4 67053
depth_8_delta_3 42017
depth_8_delta_-1 40612
depth_8_delta_1 37173
depth_8_delta_-2 37043
depth_8_delta_4 32223
depth_9_delta_-1 8624
depth_9_delta_1 8241
depth_9_delta_4 7320
depth_9_delta_-2 7023
depth_9_delta_3 6650
depth_10_delta_-2 240
depth_10_delta_3 214
depth_10_delta_4 146
depth_10_delta_1 140
depth_10_delta_-1 98
depth_11_delta_1 10
depth_11_delta_3 10
depth_11_delta_-1 5
depth_11_delta_-2 2
depth_11_delta_4 1

Channel_0_RQ_row_buffer_hit 194329
Channel_0_RQ_row_buffer_miss 1839049
Channel_0_WQ_row_buffer_hit 160270
Channel_0_WQ_row_buffer_miss 1361885
Channel_0_WQ_full 84
Channel_0_dbus_congested 2409388

avg_congested_cycle 11

DRAM_bw_pochs 463045
DRAM_bw_level_0 85420
DRAM_bw_level_1 202481
DRAM_bw_level_2 138439
DRAM_bw_level_3 36705
