*************************************************
   ChampSim Multicore Out-of-Order Simulator
   Last compiled: Apr  3 2025 20:54:34
*************************************************
parsing config file: /home/zir/Pythia/config/mlop.ini

trace_0 /home/zir/ChampSim/ML-DPC/ChampSimTraces/spec17/607.cactuBSSN-s1.trace.xz
adding L2C_PREFETCHER: MLOP
Initialize SHIP state
warmup_instructions 10000000
simulation_instructions 50000000
champsim_seed 164
measure_ipc 0
measure_ipc_epoch 1000
measure_dram_bw 1
measure_dram_bw_epoch 256
measure_cache_acc 1
measure_cache_acc_epoch 1024
l1d_perfect 0
l2c_perfect 0
llc_perfect 0
l1d_semi_perfect 0
l2c_semi_perfect 0
llc_semi_perfect 0
semi_perfect_cache_page_buffer_size 64

num_cpus 1
cpu_freq 4000
dram_io_freq 2400
page_size 4096
block_size 64
max_read_per_cycle 8
max_fill_per_cycle 1
dram_channels 1
log2_dram_channels 0
dram_ranks 1
dram_banks 8
dram_rows 65536
dram_columns 128
dram_row_size 8
dram_size 4096
dram_pages 1048576

fetch_width 6
decode_width 6
exec_width 4
lq_width 2
sq_width 2
retire_width 4
scheduler_size 128
branch_mispredict_penalty 20
rob_size 256
lq_size 72
sq_size 56
num_instr_destinations_sparc 4
num_instr_destinations 2
num_instr_sources 4

itlb_set 16
itlb_way 8
itlb_rq_size 16
itlb_wq_size 16
itlb_pq_size 0
itlb_mshr_size 8
itlb_latency 1

dtlb_set 16
dtlb_way 4
dtlb_rq_size 16
dtlb_wq_size 16
dtlb_pq_size 0
dtlb_mshr_size 8
dtlb_latency 1

stlb_set 128
stlb_way 12
stlb_rq_size 32
stlb_wq_size 32
stlb_pq_size 0
stlb_mshr_size 16
stlb_latency 8

l1i_size 32
l1i_set 64
l1i_way 8
l1i_rq_size 64
l1i_wq_size 64
l1i_pq_size 8
l1i_mshr_size 8
l1i_latency 1

l1d_size 32
l1d_set 64
l1d_way 8
l1d_rq_size 64
l1d_wq_size 64
l1d_pq_size 8
l1d_mshr_size 16
l1d_latency 4

l2c_size 256
l2c_set 512
l2c_way 8
l2c_rq_size 32
l2c_wq_size 32
l2c_pq_size 32
l2c_mshr_size 32
l2c_latency 10

llc_size 2048
llc_set 2048
llc_way 16
llc_rq_size 32
llc_wq_size 32
llc_pq_size 32
llc_mshr_size 64
llc_latency 20

dram_channel_width 8
dram_wq_size 64
dram_rq_size 64
tRP 15
tRCD 15
tCAS 12.5
dram_dbus_turn_around_time 30
dram_write_high_wm 56
dram_write_low_wm 48
min_dram_writes_per_switch 16
dram_mtps 2400
dram_dbus_return_time 13

mlop_pref_degree 16
mlop_num_updates 500
mlop_l1d_thresh 2
mlop_l2c_thresh 0.75
mlop_llc_thresh 0.3
mlop_debug_level 0
mlop_blocks_in_cache 4096
mlop_blocks_in_zone 64
mlop_amt_size 2048
mlop_PF_DEGREE 16
mlop_NUM_UPDATES 500
mlop_L1D_THRESH 1000
mlop_L2C_THRESH 375
mlop_LLC_THRESH 150
mlop_ORIGIN 63
mlop_MAX_OFFSET 63
mlop_MIN_OFFSET -63
mlop_ORIGIN 63
mlop_NUM_OFFSETS 127


Heartbeat CPU  0 instructions:    1000001 cycles:     567147 heartbeat IPC: 1.76321 cumulative IPC: 1.76321 (Simulation time: 0 hr 0 min 2 sec) 
Heartbeat CPU  0 instructions:    2000001 cycles:    1134092 heartbeat IPC: 1.76384 cumulative IPC: 1.76353 (Simulation time: 0 hr 0 min 4 sec) 
Heartbeat CPU  0 instructions:    3000002 cycles:    1700947 heartbeat IPC: 1.76412 cumulative IPC: 1.76372 (Simulation time: 0 hr 0 min 6 sec) 
Heartbeat CPU  0 instructions:    4000000 cycles:    2267949 heartbeat IPC: 1.76366 cumulative IPC: 1.76371 (Simulation time: 0 hr 0 min 8 sec) 
Heartbeat CPU  0 instructions:    5000003 cycles:    2834572 heartbeat IPC: 1.76485 cumulative IPC: 1.76394 (Simulation time: 0 hr 0 min 9 sec) 
Heartbeat CPU  0 instructions:    6000001 cycles:    3401127 heartbeat IPC: 1.76505 cumulative IPC: 1.76412 (Simulation time: 0 hr 0 min 11 sec) 
Heartbeat CPU  0 instructions:    7000001 cycles:    3968190 heartbeat IPC: 1.76347 cumulative IPC: 1.76403 (Simulation time: 0 hr 0 min 13 sec) 
Heartbeat CPU  0 instructions:    8000000 cycles:    4534973 heartbeat IPC: 1.76434 cumulative IPC: 1.76407 (Simulation time: 0 hr 0 min 15 sec) 
Heartbeat CPU  0 instructions:    9000000 cycles:    5101526 heartbeat IPC: 1.76506 cumulative IPC: 1.76418 (Simulation time: 0 hr 0 min 17 sec) 
Heartbeat CPU  0 instructions:   10000001 cycles:    5668093 heartbeat IPC: 1.76502 cumulative IPC: 1.76426 (Simulation time: 0 hr 0 min 19 sec) 

Warmup complete CPU  0 instructions:   10000001 cycles:    5668093 (Simulation time: 0 hr 0 min 19 sec) 

Heartbeat CPU  0 instructions:   11000002 cycles:    6538729 heartbeat IPC: 1.14859 cumulative IPC: 1.14859 (Simulation time: 0 hr 0 min 21 sec) 
Heartbeat CPU  0 instructions:   12000000 cycles:    7409032 heartbeat IPC: 1.14902 cumulative IPC: 1.14880 (Simulation time: 0 hr 0 min 23 sec) 
Heartbeat CPU  0 instructions:   13000001 cycles:    8275248 heartbeat IPC: 1.15445 cumulative IPC: 1.15068 (Simulation time: 0 hr 0 min 26 sec) 
Heartbeat CPU  0 instructions:   14000003 cycles:    9174674 heartbeat IPC: 1.11182 cumulative IPC: 1.14071 (Simulation time: 0 hr 0 min 28 sec) 
Heartbeat CPU  0 instructions:   15000003 cycles:   10042078 heartbeat IPC: 1.15287 cumulative IPC: 1.14312 (Simulation time: 0 hr 0 min 30 sec) 
Heartbeat CPU  0 instructions:   16000000 cycles:   10914651 heartbeat IPC: 1.14603 cumulative IPC: 1.14361 (Simulation time: 0 hr 0 min 32 sec) 
Heartbeat CPU  0 instructions:   17000002 cycles:   11779395 heartbeat IPC: 1.15641 cumulative IPC: 1.14542 (Simulation time: 0 hr 0 min 34 sec) 
Heartbeat CPU  0 instructions:   18000001 cycles:   12650786 heartbeat IPC: 1.14759 cumulative IPC: 1.14569 (Simulation time: 0 hr 0 min 36 sec) 
Heartbeat CPU  0 instructions:   19000003 cycles:   13519266 heartbeat IPC: 1.15144 cumulative IPC: 1.14633 (Simulation time: 0 hr 0 min 39 sec) 
Heartbeat CPU  0 instructions:   20000000 cycles:   14387747 heartbeat IPC: 1.15143 cumulative IPC: 1.14683 (Simulation time: 0 hr 0 min 41 sec) 
Heartbeat CPU  0 instructions:   21000003 cycles:   15258715 heartbeat IPC: 1.14815 cumulative IPC: 1.14695 (Simulation time: 0 hr 0 min 43 sec) 
Heartbeat CPU  0 instructions:   22000001 cycles:   16132907 heartbeat IPC: 1.14391 cumulative IPC: 1.14670 (Simulation time: 0 hr 0 min 45 sec) 
Heartbeat CPU  0 instructions:   23000003 cycles:   17004830 heartbeat IPC: 1.14689 cumulative IPC: 1.14671 (Simulation time: 0 hr 0 min 47 sec) 
Heartbeat CPU  0 instructions:   24000000 cycles:   17878366 heartbeat IPC: 1.14477 cumulative IPC: 1.14658 (Simulation time: 0 hr 0 min 50 sec) 
Heartbeat CPU  0 instructions:   25000002 cycles:   18749608 heartbeat IPC: 1.14779 cumulative IPC: 1.14666 (Simulation time: 0 hr 0 min 52 sec) 
Heartbeat CPU  0 instructions:   26000003 cycles:   19617603 heartbeat IPC: 1.15208 cumulative IPC: 1.14699 (Simulation time: 0 hr 0 min 54 sec) 
Heartbeat CPU  0 instructions:   27000000 cycles:   20492647 heartbeat IPC: 1.14280 cumulative IPC: 1.14675 (Simulation time: 0 hr 0 min 56 sec) 
Heartbeat CPU  0 instructions:   28000000 cycles:   21363135 heartbeat IPC: 1.14878 cumulative IPC: 1.14686 (Simulation time: 0 hr 0 min 58 sec) 
Heartbeat CPU  0 instructions:   29000000 cycles:   22230156 heartbeat IPC: 1.15337 cumulative IPC: 1.14720 (Simulation time: 0 hr 1 min 0 sec) 
Heartbeat CPU  0 instructions:   30000000 cycles:   23099570 heartbeat IPC: 1.15020 cumulative IPC: 1.14735 (Simulation time: 0 hr 1 min 3 sec) 
Heartbeat CPU  0 instructions:   31000001 cycles:   23970707 heartbeat IPC: 1.14793 cumulative IPC: 1.14738 (Simulation time: 0 hr 1 min 5 sec) 
Heartbeat CPU  0 instructions:   32000000 cycles:   24838720 heartbeat IPC: 1.15206 cumulative IPC: 1.14759 (Simulation time: 0 hr 1 min 7 sec) 
Heartbeat CPU  0 instructions:   33000001 cycles:   25707353 heartbeat IPC: 1.15124 cumulative IPC: 1.14775 (Simulation time: 0 hr 1 min 9 sec) 
Heartbeat CPU  0 instructions:   34000003 cycles:   26577069 heartbeat IPC: 1.14980 cumulative IPC: 1.14783 (Simulation time: 0 hr 1 min 11 sec) 
Heartbeat CPU  0 instructions:   35000000 cycles:   27447642 heartbeat IPC: 1.14867 cumulative IPC: 1.14787 (Simulation time: 0 hr 1 min 13 sec) 
Heartbeat CPU  0 instructions:   36000000 cycles:   28313696 heartbeat IPC: 1.15466 cumulative IPC: 1.14813 (Simulation time: 0 hr 1 min 16 sec) 
Heartbeat CPU  0 instructions:   37000000 cycles:   29179599 heartbeat IPC: 1.15486 cumulative IPC: 1.14837 (Simulation time: 0 hr 1 min 18 sec) 
Heartbeat CPU  0 instructions:   38000001 cycles:   30053089 heartbeat IPC: 1.14483 cumulative IPC: 1.14825 (Simulation time: 0 hr 1 min 20 sec) 
Heartbeat CPU  0 instructions:   39000003 cycles:   30923843 heartbeat IPC: 1.14843 cumulative IPC: 1.14825 (Simulation time: 0 hr 1 min 22 sec) 
Heartbeat CPU  0 instructions:   40000000 cycles:   31797012 heartbeat IPC: 1.14525 cumulative IPC: 1.14815 (Simulation time: 0 hr 1 min 24 sec) 
Heartbeat CPU  0 instructions:   41000000 cycles:   32668896 heartbeat IPC: 1.14694 cumulative IPC: 1.14811 (Simulation time: 0 hr 1 min 26 sec) 
Heartbeat CPU  0 instructions:   42000003 cycles:   33539294 heartbeat IPC: 1.14890 cumulative IPC: 1.14814 (Simulation time: 0 hr 1 min 29 sec) 
Heartbeat CPU  0 instructions:   43000000 cycles:   34408884 heartbeat IPC: 1.14996 cumulative IPC: 1.14819 (Simulation time: 0 hr 1 min 31 sec) 
Heartbeat CPU  0 instructions:   44000000 cycles:   35277567 heartbeat IPC: 1.15117 cumulative IPC: 1.14828 (Simulation time: 0 hr 1 min 33 sec) 
Heartbeat CPU  0 instructions:   45000000 cycles:   36152161 heartbeat IPC: 1.14339 cumulative IPC: 1.14814 (Simulation time: 0 hr 1 min 35 sec) 
Heartbeat CPU  0 instructions:   46000003 cycles:   37023050 heartbeat IPC: 1.14826 cumulative IPC: 1.14814 (Simulation time: 0 hr 1 min 37 sec) 
Heartbeat CPU  0 instructions:   47000000 cycles:   37941571 heartbeat IPC: 1.08870 cumulative IPC: 1.14645 (Simulation time: 0 hr 1 min 40 sec) 
Heartbeat CPU  0 instructions:   48000000 cycles:   38835558 heartbeat IPC: 1.11858 cumulative IPC: 1.14570 (Simulation time: 0 hr 1 min 42 sec) 
Heartbeat CPU  0 instructions:   49000003 cycles:   39721929 heartbeat IPC: 1.12820 cumulative IPC: 1.14525 (Simulation time: 0 hr 1 min 44 sec) 
Heartbeat CPU  0 instructions:   50000001 cycles:   40593712 heartbeat IPC: 1.14707 cumulative IPC: 1.14529 (Simulation time: 0 hr 1 min 46 sec) 
Heartbeat CPU  0 instructions:   51000001 cycles:   41466893 heartbeat IPC: 1.14524 cumulative IPC: 1.14529 (Simulation time: 0 hr 1 min 48 sec) 
Heartbeat CPU  0 instructions:   52000000 cycles:   42341510 heartbeat IPC: 1.14336 cumulative IPC: 1.14524 (Simulation time: 0 hr 1 min 50 sec) 
Heartbeat CPU  0 instructions:   53000001 cycles:   43210805 heartbeat IPC: 1.15036 cumulative IPC: 1.14536 (Simulation time: 0 hr 1 min 53 sec) 
Heartbeat CPU  0 instructions:   54000000 cycles:   44075734 heartbeat IPC: 1.15616 cumulative IPC: 1.14561 (Simulation time: 0 hr 1 min 55 sec) 
Heartbeat CPU  0 instructions:   55000001 cycles:   44944956 heartbeat IPC: 1.15046 cumulative IPC: 1.14571 (Simulation time: 0 hr 1 min 57 sec) 
Heartbeat CPU  0 instructions:   56000000 cycles:   45813816 heartbeat IPC: 1.15093 cumulative IPC: 1.14583 (Simulation time: 0 hr 1 min 59 sec) 
Heartbeat CPU  0 instructions:   57000001 cycles:   46686238 heartbeat IPC: 1.14624 cumulative IPC: 1.14583 (Simulation time: 0 hr 2 min 1 sec) 
Heartbeat CPU  0 instructions:   58000002 cycles:   47555648 heartbeat IPC: 1.15021 cumulative IPC: 1.14593 (Simulation time: 0 hr 2 min 3 sec) 
Heartbeat CPU  0 instructions:   59000001 cycles:   48426291 heartbeat IPC: 1.14858 cumulative IPC: 1.14598 (Simulation time: 0 hr 2 min 6 sec) 
Heartbeat CPU  0 instructions:   60000000 cycles:   49295609 heartbeat IPC: 1.15033 cumulative IPC: 1.14607 (Simulation time: 0 hr 2 min 8 sec) 
Finished CPU 0 instructions: 50000000 cycles: 43627524 cumulative IPC: 1.14607 (Simulation time: 0 hr 2 min 8 sec) 

ChampSim completed all CPUs

[ROI Statistics]
Core_0_instructions 50000000
Core_0_cycles 43627524
Core_0_IPC 1.14607

Core_0_branch_prediction_accuracy 99.89062
Core_0_branch_MPKI 0.00736
Core_0_average_ROB_occupancy_at_mispredict 63.38315

Core_0_L1D_total_access 19505710
Core_0_L1D_total_hit 15531264
Core_0_L1D_total_miss 3974446
Core_0_L1D_loads 15571245
Core_0_L1D_load_hit 11926797
Core_0_L1D_load_miss 3644448
Core_0_L1D_RFOs 3934465
Core_0_L1D_RFO_hit 3604467
Core_0_L1D_RFO_miss 329998
Core_0_L1D_prefetches 0
Core_0_L1D_prefetch_hit 0
Core_0_L1D_prefetch_miss 0
Core_0_L1D_writebacks 0
Core_0_L1D_writeback_hit 0
Core_0_L1D_writeback_miss 0
Core_0_L1D_prefetch_requested 0
Core_0_L1D_prefetch_dropped 0
Core_0_L1D_prefetch_issued 0
Core_0_L1D_prefetch_filled 0
Core_0_L1D_prefetch_useful 0
Core_0_L1D_prefetch_useless 0
Core_0_L1D_prefetch_late 0
Core_0_L1D_average_miss_latency 21.44013

Core_0_L1D_rq_access 19157066
Core_0_L1D_rq_forward 0
Core_0_L1D_rq_merged 3396526
Core_0_L1D_rq_to_cache 15760078
Core_0_L1D_rq_full 0

Core_0_L1D_wq_access 4004028
Core_0_L1D_wq_forward 462
Core_0_L1D_wq_merged 26765
Core_0_L1D_wq_to_cache 3977263
Core_0_L1D_wq_full 0

Core_0_L1D_pq_access 0
Core_0_L1D_pq_forward 0
Core_0_L1D_pq_merged 0
Core_0_L1D_pq_to_cache 0
Core_0_L1D_pq_full 0

Core_0_L1D_acc_epochs 47928
Core_0_L1D_acc_level_0 47928
Core_0_L1D_acc_level_1 0
Core_0_L1D_acc_level_2 0
Core_0_L1D_acc_level_3 0
Core_0_L1D_acc_level_4 0
Core_0_L1D_acc_level_5 0
Core_0_L1D_acc_level_6 0
Core_0_L1D_acc_level_7 0
Core_0_L1D_acc_level_8 0
Core_0_L1D_acc_level_9 0

Core_0_L1I_total_access 11382924
Core_0_L1I_total_hit 9943153
Core_0_L1I_total_miss 1439771
Core_0_L1I_loads 11382924
Core_0_L1I_load_hit 9943153
Core_0_L1I_load_miss 1439771
Core_0_L1I_RFOs 0
Core_0_L1I_RFO_hit 0
Core_0_L1I_RFO_miss 0
Core_0_L1I_prefetches 0
Core_0_L1I_prefetch_hit 0
Core_0_L1I_prefetch_miss 0
Core_0_L1I_writebacks 0
Core_0_L1I_writeback_hit 0
Core_0_L1I_writeback_miss 0
Core_0_L1I_prefetch_requested 0
Core_0_L1I_prefetch_dropped 0
Core_0_L1I_prefetch_issued 0
Core_0_L1I_prefetch_filled 0
Core_0_L1I_prefetch_useful 0
Core_0_L1I_prefetch_useless 0
Core_0_L1I_prefetch_late 0
Core_0_L1I_average_miss_latency 11.38221

Core_0_L1I_rq_access 50000007
Core_0_L1I_rq_forward 0
Core_0_L1I_rq_merged 36930899
Core_0_L1I_rq_to_cache 13069108
Core_0_L1I_rq_full 0

Core_0_L1I_wq_access 0
Core_0_L1I_wq_forward 0
Core_0_L1I_wq_merged 0
Core_0_L1I_wq_to_cache 0
Core_0_L1I_wq_full 0

Core_0_L1I_pq_access 0
Core_0_L1I_pq_forward 0
Core_0_L1I_pq_merged 0
Core_0_L1I_pq_to_cache 0
Core_0_L1I_pq_full 0

Core_0_L1I_acc_epochs 47928
Core_0_L1I_acc_level_0 47928
Core_0_L1I_acc_level_1 0
Core_0_L1I_acc_level_2 0
Core_0_L1I_acc_level_3 0
Core_0_L1I_acc_level_4 0
Core_0_L1I_acc_level_5 0
Core_0_L1I_acc_level_6 0
Core_0_L1I_acc_level_7 0
Core_0_L1I_acc_level_8 0
Core_0_L1I_acc_level_9 0

Core_0_L2C_total_access 6092257
Core_0_L2C_total_hit 5656570
Core_0_L2C_total_miss 435687
Core_0_L2C_loads 5083528
Core_0_L2C_load_hit 4995458
Core_0_L2C_load_miss 88070
Core_0_L2C_RFOs 329600
Core_0_L2C_RFO_hit 294911
Core_0_L2C_RFO_miss 34689
Core_0_L2C_prefetches 312658
Core_0_L2C_prefetch_hit 3
Core_0_L2C_prefetch_miss 312655
Core_0_L2C_writebacks 366471
Core_0_L2C_writeback_hit 366198
Core_0_L2C_writeback_miss 273
Core_0_L2C_prefetch_requested 393186
Core_0_L2C_prefetch_dropped 0
Core_0_L2C_prefetch_issued 393186
Core_0_L2C_prefetch_filled 383199
Core_0_L2C_prefetch_useful 369031
Core_0_L2C_prefetch_useless 13443
Core_0_L2C_prefetch_late 87
Core_0_L2C_average_miss_latency 140.89464

Core_0_L2C_rq_access 5414217
Core_0_L2C_rq_forward 0
Core_0_L2C_rq_merged 0
Core_0_L2C_rq_to_cache 5413128
Core_0_L2C_rq_full 0

Core_0_L2C_wq_access 366471
Core_0_L2C_wq_forward 1089
Core_0_L2C_wq_merged 0
Core_0_L2C_wq_to_cache 366471
Core_0_L2C_wq_full 0

Core_0_L2C_pq_access 393186
Core_0_L2C_pq_forward 0
Core_0_L2C_pq_merged 77
Core_0_L2C_pq_to_cache 393109
Core_0_L2C_pq_full 0

Core_0_L2C_acc_epochs 47928
Core_0_L2C_acc_level_0 19388
Core_0_L2C_acc_level_1 5302
Core_0_L2C_acc_level_2 3469
Core_0_L2C_acc_level_3 2359
Core_0_L2C_acc_level_4 3140
Core_0_L2C_acc_level_5 2968
Core_0_L2C_acc_level_6 2083
Core_0_L2C_acc_level_7 2526
Core_0_L2C_acc_level_8 2540
Core_0_L2C_acc_level_9 4153

Core_0_LLC_total_access 474213
Core_0_LLC_total_hit 331315
Core_0_LLC_total_miss 142898
Core_0_LLC_loads 87984
Core_0_LLC_load_hit 84870
Core_0_LLC_load_miss 3114
Core_0_LLC_RFOs 34218
Core_0_LLC_RFO_hit 4901
Core_0_LLC_RFO_miss 29317
Core_0_LLC_prefetches 316671
Core_0_LLC_prefetch_hit 210950
Core_0_LLC_prefetch_miss 105721
Core_0_LLC_writebacks 35340
Core_0_LLC_writeback_hit 30594
Core_0_LLC_writeback_miss 4746
Core_0_LLC_prefetch_requested 0
Core_0_LLC_prefetch_dropped 0
Core_0_LLC_prefetch_issued 0
Core_0_LLC_prefetch_filled 130813
Core_0_LLC_prefetch_useful 53807
Core_0_LLC_prefetch_useless 61219
Core_0_LLC_prefetch_late 33
Core_0_LLC_average_miss_latency 342.85038

Core_0_LLC_rq_access 122673
Core_0_LLC_rq_forward 0
Core_0_LLC_rq_merged 0
Core_0_LLC_rq_to_cache 122202
Core_0_LLC_rq_full 0

Core_0_LLC_wq_access 35340
Core_0_LLC_wq_forward 472
Core_0_LLC_wq_merged 0
Core_0_LLC_wq_to_cache 35340
Core_0_LLC_wq_full 0

Core_0_LLC_pq_access 392864
Core_0_LLC_pq_forward 0
Core_0_LLC_pq_merged 5
Core_0_LLC_pq_to_cache 392858
Core_0_LLC_pq_full 0

Core_0_LLC_acc_epochs 48141
Core_0_LLC_acc_level_0 41612
Core_0_LLC_acc_level_1 1931
Core_0_LLC_acc_level_2 1128
Core_0_LLC_acc_level_3 803
Core_0_LLC_acc_level_4 523
Core_0_LLC_acc_level_5 699
Core_0_LLC_acc_level_6 368
Core_0_LLC_acc_level_7 255
Core_0_LLC_acc_level_8 176
Core_0_LLC_acc_level_9 646

Core_0_major_page_fault 0
Core_0_minor_page_fault 2837

[MLOP] History of tracked zone:
IIIIIIIIIIIIIIIIIIIIIIIIIIIIIIIIIIIIIIIIIIIIIIIIIIIIIIIIIIIIIIII
AIIIIIIIIIIIIIIIIIIIIIIIIIIIIIIIIIIIIIIIIIIIIIIIIIIIIIIIIIIIIIII
AAIIIIIIIIIIIIIIIIIIIIIIIIIIIIIIIIIIIIIIIIIIIIIIIIIIIIIIIIIIIIII
AAAIIIIIIIIIIIIIIIIIIIIIIIIIIIIIIIIIIIIIIIIIIIIIIIIIIIIIIIIIIIII
AAAAIIIIIIIIIIIIIIIIIIIIIIIIIIIIIIIIIIIIIIIIIIIIIIIIIIIIIIIIIIII
AAAAAIIIIIIIIIIIIIIIIIIIIIIIIIIIIIIIIIIIIIIIIIIIIIIIIIIIIIIIIIII
AAAAAAIIIIIIIIIIIIIIIIIIIIIIIIIIIIIIIIIIIIIIIIIIIIIIIIIIIIIIIIII
AAAAAAAIIIIIIIIIIIIIIIIIIIIIIIIIIIIIIIIIIIIIIIIIIIIIIIIIIIIIIIII
AAAAAAAAIIIIIIIIIIIIIIIIIIIIIIIIIIIIIIIIIIIIIIIIIIIIIIIIIIIIIIII
AAAAAAAAAIIIIIIIIIIIIIIIIIIIIIIIIIIIIIIIIIIIIIIIIIIIIIIIIIIIIIII
AAAAAAAAAAIIIIIIIIIIIIIIIIIIIIIIIIIIIIIIIIIIIIIIIIIIIIIIIIIIIIII
AAAAAAAAAAAIIIIIIIIIIIIIIIIIIIIIIIIIIIIIIIIIIIIIIIIIIIIIIIIIIIII
AAAAAAAAAAAAIIIIIIIIIIIIIIIIIIIIIIIIIIIIIIIIIIIIIIIIIIIIIIIIIIII
AAAAAAAAAAAAAIIIIIIIIIIIIIIIIIIIIIIIIIIIIIIIIIIIIIIIIIIIIIIIIIII
AAAAAAAAAAAAAAIIIIIIIIIIIIIIIIIIIIIIIIIIIIIIIIIIIIIIIIIIIIIIIIII
AAAAAAAAAAAAAAAIIIIIIIIIIIIIIIIIIIIIIIIIIIIIIIIIIIIIIIIIIIIIIIII
AAAAAAAAAAAAAAAAIIIIIIIIIIIIIIIIIIIIIIIIIIIIIIIIIIIIIIIIIIIIIIII
AAAAAAAAAAAAAAAAAIIIIIIIIIIIIIIIIIIIIIIIIIIIIIIIIIIIIIIIIIIIIIII
AAAAAAAAAAAAAAAAAAIIIIIIIIIIIIIIIIIIIIIIIIIIIIIIIIIIIIIIIIIIIIII
AAAAAAAAAAAAAAAAAAAIIIIIIIIIIIIIIIIIIIIIIIIIIIIIIIIIIIIIIIIIIIII
AAAAAAAAAAAAAAAAAAAAIIIIIIIIIIIIIIIIIIIIIIIIIIIIIIIIIIIIIIIIIIII
AAAAAAAAAAAAAAAAAAAAAIIIIIIIIIIIIIIIIIIIIIIIIIIIIIIIIIIIIIIIIIII
AAAAAAAAAAAAAAAAAAAAAAIIIIIIIIIIIIIIIIIIIIIIIIIIIIIIIIIIIIIIIIII
AAAAAAAAAAAAAAAAAAAAAAAIIIIIIIIIIIIIIIIIIIIIIIIIIIIIIIIIIIIIIIII
AAAAAAAAAAAAAAAAAAAAAAAAIIIIIIIIIIIIIIIIIIIIIIIIIIIIIIIIIIIIIIII
AAAAAAAAAAAAAAAAAAAAAAAAAIIIIIIIIIIIIIIIIIIIIIIIIIIIIIIIIIIIIIII
AAAAAAAAAAAAAAAAAAAAAAAAAAIIIIIIIIIIIIIIIIIIIIIIIIIIIIIIIIIIIIII
AAAAAAAAAAAAAAAAAAAAAAAAAAAIIIIIIIIIIIIIIIIIIIIIIIIIIIIIIIIIIIII
AAAAAAAAAAAAAAAAAAAAAAAAAAAAIIIIIIIIIIIIIIIIIIIIIIIIIIIIIIIIIIII
AAAAAAAAAAAAAAAAAAAAAAAAAAAAAIIIIIIIIIIIIIIIIIIIIIIIIIIIIIIIIIII
AAAAAAAAAAAAAAAAAAAAAAAAAAAAAAIIIIIIIIIIIIIIIIIIIIIIIIIIIIIIIIII
AAAAAAAAAAAAAAAAAAAAAAAAAAAAAAAIIIIIIIIIIIIIIIIIIIIIIIIIIIIIIIII
AAAAAAAAAAAAAAAAAAAAAAAAAAAAAAAAIIIIIIIIIIIIIIIIIIIIIIIIIIIIIIII
AAAAAAAAAAAAAAAAAAAAAAAAAAAAAAAAAIIIIIIIIIIIIIIIIIIIIIIIIIIIIIII
AAAAAAAAAAAAAAAAAAAAAAAAAAAAAAAAAAIIIIIIIIIIIIIIIIIIIIIIIIIIIIII
AAAAAAAAAAAAAAAAAAAAAAAAAAAAAAAAAAAIIIIIIIIIIIIIIIIIIIIIIIIIIIII
AAAAAAAAAAAAAAAAAAAAAAAAAAAAAAAAAAAAIIIIIIIIIIIIIIIIIIIIIIIIIIII
AAAAAAAAAAAAAAAAAAAAAAAAAAAAAAAAAAAAAIIIIIIIIIIIIIIIIIIIIIIIIIII
AAAAAAAAAAAAAAAAAAAAAAAAAAAAAAAAAAAAAAIIIIIIIIIIIIIIIIIIIIIIIIII
AAAAAAAAAAAAAAAAAAAAAAAAAAAAAAAAAAAAAAAIIIIIIIIIIIIIIIIIIIIIIIII
AAAAAAAAAAAAAAAAAAAAAAAAAAAAAAAAAAAAAAAAIIIIIIIIIIIIIIIIIIIIIIII
AAAAAAAAAAAAAAAAAAAAAAAAAAAAAAAAAAAAAAAAIIIIIIIIIIIIIIIIIIIIAIII
AAAAAAAAAAAAAAAAAAAAAAAAAAAAAAAAAAAAAAAAIIIIIIIIIIIIIIIIIIIIAAII
AAAAAAAAAAAAAAAAAAAAAAAAAAAAAAAAAAAAAAAAIIIIIIIIIIIIIIIIIIIIAAAI
AAAAAAAAAAAAAAAAAAAAAAAAAAAAAAAAAAAAAAAAIIIIIIIIIIIIIIIIIIIIAAAA
AAAAAAAAAAAAAAAAAAAAAAAAAAAAAAAAAAAAAAAA44IIIIIIIIIIIIIIIIIIAAAA
AAAAAAAAAAAAAAAAAAAAAAAAAAAAAAAAAAAAAAAA4444444444IIIIIIIIIIAAAA
AAAAAAAAAAAAAAAAAAAAAAAAAAAAAAAAAAAAAAAA44444444444IIIIIIIIIAAAA
AAAAAAAAAAAAAAAAAAAAAAAAAAAAAAAAAAAAAAAA444444444444IIIIIIIIAAAA
AAAAAAAAAAAAAAAAAAAAAAAAAAAAAAAAAAAAAAAA4444444444444IIIIIIIAAAA
AAAAAAAAAAAAAAAAAAAAAAAAAAAAAAAAAAAAAAAA44444444444444IIIIIIAAAA
AAAAAAAAAAAAAAAAAAAAAAAAAAAAAAAAAAAAAAAA244444444444444IIIIIAAAA
AAAAAAAAAAAAAAAAAAAAAAAAAAAAAAAAAAAAAAAA2244444444444444IIIIAAAA
AAAAAAAAAAAAAAAAAAAAAAAAAAAAAAAAAAAAAAAA2224444444444444IIIIAAAA
AAAAAAAAAAAAAAIAAAAAAAAAAAAAAAAAAAAAAAAA2224444444444444IIIIAAAA
AAAAAAAAAAAAAA2AAAAAAAAAAAAAAAAAAAAAAAAA2224444444444444IIIIAAAA
AAAAAAAAAAAAAA2AAAAAAAIAAAAAAAAAAAAAAAAA2224444444444444IIIIAAAA
AAAAAAAAAAAAAA2AAAAAAAIAAAAAAIAAAAAAAAAA2224444444444444IIIIAAAA
AAAAAAAAAAAAAA2AAAAAAIIAAAAAAIAAAAAAAAAA2224444444444444IIIIAAAA
AAAAAAAAAAAAAA2AAAAAA2IAAAAAAIAAAAAAAAAA2224444444444444IIIIAAAA
AAAAAAAAAAAAAA2AAAAAA2IAAAAAAIIAAAAAAAAA2224444444444444IIIIAAAA
AAAAAAAAAAAAAA2AAIAAA2IAAAAAAIIAAAAAAAAA2224444444444444IIIIAAAA
AAAAAAAAAAAAAA2AAIAAA2IAAAAAAIIAAAAAAAAA2224444444444444IIIIIAAA
AAAAAAAAAAAAAA2AAIAAA2IAIAAAAIIAAAAAAAAA2224444444444444IIIIIAAA
AAAAAAAAAAAAAA2AAIAAA2IA2AAAAIIAAAAAAAAA2224444444444444IIIIIAAA
AAAIAAAAAAAAAA2AAIAAA2IA2AAAAIIAAAAAAAAA2224444444444444IIIIIAAA
AAAIAAAAAAAAAA2AAIAAA2IA2AAAAIIIAAAAAAAA2224444444444444IIIIIAAA
AAAIAAAAAAAAAA2AAIIAA2IA2AAAAIIIAAAAAAAA2224444444444444IIIIIAAA
AIAIAAAAAAAAAA2AAIIAA2IA2AAAAIIIAAAAAAAA2224444444444444IIIIIAAA
AIAIAAAAAAAAAA2AAIIAA22A2AAAAIIIAAAAAAAA2224444444444444IIIIIAAA
AIIIAAAAAAAAAA2AAIIAA22A2AAAAIIIAAAAAAAA2224444444444444IIIIIAAA
AIIIAAAAAAAAAA2AAIIAA22A2AAAAIIIAAAAAAAA2224444444444444IIIIIIAA
AIIIIAAAAAAAAA2AAIIAA22A2AAAAIIIAAAAAAAA2224444444444444IIIIIIAA
AIIIIAAAAAAAAA2AAIIAA22A2AAAAIIIIAAAAAAA2224444444444444IIIIIIAA
AIIIIAAAAAAAAA2AAIIIA22A2AAAAIIIIAAAAAAA2224444444444444IIIIIIAA
AIIIIAAAAAAAAA2AAIIIA22A2AAAAIIIIAAAAAAAI224444444444444IIIIIIAA
AIIIIAAAAAAAAA2AAIIIA22A2AAAAIIIIAAAAAAA2224444444444444IIIIIIAA
AIIIIAAAAAAAAA2AAIIIA22A2AIAAIIIIAAAAAAA2224444444444444IIIIIIAA
AIIIIAAAAAAAAA2AAIIIA22A2A2AAIIIIAAAAAAA2224444444444444IIIIIIAA
AIIIIAAAAAAAAA2AAIIIA22A2A2AAIIIIAAAAAAA2I24444444444444IIIIIIAA
AIIIIAAAAAAAAA2AAIIIA22A2A2AAIIIIAAAAAAA2224444444444444IIIIIIAA
AIIIIAAAAAAAAA2AAIIIA22A2A2AAIIIIAAAAAAA2224444444444444IIIIIIAI
AIIIIAAAAAAAAA2AAIIIA22A2A2IAIIIIAAAAAAA2224444444444444IIIIIIAI
AIIIIAAAAAAAAA2AAIIIA22A2A22AIIIIAAAAAAA2224444444444444IIIIIIAI
AIIIIAAAAAAAAA2AAIIIA22A2A22AIIIIAAAAAAA2224444444444444IIIIIIA2
AIIIIAAAAAAAAA2AAIIIAI2A2A22AIIIIAAAAAAA2224444444444444IIIIIIA2
AIIIIAAAAAAAAA2AAIIIAI2A2A22AIIIIAAAAAAA22I4444444444444IIIIIIA2
AIIIIAAAAAAAAA2AAIIIA22A2A22AIIIIAAAAAAA22I4444444444444IIIIIIA2
AIIIIAAAAAAAAA2AAIIIA22A2A22AIIIIAAAAAAA2224444444444444IIIIIIA2
AIIIIAAAAAAAAA2AAIIIA22A2A22IIIIIAAAAAAA2224444444444444IIIIIIA2
AIIIIAAAAAAAAA2AAIIIA22A2A222IIIIAAAAAAA2224444444444444IIIIIIA2
AIIIIAAAAAAAAAIAAIIIA22A2A222IIIIAAAAAAA2224444444444444IIIIIIA2
AIIIIAAAAAAAAA2AAIIIA22A2A222IIIIAAAAAAA2224444444444444IIIIIIA2
AIIIIAAAAAAAAA2AAIIIA2IA2A222IIIIAAAAAAA2224444444444444IIIIIIA2
AIIIIAAAAAAAAA2AAIIIA22A2A222IIIIAAAAAAA2224444444444444IIIIIIA2
AIIIIAAAAAAAAA2AAIIIA22AIA222IIIIAAAAAAA2224444444444444IIIIIIA2
AIIIIAAAAAAAAA2AAIIIA22A2A222IIIIAAAAAAA2224444444444444IIIIIIA2
AIIIIAAAAAAAAA2AAIIIA22A2AI22IIIIAAAAAAA2224444444444444IIIIIIA2
AIIIIAAAAAAAAA2AAIIIA22A2A222IIIIAAAAAAA2224444444444444IIIIIIA2
AIIIIAAAAAAAIA2AAIIIA22A2A222IIIIAAAAAAA2224444444444444IIIIIIA2
AIIIIAAAAAAA2A2AAIIIA22A2A222IIIIAAAAAAA2224444444444444IIIIIIA2
AIIIIAAAAAAA2A2AAIIIA22A2A222IIIIAAAAAAAI224444444444444IIIIIIA2
AIIIIAAAAAAA2A2AAIIIA22A2A222IIIIAAAAAAA2224444444444444IIIIIIA2
AIIIIAAAAAAA2A2AAIIIA22A2A2I2IIIIAAAAAAA2224444444444444IIIIIIA2
AIIIIAAAAAAA2I2AAIIIA22A2A2I2IIIIAAAAAAA2224444444444444IIIIIIA2
AIIIIAAAAAAA222AAIIIA22A2A2I2IIIIAAAAAAA2224444444444444IIIIIIA2
AIIIIAAAAAAA222AAIIIA22A2A2I2IIIIAAAAAAA2I24444444444444IIIIIIA2
AIIIIAAAAAAA222AAIIIA22A2A222IIIIAAAAAAA2I24444444444444IIIIIIA2
AIIIIAAAAAAA222AAIIIA22A2A222IIIIAAAAAAA2224444444444444IIIIIIA2
AIIIIAAAAAAA222AAIIIA22A2A22IIIIIAAAAAAA2224444444444444IIIIIIA2
AIIIIAAAAAAA222AAIIIA22A2A222IIIIAAAAAAA2224444444444444IIIIIIA2
AIIIIAAAAAAA22IAAIIIA22A2A222IIIIAAAAAAA2224444444444444IIIIIIA2
AIIIIAAAAAAA22IAAIIIA22A2A222IIIIAAAAAAA22I4444444444444IIIIIIA2
AIIIIAAAAAAA222AAIIIA22A2A222IIIIAAAAAAA22I4444444444444IIIIIIA2
AIIIIAAAAAAA222AAIIIA22A2A222IIIIAAAAAAA2224444444444444IIIIIIA2
AIIIIAAAAAAA222AAIIIA22A2A2222IIIAAAAAAA2224444444444444IIIIIIA2
AIIIIAAAAAAA222AAIIIA22A2A2222IIIAAAAAAA2222444444444444IIIIIIA2
AIIIIAAAAAAAI22AAIIIA22A2A2222IIIAAAAAAA2222444444444444IIIIIIA2
AIIIIAAAAAAAI22AAIIIA22A2A2222IIIAAAAAAAI222444444444444IIIIIIA2
AIIIIAAAAAAA222AAIIIA22A2A2222IIIAAAAAAAI222444444444444IIIIIIA2
AIIIIAAAAAAA222AAIIIA22A2A2222IIIAAAAAAA2222444444444444IIIIIIA2
AIIIIAAAAAAA2I2AAIIIA22A2A2222IIIAAAAAAA2222444444444444IIIIIIA2
AIIIIAAAAAAA2I2AAIIIA22A2A2222IIIAAAAAAA2I22444444444444IIIIIIA2
AIIIIAAAAAAA222AAIIIA22A2A2222IIIAAAAAAA2I22444444444444IIIIIIA2
AIIIIAAAAAAA222AAIIIA22A2A2222IIIAAAAAAA2222444444444444IIIIIIA2
AIIIIAAAAAAA222AAIIIAI2A2A2222IIIAAAAAAA2222444444444444IIIIIIA2
AIIIIAAAAAAA222AAIIIAI2A2A2222IIIAAAAAAA22I2444444444444IIIIIIA2
AIIIIAAAAAAA222AAIIIA22A2A2222IIIAAAAAAA22I2444444444444IIIIIIA2
AIIIIAAAAAAA222AAIIIA22A2A2222IIIAAAAAAA2222444444444444IIIIIIA2
AIIIIAAAAAAA222AAIIIA2IA2A2222IIIAAAAAAA2222444444444444IIIIIIA2
AIIIIAAAAAAA222AAIIIA22A2A2222IIIAAAAAAA2222444444444444IIIIIIA2
AIIIIAAAAAAA222AAIIIA22A2A2222IIIAAAAAAA222I444444444444IIIIIIA2
AIIIIAAAAAAA222AAIIIA22AIA2222IIIAAAAAAA222I444444444444IIIIIIA2
AIIIIAAAAAAA222AAIIIA22A2A2222IIIAAAAAAA222I444444444444IIIIIIA2
AIIIIAAAAAAA222AAIIIA22A2A2222IIIAAAAAAAI22I444444444444IIIIIIA2
AIIIIAAAAAAA222AAIIIA22A2A2222IIIAAAAAAA222I444444444444IIIIIIA2
AIIIIAAAAAAA222AAIIIA22A2AI222IIIAAAAAAA222I444444444444IIIIIIA2
AIIIIAAAAAAA222AAIIIA22A2A2222IIIAAAAAAA222I444444444444IIIIIIA2
AIIIIAAAAAAAI22AAIIIA22A2A2222IIIAAAAAAA222I444444444444IIIIIIA2
AIIIIAAAAAAA222AAIIIA22A2A2222IIIAAAAAAA222I444444444444IIIIIIA2
AIIIIAAAAAAA222AAIIIA22A2A2222IIIAAAAAAA2I2I444444444444IIIIIIA2
AIIIIAAAAAAA222AAIIIA22A2A2222IIIAAAAAAA222I444444444444IIIIIIA2
AIIIIAAAAAAA222AAIIIA22A2A2I22IIIAAAAAAA222I444444444444IIIIIIA2
AIIIIAAAAAAA222AAIIIA22A2A2222IIIAAAAAAA222I444444444444IIIIIIA2
AIIIIAAAAAAA2I2AAIIIA22A2A2222IIIAAAAAAA222I444444444444IIIIIIA2
AIIIIAAAAAAA222AAIIIA22A2A2222IIIAAAAAAA222I444444444444IIIIIIA2
AIIIIAAAAAAA222AAIIIA22A2A2222IIIAAAAAAA22II444444444444IIIIIIA2
AIIIIAAAAAAA222AAIIIA22A2A2222IIIAAAAAAA222I444444444444IIIIIIA2
AIIIIAAAAAAA222AAIIIA22A2A22I2IIIAAAAAAA222I444444444444IIIIIIA2
AIIIIAAAAAAA222AAIIIA22A2A2222IIIAAAAAAA222I444444444444IIIIIIA2
AIIIIAAAAAAA222AAIIIAI2A2A2222IIIAAAAAAA222I444444444444IIIIIIA2
AIIIIAAAAAAA222AAIIIA22A2A2222IIIAAAAAAA222I444444444444IIIIIIA2
AIIIIAAAAAAA222AAIIIA22A2A222IIIIAAAAAAA222I444444444444IIIIIIA2
AIIIIAAAAAAA222AAIIIA2IA2A222IIIIAAAAAAA222I444444444444IIIIIIA2
AIIIIAAAAAAA222AAIIIA22A2A222IIIIAAAAAAA222I444444444444IIIIIIA2
AIIIIAAAAAAA222AAIIIA22AIA222IIIIAAAAAAA222I444444444444IIIIIIA2
AIIIIAAAAAAA222AAIIIA22A2A222IIIIAAAAAAA222I444444444444IIIIIIA2
AIIIIAAAAAAA222AAIIIA22A2AI22IIIIAAAAAAA222I444444444444IIIIIIA2
AIIIIAAAAAAA222AAIIIA22A2A222IIIIAAAAAAA222I444444444444IIIIIIA2
AIIIIAAAAAAA222AAIIIA22A2A2I2IIIIAAAAAAA222I444444444444IIIIIIA2
AIIIIAAAAAAAI22AAIIIA22A2A2I2IIIIAAAAAAA222I444444444444IIIIIIA2
AIIIIAAAAAAA222AAIIIA22A2A2I2IIIIAAAAAAA222I444444444444IIIIIIA2
AIIIIAAAAAAA222AAIIIA22A2A222IIIIAAAAAAA222I444444444444IIIIIIA2
AIIIIAAAAAAA222AAIIIA22A2A22IIIIIAAAAAAA222I444444444444IIIIIIA2
AIIIIAAAAAAA222AAIIIA22A2A222IIIIAAAAAAA222I444444444444IIIIIIA2
AIIIIAAAAAAA222AAIIIAI2A2A222IIIIAAAAAAA222I444444444444IIIIIIA2
AIIIIAAAAAAA222AAIIIA22A2A222IIIIAAAAAAA222I444444444444IIIIIIA2
AIIIIAAAAAAA222AAIIIA2IA2A222IIIIAAAAAAA222I444444444444IIIIIIA2
AIIIIAAAAAAA222AAIIIA22A2A222IIIIAAAAAAA222I444444444444IIIIIIA2
AIIIIAAAAAAA222AAIIIA22AIA222IIIIAAAAAAA222I444444444444IIIIIIA2
AIIIIAAAAAAA222AAIIIA22AIA222IIIIAAAAAAAI22I444444444444IIIIIIA2
AIIIIAAAAAAA222AAIIIA22AIA222IIIIAAAAAAAII2I444444444444IIIIIIA2
AIIIIAAAAAAA222AAIIIA22AIAI22IIIIAAAAAAAII2I444444444444IIIIIIA2
AIIIIAAAAAAA222AAIIIA22A2AI22IIIIAAAAAAAII2I444444444444IIIIIIA2
AIIIIAAAAAAA222AAIIIA22A2A222IIIIAAAAAAAII2I444444444444IIIIIIA2
AIIIIAAAAAAA222AAIIIA22A2A2222IIIAAAAAAAII2I444444444444IIIIIIA2
AIIIIAAAAAAA222AAIIIA22A2A2222IIIAAAAAAA2I2I444444444444IIIIIIA2
AIIIIAAAAAAA222AAIIIA22A2A2222IIIAAAAAAA222I444444444444IIIIIIA2
AIIIIAAAAAAA222AAIIIA22A2A2222IIIAAAAAAA2222444444444444IIIIIIA2
AIIIIAAAAAAAI22AAIIIA22A2A2222IIIAAAAAAA2222444444444444IIIIIIA2
AIIIIAAAAAAA222AAIIIA22A2A2222IIIAAAAAAA2222444444444444IIIIIIA2
AIIIIAAAAAAA222AAIIIA22A2A2I22IIIAAAAAAA2222444444444444IIIIIIA2
AIIIIAAAAAAA222AAIIIA22A2A2222IIIAAAAAAA2222444444444444IIIIIIA2
AIIIIAAAAAAA222AAIIIA22A2A2222IIIAAAAAAA22I2444444444444IIIIIIA2
AIIIIAAAAAAA222AAIIIA22A2A2222IIIAAAAAAA2222444444444444IIIIIIA2
AIIIIAAAAAAA222AAIIIA22A2A22I2IIIAAAAAAA2222444444444444IIIIIIA2
AIIIIAAAAAAA222AAIIIA22A2A2222IIIAAAAAAA2222444444444444IIIIIIA2
AIIIIAAAAAAA222AAIIIA22A2A222IIIIAAAAAAA2222444444444444IIIIIIA2
AIIIIAAAAAAA222AAIIIAI2A2A222IIIIAAAAAAA2222444444444444IIIIIIA2
AIIIIAAAAAAA222AAIIIA22A2A222IIIIAAAAAAA2222444444444444IIIIIIA2
AIIIIAAAAAAA222AAIIIA22A2A222IIIIAAAAAAA222I444444444444IIIIIIA2
AIIIIAAAAAAA222AAIIIA2IA2A222IIIIAAAAAAA222I444444444444IIIIIIA2
AIIIIAAAAAAA222AAIIIA22A2A222IIIIAAAAAAA222I444444444444IIIIIIA2
AIIIIAAAAAAA222AAIIIA22AIA222IIIIAAAAAAA222I444444444444IIIIIIA2
AIIIIAAAAAAA222AAIIIA22A2A222IIIIAAAAAAA222I444444444444IIIIIIA2
AIIIIAAAAAAA222AAIIIA22A2A222IIIIAAAAAAAI22I444444444444IIIIIIA2
AIIIIAAAAAAA222AAIIIA22A2A222IIIIAAAAAAA222I444444444444IIIIIIA2
AIIIIAAAAAAA222AAIIIA22A2A222IIIIAAAAAAA2I2I444444444444IIIIIIA2
AIIIIAAAAAAA222AAIIIA22A2A222IIIIAAAAAAA222I444444444444IIIIIIA2
AIIIIAAAAAAA222AAIIIA22A2AI22IIIIAAAAAAA222I444444444444IIIIIIA2
AIIIIAAAAAAA222AAIIIA22A2A222IIIIAAAAAAA222I444444444444IIIIIIA2
AIIIIAAAAAAA222AAIIIA22A2A222IIIIAAAAAAA22II444444444444IIIIIIA2
AIIIIAAAAAAA222AAIIIAI2A2A222IIIIAAAAAAA22II444444444444IIIIIIA2
AIIIIAAAAAAA222AAIIIA22A2A222IIIIAAAAAAA22II444444444444IIIIIIA2
AIIIIAAAAAAA222AAIIIA22A2A222IIIIAAAAAAA222I444444444444IIIIIIA2
AIIIIAAAAAAA222AAIIIA22A2A2I2IIIIAAAAAAA222I444444444444IIIIIIA2
AIIIIAAAAAAA222AAIIIA22A2A222IIIIAAAAAAA222I444444444444IIIIIIA2
AIIIIAAAAAAA222AAIIIA2IA2A222IIIIAAAAAAA222I444444444444IIIIIIA2
AIIIIAAAAAAA222AAIIIA22A2A222IIIIAAAAAAA222I444444444444IIIIIIA2
AIIIIAAAAAAA222AAIIIA22A2A22IIIIIAAAAAAA222I444444444444IIIIIIA2
AIIIIAAAAAAA222AAIIIA22A2A222IIIIAAAAAAA222I444444444444IIIIIIA2
AIIIIAAAAAAA222AAIIIA22AIA222IIIIAAAAAAA222I444444444444IIIIIIA2
AIIIIAAAAAAA222AAIIIA22A2A222IIIIAAAAAAA222I444444444444IIIIIIA2
AIIIIAAAAAAA222AAIIIA22A2AI22IIIIAAAAAAA222I444444444444IIIIIIA2
AIIIIAAAAAAA222AAIIIA22A2A222IIIIAAAAAAA222I444444444444IIIIIIA2
AIIIIAAAAAAA222AAIIIA22A2A222IIIIAAAAAAAI22I444444444444IIIIIIA2
AIIIIAAAAAAA222AAIIIA22A2A222IIIIAAAAAAA222I444444444444IIIIIIA2
AIIIIAAAAAAA222AAIIIA22A2A2I2IIIIAAAAAAA222I444444444444IIIIIIA2
AIIIIAAAAAAA222AAIIIA22A2A222IIIIAAAAAAA222I444444444444IIIIIIA2
AIIIIAAAAAAA222AAIIIA22A2A222IIIIAAAAAAA2I2I444444444444IIIIIIA2
AIIIIAAAAAAA222AAIIIA22A2A222IIIIAAAAAAA222I444444444444IIIIIIA2
AIIIIAAAAAAA222AAIIIA22A2A22IIIIIAAAAAAA222I444444444444IIIIIIA2
AIIIIAAAAAAA222AAIIIA22A2A222IIIIAAAAAAA222I444444444444IIIIIIA2
AIIIIAAAAAAA222AAIIIA22A2A222IIIIAAAAAAA22II444444444444IIIIIIA2
AIIIIAAAAAAA222AAIIIA22A2A222IIIIAAAAAAA222I444444444444IIIIIIA2
AIIIIAAAAAAA222AAIIIA22A2A2222IIIAAAAAAA222I444444444444IIIIIIA2
AIIIIAAAAAAA222AAIIIA22A2A2222IIIAAAAAAA2222444444444444IIIIIIA2
AIIIIAAAAAAA222AAIIIA22A2A2222IIIAAAAAAAI222444444444444IIIIIIA2
AIIIIAAAAAAA222AAIIIA22A2A2222IIIAAAAAAA2222444444444444IIIIIIA2
AIIIIAAAAAAA222AAIIIA22A2A2222IIIAAAAAAA2I22444444444444IIIIIIA2
AIIIIAAAAAAA222AAIIIA22A2A2222IIIAAAAAAA2222444444444444IIIIIIA2
AIIIIAAAAAAA222AAIIIA22A2A2222IIIAAAAAAA22I2444444444444IIIIIIA2
AIIIIAAAAAAA222AAIIIA22A2A2222IIIAAAAAAA2222444444444444IIIIIIA2
AIIIIAAAAAAA222AAIIIA22A2A2222IIIAAAAAAA222I444444444444IIIIIIA2
AIIIIAAAAAAA222AAIIIA22A2A2222IIIAAAAAAAI22I444444444444IIIIIIA2
AIIIIAAAAAAA222AAIIIA22A2A2222IIIAAAAAAA222I444444444444IIIIIIA2
AIIIIAAAAAAA222AAIIIA22A2A2222IIIAAAAAAA2I2I444444444444IIIIIIA2
AIIIIAAAAAAA222AAIIIA22A2A2222IIIAAAAAAA222I444444444444IIIIIIA2
AIIIIAAAAAAA222AAIIIA22A2A2222IIIAAAAAAA22II444444444444IIIIIIA2
AIIIIAAAAAAA222AAIIIA22A2A2222IIIAAAAAAA222I444444444444IIIIIIA2
AIIIIAAAAAAA222AAIIIA22A2A2222IIIAAAAAAA2222444444444444IIIIIIA2
A2444AAAAAAA222AAIIIA22A2A2222IIIAAAAAAA2222444444444444IIIIIIA2
AA244AAAAAAA222AAIIIA22A2A2222IIIAAAAAAA2222444444444444IIIIIIA2
AAA24AAAAAAA222AAIIIA22A2A2222IIIAAAAAAA2222444444444444IIIIIIA2
AAAA2AAAAAAA222AAIIIA22A2A2222IIIAAAAAAA2222444444444444IIIIIIA2
AAAAAAAAAAAA222AAIIIA22A2A2222IIIAAAAAAA2222444444444444IIIIIIA2
AAAAAAAAAAAAA22AAIIIA22A2A2222IIIAAAAAAA2222444444444444IIIIIIA2
AAAAAAAAAAAAAA2AA4IIA22A2A2222IIIAAAAAAA2222444444444444IIIIIIA2
AAAAAAAAAAAAAAAAA44IA22A2A2222IIIAAAAAAA2222444444444444IIIIIIA2
AAAAAAAAAAAAAAAAA444A22A2A2222IIIAAAAAAA2222444444444444IIIIIIA2
AAAAAAAAAAAAAAAAA244A22A2A2222IIIAAAAAAA2222444444444444IIIIIIA2
AAAAAAAAAAAAAAAAAA24A22A2A2222IIIAAAAAAA2222444444444444IIIIIIA2
AAAAAAAAAAAAAAAAAAA2A22A2A2222IIIAAAAAAA2222444444444444IIIIIIA2
AAAAAAAAAAAAAAAAAAAAA22A2A2222IIIAAAAAAA2222444444444444IIIIIIA2
AAAAAAAAAAAAAAAAAAAAAA2A2A2222IIIAAAAAAA2222444444444444IIIIIIA2
AAAAAAAAAAAAAAAAAAAAAAAA2A2222IIIAAAAAAA2222444444444444IIIIIIA2
AAAAAAAAAAAAAAAAAAAAAAAAAA2222IIIAAAAAAA2222444444444444IIIIIIA2
AAAAAAAAAAAAAAAAAAAAAAAAAAA2224IIAAAAAAA2222444444444444IIIIIIA2
AAAAAAAAAAAAAAAAAAAAAAAAAAAA2244IAAAAAAA2222444444444444IIIIIIA2
AAAAAAAAAAAAAAAAAAAAAAAAAAAAA2444AAAAAAA2222444444444444IIIIIIA2
AAAAAAAAAAAAAAAAAAAAAAAAAAAAAA244AAAAAAA2222444444444444IIIIIIA2
AAAAAAAAAAAAAAAAAAAAAAAAAAAAAAA24AAAAAAA2222444444444444IIIIIIA2
AAAAAAAAAAAAAAAAAAAAAAAAAAAAAAAA2AAAAAAA2222444444444444IIIIIIA2
AAAAAAAAAAAAAAAAAAAAAAAAAAAAAAAAAAAAAAAA2222444444444444IIIIIIA2
AAAAAAAAAAAAAAAAAAAAAAAAAAAAAAAAAAAAAAAA2222444444444444IIIIIAA2
AAAAAAAAAAAAAAAAAAAAAAAAAAAAAAAAAAAAAAAA2222444444444444IIIIIIA2
AAAAIAAAAAAAAAAAAAAAAAAAAAAAAAAAAAAAAAAA2222444444444444IIIIIIA2
AAAAIAAAAAAAAAAAAAAAAAAAAAAAAAAAIAAAAAAA2222444444444444IIIIIIA2
AAAAIAAAAAAAAAAAAAAAAAAAAAIAAAAAIAAAAAAA2222444444444444IIIIIIA2
AAAAIAAAAAAAAAAAAAAAAAAAAA2AAAAAIAAAAAAA2222444444444444IIIIIIA2
AAAAIAAAAAAAIAAAAAAAAAAAAA2AAAAAIAAAAAAA2222444444444444IIIIIIA2
AAAAIAAAAAAA2AAAAAAAAAAAAA2AAAAAIAAAAAAA2222444444444444IIIIIIA2
AAAAIAAAAAAA2AAAAAAAAAAAAA2IAAAAIAAAAAAA2222444444444444IIIIIIA2
AAAAIAAAAAAA2AAAAAAAAAAAAA22AAAAIAAAAAAA2222444444444444IIIIIIA2
AAAAIAAAAAAA2IAAAAAAAAAAAA22AAAAIAAAAAAA2222444444444444IIIIIIA2
AAAAIAAAAAAA22AAAAAAAAAAAA22AAAAIAAAAAAA2222444444444444IIIIIIA2
AAAAIAAAAAAA22AAAAAAAAAAAA22IAAAIAAAAAAA2222444444444444IIIIIIA2
AAAAIAAAAAAA22AAAAAAAAAAAA222AAAIAAAAAAA2222444444444444IIIIIIA2
AAAAIAAAAAAA22IAAAAAAAAAAA222AAAIAAAAAAA2222444444444444IIIIIIA2
AAAAIAAAAAAA222AAAAAAAAAAA222AAAIAAAAAAA2222444444444444IIIIIIA2
AAAAIAAAAAAA222AAAAAAAAAAA222IAAIAAAAAAA2222444444444444IIIIIIA2
AAAAIAAAAAAA222IAAAAAAAAAA222IAAIAAAAAAA2222444444444444IIIIIIA2
AAAAIAAAAAAA222IAAAAAAAAAA222IIAIAAAAAAA2222444444444444IIIIIIA2
AAAAIAAAAAAA222IIAAAAAAAAA222IIAIAAAAAAA2222444444444444IIIIIIA2
AAAAIAAAAAAA222IIAAAAAAAIA222IIAIAAAAAAA2222444444444444IIIIIIA2
AAAAIAAAAAAA222IIAAAAAAA2A222IIAIAAAAAAA2222444444444444IIIIIIA2
AAAAIAAAAAAA222IIAAAAAAA2A222IIIIAAAAAAA2222444444444444IIIIIIA2
AAAAIAAAAAAA222IIIAAAAAA2A222IIIIAAAAAAA2222444444444444IIIIIIA2
AAAIIAAAAAAA222IIIAAAAAA2A222IIIIAAAAAAA2222444444444444IIIIIIA2
AIAIIAAAAAAA222IIIAAAAAA2A222IIIIAAAAAAA2222444444444444IIIIIIA2
AIIIIAAAAAAA222IIIAAAAAA2A222IIIIAAAAAAA2222444444444444IIIIIIA2
AIIIIAAAAAAAI22IIIAAAAAA2A222IIIIAAAAAAA2222444444444444IIIIIIA2
AIIIIAAAAAAA222IIIAAAAAA2A222IIIIAAAAAAA2222444444444444IIIIIIA2
AIIIIAAAAAAA2222IIAAAAAA2A222IIIIAAAAAAA2222444444444444IIIIIIA2
AIIIIAAAAAAA2222IIAAAAAA2A2222IIIAAAAAAA2222444444444444IIIIIIA2
AIIIIAAAAAAA2I22IIAAAAAA2A2222IIIAAAAAAA2222444444444444IIIIIIA2
AIIIIAAAAAAA2222IIAAAAAA2A2222IIIAAAAAAA2222444444444444IIIIIIA2
AIIIIAAAAAAA22I2IIAAAAAA2A2222IIIAAAAAAA2222444444444444IIIIIIA2
AIIIIAAAAAAA2222IIAAAAAA2A2222IIIAAAAAAA2222444444444444IIIIIIA2
AIIIIAAAAAAA2222IIAAAAAAIA2222IIIAAAAAAA2222444444444444IIIIIIA2
AIIIIAAAAAAA2222IIAAAAAA2A2222IIIAAAAAAA2222444444444444IIIIIIA2
AIIIIAAAAAAAI222IIAAAAAA2A2222IIIAAAAAAA2222444444444444IIIIIIA2
AIIIIAAAAAAA2222IIAAAAAA2A2222IIIAAAAAAA2222444444444444IIIIIIA2
AIIIIAAAAAAA2I22IIAAAAAA2A2222IIIAAAAAAA2222444444444444IIIIIIA2
AIIIIAAAAAAA2222IIAAAAAA2A2222IIIAAAAAAA2222444444444444IIIIIIA2
AIIIIAAAAAAA22I2IIAAAAAA2A2222IIIAAAAAAA2222444444444444IIIIIIA2
AIIIIAAAAAAA2222IIAAAAAA2A2222IIIAAAAAAA2222444444444444IIIIIIA2
AIIIIAAAAAAA2222IIAAAAAA2A222IIIIAAAAAAA2222444444444444IIIIIIA2
AIIIIAAAAAAA222IIIAAAAAA2A222IIIIAAAAAAA2222444444444444IIIIIIA2
AIIIIAAAAAAA222IIIAAAAAAIA222IIIIAAAAAAA2222444444444444IIIIIIA2
AIIIIAAAAAAA222IIIAAAAAA2A222IIIIAAAAAAA2222444444444444IIIIIIA2
AIIIIAAAAAAAI22IIIAAAAAA2A222IIIIAAAAAAA2222444444444444IIIIIIA2
AIIIIAAAAAAA222IIIAAAAAA2A222IIIIAAAAAAA2222444444444444IIIIIIA2
AIIIIAAAAAAA2I2IIIAAAAAA2A222IIIIAAAAAAA2222444444444444IIIIIIA2
AIIIIAAAAAAA222IIIAAAAAA2A222IIIIAAAAAAA2222444444444444IIIIIIA2
AIIIIAAAAAAA22IIIIAAAAAA2A222IIIIAAAAAAA2222444444444444IIIIIIA2
AIIIIAAAAAAA222IIIAAAAAA2A222IIIIAAAAAAA2222444444444444IIIIIIA2
AIIIIAAAAAAA222IIIAAAAAAIA222IIIIAAAAAAA2222444444444444IIIIIIA2
AIIIIAAAAAAA222IIIAAAAAA2A222IIIIAAAAAAA2222444444444444IIIIIIA2
AIIIIAAAAAAAI22IIIAAAAAA2A222IIIIAAAAAAA2222444444444444IIIIIIA2
AIIIIAAAAAAA222IIIAAAAAA2A222IIIIAAAAAAA2222444444444444IIIIIIA2
AIIIIAAAAAAA2I2IIIAAAAAA2A222IIIIAAAAAAA2222444444444444IIIIIIA2
AIIIIAAAAAAA222IIIAAAAAA2A222IIIIAAAAAAA2222444444444444IIIIIIA2
AIIIIAAAAAAA22IIIIAAAAAA2A222IIIIAAAAAAA2222444444444444IIIIIIA2
AIIIIAAAAAAA222IIIAAAAAA2A222IIIIAAAAAAA2222444444444444IIIIIIA2
AIIIIAAAAAAA2222IIAAAAAA2A222IIIIAAAAAAA2222444444444444IIIIIIA2
AIIIIAAAAAAA2222IIAAAAAA2A2222IIIAAAAAAA2222444444444444IIIIIIA2
AIIIIAAAAAAA2222IIAAAAAAIA2222IIIAAAAAAA2222444444444444IIIIIIA2
AIIIIAAAAAAA2222IIAAAAAA2A2222IIIAAAAAAA2222444444444444IIIIIIA2
AIIIIAAAAAAAI222IIAAAAAA2A2222IIIAAAAAAA2222444444444444IIIIIIA2
AIIIIAAAAAAA2222IIAAAAAA2A2222IIIAAAAAAA2222444444444444IIIIIIA2
AIIIIAAAAAAA2I22IIAAAAAA2A2222IIIAAAAAAA2222444444444444IIIIIIA2
AIIIIAAAAAAA2222IIAAAAAA2A2222IIIAAAAAAA2222444444444444IIIIIIA2
AIIIIAAAAAAA222IIIAAAAAA2A2222IIIAAAAAAA2222444444444444IIIIIIA2
AIIIIAAAAAAA222IIIAAAAAA2A222IIIIAAAAAAA2222444444444444IIIIIIA2
AIIIIAAAAAAA222IIIAAAAAAIA222IIIIAAAAAAA2222444444444444IIIIIIA2
AIIIIAAAAAAA222IIIAAAAAA2A222IIIIAAAAAAA2222444444444444IIIIIIA2
AIIIIAAAAAAAI22IIIAAAAAA2A222IIIIAAAAAAA2222444444444444IIIIIIA2
AIIIIAAAAAAA222IIIAAAAAA2A222IIIIAAAAAAA2222444444444444IIIIIIA2
AIIIIAAAAAAA2I2IIIAAAAAA2A222IIIIAAAAAAA2222444444444444IIIIIIA2
AIIIIAAAAAAA222IIIAAAAAA2A222IIIIAAAAAAA2222444444444444IIIIIIA2
AIIIIAAAAAAA222IIIAAAAAAIA222IIIIAAAAAAA2222444444444444IIIIIIA2
AIIIIAAAAAAA222IIIAAAAAA2A222IIIIAAAAAAA2222444444444444IIIIIIA2
AIIIIAAAAAAAI22IIIAAAAAA2A222IIIIAAAAAAA2222444444444444IIIIIIA2
AIIIIAAAAAAA222IIIAAAAAA2A222IIIIAAAAAAA2222444444444444IIIIIIA2
AIIIIAAAAAAA2I2IIIAAAAAA2A222IIIIAAAAAAA2222444444444444IIIIIIA2
AIIIIAAAAAAA222IIIAAAAAA2A222IIIIAAAAAAA2222444444444444IIIIIIA2
AIIIIAAAAAAA2222IIAAAAAA2A222IIIIAAAAAAA2222444444444444IIIIIIA2
AIIIIAAAAAAA2222IIAAAAAA2A2222IIIAAAAAAA2222444444444444IIIIIIA2
AIIIIAAAAAAA2222IIAAAAAAIA2222IIIAAAAAAA2222444444444444IIIIIIA2
AIIIIAAAAAAA2222IIAAAAAA2A2222IIIAAAAAAA2222444444444444IIIIIIA2
AIIIIAAAAAAA2222IIAAAAAA2A222IIIIAAAAAAA2222444444444444IIIIIIA2
AIIIIAAAAAAA2222IIAAAAAAIA222IIIIAAAAAAA2222444444444444IIIIIIA2
AIIIIAAAAAAA2222IIAAAAAA2A222IIIIAAAAAAA2222444444444444IIIIIIA2
AIIIIAAAAAAAI222IIAAAAAA2A222IIIIAAAAAAA2222444444444444IIIIIIA2
AIIIIAAAAAAA2222IIAAAAAA2A222IIIIAAAAAAA2222444444444444IIIIIIA2
AIIIIAAAAAAA2I22IIAAAAAA2A222IIIIAAAAAAA2222444444444444IIIIIIA2
AIIIIAAAAAAA2222IIAAAAAA2A222IIIIAAAAAAA2222444444444444IIIIIIA2
AIIIIAAAAAAA222IIIAAAAAA2A222IIIIAAAAAAA2222444444444444IIIIIIA2
AIIIIAAAAAAAI22IIIAAAAAA2A222IIIIAAAAAAA2222444444444444IIIIIIA2
AIIIIAAAAAAA222IIIAAAAAA2A222IIIIAAAAAAA2222444444444444IIIIIIA2
AIIIIAAAAAAA2I2IIIAAAAAA2A222IIIIAAAAAAA2222444444444444IIIIIIA2
AIIIIAAAAAAA222IIIAAAAAA2A222IIIIAAAAAAA2222444444444444IIIIIIA2
AIIIIAAAAAAA2222IIAAAAAA2A222IIIIAAAAAAA2222444444444444IIIIIIA2
AIIIIAAAAAAA2222IIAAAAAA2A2222IIIAAAAAAA2222444444444444IIIIIIA2
AIIIIAAAAAAA2222IIAAAAAAIA2222IIIAAAAAAA2222444444444444IIIIIIA2
AIIIIAAAAAAA2222IIAAAAAA2A2222IIIAAAAAAA2222444444444444IIIIIIA2
AIIIIAAAAAAA2222IIAAAAAA2A222IIIIAAAAAAA2222444444444444IIIIIIA2
AIIIIAAAAAAA2222IIAAAAAAIA222IIIIAAAAAAA2222444444444444IIIIIIA2
AIIIIAAAAAAA2222IIAAAAAA2A222IIIIAAAAAAA2222444444444444IIIIIIA2
AIIIIAAAAAAAI222IIAAAAAA2A222IIIIAAAAAAA2222444444444444IIIIIIA2
AIIIIAAAAAAA2222IIAAAAAA2A222IIIIAAAAAAA2222444444444444IIIIIIA2
AIIIIAAAAAAA2I22IIAAAAAA2A222IIIIAAAAAAA2222444444444444IIIIIIA2
AIIIIAAAAAAA2222IIAAAAAA2A222IIIIAAAAAAA2222444444444444IIIIIIA2
AIIIIAAAAAAA222IIIAAAAAA2A222IIIIAAAAAAA2222444444444444IIIIIIA2
AIIIIAAAAAAA2222IIAAAAAA2A222IIIIAAAAAAA2222444444444444IIIIIIA2
AIIIIAAAAAAA2222IIAAAAAA2A2222IIIAAAAAAA2222444444444444IIIIIIA2
AIIIIAAAAAAA2222IIAAAAAAIA2222IIIAAAAAAA2222444444444444IIIIIIA2
AIIIIAAAAAAA2222IIAAAAAA2A2222IIIAAAAAAA2222444444444444IIIIIIA2
AIIIIAAAAAAA222IIIAAAAAA2A2222IIIAAAAAAA2222444444444444IIIIIIA2
AIIIIAAAAAAA222IIIAAAAAA2A222IIIIAAAAAAA2222444444444444IIIIIIA2
AIIIIAAAAAAA2222IIAAAAAA2A222IIIIAAAAAAA2222444444444444IIIIIIA2
AIIIIAAAAAAA2222IIAAAAAA2A2222IIIAAAAAAA2222444444444444IIIIIIA2
AIIIIAAAAAAA2222IIAAAAAA2A222IIIIAAAAAAA2222444444444444IIIIIIA2
AIIIIAAAAAAA222IIIAAAAAA2A222IIIIAAAAAAA2222444444444444IIIIIIA2
AIIIIAAAAAAA2222IIAAAAAA2A222IIIIAAAAAAA2222444444444444IIIIIIA2
AIIIIAAAAAAA2222IIAAAAAA2A2222IIIAAAAAAA2222444444444444IIIIIIA2
AIIIIAAAAAAA2222IIAAAAAA2A222IIIIAAAAAAA2222444444444444IIIIIIA2
AIIIIAAAAAAA222IIIAAAAAA2A222IIIIAAAAAAA2222444444444444IIIIIIA2
AIIIIAAAAAAA2222IIAAAAAA2A222IIIIAAAAAAA2222444444444444IIIIIIA2
AIIIIAAAAAAA2222IIAAAAAA2A2222IIIAAAAAAA2222444444444444IIIIIIA2
AIIIIAAAAAAA222IIIAAAAAA2A2222IIIAAAAAAA2222444444444444IIIIIIA2
AIIIIAAAAAAA222IIIAAAAAA2A222IIIIAAAAAAA2222444444444444IIIIIIA2
AIIIIAAAAAAA2222IIAAAAAA2A222IIIIAAAAAAA2222444444444444IIIIIIA2
AIIIIAAAAAAA2222IIAAAAAA2A2222IIIAAAAAAA2222444444444444IIIIIIA2
AIIIIAAAAAAAA222IIAAAAAA2A2222IIIAAAAAAA2222444444444444IIIIIIA2
AII4IAAAAAAAA222IIAAAAAA2A2222IIIAAAAAAA2222444444444444IIIIIIA2
AII4IAAAAAAAA2224IAAAAAA2A2222IIIAAAAAAA2222444444444444IIIIIIA2
AII4IAAAAAAAA22244AAAAAA2A2222IIIAAAAAAA2222444444444444IIIIIIA2
AII4IAAAAAAAI22244AAAAAA2A2222IIIAAAAAAA2222444444444444IIIIIIA2
AII4IAAAAAAA222244AAAAAA2A2222IIIAAAAAAA2222444444444444IIIIIIA2
AII4IAAAAAAAI22244AAAAAA2A2222IIIAAAAAAA2222444444444444IIIIIIA2
AII4IAAAAAAA222244AAAAAA2A2222IIIAAAAAAA2222444444444444IIIIIIA2
AII4IAAAAAAAI22244AAAAAA2A2222IIIAAAAAAA2222444444444444IIIIIIA2
AII4IAAAAAAA222244AAAAAA2A2222IIIAAAAAAA2222444444444444IIIIIIA2
AII4IAAAAAAAI22244AAAAAA2A2222IIIAAAAAAA2222444444444444IIIIIIA2
AII4IAAAAAAA222244AAAAAA2A2222IIIAAAAAAA2222444444444444IIIIIIA2
AII4IAAAAAAAI22244AAAAAA2A2222IIIAAAAAAA2222444444444444IIIIIIA2
AII4IAAAAAAA222244AAAAAA2A2222IIIAAAAAAA2222444444444444IIIIIIA2
[MLOP] Prefetch Degree Mean: 3.00533
[MLOP] Prefetch Degree SD: 0.63873
[MLOP] Max Score Left Mean (%): 94.78373
[MLOP] Max Score Left SD (%): 7.19629
[MLOP] Max Score Right Mean (%): 99.54053
[MLOP] Max Score Right SD (%): 1.99539

Channel_0_RQ_row_buffer_hit 98632
Channel_0_RQ_row_buffer_miss 39518
Channel_0_WQ_row_buffer_hit 14700
Channel_0_WQ_row_buffer_miss 18734
Channel_0_WQ_full 0
Channel_0_dbus_congested 48962

avg_congested_cycle 8

DRAM_bw_pochs 192562
DRAM_bw_level_0 173596
DRAM_bw_level_1 5641
DRAM_bw_level_2 9800
DRAM_bw_level_3 3525
