*************************************************
   ChampSim Multicore Out-of-Order Simulator
   Last compiled: Apr  3 2025 20:54:34
*************************************************
parsing config file: /home/zir/Pythia/config/mlop.ini

trace_0 /home/zir/ChampSim/ML-DPC/ChampSimTraces/spec17/605.mcf-s6.trace.xz
adding L2C_PREFETCHER: MLOP
Initialize SHIP state
warmup_instructions 10000000
simulation_instructions 50000000
champsim_seed 169
measure_ipc 0
measure_ipc_epoch 1000
measure_dram_bw 1
measure_dram_bw_epoch 256
measure_cache_acc 1
measure_cache_acc_epoch 1024
l1d_perfect 0
l2c_perfect 0
llc_perfect 0
l1d_semi_perfect 0
l2c_semi_perfect 0
llc_semi_perfect 0
semi_perfect_cache_page_buffer_size 64

num_cpus 1
cpu_freq 4000
dram_io_freq 2400
page_size 4096
block_size 64
max_read_per_cycle 8
max_fill_per_cycle 1
dram_channels 1
log2_dram_channels 0
dram_ranks 1
dram_banks 8
dram_rows 65536
dram_columns 128
dram_row_size 8
dram_size 4096
dram_pages 1048576

fetch_width 6
decode_width 6
exec_width 4
lq_width 2
sq_width 2
retire_width 4
scheduler_size 128
branch_mispredict_penalty 20
rob_size 256
lq_size 72
sq_size 56
num_instr_destinations_sparc 4
num_instr_destinations 2
num_instr_sources 4

itlb_set 16
itlb_way 8
itlb_rq_size 16
itlb_wq_size 16
itlb_pq_size 0
itlb_mshr_size 8
itlb_latency 1

dtlb_set 16
dtlb_way 4
dtlb_rq_size 16
dtlb_wq_size 16
dtlb_pq_size 0
dtlb_mshr_size 8
dtlb_latency 1

stlb_set 128
stlb_way 12
stlb_rq_size 32
stlb_wq_size 32
stlb_pq_size 0
stlb_mshr_size 16
stlb_latency 8

l1i_size 32
l1i_set 64
l1i_way 8
l1i_rq_size 64
l1i_wq_size 64
l1i_pq_size 8
l1i_mshr_size 8
l1i_latency 1

l1d_size 32
l1d_set 64
l1d_way 8
l1d_rq_size 64
l1d_wq_size 64
l1d_pq_size 8
l1d_mshr_size 16
l1d_latency 4

l2c_size 256
l2c_set 512
l2c_way 8
l2c_rq_size 32
l2c_wq_size 32
l2c_pq_size 32
l2c_mshr_size 32
l2c_latency 10

llc_size 2048
llc_set 2048
llc_way 16
llc_rq_size 32
llc_wq_size 32
llc_pq_size 32
llc_mshr_size 64
llc_latency 20

dram_channel_width 8
dram_wq_size 64
dram_rq_size 64
tRP 15
tRCD 15
tCAS 12.5
dram_dbus_turn_around_time 30
dram_write_high_wm 56
dram_write_low_wm 48
min_dram_writes_per_switch 16
dram_mtps 2400
dram_dbus_return_time 13

mlop_pref_degree 16
mlop_num_updates 500
mlop_l1d_thresh 2
mlop_l2c_thresh 0.75
mlop_llc_thresh 0.3
mlop_debug_level 0
mlop_blocks_in_cache 4096
mlop_blocks_in_zone 64
mlop_amt_size 2048
mlop_PF_DEGREE 16
mlop_NUM_UPDATES 500
mlop_L1D_THRESH 1000
mlop_L2C_THRESH 375
mlop_LLC_THRESH 150
mlop_ORIGIN 63
mlop_MAX_OFFSET 63
mlop_MIN_OFFSET -63
mlop_ORIGIN 63
mlop_NUM_OFFSETS 127


Heartbeat CPU  0 instructions:    1000000 cycles:    1004009 heartbeat IPC: 0.99601 cumulative IPC: 0.99601 (Simulation time: 0 hr 0 min 1 sec) 
Heartbeat CPU  0 instructions:    2000000 cycles:    1989079 heartbeat IPC: 1.01516 cumulative IPC: 1.00549 (Simulation time: 0 hr 0 min 2 sec) 
Heartbeat CPU  0 instructions:    3000003 cycles:    2967171 heartbeat IPC: 1.02240 cumulative IPC: 1.01107 (Simulation time: 0 hr 0 min 4 sec) 
Heartbeat CPU  0 instructions:    4000000 cycles:    3952942 heartbeat IPC: 1.01443 cumulative IPC: 1.01190 (Simulation time: 0 hr 0 min 5 sec) 
Heartbeat CPU  0 instructions:    5000001 cycles:    4945545 heartbeat IPC: 1.00745 cumulative IPC: 1.01101 (Simulation time: 0 hr 0 min 6 sec) 
Heartbeat CPU  0 instructions:    6000001 cycles:    5934462 heartbeat IPC: 1.01121 cumulative IPC: 1.01104 (Simulation time: 0 hr 0 min 7 sec) 
Heartbeat CPU  0 instructions:    7000000 cycles:    6921952 heartbeat IPC: 1.01267 cumulative IPC: 1.01128 (Simulation time: 0 hr 0 min 8 sec) 
Heartbeat CPU  0 instructions:    8000000 cycles:    7910145 heartbeat IPC: 1.01195 cumulative IPC: 1.01136 (Simulation time: 0 hr 0 min 10 sec) 
Heartbeat CPU  0 instructions:    9000000 cycles:    8904350 heartbeat IPC: 1.00583 cumulative IPC: 1.01074 (Simulation time: 0 hr 0 min 11 sec) 
Heartbeat CPU  0 instructions:   10000001 cycles:    9903630 heartbeat IPC: 1.00072 cumulative IPC: 1.00973 (Simulation time: 0 hr 0 min 12 sec) 

Warmup complete CPU  0 instructions:   10000001 cycles:    9903630 (Simulation time: 0 hr 0 min 12 sec) 

Heartbeat CPU  0 instructions:   11000001 cycles:   13417276 heartbeat IPC: 0.28460 cumulative IPC: 0.28460 (Simulation time: 0 hr 0 min 14 sec) 
Heartbeat CPU  0 instructions:   12000000 cycles:   17032499 heartbeat IPC: 0.27661 cumulative IPC: 0.28055 (Simulation time: 0 hr 0 min 16 sec) 
Heartbeat CPU  0 instructions:   13000001 cycles:   20536592 heartbeat IPC: 0.28538 cumulative IPC: 0.28214 (Simulation time: 0 hr 0 min 18 sec) 
Heartbeat CPU  0 instructions:   14000001 cycles:   24066256 heartbeat IPC: 0.28331 cumulative IPC: 0.28243 (Simulation time: 0 hr 0 min 20 sec) 
Heartbeat CPU  0 instructions:   15000000 cycles:   27679390 heartbeat IPC: 0.27677 cumulative IPC: 0.28128 (Simulation time: 0 hr 0 min 22 sec) 
Heartbeat CPU  0 instructions:   16000000 cycles:   31241146 heartbeat IPC: 0.28076 cumulative IPC: 0.28119 (Simulation time: 0 hr 0 min 24 sec) 
Heartbeat CPU  0 instructions:   17000001 cycles:   34731471 heartbeat IPC: 0.28651 cumulative IPC: 0.28194 (Simulation time: 0 hr 0 min 26 sec) 
Heartbeat CPU  0 instructions:   18000000 cycles:   38232250 heartbeat IPC: 0.28565 cumulative IPC: 0.28240 (Simulation time: 0 hr 0 min 28 sec) 
Heartbeat CPU  0 instructions:   19000002 cycles:   41742835 heartbeat IPC: 0.28485 cumulative IPC: 0.28267 (Simulation time: 0 hr 0 min 30 sec) 
Heartbeat CPU  0 instructions:   20000000 cycles:   45202861 heartbeat IPC: 0.28901 cumulative IPC: 0.28329 (Simulation time: 0 hr 0 min 32 sec) 
Heartbeat CPU  0 instructions:   21000002 cycles:   48499700 heartbeat IPC: 0.30332 cumulative IPC: 0.28500 (Simulation time: 0 hr 0 min 33 sec) 
Heartbeat CPU  0 instructions:   22000001 cycles:   51914461 heartbeat IPC: 0.29285 cumulative IPC: 0.28564 (Simulation time: 0 hr 0 min 35 sec) 
Heartbeat CPU  0 instructions:   23000003 cycles:   55430107 heartbeat IPC: 0.28444 cumulative IPC: 0.28555 (Simulation time: 0 hr 0 min 37 sec) 
Heartbeat CPU  0 instructions:   24000000 cycles:   58914547 heartbeat IPC: 0.28699 cumulative IPC: 0.28565 (Simulation time: 0 hr 0 min 39 sec) 
Heartbeat CPU  0 instructions:   25000001 cycles:   62421605 heartbeat IPC: 0.28514 cumulative IPC: 0.28562 (Simulation time: 0 hr 0 min 41 sec) 
Heartbeat CPU  0 instructions:   26000001 cycles:   65979375 heartbeat IPC: 0.28107 cumulative IPC: 0.28533 (Simulation time: 0 hr 0 min 43 sec) 
Heartbeat CPU  0 instructions:   27000002 cycles:   69515594 heartbeat IPC: 0.28279 cumulative IPC: 0.28518 (Simulation time: 0 hr 0 min 45 sec) 
Heartbeat CPU  0 instructions:   28000000 cycles:   73030236 heartbeat IPC: 0.28452 cumulative IPC: 0.28514 (Simulation time: 0 hr 0 min 47 sec) 
Heartbeat CPU  0 instructions:   29000000 cycles:   76531395 heartbeat IPC: 0.28562 cumulative IPC: 0.28517 (Simulation time: 0 hr 0 min 49 sec) 
Heartbeat CPU  0 instructions:   30000001 cycles:   79990679 heartbeat IPC: 0.28908 cumulative IPC: 0.28536 (Simulation time: 0 hr 0 min 51 sec) 
Heartbeat CPU  0 instructions:   31000001 cycles:   83533726 heartbeat IPC: 0.28224 cumulative IPC: 0.28521 (Simulation time: 0 hr 0 min 53 sec) 
Heartbeat CPU  0 instructions:   32000000 cycles:   87031294 heartbeat IPC: 0.28591 cumulative IPC: 0.28524 (Simulation time: 0 hr 0 min 55 sec) 
Heartbeat CPU  0 instructions:   33000002 cycles:   90520045 heartbeat IPC: 0.28664 cumulative IPC: 0.28530 (Simulation time: 0 hr 0 min 57 sec) 
Heartbeat CPU  0 instructions:   34000000 cycles:   94015446 heartbeat IPC: 0.28609 cumulative IPC: 0.28533 (Simulation time: 0 hr 0 min 59 sec) 
Heartbeat CPU  0 instructions:   35000000 cycles:   97487068 heartbeat IPC: 0.28805 cumulative IPC: 0.28544 (Simulation time: 0 hr 1 min 0 sec) 
Heartbeat CPU  0 instructions:   36000000 cycles:  101047176 heartbeat IPC: 0.28089 cumulative IPC: 0.28526 (Simulation time: 0 hr 1 min 2 sec) 
Heartbeat CPU  0 instructions:   37000000 cycles:  104577732 heartbeat IPC: 0.28324 cumulative IPC: 0.28519 (Simulation time: 0 hr 1 min 4 sec) 
Heartbeat CPU  0 instructions:   38000000 cycles:  108118908 heartbeat IPC: 0.28239 cumulative IPC: 0.28509 (Simulation time: 0 hr 1 min 6 sec) 
Heartbeat CPU  0 instructions:   39000002 cycles:  111569485 heartbeat IPC: 0.28981 cumulative IPC: 0.28525 (Simulation time: 0 hr 1 min 8 sec) 
Heartbeat CPU  0 instructions:   40000000 cycles:  115032219 heartbeat IPC: 0.28879 cumulative IPC: 0.28536 (Simulation time: 0 hr 1 min 10 sec) 
Heartbeat CPU  0 instructions:   41000001 cycles:  118537296 heartbeat IPC: 0.28530 cumulative IPC: 0.28536 (Simulation time: 0 hr 1 min 12 sec) 
Heartbeat CPU  0 instructions:   42000001 cycles:  122115448 heartbeat IPC: 0.27947 cumulative IPC: 0.28517 (Simulation time: 0 hr 1 min 14 sec) 
Heartbeat CPU  0 instructions:   43000002 cycles:  125604823 heartbeat IPC: 0.28658 cumulative IPC: 0.28522 (Simulation time: 0 hr 1 min 16 sec) 
Heartbeat CPU  0 instructions:   44000000 cycles:  129043294 heartbeat IPC: 0.29083 cumulative IPC: 0.28538 (Simulation time: 0 hr 1 min 18 sec) 
Heartbeat CPU  0 instructions:   45000003 cycles:  132335003 heartbeat IPC: 0.30379 cumulative IPC: 0.28587 (Simulation time: 0 hr 1 min 20 sec) 
Heartbeat CPU  0 instructions:   46000001 cycles:  135734078 heartbeat IPC: 0.29420 cumulative IPC: 0.28610 (Simulation time: 0 hr 1 min 21 sec) 
Heartbeat CPU  0 instructions:   47000000 cycles:  139226239 heartbeat IPC: 0.28636 cumulative IPC: 0.28611 (Simulation time: 0 hr 1 min 23 sec) 
Heartbeat CPU  0 instructions:   48000000 cycles:  142712159 heartbeat IPC: 0.28687 cumulative IPC: 0.28613 (Simulation time: 0 hr 1 min 25 sec) 
Heartbeat CPU  0 instructions:   49000001 cycles:  146232103 heartbeat IPC: 0.28410 cumulative IPC: 0.28607 (Simulation time: 0 hr 1 min 27 sec) 
Heartbeat CPU  0 instructions:   50000003 cycles:  149688588 heartbeat IPC: 0.28931 cumulative IPC: 0.28615 (Simulation time: 0 hr 1 min 29 sec) 
Heartbeat CPU  0 instructions:   51000001 cycles:  153170981 heartbeat IPC: 0.28716 cumulative IPC: 0.28618 (Simulation time: 0 hr 1 min 31 sec) 
Heartbeat CPU  0 instructions:   52000000 cycles:  156662183 heartbeat IPC: 0.28643 cumulative IPC: 0.28618 (Simulation time: 0 hr 1 min 33 sec) 
Heartbeat CPU  0 instructions:   53000000 cycles:  160174577 heartbeat IPC: 0.28471 cumulative IPC: 0.28615 (Simulation time: 0 hr 1 min 35 sec) 
Heartbeat CPU  0 instructions:   54000002 cycles:  163711048 heartbeat IPC: 0.28277 cumulative IPC: 0.28607 (Simulation time: 0 hr 1 min 37 sec) 
Heartbeat CPU  0 instructions:   55000000 cycles:  167271885 heartbeat IPC: 0.28083 cumulative IPC: 0.28595 (Simulation time: 0 hr 1 min 39 sec) 
Heartbeat CPU  0 instructions:   56000000 cycles:  170790979 heartbeat IPC: 0.28416 cumulative IPC: 0.28591 (Simulation time: 0 hr 1 min 41 sec) 
Heartbeat CPU  0 instructions:   57000001 cycles:  174282243 heartbeat IPC: 0.28643 cumulative IPC: 0.28593 (Simulation time: 0 hr 1 min 43 sec) 
Heartbeat CPU  0 instructions:   58000000 cycles:  177813737 heartbeat IPC: 0.28317 cumulative IPC: 0.28587 (Simulation time: 0 hr 1 min 45 sec) 
Heartbeat CPU  0 instructions:   59000001 cycles:  181245763 heartbeat IPC: 0.29137 cumulative IPC: 0.28598 (Simulation time: 0 hr 1 min 46 sec) 
Heartbeat CPU  0 instructions:   60000000 cycles:  184705380 heartbeat IPC: 0.28905 cumulative IPC: 0.28604 (Simulation time: 0 hr 1 min 48 sec) 
Finished CPU 0 instructions: 50000000 cycles: 174801763 cumulative IPC: 0.28604 (Simulation time: 0 hr 1 min 48 sec) 

ChampSim completed all CPUs

[ROI Statistics]
Core_0_instructions 50000000
Core_0_cycles 174801763
Core_0_IPC 0.28604

Core_0_branch_prediction_accuracy 90.26518
Core_0_branch_MPKI 19.07442
Core_0_average_ROB_occupancy_at_mispredict 50.06131

Core_0_L1D_total_access 19172291
Core_0_L1D_total_hit 17071476
Core_0_L1D_total_miss 2100815
Core_0_L1D_loads 13769361
Core_0_L1D_load_hit 11865137
Core_0_L1D_load_miss 1904224
Core_0_L1D_RFOs 5402930
Core_0_L1D_RFO_hit 5206339
Core_0_L1D_RFO_miss 196591
Core_0_L1D_prefetches 0
Core_0_L1D_prefetch_hit 0
Core_0_L1D_prefetch_miss 0
Core_0_L1D_writebacks 0
Core_0_L1D_writeback_hit 0
Core_0_L1D_writeback_miss 0
Core_0_L1D_prefetch_requested 0
Core_0_L1D_prefetch_dropped 0
Core_0_L1D_prefetch_issued 0
Core_0_L1D_prefetch_filled 0
Core_0_L1D_prefetch_useful 0
Core_0_L1D_prefetch_useless 0
Core_0_L1D_prefetch_late 0
Core_0_L1D_average_miss_latency 57.80217

Core_0_L1D_rq_access 16737430
Core_0_L1D_rq_forward 0
Core_0_L1D_rq_merged 2874659
Core_0_L1D_rq_to_cache 13847469
Core_0_L1D_rq_full 0

Core_0_L1D_wq_access 5753550
Core_0_L1D_wq_forward 15302
Core_0_L1D_wq_merged 11700
Core_0_L1D_wq_to_cache 5741850
Core_0_L1D_wq_full 0

Core_0_L1D_pq_access 0
Core_0_L1D_pq_forward 0
Core_0_L1D_pq_merged 0
Core_0_L1D_pq_to_cache 0
Core_0_L1D_pq_full 0

Core_0_L1D_acc_epochs 179068
Core_0_L1D_acc_level_0 179068
Core_0_L1D_acc_level_1 0
Core_0_L1D_acc_level_2 0
Core_0_L1D_acc_level_3 0
Core_0_L1D_acc_level_4 0
Core_0_L1D_acc_level_5 0
Core_0_L1D_acc_level_6 0
Core_0_L1D_acc_level_7 0
Core_0_L1D_acc_level_8 0
Core_0_L1D_acc_level_9 0

Core_0_L1I_total_access 10181793
Core_0_L1I_total_hit 10181793
Core_0_L1I_total_miss 0
Core_0_L1I_loads 10181793
Core_0_L1I_load_hit 10181793
Core_0_L1I_load_miss 0
Core_0_L1I_RFOs 0
Core_0_L1I_RFO_hit 0
Core_0_L1I_RFO_miss 0
Core_0_L1I_prefetches 0
Core_0_L1I_prefetch_hit 0
Core_0_L1I_prefetch_miss 0
Core_0_L1I_writebacks 0
Core_0_L1I_writeback_hit 0
Core_0_L1I_writeback_miss 0
Core_0_L1I_prefetch_requested 0
Core_0_L1I_prefetch_dropped 0
Core_0_L1I_prefetch_issued 0
Core_0_L1I_prefetch_filled 0
Core_0_L1I_prefetch_useful 0
Core_0_L1I_prefetch_useless 0
Core_0_L1I_prefetch_late 0
Core_0_L1I_average_miss_latency -nan

Core_0_L1I_rq_access 49999981
Core_0_L1I_rq_forward 0
Core_0_L1I_rq_merged 39818188
Core_0_L1I_rq_to_cache 10181793
Core_0_L1I_rq_full 0

Core_0_L1I_wq_access 0
Core_0_L1I_wq_forward 0
Core_0_L1I_wq_merged 0
Core_0_L1I_wq_to_cache 0
Core_0_L1I_wq_full 0

Core_0_L1I_pq_access 0
Core_0_L1I_pq_forward 0
Core_0_L1I_pq_merged 0
Core_0_L1I_pq_to_cache 0
Core_0_L1I_pq_full 0

Core_0_L1I_acc_epochs 179068
Core_0_L1I_acc_level_0 179068
Core_0_L1I_acc_level_1 0
Core_0_L1I_acc_level_2 0
Core_0_L1I_acc_level_3 0
Core_0_L1I_acc_level_4 0
Core_0_L1I_acc_level_5 0
Core_0_L1I_acc_level_6 0
Core_0_L1I_acc_level_7 0
Core_0_L1I_acc_level_8 0
Core_0_L1I_acc_level_9 0

Core_0_L2C_total_access 2853902
Core_0_L2C_total_hit 1193178
Core_0_L2C_total_miss 1660724
Core_0_L2C_loads 1904199
Core_0_L2C_load_hit 849133
Core_0_L2C_load_miss 1055066
Core_0_L2C_RFOs 196584
Core_0_L2C_RFO_hit 47042
Core_0_L2C_RFO_miss 149542
Core_0_L2C_prefetches 472664
Core_0_L2C_prefetch_hit 16762
Core_0_L2C_prefetch_miss 455902
Core_0_L2C_writebacks 280455
Core_0_L2C_writeback_hit 280241
Core_0_L2C_writeback_miss 214
Core_0_L2C_prefetch_requested 1355337
Core_0_L2C_prefetch_dropped 0
Core_0_L2C_prefetch_issued 1355337
Core_0_L2C_prefetch_filled 527730
Core_0_L2C_prefetch_useful 395284
Core_0_L2C_prefetch_useless 131999
Core_0_L2C_prefetch_late 17497
Core_0_L2C_average_miss_latency 72.66069

Core_0_L2C_rq_access 2100815
Core_0_L2C_rq_forward 0
Core_0_L2C_rq_merged 0
Core_0_L2C_rq_to_cache 2100783
Core_0_L2C_rq_full 0

Core_0_L2C_wq_access 280455
Core_0_L2C_wq_forward 32
Core_0_L2C_wq_merged 0
Core_0_L2C_wq_to_cache 280455
Core_0_L2C_wq_full 0

Core_0_L2C_pq_access 1355337
Core_0_L2C_pq_forward 0
Core_0_L2C_pq_merged 6221
Core_0_L2C_pq_to_cache 1349116
Core_0_L2C_pq_full 0

Core_0_L2C_acc_epochs 179068
Core_0_L2C_acc_level_0 117117
Core_0_L2C_acc_level_1 2470
Core_0_L2C_acc_level_2 1970
Core_0_L2C_acc_level_3 1382
Core_0_L2C_acc_level_4 1807
Core_0_L2C_acc_level_5 3988
Core_0_L2C_acc_level_6 7334
Core_0_L2C_acc_level_7 12067
Core_0_L2C_acc_level_8 12446
Core_0_L2C_acc_level_9 18487

Core_0_LLC_total_access 2434209
Core_0_LLC_total_hit 1724801
Core_0_LLC_total_miss 709408
Core_0_LLC_loads 1037624
Core_0_LLC_load_hit 797566
Core_0_LLC_load_miss 240058
Core_0_LLC_RFOs 149540
Core_0_LLC_RFO_hit 148799
Core_0_LLC_RFO_miss 741
Core_0_LLC_prefetches 1046359
Core_0_LLC_prefetch_hit 577936
Core_0_LLC_prefetch_miss 468423
Core_0_LLC_writebacks 200686
Core_0_LLC_writeback_hit 200500
Core_0_LLC_writeback_miss 186
Core_0_LLC_prefetch_requested 0
Core_0_LLC_prefetch_dropped 0
Core_0_LLC_prefetch_issued 0
Core_0_LLC_prefetch_filled 642126
Core_0_LLC_prefetch_useful 213885
Core_0_LLC_prefetch_useless 415991
Core_0_LLC_prefetch_late 2062
Core_0_LLC_average_miss_latency 191.18670

Core_0_LLC_rq_access 1187169
Core_0_LLC_rq_forward 0
Core_0_LLC_rq_merged 0
Core_0_LLC_rq_to_cache 1187164
Core_0_LLC_rq_full 0

Core_0_LLC_wq_access 200686
Core_0_LLC_wq_forward 8
Core_0_LLC_wq_merged 0
Core_0_LLC_wq_to_cache 200686
Core_0_LLC_wq_full 0

Core_0_LLC_pq_access 1302255
Core_0_LLC_pq_forward 0
Core_0_LLC_pq_merged 694
Core_0_LLC_pq_to_cache 1301558
Core_0_LLC_pq_full 0

Core_0_LLC_acc_epochs 180377
Core_0_LLC_acc_level_0 160505
Core_0_LLC_acc_level_1 5987
Core_0_LLC_acc_level_2 2655
Core_0_LLC_acc_level_3 1128
Core_0_LLC_acc_level_4 638
Core_0_LLC_acc_level_5 1291
Core_0_LLC_acc_level_6 735
Core_0_LLC_acc_level_7 1012
Core_0_LLC_acc_level_8 1358
Core_0_LLC_acc_level_9 5068

Core_0_major_page_fault 0
Core_0_minor_page_fault 9860

[MLOP] History of tracked zone:
IIIIIIIIIIIIIIIIIIIIIIIIIIIIIIIIIIIIIIIIIIIIIIIIIIIIIIIIIIIIIIII
IIIIIIIIIIIIIIIIIAIIIIIIIIIIIIIIIIIIIIIIIIIIIIIIIIIIIIIIIIIIIIII
IIIIIII4AIIIIIIIIAIIIIIIIIIIIIIIIIIIIIIIIIIIIIIIIIIIIIIIIIIIIIII
IIIIIII4AIIIIIIIIAIIIIIIIIIIIIIIIIIIIII4AIIIIIIIIIIIIIIIIIIIIIII
[MLOP] Prefetch Degree Mean: 7.24588
[MLOP] Prefetch Degree SD: 2.05939
[MLOP] Max Score Left Mean (%): 55.00307
[MLOP] Max Score Left SD (%): 7.44623
[MLOP] Max Score Right Mean (%): 77.71914
[MLOP] Max Score Right SD (%): 7.42736

Channel_0_RQ_row_buffer_hit 286957
Channel_0_RQ_row_buffer_miss 422263
Channel_0_WQ_row_buffer_hit 975
Channel_0_WQ_row_buffer_miss 3713
Channel_0_WQ_full 0
Channel_0_dbus_congested 297522

avg_congested_cycle 9

DRAM_bw_pochs 721506
DRAM_bw_level_0 612080
DRAM_bw_level_1 75162
DRAM_bw_level_2 22685
DRAM_bw_level_3 11579
