*************************************************
   ChampSim Multicore Out-of-Order Simulator
   Last compiled: Apr  3 2025 20:54:34
*************************************************
parsing config file: /home/zir/Pythia/config/nopref.ini

trace_0 /home/zir/ChampSim/ML-DPC/ChampSimTraces/spec06/462.libquantum-s0.trace.gz
adding L2C_PREFETCHER: NONE
Initialize SHIP state
warmup_instructions 10000000
simulation_instructions 50000000
champsim_seed 163
measure_ipc 0
measure_ipc_epoch 1000
measure_dram_bw 1
measure_dram_bw_epoch 256
measure_cache_acc 1
measure_cache_acc_epoch 1024
l1d_perfect 0
l2c_perfect 0
llc_perfect 0
l1d_semi_perfect 0
l2c_semi_perfect 0
llc_semi_perfect 0
semi_perfect_cache_page_buffer_size 64

num_cpus 1
cpu_freq 4000
dram_io_freq 2400
page_size 4096
block_size 64
max_read_per_cycle 8
max_fill_per_cycle 1
dram_channels 1
log2_dram_channels 0
dram_ranks 1
dram_banks 8
dram_rows 65536
dram_columns 128
dram_row_size 8
dram_size 4096
dram_pages 1048576

fetch_width 6
decode_width 6
exec_width 4
lq_width 2
sq_width 2
retire_width 4
scheduler_size 128
branch_mispredict_penalty 20
rob_size 256
lq_size 72
sq_size 56
num_instr_destinations_sparc 4
num_instr_destinations 2
num_instr_sources 4

itlb_set 16
itlb_way 8
itlb_rq_size 16
itlb_wq_size 16
itlb_pq_size 0
itlb_mshr_size 8
itlb_latency 1

dtlb_set 16
dtlb_way 4
dtlb_rq_size 16
dtlb_wq_size 16
dtlb_pq_size 0
dtlb_mshr_size 8
dtlb_latency 1

stlb_set 128
stlb_way 12
stlb_rq_size 32
stlb_wq_size 32
stlb_pq_size 0
stlb_mshr_size 16
stlb_latency 8

l1i_size 32
l1i_set 64
l1i_way 8
l1i_rq_size 64
l1i_wq_size 64
l1i_pq_size 8
l1i_mshr_size 8
l1i_latency 1

l1d_size 32
l1d_set 64
l1d_way 8
l1d_rq_size 64
l1d_wq_size 64
l1d_pq_size 8
l1d_mshr_size 16
l1d_latency 4

l2c_size 256
l2c_set 512
l2c_way 8
l2c_rq_size 32
l2c_wq_size 32
l2c_pq_size 32
l2c_mshr_size 32
l2c_latency 10

llc_size 2048
llc_set 2048
llc_way 16
llc_rq_size 32
llc_wq_size 32
llc_pq_size 32
llc_mshr_size 64
llc_latency 20

dram_channel_width 8
dram_wq_size 64
dram_rq_size 64
tRP 15
tRCD 15
tCAS 12.5
dram_dbus_turn_around_time 30
dram_write_high_wm 56
dram_write_low_wm 48
min_dram_writes_per_switch 16
dram_mtps 2400
dram_dbus_return_time 13


Heartbeat CPU  0 instructions:    1000000 cycles:     891683 heartbeat IPC: 1.12147 cumulative IPC: 1.12147 (Simulation time: 0 hr 0 min 1 sec) 
Heartbeat CPU  0 instructions:    2000002 cycles:    1771071 heartbeat IPC: 1.13716 cumulative IPC: 1.12926 (Simulation time: 0 hr 0 min 2 sec) 
Heartbeat CPU  0 instructions:    3000000 cycles:    2632002 heartbeat IPC: 1.16153 cumulative IPC: 1.13982 (Simulation time: 0 hr 0 min 3 sec) 
Heartbeat CPU  0 instructions:    4000000 cycles:    3540833 heartbeat IPC: 1.10031 cumulative IPC: 1.12968 (Simulation time: 0 hr 0 min 4 sec) 
Heartbeat CPU  0 instructions:    5000002 cycles:    4379495 heartbeat IPC: 1.19238 cumulative IPC: 1.14168 (Simulation time: 0 hr 0 min 5 sec) 
Heartbeat CPU  0 instructions:    6000003 cycles:    5283517 heartbeat IPC: 1.10617 cumulative IPC: 1.13561 (Simulation time: 0 hr 0 min 6 sec) 
Heartbeat CPU  0 instructions:    7000002 cycles:    6149739 heartbeat IPC: 1.15444 cumulative IPC: 1.13826 (Simulation time: 0 hr 0 min 7 sec) 
Heartbeat CPU  0 instructions:    8000000 cycles:    7024288 heartbeat IPC: 1.14344 cumulative IPC: 1.13891 (Simulation time: 0 hr 0 min 8 sec) 
Heartbeat CPU  0 instructions:    9000001 cycles:    7919510 heartbeat IPC: 1.11704 cumulative IPC: 1.13643 (Simulation time: 0 hr 0 min 9 sec) 
Heartbeat CPU  0 instructions:   10000001 cycles:    8764155 heartbeat IPC: 1.18393 cumulative IPC: 1.14101 (Simulation time: 0 hr 0 min 9 sec) 

Warmup complete CPU  0 instructions:   10000001 cycles:    8764155 (Simulation time: 0 hr 0 min 9 sec) 

Heartbeat CPU  0 instructions:   11000001 cycles:   13103084 heartbeat IPC: 0.23047 cumulative IPC: 0.23047 (Simulation time: 0 hr 0 min 11 sec) 
Heartbeat CPU  0 instructions:   12000000 cycles:   17254406 heartbeat IPC: 0.24089 cumulative IPC: 0.23556 (Simulation time: 0 hr 0 min 13 sec) 
Heartbeat CPU  0 instructions:   13000003 cycles:   23370826 heartbeat IPC: 0.16349 cumulative IPC: 0.20539 (Simulation time: 0 hr 0 min 16 sec) 
Heartbeat CPU  0 instructions:   14000001 cycles:   28226196 heartbeat IPC: 0.20596 cumulative IPC: 0.20553 (Simulation time: 0 hr 0 min 18 sec) 
Heartbeat CPU  0 instructions:   15000001 cycles:   32887569 heartbeat IPC: 0.21453 cumulative IPC: 0.20727 (Simulation time: 0 hr 0 min 20 sec) 
Heartbeat CPU  0 instructions:   16000000 cycles:   37964039 heartbeat IPC: 0.19699 cumulative IPC: 0.20548 (Simulation time: 0 hr 0 min 22 sec) 
Heartbeat CPU  0 instructions:   17000000 cycles:   42864009 heartbeat IPC: 0.20408 cumulative IPC: 0.20528 (Simulation time: 0 hr 0 min 24 sec) 
Heartbeat CPU  0 instructions:   18000000 cycles:   47695158 heartbeat IPC: 0.20699 cumulative IPC: 0.20549 (Simulation time: 0 hr 0 min 26 sec) 
Heartbeat CPU  0 instructions:   19000000 cycles:   52584734 heartbeat IPC: 0.20452 cumulative IPC: 0.20538 (Simulation time: 0 hr 0 min 28 sec) 
Heartbeat CPU  0 instructions:   20000000 cycles:   57489096 heartbeat IPC: 0.20390 cumulative IPC: 0.20523 (Simulation time: 0 hr 0 min 30 sec) 
Heartbeat CPU  0 instructions:   21000001 cycles:   62635319 heartbeat IPC: 0.19432 cumulative IPC: 0.20419 (Simulation time: 0 hr 0 min 32 sec) 
Heartbeat CPU  0 instructions:   22000003 cycles:   67409280 heartbeat IPC: 0.20947 cumulative IPC: 0.20462 (Simulation time: 0 hr 0 min 34 sec) 
Heartbeat CPU  0 instructions:   23000000 cycles:   72295634 heartbeat IPC: 0.20465 cumulative IPC: 0.20462 (Simulation time: 0 hr 0 min 36 sec) 
Heartbeat CPU  0 instructions:   24000000 cycles:   77152216 heartbeat IPC: 0.20591 cumulative IPC: 0.20471 (Simulation time: 0 hr 0 min 38 sec) 
Heartbeat CPU  0 instructions:   25000000 cycles:   82147088 heartbeat IPC: 0.20021 cumulative IPC: 0.20441 (Simulation time: 0 hr 0 min 41 sec) 
Heartbeat CPU  0 instructions:   26000000 cycles:   87362557 heartbeat IPC: 0.19174 cumulative IPC: 0.20357 (Simulation time: 0 hr 0 min 43 sec) 
Heartbeat CPU  0 instructions:   27000003 cycles:   92505498 heartbeat IPC: 0.19444 cumulative IPC: 0.20301 (Simulation time: 0 hr 0 min 45 sec) 
Heartbeat CPU  0 instructions:   28000000 cycles:   97217688 heartbeat IPC: 0.21221 cumulative IPC: 0.20350 (Simulation time: 0 hr 0 min 47 sec) 
Heartbeat CPU  0 instructions:   29000002 cycles:   99559505 heartbeat IPC: 0.42702 cumulative IPC: 0.20926 (Simulation time: 0 hr 0 min 49 sec) 
Heartbeat CPU  0 instructions:   30000001 cycles:  101876772 heartbeat IPC: 0.43154 cumulative IPC: 0.21479 (Simulation time: 0 hr 0 min 51 sec) 
Heartbeat CPU  0 instructions:   31000000 cycles:  104194125 heartbeat IPC: 0.43153 cumulative IPC: 0.22006 (Simulation time: 0 hr 0 min 53 sec) 
Heartbeat CPU  0 instructions:   32000000 cycles:  106511284 heartbeat IPC: 0.43156 cumulative IPC: 0.22507 (Simulation time: 0 hr 0 min 55 sec) 
Heartbeat CPU  0 instructions:   33000000 cycles:  108828690 heartbeat IPC: 0.43152 cumulative IPC: 0.22985 (Simulation time: 0 hr 0 min 57 sec) 
Heartbeat CPU  0 instructions:   34000002 cycles:  111145859 heartbeat IPC: 0.43156 cumulative IPC: 0.23442 (Simulation time: 0 hr 0 min 59 sec) 
Heartbeat CPU  0 instructions:   35000001 cycles:  113463204 heartbeat IPC: 0.43153 cumulative IPC: 0.23878 (Simulation time: 0 hr 1 min 2 sec) 
Heartbeat CPU  0 instructions:   36000000 cycles:  115780366 heartbeat IPC: 0.43156 cumulative IPC: 0.24295 (Simulation time: 0 hr 1 min 4 sec) 
Heartbeat CPU  0 instructions:   37000003 cycles:  118097775 heartbeat IPC: 0.43152 cumulative IPC: 0.24695 (Simulation time: 0 hr 1 min 6 sec) 
Heartbeat CPU  0 instructions:   38000002 cycles:  120414943 heartbeat IPC: 0.43156 cumulative IPC: 0.25078 (Simulation time: 0 hr 1 min 8 sec) 
Heartbeat CPU  0 instructions:   39000001 cycles:  122732288 heartbeat IPC: 0.43153 cumulative IPC: 0.25446 (Simulation time: 0 hr 1 min 10 sec) 
Heartbeat CPU  0 instructions:   40000000 cycles:  125049450 heartbeat IPC: 0.43156 cumulative IPC: 0.25799 (Simulation time: 0 hr 1 min 12 sec) 
Heartbeat CPU  0 instructions:   41000001 cycles:  127366858 heartbeat IPC: 0.43152 cumulative IPC: 0.26138 (Simulation time: 0 hr 1 min 14 sec) 
Heartbeat CPU  0 instructions:   42000000 cycles:  129684026 heartbeat IPC: 0.43156 cumulative IPC: 0.26464 (Simulation time: 0 hr 1 min 16 sec) 
Heartbeat CPU  0 instructions:   43000002 cycles:  132001372 heartbeat IPC: 0.43153 cumulative IPC: 0.26778 (Simulation time: 0 hr 1 min 18 sec) 
Heartbeat CPU  0 instructions:   44000000 cycles:  134317939 heartbeat IPC: 0.43167 cumulative IPC: 0.27080 (Simulation time: 0 hr 1 min 20 sec) 
Heartbeat CPU  0 instructions:   45000000 cycles:  135656524 heartbeat IPC: 0.74706 cumulative IPC: 0.27582 (Simulation time: 0 hr 1 min 22 sec) 
Heartbeat CPU  0 instructions:   46000003 cycles:  136811810 heartbeat IPC: 0.86559 cumulative IPC: 0.28115 (Simulation time: 0 hr 1 min 24 sec) 
Heartbeat CPU  0 instructions:   47000002 cycles:  138715117 heartbeat IPC: 0.52540 cumulative IPC: 0.28472 (Simulation time: 0 hr 1 min 25 sec) 
Heartbeat CPU  0 instructions:   48000000 cycles:  143789300 heartbeat IPC: 0.19708 cumulative IPC: 0.28143 (Simulation time: 0 hr 1 min 27 sec) 
Heartbeat CPU  0 instructions:   49000000 cycles:  148960860 heartbeat IPC: 0.19337 cumulative IPC: 0.27818 (Simulation time: 0 hr 1 min 29 sec) 
Heartbeat CPU  0 instructions:   50000003 cycles:  154214191 heartbeat IPC: 0.19036 cumulative IPC: 0.27501 (Simulation time: 0 hr 1 min 31 sec) 
Heartbeat CPU  0 instructions:   51000000 cycles:  159405594 heartbeat IPC: 0.19263 cumulative IPC: 0.27217 (Simulation time: 0 hr 1 min 34 sec) 
Heartbeat CPU  0 instructions:   52000000 cycles:  164319540 heartbeat IPC: 0.20350 cumulative IPC: 0.27000 (Simulation time: 0 hr 1 min 36 sec) 
Heartbeat CPU  0 instructions:   53000003 cycles:  169156099 heartbeat IPC: 0.20676 cumulative IPC: 0.26809 (Simulation time: 0 hr 1 min 38 sec) 
Heartbeat CPU  0 instructions:   54000003 cycles:  174077961 heartbeat IPC: 0.20318 cumulative IPC: 0.26616 (Simulation time: 0 hr 1 min 40 sec) 
Heartbeat CPU  0 instructions:   55000000 cycles:  179163389 heartbeat IPC: 0.19664 cumulative IPC: 0.26409 (Simulation time: 0 hr 1 min 42 sec) 
Heartbeat CPU  0 instructions:   56000000 cycles:  184176583 heartbeat IPC: 0.19947 cumulative IPC: 0.26224 (Simulation time: 0 hr 1 min 44 sec) 
Heartbeat CPU  0 instructions:   57000001 cycles:  189061136 heartbeat IPC: 0.20473 cumulative IPC: 0.26068 (Simulation time: 0 hr 1 min 46 sec) 
Heartbeat CPU  0 instructions:   58000000 cycles:  194045400 heartbeat IPC: 0.20063 cumulative IPC: 0.25907 (Simulation time: 0 hr 1 min 48 sec) 
Heartbeat CPU  0 instructions:   59000000 cycles:  199074227 heartbeat IPC: 0.19885 cumulative IPC: 0.25747 (Simulation time: 0 hr 1 min 50 sec) 
Heartbeat CPU  0 instructions:   60000000 cycles:  204051707 heartbeat IPC: 0.20090 cumulative IPC: 0.25603 (Simulation time: 0 hr 1 min 52 sec) 
Finished CPU 0 instructions: 50000001 cycles: 195287560 cumulative IPC: 0.25603 (Simulation time: 0 hr 1 min 52 sec) 

ChampSim completed all CPUs

[ROI Statistics]
Core_0_instructions 50000001
Core_0_cycles 195287560
Core_0_IPC 0.25603

Core_0_branch_prediction_accuracy 93.16947
Core_0_branch_MPKI 16.91424
Core_0_average_ROB_occupancy_at_mispredict 19.65014

Core_0_L1D_total_access 3404382
Core_0_L1D_total_hit 1856694
Core_0_L1D_total_miss 1547688
Core_0_L1D_loads 2389512
Core_0_L1D_load_hit 841835
Core_0_L1D_load_miss 1547677
Core_0_L1D_RFOs 1014870
Core_0_L1D_RFO_hit 1014859
Core_0_L1D_RFO_miss 11
Core_0_L1D_prefetches 0
Core_0_L1D_prefetch_hit 0
Core_0_L1D_prefetch_miss 0
Core_0_L1D_writebacks 0
Core_0_L1D_writeback_hit 0
Core_0_L1D_writeback_miss 0
Core_0_L1D_prefetch_requested 0
Core_0_L1D_prefetch_dropped 0
Core_0_L1D_prefetch_issued 0
Core_0_L1D_prefetch_filled 0
Core_0_L1D_prefetch_useful 0
Core_0_L1D_prefetch_useless 0
Core_0_L1D_prefetch_late 0
Core_0_L1D_average_miss_latency 215.04736

Core_0_L1D_rq_access 6190699
Core_0_L1D_rq_forward 0
Core_0_L1D_rq_merged 2122624
Core_0_L1D_rq_to_cache 4068075
Core_0_L1D_rq_full 0

Core_0_L1D_wq_access 1014896
Core_0_L1D_wq_forward 0
Core_0_L1D_wq_merged 0
Core_0_L1D_wq_to_cache 1014896
Core_0_L1D_wq_full 0

Core_0_L1D_pq_access 0
Core_0_L1D_pq_forward 0
Core_0_L1D_pq_merged 0
Core_0_L1D_pq_to_cache 0
Core_0_L1D_pq_full 0

Core_0_L1D_acc_epochs 196930
Core_0_L1D_acc_level_0 196930
Core_0_L1D_acc_level_1 0
Core_0_L1D_acc_level_2 0
Core_0_L1D_acc_level_3 0
Core_0_L1D_acc_level_4 0
Core_0_L1D_acc_level_5 0
Core_0_L1D_acc_level_6 0
Core_0_L1D_acc_level_7 0
Core_0_L1D_acc_level_8 0
Core_0_L1D_acc_level_9 0

Core_0_L1I_total_access 15858986
Core_0_L1I_total_hit 15858970
Core_0_L1I_total_miss 16
Core_0_L1I_loads 15858986
Core_0_L1I_load_hit 15858970
Core_0_L1I_load_miss 16
Core_0_L1I_RFOs 0
Core_0_L1I_RFO_hit 0
Core_0_L1I_RFO_miss 0
Core_0_L1I_prefetches 0
Core_0_L1I_prefetch_hit 0
Core_0_L1I_prefetch_miss 0
Core_0_L1I_writebacks 0
Core_0_L1I_writeback_hit 0
Core_0_L1I_writeback_miss 0
Core_0_L1I_prefetch_requested 0
Core_0_L1I_prefetch_dropped 0
Core_0_L1I_prefetch_issued 0
Core_0_L1I_prefetch_filled 0
Core_0_L1I_prefetch_useful 0
Core_0_L1I_prefetch_useless 0
Core_0_L1I_prefetch_late 0
Core_0_L1I_average_miss_latency 296.93750

Core_0_L1I_rq_access 50000247
Core_0_L1I_rq_forward 0
Core_0_L1I_rq_merged 34141223
Core_0_L1I_rq_to_cache 15859024
Core_0_L1I_rq_full 0

Core_0_L1I_wq_access 0
Core_0_L1I_wq_forward 0
Core_0_L1I_wq_merged 0
Core_0_L1I_wq_to_cache 0
Core_0_L1I_wq_full 0

Core_0_L1I_pq_access 0
Core_0_L1I_pq_forward 0
Core_0_L1I_pq_merged 0
Core_0_L1I_pq_to_cache 0
Core_0_L1I_pq_full 0

Core_0_L1I_acc_epochs 196930
Core_0_L1I_acc_level_0 196930
Core_0_L1I_acc_level_1 0
Core_0_L1I_acc_level_2 0
Core_0_L1I_acc_level_3 0
Core_0_L1I_acc_level_4 0
Core_0_L1I_acc_level_5 0
Core_0_L1I_acc_level_6 0
Core_0_L1I_acc_level_7 0
Core_0_L1I_acc_level_8 0
Core_0_L1I_acc_level_9 0

Core_0_L2C_total_access 2038706
Core_0_L2C_total_hit 491002
Core_0_L2C_total_miss 1547704
Core_0_L2C_loads 1547693
Core_0_L2C_load_hit 0
Core_0_L2C_load_miss 1547693
Core_0_L2C_RFOs 11
Core_0_L2C_RFO_hit 0
Core_0_L2C_RFO_miss 11
Core_0_L2C_prefetches 0
Core_0_L2C_prefetch_hit 0
Core_0_L2C_prefetch_miss 0
Core_0_L2C_writebacks 491002
Core_0_L2C_writeback_hit 491002
Core_0_L2C_writeback_miss 0
Core_0_L2C_prefetch_requested 0
Core_0_L2C_prefetch_dropped 0
Core_0_L2C_prefetch_issued 0
Core_0_L2C_prefetch_filled 0
Core_0_L2C_prefetch_useful 0
Core_0_L2C_prefetch_useless 0
Core_0_L2C_prefetch_late 0
Core_0_L2C_average_miss_latency 200.99592

Core_0_L2C_rq_access 1547704
Core_0_L2C_rq_forward 0
Core_0_L2C_rq_merged 0
Core_0_L2C_rq_to_cache 1547704
Core_0_L2C_rq_full 0

Core_0_L2C_wq_access 491002
Core_0_L2C_wq_forward 0
Core_0_L2C_wq_merged 0
Core_0_L2C_wq_to_cache 491002
Core_0_L2C_wq_full 0

Core_0_L2C_pq_access 0
Core_0_L2C_pq_forward 0
Core_0_L2C_pq_merged 0
Core_0_L2C_pq_to_cache 0
Core_0_L2C_pq_full 0

Core_0_L2C_acc_epochs 196930
Core_0_L2C_acc_level_0 196930
Core_0_L2C_acc_level_1 0
Core_0_L2C_acc_level_2 0
Core_0_L2C_acc_level_3 0
Core_0_L2C_acc_level_4 0
Core_0_L2C_acc_level_5 0
Core_0_L2C_acc_level_6 0
Core_0_L2C_acc_level_7 0
Core_0_L2C_acc_level_8 0
Core_0_L2C_acc_level_9 0

Core_0_LLC_total_access 2038638
Core_0_LLC_total_hit 44892
Core_0_LLC_total_miss 1993746
Core_0_LLC_loads 1547693
Core_0_LLC_load_hit 30713
Core_0_LLC_load_miss 1516980
Core_0_LLC_RFOs 11
Core_0_LLC_RFO_hit 3
Core_0_LLC_RFO_miss 8
Core_0_LLC_prefetches 0
Core_0_LLC_prefetch_hit 0
Core_0_LLC_prefetch_miss 0
Core_0_LLC_writebacks 490934
Core_0_LLC_writeback_hit 14176
Core_0_LLC_writeback_miss 476758
Core_0_LLC_prefetch_requested 0
Core_0_LLC_prefetch_dropped 0
Core_0_LLC_prefetch_issued 0
Core_0_LLC_prefetch_filled 0
Core_0_LLC_prefetch_useful 0
Core_0_LLC_prefetch_useless 0
Core_0_LLC_prefetch_late 0
Core_0_LLC_average_miss_latency 132.68413

Core_0_LLC_rq_access 1547704
Core_0_LLC_rq_forward 0
Core_0_LLC_rq_merged 0
Core_0_LLC_rq_to_cache 1547704
Core_0_LLC_rq_full 0

Core_0_LLC_wq_access 490934
Core_0_LLC_wq_forward 0
Core_0_LLC_wq_merged 0
Core_0_LLC_wq_to_cache 490934
Core_0_LLC_wq_full 0

Core_0_LLC_pq_access 0
Core_0_LLC_pq_forward 0
Core_0_LLC_pq_merged 0
Core_0_LLC_pq_to_cache 0
Core_0_LLC_pq_full 0

Core_0_LLC_acc_epochs 199270
Core_0_LLC_acc_level_0 199270
Core_0_LLC_acc_level_1 0
Core_0_LLC_acc_level_2 0
Core_0_LLC_acc_level_3 0
Core_0_LLC_acc_level_4 0
Core_0_LLC_acc_level_5 0
Core_0_LLC_acc_level_6 0
Core_0_LLC_acc_level_7 0
Core_0_LLC_acc_level_8 0
Core_0_LLC_acc_level_9 0

Core_0_major_page_fault 0
Core_0_minor_page_fault 8201

Channel_0_RQ_row_buffer_hit 456710
Channel_0_RQ_row_buffer_miss 1060278
Channel_0_WQ_row_buffer_hit 266488
Channel_0_WQ_row_buffer_miss 223980
Channel_0_WQ_full 0
Channel_0_dbus_congested 842588

avg_congested_cycle 10

DRAM_bw_pochs 797078
DRAM_bw_level_0 540284
DRAM_bw_level_1 250099
DRAM_bw_level_2 6670
DRAM_bw_level_3 25
