*************************************************
   ChampSim Multicore Out-of-Order Simulator
   Last compiled: Apr  3 2025 20:54:34
*************************************************
parsing config file: /home/zir/Pythia/config/pythia.ini

trace_0 /home/zir/ChampSim/ML-DPC/ChampSimTraces/spec17/605.mcf-s7.trace.xz
adding L2C_PREFETCHER: Scooby
Initialize SHIP state
warmup_instructions 10000000
simulation_instructions 50000000
champsim_seed 170
measure_ipc 0
measure_ipc_epoch 1000
measure_dram_bw 1
measure_dram_bw_epoch 256
measure_cache_acc 1
measure_cache_acc_epoch 1024
l1d_perfect 0
l2c_perfect 0
llc_perfect 0
l1d_semi_perfect 0
l2c_semi_perfect 0
llc_semi_perfect 0
semi_perfect_cache_page_buffer_size 64

num_cpus 1
cpu_freq 4000
dram_io_freq 2400
page_size 4096
block_size 64
max_read_per_cycle 8
max_fill_per_cycle 1
dram_channels 1
log2_dram_channels 0
dram_ranks 1
dram_banks 8
dram_rows 65536
dram_columns 128
dram_row_size 8
dram_size 4096
dram_pages 1048576

fetch_width 6
decode_width 6
exec_width 4
lq_width 2
sq_width 2
retire_width 4
scheduler_size 128
branch_mispredict_penalty 20
rob_size 256
lq_size 72
sq_size 56
num_instr_destinations_sparc 4
num_instr_destinations 2
num_instr_sources 4

itlb_set 16
itlb_way 8
itlb_rq_size 16
itlb_wq_size 16
itlb_pq_size 0
itlb_mshr_size 8
itlb_latency 1

dtlb_set 16
dtlb_way 4
dtlb_rq_size 16
dtlb_wq_size 16
dtlb_pq_size 0
dtlb_mshr_size 8
dtlb_latency 1

stlb_set 128
stlb_way 12
stlb_rq_size 32
stlb_wq_size 32
stlb_pq_size 0
stlb_mshr_size 16
stlb_latency 8

l1i_size 32
l1i_set 64
l1i_way 8
l1i_rq_size 64
l1i_wq_size 64
l1i_pq_size 8
l1i_mshr_size 8
l1i_latency 1

l1d_size 32
l1d_set 64
l1d_way 8
l1d_rq_size 64
l1d_wq_size 64
l1d_pq_size 8
l1d_mshr_size 16
l1d_latency 4

l2c_size 256
l2c_set 512
l2c_way 8
l2c_rq_size 32
l2c_wq_size 32
l2c_pq_size 32
l2c_mshr_size 32
l2c_latency 10

llc_size 2048
llc_set 2048
llc_way 16
llc_rq_size 32
llc_wq_size 32
llc_pq_size 32
llc_mshr_size 64
llc_latency 20

dram_channel_width 8
dram_wq_size 64
dram_rq_size 64
tRP 15
tRCD 15
tCAS 12.5
dram_dbus_turn_around_time 30
dram_write_high_wm 56
dram_write_low_wm 48
min_dram_writes_per_switch 16
dram_mtps 2400
dram_dbus_return_time 13

scooby_alpha 0.0065088
scooby_gamma 0.556301
scooby_epsilon 0.00182284
scooby_state_num_bits 10
scooby_max_states 1024
scooby_seed 200
scooby_policy EGreedy
scooby_learning_type SARSA
scooby_actions 1,3,4,5,10,11,12,22,23,30,32,-1,-3,-6,0,
scooby_max_actions 15
scooby_pt_size 256
scooby_st_size 64
scooby_max_pcs 5
scooby_max_offsets 5
scooby_max_deltas 5
scooby_reward_none -4
scooby_reward_incorrect -8
scooby_reward_correct_untimely 12
scooby_reward_correct_timely 20
scooby_brain_zero_init 0
scooby_enable_reward_all 0
scooby_enable_track_multiple 0
scooby_enable_reward_out_of_bounds 1
scooby_reward_out_of_bounds -12
scooby_state_type 1
scooby_state_hash_type 11
scooby_access_debug 0
scooby_print_access_debug 0
scooby_print_access_debug_pc deadbeef
scooby_print_access_debug_pc_count 0
scooby_print_trace 0
scooby_enable_state_action_stats 1
scooby_enable_reward_tracker_hit 0
scooby_reward_tracker_hit -2
scooby_enable_featurewise_engine 1
scooby_pref_degree 1
scooby_enable_dyn_degree 1
scooby_max_to_avg_q_thresholds 0.5,1,2,
scooby_dyn_degrees 1,2,4,4,
scooby_multi_deg_select_type 2
scooby_last_pref_offset_conf_thresholds 1,3,8,
scooby_dyn_degrees_type2 1,2,4,6,
scooby_action_tracker_size 2
scooby_high_bw_thresh 4
scooby_enable_hbw_reward 1
scooby_reward_hbw_correct_timely 20
scooby_reward_hbw_correct_untimely 12
scooby_reward_hbw_incorrect -14
scooby_reward_hbw_none -2
scooby_reward_hbw_out_of_bounds -12
scooby_reward_hbw_tracker_hit -2
scooby_last_pref_offset_conf_thresholds_hbw 1,3,8,
scooby_dyn_degrees_type2_hbw 1,2,4,6,

le_enable_trace 0
le_trace_interval 0
le_trace_file_name 
le_trace_state 0
le_enable_score_plot 0
le_plot_file_name 
le_plot_actions 
le_enable_action_trace 0
le_action_trace_interval 0
le_action_trace_name 
le_enable_action_plot 0

le_featurewise_active_features PC, PC_Delta
le_featurewise_num_tilings 3,3,
le_featurewise_num_tiles 128,128,
le_featurewise_hash_types 2,2,
le_featurewise_enable_tiling_offset 1,1,
le_featurewise_max_q_thresh 0.5
le_featurewise_enable_action_fallback 1
le_featurewise_feature_weights 1,1,
le_featurewise_enable_dynamic_weight 0
le_featurewise_weight_gradient 0.001
le_featurewise_disable_adjust_weight_all_features_align 1
le_featurewise_selective_update 0
le_featurewise_pooling_type 2
le_featurewise_enable_dyn_action_fallback 1
le_featurewise_bw_acc_check_level 1
le_featurewise_acc_thresh 2
le_featurewise_enable_trace 0
le_featurewise_trace_feature_type 0
le_featurewise_trace_feature 
le_featurewise_trace_interval 0
le_featurewise_trace_record_count 0
le_featurewise_trace_file_name 
le_featurewise_enable_score_plot 0
le_featurewise_plot_actions 
le_featurewise_plot_file_name 


Heartbeat CPU  0 instructions:    1000001 cycles:     829837 heartbeat IPC: 1.20506 cumulative IPC: 1.20506 (Simulation time: 0 hr 0 min 3 sec) 
Heartbeat CPU  0 instructions:    2000000 cycles:    1654908 heartbeat IPC: 1.21202 cumulative IPC: 1.20853 (Simulation time: 0 hr 0 min 6 sec) 
Heartbeat CPU  0 instructions:    3000002 cycles:    2475000 heartbeat IPC: 1.21938 cumulative IPC: 1.21212 (Simulation time: 0 hr 0 min 9 sec) 
Heartbeat CPU  0 instructions:    4000000 cycles:    3392647 heartbeat IPC: 1.08974 cumulative IPC: 1.17902 (Simulation time: 0 hr 0 min 11 sec) 
Heartbeat CPU  0 instructions:    5000000 cycles:    4244157 heartbeat IPC: 1.17438 cumulative IPC: 1.17809 (Simulation time: 0 hr 0 min 14 sec) 
Heartbeat CPU  0 instructions:    6000000 cycles:    5073337 heartbeat IPC: 1.20601 cumulative IPC: 1.18265 (Simulation time: 0 hr 0 min 17 sec) 
Heartbeat CPU  0 instructions:    7000000 cycles:    5887349 heartbeat IPC: 1.22848 cumulative IPC: 1.18899 (Simulation time: 0 hr 0 min 20 sec) 
Heartbeat CPU  0 instructions:    8000000 cycles:    6698684 heartbeat IPC: 1.23254 cumulative IPC: 1.19426 (Simulation time: 0 hr 0 min 22 sec) 
Heartbeat CPU  0 instructions:    9000000 cycles:    7515492 heartbeat IPC: 1.22428 cumulative IPC: 1.19753 (Simulation time: 0 hr 0 min 25 sec) 
Heartbeat CPU  0 instructions:   10000001 cycles:    8327165 heartbeat IPC: 1.23202 cumulative IPC: 1.20089 (Simulation time: 0 hr 0 min 28 sec) 

Warmup complete CPU  0 instructions:   10000001 cycles:    8327165 (Simulation time: 0 hr 0 min 28 sec) 

Heartbeat CPU  0 instructions:   11000000 cycles:   13256234 heartbeat IPC: 0.20288 cumulative IPC: 0.20288 (Simulation time: 0 hr 0 min 32 sec) 
Heartbeat CPU  0 instructions:   12000000 cycles:   18188699 heartbeat IPC: 0.20274 cumulative IPC: 0.20281 (Simulation time: 0 hr 0 min 36 sec) 
Heartbeat CPU  0 instructions:   13000002 cycles:   23222962 heartbeat IPC: 0.19864 cumulative IPC: 0.20140 (Simulation time: 0 hr 0 min 40 sec) 
Heartbeat CPU  0 instructions:   14000001 cycles:   28130917 heartbeat IPC: 0.20375 cumulative IPC: 0.20198 (Simulation time: 0 hr 0 min 44 sec) 
Heartbeat CPU  0 instructions:   15000000 cycles:   33035917 heartbeat IPC: 0.20387 cumulative IPC: 0.20236 (Simulation time: 0 hr 0 min 48 sec) 
Heartbeat CPU  0 instructions:   16000000 cycles:   37847371 heartbeat IPC: 0.20784 cumulative IPC: 0.20325 (Simulation time: 0 hr 0 min 52 sec) 
Heartbeat CPU  0 instructions:   17000000 cycles:   42814718 heartbeat IPC: 0.20131 cumulative IPC: 0.20297 (Simulation time: 0 hr 0 min 56 sec) 
Heartbeat CPU  0 instructions:   18000001 cycles:   47829512 heartbeat IPC: 0.19941 cumulative IPC: 0.20252 (Simulation time: 0 hr 1 min 0 sec) 
Heartbeat CPU  0 instructions:   19000000 cycles:   52816428 heartbeat IPC: 0.20052 cumulative IPC: 0.20230 (Simulation time: 0 hr 1 min 4 sec) 
Heartbeat CPU  0 instructions:   20000000 cycles:   58032025 heartbeat IPC: 0.19173 cumulative IPC: 0.20119 (Simulation time: 0 hr 1 min 8 sec) 
Heartbeat CPU  0 instructions:   21000001 cycles:   63362911 heartbeat IPC: 0.18759 cumulative IPC: 0.19987 (Simulation time: 0 hr 1 min 12 sec) 
Heartbeat CPU  0 instructions:   22000000 cycles:   69828987 heartbeat IPC: 0.15465 cumulative IPC: 0.19512 (Simulation time: 0 hr 1 min 17 sec) 
Heartbeat CPU  0 instructions:   23000001 cycles:   75292997 heartbeat IPC: 0.18302 cumulative IPC: 0.19413 (Simulation time: 0 hr 1 min 21 sec) 
Heartbeat CPU  0 instructions:   24000000 cycles:   80550518 heartbeat IPC: 0.19020 cumulative IPC: 0.19384 (Simulation time: 0 hr 1 min 25 sec) 
Heartbeat CPU  0 instructions:   25000001 cycles:   85708594 heartbeat IPC: 0.19387 cumulative IPC: 0.19384 (Simulation time: 0 hr 1 min 29 sec) 
Heartbeat CPU  0 instructions:   26000002 cycles:   90976555 heartbeat IPC: 0.18983 cumulative IPC: 0.19359 (Simulation time: 0 hr 1 min 33 sec) 
Heartbeat CPU  0 instructions:   27000001 cycles:   96282817 heartbeat IPC: 0.18846 cumulative IPC: 0.19328 (Simulation time: 0 hr 1 min 37 sec) 
Heartbeat CPU  0 instructions:   28000000 cycles:  101628324 heartbeat IPC: 0.18707 cumulative IPC: 0.19292 (Simulation time: 0 hr 1 min 41 sec) 
Heartbeat CPU  0 instructions:   29000001 cycles:  107046075 heartbeat IPC: 0.18458 cumulative IPC: 0.19247 (Simulation time: 0 hr 1 min 46 sec) 
Heartbeat CPU  0 instructions:   30000000 cycles:  112797766 heartbeat IPC: 0.17386 cumulative IPC: 0.19144 (Simulation time: 0 hr 1 min 50 sec) 
Heartbeat CPU  0 instructions:   31000000 cycles:  118320153 heartbeat IPC: 0.18108 cumulative IPC: 0.19092 (Simulation time: 0 hr 1 min 54 sec) 
Heartbeat CPU  0 instructions:   32000000 cycles:  123300912 heartbeat IPC: 0.20077 cumulative IPC: 0.19135 (Simulation time: 0 hr 1 min 58 sec) 
Heartbeat CPU  0 instructions:   33000000 cycles:  129174836 heartbeat IPC: 0.17024 cumulative IPC: 0.19032 (Simulation time: 0 hr 2 min 2 sec) 
Heartbeat CPU  0 instructions:   34000003 cycles:  134144816 heartbeat IPC: 0.20121 cumulative IPC: 0.19075 (Simulation time: 0 hr 2 min 6 sec) 
Heartbeat CPU  0 instructions:   35000001 cycles:  139714713 heartbeat IPC: 0.17954 cumulative IPC: 0.19028 (Simulation time: 0 hr 2 min 11 sec) 
Heartbeat CPU  0 instructions:   36000000 cycles:  145485214 heartbeat IPC: 0.17330 cumulative IPC: 0.18956 (Simulation time: 0 hr 2 min 15 sec) 
Heartbeat CPU  0 instructions:   37000000 cycles:  150819419 heartbeat IPC: 0.18747 cumulative IPC: 0.18948 (Simulation time: 0 hr 2 min 19 sec) 
Heartbeat CPU  0 instructions:   38000003 cycles:  156033109 heartbeat IPC: 0.19180 cumulative IPC: 0.18957 (Simulation time: 0 hr 2 min 23 sec) 
Heartbeat CPU  0 instructions:   39000003 cycles:  161491282 heartbeat IPC: 0.18321 cumulative IPC: 0.18934 (Simulation time: 0 hr 2 min 28 sec) 
Heartbeat CPU  0 instructions:   40000000 cycles:  166713071 heartbeat IPC: 0.19150 cumulative IPC: 0.18941 (Simulation time: 0 hr 2 min 32 sec) 
Heartbeat CPU  0 instructions:   41000000 cycles:  172070629 heartbeat IPC: 0.18665 cumulative IPC: 0.18932 (Simulation time: 0 hr 2 min 36 sec) 
Heartbeat CPU  0 instructions:   42000000 cycles:  180359408 heartbeat IPC: 0.12065 cumulative IPC: 0.18601 (Simulation time: 0 hr 2 min 41 sec) 
Heartbeat CPU  0 instructions:   43000000 cycles:  186088871 heartbeat IPC: 0.17454 cumulative IPC: 0.18564 (Simulation time: 0 hr 2 min 45 sec) 
Heartbeat CPU  0 instructions:   44000000 cycles:  191419878 heartbeat IPC: 0.18758 cumulative IPC: 0.18570 (Simulation time: 0 hr 2 min 49 sec) 
Heartbeat CPU  0 instructions:   45000002 cycles:  196867495 heartbeat IPC: 0.18357 cumulative IPC: 0.18564 (Simulation time: 0 hr 2 min 53 sec) 
Heartbeat CPU  0 instructions:   46000002 cycles:  202392616 heartbeat IPC: 0.18099 cumulative IPC: 0.18550 (Simulation time: 0 hr 2 min 57 sec) 
Heartbeat CPU  0 instructions:   47000000 cycles:  207839402 heartbeat IPC: 0.18359 cumulative IPC: 0.18545 (Simulation time: 0 hr 3 min 2 sec) 
Heartbeat CPU  0 instructions:   48000000 cycles:  213237210 heartbeat IPC: 0.18526 cumulative IPC: 0.18545 (Simulation time: 0 hr 3 min 6 sec) 
Heartbeat CPU  0 instructions:   49000002 cycles:  219026425 heartbeat IPC: 0.17274 cumulative IPC: 0.18510 (Simulation time: 0 hr 3 min 10 sec) 
Heartbeat CPU  0 instructions:   50000000 cycles:  224375186 heartbeat IPC: 0.18696 cumulative IPC: 0.18514 (Simulation time: 0 hr 3 min 14 sec) 
Heartbeat CPU  0 instructions:   51000001 cycles:  229626115 heartbeat IPC: 0.19044 cumulative IPC: 0.18527 (Simulation time: 0 hr 3 min 19 sec) 
Heartbeat CPU  0 instructions:   52000000 cycles:  234709997 heartbeat IPC: 0.19670 cumulative IPC: 0.18553 (Simulation time: 0 hr 3 min 22 sec) 
Heartbeat CPU  0 instructions:   53000000 cycles:  239964143 heartbeat IPC: 0.19033 cumulative IPC: 0.18564 (Simulation time: 0 hr 3 min 26 sec) 
Heartbeat CPU  0 instructions:   54000002 cycles:  245424138 heartbeat IPC: 0.18315 cumulative IPC: 0.18558 (Simulation time: 0 hr 3 min 31 sec) 
Heartbeat CPU  0 instructions:   55000000 cycles:  250983289 heartbeat IPC: 0.17988 cumulative IPC: 0.18545 (Simulation time: 0 hr 3 min 35 sec) 
Heartbeat CPU  0 instructions:   56000000 cycles:  256816446 heartbeat IPC: 0.17143 cumulative IPC: 0.18512 (Simulation time: 0 hr 3 min 39 sec) 
Heartbeat CPU  0 instructions:   57000000 cycles:  262345240 heartbeat IPC: 0.18087 cumulative IPC: 0.18503 (Simulation time: 0 hr 3 min 43 sec) 
Heartbeat CPU  0 instructions:   58000001 cycles:  267579180 heartbeat IPC: 0.19106 cumulative IPC: 0.18515 (Simulation time: 0 hr 3 min 47 sec) 
Heartbeat CPU  0 instructions:   59000000 cycles:  272841708 heartbeat IPC: 0.19002 cumulative IPC: 0.18525 (Simulation time: 0 hr 3 min 51 sec) 
Heartbeat CPU  0 instructions:   60000000 cycles:  278071907 heartbeat IPC: 0.19120 cumulative IPC: 0.18536 (Simulation time: 0 hr 3 min 55 sec) 
Finished CPU 0 instructions: 50000001 cycles: 269744750 cumulative IPC: 0.18536 (Simulation time: 0 hr 3 min 55 sec) 

ChampSim completed all CPUs

[ROI Statistics]
Core_0_instructions 50000001
Core_0_cycles 269744750
Core_0_IPC 0.18536

Core_0_branch_prediction_accuracy 96.78395
Core_0_branch_MPKI 9.50096
Core_0_average_ROB_occupancy_at_mispredict 74.15416

Core_0_L1D_total_access 11468925
Core_0_L1D_total_hit 3825674
Core_0_L1D_total_miss 7643251
Core_0_L1D_loads 10520927
Core_0_L1D_load_hit 2895122
Core_0_L1D_load_miss 7625805
Core_0_L1D_RFOs 947998
Core_0_L1D_RFO_hit 930552
Core_0_L1D_RFO_miss 17446
Core_0_L1D_prefetches 0
Core_0_L1D_prefetch_hit 0
Core_0_L1D_prefetch_miss 0
Core_0_L1D_writebacks 0
Core_0_L1D_writeback_hit 0
Core_0_L1D_writeback_miss 0
Core_0_L1D_prefetch_requested 0
Core_0_L1D_prefetch_dropped 0
Core_0_L1D_prefetch_issued 0
Core_0_L1D_prefetch_filled 0
Core_0_L1D_prefetch_useful 0
Core_0_L1D_prefetch_useless 0
Core_0_L1D_prefetch_late 0
Core_0_L1D_average_miss_latency 70.98413

Core_0_L1D_rq_access 17861997
Core_0_L1D_rq_forward 0
Core_0_L1D_rq_merged 7066402
Core_0_L1D_rq_to_cache 10791131
Core_0_L1D_rq_full 0

Core_0_L1D_wq_access 1026019
Core_0_L1D_wq_forward 4464
Core_0_L1D_wq_merged 31064
Core_0_L1D_wq_to_cache 994955
Core_0_L1D_wq_full 0

Core_0_L1D_pq_access 0
Core_0_L1D_pq_forward 0
Core_0_L1D_pq_merged 0
Core_0_L1D_pq_to_cache 0
Core_0_L1D_pq_full 0

Core_0_L1D_acc_epochs 266069
Core_0_L1D_acc_level_0 266069
Core_0_L1D_acc_level_1 0
Core_0_L1D_acc_level_2 0
Core_0_L1D_acc_level_3 0
Core_0_L1D_acc_level_4 0
Core_0_L1D_acc_level_5 0
Core_0_L1D_acc_level_6 0
Core_0_L1D_acc_level_7 0
Core_0_L1D_acc_level_8 0
Core_0_L1D_acc_level_9 0

Core_0_L1I_total_access 9133399
Core_0_L1I_total_hit 9133399
Core_0_L1I_total_miss 0
Core_0_L1I_loads 9133399
Core_0_L1I_load_hit 9133399
Core_0_L1I_load_miss 0
Core_0_L1I_RFOs 0
Core_0_L1I_RFO_hit 0
Core_0_L1I_RFO_miss 0
Core_0_L1I_prefetches 0
Core_0_L1I_prefetch_hit 0
Core_0_L1I_prefetch_miss 0
Core_0_L1I_writebacks 0
Core_0_L1I_writeback_hit 0
Core_0_L1I_writeback_miss 0
Core_0_L1I_prefetch_requested 0
Core_0_L1I_prefetch_dropped 0
Core_0_L1I_prefetch_issued 0
Core_0_L1I_prefetch_filled 0
Core_0_L1I_prefetch_useful 0
Core_0_L1I_prefetch_useless 0
Core_0_L1I_prefetch_late 0
Core_0_L1I_average_miss_latency -nan

Core_0_L1I_rq_access 50000178
Core_0_L1I_rq_forward 0
Core_0_L1I_rq_merged 40866779
Core_0_L1I_rq_to_cache 9133399
Core_0_L1I_rq_full 0

Core_0_L1I_wq_access 0
Core_0_L1I_wq_forward 0
Core_0_L1I_wq_merged 0
Core_0_L1I_wq_to_cache 0
Core_0_L1I_wq_full 0

Core_0_L1I_pq_access 0
Core_0_L1I_pq_forward 0
Core_0_L1I_pq_merged 0
Core_0_L1I_pq_to_cache 0
Core_0_L1I_pq_full 0

Core_0_L1I_acc_epochs 266069
Core_0_L1I_acc_level_0 266069
Core_0_L1I_acc_level_1 0
Core_0_L1I_acc_level_2 0
Core_0_L1I_acc_level_3 0
Core_0_L1I_acc_level_4 0
Core_0_L1I_acc_level_5 0
Core_0_L1I_acc_level_6 0
Core_0_L1I_acc_level_7 0
Core_0_L1I_acc_level_8 0
Core_0_L1I_acc_level_9 0

Core_0_L2C_total_access 16220009
Core_0_L2C_total_hit 4996938
Core_0_L2C_total_miss 11223071
Core_0_L2C_loads 7625784
Core_0_L2C_load_hit 2296734
Core_0_L2C_load_miss 5329050
Core_0_L2C_RFOs 17446
Core_0_L2C_RFO_hit 647
Core_0_L2C_RFO_miss 16799
Core_0_L2C_prefetches 8424601
Core_0_L2C_prefetch_hit 2547551
Core_0_L2C_prefetch_miss 5877050
Core_0_L2C_writebacks 152178
Core_0_L2C_writeback_hit 152006
Core_0_L2C_writeback_miss 172
Core_0_L2C_prefetch_requested 16566902
Core_0_L2C_prefetch_dropped 12526
Core_0_L2C_prefetch_issued 16554376
Core_0_L2C_prefetch_filled 7161378
Core_0_L2C_prefetch_useful 2482837
Core_0_L2C_prefetch_useless 4677157
Core_0_L2C_prefetch_late 355218
Core_0_L2C_average_miss_latency 92.23065

Core_0_L2C_rq_access 7643251
Core_0_L2C_rq_forward 0
Core_0_L2C_rq_merged 0
Core_0_L2C_rq_to_cache 7643230
Core_0_L2C_rq_full 0

Core_0_L2C_wq_access 152178
Core_0_L2C_wq_forward 21
Core_0_L2C_wq_merged 0
Core_0_L2C_wq_to_cache 152178
Core_0_L2C_wq_full 0

Core_0_L2C_pq_access 16554376
Core_0_L2C_pq_forward 0
Core_0_L2C_pq_merged 4501324
Core_0_L2C_pq_to_cache 12053052
Core_0_L2C_pq_full 0

Core_0_L2C_acc_epochs 266069
Core_0_L2C_acc_level_0 12275
Core_0_L2C_acc_level_1 7442
Core_0_L2C_acc_level_2 47933
Core_0_L2C_acc_level_3 111225
Core_0_L2C_acc_level_4 55644
Core_0_L2C_acc_level_5 19207
Core_0_L2C_acc_level_6 6421
Core_0_L2C_acc_level_7 2553
Core_0_L2C_acc_level_8 1153
Core_0_L2C_acc_level_9 2216

Core_0_LLC_total_access 11369097
Core_0_LLC_total_hit 7316362
Core_0_LLC_total_miss 4052735
Core_0_LLC_loads 4994194
Core_0_LLC_load_hit 3779970
Core_0_LLC_load_miss 1214224
Core_0_LLC_RFOs 16798
Core_0_LLC_RFO_hit 15222
Core_0_LLC_RFO_miss 1576
Core_0_LLC_prefetches 6211906
Core_0_LLC_prefetch_hit 3376531
Core_0_LLC_prefetch_miss 2835375
Core_0_LLC_writebacks 146199
Core_0_LLC_writeback_hit 144639
Core_0_LLC_writeback_miss 1560
Core_0_LLC_prefetch_requested 0
Core_0_LLC_prefetch_dropped 0
Core_0_LLC_prefetch_issued 0
Core_0_LLC_prefetch_filled 3459126
Core_0_LLC_prefetch_useful 64921
Core_0_LLC_prefetch_useless 3382014
Core_0_LLC_prefetch_late 0
Core_0_LLC_average_miss_latency 176.75855

Core_0_LLC_rq_access 5010993
Core_0_LLC_rq_forward 0
Core_0_LLC_rq_merged 0
Core_0_LLC_rq_to_cache 5010992
Core_0_LLC_rq_full 0

Core_0_LLC_wq_access 146199
Core_0_LLC_wq_forward 1
Core_0_LLC_wq_merged 0
Core_0_LLC_wq_to_cache 146199
Core_0_LLC_wq_full 0

Core_0_LLC_pq_access 7516597
Core_0_LLC_pq_forward 0
Core_0_LLC_pq_merged 0
Core_0_LLC_pq_to_cache 7516597
Core_0_LLC_pq_full 0

Core_0_LLC_acc_epochs 271555
Core_0_LLC_acc_level_0 258361
Core_0_LLC_acc_level_1 7259
Core_0_LLC_acc_level_2 2221
Core_0_LLC_acc_level_3 826
Core_0_LLC_acc_level_4 414
Core_0_LLC_acc_level_5 881
Core_0_LLC_acc_level_6 266
Core_0_LLC_acc_level_7 205
Core_0_LLC_acc_level_8 160
Core_0_LLC_acc_level_9 962

Core_0_major_page_fault 0
Core_0_minor_page_fault 52264

scooby_st_lookup 9070599
scooby_st_hit 4140170
scooby_st_evict 4930365
scooby_st_insert 4930429
scooby_st_streaming 0

scooby_predict_called 9070599
scooby_predict_out_of_bounds 236533
scooby_predict_action_1 7273989
scooby_predict_issue_action_1 6884499
scooby_predict_hit_action_1 389490
scooby_predict_out_of_bounds_action_1 113955
scooby_predict_action_3 361526
scooby_predict_issue_action_3 355221
scooby_predict_hit_action_3 6305
scooby_predict_out_of_bounds_action_3 17782
scooby_predict_action_4 17769
scooby_predict_issue_action_4 16265
scooby_predict_hit_action_4 1504
scooby_predict_out_of_bounds_action_4 1370
scooby_predict_action_5 56965
scooby_predict_issue_action_5 56165
scooby_predict_hit_action_5 800
scooby_predict_out_of_bounds_action_5 5490
scooby_predict_action_10 18852
scooby_predict_issue_action_10 18475
scooby_predict_hit_action_10 377
scooby_predict_out_of_bounds_action_10 3509
scooby_predict_action_11 360149
scooby_predict_issue_action_11 359423
scooby_predict_hit_action_11 726
scooby_predict_out_of_bounds_action_11 73958
scooby_predict_action_12 9585
scooby_predict_issue_action_12 9063
scooby_predict_hit_action_12 522
scooby_predict_out_of_bounds_action_12 2236
scooby_predict_action_22 6902
scooby_predict_issue_action_22 6638
scooby_predict_hit_action_22 264
scooby_predict_out_of_bounds_action_22 3336
scooby_predict_action_23 6786
scooby_predict_issue_action_23 6574
scooby_predict_hit_action_23 212
scooby_predict_out_of_bounds_action_23 3687
scooby_predict_action_30 5117
scooby_predict_issue_action_30 5023
scooby_predict_hit_action_30 94
scooby_predict_out_of_bounds_action_30 4250
scooby_predict_action_32 4961
scooby_predict_issue_action_32 4622
scooby_predict_hit_action_32 339
scooby_predict_out_of_bounds_action_32 4330
scooby_predict_action_-1 61092
scooby_predict_issue_action_-1 58976
scooby_predict_hit_action_-1 2116
scooby_predict_out_of_bounds_action_-1 1007
scooby_predict_action_-3 11483
scooby_predict_issue_action_-3 10522
scooby_predict_hit_action_-3 961
scooby_predict_out_of_bounds_action_-3 641
scooby_predict_action_-6 10397
scooby_predict_issue_action_-6 9501
scooby_predict_hit_action_-6 896
scooby_predict_out_of_bounds_action_-6 982
scooby_predict_action_0 628493
scooby_predict_issue_action_0 0
scooby_predict_hit_action_0 0
scooby_predict_out_of_bounds_action_0 0
scooby_predict_multi_deg_called 2323120
scooby_predict_predicted 16566902
scooby_predict_multi_deg 8765935
scooby_predict_multi_deg_2 2247838
scooby_predict_multi_deg_3 1879179
scooby_predict_multi_deg_4 1817087
scooby_predict_multi_deg_5 1427854
scooby_predict_multi_deg_6 1393977
scooby_predict_multi_deg_7 0
scooby_predict_multi_deg_8 0
scooby_predict_multi_deg_9 0
scooby_predict_multi_deg_10 0
scooby_predict_multi_deg_11 0
scooby_predict_multi_deg_12 0
scooby_predict_multi_deg_13 0
scooby_predict_multi_deg_14 0
scooby_predict_multi_deg_15 0
scooby_predict_multi_deg_16 0

scooby_selected_deg_1 5477847
scooby_selected_deg_2 332328
scooby_selected_deg_3 0
scooby_selected_deg_4 415998
scooby_selected_deg_5 0
scooby_selected_deg_6 1574794
scooby_selected_deg_7 0
scooby_selected_deg_8 0
scooby_selected_deg_9 0
scooby_selected_deg_10 0
scooby_selected_deg_11 0
scooby_selected_deg_12 0
scooby_selected_deg_13 0
scooby_selected_deg_14 0
scooby_selected_deg_15 0
scooby_selected_deg_16 0

scooby_state_4049e5|20|0 39588,21,24,247,36,9,14,6,8,13,6,5,17,7,5209,45210,
scooby_state_4049cc|0|0 29456,8,5,5,102,15112,5,5,5,7,5,1,6,5,5,44732,
scooby_state_4049e5|11|0 38004,11,23,430,39,8,8,3,8,6,3,5,7,12,5551,44118,
scooby_state_4049e5|22|0 37633,14,16,308,38,10,6,9,8,9,4,9,10,6,5153,43233,
scooby_state_4049e5|50|0 37178,11,21,229,35,6,8,9,6,8,11,3,10,10,5161,42706,
scooby_state_4049e5|42|0 37300,13,24,263,29,6,8,4,8,6,10,5,6,6,4961,42649,
scooby_state_4049de|16|0 37205,7,3,6,8,8,12,7,6,7,7,11,8,11,5331,42637,
scooby_state_4049e5|39|0 36936,18,13,257,44,9,5,6,8,8,7,3,9,7,5007,42337,
scooby_state_4049de|14|0 36508,5,6,6,6,13,10,4,9,6,4,12,8,8,5232,41837,
scooby_state_4049e5|4|0 36184,11,22,353,36,12,6,5,8,6,7,5,9,8,5053,41725,
scooby_state_4049e5|16|0 36224,12,20,487,46,8,8,5,9,5,7,5,8,5,4649,41498,
scooby_state_4049e5|52|0 36107,10,18,375,44,8,8,6,6,6,5,5,3,5,4758,41364,
scooby_state_4049e5|2|0 35773,17,17,257,25,6,4,2,6,8,6,5,8,5,4692,40831,
scooby_state_4049de|50|0 35355,8,3,9,6,5,11,6,8,10,7,10,9,10,4938,40395,
scooby_state_4049e5|35|0 34978,11,25,404,39,11,5,7,5,4,5,9,7,7,4563,40080,
scooby_state_4049de|17|0 34873,8,6,5,4,8,6,9,10,9,6,8,11,6,5050,40019,
scooby_state_4049e5|38|0 34757,16,24,248,36,7,4,7,8,8,5,8,5,8,4700,39841,
scooby_state_4049de|25|0 34656,7,7,8,7,5,6,4,6,8,7,7,8,9,5037,39782,
scooby_state_4049e5|31|0 34408,10,26,411,44,5,9,6,6,4,5,7,4,8,4818,39771,
scooby_state_4049de|4|0 34756,7,6,8,12,4,9,8,6,9,4,3,6,6,4887,39731,
scooby_state_4049de|52|0 34662,4,11,5,8,5,5,7,7,11,5,7,5,11,4913,39666,
scooby_state_4049e5|0|0 34209,11,21,388,32,10,7,9,2,5,6,5,6,9,4721,39441,
scooby_state_4049de|13|0 34317,5,5,4,7,5,9,5,6,5,10,7,7,4,5016,39412,
scooby_state_4049de|44|0 34166,11,6,3,3,7,8,6,5,7,6,9,10,9,4980,39236,
scooby_state_4049de|40|0 34103,7,7,10,7,9,6,6,7,10,5,7,12,7,4964,39167,
scooby_state_4049de|39|0 34125,7,2,4,9,8,8,1,9,10,5,5,7,6,4920,39126,
scooby_state_4049de|7|0 34016,6,4,11,6,3,5,9,4,6,6,8,9,12,4912,39017,
scooby_state_4049e5|24|0 33874,15,11,278,29,5,9,4,10,3,7,6,7,4,4684,38946,
scooby_state_4049de|24|0 33792,7,4,2,5,4,5,8,8,6,8,9,11,9,5027,38905,
scooby_state_4049e5|49|0 33675,14,17,354,34,13,6,4,7,7,7,8,4,4,4638,38792,
scooby_state_4049de|10|0 33667,4,5,5,8,4,10,13,8,7,8,7,10,10,4978,38744,
scooby_state_4049de|37|0 33631,2,5,4,8,5,11,7,4,1,3,7,4,4,4836,38532,
scooby_state_4049e5|54|0 33260,11,21,237,28,9,4,8,4,3,7,8,5,7,4813,38425,
scooby_state_4049e5|17|0 33231,13,26,382,28,7,7,5,3,4,7,3,2,7,4646,38371,
scooby_state_4049de|48|0 33300,6,2,7,2,13,12,7,8,5,9,9,8,6,4881,38275,
scooby_state_4049e5|33|0 33011,11,14,284,39,10,7,6,8,5,9,8,8,5,4841,38266,
scooby_state_4049de|0|0 33370,7,2,2,4,2,9,5,8,5,6,7,10,5,4824,38266,
scooby_state_4049de|5|0 33280,12,6,12,8,6,9,4,5,8,6,6,5,8,4826,38201,
scooby_state_4049de|58|0 33303,6,6,6,6,1,6,2,4,8,7,5,3,10,4782,38155,
scooby_state_4049e5|43|0 33428,13,14,241,39,7,5,5,3,10,4,8,4,3,4355,38139,
scooby_state_4049de|26|0 33354,9,10,11,5,6,8,7,11,4,5,6,8,5,4622,38071,
scooby_state_4049de|36|0 33266,3,3,3,4,8,6,10,10,6,8,6,10,6,4719,38068,
scooby_state_4049de|41|0 33198,8,5,4,5,9,10,6,6,5,8,6,5,3,4779,38057,
scooby_state_4049e5|15|0 33298,9,18,321,33,6,7,8,7,4,4,5,4,6,4327,38057,
scooby_state_4049de|11|0 33322,7,4,9,6,6,2,6,7,5,7,7,2,7,4625,38022,
scooby_state_4049e5|58|0 33041,8,16,194,20,11,3,10,4,10,6,10,5,1,4670,38009,
scooby_state_4049de|43|0 33106,9,9,5,3,8,7,5,15,6,5,9,2,6,4741,37936,
scooby_state_4049e5|34|0 32762,11,23,350,53,3,7,6,5,7,8,2,7,4,4647,37895,
scooby_state_4049e5|12|0 32916,11,22,406,32,7,8,4,3,7,6,7,9,5,4448,37891,
scooby_state_4049de|42|0 33089,10,7,9,3,7,6,11,6,10,11,5,6,8,4631,37819,
scooby_state_4049de|15|0 33043,5,8,8,3,9,3,1,11,6,8,9,3,8,4681,37806,
scooby_state_4049de|20|0 32988,9,7,3,8,3,5,4,12,5,4,3,3,4,4699,37757,
scooby_state_4049de|22|0 32845,4,7,6,12,9,7,9,8,6,4,7,8,6,4695,37633,
scooby_state_4049de|28|0 32902,8,7,9,3,7,7,10,2,6,5,9,7,12,4402,37396,
scooby_state_4049de|33|0 32526,6,2,4,11,7,9,4,4,4,7,7,5,9,4690,37295,
scooby_state_4049de|45|0 32384,8,7,4,8,4,4,4,9,4,7,6,5,8,4594,37056,
scooby_state_4049e5|18|0 32304,14,31,416,30,10,3,4,4,2,5,10,1,9,4204,37047,
scooby_state_4049e5|36|0 32588,17,22,208,38,10,13,6,6,6,5,3,4,6,4103,37035,
scooby_state_4049e5|21|0 32118,8,18,229,39,8,8,7,11,5,3,4,9,7,4559,37033,
scooby_state_4049de|62|0 32189,3,11,14,4,4,6,9,9,1,7,5,6,7,4693,36968,
scooby_state_4049de|63|0 32134,7,7,3,7,9,2,3,7,7,4,5,7,6,4714,36922,
scooby_state_4049de|54|0 31985,8,2,6,6,4,6,8,7,6,2,5,7,10,4710,36772,
scooby_state_4049de|55|0 32033,7,10,5,7,10,9,14,10,6,3,8,5,7,4597,36731,
scooby_state_4049de|38|0 31914,7,8,6,9,7,3,6,6,3,5,7,4,9,4711,36705,
scooby_state_4049cc|1|1 29030,6,3,6,87,7385,4,5,4,4,9,5,6,5,9,36568,
scooby_state_4049e5|6|0 31450,16,16,334,27,6,6,4,4,6,3,4,10,5,4615,36506,
scooby_state_4049de|60|0 31775,11,3,6,9,5,9,10,8,8,3,5,8,6,4626,36492,
scooby_state_4049e5|13|0 32170,11,17,201,34,7,5,5,5,6,1,6,7,6,3957,36438,
scooby_state_4049e5|8|0 32042,13,19,263,43,9,4,6,4,5,2,6,4,6,4003,36429,
scooby_state_4049e5|62|0 31881,12,23,295,31,7,6,6,5,9,6,8,6,6,4112,36413,
scooby_state_4049e5|9|0 31677,12,16,301,26,4,8,11,3,3,1,6,8,7,4328,36411,
scooby_state_4049de|3|0 31765,8,3,6,12,5,9,5,6,4,7,9,8,7,4489,36343,
scooby_state_4049de|57|0 31602,7,6,6,8,8,6,8,8,7,6,4,10,2,4544,36232,
scooby_state_4049de|8|0 31511,6,3,7,4,12,8,9,10,6,3,10,8,8,4556,36161,
scooby_state_4049e5|7|0 31317,13,27,337,40,10,10,7,3,8,7,5,11,7,4319,36121,
scooby_state_4049e5|25|0 31515,10,15,283,32,2,7,3,10,5,8,9,6,6,4150,36061,
scooby_state_4049de|12|0 31473,8,4,6,3,11,13,6,4,5,4,5,7,5,4505,36059,
scooby_state_4049e5|47|0 31190,7,27,305,36,7,8,5,6,10,4,9,4,3,4434,36055,
scooby_state_4049de|9|0 31322,11,10,5,9,2,7,10,1,4,8,11,5,9,4513,35927,
scooby_state_4049e5|26|0 31189,17,13,174,26,12,8,5,9,5,10,12,4,3,4418,35905,
scooby_state_4049e5|63|0 31061,9,16,267,32,7,4,5,8,7,4,3,4,3,4407,35837,
scooby_state_4049de|1|0 31226,7,9,4,9,4,8,4,3,4,9,2,4,5,4442,35740,
scooby_state_4049de|53|0 31081,3,9,3,9,5,6,5,8,5,4,3,8,5,4502,35656,
scooby_state_4049de|31|0 30932,7,6,7,9,6,10,8,5,4,4,15,9,10,4601,35633,
scooby_state_4049de|35|0 31133,4,6,8,2,5,4,5,5,7,3,6,8,7,4409,35612,
scooby_state_4049de|30|0 30958,4,8,10,7,4,12,9,9,7,6,7,6,2,4554,35603,
scooby_state_4049de|32|0 31071,7,1,9,6,2,2,8,6,6,6,11,7,7,4423,35572,
scooby_state_4049de|29|0 30969,7,8,4,4,8,10,3,7,8,8,6,9,9,4509,35569,
scooby_state_4049de|47|0 31042,2,8,6,3,7,7,5,11,6,10,9,4,8,4417,35545,
scooby_state_4049e5|14|0 31016,9,19,186,27,16,4,6,3,5,5,3,4,4,4231,35538,
scooby_state_4049de|59|0 30847,5,3,11,6,11,10,8,2,4,5,9,7,5,4516,35449,
scooby_state_4049de|27|0 30979,7,6,3,8,7,5,5,6,4,7,5,7,11,4368,35428,
scooby_state_4049de|51|0 30865,6,4,5,1,11,6,3,5,8,2,2,9,7,4438,35372,
scooby_state_4049de|34|0 30737,5,4,4,8,6,7,4,9,8,7,4,5,2,4530,35340,
scooby_state_4049de|2|0 30898,6,8,4,7,4,9,5,2,9,4,10,3,11,4312,35292,
scooby_state_4049de|19|0 30609,8,4,5,2,7,6,9,5,7,6,7,5,4,4381,35065,
scooby_state_4049e5|44|0 30679,20,14,283,28,7,5,8,5,3,6,5,4,6,3987,35060,
scooby_state_4049de|6|0 30582,2,5,6,6,9,5,8,5,8,5,3,7,5,4393,35049,
scooby_state_4049e5|1|0 30077,12,26,208,28,9,5,5,5,2,5,8,8,6,4485,34889,
scooby_state_4049e5|5|0 30191,5,9,194,31,6,4,5,5,3,3,6,3,2,4414,34881,
scooby_state_4049e5|28|0 30353,12,17,211,26,6,8,5,4,4,5,4,5,10,4165,34835,
scooby_state_4049de|21|0 30458,6,9,5,5,6,4,4,7,8,12,6,5,6,4292,34833,
scooby_state_4049de|56|0 30263,4,7,2,5,7,4,6,7,5,4,2,10,6,4360,34692,
scooby_state_4049e5|41|0 30091,11,13,285,25,9,6,7,6,4,9,11,2,11,4058,34548,
scooby_state_4049e5|3|0 30154,13,20,271,26,3,4,4,5,2,9,4,4,6,3997,34522,
scooby_state_4049de|49|0 30043,9,7,5,4,6,9,8,4,4,6,5,8,9,4319,34446,
scooby_state_4049de|18|0 29796,9,3,4,6,5,8,2,6,5,10,12,4,7,4322,34199,
scooby_state_4049e5|10|0 29707,13,17,201,38,7,6,6,3,5,7,6,5,3,4123,34147,
scooby_state_4049e5|59|0 29123,15,15,224,30,6,5,6,3,2,3,5,8,10,4689,34144,
scooby_state_4049de|61|0 29726,10,8,9,5,10,6,5,6,3,6,8,5,6,4291,34104,
scooby_state_4049de|46|0 29809,7,5,3,2,1,11,5,5,11,11,8,5,9,4194,34086,
scooby_state_4049e5|32|0 29512,12,15,319,32,6,4,4,8,4,7,6,4,2,4093,34028,
scooby_state_4049e5|60|0 29489,13,11,144,30,5,7,6,4,8,5,3,7,5,4063,33800,
scooby_state_4049e5|40|0 29348,7,8,183,30,6,4,10,6,7,8,8,8,2,4099,33734,
scooby_state_4049e5|46|0 29350,10,17,255,28,5,7,5,7,1,6,6,5,3,3998,33703,
scooby_state_4049e5|53|0 29323,5,21,307,34,3,5,3,7,5,6,6,5,5,3855,33590,
scooby_state_4049cc|28|1 26868,5,1,3,88,6555,1,7,7,6,4,3,6,4,2,33560,
scooby_state_4049cc|21|1 26489,3,3,4,83,6934,7,4,1,4,6,7,2,7,5,33559,
scooby_state_4049cc|47|1 27526,5,5,5,78,5904,7,6,5,4,5,0,2,5,2,33559,
scooby_state_4049cc|20|1 26279,4,4,6,85,7142,2,4,2,6,6,4,4,3,7,33558,
scooby_state_4049cc|62|1 26686,3,5,2,80,6738,2,7,3,8,3,8,4,4,4,33557,
scooby_state_4049cc|19|1 26025,5,3,9,87,7392,6,3,5,0,6,2,6,5,3,33557,
scooby_state_4049cc|55|1 26938,4,6,4,76,6491,5,5,2,5,3,3,3,9,2,33556,
scooby_state_4049cc|22|1 26592,3,0,5,79,6835,5,4,3,3,3,4,7,7,6,33556,
scooby_state_4049cc|39|1 28315,2,5,6,62,5133,1,7,4,4,3,5,3,5,1,33556,
scooby_state_4049cc|50|1 28293,3,4,9,72,5143,5,4,4,3,2,3,1,3,7,33556,
scooby_state_4049cc|29|1 27202,2,4,4,82,6229,5,2,6,2,3,5,5,4,1,33556,
scooby_state_4049cc|42|1 28922,3,4,4,60,4531,5,4,1,1,4,5,5,3,3,33555,
scooby_state_4049cc|51|1 28091,6,4,5,67,5332,7,6,12,7,4,2,4,1,7,33555,
scooby_state_4049cc|27|1 26551,4,5,2,87,6883,2,1,5,1,3,3,3,3,2,33555,
scooby_state_4049cc|24|1 26250,2,5,1,86,7177,3,3,6,3,6,2,3,3,5,33555,
scooby_state_4049cc|49|1 28017,3,6,6,76,5407,3,7,3,10,5,2,3,4,3,33555,
scooby_state_4049cc|43|1 28523,5,5,6,61,4920,5,4,4,3,4,1,6,4,3,33554,
scooby_state_4049cc|60|1 27445,2,3,6,74,5991,4,5,3,1,3,3,5,7,2,33554,
scooby_state_4049cc|30|1 27583,5,6,7,75,5850,4,3,1,2,1,6,4,6,1,33554,
scooby_state_4049cc|63|1 26413,3,8,4,84,7003,4,2,4,3,4,6,2,8,6,33554,
scooby_state_4049cc|48|1 27738,2,3,4,75,5683,5,5,5,9,3,4,5,6,6,33553,
scooby_state_4049cc|12|1 26626,3,4,8,85,6784,1,7,2,6,2,6,6,5,8,33553,
scooby_state_4049cc|58|1 27402,5,3,4,76,6029,6,6,2,3,2,3,5,1,6,33553,
scooby_state_4049cc|38|1 28151,5,8,2,61,5295,1,7,4,2,5,1,7,2,2,33553,
scooby_state_4049cc|11|1 26430,4,6,13,83,6980,5,7,6,3,1,0,4,6,5,33553,
scooby_state_4049cc|33|1 28524,7,1,3,71,4919,1,0,1,3,4,4,3,8,4,33553,
scooby_state_4049cc|18|1 25930,3,3,5,90,7473,5,5,4,4,5,5,7,8,5,33552,
scooby_state_4049cc|15|1 26251,7,5,3,86,7171,6,4,3,0,3,0,3,6,4,33552,
scooby_state_4049cc|17|1 25888,6,4,2,87,7540,0,3,2,1,3,1,6,3,6,33552,
scooby_state_4049cc|44|1 28127,5,5,4,66,5296,4,7,2,8,3,5,8,4,7,33551,
scooby_state_4049cc|23|1 26455,7,4,2,82,6960,5,1,3,4,3,5,10,6,4,33551,
scooby_state_4049cc|13|1 26752,4,6,3,82,6676,3,5,3,2,3,5,1,3,3,33551,
scooby_state_4049cc|10|1 26191,3,1,4,90,7227,1,5,6,3,4,3,5,6,2,33551,
scooby_state_4049cc|36|1 28296,5,3,6,60,5139,5,4,9,3,2,2,4,5,7,33550,
scooby_state_4049cc|16|1 26006,4,8,1,88,7414,2,1,4,5,3,3,3,4,4,33550,
scooby_state_4049cc|56|1 26870,3,5,5,82,6539,5,3,5,2,5,5,5,9,7,33550,
scooby_state_4049cc|6|1 26473,5,3,3,87,6936,7,6,5,6,4,4,5,3,3,33550,
scooby_state_4049cc|54|1 27047,2,3,3,77,6386,4,2,9,5,1,3,2,3,3,33550,
scooby_state_4049cc|14|1 26569,2,4,3,87,6841,3,3,3,7,5,9,4,7,3,33550,
scooby_state_4049cc|25|1 26164,2,4,3,89,7248,3,3,5,3,3,4,3,10,6,33550,
scooby_state_4049cc|59|1 27564,5,4,6,76,5858,4,2,4,7,2,4,5,6,3,33550,
scooby_state_4049cc|37|1 28234,3,4,2,60,5204,7,10,2,6,3,3,5,3,3,33549,
scooby_state_4049cc|26|1 26251,3,5,2,87,7164,3,3,3,6,1,6,5,3,7,33549,
scooby_state_4049cc|31|1 28033,4,1,2,74,5396,2,5,5,8,5,1,4,2,7,33549,
scooby_state_4049cc|32|1 28382,4,4,4,71,5044,3,8,6,2,4,5,2,7,3,33549,
scooby_state_4049cc|9|1 26085,7,2,3,88,7331,8,4,0,5,5,0,6,1,4,33549,
scooby_state_4049cc|61|1 27051,5,2,1,87,6372,4,3,7,2,2,3,3,2,5,33549,
scooby_state_4049cc|45|1 27790,5,6,8,70,5633,4,6,2,3,1,9,7,3,2,33549,
scooby_state_4049cc|8|1 26018,4,3,5,83,7406,7,4,4,2,5,1,3,3,1,33549,
scooby_state_4049cc|34|1 28490,4,6,1,64,4945,7,3,5,4,6,3,6,1,4,33549,
scooby_state_4049cc|40|1 28656,5,5,6,54,4788,3,4,5,4,4,4,3,5,3,33549,
scooby_state_4049cc|57|1 27133,4,3,4,77,6296,3,1,6,2,4,6,2,3,4,33548,
scooby_state_4049cc|46|1 27615,5,6,4,73,5805,5,3,7,6,2,7,2,3,5,33548,
scooby_state_4049cc|35|1 28371,1,4,3,56,5074,2,7,4,3,6,6,3,3,4,33547,
scooby_state_4049cc|41|1 28984,5,4,6,55,4460,2,4,4,5,3,6,2,5,2,33547,
scooby_state_4049cc|52|1 27707,3,2,3,72,5721,3,2,6,4,5,6,2,4,3,33543,
scooby_state_4049cc|7|1 26160,4,4,2,83,7243,2,3,6,9,4,4,6,6,7,33543,
scooby_state_4049cc|53|1 27314,3,3,5,75,6099,9,4,4,4,5,1,3,6,6,33541,
scooby_state_4049e5|61|0 29150,10,11,401,34,9,9,5,3,3,5,6,3,7,3877,33533,
scooby_state_4049de|23|0 29184,3,3,4,8,7,5,7,5,9,5,0,10,5,4219,33474,
scooby_state_4049cc|5|1 26720,3,7,3,83,6568,3,6,3,4,6,6,6,5,5,33428,
scooby_state_4049e5|19|0 28841,13,19,246,40,3,6,7,1,8,0,2,6,2,3989,33183,
scooby_state_4049e5|27|0 28649,15,18,227,27,9,9,4,1,2,4,5,5,7,4195,33177,
scooby_state_4049e5|57|0 28923,11,19,282,22,10,9,4,9,6,6,5,6,7,3743,33062,
scooby_state_4049cc|4|1 26297,4,7,5,76,6296,1,1,1,3,5,6,0,4,5,32711,
scooby_state_4049e5|23|0 28473,11,21,378,22,4,3,5,4,2,3,3,8,6,3659,32602,
scooby_state_4049e5|45|0 28007,13,12,380,27,8,7,6,9,5,6,7,5,5,4103,32600,
scooby_state_4049cc|2|1 25878,4,4,4,83,6530,3,2,3,0,3,5,2,2,2,32525,
scooby_state_4049e5|51|0 28374,11,13,339,27,10,3,4,5,7,11,6,5,10,3694,32519,
scooby_state_4049cc|3|1 25511,4,6,2,72,6185,4,5,1,2,4,2,3,6,5,31812,
scooby_state_4049e5|30|0 27478,15,11,269,24,3,5,6,5,4,5,5,5,7,3870,31712,
scooby_state_4049e5|48|0 27351,12,13,202,21,6,5,4,7,4,6,2,5,1,3791,31430,
scooby_state_4049e5|56|0 27255,12,17,293,22,7,4,5,8,1,5,10,2,4,3555,31200,
scooby_state_4049e5|29|0 26211,11,24,281,25,8,9,8,7,4,4,6,4,2,3245,29849,
scooby_state_4049e5|55|0 25846,11,9,343,29,4,5,4,5,9,4,6,6,4,3511,29796,
scooby_state_4049e5|37|0 24963,10,8,171,15,4,7,3,4,6,1,8,7,6,3246,28459,
scooby_state_4049cc|3|2 11900,1,1,3,2,34,0,0,1,3,2,2,1,0,0,11950,
scooby_state_4049cc|2|2 11507,1,2,0,1,21,2,5,2,1,1,1,1,0,0,11545,
scooby_state_4049cc|4|2 11364,1,0,1,1,67,2,1,1,0,1,2,1,1,2,11445,
scooby_state_4049cc|53|2 11145,1,0,0,5,9,4,0,5,3,0,1,3,2,1,11179,
scooby_state_4049cc|52|2 11134,2,0,1,3,23,2,1,2,1,2,3,1,0,1,11176,
scooby_state_4049cc|46|2 11154,5,0,1,2,5,1,0,3,0,1,1,0,1,1,11175,
scooby_state_4049cc|7|2 11139,0,0,1,1,20,3,1,3,0,1,0,3,3,0,11175,
scooby_state_4049cc|35|2 11155,0,2,1,3,5,3,0,1,0,1,0,0,3,1,11175,
scooby_state_4049cc|45|2 11151,2,1,1,1,3,2,2,0,2,0,2,2,2,3,11174,
scooby_state_4049cc|41|2 11151,2,0,1,3,6,1,1,2,1,0,1,1,1,3,11174,
scooby_state_4049cc|61|2 11112,3,3,1,0,45,1,2,2,1,0,1,1,0,1,11173,
scooby_state_4049cc|32|2 11135,1,2,1,3,17,4,2,0,0,1,6,0,0,1,11173,
scooby_state_4049cc|10|2 11151,0,1,0,0,11,0,1,0,0,4,1,0,2,2,11173,
scooby_state_4049cc|54|2 11147,0,2,0,1,4,0,0,2,2,2,1,4,2,5,11172,
scooby_state_4049cc|9|2 11144,2,2,1,1,10,1,1,1,3,1,1,4,0,0,11172,
scooby_state_4049cc|25|2 11126,0,1,2,0,32,1,2,2,1,2,0,3,0,0,11172,
scooby_state_4049cc|57|2 11142,0,2,1,2,9,0,2,2,2,1,1,2,4,2,11172,
scooby_state_4049cc|40|2 11162,0,0,0,0,3,0,1,1,1,2,1,1,0,0,11172,
scooby_state_4049cc|56|2 11140,1,1,2,2,7,4,2,3,3,3,1,1,0,2,11172,
scooby_state_4049cc|31|2 11137,3,0,1,4,19,1,1,1,2,0,0,1,1,1,11172,
scooby_state_4049cc|26|2 11134,3,4,0,1,12,1,0,0,4,2,6,2,1,1,11171,
scooby_state_4049cc|8|2 11146,2,0,2,3,9,0,2,2,1,0,1,0,2,1,11171,
scooby_state_4049cc|6|2 11087,0,3,0,2,64,1,2,0,2,1,1,3,2,3,11171,
scooby_state_4049cc|17|2 11142,1,2,3,0,16,2,1,1,0,0,1,0,0,2,11171,
scooby_state_4049cc|37|2 11144,0,0,4,1,8,0,1,1,3,3,1,0,5,0,11171,
scooby_state_4049cc|36|2 11145,1,0,2,3,6,0,2,1,2,1,1,3,4,0,11171,
scooby_state_4049cc|58|2 11128,0,0,1,2,21,2,2,1,2,2,0,2,5,2,11170,
scooby_state_4049cc|16|2 11128,1,0,0,2,25,0,0,1,4,1,0,1,5,2,11170,
scooby_state_4049cc|12|2 11104,0,2,1,1,53,4,1,0,0,1,1,0,1,1,11170,
scooby_state_4049cc|59|2 11112,1,4,1,0,37,0,2,0,2,4,2,0,3,2,11170,
scooby_state_4049cc|44|2 11142,4,0,2,0,4,5,1,0,4,0,4,2,0,2,11170,
scooby_state_4049cc|34|2 11137,3,3,0,3,10,1,2,1,1,2,1,3,2,1,11170,
scooby_state_4049cc|48|2 11144,0,1,5,0,8,3,1,2,2,0,2,0,1,1,11170,
scooby_state_4049cc|14|2 10979,0,2,2,3,171,2,5,1,1,0,3,0,0,1,11170,
scooby_state_4049cc|23|2 10983,0,0,2,1,173,1,1,2,1,0,1,2,1,2,11170,
scooby_state_4049cc|43|2 11145,2,0,2,0,14,0,0,2,0,0,2,1,0,1,11169,
scooby_state_4049cc|18|2 11143,1,0,1,1,12,3,2,0,2,1,0,0,2,1,11169,
scooby_state_4049cc|24|2 11053,0,2,0,2,103,2,0,1,1,0,1,0,2,2,11169,
scooby_state_4049cc|55|2 11147,2,1,0,0,7,2,1,0,2,0,1,1,3,2,11169,
scooby_state_4049cc|63|2 11141,0,2,1,1,8,0,0,2,1,4,1,2,1,4,11168,
scooby_state_4049cc|15|2 11060,1,1,2,2,91,2,2,0,1,1,2,1,1,1,11168,
scooby_state_4049cc|42|2 11131,1,1,2,3,17,3,0,2,2,0,4,0,1,1,11168,
scooby_state_4049cc|13|2 11020,1,4,1,2,130,1,0,2,2,1,0,2,0,2,11168,
scooby_state_4049cc|60|2 11085,0,2,2,2,62,3,0,2,2,1,3,1,1,1,11167,
scooby_state_4049cc|50|2 11128,1,3,3,4,19,1,3,3,0,0,0,0,0,2,11167,
scooby_state_4049cc|27|2 11133,2,1,2,0,10,3,2,3,2,1,1,4,2,1,11167,
scooby_state_4049cc|49|2 11145,1,0,0,2,9,3,2,1,0,2,0,0,2,0,11167,
scooby_state_4049cc|30|2 11142,1,1,3,0,11,3,1,0,1,1,1,1,0,1,11167,
scooby_state_4049cc|38|2 11152,0,1,0,1,5,0,1,2,0,0,0,2,1,2,11167,
scooby_state_4049cc|11|2 11121,3,1,1,2,23,1,0,4,4,0,1,0,2,3,11166,
scooby_state_4049cc|29|2 11140,1,1,0,0,11,3,1,3,2,1,2,1,0,0,11166,
scooby_state_4049cc|21|2 11091,3,1,1,0,58,5,1,1,3,1,1,0,0,0,11166,
scooby_state_4049cc|62|2 11124,4,0,3,2,16,1,2,4,0,1,5,1,1,2,11166,
scooby_state_4049cc|39|2 11151,1,1,0,1,3,1,2,1,0,0,1,1,1,2,11166,
scooby_state_4049cc|51|2 11112,1,1,1,2,28,3,2,4,3,3,4,1,0,1,11166,
scooby_state_4049cc|33|2 11129,5,1,0,0,18,2,1,2,1,2,1,2,2,0,11166,
scooby_state_4049cc|22|2 11007,1,0,2,2,141,3,1,2,1,1,0,2,2,0,11165,
scooby_state_4049cc|19|2 11130,3,1,1,0,18,0,1,0,2,0,3,3,1,2,11165,
scooby_state_4049cc|47|2 11145,0,0,3,2,3,1,2,1,1,1,1,2,1,1,11164,
scooby_state_4049cc|20|2 11119,1,2,1,0,30,0,0,2,1,2,1,4,0,1,11164,
scooby_state_4049cc|28|2 11131,5,1,0,0,14,2,1,2,0,1,0,1,3,1,11162,
scooby_state_4049cc|5|2 11006,0,0,1,0,95,1,0,1,0,1,1,1,0,3,11110,
scooby_state_4049cc|1|0 3698,0,0,1,13,1884,0,1,0,1,0,0,0,0,1,5599,
scooby_state_4049d6|51|-1 1,5574,1,1,0,1,1,1,2,2,1,3,0,1,1,5590,
scooby_state_4049d6|50|-1 2,5576,1,0,1,3,1,0,1,0,1,0,0,0,1,5587,
scooby_state_4049d6|62|-1 1,5577,1,0,0,0,1,0,0,0,0,2,0,2,2,5586,
scooby_state_4049d6|5|-1 1,5570,1,0,1,2,0,1,3,2,1,1,1,2,0,5586,
scooby_state_4049d6|44|-1 3,5570,0,4,1,1,1,1,1,1,0,0,1,2,0,5586,
scooby_state_4049d6|33|-1 0,5576,0,1,0,2,1,0,3,1,1,0,0,0,1,5586,
scooby_state_4049d6|39|-1 1,5569,1,1,1,2,0,3,0,1,1,0,4,0,1,5585,
scooby_state_4049d6|55|-1 4,5566,2,0,0,0,0,3,1,1,1,2,2,1,1,5584,
scooby_state_4049d6|38|-1 1,5572,0,2,1,1,0,2,0,1,0,0,1,2,1,5584,
scooby_state_4049d6|54|-1 0,5570,0,0,1,2,1,3,0,1,2,1,1,1,1,5584,
scooby_state_4049d6|2|-1 0,5575,1,0,2,0,0,1,0,1,1,1,1,1,0,5584,
scooby_state_4049d6|43|-1 3,5572,0,0,0,1,3,0,2,0,1,0,1,0,1,5584,
scooby_state_4049d6|30|-1 0,5578,0,1,1,0,0,0,1,1,1,0,1,0,0,5584,
scooby_state_4049d6|8|-1 1,5578,0,1,0,0,0,1,0,0,0,0,1,0,1,5583,
scooby_state_4049d6|59|-1 1,5576,0,1,0,0,0,0,0,0,1,2,1,1,0,5583,
scooby_state_4049d6|7|-1 2,5572,1,2,0,0,0,1,1,1,0,2,1,0,0,5583,
scooby_state_4049d6|29|-1 1,5574,0,2,1,0,0,1,0,1,2,0,1,0,0,5583,
scooby_state_4049d6|34|-1 2,5569,2,0,0,4,0,0,1,0,0,0,2,2,1,5583,
scooby_state_4049d6|57|-1 0,5575,0,1,0,0,1,0,2,1,0,1,1,0,0,5582,
scooby_state_4049d6|56|-1 0,5572,0,1,2,1,0,0,1,0,0,2,2,0,1,5582,
scooby_state_4049d6|6|-1 1,5568,0,0,0,2,1,1,2,1,1,0,0,2,3,5582,
scooby_state_4049d6|46|-1 1,5574,0,0,0,2,2,1,0,1,0,0,1,0,0,5582,
scooby_state_4049d6|52|-1 1,5572,0,0,1,1,1,0,0,1,1,2,2,0,0,5582,
scooby_state_4049d6|35|-1 0,5576,0,0,1,0,1,1,1,0,1,0,0,0,1,5582,
scooby_state_4049d6|23|-1 1,5573,3,0,0,1,1,0,0,0,0,1,2,0,0,5582,
scooby_state_4049d6|10|-1 1,5572,2,1,0,1,0,1,0,2,0,0,0,1,1,5582,
scooby_state_4049d6|24|-1 0,5573,1,1,1,0,2,1,0,0,0,0,3,0,0,5582,
scooby_state_4049d6|15|-1 1,5571,0,0,0,0,2,2,1,0,1,0,0,1,2,5581,
scooby_state_4049d6|14|-1 2,5575,0,0,0,0,0,0,0,0,0,0,1,1,2,5581,
scooby_state_4049d6|4|-1 1,5573,1,0,1,0,1,0,0,2,0,1,1,0,0,5581,
scooby_state_4049d6|21|-1 1,5577,0,1,0,0,0,0,2,0,0,0,0,0,0,5581,
scooby_state_4049d6|41|-1 0,5568,0,1,2,2,0,0,2,0,2,2,0,0,1,5580,
scooby_state_4049d6|53|-1 1,5577,0,0,0,1,0,0,0,0,0,0,0,1,0,5580,
scooby_state_4049d6|42|-1 0,5565,1,2,1,0,3,0,2,1,2,0,2,1,0,5580,
scooby_state_4049d6|16|-1 1,5570,1,0,1,0,1,1,1,1,1,0,0,1,1,5580,
scooby_state_4049d6|32|-1 0,5568,0,0,1,0,1,2,2,0,0,3,0,1,2,5580,
scooby_state_4049d6|25|-1 4,5567,0,0,2,1,1,1,1,1,0,0,1,0,0,5579,
scooby_state_4049d6|11|-1 1,5567,0,4,0,0,0,1,1,0,3,1,0,1,0,5579,
scooby_state_4049d6|12|-1 0,5570,0,1,0,0,0,0,1,0,1,0,1,5,0,5579,
scooby_state_4049d6|28|-1 1,5571,1,0,0,0,1,2,1,0,0,1,1,0,0,5579,
scooby_state_4049d6|36|-1 1,5573,0,0,1,0,0,0,0,0,0,2,2,0,0,5579,
scooby_state_4049d6|13|-1 0,5563,0,1,1,2,2,1,0,4,2,0,1,1,1,5579,
scooby_state_4049d6|22|-1 0,5571,1,1,0,1,0,1,0,1,1,0,0,0,2,5579,
scooby_state_4049d6|61|-1 2,5564,0,1,0,0,1,1,2,2,1,3,0,1,0,5578,
scooby_state_4049d6|37|-1 0,5571,1,1,1,0,1,0,0,0,2,1,0,0,0,5578,
scooby_state_4049d6|9|-1 0,5574,0,1,1,1,0,0,0,0,0,0,0,0,1,5578,
scooby_state_4049d6|47|-1 0,5567,2,0,2,2,0,2,1,0,0,0,1,0,1,5578,
scooby_state_4049d6|48|-1 2,5563,1,1,1,1,1,1,0,1,1,1,1,2,1,5578,
scooby_state_4049d6|3|-1 1,5560,0,2,1,1,3,2,2,0,2,0,2,0,1,5577,
scooby_state_4049d6|20|-1 1,5574,0,0,0,0,0,0,0,0,0,0,1,0,1,5577,
scooby_state_4049d6|27|-1 0,5569,1,1,0,0,0,1,1,0,0,0,1,1,2,5577,
scooby_state_4049d6|40|-1 0,5564,2,1,0,2,1,0,0,1,0,2,1,2,1,5577,
scooby_state_4049d6|31|-1 1,5567,0,2,0,0,2,0,2,0,0,1,1,1,0,5577,
scooby_state_4049d6|60|-1 0,5567,3,0,1,0,1,1,0,1,1,0,1,0,0,5576,
scooby_state_4049d6|58|-1 0,5569,0,1,1,0,1,3,0,0,0,0,0,0,1,5576,
scooby_state_4049d6|18|-1 0,5563,0,2,2,0,0,1,1,1,1,3,0,0,2,5576,
scooby_state_4049d6|19|-1 0,5565,0,1,2,2,1,1,1,1,0,0,1,0,1,5576,
scooby_state_4049d6|17|-1 0,5571,0,0,1,0,0,0,0,1,1,0,0,1,1,5576,
scooby_state_4049d6|63|1 0,5567,0,1,0,1,2,0,0,0,1,2,1,1,0,5576,
scooby_state_4049d6|49|-1 0,5566,1,1,0,1,0,0,0,1,1,1,1,3,0,5576,
scooby_state_4049d6|45|-1 0,5561,4,1,0,0,0,0,1,1,1,0,4,1,1,5575,
scooby_state_4049d6|26|-1 1,5561,1,1,1,0,1,0,0,3,0,1,1,2,1,5574,
scooby_state_4049d6|1|-1 0,5558,1,0,0,1,1,1,1,0,0,0,0,1,1,5565,
scooby_state_4049d6|0|-1 1,5312,1,0,0,0,1,1,0,1,0,0,0,1,1,5319,
scooby_state_404a08|50|0 358,40,37,35,34,34,35,24,23,23,23,34,37,44,1583,2364,
scooby_state_404a4b|62|0 23,20,18,19,18,22,22,21,22,21,23,38,30,32,2010,2339,
scooby_state_4049e5|62|2 1555,21,6,367,10,119,2,7,2,8,7,5,7,4,16,2136,
scooby_state_4049e5|8|2 1188,20,3,294,10,86,5,7,2,4,7,7,2,3,13,1651,
scooby_state_4049e5|60|2 1061,24,5,352,17,77,2,9,6,3,7,4,5,5,12,1589,
scooby_state_4049e5|54|5 1148,26,4,9,12,5,4,5,4,0,4,5,8,4,152,1390,
scooby_state_4049e5|46|8 1045,37,6,28,33,13,12,7,12,6,2,2,17,10,39,1269,
scooby_state_4049e5|41|3 415,0,2,789,5,1,4,4,3,1,1,3,2,2,2,1234,
scooby_state_4049e5|6|2 892,20,3,195,9,58,3,4,5,5,6,6,7,2,10,1225,
scooby_state_4049e5|20|10 939,76,9,70,7,15,8,10,15,6,3,10,5,10,29,1212,
scooby_state_4049e5|32|21 814,8,14,17,21,277,7,4,5,1,1,0,3,2,14,1188,
scooby_state_4049e5|23|2 900,14,1,190,5,33,2,4,3,2,3,1,5,2,10,1175,
scooby_state_4049e5|8|5 912,14,4,3,16,6,6,2,0,4,3,9,4,5,168,1156,
scooby_state_4049cc|1|-1 855,0,0,0,2,289,0,0,0,0,1,0,0,0,0,1147,
scooby_state_404a14|6|0 459,18,23,20,22,19,20,18,22,25,20,28,24,17,370,1105,
scooby_state_4049e5|25|2 834,19,2,167,5,37,4,5,3,1,1,1,1,3,12,1095,
scooby_state_4049e5|33|3 292,0,3,765,9,4,6,2,2,0,2,4,0,1,1,1091,
scooby_state_4049e5|11|3 259,0,2,757,8,3,5,1,4,1,0,4,1,4,4,1053,
scooby_state_404a14|5|0 637,17,13,16,14,14,20,19,10,15,15,43,15,15,189,1052,
scooby_state_4049e5|28|2 709,14,4,205,12,56,3,5,2,5,5,2,4,2,6,1034,
scooby_state_4049e5|11|5 833,11,6,8,12,5,1,1,1,2,1,6,7,3,135,1032,
scooby_state_4049e5|6|3 308,1,2,674,8,4,4,2,3,1,1,2,1,5,5,1021,
scooby_state_4049e5|57|57 717,8,34,25,19,12,18,17,14,17,15,50,23,24,20,1013,
scooby_state_4049e5|4|2 745,14,4,176,2,34,1,2,3,2,1,1,2,3,6,996,
scooby_state_4049e5|63|3 244,0,2,713,13,4,6,1,0,1,1,2,0,5,3,995,
scooby_state_4049e5|50|44 762,18,4,21,13,17,7,8,5,11,5,5,14,5,89,984,
scooby_state_4049e5|56|5 725,14,5,3,8,8,7,1,0,1,2,5,5,3,192,979,
scooby_state_4049e5|50|4 707,22,105,48,2,4,7,7,7,8,1,13,10,6,25,972,
scooby_state_4049e5|47|2 616,12,2,244,10,57,3,3,3,4,2,3,1,2,8,970,
scooby_state_4049e5|17|3 282,0,0,650,6,3,2,0,3,2,0,2,5,3,7,965,
scooby_state_4049e5|54|4 694,21,124,42,4,5,10,10,3,5,3,9,8,3,21,962,
scooby_state_4049e5|24|3 242,0,3,674,10,0,6,2,2,1,2,0,2,2,6,952,
scooby_state_40483f|12|0 924,0,0,2,3,9,2,1,4,0,0,2,0,0,1,948,
scooby_state_4049e5|18|2 712,13,3,156,6,27,4,2,2,3,4,2,2,0,9,945,
scooby_state_4049e5|51|1 771,8,105,21,5,2,5,0,5,5,0,6,3,4,5,945,
scooby_state_4049e5|13|2 676,16,3,164,7,33,5,3,5,2,4,3,3,6,10,940,
scooby_state_4049e5|3|2 691,8,1,164,8,27,3,2,4,1,1,4,1,3,7,925,
scooby_state_4049e5|44|3 306,0,0,592,6,4,4,2,0,1,0,1,1,4,4,925,
scooby_state_4049e5|15|11 575,9,4,7,262,1,4,7,10,4,3,8,5,6,17,922,
scooby_state_4049e5|60|8 739,36,3,20,30,9,8,7,8,4,5,8,9,6,28,920,
scooby_state_4049e5|58|52 682,11,9,22,16,10,17,13,13,13,10,49,17,13,24,919,
scooby_state_4049e5|47|5 704,19,4,25,8,8,5,1,1,1,1,2,3,2,118,902,
scooby_state_40483f|48|0 871,2,2,2,3,5,2,0,0,1,0,0,0,0,3,891,
scooby_state_4049e5|18|15 664,62,8,10,8,9,6,6,3,4,4,30,10,8,55,887,
scooby_state_4049e5|30|5 688,12,5,18,11,10,3,1,4,3,0,7,5,4,110,881,
scooby_state_4049e5|2|2 634,7,0,181,0,37,1,1,2,2,1,1,2,5,5,879,
scooby_state_4049e5|43|5 704,11,2,2,6,3,5,2,2,2,0,1,1,3,135,879,
scooby_state_4049e5|16|5 690,8,2,9,6,9,1,3,4,4,1,9,1,7,108,862,
scooby_state_4049e5|26|18 675,11,11,11,5,7,6,6,2,4,0,2,5,7,110,862,
scooby_state_4049e5|52|13 738,3,38,4,2,1,2,3,8,3,3,2,10,2,43,862,
scooby_state_40483f|30|0 828,2,3,2,3,10,2,1,1,2,2,0,0,1,5,862,
scooby_state_4049e5|59|47 613,0,10,12,7,41,9,7,14,17,12,33,24,26,31,856,
scooby_state_4049e5|61|1 640,8,134,4,8,0,9,0,5,9,4,9,5,2,7,844,
scooby_state_4049e5|21|1 710,8,70,4,4,1,11,4,5,4,4,2,3,5,9,844,
scooby_state_40483f|63|0 812,0,1,4,3,9,1,1,1,2,1,1,2,1,2,841,
scooby_state_4049cc|3|3 659,0,0,0,1,177,0,0,0,0,0,0,0,0,0,837,
scooby_state_40483c|32|0 821,3,1,1,2,4,2,0,1,0,2,0,0,0,0,837,
scooby_state_4049e5|35|5 627,11,5,3,9,4,1,3,4,3,0,8,6,3,145,832,
scooby_state_4049e5|22|5 681,13,2,8,3,6,3,1,3,3,1,6,1,1,93,825,
scooby_state_4049e5|60|24 583,16,15,26,15,9,22,12,15,10,19,15,18,12,35,822,
scooby_state_4049e5|32|15 506,115,9,21,7,14,2,7,9,7,7,43,8,7,60,822,
scooby_state_4049e5|19|2 550,15,0,196,4,35,2,1,4,2,2,4,1,2,4,822,
scooby_state_4049e5|56|2 632,10,3,110,7,21,4,2,2,3,2,4,3,1,13,817,
scooby_state_4049e5|53|13 607,18,71,8,4,15,6,3,5,10,3,8,9,10,35,812,
scooby_state_40482f|1|1 600,3,4,5,3,4,4,4,4,3,4,153,4,5,12,812,
scooby_state_4049e5|55|4 653,13,87,17,4,0,3,0,0,2,4,2,10,2,13,810,
scooby_state_4049e5|50|5 628,7,3,4,12,2,3,1,4,3,1,4,2,4,124,802,
scooby_state_4049e5|48|1 647,6,71,22,6,4,11,1,6,6,1,8,3,4,5,801,
scooby_state_4049e5|18|5 628,12,4,2,14,6,4,2,3,5,1,4,4,6,104,799,
scooby_state_4049e5|4|3 230,0,1,530,8,1,2,1,2,3,2,3,2,6,4,795,
scooby_state_4049e5|26|3 231,0,1,531,7,3,2,1,2,3,0,4,1,4,4,794,
scooby_state_4049e5|43|1 618,10,102,6,5,3,5,2,10,8,2,10,1,1,7,790,
scooby_state_4049e5|24|1 637,9,79,3,4,3,10,3,6,9,1,7,4,3,9,787,
scooby_state_4049e5|49|2 587,12,1,127,5,23,3,1,3,0,1,1,1,2,10,777,
scooby_state_4049e5|46|39 667,3,4,4,3,5,5,2,4,3,0,57,7,5,7,776,
scooby_state_40483f|18|0 754,1,0,3,4,4,1,0,0,0,1,0,1,0,2,771,
scooby_state_4049e5|0|-2 548,43,14,67,26,6,5,4,14,1,3,2,4,1,30,768,
scooby_state_4049e5|26|13 619,7,47,7,4,3,7,2,3,2,1,4,9,8,44,767,
scooby_state_4049e5|48|39 554,1,5,5,3,7,7,5,5,4,5,149,5,5,6,766,
scooby_state_40483f|40|0 727,2,3,3,3,6,4,2,2,2,1,2,1,2,4,764,
scooby_state_4049cc|1|-2 590,0,0,1,1,170,0,0,0,0,0,0,0,0,0,762,
scooby_state_4049e5|6|5 568,6,3,3,12,4,4,2,3,1,3,4,5,2,141,761,
scooby_state_4049e5|15|2 547,11,0,141,7,31,1,2,1,1,2,0,6,3,2,755,
scooby_state_4049e5|12|10 637,36,5,27,4,2,0,1,10,7,2,3,5,6,3,748,
scooby_state_4049e5|13|10 595,35,6,45,4,3,3,7,9,4,3,4,7,7,16,748,
scooby_state_4049e5|50|8 659,12,1,9,9,1,6,1,4,2,1,2,2,2,33,744,
scooby_state_4049e5|44|8 621,18,6,17,12,1,8,4,5,2,5,2,9,4,26,740,
scooby_state_4049e5|63|5 543,6,1,4,10,8,5,2,2,4,1,8,1,1,144,740,
scooby_state_4049e5|50|21 368,7,10,5,19,300,2,4,6,2,4,1,1,1,7,737,
scooby_state_4049e5|40|18 563,4,6,11,5,3,4,7,3,3,8,7,4,3,105,736,
scooby_state_4048b4|3|0 720,0,2,3,1,0,0,1,0,1,0,1,1,2,3,735,
scooby_state_4049e5|44|2 579,7,2,87,6,31,0,3,0,2,3,2,3,0,1,726,
scooby_state_4049e5|54|7 477,41,12,133,1,10,2,3,5,3,4,3,12,8,10,724,
scooby_state_4049e5|53|1 542,12,103,2,4,2,9,3,7,9,2,6,3,3,10,717,
scooby_state_40483f|36|0 681,1,2,1,4,3,5,3,2,1,3,2,2,2,3,715,
scooby_state_4049e5|60|1 555,8,76,17,7,3,9,3,10,5,2,7,1,3,7,713,
scooby_state_4049e5|42|31 572,14,5,3,4,2,4,3,3,1,1,1,0,1,99,713,
scooby_state_4049e5|58|7 549,25,7,96,4,4,1,2,0,0,2,1,5,7,2,705,
scooby_state_40483c|11|0 688,2,2,0,0,2,0,1,2,1,1,0,0,0,0,699,
scooby_state_4049e5|28|24 396,19,20,67,24,7,22,16,9,17,13,21,24,19,25,699,
scooby_state_4049e5|12|5 589,8,1,4,3,4,1,0,1,1,0,3,1,0,83,699,
scooby_state_4049e5|9|2 527,5,1,114,3,32,0,1,0,0,1,1,2,1,3,691,
scooby_state_4049e5|37|-22 422,12,7,107,14,11,7,7,29,10,6,20,8,14,14,688,
scooby_state_4049e5|17|9 577,2,44,11,1,6,1,5,4,1,1,6,5,3,18,685,
scooby_state_4049e5|45|2 502,10,3,111,10,26,0,1,4,1,1,1,3,4,5,682,
scooby_state_4049e5|26|6 539,6,6,95,1,3,5,3,0,3,3,7,4,2,5,682,
scooby_state_4049e5|33|14 433,9,18,3,110,7,12,16,8,8,6,8,6,10,27,681,
scooby_state_4049e5|61|43 515,0,3,6,10,6,4,7,7,10,12,1,22,26,51,680,
scooby_state_4049e5|27|2 503,7,1,122,0,30,0,0,2,0,1,2,4,1,6,679,
scooby_state_4049e5|49|36 486,9,11,40,17,20,8,10,4,6,3,6,7,7,43,677,
scooby_state_4049e5|25|7 479,26,10,77,8,9,3,6,6,5,5,4,13,11,10,672,
scooby_state_40483f|55|0 638,2,1,5,3,6,5,2,1,1,2,1,2,1,2,672,
scooby_state_4049e5|52|-8 512,3,6,7,9,10,10,8,13,6,5,11,7,10,54,671,
scooby_state_40482f|3|1 484,4,4,5,2,5,4,3,4,3,2,134,4,3,8,669,
scooby_state_4049e5|32|10 455,53,7,53,9,11,8,3,12,6,6,11,6,4,23,667,
scooby_state_40483f|39|0 644,1,1,0,4,5,1,1,2,3,0,3,0,0,1,666,
scooby_state_4049e5|17|-5 509,0,2,2,5,34,3,1,1,3,1,15,9,6,74,665,
scooby_state_4049e5|38|12 482,57,7,46,8,8,8,6,5,7,5,6,6,6,7,664,
scooby_state_4049e5|58|5 525,12,3,3,3,4,2,3,4,2,2,4,3,4,90,664,
scooby_state_4049e5|40|3 180,0,2,463,3,2,3,1,1,3,0,0,3,1,2,664,
scooby_state_4049e5|61|50 503,12,2,17,4,6,6,5,10,4,12,20,21,13,28,663,
scooby_state_4049e5|61|5 500,12,1,7,9,5,3,2,2,3,1,9,4,2,101,661,
scooby_state_4049e5|60|-2 426,19,5,120,24,2,4,2,4,5,6,0,1,5,37,660,
scooby_state_4049e5|32|1 513,5,88,3,5,3,3,4,8,6,0,6,6,3,7,660,
scooby_state_4049e5|36|1 563,6,58,2,4,0,3,1,2,1,1,5,6,2,3,657,
scooby_state_4049e5|56|8 498,31,3,12,19,4,9,2,6,3,6,3,18,4,37,655,
scooby_state_40483f|7|0 642,0,1,0,0,5,1,0,0,2,1,1,1,0,1,655,
scooby_state_4049e5|58|2 458,3,1,124,9,34,2,0,2,0,4,2,1,2,11,653,
scooby_state_4049e5|21|3 166,0,1,468,4,0,3,1,0,1,1,2,4,0,2,653,
scooby_state_4049e5|57|4 521,3,69,20,1,3,4,2,1,6,0,3,3,1,14,651,
scooby_state_40483f|56|0 609,2,3,4,5,12,1,2,0,5,1,0,1,2,4,651,
scooby_state_4048bc|59|0 641,0,0,0,0,1,1,0,2,2,0,0,1,0,2,650,
scooby_state_40483f|25|0 597,2,2,4,4,9,3,6,1,3,5,1,5,3,5,650,
scooby_state_40482f|23|1 477,2,1,3,3,2,1,2,2,2,2,144,1,1,5,648,
scooby_state_40483f|17|0 608,1,2,4,5,3,4,3,1,2,3,1,3,2,5,647,
scooby_state_40483f|33|0 620,2,3,2,3,7,0,5,0,1,0,0,0,0,1,644,
scooby_state_4049e5|35|13 534,7,35,4,1,5,5,4,4,3,0,2,4,4,32,644,
scooby_state_4049e5|37|2 484,9,2,101,7,26,1,0,6,1,2,1,2,0,1,643,
scooby_state_40483f|59|0 604,2,3,5,4,8,2,2,1,2,2,1,2,2,3,643,
scooby_state_4049e5|36|26 570,5,3,15,6,2,2,2,2,0,1,3,3,3,25,642,
scooby_state_4049e5|20|2 487,10,1,86,3,35,1,2,2,2,2,2,2,1,6,642,
scooby_state_4049e5|45|28 488,29,3,1,2,1,3,1,4,0,2,19,1,2,80,636,
scooby_state_4049e5|30|2 495,13,2,83,3,22,1,1,2,1,3,1,1,1,5,634,
scooby_state_4049e5|58|34 446,3,11,7,8,9,7,1,6,3,2,95,13,6,15,632,
scooby_state_4049e5|58|12 453,47,7,39,10,7,9,10,6,7,8,6,7,8,7,631,
scooby_state_40483f|14|0 601,2,1,4,4,7,1,3,0,2,0,0,1,3,1,630,
scooby_state_4049e5|18|7 499,21,5,80,1,3,2,0,0,0,1,0,10,4,2,628,
scooby_state_40482f|31|1 498,2,1,3,2,2,2,2,1,2,2,101,1,2,5,626,
scooby_state_40483f|44|0 559,4,6,7,7,8,7,5,1,3,5,1,4,3,5,625,
scooby_state_4049e5|60|39 430,0,5,7,5,6,5,6,3,4,2,128,6,6,10,623,
scooby_state_4049e5|36|5 472,4,6,10,8,4,3,0,2,0,1,6,1,2,103,622,
scooby_state_4049e5|21|2 407,7,0,152,6,24,1,1,1,1,3,4,2,1,11,621,
scooby_state_404cec|60|1 20,65,30,30,29,29,29,29,30,30,30,81,45,45,94,616,
scooby_state_4045bd|51|0 615,0,0,0,0,1,0,0,0,0,0,0,0,0,0,616,
scooby_state_4044fc|50|0 10,9,10,9,9,10,10,6,6,6,6,9,9,10,497,616,
scooby_state_4048aa|3|0 541,3,3,4,4,6,5,3,2,6,5,18,5,7,4,616,
scooby_state_4049e5|53|11 415,10,2,10,135,2,6,3,14,4,1,1,6,1,6,616,
scooby_state_40482f|11|1 532,0,1,0,0,0,0,0,0,0,1,80,0,1,0,615,
scooby_state_404ce3|59|0 609,0,0,0,1,1,0,0,1,0,1,0,0,0,0,613,
scooby_state_4049e5|51|49 498,9,7,12,0,9,5,5,4,2,4,2,5,4,46,612,
scooby_state_40483f|29|0 587,0,1,4,1,4,4,1,0,1,2,0,2,2,2,611,
scooby_state_4049e5|7|3 198,0,1,400,5,0,1,1,0,1,1,0,1,2,0,611,
scooby_state_4048bc|15|0 600,0,0,0,3,0,1,0,1,1,0,3,0,0,0,609,
scooby_state_4049e5|41|29 449,6,9,4,22,4,13,5,7,6,4,10,9,10,49,607,
scooby_state_4049e5|58|-2 373,25,6,102,36,0,4,4,8,2,7,0,3,4,32,606,
scooby_state_4049e5|60|16 486,2,20,0,1,0,1,0,0,1,0,2,0,0,92,605,
scooby_state_4049e5|47|27 445,15,21,5,5,2,4,9,18,5,6,5,33,8,22,603,
scooby_state_4049e5|10|-10 477,2,2,20,0,2,2,2,1,3,0,41,1,4,43,600,
scooby_state_4049e5|36|3 132,0,1,440,4,4,4,1,0,1,2,1,1,2,4,597,
scooby_state_40483f|0|0 584,1,0,0,2,8,0,0,1,0,0,0,0,0,1,597,
scooby_state_4049e5|29|15 485,65,3,10,4,5,5,0,1,1,1,3,0,0,13,596,
scooby_state_40483f|53|0 576,2,2,1,1,3,0,3,1,2,0,1,1,2,1,596,
scooby_state_4049e5|12|8 475,21,3,14,14,3,3,6,4,3,3,4,13,6,23,595,
scooby_state_4049e5|59|31 422,19,5,10,5,1,5,2,3,4,1,1,1,7,108,594,
scooby_state_40483f|52|0 577,0,0,1,1,5,1,2,1,1,0,0,1,1,3,594,
scooby_state_4049e5|15|1 460,5,83,0,4,1,6,3,9,4,0,6,5,0,7,593,
scooby_state_40483f|10|0 549,2,2,4,4,6,4,2,1,2,3,0,5,3,4,591,
scooby_state_40483f|37|0 560,2,2,2,3,7,0,2,0,2,3,0,2,3,3,591,
scooby_state_4049e5|17|-26 479,0,1,7,4,3,0,3,0,4,2,11,3,8,65,590,
scooby_state_4049e5|17|16 477,2,8,1,1,0,3,0,1,3,2,1,2,3,83,587,
scooby_state_4049e5|23|8 465,15,4,7,17,2,6,1,7,5,4,4,15,5,30,587,
scooby_state_4049e5|41|41 375,9,23,20,11,15,11,13,11,9,9,28,10,17,25,586,
scooby_state_4049e5|35|2 432,12,1,95,5,19,2,3,5,1,2,2,1,1,5,586,
scooby_state_40483f|34|0 578,0,1,0,2,2,0,0,0,0,0,0,0,0,0,583,
scooby_state_4049e5|54|38 423,13,13,17,6,9,7,14,8,11,7,17,13,10,11,579,
scooby_state_40483f|1|0 560,1,2,1,4,4,1,1,1,0,0,1,0,1,2,579,
scooby_state_4049e5|35|26 473,8,7,17,6,4,5,5,6,3,0,4,4,5,31,578,
scooby_state_4044bf|52|2 333,15,17,13,14,14,11,9,11,9,14,66,14,13,25,578,
scooby_state_4049e5|20|-12 405,22,0,0,8,0,0,0,0,0,1,73,0,0,69,578,
scooby_state_4049e5|55|8 444,19,2,11,15,6,5,3,6,3,2,2,13,6,40,577,
scooby_state_4049e5|59|4 484,4,58,8,2,0,1,0,0,2,1,3,7,1,6,577,
scooby_state_40483f|21|0 559,1,1,0,0,5,1,1,1,1,0,2,2,1,0,575,
scooby_state_4049e5|51|3 165,1,1,389,5,2,2,1,1,2,0,0,1,2,2,574,
scooby_state_4049e5|57|2 414,5,1,106,2,29,1,1,0,2,3,2,1,0,5,572,
scooby_state_4049e5|43|34 377,7,11,8,9,6,10,13,3,11,6,72,8,8,22,571,
scooby_state_4049e5|36|2 455,7,0,78,0,18,0,2,1,1,2,1,1,3,2,571,
scooby_state_40483f|22|0 559,0,1,1,2,2,1,1,0,1,1,1,0,0,1,571,
scooby_state_4049e5|13|6 377,7,6,113,11,3,7,2,3,5,7,16,4,0,8,569,
scooby_state_4049e5|45|23 395,22,12,9,7,14,5,9,15,6,6,9,11,13,36,569,
scooby_state_40483f|26|0 551,1,4,0,3,5,1,1,0,1,0,0,0,2,0,569,
scooby_state_4049e5|21|4 417,13,62,29,1,4,10,3,0,2,3,3,1,3,17,568,
scooby_state_40483f|13|0 544,1,1,1,1,6,1,0,3,1,1,2,1,1,2,566,
scooby_state_4048bc|55|0 556,0,0,0,2,2,2,0,1,1,0,1,0,1,0,566,
scooby_state_4049e5|42|5 439,10,2,24,7,4,1,1,2,3,0,4,3,0,66,566,
scooby_state_4049e5|53|50 413,13,7,6,7,4,2,9,4,14,8,16,19,13,30,565,
scooby_state_4049e5|31|8 500,8,4,11,6,9,5,5,4,2,0,2,2,1,6,565,
scooby_state_40483f|38|0 553,0,0,0,2,3,2,0,0,1,2,0,0,0,1,564,
scooby_state_4049e5|61|2 466,4,0,64,1,15,0,1,0,2,2,1,3,0,4,563,
scooby_state_40483f|31|0 543,0,0,2,3,4,2,1,2,0,0,3,2,0,0,562,
scooby_state_40483c|28|0 553,0,2,2,1,2,2,0,0,0,0,0,0,0,0,562,
scooby_state_4049e5|32|8 452,30,0,7,7,4,8,4,5,3,3,1,16,2,19,561,
scooby_state_4049e5|47|33 383,3,15,97,7,1,9,4,6,1,5,1,7,8,11,558,
scooby_state_4049e5|45|5 434,8,3,1,3,4,2,1,2,2,0,2,4,3,88,557,
scooby_state_40483f|2|0 541,1,3,0,1,2,1,3,1,0,0,1,1,0,0,555,
scooby_state_4049e5|58|26 396,10,4,34,5,2,6,5,3,6,4,0,6,4,68,553,
scooby_state_4049e5|54|18 446,8,10,9,8,3,2,5,3,4,3,2,6,0,43,552,
scooby_state_40483f|5|0 530,0,2,2,3,4,2,0,4,0,0,4,0,0,0,551,
scooby_state_4049e5|46|22 201,43,43,41,60,106,30,10,7,2,1,6,0,0,0,550,
scooby_state_4049e5|61|3 140,0,3,382,6,1,2,1,2,2,2,3,1,1,3,549,
scooby_state_4049e5|36|16 457,1,14,10,0,1,1,1,0,0,2,0,0,0,62,549,
scooby_state_4049e5|49|5 485,2,1,2,1,4,1,1,2,1,2,3,1,1,38,545,
scooby_state_4048bc|38|0 528,0,2,1,2,0,1,0,0,2,0,3,0,0,2,541,
scooby_state_4049e5|54|29 406,3,6,4,18,6,11,4,7,3,5,6,8,6,45,538,
scooby_state_4049e5|49|-5 425,1,1,1,3,35,2,2,1,2,4,7,6,1,46,537,
scooby_state_4049e5|41|19 359,9,4,19,24,10,9,5,12,11,17,6,22,8,22,537,
scooby_state_40483f|54|0 520,0,1,4,2,2,1,0,3,0,0,3,0,0,0,536,
scooby_state_4049e5|15|10 400,47,2,39,4,6,0,4,7,3,0,4,6,3,10,535,
scooby_state_40483f|50|0 521,0,1,1,1,4,1,1,2,0,0,2,0,0,0,534,
scooby_state_40483f|3|0 516,0,2,3,3,4,2,0,0,0,0,0,0,3,1,534,
scooby_state_40483f|23|0 497,2,2,1,4,7,2,2,3,2,1,3,2,2,2,532,
scooby_state_40483f|19|0 518,0,0,0,2,3,2,0,1,1,2,2,0,0,1,532,
scooby_state_40483f|27|0 499,3,2,2,5,4,1,2,2,3,1,2,1,3,1,531,
scooby_state_40483f|8|0 513,1,1,0,4,5,0,1,2,0,0,2,1,1,0,531,
scooby_state_4048bc|63|0 469,3,3,4,5,3,4,4,3,2,4,5,5,7,9,530,
scooby_state_4048aa|11|0 487,0,1,2,2,1,2,1,2,2,1,21,0,4,4,530,
scooby_state_4048bc|62|0 499,2,4,3,2,1,1,1,2,0,1,2,1,3,6,528,
scooby_state_40483f|35|0 505,1,1,2,4,3,0,0,1,1,2,1,2,2,1,526,
scooby_state_40483c|33|0 517,0,2,2,0,2,0,2,0,0,0,0,0,0,0,525,
scooby_state_4049e5|42|21 427,2,4,6,8,65,2,5,1,2,0,0,1,0,1,524,
scooby_state_4049e5|6|-7 353,2,8,7,28,5,18,4,11,3,4,13,10,5,53,524,
scooby_state_4049e5|13|4 403,11,50,19,2,2,6,3,0,5,1,3,4,0,14,523,
scooby_state_4049e5|52|4 403,4,55,20,4,1,2,3,1,3,1,5,6,5,10,523,
scooby_state_40483f|58|0 507,0,1,0,2,3,1,1,2,0,0,2,0,1,1,521,
scooby_state_4049e5|15|3 160,0,1,351,2,0,3,1,0,0,1,2,0,0,0,521,
scooby_state_4049e5|22|11 279,10,8,7,157,3,5,2,19,2,4,4,5,5,8,518,
scooby_state_4049e5|0|-34 393,1,10,6,9,13,5,9,9,8,11,8,7,8,20,517,
scooby_state_40483f|42|0 499,0,1,2,4,1,1,0,1,1,0,1,1,1,3,516,
scooby_state_4049e5|11|2 384,7,2,80,1,24,0,3,0,2,3,1,3,2,2,514,
scooby_state_4049d6|1|1 0,513,0,0,0,0,0,0,0,0,0,0,0,0,0,513,
scooby_state_4049e5|57|36 367,9,6,36,9,12,8,2,7,4,1,6,3,2,39,511,
scooby_state_40482f|57|1 360,3,3,6,4,6,2,4,3,2,4,99,3,3,8,510,
scooby_state_4049e5|5|3 186,0,0,312,4,0,1,1,0,0,1,1,1,1,2,510,
scooby_state_4049e5|25|13 384,8,40,4,5,6,3,1,4,3,3,1,10,4,29,505,
scooby_state_4049e5|42|6 333,9,2,113,11,1,2,2,3,1,3,9,6,3,7,505,
scooby_state_4049e5|27|13 407,8,30,2,2,8,4,0,0,1,2,1,5,1,31,502,
scooby_state_4049e5|55|3 148,1,0,330,4,4,5,1,2,0,1,0,1,3,2,502,
scooby_state_4049e5|10|5 445,5,3,1,2,3,1,2,0,3,0,0,3,1,33,502,
scooby_state_40483f|4|0 483,1,1,2,2,7,1,1,0,1,1,0,0,0,1,501,
scooby_state_4049e5|26|8 382,12,4,8,14,3,8,6,6,4,2,3,12,8,29,501,
scooby_state_4049e5|54|21 420,3,10,3,14,27,4,2,3,4,3,1,1,1,3,499,
scooby_state_4049e5|42|2 361,6,2,91,2,25,1,0,2,1,1,1,0,1,5,499,
scooby_state_4049e5|30|18 405,6,4,4,1,1,1,0,0,0,3,2,1,3,67,498,
scooby_state_4049e5|40|14 251,12,16,7,73,9,11,11,12,10,6,16,5,6,51,496,
scooby_state_4049e5|36|10 351,47,3,30,11,6,2,2,8,7,4,5,4,6,10,496,
scooby_state_4049e5|59|55 396,3,7,3,4,0,0,1,0,0,0,3,3,1,74,495,
scooby_state_4049e5|12|-46 317,19,24,26,11,5,4,10,8,4,7,21,6,6,27,495,
scooby_state_4049e5|56|21 332,8,14,4,9,109,5,1,2,1,1,1,0,2,6,495,
scooby_state_4049e5|37|-3 391,1,12,44,4,10,4,7,2,1,3,4,2,2,7,494,
scooby_state_4049e5|3|1 361,4,89,1,5,0,4,0,4,4,1,9,2,3,6,493,
scooby_state_4049e5|29|5 376,6,4,11,4,0,1,1,4,1,1,4,2,2,76,493,
scooby_state_4048bc|61|0 484,1,1,1,1,1,2,0,1,1,0,0,0,0,0,493,
scooby_state_4049e5|26|10 449,19,0,12,0,0,0,0,2,1,1,2,1,1,3,491,
scooby_state_4049e5|57|3 149,0,0,328,5,1,2,0,0,0,2,1,2,0,1,491,
scooby_state_4049e5|60|3 183,0,1,286,5,3,1,0,3,2,0,0,0,1,3,488,
scooby_state_4049e5|18|10 356,44,3,29,2,2,7,1,7,5,4,8,3,3,13,487,
scooby_state_4049e5|17|-7 346,5,6,1,21,6,9,7,18,5,6,2,9,5,40,486,
scooby_state_4049e5|54|25 376,49,10,23,0,3,0,0,1,0,1,4,1,1,15,484,
scooby_state_40482f|34|1 348,2,2,3,2,3,1,2,3,2,2,104,1,3,6,484,
scooby_state_40483f|57|0 466,0,2,1,4,2,2,0,2,0,0,2,0,0,2,483,
scooby_state_4049e5|30|20 380,0,7,0,4,4,4,2,7,6,3,2,7,7,49,482,
scooby_state_4049e5|17|13 310,17,51,24,7,10,3,5,5,0,5,1,7,7,30,482,
scooby_state_40483c|18|0 471,1,2,1,2,2,0,1,0,0,1,0,0,0,0,481,
scooby_state_40482f|19|1 375,1,2,2,2,3,2,1,2,2,2,75,2,3,5,479,
scooby_state_4049e5|19|3 156,0,2,296,9,2,3,0,0,1,0,3,0,2,4,478,
scooby_state_4049e5|23|5 373,3,2,4,6,3,2,2,3,1,2,3,0,1,71,476,
scooby_state_4049e5|14|8 369,22,1,4,11,2,6,4,3,1,4,1,13,7,27,475,
scooby_state_4049e5|50|10 374,22,7,25,7,4,1,3,8,3,6,2,3,4,5,474,
scooby_state_4049e5|47|13 384,11,15,6,4,2,3,0,8,3,1,5,9,6,15,472,
scooby_state_4049e5|13|1 376,3,48,20,2,2,4,1,6,4,0,2,2,1,0,471,
scooby_state_4048bc|52|0 456,1,1,2,1,1,1,0,1,0,1,1,0,2,3,471,
scooby_state_4049e5|57|1 400,2,45,1,2,1,4,0,2,2,0,2,1,2,6,470,
scooby_state_4049e5|47|3 98,0,0,357,3,3,1,2,1,0,0,1,1,0,2,469,
scooby_state_40483f|24|0 448,1,0,2,3,2,1,2,2,2,1,2,1,1,1,469,
scooby_state_4049e5|30|-20 337,4,11,13,3,4,4,13,35,2,6,6,5,8,17,468,
scooby_state_4049e5|32|13 419,3,24,4,0,2,0,0,2,0,0,1,2,1,10,468,
scooby_state_4049e5|40|8 354,25,3,7,16,1,7,2,3,4,6,4,10,8,17,467,
scooby_state_4049e5|63|61 358,0,9,10,2,4,8,9,3,10,7,3,13,13,18,467,
scooby_state_4049e5|7|-2 313,22,4,59,15,1,4,4,9,4,4,0,6,4,18,467,
scooby_state_4049e5|52|5 363,10,2,5,5,7,2,2,3,0,1,6,1,3,56,466,
scooby_state_4049e5|60|-3 322,2,13,65,13,14,5,6,0,3,3,2,7,3,6,464,
scooby_state_4049e5|48|23 294,30,9,12,15,9,4,8,12,7,9,4,12,9,30,464,
scooby_state_4049e5|7|-42 387,25,30,4,2,2,1,1,1,0,0,0,1,2,7,463,
scooby_state_4049e5|58|38 321,11,9,8,7,4,4,7,9,4,11,26,8,12,22,463,
scooby_state_4048bc|41|0 455,0,0,0,2,1,0,0,0,1,0,3,0,0,0,462,
scooby_state_4049e5|14|3 130,0,1,315,6,1,1,0,0,1,2,1,0,2,2,462,
scooby_state_4049e5|21|-26 387,0,0,3,0,1,0,3,1,2,2,1,0,1,60,461,
scooby_state_40482f|14|1 357,2,2,2,1,1,1,2,1,2,2,78,2,3,5,461,
scooby_state_40482f|29|1 351,2,1,2,2,3,0,2,2,2,2,81,2,2,5,459,
scooby_state_4049e5|51|4 354,8,46,16,1,4,2,3,1,5,1,4,3,6,4,458,
scooby_state_4049e5|60|18 364,0,2,10,0,3,1,1,0,0,1,3,2,4,65,456,
scooby_state_4049e5|61|16 384,1,8,20,2,0,2,0,2,0,1,0,2,1,32,455,
scooby_state_40483c|29|0 443,1,2,0,3,3,0,0,1,1,1,0,0,0,0,455,
scooby_state_4049e5|20|19 408,2,4,1,3,1,3,0,2,4,3,0,7,5,8,451,
scooby_state_4049e5|0|-41 369,2,6,3,11,22,7,5,8,3,1,4,4,1,4,450,
scooby_state_4049e5|41|8 379,14,1,7,9,2,5,1,1,3,1,1,7,2,16,449,
scooby_state_4049e5|46|3 131,0,1,300,3,1,3,1,1,0,2,1,2,1,2,449,
scooby_state_4049e5|16|3 89,0,2,342,2,3,3,0,1,2,2,1,1,0,1,449,
scooby_state_4049e5|47|15 306,52,2,13,4,5,1,7,2,3,5,8,2,5,34,449,
scooby_state_4049e5|52|47 326,0,12,12,11,8,11,6,5,6,8,8,11,14,11,449,
scooby_state_4049e5|32|18 419,1,0,0,0,0,0,0,0,1,0,0,0,0,27,448,
scooby_state_4049e5|51|-4 349,4,2,6,7,1,4,0,1,9,5,31,8,5,15,447,
scooby_state_40483c|10|0 434,0,1,2,3,2,1,1,1,1,0,0,0,0,1,447,
scooby_state_4049e5|24|7 327,33,8,44,5,3,3,1,2,2,1,0,3,7,7,446,
scooby_state_4049e5|20|-22 298,8,10,54,4,2,2,2,27,6,2,10,8,6,7,446,
scooby_state_4049e5|38|23 359,12,7,4,5,11,5,1,1,5,2,0,5,9,20,446,
scooby_state_4049e5|54|10 331,43,1,37,0,3,5,1,6,1,1,4,4,3,4,444,
scooby_state_40482f|22|1 345,1,2,3,2,2,2,1,2,2,2,69,2,3,5,443,
scooby_state_4049e5|52|12 262,53,9,37,5,7,4,7,8,8,5,4,8,11,15,443,
scooby_state_4049e5|50|19 341,9,6,4,19,2,6,5,6,3,1,0,13,11,17,443,
scooby_state_4049e5|47|4 348,7,35,17,0,2,4,3,3,3,3,4,1,1,11,442,
scooby_state_4049e5|39|10 298,37,2,32,6,6,7,2,11,4,5,7,4,5,16,442,
scooby_state_4049e5|34|14 286,8,6,5,49,7,10,9,7,1,6,8,7,5,28,442,
scooby_state_4049e5|37|4 361,2,40,8,2,4,3,0,3,1,2,3,1,2,10,442,
scooby_state_4049e5|34|18 331,10,11,12,5,3,3,1,4,2,3,4,2,8,42,441,
scooby_state_4048aa|61|0 384,3,1,4,1,3,4,3,2,3,0,13,7,8,5,441,
scooby_state_4049de|4|-52 362,1,4,3,2,2,0,0,1,0,0,1,0,1,63,440,
scooby_state_4048bc|34|0 429,0,2,0,0,0,1,0,1,2,0,2,1,0,2,440,
scooby_state_4049e5|12|11 260,9,3,7,108,3,4,4,6,3,5,6,4,9,9,440,
scooby_state_4048b4|49|0 425,0,2,1,0,0,2,0,0,2,0,2,2,1,2,439,
scooby_state_4049e5|60|5 343,5,1,4,2,2,1,2,2,1,1,5,1,0,69,439,
scooby_state_40483f|49|0 411,0,3,4,4,7,3,1,0,1,2,0,1,0,2,439,
scooby_state_4049e5|38|10 312,56,1,46,3,3,1,2,1,3,1,0,2,2,5,438,
scooby_state_403cc0|7|0 433,1,0,0,0,0,1,0,0,0,1,0,1,0,1,438,
scooby_state_4049e5|22|-20 365,3,4,6,6,2,8,6,8,3,3,2,6,6,10,438,
scooby_state_40483f|20|0 415,2,2,2,1,3,1,2,2,3,1,2,0,0,1,437,
scooby_state_403cc0|32|0 431,0,0,1,0,0,1,0,0,1,1,0,0,1,1,437,
scooby_state_403e90|4|1 1,0,1,1,1,0,0,0,0,0,1,430,1,0,1,437,
scooby_state_4049e5|58|18 353,5,9,5,4,3,2,2,1,1,2,1,4,3,41,436,
scooby_state_4049e5|5|4 324,12,56,13,1,1,1,1,0,1,1,1,3,5,15,435,
scooby_state_4049e5|52|10 348,33,3,8,3,1,0,2,4,7,4,8,2,2,10,435,
scooby_state_4049e5|36|-27 220,16,13,9,10,7,6,46,15,16,8,0,7,18,43,434,
scooby_state_403eb4|3|0 433,0,0,1,0,0,0,0,0,0,0,0,0,0,0,434,
scooby_state_4049e5|59|35 318,5,15,0,2,5,6,2,2,1,0,5,12,8,52,433,
scooby_state_4049e5|9|1 353,3,45,2,3,2,4,1,2,5,0,4,1,2,5,432,
scooby_state_4049e5|22|-26 355,0,3,2,1,2,2,0,3,2,3,2,1,2,54,432,
scooby_state_4049e5|41|21 318,7,6,2,9,72,2,3,3,1,3,1,1,1,3,432,
scooby_state_4049e5|2|1 367,2,38,0,2,5,4,2,5,1,1,0,1,0,3,431,
scooby_state_4049e5|23|13 385,4,11,4,2,3,8,1,1,0,0,0,2,4,6,431,
scooby_state_4049e5|23|3 120,0,1,299,2,1,1,0,0,0,2,0,1,1,1,429,
scooby_state_4048b4|29|0 419,0,2,1,1,0,0,0,1,1,0,1,1,1,1,429,
scooby_state_4049e5|41|-16 352,3,0,3,3,2,6,4,3,3,1,16,3,4,26,429,
scooby_state_4049e5|13|5 292,16,5,2,6,4,2,2,4,2,3,4,3,3,80,428,
scooby_state_4049e5|4|-2 309,10,4,51,14,3,7,4,7,1,2,0,1,3,12,428,
scooby_state_403e94|10|1 0,0,1,0,0,0,0,0,0,0,0,426,0,0,0,427,
scooby_state_4049e5|58|3 103,0,0,307,6,1,2,0,0,0,1,2,0,3,1,426,
scooby_state_4049e5|24|14 338,0,1,0,80,1,0,0,0,1,0,1,0,1,2,425,
scooby_state_4049e5|53|35 322,3,0,20,2,2,5,6,5,5,5,6,9,8,27,425,
scooby_state_4049e5|17|-44 311,0,22,5,7,5,3,12,11,10,11,0,10,12,5,424,
scooby_state_4049e5|13|-45 285,15,8,6,8,8,12,5,8,5,6,20,5,11,21,423,
scooby_state_40483c|0|0 412,1,1,1,1,3,1,0,1,1,1,0,0,0,0,423,
scooby_state_4049e5|34|2 345,4,0,51,0,9,0,1,0,3,2,0,3,2,3,423,
scooby_state_4048bc|37|0 399,1,2,2,2,1,1,1,2,1,1,2,2,2,4,423,
scooby_state_4048b4|26|0 411,0,1,1,1,0,2,0,0,2,0,1,2,1,1,423,
scooby_state_4049e5|33|31 355,5,0,0,3,0,0,0,0,0,0,0,0,0,58,421,
scooby_state_4048b4|31|0 396,0,2,1,3,2,2,2,2,2,1,4,2,0,2,421,
scooby_state_4049e5|6|-5 320,0,3,1,0,19,5,0,2,1,0,7,4,2,56,420,
scooby_state_403cc0|0|0 414,0,1,0,0,0,1,0,1,2,0,0,0,0,1,420,
scooby_state_4049e5|55|35 302,6,14,2,5,2,1,3,2,1,0,11,7,12,52,420,
scooby_state_4049e5|28|16 309,1,8,4,0,3,3,1,2,0,2,0,1,1,84,419,
scooby_state_4049e5|12|2 297,3,1,82,5,19,3,0,1,0,2,1,2,1,2,419,
scooby_state_4049e5|53|21 243,6,13,4,15,113,3,5,5,1,5,1,1,0,3,418,
scooby_state_4049e5|33|1 349,4,36,3,4,1,3,0,6,3,1,3,2,1,2,418,
scooby_state_40465d|50|-1 279,13,10,10,8,9,9,6,9,6,9,16,8,11,15,418,
scooby_state_4049e5|33|24 380,2,5,3,4,0,4,3,2,2,2,4,2,2,1,416,
scooby_state_4049e5|1|-16 336,5,1,3,4,3,3,2,3,3,5,13,3,3,29,416,
scooby_state_40482f|58|1 303,2,2,3,2,3,2,2,2,1,2,78,2,4,6,414,
scooby_state_4049e5|53|36 291,10,7,27,9,17,4,3,6,1,2,5,3,6,22,413,
scooby_state_40483f|28|0 391,0,0,3,4,2,3,1,2,0,1,2,1,0,1,411,
scooby_state_403e9a|42|-1 121,4,2,24,7,2,5,7,6,5,2,6,13,6,201,411,
scooby_state_4049e5|51|21 265,8,9,3,6,93,8,2,3,2,2,0,2,1,6,410,
scooby_state_40483f|41|0 400,0,0,0,2,2,3,0,0,0,0,0,0,0,2,409,
scooby_state_403cc0|2|0 402,0,1,0,0,0,2,1,0,0,1,0,0,0,1,408,
scooby_state_40483f|45|0 390,1,1,1,1,6,0,1,0,2,2,0,1,1,1,408,
scooby_state_4048b4|1|0 373,0,2,3,3,1,3,1,2,5,2,4,3,2,4,408,
scooby_state_4049e5|50|2 309,6,1,73,2,9,0,0,1,2,1,0,1,2,1,408,
scooby_state_4049e5|29|3 88,0,1,299,5,1,2,1,1,0,1,3,2,0,3,407,
scooby_state_4049e5|46|4 291,9,46,32,2,2,4,4,0,3,0,1,3,2,7,406,
scooby_state_4049e5|54|-5 274,0,1,0,0,24,2,0,1,1,0,9,3,2,89,406,
scooby_state_4048bc|30|0 387,0,2,2,3,0,0,0,0,1,1,4,0,0,5,405,
scooby_state_403e90|62|1 0,1,0,0,0,0,0,0,0,0,0,403,0,0,0,404,
scooby_state_4049e5|63|37 310,28,33,3,5,0,1,0,1,0,0,0,0,0,21,402,
scooby_state_4049d6|2|2 0,401,0,0,0,0,1,0,0,0,0,0,0,0,0,402,
scooby_state_4049e5|33|4 290,6,43,17,3,2,5,2,1,3,1,6,9,2,10,400,
scooby_state_404820|4|-1 204,101,3,1,1,2,2,1,2,3,3,2,69,1,4,399,
scooby_state_4049e5|56|6 262,5,3,83,11,1,3,3,2,3,2,9,7,1,4,399,
scooby_state_4049e5|61|60 271,14,6,3,3,10,8,6,11,3,1,20,16,13,14,399,
scooby_state_403cc0|22|0 387,0,0,0,2,0,1,3,0,1,2,0,1,1,1,399,
scooby_state_4048aa|1|0 332,2,1,9,8,10,9,2,1,1,1,16,3,1,3,399,
scooby_state_4048bf|0|0 365,2,2,5,1,3,1,3,1,2,1,3,3,2,4,398,
scooby_state_40482f|37|1 300,2,1,1,0,2,0,1,2,1,1,81,2,2,2,398,
scooby_state_4049e5|31|3 86,0,1,304,2,2,0,0,0,0,0,1,0,2,0,398,
scooby_state_4049e5|7|-41 324,1,3,3,9,28,6,5,4,1,4,0,1,2,5,396,
scooby_state_4049e5|63|20 294,0,7,6,4,3,1,5,4,4,3,2,10,8,44,395,
scooby_state_403e90|43|0 11,0,0,0,0,0,0,0,0,0,0,383,0,0,0,394,
scooby_state_4049e5|10|4 274,7,42,18,3,6,4,0,0,4,3,6,8,1,17,393,
scooby_state_4049e5|41|5 320,8,2,1,9,5,1,0,1,2,3,4,1,2,34,393,
scooby_state_403cc0|45|0 389,0,1,0,0,0,1,0,0,0,1,0,0,0,0,392,
scooby_state_403cc0|5|0 384,0,3,0,0,0,1,0,0,1,0,0,0,2,1,392,
scooby_state_4049e5|10|2 293,4,1,61,2,15,2,0,1,1,1,1,0,1,8,391,
scooby_state_4049e5|19|13 287,7,34,5,3,7,5,2,2,1,1,2,2,5,28,391,
scooby_state_4049e5|38|1 330,2,31,2,3,2,0,0,4,4,1,7,2,0,2,390,
scooby_state_4049e5|54|33 248,5,8,103,5,1,2,3,1,2,0,0,4,4,4,390,
scooby_state_4049e5|7|2 290,6,0,72,1,11,2,1,2,0,1,0,2,0,2,390,
scooby_state_4049e5|9|-12 318,10,1,1,3,0,0,0,0,0,1,26,0,0,29,389,
scooby_state_403eec|9|0 389,0,0,0,0,0,0,0,0,0,0,0,0,0,0,389,
scooby_state_40483f|61|0 373,0,0,3,4,3,1,0,0,0,1,0,1,1,1,388,
scooby_state_4049e5|34|16 294,1,12,8,2,0,0,0,0,0,0,1,0,1,69,388,
scooby_state_403cc0|23|0 385,1,0,0,0,0,0,0,0,0,1,0,0,0,0,387,
scooby_state_40483f|16|0 369,0,0,3,6,2,1,0,0,0,1,0,2,2,1,387,
scooby_state_4049e5|9|5 304,2,2,6,7,2,1,0,3,3,0,2,2,0,52,386,
scooby_state_4049e5|32|3 141,0,1,237,3,3,0,0,0,0,0,0,1,0,0,386,
scooby_state_40483f|32|0 369,1,1,1,1,4,1,1,1,1,1,1,1,1,1,386,
scooby_state_4049e5|30|13 327,4,11,3,1,1,2,1,8,0,2,1,5,1,19,386,
scooby_state_403cc0|30|0 380,0,0,1,0,1,1,0,0,0,0,1,0,1,1,386,
scooby_state_403cc0|12|0 377,0,0,1,0,0,6,1,0,0,0,0,0,0,0,385,
scooby_state_403cc0|20|0 376,0,0,0,0,1,1,2,1,0,0,0,1,0,2,384,
scooby_state_403cc0|1|0 381,0,0,0,0,0,1,0,0,1,0,0,0,0,1,384,
scooby_state_4048bc|50|0 376,0,1,1,1,2,0,0,0,0,0,1,0,1,1,384,
scooby_state_4049e5|32|16 297,0,11,1,0,0,0,0,0,0,0,0,0,0,74,383,
scooby_state_4049e5|11|-2 287,7,7,35,17,4,5,1,4,0,3,0,2,3,8,383,
scooby_state_403cc0|3|0 374,0,1,1,0,1,1,1,1,1,0,0,0,0,1,382,
scooby_state_4048b4|14|0 359,0,3,1,2,0,3,0,1,2,1,2,2,1,5,382,
scooby_state_4049e5|30|4 269,13,44,11,0,4,9,6,4,6,2,5,2,2,5,382,
scooby_state_403e94|17|1 0,0,0,0,0,0,0,0,0,1,5,372,0,1,1,380,
scooby_state_404823|63|0 380,0,0,0,0,0,0,0,0,0,0,0,0,0,0,380,
scooby_state_403cc0|8|0 371,0,3,1,0,0,2,0,1,0,1,0,0,0,0,379,
scooby_state_40483f|46|0 359,2,1,0,2,3,2,1,2,1,1,2,0,1,1,378,
scooby_state_4049e5|8|-3 271,1,19,30,5,5,5,6,8,3,1,5,7,5,6,377,
scooby_state_4048b8|22|0 350,2,2,3,3,1,2,1,1,2,2,1,2,2,3,377,
scooby_state_4049e5|55|-6 279,3,1,3,7,61,5,1,2,1,4,1,1,2,5,376,
scooby_state_4049e5|25|16 331,0,4,0,1,0,0,0,0,0,0,0,0,0,40,376,
scooby_state_403cc0|43|0 368,0,1,1,0,0,0,1,1,0,0,0,1,1,2,376,
scooby_state_4049e5|11|4 278,4,41,13,2,3,5,7,3,1,4,3,1,1,10,376,
scooby_state_403cc0|9|0 368,0,1,0,1,1,0,2,0,0,1,0,0,0,1,375,
scooby_state_4049e5|51|6 289,4,1,47,9,1,5,3,2,3,2,1,2,2,3,374,
scooby_state_4049e5|16|-10 304,6,1,17,1,2,0,0,1,0,0,19,0,1,22,374,
scooby_state_4049e5|50|34 328,0,0,1,3,1,2,0,0,0,1,27,2,3,6,374,
scooby_state_403cc0|10|0 365,0,1,0,0,1,2,1,1,0,0,0,0,0,3,374,
scooby_state_4049e5|30|3 120,0,1,239,2,4,3,1,0,0,0,1,0,1,2,374,
scooby_state_4049e5|45|13 281,8,26,4,3,1,7,5,6,4,2,3,7,3,13,373,
scooby_state_4048bc|45|0 356,0,2,1,2,0,1,1,1,2,1,3,0,1,1,372,
scooby_state_403cc0|17|0 365,0,2,0,2,0,2,0,0,0,0,0,0,1,0,372,
scooby_state_4049e5|3|3 122,1,1,242,1,0,0,1,1,0,1,0,1,1,0,372,
scooby_state_40483f|60|0 355,1,2,1,4,3,1,1,0,1,0,0,1,1,0,371,
scooby_state_403cc0|41|0 367,0,0,0,0,0,0,0,0,0,0,0,0,1,2,370,
scooby_state_4049e5|31|-1 271,38,4,21,3,4,3,6,1,1,6,1,1,0,9,369,
scooby_state_4049e5|55|1 283,2,50,4,2,3,3,1,4,5,0,4,2,1,5,369,
scooby_state_403cc0|38|0 363,0,0,0,1,0,1,0,1,1,0,0,1,0,1,369,
scooby_state_4049e5|12|3 116,0,0,244,3,0,1,0,0,1,1,1,1,0,0,368,
scooby_state_40483f|9|0 359,0,0,2,1,3,0,0,1,0,0,1,0,0,0,367,
scooby_state_4049e5|3|-18 249,5,3,11,5,3,6,14,10,5,8,15,3,6,23,366,
scooby_state_40482f|5|1 278,0,3,2,0,1,1,1,0,1,2,73,1,1,2,366,
scooby_state_4049e5|26|1 317,0,25,3,4,0,2,0,4,3,2,3,2,1,0,366,
scooby_state_4049e5|21|6 266,3,2,69,4,2,2,2,3,1,0,4,2,3,2,365,
scooby_state_4049e5|22|21 153,4,6,2,6,187,2,1,1,1,0,0,0,0,0,363,
scooby_state_4049e5|21|-33 305,2,3,4,9,3,4,3,1,1,4,3,2,5,14,363,
scooby_state_40483c|38|0 354,0,2,1,1,1,0,1,1,1,1,0,0,0,0,363,
scooby_state_403cc0|24|0 360,0,0,0,0,0,0,0,0,0,0,1,1,1,0,363,
scooby_state_4049e5|63|9 254,0,48,5,4,4,6,7,2,5,2,12,2,1,11,363,
scooby_state_4048b4|39|0 344,0,1,0,3,1,1,1,3,2,1,2,1,1,2,363,
scooby_state_4049e5|5|5 306,10,1,11,2,3,0,0,0,0,1,2,1,0,25,362,
scooby_state_403cc0|26|0 358,0,0,0,2,0,0,0,0,0,0,1,0,1,0,362,
scooby_state_4049e5|36|4 275,4,43,10,0,2,4,4,1,1,4,1,3,2,8,362,
scooby_state_4049e5|49|42 261,5,14,16,1,3,10,1,5,0,2,7,3,5,29,362,
scooby_state_4049e5|45|39 230,0,8,5,3,6,3,3,2,1,1,87,4,4,5,362,
scooby_state_4049e5|49|7 259,20,10,37,4,5,1,2,3,2,2,1,5,5,6,362,
scooby_state_4049e5|58|4 212,18,50,33,4,2,2,1,5,3,1,3,9,4,14,361,
scooby_state_4049e5|46|15 305,11,6,4,3,2,1,6,1,1,1,2,0,3,15,361,
scooby_state_4049de|45|44 266,7,4,6,4,6,6,5,4,4,5,13,3,9,19,361,
scooby_state_4049e5|17|5 281,7,0,5,6,3,2,2,0,2,2,1,3,0,47,361,
scooby_state_4049e5|46|26 321,8,2,7,2,1,1,1,3,1,0,2,2,3,7,361,
scooby_state_4049e5|11|10 294,19,4,19,1,0,3,1,5,2,0,1,1,3,8,361,
scooby_state_4048b4|4|0 355,0,0,1,0,0,0,0,0,0,0,2,0,0,2,360,
scooby_state_403cc0|57|0 356,0,0,0,1,0,0,0,0,3,0,0,0,0,0,360,
scooby_state_4049e5|40|-18 292,3,5,5,4,1,3,5,3,2,6,9,3,3,15,359,
scooby_state_40482f|21|1 276,2,1,1,2,2,2,2,2,1,1,60,2,2,3,359,
scooby_state_40482f|8|1 279,0,1,1,2,1,1,2,2,1,2,58,2,1,5,358,
scooby_state_4049e5|3|-10 276,0,2,12,2,3,0,0,6,3,0,27,2,1,24,358,
scooby_state_4048bc|19|0 353,0,1,0,0,0,0,0,0,0,0,0,0,1,2,357,
scooby_state_40483f|43|0 343,1,0,2,1,3,1,0,2,1,1,1,0,0,1,357,
scooby_state_4048bc|53|0 338,1,5,1,1,2,1,1,1,1,0,1,1,2,1,357,
scooby_state_4049e5|59|2 241,6,0,93,2,8,0,1,1,1,1,0,1,1,1,357,
scooby_state_403cc0|21|0 351,0,2,0,0,0,0,0,0,0,1,0,0,1,1,356,
scooby_state_40483c|56|0 346,0,1,1,1,3,1,1,2,0,0,0,0,0,0,356,
scooby_state_4049e5|27|3 103,0,0,240,7,0,2,1,0,0,0,0,0,0,3,356,
scooby_state_403cc0|27|0 350,1,2,1,0,0,2,0,0,0,0,0,0,0,0,356,
scooby_state_403cc0|4|0 346,0,1,1,3,0,1,1,0,0,0,0,1,0,2,356,
scooby_state_4049e5|1|-53 302,38,15,0,1,0,0,0,0,0,0,0,0,0,0,356,
scooby_state_403cc0|60|0 352,0,0,0,0,0,1,0,0,0,2,0,0,0,0,355,
scooby_state_4049e5|46|11 223,8,3,6,73,2,5,4,2,4,3,3,3,5,11,355,
scooby_state_4049e5|56|7 296,7,3,23,0,3,1,0,2,3,2,2,4,6,3,355,
scooby_state_403cc0|11|0 351,0,1,0,0,0,1,1,0,0,0,0,1,0,0,355,
scooby_state_4049e5|38|-3 282,0,11,25,1,4,3,2,5,3,3,2,7,1,5,354,
scooby_state_4049e5|43|13 271,8,29,2,0,7,1,0,3,1,0,4,4,2,22,354,
scooby_state_403cc0|50|0 343,1,1,1,1,2,0,0,1,0,1,1,0,2,0,354,
scooby_state_4049e5|42|-8 312,1,0,3,3,3,5,1,3,3,3,4,2,2,9,354,
scooby_state_4049e5|6|-2 259,15,3,40,9,2,1,2,2,0,3,0,2,1,15,354,
scooby_state_4048b1|2|-1 309,2,3,2,6,4,3,3,2,2,5,2,4,3,4,354,
scooby_state_4049e5|56|1 250,3,71,2,1,4,5,2,2,4,0,4,1,0,4,353,
scooby_state_4049e5|38|5 312,4,2,5,1,2,2,1,2,0,1,0,0,1,20,353,
scooby_state_403cc0|47|0 345,0,2,0,1,0,0,1,2,0,0,0,0,0,2,353,
scooby_state_4049e5|23|4 245,8,38,21,3,1,2,1,2,3,0,4,7,3,15,353,
scooby_state_403cc0|40|0 348,0,0,0,0,1,1,1,0,0,0,0,0,2,0,353,
scooby_state_403cc0|14|0 348,1,0,0,0,0,1,1,0,0,0,1,0,1,0,353,
scooby_state_4048b4|33|0 342,0,1,1,1,0,1,0,0,1,0,1,2,1,2,353,
scooby_state_40483f|11|0 334,1,2,0,2,6,2,0,0,1,2,0,0,1,1,352,
scooby_state_40483c|30|0 345,1,0,0,0,2,1,1,1,0,0,0,0,0,0,351,
scooby_state_4049e5|55|2 258,3,1,55,3,17,2,0,1,1,1,2,1,0,5,350,
scooby_state_403cc0|49|0 340,1,2,0,0,0,3,1,0,0,0,0,1,1,1,350,
scooby_state_40482f|39|1 270,2,2,3,3,2,2,2,1,2,2,48,2,3,5,349,
scooby_state_403e94|36|1 0,0,1,1,0,0,1,1,1,0,1,341,2,0,0,349,
scooby_state_40482f|43|1 276,2,1,1,2,1,2,2,1,0,1,52,2,2,4,349,
scooby_state_4049e5|30|8 293,7,3,6,5,0,1,0,2,0,1,4,5,1,20,348,
scooby_state_40482f|35|1 247,1,2,4,2,3,2,5,2,4,3,57,4,4,8,348,
scooby_state_403cc0|62|0 344,0,1,0,0,0,1,0,0,0,1,1,0,0,0,348,
scooby_state_4049e5|59|10 272,28,3,31,2,0,0,1,4,0,0,2,0,0,5,348,
scooby_state_403cc0|15|0 341,1,2,0,1,0,2,1,0,0,0,0,0,0,0,348,
scooby_state_4048b8|45|0 332,1,1,1,2,2,1,1,1,0,1,1,2,1,0,347,
scooby_state_4049e5|0|-8 274,0,3,3,2,5,4,4,1,4,0,5,4,5,33,347,
scooby_state_403cc0|52|0 343,0,2,0,0,0,0,0,2,0,0,0,0,0,0,347,
scooby_state_403cc0|13|0 341,0,0,2,0,0,0,2,0,0,1,0,0,0,0,346,
[...]
scooby_state_403d6c|25|-1 1,0,0,0,0,0,0,0,0,0,0,0,0,0,0,1,
scooby_state_403d13|26|16 0,0,0,0,0,0,0,0,0,0,0,1,0,0,0,1,
scooby_state_403d13|58|0 1,0,0,0,0,0,0,0,0,0,0,0,0,0,0,1,
scooby_state_403d8d|1|-36 1,0,0,0,0,0,0,0,0,0,0,0,0,0,0,1,
scooby_state_403ce0|57|-1 1,0,0,0,0,0,0,0,0,0,0,0,0,0,0,1,
scooby_state_403ce9|58|23 1,0,0,0,0,0,0,0,0,0,0,0,0,0,0,1,
scooby_state_407480|18|0 1,0,0,0,0,0,0,0,0,0,0,0,0,0,0,1,
scooby_state_403ce9|17|2 0,0,0,1,0,0,0,0,0,0,0,0,0,0,0,1,
scooby_state_403d8d|27|2 1,0,0,0,0,0,0,0,0,0,0,0,0,0,0,1,
scooby_state_4048bc|4|-25 1,0,0,0,0,0,0,0,0,0,0,0,0,0,0,1,
scooby_state_404826|31|10 1,0,0,0,0,0,0,0,0,0,0,0,0,0,0,1,
scooby_state_403ce9|61|33 0,0,0,0,0,1,0,0,0,0,0,0,0,0,0,1,
scooby_state_403e50|62|53 0,0,0,0,0,0,0,0,0,0,0,1,0,0,0,1,
scooby_state_4048bc|40|6 0,0,0,1,0,0,0,0,0,0,0,0,0,0,0,1,
scooby_state_403ee2|36|10 1,0,0,0,0,0,0,0,0,0,0,0,0,0,0,1,
scooby_state_403ce9|57|52 1,0,0,0,0,0,0,0,0,0,0,0,0,0,0,1,
scooby_state_403ce0|41|-1 1,0,0,0,0,0,0,0,0,0,0,0,0,0,0,1,
scooby_state_403d8d|22|1 1,0,0,0,0,0,0,0,0,0,0,0,0,0,0,1,
scooby_state_403d28|63|1 1,0,0,0,0,0,0,0,0,0,0,0,0,0,0,1,
scooby_state_403d8d|38|-8 1,0,0,0,0,0,0,0,0,0,0,0,0,0,0,1,
scooby_state_403d17|2|1 1,0,0,0,0,0,0,0,0,0,0,0,0,0,0,1,
scooby_state_403d8d|17|2 1,0,0,0,0,0,0,0,0,0,0,0,0,0,0,1,
scooby_state_403d13|16|-15 0,1,0,0,0,0,0,0,0,0,0,0,0,0,0,1,
scooby_state_403d76|46|0 1,0,0,0,0,0,0,0,0,0,0,0,0,0,0,1,
scooby_state_403d28|31|1 1,0,0,0,0,0,0,0,0,0,0,0,0,0,0,1,
scooby_state_403d13|30|26 0,1,0,0,0,0,0,0,0,0,0,0,0,0,0,1,
scooby_state_4045e1|27|0 0,0,0,0,0,0,0,0,0,0,0,0,1,0,0,1,
scooby_state_403d13|21|21 1,0,0,0,0,0,0,0,0,0,0,0,0,0,0,1,
scooby_state_403e94|2|-4 0,0,0,0,0,0,0,0,0,0,0,1,0,0,0,1,
scooby_state_403d13|42|26 0,1,0,0,0,0,0,0,0,0,0,0,0,0,0,1,
scooby_state_403d13|13|0 1,0,0,0,0,0,0,0,0,0,0,0,0,0,0,1,
scooby_state_403d13|55|-6 1,0,0,0,0,0,0,0,0,0,0,0,0,0,0,1,
scooby_state_403d76|48|-12 1,0,0,0,0,0,0,0,0,0,0,0,0,0,0,1,
scooby_state_403f18|36|1 0,0,0,0,0,0,0,1,0,0,0,0,0,0,0,1,
scooby_state_403d28|61|0 0,0,0,0,0,0,0,0,0,0,0,1,0,0,0,1,
scooby_state_4048bc|58|27 1,0,0,0,0,0,0,0,0,0,0,0,0,0,0,1,
scooby_state_4048bc|54|3 1,0,0,0,0,0,0,0,0,0,0,0,0,0,0,1,
scooby_state_403e54|9|-13 0,0,0,0,0,0,0,0,0,1,0,0,0,0,0,1,
scooby_state_403eec|51|-5 1,0,0,0,0,0,0,0,0,0,0,0,0,0,0,1,
scooby_state_4048bc|54|-4 1,0,0,0,0,0,0,0,0,0,0,0,0,0,0,1,
scooby_state_403d17|18|1 1,0,0,0,0,0,0,0,0,0,0,0,0,0,0,1,
scooby_state_403ce9|61|4 1,0,0,0,0,0,0,0,0,0,0,0,0,0,0,1,
scooby_state_404844|59|2 0,0,0,0,0,0,0,0,0,0,0,0,0,0,1,1,
scooby_state_4048bc|12|-13 0,1,0,0,0,0,0,0,0,0,0,0,0,0,0,1,
scooby_state_4048b4|53|6 0,0,0,0,0,0,0,0,0,0,0,0,0,1,0,1,
scooby_state_40459f|10|-1 1,0,0,0,0,0,0,0,0,0,0,0,0,0,0,1,
scooby_state_403cc0|16|-14 1,0,0,0,0,0,0,0,0,0,0,0,0,0,0,1,
scooby_state_40483f|25|11 1,0,0,0,0,0,0,0,0,0,0,0,0,0,0,1,
scooby_state_403e60|41|1 0,0,0,0,0,0,0,0,0,0,0,1,0,0,0,1,
scooby_state_403d8d|4|2 1,0,0,0,0,0,0,0,0,0,0,0,0,0,0,1,
scooby_state_4048bc|48|33 1,0,0,0,0,0,0,0,0,0,0,0,0,0,0,1,
scooby_state_403e90|18|4 0,0,0,0,0,0,0,0,0,0,0,1,0,0,0,1,
scooby_state_404844|16|1 0,0,0,0,0,0,0,0,0,0,1,0,0,0,0,1,
scooby_state_4048bf|8|1 1,0,0,0,0,0,0,0,0,0,0,0,0,0,0,1,
scooby_state_403eb4|13|-16 1,0,0,0,0,0,0,0,0,0,0,0,0,0,0,1,
scooby_state_403f02|0|-20 0,0,0,0,0,0,0,0,0,0,0,1,0,0,0,1,
scooby_state_403eb4|63|21 1,0,0,0,0,0,0,0,0,0,0,0,0,0,0,1,
scooby_state_403d28|10|0 0,0,0,0,0,0,0,0,0,0,0,1,0,0,0,1,
scooby_state_403e94|28|-6 0,0,0,0,0,0,0,0,0,0,0,1,0,0,0,1,
scooby_state_403d28|39|-2 0,0,0,0,0,0,1,0,0,0,0,0,0,0,0,1,
scooby_state_404844|10|4 0,0,0,0,0,0,0,0,1,0,0,0,0,0,0,1,
scooby_state_403cc6|0|-16 1,0,0,0,0,0,0,0,0,0,0,0,0,0,0,1,
scooby_state_404844|56|4 0,0,0,0,0,0,0,0,0,0,0,0,0,0,1,1,
scooby_state_4048e0|21|4 0,0,0,0,0,0,0,1,0,0,0,0,0,0,0,1,
scooby_state_403ed7|0|-1 0,1,0,0,0,0,0,0,0,0,0,0,0,0,0,1,
scooby_state_403ca9|61|39 0,0,0,0,0,1,0,0,0,0,0,0,0,0,0,1,
scooby_state_4048bc|4|-55 1,0,0,0,0,0,0,0,0,0,0,0,0,0,0,1,
scooby_state_4048aa|26|-9 0,0,0,1,0,0,0,0,0,0,0,0,0,0,0,1,
scooby_state_403e54|33|21 0,0,0,0,0,1,0,0,0,0,0,0,0,0,0,1,
scooby_state_4048bc|63|46 1,0,0,0,0,0,0,0,0,0,0,0,0,0,0,1,
scooby_state_4048e0|39|4 0,0,0,0,0,0,0,0,1,0,0,0,0,0,0,1,
scooby_state_403e94|42|23 0,0,0,0,0,0,0,0,0,0,0,1,0,0,0,1,
scooby_state_403cc6|0|-43 0,0,0,0,1,0,0,0,0,0,0,0,0,0,0,1,
scooby_state_403e60|42|0 0,0,0,0,0,0,0,0,0,0,0,1,0,0,0,1,
scooby_state_403e94|41|23 0,0,0,0,0,0,0,0,0,0,0,1,0,0,0,1,
scooby_state_40483f|2|-54 0,0,0,0,0,0,0,0,0,0,0,0,0,1,0,1,
scooby_state_403e50|44|-15 1,0,0,0,0,0,0,0,0,0,0,0,0,0,0,1,
scooby_state_4048bc|28|8 1,0,0,0,0,0,0,0,0,0,0,0,0,0,0,1,
scooby_state_404844|33|16 0,1,0,0,0,0,0,0,0,0,0,0,0,0,0,1,
scooby_state_403e94|44|5 0,0,0,0,0,0,0,0,0,0,0,1,0,0,0,1,
scooby_state_403d17|36|1 0,1,0,0,0,0,0,0,0,0,0,0,0,0,0,1,
scooby_state_403ce9|48|10 1,0,0,0,0,0,0,0,0,0,0,0,0,0,0,1,
scooby_state_403ce9|45|16 1,0,0,0,0,0,0,0,0,0,0,0,0,0,0,1,
scooby_state_404826|21|6 0,0,0,0,0,0,0,0,0,0,0,1,0,0,0,1,
scooby_state_4045db|38|1 0,0,0,0,0,0,0,0,0,0,0,0,0,1,0,1,
scooby_state_403cc0|10|-37 1,0,0,0,0,0,0,0,0,0,0,0,0,0,0,1,
scooby_state_4048bc|45|-14 1,0,0,0,0,0,0,0,0,0,0,0,0,0,0,1,
scooby_state_404648|12|0 1,0,0,0,0,0,0,0,0,0,0,0,0,0,0,1,
scooby_state_4048aa|0|-46 1,0,0,0,0,0,0,0,0,0,0,0,0,0,0,1,
scooby_state_40483f|48|-11 1,0,0,0,0,0,0,0,0,0,0,0,0,0,0,1,
scooby_state_403cc0|17|-26 0,0,0,0,0,0,0,0,0,0,0,0,0,0,1,1,
scooby_state_4045db|25|0 0,0,0,0,0,0,0,1,0,0,0,0,0,0,0,1,
scooby_state_4048bc|9|6 1,0,0,0,0,0,0,0,0,0,0,0,0,0,0,1,
scooby_state_4048e0|9|1 1,0,0,0,0,0,0,0,0,0,0,0,0,0,0,1,
scooby_state_403cc0|11|-29 1,0,0,0,0,0,0,0,0,0,0,0,0,0,0,1,
scooby_state_403ce9|63|46 1,0,0,0,0,0,0,0,0,0,0,0,0,0,0,1,
scooby_state_40483f|5|4 1,0,0,0,0,0,0,0,0,0,0,0,0,0,0,1,
scooby_state_403e94|32|-1 0,0,0,0,0,1,0,0,0,0,0,0,0,0,0,1,
scooby_state_403ce9|51|20 0,0,0,0,0,0,0,0,0,0,0,1,0,0,0,1,
scooby_state_403ce9|1|-7 0,0,0,0,0,1,0,0,0,0,0,0,0,0,0,1,
scooby_state_4048bc|6|-36 1,0,0,0,0,0,0,0,0,0,0,0,0,0,0,1,
scooby_state_407045|1|1 1,0,0,0,0,0,0,0,0,0,0,0,0,0,0,1,
scooby_state_403ce9|2|2 0,0,0,0,0,1,0,0,0,0,0,0,0,0,0,1,
scooby_state_403ce9|9|-22 0,0,0,0,0,0,0,0,0,0,0,1,0,0,0,1,
scooby_state_4048bc|61|60 1,0,0,0,0,0,0,0,0,0,0,0,0,0,0,1,
scooby_state_40483f|24|6 1,0,0,0,0,0,0,0,0,0,0,0,0,0,0,1,
scooby_state_404844|14|-40 0,1,0,0,0,0,0,0,0,0,0,0,0,0,0,1,
scooby_state_40483f|19|-26 0,0,0,0,1,0,0,0,0,0,0,0,0,0,0,1,
scooby_state_4060d3|3|-60 1,0,0,0,0,0,0,0,0,0,0,0,0,0,0,1,
scooby_state_403d8d|31|2 1,0,0,0,0,0,0,0,0,0,0,0,0,0,0,1,
scooby_state_403e94|33|2 0,0,0,0,0,0,0,0,0,0,0,1,0,0,0,1,
scooby_state_404844|2|-49 1,0,0,0,0,0,0,0,0,0,0,0,0,0,0,1,
scooby_state_4048bc|28|-15 1,0,0,0,0,0,0,0,0,0,0,0,0,0,0,1,
scooby_state_40483f|43|-5 1,0,0,0,0,0,0,0,0,0,0,0,0,0,0,1,
scooby_state_4045e1|29|-3 0,0,0,0,0,0,0,0,0,0,0,0,0,0,1,1,
scooby_state_405fc0|63|2 1,0,0,0,0,0,0,0,0,0,0,0,0,0,0,1,
scooby_state_403cc0|15|-10 1,0,0,0,0,0,0,0,0,0,0,0,0,0,0,1,
scooby_state_403eb4|46|-2 1,0,0,0,0,0,0,0,0,0,0,0,0,0,0,1,
scooby_state_404826|34|33 0,1,0,0,0,0,0,0,0,0,0,0,0,0,0,1,
scooby_state_403ce9|23|-39 1,0,0,0,0,0,0,0,0,0,0,0,0,0,0,1,
scooby_state_4045e1|0|0 0,0,0,0,0,0,0,0,0,0,0,0,0,0,1,1,
scooby_state_407d44|53|1 1,0,0,0,0,0,0,0,0,0,0,0,0,0,0,1,
scooby_state_4048b4|61|54 0,0,0,0,0,0,0,1,0,0,0,0,0,0,0,1,
scooby_state_403e94|2|-59 0,0,0,0,0,0,0,0,0,0,0,1,0,0,0,1,
scooby_state_40483f|25|-7 1,0,0,0,0,0,0,0,0,0,0,0,0,0,0,1,
scooby_state_403ce9|16|-45 0,0,0,0,1,0,0,0,0,0,0,0,0,0,0,1,
scooby_state_4048bc|40|15 1,0,0,0,0,0,0,0,0,0,0,0,0,0,0,1,
scooby_state_403ce9|18|5 1,0,0,0,0,0,0,0,0,0,0,0,0,0,0,1,
scooby_state_4049e5|34|1 1,0,0,0,0,0,0,0,0,0,0,0,0,0,0,1,
scooby_state_403eb4|43|3 1,0,0,0,0,0,0,0,0,0,0,0,0,0,0,1,
scooby_state_403ee2|37|32 1,0,0,0,0,0,0,0,0,0,0,0,0,0,0,1,
scooby_state_40483f|5|-3 0,0,0,1,0,0,0,0,0,0,0,0,0,0,0,1,
scooby_state_4048bc|25|-4 1,0,0,0,0,0,0,0,0,0,0,0,0,0,0,1,
scooby_state_403d76|40|0 0,0,1,0,0,0,0,0,0,0,0,0,0,0,0,1,
scooby_state_4048c3|39|29 1,0,0,0,0,0,0,0,0,0,0,0,0,0,0,1,
scooby_state_404826|22|-1 0,0,0,0,0,0,0,0,0,0,0,1,0,0,0,1,
scooby_state_406302|12|1 1,0,0,0,0,0,0,0,0,0,0,0,0,0,0,1,
scooby_state_4048bc|42|40 0,0,0,0,0,0,0,0,0,0,0,1,0,0,0,1,
scooby_state_40482f|32|-28 0,0,0,0,0,0,0,0,0,0,0,1,0,0,0,1,
scooby_state_40483f|4|-26 0,0,0,0,0,0,1,0,0,0,0,0,0,0,0,1,
scooby_state_404fc0|63|1 1,0,0,0,0,0,0,0,0,0,0,0,0,0,0,1,
scooby_state_4048c3|6|-33 0,0,0,1,0,0,0,0,0,0,0,0,0,0,0,1,
scooby_state_403cc0|49|28 0,0,0,0,0,0,0,0,0,0,0,1,0,0,0,1,
scooby_state_4045db|53|0 0,0,0,0,0,0,0,0,0,0,0,0,1,0,0,1,
scooby_state_403ce9|3|-16 1,0,0,0,0,0,0,0,0,0,0,0,0,0,0,1,
scooby_state_403d4d|30|21 1,0,0,0,0,0,0,0,0,0,0,0,0,0,0,1,
scooby_state_403d6c|63|0 1,0,0,0,0,0,0,0,0,0,0,0,0,0,0,1,
scooby_state_4048bc|1|-34 0,1,0,0,0,0,0,0,0,0,0,0,0,0,0,1,
scooby_state_403ce9|12|-13 1,0,0,0,0,0,0,0,0,0,0,0,0,0,0,1,
scooby_state_404844|48|5 1,0,0,0,0,0,0,0,0,0,0,0,0,0,0,1,
scooby_state_403e50|3|-44 0,0,0,0,0,0,0,0,0,0,0,0,0,0,1,1,
scooby_state_4048b4|2|1 0,0,0,0,0,0,0,0,0,0,0,1,0,0,0,1,
scooby_state_403d13|11|-29 1,0,0,0,0,0,0,0,0,0,0,0,0,0,0,1,
scooby_state_403ca9|41|-22 1,0,0,0,0,0,0,0,0,0,0,0,0,0,0,1,
scooby_state_403d6c|62|-1 1,0,0,0,0,0,0,0,0,0,0,0,0,0,0,1,
scooby_state_4048bc|52|13 1,0,0,0,0,0,0,0,0,0,0,0,0,0,0,1,
scooby_state_4048aa|1|-33 1,0,0,0,0,0,0,0,0,0,0,0,0,0,0,1,
scooby_state_403ce9|62|32 1,0,0,0,0,0,0,0,0,0,0,0,0,0,0,1,
scooby_state_4048bf|46|46 0,0,0,0,0,0,0,0,0,0,0,1,0,0,0,1,
scooby_state_4045db|13|1 0,0,0,0,0,0,0,0,0,0,0,0,0,0,1,1,
scooby_state_403e50|13|11 0,0,0,0,0,0,0,0,0,0,0,1,0,0,0,1,
scooby_state_403ce9|53|15 0,0,0,0,0,1,0,0,0,0,0,0,0,0,0,1,
scooby_state_403e50|22|17 0,0,0,0,0,0,0,0,0,0,0,1,0,0,0,1,
scooby_state_404d01|52|1 1,0,0,0,0,0,0,0,0,0,0,0,0,0,0,1,
scooby_state_403cc0|58|23 1,0,0,0,0,0,0,0,0,0,0,0,0,0,0,1,
scooby_state_408401|16|1 1,0,0,0,0,0,0,0,0,0,0,0,0,0,0,1,
scooby_state_403e94|30|4 1,0,0,0,0,0,0,0,0,0,0,0,0,0,0,1,
scooby_state_4048bc|59|16 0,0,0,0,0,0,0,0,0,0,0,0,0,1,0,1,
scooby_state_40459f|63|27 0,0,0,0,0,0,0,0,0,0,0,0,0,0,1,1,
scooby_state_403eb4|35|-12 1,0,0,0,0,0,0,0,0,0,0,0,0,0,0,1,
scooby_state_403ee2|31|-24 1,0,0,0,0,0,0,0,0,0,0,0,0,0,0,1,
scooby_state_403d8d|59|0 1,0,0,0,0,0,0,0,0,0,0,0,0,0,0,1,
scooby_state_4045e1|34|1 1,0,0,0,0,0,0,0,0,0,0,0,0,0,0,1,
scooby_state_403ce9|16|-34 1,0,0,0,0,0,0,0,0,0,0,0,0,0,0,1,
scooby_state_403e60|46|41 0,0,0,0,0,0,0,0,0,0,0,1,0,0,0,1,
scooby_state_403ce9|6|-23 0,0,0,0,0,0,0,0,0,0,0,1,0,0,0,1,
scooby_state_4048c3|28|15 0,0,0,0,0,1,0,0,0,0,0,0,0,0,0,1,
scooby_state_40483f|7|-6 1,0,0,0,0,0,0,0,0,0,0,0,0,0,0,1,
scooby_state_403ca9|46|-1 0,0,0,0,0,0,0,0,0,0,0,1,0,0,0,1,
scooby_state_4048bc|3|-6 1,0,0,0,0,0,0,0,0,0,0,0,0,0,0,1,
scooby_state_4048b4|27|1 0,0,0,0,0,0,0,0,0,0,0,1,0,0,0,1,
scooby_state_403ca9|31|-1 0,0,0,0,0,0,0,0,0,0,0,0,0,1,0,1,
scooby_state_403eec|24|-9 1,0,0,0,0,0,0,0,0,0,0,0,0,0,0,1,
scooby_state_403e60|38|30 0,0,0,0,0,0,0,0,0,0,0,1,0,0,0,1,
scooby_state_403ce9|34|28 0,0,0,0,0,0,0,0,0,1,0,0,0,0,0,1,
scooby_state_403e94|63|15 0,0,0,0,0,0,0,0,0,0,0,1,0,0,0,1,
scooby_state_403e60|41|38 0,0,0,0,0,0,0,0,0,0,0,1,0,0,0,1,
scooby_state_403ca9|11|-1 0,0,0,0,0,0,0,0,0,0,0,0,0,1,0,1,
scooby_state_403d76|2|-2 1,0,0,0,0,0,0,0,0,0,0,0,0,0,0,1,
scooby_state_403ce9|48|16 1,0,0,0,0,0,0,0,0,0,0,0,0,0,0,1,
scooby_state_403e64|63|61 0,1,0,0,0,0,0,0,0,0,0,0,0,0,0,1,
scooby_state_4045db|20|1 1,0,0,0,0,0,0,0,0,0,0,0,0,0,0,1,
scooby_state_4045db|63|0 0,0,0,0,0,0,0,0,0,0,0,0,0,1,0,1,
scooby_state_403d17|3|1 1,0,0,0,0,0,0,0,0,0,0,0,0,0,0,1,
scooby_state_403e94|62|16 0,0,0,0,0,0,0,0,0,0,0,1,0,0,0,1,
scooby_state_404844|6|-49 1,0,0,0,0,0,0,0,0,0,0,0,0,0,0,1,
scooby_state_403cc0|55|38 1,0,0,0,0,0,0,0,0,0,0,0,0,0,0,1,
scooby_state_4048bc|60|19 1,0,0,0,0,0,0,0,0,0,0,0,0,0,0,1,
scooby_state_4048bc|2|-54 1,0,0,0,0,0,0,0,0,0,0,0,0,0,0,1,
scooby_state_403c50|49|-11 1,0,0,0,0,0,0,0,0,0,0,0,0,0,0,1,
scooby_state_4045db|5|1 0,1,0,0,0,0,0,0,0,0,0,0,0,0,0,1,
scooby_state_403eec|32|-19 1,0,0,0,0,0,0,0,0,0,0,0,0,0,0,1,
scooby_state_403ce9|27|-11 1,0,0,0,0,0,0,0,0,0,0,0,0,0,0,1,
scooby_state_40483f|53|-1 0,0,0,0,0,1,0,0,0,0,0,0,0,0,0,1,
scooby_state_40483f|34|-4 1,0,0,0,0,0,0,0,0,0,0,0,0,0,0,1,
scooby_state_403e94|47|11 0,0,0,0,0,0,0,0,0,0,0,1,0,0,0,1,
scooby_state_403ce9|62|15 1,0,0,0,0,0,0,0,0,0,0,0,0,0,0,1,
scooby_state_403eb4|55|35 1,0,0,0,0,0,0,0,0,0,0,0,0,0,0,1,
scooby_state_40483f|39|-2 0,1,0,0,0,0,0,0,0,0,0,0,0,0,0,1,
scooby_state_403cc0|50|-6 1,0,0,0,0,0,0,0,0,0,0,0,0,0,0,1,
scooby_state_4048bc|27|-28 1,0,0,0,0,0,0,0,0,0,0,0,0,0,0,1,
scooby_state_4048b1|33|17 0,0,0,0,0,0,0,0,0,0,0,1,0,0,0,1,
scooby_state_403d76|20|0 1,0,0,0,0,0,0,0,0,0,0,0,0,0,0,1,

scooby_action_0_deg_dist 0,628493,0,0,0,0,0,0,0,0,0,0,0,0,0,0,
scooby_action_-6_deg_dist 0,11355,14,0,10,0,0,0,0,0,0,0,0,0,0,0,
scooby_action_4_deg_dist 0,19029,96,0,13,0,1,0,0,0,0,0,0,0,0,0,
scooby_action_1_deg_dist 0,5059524,171933,0,340631,0,1815856,0,0,0,0,0,0,0,0,0,
scooby_action_30_deg_dist 0,9353,13,0,1,0,0,0,0,0,0,0,0,0,0,0,
scooby_action_3_deg_dist 0,226077,78787,0,74444,0,0,0,0,0,0,0,0,0,0,0,
scooby_action_32_deg_dist 0,9275,15,0,1,0,0,0,0,0,0,0,0,0,0,0,
scooby_action_5_deg_dist 0,58217,2916,0,1071,0,251,0,0,0,0,0,0,0,0,0,
scooby_action_10_deg_dist 0,20312,1232,0,694,0,123,0,0,0,0,0,0,0,0,0,
scooby_action_11_deg_dist 0,264235,99925,0,55417,0,14530,0,0,0,0,0,0,0,0,0,
scooby_action_12_deg_dist 0,11783,33,0,5,0,0,0,0,0,0,0,0,0,0,0,
scooby_action_22_deg_dist 0,10220,18,0,0,0,0,0,0,0,0,0,0,0,0,0,
scooby_action_23_deg_dist 0,10453,19,0,1,0,0,0,0,0,0,0,0,0,0,0,
scooby_action_-1_deg_dist 0,61655,406,0,37,0,1,0,0,0,0,0,0,0,0,0,
scooby_action_-3_deg_dist 0,12102,15,0,7,0,0,0,0,0,0,0,0,0,0,0,

scooby_track_called 9070599
scooby_track_same_address 404606
scooby_track_evict 8665737

scooby_reward_demand_called 9070599
scooby_reward_demand_pt_not_found 6213123
scooby_reward_demand_pt_found 2857476
scooby_reward_demand_pt_found_total 2857476
scooby_reward_demand_has_reward 855
scooby_reward_train_called 5572658
scooby_reward_assign_reward_called 8665812
scooby_reward_no_pref 628458
scooby_reward_incorrect 4944200
scooby_reward_correct_untimely 2189109
scooby_reward_correct_timely 667512
scooby_reward_out_of_bounds 236533
scooby_reward_tracker_hit 0

scooby_reward_none_low_bw 628458
scooby_reward_none_high_bw 0
scooby_reward_incorrect_low_bw 4944200
scooby_reward_incorrect_high_bw 0
scooby_reward_correct_untimely_low_bw 2189109
scooby_reward_correct_untimely_high_bw 0
scooby_reward_correct_timely_low_bw 667512
scooby_reward_correct_timely_high_bw 0
scooby_reward_out_of_bounds_low_bw 236533
scooby_reward_out_of_bounds_high_bw 0
scooby_reward_tracker_hit_low_bw 0
scooby_reward_tracker_hit_high_bw 0

scooby_reward_1 0,4750864,1819385,314111,113955,0,
scooby_reward_3 0,17945,260160,77116,17782,0,
scooby_reward_4 0,14311,597,1357,1370,0,
scooby_reward_5 0,44658,4414,7093,5490,0,
scooby_reward_10 0,12703,1346,4425,3509,0,
scooby_reward_11 0,16352,85617,257448,73958,0,
scooby_reward_12 0,8357,116,590,2236,0,
scooby_reward_22 0,6139,39,460,3336,0,
scooby_reward_23 0,5990,51,533,3687,0,
scooby_reward_30 0,4628,30,365,4250,0,
scooby_reward_32 0,4312,15,295,4330,0,
scooby_reward_-1 0,38450,17242,3284,1007,0,
scooby_reward_-3 0,10205,69,248,641,0,
scooby_reward_-6 0,9286,28,187,982,0,
scooby_reward_0 628458,0,0,0,0,0,

scooby_train_called 8665736
scooby_train_compute_reward 5572658

scooby_register_fill_called 7161378
scooby_register_fill_set 5201554
scooby_register_fill_set_total 5201554

scooby_register_prefetch_hit_called 3373541
scooby_register_prefetch_hit_set 1975092
scooby_register_prefetch_hit_set_total 1975092

scooby_pref_issue_scooby 16566902

learning_engine_featurewise.action.called 9070599
learning_engine_featurewise.action.explore 16418
learning_engine_featurewise.action.exploit 9054181
learning_engine_featurewise.action.fallback 4772486
learning_engine_featurewise.action.dyn_fallback_saved_bw 0
learning_engine_featurewise.action.dyn_fallback_saved_bw_acc 1128037
learning_engine_featurewise.action.index_1_explored 1125
learning_engine_featurewise.action.index_1_exploited 7386819
learning_engine_featurewise.action.index_3_explored 1080
learning_engine_featurewise.action.index_3_exploited 378228
learning_engine_featurewise.action.index_4_explored 1096
learning_engine_featurewise.action.index_4_exploited 18043
learning_engine_featurewise.action.index_5_explored 1059
learning_engine_featurewise.action.index_5_exploited 61396
learning_engine_featurewise.action.index_10_explored 1135
learning_engine_featurewise.action.index_10_exploited 21226
learning_engine_featurewise.action.index_11_explored 1101
learning_engine_featurewise.action.index_11_exploited 433006
learning_engine_featurewise.action.index_12_explored 1136
learning_engine_featurewise.action.index_12_exploited 10685
learning_engine_featurewise.action.index_22_explored 1100
learning_engine_featurewise.action.index_22_exploited 9138
learning_engine_featurewise.action.index_23_explored 1089
learning_engine_featurewise.action.index_23_exploited 9384
learning_engine_featurewise.action.index_30_explored 1077
learning_engine_featurewise.action.index_30_exploited 8290
learning_engine_featurewise.action.index_32_explored 1042
learning_engine_featurewise.action.index_32_exploited 8249
learning_engine_featurewise.action.index_-1_explored 1096
learning_engine_featurewise.action.index_-1_exploited 61003
learning_engine_featurewise.action.index_-3_explored 1085
learning_engine_featurewise.action.index_-3_exploited 11039
learning_engine_featurewise.action.index_-6_explored 1095
learning_engine_featurewise.action.index_-6_exploited 10284
learning_engine_featurewise.action.index_0_explored 1102
learning_engine_featurewise.action.index_0_exploited 627391
learning_engine_featurewise.learn.called 8665736
learning_engine_featurewise.learn.su_skip_PC 0
learning_engine_featurewise.learn.su_skip_PC_Delta 0

learning_engine_featurewise.q_value_histogram.bucket_0 675866
learning_engine_featurewise.q_value_histogram.bucket_1 38897
learning_engine_featurewise.q_value_histogram.bucket_2 4860846
learning_engine_featurewise.q_value_histogram.bucket_3 70064
learning_engine_featurewise.q_value_histogram.bucket_4 108798
learning_engine_featurewise.q_value_histogram.bucket_5 57495
learning_engine_featurewise.q_value_histogram.bucket_6 3242215
learning_engine_featurewise.q_value_histogram.bucket_7 0

learning_engine_featurewise.consensus.total 9054181
learning_engine_featurewise.consensus.feature_align_PC 8088209
learning_engine_featurewise.consensus.feature_align_PC_ratio 0.89
learning_engine_featurewise.consensus.feature_align_PC_Delta 8036718
learning_engine_featurewise.consensus.feature_align_PC_Delta_ratio 0.89
learning_engine_featurewise.consensus.feature_align_all 7784757
learning_engine_featurewise.consensus.feature_align_all_ratio 0.86

learning_engine_featurewise.feature_PC_min_weight 1000000.00000000
learning_engine_featurewise.feature_PC_max_weight 0.00000000
learning_engine_featurewise.feature_PC_Delta_min_weight 1000000.00000000
learning_engine_featurewise.feature_PC_Delta_max_weight 0.00000000
unique_pcs 192
unique_pages 51701
unique_trigger_pcs 89
total_bitmaps_seen 0
unique_bitmaps_seen 0

scooby_bw_epochs 1086219
scooby_bw_level_0 398383
scooby_bw_level_1 394512
scooby_bw_level_2 189135
scooby_bw_level_3 104189

scooby_ipc_epochs 0
scooby_ipc_level_0 0
scooby_ipc_level_1 0
scooby_ipc_level_2 0
scooby_ipc_level_3 0

scooby_cache_acc_epochs 266069
scooby_cache_acc_level_0 12275
scooby_cache_acc_level_1 7442
scooby_cache_acc_level_2 47933
scooby_cache_acc_level_3 111225
scooby_cache_acc_level_4 55644
scooby_cache_acc_level_5 19207
scooby_cache_acc_level_6 6421
scooby_cache_acc_level_7 2553
scooby_cache_acc_level_8 1153
scooby_cache_acc_level_9 2216

Channel_0_RQ_row_buffer_hit 1790105
Channel_0_RQ_row_buffer_miss 2261036
Channel_0_WQ_row_buffer_hit 14641
Channel_0_WQ_row_buffer_miss 35222
Channel_0_WQ_full 0
Channel_0_dbus_congested 1991920

avg_congested_cycle 9

DRAM_bw_pochs 1086219
DRAM_bw_level_0 398383
DRAM_bw_level_1 394512
DRAM_bw_level_2 189135
DRAM_bw_level_3 104189
