*************************************************
   ChampSim Multicore Out-of-Order Simulator
   Last compiled: Apr  3 2025 20:54:34
*************************************************
parsing config file: /home/zir/Pythia/config/pythia.ini

trace_0 /home/zir/ChampSim/ML-DPC/ChampSimTraces/spec06/429.mcf-s2.trace.gz
adding L2C_PREFETCHER: Scooby
Initialize SHIP state
warmup_instructions 10000000
simulation_instructions 50000000
champsim_seed 165
measure_ipc 0
measure_ipc_epoch 1000
measure_dram_bw 1
measure_dram_bw_epoch 256
measure_cache_acc 1
measure_cache_acc_epoch 1024
l1d_perfect 0
l2c_perfect 0
llc_perfect 0
l1d_semi_perfect 0
l2c_semi_perfect 0
llc_semi_perfect 0
semi_perfect_cache_page_buffer_size 64

num_cpus 1
cpu_freq 4000
dram_io_freq 2400
page_size 4096
block_size 64
max_read_per_cycle 8
max_fill_per_cycle 1
dram_channels 1
log2_dram_channels 0
dram_ranks 1
dram_banks 8
dram_rows 65536
dram_columns 128
dram_row_size 8
dram_size 4096
dram_pages 1048576

fetch_width 6
decode_width 6
exec_width 4
lq_width 2
sq_width 2
retire_width 4
scheduler_size 128
branch_mispredict_penalty 20
rob_size 256
lq_size 72
sq_size 56
num_instr_destinations_sparc 4
num_instr_destinations 2
num_instr_sources 4

itlb_set 16
itlb_way 8
itlb_rq_size 16
itlb_wq_size 16
itlb_pq_size 0
itlb_mshr_size 8
itlb_latency 1

dtlb_set 16
dtlb_way 4
dtlb_rq_size 16
dtlb_wq_size 16
dtlb_pq_size 0
dtlb_mshr_size 8
dtlb_latency 1

stlb_set 128
stlb_way 12
stlb_rq_size 32
stlb_wq_size 32
stlb_pq_size 0
stlb_mshr_size 16
stlb_latency 8

l1i_size 32
l1i_set 64
l1i_way 8
l1i_rq_size 64
l1i_wq_size 64
l1i_pq_size 8
l1i_mshr_size 8
l1i_latency 1

l1d_size 32
l1d_set 64
l1d_way 8
l1d_rq_size 64
l1d_wq_size 64
l1d_pq_size 8
l1d_mshr_size 16
l1d_latency 4

l2c_size 256
l2c_set 512
l2c_way 8
l2c_rq_size 32
l2c_wq_size 32
l2c_pq_size 32
l2c_mshr_size 32
l2c_latency 10

llc_size 2048
llc_set 2048
llc_way 16
llc_rq_size 32
llc_wq_size 32
llc_pq_size 32
llc_mshr_size 64
llc_latency 20

dram_channel_width 8
dram_wq_size 64
dram_rq_size 64
tRP 15
tRCD 15
tCAS 12.5
dram_dbus_turn_around_time 30
dram_write_high_wm 56
dram_write_low_wm 48
min_dram_writes_per_switch 16
dram_mtps 2400
dram_dbus_return_time 13

scooby_alpha 0.0065088
scooby_gamma 0.556301
scooby_epsilon 0.00182284
scooby_state_num_bits 10
scooby_max_states 1024
scooby_seed 200
scooby_policy EGreedy
scooby_learning_type SARSA
scooby_actions 1,3,4,5,10,11,12,22,23,30,32,-1,-3,-6,0,
scooby_max_actions 15
scooby_pt_size 256
scooby_st_size 64
scooby_max_pcs 5
scooby_max_offsets 5
scooby_max_deltas 5
scooby_reward_none -4
scooby_reward_incorrect -8
scooby_reward_correct_untimely 12
scooby_reward_correct_timely 20
scooby_brain_zero_init 0
scooby_enable_reward_all 0
scooby_enable_track_multiple 0
scooby_enable_reward_out_of_bounds 1
scooby_reward_out_of_bounds -12
scooby_state_type 1
scooby_state_hash_type 11
scooby_access_debug 0
scooby_print_access_debug 0
scooby_print_access_debug_pc deadbeef
scooby_print_access_debug_pc_count 0
scooby_print_trace 0
scooby_enable_state_action_stats 1
scooby_enable_reward_tracker_hit 0
scooby_reward_tracker_hit -2
scooby_enable_featurewise_engine 1
scooby_pref_degree 1
scooby_enable_dyn_degree 1
scooby_max_to_avg_q_thresholds 0.5,1,2,
scooby_dyn_degrees 1,2,4,4,
scooby_multi_deg_select_type 2
scooby_last_pref_offset_conf_thresholds 1,3,8,
scooby_dyn_degrees_type2 1,2,4,6,
scooby_action_tracker_size 2
scooby_high_bw_thresh 4
scooby_enable_hbw_reward 1
scooby_reward_hbw_correct_timely 20
scooby_reward_hbw_correct_untimely 12
scooby_reward_hbw_incorrect -14
scooby_reward_hbw_none -2
scooby_reward_hbw_out_of_bounds -12
scooby_reward_hbw_tracker_hit -2
scooby_last_pref_offset_conf_thresholds_hbw 1,3,8,
scooby_dyn_degrees_type2_hbw 1,2,4,6,

le_enable_trace 0
le_trace_interval 0
le_trace_file_name 
le_trace_state 0
le_enable_score_plot 0
le_plot_file_name 
le_plot_actions 
le_enable_action_trace 0
le_action_trace_interval 0
le_action_trace_name 
le_enable_action_plot 0

le_featurewise_active_features PC, PC_Delta
le_featurewise_num_tilings 3,3,
le_featurewise_num_tiles 128,128,
le_featurewise_hash_types 2,2,
le_featurewise_enable_tiling_offset 1,1,
le_featurewise_max_q_thresh 0.5
le_featurewise_enable_action_fallback 1
le_featurewise_feature_weights 1,1,
le_featurewise_enable_dynamic_weight 0
le_featurewise_weight_gradient 0.001
le_featurewise_disable_adjust_weight_all_features_align 1
le_featurewise_selective_update 0
le_featurewise_pooling_type 2
le_featurewise_enable_dyn_action_fallback 1
le_featurewise_bw_acc_check_level 1
le_featurewise_acc_thresh 2
le_featurewise_enable_trace 0
le_featurewise_trace_feature_type 0
le_featurewise_trace_feature 
le_featurewise_trace_interval 0
le_featurewise_trace_record_count 0
le_featurewise_trace_file_name 
le_featurewise_enable_score_plot 0
le_featurewise_plot_actions 
le_featurewise_plot_file_name 


Heartbeat CPU  0 instructions:    1000001 cycles:     990776 heartbeat IPC: 1.00931 cumulative IPC: 1.00931 (Simulation time: 0 hr 0 min 2 sec) 
Heartbeat CPU  0 instructions:    2000002 cycles:    1968297 heartbeat IPC: 1.02300 cumulative IPC: 1.01611 (Simulation time: 0 hr 0 min 4 sec) 
Heartbeat CPU  0 instructions:    3000003 cycles:    2847767 heartbeat IPC: 1.13705 cumulative IPC: 1.05346 (Simulation time: 0 hr 0 min 7 sec) 
Heartbeat CPU  0 instructions:    4000000 cycles:    3701394 heartbeat IPC: 1.17147 cumulative IPC: 1.08067 (Simulation time: 0 hr 0 min 10 sec) 
Heartbeat CPU  0 instructions:    5000000 cycles:    4657406 heartbeat IPC: 1.04601 cumulative IPC: 1.07356 (Simulation time: 0 hr 0 min 12 sec) 
Heartbeat CPU  0 instructions:    6000003 cycles:    5627607 heartbeat IPC: 1.03072 cumulative IPC: 1.06617 (Simulation time: 0 hr 0 min 14 sec) 
Heartbeat CPU  0 instructions:    7000002 cycles:    6418892 heartbeat IPC: 1.26377 cumulative IPC: 1.09053 (Simulation time: 0 hr 0 min 17 sec) 
Heartbeat CPU  0 instructions:    8000000 cycles:    7391746 heartbeat IPC: 1.02790 cumulative IPC: 1.08229 (Simulation time: 0 hr 0 min 20 sec) 
Heartbeat CPU  0 instructions:    9000001 cycles:    8291351 heartbeat IPC: 1.11160 cumulative IPC: 1.08547 (Simulation time: 0 hr 0 min 22 sec) 
Heartbeat CPU  0 instructions:   10000001 cycles:    9089905 heartbeat IPC: 1.25226 cumulative IPC: 1.10012 (Simulation time: 0 hr 0 min 25 sec) 

Warmup complete CPU  0 instructions:   10000001 cycles:    9089905 (Simulation time: 0 hr 0 min 25 sec) 

Heartbeat CPU  0 instructions:   11000002 cycles:   22060828 heartbeat IPC: 0.07710 cumulative IPC: 0.07710 (Simulation time: 0 hr 0 min 31 sec) 
Heartbeat CPU  0 instructions:   12000000 cycles:   27745761 heartbeat IPC: 0.17590 cumulative IPC: 0.10720 (Simulation time: 0 hr 0 min 35 sec) 
Heartbeat CPU  0 instructions:   13000000 cycles:   36306317 heartbeat IPC: 0.11681 cumulative IPC: 0.11023 (Simulation time: 0 hr 0 min 39 sec) 
Heartbeat CPU  0 instructions:   14000003 cycles:   52476582 heartbeat IPC: 0.06184 cumulative IPC: 0.09219 (Simulation time: 0 hr 0 min 46 sec) 
Heartbeat CPU  0 instructions:   15000000 cycles:   58381954 heartbeat IPC: 0.16934 cumulative IPC: 0.10144 (Simulation time: 0 hr 0 min 50 sec) 
Heartbeat CPU  0 instructions:   16000000 cycles:   63485923 heartbeat IPC: 0.19593 cumulative IPC: 0.11030 (Simulation time: 0 hr 0 min 54 sec) 
Heartbeat CPU  0 instructions:   17000002 cycles:   80236414 heartbeat IPC: 0.05970 cumulative IPC: 0.09839 (Simulation time: 0 hr 1 min 1 sec) 
Heartbeat CPU  0 instructions:   18000000 cycles:   87481407 heartbeat IPC: 0.13803 cumulative IPC: 0.10205 (Simulation time: 0 hr 1 min 6 sec) 
Heartbeat CPU  0 instructions:   19000001 cycles:   93469882 heartbeat IPC: 0.16699 cumulative IPC: 0.10666 (Simulation time: 0 hr 1 min 10 sec) 
Heartbeat CPU  0 instructions:   20000000 cycles:  108253241 heartbeat IPC: 0.06764 cumulative IPC: 0.10084 (Simulation time: 0 hr 1 min 16 sec) 
Heartbeat CPU  0 instructions:   21000001 cycles:  125797936 heartbeat IPC: 0.05700 cumulative IPC: 0.09425 (Simulation time: 0 hr 1 min 23 sec) 
Heartbeat CPU  0 instructions:   22000002 cycles:  131987554 heartbeat IPC: 0.16156 cumulative IPC: 0.09764 (Simulation time: 0 hr 1 min 28 sec) 
Heartbeat CPU  0 instructions:   23000001 cycles:  137182491 heartbeat IPC: 0.19249 cumulative IPC: 0.10149 (Simulation time: 0 hr 1 min 32 sec) 
Heartbeat CPU  0 instructions:   24000000 cycles:  151315218 heartbeat IPC: 0.07076 cumulative IPC: 0.09844 (Simulation time: 0 hr 1 min 38 sec) 
Heartbeat CPU  0 instructions:   25000002 cycles:  161010383 heartbeat IPC: 0.10314 cumulative IPC: 0.09874 (Simulation time: 0 hr 1 min 43 sec) 
Heartbeat CPU  0 instructions:   26000000 cycles:  166168390 heartbeat IPC: 0.19387 cumulative IPC: 0.10186 (Simulation time: 0 hr 1 min 47 sec) 
Heartbeat CPU  0 instructions:   27000000 cycles:  176873905 heartbeat IPC: 0.09341 cumulative IPC: 0.10132 (Simulation time: 0 hr 1 min 52 sec) 
Heartbeat CPU  0 instructions:   28000000 cycles:  190260636 heartbeat IPC: 0.07470 cumulative IPC: 0.09935 (Simulation time: 0 hr 1 min 58 sec) 
Heartbeat CPU  0 instructions:   29000001 cycles:  196189995 heartbeat IPC: 0.16865 cumulative IPC: 0.10155 (Simulation time: 0 hr 2 min 2 sec) 
Heartbeat CPU  0 instructions:   30000000 cycles:  204709642 heartbeat IPC: 0.11738 cumulative IPC: 0.10224 (Simulation time: 0 hr 2 min 7 sec) 
Heartbeat CPU  0 instructions:   31000001 cycles:  220202604 heartbeat IPC: 0.06455 cumulative IPC: 0.09947 (Simulation time: 0 hr 2 min 13 sec) 
Heartbeat CPU  0 instructions:   32000000 cycles:  226262170 heartbeat IPC: 0.16503 cumulative IPC: 0.10130 (Simulation time: 0 hr 2 min 18 sec) 
Heartbeat CPU  0 instructions:   33000001 cycles:  233772313 heartbeat IPC: 0.13315 cumulative IPC: 0.10237 (Simulation time: 0 hr 2 min 22 sec) 
Heartbeat CPU  0 instructions:   34000000 cycles:  250205102 heartbeat IPC: 0.06085 cumulative IPC: 0.09954 (Simulation time: 0 hr 2 min 29 sec) 
Heartbeat CPU  0 instructions:   35000000 cycles:  258319446 heartbeat IPC: 0.12324 cumulative IPC: 0.10031 (Simulation time: 0 hr 2 min 33 sec) 
Heartbeat CPU  0 instructions:   36000000 cycles:  265746660 heartbeat IPC: 0.13464 cumulative IPC: 0.10130 (Simulation time: 0 hr 2 min 38 sec) 
Heartbeat CPU  0 instructions:   37000002 cycles:  276976466 heartbeat IPC: 0.08905 cumulative IPC: 0.10079 (Simulation time: 0 hr 2 min 43 sec) 
Heartbeat CPU  0 instructions:   38000001 cycles:  289808947 heartbeat IPC: 0.07793 cumulative IPC: 0.09974 (Simulation time: 0 hr 2 min 49 sec) 
Heartbeat CPU  0 instructions:   39000000 cycles:  295264745 heartbeat IPC: 0.18329 cumulative IPC: 0.10134 (Simulation time: 0 hr 2 min 53 sec) 
Heartbeat CPU  0 instructions:   40000000 cycles:  302313134 heartbeat IPC: 0.14188 cumulative IPC: 0.10231 (Simulation time: 0 hr 2 min 57 sec) 
Heartbeat CPU  0 instructions:   41000000 cycles:  318511449 heartbeat IPC: 0.06173 cumulative IPC: 0.10019 (Simulation time: 0 hr 3 min 4 sec) 
Heartbeat CPU  0 instructions:   42000001 cycles:  324979075 heartbeat IPC: 0.15462 cumulative IPC: 0.10130 (Simulation time: 0 hr 3 min 8 sec) 
Heartbeat CPU  0 instructions:   43000000 cycles:  330271278 heartbeat IPC: 0.18896 cumulative IPC: 0.10275 (Simulation time: 0 hr 3 min 12 sec) 
Heartbeat CPU  0 instructions:   44000000 cycles:  344867792 heartbeat IPC: 0.06851 cumulative IPC: 0.10126 (Simulation time: 0 hr 3 min 18 sec) 
Heartbeat CPU  0 instructions:   45000001 cycles:  354255924 heartbeat IPC: 0.10652 cumulative IPC: 0.10140 (Simulation time: 0 hr 3 min 23 sec) 
Heartbeat CPU  0 instructions:   46000001 cycles:  359745896 heartbeat IPC: 0.18215 cumulative IPC: 0.10266 (Simulation time: 0 hr 3 min 27 sec) 
Heartbeat CPU  0 instructions:   47000002 cycles:  370311889 heartbeat IPC: 0.09464 cumulative IPC: 0.10243 (Simulation time: 0 hr 3 min 32 sec) 
Heartbeat CPU  0 instructions:   48000000 cycles:  383825919 heartbeat IPC: 0.07400 cumulative IPC: 0.10140 (Simulation time: 0 hr 3 min 38 sec) 
Heartbeat CPU  0 instructions:   49000001 cycles:  389849103 heartbeat IPC: 0.16603 cumulative IPC: 0.10243 (Simulation time: 0 hr 3 min 42 sec) 
Heartbeat CPU  0 instructions:   50000001 cycles:  397391954 heartbeat IPC: 0.13258 cumulative IPC: 0.10301 (Simulation time: 0 hr 3 min 46 sec) 
Heartbeat CPU  0 instructions:   51000001 cycles:  413607307 heartbeat IPC: 0.06167 cumulative IPC: 0.10136 (Simulation time: 0 hr 3 min 53 sec) 
Heartbeat CPU  0 instructions:   52000000 cycles:  419955646 heartbeat IPC: 0.15752 cumulative IPC: 0.10222 (Simulation time: 0 hr 3 min 57 sec) 
Heartbeat CPU  0 instructions:   53000000 cycles:  425487540 heartbeat IPC: 0.18077 cumulative IPC: 0.10327 (Simulation time: 0 hr 4 min 1 sec) 
Heartbeat CPU  0 instructions:   54000002 cycles:  442471374 heartbeat IPC: 0.05888 cumulative IPC: 0.10153 (Simulation time: 0 hr 4 min 8 sec) 
Heartbeat CPU  0 instructions:   55000002 cycles:  449717998 heartbeat IPC: 0.13800 cumulative IPC: 0.10213 (Simulation time: 0 hr 4 min 12 sec) 
Heartbeat CPU  0 instructions:   56000000 cycles:  455409547 heartbeat IPC: 0.17570 cumulative IPC: 0.10307 (Simulation time: 0 hr 4 min 16 sec) 
Heartbeat CPU  0 instructions:   57000000 cycles:  470048958 heartbeat IPC: 0.06831 cumulative IPC: 0.10196 (Simulation time: 0 hr 4 min 22 sec) 
Heartbeat CPU  0 instructions:   58000000 cycles:  479658724 heartbeat IPC: 0.10406 cumulative IPC: 0.10200 (Simulation time: 0 hr 4 min 27 sec) 
Heartbeat CPU  0 instructions:   59000002 cycles:  485363926 heartbeat IPC: 0.17528 cumulative IPC: 0.10288 (Simulation time: 0 hr 4 min 31 sec) 
Heartbeat CPU  0 instructions:   60000000 cycles:  498268697 heartbeat IPC: 0.07749 cumulative IPC: 0.10221 (Simulation time: 0 hr 4 min 37 sec) 
Finished CPU 0 instructions: 50000000 cycles: 489178805 cumulative IPC: 0.10221 (Simulation time: 0 hr 4 min 37 sec) 

ChampSim completed all CPUs

[ROI Statistics]
Core_0_instructions 50000000
Core_0_cycles 489178805
Core_0_IPC 0.10221

Core_0_branch_prediction_accuracy 95.13898
Core_0_branch_MPKI 13.10176
Core_0_average_ROB_occupancy_at_mispredict 62.92260

Core_0_L1D_total_access 12976455
Core_0_L1D_total_hit 6936110
Core_0_L1D_total_miss 6040345
Core_0_L1D_loads 10467971
Core_0_L1D_load_hit 4607272
Core_0_L1D_load_miss 5860699
Core_0_L1D_RFOs 2508484
Core_0_L1D_RFO_hit 2328838
Core_0_L1D_RFO_miss 179646
Core_0_L1D_prefetches 0
Core_0_L1D_prefetch_hit 0
Core_0_L1D_prefetch_miss 0
Core_0_L1D_writebacks 0
Core_0_L1D_writeback_hit 0
Core_0_L1D_writeback_miss 0
Core_0_L1D_prefetch_requested 0
Core_0_L1D_prefetch_dropped 0
Core_0_L1D_prefetch_issued 0
Core_0_L1D_prefetch_filled 0
Core_0_L1D_prefetch_useful 0
Core_0_L1D_prefetch_useless 0
Core_0_L1D_prefetch_late 0
Core_0_L1D_average_miss_latency 136.67871

Core_0_L1D_rq_access 17630441
Core_0_L1D_rq_forward 0
Core_0_L1D_rq_merged 7050295
Core_0_L1D_rq_to_cache 10580146
Core_0_L1D_rq_full 0

Core_0_L1D_wq_access 2809770
Core_0_L1D_wq_forward 0
Core_0_L1D_wq_merged 213591
Core_0_L1D_wq_to_cache 2596179
Core_0_L1D_wq_full 0

Core_0_L1D_pq_access 0
Core_0_L1D_pq_forward 0
Core_0_L1D_pq_merged 0
Core_0_L1D_pq_to_cache 0
Core_0_L1D_pq_full 0

Core_0_L1D_acc_epochs 422603
Core_0_L1D_acc_level_0 422603
Core_0_L1D_acc_level_1 0
Core_0_L1D_acc_level_2 0
Core_0_L1D_acc_level_3 0
Core_0_L1D_acc_level_4 0
Core_0_L1D_acc_level_5 0
Core_0_L1D_acc_level_6 0
Core_0_L1D_acc_level_7 0
Core_0_L1D_acc_level_8 0
Core_0_L1D_acc_level_9 0

Core_0_L1I_total_access 10777181
Core_0_L1I_total_hit 10777181
Core_0_L1I_total_miss 0
Core_0_L1I_loads 10777181
Core_0_L1I_load_hit 10777181
Core_0_L1I_load_miss 0
Core_0_L1I_RFOs 0
Core_0_L1I_RFO_hit 0
Core_0_L1I_RFO_miss 0
Core_0_L1I_prefetches 0
Core_0_L1I_prefetch_hit 0
Core_0_L1I_prefetch_miss 0
Core_0_L1I_writebacks 0
Core_0_L1I_writeback_hit 0
Core_0_L1I_writeback_miss 0
Core_0_L1I_prefetch_requested 0
Core_0_L1I_prefetch_dropped 0
Core_0_L1I_prefetch_issued 0
Core_0_L1I_prefetch_filled 0
Core_0_L1I_prefetch_useful 0
Core_0_L1I_prefetch_useless 0
Core_0_L1I_prefetch_late 0
Core_0_L1I_average_miss_latency -nan

Core_0_L1I_rq_access 50000250
Core_0_L1I_rq_forward 0
Core_0_L1I_rq_merged 39223069
Core_0_L1I_rq_to_cache 10777181
Core_0_L1I_rq_full 0

Core_0_L1I_wq_access 0
Core_0_L1I_wq_forward 0
Core_0_L1I_wq_merged 0
Core_0_L1I_wq_to_cache 0
Core_0_L1I_wq_full 0

Core_0_L1I_pq_access 0
Core_0_L1I_pq_forward 0
Core_0_L1I_pq_merged 0
Core_0_L1I_pq_to_cache 0
Core_0_L1I_pq_full 0

Core_0_L1I_acc_epochs 422603
Core_0_L1I_acc_level_0 422603
Core_0_L1I_acc_level_1 0
Core_0_L1I_acc_level_2 0
Core_0_L1I_acc_level_3 0
Core_0_L1I_acc_level_4 0
Core_0_L1I_acc_level_5 0
Core_0_L1I_acc_level_6 0
Core_0_L1I_acc_level_7 0
Core_0_L1I_acc_level_8 0
Core_0_L1I_acc_level_9 0

Core_0_L2C_total_access 11939654
Core_0_L2C_total_hit 4604516
Core_0_L2C_total_miss 7335138
Core_0_L2C_loads 5860610
Core_0_L2C_load_hit 1818170
Core_0_L2C_load_miss 4042440
Core_0_L2C_RFOs 179637
Core_0_L2C_RFO_hit 79341
Core_0_L2C_RFO_miss 100296
Core_0_L2C_prefetches 4551236
Core_0_L2C_prefetch_hit 1362775
Core_0_L2C_prefetch_miss 3188461
Core_0_L2C_writebacks 1348171
Core_0_L2C_writeback_hit 1344230
Core_0_L2C_writeback_miss 3941
Core_0_L2C_prefetch_requested 6429703
Core_0_L2C_prefetch_dropped 9466
Core_0_L2C_prefetch_issued 6420237
Core_0_L2C_prefetch_filled 3962557
Core_0_L2C_prefetch_useful 840720
Core_0_L2C_prefetch_useless 3120496
Core_0_L2C_prefetch_late 5867
Core_0_L2C_average_miss_latency 257.72512

Core_0_L2C_rq_access 6040345
Core_0_L2C_rq_forward 0
Core_0_L2C_rq_merged 0
Core_0_L2C_rq_to_cache 6040247
Core_0_L2C_rq_full 0

Core_0_L2C_wq_access 1348171
Core_0_L2C_wq_forward 221
Core_0_L2C_wq_merged 0
Core_0_L2C_wq_to_cache 1348171
Core_0_L2C_wq_full 0

Core_0_L2C_pq_access 6420237
Core_0_L2C_pq_forward 0
Core_0_L2C_pq_merged 75757
Core_0_L2C_pq_to_cache 6344357
Core_0_L2C_pq_full 0

Core_0_L2C_acc_epochs 422603
Core_0_L2C_acc_level_0 195947
Core_0_L2C_acc_level_1 80294
Core_0_L2C_acc_level_2 61553
Core_0_L2C_acc_level_3 44235
Core_0_L2C_acc_level_4 19333
Core_0_L2C_acc_level_5 9568
Core_0_L2C_acc_level_6 3747
Core_0_L2C_acc_level_7 2207
Core_0_L2C_acc_level_8 1161
Core_0_L2C_acc_level_9 4558

Core_0_LLC_total_access 8378273
Core_0_LLC_total_hit 3718365
Core_0_LLC_total_miss 4659908
Core_0_LLC_loads 4037043
Core_0_LLC_load_hit 1755129
Core_0_LLC_load_miss 2281914
Core_0_LLC_RFOs 100269
Core_0_LLC_RFO_hit 33711
Core_0_LLC_RFO_miss 66558
Core_0_LLC_prefetches 3193830
Core_0_LLC_prefetch_hit 1159644
Core_0_LLC_prefetch_miss 2034186
Core_0_LLC_writebacks 1047131
Core_0_LLC_writeback_hit 769881
Core_0_LLC_writeback_miss 277250
Core_0_LLC_prefetch_requested 0
Core_0_LLC_prefetch_dropped 0
Core_0_LLC_prefetch_issued 0
Core_0_LLC_prefetch_filled 2540502
Core_0_LLC_prefetch_useful 391573
Core_0_LLC_prefetch_useless 2146078
Core_0_LLC_prefetch_late 0
Core_0_LLC_average_miss_latency 353.46266

Core_0_LLC_rq_access 4137354
Core_0_LLC_rq_forward 0
Core_0_LLC_rq_merged 0
Core_0_LLC_rq_to_cache 4137312
Core_0_LLC_rq_full 0

Core_0_LLC_wq_access 1047131
Core_0_LLC_wq_forward 55
Core_0_LLC_wq_merged 0
Core_0_LLC_wq_to_cache 1047131
Core_0_LLC_wq_full 0

Core_0_LLC_pq_access 3968424
Core_0_LLC_pq_forward 0
Core_0_LLC_pq_merged 0
Core_0_LLC_pq_to_cache 3968410
Core_0_LLC_pq_full 0

Core_0_LLC_acc_epochs 486591
Core_0_LLC_acc_level_0 268670
Core_0_LLC_acc_level_1 98310
Core_0_LLC_acc_level_2 59136
Core_0_LLC_acc_level_3 28239
Core_0_LLC_acc_level_4 10846
Core_0_LLC_acc_level_5 11726
Core_0_LLC_acc_level_6 3678
Core_0_LLC_acc_level_7 1819
Core_0_LLC_acc_level_8 998
Core_0_LLC_acc_level_9 3169

Core_0_major_page_fault 0
Core_0_minor_page_fault 39248

scooby_st_lookup 7038523
scooby_st_hit 1792602
scooby_st_evict 5245857
scooby_st_insert 5245921
scooby_st_streaming 0

scooby_predict_called 7038523
scooby_predict_out_of_bounds 120214
scooby_predict_action_1 5456211
scooby_predict_issue_action_1 5403646
scooby_predict_hit_action_1 52565
scooby_predict_out_of_bounds_action_1 86266
scooby_predict_action_3 13521
scooby_predict_issue_action_3 12677
scooby_predict_hit_action_3 844
scooby_predict_out_of_bounds_action_3 635
scooby_predict_action_4 12797
scooby_predict_issue_action_4 12039
scooby_predict_hit_action_4 758
scooby_predict_out_of_bounds_action_4 745
scooby_predict_action_5 12346
scooby_predict_issue_action_5 11621
scooby_predict_hit_action_5 725
scooby_predict_out_of_bounds_action_5 988
scooby_predict_action_10 10249
scooby_predict_issue_action_10 9832
scooby_predict_hit_action_10 417
scooby_predict_out_of_bounds_action_10 1853
scooby_predict_action_11 9986
scooby_predict_issue_action_11 9507
scooby_predict_hit_action_11 479
scooby_predict_out_of_bounds_action_11 2059
scooby_predict_action_12 9792
scooby_predict_issue_action_12 9260
scooby_predict_hit_action_12 532
scooby_predict_out_of_bounds_action_12 2220
scooby_predict_action_22 7416
scooby_predict_issue_action_22 7090
scooby_predict_hit_action_22 326
scooby_predict_out_of_bounds_action_22 3484
scooby_predict_action_23 7203
scooby_predict_issue_action_23 6935
scooby_predict_hit_action_23 268
scooby_predict_out_of_bounds_action_23 3645
scooby_predict_action_30 5741
scooby_predict_issue_action_30 5489
scooby_predict_hit_action_30 252
scooby_predict_out_of_bounds_action_30 4537
scooby_predict_action_32 5315
scooby_predict_issue_action_32 5118
scooby_predict_hit_action_32 197
scooby_predict_out_of_bounds_action_32 4932
scooby_predict_action_-1 304757
scooby_predict_issue_action_-1 298300
scooby_predict_hit_action_-1 6457
scooby_predict_out_of_bounds_action_-1 6772
scooby_predict_action_-3 12949
scooby_predict_issue_action_-3 12289
scooby_predict_hit_action_-3 660
scooby_predict_out_of_bounds_action_-3 826
scooby_predict_action_-6 11760
scooby_predict_issue_action_-6 10962
scooby_predict_hit_action_-6 798
scooby_predict_out_of_bounds_action_-6 1252
scooby_predict_action_0 1038266
scooby_predict_issue_action_0 0
scooby_predict_hit_action_0 0
scooby_predict_out_of_bounds_action_0 0
scooby_predict_multi_deg_called 266558
scooby_predict_predicted 6429703
scooby_predict_multi_deg 614938
scooby_predict_multi_deg_2 263601
scooby_predict_multi_deg_3 134422
scooby_predict_multi_deg_4 131436
scooby_predict_multi_deg_5 43270
scooby_predict_multi_deg_6 42209
scooby_predict_multi_deg_7 0
scooby_predict_multi_deg_8 0
scooby_predict_multi_deg_9 0
scooby_predict_multi_deg_10 0
scooby_predict_multi_deg_11 0
scooby_predict_multi_deg_12 0
scooby_predict_multi_deg_13 0
scooby_predict_multi_deg_14 0
scooby_predict_multi_deg_15 0
scooby_predict_multi_deg_16 0

scooby_selected_deg_1 5548207
scooby_selected_deg_2 128780
scooby_selected_deg_3 0
scooby_selected_deg_4 91318
scooby_selected_deg_5 0
scooby_selected_deg_6 46460
scooby_selected_deg_7 0
scooby_selected_deg_8 0
scooby_selected_deg_9 0
scooby_selected_deg_10 0
scooby_selected_deg_11 0
scooby_selected_deg_12 0
scooby_selected_deg_13 0
scooby_selected_deg_14 0
scooby_selected_deg_15 0
scooby_selected_deg_16 0

scooby_state_4037c1|1|0 17923,8,4,8,5,11,6,7,8,7,10,49,9,9,4950,23014,
scooby_state_4037c1|20|0 15669,5,6,11,13,12,11,8,7,9,8,32,3,8,4182,19984,
scooby_state_4037c1|61|0 15560,4,5,12,4,9,9,4,7,11,9,40,11,13,3986,19684,
scooby_state_4037c1|25|0 14942,9,12,13,6,11,4,8,8,6,5,29,9,7,3875,18944,
scooby_state_4037c1|43|0 15002,9,4,6,4,3,5,2,11,8,5,35,8,9,3774,18885,
scooby_state_4037c1|19|0 14644,3,9,9,4,8,8,2,5,5,4,39,5,8,3996,18749,
scooby_state_4037c1|5|0 14272,10,4,6,10,6,4,6,6,5,4,27,5,5,3979,18349,
scooby_state_4037c1|32|0 13944,8,5,7,7,6,10,2,7,5,8,21,6,8,3956,18000,
scooby_state_4037c1|7|0 14284,7,2,7,5,3,4,6,9,10,3,29,6,4,3619,17998,
scooby_state_4037c1|29|0 14251,1,12,5,7,5,2,13,10,9,7,25,14,7,3593,17961,
scooby_state_4037ba|27|0 14937,6,5,5,5,10,6,6,4,7,13,14,3,7,2741,17769,
scooby_state_4037c1|33|0 13903,6,9,8,10,8,7,9,5,5,5,25,10,8,3517,17535,
scooby_state_4037c1|40|0 13536,5,7,6,5,5,3,3,5,5,5,30,6,3,3574,17198,
scooby_state_4037c1|11|0 13568,11,6,4,6,5,9,9,3,2,7,30,5,11,3437,17113,
scooby_state_4037c1|26|0 13397,9,11,6,5,4,6,3,8,5,6,38,5,6,3553,17062,
scooby_state_4037c1|12|0 13365,6,4,7,4,4,6,6,4,7,4,14,2,4,3586,17023,
scooby_state_4037c1|31|0 13198,5,7,2,5,3,5,7,5,11,7,28,7,6,3694,16990,
scooby_state_4037ba|6|0 14298,8,6,9,5,5,5,4,8,4,1,11,5,4,2602,16975,
scooby_state_4037ba|53|0 14182,3,2,7,3,10,4,4,6,6,4,17,6,4,2625,16883,
scooby_state_4037aa|0|0 14967,4,3,4,5,6,3,2,13,13,7,17,8,5,1818,16875,
scooby_state_4037aa|1|0 14708,5,2,7,3,0,9,4,8,3,19,5,3,12,2083,16871,
scooby_state_4037aa|2|0 14858,6,7,3,11,4,5,5,2,4,2,8,16,1,1933,16865,
scooby_state_4037aa|7|0 14943,3,6,5,15,12,12,7,5,5,6,2,7,5,1822,16855,
scooby_state_4037aa|6|0 14652,13,11,13,6,4,3,3,1,12,2,3,8,15,2107,16853,
scooby_state_4037aa|8|0 14942,4,4,7,7,8,3,0,13,11,3,16,5,5,1821,16849,
scooby_state_4037aa|10|0 14843,6,4,3,4,2,5,5,0,1,1,10,15,3,1944,16846,
scooby_state_4037aa|9|0 14664,6,0,3,0,2,11,3,7,6,17,4,2,18,2101,16844,
scooby_state_4037aa|14|0 14699,12,14,11,0,9,2,4,2,10,3,2,5,15,2055,16843,
scooby_state_4037aa|25|0 14668,9,5,2,5,3,11,4,8,5,15,4,1,13,2086,16839,
scooby_state_4037aa|15|0 14909,1,5,6,14,14,12,7,3,4,1,5,8,3,1846,16838,
scooby_state_4037aa|30|0 14683,15,17,13,2,6,4,6,2,11,3,1,9,10,2055,16837,
scooby_state_4037aa|17|0 14771,4,1,6,3,1,11,5,6,5,17,4,0,15,1984,16833,
scooby_state_4037aa|26|0 14835,6,8,5,6,3,5,4,2,3,1,9,14,1,1931,16833,
scooby_state_4037aa|24|0 15041,5,2,7,6,6,2,3,13,12,6,17,8,2,1702,16832,
scooby_state_4037aa|16|0 14934,4,1,2,2,10,2,2,13,13,3,15,6,2,1822,16831,
scooby_state_4037aa|23|0 14863,2,3,5,13,14,13,8,3,0,2,9,7,2,1887,16831,
scooby_state_4037aa|18|0 14869,6,3,1,10,6,8,8,4,0,3,9,12,2,1889,16830,
scooby_state_4037aa|31|0 14920,1,6,4,15,13,12,6,7,5,1,3,9,1,1826,16829,
scooby_state_4037aa|3|0 14826,3,6,0,10,7,4,5,7,3,0,6,0,3,1947,16827,
scooby_state_4037aa|4|0 14806,2,7,5,1,2,1,1,8,1,1,9,2,3,1978,16827,
scooby_state_4037ba|54|0 14130,6,5,1,10,9,3,10,5,3,7,8,5,2,2621,16825,
scooby_state_4037aa|5|0 14785,12,2,0,4,5,7,6,2,1,7,2,2,2,1988,16825,
scooby_state_4037aa|22|0 14642,14,11,17,2,5,0,3,1,12,3,6,10,13,2085,16824,
scooby_state_4037aa|42|0 14841,5,5,3,9,2,5,6,2,3,1,8,14,2,1917,16823,
scooby_state_4037aa|34|0 14835,8,2,3,6,2,9,6,3,2,0,12,14,0,1921,16823,
scooby_state_4037aa|38|0 14623,16,13,15,3,4,1,3,3,11,1,3,10,14,2101,16821,
scooby_state_4037ba|61|0 14063,9,8,10,7,6,5,5,3,7,3,9,10,8,2667,16820,
scooby_state_4037aa|32|0 14906,4,5,7,6,7,3,1,14,14,5,16,4,4,1823,16819,
scooby_state_4037aa|33|0 14678,6,2,4,6,1,10,2,9,4,21,2,3,15,2056,16819,
scooby_state_4037aa|41|0 14687,5,3,6,3,1,10,4,7,8,15,11,3,14,2042,16819,
scooby_state_4037aa|39|0 14867,1,3,7,12,14,12,5,6,2,5,6,8,6,1864,16818,
scooby_state_4037aa|62|0 14616,14,12,16,4,6,1,6,3,10,1,6,8,18,2096,16817,
scooby_state_4037aa|40|0 15005,5,3,5,2,5,3,0,12,16,2,18,8,3,1729,16816,
scooby_state_4037aa|56|0 14885,4,5,5,3,5,2,0,12,11,2,18,7,2,1853,16814,
scooby_state_4037aa|63|0 14776,0,4,6,16,14,16,8,4,2,2,5,5,2,1952,16812,
scooby_state_4037aa|48|0 15010,4,3,6,7,6,3,1,12,13,4,20,7,4,1712,16812,
scooby_state_4037aa|55|0 14936,2,3,4,12,15,14,6,3,1,1,4,8,3,1800,16812,
scooby_state_4037aa|49|0 14620,6,1,8,2,5,14,6,6,8,16,4,1,13,2102,16812,
scooby_state_4037aa|46|0 14603,16,11,14,2,5,4,3,2,9,1,4,10,15,2112,16811,
scooby_state_4037aa|57|0 14712,5,3,4,1,4,14,2,6,3,17,5,0,13,2022,16811,
scooby_state_4037aa|11|0 14763,3,12,0,8,2,6,8,3,5,1,5,1,0,1993,16810,
scooby_state_4037aa|47|0 14897,4,5,2,12,12,13,6,6,4,0,6,8,4,1831,16810,
scooby_state_4037aa|50|0 14798,4,10,4,6,3,4,4,3,0,4,12,16,2,1939,16809,
scooby_state_4037aa|12|0 14795,0,6,1,2,6,2,2,8,1,4,4,4,5,1966,16806,
scooby_state_4037aa|27|0 14781,4,4,1,12,4,4,5,5,0,1,7,1,4,1973,16806,
scooby_state_4037aa|58|0 14789,7,4,3,9,4,5,7,1,3,1,12,16,2,1942,16805,
scooby_state_4037aa|13|0 14807,7,3,3,1,4,6,8,2,0,9,5,1,1,1947,16804,
scooby_state_4037aa|54|0 14672,14,12,12,1,6,1,4,1,8,0,0,7,15,2049,16802,
scooby_state_4037aa|28|0 14744,0,5,7,3,3,2,1,5,1,3,4,2,6,2011,16797,
scooby_state_4037aa|29|0 14786,7,2,4,3,9,5,4,3,0,8,1,1,0,1964,16797,
scooby_state_4037ba|32|0 14059,7,11,3,2,1,13,8,5,6,5,13,7,9,2645,16794,
scooby_state_4037aa|19|0 14797,1,4,1,7,3,8,8,6,1,1,2,3,3,1946,16791,
scooby_state_4037aa|36|0 14774,4,5,3,3,3,2,3,4,4,1,4,5,4,1969,16788,
scooby_state_4037aa|21|0 14770,8,4,2,0,6,5,4,0,1,11,3,2,3,1968,16787,
scooby_state_4037aa|20|0 14811,4,5,4,0,5,1,4,5,1,2,7,4,5,1929,16787,
scooby_state_4037aa|35|0 14748,7,9,1,8,4,6,8,5,0,0,2,3,2,1980,16783,
scooby_state_4037aa|37|0 14839,7,4,2,1,5,4,3,1,1,10,3,2,0,1901,16783,
scooby_state_4037aa|53|0 14812,5,2,4,1,3,5,7,2,1,6,3,2,3,1926,16782,
scooby_state_4037aa|59|0 14775,1,5,0,6,6,7,9,4,3,0,4,3,1,1953,16777,
scooby_state_4037aa|51|0 14700,4,8,1,7,5,3,10,4,1,3,6,5,3,2017,16777,
scooby_state_4037aa|44|0 14829,2,8,4,5,5,1,0,3,2,2,4,2,3,1906,16776,
scooby_state_4037aa|61|0 14774,10,6,1,2,4,2,2,1,2,6,6,1,1,1957,16775,
scooby_state_4037aa|43|0 14816,3,6,1,10,2,6,8,7,2,3,5,2,5,1899,16775,
scooby_state_4037aa|52|0 14756,1,3,4,0,2,2,5,8,1,1,5,1,4,1981,16774,
scooby_state_4037aa|45|0 14754,10,8,2,5,7,3,6,3,2,8,3,3,0,1959,16773,
scooby_state_4037aa|60|0 14788,0,6,6,3,3,3,1,4,0,4,10,3,5,1934,16770,
scooby_state_4037ba|46|0 13955,10,5,3,7,3,6,5,1,3,8,9,7,11,2666,16699,
scooby_state_4037ba|22|0 13989,7,6,5,5,5,6,3,7,4,4,10,3,4,2640,16698,
scooby_state_4037ba|24|0 13941,8,3,2,5,11,12,7,4,3,3,10,5,8,2638,16660,
scooby_state_4037ba|33|0 14143,1,1,8,4,10,5,6,7,6,8,8,5,6,2439,16657,
scooby_state_4037ba|30|0 13864,12,4,6,13,3,11,4,7,9,4,6,6,4,2681,16634,
scooby_state_4037c1|23|0 13134,1,6,6,3,3,5,3,3,8,5,31,1,5,3387,16601,
scooby_state_4037c1|62|0 12863,4,7,7,5,8,9,5,6,5,4,29,5,3,3570,16530,
scooby_state_4037c1|3|0 13077,6,7,6,5,6,7,10,6,5,5,24,8,5,3320,16497,
scooby_state_4037ba|51|0 13786,5,3,4,9,11,2,4,7,8,4,11,6,3,2582,16445,
scooby_state_4037ba|38|0 13750,4,4,6,7,6,11,2,8,8,6,11,5,7,2562,16397,
scooby_state_4037ba|39|0 13670,6,12,5,3,4,1,8,7,8,4,9,6,5,2604,16352,
scooby_state_4037ba|29|0 13686,4,5,9,3,4,4,5,5,2,5,9,3,10,2567,16321,
scooby_state_4037ba|58|0 13723,6,8,2,7,4,4,5,6,4,5,15,6,2,2489,16286,
scooby_state_4037ba|40|0 13605,5,6,11,3,6,6,8,3,4,5,8,8,5,2553,16236,
scooby_state_4037ba|45|0 13518,7,7,2,3,6,10,5,6,3,5,13,6,3,2592,16186,
scooby_state_4037ba|47|0 13470,7,4,9,8,6,6,4,2,4,5,15,7,6,2567,16120,
scooby_state_4037ba|31|0 13474,5,8,5,6,3,7,9,4,6,7,7,7,5,2509,16062,
scooby_state_4037ba|43|0 13445,3,8,5,7,7,4,5,9,5,3,6,7,6,2525,16045,
scooby_state_4037c1|16|0 12643,5,6,2,6,6,7,8,4,4,2,29,4,7,3307,16040,
scooby_state_4037c1|55|0 12662,4,8,6,7,9,5,5,9,3,3,17,4,7,3271,16020,
scooby_state_4037ba|2|0 13283,4,9,11,6,4,6,5,3,5,1,12,0,9,2575,15933,
scooby_state_4037c1|34|0 12528,2,4,6,11,4,3,7,4,8,7,25,2,3,3314,15928,
scooby_state_4037ba|12|0 13343,11,9,9,7,8,4,7,4,4,5,11,5,3,2496,15926,
scooby_state_4037ba|55|0 13175,12,4,2,2,7,3,5,7,4,7,5,6,8,2591,15838,
scooby_state_4037c1|0|0 12536,7,7,7,7,5,5,5,6,4,6,26,6,9,3200,15836,
scooby_state_4037ba|21|0 13241,9,6,11,5,6,3,6,4,5,4,8,10,12,2452,15782,
scooby_state_4037ba|16|0 13220,7,8,3,7,4,9,3,5,4,8,11,6,8,2477,15780,
scooby_state_4037ba|59|0 13148,5,3,4,5,2,4,8,2,4,4,10,5,5,2502,15711,
scooby_state_4037ba|41|0 13095,6,7,6,4,3,2,2,2,3,9,12,10,5,2442,15608,
scooby_state_4037ba|17|0 12993,7,7,6,6,2,5,5,5,3,5,10,7,4,2505,15570,
scooby_state_4037c1|13|0 12479,5,8,9,7,6,7,12,10,6,9,23,11,2,2968,15562,
scooby_state_4037c1|41|0 12344,6,6,6,7,6,7,12,4,1,6,32,4,1,3120,15562,
scooby_state_4037ba|19|0 12990,6,8,3,5,5,6,4,5,4,6,15,4,7,2409,15477,
scooby_state_4037ba|11|0 12895,5,3,6,4,3,7,10,5,2,3,11,4,6,2458,15422,
scooby_state_4037ba|4|0 12855,3,5,6,3,7,9,7,5,4,5,12,7,4,2456,15388,
scooby_state_4037c1|17|0 12224,8,5,5,1,11,11,2,9,4,3,28,6,6,3036,15359,
scooby_state_4037ba|14|0 12824,4,5,4,7,3,4,9,3,2,4,13,3,9,2440,15334,
scooby_state_4037ba|50|0 12862,8,7,6,4,5,5,2,3,6,1,8,6,8,2388,15319,
scooby_state_4037ba|34|0 12842,3,4,10,4,4,3,5,5,2,3,8,3,1,2411,15308,
scooby_state_4037ba|49|0 12681,6,4,8,3,4,4,2,3,6,5,13,2,5,2529,15275,
scooby_state_4037ba|37|0 12767,8,8,4,8,6,2,4,9,5,3,9,5,6,2421,15265,
scooby_state_4037ba|7|0 12758,6,8,2,2,9,3,6,6,4,3,13,5,7,2388,15220,
scooby_state_4037c1|15|0 11999,5,8,3,5,3,5,3,6,1,5,21,3,6,3113,15186,
scooby_state_4037ba|36|0 12779,5,5,5,5,2,4,4,2,4,2,11,4,5,2339,15176,
scooby_state_4037ba|63|0 12730,9,7,9,3,9,5,5,8,10,3,7,6,4,2353,15168,
scooby_state_4037ba|10|0 12687,4,6,5,2,4,11,8,2,2,6,9,10,2,2407,15165,
scooby_state_4037ba|1|0 12758,6,4,11,3,3,5,8,9,4,7,6,5,4,2309,15142,
scooby_state_4037ba|23|0 12694,3,1,5,5,0,4,4,8,5,4,15,3,4,2348,15103,
scooby_state_4037ba|5|0 12662,3,5,2,7,8,7,5,6,5,3,6,11,6,2357,15093,
scooby_state_4037c1|28|0 11924,7,5,11,5,7,9,6,7,7,6,28,6,6,3018,15052,
scooby_state_4037ba|56|0 12699,1,2,6,5,7,4,8,7,2,7,4,6,3,2285,15046,
scooby_state_4037ba|52|0 12514,1,6,5,5,6,7,3,5,7,5,10,2,6,2447,15029,
scooby_state_4037ba|8|0 12541,1,5,7,5,3,5,5,10,2,5,5,8,6,2418,15026,
scooby_state_4037ba|13|0 12591,8,9,6,6,11,5,4,3,5,2,10,11,3,2332,15006,
scooby_state_4037ba|18|0 12582,5,3,9,8,3,5,2,4,2,5,9,4,4,2334,14979,
scooby_state_4037ba|62|0 12613,4,5,4,4,2,4,5,4,8,3,15,8,4,2272,14955,
scooby_state_4037ba|9|0 12534,5,7,7,4,6,3,5,3,6,3,7,8,4,2342,14944,
scooby_state_4037ba|28|0 12533,4,1,5,4,4,11,7,8,3,2,13,6,1,2294,14896,
scooby_state_4037ba|35|0 12488,4,5,11,1,5,8,4,5,8,7,9,7,5,2288,14855,
scooby_state_4037c1|39|0 11721,8,4,5,1,3,3,1,6,5,5,31,2,3,3037,14835,
scooby_state_4037ba|0|0 12509,6,5,5,1,3,6,5,4,3,4,10,5,7,2236,14809,
scooby_state_4037ba|60|0 12382,8,7,3,4,5,8,2,1,6,6,10,7,2,2319,14770,
scooby_state_4037c1|51|0 11548,2,6,6,5,5,5,4,1,5,5,17,4,3,3071,14687,
scooby_state_4037c1|6|0 11479,7,4,7,9,5,5,5,3,6,7,24,7,3,3114,14685,
scooby_state_4037c1|56|0 11642,9,8,6,4,5,8,7,10,5,3,32,5,4,2868,14616,
scooby_state_4037ba|42|0 12215,11,1,4,3,5,4,4,5,5,4,10,3,6,2302,14582,
scooby_state_4037c1|9|0 11419,2,7,4,5,10,5,5,8,4,2,24,3,5,3067,14570,
scooby_state_4037ba|26|0 12194,2,5,5,7,10,8,5,5,2,2,10,3,6,2288,14552,
scooby_state_4037ba|3|0 12239,11,3,5,3,3,9,3,7,0,9,6,6,3,2238,14545,
scooby_state_4037ba|44|0 12102,4,7,3,8,5,3,5,8,4,5,9,6,8,2259,14436,
scooby_state_4037ba|57|0 12078,4,9,7,4,5,3,7,2,2,6,13,6,8,2274,14428,
scooby_state_4037c1|52|0 11450,4,6,5,13,6,6,6,4,1,2,26,9,5,2878,14421,
scooby_state_4037c1|14|0 11006,1,5,5,5,5,6,6,1,4,4,18,7,2,3343,14418,
scooby_state_4037ba|20|0 12094,9,3,8,6,6,2,3,4,2,2,11,8,7,2191,14356,
scooby_state_4037c1|63|0 11392,9,4,5,4,3,7,3,3,3,6,25,6,6,2856,14332,
scooby_state_4037c1|57|0 11088,6,6,1,6,6,7,7,2,1,2,24,7,6,2932,14101,
scooby_state_4037c1|54|0 11071,8,3,5,8,4,11,3,4,4,3,30,4,5,2931,14094,
scooby_state_4037c1|45|0 10975,6,5,6,5,4,4,6,5,3,5,24,3,2,2997,14050,
scooby_state_4037ba|48|0 11833,8,3,7,4,5,4,3,2,2,7,6,9,8,2113,14014,
scooby_state_4037ba|15|0 11811,5,4,5,6,3,4,2,3,8,3,6,6,2,2144,14012,
scooby_state_4037ba|25|0 11670,4,6,2,3,5,3,4,4,7,3,8,5,4,2102,13830,
scooby_state_4037c1|8|0 10900,7,4,4,8,3,3,5,8,12,5,21,4,12,2773,13769,
scooby_state_4037c1|10|0 10614,2,7,6,1,6,0,5,3,5,2,21,7,5,2668,13352,
scooby_state_4037c1|48|0 10796,2,2,9,6,6,7,4,4,4,6,25,4,10,2403,13288,
scooby_state_4037c1|42|0 10507,7,4,2,4,4,6,7,6,5,6,19,3,8,2646,13234,
scooby_state_4037c1|44|0 10452,3,3,5,4,7,4,2,4,2,6,21,2,5,2708,13228,
scooby_state_4037c1|38|0 10363,5,4,6,6,5,6,5,1,3,2,28,6,7,2778,13225,
scooby_state_4037c1|53|0 10267,9,5,6,3,6,3,7,5,4,5,26,7,5,2737,13095,
scooby_state_4037c1|22|0 10329,3,10,3,2,4,3,2,8,1,3,24,7,4,2669,13072,
scooby_state_4037c1|60|0 9945,4,7,6,4,8,9,3,5,7,4,20,3,1,2764,12790,
scooby_state_4037c1|2|0 9876,1,4,3,4,5,3,4,5,6,3,22,5,7,2723,12671,
scooby_state_4037c1|18|0 9596,3,6,5,7,6,5,4,7,4,3,16,4,4,2415,12085,
scooby_state_4037c1|46|0 9430,8,2,5,4,4,3,6,3,4,5,20,1,4,2527,12026,
scooby_state_4037c1|37|0 9473,6,2,2,3,4,5,2,1,2,5,22,5,0,2460,11992,
scooby_state_4037c1|24|0 9386,7,3,5,2,5,7,4,3,3,4,19,9,3,2524,11984,
scooby_state_4037c1|47|0 9436,1,5,4,4,6,6,5,3,5,3,22,3,3,2439,11945,
scooby_state_4037c1|30|0 9300,2,4,10,8,4,2,2,3,7,8,14,6,6,2507,11883,
scooby_state_4037c1|49|0 9283,5,5,8,7,3,5,3,3,3,5,14,6,6,2448,11804,
scooby_state_4037c1|58|0 9111,5,4,3,2,9,5,7,10,5,7,23,2,4,2424,11621,
scooby_state_4037c1|35|0 8985,10,3,5,5,4,7,2,5,6,7,20,7,4,2366,11436,
scooby_state_4037c1|27|0 9053,4,5,5,3,5,2,3,2,2,5,16,4,5,2316,11430,
scooby_state_4037c1|50|0 8900,3,2,5,4,4,5,4,1,2,2,25,2,2,2245,11206,
scooby_state_4013a1|2|0 11088,2,0,1,2,1,2,2,1,5,6,2,6,3,6,11127,
scooby_state_4013a1|3|0 11017,4,2,3,3,0,3,1,2,1,4,7,3,4,1,11055,
scooby_state_4037c1|59|0 8677,7,4,3,5,5,4,9,5,2,3,16,9,4,2266,11019,
scooby_state_4013a1|5|0 10985,2,0,2,5,1,1,1,2,0,4,2,4,3,2,11014,
scooby_state_4013a1|9|0 10896,3,2,2,2,3,2,3,3,4,3,3,1,2,0,10929,
scooby_state_4013a1|16|0 10869,4,0,1,3,4,1,3,1,2,0,2,6,3,5,10904,
scooby_state_4013a1|0|0 10781,4,4,3,3,3,0,2,2,3,1,6,4,5,5,10826,
scooby_state_4013a1|4|0 10760,4,1,4,2,4,3,2,0,4,3,5,5,2,1,10800,
scooby_state_4013a1|1|0 10752,6,2,0,4,4,1,2,2,3,4,5,3,1,4,10793,
scooby_state_4013a1|7|0 10754,1,3,3,4,2,3,0,1,3,1,2,4,3,5,10789,
scooby_state_4013a1|8|0 10735,5,0,2,2,0,5,2,2,3,3,5,2,3,2,10771,
scooby_state_4013a1|11|0 10724,3,2,7,0,2,4,2,2,1,2,8,5,2,3,10767,
scooby_state_4013a1|21|0 10723,2,2,3,4,5,2,2,2,1,4,1,2,3,3,10759,
scooby_state_4037c1|21|0 8413,4,7,4,6,0,2,2,5,1,6,13,3,5,2249,10720,
scooby_state_4013a1|13|0 10657,1,5,1,0,2,1,1,0,0,1,2,2,3,2,10678,
scooby_state_4013a1|32|0 10642,0,1,1,2,4,2,0,4,3,1,2,3,5,3,10673,
scooby_state_4013a1|6|0 10612,2,1,1,1,6,2,3,1,2,2,4,1,2,5,10645,
scooby_state_4013a1|40|0 10599,5,0,1,3,0,2,1,3,0,2,2,3,3,5,10629,
scooby_state_4013a1|28|0 10545,3,0,2,2,1,3,4,4,4,2,6,2,3,3,10584,
scooby_state_4013a1|25|0 10527,3,3,2,3,5,1,3,6,2,2,8,4,2,1,10572,
scooby_state_4013a1|57|0 10542,3,2,0,2,2,0,1,1,1,4,2,3,2,3,10568,
scooby_state_4013a1|15|0 10507,2,4,4,1,7,3,1,4,2,3,4,3,4,3,10552,
scooby_state_4013a1|33|0 10509,3,2,1,1,4,3,3,2,2,2,4,4,2,6,10548,
scooby_state_4013a1|63|0 10513,3,4,2,0,2,0,2,0,1,0,1,4,1,1,10534,
scooby_state_4013a1|38|0 10491,1,1,4,6,2,3,1,0,2,0,3,2,4,0,10520,
scooby_state_4013a1|10|0 10483,3,4,3,2,4,2,2,2,1,2,0,0,5,2,10515,
scooby_state_4013a1|44|0 10483,1,2,0,0,3,1,2,0,2,2,4,4,1,4,10509,
scooby_state_4013a1|27|0 10444,3,3,2,2,0,3,0,0,5,3,4,7,7,1,10484,
scooby_state_4013a1|22|0 10439,3,5,1,4,1,2,5,2,3,2,2,2,0,5,10476,
scooby_state_4013a1|12|0 10456,2,0,1,5,2,0,2,0,0,0,0,1,0,4,10473,
scooby_state_4013a1|36|0 10437,3,3,5,1,0,1,4,1,3,2,3,6,1,2,10472,
scooby_state_4013a1|48|0 10440,3,2,2,3,3,1,2,0,1,3,4,4,0,4,10472,
scooby_state_4013a1|37|0 10416,1,0,3,2,0,3,1,1,2,5,3,3,0,2,10442,
scooby_state_4013a1|18|0 10380,2,1,3,4,1,3,1,1,1,1,1,3,2,4,10408,
scooby_state_4013a1|20|0 10359,2,2,4,3,3,1,0,3,0,1,6,6,1,4,10395,
scooby_state_4013a1|35|0 10329,2,3,4,2,2,2,1,1,2,4,6,6,3,3,10370,
scooby_state_4013a1|45|0 10330,1,2,1,1,4,1,4,2,4,4,3,5,0,5,10367,
scooby_state_4013a1|30|0 10325,4,6,1,2,0,3,0,0,2,7,6,6,3,1,10366,
scooby_state_4013a1|24|0 10312,0,3,4,2,3,1,0,2,2,2,2,0,3,0,10336,
scooby_state_4013a1|54|0 10302,2,4,4,4,0,1,2,0,1,6,0,3,2,1,10332,
scooby_state_4013a1|43|0 10301,6,3,1,3,0,1,0,0,1,0,4,3,2,6,10331,
scooby_state_4013a1|23|0 10300,0,1,1,2,2,1,2,0,2,2,1,4,3,7,10328,
scooby_state_4013a1|29|0 10291,3,4,4,2,4,2,0,2,2,4,3,1,4,0,10326,
scooby_state_4013a1|59|0 10285,0,2,3,0,3,5,2,1,6,4,3,2,3,3,10322,
scooby_state_4013a1|52|0 10285,1,1,3,1,3,3,2,0,4,2,4,2,1,2,10314,
scooby_state_4013a1|62|0 10259,3,2,2,4,4,6,0,4,0,3,0,1,1,6,10295,
scooby_state_4013a1|60|0 10262,1,3,3,4,4,3,0,3,2,2,3,0,2,3,10295,
scooby_state_4013a1|34|0 10261,2,3,1,1,3,4,2,1,3,1,3,2,2,1,10290,
scooby_state_4013a1|49|0 10247,3,6,4,3,2,3,0,3,1,3,3,2,3,2,10285,
scooby_state_4013a1|56|0 10245,1,3,4,4,3,0,0,2,2,1,5,3,2,5,10280,
scooby_state_4013a1|26|0 10253,2,1,2,1,3,2,1,1,1,1,4,1,1,4,10278,
scooby_state_4013a1|19|0 10229,1,0,5,3,2,0,6,0,2,2,5,4,5,0,10264,
scooby_state_4013a1|17|0 10219,3,2,2,2,1,1,3,3,2,3,4,3,3,6,10257,
scooby_state_4013a1|47|0 10205,3,5,4,4,3,2,0,3,0,1,2,6,2,4,10244,
scooby_state_4013a1|39|0 10197,4,3,2,3,3,0,0,3,2,4,5,0,3,1,10230,
scooby_state_4013a1|53|0 10181,6,2,1,5,1,2,2,1,3,1,4,2,2,3,10216,
scooby_state_4013a1|31|0 10152,0,1,1,0,2,4,3,3,2,3,1,3,3,2,10180,
scooby_state_4013a1|61|0 10127,2,4,5,3,3,0,2,1,2,2,3,5,0,2,10161,
scooby_state_4013a1|51|0 10102,3,4,4,0,2,2,5,0,2,2,2,3,3,1,10135,
scooby_state_4013a1|41|0 10100,4,1,0,2,2,2,2,2,0,4,2,2,3,5,10131,
scooby_state_4013a1|14|0 10054,3,3,2,1,2,1,0,1,5,2,1,1,1,4,10081,
scooby_state_4013a1|58|0 10027,2,4,2,0,1,2,0,3,0,2,2,4,2,3,10054,
scooby_state_4013a1|42|0 9993,4,0,3,3,2,1,1,0,0,2,4,3,2,2,10020,
scooby_state_4037c1|4|0 7937,4,7,3,2,5,3,2,5,4,5,15,3,7,1993,9995,
scooby_state_4013a1|50|0 9938,0,3,4,3,1,2,1,2,3,3,6,1,4,3,9974,
scooby_state_4013a1|55|0 9760,1,2,3,4,5,2,2,2,1,2,0,4,1,6,9795,
scooby_state_4013a1|46|0 9747,4,3,1,4,4,2,0,1,2,2,1,1,7,5,9784,
scooby_state_4037c1|36|0 7284,4,1,3,2,6,6,1,3,2,6,14,3,3,1803,9141,
scooby_state_40138f|62|0 4158,6,5,3,2,4,2,2,4,5,3,3,6,6,2627,6836,
scooby_state_40138f|38|0 3989,6,6,6,3,6,0,2,2,7,3,2,7,1,2744,6784,
scooby_state_40138f|49|0 3911,3,4,5,4,7,5,8,4,5,1,6,2,3,2728,6696,
scooby_state_40138f|56|0 4017,7,4,3,2,4,6,2,4,0,4,5,1,7,2612,6678,
scooby_state_40138f|58|0 4033,2,4,7,3,3,6,4,4,4,2,7,4,4,2566,6653,
scooby_state_4013ab|34|0 4755,4,3,2,3,5,4,3,2,2,3,12,4,4,1836,6642,
scooby_state_40138f|63|0 4058,6,6,4,2,6,5,4,1,1,4,3,5,4,2499,6608,
scooby_state_40138f|57|0 3873,7,4,6,2,2,5,4,7,3,4,8,2,3,2664,6594,
scooby_state_4013ab|54|0 4780,7,2,7,3,3,4,3,0,4,2,25,4,6,1723,6573,
scooby_state_4013ab|63|0 4500,4,7,3,6,2,1,5,3,4,1,15,7,3,1991,6552,
scooby_state_40138f|42|0 3813,1,3,4,7,4,8,3,6,5,5,7,3,4,2672,6545,
scooby_state_4013ab|62|0 4690,3,5,4,3,5,3,4,4,2,6,27,2,2,1733,6493,
scooby_state_4013ab|61|0 4509,3,6,6,3,4,8,6,2,1,2,17,6,6,1865,6444,
scooby_state_40138f|52|0 3793,6,6,4,2,4,6,2,0,3,4,6,5,3,2572,6416,
scooby_state_40138f|17|0 3646,2,1,3,7,2,5,7,1,7,2,8,0,5,2715,6411,
scooby_state_40138f|7|0 3896,6,5,0,3,2,5,3,6,1,1,5,3,2,2464,6402,
scooby_state_40138f|47|0 3874,1,2,3,2,1,2,3,0,2,3,4,5,5,2485,6392,
scooby_state_40138f|50|0 3795,2,2,4,4,1,4,4,5,5,4,5,8,2,2531,6376,
scooby_state_40138f|44|0 3726,4,7,7,10,1,6,5,5,3,2,6,6,3,2576,6367,
scooby_state_40138f|32|0 3736,5,2,3,2,2,4,4,3,5,6,6,3,1,2556,6338,
scooby_state_40138f|36|0 3819,4,4,1,5,1,4,5,1,4,2,3,5,3,2477,6338,
scooby_state_40138f|6|0 4041,2,2,2,4,4,5,5,1,2,4,4,2,3,2248,6329,
scooby_state_40138f|8|0 3827,4,3,2,2,6,4,3,1,3,1,4,2,0,2442,6304,
scooby_state_40138f|46|0 3751,4,3,6,3,1,1,3,7,1,1,4,5,1,2509,6300,
scooby_state_4013ab|35|0 4313,3,3,4,8,2,4,5,6,5,0,13,1,2,1846,6215,
scooby_state_4013ab|38|0 4590,9,6,4,2,1,2,2,7,2,2,16,1,3,1556,6203,
scooby_state_40138f|22|0 3736,4,1,4,5,1,3,4,3,3,3,8,6,4,2416,6201,
scooby_state_40138f|61|0 3659,4,2,6,3,4,0,3,4,3,4,5,4,6,2461,6168,
scooby_state_40138f|30|0 3665,2,0,4,2,3,1,1,1,3,3,1,1,7,2464,6158,
scooby_state_4013ab|56|0 4333,3,4,4,3,3,5,3,3,3,3,8,2,5,1767,6149,
scooby_state_40138f|54|0 3715,3,3,3,6,3,2,1,2,2,1,5,2,3,2396,6147,
scooby_state_40138f|40|0 3644,5,5,4,3,4,6,2,0,4,0,3,5,2,2458,6145,
scooby_state_40138f|60|0 3787,1,3,5,2,2,1,3,1,5,5,7,6,4,2310,6142,
scooby_state_40138f|53|0 3656,6,5,3,3,6,3,0,1,2,3,3,3,5,2437,6136,
scooby_state_40138f|4|0 3762,1,5,4,4,2,3,7,2,2,9,7,3,2,2317,6130,
scooby_state_40138f|10|0 3725,0,5,2,4,4,5,2,1,3,4,5,2,2,2339,6103,
scooby_state_4013ab|60|0 4214,9,3,5,6,4,2,2,4,2,3,8,8,4,1822,6096,
scooby_state_40138f|0|0 3708,3,1,5,3,2,3,2,4,3,5,4,7,5,2338,6093,
scooby_state_40138f|1|0 3542,4,4,1,3,2,2,1,3,5,1,3,6,4,2511,6092,
scooby_state_40138f|31|0 3701,3,5,7,4,3,4,3,1,3,3,5,2,2,2346,6092,
scooby_state_40138f|16|0 3680,5,4,3,6,3,1,4,1,5,3,3,5,3,2360,6086,
scooby_state_40138f|27|0 3642,3,3,3,3,5,5,2,3,3,5,5,5,2,2394,6083,
scooby_state_40138f|2|0 3691,7,1,4,1,2,4,5,3,4,4,4,2,0,2342,6074,
scooby_state_40138f|21|0 3571,8,7,5,6,5,3,1,2,3,4,4,4,5,2445,6073,
scooby_state_40138f|29|0 3530,1,4,1,1,1,3,3,1,2,6,3,8,3,2506,6073,
scooby_state_40138f|55|0 3634,1,3,6,3,5,1,0,1,7,2,6,6,2,2394,6071,
scooby_state_40138f|43|0 3611,7,1,6,5,3,2,3,1,2,4,4,3,3,2415,6070,
scooby_state_4013ab|50|0 4287,6,4,5,3,4,5,1,2,2,3,13,3,1,1723,6062,
scooby_state_40138f|12|0 3576,3,4,1,3,2,2,3,2,6,0,1,3,5,2432,6043,
scooby_state_40138f|39|0 3619,4,4,4,4,7,3,3,4,7,4,6,5,2,2340,6016,
scooby_state_40138f|13|0 3628,2,4,3,1,2,3,3,2,3,3,1,2,3,2356,6016,
scooby_state_40138f|18|0 3616,3,5,6,1,2,1,3,4,3,5,3,4,6,2349,6011,
scooby_state_40138f|9|0 3473,4,1,2,5,1,2,3,6,7,2,2,2,3,2491,6004,
scooby_state_40138f|25|0 3386,4,2,4,2,3,3,0,1,5,5,7,4,5,2560,5991,
scooby_state_40138f|34|0 3612,3,1,5,3,2,1,4,2,0,2,2,4,6,2336,5983,
scooby_state_4013ab|42|0 4234,3,1,1,0,5,3,4,5,2,2,21,3,4,1693,5981,
scooby_state_4013ab|31|0 4127,4,6,2,3,5,2,3,6,3,4,8,3,6,1777,5959,
scooby_state_40138f|33|0 3545,2,4,5,4,2,2,6,2,3,2,5,7,3,2365,5957,
scooby_state_40138f|45|0 3470,3,4,4,3,4,3,2,3,6,1,7,4,4,2425,5943,
scooby_state_40138f|59|0 3758,6,3,2,2,5,3,4,3,1,3,4,1,1,2141,5937,
scooby_state_40138f|11|0 3499,2,7,2,6,6,1,6,1,5,2,4,1,2,2384,5928,
scooby_state_4013ab|53|0 4199,2,5,4,2,3,2,4,2,1,1,4,3,2,1691,5925,
scooby_state_40138f|5|0 3544,1,1,1,3,1,3,4,1,3,5,2,2,4,2324,5899,
scooby_state_40138f|19|0 3716,3,3,5,1,2,1,3,2,3,0,10,4,2,2139,5894,
scooby_state_40138f|15|0 3506,2,3,2,3,8,4,4,4,6,2,1,1,5,2328,5879,
scooby_state_4013ab|37|0 4152,3,8,6,4,2,2,6,2,0,5,8,1,2,1670,5871,
scooby_state_40138f|41|0 3514,3,4,1,5,1,1,3,2,4,2,4,2,7,2315,5868,
scooby_state_40138f|3|0 3531,1,3,2,5,1,2,4,1,2,3,5,1,4,2302,5867,
scooby_state_4013ab|52|0 4046,3,3,5,6,3,2,3,3,2,8,12,1,3,1758,5858,
scooby_state_40138f|51|0 3482,8,5,5,3,0,6,3,8,2,1,2,3,2,2317,5847,
scooby_state_40138f|14|0 3572,3,5,3,0,2,1,2,5,2,2,5,2,4,2229,5837,
scooby_state_40138f|48|0 3440,2,5,1,1,4,5,3,5,4,2,5,2,3,2321,5803,
scooby_state_4013ab|16|0 4195,3,7,4,3,1,5,3,0,3,3,9,4,5,1519,5764,
scooby_state_4013ab|14|0 4219,4,5,3,6,2,4,5,3,5,4,17,2,6,1468,5753,
scooby_state_4013ab|33|0 4109,3,3,3,8,3,3,5,0,4,3,12,4,2,1571,5733,
scooby_state_4013ab|57|0 3897,2,2,1,0,4,5,1,3,3,4,10,5,7,1747,5691,
scooby_state_40138f|24|0 3271,3,4,7,3,2,3,1,0,3,5,8,3,3,2374,5690,
scooby_state_40138f|35|0 3344,6,3,4,6,3,1,5,6,3,2,3,1,5,2287,5679,
scooby_state_4013ab|48|0 3997,2,0,4,1,1,1,4,5,2,1,14,4,7,1633,5676,
scooby_state_4013ab|26|0 4046,2,1,3,2,5,4,2,2,3,2,12,2,6,1566,5658,
scooby_state_40138f|23|0 3342,4,3,3,1,3,1,4,0,1,6,5,3,1,2266,5643,
scooby_state_40138f|28|0 3230,4,2,4,1,2,6,9,4,5,2,4,4,2,2356,5635,
scooby_state_4013ab|40|0 4090,8,2,1,1,2,2,2,6,3,6,9,1,4,1489,5626,
scooby_state_4013ab|32|0 3995,7,4,3,2,1,6,2,0,2,2,15,4,2,1580,5625,
scooby_state_4013ab|47|0 3971,5,6,4,3,6,2,2,7,2,3,10,3,4,1578,5606,
scooby_state_40138f|37|0 3296,4,1,3,4,3,7,1,2,1,3,7,6,2,2255,5595,
scooby_state_40138f|20|0 3369,2,4,0,4,3,3,8,3,6,1,1,1,3,2177,5585,
scooby_state_4013ab|58|0 4004,2,3,3,3,5,3,1,3,2,2,9,4,5,1528,5577,
scooby_state_4013ab|0|0 3973,3,2,5,1,2,5,4,6,2,2,12,2,0,1540,5559,
scooby_state_4013ab|51|0 3982,5,5,3,3,2,5,0,0,2,5,12,4,1,1528,5557,
scooby_state_4013ab|3|0 3979,3,5,2,1,4,5,2,0,3,3,7,3,2,1526,5545,
scooby_state_4013ab|59|0 3801,4,3,1,8,6,4,2,1,3,0,11,2,2,1691,5539,
scooby_state_4013ab|2|0 4022,9,3,2,5,4,4,0,2,3,9,7,3,4,1449,5526,
scooby_state_4013ab|49|0 3937,5,2,4,4,4,4,3,2,1,2,14,5,4,1507,5498,
scooby_state_4013ab|27|0 3909,6,5,5,1,2,4,6,1,1,4,14,3,3,1479,5443,
scooby_state_40138f|26|0 3268,1,3,1,2,3,3,6,0,2,5,1,2,1,2094,5392,
scooby_state_4013ab|41|0 3820,9,8,3,8,1,4,1,0,5,4,10,2,3,1491,5369,
scooby_state_4013ab|22|0 3816,3,3,5,3,1,2,1,3,1,0,15,0,2,1471,5326,
scooby_state_4013ab|29|0 3733,2,5,3,1,3,1,1,4,6,1,7,2,4,1538,5311,
scooby_state_4013ab|6|0 3835,3,3,4,5,0,7,4,4,6,4,14,4,3,1414,5310,
scooby_state_4013ab|23|0 3710,6,3,2,4,3,4,2,2,2,3,8,0,2,1542,5293,
scooby_state_4013ab|45|0 3671,3,2,6,1,1,3,4,3,2,3,18,5,4,1565,5291,
scooby_state_4013ab|1|0 3768,6,4,2,7,2,1,4,4,0,3,7,3,2,1476,5289,
scooby_state_4013ab|55|0 3700,4,3,4,6,6,3,1,2,7,2,7,5,1,1523,5274,
scooby_state_4013ab|43|0 3767,3,4,3,3,3,8,4,4,3,4,12,2,3,1410,5233,
scooby_state_4013ab|12|0 3764,1,1,1,2,1,0,0,1,2,2,8,3,3,1430,5219,
scooby_state_4013ab|17|0 3717,5,3,5,3,1,2,2,1,1,1,7,3,3,1455,5209,
scooby_state_4013ab|39|0 3648,2,0,4,2,4,2,0,4,4,4,16,4,5,1500,5199,
scooby_state_4013ab|5|0 3636,7,5,4,4,5,1,3,8,2,0,8,8,2,1491,5184,
scooby_state_4013ab|4|0 3730,1,3,2,3,1,1,4,4,3,2,7,0,2,1421,5184,
scooby_state_4013ab|24|0 3727,5,6,3,1,3,2,4,7,3,5,16,3,2,1374,5161,
scooby_state_4013ab|11|0 3629,0,2,1,3,6,3,3,3,2,2,5,5,1,1469,5134,
scooby_state_4013ab|46|0 3779,2,3,5,1,2,2,0,3,2,2,19,3,1,1301,5125,
scooby_state_4013ab|36|0 3640,2,2,2,3,8,5,5,1,2,2,11,5,2,1425,5115,
scooby_state_4013ab|7|0 3680,1,3,4,4,2,3,3,2,5,1,11,2,0,1385,5106,
scooby_state_4013ab|15|0 3552,2,2,2,3,2,3,4,4,1,3,6,4,1,1512,5101,
scooby_state_4013ab|10|0 3604,5,5,8,3,1,3,4,1,5,1,13,5,7,1401,5066,
scooby_state_4013ab|19|0 3605,2,5,2,2,4,1,2,1,3,4,7,6,1,1408,5053,
scooby_state_4013ab|44|0 3508,0,4,4,5,6,3,5,6,6,3,11,4,2,1432,4999,
scooby_state_4013ab|18|0 3633,6,0,1,3,5,4,2,0,3,2,10,4,4,1322,4999,
scooby_state_4013ab|13|0 3419,4,1,2,5,3,2,3,2,4,2,10,3,4,1349,4813,
scooby_state_4013ab|25|0 3307,5,7,4,2,3,3,3,5,4,5,12,5,1,1413,4779,
scooby_state_4013ab|30|0 3494,4,4,1,3,2,1,3,0,2,3,10,2,2,1224,4755,
scooby_state_4013ab|28|0 3387,3,3,1,1,1,1,4,0,4,3,11,5,1,1285,4710,
scooby_state_4013ab|21|0 3329,1,1,6,3,1,3,4,1,3,0,11,4,4,1316,4687,
scooby_state_4013ab|9|0 3304,1,4,3,0,3,3,4,4,3,2,4,4,2,1334,4675,
scooby_state_4013ab|8|0 3267,3,5,3,2,3,2,0,5,2,1,11,4,5,1192,4505,
scooby_state_4013ab|20|0 3151,3,2,4,1,3,3,3,3,2,3,3,4,1,1241,4427,
scooby_state_4013a7|27|1 2834,5,3,5,3,5,5,5,5,5,4,6,8,3,1442,4338,
scooby_state_4013a7|11|1 2909,1,1,5,7,8,3,2,3,3,3,5,1,3,1383,4337,
scooby_state_4013a7|39|1 2796,5,5,4,6,5,4,2,1,3,7,7,5,2,1479,4331,
scooby_state_4013a7|18|1 2878,5,4,7,5,0,1,3,0,5,3,7,5,0,1403,4326,
scooby_state_4013a7|28|1 2869,4,3,3,2,4,5,2,4,2,3,3,5,5,1408,4322,
scooby_state_4013a7|16|1 2624,3,2,5,1,6,2,3,4,3,3,4,3,4,1655,4322,
scooby_state_4013a7|36|1 2782,5,4,3,4,5,5,3,2,4,4,5,4,4,1487,4321,
scooby_state_4013a7|3|1 2799,4,6,3,4,7,1,3,4,5,4,8,5,2,1465,4320,
scooby_state_4013a7|34|1 2786,4,4,3,5,6,3,3,5,9,5,6,3,4,1474,4320,
scooby_state_4013a7|51|1 2795,6,4,5,4,2,2,2,8,4,5,11,6,3,1462,4319,
scooby_state_4013a7|31|1 2792,3,1,7,2,8,3,3,8,1,1,3,2,3,1479,4316,
scooby_state_4013a7|44|1 2818,3,5,3,2,3,1,3,4,3,2,5,3,2,1456,4313,
scooby_state_4013a7|42|1 2642,1,6,2,5,4,1,3,6,5,2,6,5,4,1620,4312,
scooby_state_4013a7|57|1 2800,4,0,3,5,9,6,5,4,4,3,2,6,2,1459,4312,
scooby_state_4013a7|29|1 2772,1,5,0,4,3,3,8,3,5,4,7,6,2,1489,4312,
scooby_state_4013a7|8|1 2786,5,0,4,8,3,1,2,1,2,3,4,6,4,1479,4308,
scooby_state_4013a7|60|1 2676,4,1,5,6,4,1,3,4,2,0,1,4,4,1592,4307,
scooby_state_4013a7|2|1 2711,4,8,5,1,3,3,4,3,2,3,6,6,1,1547,4307,
scooby_state_4013a7|6|1 2892,2,3,0,3,8,5,2,2,3,4,3,4,1,1374,4306,
scooby_state_4013a7|50|1 2735,1,3,5,4,4,6,5,5,3,4,6,2,10,1511,4304,
scooby_state_4013a7|41|1 2824,1,6,4,4,4,1,4,4,6,10,1,3,2,1429,4303,
scooby_state_4013a7|45|1 2877,3,6,5,6,4,2,4,2,5,3,5,4,6,1371,4303,
scooby_state_4013a7|58|1 2845,3,1,0,5,3,12,5,0,5,7,7,6,7,1394,4300,
scooby_state_4013a7|53|1 2902,4,2,8,3,3,3,1,5,0,3,7,3,4,1351,4299,
scooby_state_4013a7|19|1 2789,4,6,2,4,4,0,3,5,5,2,3,3,7,1461,4298,
scooby_state_4013a7|5|1 2739,4,8,1,6,2,3,3,4,4,0,5,6,5,1507,4297,
scooby_state_4013a7|1|1 2787,0,1,4,4,5,2,4,3,4,3,5,10,6,1459,4297,
scooby_state_4013a7|47|1 2671,8,9,4,0,3,5,1,5,4,3,5,7,5,1567,4297,
scooby_state_4013a7|23|1 2716,2,3,4,9,4,6,5,4,3,3,4,6,2,1525,4296,
scooby_state_4013a7|48|1 2628,3,4,4,6,4,3,3,0,2,0,4,8,1,1626,4296,
scooby_state_4013a7|4|1 2822,3,3,4,6,4,6,4,7,2,2,6,4,2,1420,4295,
scooby_state_4013a7|7|1 2849,6,1,7,3,5,4,3,2,5,10,9,5,2,1383,4294,
scooby_state_4013a7|21|1 2858,3,1,12,4,4,2,5,3,6,4,6,8,6,1372,4294,
scooby_state_4013a7|40|1 2804,4,5,4,4,3,1,7,3,4,1,8,7,1,1437,4293,
scooby_state_4013a7|12|1 2807,2,9,3,2,6,3,3,4,4,2,3,4,2,1438,4292,
scooby_state_4013a7|59|1 2723,7,4,4,6,3,1,4,1,1,7,3,4,8,1516,4292,
scooby_state_4013a7|30|1 2848,5,4,1,7,2,4,5,2,3,2,0,6,2,1401,4292,
scooby_state_4013a7|38|1 2782,2,2,2,2,5,1,5,1,1,5,1,8,2,1472,4291,
scooby_state_4013a7|56|1 2714,4,1,1,7,1,4,2,5,5,3,3,5,6,1529,4290,
scooby_state_4013a7|63|1 2661,5,5,7,3,4,4,1,3,4,4,5,2,7,1573,4288,
scooby_state_4013a7|14|1 2801,6,5,7,1,3,4,1,1,3,5,4,3,4,1440,4288,
scooby_state_4013a7|26|1 2761,7,4,1,3,3,2,0,3,6,5,1,1,4,1487,4288,
scooby_state_4013a7|33|1 2776,2,3,3,5,3,3,5,2,4,0,4,7,6,1464,4287,
scooby_state_4013a7|62|1 2876,2,4,7,2,4,0,4,2,3,3,7,3,6,1363,4286,
scooby_state_4013a7|54|1 2667,5,12,2,0,2,4,2,3,4,3,3,2,1,1575,4285,
scooby_state_4013a7|35|1 2845,6,6,4,3,5,2,2,4,3,5,6,3,4,1386,4284,
scooby_state_4013a7|46|1 2763,4,4,3,6,3,2,1,1,2,1,9,6,3,1475,4283,
scooby_state_4013a7|22|1 2744,5,2,5,5,2,2,4,4,3,2,4,1,2,1496,4281,
scooby_state_4013a7|10|1 2796,7,3,3,5,6,4,4,3,2,2,5,5,6,1429,4280,
scooby_state_4013a7|37|1 2821,2,3,1,3,9,4,3,6,2,1,6,6,3,1410,4280,
scooby_state_4013a7|20|1 2622,1,4,6,3,6,8,2,8,3,2,3,3,5,1601,4277,
scooby_state_4013a7|43|1 2743,4,4,5,5,1,4,3,3,5,0,3,4,4,1486,4274,
scooby_state_4013a7|25|1 2753,5,3,0,3,4,4,5,1,2,5,4,7,6,1470,4272,
scooby_state_4013a7|13|1 2700,5,6,3,6,2,3,1,1,4,1,1,4,2,1532,4271,
scooby_state_4013a7|17|1 2863,5,4,1,3,7,4,3,1,4,4,1,6,8,1351,4265,
scooby_state_4013a7|52|1 2699,6,2,6,3,2,4,1,5,4,4,10,3,4,1510,4263,
scooby_state_4013a7|61|1 2746,5,2,4,0,3,8,3,1,3,3,7,5,0,1472,4262,
scooby_state_4013a7|24|1 2747,4,2,4,2,7,3,4,1,3,3,2,9,2,1468,4261,
scooby_state_4013a7|9|1 2863,2,4,1,5,3,2,1,2,6,5,8,0,7,1349,4258,
scooby_state_4013a7|32|1 2702,3,7,5,6,3,7,2,6,4,0,6,3,7,1497,4258,
scooby_state_4013a7|49|1 2825,5,7,3,5,3,6,1,4,2,1,8,0,6,1375,4251,
scooby_state_4013a7|55|1 2706,3,3,4,6,1,2,2,6,4,2,8,2,3,1489,4241,
scooby_state_4013a7|15|1 2830,6,4,4,3,1,3,4,1,3,4,3,6,2,1359,4233,
scooby_state_403710|20|0 3703,6,6,5,4,4,5,2,6,2,5,12,6,4,17,3787,
scooby_state_403709|22|0 3648,3,1,2,3,3,3,3,4,5,2,3,5,4,39,3728,
scooby_state_4036b2|1|0 3182,27,22,25,22,24,27,23,29,27,27,77,22,19,37,3590,
scooby_state_403702|6|0 3498,1,3,4,4,4,2,1,4,2,3,36,1,3,8,3574,
scooby_state_4013a7|0|0 2562,56,60,59,67,50,41,50,55,47,18,177,29,27,260,3558,
scooby_state_403702|14|0 3385,0,2,5,3,2,0,2,1,1,2,30,0,1,12,3446,
scooby_state_403709|38|0 3378,2,0,3,2,2,1,1,2,1,0,2,2,2,30,3428,
scooby_state_402c50|51|0 0,0,1,1,0,0,0,1,0,0,1,3350,1,0,0,3355,
scooby_state_403709|0|0 3286,3,1,1,1,1,0,0,1,2,1,1,1,4,41,3344,
scooby_state_403710|37|0 3290,3,1,5,1,4,0,1,2,3,1,9,4,3,11,3338,
scooby_state_402cbc|9|0 3312,0,0,2,1,0,0,0,1,0,0,0,0,0,1,3317,
scooby_state_403702|25|0 3210,1,4,3,1,2,1,2,0,0,1,23,3,0,5,3256,
scooby_state_402c50|10|1 4,0,0,1,1,1,2,0,0,1,2,3173,0,1,1,3187,
scooby_state_402c50|52|1 1,1,0,0,2,0,0,1,0,0,0,3155,0,1,0,3161,
scooby_state_403709|62|0 3092,2,3,1,2,0,1,2,1,2,2,3,3,4,29,3147,
scooby_state_402c4c|51|1 2,2,3,2,3,0,2,3,3,1,4,3116,0,1,0,3142,
scooby_state_402c8c|50|0 3049,0,0,0,1,1,2,1,0,0,0,0,0,0,0,3054,
scooby_state_402c50|13|1 0,0,0,0,0,0,1,2,0,0,0,2988,3,1,1,2996,
scooby_state_403709|24|0 2915,0,1,2,2,1,3,2,1,3,2,4,1,5,22,2964,
scooby_state_403702|30|0 2853,1,5,7,2,4,4,2,7,1,2,31,1,5,9,2934,
scooby_state_403709|26|0 2807,3,2,4,5,3,2,2,6,3,7,3,4,5,34,2890,
scooby_state_403702|43|0 2783,4,3,2,5,3,3,2,2,4,4,33,4,4,11,2867,
scooby_state_402cbc|12|0 2857,0,0,0,0,1,2,0,0,0,1,0,1,0,0,2862,
scooby_state_403702|50|0 2783,3,4,3,2,4,2,3,2,2,4,27,2,3,7,2851,
scooby_state_403702|11|0 2771,2,4,2,1,3,2,2,5,2,2,34,3,1,9,2843,
scooby_state_402c20|50|-1 2831,0,3,0,1,0,1,0,0,0,1,1,2,0,1,2841,
scooby_state_403709|63|0 2751,4,4,4,4,3,3,3,4,2,3,4,2,5,34,2830,
scooby_state_402db8|36|0 16,0,8,7,6,5,4,9,4,4,4,2735,8,3,0,2813,
scooby_state_403702|10|0 2751,1,5,2,3,3,2,1,0,3,2,24,0,1,5,2803,
scooby_state_402c4c|0|0 2,2,2,2,4,0,2,2,5,0,4,2774,1,1,0,2801,
scooby_state_403702|7|0 2686,4,4,3,4,4,5,5,3,3,2,37,3,4,12,2779,
scooby_state_403702|42|0 2665,4,5,1,4,2,4,3,2,5,0,35,4,4,9,2747,
scooby_state_403709|29|0 2664,3,5,5,4,4,4,2,4,3,2,4,3,2,24,2733,
scooby_state_403702|27|0 2680,3,1,2,1,1,2,2,0,3,2,21,4,1,8,2731,
scooby_state_403702|3|0 2641,2,2,1,3,3,3,1,2,1,1,27,3,4,9,2703,
scooby_state_403710|11|0 2654,2,3,5,4,4,3,3,1,2,0,6,1,2,11,2701,
scooby_state_402cbc|51|0 2667,0,1,0,0,2,0,1,0,0,0,0,0,0,0,2671,
scooby_state_403702|5|0 2596,4,2,1,3,2,1,2,1,2,5,32,2,7,8,2668,
scooby_state_403709|27|0 2630,1,1,0,0,3,0,0,0,0,2,0,0,1,28,2666,
scooby_state_403710|25|0 2584,6,4,4,7,4,9,2,3,4,3,5,1,7,9,2652,
scooby_state_403709|3|0 2567,4,1,4,4,3,3,2,5,5,4,5,3,4,29,2643,
scooby_state_402c4c|13|0 0,1,1,3,4,0,1,1,1,0,0,2625,0,0,0,2637,
scooby_state_403702|41|0 2584,1,1,2,1,2,2,3,2,2,1,23,2,1,5,2632,
scooby_state_401384|56|1 1798,6,4,11,4,3,4,4,0,4,2,6,3,3,766,2618,
scooby_state_403702|37|0 2532,5,1,7,1,2,5,2,1,2,6,27,4,9,10,2614,
scooby_state_401384|61|1 1743,4,4,4,3,5,3,4,4,5,3,3,2,3,815,2605,
scooby_state_401384|35|1 1718,7,6,3,3,2,3,5,3,1,6,4,3,1,838,2603,
scooby_state_401384|32|1 1751,3,2,3,6,5,3,4,0,3,5,4,3,5,805,2602,
scooby_state_403710|0|0 2543,4,2,6,2,3,3,2,5,4,2,4,6,4,10,2600,
scooby_state_401384|30|1 1773,3,2,5,5,2,1,5,4,2,1,1,0,2,793,2599,
scooby_state_402c56|12|-1 614,1,1,4,2,2,2,1,1,1,2,1,3,1,1962,2598,
scooby_state_401384|12|1 1766,7,4,4,2,7,2,3,1,1,4,3,5,4,783,2596,
scooby_state_401384|40|1 1819,3,3,4,5,4,6,3,0,3,1,4,3,7,730,2595,
scooby_state_403702|31|0 2529,4,3,1,3,3,0,2,0,0,1,32,4,3,10,2595,
scooby_state_401384|15|1 1781,8,4,5,5,3,2,4,5,3,5,2,3,3,761,2594,
scooby_state_401384|41|1 1740,8,8,4,2,2,3,3,1,4,0,3,6,4,805,2593,
scooby_state_401384|49|1 1744,3,5,1,4,5,4,1,1,1,2,4,7,4,805,2591,
scooby_state_401384|48|1 1784,4,4,7,3,2,4,1,3,1,3,0,8,3,763,2590,
scooby_state_401384|47|1 1759,4,3,6,2,0,2,2,7,6,2,6,1,6,784,2590,
scooby_state_401384|27|1 1776,7,3,2,2,4,4,5,1,3,2,4,4,4,766,2587,
scooby_state_401384|6|1 1784,4,4,5,2,3,1,3,2,3,1,2,10,2,761,2587,
scooby_state_401384|2|1 1761,4,5,2,2,5,3,2,2,2,2,2,2,4,786,2584,
scooby_state_401384|17|1 1753,9,5,3,2,3,3,2,1,4,2,9,2,3,783,2584,
scooby_state_401384|53|1 1751,1,3,4,6,3,2,2,1,4,1,4,3,5,794,2584,
scooby_state_401384|10|1 1802,1,2,0,0,3,1,3,5,2,3,6,2,0,753,2583,
scooby_state_401384|29|1 1699,4,3,6,3,2,5,4,5,2,0,6,3,6,834,2582,
scooby_state_401384|3|1 1778,3,7,2,5,6,2,3,4,1,6,5,3,3,753,2581,
scooby_state_401384|14|1 1751,5,2,2,6,6,5,3,2,4,3,4,2,6,779,2580,
scooby_state_401384|18|1 1707,2,3,3,1,1,3,3,4,2,1,7,2,5,835,2579,
scooby_state_403709|46|0 2519,1,2,2,2,2,2,2,2,1,2,3,2,2,30,2574,
scooby_state_401384|5|1 1748,3,1,6,2,2,3,6,1,3,2,7,1,3,783,2571,
scooby_state_401384|9|1 1807,2,2,5,3,7,3,3,4,2,4,8,5,4,711,2570,
scooby_state_401384|26|1 1775,7,2,2,4,2,4,2,2,1,3,5,4,4,753,2570,
scooby_state_401384|28|1 1764,4,2,3,4,3,3,5,3,3,5,1,4,2,764,2570,
scooby_state_401384|34|1 1749,2,4,2,2,5,1,5,3,4,5,4,5,3,776,2570,
scooby_state_401384|20|1 1776,3,4,1,3,4,3,5,1,2,1,7,6,5,748,2569,
scooby_state_401384|44|1 1741,1,4,3,5,3,4,3,3,3,4,3,3,4,785,2569,
scooby_state_401384|59|1 1749,3,0,2,4,5,6,4,4,4,2,3,2,4,776,2568,
scooby_state_401384|11|1 1716,4,4,2,5,3,3,1,1,2,1,5,4,2,815,2568,
scooby_state_401384|23|1 1712,6,1,3,6,3,7,2,3,3,1,7,1,2,809,2566,
scooby_state_402c50|5|0 0,1,1,0,0,0,2,0,0,1,0,2558,1,0,1,2565,
scooby_state_401384|62|1 1661,3,3,2,3,4,5,3,4,7,3,6,4,6,851,2565,
scooby_state_401384|16|1 1703,3,1,6,8,4,0,7,1,5,2,7,2,3,811,2563,
scooby_state_401384|60|1 1720,3,2,2,3,5,2,4,3,2,4,5,3,2,802,2562,
scooby_state_403702|2|0 2503,2,1,1,1,1,3,1,1,2,2,30,3,3,8,2562,
scooby_state_401384|4|1 1779,7,6,5,0,2,3,3,3,6,2,2,5,4,735,2562,
scooby_state_401384|50|1 1768,3,3,3,5,4,3,4,4,4,4,7,3,4,743,2562,
scooby_state_401384|24|1 1755,3,4,1,2,5,3,2,6,3,2,4,6,2,763,2561,
scooby_state_401384|25|1 1818,2,5,3,5,4,1,1,3,3,3,2,1,6,704,2561,
scooby_state_401384|37|1 1801,7,7,1,5,1,4,3,0,3,2,5,3,2,716,2560,
scooby_state_403709|14|0 2490,4,3,2,4,4,5,9,3,2,0,5,3,3,23,2560,
scooby_state_401384|22|1 1715,5,2,2,4,5,1,3,3,4,2,7,4,2,800,2559,
scooby_state_401384|57|1 1677,4,4,3,1,1,4,1,4,2,2,4,4,5,843,2559,
scooby_state_401384|8|1 1742,8,5,2,2,4,2,7,3,1,2,3,5,3,769,2558,
scooby_state_401384|36|1 1783,5,3,4,1,2,3,4,2,2,2,3,3,4,737,2558,
scooby_state_401384|54|1 1716,2,3,4,0,2,5,4,3,1,5,7,6,2,798,2558,
scooby_state_401384|7|1 1698,2,2,3,6,4,0,2,4,1,1,4,0,1,829,2557,
scooby_state_401384|46|1 1707,4,9,8,1,3,4,4,2,3,2,2,4,2,801,2556,
scooby_state_401384|42|1 1752,0,4,5,5,5,8,2,5,2,6,3,1,2,756,2556,
scooby_state_401384|31|1 1775,5,4,2,2,1,1,4,4,4,3,5,4,2,740,2556,
scooby_state_401384|33|1 1786,8,2,8,6,1,2,2,2,1,2,6,8,6,715,2555,
scooby_state_401384|1|1 1746,6,5,4,4,2,2,0,1,2,6,5,2,4,764,2553,
scooby_state_401384|52|1 1724,3,6,3,4,1,5,3,4,1,6,5,4,4,779,2552,
scooby_state_401384|55|1 1676,3,6,2,3,3,5,5,2,0,3,13,3,3,825,2552,
scooby_state_401384|45|1 1735,3,3,2,4,2,0,3,4,4,1,3,3,1,784,2552,
scooby_state_401384|63|1 1722,4,4,1,3,2,3,1,3,3,5,2,4,1,792,2550,
scooby_state_403709|35|0 2497,4,1,6,1,2,1,1,3,0,2,4,1,1,26,2550,
scooby_state_401384|38|1 1679,1,3,2,3,5,2,3,3,4,0,2,5,4,832,2548,
scooby_state_401384|21|1 1771,6,5,5,5,3,5,4,2,2,2,4,2,1,730,2547,
scooby_state_401384|51|1 1676,2,1,7,1,2,4,3,2,5,4,5,4,4,826,2546,
scooby_state_401384|19|1 1808,0,2,5,4,6,2,0,3,2,3,5,5,3,696,2544,
scooby_state_401384|13|1 1757,4,3,4,3,6,2,3,3,3,2,4,6,1,743,2544,
scooby_state_401384|43|1 1736,6,4,3,3,5,4,1,1,2,1,1,2,3,769,2541,
scooby_state_403709|45|0 2468,2,2,3,2,2,2,4,1,2,4,7,2,4,25,2530,
scooby_state_401384|58|1 1736,2,2,1,2,5,4,1,7,2,3,7,4,4,740,2520,
scooby_state_403702|17|0 2433,3,1,3,4,3,3,5,4,3,4,30,2,3,7,2508,
scooby_state_403710|29|0 2451,5,3,3,2,3,4,4,5,2,6,4,2,4,10,2508,
scooby_state_403702|56|0 2438,5,2,4,2,4,3,2,3,0,3,33,2,0,5,2506,
scooby_state_401384|39|1 1765,2,3,4,5,2,2,3,1,3,2,4,2,6,697,2501,
scooby_state_403709|11|0 2441,2,3,2,3,2,1,1,1,0,1,2,0,1,25,2485,
scooby_state_403710|51|0 2433,1,0,2,1,4,2,4,1,1,4,10,1,2,7,2473,
scooby_state_403702|45|0 2414,1,3,1,1,3,1,0,1,1,3,31,2,4,5,2471,
scooby_state_403709|39|0 2405,3,3,3,4,4,3,1,5,2,3,4,2,4,23,2469,
scooby_state_4037d3|59|0 2171,8,13,8,8,11,18,9,13,9,13,91,16,27,42,2457,
scooby_state_403702|36|0 2402,3,1,3,0,1,2,0,1,0,1,26,1,1,10,2452,
scooby_state_403709|7|0 2387,1,4,1,1,3,2,1,2,2,2,2,2,2,26,2438,
scooby_state_403702|53|0 2374,2,0,2,0,2,1,3,0,2,2,33,3,4,8,2436,
scooby_state_4037d3|60|0 2119,12,14,16,8,17,10,10,8,12,7,92,31,30,33,2419,
scooby_state_403709|28|0 2371,1,1,3,3,2,1,3,2,4,1,4,0,3,18,2417,
scooby_state_403702|32|0 2373,2,1,1,0,1,0,0,0,0,1,25,3,2,7,2416,
scooby_state_403710|23|0 2364,1,3,4,3,2,2,2,2,4,3,6,4,4,12,2416,
scooby_state_403702|35|0 2353,3,1,2,2,3,3,3,2,3,3,20,2,4,7,2411,
scooby_state_403702|21|0 2346,1,4,2,1,1,1,2,1,3,3,23,1,2,8,2399,
scooby_state_402e55|35|0 1939,31,30,33,31,31,33,33,31,28,25,35,30,33,51,2394,
scooby_state_403702|46|0 2331,1,5,3,5,5,0,1,3,4,1,22,0,2,9,2392,
scooby_state_403702|54|0 2348,1,0,1,1,0,0,0,0,1,2,18,2,0,5,2379,
scooby_state_403702|63|0 2339,0,0,0,1,1,0,3,2,0,2,21,4,1,3,2377,
scooby_state_403702|55|0 2339,2,1,0,0,2,1,1,2,1,2,19,1,1,4,2376,
scooby_state_403702|60|0 2316,3,2,3,2,3,3,1,4,3,3,20,3,2,5,2373,
scooby_state_403702|22|0 2320,1,0,0,3,2,0,1,4,2,1,21,2,1,5,2363,
scooby_state_403702|16|0 2274,3,2,3,4,2,5,2,3,2,4,37,2,5,5,2353,
scooby_state_403709|50|0 2298,2,3,3,2,2,2,3,2,2,1,5,2,1,24,2352,
scooby_state_402c50|1|1 0,0,2,0,0,1,0,0,1,1,0,2343,0,0,0,2348,
scooby_state_403702|28|0 2306,1,2,1,1,1,1,0,2,1,0,23,3,0,4,2346,
scooby_state_402c50|53|0 3,0,1,1,2,1,0,1,0,0,1,2331,0,0,0,2341,
scooby_state_403710|55|0 2243,7,6,7,5,7,7,6,5,3,5,7,6,2,16,2332,
scooby_state_403702|0|0 2274,1,2,1,1,1,1,1,3,0,0,25,1,1,6,2318,
scooby_state_403710|1|0 2207,8,6,7,6,7,7,9,5,5,6,12,6,8,14,2313,
scooby_state_40301f|54|1 2209,17,19,11,4,5,4,2,6,6,6,0,6,5,9,2309,
scooby_state_403709|32|0 2268,0,2,1,3,3,3,0,4,1,0,1,1,2,18,2307,
scooby_state_403702|12|0 2258,1,2,1,1,2,1,0,4,1,0,26,1,2,7,2307,
scooby_state_403709|51|0 2263,0,2,0,1,3,4,2,0,2,1,5,2,2,19,2306,
scooby_state_403709|23|0 2253,0,1,2,2,0,0,2,1,1,1,1,2,1,37,2304,
scooby_state_403710|6|0 2229,2,4,3,3,5,3,3,5,3,4,7,5,3,9,2288,
scooby_state_403709|2|0 2248,2,1,3,1,0,1,2,1,1,2,0,2,2,20,2286,
scooby_state_403702|19|0 2208,2,1,1,1,0,0,3,2,2,5,25,2,2,9,2263,
scooby_state_403702|38|0 2238,0,1,1,1,1,1,0,0,0,1,17,0,0,1,2262,
scooby_state_403709|16|0 2196,5,2,1,2,2,3,1,1,2,1,2,2,4,32,2256,
scooby_state_403709|44|0 2212,3,3,1,0,0,2,3,1,0,1,2,0,2,26,2256,
scooby_state_403709|57|0 2217,1,0,2,1,0,0,2,1,0,1,4,1,3,19,2252,
scooby_state_403709|36|0 2210,1,1,1,0,0,0,0,1,0,3,1,0,1,27,2246,
scooby_state_403709|1|0 2207,2,1,1,2,1,3,0,2,1,1,1,1,2,20,2245,
scooby_state_403702|29|0 2203,2,0,0,0,0,0,1,0,0,1,18,4,3,7,2239,
scooby_state_403709|34|0 2180,0,1,1,3,2,2,2,3,2,2,1,2,2,24,2227,
scooby_state_403709|58|0 2163,3,2,1,3,3,1,1,2,3,1,2,2,1,28,2216,
scooby_state_403709|60|0 2165,1,1,2,0,0,2,1,1,1,0,2,1,0,26,2203,
scooby_state_403709|61|0 2169,1,2,3,2,2,0,0,2,2,0,0,1,0,16,2200,
scooby_state_403709|10|0 2149,3,4,3,4,1,2,1,0,0,0,1,3,0,26,2197,
scooby_state_403709|59|0 2122,7,4,1,3,4,5,3,3,5,2,6,4,5,21,2195,
scooby_state_402c50|9|1 0,1,1,0,1,0,1,1,1,0,0,2182,0,0,0,2188,
scooby_state_402c4c|34|1 2,1,3,0,3,0,2,1,4,0,3,2124,0,0,0,2143,
scooby_state_403709|6|0 2063,7,3,2,5,3,4,2,5,5,1,4,4,2,32,2142,
scooby_state_402cbc|8|0 2132,0,0,0,0,0,1,0,1,0,0,1,0,1,0,2136,
scooby_state_403702|34|0 2085,1,0,1,0,1,0,1,2,2,3,29,3,0,4,2132,
scooby_state_403709|33|0 2066,2,3,5,2,2,3,2,1,2,2,3,2,3,32,2130,
scooby_state_403709|17|0 2068,5,2,3,1,1,2,3,1,1,5,3,1,4,27,2127,
scooby_state_403702|23|0 2074,4,1,1,3,2,4,1,3,3,3,15,3,3,4,2124,
scooby_state_402c4c|61|0 2,1,2,1,2,0,1,2,3,0,2,2105,0,2,0,2123,
scooby_state_403710|38|0 2064,2,4,4,1,1,4,2,2,2,1,4,1,3,11,2106,
scooby_state_403702|1|0 2060,0,1,2,2,2,3,2,1,1,2,20,2,0,4,2102,
scooby_state_403710|22|0 2073,2,0,0,0,0,0,1,1,1,3,10,2,2,7,2102,
scooby_state_403710|61|0 1970,10,9,8,9,9,9,10,7,7,10,10,11,8,14,2101,
scooby_state_403710|43|0 2027,4,4,7,3,5,3,3,5,3,2,7,8,9,10,2100,
scooby_state_403702|52|0 2040,4,2,2,1,1,5,2,2,2,2,25,2,3,7,2100,
scooby_state_403709|21|0 2052,2,3,2,3,2,1,0,2,1,1,0,1,2,22,2094,
scooby_state_403710|39|0 2035,4,4,3,2,3,4,1,5,3,1,10,3,1,10,2089,
scooby_state_403702|20|0 2057,1,1,1,0,2,2,2,0,0,0,16,2,0,3,2087,
scooby_state_403709|52|0 2049,4,1,1,1,1,3,0,2,0,2,2,4,2,14,2086,
scooby_state_402c56|60|-1 471,1,2,4,3,1,3,3,3,2,4,1,6,3,1568,2075,
scooby_state_403709|41|0 2016,2,2,3,1,3,3,2,3,2,3,2,2,4,17,2065,
scooby_state_403709|43|0 2020,1,3,0,1,1,2,1,0,3,0,2,2,1,25,2062,
scooby_state_403709|9|0 2021,4,2,1,3,2,2,2,3,2,1,2,1,1,14,2061,
scooby_state_403709|56|0 1982,4,3,3,6,3,5,3,4,4,3,6,4,5,25,2060,
scooby_state_403710|52|0 2043,1,1,2,0,0,1,0,0,3,1,1,0,1,2,2056,
scooby_state_402c50|0|0 0,0,0,1,0,0,1,0,0,0,0,2051,0,0,1,2054,
scooby_state_403709|53|0 2009,3,1,2,4,1,2,0,1,0,2,2,2,3,22,2054,
scooby_state_402c8c|33|0 2049,0,0,1,0,0,0,0,0,0,0,0,0,0,0,2050,
scooby_state_403702|48|0 1982,3,4,4,3,1,2,3,2,3,2,23,2,3,11,2048,
scooby_state_402cbc|62|0 2040,0,0,0,0,0,0,0,1,0,0,0,0,0,0,2041,
scooby_state_402cbc|0|0 2032,1,1,0,2,0,0,0,0,1,0,1,0,0,0,2038,
scooby_state_403709|8|0 1983,2,2,3,2,1,2,3,2,2,1,6,3,1,21,2034,
scooby_state_403709|25|0 2000,2,3,4,0,2,1,3,3,0,0,2,1,0,10,2031,
scooby_state_403710|31|0 1993,3,1,2,1,2,1,1,1,1,2,2,1,1,8,2020,
scooby_state_401384|0|0 1368,43,40,40,41,33,32,34,31,41,45,2,26,25,203,2004,
scooby_state_403702|13|0 1955,5,1,4,2,2,3,2,3,2,3,11,2,2,5,2002,
scooby_state_403709|13|0 1951,2,1,3,1,1,0,2,1,1,1,3,1,2,21,1991,
scooby_state_403702|47|0 1927,1,3,0,3,1,4,5,2,2,3,18,3,3,9,1984,
scooby_state_402c50|23|0 1,0,0,0,1,0,0,0,1,1,0,1977,0,0,0,1981,
scooby_state_403702|26|0 1924,2,2,1,1,2,3,2,1,2,4,22,4,3,7,1980,
scooby_state_403710|3|0 1948,2,0,2,3,1,3,0,0,2,1,2,1,3,3,1971,
scooby_state_403702|39|0 1925,2,1,1,2,3,1,1,2,3,2,12,1,1,5,1962,
scooby_state_402c50|63|1 0,0,0,0,1,0,0,0,0,0,0,1957,0,0,0,1958,
scooby_state_403702|62|0 1893,6,6,5,4,5,2,1,2,1,1,18,2,5,6,1957,
scooby_state_402cb8|4|1 1,0,1,0,0,0,1,0,0,0,0,0,0,1,1947,1951,
scooby_state_402c20|7|-2 1945,1,0,0,0,1,1,0,0,1,0,0,1,0,0,1950,
scooby_state_403702|51|0 1867,5,3,3,3,2,6,3,2,3,6,26,4,4,10,1947,
scooby_state_402c50|60|1 0,1,1,0,1,2,0,1,1,0,0,1936,0,0,1,1944,
scooby_state_402c4c|41|1 1,0,0,0,0,0,2,0,2,0,1,1933,0,0,0,1939,
scooby_state_403702|57|0 1885,2,2,2,2,1,2,1,2,2,2,20,2,4,7,1936,
scooby_state_402c20|3|-2 1926,0,0,0,0,0,0,0,0,0,0,0,1,0,0,1927,
scooby_state_402c4c|19|1 1,2,1,1,1,0,1,1,2,0,2,1904,0,0,0,1916,
scooby_state_403709|54|0 1867,1,2,2,3,2,4,2,2,0,0,4,2,1,16,1908,
scooby_state_403710|62|0 1851,4,1,3,3,2,3,3,3,2,3,2,5,3,8,1896,
scooby_state_402c4c|54|0 3,2,2,1,3,0,2,1,3,0,5,1870,0,0,0,1892,
scooby_state_402c20|5|-1 1888,0,0,0,0,1,0,0,0,0,0,0,1,0,1,1891,
scooby_state_403709|5|0 1851,2,3,0,1,2,1,2,2,3,0,2,2,2,18,1891,
scooby_state_402c8c|40|0 1887,0,0,0,3,0,0,0,0,0,0,1,0,0,0,1891,
scooby_state_402c4c|52|1 3,0,3,0,3,0,2,1,3,0,3,1867,1,0,1,1887,
scooby_state_403702|33|0 1841,1,2,1,1,2,2,0,1,1,1,21,0,1,5,1880,
scooby_state_402c50|50|0 0,0,3,0,0,1,0,0,1,0,0,1864,0,0,0,1869,
scooby_state_402c50|31|0 0,0,0,0,0,0,0,0,0,1,0,1866,1,0,0,1868,
scooby_state_402c50|6|0 0,1,0,0,0,1,0,0,0,0,0,1844,0,0,0,1846,
scooby_state_402c56|63|0 422,14,13,11,14,14,8,13,8,15,12,145,24,16,1105,1834,
scooby_state_402c4c|23|1 3,1,2,0,2,0,3,0,3,0,3,1816,0,0,0,1833,
scooby_state_403710|16|0 1774,5,2,4,4,5,3,3,2,2,4,6,4,5,8,1831,
scooby_state_403702|8|0 1785,1,2,0,1,0,0,0,1,0,0,24,4,2,4,1824,
scooby_state_402c4c|22|1 1,1,2,2,3,0,1,1,3,0,2,1803,0,0,2,1821,
scooby_state_403702|18|0 1777,0,1,3,1,1,1,0,1,1,0,20,1,0,5,1812,
scooby_state_403709|48|0 1737,3,3,6,3,3,5,4,3,3,2,7,3,2,22,1806,
scooby_state_403710|50|0 1765,4,1,4,2,1,4,2,3,1,3,3,2,3,3,1801,
scooby_state_403702|4|0 1723,4,3,4,3,3,2,4,2,3,4,23,4,4,8,1794,
scooby_state_402cbc|24|0 1788,0,1,1,0,0,0,0,1,1,0,0,0,0,0,1792,
scooby_state_402c4c|53|1 3,0,2,0,1,1,1,1,1,1,1,1779,0,0,0,1791,
scooby_state_403702|9|0 1759,3,0,2,1,1,2,0,2,0,1,13,0,2,3,1789,
scooby_state_403702|44|0 1736,0,2,0,3,1,3,1,3,0,2,26,1,3,3,1784,
scooby_state_402c8c|18|0 1775,0,0,0,0,0,0,1,0,0,1,0,1,0,0,1778,
scooby_state_403709|49|0 1724,1,4,2,3,1,0,1,0,2,1,5,1,2,18,1765,
scooby_state_402c50|7|1 1,1,0,0,0,0,1,0,0,0,0,1756,1,0,0,1760,
scooby_state_402cb8|32|1 11,6,5,5,5,5,3,6,6,5,3,4,8,5,1682,1759,
scooby_state_403709|30|0 1707,2,0,1,1,1,1,5,1,3,2,3,1,5,24,1757,
scooby_state_401380|12|1 1150,5,2,7,3,2,6,3,1,4,6,4,0,5,545,1743,
scooby_state_401380|20|1 1173,3,3,6,5,2,5,2,4,2,1,3,1,2,531,1743,
scooby_state_401380|8|1 1171,4,2,3,2,1,4,2,2,0,3,1,4,5,538,1742,
scooby_state_401380|51|1 1191,2,2,4,0,3,2,1,5,3,2,4,2,5,515,1741,
scooby_state_401380|46|1 1198,3,3,1,3,3,4,1,1,0,2,2,2,6,512,1741,
scooby_state_401380|33|1 1238,2,2,4,3,7,0,4,0,2,2,1,7,2,466,1740,
scooby_state_401380|59|1 1201,5,1,0,4,2,2,2,3,1,5,7,3,1,503,1740,
scooby_state_401380|25|1 1173,4,4,1,1,4,4,4,4,3,3,2,4,4,523,1738,
scooby_state_401380|7|1 1122,4,5,5,2,5,4,3,2,1,4,2,1,4,574,1738,
scooby_state_403710|48|0 1696,2,3,3,2,2,2,3,5,4,2,4,3,2,4,1737,
scooby_state_401380|38|1 1140,1,3,5,1,2,0,1,2,3,2,2,3,3,569,1737,
scooby_state_401380|52|1 1213,3,3,4,7,3,3,3,3,2,4,2,1,2,481,1734,
scooby_state_403710|53|0 1685,2,1,4,5,2,6,1,4,3,3,6,3,2,7,1734,
scooby_state_401380|13|1 1216,5,1,0,3,5,1,3,3,0,0,5,4,1,487,1734,
scooby_state_4037d3|58|0 1499,8,6,4,11,10,8,11,12,11,9,74,22,17,30,1732,
scooby_state_401380|58|1 1165,2,1,4,4,2,0,5,1,4,4,6,3,3,527,1731,
scooby_state_401380|10|1 1220,4,3,2,4,4,3,3,3,2,2,2,3,2,474,1731,
scooby_state_401380|14|1 1234,5,6,2,3,1,4,3,1,2,0,4,1,1,464,1731,
scooby_state_401380|45|1 1232,1,2,1,0,2,3,2,1,4,3,4,5,2,466,1728,
scooby_state_401380|24|1 1200,3,2,3,4,1,3,4,4,1,3,2,2,3,493,1728,
scooby_state_401380|47|1 1132,3,5,4,3,1,4,5,3,2,1,2,6,3,554,1728,
scooby_state_401380|19|1 1187,3,4,5,4,2,2,2,3,1,4,1,3,5,502,1728,
scooby_state_401380|28|1 1174,5,0,1,2,2,2,1,7,3,1,5,5,3,515,1726,
scooby_state_401380|2|1 1165,4,3,5,5,5,7,5,2,1,2,4,2,0,516,1726,
scooby_state_401380|36|1 1121,5,5,2,1,3,2,3,1,4,3,2,6,4,564,1726,
scooby_state_401380|26|1 1197,6,0,4,2,7,0,2,0,2,6,5,1,1,492,1725,
scooby_state_401380|41|1 1247,2,2,3,3,3,3,2,7,0,2,6,1,3,441,1725,
scooby_state_401380|34|1 1091,4,6,0,2,3,2,3,3,3,2,6,6,4,590,1725,
scooby_state_401380|43|1 1138,4,1,3,3,3,4,3,1,3,2,3,3,6,548,1725,
scooby_state_401380|31|1 1233,3,4,4,2,7,0,3,5,1,4,1,0,8,450,1725,
scooby_state_401380|3|1 1199,3,3,2,2,3,3,4,3,2,8,7,2,1,483,1725,
scooby_state_401380|48|1 1203,3,6,4,2,3,5,3,0,4,3,8,2,3,476,1725,
scooby_state_401380|60|1 1240,4,4,2,0,1,1,5,3,5,1,1,2,3,452,1724,
scooby_state_401380|35|1 1230,3,6,3,4,0,2,7,1,3,2,2,3,1,457,1724,
scooby_state_401380|61|1 1152,3,2,3,1,4,4,2,1,4,2,4,4,1,537,1724,
scooby_state_401380|53|1 1222,2,4,2,3,3,3,1,2,2,2,2,4,1,471,1724,
scooby_state_401380|5|1 1198,4,0,5,0,3,2,3,2,4,2,1,2,6,492,1724,
scooby_state_401380|57|1 1203,6,4,5,5,2,3,2,1,1,1,0,6,7,477,1723,
scooby_state_401380|15|1 1199,4,2,5,2,4,4,1,1,2,1,5,2,2,489,1723,
scooby_state_401380|62|1 1164,2,2,3,3,3,2,5,0,1,2,3,4,3,525,1722,
scooby_state_401380|54|1 1262,5,3,3,2,2,2,3,5,2,3,1,1,3,425,1722,
scooby_state_401380|1|1 1132,5,0,4,8,3,3,3,6,3,4,1,2,2,546,1722,
scooby_state_401380|23|1 1167,3,3,4,4,4,2,5,8,1,1,1,5,5,509,1722,
scooby_state_401380|16|1 1164,5,4,0,0,4,1,1,0,2,4,4,2,4,527,1722,
scooby_state_401380|42|1 1206,3,4,2,1,2,1,4,1,4,0,4,3,1,485,1721,
scooby_state_401380|50|1 1135,2,1,5,4,3,3,2,3,4,2,2,3,3,549,1721,
scooby_state_401380|56|1 1144,2,5,3,2,2,2,2,6,1,2,3,3,4,539,1720,
scooby_state_401380|18|1 1132,4,1,8,4,2,2,2,8,1,2,4,4,2,544,1720,
scooby_state_401380|37|1 1166,1,4,2,0,2,0,3,2,3,1,2,7,3,524,1720,
scooby_state_401380|29|1 1172,6,2,1,3,5,2,3,3,3,0,1,7,0,512,1720,
scooby_state_401380|55|1 1166,5,3,2,2,5,4,3,2,2,1,3,2,5,515,1720,
scooby_state_401380|4|1 1181,4,2,4,5,5,5,3,4,2,3,3,3,3,493,1720,
scooby_state_401380|17|1 1151,3,7,3,4,1,7,2,0,1,1,1,2,6,530,1719,
scooby_state_401380|22|1 1167,3,7,3,3,7,3,0,2,3,4,1,3,2,511,1719,
scooby_state_401380|44|1 1150,3,1,2,2,3,6,3,0,1,1,7,1,8,531,1719,
scooby_state_401380|30|1 1216,1,4,7,4,2,1,1,2,2,1,3,2,5,468,1719,
scooby_state_401380|49|1 1148,4,1,3,1,4,2,3,1,4,4,1,3,3,537,1719,
scooby_state_401380|27|1 1146,2,3,5,2,5,3,2,2,5,4,2,3,0,534,1718,
scooby_state_401380|9|1 1246,4,3,2,0,1,1,2,5,2,0,5,3,5,439,1718,
scooby_state_401380|11|1 1187,4,0,2,3,1,4,1,2,4,1,5,2,3,499,1718,
scooby_state_401380|32|1 1146,1,3,4,3,3,4,3,2,3,1,2,3,3,536,1717,
scooby_state_401380|6|1 1186,7,5,4,3,3,3,4,3,2,2,3,1,1,490,1717,
scooby_state_401380|40|1 1147,3,6,6,3,2,1,4,3,3,3,4,6,3,522,1716,
scooby_state_401380|21|1 1196,4,2,4,2,3,3,2,4,3,4,1,5,2,477,1712,
scooby_state_401380|39|1 1161,2,3,2,6,3,2,5,0,2,1,2,5,2,514,1710,
scooby_state_402c50|33|0 0,0,0,3,2,0,0,0,0,0,1,1703,0,0,0,1709,
scooby_state_401380|63|1 1163,4,3,2,4,5,1,2,3,2,1,1,1,2,513,1707,
scooby_state_403702|61|0 1631,5,3,2,2,3,3,2,3,4,3,27,5,3,10,1706,
scooby_state_402c8c|22|0 1706,0,0,0,0,0,0,0,0,0,0,0,0,0,0,1706,
scooby_state_403710|27|0 1684,1,1,1,2,1,0,1,0,1,2,4,0,0,5,1703,
scooby_state_403710|45|0 1671,2,3,1,0,3,1,2,0,0,1,1,1,2,8,1696,
scooby_state_402c20|31|-2 1683,0,2,0,1,1,1,1,0,2,1,1,1,0,1,1695,
scooby_state_403709|15|0 1667,2,0,2,1,1,0,0,1,1,0,1,2,0,12,1690,
scooby_state_402c50|56|1 0,0,0,0,0,0,0,0,0,0,1,1689,0,0,0,1690,
scooby_state_403702|49|0 1661,0,0,2,0,0,0,1,1,0,2,17,3,0,3,1690,
scooby_state_403710|54|0 1660,0,2,0,3,3,1,2,2,0,1,3,3,1,8,1689,
scooby_state_402c50|25|1 0,0,1,0,0,0,1,0,0,1,0,1678,1,0,0,1682,
scooby_state_403710|5|0 1649,1,3,2,2,6,0,3,2,2,3,2,3,1,3,1682,
scooby_state_403709|40|0 1656,1,0,1,0,2,1,2,3,2,0,2,2,0,8,1680,
scooby_state_4029e0|5|0 1667,2,1,0,1,0,1,1,1,1,1,0,1,2,1,1680,
scooby_state_402c50|16|0 0,0,0,1,1,0,0,0,0,0,0,1677,0,0,0,1679,
scooby_state_402cbc|59|0 1671,0,0,0,0,1,0,0,0,1,0,1,0,0,0,1674,
scooby_state_402c20|36|-1 1667,0,0,0,0,0,2,0,0,1,1,0,0,0,0,1671,
scooby_state_403710|60|0 1634,3,3,1,3,0,1,1,0,1,0,3,0,2,4,1656,
scooby_state_40301f|52|0 1644,0,0,2,1,3,3,1,1,0,0,0,0,0,1,1656,
scooby_state_403710|14|0 1626,1,0,1,1,4,0,1,1,1,2,4,1,0,8,1651,
scooby_state_4029e0|21|0 1632,3,3,2,1,1,0,1,1,0,0,1,1,4,1,1651,
scooby_state_403710|15|0 1611,0,3,4,2,3,1,2,2,0,1,2,4,1,6,1642,
scooby_state_402c50|21|1 1,0,0,0,0,0,0,0,1,1,0,1639,0,0,0,1642,
scooby_state_4029e0|0|0 1621,6,2,1,0,0,1,1,1,1,0,0,0,0,2,1636,
scooby_state_402c8c|21|0 1624,0,1,0,1,1,1,0,0,1,0,0,0,0,1,1630,
scooby_state_4029e0|2|0 1614,2,1,0,0,0,1,1,0,2,1,0,2,2,3,1629,
scooby_state_402cbc|55|0 1625,0,0,0,1,0,0,0,0,0,0,1,0,0,1,1628,
scooby_state_4029e0|18|0 1606,1,3,2,1,2,0,1,2,0,0,1,0,3,3,1625,
scooby_state_4029e0|6|0 1600,5,2,2,1,2,1,1,2,0,2,0,1,1,2,1622,
scooby_state_4029e0|3|0 1601,4,1,1,2,1,0,1,2,1,0,0,0,1,2,1617,
scooby_state_402c4c|9|0 2,1,2,0,1,0,1,1,1,0,3,1593,0,0,0,1605,
scooby_state_403709|37|0 1571,0,2,3,0,2,1,2,1,0,2,4,1,2,12,1603,
scooby_state_403709|55|0 1577,1,1,0,2,1,1,0,1,1,1,1,1,1,13,1602,
scooby_state_4029e0|11|0 1587,1,0,3,0,0,0,1,3,0,1,0,0,2,2,1600,
scooby_state_402c50|24|0 0,0,1,0,0,0,0,0,0,0,0,1591,0,0,0,1592,
scooby_state_402c50|29|0 0,0,0,0,0,0,1,1,0,0,1,1584,0,0,0,1587,
scooby_state_402c20|40|-1 1584,0,0,0,1,0,0,1,0,0,0,0,0,0,0,1586,
scooby_state_403709|12|0 1537,3,2,1,2,3,3,1,2,3,2,3,4,2,17,1585,
scooby_state_402c20|58|-1 1566,1,1,0,1,1,1,0,1,1,2,1,1,1,1,1579,
scooby_state_4029e0|37|0 1564,3,2,0,1,0,1,0,4,1,0,0,1,0,0,1577,
scooby_state_4029e0|31|0 1559,2,0,5,0,3,1,1,3,0,1,0,0,0,2,1577,
scooby_state_403710|63|0 1542,3,0,3,6,2,1,1,0,3,4,5,0,0,6,1576,
scooby_state_403702|24|0 1540,2,3,2,0,1,1,0,1,1,1,15,3,0,5,1575,
scooby_state_4029e0|27|0 1554,4,2,0,1,1,2,0,1,2,1,0,2,1,2,1573,
scooby_state_4029e0|4|0 1550,1,0,4,0,0,2,1,2,1,1,2,1,4,1,1570,
scooby_state_4029e0|44|0 1555,1,0,1,3,1,1,0,0,1,1,0,1,1,2,1568,
scooby_state_4029e0|20|0 1550,2,1,2,0,1,0,0,2,0,1,0,0,0,4,1563,
scooby_state_4029e0|48|0 1548,2,2,3,0,1,0,0,3,0,0,0,1,3,0,1563,
scooby_state_4029e0|28|0 1551,2,1,2,0,0,0,0,1,0,0,0,4,1,1,1563,
scooby_state_4029e0|25|0 1550,3,0,0,0,1,1,1,2,0,3,0,1,0,0,1562,
scooby_state_4029e0|47|0 1538,4,2,4,1,0,1,1,3,1,0,0,2,4,1,1562,
scooby_state_402c20|14|-2 1528,0,3,2,2,5,2,4,1,2,2,2,2,2,4,1561,
scooby_state_4029e0|7|0 1536,6,1,1,3,0,2,1,1,1,1,2,3,2,1,1561,
scooby_state_4029e0|9|0 1545,1,0,2,1,2,2,1,1,1,1,0,0,2,1,1560,
scooby_state_4029e0|15|0 1541,1,1,0,0,0,1,2,2,0,2,1,2,4,1,1558,
scooby_state_402c50|37|0 0,0,0,0,2,1,0,0,0,0,0,1551,1,0,0,1555,
scooby_state_4029e0|57|0 1532,2,3,4,1,1,0,1,1,0,2,0,1,4,3,1555,
scooby_state_4029e0|16|0 1535,6,2,0,0,3,1,1,2,1,1,0,0,1,2,1555,
scooby_state_402c4c|58|0 3,0,2,0,2,1,3,0,2,0,3,1537,1,0,0,1554,
scooby_state_403709|4|0 1535,0,0,2,2,1,1,2,1,0,0,2,1,0,6,1553,
scooby_state_4029e0|54|0 1537,0,0,2,2,0,2,1,4,1,0,0,0,1,3,1553,
scooby_state_402c56|57|-1 219,0,2,5,2,1,2,2,2,2,2,3,3,2,1304,1551,
scooby_state_403709|31|0 1496,3,2,5,3,3,4,3,2,2,3,4,2,3,16,1551,
scooby_state_4029e0|62|0 1531,1,2,3,0,3,0,1,5,0,1,0,0,2,1,1550,
scooby_state_403710|49|0 1497,2,3,3,4,4,2,2,6,1,5,4,4,4,8,1549,
scooby_state_4029e0|33|0 1529,3,4,3,1,1,0,1,2,3,0,0,0,2,0,1549,
scooby_state_4029e0|13|0 1529,2,2,2,1,0,1,1,4,0,0,0,0,3,3,1548,
scooby_state_4029e0|8|0 1529,2,1,2,1,1,0,1,1,0,2,0,1,3,3,1547,
scooby_state_402cb8|49|1 2,0,1,0,0,0,3,0,0,0,0,0,0,0,1539,1545,
scooby_state_4029e0|12|0 1520,6,2,1,0,2,1,0,1,0,1,0,5,0,4,1543,
scooby_state_4029e0|60|0 1526,4,0,0,0,2,0,0,2,1,0,0,0,0,2,1537,
scooby_state_4029e0|45|0 1525,3,2,1,0,0,0,0,1,0,1,0,0,2,1,1536,
scooby_state_403702|40|0 1487,3,1,2,3,4,2,2,0,3,2,17,2,1,7,1536,
scooby_state_4029e0|22|0 1512,2,1,4,2,1,1,1,2,0,2,0,0,2,6,1536,
scooby_state_402c8c|63|0 1531,1,0,0,0,1,0,0,0,2,0,0,0,0,0,1535,
scooby_state_4029e0|17|0 1513,4,3,1,2,2,3,0,2,0,1,0,1,0,2,1534,
scooby_state_4029e0|26|0 1522,0,1,0,0,0,1,0,4,2,0,0,0,0,1,1531,
scooby_state_4029e0|35|0 1520,0,0,1,0,1,0,0,0,1,1,0,1,2,3,1530,
scooby_state_402c20|63|0 1514,0,2,0,2,0,0,0,2,2,2,0,0,2,4,1530,
scooby_state_402c4c|32|1 1,0,0,1,2,0,0,0,0,0,0,1525,0,0,0,1529,
scooby_state_4029e0|1|0 1514,3,0,1,1,2,0,1,1,0,0,0,1,4,1,1529,
scooby_state_4029e0|36|0 1515,1,0,0,1,1,1,1,1,1,1,1,1,1,2,1528,
scooby_state_402c20|48|-2 1517,1,0,1,0,0,2,0,2,1,0,0,1,1,0,1526,
scooby_state_4029e0|24|0 1513,1,1,0,0,2,1,2,0,3,0,0,0,0,3,1526,
scooby_state_402c50|46|1 0,1,0,0,0,1,0,1,0,0,1,1518,1,0,1,1524,
scooby_state_4029e0|52|0 1507,1,1,0,2,0,1,0,2,0,1,1,1,1,4,1522,
scooby_state_4029e0|63|0 1509,2,1,0,0,0,0,1,1,0,2,0,1,2,2,1521,
scooby_state_402c4c|56|0 1,0,3,0,0,1,2,0,1,0,3,1507,0,0,1,1519,
scooby_state_4029e0|29|0 1508,0,0,0,1,0,1,0,3,0,0,0,1,0,5,1519,
scooby_state_4029e0|56|0 1493,7,3,1,1,2,3,3,1,0,0,0,1,2,1,1518,
scooby_state_4029e0|34|0 1492,2,2,0,0,2,1,0,4,1,1,0,1,2,1,1509,
[...]
scooby_state_4029f8|33|12 1,0,0,0,0,0,0,0,0,0,0,0,0,0,0,1,
scooby_state_40304c|39|-21 0,0,0,0,0,0,0,0,0,0,1,0,0,0,0,1,
scooby_state_402bb0|52|-2 0,0,0,0,0,0,0,0,0,0,0,1,0,0,0,1,
scooby_state_402c20|56|55 1,0,0,0,0,0,0,0,0,0,0,0,0,0,0,1,
scooby_state_40304c|3|-36 1,0,0,0,0,0,0,0,0,0,0,0,0,0,0,1,
scooby_state_4036ff|27|-5 1,0,0,0,0,0,0,0,0,0,0,0,0,0,0,1,
scooby_state_402c8c|26|-16 1,0,0,0,0,0,0,0,0,0,0,0,0,0,0,1,
scooby_state_402cbc|17|-21 1,0,0,0,0,0,0,0,0,0,0,0,0,0,0,1,
scooby_state_402c4c|62|15 0,0,0,0,0,0,0,0,0,0,0,1,0,0,0,1,
scooby_state_403710|29|-24 1,0,0,0,0,0,0,0,0,0,0,0,0,0,0,1,
scooby_state_402c4c|7|-29 0,0,0,0,0,0,0,0,0,0,0,1,0,0,0,1,
scooby_state_402a50|63|57 0,0,0,0,0,0,0,0,0,0,0,0,1,0,0,1,
scooby_state_4036ff|14|-33 0,0,0,1,0,0,0,0,0,0,0,0,0,0,0,1,
scooby_state_4029f8|12|-16 1,0,0,0,0,0,0,0,0,0,0,0,0,0,0,1,
scooby_state_403709|56|30 0,0,0,0,0,0,0,0,0,0,1,0,0,0,0,1,
scooby_state_4029f8|1|-22 1,0,0,0,0,0,0,0,0,0,0,0,0,0,0,1,
scooby_state_40138f|50|-4 0,0,0,0,0,0,0,0,0,0,0,0,0,0,1,1,
scooby_state_402b94|1|-35 1,0,0,0,0,0,0,0,0,0,0,0,0,0,0,1,
scooby_state_402c4c|30|16 0,0,0,0,0,0,0,0,0,0,0,1,0,0,0,1,
scooby_state_402c56|62|58 0,0,0,0,0,0,0,0,0,0,0,0,0,0,1,1,
scooby_state_402c4c|7|-35 0,0,0,0,0,0,0,0,0,0,0,1,0,0,0,1,
scooby_state_402c50|15|-34 0,0,0,0,0,0,0,0,0,0,0,1,0,0,0,1,
scooby_state_403702|11|-1 1,0,0,0,0,0,0,0,0,0,0,0,0,0,0,1,
scooby_state_4029f8|53|46 1,0,0,0,0,0,0,0,0,0,0,0,0,0,0,1,
scooby_state_4037aa|62|1 0,1,0,0,0,0,0,0,0,0,0,0,0,0,0,1,
scooby_state_40304c|40|4 1,0,0,0,0,0,0,0,0,0,0,0,0,0,0,1,
scooby_state_402a8b|20|-38 1,0,0,0,0,0,0,0,0,0,0,0,0,0,0,1,
scooby_state_4029f8|0|-40 1,0,0,0,0,0,0,0,0,0,0,0,0,0,0,1,
scooby_state_402c4c|28|-17 0,0,0,0,0,0,0,0,0,0,0,1,0,0,0,1,
scooby_state_4037aa|44|25 0,0,0,0,0,0,0,0,0,0,0,0,0,1,0,1,
scooby_state_402cbc|11|-4 1,0,0,0,0,0,0,0,0,0,0,0,0,0,0,1,
scooby_state_403709|45|38 1,0,0,0,0,0,0,0,0,0,0,0,0,0,0,1,
scooby_state_4029f8|30|28 1,0,0,0,0,0,0,0,0,0,0,0,0,0,0,1,
scooby_state_402b94|14|-24 1,0,0,0,0,0,0,0,0,0,0,0,0,0,0,1,
scooby_state_402ac6|61|0 0,0,0,0,1,0,0,0,0,0,0,0,0,0,0,1,
scooby_state_40304c|63|54 0,0,0,0,0,0,0,0,0,0,0,0,0,1,0,1,
scooby_state_403709|17|-42 1,0,0,0,0,0,0,0,0,0,0,0,0,0,0,1,
scooby_state_402c50|20|-9 0,0,0,0,0,0,0,0,0,0,0,1,0,0,0,1,
scooby_state_402bb4|31|-24 0,0,0,0,0,1,0,0,0,0,0,0,0,0,0,1,
scooby_state_402c8c|26|12 1,0,0,0,0,0,0,0,0,0,0,0,0,0,0,1,
scooby_state_4037c1|45|30 1,0,0,0,0,0,0,0,0,0,0,0,0,0,0,1,
scooby_state_402c4c|54|13 0,0,0,0,0,0,0,0,0,0,0,1,0,0,0,1,
scooby_state_4036ff|16|14 0,0,0,0,0,0,1,0,0,0,0,0,0,0,0,1,
scooby_state_402cbc|21|8 1,0,0,0,0,0,0,0,0,0,0,0,0,0,0,1,
scooby_state_403702|47|11 0,1,0,0,0,0,0,0,0,0,0,0,0,0,0,1,
scooby_state_40304c|53|26 1,0,0,0,0,0,0,0,0,0,0,0,0,0,0,1,
scooby_state_402cbc|48|10 1,0,0,0,0,0,0,0,0,0,0,0,0,0,0,1,
scooby_state_403710|18|2 0,0,0,0,0,0,0,0,0,0,0,1,0,0,0,1,
scooby_state_4036ff|9|-22 0,0,0,0,0,0,0,0,0,0,0,1,0,0,0,1,
scooby_state_4037aa|56|7 0,1,0,0,0,0,0,0,0,0,0,0,0,0,0,1,
scooby_state_403702|15|-43 0,0,0,0,0,1,0,0,0,0,0,0,0,0,0,1,
scooby_state_402c56|13|0 1,0,0,0,0,0,0,0,0,0,0,0,0,0,0,1,
scooby_state_4037aa|57|38 0,0,0,0,0,0,0,0,0,0,0,1,0,0,0,1,
scooby_state_403710|30|-22 1,0,0,0,0,0,0,0,0,0,0,0,0,0,0,1,
scooby_state_402c50|54|33 0,0,0,0,0,0,0,0,0,0,0,1,0,0,0,1,
scooby_state_402c4c|56|32 0,0,0,0,0,0,0,0,0,0,0,1,0,0,0,1,
scooby_state_4036ff|50|43 0,0,0,0,0,0,0,0,0,0,0,0,0,0,1,1,
scooby_state_4037aa|57|36 1,0,0,0,0,0,0,0,0,0,0,0,0,0,0,1,
scooby_state_4037aa|58|39 0,0,0,0,0,0,1,0,0,0,0,0,0,0,0,1,
scooby_state_402c8c|37|12 1,0,0,0,0,0,0,0,0,0,0,0,0,0,0,1,
scooby_state_402c56|62|32 0,0,0,0,0,0,0,0,0,0,0,0,0,0,1,1,
scooby_state_402c4c|42|16 0,0,0,0,0,0,0,0,0,0,0,1,0,0,0,1,
scooby_state_4037aa|43|24 0,1,0,0,0,0,0,0,0,0,0,0,0,0,0,1,
scooby_state_4029f8|13|-43 0,0,1,0,0,0,0,0,0,0,0,0,0,0,0,1,
scooby_state_402c43|45|1 0,0,0,0,1,0,0,0,0,0,0,0,0,0,0,1,
scooby_state_4037c1|51|40 1,0,0,0,0,0,0,0,0,0,0,0,0,0,0,1,
scooby_state_402c8c|49|35 1,0,0,0,0,0,0,0,0,0,0,0,0,0,0,1,
scooby_state_402c8c|53|18 1,0,0,0,0,0,0,0,0,0,0,0,0,0,0,1,
scooby_state_403710|13|-18 1,0,0,0,0,0,0,0,0,0,0,0,0,0,0,1,
scooby_state_402bb0|7|4 0,0,0,0,0,0,0,1,0,0,0,0,0,0,0,1,
scooby_state_402e51|24|0 1,0,0,0,0,0,0,0,0,0,0,0,0,0,0,1,
scooby_state_403710|61|35 1,0,0,0,0,0,0,0,0,0,0,0,0,0,0,1,
scooby_state_403709|14|-21 1,0,0,0,0,0,0,0,0,0,0,0,0,0,0,1,
scooby_state_4029e0|16|-16 1,0,0,0,0,0,0,0,0,0,0,0,0,0,0,1,
scooby_state_402cbc|25|-14 1,0,0,0,0,0,0,0,0,0,0,0,0,0,0,1,
scooby_state_4037c1|37|-4 1,0,0,0,0,0,0,0,0,0,0,0,0,0,0,1,
scooby_state_403702|3|-1 1,0,0,0,0,0,0,0,0,0,0,0,0,0,0,1,
scooby_state_4029f8|36|-11 1,0,0,0,0,0,0,0,0,0,0,0,0,0,0,1,
scooby_state_402c50|8|-25 0,0,0,0,0,0,0,0,0,0,0,1,0,0,0,1,
scooby_state_4036ff|7|-43 0,0,0,0,0,0,0,0,0,0,0,1,0,0,0,1,
scooby_state_402a50|28|0 0,0,0,0,0,0,0,0,0,1,0,0,0,0,0,1,
scooby_state_4037aa|55|36 1,0,0,0,0,0,0,0,0,0,0,0,0,0,0,1,
scooby_state_4037aa|55|6 1,0,0,0,0,0,0,0,0,0,0,0,0,0,0,1,
scooby_state_402c20|40|-3 1,0,0,0,0,0,0,0,0,0,0,0,0,0,0,1,
scooby_state_402ac6|57|0 1,0,0,0,0,0,0,0,0,0,0,0,0,0,0,1,
scooby_state_402c4c|17|-29 0,0,0,0,0,0,0,0,0,0,0,1,0,0,0,1,
scooby_state_402c20|50|20 1,0,0,0,0,0,0,0,0,0,0,0,0,0,0,1,
scooby_state_402c8c|39|-1 1,0,0,0,0,0,0,0,0,0,0,0,0,0,0,1,
scooby_state_402c4c|5|-13 0,0,0,0,0,0,0,0,0,0,0,1,0,0,0,1,
scooby_state_403709|59|8 1,0,0,0,0,0,0,0,0,0,0,0,0,0,0,1,
scooby_state_402c20|23|3 1,0,0,0,0,0,0,0,0,0,0,0,0,0,0,1,
scooby_state_402cbc|55|17 1,0,0,0,0,0,0,0,0,0,0,0,0,0,0,1,
scooby_state_4036ff|3|-12 1,0,0,0,0,0,0,0,0,0,0,0,0,0,0,1,
scooby_state_40304c|7|-6 1,0,0,0,0,0,0,0,0,0,0,0,0,0,0,1,
scooby_state_4037aa|21|17 1,0,0,0,0,0,0,0,0,0,0,0,0,0,0,1,
scooby_state_403131|63|2 1,0,0,0,0,0,0,0,0,0,0,0,0,0,0,1,
scooby_state_4029e0|10|2 1,0,0,0,0,0,0,0,0,0,0,0,0,0,0,1,
scooby_state_403710|9|-16 1,0,0,0,0,0,0,0,0,0,0,0,0,0,0,1,
scooby_state_40302b|47|29 1,0,0,0,0,0,0,0,0,0,0,0,0,0,0,1,
scooby_state_402c4c|20|-42 0,0,0,0,0,0,0,0,0,0,0,1,0,0,0,1,
scooby_state_402bc5|3|-2 1,0,0,0,0,0,0,0,0,0,0,0,0,0,0,1,
scooby_state_402c50|39|20 0,0,0,0,0,0,0,0,0,0,0,1,0,0,0,1,
scooby_state_402c4c|1|-28 0,0,0,0,0,0,0,0,0,0,0,1,0,0,0,1,
scooby_state_402cbc|39|27 1,0,0,0,0,0,0,0,0,0,0,0,0,0,0,1,
scooby_state_403709|51|9 1,0,0,0,0,0,0,0,0,0,0,0,0,0,0,1,
scooby_state_402a8b|58|6 0,0,0,0,0,0,0,1,0,0,0,0,0,0,0,1,
scooby_state_402c4c|61|9 0,0,0,0,0,0,0,0,0,0,0,1,0,0,0,1,
scooby_state_4037aa|59|40 0,0,0,0,0,0,0,1,0,0,0,0,0,0,0,1,
scooby_state_4013a1|30|-30 1,0,0,0,0,0,0,0,0,0,0,0,0,0,0,1,
scooby_state_402c50|55|35 0,0,0,0,0,0,0,0,0,0,0,1,0,0,0,1,
scooby_state_402c4c|4|-45 0,0,0,0,0,0,0,0,0,0,0,1,0,0,0,1,
scooby_state_402c20|35|-3 1,0,0,0,0,0,0,0,0,0,0,0,0,0,0,1,
scooby_state_402c4c|15|-12 0,0,0,0,0,0,0,0,0,0,0,1,0,0,0,1,
scooby_state_403010|54|2 1,0,0,0,0,0,0,0,0,0,0,0,0,0,0,1,
scooby_state_4036ff|7|-49 1,0,0,0,0,0,0,0,0,0,0,0,0,0,0,1,
scooby_state_4037aa|61|42 1,0,0,0,0,0,0,0,0,0,0,0,0,0,0,1,
scooby_state_402cbc|52|41 1,0,0,0,0,0,0,0,0,0,0,0,0,0,0,1,
scooby_state_4036ff|7|-56 1,0,0,0,0,0,0,0,0,0,0,0,0,0,0,1,
scooby_state_4037aa|38|23 0,0,0,0,0,0,0,0,1,0,0,0,0,0,0,1,
scooby_state_403709|53|15 1,0,0,0,0,0,0,0,0,0,0,0,0,0,0,1,
scooby_state_4036ff|46|37 1,0,0,0,0,0,0,0,0,0,0,0,0,0,0,1,
scooby_state_402a28|11|2 0,0,0,1,0,0,0,0,0,0,0,0,0,0,0,1,
scooby_state_403710|24|10 1,0,0,0,0,0,0,0,0,0,0,0,0,0,0,1,
scooby_state_402c4c|6|-36 0,0,0,0,0,0,0,0,0,0,0,1,0,0,0,1,
scooby_state_4037aa|51|45 0,0,0,0,0,0,0,0,0,0,0,1,0,0,0,1,
scooby_state_403709|0|-49 1,0,0,0,0,0,0,0,0,0,0,0,0,0,0,1,
scooby_state_402c8c|51|22 1,0,0,0,0,0,0,0,0,0,0,0,0,0,0,1,
scooby_state_402e17|55|0 0,0,0,0,0,0,0,0,0,0,0,0,0,1,0,1,
scooby_state_40384d|63|12 0,0,0,0,0,0,0,0,0,0,0,1,0,0,0,1,
scooby_state_40304c|53|-3 0,0,0,0,0,0,0,0,0,0,0,1,0,0,0,1,
scooby_state_403709|37|-7 1,0,0,0,0,0,0,0,0,0,0,0,0,0,0,1,
scooby_state_403710|5|-11 1,0,0,0,0,0,0,0,0,0,0,0,0,0,0,1,
scooby_state_402c56|56|41 0,0,0,0,0,0,0,0,0,0,0,0,0,0,1,1,
scooby_state_4037aa|22|18 0,0,0,0,0,0,0,0,0,0,1,0,0,0,0,1,
scooby_state_402c50|6|-4 0,0,0,0,0,0,0,0,0,0,0,1,0,0,0,1,
scooby_state_402dca|32|-5 1,0,0,0,0,0,0,0,0,0,0,0,0,0,0,1,
scooby_state_40304c|50|11 1,0,0,0,0,0,0,0,0,0,0,0,0,0,0,1,
scooby_state_402c20|33|20 1,0,0,0,0,0,0,0,0,0,0,0,0,0,0,1,
scooby_state_403702|63|10 1,0,0,0,0,0,0,0,0,0,0,0,0,0,0,1,
scooby_state_402b94|42|-12 1,0,0,0,0,0,0,0,0,0,0,0,0,0,0,1,
scooby_state_40304c|47|44 0,1,0,0,0,0,0,0,0,0,0,0,0,0,0,1,
scooby_state_402cbc|38|10 1,0,0,0,0,0,0,0,0,0,0,0,0,0,0,1,
scooby_state_4013ab|0|-17 1,0,0,0,0,0,0,0,0,0,0,0,0,0,0,1,
scooby_state_40302b|32|15 0,0,0,0,1,0,0,0,0,0,0,0,0,0,0,1,
scooby_state_402c4c|33|15 0,0,0,0,0,0,0,0,0,0,0,1,0,0,0,1,
scooby_state_402c20|19|-16 1,0,0,0,0,0,0,0,0,0,0,0,0,0,0,1,
scooby_state_402c20|3|1 0,0,0,0,0,0,0,0,0,0,0,0,1,0,0,1,
scooby_state_402c20|23|-39 1,0,0,0,0,0,0,0,0,0,0,0,0,0,0,1,
scooby_state_4030fc|56|1 1,0,0,0,0,0,0,0,0,0,0,0,0,0,0,1,
scooby_state_4029e0|59|57 1,0,0,0,0,0,0,0,0,0,0,0,0,0,0,1,
scooby_state_402c4c|56|56 0,0,0,0,0,0,0,0,0,0,0,1,0,0,0,1,
scooby_state_403710|8|-11 1,0,0,0,0,0,0,0,0,0,0,0,0,0,0,1,
scooby_state_4029e0|22|-32 1,0,0,0,0,0,0,0,0,0,0,0,0,0,0,1,
scooby_state_402c20|51|43 1,0,0,0,0,0,0,0,0,0,0,0,0,0,0,1,
scooby_state_402c8c|52|36 1,0,0,0,0,0,0,0,0,0,0,0,0,0,0,1,
scooby_state_402cbc|17|-13 1,0,0,0,0,0,0,0,0,0,0,0,0,0,0,1,
scooby_state_402bb4|30|0 1,0,0,0,0,0,0,0,0,0,0,0,0,0,0,1,
scooby_state_402bb0|2|-20 0,0,0,0,1,0,0,0,0,0,0,0,0,0,0,1,
scooby_state_403709|11|-5 1,0,0,0,0,0,0,0,0,0,0,0,0,0,0,1,
scooby_state_402aa4|31|-10 0,0,0,0,0,0,0,0,0,0,0,1,0,0,0,1,
scooby_state_4037aa|30|7 0,0,0,0,0,0,1,0,0,0,0,0,0,0,0,1,
scooby_state_402c50|50|22 0,0,0,0,0,0,0,0,0,0,0,1,0,0,0,1,
scooby_state_403702|58|17 1,0,0,0,0,0,0,0,0,0,0,0,0,0,0,1,
scooby_state_402cbc|4|-52 1,0,0,0,0,0,0,0,0,0,0,0,0,0,0,1,
scooby_state_4037c1|2|-1 1,0,0,0,0,0,0,0,0,0,0,0,0,0,0,1,
scooby_state_402c4c|37|34 0,0,0,0,0,0,0,0,0,0,0,1,0,0,0,1,
scooby_state_4036ff|7|-37 0,1,0,0,0,0,0,0,0,0,0,0,0,0,0,1,
scooby_state_402cbc|43|4 1,0,0,0,0,0,0,0,0,0,0,0,0,0,0,1,
scooby_state_403709|24|4 0,0,0,0,0,0,0,1,0,0,0,0,0,0,0,1,
scooby_state_403710|40|-4 1,0,0,0,0,0,0,0,0,0,0,0,0,0,0,1,
scooby_state_402c50|61|11 0,0,0,0,0,0,0,0,0,0,0,1,0,0,0,1,
scooby_state_4037aa|38|19 0,0,0,0,0,0,0,0,0,0,0,0,0,0,1,1,
scooby_state_402bc1|27|12 1,0,0,0,0,0,0,0,0,0,0,0,0,0,0,1,
scooby_state_402c20|37|18 1,0,0,0,0,0,0,0,0,0,0,0,0,0,0,1,
scooby_state_4013ab|1|-26 1,0,0,0,0,0,0,0,0,0,0,0,0,0,0,1,
scooby_state_402bc1|54|-2 0,0,0,0,0,0,0,0,0,1,0,0,0,0,0,1,
scooby_state_402c20|36|1 1,0,0,0,0,0,0,0,0,0,0,0,0,0,0,1,
scooby_state_4037c1|4|-46 1,0,0,0,0,0,0,0,0,0,0,0,0,0,0,1,
scooby_state_402c4c|28|24 0,0,0,0,0,0,0,0,0,0,0,1,0,0,0,1,
scooby_state_4037aa|30|21 1,0,0,0,0,0,0,0,0,0,0,0,0,0,0,1,
scooby_state_402b90|1|-33 1,0,0,0,0,0,0,0,0,0,0,0,0,0,0,1,
scooby_state_402cbc|0|-59 1,0,0,0,0,0,0,0,0,0,0,0,0,0,0,1,
scooby_state_402cbc|27|21 1,0,0,0,0,0,0,0,0,0,0,0,0,0,0,1,
scooby_state_402c75|19|1 1,0,0,0,0,0,0,0,0,0,0,0,0,0,0,1,
scooby_state_402c56|5|3 0,0,0,0,0,0,0,0,0,0,0,0,0,0,1,1,
scooby_state_4029f8|8|-19 1,0,0,0,0,0,0,0,0,0,0,0,0,0,0,1,
scooby_state_40138f|27|14 0,0,0,0,0,0,0,0,0,0,0,0,0,1,0,1,
scooby_state_403709|14|-25 1,0,0,0,0,0,0,0,0,0,0,0,0,0,0,1,
scooby_state_4029d1|55|0 1,0,0,0,0,0,0,0,0,0,0,0,0,0,0,1,
scooby_state_402bb4|33|-2 1,0,0,0,0,0,0,0,0,0,0,0,0,0,0,1,
scooby_state_402c4c|53|34 0,0,0,0,0,0,0,0,0,0,0,1,0,0,0,1,
scooby_state_402a8b|1|-22 0,0,0,0,0,0,0,0,0,1,0,0,0,0,0,1,
scooby_state_403710|47|22 0,0,0,0,0,0,0,0,0,0,0,1,0,0,0,1,
scooby_state_402c4c|51|18 0,0,0,0,0,0,0,0,0,0,0,1,0,0,0,1,
scooby_state_40304c|56|51 0,0,0,0,0,1,0,0,0,0,0,0,0,0,0,1,
scooby_state_402c50|14|9 0,0,0,0,0,0,0,0,0,0,0,1,0,0,0,1,
scooby_state_4036ff|18|-5 0,0,0,1,0,0,0,0,0,0,0,0,0,0,0,1,
scooby_state_403710|52|-3 0,0,0,0,0,0,0,0,0,0,0,1,0,0,0,1,
scooby_state_402a8b|61|14 0,0,1,0,0,0,0,0,0,0,0,0,0,0,0,1,
scooby_state_402bb0|63|2 0,0,0,0,0,0,0,0,0,0,0,1,0,0,0,1,
scooby_state_402bb4|22|-36 0,0,0,0,1,0,0,0,0,0,0,0,0,0,0,1,
scooby_state_402c50|16|9 0,0,0,0,0,0,0,0,0,0,0,1,0,0,0,1,
scooby_state_402a50|38|0 0,0,0,0,0,0,0,0,1,0,0,0,0,0,0,1,
scooby_state_40304c|15|-32 1,0,0,0,0,0,0,0,0,0,0,0,0,0,0,1,
scooby_state_402cbc|32|29 1,0,0,0,0,0,0,0,0,0,0,0,0,0,0,1,
scooby_state_403702|31|10 1,0,0,0,0,0,0,0,0,0,0,0,0,0,0,1,
scooby_state_40304c|39|-18 0,0,0,0,0,0,0,0,0,0,0,0,1,0,0,1,
scooby_state_402cbc|60|38 1,0,0,0,0,0,0,0,0,0,0,0,0,0,0,1,
scooby_state_402c50|43|32 0,0,0,0,0,0,0,0,0,0,0,1,0,0,0,1,
scooby_state_402c20|6|-42 1,0,0,0,0,0,0,0,0,0,0,0,0,0,0,1,
scooby_state_402aa4|61|37 1,0,0,0,0,0,0,0,0,0,0,0,0,0,0,1,
scooby_state_402c50|43|36 0,0,0,0,0,0,0,0,0,0,0,1,0,0,0,1,
scooby_state_402c4c|10|2 0,0,0,0,0,0,0,0,0,0,0,1,0,0,0,1,
scooby_state_402cbc|61|60 1,0,0,0,0,0,0,0,0,0,0,0,0,0,0,1,

scooby_action_0_deg_dist 0,1038266,0,0,0,0,0,0,0,0,0,0,0,0,0,0,
scooby_action_-6_deg_dist 0,12954,38,0,17,0,3,0,0,0,0,0,0,0,0,0,
scooby_action_3_deg_dist 0,14073,60,0,23,0,0,0,0,0,0,0,0,0,0,0,
scooby_action_32_deg_dist 0,10237,9,0,1,0,0,0,0,0,0,0,0,0,0,0,
scooby_action_4_deg_dist 0,13491,35,0,14,0,2,0,0,0,0,0,0,0,0,0,
scooby_action_1_deg_dist 0,5271979,130451,0,92690,0,47357,0,0,0,0,0,0,0,0,0,
scooby_action_30_deg_dist 0,10263,11,0,4,0,0,0,0,0,0,0,0,0,0,0,
scooby_action_5_deg_dist 0,13259,55,0,18,0,2,0,0,0,0,0,0,0,0,0,
scooby_action_10_deg_dist 0,12057,30,0,14,0,1,0,0,0,0,0,0,0,0,0,
scooby_action_23_deg_dist 0,10831,16,0,1,0,0,0,0,0,0,0,0,0,0,0,
scooby_action_-1_deg_dist 0,310646,780,0,90,0,13,0,0,0,0,0,0,0,0,0,
scooby_action_11_deg_dist 0,12002,32,0,11,0,0,0,0,0,0,0,0,0,0,0,
scooby_action_12_deg_dist 0,11993,16,0,3,0,0,0,0,0,0,0,0,0,0,0,
scooby_action_22_deg_dist 0,10875,20,0,5,0,0,0,0,0,0,0,0,0,0,0,
scooby_action_-3_deg_dist 0,13732,36,0,7,0,0,0,0,0,0,0,0,0,0,0,

scooby_track_called 7038523
scooby_track_same_address 65278
scooby_track_evict 6972989

scooby_reward_demand_called 7038523
scooby_reward_demand_pt_not_found 6081184
scooby_reward_demand_pt_found 957339
scooby_reward_demand_pt_found_total 957339
scooby_reward_demand_has_reward 4067
scooby_reward_train_called 5899567
scooby_reward_assign_reward_called 6973053
scooby_reward_no_pref 1038210
scooby_reward_incorrect 4861357
scooby_reward_correct_untimely 882227
scooby_reward_correct_timely 71045
scooby_reward_out_of_bounds 120214
scooby_reward_tracker_hit 0

scooby_reward_none_low_bw 1038210
scooby_reward_none_high_bw 0
scooby_reward_incorrect_low_bw 4861357
scooby_reward_incorrect_high_bw 0
scooby_reward_correct_untimely_low_bw 882227
scooby_reward_correct_untimely_high_bw 0
scooby_reward_correct_timely_low_bw 71045
scooby_reward_correct_timely_high_bw 0
scooby_reward_out_of_bounds_low_bw 120214
scooby_reward_out_of_bounds_high_bw 0
scooby_reward_tracker_hit_low_bw 0
scooby_reward_tracker_hit_high_bw 0

scooby_reward_1 0,4588602,753878,61039,86266,0,
scooby_reward_3 0,12044,367,266,635,0,
scooby_reward_4 0,11576,275,186,745,0,
scooby_reward_5 0,11201,228,192,988,0,
scooby_reward_10 0,9540,165,126,1853,0,
scooby_reward_11 0,9214,162,131,2059,0,
scooby_reward_12 0,9009,152,99,2220,0,
scooby_reward_22 0,6902,125,63,3484,0,
scooby_reward_23 0,6741,123,71,3645,0,
scooby_reward_30 0,5355,83,51,4537,0,
scooby_reward_32 0,4994,73,51,4932,0,
scooby_reward_-1 0,163931,126015,8348,6772,0,
scooby_reward_-3 0,11690,323,276,826,0,
scooby_reward_-6 0,10558,258,146,1252,0,
scooby_reward_0 1038210,0,0,0,0,0,

scooby_train_called 6972988
scooby_train_compute_reward 5899567

scooby_register_fill_called 3962557
scooby_register_fill_set 3797328
scooby_register_fill_set_total 3797328

scooby_register_prefetch_hit_called 1710692
scooby_register_prefetch_hit_set 1434041
scooby_register_prefetch_hit_set_total 1434041

scooby_pref_issue_scooby 6429703

learning_engine_featurewise.action.called 7038523
learning_engine_featurewise.action.explore 12737
learning_engine_featurewise.action.exploit 7025786
learning_engine_featurewise.action.fallback 4625847
learning_engine_featurewise.action.dyn_fallback_saved_bw 0
learning_engine_featurewise.action.dyn_fallback_saved_bw_acc 1344995
learning_engine_featurewise.action.index_1_explored 878
learning_engine_featurewise.action.index_1_exploited 5541599
learning_engine_featurewise.action.index_3_explored 857
learning_engine_featurewise.action.index_3_exploited 13299
learning_engine_featurewise.action.index_4_explored 856
learning_engine_featurewise.action.index_4_exploited 12686
learning_engine_featurewise.action.index_5_explored 834
learning_engine_featurewise.action.index_5_exploited 12500
learning_engine_featurewise.action.index_10_explored 883
learning_engine_featurewise.action.index_10_exploited 11219
learning_engine_featurewise.action.index_11_explored 858
learning_engine_featurewise.action.index_11_exploited 11187
learning_engine_featurewise.action.index_12_explored 866
learning_engine_featurewise.action.index_12_exploited 11146
learning_engine_featurewise.action.index_22_explored 860
learning_engine_featurewise.action.index_22_exploited 10040
learning_engine_featurewise.action.index_23_explored 859
learning_engine_featurewise.action.index_23_exploited 9989
learning_engine_featurewise.action.index_30_explored 833
learning_engine_featurewise.action.index_30_exploited 9445
learning_engine_featurewise.action.index_32_explored 790
learning_engine_featurewise.action.index_32_exploited 9457
learning_engine_featurewise.action.index_-1_explored 835
learning_engine_featurewise.action.index_-1_exploited 310694
learning_engine_featurewise.action.index_-3_explored 839
learning_engine_featurewise.action.index_-3_exploited 12936
learning_engine_featurewise.action.index_-6_explored 831
learning_engine_featurewise.action.index_-6_exploited 12181
learning_engine_featurewise.action.index_0_explored 858
learning_engine_featurewise.action.index_0_exploited 1037408
learning_engine_featurewise.learn.called 6972988
learning_engine_featurewise.learn.su_skip_PC 0
learning_engine_featurewise.learn.su_skip_PC_Delta 0

learning_engine_featurewise.q_value_histogram.bucket_0 1030060
learning_engine_featurewise.q_value_histogram.bucket_1 136831
learning_engine_featurewise.q_value_histogram.bucket_2 5172389
learning_engine_featurewise.q_value_histogram.bucket_3 176464
learning_engine_featurewise.q_value_histogram.bucket_4 237194
learning_engine_featurewise.q_value_histogram.bucket_5 62461
learning_engine_featurewise.q_value_histogram.bucket_6 210387
learning_engine_featurewise.q_value_histogram.bucket_7 0

learning_engine_featurewise.consensus.total 7025786
learning_engine_featurewise.consensus.feature_align_PC 5920913
learning_engine_featurewise.consensus.feature_align_PC_ratio 0.84
learning_engine_featurewise.consensus.feature_align_PC_Delta 5743898
learning_engine_featurewise.consensus.feature_align_PC_Delta_ratio 0.82
learning_engine_featurewise.consensus.feature_align_all 5668540
learning_engine_featurewise.consensus.feature_align_all_ratio 0.81

learning_engine_featurewise.feature_PC_min_weight 1000000.00000000
learning_engine_featurewise.feature_PC_max_weight 0.00000000
learning_engine_featurewise.feature_PC_Delta_min_weight 1000000.00000000
learning_engine_featurewise.feature_PC_Delta_max_weight 0.00000000
unique_pcs 152
unique_pages 39118
unique_trigger_pcs 93
total_bitmaps_seen 0
unique_bitmaps_seen 0

scooby_bw_epochs 1946363
scooby_bw_level_0 1197597
scooby_bw_level_1 648473
scooby_bw_level_2 71146
scooby_bw_level_3 29147

scooby_ipc_epochs 0
scooby_ipc_level_0 0
scooby_ipc_level_1 0
scooby_ipc_level_2 0
scooby_ipc_level_3 0

scooby_cache_acc_epochs 422603
scooby_cache_acc_level_0 195947
scooby_cache_acc_level_1 80294
scooby_cache_acc_level_2 61553
scooby_cache_acc_level_3 44235
scooby_cache_acc_level_4 19333
scooby_cache_acc_level_5 9568
scooby_cache_acc_level_6 3747
scooby_cache_acc_level_7 2207
scooby_cache_acc_level_8 1161
scooby_cache_acc_level_9 4558

Channel_0_RQ_row_buffer_hit 308737
Channel_0_RQ_row_buffer_miss 4073297
Channel_0_WQ_row_buffer_hit 300847
Channel_0_WQ_row_buffer_miss 529186
Channel_0_WQ_full 0
Channel_0_dbus_congested 1903595

avg_congested_cycle 9

DRAM_bw_pochs 1946363
DRAM_bw_level_0 1197597
DRAM_bw_level_1 648473
DRAM_bw_level_2 71146
DRAM_bw_level_3 29147
