*************************************************
   ChampSim Multicore Out-of-Order Simulator
   Last compiled: Apr  3 2025 20:54:34
*************************************************
parsing config file: /home/zir/Pythia/config/pythia.ini

trace_0 /home/zir/ChampSim/ML-DPC/ChampSimTraces/spec06/482.sphinx3-s0.trace.gz
adding L2C_PREFETCHER: Scooby
Initialize SHIP state
warmup_instructions 10000000
simulation_instructions 50000000
champsim_seed 163
measure_ipc 0
measure_ipc_epoch 1000
measure_dram_bw 1
measure_dram_bw_epoch 256
measure_cache_acc 1
measure_cache_acc_epoch 1024
l1d_perfect 0
l2c_perfect 0
llc_perfect 0
l1d_semi_perfect 0
l2c_semi_perfect 0
llc_semi_perfect 0
semi_perfect_cache_page_buffer_size 64

num_cpus 1
cpu_freq 4000
dram_io_freq 2400
page_size 4096
block_size 64
max_read_per_cycle 8
max_fill_per_cycle 1
dram_channels 1
log2_dram_channels 0
dram_ranks 1
dram_banks 8
dram_rows 65536
dram_columns 128
dram_row_size 8
dram_size 4096
dram_pages 1048576

fetch_width 6
decode_width 6
exec_width 4
lq_width 2
sq_width 2
retire_width 4
scheduler_size 128
branch_mispredict_penalty 20
rob_size 256
lq_size 72
sq_size 56
num_instr_destinations_sparc 4
num_instr_destinations 2
num_instr_sources 4

itlb_set 16
itlb_way 8
itlb_rq_size 16
itlb_wq_size 16
itlb_pq_size 0
itlb_mshr_size 8
itlb_latency 1

dtlb_set 16
dtlb_way 4
dtlb_rq_size 16
dtlb_wq_size 16
dtlb_pq_size 0
dtlb_mshr_size 8
dtlb_latency 1

stlb_set 128
stlb_way 12
stlb_rq_size 32
stlb_wq_size 32
stlb_pq_size 0
stlb_mshr_size 16
stlb_latency 8

l1i_size 32
l1i_set 64
l1i_way 8
l1i_rq_size 64
l1i_wq_size 64
l1i_pq_size 8
l1i_mshr_size 8
l1i_latency 1

l1d_size 32
l1d_set 64
l1d_way 8
l1d_rq_size 64
l1d_wq_size 64
l1d_pq_size 8
l1d_mshr_size 16
l1d_latency 4

l2c_size 256
l2c_set 512
l2c_way 8
l2c_rq_size 32
l2c_wq_size 32
l2c_pq_size 32
l2c_mshr_size 32
l2c_latency 10

llc_size 2048
llc_set 2048
llc_way 16
llc_rq_size 32
llc_wq_size 32
llc_pq_size 32
llc_mshr_size 64
llc_latency 20

dram_channel_width 8
dram_wq_size 64
dram_rq_size 64
tRP 15
tRCD 15
tCAS 12.5
dram_dbus_turn_around_time 30
dram_write_high_wm 56
dram_write_low_wm 48
min_dram_writes_per_switch 16
dram_mtps 2400
dram_dbus_return_time 13

scooby_alpha 0.0065088
scooby_gamma 0.556301
scooby_epsilon 0.00182284
scooby_state_num_bits 10
scooby_max_states 1024
scooby_seed 200
scooby_policy EGreedy
scooby_learning_type SARSA
scooby_actions 1,3,4,5,10,11,12,22,23,30,32,-1,-3,-6,0,
scooby_max_actions 15
scooby_pt_size 256
scooby_st_size 64
scooby_max_pcs 5
scooby_max_offsets 5
scooby_max_deltas 5
scooby_reward_none -4
scooby_reward_incorrect -8
scooby_reward_correct_untimely 12
scooby_reward_correct_timely 20
scooby_brain_zero_init 0
scooby_enable_reward_all 0
scooby_enable_track_multiple 0
scooby_enable_reward_out_of_bounds 1
scooby_reward_out_of_bounds -12
scooby_state_type 1
scooby_state_hash_type 11
scooby_access_debug 0
scooby_print_access_debug 0
scooby_print_access_debug_pc deadbeef
scooby_print_access_debug_pc_count 0
scooby_print_trace 0
scooby_enable_state_action_stats 1
scooby_enable_reward_tracker_hit 0
scooby_reward_tracker_hit -2
scooby_enable_featurewise_engine 1
scooby_pref_degree 1
scooby_enable_dyn_degree 1
scooby_max_to_avg_q_thresholds 0.5,1,2,
scooby_dyn_degrees 1,2,4,4,
scooby_multi_deg_select_type 2
scooby_last_pref_offset_conf_thresholds 1,3,8,
scooby_dyn_degrees_type2 1,2,4,6,
scooby_action_tracker_size 2
scooby_high_bw_thresh 4
scooby_enable_hbw_reward 1
scooby_reward_hbw_correct_timely 20
scooby_reward_hbw_correct_untimely 12
scooby_reward_hbw_incorrect -14
scooby_reward_hbw_none -2
scooby_reward_hbw_out_of_bounds -12
scooby_reward_hbw_tracker_hit -2
scooby_last_pref_offset_conf_thresholds_hbw 1,3,8,
scooby_dyn_degrees_type2_hbw 1,2,4,6,

le_enable_trace 0
le_trace_interval 0
le_trace_file_name 
le_trace_state 0
le_enable_score_plot 0
le_plot_file_name 
le_plot_actions 
le_enable_action_trace 0
le_action_trace_interval 0
le_action_trace_name 
le_enable_action_plot 0

le_featurewise_active_features PC, PC_Delta
le_featurewise_num_tilings 3,3,
le_featurewise_num_tiles 128,128,
le_featurewise_hash_types 2,2,
le_featurewise_enable_tiling_offset 1,1,
le_featurewise_max_q_thresh 0.5
le_featurewise_enable_action_fallback 1
le_featurewise_feature_weights 1,1,
le_featurewise_enable_dynamic_weight 0
le_featurewise_weight_gradient 0.001
le_featurewise_disable_adjust_weight_all_features_align 1
le_featurewise_selective_update 0
le_featurewise_pooling_type 2
le_featurewise_enable_dyn_action_fallback 1
le_featurewise_bw_acc_check_level 1
le_featurewise_acc_thresh 2
le_featurewise_enable_trace 0
le_featurewise_trace_feature_type 0
le_featurewise_trace_feature 
le_featurewise_trace_interval 0
le_featurewise_trace_record_count 0
le_featurewise_trace_file_name 
le_featurewise_enable_score_plot 0
le_featurewise_plot_actions 
le_featurewise_plot_file_name 


Heartbeat CPU  0 instructions:    1000000 cycles:     364057 heartbeat IPC: 2.74682 cumulative IPC: 2.74682 (Simulation time: 0 hr 0 min 1 sec) 
Heartbeat CPU  0 instructions:    2000001 cycles:     762350 heartbeat IPC: 2.51072 cumulative IPC: 2.62347 (Simulation time: 0 hr 0 min 3 sec) 
Heartbeat CPU  0 instructions:    3000000 cycles:    1273142 heartbeat IPC: 1.95774 cumulative IPC: 2.35637 (Simulation time: 0 hr 0 min 4 sec) 
Heartbeat CPU  0 instructions:    4000000 cycles:    1735696 heartbeat IPC: 2.16191 cumulative IPC: 2.30455 (Simulation time: 0 hr 0 min 6 sec) 
Heartbeat CPU  0 instructions:    5000003 cycles:    2099536 heartbeat IPC: 2.74847 cumulative IPC: 2.38148 (Simulation time: 0 hr 0 min 7 sec) 
Heartbeat CPU  0 instructions:    6000002 cycles:    2572859 heartbeat IPC: 2.11272 cumulative IPC: 2.33204 (Simulation time: 0 hr 0 min 9 sec) 
Heartbeat CPU  0 instructions:    7000001 cycles:    3088862 heartbeat IPC: 1.93797 cumulative IPC: 2.26621 (Simulation time: 0 hr 0 min 10 sec) 
Heartbeat CPU  0 instructions:    8000000 cycles:    3452660 heartbeat IPC: 2.74878 cumulative IPC: 2.31705 (Simulation time: 0 hr 0 min 12 sec) 
Heartbeat CPU  0 instructions:    9000003 cycles:    3855581 heartbeat IPC: 2.48188 cumulative IPC: 2.33428 (Simulation time: 0 hr 0 min 13 sec) 
Heartbeat CPU  0 instructions:   10000001 cycles:    4351743 heartbeat IPC: 2.01547 cumulative IPC: 2.29793 (Simulation time: 0 hr 0 min 15 sec) 

Warmup complete CPU  0 instructions:   10000001 cycles:    4351743 (Simulation time: 0 hr 0 min 15 sec) 

Heartbeat CPU  0 instructions:   11000002 cycles:    5064684 heartbeat IPC: 1.40264 cumulative IPC: 1.40264 (Simulation time: 0 hr 0 min 17 sec) 
Heartbeat CPU  0 instructions:   12000000 cycles:    5637094 heartbeat IPC: 1.74700 cumulative IPC: 1.55599 (Simulation time: 0 hr 0 min 19 sec) 
Heartbeat CPU  0 instructions:   13000000 cycles:    6891734 heartbeat IPC: 0.79704 cumulative IPC: 1.18111 (Simulation time: 0 hr 0 min 20 sec) 
Heartbeat CPU  0 instructions:   14000003 cycles:    7692168 heartbeat IPC: 1.24933 cumulative IPC: 1.19745 (Simulation time: 0 hr 0 min 22 sec) 
Heartbeat CPU  0 instructions:   15000002 cycles:    8272822 heartbeat IPC: 1.72219 cumulative IPC: 1.27516 (Simulation time: 0 hr 0 min 24 sec) 
Heartbeat CPU  0 instructions:   16000000 cycles:    9189210 heartbeat IPC: 1.09124 cumulative IPC: 1.24032 (Simulation time: 0 hr 0 min 26 sec) 
Heartbeat CPU  0 instructions:   17000002 cycles:   10550960 heartbeat IPC: 0.73435 cumulative IPC: 1.12918 (Simulation time: 0 hr 0 min 28 sec) 
Heartbeat CPU  0 instructions:   18000003 cycles:   11597521 heartbeat IPC: 0.95551 cumulative IPC: 1.10409 (Simulation time: 0 hr 0 min 29 sec) 
Heartbeat CPU  0 instructions:   19000000 cycles:   12297079 heartbeat IPC: 1.42947 cumulative IPC: 1.13274 (Simulation time: 0 hr 0 min 31 sec) 
Heartbeat CPU  0 instructions:   20000000 cycles:   12875320 heartbeat IPC: 1.72938 cumulative IPC: 1.17322 (Simulation time: 0 hr 0 min 33 sec) 
Heartbeat CPU  0 instructions:   21000000 cycles:   13986014 heartbeat IPC: 0.90034 cumulative IPC: 1.14176 (Simulation time: 0 hr 0 min 35 sec) 
Heartbeat CPU  0 instructions:   22000001 cycles:   14960362 heartbeat IPC: 1.02633 cumulative IPC: 1.13116 (Simulation time: 0 hr 0 min 36 sec) 
Heartbeat CPU  0 instructions:   23000002 cycles:   15544395 heartbeat IPC: 1.71223 cumulative IPC: 1.16148 (Simulation time: 0 hr 0 min 38 sec) 
Heartbeat CPU  0 instructions:   24000000 cycles:   16274715 heartbeat IPC: 1.36926 cumulative IPC: 1.17420 (Simulation time: 0 hr 0 min 40 sec) 
Heartbeat CPU  0 instructions:   25000001 cycles:   17204503 heartbeat IPC: 1.07552 cumulative IPC: 1.16706 (Simulation time: 0 hr 0 min 42 sec) 
Heartbeat CPU  0 instructions:   26000000 cycles:   17807494 heartbeat IPC: 1.65840 cumulative IPC: 1.18908 (Simulation time: 0 hr 0 min 44 sec) 
Heartbeat CPU  0 instructions:   27000003 cycles:   18360839 heartbeat IPC: 1.80720 cumulative IPC: 1.21350 (Simulation time: 0 hr 0 min 45 sec) 
Heartbeat CPU  0 instructions:   28000000 cycles:   19332502 heartbeat IPC: 1.02916 cumulative IPC: 1.20154 (Simulation time: 0 hr 0 min 47 sec) 
Heartbeat CPU  0 instructions:   29000003 cycles:   19961895 heartbeat IPC: 1.58884 cumulative IPC: 1.21716 (Simulation time: 0 hr 0 min 49 sec) 
Heartbeat CPU  0 instructions:   30000002 cycles:   20517875 heartbeat IPC: 1.79862 cumulative IPC: 1.23715 (Simulation time: 0 hr 0 min 51 sec) 
Heartbeat CPU  0 instructions:   31000002 cycles:   21396977 heartbeat IPC: 1.13752 cumulative IPC: 1.23202 (Simulation time: 0 hr 0 min 52 sec) 
Heartbeat CPU  0 instructions:   32000000 cycles:   22090445 heartbeat IPC: 1.44202 cumulative IPC: 1.24023 (Simulation time: 0 hr 0 min 54 sec) 
Heartbeat CPU  0 instructions:   33000000 cycles:   22647593 heartbeat IPC: 1.79486 cumulative IPC: 1.25712 (Simulation time: 0 hr 0 min 56 sec) 
Heartbeat CPU  0 instructions:   34000001 cycles:   23948987 heartbeat IPC: 0.76841 cumulative IPC: 1.22466 (Simulation time: 0 hr 0 min 58 sec) 
Heartbeat CPU  0 instructions:   35000001 cycles:   24827800 heartbeat IPC: 1.13790 cumulative IPC: 1.22094 (Simulation time: 0 hr 0 min 59 sec) 
Heartbeat CPU  0 instructions:   36000000 cycles:   25409487 heartbeat IPC: 1.71914 cumulative IPC: 1.23470 (Simulation time: 0 hr 1 min 1 sec) 
Heartbeat CPU  0 instructions:   37000003 cycles:   26252294 heartbeat IPC: 1.18651 cumulative IPC: 1.23285 (Simulation time: 0 hr 1 min 3 sec) 
Heartbeat CPU  0 instructions:   38000000 cycles:   27464513 heartbeat IPC: 0.82493 cumulative IPC: 1.21145 (Simulation time: 0 hr 1 min 5 sec) 
Heartbeat CPU  0 instructions:   39000003 cycles:   28166147 heartbeat IPC: 1.42525 cumulative IPC: 1.21775 (Simulation time: 0 hr 1 min 7 sec) 
Heartbeat CPU  0 instructions:   40000000 cycles:   28739211 heartbeat IPC: 1.74500 cumulative IPC: 1.23014 (Simulation time: 0 hr 1 min 8 sec) 
Heartbeat CPU  0 instructions:   41000001 cycles:   30029426 heartbeat IPC: 0.77507 cumulative IPC: 1.20727 (Simulation time: 0 hr 1 min 10 sec) 
Heartbeat CPU  0 instructions:   42000002 cycles:   30821458 heartbeat IPC: 1.26258 cumulative IPC: 1.20893 (Simulation time: 0 hr 1 min 12 sec) 
Heartbeat CPU  0 instructions:   43000003 cycles:   31399902 heartbeat IPC: 1.72878 cumulative IPC: 1.22005 (Simulation time: 0 hr 1 min 14 sec) 
Heartbeat CPU  0 instructions:   44000000 cycles:   32361948 heartbeat IPC: 1.03945 cumulative IPC: 1.21384 (Simulation time: 0 hr 1 min 16 sec) 
Heartbeat CPU  0 instructions:   45000002 cycles:   33389445 heartbeat IPC: 0.97324 cumulative IPC: 1.20533 (Simulation time: 0 hr 1 min 17 sec) 
Heartbeat CPU  0 instructions:   46000000 cycles:   34003591 heartbeat IPC: 1.62827 cumulative IPC: 1.21409 (Simulation time: 0 hr 1 min 19 sec) 
Heartbeat CPU  0 instructions:   47000001 cycles:   34568988 heartbeat IPC: 1.76867 cumulative IPC: 1.22447 (Simulation time: 0 hr 1 min 21 sec) 
Heartbeat CPU  0 instructions:   48000000 cycles:   35605303 heartbeat IPC: 0.96496 cumulative IPC: 1.21586 (Simulation time: 0 hr 1 min 23 sec) 
Heartbeat CPU  0 instructions:   49000002 cycles:   36262482 heartbeat IPC: 1.52166 cumulative IPC: 1.22216 (Simulation time: 0 hr 1 min 24 sec) 
Heartbeat CPU  0 instructions:   50000002 cycles:   36819174 heartbeat IPC: 1.79633 cumulative IPC: 1.23200 (Simulation time: 0 hr 1 min 26 sec) 
Heartbeat CPU  0 instructions:   51000002 cycles:   38091145 heartbeat IPC: 0.78618 cumulative IPC: 1.21520 (Simulation time: 0 hr 1 min 28 sec) 
Heartbeat CPU  0 instructions:   52000000 cycles:   38805833 heartbeat IPC: 1.39921 cumulative IPC: 1.21901 (Simulation time: 0 hr 1 min 30 sec) 
Heartbeat CPU  0 instructions:   53000002 cycles:   39381466 heartbeat IPC: 1.73722 cumulative IPC: 1.22753 (Simulation time: 0 hr 1 min 32 sec) 
Heartbeat CPU  0 instructions:   54000003 cycles:   40490216 heartbeat IPC: 0.90192 cumulative IPC: 1.21754 (Simulation time: 0 hr 1 min 34 sec) 
Heartbeat CPU  0 instructions:   55000001 cycles:   41359796 heartbeat IPC: 1.14998 cumulative IPC: 1.21595 (Simulation time: 0 hr 1 min 35 sec) 
Heartbeat CPU  0 instructions:   56000000 cycles:   41941822 heartbeat IPC: 1.71813 cumulative IPC: 1.22373 (Simulation time: 0 hr 1 min 37 sec) 
Heartbeat CPU  0 instructions:   57000000 cycles:   42746695 heartbeat IPC: 1.24243 cumulative IPC: 1.22412 (Simulation time: 0 hr 1 min 39 sec) 
Heartbeat CPU  0 instructions:   58000000 cycles:   43875301 heartbeat IPC: 0.88605 cumulative IPC: 1.21447 (Simulation time: 0 hr 1 min 41 sec) 
Heartbeat CPU  0 instructions:   59000001 cycles:   44512160 heartbeat IPC: 1.57021 cumulative IPC: 1.22011 (Simulation time: 0 hr 1 min 42 sec) 
Heartbeat CPU  0 instructions:   60000000 cycles:   45078803 heartbeat IPC: 1.76478 cumulative IPC: 1.22768 (Simulation time: 0 hr 1 min 44 sec) 
Finished CPU 0 instructions: 50000000 cycles: 40727068 cumulative IPC: 1.22768 (Simulation time: 0 hr 1 min 44 sec) 

ChampSim completed all CPUs

[ROI Statistics]
Core_0_instructions 50000000
Core_0_cycles 40727068
Core_0_IPC 1.22768

Core_0_branch_prediction_accuracy 98.20158
Core_0_branch_MPKI 1.55550
Core_0_average_ROB_occupancy_at_mispredict 123.02687

Core_0_L1D_total_access 7740704
Core_0_L1D_total_hit 6974234
Core_0_L1D_total_miss 766470
Core_0_L1D_loads 6953795
Core_0_L1D_load_hit 6250745
Core_0_L1D_load_miss 703050
Core_0_L1D_RFOs 786909
Core_0_L1D_RFO_hit 723489
Core_0_L1D_RFO_miss 63420
Core_0_L1D_prefetches 0
Core_0_L1D_prefetch_hit 0
Core_0_L1D_prefetch_miss 0
Core_0_L1D_writebacks 0
Core_0_L1D_writeback_hit 0
Core_0_L1D_writeback_miss 0
Core_0_L1D_prefetch_requested 0
Core_0_L1D_prefetch_dropped 0
Core_0_L1D_prefetch_issued 0
Core_0_L1D_prefetch_filled 0
Core_0_L1D_prefetch_useful 0
Core_0_L1D_prefetch_useless 0
Core_0_L1D_prefetch_late 0
Core_0_L1D_average_miss_latency 28.57498

Core_0_L1D_rq_access 11882856
Core_0_L1D_rq_forward 0
Core_0_L1D_rq_merged 4523670
Core_0_L1D_rq_to_cache 7359184
Core_0_L1D_rq_full 0

Core_0_L1D_wq_access 942525
Core_0_L1D_wq_forward 2
Core_0_L1D_wq_merged 4727
Core_0_L1D_wq_to_cache 937798
Core_0_L1D_wq_full 4074

Core_0_L1D_pq_access 0
Core_0_L1D_pq_forward 0
Core_0_L1D_pq_merged 0
Core_0_L1D_pq_to_cache 0
Core_0_L1D_pq_full 0

Core_0_L1D_acc_epochs 42428
Core_0_L1D_acc_level_0 42428
Core_0_L1D_acc_level_1 0
Core_0_L1D_acc_level_2 0
Core_0_L1D_acc_level_3 0
Core_0_L1D_acc_level_4 0
Core_0_L1D_acc_level_5 0
Core_0_L1D_acc_level_6 0
Core_0_L1D_acc_level_7 0
Core_0_L1D_acc_level_8 0
Core_0_L1D_acc_level_9 0

Core_0_L1I_total_access 12464875
Core_0_L1I_total_hit 12464135
Core_0_L1I_total_miss 740
Core_0_L1I_loads 12464875
Core_0_L1I_load_hit 12464135
Core_0_L1I_load_miss 740
Core_0_L1I_RFOs 0
Core_0_L1I_RFO_hit 0
Core_0_L1I_RFO_miss 0
Core_0_L1I_prefetches 0
Core_0_L1I_prefetch_hit 0
Core_0_L1I_prefetch_miss 0
Core_0_L1I_writebacks 0
Core_0_L1I_writeback_hit 0
Core_0_L1I_writeback_miss 0
Core_0_L1I_prefetch_requested 0
Core_0_L1I_prefetch_dropped 0
Core_0_L1I_prefetch_issued 0
Core_0_L1I_prefetch_filled 0
Core_0_L1I_prefetch_useful 0
Core_0_L1I_prefetch_useless 0
Core_0_L1I_prefetch_late 0
Core_0_L1I_average_miss_latency 97.07027

Core_0_L1I_rq_access 50000103
Core_0_L1I_rq_forward 0
Core_0_L1I_rq_merged 37534617
Core_0_L1I_rq_to_cache 12465486
Core_0_L1I_rq_full 0

Core_0_L1I_wq_access 0
Core_0_L1I_wq_forward 0
Core_0_L1I_wq_merged 0
Core_0_L1I_wq_to_cache 0
Core_0_L1I_wq_full 0

Core_0_L1I_pq_access 0
Core_0_L1I_pq_forward 0
Core_0_L1I_pq_merged 0
Core_0_L1I_pq_to_cache 0
Core_0_L1I_pq_full 0

Core_0_L1I_acc_epochs 42428
Core_0_L1I_acc_level_0 42428
Core_0_L1I_acc_level_1 0
Core_0_L1I_acc_level_2 0
Core_0_L1I_acc_level_3 0
Core_0_L1I_acc_level_4 0
Core_0_L1I_acc_level_5 0
Core_0_L1I_acc_level_6 0
Core_0_L1I_acc_level_7 0
Core_0_L1I_acc_level_8 0
Core_0_L1I_acc_level_9 0

Core_0_L2C_total_access 3650849
Core_0_L2C_total_hit 2851770
Core_0_L2C_total_miss 799079
Core_0_L2C_loads 703790
Core_0_L2C_load_hit 608674
Core_0_L2C_load_miss 95116
Core_0_L2C_RFOs 63419
Core_0_L2C_RFO_hit 5805
Core_0_L2C_RFO_miss 57614
Core_0_L2C_prefetches 2811405
Core_0_L2C_prefetch_hit 2165683
Core_0_L2C_prefetch_miss 645722
Core_0_L2C_writebacks 72235
Core_0_L2C_writeback_hit 71608
Core_0_L2C_writeback_miss 627
Core_0_L2C_prefetch_requested 3779295
Core_0_L2C_prefetch_dropped 22922
Core_0_L2C_prefetch_issued 3756373
Core_0_L2C_prefetch_filled 792547
Core_0_L2C_prefetch_useful 642319
Core_0_L2C_prefetch_useless 150209
Core_0_L2C_prefetch_late 16834
Core_0_L2C_average_miss_latency 91.15933

Core_0_L2C_rq_access 767210
Core_0_L2C_rq_forward 0
Core_0_L2C_rq_merged 0
Core_0_L2C_rq_to_cache 767209
Core_0_L2C_rq_full 0

Core_0_L2C_wq_access 72235
Core_0_L2C_wq_forward 1
Core_0_L2C_wq_merged 0
Core_0_L2C_wq_to_cache 72235
Core_0_L2C_wq_full 0

Core_0_L2C_pq_access 3756373
Core_0_L2C_pq_forward 0
Core_0_L2C_pq_merged 111617
Core_0_L2C_pq_to_cache 3644756
Core_0_L2C_pq_full 0

Core_0_L2C_acc_epochs 42428
Core_0_L2C_acc_level_0 4433
Core_0_L2C_acc_level_1 663
Core_0_L2C_acc_level_2 929
Core_0_L2C_acc_level_3 2265
Core_0_L2C_acc_level_4 3707
Core_0_L2C_acc_level_5 3039
Core_0_L2C_acc_level_6 1555
Core_0_L2C_acc_level_7 1176
Core_0_L2C_acc_level_8 2350
Core_0_L2C_acc_level_9 22311

Core_0_LLC_total_access 863458
Core_0_LLC_total_hit 470419
Core_0_LLC_total_miss 393039
Core_0_LLC_loads 78359
Core_0_LLC_load_hit 48225
Core_0_LLC_load_miss 30134
Core_0_LLC_RFOs 57614
Core_0_LLC_RFO_hit 56091
Core_0_LLC_RFO_miss 1523
Core_0_LLC_prefetches 662463
Core_0_LLC_prefetch_hit 302113
Core_0_LLC_prefetch_miss 360350
Core_0_LLC_writebacks 65022
Core_0_LLC_writeback_hit 63990
Core_0_LLC_writeback_miss 1032
Core_0_LLC_prefetch_requested 0
Core_0_LLC_prefetch_dropped 0
Core_0_LLC_prefetch_issued 0
Core_0_LLC_prefetch_filled 459096
Core_0_LLC_prefetch_useful 2628
Core_0_LLC_prefetch_useless 433508
Core_0_LLC_prefetch_late 0
Core_0_LLC_average_miss_latency 125.05329

Core_0_LLC_rq_access 135976
Core_0_LLC_rq_forward 0
Core_0_LLC_rq_merged 0
Core_0_LLC_rq_to_cache 135973
Core_0_LLC_rq_full 0

Core_0_LLC_wq_access 65022
Core_0_LLC_wq_forward 17
Core_0_LLC_wq_merged 0
Core_0_LLC_wq_to_cache 65022
Core_0_LLC_wq_full 0

Core_0_LLC_pq_access 809382
Core_0_LLC_pq_forward 0
Core_0_LLC_pq_merged 0
Core_0_LLC_pq_to_cache 809368
Core_0_LLC_pq_full 0

Core_0_LLC_acc_epochs 44023
Core_0_LLC_acc_level_0 42753
Core_0_LLC_acc_level_1 603
Core_0_LLC_acc_level_2 300
Core_0_LLC_acc_level_3 63
Core_0_LLC_acc_level_4 16
Core_0_LLC_acc_level_5 175
Core_0_LLC_acc_level_6 18
Core_0_LLC_acc_level_7 17
Core_0_LLC_acc_level_8 3
Core_0_LLC_acc_level_9 75

Core_0_major_page_fault 0
Core_0_minor_page_fault 2524

scooby_st_lookup 856220
scooby_st_hit 819382
scooby_st_evict 36774
scooby_st_insert 36838
scooby_st_streaming 0

scooby_predict_called 856220
scooby_predict_out_of_bounds 16246
scooby_predict_action_1 800155
scooby_predict_issue_action_1 788380
scooby_predict_hit_action_1 11775
scooby_predict_out_of_bounds_action_1 12348
scooby_predict_action_3 1517
scooby_predict_issue_action_3 1265
scooby_predict_hit_action_3 252
scooby_predict_out_of_bounds_action_3 62
scooby_predict_action_4 1944
scooby_predict_issue_action_4 1613
scooby_predict_hit_action_4 331
scooby_predict_out_of_bounds_action_4 96
scooby_predict_action_5 18186
scooby_predict_issue_action_5 17946
scooby_predict_hit_action_5 240
scooby_predict_out_of_bounds_action_5 1558
scooby_predict_action_10 1066
scooby_predict_issue_action_10 949
scooby_predict_hit_action_10 117
scooby_predict_out_of_bounds_action_10 184
scooby_predict_action_11 1063
scooby_predict_issue_action_11 948
scooby_predict_hit_action_11 115
scooby_predict_out_of_bounds_action_11 171
scooby_predict_action_12 908
scooby_predict_issue_action_12 774
scooby_predict_hit_action_12 134
scooby_predict_out_of_bounds_action_12 208
scooby_predict_action_22 772
scooby_predict_issue_action_22 671
scooby_predict_hit_action_22 101
scooby_predict_out_of_bounds_action_22 297
scooby_predict_action_23 721
scooby_predict_issue_action_23 635
scooby_predict_hit_action_23 86
scooby_predict_out_of_bounds_action_23 327
scooby_predict_action_30 524
scooby_predict_issue_action_30 440
scooby_predict_hit_action_30 84
scooby_predict_out_of_bounds_action_30 387
scooby_predict_action_32 565
scooby_predict_issue_action_32 507
scooby_predict_hit_action_32 58
scooby_predict_out_of_bounds_action_32 413
scooby_predict_action_-1 2516
scooby_predict_issue_action_-1 2214
scooby_predict_hit_action_-1 302
scooby_predict_out_of_bounds_action_-1 40
scooby_predict_action_-3 1401
scooby_predict_issue_action_-3 1135
scooby_predict_hit_action_-3 266
scooby_predict_out_of_bounds_action_-3 63
scooby_predict_action_-6 1217
scooby_predict_issue_action_-6 1054
scooby_predict_hit_action_-6 163
scooby_predict_out_of_bounds_action_-6 92
scooby_predict_action_0 7419
scooby_predict_issue_action_0 0
scooby_predict_hit_action_0 0
scooby_predict_out_of_bounds_action_0 0
scooby_predict_multi_deg_called 703325
scooby_predict_predicted 3779295
scooby_predict_multi_deg 2960764
scooby_predict_multi_deg_2 690578
scooby_predict_multi_deg_3 630517
scooby_predict_multi_deg_4 618031
scooby_predict_multi_deg_5 516642
scooby_predict_multi_deg_6 504996
scooby_predict_multi_deg_7 0
scooby_predict_multi_deg_8 0
scooby_predict_multi_deg_9 0
scooby_predict_multi_deg_10 0
scooby_predict_multi_deg_11 0
scooby_predict_multi_deg_12 0
scooby_predict_multi_deg_13 0
scooby_predict_multi_deg_14 0
scooby_predict_multi_deg_15 0
scooby_predict_multi_deg_16 0

scooby_selected_deg_1 115206
scooby_selected_deg_2 47951
scooby_selected_deg_3 0
scooby_selected_deg_4 91666
scooby_selected_deg_5 0
scooby_selected_deg_6 563708
scooby_selected_deg_7 0
scooby_selected_deg_8 0
scooby_selected_deg_9 0
scooby_selected_deg_10 0
scooby_selected_deg_11 0
scooby_selected_deg_12 0
scooby_selected_deg_13 0
scooby_selected_deg_14 0
scooby_selected_deg_15 0
scooby_selected_deg_16 0

scooby_state_4268ce|14|1 2789,0,1,1,0,1,0,0,0,0,0,0,0,0,0,2792,
scooby_state_4268ce|18|1 2786,0,0,0,1,1,1,0,0,0,0,0,2,1,0,2792,
scooby_state_4268ce|45|1 2781,1,3,0,0,1,1,2,0,1,0,0,0,0,1,2791,
scooby_state_4268ce|46|1 2786,0,1,0,1,0,0,1,1,0,0,1,0,0,0,2791,
scooby_state_4268ce|50|1 2787,0,0,0,1,0,0,1,0,0,0,0,0,1,1,2791,
scooby_state_4268ce|24|1 2784,1,1,0,0,1,1,0,1,0,0,0,0,0,0,2789,
scooby_state_4268ce|59|1 2782,1,1,1,0,0,0,0,0,1,0,0,1,1,0,2788,
scooby_state_4268ce|27|1 2779,2,1,0,0,1,1,1,1,0,0,1,0,0,1,2788,
scooby_state_4268ce|49|1 2784,1,0,0,0,0,1,0,0,0,1,1,0,0,0,2788,
scooby_state_4268ce|6|1 2784,0,1,1,1,0,0,0,0,0,1,0,0,0,0,2788,
scooby_state_4268ce|17|1 2780,0,1,0,0,0,1,0,3,1,0,2,0,0,0,2788,
scooby_state_4268ce|25|1 2783,0,2,0,0,1,0,1,0,1,0,0,0,0,0,2788,
scooby_state_4268ce|23|1 2779,0,1,1,0,0,0,0,2,0,0,0,4,0,1,2788,
scooby_state_4268ce|56|1 2780,0,0,0,0,1,1,0,2,0,0,0,1,1,1,2787,
scooby_state_4268ce|57|1 2784,1,0,0,0,0,0,0,0,1,1,0,0,0,0,2787,
scooby_state_4268ce|55|1 2784,0,0,2,0,0,0,1,0,0,0,0,0,0,0,2787,
scooby_state_4268ce|38|1 2781,0,0,0,0,0,1,1,2,1,0,0,1,0,0,2787,
scooby_state_4268ce|5|1 2783,0,1,0,0,1,0,0,0,0,0,0,1,1,0,2787,
scooby_state_4268ce|37|1 2781,0,1,1,1,1,1,0,0,0,0,0,0,1,0,2787,
scooby_state_4268ce|7|1 2780,0,0,0,0,0,1,1,0,0,1,0,2,0,0,2785,
scooby_state_4268ce|22|1 2780,0,0,1,0,1,1,0,0,0,0,0,0,1,0,2784,
scooby_state_4268ce|21|1 2780,0,0,1,0,0,0,1,0,0,1,0,0,0,1,2784,
scooby_state_4268ce|60|1 2781,1,0,0,0,0,0,0,0,1,0,0,1,0,0,2784,
scooby_state_4268ce|28|1 2780,0,0,1,1,0,0,0,0,0,0,2,0,0,0,2784,
scooby_state_4268ce|26|1 2778,0,0,0,1,0,0,0,1,0,1,1,0,1,1,2784,
scooby_state_4268ce|20|1 2778,1,0,0,0,1,0,0,1,1,0,1,0,1,0,2784,
scooby_state_4268ce|34|1 2781,0,0,2,0,0,0,0,0,0,0,0,0,1,0,2784,
scooby_state_4268ce|2|1 2782,0,0,1,0,0,0,0,0,0,0,0,0,0,0,2783,
scooby_state_4268ce|36|1 2781,0,1,0,0,0,0,0,0,0,0,0,0,0,1,2783,
scooby_state_4268ce|4|1 2777,2,0,0,0,2,0,0,1,0,1,0,0,0,0,2783,
scooby_state_4268ce|0|0 2781,0,0,0,0,0,0,0,0,1,0,0,1,0,0,2783,
scooby_state_4268ce|52|1 2775,1,0,1,0,0,0,1,1,1,1,0,1,1,0,2783,
scooby_state_4268ce|39|1 2777,0,1,0,1,1,0,2,0,0,0,0,0,0,1,2783,
scooby_state_4268ce|53|1 2780,0,0,0,0,0,0,0,0,0,0,0,2,1,0,2783,
scooby_state_4268ce|58|1 2777,2,1,0,0,0,1,0,0,0,1,0,1,0,0,2783,
scooby_state_4268ce|54|1 2777,0,0,0,2,1,0,1,0,0,0,1,0,0,1,2783,
scooby_state_4268ce|42|1 2781,0,0,0,0,0,1,0,0,1,0,0,0,0,0,2783,
scooby_state_4268ce|8|1 2779,0,0,0,1,0,0,0,0,0,0,0,1,0,0,2781,
scooby_state_4268ce|31|1 2772,0,2,1,0,0,0,0,1,1,0,2,1,0,0,2780,
scooby_state_4268ce|32|1 2776,0,0,0,0,0,0,0,0,1,0,1,0,1,1,2780,
scooby_state_4268ce|35|1 2773,0,0,1,0,1,0,1,0,1,1,0,1,1,0,2780,
scooby_state_4268ce|48|1 2776,0,0,0,0,2,1,0,0,1,0,0,0,0,0,2780,
scooby_state_4268ce|16|1 2775,0,1,0,0,0,1,0,1,0,1,0,1,0,0,2780,
scooby_state_4268ce|44|1 2776,0,0,0,0,0,0,1,1,0,0,1,0,0,0,2779,
scooby_state_4268ce|3|1 2776,1,0,0,0,0,0,1,0,0,1,0,0,0,0,2779,
scooby_state_4268ce|43|1 2774,0,0,1,0,0,1,0,0,1,0,0,1,1,0,2779,
scooby_state_4268ce|40|1 2774,0,1,0,0,0,0,1,0,1,1,0,0,0,1,2779,
scooby_state_4268ce|63|1 2778,0,0,0,0,0,0,0,0,0,0,0,0,0,1,2779,
scooby_state_4268ce|9|1 2771,1,0,0,0,3,1,0,0,0,0,0,0,0,1,2777,
scooby_state_4268ce|30|1 2772,0,0,1,0,1,2,0,0,0,0,0,0,0,0,2776,
scooby_state_4268ce|62|1 2771,0,0,0,2,0,0,0,1,0,1,0,0,1,0,2776,
scooby_state_4268ce|33|1 2774,0,0,0,0,0,0,0,0,0,1,0,1,0,0,2776,
scooby_state_4268ce|29|1 2771,0,1,0,0,0,0,1,0,2,0,1,0,0,0,2776,
scooby_state_4268ce|19|1 2773,1,0,0,0,0,1,0,0,0,0,0,0,0,1,2776,
scooby_state_4268ce|41|1 2764,2,2,0,0,1,2,1,0,2,0,1,0,0,0,2775,
scooby_state_4268ce|1|1 2770,0,0,0,1,1,0,0,1,1,0,0,0,0,1,2775,
scooby_state_4268ce|61|1 2770,0,2,0,0,1,0,0,0,0,0,0,0,0,2,2775,
scooby_state_4268ce|51|1 2769,1,0,0,1,0,0,0,1,0,0,2,0,0,1,2775,
scooby_state_4268ce|13|1 2772,0,0,0,1,0,0,0,0,1,0,0,0,0,0,2774,
scooby_state_4268ce|15|1 2768,1,1,0,0,1,1,0,0,0,0,0,0,0,0,2772,
scooby_state_4268ce|47|1 2765,1,0,1,0,1,0,0,0,0,1,1,0,1,0,2771,
scooby_state_4268ce|10|1 2763,0,0,0,1,1,0,0,0,0,0,0,0,1,0,2766,
scooby_state_4268ce|12|1 2743,0,0,0,0,0,0,1,0,0,0,0,0,0,0,2744,
scooby_state_4268ce|11|1 2737,0,0,0,0,1,0,2,0,1,1,0,1,0,1,2744,
scooby_state_4268f9|26|1 2570,1,2,0,0,0,1,1,0,1,0,0,0,0,1,2577,
scooby_state_4268f9|58|1 2571,1,0,0,0,2,0,1,1,0,0,0,0,0,0,2576,
scooby_state_4268f9|25|1 2570,1,1,0,0,0,0,1,0,1,0,0,2,0,0,2576,
scooby_state_4268f9|57|1 2570,0,0,0,0,0,3,0,0,0,0,1,0,1,1,2576,
scooby_state_4268f9|28|1 2571,0,0,2,0,0,0,0,0,0,0,0,0,0,0,2573,
scooby_state_4268f9|9|1 2568,0,0,0,1,0,0,1,1,0,1,0,0,0,1,2573,
scooby_state_4268f9|60|1 2567,0,1,0,0,1,1,1,0,1,1,0,0,0,0,2573,
scooby_state_4268f9|18|1 2569,0,0,0,1,0,1,1,0,0,0,0,1,0,0,2573,
scooby_state_4268f9|10|1 2566,0,0,3,0,0,0,0,0,1,1,1,0,0,1,2573,
scooby_state_4268f9|27|1 2565,2,0,0,1,1,1,1,0,0,0,1,0,1,0,2573,
scooby_state_4268f9|59|1 2571,0,0,1,0,0,0,0,0,0,0,0,0,0,0,2572,
scooby_state_4268f9|42|1 2570,0,0,0,0,0,1,0,0,0,0,1,0,0,0,2572,
scooby_state_4268f9|41|1 2563,0,2,0,3,0,0,0,1,0,1,0,1,0,1,2572,
scooby_state_4268f9|50|1 2566,0,0,0,2,0,0,1,0,1,0,0,1,0,1,2572,
scooby_state_4268f9|22|1 2563,0,0,0,1,1,0,0,1,2,0,0,1,0,0,2569,
scooby_state_4268f9|44|1 2567,0,0,0,0,0,1,1,0,0,0,0,0,0,0,2569,
scooby_state_4268f9|43|1 2565,0,0,0,0,1,0,1,0,0,1,0,0,0,1,2569,
scooby_state_4268f9|6|1 2562,0,1,0,0,0,0,0,0,1,2,0,1,2,0,2569,
scooby_state_4268f9|32|1 2564,1,0,0,0,0,0,0,1,1,0,0,0,2,0,2569,
scooby_state_4268f9|11|1 2566,1,0,0,0,0,0,1,0,0,1,0,0,0,0,2569,
scooby_state_4268f9|17|1 2567,0,0,2,0,0,0,0,0,0,0,0,0,0,0,2569,
scooby_state_4268f9|49|1 2565,0,0,0,2,0,0,0,0,1,0,0,0,0,0,2568,
scooby_state_4268f9|12|1 2559,1,0,1,0,0,1,1,0,1,1,0,0,3,0,2568,
scooby_state_4268f9|54|1 2561,0,0,0,0,0,2,0,1,2,0,1,0,1,0,2568,
scooby_state_4268f9|1|1 2565,1,0,0,0,1,0,0,0,0,0,0,1,0,0,2568,
scooby_state_4268f9|38|1 2564,0,0,1,0,0,0,0,0,0,0,0,1,1,0,2567,
scooby_state_4268f9|7|1 2565,0,0,0,0,0,0,0,0,0,0,0,1,0,0,2566,
scooby_state_4268f9|15|1 2559,0,0,1,0,0,1,0,0,0,1,2,1,0,0,2565,
scooby_state_4268f9|23|1 2564,0,0,0,0,0,0,0,0,0,0,0,0,0,1,2565,
scooby_state_4268f9|36|1 2559,0,0,0,0,2,1,0,0,1,0,0,1,1,0,2565,
scooby_state_4268f9|47|1 2560,0,1,0,0,0,1,1,1,0,0,0,0,1,0,2565,
scooby_state_4268f9|4|1 2561,0,0,0,1,0,0,0,0,1,0,2,0,0,0,2565,
scooby_state_4268f9|16|1 2561,0,1,0,0,0,0,1,0,1,0,1,0,0,0,2565,
scooby_state_4268f9|35|1 2559,1,1,0,1,0,0,0,0,1,1,0,1,0,0,2565,
scooby_state_4268f9|34|1 2556,1,1,1,0,1,1,0,0,0,2,0,0,1,1,2565,
scooby_state_4268f9|56|1 2563,0,1,0,0,0,0,0,0,1,0,0,0,0,0,2565,
scooby_state_4268f9|19|1 2563,0,0,0,0,0,0,1,0,1,0,0,0,0,0,2565,
scooby_state_4268f9|30|1 2562,0,0,0,0,0,0,0,2,0,0,0,0,0,1,2565,
scooby_state_4268f9|14|1 2561,0,0,0,0,0,0,0,0,3,0,0,1,0,0,2565,
scooby_state_4268f9|29|1 2562,0,0,2,0,0,0,0,0,0,1,0,0,0,0,2565,
scooby_state_4268f9|8|1 2560,0,0,0,0,2,0,1,0,0,0,0,1,1,0,2565,
scooby_state_4268f9|0|0 2563,0,0,0,0,0,0,0,0,1,0,1,0,0,0,2565,
scooby_state_4268f9|24|1 2560,0,0,0,0,0,1,1,0,0,1,0,1,0,1,2565,
scooby_state_4268f9|33|1 2560,1,0,0,0,0,0,0,0,0,1,0,2,0,1,2565,
scooby_state_4268f9|48|1 2560,0,1,0,1,0,0,1,1,1,0,0,0,0,0,2565,
scooby_state_4268f9|3|1 2559,0,0,0,1,0,0,0,2,0,0,2,0,0,0,2564,
scooby_state_4268f9|55|1 2560,0,0,0,0,0,0,0,0,0,1,1,1,1,0,2564,
scooby_state_4268f9|40|1 2562,0,0,0,0,0,0,1,0,0,0,0,0,1,0,2564,
scooby_state_4268f9|39|1 2558,1,0,0,0,0,0,1,0,1,1,0,0,1,1,2564,
scooby_state_4268f9|46|1 2557,0,0,1,1,0,0,0,1,0,0,0,2,1,1,2564,
scooby_state_4268f9|61|1 2563,0,0,0,0,0,0,0,0,0,0,0,0,1,0,2564,
scooby_state_4268f9|62|1 2558,0,0,0,1,0,1,1,1,1,0,0,0,0,1,2564,
scooby_state_4268f9|2|1 2557,2,0,0,0,1,0,1,0,0,0,1,0,2,0,2564,
scooby_state_4268f9|51|1 2560,1,0,0,0,0,0,0,0,0,0,0,0,1,1,2563,
scooby_state_4268f9|31|1 2557,0,0,0,0,0,2,0,0,0,0,1,1,0,1,2562,
scooby_state_4268f9|5|1 2555,0,2,0,0,0,1,0,0,0,0,0,1,0,2,2561,
scooby_state_4268f9|21|1 2559,0,0,0,1,0,0,0,0,0,0,0,1,0,0,2561,
scooby_state_4268f9|13|1 2556,0,0,1,0,1,0,1,1,0,0,0,1,0,0,2561,
scooby_state_4268f9|63|1 2556,0,1,0,1,0,0,0,0,1,0,0,1,1,0,2561,
scooby_state_4268f9|20|1 2554,1,0,1,0,0,0,2,0,1,0,0,1,1,0,2561,
scooby_state_4268f9|53|1 2555,1,1,0,1,0,0,0,1,0,0,0,0,1,0,2560,
scooby_state_4268f9|37|1 2557,1,0,0,0,0,0,0,1,1,0,0,0,0,0,2560,
scooby_state_4268f9|52|1 2559,0,0,0,1,0,0,0,0,0,0,0,0,0,0,2560,
scooby_state_4268f9|45|1 2556,0,0,0,1,1,0,0,1,0,1,0,0,0,0,2560,
scooby_state_407cb3|0|0 566,0,0,0,0,0,1,0,0,0,0,0,0,0,0,567,
scooby_state_407cae|0|0 566,0,0,0,0,0,0,0,0,1,0,0,0,0,0,567,
scooby_state_41df40|21|1 541,0,0,0,2,0,0,0,0,0,0,0,1,0,0,544,
scooby_state_41df40|10|1 543,0,0,0,0,0,0,0,1,0,0,0,0,0,0,544,
scooby_state_41df40|53|1 543,0,0,0,0,0,1,0,0,0,0,0,0,0,0,544,
scooby_state_41df40|5|1 543,0,0,0,0,1,0,0,0,0,0,0,0,0,0,544,
scooby_state_41df40|36|1 543,0,1,0,0,0,0,0,0,0,0,0,0,0,0,544,
scooby_state_41df40|14|1 542,0,0,2,0,0,0,0,0,0,0,0,0,0,0,544,
scooby_state_41df40|16|1 544,0,0,0,0,0,0,0,0,0,0,0,0,0,0,544,
scooby_state_41df40|6|1 544,0,0,0,0,0,0,0,0,0,0,0,0,0,0,544,
scooby_state_41df40|7|1 543,0,0,0,0,0,0,0,0,1,0,0,0,0,0,544,
scooby_state_41df40|8|1 542,0,0,0,1,0,0,0,0,0,1,0,0,0,0,544,
scooby_state_41df40|34|1 544,0,0,0,0,0,0,0,0,0,0,0,0,0,0,544,
scooby_state_41df40|13|1 543,0,0,0,0,0,0,1,0,0,0,0,0,0,0,544,
scooby_state_41df40|12|1 544,0,0,0,0,0,0,0,0,0,0,0,0,0,0,544,
scooby_state_41df40|42|1 542,0,0,0,0,0,0,0,0,0,0,0,2,0,0,544,
scooby_state_41df40|45|1 544,0,0,0,0,0,0,0,0,0,0,0,0,0,0,544,
scooby_state_41df40|50|1 543,0,0,0,0,0,0,0,0,0,0,0,1,0,0,544,
scooby_state_41df40|33|1 542,0,1,0,0,0,0,0,0,0,1,0,0,0,0,544,
scooby_state_41df40|17|1 544,0,0,0,0,0,0,0,0,0,0,0,0,0,0,544,
scooby_state_41df40|54|1 543,0,0,1,0,0,0,0,0,0,0,0,0,0,0,544,
scooby_state_41df40|51|1 544,0,0,0,0,0,0,0,0,0,0,0,0,0,0,544,
scooby_state_41df40|11|1 544,0,0,0,0,0,0,0,0,0,0,0,0,0,0,544,
scooby_state_41df40|44|1 542,0,0,0,0,0,0,0,1,0,0,0,0,0,1,544,
scooby_state_41df40|4|1 544,0,0,0,0,0,0,0,0,0,0,0,0,0,0,544,
scooby_state_41df40|15|1 543,1,0,0,0,0,0,0,0,0,0,0,0,0,0,544,
scooby_state_41df40|48|1 543,0,0,0,0,1,0,0,0,0,0,0,0,0,0,544,
scooby_state_41df40|20|1 543,0,0,0,0,0,1,0,0,0,0,0,0,0,0,544,
scooby_state_41df40|30|1 542,0,1,0,0,0,0,0,0,0,0,1,0,0,0,544,
scooby_state_41df40|39|1 544,0,0,0,0,0,0,0,0,0,0,0,0,0,0,544,
scooby_state_41df40|63|1 544,0,0,0,0,0,0,0,0,0,0,0,0,0,0,544,
scooby_state_41df40|0|0 541,0,0,0,0,0,1,0,0,0,1,0,0,1,0,544,
scooby_state_41df40|2|1 543,1,0,0,0,0,0,0,0,0,0,0,0,0,0,544,
scooby_state_41df40|22|1 542,0,0,0,0,1,0,0,0,0,0,0,0,0,1,544,
scooby_state_41df40|49|1 543,0,0,0,0,0,0,0,0,1,0,0,0,0,0,544,
scooby_state_41df40|43|1 544,0,0,0,0,0,0,0,0,0,0,0,0,0,0,544,
scooby_state_41df40|1|1 544,0,0,0,0,0,0,0,0,0,0,0,0,0,0,544,
scooby_state_41df40|19|1 544,0,0,0,0,0,0,0,0,0,0,0,0,0,0,544,
scooby_state_41df40|52|1 544,0,0,0,0,0,0,0,0,0,0,0,0,0,0,544,
scooby_state_41df40|47|1 544,0,0,0,0,0,0,0,0,0,0,0,0,0,0,544,
scooby_state_41df40|46|1 544,0,0,0,0,0,0,0,0,0,0,0,0,0,0,544,
scooby_state_41df40|3|1 544,0,0,0,0,0,0,0,0,0,0,0,0,0,0,544,
scooby_state_41df40|9|1 543,0,0,0,0,0,0,0,0,1,0,0,0,0,0,544,
scooby_state_41df40|35|1 543,0,0,0,0,0,0,0,0,1,0,0,0,0,0,544,
scooby_state_41df40|41|1 544,0,0,0,0,0,0,0,0,0,0,0,0,0,0,544,
scooby_state_41df40|18|1 543,1,0,0,0,0,0,0,0,0,0,0,0,0,0,544,
scooby_state_41df40|40|1 542,1,0,0,1,0,0,0,0,0,0,0,0,0,0,544,
scooby_state_41df40|37|1 544,0,0,0,0,0,0,0,0,0,0,0,0,0,0,544,
scooby_state_41df40|32|1 544,0,0,0,0,0,0,0,0,0,0,0,0,0,0,544,
scooby_state_41df40|38|1 543,0,0,0,0,0,0,0,1,0,0,0,0,0,0,544,
scooby_state_41df40|26|1 544,0,0,0,0,0,0,0,0,0,0,0,0,0,0,544,
scooby_state_41df40|31|1 541,1,0,1,1,0,0,0,0,0,0,0,0,0,0,544,
scooby_state_41df40|25|1 543,0,0,0,0,0,0,0,0,0,0,1,0,0,0,544,
scooby_state_41df40|29|1 543,1,0,0,0,0,0,0,0,0,0,0,0,0,0,544,
scooby_state_41df40|28|1 538,0,0,0,0,0,0,0,0,0,0,0,0,0,0,538,
scooby_state_41df40|27|1 536,0,1,0,0,0,0,0,0,0,0,0,1,0,0,538,
scooby_state_41df40|23|1 536,0,0,0,0,1,0,0,0,0,0,0,1,0,0,538,
scooby_state_41df40|24|1 537,0,0,0,0,0,0,1,0,0,0,0,0,0,0,538,
scooby_state_41df40|61|1 528,0,0,1,0,0,0,0,0,0,0,0,0,0,0,529,
scooby_state_41df40|60|1 527,0,0,0,0,0,0,0,0,0,0,0,0,0,0,527,
scooby_state_41df40|57|1 526,0,0,0,0,1,0,0,0,0,0,0,0,0,0,527,
scooby_state_41df40|55|1 527,0,0,0,0,0,0,0,0,0,0,0,0,0,0,527,
scooby_state_41df40|62|1 527,0,0,0,0,0,0,0,0,0,0,0,0,0,0,527,
scooby_state_41df40|56|1 526,0,0,0,0,0,1,0,0,0,0,0,0,0,0,527,
scooby_state_41df40|59|1 521,0,0,0,0,0,0,0,0,0,0,0,0,0,0,521,
scooby_state_41df40|58|1 520,0,0,0,0,0,0,0,0,0,0,0,0,1,0,521,
scooby_state_407cae|3|1 517,0,0,0,0,0,0,0,0,0,0,0,0,0,1,518,
scooby_state_407cb3|3|1 516,0,0,0,0,0,0,1,0,0,0,0,0,0,1,518,
scooby_state_407cb3|56|1 505,0,0,0,0,0,0,0,0,0,0,0,0,0,0,505,
scooby_state_407cae|56|1 503,0,0,0,0,0,1,0,0,0,0,0,1,0,0,505,
scooby_state_407cae|57|1 503,0,0,0,0,0,1,0,0,0,0,0,0,0,0,504,
scooby_state_407cb3|57|1 504,0,0,0,0,0,0,0,0,0,0,0,0,0,0,504,
scooby_state_407d8e|0|0 493,0,0,0,0,0,0,0,0,0,0,0,0,0,0,493,
scooby_state_407db7|0|0 493,0,0,0,0,0,0,0,0,0,0,0,0,0,0,493,
scooby_state_407cae|59|1 493,0,0,0,0,0,0,0,0,0,0,0,0,0,0,493,
scooby_state_407cb3|59|1 488,0,0,0,0,0,1,0,0,0,0,0,0,0,1,490,
scooby_state_407cae|58|1 484,0,0,0,0,0,0,0,0,0,0,0,0,0,0,484,
scooby_state_407cb3|58|1 482,0,0,0,0,0,0,0,0,0,0,0,0,0,0,482,
scooby_state_407cae|22|1 470,0,0,0,0,0,0,0,1,0,0,0,1,0,0,472,
scooby_state_407cb3|22|1 472,0,0,0,0,0,0,0,0,0,0,0,0,0,0,472,
scooby_state_407cb3|55|1 466,0,0,0,0,0,0,0,0,0,0,0,0,0,0,466,
scooby_state_407cae|55|1 466,0,0,0,0,0,0,0,0,0,0,0,0,0,0,466,
scooby_state_407cae|60|1 464,0,0,0,0,0,0,0,0,0,0,0,0,1,0,465,
scooby_state_407cb3|60|1 462,0,0,0,1,0,0,0,0,0,0,0,0,0,1,464,
scooby_state_407cae|8|1 462,0,1,0,0,0,0,0,0,0,0,0,0,0,0,463,
scooby_state_407cb3|8|1 463,0,0,0,0,0,0,0,0,0,0,0,0,0,0,463,
scooby_state_407cae|51|1 453,0,0,0,0,0,0,0,0,0,0,0,0,0,0,453,
scooby_state_407cb3|51|1 450,0,0,0,0,0,0,0,0,0,0,0,0,0,0,450,
scooby_state_407cb3|54|1 448,0,0,0,0,0,0,0,0,0,0,0,0,0,0,448,
scooby_state_407cae|54|1 447,0,0,0,0,0,0,0,1,0,0,0,0,0,0,448,
scooby_state_407cb3|2|1 445,1,0,0,0,1,0,0,0,0,0,0,0,0,0,447,
scooby_state_407cae|2|1 446,0,1,0,0,0,0,0,0,0,0,0,0,0,0,447,
scooby_state_407cae|9|1 447,0,0,0,0,0,0,0,0,0,0,0,0,0,0,447,
scooby_state_407cb3|7|1 446,0,0,0,0,0,0,0,0,0,0,0,0,0,0,446,
scooby_state_407cae|7|1 446,0,0,0,0,0,0,0,0,0,0,0,0,0,0,446,
scooby_state_407cb3|9|1 443,0,0,1,0,0,0,0,0,0,0,0,0,0,0,444,
scooby_state_407cae|44|1 436,0,0,0,0,0,0,0,0,0,0,0,0,0,0,436,
scooby_state_407cb3|44|1 436,0,0,0,0,0,0,0,0,0,0,0,0,0,0,436,
scooby_state_4268ae|62|1 429,0,1,0,0,0,0,0,0,1,0,0,0,0,0,431,
scooby_state_4268ae|63|1 429,0,0,0,0,0,1,1,0,0,0,0,0,0,0,431,
scooby_state_4268ae|60|1 430,1,0,0,0,0,0,0,0,0,0,0,0,0,0,431,
scooby_state_4268a7|0|0 430,0,0,1,0,0,0,0,0,0,0,0,0,0,0,431,
scooby_state_4268a7|63|1 430,0,0,0,0,0,0,0,0,0,0,1,0,0,0,431,
scooby_state_4268a7|60|1 429,0,0,0,0,1,1,0,0,0,0,0,0,0,0,431,
scooby_state_4268ae|61|1 431,0,0,0,0,0,0,0,0,0,0,0,0,0,0,431,
scooby_state_4268a7|62|1 427,0,1,0,0,1,0,0,0,1,0,0,0,1,0,431,
scooby_state_4268a7|61|1 431,0,0,0,0,0,0,0,0,0,0,0,0,0,0,431,
scooby_state_4268ae|1|1 431,0,0,0,0,0,0,0,0,0,0,0,0,0,0,431,
scooby_state_4268ae|59|1 430,0,0,0,0,0,0,0,0,0,1,0,0,0,0,431,
scooby_state_4268a7|59|1 431,0,0,0,0,0,0,0,0,0,0,0,0,0,0,431,
scooby_state_4268ae|0|0 429,1,0,0,0,1,0,0,0,0,0,0,0,0,0,431,
scooby_state_4268a7|46|1 430,0,0,0,0,0,0,0,0,0,0,0,0,0,0,430,
scooby_state_4268ae|46|1 429,0,0,0,0,0,0,0,0,0,0,0,1,0,0,430,
scooby_state_4268a7|17|1 430,0,0,0,0,0,0,0,0,0,0,0,0,0,0,430,
scooby_state_4268ae|42|1 430,0,0,0,0,0,0,0,0,0,0,0,0,0,0,430,
scooby_state_4268a7|16|1 430,0,0,0,0,0,0,0,0,0,0,0,0,0,0,430,
scooby_state_4268ae|51|1 429,1,0,0,0,0,0,0,0,0,0,0,0,0,0,430,
scooby_state_4268ae|5|1 428,0,1,0,1,0,0,0,0,0,0,0,0,0,0,430,
scooby_state_4268ae|23|1 429,0,0,0,0,0,0,0,0,0,0,1,0,0,0,430,
scooby_state_4268ae|31|1 430,0,0,0,0,0,0,0,0,0,0,0,0,0,0,430,
scooby_state_4268a7|42|1 429,0,0,0,0,0,0,0,0,0,0,0,0,0,1,430,
scooby_state_4268ae|57|1 428,1,0,0,0,0,0,0,0,0,0,0,0,0,1,430,
scooby_state_4268a7|47|1 429,0,0,0,0,1,0,0,0,0,0,0,0,0,0,430,
scooby_state_4268ae|50|1 430,0,0,0,0,0,0,0,0,0,0,0,0,0,0,430,
scooby_state_4268a7|7|1 429,0,0,0,0,1,0,0,0,0,0,0,0,0,0,430,
scooby_state_4268a7|8|1 429,0,0,0,1,0,0,0,0,0,0,0,0,0,0,430,
scooby_state_4268ae|30|1 430,0,0,0,0,0,0,0,0,0,0,0,0,0,0,430,
scooby_state_4268a7|41|1 430,0,0,0,0,0,0,0,0,0,0,0,0,0,0,430,
scooby_state_4268ae|36|1 429,0,0,0,0,0,0,0,0,1,0,0,0,0,0,430,
scooby_state_4268ae|52|1 428,1,0,0,1,0,0,0,0,0,0,0,0,0,0,430,
scooby_state_4268ae|9|1 430,0,0,0,0,0,0,0,0,0,0,0,0,0,0,430,
scooby_state_4268a7|31|1 428,1,0,0,0,0,0,0,0,0,1,0,0,0,0,430,
scooby_state_4268a7|1|1 429,0,0,0,0,0,0,0,0,0,1,0,0,0,0,430,
scooby_state_4268a7|29|1 429,1,0,0,0,0,0,0,0,0,0,0,0,0,0,430,
scooby_state_4268ae|54|1 430,0,0,0,0,0,0,0,0,0,0,0,0,0,0,430,
scooby_state_4268a7|20|1 430,0,0,0,0,0,0,0,0,0,0,0,0,0,0,430,
scooby_state_4268ae|55|1 429,0,0,0,0,0,0,0,1,0,0,0,0,0,0,430,
scooby_state_4268a7|40|1 430,0,0,0,0,0,0,0,0,0,0,0,0,0,0,430,
scooby_state_4268ae|53|1 429,0,0,0,0,0,0,0,0,0,0,0,1,0,0,430,
scooby_state_4268ae|14|1 427,1,1,0,0,0,0,0,0,0,0,0,1,0,0,430,
scooby_state_4268ae|47|1 430,0,0,0,0,0,0,0,0,0,0,0,0,0,0,430,
scooby_state_4268a7|36|1 430,0,0,0,0,0,0,0,0,0,0,0,0,0,0,430,
scooby_state_4268a7|12|1 430,0,0,0,0,0,0,0,0,0,0,0,0,0,0,430,
scooby_state_4268ae|35|1 428,0,0,0,1,0,0,1,0,0,0,0,0,0,0,430,
scooby_state_4268ae|38|1 430,0,0,0,0,0,0,0,0,0,0,0,0,0,0,430,
scooby_state_4268a7|55|1 430,0,0,0,0,0,0,0,0,0,0,0,0,0,0,430,
scooby_state_4268a7|34|1 429,0,0,0,0,0,0,0,0,0,0,1,0,0,0,430,
scooby_state_4268ae|19|1 430,0,0,0,0,0,0,0,0,0,0,0,0,0,0,430,
scooby_state_4268a7|33|1 429,0,0,0,0,0,0,1,0,0,0,0,0,0,0,430,
scooby_state_4268a7|4|1 428,0,0,1,0,0,0,0,0,0,0,0,1,0,0,430,
scooby_state_4268a7|38|1 429,0,0,1,0,0,0,0,0,0,0,0,0,0,0,430,
scooby_state_4268a7|58|1 428,0,0,0,1,1,0,0,0,0,0,0,0,0,0,430,
scooby_state_4268ae|22|1 430,0,0,0,0,0,0,0,0,0,0,0,0,0,0,430,
scooby_state_4268ae|20|1 430,0,0,0,0,0,0,0,0,0,0,0,0,0,0,430,
scooby_state_4268a7|19|1 430,0,0,0,0,0,0,0,0,0,0,0,0,0,0,430,
scooby_state_4268a7|6|1 430,0,0,0,0,0,0,0,0,0,0,0,0,0,0,430,
scooby_state_4268a7|2|1 430,0,0,0,0,0,0,0,0,0,0,0,0,0,0,430,
scooby_state_4268a7|25|1 429,0,0,0,0,0,0,0,0,0,1,0,0,0,0,430,
scooby_state_4268a7|13|1 429,0,0,0,0,0,0,0,0,0,0,0,0,0,1,430,
scooby_state_4268ae|48|1 430,0,0,0,0,0,0,0,0,0,0,0,0,0,0,430,
scooby_state_4268ae|26|1 430,0,0,0,0,0,0,0,0,0,0,0,0,0,0,430,
scooby_state_4268ae|32|1 430,0,0,0,0,0,0,0,0,0,0,0,0,0,0,430,
scooby_state_4268a7|48|1 429,0,0,0,0,0,1,0,0,0,0,0,0,0,0,430,
scooby_state_4268ae|58|1 430,0,0,0,0,0,0,0,0,0,0,0,0,0,0,430,
scooby_state_4268a7|39|1 429,0,0,0,0,0,0,0,0,0,0,1,0,0,0,430,
scooby_state_4268ae|17|1 429,0,1,0,0,0,0,0,0,0,0,0,0,0,0,430,
scooby_state_4268ae|24|1 430,0,0,0,0,0,0,0,0,0,0,0,0,0,0,430,
scooby_state_4268a7|45|1 429,0,0,0,0,1,0,0,0,0,0,0,0,0,0,430,
scooby_state_4268a7|49|1 428,0,0,0,0,0,1,0,0,0,0,1,0,0,0,430,
scooby_state_4268ae|44|1 429,0,0,0,0,0,1,0,0,0,0,0,0,0,0,430,
scooby_state_4268a7|51|1 429,0,0,0,0,0,0,0,1,0,0,0,0,0,0,430,
scooby_state_4268a7|57|1 429,0,0,0,0,0,0,0,0,1,0,0,0,0,0,430,
scooby_state_4268ae|7|1 430,0,0,0,0,0,0,0,0,0,0,0,0,0,0,430,
scooby_state_4268a7|44|1 430,0,0,0,0,0,0,0,0,0,0,0,0,0,0,430,
scooby_state_4268ae|29|1 430,0,0,0,0,0,0,0,0,0,0,0,0,0,0,430,
scooby_state_4268ae|43|1 429,0,0,0,1,0,0,0,0,0,0,0,0,0,0,430,
scooby_state_4268a7|53|1 430,0,0,0,0,0,0,0,0,0,0,0,0,0,0,430,
scooby_state_4268a7|32|1 430,0,0,0,0,0,0,0,0,0,0,0,0,0,0,430,
scooby_state_4268a7|54|1 428,0,0,0,0,0,0,1,0,0,0,0,1,0,0,430,
scooby_state_4268a7|26|1 429,0,0,0,0,0,1,0,0,0,0,0,0,0,0,430,
scooby_state_4268ae|28|1 428,2,0,0,0,0,0,0,0,0,0,0,0,0,0,430,
scooby_state_4268ae|8|1 430,0,0,0,0,0,0,0,0,0,0,0,0,0,0,430,
scooby_state_4268ae|16|1 430,0,0,0,0,0,0,0,0,0,0,0,0,0,0,430,
scooby_state_4268a7|22|1 430,0,0,0,0,0,0,0,0,0,0,0,0,0,0,430,
scooby_state_4268ae|39|1 430,0,0,0,0,0,0,0,0,0,0,0,0,0,0,430,
scooby_state_4268a7|3|1 429,0,0,0,0,0,0,0,0,0,0,0,0,1,0,430,
scooby_state_4268a7|43|1 430,0,0,0,0,0,0,0,0,0,0,0,0,0,0,430,
scooby_state_4268ae|34|1 428,0,0,0,1,0,0,0,1,0,0,0,0,0,0,430,
scooby_state_4268a7|37|1 430,0,0,0,0,0,0,0,0,0,0,0,0,0,0,430,
scooby_state_4268a7|56|1 427,0,0,0,1,0,1,0,0,0,0,1,0,0,0,430,
scooby_state_4268a7|23|1 430,0,0,0,0,0,0,0,0,0,0,0,0,0,0,430,
scooby_state_4268a7|9|1 430,0,0,0,0,0,0,0,0,0,0,0,0,0,0,430,
scooby_state_4268ae|25|1 430,0,0,0,0,0,0,0,0,0,0,0,0,0,0,430,
scooby_state_4268a7|27|1 430,0,0,0,0,0,0,0,0,0,0,0,0,0,0,430,
scooby_state_4268a7|18|1 430,0,0,0,0,0,0,0,0,0,0,0,0,0,0,430,
scooby_state_4268ae|45|1 430,0,0,0,0,0,0,0,0,0,0,0,0,0,0,430,
scooby_state_4268ae|33|1 430,0,0,0,0,0,0,0,0,0,0,0,0,0,0,430,
scooby_state_4268a7|50|1 430,0,0,0,0,0,0,0,0,0,0,0,0,0,0,430,
scooby_state_4268ae|21|1 427,1,0,0,0,1,0,0,0,1,0,0,0,0,0,430,
scooby_state_4268ae|3|1 430,0,0,0,0,0,0,0,0,0,0,0,0,0,0,430,
scooby_state_4268a7|15|1 429,0,0,0,0,0,0,0,0,0,0,1,0,0,0,430,
scooby_state_4268ae|49|1 430,0,0,0,0,0,0,0,0,0,0,0,0,0,0,430,
scooby_state_4268a7|28|1 430,0,0,0,0,0,0,0,0,0,0,0,0,0,0,430,
scooby_state_4268ae|41|1 429,0,0,0,0,0,0,0,1,0,0,0,0,0,0,430,
scooby_state_4268a7|21|1 428,0,0,0,0,1,0,0,0,0,0,0,0,0,1,430,
scooby_state_4268ae|27|1 430,0,0,0,0,0,0,0,0,0,0,0,0,0,0,430,
scooby_state_4268a7|24|1 430,0,0,0,0,0,0,0,0,0,0,0,0,0,0,430,
scooby_state_4268ae|6|1 429,1,0,0,0,0,0,0,0,0,0,0,0,0,0,430,
scooby_state_4268ae|13|1 430,0,0,0,0,0,0,0,0,0,0,0,0,0,0,430,
scooby_state_4268a7|5|1 429,0,0,0,0,0,0,0,1,0,0,0,0,0,0,430,
scooby_state_4268ae|56|1 430,0,0,0,0,0,0,0,0,0,0,0,0,0,0,430,
scooby_state_4268ae|2|1 429,0,0,0,0,0,0,0,0,0,0,0,1,0,0,430,
scooby_state_4268ae|40|1 429,1,0,0,0,0,0,0,0,0,0,0,0,0,0,430,
scooby_state_4268a7|14|1 430,0,0,0,0,0,0,0,0,0,0,0,0,0,0,430,
scooby_state_4268a7|30|1 430,0,0,0,0,0,0,0,0,0,0,0,0,0,0,430,
scooby_state_4268a7|35|1 429,0,0,0,0,0,1,0,0,0,0,0,0,0,0,430,
scooby_state_4268ae|15|1 429,1,0,0,0,0,0,0,0,0,0,0,0,0,0,430,
scooby_state_4268ae|37|1 430,0,0,0,0,0,0,0,0,0,0,0,0,0,0,430,
scooby_state_4268a7|52|1 430,0,0,0,0,0,0,0,0,0,0,0,0,0,0,430,
scooby_state_4268ae|4|1 428,0,0,1,0,0,0,0,0,1,0,0,0,0,0,430,
scooby_state_4268ae|18|1 429,0,0,0,0,0,0,1,0,0,0,0,0,0,0,430,
scooby_state_407cae|45|1 428,0,0,1,0,0,0,0,0,0,0,0,0,0,0,429,
scooby_state_4268a7|11|1 428,0,0,0,0,0,0,1,0,0,0,0,0,0,0,429,
scooby_state_4268ae|12|1 426,1,0,0,0,0,0,1,1,0,0,0,0,0,0,429,
scooby_state_407cb3|45|1 427,0,0,0,0,0,0,1,1,0,0,0,0,0,0,429,
scooby_state_4268a7|10|1 428,0,0,0,1,0,0,0,0,0,0,0,0,0,0,429,
scooby_state_407cb3|27|1 425,0,0,0,1,0,0,0,0,0,0,0,0,1,0,427,
scooby_state_407cae|27|1 426,0,0,0,0,0,1,0,0,0,0,0,0,0,0,427,
scooby_state_407cb3|52|1 423,0,0,0,0,1,0,0,1,0,0,0,0,0,0,425,
scooby_state_407cae|23|1 424,0,0,1,0,0,0,0,0,0,0,0,0,0,0,425,
scooby_state_407cb3|23|1 425,0,0,0,0,0,0,0,0,0,0,0,0,0,0,425,
scooby_state_407cae|52|1 425,0,0,0,0,0,0,0,0,0,0,0,0,0,0,425,
scooby_state_407cae|10|1 422,0,0,0,1,1,0,0,0,1,0,0,0,0,0,425,
scooby_state_407cb3|6|1 423,0,1,0,0,0,0,0,0,0,0,0,0,0,0,424,
scooby_state_407cae|6|1 424,0,0,0,0,0,0,0,0,0,0,0,0,0,0,424,
scooby_state_407cae|50|1 420,0,0,1,0,0,0,0,0,1,0,0,0,0,0,422,
scooby_state_407cae|12|1 422,0,0,0,0,0,0,0,0,0,0,0,0,0,0,422,
scooby_state_407cb3|10|1 420,0,0,0,0,1,1,0,0,0,0,0,0,0,0,422,
scooby_state_407cb3|48|1 420,0,0,0,0,0,0,0,0,0,0,0,0,0,0,420,
scooby_state_407cae|48|1 420,0,0,0,0,0,0,0,0,0,0,0,0,0,0,420,
scooby_state_407cb3|12|1 420,0,0,0,0,0,0,0,0,0,0,0,0,0,0,420,
scooby_state_407cb3|50|1 419,0,0,0,0,0,0,0,0,0,0,0,0,0,0,419,
scooby_state_407cb3|33|1 416,0,0,0,1,0,0,0,0,0,0,0,0,0,0,417,
scooby_state_407cae|33|1 417,0,0,0,0,0,0,0,0,0,0,0,0,0,0,417,
scooby_state_407cae|21|1 415,0,0,0,0,0,0,0,0,0,0,0,0,0,0,415,
scooby_state_407cb3|21|1 414,0,0,0,0,0,0,0,0,0,0,0,0,0,0,414,
scooby_state_407cb3|17|1 412,0,0,0,0,0,0,1,0,0,0,0,0,0,0,413,
scooby_state_407cae|17|1 412,1,0,0,0,0,0,0,0,0,0,0,0,0,0,413,
scooby_state_4268ae|10|1 412,0,0,0,0,0,0,0,0,0,0,0,0,0,0,412,
scooby_state_407cb3|18|1 411,0,0,0,0,0,0,0,0,0,0,0,0,0,0,411,
scooby_state_4268ae|11|1 411,0,0,0,0,0,0,0,0,0,0,0,0,0,0,411,
scooby_state_407cae|18|1 411,0,0,0,0,0,0,0,0,0,0,0,0,0,0,411,
scooby_state_407cb3|41|1 406,0,1,1,0,0,1,0,0,0,0,0,0,0,1,410,
scooby_state_407cae|13|1 410,0,0,0,0,0,0,0,0,0,0,0,0,0,0,410,
scooby_state_407cae|41|1 410,0,0,0,0,0,0,0,0,0,0,0,0,0,0,410,
scooby_state_407cb3|13|1 406,0,0,0,0,0,0,0,1,0,0,0,0,0,1,408,
scooby_state_407cb3|47|1 408,0,0,0,0,0,0,0,0,0,0,0,0,0,0,408,
scooby_state_407cae|47|1 408,0,0,0,0,0,0,0,0,0,0,0,0,0,0,408,
scooby_state_407cae|4|1 405,0,0,0,0,0,0,0,0,0,0,1,0,0,0,406,
scooby_state_407cb3|4|1 405,0,0,0,0,1,0,0,0,0,0,0,0,0,0,406,
scooby_state_407cb3|49|1 400,0,0,1,0,0,0,0,0,1,0,0,0,0,0,402,
scooby_state_407cae|49|1 402,0,0,0,0,0,0,0,0,0,0,0,0,0,0,402,
scooby_state_407cb3|28|1 401,0,0,0,0,0,0,0,0,0,0,0,0,0,0,401,
scooby_state_407cb3|26|1 401,0,0,0,0,0,0,0,0,0,0,0,0,0,0,401,
scooby_state_407cae|26|1 401,0,0,0,0,0,0,0,0,0,0,0,0,0,0,401,
scooby_state_407cae|28|1 401,0,0,0,0,0,0,0,0,0,0,0,0,0,0,401,
scooby_state_407cae|61|1 395,0,0,0,1,0,0,0,0,0,0,0,0,0,0,396,
scooby_state_407cb3|61|1 395,0,0,0,0,0,1,0,0,0,0,0,0,0,0,396,
scooby_state_407cb3|46|1 393,0,1,0,0,0,0,1,0,0,0,0,0,0,0,395,
scooby_state_407cae|46|1 394,0,0,0,0,0,1,0,0,0,0,0,0,0,0,395,
scooby_state_407cae|53|1 393,0,0,0,0,1,0,0,0,0,0,0,0,0,0,394,
scooby_state_407cb3|53|1 393,0,0,0,1,0,0,0,0,0,0,0,0,0,0,394,
scooby_state_407cb3|43|1 389,0,0,0,1,0,0,0,0,0,0,0,0,0,0,390,
scooby_state_407cae|43|1 390,0,0,0,0,0,0,0,0,0,0,0,0,0,0,390,
scooby_state_407cb3|1|1 390,0,0,0,0,0,0,0,0,0,0,0,0,0,0,390,
scooby_state_407cae|1|1 390,0,0,0,0,0,0,0,0,0,0,0,0,0,0,390,
scooby_state_407cb3|24|1 389,0,0,0,0,0,0,0,0,0,0,0,0,0,0,389,
scooby_state_407cae|24|1 386,0,0,0,0,0,1,0,1,0,0,1,0,0,0,389,
scooby_state_407cae|5|1 385,0,0,1,0,0,0,0,0,0,0,0,0,0,0,386,
scooby_state_407cb3|5|1 386,0,0,0,0,0,0,0,0,0,0,0,0,0,0,386,
scooby_state_407cae|14|1 384,0,0,0,1,0,0,0,0,0,0,0,0,0,0,385,
scooby_state_407cb3|14|1 385,0,0,0,0,0,0,0,0,0,0,0,0,0,0,385,
scooby_state_407cb3|42|1 383,0,0,0,0,0,0,0,0,0,0,0,0,0,0,383,
scooby_state_407cae|42|1 382,0,0,0,0,0,0,0,0,0,0,0,0,0,1,383,
scooby_state_407cae|20|1 382,0,0,0,0,0,0,0,0,0,0,0,0,0,0,382,
scooby_state_407cae|16|1 381,0,0,0,0,0,0,0,0,1,0,0,0,0,0,382,
scooby_state_407cb3|16|1 380,0,1,0,0,0,0,0,0,0,0,0,1,0,0,382,
scooby_state_407cae|32|1 381,0,0,0,0,0,0,0,0,0,0,0,0,0,0,381,
scooby_state_407cb3|25|1 381,0,0,0,0,0,0,0,0,0,0,0,0,0,0,381,
scooby_state_407cb3|32|1 379,0,0,0,0,0,1,0,0,0,0,0,1,0,0,381,
scooby_state_407cae|25|1 381,0,0,0,0,0,0,0,0,0,0,0,0,0,0,381,
scooby_state_407cb3|20|1 381,0,0,0,0,0,0,0,0,0,0,0,0,0,0,381,
scooby_state_407cb3|36|1 380,0,0,0,0,0,0,0,0,0,0,0,0,0,0,380,
scooby_state_407cae|63|1 379,0,0,0,0,0,0,0,0,0,0,0,1,0,0,380,
scooby_state_407cb3|63|1 379,0,0,0,0,0,0,0,1,0,0,0,0,0,0,380,
scooby_state_407cae|36|1 380,0,0,0,0,0,0,0,0,0,0,0,0,0,0,380,
scooby_state_407cae|11|1 374,0,0,0,0,0,0,1,0,0,0,0,0,0,0,375,
scooby_state_407cae|62|1 375,0,0,0,0,0,0,0,0,0,0,0,0,0,0,375,
scooby_state_407cb3|11|1 374,0,0,0,0,0,0,0,1,0,0,0,0,0,0,375,
scooby_state_407cb3|62|1 375,0,0,0,0,0,0,0,0,0,0,0,0,0,0,375,
scooby_state_407cae|40|1 366,0,0,0,0,0,0,0,0,0,0,0,0,0,0,366,
scooby_state_407cb3|40|1 366,0,0,0,0,0,0,0,0,0,0,0,0,0,0,366,
scooby_state_407cae|38|1 361,0,0,1,1,0,0,0,0,0,0,0,0,0,0,363,
scooby_state_407cb3|38|1 362,0,0,0,0,0,0,0,1,0,0,0,0,0,0,363,
scooby_state_407cb3|35|1 358,0,1,0,0,0,0,0,0,0,0,1,0,0,0,360,
scooby_state_407cae|35|1 359,0,0,1,0,0,0,0,0,0,0,0,0,0,0,360,
scooby_state_407d8e|2|1 357,0,0,0,0,0,0,0,0,0,0,0,0,0,0,357,
scooby_state_407db7|2|1 357,0,0,0,0,0,0,0,0,0,0,0,0,0,0,357,
scooby_state_407d8e|1|1 355,1,0,0,0,0,0,0,0,0,0,1,0,0,0,357,
scooby_state_407db7|1|1 357,0,0,0,0,0,0,0,0,0,0,0,0,0,0,357,
scooby_state_407cae|37|1 353,0,0,0,0,0,0,0,0,0,0,0,0,0,0,353,
scooby_state_407cb3|37|1 353,0,0,0,0,0,0,0,0,0,0,0,0,0,0,353,
scooby_state_407cae|31|1 349,0,0,0,0,0,0,0,0,0,0,0,0,0,0,349,
scooby_state_407cb3|31|1 348,0,0,0,0,0,0,0,0,0,0,1,0,0,0,349,
scooby_state_407cae|34|1 345,0,1,0,0,0,0,0,0,0,0,0,0,0,0,346,
scooby_state_407cb3|39|1 346,0,0,0,0,0,0,0,0,0,0,0,0,0,0,346,
scooby_state_407cae|39|1 344,0,0,1,0,0,0,0,1,0,0,0,0,0,0,346,
scooby_state_407cb3|34|1 346,0,0,0,0,0,0,0,0,0,0,0,0,0,0,346,
scooby_state_407cae|15|1 344,0,0,0,0,1,0,0,0,0,0,0,0,0,0,345,
scooby_state_407cb3|15|1 345,0,0,0,0,0,0,0,0,0,0,0,0,0,0,345,
scooby_state_407cb3|19|1 333,0,0,0,0,0,0,0,0,0,0,0,0,0,0,333,
scooby_state_407cae|19|1 331,0,1,0,0,0,0,0,0,0,0,1,0,0,0,333,
scooby_state_407d8e|52|3 322,0,0,0,0,1,0,0,0,0,0,0,0,0,0,323,
scooby_state_407d8e|31|3 322,0,0,0,0,0,0,1,0,0,0,0,0,0,0,323,
scooby_state_407d8e|41|3 322,0,0,0,0,0,0,0,0,0,0,0,0,0,1,323,
scooby_state_407d8e|55|3 323,0,0,0,0,0,0,0,0,0,0,0,0,0,0,323,
scooby_state_407d8e|51|3 323,0,0,0,0,0,0,0,0,0,0,0,0,0,0,323,
scooby_state_407d8e|56|3 323,0,0,0,0,0,0,0,0,0,0,0,0,0,0,323,
scooby_state_407d8e|36|3 323,0,0,0,0,0,0,0,0,0,0,0,0,0,0,323,
scooby_state_407d8e|27|3 322,0,0,0,0,0,0,0,0,0,0,0,0,0,0,322,
scooby_state_407d8e|61|3 321,0,0,0,0,0,0,0,0,0,0,1,0,0,0,322,
scooby_state_407d8e|26|3 322,0,0,0,0,0,0,0,0,0,0,0,0,0,0,322,
scooby_state_407d8e|16|3 305,0,0,0,0,0,0,0,0,1,0,0,0,0,0,306,
scooby_state_407d8e|13|3 305,0,0,0,0,0,0,0,0,0,0,0,0,0,1,306,
scooby_state_407d8e|12|3 304,0,1,0,0,0,0,1,0,0,0,0,0,0,0,306,
scooby_state_407d8e|7|3 306,0,0,0,0,0,0,0,0,0,0,0,0,0,0,306,
scooby_state_407d8e|22|3 306,0,0,0,0,0,0,0,0,0,0,0,0,0,0,306,
scooby_state_407d8e|23|3 306,0,0,0,0,0,0,0,0,0,0,0,0,0,0,306,
scooby_state_407d8e|46|3 306,0,0,0,0,0,0,0,0,0,0,0,0,0,0,306,
scooby_state_407d8e|18|3 306,0,0,0,0,0,0,0,0,0,0,0,0,0,0,306,
scooby_state_407d8e|38|3 306,0,0,0,0,0,0,0,0,0,0,0,0,0,0,306,
scooby_state_407d8e|28|3 306,0,0,0,0,0,0,0,0,0,0,0,0,0,0,306,
scooby_state_407d8e|32|3 305,0,0,0,0,1,0,0,0,0,0,0,0,0,0,306,
scooby_state_407d8e|4|3 306,0,0,0,0,0,0,0,0,0,0,0,0,0,0,306,
scooby_state_407d8e|21|3 305,0,0,0,0,0,0,1,0,0,0,0,0,0,0,306,
scooby_state_407d8e|43|3 305,0,0,0,0,0,0,0,0,0,0,1,0,0,0,306,
scooby_state_407d8e|17|3 306,0,0,0,0,0,0,0,0,0,0,0,0,0,0,306,
scooby_state_407d8e|57|3 305,0,0,0,1,0,0,0,0,0,0,0,0,0,0,306,
scooby_state_407d8e|33|3 306,0,0,0,0,0,0,0,0,0,0,0,0,0,0,306,
scooby_state_407d8e|29|3 304,0,0,0,0,0,0,0,1,0,0,0,0,0,0,305,
scooby_state_407d8e|3|3 304,0,0,0,0,0,0,0,0,1,0,0,0,0,0,305,
scooby_state_407d8e|30|3 305,0,0,0,0,0,0,0,0,0,0,0,0,0,0,305,
scooby_state_407d8e|40|3 289,0,0,0,0,0,0,0,0,0,0,0,0,0,0,289,
scooby_state_407d8e|9|3 288,0,0,0,0,0,1,0,0,0,0,0,0,0,0,289,
scooby_state_407d8e|59|3 288,0,0,0,0,0,0,0,0,0,0,0,0,1,0,289,
scooby_state_407d8e|11|3 288,0,0,0,0,0,0,0,0,0,0,0,0,1,0,289,
scooby_state_407d8e|63|3 289,0,0,0,0,0,0,0,0,0,0,0,0,0,0,289,
scooby_state_407d8e|15|3 289,0,0,0,0,0,0,0,0,0,0,0,0,0,0,289,
scooby_state_407d8e|54|3 289,0,0,0,0,0,0,0,0,0,0,0,0,0,0,289,
scooby_state_407d8e|19|3 288,0,0,0,0,0,1,0,0,0,0,0,0,0,0,289,
scooby_state_407d8e|35|3 289,0,0,0,0,0,0,0,0,0,0,0,0,0,0,289,
scooby_state_407d8e|47|3 289,0,0,0,0,0,0,0,0,0,0,0,0,0,0,289,
scooby_state_407d8e|48|3 289,0,0,0,0,0,0,0,0,0,0,0,0,0,0,289,
scooby_state_407d8e|14|3 289,0,0,0,0,0,0,0,0,0,0,0,0,0,0,289,
scooby_state_407d8e|25|3 289,0,0,0,0,0,0,0,0,0,0,0,0,0,0,289,
scooby_state_407d8e|50|3 289,0,0,0,0,0,0,0,0,0,0,0,0,0,0,289,
scooby_state_407d8e|24|3 289,0,0,0,0,0,0,0,0,0,0,0,0,0,0,289,
scooby_state_407d8e|34|3 288,0,0,1,0,0,0,0,0,0,0,0,0,0,0,289,
scooby_state_407d8e|53|3 289,0,0,0,0,0,0,0,0,0,0,0,0,0,0,289,
scooby_state_407d8e|62|3 289,0,0,0,0,0,0,0,0,0,0,0,0,0,0,289,
scooby_state_407d8e|20|3 289,0,0,0,0,0,0,0,0,0,0,0,0,0,0,289,
scooby_state_407d8e|45|3 289,0,0,0,0,0,0,0,0,0,0,0,0,0,0,289,
scooby_state_407d8e|42|3 289,0,0,0,0,0,0,0,0,0,0,0,0,0,0,289,
scooby_state_407d8e|37|3 289,0,0,0,0,0,0,0,0,0,0,0,0,0,0,289,
scooby_state_407d8e|39|3 289,0,0,0,0,0,0,0,0,0,0,0,0,0,0,289,
scooby_state_407d8e|58|3 288,0,0,0,0,0,0,0,0,0,0,1,0,0,0,289,
scooby_state_407d8e|6|3 287,0,0,1,0,0,1,0,0,0,0,0,0,0,0,289,
scooby_state_407db7|31|3 289,0,0,0,0,0,0,0,0,0,0,0,0,0,0,289,
scooby_state_407d8e|5|3 289,0,0,0,0,0,0,0,0,0,0,0,0,0,0,289,
scooby_state_407d8e|44|3 288,0,0,0,0,0,0,0,0,1,0,0,0,0,0,289,
scooby_state_407d8e|8|3 289,0,0,0,0,0,0,0,0,0,0,0,0,0,0,289,
scooby_state_407db7|56|3 288,0,0,0,0,0,0,0,0,0,0,0,0,0,0,288,
scooby_state_407db7|41|3 288,0,0,0,0,0,0,0,0,0,0,0,0,0,0,288,
scooby_state_407d8e|60|3 288,0,0,0,0,0,0,0,0,0,0,0,0,0,0,288,
scooby_state_407db7|36|3 284,0,0,0,0,0,0,0,0,0,0,0,0,1,0,285,
scooby_state_407db7|61|3 285,0,0,0,0,0,0,0,0,0,0,0,0,0,0,285,
scooby_state_407cae|30|1 281,0,0,0,0,0,0,0,0,0,0,0,0,0,0,281,
scooby_state_407cb3|30|1 281,0,0,0,0,0,0,0,0,0,0,0,0,0,0,281,
scooby_state_407cb3|29|1 277,0,1,0,0,0,0,0,0,0,1,0,0,0,0,279,
scooby_state_407cae|29|1 278,0,0,0,0,0,0,0,0,0,1,0,0,0,0,279,
scooby_state_407db7|55|3 271,0,0,0,0,0,0,0,0,0,1,0,0,0,0,272,
scooby_state_407db7|17|3 272,0,0,0,0,0,0,0,0,0,0,0,0,0,0,272,
scooby_state_407d8e|10|3 272,0,0,0,0,0,0,0,0,0,0,0,0,0,0,272,
scooby_state_407d8e|49|3 271,0,0,0,1,0,0,0,0,0,0,0,0,0,0,272,
scooby_state_407db7|27|3 271,0,0,0,0,0,0,0,0,0,0,1,0,0,0,272,
scooby_state_407db7|4|3 271,0,0,0,0,0,0,0,0,0,0,0,0,0,0,271,
scooby_state_407db7|38|3 269,0,0,0,0,0,1,0,0,0,0,0,0,1,0,271,
scooby_state_407db7|7|3 271,0,0,0,0,0,0,0,0,0,0,0,0,0,0,271,
scooby_state_407db7|51|3 271,0,0,0,0,0,0,0,0,0,0,0,0,0,0,271,
scooby_state_407db7|26|3 271,0,0,0,0,0,0,0,0,0,0,0,0,0,0,271,
scooby_state_407db7|50|3 271,0,0,0,0,0,0,0,0,0,0,0,0,0,0,271,
scooby_state_407db7|43|3 271,0,0,0,0,0,0,0,0,0,0,0,0,0,0,271,
scooby_state_407db7|57|3 270,0,0,0,0,0,0,0,0,0,1,0,0,0,0,271,
scooby_state_407db7|46|3 271,0,0,0,0,0,0,0,0,0,0,0,0,0,0,271,
scooby_state_407db7|32|3 269,0,0,0,0,0,0,1,0,0,0,0,0,0,0,270,
scooby_state_407db7|52|3 270,0,0,0,0,0,0,0,0,0,0,0,0,0,0,270,
scooby_state_407db7|21|3 270,0,0,0,0,0,0,0,0,0,0,0,0,0,0,270,
scooby_state_407db7|18|3 268,0,0,0,0,0,0,0,1,0,0,0,0,0,1,270,
scooby_state_407db7|28|3 270,0,0,0,0,0,0,0,0,0,0,0,0,0,0,270,
scooby_state_407db7|22|3 269,0,0,0,0,0,0,0,0,0,0,0,0,0,0,269,
scooby_state_407db7|23|3 269,0,0,0,0,0,0,0,0,0,0,0,0,0,0,269,
scooby_state_407db7|33|3 269,0,0,0,0,0,0,0,0,0,0,0,0,0,0,269,
scooby_state_407d96|49|-2 0,0,0,255,0,0,0,0,0,0,0,0,0,0,0,255,
scooby_state_407db7|30|3 255,0,0,0,0,0,0,0,0,0,0,0,0,0,0,255,
scooby_state_407db7|5|3 255,0,0,0,0,0,0,0,0,0,0,0,0,0,0,255,
scooby_state_407db7|6|3 255,0,0,0,0,0,0,0,0,0,0,0,0,0,0,255,
scooby_state_407db7|39|3 254,0,0,0,0,0,0,0,0,0,0,0,0,0,0,254,
scooby_state_407db7|63|3 254,0,0,0,0,0,0,0,0,0,0,0,0,0,0,254,
scooby_state_407db7|24|3 253,0,0,0,0,0,0,0,0,0,0,0,0,1,0,254,
scooby_state_407db7|3|3 254,0,0,0,0,0,0,0,0,0,0,0,0,0,0,254,
scooby_state_407db7|44|3 254,0,0,0,0,0,0,0,0,0,0,0,0,0,0,254,
scooby_state_407db7|42|3 254,0,0,0,0,0,0,0,0,0,0,0,0,0,0,254,
scooby_state_407db7|16|3 252,0,0,1,1,0,0,0,0,0,0,0,0,0,0,254,
scooby_state_407db7|60|3 253,1,0,0,0,0,0,0,0,0,0,0,0,0,0,254,
scooby_state_407db7|14|3 252,0,0,0,0,0,0,0,1,0,0,0,0,0,0,253,
scooby_state_407db7|34|3 251,0,0,0,0,0,0,0,0,1,0,1,0,0,0,253,
scooby_state_407db7|40|3 253,0,0,0,0,0,0,0,0,0,0,0,0,0,0,253,
scooby_state_407db7|47|3 253,0,0,0,0,0,0,0,0,0,0,0,0,0,0,253,
scooby_state_407db7|29|3 253,0,0,0,0,0,0,0,0,0,0,0,0,0,0,253,
scooby_state_407db7|45|3 253,0,0,0,0,0,0,0,0,0,0,0,0,0,0,253,
scooby_state_407db7|37|3 252,0,0,0,0,0,0,0,1,0,0,0,0,0,0,253,
scooby_state_407db7|25|3 253,0,0,0,0,0,0,0,0,0,0,0,0,0,0,253,
scooby_state_407db7|11|3 253,0,0,0,0,0,0,0,0,0,0,0,0,0,0,253,
scooby_state_407db7|48|3 252,0,0,0,0,0,0,0,0,0,0,1,0,0,0,253,
scooby_state_407db7|8|3 253,0,0,0,0,0,0,0,0,0,0,0,0,0,0,253,
scooby_state_407db7|19|3 251,0,0,0,0,0,1,0,0,0,0,1,0,0,0,253,
scooby_state_407db7|20|3 253,0,0,0,0,0,0,0,0,0,0,0,0,0,0,253,
scooby_state_407db7|53|3 252,0,0,0,0,0,0,0,0,0,0,0,0,0,0,252,
scooby_state_407db7|12|3 252,0,0,0,0,0,0,0,0,0,0,0,0,0,0,252,
scooby_state_407db7|59|3 252,0,0,0,0,0,0,0,0,0,0,0,0,0,0,252,
scooby_state_407db7|58|3 252,0,0,0,0,0,0,0,0,0,0,0,0,0,0,252,
scooby_state_407db7|9|3 252,0,0,0,0,0,0,0,0,0,0,0,0,0,0,252,
scooby_state_407db7|35|3 251,0,0,0,0,0,0,0,0,0,0,0,0,0,0,251,
scooby_state_407db7|62|3 251,0,0,0,0,0,0,0,0,0,0,0,0,0,0,251,
scooby_state_407db7|13|3 249,0,0,0,0,0,0,0,0,0,0,1,0,0,0,250,
scooby_state_407d96|15|-2 0,0,0,235,0,0,0,0,0,0,0,0,1,0,2,238,
scooby_state_407d96|20|-2 0,0,0,238,0,0,0,0,0,0,0,0,0,0,0,238,
scooby_state_407d96|18|-2 0,0,0,238,0,0,0,0,0,0,0,0,0,0,0,238,
scooby_state_407d96|25|-2 0,0,0,238,0,0,0,0,0,0,0,0,0,0,0,238,
scooby_state_407d96|53|-2 0,0,0,238,0,0,0,0,0,0,0,0,0,0,0,238,
scooby_state_407d96|10|-2 0,0,0,238,0,0,0,0,0,0,0,0,0,0,0,238,
scooby_state_407d96|23|-2 0,1,0,237,0,0,0,0,0,0,0,0,0,0,0,238,
scooby_state_407d86|63|1 238,0,0,0,0,0,0,0,0,0,0,0,0,0,0,238,
scooby_state_407d96|29|-2 0,0,0,238,0,0,0,0,0,0,0,0,0,0,0,238,
scooby_state_407d96|54|-2 0,0,0,238,0,0,0,0,0,0,0,0,0,0,0,238,
scooby_state_407d96|40|-2 0,0,0,238,0,0,0,0,0,0,0,0,0,0,0,238,
scooby_state_407d96|30|-2 0,0,0,238,0,0,0,0,0,0,0,0,0,0,0,238,
scooby_state_407d96|43|-2 0,0,0,237,0,0,0,1,0,0,0,0,0,0,0,238,
scooby_state_407d96|33|-2 0,0,0,238,0,0,0,0,0,0,0,0,0,0,0,238,
scooby_state_407d96|35|-2 0,0,0,238,0,0,0,0,0,0,0,0,0,0,0,238,
scooby_state_407d96|13|-2 0,0,0,238,0,0,0,0,0,0,0,0,0,0,0,238,
scooby_state_407d96|38|-2 0,0,0,238,0,0,0,0,0,0,0,0,0,0,0,238,
scooby_state_407d96|52|-2 0,0,0,238,0,0,0,0,0,0,0,0,0,0,0,238,
scooby_state_407d96|28|-2 0,0,0,237,0,1,0,0,0,0,0,0,0,0,0,238,
scooby_state_407d96|4|-2 0,0,0,237,0,1,0,0,0,0,0,0,0,0,0,238,
scooby_state_407d96|63|1 1,0,0,237,0,0,0,0,0,0,0,0,0,0,0,238,
scooby_state_407d96|58|-2 0,0,0,237,0,0,0,0,0,0,0,0,0,0,0,237,
scooby_state_407db7|49|3 236,0,0,0,0,0,0,0,0,0,0,0,1,0,0,237,
scooby_state_407d96|24|-2 1,0,1,235,0,0,0,0,0,0,0,0,0,0,0,237,
scooby_state_407db7|15|3 237,0,0,0,0,0,0,0,0,0,0,0,0,0,0,237,
scooby_state_407d96|1|-2 0,0,0,237,0,0,0,0,0,0,0,0,0,0,0,237,
scooby_state_407d96|0|-2 0,0,0,236,0,0,0,0,0,0,0,1,0,0,0,237,
scooby_state_407db7|54|3 234,0,1,0,0,0,0,0,0,0,1,0,0,0,0,236,
scooby_state_4268c5|20|1 235,0,0,0,0,0,0,0,0,0,0,0,0,0,0,235,
scooby_state_4268c5|5|1 235,0,0,0,0,0,0,0,0,0,0,0,0,0,0,235,
scooby_state_4268c5|52|1 235,0,0,0,0,0,0,0,0,0,0,0,0,0,0,235,
scooby_state_4268c5|13|1 235,0,0,0,0,0,0,0,0,0,0,0,0,0,0,235,
scooby_state_4268c5|21|1 234,0,0,0,0,0,0,0,1,0,0,0,0,0,0,235,
scooby_state_4268c5|37|1 234,0,0,0,0,0,0,0,0,0,0,0,0,1,0,235,
scooby_state_4268c5|45|1 235,0,0,0,0,0,0,0,0,0,0,0,0,0,0,235,
scooby_state_4268c5|53|1 235,0,0,0,0,0,0,0,0,0,0,0,0,0,0,235,
scooby_state_4268c5|63|1 234,0,0,0,0,0,0,0,0,0,0,0,0,0,0,234,
scooby_state_407db7|10|3 233,0,0,0,0,0,0,0,0,1,0,0,0,0,0,234,
scooby_state_4268c5|31|1 234,0,0,0,0,0,0,0,0,0,0,0,0,0,0,234,
scooby_state_4268c5|51|1 232,0,0,0,0,0,0,0,0,0,0,0,0,0,0,232,
scooby_state_4268c5|15|1 231,0,0,0,0,0,0,0,0,0,0,0,0,0,0,231,
scooby_state_4268c5|46|1 231,0,0,0,0,0,0,0,0,0,0,0,0,0,0,231,
scooby_state_4268c5|16|1 231,0,0,0,0,0,0,0,0,0,0,0,0,0,0,231,
scooby_state_4268c5|36|1 231,0,0,0,0,0,0,0,0,0,0,0,0,0,0,231,
scooby_state_4268c5|61|1 230,0,0,0,0,0,0,1,0,0,0,0,0,0,0,231,
scooby_state_4268c5|8|1 231,0,0,0,0,0,0,0,0,0,0,0,0,0,0,231,
scooby_state_4268c5|62|1 231,0,0,0,0,0,0,0,0,0,0,0,0,0,0,231,
scooby_state_4268c5|19|1 230,0,0,0,0,1,0,0,0,0,0,0,0,0,0,231,
scooby_state_4268c5|33|1 231,0,0,0,0,0,0,0,0,0,0,0,0,0,0,231,
scooby_state_4268c5|23|1 231,0,0,0,0,0,0,0,0,0,0,0,0,0,0,231,
scooby_state_4268c5|14|1 231,0,0,0,0,0,0,0,0,0,0,0,0,0,0,231,
scooby_state_4268c5|39|1 229,1,0,0,0,0,0,0,0,1,0,0,0,0,0,231,
scooby_state_4268c5|55|1 231,0,0,0,0,0,0,0,0,0,0,0,0,0,0,231,
scooby_state_4268c5|30|1 230,0,0,0,0,1,0,0,0,0,0,0,0,0,0,231,
scooby_state_4268c5|35|1 231,0,0,0,0,0,0,0,0,0,0,0,0,0,0,231,
scooby_state_4268c5|40|1 231,0,0,0,0,0,0,0,0,0,0,0,0,0,0,231,
scooby_state_4268c5|4|1 231,0,0,0,0,0,0,0,0,0,0,0,0,0,0,231,
scooby_state_4268c5|29|1 230,0,0,0,0,0,0,0,0,0,1,0,0,0,0,231,
scooby_state_4268c5|24|1 229,0,0,0,0,0,0,0,0,0,0,1,0,0,1,231,
scooby_state_4268c5|3|1 231,0,0,0,0,0,0,0,0,0,0,0,0,0,0,231,
scooby_state_4268c5|34|1 230,0,0,0,0,0,0,0,1,0,0,0,0,0,0,231,
scooby_state_4268c5|2|1 230,0,0,1,0,0,0,0,0,0,0,0,0,0,0,231,
scooby_state_4268c5|7|1 229,0,0,0,0,0,0,0,0,0,0,0,0,0,1,230,
scooby_state_4268c5|0|0 230,0,0,0,0,0,0,0,0,0,0,0,0,0,0,230,
scooby_state_4268c5|56|1 230,0,0,0,0,0,0,0,0,0,0,0,0,0,0,230,
scooby_state_4268c5|48|1 230,0,0,0,0,0,0,0,0,0,0,0,0,0,0,230,
scooby_state_4268c5|47|1 229,0,0,0,1,0,0,0,0,0,0,0,0,0,0,230,
scooby_state_4268c5|38|1 228,0,0,0,0,0,0,0,0,0,0,0,0,0,0,228,
scooby_state_4268c5|17|1 227,0,0,0,0,0,0,0,0,0,0,0,0,0,0,227,
scooby_state_4268c5|1|1 227,0,0,0,0,0,0,0,0,0,0,0,0,0,0,227,
scooby_state_4268c5|32|1 224,0,2,0,1,0,0,0,0,0,0,0,0,0,0,227,
scooby_state_4268c5|49|1 227,0,0,0,0,0,0,0,0,0,0,0,0,0,0,227,
scooby_state_4268c5|22|1 227,0,0,0,0,0,0,0,0,0,0,0,0,0,0,227,
scooby_state_4268c5|6|1 227,0,0,0,0,0,0,0,0,0,0,0,0,0,0,227,
scooby_state_4268c5|54|1 224,0,0,0,1,0,0,0,0,2,0,0,0,0,0,227,
scooby_state_4268c5|11|1 225,0,0,0,0,0,0,0,0,0,0,1,0,0,0,226,
scooby_state_4268c5|44|1 226,0,0,0,0,0,0,0,0,0,0,0,0,0,0,226,
scooby_state_4268c5|43|1 226,0,0,0,0,0,0,0,0,0,0,0,0,0,0,226,
scooby_state_4268c5|59|1 223,0,0,0,0,0,0,0,0,0,0,0,0,0,0,223,
scooby_state_4268c5|9|1 223,0,0,0,0,0,0,0,0,0,0,0,0,0,0,223,
scooby_state_4268c5|42|1 223,0,0,0,0,0,0,0,0,0,0,0,0,0,0,223,
scooby_state_4268c5|41|1 223,0,0,0,0,0,0,0,0,0,0,0,0,0,0,223,
scooby_state_4268c5|50|1 221,1,0,0,0,0,0,0,0,1,0,0,0,0,0,223,
scooby_state_4268c5|18|1 221,1,0,0,0,1,0,0,0,0,0,0,0,0,0,223,
scooby_state_4268c5|28|1 223,0,0,0,0,0,0,0,0,0,0,0,0,0,0,223,
scooby_state_4268c5|27|1 222,0,0,0,0,0,0,0,0,0,0,1,0,0,0,223,
scooby_state_4268c5|10|1 222,0,0,0,0,0,0,0,0,0,0,0,0,0,0,222,
scooby_state_4268c5|60|1 222,0,0,0,0,0,0,0,0,0,0,0,0,0,0,222,
scooby_state_407d96|14|-2 0,0,0,221,0,0,0,0,0,0,0,0,0,0,0,221,
scooby_state_407d86|25|-2 220,1,0,0,0,0,0,0,0,0,0,0,0,0,0,221,
scooby_state_407d96|19|-2 0,0,0,220,1,0,0,0,0,0,0,0,0,0,0,221,
scooby_state_407d96|34|-2 0,0,0,221,0,0,0,0,0,0,0,0,0,0,0,221,
scooby_state_407d96|21|-2 0,0,0,221,0,0,0,0,0,0,0,0,0,0,0,221,
scooby_state_407d96|45|-2 0,0,0,221,0,0,0,0,0,0,0,0,0,0,0,221,
scooby_state_407d96|16|-2 0,0,0,221,0,0,0,0,0,0,0,0,0,0,0,221,
scooby_state_407d96|11|-2 0,0,0,221,0,0,0,0,0,0,0,0,0,0,0,221,
scooby_state_407d96|60|-2 0,0,0,221,0,0,0,0,0,0,0,0,0,0,0,221,
scooby_state_407d96|6|-2 0,0,0,221,0,0,0,0,0,0,0,0,0,0,0,221,
scooby_state_407d96|8|-2 0,0,0,221,0,0,0,0,0,0,0,0,0,0,0,221,
scooby_state_407d96|5|-2 0,0,0,221,0,0,0,0,0,0,0,0,0,0,0,221,
scooby_state_407d96|57|-2 0,0,0,221,0,0,0,0,0,0,0,0,0,0,0,221,
scooby_state_407d96|44|-2 0,0,0,220,1,0,0,0,0,0,0,0,0,0,0,221,
scooby_state_407d96|59|-2 0,0,0,221,0,0,0,0,0,0,0,0,0,0,0,221,
scooby_state_407d96|47|-2 0,0,0,220,0,0,0,0,0,0,0,0,0,0,1,221,
scooby_state_407d96|48|-2 0,0,0,220,0,0,0,1,0,0,0,0,0,0,0,221,
scooby_state_407d96|37|-2 0,0,0,221,0,0,0,0,0,0,0,0,0,0,0,221,
scooby_state_407d96|32|-2 0,0,0,221,0,0,0,0,0,0,0,0,0,0,0,221,
scooby_state_407d96|42|-2 0,0,0,221,0,0,0,0,0,0,0,0,0,0,0,221,
scooby_state_407d86|53|-2 220,1,0,0,0,0,0,0,0,0,0,0,0,0,0,221,
scooby_state_407d96|55|-2 0,0,0,221,0,0,0,0,0,0,0,0,0,0,0,221,
scooby_state_407d96|26|-2 0,0,0,220,0,0,1,0,0,0,0,0,0,0,0,221,
scooby_state_407d86|48|-2 219,1,0,0,0,0,0,0,0,0,0,0,1,0,0,221,
scooby_state_407d96|9|-2 0,0,0,221,0,0,0,0,0,0,0,0,0,0,0,221,
scooby_state_407d86|15|-2 220,1,0,0,0,0,0,0,0,0,0,0,0,0,0,221,
scooby_state_407d86|29|-2 219,1,0,1,0,0,0,0,0,0,0,0,0,0,0,221,
scooby_state_407d86|28|-2 219,1,0,0,0,0,1,0,0,0,0,0,0,0,0,221,
scooby_state_407d96|39|-2 0,0,0,221,0,0,0,0,0,0,0,0,0,0,0,221,
scooby_state_407d96|3|-2 0,0,0,220,0,0,0,0,0,0,0,0,1,0,0,221,
scooby_state_407d96|50|-2 0,0,0,220,0,0,1,0,0,0,0,0,0,0,0,221,
scooby_state_407d86|4|-2 220,1,0,0,0,0,0,0,0,0,0,0,0,0,0,221,
scooby_state_407d86|23|-2 219,1,0,0,0,0,0,0,0,0,0,0,0,0,0,220,
scooby_state_407d86|58|-2 219,1,0,0,0,0,0,0,0,0,0,0,0,0,0,220,
scooby_state_407d96|27|-2 0,0,0,219,0,0,0,0,0,0,0,0,0,1,0,220,
scooby_state_407d86|54|-2 219,0,0,0,0,0,0,0,0,0,0,0,0,0,1,220,
scooby_state_407d86|38|-2 218,2,0,0,0,0,0,0,0,0,0,0,0,0,0,220,
scooby_state_4268c5|25|1 220,0,0,0,0,0,0,0,0,0,0,0,0,0,0,220,
scooby_state_407d86|49|-2 219,0,0,0,0,0,0,0,0,0,1,0,0,0,0,220,
scooby_state_407d86|35|-2 218,2,0,0,0,0,0,0,0,0,0,0,0,0,0,220,
scooby_state_407d86|1|-2 219,1,0,0,0,0,0,0,0,0,0,0,0,0,0,220,
scooby_state_407d86|43|-2 218,2,0,0,0,0,0,0,0,0,0,0,0,0,0,220,
scooby_state_407d86|40|-2 218,1,0,0,0,0,0,0,1,0,0,0,0,0,0,220,
scooby_state_4268c5|57|1 219,0,0,0,0,0,0,0,0,0,0,0,0,0,0,219,
scooby_state_4268c5|58|1 219,0,0,0,0,0,0,0,0,0,0,0,0,0,0,219,
scooby_state_4268c5|26|1 218,0,0,0,0,0,0,0,0,0,0,1,0,0,0,219,
scooby_state_407d86|30|-2 218,1,0,0,0,0,0,0,0,0,0,0,0,0,0,219,
scooby_state_407d86|18|-2 216,2,0,0,0,0,1,0,0,0,0,0,0,0,0,219,
scooby_state_407d86|20|-2 217,1,0,0,0,0,0,0,0,0,0,0,0,0,0,218,
scooby_state_407d86|33|-2 215,2,0,0,0,0,0,0,0,0,1,0,0,0,0,218,
scooby_state_426898|39|1 216,0,0,0,0,0,0,0,0,0,0,0,0,0,0,216,
scooby_state_426898|38|1 215,0,0,0,0,0,0,0,0,0,0,1,0,0,0,216,
scooby_state_426898|8|1 215,0,0,0,0,0,0,0,0,0,0,0,0,0,0,215,
scooby_state_426898|55|1 213,0,0,0,0,0,0,0,0,1,1,0,0,0,0,215,
scooby_state_426898|35|1 213,0,1,0,0,0,0,0,0,0,0,0,0,0,1,215,
scooby_state_426898|52|1 214,0,0,0,0,0,0,0,0,0,0,1,0,0,0,215,
scooby_state_426898|36|1 215,0,0,0,0,0,0,0,0,0,0,0,0,0,0,215,
scooby_state_426898|46|1 215,0,0,0,0,0,0,0,0,0,0,0,0,0,0,215,
scooby_state_426898|13|1 214,1,0,0,0,0,0,0,0,0,0,0,0,0,0,215,
scooby_state_426898|51|1 215,0,0,0,0,0,0,0,0,0,0,0,0,0,0,215,
scooby_state_426898|40|1 215,0,0,0,0,0,0,0,0,0,0,0,0,0,0,215,
scooby_state_426898|56|1 214,0,0,0,0,0,0,1,0,0,0,0,0,0,0,215,
scooby_state_426898|14|1 215,0,0,0,0,0,0,0,0,0,0,0,0,0,0,215,
scooby_state_426898|25|1 215,0,0,0,0,0,0,0,0,0,0,0,0,0,0,215,
scooby_state_426898|0|0 215,0,0,0,0,0,0,0,0,0,0,0,0,0,0,215,
scooby_state_426898|29|1 215,0,0,0,0,0,0,0,0,0,0,0,0,0,0,215,
scooby_state_426898|3|1 214,0,0,0,0,0,0,1,0,0,0,0,0,0,0,215,
scooby_state_426898|58|1 215,0,0,0,0,0,0,0,0,0,0,0,0,0,0,215,
scooby_state_426898|15|1 215,0,0,0,0,0,0,0,0,0,0,0,0,0,0,215,
scooby_state_426898|48|1 215,0,0,0,0,0,0,0,0,0,0,0,0,0,0,215,
scooby_state_426898|2|1 215,0,0,0,0,0,0,0,0,0,0,0,0,0,0,215,
scooby_state_426898|45|1 214,0,0,0,0,0,1,0,0,0,0,0,0,0,0,215,
scooby_state_426898|21|1 213,0,0,0,0,0,0,0,1,0,0,0,0,0,1,215,
scooby_state_426898|42|1 214,0,0,0,1,0,0,0,0,0,0,0,0,0,0,215,
scooby_state_426898|26|1 214,0,0,0,1,0,0,0,0,0,0,0,0,0,0,215,
scooby_state_426898|28|1 215,0,0,0,0,0,0,0,0,0,0,0,0,0,0,215,
scooby_state_426898|27|1 214,0,1,0,0,0,0,0,0,0,0,0,0,0,0,215,
scooby_state_426898|37|1 215,0,0,0,0,0,0,0,0,0,0,0,0,0,0,215,
scooby_state_426898|18|1 214,0,0,0,1,0,0,0,0,0,0,0,0,0,0,215,
scooby_state_426898|6|1 214,0,0,0,0,0,0,0,0,0,0,1,0,0,0,215,
scooby_state_426898|30|1 214,0,0,0,0,0,0,0,0,0,1,0,0,0,0,215,
scooby_state_426898|7|1 213,0,0,0,0,0,1,1,0,0,0,0,0,0,0,215,
scooby_state_426898|32|1 214,0,0,0,0,0,1,0,0,0,0,0,0,0,0,215,
scooby_state_426898|60|1 214,0,0,0,0,0,0,0,0,0,0,0,0,1,0,215,
scooby_state_426898|31|1 215,0,0,0,0,0,0,0,0,0,0,0,0,0,0,215,
scooby_state_426898|16|1 215,0,0,0,0,0,0,0,0,0,0,0,0,0,0,215,
scooby_state_426898|63|1 212,0,0,0,0,0,0,1,0,0,0,0,2,0,0,215,
scooby_state_426898|24|1 215,0,0,0,0,0,0,0,0,0,0,0,0,0,0,215,
scooby_state_426898|19|1 215,0,0,0,0,0,0,0,0,0,0,0,0,0,0,215,
scooby_state_426898|62|1 214,0,0,0,1,0,0,0,0,0,0,0,0,0,0,215,
scooby_state_426898|49|1 215,0,0,0,0,0,0,0,0,0,0,0,0,0,0,215,
scooby_state_426898|59|1 215,0,0,0,0,0,0,0,0,0,0,0,0,0,0,215,
scooby_state_426898|10|1 214,0,0,0,0,0,0,0,0,0,0,1,0,0,0,215,
scooby_state_426898|44|1 215,0,0,0,0,0,0,0,0,0,0,0,0,0,0,215,
scooby_state_426898|9|1 215,0,0,0,0,0,0,0,0,0,0,0,0,0,0,215,
scooby_state_426898|23|1 215,0,0,0,0,0,0,0,0,0,0,0,0,0,0,215,
scooby_state_426898|5|1 215,0,0,0,0,0,0,0,0,0,0,0,0,0,0,215,
scooby_state_426898|11|1 215,0,0,0,0,0,0,0,0,0,0,0,0,0,0,215,
scooby_state_426898|57|1 213,0,0,0,0,0,1,0,0,1,0,0,0,0,0,215,
scooby_state_426898|20|1 215,0,0,0,0,0,0,0,0,0,0,0,0,0,0,215,
scooby_state_426898|43|1 214,0,0,0,0,0,0,1,0,0,0,0,0,0,0,215,
scooby_state_426898|47|1 215,0,0,0,0,0,0,0,0,0,0,0,0,0,0,215,
scooby_state_426898|50|1 215,0,0,0,0,0,0,0,0,0,0,0,0,0,0,215,
scooby_state_426898|1|1 215,0,0,0,0,0,0,0,0,0,0,0,0,0,0,215,
scooby_state_426898|34|1 214,0,0,0,0,0,0,0,0,0,0,1,0,0,0,215,
scooby_state_426898|17|1 215,0,0,0,0,0,0,0,0,0,0,0,0,0,0,215,
scooby_state_426898|54|1 215,0,0,0,0,0,0,0,0,0,0,0,0,0,0,215,
scooby_state_426898|12|1 215,0,0,0,0,0,0,0,0,0,0,0,0,0,0,215,
scooby_state_426898|4|1 215,0,0,0,0,0,0,0,0,0,0,0,0,0,0,215,
scooby_state_426898|41|1 215,0,0,0,0,0,0,0,0,0,0,0,0,0,0,215,
scooby_state_426898|53|1 215,0,0,0,0,0,0,0,0,0,0,0,0,0,0,215,
scooby_state_426898|61|1 215,0,0,0,0,0,0,0,0,0,0,0,0,0,0,215,
scooby_state_426898|33|1 215,0,0,0,0,0,0,0,0,0,0,0,0,0,0,215,
scooby_state_426898|22|1 215,0,0,0,0,0,0,0,0,0,0,0,0,0,0,215,
scooby_state_4268c5|12|1 208,0,0,0,0,0,0,0,1,0,0,0,1,0,0,210,
scooby_state_407d86|21|-2 201,3,0,0,0,0,0,0,0,0,0,0,0,0,0,204,
scooby_state_407d96|31|-2 0,0,0,204,0,0,0,0,0,0,0,0,0,0,0,204,
scooby_state_407d96|12|-2 0,0,0,204,0,0,0,0,0,0,0,0,0,0,0,204,
scooby_state_407d96|36|-2 0,0,0,204,0,0,0,0,0,0,0,0,0,0,0,204,
scooby_state_407d96|51|-2 1,0,0,203,0,0,0,0,0,0,0,0,0,0,0,204,
scooby_state_407d86|44|-2 204,0,0,0,0,0,0,0,0,0,0,0,0,0,0,204,
scooby_state_407d96|7|-2 0,0,0,203,0,0,0,0,0,0,0,0,0,1,0,204,
scooby_state_407d86|3|-2 202,2,0,0,0,0,0,0,0,0,0,0,0,0,0,204,
scooby_state_407d96|41|-2 0,0,0,204,0,0,0,0,0,0,0,0,0,0,0,204,
scooby_state_407d86|14|-2 204,0,0,0,0,0,0,0,0,0,0,0,0,0,0,204,
scooby_state_407d86|0|-2 204,0,0,0,0,0,0,0,0,0,0,0,0,0,0,204,
scooby_state_407d86|57|-2 201,3,0,0,0,0,0,0,0,0,0,0,0,0,0,204,
scooby_state_407d86|52|-2 202,2,0,0,0,0,0,0,0,0,0,0,0,0,0,204,
scooby_state_407d86|9|-2 203,0,0,0,0,0,0,1,0,0,0,0,0,0,0,204,
scooby_state_407d86|55|-2 203,1,0,0,0,0,0,0,0,0,0,0,0,0,0,204,
scooby_state_407d96|61|-2 0,0,0,204,0,0,0,0,0,0,0,0,0,0,0,204,
scooby_state_407d96|17|-2 0,0,0,204,0,0,0,0,0,0,0,0,0,0,0,204,
scooby_state_407d96|22|-2 0,0,0,204,0,0,0,0,0,0,0,0,0,0,0,204,
scooby_state_407d86|39|-2 204,0,0,0,0,0,0,0,0,0,0,0,0,0,0,204,
scooby_state_407d86|24|-2 204,0,0,0,0,0,0,0,0,0,0,0,0,0,0,204,
scooby_state_407d96|56|-2 0,0,0,203,0,0,0,1,0,0,0,0,0,0,0,204,
scooby_state_407d96|46|-2 0,0,0,204,0,0,0,0,0,0,0,0,0,0,0,204,
scooby_state_407d86|19|-2 202,0,1,0,0,0,0,0,0,0,0,0,0,0,1,204,
scooby_state_407d96|2|-2 0,0,0,202,0,0,0,1,0,0,0,0,0,0,1,204,
scooby_state_407d86|6|-2 201,2,0,0,0,0,0,0,0,0,0,0,0,0,0,203,
scooby_state_407d86|37|-2 201,2,0,0,0,0,0,0,0,0,0,0,0,0,0,203,
scooby_state_407d86|5|-2 202,0,1,0,0,0,0,0,0,0,0,0,0,0,0,203,
scooby_state_407d86|60|-2 201,2,0,0,0,0,0,0,0,0,0,0,0,0,0,203,
scooby_state_407d86|47|-2 201,2,0,0,0,0,0,0,0,0,0,0,0,0,0,203,
scooby_state_407d86|42|-2 200,2,0,0,0,0,0,0,1,0,0,0,0,0,0,203,
scooby_state_407d86|34|-2 203,0,0,0,0,0,0,0,0,0,0,0,0,0,0,203,
scooby_state_407d86|32|-2 200,3,0,0,0,0,0,0,0,0,0,0,0,0,0,203,
scooby_state_407d86|50|-2 202,1,0,0,0,0,0,0,0,0,0,0,0,0,0,203,
scooby_state_407d86|13|-2 201,2,0,0,0,0,0,0,0,0,0,0,0,0,0,203,
scooby_state_407d86|45|-2 199,2,0,0,0,0,0,0,0,0,0,0,0,1,0,202,
scooby_state_407d86|11|-2 200,2,0,0,0,0,0,0,0,0,0,0,0,0,0,202,
scooby_state_407d86|16|-2 200,2,0,0,0,0,0,0,0,0,0,0,0,0,0,202,
scooby_state_407d86|26|-2 200,2,0,0,0,0,0,0,0,0,0,0,0,0,0,202,
scooby_state_407d86|8|-2 200,2,0,0,0,0,0,0,0,0,0,0,0,0,0,202,
scooby_state_407d86|59|-2 200,0,0,0,0,0,0,1,0,0,0,0,0,0,0,201,
scooby_state_407d86|10|-2 199,1,0,0,0,0,0,0,0,0,0,1,0,0,0,201,
scooby_state_407cae|1|0 193,0,0,0,0,0,0,0,0,0,0,0,0,0,0,193,
scooby_state_407cb3|1|0 192,0,0,0,0,0,0,0,0,1,0,0,0,0,0,193,
scooby_state_407d86|36|-2 185,2,0,0,0,0,0,0,0,0,0,0,0,0,0,187,
scooby_state_407d86|61|-2 185,2,0,0,0,0,0,0,0,0,0,0,0,0,0,187,
scooby_state_407d86|46|-2 184,3,0,0,0,0,0,0,0,0,0,0,0,0,0,187,
scooby_state_407d86|27|-2 185,2,0,0,0,0,0,0,0,0,0,0,0,0,0,187,
scooby_state_407d86|2|-2 183,2,0,0,0,0,0,0,0,0,1,1,0,0,0,187,
scooby_state_407d86|12|-2 185,2,0,0,0,0,0,0,0,0,0,0,0,0,0,187,
scooby_state_407d86|41|-2 185,2,0,0,0,0,0,0,0,0,0,0,0,0,0,187,
scooby_state_407d86|17|-2 185,2,0,0,0,0,0,0,0,0,0,0,0,0,0,187,
scooby_state_407d86|22|-2 183,2,0,0,0,0,0,0,0,1,0,0,0,0,0,186,
scooby_state_407d86|31|-2 184,2,0,0,0,0,0,0,0,0,0,0,0,0,0,186,
scooby_state_407d86|7|-2 181,4,0,0,0,0,0,0,0,0,0,0,0,0,0,185,
scooby_state_407d86|51|-2 183,2,0,0,0,0,0,0,0,0,0,0,0,0,0,185,
scooby_state_407d86|56|-2 182,2,0,0,0,0,0,0,0,0,0,0,0,0,0,184,
scooby_state_407db7|37|1 171,0,0,0,0,0,0,0,0,0,0,0,0,0,0,171,
scooby_state_407db7|8|1 171,0,0,0,0,0,0,0,0,0,0,0,0,0,0,171,
scooby_state_407db7|17|1 170,0,0,0,0,0,0,0,0,0,0,0,0,0,0,170,
scooby_state_407db7|3|1 169,0,0,0,0,0,0,0,0,0,0,0,0,0,1,170,
scooby_state_407db7|51|1 168,1,0,0,1,0,0,0,0,0,0,0,0,0,0,170,
scooby_state_407db7|42|1 170,0,0,0,0,0,0,0,0,0,0,0,0,0,0,170,
scooby_state_407db7|12|1 170,0,0,0,0,0,0,0,0,0,0,0,0,0,0,170,
scooby_state_407db7|47|1 170,0,0,0,0,0,0,0,0,0,0,0,0,0,0,170,
scooby_state_407db7|22|1 169,0,1,0,0,0,0,0,0,0,0,0,0,0,0,170,
scooby_state_407db7|13|1 156,0,0,0,0,0,0,0,0,0,0,0,0,0,0,156,
scooby_state_407db7|62|1 156,0,0,0,0,0,0,0,0,0,0,0,0,0,0,156,
scooby_state_407db7|14|1 155,0,0,0,0,0,0,0,0,0,0,0,0,0,0,155,
scooby_state_407db7|11|1 155,0,0,0,0,0,0,0,0,0,0,0,0,0,0,155,
scooby_state_407db7|10|1 155,0,0,0,0,0,0,0,0,0,0,0,0,0,0,155,
scooby_state_407db7|19|1 155,0,0,0,0,0,0,0,0,0,0,0,0,0,0,155,
scooby_state_407db7|54|1 155,0,0,0,0,0,0,0,0,0,0,0,0,0,0,155,
scooby_state_407c86|0|0 154,0,0,0,0,0,0,0,0,0,0,0,0,1,0,155,
scooby_state_407db7|48|1 155,0,0,0,0,0,0,0,0,0,0,0,0,0,0,155,
scooby_state_407db7|9|1 154,0,0,0,0,0,0,0,0,0,0,0,0,0,0,154,
scooby_state_407db7|46|1 154,0,0,0,0,0,0,0,0,0,0,0,0,0,0,154,
scooby_state_407db7|52|1 153,0,0,0,0,0,0,0,0,0,0,1,0,0,0,154,
scooby_state_407db7|53|1 153,0,0,0,0,0,1,0,0,0,0,0,0,0,0,154,
scooby_state_407db7|50|1 153,0,0,0,0,0,0,0,0,0,0,1,0,0,0,154,
scooby_state_407db7|45|1 154,0,0,0,0,0,0,0,0,0,0,0,0,0,0,154,
scooby_state_407db7|16|1 154,0,0,0,0,0,0,0,0,0,0,0,0,0,0,154,
scooby_state_407db7|40|1 153,0,0,0,0,0,0,0,0,0,0,0,0,1,0,154,
scooby_state_407db7|35|1 154,0,0,0,0,0,0,0,0,0,0,0,0,0,0,154,
scooby_state_407db7|34|1 154,0,0,0,0,0,0,0,0,0,0,0,0,0,0,154,
scooby_state_407db7|25|1 154,0,0,0,0,0,0,0,0,0,0,0,0,0,0,154,
scooby_state_407d8e|37|1 153,0,0,0,0,0,0,0,0,0,0,0,0,0,0,153,
scooby_state_407db7|5|1 152,0,0,0,0,1,0,0,0,0,0,0,0,0,0,153,
scooby_state_407db7|6|1 152,0,0,0,0,0,0,0,1,0,0,0,0,0,0,153,
scooby_state_407db7|39|1 153,0,0,0,0,0,0,0,0,0,0,0,0,0,0,153,
scooby_state_407db7|49|1 151,0,0,1,0,0,0,0,0,1,0,0,0,0,0,153,
scooby_state_407db7|60|1 153,0,0,0,0,0,0,0,0,0,0,0,0,0,0,153,
scooby_state_407d8e|17|1 153,0,0,0,0,0,0,0,0,0,0,0,0,0,0,153,
scooby_state_407db7|27|1 152,0,0,0,0,0,0,1,0,0,0,0,0,0,0,153,
scooby_state_407db7|15|1 152,0,0,0,0,0,0,0,0,1,0,0,0,0,0,153,
scooby_state_407d8e|42|1 153,0,0,0,0,0,0,0,0,0,0,0,0,0,0,153,
scooby_state_407d8e|12|1 153,0,0,0,0,0,0,0,0,0,0,0,0,0,0,153,
scooby_state_407db7|56|1 153,0,0,0,0,0,0,0,0,0,0,0,0,0,0,153,
scooby_state_407d8e|22|1 153,0,0,0,0,0,0,0,0,0,0,0,0,0,0,153,
scooby_state_407d8e|51|1 153,0,0,0,0,0,0,0,0,0,0,0,0,0,0,153,
scooby_state_407db7|30|1 153,0,0,0,0,0,0,0,0,0,0,0,0,0,0,153,
scooby_state_407d8e|8|1 153,0,0,0,0,0,0,0,0,0,0,0,0,0,0,153,
scooby_state_407db7|20|1 153,0,0,0,0,0,0,0,0,0,0,0,0,0,0,153,
scooby_state_407db7|32|1 151,0,0,1,0,0,0,1,0,0,0,0,0,0,0,153,
scooby_state_407db7|55|1 153,0,0,0,0,0,0,0,0,0,0,0,0,0,0,153,
scooby_state_407d96|62|1 0,0,0,153,0,0,0,0,0,0,0,0,0,0,0,153,
scooby_state_407d8e|47|1 153,0,0,0,0,0,0,0,0,0,0,0,0,0,0,153,
scooby_state_407db7|7|1 153,0,0,0,0,0,0,0,0,0,0,0,0,0,0,153,
scooby_state_407db7|44|1 153,0,0,0,0,0,0,0,0,0,0,0,0,0,0,153,
scooby_state_407cae|2|0 147,0,0,0,0,0,0,0,0,0,0,0,0,0,0,147,
scooby_state_407cb3|2|0 147,0,0,0,0,0,0,0,0,0,0,0,0,0,0,147,
scooby_state_407db7|36|1 139,0,0,0,0,0,0,0,0,0,0,0,0,0,0,139,
scooby_state_407db7|23|1 138,0,0,0,0,0,0,0,0,1,0,0,0,0,0,139,
scooby_state_407db7|59|1 139,0,0,0,0,0,0,0,0,0,0,0,0,0,0,139,
scooby_state_407db7|29|1 138,0,0,0,0,0,0,0,0,0,0,0,0,0,0,138,
scooby_state_407db7|21|1 138,0,0,0,0,0,0,0,0,0,0,0,0,0,0,138,
scooby_state_407db7|33|1 138,0,0,0,0,0,0,0,0,0,0,0,0,0,0,138,
scooby_state_407d8e|3|1 137,0,0,0,0,0,0,0,0,0,0,0,0,0,0,137,
scooby_state_407db7|43|1 136,0,0,0,0,0,0,0,1,0,0,0,0,0,0,137,
scooby_state_407db7|61|1 136,0,0,1,0,0,0,0,0,0,0,0,0,0,0,137,
scooby_state_407db7|26|1 137,0,0,0,0,0,0,0,0,0,0,0,0,0,0,137,
scooby_state_407db7|38|1 137,0,0,0,0,0,0,0,0,0,0,0,0,0,0,137,
scooby_state_407db7|4|1 137,0,0,0,0,0,0,0,0,0,0,0,0,0,0,137,
scooby_state_407db7|41|1 137,0,0,0,0,0,0,0,0,0,0,0,0,0,0,137,
scooby_state_407db7|57|1 136,0,0,0,1,0,0,0,0,0,0,0,0,0,0,137,
scooby_state_407db7|63|1 135,0,0,0,0,0,1,1,0,0,0,0,0,0,0,137,
scooby_state_407d8e|19|1 136,0,0,0,0,0,0,0,0,0,0,0,0,0,0,136,
scooby_state_407db7|58|1 136,0,0,0,0,0,0,0,0,0,0,0,0,0,0,136,
scooby_state_407d8e|62|1 136,0,0,0,0,0,0,0,0,0,0,0,0,0,0,136,
scooby_state_407d8e|20|1 136,0,0,0,0,0,0,0,0,0,0,0,0,0,0,136,
scooby_state_407d8e|7|1 135,0,0,0,0,1,0,0,0,0,0,0,0,0,0,136,
scooby_state_407db7|18|1 135,0,0,0,0,0,0,1,0,0,0,0,0,0,0,136,
scooby_state_407d8e|54|1 136,0,0,0,0,0,0,0,0,0,0,0,0,0,0,136,
scooby_state_407db7|31|1 136,0,0,0,0,0,0,0,0,0,0,0,0,0,0,136,
scooby_state_407d8e|44|1 136,0,0,0,0,0,0,0,0,0,0,0,0,0,0,136,
scooby_state_407d8e|9|1 136,0,0,0,0,0,0,0,0,0,0,0,0,0,0,136,
scooby_state_407d8e|25|1 136,0,0,0,0,0,0,0,0,0,0,0,0,0,0,136,
scooby_state_407d8e|40|1 136,0,0,0,0,0,0,0,0,0,0,0,0,0,0,136,
scooby_state_407d8e|10|1 136,0,0,0,0,0,0,0,0,0,0,0,0,0,0,136,
scooby_state_407db7|24|1 135,0,0,0,1,0,0,0,0,0,0,0,0,0,0,136,
scooby_state_407d8e|34|1 136,0,0,0,0,0,0,0,0,0,0,0,0,0,0,136,
scooby_state_407d8e|1|0 136,0,0,0,0,0,0,0,0,0,0,0,0,0,0,136,
scooby_state_407db7|1|0 136,0,0,0,0,0,0,0,0,0,0,0,0,0,0,136,
scooby_state_407d86|62|1 136,0,0,0,0,0,0,0,0,0,0,0,0,0,0,136,
[...]
scooby_state_412038|45|28 1,0,0,0,0,0,0,0,0,0,0,0,0,0,0,1,
scooby_state_410ac0|43|30 1,0,0,0,0,0,0,0,0,0,0,0,0,0,0,1,
scooby_state_44a8cb|34|-25 1,0,0,0,0,0,0,0,0,0,0,0,0,0,0,1,
scooby_state_41bd26|4|-4 0,0,0,0,0,0,0,0,0,0,0,0,0,0,1,1,
scooby_state_42200b|60|24 1,0,0,0,0,0,0,0,0,0,0,0,0,0,0,1,
scooby_state_422017|10|7 1,0,0,0,0,0,0,0,0,0,0,0,0,0,0,1,
scooby_state_422017|54|31 1,0,0,0,0,0,0,0,0,0,0,0,0,0,0,1,
scooby_state_41bd26|62|54 0,0,0,0,0,0,0,0,0,0,0,0,0,0,1,1,
scooby_state_42200f|22|-26 1,0,0,0,0,0,0,0,0,0,0,0,0,0,0,1,
scooby_state_42219c|37|0 1,0,0,0,0,0,0,0,0,0,0,0,0,0,0,1,
scooby_state_422000|60|16 1,0,0,0,0,0,0,0,0,0,0,0,0,0,0,1,
scooby_state_41bd26|63|29 1,0,0,0,0,0,0,0,0,0,0,0,0,0,0,1,
scooby_state_42200f|0|-15 1,0,0,0,0,0,0,0,0,0,0,0,0,0,0,1,
scooby_state_402350|13|1 1,0,0,0,0,0,0,0,0,0,0,0,0,0,0,1,
scooby_state_422017|43|29 1,0,0,0,0,0,0,0,0,0,0,0,0,0,0,1,
scooby_state_41704f|33|27 1,0,0,0,0,0,0,0,0,0,0,0,0,0,0,1,
scooby_state_417358|53|44 1,0,0,0,0,0,0,0,0,0,0,0,0,0,0,1,
scooby_state_44a916|56|16 1,0,0,0,0,0,0,0,0,0,0,0,0,0,0,1,
scooby_state_407cae|45|25 1,0,0,0,0,0,0,0,0,0,0,0,0,0,0,1,
scooby_state_417367|60|20 1,0,0,0,0,0,0,0,0,0,0,0,0,0,0,1,
scooby_state_41bd26|41|7 0,0,0,0,0,1,0,0,0,0,0,0,0,0,0,1,
scooby_state_41bd26|59|45 1,0,0,0,0,0,0,0,0,0,0,0,0,0,0,1,
scooby_state_422017|39|39 1,0,0,0,0,0,0,0,0,0,0,0,0,0,0,1,
scooby_state_44a916|44|10 1,0,0,0,0,0,0,0,0,0,0,0,0,0,0,1,
scooby_state_41bd26|27|15 1,0,0,0,0,0,0,0,0,0,0,0,0,0,0,1,
scooby_state_41bd26|11|-3 0,0,0,0,0,0,0,0,0,0,0,0,0,0,1,1,
scooby_state_44a916|61|7 1,0,0,0,0,0,0,0,0,0,0,0,0,0,0,1,
scooby_state_41bd26|7|-53 0,0,0,0,0,0,0,0,0,0,0,0,0,0,1,1,
scooby_state_42200f|23|1 1,0,0,0,0,0,0,0,0,0,0,0,0,0,0,1,
scooby_state_422017|29|25 1,0,0,0,0,0,0,0,0,0,0,0,0,0,0,1,
scooby_state_417367|49|41 1,0,0,0,0,0,0,0,0,0,0,0,0,0,0,1,
scooby_state_42200f|59|20 1,0,0,0,0,0,0,0,0,0,0,0,0,0,0,1,
scooby_state_412038|27|-2 1,0,0,0,0,0,0,0,0,0,0,0,0,0,0,1,
scooby_state_44a8cb|1|-52 1,0,0,0,0,0,0,0,0,0,0,0,0,0,0,1,
scooby_state_41735b|34|-27 1,0,0,0,0,0,0,0,0,0,0,0,0,0,0,1,
scooby_state_4176a0|33|-5 1,0,0,0,0,0,0,0,0,0,0,0,0,0,0,1,
scooby_state_42200f|54|25 0,0,0,0,0,0,0,0,0,0,0,0,0,0,1,1,
scooby_state_407cb3|48|10 1,0,0,0,0,0,0,0,0,0,0,0,0,0,0,1,
scooby_state_407cae|31|27 1,0,0,0,0,0,0,0,0,0,0,0,0,0,0,1,
scooby_state_407c8e|11|3 1,0,0,0,0,0,0,0,0,0,0,0,0,0,0,1,
scooby_state_44a8b6|37|36 1,0,0,0,0,0,0,0,0,0,0,0,0,0,0,1,
scooby_state_422000|42|38 1,0,0,0,0,0,0,0,0,0,0,0,0,0,0,1,
scooby_state_44a905|11|5 1,0,0,0,0,0,0,0,0,0,0,0,0,0,0,1,
scooby_state_422017|23|-38 1,0,0,0,0,0,0,0,0,0,0,0,0,0,0,1,
scooby_state_44a8cb|26|18 1,0,0,0,0,0,0,0,0,0,0,0,0,0,0,1,
scooby_state_41bd26|11|10 0,0,0,0,0,0,0,0,0,0,0,0,0,0,1,1,
scooby_state_41ff42|51|3 1,0,0,0,0,0,0,0,0,0,0,0,0,0,0,1,
scooby_state_41704f|18|-44 1,0,0,0,0,0,0,0,0,0,0,0,0,0,0,1,
scooby_state_41bd26|26|22 1,0,0,0,0,0,0,0,0,0,0,0,0,0,0,1,
scooby_state_466012|7|-1 1,0,0,0,0,0,0,0,0,0,0,0,0,0,0,1,
scooby_state_422017|24|-6 1,0,0,0,0,0,0,0,0,0,0,0,0,0,0,1,
scooby_state_4730a9|41|1 1,0,0,0,0,0,0,0,0,0,0,0,0,0,0,1,
scooby_state_422017|18|-44 1,0,0,0,0,0,0,0,0,0,0,0,0,0,0,1,
scooby_state_412182|18|3 1,0,0,0,0,0,0,0,0,0,0,0,0,0,0,1,
scooby_state_407cae|55|46 1,0,0,0,0,0,0,0,0,0,0,0,0,0,0,1,
scooby_state_41bd26|37|20 1,0,0,0,0,0,0,0,0,0,0,0,0,0,0,1,
scooby_state_41735b|25|-32 1,0,0,0,0,0,0,0,0,0,0,0,0,0,0,1,
scooby_state_41f800|32|1 1,0,0,0,0,0,0,0,0,0,0,0,0,0,0,1,
scooby_state_407cb3|51|22 1,0,0,0,0,0,0,0,0,0,0,0,0,0,0,1,
scooby_state_41bd26|23|20 1,0,0,0,0,0,0,0,0,0,0,0,0,0,0,1,
scooby_state_44a8cb|9|-8 1,0,0,0,0,0,0,0,0,0,0,0,0,0,0,1,
scooby_state_420118|28|12 1,0,0,0,0,0,0,0,0,0,0,0,0,0,0,1,
scooby_state_42200f|1|-27 1,0,0,0,0,0,0,0,0,0,0,0,0,0,0,1,
scooby_state_42200b|40|-9 0,0,0,1,0,0,0,0,0,0,0,0,0,0,0,1,
scooby_state_407cb3|13|13 1,0,0,0,0,0,0,0,0,0,0,0,0,0,0,1,
scooby_state_412109|26|24 1,0,0,0,0,0,0,0,0,0,0,0,0,0,0,1,
scooby_state_4634c3|19|1 1,0,0,0,0,0,0,0,0,0,0,0,0,0,0,1,
scooby_state_42200f|11|-44 0,0,0,0,0,0,1,0,0,0,0,0,0,0,0,1,
scooby_state_41704f|43|-17 1,0,0,0,0,0,0,0,0,0,0,0,0,0,0,1,
scooby_state_41bd26|40|28 1,0,0,0,0,0,0,0,0,0,0,0,0,0,0,1,
scooby_state_407cae|24|2 1,0,0,0,0,0,0,0,0,0,0,0,0,0,0,1,
scooby_state_42200b|30|19 1,0,0,0,0,0,0,0,0,0,0,0,0,0,0,1,
scooby_state_42200f|14|-29 1,0,0,0,0,0,0,0,0,0,0,0,0,0,0,1,
scooby_state_41ffc2|63|1 1,0,0,0,0,0,0,0,0,0,0,0,0,0,0,1,
scooby_state_41bd26|6|-23 0,0,0,0,0,0,0,0,0,0,0,0,0,0,1,1,
scooby_state_403fa7|19|-24 1,0,0,0,0,0,0,0,0,0,0,0,0,0,0,1,
scooby_state_407cf3|14|0 1,0,0,0,0,0,0,0,0,0,0,0,0,0,0,1,
scooby_state_41bd26|25|-11 1,0,0,0,0,0,0,0,0,0,0,0,0,0,0,1,
scooby_state_417358|0|-15 1,0,0,0,0,0,0,0,0,0,0,0,0,0,0,1,
scooby_state_41704f|24|-9 1,0,0,0,0,0,0,0,0,0,0,0,0,0,0,1,
scooby_state_44a916|62|6 1,0,0,0,0,0,0,0,0,0,0,0,0,0,0,1,
scooby_state_41bd26|8|-45 1,0,0,0,0,0,0,0,0,0,0,0,0,0,0,1,
scooby_state_408d01|52|1 1,0,0,0,0,0,0,0,0,0,0,0,0,0,0,1,
scooby_state_41bd26|38|22 1,0,0,0,0,0,0,0,0,0,0,0,0,0,0,1,
scooby_state_44a8cb|1|-22 1,0,0,0,0,0,0,0,0,0,0,0,0,0,0,1,
scooby_state_41aa85|42|1 1,0,0,0,0,0,0,0,0,0,0,0,0,0,0,1,
scooby_state_40a000|59|0 1,0,0,0,0,0,0,0,0,0,0,0,0,0,0,1,
scooby_state_426b9c|46|3 1,0,0,0,0,0,0,0,0,0,0,0,0,0,0,1,
scooby_state_426b14|44|-2 1,0,0,0,0,0,0,0,0,0,0,0,0,0,0,1,
scooby_state_426bde|47|2 1,0,0,0,0,0,0,0,0,0,0,0,0,0,0,1,
scooby_state_408cf0|51|0 0,1,0,0,0,0,0,0,0,0,0,0,0,0,0,1,
scooby_state_4633a0|14|0 1,0,0,0,0,0,0,0,0,0,0,0,0,0,0,1,
scooby_state_42200f|36|25 1,0,0,0,0,0,0,0,0,0,0,0,0,0,0,1,
scooby_state_412109|52|45 1,0,0,0,0,0,0,0,0,0,0,0,0,0,0,1,
scooby_state_41bd26|0|-39 1,0,0,0,0,0,0,0,0,0,0,0,0,0,0,1,
scooby_state_4633c0|15|1 1,0,0,0,0,0,0,0,0,0,0,0,0,0,0,1,
scooby_state_41bd26|19|-5 1,0,0,0,0,0,0,0,0,0,0,0,0,0,0,1,
scooby_state_463402|16|1 1,0,0,0,0,0,0,0,0,0,0,0,0,0,0,1,
scooby_state_41fd34|55|3 1,0,0,0,0,0,0,0,0,0,0,0,0,0,0,1,
scooby_state_4176a0|38|8 0,0,1,0,0,0,0,0,0,0,0,0,0,0,0,1,
scooby_state_4176f1|21|-20 0,0,0,0,0,0,0,0,1,0,0,0,0,0,0,1,
scooby_state_41bd26|31|8 1,0,0,0,0,0,0,0,0,0,0,0,0,0,0,1,
scooby_state_412235|54|-1 1,0,0,0,0,0,0,0,0,0,0,0,0,0,0,1,
scooby_state_412031|9|-49 0,0,0,0,0,0,0,0,0,0,1,0,0,0,0,1,
scooby_state_4176f1|61|40 1,0,0,0,0,0,0,0,0,0,0,0,0,0,0,1,
scooby_state_417946|62|0 1,0,0,0,0,0,0,0,0,0,0,0,0,0,0,1,
scooby_state_4244c0|19|1 0,0,0,1,0,0,0,0,0,0,0,0,0,0,0,1,
scooby_state_417939|8|-43 1,0,0,0,0,0,0,0,0,0,0,0,0,0,0,1,
scooby_state_4176d3|24|3 1,0,0,0,0,0,0,0,0,0,0,0,0,0,0,1,
scooby_state_41bd26|10|-20 1,0,0,0,0,0,0,0,0,0,0,0,0,0,0,1,
scooby_state_42200b|58|38 0,1,0,0,0,0,0,0,0,0,0,0,0,0,0,1,
scooby_state_41796e|41|-1 1,0,0,0,0,0,0,0,0,0,0,0,0,0,0,1,
scooby_state_42d801|32|1 1,0,0,0,0,0,0,0,0,0,0,0,0,0,0,1,
scooby_state_422017|57|17 1,0,0,0,0,0,0,0,0,0,0,0,0,0,0,1,
scooby_state_407c86|23|0 1,0,0,0,0,0,0,0,0,0,0,0,0,0,0,1,
scooby_state_41796e|61|3 1,0,0,0,0,0,0,0,0,0,0,0,0,0,0,1,
scooby_state_417946|56|-1 1,0,0,0,0,0,0,0,0,0,0,0,0,0,0,1,
scooby_state_417ae0|43|6 1,0,0,0,0,0,0,0,0,0,0,0,0,0,0,1,
scooby_state_41bd26|12|-27 0,0,0,0,0,0,0,0,0,0,0,0,0,0,1,1,
scooby_state_417b03|44|1 1,0,0,0,0,0,0,0,0,0,0,0,0,0,0,1,
scooby_state_427237|28|1 1,0,0,0,0,0,0,0,0,0,0,0,0,0,0,1,
scooby_state_41bd26|45|10 0,0,0,0,0,0,0,0,0,0,0,0,0,0,1,1,
scooby_state_44a8b6|26|-8 1,0,0,0,0,0,0,0,0,0,0,0,0,0,0,1,
scooby_state_41796e|51|-1 1,0,0,0,0,0,0,0,0,0,0,0,0,0,0,1,
scooby_state_4053c0|15|-4 0,0,0,0,1,0,0,0,0,0,0,0,0,0,0,1,
scooby_state_407c86|34|4 1,0,0,0,0,0,0,0,0,0,0,0,0,0,0,1,
scooby_state_417963|37|-1 1,0,0,0,0,0,0,0,0,0,0,0,0,0,0,1,
scooby_state_4379ae|20|-14 1,0,0,0,0,0,0,0,0,0,0,0,0,0,0,1,
scooby_state_42200f|9|-35 0,0,0,0,0,1,0,0,0,0,0,0,0,0,0,1,
scooby_state_403d8f|17|-13 1,0,0,0,0,0,0,0,0,0,0,0,0,0,0,1,
scooby_state_44a916|54|-2 0,0,0,0,0,0,1,0,0,0,0,0,0,0,0,1,
scooby_state_417963|41|-1 1,0,0,0,0,0,0,0,0,0,0,0,0,0,0,1,
scooby_state_403c30|48|21 1,0,0,0,0,0,0,0,0,0,0,0,0,0,0,1,
scooby_state_44a8cb|17|13 1,0,0,0,0,0,0,0,0,0,0,0,0,0,0,1,
scooby_state_44a8cb|31|-20 1,0,0,0,0,0,0,0,0,0,0,0,0,0,0,1,
scooby_state_4176d7|10|-12 0,0,0,0,0,0,0,0,0,0,1,0,0,0,0,1,
scooby_state_4634b1|18|-22 1,0,0,0,0,0,0,0,0,0,0,0,0,0,0,1,
scooby_state_466080|2|1 1,0,0,0,0,0,0,0,0,0,0,0,0,0,0,1,
scooby_state_4660c1|3|1 1,0,0,0,0,0,0,0,0,0,0,0,0,0,0,1,
scooby_state_41ea82|42|1 1,0,0,0,0,0,0,0,0,0,0,0,0,0,0,1,
scooby_state_41bd26|31|-23 1,0,0,0,0,0,0,0,0,0,0,0,0,0,0,1,
scooby_state_412022|37|2 0,0,1,0,0,0,0,0,0,0,0,0,0,0,0,1,
scooby_state_44a8cb|11|-16 1,0,0,0,0,0,0,0,0,0,0,0,0,0,0,1,
scooby_state_42200f|12|-5 1,0,0,0,0,0,0,0,0,0,0,0,0,0,0,1,
scooby_state_42078d|63|2 1,0,0,0,0,0,0,0,0,0,0,0,0,0,0,1,
scooby_state_403de7|55|6 1,0,0,0,0,0,0,0,0,0,0,0,0,0,0,1,
scooby_state_40dcb0|50|-2 1,0,0,0,0,0,0,0,0,0,0,0,0,0,0,1,
scooby_state_407d80|5|1 1,0,0,0,0,0,0,0,0,0,0,0,0,0,0,1,
scooby_state_417939|57|24 1,0,0,0,0,0,0,0,0,0,0,0,0,0,0,1,
scooby_state_412109|15|-28 1,0,0,0,0,0,0,0,0,0,0,0,0,0,0,1,
scooby_state_42200f|63|19 0,0,0,0,0,0,1,0,0,0,0,0,0,0,0,1,
scooby_state_407cae|34|15 1,0,0,0,0,0,0,0,0,0,0,0,0,0,0,1,
scooby_state_44a905|3|-16 1,0,0,0,0,0,0,0,0,0,0,0,0,0,0,1,
scooby_state_41bd26|51|21 1,0,0,0,0,0,0,0,0,0,0,0,0,0,0,1,
scooby_state_41bd26|54|32 1,0,0,0,0,0,0,0,0,0,0,0,0,0,0,1,
scooby_state_402709|45|30 1,0,0,0,0,0,0,0,0,0,0,0,0,0,0,1,
scooby_state_41bd26|47|30 1,0,0,0,0,0,0,0,0,0,0,0,0,0,0,1,
scooby_state_41796e|41|-3 1,0,0,0,0,0,0,0,0,0,0,0,0,0,0,1,
scooby_state_42200b|4|-29 0,0,0,0,1,0,0,0,0,0,0,0,0,0,0,1,
scooby_state_41bd26|0|-6 1,0,0,0,0,0,0,0,0,0,0,0,0,0,0,1,
scooby_state_412038|37|12 1,0,0,0,0,0,0,0,0,0,0,0,0,0,0,1,
scooby_state_403d86|54|-1 0,0,0,0,0,0,1,0,0,0,0,0,0,0,0,1,
scooby_state_407cb3|28|14 1,0,0,0,0,0,0,0,0,0,0,0,0,0,0,1,
scooby_state_44a916|9|-46 1,0,0,0,0,0,0,0,0,0,0,0,0,0,0,1,
scooby_state_41bd26|13|-41 1,0,0,0,0,0,0,0,0,0,0,0,0,0,0,1,
scooby_state_41bd26|9|-33 1,0,0,0,0,0,0,0,0,0,0,0,0,0,0,1,
scooby_state_41bd26|25|-13 1,0,0,0,0,0,0,0,0,0,0,0,0,0,0,1,
scooby_state_42200b|11|-23 1,0,0,0,0,0,0,0,0,0,0,0,0,0,0,1,
scooby_state_407cf3|21|21 1,0,0,0,0,0,0,0,0,0,0,0,0,0,0,1,
scooby_state_42200b|27|-36 1,0,0,0,0,0,0,0,0,0,0,0,0,0,0,1,
scooby_state_427cd8|31|14 1,0,0,0,0,0,0,0,0,0,0,0,0,0,0,1,
scooby_state_412235|5|-50 1,0,0,0,0,0,0,0,0,0,0,0,0,0,0,1,
scooby_state_407ca8|47|0 1,0,0,0,0,0,0,0,0,0,0,0,0,0,0,1,
scooby_state_4176d7|14|-10 1,0,0,0,0,0,0,0,0,0,0,0,0,0,0,1,
scooby_state_412031|11|-4 1,0,0,0,0,0,0,0,0,0,0,0,0,0,0,1,
scooby_state_41bd26|28|17 1,0,0,0,0,0,0,0,0,0,0,0,0,0,0,1,
scooby_state_412035|57|26 1,0,0,0,0,0,0,0,0,0,0,0,0,0,0,1,
scooby_state_44a905|11|8 1,0,0,0,0,0,0,0,0,0,0,0,0,0,0,1,
scooby_state_463473|13|0 1,0,0,0,0,0,0,0,0,0,0,0,0,0,0,1,
scooby_state_417367|9|-23 1,0,0,0,0,0,0,0,0,0,0,0,0,0,0,1,
scooby_state_420541|21|1 1,0,0,0,0,0,0,0,0,0,0,0,0,0,0,1,
scooby_state_412038|25|-32 1,0,0,0,0,0,0,0,0,0,0,0,0,0,0,1,
scooby_state_41bd26|16|-24 0,0,0,0,0,0,0,0,0,0,0,0,0,0,1,1,
scooby_state_41ad67|49|4 1,0,0,0,0,0,0,0,0,0,0,0,0,0,0,1,
scooby_state_42200b|15|-30 1,0,0,0,0,0,0,0,0,0,0,0,0,0,0,1,
scooby_state_412031|24|-4 1,0,0,0,0,0,0,0,0,0,0,0,0,0,0,1,
scooby_state_412235|17|2 1,0,0,0,0,0,0,0,0,0,0,0,0,0,0,1,
scooby_state_426fef|47|-1 1,0,0,0,0,0,0,0,0,0,0,0,0,0,0,1,
scooby_state_42200b|54|20 1,0,0,0,0,0,0,0,0,0,0,0,0,0,0,1,
scooby_state_417367|58|5 1,0,0,0,0,0,0,0,0,0,0,0,0,0,0,1,
scooby_state_42cf80|62|1 1,0,0,0,0,0,0,0,0,0,0,0,0,0,0,1,
scooby_state_44a8b6|29|-8 1,0,0,0,0,0,0,0,0,0,0,0,0,0,0,1,
scooby_state_417367|9|-25 1,0,0,0,0,0,0,0,0,0,0,0,0,0,0,1,
scooby_state_412235|35|28 1,0,0,0,0,0,0,0,0,0,0,0,0,0,0,1,
scooby_state_427237|6|1 1,0,0,0,0,0,0,0,0,0,0,0,0,0,0,1,
scooby_state_4176d7|36|7 1,0,0,0,0,0,0,0,0,0,0,0,0,0,0,1,
scooby_state_41eb2c|14|-49 1,0,0,0,0,0,0,0,0,0,0,0,0,0,0,1,
scooby_state_4176a0|30|0 1,0,0,0,0,0,0,0,0,0,0,0,0,0,0,1,
scooby_state_408cfb|51|48 1,0,0,0,0,0,0,0,0,0,0,0,0,0,0,1,
scooby_state_41bd26|36|-18 1,0,0,0,0,0,0,0,0,0,0,0,0,0,0,1,
scooby_state_42200f|53|32 0,0,0,0,0,0,0,0,0,0,0,0,1,0,0,1,
scooby_state_417054|36|36 1,0,0,0,0,0,0,0,0,0,0,0,0,0,0,1,
scooby_state_424a65|10|0 1,0,0,0,0,0,0,0,0,0,0,0,0,0,0,1,
scooby_state_41bd26|10|-29 0,0,0,0,0,0,0,0,0,0,0,0,0,0,1,1,
scooby_state_412038|42|21 1,0,0,0,0,0,0,0,0,0,0,0,0,0,0,1,
scooby_state_417939|28|-17 1,0,0,0,0,0,0,0,0,0,0,0,0,0,0,1,
scooby_state_412109|32|-27 1,0,0,0,0,0,0,0,0,0,0,0,0,0,0,1,
scooby_state_407cb3|56|40 1,0,0,0,0,0,0,0,0,0,0,0,0,0,0,1,
scooby_state_407cae|57|32 1,0,0,0,0,0,0,0,0,0,0,0,0,0,0,1,
scooby_state_41bd26|40|-5 1,0,0,0,0,0,0,0,0,0,0,0,0,0,0,1,
scooby_state_412109|4|-8 0,1,0,0,0,0,0,0,0,0,0,0,0,0,0,1,
scooby_state_41a950|37|-16 1,0,0,0,0,0,0,0,0,0,0,0,0,0,0,1,
scooby_state_44a916|61|9 1,0,0,0,0,0,0,0,0,0,0,0,0,0,0,1,
scooby_state_4176d7|34|-20 1,0,0,0,0,0,0,0,0,0,0,0,0,0,0,1,
scooby_state_412031|0|-7 1,0,0,0,0,0,0,0,0,0,0,0,0,0,0,1,
scooby_state_41bd26|14|-38 1,0,0,0,0,0,0,0,0,0,0,0,0,0,0,1,
scooby_state_41bd26|34|-26 1,0,0,0,0,0,0,0,0,0,0,0,0,0,0,1,

scooby_action_0_deg_dist 0,7419,0,0,0,0,0,0,0,0,0,0,0,0,0,0,
scooby_action_4_deg_dist 0,1969,55,0,11,0,5,0,0,0,0,0,0,0,0,0,
scooby_action_32_deg_dist 0,978,0,0,0,0,0,0,0,0,0,0,0,0,0,0,
scooby_action_3_deg_dist 0,1565,14,0,0,0,0,0,0,0,0,0,0,0,0,0,
scooby_action_5_deg_dist 0,6683,2030,0,4139,0,6892,0,0,0,0,0,0,0,0,0,
scooby_action_1_deg_dist 0,98990,46918,0,89984,0,576611,0,0,0,0,0,0,0,0,0,
scooby_action_30_deg_dist 0,911,0,0,0,0,0,0,0,0,0,0,0,0,0,0,
scooby_action_-3_deg_dist 0,1457,4,0,3,0,0,0,0,0,0,0,0,0,0,0,
scooby_action_10_deg_dist 0,1198,37,0,15,0,0,0,0,0,0,0,0,0,0,0,
scooby_action_-1_deg_dist 0,2511,45,0,0,0,0,0,0,0,0,0,0,0,0,0,
scooby_action_23_deg_dist 0,1048,0,0,0,0,0,0,0,0,0,0,0,0,0,0,
scooby_action_-6_deg_dist 0,1297,12,0,0,0,0,0,0,0,0,0,0,0,0,0,
scooby_action_11_deg_dist 0,1234,0,0,0,0,0,0,0,0,0,0,0,0,0,0,
scooby_action_22_deg_dist 0,1068,1,0,0,0,0,0,0,0,0,0,0,0,0,0,
scooby_action_12_deg_dist 0,1107,9,0,0,0,0,0,0,0,0,0,0,0,0,0,

scooby_track_called 856220
scooby_track_same_address 14024
scooby_track_evict 841940

scooby_reward_demand_called 856220
scooby_reward_demand_pt_not_found 192888
scooby_reward_demand_pt_found 663332
scooby_reward_demand_pt_found_total 663332
scooby_reward_demand_has_reward 256
scooby_reward_train_called 162869
scooby_reward_assign_reward_called 842191
scooby_reward_no_pref 7419
scooby_reward_incorrect 155450
scooby_reward_correct_untimely 581619
scooby_reward_correct_timely 81457
scooby_reward_out_of_bounds 16246
scooby_reward_tracker_hit 0

scooby_reward_none_low_bw 7419
scooby_reward_none_high_bw 0
scooby_reward_incorrect_low_bw 155450
scooby_reward_incorrect_high_bw 0
scooby_reward_correct_untimely_low_bw 581619
scooby_reward_correct_untimely_high_bw 0
scooby_reward_correct_timely_low_bw 81457
scooby_reward_correct_timely_high_bw 0
scooby_reward_out_of_bounds_low_bw 16246
scooby_reward_out_of_bounds_high_bw 0
scooby_reward_tracker_hit_low_bw 0
scooby_reward_tracker_hit_high_bw 0

scooby_reward_1 0,142557,568312,77506,12348,0,
scooby_reward_3 0,1007,189,69,62,0,
scooby_reward_4 0,1279,242,92,96,0,
scooby_reward_5 0,3217,11500,3229,1558,0,
scooby_reward_10 0,775,105,69,184,0,
scooby_reward_11 0,762,113,73,171,0,
scooby_reward_12 0,649,56,69,208,0,
scooby_reward_22 0,533,77,61,297,0,
scooby_reward_23 0,522,57,56,327,0,
scooby_reward_30 0,357,41,42,387,0,
scooby_reward_32 0,387,89,31,413,0,
scooby_reward_-1 0,1497,604,113,40,0,
scooby_reward_-3 0,980,135,20,63,0,
scooby_reward_-6 0,928,99,27,92,0,
scooby_reward_0 7419,0,0,0,0,0,

scooby_train_called 841939
scooby_train_compute_reward 162869

scooby_register_fill_called 792547
scooby_register_fill_set 136219
scooby_register_fill_set_total 136219

scooby_register_prefetch_hit_called 2635807
scooby_register_prefetch_hit_set 723951
scooby_register_prefetch_hit_set_total 723951

scooby_pref_issue_scooby 3779295

learning_engine_featurewise.action.called 856220
learning_engine_featurewise.action.explore 1554
learning_engine_featurewise.action.exploit 854666
learning_engine_featurewise.action.fallback 0
learning_engine_featurewise.action.dyn_fallback_saved_bw 0
learning_engine_featurewise.action.dyn_fallback_saved_bw_acc 9523
learning_engine_featurewise.action.index_1_explored 103
learning_engine_featurewise.action.index_1_exploited 812400
learning_engine_featurewise.action.index_3_explored 114
learning_engine_featurewise.action.index_3_exploited 1465
learning_engine_featurewise.action.index_4_explored 101
learning_engine_featurewise.action.index_4_exploited 1939
learning_engine_featurewise.action.index_5_explored 102
learning_engine_featurewise.action.index_5_exploited 19642
learning_engine_featurewise.action.index_10_explored 117
learning_engine_featurewise.action.index_10_exploited 1133
learning_engine_featurewise.action.index_11_explored 99
learning_engine_featurewise.action.index_11_exploited 1135
learning_engine_featurewise.action.index_12_explored 109
learning_engine_featurewise.action.index_12_exploited 1007
learning_engine_featurewise.action.index_22_explored 107
learning_engine_featurewise.action.index_22_exploited 962
learning_engine_featurewise.action.index_23_explored 103
learning_engine_featurewise.action.index_23_exploited 945
learning_engine_featurewise.action.index_30_explored 113
learning_engine_featurewise.action.index_30_exploited 798
learning_engine_featurewise.action.index_32_explored 88
learning_engine_featurewise.action.index_32_exploited 890
learning_engine_featurewise.action.index_-1_explored 107
learning_engine_featurewise.action.index_-1_exploited 2449
learning_engine_featurewise.action.index_-3_explored 104
learning_engine_featurewise.action.index_-3_exploited 1360
learning_engine_featurewise.action.index_-6_explored 87
learning_engine_featurewise.action.index_-6_exploited 1222
learning_engine_featurewise.action.index_0_explored 100
learning_engine_featurewise.action.index_0_exploited 7319
learning_engine_featurewise.learn.called 841939
learning_engine_featurewise.learn.su_skip_PC 0
learning_engine_featurewise.learn.su_skip_PC_Delta 0

learning_engine_featurewise.q_value_histogram.bucket_0 0
learning_engine_featurewise.q_value_histogram.bucket_1 0
learning_engine_featurewise.q_value_histogram.bucket_2 480
learning_engine_featurewise.q_value_histogram.bucket_3 18676
learning_engine_featurewise.q_value_histogram.bucket_4 37142
learning_engine_featurewise.q_value_histogram.bucket_5 74034
learning_engine_featurewise.q_value_histogram.bucket_6 724334
learning_engine_featurewise.q_value_histogram.bucket_7 0

learning_engine_featurewise.consensus.total 854666
learning_engine_featurewise.consensus.feature_align_PC 812670
learning_engine_featurewise.consensus.feature_align_PC_ratio 0.95
learning_engine_featurewise.consensus.feature_align_PC_Delta 842044
learning_engine_featurewise.consensus.feature_align_PC_Delta_ratio 0.99
learning_engine_featurewise.consensus.feature_align_all 800048
learning_engine_featurewise.consensus.feature_align_all_ratio 0.94

learning_engine_featurewise.feature_PC_min_weight 1000000.00000000
learning_engine_featurewise.feature_PC_max_weight 0.00000000
learning_engine_featurewise.feature_PC_Delta_min_weight 1000000.00000000
learning_engine_featurewise.feature_PC_Delta_max_weight 0.00000000
unique_pcs 1060
unique_pages 2513
unique_trigger_pcs 381
total_bitmaps_seen 0
unique_bitmaps_seen 0

scooby_bw_epochs 176090
scooby_bw_level_0 107486
scooby_bw_level_1 33494
scooby_bw_level_2 32166
scooby_bw_level_3 2944

scooby_ipc_epochs 0
scooby_ipc_level_0 0
scooby_ipc_level_1 0
scooby_ipc_level_2 0
scooby_ipc_level_3 0

scooby_cache_acc_epochs 42428
scooby_cache_acc_level_0 4433
scooby_cache_acc_level_1 663
scooby_cache_acc_level_2 929
scooby_cache_acc_level_3 2265
scooby_cache_acc_level_4 3707
scooby_cache_acc_level_5 3039
scooby_cache_acc_level_6 1555
scooby_cache_acc_level_7 1176
scooby_cache_acc_level_8 2350
scooby_cache_acc_level_9 22311

Channel_0_RQ_row_buffer_hit 296450
Channel_0_RQ_row_buffer_miss 95547
Channel_0_WQ_row_buffer_hit 1197
Channel_0_WQ_row_buffer_miss 1785
Channel_0_WQ_full 0
Channel_0_dbus_congested 107954

avg_congested_cycle 8

DRAM_bw_pochs 176090
DRAM_bw_level_0 107486
DRAM_bw_level_1 33494
DRAM_bw_level_2 32166
DRAM_bw_level_3 2944
