*************************************************
   ChampSim Multicore Out-of-Order Simulator
   Last compiled: Apr  3 2025 20:54:34
*************************************************
parsing config file: /home/zir/Pythia/config/pythia.ini

trace_0 /home/zir/ChampSim/ML-DPC/ChampSimTraces/spec06/471.omnetpp-s1.trace.gz
adding L2C_PREFETCHER: Scooby
Initialize SHIP state
warmup_instructions 10000000
simulation_instructions 50000000
champsim_seed 164
measure_ipc 0
measure_ipc_epoch 1000
measure_dram_bw 1
measure_dram_bw_epoch 256
measure_cache_acc 1
measure_cache_acc_epoch 1024
l1d_perfect 0
l2c_perfect 0
llc_perfect 0
l1d_semi_perfect 0
l2c_semi_perfect 0
llc_semi_perfect 0
semi_perfect_cache_page_buffer_size 64

num_cpus 1
cpu_freq 4000
dram_io_freq 2400
page_size 4096
block_size 64
max_read_per_cycle 8
max_fill_per_cycle 1
dram_channels 1
log2_dram_channels 0
dram_ranks 1
dram_banks 8
dram_rows 65536
dram_columns 128
dram_row_size 8
dram_size 4096
dram_pages 1048576

fetch_width 6
decode_width 6
exec_width 4
lq_width 2
sq_width 2
retire_width 4
scheduler_size 128
branch_mispredict_penalty 20
rob_size 256
lq_size 72
sq_size 56
num_instr_destinations_sparc 4
num_instr_destinations 2
num_instr_sources 4

itlb_set 16
itlb_way 8
itlb_rq_size 16
itlb_wq_size 16
itlb_pq_size 0
itlb_mshr_size 8
itlb_latency 1

dtlb_set 16
dtlb_way 4
dtlb_rq_size 16
dtlb_wq_size 16
dtlb_pq_size 0
dtlb_mshr_size 8
dtlb_latency 1

stlb_set 128
stlb_way 12
stlb_rq_size 32
stlb_wq_size 32
stlb_pq_size 0
stlb_mshr_size 16
stlb_latency 8

l1i_size 32
l1i_set 64
l1i_way 8
l1i_rq_size 64
l1i_wq_size 64
l1i_pq_size 8
l1i_mshr_size 8
l1i_latency 1

l1d_size 32
l1d_set 64
l1d_way 8
l1d_rq_size 64
l1d_wq_size 64
l1d_pq_size 8
l1d_mshr_size 16
l1d_latency 4

l2c_size 256
l2c_set 512
l2c_way 8
l2c_rq_size 32
l2c_wq_size 32
l2c_pq_size 32
l2c_mshr_size 32
l2c_latency 10

llc_size 2048
llc_set 2048
llc_way 16
llc_rq_size 32
llc_wq_size 32
llc_pq_size 32
llc_mshr_size 64
llc_latency 20

dram_channel_width 8
dram_wq_size 64
dram_rq_size 64
tRP 15
tRCD 15
tCAS 12.5
dram_dbus_turn_around_time 30
dram_write_high_wm 56
dram_write_low_wm 48
min_dram_writes_per_switch 16
dram_mtps 2400
dram_dbus_return_time 13

scooby_alpha 0.0065088
scooby_gamma 0.556301
scooby_epsilon 0.00182284
scooby_state_num_bits 10
scooby_max_states 1024
scooby_seed 200
scooby_policy EGreedy
scooby_learning_type SARSA
scooby_actions 1,3,4,5,10,11,12,22,23,30,32,-1,-3,-6,0,
scooby_max_actions 15
scooby_pt_size 256
scooby_st_size 64
scooby_max_pcs 5
scooby_max_offsets 5
scooby_max_deltas 5
scooby_reward_none -4
scooby_reward_incorrect -8
scooby_reward_correct_untimely 12
scooby_reward_correct_timely 20
scooby_brain_zero_init 0
scooby_enable_reward_all 0
scooby_enable_track_multiple 0
scooby_enable_reward_out_of_bounds 1
scooby_reward_out_of_bounds -12
scooby_state_type 1
scooby_state_hash_type 11
scooby_access_debug 0
scooby_print_access_debug 0
scooby_print_access_debug_pc deadbeef
scooby_print_access_debug_pc_count 0
scooby_print_trace 0
scooby_enable_state_action_stats 1
scooby_enable_reward_tracker_hit 0
scooby_reward_tracker_hit -2
scooby_enable_featurewise_engine 1
scooby_pref_degree 1
scooby_enable_dyn_degree 1
scooby_max_to_avg_q_thresholds 0.5,1,2,
scooby_dyn_degrees 1,2,4,4,
scooby_multi_deg_select_type 2
scooby_last_pref_offset_conf_thresholds 1,3,8,
scooby_dyn_degrees_type2 1,2,4,6,
scooby_action_tracker_size 2
scooby_high_bw_thresh 4
scooby_enable_hbw_reward 1
scooby_reward_hbw_correct_timely 20
scooby_reward_hbw_correct_untimely 12
scooby_reward_hbw_incorrect -14
scooby_reward_hbw_none -2
scooby_reward_hbw_out_of_bounds -12
scooby_reward_hbw_tracker_hit -2
scooby_last_pref_offset_conf_thresholds_hbw 1,3,8,
scooby_dyn_degrees_type2_hbw 1,2,4,6,

le_enable_trace 0
le_trace_interval 0
le_trace_file_name 
le_trace_state 0
le_enable_score_plot 0
le_plot_file_name 
le_plot_actions 
le_enable_action_trace 0
le_action_trace_interval 0
le_action_trace_name 
le_enable_action_plot 0

le_featurewise_active_features PC, PC_Delta
le_featurewise_num_tilings 3,3,
le_featurewise_num_tiles 128,128,
le_featurewise_hash_types 2,2,
le_featurewise_enable_tiling_offset 1,1,
le_featurewise_max_q_thresh 0.5
le_featurewise_enable_action_fallback 1
le_featurewise_feature_weights 1,1,
le_featurewise_enable_dynamic_weight 0
le_featurewise_weight_gradient 0.001
le_featurewise_disable_adjust_weight_all_features_align 1
le_featurewise_selective_update 0
le_featurewise_pooling_type 2
le_featurewise_enable_dyn_action_fallback 1
le_featurewise_bw_acc_check_level 1
le_featurewise_acc_thresh 2
le_featurewise_enable_trace 0
le_featurewise_trace_feature_type 0
le_featurewise_trace_feature 
le_featurewise_trace_interval 0
le_featurewise_trace_record_count 0
le_featurewise_trace_file_name 
le_featurewise_enable_score_plot 0
le_featurewise_plot_actions 
le_featurewise_plot_file_name 


Heartbeat CPU  0 instructions:    1000001 cycles:     686964 heartbeat IPC: 1.45568 cumulative IPC: 1.45568 (Simulation time: 0 hr 0 min 2 sec) 
Heartbeat CPU  0 instructions:    2000000 cycles:    1452159 heartbeat IPC: 1.30686 cumulative IPC: 1.37726 (Simulation time: 0 hr 0 min 4 sec) 
Heartbeat CPU  0 instructions:    3000001 cycles:    2227133 heartbeat IPC: 1.29037 cumulative IPC: 1.34702 (Simulation time: 0 hr 0 min 6 sec) 
Heartbeat CPU  0 instructions:    4000000 cycles:    2947669 heartbeat IPC: 1.38785 cumulative IPC: 1.35700 (Simulation time: 0 hr 0 min 7 sec) 
Heartbeat CPU  0 instructions:    5000002 cycles:    3715974 heartbeat IPC: 1.30157 cumulative IPC: 1.34554 (Simulation time: 0 hr 0 min 9 sec) 
Heartbeat CPU  0 instructions:    6000003 cycles:    4452508 heartbeat IPC: 1.35771 cumulative IPC: 1.34756 (Simulation time: 0 hr 0 min 11 sec) 
Heartbeat CPU  0 instructions:    7000003 cycles:    5208473 heartbeat IPC: 1.32281 cumulative IPC: 1.34396 (Simulation time: 0 hr 0 min 13 sec) 
Heartbeat CPU  0 instructions:    8000000 cycles:    5892572 heartbeat IPC: 1.46177 cumulative IPC: 1.35764 (Simulation time: 0 hr 0 min 15 sec) 
Heartbeat CPU  0 instructions:    9000002 cycles:    6595478 heartbeat IPC: 1.42267 cumulative IPC: 1.36457 (Simulation time: 0 hr 0 min 17 sec) 
Heartbeat CPU  0 instructions:   10000002 cycles:    7280524 heartbeat IPC: 1.45976 cumulative IPC: 1.37353 (Simulation time: 0 hr 0 min 19 sec) 

Warmup complete CPU  0 instructions:   10000002 cycles:    7280524 (Simulation time: 0 hr 0 min 19 sec) 

Heartbeat CPU  0 instructions:   11000000 cycles:   10860745 heartbeat IPC: 0.27931 cumulative IPC: 0.27931 (Simulation time: 0 hr 0 min 21 sec) 
Heartbeat CPU  0 instructions:   12000000 cycles:   14499206 heartbeat IPC: 0.27484 cumulative IPC: 0.27706 (Simulation time: 0 hr 0 min 24 sec) 
Heartbeat CPU  0 instructions:   13000000 cycles:   18292909 heartbeat IPC: 0.26359 cumulative IPC: 0.27242 (Simulation time: 0 hr 0 min 27 sec) 
Heartbeat CPU  0 instructions:   14000001 cycles:   22188562 heartbeat IPC: 0.25670 cumulative IPC: 0.26831 (Simulation time: 0 hr 0 min 30 sec) 
Heartbeat CPU  0 instructions:   15000003 cycles:   26204393 heartbeat IPC: 0.24901 cumulative IPC: 0.26422 (Simulation time: 0 hr 0 min 33 sec) 
Heartbeat CPU  0 instructions:   16000000 cycles:   30518714 heartbeat IPC: 0.23179 cumulative IPC: 0.25820 (Simulation time: 0 hr 0 min 36 sec) 
Heartbeat CPU  0 instructions:   17000000 cycles:   34258890 heartbeat IPC: 0.26737 cumulative IPC: 0.25947 (Simulation time: 0 hr 0 min 39 sec) 
Heartbeat CPU  0 instructions:   18000000 cycles:   38166282 heartbeat IPC: 0.25593 cumulative IPC: 0.25902 (Simulation time: 0 hr 0 min 42 sec) 
Heartbeat CPU  0 instructions:   19000000 cycles:   42379453 heartbeat IPC: 0.23735 cumulative IPC: 0.25642 (Simulation time: 0 hr 0 min 45 sec) 
Heartbeat CPU  0 instructions:   20000000 cycles:   46350158 heartbeat IPC: 0.25184 cumulative IPC: 0.25595 (Simulation time: 0 hr 0 min 48 sec) 
Heartbeat CPU  0 instructions:   21000000 cycles:   49892530 heartbeat IPC: 0.28230 cumulative IPC: 0.25814 (Simulation time: 0 hr 0 min 51 sec) 
Heartbeat CPU  0 instructions:   22000001 cycles:   53687145 heartbeat IPC: 0.26353 cumulative IPC: 0.25858 (Simulation time: 0 hr 0 min 54 sec) 
Heartbeat CPU  0 instructions:   23000001 cycles:   57476670 heartbeat IPC: 0.26389 cumulative IPC: 0.25898 (Simulation time: 0 hr 0 min 57 sec) 
Heartbeat CPU  0 instructions:   24000000 cycles:   61191792 heartbeat IPC: 0.26917 cumulative IPC: 0.25969 (Simulation time: 0 hr 1 min 0 sec) 
Heartbeat CPU  0 instructions:   25000000 cycles:   65067582 heartbeat IPC: 0.25801 cumulative IPC: 0.25957 (Simulation time: 0 hr 1 min 3 sec) 
Heartbeat CPU  0 instructions:   26000001 cycles:   68970220 heartbeat IPC: 0.25624 cumulative IPC: 0.25936 (Simulation time: 0 hr 1 min 6 sec) 
Heartbeat CPU  0 instructions:   27000000 cycles:   73016808 heartbeat IPC: 0.24712 cumulative IPC: 0.25861 (Simulation time: 0 hr 1 min 9 sec) 
Heartbeat CPU  0 instructions:   28000000 cycles:   77184421 heartbeat IPC: 0.23995 cumulative IPC: 0.25750 (Simulation time: 0 hr 1 min 12 sec) 
Heartbeat CPU  0 instructions:   29000003 cycles:   81323648 heartbeat IPC: 0.24159 cumulative IPC: 0.25661 (Simulation time: 0 hr 1 min 15 sec) 
Heartbeat CPU  0 instructions:   30000000 cycles:   85150714 heartbeat IPC: 0.26130 cumulative IPC: 0.25684 (Simulation time: 0 hr 1 min 18 sec) 
Heartbeat CPU  0 instructions:   31000000 cycles:   89007505 heartbeat IPC: 0.25928 cumulative IPC: 0.25695 (Simulation time: 0 hr 1 min 21 sec) 
Heartbeat CPU  0 instructions:   32000000 cycles:   92687644 heartbeat IPC: 0.27173 cumulative IPC: 0.25759 (Simulation time: 0 hr 1 min 24 sec) 
Heartbeat CPU  0 instructions:   33000003 cycles:   96432444 heartbeat IPC: 0.26704 cumulative IPC: 0.25799 (Simulation time: 0 hr 1 min 27 sec) 
Heartbeat CPU  0 instructions:   34000001 cycles:  100595885 heartbeat IPC: 0.24019 cumulative IPC: 0.25719 (Simulation time: 0 hr 1 min 30 sec) 
Heartbeat CPU  0 instructions:   35000002 cycles:  104114495 heartbeat IPC: 0.28420 cumulative IPC: 0.25817 (Simulation time: 0 hr 1 min 32 sec) 
Heartbeat CPU  0 instructions:   36000000 cycles:  108506592 heartbeat IPC: 0.22768 cumulative IPC: 0.25685 (Simulation time: 0 hr 1 min 36 sec) 
Heartbeat CPU  0 instructions:   37000000 cycles:  112832621 heartbeat IPC: 0.23116 cumulative IPC: 0.25580 (Simulation time: 0 hr 1 min 39 sec) 
Heartbeat CPU  0 instructions:   38000000 cycles:  116499984 heartbeat IPC: 0.27268 cumulative IPC: 0.25636 (Simulation time: 0 hr 1 min 41 sec) 
Heartbeat CPU  0 instructions:   39000001 cycles:  120673208 heartbeat IPC: 0.23962 cumulative IPC: 0.25575 (Simulation time: 0 hr 1 min 44 sec) 
Heartbeat CPU  0 instructions:   40000000 cycles:  124117706 heartbeat IPC: 0.29032 cumulative IPC: 0.25677 (Simulation time: 0 hr 1 min 47 sec) 
Heartbeat CPU  0 instructions:   41000000 cycles:  127742135 heartbeat IPC: 0.27591 cumulative IPC: 0.25734 (Simulation time: 0 hr 1 min 50 sec) 
Heartbeat CPU  0 instructions:   42000001 cycles:  131959148 heartbeat IPC: 0.23713 cumulative IPC: 0.25666 (Simulation time: 0 hr 1 min 53 sec) 
Heartbeat CPU  0 instructions:   43000001 cycles:  135957646 heartbeat IPC: 0.25009 cumulative IPC: 0.25646 (Simulation time: 0 hr 1 min 56 sec) 
Heartbeat CPU  0 instructions:   44000000 cycles:  139493876 heartbeat IPC: 0.28279 cumulative IPC: 0.25716 (Simulation time: 0 hr 1 min 59 sec) 
Heartbeat CPU  0 instructions:   45000003 cycles:  143438263 heartbeat IPC: 0.25353 cumulative IPC: 0.25705 (Simulation time: 0 hr 2 min 2 sec) 
Heartbeat CPU  0 instructions:   46000003 cycles:  147644940 heartbeat IPC: 0.23772 cumulative IPC: 0.25648 (Simulation time: 0 hr 2 min 5 sec) 
Heartbeat CPU  0 instructions:   47000000 cycles:  150844879 heartbeat IPC: 0.31251 cumulative IPC: 0.25772 (Simulation time: 0 hr 2 min 7 sec) 
Heartbeat CPU  0 instructions:   48000000 cycles:  154896952 heartbeat IPC: 0.24679 cumulative IPC: 0.25742 (Simulation time: 0 hr 2 min 10 sec) 
Heartbeat CPU  0 instructions:   49000000 cycles:  158015168 heartbeat IPC: 0.32070 cumulative IPC: 0.25873 (Simulation time: 0 hr 2 min 13 sec) 
Heartbeat CPU  0 instructions:   50000001 cycles:  162082976 heartbeat IPC: 0.24583 cumulative IPC: 0.25839 (Simulation time: 0 hr 2 min 16 sec) 
Heartbeat CPU  0 instructions:   51000003 cycles:  165744272 heartbeat IPC: 0.27313 cumulative IPC: 0.25873 (Simulation time: 0 hr 2 min 18 sec) 
Heartbeat CPU  0 instructions:   52000000 cycles:  169843908 heartbeat IPC: 0.24392 cumulative IPC: 0.25836 (Simulation time: 0 hr 2 min 22 sec) 
Heartbeat CPU  0 instructions:   53000000 cycles:  174515263 heartbeat IPC: 0.21407 cumulative IPC: 0.25712 (Simulation time: 0 hr 2 min 25 sec) 
Heartbeat CPU  0 instructions:   54000002 cycles:  178504917 heartbeat IPC: 0.25065 cumulative IPC: 0.25697 (Simulation time: 0 hr 2 min 28 sec) 
Heartbeat CPU  0 instructions:   55000001 cycles:  182422667 heartbeat IPC: 0.25525 cumulative IPC: 0.25693 (Simulation time: 0 hr 2 min 31 sec) 
Heartbeat CPU  0 instructions:   56000000 cycles:  186915161 heartbeat IPC: 0.22259 cumulative IPC: 0.25608 (Simulation time: 0 hr 2 min 34 sec) 
Heartbeat CPU  0 instructions:   57000001 cycles:  191007516 heartbeat IPC: 0.24436 cumulative IPC: 0.25581 (Simulation time: 0 hr 2 min 37 sec) 
Heartbeat CPU  0 instructions:   58000000 cycles:  194314783 heartbeat IPC: 0.30236 cumulative IPC: 0.25664 (Simulation time: 0 hr 2 min 40 sec) 
Heartbeat CPU  0 instructions:   59000003 cycles:  198292360 heartbeat IPC: 0.25141 cumulative IPC: 0.25653 (Simulation time: 0 hr 2 min 43 sec) 
Heartbeat CPU  0 instructions:   60000000 cycles:  202845728 heartbeat IPC: 0.21962 cumulative IPC: 0.25567 (Simulation time: 0 hr 2 min 46 sec) 
Finished CPU 0 instructions: 50000002 cycles: 195565213 cumulative IPC: 0.25567 (Simulation time: 0 hr 2 min 46 sec) 

ChampSim completed all CPUs

[ROI Statistics]
Core_0_instructions 50000002
Core_0_cycles 195565213
Core_0_IPC 0.25567

Core_0_branch_prediction_accuracy 97.38249
Core_0_branch_MPKI 4.77280
Core_0_average_ROB_occupancy_at_mispredict 95.90427

Core_0_L1D_total_access 18924760
Core_0_L1D_total_hit 17633082
Core_0_L1D_total_miss 1291678
Core_0_L1D_loads 10864669
Core_0_L1D_load_hit 9740468
Core_0_L1D_load_miss 1124201
Core_0_L1D_RFOs 8060091
Core_0_L1D_RFO_hit 7892614
Core_0_L1D_RFO_miss 167477
Core_0_L1D_prefetches 0
Core_0_L1D_prefetch_hit 0
Core_0_L1D_prefetch_miss 0
Core_0_L1D_writebacks 0
Core_0_L1D_writeback_hit 0
Core_0_L1D_writeback_miss 0
Core_0_L1D_prefetch_requested 0
Core_0_L1D_prefetch_dropped 0
Core_0_L1D_prefetch_issued 0
Core_0_L1D_prefetch_filled 0
Core_0_L1D_prefetch_useful 0
Core_0_L1D_prefetch_useless 0
Core_0_L1D_prefetch_late 0
Core_0_L1D_average_miss_latency 125.99602

Core_0_L1D_rq_access 13670580
Core_0_L1D_rq_forward 0
Core_0_L1D_rq_merged 2688409
Core_0_L1D_rq_to_cache 10981494
Core_0_L1D_rq_full 0

Core_0_L1D_wq_access 8593143
Core_0_L1D_wq_forward 677
Core_0_L1D_wq_merged 83681
Core_0_L1D_wq_to_cache 8509462
Core_0_L1D_wq_full 0

Core_0_L1D_pq_access 0
Core_0_L1D_pq_forward 0
Core_0_L1D_pq_merged 0
Core_0_L1D_pq_to_cache 0
Core_0_L1D_pq_full 0

Core_0_L1D_acc_epochs 175701
Core_0_L1D_acc_level_0 175701
Core_0_L1D_acc_level_1 0
Core_0_L1D_acc_level_2 0
Core_0_L1D_acc_level_3 0
Core_0_L1D_acc_level_4 0
Core_0_L1D_acc_level_5 0
Core_0_L1D_acc_level_6 0
Core_0_L1D_acc_level_7 0
Core_0_L1D_acc_level_8 0
Core_0_L1D_acc_level_9 0

Core_0_L1I_total_access 15982970
Core_0_L1I_total_hit 15979564
Core_0_L1I_total_miss 3406
Core_0_L1I_loads 15982970
Core_0_L1I_load_hit 15979564
Core_0_L1I_load_miss 3406
Core_0_L1I_RFOs 0
Core_0_L1I_RFO_hit 0
Core_0_L1I_RFO_miss 0
Core_0_L1I_prefetches 0
Core_0_L1I_prefetch_hit 0
Core_0_L1I_prefetch_miss 0
Core_0_L1I_writebacks 0
Core_0_L1I_writeback_hit 0
Core_0_L1I_writeback_miss 0
Core_0_L1I_prefetch_requested 0
Core_0_L1I_prefetch_dropped 0
Core_0_L1I_prefetch_issued 0
Core_0_L1I_prefetch_filled 0
Core_0_L1I_prefetch_useful 0
Core_0_L1I_prefetch_useless 0
Core_0_L1I_prefetch_late 0
Core_0_L1I_average_miss_latency 69.35731

Core_0_L1I_rq_access 50000006
Core_0_L1I_rq_forward 0
Core_0_L1I_rq_merged 34015230
Core_0_L1I_rq_to_cache 15984776
Core_0_L1I_rq_full 0

Core_0_L1I_wq_access 0
Core_0_L1I_wq_forward 0
Core_0_L1I_wq_merged 0
Core_0_L1I_wq_to_cache 0
Core_0_L1I_wq_full 0

Core_0_L1I_pq_access 0
Core_0_L1I_pq_forward 0
Core_0_L1I_pq_merged 0
Core_0_L1I_pq_to_cache 0
Core_0_L1I_pq_full 0

Core_0_L1I_acc_epochs 175701
Core_0_L1I_acc_level_0 175701
Core_0_L1I_acc_level_1 0
Core_0_L1I_acc_level_2 0
Core_0_L1I_acc_level_3 0
Core_0_L1I_acc_level_4 0
Core_0_L1I_acc_level_5 0
Core_0_L1I_acc_level_6 0
Core_0_L1I_acc_level_7 0
Core_0_L1I_acc_level_8 0
Core_0_L1I_acc_level_9 0

Core_0_L2C_total_access 2689916
Core_0_L2C_total_hit 1162265
Core_0_L2C_total_miss 1527651
Core_0_L2C_loads 1127543
Core_0_L2C_load_hit 386302
Core_0_L2C_load_miss 741241
Core_0_L2C_RFOs 167471
Core_0_L2C_RFO_hit 22735
Core_0_L2C_RFO_miss 144736
Core_0_L2C_prefetches 843641
Core_0_L2C_prefetch_hit 204799
Core_0_L2C_prefetch_miss 638842
Core_0_L2C_writebacks 551261
Core_0_L2C_writeback_hit 548429
Core_0_L2C_writeback_miss 2832
Core_0_L2C_prefetch_requested 1207023
Core_0_L2C_prefetch_dropped 0
Core_0_L2C_prefetch_issued 1207023
Core_0_L2C_prefetch_filled 786943
Core_0_L2C_prefetch_useful 312484
Core_0_L2C_prefetch_useless 473475
Core_0_L2C_prefetch_late 49203
Core_0_L2C_average_miss_latency 169.12554

Core_0_L2C_rq_access 1295086
Core_0_L2C_rq_forward 0
Core_0_L2C_rq_merged 0
Core_0_L2C_rq_to_cache 1295015
Core_0_L2C_rq_full 0

Core_0_L2C_wq_access 551261
Core_0_L2C_wq_forward 72
Core_0_L2C_wq_merged 0
Core_0_L2C_wq_to_cache 551261
Core_0_L2C_wq_full 0

Core_0_L2C_pq_access 1207023
Core_0_L2C_pq_forward 0
Core_0_L2C_pq_merged 10542
Core_0_L2C_pq_to_cache 1196480
Core_0_L2C_pq_full 0

Core_0_L2C_acc_epochs 175701
Core_0_L2C_acc_level_0 14462
Core_0_L2C_acc_level_1 15489
Core_0_L2C_acc_level_2 22846
Core_0_L2C_acc_level_3 28470
Core_0_L2C_acc_level_4 26485
Core_0_L2C_acc_level_5 22989
Core_0_L2C_acc_level_6 16908
Core_0_L2C_acc_level_7 10652
Core_0_L2C_acc_level_8 6431
Core_0_L2C_acc_level_9 10969

Core_0_LLC_total_access 2016551
Core_0_LLC_total_hit 690991
Core_0_LLC_total_miss 1325560
Core_0_LLC_loads 695396
Core_0_LLC_load_hit 198987
Core_0_LLC_load_miss 496409
Core_0_LLC_RFOs 144057
Core_0_LLC_RFO_hit 37669
Core_0_LLC_RFO_miss 106388
Core_0_LLC_prefetches 685365
Core_0_LLC_prefetch_hit 137741
Core_0_LLC_prefetch_miss 547624
Core_0_LLC_writebacks 491733
Core_0_LLC_writeback_hit 316594
Core_0_LLC_writeback_miss 175139
Core_0_LLC_prefetch_requested 0
Core_0_LLC_prefetch_dropped 0
Core_0_LLC_prefetch_issued 0
Core_0_LLC_prefetch_filled 672086
Core_0_LLC_prefetch_useful 18167
Core_0_LLC_prefetch_useless 646980
Core_0_LLC_prefetch_late 0
Core_0_LLC_average_miss_latency 158.30543

Core_0_LLC_rq_access 839455
Core_0_LLC_rq_forward 0
Core_0_LLC_rq_merged 0
Core_0_LLC_rq_to_cache 839454
Core_0_LLC_rq_full 0

Core_0_LLC_wq_access 491733
Core_0_LLC_wq_forward 1
Core_0_LLC_wq_merged 0
Core_0_LLC_wq_to_cache 491733
Core_0_LLC_wq_full 0

Core_0_LLC_pq_access 836146
Core_0_LLC_pq_forward 0
Core_0_LLC_pq_merged 0
Core_0_LLC_pq_to_cache 836146
Core_0_LLC_pq_full 0

Core_0_LLC_acc_epochs 198092
Core_0_LLC_acc_level_0 179299
Core_0_LLC_acc_level_1 9217
Core_0_LLC_acc_level_2 5029
Core_0_LLC_acc_level_3 1066
Core_0_LLC_acc_level_4 224
Core_0_LLC_acc_level_5 2423
Core_0_LLC_acc_level_6 232
Core_0_LLC_acc_level_7 152
Core_0_LLC_acc_level_8 47
Core_0_LLC_acc_level_9 403

Core_0_major_page_fault 0
Core_0_minor_page_fault 33482

scooby_st_lookup 1355682
scooby_st_hit 894670
scooby_st_evict 460948
scooby_st_insert 461012
scooby_st_streaming 0

scooby_predict_called 1355682
scooby_predict_out_of_bounds 55353
scooby_predict_action_1 725233
scooby_predict_issue_action_1 628784
scooby_predict_hit_action_1 96449
scooby_predict_out_of_bounds_action_1 12337
scooby_predict_action_3 210227
scooby_predict_issue_action_3 201312
scooby_predict_hit_action_3 8915
scooby_predict_out_of_bounds_action_3 10384
scooby_predict_action_4 57039
scooby_predict_issue_action_4 50127
scooby_predict_hit_action_4 6912
scooby_predict_out_of_bounds_action_4 3692
scooby_predict_action_5 29058
scooby_predict_issue_action_5 28589
scooby_predict_hit_action_5 469
scooby_predict_out_of_bounds_action_5 2423
scooby_predict_action_10 42850
scooby_predict_issue_action_10 30531
scooby_predict_hit_action_10 12319
scooby_predict_out_of_bounds_action_10 7644
scooby_predict_action_11 21259
scooby_predict_issue_action_11 20287
scooby_predict_hit_action_11 972
scooby_predict_out_of_bounds_action_11 4581
scooby_predict_action_12 12947
scooby_predict_issue_action_12 10688
scooby_predict_hit_action_12 2259
scooby_predict_out_of_bounds_action_12 2435
scooby_predict_action_22 2406
scooby_predict_issue_action_22 2365
scooby_predict_hit_action_22 41
scooby_predict_out_of_bounds_action_22 1031
scooby_predict_action_23 2345
scooby_predict_issue_action_23 2303
scooby_predict_hit_action_23 42
scooby_predict_out_of_bounds_action_23 1037
scooby_predict_action_30 3288
scooby_predict_issue_action_30 3193
scooby_predict_hit_action_30 95
scooby_predict_out_of_bounds_action_30 2554
scooby_predict_action_32 2630
scooby_predict_issue_action_32 1907
scooby_predict_hit_action_32 723
scooby_predict_out_of_bounds_action_32 1830
scooby_predict_action_-1 82824
scooby_predict_issue_action_-1 57009
scooby_predict_hit_action_-1 25815
scooby_predict_out_of_bounds_action_-1 1189
scooby_predict_action_-3 31842
scooby_predict_issue_action_-3 24929
scooby_predict_hit_action_-3 6913
scooby_predict_out_of_bounds_action_-3 1563
scooby_predict_action_-6 31010
scooby_predict_issue_action_-6 25340
scooby_predict_hit_action_-6 5670
scooby_predict_out_of_bounds_action_-6 2653
scooby_predict_action_0 45371
scooby_predict_issue_action_0 0
scooby_predict_hit_action_0 0
scooby_predict_out_of_bounds_action_0 0
scooby_predict_multi_deg_called 73047
scooby_predict_predicted 1207023
scooby_predict_multi_deg 119659
scooby_predict_multi_deg_2 69950
scooby_predict_multi_deg_3 19989
scooby_predict_multi_deg_4 19272
scooby_predict_multi_deg_5 5301
scooby_predict_multi_deg_6 5147
scooby_predict_multi_deg_7 0
scooby_predict_multi_deg_8 0
scooby_predict_multi_deg_9 0
scooby_predict_multi_deg_10 0
scooby_predict_multi_deg_11 0
scooby_predict_multi_deg_12 0
scooby_predict_multi_deg_13 0
scooby_predict_multi_deg_14 0
scooby_predict_multi_deg_15 0
scooby_predict_multi_deg_16 0

scooby_selected_deg_1 1014317
scooby_selected_deg_2 51459
scooby_selected_deg_3 0
scooby_selected_deg_4 15619
scooby_selected_deg_5 0
scooby_selected_deg_6 5969
scooby_selected_deg_7 0
scooby_selected_deg_8 0
scooby_selected_deg_9 0
scooby_selected_deg_10 0
scooby_selected_deg_11 0
scooby_selected_deg_12 0
scooby_selected_deg_13 0
scooby_selected_deg_14 0
scooby_selected_deg_15 0
scooby_selected_deg_16 0

scooby_state_45ff56|31|0 1374,2,0,4,1,0,2,3,2,0,1,22,3,0,7,1421,
scooby_state_45ff56|32|0 1371,0,2,1,4,1,2,2,0,1,3,14,2,1,5,1409,
scooby_state_45ff62|34|0 1279,1,1,8,2,2,0,1,1,1,0,27,2,63,1,1389,
scooby_state_45ff62|32|0 1270,1,2,4,2,2,1,3,1,4,3,28,2,61,2,1386,
scooby_state_45ff62|36|0 1209,1,2,5,2,3,1,3,1,0,4,24,1,79,2,1337,
scooby_state_45ff56|7|0 1275,0,2,4,0,2,1,3,1,3,3,21,4,2,8,1329,
scooby_state_45ff62|57|0 1214,1,4,5,2,0,0,0,0,3,1,20,0,65,4,1319,
scooby_state_45ff56|1|0 1275,0,3,0,1,1,0,1,1,2,1,17,4,0,4,1310,
scooby_state_45ff56|36|0 1285,3,0,1,1,0,0,0,0,0,0,7,6,1,5,1309,
scooby_state_45ff56|34|0 1271,0,2,0,1,1,0,3,0,1,2,14,11,0,3,1309,
scooby_state_45ff62|1|0 1180,1,1,2,3,1,6,0,2,1,1,37,2,68,1,1306,
scooby_state_45ff56|57|0 1265,2,1,1,1,0,1,1,0,0,0,11,7,2,4,1296,
scooby_state_45ff62|3|0 1180,1,2,2,4,2,0,0,0,1,2,28,3,66,4,1295,
scooby_state_45ff62|63|0 1182,2,2,4,2,1,1,4,1,0,1,27,3,50,3,1283,
scooby_state_45ff62|31|0 1185,0,0,12,1,0,1,1,3,2,0,21,0,51,4,1281,
scooby_state_45ff56|3|0 1244,0,1,2,3,1,0,0,0,0,1,15,8,2,2,1279,
scooby_state_45ff56|28|0 1240,0,1,1,1,0,0,1,1,1,2,17,3,2,3,1273,
scooby_state_45ff56|0|0 1218,2,0,1,2,1,0,1,0,1,2,20,6,2,8,1264,
scooby_state_45ff62|30|0 1170,1,2,4,1,2,1,1,1,0,0,19,0,51,2,1255,
scooby_state_45ff62|0|0 1141,5,0,7,0,0,1,0,1,0,2,23,1,71,3,1255,
scooby_state_45ff62|38|0 1135,0,1,7,0,3,1,1,0,1,1,24,0,61,2,1237,
scooby_state_45ff56|63|0 1172,0,1,1,3,1,2,1,1,0,0,22,9,1,12,1226,
scooby_state_45ff62|7|0 1098,1,8,2,1,4,0,2,2,5,5,27,1,49,3,1208,
scooby_state_45ff56|30|0 1164,3,0,2,1,2,1,1,0,1,0,11,8,2,4,1200,
scooby_state_45ff56|53|0 1173,1,2,0,1,3,1,0,1,0,0,13,1,2,1,1199,
scooby_state_45ff62|33|0 1091,0,2,3,2,1,0,3,1,0,0,17,2,65,3,1190,
scooby_state_45ff62|18|0 1092,1,0,5,0,2,2,1,3,2,0,15,0,64,1,1188,
scooby_state_45ff62|35|0 1096,2,0,4,0,3,0,0,0,1,2,15,1,59,4,1187,
scooby_state_45ff62|14|0 1084,0,4,4,0,0,1,2,1,3,1,24,0,51,1,1176,
scooby_state_45ff62|28|0 1067,0,3,4,1,2,0,1,0,1,0,35,0,57,2,1173,
scooby_state_45ff62|37|0 1076,2,0,4,0,1,2,0,1,1,0,23,2,57,0,1169,
scooby_state_45ff56|54|0 1133,0,0,0,0,0,2,2,0,1,0,19,4,1,3,1165,
scooby_state_45ff62|49|0 1043,0,0,6,2,1,0,1,0,0,3,33,1,59,3,1152,
scooby_state_45ff56|33|0 1126,0,1,2,0,1,1,0,0,2,1,10,7,0,1,1152,
scooby_state_45ff56|18|0 1121,1,0,1,0,1,0,1,1,1,1,14,4,1,4,1151,
scooby_state_45ff62|17|0 1035,1,3,5,0,2,0,0,0,1,1,25,2,70,3,1148,
scooby_state_45ff56|59|0 1104,2,3,0,2,0,0,1,1,2,1,16,7,1,6,1146,
scooby_state_45ff62|56|0 1050,0,5,7,0,0,0,1,2,2,3,22,0,47,5,1144,
scooby_state_45ff56|38|0 1112,1,2,0,0,2,0,0,1,0,1,11,7,1,3,1141,
scooby_state_45ff56|49|0 1095,1,1,1,4,0,0,3,2,0,0,16,9,0,1,1133,
scooby_state_445607|31|0 809,0,51,3,4,3,8,4,3,5,11,18,197,2,9,1127,
scooby_state_45ff56|35|0 1093,1,0,1,0,0,1,0,1,1,3,13,4,1,4,1123,
scooby_state_45ff62|59|0 1010,3,1,5,1,2,2,1,0,1,1,23,0,68,1,1119,
scooby_state_45ff56|61|0 1078,1,1,1,0,3,0,0,1,0,3,12,6,1,7,1114,
scooby_state_45ff56|40|0 1085,2,1,0,2,1,1,0,2,1,0,11,3,1,3,1113,
scooby_state_45ff62|41|0 1004,0,0,1,0,0,2,1,1,2,2,24,0,69,3,1109,
scooby_state_45ff56|37|0 1092,0,0,1,0,3,0,0,0,1,1,1,5,0,4,1108,
scooby_state_45ff62|22|0 992,2,5,5,2,1,0,0,1,0,0,31,1,61,6,1107,
scooby_state_45ff56|17|0 1077,1,0,1,0,1,1,2,1,2,1,9,9,0,1,1106,
scooby_state_46d196|31|0 249,338,45,1,29,60,27,34,30,45,39,23,37,6,142,1105,
scooby_state_45ff56|56|0 1064,2,1,0,3,0,2,0,0,2,0,16,4,4,6,1104,
scooby_state_45ff62|53|0 994,1,0,8,2,0,1,0,0,0,1,23,1,59,4,1094,
scooby_state_45ff56|42|0 1064,1,0,2,0,2,2,2,0,1,1,14,2,0,2,1093,
scooby_state_45ff56|55|0 1037,3,2,1,2,4,3,2,1,2,1,25,2,0,3,1088,
scooby_state_45ff56|12|0 1054,2,0,2,1,1,1,2,1,1,0,15,2,3,1,1086,
scooby_state_45ff62|48|0 1013,1,0,4,0,0,0,2,0,0,0,18,0,43,5,1086,
scooby_state_45ff62|60|0 1001,0,2,3,0,1,1,0,0,0,1,19,1,48,4,1081,
scooby_state_45ff62|26|0 990,1,0,3,0,0,1,0,1,1,0,17,2,60,1,1077,
scooby_state_45ff56|20|0 1040,0,1,1,0,0,0,1,1,0,1,22,7,0,3,1077,
scooby_state_45ff62|19|0 967,1,1,3,0,0,2,1,2,2,1,27,2,62,3,1074,
scooby_state_45ff56|26|0 1047,0,1,1,1,0,0,1,0,0,0,14,1,2,5,1073,
scooby_state_45ff56|19|0 1038,0,1,1,0,0,4,1,1,2,1,13,2,3,6,1073,
scooby_state_45ff56|14|0 1046,0,1,1,0,0,1,1,0,1,0,10,1,0,3,1065,
scooby_state_45ff56|24|0 1025,5,0,2,0,0,0,0,1,0,3,16,4,0,5,1061,
scooby_state_45ff56|27|0 1032,1,1,1,1,1,0,1,0,0,0,14,2,1,6,1061,
scooby_state_45ff62|5|0 968,0,0,5,0,1,1,2,0,0,2,28,1,50,0,1058,
scooby_state_45ff56|4|0 1026,2,0,0,0,1,0,1,2,2,0,14,4,0,5,1057,
scooby_state_45ff62|45|0 958,1,2,6,2,1,0,1,1,1,0,20,0,59,2,1054,
scooby_state_45ff56|47|0 1006,3,0,1,2,0,1,0,3,1,0,22,3,1,6,1049,
scooby_state_45ff62|16|0 951,1,3,3,2,1,0,1,1,1,0,23,1,58,3,1049,
scooby_state_45ff62|24|0 947,0,0,6,1,1,3,0,1,1,1,23,1,62,1,1048,
scooby_state_45ff56|2|0 1024,1,1,3,1,0,2,0,2,2,1,4,4,0,1,1046,
scooby_state_45ff56|41|0 1009,1,1,1,2,1,3,1,0,1,0,13,5,4,3,1045,
scooby_state_45ff62|25|0 944,1,2,6,0,2,1,0,0,1,1,23,1,61,1,1044,
scooby_state_45ff62|39|0 959,0,0,3,0,3,0,0,0,0,0,18,1,59,0,1043,
scooby_state_45ff56|60|0 1019,0,0,0,0,1,0,0,1,0,0,12,1,1,6,1041,
scooby_state_45ff62|47|0 952,1,2,4,0,1,0,2,0,0,0,22,2,52,2,1040,
scooby_state_45ff62|29|0 953,1,5,3,0,2,0,0,1,1,1,26,0,46,0,1039,
scooby_state_45ff62|15|0 935,0,1,3,3,0,2,0,1,2,0,33,1,52,5,1038,
scooby_state_45ff62|52|0 959,0,2,6,0,1,0,0,1,1,0,16,0,48,2,1036,
scooby_state_45ff56|25|0 1003,0,1,0,1,0,0,0,0,1,3,13,5,0,5,1032,
scooby_state_45ff62|6|0 933,0,1,1,2,1,1,1,2,3,0,30,0,56,1,1032,
scooby_state_45ff62|55|0 939,3,5,5,0,0,0,1,0,1,0,21,1,55,1,1032,
scooby_state_45ff56|45|0 1004,0,0,1,3,0,0,1,0,1,1,6,10,1,3,1031,
scooby_state_45ff62|4|0 940,0,2,4,1,0,1,0,1,2,0,23,1,52,0,1027,
scooby_state_45ff62|42|0 947,0,2,3,0,0,0,0,0,1,0,21,3,49,1,1027,
scooby_state_45ff62|40|0 932,2,4,4,2,1,1,3,0,0,0,29,1,46,1,1026,
scooby_state_45ff56|16|0 994,0,1,0,1,0,1,0,2,1,0,21,2,0,2,1025,
scooby_state_45ff56|22|0 994,1,1,1,0,1,0,0,1,0,1,12,5,1,2,1020,
scooby_state_45ff56|29|0 980,4,0,1,1,0,0,0,2,2,1,19,4,1,3,1018,
scooby_state_45ff56|39|0 983,2,2,3,2,0,1,1,0,0,0,11,4,2,5,1016,
scooby_state_45ff62|20|0 943,0,0,2,0,2,0,1,2,1,1,12,0,51,0,1015,
scooby_state_45ff56|43|0 977,2,0,1,1,1,1,0,1,3,0,10,6,1,4,1008,
scooby_state_45ff56|8|0 980,0,2,0,1,0,1,2,3,2,1,7,3,0,3,1005,
scooby_state_45ff56|46|0 978,1,0,2,0,1,1,1,0,0,0,13,4,1,3,1005,
scooby_state_45ff56|58|0 977,3,0,0,2,1,0,1,0,0,0,10,5,1,3,1003,
scooby_state_45ff62|58|0 916,0,2,6,1,0,1,2,2,3,0,15,2,51,2,1003,
scooby_state_45ff62|2|0 910,0,5,2,0,2,2,2,1,0,1,20,1,50,0,996,
scooby_state_45ff56|23|0 967,0,1,2,0,1,2,1,1,3,0,11,2,0,2,993,
scooby_state_45ff62|54|0 904,4,1,7,2,1,1,0,2,1,2,17,1,49,0,992,
scooby_state_45ff56|5|0 962,0,3,1,0,0,2,0,2,1,2,12,2,1,3,991,
scooby_state_45ff62|12|0 905,1,2,5,1,1,2,0,0,0,0,16,3,48,2,986,
scooby_state_45ff62|61|0 911,0,3,2,0,1,0,0,0,0,0,20,0,47,1,985,
scooby_state_53d4a5|31|0 342,331,127,10,15,1,16,21,18,19,26,6,13,13,24,982,
scooby_state_45ff62|8|0 887,0,1,2,0,2,0,2,2,1,2,26,0,53,4,982,
scooby_state_45ff56|15|0 945,0,1,2,0,1,2,0,2,0,1,14,4,2,6,980,
scooby_state_45ff62|23|0 884,1,2,6,2,1,0,0,0,0,0,26,0,49,3,974,
scooby_state_45ff56|50|0 950,0,1,1,0,0,0,1,2,0,1,11,1,1,2,971,
scooby_state_45ff56|48|0 936,1,2,2,0,3,1,1,0,0,1,7,4,1,8,967,
scooby_state_45ff56|21|0 938,1,1,1,2,2,0,1,2,0,1,11,3,0,3,966,
scooby_state_45ff56|6|0 938,1,0,3,2,2,2,1,0,1,1,9,0,0,5,965,
scooby_state_45ff62|10|0 882,1,1,5,0,1,1,0,0,0,2,20,0,50,1,964,
scooby_state_45ff62|44|0 880,1,2,2,1,1,0,1,0,1,2,18,1,50,2,962,
scooby_state_45ff62|51|0 860,0,3,2,0,0,1,2,0,2,0,24,3,50,0,947,
scooby_state_45ff56|62|0 923,1,0,1,1,1,1,0,2,0,2,10,1,0,3,946,
scooby_state_45ff56|9|0 908,0,2,0,0,2,0,2,1,2,1,14,3,1,5,941,
scooby_state_45ff56|11|0 918,3,0,0,0,2,0,1,1,1,0,10,4,0,1,941,
scooby_state_45ff56|52|0 907,3,0,0,0,0,0,0,1,1,2,14,6,2,2,938,
scooby_state_45ff62|46|0 848,1,1,3,2,0,2,0,0,1,0,21,2,48,3,932,
scooby_state_45ff62|27|0 855,0,1,5,0,0,1,0,2,1,0,13,0,44,2,924,
scooby_state_45ff62|9|0 836,1,2,8,1,0,0,3,0,2,1,26,0,40,0,920,
scooby_state_45ff62|50|0 826,0,0,6,0,1,3,0,1,1,1,18,1,59,3,920,
scooby_state_45ff62|11|0 842,1,1,4,0,0,1,0,1,1,0,16,1,47,2,917,
scooby_state_45ff62|62|0 828,0,3,5,1,0,0,0,1,0,1,24,2,50,2,917,
scooby_state_45ff62|13|0 838,2,2,4,1,1,0,2,0,0,1,24,2,39,1,917,
scooby_state_45ff56|51|0 880,0,3,0,0,0,0,1,0,0,0,13,4,0,3,904,
scooby_state_45ff56|44|0 872,2,2,0,1,2,1,1,0,1,0,16,3,0,1,902,
scooby_state_45ff62|43|0 815,1,1,7,0,1,0,1,1,0,0,16,1,57,0,901,
scooby_state_45ff56|13|0 869,0,1,0,0,1,2,0,2,3,0,14,4,0,4,900,
scooby_state_45ff62|21|0 831,1,0,5,2,0,1,0,1,0,0,15,0,37,2,895,
scooby_state_45ff56|10|0 873,0,0,0,0,1,1,1,1,0,0,7,2,0,4,890,
scooby_state_494c73|3|0 639,31,2,2,3,7,3,2,2,2,0,6,11,5,6,721,
scooby_state_45ff7e|63|0 555,53,13,2,5,2,2,2,3,3,4,3,13,0,4,664,
scooby_state_45ff7a|63|0 590,15,17,0,1,2,1,4,2,3,2,3,1,3,2,646,
scooby_state_43f63e|57|0 180,354,15,0,0,2,0,4,3,5,2,0,1,28,8,602,
scooby_state_46d75a|53|8 0,585,0,0,0,0,0,0,0,0,0,0,0,0,0,585,
scooby_state_494c73|17|0 528,16,5,1,0,2,2,2,3,1,1,4,2,1,6,574,
scooby_state_463aa3|28|0 0,561,0,0,0,0,0,0,0,0,0,0,0,0,0,561,
scooby_state_494c73|16|0 495,15,4,1,7,4,2,7,5,1,0,5,3,1,10,560,
scooby_state_46d75a|54|8 0,559,0,0,0,0,0,0,0,0,0,0,1,0,0,560,
scooby_state_55924d|57|0 1,0,0,20,9,181,8,3,3,4,9,0,168,86,65,557,
scooby_state_494c73|9|0 506,13,2,1,6,4,1,2,2,3,3,2,4,2,5,556,
scooby_state_46d75a|41|8 0,553,0,0,0,0,0,0,0,0,0,1,0,0,0,554,
scooby_state_494c73|18|0 503,7,5,0,1,1,0,4,4,2,0,9,1,1,10,548,
scooby_state_494c73|8|0 514,9,1,1,0,2,1,2,2,1,0,9,1,1,4,548,
scooby_state_494c73|2|0 498,11,3,1,1,2,0,3,4,1,0,3,2,1,6,536,
scooby_state_494c73|0|0 496,13,0,2,1,3,1,0,0,2,2,4,3,1,0,528,
scooby_state_463aa3|8|0 0,520,0,0,0,0,0,0,0,0,0,1,0,0,0,521,
scooby_state_463aa3|20|0 0,510,0,0,0,0,0,1,0,0,1,0,0,0,0,512,
scooby_state_46d75a|23|8 1,509,0,0,0,1,0,0,0,0,0,0,0,0,0,511,
scooby_state_494c73|34|0 467,10,3,1,2,1,1,8,3,1,0,5,1,1,6,510,
scooby_state_494c73|15|0 448,12,5,1,3,1,3,11,4,1,1,5,2,1,9,507,
scooby_state_494c73|26|0 459,11,3,3,2,1,1,4,5,3,2,3,1,3,5,506,
scooby_state_46d75a|15|8 0,506,0,0,0,0,0,0,0,0,0,0,0,0,0,506,
scooby_state_494c73|31|0 456,12,3,3,1,1,3,3,5,2,0,4,1,4,7,505,
scooby_state_46d75a|48|8 0,503,0,0,0,0,0,0,0,0,0,0,0,0,0,503,
scooby_state_46d75a|31|8 0,502,0,0,0,1,0,0,0,0,0,0,0,0,0,503,
scooby_state_46d75a|21|8 1,501,0,0,0,0,0,0,0,0,0,0,1,0,0,503,
scooby_state_46d75a|33|8 1,502,0,0,0,0,0,0,0,0,0,0,0,0,0,503,
scooby_state_463aa3|6|0 1,502,0,0,0,0,0,0,0,0,0,0,0,0,0,503,
scooby_state_46d75a|17|8 1,501,0,0,0,0,0,0,0,0,0,0,0,0,0,502,
scooby_state_46d75a|38|8 0,500,0,0,0,0,0,0,0,0,0,0,0,0,0,500,
scooby_state_5405d0|32|0 343,1,0,0,0,156,0,0,0,0,0,0,0,0,0,500,
scooby_state_46d75a|35|8 0,499,0,0,0,0,0,0,0,0,0,0,0,0,0,499,
scooby_state_494c73|19|0 463,11,1,2,3,2,1,2,2,2,1,4,2,2,1,499,
scooby_state_46d75a|40|8 0,495,0,0,0,0,0,0,0,0,0,0,0,0,0,495,
scooby_state_46d75a|29|8 0,493,0,0,0,0,0,1,0,0,0,0,0,0,0,494,
scooby_state_494c73|57|0 463,10,0,1,0,2,1,0,2,1,1,6,2,4,0,493,
scooby_state_494c73|6|0 459,7,3,1,4,1,3,2,2,1,0,3,1,1,5,493,
scooby_state_494c73|32|0 462,8,1,1,3,2,0,1,2,1,0,3,2,1,4,491,
scooby_state_46d75a|8|8 1,485,0,0,1,0,0,0,0,0,0,0,0,0,0,487,
scooby_state_494c73|59|0 441,15,3,0,2,2,1,5,3,0,0,4,2,0,9,487,
scooby_state_449537|0|0 334,16,49,0,1,0,19,0,0,0,0,0,60,0,0,479,
scooby_state_463aa3|5|0 0,478,1,0,0,0,0,0,0,0,0,0,0,0,0,479,
scooby_state_46d75a|43|8 0,478,0,0,0,1,0,0,0,0,0,0,0,0,0,479,
scooby_state_463aa3|22|0 0,479,0,0,0,0,0,0,0,0,0,0,0,0,0,479,
scooby_state_463aa3|13|0 0,477,0,0,0,0,0,0,1,0,0,0,0,0,0,478,
scooby_state_463aa3|1|0 0,477,0,0,0,0,0,0,0,0,0,0,0,0,0,477,
scooby_state_463aa3|16|0 0,477,0,0,0,0,0,0,0,0,0,0,0,0,0,477,
scooby_state_46d75a|19|8 0,477,0,0,0,0,0,0,0,0,0,0,0,0,0,477,
scooby_state_463aa3|24|0 0,476,0,0,0,0,0,0,0,0,0,0,0,0,0,476,
scooby_state_45ff7e|34|-2 461,0,3,1,8,0,0,1,0,0,1,0,0,0,1,476,
scooby_state_463aa3|2|0 0,474,0,0,0,0,0,0,0,0,0,0,0,0,1,475,
scooby_state_46d75a|42|8 0,474,0,0,1,0,0,0,0,0,0,0,0,0,0,475,
scooby_state_46d75a|24|8 0,472,0,0,0,0,0,0,0,1,0,0,0,1,0,474,
scooby_state_46d75a|60|8 0,474,0,0,0,0,0,0,0,0,0,0,0,0,0,474,
scooby_state_46d75a|63|8 1,473,0,0,0,0,0,0,0,0,0,0,0,0,0,474,
scooby_state_46d75a|62|8 0,471,0,0,0,1,0,0,0,0,0,0,0,0,1,473,
scooby_state_494c73|11|0 437,12,1,1,0,1,4,2,1,1,1,5,2,1,4,473,
scooby_state_46d75a|30|8 0,471,0,0,0,0,0,0,0,1,0,0,0,0,0,472,
scooby_state_47338d|1|0 302,90,50,19,0,0,0,0,0,1,0,0,2,0,7,471,
scooby_state_494c73|60|0 425,12,3,2,3,2,1,3,3,2,1,5,1,1,6,470,
scooby_state_46d75a|0|0 0,467,0,0,0,1,0,0,0,0,0,1,0,0,0,469,
scooby_state_494c73|39|0 434,14,0,1,1,4,3,0,1,2,0,3,4,1,0,468,
scooby_state_46d75a|10|8 0,468,0,0,0,0,0,0,0,0,0,0,0,0,0,468,
scooby_state_494c73|10|0 424,12,1,0,6,2,0,2,1,2,3,4,2,2,4,465,
scooby_state_46d75a|36|8 2,461,0,0,0,0,0,0,0,0,0,1,1,0,0,465,
scooby_state_463aa3|29|0 0,462,0,0,0,0,0,0,0,0,0,0,0,0,1,463,
scooby_state_463aa3|10|0 0,462,0,0,0,0,1,0,0,0,0,0,0,0,0,463,
scooby_state_463aa3|14|0 0,462,0,0,0,0,0,0,0,0,0,0,0,0,0,462,
scooby_state_494c73|14|0 430,9,2,0,4,1,1,2,3,1,0,2,1,0,6,462,
scooby_state_45ff4d|0|0 408,23,0,2,1,0,2,5,3,0,0,5,3,5,5,462,
scooby_state_463aa3|18|0 0,461,0,0,0,0,0,0,0,0,0,0,0,0,0,461,
scooby_state_463aa3|0|0 0,460,1,0,0,0,0,0,0,0,0,0,0,0,0,461,
scooby_state_463aa3|17|0 0,459,0,0,0,0,0,0,0,0,0,0,0,0,0,459,
scooby_state_46d75a|50|8 1,458,0,0,0,0,0,0,0,0,0,0,0,0,0,459,
scooby_state_46d75a|45|8 0,459,0,0,0,0,0,0,0,0,0,0,0,0,0,459,
scooby_state_46d75a|55|8 0,454,0,0,0,0,0,0,1,0,1,0,0,0,0,456,
scooby_state_463aa3|4|0 0,454,0,0,0,0,0,0,0,0,0,0,0,0,0,454,
scooby_state_46d75a|61|8 1,453,0,0,0,0,0,0,0,0,0,0,0,0,0,454,
scooby_state_53ff70|33|0 361,0,0,0,67,0,25,0,0,0,0,0,0,0,0,453,
scooby_state_494c73|62|0 412,14,2,2,2,1,1,3,2,2,1,2,1,2,3,450,
scooby_state_494c73|49|0 428,4,0,0,1,1,2,1,0,1,0,7,1,1,3,450,
scooby_state_47338d|0|0 265,91,59,24,0,0,0,0,2,1,1,1,3,0,3,450,
scooby_state_494c73|7|0 400,12,3,3,2,1,1,2,3,4,2,4,1,7,4,449,
scooby_state_46d75a|56|8 0,448,0,0,0,0,0,0,0,0,0,0,1,0,0,449,
scooby_state_46d75a|9|8 1,446,0,0,1,0,0,0,0,0,0,0,1,0,0,449,
scooby_state_463aa3|19|0 0,446,0,1,0,0,0,0,0,0,0,0,0,0,0,447,
scooby_state_45ff7e|32|-2 424,2,4,0,7,0,0,0,1,1,1,1,1,2,3,447,
scooby_state_46d75a|12|8 0,444,0,1,0,0,0,0,0,0,0,0,0,1,0,446,
scooby_state_463aa3|3|0 0,445,0,0,0,0,0,0,0,0,0,0,0,0,0,445,
scooby_state_412cc0|32|1 444,0,0,0,0,0,0,0,0,0,0,0,0,0,1,445,
scooby_state_494c73|1|0 400,9,3,2,2,2,1,5,3,2,1,6,0,3,6,445,
scooby_state_494c73|50|0 421,9,0,0,0,3,0,0,1,0,0,4,4,0,1,443,
scooby_state_46d75a|44|8 1,442,0,0,0,0,0,0,0,0,0,0,0,0,0,443,
scooby_state_494c73|5|0 404,13,1,2,1,2,5,2,2,2,0,3,1,2,2,442,
scooby_state_494c73|12|0 407,8,2,2,1,2,0,2,3,2,1,2,3,2,4,441,
scooby_state_46d75a|20|8 0,441,0,0,0,0,0,0,0,0,0,0,0,0,0,441,
scooby_state_46d75a|32|8 1,439,0,0,0,0,0,0,0,0,0,0,1,0,0,441,
scooby_state_46d75a|11|8 1,437,0,0,0,0,0,1,0,0,0,0,0,0,0,439,
scooby_state_46d75a|27|8 0,435,0,0,0,0,1,0,1,0,0,0,0,0,0,437,
scooby_state_463aa3|7|0 0,434,0,0,0,0,0,0,1,0,1,0,1,0,0,437,
scooby_state_494c73|40|0 402,10,2,1,1,1,2,3,2,1,0,3,1,1,6,436,
scooby_state_463aa3|15|0 0,436,0,0,0,0,0,0,0,0,0,0,0,0,0,436,
scooby_state_46d75a|46|8 1,433,0,0,0,0,0,0,0,0,0,0,1,0,0,435,
scooby_state_494c73|45|0 399,14,1,1,0,2,1,1,2,1,2,4,2,1,3,434,
scooby_state_412c87|0|0 433,0,0,0,1,0,0,0,0,0,0,0,0,0,0,434,
scooby_state_46d75a|26|8 0,433,0,0,0,1,0,0,0,0,0,0,0,0,0,434,
scooby_state_443d2b|0|0 61,0,0,296,2,2,1,0,0,1,0,1,0,2,67,433,
scooby_state_46d75a|59|8 1,432,0,0,0,0,0,0,0,0,0,0,0,0,0,433,
scooby_state_46d75a|49|8 0,432,0,0,0,0,0,0,0,0,0,0,0,0,0,432,
scooby_state_463aa3|30|0 0,430,0,0,0,0,0,0,0,0,0,1,0,0,0,431,
scooby_state_463aa3|27|0 0,430,0,0,0,0,0,0,0,0,1,0,0,0,0,431,
scooby_state_463aa3|25|0 0,430,0,0,0,0,0,0,0,0,0,0,0,0,0,430,
scooby_state_46d75a|39|8 0,428,0,0,1,0,0,0,0,0,0,0,0,0,0,429,
scooby_state_46d75a|58|8 1,427,0,0,1,0,0,0,0,0,0,0,0,0,0,429,
scooby_state_45ff7e|36|-2 400,2,2,2,14,0,0,0,0,0,0,0,0,1,7,428,
scooby_state_494c73|43|0 395,8,0,4,3,0,1,0,2,4,3,2,0,4,2,428,
scooby_state_494c73|28|0 405,4,2,0,1,0,4,3,2,0,0,0,0,0,5,426,
scooby_state_494c73|55|0 402,7,0,2,3,1,0,0,0,2,0,4,1,2,1,425,
scooby_state_494c73|23|0 397,9,0,0,0,3,1,0,0,0,1,7,2,0,3,423,
scooby_state_494c73|33|0 403,6,1,0,2,1,1,2,2,0,1,3,0,0,1,423,
scooby_state_46d75a|16|8 0,423,0,0,0,0,0,0,0,0,0,0,0,0,0,423,
scooby_state_494c73|30|0 405,7,0,0,0,1,3,1,0,0,0,2,2,0,2,423,
scooby_state_494c73|24|0 383,14,0,3,3,2,1,1,1,3,0,2,2,2,4,421,
scooby_state_463aa3|23|0 0,417,0,0,0,0,0,0,1,0,0,0,1,0,0,419,
scooby_state_46d75a|37|8 0,419,0,0,0,0,0,0,0,0,0,0,0,0,0,419,
scooby_state_494c73|27|0 385,6,1,2,1,1,0,1,2,2,2,7,1,2,4,417,
scooby_state_463aa3|11|0 0,414,0,0,0,0,0,0,0,0,1,0,1,0,0,416,
scooby_state_494c73|13|0 392,7,0,2,2,1,1,0,1,2,1,3,1,2,1,416,
scooby_state_494c73|42|0 387,6,1,1,2,1,1,2,2,3,0,4,1,2,2,415,
scooby_state_494c73|63|0 390,5,0,2,3,0,1,0,1,2,0,5,0,2,3,414,
scooby_state_494c73|4|0 386,7,0,1,3,1,1,1,0,5,2,1,1,4,0,413,
scooby_state_46d75a|18|8 0,411,0,0,0,0,0,0,0,0,1,0,0,0,0,412,
scooby_state_412cc0|10|1 410,1,0,0,0,0,0,0,0,0,0,0,1,0,0,412,
scooby_state_494c73|56|0 386,5,1,0,3,1,2,1,1,0,1,4,1,0,4,410,
scooby_state_46d75a|14|8 0,408,0,0,0,0,1,0,0,0,1,0,0,0,0,410,
scooby_state_46d75a|25|8 0,410,0,0,0,0,0,0,0,0,0,0,0,0,0,410,
scooby_state_494c73|48|0 387,7,1,0,0,2,0,1,1,0,0,5,2,1,2,409,
scooby_state_494c73|61|0 381,7,0,2,3,1,1,0,1,1,1,4,1,2,1,406,
scooby_state_412cc0|56|1 405,0,0,0,0,0,0,0,0,0,0,0,0,0,0,405,
scooby_state_46d75a|52|8 0,403,0,0,0,0,0,1,0,0,0,0,0,0,0,404,
scooby_state_412cc0|24|1 403,0,0,0,0,0,0,0,0,0,0,1,0,0,0,404,
scooby_state_46d75a|28|8 0,403,0,0,0,0,0,0,0,0,0,0,0,0,0,403,
scooby_state_45ff7e|31|-2 390,3,0,0,6,0,0,0,0,0,0,0,0,0,3,402,
scooby_state_494c73|52|0 358,11,1,3,4,2,2,1,1,4,2,6,1,3,3,402,
scooby_state_463aa3|21|0 0,400,0,0,1,0,0,0,0,0,0,0,0,0,0,401,
scooby_state_45ff7e|1|-2 383,4,1,2,5,0,0,3,0,0,0,0,0,0,3,401,
scooby_state_494c73|22|0 375,7,0,2,4,1,3,0,0,2,0,3,1,2,1,401,
scooby_state_463aa3|12|0 0,400,0,0,0,0,0,0,1,0,0,0,0,0,0,401,
scooby_state_4552c0|7|1 36,0,363,0,0,1,0,0,0,0,0,0,0,0,0,400,
scooby_state_443d2b|1|0 52,2,2,258,1,0,3,0,1,2,1,2,0,0,73,397,
scooby_state_494c73|35|0 373,6,1,1,1,2,0,0,1,1,2,2,1,1,4,396,
scooby_state_412cc0|12|1 393,2,0,0,0,0,1,0,0,0,0,0,0,0,0,396,
scooby_state_45ff7e|58|-2 375,0,2,2,8,2,0,0,0,2,0,0,1,0,4,396,
scooby_state_494c73|37|0 369,6,0,2,5,1,1,0,0,2,1,5,1,1,0,394,
scooby_state_46d75a|47|8 0,394,0,0,0,0,0,0,0,0,0,0,0,0,0,394,
scooby_state_45eeb8|1|0 393,0,0,0,0,0,0,0,0,0,0,0,0,0,0,393,
scooby_state_412cc0|53|1 392,0,0,0,0,0,0,0,0,0,0,0,0,0,0,392,
scooby_state_412cc0|51|1 391,0,0,0,0,0,0,0,0,0,0,0,0,1,0,392,
scooby_state_412cc0|57|1 391,0,0,0,0,0,0,0,0,0,0,0,0,0,0,391,
scooby_state_412cc0|0|0 389,0,0,0,0,1,0,0,0,0,0,0,0,0,1,391,
scooby_state_443d2b|4|0 51,4,0,250,2,0,0,0,1,0,1,1,1,1,79,391,
scooby_state_494c73|47|0 360,7,2,3,2,0,1,1,2,3,0,2,0,3,5,391,
scooby_state_45ff7e|3|-2 375,0,3,1,5,0,0,0,0,1,0,0,1,0,5,391,
scooby_state_412cc0|9|1 390,0,0,0,0,0,0,1,0,0,0,0,0,0,0,391,
scooby_state_45ff4d|3|0 355,14,5,0,2,3,1,1,1,1,2,1,0,1,3,390,
scooby_state_412cc0|41|1 389,0,1,0,0,0,0,0,0,0,0,0,0,0,0,390,
scooby_state_463aa3|52|0 0,389,0,0,0,0,0,0,0,0,0,0,0,0,0,389,
scooby_state_45eeb8|2|0 388,0,1,0,0,0,0,0,0,0,0,0,0,0,0,389,
scooby_state_45ff7e|21|-2 372,0,3,1,7,0,0,1,0,0,0,0,1,0,3,388,
scooby_state_463aa3|9|0 0,387,0,1,0,0,0,0,0,0,0,0,0,0,0,388,
scooby_state_494c73|54|0 363,6,0,2,5,0,3,0,0,2,2,4,0,1,0,388,
scooby_state_47338d|2|0 207,106,53,14,0,0,0,2,1,1,0,0,2,0,2,388,
scooby_state_45ff7e|62|0 321,23,9,1,1,5,2,1,2,4,2,3,6,1,6,387,
scooby_state_463aa3|54|0 0,386,0,1,0,0,0,0,0,0,0,0,0,0,0,387,
scooby_state_46d75a|57|8 0,385,0,0,0,0,0,0,0,0,1,0,0,0,0,386,
scooby_state_443d2b|3|0 47,1,1,256,3,2,0,0,3,1,1,1,0,1,69,386,
scooby_state_45ff7e|33|-2 367,2,0,5,4,0,1,0,0,1,1,0,0,0,5,386,
scooby_state_45ff7e|59|-2 369,0,4,1,6,0,1,0,0,0,0,0,0,0,4,385,
scooby_state_46d75a|13|8 0,383,1,0,0,0,0,0,0,0,0,0,0,0,0,384,
scooby_state_494c73|58|0 362,7,2,0,3,1,1,2,2,0,0,0,1,0,3,384,
scooby_state_559212|63|2 384,0,0,0,0,0,0,0,0,0,0,0,0,0,0,384,
scooby_state_558f9a|22|2 262,97,1,0,0,0,0,0,1,1,2,16,0,0,2,382,
scooby_state_494c73|44|0 364,7,0,1,1,1,2,0,0,1,0,1,1,1,2,382,
scooby_state_412cc0|45|1 381,0,0,0,0,0,0,0,0,0,0,0,0,0,0,381,
scooby_state_463aa3|26|0 0,381,0,0,0,0,0,0,0,0,0,0,0,0,0,381,
scooby_state_45eeb8|4|0 379,0,0,0,0,0,0,1,0,1,0,0,0,0,0,381,
scooby_state_494c73|29|0 358,7,0,2,1,1,1,0,1,1,0,3,1,1,3,380,
scooby_state_45ff7e|23|-2 356,0,3,1,9,0,0,1,1,1,2,0,0,0,5,379,
scooby_state_4552c0|27|1 35,1,341,0,0,0,0,0,0,0,0,0,1,0,0,378,
scooby_state_4552c0|56|1 25,0,350,1,0,0,0,0,0,0,0,0,1,0,0,377,
scooby_state_45ff7e|37|-2 357,2,2,2,6,0,0,0,0,1,0,0,1,0,5,376,
scooby_state_45ff7e|56|-2 356,0,2,3,5,1,0,1,0,0,0,1,0,0,7,376,
scooby_state_45ff7e|26|-2 362,0,2,3,3,1,1,0,0,1,0,0,0,0,2,375,
scooby_state_4552c0|24|1 32,0,342,0,0,0,0,0,0,0,0,0,0,0,0,374,
scooby_state_45ff7a|31|0 350,4,3,1,2,1,1,0,2,0,0,2,3,1,4,374,
scooby_state_558f9a|52|2 253,95,1,0,1,0,0,0,0,0,0,23,0,0,0,373,
scooby_state_4552c0|19|1 26,0,347,0,0,0,0,0,0,0,0,0,0,0,0,373,
scooby_state_45ff7e|28|-2 348,4,1,1,8,2,1,1,0,0,0,0,2,1,4,373,
scooby_state_53cb5b|0|0 138,3,15,15,1,0,5,16,14,19,14,48,20,0,64,372,
scooby_state_463aa3|59|0 0,372,0,0,0,0,0,0,0,0,0,0,0,0,0,372,
scooby_state_46d75a|51|8 1,369,0,0,0,1,0,0,0,0,1,0,0,0,0,372,
scooby_state_443d2b|2|0 46,0,0,245,1,1,0,1,0,0,1,0,1,2,74,372,
scooby_state_460057|35|0 6,223,0,0,0,1,0,0,0,0,0,141,0,0,0,371,
scooby_state_45ff7e|17|-2 351,2,1,1,8,0,0,0,0,0,0,0,1,0,7,371,
scooby_state_4552c0|3|1 39,0,332,0,0,0,0,0,0,0,0,0,0,0,0,371,
scooby_state_45ff7e|24|-2 351,0,1,5,10,0,0,0,1,0,0,1,0,0,2,371,
scooby_state_45ff7e|51|-2 345,0,1,1,8,2,0,0,0,0,1,2,2,2,6,370,
scooby_state_412cc0|55|1 369,0,0,0,0,0,0,0,0,0,0,0,0,0,0,369,
scooby_state_45ff7e|40|-2 350,0,2,0,8,1,0,1,1,1,1,0,0,0,3,368,
scooby_state_45eeb8|7|0 366,0,0,0,0,0,0,0,0,0,0,0,1,0,0,367,
scooby_state_45eeb8|0|0 366,0,0,0,0,1,0,0,0,0,0,0,0,0,0,367,
scooby_state_558f9a|17|2 253,98,0,0,0,0,0,0,0,0,0,16,0,0,0,367,
scooby_state_45eeb8|3|0 365,0,1,0,0,0,0,0,0,0,0,0,0,0,0,366,
scooby_state_46d75a|22|8 0,366,0,0,0,0,0,0,0,0,0,0,0,0,0,366,
scooby_state_45ff7e|39|-2 351,0,1,4,5,0,0,0,0,0,1,0,0,1,3,366,
scooby_state_558f9a|21|2 219,124,3,0,0,0,0,1,0,0,0,19,0,0,0,366,
scooby_state_45ff7e|19|-2 343,3,2,1,9,0,0,0,1,1,1,0,0,0,5,366,
scooby_state_45ff7e|30|-2 345,1,3,1,11,0,0,0,1,0,0,1,0,0,3,366,
scooby_state_412cc0|28|1 365,0,0,0,0,0,0,0,0,0,0,0,0,0,0,365,
scooby_state_412cc0|47|1 364,0,0,0,0,0,1,0,0,0,0,0,0,0,0,365,
scooby_state_4552c0|63|1 30,0,335,0,0,0,0,0,0,0,0,0,0,0,0,365,
scooby_state_494c73|25|0 339,8,0,2,0,0,2,0,0,2,2,6,0,1,2,364,
scooby_state_412cc0|2|1 363,0,0,0,0,0,1,0,0,0,0,0,0,0,0,364,
scooby_state_558f9a|5|2 215,124,3,0,0,0,0,1,1,0,0,20,0,0,0,364,
scooby_state_412cc0|59|1 364,0,0,0,0,0,0,0,0,0,0,0,0,0,0,364,
scooby_state_558f9a|50|2 241,98,1,0,0,0,0,0,0,0,0,23,0,0,0,363,
scooby_state_4552c0|15|1 25,0,337,0,0,0,0,0,1,0,0,0,0,0,0,363,
scooby_state_45ff7e|57|-2 342,1,3,2,8,1,0,1,0,0,0,1,0,0,4,363,
scooby_state_463aa3|37|0 0,363,0,0,0,0,0,0,0,0,0,0,0,0,0,363,
scooby_state_45ff7e|61|-2 342,3,1,1,6,1,1,0,0,0,1,1,0,0,6,363,
scooby_state_494c73|20|0 339,5,0,2,2,0,2,0,0,2,1,5,0,2,2,362,
scooby_state_494c73|21|0 340,8,1,1,2,0,2,1,1,1,0,1,0,1,3,362,
scooby_state_45ff7e|31|0 309,39,3,0,2,1,0,2,1,1,0,1,1,1,0,361,
scooby_state_45ff7e|14|-2 340,1,3,3,7,0,1,0,3,1,0,0,0,0,2,361,
scooby_state_463aa3|39|0 1,360,0,0,0,0,0,0,0,0,0,0,0,0,0,361,
scooby_state_45eeb8|6|0 361,0,0,0,0,0,0,0,0,0,0,0,0,0,0,361,
scooby_state_559212|46|2 360,0,0,0,0,0,0,0,0,0,0,0,0,0,0,360,
scooby_state_412cc0|58|1 359,0,0,0,0,0,0,0,0,0,0,0,1,0,0,360,
scooby_state_4552c0|50|1 28,0,331,0,0,0,0,0,0,0,0,0,0,0,0,359,
scooby_state_494c73|38|0 350,1,0,0,1,0,0,0,0,0,2,3,0,0,2,359,
scooby_state_558f9a|2|2 222,109,1,0,0,0,0,0,0,0,0,27,0,0,0,359,
scooby_state_412cc0|6|1 359,0,0,0,0,0,0,0,0,0,0,0,0,0,0,359,
scooby_state_45ff7e|2|-2 339,1,1,0,11,0,0,0,1,0,1,1,0,0,4,359,
scooby_state_494c73|51|0 331,6,1,2,3,0,1,1,1,2,0,6,0,1,3,358,
scooby_state_4552c0|17|1 30,0,327,0,0,0,0,0,0,0,0,0,0,0,0,357,
scooby_state_45ff7e|53|-2 340,1,1,1,7,1,0,0,0,0,0,0,0,1,4,356,
scooby_state_412cc0|63|1 354,1,0,0,0,0,0,0,0,0,0,1,0,0,0,356,
scooby_state_412cc0|22|1 356,0,0,0,0,0,0,0,0,0,0,0,0,0,0,356,
scooby_state_412cc0|5|1 354,0,1,0,0,0,0,0,0,0,0,0,0,0,0,355,
scooby_state_4552c0|12|1 35,1,319,0,0,0,0,0,0,0,0,0,0,0,0,355,
scooby_state_558f9a|15|2 238,93,3,0,0,0,0,0,0,0,0,21,0,0,0,355,
scooby_state_463aa3|40|0 0,354,0,0,0,0,0,0,0,0,0,1,0,0,0,355,
scooby_state_494c73|36|0 335,2,1,0,4,0,1,1,1,0,0,5,0,0,4,354,
scooby_state_494c73|53|0 334,4,2,0,1,1,0,2,2,0,0,2,1,0,5,354,
scooby_state_45eebb|4|0 42,67,59,80,5,0,9,13,13,18,6,0,0,0,42,354,
scooby_state_412cc0|17|1 352,0,1,0,0,0,1,0,0,0,0,0,0,0,0,354,
scooby_state_45eead|6|0 305,0,7,0,0,16,0,0,0,0,0,0,26,0,0,354,
scooby_state_412cc0|26|1 353,0,0,0,0,0,0,0,0,0,0,0,0,0,0,353,
scooby_state_412cc0|8|1 352,0,0,0,0,0,0,0,0,0,0,0,0,0,1,353,
scooby_state_558f9a|25|2 221,108,2,1,0,0,1,0,1,0,0,19,0,0,0,353,
scooby_state_45ff7e|12|-2 341,0,4,0,2,0,0,0,1,0,0,0,0,0,5,353,
scooby_state_45ff7e|60|-2 328,0,0,1,13,0,1,0,0,0,0,0,2,0,7,352,
scooby_state_412cc0|7|1 351,0,0,1,0,0,0,0,0,0,0,0,0,0,0,352,
scooby_state_4552c0|42|1 32,2,318,0,0,0,0,0,0,0,0,0,0,0,0,352,
scooby_state_4552c0|5|1 28,0,323,0,0,0,0,0,0,0,0,0,0,0,0,351,
scooby_state_45ff7e|6|-2 333,0,0,4,9,0,0,0,1,1,1,0,0,0,2,351,
scooby_state_412cc0|20|1 350,0,0,0,0,0,0,0,0,1,0,0,0,0,0,351,
scooby_state_45ff7e|15|-2 333,0,2,1,10,0,0,1,0,0,1,0,0,0,3,351,
scooby_state_4552c0|25|1 27,0,323,0,0,0,0,0,0,0,0,0,0,0,0,350,
scooby_state_45ff7e|50|-2 333,1,1,1,7,1,0,0,0,1,1,0,1,0,3,350,
scooby_state_412cc0|4|1 350,0,0,0,0,0,0,0,0,0,0,0,0,0,0,350,
scooby_state_4552c0|48|1 16,0,334,0,0,0,0,0,0,0,0,0,0,0,0,350,
scooby_state_45ff7e|44|-2 322,4,3,4,8,0,0,0,0,1,1,0,0,0,6,349,
scooby_state_558f9a|7|2 245,83,2,0,0,0,0,0,0,1,0,18,0,0,0,349,
scooby_state_494c73|46|0 339,5,0,0,0,0,1,0,0,0,1,3,0,0,0,349,
scooby_state_4552c0|10|1 28,0,320,0,0,0,0,0,0,0,0,0,0,0,1,349,
scooby_state_449683|32|0 1,2,0,0,1,114,17,1,1,1,1,151,1,1,57,349,
scooby_state_45ff7e|52|-2 331,4,3,1,3,1,1,0,1,0,0,0,0,1,2,348,
scooby_state_4552c0|34|1 21,1,326,0,0,0,0,0,0,0,0,0,0,0,0,348,
scooby_state_412cc0|27|1 348,0,0,0,0,0,0,0,0,0,0,0,0,0,0,348,
scooby_state_559212|47|2 347,0,0,0,1,0,0,0,0,0,0,0,0,0,0,348,
scooby_state_45ff7e|13|-2 321,6,3,1,8,1,2,0,2,0,1,1,0,0,2,348,
scooby_state_4552c0|31|1 36,1,309,0,0,0,0,0,1,0,0,0,0,0,0,347,
scooby_state_45ce40|24|0 1,0,343,0,0,0,1,0,0,0,0,0,0,0,1,346,
scooby_state_4552c0|11|1 28,0,315,1,1,0,0,0,0,0,0,0,1,0,0,346,
scooby_state_558f9a|12|2 210,116,2,0,0,0,0,2,0,0,0,16,0,0,0,346,
scooby_state_463aa3|34|0 0,344,0,1,0,0,1,0,0,0,0,0,0,0,0,346,
scooby_state_412cc0|1|1 344,0,0,0,0,0,1,0,0,0,0,0,0,0,0,345,
scooby_state_45ff7e|29|-2 327,3,1,0,6,0,0,0,0,0,1,1,0,2,4,345,
scooby_state_45ff7a|62|0 306,3,9,1,5,0,1,1,1,3,1,3,3,1,7,345,
scooby_state_45ff4d|1|0 292,26,2,3,1,1,5,2,1,3,2,0,0,4,3,345,
scooby_state_4552c0|20|1 26,0,319,0,0,0,0,0,0,0,0,0,0,0,0,345,
scooby_state_412cc0|3|1 343,0,0,0,0,0,0,0,0,0,1,0,0,0,0,344,
scooby_state_45ff7e|38|-2 333,0,0,1,7,0,0,0,1,0,1,0,0,0,1,344,
scooby_state_558f9a|28|2 223,101,0,0,0,0,0,1,0,0,0,19,0,0,0,344,
scooby_state_412cc0|44|1 344,0,0,0,0,0,0,0,0,0,0,0,0,0,0,344,
scooby_state_412cc0|31|1 344,0,0,0,0,0,0,0,0,0,0,0,0,0,0,344,
scooby_state_457446|36|0 16,246,0,2,0,10,12,8,12,6,7,0,0,2,22,343,
scooby_state_412cc0|35|1 343,0,0,0,0,0,0,0,0,0,0,0,0,0,0,343,
scooby_state_463aa3|41|0 0,343,0,0,0,0,0,0,0,0,0,0,0,0,0,343,
scooby_state_463aa3|36|0 0,342,0,0,0,0,0,0,0,0,0,0,0,1,0,343,
scooby_state_45ff7e|18|-2 324,0,0,1,9,1,0,0,2,2,0,2,0,0,2,343,
scooby_state_412cc0|62|1 342,0,0,0,0,0,0,0,0,0,0,0,0,0,0,342,
scooby_state_463aa3|31|0 0,342,0,0,0,0,0,0,0,0,0,0,0,0,0,342,
scooby_state_558f9a|13|2 222,98,2,0,0,0,0,0,0,1,0,19,0,0,0,342,
scooby_state_4552c0|35|1 28,0,312,0,0,0,0,2,0,0,0,0,0,0,0,342,
scooby_state_45ff4d|31|0 304,17,0,3,1,0,1,1,2,1,0,2,1,5,3,341,
scooby_state_412cc0|49|1 340,0,0,0,0,0,0,0,0,0,0,1,0,0,0,341,
scooby_state_45ff7e|54|-2 320,0,3,2,6,0,0,0,2,0,2,1,0,1,4,341,
scooby_state_45ff7e|4|-2 323,4,3,0,7,0,0,1,0,0,0,0,1,0,2,341,
scooby_state_558f9a|34|2 221,93,1,0,0,0,0,1,0,0,0,24,0,0,0,340,
scooby_state_4552c0|59|1 39,0,301,0,0,0,0,0,0,0,0,0,0,0,0,340,
scooby_state_4552c0|30|1 27,0,312,0,0,0,1,0,0,0,0,0,0,0,0,340,
scooby_state_46d75a|4|2 0,340,0,0,0,0,0,0,0,0,0,0,0,0,0,340,
scooby_state_4552c0|18|1 29,1,309,0,0,0,0,0,0,0,0,0,0,0,0,339,
scooby_state_43f97b|2|0 173,0,126,0,0,0,0,3,3,2,3,15,0,0,14,339,
scooby_state_558f9a|27|2 219,100,1,0,0,0,0,0,0,0,0,19,0,0,0,339,
scooby_state_45ff7e|7|-2 324,0,2,0,4,0,0,0,1,0,2,1,0,1,4,339,
scooby_state_412cc0|50|1 339,0,0,0,0,0,0,0,0,0,0,0,0,0,0,339,
scooby_state_558f9a|26|2 222,94,3,0,0,0,0,1,0,0,0,18,0,0,0,338,
scooby_state_463aa3|47|0 0,337,1,0,0,0,0,0,0,0,0,0,0,0,0,338,
scooby_state_45ff7e|0|-2 315,1,2,2,10,1,0,0,1,2,0,0,0,0,4,338,
scooby_state_558f9a|8|2 213,98,2,0,0,0,0,1,0,0,0,23,0,0,0,337,
scooby_state_4552c0|22|1 24,0,313,0,0,0,0,0,0,0,0,0,0,0,0,337,
scooby_state_494c73|41|0 321,6,0,1,0,1,0,0,1,1,0,1,1,1,3,337,
scooby_state_443d2b|5|0 43,0,1,225,0,1,1,0,1,0,1,1,0,1,61,336,
scooby_state_558f9e|34|0 70,21,0,0,0,0,0,0,0,0,1,202,36,5,0,335,
scooby_state_445600|24|0 256,0,27,0,8,8,3,6,6,4,4,5,1,0,7,335,
scooby_state_45eeb8|5|0 333,0,0,0,0,0,0,0,0,0,1,0,0,0,1,335,
scooby_state_558f9a|32|2 217,91,4,0,0,0,0,1,0,0,0,21,0,0,0,334,
scooby_state_412cc0|40|1 334,0,0,0,0,0,0,0,0,0,0,0,0,0,0,334,
scooby_state_45ff7e|55|-2 319,0,1,0,10,0,0,0,0,0,0,0,0,0,4,334,
scooby_state_558f9a|14|2 224,93,0,0,0,0,0,0,0,0,0,16,1,0,0,334,
scooby_state_451882|0|0 207,0,1,1,82,7,6,3,2,8,1,5,5,3,3,334,
scooby_state_45ff7e|27|-2 317,1,4,0,4,0,0,0,0,0,0,1,0,2,5,334,
scooby_state_463aa3|38|0 0,333,0,0,0,0,0,0,0,0,0,0,0,0,0,333,
scooby_state_4552c0|4|1 24,0,309,0,0,0,0,0,0,0,0,0,0,0,0,333,
scooby_state_45eeb8|8|0 333,0,0,0,0,0,0,0,0,0,0,0,0,0,0,333,
scooby_state_463aa3|49|0 0,333,0,0,0,0,0,0,0,0,0,0,0,0,0,333,
scooby_state_558f9a|29|2 211,98,1,0,0,0,0,0,0,0,0,22,0,0,0,332,
scooby_state_558f9a|49|2 206,105,2,0,0,0,0,0,1,0,0,17,1,0,0,332,
scooby_state_412cc0|14|1 332,0,0,0,0,0,0,0,0,0,0,0,0,0,0,332,
scooby_state_4552c0|58|1 26,0,306,0,0,0,0,0,0,0,0,0,0,0,0,332,
scooby_state_4552c0|39|1 30,1,300,0,0,0,0,0,0,0,0,0,0,0,0,331,
scooby_state_45eeb8|10|0 331,0,0,0,0,0,0,0,0,0,0,0,0,0,0,331,
scooby_state_4552c0|41|1 23,0,307,0,0,0,0,0,0,0,0,0,0,0,0,330,
scooby_state_45ff7e|5|-2 314,1,4,1,6,1,0,0,0,1,0,0,0,0,2,330,
scooby_state_4552c0|16|1 34,1,295,0,0,0,0,0,0,0,0,0,0,0,0,330,
scooby_state_463aa3|32|0 0,329,0,0,0,1,0,0,0,0,0,0,0,0,0,330,
scooby_state_45ff7e|47|-2 301,2,1,2,9,1,0,0,0,0,2,1,2,0,8,329,
scooby_state_558f9a|23|2 203,104,2,0,0,0,0,0,0,0,0,20,0,0,0,329,
scooby_state_45ff7e|41|-2 311,2,3,2,2,0,1,0,1,0,0,0,0,0,6,328,
scooby_state_412c87|42|1 326,0,0,0,0,0,0,0,0,0,1,0,0,1,0,328,
scooby_state_412cc0|39|1 328,0,0,0,0,0,0,0,0,0,0,0,0,0,0,328,
scooby_state_45ff7e|42|-2 315,1,0,2,2,0,1,0,1,1,0,1,1,0,3,328,
scooby_state_45ff7e|25|-2 310,1,1,1,10,0,1,0,0,0,0,0,0,0,4,328,
scooby_state_4552c0|21|1 27,2,299,0,0,0,0,0,0,0,0,0,0,0,0,328,
scooby_state_4552c0|13|1 29,0,297,0,0,0,0,0,0,1,0,0,0,1,0,328,
scooby_state_412cc0|38|1 328,0,0,0,0,0,0,0,0,0,0,0,0,0,0,328,
scooby_state_45ff7e|46|-2 312,2,2,0,8,0,0,0,0,0,0,0,0,0,3,327,
scooby_state_46d75a|34|8 1,325,0,0,0,0,0,0,0,1,0,0,0,0,0,327,
scooby_state_558f9a|16|2 216,95,1,0,0,0,0,0,1,0,0,14,0,0,0,327,
scooby_state_412cc0|43|1 326,0,0,0,0,0,0,0,0,0,0,0,0,0,0,326,
scooby_state_4552c0|33|1 26,0,300,0,0,0,0,0,0,0,0,0,0,0,0,326,
scooby_state_412cc0|11|1 324,0,0,0,0,1,1,0,0,0,0,0,0,0,0,326,
scooby_state_463e34|37|0 162,1,3,37,9,0,8,5,5,3,4,0,15,38,35,325,
scooby_state_463aa3|45|0 0,324,0,0,0,0,0,0,0,0,0,0,0,0,0,324,
scooby_state_558f9a|36|2 206,96,2,0,0,0,0,0,1,0,0,19,0,0,0,324,
scooby_state_558f9a|9|2 213,95,2,0,0,0,0,1,0,0,0,13,0,0,0,324,
scooby_state_4552c0|23|1 26,0,298,0,0,0,0,0,0,0,0,0,0,0,0,324,
scooby_state_559212|63|3 312,12,0,0,0,0,0,0,0,0,0,0,0,0,0,324,
scooby_state_45ff7a|34|-2 281,17,0,1,0,1,2,0,1,1,0,17,0,1,2,324,
scooby_state_4552c0|43|1 29,0,294,0,0,0,0,0,0,0,0,0,0,0,0,323,
scooby_state_558f9a|11|2 210,92,1,0,0,0,0,0,0,0,0,19,1,0,0,323,
scooby_state_412cc0|36|1 323,0,0,0,0,0,0,0,0,0,0,0,0,0,0,323,
scooby_state_4552c0|1|1 21,0,300,1,0,0,0,0,0,0,0,0,0,0,1,323,
scooby_state_4552c0|40|1 17,0,305,0,0,0,0,0,0,0,0,0,1,0,0,323,
scooby_state_45ff7e|48|-2 298,2,0,3,6,1,1,0,1,1,0,0,0,0,9,322,
scooby_state_558f9a|20|2 204,95,2,0,0,0,0,0,0,1,0,19,0,0,1,322,
scooby_state_558f9a|19|2 206,93,4,0,0,0,0,0,0,1,0,18,0,0,0,322,
scooby_state_412cc0|46|1 322,0,0,0,0,0,0,0,0,0,0,0,0,0,0,322,
scooby_state_558f9a|37|2 220,76,1,0,1,0,0,0,1,0,1,22,0,0,0,322,
scooby_state_463aa3|43|0 0,321,0,0,0,0,0,0,0,0,0,0,0,0,0,321,
scooby_state_463e27|33|-6 5,0,0,0,316,0,0,0,0,0,0,0,0,0,0,321,
scooby_state_45ff7e|35|-2 302,2,1,2,8,1,0,0,1,0,0,0,0,0,3,320,
scooby_state_558f9a|48|2 210,93,1,0,0,0,1,0,0,0,0,14,0,0,1,320,
scooby_state_45ff7e|49|-2 309,0,2,0,6,0,0,0,0,0,0,1,0,0,2,320,
scooby_state_4552c0|29|1 33,1,286,0,0,0,0,0,0,0,0,0,0,0,0,320,
scooby_state_4552c0|32|1 23,1,295,0,0,0,0,0,0,0,0,0,0,0,0,319,
scooby_state_412cc0|34|1 318,0,0,0,0,0,0,0,0,1,0,0,0,0,0,319,
scooby_state_412cc0|52|1 317,0,0,0,0,0,0,0,0,0,1,1,0,0,0,319,
scooby_state_463aa3|53|0 0,318,0,0,0,0,0,0,0,0,0,0,0,0,1,319,
scooby_state_463aa3|51|0 0,318,0,0,0,0,0,0,0,0,0,0,0,0,0,318,
scooby_state_4552c0|9|1 24,0,293,0,0,0,0,0,1,0,0,0,0,0,0,318,
scooby_state_412cc0|37|1 317,0,0,0,0,0,0,0,0,0,0,0,0,0,0,317,
scooby_state_558f9a|18|2 200,100,2,0,0,0,0,0,1,0,0,14,0,0,0,317,
scooby_state_558f9a|30|2 226,68,1,0,0,0,0,0,1,0,0,20,0,0,0,316,
scooby_state_412cc0|15|1 316,0,0,0,0,0,0,0,0,0,0,0,0,0,0,316,
scooby_state_45ff7e|43|-2 293,0,2,2,7,2,1,0,0,0,0,0,0,0,9,316,
scooby_state_412cc0|33|1 315,0,0,0,0,0,0,0,1,0,0,0,0,0,0,316,
scooby_state_412cc0|18|1 313,1,0,0,0,0,0,0,0,1,0,0,0,0,0,315,
scooby_state_463aa3|55|0 0,313,0,1,0,0,0,0,0,0,0,0,0,0,0,314,
scooby_state_463ea6|36|1 50,144,0,1,0,0,0,0,0,0,0,1,0,118,0,314,
scooby_state_558f9a|4|2 223,76,1,0,0,0,0,0,1,0,0,13,0,0,0,314,
scooby_state_463aa3|61|0 0,313,0,0,0,0,0,0,0,0,0,0,0,0,0,313,
scooby_state_54060a|24|0 246,0,9,0,0,0,0,0,0,0,0,20,37,0,0,312,
scooby_state_463e27|60|0 17,0,0,0,290,0,5,0,0,0,0,0,0,0,0,312,
scooby_state_558f9a|33|2 222,72,0,0,1,0,1,0,0,0,0,16,0,0,0,312,
scooby_state_463aa3|42|0 0,311,0,0,0,0,0,0,0,0,0,0,0,0,0,311,
scooby_state_558f9a|31|2 216,68,0,1,0,0,0,0,0,0,0,26,0,0,0,311,
scooby_state_463aa3|33|0 0,311,0,0,0,0,0,0,0,0,0,0,0,0,0,311,
scooby_state_45ee80|42|0 1,4,0,0,1,5,1,1,0,1,2,294,0,0,1,311,
scooby_state_4552c0|57|1 17,1,291,0,0,0,0,0,1,0,0,0,0,0,0,310,
scooby_state_4552c0|14|1 26,0,284,0,0,0,0,0,0,0,0,0,0,0,0,310,
scooby_state_45ff7a|1|-2 256,16,1,3,1,2,2,1,0,1,0,19,1,3,4,310,
scooby_state_45ff7e|10|-2 296,0,0,1,5,0,1,0,0,0,0,0,1,1,5,310,
scooby_state_45ff7a|31|-1 295,6,0,1,0,1,0,0,0,2,0,0,0,0,4,309,
scooby_state_45ff7e|16|-2 293,2,1,0,4,1,1,1,0,0,0,1,0,0,4,308,
scooby_state_412cc0|21|1 308,0,0,0,0,0,0,0,0,0,0,0,0,0,0,308,
scooby_state_463aa3|44|0 0,306,0,0,0,0,0,0,0,0,0,0,0,0,1,307,
scooby_state_559212|46|3 292,14,0,0,0,0,0,0,0,0,0,0,0,1,0,307,
scooby_state_559212|62|2 306,0,0,1,0,0,0,0,0,0,0,0,0,0,0,307,
scooby_state_558f9a|3|2 209,82,2,0,0,0,0,1,0,0,0,12,0,0,0,306,
scooby_state_4552c0|49|1 22,0,283,0,0,0,0,0,0,0,0,0,0,0,0,305,
scooby_state_45ee80|2|0 1,3,0,0,0,7,1,0,0,1,1,289,0,0,1,304,
scooby_state_45ff4d|48|0 282,11,0,1,0,0,0,2,0,0,0,1,0,5,2,304,
scooby_state_45ee80|27|0 1,3,0,1,0,8,0,0,1,0,1,288,0,0,1,304,
scooby_state_45ff7e|22|-2 286,1,2,1,7,1,0,0,0,1,0,2,1,0,2,304,
scooby_state_45ff4d|6|0 268,17,1,0,4,0,3,1,2,2,0,1,0,2,2,303,
scooby_state_45ff7a|54|-2 243,21,1,4,0,2,0,2,0,1,1,24,0,2,2,303,
scooby_state_45ff7a|32|-2 241,26,1,9,0,3,0,1,0,2,1,14,2,1,2,303,
scooby_state_473397|11|1 40,254,1,1,0,0,2,0,0,2,1,1,0,1,0,303,
scooby_state_45eeb8|9|0 302,0,0,1,0,0,0,0,0,0,0,0,0,0,0,303,
scooby_state_558f9a|35|2 187,95,2,0,0,0,0,0,0,0,0,18,0,0,0,302,
scooby_state_45ff7e|20|-2 287,1,2,0,7,1,1,0,0,0,0,1,0,0,2,302,
scooby_state_463e27|63|0 17,0,0,0,275,0,8,0,0,0,1,0,0,0,0,301,
scooby_state_45ff4d|4|0 271,17,2,0,2,0,1,0,1,1,2,1,0,1,2,301,
scooby_state_558f9a|24|2 200,85,1,0,0,0,0,0,0,0,0,14,0,0,0,300,
scooby_state_4552c0|8|1 23,0,276,1,0,0,0,0,0,0,0,0,0,0,0,300,
scooby_state_45ff4d|7|0 259,25,0,0,0,0,6,0,1,0,1,1,0,5,2,300,
scooby_state_43f978|10|0 145,0,0,0,0,0,0,0,0,0,0,0,0,154,1,300,
scooby_state_463aa3|58|0 0,300,0,0,0,0,0,0,0,0,0,0,0,0,0,300,
scooby_state_463e27|45|-6 5,0,0,0,294,0,0,0,0,0,0,0,0,0,0,299,
scooby_state_4552c0|55|1 25,1,272,0,0,0,0,0,0,0,0,0,0,0,0,298,
scooby_state_412c87|54|1 298,0,0,0,0,0,0,0,0,0,0,0,0,0,0,298,
scooby_state_45ee80|45|0 0,3,0,1,0,4,0,0,0,1,0,288,0,0,1,298,
scooby_state_45ff7a|61|-2 253,14,1,4,3,0,1,1,0,1,0,14,0,2,3,297,
scooby_state_44560a|40|0 23,220,0,46,0,0,0,0,0,0,0,0,0,0,7,296,
scooby_state_412c87|55|2 296,0,0,0,0,0,0,0,0,0,0,0,0,0,0,296,
scooby_state_45ff7e|9|-2 278,3,2,0,6,1,0,0,0,0,1,0,0,0,5,296,
scooby_state_45ff4d|2|0 261,13,2,1,1,1,0,2,1,3,3,1,1,4,2,296,
scooby_state_4552c0|28|1 21,0,274,0,0,0,0,0,0,0,0,0,0,0,0,295,
scooby_state_45ff7e|11|-2 280,3,0,1,4,0,1,0,1,0,0,1,0,0,4,295,
scooby_state_412cc0|19|1 295,0,0,0,0,0,0,0,0,0,0,0,0,0,0,295,
scooby_state_412c87|31|2 293,0,0,0,0,1,0,0,0,0,0,0,0,0,0,294,
scooby_state_44573c|57|0 243,0,0,2,0,0,0,0,0,0,0,0,0,48,0,293,
scooby_state_463aa3|46|0 0,292,0,0,0,0,0,1,0,0,0,0,0,0,0,293,
scooby_state_4552c0|6|1 32,2,258,0,0,0,0,0,0,0,1,0,0,0,0,293,
scooby_state_45ff4d|32|0 270,14,1,1,0,0,0,0,0,0,1,1,0,2,3,293,
scooby_state_558f9a|58|2 200,76,1,0,0,0,0,0,0,0,0,15,0,0,0,292,
scooby_state_463e27|46|-7 13,0,0,0,271,0,7,0,0,1,0,0,0,0,0,292,
scooby_state_412cc0|23|1 292,0,0,0,0,0,0,0,0,0,0,0,0,0,0,292,
scooby_state_45ee80|40|0 0,2,0,0,0,12,0,0,0,0,0,277,0,0,1,292,
scooby_state_45eeb8|11|0 291,0,0,0,0,0,0,0,0,0,0,0,1,0,0,292,
scooby_state_45ff7a|5|-2 238,25,0,3,1,1,0,1,0,1,0,20,0,1,1,292,
scooby_state_4552c0|26|1 20,0,270,0,0,0,0,0,0,0,0,0,0,1,0,291,
scooby_state_4552c0|2|1 28,0,262,0,0,0,0,0,0,0,0,0,0,0,0,290,
scooby_state_558f9a|43|2 200,66,2,0,0,0,0,1,1,0,0,20,0,0,0,290,
scooby_state_45ee80|49|0 0,1,0,0,0,5,0,1,0,0,1,282,0,0,0,290,
scooby_state_53e601|24|0 137,91,0,4,4,7,4,0,0,0,2,4,36,0,0,289,
scooby_state_45ff4d|8|0 269,14,0,0,1,0,0,0,0,0,1,2,0,1,1,289,
scooby_state_45ee80|1|0 0,4,0,0,0,5,0,1,0,0,1,278,0,0,0,289,
scooby_state_412c87|56|2 286,0,0,0,0,1,0,0,0,0,0,0,1,0,0,288,
scooby_state_412cc0|48|1 288,0,0,0,0,0,0,0,0,0,0,0,0,0,0,288,
scooby_state_45ff7a|48|-1 273,4,2,0,1,4,1,0,0,0,1,0,0,0,1,287,
scooby_state_412c87|5|1 287,0,0,0,0,0,0,0,0,0,0,0,0,0,0,287,
scooby_state_448b5a|63|1 193,70,2,4,1,0,0,1,3,1,1,0,0,0,11,287,
scooby_state_463e27|58|0 13,0,0,0,263,0,10,0,0,0,0,0,0,0,0,286,
scooby_state_4552c0|47|1 24,0,262,0,0,0,0,0,0,0,0,0,0,0,0,286,
scooby_state_45ff4d|54|0 265,13,0,0,0,0,0,0,1,1,1,1,0,1,2,285,
scooby_state_412cc0|13|1 284,0,0,0,0,0,0,0,0,1,0,0,0,0,0,285,
scooby_state_412cc0|42|1 284,0,0,1,0,0,0,0,0,0,0,0,0,0,0,285,
scooby_state_45ff4d|56|0 267,12,0,0,0,0,1,1,0,0,1,0,0,2,1,285,
scooby_state_558f9a|57|2 193,71,1,0,0,0,0,0,0,0,0,19,0,0,0,284,
scooby_state_463aa3|35|0 0,284,0,0,0,0,0,0,0,0,0,0,0,0,0,284,
scooby_state_42d605|24|0 0,189,12,8,1,0,24,4,3,7,1,4,31,0,0,284,
scooby_state_412cc0|30|1 283,0,0,0,0,0,0,0,0,0,0,0,0,0,0,283,
scooby_state_45ff7e|56|-1 268,0,0,3,2,0,0,0,0,0,1,2,1,2,4,283,
scooby_state_45ff7a|52|-1 272,3,1,0,1,1,0,0,0,1,1,1,0,0,2,283,
scooby_state_412cc0|16|1 283,0,0,0,0,0,0,0,0,0,0,0,0,0,0,283,
scooby_state_45ff7a|33|-1 266,6,2,0,0,2,1,1,0,0,0,1,3,0,0,282,
scooby_state_463e27|55|-7 10,0,0,0,269,0,3,0,0,0,0,0,0,0,0,282,
scooby_state_45ee80|46|0 0,4,0,0,0,5,0,0,0,0,1,271,1,0,0,282,
scooby_state_53cb5b|37|1 245,8,0,4,1,1,1,1,0,1,3,5,1,2,8,281,
scooby_state_558f9a|10|2 181,81,3,0,0,0,0,0,1,0,0,15,0,0,0,281,
scooby_state_412cc0|54|1 281,0,0,0,0,0,0,0,0,0,0,0,0,0,0,281,
scooby_state_53cb5b|2|1 254,2,1,6,1,0,2,3,2,0,0,2,2,2,3,280,
scooby_state_463e27|21|-7 12,0,0,0,262,0,6,0,0,0,0,0,0,0,0,280,
scooby_state_45ee80|61|0 0,2,0,0,0,5,2,0,0,0,1,270,0,0,0,280,
scooby_state_463e27|32|-6 8,0,0,0,272,0,0,0,0,0,0,0,0,0,0,280,
scooby_state_45ff7e|8|-2 261,0,2,3,6,1,0,0,0,0,1,1,2,0,2,279,
scooby_state_45ff7a|32|-1 270,1,2,1,0,3,0,0,0,0,0,0,0,1,1,279,
scooby_state_45ff7a|37|-2 231,16,0,1,1,1,1,1,1,0,0,21,1,1,2,278,
scooby_state_558f9a|6|2 177,87,2,0,0,0,0,0,0,0,0,12,0,0,0,278,
scooby_state_558f9a|42|2 180,70,3,0,0,0,0,0,0,0,0,24,0,0,0,277,
scooby_state_45ff7a|58|-2 244,14,0,3,0,0,1,0,0,0,2,12,0,0,1,277,
scooby_state_45ee80|32|0 0,2,0,0,0,5,0,0,0,0,0,270,0,0,0,277,
scooby_state_463e27|42|-7 9,0,0,0,264,0,4,0,0,0,0,0,0,0,0,277,
scooby_state_559212|62|3 258,18,0,0,0,0,0,0,1,0,0,0,0,0,0,277,
scooby_state_45ff7a|59|-2 237,9,1,7,0,0,0,0,0,1,0,19,2,0,1,277,
scooby_state_400600|24|0 18,0,11,2,1,7,108,12,1,0,1,0,0,1,114,276,
scooby_state_463e27|22|-6 4,0,0,0,272,0,0,0,0,0,0,0,0,0,0,276,
scooby_state_46d75a|2|1 0,275,0,0,0,0,0,0,0,0,0,0,0,0,0,275,
scooby_state_473397|13|1 24,237,2,0,1,1,1,1,1,1,1,2,1,2,0,275,
scooby_state_463aa3|56|0 0,275,0,0,0,0,0,0,0,0,0,0,0,0,0,275,
scooby_state_473397|51|1 44,217,1,0,1,0,1,2,0,2,2,0,2,0,3,275,
scooby_state_473397|10|1 38,223,2,2,0,2,1,1,0,2,1,0,1,2,0,275,
scooby_state_463e27|45|-7 12,0,0,0,261,0,2,0,0,0,0,0,0,0,0,275,
scooby_state_473397|4|1 53,208,2,0,1,2,2,0,0,1,2,2,0,1,1,275,
scooby_state_45ff7e|45|-2 256,1,0,3,10,0,0,0,0,0,0,0,0,0,4,274,
scooby_state_412c87|52|2 272,1,0,0,0,0,0,0,0,0,0,0,1,0,0,274,
scooby_state_412cc0|61|1 274,0,0,0,0,0,0,0,0,0,0,0,0,0,0,274,
scooby_state_53cb5b|6|1 247,2,0,3,1,1,1,1,0,1,1,7,0,0,9,274,
scooby_state_45ee80|0|0 0,1,1,0,0,4,0,0,1,0,2,264,0,0,0,273,
scooby_state_45ff7a|15|-1 258,2,2,1,0,4,0,2,0,0,2,0,0,1,1,273,
scooby_state_412c87|40|2 272,0,0,0,0,0,0,0,0,0,0,0,0,0,0,272,
scooby_state_558f9a|61|2 204,54,4,0,0,0,0,0,1,0,0,9,0,0,0,272,
scooby_state_463aa3|57|0 0,272,0,0,0,0,0,0,0,0,0,0,0,0,0,272,
scooby_state_463e27|30|-7 7,0,0,0,263,0,2,0,0,0,0,0,0,0,0,272,
scooby_state_463e27|15|-6 13,0,0,0,259,0,0,0,0,0,0,0,0,0,0,272,
scooby_state_45ff4d|57|0 250,11,1,0,0,1,0,0,1,1,1,0,2,4,0,272,
scooby_state_45ff7a|31|-2 224,15,2,4,0,2,2,1,1,0,0,16,1,3,1,272,
scooby_state_412c87|23|2 270,0,1,0,0,0,0,0,1,0,0,0,0,0,0,272,
scooby_state_45ff7a|27|-1 262,1,0,1,1,5,1,0,0,1,0,0,0,0,0,272,
scooby_state_45ff7a|33|-2 235,12,0,5,1,1,2,0,0,0,2,10,1,2,1,272,
scooby_state_463aa3|50|0 0,272,0,0,0,0,0,0,0,0,0,0,0,0,0,272,
scooby_state_463e27|35|-6 12,0,0,0,260,0,0,0,0,0,0,0,0,0,0,272,
scooby_state_45ffdb|0|0 95,0,34,29,8,12,7,7,12,10,46,5,0,0,6,271,
scooby_state_559212|55|2 270,0,0,0,1,0,0,0,0,0,0,0,0,0,0,271,
scooby_state_558f9a|60|2 193,54,1,0,0,0,0,1,0,0,0,22,0,0,0,271,
scooby_state_463e27|2|-6 10,0,0,0,261,0,0,0,0,0,0,0,0,0,0,271,
scooby_state_45ff7a|30|-2 213,20,0,7,2,2,1,1,0,1,3,19,1,0,1,271,
scooby_state_45ff7e|62|-1 254,2,0,3,1,0,1,2,1,1,0,1,0,2,3,271,
scooby_state_45ff7a|29|-1 255,7,0,2,0,1,2,0,1,0,1,0,0,0,2,271,
scooby_state_463aa3|48|0 1,270,0,0,0,0,0,0,0,0,0,0,0,0,0,271,
scooby_state_473397|46|1 32,225,1,0,0,1,0,1,2,2,0,2,0,2,2,270,
scooby_state_463e27|47|-7 7,0,0,0,258,0,5,0,0,0,0,0,0,0,0,270,
scooby_state_412c87|11|1 269,0,1,0,0,0,0,0,0,0,0,0,0,0,0,270,
scooby_state_45ee80|48|0 0,3,0,1,0,10,2,0,1,1,1,249,1,0,1,270,
scooby_state_45ee80|50|0 1,3,0,1,0,5,1,0,0,1,0,256,1,0,0,269,
scooby_state_412c87|32|1 268,0,0,0,0,0,0,0,0,0,0,0,0,1,0,269,
scooby_state_45ff4d|60|0 245,10,0,1,1,0,0,0,0,1,1,0,1,7,2,269,
scooby_state_412c87|19|2 269,0,0,0,0,0,0,0,0,0,0,0,0,0,0,269,
scooby_state_412c87|1|0 268,0,0,0,0,0,0,0,0,0,0,1,0,0,0,269,
scooby_state_559212|39|2 269,0,0,0,0,0,0,0,0,0,0,0,0,0,0,269,
scooby_state_463e27|62|0 9,0,0,0,256,0,4,0,0,0,0,0,0,0,0,269,
scooby_state_45ee80|6|0 0,2,0,1,0,4,0,0,0,1,1,260,0,0,0,269,
scooby_state_463e27|13|-7 9,0,0,0,255,0,5,0,0,0,0,0,0,0,0,269,
scooby_state_412c87|44|1 268,0,0,0,0,0,0,0,0,0,0,0,0,0,0,268,
scooby_state_45ff4d|44|0 245,10,2,0,0,0,1,0,1,0,0,1,0,5,3,268,
scooby_state_45ee80|25|0 2,2,0,0,1,4,1,1,0,1,1,254,0,0,0,267,
scooby_state_463e27|23|-6 8,0,0,0,259,0,0,0,0,0,0,0,0,0,0,267,
scooby_state_412c87|4|2 267,0,0,0,0,0,0,0,0,0,0,0,0,0,0,267,
scooby_state_45ff7a|34|-1 252,0,4,0,2,0,0,2,0,0,0,1,2,2,2,267,
scooby_state_412c87|57|2 267,0,0,0,0,0,0,0,0,0,0,0,0,0,0,267,
scooby_state_463e27|7|-6 8,0,0,0,258,0,0,0,0,0,0,0,0,0,0,266,
scooby_state_45ff7a|26|-2 221,12,0,2,1,3,0,0,1,0,1,24,0,0,1,266,
scooby_state_412c87|2|2 265,0,0,0,0,0,0,0,0,0,0,0,0,0,1,266,
scooby_state_412c87|16|1 266,0,0,0,0,0,0,0,0,0,0,0,0,0,0,266,
scooby_state_412cc0|29|1 265,0,1,0,0,0,0,0,0,0,0,0,0,0,0,266,
scooby_state_45ff7a|28|-2 227,18,0,3,0,1,0,0,0,1,0,14,1,0,1,266,
scooby_state_463e27|46|-6 7,0,0,0,259,0,0,0,0,0,0,0,0,0,0,266,
scooby_state_443d2b|7|0 36,2,1,175,1,1,1,0,0,0,0,1,2,0,46,266,
scooby_state_473397|30|1 29,220,1,1,0,0,0,1,3,0,1,1,2,1,5,265,
scooby_state_412c87|31|1 264,0,0,0,0,0,0,1,0,0,0,0,0,0,0,265,
scooby_state_558f9a|51|2 169,79,1,0,0,1,0,1,1,0,0,12,0,1,0,265,
scooby_state_559212|38|2 265,0,0,0,0,0,0,0,0,0,0,0,0,0,0,265,
scooby_state_473397|27|1 27,226,1,0,0,1,1,1,2,0,0,0,0,2,3,264,
scooby_state_4552c0|51|1 21,0,243,0,0,0,0,0,0,0,0,0,0,0,0,264,
scooby_state_463e27|9|-7 14,0,0,0,244,0,6,0,0,0,0,0,0,0,0,264,
scooby_state_473397|62|1 32,222,3,2,1,0,0,1,0,1,0,0,0,1,1,264,
scooby_state_448b5a|61|-1 33,225,0,0,0,0,1,0,0,0,0,3,1,0,1,264,
scooby_state_463e27|27|-6 4,0,0,0,259,0,0,0,0,0,0,0,0,0,0,263,
scooby_state_412c87|41|1 263,0,0,0,0,0,0,0,0,0,0,0,0,0,0,263,
scooby_state_45ff7a|36|-2 216,16,2,8,1,0,1,0,0,1,0,16,0,1,1,263,
scooby_state_45ee80|57|0 1,0,0,0,1,2,0,0,0,1,0,257,0,0,1,263,
scooby_state_473397|35|1 33,215,2,1,1,0,2,1,2,0,0,0,2,2,2,263,
scooby_state_558f9a|40|2 189,55,0,0,0,0,0,0,0,0,0,19,0,0,0,263,
scooby_state_45ff7a|25|-2 230,9,0,2,0,0,2,0,1,0,0,18,1,0,0,263,
scooby_state_45ff7a|50|-2 219,16,2,1,0,1,0,1,2,1,0,16,0,2,1,262,
scooby_state_412c87|24|1 261,0,0,0,0,0,0,0,0,1,0,0,0,0,0,262,
scooby_state_463aa3|62|0 0,262,0,0,0,0,0,0,0,0,0,0,0,0,0,262,
scooby_state_45ff7a|56|-1 244,4,1,0,0,1,1,0,1,1,0,2,3,1,3,262,
scooby_state_45ee80|43|0 0,2,0,2,0,2,1,0,1,0,0,254,0,0,0,262,
scooby_state_45ff7a|44|-1 251,0,0,0,1,3,1,0,1,0,0,0,1,0,3,261,
scooby_state_473397|38|1 35,213,2,0,0,0,1,0,1,0,2,1,2,3,1,261,
scooby_state_45ee80|31|0 0,1,0,1,0,3,0,0,1,0,2,252,0,0,1,261,
scooby_state_473397|42|1 35,215,1,0,1,1,0,2,0,1,0,1,1,2,1,261,
scooby_state_473397|18|1 35,216,1,1,0,2,0,0,0,2,2,1,0,0,0,260,
scooby_state_473397|19|1 43,207,1,0,0,1,1,1,0,1,0,1,0,3,1,260,
scooby_state_473397|22|1 30,219,1,1,0,0,0,0,1,2,0,0,1,1,4,260,
scooby_state_412c87|36|1 259,0,0,0,0,0,0,0,0,0,0,0,0,0,0,259,
scooby_state_473397|47|1 41,214,2,1,0,0,0,0,0,0,0,1,0,0,0,259,
scooby_state_559212|47|3 246,12,0,0,0,0,0,1,0,0,0,0,0,0,0,259,
scooby_state_463e27|54|-7 7,0,0,0,246,0,6,0,0,0,0,0,0,0,0,259,
scooby_state_53cb5b|38|1 236,3,1,2,1,0,1,3,1,0,0,3,1,1,6,259,
scooby_state_558f9a|56|2 185,56,1,0,0,0,0,0,0,0,0,17,0,0,0,259,
scooby_state_448b7a|61|1 52,26,67,5,3,0,9,4,3,1,5,41,31,1,10,258,
scooby_state_45ff7a|0|-1 239,1,1,1,3,2,1,1,2,0,1,0,2,1,3,258,
scooby_state_443d2b|6|0 33,0,0,177,1,0,1,0,0,0,1,0,0,0,45,258,
scooby_state_53cacd|0|0 221,11,1,0,4,0,0,0,1,0,0,14,0,0,6,258,
scooby_state_412c87|26|2 257,0,0,0,0,0,0,0,1,0,0,0,0,0,0,258,
scooby_state_45ff7a|36|-1 253,2,0,0,0,1,0,0,0,0,0,0,1,0,1,258,
scooby_state_463e27|25|-7 6,0,0,0,241,0,10,0,0,0,0,1,0,0,0,258,
scooby_state_45ff7a|6|-2 207,18,2,4,1,1,1,0,0,0,1,18,0,4,1,258,
scooby_state_45ee80|3|0 0,1,0,0,0,2,1,0,0,0,0,253,0,1,0,258,
scooby_state_46d75a|7|1 0,257,0,0,0,0,0,0,0,0,0,0,0,0,0,257,
scooby_state_412c87|9|2 257,0,0,0,0,0,0,0,0,0,0,0,0,0,0,257,
scooby_state_46d75a|2|2 1,252,0,0,0,1,1,0,0,0,1,0,0,0,0,256,
scooby_state_53cb5b|19|1 239,5,0,2,0,2,1,0,0,2,2,1,0,0,2,256,
scooby_state_45ee80|34|0 0,4,1,0,0,6,0,0,0,1,2,242,0,0,0,256,
scooby_state_463e27|28|-6 7,0,0,0,248,0,0,0,1,0,0,0,0,0,0,256,
scooby_state_463e27|53|-6 8,0,0,0,248,0,0,0,0,0,0,0,0,0,0,256,
scooby_state_45ff7a|29|-2 218,10,2,7,1,0,0,0,2,0,1,14,0,0,1,256,
scooby_state_412c87|50|2 256,0,0,0,0,0,0,0,0,0,0,0,0,0,0,256,
scooby_state_45ff7a|12|-2 212,17,0,2,1,2,0,0,0,0,0,19,0,1,2,256,
scooby_state_45ff7a|40|-2 205,18,1,3,0,1,0,2,2,1,0,21,0,0,1,255,
scooby_state_45ff7a|58|-1 247,1,1,0,0,2,0,0,0,0,0,1,1,0,2,255,
scooby_state_473397|17|1 37,207,2,0,1,0,0,0,0,1,2,0,0,2,3,255,
scooby_state_473397|49|1 26,224,0,1,0,0,0,0,0,1,0,1,0,0,2,255,
scooby_state_46d75a|6|2 1,254,0,0,0,0,0,0,0,0,0,0,0,0,0,255,
scooby_state_45ee80|36|0 1,2,0,1,0,9,1,0,0,1,1,234,3,0,2,255,
scooby_state_463e27|56|-7 10,0,0,0,234,0,10,0,0,0,0,0,0,0,0,254,
scooby_state_412c87|7|1 254,0,0,0,0,0,0,0,0,0,0,0,0,0,0,254,
scooby_state_412c87|55|1 254,0,0,0,0,0,0,0,0,0,0,0,0,0,0,254,
scooby_state_558f9a|44|2 192,44,0,0,0,0,0,0,0,0,0,18,0,0,0,254,
scooby_state_412c87|50|1 254,0,0,0,0,0,0,0,0,0,0,0,0,0,0,254,
scooby_state_45ff7a|39|-1 247,0,0,3,0,0,0,0,1,0,0,1,0,0,2,254,
scooby_state_45ff7a|50|-1 239,7,1,0,0,1,0,0,0,0,2,1,0,0,2,253,
scooby_state_473397|50|1 19,221,2,2,2,0,1,1,1,0,0,1,1,1,1,253,
scooby_state_412c87|35|2 253,0,0,0,0,0,0,0,0,0,0,0,0,0,0,253,
scooby_state_53cb5b|55|1 217,7,1,1,1,2,5,4,2,1,1,3,0,1,7,253,
scooby_state_53cb5b|11|1 222,10,2,3,0,0,1,1,0,1,0,2,1,2,8,253,
scooby_state_463e27|40|-6 5,0,0,0,247,0,0,0,0,0,0,0,0,0,0,252,
scooby_state_412c87|27|1 252,0,0,0,0,0,0,0,0,0,0,0,0,0,0,252,
scooby_state_463e34|35|0 162,1,16,7,3,1,3,3,3,4,2,3,23,13,8,252,
scooby_state_463e27|41|-6 10,0,0,0,241,0,0,0,0,0,0,0,1,0,0,252,
scooby_state_45ff7a|39|-2 202,15,3,3,0,1,1,0,0,0,1,21,1,1,3,252,
scooby_state_45ff7a|57|-1 243,1,1,0,1,0,1,0,0,0,0,0,0,2,2,251,
scooby_state_45ff7a|17|-1 237,2,0,2,1,2,0,0,0,1,0,0,4,0,2,251,
scooby_state_463e27|36|-7 5,0,0,0,240,0,6,0,0,0,0,0,0,0,0,251,
scooby_state_45ff7a|0|-2 220,9,0,4,0,1,1,1,0,0,0,13,0,1,1,251,
scooby_state_558f9a|41|2 197,48,0,0,0,0,0,0,0,0,0,6,0,0,0,251,
scooby_state_45ff4d|40|0 218,15,2,0,0,0,2,2,1,0,1,1,0,4,5,251,
scooby_state_45ff7a|52|-2 199,15,0,6,0,3,1,2,0,1,0,20,1,2,1,251,
scooby_state_46d75a|4|1 0,250,0,0,1,0,0,0,0,0,0,0,0,0,0,251,
scooby_state_53cb5b|36|1 221,6,1,3,2,1,2,0,0,1,1,0,4,1,7,250,
scooby_state_53e083|32|0 192,17,4,4,1,1,2,6,0,1,9,3,3,4,3,250,
scooby_state_463e27|1|-7 10,0,0,0,236,0,3,0,0,0,0,0,0,0,1,250,
scooby_state_45ff7a|19|-2 213,15,0,4,1,0,0,0,0,1,0,14,1,1,0,250,
scooby_state_463e27|38|-7 5,0,0,0,239,0,5,0,0,0,0,0,0,0,1,250,
scooby_state_473397|3|1 26,213,2,1,0,1,0,0,0,1,2,0,1,0,3,250,
scooby_state_473397|53|1 33,210,0,0,0,0,1,1,0,0,1,1,0,2,1,250,
scooby_state_46d75a|7|2 0,250,0,0,0,0,0,0,0,0,0,0,0,0,0,250,
scooby_state_463e27|40|-7 8,0,0,0,236,0,6,0,0,0,0,0,0,0,0,250,
scooby_state_412c87|14|2 249,0,0,0,0,0,1,0,0,0,0,0,0,0,0,250,
scooby_state_45ff4d|36|0 229,9,0,0,0,0,1,2,1,0,0,2,0,2,4,250,
scooby_state_559212|55|3 234,16,0,0,0,0,0,0,0,0,0,0,0,0,0,250,
scooby_state_53df0a|33|0 5,245,0,0,0,0,0,0,0,0,0,0,0,0,0,250,
scooby_state_473397|15|1 28,211,1,1,0,2,0,0,1,0,1,1,1,0,3,250,
scooby_state_473397|26|1 33,208,1,0,1,1,2,0,0,1,0,0,1,1,1,250,
scooby_state_45ff7a|60|-1 231,4,1,0,0,2,2,4,0,1,0,0,1,0,3,249,
scooby_state_412c87|13|2 249,0,0,0,0,0,0,0,0,0,0,0,0,0,0,249,
scooby_state_45ff7a|17|-2 209,13,0,4,0,2,0,1,1,1,1,14,0,0,3,249,
scooby_state_463e27|3|-7 5,0,0,0,238,0,6,0,0,0,0,0,0,0,0,249,
scooby_state_45ff7a|1|-1 238,2,0,2,0,1,0,0,0,1,0,1,0,1,2,248,
scooby_state_412c87|40|1 248,0,0,0,0,0,0,0,0,0,0,0,0,0,0,248,
scooby_state_463e27|11|-6 8,0,0,0,238,0,0,0,0,1,0,1,0,0,0,248,
scooby_state_412cc0|60|1 247,0,0,0,0,0,0,0,0,0,0,0,0,0,1,248,
scooby_state_558f9a|45|2 170,60,2,0,0,0,0,0,1,0,0,15,0,0,0,248,
scooby_state_412c87|8|1 248,0,0,0,0,0,0,0,0,0,0,0,0,0,0,248,
scooby_state_463e27|31|-6 13,0,0,0,234,0,0,0,0,0,0,0,0,0,0,247,
scooby_state_45ee80|16|0 0,0,0,0,1,3,0,0,1,0,1,240,0,0,1,247,
scooby_state_412c87|48|2 247,0,0,0,0,0,0,0,0,0,0,0,0,0,0,247,
scooby_state_473397|37|1 25,218,0,1,0,0,0,0,1,0,0,0,1,1,0,247,
scooby_state_45ee80|37|0 0,0,0,0,0,2,0,0,0,0,2,243,0,0,0,247,
scooby_state_45ff7a|57|-2 206,21,0,1,0,0,2,0,0,0,0,15,0,0,2,247,
scooby_state_412c87|11|2 246,1,0,0,0,0,0,0,0,0,0,0,0,0,0,247,
scooby_state_45ee80|17|0 0,4,0,0,0,2,0,0,0,0,1,240,0,0,0,247,
scooby_state_463e27|18|-6 5,0,0,0,242,0,0,0,0,0,0,0,0,0,0,247,
scooby_state_412c87|3|1 247,0,0,0,0,0,0,0,0,0,0,0,0,0,0,247,
scooby_state_463e27|0|-6 15,0,0,0,230,0,0,0,0,0,0,0,0,1,0,246,
scooby_state_463e27|59|0 15,0,0,0,226,0,5,0,0,0,0,0,0,0,0,246,
scooby_state_45ff7a|44|-2 215,12,1,1,0,0,0,0,1,0,0,10,3,2,1,246,
scooby_state_412c87|61|2 245,0,0,0,0,0,0,0,1,0,0,0,0,0,0,246,
scooby_state_53cb5b|46|1 219,7,0,3,0,1,1,0,0,1,2,2,1,1,8,246,
scooby_state_412c87|37|1 246,0,0,0,0,0,0,0,0,0,0,0,0,0,0,246,
scooby_state_45ff7a|54|-1 232,2,1,2,1,1,1,0,0,1,0,1,1,0,3,246,
scooby_state_463aa3|63|0 0,245,0,0,0,0,1,0,0,0,0,0,0,0,0,246,
scooby_state_45ff4d|52|0 219,16,0,1,1,0,0,0,0,1,0,1,0,6,0,245,
scooby_state_412c87|34|1 245,0,0,0,0,0,0,0,0,0,0,0,0,0,0,245,
scooby_state_412c87|49|1 245,0,0,0,0,0,0,0,0,0,0,0,0,0,0,245,
scooby_state_53cb5b|42|1 223,4,0,4,2,0,0,2,3,1,1,1,0,1,3,245,
scooby_state_45eeb8|14|0 245,0,0,0,0,0,0,0,0,0,0,0,0,0,0,245,
scooby_state_45ff4d|58|0 221,17,0,1,0,0,0,0,0,1,0,0,0,3,2,245,
scooby_state_45ff7a|11|-1 225,7,2,1,0,3,0,0,1,1,0,1,0,2,2,245,
scooby_state_412c87|46|1 243,0,0,0,0,0,2,0,0,0,0,0,0,0,0,245,
scooby_state_463e27|25|-6 10,0,0,0,234,0,0,0,0,0,0,0,0,0,0,244,
scooby_state_412c87|20|1 244,0,0,0,0,0,0,0,0,0,0,0,0,0,0,244,
scooby_state_473397|0|0 161,36,0,0,1,0,0,0,0,0,0,0,46,0,0,244,
scooby_state_412c87|28|1 244,0,0,0,0,0,0,0,0,0,0,0,0,0,0,244,
scooby_state_473397|34|1 29,206,0,0,2,0,2,2,0,0,0,0,0,1,2,244,
scooby_state_45ff7a|41|-1 227,2,1,1,1,3,0,1,2,2,1,1,1,0,1,244,
scooby_state_53cb5b|43|1 222,5,1,3,0,1,1,0,2,1,2,2,1,0,3,244,
scooby_state_45ff7a|21|-1 231,6,0,0,1,1,0,0,1,0,2,0,0,0,2,244,
scooby_state_45ff7a|13|-1 234,5,0,0,1,1,1,1,0,1,0,0,0,0,0,244,
scooby_state_46d75a|6|1 0,244,0,0,0,0,0,0,0,0,0,0,0,0,0,244,
scooby_state_463e27|37|-6 4,0,0,0,240,0,0,0,0,0,0,0,0,0,0,244,
scooby_state_463e27|34|-7 13,0,0,0,229,0,1,0,0,0,0,0,0,0,0,243,
scooby_state_45ff7a|45|-2 190,21,1,2,1,2,0,2,0,1,0,20,0,2,1,243,
scooby_state_53cb5b|50|1 210,9,0,0,0,0,5,1,1,4,0,4,2,0,7,243,
scooby_state_451882|22|2 174,1,0,0,25,1,0,0,0,2,0,38,0,1,0,242,
scooby_state_45ff7a|16|-2 206,11,1,2,0,0,1,0,3,0,1,15,0,1,1,242,
scooby_state_412c87|44|2 241,0,0,0,1,0,0,0,0,0,0,0,0,0,0,242,
scooby_state_412cc0|25|1 242,0,0,0,0,0,0,0,0,0,0,0,0,0,0,242,
scooby_state_412c87|37|2 242,0,0,0,0,0,0,0,0,0,0,0,0,0,0,242,
scooby_state_45ff7a|37|-1 235,3,0,0,0,2,0,0,0,0,1,0,1,0,0,242,
scooby_state_463e27|19|-6 9,0,0,0,233,0,0,0,0,0,0,0,0,0,0,242,
scooby_state_412c87|8|2 241,0,1,0,0,0,0,0,0,0,0,0,0,0,0,242,
scooby_state_45ff7a|28|-1 229,2,1,0,1,3,1,0,1,2,0,0,0,1,0,241,
scooby_state_45ff7a|15|-2 198,20,0,1,0,3,0,0,1,0,0,15,1,0,2,241,
scooby_state_412c87|25|2 241,0,0,0,0,0,0,0,0,0,0,0,0,0,0,241,
scooby_state_412c87|9|1 240,0,0,0,0,0,1,0,0,0,0,0,0,0,0,241,
scooby_state_4552b0|48|2 2,107,124,0,0,8,0,0,0,0,0,0,0,0,0,241,
scooby_state_463e27|0|-7 6,0,0,0,225,0,10,0,0,0,0,0,0,0,0,241,
scooby_state_412c87|62|2 241,0,0,0,0,0,0,0,0,0,0,0,0,0,0,241,
scooby_state_45ff4d|12|0 204,24,0,0,2,1,0,1,2,3,1,1,0,2,0,241,
scooby_state_45ff7a|35|-1 233,0,0,1,1,1,0,0,0,0,0,1,0,0,4,241,
scooby_state_473397|59|1 33,200,1,1,0,0,1,0,0,3,1,0,0,0,1,241,
scooby_state_4552b0|47|2 0,105,125,0,0,10,0,0,0,0,0,0,0,0,0,240,
scooby_state_412c87|6|2 240,0,0,0,0,0,0,0,0,0,0,0,0,0,0,240,
scooby_state_473397|12|1 35,199,0,0,0,0,0,0,0,0,0,0,0,3,3,240,
scooby_state_473397|58|1 25,199,2,3,3,0,1,1,0,0,1,1,0,3,1,240,
scooby_state_451882|62|1 45,0,1,2,168,0,3,1,0,7,2,0,3,2,6,240,
scooby_state_412c87|33|2 240,0,0,0,0,0,0,0,0,0,0,0,0,0,0,240,
scooby_state_45ff7a|23|-2 190,10,0,4,0,4,2,0,3,0,0,22,1,0,3,239,
scooby_state_473397|52|1 19,207,1,3,1,1,0,0,0,0,1,1,2,0,3,239,
scooby_state_45ff7a|40|-1 228,1,0,1,2,1,1,1,0,0,0,0,1,1,2,239,
scooby_state_473397|55|1 29,202,1,1,1,0,0,0,1,0,1,0,1,1,1,239,
scooby_state_451882|12|1 47,0,0,3,166,1,1,1,2,9,1,0,1,3,4,239,
scooby_state_45ff7a|30|-1 223,6,2,0,0,0,0,1,1,1,1,1,0,1,2,239,
scooby_state_463e27|52|-7 6,0,0,1,220,1,10,0,0,0,0,1,0,0,0,239,
scooby_state_463e27|7|-7 7,0,0,1,223,0,6,1,0,0,0,0,0,1,0,239,
scooby_state_45ee80|41|0 1,0,0,0,0,2,0,0,0,1,2,233,0,0,0,239,
scooby_state_412c87|46|2 239,0,0,0,0,0,0,0,0,0,0,0,0,0,0,239,
scooby_state_45ff7a|10|-2 206,11,0,5,0,1,1,1,0,1,0,10,1,0,2,239,
scooby_state_53cb5b|54|1 212,7,1,2,0,1,1,1,3,1,0,2,1,1,6,239,
scooby_state_559212|54|2 237,0,0,1,0,0,0,0,0,0,0,0,0,0,0,238,
scooby_state_45ee80|51|0 0,4,0,1,0,6,0,0,0,1,1,224,1,0,0,238,
scooby_state_463e27|15|-7 3,0,0,0,227,0,8,0,0,0,0,0,0,0,0,238,
scooby_state_4552b0|26|1 110,65,62,0,0,0,0,0,0,0,0,0,1,0,0,238,
scooby_state_45ff7a|23|-1 228,2,0,1,3,3,0,0,0,0,1,0,0,0,0,238,
scooby_state_45ff7a|3|-2 196,18,1,3,0,2,0,1,0,0,0,16,1,0,0,238,
scooby_state_45ff7a|51|-2 176,28,1,5,2,1,1,1,1,1,1,16,0,0,4,238,
scooby_state_558f9a|53|2 154,73,3,0,0,0,0,0,0,0,0,8,0,0,0,238,
scooby_state_45eeb8|35|0 238,0,0,0,0,0,0,0,0,0,0,0,0,0,0,238,
scooby_state_45ee80|26|0 1,2,0,0,0,6,0,1,0,1,0,225,1,0,0,237,
scooby_state_412c87|43|2 237,0,0,0,0,0,0,0,0,0,0,0,0,0,0,237,
scooby_state_463e27|9|-6 9,0,0,0,226,0,0,0,0,0,0,0,1,0,1,237,
scooby_state_46d75a|1|1 0,237,0,0,0,0,0,0,0,0,0,0,0,0,0,237,
scooby_state_53cb5b|49|1 208,2,0,3,0,0,2,2,1,3,0,0,2,3,11,237,
scooby_state_473397|61|1 29,200,0,1,0,0,0,1,0,1,0,0,1,2,2,237,
scooby_state_451882|3|2 156,2,0,0,38,4,1,0,0,1,1,33,0,0,1,237,
scooby_state_463e27|16|-7 10,0,0,0,224,0,3,0,0,0,0,0,0,0,0,237,
[...]
scooby_state_494c73|54|34 1,0,0,0,0,0,0,0,0,0,0,0,0,0,0,1,
scooby_state_42f267|63|0 0,1,0,0,0,0,0,0,0,0,0,0,0,0,0,1,
scooby_state_42d894|54|15 1,0,0,0,0,0,0,0,0,0,0,0,0,0,0,1,
scooby_state_53cbaf|7|-5 1,0,0,0,0,0,0,0,0,0,0,0,0,0,0,1,
scooby_state_45fe0d|40|0 1,0,0,0,0,0,0,0,0,0,0,0,0,0,0,1,
scooby_state_45ee80|53|49 0,0,0,0,0,0,0,0,0,0,0,1,0,0,0,1,
scooby_state_45eea7|8|-45 1,0,0,0,0,0,0,0,0,0,0,0,0,0,0,1,
scooby_state_456269|33|10 1,0,0,0,0,0,0,0,0,0,0,0,0,0,0,1,
scooby_state_46000d|58|3 1,0,0,0,0,0,0,0,0,0,0,0,0,0,0,1,
scooby_state_46d75a|28|2 0,1,0,0,0,0,0,0,0,0,0,0,0,0,0,1,
scooby_state_40d288|31|30 0,0,0,0,0,0,0,0,0,0,0,1,0,0,0,1,
scooby_state_46d720|53|1 1,0,0,0,0,0,0,0,0,0,0,0,0,0,0,1,
scooby_state_42d851|43|2 0,0,0,0,1,0,0,0,0,0,0,0,0,0,0,1,
scooby_state_42d894|51|-1 0,0,0,0,1,0,0,0,0,0,0,0,0,0,0,1,
scooby_state_456198|55|13 1,0,0,0,0,0,0,0,0,0,0,0,0,0,0,1,
scooby_state_448b5a|34|-26 1,0,0,0,0,0,0,0,0,0,0,0,0,0,0,1,
scooby_state_45fdd7|0|-29 0,1,0,0,0,0,0,0,0,0,0,0,0,0,0,1,
scooby_state_494c73|12|-49 0,1,0,0,0,0,0,0,0,0,0,0,0,0,0,1,
scooby_state_463b4a|62|1 0,1,0,0,0,0,0,0,0,0,0,0,0,0,0,1,
scooby_state_42f2bd|46|0 0,0,0,0,0,0,0,0,0,0,0,0,0,0,1,1,
scooby_state_42d894|22|16 1,0,0,0,0,0,0,0,0,0,0,0,0,0,0,1,
scooby_state_559fe0|46|15 1,0,0,0,0,0,0,0,0,0,0,0,0,0,0,1,
scooby_state_42d894|45|-1 0,0,0,0,0,0,0,1,0,0,0,0,0,0,0,1,
scooby_state_42d87b|41|-1 1,0,0,0,0,0,0,0,0,0,0,0,0,0,0,1,
scooby_state_45eeb8|41|23 1,0,0,0,0,0,0,0,0,0,0,0,0,0,0,1,
scooby_state_456269|56|-5 1,0,0,0,0,0,0,0,0,0,0,0,0,0,0,1,
scooby_state_410f2c|3|-29 0,1,0,0,0,0,0,0,0,0,0,0,0,0,0,1,
scooby_state_40d288|46|37 0,0,0,0,0,0,0,0,0,0,0,1,0,0,0,1,
scooby_state_456269|50|39 1,0,0,0,0,0,0,0,0,0,0,0,0,0,0,1,
scooby_state_494c73|44|43 0,0,0,0,0,0,0,0,0,0,0,0,1,0,0,1,
scooby_state_456198|54|-2 1,0,0,0,0,0,0,0,0,0,0,0,0,0,0,1,
scooby_state_45ff7e|27|1 1,0,0,0,0,0,0,0,0,0,0,0,0,0,0,1,
scooby_state_4602e0|15|-4 1,0,0,0,0,0,0,0,0,0,0,0,0,0,0,1,
scooby_state_412940|54|-7 1,0,0,0,0,0,0,0,0,0,0,0,0,0,0,1,
scooby_state_45ff4d|9|-16 0,0,1,0,0,0,0,0,0,0,0,0,0,0,0,1,
scooby_state_559fe0|43|15 1,0,0,0,0,0,0,0,0,0,0,0,0,0,0,1,
scooby_state_456269|48|25 1,0,0,0,0,0,0,0,0,0,0,0,0,0,0,1,
scooby_state_412d56|39|5 0,1,0,0,0,0,0,0,0,0,0,0,0,0,0,1,
scooby_state_53e460|34|3 0,1,0,0,0,0,0,0,0,0,0,0,0,0,0,1,
scooby_state_46002b|40|-2 0,0,1,0,0,0,0,0,0,0,0,0,0,0,0,1,
scooby_state_456269|16|6 1,0,0,0,0,0,0,0,0,0,0,0,0,0,0,1,
scooby_state_45ff7a|47|-7 0,0,0,0,0,1,0,0,0,0,0,0,0,0,0,1,
scooby_state_494c73|21|-27 1,0,0,0,0,0,0,0,0,0,0,0,0,0,0,1,
scooby_state_45ff4d|22|14 0,1,0,0,0,0,0,0,0,0,0,0,0,0,0,1,
scooby_state_42d851|16|2 0,0,0,0,1,0,0,0,0,0,0,0,0,0,0,1,
scooby_state_45fe3e|13|-43 1,0,0,0,0,0,0,0,0,0,0,0,0,0,0,1,
scooby_state_456198|28|13 1,0,0,0,0,0,0,0,0,0,0,0,0,0,0,1,
scooby_state_45fe3e|26|-30 1,0,0,0,0,0,0,0,0,0,0,0,0,0,0,1,
scooby_state_558f9a|25|-8 1,0,0,0,0,0,0,0,0,0,0,0,0,0,0,1,
scooby_state_559fe3|38|3 1,0,0,0,0,0,0,0,0,0,0,0,0,0,0,1,
scooby_state_45feea|47|-1 0,0,0,0,0,0,0,0,0,0,1,0,0,0,0,1,
scooby_state_53ffd1|49|-3 0,0,0,1,0,0,0,0,0,0,0,0,0,0,0,1,
scooby_state_45ff56|22|22 0,0,0,0,0,0,0,0,0,0,0,0,1,0,0,1,
scooby_state_47338d|20|1 0,1,0,0,0,0,0,0,0,0,0,0,0,0,0,1,
scooby_state_42ccca|50|3 0,1,0,0,0,0,0,0,0,0,0,0,0,0,0,1,
scooby_state_45fe3e|62|19 1,0,0,0,0,0,0,0,0,0,0,0,0,0,0,1,
scooby_state_42d593|33|16 1,0,0,0,0,0,0,0,0,0,0,0,0,0,0,1,
scooby_state_45fe3e|26|-35 1,0,0,0,0,0,0,0,0,0,0,0,0,0,0,1,
scooby_state_463a96|3|-7 1,0,0,0,0,0,0,0,0,0,0,0,0,0,0,1,
scooby_state_494c73|48|48 0,0,0,1,0,0,0,0,0,0,0,0,0,0,0,1,
scooby_state_494c73|12|-34 0,1,0,0,0,0,0,0,0,0,0,0,0,0,0,1,
scooby_state_463b4a|26|1 0,1,0,0,0,0,0,0,0,0,0,0,0,0,0,1,
scooby_state_559fe0|20|16 1,0,0,0,0,0,0,0,0,0,0,0,0,0,0,1,
scooby_state_4602e0|58|-1 1,0,0,0,0,0,0,0,0,0,0,0,0,0,0,1,
scooby_state_42d593|34|2 0,1,0,0,0,0,0,0,0,0,0,0,0,0,0,1,
scooby_state_46091a|0|-4 1,0,0,0,0,0,0,0,0,0,0,0,0,0,0,1,
scooby_state_45fe3e|22|-30 1,0,0,0,0,0,0,0,0,0,0,0,0,0,0,1,
scooby_state_456269|54|6 1,0,0,0,0,0,0,0,0,0,0,0,0,0,0,1,
scooby_state_42f2dc|60|-3 1,0,0,0,0,0,0,0,0,0,0,0,0,0,0,1,
scooby_state_4064b3|28|0 0,0,0,0,0,0,0,0,0,0,0,0,0,1,0,1,
scooby_state_45ee80|0|-7 1,0,0,0,0,0,0,0,0,0,0,0,0,0,0,1,
scooby_state_412bb1|43|2 1,0,0,0,0,0,0,0,0,0,0,0,0,0,0,1,
scooby_state_412d56|8|1 0,1,0,0,0,0,0,0,0,0,0,0,0,0,0,1,
scooby_state_53e460|38|7 0,0,0,0,0,0,0,0,0,0,0,0,0,0,1,1,
scooby_state_40d288|4|-30 0,0,1,0,0,0,0,0,0,0,0,0,0,0,0,1,
scooby_state_45ff4d|63|23 0,0,0,0,0,0,0,0,0,0,0,1,0,0,0,1,
scooby_state_42d894|55|1 0,1,0,0,0,0,0,0,0,0,0,0,0,0,0,1,
scooby_state_455340|13|1 1,0,0,0,0,0,0,0,0,0,0,0,0,0,0,1,
scooby_state_456269|9|5 1,0,0,0,0,0,0,0,0,0,0,0,0,0,0,1,
scooby_state_45eea7|37|1 1,0,0,0,0,0,0,0,0,0,0,0,0,0,0,1,
scooby_state_559fe0|31|16 1,0,0,0,0,0,0,0,0,0,0,0,0,0,0,1,
scooby_state_42d593|1|-1 0,1,0,0,0,0,0,0,0,0,0,0,0,0,0,1,
scooby_state_45ff56|41|23 0,1,0,0,0,0,0,0,0,0,0,0,0,0,0,1,
scooby_state_45ff4d|3|-52 1,0,0,0,0,0,0,0,0,0,0,0,0,0,0,1,
scooby_state_4112b2|0|-28 0,0,0,0,0,0,0,0,0,0,0,0,1,0,0,1,
scooby_state_42d15d|18|0 1,0,0,0,0,0,0,0,0,0,0,0,0,0,0,1,
scooby_state_494c73|28|-35 1,0,0,0,0,0,0,0,0,0,0,0,0,0,0,1,
scooby_state_45736c|51|-9 1,0,0,0,0,0,0,0,0,0,0,0,0,0,0,1,
scooby_state_42f294|33|3 0,0,0,0,0,1,0,0,0,0,0,0,0,0,0,1,
scooby_state_53de87|43|28 0,0,0,0,0,0,0,0,0,0,0,0,0,1,0,1,
scooby_state_45ff4d|14|-5 0,0,0,0,0,0,0,0,0,1,0,0,0,0,0,1,
scooby_state_559fe0|28|15 0,0,0,0,0,0,0,0,0,0,0,0,1,0,0,1,
scooby_state_456198|34|20 1,0,0,0,0,0,0,0,0,0,0,0,0,0,0,1,
scooby_state_463a96|13|8 1,0,0,0,0,0,0,0,0,0,0,0,0,0,0,1,
scooby_state_42d5ac|60|15 0,0,1,0,0,0,0,0,0,0,0,0,0,0,0,1,
scooby_state_456269|0|-24 1,0,0,0,0,0,0,0,0,0,0,0,0,0,0,1,
scooby_state_412d56|13|1 0,1,0,0,0,0,0,0,0,0,0,0,0,0,0,1,
scooby_state_45ff4d|1|-59 1,0,0,0,0,0,0,0,0,0,0,0,0,0,0,1,
scooby_state_45fe3e|39|39 1,0,0,0,0,0,0,0,0,0,0,0,0,0,0,1,
scooby_state_41091b|31|-2 0,0,0,0,0,0,0,0,0,0,0,0,0,1,0,1,
scooby_state_45ff4d|9|-26 1,0,0,0,0,0,0,0,0,0,0,0,0,0,0,1,
scooby_state_45fe3e|15|-2 1,0,0,0,0,0,0,0,0,0,0,0,0,0,0,1,
scooby_state_45fdd3|34|28 0,0,0,0,0,0,0,0,0,0,0,0,0,1,0,1,
scooby_state_42f4e4|62|4 1,0,0,0,0,0,0,0,0,0,0,0,0,0,0,1,
scooby_state_42d851|30|8 0,1,0,0,0,0,0,0,0,0,0,0,0,0,0,1,
scooby_state_447a20|53|39 0,0,0,0,0,0,0,0,0,0,0,0,0,1,0,1,
scooby_state_45ff56|34|-6 0,1,0,0,0,0,0,0,0,0,0,0,0,0,0,1,
scooby_state_42d593|25|16 1,0,0,0,0,0,0,0,0,0,0,0,0,0,0,1,
scooby_state_463aa3|38|31 0,1,0,0,0,0,0,0,0,0,0,0,0,0,0,1,
scooby_state_45ee80|12|8 0,0,0,0,0,1,0,0,0,0,0,0,0,0,0,1,
scooby_state_456198|25|-7 1,0,0,0,0,0,0,0,0,0,0,0,0,0,0,1,
scooby_state_46002b|60|-2 0,0,1,0,0,0,0,0,0,0,0,0,0,0,0,1,
scooby_state_456198|18|9 1,0,0,0,0,0,0,0,0,0,0,0,0,0,0,1,
scooby_state_456269|27|-5 1,0,0,0,0,0,0,0,0,0,0,0,0,0,0,1,
scooby_state_448b5a|1|-42 0,1,0,0,0,0,0,0,0,0,0,0,0,0,0,1,
scooby_state_456198|51|35 1,0,0,0,0,0,0,0,0,0,0,0,0,0,0,1,
scooby_state_460050|49|-4 1,0,0,0,0,0,0,0,0,0,0,0,0,0,0,1,
scooby_state_45fdd3|63|49 0,0,0,0,0,0,0,0,0,0,0,0,0,1,0,1,
scooby_state_45fdd3|45|30 0,0,0,0,1,0,0,0,0,0,0,0,0,0,0,1,
scooby_state_4552c0|61|30 0,1,0,0,0,0,0,0,0,0,0,0,0,0,0,1,
scooby_state_410db0|53|1 0,0,0,0,0,0,0,0,0,0,0,0,0,0,1,1,
scooby_state_45ee80|21|-37 0,0,0,0,0,0,0,0,0,0,0,1,0,0,0,1,
scooby_state_45eea7|35|1 0,0,0,0,0,0,0,0,0,0,0,1,0,0,0,1,
scooby_state_494c7e|30|0 0,0,0,0,0,0,0,0,0,0,0,1,0,0,0,1,
scooby_state_42f267|20|0 0,1,0,0,0,0,0,0,0,0,0,0,0,0,0,1,
scooby_state_463a8d|38|4 0,1,0,0,0,0,0,0,0,0,0,0,0,0,0,1,
scooby_state_456269|20|-18 1,0,0,0,0,0,0,0,0,0,0,0,0,0,0,1,
scooby_state_45fe3e|16|3 1,0,0,0,0,0,0,0,0,0,0,0,0,0,0,1,
scooby_state_494c73|44|1 0,1,0,0,0,0,0,0,0,0,0,0,0,0,0,1,
scooby_state_463a96|29|2 1,0,0,0,0,0,0,0,0,0,0,0,0,0,0,1,
scooby_state_410fb7|23|0 1,0,0,0,0,0,0,0,0,0,0,0,0,0,0,1,
scooby_state_42dd73|50|-1 0,1,0,0,0,0,0,0,0,0,0,0,0,0,0,1,
scooby_state_447a40|50|45 0,0,0,0,0,0,0,0,0,0,0,0,1,0,0,1,
scooby_state_456269|38|-5 1,0,0,0,0,0,0,0,0,0,0,0,0,0,0,1,
scooby_state_42d15d|51|0 1,0,0,0,0,0,0,0,0,0,0,0,0,0,0,1,
scooby_state_494c73|4|-20 1,0,0,0,0,0,0,0,0,0,0,0,0,0,0,1,
scooby_state_46000d|23|17 1,0,0,0,0,0,0,0,0,0,0,0,0,0,0,1,
scooby_state_46000d|43|4 0,0,1,0,0,0,0,0,0,0,0,0,0,0,0,1,
scooby_state_460b48|15|-28 1,0,0,0,0,0,0,0,0,0,0,0,0,0,0,1,
scooby_state_4112a0|43|-1 1,0,0,0,0,0,0,0,0,0,0,0,0,0,0,1,
scooby_state_42d894|20|-1 0,0,0,0,0,0,0,0,0,0,0,0,0,1,0,1,
scooby_state_46000d|11|-1 0,0,0,0,0,0,0,1,0,0,0,0,0,0,0,1,
scooby_state_45528e|30|-7 0,0,0,0,0,1,0,0,0,0,0,0,0,0,0,1,
scooby_state_4106a7|0|-5 1,0,0,0,0,0,0,0,0,0,0,0,0,0,0,1,
scooby_state_45ee80|50|8 0,0,0,0,0,0,0,0,0,0,0,1,0,0,0,1,
scooby_state_410f2c|13|-28 0,1,0,0,0,0,0,0,0,0,0,0,0,0,0,1,
scooby_state_46d18d|41|3 0,1,0,0,0,0,0,0,0,0,0,0,0,0,0,1,
scooby_state_45ee80|6|-57 0,0,0,0,0,0,0,0,0,0,0,1,0,0,0,1,
scooby_state_4600bb|38|0 1,0,0,0,0,0,0,0,0,0,0,0,0,0,0,1,
scooby_state_456198|21|-8 1,0,0,0,0,0,0,0,0,0,0,0,0,0,0,1,
scooby_state_42d593|39|-1 0,1,0,0,0,0,0,0,0,0,0,0,0,0,0,1,
scooby_state_46091a|26|-4 1,0,0,0,0,0,0,0,0,0,0,0,0,0,0,1,
scooby_state_447a39|1|0 0,0,0,0,0,0,0,0,0,0,0,1,0,0,0,1,
scooby_state_456198|54|20 1,0,0,0,0,0,0,0,0,0,0,0,0,0,0,1,
scooby_state_47338d|11|-17 1,0,0,0,0,0,0,0,0,0,0,0,0,0,0,1,
scooby_state_40d270|9|0 1,0,0,0,0,0,0,0,0,0,0,0,0,0,0,1,
scooby_state_448b5a|33|-25 0,1,0,0,0,0,0,0,0,0,0,0,0,0,0,1,
scooby_state_53cbaf|11|0 0,0,0,1,0,0,0,0,0,0,0,0,0,0,0,1,
scooby_state_53cbaf|28|0 0,0,0,1,0,0,0,0,0,0,0,0,0,0,0,1,
scooby_state_42d830|32|-13 1,0,0,0,0,0,0,0,0,0,0,0,0,0,0,1,
scooby_state_46d720|40|-1 0,1,0,0,0,0,0,0,0,0,0,0,0,0,0,1,
scooby_state_42d894|39|3 1,0,0,0,0,0,0,0,0,0,0,0,0,0,0,1,
scooby_state_456240|15|-1 1,0,0,0,0,0,0,0,0,0,0,0,0,0,0,1,
scooby_state_45eea0|3|1 0,0,0,0,0,0,0,0,0,0,0,1,0,0,0,1,
scooby_state_46d75a|51|0 0,1,0,0,0,0,0,0,0,0,0,0,0,0,0,1,
scooby_state_447a40|33|-2 0,0,0,0,0,0,0,0,0,0,0,0,1,0,0,1,
scooby_state_45fdd3|33|-14 1,0,0,0,0,0,0,0,0,0,0,0,0,0,0,1,
scooby_state_456269|1|-37 1,0,0,0,0,0,0,0,0,0,0,0,0,0,0,1,
scooby_state_456269|6|-30 1,0,0,0,0,0,0,0,0,0,0,0,0,0,0,1,
scooby_state_460950|32|0 0,0,0,1,0,0,0,0,0,0,0,0,0,0,0,1,
scooby_state_47338d|2|-8 0,0,1,0,0,0,0,0,0,0,0,0,0,0,0,1,
scooby_state_45eea7|11|-44 1,0,0,0,0,0,0,0,0,0,0,0,0,0,0,1,
scooby_state_456269|2|-32 1,0,0,0,0,0,0,0,0,0,0,0,0,0,0,1,
scooby_state_53e083|57|7 1,0,0,0,0,0,0,0,0,0,0,0,0,0,0,1,
scooby_state_46000d|49|45 0,0,0,0,0,0,0,0,0,0,0,0,1,0,0,1,
scooby_state_456198|49|-2 1,0,0,0,0,0,0,0,0,0,0,0,0,0,0,1,
scooby_state_45736c|58|9 0,0,0,0,0,0,0,0,0,0,0,1,0,0,0,1,
scooby_state_45eeb8|11|-31 1,0,0,0,0,0,0,0,0,0,0,0,0,0,0,1,
scooby_state_40d29a|21|2 0,0,0,0,0,0,0,0,0,0,0,1,0,0,0,1,
scooby_state_46db20|44|2 0,0,1,0,0,0,0,0,0,0,0,0,0,0,0,1,
scooby_state_42d593|0|-1 0,0,0,0,0,0,0,0,0,0,0,0,1,0,0,1,
scooby_state_53cb5b|58|8 0,0,0,1,0,0,0,0,0,0,0,0,0,0,0,1,
scooby_state_448b5a|30|-27 0,0,0,0,0,1,0,0,0,0,0,0,0,0,0,1,
scooby_state_449609|58|13 1,0,0,0,0,0,0,0,0,0,0,0,0,0,0,1,
scooby_state_45627c|44|0 1,0,0,0,0,0,0,0,0,0,0,0,0,0,0,1,
scooby_state_42dd73|10|-1 0,1,0,0,0,0,0,0,0,0,0,0,0,0,0,1,
scooby_state_447a40|21|2 0,0,0,0,0,0,0,0,0,0,0,0,1,0,0,1,
scooby_state_494c73|21|-29 0,1,0,0,0,0,0,0,0,0,0,0,0,0,0,1,
scooby_state_45fe3e|6|-20 1,0,0,0,0,0,0,0,0,0,0,0,0,0,0,1,
scooby_state_45ee80|18|-30 0,0,0,0,0,0,0,0,0,0,0,1,0,0,0,1,
scooby_state_411913|32|15 0,0,1,0,0,0,0,0,0,0,0,0,0,0,0,1,
scooby_state_45febf|31|0 0,1,0,0,0,0,0,0,0,0,0,0,0,0,0,1,
scooby_state_4537e7|60|0 1,0,0,0,0,0,0,0,0,0,0,0,0,0,0,1,
scooby_state_447a40|15|-42 0,0,0,0,0,0,0,0,0,0,0,0,1,0,0,1,
scooby_state_46000d|39|18 0,1,0,0,0,0,0,0,0,0,0,0,0,0,0,1,
scooby_state_45ff56|63|18 0,0,0,0,0,0,0,0,0,0,0,0,1,0,0,1,
scooby_state_410f2c|28|-27 1,0,0,0,0,0,0,0,0,0,0,0,0,0,0,1,
scooby_state_42d851|16|8 1,0,0,0,0,0,0,0,0,0,0,0,0,0,0,1,
scooby_state_559fe0|33|3 0,0,0,0,0,0,0,0,0,0,0,0,0,1,0,1,
scooby_state_559fe0|47|15 1,0,0,0,0,0,0,0,0,0,0,0,0,0,0,1,
scooby_state_456198|31|19 1,0,0,0,0,0,0,0,0,0,0,0,0,0,0,1,
scooby_state_456198|60|5 1,0,0,0,0,0,0,0,0,0,0,0,0,0,0,1,
scooby_state_42f2e3|23|-1 0,0,0,1,0,0,0,0,0,0,0,0,0,0,0,1,
scooby_state_42d851|29|2 0,0,0,0,1,0,0,0,0,0,0,0,0,0,0,1,
scooby_state_45fe42|38|-1 1,0,0,0,0,0,0,0,0,0,0,0,0,0,0,1,
scooby_state_40d2a0|50|1 1,0,0,0,0,0,0,0,0,0,0,0,0,0,0,1,
scooby_state_42dd73|28|7 0,1,0,0,0,0,0,0,0,0,0,0,0,0,0,1,
scooby_state_45fdd3|42|-16 1,0,0,0,0,0,0,0,0,0,0,0,0,0,0,1,
scooby_state_410373|27|2 0,0,0,0,0,0,0,0,0,0,0,0,1,0,0,1,
scooby_state_456240|45|-2 1,0,0,0,0,0,0,0,0,0,0,0,0,0,0,1,
scooby_state_45febf|24|0 0,0,0,1,0,0,0,0,0,0,0,0,0,0,0,1,
scooby_state_45fe3e|26|-6 1,0,0,0,0,0,0,0,0,0,0,0,0,0,0,1,
scooby_state_45fe3e|2|-1 1,0,0,0,0,0,0,0,0,0,0,0,0,0,0,1,
scooby_state_45fdd3|32|28 0,0,0,0,0,0,0,0,0,0,0,0,0,1,0,1,
scooby_state_410fb7|34|0 1,0,0,0,0,0,0,0,0,0,0,0,0,0,0,1,

scooby_action_0_deg_dist 0,45371,0,0,0,0,0,0,0,0,0,0,0,0,0,0,
scooby_action_-6_deg_dist 0,33601,59,0,3,0,0,0,0,0,0,0,0,0,0,0,
scooby_action_4_deg_dist 0,56930,3768,0,32,0,1,0,0,0,0,0,0,0,0,0,
scooby_action_1_deg_dist 0,673958,42009,0,15296,0,6307,0,0,0,0,0,0,0,0,0,
scooby_action_30_deg_dist 0,5725,117,0,0,0,0,0,0,0,0,0,0,0,0,0,
scooby_action_5_deg_dist 0,31464,13,0,4,0,0,0,0,0,0,0,0,0,0,0,
scooby_action_3_deg_dist 0,205001,12488,0,3055,0,67,0,0,0,0,0,0,0,0,0,
scooby_action_32_deg_dist 0,4453,7,0,0,0,0,0,0,0,0,0,0,0,0,0,
scooby_action_10_deg_dist 0,48989,1013,0,456,0,36,0,0,0,0,0,0,0,0,0,
scooby_action_11_deg_dist 0,25441,277,0,108,0,14,0,0,0,0,0,0,0,0,0,
scooby_action_12_deg_dist 0,15227,137,0,18,0,0,0,0,0,0,0,0,0,0,0,
scooby_action_23_deg_dist 0,3376,6,0,0,0,0,0,0,0,0,0,0,0,0,0,
scooby_action_-1_deg_dist 0,83674,236,0,81,0,22,0,0,0,0,0,0,0,0,0,
scooby_action_22_deg_dist 0,3429,7,0,1,0,0,0,0,0,0,0,0,0,0,0,
scooby_action_-3_deg_dist 0,33355,43,0,7,0,0,0,0,0,0,0,0,0,0,0,

scooby_track_called 1355682
scooby_track_same_address 167594
scooby_track_evict 1187832

scooby_reward_demand_called 1355682
scooby_reward_demand_pt_not_found 936178
scooby_reward_demand_pt_found 419504
scooby_reward_demand_pt_found_total 419504
scooby_reward_demand_has_reward 1093
scooby_reward_train_called 714171
scooby_reward_assign_reward_called 1187935
scooby_reward_no_pref 45361
scooby_reward_incorrect 668810
scooby_reward_correct_untimely 162560
scooby_reward_correct_timely 255851
scooby_reward_out_of_bounds 55353
scooby_reward_tracker_hit 0

scooby_reward_none_low_bw 45361
scooby_reward_none_high_bw 0
scooby_reward_incorrect_low_bw 668810
scooby_reward_incorrect_high_bw 0
scooby_reward_correct_untimely_low_bw 162560
scooby_reward_correct_untimely_high_bw 0
scooby_reward_correct_timely_low_bw 255851
scooby_reward_correct_timely_high_bw 0
scooby_reward_out_of_bounds_low_bw 55353
scooby_reward_out_of_bounds_high_bw 0
scooby_reward_tracker_hit_low_bw 0
scooby_reward_tracker_hit_high_bw 0

scooby_reward_1 0,421791,114044,92855,12337,0,
scooby_reward_3 0,88122,24549,88627,10384,0,
scooby_reward_4 0,30262,4740,15124,3692,0,
scooby_reward_5 0,20178,1640,6768,2423,0,
scooby_reward_10 0,15338,798,14386,7644,0,
scooby_reward_11 0,11111,794,8380,4581,0,
scooby_reward_12 0,6467,732,3486,2435,0,
scooby_reward_22 0,2347,11,7,1031,0,
scooby_reward_23 0,2292,6,5,1037,0,
scooby_reward_30 0,2398,23,772,2554,0,
scooby_reward_32 0,1732,29,146,1830,0,
scooby_reward_-1 0,33813,13656,9533,1189,0,
scooby_reward_-3 0,16487,681,7756,1563,0,
scooby_reward_-6 0,16472,857,8006,2653,0,
scooby_reward_0 45361,0,0,0,0,0,

scooby_train_called 1187831
scooby_train_compute_reward 714171

scooby_register_fill_called 786943
scooby_register_fill_set 716091
scooby_register_fill_set_total 716091

scooby_register_prefetch_hit_called 253355
scooby_register_prefetch_hit_set 227881
scooby_register_prefetch_hit_set_total 227881

scooby_pref_issue_scooby 1207023

learning_engine_featurewise.action.called 1355682
learning_engine_featurewise.action.explore 2501
learning_engine_featurewise.action.exploit 1353181
learning_engine_featurewise.action.fallback 316008
learning_engine_featurewise.action.dyn_fallback_saved_bw 0
learning_engine_featurewise.action.dyn_fallback_saved_bw_acc 35328
learning_engine_featurewise.action.index_1_explored 159
learning_engine_featurewise.action.index_1_exploited 737411
learning_engine_featurewise.action.index_3_explored 183
learning_engine_featurewise.action.index_3_exploited 220428
learning_engine_featurewise.action.index_4_explored 172
learning_engine_featurewise.action.index_4_exploited 60559
learning_engine_featurewise.action.index_5_explored 157
learning_engine_featurewise.action.index_5_exploited 31324
learning_engine_featurewise.action.index_10_explored 190
learning_engine_featurewise.action.index_10_exploited 50304
learning_engine_featurewise.action.index_11_explored 153
learning_engine_featurewise.action.index_11_exploited 25687
learning_engine_featurewise.action.index_12_explored 171
learning_engine_featurewise.action.index_12_exploited 15211
learning_engine_featurewise.action.index_22_explored 176
learning_engine_featurewise.action.index_22_exploited 3261
learning_engine_featurewise.action.index_23_explored 170
learning_engine_featurewise.action.index_23_exploited 3212
learning_engine_featurewise.action.index_30_explored 172
learning_engine_featurewise.action.index_30_exploited 5670
learning_engine_featurewise.action.index_32_explored 148
learning_engine_featurewise.action.index_32_exploited 4312
learning_engine_featurewise.action.index_-1_explored 164
learning_engine_featurewise.action.index_-1_exploited 83849
learning_engine_featurewise.action.index_-3_explored 164
learning_engine_featurewise.action.index_-3_exploited 33241
learning_engine_featurewise.action.index_-6_explored 151
learning_engine_featurewise.action.index_-6_exploited 33512
learning_engine_featurewise.action.index_0_explored 171
learning_engine_featurewise.action.index_0_exploited 45200
learning_engine_featurewise.learn.called 1187831
learning_engine_featurewise.learn.su_skip_PC 0
learning_engine_featurewise.learn.su_skip_PC_Delta 0

learning_engine_featurewise.q_value_histogram.bucket_0 1307
learning_engine_featurewise.q_value_histogram.bucket_1 3450
learning_engine_featurewise.q_value_histogram.bucket_2 387474
learning_engine_featurewise.q_value_histogram.bucket_3 102882
learning_engine_featurewise.q_value_histogram.bucket_4 197261
learning_engine_featurewise.q_value_histogram.bucket_5 254624
learning_engine_featurewise.q_value_histogram.bucket_6 406183
learning_engine_featurewise.q_value_histogram.bucket_7 0

learning_engine_featurewise.consensus.total 1353181
learning_engine_featurewise.consensus.feature_align_PC 1097089
learning_engine_featurewise.consensus.feature_align_PC_ratio 0.81
learning_engine_featurewise.consensus.feature_align_PC_Delta 1107594
learning_engine_featurewise.consensus.feature_align_PC_Delta_ratio 0.82
learning_engine_featurewise.consensus.feature_align_all 856166
learning_engine_featurewise.consensus.feature_align_all_ratio 0.63

learning_engine_featurewise.feature_PC_min_weight 1000000.00000000
learning_engine_featurewise.feature_PC_max_weight 0.00000000
learning_engine_featurewise.feature_PC_Delta_min_weight 1000000.00000000
learning_engine_featurewise.feature_PC_Delta_max_weight 0.00000000
unique_pcs 962
unique_pages 33470
unique_trigger_pcs 559
total_bitmaps_seen 0
unique_bitmaps_seen 0

scooby_bw_epochs 792367
scooby_bw_level_0 669620
scooby_bw_level_1 118995
scooby_bw_level_2 3432
scooby_bw_level_3 320

scooby_ipc_epochs 0
scooby_ipc_level_0 0
scooby_ipc_level_1 0
scooby_ipc_level_2 0
scooby_ipc_level_3 0

scooby_cache_acc_epochs 175701
scooby_cache_acc_level_0 14462
scooby_cache_acc_level_1 15489
scooby_cache_acc_level_2 22846
scooby_cache_acc_level_3 28470
scooby_cache_acc_level_4 26485
scooby_cache_acc_level_5 22989
scooby_cache_acc_level_6 16908
scooby_cache_acc_level_7 10652
scooby_cache_acc_level_8 6431
scooby_cache_acc_level_9 10969

Channel_0_RQ_row_buffer_hit 174215
Channel_0_RQ_row_buffer_miss 976203
Channel_0_WQ_row_buffer_hit 73617
Channel_0_WQ_row_buffer_miss 272297
Channel_0_WQ_full 0
Channel_0_dbus_congested 573030

avg_congested_cycle 8

DRAM_bw_pochs 792367
DRAM_bw_level_0 669620
DRAM_bw_level_1 118995
DRAM_bw_level_2 3432
DRAM_bw_level_3 320
