*************************************************
   ChampSim Multicore Out-of-Order Simulator
   Last compiled: Apr  3 2025 20:54:34
*************************************************
parsing config file: /home/zir/Pythia/config/nopref.ini

trace_0 /home/zir/ChampSim/ML-DPC/ChampSimTraces/spec17/607.cactuBSSN-s3.trace.xz
adding L2C_PREFETCHER: NONE
Initialize SHIP state
warmup_instructions 10000000
simulation_instructions 50000000
champsim_seed 166
measure_ipc 0
measure_ipc_epoch 1000
measure_dram_bw 1
measure_dram_bw_epoch 256
measure_cache_acc 1
measure_cache_acc_epoch 1024
l1d_perfect 0
l2c_perfect 0
llc_perfect 0
l1d_semi_perfect 0
l2c_semi_perfect 0
llc_semi_perfect 0
semi_perfect_cache_page_buffer_size 64

num_cpus 1
cpu_freq 4000
dram_io_freq 2400
page_size 4096
block_size 64
max_read_per_cycle 8
max_fill_per_cycle 1
dram_channels 1
log2_dram_channels 0
dram_ranks 1
dram_banks 8
dram_rows 65536
dram_columns 128
dram_row_size 8
dram_size 4096
dram_pages 1048576

fetch_width 6
decode_width 6
exec_width 4
lq_width 2
sq_width 2
retire_width 4
scheduler_size 128
branch_mispredict_penalty 20
rob_size 256
lq_size 72
sq_size 56
num_instr_destinations_sparc 4
num_instr_destinations 2
num_instr_sources 4

itlb_set 16
itlb_way 8
itlb_rq_size 16
itlb_wq_size 16
itlb_pq_size 0
itlb_mshr_size 8
itlb_latency 1

dtlb_set 16
dtlb_way 4
dtlb_rq_size 16
dtlb_wq_size 16
dtlb_pq_size 0
dtlb_mshr_size 8
dtlb_latency 1

stlb_set 128
stlb_way 12
stlb_rq_size 32
stlb_wq_size 32
stlb_pq_size 0
stlb_mshr_size 16
stlb_latency 8

l1i_size 32
l1i_set 64
l1i_way 8
l1i_rq_size 64
l1i_wq_size 64
l1i_pq_size 8
l1i_mshr_size 8
l1i_latency 1

l1d_size 32
l1d_set 64
l1d_way 8
l1d_rq_size 64
l1d_wq_size 64
l1d_pq_size 8
l1d_mshr_size 16
l1d_latency 4

l2c_size 256
l2c_set 512
l2c_way 8
l2c_rq_size 32
l2c_wq_size 32
l2c_pq_size 32
l2c_mshr_size 32
l2c_latency 10

llc_size 2048
llc_set 2048
llc_way 16
llc_rq_size 32
llc_wq_size 32
llc_pq_size 32
llc_mshr_size 64
llc_latency 20

dram_channel_width 8
dram_wq_size 64
dram_rq_size 64
tRP 15
tRCD 15
tCAS 12.5
dram_dbus_turn_around_time 30
dram_write_high_wm 56
dram_write_low_wm 48
min_dram_writes_per_switch 16
dram_mtps 2400
dram_dbus_return_time 13


Heartbeat CPU  0 instructions:    1000001 cycles:     348798 heartbeat IPC: 2.86699 cumulative IPC: 2.86699 (Simulation time: 0 hr 0 min 1 sec) 
Heartbeat CPU  0 instructions:    2000003 cycles:     697182 heartbeat IPC: 2.87040 cumulative IPC: 2.86870 (Simulation time: 0 hr 0 min 3 sec) 
Heartbeat CPU  0 instructions:    3000002 cycles:    1045444 heartbeat IPC: 2.87140 cumulative IPC: 2.86960 (Simulation time: 0 hr 0 min 4 sec) 
Heartbeat CPU  0 instructions:    4000000 cycles:    1393708 heartbeat IPC: 2.87138 cumulative IPC: 2.87004 (Simulation time: 0 hr 0 min 6 sec) 
Heartbeat CPU  0 instructions:    5000003 cycles:    1742077 heartbeat IPC: 2.87053 cumulative IPC: 2.87014 (Simulation time: 0 hr 0 min 7 sec) 
Heartbeat CPU  0 instructions:    6000000 cycles:    2090387 heartbeat IPC: 2.87100 cumulative IPC: 2.87028 (Simulation time: 0 hr 0 min 8 sec) 
Heartbeat CPU  0 instructions:    7000000 cycles:    2438761 heartbeat IPC: 2.87048 cumulative IPC: 2.87031 (Simulation time: 0 hr 0 min 10 sec) 
Heartbeat CPU  0 instructions:    8000000 cycles:    2786983 heartbeat IPC: 2.87173 cumulative IPC: 2.87049 (Simulation time: 0 hr 0 min 11 sec) 
Heartbeat CPU  0 instructions:    9000002 cycles:    3135335 heartbeat IPC: 2.87067 cumulative IPC: 2.87051 (Simulation time: 0 hr 0 min 13 sec) 
Heartbeat CPU  0 instructions:   10000000 cycles:    3483576 heartbeat IPC: 2.87157 cumulative IPC: 2.87061 (Simulation time: 0 hr 0 min 14 sec) 

Warmup complete CPU  0 instructions:   10000004 cycles:    3483577 (Simulation time: 0 hr 0 min 14 sec) 

Heartbeat CPU  0 instructions:   11000002 cycles:    4200480 heartbeat IPC: 1.39489 cumulative IPC: 1.39489 (Simulation time: 0 hr 0 min 16 sec) 
Heartbeat CPU  0 instructions:   12000000 cycles:    4916471 heartbeat IPC: 1.39666 cumulative IPC: 1.39577 (Simulation time: 0 hr 0 min 17 sec) 
Heartbeat CPU  0 instructions:   13000000 cycles:    5632634 heartbeat IPC: 1.39633 cumulative IPC: 1.39596 (Simulation time: 0 hr 0 min 19 sec) 
Heartbeat CPU  0 instructions:   14000003 cycles:    6348718 heartbeat IPC: 1.39649 cumulative IPC: 1.39609 (Simulation time: 0 hr 0 min 20 sec) 
Heartbeat CPU  0 instructions:   15000002 cycles:    7064674 heartbeat IPC: 1.39673 cumulative IPC: 1.39622 (Simulation time: 0 hr 0 min 22 sec) 
Heartbeat CPU  0 instructions:   16000000 cycles:    7780663 heartbeat IPC: 1.39667 cumulative IPC: 1.39629 (Simulation time: 0 hr 0 min 24 sec) 
Heartbeat CPU  0 instructions:   17000000 cycles:    8496755 heartbeat IPC: 1.39647 cumulative IPC: 1.39632 (Simulation time: 0 hr 0 min 25 sec) 
Heartbeat CPU  0 instructions:   18000001 cycles:    9212816 heartbeat IPC: 1.39653 cumulative IPC: 1.39635 (Simulation time: 0 hr 0 min 27 sec) 
Heartbeat CPU  0 instructions:   19000002 cycles:    9927870 heartbeat IPC: 1.39850 cumulative IPC: 1.39658 (Simulation time: 0 hr 0 min 29 sec) 
Heartbeat CPU  0 instructions:   20000000 cycles:   10643814 heartbeat IPC: 1.39675 cumulative IPC: 1.39660 (Simulation time: 0 hr 0 min 30 sec) 
Heartbeat CPU  0 instructions:   21000000 cycles:   11359921 heartbeat IPC: 1.39644 cumulative IPC: 1.39659 (Simulation time: 0 hr 0 min 32 sec) 
Heartbeat CPU  0 instructions:   22000002 cycles:   12075920 heartbeat IPC: 1.39665 cumulative IPC: 1.39659 (Simulation time: 0 hr 0 min 33 sec) 
Heartbeat CPU  0 instructions:   23000000 cycles:   12791940 heartbeat IPC: 1.39661 cumulative IPC: 1.39659 (Simulation time: 0 hr 0 min 35 sec) 
Heartbeat CPU  0 instructions:   24000000 cycles:   13507985 heartbeat IPC: 1.39656 cumulative IPC: 1.39659 (Simulation time: 0 hr 0 min 37 sec) 
Heartbeat CPU  0 instructions:   25000000 cycles:   14224184 heartbeat IPC: 1.39626 cumulative IPC: 1.39657 (Simulation time: 0 hr 0 min 38 sec) 
Heartbeat CPU  0 instructions:   26000001 cycles:   14940176 heartbeat IPC: 1.39667 cumulative IPC: 1.39657 (Simulation time: 0 hr 0 min 40 sec) 
Heartbeat CPU  0 instructions:   27000002 cycles:   15656080 heartbeat IPC: 1.39684 cumulative IPC: 1.39659 (Simulation time: 0 hr 0 min 41 sec) 
Heartbeat CPU  0 instructions:   28000000 cycles:   16371182 heartbeat IPC: 1.39840 cumulative IPC: 1.39669 (Simulation time: 0 hr 0 min 43 sec) 
Heartbeat CPU  0 instructions:   29000002 cycles:   17087406 heartbeat IPC: 1.39621 cumulative IPC: 1.39667 (Simulation time: 0 hr 0 min 45 sec) 
Heartbeat CPU  0 instructions:   30000001 cycles:   17803474 heartbeat IPC: 1.39651 cumulative IPC: 1.39666 (Simulation time: 0 hr 0 min 46 sec) 
Heartbeat CPU  0 instructions:   31000000 cycles:   18519433 heartbeat IPC: 1.39673 cumulative IPC: 1.39666 (Simulation time: 0 hr 0 min 48 sec) 
Heartbeat CPU  0 instructions:   32000000 cycles:   19235517 heartbeat IPC: 1.39648 cumulative IPC: 1.39665 (Simulation time: 0 hr 0 min 50 sec) 
Heartbeat CPU  0 instructions:   33000002 cycles:   19951471 heartbeat IPC: 1.39674 cumulative IPC: 1.39666 (Simulation time: 0 hr 0 min 51 sec) 
Heartbeat CPU  0 instructions:   34000000 cycles:   20667497 heartbeat IPC: 1.39659 cumulative IPC: 1.39665 (Simulation time: 0 hr 0 min 53 sec) 
Heartbeat CPU  0 instructions:   35000003 cycles:   21383488 heartbeat IPC: 1.39667 cumulative IPC: 1.39665 (Simulation time: 0 hr 0 min 54 sec) 
Heartbeat CPU  0 instructions:   36000000 cycles:   22099507 heartbeat IPC: 1.39661 cumulative IPC: 1.39665 (Simulation time: 0 hr 0 min 56 sec) 
Heartbeat CPU  0 instructions:   37000000 cycles:   22815501 heartbeat IPC: 1.39666 cumulative IPC: 1.39665 (Simulation time: 0 hr 0 min 58 sec) 
Heartbeat CPU  0 instructions:   38000000 cycles:   23530785 heartbeat IPC: 1.39805 cumulative IPC: 1.39670 (Simulation time: 0 hr 0 min 59 sec) 
Heartbeat CPU  0 instructions:   39000000 cycles:   24246607 heartbeat IPC: 1.39700 cumulative IPC: 1.39671 (Simulation time: 0 hr 1 min 1 sec) 
Heartbeat CPU  0 instructions:   40000000 cycles:   24962577 heartbeat IPC: 1.39671 cumulative IPC: 1.39671 (Simulation time: 0 hr 1 min 3 sec) 
Heartbeat CPU  0 instructions:   41000000 cycles:   25678817 heartbeat IPC: 1.39618 cumulative IPC: 1.39670 (Simulation time: 0 hr 1 min 4 sec) 
Heartbeat CPU  0 instructions:   42000000 cycles:   26394750 heartbeat IPC: 1.39678 cumulative IPC: 1.39670 (Simulation time: 0 hr 1 min 6 sec) 
Heartbeat CPU  0 instructions:   43000000 cycles:   27110743 heartbeat IPC: 1.39666 cumulative IPC: 1.39670 (Simulation time: 0 hr 1 min 7 sec) 
Heartbeat CPU  0 instructions:   44000000 cycles:   27826747 heartbeat IPC: 1.39664 cumulative IPC: 1.39670 (Simulation time: 0 hr 1 min 9 sec) 
Heartbeat CPU  0 instructions:   45000000 cycles:   28542735 heartbeat IPC: 1.39667 cumulative IPC: 1.39669 (Simulation time: 0 hr 1 min 11 sec) 
Heartbeat CPU  0 instructions:   46000002 cycles:   29258972 heartbeat IPC: 1.39619 cumulative IPC: 1.39668 (Simulation time: 0 hr 1 min 12 sec) 
Heartbeat CPU  0 instructions:   47000002 cycles:   29974737 heartbeat IPC: 1.39711 cumulative IPC: 1.39669 (Simulation time: 0 hr 1 min 14 sec) 
Heartbeat CPU  0 instructions:   48000000 cycles:   30690789 heartbeat IPC: 1.39654 cumulative IPC: 1.39669 (Simulation time: 0 hr 1 min 16 sec) 
Heartbeat CPU  0 instructions:   49000000 cycles:   31406963 heartbeat IPC: 1.39631 cumulative IPC: 1.39668 (Simulation time: 0 hr 1 min 17 sec) 
Heartbeat CPU  0 instructions:   50000000 cycles:   32122811 heartbeat IPC: 1.39694 cumulative IPC: 1.39669 (Simulation time: 0 hr 1 min 19 sec) 
Heartbeat CPU  0 instructions:   51000002 cycles:   32839679 heartbeat IPC: 1.39496 cumulative IPC: 1.39664 (Simulation time: 0 hr 1 min 20 sec) 
Heartbeat CPU  0 instructions:   52000000 cycles:   33555920 heartbeat IPC: 1.39618 cumulative IPC: 1.39663 (Simulation time: 0 hr 1 min 22 sec) 
Heartbeat CPU  0 instructions:   53000002 cycles:   34350194 heartbeat IPC: 1.25901 cumulative IPC: 1.39309 (Simulation time: 0 hr 1 min 24 sec) 
Heartbeat CPU  0 instructions:   54000000 cycles:   35028623 heartbeat IPC: 1.47399 cumulative IPC: 1.39483 (Simulation time: 0 hr 1 min 25 sec) 
Heartbeat CPU  0 instructions:   55000003 cycles:   35707017 heartbeat IPC: 1.47407 cumulative IPC: 1.39650 (Simulation time: 0 hr 1 min 27 sec) 
Heartbeat CPU  0 instructions:   56000000 cycles:   36385181 heartbeat IPC: 1.47457 cumulative IPC: 1.39811 (Simulation time: 0 hr 1 min 28 sec) 
Heartbeat CPU  0 instructions:   57000000 cycles:   37063420 heartbeat IPC: 1.47441 cumulative IPC: 1.39965 (Simulation time: 0 hr 1 min 30 sec) 
Heartbeat CPU  0 instructions:   58000000 cycles:   37741407 heartbeat IPC: 1.47495 cumulative IPC: 1.40114 (Simulation time: 0 hr 1 min 32 sec) 
Heartbeat CPU  0 instructions:   59000001 cycles:   38419266 heartbeat IPC: 1.47523 cumulative IPC: 1.40258 (Simulation time: 0 hr 1 min 33 sec) 
Heartbeat CPU  0 instructions:   60000000 cycles:   39097230 heartbeat IPC: 1.47500 cumulative IPC: 1.40396 (Simulation time: 0 hr 1 min 35 sec) 
Finished CPU 0 instructions: 50000000 cycles: 35613671 cumulative IPC: 1.40396 (Simulation time: 0 hr 1 min 35 sec) 

ChampSim completed all CPUs

[ROI Statistics]
Core_0_instructions 50000000
Core_0_cycles 35613671
Core_0_IPC 1.40396

Core_0_branch_prediction_accuracy 99.95528
Core_0_branch_MPKI 0.05308
Core_0_average_ROB_occupancy_at_mispredict 215.50038

Core_0_L1D_total_access 7806214
Core_0_L1D_total_hit 7759786
Core_0_L1D_total_miss 46428
Core_0_L1D_loads 6319255
Core_0_L1D_load_hit 6272838
Core_0_L1D_load_miss 46417
Core_0_L1D_RFOs 1486959
Core_0_L1D_RFO_hit 1486948
Core_0_L1D_RFO_miss 11
Core_0_L1D_prefetches 0
Core_0_L1D_prefetch_hit 0
Core_0_L1D_prefetch_miss 0
Core_0_L1D_writebacks 0
Core_0_L1D_writeback_hit 0
Core_0_L1D_writeback_miss 0
Core_0_L1D_prefetch_requested 0
Core_0_L1D_prefetch_dropped 0
Core_0_L1D_prefetch_issued 0
Core_0_L1D_prefetch_filled 0
Core_0_L1D_prefetch_useful 0
Core_0_L1D_prefetch_useless 0
Core_0_L1D_prefetch_late 0
Core_0_L1D_average_miss_latency 115.29950

Core_0_L1D_rq_access 10119023
Core_0_L1D_rq_forward 0
Core_0_L1D_rq_merged 3799658
Core_0_L1D_rq_to_cache 6319365
Core_0_L1D_rq_full 0

Core_0_L1D_wq_access 1486977
Core_0_L1D_wq_forward 0
Core_0_L1D_wq_merged 1
Core_0_L1D_wq_to_cache 1486976
Core_0_L1D_wq_full 0

Core_0_L1D_pq_access 0
Core_0_L1D_pq_forward 0
Core_0_L1D_pq_merged 0
Core_0_L1D_pq_to_cache 0
Core_0_L1D_pq_full 0

Core_0_L1D_acc_epochs 38105
Core_0_L1D_acc_level_0 38105
Core_0_L1D_acc_level_1 0
Core_0_L1D_acc_level_2 0
Core_0_L1D_acc_level_3 0
Core_0_L1D_acc_level_4 0
Core_0_L1D_acc_level_5 0
Core_0_L1D_acc_level_6 0
Core_0_L1D_acc_level_7 0
Core_0_L1D_acc_level_8 0
Core_0_L1D_acc_level_9 0

Core_0_L1I_total_access 12831889
Core_0_L1I_total_hit 12831651
Core_0_L1I_total_miss 238
Core_0_L1I_loads 12831889
Core_0_L1I_load_hit 12831651
Core_0_L1I_load_miss 238
Core_0_L1I_RFOs 0
Core_0_L1I_RFO_hit 0
Core_0_L1I_RFO_miss 0
Core_0_L1I_prefetches 0
Core_0_L1I_prefetch_hit 0
Core_0_L1I_prefetch_miss 0
Core_0_L1I_writebacks 0
Core_0_L1I_writeback_hit 0
Core_0_L1I_writeback_miss 0
Core_0_L1I_prefetch_requested 0
Core_0_L1I_prefetch_dropped 0
Core_0_L1I_prefetch_issued 0
Core_0_L1I_prefetch_filled 0
Core_0_L1I_prefetch_useful 0
Core_0_L1I_prefetch_useless 0
Core_0_L1I_prefetch_late 0
Core_0_L1I_average_miss_latency 200.88655

Core_0_L1I_rq_access 50000007
Core_0_L1I_rq_forward 0
Core_0_L1I_rq_merged 37168062
Core_0_L1I_rq_to_cache 12831945
Core_0_L1I_rq_full 0

Core_0_L1I_wq_access 0
Core_0_L1I_wq_forward 0
Core_0_L1I_wq_merged 0
Core_0_L1I_wq_to_cache 0
Core_0_L1I_wq_full 0

Core_0_L1I_pq_access 0
Core_0_L1I_pq_forward 0
Core_0_L1I_pq_merged 0
Core_0_L1I_pq_to_cache 0
Core_0_L1I_pq_full 0

Core_0_L1I_acc_epochs 38105
Core_0_L1I_acc_level_0 38105
Core_0_L1I_acc_level_1 0
Core_0_L1I_acc_level_2 0
Core_0_L1I_acc_level_3 0
Core_0_L1I_acc_level_4 0
Core_0_L1I_acc_level_5 0
Core_0_L1I_acc_level_6 0
Core_0_L1I_acc_level_7 0
Core_0_L1I_acc_level_8 0
Core_0_L1I_acc_level_9 0

Core_0_L2C_total_access 46724
Core_0_L2C_total_hit 51
Core_0_L2C_total_miss 46673
Core_0_L2C_loads 46655
Core_0_L2C_load_hit 0
Core_0_L2C_load_miss 46655
Core_0_L2C_RFOs 11
Core_0_L2C_RFO_hit 0
Core_0_L2C_RFO_miss 11
Core_0_L2C_prefetches 0
Core_0_L2C_prefetch_hit 0
Core_0_L2C_prefetch_miss 0
Core_0_L2C_writebacks 58
Core_0_L2C_writeback_hit 51
Core_0_L2C_writeback_miss 7
Core_0_L2C_prefetch_requested 0
Core_0_L2C_prefetch_dropped 0
Core_0_L2C_prefetch_issued 0
Core_0_L2C_prefetch_filled 0
Core_0_L2C_prefetch_useful 0
Core_0_L2C_prefetch_useless 0
Core_0_L2C_prefetch_late 0
Core_0_L2C_average_miss_latency 101.68794

Core_0_L2C_rq_access 46666
Core_0_L2C_rq_forward 0
Core_0_L2C_rq_merged 0
Core_0_L2C_rq_to_cache 46666
Core_0_L2C_rq_full 0

Core_0_L2C_wq_access 58
Core_0_L2C_wq_forward 0
Core_0_L2C_wq_merged 0
Core_0_L2C_wq_to_cache 58
Core_0_L2C_wq_full 0

Core_0_L2C_pq_access 0
Core_0_L2C_pq_forward 0
Core_0_L2C_pq_merged 0
Core_0_L2C_pq_to_cache 0
Core_0_L2C_pq_full 0

Core_0_L2C_acc_epochs 38105
Core_0_L2C_acc_level_0 38105
Core_0_L2C_acc_level_1 0
Core_0_L2C_acc_level_2 0
Core_0_L2C_acc_level_3 0
Core_0_L2C_acc_level_4 0
Core_0_L2C_acc_level_5 0
Core_0_L2C_acc_level_6 0
Core_0_L2C_acc_level_7 0
Core_0_L2C_acc_level_8 0
Core_0_L2C_acc_level_9 0

Core_0_LLC_total_access 46723
Core_0_LLC_total_hit 51
Core_0_LLC_total_miss 46672
Core_0_LLC_loads 46655
Core_0_LLC_load_hit 0
Core_0_LLC_load_miss 46655
Core_0_LLC_RFOs 11
Core_0_LLC_RFO_hit 0
Core_0_LLC_RFO_miss 11
Core_0_LLC_prefetches 0
Core_0_LLC_prefetch_hit 0
Core_0_LLC_prefetch_miss 0
Core_0_LLC_writebacks 57
Core_0_LLC_writeback_hit 51
Core_0_LLC_writeback_miss 6
Core_0_LLC_prefetch_requested 0
Core_0_LLC_prefetch_dropped 0
Core_0_LLC_prefetch_issued 0
Core_0_LLC_prefetch_filled 0
Core_0_LLC_prefetch_useful 0
Core_0_LLC_prefetch_useless 0
Core_0_LLC_prefetch_late 0
Core_0_LLC_average_miss_latency 71.68784

Core_0_LLC_rq_access 46666
Core_0_LLC_rq_forward 0
Core_0_LLC_rq_merged 0
Core_0_LLC_rq_to_cache 46666
Core_0_LLC_rq_full 0

Core_0_LLC_wq_access 57
Core_0_LLC_wq_forward 0
Core_0_LLC_wq_merged 0
Core_0_LLC_wq_to_cache 57
Core_0_LLC_wq_full 0

Core_0_LLC_pq_access 0
Core_0_LLC_pq_forward 0
Core_0_LLC_pq_merged 0
Core_0_LLC_pq_to_cache 0
Core_0_LLC_pq_full 0

Core_0_LLC_acc_epochs 38181
Core_0_LLC_acc_level_0 38181
Core_0_LLC_acc_level_1 0
Core_0_LLC_acc_level_2 0
Core_0_LLC_acc_level_3 0
Core_0_LLC_acc_level_4 0
Core_0_LLC_acc_level_5 0
Core_0_LLC_acc_level_6 0
Core_0_LLC_acc_level_7 0
Core_0_LLC_acc_level_8 0
Core_0_LLC_acc_level_9 0

Core_0_major_page_fault 0
Core_0_minor_page_fault 940

Channel_0_RQ_row_buffer_hit 46031
Channel_0_RQ_row_buffer_miss 635
Channel_0_WQ_row_buffer_hit 0
Channel_0_WQ_row_buffer_miss 0
Channel_0_WQ_full 0
Channel_0_dbus_congested 70

avg_congested_cycle 10

DRAM_bw_pochs 152724
DRAM_bw_level_0 152698
DRAM_bw_level_1 26
DRAM_bw_level_2 0
DRAM_bw_level_3 0
