*************************************************
   ChampSim Multicore Out-of-Order Simulator
   Last compiled: Apr  3 2025 20:54:34
*************************************************
parsing config file: /home/zir/Pythia/config/pythia.ini

trace_0 /home/zir/ChampSim/ML-DPC/ChampSimTraces/spec17/654.roms-s3.trace.xz
adding L2C_PREFETCHER: Scooby
Initialize SHIP state
warmup_instructions 10000000
simulation_instructions 50000000
champsim_seed 166
measure_ipc 0
measure_ipc_epoch 1000
measure_dram_bw 1
measure_dram_bw_epoch 256
measure_cache_acc 1
measure_cache_acc_epoch 1024
l1d_perfect 0
l2c_perfect 0
llc_perfect 0
l1d_semi_perfect 0
l2c_semi_perfect 0
llc_semi_perfect 0
semi_perfect_cache_page_buffer_size 64

num_cpus 1
cpu_freq 4000
dram_io_freq 2400
page_size 4096
block_size 64
max_read_per_cycle 8
max_fill_per_cycle 1
dram_channels 1
log2_dram_channels 0
dram_ranks 1
dram_banks 8
dram_rows 65536
dram_columns 128
dram_row_size 8
dram_size 4096
dram_pages 1048576

fetch_width 6
decode_width 6
exec_width 4
lq_width 2
sq_width 2
retire_width 4
scheduler_size 128
branch_mispredict_penalty 20
rob_size 256
lq_size 72
sq_size 56
num_instr_destinations_sparc 4
num_instr_destinations 2
num_instr_sources 4

itlb_set 16
itlb_way 8
itlb_rq_size 16
itlb_wq_size 16
itlb_pq_size 0
itlb_mshr_size 8
itlb_latency 1

dtlb_set 16
dtlb_way 4
dtlb_rq_size 16
dtlb_wq_size 16
dtlb_pq_size 0
dtlb_mshr_size 8
dtlb_latency 1

stlb_set 128
stlb_way 12
stlb_rq_size 32
stlb_wq_size 32
stlb_pq_size 0
stlb_mshr_size 16
stlb_latency 8

l1i_size 32
l1i_set 64
l1i_way 8
l1i_rq_size 64
l1i_wq_size 64
l1i_pq_size 8
l1i_mshr_size 8
l1i_latency 1

l1d_size 32
l1d_set 64
l1d_way 8
l1d_rq_size 64
l1d_wq_size 64
l1d_pq_size 8
l1d_mshr_size 16
l1d_latency 4

l2c_size 256
l2c_set 512
l2c_way 8
l2c_rq_size 32
l2c_wq_size 32
l2c_pq_size 32
l2c_mshr_size 32
l2c_latency 10

llc_size 2048
llc_set 2048
llc_way 16
llc_rq_size 32
llc_wq_size 32
llc_pq_size 32
llc_mshr_size 64
llc_latency 20

dram_channel_width 8
dram_wq_size 64
dram_rq_size 64
tRP 15
tRCD 15
tCAS 12.5
dram_dbus_turn_around_time 30
dram_write_high_wm 56
dram_write_low_wm 48
min_dram_writes_per_switch 16
dram_mtps 2400
dram_dbus_return_time 13

scooby_alpha 0.0065088
scooby_gamma 0.556301
scooby_epsilon 0.00182284
scooby_state_num_bits 10
scooby_max_states 1024
scooby_seed 200
scooby_policy EGreedy
scooby_learning_type SARSA
scooby_actions 1,3,4,5,10,11,12,22,23,30,32,-1,-3,-6,0,
scooby_max_actions 15
scooby_pt_size 256
scooby_st_size 64
scooby_max_pcs 5
scooby_max_offsets 5
scooby_max_deltas 5
scooby_reward_none -4
scooby_reward_incorrect -8
scooby_reward_correct_untimely 12
scooby_reward_correct_timely 20
scooby_brain_zero_init 0
scooby_enable_reward_all 0
scooby_enable_track_multiple 0
scooby_enable_reward_out_of_bounds 1
scooby_reward_out_of_bounds -12
scooby_state_type 1
scooby_state_hash_type 11
scooby_access_debug 0
scooby_print_access_debug 0
scooby_print_access_debug_pc deadbeef
scooby_print_access_debug_pc_count 0
scooby_print_trace 0
scooby_enable_state_action_stats 1
scooby_enable_reward_tracker_hit 0
scooby_reward_tracker_hit -2
scooby_enable_featurewise_engine 1
scooby_pref_degree 1
scooby_enable_dyn_degree 1
scooby_max_to_avg_q_thresholds 0.5,1,2,
scooby_dyn_degrees 1,2,4,4,
scooby_multi_deg_select_type 2
scooby_last_pref_offset_conf_thresholds 1,3,8,
scooby_dyn_degrees_type2 1,2,4,6,
scooby_action_tracker_size 2
scooby_high_bw_thresh 4
scooby_enable_hbw_reward 1
scooby_reward_hbw_correct_timely 20
scooby_reward_hbw_correct_untimely 12
scooby_reward_hbw_incorrect -14
scooby_reward_hbw_none -2
scooby_reward_hbw_out_of_bounds -12
scooby_reward_hbw_tracker_hit -2
scooby_last_pref_offset_conf_thresholds_hbw 1,3,8,
scooby_dyn_degrees_type2_hbw 1,2,4,6,

le_enable_trace 0
le_trace_interval 0
le_trace_file_name 
le_trace_state 0
le_enable_score_plot 0
le_plot_file_name 
le_plot_actions 
le_enable_action_trace 0
le_action_trace_interval 0
le_action_trace_name 
le_enable_action_plot 0

le_featurewise_active_features PC, PC_Delta
le_featurewise_num_tilings 3,3,
le_featurewise_num_tiles 128,128,
le_featurewise_hash_types 2,2,
le_featurewise_enable_tiling_offset 1,1,
le_featurewise_max_q_thresh 0.5
le_featurewise_enable_action_fallback 1
le_featurewise_feature_weights 1,1,
le_featurewise_enable_dynamic_weight 0
le_featurewise_weight_gradient 0.001
le_featurewise_disable_adjust_weight_all_features_align 1
le_featurewise_selective_update 0
le_featurewise_pooling_type 2
le_featurewise_enable_dyn_action_fallback 1
le_featurewise_bw_acc_check_level 1
le_featurewise_acc_thresh 2
le_featurewise_enable_trace 0
le_featurewise_trace_feature_type 0
le_featurewise_trace_feature 
le_featurewise_trace_interval 0
le_featurewise_trace_record_count 0
le_featurewise_trace_file_name 
le_featurewise_enable_score_plot 0
le_featurewise_plot_actions 
le_featurewise_plot_file_name 


Heartbeat CPU  0 instructions:    1000003 cycles:     651272 heartbeat IPC: 1.53546 cumulative IPC: 1.53546 (Simulation time: 0 hr 0 min 2 sec) 
Heartbeat CPU  0 instructions:    2000003 cycles:    1302401 heartbeat IPC: 1.53579 cumulative IPC: 1.53563 (Simulation time: 0 hr 0 min 5 sec) 
Heartbeat CPU  0 instructions:    3000002 cycles:    1953560 heartbeat IPC: 1.53572 cumulative IPC: 1.53566 (Simulation time: 0 hr 0 min 7 sec) 
Heartbeat CPU  0 instructions:    4000000 cycles:    2604673 heartbeat IPC: 1.53583 cumulative IPC: 1.53570 (Simulation time: 0 hr 0 min 10 sec) 
Heartbeat CPU  0 instructions:    5000001 cycles:    3255895 heartbeat IPC: 1.53558 cumulative IPC: 1.53568 (Simulation time: 0 hr 0 min 12 sec) 
Heartbeat CPU  0 instructions:    6000003 cycles:    3944271 heartbeat IPC: 1.45270 cumulative IPC: 1.52119 (Simulation time: 0 hr 0 min 15 sec) 
Heartbeat CPU  0 instructions:    7000003 cycles:    4657465 heartbeat IPC: 1.40214 cumulative IPC: 1.50296 (Simulation time: 0 hr 0 min 17 sec) 
Heartbeat CPU  0 instructions:    8000000 cycles:    5370649 heartbeat IPC: 1.40216 cumulative IPC: 1.48958 (Simulation time: 0 hr 0 min 20 sec) 
Heartbeat CPU  0 instructions:    9000003 cycles:    6083917 heartbeat IPC: 1.40200 cumulative IPC: 1.47931 (Simulation time: 0 hr 0 min 23 sec) 
Heartbeat CPU  0 instructions:   10000002 cycles:    6797108 heartbeat IPC: 1.40215 cumulative IPC: 1.47121 (Simulation time: 0 hr 0 min 26 sec) 

Warmup complete CPU  0 instructions:   10000002 cycles:    6797108 (Simulation time: 0 hr 0 min 26 sec) 

Heartbeat CPU  0 instructions:   11000001 cycles:    7913112 heartbeat IPC: 0.89605 cumulative IPC: 0.89605 (Simulation time: 0 hr 0 min 29 sec) 
Heartbeat CPU  0 instructions:   12000000 cycles:    9026388 heartbeat IPC: 0.89825 cumulative IPC: 0.89715 (Simulation time: 0 hr 0 min 32 sec) 
Heartbeat CPU  0 instructions:   13000002 cycles:   10146226 heartbeat IPC: 0.89299 cumulative IPC: 0.89576 (Simulation time: 0 hr 0 min 35 sec) 
Heartbeat CPU  0 instructions:   14000002 cycles:   12208085 heartbeat IPC: 0.48500 cumulative IPC: 0.73924 (Simulation time: 0 hr 0 min 37 sec) 
Heartbeat CPU  0 instructions:   15000003 cycles:   14241343 heartbeat IPC: 0.49182 cumulative IPC: 0.67166 (Simulation time: 0 hr 0 min 40 sec) 
Heartbeat CPU  0 instructions:   16000000 cycles:   16122703 heartbeat IPC: 0.53153 cumulative IPC: 0.64339 (Simulation time: 0 hr 0 min 42 sec) 
Heartbeat CPU  0 instructions:   17000003 cycles:   18425103 heartbeat IPC: 0.43433 cumulative IPC: 0.60200 (Simulation time: 0 hr 0 min 45 sec) 
Heartbeat CPU  0 instructions:   18000003 cycles:   19778571 heartbeat IPC: 0.73884 cumulative IPC: 0.61626 (Simulation time: 0 hr 0 min 47 sec) 
Heartbeat CPU  0 instructions:   19000003 cycles:   21594926 heartbeat IPC: 0.55055 cumulative IPC: 0.60820 (Simulation time: 0 hr 0 min 49 sec) 
Heartbeat CPU  0 instructions:   20000000 cycles:   23000764 heartbeat IPC: 0.71132 cumulative IPC: 0.61714 (Simulation time: 0 hr 0 min 52 sec) 
Heartbeat CPU  0 instructions:   21000003 cycles:   24163124 heartbeat IPC: 0.86032 cumulative IPC: 0.63342 (Simulation time: 0 hr 0 min 54 sec) 
Heartbeat CPU  0 instructions:   22000003 cycles:   25316501 heartbeat IPC: 0.86702 cumulative IPC: 0.64797 (Simulation time: 0 hr 0 min 57 sec) 
Heartbeat CPU  0 instructions:   23000003 cycles:   27302188 heartbeat IPC: 0.50360 cumulative IPC: 0.63399 (Simulation time: 0 hr 0 min 59 sec) 
Heartbeat CPU  0 instructions:   24000000 cycles:   28505930 heartbeat IPC: 0.83074 cumulative IPC: 0.64490 (Simulation time: 0 hr 1 min 2 sec) 
Heartbeat CPU  0 instructions:   25000001 cycles:   29677116 heartbeat IPC: 0.85384 cumulative IPC: 0.65559 (Simulation time: 0 hr 1 min 4 sec) 
Heartbeat CPU  0 instructions:   26000003 cycles:   30898964 heartbeat IPC: 0.81843 cumulative IPC: 0.66385 (Simulation time: 0 hr 1 min 6 sec) 
Heartbeat CPU  0 instructions:   27000003 cycles:   32826314 heartbeat IPC: 0.51885 cumulative IPC: 0.65311 (Simulation time: 0 hr 1 min 9 sec) 
Heartbeat CPU  0 instructions:   28000000 cycles:   34319820 heartbeat IPC: 0.66956 cumulative IPC: 0.65401 (Simulation time: 0 hr 1 min 11 sec) 
Heartbeat CPU  0 instructions:   29000003 cycles:   35907000 heartbeat IPC: 0.63005 cumulative IPC: 0.65270 (Simulation time: 0 hr 1 min 14 sec) 
Heartbeat CPU  0 instructions:   30000002 cycles:   37621608 heartbeat IPC: 0.58322 cumulative IPC: 0.64883 (Simulation time: 0 hr 1 min 16 sec) 
Heartbeat CPU  0 instructions:   31000002 cycles:   39348359 heartbeat IPC: 0.57912 cumulative IPC: 0.64514 (Simulation time: 0 hr 1 min 19 sec) 
Heartbeat CPU  0 instructions:   32000000 cycles:   41379167 heartbeat IPC: 0.49241 cumulative IPC: 0.63617 (Simulation time: 0 hr 1 min 22 sec) 
Heartbeat CPU  0 instructions:   33000003 cycles:   43025364 heartbeat IPC: 0.60746 cumulative IPC: 0.63486 (Simulation time: 0 hr 1 min 24 sec) 
Heartbeat CPU  0 instructions:   34000001 cycles:   44645427 heartbeat IPC: 0.61726 cumulative IPC: 0.63411 (Simulation time: 0 hr 1 min 27 sec) 
Heartbeat CPU  0 instructions:   35000000 cycles:   46635454 heartbeat IPC: 0.50251 cumulative IPC: 0.62754 (Simulation time: 0 hr 1 min 30 sec) 
Heartbeat CPU  0 instructions:   36000000 cycles:   48710594 heartbeat IPC: 0.48190 cumulative IPC: 0.62033 (Simulation time: 0 hr 1 min 33 sec) 
Heartbeat CPU  0 instructions:   37000000 cycles:   50071725 heartbeat IPC: 0.73468 cumulative IPC: 0.62392 (Simulation time: 0 hr 1 min 36 sec) 
Heartbeat CPU  0 instructions:   38000003 cycles:   51601314 heartbeat IPC: 0.65377 cumulative IPC: 0.62494 (Simulation time: 0 hr 1 min 40 sec) 
Heartbeat CPU  0 instructions:   39000000 cycles:   53340911 heartbeat IPC: 0.57484 cumulative IPC: 0.62307 (Simulation time: 0 hr 1 min 43 sec) 
Heartbeat CPU  0 instructions:   40000000 cycles:   55047349 heartbeat IPC: 0.58602 cumulative IPC: 0.62176 (Simulation time: 0 hr 1 min 46 sec) 
Heartbeat CPU  0 instructions:   41000003 cycles:   56777069 heartbeat IPC: 0.57813 cumulative IPC: 0.62025 (Simulation time: 0 hr 1 min 50 sec) 
Heartbeat CPU  0 instructions:   42000003 cycles:   58489082 heartbeat IPC: 0.58411 cumulative IPC: 0.61905 (Simulation time: 0 hr 1 min 53 sec) 
Heartbeat CPU  0 instructions:   43000003 cycles:   60212865 heartbeat IPC: 0.58012 cumulative IPC: 0.61780 (Simulation time: 0 hr 1 min 56 sec) 
Heartbeat CPU  0 instructions:   44000000 cycles:   61931321 heartbeat IPC: 0.58192 cumulative IPC: 0.61668 (Simulation time: 0 hr 2 min 0 sec) 
Heartbeat CPU  0 instructions:   45000001 cycles:   63661434 heartbeat IPC: 0.57800 cumulative IPC: 0.61550 (Simulation time: 0 hr 2 min 3 sec) 
Heartbeat CPU  0 instructions:   46000002 cycles:   65379908 heartbeat IPC: 0.58191 cumulative IPC: 0.61451 (Simulation time: 0 hr 2 min 7 sec) 
Heartbeat CPU  0 instructions:   47000001 cycles:   67103525 heartbeat IPC: 0.58017 cumulative IPC: 0.61353 (Simulation time: 0 hr 2 min 10 sec) 
Heartbeat CPU  0 instructions:   48000000 cycles:   68909398 heartbeat IPC: 0.55375 cumulative IPC: 0.61180 (Simulation time: 0 hr 2 min 13 sec) 
Heartbeat CPU  0 instructions:   49000001 cycles:   71227398 heartbeat IPC: 0.43141 cumulative IPC: 0.60531 (Simulation time: 0 hr 2 min 16 sec) 
Heartbeat CPU  0 instructions:   50000003 cycles:   73382316 heartbeat IPC: 0.46406 cumulative IPC: 0.60073 (Simulation time: 0 hr 2 min 18 sec) 
Heartbeat CPU  0 instructions:   51000003 cycles:   75172024 heartbeat IPC: 0.55875 cumulative IPC: 0.59964 (Simulation time: 0 hr 2 min 20 sec) 
Heartbeat CPU  0 instructions:   52000000 cycles:   76188929 heartbeat IPC: 0.98337 cumulative IPC: 0.60526 (Simulation time: 0 hr 2 min 23 sec) 
Heartbeat CPU  0 instructions:   53000002 cycles:   77095027 heartbeat IPC: 1.10364 cumulative IPC: 0.61168 (Simulation time: 0 hr 2 min 25 sec) 
Heartbeat CPU  0 instructions:   54000003 cycles:   77948077 heartbeat IPC: 1.17227 cumulative IPC: 0.61840 (Simulation time: 0 hr 2 min 27 sec) 
Heartbeat CPU  0 instructions:   55000001 cycles:   78686461 heartbeat IPC: 1.35431 cumulative IPC: 0.62596 (Simulation time: 0 hr 2 min 29 sec) 
Heartbeat CPU  0 instructions:   56000000 cycles:   79417742 heartbeat IPC: 1.36746 cumulative IPC: 0.63343 (Simulation time: 0 hr 2 min 31 sec) 
Heartbeat CPU  0 instructions:   57000003 cycles:   80144847 heartbeat IPC: 1.37532 cumulative IPC: 0.64078 (Simulation time: 0 hr 2 min 33 sec) 
Heartbeat CPU  0 instructions:   58000003 cycles:   80872981 heartbeat IPC: 1.37337 cumulative IPC: 0.64798 (Simulation time: 0 hr 2 min 35 sec) 
Heartbeat CPU  0 instructions:   59000002 cycles:   81604396 heartbeat IPC: 1.36721 cumulative IPC: 0.65502 (Simulation time: 0 hr 2 min 37 sec) 
Heartbeat CPU  0 instructions:   60000000 cycles:   82336459 heartbeat IPC: 1.36600 cumulative IPC: 0.66191 (Simulation time: 0 hr 2 min 39 sec) 
Finished CPU 0 instructions: 50000000 cycles: 75539359 cumulative IPC: 0.66191 (Simulation time: 0 hr 2 min 39 sec) 

ChampSim completed all CPUs

[ROI Statistics]
Core_0_instructions 50000000
Core_0_cycles 75539359
Core_0_IPC 0.66191

Core_0_branch_prediction_accuracy 99.79431
Core_0_branch_MPKI 0.12722
Core_0_average_ROB_occupancy_at_mispredict 247.28329

Core_0_L1D_total_access 11513989
Core_0_L1D_total_hit 9693236
Core_0_L1D_total_miss 1820753
Core_0_L1D_loads 9397522
Core_0_L1D_load_hit 8075244
Core_0_L1D_load_miss 1322278
Core_0_L1D_RFOs 2116467
Core_0_L1D_RFO_hit 1617992
Core_0_L1D_RFO_miss 498475
Core_0_L1D_prefetches 0
Core_0_L1D_prefetch_hit 0
Core_0_L1D_prefetch_miss 0
Core_0_L1D_writebacks 0
Core_0_L1D_writeback_hit 0
Core_0_L1D_writeback_miss 0
Core_0_L1D_prefetch_requested 0
Core_0_L1D_prefetch_dropped 0
Core_0_L1D_prefetch_issued 0
Core_0_L1D_prefetch_filled 0
Core_0_L1D_prefetch_useful 0
Core_0_L1D_prefetch_useless 0
Core_0_L1D_prefetch_late 0
Core_0_L1D_average_miss_latency 217.33331

Core_0_L1D_rq_access 17792465
Core_0_L1D_rq_forward 0
Core_0_L1D_rq_merged 7488717
Core_0_L1D_rq_to_cache 10303748
Core_0_L1D_rq_full 0

Core_0_L1D_wq_access 5193404
Core_0_L1D_wq_forward 0
Core_0_L1D_wq_merged 0
Core_0_L1D_wq_to_cache 5193404
Core_0_L1D_wq_full 2162

Core_0_L1D_pq_access 0
Core_0_L1D_pq_forward 0
Core_0_L1D_pq_merged 0
Core_0_L1D_pq_to_cache 0
Core_0_L1D_pq_full 0

Core_0_L1D_acc_epochs 76639
Core_0_L1D_acc_level_0 76639
Core_0_L1D_acc_level_1 0
Core_0_L1D_acc_level_2 0
Core_0_L1D_acc_level_3 0
Core_0_L1D_acc_level_4 0
Core_0_L1D_acc_level_5 0
Core_0_L1D_acc_level_6 0
Core_0_L1D_acc_level_7 0
Core_0_L1D_acc_level_8 0
Core_0_L1D_acc_level_9 0

Core_0_L1I_total_access 10740075
Core_0_L1I_total_hit 10739656
Core_0_L1I_total_miss 419
Core_0_L1I_loads 10740075
Core_0_L1I_load_hit 10739656
Core_0_L1I_load_miss 419
Core_0_L1I_RFOs 0
Core_0_L1I_RFO_hit 0
Core_0_L1I_RFO_miss 0
Core_0_L1I_prefetches 0
Core_0_L1I_prefetch_hit 0
Core_0_L1I_prefetch_miss 0
Core_0_L1I_writebacks 0
Core_0_L1I_writeback_hit 0
Core_0_L1I_writeback_miss 0
Core_0_L1I_prefetch_requested 0
Core_0_L1I_prefetch_dropped 0
Core_0_L1I_prefetch_issued 0
Core_0_L1I_prefetch_filled 0
Core_0_L1I_prefetch_useful 0
Core_0_L1I_prefetch_useless 0
Core_0_L1I_prefetch_late 0
Core_0_L1I_average_miss_latency 291.72076

Core_0_L1I_rq_access 50000006
Core_0_L1I_rq_forward 0
Core_0_L1I_rq_merged 39259570
Core_0_L1I_rq_to_cache 10740436
Core_0_L1I_rq_full 0

Core_0_L1I_wq_access 0
Core_0_L1I_wq_forward 0
Core_0_L1I_wq_merged 0
Core_0_L1I_wq_to_cache 0
Core_0_L1I_wq_full 0

Core_0_L1I_pq_access 0
Core_0_L1I_pq_forward 0
Core_0_L1I_pq_merged 0
Core_0_L1I_pq_to_cache 0
Core_0_L1I_pq_full 0

Core_0_L1I_acc_epochs 76639
Core_0_L1I_acc_level_0 76639
Core_0_L1I_acc_level_1 0
Core_0_L1I_acc_level_2 0
Core_0_L1I_acc_level_3 0
Core_0_L1I_acc_level_4 0
Core_0_L1I_acc_level_5 0
Core_0_L1I_acc_level_6 0
Core_0_L1I_acc_level_7 0
Core_0_L1I_acc_level_8 0
Core_0_L1I_acc_level_9 0

Core_0_L2C_total_access 6952862
Core_0_L2C_total_hit 5271089
Core_0_L2C_total_miss 1681773
Core_0_L2C_loads 1322697
Core_0_L2C_load_hit 1106494
Core_0_L2C_load_miss 216203
Core_0_L2C_RFOs 498475
Core_0_L2C_RFO_hit 28
Core_0_L2C_RFO_miss 498447
Core_0_L2C_prefetches 4463839
Core_0_L2C_prefetch_hit 3496719
Core_0_L2C_prefetch_miss 967120
Core_0_L2C_writebacks 667851
Core_0_L2C_writeback_hit 667848
Core_0_L2C_writeback_miss 3
Core_0_L2C_prefetch_requested 8253626
Core_0_L2C_prefetch_dropped 10778
Core_0_L2C_prefetch_issued 8242848
Core_0_L2C_prefetch_filled 1215640
Core_0_L2C_prefetch_useful 1147555
Core_0_L2C_prefetch_useless 67934
Core_0_L2C_prefetch_late 178320
Core_0_L2C_average_miss_latency 525.76725

Core_0_L2C_rq_access 1821173
Core_0_L2C_rq_forward 0
Core_0_L2C_rq_merged 0
Core_0_L2C_rq_to_cache 1821173
Core_0_L2C_rq_full 0

Core_0_L2C_wq_access 667851
Core_0_L2C_wq_forward 0
Core_0_L2C_wq_merged 0
Core_0_L2C_wq_to_cache 667851
Core_0_L2C_wq_full 0

Core_0_L2C_pq_access 8242848
Core_0_L2C_pq_forward 0
Core_0_L2C_pq_merged 99424
Core_0_L2C_pq_to_cache 8143424
Core_0_L2C_pq_full 0

Core_0_L2C_acc_epochs 76639
Core_0_L2C_acc_level_0 50
Core_0_L2C_acc_level_1 19
Core_0_L2C_acc_level_2 77
Core_0_L2C_acc_level_3 201
Core_0_L2C_acc_level_4 735
Core_0_L2C_acc_level_5 1617
Core_0_L2C_acc_level_6 2894
Core_0_L2C_acc_level_7 5848
Core_0_L2C_acc_level_8 11552
Core_0_L2C_acc_level_9 53646

Core_0_LLC_total_access 2347487
Core_0_LLC_total_hit 148616
Core_0_LLC_total_miss 2198871
Core_0_LLC_loads 37917
Core_0_LLC_load_hit 482
Core_0_LLC_load_miss 37435
Core_0_LLC_RFOs 498446
Core_0_LLC_RFO_hit 19
Core_0_LLC_RFO_miss 498427
Core_0_LLC_prefetches 1145407
Core_0_LLC_prefetch_hit 884
Core_0_LLC_prefetch_miss 1144523
Core_0_LLC_writebacks 665717
Core_0_LLC_writeback_hit 147231
Core_0_LLC_writeback_miss 518486
Core_0_LLC_prefetch_requested 0
Core_0_LLC_prefetch_dropped 0
Core_0_LLC_prefetch_issued 0
Core_0_LLC_prefetch_filled 1392897
Core_0_LLC_prefetch_useful 8
Core_0_LLC_prefetch_useless 1377404
Core_0_LLC_prefetch_late 0
Core_0_LLC_average_miss_latency 404.25810

Core_0_LLC_rq_access 536363
Core_0_LLC_rq_forward 0
Core_0_LLC_rq_merged 0
Core_0_LLC_rq_to_cache 536363
Core_0_LLC_rq_full 0

Core_0_LLC_wq_access 665717
Core_0_LLC_wq_forward 0
Core_0_LLC_wq_merged 0
Core_0_LLC_wq_to_cache 665717
Core_0_LLC_wq_full 0

Core_0_LLC_pq_access 1393960
Core_0_LLC_pq_forward 0
Core_0_LLC_pq_merged 0
Core_0_LLC_pq_to_cache 1393960
Core_0_LLC_pq_full 0

Core_0_LLC_acc_epochs 80407
Core_0_LLC_acc_level_0 80407
Core_0_LLC_acc_level_1 0
Core_0_LLC_acc_level_2 0
Core_0_LLC_acc_level_3 0
Core_0_LLC_acc_level_4 0
Core_0_LLC_acc_level_5 0
Core_0_LLC_acc_level_6 0
Core_0_LLC_acc_level_7 0
Core_0_LLC_acc_level_8 0
Core_0_LLC_acc_level_9 0

Core_0_major_page_fault 0
Core_0_minor_page_fault 31732

scooby_st_lookup 1648007
scooby_st_hit 1612764
scooby_st_evict 35179
scooby_st_insert 35243
scooby_st_streaming 0

scooby_predict_called 1648007
scooby_predict_out_of_bounds 26135
scooby_predict_action_1 1617941
scooby_predict_issue_action_1 1616368
scooby_predict_hit_action_1 1573
scooby_predict_out_of_bounds_action_1 25512
scooby_predict_action_3 529
scooby_predict_issue_action_3 529
scooby_predict_hit_action_3 0
scooby_predict_out_of_bounds_action_3 14
scooby_predict_action_4 278
scooby_predict_issue_action_4 278
scooby_predict_hit_action_4 0
scooby_predict_out_of_bounds_action_4 19
scooby_predict_action_5 201
scooby_predict_issue_action_5 200
scooby_predict_hit_action_5 1
scooby_predict_out_of_bounds_action_5 20
scooby_predict_action_10 249
scooby_predict_issue_action_10 249
scooby_predict_hit_action_10 0
scooby_predict_out_of_bounds_action_10 53
scooby_predict_action_11 674
scooby_predict_issue_action_11 667
scooby_predict_hit_action_11 7
scooby_predict_out_of_bounds_action_11 40
scooby_predict_action_12 364
scooby_predict_issue_action_12 364
scooby_predict_hit_action_12 0
scooby_predict_out_of_bounds_action_12 76
scooby_predict_action_22 314
scooby_predict_issue_action_22 314
scooby_predict_hit_action_22 0
scooby_predict_out_of_bounds_action_22 123
scooby_predict_action_23 151
scooby_predict_issue_action_23 151
scooby_predict_hit_action_23 0
scooby_predict_out_of_bounds_action_23 67
scooby_predict_action_30 143
scooby_predict_issue_action_30 143
scooby_predict_hit_action_30 0
scooby_predict_out_of_bounds_action_30 95
scooby_predict_action_32 102
scooby_predict_issue_action_32 102
scooby_predict_hit_action_32 0
scooby_predict_out_of_bounds_action_32 92
scooby_predict_action_-1 216
scooby_predict_issue_action_-1 34
scooby_predict_hit_action_-1 182
scooby_predict_out_of_bounds_action_-1 4
scooby_predict_action_-3 214
scooby_predict_issue_action_-3 27
scooby_predict_hit_action_-3 187
scooby_predict_out_of_bounds_action_-3 7
scooby_predict_action_-6 192
scooby_predict_issue_action_-6 27
scooby_predict_hit_action_-6 165
scooby_predict_out_of_bounds_action_-6 13
scooby_predict_action_0 304
scooby_predict_issue_action_0 0
scooby_predict_hit_action_0 0
scooby_predict_out_of_bounds_action_0 0
scooby_predict_multi_deg_called 1513680
scooby_predict_predicted 8253626
scooby_predict_multi_deg 6634173
scooby_predict_multi_deg_2 1488850
scooby_predict_multi_deg_3 1399493
scooby_predict_multi_deg_4 1375061
scooby_predict_multi_deg_5 1197152
scooby_predict_multi_deg_6 1173617
scooby_predict_multi_deg_7 0
scooby_predict_multi_deg_8 0
scooby_predict_multi_deg_9 0
scooby_predict_multi_deg_10 0
scooby_predict_multi_deg_11 0
scooby_predict_multi_deg_12 0
scooby_predict_multi_deg_13 0
scooby_predict_multi_deg_14 0
scooby_predict_multi_deg_15 0
scooby_predict_multi_deg_16 0

scooby_selected_deg_1 105773
scooby_selected_deg_2 65365
scooby_selected_deg_3 0
scooby_selected_deg_4 157808
scooby_selected_deg_5 0
scooby_selected_deg_6 1290507
scooby_selected_deg_7 0
scooby_selected_deg_8 0
scooby_selected_deg_9 0
scooby_selected_deg_10 0
scooby_selected_deg_11 0
scooby_selected_deg_12 0
scooby_selected_deg_13 0
scooby_selected_deg_14 0
scooby_selected_deg_15 0
scooby_selected_deg_16 0

scooby_state_449aa4|0|0 526,0,0,0,0,0,0,1,0,0,0,0,0,0,0,527,
scooby_state_449cc0|0|0 527,0,0,0,0,0,0,0,0,0,0,0,0,0,0,527,
scooby_state_449aa0|0|0 526,0,0,0,0,0,0,0,0,0,0,0,0,0,0,526,
scooby_state_449cdc|0|0 526,0,0,0,0,0,0,0,0,0,0,0,0,0,0,526,
scooby_state_449ef0|0|0 524,0,0,0,0,0,0,1,0,0,0,0,0,0,0,525,
scooby_state_449f0a|0|0 524,0,0,0,0,0,0,0,0,0,0,0,0,0,0,524,
scooby_state_44ab18|0|0 521,0,0,0,0,0,0,1,0,0,0,0,0,1,0,523,
scooby_state_44ab08|0|0 523,0,0,0,0,0,0,0,0,0,0,0,0,0,0,523,
scooby_state_44aac0|0|0 522,0,0,0,0,0,0,0,0,0,0,0,0,0,0,522,
scooby_state_44acb8|0|0 521,0,0,0,0,0,0,0,0,0,0,0,0,0,0,521,
scooby_state_44ab00|23|1 520,0,0,0,0,0,0,1,0,0,0,0,0,0,0,521,
scooby_state_44aac8|0|0 520,0,1,0,0,0,0,0,0,0,0,0,0,0,0,521,
scooby_state_449ccc|9|1 520,0,0,0,0,0,1,0,0,0,0,0,0,0,0,521,
scooby_state_44ab00|44|1 521,0,0,0,0,0,0,0,0,0,0,0,0,0,0,521,
scooby_state_44ab00|43|1 519,0,0,0,0,0,1,0,0,0,0,0,0,0,0,520,
scooby_state_44ab00|42|1 520,0,0,0,0,0,0,0,0,0,0,0,0,0,0,520,
scooby_state_44ab00|27|1 519,0,0,0,0,0,0,0,0,0,0,1,0,0,0,520,
scooby_state_44ab00|29|1 517,0,0,0,0,0,0,0,0,1,0,0,1,1,0,520,
scooby_state_44ab00|40|1 520,0,0,0,0,0,0,0,0,0,0,0,0,0,0,520,
scooby_state_44ab00|52|1 519,1,0,0,0,0,0,0,0,0,0,0,0,0,0,520,
scooby_state_449ccc|15|1 518,0,0,0,1,0,0,0,0,0,0,0,0,1,0,520,
scooby_state_44bbb6|0|0 518,0,0,0,0,1,0,0,0,0,0,0,0,1,0,520,
scooby_state_449ccc|33|1 520,0,0,0,0,0,0,0,0,0,0,0,0,0,0,520,
scooby_state_449ccc|59|1 520,0,0,0,0,0,0,0,0,0,0,0,0,0,0,520,
scooby_state_449ccc|32|1 520,0,0,0,0,0,0,0,0,0,0,0,0,0,0,520,
scooby_state_44ab00|54|1 519,0,0,0,0,0,0,0,0,0,0,0,0,0,1,520,
scooby_state_44ab00|24|1 520,0,0,0,0,0,0,0,0,0,0,0,0,0,0,520,
scooby_state_449ccc|51|1 519,0,0,1,0,0,0,0,0,0,0,0,0,0,0,520,
scooby_state_449ccc|55|1 520,0,0,0,0,0,0,0,0,0,0,0,0,0,0,520,
scooby_state_449ccc|4|1 519,0,0,0,0,0,0,0,0,0,0,1,0,0,0,520,
scooby_state_449ccc|61|1 517,1,0,1,0,0,0,0,0,0,1,0,0,0,0,520,
scooby_state_449ccc|62|1 520,0,0,0,0,0,0,0,0,0,0,0,0,0,0,520,
scooby_state_449ccc|53|1 520,0,0,0,0,0,0,0,0,0,0,0,0,0,0,520,
scooby_state_449ccc|31|1 519,0,0,1,0,0,0,0,0,0,0,0,0,0,0,520,
scooby_state_44ab00|62|1 520,0,0,0,0,0,0,0,0,0,0,0,0,0,0,520,
scooby_state_44ab00|34|1 518,0,0,0,0,0,0,0,0,0,0,0,0,0,2,520,
scooby_state_44ab00|33|1 519,0,0,0,0,0,0,0,0,0,0,0,0,0,1,520,
scooby_state_44ab00|5|1 520,0,0,0,0,0,0,0,0,0,0,0,0,0,0,520,
scooby_state_449ccc|10|1 520,0,0,0,0,0,0,0,0,0,0,0,0,0,0,520,
scooby_state_44ab00|36|1 519,0,0,0,0,0,0,0,0,0,1,0,0,0,0,520,
scooby_state_449ccc|58|1 520,0,0,0,0,0,0,0,0,0,0,0,0,0,0,520,
scooby_state_449ccc|63|1 520,0,0,0,0,0,0,0,0,0,0,0,0,0,0,520,
scooby_state_44ab00|16|1 519,0,0,0,0,0,0,0,0,0,0,0,0,0,1,520,
scooby_state_44ab00|30|1 519,0,0,0,0,0,0,0,0,0,0,0,0,1,0,520,
scooby_state_44ab00|58|1 519,0,0,0,0,0,0,0,0,0,0,0,0,0,1,520,
scooby_state_449ccc|56|1 517,0,0,1,0,0,0,1,0,1,0,0,0,0,0,520,
scooby_state_44ab00|50|1 518,0,1,0,0,0,0,0,0,0,0,0,0,0,1,520,
scooby_state_44ab00|7|1 519,0,1,0,0,0,0,0,0,0,0,0,0,0,0,520,
scooby_state_449ccc|29|1 519,0,0,0,0,0,0,1,0,0,0,0,0,0,0,520,
scooby_state_44ab00|48|1 519,0,0,0,0,0,0,0,0,0,0,1,0,0,0,520,
scooby_state_44ab00|41|1 518,0,0,0,0,0,0,0,1,0,0,0,0,1,0,520,
scooby_state_44ab00|1|1 519,0,0,0,0,0,0,0,0,0,0,1,0,0,0,520,
scooby_state_449ccc|27|1 520,0,0,0,0,0,0,0,0,0,0,0,0,0,0,520,
scooby_state_449ccc|34|1 519,0,0,0,0,0,0,0,0,0,0,0,1,0,0,520,
scooby_state_44bbb1|0|0 519,0,0,0,0,0,0,1,0,0,0,0,0,0,0,520,
scooby_state_449ccc|8|1 519,0,0,0,0,0,0,0,0,0,1,0,0,0,0,520,
scooby_state_44ab00|49|1 520,0,0,0,0,0,0,0,0,0,0,0,0,0,0,520,
scooby_state_449ccc|24|1 520,0,0,0,0,0,0,0,0,0,0,0,0,0,0,520,
scooby_state_44aca8|0|0 519,0,1,0,0,0,0,0,0,0,0,0,0,0,0,520,
scooby_state_44ab00|26|1 520,0,0,0,0,0,0,0,0,0,0,0,0,0,0,520,
scooby_state_44bbdc|0|0 519,0,0,0,0,0,1,0,0,0,0,0,0,0,0,520,
scooby_state_44ab00|28|1 519,0,0,0,0,0,0,0,0,1,0,0,0,0,0,520,
scooby_state_449ccc|7|1 518,1,0,0,0,1,0,0,0,0,0,0,0,0,0,520,
scooby_state_44ab00|56|1 520,0,0,0,0,0,0,0,0,0,0,0,0,0,0,520,
scooby_state_449ccc|46|1 520,0,0,0,0,0,0,0,0,0,0,0,0,0,0,520,
scooby_state_44ab00|39|1 519,0,0,0,0,1,0,0,0,0,0,0,0,0,0,520,
scooby_state_449ccc|39|1 520,0,0,0,0,0,0,0,0,0,0,0,0,0,0,520,
scooby_state_44ab00|47|1 519,0,0,0,0,0,0,1,0,0,0,0,0,0,0,520,
scooby_state_44ab00|13|1 519,0,0,0,0,0,0,0,0,0,0,0,0,0,1,520,
scooby_state_44bbee|0|0 518,0,0,0,0,0,0,0,0,0,0,0,1,0,1,520,
scooby_state_44ab00|11|1 518,0,0,0,0,0,0,1,1,0,0,0,0,0,0,520,
scooby_state_44ab00|60|1 519,0,0,0,0,0,0,0,0,0,0,1,0,0,0,520,
scooby_state_44bc14|0|0 519,0,0,0,0,0,0,0,0,1,0,0,0,0,0,520,
scooby_state_44ab00|10|1 519,0,0,0,0,0,0,0,0,0,1,0,0,0,0,520,
scooby_state_44ab00|25|1 520,0,0,0,0,0,0,0,0,0,0,0,0,0,0,520,
scooby_state_449ccc|2|1 520,0,0,0,0,0,0,0,0,0,0,0,0,0,0,520,
scooby_state_449ccc|60|1 519,0,1,0,0,0,0,0,0,0,0,0,0,0,0,520,
scooby_state_449ccc|3|1 520,0,0,0,0,0,0,0,0,0,0,0,0,0,0,520,
scooby_state_44ab00|9|1 520,0,0,0,0,0,0,0,0,0,0,0,0,0,0,520,
scooby_state_449ccc|5|1 520,0,0,0,0,0,0,0,0,0,0,0,0,0,0,520,
scooby_state_44ab00|14|1 520,0,0,0,0,0,0,0,0,0,0,0,0,0,0,520,
scooby_state_449ccc|52|1 519,0,0,0,1,0,0,0,0,0,0,0,0,0,0,520,
scooby_state_44ab00|20|1 520,0,0,0,0,0,0,0,0,0,0,0,0,0,0,520,
scooby_state_44ab00|51|1 518,0,0,0,0,0,0,0,1,1,0,0,0,0,0,520,
scooby_state_44bbba|0|0 520,0,0,0,0,0,0,0,0,0,0,0,0,0,0,520,
scooby_state_44ab00|53|1 520,0,0,0,0,0,0,0,0,0,0,0,0,0,0,520,
scooby_state_449ccc|6|1 520,0,0,0,0,0,0,0,0,0,0,0,0,0,0,520,
scooby_state_44ab00|45|1 519,0,0,0,0,0,0,0,0,0,0,0,0,1,0,520,
scooby_state_449ccc|17|1 519,0,0,1,0,0,0,0,0,0,0,0,0,0,0,520,
scooby_state_44ab00|59|1 519,0,0,0,0,0,0,0,0,0,0,0,0,0,1,520,
scooby_state_449ccc|43|1 519,0,0,0,0,0,0,0,0,0,0,1,0,0,0,520,
scooby_state_44ab00|61|1 518,1,0,0,0,0,0,0,0,1,0,0,0,0,0,520,
scooby_state_44bc46|0|0 519,0,0,0,0,0,0,0,0,0,0,1,0,0,0,520,
scooby_state_449ccc|35|1 516,0,0,0,0,0,1,0,0,0,0,0,0,1,2,520,
scooby_state_44ab00|21|1 520,0,0,0,0,0,0,0,0,0,0,0,0,0,0,520,
scooby_state_449ccc|22|1 519,0,0,0,0,1,0,0,0,0,0,0,0,0,0,520,
scooby_state_449ccc|19|1 519,0,0,0,0,0,0,0,1,0,0,0,0,0,0,520,
scooby_state_44ab00|3|1 518,1,0,0,0,0,0,0,0,1,0,0,0,0,0,520,
scooby_state_449ccc|13|1 517,0,0,0,0,1,0,1,0,0,1,0,0,0,0,520,
scooby_state_44ab00|4|1 519,0,0,0,0,1,0,0,0,0,0,0,0,0,0,520,
scooby_state_44ab00|63|1 519,0,0,1,0,0,0,0,0,0,0,0,0,0,0,520,
scooby_state_449ccc|12|1 518,0,0,0,1,0,0,0,0,0,0,0,0,1,0,520,
scooby_state_449ccc|42|1 519,1,0,0,0,0,0,0,0,0,0,0,0,0,0,520,
scooby_state_44ab00|35|1 519,0,0,0,0,0,0,0,0,1,0,0,0,0,0,520,
scooby_state_449ccc|41|1 517,0,0,0,0,0,0,1,0,0,0,1,0,0,1,520,
scooby_state_449ccc|0|0 520,0,0,0,0,0,0,0,0,0,0,0,0,0,0,520,
scooby_state_449ccc|54|1 520,0,0,0,0,0,0,0,0,0,0,0,0,0,0,520,
scooby_state_449ccc|40|1 519,0,0,0,0,0,0,0,1,0,0,0,0,0,0,520,
scooby_state_44ab00|12|1 520,0,0,0,0,0,0,0,0,0,0,0,0,0,0,520,
scooby_state_44ab00|19|1 519,0,0,0,0,0,0,0,0,0,0,0,1,0,0,520,
scooby_state_449ccc|36|1 520,0,0,0,0,0,0,0,0,0,0,0,0,0,0,520,
scooby_state_449ccc|28|1 520,0,0,0,0,0,0,0,0,0,0,0,0,0,0,520,
scooby_state_44ab00|22|1 518,0,0,0,0,0,0,0,0,0,0,1,1,0,0,520,
scooby_state_449ccc|16|1 519,0,0,0,0,0,0,0,0,0,1,0,0,0,0,520,
scooby_state_44ab00|0|0 518,1,0,0,0,0,0,0,0,0,0,0,1,0,0,520,
scooby_state_44ab00|18|1 519,0,0,0,0,0,0,0,0,1,0,0,0,0,0,520,
scooby_state_44ab00|15|1 520,0,0,0,0,0,0,0,0,0,0,0,0,0,0,520,
scooby_state_449ccc|38|1 519,0,0,0,0,0,0,1,0,0,0,0,0,0,0,520,
scooby_state_449ccc|20|1 520,0,0,0,0,0,0,0,0,0,0,0,0,0,0,520,
scooby_state_449ccc|18|1 519,0,0,0,0,0,0,0,0,1,0,0,0,0,0,520,
scooby_state_449ccc|44|1 516,0,0,0,0,1,0,1,0,1,0,0,0,0,1,520,
scooby_state_449ccc|25|1 519,0,0,1,0,0,0,0,0,0,0,0,0,0,0,520,
scooby_state_449ccc|26|1 520,0,0,0,0,0,0,0,0,0,0,0,0,0,0,520,
scooby_state_449ccc|50|1 520,0,0,0,0,0,0,0,0,0,0,0,0,0,0,520,
scooby_state_449ccc|11|1 519,0,0,0,0,0,1,0,0,0,0,0,0,0,0,520,
scooby_state_449ccc|21|1 520,0,0,0,0,0,0,0,0,0,0,0,0,0,0,520,
scooby_state_449ccc|37|1 519,0,0,0,0,0,0,1,0,0,0,0,0,0,0,520,
scooby_state_44ab00|46|1 520,0,0,0,0,0,0,0,0,0,0,0,0,0,0,520,
scooby_state_44ab00|6|1 519,0,0,0,0,1,0,0,0,0,0,0,0,0,0,520,
scooby_state_44ab00|38|1 520,0,0,0,0,0,0,0,0,0,0,0,0,0,0,520,
scooby_state_449ccc|48|1 519,0,0,0,0,0,0,0,0,0,0,1,0,0,0,520,
scooby_state_44ab00|32|1 520,0,0,0,0,0,0,0,0,0,0,0,0,0,0,520,
scooby_state_44ab00|17|1 520,0,0,0,0,0,0,0,0,0,0,0,0,0,0,520,
scooby_state_449ccc|49|1 518,0,1,0,0,0,0,0,0,0,0,0,0,1,0,520,
scooby_state_449ccc|23|1 517,1,0,0,0,0,0,0,0,0,0,0,1,1,0,520,
scooby_state_44ab00|2|1 516,0,0,0,0,0,0,1,1,0,1,0,0,0,1,520,
scooby_state_44ab00|31|1 520,0,0,0,0,0,0,0,0,0,0,0,0,0,0,520,
scooby_state_449ccc|1|1 520,0,0,0,0,0,0,0,0,0,0,0,0,0,0,520,
scooby_state_449ccc|47|1 519,0,0,0,0,1,0,0,0,0,0,0,0,0,0,520,
scooby_state_449ccc|57|1 519,0,0,0,0,0,1,0,0,0,0,0,0,0,0,520,
scooby_state_449ccc|14|1 520,0,0,0,0,0,0,0,0,0,0,0,0,0,0,520,
scooby_state_449ccc|30|1 518,0,1,0,1,0,0,0,0,0,0,0,0,0,0,520,
scooby_state_44ab00|55|1 518,0,1,0,0,1,0,0,0,0,0,0,0,0,0,520,
scooby_state_44ab00|57|1 519,0,0,0,0,0,0,0,0,0,1,0,0,0,0,520,
scooby_state_44ab00|37|1 518,0,1,0,0,0,0,0,0,0,0,0,0,0,1,520,
scooby_state_449ccc|45|1 519,0,0,0,1,0,0,0,0,0,0,0,0,0,0,520,
scooby_state_44ab00|8|1 520,0,0,0,0,0,0,0,0,0,0,0,0,0,0,520,
scooby_state_449efe|8|1 518,0,0,0,0,0,0,0,0,0,1,0,0,0,0,519,
scooby_state_44aca0|60|1 518,0,0,0,0,0,0,0,0,0,0,1,0,0,0,519,
scooby_state_4550a8|0|0 518,0,0,0,0,0,0,0,0,1,0,0,0,0,0,519,
scooby_state_449efe|0|0 518,0,0,0,0,0,1,0,0,0,0,0,0,0,0,519,
scooby_state_449efe|44|1 516,1,0,0,0,0,0,0,0,0,1,1,0,0,0,519,
scooby_state_449efe|35|1 519,0,0,0,0,0,0,0,0,0,0,0,0,0,0,519,
scooby_state_44aca0|19|1 519,0,0,0,0,0,0,0,0,0,0,0,0,0,0,519,
scooby_state_4550bc|0|0 518,0,0,0,0,0,0,0,1,0,0,0,0,0,0,519,
scooby_state_44aca0|41|1 518,0,0,1,0,0,0,0,0,0,0,0,0,0,0,519,
scooby_state_44aca0|11|1 518,0,0,0,0,0,0,0,0,0,0,1,0,0,0,519,
scooby_state_44aca0|43|1 518,0,0,0,0,0,1,0,0,0,0,0,0,0,0,519,
scooby_state_44aca0|25|1 518,0,0,0,0,0,0,0,0,0,0,0,1,0,0,519,
scooby_state_449efe|41|1 519,0,0,0,0,0,0,0,0,0,0,0,0,0,0,519,
scooby_state_449efe|47|1 519,0,0,0,0,0,0,0,0,0,0,0,0,0,0,519,
scooby_state_44aca0|42|1 518,0,1,0,0,0,0,0,0,0,0,0,0,0,0,519,
scooby_state_44aca0|7|1 519,0,0,0,0,0,0,0,0,0,0,0,0,0,0,519,
scooby_state_44aca0|40|1 519,0,0,0,0,0,0,0,0,0,0,0,0,0,0,519,
scooby_state_44aca0|24|1 518,0,0,0,0,0,0,0,0,0,0,1,0,0,0,519,
scooby_state_449cdc|3|1 518,0,0,0,0,0,0,0,0,0,0,0,0,0,1,519,
scooby_state_44aca0|52|1 519,0,0,0,0,0,0,0,0,0,0,0,0,0,0,519,
scooby_state_44aca0|12|1 519,0,0,0,0,0,0,0,0,0,0,0,0,0,0,519,
scooby_state_449efe|61|1 518,0,0,0,1,0,0,0,0,0,0,0,0,0,0,519,
scooby_state_449efe|12|1 519,0,0,0,0,0,0,0,0,0,0,0,0,0,0,519,
scooby_state_44aca0|5|1 518,0,0,0,0,0,0,0,1,0,0,0,0,0,0,519,
scooby_state_44aca0|3|1 518,0,0,0,0,0,0,0,0,0,0,0,0,1,0,519,
scooby_state_449efe|18|1 518,0,1,0,0,0,0,0,0,0,0,0,0,0,0,519,
scooby_state_449efe|7|1 519,0,0,0,0,0,0,0,0,0,0,0,0,0,0,519,
scooby_state_449efe|43|1 518,0,0,0,0,0,1,0,0,0,0,0,0,0,0,519,
scooby_state_44aca0|21|1 518,0,0,0,0,0,0,0,0,1,0,0,0,0,0,519,
scooby_state_449efe|6|1 519,0,0,0,0,0,0,0,0,0,0,0,0,0,0,519,
scooby_state_449efe|42|1 519,0,0,0,0,0,0,0,0,0,0,0,0,0,0,519,
scooby_state_449cc0|51|1 519,0,0,0,0,0,0,0,0,0,0,0,0,0,0,519,
scooby_state_449efe|55|1 518,1,0,0,0,0,0,0,0,0,0,0,0,0,0,519,
scooby_state_44aca0|29|1 518,1,0,0,0,0,0,0,0,0,0,0,0,0,0,519,
scooby_state_449efe|62|1 518,1,0,0,0,0,0,0,0,0,0,0,0,0,0,519,
scooby_state_449efe|26|1 518,0,0,0,0,0,0,0,1,0,0,0,0,0,0,519,
scooby_state_449efe|33|1 518,0,0,1,0,0,0,0,0,0,0,0,0,0,0,519,
scooby_state_449efe|29|1 519,0,0,0,0,0,0,0,0,0,0,0,0,0,0,519,
scooby_state_44aca0|55|1 518,0,0,0,0,0,1,0,0,0,0,0,0,0,0,519,
scooby_state_449efe|54|1 518,0,0,0,0,0,0,0,0,0,0,0,0,0,1,519,
scooby_state_449efe|16|1 515,1,0,0,2,0,0,0,0,0,1,0,0,0,0,519,
scooby_state_455101|0|0 519,0,0,0,0,0,0,0,0,0,0,0,0,0,0,519,
scooby_state_44aca0|9|1 518,0,0,0,0,0,0,0,0,0,0,0,1,0,0,519,
scooby_state_449efe|45|1 518,0,0,0,0,0,0,0,0,1,0,0,0,0,0,519,
scooby_state_44aca0|37|1 519,0,0,0,0,0,0,0,0,0,0,0,0,0,0,519,
scooby_state_449efe|25|1 517,0,1,0,0,0,0,0,0,0,0,0,0,0,1,519,
scooby_state_449efe|4|1 518,0,0,0,0,0,0,0,1,0,0,0,0,0,0,519,
scooby_state_44aca0|53|1 518,0,0,0,0,0,0,0,0,0,0,0,1,0,0,519,
scooby_state_44aca0|15|1 515,0,0,0,0,0,1,0,2,0,0,0,0,0,1,519,
scooby_state_449efe|36|1 518,0,0,0,0,0,0,0,0,0,0,0,0,1,0,519,
scooby_state_449efe|63|1 519,0,0,0,0,0,0,0,0,0,0,0,0,0,0,519,
scooby_state_44aca0|50|1 518,0,0,0,0,0,0,0,0,0,0,0,0,0,1,519,
scooby_state_44aca0|18|1 518,0,0,0,0,0,0,0,0,0,0,0,0,1,0,519,
scooby_state_449efe|48|1 519,0,0,0,0,0,0,0,0,0,0,0,0,0,0,519,
scooby_state_44aca0|45|1 517,0,0,1,0,0,0,0,0,0,0,0,1,0,0,519,
scooby_state_449efe|24|1 518,0,0,0,0,0,0,0,0,1,0,0,0,0,0,519,
scooby_state_449efe|52|1 518,0,0,0,0,0,0,0,0,1,0,0,0,0,0,519,
scooby_state_44aca0|48|1 517,0,0,0,0,0,0,1,0,1,0,0,0,0,0,519,
scooby_state_449efe|21|1 519,0,0,0,0,0,0,0,0,0,0,0,0,0,0,519,
scooby_state_44aca0|57|1 519,0,0,0,0,0,0,0,0,0,0,0,0,0,0,519,
scooby_state_44aca0|49|1 518,0,1,0,0,0,0,0,0,0,0,0,0,0,0,519,
scooby_state_44aca0|14|1 519,0,0,0,0,0,0,0,0,0,0,0,0,0,0,519,
scooby_state_44aca0|46|1 517,0,0,0,0,0,0,1,1,0,0,0,0,0,0,519,
scooby_state_44aca0|28|1 519,0,0,0,0,0,0,0,0,0,0,0,0,0,0,519,
scooby_state_449efe|2|1 517,1,0,0,0,0,0,0,1,0,0,0,0,0,0,519,
scooby_state_449efe|1|1 519,0,0,0,0,0,0,0,0,0,0,0,0,0,0,519,
scooby_state_449efe|38|1 518,0,0,0,0,0,0,0,1,0,0,0,0,0,0,519,
scooby_state_449efe|40|1 519,0,0,0,0,0,0,0,0,0,0,0,0,0,0,519,
scooby_state_44aca0|63|1 518,1,0,0,0,0,0,0,0,0,0,0,0,0,0,519,
scooby_state_44aca0|27|1 519,0,0,0,0,0,0,0,0,0,0,0,0,0,0,519,
scooby_state_449efe|56|1 519,0,0,0,0,0,0,0,0,0,0,0,0,0,0,519,
scooby_state_449efe|19|1 518,0,0,0,0,0,0,1,0,0,0,0,0,0,0,519,
scooby_state_44aca0|4|1 519,0,0,0,0,0,0,0,0,0,0,0,0,0,0,519,
scooby_state_449efe|10|1 519,0,0,0,0,0,0,0,0,0,0,0,0,0,0,519,
scooby_state_44aca0|38|1 519,0,0,0,0,0,0,0,0,0,0,0,0,0,0,519,
scooby_state_44aca0|44|1 518,1,0,0,0,0,0,0,0,0,0,0,0,0,0,519,
scooby_state_44aca0|31|1 519,0,0,0,0,0,0,0,0,0,0,0,0,0,0,519,
scooby_state_449efe|59|1 518,0,1,0,0,0,0,0,0,0,0,0,0,0,0,519,
scooby_state_449efe|57|1 519,0,0,0,0,0,0,0,0,0,0,0,0,0,0,519,
scooby_state_44aca0|39|1 518,0,0,0,0,0,0,0,0,0,0,1,0,0,0,519,
scooby_state_449efe|51|1 518,0,0,0,0,0,0,0,0,0,0,0,1,0,0,519,
scooby_state_44aca0|1|1 518,0,1,0,0,0,0,0,0,0,0,0,0,0,0,519,
scooby_state_44aca0|0|0 519,0,0,0,0,0,0,0,0,0,0,0,0,0,0,519,
scooby_state_44aca0|47|1 516,1,0,0,0,0,0,0,0,0,1,0,0,0,1,519,
scooby_state_44aca0|30|1 517,1,0,0,0,0,0,0,0,0,0,0,1,0,0,519,
scooby_state_44aca0|6|1 516,0,1,0,1,1,0,0,0,0,0,0,0,0,0,519,
scooby_state_449efe|9|1 517,0,0,1,0,0,1,0,0,0,0,0,0,0,0,519,
scooby_state_44aca0|61|1 516,2,0,0,1,0,0,0,0,0,0,0,0,0,0,519,
scooby_state_44aca0|26|1 519,0,0,0,0,0,0,0,0,0,0,0,0,0,0,519,
scooby_state_449efe|50|1 517,0,1,0,0,0,0,0,0,0,0,0,1,0,0,519,
scooby_state_449efe|37|1 517,1,0,0,0,0,0,1,0,0,0,0,0,0,0,519,
scooby_state_44aca0|17|1 518,0,1,0,0,0,0,0,0,0,0,0,0,0,0,519,
scooby_state_44aca0|20|1 518,1,0,0,0,0,0,0,0,0,0,0,0,0,0,519,
scooby_state_449efe|3|1 517,0,0,0,1,0,0,1,0,0,0,0,0,0,0,519,
scooby_state_449efe|30|1 518,0,0,0,0,0,0,0,0,0,0,0,1,0,0,519,
scooby_state_449efe|17|1 516,0,1,1,0,0,0,0,1,0,0,0,0,0,0,519,
scooby_state_449efe|27|1 519,0,0,0,0,0,0,0,0,0,0,0,0,0,0,519,
scooby_state_449efe|60|1 519,0,0,0,0,0,0,0,0,0,0,0,0,0,0,519,
scooby_state_44aca0|23|1 518,0,0,0,0,0,1,0,0,0,0,0,0,0,0,519,
scooby_state_449aa0|3|1 517,1,0,0,0,0,0,0,1,0,0,0,0,0,0,519,
scooby_state_449efe|22|1 518,1,0,0,0,0,0,0,0,0,0,0,0,0,0,519,
scooby_state_44aca0|2|1 516,0,1,0,0,0,0,0,0,1,1,0,0,0,0,519,
scooby_state_449efe|11|1 519,0,0,0,0,0,0,0,0,0,0,0,0,0,0,519,
scooby_state_449efe|31|1 519,0,0,0,0,0,0,0,0,0,0,0,0,0,0,519,
scooby_state_449efe|58|1 519,0,0,0,0,0,0,0,0,0,0,0,0,0,0,519,
scooby_state_44aca0|16|1 517,0,0,0,0,0,1,0,0,1,0,0,0,0,0,519,
scooby_state_44aca0|58|1 519,0,0,0,0,0,0,0,0,0,0,0,0,0,0,519,
scooby_state_449efe|14|1 517,0,0,0,0,0,0,0,0,0,0,0,1,1,0,519,
scooby_state_44aca0|13|1 518,0,0,1,0,0,0,0,0,0,0,0,0,0,0,519,
scooby_state_44aca0|8|1 519,0,0,0,0,0,0,0,0,0,0,0,0,0,0,519,
scooby_state_44aca0|34|1 518,0,0,0,0,1,0,0,0,0,0,0,0,0,0,519,
scooby_state_449efe|53|1 516,0,0,1,0,0,0,0,0,0,0,1,0,0,1,519,
scooby_state_44aca0|54|1 517,0,0,0,0,0,1,0,0,0,0,0,0,1,0,519,
scooby_state_449efe|39|1 518,0,0,0,0,0,0,0,0,0,0,1,0,0,0,519,
scooby_state_44aca0|62|1 519,0,0,0,0,0,0,0,0,0,0,0,0,0,0,519,
scooby_state_449efe|28|1 516,0,0,1,0,0,0,1,0,0,1,0,0,0,0,519,
scooby_state_44aca0|35|1 518,0,0,0,0,1,0,0,0,0,0,0,0,0,0,519,
scooby_state_44aca0|56|1 519,0,0,0,0,0,0,0,0,0,0,0,0,0,0,519,
scooby_state_449efe|15|1 518,1,0,0,0,0,0,0,0,0,0,0,0,0,0,519,
scooby_state_44aca0|59|1 518,0,0,0,0,0,0,0,0,0,0,1,0,0,0,519,
scooby_state_44aca0|32|1 519,0,0,0,0,0,0,0,0,0,0,0,0,0,0,519,
scooby_state_44aca0|10|1 518,0,0,0,0,0,0,1,0,0,0,0,0,0,0,519,
scooby_state_449efe|32|1 518,0,0,0,0,0,0,1,0,0,0,0,0,0,0,519,
scooby_state_44aca0|36|1 517,0,1,0,0,0,0,1,0,0,0,0,0,0,0,519,
scooby_state_449efe|23|1 519,0,0,0,0,0,0,0,0,0,0,0,0,0,0,519,
scooby_state_44aca0|33|1 518,0,0,0,0,0,0,0,0,0,0,0,0,1,0,519,
scooby_state_44aca0|51|1 518,0,0,0,1,0,0,0,0,0,0,0,0,0,0,519,
scooby_state_449efe|13|1 518,0,0,0,0,0,0,0,1,0,0,0,0,0,0,519,
scooby_state_449efe|5|1 516,0,1,0,0,0,0,0,0,0,0,0,1,0,1,519,
scooby_state_449efe|46|1 518,0,0,0,0,0,0,0,0,0,0,0,1,0,0,519,
scooby_state_455e00|56|1 517,0,0,0,0,1,0,0,0,1,0,0,0,0,0,519,
scooby_state_449efe|20|1 519,0,0,0,0,0,0,0,0,0,0,0,0,0,0,519,
scooby_state_449efe|49|1 518,0,0,0,0,0,0,0,0,0,1,0,0,0,0,519,
scooby_state_449efe|34|1 518,0,0,0,0,0,1,0,0,0,0,0,0,0,0,519,
scooby_state_44aca0|22|1 518,0,0,0,0,1,0,0,0,0,0,0,0,0,0,519,
scooby_state_449cc0|1|1 518,0,0,0,0,0,0,0,0,0,0,0,0,0,0,518,
scooby_state_44bb94|40|1 517,0,0,0,0,1,0,0,0,0,0,0,0,0,0,518,
scooby_state_449aa0|36|1 516,0,0,0,1,0,1,0,0,0,0,0,0,0,0,518,
scooby_state_449aa0|42|1 517,0,0,0,0,0,0,0,1,0,0,0,0,0,0,518,
scooby_state_449cc0|7|1 517,0,0,0,0,0,1,0,0,0,0,0,0,0,0,518,
scooby_state_44bb99|9|1 514,0,1,1,1,0,0,0,0,0,1,0,0,0,0,518,
scooby_state_449aa0|51|1 517,0,0,0,1,0,0,0,0,0,0,0,0,0,0,518,
scooby_state_449aa0|21|1 518,0,0,0,0,0,0,0,0,0,0,0,0,0,0,518,
scooby_state_44bb99|35|1 518,0,0,0,0,0,0,0,0,0,0,0,0,0,0,518,
scooby_state_44c810|33|1 516,0,0,0,0,1,0,0,0,0,0,0,0,1,0,518,
scooby_state_449cc0|16|1 518,0,0,0,0,0,0,0,0,0,0,0,0,0,0,518,
scooby_state_44c950|11|1 518,0,0,0,0,0,0,0,0,0,0,0,0,0,0,518,
scooby_state_44c950|38|1 517,0,0,0,0,0,0,0,0,0,0,1,0,0,0,518,
scooby_state_44bb94|12|1 517,1,0,0,0,0,0,0,0,0,0,0,0,0,0,518,
scooby_state_455e00|51|1 517,0,0,0,0,0,0,1,0,0,0,0,0,0,0,518,
scooby_state_455e00|28|1 517,0,0,0,0,0,0,0,0,0,0,0,0,1,0,518,
scooby_state_449cc0|14|1 518,0,0,0,0,0,0,0,0,0,0,0,0,0,0,518,
scooby_state_44bb99|13|1 518,0,0,0,0,0,0,0,0,0,0,0,0,0,0,518,
scooby_state_449cdc|15|1 517,0,0,0,0,1,0,0,0,0,0,0,0,0,0,518,
scooby_state_449cc0|12|1 518,0,0,0,0,0,0,0,0,0,0,0,0,0,0,518,
scooby_state_449aa4|32|1 517,0,0,0,0,0,0,1,0,0,0,0,0,0,0,518,
scooby_state_449cc0|8|1 518,0,0,0,0,0,0,0,0,0,0,0,0,0,0,518,
scooby_state_449cdc|14|1 517,0,0,0,0,1,0,0,0,0,0,0,0,0,0,518,
scooby_state_44c950|55|1 517,0,0,1,0,0,0,0,0,0,0,0,0,0,0,518,
scooby_state_44bb94|48|1 518,0,0,0,0,0,0,0,0,0,0,0,0,0,0,518,
scooby_state_449aa0|27|1 517,1,0,0,0,0,0,0,0,0,0,0,0,0,0,518,
scooby_state_44bb94|14|1 518,0,0,0,0,0,0,0,0,0,0,0,0,0,0,518,
scooby_state_449aa0|29|1 518,0,0,0,0,0,0,0,0,0,0,0,0,0,0,518,
scooby_state_449aa0|48|1 518,0,0,0,0,0,0,0,0,0,0,0,0,0,0,518,
scooby_state_449aa4|27|1 518,0,0,0,0,0,0,0,0,0,0,0,0,0,0,518,
scooby_state_44c810|12|1 517,0,0,0,0,1,0,0,0,0,0,0,0,0,0,518,
scooby_state_449aa0|35|1 518,0,0,0,0,0,0,0,0,0,0,0,0,0,0,518,
scooby_state_449aa0|43|1 518,0,0,0,0,0,0,0,0,0,0,0,0,0,0,518,
scooby_state_44bb94|30|1 517,0,0,0,0,0,0,0,0,0,1,0,0,0,0,518,
scooby_state_44c950|41|1 517,0,0,0,0,0,0,0,0,0,0,1,0,0,0,518,
scooby_state_44bb94|47|1 517,0,1,0,0,0,0,0,0,0,0,0,0,0,0,518,
scooby_state_449aa0|56|1 517,0,0,0,0,0,0,0,0,1,0,0,0,0,0,518,
scooby_state_44bb99|58|1 518,0,0,0,0,0,0,0,0,0,0,0,0,0,0,518,
scooby_state_44bb99|28|1 518,0,0,0,0,0,0,0,0,0,0,0,0,0,0,518,
scooby_state_44bb94|8|1 518,0,0,0,0,0,0,0,0,0,0,0,0,0,0,518,
scooby_state_44bb94|2|1 517,0,0,0,0,0,0,0,0,1,0,0,0,0,0,518,
scooby_state_449aa4|48|1 518,0,0,0,0,0,0,0,0,0,0,0,0,0,0,518,
scooby_state_455e00|46|1 517,0,0,0,0,0,0,0,0,0,1,0,0,0,0,518,
scooby_state_44bb94|34|1 516,0,0,0,0,1,0,0,0,0,0,0,0,1,0,518,
scooby_state_44bb94|24|1 517,0,1,0,0,0,0,0,0,0,0,0,0,0,0,518,
scooby_state_449cc0|47|1 518,0,0,0,0,0,0,0,0,0,0,0,0,0,0,518,
scooby_state_455e00|14|1 518,0,0,0,0,0,0,0,0,0,0,0,0,0,0,518,
scooby_state_44bb99|24|1 517,0,0,0,0,0,0,0,0,0,0,0,0,1,0,518,
scooby_state_449aa0|57|1 517,1,0,0,0,0,0,0,0,0,0,0,0,0,0,518,
scooby_state_449aa0|25|1 517,0,0,0,0,0,0,0,0,0,1,0,0,0,0,518,
scooby_state_449aa0|18|1 516,0,0,0,0,0,0,0,0,0,0,0,1,0,1,518,
scooby_state_44bb99|23|1 516,0,0,0,0,0,0,0,0,1,0,0,0,1,0,518,
scooby_state_449aa0|59|1 518,0,0,0,0,0,0,0,0,0,0,0,0,0,0,518,
scooby_state_44c950|17|1 517,0,0,0,0,0,0,0,1,0,0,0,0,0,0,518,
scooby_state_44bb99|12|1 515,0,0,0,1,1,0,1,0,0,0,0,0,0,0,518,
scooby_state_455e00|4|1 516,0,0,0,0,0,0,0,0,0,1,1,0,0,0,518,
scooby_state_449cc0|15|1 517,0,0,0,0,0,0,0,0,0,0,0,0,0,1,518,
scooby_state_44bb94|3|1 517,0,1,0,0,0,0,0,0,0,0,0,0,0,0,518,
scooby_state_44c810|29|1 517,0,0,0,0,0,1,0,0,0,0,0,0,0,0,518,
scooby_state_449cc0|58|1 517,0,0,0,0,0,0,0,0,0,0,0,1,0,0,518,
scooby_state_44c950|57|1 517,0,0,1,0,0,0,0,0,0,0,0,0,0,0,518,
scooby_state_44c950|50|1 516,1,0,0,0,0,0,0,0,0,1,0,0,0,0,518,
scooby_state_455e00|10|1 515,0,1,0,1,0,0,0,0,0,0,0,0,1,0,518,
scooby_state_455e00|59|1 518,0,0,0,0,0,0,0,0,0,0,0,0,0,0,518,
scooby_state_44bb94|42|1 517,0,0,0,0,0,0,0,0,0,0,0,0,1,0,518,
scooby_state_44c950|0|0 517,0,0,0,0,0,0,0,0,0,0,1,0,0,0,518,
scooby_state_44bb94|31|1 515,0,1,0,0,0,1,0,0,0,0,0,0,1,0,518,
scooby_state_449aa0|47|1 518,0,0,0,0,0,0,0,0,0,0,0,0,0,0,518,
scooby_state_44bb99|16|1 516,0,0,0,1,0,0,1,0,0,0,0,0,0,0,518,
scooby_state_44bb94|54|1 516,0,0,0,0,1,0,0,0,0,0,0,0,0,1,518,
scooby_state_449aa4|54|1 518,0,0,0,0,0,0,0,0,0,0,0,0,0,0,518,
scooby_state_449cc0|5|1 517,0,0,0,0,0,0,0,0,1,0,0,0,0,0,518,
scooby_state_449aa4|45|1 517,0,0,0,1,0,0,0,0,0,0,0,0,0,0,518,
scooby_state_449cdc|6|1 517,0,0,0,0,0,1,0,0,0,0,0,0,0,0,518,
scooby_state_449aa4|47|1 518,0,0,0,0,0,0,0,0,0,0,0,0,0,0,518,
scooby_state_449cc0|3|1 517,0,0,0,0,0,0,0,0,0,0,0,0,0,1,518,
scooby_state_44bb94|18|1 517,0,0,0,0,1,0,0,0,0,0,0,0,0,0,518,
scooby_state_44c950|56|1 516,0,0,0,0,0,0,0,0,1,0,0,1,0,0,518,
scooby_state_449cc0|2|1 517,0,0,0,0,0,1,0,0,0,0,0,0,0,0,518,
scooby_state_44bb94|15|1 518,0,0,0,0,0,0,0,0,0,0,0,0,0,0,518,
scooby_state_449aa0|53|1 516,0,0,0,0,0,0,0,0,0,0,0,2,0,0,518,
scooby_state_44bb99|20|1 518,0,0,0,0,0,0,0,0,0,0,0,0,0,0,518,
scooby_state_449aa0|46|1 518,0,0,0,0,0,0,0,0,0,0,0,0,0,0,518,
scooby_state_44bb94|25|1 517,0,0,0,0,0,1,0,0,0,0,0,0,0,0,518,
scooby_state_449aa4|53|1 518,0,0,0,0,0,0,0,0,0,0,0,0,0,0,518,
scooby_state_449aa4|56|1 515,0,1,0,0,0,0,0,0,1,0,0,0,0,1,518,
scooby_state_455e00|5|1 516,0,0,0,0,0,0,0,0,0,0,1,0,0,1,518,
scooby_state_449aa4|57|1 518,0,0,0,0,0,0,0,0,0,0,0,0,0,0,518,
scooby_state_44c810|53|1 518,0,0,0,0,0,0,0,0,0,0,0,0,0,0,518,
scooby_state_44bb99|22|1 518,0,0,0,0,0,0,0,0,0,0,0,0,0,0,518,
scooby_state_449aa0|60|1 517,0,1,0,0,0,0,0,0,0,0,0,0,0,0,518,
scooby_state_449aa4|59|1 517,0,0,0,0,1,0,0,0,0,0,0,0,0,0,518,
scooby_state_449cc0|24|1 516,0,0,0,0,0,1,1,0,0,0,0,0,0,0,518,
scooby_state_44bb94|22|1 517,0,0,0,0,0,0,0,0,0,0,1,0,0,0,518,
scooby_state_449cc0|6|1 518,0,0,0,0,0,0,0,0,0,0,0,0,0,0,518,
scooby_state_44c950|6|1 517,0,0,1,0,0,0,0,0,0,0,0,0,0,0,518,
scooby_state_44bb99|14|1 518,0,0,0,0,0,0,0,0,0,0,0,0,0,0,518,
scooby_state_449aa0|2|1 517,0,0,1,0,0,0,0,0,0,0,0,0,0,0,518,
scooby_state_44c810|18|1 518,0,0,0,0,0,0,0,0,0,0,0,0,0,0,518,
scooby_state_44c950|62|1 518,0,0,0,0,0,0,0,0,0,0,0,0,0,0,518,
scooby_state_449cc0|37|1 516,0,0,0,0,0,0,0,0,0,1,0,1,0,0,518,
scooby_state_44c950|59|1 517,0,0,0,0,0,0,1,0,0,0,0,0,0,0,518,
scooby_state_44c950|47|1 517,0,0,0,1,0,0,0,0,0,0,0,0,0,0,518,
scooby_state_44bb94|63|1 518,0,0,0,0,0,0,0,0,0,0,0,0,0,0,518,
scooby_state_44bb99|19|1 517,0,0,0,0,0,0,0,0,0,0,0,0,0,1,518,
scooby_state_449aa4|36|1 517,0,0,0,1,0,0,0,0,0,0,0,0,0,0,518,
scooby_state_449cdc|62|1 518,0,0,0,0,0,0,0,0,0,0,0,0,0,0,518,
scooby_state_449aa0|1|1 517,0,0,0,0,0,0,0,0,1,0,0,0,0,0,518,
scooby_state_449cc0|4|1 517,0,0,0,0,0,0,1,0,0,0,0,0,0,0,518,
scooby_state_449cc0|41|1 518,0,0,0,0,0,0,0,0,0,0,0,0,0,0,518,
scooby_state_449aa0|15|1 518,0,0,0,0,0,0,0,0,0,0,0,0,0,0,518,
scooby_state_449cc0|13|1 517,0,0,0,0,0,0,0,0,0,1,0,0,0,0,518,
scooby_state_44bb94|57|1 517,0,0,0,0,0,0,0,0,0,0,0,0,0,1,518,
scooby_state_44bb99|10|1 518,0,0,0,0,0,0,0,0,0,0,0,0,0,0,518,
scooby_state_455e00|54|1 516,1,0,1,0,0,0,0,0,0,0,0,0,0,0,518,
scooby_state_44bb94|19|1 516,0,0,0,0,1,0,0,0,1,0,0,0,0,0,518,
scooby_state_44bb94|35|1 518,0,0,0,0,0,0,0,0,0,0,0,0,0,0,518,
scooby_state_455e00|47|1 518,0,0,0,0,0,0,0,0,0,0,0,0,0,0,518,
scooby_state_449cc0|35|1 518,0,0,0,0,0,0,0,0,0,0,0,0,0,0,518,
scooby_state_449aa0|28|1 518,0,0,0,0,0,0,0,0,0,0,0,0,0,0,518,
scooby_state_44c810|11|1 516,0,0,0,0,0,0,0,0,1,1,0,0,0,0,518,
scooby_state_455e00|33|1 518,0,0,0,0,0,0,0,0,0,0,0,0,0,0,518,
scooby_state_44bb99|63|1 517,0,0,0,0,0,0,0,0,0,0,0,0,0,1,518,
scooby_state_44bb94|10|1 518,0,0,0,0,0,0,0,0,0,0,0,0,0,0,518,
scooby_state_44bb99|26|1 517,0,0,0,0,0,0,0,0,0,0,0,1,0,0,518,
scooby_state_44c950|51|1 516,0,0,0,1,0,0,0,0,0,0,0,0,1,0,518,
scooby_state_449aa0|37|1 518,0,0,0,0,0,0,0,0,0,0,0,0,0,0,518,
scooby_state_449aa4|51|1 518,0,0,0,0,0,0,0,0,0,0,0,0,0,0,518,
scooby_state_449cc0|48|1 518,0,0,0,0,0,0,0,0,0,0,0,0,0,0,518,
scooby_state_44bb99|31|1 518,0,0,0,0,0,0,0,0,0,0,0,0,0,0,518,
scooby_state_44bb99|36|1 518,0,0,0,0,0,0,0,0,0,0,0,0,0,0,518,
scooby_state_44c810|52|1 516,0,0,1,0,0,1,0,0,0,0,0,0,0,0,518,
scooby_state_449cc0|53|1 517,0,0,0,1,0,0,0,0,0,0,0,0,0,0,518,
scooby_state_44c810|2|1 518,0,0,0,0,0,0,0,0,0,0,0,0,0,0,518,
scooby_state_455e00|53|1 516,0,0,0,1,0,0,0,0,0,0,0,0,0,1,518,
scooby_state_449aa0|14|1 516,0,0,0,0,0,0,0,2,0,0,0,0,0,0,518,
scooby_state_455e00|25|1 515,1,1,0,0,0,0,1,0,0,0,0,0,0,0,518,
scooby_state_44c950|10|1 517,0,0,1,0,0,0,0,0,0,0,0,0,0,0,518,
scooby_state_44c810|44|1 518,0,0,0,0,0,0,0,0,0,0,0,0,0,0,518,
scooby_state_449cc0|46|1 514,0,0,1,0,0,1,0,2,0,0,0,0,0,0,518,
scooby_state_455e00|3|1 516,0,0,0,0,0,1,0,0,0,0,0,1,0,0,518,
scooby_state_44c950|8|1 516,0,1,0,1,0,0,0,0,0,0,0,0,0,0,518,
scooby_state_449aa0|31|1 517,0,0,1,0,0,0,0,0,0,0,0,0,0,0,518,
scooby_state_44c950|20|1 518,0,0,0,0,0,0,0,0,0,0,0,0,0,0,518,
scooby_state_455e00|32|1 517,0,0,0,0,0,0,1,0,0,0,0,0,0,0,518,
scooby_state_449aa0|22|1 514,1,0,0,0,0,0,0,1,0,0,0,1,1,0,518,
scooby_state_455e00|44|1 518,0,0,0,0,0,0,0,0,0,0,0,0,0,0,518,
scooby_state_455e00|62|1 517,0,0,0,0,0,0,0,0,0,0,1,0,0,0,518,
scooby_state_455e00|43|1 517,0,0,0,0,0,0,0,1,0,0,0,0,0,0,518,
scooby_state_44bb94|37|1 515,1,1,0,1,0,0,0,0,0,0,0,0,0,0,518,
scooby_state_455e00|63|1 517,0,1,0,0,0,0,0,0,0,0,0,0,0,0,518,
scooby_state_449cdc|7|1 518,0,0,0,0,0,0,0,0,0,0,0,0,0,0,518,
scooby_state_455e00|1|1 517,0,0,0,1,0,0,0,0,0,0,0,0,0,0,518,
scooby_state_455e00|39|1 518,0,0,0,0,0,0,0,0,0,0,0,0,0,0,518,
scooby_state_44bb94|59|1 518,0,0,0,0,0,0,0,0,0,0,0,0,0,0,518,
scooby_state_455e00|2|1 517,0,1,0,0,0,0,0,0,0,0,0,0,0,0,518,
scooby_state_449cc0|59|1 518,0,0,0,0,0,0,0,0,0,0,0,0,0,0,518,
scooby_state_455e00|31|1 516,0,0,0,0,1,0,0,1,0,0,0,0,0,0,518,
scooby_state_455e00|8|1 518,0,0,0,0,0,0,0,0,0,0,0,0,0,0,518,
scooby_state_455e00|26|1 516,0,0,1,0,0,0,0,0,0,0,0,0,1,0,518,
scooby_state_455e00|24|1 518,0,0,0,0,0,0,0,0,0,0,0,0,0,0,518,
scooby_state_449cdc|59|1 516,0,0,1,0,0,0,0,0,0,1,0,0,0,0,518,
scooby_state_455e00|20|1 518,0,0,0,0,0,0,0,0,0,0,0,0,0,0,518,
scooby_state_455e00|18|1 518,0,0,0,0,0,0,0,0,0,0,0,0,0,0,518,
scooby_state_44bb94|45|1 516,0,0,0,0,0,0,0,0,0,1,0,1,0,0,518,
scooby_state_455e00|15|1 517,0,0,1,0,0,0,0,0,0,0,0,0,0,0,518,
scooby_state_455e00|16|1 518,0,0,0,0,0,0,0,0,0,0,0,0,0,0,518,
scooby_state_44c810|24|1 516,1,0,0,0,0,0,0,0,0,0,0,0,0,1,518,
scooby_state_449aa0|20|1 518,0,0,0,0,0,0,0,0,0,0,0,0,0,0,518,
scooby_state_44bb99|40|1 517,0,0,0,0,0,0,0,1,0,0,0,0,0,0,518,
scooby_state_449aa4|62|1 517,0,1,0,0,0,0,0,0,0,0,0,0,0,0,518,
scooby_state_449aa0|62|1 518,0,0,0,0,0,0,0,0,0,0,0,0,0,0,518,
scooby_state_455e00|23|1 516,0,0,1,0,0,1,0,0,0,0,0,0,0,0,518,
scooby_state_449cc0|40|1 517,1,0,0,0,0,0,0,0,0,0,0,0,0,0,518,
scooby_state_44bb94|16|1 517,0,0,0,0,0,0,1,0,0,0,0,0,0,0,518,
scooby_state_449aa0|54|1 518,0,0,0,0,0,0,0,0,0,0,0,0,0,0,518,
scooby_state_44c950|12|1 518,0,0,0,0,0,0,0,0,0,0,0,0,0,0,518,
scooby_state_449aa0|45|1 517,0,0,0,1,0,0,0,0,0,0,0,0,0,0,518,
scooby_state_44c810|48|1 517,0,0,0,1,0,0,0,0,0,0,0,0,0,0,518,
scooby_state_449aa0|39|1 517,0,0,0,0,0,1,0,0,0,0,0,0,0,0,518,
scooby_state_44bb99|43|1 517,0,0,0,0,0,0,0,0,1,0,0,0,0,0,518,
scooby_state_44bb99|15|1 517,0,0,0,0,0,0,0,0,0,0,1,0,0,0,518,
scooby_state_455e00|58|1 518,0,0,0,0,0,0,0,0,0,0,0,0,0,0,518,
scooby_state_455e00|60|1 517,0,1,0,0,0,0,0,0,0,0,0,0,0,0,518,
scooby_state_449aa0|55|1 516,0,1,1,0,0,0,0,0,0,0,0,0,0,0,518,
scooby_state_449aa0|7|1 518,0,0,0,0,0,0,0,0,0,0,0,0,0,0,518,
scooby_state_44bb99|39|1 516,0,1,0,0,0,1,0,0,0,0,0,0,0,0,518,
scooby_state_455e00|61|1 517,0,0,0,0,0,0,0,0,0,1,0,0,0,0,518,
scooby_state_455e00|50|1 518,0,0,0,0,0,0,0,0,0,0,0,0,0,0,518,
scooby_state_44bb99|8|1 517,0,1,0,0,0,0,0,0,0,0,0,0,0,0,518,
scooby_state_44bb99|5|1 516,0,0,0,0,0,0,0,0,0,1,0,1,0,0,518,
scooby_state_44bb94|4|1 516,0,0,0,0,0,1,0,0,0,0,0,0,1,0,518,
scooby_state_44bb99|3|1 518,0,0,0,0,0,0,0,0,0,0,0,0,0,0,518,
scooby_state_449cc0|36|1 518,0,0,0,0,0,0,0,0,0,0,0,0,0,0,518,
scooby_state_44bb99|6|1 518,0,0,0,0,0,0,0,0,0,0,0,0,0,0,518,
scooby_state_449cdc|40|1 518,0,0,0,0,0,0,0,0,0,0,0,0,0,0,518,
scooby_state_449cc0|39|1 518,0,0,0,0,0,0,0,0,0,0,0,0,0,0,518,
scooby_state_449aa0|63|1 516,0,0,0,0,0,1,0,0,0,0,1,0,0,0,518,
scooby_state_44bb99|2|1 518,0,0,0,0,0,0,0,0,0,0,0,0,0,0,518,
scooby_state_44bb94|1|1 518,0,0,0,0,0,0,0,0,0,0,0,0,0,0,518,
scooby_state_449aa0|12|1 518,0,0,0,0,0,0,0,0,0,0,0,0,0,0,518,
scooby_state_44bb94|5|1 516,0,0,1,0,0,1,0,0,0,0,0,0,0,0,518,
scooby_state_44bb99|1|1 518,0,0,0,0,0,0,0,0,0,0,0,0,0,0,518,
scooby_state_44bb94|32|1 518,0,0,0,0,0,0,0,0,0,0,0,0,0,0,518,
scooby_state_449cc0|19|1 517,0,0,0,0,0,1,0,0,0,0,0,0,0,0,518,
scooby_state_455e00|0|0 518,0,0,0,0,0,0,0,0,0,0,0,0,0,0,518,
scooby_state_455e00|12|1 518,0,0,0,0,0,0,0,0,0,0,0,0,0,0,518,
scooby_state_44bb99|0|0 517,0,0,0,1,0,0,0,0,0,0,0,0,0,0,518,
scooby_state_449cc0|44|1 518,0,0,0,0,0,0,0,0,0,0,0,0,0,0,518,
scooby_state_44bb94|62|1 517,0,0,0,0,0,0,0,0,0,0,0,0,0,1,518,
scooby_state_449cc0|49|1 516,0,1,0,0,0,0,0,0,0,0,0,1,0,0,518,
scooby_state_44c950|4|1 514,0,1,0,0,0,0,0,0,0,0,2,1,0,0,518,
scooby_state_44bb94|7|1 518,0,0,0,0,0,0,0,0,0,0,0,0,0,0,518,
scooby_state_44bb94|11|1 515,0,0,1,0,0,1,0,0,0,0,0,0,0,1,518,
scooby_state_44bb99|11|1 516,0,0,1,0,0,0,0,0,1,0,0,0,0,0,518,
scooby_state_449cdc|21|1 518,0,0,0,0,0,0,0,0,0,0,0,0,0,0,518,
scooby_state_449aa4|2|1 518,0,0,0,0,0,0,0,0,0,0,0,0,0,0,518,
scooby_state_449cc0|20|1 518,0,0,0,0,0,0,0,0,0,0,0,0,0,0,518,
scooby_state_449cdc|23|1 518,0,0,0,0,0,0,0,0,0,0,0,0,0,0,518,
scooby_state_44bb94|9|1 517,0,0,1,0,0,0,0,0,0,0,0,0,0,0,518,
scooby_state_449cc0|21|1 518,0,0,0,0,0,0,0,0,0,0,0,0,0,0,518,
scooby_state_44c950|36|1 516,0,0,0,0,0,0,0,0,1,0,1,0,0,0,518,
scooby_state_449cc0|22|1 516,0,0,1,0,0,1,0,0,0,0,0,0,0,0,518,
scooby_state_44bb99|62|1 518,0,0,0,0,0,0,0,0,0,0,0,0,0,0,518,
scooby_state_449cc0|26|1 518,0,0,0,0,0,0,0,0,0,0,0,0,0,0,518,
scooby_state_44bb99|7|1 518,0,0,0,0,0,0,0,0,0,0,0,0,0,0,518,
scooby_state_44c950|24|1 518,0,0,0,0,0,0,0,0,0,0,0,0,0,0,518,
scooby_state_449cc0|28|1 516,0,0,0,0,0,0,0,0,0,0,1,1,0,0,518,
scooby_state_449cc0|34|1 516,0,0,1,0,1,0,0,0,0,0,0,0,0,0,518,
scooby_state_449cc0|29|1 518,0,0,0,0,0,0,0,0,0,0,0,0,0,0,518,
scooby_state_44bb94|6|1 515,0,1,0,0,1,0,0,0,0,0,0,1,0,0,518,
scooby_state_449cc0|30|1 518,0,0,0,0,0,0,0,0,0,0,0,0,0,0,518,
scooby_state_44c810|56|1 517,0,0,0,0,1,0,0,0,0,0,0,0,0,0,518,
scooby_state_455e00|48|1 516,0,0,0,0,1,1,0,0,0,0,0,0,0,0,518,
scooby_state_44c810|4|1 518,0,0,0,0,0,0,0,0,0,0,0,0,0,0,518,
scooby_state_44c810|1|1 517,0,0,1,0,0,0,0,0,0,0,0,0,0,0,518,
scooby_state_44bb94|44|1 516,0,0,0,0,0,0,0,0,0,0,0,1,0,1,518,
scooby_state_44bb94|55|1 516,0,0,1,0,0,0,0,1,0,0,0,0,0,0,518,
scooby_state_449aa4|26|1 518,0,0,0,0,0,0,0,0,0,0,0,0,0,0,518,
scooby_state_449aa0|41|1 517,0,0,0,0,0,0,1,0,0,0,0,0,0,0,518,
scooby_state_44bb99|54|1 515,0,0,0,0,0,0,0,0,2,0,0,0,1,0,518,
scooby_state_44c950|33|1 518,0,0,0,0,0,0,0,0,0,0,0,0,0,0,518,
scooby_state_44c950|54|1 517,0,0,0,1,0,0,0,0,0,0,0,0,0,0,518,
scooby_state_44bb94|53|1 517,1,0,0,0,0,0,0,0,0,0,0,0,0,0,518,
scooby_state_44bb99|53|1 516,0,0,0,0,0,0,1,1,0,0,0,0,0,0,518,
scooby_state_449aa4|55|1 517,0,1,0,0,0,0,0,0,0,0,0,0,0,0,518,
scooby_state_44bb99|56|1 517,0,1,0,0,0,0,0,0,0,0,0,0,0,0,518,
scooby_state_449cc0|56|1 516,0,0,1,0,0,0,0,0,0,0,0,1,0,0,518,
scooby_state_449cdc|8|1 515,0,0,0,0,1,0,0,1,0,0,0,0,1,0,518,
scooby_state_455e00|7|1 518,0,0,0,0,0,0,0,0,0,0,0,0,0,0,518,
scooby_state_44c810|36|1 516,0,0,0,0,0,1,0,1,0,0,0,0,0,0,518,
scooby_state_449cc0|38|1 518,0,0,0,0,0,0,0,0,0,0,0,0,0,0,518,
scooby_state_44bb99|51|1 518,0,0,0,0,0,0,0,0,0,0,0,0,0,0,518,
scooby_state_44bb94|50|1 517,0,0,0,0,0,0,0,0,0,0,0,0,1,0,518,
scooby_state_44c810|46|1 518,0,0,0,0,0,0,0,0,0,0,0,0,0,0,518,
scooby_state_44bb99|25|1 513,1,0,0,1,0,0,1,1,0,0,0,1,0,0,518,
scooby_state_44bb99|37|1 518,0,0,0,0,0,0,0,0,0,0,0,0,0,0,518,
scooby_state_44bb94|58|1 517,0,0,1,0,0,0,0,0,0,0,0,0,0,0,518,
scooby_state_44bb99|61|1 516,0,1,0,1,0,0,0,0,0,0,0,0,0,0,518,
scooby_state_44bb94|60|1 517,0,1,0,0,0,0,0,0,0,0,0,0,0,0,518,
scooby_state_44c810|6|1 517,0,0,0,0,0,0,1,0,0,0,0,0,0,0,518,
scooby_state_449cc0|52|1 518,0,0,0,0,0,0,0,0,0,0,0,0,0,0,518,
scooby_state_449cdc|13|1 517,0,0,0,0,0,0,0,0,0,0,0,0,1,0,518,
scooby_state_449cc0|10|1 517,1,0,0,0,0,0,0,0,0,0,0,0,0,0,518,
scooby_state_449cdc|60|1 518,0,0,0,0,0,0,0,0,0,0,0,0,0,0,518,
scooby_state_449cdc|61|1 518,0,0,0,0,0,0,0,0,0,0,0,0,0,0,518,
scooby_state_449aa0|40|1 517,0,0,0,0,0,0,0,0,1,0,0,0,0,0,518,
scooby_state_44bb99|59|1 517,0,0,0,1,0,0,0,0,0,0,0,0,0,0,518,
scooby_state_449cc0|17|1 518,0,0,0,0,0,0,0,0,0,0,0,0,0,0,518,
scooby_state_449aa4|5|1 517,0,0,0,0,0,0,0,0,0,0,1,0,0,0,518,
scooby_state_449cc0|61|1 518,0,0,0,0,0,0,0,0,0,0,0,0,0,0,518,
scooby_state_449cdc|63|1 517,0,0,0,0,0,0,0,0,0,1,0,0,0,0,518,
scooby_state_449cc0|62|1 515,0,1,0,0,0,1,0,0,0,0,0,1,0,0,518,
scooby_state_44bb99|57|1 516,0,0,0,0,0,0,0,0,0,1,0,0,1,0,518,
scooby_state_449cc0|63|1 517,0,1,0,0,0,0,0,0,0,0,0,0,0,0,518,
scooby_state_44bb94|56|1 518,0,0,0,0,0,0,0,0,0,0,0,0,0,0,518,
scooby_state_449cdc|1|1 515,0,1,0,1,0,0,0,0,0,1,0,0,0,0,518,
scooby_state_449cdc|2|1 518,0,0,0,0,0,0,0,0,0,0,0,0,0,0,518,
scooby_state_449cc0|9|1 518,0,0,0,0,0,0,0,0,0,0,0,0,0,0,518,
scooby_state_44c810|14|1 517,0,0,0,0,0,0,0,0,0,0,0,0,0,1,518,
scooby_state_449cdc|22|1 517,0,0,1,0,0,0,0,0,0,0,0,0,0,0,518,
scooby_state_44c950|42|1 517,0,0,0,0,0,0,0,1,0,0,0,0,0,0,518,
scooby_state_449aa0|30|1 517,0,0,0,0,1,0,0,0,0,0,0,0,0,0,518,
scooby_state_44c950|39|1 517,0,1,0,0,0,0,0,0,0,0,0,0,0,0,518,
scooby_state_44c810|10|1 518,0,0,0,0,0,0,0,0,0,0,0,0,0,0,518,
scooby_state_44c950|37|1 517,0,0,0,0,0,0,0,0,1,0,0,0,0,0,518,
scooby_state_44bb94|29|1 516,0,0,0,0,0,0,0,0,0,0,0,2,0,0,518,
scooby_state_449aa0|23|1 517,0,0,0,0,0,0,0,0,0,0,0,0,1,0,518,
scooby_state_449aa0|24|1 517,0,0,0,0,0,0,0,0,0,0,0,0,1,0,518,
scooby_state_44c950|35|1 517,0,0,0,0,0,0,0,0,0,0,0,0,1,0,518,
scooby_state_455e00|30|1 517,0,0,0,1,0,0,0,0,0,0,0,0,0,0,518,
scooby_state_455e00|36|1 518,0,0,0,0,0,0,0,0,0,0,0,0,0,0,518,
scooby_state_44c810|13|1 515,0,0,1,0,0,0,1,0,1,0,0,0,0,0,518,
scooby_state_44c810|9|1 518,0,0,0,0,0,0,0,0,0,0,0,0,0,0,518,
scooby_state_44c810|15|1 518,0,0,0,0,0,0,0,0,0,0,0,0,0,0,518,
scooby_state_44c950|34|1 518,0,0,0,0,0,0,0,0,0,0,0,0,0,0,518,
scooby_state_44bb99|21|1 517,0,0,0,0,0,0,0,0,0,0,1,0,0,0,518,
scooby_state_44c950|30|1 518,0,0,0,0,0,0,0,0,0,0,0,0,0,0,518,
scooby_state_44c810|17|1 517,0,0,0,0,0,0,0,0,0,0,0,1,0,0,518,
scooby_state_44c810|19|1 516,0,1,0,1,0,0,0,0,0,0,0,0,0,0,518,
scooby_state_455e00|6|1 516,1,0,0,0,0,0,0,0,0,0,0,0,0,1,518,
scooby_state_44c810|20|1 518,0,0,0,0,0,0,0,0,0,0,0,0,0,0,518,
scooby_state_44bb99|34|1 516,0,0,0,0,0,0,1,0,0,0,0,0,0,1,518,
scooby_state_44bb99|33|1 516,0,0,0,0,1,0,0,0,0,0,1,0,0,0,518,
scooby_state_44c950|29|1 518,0,0,0,0,0,0,0,0,0,0,0,0,0,0,518,
scooby_state_455e00|57|1 516,0,0,0,0,1,0,0,0,1,0,0,0,0,0,518,
scooby_state_44c810|63|1 518,0,0,0,0,0,0,0,0,0,0,0,0,0,0,518,
scooby_state_44c810|59|1 517,0,0,0,0,0,0,0,1,0,0,0,0,0,0,518,
scooby_state_44bb94|21|1 517,0,0,0,0,0,0,0,0,0,0,0,0,1,0,518,
scooby_state_44bb94|52|1 518,0,0,0,0,0,0,0,0,0,0,0,0,0,0,518,
scooby_state_449cc0|60|1 518,0,0,0,0,0,0,0,0,0,0,0,0,0,0,518,
scooby_state_44c810|60|1 518,0,0,0,0,0,0,0,0,0,0,0,0,0,0,518,
scooby_state_44c950|45|1 517,0,0,0,0,0,0,0,0,0,1,0,0,0,0,518,
scooby_state_44c810|5|1 517,1,0,0,0,0,0,0,0,0,0,0,0,0,0,518,
scooby_state_449aa4|50|1 518,0,0,0,0,0,0,0,0,0,0,0,0,0,0,518,
scooby_state_455e00|17|1 517,0,0,0,0,0,0,0,0,0,0,1,0,0,0,518,
scooby_state_44c810|61|1 518,0,0,0,0,0,0,0,0,0,0,0,0,0,0,518,
scooby_state_44c950|44|1 518,0,0,0,0,0,0,0,0,0,0,0,0,0,0,518,
scooby_state_44c810|62|1 517,0,0,0,0,0,0,0,0,0,0,0,0,1,0,518,
scooby_state_44bb94|0|-63 517,0,0,0,0,0,0,0,0,0,0,0,0,1,0,518,
scooby_state_455e00|11|1 518,0,0,0,0,0,0,0,0,0,0,0,0,0,0,518,
scooby_state_44bb99|50|1 517,0,0,0,0,0,0,0,0,0,0,1,0,0,0,518,
scooby_state_449cc0|57|1 517,0,1,0,0,0,0,0,0,0,0,0,0,0,0,518,
scooby_state_44c810|3|1 517,1,0,0,0,0,0,0,0,0,0,0,0,0,0,518,
scooby_state_449aa4|43|1 517,0,1,0,0,0,0,0,0,0,0,0,0,0,0,518,
scooby_state_449cc0|23|1 516,0,1,0,1,0,0,0,0,0,0,0,0,0,0,518,
scooby_state_449cc0|55|1 515,0,0,0,1,0,1,0,0,0,0,0,0,1,0,518,
scooby_state_44c810|7|1 518,0,0,0,0,0,0,0,0,0,0,0,0,0,0,518,
scooby_state_44c950|43|1 518,0,0,0,0,0,0,0,0,0,0,0,0,0,0,518,
scooby_state_44c810|8|1 517,0,0,0,0,0,0,0,0,0,0,0,0,0,1,518,
scooby_state_455e00|37|1 517,0,0,0,0,0,0,0,0,0,0,0,0,1,0,518,
scooby_state_449aa0|33|1 517,1,0,0,0,0,0,0,0,0,0,0,0,0,0,518,
scooby_state_44c950|5|1 517,0,0,0,0,0,0,0,0,0,0,0,0,0,1,518,
scooby_state_44c950|27|1 517,1,0,0,0,0,0,0,0,0,0,0,0,0,0,518,
scooby_state_44bb94|36|1 517,0,0,0,1,0,0,0,0,0,0,0,0,0,0,518,
scooby_state_455e00|55|1 518,0,0,0,0,0,0,0,0,0,0,0,0,0,0,518,
scooby_state_44c950|14|1 516,0,0,0,0,0,0,0,0,1,0,0,0,0,1,518,
scooby_state_44c950|18|1 518,0,0,0,0,0,0,0,0,0,0,0,0,0,0,518,
scooby_state_44c950|19|1 518,0,0,0,0,0,0,0,0,0,0,0,0,0,0,518,
scooby_state_449aa0|49|1 518,0,0,0,0,0,0,0,0,0,0,0,0,0,0,518,
scooby_state_44c810|40|1 515,0,0,0,0,0,1,0,0,0,0,2,0,0,0,518,
scooby_state_44c950|21|1 517,0,0,0,0,0,0,0,0,0,0,0,0,1,0,518,
scooby_state_449aa0|8|1 517,1,0,0,0,0,0,0,0,0,0,0,0,0,0,518,
scooby_state_449cc0|50|1 515,0,0,2,0,0,0,0,0,1,0,0,0,0,0,518,
scooby_state_449cc0|43|1 517,0,0,1,0,0,0,0,0,0,0,0,0,0,0,518,
scooby_state_449aa0|58|1 518,0,0,0,0,0,0,0,0,0,0,0,0,0,0,518,
scooby_state_449aa0|50|1 518,0,0,0,0,0,0,0,0,0,0,0,0,0,0,518,
scooby_state_44c810|16|1 518,0,0,0,0,0,0,0,0,0,0,0,0,0,0,518,
scooby_state_449cc0|18|1 517,1,0,0,0,0,0,0,0,0,0,0,0,0,0,518,
scooby_state_44c950|26|1 516,0,0,0,0,0,0,1,0,0,0,0,0,1,0,518,
scooby_state_449aa4|49|1 518,0,0,0,0,0,0,0,0,0,0,0,0,0,0,518,
scooby_state_449cc0|54|1 517,0,0,0,0,0,0,0,0,0,0,1,0,0,0,518,
scooby_state_455e00|22|1 518,0,0,0,0,0,0,0,0,0,0,0,0,0,0,518,
scooby_state_449aa0|61|1 518,0,0,0,0,0,0,0,0,0,0,0,0,0,0,518,
scooby_state_449aa0|4|1 518,0,0,0,0,0,0,0,0,0,0,0,0,0,0,518,
scooby_state_44c950|25|1 518,0,0,0,0,0,0,0,0,0,0,0,0,0,0,518,
scooby_state_44c950|22|1 518,0,0,0,0,0,0,0,0,0,0,0,0,0,0,518,
scooby_state_455e00|13|1 518,0,0,0,0,0,0,0,0,0,0,0,0,0,0,518,
scooby_state_44c950|23|1 518,0,0,0,0,0,0,0,0,0,0,0,0,0,0,518,
scooby_state_449aa4|1|1 517,0,0,0,0,0,0,0,1,0,0,0,0,0,0,518,
scooby_state_44bb94|33|1 517,0,0,0,0,0,0,0,1,0,0,0,0,0,0,518,
scooby_state_44bb99|18|1 518,0,0,0,0,0,0,0,0,0,0,0,0,0,0,518,
scooby_state_449aa4|38|1 516,0,0,0,0,0,1,0,0,0,0,0,1,0,0,518,
scooby_state_44c950|1|1 517,0,0,0,0,0,0,0,1,0,0,0,0,0,0,518,
scooby_state_44c810|0|0 516,0,0,0,0,0,0,1,0,0,0,1,0,0,0,518,
scooby_state_44bb99|47|1 517,0,0,0,0,0,0,0,0,0,0,0,1,0,0,518,
scooby_state_44c950|63|1 517,1,0,0,0,0,0,0,0,0,0,0,0,0,0,518,
scooby_state_44bb99|41|1 517,0,0,0,0,0,1,0,0,0,0,0,0,0,0,518,
scooby_state_44c950|2|1 518,0,0,0,0,0,0,0,0,0,0,0,0,0,0,518,
scooby_state_44c950|3|1 517,0,0,0,0,0,0,0,0,0,0,1,0,0,0,518,
scooby_state_449aa4|25|1 517,0,0,0,0,0,0,1,0,0,0,0,0,0,0,518,
scooby_state_44bb99|52|1 518,0,0,0,0,0,0,0,0,0,0,0,0,0,0,518,
scooby_state_44c950|16|1 517,0,0,0,0,0,0,0,0,0,0,0,1,0,0,518,
scooby_state_44c950|7|1 517,0,0,1,0,0,0,0,0,0,0,0,0,0,0,518,
scooby_state_44c950|46|1 518,0,0,0,0,0,0,0,0,0,0,0,0,0,0,518,
scooby_state_449cc0|31|1 516,0,0,0,0,0,0,0,0,0,1,1,0,0,0,518,
scooby_state_455e00|21|1 517,0,0,1,0,0,0,0,0,0,0,0,0,0,0,518,
scooby_state_449cc0|33|1 516,0,0,0,0,0,0,0,0,1,0,0,0,0,1,518,
scooby_state_44bb99|32|1 518,0,0,0,0,0,0,0,0,0,0,0,0,0,0,518,
scooby_state_449aa4|12|1 516,0,1,0,0,0,0,0,0,1,0,0,0,0,0,518,
scooby_state_44bb94|27|1 517,0,0,0,0,0,0,0,0,0,0,1,0,0,0,518,
scooby_state_44bb99|42|1 518,0,0,0,0,0,0,0,0,0,0,0,0,0,0,518,
scooby_state_44c950|9|1 516,0,0,0,0,0,0,1,0,0,0,0,0,1,0,518,
scooby_state_44c950|13|1 518,0,0,0,0,0,0,0,0,0,0,0,0,0,0,518,
scooby_state_449cc0|25|1 517,0,0,0,1,0,0,0,0,0,0,0,0,0,0,518,
scooby_state_44bb94|38|1 517,0,0,0,0,0,0,0,0,0,0,0,0,1,0,518,
scooby_state_44bb99|60|1 511,1,0,1,1,0,0,1,1,1,1,0,0,0,0,518,
scooby_state_449aa4|63|1 517,0,0,0,0,0,0,0,0,0,0,0,0,0,1,518,
scooby_state_449aa0|10|1 515,0,1,1,1,0,0,0,0,0,0,0,0,0,0,518,
scooby_state_44c810|42|1 516,0,0,0,1,0,0,0,0,0,1,0,0,0,0,518,
scooby_state_449aa0|26|1 517,0,0,0,0,0,0,0,1,0,0,0,0,0,0,518,
scooby_state_44c810|57|1 515,1,0,0,0,0,0,0,0,0,0,0,1,1,0,518,
scooby_state_44bb99|46|1 518,0,0,0,0,0,0,0,0,0,0,0,0,0,0,518,
scooby_state_455e00|34|1 517,0,0,0,0,0,0,0,0,0,0,0,0,1,0,518,
scooby_state_449aa0|16|1 518,0,0,0,0,0,0,0,0,0,0,0,0,0,0,518,
scooby_state_449cc0|32|1 517,0,0,0,0,0,0,0,0,0,0,0,0,1,0,518,
scooby_state_455e00|19|1 518,0,0,0,0,0,0,0,0,0,0,0,0,0,0,518,
scooby_state_44c950|60|1 518,0,0,0,0,0,0,0,0,0,0,0,0,0,0,518,
scooby_state_455e00|40|1 516,0,0,0,0,0,1,0,0,0,1,0,0,0,0,518,
scooby_state_449aa4|52|1 517,0,0,0,0,0,0,0,0,0,1,0,0,0,0,518,
scooby_state_449aa0|52|1 516,0,0,1,0,0,0,0,0,0,1,0,0,0,0,518,
scooby_state_449aa0|5|1 518,0,0,0,0,0,0,0,0,0,0,0,0,0,0,518,
scooby_state_449cc0|11|1 518,0,0,0,0,0,0,0,0,0,0,0,0,0,0,518,
scooby_state_455e00|45|1 516,0,0,0,0,0,0,1,1,0,0,0,0,0,0,518,
scooby_state_449aa4|23|1 517,0,0,0,0,0,0,0,1,0,0,0,0,0,0,518,
scooby_state_44bb94|51|1 517,0,0,0,0,0,0,0,0,1,0,0,0,0,0,518,
scooby_state_455e00|9|1 517,0,0,1,0,0,0,0,0,0,0,0,0,0,0,518,
scooby_state_44c810|23|1 517,0,0,0,0,0,0,0,0,0,0,0,0,0,1,518,
scooby_state_44c810|26|1 518,0,0,0,0,0,0,0,0,0,0,0,0,0,0,518,
scooby_state_44c810|27|1 517,0,0,0,0,0,1,0,0,0,0,0,0,0,0,518,
scooby_state_44c810|30|1 517,0,0,0,0,1,0,0,0,0,0,0,0,0,0,518,
scooby_state_449aa4|34|1 518,0,0,0,0,0,0,0,0,0,0,0,0,0,0,518,
scooby_state_44bb99|45|1 518,0,0,0,0,0,0,0,0,0,0,0,0,0,0,518,
scooby_state_44bb99|48|1 518,0,0,0,0,0,0,0,0,0,0,0,0,0,0,518,
scooby_state_455e00|27|1 517,0,0,0,0,0,0,0,0,0,0,0,1,0,0,518,
scooby_state_44bb94|41|1 518,0,0,0,0,0,0,0,0,0,0,0,0,0,0,518,
scooby_state_449aa0|34|1 517,0,0,0,0,0,0,0,0,0,1,0,0,0,0,518,
scooby_state_44bb99|17|1 518,0,0,0,0,0,0,0,0,0,0,0,0,0,0,518,
scooby_state_449aa0|38|1 518,0,0,0,0,0,0,0,0,0,0,0,0,0,0,518,
scooby_state_449aa0|19|1 518,0,0,0,0,0,0,0,0,0,0,0,0,0,0,518,
scooby_state_449aa4|13|1 518,0,0,0,0,0,0,0,0,0,0,0,0,0,0,518,
scooby_state_449aa0|11|1 517,0,1,0,0,0,0,0,0,0,0,0,0,0,0,518,
scooby_state_455e00|49|1 518,0,0,0,0,0,0,0,0,0,0,0,0,0,0,518,
scooby_state_44bb94|20|1 518,0,0,0,0,0,0,0,0,0,0,0,0,0,0,518,
scooby_state_44bb94|17|1 518,0,0,0,0,0,0,0,0,0,0,0,0,0,0,518,
scooby_state_44c950|31|1 517,1,0,0,0,0,0,0,0,0,0,0,0,0,0,518,
scooby_state_449aa0|44|1 517,0,0,0,0,0,0,0,0,0,0,0,0,1,0,518,
scooby_state_44c950|32|1 518,0,0,0,0,0,0,0,0,0,0,0,0,0,0,518,
scooby_state_44c950|40|1 517,0,0,0,0,0,1,0,0,0,0,0,0,0,0,518,
scooby_state_449aa0|6|1 516,0,0,0,0,1,0,0,0,0,1,0,0,0,0,518,
scooby_state_44c810|43|1 518,0,0,0,0,0,0,0,0,0,0,0,0,0,0,518,
scooby_state_449cc0|27|1 518,0,0,0,0,0,0,0,0,0,0,0,0,0,0,518,
scooby_state_44bb94|23|1 518,0,0,0,0,0,0,0,0,0,0,0,0,0,0,518,
scooby_state_44c810|28|1 517,0,0,0,1,0,0,0,0,0,0,0,0,0,0,518,
scooby_state_44bb99|30|1 518,0,0,0,0,0,0,0,0,0,0,0,0,0,0,518,
scooby_state_44c810|25|1 518,0,0,0,0,0,0,0,0,0,0,0,0,0,0,518,
scooby_state_449cc0|45|1 518,0,0,0,0,0,0,0,0,0,0,0,0,0,0,518,
scooby_state_455e00|29|1 518,0,0,0,0,0,0,0,0,0,0,0,0,0,0,518,
scooby_state_44bb94|26|1 516,0,0,1,0,0,0,1,0,0,0,0,0,0,0,518,
scooby_state_44c810|58|1 516,0,0,0,0,1,0,0,0,0,0,0,0,0,1,518,
scooby_state_44c810|47|1 517,0,0,0,0,0,0,0,0,0,0,0,0,1,0,518,
scooby_state_44c950|28|1 517,0,0,0,0,0,0,0,0,0,0,0,1,0,0,518,
scooby_state_44bb99|44|1 518,0,0,0,0,0,0,0,0,0,0,0,0,0,0,518,
scooby_state_44c810|49|1 517,1,0,0,0,0,0,0,0,0,0,0,0,0,0,518,
scooby_state_44c810|50|1 516,0,0,0,0,1,0,1,0,0,0,0,0,0,0,518,
scooby_state_44c810|51|1 518,0,0,0,0,0,0,0,0,0,0,0,0,0,0,518,
scooby_state_44bb99|4|1 517,0,0,0,0,1,0,0,0,0,0,0,0,0,0,518,
scooby_state_44bb94|43|1 518,0,0,0,0,0,0,0,0,0,0,0,0,0,0,518,
scooby_state_44c810|54|1 517,0,0,0,0,0,0,0,0,0,0,0,0,1,0,518,
scooby_state_449aa0|17|1 516,0,0,0,0,0,0,1,0,1,0,0,0,0,0,518,
scooby_state_44c810|55|1 517,0,0,0,0,0,0,0,0,1,0,0,0,0,0,518,
scooby_state_455e00|35|1 518,0,0,0,0,0,0,0,0,0,0,0,0,0,0,518,
scooby_state_44c810|45|1 517,0,0,0,0,0,0,1,0,0,0,0,0,0,0,518,
scooby_state_44bb94|49|1 516,0,0,0,0,0,0,0,0,0,0,1,0,0,1,518,
scooby_state_44c950|53|1 517,0,0,0,0,0,0,1,0,0,0,0,0,0,0,518,
scooby_state_44c950|52|1 518,0,0,0,0,0,0,0,0,0,0,0,0,0,0,518,
scooby_state_44bb99|49|1 518,0,0,0,0,0,0,0,0,0,0,0,0,0,0,518,
scooby_state_449aa4|3|1 518,0,0,0,0,0,0,0,0,0,0,0,0,0,0,518,
scooby_state_455e00|42|1 518,0,0,0,0,0,0,0,0,0,0,0,0,0,0,518,
scooby_state_449aa0|9|1 517,0,0,0,0,0,0,0,0,0,0,0,1,0,0,518,
scooby_state_455e00|41|1 518,0,0,0,0,0,0,0,0,0,0,0,0,0,0,518,
scooby_state_44c950|49|1 517,0,0,0,0,0,0,0,1,0,0,0,0,0,0,518,
scooby_state_449aa4|24|1 517,0,1,0,0,0,0,0,0,0,0,0,0,0,0,518,
scooby_state_44c950|48|1 518,0,0,0,0,0,0,0,0,0,0,0,0,0,0,518,
scooby_state_44c810|38|1 518,0,0,0,0,0,0,0,0,0,0,0,0,0,0,518,
scooby_state_44c810|32|1 518,0,0,0,0,0,0,0,0,0,0,0,0,0,0,518,
scooby_state_44bb99|27|1 518,0,0,0,0,0,0,0,0,0,0,0,0,0,0,518,
scooby_state_449aa0|13|1 517,0,0,0,0,0,0,0,0,0,0,0,0,1,0,518,
scooby_state_44c810|34|1 518,0,0,0,0,0,0,0,0,0,0,0,0,0,0,518,
scooby_state_44bb99|38|1 517,0,0,0,0,0,0,0,0,1,0,0,0,0,0,518,
scooby_state_449cc0|42|1 518,0,0,0,0,0,0,0,0,0,0,0,0,0,0,518,
scooby_state_44c810|35|1 518,0,0,0,0,0,0,0,0,0,0,0,0,0,0,518,
scooby_state_44c810|37|1 517,0,0,0,0,0,0,0,0,0,0,0,0,1,0,518,
scooby_state_44c950|15|1 517,0,0,0,0,0,1,0,0,0,0,0,0,0,0,518,
scooby_state_44bb99|55|1 518,0,0,0,0,0,0,0,0,0,0,0,0,0,0,518,
scooby_state_44c810|41|1 517,0,0,0,0,0,0,0,0,1,0,0,0,0,0,518,
scooby_state_449aa0|32|1 516,0,1,0,0,0,0,1,0,0,0,0,0,0,0,518,
scooby_state_455e00|38|1 518,0,0,0,0,0,0,0,0,0,0,0,0,0,0,518,
scooby_state_44bb94|46|1 518,0,0,0,0,0,0,0,0,0,0,0,0,0,0,518,
scooby_state_44c810|22|1 517,0,0,0,0,0,1,0,0,0,0,0,0,0,0,518,
scooby_state_44c810|31|1 518,0,0,0,0,0,0,0,0,0,0,0,0,0,0,518,
scooby_state_44bb94|39|1 517,0,0,0,0,1,0,0,0,0,0,0,0,0,0,518,
scooby_state_44bb94|61|1 517,0,0,0,0,0,0,0,0,0,1,0,0,0,0,518,
scooby_state_44bb94|13|1 517,0,0,0,0,0,0,0,0,0,0,0,0,0,1,518,
scooby_state_44c950|58|1 518,0,0,0,0,0,0,0,0,0,0,0,0,0,0,518,
scooby_state_44c810|39|1 516,0,0,0,1,0,0,0,0,0,0,0,1,0,0,518,
scooby_state_4550dc|14|1 516,0,0,0,1,0,0,0,0,0,0,0,0,0,0,517,
scooby_state_455113|17|1 516,0,0,0,0,0,0,0,0,0,1,0,0,0,0,517,
scooby_state_449ef0|44|1 516,0,0,0,0,0,0,0,0,0,0,0,1,0,0,517,
scooby_state_449aa4|31|1 515,0,0,1,0,0,0,0,0,0,0,0,1,0,0,517,
scooby_state_449cdc|12|1 517,0,0,0,0,0,0,0,0,0,0,0,0,0,0,517,
scooby_state_449aa4|21|1 517,0,0,0,0,0,0,0,0,0,0,0,0,0,0,517,
scooby_state_4550e2|45|1 515,0,0,0,0,0,1,0,0,1,0,0,0,0,0,517,
scooby_state_449cdc|9|1 517,0,0,0,0,0,0,0,0,0,0,0,0,0,0,517,
scooby_state_449ef0|28|1 517,0,0,0,0,0,0,0,0,0,0,0,0,0,0,517,
scooby_state_455f30|59|1 514,0,0,1,0,0,0,1,0,0,0,0,1,0,0,517,
scooby_state_4550e2|37|1 516,0,0,0,0,0,0,1,0,0,0,0,0,0,0,517,
scooby_state_449cdc|56|1 517,0,0,0,0,0,0,0,0,0,0,0,0,0,0,517,
scooby_state_4550e2|1|1 517,0,0,0,0,0,0,0,0,0,0,0,0,0,0,517,
scooby_state_4550dc|23|1 516,0,0,0,0,0,0,0,0,0,0,0,1,0,0,517,
scooby_state_4550dc|61|1 517,0,0,0,0,0,0,0,0,0,0,0,0,0,0,517,
scooby_state_4550e2|42|1 515,0,0,1,0,0,0,0,0,0,0,1,0,0,0,517,
scooby_state_455f30|13|1 517,0,0,0,0,0,0,0,0,0,0,0,0,0,0,517,
scooby_state_455f30|60|1 516,0,0,0,0,0,0,0,0,0,0,1,0,0,0,517,
scooby_state_455f30|23|1 516,0,0,0,1,0,0,0,0,0,0,0,0,0,0,517,
scooby_state_455f30|32|1 517,0,0,0,0,0,0,0,0,0,0,0,0,0,0,517,
scooby_state_455f30|31|1 517,0,0,0,0,0,0,0,0,0,0,0,0,0,0,517,
scooby_state_4550fa|20|1 514,0,2,0,0,0,0,0,0,0,0,0,1,0,0,517,
scooby_state_4550dc|38|1 516,0,0,0,0,0,1,0,0,0,0,0,0,0,0,517,
scooby_state_4550f4|17|1 517,0,0,0,0,0,0,0,0,0,0,0,0,0,0,517,
scooby_state_449ef0|17|1 515,0,0,1,0,0,0,0,0,0,0,1,0,0,0,517,
scooby_state_455113|25|1 515,0,0,0,0,0,0,0,0,0,0,2,0,0,0,517,
scooby_state_449ef0|43|1 516,1,0,0,0,0,0,0,0,0,0,0,0,0,0,517,
scooby_state_4550f4|35|1 516,0,0,0,0,0,0,0,0,0,0,0,1,0,0,517,
scooby_state_449f0a|7|1 516,0,0,0,1,0,0,0,0,0,0,0,0,0,0,517,
scooby_state_455113|58|1 515,0,0,0,0,0,0,0,1,0,0,0,0,1,0,517,
scooby_state_4550e2|43|1 517,0,0,0,0,0,0,0,0,0,0,0,0,0,0,517,
scooby_state_4550fa|28|1 516,0,0,0,0,0,0,1,0,0,0,0,0,0,0,517,
scooby_state_455113|31|1 515,0,0,0,0,0,0,1,0,0,0,0,1,0,0,517,
scooby_state_4550dc|44|1 517,0,0,0,0,0,0,0,0,0,0,0,0,0,0,517,
scooby_state_4550f4|31|1 517,0,0,0,0,0,0,0,0,0,0,0,0,0,0,517,
scooby_state_455f30|36|1 517,0,0,0,0,0,0,0,0,0,0,0,0,0,0,517,
scooby_state_4550fa|63|1 515,0,1,0,0,0,0,0,0,0,0,1,0,0,0,517,
scooby_state_4550f4|26|1 516,0,0,0,0,0,0,0,0,0,0,1,0,0,0,517,
scooby_state_449ef0|42|1 517,0,0,0,0,0,0,0,0,0,0,0,0,0,0,517,
scooby_state_449aa4|8|1 517,0,0,0,0,0,0,0,0,0,0,0,0,0,0,517,
scooby_state_449ef0|19|1 517,0,0,0,0,0,0,0,0,0,0,0,0,0,0,517,
scooby_state_4550dc|54|1 515,0,0,1,0,1,0,0,0,0,0,0,0,0,0,517,
scooby_state_4550f4|56|1 515,0,0,1,1,0,0,0,0,0,0,0,0,0,0,517,
scooby_state_449ef0|52|1 516,0,1,0,0,0,0,0,0,0,0,0,0,0,0,517,
scooby_state_4550dc|32|1 516,0,0,0,0,1,0,0,0,0,0,0,0,0,0,517,
scooby_state_449ef0|3|1 517,0,0,0,0,0,0,0,0,0,0,0,0,0,0,517,
scooby_state_4550fa|60|1 515,0,0,0,0,0,0,0,0,0,0,1,0,1,0,517,
scooby_state_4550fa|42|1 517,0,0,0,0,0,0,0,0,0,0,0,0,0,0,517,
scooby_state_4550dc|26|1 514,0,0,0,0,0,0,0,0,0,0,1,1,0,1,517,
scooby_state_455113|59|1 515,0,0,0,0,0,1,0,0,1,0,0,0,0,0,517,
scooby_state_4550e2|5|1 515,0,0,0,1,0,0,0,0,1,0,0,0,0,0,517,
scooby_state_455113|30|1 517,0,0,0,0,0,0,0,0,0,0,0,0,0,0,517,
scooby_state_449cdc|53|1 514,0,1,1,0,0,0,0,0,0,0,0,0,0,1,517,
scooby_state_449ef0|46|1 515,0,0,0,0,1,0,0,0,1,0,0,0,0,0,517,
scooby_state_4550f4|50|1 516,0,0,0,0,0,0,0,0,0,0,0,0,1,0,517,
scooby_state_4550fa|53|1 517,0,0,0,0,0,0,0,0,0,0,0,0,0,0,517,
scooby_state_4550dc|60|1 516,0,0,0,0,0,0,0,0,1,0,0,0,0,0,517,
scooby_state_449ef0|23|1 516,0,0,0,0,0,0,0,0,1,0,0,0,0,0,517,
scooby_state_455f30|47|1 517,0,0,0,0,0,0,0,0,0,0,0,0,0,0,517,
scooby_state_449aa4|39|1 516,1,0,0,0,0,0,0,0,0,0,0,0,0,0,517,
scooby_state_4550fa|57|1 515,0,0,0,0,1,0,0,0,0,1,0,0,0,0,517,
scooby_state_455113|50|1 517,0,0,0,0,0,0,0,0,0,0,0,0,0,0,517,
scooby_state_455113|13|1 516,0,0,0,0,0,0,1,0,0,0,0,0,0,0,517,
scooby_state_4550f4|44|1 516,0,0,0,0,0,0,0,0,0,0,0,0,0,1,517,
scooby_state_4550dc|15|1 516,0,0,0,0,0,0,0,1,0,0,0,0,0,0,517,
scooby_state_4550f4|61|1 516,0,0,0,0,0,0,0,0,0,0,1,0,0,0,517,
scooby_state_44bb99|29|1 517,0,0,0,0,0,0,0,0,0,0,0,0,0,0,517,
scooby_state_455113|39|1 517,0,0,0,0,0,0,0,0,0,0,0,0,0,0,517,
scooby_state_4550f4|52|1 516,0,0,1,0,0,0,0,0,0,0,0,0,0,0,517,
scooby_state_4550dc|50|1 515,0,0,0,0,0,0,0,0,1,0,1,0,0,0,517,
scooby_state_4550fa|24|1 515,1,0,0,0,0,1,0,0,0,0,0,0,0,0,517,
scooby_state_455113|28|1 516,0,0,0,1,0,0,0,0,0,0,0,0,0,0,517,
scooby_state_4550e2|23|1 516,0,0,0,0,0,0,0,1,0,0,0,0,0,0,517,
scooby_state_4550e2|56|1 515,0,0,0,0,0,0,0,0,1,0,1,0,0,0,517,
scooby_state_4550e2|53|1 516,0,0,0,0,0,0,0,0,1,0,0,0,0,0,517,
scooby_state_455f30|63|1 516,0,0,0,0,0,0,0,0,0,0,0,1,0,0,517,
scooby_state_4550f4|36|1 517,0,0,0,0,0,0,0,0,0,0,0,0,0,0,517,
scooby_state_4550f4|6|1 517,0,0,0,0,0,0,0,0,0,0,0,0,0,0,517,
scooby_state_4550f4|53|1 515,2,0,0,0,0,0,0,0,0,0,0,0,0,0,517,
scooby_state_4550f4|47|1 516,0,0,1,0,0,0,0,0,0,0,0,0,0,0,517,
scooby_state_455f30|26|1 516,0,0,0,0,0,0,0,0,1,0,0,0,0,0,517,
scooby_state_455113|48|1 516,0,0,0,0,0,0,0,0,0,0,0,1,0,0,517,
scooby_state_455f30|54|1 517,0,0,0,0,0,0,0,0,0,0,0,0,0,0,517,
scooby_state_4550dc|27|1 517,0,0,0,0,0,0,0,0,0,0,0,0,0,0,517,
scooby_state_4550f4|0|0 517,0,0,0,0,0,0,0,0,0,0,0,0,0,0,517,
scooby_state_455f30|50|1 516,0,0,0,0,0,0,0,0,0,0,0,1,0,0,517,
scooby_state_455113|33|1 517,0,0,0,0,0,0,0,0,0,0,0,0,0,0,517,
scooby_state_44c810|21|1 516,0,0,0,0,0,0,0,0,1,0,0,0,0,0,517,
scooby_state_455113|18|1 513,0,0,0,1,0,0,0,1,0,1,0,0,0,1,517,
scooby_state_4550f4|54|1 515,0,0,1,0,0,0,0,0,0,0,0,0,1,0,517,
scooby_state_4550dc|33|1 516,0,0,0,0,0,0,1,0,0,0,0,0,0,0,517,
scooby_state_4550e2|40|1 516,0,0,0,0,0,0,0,0,0,0,0,0,0,1,517,
scooby_state_4550dc|41|1 517,0,0,0,0,0,0,0,0,0,0,0,0,0,0,517,
scooby_state_449cdc|46|1 515,0,0,0,0,0,1,0,0,0,0,0,0,1,0,517,
scooby_state_4550e2|47|1 517,0,0,0,0,0,0,0,0,0,0,0,0,0,0,517,
scooby_state_455f30|2|1 514,0,0,0,0,1,0,1,0,0,1,0,0,0,0,517,
scooby_state_4550fa|33|1 516,0,0,0,0,0,0,0,1,0,0,0,0,0,0,517,
scooby_state_4550fa|4|1 516,0,0,1,0,0,0,0,0,0,0,0,0,0,0,517,
scooby_state_449ef0|1|1 517,0,0,0,0,0,0,0,0,0,0,0,0,0,0,517,
scooby_state_4550f4|25|1 516,0,0,0,0,0,0,0,0,0,0,0,1,0,0,517,
scooby_state_455113|12|1 517,0,0,0,0,0,0,0,0,0,0,0,0,0,0,517,
scooby_state_455f30|39|1 516,0,1,0,0,0,0,0,0,0,0,0,0,0,0,517,
scooby_state_455f30|41|1 516,0,0,0,0,0,0,0,0,0,0,1,0,0,0,517,
scooby_state_4550fa|46|1 516,0,0,1,0,0,0,0,0,0,0,0,0,0,0,517,
scooby_state_455113|26|1 516,0,0,0,1,0,0,0,0,0,0,0,0,0,0,517,
scooby_state_449ef0|58|1 517,0,0,0,0,0,0,0,0,0,0,0,0,0,0,517,
scooby_state_455113|63|1 516,0,1,0,0,0,0,0,0,0,0,0,0,0,0,517,
scooby_state_4550fa|59|1 517,0,0,0,0,0,0,0,0,0,0,0,0,0,0,517,
scooby_state_449f0a|8|1 517,0,0,0,0,0,0,0,0,0,0,0,0,0,0,517,
scooby_state_4550dc|24|1 516,0,0,0,0,0,0,0,0,0,0,0,0,0,1,517,
scooby_state_449ef0|8|1 517,0,0,0,0,0,0,0,0,0,0,0,0,0,0,517,
scooby_state_449ef0|9|1 516,0,0,0,0,0,0,0,0,0,0,0,0,0,1,517,
scooby_state_455f30|16|1 516,0,0,0,0,0,0,0,0,0,0,1,0,0,0,517,
scooby_state_455f30|11|1 516,0,1,0,0,0,0,0,0,0,0,0,0,0,0,517,
scooby_state_4550f4|59|1 516,0,0,0,0,0,0,0,0,0,1,0,0,0,0,517,
scooby_state_4550e2|58|1 517,0,0,0,0,0,0,0,0,0,0,0,0,0,0,517,
scooby_state_4550dc|39|1 517,0,0,0,0,0,0,0,0,0,0,0,0,0,0,517,
scooby_state_449ef0|40|1 515,0,0,0,1,1,0,0,0,0,0,0,0,0,0,517,
scooby_state_449f0a|5|1 516,0,0,0,0,0,0,0,1,0,0,0,0,0,0,517,
scooby_state_455f30|20|1 517,0,0,0,0,0,0,0,0,0,0,0,0,0,0,517,
scooby_state_455f30|6|1 516,0,0,0,0,0,0,0,0,1,0,0,0,0,0,517,
scooby_state_455f30|9|1 516,0,1,0,0,0,0,0,0,0,0,0,0,0,0,517,
scooby_state_4550dc|55|1 516,0,0,1,0,0,0,0,0,0,0,0,0,0,0,517,
scooby_state_449ef0|60|1 514,1,1,0,0,0,0,0,0,0,0,0,1,0,0,517,
scooby_state_449ef0|38|1 517,0,0,0,0,0,0,0,0,0,0,0,0,0,0,517,
scooby_state_449ef0|10|1 517,0,0,0,0,0,0,0,0,0,0,0,0,0,0,517,
scooby_state_455f30|49|1 517,0,0,0,0,0,0,0,0,0,0,0,0,0,0,517,
scooby_state_449ef0|37|1 516,0,0,0,0,0,0,0,1,0,0,0,0,0,0,517,
scooby_state_455f30|62|1 517,0,0,0,0,0,0,0,0,0,0,0,0,0,0,517,
scooby_state_4550dc|12|1 516,0,0,0,0,1,0,0,0,0,0,0,0,0,0,517,
scooby_state_449ef0|50|1 515,0,0,0,0,0,0,0,0,0,0,0,1,1,0,517,
scooby_state_455f30|43|1 515,0,0,0,0,0,0,1,0,0,0,0,0,1,0,517,
scooby_state_449ef0|4|1 516,0,0,0,0,0,0,0,1,0,0,0,0,0,0,517,
scooby_state_455f30|35|1 517,0,0,0,0,0,0,0,0,0,0,0,0,0,0,517,
scooby_state_4550dc|42|1 516,0,0,0,0,0,0,0,0,0,0,0,0,0,1,517,
scooby_state_455f30|30|1 517,0,0,0,0,0,0,0,0,0,0,0,0,0,0,517,
scooby_state_449ef0|51|1 516,0,0,0,0,0,0,0,1,0,0,0,0,0,0,517,
scooby_state_455f30|25|1 515,1,0,0,0,0,0,0,0,0,0,0,0,0,1,517,
scooby_state_4550fa|38|1 516,0,0,0,0,0,0,0,0,0,0,0,0,1,0,517,
scooby_state_455f30|24|1 517,0,0,0,0,0,0,0,0,0,0,0,0,0,0,517,
scooby_state_455f30|0|0 517,0,0,0,0,0,0,0,0,0,0,0,0,0,0,517,
scooby_state_455f30|58|1 517,0,0,0,0,0,0,0,0,0,0,0,0,0,0,517,
scooby_state_4550f4|51|1 517,0,0,0,0,0,0,0,0,0,0,0,0,0,0,517,
scooby_state_4550f4|46|1 515,0,0,0,0,0,0,0,0,1,0,0,0,1,0,517,
scooby_state_449ef0|48|1 517,0,0,0,0,0,0,0,0,0,0,0,0,0,0,517,
scooby_state_449f0a|9|1 517,0,0,0,0,0,0,0,0,0,0,0,0,0,0,517,
scooby_state_4550e2|30|1 516,1,0,0,0,0,0,0,0,0,0,0,0,0,0,517,
scooby_state_455f30|21|1 516,0,0,0,0,0,0,0,0,0,0,0,1,0,0,517,
scooby_state_455113|7|1 516,0,0,1,0,0,0,0,0,0,0,0,0,0,0,517,
scooby_state_4550fa|50|1 517,0,0,0,0,0,0,0,0,0,0,0,0,0,0,517,
scooby_state_4550fa|31|1 514,1,0,0,0,0,0,0,0,0,0,0,1,1,0,517,
scooby_state_455113|24|1 517,0,0,0,0,0,0,0,0,0,0,0,0,0,0,517,
scooby_state_455f30|53|1 514,0,0,0,0,0,0,0,0,0,0,1,0,1,1,517,
scooby_state_449aa4|44|1 516,0,0,0,1,0,0,0,0,0,0,0,0,0,0,517,
scooby_state_455113|10|1 517,0,0,0,0,0,0,0,0,0,0,0,0,0,0,517,
scooby_state_449ef0|14|1 514,0,0,0,0,1,0,1,0,0,1,0,0,0,0,517,
scooby_state_449ef0|26|1 517,0,0,0,0,0,0,0,0,0,0,0,0,0,0,517,
scooby_state_455e00|52|1 516,0,0,0,0,0,0,0,1,0,0,0,0,0,0,517,
[...]
scooby_state_42fb3a|48|1 1,0,0,0,0,0,0,0,0,0,0,0,0,0,0,1,
scooby_state_42fb3a|50|1 1,0,0,0,0,0,0,0,0,0,0,0,0,0,0,1,
scooby_state_449ccc|8|0 1,0,0,0,0,0,0,0,0,0,0,0,0,0,0,1,
scooby_state_42fb3a|56|1 1,0,0,0,0,0,0,0,0,0,0,0,0,0,0,1,
scooby_state_5612f0|11|1 1,0,0,0,0,0,0,0,0,0,0,0,0,0,0,1,
scooby_state_42fb3a|58|1 1,0,0,0,0,0,0,0,0,0,0,0,0,0,0,1,
scooby_state_4550b6|6|-1 1,0,0,0,0,0,0,0,0,0,0,0,0,0,0,1,
scooby_state_44da1e|52|6 1,0,0,0,0,0,0,0,0,0,0,0,0,0,0,1,
scooby_state_430bf0|55|1 1,0,0,0,0,0,0,0,0,0,0,0,0,0,0,1,
scooby_state_4494c3|19|1 1,0,0,0,0,0,0,0,0,0,0,0,0,0,0,1,
scooby_state_4490c7|3|1 1,0,0,0,0,0,0,0,0,0,0,0,0,0,0,1,
scooby_state_42fb3a|26|1 1,0,0,0,0,0,0,0,0,0,0,0,0,0,0,1,
scooby_state_44aac8|29|3 1,0,0,0,0,0,0,0,0,0,0,0,0,0,0,1,
scooby_state_42fbda|40|1 1,0,0,0,0,0,0,0,0,0,0,0,0,0,0,1,
scooby_state_449cdc|37|2 1,0,0,0,0,0,0,0,0,0,0,0,0,0,0,1,
scooby_state_42fa60|44|1 1,0,0,0,0,0,0,0,0,0,0,0,0,0,0,1,
scooby_state_44dab0|0|-10 1,0,0,0,0,0,0,0,0,0,0,0,0,0,0,1,
scooby_state_42fbda|54|1 1,0,0,0,0,0,0,0,0,0,0,0,0,0,0,1,
scooby_state_55fe18|56|-4 1,0,0,0,0,0,0,0,0,0,0,0,0,0,0,1,
scooby_state_430b70|58|1 1,0,0,0,0,0,0,0,0,0,0,0,0,0,0,1,
scooby_state_455f84|62|0 1,0,0,0,0,0,0,0,0,0,0,0,0,0,0,1,
scooby_state_456000|0|0 1,0,0,0,0,0,0,0,0,0,0,0,0,0,0,1,
scooby_state_42fb3a|60|1 1,0,0,0,0,0,0,0,0,0,0,0,0,0,0,1,
scooby_state_561281|10|-5 1,0,0,0,0,0,0,0,0,0,0,0,0,0,0,1,
scooby_state_4560c0|3|1 1,0,0,0,0,0,0,0,0,0,0,0,0,0,0,1,
scooby_state_449051|55|1 1,0,0,0,0,0,0,0,0,0,0,0,0,0,0,1,
scooby_state_456140|5|1 1,0,0,0,0,0,0,0,0,0,0,0,0,0,0,1,
scooby_state_44d3dc|17|0 1,0,0,0,0,0,0,0,0,0,0,0,0,0,0,1,
scooby_state_44da7c|11|5 1,0,0,0,0,0,0,0,0,0,0,0,0,0,0,1,
scooby_state_455f84|33|-16 1,0,0,0,0,0,0,0,0,0,0,0,0,0,0,1,
scooby_state_455f94|36|3 1,0,0,0,0,0,0,0,0,0,0,0,0,0,0,1,
scooby_state_42fa03|40|1 1,0,0,0,0,0,0,0,0,0,0,0,0,0,0,1,
scooby_state_42fa41|41|1 1,0,0,0,0,0,0,0,0,0,0,0,0,0,0,1,
scooby_state_449f02|36|1 1,0,0,0,0,0,0,0,0,0,0,0,0,0,0,1,
scooby_state_455fc4|50|14 1,0,0,0,0,0,0,0,0,0,0,0,0,0,0,1,
scooby_state_455fe0|35|-15 1,0,0,0,0,0,0,0,0,0,0,0,0,0,0,1,
scooby_state_44d4a7|42|0 1,0,0,0,0,0,0,0,0,0,0,0,0,0,0,1,
scooby_state_401d82|54|1 1,0,0,0,0,0,0,0,0,0,0,0,0,0,0,1,
scooby_state_449d50|58|26 1,0,0,0,0,0,0,0,0,0,0,0,0,0,0,1,
scooby_state_4562c1|11|1 1,0,0,0,0,0,0,0,0,0,0,0,0,0,0,1,
scooby_state_561945|37|8 1,0,0,0,0,0,0,0,0,0,0,0,0,0,0,1,
scooby_state_456381|14|1 1,0,0,0,0,0,0,0,0,0,0,0,0,0,0,1,
scooby_state_44d3c5|9|0 1,0,0,0,0,0,0,0,0,0,0,0,0,0,0,1,
scooby_state_4302c2|11|1 1,0,0,0,0,0,0,0,0,0,0,0,0,0,0,1,
scooby_state_449aa4|13|-2 1,0,0,0,0,0,0,0,0,0,0,0,0,0,0,1,
scooby_state_430403|16|1 1,0,0,0,0,0,0,0,0,0,0,0,0,0,0,1,
scooby_state_4564c1|19|1 1,0,0,0,0,0,0,0,0,0,0,0,0,0,0,1,
scooby_state_401fd0|63|0 1,0,0,0,0,0,0,0,0,0,0,0,0,0,0,1,
scooby_state_44bc46|20|-1 1,0,0,0,0,0,0,0,0,0,0,0,0,0,0,1,
scooby_state_44d4a7|18|0 1,0,0,0,0,0,0,0,0,0,0,0,0,0,0,1,
scooby_state_402005|0|0 1,0,0,0,0,0,0,0,0,0,0,0,0,0,0,1,
scooby_state_40214c|5|3 1,0,0,0,0,0,0,0,0,0,0,0,0,0,0,1,
scooby_state_44acb8|55|-1 1,0,0,0,0,0,0,0,0,0,0,0,0,0,0,1,
scooby_state_449f02|26|1 1,0,0,0,0,0,0,0,0,0,0,0,0,0,0,1,
scooby_state_44d085|2|1 1,0,0,0,0,0,0,0,0,0,0,0,0,0,0,1,
scooby_state_5603f5|15|0 1,0,0,0,0,0,0,0,0,0,0,0,0,0,0,1,
scooby_state_449046|1|1 1,0,0,0,0,0,0,0,0,0,0,0,0,0,0,1,
scooby_state_563559|23|0 1,0,0,0,0,0,0,0,0,0,0,0,0,0,0,1,
scooby_state_55f8c1|35|1 1,0,0,0,0,0,0,0,0,0,0,0,0,0,0,1,
scooby_state_456b06|44|1 1,0,0,0,0,0,0,0,0,0,0,0,0,0,0,1,
scooby_state_55f902|36|1 1,0,0,0,0,0,0,0,0,0,0,0,0,0,0,1,
scooby_state_44da91|0|-49 1,0,0,0,0,0,0,0,0,0,0,0,0,0,0,1,
scooby_state_449f02|6|1 1,0,0,0,0,0,0,0,0,0,0,0,0,0,0,1,
scooby_state_55fd60|58|0 1,0,0,0,0,0,0,0,0,0,0,0,0,0,0,1,
scooby_state_55fa04|40|-13 1,0,0,0,0,0,0,0,0,0,0,0,0,0,0,1,
scooby_state_560400|16|1 1,0,0,0,0,0,0,0,0,0,0,0,0,0,0,1,
scooby_state_430b70|6|1 1,0,0,0,0,0,0,0,0,0,0,0,0,0,0,1,
scooby_state_563559|58|0 1,0,0,0,0,0,0,0,0,0,0,0,0,0,0,1,
scooby_state_42fbda|11|1 1,0,0,0,0,0,0,0,0,0,0,0,0,0,0,1,
scooby_state_42fbda|0|0 1,0,0,0,0,0,0,0,0,0,0,0,0,0,0,1,
scooby_state_42fb3a|1|1 1,0,0,0,0,0,0,0,0,0,0,0,0,0,0,1,
scooby_state_4cf894|29|-25 1,0,0,0,0,0,0,0,0,0,0,0,0,0,0,1,
scooby_state_456c46|49|1 1,0,0,0,0,0,0,0,0,0,0,0,0,0,0,1,
scooby_state_42fb3a|3|1 1,0,0,0,0,0,0,0,0,0,0,0,0,0,0,1,
scooby_state_42fb3a|4|1 1,0,0,0,0,0,0,0,0,0,0,0,0,0,0,1,
scooby_state_44bbdc|22|2 1,0,0,0,0,0,0,0,0,0,0,0,0,0,0,1,
scooby_state_449f47|61|1 1,0,0,0,0,0,0,0,0,0,0,0,0,0,0,1,
scooby_state_42fb67|12|-4 1,0,0,0,0,0,0,0,0,0,0,0,0,0,0,1,
scooby_state_42fb80|46|1 1,0,0,0,0,0,0,0,0,0,0,0,0,0,0,1,
scooby_state_42fbda|5|0 1,0,0,0,0,0,0,0,0,0,0,0,0,0,0,1,
scooby_state_4cf92d|36|2 1,0,0,0,0,0,0,0,0,0,0,0,0,0,0,1,
scooby_state_42fbda|9|1 1,0,0,0,0,0,0,0,0,0,0,0,0,0,0,1,
scooby_state_44d9e5|0|-57 1,0,0,0,0,0,0,0,0,0,0,0,0,0,0,1,
scooby_state_44bc46|8|-1 1,0,0,0,0,0,0,0,0,0,0,0,0,0,0,1,
scooby_state_42fbda|12|1 1,0,0,0,0,0,0,0,0,0,0,0,0,0,0,1,
scooby_state_44da7c|50|5 1,0,0,0,0,0,0,0,0,0,0,0,0,0,0,1,
scooby_state_42fbda|16|1 1,0,0,0,0,0,0,0,0,0,0,0,0,0,0,1,
scooby_state_42fbda|24|1 1,0,0,0,0,0,0,0,0,0,0,0,0,0,0,1,
scooby_state_42fbda|28|1 1,0,0,0,0,0,0,0,0,0,0,0,0,0,0,1,
scooby_state_42fbda|39|1 1,0,0,0,0,0,0,0,0,0,0,0,0,0,0,1,
scooby_state_42fbda|41|1 1,0,0,0,0,0,0,0,0,0,0,0,0,0,0,1,
scooby_state_42fbda|47|1 1,0,0,0,0,0,0,0,0,0,0,0,0,0,0,1,
scooby_state_449f0a|51|-1 1,0,0,0,0,0,0,0,0,0,0,0,0,0,0,1,
scooby_state_44da1e|38|5 1,0,0,0,0,0,0,0,0,0,0,0,0,0,0,1,
scooby_state_42fbda|48|1 1,0,0,0,0,0,0,0,0,0,0,0,0,0,0,1,
scooby_state_44bbdc|41|2 1,0,0,0,0,0,0,0,0,0,0,0,0,0,0,1,
scooby_state_42fbda|52|1 1,0,0,0,0,0,0,0,0,0,0,0,0,0,0,1,
scooby_state_42fbda|62|1 1,0,0,0,0,0,0,0,0,0,0,0,0,0,0,1,
scooby_state_44d9ff|3|-59 1,0,0,0,0,0,0,0,0,0,0,0,0,0,0,1,
scooby_state_4568d7|10|6 1,0,0,0,0,0,0,0,0,0,0,0,0,0,0,1,
scooby_state_44d3dc|63|0 1,0,0,0,0,0,0,0,0,0,0,0,0,0,0,1,
scooby_state_456906|36|1 1,0,0,0,0,0,0,0,0,0,0,0,0,0,0,1,
scooby_state_456a8e|10|0 1,0,0,0,0,0,0,0,0,0,0,0,0,0,0,1,
scooby_state_449f02|61|1 1,0,0,0,0,0,0,0,0,0,0,0,0,0,0,1,
scooby_state_44da8b|44|-17 1,0,0,0,0,0,0,0,0,0,0,0,0,0,0,1,
scooby_state_44dab0|25|7 1,0,0,0,0,0,0,0,0,0,0,0,0,0,0,1,
scooby_state_449f02|27|1 1,0,0,0,0,0,0,0,0,0,0,0,0,0,0,1,
scooby_state_449cdc|23|-1 1,0,0,0,0,0,0,0,0,0,0,0,0,0,0,1,
scooby_state_4493c1|15|1 1,0,0,0,0,0,0,0,0,0,0,0,0,0,0,1,
scooby_state_4550ca|28|-1 1,0,0,0,0,0,0,0,0,0,0,0,0,0,0,1,
scooby_state_44da7c|1|-43 1,0,0,0,0,0,0,0,0,0,0,0,0,0,0,1,
scooby_state_430bf0|45|1 1,0,0,0,0,0,0,0,0,0,0,0,0,0,0,1,
scooby_state_449246|9|1 1,0,0,0,0,0,0,0,0,0,0,0,0,0,0,1,
scooby_state_401e03|56|1 1,0,0,0,0,0,0,0,0,0,0,0,0,0,0,1,
scooby_state_456074|53|16 1,0,0,0,0,0,0,0,0,0,0,0,0,0,0,1,
scooby_state_430bc2|47|1 1,0,0,0,0,0,0,0,0,0,0,0,0,0,0,1,
scooby_state_42fa0a|27|13 1,0,0,0,0,0,0,0,0,0,0,0,0,0,0,1,
scooby_state_456b46|45|1 1,0,0,0,0,0,0,0,0,0,0,0,0,0,0,1,
scooby_state_454f82|62|1 1,0,0,0,0,0,0,0,0,0,0,0,0,0,0,1,
scooby_state_44d9e0|39|-19 1,0,0,0,0,0,0,0,0,0,0,0,0,0,0,1,
scooby_state_4022cb|57|4 1,0,0,0,0,0,0,0,0,0,0,0,0,0,0,1,
scooby_state_44d9e0|50|-6 1,0,0,0,0,0,0,0,0,0,0,0,0,0,0,1,
scooby_state_449cdc|28|-1 1,0,0,0,0,0,0,0,0,0,0,0,0,0,0,1,
scooby_state_44da8b|33|-30 1,0,0,0,0,0,0,0,0,0,0,0,0,0,0,1,
scooby_state_44d9ff|0|-24 1,0,0,0,0,0,0,0,0,0,0,0,0,0,0,1,
scooby_state_456e95|58|27 1,0,0,0,0,0,0,0,0,0,0,0,0,0,0,1,
scooby_state_44a887|34|1 1,0,0,0,0,0,0,0,0,0,0,0,0,0,0,1,
scooby_state_430b70|53|1 1,0,0,0,0,0,0,0,0,0,0,0,0,0,0,1,
scooby_state_44da1e|4|-47 1,0,0,0,0,0,0,0,0,0,0,0,0,0,0,1,
scooby_state_454db4|50|0 1,0,0,0,0,0,0,0,0,0,0,0,0,0,0,1,
scooby_state_44d3dc|38|0 1,0,0,0,0,0,0,0,0,0,0,0,0,0,0,1,
scooby_state_42fbda|38|1 1,0,0,0,0,0,0,0,0,0,0,0,0,0,0,1,
scooby_state_455041|1|1 1,0,0,0,0,0,0,0,0,0,0,0,0,0,0,1,
scooby_state_455d45|53|1 1,0,0,0,0,0,0,0,0,0,0,0,0,0,0,1,
scooby_state_44dad7|1|-49 1,0,0,0,0,0,0,0,0,0,0,0,0,0,0,1,
scooby_state_455e41|57|0 1,0,0,0,0,0,0,0,0,0,0,0,0,0,0,1,
scooby_state_42fb3a|23|1 1,0,0,0,0,0,0,0,0,0,0,0,0,0,0,1,
scooby_state_4550ca|30|-1 1,0,0,0,0,0,0,0,0,0,0,0,0,0,0,1,
scooby_state_44ce06|56|1 1,0,0,0,0,0,0,0,0,0,0,0,0,0,0,1,
scooby_state_560d81|54|1 1,0,0,0,0,0,0,0,0,0,0,0,0,0,0,1,
scooby_state_58c540|21|1 1,0,0,0,0,0,0,0,0,0,0,0,0,0,0,1,
scooby_state_55fa1d|13|0 1,0,0,0,0,0,0,0,0,0,0,0,0,0,0,1,
scooby_state_44d9e0|36|-27 1,0,0,0,0,0,0,0,0,0,0,0,0,0,0,1,
scooby_state_44ab8a|52|-3 1,0,0,0,0,0,0,0,0,0,0,0,0,0,0,1,
scooby_state_44d968|58|0 1,0,0,0,0,0,0,0,0,0,0,0,0,0,0,1,
scooby_state_449f0a|58|-1 1,0,0,0,0,0,0,0,0,0,0,0,0,0,0,1,
scooby_state_44aac8|30|-2 1,0,0,0,0,0,0,0,0,0,0,0,0,0,0,1,
scooby_state_42fb3a|25|1 1,0,0,0,0,0,0,0,0,0,0,0,0,0,0,1,
scooby_state_42fbda|7|1 1,0,0,0,0,0,0,0,0,0,0,0,0,0,0,1,
scooby_state_4550ca|14|2 1,0,0,0,0,0,0,0,0,0,0,0,0,0,0,1,
scooby_state_44da7c|31|13 1,0,0,0,0,0,0,0,0,0,0,0,0,0,0,1,
scooby_state_44da7c|2|-37 1,0,0,0,0,0,0,0,0,0,0,0,0,0,0,1,
scooby_state_449aa4|34|-2 1,0,0,0,0,0,0,0,0,0,0,0,0,0,0,1,
scooby_state_42fbda|27|1 1,0,0,0,0,0,0,0,0,0,0,0,0,0,0,1,
scooby_state_44bc46|22|2 1,0,0,0,0,0,0,0,0,0,0,0,0,0,0,1,
scooby_state_448e41|57|1 1,0,0,0,0,0,0,0,0,0,0,0,0,0,0,1,
scooby_state_456d06|52|1 1,0,0,0,0,0,0,0,0,0,0,0,0,0,0,1,
scooby_state_44acb8|17|2 1,0,0,0,0,0,0,0,0,0,0,0,0,0,0,1,
scooby_state_44d968|51|0 1,0,0,0,0,0,0,0,0,0,0,0,0,0,0,1,
scooby_state_449246|21|0 1,0,0,0,0,0,0,0,0,0,0,0,0,0,0,1,
scooby_state_44da7c|12|4 1,0,0,0,0,0,0,0,0,0,0,0,0,0,0,1,
scooby_state_448e80|58|1 1,0,0,0,0,0,0,0,0,0,0,0,0,0,0,1,
scooby_state_42fbda|4|1 1,0,0,0,0,0,0,0,0,0,0,0,0,0,0,1,
scooby_state_563559|44|0 1,0,0,0,0,0,0,0,0,0,0,0,0,0,0,1,
scooby_state_449af9|48|10 1,0,0,0,0,0,0,0,0,0,0,0,0,0,0,1,
scooby_state_44aac8|53|-2 1,0,0,0,0,0,0,0,0,0,0,0,0,0,0,1,
scooby_state_563559|4|0 1,0,0,0,0,0,0,0,0,0,0,0,0,0,0,1,
scooby_state_455fc4|63|1 1,0,0,0,0,0,0,0,0,0,0,0,0,0,0,1,
scooby_state_44d9d2|32|11 1,0,0,0,0,0,0,0,0,0,0,0,0,0,0,1,
scooby_state_430bf0|4|1 1,0,0,0,0,0,0,0,0,0,0,0,0,0,0,1,
scooby_state_44da7c|0|-48 1,0,0,0,0,0,0,0,0,0,0,0,0,0,0,1,
scooby_state_55fa3a|28|0 1,0,0,0,0,0,0,0,0,0,0,0,0,0,0,1,
scooby_state_42fb3a|54|1 1,0,0,0,0,0,0,0,0,0,0,0,0,0,0,1,
scooby_state_55e990|38|1 1,0,0,0,0,0,0,0,0,0,0,0,0,0,0,1,
scooby_state_449f0a|47|2 1,0,0,0,0,0,0,0,0,0,0,0,0,0,0,1,
scooby_state_430290|10|0 1,0,0,0,0,0,0,0,0,0,0,0,0,0,0,1,
scooby_state_44aac8|56|-2 1,0,0,0,0,0,0,0,0,0,0,0,0,0,0,1,
scooby_state_44da8b|27|-36 1,0,0,0,0,0,0,0,0,0,0,0,0,0,0,1,
scooby_state_449541|21|1 1,0,0,0,0,0,0,0,0,0,0,0,0,0,0,1,
scooby_state_4492c7|11|1 1,0,0,0,0,0,0,0,0,0,0,0,0,0,0,1,
scooby_state_456842|33|1 1,0,0,0,0,0,0,0,0,0,0,0,0,0,0,1,
scooby_state_44da7c|7|-40 1,0,0,0,0,0,0,0,0,0,0,0,0,0,0,1,
scooby_state_40206b|57|3 1,0,0,0,0,0,0,0,0,0,0,0,0,0,0,1,
scooby_state_4cf849|3|0 1,0,0,0,0,0,0,0,0,0,0,0,0,0,0,1,
scooby_state_455ec3|59|1 1,0,0,0,0,0,0,0,0,0,0,0,0,0,0,1,
scooby_state_4550b6|18|2 1,0,0,0,0,0,0,0,0,0,0,0,0,0,0,1,
scooby_state_4565c7|23|1 1,0,0,0,0,0,0,0,0,0,0,0,0,0,0,1,
scooby_state_44dab0|0|-11 1,0,0,0,0,0,0,0,0,0,0,0,0,0,0,1,
scooby_state_44921e|25|-2 1,0,0,0,0,0,0,0,0,0,0,0,0,0,0,1,
scooby_state_449aa4|18|2 1,0,0,0,0,0,0,0,0,0,0,0,0,0,0,1,
scooby_state_44acec|47|0 1,0,0,0,0,0,0,0,0,0,0,0,0,0,0,1,
scooby_state_449f0a|21|2 1,0,0,0,0,0,0,0,0,0,0,0,0,0,0,1,
scooby_state_4550b6|6|2 1,0,0,0,0,0,0,0,0,0,0,0,0,0,0,1,
scooby_state_4550ca|6|2 1,0,0,0,0,0,0,0,0,0,0,0,0,0,0,1,
scooby_state_4550ca|7|-1 1,0,0,0,0,0,0,0,0,0,0,0,0,0,0,1,
scooby_state_44d9d2|0|-31 1,0,0,0,0,0,0,0,0,0,0,0,0,0,0,1,
scooby_state_4550ca|33|2 1,0,0,0,0,0,0,0,0,0,0,0,0,0,0,1,
scooby_state_4550b6|36|2 1,0,0,0,0,0,0,0,0,0,0,0,0,0,0,1,
scooby_state_4550b6|5|2 1,0,0,0,0,0,0,0,0,0,0,0,0,0,0,1,
scooby_state_44d9d2|10|4 1,0,0,0,0,0,0,0,0,0,0,0,0,0,0,1,
scooby_state_44da7c|39|14 1,0,0,0,0,0,0,0,0,0,0,0,0,0,0,1,
scooby_state_44da7c|62|6 1,0,0,0,0,0,0,0,0,0,0,0,0,0,0,1,
scooby_state_42fb3a|41|1 1,0,0,0,0,0,0,0,0,0,0,0,0,0,0,1,
scooby_state_4550ca|27|-1 1,0,0,0,0,0,0,0,0,0,0,0,0,0,0,1,
scooby_state_4550b6|30|-1 1,0,0,0,0,0,0,0,0,0,0,0,0,0,0,1,
scooby_state_44d202|45|2 1,0,0,0,0,0,0,0,0,0,0,0,0,0,0,1,
scooby_state_4550b6|33|-1 1,0,0,0,0,0,0,0,0,0,0,0,0,0,0,1,
scooby_state_4550b6|35|2 1,0,0,0,0,0,0,0,0,0,0,0,0,0,0,1,
scooby_state_44d4bd|48|0 1,0,0,0,0,0,0,0,0,0,0,0,0,0,0,1,
scooby_state_456640|25|1 1,0,0,0,0,0,0,0,0,0,0,0,0,0,0,1,
scooby_state_561715|28|-5 1,0,0,0,0,0,0,0,0,0,0,0,0,0,0,1,
scooby_state_4550ca|56|2 1,0,0,0,0,0,0,0,0,0,0,0,0,0,0,1,
scooby_state_455cc3|50|-4 1,0,0,0,0,0,0,0,0,0,0,0,0,0,0,1,
scooby_state_449aa4|15|2 1,0,0,0,0,0,0,0,0,0,0,0,0,0,0,1,
scooby_state_455cd3|33|-1 1,0,0,0,0,0,0,0,0,0,0,0,0,0,0,1,
scooby_state_455cf7|48|15 1,0,0,0,0,0,0,0,0,0,0,0,0,0,0,1,
scooby_state_560f02|60|1 1,0,0,0,0,0,0,0,0,0,0,0,0,0,0,1,
scooby_state_455d45|46|-3 1,0,0,0,0,0,0,0,0,0,0,0,0,0,0,1,
scooby_state_44939e|43|-16 1,0,0,0,0,0,0,0,0,0,0,0,0,0,0,1,
scooby_state_455ddb|12|0 1,0,0,0,0,0,0,0,0,0,0,0,0,0,0,1,

scooby_action_0_deg_dist 0,304,0,0,0,0,0,0,0,0,0,0,0,0,0,0,
scooby_action_4_deg_dist 0,297,0,0,0,0,0,0,0,0,0,0,0,0,0,0,
scooby_action_32_deg_dist 0,194,0,0,0,0,0,0,0,0,0,0,0,0,0,0,
scooby_action_3_deg_dist 0,543,0,0,0,0,0,0,0,0,0,0,0,0,0,0,
scooby_action_5_deg_dist 0,221,0,0,0,0,0,0,0,0,0,0,0,0,0,0,
scooby_action_1_deg_dist 0,103366,65827,0,158966,0,1315294,0,0,0,0,0,0,0,0,0,
scooby_action_30_deg_dist 0,238,0,0,0,0,0,0,0,0,0,0,0,0,0,0,
scooby_action_-3_deg_dist 0,221,0,0,0,0,0,0,0,0,0,0,0,0,0,0,
scooby_action_10_deg_dist 0,302,0,0,0,0,0,0,0,0,0,0,0,0,0,0,
scooby_action_-1_deg_dist 0,220,0,0,0,0,0,0,0,0,0,0,0,0,0,0,
scooby_action_23_deg_dist 0,218,0,0,0,0,0,0,0,0,0,0,0,0,0,0,
scooby_action_-6_deg_dist 0,205,0,0,0,0,0,0,0,0,0,0,0,0,0,0,
scooby_action_11_deg_dist 0,714,0,0,0,0,0,0,0,0,0,0,0,0,0,0,
scooby_action_22_deg_dist 0,437,0,0,0,0,0,0,0,0,0,0,0,0,0,0,
scooby_action_12_deg_dist 0,440,0,0,0,0,0,0,0,0,0,0,0,0,0,0,

scooby_track_called 1648007
scooby_track_same_address 2115
scooby_track_evict 1645636

scooby_reward_demand_called 1648007
scooby_reward_demand_pt_not_found 56130
scooby_reward_demand_pt_found 1591877
scooby_reward_demand_pt_found_total 1591877
scooby_reward_demand_has_reward 0
scooby_reward_train_called 27853
scooby_reward_assign_reward_called 1645865
scooby_reward_no_pref 304
scooby_reward_incorrect 27549
scooby_reward_correct_untimely 1407523
scooby_reward_correct_timely 184354
scooby_reward_out_of_bounds 26135
scooby_reward_tracker_hit 0

scooby_reward_none_low_bw 304
scooby_reward_none_high_bw 0
scooby_reward_incorrect_low_bw 27549
scooby_reward_incorrect_high_bw 0
scooby_reward_correct_untimely_low_bw 1407523
scooby_reward_correct_untimely_high_bw 0
scooby_reward_correct_timely_low_bw 184354
scooby_reward_correct_timely_high_bw 0
scooby_reward_out_of_bounds_low_bw 26135
scooby_reward_out_of_bounds_high_bw 0
scooby_reward_tracker_hit_low_bw 0
scooby_reward_tracker_hit_high_bw 0

scooby_reward_1 0,25741,1407109,183491,25512,0,
scooby_reward_3 0,330,140,59,14,0,
scooby_reward_4 0,103,88,87,19,0,
scooby_reward_5 0,32,73,95,20,0,
scooby_reward_10 0,84,26,139,53,0,
scooby_reward_11 0,539,25,103,40,0,
scooby_reward_12 0,223,30,111,76,0,
scooby_reward_22 0,196,18,100,123,0,
scooby_reward_23 0,46,14,91,67,0,
scooby_reward_30 0,100,0,43,95,0,
scooby_reward_32 0,67,0,35,92,0,
scooby_reward_-1 0,34,0,0,4,0,
scooby_reward_-3 0,27,0,0,7,0,
scooby_reward_-6 0,27,0,0,13,0,
scooby_reward_0 304,0,0,0,0,0,

scooby_train_called 1645635
scooby_train_compute_reward 27853

scooby_register_fill_called 1215640
scooby_register_fill_set 188653
scooby_register_fill_set_total 188653

scooby_register_prefetch_hit_called 4904963
scooby_register_prefetch_hit_set 1265095
scooby_register_prefetch_hit_set_total 1265095

scooby_pref_issue_scooby 8253626

learning_engine_featurewise.action.called 1648007
learning_engine_featurewise.action.explore 3039
learning_engine_featurewise.action.exploit 1644968
learning_engine_featurewise.action.fallback 0
learning_engine_featurewise.action.dyn_fallback_saved_bw 0
learning_engine_featurewise.action.dyn_fallback_saved_bw_acc 1719
learning_engine_featurewise.action.index_1_explored 199
learning_engine_featurewise.action.index_1_exploited 1643254
learning_engine_featurewise.action.index_3_explored 220
learning_engine_featurewise.action.index_3_exploited 323
learning_engine_featurewise.action.index_4_explored 207
learning_engine_featurewise.action.index_4_exploited 90
learning_engine_featurewise.action.index_5_explored 189
learning_engine_featurewise.action.index_5_exploited 32
learning_engine_featurewise.action.index_10_explored 234
learning_engine_featurewise.action.index_10_exploited 68
learning_engine_featurewise.action.index_11_explored 184
learning_engine_featurewise.action.index_11_exploited 530
learning_engine_featurewise.action.index_12_explored 210
learning_engine_featurewise.action.index_12_exploited 230
learning_engine_featurewise.action.index_22_explored 211
learning_engine_featurewise.action.index_22_exploited 226
learning_engine_featurewise.action.index_23_explored 204
learning_engine_featurewise.action.index_23_exploited 14
learning_engine_featurewise.action.index_30_explored 207
learning_engine_featurewise.action.index_30_exploited 31
learning_engine_featurewise.action.index_32_explored 177
learning_engine_featurewise.action.index_32_exploited 17
learning_engine_featurewise.action.index_-1_explored 194
learning_engine_featurewise.action.index_-1_exploited 26
learning_engine_featurewise.action.index_-3_explored 206
learning_engine_featurewise.action.index_-3_exploited 15
learning_engine_featurewise.action.index_-6_explored 191
learning_engine_featurewise.action.index_-6_exploited 14
learning_engine_featurewise.action.index_0_explored 206
learning_engine_featurewise.action.index_0_exploited 98
learning_engine_featurewise.learn.called 1645635
learning_engine_featurewise.learn.su_skip_PC 0
learning_engine_featurewise.learn.su_skip_PC_Delta 0

learning_engine_featurewise.q_value_histogram.bucket_0 0
learning_engine_featurewise.q_value_histogram.bucket_1 0
learning_engine_featurewise.q_value_histogram.bucket_2 0
learning_engine_featurewise.q_value_histogram.bucket_3 490
learning_engine_featurewise.q_value_histogram.bucket_4 3288
learning_engine_featurewise.q_value_histogram.bucket_5 2742
learning_engine_featurewise.q_value_histogram.bucket_6 1638448
learning_engine_featurewise.q_value_histogram.bucket_7 0

learning_engine_featurewise.consensus.total 1644968
learning_engine_featurewise.consensus.feature_align_PC 1641389
learning_engine_featurewise.consensus.feature_align_PC_ratio 1.00
learning_engine_featurewise.consensus.feature_align_PC_Delta 1643791
learning_engine_featurewise.consensus.feature_align_PC_Delta_ratio 1.00
learning_engine_featurewise.consensus.feature_align_all 1640212
learning_engine_featurewise.consensus.feature_align_all_ratio 1.00

learning_engine_featurewise.feature_PC_min_weight 1000000.00000000
learning_engine_featurewise.feature_PC_max_weight 0.00000000
learning_engine_featurewise.feature_PC_Delta_min_weight 1000000.00000000
learning_engine_featurewise.feature_PC_Delta_max_weight 0.00000000
unique_pcs 825
unique_pages 25505
unique_trigger_pcs 181
total_bitmaps_seen 0
unique_bitmaps_seen 0

scooby_bw_epochs 321627
scooby_bw_level_0 74977
scooby_bw_level_1 86889
scooby_bw_level_2 78972
scooby_bw_level_3 80789

scooby_ipc_epochs 0
scooby_ipc_level_0 0
scooby_ipc_level_1 0
scooby_ipc_level_2 0
scooby_ipc_level_3 0

scooby_cache_acc_epochs 76639
scooby_cache_acc_level_0 50
scooby_cache_acc_level_1 19
scooby_cache_acc_level_2 77
scooby_cache_acc_level_3 201
scooby_cache_acc_level_4 735
scooby_cache_acc_level_5 1617
scooby_cache_acc_level_6 2894
scooby_cache_acc_level_7 5848
scooby_cache_acc_level_8 11552
scooby_cache_acc_level_9 53646

Channel_0_RQ_row_buffer_hit 511709
Channel_0_RQ_row_buffer_miss 1168674
Channel_0_WQ_row_buffer_hit 109043
Channel_0_WQ_row_buffer_miss 556077
Channel_0_WQ_full 1066
Channel_0_dbus_congested 1510424

avg_congested_cycle 10

DRAM_bw_pochs 321627
DRAM_bw_level_0 74977
DRAM_bw_level_1 86889
DRAM_bw_level_2 78972
DRAM_bw_level_3 80789
