*************************************************
   ChampSim Multicore Out-of-Order Simulator
   Last compiled: Apr  3 2025 20:54:34
*************************************************
parsing config file: /home/zir/Pythia/config/pythia.ini

trace_0 /home/zir/ChampSim/ML-DPC/ChampSimTraces/spec17/619.lbm-s3.trace.xz
adding L2C_PREFETCHER: Scooby
Initialize SHIP state
warmup_instructions 10000000
simulation_instructions 50000000
champsim_seed 166
measure_ipc 0
measure_ipc_epoch 1000
measure_dram_bw 1
measure_dram_bw_epoch 256
measure_cache_acc 1
measure_cache_acc_epoch 1024
l1d_perfect 0
l2c_perfect 0
llc_perfect 0
l1d_semi_perfect 0
l2c_semi_perfect 0
llc_semi_perfect 0
semi_perfect_cache_page_buffer_size 64

num_cpus 1
cpu_freq 4000
dram_io_freq 2400
page_size 4096
block_size 64
max_read_per_cycle 8
max_fill_per_cycle 1
dram_channels 1
log2_dram_channels 0
dram_ranks 1
dram_banks 8
dram_rows 65536
dram_columns 128
dram_row_size 8
dram_size 4096
dram_pages 1048576

fetch_width 6
decode_width 6
exec_width 4
lq_width 2
sq_width 2
retire_width 4
scheduler_size 128
branch_mispredict_penalty 20
rob_size 256
lq_size 72
sq_size 56
num_instr_destinations_sparc 4
num_instr_destinations 2
num_instr_sources 4

itlb_set 16
itlb_way 8
itlb_rq_size 16
itlb_wq_size 16
itlb_pq_size 0
itlb_mshr_size 8
itlb_latency 1

dtlb_set 16
dtlb_way 4
dtlb_rq_size 16
dtlb_wq_size 16
dtlb_pq_size 0
dtlb_mshr_size 8
dtlb_latency 1

stlb_set 128
stlb_way 12
stlb_rq_size 32
stlb_wq_size 32
stlb_pq_size 0
stlb_mshr_size 16
stlb_latency 8

l1i_size 32
l1i_set 64
l1i_way 8
l1i_rq_size 64
l1i_wq_size 64
l1i_pq_size 8
l1i_mshr_size 8
l1i_latency 1

l1d_size 32
l1d_set 64
l1d_way 8
l1d_rq_size 64
l1d_wq_size 64
l1d_pq_size 8
l1d_mshr_size 16
l1d_latency 4

l2c_size 256
l2c_set 512
l2c_way 8
l2c_rq_size 32
l2c_wq_size 32
l2c_pq_size 32
l2c_mshr_size 32
l2c_latency 10

llc_size 2048
llc_set 2048
llc_way 16
llc_rq_size 32
llc_wq_size 32
llc_pq_size 32
llc_mshr_size 64
llc_latency 20

dram_channel_width 8
dram_wq_size 64
dram_rq_size 64
tRP 15
tRCD 15
tCAS 12.5
dram_dbus_turn_around_time 30
dram_write_high_wm 56
dram_write_low_wm 48
min_dram_writes_per_switch 16
dram_mtps 2400
dram_dbus_return_time 13

scooby_alpha 0.0065088
scooby_gamma 0.556301
scooby_epsilon 0.00182284
scooby_state_num_bits 10
scooby_max_states 1024
scooby_seed 200
scooby_policy EGreedy
scooby_learning_type SARSA
scooby_actions 1,3,4,5,10,11,12,22,23,30,32,-1,-3,-6,0,
scooby_max_actions 15
scooby_pt_size 256
scooby_st_size 64
scooby_max_pcs 5
scooby_max_offsets 5
scooby_max_deltas 5
scooby_reward_none -4
scooby_reward_incorrect -8
scooby_reward_correct_untimely 12
scooby_reward_correct_timely 20
scooby_brain_zero_init 0
scooby_enable_reward_all 0
scooby_enable_track_multiple 0
scooby_enable_reward_out_of_bounds 1
scooby_reward_out_of_bounds -12
scooby_state_type 1
scooby_state_hash_type 11
scooby_access_debug 0
scooby_print_access_debug 0
scooby_print_access_debug_pc deadbeef
scooby_print_access_debug_pc_count 0
scooby_print_trace 0
scooby_enable_state_action_stats 1
scooby_enable_reward_tracker_hit 0
scooby_reward_tracker_hit -2
scooby_enable_featurewise_engine 1
scooby_pref_degree 1
scooby_enable_dyn_degree 1
scooby_max_to_avg_q_thresholds 0.5,1,2,
scooby_dyn_degrees 1,2,4,4,
scooby_multi_deg_select_type 2
scooby_last_pref_offset_conf_thresholds 1,3,8,
scooby_dyn_degrees_type2 1,2,4,6,
scooby_action_tracker_size 2
scooby_high_bw_thresh 4
scooby_enable_hbw_reward 1
scooby_reward_hbw_correct_timely 20
scooby_reward_hbw_correct_untimely 12
scooby_reward_hbw_incorrect -14
scooby_reward_hbw_none -2
scooby_reward_hbw_out_of_bounds -12
scooby_reward_hbw_tracker_hit -2
scooby_last_pref_offset_conf_thresholds_hbw 1,3,8,
scooby_dyn_degrees_type2_hbw 1,2,4,6,

le_enable_trace 0
le_trace_interval 0
le_trace_file_name 
le_trace_state 0
le_enable_score_plot 0
le_plot_file_name 
le_plot_actions 
le_enable_action_trace 0
le_action_trace_interval 0
le_action_trace_name 
le_enable_action_plot 0

le_featurewise_active_features PC, PC_Delta
le_featurewise_num_tilings 3,3,
le_featurewise_num_tiles 128,128,
le_featurewise_hash_types 2,2,
le_featurewise_enable_tiling_offset 1,1,
le_featurewise_max_q_thresh 0.5
le_featurewise_enable_action_fallback 1
le_featurewise_feature_weights 1,1,
le_featurewise_enable_dynamic_weight 0
le_featurewise_weight_gradient 0.001
le_featurewise_disable_adjust_weight_all_features_align 1
le_featurewise_selective_update 0
le_featurewise_pooling_type 2
le_featurewise_enable_dyn_action_fallback 1
le_featurewise_bw_acc_check_level 1
le_featurewise_acc_thresh 2
le_featurewise_enable_trace 0
le_featurewise_trace_feature_type 0
le_featurewise_trace_feature 
le_featurewise_trace_interval 0
le_featurewise_trace_record_count 0
le_featurewise_trace_file_name 
le_featurewise_enable_score_plot 0
le_featurewise_plot_actions 
le_featurewise_plot_file_name 


Heartbeat CPU  0 instructions:    1000002 cycles:     424973 heartbeat IPC: 2.35310 cumulative IPC: 2.35310 (Simulation time: 0 hr 0 min 2 sec) 
Heartbeat CPU  0 instructions:    2000002 cycles:     853292 heartbeat IPC: 2.33471 cumulative IPC: 2.34387 (Simulation time: 0 hr 0 min 4 sec) 
Heartbeat CPU  0 instructions:    3000001 cycles:    1278131 heartbeat IPC: 2.35383 cumulative IPC: 2.34718 (Simulation time: 0 hr 0 min 6 sec) 
Heartbeat CPU  0 instructions:    4000000 cycles:    1687539 heartbeat IPC: 2.44255 cumulative IPC: 2.37032 (Simulation time: 0 hr 0 min 8 sec) 
Heartbeat CPU  0 instructions:    5000002 cycles:    2114444 heartbeat IPC: 2.34245 cumulative IPC: 2.36469 (Simulation time: 0 hr 0 min 10 sec) 
Heartbeat CPU  0 instructions:    6000002 cycles:    2530263 heartbeat IPC: 2.40489 cumulative IPC: 2.37130 (Simulation time: 0 hr 0 min 12 sec) 
Heartbeat CPU  0 instructions:    7000000 cycles:    2963759 heartbeat IPC: 2.30682 cumulative IPC: 2.36187 (Simulation time: 0 hr 0 min 14 sec) 
Heartbeat CPU  0 instructions:    8000000 cycles:    3394590 heartbeat IPC: 2.32110 cumulative IPC: 2.35669 (Simulation time: 0 hr 0 min 16 sec) 
Heartbeat CPU  0 instructions:    9000000 cycles:    3814193 heartbeat IPC: 2.38321 cumulative IPC: 2.35961 (Simulation time: 0 hr 0 min 18 sec) 
Heartbeat CPU  0 instructions:   10000002 cycles:    4240841 heartbeat IPC: 2.34386 cumulative IPC: 2.35802 (Simulation time: 0 hr 0 min 20 sec) 

Warmup complete CPU  0 instructions:   10000002 cycles:    4240841 (Simulation time: 0 hr 0 min 20 sec) 

Heartbeat CPU  0 instructions:   11000002 cycles:    6916279 heartbeat IPC: 0.37377 cumulative IPC: 0.37377 (Simulation time: 0 hr 0 min 23 sec) 
Heartbeat CPU  0 instructions:   12000000 cycles:    9250267 heartbeat IPC: 0.42845 cumulative IPC: 0.39925 (Simulation time: 0 hr 0 min 26 sec) 
Heartbeat CPU  0 instructions:   13000002 cycles:   11893648 heartbeat IPC: 0.37830 cumulative IPC: 0.39201 (Simulation time: 0 hr 0 min 30 sec) 
Heartbeat CPU  0 instructions:   14000001 cycles:   14486213 heartbeat IPC: 0.38572 cumulative IPC: 0.39042 (Simulation time: 0 hr 0 min 33 sec) 
Heartbeat CPU  0 instructions:   15000003 cycles:   17207594 heartbeat IPC: 0.36746 cumulative IPC: 0.38560 (Simulation time: 0 hr 0 min 37 sec) 
Heartbeat CPU  0 instructions:   16000000 cycles:   20145704 heartbeat IPC: 0.34035 cumulative IPC: 0.37724 (Simulation time: 0 hr 0 min 40 sec) 
Heartbeat CPU  0 instructions:   17000001 cycles:   22827740 heartbeat IPC: 0.37285 cumulative IPC: 0.37661 (Simulation time: 0 hr 0 min 44 sec) 
Heartbeat CPU  0 instructions:   18000001 cycles:   25436247 heartbeat IPC: 0.38336 cumulative IPC: 0.37744 (Simulation time: 0 hr 0 min 47 sec) 
Heartbeat CPU  0 instructions:   19000002 cycles:   28145746 heartbeat IPC: 0.36907 cumulative IPC: 0.37649 (Simulation time: 0 hr 0 min 50 sec) 
Heartbeat CPU  0 instructions:   20000000 cycles:   30972703 heartbeat IPC: 0.35374 cumulative IPC: 0.37409 (Simulation time: 0 hr 0 min 54 sec) 
Heartbeat CPU  0 instructions:   21000002 cycles:   32966033 heartbeat IPC: 0.50167 cumulative IPC: 0.38294 (Simulation time: 0 hr 0 min 57 sec) 
Heartbeat CPU  0 instructions:   22000003 cycles:   35869487 heartbeat IPC: 0.34442 cumulative IPC: 0.37940 (Simulation time: 0 hr 1 min 0 sec) 
Heartbeat CPU  0 instructions:   23000003 cycles:   38453167 heartbeat IPC: 0.38704 cumulative IPC: 0.37998 (Simulation time: 0 hr 1 min 4 sec) 
Heartbeat CPU  0 instructions:   24000000 cycles:   41437304 heartbeat IPC: 0.33510 cumulative IPC: 0.37638 (Simulation time: 0 hr 1 min 7 sec) 
Heartbeat CPU  0 instructions:   25000003 cycles:   44404398 heartbeat IPC: 0.33703 cumulative IPC: 0.37347 (Simulation time: 0 hr 1 min 11 sec) 
Heartbeat CPU  0 instructions:   26000003 cycles:   46913918 heartbeat IPC: 0.39848 cumulative IPC: 0.37494 (Simulation time: 0 hr 1 min 14 sec) 
Heartbeat CPU  0 instructions:   27000001 cycles:   49584084 heartbeat IPC: 0.37451 cumulative IPC: 0.37492 (Simulation time: 0 hr 1 min 17 sec) 
Heartbeat CPU  0 instructions:   28000000 cycles:   52411973 heartbeat IPC: 0.35362 cumulative IPC: 0.37367 (Simulation time: 0 hr 1 min 21 sec) 
Heartbeat CPU  0 instructions:   29000000 cycles:   54758052 heartbeat IPC: 0.42624 cumulative IPC: 0.37611 (Simulation time: 0 hr 1 min 24 sec) 
Heartbeat CPU  0 instructions:   30000000 cycles:   57417595 heartbeat IPC: 0.37600 cumulative IPC: 0.37610 (Simulation time: 0 hr 1 min 27 sec) 
Heartbeat CPU  0 instructions:   31000003 cycles:   60056628 heartbeat IPC: 0.37893 cumulative IPC: 0.37624 (Simulation time: 0 hr 1 min 31 sec) 
Heartbeat CPU  0 instructions:   32000000 cycles:   62832194 heartbeat IPC: 0.36029 cumulative IPC: 0.37548 (Simulation time: 0 hr 1 min 34 sec) 
Heartbeat CPU  0 instructions:   33000001 cycles:   65476533 heartbeat IPC: 0.37817 cumulative IPC: 0.37560 (Simulation time: 0 hr 1 min 38 sec) 
Heartbeat CPU  0 instructions:   34000000 cycles:   68414997 heartbeat IPC: 0.34031 cumulative IPC: 0.37398 (Simulation time: 0 hr 1 min 41 sec) 
Heartbeat CPU  0 instructions:   35000000 cycles:   70974873 heartbeat IPC: 0.39064 cumulative IPC: 0.37462 (Simulation time: 0 hr 1 min 44 sec) 
Heartbeat CPU  0 instructions:   36000000 cycles:   73589588 heartbeat IPC: 0.38245 cumulative IPC: 0.37492 (Simulation time: 0 hr 1 min 48 sec) 
Heartbeat CPU  0 instructions:   37000000 cycles:   76711440 heartbeat IPC: 0.32032 cumulative IPC: 0.37256 (Simulation time: 0 hr 1 min 51 sec) 
Heartbeat CPU  0 instructions:   38000001 cycles:   78644067 heartbeat IPC: 0.51743 cumulative IPC: 0.37633 (Simulation time: 0 hr 1 min 54 sec) 
Heartbeat CPU  0 instructions:   39000001 cycles:   81733534 heartbeat IPC: 0.32368 cumulative IPC: 0.37423 (Simulation time: 0 hr 1 min 58 sec) 
Heartbeat CPU  0 instructions:   40000000 cycles:   84384644 heartbeat IPC: 0.37720 cumulative IPC: 0.37433 (Simulation time: 0 hr 2 min 1 sec) 
Heartbeat CPU  0 instructions:   41000002 cycles:   87218382 heartbeat IPC: 0.35289 cumulative IPC: 0.37360 (Simulation time: 0 hr 2 min 5 sec) 
Heartbeat CPU  0 instructions:   42000001 cycles:   89970402 heartbeat IPC: 0.36337 cumulative IPC: 0.37327 (Simulation time: 0 hr 2 min 8 sec) 
Heartbeat CPU  0 instructions:   43000003 cycles:   92556341 heartbeat IPC: 0.38671 cumulative IPC: 0.37366 (Simulation time: 0 hr 2 min 12 sec) 
Heartbeat CPU  0 instructions:   44000000 cycles:   95347652 heartbeat IPC: 0.35825 cumulative IPC: 0.37319 (Simulation time: 0 hr 2 min 15 sec) 
Heartbeat CPU  0 instructions:   45000003 cycles:   98110302 heartbeat IPC: 0.36197 cumulative IPC: 0.37286 (Simulation time: 0 hr 2 min 18 sec) 
Heartbeat CPU  0 instructions:   46000001 cycles:  100615775 heartbeat IPC: 0.39913 cumulative IPC: 0.37354 (Simulation time: 0 hr 2 min 22 sec) 
Heartbeat CPU  0 instructions:   47000001 cycles:  103499433 heartbeat IPC: 0.34678 cumulative IPC: 0.37276 (Simulation time: 0 hr 2 min 25 sec) 
Heartbeat CPU  0 instructions:   48000000 cycles:  106244214 heartbeat IPC: 0.36433 cumulative IPC: 0.37254 (Simulation time: 0 hr 2 min 29 sec) 
Heartbeat CPU  0 instructions:   49000000 cycles:  108997148 heartbeat IPC: 0.36325 cumulative IPC: 0.37229 (Simulation time: 0 hr 2 min 32 sec) 
Heartbeat CPU  0 instructions:   50000000 cycles:  111422163 heartbeat IPC: 0.41237 cumulative IPC: 0.37320 (Simulation time: 0 hr 2 min 35 sec) 
Heartbeat CPU  0 instructions:   51000003 cycles:  114320408 heartbeat IPC: 0.34504 cumulative IPC: 0.37246 (Simulation time: 0 hr 2 min 39 sec) 
Heartbeat CPU  0 instructions:   52000000 cycles:  117019155 heartbeat IPC: 0.37054 cumulative IPC: 0.37241 (Simulation time: 0 hr 2 min 42 sec) 
Heartbeat CPU  0 instructions:   53000000 cycles:  119480250 heartbeat IPC: 0.40632 cumulative IPC: 0.37314 (Simulation time: 0 hr 2 min 46 sec) 
Heartbeat CPU  0 instructions:   54000000 cycles:  122653622 heartbeat IPC: 0.31512 cumulative IPC: 0.37158 (Simulation time: 0 hr 2 min 49 sec) 
Heartbeat CPU  0 instructions:   55000001 cycles:  124966220 heartbeat IPC: 0.43241 cumulative IPC: 0.37275 (Simulation time: 0 hr 2 min 52 sec) 
Heartbeat CPU  0 instructions:   56000000 cycles:  127728304 heartbeat IPC: 0.36205 cumulative IPC: 0.37251 (Simulation time: 0 hr 2 min 56 sec) 
Heartbeat CPU  0 instructions:   57000000 cycles:  130636295 heartbeat IPC: 0.34388 cumulative IPC: 0.37185 (Simulation time: 0 hr 2 min 59 sec) 
Heartbeat CPU  0 instructions:   58000000 cycles:  133288187 heartbeat IPC: 0.37709 cumulative IPC: 0.37196 (Simulation time: 0 hr 3 min 3 sec) 
Heartbeat CPU  0 instructions:   59000003 cycles:  136056267 heartbeat IPC: 0.36126 cumulative IPC: 0.37173 (Simulation time: 0 hr 3 min 6 sec) 
Heartbeat CPU  0 instructions:   60000000 cycles:  138881891 heartbeat IPC: 0.35390 cumulative IPC: 0.37136 (Simulation time: 0 hr 3 min 10 sec) 
Finished CPU 0 instructions: 50000003 cycles: 134641068 cumulative IPC: 0.37136 (Simulation time: 0 hr 3 min 10 sec) 

ChampSim completed all CPUs

[ROI Statistics]
Core_0_instructions 50000003
Core_0_cycles 134641068
Core_0_IPC 0.37136

Core_0_branch_prediction_accuracy 97.10342
Core_0_branch_MPKI 0.51730
Core_0_average_ROB_occupancy_at_mispredict 243.17294

Core_0_L1D_total_access 13726429
Core_0_L1D_total_hit 9826446
Core_0_L1D_total_miss 3899983
Core_0_L1D_loads 4765406
Core_0_L1D_load_hit 4173660
Core_0_L1D_load_miss 591746
Core_0_L1D_RFOs 8961023
Core_0_L1D_RFO_hit 5652786
Core_0_L1D_RFO_miss 3308237
Core_0_L1D_prefetches 0
Core_0_L1D_prefetch_hit 0
Core_0_L1D_prefetch_miss 0
Core_0_L1D_writebacks 0
Core_0_L1D_writeback_hit 0
Core_0_L1D_writeback_miss 0
Core_0_L1D_prefetch_requested 0
Core_0_L1D_prefetch_dropped 0
Core_0_L1D_prefetch_issued 0
Core_0_L1D_prefetch_filled 0
Core_0_L1D_prefetch_useful 0
Core_0_L1D_prefetch_useless 0
Core_0_L1D_prefetch_late 0
Core_0_L1D_average_miss_latency 489.56527

Core_0_L1D_rq_access 11827495
Core_0_L1D_rq_forward 0
Core_0_L1D_rq_merged 6551028
Core_0_L1D_rq_to_cache 4838346
Core_0_L1D_rq_full 0

Core_0_L1D_wq_access 9189920
Core_0_L1D_wq_forward 438121
Core_0_L1D_wq_merged 125580
Core_0_L1D_wq_to_cache 9064340
Core_0_L1D_wq_full 513119

Core_0_L1D_pq_access 0
Core_0_L1D_pq_forward 0
Core_0_L1D_pq_merged 0
Core_0_L1D_pq_to_cache 0
Core_0_L1D_pq_full 0

Core_0_L1D_acc_epochs 132058
Core_0_L1D_acc_level_0 132058
Core_0_L1D_acc_level_1 0
Core_0_L1D_acc_level_2 0
Core_0_L1D_acc_level_3 0
Core_0_L1D_acc_level_4 0
Core_0_L1D_acc_level_5 0
Core_0_L1D_acc_level_6 0
Core_0_L1D_acc_level_7 0
Core_0_L1D_acc_level_8 0
Core_0_L1D_acc_level_9 0

Core_0_L1I_total_access 11577458
Core_0_L1I_total_hit 11577458
Core_0_L1I_total_miss 0
Core_0_L1I_loads 11577458
Core_0_L1I_load_hit 11577458
Core_0_L1I_load_miss 0
Core_0_L1I_RFOs 0
Core_0_L1I_RFO_hit 0
Core_0_L1I_RFO_miss 0
Core_0_L1I_prefetches 0
Core_0_L1I_prefetch_hit 0
Core_0_L1I_prefetch_miss 0
Core_0_L1I_writebacks 0
Core_0_L1I_writeback_hit 0
Core_0_L1I_writeback_miss 0
Core_0_L1I_prefetch_requested 0
Core_0_L1I_prefetch_dropped 0
Core_0_L1I_prefetch_issued 0
Core_0_L1I_prefetch_filled 0
Core_0_L1I_prefetch_useful 0
Core_0_L1I_prefetch_useless 0
Core_0_L1I_prefetch_late 0
Core_0_L1I_average_miss_latency -nan

Core_0_L1I_rq_access 49999814
Core_0_L1I_rq_forward 0
Core_0_L1I_rq_merged 38422356
Core_0_L1I_rq_to_cache 11577458
Core_0_L1I_rq_full 0

Core_0_L1I_wq_access 0
Core_0_L1I_wq_forward 0
Core_0_L1I_wq_merged 0
Core_0_L1I_wq_to_cache 0
Core_0_L1I_wq_full 0

Core_0_L1I_pq_access 0
Core_0_L1I_pq_forward 0
Core_0_L1I_pq_merged 0
Core_0_L1I_pq_to_cache 0
Core_0_L1I_pq_full 0

Core_0_L1I_acc_epochs 132058
Core_0_L1I_acc_level_0 132058
Core_0_L1I_acc_level_1 0
Core_0_L1I_acc_level_2 0
Core_0_L1I_acc_level_3 0
Core_0_L1I_acc_level_4 0
Core_0_L1I_acc_level_5 0
Core_0_L1I_acc_level_6 0
Core_0_L1I_acc_level_7 0
Core_0_L1I_acc_level_8 0
Core_0_L1I_acc_level_9 0

Core_0_L2C_total_access 8419072
Core_0_L2C_total_hit 5306841
Core_0_L2C_total_miss 3112231
Core_0_L2C_loads 591746
Core_0_L2C_load_hit 453115
Core_0_L2C_load_miss 138631
Core_0_L2C_RFOs 3308206
Core_0_L2C_RFO_hit 788461
Core_0_L2C_RFO_miss 2519745
Core_0_L2C_prefetches 1210887
Core_0_L2C_prefetch_hit 757958
Core_0_L2C_prefetch_miss 452929
Core_0_L2C_writebacks 3308233
Core_0_L2C_writeback_hit 3307307
Core_0_L2C_writeback_miss 926
Core_0_L2C_prefetch_requested 2295134
Core_0_L2C_prefetch_dropped 0
Core_0_L2C_prefetch_issued 2295134
Core_0_L2C_prefetch_filled 562668
Core_0_L2C_prefetch_useful 561987
Core_0_L2C_prefetch_useless 671
Core_0_L2C_prefetch_late 96067
Core_0_L2C_average_miss_latency 717.67907

Core_0_L2C_rq_access 3899999
Core_0_L2C_rq_forward 0
Core_0_L2C_rq_merged 0
Core_0_L2C_rq_to_cache 3899968
Core_0_L2C_rq_full 0

Core_0_L2C_wq_access 3308235
Core_0_L2C_wq_forward 31
Core_0_L2C_wq_merged 0
Core_0_L2C_wq_to_cache 3308235
Core_0_L2C_wq_full 0

Core_0_L2C_pq_access 2295134
Core_0_L2C_pq_forward 0
Core_0_L2C_pq_merged 333696
Core_0_L2C_pq_to_cache 1961438
Core_0_L2C_pq_full 0

Core_0_L2C_acc_epochs 132058
Core_0_L2C_acc_level_0 612
Core_0_L2C_acc_level_1 1840
Core_0_L2C_acc_level_2 3079
Core_0_L2C_acc_level_3 4398
Core_0_L2C_acc_level_4 5726
Core_0_L2C_acc_level_5 8034
Core_0_L2C_acc_level_6 10457
Core_0_L2C_acc_level_7 12076
Core_0_L2C_acc_level_8 12623
Core_0_L2C_acc_level_9 73213

Core_0_LLC_total_access 5632854
Core_0_LLC_total_hit 2419645
Core_0_LLC_total_miss 3213209
Core_0_LLC_loads 42671
Core_0_LLC_load_hit 415
Core_0_LLC_load_miss 42256
Core_0_LLC_RFOs 2519249
Core_0_LLC_RFO_hit 745367
Core_0_LLC_RFO_miss 1773882
Core_0_LLC_prefetches 548889
Core_0_LLC_prefetch_hit 635
Core_0_LLC_prefetch_miss 548254
Core_0_LLC_writebacks 2522045
Core_0_LLC_writeback_hit 1673228
Core_0_LLC_writeback_miss 848817
Core_0_LLC_prefetch_requested 0
Core_0_LLC_prefetch_dropped 0
Core_0_LLC_prefetch_issued 0
Core_0_LLC_prefetch_filled 657929
Core_0_LLC_prefetch_useful 2
Core_0_LLC_prefetch_useless 656966
Core_0_LLC_prefetch_late 0
Core_0_LLC_average_miss_latency 679.57438

Core_0_LLC_rq_access 2562430
Core_0_LLC_rq_forward 0
Core_0_LLC_rq_merged 0
Core_0_LLC_rq_to_cache 2561934
Core_0_LLC_rq_full 0

Core_0_LLC_wq_access 2522047
Core_0_LLC_wq_forward 496
Core_0_LLC_wq_merged 0
Core_0_LLC_wq_to_cache 2522047
Core_0_LLC_wq_full 0

Core_0_LLC_pq_access 658738
Core_0_LLC_pq_forward 0
Core_0_LLC_pq_merged 0
Core_0_LLC_pq_to_cache 658738
Core_0_LLC_pq_full 0

Core_0_LLC_acc_epochs 135627
Core_0_LLC_acc_level_0 135626
Core_0_LLC_acc_level_1 1
Core_0_LLC_acc_level_2 0
Core_0_LLC_acc_level_3 0
Core_0_LLC_acc_level_4 0
Core_0_LLC_acc_level_5 0
Core_0_LLC_acc_level_6 0
Core_0_LLC_acc_level_7 0
Core_0_LLC_acc_level_8 0
Core_0_LLC_acc_level_9 0

Core_0_major_page_fault 0
Core_0_minor_page_fault 25272

scooby_st_lookup 709683
scooby_st_hit 698583
scooby_st_evict 11036
scooby_st_insert 11100
scooby_st_streaming 0

scooby_predict_called 709683
scooby_predict_out_of_bounds 21665
scooby_predict_action_1 365509
scooby_predict_issue_action_1 283101
scooby_predict_hit_action_1 82408
scooby_predict_out_of_bounds_action_1 5782
scooby_predict_action_3 321598
scooby_predict_issue_action_3 268721
scooby_predict_hit_action_3 52877
scooby_predict_out_of_bounds_action_3 15681
scooby_predict_action_4 83
scooby_predict_issue_action_4 83
scooby_predict_hit_action_4 0
scooby_predict_out_of_bounds_action_4 3
scooby_predict_action_5 82
scooby_predict_issue_action_5 82
scooby_predict_hit_action_5 0
scooby_predict_out_of_bounds_action_5 4
scooby_predict_action_10 79
scooby_predict_issue_action_10 79
scooby_predict_hit_action_10 0
scooby_predict_out_of_bounds_action_10 14
scooby_predict_action_11 72
scooby_predict_issue_action_11 71
scooby_predict_hit_action_11 1
scooby_predict_out_of_bounds_action_11 9
scooby_predict_action_12 80
scooby_predict_issue_action_12 80
scooby_predict_hit_action_12 0
scooby_predict_out_of_bounds_action_12 14
scooby_predict_action_22 61
scooby_predict_issue_action_22 61
scooby_predict_hit_action_22 0
scooby_predict_out_of_bounds_action_22 29
scooby_predict_action_23 52
scooby_predict_issue_action_23 52
scooby_predict_hit_action_23 0
scooby_predict_out_of_bounds_action_23 28
scooby_predict_action_30 47
scooby_predict_issue_action_30 47
scooby_predict_hit_action_30 0
scooby_predict_out_of_bounds_action_30 52
scooby_predict_action_32 35
scooby_predict_issue_action_32 35
scooby_predict_hit_action_32 0
scooby_predict_out_of_bounds_action_32 36
scooby_predict_action_-1 90
scooby_predict_issue_action_-1 19
scooby_predict_hit_action_-1 71
scooby_predict_out_of_bounds_action_-1 2
scooby_predict_action_-3 77
scooby_predict_issue_action_-3 12
scooby_predict_hit_action_-3 65
scooby_predict_out_of_bounds_action_-3 6
scooby_predict_action_-6 69
scooby_predict_issue_action_-6 10
scooby_predict_hit_action_-6 59
scooby_predict_out_of_bounds_action_-6 5
scooby_predict_action_0 84
scooby_predict_issue_action_0 0
scooby_predict_hit_action_0 0
scooby_predict_out_of_bounds_action_0 0
scooby_predict_multi_deg_called 482252
scooby_predict_predicted 2295134
scooby_predict_multi_deg 1742681
scooby_predict_multi_deg_2 464680
scooby_predict_multi_deg_3 401558
scooby_predict_multi_deg_4 384043
scooby_predict_multi_deg_5 254874
scooby_predict_multi_deg_6 237526
scooby_predict_multi_deg_7 0
scooby_predict_multi_deg_8 0
scooby_predict_multi_deg_9 0
scooby_predict_multi_deg_10 0
scooby_predict_multi_deg_11 0
scooby_predict_multi_deg_12 0
scooby_predict_multi_deg_13 0
scooby_predict_multi_deg_14 0
scooby_predict_multi_deg_15 0
scooby_predict_multi_deg_16 0

scooby_selected_deg_1 70201
scooby_selected_deg_2 45639
scooby_selected_deg_3 0
scooby_selected_deg_4 112211
scooby_selected_deg_5 0
scooby_selected_deg_6 324402
scooby_selected_deg_7 0
scooby_selected_deg_8 0
scooby_selected_deg_9 0
scooby_selected_deg_10 0
scooby_selected_deg_11 0
scooby_selected_deg_12 0
scooby_selected_deg_13 0
scooby_selected_deg_14 0
scooby_selected_deg_15 0
scooby_selected_deg_16 0

scooby_state_401cb0|0|0 4418,1,0,0,0,0,0,2,0,2,2,0,0,0,0,4425,
scooby_state_401cb0|1|0 4416,0,0,1,2,1,0,1,1,0,1,0,0,1,0,4424,
scooby_state_401cb0|3|3 4408,0,0,0,0,1,1,0,1,1,1,2,0,0,1,4416,
scooby_state_401cb0|4|4 2285,0,0,0,0,1,0,0,0,0,0,0,0,0,1,2287,
scooby_state_401cb0|61|4 2210,0,0,0,0,0,0,0,1,1,0,0,0,1,0,2213,
scooby_state_401cb0|42|4 2207,0,2,0,0,0,0,0,0,0,1,1,0,1,1,2213,
scooby_state_401cb0|21|4 2209,0,0,0,0,0,1,2,0,1,0,0,0,0,0,2213,
scooby_state_401cb0|17|4 2211,0,0,0,0,0,0,0,0,0,0,0,1,1,0,2213,
scooby_state_401cb0|49|3 2206,1,1,1,0,0,0,1,0,1,1,0,0,0,1,2213,
scooby_state_401cb0|11|4 2208,0,1,0,0,0,0,0,1,0,1,1,0,0,1,2213,
scooby_state_401cb0|8|4 2211,0,0,2,0,0,0,0,0,0,0,0,0,0,0,2213,
scooby_state_401cb0|51|4 2210,0,1,0,0,0,0,1,1,0,0,0,0,0,0,2213,
scooby_state_401cb0|8|3 2211,0,0,0,0,0,1,0,0,0,1,0,0,0,0,2213,
scooby_state_401cb0|13|3 2211,0,0,1,0,1,0,0,0,0,0,0,0,0,0,2213,
scooby_state_401cb0|38|4 2212,0,0,0,0,1,0,0,0,0,0,0,0,0,0,2213,
scooby_state_401cb0|58|3 2208,0,0,1,1,0,0,0,0,0,0,0,0,1,2,2213,
scooby_state_401cb0|13|4 2207,0,1,1,0,0,0,0,2,1,1,0,0,0,0,2213,
scooby_state_401cb0|56|4 2208,0,0,0,0,0,0,1,0,0,1,1,1,1,0,2213,
scooby_state_401cb0|16|4 2208,1,0,0,1,1,0,0,0,0,0,1,0,1,0,2213,
scooby_state_401cb0|33|3 2208,0,0,1,0,0,0,0,0,1,1,0,1,1,0,2213,
scooby_state_401cb0|15|3 2211,0,1,0,0,0,1,0,0,0,0,0,0,0,0,2213,
scooby_state_401cb0|35|3 2207,0,1,0,0,0,2,1,0,0,2,0,0,0,0,2213,
scooby_state_401cb0|57|4 2210,1,0,0,0,0,1,0,0,1,0,0,0,0,0,2213,
scooby_state_401cb0|7|4 2210,0,0,0,0,0,1,0,0,1,0,0,0,0,1,2213,
scooby_state_401cb0|29|3 2210,0,1,0,0,0,0,0,1,0,0,0,0,0,1,2213,
scooby_state_401cb0|18|3 2207,1,0,0,1,0,1,0,0,0,0,1,1,1,0,2213,
scooby_state_401cb0|5|3 2206,0,0,0,1,2,0,2,0,0,0,0,1,1,0,2213,
scooby_state_401cb0|36|4 2211,0,1,0,0,0,0,0,0,0,0,0,1,0,0,2213,
scooby_state_401cb0|37|4 2209,1,0,0,0,1,1,0,0,1,0,0,0,0,0,2213,
scooby_state_401cb0|23|3 2209,1,0,1,0,1,0,0,0,0,0,0,1,0,0,2213,
scooby_state_401cb0|6|3 2210,0,0,0,0,2,1,0,0,0,0,0,0,0,0,2213,
scooby_state_401cb0|2|0 2212,0,0,1,0,0,0,0,0,0,0,0,0,0,0,2213,
scooby_state_401cb0|28|3 2211,0,1,0,0,0,0,0,0,0,0,0,1,0,0,2213,
scooby_state_401cb0|12|4 2208,0,1,0,0,0,0,3,0,1,0,0,0,0,0,2213,
scooby_state_401cb0|48|3 2209,0,1,1,0,0,0,0,0,1,0,1,0,0,0,2213,
scooby_state_401cb0|53|3 2209,0,0,0,1,0,0,1,0,0,0,0,0,1,1,2213,
scooby_state_401cb0|46|4 2210,0,0,0,0,0,0,2,0,0,0,0,0,0,1,2213,
scooby_state_401cb0|43|4 2211,1,0,0,0,0,1,0,0,0,0,0,0,0,0,2213,
scooby_state_401cb0|41|4 2210,0,0,1,0,0,0,0,0,1,0,1,0,0,0,2213,
scooby_state_401cb0|38|3 2209,0,0,0,1,0,0,1,0,1,0,1,0,0,0,2213,
scooby_state_401cb0|31|4 2208,0,0,0,0,0,0,2,0,0,0,0,0,1,2,2213,
scooby_state_401cb0|27|4 2211,0,0,1,0,0,0,0,0,0,0,0,0,1,0,2213,
scooby_state_401cb0|54|3 2210,0,0,0,0,0,0,0,0,2,0,0,0,1,0,2213,
scooby_state_401cb0|45|3 2210,0,0,0,0,0,0,0,0,0,2,0,1,0,0,2213,
scooby_state_401cb0|9|3 2211,0,0,0,0,0,0,1,0,0,0,1,0,0,0,2213,
scooby_state_401cb0|34|3 2208,0,0,1,0,0,1,0,0,0,1,1,1,0,0,2213,
scooby_state_401cb0|25|3 2210,0,0,0,2,0,1,0,0,0,0,0,0,0,0,2213,
scooby_state_401cb0|47|4 2207,0,0,0,0,1,1,0,1,0,1,0,1,0,1,2213,
scooby_state_401cb0|52|4 2209,1,1,0,1,0,0,0,0,0,0,0,1,0,0,2213,
scooby_state_401cb0|39|3 2207,2,0,0,0,0,0,1,0,1,0,0,1,0,1,2213,
scooby_state_401cb0|20|3 2209,0,2,0,1,0,0,0,0,0,0,0,1,0,0,2213,
scooby_state_401cb0|44|3 2211,0,0,0,0,0,1,0,0,0,0,0,1,0,0,2213,
scooby_state_401cb0|22|4 2204,0,1,1,1,0,0,1,0,2,1,1,0,0,1,2213,
scooby_state_401cb0|28|4 2206,1,0,1,0,0,0,1,0,2,1,1,0,0,0,2213,
scooby_state_401cb0|63|3 2212,0,0,0,0,0,0,0,0,0,1,0,0,0,0,2213,
scooby_state_401cb0|24|3 2207,0,1,1,0,0,1,0,1,0,0,1,1,0,0,2213,
scooby_state_401cb0|19|3 2210,0,0,0,0,0,0,0,0,0,0,1,0,1,1,2213,
scooby_state_401cb0|48|4 2208,0,0,0,0,0,1,0,0,0,0,1,1,0,2,2213,
scooby_state_401cb0|33|4 2206,1,1,0,1,1,0,2,0,0,0,0,0,1,0,2213,
scooby_state_401cb0|14|3 2211,0,0,0,0,0,0,0,0,1,1,0,0,0,0,2213,
scooby_state_401cb0|30|3 2210,0,0,0,0,0,1,0,0,1,0,0,0,1,0,2213,
scooby_state_401cb0|43|3 2211,0,0,0,1,0,0,0,0,0,0,1,0,0,0,2213,
scooby_state_401cb0|40|3 2208,1,0,1,0,0,0,0,0,0,0,1,2,0,0,2213,
scooby_state_401cb0|62|4 2207,0,1,0,2,0,0,1,0,0,0,1,0,1,0,2213,
scooby_state_401cb0|18|4 2210,0,0,1,0,0,1,0,0,0,1,0,0,0,0,2213,
scooby_state_401cb0|59|3 2212,1,0,0,0,0,0,0,0,0,0,0,0,0,0,2213,
scooby_state_401cb0|10|3 2212,0,0,0,1,0,0,0,0,0,0,0,0,0,0,2213,
scooby_state_401cb0|35|4 2208,0,0,0,1,0,1,0,0,0,0,0,0,1,1,2212,
scooby_state_401cb0|39|4 2205,1,0,2,1,0,1,0,0,1,0,1,0,0,0,2212,
scooby_state_401cb0|49|4 2210,0,0,1,0,1,0,0,0,0,0,0,0,0,0,2212,
scooby_state_401cb0|51|3 2205,0,2,0,0,0,1,0,1,1,1,0,0,0,1,2212,
scooby_state_401cb0|2|2 2210,0,0,0,0,0,0,0,0,0,0,0,1,1,0,2212,
scooby_state_401cb0|59|4 2210,0,0,1,0,0,0,0,0,0,0,0,1,0,0,2212,
scooby_state_401cb0|57|3 2210,0,1,0,0,0,0,1,0,0,0,0,0,0,0,2212,
scooby_state_401cb0|61|3 2207,1,0,0,0,2,0,0,2,0,0,0,0,0,0,2212,
scooby_state_401cb0|54|4 2208,0,1,0,1,0,0,0,0,1,1,0,0,0,0,2212,
scooby_state_401cb0|7|3 2208,0,0,0,0,1,0,0,1,0,0,1,0,0,1,2212,
scooby_state_401cb0|46|3 2208,0,0,0,1,0,1,0,0,0,0,0,1,1,0,2212,
scooby_state_401cb0|20|4 2209,0,1,0,0,0,0,0,0,0,0,2,0,0,0,2212,
scooby_state_401cb0|10|4 2209,1,1,0,0,0,0,1,0,0,0,0,0,0,0,2212,
scooby_state_401cb0|12|3 2206,0,0,0,0,1,0,0,0,1,0,1,0,2,1,2212,
scooby_state_401cb0|41|3 2209,1,0,1,0,0,0,0,0,0,0,0,0,1,0,2212,
scooby_state_401cb0|58|4 2208,1,0,0,0,0,0,0,1,0,0,0,0,2,0,2212,
scooby_state_401cb0|22|3 2208,0,1,0,0,1,1,1,0,0,0,0,0,0,0,2212,
scooby_state_401cb0|6|4 2211,0,0,0,0,0,0,0,0,1,0,0,0,0,0,2212,
scooby_state_401cb0|25|4 2207,0,0,0,0,0,1,0,0,0,2,1,0,0,1,2212,
scooby_state_401cb0|27|3 2210,0,0,0,1,0,0,0,0,1,0,0,0,0,0,2212,
scooby_state_401cb0|32|3 2206,1,0,0,0,1,0,0,0,1,1,0,1,0,1,2212,
scooby_state_401cb0|17|3 2211,0,1,0,0,0,0,0,0,0,0,0,0,0,0,2212,
scooby_state_401cb0|53|4 2212,0,0,0,0,0,0,0,0,0,0,0,0,0,0,2212,
scooby_state_401cb0|42|3 2211,0,1,0,0,0,0,0,0,0,0,0,0,0,0,2212,
scooby_state_401cb0|60|3 2209,2,0,0,0,0,0,0,0,0,0,0,0,0,1,2212,
scooby_state_401cb0|15|4 2209,0,0,1,0,0,0,0,1,0,0,0,0,1,0,2212,
scooby_state_401cb0|50|3 2212,0,0,0,0,0,0,0,0,0,0,0,0,0,0,2212,
scooby_state_401cb0|55|4 2210,0,0,0,0,0,0,1,0,0,0,0,0,0,1,2212,
scooby_state_401cb0|5|4 2207,0,0,0,1,0,2,0,1,0,0,0,0,0,1,2212,
scooby_state_401cb0|32|4 2210,0,0,1,1,0,0,0,0,0,0,0,0,0,0,2212,
scooby_state_401cb0|21|3 2208,0,1,1,0,0,0,1,0,0,0,0,1,0,0,2212,
scooby_state_401cb0|55|3 2208,0,0,0,0,1,0,0,0,1,1,0,0,1,0,2212,
scooby_state_401cb0|14|4 2207,0,0,2,0,0,0,1,1,1,0,0,0,0,0,2212,
scooby_state_401cb0|16|3 2210,0,0,0,0,0,0,0,0,0,0,1,1,0,0,2212,
scooby_state_401cb0|36|3 2210,0,1,0,1,0,0,0,0,0,0,0,0,0,0,2212,
scooby_state_401cb0|24|4 2210,0,0,0,0,0,0,0,0,0,0,1,0,1,0,2212,
scooby_state_401cb0|56|3 2206,1,0,0,1,0,0,0,0,0,1,1,1,0,1,2212,
scooby_state_401cb0|26|3 2206,0,0,0,1,0,1,1,0,1,0,0,0,1,1,2212,
scooby_state_401cb0|23|4 2212,0,0,0,0,0,0,0,0,0,0,0,0,0,0,2212,
scooby_state_401cb0|60|4 2207,1,0,1,1,0,1,0,0,0,0,0,1,0,0,2212,
scooby_state_401cb0|29|4 2210,0,0,0,0,0,0,0,1,1,0,0,0,0,0,2212,
scooby_state_401cb0|45|4 2208,0,2,0,0,0,0,0,0,0,0,1,0,0,1,2212,
scooby_state_401cb0|44|4 2206,1,0,0,0,0,1,0,0,3,0,0,0,0,1,2212,
scooby_state_401cb0|11|3 2211,0,0,0,0,0,0,0,1,0,0,0,0,0,0,2212,
scooby_state_401cb0|34|4 2210,0,0,0,0,0,0,0,0,1,0,0,0,1,0,2212,
scooby_state_401cb0|50|4 2206,1,0,0,1,0,0,1,1,1,1,0,0,0,0,2212,
scooby_state_401cb0|19|4 2210,1,0,0,0,0,0,0,0,0,0,0,1,0,0,2212,
scooby_state_401cb0|62|3 2209,0,0,0,0,0,0,0,1,0,0,0,2,0,0,2212,
scooby_state_401cb0|9|4 2204,1,0,2,0,2,0,0,0,1,0,2,0,0,0,2212,
scooby_state_401cb0|47|3 2212,0,0,0,0,0,0,0,0,0,0,0,0,0,0,2212,
scooby_state_401cb0|63|4 2208,0,0,1,0,1,0,0,0,0,0,1,0,1,0,2212,
scooby_state_401cb0|52|3 2211,0,0,0,1,0,0,0,0,0,0,0,0,0,0,2212,
scooby_state_401cb0|40|4 2201,2,0,1,1,0,2,0,0,1,0,0,2,0,2,2212,
scooby_state_401cb0|31|3 2208,0,0,0,0,3,0,0,0,0,0,0,1,0,0,2212,
scooby_state_401cb0|26|4 2209,2,0,0,0,0,0,0,0,0,0,1,0,0,0,2212,
scooby_state_401cb0|37|3 2209,0,0,0,2,0,0,0,0,0,1,0,0,0,0,2212,
scooby_state_401cb0|30|4 2207,0,0,0,0,1,1,0,1,1,0,0,0,0,0,2211,
scooby_state_401cb0|4|3 2129,0,0,0,0,0,0,1,0,0,0,0,0,0,0,2130,
scooby_state_401e02|22|-2 1453,0,0,0,0,0,0,0,1,0,0,0,0,1,1,1456,
scooby_state_401e02|30|-2 1450,1,0,0,3,0,0,0,0,0,0,0,0,0,1,1455,
scooby_state_401e02|10|-2 1449,1,0,0,0,0,0,0,0,0,0,0,0,1,0,1451,
scooby_state_401e67|11|1 1,1446,0,1,0,0,0,0,0,0,0,0,0,0,0,1448,
scooby_state_401e67|31|1 1,1442,1,0,0,0,0,2,0,0,0,0,0,0,0,1446,
scooby_state_401e67|23|1 1,1442,0,2,0,0,0,0,0,1,0,0,0,0,0,1446,
scooby_state_401e02|42|-2 1446,0,0,0,0,0,0,0,0,0,0,0,0,0,0,1446,
scooby_state_401e67|43|1 0,1445,0,0,0,0,0,0,0,0,0,0,0,0,0,1445,
scooby_state_401e33|45|-1 1,1431,0,0,0,0,0,0,0,1,0,1,0,1,0,1435,
scooby_state_401e02|54|-2 1429,1,0,0,1,0,0,0,1,0,0,0,0,1,0,1433,
scooby_state_401e02|62|2 1429,0,0,0,0,1,0,0,0,0,0,0,0,1,0,1431,
scooby_state_401e33|57|-1 1,1425,0,0,1,0,0,0,0,0,0,1,0,0,0,1428,
scooby_state_401e33|13|-1 1,1425,0,0,0,0,0,0,0,1,0,0,0,0,0,1427,
scooby_state_401e02|14|-2 1417,1,0,1,0,0,0,0,1,2,0,0,0,0,1,1423,
scooby_state_401e33|25|-1 3,1416,0,0,1,0,0,0,0,0,0,0,0,0,1,1421,
scooby_state_401e02|34|-2 1419,0,0,0,0,0,1,1,0,0,0,0,0,0,0,1421,
scooby_state_401e67|55|1 0,1414,2,0,0,0,0,0,0,0,1,0,0,0,0,1417,
scooby_state_401e33|33|-1 0,1411,0,0,1,0,0,0,0,0,1,0,0,0,0,1413,
scooby_state_401e67|35|1 1,1404,0,0,1,1,1,0,0,0,0,0,1,0,0,1409,
scooby_state_401e33|5|-1 2,1406,0,0,0,0,0,1,0,0,0,0,0,0,0,1409,
scooby_state_401e02|2|-2 1407,0,0,0,0,0,0,0,0,0,1,0,0,0,0,1408,
scooby_state_401e02|46|-2 1406,0,0,0,0,0,0,1,0,0,0,0,0,1,0,1408,
scooby_state_401e02|18|-2 1404,0,0,0,1,0,0,0,0,0,1,1,0,0,0,1407,
scooby_state_401e67|63|1 1,1400,0,0,0,0,0,0,0,0,0,1,0,1,1,1404,
scooby_state_401e02|38|-2 1400,0,0,0,1,0,0,0,0,0,0,0,0,0,1,1402,
scooby_state_401e33|37|-1 1,1397,0,0,1,0,1,0,0,0,0,0,0,0,0,1400,
scooby_state_401e67|15|1 0,1396,0,0,0,0,0,2,0,0,0,1,0,0,0,1399,
scooby_state_401e67|47|1 1,1393,0,0,0,1,1,1,0,0,0,0,0,0,0,1397,
scooby_state_401e67|3|1 1,1388,0,1,0,1,1,0,0,1,0,0,0,0,0,1393,
scooby_state_401e02|6|-2 1388,0,0,0,1,0,0,0,2,1,0,0,0,0,0,1392,
scooby_state_401e67|39|1 1,1385,1,0,0,0,0,0,1,0,0,0,0,0,0,1388,
scooby_state_401e02|25|-2 1386,0,0,0,0,0,1,0,0,0,0,0,0,0,0,1387,
scooby_state_401e67|19|1 0,1384,0,0,0,0,0,1,1,1,0,0,0,0,0,1387,
scooby_state_401e02|50|-2 1377,1,1,0,1,0,0,0,0,2,0,0,0,0,1,1383,
scooby_state_401e33|49|-1 1,1379,0,0,0,0,0,1,0,0,0,0,2,0,0,1383,
scooby_state_401e33|17|-1 1,1380,0,0,0,1,0,0,0,0,0,0,0,1,0,1383,
scooby_state_401e33|1|-1 1,1378,1,0,0,1,0,0,0,0,0,0,1,0,0,1382,
scooby_state_401e33|21|-1 0,1382,0,0,0,0,0,0,0,0,0,0,0,0,0,1382,
scooby_state_401e02|58|-2 1378,0,1,0,0,0,0,0,0,1,0,1,0,0,0,1381,
scooby_state_401e67|7|1 0,1375,1,0,0,0,0,0,0,0,0,1,0,1,0,1378,
scooby_state_401e67|26|1 1,1375,0,1,0,0,0,0,0,0,0,0,1,0,0,1378,
scooby_state_401e02|26|-2 1374,0,1,0,1,1,0,0,0,0,0,0,0,0,0,1377,
scooby_state_401e67|51|1 1,1370,0,1,0,0,1,1,0,0,0,0,0,1,0,1375,
scooby_state_401e02|13|-2 1373,0,0,1,0,0,0,0,0,0,1,0,0,0,0,1375,
scooby_state_401e67|59|1 1,1363,1,0,0,0,0,0,0,0,1,0,0,2,0,1368,
scooby_state_401e67|27|1 1,1360,1,1,1,0,0,0,0,1,0,0,0,0,1,1366,
scooby_state_401e67|14|1 1,1353,0,0,0,0,2,2,0,1,0,0,0,0,1,1360,
scooby_state_401e33|53|-1 1,1355,0,0,0,0,1,0,1,0,0,0,0,1,1,1360,
scooby_state_401e02|5|-2 1356,0,1,0,0,1,0,1,0,0,0,0,0,0,0,1359,
scooby_state_401e02|57|-2 1353,0,0,2,0,0,1,1,1,1,0,0,0,0,0,1359,
scooby_state_401e33|23|-1 1,1353,0,1,1,0,0,0,0,1,0,0,0,0,1,1358,
scooby_state_401e33|9|-1 0,1357,0,0,0,0,0,0,0,0,0,0,0,0,0,1357,
scooby_state_401e33|55|-1 1,1354,0,0,0,0,0,1,0,0,0,0,0,0,0,1356,
scooby_state_401e02|37|-2 1353,0,0,0,0,1,0,0,0,1,0,0,1,0,0,1356,
scooby_state_401e33|61|-1 0,1356,0,0,0,0,0,0,0,0,0,0,0,0,0,1356,
scooby_state_401e33|43|-1 1,1353,0,0,0,0,0,0,0,0,0,0,0,1,0,1355,
scooby_state_401e02|40|-2 1354,0,0,1,0,0,0,0,0,0,0,0,0,0,0,1355,
scooby_state_401e33|28|-1 1,1352,0,0,0,0,0,0,1,0,0,0,1,0,0,1355,
scooby_state_401e33|20|-1 1,1353,0,0,0,0,0,0,0,0,0,0,0,0,0,1354,
scooby_state_401e33|11|-1 1,1349,0,0,0,0,0,0,1,0,0,0,0,0,0,1351,
scooby_state_401e02|8|-2 1348,0,0,0,1,0,0,0,0,0,0,0,0,0,0,1349,
scooby_state_401e33|41|-1 0,1346,0,0,1,0,0,1,1,0,0,0,0,0,0,1349,
scooby_state_401e02|45|-2 1346,0,0,0,0,0,1,0,0,0,0,0,1,0,0,1348,
scooby_state_401e02|27|-2 1348,0,0,0,0,0,0,0,0,0,0,0,0,0,0,1348,
scooby_state_401e67|6|1 1,1344,1,1,0,0,0,0,1,0,0,0,0,0,0,1348,
scooby_state_401e02|20|-2 1342,0,0,0,1,0,0,0,0,0,2,0,0,1,1,1347,
scooby_state_401e33|35|-1 0,1345,0,0,0,0,0,0,0,1,0,0,0,0,0,1346,
scooby_state_401e67|41|1 3,1337,0,0,0,0,2,1,0,1,0,0,0,1,0,1345,
scooby_state_401e67|38|1 0,1342,0,0,0,0,0,1,2,0,0,0,0,0,0,1345,
scooby_state_401e33|8|-1 1,1339,0,0,0,1,1,0,0,0,0,0,0,0,0,1342,
scooby_state_401e02|59|-2 1341,0,0,0,0,0,0,0,0,0,1,0,0,0,0,1342,
scooby_state_401e02|28|-2 1339,1,0,0,0,0,0,1,0,0,0,0,0,0,0,1341,
scooby_state_401e02|60|-2 1338,0,0,0,0,0,0,0,1,0,0,0,0,0,1,1340,
scooby_state_401e33|3|-1 1,1337,0,0,0,0,0,0,0,1,1,0,0,0,0,1340,
scooby_state_401e33|63|2 1,1336,1,0,0,0,0,0,0,0,1,0,0,0,0,1339,
scooby_state_401e67|58|1 1,1333,0,0,0,0,2,0,1,0,0,1,0,1,0,1339,
scooby_state_401e33|29|-1 1,1334,0,0,0,1,0,0,0,0,1,0,0,0,0,1337,
scooby_state_401e02|32|-2 1333,0,0,0,0,0,1,0,0,0,0,0,0,1,1,1336,
scooby_state_401e67|21|1 1,1334,1,0,0,0,0,0,0,0,0,0,0,0,0,1336,
scooby_state_401e02|52|-2 1332,0,0,0,2,0,0,0,0,1,0,1,0,0,0,1336,
scooby_state_401e33|40|-1 0,1334,0,0,0,0,0,0,1,0,0,0,1,0,0,1336,
scooby_state_401e33|31|-1 1,1331,0,0,1,1,0,0,0,0,1,0,0,0,0,1335,
scooby_state_401e02|33|-2 1332,0,0,0,0,0,0,1,1,0,0,1,0,0,0,1335,
scooby_state_401e67|28|1 2,1329,0,1,0,0,0,0,1,0,0,1,0,0,1,1335,
scooby_state_401e02|1|-2 1332,0,0,0,1,0,0,0,0,0,1,0,0,0,0,1334,
scooby_state_401e67|53|1 2,1331,0,0,0,0,0,0,0,0,0,0,0,1,0,1334,
scooby_state_401e67|60|1 1,1328,0,0,0,0,0,1,2,0,0,1,0,1,0,1334,
scooby_state_401e02|15|-2 1331,0,0,0,0,0,1,1,0,0,0,0,0,0,0,1333,
scooby_state_401e67|61|1 2,1328,0,0,0,0,0,0,0,1,1,0,0,1,0,1333,
scooby_state_401e33|60|-1 1,1326,0,0,2,0,0,1,1,0,0,1,0,0,0,1332,
scooby_state_401e67|46|1 1,1331,0,0,0,0,0,0,0,0,0,0,0,0,0,1332,
scooby_state_401e33|18|-1 1,1328,1,0,0,0,0,0,0,0,0,0,0,0,0,1330,
scooby_state_401e33|39|-1 2,1326,0,0,0,0,1,0,0,0,0,0,0,0,0,1329,
scooby_state_401e67|9|1 1,1321,1,0,0,1,2,2,0,0,0,0,1,0,0,1329,
scooby_state_401e67|33|1 1,1327,0,0,0,0,1,0,0,0,0,0,0,0,0,1329,
scooby_state_401e02|47|-2 1326,0,0,0,0,0,0,0,0,1,0,1,0,0,0,1328,
scooby_state_401e02|35|-2 1328,0,0,0,0,0,0,0,0,0,0,0,0,0,0,1328,
scooby_state_401e67|29|1 0,1328,0,0,0,0,0,0,0,0,0,0,0,0,0,1328,
scooby_state_401e33|32|-1 1,1324,0,0,0,0,0,0,1,0,0,1,0,0,0,1327,
scooby_state_401e33|16|-1 1,1326,0,0,0,0,0,0,0,0,0,0,0,0,0,1327,
scooby_state_401e02|7|-2 1325,0,0,0,0,0,0,0,0,0,0,1,1,0,0,1327,
scooby_state_401e02|44|-2 1326,0,0,0,0,0,0,0,0,1,0,0,0,0,0,1327,
scooby_state_401e33|50|-1 1,1322,0,0,0,0,2,0,0,0,0,0,0,1,0,1326,
scooby_state_401e33|44|-1 1,1324,0,0,0,0,0,0,0,0,0,0,0,0,0,1325,
scooby_state_401e33|47|-1 0,1319,1,1,0,1,1,0,0,0,0,2,0,0,0,1325,
scooby_state_401e02|53|-2 1323,0,0,0,0,0,0,0,1,0,0,0,0,0,0,1324,
scooby_state_401e67|34|1 0,1317,0,0,1,0,1,0,0,1,0,0,1,1,0,1322,
scooby_state_401e02|12|-2 1318,0,0,0,1,1,0,0,0,1,0,0,0,0,0,1321,
scooby_state_401e02|49|-2 1318,0,0,1,0,1,0,0,0,1,0,0,0,0,0,1321,
scooby_state_401e67|8|1 1,1318,0,0,0,0,0,0,0,1,0,0,0,0,1,1321,
scooby_state_401e67|36|1 1,1316,0,0,0,0,0,0,0,0,0,2,1,0,0,1320,
scooby_state_401e02|29|-2 1315,0,0,1,2,0,0,0,0,0,0,0,0,0,0,1318,
scooby_state_401e33|52|-1 0,1315,0,0,0,0,1,0,0,0,0,1,0,0,0,1317,
scooby_state_401e02|39|-2 1312,1,1,0,0,1,0,0,0,0,0,0,1,0,1,1317,
scooby_state_401e33|38|-1 1,1309,0,1,1,0,1,1,0,1,0,0,1,0,0,1316,
scooby_state_401e02|61|-2 1312,1,0,1,0,0,0,0,1,0,0,1,0,0,0,1316,
scooby_state_401e33|36|-1 0,1314,0,0,1,0,0,0,0,0,0,0,0,0,0,1315,
scooby_state_401e67|13|1 1,1312,0,0,0,1,0,0,0,0,0,1,0,0,0,1315,
scooby_state_401e33|7|-1 0,1315,0,0,0,0,0,0,0,0,0,0,0,0,0,1315,
scooby_state_401e33|62|-1 0,1313,0,0,0,0,0,0,0,0,0,0,1,0,0,1314,
scooby_state_401e33|51|-1 1,1310,0,0,0,0,0,1,0,0,1,1,0,0,0,1314,
scooby_state_401e67|48|1 2,1308,0,0,1,0,1,1,0,0,0,0,1,0,0,1314,
scooby_state_401e67|50|1 0,1313,0,0,0,0,0,0,0,1,0,0,0,0,0,1314,
scooby_state_401e02|16|-2 1306,0,1,0,0,0,0,0,2,1,0,2,0,0,0,1312,
scooby_state_401e02|9|-2 1308,0,0,0,0,0,0,1,0,0,0,1,2,0,0,1312,
scooby_state_401e33|26|-1 0,1312,0,0,0,0,0,0,0,0,0,0,0,0,0,1312,
scooby_state_401e33|15|-1 0,1309,0,0,0,1,0,1,1,0,0,0,0,0,0,1312,
scooby_state_401e33|48|-1 1,1309,0,0,0,0,1,0,1,0,0,0,0,0,0,1312,
scooby_state_401e67|62|1 1,1309,0,0,0,0,0,0,0,0,0,0,0,0,1,1311,
scooby_state_401e02|21|-2 1309,0,0,0,0,0,0,1,0,0,0,0,0,0,1,1311,
scooby_state_401e67|30|1 1,1308,0,0,1,0,0,0,0,0,0,0,0,0,0,1310,
scooby_state_401e02|17|-2 1306,0,0,0,0,0,0,1,0,1,0,0,1,0,0,1309,
scooby_state_401e33|12|-1 0,1307,0,0,0,0,0,0,0,1,0,1,0,0,0,1309,
scooby_state_401e33|6|-1 2,1300,0,0,1,0,2,0,1,0,0,0,1,2,0,1309,
scooby_state_401e67|45|1 0,1308,0,0,0,0,0,0,0,1,0,0,0,0,0,1309,
scooby_state_401e02|56|-2 1305,0,1,0,0,0,0,1,0,0,0,1,0,0,1,1309,
scooby_state_401e67|22|1 0,1305,1,0,0,1,0,1,0,0,0,0,0,0,0,1308,
scooby_state_401e67|54|1 0,1307,0,0,0,0,0,0,0,0,0,0,0,0,0,1307,
scooby_state_401e67|18|1 1,1302,0,0,0,2,0,0,0,0,2,0,0,0,0,1307,
scooby_state_401e67|2|1 1,1304,0,0,0,0,1,0,0,0,0,0,1,0,0,1307,
scooby_state_401e33|19|-1 0,1304,0,1,0,0,0,0,0,0,0,1,0,0,0,1306,
scooby_state_401e33|4|-1 0,1305,0,0,0,0,0,0,0,0,0,0,0,0,0,1305,
scooby_state_401e02|4|-2 1305,0,0,0,0,0,0,0,0,0,0,0,0,0,0,1305,
scooby_state_401e33|30|-1 1,1301,1,0,0,0,0,0,0,0,0,0,0,0,1,1304,
scooby_state_401e33|58|-1 1,1300,1,0,0,0,0,0,0,0,2,0,0,0,0,1304,
scooby_state_401e33|56|-1 0,1303,0,0,1,0,0,0,0,0,0,0,0,0,0,1304,
scooby_state_401e33|24|-1 1,1301,0,0,0,0,1,0,1,0,0,0,0,0,0,1304,
scooby_state_401e02|55|-2 1303,0,0,0,0,0,0,0,0,0,0,0,0,0,1,1304,
scooby_state_401e67|10|1 0,1300,0,0,1,1,0,0,0,0,1,1,0,0,0,1304,
scooby_state_401e67|40|1 0,1302,0,0,0,0,0,0,0,1,0,0,0,0,0,1303,
scooby_state_401e67|16|1 1,1301,0,0,0,0,0,0,0,0,0,0,0,0,0,1302,
scooby_state_401e33|10|-1 1,1300,0,0,0,1,0,0,0,0,0,0,0,0,0,1302,
scooby_state_401e33|42|-1 0,1301,0,0,0,0,0,0,0,0,0,0,0,0,0,1301,
scooby_state_401e02|41|-2 1299,0,0,0,1,1,0,0,0,0,0,0,0,0,0,1301,
scooby_state_401e02|48|-2 1298,0,0,0,1,0,1,0,0,0,0,0,0,0,0,1300,
scooby_state_401e33|59|-1 2,1296,0,0,0,0,0,0,0,0,0,0,0,0,0,1298,
scooby_state_401e67|5|1 0,1298,0,0,0,0,0,0,0,0,0,0,0,0,0,1298,
scooby_state_401e67|42|1 1,1293,1,1,0,0,0,0,0,0,0,0,1,0,0,1297,
scooby_state_401e33|54|-1 1,1288,2,0,0,0,1,0,0,1,0,1,1,0,1,1296,
scooby_state_401e33|14|-1 0,1295,0,0,1,0,0,0,0,0,0,0,0,0,0,1296,
scooby_state_401e02|24|-2 1295,0,1,0,0,0,0,0,0,0,0,0,0,0,0,1296,
scooby_state_401e02|23|-2 1290,2,1,0,0,1,0,0,0,0,0,0,0,0,0,1294,
scooby_state_401e33|27|-1 1,1287,0,0,1,1,0,0,1,1,0,0,0,0,0,1292,
scooby_state_401e67|24|1 0,1287,0,0,0,0,0,0,1,0,0,1,0,0,0,1289,
scooby_state_401e67|56|1 1,1286,1,0,0,0,0,0,0,1,0,0,0,0,0,1289,
scooby_state_401e02|36|-2 1286,0,0,0,0,0,0,0,0,0,1,0,0,0,1,1288,
scooby_state_401e67|25|1 1,1287,0,0,0,0,0,0,0,0,0,0,0,0,0,1288,
scooby_state_401e02|3|-2 1283,0,0,0,0,0,0,1,1,0,1,0,0,0,1,1287,
scooby_state_401e67|4|1 1,1285,0,0,0,0,0,0,0,0,0,0,0,0,0,1286,
scooby_state_401e67|17|1 0,1284,0,0,0,0,0,0,0,0,2,0,0,0,0,1286,
scooby_state_401e67|57|1 1,1283,0,0,0,0,0,0,0,0,0,0,0,0,1,1285,
scooby_state_401e67|49|1 1,1278,1,0,0,1,0,0,1,1,0,0,0,0,0,1283,
scooby_state_401e02|19|-2 1279,1,0,1,1,0,0,0,0,0,0,0,0,0,1,1283,
scooby_state_401e67|20|1 1,1279,0,0,0,1,0,0,0,0,0,0,0,0,0,1281,
scooby_state_401e02|51|-2 1277,1,0,0,1,0,0,1,0,1,0,0,0,0,0,1281,
scooby_state_401e67|52|1 1,1278,0,1,0,0,0,0,0,0,0,0,0,0,0,1280,
scooby_state_401e33|0|-1 1,1277,1,0,0,0,0,0,0,0,0,0,0,0,0,1279,
scooby_state_401e33|22|-1 2,1272,0,0,0,0,0,0,0,0,0,1,1,0,0,1276,
scooby_state_401e02|11|-2 1275,0,0,0,0,0,0,0,0,0,0,0,0,0,0,1275,
scooby_state_401e02|43|-2 1274,0,0,0,0,0,0,0,0,0,0,0,0,0,1,1275,
scooby_state_401e02|63|2 1273,1,0,0,1,0,0,0,0,0,0,0,0,0,0,1275,
scooby_state_401e67|37|1 1,1272,1,0,0,0,1,0,0,0,0,0,0,0,0,1275,
scooby_state_401e02|31|-2 1271,1,0,0,0,1,0,0,0,0,0,0,0,0,1,1274,
scooby_state_401e67|44|1 0,1265,0,0,0,1,0,2,0,0,0,1,1,1,0,1271,
scooby_state_401e67|1|1 1,1269,0,0,0,0,1,0,0,0,0,0,0,0,0,1271,
scooby_state_401e67|32|1 1,1264,0,0,0,0,1,0,0,1,0,0,1,0,0,1268,
scooby_state_401e33|46|-1 0,1264,1,0,0,0,0,0,0,2,0,0,0,0,0,1267,
scooby_state_401e33|34|-1 1,1261,0,0,0,0,0,0,1,0,0,1,0,0,1,1265,
scooby_state_401e67|12|1 0,1263,0,0,0,0,0,0,0,0,0,0,0,0,0,1263,
scooby_state_401e33|2|-1 0,1261,0,0,0,0,0,1,0,0,0,0,1,0,0,1263,
scooby_state_401e67|0|-1 1,1227,0,1,0,1,0,0,0,0,0,0,0,0,0,1230,
scooby_state_401e02|0|-2 1207,1,0,0,0,0,0,0,0,1,1,1,0,0,0,1211,
scooby_state_401cdb|31|-2 1,937,0,0,0,0,0,0,0,0,0,0,0,0,1,939,
scooby_state_401cdb|43|-2 1,935,0,0,0,0,0,0,1,0,0,0,0,0,0,937,
scooby_state_401cdb|11|-2 3,932,0,0,0,0,0,0,0,0,0,0,0,1,0,936,
scooby_state_401d43|32|1 0,933,1,1,0,0,0,1,0,0,0,0,0,0,0,936,
scooby_state_401cdb|63|2 64,867,0,0,0,0,0,0,1,0,0,0,0,1,0,933,
scooby_state_401d43|44|1 0,931,0,0,0,0,0,0,0,0,1,0,0,0,1,933,
scooby_state_401d43|12|1 1,929,0,0,0,0,0,1,0,0,0,0,0,0,0,931,
scooby_state_401cdb|51|-2 0,927,0,0,1,0,0,0,0,0,0,0,1,0,0,929,
scooby_state_401d14|46|-1 0,927,0,0,0,0,1,0,1,0,0,0,0,0,0,929,
scooby_state_401d14|34|-1 0,927,0,0,0,0,0,0,0,1,0,0,0,0,0,928,
scooby_state_401d43|52|1 0,925,0,0,0,0,0,0,0,0,0,0,0,0,0,925,
scooby_state_401d14|22|-1 0,924,0,0,0,0,0,0,0,0,0,0,0,0,0,924,
scooby_state_401cdb|36|-2 1,922,0,0,0,0,1,0,0,0,0,0,0,0,0,924,
scooby_state_401d43|20|1 1,920,0,0,0,1,0,0,0,0,0,0,0,0,0,922,
scooby_state_401cdb|19|-2 2,920,0,0,0,0,0,0,0,0,0,0,0,0,0,922,
scooby_state_401d43|37|1 1,918,0,0,0,0,0,0,0,0,0,0,0,0,0,919,
scooby_state_401cdb|23|-2 1,914,1,0,0,1,0,0,1,0,0,0,0,0,0,918,
scooby_state_401d43|24|1 0,914,0,0,0,0,0,1,0,0,0,0,1,0,0,916,
scooby_state_401cdb|24|-2 2,913,0,0,0,0,0,0,0,0,0,0,0,0,0,915,
scooby_state_401cdb|3|-2 0,912,0,1,0,1,0,0,0,0,0,0,1,0,0,915,
scooby_state_401d43|4|1 0,912,1,0,0,0,0,0,0,0,0,0,0,0,0,913,
scooby_state_401d43|25|1 0,911,0,0,0,0,0,1,0,0,0,0,0,0,0,912,
scooby_state_401cdb|48|-2 1,905,0,1,0,2,2,0,0,0,0,0,1,0,0,912,
scooby_state_401cdb|41|-2 1,907,1,0,1,0,0,0,0,0,0,0,0,0,1,911,
scooby_state_401d14|2|-1 0,910,0,0,0,0,0,0,0,0,0,0,0,0,0,910,
scooby_state_401d43|49|1 1,907,0,0,0,0,0,0,0,1,0,0,0,1,0,910,
scooby_state_401d43|42|1 0,906,0,0,0,1,0,0,0,1,0,1,0,0,0,909,
scooby_state_401cdb|55|-2 1,905,0,0,0,0,0,0,0,0,0,0,1,0,0,907,
scooby_state_401d43|56|1 0,904,0,0,0,0,1,0,0,0,0,0,0,0,0,905,
scooby_state_401d14|14|-1 1,899,0,0,0,1,0,0,0,0,2,0,1,0,0,904,
scooby_state_401cdb|4|-2 4,898,0,1,0,0,1,0,0,0,0,0,0,0,0,904,
scooby_state_401d14|27|-1 0,902,0,0,0,0,0,0,0,0,1,0,0,0,0,903,
scooby_state_401cdb|56|-2 3,894,0,1,0,1,1,0,1,0,0,0,0,1,1,903,
scooby_state_401d14|54|-1 0,900,0,1,0,0,0,0,0,0,0,0,0,0,0,901,
scooby_state_401d43|5|1 2,898,0,0,0,0,0,0,0,0,0,0,0,0,0,900,
scooby_state_401d14|59|-1 1,898,0,0,0,0,0,0,0,0,0,0,0,0,1,900,
scooby_state_401d43|57|1 0,898,0,0,0,0,0,0,0,0,1,1,0,0,0,900,
scooby_state_401cdb|16|-2 2,898,0,0,0,0,0,0,0,0,0,0,0,0,0,900,
scooby_state_401cdb|9|-2 4,894,0,1,0,0,0,0,0,0,0,0,0,0,0,899,
scooby_state_401cdb|21|-2 2,893,0,1,0,0,0,0,1,0,0,0,0,0,0,897,
scooby_state_401d43|17|1 1,895,0,0,0,0,1,0,0,0,0,0,0,0,0,897,
scooby_state_401d43|0|-1 2,895,0,0,0,0,0,0,0,0,0,0,0,0,0,897,
scooby_state_401d43|10|1 1,895,0,0,0,0,0,0,0,0,0,0,0,0,0,896,
scooby_state_401cdb|39|-2 1,894,0,0,0,0,0,0,0,0,1,0,0,0,0,896,
scooby_state_401d14|10|-1 0,895,0,0,0,0,0,0,0,0,0,0,0,0,0,895,
scooby_state_401cdb|61|-2 2,892,0,0,1,0,0,0,0,0,0,0,0,0,0,895,
scooby_state_401d43|22|1 1,892,0,0,0,0,1,0,0,0,0,0,1,0,0,895,
scooby_state_401cdb|17|-2 0,895,0,0,0,0,0,0,0,0,0,0,0,0,0,895,
scooby_state_401d43|18|1 0,894,0,1,0,0,0,0,0,0,0,0,0,0,0,895,
scooby_state_401cdb|29|-2 0,894,0,0,0,0,0,0,0,0,0,0,0,0,0,894,
scooby_state_401d14|24|-1 0,894,0,0,0,0,0,0,0,0,0,0,0,0,0,894,
scooby_state_401d43|40|1 1,891,0,0,1,0,0,0,0,0,1,0,0,0,0,894,
scooby_state_401d43|62|1 0,888,1,0,0,1,0,1,0,0,0,0,1,0,1,893,
scooby_state_401d14|56|-1 0,892,0,0,0,0,0,0,0,0,0,0,0,0,1,893,
scooby_state_401d14|4|-1 1,889,0,0,0,0,0,1,0,0,1,0,0,0,1,893,
scooby_state_401d14|42|-1 1,890,0,1,0,0,0,0,0,0,0,0,0,0,0,892,
scooby_state_401cdb|49|-2 2,888,0,0,0,0,0,0,0,0,0,0,0,1,0,891,
scooby_state_401cdb|12|-2 0,888,0,1,0,0,1,1,0,0,0,0,0,0,0,891,
scooby_state_401d14|12|-1 1,890,0,0,0,0,0,0,0,0,0,0,0,0,0,891,
scooby_state_401d43|30|1 0,887,0,0,0,0,1,0,2,0,0,0,0,0,0,890,
scooby_state_401d14|58|-1 0,888,1,0,0,0,0,0,0,0,0,0,0,0,0,889,
scooby_state_401d14|19|-1 1,888,0,0,0,0,0,0,0,0,0,0,0,0,0,889,
scooby_state_401d43|50|1 2,886,0,1,0,0,0,0,0,0,0,0,0,0,0,889,
scooby_state_401cdb|53|-2 1,883,0,0,0,0,0,0,0,0,1,1,0,0,1,887,
scooby_state_401d43|13|1 0,886,0,0,0,0,0,0,0,0,0,0,0,0,1,887,
scooby_state_401d14|30|-1 0,884,0,0,0,0,0,0,0,1,0,1,0,0,0,886,
scooby_state_401d14|7|-1 1,884,0,0,0,0,0,0,1,0,0,0,0,0,0,886,
scooby_state_401cdb|44|-2 2,882,0,0,0,0,0,0,0,1,0,0,0,0,0,885,
scooby_state_401cdb|35|-2 1,882,0,1,0,0,0,0,0,0,0,1,0,0,0,885,
scooby_state_401cdb|7|-2 1,882,0,0,0,1,0,0,1,0,0,0,0,0,0,885,
scooby_state_401d43|8|1 0,884,0,0,0,0,0,0,0,0,0,0,0,0,0,884,
scooby_state_401cdb|47|-2 2,881,0,0,0,0,0,0,0,0,0,1,0,0,0,884,
scooby_state_401d43|54|1 0,884,0,0,0,0,0,0,0,0,0,0,0,0,0,884,
scooby_state_401d14|26|-1 0,880,0,0,1,0,1,0,0,0,0,0,1,0,0,883,
scooby_state_401d43|36|1 0,882,0,0,0,1,0,0,0,0,0,0,0,0,0,883,
scooby_state_401d14|48|-1 1,880,0,0,0,0,0,0,0,0,0,0,0,0,0,881,
scooby_state_401d43|45|1 1,879,0,0,0,0,0,0,0,0,0,0,0,0,0,880,
scooby_state_401cdb|15|-2 0,879,0,0,0,0,0,0,1,0,0,0,0,0,0,880,
scooby_state_401d14|15|-1 1,878,0,0,0,0,0,0,0,0,0,0,0,0,0,879,
scooby_state_401d14|52|-1 1,878,0,0,0,0,0,0,0,0,0,0,0,0,0,879,
scooby_state_401d43|48|1 0,879,0,0,0,0,0,0,0,0,0,0,0,0,0,879,
scooby_state_401d14|32|-1 0,876,0,2,0,0,0,0,0,0,0,0,0,0,0,878,
scooby_state_401d43|16|1 0,877,0,0,0,0,0,0,0,0,0,0,1,0,0,878,
scooby_state_401d14|62|-1 1,874,0,0,1,0,1,0,0,1,0,0,0,0,0,878,
scooby_state_401d14|51|-1 0,875,0,0,0,0,0,0,0,1,0,0,0,0,0,876,
scooby_state_401cdb|33|-2 1,874,0,0,0,0,0,0,0,0,0,0,0,1,0,876,
scooby_state_401cdb|32|-2 1,874,0,0,0,0,0,0,0,0,0,0,0,0,1,876,
scooby_state_401d14|38|-1 0,875,0,0,0,0,0,0,0,0,0,0,0,0,0,875,
scooby_state_401cdb|52|-2 2,871,0,0,0,0,0,1,0,0,0,0,0,0,1,875,
scooby_state_401d14|36|-1 0,873,0,0,0,0,0,0,0,0,1,0,0,1,0,875,
scooby_state_401d14|6|-1 0,874,0,0,1,0,0,0,0,0,0,0,0,0,0,875,
scooby_state_401d43|34|1 0,874,0,0,0,0,0,0,0,0,0,1,0,0,0,875,
scooby_state_401d43|53|1 1,872,0,0,0,1,0,0,0,0,0,0,0,0,0,874,
scooby_state_401d14|39|-1 0,871,0,0,0,0,0,0,0,0,0,1,0,0,0,872,
scooby_state_401cdb|60|-2 1,870,0,0,0,0,0,0,0,0,0,0,0,0,0,871,
scooby_state_401d14|50|-1 0,870,0,0,0,0,0,0,0,0,0,0,1,0,0,871,
scooby_state_401d14|44|-1 0,870,0,1,0,0,0,0,0,0,0,0,0,0,0,871,
scooby_state_401cdb|1|-2 1,869,0,0,0,0,0,0,0,0,0,0,0,1,0,871,
scooby_state_401d43|33|1 0,869,0,0,0,1,0,0,0,0,0,1,0,0,0,871,
scooby_state_401cdb|59|-2 2,867,0,0,0,0,0,0,0,0,0,1,0,0,1,871,
scooby_state_401cdb|28|-2 0,870,0,0,0,0,0,0,0,0,0,0,0,0,0,870,
scooby_state_401d14|16|-1 0,865,1,0,0,0,0,0,1,0,1,0,0,0,1,869,
scooby_state_401d43|2|1 1,868,0,0,0,0,0,0,0,0,0,0,0,0,0,869,
scooby_state_401d43|61|1 0,867,0,0,0,0,0,1,0,0,0,0,0,0,0,868,
scooby_state_401d43|60|1 1,866,0,0,0,0,1,0,0,0,0,0,0,0,0,868,
scooby_state_401d43|29|1 0,865,1,0,0,0,0,0,0,0,0,0,0,1,0,867,
scooby_state_401d14|47|-1 1,863,0,0,0,0,0,0,0,1,1,0,1,0,0,867,
scooby_state_401d14|18|-1 0,863,1,0,0,0,0,0,0,0,0,0,0,0,0,864,
scooby_state_401cdb|27|-2 1,862,0,0,0,0,0,0,0,1,0,0,0,0,0,864,
scooby_state_401cdb|45|-2 1,861,0,0,0,0,0,0,1,0,0,0,0,0,0,863,
scooby_state_401cdb|8|-2 0,863,0,0,0,0,0,0,0,0,0,0,0,0,0,863,
scooby_state_401cdb|20|-2 0,859,0,0,0,0,0,0,0,0,1,0,0,1,0,861,
scooby_state_401d43|21|1 0,859,0,0,0,0,0,0,0,0,0,1,0,0,0,860,
scooby_state_401d43|9|1 0,860,0,0,0,0,0,0,0,0,0,0,0,0,0,860,
scooby_state_401d14|60|-1 0,858,0,0,0,0,0,1,0,0,0,0,0,0,1,860,
scooby_state_401d43|46|1 0,859,0,0,0,0,0,0,0,0,0,0,0,0,0,859,
scooby_state_401d43|28|1 0,857,1,0,1,0,0,0,0,0,0,0,0,0,0,859,
scooby_state_401d14|31|-1 0,858,0,0,0,0,0,0,1,0,0,0,0,0,0,859,
scooby_state_401d14|35|-1 1,855,0,1,1,0,0,0,0,0,0,0,0,0,0,858,
scooby_state_401cdb|40|-2 0,856,0,0,0,1,0,0,1,0,0,0,0,0,0,858,
scooby_state_401d14|63|2 2,854,0,0,0,0,0,1,0,0,0,0,0,0,0,857,
scooby_state_401d14|40|-1 1,855,1,0,0,0,0,0,0,0,0,0,0,0,0,857,
scooby_state_401d14|29|-1 0,855,0,0,0,0,0,0,0,0,0,1,0,0,0,856,
scooby_state_401cdb|37|-2 2,852,0,0,0,0,1,0,0,0,0,0,0,1,0,856,
scooby_state_401d43|41|1 0,854,0,0,0,1,0,0,0,0,0,0,0,0,0,855,
scooby_state_401d14|3|-1 0,854,1,0,0,0,0,0,0,0,0,0,0,0,0,855,
scooby_state_401cdb|5|-2 1,851,0,0,0,0,0,0,1,0,0,0,1,0,0,854,
scooby_state_401d43|1|1 0,849,1,0,0,0,0,0,0,1,0,0,1,1,0,853,
scooby_state_401d43|6|1 1,852,0,0,0,0,0,0,0,0,0,0,0,0,0,853,
scooby_state_401cdb|57|-2 1,852,0,0,0,0,0,0,0,0,0,0,0,0,0,853,
scooby_state_401d43|38|1 1,850,0,1,0,0,0,0,0,0,0,0,0,0,1,853,
scooby_state_401d43|58|1 0,849,0,0,0,0,1,0,0,0,0,0,0,0,0,850,
scooby_state_401d14|41|-1 0,848,0,0,0,0,0,0,0,1,0,0,0,0,0,849,
scooby_state_401d14|43|-1 0,844,0,0,0,0,0,0,0,0,0,0,1,0,1,846,
scooby_state_401d14|8|-1 0,843,0,2,0,0,0,0,0,0,0,0,0,0,0,845,
scooby_state_401d14|55|-1 0,841,0,1,0,0,0,0,0,0,0,0,1,0,0,843,
scooby_state_401d14|20|-1 0,841,0,0,1,0,0,0,0,0,0,0,0,1,0,843,
scooby_state_401d14|61|-1 0,842,0,0,0,1,0,0,0,0,0,0,0,0,0,843,
scooby_state_401d14|11|-1 0,839,0,0,0,0,0,0,0,0,0,0,0,0,0,839,
scooby_state_401d14|28|-1 0,838,0,0,0,0,1,0,0,0,0,0,0,0,0,839,
scooby_state_401d14|23|-1 0,837,0,0,0,0,0,0,0,0,0,0,1,0,0,838,
scooby_state_401cdb|13|-2 0,836,0,0,0,1,0,0,0,0,0,0,0,0,0,837,
scooby_state_401cdb|26|-2 0,834,0,0,1,0,1,0,0,0,0,0,0,0,0,836,
scooby_state_401d43|14|1 0,834,0,0,0,0,0,0,0,0,0,0,0,0,1,835,
scooby_state_401d14|9|-1 1,834,0,0,0,0,0,0,0,0,0,0,0,0,0,835,
scooby_state_401d43|27|1 0,834,0,0,0,0,0,0,0,0,0,0,0,0,0,834,
scooby_state_401d14|53|-1 0,831,0,0,1,0,0,0,0,0,0,0,0,0,0,832,
scooby_state_401cdb|58|-2 1,829,0,0,0,0,0,0,0,0,0,1,0,0,0,831,
scooby_state_401cdb|50|-2 1,827,0,0,0,1,0,0,0,0,0,0,0,0,0,829,
scooby_state_401d43|51|1 0,827,0,0,0,0,0,0,0,0,0,0,0,0,1,828,
scooby_state_401d43|59|1 0,825,0,0,0,0,0,0,0,0,0,1,0,0,0,826,
scooby_state_401cdb|25|-2 1,824,0,0,0,0,1,0,0,0,0,0,0,0,0,826,
scooby_state_401d43|26|1 0,823,0,0,0,0,0,1,0,0,0,0,0,0,0,824,
scooby_state_401cdb|6|-2 2,816,2,1,0,0,0,0,0,0,0,0,0,0,0,821,
scooby_state_401d43|7|1 1,817,0,0,0,0,0,0,0,0,0,0,1,0,0,819,
scooby_state_401d14|49|-1 0,810,0,0,0,0,0,0,0,0,0,0,1,0,0,811,
scooby_state_401d14|21|-1 0,810,0,1,0,0,0,0,0,0,0,0,0,0,0,811,
scooby_state_401cdb|38|-2 1,808,0,0,0,0,0,0,1,0,0,0,0,0,0,810,
scooby_state_401d14|1|-1 0,810,0,0,0,0,0,0,0,0,0,0,0,0,0,810,
scooby_state_401d14|17|-1 0,808,0,0,0,0,0,0,0,0,0,0,0,0,0,808,
scooby_state_401d43|39|1 0,806,0,0,0,0,0,0,0,0,0,0,0,0,0,806,
scooby_state_401cdb|46|-2 0,804,0,0,1,0,0,0,0,0,0,0,0,0,0,805,
scooby_state_401d14|37|-1 0,799,0,1,0,0,0,1,0,0,0,0,0,0,0,801,
scooby_state_401cdb|18|-2 3,796,0,0,0,0,0,0,0,0,0,0,0,1,0,800,
scooby_state_401d14|5|-1 0,799,0,0,0,0,0,0,0,0,0,0,0,0,0,799,
scooby_state_401d43|47|1 0,797,0,0,0,0,0,0,0,0,0,1,0,0,0,798,
scooby_state_401d43|19|1 0,795,0,0,1,0,0,0,0,0,0,0,0,0,0,796,
scooby_state_401cdb|34|-2 1,790,0,0,0,0,0,0,0,0,0,1,0,0,0,792,
scooby_state_401cdb|2|-2 2,786,0,0,0,0,0,1,0,1,0,0,0,0,0,790,
scooby_state_401cdb|14|-2 2,786,1,0,0,0,0,0,0,0,0,0,0,0,1,790,
scooby_state_401d43|35|1 1,786,0,1,0,0,0,0,0,0,0,0,0,1,0,789,
scooby_state_401d14|0|-1 0,787,0,0,0,0,0,0,0,0,0,1,0,0,0,788,
scooby_state_401d43|15|1 1,783,0,0,0,0,0,0,0,0,0,0,0,0,0,784,
scooby_state_401d43|3|1 0,784,0,0,0,0,0,0,0,0,0,0,0,0,0,784,
scooby_state_401d14|33|-1 1,779,1,0,0,0,0,0,1,0,0,0,0,0,0,782,
scooby_state_401cdb|62|2 61,719,0,0,0,0,0,0,0,0,0,0,0,0,0,780,
scooby_state_401d43|63|1 0,780,0,0,0,0,0,0,0,0,0,0,0,0,0,780,
scooby_state_401cdb|54|-2 2,776,0,0,0,0,0,0,0,0,0,0,0,1,0,779,
scooby_state_401d14|13|-1 0,775,0,0,1,0,0,0,0,0,0,1,0,0,0,777,
scooby_state_401d43|55|1 1,772,0,0,0,0,1,0,1,0,1,0,0,0,0,776,
scooby_state_401cdb|0|-2 2,773,0,0,0,0,0,0,0,0,0,0,0,0,0,775,
scooby_state_401d14|25|-1 0,774,0,0,0,0,0,0,0,0,0,1,0,0,0,775,
scooby_state_401cdb|42|-2 3,762,0,0,0,0,0,0,0,0,0,1,0,0,0,766,
scooby_state_401d43|43|1 1,764,0,0,0,0,0,0,0,0,0,0,0,0,0,765,
scooby_state_401d14|57|-1 1,763,0,1,0,0,0,0,0,0,0,0,0,0,0,765,
scooby_state_401cdb|10|-2 0,761,0,0,0,0,0,0,0,0,0,0,0,0,0,761,
scooby_state_401d14|45|-1 0,758,1,0,1,0,0,0,0,0,0,0,1,0,0,761,
scooby_state_401d43|11|1 0,756,0,0,0,0,0,0,0,0,0,1,0,0,0,757,
scooby_state_401cdb|30|-2 1,756,0,0,0,0,0,0,0,0,0,0,0,0,0,757,
scooby_state_401cdb|22|-2 0,755,0,0,0,0,0,0,0,1,0,0,0,0,0,756,
scooby_state_401d43|31|1 0,754,0,0,0,0,0,0,0,0,0,0,0,0,0,754,
scooby_state_401d43|23|1 1,748,1,0,0,0,0,0,1,0,0,0,0,0,0,751,
scooby_state_4023cc|43|1 1,326,0,0,0,0,0,0,0,0,0,0,1,0,0,328,
scooby_state_40206d|41|-2 301,0,0,0,0,0,0,0,0,0,0,0,0,0,0,301,
scooby_state_40208c|42|1 285,0,0,1,0,0,0,0,0,0,0,0,0,0,0,286,
scooby_state_4023cc|43|2 0,152,0,0,0,0,0,0,0,0,0,0,0,0,0,152,
scooby_state_40206d|41|-1 78,60,0,0,0,0,0,0,0,0,0,0,0,0,0,138,
scooby_state_40208c|42|-1 56,32,0,0,0,0,0,0,0,0,0,0,0,0,0,88,
scooby_state_40206d|41|0 86,0,0,0,0,0,0,0,0,0,0,0,0,0,0,86,
scooby_state_4023cc|43|0 0,73,0,0,0,0,0,0,0,0,0,0,0,0,0,73,
scooby_state_402065|42|-1 0,62,0,0,0,1,0,0,0,0,0,0,0,0,0,63,
scooby_state_401e02|0|-1 59,0,0,0,0,0,0,0,0,0,0,0,0,0,0,59,
scooby_state_401d37|0|-2 56,0,0,0,0,0,0,0,0,0,0,0,0,0,0,56,
scooby_state_401d37|0|-1 48,0,0,0,0,0,0,0,0,0,0,0,0,0,0,48,
scooby_state_401d4f|0|-1 39,0,0,0,0,0,0,0,0,0,0,0,0,0,0,39,
scooby_state_40208c|42|0 37,0,0,0,0,0,0,0,0,0,0,0,0,0,0,37,
scooby_state_402065|42|1 32,0,0,0,0,0,0,0,0,0,0,0,0,0,0,32,
scooby_state_401e74|16|1 0,29,0,0,0,0,0,0,0,0,0,0,0,0,0,29,
scooby_state_401e74|0|-1 0,28,0,0,0,0,0,0,0,0,0,0,0,0,0,28,
scooby_state_401e74|2|1 0,28,0,0,0,0,0,0,0,0,0,0,0,0,0,28,
scooby_state_401e74|1|-1 0,27,0,0,0,0,0,0,0,0,0,0,0,0,0,27,
scooby_state_401ce6|0|-2 26,0,0,0,0,0,0,0,0,0,0,0,0,0,0,26,
scooby_state_401d60|0|-1 0,22,0,0,0,0,0,0,0,0,0,0,1,0,0,23,
scooby_state_401e74|3|1 0,22,0,0,0,0,0,0,0,0,0,0,0,0,0,22,
scooby_state_401e74|17|1 0,22,0,0,0,0,0,0,0,0,0,0,0,0,0,22,
scooby_state_401e74|15|1 0,22,0,0,0,0,0,0,0,0,0,0,0,0,0,22,
scooby_state_401cdb|0|-1 0,22,0,0,0,0,0,0,0,0,0,0,0,0,0,22,
scooby_state_402065|42|0 21,0,0,0,0,0,0,0,0,0,0,0,0,0,0,21,
scooby_state_401e74|57|1 0,21,0,0,0,0,0,0,0,0,0,0,0,0,0,21,
scooby_state_401e74|19|1 0,20,0,0,0,0,0,0,0,0,0,0,0,0,0,20,
scooby_state_401e74|63|1 0,18,0,0,0,0,0,0,0,0,0,0,0,0,0,18,
scooby_state_401e19|0|-2 0,17,0,0,0,0,0,0,0,0,0,0,0,0,0,17,
scooby_state_401e74|54|1 0,16,0,0,0,0,0,0,0,0,0,0,0,0,0,16,
scooby_state_401e40|17|-1 15,0,0,0,0,0,0,0,0,0,0,0,0,0,0,15,
scooby_state_401e74|46|1 0,14,0,0,0,0,0,0,0,0,0,0,0,0,0,14,
scooby_state_401e81|0|-1 0,14,0,0,0,0,0,0,0,0,0,0,0,0,0,14,
scooby_state_401e40|11|-1 14,0,0,0,0,0,0,0,0,0,0,0,0,0,0,14,
scooby_state_401e40|2|-1 14,0,0,0,0,0,0,0,0,0,0,0,0,0,0,14,
scooby_state_401d98|0|-1 13,0,0,0,0,0,0,0,0,0,0,0,0,0,0,13,
scooby_state_401e40|58|-1 13,0,0,0,0,0,0,0,0,0,0,0,0,0,0,13,
scooby_state_401e8e|0|-1 12,0,0,0,0,0,0,0,0,0,0,0,0,0,0,12,
scooby_state_401e40|53|-1 12,0,0,0,0,0,0,0,0,0,0,0,0,0,0,12,
scooby_state_401e4d|42|-1 12,0,0,0,0,0,0,0,0,0,0,0,0,0,0,12,
scooby_state_401e74|58|1 0,12,0,0,0,0,0,0,0,0,0,0,0,0,0,12,
scooby_state_401e40|18|-1 12,0,0,0,0,0,0,0,0,0,0,0,0,0,0,12,
scooby_state_401e74|55|1 0,12,0,0,0,0,0,0,0,0,0,0,0,0,0,12,
scooby_state_401d98|1|-1 12,0,0,0,0,0,0,0,0,0,0,0,0,0,0,12,
scooby_state_401e4d|0|-2 12,0,0,0,0,0,0,0,0,0,0,0,0,0,0,12,
scooby_state_401e40|8|-1 12,0,0,0,0,0,0,0,0,0,0,0,0,0,0,12,
scooby_state_401e74|9|1 0,12,0,0,0,0,0,0,0,0,0,0,0,0,0,12,
scooby_state_401e40|4|-1 12,0,0,0,0,0,0,0,0,0,0,0,0,0,0,12,
scooby_state_401e40|19|-1 11,0,0,0,0,0,0,0,0,0,0,0,0,0,0,11,
scooby_state_401e40|28|-1 11,0,0,0,0,0,0,0,0,0,0,0,0,0,0,11,
scooby_state_401e4d|47|-1 11,0,0,0,0,0,0,0,0,0,0,0,0,0,0,11,
scooby_state_401e4d|2|-1 11,0,0,0,0,0,0,0,0,0,0,0,0,0,0,11,
scooby_state_401e40|63|2 11,0,0,0,0,0,0,0,0,0,0,0,0,0,0,11,
scooby_state_401e4d|6|-1 11,0,0,0,0,0,0,0,0,0,0,0,0,0,0,11,
scooby_state_401e74|45|1 0,11,0,0,0,0,0,0,0,0,0,0,0,0,0,11,
scooby_state_401e74|48|1 0,11,0,0,0,0,0,0,0,0,0,0,0,0,0,11,
scooby_state_401e74|56|1 0,11,0,0,0,0,0,0,0,0,0,0,0,0,0,11,
scooby_state_401e40|6|-1 10,0,0,0,0,0,0,0,0,0,0,0,0,0,0,10,
scooby_state_401e74|49|1 0,10,0,0,0,0,0,0,0,0,0,0,0,0,0,10,
scooby_state_401e4d|26|-1 10,0,0,0,0,0,0,0,0,0,0,0,0,0,0,10,
scooby_state_401e40|1|-1 10,0,0,0,0,0,0,0,0,0,0,0,0,0,0,10,
scooby_state_401e4d|60|-1 10,0,0,0,0,0,0,0,0,0,0,0,0,0,0,10,
scooby_state_401e40|9|-1 10,0,0,0,0,0,0,0,0,0,0,0,0,0,0,10,
scooby_state_401d1f|36|-1 0,10,0,0,0,0,0,0,0,0,0,0,0,0,0,10,
scooby_state_401e4d|49|-1 9,1,0,0,0,0,0,0,0,0,0,0,0,0,0,10,
scooby_state_401e19|3|-2 0,10,0,0,0,0,0,0,0,0,0,0,0,0,0,10,
scooby_state_401e74|59|1 0,10,0,0,0,0,0,0,0,0,0,0,0,0,0,10,
scooby_state_401e40|59|-1 10,0,0,0,0,0,0,0,0,0,0,0,0,0,0,10,
scooby_state_401e4d|27|-1 10,0,0,0,0,0,0,0,0,0,0,0,0,0,0,10,
scooby_state_401e74|47|1 0,9,0,0,0,0,0,0,0,0,0,0,0,0,0,9,
scooby_state_401e67|1|-1 0,9,0,0,0,0,0,0,0,0,0,0,0,0,0,9,
scooby_state_401e4d|38|-1 9,0,0,0,0,0,0,0,0,0,0,0,0,0,0,9,
scooby_state_401e4d|48|-1 9,0,0,0,0,0,0,0,0,0,0,0,0,0,0,9,
scooby_state_401e81|1|-1 0,9,0,0,0,0,0,0,0,0,0,0,0,0,0,9,
scooby_state_401e02|0|-4 9,0,0,0,0,0,0,0,0,0,0,0,0,0,0,9,
scooby_state_401e4d|57|-1 9,0,0,0,0,0,0,0,0,0,0,0,0,0,0,9,
scooby_state_401e33|3|2 0,9,0,0,0,0,0,0,0,0,0,0,0,0,0,9,
scooby_state_401e74|21|1 0,9,0,0,0,0,0,0,0,0,0,0,0,0,0,9,
scooby_state_401e40|30|-1 9,0,0,0,0,0,0,0,0,0,0,0,0,0,0,9,
scooby_state_401e40|14|-1 9,0,0,0,0,0,0,0,0,0,0,0,0,0,0,9,
scooby_state_401e4d|46|-1 9,0,0,0,0,0,0,0,0,0,0,0,0,0,0,9,
scooby_state_401e74|14|1 0,9,0,0,0,0,0,0,0,0,0,0,0,0,0,9,
scooby_state_401e40|34|-1 9,0,0,0,0,0,0,0,0,0,0,0,0,0,0,9,
scooby_state_401cb0|3|2 9,0,0,0,0,0,0,0,0,0,0,0,0,0,0,9,
scooby_state_401e33|2|2 0,9,0,0,0,0,0,0,0,0,0,0,0,0,0,9,
scooby_state_401e4d|54|-1 9,0,0,0,0,0,0,0,0,0,0,0,0,0,0,9,
scooby_state_401e4d|1|-1 9,0,0,0,0,0,0,0,0,0,0,0,0,0,0,9,
scooby_state_401e40|15|-1 9,0,0,0,0,0,0,0,0,0,0,0,0,0,0,9,
scooby_state_401e4d|29|-1 9,0,0,0,0,0,0,0,0,0,0,0,0,0,0,9,
scooby_state_401e81|63|1 0,9,0,0,0,0,0,0,0,0,0,0,0,0,0,9,
scooby_state_401e81|58|1 1,8,0,0,0,0,0,0,0,0,0,0,0,0,0,9,
scooby_state_402058|41|-2 2,6,0,0,0,0,0,0,0,0,0,0,0,0,0,8,
scooby_state_401e67|0|-3 0,8,0,0,0,0,0,0,0,0,0,0,0,0,0,8,
scooby_state_401e81|45|1 0,8,0,0,0,0,0,0,0,0,0,0,0,0,0,8,
scooby_state_401cb0|4|2 8,0,0,0,0,0,0,0,0,0,0,0,0,0,0,8,
scooby_state_401e81|9|1 0,8,0,0,0,0,0,0,0,0,0,0,0,0,0,8,
scooby_state_401e4d|55|-1 8,0,0,0,0,0,0,0,0,0,0,0,0,0,0,8,
scooby_state_401e74|18|1 0,8,0,0,0,0,0,0,0,0,0,0,0,0,0,8,
scooby_state_401e40|60|-1 8,0,0,0,0,0,0,0,0,0,0,0,0,0,0,8,
scooby_state_401e74|27|1 0,8,0,0,0,0,0,0,0,0,0,0,0,0,0,8,
scooby_state_401e74|29|1 0,8,0,0,0,0,0,0,0,0,0,0,0,0,0,8,
scooby_state_401e40|38|-1 8,0,0,0,0,0,0,0,0,0,0,0,0,0,0,8,
scooby_state_401e40|24|-1 8,0,0,0,0,0,0,0,0,0,0,0,0,0,0,8,
scooby_state_401e74|12|1 0,8,0,0,0,0,0,0,0,0,0,0,0,0,0,8,
scooby_state_401e5a|0|-2 8,0,0,0,0,0,0,0,0,0,0,0,0,0,0,8,
scooby_state_401e4d|51|-1 8,0,0,0,0,0,0,0,0,0,0,0,0,0,0,8,
scooby_state_401e40|62|-1 8,0,0,0,0,0,0,0,0,0,0,0,0,0,0,8,
scooby_state_401e74|35|1 0,8,0,0,0,0,0,0,0,0,0,0,0,0,0,8,
scooby_state_401e40|47|-1 8,0,0,0,0,0,0,0,0,0,0,0,0,0,0,8,
scooby_state_401e19|17|-2 0,8,0,0,0,0,0,0,0,0,0,0,0,0,0,8,
scooby_state_401e74|41|1 0,8,0,0,0,0,0,0,0,0,0,0,0,0,0,8,
scooby_state_401d1f|21|-1 0,8,0,0,0,0,0,0,0,0,0,0,0,0,0,8,
scooby_state_401e5a|0|-1 8,0,0,0,0,0,0,0,0,0,0,0,0,0,0,8,
scooby_state_401e4d|53|-1 8,0,0,0,0,0,0,0,0,0,0,0,0,0,0,8,
scooby_state_401e74|40|1 0,8,0,0,0,0,0,0,0,0,0,0,0,0,0,8,
scooby_state_401e19|19|-2 0,8,0,0,0,0,0,0,0,0,0,0,0,0,0,8,
scooby_state_401e81|39|1 0,8,0,0,0,0,0,0,0,0,0,0,0,0,0,8,
scooby_state_401e74|7|1 0,8,0,0,0,0,0,0,0,0,0,0,0,0,0,8,
scooby_state_401e40|23|-1 8,0,0,0,0,0,0,0,0,0,0,0,0,0,0,8,
scooby_state_401e19|1|-2 0,8,0,0,0,0,0,0,0,0,0,0,0,0,0,8,
scooby_state_401e4d|31|-1 8,0,0,0,0,0,0,0,0,0,0,0,0,0,0,8,
scooby_state_401e40|16|-1 7,0,0,0,0,0,0,0,0,0,0,0,0,0,0,7,
scooby_state_401e81|37|1 0,7,0,0,0,0,0,0,0,0,0,0,0,0,0,7,
scooby_state_401e4d|16|-1 7,0,0,0,0,0,0,0,0,0,0,0,0,0,0,7,
scooby_state_401e81|2|1 0,6,0,0,0,1,0,0,0,0,0,0,0,0,0,7,
scooby_state_401e4d|8|-1 7,0,0,0,0,0,0,0,0,0,0,0,0,0,0,7,
scooby_state_401e81|34|1 0,7,0,0,0,0,0,0,0,0,0,0,0,0,0,7,
scooby_state_401e02|2|2 7,0,0,0,0,0,0,0,0,0,0,0,0,0,0,7,
scooby_state_401d4f|47|1 7,0,0,0,0,0,0,0,0,0,0,0,0,0,0,7,
scooby_state_401e4d|10|-1 7,0,0,0,0,0,0,0,0,0,0,0,0,0,0,7,
scooby_state_401d1f|8|-1 0,7,0,0,0,0,0,0,0,0,0,0,0,0,0,7,
scooby_state_401e40|50|-1 7,0,0,0,0,0,0,0,0,0,0,0,0,0,0,7,
scooby_state_401e4d|62|-1 7,0,0,0,0,0,0,0,0,0,0,0,0,0,0,7,
scooby_state_401d1f|6|-1 0,7,0,0,0,0,0,0,0,0,0,0,0,0,0,7,
scooby_state_401e40|3|-1 7,0,0,0,0,0,0,0,0,0,0,0,0,0,0,7,
scooby_state_401e4d|33|-1 7,0,0,0,0,0,0,0,0,0,0,0,0,0,0,7,
scooby_state_401e40|48|-1 7,0,0,0,0,0,0,0,0,0,0,0,0,0,0,7,
scooby_state_401e81|49|1 0,7,0,0,0,0,0,0,0,0,0,0,0,0,0,7,
scooby_state_401e74|5|1 0,7,0,0,0,0,0,0,0,0,0,0,0,0,0,7,
scooby_state_401d1f|20|-1 0,7,0,0,0,0,0,0,0,0,0,0,0,0,0,7,
scooby_state_401e4d|41|-1 7,0,0,0,0,0,0,0,0,0,0,0,0,0,0,7,
scooby_state_401e74|34|1 0,7,0,0,0,0,0,0,0,0,0,0,0,0,0,7,
scooby_state_401e40|36|-1 7,0,0,0,0,0,0,0,0,0,0,0,0,0,0,7,
scooby_state_401d1f|40|-1 0,7,0,0,0,0,0,0,0,0,0,0,0,0,0,7,
scooby_state_401e40|12|-1 7,0,0,0,0,0,0,0,0,0,0,0,0,0,0,7,
scooby_state_401e4d|30|-1 7,0,0,0,0,0,0,0,0,0,0,0,0,0,0,7,
scooby_state_401e40|51|-1 7,0,0,0,0,0,0,0,0,0,0,0,0,0,0,7,
scooby_state_401e9b|0|-1 0,7,0,0,0,0,0,0,0,0,0,0,0,0,0,7,
scooby_state_401e81|3|1 0,7,0,0,0,0,0,0,0,0,0,0,0,0,0,7,
scooby_state_401e33|0|-4 0,7,0,0,0,0,0,0,0,0,0,0,0,0,0,7,
scooby_state_401e4d|52|-1 7,0,0,0,0,0,0,0,0,0,0,0,0,0,0,7,
scooby_state_401e4d|0|-1 7,0,0,0,0,0,0,0,0,0,0,0,0,0,0,7,
scooby_state_401dac|0|-1 7,0,0,0,0,0,0,0,0,0,0,0,0,0,0,7,
scooby_state_401e4d|15|-1 7,0,0,0,0,0,0,0,0,0,0,0,0,0,0,7,
scooby_state_401e4d|9|-1 7,0,0,0,0,0,0,0,0,0,0,0,0,0,0,7,
scooby_state_401e81|21|1 0,7,0,0,0,0,0,0,0,0,0,0,0,0,0,7,
scooby_state_401e40|56|-1 7,0,0,0,0,0,0,0,0,0,0,0,0,0,0,7,
scooby_state_401e4d|25|-1 7,0,0,0,0,0,0,0,0,0,0,0,0,0,0,7,
scooby_state_401e81|28|1 0,7,0,0,0,0,0,0,0,0,0,0,0,0,0,7,
scooby_state_401e4d|40|-1 7,0,0,0,0,0,0,0,0,0,0,0,0,0,0,7,
scooby_state_401e74|38|1 0,7,0,0,0,0,0,0,0,0,0,0,0,0,0,7,
scooby_state_401e40|45|-1 7,0,0,0,0,0,0,0,0,0,0,0,0,0,0,7,
scooby_state_401e74|37|1 0,7,0,0,0,0,0,0,0,0,0,0,0,0,0,7,
scooby_state_401e40|52|-1 7,0,0,0,0,0,0,0,0,0,0,0,0,0,0,7,
scooby_state_401e4d|61|-1 7,0,0,0,0,0,0,0,0,0,0,0,0,0,0,7,
scooby_state_401e40|21|-1 6,0,0,0,0,0,0,0,0,0,0,0,0,0,0,6,
scooby_state_401e4d|32|-1 6,0,0,0,0,0,0,0,0,0,0,0,0,0,0,6,
scooby_state_401e4d|43|-1 6,0,0,0,0,0,0,0,0,0,0,0,0,0,0,6,
scooby_state_401d1f|30|-1 0,6,0,0,0,0,0,0,0,0,0,0,0,0,0,6,
scooby_state_401e81|51|1 0,6,0,0,0,0,0,0,0,0,0,0,0,0,0,6,
scooby_state_401e40|42|-1 6,0,0,0,0,0,0,0,0,0,0,0,0,0,0,6,
scooby_state_401e74|4|1 0,6,0,0,0,0,0,0,0,0,0,0,0,0,0,6,
scooby_state_401e81|14|1 0,6,0,0,0,0,0,0,0,0,0,0,0,0,0,6,
scooby_state_401ea8|0|-1 6,0,0,0,0,0,0,0,0,0,0,0,0,0,0,6,
scooby_state_401e74|31|1 0,6,0,0,0,0,0,0,0,0,0,0,0,0,0,6,
scooby_state_401e40|57|-1 6,0,0,0,0,0,0,0,0,0,0,0,0,0,0,6,
scooby_state_401e74|25|1 0,6,0,0,0,0,0,0,0,0,0,0,0,0,0,6,
scooby_state_401e74|39|1 0,6,0,0,0,0,0,0,0,0,0,0,0,0,0,6,
scooby_state_401d1f|44|-1 0,6,0,0,0,0,0,0,0,0,0,0,0,0,0,6,
scooby_state_401ea8|1|-1 6,0,0,0,0,0,0,0,0,0,0,0,0,0,0,6,
scooby_state_401e74|28|1 0,6,0,0,0,0,0,0,0,0,0,0,0,0,0,6,
scooby_state_401d1f|51|-1 0,6,0,0,0,0,0,0,0,0,0,0,0,0,0,6,
scooby_state_401d1f|62|-1 0,6,0,0,0,0,0,0,0,0,0,0,0,0,0,6,
scooby_state_401e40|33|-1 6,0,0,0,0,0,0,0,0,0,0,0,0,0,0,6,
scooby_state_401e74|10|1 0,6,0,0,0,0,0,0,0,0,0,0,0,0,0,6,
scooby_state_401e81|40|1 0,6,0,0,0,0,0,0,0,0,0,0,0,0,0,6,
scooby_state_401e40|44|-1 6,0,0,0,0,0,0,0,0,0,0,0,0,0,0,6,
scooby_state_401e40|31|-1 6,0,0,0,0,0,0,0,0,0,0,0,0,0,0,6,
scooby_state_401e81|20|1 0,6,0,0,0,0,0,0,0,0,0,0,0,0,0,6,
scooby_state_401e81|7|1 0,6,0,0,0,0,0,0,0,0,0,0,0,0,0,6,
scooby_state_401e81|6|1 0,6,0,0,0,0,0,0,0,0,0,0,0,0,0,6,
scooby_state_401e40|22|-1 6,0,0,0,0,0,0,0,0,0,0,0,0,0,0,6,
scooby_state_401d4f|3|1 6,0,0,0,0,0,0,0,0,0,0,0,0,0,0,6,
scooby_state_401d4f|15|1 6,0,0,0,0,0,0,0,0,0,0,0,0,0,0,6,
scooby_state_401e0f|0|-2 6,0,0,0,0,0,0,0,0,0,0,0,0,0,0,6,
scooby_state_401e19|2|-2 0,6,0,0,0,0,0,0,0,0,0,0,0,0,0,6,
scooby_state_401e81|12|1 0,6,0,0,0,0,0,0,0,0,0,0,0,0,0,6,
scooby_state_401d1f|29|-1 0,6,0,0,0,0,0,0,0,0,0,0,0,0,0,6,
scooby_state_401e40|7|-1 6,0,0,0,0,0,0,0,0,0,0,0,0,0,0,6,
scooby_state_401e4d|56|-1 6,0,0,0,0,0,0,0,0,0,0,0,0,0,0,6,
scooby_state_401e81|61|1 0,5,0,0,0,0,0,0,0,0,0,0,0,0,0,5,
scooby_state_401e4d|24|-1 5,0,0,0,0,0,0,0,0,0,0,0,0,0,0,5,
scooby_state_401d4f|48|1 5,0,0,0,0,0,0,0,0,0,0,0,0,0,0,5,
scooby_state_401e4d|21|-1 5,0,0,0,0,0,0,0,0,0,0,0,0,0,0,5,
scooby_state_401e40|49|-1 5,0,0,0,0,0,0,0,0,0,0,0,0,0,0,5,
scooby_state_401e4d|22|-1 5,0,0,0,0,0,0,0,0,0,0,0,0,0,0,5,
scooby_state_401e40|26|-1 5,0,0,0,0,0,0,0,0,0,0,0,0,0,0,5,
scooby_state_401e4d|50|-1 5,0,0,0,0,0,0,0,0,0,0,0,0,0,0,5,
scooby_state_401e4d|23|-1 5,0,0,0,0,0,0,0,0,0,0,0,0,0,0,5,
scooby_state_401e40|54|-1 5,0,0,0,0,0,0,0,0,0,0,0,0,0,0,5,
scooby_state_401e4d|36|-1 5,0,0,0,0,0,0,0,0,0,0,0,0,0,0,5,
scooby_state_401e81|29|1 0,5,0,0,0,0,0,0,0,0,0,0,0,0,0,5,
scooby_state_401e4d|37|-1 5,0,0,0,0,0,0,0,0,0,0,0,0,0,0,5,
scooby_state_401d4f|23|1 5,0,0,0,0,0,0,0,0,0,0,0,0,0,0,5,
scooby_state_401e8e|1|-1 5,0,0,0,0,0,0,0,0,0,0,0,0,0,0,5,
scooby_state_401d4f|37|1 5,0,0,0,0,0,0,0,0,0,0,0,0,0,0,5,
scooby_state_401d1f|57|-1 0,5,0,0,0,0,0,0,0,0,0,0,0,0,0,5,
scooby_state_401d4f|12|1 5,0,0,0,0,0,0,0,0,0,0,0,0,0,0,5,
scooby_state_401e74|26|1 0,5,0,0,0,0,0,0,0,0,0,0,0,0,0,5,
scooby_state_401e40|29|-1 5,0,0,0,0,0,0,0,0,0,0,0,0,0,0,5,
scooby_state_401d1f|38|-1 0,5,0,0,0,0,0,0,0,0,0,0,0,0,0,5,
scooby_state_401e81|19|1 0,5,0,0,0,0,0,0,0,0,0,0,0,0,0,5,
scooby_state_401d4f|33|1 5,0,0,0,0,0,0,0,0,0,0,0,0,0,0,5,
scooby_state_401e40|39|-1 5,0,0,0,0,0,0,0,0,0,0,0,0,0,0,5,
scooby_state_401e74|23|1 0,5,0,0,0,0,0,0,0,0,0,0,0,0,0,5,
scooby_state_401e81|17|1 0,5,0,0,0,0,0,0,0,0,0,0,0,0,0,5,
scooby_state_401e74|36|1 0,5,0,0,0,0,0,0,0,0,0,0,0,0,0,5,
scooby_state_401d1f|17|-1 0,5,0,0,0,0,0,0,0,0,0,0,0,0,0,5,
scooby_state_401e19|18|-2 0,5,0,0,0,0,0,0,0,0,0,0,0,0,0,5,
scooby_state_401d1f|33|-1 0,5,0,0,0,0,0,0,0,0,0,0,0,0,0,5,
scooby_state_401e4d|45|-1 5,0,0,0,0,0,0,0,0,0,0,0,0,0,0,5,
scooby_state_401d4f|59|1 5,0,0,0,0,0,0,0,0,0,0,0,0,0,0,5,
scooby_state_401d1f|27|-1 0,5,0,0,0,0,0,0,0,0,0,0,0,0,0,5,
scooby_state_401e4d|34|-1 5,0,0,0,0,0,0,0,0,0,0,0,0,0,0,5,
scooby_state_401e4d|44|-1 5,0,0,0,0,0,0,0,0,0,0,0,0,0,0,5,
scooby_state_401e74|6|1 0,5,0,0,0,0,0,0,0,0,0,0,0,0,0,5,
scooby_state_401e74|30|1 0,5,0,0,0,0,0,0,0,0,0,0,0,0,0,5,
scooby_state_401e81|55|1 0,5,0,0,0,0,0,0,0,0,0,0,0,0,0,5,
scooby_state_401e4d|11|-1 5,0,0,0,0,0,0,0,0,0,0,0,0,0,0,5,
scooby_state_401d4f|45|1 5,0,0,0,0,0,0,0,0,0,0,0,0,0,0,5,
scooby_state_401d4f|28|1 5,0,0,0,0,0,0,0,0,0,0,0,0,0,0,5,
scooby_state_401e81|23|1 0,5,0,0,0,0,0,0,0,0,0,0,0,0,0,5,
scooby_state_401e74|62|1 0,5,0,0,0,0,0,0,0,0,0,0,0,0,0,5,
scooby_state_401e40|46|-1 5,0,0,0,0,0,0,0,0,0,0,0,0,0,0,5,
scooby_state_401d1f|34|-1 0,5,0,0,0,0,0,0,0,0,0,0,0,0,0,5,
scooby_state_401d1f|25|-1 0,5,0,0,0,0,0,0,0,0,0,0,0,0,0,5,
scooby_state_401d1f|19|-1 0,5,0,0,0,0,0,0,0,0,0,0,0,0,0,5,
scooby_state_401e81|4|1 0,5,0,0,0,0,0,0,0,0,0,0,0,0,0,5,
scooby_state_401e19|20|-2 0,5,0,0,0,0,0,0,0,0,0,0,0,0,0,5,
scooby_state_401e4d|28|-1 5,0,0,0,0,0,0,0,0,0,0,0,0,0,0,5,
scooby_state_401e40|37|-1 5,0,0,0,0,0,0,0,0,0,0,0,0,0,0,5,
scooby_state_401e74|60|1 0,4,0,0,0,0,0,0,0,0,0,0,0,0,0,4,
scooby_state_401d1f|35|-1 0,4,0,0,0,0,0,0,0,0,0,0,0,0,0,4,
scooby_state_401e74|13|1 0,4,0,0,0,0,0,0,0,0,0,0,0,0,0,4,
scooby_state_401d4f|19|1 4,0,0,0,0,0,0,0,0,0,0,0,0,0,0,4,
scooby_state_401e4d|63|2 4,0,0,0,0,0,0,0,0,0,0,0,0,0,0,4,
scooby_state_401e40|25|-1 4,0,0,0,0,0,0,0,0,0,0,0,0,0,0,4,
scooby_state_401e81|33|1 0,4,0,0,0,0,0,0,0,0,0,0,0,0,0,4,
scooby_state_401d4f|46|1 4,0,0,0,0,0,0,0,0,0,0,0,0,0,0,4,
scooby_state_401d1f|45|-1 0,4,0,0,0,0,0,0,0,0,0,0,0,0,0,4,
scooby_state_401e74|22|1 0,4,0,0,0,0,0,0,0,0,0,0,0,0,0,4,
scooby_state_401e4d|39|-1 4,0,0,0,0,0,0,0,0,0,0,0,0,0,0,4,
scooby_state_401e9b|1|-1 0,4,0,0,0,0,0,0,0,0,0,0,0,0,0,4,
scooby_state_401e81|35|1 0,4,0,0,0,0,0,0,0,0,0,0,0,0,0,4,
scooby_state_401e40|13|-1 4,0,0,0,0,0,0,0,0,0,0,0,0,0,0,4,
scooby_state_401e74|20|1 0,4,0,0,0,0,0,0,0,0,0,0,0,0,0,4,
scooby_state_401e4d|58|-1 4,0,0,0,0,0,0,0,0,0,0,0,0,0,0,4,
scooby_state_401d4f|39|1 4,0,0,0,0,0,0,0,0,0,0,0,0,0,0,4,
scooby_state_401e33|0|-2 0,4,0,0,0,0,0,0,0,0,0,0,0,0,0,4,
scooby_state_401e40|20|-1 4,0,0,0,0,0,0,0,0,0,0,0,0,0,0,4,
scooby_state_401e81|50|1 0,4,0,0,0,0,0,0,0,0,0,0,0,0,0,4,
scooby_state_401e74|32|1 0,4,0,0,0,0,0,0,0,0,0,0,0,0,0,4,
scooby_state_401d1f|43|-1 0,4,0,0,0,0,0,0,0,0,0,0,0,0,0,4,
scooby_state_401d4f|52|1 4,0,0,0,0,0,0,0,0,0,0,0,0,0,0,4,
scooby_state_401d4f|10|1 4,0,0,0,0,0,0,0,0,0,0,0,0,0,0,4,
scooby_state_401e74|61|1 0,4,0,0,0,0,0,0,0,0,0,0,0,0,0,4,
scooby_state_401d4f|13|1 4,0,0,0,0,0,0,0,0,0,0,0,0,0,0,4,
scooby_state_401e81|5|1 0,4,0,0,0,0,0,0,0,0,0,0,0,0,0,4,
scooby_state_401e81|60|1 0,4,0,0,0,0,0,0,0,0,0,0,0,0,0,4,
scooby_state_401e74|8|1 0,4,0,0,0,0,0,0,0,0,0,0,0,0,0,4,
scooby_state_401d1f|10|-1 0,4,0,0,0,0,0,0,0,0,0,0,0,0,0,4,
scooby_state_401d1f|31|-1 0,4,0,0,0,0,0,0,0,0,0,0,0,0,0,4,
scooby_state_401e81|56|1 0,4,0,0,0,0,0,0,0,0,0,0,0,0,0,4,
scooby_state_401d1f|2|-1 0,4,0,0,0,0,0,0,0,0,0,0,0,0,0,4,
scooby_state_401e40|0|-2 4,0,0,0,0,0,0,0,0,0,0,0,0,0,0,4,
scooby_state_401d4f|11|1 4,0,0,0,0,0,0,0,0,0,0,0,0,0,0,4,
scooby_state_401e81|38|1 0,4,0,0,0,0,0,0,0,0,0,0,0,0,0,4,
scooby_state_401d1f|9|-1 0,4,0,0,0,0,0,0,0,0,0,0,0,0,0,4,
scooby_state_401d1f|48|-1 0,4,0,0,0,0,0,0,0,0,0,0,0,0,0,4,
scooby_state_401e81|46|1 0,4,0,0,0,0,0,0,0,0,0,0,0,0,0,4,
scooby_state_401d4f|30|1 4,0,0,0,0,0,0,0,0,0,0,0,0,0,0,4,
scooby_state_401e74|50|1 0,4,0,0,0,0,0,0,0,0,0,0,0,0,0,4,
scooby_state_401d4f|5|1 4,0,0,0,0,0,0,0,0,0,0,0,0,0,0,4,
scooby_state_401d1f|18|-1 0,4,0,0,0,0,0,0,0,0,0,0,0,0,0,4,
scooby_state_401d1f|15|-1 0,4,0,0,0,0,0,0,0,0,0,0,0,0,0,4,
scooby_state_401e81|30|1 0,4,0,0,0,0,0,0,0,0,0,0,0,0,0,4,
scooby_state_401e40|5|-1 4,0,0,0,0,0,0,0,0,0,0,0,0,0,0,4,
scooby_state_401e40|10|-1 4,0,0,0,0,0,0,0,0,0,0,0,0,0,0,4,
scooby_state_401e19|21|-2 0,4,0,0,0,0,0,0,0,0,0,0,0,0,0,4,
scooby_state_401e40|40|-1 4,0,0,0,0,0,0,0,0,0,0,0,0,0,0,4,
scooby_state_401d4f|44|1 4,0,0,0,0,0,0,0,0,0,0,0,0,0,0,4,
scooby_state_401d1f|23|-1 0,4,0,0,0,0,0,0,0,0,0,0,0,0,0,4,
scooby_state_401e40|27|-1 3,0,0,0,0,0,0,0,0,0,0,0,0,0,0,3,
scooby_state_401d98|1|1 0,3,0,0,0,0,0,0,0,0,0,0,0,0,0,3,
scooby_state_401e81|48|1 0,3,0,0,0,0,0,0,0,0,0,0,0,0,0,3,
scooby_state_401e26|0|-2 0,3,0,0,0,0,0,0,0,0,0,0,0,0,0,3,
scooby_state_401e40|41|-1 3,0,0,0,0,0,0,0,0,0,0,0,0,0,0,3,
scooby_state_401e81|57|1 0,3,0,0,0,0,0,0,0,0,0,0,0,0,0,3,
scooby_state_401e74|52|1 0,3,0,0,0,0,0,0,0,0,0,0,0,0,0,3,
scooby_state_401e74|24|1 0,3,0,0,0,0,0,0,0,0,0,0,0,0,0,3,
scooby_state_401e81|10|1 0,3,0,0,0,0,0,0,0,0,0,0,0,0,0,3,
scooby_state_401e74|51|1 0,3,0,0,0,0,0,0,0,0,0,0,0,0,0,3,
scooby_state_401d4f|41|1 3,0,0,0,0,0,0,0,0,0,0,0,0,0,0,3,
scooby_state_401d1f|39|-1 0,3,0,0,0,0,0,0,0,0,0,0,0,0,0,3,
scooby_state_401d1f|7|-1 0,3,0,0,0,0,0,0,0,0,0,0,0,0,0,3,
scooby_state_401e4d|7|-1 3,0,0,0,0,0,0,0,0,0,0,0,0,0,0,3,
scooby_state_401e74|33|1 0,3,0,0,0,0,0,0,0,0,0,0,0,0,0,3,
scooby_state_401dac|1|-1 3,0,0,0,0,0,0,0,0,0,0,0,0,0,0,3,
scooby_state_401e74|53|1 0,3,0,0,0,0,0,0,0,0,0,0,0,0,0,3,
scooby_state_401e74|44|1 0,3,0,0,0,0,0,0,0,0,0,0,0,0,0,3,
scooby_state_401e81|25|1 0,3,0,0,0,0,0,0,0,0,0,0,0,0,0,3,
scooby_state_401d4f|35|1 3,0,0,0,0,0,0,0,0,0,0,0,0,0,0,3,
scooby_state_401e81|26|1 0,3,0,0,0,0,0,0,0,0,0,0,0,0,0,3,
scooby_state_401e4d|59|-1 3,0,0,0,0,0,0,0,0,0,0,0,0,0,0,3,
scooby_state_401d1f|61|-1 0,3,0,0,0,0,0,0,0,0,0,0,0,0,0,3,
scooby_state_401d1f|13|-1 0,3,0,0,0,0,0,0,0,0,0,0,0,0,0,3,
scooby_state_401d4f|29|1 3,0,0,0,0,0,0,0,0,0,0,0,0,0,0,3,
scooby_state_401e74|42|1 0,3,0,0,0,0,0,0,0,0,0,0,0,0,0,3,
scooby_state_401e81|22|1 0,3,0,0,0,0,0,0,0,0,0,0,0,0,0,3,
scooby_state_401d4f|25|1 3,0,0,0,0,0,0,0,0,0,0,0,0,0,0,3,
scooby_state_401d4f|57|1 3,0,0,0,0,0,0,0,0,0,0,0,0,0,0,3,
scooby_state_401e40|55|-1 3,0,0,0,0,0,0,0,0,0,0,0,0,0,0,3,
scooby_state_401d1f|11|-1 0,3,0,0,0,0,0,0,0,0,0,0,0,0,0,3,
scooby_state_401d4f|60|1 3,0,0,0,0,0,0,0,0,0,0,0,0,0,0,3,
scooby_state_401d4f|55|1 3,0,0,0,0,0,0,0,0,0,0,0,0,0,0,3,
scooby_state_401d1f|28|-1 0,3,0,0,0,0,0,0,0,0,0,0,0,0,0,3,
scooby_state_401d4f|58|1 3,0,0,0,0,0,0,0,0,0,0,0,0,0,0,3,
scooby_state_401d1f|49|-1 0,3,0,0,0,0,0,0,0,0,0,0,0,0,0,3,
scooby_state_401d4f|54|1 3,0,0,0,0,0,0,0,0,0,0,0,0,0,0,3,
scooby_state_401d4f|9|1 3,0,0,0,0,0,0,0,0,0,0,0,0,0,0,3,
scooby_state_401d1f|50|-1 0,3,0,0,0,0,0,0,0,0,0,0,0,0,0,3,
scooby_state_401d1f|12|-1 0,3,0,0,0,0,0,0,0,0,0,0,0,0,0,3,
scooby_state_401d1f|41|-1 0,3,0,0,0,0,0,0,0,0,0,0,0,0,0,3,
scooby_state_401d1f|14|-1 0,3,0,0,0,0,0,0,0,0,0,0,0,0,0,3,
scooby_state_401d1f|52|-1 0,3,0,0,0,0,0,0,0,0,0,0,0,0,0,3,
scooby_state_401d4f|31|1 3,0,0,0,0,0,0,0,0,0,0,0,0,0,0,3,
scooby_state_401d4f|17|1 3,0,0,0,0,0,0,0,0,0,0,0,0,0,0,3,
scooby_state_401e40|61|-1 3,0,0,0,0,0,0,0,0,0,0,0,0,0,0,3,
scooby_state_401e4d|12|-1 3,0,0,0,0,0,0,0,0,0,0,0,0,0,0,3,
scooby_state_401d4f|32|1 3,0,0,0,0,0,0,0,0,0,0,0,0,0,0,3,
scooby_state_401e81|36|1 0,3,0,0,0,0,0,0,0,0,0,0,0,0,0,3,
scooby_state_401d4f|38|1 3,0,0,0,0,0,0,0,0,0,0,0,0,0,0,3,
scooby_state_401e4d|18|-1 3,0,0,0,0,0,0,0,0,0,0,0,0,0,0,3,
scooby_state_401d4f|61|1 3,0,0,0,0,0,0,0,0,0,0,0,0,0,0,3,
scooby_state_401e81|27|1 0,3,0,0,0,0,0,0,0,0,0,0,0,0,0,3,
scooby_state_401e4d|20|-1 3,0,0,0,0,0,0,0,0,0,0,0,0,0,0,3,
scooby_state_401e81|31|1 0,3,0,0,0,0,0,0,0,0,0,0,0,0,0,3,
scooby_state_401e19|4|-2 0,3,0,0,0,0,0,0,0,0,0,0,0,0,0,3,
scooby_state_401d4f|40|1 2,0,0,0,0,0,0,0,0,0,0,0,0,0,0,2,
scooby_state_401e4d|19|-1 2,0,0,0,0,0,0,0,0,0,0,0,0,0,0,2,
scooby_state_401d1f|42|-1 0,2,0,0,0,0,0,0,0,0,0,0,0,0,0,2,
scooby_state_401e40|35|-1 2,0,0,0,0,0,0,0,0,0,0,0,0,0,0,2,
scooby_state_401d1f|55|-1 0,2,0,0,0,0,0,0,0,0,0,0,0,0,0,2,
scooby_state_401d1f|26|-1 0,2,0,0,0,0,0,0,0,0,0,0,0,0,0,2,
scooby_state_401d4f|49|1 2,0,0,0,0,0,0,0,0,0,0,0,0,0,0,2,
scooby_state_401e81|8|1 0,2,0,0,0,0,0,0,0,0,0,0,0,0,0,2,
scooby_state_401e81|54|1 0,2,0,0,0,0,0,0,0,0,0,0,0,0,0,2,
scooby_state_401d4f|50|1 2,0,0,0,0,0,0,0,0,0,0,0,0,0,0,2,
scooby_state_401d1f|16|-1 0,2,0,0,0,0,0,0,0,0,0,0,0,0,0,2,
scooby_state_401e0f|11|-2 2,0,0,0,0,0,0,0,0,0,0,0,0,0,0,2,
scooby_state_401e81|13|1 0,2,0,0,0,0,0,0,0,0,0,0,0,0,0,2,
scooby_state_401e81|11|1 0,2,0,0,0,0,0,0,0,0,0,0,0,0,0,2,
scooby_state_401e81|18|1 0,2,0,0,0,0,0,0,0,0,0,0,0,0,0,2,
scooby_state_401e81|32|1 0,2,0,0,0,0,0,0,0,0,0,0,0,0,0,2,
scooby_state_401ce6|63|2 2,0,0,0,0,0,0,0,0,0,0,0,0,0,0,2,
scooby_state_401d1f|47|-1 0,2,0,0,0,0,0,0,0,0,0,0,0,0,0,2,
scooby_state_401d1f|22|-1 0,2,0,0,0,0,0,0,0,0,0,0,0,0,0,2,
scooby_state_401d4f|1|1 2,0,0,0,0,0,0,0,0,0,0,0,0,0,0,2,
scooby_state_401e81|16|1 0,2,0,0,0,0,0,0,0,0,0,0,0,0,0,2,
scooby_state_401d4f|22|1 2,0,0,0,0,0,0,0,0,0,0,0,0,0,0,2,
scooby_state_401e40|0|-1 2,0,0,0,0,0,0,0,0,0,0,0,0,0,0,2,
scooby_state_401e8e|56|1 2,0,0,0,0,0,0,0,0,0,0,0,0,0,0,2,
scooby_state_401d1f|4|-1 0,2,0,0,0,0,0,0,0,0,0,0,0,0,0,2,
scooby_state_401d1f|24|-1 0,2,0,0,0,0,0,0,0,0,0,0,0,0,0,2,
scooby_state_401d4f|1|-1 2,0,0,0,0,0,0,0,0,0,0,0,0,0,0,2,
scooby_state_401e4d|17|-1 2,0,0,0,0,0,0,0,0,0,0,0,0,0,0,2,
scooby_state_401d4f|26|1 2,0,0,0,0,0,0,0,0,0,0,0,0,0,0,2,
scooby_state_401e0f|45|-2 2,0,0,0,0,0,0,0,0,0,0,0,0,0,0,2,
scooby_state_401d4f|56|1 2,0,0,0,0,0,0,0,0,0,0,0,0,0,0,2,
scooby_state_401d4f|14|1 2,0,0,0,0,0,0,0,0,0,0,0,0,0,0,2,
scooby_state_401d4f|42|1 2,0,0,0,0,0,0,0,0,0,0,0,0,0,0,2,
scooby_state_401e0f|55|-2 2,0,0,0,0,0,0,0,0,0,0,0,0,0,0,2,
scooby_state_401d4f|62|1 2,0,0,0,0,0,0,0,0,0,0,0,0,0,0,2,
scooby_state_401d1f|46|-1 0,2,0,0,0,0,0,0,0,0,0,0,0,0,0,2,
scooby_state_401e81|59|1 0,2,0,0,0,0,0,0,0,0,0,0,0,0,0,2,
scooby_state_401d7c|1|-1 2,0,0,0,0,0,0,0,0,0,0,0,0,0,0,2,
scooby_state_401d4f|16|1 2,0,0,0,0,0,0,0,0,0,0,0,0,0,0,2,
scooby_state_401e4d|13|-1 2,0,0,0,0,0,0,0,0,0,0,0,0,0,0,2,
scooby_state_401e40|43|-1 2,0,0,0,0,0,0,0,0,0,0,0,0,0,0,2,
scooby_state_401e81|24|1 0,2,0,0,0,0,0,0,0,0,0,0,0,0,0,2,
scooby_state_401e4d|35|-1 2,0,0,0,0,0,0,0,0,0,0,0,0,0,0,2,
scooby_state_401d4f|24|1 2,0,0,0,0,0,0,0,0,0,0,0,0,0,0,2,
scooby_state_401e0f|51|-2 2,0,0,0,0,0,0,0,0,0,0,0,0,0,0,2,
scooby_state_401d4f|7|1 2,0,0,0,0,0,0,0,0,0,0,0,0,0,0,2,
scooby_state_401d87|1|-1 2,0,0,0,0,0,0,0,0,0,0,0,0,0,0,2,
scooby_state_401d1f|58|-1 0,2,0,0,0,0,0,0,0,0,0,0,0,0,0,2,
scooby_state_401d1f|37|-1 0,2,0,0,0,0,0,0,0,0,0,0,0,0,0,2,
scooby_state_401e74|11|1 0,2,0,0,0,0,0,0,0,0,0,0,0,0,0,2,
scooby_state_401e81|41|1 0,2,0,0,0,0,0,0,0,0,0,0,0,0,0,2,
scooby_state_401d1f|32|-1 0,2,0,0,0,0,0,0,0,0,0,0,0,0,0,2,
scooby_state_401cf7|63|2 2,0,0,0,0,0,0,0,0,0,0,0,0,0,0,2,
scooby_state_401e81|47|1 0,2,0,0,0,0,0,0,0,0,0,0,0,0,0,2,
scooby_state_401d1f|63|2 0,2,0,0,0,0,0,0,0,0,0,0,0,0,0,2,
scooby_state_401d1f|60|-1 0,2,0,0,0,0,0,0,0,0,0,0,0,0,0,2,
scooby_state_401e81|42|1 0,2,0,0,0,0,0,0,0,0,0,0,0,0,0,2,
scooby_state_401d4f|36|1 2,0,0,0,0,0,0,0,0,0,0,0,0,0,0,2,
scooby_state_401d4f|27|1 2,0,0,0,0,0,0,0,0,0,0,0,0,0,0,2,
scooby_state_401d4f|53|1 2,0,0,0,0,0,0,0,0,0,0,0,0,0,0,2,
scooby_state_401d4f|2|1 2,0,0,0,0,0,0,0,0,0,0,0,0,0,0,2,
scooby_state_401d4f|4|1 2,0,0,0,0,0,0,0,0,0,0,0,0,0,0,2,
scooby_state_401e81|15|1 0,2,0,0,0,0,0,0,0,0,0,0,0,0,0,2,
scooby_state_401e67|56|-1 0,2,0,0,0,0,0,0,0,0,0,0,0,0,0,2,
scooby_state_4026e4|38|-3 1,0,0,0,0,0,0,0,0,0,0,0,0,0,0,1,
scooby_state_402304|12|1 1,0,0,0,0,0,0,0,0,0,0,0,0,0,0,1,
scooby_state_401e81|44|1 0,1,0,0,0,0,0,0,0,0,0,0,0,0,0,1,
scooby_state_401d82|54|1 1,0,0,0,0,0,0,0,0,0,0,0,0,0,0,1,
scooby_state_401f82|62|1 1,0,0,0,0,0,0,0,0,0,0,0,0,0,0,1,
scooby_state_401e0f|53|-2 1,0,0,0,0,0,0,0,0,0,0,0,0,0,0,1,
scooby_state_401f44|61|1 1,0,0,0,0,0,0,0,0,0,0,0,0,0,0,1,
scooby_state_401e33|3|3 0,1,0,0,0,0,0,0,0,0,0,0,0,0,0,1,
scooby_state_402183|6|1 1,0,0,0,0,0,0,0,0,0,0,0,0,0,0,1,
scooby_state_401ef0|59|4 1,0,0,0,0,0,0,0,0,0,0,0,0,0,0,1,
scooby_state_401e0f|44|-2 1,0,0,0,0,0,0,0,0,0,0,0,0,0,0,1,
scooby_state_401e74|43|1 0,1,0,0,0,0,0,0,0,0,0,0,0,0,0,1,
scooby_state_401e74|0|-3 0,1,0,0,0,0,0,0,0,0,0,0,0,0,0,1,
scooby_state_401cc5|51|1 1,0,0,0,0,0,0,0,0,0,0,0,0,0,0,1,
scooby_state_402638|41|1 1,0,0,0,0,0,0,0,0,0,0,0,0,0,0,1,
scooby_state_402203|8|1 1,0,0,0,0,0,0,0,0,0,0,0,0,0,0,1,
scooby_state_401e67|1|-3 0,1,0,0,0,0,0,0,0,0,0,0,0,0,0,1,
scooby_state_402540|21|1 1,0,0,0,0,0,0,0,0,0,0,0,0,0,0,1,
scooby_state_401e19|60|-2 0,1,0,0,0,0,0,0,0,0,0,0,0,0,0,1,
scooby_state_402058|41|-1 1,0,0,0,0,0,0,0,0,0,0,0,0,0,0,1,
scooby_state_4022c0|11|1 1,0,0,0,0,0,0,0,0,0,0,0,0,0,0,1,
scooby_state_402505|20|1 1,0,0,0,0,0,0,0,0,0,0,0,0,0,0,1,
scooby_state_402345|13|1 1,0,0,0,0,0,0,0,0,0,0,0,0,0,0,1,
scooby_state_401cb0|32|2 1,0,0,0,0,0,0,0,0,0,0,0,0,0,0,1,
scooby_state_401d60|1|-1 0,1,0,0,0,0,0,0,0,0,0,0,0,0,0,1,
scooby_state_401d4f|21|1 1,0,0,0,0,0,0,0,0,0,0,0,0,0,0,1,
scooby_state_401f00|60|1 1,0,0,0,0,0,0,0,0,0,0,0,0,0,0,1,
scooby_state_401e0f|49|-2 1,0,0,0,0,0,0,0,0,0,0,0,0,0,0,1,
scooby_state_402382|14|1 1,0,0,0,0,0,0,0,0,0,0,0,0,0,0,1,
scooby_state_401e67|15|-1 0,1,0,0,0,0,0,0,0,0,0,0,0,0,0,1,
scooby_state_401e02|30|2 1,0,0,0,0,0,0,0,0,0,0,0,0,0,0,1,
scooby_state_4023c0|15|1 1,0,0,0,0,0,0,0,0,0,0,0,0,0,0,1,
scooby_state_4026be|3|1 1,0,0,0,0,0,0,0,0,0,0,0,0,0,0,1,
scooby_state_401cf7|0|-2 0,1,0,0,0,0,0,0,0,0,0,0,0,0,0,1,
scooby_state_401e81|62|1 0,1,0,0,0,0,0,0,0,0,0,0,0,0,0,1,
scooby_state_40247f|1|0 1,0,0,0,0,0,0,0,0,0,0,0,0,0,0,1,
scooby_state_401d2b|41|-1 1,0,0,0,0,0,0,0,0,0,0,0,0,0,0,1,
scooby_state_402100|4|1 1,0,0,0,0,0,0,0,0,0,0,0,0,0,0,1,
scooby_state_401d4f|8|1 1,0,0,0,0,0,0,0,0,0,0,0,0,0,0,1,
scooby_state_401dc4|55|1 1,0,0,0,0,0,0,0,0,0,0,0,0,0,0,1,
scooby_state_401e0f|52|-2 1,0,0,0,0,0,0,0,0,0,0,0,0,0,0,1,
scooby_state_401e19|54|-2 0,1,0,0,0,0,0,0,0,0,0,0,0,0,0,1,
scooby_state_402463|39|-3 1,0,0,0,0,0,0,0,0,0,0,0,0,0,0,1,
scooby_state_402585|22|1 1,0,0,0,0,0,0,0,0,0,0,0,0,0,0,1,
scooby_state_4026c4|27|1 1,0,0,0,0,0,0,0,0,0,0,0,0,0,0,1,
scooby_state_401d1f|59|-1 0,1,0,0,0,0,0,0,0,0,0,0,0,0,0,1,
scooby_state_401e0f|36|-2 1,0,0,0,0,0,0,0,0,0,0,0,0,0,0,1,
scooby_state_401e67|31|-1 0,1,0,0,0,0,0,0,0,0,0,0,0,0,0,1,
scooby_state_401e0f|2|-2 1,0,0,0,0,0,0,0,0,0,0,0,0,0,0,1,
scooby_state_401d4f|43|1 1,0,0,0,0,0,0,0,0,0,0,0,0,0,0,1,
scooby_state_4020c2|3|1 1,0,0,0,0,0,0,0,0,0,0,0,0,0,0,1,
scooby_state_402485|18|1 1,0,0,0,0,0,0,0,0,0,0,0,0,0,0,1,
scooby_state_401e0f|9|-2 1,0,0,0,0,0,0,0,0,0,0,0,0,0,0,1,
scooby_state_401e0f|41|-2 1,0,0,0,0,0,0,0,0,0,0,0,0,0,0,1,
scooby_state_401e5a|58|-1 1,0,0,0,0,0,0,0,0,0,0,0,0,0,0,1,
scooby_state_401ce6|62|2 1,0,0,0,0,0,0,0,0,0,0,0,0,0,0,1,
scooby_state_402741|29|1 1,0,0,0,0,0,0,0,0,0,0,0,0,0,0,1,
scooby_state_401e02|56|-7 1,0,0,0,0,0,0,0,0,0,0,0,0,0,0,1,
scooby_state_401d2b|34|-1 1,0,0,0,0,0,0,0,0,0,0,0,0,0,0,1,
scooby_state_401d2b|51|-1 1,0,0,0,0,0,0,0,0,0,0,0,0,0,0,1,
scooby_state_401d4f|63|1 1,0,0,0,0,0,0,0,0,0,0,0,0,0,0,1,
scooby_state_401e02|21|2 1,0,0,0,0,0,0,0,0,0,0,0,0,0,0,1,
scooby_state_401e8e|59|1 1,0,0,0,0,0,0,0,0,0,0,0,0,0,0,1,
scooby_state_401e0f|61|-2 1,0,0,0,0,0,0,0,0,0,0,0,0,0,0,1,
scooby_state_401e0f|33|-2 1,0,0,0,0,0,0,0,0,0,0,0,0,0,0,1,
scooby_state_402530|40|-3 1,0,0,0,0,0,0,0,0,0,0,0,0,0,0,1,
scooby_state_40244b|17|0 1,0,0,0,0,0,0,0,0,0,0,0,0,0,0,1,
scooby_state_401cb0|26|2 1,0,0,0,0,0,0,0,0,0,0,0,0,0,0,1,
scooby_state_401e02|24|2 1,0,0,0,0,0,0,0,0,0,0,0,0,0,0,1,
scooby_state_401cb0|30|2 1,0,0,0,0,0,0,0,0,0,0,0,0,0,0,1,
scooby_state_401e67|29|-1 0,1,0,0,0,0,0,0,0,0,0,0,0,0,0,1,
scooby_state_401d4f|6|1 1,0,0,0,0,0,0,0,0,0,0,0,0,0,0,1,
scooby_state_402081|2|1 1,0,0,0,0,0,0,0,0,0,0,0,0,0,0,1,
scooby_state_401e8e|1|1 1,0,0,0,0,0,0,0,0,0,0,0,0,0,0,1,
scooby_state_401d1f|54|-1 0,1,0,0,0,0,0,0,0,0,0,0,0,0,0,1,
scooby_state_401d2b|40|-1 1,0,0,0,0,0,0,0,0,0,0,0,0,0,0,1,
scooby_state_401d1f|1|-1 0,1,0,0,0,0,0,0,0,0,0,0,0,0,0,1,
scooby_state_401e0f|4|-2 1,0,0,0,0,0,0,0,0,0,0,0,0,0,0,1,
scooby_state_402600|24|1 1,0,0,0,0,0,0,0,0,0,0,0,0,0,0,1,
scooby_state_401d2b|20|-1 0,1,0,0,0,0,0,0,0,0,0,0,0,0,0,1,
scooby_state_401e67|2|-1 0,1,0,0,0,0,0,0,0,0,0,0,0,0,0,1,
scooby_state_401d2b|4|-1 0,1,0,0,0,0,0,0,0,0,0,0,0,0,0,1,
scooby_state_401d4f|34|1 1,0,0,0,0,0,0,0,0,0,0,0,0,0,0,1,
scooby_state_401e4d|14|-1 1,0,0,0,0,0,0,0,0,0,0,0,0,0,0,1,
scooby_state_402642|25|1 1,0,0,0,0,0,0,0,0,0,0,0,0,0,0,1,
scooby_state_402285|10|1 1,0,0,0,0,0,0,0,0,0,0,0,0,0,0,1,
scooby_state_401d03|52|1 1,0,0,0,0,0,0,0,0,0,0,0,0,0,0,1,
scooby_state_402058|41|0 1,0,0,0,0,0,0,0,0,0,0,0,0,0,0,1,
scooby_state_402505|2|1 1,0,0,0,0,0,0,0,0,0,0,0,0,0,0,1,
scooby_state_401e0f|16|-2 1,0,0,0,0,0,0,0,0,0,0,0,0,0,0,1,
scooby_state_402044|1|1 1,0,0,0,0,0,0,0,0,0,0,0,0,0,0,1,
scooby_state_4021c2|7|1 1,0,0,0,0,0,0,0,0,0,0,0,0,0,0,1,
scooby_state_401d1f|53|-1 0,1,0,0,0,0,0,0,0,0,0,0,0,0,0,1,
scooby_state_401fc1|63|1 1,0,0,0,0,0,0,0,0,0,0,0,0,0,0,1,
scooby_state_401e0f|50|-2 1,0,0,0,0,0,0,0,0,0,0,0,0,0,0,1,
scooby_state_401e4d|3|-1 1,0,0,0,0,0,0,0,0,0,0,0,0,0,0,1,
scooby_state_401ce6|9|-2 1,0,0,0,0,0,0,0,0,0,0,0,0,0,0,1,
scooby_state_4027c2|31|1 1,0,0,0,0,0,0,0,0,0,0,0,0,0,0,1,
scooby_state_402000|0|-31 1,0,0,0,0,0,0,0,0,0,0,0,0,0,0,1,
scooby_state_4024cf|43|4 1,0,0,0,0,0,0,0,0,0,0,0,0,0,0,1,
scooby_state_402704|28|1 1,0,0,0,0,0,0,0,0,0,0,0,0,0,0,1,
scooby_state_401e0f|10|-2 1,0,0,0,0,0,0,0,0,0,0,0,0,0,0,1,
scooby_state_401cb0|50|0 1,0,0,0,0,0,0,0,0,0,0,0,0,0,0,1,
scooby_state_402680|26|1 1,0,0,0,0,0,0,0,0,0,0,0,0,0,0,1,
scooby_state_401e0f|24|-2 1,0,0,0,0,0,0,0,0,0,0,0,0,0,0,1,
scooby_state_401e40|57|1 1,0,0,0,0,0,0,0,0,0,0,0,0,0,0,1,
scooby_state_402780|30|1 1,0,0,0,0,0,0,0,0,0,0,0,0,0,0,1,
scooby_state_4024c4|19|1 1,0,0,0,0,0,0,0,0,0,0,0,0,0,0,1,
scooby_state_401e0f|29|-2 1,0,0,0,0,0,0,0,0,0,0,0,0,0,0,1,
scooby_state_401e67|25|-1 0,1,0,0,0,0,0,0,0,0,0,0,0,0,0,1,
scooby_state_401cb0|23|2 1,0,0,0,0,0,0,0,0,0,0,0,0,0,0,1,
scooby_state_402241|9|1 1,0,0,0,0,0,0,0,0,0,0,0,0,0,0,1,
scooby_state_401e67|22|-1 0,1,0,0,0,0,0,0,0,0,0,0,0,0,0,1,
scooby_state_401e0f|60|-2 1,0,0,0,0,0,0,0,0,0,0,0,0,0,0,1,
scooby_state_401d4f|51|1 1,0,0,0,0,0,0,0,0,0,0,0,0,0,0,1,
scooby_state_40246a|42|0 1,0,0,0,0,0,0,0,0,0,0,0,0,0,0,1,
scooby_state_4025c2|23|1 1,0,0,0,0,0,0,0,0,0,0,0,0,0,0,1,
scooby_state_402402|16|1 1,0,0,0,0,0,0,0,0,0,0,0,0,0,0,1,
scooby_state_402142|5|1 1,0,0,0,0,0,0,0,0,0,0,0,0,0,0,1,
scooby_state_401e8e|26|1 1,0,0,0,0,0,0,0,0,0,0,0,0,0,0,1,
scooby_state_401e02|28|2 1,0,0,0,0,0,0,0,0,0,0,0,0,0,0,1,

scooby_action_0_deg_dist 0,84,0,0,0,0,0,0,0,0,0,0,0,0,0,0,
scooby_action_4_deg_dist 0,86,0,0,0,0,0,0,0,0,0,0,0,0,0,0,
scooby_action_3_deg_dist 0,40946,27474,0,66766,0,202093,0,0,0,0,0,0,0,0,0,
scooby_action_32_deg_dist 0,71,0,0,0,0,0,0,0,0,0,0,0,0,0,0,
scooby_action_5_deg_dist 0,86,0,0,0,0,0,0,0,0,0,0,0,0,0,0,
scooby_action_1_deg_dist 0,36902,28425,0,74122,0,231842,0,0,0,0,0,0,0,0,0,
scooby_action_30_deg_dist 0,99,0,0,0,0,0,0,0,0,0,0,0,0,0,0,
scooby_action_-3_deg_dist 0,83,0,0,0,0,0,0,0,0,0,0,0,0,0,0,
scooby_action_10_deg_dist 0,93,0,0,0,0,0,0,0,0,0,0,0,0,0,0,
scooby_action_-1_deg_dist 0,92,0,0,0,0,0,0,0,0,0,0,0,0,0,0,
scooby_action_23_deg_dist 0,80,0,0,0,0,0,0,0,0,0,0,0,0,0,0,
scooby_action_-6_deg_dist 0,74,0,0,0,0,0,0,0,0,0,0,0,0,0,0,
scooby_action_11_deg_dist 0,81,0,0,0,0,0,0,0,0,0,0,0,0,0,0,
scooby_action_22_deg_dist 0,90,0,0,0,0,0,0,0,0,0,0,0,0,0,0,
scooby_action_12_deg_dist 0,94,0,0,0,0,0,0,0,0,0,0,0,0,0,0,

scooby_track_called 709683
scooby_track_same_address 135481
scooby_track_evict 573946

scooby_reward_demand_called 709683
scooby_reward_demand_pt_not_found 158592
scooby_reward_demand_pt_found 551091
scooby_reward_demand_pt_found_total 551091
scooby_reward_demand_has_reward 104
scooby_reward_train_called 1546
scooby_reward_assign_reward_called 574198
scooby_reward_no_pref 84
scooby_reward_incorrect 1462
scooby_reward_correct_untimely 437587
scooby_reward_correct_timely 113400
scooby_reward_out_of_bounds 21665
scooby_reward_tracker_hit 0

scooby_reward_none_low_bw 84
scooby_reward_none_high_bw 0
scooby_reward_incorrect_low_bw 1462
scooby_reward_incorrect_high_bw 0
scooby_reward_correct_untimely_low_bw 437587
scooby_reward_correct_untimely_high_bw 0
scooby_reward_correct_timely_low_bw 113400
scooby_reward_correct_timely_high_bw 0
scooby_reward_out_of_bounds_low_bw 21665
scooby_reward_out_of_bounds_high_bw 0
scooby_reward_tracker_hit_low_bw 0
scooby_reward_tracker_hit_high_bw 0

scooby_reward_1 0,797,226560,55742,5782,0,
scooby_reward_3 0,623,210866,57230,15681,0,
scooby_reward_4 0,0,62,21,3,0,
scooby_reward_5 0,1,46,35,4,0,
scooby_reward_10 0,0,27,52,14,0,
scooby_reward_11 0,1,12,58,9,0,
scooby_reward_12 0,0,13,67,14,0,
scooby_reward_22 0,0,0,61,29,0,
scooby_reward_23 0,0,0,52,28,0,
scooby_reward_30 0,0,0,47,52,0,
scooby_reward_32 0,0,0,35,36,0,
scooby_reward_-1 0,18,1,0,2,0,
scooby_reward_-3 0,12,0,0,6,0,
scooby_reward_-6 0,10,0,0,5,0,
scooby_reward_0 84,0,0,0,0,0,

scooby_train_called 573945
scooby_train_compute_reward 1546

scooby_register_fill_called 562668
scooby_register_fill_set 113892
scooby_register_fill_set_total 113892

scooby_register_prefetch_hit_called 960998
scooby_register_prefetch_hit_set 362158
scooby_register_prefetch_hit_set_total 362158

scooby_pref_issue_scooby 2295134

learning_engine_featurewise.action.called 709683
learning_engine_featurewise.action.explore 1281
learning_engine_featurewise.action.exploit 708402
learning_engine_featurewise.action.fallback 0
learning_engine_featurewise.action.dyn_fallback_saved_bw 0
learning_engine_featurewise.action.dyn_fallback_saved_bw_acc 16743
learning_engine_featurewise.action.index_1_explored 82
learning_engine_featurewise.action.index_1_exploited 371209
learning_engine_featurewise.action.index_3_explored 86
learning_engine_featurewise.action.index_3_exploited 337193
learning_engine_featurewise.action.index_4_explored 86
learning_engine_featurewise.action.index_4_exploited 0
learning_engine_featurewise.action.index_5_explored 86
learning_engine_featurewise.action.index_5_exploited 0
learning_engine_featurewise.action.index_10_explored 93
learning_engine_featurewise.action.index_10_exploited 0
learning_engine_featurewise.action.index_11_explored 81
learning_engine_featurewise.action.index_11_exploited 0
learning_engine_featurewise.action.index_12_explored 94
learning_engine_featurewise.action.index_12_exploited 0
learning_engine_featurewise.action.index_22_explored 90
learning_engine_featurewise.action.index_22_exploited 0
learning_engine_featurewise.action.index_23_explored 80
learning_engine_featurewise.action.index_23_exploited 0
learning_engine_featurewise.action.index_30_explored 99
learning_engine_featurewise.action.index_30_exploited 0
learning_engine_featurewise.action.index_32_explored 71
learning_engine_featurewise.action.index_32_exploited 0
learning_engine_featurewise.action.index_-1_explored 92
learning_engine_featurewise.action.index_-1_exploited 0
learning_engine_featurewise.action.index_-3_explored 83
learning_engine_featurewise.action.index_-3_exploited 0
learning_engine_featurewise.action.index_-6_explored 74
learning_engine_featurewise.action.index_-6_exploited 0
learning_engine_featurewise.action.index_0_explored 84
learning_engine_featurewise.action.index_0_exploited 0
learning_engine_featurewise.learn.called 573945
learning_engine_featurewise.learn.su_skip_PC 0
learning_engine_featurewise.learn.su_skip_PC_Delta 0

learning_engine_featurewise.q_value_histogram.bucket_0 0
learning_engine_featurewise.q_value_histogram.bucket_1 0
learning_engine_featurewise.q_value_histogram.bucket_2 0
learning_engine_featurewise.q_value_histogram.bucket_3 0
learning_engine_featurewise.q_value_histogram.bucket_4 1726
learning_engine_featurewise.q_value_histogram.bucket_5 3538
learning_engine_featurewise.q_value_histogram.bucket_6 703138
learning_engine_featurewise.q_value_histogram.bucket_7 0

learning_engine_featurewise.consensus.total 708402
learning_engine_featurewise.consensus.feature_align_PC 704286
learning_engine_featurewise.consensus.feature_align_PC_ratio 0.99
learning_engine_featurewise.consensus.feature_align_PC_Delta 707084
learning_engine_featurewise.consensus.feature_align_PC_Delta_ratio 1.00
learning_engine_featurewise.consensus.feature_align_all 702968
learning_engine_featurewise.consensus.feature_align_all_ratio 0.99

learning_engine_featurewise.feature_PC_min_weight 1000000.00000000
learning_engine_featurewise.feature_PC_max_weight 0.00000000
learning_engine_featurewise.feature_PC_Delta_min_weight 1000000.00000000
learning_engine_featurewise.feature_PC_Delta_max_weight 0.00000000
unique_pcs 83
unique_pages 11067
unique_trigger_pcs 8
total_bitmaps_seen 0
unique_bitmaps_seen 0

scooby_bw_epochs 542508
scooby_bw_level_0 104968
scooby_bw_level_1 241782
scooby_bw_level_2 148477
scooby_bw_level_3 47281

scooby_ipc_epochs 0
scooby_ipc_level_0 0
scooby_ipc_level_1 0
scooby_ipc_level_2 0
scooby_ipc_level_3 0

scooby_cache_acc_epochs 132058
scooby_cache_acc_level_0 612
scooby_cache_acc_level_1 1840
scooby_cache_acc_level_2 3079
scooby_cache_acc_level_3 4398
scooby_cache_acc_level_4 5726
scooby_cache_acc_level_5 8034
scooby_cache_acc_level_6 10457
scooby_cache_acc_level_7 12076
scooby_cache_acc_level_8 12623
scooby_cache_acc_level_9 73213

Channel_0_RQ_row_buffer_hit 262457
Channel_0_RQ_row_buffer_miss 2101777
Channel_0_WQ_row_buffer_hit 179349
Channel_0_WQ_row_buffer_miss 1595683
Channel_0_WQ_full 0
Channel_0_dbus_congested 2804470

avg_congested_cycle 11

DRAM_bw_pochs 542508
DRAM_bw_level_0 104968
DRAM_bw_level_1 241782
DRAM_bw_level_2 148477
DRAM_bw_level_3 47281
