*************************************************
   ChampSim Multicore Out-of-Order Simulator
   Last compiled: Apr  3 2025 20:54:34
*************************************************
parsing config file: /home/zir/Pythia/config/pythia.ini

trace_0 /home/zir/ChampSim/ML-DPC/ChampSimTraces/spec17/619.lbm-s0.trace.xz
adding L2C_PREFETCHER: Scooby
Initialize SHIP state
warmup_instructions 10000000
simulation_instructions 50000000
champsim_seed 163
measure_ipc 0
measure_ipc_epoch 1000
measure_dram_bw 1
measure_dram_bw_epoch 256
measure_cache_acc 1
measure_cache_acc_epoch 1024
l1d_perfect 0
l2c_perfect 0
llc_perfect 0
l1d_semi_perfect 0
l2c_semi_perfect 0
llc_semi_perfect 0
semi_perfect_cache_page_buffer_size 64

num_cpus 1
cpu_freq 4000
dram_io_freq 2400
page_size 4096
block_size 64
max_read_per_cycle 8
max_fill_per_cycle 1
dram_channels 1
log2_dram_channels 0
dram_ranks 1
dram_banks 8
dram_rows 65536
dram_columns 128
dram_row_size 8
dram_size 4096
dram_pages 1048576

fetch_width 6
decode_width 6
exec_width 4
lq_width 2
sq_width 2
retire_width 4
scheduler_size 128
branch_mispredict_penalty 20
rob_size 256
lq_size 72
sq_size 56
num_instr_destinations_sparc 4
num_instr_destinations 2
num_instr_sources 4

itlb_set 16
itlb_way 8
itlb_rq_size 16
itlb_wq_size 16
itlb_pq_size 0
itlb_mshr_size 8
itlb_latency 1

dtlb_set 16
dtlb_way 4
dtlb_rq_size 16
dtlb_wq_size 16
dtlb_pq_size 0
dtlb_mshr_size 8
dtlb_latency 1

stlb_set 128
stlb_way 12
stlb_rq_size 32
stlb_wq_size 32
stlb_pq_size 0
stlb_mshr_size 16
stlb_latency 8

l1i_size 32
l1i_set 64
l1i_way 8
l1i_rq_size 64
l1i_wq_size 64
l1i_pq_size 8
l1i_mshr_size 8
l1i_latency 1

l1d_size 32
l1d_set 64
l1d_way 8
l1d_rq_size 64
l1d_wq_size 64
l1d_pq_size 8
l1d_mshr_size 16
l1d_latency 4

l2c_size 256
l2c_set 512
l2c_way 8
l2c_rq_size 32
l2c_wq_size 32
l2c_pq_size 32
l2c_mshr_size 32
l2c_latency 10

llc_size 2048
llc_set 2048
llc_way 16
llc_rq_size 32
llc_wq_size 32
llc_pq_size 32
llc_mshr_size 64
llc_latency 20

dram_channel_width 8
dram_wq_size 64
dram_rq_size 64
tRP 15
tRCD 15
tCAS 12.5
dram_dbus_turn_around_time 30
dram_write_high_wm 56
dram_write_low_wm 48
min_dram_writes_per_switch 16
dram_mtps 2400
dram_dbus_return_time 13

scooby_alpha 0.0065088
scooby_gamma 0.556301
scooby_epsilon 0.00182284
scooby_state_num_bits 10
scooby_max_states 1024
scooby_seed 200
scooby_policy EGreedy
scooby_learning_type SARSA
scooby_actions 1,3,4,5,10,11,12,22,23,30,32,-1,-3,-6,0,
scooby_max_actions 15
scooby_pt_size 256
scooby_st_size 64
scooby_max_pcs 5
scooby_max_offsets 5
scooby_max_deltas 5
scooby_reward_none -4
scooby_reward_incorrect -8
scooby_reward_correct_untimely 12
scooby_reward_correct_timely 20
scooby_brain_zero_init 0
scooby_enable_reward_all 0
scooby_enable_track_multiple 0
scooby_enable_reward_out_of_bounds 1
scooby_reward_out_of_bounds -12
scooby_state_type 1
scooby_state_hash_type 11
scooby_access_debug 0
scooby_print_access_debug 0
scooby_print_access_debug_pc deadbeef
scooby_print_access_debug_pc_count 0
scooby_print_trace 0
scooby_enable_state_action_stats 1
scooby_enable_reward_tracker_hit 0
scooby_reward_tracker_hit -2
scooby_enable_featurewise_engine 1
scooby_pref_degree 1
scooby_enable_dyn_degree 1
scooby_max_to_avg_q_thresholds 0.5,1,2,
scooby_dyn_degrees 1,2,4,4,
scooby_multi_deg_select_type 2
scooby_last_pref_offset_conf_thresholds 1,3,8,
scooby_dyn_degrees_type2 1,2,4,6,
scooby_action_tracker_size 2
scooby_high_bw_thresh 4
scooby_enable_hbw_reward 1
scooby_reward_hbw_correct_timely 20
scooby_reward_hbw_correct_untimely 12
scooby_reward_hbw_incorrect -14
scooby_reward_hbw_none -2
scooby_reward_hbw_out_of_bounds -12
scooby_reward_hbw_tracker_hit -2
scooby_last_pref_offset_conf_thresholds_hbw 1,3,8,
scooby_dyn_degrees_type2_hbw 1,2,4,6,

le_enable_trace 0
le_trace_interval 0
le_trace_file_name 
le_trace_state 0
le_enable_score_plot 0
le_plot_file_name 
le_plot_actions 
le_enable_action_trace 0
le_action_trace_interval 0
le_action_trace_name 
le_enable_action_plot 0

le_featurewise_active_features PC, PC_Delta
le_featurewise_num_tilings 3,3,
le_featurewise_num_tiles 128,128,
le_featurewise_hash_types 2,2,
le_featurewise_enable_tiling_offset 1,1,
le_featurewise_max_q_thresh 0.5
le_featurewise_enable_action_fallback 1
le_featurewise_feature_weights 1,1,
le_featurewise_enable_dynamic_weight 0
le_featurewise_weight_gradient 0.001
le_featurewise_disable_adjust_weight_all_features_align 1
le_featurewise_selective_update 0
le_featurewise_pooling_type 2
le_featurewise_enable_dyn_action_fallback 1
le_featurewise_bw_acc_check_level 1
le_featurewise_acc_thresh 2
le_featurewise_enable_trace 0
le_featurewise_trace_feature_type 0
le_featurewise_trace_feature 
le_featurewise_trace_interval 0
le_featurewise_trace_record_count 0
le_featurewise_trace_file_name 
le_featurewise_enable_score_plot 0
le_featurewise_plot_actions 
le_featurewise_plot_file_name 


Heartbeat CPU  0 instructions:    1000002 cycles:     411384 heartbeat IPC: 2.43082 cumulative IPC: 2.43082 (Simulation time: 0 hr 0 min 2 sec) 
Heartbeat CPU  0 instructions:    2000002 cycles:     821143 heartbeat IPC: 2.44046 cumulative IPC: 2.43563 (Simulation time: 0 hr 0 min 4 sec) 
Heartbeat CPU  0 instructions:    3000003 cycles:    1247202 heartbeat IPC: 2.34710 cumulative IPC: 2.40539 (Simulation time: 0 hr 0 min 6 sec) 
Heartbeat CPU  0 instructions:    4000000 cycles:    1677264 heartbeat IPC: 2.32524 cumulative IPC: 2.38484 (Simulation time: 0 hr 0 min 8 sec) 
Heartbeat CPU  0 instructions:    5000000 cycles:    2101552 heartbeat IPC: 2.35689 cumulative IPC: 2.37919 (Simulation time: 0 hr 0 min 10 sec) 
Heartbeat CPU  0 instructions:    6000003 cycles:    2527699 heartbeat IPC: 2.34662 cumulative IPC: 2.37370 (Simulation time: 0 hr 0 min 12 sec) 
Heartbeat CPU  0 instructions:    7000001 cycles:    2953041 heartbeat IPC: 2.35104 cumulative IPC: 2.37044 (Simulation time: 0 hr 0 min 14 sec) 
Heartbeat CPU  0 instructions:    8000000 cycles:    3376601 heartbeat IPC: 2.36094 cumulative IPC: 2.36925 (Simulation time: 0 hr 0 min 16 sec) 
Heartbeat CPU  0 instructions:    9000001 cycles:    3797417 heartbeat IPC: 2.37634 cumulative IPC: 2.37003 (Simulation time: 0 hr 0 min 18 sec) 
Heartbeat CPU  0 instructions:   10000000 cycles:    4207777 heartbeat IPC: 2.43688 cumulative IPC: 2.37655 (Simulation time: 0 hr 0 min 19 sec) 

Warmup complete CPU  0 instructions:   10000004 cycles:    4207778 (Simulation time: 0 hr 0 min 19 sec) 

Heartbeat CPU  0 instructions:   11000002 cycles:    6486285 heartbeat IPC: 0.43888 cumulative IPC: 0.43888 (Simulation time: 0 hr 0 min 23 sec) 
Heartbeat CPU  0 instructions:   12000000 cycles:    9242576 heartbeat IPC: 0.36281 cumulative IPC: 0.39723 (Simulation time: 0 hr 0 min 26 sec) 
Heartbeat CPU  0 instructions:   13000000 cycles:   11886540 heartbeat IPC: 0.37822 cumulative IPC: 0.39069 (Simulation time: 0 hr 0 min 29 sec) 
Heartbeat CPU  0 instructions:   14000000 cycles:   14575813 heartbeat IPC: 0.37185 cumulative IPC: 0.38580 (Simulation time: 0 hr 0 min 33 sec) 
Heartbeat CPU  0 instructions:   15000001 cycles:   17171694 heartbeat IPC: 0.38523 cumulative IPC: 0.38569 (Simulation time: 0 hr 0 min 36 sec) 
Heartbeat CPU  0 instructions:   16000000 cycles:   19774970 heartbeat IPC: 0.38413 cumulative IPC: 0.38543 (Simulation time: 0 hr 0 min 39 sec) 
Heartbeat CPU  0 instructions:   17000003 cycles:   22381074 heartbeat IPC: 0.38372 cumulative IPC: 0.38518 (Simulation time: 0 hr 0 min 43 sec) 
Heartbeat CPU  0 instructions:   18000003 cycles:   24842076 heartbeat IPC: 0.40634 cumulative IPC: 0.38770 (Simulation time: 0 hr 0 min 46 sec) 
Heartbeat CPU  0 instructions:   19000000 cycles:   27036559 heartbeat IPC: 0.45569 cumulative IPC: 0.39424 (Simulation time: 0 hr 0 min 49 sec) 
Heartbeat CPU  0 instructions:   20000000 cycles:   29320020 heartbeat IPC: 0.43793 cumulative IPC: 0.39821 (Simulation time: 0 hr 0 min 52 sec) 
Heartbeat CPU  0 instructions:   21000003 cycles:   31882898 heartbeat IPC: 0.39019 cumulative IPC: 0.39747 (Simulation time: 0 hr 0 min 55 sec) 
Heartbeat CPU  0 instructions:   22000002 cycles:   34540933 heartbeat IPC: 0.37622 cumulative IPC: 0.39561 (Simulation time: 0 hr 0 min 59 sec) 
Heartbeat CPU  0 instructions:   23000001 cycles:   37170703 heartbeat IPC: 0.38026 cumulative IPC: 0.39438 (Simulation time: 0 hr 1 min 2 sec) 
Heartbeat CPU  0 instructions:   24000000 cycles:   39564135 heartbeat IPC: 0.41781 cumulative IPC: 0.39597 (Simulation time: 0 hr 1 min 5 sec) 
Heartbeat CPU  0 instructions:   25000002 cycles:   42201163 heartbeat IPC: 0.37922 cumulative IPC: 0.39481 (Simulation time: 0 hr 1 min 9 sec) 
Heartbeat CPU  0 instructions:   26000001 cycles:   44691809 heartbeat IPC: 0.40150 cumulative IPC: 0.39522 (Simulation time: 0 hr 1 min 12 sec) 
Heartbeat CPU  0 instructions:   27000001 cycles:   47344037 heartbeat IPC: 0.37704 cumulative IPC: 0.39410 (Simulation time: 0 hr 1 min 15 sec) 
Heartbeat CPU  0 instructions:   28000000 cycles:   49602280 heartbeat IPC: 0.44282 cumulative IPC: 0.39652 (Simulation time: 0 hr 1 min 18 sec) 
Heartbeat CPU  0 instructions:   29000001 cycles:   51650827 heartbeat IPC: 0.48815 cumulative IPC: 0.40048 (Simulation time: 0 hr 1 min 21 sec) 
Heartbeat CPU  0 instructions:   30000003 cycles:   53999959 heartbeat IPC: 0.42569 cumulative IPC: 0.40167 (Simulation time: 0 hr 1 min 24 sec) 
Heartbeat CPU  0 instructions:   31000002 cycles:   56511397 heartbeat IPC: 0.39818 cumulative IPC: 0.40150 (Simulation time: 0 hr 1 min 27 sec) 
Heartbeat CPU  0 instructions:   32000000 cycles:   58802287 heartbeat IPC: 0.43651 cumulative IPC: 0.40297 (Simulation time: 0 hr 1 min 31 sec) 
Heartbeat CPU  0 instructions:   33000003 cycles:   61255353 heartbeat IPC: 0.40765 cumulative IPC: 0.40317 (Simulation time: 0 hr 1 min 34 sec) 
Heartbeat CPU  0 instructions:   34000003 cycles:   63609620 heartbeat IPC: 0.42476 cumulative IPC: 0.40403 (Simulation time: 0 hr 1 min 37 sec) 
Heartbeat CPU  0 instructions:   35000003 cycles:   65799525 heartbeat IPC: 0.45664 cumulative IPC: 0.40590 (Simulation time: 0 hr 1 min 40 sec) 
Heartbeat CPU  0 instructions:   36000000 cycles:   68151383 heartbeat IPC: 0.42519 cumulative IPC: 0.40661 (Simulation time: 0 hr 1 min 43 sec) 
Heartbeat CPU  0 instructions:   37000000 cycles:   70742688 heartbeat IPC: 0.38591 cumulative IPC: 0.40580 (Simulation time: 0 hr 1 min 46 sec) 
Heartbeat CPU  0 instructions:   38000001 cycles:   72932703 heartbeat IPC: 0.45662 cumulative IPC: 0.40742 (Simulation time: 0 hr 1 min 49 sec) 
Heartbeat CPU  0 instructions:   39000001 cycles:   74986430 heartbeat IPC: 0.48692 cumulative IPC: 0.40973 (Simulation time: 0 hr 1 min 52 sec) 
Heartbeat CPU  0 instructions:   40000000 cycles:   77145952 heartbeat IPC: 0.46306 cumulative IPC: 0.41131 (Simulation time: 0 hr 1 min 55 sec) 
Heartbeat CPU  0 instructions:   41000003 cycles:   79430209 heartbeat IPC: 0.43778 cumulative IPC: 0.41211 (Simulation time: 0 hr 1 min 59 sec) 
Heartbeat CPU  0 instructions:   42000000 cycles:   81524894 heartbeat IPC: 0.47740 cumulative IPC: 0.41388 (Simulation time: 0 hr 2 min 1 sec) 
Heartbeat CPU  0 instructions:   43000002 cycles:   83997140 heartbeat IPC: 0.40449 cumulative IPC: 0.41359 (Simulation time: 0 hr 2 min 5 sec) 
Heartbeat CPU  0 instructions:   44000000 cycles:   86095106 heartbeat IPC: 0.47665 cumulative IPC: 0.41520 (Simulation time: 0 hr 2 min 8 sec) 
Heartbeat CPU  0 instructions:   45000003 cycles:   88312057 heartbeat IPC: 0.45107 cumulative IPC: 0.41615 (Simulation time: 0 hr 2 min 11 sec) 
Heartbeat CPU  0 instructions:   46000000 cycles:   90430490 heartbeat IPC: 0.47205 cumulative IPC: 0.41752 (Simulation time: 0 hr 2 min 14 sec) 
Heartbeat CPU  0 instructions:   47000002 cycles:   92928494 heartbeat IPC: 0.40032 cumulative IPC: 0.41704 (Simulation time: 0 hr 2 min 17 sec) 
Heartbeat CPU  0 instructions:   48000000 cycles:   95132347 heartbeat IPC: 0.45375 cumulative IPC: 0.41793 (Simulation time: 0 hr 2 min 20 sec) 
Heartbeat CPU  0 instructions:   49000002 cycles:   97108684 heartbeat IPC: 0.50599 cumulative IPC: 0.41980 (Simulation time: 0 hr 2 min 23 sec) 
Heartbeat CPU  0 instructions:   50000001 cycles:   99198718 heartbeat IPC: 0.47846 cumulative IPC: 0.42109 (Simulation time: 0 hr 2 min 26 sec) 
Heartbeat CPU  0 instructions:   51000000 cycles:  101171824 heartbeat IPC: 0.50681 cumulative IPC: 0.42284 (Simulation time: 0 hr 2 min 29 sec) 
Heartbeat CPU  0 instructions:   52000000 cycles:  103300264 heartbeat IPC: 0.46983 cumulative IPC: 0.42385 (Simulation time: 0 hr 2 min 32 sec) 
Heartbeat CPU  0 instructions:   53000003 cycles:  105499158 heartbeat IPC: 0.45478 cumulative IPC: 0.42452 (Simulation time: 0 hr 2 min 35 sec) 
Heartbeat CPU  0 instructions:   54000003 cycles:  107632588 heartbeat IPC: 0.46873 cumulative IPC: 0.42543 (Simulation time: 0 hr 2 min 38 sec) 
Heartbeat CPU  0 instructions:   55000000 cycles:  109707273 heartbeat IPC: 0.48200 cumulative IPC: 0.42654 (Simulation time: 0 hr 2 min 41 sec) 
Heartbeat CPU  0 instructions:   56000000 cycles:  111763116 heartbeat IPC: 0.48642 cumulative IPC: 0.42769 (Simulation time: 0 hr 2 min 43 sec) 
Heartbeat CPU  0 instructions:   57000003 cycles:  113695214 heartbeat IPC: 0.51757 cumulative IPC: 0.42927 (Simulation time: 0 hr 2 min 46 sec) 
Heartbeat CPU  0 instructions:   58000002 cycles:  116128919 heartbeat IPC: 0.41090 cumulative IPC: 0.42887 (Simulation time: 0 hr 2 min 50 sec) 
Heartbeat CPU  0 instructions:   59000003 cycles:  118024813 heartbeat IPC: 0.52746 cumulative IPC: 0.43052 (Simulation time: 0 hr 2 min 52 sec) 
Heartbeat CPU  0 instructions:   60000000 cycles:  120155968 heartbeat IPC: 0.46923 cumulative IPC: 0.43123 (Simulation time: 0 hr 2 min 55 sec) 
Finished CPU 0 instructions: 50000000 cycles: 115948216 cumulative IPC: 0.43123 (Simulation time: 0 hr 2 min 55 sec) 

ChampSim completed all CPUs

[ROI Statistics]
Core_0_instructions 50000000
Core_0_cycles 115948216
Core_0_IPC 0.43123

Core_0_branch_prediction_accuracy 97.72417
Core_0_branch_MPKI 0.36452
Core_0_average_ROB_occupancy_at_mispredict 243.04828

Core_0_L1D_total_access 13222556
Core_0_L1D_total_hit 9869334
Core_0_L1D_total_miss 3353222
Core_0_L1D_loads 4674585
Core_0_L1D_load_hit 4166269
Core_0_L1D_load_miss 508316
Core_0_L1D_RFOs 8547971
Core_0_L1D_RFO_hit 5703065
Core_0_L1D_RFO_miss 2844906
Core_0_L1D_prefetches 0
Core_0_L1D_prefetch_hit 0
Core_0_L1D_prefetch_miss 0
Core_0_L1D_writebacks 0
Core_0_L1D_writeback_hit 0
Core_0_L1D_writeback_miss 0
Core_0_L1D_prefetch_requested 0
Core_0_L1D_prefetch_dropped 0
Core_0_L1D_prefetch_issued 0
Core_0_L1D_prefetch_filled 0
Core_0_L1D_prefetch_useful 0
Core_0_L1D_prefetch_useless 0
Core_0_L1D_prefetch_late 0
Core_0_L1D_average_miss_latency 481.31319

Core_0_L1D_rq_access 11436401
Core_0_L1D_rq_forward 0
Core_0_L1D_rq_merged 6321825
Core_0_L1D_rq_to_cache 4742973
Core_0_L1D_rq_full 0

Core_0_L1D_wq_access 8740015
Core_0_L1D_wq_forward 371603
Core_0_L1D_wq_merged 105983
Core_0_L1D_wq_to_cache 8634032
Core_0_L1D_wq_full 380059

Core_0_L1D_pq_access 0
Core_0_L1D_pq_forward 0
Core_0_L1D_pq_merged 0
Core_0_L1D_pq_to_cache 0
Core_0_L1D_pq_full 0

Core_0_L1D_acc_epochs 114270
Core_0_L1D_acc_level_0 114270
Core_0_L1D_acc_level_1 0
Core_0_L1D_acc_level_2 0
Core_0_L1D_acc_level_3 0
Core_0_L1D_acc_level_4 0
Core_0_L1D_acc_level_5 0
Core_0_L1D_acc_level_6 0
Core_0_L1D_acc_level_7 0
Core_0_L1D_acc_level_8 0
Core_0_L1D_acc_level_9 0

Core_0_L1I_total_access 11620226
Core_0_L1I_total_hit 11620226
Core_0_L1I_total_miss 0
Core_0_L1I_loads 11620226
Core_0_L1I_load_hit 11620226
Core_0_L1I_load_miss 0
Core_0_L1I_RFOs 0
Core_0_L1I_RFO_hit 0
Core_0_L1I_RFO_miss 0
Core_0_L1I_prefetches 0
Core_0_L1I_prefetch_hit 0
Core_0_L1I_prefetch_miss 0
Core_0_L1I_writebacks 0
Core_0_L1I_writeback_hit 0
Core_0_L1I_writeback_miss 0
Core_0_L1I_prefetch_requested 0
Core_0_L1I_prefetch_dropped 0
Core_0_L1I_prefetch_issued 0
Core_0_L1I_prefetch_filled 0
Core_0_L1I_prefetch_useful 0
Core_0_L1I_prefetch_useless 0
Core_0_L1I_prefetch_late 0
Core_0_L1I_average_miss_latency -nan

Core_0_L1I_rq_access 50000006
Core_0_L1I_rq_forward 0
Core_0_L1I_rq_merged 38379780
Core_0_L1I_rq_to_cache 11620226
Core_0_L1I_rq_full 0

Core_0_L1I_wq_access 0
Core_0_L1I_wq_forward 0
Core_0_L1I_wq_merged 0
Core_0_L1I_wq_to_cache 0
Core_0_L1I_wq_full 0

Core_0_L1I_pq_access 0
Core_0_L1I_pq_forward 0
Core_0_L1I_pq_merged 0
Core_0_L1I_pq_to_cache 0
Core_0_L1I_pq_full 0

Core_0_L1I_acc_epochs 114270
Core_0_L1I_acc_level_0 114270
Core_0_L1I_acc_level_1 0
Core_0_L1I_acc_level_2 0
Core_0_L1I_acc_level_3 0
Core_0_L1I_acc_level_4 0
Core_0_L1I_acc_level_5 0
Core_0_L1I_acc_level_6 0
Core_0_L1I_acc_level_7 0
Core_0_L1I_acc_level_8 0
Core_0_L1I_acc_level_9 0

Core_0_L2C_total_access 7255208
Core_0_L2C_total_hit 4664063
Core_0_L2C_total_miss 2591145
Core_0_L2C_loads 508315
Core_0_L2C_load_hit 394229
Core_0_L2C_load_miss 114086
Core_0_L2C_RFOs 2844904
Core_0_L2C_RFO_hit 762562
Core_0_L2C_RFO_miss 2082342
Core_0_L2C_prefetches 1057082
Core_0_L2C_prefetch_hit 662796
Core_0_L2C_prefetch_miss 394286
Core_0_L2C_writebacks 2844907
Core_0_L2C_writeback_hit 2844476
Core_0_L2C_writeback_miss 431
Core_0_L2C_prefetch_requested 2006508
Core_0_L2C_prefetch_dropped 0
Core_0_L2C_prefetch_issued 2006508
Core_0_L2C_prefetch_filled 498668
Core_0_L2C_prefetch_useful 498337
Core_0_L2C_prefetch_useless 329
Core_0_L2C_prefetch_late 77823
Core_0_L2C_average_miss_latency 730.45239

Core_0_L2C_rq_access 3353234
Core_0_L2C_rq_forward 0
Core_0_L2C_rq_merged 0
Core_0_L2C_rq_to_cache 3353232
Core_0_L2C_rq_full 0

Core_0_L2C_wq_access 2844907
Core_0_L2C_wq_forward 2
Core_0_L2C_wq_merged 0
Core_0_L2C_wq_to_cache 2844907
Core_0_L2C_wq_full 0

Core_0_L2C_pq_access 2006508
Core_0_L2C_pq_forward 0
Core_0_L2C_pq_merged 275378
Core_0_L2C_pq_to_cache 1731130
Core_0_L2C_pq_full 0

Core_0_L2C_acc_epochs 114270
Core_0_L2C_acc_level_0 430
Core_0_L2C_acc_level_1 1403
Core_0_L2C_acc_level_2 2347
Core_0_L2C_acc_level_3 3498
Core_0_L2C_acc_level_4 4584
Core_0_L2C_acc_level_5 6572
Core_0_L2C_acc_level_6 8960
Core_0_L2C_acc_level_7 10875
Core_0_L2C_acc_level_8 11826
Core_0_L2C_acc_level_9 63775

Core_0_LLC_total_access 4672130
Core_0_LLC_total_hit 1860414
Core_0_LLC_total_miss 2811716
Core_0_LLC_loads 36357
Core_0_LLC_load_hit 169
Core_0_LLC_load_miss 36188
Core_0_LLC_RFOs 2081773
Core_0_LLC_RFO_hit 556485
Core_0_LLC_RFO_miss 1525288
Core_0_LLC_prefetches 472015
Core_0_LLC_prefetch_hit 255
Core_0_LLC_prefetch_miss 471760
Core_0_LLC_writebacks 2081985
Core_0_LLC_writeback_hit 1303505
Core_0_LLC_writeback_miss 778480
Core_0_LLC_prefetch_requested 0
Core_0_LLC_prefetch_dropped 0
Core_0_LLC_prefetch_issued 0
Core_0_LLC_prefetch_filled 576099
Core_0_LLC_prefetch_useful 3
Core_0_LLC_prefetch_useless 575732
Core_0_LLC_prefetch_late 0
Core_0_LLC_average_miss_latency 658.50669

Core_0_LLC_rq_access 2118712
Core_0_LLC_rq_forward 0
Core_0_LLC_rq_merged 0
Core_0_LLC_rq_to_cache 2118143
Core_0_LLC_rq_full 0

Core_0_LLC_wq_access 2081984
Core_0_LLC_wq_forward 569
Core_0_LLC_wq_merged 0
Core_0_LLC_wq_to_cache 2081984
Core_0_LLC_wq_full 0

Core_0_LLC_pq_access 576492
Core_0_LLC_pq_forward 0
Core_0_LLC_pq_merged 0
Core_0_LLC_pq_to_cache 576492
Core_0_LLC_pq_full 0

Core_0_LLC_acc_epochs 117340
Core_0_LLC_acc_level_0 117337
Core_0_LLC_acc_level_1 2
Core_0_LLC_acc_level_2 1
Core_0_LLC_acc_level_3 0
Core_0_LLC_acc_level_4 0
Core_0_LLC_acc_level_5 0
Core_0_LLC_acc_level_6 0
Core_0_LLC_acc_level_7 0
Core_0_LLC_acc_level_8 0
Core_0_LLC_acc_level_9 0

Core_0_major_page_fault 0
Core_0_minor_page_fault 22513

scooby_st_lookup 620412
scooby_st_hit 610676
scooby_st_evict 9672
scooby_st_insert 9736
scooby_st_streaming 0

scooby_predict_called 620412
scooby_predict_out_of_bounds 19186
scooby_predict_action_1 310889
scooby_predict_issue_action_1 247000
scooby_predict_hit_action_1 63889
scooby_predict_out_of_bounds_action_1 5031
scooby_predict_action_3 289521
scooby_predict_issue_action_3 235157
scooby_predict_hit_action_3 54364
scooby_predict_out_of_bounds_action_3 13985
scooby_predict_action_4 67
scooby_predict_issue_action_4 67
scooby_predict_hit_action_4 0
scooby_predict_out_of_bounds_action_4 6
scooby_predict_action_5 69
scooby_predict_issue_action_5 69
scooby_predict_hit_action_5 0
scooby_predict_out_of_bounds_action_5 8
scooby_predict_action_10 71
scooby_predict_issue_action_10 71
scooby_predict_hit_action_10 0
scooby_predict_out_of_bounds_action_10 14
scooby_predict_action_11 67
scooby_predict_issue_action_11 67
scooby_predict_hit_action_11 0
scooby_predict_out_of_bounds_action_11 3
scooby_predict_action_12 68
scooby_predict_issue_action_12 68
scooby_predict_hit_action_12 0
scooby_predict_out_of_bounds_action_12 8
scooby_predict_action_22 55
scooby_predict_issue_action_22 55
scooby_predict_hit_action_22 0
scooby_predict_out_of_bounds_action_22 27
scooby_predict_action_23 46
scooby_predict_issue_action_23 46
scooby_predict_hit_action_23 0
scooby_predict_out_of_bounds_action_23 28
scooby_predict_action_30 53
scooby_predict_issue_action_30 53
scooby_predict_hit_action_30 0
scooby_predict_out_of_bounds_action_30 36
scooby_predict_action_32 32
scooby_predict_issue_action_32 32
scooby_predict_hit_action_32 0
scooby_predict_out_of_bounds_action_32 31
scooby_predict_action_-1 81
scooby_predict_issue_action_-1 19
scooby_predict_hit_action_-1 62
scooby_predict_out_of_bounds_action_-1 1
scooby_predict_action_-3 72
scooby_predict_issue_action_-3 21
scooby_predict_hit_action_-3 51
scooby_predict_out_of_bounds_action_-3 1
scooby_predict_action_-6 59
scooby_predict_issue_action_-6 9
scooby_predict_hit_action_-6 50
scooby_predict_out_of_bounds_action_-6 7
scooby_predict_action_0 76
scooby_predict_issue_action_0 0
scooby_predict_hit_action_0 0
scooby_predict_out_of_bounds_action_0 0
scooby_predict_multi_deg_called 421749
scooby_predict_predicted 2006508
scooby_predict_multi_deg 1523774
scooby_predict_multi_deg_2 406328
scooby_predict_multi_deg_3 351219
scooby_predict_multi_deg_4 335885
scooby_predict_multi_deg_5 222777
scooby_predict_multi_deg_6 207565
scooby_predict_multi_deg_7 0
scooby_predict_multi_deg_8 0
scooby_predict_multi_deg_9 0
scooby_predict_multi_deg_10 0
scooby_predict_multi_deg_11 0
scooby_predict_multi_deg_12 0
scooby_predict_multi_deg_13 0
scooby_predict_multi_deg_14 0
scooby_predict_multi_deg_15 0
scooby_predict_multi_deg_16 0

scooby_selected_deg_1 60985
scooby_selected_deg_2 39790
scooby_selected_deg_3 0
scooby_selected_deg_4 98180
scooby_selected_deg_5 0
scooby_selected_deg_6 283779
scooby_selected_deg_7 0
scooby_selected_deg_8 0
scooby_selected_deg_9 0
scooby_selected_deg_10 0
scooby_selected_deg_11 0
scooby_selected_deg_12 0
scooby_selected_deg_13 0
scooby_selected_deg_14 0
scooby_selected_deg_15 0
scooby_selected_deg_16 0

scooby_state_401cb0|1|0 3865,0,0,0,0,1,0,2,1,0,1,1,0,2,0,3873,
scooby_state_401cb0|0|0 3863,1,1,0,1,1,1,1,0,1,0,1,0,1,1,3873,
scooby_state_401cb0|3|3 3865,0,0,0,1,0,0,3,1,0,1,0,0,0,1,3872,
scooby_state_401cb0|4|4 2000,0,0,0,0,0,1,1,0,0,1,0,0,0,0,2003,
scooby_state_401cb0|35|3 1935,1,0,1,0,0,0,0,0,1,0,0,0,0,0,1938,
scooby_state_401cb0|42|4 1936,0,0,0,0,1,0,0,0,0,0,0,0,0,0,1937,
scooby_state_401cb0|33|4 1930,0,0,0,2,0,1,0,1,1,1,0,0,0,1,1937,
scooby_state_401cb0|40|4 1930,1,0,0,0,0,0,0,1,1,2,0,2,0,0,1937,
scooby_state_401cb0|55|3 1934,0,0,0,0,0,0,0,0,1,0,1,0,1,0,1937,
scooby_state_401cb0|10|3 1931,0,0,0,0,0,1,0,0,0,0,1,0,2,2,1937,
scooby_state_401cb0|48|3 1933,0,1,1,0,0,0,0,0,1,1,0,0,0,0,1937,
scooby_state_401cb0|34|3 1937,0,0,0,0,0,0,0,0,0,0,0,0,0,0,1937,
scooby_state_401cb0|51|4 1935,0,0,0,0,1,0,1,0,0,0,0,0,0,0,1937,
scooby_state_401cb0|13|3 1937,0,0,0,0,0,0,0,0,0,0,0,0,0,0,1937,
scooby_state_401cb0|29|3 1934,0,0,1,0,0,0,0,1,0,1,0,0,0,0,1937,
scooby_state_401cb0|46|4 1936,0,0,0,0,0,0,0,0,0,0,0,0,0,1,1937,
scooby_state_401cb0|57|3 1933,0,0,0,1,0,1,0,0,0,0,1,1,0,0,1937,
scooby_state_401cb0|58|4 1931,1,0,0,2,0,0,0,0,0,2,0,0,0,1,1937,
scooby_state_401cb0|60|3 1935,0,1,0,0,0,0,0,1,0,0,0,0,0,0,1937,
scooby_state_401cb0|28|4 1933,0,1,0,0,1,0,0,0,0,0,0,0,1,1,1937,
scooby_state_401cb0|36|4 1937,0,0,0,0,0,0,0,0,0,0,0,0,0,0,1937,
scooby_state_401cb0|22|4 1935,0,1,0,0,0,0,0,0,0,0,0,0,0,1,1937,
scooby_state_401cb0|50|3 1933,0,1,0,0,0,0,1,0,0,1,0,1,0,0,1937,
scooby_state_401cb0|62|4 1936,0,0,0,0,0,0,0,0,0,1,0,0,0,0,1937,
scooby_state_401cb0|38|3 1929,1,0,2,1,1,0,0,0,0,1,1,1,0,0,1937,
scooby_state_401cb0|31|4 1934,0,0,0,0,0,0,0,0,0,0,0,2,0,1,1937,
scooby_state_401cb0|45|4 1933,0,0,1,0,0,0,0,1,1,0,0,0,0,1,1937,
scooby_state_401cb0|20|3 1934,0,0,0,0,1,0,1,1,0,0,0,0,0,0,1937,
scooby_state_401cb0|8|3 1933,1,1,1,0,0,0,0,0,0,0,1,0,0,0,1937,
scooby_state_401cb0|42|3 1935,0,0,0,0,1,0,0,0,0,0,0,1,0,0,1937,
scooby_state_401cb0|33|3 1933,1,0,0,0,0,0,0,0,0,0,1,1,1,0,1937,
scooby_state_401cb0|14|3 1937,0,0,0,0,0,0,0,0,0,0,0,0,0,0,1937,
scooby_state_401cb0|32|4 1930,0,1,1,1,0,0,1,0,0,1,0,0,0,2,1937,
scooby_state_401cb0|15|3 1936,1,0,0,0,0,0,0,0,0,0,0,0,0,0,1937,
scooby_state_401cb0|19|3 1934,0,0,0,0,1,0,0,0,0,0,1,0,1,0,1937,
scooby_state_401cb0|28|3 1936,0,0,0,0,0,0,0,0,0,0,1,0,0,0,1937,
scooby_state_401cb0|41|4 1931,0,0,1,0,0,0,1,2,0,1,0,0,0,1,1937,
scooby_state_401cb0|60|4 1933,0,0,0,1,0,0,0,1,0,0,0,2,0,0,1937,
scooby_state_401cb0|50|4 1934,1,0,0,0,0,1,0,0,0,0,0,1,0,0,1937,
scooby_state_401cb0|48|4 1933,0,1,0,0,1,0,0,1,1,0,0,0,0,0,1937,
scooby_state_401cb0|37|4 1936,0,0,0,0,0,0,0,0,0,0,0,1,0,0,1937,
scooby_state_401cb0|37|3 1936,0,0,0,0,0,0,0,0,0,0,0,0,0,1,1937,
scooby_state_401cb0|47|3 1937,0,0,0,0,0,0,0,0,0,0,0,0,0,0,1937,
scooby_state_401cb0|12|4 1933,0,1,1,0,0,0,0,0,2,0,0,0,0,0,1937,
scooby_state_401cb0|21|4 1935,0,0,0,0,0,0,0,1,0,0,0,1,0,0,1937,
scooby_state_401cb0|11|4 1933,0,0,0,1,0,0,0,0,0,1,1,1,0,0,1937,
scooby_state_401cb0|23|3 1931,0,0,0,2,0,1,2,0,1,0,0,0,0,0,1937,
scooby_state_401cb0|27|4 1936,0,0,0,0,0,0,1,0,0,0,0,0,0,0,1937,
scooby_state_401cb0|56|4 1932,0,1,1,1,0,0,0,0,1,0,0,1,0,0,1937,
scooby_state_401cb0|58|3 1933,0,1,0,1,0,0,0,1,1,0,0,0,0,0,1937,
scooby_state_401cb0|57|4 1934,0,1,0,2,0,0,0,0,0,0,0,0,0,0,1937,
scooby_state_401cb0|55|4 1934,0,0,0,0,0,1,1,0,0,0,0,0,0,1,1937,
scooby_state_401cb0|53|3 1935,0,0,1,0,0,0,1,0,0,0,0,0,0,0,1937,
scooby_state_401cb0|6|4 1935,0,0,0,0,0,0,0,0,1,0,0,1,0,0,1937,
scooby_state_401cb0|7|4 1933,0,0,1,1,1,0,0,0,0,1,0,0,0,0,1937,
scooby_state_401cb0|18|4 1934,1,1,0,0,0,0,0,0,0,1,0,0,0,0,1937,
scooby_state_401cb0|39|3 1936,1,0,0,0,0,0,0,0,0,0,0,0,0,0,1937,
scooby_state_401cb0|25|3 1932,1,1,0,2,0,0,0,0,0,0,0,1,0,0,1937,
scooby_state_401cb0|52|3 1932,0,0,0,0,0,1,1,1,0,0,1,0,0,1,1937,
scooby_state_401cb0|13|4 1927,2,0,0,0,1,2,2,0,2,0,1,0,0,0,1937,
scooby_state_401cb0|53|4 1934,0,0,0,1,0,0,0,0,0,0,0,0,2,0,1937,
scooby_state_401cb0|2|0 1933,0,0,0,0,1,0,0,1,1,1,0,0,0,0,1937,
scooby_state_401cb0|23|4 1932,0,0,1,1,0,0,0,1,1,0,0,0,1,0,1937,
scooby_state_401cb0|9|3 1931,1,0,0,3,1,0,0,0,0,0,0,1,0,0,1937,
scooby_state_401cb0|52|4 1935,0,0,0,0,0,0,0,0,0,0,0,2,0,0,1937,
scooby_state_401cb0|26|4 1934,0,0,0,1,0,0,0,0,0,0,0,1,1,0,1937,
scooby_state_401cb0|61|4 1934,0,0,0,0,0,0,0,0,0,1,0,0,1,1,1937,
scooby_state_401cb0|40|3 1934,1,0,0,0,0,1,0,0,0,0,0,0,0,1,1937,
scooby_state_401cb0|30|3 1933,0,0,0,2,0,0,1,0,1,0,0,0,0,0,1937,
scooby_state_401cb0|47|4 1936,0,0,0,1,0,0,0,0,0,0,0,0,0,0,1937,
scooby_state_401cb0|43|3 1933,0,0,0,0,0,0,1,1,1,0,1,0,0,0,1937,
scooby_state_401cb0|44|3 1935,1,1,0,0,0,0,0,0,0,0,0,0,0,0,1937,
scooby_state_401cb0|43|4 1936,0,0,0,0,1,0,0,0,0,0,0,0,0,0,1937,
scooby_state_401cb0|18|3 1935,0,0,0,0,0,1,0,1,0,0,0,0,0,0,1937,
scooby_state_401cb0|49|3 1934,0,0,0,1,1,1,0,0,0,0,0,0,0,0,1937,
scooby_state_401cb0|62|3 1935,0,0,1,0,0,0,0,1,0,0,0,0,0,0,1937,
scooby_state_401cb0|45|3 1935,0,0,0,0,0,0,0,1,0,0,0,0,1,0,1937,
scooby_state_401cb0|8|4 1934,0,0,0,0,0,0,2,0,1,0,0,0,0,0,1937,
scooby_state_401cb0|54|3 1933,0,1,0,0,0,0,0,0,0,1,0,1,1,0,1937,
scooby_state_401cb0|59|3 1932,0,2,1,0,0,0,0,1,1,0,0,0,0,0,1937,
scooby_state_401cb0|24|3 1934,0,0,0,0,0,0,0,1,0,0,1,0,0,1,1937,
scooby_state_401cb0|5|3 1934,0,0,0,0,1,0,0,0,0,1,0,1,0,0,1937,
scooby_state_401cb0|16|4 1934,0,0,1,0,0,1,0,0,0,0,1,0,0,0,1937,
scooby_state_401cb0|63|3 1933,1,0,0,0,1,0,0,1,0,0,0,0,0,1,1937,
scooby_state_401cb0|17|3 1933,1,0,0,0,0,0,0,0,2,0,0,0,0,0,1936,
scooby_state_401cb0|14|4 1933,0,0,1,0,1,1,0,0,0,0,0,0,0,0,1936,
scooby_state_401cb0|21|3 1933,0,0,0,0,0,0,0,0,0,0,1,0,1,1,1936,
scooby_state_401cb0|5|4 1932,0,0,0,0,0,0,0,1,1,0,0,1,0,1,1936,
scooby_state_401cb0|29|4 1931,1,0,0,2,0,2,0,0,0,0,0,0,0,0,1936,
scooby_state_401cb0|38|4 1934,0,0,1,0,0,0,0,0,0,0,1,0,0,0,1936,
scooby_state_401cb0|15|4 1934,1,0,1,0,0,0,0,0,0,0,0,0,0,0,1936,
scooby_state_401cb0|12|3 1930,0,2,0,0,0,1,0,1,0,1,0,0,0,1,1936,
scooby_state_401cb0|63|4 1933,0,0,0,0,0,0,1,1,0,1,0,0,0,0,1936,
scooby_state_401cb0|17|4 1931,0,2,1,0,0,0,0,0,0,1,1,0,0,0,1936,
scooby_state_401cb0|2|2 1933,0,0,0,0,0,0,1,1,0,0,1,0,0,0,1936,
scooby_state_401cb0|56|3 1935,0,0,0,0,0,0,0,0,0,0,0,0,1,0,1936,
scooby_state_401cb0|7|3 1931,1,0,0,0,1,0,1,1,0,0,0,0,1,0,1936,
scooby_state_401cb0|16|3 1935,0,1,0,0,0,0,0,0,0,0,0,0,0,0,1936,
scooby_state_401cb0|30|4 1926,0,1,1,0,0,0,0,0,4,1,2,0,1,0,1936,
scooby_state_401cb0|54|4 1935,0,1,0,0,0,0,0,0,0,0,0,0,0,0,1936,
scooby_state_401cb0|51|3 1933,0,0,0,0,0,0,2,0,1,0,0,0,0,0,1936,
scooby_state_401cb0|20|4 1934,0,0,0,0,0,0,0,0,1,0,0,0,0,1,1936,
scooby_state_401cb0|10|4 1929,0,0,2,0,1,0,1,0,1,1,1,0,0,0,1936,
scooby_state_401cb0|31|3 1932,0,1,0,1,0,0,0,0,1,0,0,0,1,0,1936,
scooby_state_401cb0|41|3 1934,0,0,1,0,0,0,0,0,0,0,0,1,0,0,1936,
scooby_state_401cb0|22|3 1935,0,0,0,0,0,0,0,0,0,0,0,0,0,1,1936,
scooby_state_401cb0|25|4 1933,0,0,1,0,0,1,0,0,1,0,0,0,0,0,1936,
scooby_state_401cb0|49|4 1932,0,0,0,0,0,2,0,0,0,0,0,0,1,1,1936,
scooby_state_401cb0|27|3 1932,1,0,0,1,0,0,0,0,0,0,0,0,0,2,1936,
scooby_state_401cb0|39|4 1931,0,0,2,1,0,1,0,0,0,1,0,0,0,0,1936,
scooby_state_401cb0|32|3 1932,1,0,1,0,0,0,0,0,0,0,0,1,1,0,1936,
scooby_state_401cb0|46|3 1934,0,0,0,0,0,0,0,1,0,1,0,0,0,0,1936,
scooby_state_401cb0|36|3 1932,0,0,0,1,1,0,0,0,0,0,0,0,0,2,1936,
scooby_state_401cb0|35|4 1931,0,0,0,0,0,0,1,1,0,1,0,0,0,2,1936,
scooby_state_401cb0|34|4 1935,0,0,0,0,0,0,0,0,0,0,0,0,1,0,1936,
scooby_state_401cb0|19|4 1933,0,0,0,0,1,0,0,1,0,0,1,0,0,0,1936,
scooby_state_401cb0|26|3 1932,0,0,0,0,1,1,0,1,1,0,0,0,0,0,1936,
scooby_state_401cb0|9|4 1930,0,0,1,1,0,0,0,1,1,0,2,0,0,0,1936,
scooby_state_401cb0|61|3 1932,0,0,1,0,0,0,0,0,0,1,0,1,1,0,1936,
scooby_state_401cb0|6|3 1931,0,0,1,1,1,0,0,0,0,1,0,1,0,0,1936,
scooby_state_401cb0|24|4 1935,0,0,0,0,0,1,0,0,0,0,0,0,0,0,1936,
scooby_state_401cb0|59|4 1936,0,0,0,0,0,0,0,0,0,0,0,0,0,0,1936,
scooby_state_401cb0|11|3 1934,1,0,0,0,0,0,0,1,0,0,0,0,0,0,1936,
scooby_state_401cb0|44|4 1932,0,1,0,0,1,0,0,1,0,0,0,0,0,0,1935,
scooby_state_401cb0|4|3 1861,0,0,0,0,1,0,0,0,0,0,0,0,0,0,1862,
scooby_state_401e02|30|-2 1120,0,0,0,0,0,0,0,0,0,0,0,0,1,0,1121,
scooby_state_401e67|31|1 0,1114,0,0,0,0,0,0,0,1,0,2,0,0,0,1117,
scooby_state_401e33|33|-1 0,1115,0,0,0,0,0,0,0,0,0,0,0,0,0,1115,
scooby_state_401e02|18|-2 1112,0,0,0,0,0,0,1,0,0,0,0,0,0,0,1113,
scooby_state_401e33|45|-1 0,1111,0,0,0,0,0,1,0,0,0,0,0,0,0,1112,
scooby_state_401e33|53|-1 1,1110,0,0,0,0,0,0,0,0,0,0,0,0,0,1111,
scooby_state_401e33|21|-1 0,1109,0,0,0,0,0,0,0,0,0,1,0,0,0,1110,
scooby_state_401e02|50|-2 1107,1,0,0,0,1,0,0,0,0,0,0,0,0,0,1109,
scooby_state_401e02|22|-2 1107,0,0,0,0,0,0,1,0,0,0,1,0,0,0,1109,
scooby_state_401e67|51|1 1,1102,0,0,0,1,0,0,0,1,0,1,0,0,0,1106,
scooby_state_401e67|23|1 0,1101,0,0,1,1,0,0,0,0,0,1,0,0,0,1104,
scooby_state_401e02|62|2 1102,0,1,0,0,0,0,0,0,0,0,0,0,0,1,1104,
scooby_state_401e33|37|-1 1,1100,0,0,0,1,0,0,0,0,1,0,0,0,0,1103,
scooby_state_401e33|57|-1 1,1099,1,0,0,0,0,0,0,1,0,0,0,1,0,1103,
scooby_state_401e33|9|-1 1,1100,0,0,0,0,0,0,0,0,1,0,0,0,0,1102,
scooby_state_401e33|41|-1 1,1101,0,0,0,0,0,0,0,0,0,0,0,0,0,1102,
scooby_state_401e02|6|-2 1100,0,0,0,0,0,1,0,0,0,0,0,0,0,0,1101,
scooby_state_401e02|54|-2 1099,0,0,0,0,0,1,0,0,0,0,0,1,0,0,1101,
scooby_state_401e02|34|-2 1097,1,0,0,0,0,0,0,0,0,0,1,0,1,0,1100,
scooby_state_401e33|29|-1 1,1096,0,0,0,0,0,0,0,0,0,0,0,0,0,1097,
scooby_state_401e02|14|-2 1096,0,0,0,0,0,0,0,0,0,1,0,0,0,0,1097,
scooby_state_401e33|1|-1 0,1096,0,0,0,0,0,0,0,0,0,0,0,0,1,1097,
scooby_state_401e67|7|1 1,1091,0,0,0,0,0,0,0,0,1,0,0,1,1,1095,
scooby_state_401e33|13|-1 1,1092,0,0,1,0,0,0,1,0,0,0,0,0,0,1095,
scooby_state_401e67|35|1 0,1092,1,0,0,0,0,0,0,0,0,0,0,0,0,1093,
scooby_state_401e02|10|-2 1089,0,0,0,0,0,2,0,1,1,0,0,0,0,0,1093,
scooby_state_401e67|63|1 0,1090,1,1,0,0,0,0,0,0,0,0,0,0,0,1092,
scooby_state_401e33|5|-1 0,1087,1,0,0,0,0,1,0,0,0,1,0,0,1,1091,
scooby_state_401e33|25|-1 0,1088,0,0,1,0,0,1,0,0,0,0,0,0,1,1091,
scooby_state_401e67|55|1 1,1087,0,0,0,0,0,0,0,1,0,0,0,0,0,1089,
scooby_state_401e02|38|-2 1087,0,0,0,0,0,0,0,0,0,0,1,0,0,1,1089,
scooby_state_401e67|11|1 0,1088,0,0,0,0,0,0,0,0,1,0,0,0,0,1089,
scooby_state_401e67|19|1 0,1085,0,0,0,1,0,0,0,1,0,0,1,0,0,1088,
scooby_state_401e02|26|-2 1087,0,0,0,0,0,0,0,0,1,0,0,0,0,0,1088,
scooby_state_401e33|61|-1 0,1085,0,1,0,0,0,0,0,0,0,1,0,0,0,1087,
scooby_state_401e02|46|-2 1083,1,0,0,0,0,1,0,0,0,0,1,0,0,1,1087,
scooby_state_401e02|2|-2 1086,0,0,0,0,0,0,0,0,0,0,0,0,0,0,1086,
scooby_state_401e02|42|-2 1080,2,0,1,0,0,0,0,0,0,1,0,0,0,0,1084,
scooby_state_401e02|58|-2 1082,0,0,0,0,0,0,0,0,0,0,0,0,0,0,1082,
scooby_state_401e67|43|1 0,1074,0,1,0,2,2,0,0,0,0,0,0,0,0,1079,
scooby_state_401e67|39|1 2,1076,0,0,0,0,0,0,0,0,0,0,0,0,0,1078,
scooby_state_401e33|49|-1 1,1073,0,1,2,1,0,0,0,0,0,0,0,0,0,1078,
scooby_state_401e67|27|1 0,1075,0,0,0,0,0,0,0,0,0,1,1,0,0,1077,
scooby_state_401e33|17|-1 0,1075,0,0,0,0,0,0,0,0,1,0,1,0,0,1077,
scooby_state_401e67|59|1 1,1073,0,0,0,0,0,0,0,0,0,1,0,0,1,1076,
scooby_state_401e67|47|1 1,1069,0,0,0,0,1,0,0,0,0,0,0,1,1,1073,
scooby_state_401e67|15|1 0,1071,0,0,0,0,0,0,0,1,0,0,0,0,1,1073,
scooby_state_401e67|3|1 0,1066,0,0,0,0,0,0,0,0,0,0,0,0,0,1066,
scooby_state_401e02|23|-2 1050,0,0,0,0,0,0,0,0,0,0,1,0,0,0,1051,
scooby_state_401e02|55|-2 1046,0,1,0,0,0,1,1,0,0,0,0,0,0,0,1049,
scooby_state_401e02|35|-2 1045,0,0,1,0,0,0,0,1,0,0,0,0,0,0,1047,
scooby_state_401e67|24|1 0,1042,0,0,0,0,0,1,0,0,0,0,1,0,0,1044,
scooby_state_401e33|38|-1 0,1043,0,0,1,0,0,0,0,0,0,0,0,0,0,1044,
scooby_state_401e02|11|-2 1038,1,0,1,1,0,1,0,0,0,0,0,1,0,1,1044,
scooby_state_401e67|36|1 0,1039,0,0,2,0,0,0,0,1,0,0,0,0,0,1042,
scooby_state_401e67|12|1 1,1039,0,0,0,0,0,1,0,0,0,0,0,0,0,1041,
scooby_state_401e02|47|-2 1036,0,0,0,0,0,0,1,0,0,0,0,0,1,0,1038,
scooby_state_401e02|3|-2 1035,0,0,0,0,1,0,0,0,0,0,0,1,0,0,1037,
scooby_state_401e02|36|-2 1035,0,0,0,1,0,0,0,0,0,0,0,0,1,0,1037,
scooby_state_401e67|56|1 2,1032,0,0,1,0,1,0,0,0,0,0,0,0,0,1036,
scooby_state_401e02|44|-2 1031,0,0,1,0,1,0,0,0,0,1,0,0,0,0,1034,
scooby_state_401e33|18|-1 0,1031,0,0,0,0,0,1,0,1,0,0,1,0,0,1034,
scooby_state_401e02|15|-2 1031,0,1,0,1,0,0,0,0,1,0,0,0,0,0,1034,
scooby_state_401e67|4|1 0,1032,0,0,0,0,0,0,0,0,0,0,0,0,0,1032,
scooby_state_401e33|6|-1 0,1030,0,0,0,0,0,0,0,0,0,0,0,0,1,1031,
scooby_state_401e67|21|1 0,1031,0,0,0,0,0,0,0,0,0,0,0,0,0,1031,
scooby_state_401e02|8|-2 1030,0,0,1,0,0,0,0,0,0,0,0,0,0,0,1031,
scooby_state_401e02|20|-2 1029,0,0,0,1,0,0,0,0,0,0,0,0,0,0,1030,
scooby_state_401e33|50|-1 0,1028,0,0,2,0,0,0,0,0,0,0,0,0,0,1030,
scooby_state_401e02|29|-2 1029,0,0,1,0,0,0,0,0,0,0,0,0,0,0,1030,
scooby_state_401e02|39|-2 1029,0,0,0,0,0,0,0,0,0,0,0,1,0,0,1030,
scooby_state_401e02|43|-2 1028,0,1,0,0,0,0,0,0,0,0,0,0,0,0,1029,
scooby_state_401e02|63|2 1028,0,0,0,0,0,0,0,1,0,0,0,0,0,0,1029,
scooby_state_401e02|12|-2 1028,0,0,0,0,0,0,0,0,0,0,0,0,0,0,1028,
scooby_state_401e33|27|-1 0,1026,0,0,1,0,0,1,0,0,0,0,0,0,0,1028,
scooby_state_401e02|56|-2 1026,0,0,0,0,0,0,0,0,0,0,1,0,0,0,1027,
scooby_state_401e33|26|-1 0,1024,0,0,0,1,1,0,0,0,0,1,0,0,0,1027,
scooby_state_401e02|31|-2 1023,1,0,0,0,0,0,0,0,1,1,0,0,0,0,1026,
scooby_state_401e02|59|-2 1025,0,0,0,0,0,0,0,0,0,0,0,0,1,0,1026,
scooby_state_401e67|30|1 0,1024,0,0,0,0,1,0,0,0,0,0,0,0,0,1025,
scooby_state_401e67|48|1 0,1022,1,0,0,0,0,0,1,1,0,0,0,0,0,1025,
scooby_state_401e67|45|1 2,1022,1,0,0,0,0,0,0,0,0,0,0,0,0,1025,
scooby_state_401e67|44|1 1,1021,0,0,0,0,0,1,0,0,0,1,0,1,0,1025,
scooby_state_401e33|58|-1 1,1020,1,1,0,0,0,0,1,0,1,0,0,0,0,1025,
scooby_state_401e02|24|-2 1024,0,0,0,0,0,0,0,0,0,0,0,0,0,0,1024,
scooby_state_401e02|27|-2 1021,0,0,0,1,0,0,0,1,0,0,0,0,0,1,1024,
scooby_state_401e33|14|-1 1,1022,0,0,0,0,0,0,0,1,0,0,0,0,0,1024,
scooby_state_401e02|60|-2 1023,1,0,0,0,0,0,0,0,0,0,0,0,0,0,1024,
scooby_state_401e02|53|-2 1023,0,0,0,0,0,0,0,0,0,0,0,0,0,1,1024,
scooby_state_401e67|37|1 1,1023,0,0,0,0,0,0,0,0,0,0,0,0,0,1024,
scooby_state_401e67|13|1 0,1021,0,0,0,0,1,0,0,1,0,0,0,0,0,1023,
scooby_state_401e02|40|-2 1022,0,0,0,0,0,0,0,0,0,0,0,0,1,0,1023,
scooby_state_401e02|51|-2 1021,0,1,0,0,0,0,0,0,0,0,0,0,0,1,1023,
scooby_state_401e02|37|-2 1020,0,0,0,0,1,0,0,0,0,0,0,0,1,0,1022,
scooby_state_401e02|28|-2 1021,0,0,0,0,0,0,1,0,0,0,0,0,0,0,1022,
scooby_state_401e67|25|1 0,1016,1,0,1,0,0,0,1,0,1,0,0,1,0,1021,
scooby_state_401e67|20|1 0,1019,0,0,0,0,1,0,0,0,0,0,1,0,0,1021,
scooby_state_401e33|42|-1 1,1015,1,1,0,0,0,0,0,0,0,1,0,1,0,1020,
scooby_state_401e67|52|1 1,1017,0,0,0,1,0,0,1,0,0,0,0,0,0,1020,
scooby_state_401e33|40|-1 0,1020,0,0,0,0,0,0,0,0,0,0,0,0,0,1020,
scooby_state_401e33|20|-1 0,1019,0,0,1,0,0,0,0,0,0,0,0,0,0,1020,
scooby_state_401e02|19|-2 1018,0,0,0,0,0,0,0,0,0,0,1,0,0,1,1020,
scooby_state_401e02|4|-2 1020,0,0,0,0,0,0,0,0,0,0,0,0,0,0,1020,
scooby_state_401e33|62|-1 2,1017,0,0,0,0,0,0,0,1,0,0,0,0,0,1020,
scooby_state_401e33|15|-1 0,1017,0,0,1,0,0,0,0,0,0,0,0,0,2,1020,
scooby_state_401e02|25|-2 1019,0,0,0,1,0,0,0,0,0,0,0,0,0,0,1020,
scooby_state_401e67|40|1 0,1017,0,0,0,0,1,0,0,0,0,1,0,0,0,1019,
scooby_state_401e02|41|-2 1016,0,0,1,0,0,0,0,0,1,0,0,0,1,0,1019,
scooby_state_401e67|5|1 3,1015,1,0,0,0,0,0,0,0,0,0,0,0,0,1019,
scooby_state_401e67|9|1 0,1018,0,0,0,0,0,0,0,0,0,0,0,0,1,1019,
scooby_state_401e02|52|-2 1018,0,0,0,0,0,0,0,1,0,0,0,0,0,0,1019,
scooby_state_401e67|60|1 1,1017,0,0,0,0,0,0,0,0,0,0,0,0,0,1018,
scooby_state_401e02|5|-2 1016,1,0,0,0,0,0,0,0,0,0,0,0,0,1,1018,
scooby_state_401e02|16|-2 1015,1,2,0,0,0,0,0,0,0,0,0,0,0,0,1018,
scooby_state_401e67|41|1 1,1016,0,0,0,0,0,0,0,0,1,0,0,0,0,1018,
scooby_state_401e02|7|-2 1017,0,0,0,0,0,0,0,0,0,0,0,0,0,0,1017,
scooby_state_401e33|59|-1 0,1015,0,1,0,0,0,0,0,0,0,0,1,0,0,1017,
scooby_state_401e02|32|-2 1014,0,0,0,0,0,1,1,1,0,0,0,0,0,0,1017,
scooby_state_401e33|34|-1 1,1016,0,0,0,0,0,0,0,0,0,0,0,0,0,1017,
scooby_state_401e67|29|1 1,1015,0,0,0,0,0,0,0,1,0,0,0,0,0,1017,
scooby_state_401e33|22|-1 0,1015,0,0,0,0,0,0,0,0,0,1,0,0,0,1016,
scooby_state_401e33|51|-1 0,1016,0,0,0,0,0,0,0,0,0,0,0,0,0,1016,
scooby_state_401e67|28|1 1,1012,0,0,0,1,1,1,0,0,0,0,0,0,0,1016,
scooby_state_401e67|16|1 0,1015,0,0,0,1,0,0,0,0,0,0,0,0,0,1016,
scooby_state_401e67|32|1 1,1014,0,0,0,0,0,0,0,1,0,0,0,0,0,1016,
scooby_state_401e33|44|-1 1,1014,0,0,0,1,0,0,0,0,0,0,0,0,0,1016,
scooby_state_401e33|46|-1 1,1013,0,0,1,0,0,0,0,0,0,0,0,1,0,1016,
scooby_state_401e67|61|1 1,1013,0,0,0,0,0,0,0,0,0,0,1,0,0,1015,
scooby_state_401e02|49|-2 1014,0,0,0,0,0,0,0,0,1,0,0,0,0,0,1015,
scooby_state_401e33|35|-1 0,1015,0,0,0,0,0,0,0,0,0,0,0,0,0,1015,
scooby_state_401e33|7|-1 1,1011,0,0,0,0,0,2,0,0,0,1,0,0,0,1015,
scooby_state_401e67|53|1 0,1013,0,0,0,0,0,0,1,0,0,0,0,0,0,1014,
scooby_state_401e02|45|-2 1013,0,1,0,0,0,0,0,0,0,0,0,0,0,0,1014,
scooby_state_401e33|8|-1 1,1013,0,0,0,0,0,0,0,0,0,0,0,0,0,1014,
scooby_state_401e33|2|-1 1,1011,0,0,1,1,0,0,0,0,0,0,0,0,0,1014,
scooby_state_401e02|57|-2 1012,0,0,0,0,0,0,0,0,1,1,0,0,0,0,1014,
scooby_state_401e33|3|-1 1,1009,0,0,1,1,0,0,0,1,0,0,0,0,0,1013,
scooby_state_401e33|39|-1 1,1012,0,0,0,0,0,0,0,0,0,0,0,0,0,1013,
scooby_state_401e33|16|-1 0,1011,0,0,0,1,0,0,0,0,0,1,0,0,0,1013,
scooby_state_401e02|48|-2 1012,0,0,0,0,0,1,0,0,0,0,0,0,0,0,1013,
scooby_state_401e33|30|-1 0,1012,0,0,0,0,0,0,0,0,0,0,0,0,0,1012,
scooby_state_401e67|57|1 1,1008,0,0,2,0,1,0,0,0,0,0,0,0,0,1012,
scooby_state_401e33|47|-1 1,1009,0,0,0,0,0,0,0,0,0,1,1,0,0,1012,
scooby_state_401e33|54|-1 1,1008,0,0,1,0,1,0,0,0,1,0,0,0,0,1012,
scooby_state_401e67|6|1 2,1007,0,0,0,0,1,0,0,1,0,1,0,0,0,1012,
scooby_state_401e02|61|-2 1009,0,1,0,0,0,0,1,0,0,0,0,0,0,0,1011,
scooby_state_401e33|28|-1 0,1011,0,0,0,0,0,0,0,0,0,0,0,0,0,1011,
scooby_state_401e33|32|-1 2,1008,0,0,0,0,0,0,0,0,0,1,0,0,0,1011,
scooby_state_401e02|13|-2 1008,0,0,0,0,0,0,0,0,0,0,1,1,0,0,1010,
scooby_state_401e67|26|1 1,1008,0,0,0,0,1,0,0,0,0,0,0,0,0,1010,
scooby_state_401e67|33|1 1,1005,1,1,0,0,0,0,0,0,0,2,0,0,0,1010,
scooby_state_401e67|50|1 1,1008,1,0,0,0,0,0,0,0,0,0,0,0,0,1010,
scooby_state_401e33|4|-1 1,1002,0,1,1,0,0,2,0,1,1,0,0,1,0,1010,
scooby_state_401e67|8|1 0,1008,0,0,0,0,0,0,0,0,0,0,1,0,0,1009,
scooby_state_401e02|17|-2 1008,0,0,0,0,1,0,0,0,0,0,0,0,0,0,1009,
scooby_state_401e33|56|-1 0,1007,1,0,0,0,0,0,0,0,0,0,0,1,0,1009,
scooby_state_401e67|58|1 0,1009,0,0,0,0,0,0,0,0,0,0,0,0,0,1009,
scooby_state_401e33|48|-1 1,1006,0,0,0,0,1,0,0,0,0,0,0,0,0,1008,
scooby_state_401e67|38|1 0,1008,0,0,0,0,0,0,0,0,0,0,0,0,0,1008,
scooby_state_401e67|42|1 1,1003,1,0,0,0,2,0,0,0,0,0,0,0,0,1007,
scooby_state_401e67|49|1 0,1006,0,0,0,0,0,0,0,0,0,0,0,0,1,1007,
scooby_state_401e67|18|1 0,1005,0,0,0,0,0,0,0,1,0,0,0,0,0,1006,
scooby_state_401e02|9|-2 1002,0,0,1,0,0,0,0,0,0,0,2,0,0,0,1005,
scooby_state_401e33|52|-1 1,1004,0,0,0,0,0,0,0,0,0,0,0,0,0,1005,
scooby_state_401e33|10|-1 0,1005,0,0,0,0,0,0,0,0,0,0,0,0,0,1005,
scooby_state_401e33|36|-1 1,1002,0,0,0,0,1,0,0,0,0,0,0,0,0,1004,
scooby_state_401e67|54|1 2,1001,0,0,0,0,0,0,0,0,0,1,0,0,0,1004,
scooby_state_401e02|1|-2 1003,0,0,0,0,0,0,0,0,0,0,0,0,0,1,1004,
scooby_state_401e67|46|1 2,1001,0,0,0,1,0,0,0,0,0,0,0,0,0,1004,
scooby_state_401e67|17|1 1,999,0,0,0,0,0,0,0,1,0,1,0,1,0,1003,
scooby_state_401e02|33|-2 998,0,0,0,0,0,0,1,0,0,1,1,0,0,1,1002,
scooby_state_401e67|62|1 0,1001,0,0,0,0,0,0,0,0,0,0,1,0,0,1002,
scooby_state_401e67|0|-1 0,1000,0,1,0,0,0,1,0,0,0,0,0,0,0,1002,
scooby_state_401e33|23|-1 0,1001,0,0,0,0,0,0,0,0,0,0,0,0,0,1001,
scooby_state_401e33|55|-1 0,999,0,2,0,0,0,0,0,0,0,0,0,0,0,1001,
scooby_state_401e67|14|1 0,998,0,0,0,0,0,0,0,0,0,0,1,0,0,999,
scooby_state_401e33|43|-1 0,997,0,0,0,0,0,0,0,1,0,0,0,0,0,998,
scooby_state_401e02|21|-2 995,0,0,0,0,0,0,0,0,2,0,0,1,0,0,998,
scooby_state_401e33|60|-1 0,997,0,0,0,0,0,1,0,0,0,0,0,0,0,998,
scooby_state_401e67|10|1 1,993,0,0,0,1,0,1,0,0,1,0,0,0,0,997,
scooby_state_401e67|34|1 1,993,0,1,0,0,0,0,0,0,0,0,0,1,0,996,
scooby_state_401e33|19|-1 0,994,0,0,1,0,0,0,0,0,0,0,0,0,0,995,
scooby_state_401e33|31|-1 0,994,0,0,0,0,0,0,0,0,0,0,0,0,0,994,
scooby_state_401e33|12|-1 0,990,0,0,0,0,0,0,0,0,0,0,0,0,1,991,
scooby_state_401e67|22|1 0,990,0,0,0,1,0,0,0,0,0,0,0,0,0,991,
scooby_state_401e33|24|-1 0,987,0,2,0,0,0,0,1,0,0,0,0,1,0,991,
scooby_state_401e33|11|-1 0,990,0,0,1,0,0,0,0,0,0,0,0,0,0,991,
scooby_state_401e33|63|2 1,988,0,0,0,0,0,1,0,0,0,0,0,0,0,990,
scooby_state_401e67|1|1 1,985,0,0,0,0,0,0,2,0,0,0,0,0,1,989,
scooby_state_401e67|2|1 1,983,0,0,0,0,1,0,0,0,1,0,0,0,0,986,
scooby_state_401e33|0|-1 0,952,0,0,0,0,0,0,0,0,0,0,0,1,0,953,
scooby_state_401e02|0|-2 935,0,1,0,1,1,0,0,0,0,1,0,0,0,0,939,
scooby_state_401cdb|21|-2 3,932,0,0,0,0,0,0,1,1,0,0,0,0,0,937,
scooby_state_401cdb|33|-2 2,930,0,0,0,0,2,0,0,0,0,1,0,0,0,935,
scooby_state_401d43|22|1 1,932,0,1,1,0,0,0,0,0,0,0,0,0,0,935,
scooby_state_401d14|31|-1 0,931,0,0,0,1,0,0,0,0,0,0,0,0,1,933,
scooby_state_401cdb|9|-2 3,928,0,0,0,0,0,1,0,0,0,0,0,0,0,932,
scooby_state_401d43|34|1 0,930,0,0,0,0,1,1,0,0,0,0,0,0,0,932,
scooby_state_401d43|2|1 0,930,0,0,0,1,0,0,0,0,0,0,0,0,0,931,
scooby_state_401cdb|1|-2 2,926,0,0,0,0,0,0,0,1,0,1,0,1,0,931,
scooby_state_401d14|63|2 0,928,0,1,0,0,0,0,0,0,0,1,1,0,0,931,
scooby_state_401d43|10|1 1,928,0,0,1,0,0,0,0,0,0,0,0,0,0,930,
scooby_state_401d14|12|-1 2,927,0,0,0,1,0,0,0,0,0,0,0,0,0,930,
scooby_state_401d14|19|-1 1,925,0,0,1,0,0,0,1,0,0,1,0,0,0,929,
scooby_state_401d14|24|-1 1,926,2,0,0,0,0,0,0,0,0,0,0,0,0,929,
scooby_state_401d14|60|-1 0,928,0,0,0,0,0,0,0,0,0,0,0,0,0,928,
scooby_state_401d43|14|1 0,925,0,0,0,0,0,0,1,0,0,0,0,0,0,926,
scooby_state_401cdb|13|-2 2,921,0,0,1,0,0,0,0,1,1,0,0,0,0,926,
scooby_state_401d14|43|-1 1,924,0,0,0,0,0,0,0,0,1,0,0,0,0,926,
scooby_state_401cdb|61|-2 2,922,0,0,0,0,0,0,0,0,0,0,0,0,1,925,
scooby_state_401d14|36|-1 0,925,0,0,0,0,0,0,0,0,0,0,0,0,0,925,
scooby_state_401d14|11|-1 0,922,0,1,0,0,0,1,0,0,0,0,0,0,0,924,
scooby_state_401cdb|48|-2 2,921,0,0,0,0,1,0,0,0,0,0,0,0,0,924,
scooby_state_401d14|55|-1 0,922,1,0,0,0,0,0,1,0,0,0,0,0,0,924,
scooby_state_401cdb|17|-2 3,920,0,0,0,0,0,0,0,0,0,0,0,0,0,923,
scooby_state_401cdb|45|-2 2,916,0,1,0,0,0,0,0,1,0,1,2,0,0,923,
scooby_state_401d43|49|1 1,917,0,1,0,0,0,0,1,0,1,0,0,1,0,922,
scooby_state_401d43|46|1 0,922,0,0,0,0,0,0,0,0,0,0,0,0,0,922,
scooby_state_401d43|62|1 1,921,0,0,0,0,0,0,0,0,0,0,0,0,0,922,
scooby_state_401cdb|49|-2 2,915,0,0,0,0,0,1,0,0,0,1,0,1,1,921,
scooby_state_401d14|56|-1 1,919,0,0,0,0,0,0,0,0,0,0,0,0,0,920,
scooby_state_401d14|23|-1 1,918,0,0,0,0,0,0,0,1,0,0,0,0,0,920,
scooby_state_401cdb|57|-2 1,916,1,0,0,0,0,1,0,0,0,0,0,0,0,919,
scooby_state_401cdb|16|-2 4,914,0,0,1,0,0,0,0,0,0,0,0,0,0,919,
scooby_state_401cdb|5|-2 2,914,0,0,0,0,0,1,0,0,0,2,0,0,0,919,
scooby_state_401d43|17|1 0,917,0,0,0,0,0,1,0,0,0,0,1,0,0,919,
scooby_state_401d43|58|1 0,919,0,0,0,0,0,0,0,0,0,0,0,0,0,919,
scooby_state_401cdb|7|-2 3,916,0,0,0,0,0,0,0,0,0,0,0,0,0,919,
scooby_state_401cdb|32|-2 2,916,0,0,0,0,0,0,1,0,0,0,0,0,0,919,
scooby_state_401d43|50|1 0,917,0,0,0,1,0,0,0,0,0,0,0,1,0,919,
scooby_state_401cdb|41|-2 1,916,0,0,0,0,0,0,0,0,0,1,0,0,0,918,
scooby_state_401d14|32|-1 1,917,0,0,0,0,0,0,0,0,0,0,0,0,0,918,
scooby_state_401d43|18|1 1,916,0,0,0,0,1,0,0,0,0,0,0,0,0,918,
scooby_state_401d43|53|1 1,913,0,0,1,0,0,0,0,1,0,0,0,0,1,917,
scooby_state_401cdb|25|-2 3,913,1,0,0,0,0,0,0,0,0,0,0,0,0,917,
scooby_state_401d43|6|1 0,915,0,0,0,0,0,0,0,0,1,1,0,0,0,917,
scooby_state_401d14|28|-1 1,916,0,0,0,0,0,0,0,0,0,0,0,0,0,917,
scooby_state_401d14|54|-1 0,914,0,0,0,1,0,0,0,1,0,0,0,0,0,916,
scooby_state_401d43|8|1 1,913,0,0,0,0,0,2,0,0,0,0,0,0,0,916,
scooby_state_401d43|42|1 0,914,0,1,0,0,0,0,0,1,0,0,0,0,0,916,
scooby_state_401cdb|52|-2 1,914,0,0,0,0,0,0,0,0,0,0,0,0,1,916,
scooby_state_401d14|30|-1 0,913,0,0,0,0,0,0,1,0,0,0,1,0,1,916,
scooby_state_401d14|35|-1 0,914,0,0,0,0,0,0,0,0,0,0,1,0,0,915,
scooby_state_401d43|38|1 0,912,0,0,0,1,0,0,0,1,0,0,0,0,0,914,
scooby_state_401d43|26|1 1,911,1,0,0,0,0,0,0,0,0,0,0,0,1,914,
scooby_state_401cdb|40|-2 3,910,0,0,0,0,0,0,0,0,0,0,0,1,0,914,
scooby_state_401cdb|37|-2 2,910,0,0,0,0,0,0,0,0,0,0,2,0,0,914,
scooby_state_401cdb|51|-2 1,911,0,1,1,0,0,0,0,0,0,0,0,0,0,914,
scooby_state_401cdb|28|-2 3,911,0,0,0,0,0,0,0,0,0,0,0,0,0,914,
scooby_state_401d43|33|1 0,914,0,0,0,0,0,0,0,0,0,0,0,0,0,914,
scooby_state_401d14|4|-1 0,912,0,0,0,1,0,1,0,0,0,0,0,0,0,914,
scooby_state_401d43|54|1 1,909,0,0,0,0,0,0,0,0,0,1,1,1,0,913,
scooby_state_401d14|22|-1 1,911,0,0,0,0,0,0,0,0,0,0,0,0,1,913,
scooby_state_401cdb|24|-2 3,907,0,1,1,0,0,0,0,0,0,0,0,1,0,913,
scooby_state_401d14|7|-1 1,912,0,0,0,0,0,0,0,0,0,0,0,0,0,913,
scooby_state_401cdb|53|-2 1,912,0,0,0,0,0,0,0,0,0,0,0,0,0,913,
scooby_state_401cdb|60|-2 1,910,0,0,0,0,0,0,1,1,0,0,0,0,0,913,
scooby_state_401cdb|4|-2 2,908,0,1,0,0,0,0,0,0,0,0,0,0,1,912,
scooby_state_401d43|5|1 1,911,0,0,0,0,0,0,0,0,0,0,0,0,0,912,
scooby_state_401cdb|27|-2 3,909,0,0,0,0,0,0,0,0,0,0,0,0,0,912,
scooby_state_401d14|47|-1 0,911,0,0,0,0,0,0,0,0,0,0,0,0,0,911,
scooby_state_401d43|41|1 2,907,0,1,0,0,0,0,0,1,0,0,0,0,0,911,
scooby_state_401d14|2|-1 1,908,0,1,0,0,0,0,0,1,0,0,0,0,0,911,
scooby_state_401d43|52|1 0,910,0,1,0,0,0,0,0,0,0,0,0,0,0,911,
scooby_state_401cdb|59|-2 3,906,0,0,1,0,0,0,0,0,0,0,1,0,0,911,
scooby_state_401d14|44|-1 0,910,0,0,0,0,0,1,0,0,0,0,0,0,0,911,
scooby_state_401d14|16|-1 0,910,0,0,0,0,0,0,0,0,0,1,0,0,0,911,
scooby_state_401d43|61|1 0,910,0,0,0,0,0,1,0,0,0,0,0,0,0,911,
scooby_state_401cdb|31|-2 1,908,0,1,0,0,0,0,0,0,0,0,0,1,0,911,
scooby_state_401d14|8|-1 0,908,0,0,0,0,0,0,0,1,1,0,0,0,0,910,
scooby_state_401cdb|56|-2 2,908,0,0,0,0,0,0,0,0,0,0,0,0,0,910,
scooby_state_401d14|46|-1 1,908,0,0,0,0,0,0,0,0,0,0,1,0,0,910,
scooby_state_401d43|25|1 1,908,0,0,0,1,0,0,0,0,0,0,0,0,0,910,
scooby_state_401d14|3|-1 0,910,0,0,0,0,0,0,0,0,0,0,0,0,0,910,
scooby_state_401d14|52|-1 0,908,0,0,0,0,0,0,0,0,0,0,0,1,1,910,
scooby_state_401cdb|19|-2 3,906,0,0,0,0,0,0,1,0,0,0,0,0,0,910,
scooby_state_401d43|60|1 0,909,1,0,0,0,0,0,0,0,0,0,0,0,0,910,
scooby_state_401d14|34|-1 0,909,0,0,0,0,1,0,0,0,0,0,0,0,0,910,
scooby_state_401d43|32|1 0,906,1,0,1,0,0,0,1,0,0,0,0,0,0,909,
scooby_state_401d43|28|1 0,908,0,0,0,1,0,0,0,0,0,0,0,0,0,909,
scooby_state_401d14|39|-1 0,907,0,0,0,1,0,0,0,0,0,0,0,0,0,908,
scooby_state_401cdb|43|-2 2,903,0,0,0,0,2,1,0,0,0,0,0,0,0,908,
scooby_state_401d43|20|1 1,906,0,0,0,0,0,0,0,0,1,0,0,0,0,908,
scooby_state_401d43|13|1 1,903,0,0,0,0,1,0,0,1,1,1,0,0,0,908,
scooby_state_401cdb|12|-2 3,903,0,0,0,0,0,0,1,1,0,0,0,0,0,908,
scooby_state_401d14|42|-1 0,905,0,0,0,0,1,0,0,1,0,0,0,0,0,907,
scooby_state_401d43|57|1 1,905,0,0,0,0,0,0,0,0,0,0,0,0,1,907,
scooby_state_401d43|29|1 0,906,0,0,0,1,0,0,0,0,0,0,0,0,0,907,
scooby_state_401cdb|29|-2 3,903,0,0,0,1,0,0,0,0,0,0,0,0,0,907,
scooby_state_401d14|10|-1 1,905,0,0,0,0,0,0,0,0,0,0,0,0,0,906,
scooby_state_401cdb|39|-2 2,901,0,0,0,0,0,0,1,0,0,0,0,1,1,906,
scooby_state_401d14|59|-1 1,903,1,0,0,0,0,0,0,0,0,0,0,0,0,905,
scooby_state_401cdb|8|-2 2,902,0,1,0,0,0,0,0,0,0,0,0,0,0,905,
scooby_state_401d14|20|-1 1,902,0,0,0,0,1,0,0,0,0,0,0,0,0,904,
scooby_state_401d14|62|-1 0,903,0,0,0,0,0,0,0,1,0,0,0,0,0,904,
scooby_state_401d43|44|1 0,900,0,0,1,0,2,0,0,0,0,0,0,1,0,904,
scooby_state_401cdb|63|2 117,785,0,0,0,0,0,1,0,0,0,0,0,0,0,903,
scooby_state_401d43|9|1 0,903,0,0,0,0,0,0,0,0,0,0,0,0,0,903,
scooby_state_401cdb|44|-2 2,901,0,0,0,0,0,0,0,0,0,0,0,0,0,903,
scooby_state_401d43|40|1 1,901,0,0,0,0,0,0,0,1,0,0,0,0,0,903,
scooby_state_401cdb|15|-2 3,899,0,0,0,0,0,0,0,0,0,0,0,0,0,902,
scooby_state_401d14|40|-1 1,899,0,0,0,0,0,0,0,1,0,0,0,1,0,902,
scooby_state_401cdb|20|-2 3,896,0,1,0,0,1,1,0,0,0,0,0,0,0,902,
scooby_state_401d43|45|1 1,898,0,0,0,0,0,1,0,0,0,0,0,0,0,900,
scooby_state_401d43|30|1 1,898,0,0,0,0,0,0,0,0,0,0,1,0,0,900,
scooby_state_401d14|48|-1 1,898,0,0,1,0,0,0,0,0,0,0,0,0,0,900,
scooby_state_401d43|16|1 1,899,0,0,0,0,0,0,0,0,0,0,0,0,0,900,
scooby_state_401d14|26|-1 0,897,1,0,0,0,1,0,0,0,0,0,0,1,0,900,
scooby_state_401d14|58|-1 0,899,0,0,0,0,0,0,1,0,0,0,0,0,0,900,
scooby_state_401d43|21|1 1,898,0,0,0,0,0,0,0,0,0,0,0,0,0,899,
scooby_state_401cdb|36|-2 2,895,1,0,0,0,0,0,0,0,0,1,0,0,0,899,
scooby_state_401d14|51|-1 1,896,0,0,0,0,0,0,1,1,0,0,0,0,0,899,
scooby_state_401cdb|47|-2 2,896,0,0,0,0,0,0,0,0,0,0,0,0,0,898,
scooby_state_401d14|27|-1 1,896,0,0,0,0,0,0,1,0,0,0,0,0,0,898,
scooby_state_401d43|37|1 0,897,0,0,0,0,0,0,0,0,0,0,0,0,0,897,
scooby_state_401d14|50|-1 0,897,0,0,0,0,0,0,0,0,0,0,0,0,0,897,
scooby_state_401d14|15|-1 1,896,0,0,0,0,0,0,0,0,0,0,0,0,0,897,
scooby_state_401d43|48|1 0,896,0,0,0,0,0,0,0,0,0,0,0,0,0,896,
scooby_state_401d14|14|-1 0,896,0,0,0,0,0,0,0,0,0,0,0,0,0,896,
scooby_state_401cdb|11|-2 4,884,1,0,0,0,0,0,0,1,1,0,1,1,0,893,
scooby_state_401cdb|3|-2 1,889,0,1,0,0,0,1,0,0,0,0,1,0,0,893,
scooby_state_401d43|4|1 0,893,0,0,0,0,0,0,0,0,0,0,0,0,0,893,
scooby_state_401d14|6|-1 0,892,0,0,0,0,0,0,0,0,0,0,0,0,0,892,
scooby_state_401cdb|35|-2 2,885,0,0,0,0,0,1,0,0,1,0,1,0,0,890,
scooby_state_401d43|12|1 0,889,0,1,0,0,0,0,0,0,0,0,0,0,0,890,
scooby_state_401d43|36|1 1,887,0,0,0,0,0,0,0,0,0,0,0,0,1,889,
scooby_state_401d14|18|-1 1,885,0,0,0,0,0,0,1,0,0,0,0,0,0,887,
scooby_state_401cdb|55|-2 2,883,1,0,0,0,0,0,0,0,0,1,0,0,0,887,
scooby_state_401d43|56|1 0,885,0,0,0,1,0,0,0,0,0,0,1,0,0,887,
scooby_state_401cdb|23|-2 3,881,0,0,0,0,0,0,0,0,0,0,0,0,1,885,
scooby_state_401d14|38|-1 1,882,0,0,0,0,0,0,0,0,0,0,0,0,0,883,
scooby_state_401d43|24|1 0,878,1,0,0,0,0,1,0,0,0,0,0,0,0,880,
scooby_state_401d43|1|1 0,877,0,0,0,0,0,0,0,0,0,0,0,0,0,877,
scooby_state_401d43|0|-1 1,867,0,1,0,0,0,0,0,0,0,0,0,0,0,869,
scooby_state_401cdb|58|-2 3,851,0,0,1,0,0,0,0,0,0,0,0,0,0,855,
scooby_state_401d43|59|1 1,853,0,0,0,0,0,0,0,0,0,0,0,0,0,854,
scooby_state_401cdb|42|-2 2,848,0,0,0,0,0,0,0,0,0,1,0,0,0,851,
scooby_state_401cdb|46|-2 1,848,0,0,0,0,0,0,0,0,0,0,1,0,0,850,
scooby_state_401d43|43|1 0,847,0,0,0,0,0,1,0,0,0,0,0,1,0,849,
scooby_state_401d43|47|1 0,846,0,0,1,0,0,0,0,0,0,0,0,0,1,848,
scooby_state_401cdb|26|-2 1,845,0,0,0,0,0,0,1,0,0,0,0,1,0,848,
scooby_state_401cdb|38|-2 1,845,0,0,0,0,0,0,0,0,0,0,2,0,0,848,
scooby_state_401d43|39|1 0,847,0,0,0,0,0,0,0,0,0,0,0,0,0,847,
scooby_state_401d14|49|-1 0,845,0,0,0,0,0,1,0,0,0,0,0,0,0,846,
scooby_state_401cdb|2|-2 3,840,0,0,1,0,1,1,0,0,0,0,0,0,0,846,
scooby_state_401d43|3|1 1,843,0,0,0,0,1,0,0,0,0,0,0,0,0,845,
scooby_state_401cdb|10|-2 3,840,0,0,0,0,0,0,0,0,0,0,0,0,1,844,
scooby_state_401d43|27|1 1,842,0,0,0,0,0,0,0,0,0,1,0,0,0,844,
scooby_state_401d43|11|1 1,837,0,0,0,1,0,1,0,0,0,0,2,0,0,842,
scooby_state_401d14|5|-1 1,840,0,0,0,0,0,0,0,0,0,0,0,0,0,841,
scooby_state_401cdb|14|-2 3,837,0,0,0,0,0,0,0,0,0,0,0,0,0,840,
scooby_state_401d43|15|1 1,836,0,1,0,0,0,0,0,0,0,1,0,0,0,839,
scooby_state_401d14|17|-1 1,837,1,0,0,0,0,0,0,0,0,0,0,0,0,839,
scooby_state_401d14|0|-1 1,835,0,0,0,0,0,0,0,0,0,0,0,1,0,837,
scooby_state_401cdb|6|-2 4,831,1,0,0,0,0,0,0,0,0,0,0,0,0,836,
scooby_state_401cdb|34|-2 4,830,0,0,0,0,0,0,0,0,1,0,0,1,0,836,
scooby_state_401d43|7|1 0,832,0,0,0,0,1,0,1,0,0,1,0,0,0,835,
scooby_state_401cdb|54|-2 3,830,0,0,0,0,0,0,0,0,1,0,0,1,0,835,
scooby_state_401d43|55|1 2,833,0,0,0,0,0,0,0,0,0,0,0,0,0,835,
scooby_state_401d14|61|-1 1,830,0,1,0,0,0,0,0,1,0,0,0,0,0,833,
scooby_state_401d43|35|1 1,830,0,0,0,0,0,1,1,0,0,0,0,0,0,833,
scooby_state_401d43|63|1 1,828,0,0,0,0,0,0,0,0,0,0,0,0,0,829,
scooby_state_401cdb|62|2 116,711,1,0,0,0,0,0,0,0,0,0,1,0,0,829,
scooby_state_401d14|13|-1 1,826,0,0,0,0,1,0,0,0,0,0,0,0,0,828,
scooby_state_401cdb|22|-2 4,821,0,0,0,0,0,0,0,0,1,0,0,0,1,827,
scooby_state_401cdb|50|-2 2,823,0,0,0,0,0,1,0,0,0,0,0,0,0,826,
scooby_state_401d43|23|1 1,823,0,0,0,0,0,0,2,0,0,0,0,0,0,826,
scooby_state_401d14|29|-1 0,825,0,0,0,0,0,0,0,0,0,0,0,0,0,825,
scooby_state_401d43|51|1 0,822,0,0,0,1,0,0,1,1,0,0,0,0,0,825,
scooby_state_401d14|25|-1 1,821,0,0,0,1,0,0,0,0,0,2,0,0,0,825,
scooby_state_401d14|1|-1 0,822,0,0,0,1,0,0,0,0,0,0,1,0,0,824,
scooby_state_401d14|37|-1 1,821,0,0,0,0,0,0,0,1,0,0,0,0,0,823,
scooby_state_401d14|9|-1 0,820,0,0,0,0,1,0,0,0,0,0,0,0,0,821,
scooby_state_401cdb|18|-2 2,814,2,0,0,0,0,0,0,0,0,0,1,0,0,819,
scooby_state_401d43|19|1 0,818,0,0,0,0,0,0,0,0,0,0,1,0,0,819,
scooby_state_401d14|57|-1 0,817,1,0,0,0,0,0,0,0,0,0,0,0,0,818,
scooby_state_401cdb|30|-2 2,814,0,0,0,0,0,0,0,0,0,0,0,0,0,816,
scooby_state_401d14|45|-1 0,813,0,0,0,1,1,1,0,0,0,0,0,0,0,816,
scooby_state_401d43|31|1 1,814,0,0,0,0,0,0,0,0,0,0,0,0,0,815,
scooby_state_401d14|41|-1 1,813,0,0,0,0,0,0,0,0,0,1,0,0,0,815,
scooby_state_401d14|53|-1 0,814,0,0,0,0,0,0,0,0,0,0,0,0,0,814,
scooby_state_401d14|21|-1 1,807,0,1,1,0,1,0,0,0,0,0,0,0,0,811,
scooby_state_401d14|33|-1 1,804,0,0,0,0,0,0,1,0,0,0,0,1,1,808,
scooby_state_401cdb|0|-2 3,756,0,0,0,0,1,0,0,0,0,0,0,0,0,760,
scooby_state_4023cc|43|1 1,147,0,0,0,0,0,0,0,0,0,0,0,0,0,148,
scooby_state_40208c|42|1 124,0,0,0,0,0,0,0,0,0,0,0,0,0,0,124,
scooby_state_40206d|41|-2 115,0,0,0,0,1,0,0,0,0,0,0,0,0,0,116,
scooby_state_401d37|0|-2 93,0,0,0,0,0,0,0,0,0,0,0,0,0,0,93,
scooby_state_401d60|0|-1 1,55,0,0,0,0,0,0,0,0,0,0,0,0,0,56,
scooby_state_401d37|0|-1 55,0,0,0,0,0,0,0,0,0,0,0,0,0,0,55,
scooby_state_4023cc|43|2 1,49,0,0,0,0,0,0,0,0,0,0,0,0,0,50,
scooby_state_40206d|41|0 46,2,1,1,0,0,0,0,0,0,0,0,0,0,0,50,
scooby_state_40206d|41|-1 0,39,0,0,0,0,0,0,0,0,0,0,0,0,0,39,
scooby_state_401e02|0|-1 35,0,0,0,0,0,0,0,0,0,0,0,0,0,0,35,
scooby_state_401cdb|0|-1 0,34,0,0,0,0,0,0,0,0,0,0,0,0,0,34,
scooby_state_40208c|42|-1 3,26,0,0,0,0,0,0,0,0,0,0,0,0,0,29,
scooby_state_401e74|19|1 0,26,0,0,0,0,0,0,0,0,0,0,0,0,0,26,
scooby_state_401ce6|0|-2 24,0,0,0,0,0,0,0,0,0,0,0,0,0,0,24,
scooby_state_401e74|15|1 0,23,0,0,0,0,0,0,0,0,0,0,0,0,0,23,
scooby_state_401e74|0|-1 0,23,0,0,0,0,0,0,0,0,0,0,0,0,0,23,
scooby_state_402065|42|-1 0,20,0,0,0,0,0,0,0,0,0,0,0,0,0,20,
scooby_state_401d98|1|-1 19,0,0,0,0,0,0,0,0,0,0,0,0,0,0,19,
scooby_state_401e40|52|-1 16,0,0,0,0,0,0,0,0,0,0,0,0,0,0,16,
scooby_state_402065|42|1 16,0,0,0,0,0,0,0,0,0,0,0,0,0,0,16,
scooby_state_401e81|0|-1 0,16,0,0,0,0,0,0,0,0,0,0,0,0,0,16,
scooby_state_401e74|2|1 0,15,0,0,0,0,0,0,0,0,0,0,0,0,0,15,
scooby_state_401e74|57|1 0,15,0,0,0,0,0,0,0,0,0,0,0,0,0,15,
scooby_state_401e40|48|-1 15,0,0,0,0,0,0,0,0,0,0,0,0,0,0,15,
scooby_state_401e74|54|1 0,14,0,0,0,0,0,0,0,0,0,0,0,0,0,14,
scooby_state_401d71|1|-1 14,0,0,0,0,0,0,0,0,0,0,0,0,0,0,14,
scooby_state_401e74|16|1 0,14,0,0,0,0,0,0,0,0,0,0,0,0,0,14,
scooby_state_401e74|3|1 0,14,0,0,0,0,0,0,0,0,0,0,0,0,0,14,
scooby_state_40208c|42|0 13,0,0,0,0,0,0,0,0,0,0,0,0,0,0,13,
scooby_state_401e74|47|1 0,13,0,0,0,0,0,0,0,0,0,0,0,0,0,13,
scooby_state_401e40|4|-1 12,0,0,0,0,0,0,0,0,0,0,0,0,0,0,12,
scooby_state_401e4d|0|-1 12,0,0,0,0,0,0,0,0,0,0,0,0,0,0,12,
scooby_state_401e74|55|1 0,12,0,0,0,0,0,0,0,0,0,0,0,0,0,12,
scooby_state_401d98|0|-1 12,0,0,0,0,0,0,0,0,0,0,0,0,0,0,12,
scooby_state_401e74|17|1 0,11,0,0,0,0,0,0,0,0,0,0,0,0,0,11,
scooby_state_401e8e|0|-1 11,0,0,0,0,0,0,0,0,0,0,0,0,0,0,11,
scooby_state_401e74|56|1 0,11,0,0,0,0,0,0,0,0,0,0,0,0,0,11,
scooby_state_401e19|0|-2 0,11,0,0,0,0,0,0,0,0,0,0,0,0,0,11,
scooby_state_401e4d|11|-1 11,0,0,0,0,0,0,0,0,0,0,0,0,0,0,11,
scooby_state_401e4d|41|-1 10,0,0,0,0,0,0,0,0,0,0,0,0,0,0,10,
scooby_state_401e81|3|1 0,10,0,0,0,0,0,0,0,0,0,0,0,0,0,10,
scooby_state_401e74|1|-1 0,9,0,0,0,0,0,0,0,0,0,0,0,0,0,9,
scooby_state_401e40|10|-1 9,0,0,0,0,0,0,0,0,0,0,0,0,0,0,9,
scooby_state_401e4d|21|-1 9,0,0,0,0,0,0,0,0,0,0,0,0,0,0,9,
scooby_state_401e74|42|1 0,9,0,0,0,0,0,0,0,0,0,0,0,0,0,9,
scooby_state_401e5a|0|-1 9,0,0,0,0,0,0,0,0,0,0,0,0,0,0,9,
scooby_state_401e74|32|1 0,9,0,0,0,0,0,0,0,0,0,0,0,0,0,9,
scooby_state_401e40|18|-1 9,0,0,0,0,0,0,0,0,0,0,0,0,0,0,9,
scooby_state_401e40|29|-1 9,0,0,0,0,0,0,0,0,0,0,0,0,0,0,9,
scooby_state_401e74|39|1 0,9,0,0,0,0,0,0,0,0,0,0,0,0,0,9,
scooby_state_401e74|63|1 0,9,0,0,0,0,0,0,0,0,0,0,0,0,0,9,
scooby_state_401d1f|25|-1 0,9,0,0,0,0,0,0,0,0,0,0,0,0,0,9,
scooby_state_401d1f|47|-1 0,8,0,0,0,0,0,0,0,0,0,0,0,0,0,8,
scooby_state_401e74|45|1 0,8,0,0,0,0,0,0,0,0,0,0,0,0,0,8,
scooby_state_401e26|0|-2 0,8,0,0,0,0,0,0,0,0,0,0,0,0,0,8,
scooby_state_401d1f|23|-1 0,8,0,0,0,0,0,0,0,0,0,0,0,0,0,8,
scooby_state_401e81|40|1 0,8,0,0,0,0,0,0,0,0,0,0,0,0,0,8,
scooby_state_401e40|53|-1 8,0,0,0,0,0,0,0,0,0,0,0,0,0,0,8,
scooby_state_401e4d|1|-1 8,0,0,0,0,0,0,0,0,0,0,0,0,0,0,8,
scooby_state_401d1f|48|-1 0,8,0,0,0,0,0,0,0,0,0,0,0,0,0,8,
scooby_state_401e33|3|2 0,8,0,0,0,0,0,0,0,0,0,0,0,0,0,8,
scooby_state_401e4d|23|-1 8,0,0,0,0,0,0,0,0,0,0,0,0,0,0,8,
scooby_state_401e74|46|1 0,8,0,0,0,0,0,0,0,0,0,0,0,0,0,8,
scooby_state_401e74|48|1 0,8,0,0,0,0,0,0,0,0,0,0,0,0,0,8,
scooby_state_401e74|62|1 0,8,0,0,0,0,0,0,0,0,0,0,0,0,0,8,
scooby_state_401d1f|59|-1 0,8,0,0,0,0,0,0,0,0,0,0,0,0,0,8,
scooby_state_401e40|17|-1 8,0,0,0,0,0,0,0,0,0,0,0,0,0,0,8,
scooby_state_401d1f|10|-1 0,8,0,0,0,0,0,0,0,0,0,0,0,0,0,8,
scooby_state_401e4d|10|-1 8,0,0,0,0,0,0,0,0,0,0,0,0,0,0,8,
scooby_state_401e02|0|-4 8,0,0,0,0,0,0,0,0,0,0,0,0,0,0,8,
scooby_state_401e40|51|-1 8,0,0,0,0,0,0,0,0,0,0,0,0,0,0,8,
scooby_state_401cb0|4|2 8,0,0,0,0,0,0,0,0,0,0,0,0,0,0,8,
scooby_state_401e4d|28|-1 8,0,0,0,0,0,0,0,0,0,0,0,0,0,0,8,
scooby_state_401d1f|15|-1 0,8,0,0,0,0,0,0,0,0,0,0,0,0,0,8,
scooby_state_401d1f|61|-1 0,8,0,0,0,0,0,0,0,0,0,0,0,0,0,8,
scooby_state_401e81|14|1 0,8,0,0,0,0,0,0,0,0,0,0,0,0,0,8,
scooby_state_401e67|1|-1 0,7,0,0,0,0,0,0,0,0,0,0,0,0,0,7,
scooby_state_401e40|33|-1 7,0,0,0,0,0,0,0,0,0,0,0,0,0,0,7,
scooby_state_401e81|9|1 0,7,0,0,0,0,0,0,0,0,0,0,0,0,0,7,
scooby_state_401d1f|62|-1 0,7,0,0,0,0,0,0,0,0,0,0,0,0,0,7,
scooby_state_401e81|1|-1 0,7,0,0,0,0,0,0,0,0,0,0,0,0,0,7,
scooby_state_401e40|13|-1 7,0,0,0,0,0,0,0,0,0,0,0,0,0,0,7,
scooby_state_4023cc|43|0 0,7,0,0,0,0,0,0,0,0,0,0,0,0,0,7,
scooby_state_401e4d|14|-1 7,0,0,0,0,0,0,0,0,0,0,0,0,0,0,7,
scooby_state_401e40|24|-1 7,0,0,0,0,0,0,0,0,0,0,0,0,0,0,7,
scooby_state_401e81|27|1 0,7,0,0,0,0,0,0,0,0,0,0,0,0,0,7,
scooby_state_401e81|37|1 0,7,0,0,0,0,0,0,0,0,0,0,0,0,0,7,
scooby_state_401d1f|39|-1 0,7,0,0,0,0,0,0,0,0,0,0,0,0,0,7,
scooby_state_401e4d|17|-1 7,0,0,0,0,0,0,0,0,0,0,0,0,0,0,7,
scooby_state_401e4d|22|-1 7,0,0,0,0,0,0,0,0,0,0,0,0,0,0,7,
scooby_state_401e81|38|1 0,7,0,0,0,0,0,0,0,0,0,0,0,0,0,7,
scooby_state_401e74|38|1 0,7,0,0,0,0,0,0,0,0,0,0,0,0,0,7,
scooby_state_402065|42|0 7,0,0,0,0,0,0,0,0,0,0,0,0,0,0,7,
scooby_state_401e4d|51|-1 7,0,0,0,0,0,0,0,0,0,0,0,0,0,0,7,
scooby_state_401e40|15|-1 7,0,0,0,0,0,0,0,0,0,0,0,0,0,0,7,
scooby_state_401d4f|29|1 7,0,0,0,0,0,0,0,0,0,0,0,0,0,0,7,
scooby_state_401d1f|51|-1 1,6,0,0,0,0,0,0,0,0,0,0,0,0,0,7,
scooby_state_401e4d|55|-1 7,0,0,0,0,0,0,0,0,0,0,0,0,0,0,7,
scooby_state_401d1f|63|2 0,7,0,0,0,0,0,0,0,0,0,0,0,0,0,7,
scooby_state_401d1f|40|-1 0,7,0,0,0,0,0,0,0,0,0,0,0,0,0,7,
scooby_state_401e19|19|-2 0,7,0,0,0,0,0,0,0,0,0,0,0,0,0,7,
scooby_state_401d1f|11|-1 0,7,0,0,0,0,0,0,0,0,0,0,0,0,0,7,
scooby_state_401d1f|41|-1 0,7,0,0,0,0,0,0,0,0,0,0,0,0,0,7,
scooby_state_401e4d|0|-2 7,0,0,0,0,0,0,0,0,0,0,0,0,0,0,7,
scooby_state_401e4d|12|-1 7,0,0,0,0,0,0,0,0,0,0,0,0,0,0,7,
scooby_state_401e40|1|-1 7,0,0,0,0,0,0,0,0,0,0,0,0,0,0,7,
scooby_state_401e4d|38|-1 7,0,0,0,0,0,0,0,0,0,0,0,0,0,0,7,
scooby_state_401d1f|12|-1 0,6,0,0,0,0,0,0,0,0,0,0,0,0,0,6,
scooby_state_401e74|4|1 0,6,0,0,0,0,0,0,0,0,0,0,0,0,0,6,
scooby_state_401e4d|54|-1 6,0,0,0,0,0,0,0,0,0,0,0,0,0,0,6,
scooby_state_401d1f|8|-1 0,6,0,0,0,0,0,0,0,0,0,0,0,0,0,6,
scooby_state_401d1f|31|-1 0,6,0,0,0,0,0,0,0,0,0,0,0,0,0,6,
scooby_state_401d1f|57|-1 0,6,0,0,0,0,0,0,0,0,0,0,0,0,0,6,
scooby_state_401d1f|17|-1 0,6,0,0,0,0,0,0,0,0,0,0,0,0,0,6,
scooby_state_401e4d|20|-1 6,0,0,0,0,0,0,0,0,0,0,0,0,0,0,6,
scooby_state_401e40|16|-1 6,0,0,0,0,0,0,0,0,0,0,0,0,0,0,6,
scooby_state_401e4d|52|-1 6,0,0,0,0,0,0,0,0,0,0,0,0,0,0,6,
scooby_state_401e81|58|1 1,5,0,0,0,0,0,0,0,0,0,0,0,0,0,6,
scooby_state_401e19|3|-2 0,6,0,0,0,0,0,0,0,0,0,0,0,0,0,6,
scooby_state_401e74|53|1 0,6,0,0,0,0,0,0,0,0,0,0,0,0,0,6,
scooby_state_401e74|10|1 0,6,0,0,0,0,0,0,0,0,0,0,0,0,0,6,
scooby_state_401e74|8|1 0,6,0,0,0,0,0,0,0,0,0,0,0,0,0,6,
scooby_state_401e40|19|-1 6,0,0,0,0,0,0,0,0,0,0,0,0,0,0,6,
scooby_state_401ea8|1|-1 6,0,0,0,0,0,0,0,0,0,0,0,0,0,0,6,
scooby_state_401e74|33|1 0,6,0,0,0,0,0,0,0,0,0,0,0,0,0,6,
scooby_state_401e4d|24|-1 6,0,0,0,0,0,0,0,0,0,0,0,0,0,0,6,
scooby_state_401e74|37|1 0,6,0,0,0,0,0,0,0,0,0,0,0,0,0,6,
scooby_state_401e74|61|1 0,6,0,0,0,0,0,0,0,0,0,0,0,0,0,6,
scooby_state_401e40|14|-1 6,0,0,0,0,0,0,0,0,0,0,0,0,0,0,6,
scooby_state_401e74|26|1 0,6,0,0,0,0,0,0,0,0,0,0,0,0,0,6,
scooby_state_401e4d|25|-1 6,0,0,0,0,0,0,0,0,0,0,0,0,0,0,6,
scooby_state_401e4d|40|-1 6,0,0,0,0,0,0,0,0,0,0,0,0,0,0,6,
scooby_state_401e4d|49|-1 6,0,0,0,0,0,0,0,0,0,0,0,0,0,0,6,
scooby_state_401e40|0|-2 6,0,0,0,0,0,0,0,0,0,0,0,0,0,0,6,
scooby_state_401e81|4|1 0,5,0,0,0,0,0,0,0,0,0,0,0,0,0,5,
scooby_state_401e4d|60|-1 5,0,0,0,0,0,0,0,0,0,0,0,0,0,0,5,
scooby_state_401e4d|32|-1 5,0,0,0,0,0,0,0,0,0,0,0,0,0,0,5,
scooby_state_401e4d|6|-1 5,0,0,0,0,0,0,0,0,0,0,0,0,0,0,5,
scooby_state_401e4d|33|-1 5,0,0,0,0,0,0,0,0,0,0,0,0,0,0,5,
scooby_state_401d4f|18|1 5,0,0,0,0,0,0,0,0,0,0,0,0,0,0,5,
scooby_state_401e4d|48|-1 5,0,0,0,0,0,0,0,0,0,0,0,0,0,0,5,
scooby_state_401e4d|57|-1 5,0,0,0,0,0,0,0,0,0,0,0,0,0,0,5,
scooby_state_401e19|20|-2 0,5,0,0,0,0,0,0,0,0,0,0,0,0,0,5,
scooby_state_401e40|57|-1 5,0,0,0,0,0,0,0,0,0,0,0,0,0,0,5,
scooby_state_401e40|43|-1 5,0,0,0,0,0,0,0,0,0,0,0,0,0,0,5,
scooby_state_401d4f|33|1 5,0,0,0,0,0,0,0,0,0,0,0,0,0,0,5,
scooby_state_401e4d|39|-1 5,0,0,0,0,0,0,0,0,0,0,0,0,0,0,5,
scooby_state_401e0f|0|-2 5,0,0,0,0,0,0,0,0,0,0,0,0,0,0,5,
scooby_state_401e40|25|-1 5,0,0,0,0,0,0,0,0,0,0,0,0,0,0,5,
scooby_state_401d1f|16|-1 0,5,0,0,0,0,0,0,0,0,0,0,0,0,0,5,
scooby_state_401d1f|45|-1 0,5,0,0,0,0,0,0,0,0,0,0,0,0,0,5,
scooby_state_401e74|24|1 0,5,0,0,0,0,0,0,0,0,0,0,0,0,0,5,
scooby_state_401e4d|37|-1 5,0,0,0,0,0,0,0,0,0,0,0,0,0,0,5,
scooby_state_401e74|59|1 0,5,0,0,0,0,0,0,0,0,0,0,0,0,0,5,
scooby_state_401e81|35|1 0,5,0,0,0,0,0,0,0,0,0,0,0,0,0,5,
scooby_state_401e74|49|1 0,5,0,0,0,0,0,0,0,0,0,0,0,0,0,5,
scooby_state_401e74|9|1 0,5,0,0,0,0,0,0,0,0,0,0,0,0,0,5,
scooby_state_401e40|63|2 5,0,0,0,0,0,0,0,0,0,0,0,0,0,0,5,
scooby_state_401e81|48|1 0,5,0,0,0,0,0,0,0,0,0,0,0,0,0,5,
scooby_state_401d4f|30|1 5,0,0,0,0,0,0,0,0,0,0,0,0,0,0,5,
scooby_state_401e40|46|-1 5,0,0,0,0,0,0,0,0,0,0,0,0,0,0,5,
scooby_state_401d1f|42|-1 0,5,0,0,0,0,0,0,0,0,0,0,0,0,0,5,
scooby_state_401e4d|61|-1 5,0,0,0,0,0,0,0,0,0,0,0,0,0,0,5,
scooby_state_401e4d|43|-1 5,0,0,0,0,0,0,0,0,0,0,0,0,0,0,5,
scooby_state_401e19|4|-2 0,5,0,0,0,0,0,0,0,0,0,0,0,0,0,5,
scooby_state_401e74|22|1 0,5,0,0,0,0,0,0,0,0,0,0,0,0,0,5,
scooby_state_401e74|27|1 0,5,0,0,0,0,0,0,0,0,0,0,0,0,0,5,
scooby_state_401e40|9|-1 5,0,0,0,0,0,0,0,0,0,0,0,0,0,0,5,
scooby_state_401e81|54|1 0,5,0,0,0,0,0,0,0,0,0,0,0,0,0,5,
scooby_state_401e40|2|-1 5,0,0,0,0,0,0,0,0,0,0,0,0,0,0,5,
scooby_state_401d1f|34|-1 0,5,0,0,0,0,0,0,0,0,0,0,0,0,0,5,
scooby_state_401e81|2|1 0,5,0,0,0,0,0,0,0,0,0,0,0,0,0,5,
scooby_state_401e4d|56|-1 5,0,0,0,0,0,0,0,0,0,0,0,0,0,0,5,
scooby_state_401e74|28|1 0,5,0,0,0,0,0,0,0,0,0,0,0,0,0,5,
scooby_state_401e40|50|-1 5,0,0,0,0,0,0,0,0,0,0,0,0,0,0,5,
scooby_state_401e81|60|1 0,5,0,0,0,0,0,0,0,0,0,0,0,0,0,5,
scooby_state_401d4f|24|1 5,0,0,0,0,0,0,0,0,0,0,0,0,0,0,5,
scooby_state_401e4d|9|-1 5,0,0,0,0,0,0,0,0,0,0,0,0,0,0,5,
scooby_state_401e81|22|1 0,4,0,0,0,0,0,0,0,0,0,0,0,0,0,4,
scooby_state_401e40|44|-1 4,0,0,0,0,0,0,0,0,0,0,0,0,0,0,4,
scooby_state_401e40|58|-1 4,0,0,0,0,0,0,0,0,0,0,0,0,0,0,4,
scooby_state_401e40|39|-1 4,0,0,0,0,0,0,0,0,0,0,0,0,0,0,4,
scooby_state_401e81|16|1 0,4,0,0,0,0,0,0,0,0,0,0,0,0,0,4,
scooby_state_401e74|5|1 0,4,0,0,0,0,0,0,0,0,0,0,0,0,0,4,
scooby_state_401e9b|0|-1 0,4,0,0,0,0,0,0,0,0,0,0,0,0,0,4,
scooby_state_401e40|59|-1 4,0,0,0,0,0,0,0,0,0,0,0,0,0,0,4,
scooby_state_401d1f|19|-1 0,4,0,0,0,0,0,0,0,0,0,0,0,0,0,4,
scooby_state_401e74|34|1 0,4,0,0,0,0,0,0,0,0,0,0,0,0,0,4,
scooby_state_401e4d|58|-1 4,0,0,0,0,0,0,0,0,0,0,0,0,0,0,4,
scooby_state_401d1f|14|-1 0,4,0,0,0,0,0,0,0,0,0,0,0,0,0,4,
scooby_state_401d1f|18|-1 0,4,0,0,0,0,0,0,0,0,0,0,0,0,0,4,
scooby_state_401d1f|7|-1 0,4,0,0,0,0,0,0,0,0,0,0,0,0,0,4,
scooby_state_401cf7|63|2 4,0,0,0,0,0,0,0,0,0,0,0,0,0,0,4,
scooby_state_401e4d|53|-1 4,0,0,0,0,0,0,0,0,0,0,0,0,0,0,4,
scooby_state_401d1f|9|-1 0,4,0,0,0,0,0,0,0,0,0,0,0,0,0,4,
scooby_state_401d1f|26|-1 0,4,0,0,0,0,0,0,0,0,0,0,0,0,0,4,
scooby_state_401d1f|44|-1 0,4,0,0,0,0,0,0,0,0,0,0,0,0,0,4,
scooby_state_401d1f|27|-1 0,4,0,0,0,0,0,0,0,0,0,0,0,0,0,4,
scooby_state_401e40|0|-1 4,0,0,0,0,0,0,0,0,0,0,0,0,0,0,4,
scooby_state_401e19|18|-2 0,4,0,0,0,0,0,0,0,0,0,0,0,0,0,4,
scooby_state_401d1f|37|-1 0,4,0,0,0,0,0,0,0,0,0,0,0,0,0,4,
scooby_state_401e74|18|1 0,4,0,0,0,0,0,0,0,0,0,0,0,0,0,4,
scooby_state_401d1f|6|-1 0,4,0,0,0,0,0,0,0,0,0,0,0,0,0,4,
scooby_state_401e40|27|-1 4,0,0,0,0,0,0,0,0,0,0,0,0,0,0,4,
scooby_state_401e8e|1|-1 4,0,0,0,0,0,0,0,0,0,0,0,0,0,0,4,
scooby_state_401d4f|27|1 4,0,0,0,0,0,0,0,0,0,0,0,0,0,0,4,
scooby_state_401e4d|34|-1 4,0,0,0,0,0,0,0,0,0,0,0,0,0,0,4,
scooby_state_401e4d|8|-1 4,0,0,0,0,0,0,0,0,0,0,0,0,0,0,4,
scooby_state_401e4d|13|-1 4,0,0,0,0,0,0,0,0,0,0,0,0,0,0,4,
scooby_state_401e40|7|-1 4,0,0,0,0,0,0,0,0,0,0,0,0,0,0,4,
scooby_state_401d1f|24|-1 0,4,0,0,0,0,0,0,0,0,0,0,0,0,0,4,
scooby_state_401e40|3|-1 4,0,0,0,0,0,0,0,0,0,0,0,0,0,0,4,
scooby_state_401e74|6|1 0,4,0,0,0,0,0,0,0,0,0,0,0,0,0,4,
scooby_state_401d1f|30|-1 0,4,0,0,0,0,0,0,0,0,0,0,0,0,0,4,
scooby_state_401e74|7|1 0,4,0,0,0,0,0,0,0,0,0,0,0,0,0,4,
scooby_state_401e40|61|-1 4,0,0,0,0,0,0,0,0,0,0,0,0,0,0,4,
scooby_state_401d4f|0|-1 4,0,0,0,0,0,0,0,0,0,0,0,0,0,0,4,
scooby_state_401e40|6|-1 4,0,0,0,0,0,0,0,0,0,0,0,0,0,0,4,
scooby_state_401e81|50|1 0,4,0,0,0,0,0,0,0,0,0,0,0,0,0,4,
scooby_state_401e81|26|1 0,4,0,0,0,0,0,0,0,0,0,0,0,0,0,4,
scooby_state_401d4f|44|1 4,0,0,0,0,0,0,0,0,0,0,0,0,0,0,4,
scooby_state_401e4d|63|2 4,0,0,0,0,0,0,0,0,0,0,0,0,0,0,4,
scooby_state_401e40|55|-1 4,0,0,0,0,0,0,0,0,0,0,0,0,0,0,4,
scooby_state_401e74|21|1 0,4,0,0,0,0,0,0,0,0,0,0,0,0,0,4,
scooby_state_401e74|40|1 0,4,0,0,0,0,0,0,0,0,0,0,0,0,0,4,
scooby_state_401e81|17|1 0,4,0,0,0,0,0,0,0,0,0,0,0,0,0,4,
scooby_state_401e74|30|1 0,4,0,0,0,0,0,0,0,0,0,0,0,0,0,4,
scooby_state_401e19|17|-2 0,4,0,0,0,0,0,0,0,0,0,0,0,0,0,4,
scooby_state_401e4d|29|-1 4,0,0,0,0,0,0,0,0,0,0,0,0,0,0,4,
scooby_state_401e74|20|1 0,4,0,0,0,0,0,0,0,0,0,0,0,0,0,4,
scooby_state_401e33|0|-2 0,4,0,0,0,0,0,0,0,0,0,0,0,0,0,4,
scooby_state_401e4d|26|-1 4,0,0,0,0,0,0,0,0,0,0,0,0,0,0,4,
scooby_state_401e4d|46|-1 4,0,0,0,0,0,0,0,0,0,0,0,0,0,0,4,
scooby_state_401e4d|15|-1 4,0,0,0,0,0,0,0,0,0,0,0,0,0,0,4,
scooby_state_401d1f|20|-1 0,4,0,0,0,0,0,0,0,0,0,0,0,0,0,4,
scooby_state_401e81|43|1 0,3,0,0,0,0,0,0,0,0,0,0,0,0,0,3,
scooby_state_401d4f|34|1 3,0,0,0,0,0,0,0,0,0,0,0,0,0,0,3,
scooby_state_401e81|56|1 0,3,0,0,0,0,0,0,0,0,0,0,0,0,0,3,
scooby_state_401e40|12|-1 3,0,0,0,0,0,0,0,0,0,0,0,0,0,0,3,
scooby_state_401e81|31|1 0,3,0,0,0,0,0,0,0,0,0,0,0,0,0,3,
scooby_state_401e4d|18|-1 3,0,0,0,0,0,0,0,0,0,0,0,0,0,0,3,
scooby_state_401e40|8|-1 3,0,0,0,0,0,0,0,0,0,0,0,0,0,0,3,
scooby_state_401d4f|45|1 3,0,0,0,0,0,0,0,0,0,0,0,0,0,0,3,
scooby_state_401e81|63|1 0,3,0,0,0,0,0,0,0,0,0,0,0,0,0,3,
scooby_state_401e40|5|-1 3,0,0,0,0,0,0,0,0,0,0,0,0,0,0,3,
scooby_state_401d4f|57|1 3,0,0,0,0,0,0,0,0,0,0,0,0,0,0,3,
scooby_state_401e40|41|-1 3,0,0,0,0,0,0,0,0,0,0,0,0,0,0,3,
scooby_state_401d4f|25|1 3,0,0,0,0,0,0,0,0,0,0,0,0,0,0,3,
scooby_state_401e40|62|-1 3,0,0,0,0,0,0,0,0,0,0,0,0,0,0,3,
scooby_state_401d4f|35|1 3,0,0,0,0,0,0,0,0,0,0,0,0,0,0,3,
scooby_state_401e40|21|-1 3,0,0,0,0,0,0,0,0,0,0,0,0,0,0,3,
scooby_state_401e40|35|-1 3,0,0,0,0,0,0,0,0,0,0,0,0,0,0,3,
scooby_state_401e81|61|1 0,3,0,0,0,0,0,0,0,0,0,0,0,0,0,3,
scooby_state_401e81|44|1 0,3,0,0,0,0,0,0,0,0,0,0,0,0,0,3,
scooby_state_401e4d|45|-1 3,0,0,0,0,0,0,0,0,0,0,0,0,0,0,3,
scooby_state_401d4f|28|1 3,0,0,0,0,0,0,0,0,0,0,0,0,0,0,3,
scooby_state_401e74|14|1 0,3,0,0,0,0,0,0,0,0,0,0,0,0,0,3,
scooby_state_401d1f|43|-1 0,3,0,0,0,0,0,0,0,0,0,0,0,0,0,3,
scooby_state_401d1f|21|-1 0,3,0,0,0,0,0,0,0,0,0,0,0,0,0,3,
scooby_state_401e74|12|1 0,3,0,0,0,0,0,0,0,0,0,0,0,0,0,3,
scooby_state_401d4f|12|1 3,0,0,0,0,0,0,0,0,0,0,0,0,0,0,3,
scooby_state_401e4d|42|-1 3,0,0,0,0,0,0,0,0,0,0,0,0,0,0,3,
scooby_state_401e74|60|1 0,3,0,0,0,0,0,0,0,0,0,0,0,0,0,3,
scooby_state_401e40|60|-1 3,0,0,0,0,0,0,0,0,0,0,0,0,0,0,3,
scooby_state_401e40|56|-1 3,0,0,0,0,0,0,0,0,0,0,0,0,0,0,3,
scooby_state_401e40|11|-1 3,0,0,0,0,0,0,0,0,0,0,0,0,0,0,3,
scooby_state_401d4f|62|1 3,0,0,0,0,0,0,0,0,0,0,0,0,0,0,3,
scooby_state_401d1f|49|-1 0,3,0,0,0,0,0,0,0,0,0,0,0,0,0,3,
scooby_state_401d4f|63|1 3,0,0,0,0,0,0,0,0,0,0,0,0,0,0,3,
scooby_state_401e4d|19|-1 3,0,0,0,0,0,0,0,0,0,0,0,0,0,0,3,
scooby_state_401e4d|59|-1 3,0,0,0,0,0,0,0,0,0,0,0,0,0,0,3,
scooby_state_401e74|58|1 0,3,0,0,0,0,0,0,0,0,0,0,0,0,0,3,
scooby_state_401d1f|36|-1 0,3,0,0,0,0,0,0,0,0,0,0,0,0,0,3,
scooby_state_401d4f|41|1 3,0,0,0,0,0,0,0,0,0,0,0,0,0,0,3,
scooby_state_401e40|49|-1 3,0,0,0,0,0,0,0,0,0,0,0,0,0,0,3,
scooby_state_401e74|23|1 0,3,0,0,0,0,0,0,0,0,0,0,0,0,0,3,
scooby_state_401d1f|13|-1 0,3,0,0,0,0,0,0,0,0,0,0,0,0,0,3,
scooby_state_401cf7|62|2 3,0,0,0,0,0,0,0,0,0,0,0,0,0,0,3,
scooby_state_401e4d|30|-1 3,0,0,0,0,0,0,0,0,0,0,0,0,0,0,3,
scooby_state_401e81|18|1 0,3,0,0,0,0,0,0,0,0,0,0,0,0,0,3,
scooby_state_401e81|13|1 0,3,0,0,0,0,0,0,0,0,0,0,0,0,0,3,
scooby_state_401e81|28|1 0,3,0,0,0,0,0,0,0,0,0,0,0,0,0,3,
scooby_state_401e81|19|1 0,3,0,0,0,0,0,0,0,0,0,0,0,0,0,3,
scooby_state_401e5a|0|-2 3,0,0,0,0,0,0,0,0,0,0,0,0,0,0,3,
scooby_state_401e74|25|1 0,3,0,0,0,0,0,0,0,0,0,0,0,0,0,3,
scooby_state_401e81|42|1 0,3,0,0,0,0,0,0,0,0,0,0,0,0,0,3,
scooby_state_401e4d|47|-1 3,0,0,0,0,0,0,0,0,0,0,0,0,0,0,3,
scooby_state_401d1f|58|-1 0,3,0,0,0,0,0,0,0,0,0,0,0,0,0,3,
scooby_state_401e74|51|1 0,3,0,0,0,0,0,0,0,0,0,0,0,0,0,3,
scooby_state_401e74|29|1 0,3,0,0,0,0,0,0,0,0,0,0,0,0,0,3,
scooby_state_401d4f|21|1 3,0,0,0,0,0,0,0,0,0,0,0,0,0,0,3,
scooby_state_401e4d|62|-1 3,0,0,0,0,0,0,0,0,0,0,0,0,0,0,3,
scooby_state_401d4f|52|1 3,0,0,0,0,0,0,0,0,0,0,0,0,0,0,3,
scooby_state_401e4d|36|-1 3,0,0,0,0,0,0,0,0,0,0,0,0,0,0,3,
scooby_state_401e81|36|1 0,3,0,0,0,0,0,0,0,0,0,0,0,0,0,3,
scooby_state_401e74|41|1 0,3,0,0,0,0,0,0,0,0,0,0,0,0,0,3,
scooby_state_401e74|35|1 0,3,0,0,0,0,0,0,0,0,0,0,0,0,0,3,
scooby_state_401d4f|40|1 3,0,0,0,0,0,0,0,0,0,0,0,0,0,0,3,
scooby_state_401d4f|26|1 3,0,0,0,0,0,0,0,0,0,0,0,0,0,0,3,
scooby_state_401e67|2|-1 0,2,0,0,0,0,0,0,0,0,0,0,0,0,0,2,
scooby_state_401d1f|32|-1 0,2,0,0,0,0,0,0,0,0,0,0,0,0,0,2,
scooby_state_401e74|43|1 0,2,0,0,0,0,0,0,0,0,0,0,0,0,0,2,
scooby_state_401e81|7|1 0,2,0,0,0,0,0,0,0,0,0,0,0,0,0,2,
scooby_state_401e40|36|-1 2,0,0,0,0,0,0,0,0,0,0,0,0,0,0,2,
scooby_state_401e02|2|2 2,0,0,0,0,0,0,0,0,0,0,0,0,0,0,2,
scooby_state_401e33|0|-4 0,2,0,0,0,0,0,0,0,0,0,0,0,0,0,2,
scooby_state_401e81|24|1 0,2,0,0,0,0,0,0,0,0,0,0,0,0,0,2,
scooby_state_401d4f|37|1 2,0,0,0,0,0,0,0,0,0,0,0,0,0,0,2,
scooby_state_401e4d|35|-1 2,0,0,0,0,0,0,0,0,0,0,0,0,0,0,2,
scooby_state_401e81|10|1 0,2,0,0,0,0,0,0,0,0,0,0,0,0,0,2,
scooby_state_401e81|23|1 0,2,0,0,0,0,0,0,0,0,0,0,0,0,0,2,
scooby_state_401e40|47|-1 2,0,0,0,0,0,0,0,0,0,0,0,0,0,0,2,
scooby_state_401d4f|42|1 2,0,0,0,0,0,0,0,0,0,0,0,0,0,0,2,
scooby_state_401e81|41|1 0,2,0,0,0,0,0,0,0,0,0,0,0,0,0,2,
scooby_state_401e81|34|1 0,2,0,0,0,0,0,0,0,0,0,0,0,0,0,2,
scooby_state_401e81|29|1 0,2,0,0,0,0,0,0,0,0,0,0,0,0,0,2,
scooby_state_401d4f|9|1 2,0,0,0,0,0,0,0,0,0,0,0,0,0,0,2,
scooby_state_401e81|52|1 0,2,0,0,0,0,0,0,0,0,0,0,0,0,0,2,
scooby_state_401d1f|50|-1 0,2,0,0,0,0,0,0,0,0,0,0,0,0,0,2,
scooby_state_401e74|11|1 0,2,0,0,0,0,0,0,0,0,0,0,0,0,0,2,
scooby_state_401e81|46|1 0,2,0,0,0,0,0,0,0,0,0,0,0,0,0,2,
scooby_state_401d4f|10|1 2,0,0,0,0,0,0,0,0,0,0,0,0,0,0,2,
scooby_state_401e40|20|-1 2,0,0,0,0,0,0,0,0,0,0,0,0,0,0,2,
scooby_state_401e33|3|3 0,2,0,0,0,0,0,0,0,0,0,0,0,0,0,2,
scooby_state_401e33|2|2 0,2,0,0,0,0,0,0,0,0,0,0,0,0,0,2,
scooby_state_401e67|0|-3 0,2,0,0,0,0,0,0,0,0,0,0,0,0,0,2,
scooby_state_401cb0|3|2 2,0,0,0,0,0,0,0,0,0,0,0,0,0,0,2,
scooby_state_401e81|6|1 0,2,0,0,0,0,0,0,0,0,0,0,0,0,0,2,
scooby_state_401e81|39|1 0,2,0,0,0,0,0,0,0,0,0,0,0,0,0,2,
scooby_state_401ea8|0|-1 2,0,0,0,0,0,0,0,0,0,0,0,0,0,0,2,
scooby_state_401e81|51|1 0,2,0,0,0,0,0,0,0,0,0,0,0,0,0,2,
scooby_state_401e4d|44|-1 2,0,0,0,0,0,0,0,0,0,0,0,0,0,0,2,
scooby_state_401d4f|22|1 2,0,0,0,0,0,0,0,0,0,0,0,0,0,0,2,
scooby_state_401d4f|20|1 2,0,0,0,0,0,0,0,0,0,0,0,0,0,0,2,
scooby_state_401e74|36|1 0,2,0,0,0,0,0,0,0,0,0,0,0,0,0,2,
scooby_state_401d4f|6|1 2,0,0,0,0,0,0,0,0,0,0,0,0,0,0,2,
scooby_state_401e19|57|-2 0,2,0,0,0,0,0,0,0,0,0,0,0,0,0,2,
scooby_state_401d4f|43|1 2,0,0,0,0,0,0,0,0,0,0,0,0,0,0,2,
scooby_state_401d1f|38|-1 0,2,0,0,0,0,0,0,0,0,0,0,0,0,0,2,
scooby_state_401e74|50|1 0,2,0,0,0,0,0,0,0,0,0,0,0,0,0,2,
scooby_state_401e19|2|-2 0,2,0,0,0,0,0,0,0,0,0,0,0,0,0,2,
scooby_state_401e74|13|1 0,2,0,0,0,0,0,0,0,0,0,0,0,0,0,2,
scooby_state_401e40|54|-1 2,0,0,0,0,0,0,0,0,0,0,0,0,0,0,2,
scooby_state_401d4f|47|1 2,0,0,0,0,0,0,0,0,0,0,0,0,0,0,2,
scooby_state_401d4f|11|1 2,0,0,0,0,0,0,0,0,0,0,0,0,0,0,2,
scooby_state_401e4d|2|-1 2,0,0,0,0,0,0,0,0,0,0,0,0,0,0,2,
scooby_state_401d1f|46|-1 0,2,0,0,0,0,0,0,0,0,0,0,0,0,0,2,
scooby_state_401e81|5|1 0,2,0,0,0,0,0,0,0,0,0,0,0,0,0,2,
scooby_state_401e67|1|-3 0,2,0,0,0,0,0,0,0,0,0,0,0,0,0,2,
scooby_state_401d1f|29|-1 0,2,0,0,0,0,0,0,0,0,0,0,0,0,0,2,
scooby_state_401e81|20|1 0,1,0,0,0,0,0,0,0,0,0,0,1,0,0,2,
scooby_state_401e4d|50|-1 2,0,0,0,0,0,0,0,0,0,0,0,0,0,0,2,
scooby_state_401d4f|8|1 2,0,0,0,0,0,0,0,0,0,0,0,0,0,0,2,
scooby_state_401d4f|16|1 2,0,0,0,0,0,0,0,0,0,0,0,0,0,0,2,
scooby_state_401d60|30|1 0,2,0,0,0,0,0,0,0,0,0,0,0,0,0,2,
scooby_state_401e19|21|-2 0,2,0,0,0,0,0,0,0,0,0,0,0,0,0,2,
scooby_state_401e19|1|-2 0,2,0,0,0,0,0,0,0,0,0,0,0,0,0,2,
scooby_state_401d4f|32|1 2,0,0,0,0,0,0,0,0,0,0,0,0,0,0,2,
scooby_state_401e40|37|-1 2,0,0,0,0,0,0,0,0,0,0,0,0,0,0,2,
scooby_state_401e81|11|1 0,2,0,0,0,0,0,0,0,0,0,0,0,0,0,2,
scooby_state_401d1f|60|-1 0,2,0,0,0,0,0,0,0,0,0,0,0,0,0,2,
scooby_state_401d4f|61|1 2,0,0,0,0,0,0,0,0,0,0,0,0,0,0,2,
scooby_state_401e9b|1|-1 0,2,0,0,0,0,0,0,0,0,0,0,0,0,0,2,
scooby_state_401e4d|31|-1 2,0,0,0,0,0,0,0,0,0,0,0,0,0,0,2,
scooby_state_401e81|8|1 0,2,0,0,0,0,0,0,0,0,0,0,0,0,0,2,
scooby_state_401d4f|50|1 2,0,0,0,0,0,0,0,0,0,0,0,0,0,0,2,
scooby_state_401e81|62|1 0,1,0,0,0,0,0,0,0,0,0,0,0,0,0,1,
scooby_state_401e67|37|-1 0,1,0,0,0,0,0,0,0,0,0,0,0,0,0,1,
scooby_state_401d4f|39|1 1,0,0,0,0,0,0,0,0,0,0,0,0,0,0,1,
scooby_state_401d4f|31|1 1,0,0,0,0,0,0,0,0,0,0,0,0,0,0,1,
scooby_state_401e0f|52|-2 1,0,0,0,0,0,0,0,0,0,0,0,0,0,0,1,
scooby_state_401cb0|44|2 1,0,0,0,0,0,0,0,0,0,0,0,0,0,0,1,
scooby_state_401e67|43|-1 0,1,0,0,0,0,0,0,0,0,0,0,0,0,0,1,
scooby_state_401e0f|63|2 1,0,0,0,0,0,0,0,0,0,0,0,0,0,0,1,
scooby_state_402704|28|1 1,0,0,0,0,0,0,0,0,0,0,0,0,0,0,1,
scooby_state_402058|41|-1 1,0,0,0,0,0,0,0,0,0,0,0,0,0,0,1,
scooby_state_401d60|48|1 0,1,0,0,0,0,0,0,0,0,0,0,0,0,0,1,
scooby_state_401e0f|49|-2 1,0,0,0,0,0,0,0,0,0,0,0,0,0,0,1,
scooby_state_401e81|32|1 0,1,0,0,0,0,0,0,0,0,0,0,0,0,0,1,
scooby_state_401e02|15|2 1,0,0,0,0,0,0,0,0,0,0,0,0,0,0,1,
scooby_state_401e67|16|-1 0,1,0,0,0,0,0,0,0,0,0,0,0,0,0,1,
scooby_state_401e74|52|1 0,1,0,0,0,0,0,0,0,0,0,0,0,0,0,1,
scooby_state_401d4f|15|1 1,0,0,0,0,0,0,0,0,0,0,0,0,0,0,1,
scooby_state_401e74|44|1 0,1,0,0,0,0,0,0,0,0,0,0,0,0,0,1,
scooby_state_401e02|42|2 1,0,0,0,0,0,0,0,0,0,0,0,0,0,0,1,
scooby_state_401d87|1|-1 1,0,0,0,0,0,0,0,0,0,0,0,0,0,0,1,
scooby_state_401e40|30|-1 1,0,0,0,0,0,0,0,0,0,0,0,0,0,0,1,
scooby_state_401d60|49|1 0,1,0,0,0,0,0,0,0,0,0,0,0,0,0,1,
scooby_state_401e5a|54|-1 1,0,0,0,0,0,0,0,0,0,0,0,0,0,0,1,
scooby_state_401e19|50|-2 0,1,0,0,0,0,0,0,0,0,0,0,0,0,0,1,
scooby_state_401e4d|7|-1 1,0,0,0,0,0,0,0,0,0,0,0,0,0,0,1,
scooby_state_401e81|15|1 0,1,0,0,0,0,0,0,0,0,0,0,0,0,0,1,
scooby_state_401d03|52|1 1,0,0,0,0,0,0,0,0,0,0,0,0,0,0,1,
scooby_state_401e40|40|-1 1,0,0,0,0,0,0,0,0,0,0,0,0,0,0,1,
scooby_state_401d4f|36|1 1,0,0,0,0,0,0,0,0,0,0,0,0,0,0,1,
scooby_state_401d4f|48|1 1,0,0,0,0,0,0,0,0,0,0,0,0,0,0,1,
scooby_state_401e0f|50|-2 1,0,0,0,0,0,0,0,0,0,0,0,0,0,0,1,
scooby_state_4021f7|42|0 1,0,0,0,0,0,0,0,0,0,0,0,0,0,0,1,
scooby_state_402345|13|1 1,0,0,0,0,0,0,0,0,0,0,0,0,0,0,1,
scooby_state_402540|21|1 1,0,0,0,0,0,0,0,0,0,0,0,0,0,0,1,
scooby_state_402505|20|1 1,0,0,0,0,0,0,0,0,0,0,0,0,0,0,1,
scooby_state_402183|6|1 1,0,0,0,0,0,0,0,0,0,0,0,0,0,0,1,
scooby_state_401f00|60|6 1,0,0,0,0,0,0,0,0,0,0,0,0,0,0,1,
scooby_state_401e81|59|1 0,1,0,0,0,0,0,0,0,0,0,0,0,0,0,1,
scooby_state_401cb0|50|0 1,0,0,0,0,0,0,0,0,0,0,0,0,0,0,1,
scooby_state_401d2b|47|-1 1,0,0,0,0,0,0,0,0,0,0,0,0,0,0,1,
scooby_state_4022c0|11|1 1,0,0,0,0,0,0,0,0,0,0,0,0,0,0,1,
scooby_state_4021c2|7|1 1,0,0,0,0,0,0,0,0,0,0,0,0,0,0,1,
scooby_state_402441|17|1 1,0,0,0,0,0,0,0,0,0,0,0,0,0,0,1,
scooby_state_402285|10|1 1,0,0,0,0,0,0,0,0,0,0,0,0,0,0,1,
scooby_state_401d60|8|1 0,1,0,0,0,0,0,0,0,0,0,0,0,0,0,1,
scooby_state_4022b9|17|0 1,0,0,0,0,0,0,0,0,0,0,0,0,0,0,1,
scooby_state_4023c0|15|1 1,0,0,0,0,0,0,0,0,0,0,0,0,0,0,1,
scooby_state_4026c4|27|1 1,0,0,0,0,0,0,0,0,0,0,0,0,0,0,1,
scooby_state_402741|29|1 1,0,0,0,0,0,0,0,0,0,0,0,0,0,0,1,
scooby_state_402505|31|1 1,0,0,0,0,0,0,0,0,0,0,0,0,0,0,1,
scooby_state_4027c2|31|1 1,0,0,0,0,0,0,0,0,0,0,0,0,0,0,1,
scooby_state_4026be|32|1 1,0,0,0,0,0,0,0,0,0,0,0,0,0,0,1,
scooby_state_402780|30|1 1,0,0,0,0,0,0,0,0,0,0,0,0,0,0,1,
scooby_state_401d2b|5|-1 1,0,0,0,0,0,0,0,0,0,0,0,0,0,0,1,
scooby_state_402642|25|1 1,0,0,0,0,0,0,0,0,0,0,0,0,0,0,1,
scooby_state_401cb0|17|2 1,0,0,0,0,0,0,0,0,0,0,0,0,0,0,1,
scooby_state_401df0|55|5 1,0,0,0,0,0,0,0,0,0,0,0,0,0,0,1,
scooby_state_40209e|2|0 1,0,0,0,0,0,0,0,0,0,0,0,0,0,0,1,
scooby_state_401d4f|51|1 1,0,0,0,0,0,0,0,0,0,0,0,0,0,0,1,
scooby_state_401e40|31|-1 1,0,0,0,0,0,0,0,0,0,0,0,0,0,0,1,
scooby_state_401e40|38|-1 1,0,0,0,0,0,0,0,0,0,0,0,0,0,0,1,
scooby_state_401d4f|3|1 1,0,0,0,0,0,0,0,0,0,0,0,0,0,0,1,
scooby_state_402044|1|1 1,0,0,0,0,0,0,0,0,0,0,0,0,0,0,1,
scooby_state_402000|0|-31 1,0,0,0,0,0,0,0,0,0,0,0,0,0,0,1,
scooby_state_401f44|61|1 1,0,0,0,0,0,0,0,0,0,0,0,0,0,0,1,
scooby_state_401d82|54|1 1,0,0,0,0,0,0,0,0,0,0,0,0,0,0,1,
scooby_state_4024c4|19|1 1,0,0,0,0,0,0,0,0,0,0,0,0,0,0,1,
scooby_state_401e40|57|1 1,0,0,0,0,0,0,0,0,0,0,0,0,0,0,1,
scooby_state_401fc1|63|1 1,0,0,0,0,0,0,0,0,0,0,0,0,0,0,1,
scooby_state_402304|12|1 1,0,0,0,0,0,0,0,0,0,0,0,0,0,0,1,
scooby_state_401d1f|2|-1 0,1,0,0,0,0,0,0,0,0,0,0,0,0,0,1,
scooby_state_401e40|26|-1 1,0,0,0,0,0,0,0,0,0,0,0,0,0,0,1,
scooby_state_402585|22|1 1,0,0,0,0,0,0,0,0,0,0,0,0,0,0,1,
scooby_state_402142|5|1 1,0,0,0,0,0,0,0,0,0,0,0,0,0,0,1,
scooby_state_40240b|30|0 1,0,0,0,0,0,0,0,0,0,0,0,0,0,0,1,
scooby_state_401f82|62|1 1,0,0,0,0,0,0,0,0,0,0,0,0,0,0,1,
scooby_state_401d4f|60|1 1,0,0,0,0,0,0,0,0,0,0,0,0,0,0,1,
scooby_state_402100|4|1 1,0,0,0,0,0,0,0,0,0,0,0,0,0,0,1,
scooby_state_402382|14|1 1,0,0,0,0,0,0,0,0,0,0,0,0,0,0,1,
scooby_state_402485|18|1 1,0,0,0,0,0,0,0,0,0,0,0,0,0,0,1,
scooby_state_401ec5|59|1 1,0,0,0,0,0,0,0,0,0,0,0,0,0,0,1,
scooby_state_401d2b|49|-1 1,0,0,0,0,0,0,0,0,0,0,0,0,0,0,1,
scooby_state_401d2b|27|-1 1,0,0,0,0,0,0,0,0,0,0,0,0,0,0,1,
scooby_state_401d1f|28|-1 0,1,0,0,0,0,0,0,0,0,0,0,0,0,0,1,
scooby_state_401d1f|33|-1 0,1,0,0,0,0,0,0,0,0,0,0,0,0,0,1,
scooby_state_401d2b|58|-1 1,0,0,0,0,0,0,0,0,0,0,0,0,0,0,1,
scooby_state_401d1f|35|-1 0,1,0,0,0,0,0,0,0,0,0,0,0,0,0,1,
scooby_state_401e0f|57|-2 1,0,0,0,0,0,0,0,0,0,0,0,0,0,0,1,
scooby_state_401d1f|22|-1 0,1,0,0,0,0,0,0,0,0,0,0,0,0,0,1,
scooby_state_401e0f|39|-2 1,0,0,0,0,0,0,0,0,0,0,0,0,0,0,1,
scooby_state_401e81|49|1 0,1,0,0,0,0,0,0,0,0,0,0,0,0,0,1,
scooby_state_401e40|32|-1 1,0,0,0,0,0,0,0,0,0,0,0,0,0,0,1,
scooby_state_4025c2|23|1 1,0,0,0,0,0,0,0,0,0,0,0,0,0,0,1,
scooby_state_402680|26|1 1,0,0,0,0,0,0,0,0,0,0,0,0,0,0,1,
scooby_state_401e8e|54|1 1,0,0,0,0,0,0,0,0,0,0,0,0,0,0,1,
scooby_state_401e81|30|1 0,1,0,0,0,0,0,0,0,0,0,0,0,0,0,1,
scooby_state_401d4f|7|1 1,0,0,0,0,0,0,0,0,0,0,0,0,0,0,1,
scooby_state_401e74|31|1 0,1,0,0,0,0,0,0,0,0,0,0,0,0,0,1,
scooby_state_401e81|45|1 0,1,0,0,0,0,0,0,0,0,0,0,0,0,0,1,
scooby_state_401d4f|46|1 1,0,0,0,0,0,0,0,0,0,0,0,0,0,0,1,
scooby_state_401e4d|16|-1 1,0,0,0,0,0,0,0,0,0,0,0,0,0,0,1,
scooby_state_401d4f|59|1 1,0,0,0,0,0,0,0,0,0,0,0,0,0,0,1,
scooby_state_401e02|36|2 1,0,0,0,0,0,0,0,0,0,0,0,0,0,0,1,
scooby_state_4022d5|21|4 1,0,0,0,0,0,0,0,0,0,0,0,0,0,0,1,
scooby_state_401e0f|26|-2 1,0,0,0,0,0,0,0,0,0,0,0,0,0,0,1,
scooby_state_4020c2|3|1 1,0,0,0,0,0,0,0,0,0,0,0,0,0,0,1,
scooby_state_401d4f|49|1 1,0,0,0,0,0,0,0,0,0,0,0,0,0,0,1,
scooby_state_401e81|55|1 0,1,0,0,0,0,0,0,0,0,0,0,0,0,0,1,
scooby_state_402203|8|1 1,0,0,0,0,0,0,0,0,0,0,0,0,0,0,1,
scooby_state_401cc5|51|-8 1,0,0,0,0,0,0,0,0,0,0,0,0,0,0,1,
scooby_state_401d2b|48|-1 1,0,0,0,0,0,0,0,0,0,0,0,0,0,0,1,
scooby_state_401e02|56|1 1,0,0,0,0,0,0,0,0,0,0,0,0,0,0,1,
scooby_state_402241|9|1 1,0,0,0,0,0,0,0,0,0,0,0,0,0,0,1,
scooby_state_401e40|42|-1 1,0,0,0,0,0,0,0,0,0,0,0,0,0,0,1,
scooby_state_401e81|33|1 0,1,0,0,0,0,0,0,0,0,0,0,0,0,0,1,
scooby_state_402402|16|1 1,0,0,0,0,0,0,0,0,0,0,0,0,0,0,1,
scooby_state_401e8e|47|1 1,0,0,0,0,0,0,0,0,0,0,0,0,0,0,1,
scooby_state_401cb0|38|2 1,0,0,0,0,0,0,0,0,0,0,0,0,0,0,1,
scooby_state_401d4f|23|1 1,0,0,0,0,0,0,0,0,0,0,0,0,0,0,1,
scooby_state_401e4d|27|-1 1,0,0,0,0,0,0,0,0,0,0,0,0,0,0,1,
scooby_state_401e0f|34|-2 1,0,0,0,0,0,0,0,0,0,0,0,0,0,0,1,
scooby_state_401e67|27|-1 0,1,0,0,0,0,0,0,0,0,0,0,0,0,0,1,
scooby_state_401e0f|55|-2 1,0,0,0,0,0,0,0,0,0,0,0,0,0,0,1,
scooby_state_401e0f|54|-2 1,0,0,0,0,0,0,0,0,0,0,0,0,0,0,1,
scooby_state_401d2b|4|-1 1,0,0,0,0,0,0,0,0,0,0,0,0,0,0,1,
scooby_state_401e40|34|-1 1,0,0,0,0,0,0,0,0,0,0,0,0,0,0,1,
scooby_state_401d2b|33|-1 1,0,0,0,0,0,0,0,0,0,0,0,0,0,0,1,
scooby_state_401d2b|42|-1 1,0,0,0,0,0,0,0,0,0,0,0,0,0,0,1,
scooby_state_402600|24|1 1,0,0,0,0,0,0,0,0,0,0,0,0,0,0,1,

scooby_action_0_deg_dist 0,76,0,0,0,0,0,0,0,0,0,0,0,0,0,0,
scooby_action_4_deg_dist 0,73,0,0,0,0,0,0,0,0,0,0,0,0,0,0,
scooby_action_3_deg_dist 0,36603,24573,0,60018,0,182312,0,0,0,0,0,0,0,0,0,
scooby_action_32_deg_dist 0,63,0,0,0,0,0,0,0,0,0,0,0,0,0,0,
scooby_action_5_deg_dist 0,77,0,0,0,0,0,0,0,0,0,0,0,0,0,0,
scooby_action_1_deg_dist 0,31668,24318,0,63052,0,196882,0,0,0,0,0,0,0,0,0,
scooby_action_30_deg_dist 0,89,0,0,0,0,0,0,0,0,0,0,0,0,0,0,
scooby_action_-3_deg_dist 0,73,0,0,0,0,0,0,0,0,0,0,0,0,0,0,
scooby_action_10_deg_dist 0,85,0,0,0,0,0,0,0,0,0,0,0,0,0,0,
scooby_action_-1_deg_dist 0,82,0,0,0,0,0,0,0,0,0,0,0,0,0,0,
scooby_action_23_deg_dist 0,74,0,0,0,0,0,0,0,0,0,0,0,0,0,0,
scooby_action_-6_deg_dist 0,66,0,0,0,0,0,0,0,0,0,0,0,0,0,0,
scooby_action_11_deg_dist 0,70,0,0,0,0,0,0,0,0,0,0,0,0,0,0,
scooby_action_22_deg_dist 0,82,0,0,0,0,0,0,0,0,0,0,0,0,0,0,
scooby_action_12_deg_dist 0,76,0,0,0,0,0,0,0,0,0,0,0,0,0,0,

scooby_track_called 620412
scooby_track_same_address 118416
scooby_track_evict 501740

scooby_reward_demand_called 620412
scooby_reward_demand_pt_not_found 138521
scooby_reward_demand_pt_found 481891
scooby_reward_demand_pt_found_total 481891
scooby_reward_demand_has_reward 16
scooby_reward_train_called 933
scooby_reward_assign_reward_called 501994
scooby_reward_no_pref 76
scooby_reward_incorrect 857
scooby_reward_correct_untimely 379669
scooby_reward_correct_timely 102206
scooby_reward_out_of_bounds 19186
scooby_reward_tracker_hit 0

scooby_reward_none_low_bw 76
scooby_reward_none_high_bw 0
scooby_reward_incorrect_low_bw 857
scooby_reward_incorrect_high_bw 0
scooby_reward_correct_untimely_low_bw 379669
scooby_reward_correct_untimely_high_bw 0
scooby_reward_correct_timely_low_bw 102206
scooby_reward_correct_timely_high_bw 0
scooby_reward_out_of_bounds_low_bw 19186
scooby_reward_out_of_bounds_high_bw 0
scooby_reward_tracker_hit_low_bw 0
scooby_reward_tracker_hit_high_bw 0

scooby_reward_1 0,520,196846,49633,5031,0,
scooby_reward_3 0,286,182695,52175,13985,0,
scooby_reward_4 0,1,49,17,6,0,
scooby_reward_5 0,1,39,29,8,0,
scooby_reward_10 0,0,18,53,14,0,
scooby_reward_11 0,1,11,55,3,0,
scooby_reward_12 0,0,10,58,8,0,
scooby_reward_22 0,0,0,55,27,0,
scooby_reward_23 0,0,0,46,28,0,
scooby_reward_30 0,0,0,53,36,0,
scooby_reward_32 0,0,0,32,31,0,
scooby_reward_-1 0,18,1,0,1,0,
scooby_reward_-3 0,21,0,0,1,0,
scooby_reward_-6 0,9,0,0,7,0,
scooby_reward_0 76,0,0,0,0,0,

scooby_train_called 501739
scooby_train_compute_reward 933

scooby_register_fill_called 498668
scooby_register_fill_set 102463
scooby_register_fill_set_total 102463

scooby_register_prefetch_hit_called 856984
scooby_register_prefetch_hit_set 318661
scooby_register_prefetch_hit_set_total 318661

scooby_pref_issue_scooby 2006508

learning_engine_featurewise.action.called 620412
learning_engine_featurewise.action.explore 1131
learning_engine_featurewise.action.exploit 619281
learning_engine_featurewise.action.fallback 0
learning_engine_featurewise.action.dyn_fallback_saved_bw 0
learning_engine_featurewise.action.dyn_fallback_saved_bw_acc 12210
learning_engine_featurewise.action.index_1_explored 69
learning_engine_featurewise.action.index_1_exploited 315851
learning_engine_featurewise.action.index_3_explored 78
learning_engine_featurewise.action.index_3_exploited 303428
learning_engine_featurewise.action.index_4_explored 72
learning_engine_featurewise.action.index_4_exploited 1
learning_engine_featurewise.action.index_5_explored 76
learning_engine_featurewise.action.index_5_exploited 1
learning_engine_featurewise.action.index_10_explored 85
learning_engine_featurewise.action.index_10_exploited 0
learning_engine_featurewise.action.index_11_explored 70
learning_engine_featurewise.action.index_11_exploited 0
learning_engine_featurewise.action.index_12_explored 76
learning_engine_featurewise.action.index_12_exploited 0
learning_engine_featurewise.action.index_22_explored 82
learning_engine_featurewise.action.index_22_exploited 0
learning_engine_featurewise.action.index_23_explored 74
learning_engine_featurewise.action.index_23_exploited 0
learning_engine_featurewise.action.index_30_explored 89
learning_engine_featurewise.action.index_30_exploited 0
learning_engine_featurewise.action.index_32_explored 63
learning_engine_featurewise.action.index_32_exploited 0
learning_engine_featurewise.action.index_-1_explored 82
learning_engine_featurewise.action.index_-1_exploited 0
learning_engine_featurewise.action.index_-3_explored 73
learning_engine_featurewise.action.index_-3_exploited 0
learning_engine_featurewise.action.index_-6_explored 66
learning_engine_featurewise.action.index_-6_exploited 0
learning_engine_featurewise.action.index_0_explored 76
learning_engine_featurewise.action.index_0_exploited 0
learning_engine_featurewise.learn.called 501739
learning_engine_featurewise.learn.su_skip_PC 0
learning_engine_featurewise.learn.su_skip_PC_Delta 0

learning_engine_featurewise.q_value_histogram.bucket_0 0
learning_engine_featurewise.q_value_histogram.bucket_1 0
learning_engine_featurewise.q_value_histogram.bucket_2 0
learning_engine_featurewise.q_value_histogram.bucket_3 0
learning_engine_featurewise.q_value_histogram.bucket_4 1863
learning_engine_featurewise.q_value_histogram.bucket_5 3337
learning_engine_featurewise.q_value_histogram.bucket_6 614081
learning_engine_featurewise.q_value_histogram.bucket_7 0

learning_engine_featurewise.consensus.total 619281
learning_engine_featurewise.consensus.feature_align_PC 611670
learning_engine_featurewise.consensus.feature_align_PC_ratio 0.99
learning_engine_featurewise.consensus.feature_align_PC_Delta 618274
learning_engine_featurewise.consensus.feature_align_PC_Delta_ratio 1.00
learning_engine_featurewise.consensus.feature_align_all 610663
learning_engine_featurewise.consensus.feature_align_all_ratio 0.99

learning_engine_featurewise.feature_PC_min_weight 1000000.00000000
learning_engine_featurewise.feature_PC_max_weight 0.00000000
learning_engine_featurewise.feature_PC_Delta_min_weight 1000000.00000000
learning_engine_featurewise.feature_PC_Delta_max_weight 0.00000000
unique_pcs 79
unique_pages 9688
unique_trigger_pcs 9
total_bitmaps_seen 0
unique_bitmaps_seen 0

scooby_bw_epochs 469360
scooby_bw_level_0 93075
scooby_bw_level_1 207139
scooby_bw_level_2 129383
scooby_bw_level_3 39763

scooby_ipc_epochs 0
scooby_ipc_level_0 0
scooby_ipc_level_1 0
scooby_ipc_level_2 0
scooby_ipc_level_3 0

scooby_cache_acc_epochs 114270
scooby_cache_acc_level_0 430
scooby_cache_acc_level_1 1403
scooby_cache_acc_level_2 2347
scooby_cache_acc_level_3 3498
scooby_cache_acc_level_4 4584
scooby_cache_acc_level_5 6572
scooby_cache_acc_level_6 8960
scooby_cache_acc_level_7 10875
scooby_cache_acc_level_8 11826
scooby_cache_acc_level_9 63775

Channel_0_RQ_row_buffer_hit 225165
Channel_0_RQ_row_buffer_miss 1807961
Channel_0_WQ_row_buffer_hit 155095
Channel_0_WQ_row_buffer_miss 1368894
Channel_0_WQ_full 0
Channel_0_dbus_congested 2406514

avg_congested_cycle 11

DRAM_bw_pochs 469360
DRAM_bw_level_0 93075
DRAM_bw_level_1 207139
DRAM_bw_level_2 129383
DRAM_bw_level_3 39763
