*************************************************
   ChampSim Multicore Out-of-Order Simulator
   Last compiled: Apr  3 2025 20:54:34
*************************************************
parsing config file: /home/zir/Pythia/config/pythia.ini

trace_0 /home/zir/ChampSim/ML-DPC/ChampSimTraces/spec17/619.lbm-s1.trace.xz
adding L2C_PREFETCHER: Scooby
Initialize SHIP state
warmup_instructions 10000000
simulation_instructions 50000000
champsim_seed 164
measure_ipc 0
measure_ipc_epoch 1000
measure_dram_bw 1
measure_dram_bw_epoch 256
measure_cache_acc 1
measure_cache_acc_epoch 1024
l1d_perfect 0
l2c_perfect 0
llc_perfect 0
l1d_semi_perfect 0
l2c_semi_perfect 0
llc_semi_perfect 0
semi_perfect_cache_page_buffer_size 64

num_cpus 1
cpu_freq 4000
dram_io_freq 2400
page_size 4096
block_size 64
max_read_per_cycle 8
max_fill_per_cycle 1
dram_channels 1
log2_dram_channels 0
dram_ranks 1
dram_banks 8
dram_rows 65536
dram_columns 128
dram_row_size 8
dram_size 4096
dram_pages 1048576

fetch_width 6
decode_width 6
exec_width 4
lq_width 2
sq_width 2
retire_width 4
scheduler_size 128
branch_mispredict_penalty 20
rob_size 256
lq_size 72
sq_size 56
num_instr_destinations_sparc 4
num_instr_destinations 2
num_instr_sources 4

itlb_set 16
itlb_way 8
itlb_rq_size 16
itlb_wq_size 16
itlb_pq_size 0
itlb_mshr_size 8
itlb_latency 1

dtlb_set 16
dtlb_way 4
dtlb_rq_size 16
dtlb_wq_size 16
dtlb_pq_size 0
dtlb_mshr_size 8
dtlb_latency 1

stlb_set 128
stlb_way 12
stlb_rq_size 32
stlb_wq_size 32
stlb_pq_size 0
stlb_mshr_size 16
stlb_latency 8

l1i_size 32
l1i_set 64
l1i_way 8
l1i_rq_size 64
l1i_wq_size 64
l1i_pq_size 8
l1i_mshr_size 8
l1i_latency 1

l1d_size 32
l1d_set 64
l1d_way 8
l1d_rq_size 64
l1d_wq_size 64
l1d_pq_size 8
l1d_mshr_size 16
l1d_latency 4

l2c_size 256
l2c_set 512
l2c_way 8
l2c_rq_size 32
l2c_wq_size 32
l2c_pq_size 32
l2c_mshr_size 32
l2c_latency 10

llc_size 2048
llc_set 2048
llc_way 16
llc_rq_size 32
llc_wq_size 32
llc_pq_size 32
llc_mshr_size 64
llc_latency 20

dram_channel_width 8
dram_wq_size 64
dram_rq_size 64
tRP 15
tRCD 15
tCAS 12.5
dram_dbus_turn_around_time 30
dram_write_high_wm 56
dram_write_low_wm 48
min_dram_writes_per_switch 16
dram_mtps 2400
dram_dbus_return_time 13

scooby_alpha 0.0065088
scooby_gamma 0.556301
scooby_epsilon 0.00182284
scooby_state_num_bits 10
scooby_max_states 1024
scooby_seed 200
scooby_policy EGreedy
scooby_learning_type SARSA
scooby_actions 1,3,4,5,10,11,12,22,23,30,32,-1,-3,-6,0,
scooby_max_actions 15
scooby_pt_size 256
scooby_st_size 64
scooby_max_pcs 5
scooby_max_offsets 5
scooby_max_deltas 5
scooby_reward_none -4
scooby_reward_incorrect -8
scooby_reward_correct_untimely 12
scooby_reward_correct_timely 20
scooby_brain_zero_init 0
scooby_enable_reward_all 0
scooby_enable_track_multiple 0
scooby_enable_reward_out_of_bounds 1
scooby_reward_out_of_bounds -12
scooby_state_type 1
scooby_state_hash_type 11
scooby_access_debug 0
scooby_print_access_debug 0
scooby_print_access_debug_pc deadbeef
scooby_print_access_debug_pc_count 0
scooby_print_trace 0
scooby_enable_state_action_stats 1
scooby_enable_reward_tracker_hit 0
scooby_reward_tracker_hit -2
scooby_enable_featurewise_engine 1
scooby_pref_degree 1
scooby_enable_dyn_degree 1
scooby_max_to_avg_q_thresholds 0.5,1,2,
scooby_dyn_degrees 1,2,4,4,
scooby_multi_deg_select_type 2
scooby_last_pref_offset_conf_thresholds 1,3,8,
scooby_dyn_degrees_type2 1,2,4,6,
scooby_action_tracker_size 2
scooby_high_bw_thresh 4
scooby_enable_hbw_reward 1
scooby_reward_hbw_correct_timely 20
scooby_reward_hbw_correct_untimely 12
scooby_reward_hbw_incorrect -14
scooby_reward_hbw_none -2
scooby_reward_hbw_out_of_bounds -12
scooby_reward_hbw_tracker_hit -2
scooby_last_pref_offset_conf_thresholds_hbw 1,3,8,
scooby_dyn_degrees_type2_hbw 1,2,4,6,

le_enable_trace 0
le_trace_interval 0
le_trace_file_name 
le_trace_state 0
le_enable_score_plot 0
le_plot_file_name 
le_plot_actions 
le_enable_action_trace 0
le_action_trace_interval 0
le_action_trace_name 
le_enable_action_plot 0

le_featurewise_active_features PC, PC_Delta
le_featurewise_num_tilings 3,3,
le_featurewise_num_tiles 128,128,
le_featurewise_hash_types 2,2,
le_featurewise_enable_tiling_offset 1,1,
le_featurewise_max_q_thresh 0.5
le_featurewise_enable_action_fallback 1
le_featurewise_feature_weights 1,1,
le_featurewise_enable_dynamic_weight 0
le_featurewise_weight_gradient 0.001
le_featurewise_disable_adjust_weight_all_features_align 1
le_featurewise_selective_update 0
le_featurewise_pooling_type 2
le_featurewise_enable_dyn_action_fallback 1
le_featurewise_bw_acc_check_level 1
le_featurewise_acc_thresh 2
le_featurewise_enable_trace 0
le_featurewise_trace_feature_type 0
le_featurewise_trace_feature 
le_featurewise_trace_interval 0
le_featurewise_trace_record_count 0
le_featurewise_trace_file_name 
le_featurewise_enable_score_plot 0
le_featurewise_plot_actions 
le_featurewise_plot_file_name 


Heartbeat CPU  0 instructions:    1000002 cycles:     425217 heartbeat IPC: 2.35175 cumulative IPC: 2.35175 (Simulation time: 0 hr 0 min 2 sec) 
Heartbeat CPU  0 instructions:    2000002 cycles:     850505 heartbeat IPC: 2.35135 cumulative IPC: 2.35155 (Simulation time: 0 hr 0 min 4 sec) 
Heartbeat CPU  0 instructions:    3000001 cycles:    1265361 heartbeat IPC: 2.41047 cumulative IPC: 2.37087 (Simulation time: 0 hr 0 min 6 sec) 
Heartbeat CPU  0 instructions:    4000000 cycles:    1683097 heartbeat IPC: 2.39385 cumulative IPC: 2.37657 (Simulation time: 0 hr 0 min 8 sec) 
Heartbeat CPU  0 instructions:    5000001 cycles:    2115558 heartbeat IPC: 2.31235 cumulative IPC: 2.36344 (Simulation time: 0 hr 0 min 10 sec) 
Heartbeat CPU  0 instructions:    6000000 cycles:    2540965 heartbeat IPC: 2.35069 cumulative IPC: 2.36131 (Simulation time: 0 hr 0 min 12 sec) 
Heartbeat CPU  0 instructions:    7000000 cycles:    2970869 heartbeat IPC: 2.32610 cumulative IPC: 2.35621 (Simulation time: 0 hr 0 min 14 sec) 
Heartbeat CPU  0 instructions:    8000000 cycles:    3399715 heartbeat IPC: 2.33184 cumulative IPC: 2.35314 (Simulation time: 0 hr 0 min 15 sec) 
Heartbeat CPU  0 instructions:    9000000 cycles:    3825637 heartbeat IPC: 2.34785 cumulative IPC: 2.35255 (Simulation time: 0 hr 0 min 17 sec) 
Heartbeat CPU  0 instructions:   10000000 cycles:    4251165 heartbeat IPC: 2.35002 cumulative IPC: 2.35230 (Simulation time: 0 hr 0 min 19 sec) 

Warmup complete CPU  0 instructions:   10000001 cycles:    4251166 (Simulation time: 0 hr 0 min 19 sec) 

Heartbeat CPU  0 instructions:   11000000 cycles:    6876687 heartbeat IPC: 0.38088 cumulative IPC: 0.38088 (Simulation time: 0 hr 0 min 23 sec) 
Heartbeat CPU  0 instructions:   12000000 cycles:    8776026 heartbeat IPC: 0.52650 cumulative IPC: 0.44200 (Simulation time: 0 hr 0 min 25 sec) 
Heartbeat CPU  0 instructions:   13000003 cycles:   11786092 heartbeat IPC: 0.33222 cumulative IPC: 0.39815 (Simulation time: 0 hr 0 min 29 sec) 
Heartbeat CPU  0 instructions:   14000001 cycles:   14518026 heartbeat IPC: 0.36604 cumulative IPC: 0.38960 (Simulation time: 0 hr 0 min 32 sec) 
Heartbeat CPU  0 instructions:   15000000 cycles:   17039093 heartbeat IPC: 0.39666 cumulative IPC: 0.39099 (Simulation time: 0 hr 0 min 36 sec) 
Heartbeat CPU  0 instructions:   16000000 cycles:   20146069 heartbeat IPC: 0.32186 cumulative IPC: 0.37748 (Simulation time: 0 hr 0 min 39 sec) 
Heartbeat CPU  0 instructions:   17000003 cycles:   22706593 heartbeat IPC: 0.39055 cumulative IPC: 0.37929 (Simulation time: 0 hr 0 min 43 sec) 
Heartbeat CPU  0 instructions:   18000002 cycles:   25655102 heartbeat IPC: 0.33915 cumulative IPC: 0.37376 (Simulation time: 0 hr 0 min 46 sec) 
Heartbeat CPU  0 instructions:   19000001 cycles:   28553928 heartbeat IPC: 0.34497 cumulative IPC: 0.37033 (Simulation time: 0 hr 0 min 49 sec) 
Heartbeat CPU  0 instructions:   20000000 cycles:   30677526 heartbeat IPC: 0.47090 cumulative IPC: 0.37841 (Simulation time: 0 hr 0 min 52 sec) 
Heartbeat CPU  0 instructions:   21000001 cycles:   33176992 heartbeat IPC: 0.40009 cumulative IPC: 0.38028 (Simulation time: 0 hr 0 min 56 sec) 
Heartbeat CPU  0 instructions:   22000000 cycles:   36078813 heartbeat IPC: 0.34461 cumulative IPC: 0.37703 (Simulation time: 0 hr 0 min 59 sec) 
Heartbeat CPU  0 instructions:   23000002 cycles:   38724942 heartbeat IPC: 0.37791 cumulative IPC: 0.37710 (Simulation time: 0 hr 1 min 3 sec) 
Heartbeat CPU  0 instructions:   24000000 cycles:   41642612 heartbeat IPC: 0.34274 cumulative IPC: 0.37442 (Simulation time: 0 hr 1 min 6 sec) 
Heartbeat CPU  0 instructions:   25000000 cycles:   44523564 heartbeat IPC: 0.34711 cumulative IPC: 0.37246 (Simulation time: 0 hr 1 min 10 sec) 
Heartbeat CPU  0 instructions:   26000002 cycles:   47363659 heartbeat IPC: 0.35210 cumulative IPC: 0.37112 (Simulation time: 0 hr 1 min 13 sec) 
Heartbeat CPU  0 instructions:   27000000 cycles:   50344655 heartbeat IPC: 0.33546 cumulative IPC: 0.36882 (Simulation time: 0 hr 1 min 17 sec) 
Heartbeat CPU  0 instructions:   28000000 cycles:   52888906 heartbeat IPC: 0.39304 cumulative IPC: 0.37008 (Simulation time: 0 hr 1 min 20 sec) 
Heartbeat CPU  0 instructions:   29000003 cycles:   54952520 heartbeat IPC: 0.48459 cumulative IPC: 0.37474 (Simulation time: 0 hr 1 min 23 sec) 
Heartbeat CPU  0 instructions:   30000000 cycles:   57868781 heartbeat IPC: 0.34290 cumulative IPC: 0.37301 (Simulation time: 0 hr 1 min 26 sec) 
Heartbeat CPU  0 instructions:   31000003 cycles:   60475574 heartbeat IPC: 0.38361 cumulative IPC: 0.37350 (Simulation time: 0 hr 1 min 30 sec) 
Heartbeat CPU  0 instructions:   32000000 cycles:   62884683 heartbeat IPC: 0.41509 cumulative IPC: 0.37521 (Simulation time: 0 hr 1 min 33 sec) 
Heartbeat CPU  0 instructions:   33000000 cycles:   65983786 heartbeat IPC: 0.32267 cumulative IPC: 0.37257 (Simulation time: 0 hr 1 min 37 sec) 
Heartbeat CPU  0 instructions:   34000003 cycles:   68590779 heartbeat IPC: 0.38358 cumulative IPC: 0.37302 (Simulation time: 0 hr 1 min 40 sec) 
Heartbeat CPU  0 instructions:   35000001 cycles:   71549556 heartbeat IPC: 0.33798 cumulative IPC: 0.37148 (Simulation time: 0 hr 1 min 43 sec) 
Heartbeat CPU  0 instructions:   36000000 cycles:   74334559 heartbeat IPC: 0.35907 cumulative IPC: 0.37099 (Simulation time: 0 hr 1 min 47 sec) 
Heartbeat CPU  0 instructions:   37000001 cycles:   76536528 heartbeat IPC: 0.45414 cumulative IPC: 0.37352 (Simulation time: 0 hr 1 min 50 sec) 
Heartbeat CPU  0 instructions:   38000003 cycles:   79318980 heartbeat IPC: 0.35940 cumulative IPC: 0.37300 (Simulation time: 0 hr 1 min 53 sec) 
Heartbeat CPU  0 instructions:   39000002 cycles:   82042757 heartbeat IPC: 0.36714 cumulative IPC: 0.37279 (Simulation time: 0 hr 1 min 57 sec) 
Heartbeat CPU  0 instructions:   40000000 cycles:   84480980 heartbeat IPC: 0.41013 cumulative IPC: 0.37393 (Simulation time: 0 hr 2 min 0 sec) 
Heartbeat CPU  0 instructions:   41000002 cycles:   87346217 heartbeat IPC: 0.34901 cumulative IPC: 0.37307 (Simulation time: 0 hr 2 min 3 sec) 
Heartbeat CPU  0 instructions:   42000002 cycles:   89987111 heartbeat IPC: 0.37866 cumulative IPC: 0.37324 (Simulation time: 0 hr 2 min 7 sec) 
Heartbeat CPU  0 instructions:   43000000 cycles:   93110973 heartbeat IPC: 0.32012 cumulative IPC: 0.37137 (Simulation time: 0 hr 2 min 10 sec) 
Heartbeat CPU  0 instructions:   44000000 cycles:   95851958 heartbeat IPC: 0.36483 cumulative IPC: 0.37118 (Simulation time: 0 hr 2 min 14 sec) 
Heartbeat CPU  0 instructions:   45000003 cycles:   98418955 heartbeat IPC: 0.38956 cumulative IPC: 0.37168 (Simulation time: 0 hr 2 min 17 sec) 
Heartbeat CPU  0 instructions:   46000000 cycles:  100858362 heartbeat IPC: 0.40993 cumulative IPC: 0.37264 (Simulation time: 0 hr 2 min 20 sec) 
Heartbeat CPU  0 instructions:   47000001 cycles:  103736728 heartbeat IPC: 0.34742 cumulative IPC: 0.37191 (Simulation time: 0 hr 2 min 24 sec) 
Heartbeat CPU  0 instructions:   48000000 cycles:  106310904 heartbeat IPC: 0.38847 cumulative IPC: 0.37233 (Simulation time: 0 hr 2 min 27 sec) 
Heartbeat CPU  0 instructions:   49000003 cycles:  108894301 heartbeat IPC: 0.38709 cumulative IPC: 0.37270 (Simulation time: 0 hr 2 min 30 sec) 
Heartbeat CPU  0 instructions:   50000001 cycles:  111678510 heartbeat IPC: 0.35917 cumulative IPC: 0.37234 (Simulation time: 0 hr 2 min 34 sec) 
Heartbeat CPU  0 instructions:   51000000 cycles:  114357692 heartbeat IPC: 0.37325 cumulative IPC: 0.37237 (Simulation time: 0 hr 2 min 37 sec) 
Heartbeat CPU  0 instructions:   52000000 cycles:  117270362 heartbeat IPC: 0.34333 cumulative IPC: 0.37162 (Simulation time: 0 hr 2 min 40 sec) 
Heartbeat CPU  0 instructions:   53000001 cycles:  119863931 heartbeat IPC: 0.38557 cumulative IPC: 0.37193 (Simulation time: 0 hr 2 min 44 sec) 
Heartbeat CPU  0 instructions:   54000002 cycles:  122013312 heartbeat IPC: 0.46525 cumulative IPC: 0.37363 (Simulation time: 0 hr 2 min 47 sec) 
Heartbeat CPU  0 instructions:   55000000 cycles:  125215083 heartbeat IPC: 0.31233 cumulative IPC: 0.37201 (Simulation time: 0 hr 2 min 50 sec) 
Heartbeat CPU  0 instructions:   56000000 cycles:  128036458 heartbeat IPC: 0.35444 cumulative IPC: 0.37161 (Simulation time: 0 hr 2 min 54 sec) 
Heartbeat CPU  0 instructions:   57000000 cycles:  130687825 heartbeat IPC: 0.37716 cumulative IPC: 0.37173 (Simulation time: 0 hr 2 min 57 sec) 
Heartbeat CPU  0 instructions:   58000002 cycles:  133293834 heartbeat IPC: 0.38373 cumulative IPC: 0.37197 (Simulation time: 0 hr 3 min 0 sec) 
Heartbeat CPU  0 instructions:   59000001 cycles:  135885961 heartbeat IPC: 0.38578 cumulative IPC: 0.37224 (Simulation time: 0 hr 3 min 4 sec) 
Heartbeat CPU  0 instructions:   60000000 cycles:  138809988 heartbeat IPC: 0.34199 cumulative IPC: 0.37158 (Simulation time: 0 hr 3 min 9 sec) 
Finished CPU 0 instructions: 50000000 cycles: 134558830 cumulative IPC: 0.37158 (Simulation time: 0 hr 3 min 9 sec) 

ChampSim completed all CPUs

[ROI Statistics]
Core_0_instructions 50000000
Core_0_cycles 134558830
Core_0_IPC 0.37158

Core_0_branch_prediction_accuracy 97.06075
Core_0_branch_MPKI 0.52484
Core_0_average_ROB_occupancy_at_mispredict 242.63158

Core_0_L1D_total_access 13802771
Core_0_L1D_total_hit 9904458
Core_0_L1D_total_miss 3898313
Core_0_L1D_loads 4840957
Core_0_L1D_load_hit 4249869
Core_0_L1D_load_miss 591088
Core_0_L1D_RFOs 8961814
Core_0_L1D_RFO_hit 5654589
Core_0_L1D_RFO_miss 3307225
Core_0_L1D_prefetches 0
Core_0_L1D_prefetch_hit 0
Core_0_L1D_prefetch_miss 0
Core_0_L1D_writebacks 0
Core_0_L1D_writeback_hit 0
Core_0_L1D_writeback_miss 0
Core_0_L1D_prefetch_requested 0
Core_0_L1D_prefetch_dropped 0
Core_0_L1D_prefetch_issued 0
Core_0_L1D_prefetch_filled 0
Core_0_L1D_prefetch_useful 0
Core_0_L1D_prefetch_useless 0
Core_0_L1D_prefetch_late 0
Core_0_L1D_average_miss_latency 489.13570

Core_0_L1D_rq_access 11838325
Core_0_L1D_rq_forward 0
Core_0_L1D_rq_merged 6492141
Core_0_L1D_rq_to_cache 4913276
Core_0_L1D_rq_full 0

Core_0_L1D_wq_access 9189247
Core_0_L1D_wq_forward 432908
Core_0_L1D_wq_merged 124478
Core_0_L1D_wq_to_cache 9064769
Core_0_L1D_wq_full 540474

Core_0_L1D_pq_access 0
Core_0_L1D_pq_forward 0
Core_0_L1D_pq_merged 0
Core_0_L1D_pq_to_cache 0
Core_0_L1D_pq_full 0

Core_0_L1D_acc_epochs 131989
Core_0_L1D_acc_level_0 131989
Core_0_L1D_acc_level_1 0
Core_0_L1D_acc_level_2 0
Core_0_L1D_acc_level_3 0
Core_0_L1D_acc_level_4 0
Core_0_L1D_acc_level_5 0
Core_0_L1D_acc_level_6 0
Core_0_L1D_acc_level_7 0
Core_0_L1D_acc_level_8 0
Core_0_L1D_acc_level_9 0

Core_0_L1I_total_access 11595543
Core_0_L1I_total_hit 11595543
Core_0_L1I_total_miss 0
Core_0_L1I_loads 11595543
Core_0_L1I_load_hit 11595543
Core_0_L1I_load_miss 0
Core_0_L1I_RFOs 0
Core_0_L1I_RFO_hit 0
Core_0_L1I_RFO_miss 0
Core_0_L1I_prefetches 0
Core_0_L1I_prefetch_hit 0
Core_0_L1I_prefetch_miss 0
Core_0_L1I_writebacks 0
Core_0_L1I_writeback_hit 0
Core_0_L1I_writeback_miss 0
Core_0_L1I_prefetch_requested 0
Core_0_L1I_prefetch_dropped 0
Core_0_L1I_prefetch_issued 0
Core_0_L1I_prefetch_filled 0
Core_0_L1I_prefetch_useful 0
Core_0_L1I_prefetch_useless 0
Core_0_L1I_prefetch_late 0
Core_0_L1I_average_miss_latency -nan

Core_0_L1I_rq_access 50000067
Core_0_L1I_rq_forward 0
Core_0_L1I_rq_merged 38404524
Core_0_L1I_rq_to_cache 11595543
Core_0_L1I_rq_full 0

Core_0_L1I_wq_access 0
Core_0_L1I_wq_forward 0
Core_0_L1I_wq_merged 0
Core_0_L1I_wq_to_cache 0
Core_0_L1I_wq_full 0

Core_0_L1I_pq_access 0
Core_0_L1I_pq_forward 0
Core_0_L1I_pq_merged 0
Core_0_L1I_pq_to_cache 0
Core_0_L1I_pq_full 0

Core_0_L1I_acc_epochs 131989
Core_0_L1I_acc_level_0 131989
Core_0_L1I_acc_level_1 0
Core_0_L1I_acc_level_2 0
Core_0_L1I_acc_level_3 0
Core_0_L1I_acc_level_4 0
Core_0_L1I_acc_level_5 0
Core_0_L1I_acc_level_6 0
Core_0_L1I_acc_level_7 0
Core_0_L1I_acc_level_8 0
Core_0_L1I_acc_level_9 0

Core_0_L2C_total_access 8416690
Core_0_L2C_total_hit 5351967
Core_0_L2C_total_miss 3064723
Core_0_L2C_loads 591088
Core_0_L2C_load_hit 452962
Core_0_L2C_load_miss 138126
Core_0_L2C_RFOs 3307217
Core_0_L2C_RFO_hit 834550
Core_0_L2C_RFO_miss 2472667
Core_0_L2C_prefetches 1211159
Core_0_L2C_prefetch_hit 758204
Core_0_L2C_prefetch_miss 452955
Core_0_L2C_writebacks 3307226
Core_0_L2C_writeback_hit 3306251
Core_0_L2C_writeback_miss 975
Core_0_L2C_prefetch_requested 2297762
Core_0_L2C_prefetch_dropped 48
Core_0_L2C_prefetch_issued 2297714
Core_0_L2C_prefetch_filled 563807
Core_0_L2C_prefetch_useful 563370
Core_0_L2C_prefetch_useless 432
Core_0_L2C_prefetch_late 95766
Core_0_L2C_average_miss_latency 727.77000

Core_0_L2C_rq_access 3898323
Core_0_L2C_rq_forward 0
Core_0_L2C_rq_merged 0
Core_0_L2C_rq_to_cache 3898317
Core_0_L2C_rq_full 0

Core_0_L2C_wq_access 3307226
Core_0_L2C_wq_forward 6
Core_0_L2C_wq_merged 0
Core_0_L2C_wq_to_cache 3307226
Core_0_L2C_wq_full 0

Core_0_L2C_pq_access 2297714
Core_0_L2C_pq_forward 0
Core_0_L2C_pq_merged 333813
Core_0_L2C_pq_to_cache 1963901
Core_0_L2C_pq_full 0

Core_0_L2C_acc_epochs 131989
Core_0_L2C_acc_level_0 637
Core_0_L2C_acc_level_1 1839
Core_0_L2C_acc_level_2 3098
Core_0_L2C_acc_level_3 4378
Core_0_L2C_acc_level_4 5720
Core_0_L2C_acc_level_5 7889
Core_0_L2C_acc_level_6 10456
Core_0_L2C_acc_level_7 12162
Core_0_L2C_acc_level_8 12800
Core_0_L2C_acc_level_9 73010

Core_0_LLC_total_access 5537757
Core_0_LLC_total_hit 2291903
Core_0_LLC_total_miss 3245854
Core_0_LLC_loads 42472
Core_0_LLC_load_hit 265
Core_0_LLC_load_miss 42207
Core_0_LLC_RFOs 2472177
Core_0_LLC_RFO_hit 698617
Core_0_LLC_RFO_miss 1773560
Core_0_LLC_prefetches 548609
Core_0_LLC_prefetch_hit 409
Core_0_LLC_prefetch_miss 548200
Core_0_LLC_writebacks 2474499
Core_0_LLC_writeback_hit 1592612
Core_0_LLC_writeback_miss 881887
Core_0_LLC_prefetch_requested 0
Core_0_LLC_prefetch_dropped 0
Core_0_LLC_prefetch_issued 0
Core_0_LLC_prefetch_filled 659073
Core_0_LLC_prefetch_useful 4
Core_0_LLC_prefetch_useless 658117
Core_0_LLC_prefetch_late 0
Core_0_LLC_average_miss_latency 672.20199

Core_0_LLC_rq_access 2515151
Core_0_LLC_rq_forward 0
Core_0_LLC_rq_merged 0
Core_0_LLC_rq_to_cache 2514661
Core_0_LLC_rq_full 0

Core_0_LLC_wq_access 2474499
Core_0_LLC_wq_forward 490
Core_0_LLC_wq_merged 0
Core_0_LLC_wq_to_cache 2474499
Core_0_LLC_wq_full 0

Core_0_LLC_pq_access 659576
Core_0_LLC_pq_forward 0
Core_0_LLC_pq_merged 0
Core_0_LLC_pq_to_cache 659576
Core_0_LLC_pq_full 0

Core_0_LLC_acc_epochs 135557
Core_0_LLC_acc_level_0 135553
Core_0_LLC_acc_level_1 4
Core_0_LLC_acc_level_2 0
Core_0_LLC_acc_level_3 0
Core_0_LLC_acc_level_4 0
Core_0_LLC_acc_level_5 0
Core_0_LLC_acc_level_6 0
Core_0_LLC_acc_level_7 0
Core_0_LLC_acc_level_8 0
Core_0_LLC_acc_level_9 0

Core_0_major_page_fault 0
Core_0_minor_page_fault 25310

scooby_st_lookup 710205
scooby_st_hit 699058
scooby_st_evict 11083
scooby_st_insert 11147
scooby_st_streaming 0

scooby_predict_called 710205
scooby_predict_out_of_bounds 21727
scooby_predict_action_1 365597
scooby_predict_issue_action_1 282949
scooby_predict_hit_action_1 82648
scooby_predict_out_of_bounds_action_1 5857
scooby_predict_action_3 321975
scooby_predict_issue_action_3 269245
scooby_predict_hit_action_3 52730
scooby_predict_out_of_bounds_action_3 15661
scooby_predict_action_4 82
scooby_predict_issue_action_4 82
scooby_predict_hit_action_4 0
scooby_predict_out_of_bounds_action_4 4
scooby_predict_action_5 77
scooby_predict_issue_action_5 77
scooby_predict_hit_action_5 0
scooby_predict_out_of_bounds_action_5 9
scooby_predict_action_10 79
scooby_predict_issue_action_10 79
scooby_predict_hit_action_10 0
scooby_predict_out_of_bounds_action_10 14
scooby_predict_action_11 63
scooby_predict_issue_action_11 63
scooby_predict_hit_action_11 0
scooby_predict_out_of_bounds_action_11 18
scooby_predict_action_12 76
scooby_predict_issue_action_12 76
scooby_predict_hit_action_12 0
scooby_predict_out_of_bounds_action_12 18
scooby_predict_action_22 59
scooby_predict_issue_action_22 59
scooby_predict_hit_action_22 0
scooby_predict_out_of_bounds_action_22 31
scooby_predict_action_23 54
scooby_predict_issue_action_23 54
scooby_predict_hit_action_23 0
scooby_predict_out_of_bounds_action_23 27
scooby_predict_action_30 51
scooby_predict_issue_action_30 51
scooby_predict_hit_action_30 0
scooby_predict_out_of_bounds_action_30 48
scooby_predict_action_32 43
scooby_predict_issue_action_32 43
scooby_predict_hit_action_32 0
scooby_predict_out_of_bounds_action_32 28
scooby_predict_action_-1 91
scooby_predict_issue_action_-1 21
scooby_predict_hit_action_-1 70
scooby_predict_out_of_bounds_action_-1 2
scooby_predict_action_-3 78
scooby_predict_issue_action_-3 23
scooby_predict_hit_action_-3 55
scooby_predict_out_of_bounds_action_-3 5
scooby_predict_action_-6 69
scooby_predict_issue_action_-6 16
scooby_predict_hit_action_-6 53
scooby_predict_out_of_bounds_action_-6 5
scooby_predict_action_0 84
scooby_predict_issue_action_0 0
scooby_predict_hit_action_0 0
scooby_predict_out_of_bounds_action_0 0
scooby_predict_multi_deg_called 482888
scooby_predict_predicted 2297762
scooby_predict_multi_deg 1744924
scooby_predict_multi_deg_2 465260
scooby_predict_multi_deg_3 402116
scooby_predict_multi_deg_4 384579
scooby_predict_multi_deg_5 255186
scooby_predict_multi_deg_6 237783
scooby_predict_multi_deg_7 0
scooby_predict_multi_deg_8 0
scooby_predict_multi_deg_9 0
scooby_predict_multi_deg_10 0
scooby_predict_multi_deg_11 0
scooby_predict_multi_deg_12 0
scooby_predict_multi_deg_13 0
scooby_predict_multi_deg_14 0
scooby_predict_multi_deg_15 0
scooby_predict_multi_deg_16 0

scooby_selected_deg_1 69950
scooby_selected_deg_2 45610
scooby_selected_deg_3 0
scooby_selected_deg_4 112401
scooby_selected_deg_5 0
scooby_selected_deg_6 324877
scooby_selected_deg_7 0
scooby_selected_deg_8 0
scooby_selected_deg_9 0
scooby_selected_deg_10 0
scooby_selected_deg_11 0
scooby_selected_deg_12 0
scooby_selected_deg_13 0
scooby_selected_deg_14 0
scooby_selected_deg_15 0
scooby_selected_deg_16 0

scooby_state_401cb0|0|0 4424,1,0,0,0,0,0,2,1,2,1,1,0,1,0,4433,
scooby_state_401cb0|1|0 4422,0,0,1,1,2,2,0,0,0,1,1,1,0,1,4432,
scooby_state_401cb0|3|3 4418,1,0,1,0,1,0,0,0,0,0,0,0,1,1,4423,
scooby_state_401cb0|4|4 2333,1,0,0,0,1,0,1,0,0,1,0,0,0,0,2337,
scooby_state_401cb0|49|3 2215,0,0,0,1,0,0,0,0,0,1,0,0,0,0,2217,
scooby_state_401cb0|20|3 2214,0,0,0,0,0,1,1,0,0,0,0,0,0,1,2217,
scooby_state_401cb0|19|3 2215,1,1,0,0,0,0,0,0,0,0,0,0,0,0,2217,
scooby_state_401cb0|44|3 2214,1,1,0,0,1,0,0,0,0,0,0,0,0,0,2217,
scooby_state_401cb0|23|4 2216,0,1,0,0,0,0,0,0,0,0,0,0,0,0,2217,
scooby_state_401cb0|53|3 2217,0,0,0,0,0,0,0,0,0,0,0,0,0,0,2217,
scooby_state_401cb0|52|4 2213,0,0,0,1,0,1,0,1,0,0,0,0,0,1,2217,
scooby_state_401cb0|56|4 2216,1,0,0,0,0,0,0,0,0,0,0,0,0,0,2217,
scooby_state_401cb0|5|3 2214,0,0,0,0,0,1,0,0,0,0,0,0,1,1,2217,
scooby_state_401cb0|39|3 2215,0,0,0,1,0,0,0,0,1,0,0,0,0,0,2217,
scooby_state_401cb0|14|3 2213,0,0,1,0,0,0,0,0,1,1,0,0,0,1,2217,
scooby_state_401cb0|47|4 2214,2,0,0,0,0,0,0,0,0,0,0,1,0,0,2217,
scooby_state_401cb0|61|4 2211,0,0,1,0,0,1,0,1,0,0,1,0,0,2,2217,
scooby_state_401cb0|54|3 2207,1,1,1,1,1,1,1,0,0,2,0,0,0,1,2217,
scooby_state_401cb0|12|4 2211,0,0,1,0,0,0,2,0,0,0,0,1,0,2,2217,
scooby_state_401cb0|58|3 2213,0,0,0,0,1,0,1,1,0,0,1,0,0,0,2217,
scooby_state_401cb0|63|3 2214,0,0,1,0,0,1,0,0,0,0,0,0,0,1,2217,
scooby_state_401cb0|51|3 2215,0,0,0,0,1,0,0,0,0,0,0,1,0,0,2217,
scooby_state_401cb0|2|0 2210,1,1,0,0,1,1,2,1,0,0,0,0,0,0,2217,
scooby_state_401cb0|32|4 2211,0,0,0,0,0,1,1,0,2,0,1,1,0,0,2217,
scooby_state_401cb0|27|4 2214,0,0,0,0,1,1,0,0,0,0,0,1,0,0,2217,
scooby_state_401cb0|28|4 2214,0,0,1,0,0,0,0,1,0,0,0,1,0,0,2217,
scooby_state_401cb0|29|3 2212,0,0,1,0,0,1,1,0,0,1,0,0,0,1,2217,
scooby_state_401cb0|25|3 2210,0,1,0,0,0,1,0,1,1,3,0,0,0,0,2217,
scooby_state_401cb0|15|3 2214,0,0,0,1,0,0,0,1,1,0,0,0,0,0,2217,
scooby_state_401cb0|37|4 2213,0,0,1,0,1,0,0,0,0,1,1,0,0,0,2217,
scooby_state_401cb0|17|4 2212,1,0,1,0,0,1,0,0,0,0,1,0,0,1,2217,
scooby_state_401cb0|9|3 2214,0,0,0,0,1,0,2,0,0,0,0,0,0,0,2217,
scooby_state_401cb0|24|3 2213,1,1,1,0,0,0,0,0,0,1,0,0,0,0,2217,
scooby_state_401cb0|62|4 2216,0,0,0,0,0,1,0,0,0,0,0,0,0,0,2217,
scooby_state_401cb0|34|3 2212,1,1,1,0,0,0,1,0,0,0,1,0,0,0,2217,
scooby_state_401cb0|7|4 2210,0,0,1,2,1,0,0,0,0,0,0,1,1,1,2217,
scooby_state_401cb0|8|4 2217,0,0,0,0,0,0,0,0,0,0,0,0,0,0,2217,
scooby_state_401cb0|57|4 2212,0,0,0,0,0,1,0,0,1,0,1,2,0,0,2217,
scooby_state_401cb0|42|4 2217,0,0,0,0,0,0,0,0,0,0,0,0,0,0,2217,
scooby_state_401cb0|10|3 2211,0,1,1,1,0,1,0,0,0,0,0,1,1,0,2217,
scooby_state_401cb0|22|4 2213,0,0,0,1,1,0,1,0,1,0,0,0,0,0,2217,
scooby_state_401cb0|59|3 2210,0,0,0,0,2,1,1,0,1,0,2,0,0,0,2217,
scooby_state_401cb0|18|4 2212,0,0,0,0,0,0,0,0,2,1,1,0,1,0,2217,
scooby_state_401cb0|13|4 2214,0,0,1,0,0,0,0,0,1,0,1,0,0,0,2217,
scooby_state_401cb0|13|3 2212,0,0,0,0,0,1,1,0,0,0,0,0,2,0,2216,
scooby_state_401cb0|63|4 2210,0,1,0,0,1,1,0,0,0,2,1,0,0,0,2216,
scooby_state_401cb0|55|4 2215,0,0,0,0,0,0,1,0,0,0,0,0,0,0,2216,
scooby_state_401cb0|21|4 2211,0,1,1,0,0,1,1,0,1,0,0,0,0,0,2216,
scooby_state_401cb0|51|4 2210,1,0,0,0,0,0,0,0,0,0,1,0,0,4,2216,
scooby_state_401cb0|40|4 2211,0,0,0,0,0,1,0,2,0,0,1,1,0,0,2216,
scooby_state_401cb0|35|4 2214,0,0,1,0,0,0,0,0,0,0,0,0,0,1,2216,
scooby_state_401cb0|28|3 2214,0,0,1,0,0,0,0,1,0,0,0,0,0,0,2216,
scooby_state_401cb0|39|4 2210,1,1,0,1,0,1,0,0,0,0,1,0,0,1,2216,
scooby_state_401cb0|32|3 2210,0,0,1,1,0,0,0,0,1,1,0,1,1,0,2216,
scooby_state_401cb0|59|4 2210,0,0,1,0,1,0,1,0,0,0,0,1,2,0,2216,
scooby_state_401cb0|27|3 2212,0,0,0,1,0,0,0,1,0,2,0,0,0,0,2216,
scooby_state_401cb0|19|4 2207,1,0,1,0,0,0,1,0,1,0,1,2,1,1,2216,
scooby_state_401cb0|25|4 2210,1,0,1,0,2,1,0,0,0,0,1,0,0,0,2216,
scooby_state_401cb0|57|3 2215,0,0,0,0,0,1,0,0,0,0,0,0,0,0,2216,
scooby_state_401cb0|42|3 2214,0,0,0,0,0,0,0,1,1,0,0,0,0,0,2216,
scooby_state_401cb0|8|3 2211,0,0,0,1,0,0,2,0,1,1,0,0,0,0,2216,
scooby_state_401cb0|54|4 2213,0,0,0,0,1,1,0,0,0,0,1,0,0,0,2216,
scooby_state_401cb0|46|4 2213,0,0,0,0,1,0,0,0,0,0,0,1,0,1,2216,
scooby_state_401cb0|41|4 2213,0,0,0,0,1,0,1,1,0,0,0,0,0,0,2216,
scooby_state_401cb0|47|3 2212,0,0,0,1,1,1,0,0,0,0,0,0,0,1,2216,
scooby_state_401cb0|50|4 2212,0,3,0,0,0,0,0,1,0,0,0,0,0,0,2216,
scooby_state_401cb0|11|4 2212,1,0,0,0,0,1,0,1,0,0,1,0,0,0,2216,
scooby_state_401cb0|61|3 2215,0,0,0,0,0,0,1,0,0,0,0,0,0,0,2216,
scooby_state_401cb0|6|4 2214,0,0,1,0,0,0,0,0,1,0,0,0,0,0,2216,
scooby_state_401cb0|9|4 2212,0,0,0,0,2,0,0,1,0,0,0,0,1,0,2216,
scooby_state_401cb0|44|4 2213,0,0,0,0,0,0,0,0,1,0,0,1,0,1,2216,
scooby_state_401cb0|38|3 2215,0,0,0,0,0,0,0,0,0,0,0,0,0,1,2216,
scooby_state_401cb0|62|3 2209,0,0,2,1,0,0,1,0,1,0,0,0,1,1,2216,
scooby_state_401cb0|33|3 2214,1,0,0,0,0,0,0,1,0,0,0,0,0,0,2216,
scooby_state_401cb0|31|3 2212,1,0,1,0,0,0,0,1,0,0,0,1,0,0,2216,
scooby_state_401cb0|30|3 2211,0,1,0,0,0,0,1,0,0,0,2,0,0,1,2216,
scooby_state_401cb0|55|3 2215,0,0,0,0,0,0,0,0,0,0,1,0,0,0,2216,
scooby_state_401cb0|16|3 2213,0,0,1,0,1,0,0,0,0,0,1,0,0,0,2216,
scooby_state_401cb0|53|4 2213,1,1,0,0,0,0,0,1,0,0,0,0,0,0,2216,
scooby_state_401cb0|30|4 2210,0,0,1,1,1,1,1,0,0,0,0,1,0,0,2216,
scooby_state_401cb0|43|4 2212,0,1,0,0,0,1,1,0,1,0,0,0,0,0,2216,
scooby_state_401cb0|31|4 2214,0,0,0,1,1,0,0,0,0,0,0,0,0,0,2216,
scooby_state_401cb0|40|3 2213,0,1,0,0,0,0,0,1,0,0,0,0,1,0,2216,
scooby_state_401cb0|58|4 2214,0,0,0,0,0,0,1,0,0,1,0,0,0,0,2216,
scooby_state_401cb0|33|4 2215,0,0,0,0,0,0,0,0,0,0,0,1,0,0,2216,
scooby_state_401cb0|6|3 2213,0,1,0,0,0,1,0,0,0,1,0,0,0,0,2216,
scooby_state_401cb0|60|3 2215,0,0,0,1,0,0,0,0,0,0,0,0,0,0,2216,
scooby_state_401cb0|36|3 2213,0,1,0,0,0,0,0,0,0,0,2,0,0,0,2216,
scooby_state_401cb0|26|3 2215,0,0,0,0,0,0,0,1,0,0,0,0,0,0,2216,
scooby_state_401cb0|48|4 2212,0,0,0,0,1,0,0,1,0,1,0,1,0,0,2216,
scooby_state_401cb0|17|3 2211,0,3,0,0,0,2,0,0,0,0,0,0,0,0,2216,
scooby_state_401cb0|14|4 2215,1,0,0,0,0,0,0,0,0,0,0,0,0,0,2216,
scooby_state_401cb0|48|3 2211,0,0,0,0,2,0,0,1,1,0,0,0,1,0,2216,
scooby_state_401cb0|38|4 2212,0,1,0,0,0,1,0,0,0,0,1,0,0,1,2216,
scooby_state_401cb0|35|3 2215,0,0,0,0,0,1,0,0,0,0,0,0,0,0,2216,
scooby_state_401cb0|49|4 2210,2,0,0,1,0,0,0,0,0,0,0,1,2,0,2216,
scooby_state_401cb0|41|3 2215,0,0,0,0,1,0,0,0,0,0,0,0,0,0,2216,
scooby_state_401cb0|12|3 2212,1,0,0,0,1,0,1,0,0,0,1,0,0,0,2216,
scooby_state_401cb0|10|4 2205,1,0,0,0,0,1,0,0,3,0,2,1,2,1,2216,
scooby_state_401cb0|20|4 2213,1,0,0,1,0,0,0,0,1,0,0,0,0,0,2216,
scooby_state_401cb0|7|3 2211,0,0,0,0,0,0,0,0,1,0,1,3,0,0,2216,
scooby_state_401cb0|50|3 2211,0,0,1,0,0,0,0,1,0,0,0,0,2,1,2216,
scooby_state_401cb0|45|4 2213,0,0,0,0,1,0,0,0,1,0,0,0,1,0,2216,
scooby_state_401cb0|15|4 2213,0,0,0,1,0,0,0,0,0,0,0,1,0,1,2216,
scooby_state_401cb0|2|2 2216,0,0,0,0,0,0,0,0,0,0,0,0,0,0,2216,
scooby_state_401cb0|22|3 2213,0,0,0,0,1,0,0,0,0,1,0,0,1,0,2216,
scooby_state_401cb0|46|3 2211,1,0,1,0,1,1,0,0,0,1,0,0,0,0,2216,
scooby_state_401cb0|56|3 2213,0,1,0,0,1,0,0,0,0,1,0,0,0,0,2216,
scooby_state_401cb0|45|3 2212,1,1,0,0,0,0,0,1,0,0,0,1,0,0,2216,
scooby_state_401cb0|60|4 2211,1,1,0,1,0,0,0,0,0,0,1,0,1,0,2216,
scooby_state_401cb0|21|3 2213,0,0,0,0,0,0,1,0,0,0,0,0,1,1,2216,
scooby_state_401cb0|29|4 2211,0,0,0,1,0,0,1,0,1,0,2,0,0,0,2216,
scooby_state_401cb0|11|3 2213,0,0,0,1,1,0,1,0,0,0,0,0,0,0,2216,
scooby_state_401cb0|24|4 2210,1,0,0,0,0,0,1,0,1,2,1,0,0,0,2216,
scooby_state_401cb0|34|4 2213,0,0,0,0,1,0,0,0,0,0,0,1,0,1,2216,
scooby_state_401cb0|5|4 2214,0,0,0,0,0,0,0,1,0,1,0,0,0,0,2216,
scooby_state_401cb0|36|4 2212,0,1,0,0,0,0,0,0,0,1,1,0,0,1,2216,
scooby_state_401cb0|16|4 2213,0,0,0,0,0,0,0,0,0,0,1,0,2,0,2216,
scooby_state_401cb0|52|3 2212,0,0,1,0,2,0,0,0,1,0,0,0,0,0,2216,
scooby_state_401cb0|26|4 2213,0,0,0,1,0,0,0,1,0,0,0,0,0,1,2216,
scooby_state_401cb0|37|3 2213,0,0,0,0,1,1,0,0,1,0,0,0,0,0,2216,
scooby_state_401cb0|43|3 2212,0,0,0,0,0,1,1,0,1,0,0,0,1,0,2216,
scooby_state_401cb0|23|3 2212,0,1,0,0,0,0,0,1,1,0,0,1,0,0,2216,
scooby_state_401cb0|18|3 2211,0,0,0,0,0,0,0,3,0,1,0,1,0,0,2216,
scooby_state_401cb0|4|3 2091,2,0,0,1,0,0,0,0,0,0,0,0,0,0,2094,
scooby_state_401e02|54|-2 1445,0,0,1,0,0,0,0,0,0,0,0,0,0,1,1447,
scooby_state_401e02|6|-2 1436,0,1,0,0,0,0,0,0,0,0,0,0,0,0,1437,
scooby_state_401e02|14|-2 1431,0,2,1,1,1,0,0,0,0,0,0,0,0,0,1436,
scooby_state_401e02|46|-2 1425,1,0,1,0,0,0,0,0,0,0,0,1,1,0,1429,
scooby_state_401e67|55|1 1,1423,0,0,1,0,0,0,0,0,0,1,0,0,1,1427,
scooby_state_401e02|30|-2 1423,0,0,0,0,0,1,0,1,1,0,0,0,0,0,1426,
scooby_state_401e02|26|-2 1425,0,0,0,0,0,0,0,0,0,0,1,0,0,0,1426,
scooby_state_401e67|7|1 1,1420,1,0,0,0,1,0,0,0,0,0,0,0,0,1423,
scooby_state_401e02|58|-2 1421,0,0,1,0,0,0,0,0,0,0,1,0,0,0,1423,
scooby_state_401e02|22|-2 1420,0,0,0,0,0,0,0,0,0,0,0,1,1,0,1422,
scooby_state_401e67|27|1 1,1416,0,0,0,0,1,1,0,0,0,0,0,0,0,1419,
scooby_state_401e02|38|-2 1416,0,0,1,0,0,0,0,0,0,0,0,0,0,1,1418,
scooby_state_401e67|31|1 0,1416,0,0,0,0,0,0,0,0,0,0,0,0,0,1416,
scooby_state_401e67|47|1 0,1412,0,0,0,0,0,0,1,1,0,1,0,0,0,1415,
scooby_state_401e67|23|1 1,1413,0,0,0,0,0,0,0,1,0,0,0,0,0,1415,
scooby_state_401e33|45|-1 1,1409,0,0,0,0,0,2,0,0,0,1,1,0,1,1415,
scooby_state_401e02|62|2 1409,0,0,0,0,0,1,1,0,0,0,0,1,0,1,1413,
scooby_state_401e33|61|-1 1,1407,0,1,1,0,0,0,0,0,0,0,1,0,0,1411,
scooby_state_401e02|18|-2 1409,0,0,0,0,0,0,0,1,0,0,0,0,0,0,1410,
scooby_state_401e33|9|-1 0,1405,1,0,0,0,0,0,1,0,0,1,0,0,1,1409,
scooby_state_401e02|42|-2 1407,0,0,0,0,0,0,0,0,0,1,0,0,0,0,1408,
scooby_state_401e67|15|1 0,1405,1,0,0,0,0,0,0,0,1,0,0,1,0,1408,
scooby_state_401e33|21|-1 1,1405,1,0,0,0,0,0,0,0,1,0,0,0,0,1408,
scooby_state_401e02|2|-2 1406,0,0,0,0,1,0,0,0,0,0,0,1,0,0,1408,
scooby_state_401e33|57|-1 2,1404,0,0,0,0,2,0,0,0,0,0,0,0,0,1408,
scooby_state_401e67|59|1 0,1404,0,0,0,0,0,0,0,1,0,1,0,0,1,1407,
scooby_state_401e02|10|-2 1403,0,0,0,0,0,0,0,0,0,0,1,1,0,0,1405,
scooby_state_401e67|43|1 1,1400,0,2,0,0,0,0,0,0,0,0,0,0,0,1403,
scooby_state_401e02|34|-2 1401,0,0,0,0,0,0,0,0,0,0,1,0,0,0,1402,
scooby_state_401e67|11|1 1,1398,0,1,0,0,0,0,0,0,0,1,0,0,0,1401,
scooby_state_401e33|13|-1 1,1397,0,0,0,0,1,0,0,0,0,0,1,0,0,1400,
scooby_state_401e33|29|-1 1,1394,0,1,0,0,0,0,0,0,0,3,0,0,0,1399,
scooby_state_401e33|37|-1 0,1394,2,0,0,1,0,0,1,1,0,0,0,0,0,1399,
scooby_state_401e67|39|1 0,1397,1,0,0,0,0,0,0,0,0,0,1,0,0,1399,
scooby_state_401e33|17|-1 0,1396,0,0,1,0,0,1,0,0,1,0,0,0,0,1399,
scooby_state_401e67|3|1 1,1395,0,0,0,0,0,1,0,0,1,0,0,0,0,1398,
scooby_state_401e33|41|-1 1,1394,1,0,0,0,0,0,0,0,0,0,0,1,0,1397,
scooby_state_401e33|1|-1 0,1394,0,0,0,1,0,0,0,0,0,0,0,0,0,1395,
scooby_state_401e33|33|-1 0,1389,1,0,1,0,2,0,0,0,0,0,1,0,0,1394,
scooby_state_401e33|25|-1 1,1392,1,0,0,0,0,0,0,0,0,0,0,0,0,1394,
scooby_state_401e33|5|-1 2,1391,0,0,0,0,0,0,0,0,0,0,0,0,0,1393,
scooby_state_401e33|49|-1 0,1389,0,0,1,0,0,0,0,3,0,0,0,0,0,1393,
scooby_state_401e67|63|1 0,1390,0,0,1,1,0,0,0,0,0,0,0,0,0,1392,
scooby_state_401e67|35|1 1,1388,0,0,0,2,0,0,0,0,0,0,0,1,0,1392,
scooby_state_401e02|50|-2 1386,0,0,0,0,0,0,0,0,0,0,0,0,0,1,1387,
scooby_state_401e33|53|-1 0,1383,0,0,0,0,0,0,0,0,1,1,0,0,0,1385,
scooby_state_401e67|19|1 0,1378,0,0,1,0,0,0,0,0,0,0,0,0,0,1379,
scooby_state_401e67|51|1 1,1371,0,0,0,0,0,0,0,2,0,1,0,0,1,1376,
scooby_state_401e02|33|-2 1368,0,0,0,0,0,1,0,0,1,0,0,0,0,0,1370,
scooby_state_401e33|31|-1 0,1365,0,0,0,0,0,0,0,1,1,0,0,0,0,1367,
scooby_state_401e02|40|-2 1364,0,0,0,0,0,1,0,0,0,0,1,0,0,0,1366,
scooby_state_401e33|56|-1 0,1361,0,0,0,1,0,0,1,0,1,0,0,0,0,1364,
scooby_state_401e67|34|1 0,1360,0,0,0,0,1,0,0,0,0,1,0,0,0,1362,
scooby_state_401e02|16|-2 1360,0,0,0,0,0,0,0,0,0,0,0,0,0,0,1360,
scooby_state_401e02|28|-2 1357,0,0,1,0,0,0,0,0,0,0,0,1,0,0,1359,
scooby_state_401e33|24|-1 0,1358,0,0,0,0,0,0,0,0,0,0,0,0,0,1358,
scooby_state_401e67|41|1 0,1351,0,2,0,1,1,2,0,0,0,0,0,0,0,1357,
scooby_state_401e33|63|2 1,1353,0,0,0,0,0,0,0,1,0,0,0,0,0,1355,
scooby_state_401e33|4|-1 1,1349,0,0,0,0,0,0,0,1,0,0,0,0,0,1351,
scooby_state_401e67|29|1 0,1345,0,0,1,1,1,0,0,1,0,0,1,0,0,1350,
scooby_state_401e33|19|-1 0,1348,0,1,0,0,0,0,0,0,0,0,0,0,0,1349,
scooby_state_401e02|8|-2 1344,0,1,0,0,0,0,0,2,0,0,0,0,1,0,1348,
scooby_state_401e33|16|-1 2,1342,1,1,0,0,0,0,0,0,0,1,0,0,0,1347,
scooby_state_401e02|48|-2 1343,0,0,1,1,0,0,0,0,0,0,1,1,0,0,1347,
scooby_state_401e02|45|-2 1343,1,0,1,0,0,0,0,0,0,0,0,1,0,0,1346,
scooby_state_401e02|1|-2 1343,1,0,1,0,0,0,0,0,0,0,0,0,0,1,1346,
scooby_state_401e02|53|-2 1343,0,0,0,0,0,0,0,0,0,0,0,0,2,0,1345,
scooby_state_401e33|27|-1 0,1342,0,1,1,0,0,1,0,0,0,0,0,0,0,1345,
scooby_state_401e02|4|-2 1341,0,0,0,0,1,0,0,0,0,0,1,0,1,0,1344,
scooby_state_401e67|22|1 0,1340,0,1,1,0,0,1,0,0,0,0,0,0,0,1343,
scooby_state_401e33|48|-1 1,1341,0,0,0,1,0,0,0,0,0,0,0,0,0,1343,
scooby_state_401e67|5|1 0,1342,0,0,0,0,0,1,0,0,0,0,0,0,0,1343,
scooby_state_401e02|21|-2 1342,0,0,0,0,0,0,0,0,0,0,0,0,0,0,1342,
scooby_state_401e33|11|-1 1,1339,1,0,0,0,0,0,0,0,0,0,0,0,0,1341,
scooby_state_401e02|13|-2 1332,2,0,1,2,1,0,0,0,0,0,1,1,0,0,1340,
scooby_state_401e02|56|-2 1335,0,0,0,0,0,0,0,1,1,0,0,0,1,0,1338,
scooby_state_401e67|9|1 1,1335,0,0,0,0,0,0,0,1,0,1,0,0,0,1338,
scooby_state_401e33|43|-1 0,1335,0,1,0,0,0,0,1,0,0,0,0,0,0,1337,
scooby_state_401e33|55|-1 0,1334,0,0,1,0,0,0,1,0,0,0,0,0,0,1336,
scooby_state_401e33|26|-1 0,1334,1,0,0,0,0,0,0,0,0,0,0,0,0,1335,
scooby_state_401e67|49|1 0,1331,0,0,1,1,1,0,0,0,0,0,0,1,0,1335,
scooby_state_401e33|39|-1 2,1329,1,0,1,0,0,0,1,0,0,0,0,0,0,1334,
scooby_state_401e02|63|2 1330,2,1,0,0,0,0,0,0,0,0,0,0,0,0,1333,
scooby_state_401e33|51|-1 0,1329,1,0,0,0,0,0,0,0,0,0,0,0,1,1331,
scooby_state_401e67|14|1 1,1328,0,0,1,0,0,0,0,0,0,0,0,0,0,1330,
scooby_state_401e02|37|-2 1327,0,0,0,0,0,0,0,0,0,1,0,1,0,1,1330,
scooby_state_401e02|20|-2 1328,1,1,0,0,0,0,0,0,0,0,0,0,0,0,1330,
scooby_state_401e02|15|-2 1326,0,2,0,0,0,0,0,0,1,0,0,0,0,0,1329,
scooby_state_401e02|55|-2 1329,0,0,0,0,0,0,0,0,0,0,0,0,0,0,1329,
scooby_state_401e02|25|-2 1327,0,0,0,0,0,0,0,0,0,0,0,0,1,0,1328,
scooby_state_401e67|21|1 2,1323,1,0,1,0,0,0,0,1,0,0,0,0,0,1328,
scooby_state_401e02|43|-2 1323,0,1,0,0,1,0,0,1,0,0,1,1,0,0,1328,
scooby_state_401e02|24|-2 1325,0,0,0,0,0,0,0,0,0,0,1,0,1,1,1328,
scooby_state_401e33|23|-1 1,1325,0,0,0,0,0,0,0,0,0,1,0,0,1,1328,
scooby_state_401e02|12|-2 1325,0,0,0,0,0,0,0,1,0,0,0,0,1,0,1327,
scooby_state_401e02|7|-2 1326,1,0,0,0,0,0,0,0,0,0,0,0,0,0,1327,
scooby_state_401e02|60|-2 1326,0,0,0,0,0,0,0,0,1,0,0,0,0,0,1327,
scooby_state_401e67|20|1 0,1325,0,0,0,0,0,0,0,0,0,0,2,0,0,1327,
scooby_state_401e67|2|1 1,1323,0,0,1,0,0,0,0,0,0,1,0,0,1,1327,
scooby_state_401e67|17|1 0,1322,1,0,1,0,0,1,2,0,0,0,0,0,0,1327,
scooby_state_401e33|35|-1 1,1324,0,0,0,0,0,1,0,0,0,0,0,1,0,1327,
scooby_state_401e02|59|-2 1325,0,0,0,0,0,1,0,0,0,0,0,0,0,0,1326,
scooby_state_401e02|35|-2 1324,0,1,0,0,0,0,0,1,0,0,0,0,0,0,1326,
scooby_state_401e02|23|-2 1324,1,0,0,0,0,0,0,1,0,0,0,0,0,0,1326,
scooby_state_401e02|19|-2 1326,0,0,0,0,0,0,0,0,0,0,0,0,0,0,1326,
scooby_state_401e33|36|-1 0,1325,0,0,0,0,0,0,0,0,0,0,0,0,0,1325,
scooby_state_401e02|5|-2 1325,0,0,0,0,0,0,0,0,0,0,0,0,0,0,1325,
scooby_state_401e67|61|1 1,1323,0,0,0,0,0,0,0,0,1,0,0,0,0,1325,
scooby_state_401e02|36|-2 1318,0,0,0,1,0,0,1,0,0,0,2,0,1,0,1323,
scooby_state_401e02|44|-2 1321,0,0,0,0,1,0,0,0,0,0,0,0,1,0,1323,
scooby_state_401e67|46|1 0,1322,0,0,0,0,0,0,0,0,0,1,0,0,0,1323,
scooby_state_401e33|6|-1 1,1318,0,0,0,0,1,1,0,0,0,0,0,1,0,1322,
scooby_state_401e67|13|1 3,1316,1,0,0,0,0,1,1,0,0,0,0,0,0,1322,
scooby_state_401e33|58|-1 0,1321,0,0,0,0,0,1,0,0,0,0,0,0,0,1322,
scooby_state_401e67|54|1 0,1319,0,0,2,0,0,0,0,0,0,0,0,0,0,1321,
scooby_state_401e02|9|-2 1317,0,2,0,0,0,0,1,0,0,0,0,0,0,0,1320,
scooby_state_401e67|60|1 1,1318,0,0,0,0,0,1,0,0,0,0,0,0,0,1320,
scooby_state_401e02|32|-2 1317,0,0,0,1,0,0,0,0,0,0,1,0,0,0,1319,
scooby_state_401e67|44|1 0,1317,0,1,1,0,0,0,0,0,0,0,0,0,0,1319,
scooby_state_401e33|10|-1 1,1316,0,0,1,0,0,0,1,0,0,0,0,0,0,1319,
scooby_state_401e67|26|1 1,1316,0,0,0,0,1,0,0,0,1,0,0,0,0,1319,
scooby_state_401e67|6|1 1,1317,0,0,0,0,0,0,0,0,0,0,1,0,0,1319,
scooby_state_401e67|36|1 0,1316,0,0,0,0,1,0,0,0,0,1,0,0,0,1318,
scooby_state_401e33|38|-1 0,1315,0,2,0,0,0,0,0,0,0,1,0,0,0,1318,
scooby_state_401e33|28|-1 1,1317,0,0,0,0,0,0,0,0,0,0,0,0,0,1318,
scooby_state_401e67|57|1 0,1314,1,0,0,1,0,0,0,0,0,1,0,1,0,1318,
scooby_state_401e67|8|1 1,1315,0,0,0,0,1,0,0,0,1,0,0,0,0,1318,
scooby_state_401e67|25|1 0,1317,0,0,0,0,0,0,0,0,0,1,0,0,0,1318,
scooby_state_401e02|49|-2 1315,0,0,0,0,0,0,0,0,1,0,0,1,1,0,1318,
scooby_state_401e02|52|-2 1315,1,0,0,0,0,0,0,0,1,0,0,0,0,0,1317,
scooby_state_401e67|38|1 0,1310,0,1,1,1,1,1,2,0,0,0,0,0,0,1317,
scooby_state_401e33|42|-1 0,1314,1,1,0,0,0,0,0,0,0,0,0,0,0,1316,
scooby_state_401e67|53|1 0,1311,0,0,1,1,0,0,1,0,1,0,0,0,0,1315,
scooby_state_401e33|20|-1 1,1310,0,0,1,0,0,0,0,1,0,0,1,1,0,1315,
scooby_state_401e33|52|-1 1,1312,0,0,1,0,0,0,1,0,0,0,0,0,0,1315,
scooby_state_401e33|40|-1 0,1311,0,0,0,2,0,0,0,2,0,0,0,0,0,1315,
scooby_state_401e02|27|-2 1314,0,0,0,0,0,0,0,0,0,1,0,0,0,0,1315,
scooby_state_401e02|41|-2 1312,0,0,0,1,0,0,0,0,0,0,0,0,0,1,1314,
scooby_state_401e33|12|-1 0,1314,0,0,0,0,0,0,0,0,0,0,0,0,0,1314,
scooby_state_401e02|39|-2 1314,0,0,0,0,0,0,0,0,0,0,0,0,0,0,1314,
scooby_state_401e67|24|1 0,1312,0,0,1,0,0,0,0,0,0,1,0,0,0,1314,
scooby_state_401e67|45|1 0,1313,0,0,0,0,0,1,0,0,0,0,0,0,0,1314,
scooby_state_401e02|47|-2 1311,0,0,0,0,0,0,1,1,1,0,0,0,0,0,1314,
scooby_state_401e33|30|-1 1,1311,0,0,0,0,0,0,0,1,0,0,0,0,0,1313,
scooby_state_401e67|56|1 0,1311,0,0,0,0,0,0,0,0,0,1,0,0,0,1312,
scooby_state_401e02|3|-2 1311,0,0,0,1,0,0,0,0,0,0,0,0,0,0,1312,
scooby_state_401e67|10|1 0,1312,0,0,0,0,0,0,0,0,0,0,0,0,0,1312,
scooby_state_401e33|8|-1 1,1310,0,0,0,0,0,0,0,0,1,0,0,0,0,1312,
scooby_state_401e02|57|-2 1308,0,0,0,1,0,0,1,0,1,0,0,0,0,0,1311,
scooby_state_401e02|61|-2 1307,0,0,0,0,0,0,0,1,0,1,0,0,1,0,1310,
scooby_state_401e33|62|-1 1,1308,0,0,0,0,0,0,0,0,0,0,0,0,0,1309,
scooby_state_401e67|42|1 1,1307,0,0,0,0,0,0,0,0,0,0,0,1,0,1309,
scooby_state_401e67|50|1 1,1304,1,1,0,1,0,0,0,0,0,0,0,0,1,1309,
scooby_state_401e67|33|1 1,1304,0,0,0,0,0,1,1,0,0,0,0,0,1,1308,
scooby_state_401e33|22|-1 0,1306,0,0,0,0,0,1,0,1,0,0,0,0,0,1308,
scooby_state_401e33|7|-1 0,1307,0,0,0,0,1,0,0,0,0,0,0,0,0,1308,
scooby_state_401e02|31|-2 1307,0,0,0,0,0,1,0,0,0,0,0,0,0,0,1308,
scooby_state_401e67|28|1 2,1305,0,0,0,0,0,0,0,0,0,0,0,0,0,1307,
scooby_state_401e02|11|-2 1306,0,0,0,0,0,0,0,0,0,0,0,1,0,0,1307,
scooby_state_401e33|14|-1 0,1307,0,0,0,0,0,0,0,0,0,0,0,0,0,1307,
scooby_state_401e33|32|-1 0,1302,0,0,2,0,0,0,1,1,0,0,0,0,1,1307,
scooby_state_401e02|51|-2 1305,0,0,1,0,0,0,0,0,0,0,0,0,0,0,1306,
scooby_state_401e33|44|-1 1,1303,0,0,0,0,0,0,0,0,0,1,0,0,1,1306,
scooby_state_401e67|37|1 1,1302,0,0,0,1,0,0,0,1,0,0,0,0,0,1305,
scooby_state_401e67|4|1 1,1303,0,0,1,0,0,0,0,0,0,0,0,0,0,1305,
scooby_state_401e67|62|1 1,1302,0,0,0,0,0,1,0,0,0,0,0,0,0,1304,
scooby_state_401e67|16|1 1,1302,0,0,0,0,0,1,0,0,0,0,0,0,0,1304,
scooby_state_401e67|40|1 0,1302,0,0,0,0,0,0,0,0,1,0,0,1,0,1304,
scooby_state_401e67|52|1 0,1300,0,0,1,0,0,1,0,0,0,0,1,0,0,1303,
scooby_state_401e33|59|-1 1,1301,0,0,0,0,0,0,0,0,0,0,0,0,0,1302,
scooby_state_401e33|34|-1 1,1295,1,1,1,0,0,0,0,0,0,1,1,0,1,1302,
scooby_state_401e67|32|1 1,1297,1,0,0,0,1,1,0,0,0,0,0,0,1,1302,
scooby_state_401e33|47|-1 0,1299,0,0,0,0,0,0,1,0,0,1,0,0,0,1301,
scooby_state_401e33|60|-1 0,1300,0,0,0,0,0,0,0,1,0,0,0,0,0,1301,
scooby_state_401e02|29|-2 1297,1,0,0,1,0,1,0,0,0,0,0,0,0,0,1300,
scooby_state_401e67|58|1 1,1296,0,0,0,2,0,0,0,0,0,0,1,0,0,1300,
scooby_state_401e33|54|-1 0,1299,0,0,0,0,0,0,0,0,0,0,0,0,0,1299,
scooby_state_401e33|15|-1 1,1294,0,0,2,0,1,0,0,0,0,0,0,0,0,1298,
scooby_state_401e02|17|-2 1294,0,1,0,0,0,1,0,0,1,0,0,0,0,1,1298,
scooby_state_401e67|12|1 0,1295,1,0,0,0,0,0,0,0,1,0,0,1,0,1298,
scooby_state_401e33|50|-1 1,1295,0,1,0,0,0,0,0,0,0,0,0,0,0,1297,
scooby_state_401e67|48|1 0,1291,1,0,0,0,0,1,0,1,0,0,1,0,0,1295,
scooby_state_401e33|18|-1 1,1291,1,0,0,0,1,0,0,0,1,0,0,0,0,1295,
scooby_state_401e67|18|1 1,1290,0,0,1,0,0,0,0,1,0,1,0,0,0,1294,
scooby_state_401e33|3|-1 0,1288,0,0,0,0,0,0,1,1,1,0,1,0,0,1292,
scooby_state_401e33|46|-1 0,1290,0,0,0,0,1,0,0,0,0,1,0,0,0,1292,
scooby_state_401e67|30|1 0,1291,1,0,0,0,0,0,0,0,0,0,0,0,0,1292,
scooby_state_401e33|2|-1 0,1288,0,0,0,0,0,0,0,0,0,0,0,0,0,1288,
scooby_state_401e67|0|-1 1,1279,0,0,0,0,0,0,0,0,0,1,0,0,0,1281,
scooby_state_401e67|1|1 1,1256,0,1,0,0,0,0,0,0,0,0,0,0,0,1258,
scooby_state_401e33|0|-1 1,1252,0,0,0,0,0,0,0,0,0,0,0,0,1,1254,
scooby_state_401e02|0|-2 1198,0,0,0,0,0,0,0,0,0,0,0,1,0,0,1199,
scooby_state_401cdb|29|-2 1,914,0,0,1,0,0,0,0,0,0,0,0,0,0,916,
scooby_state_401d43|30|1 1,915,0,0,0,0,0,0,0,0,0,0,0,0,0,916,
scooby_state_401d14|46|-1 0,909,0,0,0,0,0,0,0,0,0,0,1,1,0,911,
scooby_state_401cdb|17|-2 0,909,0,0,0,0,0,0,0,0,0,0,1,0,0,910,
scooby_state_401cdb|11|-2 4,902,1,0,0,0,1,0,0,0,0,0,2,0,0,910,
scooby_state_401d43|12|1 1,907,1,0,0,0,1,0,0,0,0,0,0,0,0,910,
scooby_state_401d43|18|1 0,910,0,0,0,0,0,0,0,0,0,0,0,0,0,910,
scooby_state_401d14|3|-1 1,907,0,1,0,0,0,0,1,0,0,0,0,0,0,910,
scooby_state_401d43|52|1 1,905,0,0,0,0,0,1,0,1,0,0,1,0,0,909,
scooby_state_401cdb|51|-2 1,907,0,0,0,0,0,0,0,0,0,0,0,1,0,909,
scooby_state_401d14|18|-1 0,907,0,0,0,0,0,0,1,0,0,0,0,0,0,908,
scooby_state_401d43|32|1 0,906,0,0,0,0,1,0,0,0,1,0,0,0,0,908,
scooby_state_401cdb|31|-2 0,907,0,0,0,0,0,0,0,0,0,0,1,0,0,908,
scooby_state_401cdb|61|-2 0,904,0,0,0,0,0,0,0,1,0,0,0,0,1,906,
scooby_state_401d43|62|1 0,901,1,1,0,1,0,0,1,0,0,0,0,0,1,906,
scooby_state_401d14|34|-1 1,903,0,0,0,0,0,0,0,0,1,0,0,0,0,905,
scooby_state_401d43|58|1 1,901,1,0,0,0,0,0,1,0,0,0,0,0,0,904,
scooby_state_401cdb|57|-2 2,898,0,1,1,0,0,1,1,0,0,0,0,0,0,904,
scooby_state_401d14|15|-1 0,901,0,0,0,0,1,0,0,1,0,0,0,0,0,903,
scooby_state_401d14|54|-1 1,900,0,0,1,0,0,0,0,0,0,1,0,0,0,903,
scooby_state_401d14|47|-1 1,901,0,0,0,1,0,0,0,0,0,0,0,0,0,903,
scooby_state_401cdb|39|-2 3,898,0,0,0,0,0,1,0,0,0,0,0,0,0,902,
scooby_state_401cdb|41|-2 0,902,0,0,0,0,0,0,0,0,0,0,0,0,0,902,
scooby_state_401d43|42|1 0,901,0,0,0,0,0,0,0,1,0,0,0,0,0,902,
scooby_state_401d14|60|-1 1,898,0,0,0,0,0,0,0,2,0,0,0,0,0,901,
scooby_state_401cdb|27|-2 0,898,0,0,0,1,0,0,0,1,0,0,0,0,1,901,
scooby_state_401d43|28|1 0,900,0,0,0,0,0,0,0,0,0,0,1,0,0,901,
scooby_state_401d43|40|1 0,901,0,0,0,0,0,0,0,0,0,0,0,0,0,901,
scooby_state_401d43|48|1 1,898,0,0,0,0,0,1,0,0,0,0,0,0,0,900,
scooby_state_401cdb|47|-2 2,897,0,0,1,0,0,0,0,0,0,0,0,0,0,900,
scooby_state_401cdb|49|-2 1,896,0,0,0,0,0,0,0,1,1,0,0,0,0,899,
scooby_state_401d43|50|1 1,896,0,1,0,0,1,0,0,0,0,0,0,0,0,899,
scooby_state_401d14|59|-1 0,897,0,0,0,0,1,0,0,0,0,0,0,0,0,898,
scooby_state_401d14|50|-1 1,896,0,0,0,0,0,0,0,0,0,0,0,0,0,897,
scooby_state_401cdb|52|-2 1,896,0,0,0,0,0,0,0,0,0,0,0,0,0,897,
scooby_state_401d14|32|-1 0,896,0,0,0,0,0,0,0,0,0,0,0,1,0,897,
scooby_state_401d43|53|1 3,894,0,0,0,0,0,0,0,0,0,0,0,0,0,897,
scooby_state_401cdb|32|-2 1,893,1,0,1,1,0,0,0,0,0,0,0,0,0,897,
scooby_state_401d43|33|1 0,897,0,0,0,0,0,0,0,0,0,0,0,0,0,897,
scooby_state_401d14|2|-1 0,892,0,0,0,0,1,0,1,0,0,1,1,0,0,896,
scooby_state_401d14|22|-1 1,894,0,0,0,0,0,0,0,0,0,0,0,1,0,896,
scooby_state_401d43|10|1 0,895,0,0,0,0,0,0,0,0,0,0,0,0,1,896,
scooby_state_401cdb|9|-2 1,895,0,0,0,0,0,0,0,0,0,0,0,0,0,896,
scooby_state_401d43|4|1 0,895,0,0,0,0,0,0,0,0,0,0,0,0,0,895,
scooby_state_401d14|62|-1 0,895,0,0,0,0,0,0,0,0,0,0,0,0,0,895,
scooby_state_401cdb|3|-2 0,892,0,0,0,0,0,0,0,0,0,0,1,1,0,894,
scooby_state_401cdb|36|-2 0,890,0,0,0,0,1,0,0,0,1,0,0,1,0,893,
scooby_state_401d43|37|1 0,892,0,0,0,0,0,0,0,0,1,0,0,0,0,893,
scooby_state_401d14|44|-1 1,889,0,2,0,0,1,0,0,0,0,0,0,0,0,893,
scooby_state_401d14|7|-1 0,889,0,0,0,1,0,0,0,1,0,0,0,1,1,893,
scooby_state_401d14|52|-1 0,892,0,0,0,0,1,0,0,0,0,0,0,0,0,893,
scooby_state_401cdb|5|-2 1,890,0,0,0,0,0,1,0,0,0,0,0,0,0,892,
scooby_state_401cdb|44|-2 2,888,0,0,0,0,1,0,0,0,0,0,1,0,0,892,
scooby_state_401d43|45|1 2,889,0,0,0,0,0,0,1,0,0,0,0,0,0,892,
scooby_state_401d14|8|-1 0,890,0,0,0,0,1,0,0,0,1,0,0,0,0,892,
scooby_state_401d43|6|1 1,889,0,0,0,0,1,0,0,0,1,0,0,0,0,892,
scooby_state_401d14|30|-1 0,890,0,0,0,0,0,0,0,0,0,0,0,0,1,891,
scooby_state_401cdb|35|-2 2,886,0,0,1,0,0,0,0,0,0,0,0,0,1,890,
scooby_state_401d43|24|1 0,888,0,0,0,0,0,0,0,1,0,0,1,0,0,890,
scooby_state_401cdb|23|-2 2,886,0,0,0,0,0,0,1,1,0,0,0,0,0,890,
scooby_state_401d43|36|1 1,888,0,0,0,0,0,1,0,0,0,0,0,0,0,890,
scooby_state_401d43|26|1 0,889,0,0,0,0,0,0,0,0,0,0,0,0,0,889,
scooby_state_401d43|13|1 0,886,0,1,0,0,0,0,1,0,0,0,0,0,1,889,
scooby_state_401d43|8|1 0,889,0,0,0,0,0,0,0,0,0,0,0,0,0,889,
scooby_state_401cdb|25|-2 1,888,0,0,0,0,0,0,0,0,0,0,0,0,0,889,
scooby_state_401cdb|7|-2 1,887,0,0,0,0,0,0,0,0,1,0,0,0,0,889,
scooby_state_401cdb|12|-2 0,888,0,0,0,0,0,0,0,0,1,0,0,0,0,889,
scooby_state_401cdb|59|-2 1,885,0,1,0,0,0,1,0,0,0,0,0,1,0,889,
scooby_state_401d43|60|1 0,889,0,0,0,0,0,0,0,0,0,0,0,0,0,889,
scooby_state_401d14|28|-1 1,885,0,0,0,0,2,0,0,0,0,0,0,0,0,888,
scooby_state_401cdb|43|-2 2,885,0,0,0,0,0,0,0,0,0,1,0,0,0,888,
scooby_state_401cdb|15|-2 1,886,0,0,0,0,0,0,1,0,0,0,0,0,0,888,
scooby_state_401d43|16|1 1,886,1,0,0,0,0,0,0,0,0,0,0,0,0,888,
scooby_state_401d43|44|1 0,888,0,0,0,0,0,0,0,0,0,0,0,0,0,888,
scooby_state_401cdb|24|-2 1,886,0,0,0,0,0,0,0,0,1,0,0,0,0,888,
scooby_state_401d43|25|1 1,884,0,0,0,0,0,0,0,1,1,0,0,1,0,888,
scooby_state_401d14|14|-1 1,886,0,0,0,0,0,0,0,1,0,0,0,0,0,888,
scooby_state_401d43|61|1 0,887,0,0,0,0,0,0,0,0,0,0,0,0,0,887,
scooby_state_401cdb|60|-2 1,885,0,0,0,0,0,0,0,0,0,1,0,0,0,887,
scooby_state_401cdb|19|-2 1,884,0,0,0,0,0,0,0,0,1,0,0,0,0,886,
scooby_state_401d43|38|1 1,883,0,0,1,0,0,0,0,1,0,0,0,0,0,886,
scooby_state_401d43|20|1 1,885,0,0,0,0,0,0,0,0,0,0,0,0,0,886,
scooby_state_401cdb|37|-2 2,884,0,0,0,0,0,0,0,0,0,0,0,0,0,886,
scooby_state_401d14|40|-1 1,884,0,0,0,0,0,0,0,0,0,0,0,0,0,885,
scooby_state_401d14|20|-1 0,885,0,0,0,0,0,0,0,0,0,0,0,0,0,885,
scooby_state_401cdb|55|-2 3,882,0,0,0,0,0,0,0,0,0,0,0,0,0,885,
scooby_state_401d14|42|-1 1,884,0,0,0,0,0,0,0,0,0,0,0,0,0,885,
scooby_state_401d14|12|-1 0,885,0,0,0,0,0,0,0,0,0,0,0,0,0,885,
scooby_state_401d14|10|-1 0,880,0,1,1,1,0,1,0,1,0,0,0,0,0,885,
scooby_state_401d43|56|1 1,884,0,0,0,0,0,0,0,0,0,0,0,0,0,885,
scooby_state_401d14|35|-1 0,879,0,0,1,0,0,1,0,0,0,0,0,0,0,881,
scooby_state_401d43|21|1 0,880,0,0,0,0,0,0,0,0,0,1,0,0,0,881,
scooby_state_401cdb|20|-2 0,881,0,0,0,0,0,0,0,0,0,0,0,0,0,881,
scooby_state_401d14|38|-1 1,878,0,0,0,0,0,0,0,0,0,0,0,0,1,880,
scooby_state_401cdb|63|2 75,802,0,0,1,0,0,0,0,0,0,0,0,0,2,880,
scooby_state_401d14|6|-1 0,879,0,0,0,0,0,0,0,0,0,0,0,0,0,879,
scooby_state_401d43|57|1 1,874,0,0,0,0,0,0,0,1,1,0,0,0,0,877,
scooby_state_401d43|14|1 0,872,2,0,0,0,0,0,0,0,1,0,0,0,1,876,
scooby_state_401cdb|13|-2 0,875,0,0,0,0,0,0,1,0,0,0,0,0,0,876,
scooby_state_401cdb|56|-2 1,872,0,0,0,2,0,0,1,0,0,0,0,0,0,876,
scooby_state_401d14|58|-1 1,872,0,0,0,0,1,1,0,0,0,0,1,0,0,876,
scooby_state_401d14|36|-1 0,869,0,0,0,0,1,1,0,1,0,1,0,0,2,875,
scooby_state_401d14|23|-1 0,872,0,0,0,0,0,0,0,1,0,0,0,0,0,873,
scooby_state_401d14|55|-1 1,869,1,0,0,0,0,0,0,0,0,1,0,0,0,872,
scooby_state_401d43|46|1 1,869,0,0,0,0,1,0,0,0,0,0,0,0,0,871,
scooby_state_401cdb|53|-2 0,867,0,0,0,0,1,1,0,1,0,0,0,1,0,871,
scooby_state_401cdb|45|-2 4,865,0,0,0,0,0,1,0,0,0,0,1,0,0,871,
scooby_state_401d43|54|1 0,870,0,0,0,0,0,0,0,1,0,0,0,0,0,871,
scooby_state_401d43|22|1 1,868,1,0,0,0,0,0,0,0,0,0,0,0,0,870,
scooby_state_401cdb|21|-2 2,866,1,0,0,0,0,0,0,0,0,0,0,1,0,870,
scooby_state_401d14|39|-1 0,865,0,1,1,0,0,0,1,0,0,0,0,0,2,870,
scooby_state_401d14|26|-1 1,868,0,0,0,0,0,0,0,0,0,0,1,0,0,870,
scooby_state_401d43|49|1 0,868,0,0,1,0,0,0,0,0,0,0,0,0,0,869,
scooby_state_401cdb|48|-2 2,864,0,1,1,0,0,0,0,0,0,1,0,0,0,869,
scooby_state_401d43|9|1 0,866,0,0,1,0,0,0,0,0,0,0,1,0,0,868,
scooby_state_401d14|43|-1 2,866,0,0,0,0,0,0,0,0,0,0,0,0,0,868,
scooby_state_401cdb|8|-2 0,866,0,0,0,0,0,0,0,0,0,0,2,0,0,868,
scooby_state_401cdb|4|-2 2,865,0,0,0,0,0,0,0,0,0,0,0,0,0,867,
scooby_state_401d43|5|1 0,864,0,1,0,0,0,0,0,1,0,0,0,0,0,866,
scooby_state_401d14|27|-1 0,862,0,0,0,0,0,0,0,0,0,0,0,0,1,863,
scooby_state_401d43|2|1 0,860,0,0,0,0,1,0,1,0,0,0,0,0,1,863,
scooby_state_401cdb|1|-2 1,861,0,0,0,0,0,1,0,0,0,0,0,0,0,863,
scooby_state_401d14|51|-1 0,859,0,0,1,1,0,0,0,0,0,1,0,1,0,863,
scooby_state_401d14|48|-1 1,860,0,0,0,0,1,0,0,0,0,0,0,0,0,862,
scooby_state_401d14|4|-1 0,859,0,0,0,0,1,1,0,0,0,0,0,0,0,861,
scooby_state_401d14|11|-1 0,856,0,1,0,0,0,0,0,0,0,0,0,1,0,858,
scooby_state_401d14|19|-1 1,855,0,0,1,0,0,0,0,0,0,0,0,0,0,857,
scooby_state_401cdb|16|-2 3,854,0,0,0,0,0,0,0,0,0,0,0,0,0,857,
scooby_state_401cdb|28|-2 2,855,0,0,0,0,0,0,0,0,0,0,0,0,0,857,
scooby_state_401d43|29|1 1,854,0,0,0,0,0,2,0,0,0,0,0,0,0,857,
scooby_state_401d43|17|1 1,854,0,0,0,0,1,0,0,0,0,0,0,0,0,856,
scooby_state_401d14|16|-1 0,853,0,0,0,0,0,0,0,0,0,0,0,0,0,853,
scooby_state_401d43|41|1 1,849,0,1,0,0,0,0,0,0,0,0,0,0,0,851,
scooby_state_401cdb|40|-2 2,849,0,0,0,0,0,0,0,0,0,0,0,0,0,851,
scooby_state_401d14|0|-1 0,847,0,1,0,0,0,0,0,0,0,0,0,0,0,848,
scooby_state_401d14|24|-1 1,844,0,0,0,0,1,0,0,0,0,0,1,1,0,848,
scooby_state_401d43|34|1 0,846,0,0,0,0,0,0,0,0,0,0,0,0,0,846,
scooby_state_401cdb|33|-2 1,844,0,0,0,0,0,0,0,0,0,0,0,0,0,845,
scooby_state_401d14|56|-1 0,842,0,0,0,0,0,0,0,0,0,0,0,0,0,842,
scooby_state_401d14|63|2 1,839,0,0,0,0,0,1,0,0,0,0,0,0,0,841,
scooby_state_401d14|31|-1 0,839,0,0,1,0,0,0,0,0,0,0,0,0,0,840,
scooby_state_401d43|0|-1 1,835,0,0,1,0,0,0,1,0,1,0,0,0,0,839,
scooby_state_401cdb|50|-2 3,824,0,0,0,0,0,0,0,0,0,0,0,1,0,828,
scooby_state_401d43|51|1 1,825,0,0,1,0,0,0,0,0,0,0,0,1,0,828,
scooby_state_401d43|1|1 0,822,0,0,0,1,0,0,0,0,1,0,1,0,1,826,
scooby_state_401d14|5|-1 0,818,0,0,0,0,0,0,0,0,0,0,0,0,1,819,
scooby_state_401d14|33|-1 1,814,0,0,0,0,0,0,0,0,0,0,0,1,0,816,
scooby_state_401d43|35|1 0,812,0,1,0,0,0,0,0,0,0,0,0,1,0,814,
scooby_state_401cdb|34|-2 1,811,0,0,0,0,0,0,0,0,1,0,0,0,1,814,
scooby_state_401d14|49|-1 1,810,0,1,0,0,0,0,0,1,0,0,0,0,0,813,
scooby_state_401d14|53|-1 2,810,0,1,0,0,0,0,0,0,0,0,0,0,0,813,
scooby_state_401d14|41|-1 0,812,0,0,0,0,0,0,0,0,0,0,0,0,0,812,
scooby_state_401cdb|10|-2 0,811,0,0,0,0,0,0,0,0,0,1,0,0,0,812,
scooby_state_401d43|11|1 0,812,0,0,0,0,0,0,0,0,0,0,0,0,0,812,
scooby_state_401d14|25|-1 0,810,0,0,0,0,0,0,0,0,0,0,0,0,0,810,
scooby_state_401cdb|42|-2 1,806,0,0,0,0,0,0,0,0,0,0,0,0,0,807,
scooby_state_401d43|43|1 1,804,0,0,1,0,0,0,0,1,0,0,0,0,0,807,
scooby_state_401d14|37|-1 0,805,0,0,0,0,0,0,0,0,0,0,0,0,0,805,
scooby_state_401d14|1|-1 1,803,0,0,0,0,0,0,0,0,0,0,0,0,0,804,
scooby_state_401d14|13|-1 0,801,0,0,1,0,0,0,1,0,0,0,0,0,0,803,
scooby_state_401d14|17|-1 1,798,0,0,1,0,0,0,0,0,0,0,0,1,0,801,
scooby_state_401cdb|18|-2 1,796,0,0,0,1,0,0,0,1,0,0,0,1,0,800,
scooby_state_401d14|29|-1 0,796,2,0,0,0,0,0,0,0,1,0,1,0,0,800,
scooby_state_401d43|19|1 0,800,0,0,0,0,0,0,0,0,0,0,0,0,0,800,
scooby_state_401cdb|62|2 72,724,0,0,0,1,0,1,0,0,0,0,0,0,0,798,
scooby_state_401d43|39|1 0,798,0,0,0,0,0,0,0,0,0,0,0,0,0,798,
scooby_state_401cdb|38|-2 2,795,0,0,0,0,0,0,0,1,0,0,0,0,0,798,
scooby_state_401d14|9|-1 1,793,1,0,0,0,0,0,0,0,0,1,1,0,0,797,
scooby_state_401d14|21|-1 1,795,1,0,0,0,0,0,0,0,0,0,0,0,0,797,
scooby_state_401cdb|2|-2 0,796,0,0,0,0,0,0,0,0,0,0,0,0,0,796,
scooby_state_401d43|23|1 0,792,0,0,0,0,0,1,1,0,0,0,0,0,0,794,
scooby_state_401cdb|22|-2 0,791,0,0,0,0,0,1,0,0,0,0,1,0,1,794,
scooby_state_401d43|3|1 0,793,0,0,0,0,0,0,0,0,0,0,0,0,0,793,
scooby_state_401cdb|58|-2 1,790,0,0,0,0,0,0,0,1,0,0,0,0,0,792,
scooby_state_401d43|63|1 1,791,0,0,0,0,0,0,0,0,0,0,0,0,0,792,
scooby_state_401d43|59|1 0,792,0,0,0,0,0,0,0,0,0,0,0,0,0,792,
scooby_state_401cdb|30|-2 2,788,0,0,0,0,0,0,0,0,0,1,0,0,0,791,
scooby_state_401d43|31|1 1,787,0,2,0,0,0,1,0,0,0,0,0,0,0,791,
scooby_state_401cdb|26|-2 1,790,0,0,0,0,0,0,0,0,0,0,0,0,0,791,
scooby_state_401d43|27|1 0,789,1,0,0,0,0,0,0,0,0,0,0,0,0,790,
scooby_state_401d14|57|-1 0,790,0,0,0,0,0,0,0,0,0,0,0,0,0,790,
scooby_state_401d14|45|-1 1,787,0,0,0,0,1,0,0,0,0,0,0,0,0,789,
scooby_state_401d14|61|-1 0,787,0,1,0,0,0,0,0,0,0,0,0,0,0,788,
scooby_state_401cdb|46|-2 1,786,0,0,0,0,0,0,0,0,0,0,0,0,0,787,
scooby_state_401d43|47|1 1,783,0,0,0,0,0,1,0,0,1,0,0,0,0,786,
scooby_state_401cdb|14|-2 2,776,0,0,0,1,0,0,1,0,0,0,0,0,0,780,
scooby_state_401d43|7|1 0,779,0,1,0,0,0,0,0,0,0,0,0,0,0,780,
scooby_state_401cdb|6|-2 1,778,0,0,0,0,1,0,0,0,0,0,0,0,0,780,
scooby_state_401d43|15|1 1,777,0,0,0,0,0,0,0,0,0,1,0,0,0,779,
scooby_state_401cdb|54|-2 0,767,0,0,0,0,0,0,0,0,0,0,0,0,0,767,
scooby_state_401d43|55|1 0,766,0,0,0,0,0,0,0,0,0,0,0,0,1,767,
scooby_state_401cdb|0|-2 0,730,0,0,0,0,0,0,1,0,0,0,0,0,0,731,
scooby_state_4023cc|43|1 1,206,0,0,0,0,0,0,0,0,0,0,0,0,0,207,
scooby_state_40208c|42|1 168,0,0,0,0,0,0,0,0,0,0,0,0,0,0,168,
scooby_state_40206d|41|-2 159,0,0,0,0,0,0,0,0,0,0,0,0,0,0,159,
scooby_state_40206d|41|-1 28,56,0,0,0,0,0,0,0,0,0,0,0,0,0,84,
scooby_state_4023cc|43|2 0,83,0,0,0,0,0,0,0,0,0,0,0,0,0,83,
scooby_state_401d37|0|-2 67,0,0,0,0,0,0,0,0,0,0,0,0,0,0,67,
scooby_state_401e02|0|-1 64,0,0,0,0,0,0,0,0,0,0,0,0,0,0,64,
scooby_state_401cdb|0|-1 0,63,0,0,0,0,0,0,0,0,0,0,0,0,0,63,
scooby_state_40206d|41|0 50,0,0,0,0,0,0,0,0,0,0,0,0,0,0,50,
scooby_state_40208c|42|-1 20,27,0,0,0,0,0,0,0,0,0,0,0,0,0,47,
scooby_state_402065|42|-1 0,46,0,0,0,0,0,0,0,0,0,0,0,0,0,46,
scooby_state_401d98|1|-1 44,0,0,0,0,0,0,0,0,0,0,0,0,0,0,44,
scooby_state_401d37|0|-1 42,0,0,0,0,0,0,0,0,0,0,0,0,0,0,42,
scooby_state_401e74|19|1 0,33,0,0,0,0,0,0,0,0,0,0,0,0,0,33,
scooby_state_401ce6|0|-2 31,0,0,0,0,0,0,0,0,0,0,0,0,0,0,31,
scooby_state_401d98|0|-1 30,0,0,0,0,0,0,0,0,0,0,0,0,0,0,30,
scooby_state_401e74|17|1 0,30,0,0,0,0,0,0,0,0,0,0,0,0,0,30,
scooby_state_401e74|0|-1 0,29,0,0,0,0,0,0,0,0,0,0,0,0,0,29,
scooby_state_402065|42|1 25,0,0,0,0,0,0,0,0,0,0,0,0,0,0,25,
scooby_state_401e74|16|1 0,24,0,0,0,0,0,0,0,0,0,0,0,0,0,24,
scooby_state_401e74|15|1 0,24,0,0,0,0,0,0,0,0,0,0,0,0,0,24,
scooby_state_401e74|1|-1 0,23,0,0,0,0,0,0,0,0,0,0,0,0,0,23,
scooby_state_40208c|42|0 22,0,0,0,0,0,0,0,0,0,0,0,0,0,0,22,
scooby_state_401e74|2|1 0,21,0,0,0,0,0,0,0,0,0,0,0,0,0,21,
scooby_state_401e74|55|1 0,19,0,0,0,0,0,0,0,0,0,0,0,0,0,19,
scooby_state_401e74|54|1 0,19,0,0,0,0,0,0,0,0,0,0,0,0,0,19,
scooby_state_401e74|48|1 0,17,0,0,0,0,0,0,0,0,0,0,0,0,0,17,
scooby_state_401e19|0|-2 0,17,0,0,0,0,0,0,0,0,0,0,0,0,0,17,
scooby_state_401e74|46|1 0,17,0,0,0,0,0,0,0,0,0,0,0,0,0,17,
scooby_state_401e74|3|1 0,17,0,0,0,0,0,0,0,0,0,0,0,0,0,17,
scooby_state_401e81|0|-1 0,16,0,0,0,0,0,0,0,0,0,0,0,0,0,16,
scooby_state_4023cc|43|0 0,16,0,0,0,0,0,0,0,0,0,0,0,0,0,16,
scooby_state_402065|42|0 16,0,0,0,0,0,0,0,0,0,0,0,0,0,0,16,
scooby_state_401e74|63|1 0,16,0,0,0,0,0,0,0,0,0,0,0,0,0,16,
scooby_state_401e74|57|1 0,15,0,0,0,0,0,0,0,0,0,0,0,0,0,15,
scooby_state_401e74|56|1 0,15,0,0,0,0,0,0,0,0,0,0,0,0,0,15,
scooby_state_401e74|59|1 0,14,0,0,0,0,0,0,0,0,0,0,0,0,0,14,
scooby_state_401e81|37|1 0,14,0,0,0,0,0,0,0,0,0,0,0,0,0,14,
scooby_state_401e4d|51|-1 14,0,0,0,0,0,0,0,0,0,0,0,0,0,0,14,
scooby_state_401d4f|0|-1 0,13,0,0,0,0,0,0,0,0,0,0,0,0,0,13,
scooby_state_401e40|63|2 13,0,0,0,0,0,0,0,0,0,0,0,0,0,0,13,
scooby_state_401e40|3|-1 12,0,0,0,0,0,0,0,0,0,0,0,0,0,0,12,
scooby_state_401e81|39|1 0,12,0,0,0,0,0,0,0,0,0,0,0,0,0,12,
scooby_state_401e4d|53|-1 12,0,0,0,0,0,0,0,0,0,0,0,0,0,0,12,
scooby_state_401d4f|63|1 0,11,0,0,0,0,0,0,0,0,0,0,0,0,0,11,
scooby_state_401e67|1|-1 0,11,0,0,0,0,0,0,0,0,0,0,0,0,0,11,
scooby_state_401e74|47|1 0,11,0,0,0,0,0,0,0,0,0,0,0,0,0,11,
scooby_state_401dac|1|-1 11,0,0,0,0,0,0,0,0,0,0,0,0,0,0,11,
scooby_state_401e8e|0|-1 11,0,0,0,0,0,0,0,0,0,0,0,0,0,0,11,
scooby_state_401e4d|61|-1 11,0,0,0,0,0,0,0,0,0,0,0,0,0,0,11,
scooby_state_401e40|15|-1 11,0,0,0,0,0,0,0,0,0,0,0,0,0,0,11,
scooby_state_401e40|2|-1 11,0,0,0,0,0,0,0,0,0,0,0,0,0,0,11,
scooby_state_401ea8|1|-1 10,0,0,0,0,0,0,0,0,0,0,0,0,0,0,10,
scooby_state_401e5a|0|-2 10,0,0,0,0,0,0,0,0,0,0,0,0,0,0,10,
scooby_state_401e26|0|-2 0,10,0,0,0,0,0,0,0,0,0,0,0,0,0,10,
scooby_state_401e4d|38|-1 10,0,0,0,0,0,0,0,0,0,0,0,0,0,0,10,
scooby_state_401e4d|40|-1 10,0,0,0,0,0,0,0,0,0,0,0,0,0,0,10,
scooby_state_401cb0|3|2 10,0,0,0,0,0,0,0,0,0,0,0,0,0,0,10,
scooby_state_401dac|0|-1 10,0,0,0,0,0,0,0,0,0,0,0,0,0,0,10,
scooby_state_401e4d|54|-1 10,0,0,0,0,0,0,0,0,0,0,0,0,0,0,10,
scooby_state_401e4d|14|-1 9,0,0,0,0,0,0,0,0,0,0,0,0,0,0,9,
scooby_state_401e74|38|1 0,9,0,0,0,0,0,0,0,0,0,0,0,0,0,9,
scooby_state_401e9b|0|-1 0,9,0,0,0,0,0,0,0,0,0,0,0,0,0,9,
scooby_state_401e5a|0|-1 9,0,0,0,0,0,0,0,0,0,0,0,0,0,0,9,
scooby_state_401e81|4|1 0,9,0,0,0,0,0,0,0,0,0,0,0,0,0,9,
scooby_state_401e40|14|-1 9,0,0,0,0,0,0,0,0,0,0,0,0,0,0,9,
scooby_state_401e4d|29|-1 9,0,0,0,0,0,0,0,0,0,0,0,0,0,0,9,
scooby_state_401e4d|57|-1 9,0,0,0,0,0,0,0,0,0,0,0,0,0,0,9,
scooby_state_401e74|49|1 0,9,0,0,0,0,0,0,0,0,0,0,0,0,0,9,
scooby_state_401e4d|0|-1 9,0,0,0,0,0,0,0,0,0,0,0,0,0,0,9,
scooby_state_401e19|3|-2 0,9,0,0,0,0,0,0,0,0,0,0,0,0,0,9,
scooby_state_401e67|0|-3 0,9,0,0,0,0,0,0,0,0,0,0,0,0,0,9,
scooby_state_401e33|2|2 0,9,0,0,0,0,0,0,0,0,0,0,0,0,0,9,
scooby_state_401e4d|36|-1 9,0,0,0,0,0,0,0,0,0,0,0,0,0,0,9,
scooby_state_401e74|7|1 0,9,0,0,0,0,0,0,0,0,0,0,0,0,0,9,
scooby_state_401e4d|1|-1 9,0,0,0,0,0,0,0,0,0,0,0,0,0,0,9,
scooby_state_401e40|16|-1 8,0,0,0,0,0,0,0,0,0,0,0,0,0,0,8,
scooby_state_401e74|26|1 0,8,0,0,0,0,0,0,0,0,0,0,0,0,0,8,
scooby_state_401e74|45|1 0,8,0,0,0,0,0,0,0,0,0,0,0,0,0,8,
scooby_state_401e4d|21|-1 8,0,0,0,0,0,0,0,0,0,0,0,0,0,0,8,
scooby_state_401e40|11|-1 8,0,0,0,0,0,0,0,0,0,0,0,0,0,0,8,
scooby_state_401e40|7|-1 8,0,0,0,0,0,0,0,0,0,0,0,0,0,0,8,
scooby_state_401e19|1|-2 0,8,0,0,0,0,0,0,0,0,0,0,0,0,0,8,
scooby_state_401e4d|2|-1 8,0,0,0,0,0,0,0,0,0,0,0,0,0,0,8,
scooby_state_401e4d|37|-1 8,0,0,0,0,0,0,0,0,0,0,0,0,0,0,8,
scooby_state_401e9b|1|-1 0,8,0,0,0,0,0,0,0,0,0,0,0,0,0,8,
scooby_state_401e4d|45|-1 8,0,0,0,0,0,0,0,0,0,0,0,0,0,0,8,
scooby_state_401e4d|6|-1 8,0,0,0,0,0,0,0,0,0,0,0,0,0,0,8,
scooby_state_401e4d|63|2 8,0,0,0,0,0,0,0,0,0,0,0,0,0,0,8,
scooby_state_401e74|58|1 0,8,0,0,0,0,0,0,0,0,0,0,0,0,0,8,
scooby_state_401e74|51|1 0,8,0,0,0,0,0,0,0,0,0,0,0,0,0,8,
scooby_state_401e4d|23|-1 8,0,0,0,0,0,0,0,0,0,0,0,0,0,0,8,
scooby_state_401e4d|20|-1 8,0,0,0,0,0,0,0,0,0,0,0,0,0,0,8,
scooby_state_401e81|1|-1 0,8,0,0,0,0,0,0,0,0,0,0,0,0,0,8,
scooby_state_401e40|50|-1 8,0,0,0,0,0,0,0,0,0,0,0,0,0,0,8,
scooby_state_401e4d|59|-1 8,0,0,0,0,0,0,0,0,0,0,0,0,0,0,8,
scooby_state_401e4d|30|-1 8,0,0,0,0,0,0,0,0,0,0,0,0,0,0,8,
scooby_state_401e81|10|1 0,7,0,0,0,0,0,0,0,0,0,0,0,0,0,7,
scooby_state_401e40|17|-1 7,0,0,0,0,0,0,0,0,0,0,0,0,0,0,7,
scooby_state_401e4d|50|-1 7,0,0,0,0,0,0,0,0,0,0,0,0,0,0,7,
scooby_state_401e40|18|-1 7,0,0,0,0,0,0,0,0,0,0,0,0,0,0,7,
scooby_state_401e40|44|-1 7,0,0,0,0,0,0,0,0,0,0,0,0,0,0,7,
scooby_state_401e74|8|1 0,7,0,0,0,0,0,0,0,0,0,0,0,0,0,7,
scooby_state_401e40|25|-1 7,0,0,0,0,0,0,0,0,0,0,0,0,0,0,7,
scooby_state_401e4d|56|-1 7,0,0,0,0,0,0,0,0,0,0,0,0,0,0,7,
scooby_state_401e40|53|-1 7,0,0,0,0,0,0,0,0,0,0,0,0,0,0,7,
scooby_state_401e81|18|1 0,7,0,0,0,0,0,0,0,0,0,0,0,0,0,7,
scooby_state_401e40|0|-2 7,0,0,0,0,0,0,0,0,0,0,0,0,0,0,7,
scooby_state_401ea8|0|-1 7,0,0,0,0,0,0,0,0,0,0,0,0,0,0,7,
scooby_state_401e40|58|-1 7,0,0,0,0,0,0,0,0,0,0,0,0,0,0,7,
scooby_state_401e4d|17|-1 7,0,0,0,0,0,0,0,0,0,0,0,0,0,0,7,
scooby_state_401e74|25|1 0,7,0,0,0,0,0,0,0,0,0,0,0,0,0,7,
scooby_state_401e4d|60|-1 7,0,0,0,0,0,0,0,0,0,0,0,0,0,0,7,
scooby_state_401e74|4|1 0,7,0,0,0,0,0,0,0,0,0,0,0,0,0,7,
scooby_state_401e4d|46|-1 7,0,0,0,0,0,0,0,0,0,0,0,0,0,0,7,
scooby_state_401e4d|12|-1 7,0,0,0,0,0,0,0,0,0,0,0,0,0,0,7,
scooby_state_401e33|0|-2 0,7,0,0,0,0,0,0,0,0,0,0,0,0,0,7,
scooby_state_401e74|40|1 0,7,0,0,0,0,0,0,0,0,0,0,0,0,0,7,
scooby_state_401e74|39|1 0,7,0,0,0,0,0,0,0,0,0,0,0,0,0,7,
scooby_state_401e4d|16|-1 7,0,0,0,0,0,0,0,0,0,0,0,0,0,0,7,
scooby_state_401e74|41|1 0,7,0,0,0,0,0,0,0,0,0,0,0,0,0,7,
scooby_state_401e4d|58|-1 7,0,0,0,0,0,0,0,0,0,0,0,0,0,0,7,
scooby_state_401e4d|28|-1 7,0,0,0,0,0,0,0,0,0,0,0,0,0,0,7,
scooby_state_401e4d|11|-1 7,0,0,0,0,0,0,0,0,0,0,0,0,0,0,7,
scooby_state_401e19|17|-2 0,7,0,0,0,0,0,0,0,0,0,0,0,0,0,7,
scooby_state_401e74|31|1 0,7,0,0,0,0,0,0,0,0,0,0,0,0,0,7,
scooby_state_401e4d|43|-1 7,0,0,0,0,0,0,0,0,0,0,0,0,0,0,7,
scooby_state_401e40|23|-1 7,0,0,0,0,0,0,0,0,0,0,0,0,0,0,7,
scooby_state_401e4d|39|-1 7,0,0,0,0,0,0,0,0,0,0,0,0,0,0,7,
scooby_state_401e74|24|1 0,7,0,0,0,0,0,0,0,0,0,0,0,0,0,7,
scooby_state_401e4d|24|-1 7,0,0,0,0,0,0,0,0,0,0,0,0,0,0,7,
scooby_state_401e4d|26|-1 7,0,0,0,0,0,0,0,0,0,0,0,0,0,0,7,
scooby_state_401e81|57|1 0,6,0,0,0,0,0,0,0,0,0,0,0,0,0,6,
scooby_state_401e74|50|1 0,6,0,0,0,0,0,0,0,0,0,0,0,0,0,6,
scooby_state_401d1f|40|-1 0,6,0,0,0,0,0,0,0,0,0,0,0,0,0,6,
scooby_state_401e33|0|-4 0,6,0,0,0,0,0,0,0,0,0,0,0,0,0,6,
scooby_state_401e4d|48|-1 6,0,0,0,0,0,0,0,0,0,0,0,0,0,0,6,
scooby_state_401e74|21|1 0,6,0,0,0,0,0,0,0,0,0,0,0,0,0,6,
scooby_state_401e4d|13|-1 6,0,0,0,0,0,0,0,0,0,0,0,0,0,0,6,
scooby_state_401e19|2|-2 0,6,0,0,0,0,0,0,0,0,0,0,0,0,0,6,
scooby_state_401e02|2|2 6,0,0,0,0,0,0,0,0,0,0,0,0,0,0,6,
scooby_state_402058|41|-2 2,4,0,0,0,0,0,0,0,0,0,0,0,0,0,6,
scooby_state_401e81|46|1 0,6,0,0,0,0,0,0,0,0,0,0,0,0,0,6,
scooby_state_401e4d|47|-1 6,0,0,0,0,0,0,0,0,0,0,0,0,0,0,6,
scooby_state_401e74|60|1 0,6,0,0,0,0,0,0,0,0,0,0,0,0,0,6,
scooby_state_401e4d|27|-1 6,0,0,0,0,0,0,0,0,0,0,0,0,0,0,6,
scooby_state_401e40|1|-1 6,0,0,0,0,0,0,0,0,0,0,0,0,0,0,6,
scooby_state_401e19|20|-2 0,6,0,0,0,0,0,0,0,0,0,0,0,0,0,6,
scooby_state_401e4d|8|-1 6,0,0,0,0,0,0,0,0,0,0,0,0,0,0,6,
scooby_state_401e40|8|-1 6,0,0,0,0,0,0,0,0,0,0,0,0,0,0,6,
scooby_state_401e4d|7|-1 6,0,0,0,0,0,0,0,0,0,0,0,0,0,0,6,
scooby_state_401e74|9|1 0,6,0,0,0,0,0,0,0,0,0,0,0,0,0,6,
scooby_state_401e19|18|-2 0,6,0,0,0,0,0,0,0,0,0,0,0,0,0,6,
scooby_state_401e81|33|1 0,6,0,0,0,0,0,0,0,0,0,0,0,0,0,6,
scooby_state_401e74|14|1 0,6,0,0,0,0,0,0,0,0,0,0,0,0,0,6,
scooby_state_401e40|13|-1 6,0,0,0,0,0,0,0,0,0,0,0,0,0,0,6,
scooby_state_401e4d|62|-1 6,0,0,0,0,0,0,0,0,0,0,0,0,0,0,6,
scooby_state_401e74|36|1 0,6,0,0,0,0,0,0,0,0,0,0,0,0,0,6,
scooby_state_401e4d|44|-1 6,0,0,0,0,0,0,0,0,0,0,0,0,0,0,6,
scooby_state_401d1f|42|-1 0,6,0,0,0,0,0,0,0,0,0,0,0,0,0,6,
scooby_state_401e40|20|-1 6,0,0,0,0,0,0,0,0,0,0,0,0,0,0,6,
scooby_state_401e81|2|1 0,6,0,0,0,0,0,0,0,0,0,0,0,0,0,6,
scooby_state_401e8e|1|-1 6,0,0,0,0,0,0,0,0,0,0,0,0,0,0,6,
scooby_state_401e40|59|-1 6,0,0,0,0,0,0,0,0,0,0,0,0,0,0,6,
scooby_state_401e4d|22|-1 6,0,0,0,0,0,0,0,0,0,0,0,0,0,0,6,
scooby_state_401e4d|52|-1 6,0,0,0,0,0,0,0,0,0,0,0,0,0,0,6,
scooby_state_401e40|12|-1 6,0,0,0,0,0,0,0,0,0,0,0,0,0,0,6,
scooby_state_401d1f|50|-1 0,6,0,0,0,0,0,0,0,0,0,0,0,0,0,6,
scooby_state_401e40|61|-1 6,0,0,0,0,0,0,0,0,0,0,0,0,0,0,6,
scooby_state_401e4d|33|-1 5,0,0,0,0,0,0,0,0,0,0,0,0,0,0,5,
scooby_state_401e40|4|-1 5,0,0,0,0,0,0,0,0,0,0,0,0,0,0,5,
scooby_state_401e81|63|1 0,5,0,0,0,0,0,0,0,0,0,0,0,0,0,5,
scooby_state_401e40|6|-1 5,0,0,0,0,0,0,0,0,0,0,0,0,0,0,5,
scooby_state_401e19|21|-2 0,5,0,0,0,0,0,0,0,0,0,0,0,0,0,5,
scooby_state_401e40|60|-1 5,0,0,0,0,0,0,0,0,0,0,0,0,0,0,5,
scooby_state_401e81|56|1 0,5,0,0,0,0,0,0,0,0,0,0,0,0,0,5,
scooby_state_401e4d|49|-1 5,0,0,0,0,0,0,0,0,0,0,0,0,0,0,5,
scooby_state_401e81|7|1 0,5,0,0,0,0,0,0,0,0,0,0,0,0,0,5,
scooby_state_401e40|9|-1 5,0,0,0,0,0,0,0,0,0,0,0,0,0,0,5,
scooby_state_401e40|47|-1 5,0,0,0,0,0,0,0,0,0,0,0,0,0,0,5,
scooby_state_401e74|23|1 0,5,0,0,0,0,0,0,0,0,0,0,0,0,0,5,
scooby_state_401e4d|32|-1 5,0,0,0,0,0,0,0,0,0,0,0,0,0,0,5,
scooby_state_401d4f|1|-1 0,5,0,0,0,0,0,0,0,0,0,0,0,0,0,5,
scooby_state_401e81|54|1 0,5,0,0,0,0,0,0,0,0,0,0,0,0,0,5,
scooby_state_401e81|35|1 0,4,0,0,0,0,0,0,0,1,0,0,0,0,0,5,
scooby_state_401e40|57|-1 5,0,0,0,0,0,0,0,0,0,0,0,0,0,0,5,
scooby_state_401e4d|25|-1 5,0,0,0,0,0,0,0,0,0,0,0,0,0,0,5,
scooby_state_401e4d|55|-1 5,0,0,0,0,0,0,0,0,0,0,0,0,0,0,5,
scooby_state_401e40|19|-1 5,0,0,0,0,0,0,0,0,0,0,0,0,0,0,5,
scooby_state_401e40|48|-1 5,0,0,0,0,0,0,0,0,0,0,0,0,0,0,5,
scooby_state_401e40|32|-1 5,0,0,0,0,0,0,0,0,0,0,0,0,0,0,5,
scooby_state_401e19|4|-2 0,5,0,0,0,0,0,0,0,0,0,0,0,0,0,5,
scooby_state_401e81|58|1 1,4,0,0,0,0,0,0,0,0,0,0,0,0,0,5,
scooby_state_401e74|33|1 0,5,0,0,0,0,0,0,0,0,0,0,0,0,0,5,
scooby_state_401e40|31|-1 5,0,0,0,0,0,0,0,0,0,0,0,0,0,0,5,
scooby_state_401e81|51|1 0,5,0,0,0,0,0,0,0,0,0,0,0,0,0,5,
scooby_state_401d98|1|1 0,5,0,0,0,0,0,0,0,0,0,0,0,0,0,5,
scooby_state_401e81|3|1 0,5,0,0,0,0,0,0,0,0,0,0,0,0,0,5,
scooby_state_401e81|44|1 0,5,0,0,0,0,0,0,0,0,0,0,0,0,0,5,
scooby_state_401e74|12|1 0,5,0,0,0,0,0,0,0,0,0,0,0,0,0,5,
scooby_state_401e81|24|1 0,5,0,0,0,0,0,0,0,0,0,0,0,0,0,5,
scooby_state_401e40|10|-1 5,0,0,0,0,0,0,0,0,0,0,0,0,0,0,5,
scooby_state_401e4d|42|-1 5,0,0,0,0,0,0,0,0,0,0,0,0,0,0,5,
scooby_state_401e40|38|-1 5,0,0,0,0,0,0,0,0,0,0,0,0,0,0,5,
scooby_state_401e81|29|1 0,5,0,0,0,0,0,0,0,0,0,0,0,0,0,5,
scooby_state_401e81|34|1 0,5,0,0,0,0,0,0,0,0,0,0,0,0,0,5,
scooby_state_401e74|35|1 0,5,0,0,0,0,0,0,0,0,0,0,0,0,0,5,
scooby_state_401e74|18|1 0,4,0,0,0,0,0,0,0,0,0,0,0,0,0,4,
scooby_state_401e81|48|1 0,4,0,0,0,0,0,0,0,0,0,0,0,0,0,4,
scooby_state_401e4d|19|-1 4,0,0,0,0,0,0,0,0,0,0,0,0,0,0,4,
scooby_state_401e40|5|-1 4,0,0,0,0,0,0,0,0,0,0,0,0,0,0,4,
scooby_state_401d71|0|-1 4,0,0,0,0,0,0,0,0,0,0,0,0,0,0,4,
scooby_state_401e74|32|1 0,4,0,0,0,0,0,0,0,0,0,0,0,0,0,4,
scooby_state_401e74|37|1 0,4,0,0,0,0,0,0,0,0,0,0,0,0,0,4,
scooby_state_401e81|28|1 0,4,0,0,0,0,0,0,0,0,0,0,0,0,0,4,
scooby_state_401e40|54|-1 4,0,0,0,0,0,0,0,0,0,0,0,0,0,0,4,
scooby_state_401e74|30|1 0,4,0,0,0,0,0,0,0,0,0,0,0,0,0,4,
scooby_state_401e40|34|-1 4,0,0,0,0,0,0,0,0,0,0,0,0,0,0,4,
scooby_state_401e74|28|1 0,4,0,0,0,0,0,0,0,0,0,0,0,0,0,4,
scooby_state_401e81|14|1 0,4,0,0,0,0,0,0,0,0,0,0,0,0,0,4,
scooby_state_401e4d|9|-1 4,0,0,0,0,0,0,0,0,0,0,0,0,0,0,4,
scooby_state_401d1f|12|-1 0,4,0,0,0,0,0,0,0,0,0,0,0,0,0,4,
scooby_state_401d1f|51|-1 0,4,0,0,0,0,0,0,0,0,0,0,0,0,0,4,
scooby_state_401e40|62|-1 4,0,0,0,0,0,0,0,0,0,0,0,0,0,0,4,
scooby_state_401e74|27|1 0,4,0,0,0,0,0,0,0,0,0,0,0,0,0,4,
scooby_state_401e4d|10|-1 4,0,0,0,0,0,0,0,0,0,0,0,0,0,0,4,
scooby_state_401e81|22|1 0,4,0,0,0,0,0,0,0,0,0,0,0,0,0,4,
scooby_state_401e4d|41|-1 4,0,0,0,0,0,0,0,0,0,0,0,0,0,0,4,
scooby_state_401e4d|15|-1 4,0,0,0,0,0,0,0,0,0,0,0,0,0,0,4,
scooby_state_401e40|28|-1 4,0,0,0,0,0,0,0,0,0,0,0,0,0,0,4,
scooby_state_401e81|38|1 0,4,0,0,0,0,0,0,0,0,0,0,0,0,0,4,
scooby_state_401e81|9|1 0,4,0,0,0,0,0,0,0,0,0,0,0,0,0,4,
scooby_state_401e40|29|-1 4,0,0,0,0,0,0,0,0,0,0,0,0,0,0,4,
scooby_state_401d1f|36|-1 0,4,0,0,0,0,0,0,0,0,0,0,0,0,0,4,
scooby_state_401e40|51|-1 4,0,0,0,0,0,0,0,0,0,0,0,0,0,0,4,
scooby_state_401e40|42|-1 4,0,0,0,0,0,0,0,0,0,0,0,0,0,0,4,
scooby_state_401e19|19|-2 0,4,0,0,0,0,0,0,0,0,0,0,0,0,0,4,
scooby_state_401e40|46|-1 4,0,0,0,0,0,0,0,0,0,0,0,0,0,0,4,
scooby_state_401e81|12|1 0,4,0,0,0,0,0,0,0,0,0,0,0,0,0,4,
scooby_state_401e81|15|1 0,4,0,0,0,0,0,0,0,0,0,0,0,0,0,4,
scooby_state_401e74|44|1 0,4,0,0,0,0,0,0,0,0,0,0,0,0,0,4,
scooby_state_401d1f|14|-1 0,4,0,0,0,0,0,0,0,0,0,0,0,0,0,4,
scooby_state_401e81|55|1 0,4,0,0,0,0,0,0,0,0,0,0,0,0,0,4,
scooby_state_401d1f|29|-1 0,4,0,0,0,0,0,0,0,0,0,0,0,0,0,4,
scooby_state_401e40|22|-1 4,0,0,0,0,0,0,0,0,0,0,0,0,0,0,4,
scooby_state_401d1f|18|-1 0,4,0,0,0,0,0,0,0,0,0,0,0,0,0,4,
scooby_state_401e81|30|1 0,4,0,0,0,0,0,0,0,0,0,0,0,0,0,4,
scooby_state_401e74|29|1 0,3,0,0,0,0,0,0,0,0,1,0,0,0,0,4,
scooby_state_401ce6|62|2 4,0,0,0,0,0,0,0,0,0,0,0,0,0,0,4,
scooby_state_401e40|35|-1 4,0,0,0,0,0,0,0,0,0,0,0,0,0,0,4,
scooby_state_401e81|36|1 0,3,0,0,0,0,0,0,0,0,0,0,0,0,0,3,
scooby_state_401e40|21|-1 3,0,0,0,0,0,0,0,0,0,0,0,0,0,0,3,
scooby_state_401e81|40|1 0,3,0,0,0,0,0,0,0,0,0,0,0,0,0,3,
scooby_state_401e4d|18|-1 3,0,0,0,0,0,0,0,0,0,0,0,0,0,0,3,
scooby_state_401e40|55|-1 3,0,0,0,0,0,0,0,0,0,0,0,0,0,0,3,
scooby_state_401e74|34|1 0,3,0,0,0,0,0,0,0,0,0,0,0,0,0,3,
scooby_state_401d1f|39|-1 0,3,0,0,0,0,0,0,0,0,0,0,0,0,0,3,
scooby_state_401e81|50|1 0,3,0,0,0,0,0,0,0,0,0,0,0,0,0,3,
scooby_state_401d1f|62|-1 0,3,0,0,0,0,0,0,0,0,0,0,0,0,0,3,
scooby_state_401d4f|3|1 0,3,0,0,0,0,0,0,0,0,0,0,0,0,0,3,
scooby_state_401e40|36|-1 3,0,0,0,0,0,0,0,0,0,0,0,0,0,0,3,
scooby_state_401d1f|30|-1 0,3,0,0,0,0,0,0,0,0,0,0,0,0,0,3,
scooby_state_401e81|25|1 0,3,0,0,0,0,0,0,0,0,0,0,0,0,0,3,
scooby_state_401e74|52|1 0,3,0,0,0,0,0,0,0,0,0,0,0,0,0,3,
scooby_state_401e81|47|1 0,3,0,0,0,0,0,0,0,0,0,0,0,0,0,3,
scooby_state_401e40|52|-1 3,0,0,0,0,0,0,0,0,0,0,0,0,0,0,3,
scooby_state_401e0f|0|-2 3,0,0,0,0,0,0,0,0,0,0,0,0,0,0,3,
scooby_state_401e40|26|-1 3,0,0,0,0,0,0,0,0,0,0,0,0,0,0,3,
scooby_state_401e40|56|-1 3,0,0,0,0,0,0,0,0,0,0,0,0,0,0,3,
scooby_state_401e74|13|1 0,3,0,0,0,0,0,0,0,0,0,0,0,0,0,3,
scooby_state_401e81|31|1 0,3,0,0,0,0,0,0,0,0,0,0,0,0,0,3,
scooby_state_401d1f|10|-1 0,3,0,0,0,0,0,0,0,0,0,0,0,0,0,3,
scooby_state_401d1f|38|-1 0,3,0,0,0,0,0,0,0,0,0,0,0,0,0,3,
scooby_state_401e81|5|1 0,3,0,0,0,0,0,0,0,0,0,0,0,0,0,3,
scooby_state_401ce6|63|2 3,0,0,0,0,0,0,0,0,0,0,0,0,0,0,3,
scooby_state_401e74|42|1 0,3,0,0,0,0,0,0,0,0,0,0,0,0,0,3,
scooby_state_401e40|43|-1 3,0,0,0,0,0,0,0,0,0,0,0,0,0,0,3,
scooby_state_401e81|6|1 0,3,0,0,0,0,0,0,0,0,0,0,0,0,0,3,
scooby_state_401e81|61|1 0,3,0,0,0,0,0,0,0,0,0,0,0,0,0,3,
scooby_state_401e81|27|1 0,3,0,0,0,0,0,0,0,0,0,0,0,0,0,3,
scooby_state_401e81|62|1 0,3,0,0,0,0,0,0,0,0,0,0,0,0,0,3,
scooby_state_401e0f|54|-2 3,0,0,0,0,0,0,0,0,0,0,0,0,0,0,3,
scooby_state_401d1f|49|-1 0,3,0,0,0,0,0,0,0,0,0,0,0,0,0,3,
scooby_state_401d1f|58|-1 0,3,0,0,0,0,0,0,0,0,0,0,0,0,0,3,
scooby_state_401d1f|57|-1 0,3,0,0,0,0,0,0,0,0,0,0,0,0,0,3,
scooby_state_401d1f|44|-1 0,3,0,0,0,0,0,0,0,0,0,0,0,0,0,3,
scooby_state_401e0f|55|-2 3,0,0,0,0,0,0,0,0,0,0,0,0,0,0,3,
scooby_state_401e4d|0|-2 3,0,0,0,0,0,0,0,0,0,0,0,0,0,0,3,
scooby_state_401e81|49|1 0,3,0,0,0,0,0,0,0,0,0,0,0,0,0,3,
scooby_state_401e74|5|1 0,3,0,0,0,0,0,0,0,0,0,0,0,0,0,3,
scooby_state_401e40|0|-1 3,0,0,0,0,0,0,0,0,0,0,0,0,0,0,3,
scooby_state_401e81|17|1 0,3,0,0,0,0,0,0,0,0,0,0,0,0,0,3,
scooby_state_401e74|62|1 0,3,0,0,0,0,0,0,0,0,0,0,0,0,0,3,
scooby_state_401e81|43|1 0,3,0,0,0,0,0,0,0,0,0,0,0,0,0,3,
scooby_state_401e74|43|1 0,3,0,0,0,0,0,0,0,0,0,0,0,0,0,3,
scooby_state_401e4d|34|-1 3,0,0,0,0,0,0,0,0,0,0,0,0,0,0,3,
scooby_state_401e81|59|1 0,3,0,0,0,0,0,0,0,0,0,0,0,0,0,3,
scooby_state_401e74|6|1 0,3,0,0,0,0,0,0,0,0,0,0,0,0,0,3,
scooby_state_401e81|23|1 0,2,0,0,0,0,0,0,0,0,0,0,0,0,0,2,
scooby_state_401e0f|52|-2 2,0,0,0,0,0,0,0,0,0,0,0,0,0,0,2,
scooby_state_401e81|45|1 0,2,0,0,0,0,0,0,0,0,0,0,0,0,0,2,
scooby_state_401e81|32|1 0,2,0,0,0,0,0,0,0,0,0,0,0,0,0,2,
scooby_state_401d08|0|-2 2,0,0,0,0,0,0,0,0,0,0,0,0,0,0,2,
scooby_state_401e81|11|1 0,2,0,0,0,0,0,0,0,0,0,0,0,0,0,2,
scooby_state_401e81|21|1 0,2,0,0,0,0,0,0,0,0,0,0,0,0,0,2,
scooby_state_401e74|20|1 0,2,0,0,0,0,0,0,0,0,0,0,0,0,0,2,
scooby_state_401e40|49|-1 2,0,0,0,0,0,0,0,0,0,0,0,0,0,0,2,
scooby_state_401e81|53|1 0,2,0,0,0,0,0,0,0,0,0,0,0,0,0,2,
scooby_state_401e40|41|-1 2,0,0,0,0,0,0,0,0,0,0,0,0,0,0,2,
scooby_state_401d1f|13|-1 0,2,0,0,0,0,0,0,0,0,0,0,0,0,0,2,
scooby_state_401e81|42|1 0,2,0,0,0,0,0,0,0,0,0,0,0,0,0,2,
scooby_state_401e4d|31|-1 2,0,0,0,0,0,0,0,0,0,0,0,0,0,0,2,
scooby_state_401e5a|58|-1 1,0,0,0,0,0,0,0,0,0,0,0,0,0,1,2,
scooby_state_401e74|11|1 0,2,0,0,0,0,0,0,0,0,0,0,0,0,0,2,
scooby_state_401e81|19|1 0,2,0,0,0,0,0,0,0,0,0,0,0,0,0,2,
scooby_state_401e81|41|1 0,2,0,0,0,0,0,0,0,0,0,0,0,0,0,2,
scooby_state_401cb0|4|2 2,0,0,0,0,0,0,0,0,0,0,0,0,0,0,2,
scooby_state_401e40|45|-1 2,0,0,0,0,0,0,0,0,0,0,0,0,0,0,2,
scooby_state_401e0f|47|-2 2,0,0,0,0,0,0,0,0,0,0,0,0,0,0,2,
scooby_state_401d1f|46|-1 0,2,0,0,0,0,0,0,0,0,0,0,0,0,0,2,
scooby_state_401d1f|31|-1 0,2,0,0,0,0,0,0,0,0,0,0,0,0,0,2,
scooby_state_401e74|61|1 0,2,0,0,0,0,0,0,0,0,0,0,0,0,0,2,
scooby_state_401d1f|45|-1 0,2,0,0,0,0,0,0,0,0,0,0,0,0,0,2,
scooby_state_401d1f|43|-1 0,2,0,0,0,0,0,0,0,0,0,0,0,0,0,2,
scooby_state_401e40|39|-1 2,0,0,0,0,0,0,0,0,0,0,0,0,0,0,2,
scooby_state_401e8e|19|1 2,0,0,0,0,0,0,0,0,0,0,0,0,0,0,2,
scooby_state_401d1f|17|-1 0,2,0,0,0,0,0,0,0,0,0,0,0,0,0,2,
scooby_state_401d1f|24|-1 0,2,0,0,0,0,0,0,0,0,0,0,0,0,0,2,
scooby_state_401e81|13|1 0,2,0,0,0,0,0,0,0,0,0,0,0,0,0,2,
scooby_state_401e67|2|-1 0,2,0,0,0,0,0,0,0,0,0,0,0,0,0,2,
scooby_state_401e40|37|-1 2,0,0,0,0,0,0,0,0,0,0,0,0,0,0,2,
scooby_state_401e81|60|1 0,2,0,0,0,0,0,0,0,0,0,0,0,0,0,2,
scooby_state_401d1f|35|-1 0,2,0,0,0,0,0,0,0,0,0,0,0,0,0,2,
scooby_state_401e5a|57|-1 2,0,0,0,0,0,0,0,0,0,0,0,0,0,0,2,
scooby_state_401d1f|60|-1 0,2,0,0,0,0,0,0,0,0,0,0,0,0,0,2,
scooby_state_401e40|24|-1 2,0,0,0,0,0,0,0,0,0,0,0,0,0,0,2,
scooby_state_401d1f|27|-1 0,2,0,0,0,0,0,0,0,0,0,0,0,0,0,2,
scooby_state_401d1f|22|-1 0,2,0,0,0,0,0,0,0,0,0,0,0,0,0,2,
scooby_state_401d1f|34|-1 0,2,0,0,0,0,0,0,0,0,0,0,0,0,0,2,
scooby_state_401e02|0|-4 2,0,0,0,0,0,0,0,0,0,0,0,0,0,0,2,
scooby_state_401e74|53|1 0,2,0,0,0,0,0,0,0,0,0,0,0,0,0,2,
scooby_state_401e81|8|1 0,2,0,0,0,0,0,0,0,0,0,0,0,0,0,2,
scooby_state_401d60|0|-1 0,2,0,0,0,0,0,0,0,0,0,0,0,0,0,2,
scooby_state_401e4d|35|-1 2,0,0,0,0,0,0,0,0,0,0,0,0,0,0,2,
scooby_state_401d1f|59|-1 0,2,0,0,0,0,0,0,0,0,0,0,0,0,0,2,
scooby_state_401d1f|6|-1 0,2,0,0,0,0,0,0,0,0,0,0,0,0,0,2,
scooby_state_401e19|60|-2 0,2,0,0,0,0,0,0,0,0,0,0,0,0,0,2,
scooby_state_401d1f|33|-1 0,2,0,0,0,0,0,0,0,0,0,0,0,0,0,2,
scooby_state_401d1f|32|-1 0,2,0,0,0,0,0,0,0,0,0,0,0,0,0,2,
scooby_state_401d1f|20|-1 0,2,0,0,0,0,0,0,0,0,0,0,0,0,0,2,
scooby_state_401e67|3|-1 0,1,0,0,0,0,0,0,0,0,0,0,0,0,0,1,
scooby_state_401e33|47|1 1,0,0,0,0,0,0,0,0,0,0,0,0,0,0,1,
scooby_state_402203|8|1 1,0,0,0,0,0,0,0,0,0,0,0,0,0,0,1,
scooby_state_402600|24|1 1,0,0,0,0,0,0,0,0,0,0,0,0,0,0,1,
scooby_state_4027cb|31|0 1,0,0,0,0,0,0,0,0,0,0,0,0,0,0,1,
scooby_state_401e40|30|-1 1,0,0,0,0,0,0,0,0,0,0,0,0,0,0,1,
scooby_state_402585|22|1 1,0,0,0,0,0,0,0,0,0,0,0,0,0,0,1,
scooby_state_4020c2|3|1 1,0,0,0,0,0,0,0,0,0,0,0,0,0,0,1,
scooby_state_402345|13|1 1,0,0,0,0,0,0,0,0,0,0,0,0,0,0,1,
scooby_state_401e0f|59|-2 1,0,0,0,0,0,0,0,0,0,0,0,0,0,0,1,
scooby_state_401e9b|48|1 1,0,0,0,0,0,0,0,0,0,0,0,0,0,0,1,
scooby_state_401e40|57|1 1,0,0,0,0,0,0,0,0,0,0,0,0,0,0,1,
scooby_state_402780|30|1 1,0,0,0,0,0,0,0,0,0,0,0,0,0,0,1,
scooby_state_401f00|60|6 1,0,0,0,0,0,0,0,0,0,0,0,0,0,0,1,
scooby_state_401d4f|47|1 0,1,0,0,0,0,0,0,0,0,0,0,0,0,0,1,
scooby_state_401df5|46|0 1,0,0,0,0,0,0,0,0,0,0,0,0,0,0,1,
scooby_state_401ce6|56|-2 1,0,0,0,0,0,0,0,0,0,0,0,0,0,0,1,
scooby_state_402183|6|1 1,0,0,0,0,0,0,0,0,0,0,0,0,0,0,1,
scooby_state_401e0f|44|-2 1,0,0,0,0,0,0,0,0,0,0,0,0,0,0,1,
scooby_state_401d4f|53|1 0,1,0,0,0,0,0,0,0,0,0,0,0,0,0,1,
scooby_state_401e02|56|1 1,0,0,0,0,0,0,0,0,0,0,0,0,0,0,1,
scooby_state_402642|25|1 1,0,0,0,0,0,0,0,0,0,0,0,0,0,0,1,
scooby_state_401e81|16|1 0,1,0,0,0,0,0,0,0,0,0,0,0,0,0,1,
scooby_state_401d1f|2|-1 0,1,0,0,0,0,0,0,0,0,0,0,0,0,0,1,
scooby_state_401e0f|35|-2 1,0,0,0,0,0,0,0,0,0,0,0,0,0,0,1,
scooby_state_401d87|1|-1 1,0,0,0,0,0,0,0,0,0,0,0,0,0,0,1,
scooby_state_401ce6|3|-2 1,0,0,0,0,0,0,0,0,0,0,0,0,0,0,1,
scooby_state_401d4f|40|1 1,0,0,0,0,0,0,0,0,0,0,0,0,0,0,1,
scooby_state_402304|12|1 1,0,0,0,0,0,0,0,0,0,0,0,0,0,0,1,
scooby_state_402100|4|1 1,0,0,0,0,0,0,0,0,0,0,0,0,0,0,1,
scooby_state_401d43|1|-1 0,1,0,0,0,0,0,0,0,0,0,0,0,0,0,1,
scooby_state_4024c4|19|1 1,0,0,0,0,0,0,0,0,0,0,0,0,0,0,1,
scooby_state_401e81|20|1 0,1,0,0,0,0,0,0,0,0,0,0,0,0,0,1,
scooby_state_401d82|54|1 1,0,0,0,0,0,0,0,0,0,0,0,0,0,0,1,
scooby_state_401fc1|63|1 1,0,0,0,0,0,0,0,0,0,0,0,0,0,0,1,
scooby_state_401e0f|17|-2 1,0,0,0,0,0,0,0,0,0,0,0,0,0,0,1,
scooby_state_401d2b|9|-1 0,1,0,0,0,0,0,0,0,0,0,0,0,0,0,1,
scooby_state_402241|9|1 1,0,0,0,0,0,0,0,0,0,0,0,0,0,0,1,
scooby_state_402044|1|1 1,0,0,0,0,0,0,0,0,0,0,0,0,0,0,1,
scooby_state_402741|29|1 1,0,0,0,0,0,0,0,0,0,0,0,0,0,0,1,
scooby_state_402402|16|1 1,0,0,0,0,0,0,0,0,0,0,0,0,0,0,1,
scooby_state_402142|5|1 1,0,0,0,0,0,0,0,0,0,0,0,0,0,0,1,
scooby_state_401df0|55|0 1,0,0,0,0,0,0,0,0,0,0,0,0,0,0,1,
scooby_state_401e8e|18|1 1,0,0,0,0,0,0,0,0,0,0,0,0,0,0,1,
scooby_state_402081|2|1 1,0,0,0,0,0,0,0,0,0,0,0,0,0,0,1,
scooby_state_402704|28|1 1,0,0,0,0,0,0,0,0,0,0,0,0,0,0,1,
scooby_state_401e19|59|-2 0,1,0,0,0,0,0,0,0,0,0,0,0,0,0,1,
scooby_state_402382|14|1 1,0,0,0,0,0,0,0,0,0,0,0,0,0,0,1,
scooby_state_401f82|62|1 1,0,0,0,0,0,0,0,0,0,0,0,0,0,0,1,
scooby_state_401cb0|50|-9 1,0,0,0,0,0,0,0,0,0,0,0,0,0,0,1,
scooby_state_401d71|1|-1 1,0,0,0,0,0,0,0,0,0,0,0,0,0,0,1,
scooby_state_401f44|61|1 1,0,0,0,0,0,0,0,0,0,0,0,0,0,0,1,
scooby_state_401e0f|50|-2 1,0,0,0,0,0,0,0,0,0,0,0,0,0,0,1,
scooby_state_401d2b|11|-1 1,0,0,0,0,0,0,0,0,0,0,0,0,0,0,1,
scooby_state_401d14|2|2 0,1,0,0,0,0,0,0,0,0,0,0,0,0,0,1,
scooby_state_401cc5|51|1 1,0,0,0,0,0,0,0,0,0,0,0,0,0,0,1,
scooby_state_401d1f|11|-1 0,1,0,0,0,0,0,0,0,0,0,0,0,0,0,1,
scooby_state_401d1f|48|-1 0,1,0,0,0,0,0,0,0,0,0,0,0,0,0,1,
scooby_state_401e0f|60|-2 1,0,0,0,0,0,0,0,0,0,0,0,0,0,0,1,
scooby_state_401e0f|42|-2 1,0,0,0,0,0,0,0,0,0,0,0,0,0,0,1,
scooby_state_401e74|0|-3 0,1,0,0,0,0,0,0,0,0,0,0,0,0,0,1,
scooby_state_402485|18|1 1,0,0,0,0,0,0,0,0,0,0,0,0,0,0,1,
scooby_state_401d1f|8|-1 0,1,0,0,0,0,0,0,0,0,0,0,0,0,0,1,
scooby_state_401e81|26|1 0,1,0,0,0,0,0,0,0,0,0,0,0,0,0,1,
scooby_state_401d1f|26|-1 0,1,0,0,0,0,0,0,0,0,0,0,0,0,0,1,
scooby_state_401d2b|19|-1 0,1,0,0,0,0,0,0,0,0,0,0,0,0,0,1,
scooby_state_401d14|3|2 0,1,0,0,0,0,0,0,0,0,0,0,0,0,0,1,
scooby_state_401d1f|19|-1 0,1,0,0,0,0,0,0,0,0,0,0,0,0,0,1,
scooby_state_401e74|10|1 0,1,0,0,0,0,0,0,0,0,0,0,0,0,0,1,
scooby_state_401e0f|56|-2 1,0,0,0,0,0,0,0,0,0,0,0,0,0,0,1,
scooby_state_401d1f|37|-1 0,1,0,0,0,0,0,0,0,0,0,0,0,0,0,1,
scooby_state_401d2b|44|-1 1,0,0,0,0,0,0,0,0,0,0,0,0,0,0,1,
scooby_state_401d1f|9|-1 0,1,0,0,0,0,0,0,0,0,0,0,0,0,0,1,
scooby_state_401d1f|7|-1 0,1,0,0,0,0,0,0,0,0,0,0,0,0,0,1,
scooby_state_401cf7|0|-2 0,1,0,0,0,0,0,0,0,0,0,0,0,0,0,1,
scooby_state_401e33|3|2 0,1,0,0,0,0,0,0,0,0,0,0,0,0,0,1,
scooby_state_401e0f|57|-2 1,0,0,0,0,0,0,0,0,0,0,0,0,0,0,1,
scooby_state_402680|26|1 1,0,0,0,0,0,0,0,0,0,0,0,0,0,0,1,
scooby_state_401cf7|62|2 1,0,0,0,0,0,0,0,0,0,0,0,0,0,0,1,
scooby_state_401e5a|50|-1 1,0,0,0,0,0,0,0,0,0,0,0,0,0,0,1,
scooby_state_402441|17|1 1,0,0,0,0,0,0,0,0,0,0,0,0,0,0,1,
scooby_state_402505|20|1 1,0,0,0,0,0,0,0,0,0,0,0,0,0,0,1,
scooby_state_402285|10|1 1,0,0,0,0,0,0,0,0,0,0,0,0,0,0,1,
scooby_state_4022c0|11|1 1,0,0,0,0,0,0,0,0,0,0,0,0,0,0,1,
scooby_state_401d2b|38|-1 1,0,0,0,0,0,0,0,0,0,0,0,0,0,0,1,
scooby_state_401d03|52|1 1,0,0,0,0,0,0,0,0,0,0,0,0,0,0,1,
scooby_state_401d60|17|1 0,1,0,0,0,0,0,0,0,0,0,0,0,0,0,1,
scooby_state_401e0f|51|-2 1,0,0,0,0,0,0,0,0,0,0,0,0,0,0,1,
scooby_state_401d1f|16|-1 0,1,0,0,0,0,0,0,0,0,0,0,0,0,0,1,
scooby_state_4023c0|15|1 1,0,0,0,0,0,0,0,0,0,0,0,0,0,0,1,
scooby_state_401d4f|15|1 0,1,0,0,0,0,0,0,0,0,0,0,0,0,0,1,
scooby_state_402000|0|-31 1,0,0,0,0,0,0,0,0,0,0,0,0,0,0,1,
scooby_state_4026c4|27|1 1,0,0,0,0,0,0,0,0,0,0,0,0,0,0,1,
scooby_state_401d60|5|1 0,1,0,0,0,0,0,0,0,0,0,0,0,0,0,1,
scooby_state_4021c2|7|1 1,0,0,0,0,0,0,0,0,0,0,0,0,0,0,1,
scooby_state_401d4f|1|1 0,1,0,0,0,0,0,0,0,0,0,0,0,0,0,1,
scooby_state_402540|21|1 1,0,0,0,0,0,0,0,0,0,0,0,0,0,0,1,
scooby_state_401d2b|37|-1 0,1,0,0,0,0,0,0,0,0,0,0,0,0,0,1,
scooby_state_401d1f|47|-1 0,1,0,0,0,0,0,0,0,0,0,0,0,0,0,1,
scooby_state_401d1f|23|-1 0,1,0,0,0,0,0,0,0,0,0,0,0,0,0,1,
scooby_state_401e81|52|1 0,1,0,0,0,0,0,0,0,0,0,0,0,0,0,1,
scooby_state_401e19|50|-2 0,1,0,0,0,0,0,0,0,0,0,0,0,0,0,1,
scooby_state_401ce6|33|-2 1,0,0,0,0,0,0,0,0,0,0,0,0,0,0,1,
scooby_state_401ec5|59|1 1,0,0,0,0,0,0,0,0,0,0,0,0,0,0,1,
scooby_state_401d1f|41|-1 0,1,0,0,0,0,0,0,0,0,0,0,0,0,0,1,
scooby_state_401e0f|58|-2 1,0,0,0,0,0,0,0,0,0,0,0,0,0,0,1,
scooby_state_4025c2|23|1 1,0,0,0,0,0,0,0,0,0,0,0,0,0,0,1,

scooby_action_0_deg_dist 0,84,0,0,0,0,0,0,0,0,0,0,0,0,0,0,
scooby_action_4_deg_dist 0,86,0,0,0,0,0,0,0,0,0,0,0,0,0,0,
scooby_action_3_deg_dist 0,40892,27430,0,66879,0,202435,0,0,0,0,0,0,0,0,0,
scooby_action_32_deg_dist 0,71,0,0,0,0,0,0,0,0,0,0,0,0,0,0,
scooby_action_5_deg_dist 0,86,0,0,0,0,0,0,0,0,0,0,0,0,0,0,
scooby_action_1_deg_dist 0,36458,28522,0,74275,0,232199,0,0,0,0,0,0,0,0,0,
scooby_action_30_deg_dist 0,99,0,0,0,0,0,0,0,0,0,0,0,0,0,0,
scooby_action_-3_deg_dist 0,83,0,0,0,0,0,0,0,0,0,0,0,0,0,0,
scooby_action_10_deg_dist 0,93,0,0,0,0,0,0,0,0,0,0,0,0,0,0,
scooby_action_-1_deg_dist 0,93,0,0,0,0,0,0,0,0,0,0,0,0,0,0,
scooby_action_23_deg_dist 0,81,0,0,0,0,0,0,0,0,0,0,0,0,0,0,
scooby_action_-6_deg_dist 0,74,0,0,0,0,0,0,0,0,0,0,0,0,0,0,
scooby_action_11_deg_dist 0,81,0,0,0,0,0,0,0,0,0,0,0,0,0,0,
scooby_action_22_deg_dist 0,90,0,0,0,0,0,0,0,0,0,0,0,0,0,0,
scooby_action_12_deg_dist 0,94,0,0,0,0,0,0,0,0,0,0,0,0,0,0,

scooby_track_called 710205
scooby_track_same_address 135556
scooby_track_evict 574393

scooby_reward_demand_called 710205
scooby_reward_demand_pt_not_found 158348
scooby_reward_demand_pt_found 551857
scooby_reward_demand_pt_found_total 551857
scooby_reward_demand_has_reward 22
scooby_reward_train_called 1085
scooby_reward_assign_reward_called 574647
scooby_reward_no_pref 84
scooby_reward_incorrect 1001
scooby_reward_correct_untimely 438231
scooby_reward_correct_timely 113604
scooby_reward_out_of_bounds 21727
scooby_reward_tracker_hit 0

scooby_reward_none_low_bw 84
scooby_reward_none_high_bw 0
scooby_reward_incorrect_low_bw 1001
scooby_reward_incorrect_high_bw 0
scooby_reward_correct_untimely_low_bw 438231
scooby_reward_correct_untimely_high_bw 0
scooby_reward_correct_timely_low_bw 113604
scooby_reward_correct_timely_high_bw 0
scooby_reward_out_of_bounds_low_bw 21727
scooby_reward_out_of_bounds_high_bw 0
scooby_reward_tracker_hit_low_bw 0
scooby_reward_tracker_hit_high_bw 0

scooby_reward_1 0,519,226500,55929,5857,0,
scooby_reward_3 0,423,211576,57245,15661,0,
scooby_reward_4 0,0,59,23,4,0,
scooby_reward_5 0,0,48,29,9,0,
scooby_reward_10 0,0,29,50,14,0,
scooby_reward_11 0,0,10,53,18,0,
scooby_reward_12 0,0,8,68,18,0,
scooby_reward_22 0,0,0,59,31,0,
scooby_reward_23 0,0,0,54,27,0,
scooby_reward_30 0,0,0,51,48,0,
scooby_reward_32 0,0,0,43,28,0,
scooby_reward_-1 0,20,1,0,2,0,
scooby_reward_-3 0,23,0,0,5,0,
scooby_reward_-6 0,16,0,0,5,0,
scooby_reward_0 84,0,0,0,0,0,

scooby_train_called 574392
scooby_train_compute_reward 1085

scooby_register_fill_called 563807
scooby_register_fill_set 113942
scooby_register_fill_set_total 113942

scooby_register_prefetch_hit_called 962492
scooby_register_prefetch_hit_set 362757
scooby_register_prefetch_hit_set_total 362757

scooby_pref_issue_scooby 2297762

learning_engine_featurewise.action.called 710205
learning_engine_featurewise.action.explore 1283
learning_engine_featurewise.action.exploit 708922
learning_engine_featurewise.action.fallback 0
learning_engine_featurewise.action.dyn_fallback_saved_bw 0
learning_engine_featurewise.action.dyn_fallback_saved_bw_acc 17200
learning_engine_featurewise.action.index_1_explored 82
learning_engine_featurewise.action.index_1_exploited 371372
learning_engine_featurewise.action.index_3_explored 86
learning_engine_featurewise.action.index_3_exploited 337550
learning_engine_featurewise.action.index_4_explored 86
learning_engine_featurewise.action.index_4_exploited 0
learning_engine_featurewise.action.index_5_explored 86
learning_engine_featurewise.action.index_5_exploited 0
learning_engine_featurewise.action.index_10_explored 93
learning_engine_featurewise.action.index_10_exploited 0
learning_engine_featurewise.action.index_11_explored 81
learning_engine_featurewise.action.index_11_exploited 0
learning_engine_featurewise.action.index_12_explored 94
learning_engine_featurewise.action.index_12_exploited 0
learning_engine_featurewise.action.index_22_explored 90
learning_engine_featurewise.action.index_22_exploited 0
learning_engine_featurewise.action.index_23_explored 81
learning_engine_featurewise.action.index_23_exploited 0
learning_engine_featurewise.action.index_30_explored 99
learning_engine_featurewise.action.index_30_exploited 0
learning_engine_featurewise.action.index_32_explored 71
learning_engine_featurewise.action.index_32_exploited 0
learning_engine_featurewise.action.index_-1_explored 93
learning_engine_featurewise.action.index_-1_exploited 0
learning_engine_featurewise.action.index_-3_explored 83
learning_engine_featurewise.action.index_-3_exploited 0
learning_engine_featurewise.action.index_-6_explored 74
learning_engine_featurewise.action.index_-6_exploited 0
learning_engine_featurewise.action.index_0_explored 84
learning_engine_featurewise.action.index_0_exploited 0
learning_engine_featurewise.learn.called 574392
learning_engine_featurewise.learn.su_skip_PC 0
learning_engine_featurewise.learn.su_skip_PC_Delta 0

learning_engine_featurewise.q_value_histogram.bucket_0 0
learning_engine_featurewise.q_value_histogram.bucket_1 0
learning_engine_featurewise.q_value_histogram.bucket_2 0
learning_engine_featurewise.q_value_histogram.bucket_3 0
learning_engine_featurewise.q_value_histogram.bucket_4 1779
learning_engine_featurewise.q_value_histogram.bucket_5 3157
learning_engine_featurewise.q_value_histogram.bucket_6 703986
learning_engine_featurewise.q_value_histogram.bucket_7 0

learning_engine_featurewise.consensus.total 708922
learning_engine_featurewise.consensus.feature_align_PC 703672
learning_engine_featurewise.consensus.feature_align_PC_ratio 0.99
learning_engine_featurewise.consensus.feature_align_PC_Delta 707784
learning_engine_featurewise.consensus.feature_align_PC_Delta_ratio 1.00
learning_engine_featurewise.consensus.feature_align_all 702534
learning_engine_featurewise.consensus.feature_align_all_ratio 0.99

learning_engine_featurewise.feature_PC_min_weight 1000000.00000000
learning_engine_featurewise.feature_PC_max_weight 0.00000000
learning_engine_featurewise.feature_PC_Delta_min_weight 1000000.00000000
learning_engine_featurewise.feature_PC_Delta_max_weight 0.00000000
unique_pcs 77
unique_pages 11086
unique_trigger_pcs 8
total_bitmaps_seen 0
unique_bitmaps_seen 0

scooby_bw_epochs 542227
scooby_bw_level_0 104933
scooby_bw_level_1 241598
scooby_bw_level_2 148596
scooby_bw_level_3 47100

scooby_ipc_epochs 0
scooby_ipc_level_0 0
scooby_ipc_level_1 0
scooby_ipc_level_2 0
scooby_ipc_level_3 0

scooby_cache_acc_epochs 131989
scooby_cache_acc_level_0 637
scooby_cache_acc_level_1 1839
scooby_cache_acc_level_2 3098
scooby_cache_acc_level_3 4378
scooby_cache_acc_level_4 5720
scooby_cache_acc_level_5 7889
scooby_cache_acc_level_6 10456
scooby_cache_acc_level_7 12162
scooby_cache_acc_level_8 12800
scooby_cache_acc_level_9 73010

Channel_0_RQ_row_buffer_hit 262681
Channel_0_RQ_row_buffer_miss 2101174
Channel_0_WQ_row_buffer_hit 183918
Channel_0_WQ_row_buffer_miss 1591127
Channel_0_WQ_full 0
Channel_0_dbus_congested 2808797

avg_congested_cycle 11

DRAM_bw_pochs 542227
DRAM_bw_level_0 104933
DRAM_bw_level_1 241598
DRAM_bw_level_2 148596
DRAM_bw_level_3 47100
